
#######################################################################
#
#                 Cambridge Crystallographic Data Centre
#                                CCDC 
#
#######################################################################
#
# If this CIF has been generated from an entry in the Cambridge 
# Structural Database, then it will include bibliographic, chemical, 
# crystal, experimental, refinement or atomic coordinate data resulting 
# from the CCDC's data processing and validation procedures.
#
#######################################################################

data_NUMRUI
_symmetry_cell_setting           monoclinic
_symmetry_space_group_name_H-M   'P 21/c'
_symmetry_Int_Tables_number      14
_space_group_name_Hall           '-P 2ybc'
loop_
_symmetry_equiv_pos_site_id
_symmetry_equiv_pos_as_xyz
1 x,y,z
2 x,1/2-y,1/2+z
3 -x,-y,-z
4 -x,1/2+y,1/2-z
_cell_length_a                   10.035(4)
_cell_length_b                   11.980(3)
_cell_length_c                   12.425(5)
_cell_angle_alpha                90
_cell_angle_beta                 110.94(3)
_cell_angle_gamma                90
_cell_volume                     1395.07
loop_
_atom_site_label
_atom_site_type_symbol
_atom_site_fract_x
_atom_site_fract_y
_atom_site_fract_z
Sn1 Sn -0.06015(5) -0.21154(5) -0.26701(5)
Cu1 Cu 0.43386(8) -0.42140(8) -0.07313(6)
C1 C 0.2573(7) -0.3379(7) -0.1120(6)
N1 N 0.1574(8) -0.2867(7) -0.1449(7)
N2 N 0.7224(8) -0.3543(7) 0.1024(7)
C2 C 0.6190(8) -0.3907(7) 0.0426(6)
C3 C -0.0742(14) -0.0983(14) -0.1425(10)
H1 H 0.0151(45) -0.0964(77) -0.0789(48)
H2 H -0.095(13) -0.0252(22) -0.1760(31)
H3 H -0.1486(89) -0.1214(55) -0.1158(76)
C4 C 0.0432(13) -0.1610(14) -0.3808(10)
H4 H 0.1312(70) -0.2013(78) -0.3631(73)
H5 H -0.0174(60) -0.177(10) -0.4588(13)
H6 H 0.063(12) -0.0824(24) -0.3721(79)
C5 C -0.1540(18) -0.3696(14) -0.2759(19)
H7 H -0.2250(96) -0.3802(44) -0.3512(38)
H8 H -0.0821(30) -0.4262(15) -0.262(11)
H9 H -0.198(11) -0.3747(38) -0.2190(73)
N3 N 0.4551(6) -0.4572(5) -0.2318(5)
C6 C 0.5229(12) -0.5461(9) -0.2505(7)
H10 H 0.5616(12) -0.5968(9) -0.1908(7)
C7 C 0.5387(13) -0.5667(8) -0.3552(7)
H11 H 0.5824(13) -0.6322(8) -0.3656(7)
C8 C 0.4900(8) -0.4904(7) -0.4440(5)
C9 C 0.4246(12) -0.3981(8) -0.4220(7)
H12 H 0.3925(12) -0.3427(8) -0.4778(7)
C10 C 0.4051(13) -0.3852(8) -0.3184(7)
H13 H 0.3546(13) -0.3233(8) -0.3086(7)
C8B C 0.5100(8) -0.5096(7) -0.5560(5)
C7B C 0.4613(13) -0.4333(8) -0.6448(7)
C6B C 0.4771(12) -0.4539(9) -0.7495(7)
N3B N 0.5449(6) -0.5428(5) -0.7682(5)
C10B C 0.5949(13) -0.6148(8) -0.6816(7)
C9B C 0.5754(12) -0.6019(8) -0.5780(7)
H12B H 0.6075(12) -0.6573(8) -0.5222(7)
H13B H 0.6454(13) -0.6767(8) -0.6914(7)
H10B H 0.4384(12) -0.4032(9) -0.8092(7)
H11B H 0.4176(13) -0.3678(8) -0.6344(7)
N2A N -0.2776(8) -0.1457(7) -0.3976(7)
N2B N 0.2776(8) -0.6457(7) -0.1024(7)
C2B C 0.3810(8) -0.6093(7) -0.0426(6)
Sn1A Sn 0.93985(5) -0.28846(5) 0.23299(5)
Sn1C Sn 0.06015(5) -0.71154(5) -0.23299(5)
Cu1B Cu 0.56614(8) -0.57860(8) 0.07313(6)
Cu1B_2 Cu 0.56614(8) -0.57860(8) -0.92687(6)
C1B C 0.7427(7) -0.6621(7) 0.1120(6)
N1B N 0.8426(8) -0.7133(7) 0.1449(7)
N3B_2 N 0.5449(6) -0.5428(5) 0.2318(5)
Sn1B Sn 1.06015(5) -0.78846(5) 0.26701(5)
N1A N 1.1574(8) -0.2133(7) 0.3551(7)
C3A C 0.9258(14) -0.4017(14) 0.3575(10)
C4A C 1.0432(13) -0.3390(14) 0.1192(10)
C5A C 0.8460(18) -0.1304(14) 0.2241(19)
H1A H 1.0151(45) -0.4036(77) 0.4211(48)
H2A H 0.905(13) -0.4748(22) 0.3240(31)
H3A H 0.8514(89) -0.3786(55) 0.3842(76)
H4A H 1.1312(70) -0.2987(78) 0.1369(73)
H5A H 0.9826(60) -0.323(10) 0.0412(13)
H6A H 1.063(12) -0.4176(24) 0.1279(79)
H7A H 0.7750(96) -0.1198(44) 0.1488(38)
H8A H 0.9179(30) -0.0738(15) 0.238(11)
H9A H 0.802(11) -0.1253(38) 0.2810(73)
loop_
_geom_bond_atom_site_label_1
_geom_bond_atom_site_label_2
_geom_bond_site_symmetry_1
_geom_bond_site_symmetry_2
Sn1 N1 1_555 1_555
Cu1 C1 1_555 1_555
C1 N1 1_555 1_555
N2 C2 1_555 1_555
C2 Cu1 1_555 1_555
C3 Sn1 1_555 1_555
H1 C3 1_555 1_555
H2 C3 1_555 1_555
H3 C3 1_555 1_555
C4 Sn1 1_555 1_555
H4 C4 1_555 1_555
H5 C4 1_555 1_555
H6 C4 1_555 1_555
C5 Sn1 1_555 1_555
H7 C5 1_555 1_555
H8 C5 1_555 1_555
H9 C5 1_555 1_555
N3 Cu1 1_555 1_555
C6 N3 1_555 1_555
H10 C6 1_555 1_555
C7 C6 1_555 1_555
H11 C7 1_555 1_555
C8 C7 1_555 1_555
C9 C8 1_555 1_555
H12 C9 1_555 1_555
C10 N3 1_555 1_555
H13 C10 1_555 1_555
C8B C8 1_555 1_555
C7B C8B 1_555 1_555
C6B C7B 1_555 1_555
N3B C6B 1_555 1_555
C10B N3B 1_555 1_555
C9B C8B 1_555 1_555
H12B C9B 1_555 1_555
H13B C10B 1_555 1_555
H10B C6B 1_555 1_555
H11B C7B 1_555 1_555
N2A Sn1 1_555 1_555
N2B C2B 1_555 1_555
C2B Cu1 1_555 1_555
Sn1A N2 1_555 1_555
Sn1C N2B 1_555 1_555
Cu1B C2 1_555 1_555
Cu1B_2 N3B 1_555 1_555
C1B Cu1B 1_555 1_555
N1B C1B 1_555 1_555
N3B_2 Cu1B 1_555 1_555
Sn1B N1B 1_555 1_555
N1A Sn1A 1_555 1_555
C3A Sn1A 1_555 1_555
C4A Sn1A 1_555 1_555
C5A Sn1A 1_555 1_555
H1A C3A 1_555 1_555
H2A C3A 1_555 1_555
H3A C3A 1_555 1_555
H4A C4A 1_555 1_555
H5A C4A 1_555 1_555
H6A C4A 1_555 1_555
H7A C5A 1_555 1_555
H8A C5A 1_555 1_555
H9A C5A 1_555 1_555
C9 C10 1_555 1_555
C10B C9B 1_555 1_555
C2B Cu1B 1_555 1_555

#END
