
#######################################################################
#
#                 Cambridge Crystallographic Data Centre
#                                CCDC 
#
#######################################################################
#
# If this CIF has been generated from an entry in the Cambridge 
# Structural Database, then it will include bibliographic, chemical, 
# crystal, experimental, refinement or atomic coordinate data resulting 
# from the CCDC's data processing and validation procedures.
#
#######################################################################

data_NUMZIF
_symmetry_cell_setting           monoclinic
_symmetry_space_group_name_H-M   'P c'
_symmetry_Int_Tables_number      7
_space_group_name_Hall           'P -2yc'
loop_
_symmetry_equiv_pos_site_id
_symmetry_equiv_pos_as_xyz
1 x,y,z
2 x,-y,1/2+z
_cell_length_a                   11.8808(12)
_cell_length_b                   5.3522(3)
_cell_length_c                   17.1234(12)
_cell_angle_alpha                90
_cell_angle_beta                 125.214(3)
_cell_angle_gamma                90
_cell_volume                     889.595
loop_
_atom_site_label
_atom_site_type_symbol
_atom_site_fract_x
_atom_site_fract_y
_atom_site_fract_z
Ag1 Ag 0.49989(5) -0.11620(8) -0.50003(3)
Ag2 Ag 0.34752(6) 0.25484(8) -0.41865(4)
Ag3 Ag 0.23010(4) -0.23033(10) -0.33962(3)
S1 S 0.15587(11) -0.2770(2) -0.55906(8)
S2 S 0.55573(12) -0.2269(2) -0.28328(8)
O1 O 0.2713(4) -0.1068(7) -0.5246(3)
O2 O 0.0923(5) -0.2464(8) -0.5081(3)
O3 O 0.1888(4) -0.5342(7) -0.5634(3)
O4 O -0.2641(4) 0.0489(7) -0.9472(2)
O5 O 0.6107(5) -0.2690(9) -0.3384(3)
O6 O 0.5234(4) 0.0326(7) -0.2807(3)
O7 O 0.4415(4) -0.3919(7) -0.3096(3)
O8 O 0.9950(3) -0.5072(8) 0.1079(2)
O9 O 0.4807(4) -0.6534(8) -0.5217(3)
O10 O 0.3938(5) -0.3886(8) -0.6370(3)
O11 O 0.3419(5) -0.7818(8) -0.6664(3)
O12 O 0.2222(4) 0.2133(9) -0.3231(3)
H1 H 0.140(3) 0.250(14) -0.344(6)
H2 H 0.278(7) 0.279(14) -0.269(3)
N1 N -0.0531(4) 0.0841(8) -0.8069(3)
H3 H -0.0376 0.2116 -0.8300
N2 N 0.7819(4) -0.5665(7) -0.0309(3)
H4 H 0.7710 -0.6927 -0.0048
N3 N 0.4049(4) -0.6098(8) -0.6086(3)
C1 C 0.0284(5) -0.1886(9) -0.6775(3)
C2 C -0.0979(5) -0.3210(9) -0.7322(3)
H5 H -0.1122 -0.4599 -0.7063
C3 C -0.1981(5) -0.2451(9) -0.8223(4)
H6 H -0.2808 -0.3325 -0.8575
C4 C -0.1783(5) -0.0338(9) -0.8637(3)
C5 C 0.0479(5) 0.0110(9) -0.7163(3)
H7 H 0.1304 0.0990 -0.6811
C6 C 0.6900(5) -0.3061(9) -0.1644(3)
C7 C 0.8123(5) -0.1651(10) -0.1147(4)
H8 H 0.8214 -0.0269 -0.1436
C8 C 0.9170(6) -0.2313(9) -0.0245(4)
H9 H 0.9985 -0.1399 0.0076
C9 C 0.9035(5) -0.4400(10) 0.0218(3)
C10 C 0.6765(5) -0.5067(9) -0.1221(3)
H10 H 0.5965 -0.6022 -0.1549
Ag1A Ag -0.50011(5) 0.11620(8) -1.00003(3)
Ag1_2 Ag 0.49989(5) -1.11620(8) -0.50003(3)
Ag2_2 Ag 0.34752(6) -0.74516(8) -0.41865(4)
Ag3A Ag 1.23010(4) -0.76967(10) 0.16038(3)
Ag3_2 Ag 0.23010(4) 0.76967(10) -0.33962(3)
Ag3A_2 Ag 0.23010(4) -0.76967(10) -0.83962(3)
O3_2 O 0.1888(4) 0.4658(7) -0.5634(3)
O4A O 0.7359(4) -0.0489(7) -0.4472(2)
O7_2 O 0.4415(4) 0.6081(7) -0.3096(3)
O8A O -0.0050(3) -0.4928(8) -0.3921(2)
O9_2 O 0.4807(4) 0.3466(8) -0.5217(3)
O11A O 0.3419(5) -0.2182(8) -0.1664(3)
O11_2 O 0.3419(5) 0.2182(8) -0.6664(3)
O12_2 O 0.2222(4) -0.7867(9) -0.3231(3)
H1_2 H 0.140(3) -0.750(14) -0.344(6)
H2_2 H 0.278(7) -0.721(14) -0.269(3)
loop_
_geom_bond_atom_site_label_1
_geom_bond_atom_site_label_2
_geom_bond_site_symmetry_1
_geom_bond_site_symmetry_2
Ag1 O1 1_555 1_555
Ag2 O1 1_555 1_555
Ag3 O2 1_555 1_555
S1 O1 1_555 1_555
S2 O5 1_555 1_555
O2 S1 1_555 1_555
O3 S1 1_555 1_555
O4 C4 1_555 1_555
O5 Ag1 1_555 1_555
O6 Ag2 1_555 1_555
O7 Ag3 1_555 1_555
O8 C9 1_555 1_555
O9 Ag1 1_555 1_555
O10 Ag1 1_555 1_555
O11 N3 1_555 1_555
O12 Ag2 1_555 1_555
H1 O12 1_555 1_555
H2 O12 1_555 1_555
N1 H3 1_555 1_555
N2 H4 1_555 1_555
N3 O9 1_555 1_555
C1 S1 1_555 1_555
C2 C1 1_555 1_555
H5 C2 1_555 1_555
C3 C2 1_555 1_555
H6 C3 1_555 1_555
C4 N1 1_555 1_555
C5 N1 1_555 1_555
H7 C5 1_555 1_555
C6 S2 1_555 1_555
C7 C6 1_555 1_555
H8 C7 1_555 1_555
C8 C7 1_555 1_555
H9 C8 1_555 1_555
C9 N2 1_555 1_555
C10 N2 1_555 1_555
H10 C10 1_555 1_555
Ag1A O4 1_555 1_555
Ag1_2 O9 1_555 1_555
Ag2_2 O3 1_555 1_555
Ag3A O8 1_555 1_555
Ag3_2 O12 1_555 1_555
Ag3A_2 O11 1_555 1_555
O3_2 Ag2 1_555 1_555
O4A Ag1 1_555 1_555
O7_2 Ag2 1_555 1_555
O8A Ag3 1_555 1_555
O9_2 Ag1 1_555 1_555
O11A Ag3 1_555 1_555
O11_2 Ag1 1_555 1_555
O12_2 Ag3 1_555 1_555
H1_2 O12_2 1_555 1_555
H2_2 O12_2 1_555 1_555
Ag2 O9_2 1_555 1_555
Ag3 O12 1_555 1_555
S2 O6 1_555 1_555
S2 O7 1_555 1_555
O7 Ag2_2 1_555 1_555
O9 Ag2_2 1_555 1_555
O10 N3 1_555 1_555
O11 Ag1_2 1_555 1_555
C1 C5 1_555 1_555
C3 C4 1_555 1_555
C6 C10 1_555 1_555
C8 C9 1_555 1_555
Ag2_2 O12_2 1_555 1_555
Ag3_2 O7_2 1_555 1_555

#END
