
#######################################################################
#
#                 Cambridge Crystallographic Data Centre
#                                CCDC 
#
#######################################################################
#
# If this CIF has been generated from an entry in the Cambridge 
# Structural Database, then it will include bibliographic, chemical, 
# crystal, experimental, refinement or atomic coordinate data resulting 
# from the CCDC's data processing and validation procedures.
#
#######################################################################

data_NUNMOZ
_symmetry_cell_setting           monoclinic
_symmetry_space_group_name_H-M   'P 21/c'
_symmetry_Int_Tables_number      14
_space_group_name_Hall           '-P 2ybc'
loop_
_symmetry_equiv_pos_site_id
_symmetry_equiv_pos_as_xyz
1 x,y,z
2 -x,1/2+y,1/2-z
3 -x,-y,-z
4 x,1/2-y,1/2+z
_cell_length_a                   8.8875(18)
_cell_length_b                   9.2079(18)
_cell_length_c                   12.939(3)
_cell_angle_alpha                90
_cell_angle_beta                 97.22(3)
_cell_angle_gamma                90
_cell_volume                     1050.47
loop_
_atom_site_label
_atom_site_type_symbol
_atom_site_fract_x
_atom_site_fract_y
_atom_site_fract_z
C1 C 0.6538(3) 0.9382(3) 0.9155(2)
H1 H 0.5552 0.9678 0.9215
N1 N 0.7164(2) 0.8221(3) 0.96244(19)
O1 O 0.52018(17) 0.5378(2) 0.88035(12)
Mn1 Mn 0.59756(4) 0.64549(4) 1.03462(3)
C2 C 0.8810(3) 0.9343(3) 0.8676(2)
N2 N 0.7455(3) 1.0094(3) 0.85830(19)
H2 H 0.7241 1.0871 0.8226
O2 O 1.3361(2) 0.7520(2) 0.77220(15)
O3 O 0.6154(2) 0.74283(19) 1.18596(14)
C3 C 0.8628(3) 0.8183(3) 0.9340(2)
O4 O 1.3671(2) 0.7185(2) 0.99961(16)
C4 C 0.9821(3) 0.7226(3) 0.9624(2)
H3 H 0.9724 0.6463 1.0082
O5 O 1.2334(2) 0.5175(2) 0.95142(17)
C5 C 1.1158(3) 0.7451(3) 0.9201(2)
C6 C 1.1295(3) 0.8575(3) 0.8473(2)
C7 C 1.2657(3) 0.8663(3) 0.7888(2)
C8 C 1.2495(3) 0.6528(3) 0.9593(2)
C9 C 1.01235(18) 0.95590(19) 0.82118(13)
H4 H 1.0212 1.0321 0.7752
H5 H 0.5700 0.8040 1.1451
H6 H 0.4444 0.5657 0.8400
H7 H 0.5794 0.6589 1.1754
H8 H 0.5900 0.5089 0.8473
O6 O 1.2983(3) 0.9885(2) 0.75589(18)
O1B O 0.47982(17) 0.4622(2) 1.11965(12)
Mn1B Mn 0.40244(4) 0.35451(4) 0.96538(3)
Mn1_2 Mn 1.59756(4) 0.64549(4) 1.03462(3)
Mn1B_2 Mn 1.40244(4) 0.35451(4) 0.96538(3)
O4_2 O 0.3671(2) 0.7185(2) 0.99961(16)
O5B O 0.7666(2) 0.4825(2) 1.04858(17)
H6B H 0.5556 0.4343 1.1600
H8B H 0.4100 0.4911 1.1527
loop_
_geom_bond_atom_site_label_1
_geom_bond_atom_site_label_2
_geom_bond_site_symmetry_1
_geom_bond_site_symmetry_2
C1 H1 1_555 1_555
N1 C1 1_555 1_555
O1 Mn1 1_555 1_555
Mn1 N1 1_555 1_555
C2 N2 1_555 1_555
N2 C1 1_555 1_555
H2 N2 1_555 1_555
O2 C7 1_555 1_555
O3 Mn1 1_555 1_555
C3 N1 1_555 1_555
O4 C8 1_555 1_555
C4 C3 1_555 1_555
H3 C4 1_555 1_555
O5 C8 1_555 1_555
C5 C4 1_555 1_555
C6 C5 1_555 1_555
C7 C6 1_555 1_555
C8 C5 1_555 1_555
C9 C2 1_555 1_555
H4 C9 1_555 1_555
H5 O3 1_555 1_555
H6 O1 1_555 1_555
H7 O3 1_555 1_555
H8 O1 1_555 1_555
O6 C7 1_555 1_555
O1B Mn1 1_555 1_555
Mn1B O1 1_555 1_555
Mn1_2 O4 1_555 1_555
Mn1B_2 O5 1_555 1_555
O4_2 Mn1 1_555 1_555
O5B Mn1 1_555 1_555
H6B O1B 1_555 1_555
H8B O1B 1_555 1_555
C2 C3 1_555 1_555
C6 C9 1_555 1_555
O1B Mn1B 1_555 1_555

#END
