
#######################################################################
#
#                 Cambridge Crystallographic Data Centre
#                                CCDC 
#
#######################################################################
#
# If this CIF has been generated from an entry in the Cambridge 
# Structural Database, then it will include bibliographic, chemical, 
# crystal, experimental, refinement or atomic coordinate data resulting 
# from the CCDC's data processing and validation procedures.
#
#######################################################################

data_NUNRIZ
_symmetry_cell_setting           orthorhombic
_symmetry_space_group_name_H-M   'P b c a'
_symmetry_Int_Tables_number      61
_space_group_name_Hall           '-P 2ac 2ab'
loop_
_symmetry_equiv_pos_site_id
_symmetry_equiv_pos_as_xyz
1 x,y,z
2 1/2-x,-y,1/2+z
3 1/2+x,1/2-y,-z
4 -x,1/2+y,1/2-z
5 -x,-y,-z
6 1/2+x,y,1/2-z
7 1/2-x,1/2+y,z
8 x,1/2-y,1/2+z
_cell_length_a                   16.0866(9)
_cell_length_b                   12.8688(7)
_cell_length_c                   20.3039(16)
_cell_angle_alpha                90
_cell_angle_beta                 90
_cell_angle_gamma                90
_cell_volume                     4203.22
loop_
_atom_site_label
_atom_site_type_symbol
_atom_site_fract_x
_atom_site_fract_y
_atom_site_fract_z
Ag1 Ag 0.57901(2) 0.66394(3) 0.823160(18)
Ag2 Ag 0.731114(18) 0.54588(2) 0.779030(17)
O1 O 0.5529(3) 0.8059(3) 0.9098(3)
O2 O 0.6373(3) 0.8840(3) 0.8468(2)
O3 O 0.5847(3) 0.9644(3) 0.9287(2)
O4 O 0.4272(2) 0.6473(4) 0.8579(2)
O5 O 0.3902(3) 0.5282(3) 0.7897(3)
O6 O 0.3004(2) 0.6290(4) 0.83232(19)
N1 N 0.5959(2) 0.6883(3) 0.71536(18)
N2 N 0.6387(2) 0.4485(3) 0.72679(17)
H1 H 0.665(2) 0.423(3) 0.6942(15)
N3 N 0.6974(2) 0.1257(3) 0.85736(18)
H2 H 0.669(2) 0.074(2) 0.873(2)
N4 N 0.8779(2) 0.0641(3) 0.90887(18)
N5 N 0.5917(3) 0.8847(3) 0.8963(2)
N6 N 0.3732(2) 0.5991(3) 0.8265(2)
C1 C 0.5889(2) 0.6104(3) 0.6715(2)
C2 C 0.5981(3) 0.6267(4) 0.6040(3)
H3 H 0.5918 0.5722 0.5744
C3 C 0.6169(4) 0.7258(5) 0.5821(3)
H4 H 0.6238 0.7388 0.5373
C4 C 0.6252(3) 0.8045(4) 0.6271(3)
H5 H 0.6379 0.8715 0.6132
C5 C 0.6145(3) 0.7837(4) 0.6927(3)
H6 H 0.6204 0.8377 0.7227
C6 C 0.5666(3) 0.5053(3) 0.6989(3)
H7 H 0.5250 0.5140 0.7330
H8 H 0.5421 0.4637 0.6641
C7 C 0.6071(3) 0.3581(3) 0.7643(2)
H9 H 0.5756 0.3138 0.7348
H10 H 0.5694 0.3827 0.7981
C8 C 0.6745(2) 0.2940(3) 0.7965(2)
H11 H 0.7064 0.3374 0.8263
H12 H 0.7120 0.2675 0.7630
C9 C 0.6366(2) 0.2039(3) 0.8344(2)
H13 H 0.6072 0.2313 0.8723
H14 H 0.5961 0.1696 0.8064
C10 C 0.7488(3) 0.1625(4) 0.9134(2)
H15 H 0.7129 0.1861 0.9487
H16 H 0.7828 0.2206 0.8993
C11 C 0.8037(3) 0.0766(3) 0.9380(2)
C12 C 0.7774(3) 0.0103(4) 0.9874(2)
H17 H 0.7263 0.0209 1.0078
C13 C 0.8273(4) -0.0716(4) 1.0062(3)
H18 H 0.8097 -0.1179 1.0384
C14 C 0.9035(3) -0.0840(4) 0.9767(3)
H19 H 0.9386 -0.1380 0.9890
C15 C 0.9266(3) -0.0150(4) 0.9288(2)
H20 H 0.9784 -0.0231 0.9090
Ag1F Ag 0.92099(2) 0.16394(3) 0.823160(18)
Ag2F Ag 0.768886(18) 0.04588(2) 0.779030(17)
N3F N 0.8026(2) 0.6257(3) 0.85736(18)
N4F N 0.6221(2) 0.5641(3) 0.90887(18)
O7 O 0.4296(4) 0.8528(5) 0.9949(4)
H21 H 0.4326 0.9108 1.0148
H22 H 0.4715 0.8470 0.9696
O8 O 0.3241(4) 0.8356(4) 0.8993(3)
H23 H 0.3597 0.8355 0.9302
H24 H 0.3212 0.7748 0.8831
loop_
_geom_bond_atom_site_label_1
_geom_bond_atom_site_label_2
_geom_bond_site_symmetry_1
_geom_bond_site_symmetry_2
Ag1 Ag2 1_555 1_555
Ag2 N2 1_555 1_555
O1 Ag1 1_555 1_555
O2 N5 1_555 1_555
O3 N5 1_555 1_555
O4 Ag1 1_555 1_555
O5 N6 1_555 1_555
O6 N6 1_555 1_555
N1 Ag1 1_555 1_555
N2 H1 1_555 1_555
N3 H2 1_555 1_555
N4 C11 1_555 1_555
N5 O1 1_555 1_555
N6 O4 1_555 1_555
C1 N1 1_555 1_555
C2 C1 1_555 1_555
H3 C2 1_555 1_555
C3 C2 1_555 1_555
H4 C3 1_555 1_555
C4 C3 1_555 1_555
H5 C4 1_555 1_555
C5 N1 1_555 1_555
H6 C5 1_555 1_555
C6 N2 1_555 1_555
H7 C6 1_555 1_555
H8 C6 1_555 1_555
C7 N2 1_555 1_555
H9 C7 1_555 1_555
H10 C7 1_555 1_555
C8 C7 1_555 1_555
H11 C8 1_555 1_555
H12 C8 1_555 1_555
C9 N3 1_555 1_555
H13 C9 1_555 1_555
H14 C9 1_555 1_555
C10 N3 1_555 1_555
H15 C10 1_555 1_555
H16 C10 1_555 1_555
C11 C10 1_555 1_555
C12 C11 1_555 1_555
H17 C12 1_555 1_555
C13 C12 1_555 1_555
H18 C13 1_555 1_555
C14 C13 1_555 1_555
H19 C14 1_555 1_555
C15 N4 1_555 1_555
H20 C15 1_555 1_555
O7 H21 1_555 1_555
H22 O7 1_555 1_555
O8 H23 1_555 1_555
H24 O8 1_555 1_555
Ag1F N4 1_555 1_555
Ag2F N3 1_555 1_555
N3F Ag2 1_555 1_555
N4F Ag1 1_555 1_555
C1 C6 1_555 1_555
C4 C5 1_555 1_555
C8 C9 1_555 1_555
C14 C15 1_555 1_555
Ag1F Ag2F 1_555 1_555

#END
