
#######################################################################
#
#                 Cambridge Crystallographic Data Centre
#                                CCDC 
#
#######################################################################
#
# If this CIF has been generated from an entry in the Cambridge 
# Structural Database, then it will include bibliographic, chemical, 
# crystal, experimental, refinement or atomic coordinate data resulting 
# from the CCDC's data processing and validation procedures.
#
#######################################################################

data_NUNSUK
_symmetry_cell_setting           triclinic
_symmetry_space_group_name_H-M   'P -1'
_symmetry_Int_Tables_number      2
_space_group_name_Hall           '-P 1'
loop_
_symmetry_equiv_pos_site_id
_symmetry_equiv_pos_as_xyz
1 x,y,z
2 -x,-y,-z
_cell_length_a                   10.6690(10)
_cell_length_b                   12.5230(10)
_cell_length_c                   13.9550(10)
_cell_angle_alpha                108.81(1)
_cell_angle_beta                 90.55(1)
_cell_angle_gamma                105.21(1)
_cell_volume                     1694.02
loop_
_atom_site_label
_atom_site_type_symbol
_atom_site_fract_x
_atom_site_fract_y
_atom_site_fract_z
Mn1 Mn 0.3165(1) 0.1856(1) -0.2402(1)
O1 O 0.3236(1) 0.0353(1) -0.2072(1)
O2 O 0.1635(1) -0.1075(1) -0.3147(1)
O3 O 0.1688(1) -0.2550(1) -0.2054(1)
N1 N 0.2192(1) 0.1558(1) -0.3965(1)
N2 N 0.4715(1) 0.1665(1) -0.3554(1)
N3 N 0.4888(1) 0.2821(1) -0.1180(1)
N4 N 0.3758(1) 0.3879(1) -0.2218(1)
C1 C 0.3182(2) 0.4422(2) -0.2690(1)
C2 C 0.3690(2) 0.5596(2) -0.2617(1)
C3 C 0.4860(2) 0.6233(2) -0.2049(2)
C4 C 0.5507(2) 0.5699(2) -0.1534(1)
C5 C 0.6719(2) 0.6312(2) -0.0900(2)
C6 C 0.7282(2) 0.5778(2) -0.0389(1)
C7 C 0.6694(2) 0.4588(2) -0.0460(1)
C8 C 0.7229(2) 0.4000(2) 0.0075(1)
C9 C 0.6594(2) 0.2872(2) -0.0021(1)
C10 C 0.5423(2) 0.2302(2) -0.0658(1)
C11 C 0.5509(2) 0.3952(1) -0.1083(1)
C12 C 0.4911(2) 0.4520(1) -0.1634(1)
C13 C 0.5952(2) 0.1692(2) -0.3359(1)
C14 C 0.6822(2) 0.1561(2) -0.4097(1)
C15 C 0.6410(2) 0.1392(2) -0.5082(1)
C16 C 0.5113(2) 0.1368(2) -0.5319(1)
C17 C 0.4607(2) 0.1223(2) -0.6326(1)
C18 C 0.3352(2) 0.1197(2) -0.6525(1)
C19 C 0.2486(2) 0.1293(2) -0.5744(1)
C20 C 0.1161(2) 0.1239(2) -0.5917(1)
C21 C 0.0407(2) 0.1358(2) -0.5126(1)
C22 C 0.0948(2) 0.1518(2) -0.4159(1)
C23 C 0.2948(2) 0.1448(1) -0.4745(1)
C24 C 0.4302(2) 0.1499(1) -0.4528(1)
C25 C 0.2420(2) -0.0658(1) -0.2370(1)
C26 C 0.2501(2) -0.1379(2) -0.1694(1)
C27 C 0.0371(2) -0.2630(2) -0.1851(2)
C28 C -0.0428(2) -0.3884(2) -0.2336(2)
C29 C -0.0777(2) -0.5790(2) -0.2289(2)
C30 C -0.0337(2) -0.6454(2) -0.1686(1)
C31 C -0.0901(2) -0.8369(2) -0.1567(2)
C32 C 0.0420(2) -0.8624(2) -0.1507(1)
O4 O -0.0095(1) -0.4588(1) -0.1808(1)
O5 O 0.1354(1) -0.8047(1) -0.1840(1)
O6 O -0.1016(1) -0.7666(1) -0.2159(1)
O7 O 0.0444(1) -0.9382(1) -0.1118(1)
H1 H 0.2379(2) 0.3985(2) -0.3100(1)
H2 H 0.3229(2) 0.5948(2) -0.2956(1)
H3 H 0.5232(2) 0.7027(2) -0.2004(2)
H4 H 0.7131(2) 0.7105(2) -0.0839(2)
H5 H 0.8085(2) 0.6203(2) 0.0025(1)
H6 H 0.8028(2) 0.4391(2) 0.0500(1)
H7 H 0.6943(2) 0.2471(2) 0.0341(1)
H8 H 0.4992(2) 0.1513(2) -0.0719(1)
H9 H 0.6256(2) 0.1808(2) -0.2681(1)
H10 H 0.7695(2) 0.1587(2) -0.3920(1)
H11 H 0.6988(2) 0.1293(2) -0.5596(1)
H12 H 0.5160(2) 0.1143(2) -0.6859(1)
H13 H 0.3043(2) 0.1114(2) -0.7193(1)
H14 H 0.0797(2) 0.1120(2) -0.6580(1)
H15 H -0.0483(2) 0.1332(2) -0.5234(1)
H16 H 0.0411(2) 0.1602(2) -0.3616(1)
H17 H 0.3417(2) -0.1398(2) -0.1612(1)
H18 H 0.2270(2) -0.0977(2) -0.1012(1)
H19 H 0.0035(2) -0.2116(2) -0.2133(2)
H20 H 0.0315(2) -0.2372(2) -0.1108(2)
H21 H -0.1368(2) -0.3933(2) -0.2315(2)
H22 H -0.0261(2) -0.4178(2) -0.3057(2)
H23 H -0.0569(2) -0.6069(2) -0.3001(2)
H24 H -0.1731(2) -0.5905(2) -0.2292(2)
H25 H 0.0618(2) -0.6338(2) -0.1684(1)
H26 H -0.0541(2) -0.6171(2) -0.0973(1)
H27 H -0.1585(2) -0.9129(2) -0.1846(2)
H28 H -0.1085(2) -0.7977(2) -0.0866(2)
O5_2 O 0.1354(1) 0.1953(1) -0.1840(1)
Mn1_2 Mn 0.3165(1) -0.8144(1) -0.2402(1)
C33 C 0.2653(2) 0.4351(2) -0.5355(2)
C34 C 0.3544(2) 0.5412(2) -0.5515(2)
O8 O 0.1698(1) 0.4683(1) -0.4710(1)
H29 H 0.2216(2) 0.3775(2) -0.6019(2)
H30 H 0.3168(2) 0.3974(2) -0.5043(2)
H31 H 0.4199(2) 0.5173(2) -0.5961(2)
H32 H 0.3984(2) 0.5976(2) -0.4858(2)
H33 H 0.3033(2) 0.5778(2) -0.5832(2)
H40 H 0.1012 0.4198 -0.4923
O9 O 0.0788(1) -0.3351(1) -0.4585(1)
H34 H 0.1062 -0.2756 -0.4073
H35 H 0.1110 -0.3822 -0.4544
O10 O 0.8192(1) 0.9258(1) -0.0641(1)
H36 H 0.8434 0.9232 -0.0104
H37 H 0.8828 0.9636 -0.0822
O11 O 0.5714(2) -0.0537(2) -0.0899(1)
H38 H 0.6490 -0.0556 -0.0777
H39 H 0.5780 -0.0122 -0.1206
loop_
_geom_bond_atom_site_label_1
_geom_bond_atom_site_label_2
_geom_bond_site_symmetry_1
_geom_bond_site_symmetry_2
Mn1 O1 1_555 1_555
O1 C25 1_555 1_555
O2 C25 1_555 1_555
O3 C26 1_555 1_555
N1 Mn1 1_555 1_555
N2 Mn1 1_555 1_555
N3 Mn1 1_555 1_555
N4 Mn1 1_555 1_555
C1 N4 1_555 1_555
C2 C1 1_555 1_555
C3 C2 1_555 1_555
C4 C3 1_555 1_555
C5 C4 1_555 1_555
C6 C5 1_555 1_555
C7 C6 1_555 1_555
C8 C7 1_555 1_555
C9 C8 1_555 1_555
C10 N3 1_555 1_555
C11 N3 1_555 1_555
C12 N4 1_555 1_555
C13 N2 1_555 1_555
C14 C13 1_555 1_555
C15 C14 1_555 1_555
C16 C15 1_555 1_555
C17 C16 1_555 1_555
C18 C17 1_555 1_555
C19 C18 1_555 1_555
C20 C19 1_555 1_555
C21 C20 1_555 1_555
C22 N1 1_555 1_555
C23 N1 1_555 1_555
C24 N2 1_555 1_555
C25 C26 1_555 1_555
C26 H17 1_555 1_555
C27 O3 1_555 1_555
C28 C27 1_555 1_555
C29 C30 1_555 1_555
C30 O6 1_555 1_555
C31 C32 1_555 1_555
C32 O5 1_555 1_555
O4 C28 1_555 1_555
O5 Mn1_2 1_555 1_555
O6 C31 1_555 1_555
O7 C32 1_555 1_555
C33 C34 1_555 1_555
C34 H31 1_555 1_555
O8 C33 1_555 1_555
O9 H34 1_555 1_555
O10 H36 1_555 1_555
O11 H38 1_555 1_555
H1 C1 1_555 1_555
H2 C2 1_555 1_555
H3 C3 1_555 1_555
H4 C5 1_555 1_555
H5 C6 1_555 1_555
H6 C8 1_555 1_555
H7 C9 1_555 1_555
H8 C10 1_555 1_555
H9 C13 1_555 1_555
H10 C14 1_555 1_555
H11 C15 1_555 1_555
H12 C17 1_555 1_555
H13 C18 1_555 1_555
H14 C20 1_555 1_555
H15 C21 1_555 1_555
H16 C22 1_555 1_555
H18 C26 1_555 1_555
H19 C27 1_555 1_555
H20 C27 1_555 1_555
H21 C28 1_555 1_555
H22 C28 1_555 1_555
H23 C29 1_555 1_555
H24 C29 1_555 1_555
H25 C30 1_555 1_555
H26 C30 1_555 1_555
H27 C31 1_555 1_555
H28 C31 1_555 1_555
H29 C33 1_555 1_555
H30 C33 1_555 1_555
H32 C34 1_555 1_555
H33 C34 1_555 1_555
H35 O9 1_555 1_555
H37 O10 1_555 1_555
H39 O11 1_555 1_555
H40 O8 1_555 1_555
O5_2 Mn1 1_555 1_555
C4 C12 1_555 1_555
C7 C11 1_555 1_555
C9 C10 1_555 1_555
C11 C12 1_555 1_555
C16 C24 1_555 1_555
C19 C23 1_555 1_555
C21 C22 1_555 1_555
C23 C24 1_555 1_555
C29 O4 1_555 1_555

#END
