
#######################################################################
#
#                 Cambridge Crystallographic Data Centre
#                                CCDC 
#
#######################################################################
#
# If this CIF has been generated from an entry in the Cambridge 
# Structural Database, then it will include bibliographic, chemical, 
# crystal, experimental, refinement or atomic coordinate data resulting 
# from the CCDC's data processing and validation procedures.
#
#######################################################################

data_NUNVOI01
_symmetry_cell_setting           monoclinic
_symmetry_space_group_name_H-M   'P 21/c'
_symmetry_Int_Tables_number      14
_space_group_name_Hall           '-P 2ybc'
loop_
_symmetry_equiv_pos_site_id
_symmetry_equiv_pos_as_xyz
1 x,y,z
2 -x,1/2+y,1/2-z
3 -x,-y,-z
4 x,1/2-y,1/2+z
_cell_length_a                   11.147(5)
_cell_length_b                   10.426(5)
_cell_length_c                   11.712(5)
_cell_angle_alpha                90
_cell_angle_beta                 114.456(5)
_cell_angle_gamma                90
_cell_volume                     1239.03
loop_
_atom_site_label
_atom_site_type_symbol
_atom_site_fract_x
_atom_site_fract_y
_atom_site_fract_z
Pb1 Pb 0.47850(2) 0.12876(2) -0.14303(2)
N1 N 0.6657(3) 0.2979(3) -0.0652(3)
C1 C 0.6595(4) 0.3790(4) 0.0193(4)
C2 C 0.7434(5) 0.4841(4) 0.0579(5)
H1 H 0.7376 0.5389 0.1180
N2 N 0.8319(4) 0.5093(4) 0.0116(4)
C3 C 0.8369(5) 0.4262(5) -0.0731(5)
H2 H 0.8973 0.4398 -0.1077
C4 C 0.7550(4) 0.3208(4) -0.1108(4)
H3 H 0.7622 0.2646 -0.1693
C5 C 0.5610(4) 0.3513(4) 0.0722(4)
O1 O 0.4801(3) 0.2597(3) 0.0223(3)
O2 O 0.5623(4) 0.4188(4) 0.1605(3)
N3 N 0.7911(3) -0.1709(3) 0.2094(3)
C6 C 0.8418(4) -0.1147(3) 0.1371(4)
C7 C 0.9700(4) -0.1398(4) 0.1528(4)
H4 H 1.0021 -0.0999 0.1001
N4 N 1.0489(4) -0.2201(4) 0.2418(4)
C8 C 0.9979(5) -0.2724(4) 0.3139(4)
H5 H 1.0500 -0.3272 0.3778
C9 C 0.8711(4) -0.2494(4) 0.2987(4)
H6 H 0.8398 -0.2895 0.3519
C10 C 0.7547(4) -0.0243(3) 0.0367(3)
O3 O 0.6433(3) 0.0029(3) 0.0366(3)
O4 O 0.7954(3) 0.0180(3) -0.0387(3)
O5 O 0.4106(4) 0.3304(4) -0.2864(4)
H7 H 0.393(6) 0.402(3) -0.263(5)
H8 H 0.373(12) 0.333(8) -0.3669(19)
Pb1B Pb 0.52150(2) -0.12876(2) 0.14303(2)
Pb1C Pb 0.47850(2) 0.37124(2) 0.35697(2)
O2C O 0.5623(4) 0.0812(4) -0.3395(3)
N3B N 0.2089(3) 0.1709(3) -0.2094(3)
O3B O 0.3567(3) -0.0029(3) -0.0366(3)
loop_
_geom_bond_atom_site_label_1
_geom_bond_atom_site_label_2
_geom_bond_site_symmetry_1
_geom_bond_site_symmetry_2
Pb1 N1 1_555 1_555
N1 C1 1_555 1_555
C1 C2 1_555 1_555
C2 H1 1_555 1_555
N2 C2 1_555 1_555
C3 N2 1_555 1_555
H2 C3 1_555 1_555
C4 N1 1_555 1_555
H3 C4 1_555 1_555
C5 C1 1_555 1_555
O1 Pb1 1_555 1_555
O2 C5 1_555 1_555
N3 C6 1_555 1_555
C6 C7 1_555 1_555
C7 H4 1_555 1_555
N4 C7 1_555 1_555
C8 N4 1_555 1_555
H5 C8 1_555 1_555
C9 N3 1_555 1_555
H6 C9 1_555 1_555
C10 C6 1_555 1_555
O3 Pb1 1_555 1_555
O4 C10 1_555 1_555
O5 Pb1 1_555 1_555
H7 O5 1_555 1_555
H8 O5 1_555 1_555
Pb1B N3 1_555 1_555
Pb1C O2 1_555 1_555
O2C Pb1 1_555 1_555
N3B Pb1 1_555 1_555
O3B Pb1 1_555 1_555
C3 C4 1_555 1_555
C5 O1 1_555 1_555
C8 C9 1_555 1_555
C10 O3 1_555 1_555
O3 Pb1B 1_555 1_555
Pb1B O3B 1_555 1_555

#END
