
#######################################################################
#
#                 Cambridge Crystallographic Data Centre
#                                CCDC 
#
#######################################################################
#
# If this CIF has been generated from an entry in the Cambridge 
# Structural Database, then it will include bibliographic, chemical, 
# crystal, experimental, refinement or atomic coordinate data resulting 
# from the CCDC's data processing and validation procedures.
#
#######################################################################

data_NUNWAV
_symmetry_cell_setting           monoclinic
_symmetry_space_group_name_H-M   'P 21/c'
_symmetry_Int_Tables_number      14
_space_group_name_Hall           '-P 2ybc'
loop_
_symmetry_equiv_pos_site_id
_symmetry_equiv_pos_as_xyz
1 x,y,z
2 -x,1/2+y,1/2-z
3 -x,-y,-z
4 x,1/2-y,1/2+z
_cell_length_a                   6.9020(3)
_cell_length_b                   13.6228(6)
_cell_length_c                   12.1337(5)
_cell_angle_alpha                90
_cell_angle_beta                 99.975(2)
_cell_angle_gamma                90
_cell_volume                     1123.62
loop_
_atom_site_label
_atom_site_type_symbol
_atom_site_fract_x
_atom_site_fract_y
_atom_site_fract_z
Ag1 Ag 0.81252(4) 0.174975(15) 0.078449(17)
N1 N 0.7873(3) 0.14417(14) -0.11767(17)
N2 N 0.7593(3) 0.00808(15) 0.04023(18)
C1 C 0.7075(4) 0.03190(19) -0.2672(2)
H1 H 0.6753 -0.0311 -0.2936
C2 C 0.7418(3) 0.05178(16) -0.1536(2)
C3 C 0.6871(4) -0.1210(2) -0.0934(3)
H2 H 0.6683 -0.1416 -0.1675
C4 C 0.7459(4) -0.0571(2) 0.1213(3)
H3 H 0.7662 -0.0355 0.1950
C5 C 0.7034(4) -0.1546(2) 0.1002(3)
H4 H 0.6952 -0.1977 0.1586
C6 C 0.6733(4) -0.1873(2) -0.0083(3)
H5 H 0.6440 -0.2529 -0.0246
C7 C 0.7293(3) -0.02331(18) -0.0662(2)
S1 S 0.85817(10) 0.33521(4) -0.14563(5)
N3 N 0.7693(3) 0.19927(16) -0.30431(18)
C8 C 0.7996(3) 0.21175(17) -0.1937(2)
O1 O 0.6717(4) 0.38366(17) -0.1628(2)
C9 C 0.7221(4) 0.1074(2) -0.3396(2)
H6 H 0.6986 0.0947 -0.4160
O2 O 0.9932(4) 0.36957(18) -0.21511(19)
O3 O 0.9460(3) 0.32665(13) -0.02960(17)
Ag1C Ag 0.81252(4) 0.325025(15) -0.421551(17)
N3C N 0.7693(3) 0.30073(16) 0.19569(18)
O2C O 0.9932(4) 0.13043(18) 0.28489(19)
O4 O 1.2896(6) 0.4143(3) 0.0834(5)
H7 H 1.1797 0.3920 0.0504
H8 H 1.3116 0.4722 0.1086
loop_
_geom_bond_atom_site_label_1
_geom_bond_atom_site_label_2
_geom_bond_site_symmetry_1
_geom_bond_site_symmetry_2
Ag1 N1 1_555 1_555
N1 C2 1_555 1_555
N2 Ag1 1_555 1_555
C1 H1 1_555 1_555
C2 C1 1_555 1_555
C3 H2 1_555 1_555
C4 N2 1_555 1_555
H3 C4 1_555 1_555
C5 C4 1_555 1_555
H4 C5 1_555 1_555
C6 C3 1_555 1_555
H5 C6 1_555 1_555
C7 N2 1_555 1_555
S1 C8 1_555 1_555
N3 C8 1_555 1_555
C8 N1 1_555 1_555
O1 S1 1_555 1_555
C9 C1 1_555 1_555
H6 C9 1_555 1_555
O2 S1 1_555 1_555
O3 Ag1 1_555 1_555
O4 H7 1_555 1_555
H8 O4 1_555 1_555
Ag1C N3 1_555 1_555
N3C Ag1 1_555 1_555
O2C Ag1 1_555 1_555
C2 C7 1_555 1_555
C3 C7 1_555 1_555
C5 C6 1_555 1_555
S1 O3 1_555 1_555
N3 C9 1_555 1_555
O2 Ag1C 1_555 1_555

#END
