
#######################################################################
#
#                 Cambridge Crystallographic Data Centre
#                                CCDC 
#
#######################################################################
#
# If this CIF has been generated from an entry in the Cambridge 
# Structural Database, then it will include bibliographic, chemical, 
# crystal, experimental, refinement or atomic coordinate data resulting 
# from the CCDC's data processing and validation procedures.
#
#######################################################################

data_NUNZIH
_symmetry_cell_setting           monoclinic
_symmetry_space_group_name_H-M   'P 21/c'
_symmetry_Int_Tables_number      14
_space_group_name_Hall           '-P 2ybc'
loop_
_symmetry_equiv_pos_site_id
_symmetry_equiv_pos_as_xyz
1 x,y,z
2 -x,1/2+y,1/2-z
3 -x,-y,-z
4 x,1/2-y,1/2+z
_cell_length_a                   14.6160(14)
_cell_length_b                   12.1893(11)
_cell_length_c                   25.892(3)
_cell_angle_alpha                90
_cell_angle_beta                 106.274(2)
_cell_angle_gamma                90
_cell_volume                     4428.06
loop_
_atom_site_label
_atom_site_type_symbol
_atom_site_fract_x
_atom_site_fract_y
_atom_site_fract_z
Co1 Co 0.14895(6) 0.28565(6) 0.22814(3)
N1 N 0.1251(4) 0.4919(4) 0.48030(17)
N2 N 0.1482(4) 0.3843(4) 0.29777(18)
N3 N 0.1325(4) 0.3199(4) 0.65853(18)
N4 N 0.0171(6) 1.1625(6) 0.3990(3)
O1 O 0.2424(3) 0.3963(3) 0.20606(16)
O2 O 0.3372(4) 0.3086(3) 0.15586(18)
O3 O 0.3928(3) 0.3168(4) 0.25292(18)
O4 O 0.3864(3) 0.4787(3) 0.19963(16)
O5 O 0.0380(3) 0.3868(3) 0.17954(16)
H1 H -0.0119 0.3561 0.1599
H2 H 0.0211 0.4260 0.2025
O6 O 0.2594(3) 0.1913(3) 0.27491(17)
H3 H 0.3097 0.2214 0.2713
H4 H 0.2744 0.1311 0.2917
O7 O 0.0536(3) 0.1778(3) 0.24982(16)
H5 H 0.0711 0.1119 0.2577
H6 H 0.0091 0.1926 0.2639
S1 S 0.33970(12) 0.37329(12) 0.20255(6)
C1 C 0.1322(4) 0.5571(4) 0.4401(2)
C2 C 0.1363(5) 0.6706(5) 0.4446(2)
H7 H 0.1432 0.7136 0.4163
C3 C 0.1299(5) 0.7186(4) 0.4921(2)
C4 C 0.1207(5) 0.6500(5) 0.5332(2)
H8 H 0.1145 0.6796 0.5652
C5 C 0.1208(5) 0.5371(4) 0.5264(2)
C6 C 0.1404(5) 0.4931(4) 0.2980(2)
H9 H 0.1387 0.5310 0.2666
C7 C 0.1347(5) 0.5528(4) 0.3421(2)
H10 H 0.1287 0.6287 0.3397
C8 C 0.1378(4) 0.5004(4) 0.3901(2)
C9 C 0.1476(5) 0.3864(4) 0.3900(2)
H11 H 0.1510 0.3463 0.4210
C10 C 0.1521(5) 0.3338(5) 0.3442(2)
H12 H 0.1582 0.2579 0.3454
C11 C 0.1254(5) 0.4281(5) 0.6635(2)
H13 H 0.1262 0.4566 0.6969
C12 C 0.1168(5) 0.4993(5) 0.6214(2)
H14 H 0.1098 0.5740 0.6267
C13 C 0.1185(5) 0.4619(5) 0.5713(2)
C14 C 0.1232(5) 0.3503(5) 0.5667(2)
H15 H 0.1216 0.3195 0.5336
C15 C 0.1302(5) 0.2832(5) 0.6099(2)
H16 H 0.1335 0.2079 0.6051
C16 C 0.1361(5) 0.8394(5) 0.5011(2)
C17 C 0.0940(5) 0.9119(5) 0.4604(2)
H17 H 0.0611 0.8861 0.4265
C18 C 0.1016(5) 1.0236(5) 0.4707(3)
C19 C 0.1535(6) 1.0629(6) 0.5209(3)
H18 H 0.1599 1.1380 0.5271
C20 C 0.1946(6) 0.9910(6) 0.5607(3)
H19 H 0.2290 1.0170 0.5943
C21 C 0.1856(5) 0.8811(5) 0.5515(3)
H20 H 0.2129 0.8327 0.5794
C22 C 0.0563(7) 1.0995(6) 0.4299(3)
Co1C Co 0.14895(6) 0.21435(6) 0.72814(3)
N3C N 0.1325(4) 0.1801(4) 0.15853(18)
Co2 Co 0.64727(7) 0.26599(6) 0.23621(3)
N5 N 0.6241(3) 0.0037(4) -0.01404(17)
N6 N 0.6330(4) 0.1605(4) 0.16663(18)
N7 N 0.6450(4) 0.1325(4) -0.19491(17)
N8 N 0.4779(5) -0.6335(4) -0.1331(2)
O8 O 0.7757(3) 0.3409(3) 0.23217(17)
O9 O 0.8226(4) 0.3463(3) 0.15040(18)
O10 O 0.7309(3) 0.4951(3) 0.17358(17)
O11 O 0.8943(3) 0.4663(3) 0.22283(17)
O12 O 0.5663(3) 0.3871(3) 0.18404(14)
H21 H 0.5200 0.4247 0.1883
H22 H 0.6103 0.4306 0.1814
O13 O 0.5312(3) 0.1804(3) 0.24739(15)
H23 H 0.4854 0.2134 0.2550
H24 H 0.5451 0.1233 0.2669
O14 O 0.7318(3) 0.1518(3) 0.29077(15)
H25 H 0.7915 0.1502 0.2946
H26 H 0.7131 0.0876 0.2958
S2 S 0.80671(13) 0.41162(12) 0.19367(6)
C23 C 0.6191(4) -0.0487(4) 0.0305(2)
C24 C 0.6157(4) -0.1613(5) 0.0328(2)
H27 H 0.6108 -0.1954 0.0640
C25 C 0.6196(4) -0.2236(4) -0.0106(2)
C26 C 0.6266(5) -0.1686(5) -0.0567(2)
H28 H 0.6310 -0.2080 -0.0867
C27 C 0.6271(4) -0.0554(4) -0.0573(2)
C28 C 0.6367(4) 0.2006(5) 0.1187(2)
H29 H 0.6445 0.2758 0.1155
C29 C 0.6294(5) 0.1359(4) 0.0743(2)
H30 H 0.6306 0.1677 0.0419
C30 C 0.6202(4) 0.0231(4) 0.0778(2)
C31 C 0.6142(4) -0.0174(4) 0.1268(2)
H31 H 0.6059 -0.0922 0.1309
C32 C 0.6204(5) 0.0520(4) 0.1691(2)
H32 H 0.6157 0.0223 0.2014
C33 C 0.6455(5) 0.0235(5) -0.1951(2)
H33 H 0.6509 -0.0117 -0.2260
C34 C 0.6386(5) -0.0410(4) -0.1527(2)
H34 H 0.6382 -0.1171 -0.1556
C35 C 0.6322(4) 0.0084(4) -0.1054(2)
C36 C 0.6306(5) 0.1214(4) -0.1056(2)
H35 H 0.6260 0.1588 -0.0751
C37 C 0.6356(5) 0.1797(5) -0.1499(2)
H36 H 0.6323 0.2558 -0.1488
C38 C 0.6187(5) -0.3459(4) -0.0092(2)
C39 C 0.5728(5) -0.4065(4) -0.0538(2)
H37 H 0.5429 -0.3706 -0.0857
C40 C 0.5703(5) -0.5198(5) -0.0518(2)
C41 C 0.6170(5) -0.5745(5) -0.0043(3)
H38 H 0.6159 -0.6507 -0.0027
C42 C 0.6647(5) -0.5143(5) 0.0402(3)
H39 H 0.6973 -0.5500 0.0717
C43 C 0.6641(5) -0.4019(5) 0.0379(2)
H40 H 0.6947 -0.3622 0.0685
C44 C 0.5173(5) -0.5825(5) -0.0975(3)
Co2C Co 0.64727(7) 0.23401(6) -0.26379(3)
N7C N 0.6450(4) 0.3675(4) 0.30509(17)
O15 O 0.9135(4) 0.2178(4) 0.2952(2)
H41 H 0.8691 0.2647 0.2853
H42 H 0.9333 0.2174 0.3293
loop_
_geom_bond_atom_site_label_1
_geom_bond_atom_site_label_2
_geom_bond_site_symmetry_1
_geom_bond_site_symmetry_2
Co1 N2 1_555 1_555
N1 C1 1_555 1_555
N2 C6 1_555 1_555
N3 C11 1_555 1_555
N4 C22 1_555 1_555
O1 Co1 1_555 1_555
O2 S1 1_555 1_555
O3 S1 1_555 1_555
O4 S1 1_555 1_555
O5 Co1 1_555 1_555
H1 O5 1_555 1_555
H2 O5 1_555 1_555
O6 Co1 1_555 1_555
H3 O6 1_555 1_555
H4 O6 1_555 1_555
O7 Co1 1_555 1_555
H5 O7 1_555 1_555
H6 O7 1_555 1_555
S1 O1 1_555 1_555
C1 C2 1_555 1_555
C2 H7 1_555 1_555
C3 C2 1_555 1_555
C4 C3 1_555 1_555
H8 C4 1_555 1_555
C5 N1 1_555 1_555
C6 H9 1_555 1_555
C7 C6 1_555 1_555
H10 C7 1_555 1_555
C8 C1 1_555 1_555
C9 C8 1_555 1_555
H11 C9 1_555 1_555
C10 N2 1_555 1_555
H12 C10 1_555 1_555
C11 H13 1_555 1_555
C12 C11 1_555 1_555
H14 C12 1_555 1_555
C13 C5 1_555 1_555
C14 C13 1_555 1_555
H15 C14 1_555 1_555
C15 N3 1_555 1_555
H16 C15 1_555 1_555
C16 C3 1_555 1_555
C17 C16 1_555 1_555
H17 C17 1_555 1_555
C18 C17 1_555 1_555
C19 C18 1_555 1_555
H18 C19 1_555 1_555
C20 C19 1_555 1_555
H19 C20 1_555 1_555
C21 C16 1_555 1_555
H20 C21 1_555 1_555
C22 C18 1_555 1_555
Co2 N6 1_555 1_555
N5 C23 1_555 1_555
N6 C28 1_555 1_555
N7 C33 1_555 1_555
N8 C44 1_555 1_555
O8 Co2 1_555 1_555
O9 S2 1_555 1_555
O10 S2 1_555 1_555
O11 S2 1_555 1_555
O12 Co2 1_555 1_555
H21 O12 1_555 1_555
H22 O12 1_555 1_555
O13 Co2 1_555 1_555
H23 O13 1_555 1_555
H24 O13 1_555 1_555
O14 Co2 1_555 1_555
H25 O14 1_555 1_555
H26 O14 1_555 1_555
S2 O8 1_555 1_555
C23 C24 1_555 1_555
C24 H27 1_555 1_555
C25 C24 1_555 1_555
C26 C25 1_555 1_555
H28 C26 1_555 1_555
C27 N5 1_555 1_555
C28 H29 1_555 1_555
C29 C28 1_555 1_555
H30 C29 1_555 1_555
C30 C23 1_555 1_555
C31 C30 1_555 1_555
H31 C31 1_555 1_555
C32 N6 1_555 1_555
H32 C32 1_555 1_555
C33 H33 1_555 1_555
C34 C33 1_555 1_555
H34 C34 1_555 1_555
C35 C27 1_555 1_555
C36 C35 1_555 1_555
H35 C36 1_555 1_555
C37 N7 1_555 1_555
H36 C37 1_555 1_555
C38 C25 1_555 1_555
C39 C38 1_555 1_555
H37 C39 1_555 1_555
C40 C39 1_555 1_555
C41 C40 1_555 1_555
H38 C41 1_555 1_555
C42 C41 1_555 1_555
H39 C42 1_555 1_555
C43 C38 1_555 1_555
H40 C43 1_555 1_555
C44 C40 1_555 1_555
O15 H41 1_555 1_555
H42 O15 1_555 1_555
Co1C N3 1_555 1_555
N3C Co1 1_555 1_555
Co2C N7 1_555 1_555
N7C Co2 1_555 1_555
C4 C5 1_555 1_555
C7 C8 1_555 1_555
C9 C10 1_555 1_555
C12 C13 1_555 1_555
C14 C15 1_555 1_555
C20 C21 1_555 1_555
C26 C27 1_555 1_555
C29 C30 1_555 1_555
C31 C32 1_555 1_555
C34 C35 1_555 1_555
C36 C37 1_555 1_555
C42 C43 1_555 1_555

#END
