
#######################################################################
#
#                 Cambridge Crystallographic Data Centre
#                                CCDC 
#
#######################################################################
#
# If this CIF has been generated from an entry in the Cambridge 
# Structural Database, then it will include bibliographic, chemical, 
# crystal, experimental, refinement or atomic coordinate data resulting 
# from the CCDC's data processing and validation procedures.
#
#######################################################################

data_NUNZEC
_symmetry_cell_setting           monoclinic
_symmetry_space_group_name_H-M   'C 2/c'
_symmetry_Int_Tables_number      15
_space_group_name_Hall           '-C 2yn'
loop_
_symmetry_equiv_pos_site_id
_symmetry_equiv_pos_as_xyz
1 x,y,z
2 -x,y,1/2-z
3 1/2+x,1/2+y,z
4 1/2-x,1/2+y,1/2-z
5 -x,-y,-z
6 x,-y,1/2+z
7 1/2-x,1/2-y,-z
8 1/2+x,1/2-y,1/2+z
_cell_length_a                   13.1201(15)
_cell_length_b                   13.2929(16)
_cell_length_c                   11.5910(13)
_cell_angle_alpha                90
_cell_angle_beta                 98.531(2)
_cell_angle_gamma                90
_cell_volume                     1999.15
loop_
_atom_site_label
_atom_site_type_symbol
_atom_site_fract_x
_atom_site_fract_y
_atom_site_fract_z
Pb1 Pb 0.5000 0.585420(12) 0.7500
N1 N 0.36101(17) 0.72953(19) 0.7416(2)
N2 N 0.26176(19) 0.8636(2) 0.7255(2)
H1 H 0.2380 0.9221 0.7040
O1 O 0.33533(16) 0.55121(18) 0.8607(2)
O2 O 0.20043(17) 0.61233(19) 0.9317(2)
O3 O 0.09662(17) 0.7669(2) 0.9230(2)
H2 H 0.1304 0.7149 0.9245
O4 O 0.0980(2) 0.9168(2) 0.8428(3)
O5 O 0.43915(18) 0.6096(2) 0.5232(2)
H3 H 0.4120 0.5656 0.4750
H4 H 0.4830 0.6427 0.4915
C1 C 0.2736(2) 0.6209(3) 0.8716(3)
C2 C 0.2842(2) 0.7169(2) 0.8095(3)
C3 C 0.2221(2) 0.8003(3) 0.7997(3)
C4 C 0.1323(3) 0.8316(3) 0.8572(3)
C5 C 0.3450(2) 0.8188(2) 0.6912(3)
C6 C 0.4039(2) 0.8661(3) 0.6046(3)
H5 H 0.4688 0.8309 0.6062
H6 H 0.4193 0.9353 0.6274
C7 C 0.3461(3) 0.8646(3) 0.4806(3)
H7 H 0.3380 0.7954 0.4541
H8 H 0.2779 0.8928 0.4803
C8 C 0.4016(3) 0.9236(3) 0.3967(4)
H9 H 0.4129 0.9913 0.4246
H10 H 0.3604 0.9245 0.3210
H11 H 0.4667 0.8923 0.3914
Pb1B Pb 0.0000 1.085420(12) 0.7500
Pb1B_2 Pb 1.0000 1.085420(12) 0.7500
N1A N 0.63899(17) 0.72953(19) 0.7584(2)
N2A N 0.73824(19) 0.8636(2) 0.7745(2)
H1A H 0.7620 0.9221 0.7960
O1A O 0.66467(16) 0.55121(18) 0.6393(2)
O2A O 0.79957(17) 0.61233(19) 0.5683(2)
O3A O 0.90338(17) 0.7669(2) 0.5770(2)
H2A H 0.8696 0.7149 0.5755
O4A O 0.9020(2) 0.9168(2) 0.6572(3)
O4B O 0.5980(2) 0.4168(2) 0.8428(3)
O4C O 0.4020(2) 0.4168(2) 0.6572(3)
O5A O 0.56085(18) 0.6096(2) 0.9768(2)
H3A H 0.5880 0.5656 1.0250
H4A H 0.5170 0.6427 1.0085
C1A C 0.7264(2) 0.6209(3) 0.6284(3)
C2A C 0.7158(2) 0.7169(2) 0.6905(3)
C3A C 0.7779(2) 0.8003(3) 0.7003(3)
C4A C 0.8677(3) 0.8316(3) 0.6428(3)
C5A C 0.6550(2) 0.8188(2) 0.8088(3)
C6A C 0.5961(2) 0.8661(3) 0.8954(3)
H5A H 0.5312 0.8309 0.8938
H6A H 0.5807 0.9353 0.8726
C7A C 0.6539(3) 0.8646(3) 1.0194(3)
H7A H 0.6620 0.7954 1.0459
H8A H 0.7221 0.8928 1.0197
C8A C 0.5984(3) 0.9236(3) 1.1033(4)
H9A H 0.5871 0.9913 1.0754
H10A H 0.6396 0.9245 1.1790
H11A H 0.5333 0.8923 1.1086
loop_
_geom_bond_atom_site_label_1
_geom_bond_atom_site_label_2
_geom_bond_site_symmetry_1
_geom_bond_site_symmetry_2
Pb1 N1 1_555 1_555
N1 C2 1_555 1_555
N2 H1 1_555 1_555
O1 Pb1 1_555 1_555
O2 C1 1_555 1_555
O3 H2 1_555 1_555
O4 C4 1_555 1_555
O5 Pb1 1_555 1_555
H3 O5 1_555 1_555
H4 O5 1_555 1_555
C1 O1 1_555 1_555
C2 C1 1_555 1_555
C3 N2 1_555 1_555
C4 O3 1_555 1_555
C5 N1 1_555 1_555
C6 C5 1_555 1_555
H5 C6 1_555 1_555
H6 C6 1_555 1_555
C7 C6 1_555 1_555
H7 C7 1_555 1_555
H8 C7 1_555 1_555
C8 C7 1_555 1_555
H9 C8 1_555 1_555
H10 C8 1_555 1_555
H11 C8 1_555 1_555
Pb1B O4 1_555 1_555
Pb1B_2 O4A 1_555 1_555
N1A Pb1 1_555 1_555
N2A H1A 1_555 1_555
O1A Pb1 1_555 1_555
O2A C1A 1_555 1_555
O3A H2A 1_555 1_555
O4A C4A 1_555 1_555
O4B Pb1 1_555 1_555
O4C Pb1 1_555 1_555
O5A Pb1 1_555 1_555
H3A O5A 1_555 1_555
H4A O5A 1_555 1_555
C1A O1A 1_555 1_555
C2A N1A 1_555 1_555
C3A N2A 1_555 1_555
C4A O3A 1_555 1_555
C5A N1A 1_555 1_555
C6A C5A 1_555 1_555
H5A C6A 1_555 1_555
H6A C6A 1_555 1_555
C7A C6A 1_555 1_555
H7A C7A 1_555 1_555
H8A C7A 1_555 1_555
C8A C7A 1_555 1_555
H9A C8A 1_555 1_555
H10A C8A 1_555 1_555
H11A C8A 1_555 1_555
N2 C5 1_555 1_555
C2 C3 1_555 1_555
C3 C4 1_555 1_555
N2A C5A 1_555 1_555
C1A C2A 1_555 1_555
C2A C3A 1_555 1_555
C3A C4A 1_555 1_555

#END
