
#######################################################################
#
#                 Cambridge Crystallographic Data Centre
#                                CCDC 
#
#######################################################################
#
# If this CIF has been generated from an entry in the Cambridge 
# Structural Database, then it will include bibliographic, chemical, 
# crystal, experimental, refinement or atomic coordinate data resulting 
# from the CCDC's data processing and validation procedures.
#
#######################################################################

data_NUNZEC01
_symmetry_cell_setting           monoclinic
_symmetry_space_group_name_H-M   'C 2/c'
_symmetry_Int_Tables_number      15
_space_group_name_Hall           '-C 2yn'
loop_
_symmetry_equiv_pos_site_id
_symmetry_equiv_pos_as_xyz
1 x,y,z
2 -x,y,1/2-z
3 1/2+x,1/2+y,z
4 1/2-x,1/2+y,1/2-z
5 -x,-y,-z
6 x,-y,1/2+z
7 1/2-x,1/2-y,-z
8 1/2+x,1/2-y,1/2+z
_cell_length_a                   13.120(12)
_cell_length_b                   13.311(12)
_cell_length_c                   11.599(10)
_cell_angle_alpha                90
_cell_angle_beta                 98.505(10)
_cell_angle_gamma                90
_cell_volume                     2003.38
loop_
_atom_site_label
_atom_site_type_symbol
_atom_site_fract_x
_atom_site_fract_y
_atom_site_fract_z
Pb1 Pb 0.0000 0.414605(19) 0.2500
N1 N 0.2388(3) 0.1363(3) 0.2749(4)
H1 H 0.2630 0.0782 0.2968
N2 N 0.1385(3) 0.2707(3) 0.2582(3)
O1 O 0.1645(3) 0.4488(3) 0.1393(3)
O2 O 0.2996(3) 0.3873(3) 0.0685(3)
O3 O 0.4034(3) 0.2330(3) 0.0765(4)
H2 H 0.3725 0.2864 0.0779
O4 O 0.4015(4) 0.0832(3) 0.1573(4)
O5 O -0.0615(3) 0.3901(3) 0.0226(3)
H3 H -0.0313 0.3337 0.0209
H4 H -0.0364 0.4290 -0.0240
C1 C 0.1549(4) 0.1802(4) 0.3091(4)
C2 C 0.2163(4) 0.2836(4) 0.1911(4)
C3 C 0.2789(4) 0.1998(4) 0.1994(4)
C4 C 0.2266(4) 0.3788(4) 0.1285(4)
C5 C 0.3668(4) 0.1686(4) 0.1436(5)
C6 C 0.0962(4) 0.1340(4) 0.3955(5)
H5 H 0.0806 0.0648 0.3733
H6 H 0.0313 0.1694 0.3937
C7 C 0.1541(5) 0.1362(5) 0.5195(5)
H7 H 0.1616 0.2053 0.5459
H8 H 0.2225 0.1085 0.5200
C8 C 0.0978(5) 0.0761(5) 0.6035(5)
H9 H 0.0312 0.1052 0.6059
H10 H 0.1373 0.0776 0.6801
H11 H 0.0898 0.0078 0.5772
N1A N -0.2388(3) 0.1363(3) 0.2251(4)
H1A H -0.2630 0.0782 0.2032
N2A N -0.1385(3) 0.2707(3) 0.2418(3)
O1A O -0.1645(3) 0.4488(3) 0.3607(3)
O2A O -0.2996(3) 0.3873(3) 0.4315(3)
O3A O -0.4034(3) 0.2330(3) 0.4235(4)
H2A H -0.3725 0.2864 0.4221
O4A O -0.4015(4) 0.0832(3) 0.3427(4)
O5A O 0.0615(3) 0.3901(3) 0.4774(3)
H3A H 0.0313 0.3337 0.4791
H4A H 0.0364 0.4290 0.5240
C1A C -0.1549(4) 0.1802(4) 0.1909(4)
C2A C -0.2163(4) 0.2836(4) 0.3089(4)
C3A C -0.2789(4) 0.1998(4) 0.3006(4)
C4A C -0.2266(4) 0.3788(4) 0.3715(4)
C5A C -0.3668(4) 0.1686(4) 0.3564(5)
C6A C -0.0962(4) 0.1340(4) 0.1045(5)
H5A H -0.0806 0.0648 0.1267
H6A H -0.0313 0.1694 0.1063
C7A C -0.1541(5) 0.1362(5) -0.0195(5)
H7A H -0.1616 0.2053 -0.0459
H8A H -0.2225 0.1085 -0.0200
C8A C -0.0978(5) 0.0761(5) -0.1035(5)
H9A H -0.0312 0.1052 -0.1059
H10A H -0.1373 0.0776 -0.1801
H11A H -0.0898 0.0078 -0.0772
Pb1B Pb -0.5000 -0.085395(19) 0.2500
Pb1B_2 Pb 0.5000 -0.085395(19) 0.2500
O4B O -0.0985(4) 0.5832(3) 0.1573(4)
O4C O 0.0985(4) 0.5832(3) 0.3427(4)
loop_
_geom_bond_atom_site_label_1
_geom_bond_atom_site_label_2
_geom_bond_site_symmetry_1
_geom_bond_site_symmetry_2
Pb1 N2 1_555 1_555
N1 H1 1_555 1_555
N2 C1 1_555 1_555
O1 Pb1 1_555 1_555
O2 C4 1_555 1_555
O3 H2 1_555 1_555
O4 C5 1_555 1_555
O5 Pb1 1_555 1_555
H3 O5 1_555 1_555
H4 O5 1_555 1_555
C1 N1 1_555 1_555
C2 N2 1_555 1_555
C3 N1 1_555 1_555
C4 O1 1_555 1_555
C5 O3 1_555 1_555
C6 C1 1_555 1_555
H5 C6 1_555 1_555
H6 C6 1_555 1_555
C7 C6 1_555 1_555
H7 C7 1_555 1_555
H8 C7 1_555 1_555
C8 C7 1_555 1_555
H9 C8 1_555 1_555
H10 C8 1_555 1_555
H11 C8 1_555 1_555
N1A H1A 1_555 1_555
N2A Pb1 1_555 1_555
O1A Pb1 1_555 1_555
O2A C4A 1_555 1_555
O3A H2A 1_555 1_555
O4A C5A 1_555 1_555
O5A Pb1 1_555 1_555
H3A O5A 1_555 1_555
H4A O5A 1_555 1_555
C1A N1A 1_555 1_555
C2A N2A 1_555 1_555
C3A N1A 1_555 1_555
C4A O1A 1_555 1_555
C5A O3A 1_555 1_555
C6A C1A 1_555 1_555
H5A C6A 1_555 1_555
H6A C6A 1_555 1_555
C7A C6A 1_555 1_555
H7A C7A 1_555 1_555
H8A C7A 1_555 1_555
C8A C7A 1_555 1_555
H9A C8A 1_555 1_555
H10A C8A 1_555 1_555
H11A C8A 1_555 1_555
Pb1B O4A 1_555 1_555
Pb1B_2 O4 1_555 1_555
O4B Pb1 1_555 1_555
O4C Pb1 1_555 1_555
C2 C3 1_555 1_555
C2 C4 1_555 1_555
C3 C5 1_555 1_555
N2A C1A 1_555 1_555
C2A C3A 1_555 1_555
C2A C4A 1_555 1_555
C3A C5A 1_555 1_555

#END
