
#######################################################################
#
#                 Cambridge Crystallographic Data Centre
#                                CCDC 
#
#######################################################################
#
# If this CIF has been generated from an entry in the Cambridge 
# Structural Database, then it will include bibliographic, chemical, 
# crystal, experimental, refinement or atomic coordinate data resulting 
# from the CCDC's data processing and validation procedures.
#
#######################################################################

data_NUPBUX
_symmetry_cell_setting           orthorhombic
_symmetry_space_group_name_H-M   'P c c n'
_symmetry_Int_Tables_number      56
_space_group_name_Hall           '-P 2ab 2ac'
loop_
_symmetry_equiv_pos_site_id
_symmetry_equiv_pos_as_xyz
1 x,y,z
2 1/2-x,1/2-y,z
3 1/2+x,-y,1/2-z
4 -x,1/2+y,1/2-z
5 -x,-y,-z
6 1/2+x,1/2+y,-z
7 1/2-x,y,1/2+z
8 x,1/2-y,1/2+z
_cell_length_a                   22.552(5)
_cell_length_b                   10.123(2)
_cell_length_c                   13.594(3)
_cell_angle_alpha                90
_cell_angle_beta                 90
_cell_angle_gamma                90
_cell_volume                     3103.43
loop_
_atom_site_label
_atom_site_type_symbol
_atom_site_fract_x
_atom_site_fract_y
_atom_site_fract_z
C1 C 0.0307(2) 0.2258(5) 0.6055(4)
H1 H 0.0317 0.2380 0.6733
C2 C 0.0046(2) 0.2441(5) 0.4491(4)
C3 C 0.0508(2) 0.1510(5) 0.4571(4)
C4 C -0.0320(2) 0.2886(5) 0.3627(4)
C5 C 0.0780(2) 0.0640(5) 0.3794(4)
C6 C -0.0571(2) 0.3768(5) 0.5745(4)
H2 H -0.0937 0.3307 0.5638
H3 H -0.0567 0.4563 0.5360
H4 H -0.0534 0.3986 0.6429
C7 C 0.1142(2) 0.0585(6) 0.5995(4)
H5 H 0.1397 0.1132 0.6388
H6 H 0.1369 0.0183 0.5478
H7 H 0.0971 -0.0092 0.6400
C8 C 0.2286(2) 0.1984(5) 0.0112(4)
C9 C 0.1746(3) 0.0691(5) -0.1263(4)
H8 H 0.1347 0.1017 -0.1206
H9 H 0.1784 -0.0113 -0.0894
H10 H 0.1835 0.0524 -0.1942
C10 C 0.2500 0.2500 -0.1434(5)
H11 H 0.2500 0.2500 -0.2118
C11 C 0.2018(2) 0.1254(5) 0.0965(4)
N1 N 0.06589(18) 0.1412(4) 0.5557(3)
N2 N -0.00610(19) 0.2900(4) 0.5442(3)
N3 N 0.21681(19) 0.1699(4) -0.0866(3)
O1 O -0.04766(17) 0.2068(4) 0.3013(3)
O2 O -0.04417(16) 0.4125(3) 0.3622(3)
O3 O 0.09234(17) 0.1230(3) 0.2993(2)
O4 O 0.08370(18) -0.0538(4) 0.3959(3)
O5 O 0.1725(2) -0.1662(5) 0.2383(4)
H12 H 0.1527 -0.2332 0.2461
O6 O 0.23552(16) 0.1037(3) 0.1679(3)
O7 O 0.14533(15) 0.0904(3) 0.0855(2)
Zn1 Zn 0.11811(3) -0.01234(6) 0.20271(4)
H13 H 0.197(3) -0.191(6) 0.193(4)
C8A C 0.2714(2) 0.3016(5) 0.0112(4)
C9A C 0.3254(3) 0.4309(5) -0.1263(4)
H8A H 0.3653 0.3983 -0.1206
H9A H 0.3216 0.5113 -0.0894
H10A H 0.3165 0.4476 -0.1942
C11A C 0.2982(2) 0.3746(5) 0.0965(4)
N3A N 0.28319(19) 0.3301(4) -0.0866(3)
O6A O 0.26448(16) 0.3963(3) 0.1679(3)
O7A O 0.35467(15) 0.4096(3) 0.0855(2)
C1A C 0.4693(2) 0.2742(5) 0.6055(4)
H1A H 0.4683 0.2620 0.6733
C2A C 0.4954(2) 0.2559(5) 0.4491(4)
C3A C 0.4492(2) 0.3490(5) 0.4571(4)
C4A C 0.5320(2) 0.2114(5) 0.3627(4)
C5A C 0.4220(2) 0.4360(5) 0.3794(4)
C6A C 0.5571(2) 0.1232(5) 0.5745(4)
H2A H 0.5937 0.1693 0.5638
H3A H 0.5567 0.0437 0.5360
H4A H 0.5534 0.1014 0.6429
C7A C 0.3858(2) 0.4415(6) 0.5995(4)
H5A H 0.3603 0.3868 0.6388
H6A H 0.3631 0.4817 0.5478
H7A H 0.4029 0.5092 0.6400
N1A N 0.43411(18) 0.3588(4) 0.5557(3)
N2A N 0.50610(19) 0.2100(4) 0.5442(3)
O1A O 0.54766(17) 0.2932(4) 0.3013(3)
O2A O 0.54417(16) 0.0875(3) 0.3622(3)
O3A O 0.40766(17) 0.3770(3) 0.2993(2)
O4A O 0.41630(18) 0.5538(4) 0.3959(3)
O5A O 0.3275(2) 0.6662(5) 0.2383(4)
H12A H 0.3473 0.7332 0.2461
Zn1A Zn 0.38189(3) 0.51234(6) 0.20271(4)
H13A H 0.303(3) 0.691(6) 0.193(4)
O2B O 0.45583(16) 0.5875(3) 0.1378(3)
O2C O 0.04417(16) -0.0875(3) 0.1378(3)
Zn1B Zn 0.61811(3) 0.01234(6) 0.29729(4)
Zn1C Zn -0.11811(3) 0.48766(6) 0.29729(4)
I1 I 0.2500 0.7500 0.49474(4)
loop_
_geom_bond_atom_site_label_1
_geom_bond_atom_site_label_2
_geom_bond_site_symmetry_1
_geom_bond_site_symmetry_2
C1 H1 1_555 1_555
C2 C3 1_555 1_555
C3 C5 1_555 1_555
C4 C2 1_555 1_555
C5 O3 1_555 1_555
C6 H2 1_555 1_555
H3 C6 1_555 1_555
H4 C6 1_555 1_555
C7 H5 1_555 1_555
H6 C7 1_555 1_555
H7 C7 1_555 1_555
C8 C11 1_555 1_555
C9 H8 1_555 1_555
H9 C9 1_555 1_555
H10 C9 1_555 1_555
C10 H11 1_555 1_555
C11 O6 1_555 1_555
N1 C1 1_555 1_555
N2 C1 1_555 1_555
N3 C8 1_555 1_555
O1 C4 1_555 1_555
O2 C4 1_555 1_555
O3 Zn1 1_555 1_555
O4 C5 1_555 1_555
O5 H12 1_555 1_555
O7 C11 1_555 1_555
Zn1 O5 1_555 1_555
H13 O5 1_555 1_555
C8A C8 1_555 1_555
C9A H8A 1_555 1_555
H9A C9A 1_555 1_555
H10A C9A 1_555 1_555
C11A C8A 1_555 1_555
N3A C10 1_555 1_555
O6A C11A 1_555 1_555
O7A C11A 1_555 1_555
C1A H1A 1_555 1_555
C2A C3A 1_555 1_555
C3A C5A 1_555 1_555
C4A C2A 1_555 1_555
C5A O3A 1_555 1_555
C6A H2A 1_555 1_555
H3A C6A 1_555 1_555
H4A C6A 1_555 1_555
C7A H5A 1_555 1_555
H6A C7A 1_555 1_555
H7A C7A 1_555 1_555
N1A C1A 1_555 1_555
N2A C1A 1_555 1_555
O1A C4A 1_555 1_555
O2A C4A 1_555 1_555
O3A Zn1A 1_555 1_555
O4A C5A 1_555 1_555
O5A H12A 1_555 1_555
Zn1A O7A 1_555 1_555
H13A O5A 1_555 1_555
O2B Zn1A 1_555 1_555
O2C Zn1 1_555 1_555
Zn1B O2A 1_555 1_555
Zn1C O2 1_555 1_555
C2 N2 1_555 1_555
C3 N1 1_555 1_555
C6 N2 1_555 1_555
C7 N1 1_555 1_555
C9 N3 1_555 1_555
C10 N3 1_555 1_555
O7 Zn1 1_555 1_555
C8A N3A 1_555 1_555
C9A N3A 1_555 1_555
C2A N2A 1_555 1_555
C3A N1A 1_555 1_555
C6A N2A 1_555 1_555
C7A N1A 1_555 1_555
O5A Zn1A 1_555 1_555

#END
