
#######################################################################
#
#                 Cambridge Crystallographic Data Centre
#                                CCDC 
#
#######################################################################
#
# If this CIF has been generated from an entry in the Cambridge 
# Structural Database, then it will include bibliographic, chemical, 
# crystal, experimental, refinement or atomic coordinate data resulting 
# from the CCDC's data processing and validation procedures.
#
#######################################################################

data_NUPGIO
_symmetry_cell_setting           monoclinic
_symmetry_space_group_name_H-M   'P 21/c'
_symmetry_Int_Tables_number      14
_space_group_name_Hall           '-P 2ybc'
loop_
_symmetry_equiv_pos_site_id
_symmetry_equiv_pos_as_xyz
1 x,y,z
2 -x,1/2+y,1/2-z
3 -x,-y,-z
4 x,1/2-y,1/2+z
_cell_length_a                   11.1364(12)
_cell_length_b                   36.5762(51)
_cell_length_c                   11.4712(17)
_cell_angle_alpha                90
_cell_angle_beta                 110.365(67)
_cell_angle_gamma                90
_cell_volume                     4380.47
loop_
_atom_site_label
_atom_site_type_symbol
_atom_site_fract_x
_atom_site_fract_y
_atom_site_fract_z
K1 K -0.3116(2) 0.20691(5) 0.4092(2)
Cl1 Cl -0.3282(2) 0.28647(7) 0.2102(2)
O1 O -0.313(1) 0.2741(3) 0.3260(8)
O2 O -0.227(1) 0.3130(3) 0.232(1)
O3 O -0.4370(8) 0.3074(2) 0.156(1)
O4 O -0.310(1) 0.2587(2) 0.1361(8)
O5 O -0.4936(5) 0.1474(2) 0.4095(6)
O6 O -0.7301(5) 0.2022(2) 0.4677(6)
O7 O -0.5817(5) 0.2140(2) 0.3810(6)
O8 O -0.5803(5) 0.1115(2) -0.2517(6)
O9 O -0.3907(5) 0.1659(2) 0.2012(6)
O10 O -0.1073(5) 0.1945(32) 0.3203(6)
O11 O -0.0490(5) 0.2433(2) 0.5069(6)
O12 O 0.0676(5) 0.2769(2) 0.4206(6)
O13 O 0.1048(5) 0.0638(2) 0.8545(6)
O14 O -0.1999(5) 0.1449(2) 0.4908(6)
C1 C -0.5354(7) 0.0986(2) 0.2590(8)
C2 C -0.5179(7) 0.0630(2) 0.2310(8)
C3 C -0.4432(7) 0.0379(2) 0.3204(8)
C4 C -0.3829(7) 0.0528(2) 0.4417(8)
C5 C -0.3969(7) 0.0878(2) 0.4722(8)
C6 C -0.4777(7) 0.1113(2) 0.3810(8)
C7 C -0.6116(7) 0.1247(2) 0.1573(8)
C8 C -0.3533(7) 0.1523(2) 0.0175(8)
C9 C -0.5974(8) 0.1167(2) -0.0543(8)
C10 C -0.5500(7) 0.1291(2) 0.0626(9)
C11 C -0.4046(7) 0.1392(2) -0.1016(9)
C12 C -0.5313(8) 0.1218(2) -0.1415(8)
C13 C -0.4271(7) 0.1508(2) 0.1019(8)
C14 C -0.2229(7) 0.1710(2) 0.0669(8)
C15 C 0.0088(7) 0.1379(2) 0.3819(8)
C16 C 0.0343(7) 0.1032(2) 0.3496(8)
C17 C -0.0203(8) 0.0886(2) 0.2296(9)
C18 C -0.1017(7) 0.1121(2) 0.1401(8)
C19 C -0.1290(7) 0.1474(2) 0.1687(8)
C20 C -0.0761(7) 0.1605(2) 0.2907(8)
C21 C 0.0580(7) 0.1497(2) 0.5168(8)
C22 C -0.1862(8) 0.1002(2) 0.6385(8)
C23 C 0.0857(8) 0.1030(3) 0.6865(7)
C24 C 0.0129(7) 0.1245(3) 0.5959(8)
C25 C -0.1061(8) 0.0795(2) 0.7347(7)
C26 C 0.0339(9) 0.0811(2) 0.7633(9)
C27 C -0.1307(8) 0.1247(2) 0.5708(8)
C28 C -0.3301(7) 0.1011(2) 0.6058(8)
C29 C -0.4351(7) -0.0009(3) 0.2855(9)
C30 C -0.5678(8) -0.0184(3) 0.233(1)
C31 C -0.3740(9) -0.0029(3) 0.1828(9)
C32 C -0.351(1) -0.0251(3) 0.397(1)
C33 C -0.6063(8) 0.1531(2) 0.4415(8)
C34 C -0.6451(10) 0.1922(2) 0.4302(9)
C35 C -0.603(1) 0.2581(4) 0.396(1)
C36 C -0.688(1) 0.2619(6) 0.275(2)
C37 C 0.0097(9) 0.0496(7) 0.2030(8)
C38 C -0.0874(9) 0.0352(3) 0.0817(8)
C39 C 0.1432(9) 0.0487(3) 0.193(1)
C40 C 0.004(1) 0.0244(3) 0.307(1)
C41 C -0.0219(8) 0.2233(2) 0.3166(8)
C42 C -0.0047(8) 0.2482(2) 0.4260(8)
C43 C 0.0901(9) 0.3056(2) 0.5123(9)
C44 C 0.0710(9) 0.3407(3) 0.449(1)
H1 H -0.5628(7) 0.0537(2) 0.1363(8)
H2 H -0.3225(7) 0.0351(2) 0.5133(8)
H3 H -0.6738(8) 0.1029(2) -0.1259(8)
H4 H -0.3205(7) 0.1487(2) -0.1189(9)
H5 H 0.0998(7) 0.0864(2) 0.4209(8)
H6 H -0.1443(7) 0.1025(2) 0.0456(8)
H7 H 0.1803(8) 0.0934(3) 0.7406(7)
H8 H -0.1897(8) 0.0694(2) 0.7515(7)
H9 H -0.6459(7) 0.1481(2) 0.1943(8)
H10 H -0.6916(7) 0.1110(2) 0.0896(8)
H11 H -0.1733(7) 0.1812(2) 0.0077(8)
H12 H -0.2513(7) 0.1936(2) 0.1119(8)
H13 H 0.1547(7) 0.1404(2) 0.5642(8)
H14 H 0.0541(7) 0.1790(2) 0.5257(8)
H15 H -0.3419(7) 0.1304(2) 0.6051(8)
H16 H -0.3785(7) 0.0888(2) 0.6628(8)
H17 H -0.5582(8) -0.0466(3) 0.209(1)
H18 H -0.6134(8) -0.0175(3) 0.302(1)
H19 H -0.6256(8) -0.0037(3) 0.151(1)
H20 H -0.3680(9) -0.0311(3) 0.1574(9)
H21 H -0.2791(9) 0.0088(3) 0.2173(9)
H22 H -0.4326(9) 0.0122(3) 0.1022(9)
H23 H -0.348(1) -0.0528(3) 0.366(1)
H24 H -0.254(1) -0.0143(3) 0.432(1)
H25 H -0.391(1) -0.0247(3) 0.470(1)
H26 H -0.5867(8) 0.1443(2) 0.5363(8)
H27 H -0.6839(8) 0.1370(2) 0.3799(8)
H28 H -0.516(1) 0.2740(4) 0.416(1)
H29 H -0.647(1) 0.2641(4) 0.464(1)
H30 H -0.719(1) 0.2899(6) 0.258(2)
H31 H -0.639(1) 0.2542(6) 0.211(2)
H32 H -0.770(1) 0.2443(6) 0.260(2)
H33 H -0.0629(9) 0.0075(3) 0.0661(8)
H34 H -0.0863(9) 0.0523(3) 0.0054(8)
H35 H -0.1819(9) 0.0356(3) 0.0881(8)
H36 H 0.1655(9) 0.0211(3) 0.174(1)
H37 H 0.2134(9) 0.0579(3) 0.279(1)
H38 H 0.1447(9) 0.0665(3) 0.118(1)
H39 H 0.025(1) -0.0034(3) 0.288(1)
H40 H 0.073(1) 0.0333(3) 0.395(1)
H41 H -0.091(1) 0.0255(3) 0.313(1)
H42 H 0.0695(8) 0.2120(2) 0.3224(8)
H43 H -0.0616(8) 0.2385(2) 0.2310(8)
H44 H 0.1871(9) 0.3038(2) 0.5772(9)
H45 H 0.0239(9) 0.3027(2) 0.5618(9)
H46 H 0.0877(9) 0.3622(3) 0.517(1)
H47 H 0.1371(9) 0.3436(3) 0.400(1)
H48 H -0.0260(9) 0.3425(3) 0.384(1)
O4C O -0.310(1) 0.2413(2) 0.6361(8)
K1C K -0.3116(2) 0.29309(5) -0.0908(2)
loop_
_geom_bond_atom_site_label_1
_geom_bond_atom_site_label_2
_geom_bond_site_symmetry_1
_geom_bond_site_symmetry_2
K1 O1 1_555 1_555
Cl1 O1 1_555 1_555
O2 Cl1 1_555 1_555
O3 Cl1 1_555 1_555
O4 Cl1 1_555 1_555
O5 K1 1_555 1_555
O6 C34 1_555 1_555
O7 K1 1_555 1_555
O8 C12 1_555 1_555
O9 K1 1_555 1_555
O10 K1 1_555 1_555
O11 K1 1_555 1_555
O12 C42 1_555 1_555
O13 C26 1_555 1_555
O14 K1 1_555 1_555
C1 C2 1_555 1_555
C2 C3 1_555 1_555
C3 C4 1_555 1_555
C4 C5 1_555 1_555
C5 C6 1_555 1_555
C6 O5 1_555 1_555
C7 C1 1_555 1_555
C8 C11 1_555 1_555
C9 C10 1_555 1_555
C10 C7 1_555 1_555
C11 C12 1_555 1_555
C12 C9 1_555 1_555
C13 O9 1_555 1_555
C14 C8 1_555 1_555
C15 C16 1_555 1_555
C16 C17 1_555 1_555
C17 C18 1_555 1_555
C18 C19 1_555 1_555
C19 C14 1_555 1_555
C20 O10 1_555 1_555
C21 C15 1_555 1_555
C22 C25 1_555 1_555
C23 C24 1_555 1_555
C24 C21 1_555 1_555
C25 C26 1_555 1_555
C26 C23 1_555 1_555
C27 O14 1_555 1_555
C28 C5 1_555 1_555
C29 C3 1_555 1_555
C30 C29 1_555 1_555
C31 C29 1_555 1_555
C32 C29 1_555 1_555
C33 O5 1_555 1_555
C34 O7 1_555 1_555
C35 O7 1_555 1_555
C36 C35 1_555 1_555
C37 C17 1_555 1_555
C38 C37 1_555 1_555
C39 C37 1_555 1_555
C40 C37 1_555 1_555
C41 O10 1_555 1_555
C42 O11 1_555 1_555
C43 O12 1_555 1_555
C44 C43 1_555 1_555
H1 C2 1_555 1_555
H2 C4 1_555 1_555
H3 C9 1_555 1_555
H4 C11 1_555 1_555
H5 C16 1_555 1_555
H6 C18 1_555 1_555
H7 C23 1_555 1_555
H8 C25 1_555 1_555
H9 C7 1_555 1_555
H10 C7 1_555 1_555
H11 C14 1_555 1_555
H12 C14 1_555 1_555
H13 C21 1_555 1_555
H14 C21 1_555 1_555
H15 C28 1_555 1_555
H16 C28 1_555 1_555
H17 C30 1_555 1_555
H18 C30 1_555 1_555
H19 C30 1_555 1_555
H20 C31 1_555 1_555
H21 C31 1_555 1_555
H22 C31 1_555 1_555
H23 C32 1_555 1_555
H24 C32 1_555 1_555
H25 C32 1_555 1_555
H26 C33 1_555 1_555
H27 C33 1_555 1_555
H28 C35 1_555 1_555
H29 C35 1_555 1_555
H30 C36 1_555 1_555
H31 C36 1_555 1_555
H32 C36 1_555 1_555
H33 C38 1_555 1_555
H34 C38 1_555 1_555
H35 C38 1_555 1_555
H36 C39 1_555 1_555
H37 C39 1_555 1_555
H38 C39 1_555 1_555
H39 C40 1_555 1_555
H40 C40 1_555 1_555
H41 C40 1_555 1_555
H42 C41 1_555 1_555
H43 C41 1_555 1_555
H44 C43 1_555 1_555
H45 C43 1_555 1_555
H46 C44 1_555 1_555
H47 C44 1_555 1_555
H48 C44 1_555 1_555
O4C K1 1_555 1_555
K1C O4 1_555 1_555
C1 C6 1_555 1_555
C8 C13 1_555 1_555
C10 C13 1_555 1_555
C15 C20 1_555 1_555
C19 C20 1_555 1_555
C22 C27 1_555 1_555
C22 C28 1_555 1_555
C24 C27 1_555 1_555
C33 C34 1_555 1_555
C41 C42 1_555 1_555

#END
