
#######################################################################
#
#                 Cambridge Crystallographic Data Centre
#                                CCDC 
#
#######################################################################
#
# If this CIF has been generated from an entry in the Cambridge 
# Structural Database, then it will include bibliographic, chemical, 
# crystal, experimental, refinement or atomic coordinate data resulting 
# from the CCDC's data processing and validation procedures.
#
#######################################################################

data_NUPWEC
_symmetry_cell_setting           monoclinic
_symmetry_space_group_name_H-M   'C 2/c'
_symmetry_Int_Tables_number      15
_space_group_name_Hall           '-C 2yn'
loop_
_symmetry_equiv_pos_site_id
_symmetry_equiv_pos_as_xyz
1 x,y,z
2 -x,y,1/2-z
3 1/2+x,1/2+y,z
4 1/2-x,1/2+y,1/2-z
5 -x,-y,-z
6 x,-y,1/2+z
7 1/2-x,1/2-y,-z
8 1/2+x,1/2-y,1/2+z
_cell_length_a                   39.274(2)
_cell_length_b                   4.3327(3)
_cell_length_c                   12.4234(10)
_cell_angle_alpha                90
_cell_angle_beta                 99.363(6)
_cell_angle_gamma                90
_cell_volume                     2085.83
loop_
_atom_site_label
_atom_site_type_symbol
_atom_site_fract_x
_atom_site_fract_y
_atom_site_fract_z
K1 K 0.53071(1) 0.71864(10) 0.40994(4)
Cl1 Cl 0.66484(1) 1.12106(12) 0.30636(5)
Cl2 Cl 0.72749(1) 0.44252(15) 0.64380(5)
O1 O 0.50000 0.3066(5) 0.25000
O2 O 0.59608(3) 0.5041(3) 0.53873(12)
O3 O 0.53561(3) 0.2277(3) 0.54855(12)
O4 O 0.55253(4) 0.0910(3) 0.72297(12)
C1 C 0.62867(5) 0.5876(4) 0.52303(17)
C2 C 0.63030(5) 0.7874(4) 0.43626(17)
C3 C 0.66234(5) 0.8758(4) 0.41548(17)
C4 C 0.69289(5) 0.7753(5) 0.47741(18)
C5 C 0.69014(5) 0.5791(5) 0.56273(18)
C6 C 0.65879(5) 0.4817(5) 0.58735(17)
C7 C 0.59359(5) 0.3273(5) 0.63485(17)
C8 C 0.55716(5) 0.2100(4) 0.63421(17)
H1 H 0.4837(5) 0.189(5) 0.263(2)
H2 H 0.60980 0.86110 0.39240
H3 H 0.71470 0.83880 0.46170
H4 H 0.65780 0.34570 0.64670
H5 H 0.60060 0.45750 0.70020
H6 H 0.60960 0.14980 0.63920
H1A H 0.5163(5) 0.189(5) 0.237(2)
K1A K 0.46929(1) 0.71864(10) 0.09006(4)
Cl1A Cl 0.33516(1) 1.12106(12) 0.19364(5)
Cl2A Cl 0.27251(1) 0.44252(15) -0.14380(5)
O2A O 0.40392(3) 0.5041(3) -0.03873(12)
O3A O 0.46439(3) 0.2277(3) -0.04855(12)
O4A O 0.44747(4) 0.0910(3) -0.22297(12)
C1A C 0.37133(5) 0.5876(4) -0.02303(17)
C2A C 0.36970(5) 0.7874(4) 0.06374(17)
C3A C 0.33766(5) 0.8758(4) 0.08452(17)
C4A C 0.30711(5) 0.7753(5) 0.02259(18)
C5A C 0.30986(5) 0.5791(5) -0.06273(18)
C6A C 0.34121(5) 0.4817(5) -0.08735(17)
C7A C 0.40641(5) 0.3273(5) -0.13485(17)
C8A C 0.44284(5) 0.2100(4) -0.13421(17)
H2A H 0.39020 0.86110 0.10760
H3A H 0.28530 0.83880 0.03830
H4A H 0.34220 0.34570 -0.14670
H5A H 0.39940 0.45750 -0.20020
H6A H 0.39040 0.14980 -0.13920
K1_2 K 0.53071(1) -0.28136(10) 0.40994(4)
K1A_2 K 0.46929(1) -0.28136(10) 0.09006(4)
K1D K 0.46929(1) 0.28136(10) -0.40994(4)
K1D_2 K 0.46929(1) 0.28136(10) 0.59006(4)
K1E K 0.53071(1) 0.28136(10) -0.09006(4)
K1E_2 K 0.53071(1) 0.28136(10) 0.90994(4)
O1_2 O 0.50000 1.3066(5) 0.25000
O3_2 O 0.53561(3) 1.2277(3) 0.54855(12)
O3A_2 O 0.46439(3) 1.2277(3) -0.04855(12)
O3D O 0.46439(3) 0.7723(3) 0.45145(12)
O3E O 0.53561(3) 0.7723(3) 0.04855(12)
O4D O 0.44747(4) 0.9090(3) 0.27703(12)
O4E O 0.55253(4) 0.9090(3) 0.22297(12)
loop_
_geom_bond_atom_site_label_1
_geom_bond_atom_site_label_2
_geom_bond_site_symmetry_1
_geom_bond_site_symmetry_2
K1 O1 1_555 1_555
Cl1 C3 1_555 1_555
Cl2 C5 1_555 1_555
O1 H1 1_555 1_555
O2 K1 1_555 1_555
O3 K1 1_555 1_555
O4 C8 1_555 1_555
C1 O2 1_555 1_555
C2 C1 1_555 1_555
C3 C2 1_555 1_555
C4 C3 1_555 1_555
C5 C4 1_555 1_555
C6 C1 1_555 1_555
C7 O2 1_555 1_555
C8 O3 1_555 1_555
H2 C2 1_555 1_555
H3 C4 1_555 1_555
H4 C6 1_555 1_555
H5 C7 1_555 1_555
H6 C7 1_555 1_555
H1A O1 1_555 1_555
K1A O1 1_555 1_555
Cl1A C3A 1_555 1_555
Cl2A C5A 1_555 1_555
O2A K1A 1_555 1_555
O3A K1A 1_555 1_555
O4A C8A 1_555 1_555
C1A O2A 1_555 1_555
C2A C1A 1_555 1_555
C3A C2A 1_555 1_555
C4A C3A 1_555 1_555
C5A C4A 1_555 1_555
C6A C1A 1_555 1_555
C7A O2A 1_555 1_555
C8A O3A 1_555 1_555
H2A C2A 1_555 1_555
H3A C4A 1_555 1_555
H4A C6A 1_555 1_555
H5A C7A 1_555 1_555
H6A C7A 1_555 1_555
K1_2 O1 1_555 1_555
K1A_2 O1 1_555 1_555
K1D O4A 1_555 1_555
K1D_2 O3 1_555 1_555
K1E O3A 1_555 1_555
K1E_2 O4 1_555 1_555
O1_2 K1 1_555 1_555
O3_2 K1 1_555 1_555
O3A_2 K1A 1_555 1_555
O3D K1 1_555 1_555
O3E K1A 1_555 1_555
O4D K1A 1_555 1_555
O4E K1 1_555 1_555
O3 K1_2 1_555 1_555
C5 C6 1_555 1_555
C7 C8 1_555 1_555
K1A O1_2 1_555 1_555
O3A K1A_2 1_555 1_555
C5A C6A 1_555 1_555
C7A C8A 1_555 1_555
K1D_2 O3D 1_555 1_555
K1E O3E 1_555 1_555

#END
