
#######################################################################
#
#                 Cambridge Crystallographic Data Centre
#                                CCDC 
#
#######################################################################
#
# If this CIF has been generated from an entry in the Cambridge 
# Structural Database, then it will include bibliographic, chemical, 
# crystal, experimental, refinement or atomic coordinate data resulting 
# from the CCDC's data processing and validation procedures.
#
#######################################################################

data_NUQNIW02
_symmetry_cell_setting           tetragonal
_symmetry_space_group_name_H-M   'I 41 c d'
_symmetry_Int_Tables_number      110
_space_group_name_Hall           'I 4bw -2c'
loop_
_symmetry_equiv_pos_site_id
_symmetry_equiv_pos_as_xyz
1 x,y,z
2 -x,y,1/2+z
3 y,1/2-x,1/4+z
4 y,1/2+x,3/4+z
5 -x,-y,z
6 x,-y,1/2+z
7 -y,1/2+x,1/4+z
8 -y,1/2-x,3/4+z
9 1/2+x,1/2+y,1/2+z
10 1/2-x,1/2+y,z
11 1/2+y,-x,3/4+z
12 1/2+y,x,1/4+z
13 1/2-x,1/2-y,1/2+z
14 1/2+x,1/2-y,z
15 1/2-y,x,3/4+z
16 1/2-y,-x,1/4+z
_cell_length_a                   18.3757(17)
_cell_length_b                   18.3757(17)
_cell_length_c                   22.137(3)
_cell_angle_alpha                90
_cell_angle_beta                 90
_cell_angle_gamma                90
_cell_volume                     7474.92
loop_
_atom_site_label
_atom_site_type_symbol
_atom_site_fract_x
_atom_site_fract_y
_atom_site_fract_z
Cu1 Cu 0.16515(2) 0.24964(3) 0.00156(3)
O1 O 0.16737(16) 0.35086(16) 0.02827(14)
O2 O 0.07080(17) 0.28536(16) -0.06342(14)
O3 O 0.08203(15) 0.22797(16) 0.05622(14)
O4 O 0.16951(17) 0.14794(17) -0.02323(13)
N1 N 0.2384(2) 0.27075(19) -0.06480(15)
N2 N 0.2712(2) 0.24742(18) -0.16681(15)
C1 C 0.1175(2) 0.3989(2) 0.02275(18)
C2 C 0.0550(2) 0.3983(2) -0.0113(2)
C3 C 0.0370(2) 0.3419(2) -0.0520(2)
C4 C 0.1347(2) 0.4673(2) 0.0593(2)
C5 C -0.0364(3) 0.3515(3) -0.0849(2)
C6 C 0.0418(2) 0.1733(2) 0.0500(2)
C7 C 0.0547(2) 0.1110(2) 0.0156(2)
C8 C 0.1184(2) 0.1031(2) -0.01714(18)
C9 C -0.0292(3) 0.1774(3) 0.0860(3)
C10 C 0.1327(2) 0.0300(2) -0.0492(2)
C11 C 0.2289(2) 0.2390(2) -0.1187(2)
C12 C 0.3282(2) 0.2937(2) -0.1608(2)
C13 C 0.3417(2) 0.3291(2) -0.1073(2)
C14 C 0.2946(2) 0.3168(2) -0.0594(2)
F1 F 0.1895(2) 0.5031(2) 0.03502(19)
F2 F 0.07887(19) 0.5128(2) 0.0643(2)
F3 F 0.1539(2) 0.45232(18) 0.11532(15)
F4 F -0.0513(2) 0.42101(17) -0.09664(18)
F5 F -0.09090(17) 0.3267(3) -0.05084(18)
F6 F -0.0383(2) 0.31640(19) -0.13656(16)
F7 F -0.06923(19) 0.2327(3) 0.0655(2)
F8 F -0.01904(19) 0.1885(2) 0.14359(15)
F9 F -0.06951(18) 0.1175(2) 0.0812(2)
F10 F 0.1571(2) 0.04061(19) -0.10498(16)
F11 F 0.1806(3) -0.0083(2) -0.02059(17)
F12 F 0.07328(19) -0.0106(2) -0.0541(2)
H1 H 0.025(2) 0.439(2) -0.013(2)
H2 H 0.019(3) 0.077(3) 0.004(3)
H3 H 0.187(3) 0.206(3) -0.120(3)
H4 H 0.354(2) 0.300(3) -0.197(2)
H5 H 0.382(2) 0.363(2) -0.107(2)
H6 H 0.305(3) 0.343(3) -0.020(2)
N2B N 0.24742(18) 0.2288(2) 0.08319(15)
Cu1N Cu 0.25036(3) 0.16515(2) -0.24844(3)
loop_
_geom_bond_atom_site_label_1
_geom_bond_atom_site_label_2
_geom_bond_site_symmetry_1
_geom_bond_site_symmetry_2
Cu1 O1 1_555 1_555
O1 C1 1_555 1_555
O2 Cu1 1_555 1_555
O3 Cu1 1_555 1_555
O4 Cu1 1_555 1_555
N1 Cu1 1_555 1_555
N2 C11 1_555 1_555
C1 C2 1_555 1_555
C2 C3 1_555 1_555
C3 O2 1_555 1_555
C4 C1 1_555 1_555
C5 C3 1_555 1_555
C6 O3 1_555 1_555
C7 C6 1_555 1_555
C8 O4 1_555 1_555
C9 C6 1_555 1_555
C10 C8 1_555 1_555
C11 N1 1_555 1_555
C12 N2 1_555 1_555
C13 C12 1_555 1_555
C14 N1 1_555 1_555
F1 C4 1_555 1_555
F2 C4 1_555 1_555
F3 C4 1_555 1_555
F4 C5 1_555 1_555
F5 C5 1_555 1_555
F6 C5 1_555 1_555
F7 C9 1_555 1_555
F8 C9 1_555 1_555
F9 C9 1_555 1_555
F10 C10 1_555 1_555
F11 C10 1_555 1_555
F12 C10 1_555 1_555
H1 C2 1_555 1_555
H2 C7 1_555 1_555
H3 C11 1_555 1_555
H4 C12 1_555 1_555
H5 C13 1_555 1_555
H6 C14 1_555 1_555
N2B Cu1 1_555 1_555
Cu1N N2 1_555 1_555
C7 C8 1_555 1_555
C13 C14 1_555 1_555

#END
