
#######################################################################
#
#                 Cambridge Crystallographic Data Centre
#                                CCDC 
#
#######################################################################
#
# If this CIF has been generated from an entry in the Cambridge 
# Structural Database, then it will include bibliographic, chemical, 
# crystal, experimental, refinement or atomic coordinate data resulting 
# from the CCDC's data processing and validation procedures.
#
#######################################################################

data_NUQPOG
_symmetry_cell_setting           monoclinic
_symmetry_space_group_name_H-M   'C 2/c'
_symmetry_Int_Tables_number      15
_space_group_name_Hall           '-C 2yn'
loop_
_symmetry_equiv_pos_site_id
_symmetry_equiv_pos_as_xyz
1 x,y,z
2 1/2+x,1/2+y,z
3 -x,y,1/2-z
4 1/2-x,1/2+y,1/2-z
5 -x,-y,-z
6 1/2-x,1/2-y,-z
7 x,-y,1/2+z
8 1/2+x,1/2-y,1/2+z
_cell_length_a                   18.3160(14)
_cell_length_b                   12.2002(9)
_cell_length_c                   9.5032(7)
_cell_angle_alpha                90
_cell_angle_beta                 114.0860(10)
_cell_angle_gamma                90
_cell_volume                     1938.68
loop_
_atom_site_label
_atom_site_type_symbol
_atom_site_fract_x
_atom_site_fract_y
_atom_site_fract_z
O5 O 0.6181(8) -0.1214(8) 0.5470(14)
H7 H 0.5769 -0.1608 0.5146
H8 H 0.6554 -0.1557 0.5367
Er1 Er 0.5000 0.36567(3) 0.7500
O1 O 0.5437(3) 0.2033(4) 0.6328(6)
O2 O 0.6411(3) 0.3012(6) 0.7940(8)
O3 O 0.9130(3) 0.1224(4) 0.9781(5)
O4 O 0.9408(3) 0.0211(4) 0.8141(5)
C1 C 0.6167(3) 0.2288(5) 0.6951(6)
C2 C 0.6762(3) 0.1692(4) 0.6502(6)
C3 C 0.7542(3) 0.1557(4) 0.7616(6)
H1 H 0.7685 0.1858 0.8591
C4 C 0.8113(3) 0.0973(5) 0.7280(6)
C5 C 0.7897(4) 0.0560(6) 0.5800(7)
H2 H 0.8270 0.0179 0.5559
C6 C 0.7130(4) 0.0711(6) 0.4684(7)
H3 H 0.6998 0.0447 0.3692
C7 C 0.6549(4) 0.1256(5) 0.5030(7)
C8 C 0.8946(3) 0.0782(4) 0.8500(6)
C9 C 0.5364(3) 0.2323(5) 0.3140(6)
H4 H 0.5605 0.2983 0.3576
C10 C 0.5733(4) 0.1333(4) 0.3767(7)
N1 N 0.5359(4) 0.0393(5) 0.3131(7)
H5 H 0.5581 -0.0236 0.3533
O1B O 0.4563(3) 0.2033(4) -0.1328(6)
O2B O 0.3589(3) 0.3012(6) -0.2940(8)
O3B O 0.0870(3) 0.1224(4) -0.4781(5)
O4B O 0.0592(3) 0.0211(4) -0.3141(5)
C1B C 0.3833(3) 0.2288(5) -0.1951(6)
C2B C 0.3238(3) 0.1692(4) -0.1502(6)
C3B C 0.2458(3) 0.1557(4) -0.2616(6)
H1B H 0.2315 0.1858 -0.3591
C4B C 0.1887(3) 0.0973(5) -0.2280(6)
C5B C 0.2103(4) 0.0560(6) -0.0800(7)
H2B H 0.1730 0.0179 -0.0559
C6B C 0.2870(4) 0.0711(6) 0.0316(7)
H3B H 0.3002 0.0447 0.1308
C7B C 0.3451(4) 0.1256(5) -0.0030(7)
C8B C 0.1054(3) 0.0782(4) -0.3500(6)
C9B C 0.4636(3) 0.2323(5) 0.1860(6)
H4B H 0.4395 0.2983 0.1424
C10B C 0.4267(4) 0.1333(4) 0.1233(7)
N1B N 0.4641(4) 0.0393(5) 0.1869(7)
H5B H 0.4419 -0.0236 0.1467
Er1_2 Er 0.5000 0.36567(3) -0.2500
Er1A Er 0.0000 -0.13433(3) -0.2500
Er1A_2 Er 1.0000 -0.13433(3) 0.7500
Er1G Er 0.0000 0.13433(3) -0.7500
Er1G_2 Er 1.0000 0.13433(3) 1.2500
O1B_2 O 0.4563(3) 0.2033(4) 0.8672(6)
O2B_2 O 0.3589(3) 0.3012(6) 0.7060(8)
O3G O 0.4130(3) 0.3776(4) 0.4781(5)
O3E O 0.5870(3) 0.3776(4) 1.0219(5)
O4A O 0.4408(3) 0.5211(4) 0.8141(5)
O4C O 0.5592(3) 0.5211(4) 0.6859(5)
C11? C 0.5359(4) 0.0393(5) 0.3131(7)
H6? H 0.5594 -0.0272 0.3556
loop_
_geom_bond_atom_site_label_1
_geom_bond_atom_site_label_2
_geom_bond_site_symmetry_1
_geom_bond_site_symmetry_2
Er1 O1 1_555 1_555
O1 C1 1_555 1_555
O2 Er1 1_555 1_555
O3 C8 1_555 1_555
O4 C8 1_555 1_555
C1 O2 1_555 1_555
C2 C1 1_555 1_555
C3 C2 1_555 1_555
H1 C3 1_555 1_555
C4 C3 1_555 1_555
C5 C4 1_555 1_555
H2 C5 1_555 1_555
C6 C5 1_555 1_555
H3 C6 1_555 1_555
C7 C2 1_555 1_555
C8 C4 1_555 1_555
C9 H4 1_555 1_555
C10 C7 1_555 1_555
N1 C10 1_555 1_555
H5 N1 1_555 1_555
O5 H7 1_555 1_555
H8 O5 1_555 1_555
O1B C1B 1_555 1_555
O2B C1B 1_555 1_555
O3B C8B 1_555 1_555
O4B C8B 1_555 1_555
C1B C2B 1_555 1_555
C2B C3B 1_555 1_555
C3B H1B 1_555 1_555
C4B C3B 1_555 1_555
C5B C4B 1_555 1_555
H2B C5B 1_555 1_555
C6B C5B 1_555 1_555
H3B C6B 1_555 1_555
C7B C2B 1_555 1_555
C8B C4B 1_555 1_555
C9B C9 1_555 1_555
H4B C9B 1_555 1_555
C10B C7B 1_555 1_555
N1B N1 1_555 1_555
H5B N1B 1_555 1_555
Er1_2 O1B 1_555 1_555
Er1A O4B 1_555 1_555
Er1A_2 O4 1_555 1_555
Er1G O3B 1_555 1_555
Er1G_2 O3 1_555 1_555
O1B_2 Er1 1_555 1_555
O2B_2 Er1 1_555 1_555
O3G Er1 1_555 1_555
O3E Er1 1_555 1_555
O4A Er1 1_555 1_555
O4C Er1 1_555 1_555
C6 C7 1_555 1_555
C9 C10 1_555 1_555
O2B Er1_2 1_555 1_555
C6B C7B 1_555 1_555
C9B C10B 1_555 1_555
C10B N1B 1_555 1_555

#END
