
#######################################################################
#
#                 Cambridge Crystallographic Data Centre
#                                CCDC 
#
#######################################################################
#
# If this CIF has been generated from an entry in the Cambridge 
# Structural Database, then it will include bibliographic, chemical, 
# crystal, experimental, refinement or atomic coordinate data resulting 
# from the CCDC's data processing and validation procedures.
#
#######################################################################

data_NURBUZ
_symmetry_cell_setting           orthorhombic
_symmetry_space_group_name_H-M   'P 21 21 21'
_symmetry_Int_Tables_number      19
_space_group_name_Hall           'P 2ac 2ab'
loop_
_symmetry_equiv_pos_site_id
_symmetry_equiv_pos_as_xyz
1 x,y,z
2 1/2-x,-y,1/2+z
3 -x,1/2+y,1/2-z
4 1/2+x,1/2-y,-z
_cell_length_a                   12.166(2)
_cell_length_b                   13.298(2)
_cell_length_c                   13.414(2)
_cell_angle_alpha                90
_cell_angle_beta                 90
_cell_angle_gamma                90
_cell_volume                     2170.16
loop_
_atom_site_label
_atom_site_type_symbol
_atom_site_fract_x
_atom_site_fract_y
_atom_site_fract_z
Ni1 Ni 0.25454(8) 0.59847(7) 0.63481(7)
N1 N 0.6121(5) 0.9753(5) 0.3493(5)
N2 N 0.4499(6) 1.0462(6) 0.3665(7)
N3 N 0.1375(6) 0.8172(5) 0.4359(5)
N4 N 0.1852(6) 0.7076(5) 0.5511(5)
O1 O 0.2465(5) 0.6754(4) 0.7705(4)
O2 O 0.3931(5) 0.6954(4) 0.6749(4)
O3 O 0.6626(5) 1.0016(4) 0.9633(4)
O4 O 0.6529(5) 0.9755(4) 0.8028(4)
Br1 Br 0.36778(10) 0.75860(8) 1.14775(7)
C1 C 0.5414(9) 0.9905(8) 0.5241(7)
H1 H 0.6167 0.9858 0.5452
H2 H 0.5030 0.9303 0.5430
H3 H 0.5074 1.0475 0.5554
C2 C 0.5371(8) 1.0026(6) 0.4132(7)
C3 C 0.5706(8) 1.0023(7) 0.2563(7)
H4 H 0.6066 0.9922 0.1959
C4 C 0.4716(8) 1.0449(7) 0.2660(8)
H5 H 0.4267 1.0688 0.2152
C5 C 0.3486(7) 1.0870(7) 0.4090(9)
H6 H 0.3194 1.1377 0.3642
H7 H 0.3656 1.1197 0.4718
C6 C 0.2613(8) 1.0074(7) 0.4268(8)
H8 H 0.2868 0.9616 0.4780
H9 H 0.1950 1.0396 0.4510
C7 C 0.2341(8) 0.9478(7) 0.3334(7)
H10 H 0.2979 0.9081 0.3151
H11 H 0.2200 0.9946 0.2795
C8 C 0.1347(8) 0.8770(7) 0.3435(7)
H12 H 0.0678 0.9166 0.3422
H13 H 0.1331 0.8318 0.2867
C9 C 0.0711(8) 0.8355(8) 0.5155(7)
H14 H 0.0160 0.8837 0.5198
C10 C 0.1017(7) 0.7687(6) 0.5875(7)
H15 H 0.0714 0.7647 0.6511
C11 C 0.2041(6) 0.7398(6) 0.4585(6)
C12 C 0.2846(8) 0.6944(8) 0.3889(7)
H16 H 0.3136 0.6338 0.4174
H17 H 0.3434 0.7411 0.3772
H18 H 0.2488 0.6791 0.3269
C13 C 0.3425(7) 0.7092(5) 0.7569(6)
C14 C 0.4009(6) 0.7601(5) 0.8416(6)
C15 C 0.3663(7) 0.7402(6) 0.9388(5)
H19 H 0.3080 0.6966 0.9505
C16 C 0.4197(7) 0.7860(6) 1.0172(5)
C17 C 0.5037(7) 0.8525(6) 1.0036(6)
H20 H 0.5377 0.8829 1.0579
C18 C 0.5381(7) 0.8743(6) 0.9058(6)
C19 C 0.4874(6) 0.8264(6) 0.8266(6)
H21 H 0.5118 0.8389 0.7621
C20 C 0.6252(7) 0.9528(6) 0.8880(6)
Ni1B Ni 0.74546(8) 1.09847(7) 0.86519(7)
Ni1C Ni 0.75454(8) 0.90153(7) 0.36519(7)
N1C N 0.1121(5) 0.5247(5) 0.6507(5)
O3B O 0.3374(5) 0.5016(4) 0.5367(4)
O4B O 0.3471(5) 0.4755(4) 0.6972(4)
loop_
_geom_bond_atom_site_label_1
_geom_bond_atom_site_label_2
_geom_bond_site_symmetry_1
_geom_bond_site_symmetry_2
Ni1 N4 1_555 1_555
N1 C2 1_555 1_555
N2 C2 1_555 1_555
N3 C8 1_555 1_555
N4 C10 1_555 1_555
O1 Ni1 1_555 1_555
O2 Ni1 1_555 1_555
O3 C20 1_555 1_555
O4 C20 1_555 1_555
Br1 C16 1_555 1_555
C1 H1 1_555 1_555
H2 C1 1_555 1_555
H3 C1 1_555 1_555
C2 C1 1_555 1_555
C3 N1 1_555 1_555
H4 C3 1_555 1_555
C4 N2 1_555 1_555
H5 C4 1_555 1_555
C5 N2 1_555 1_555
H6 C5 1_555 1_555
H7 C5 1_555 1_555
C6 C5 1_555 1_555
H8 C6 1_555 1_555
H9 C6 1_555 1_555
C7 C6 1_555 1_555
H10 C7 1_555 1_555
H11 C7 1_555 1_555
C8 C7 1_555 1_555
H12 C8 1_555 1_555
H13 C8 1_555 1_555
C9 N3 1_555 1_555
H14 C9 1_555 1_555
C10 C9 1_555 1_555
H15 C10 1_555 1_555
C11 N3 1_555 1_555
C12 C11 1_555 1_555
H16 C12 1_555 1_555
H17 C12 1_555 1_555
H18 C12 1_555 1_555
C13 O1 1_555 1_555
C14 C13 1_555 1_555
C15 C14 1_555 1_555
H19 C15 1_555 1_555
C16 C15 1_555 1_555
C17 C16 1_555 1_555
H20 C17 1_555 1_555
C18 C17 1_555 1_555
C19 C14 1_555 1_555
H21 C19 1_555 1_555
C20 C18 1_555 1_555
Ni1B O3 1_555 1_555
Ni1C N1 1_555 1_555
N1C Ni1 1_555 1_555
O3B Ni1 1_555 1_555
O4B Ni1 1_555 1_555
N4 C11 1_555 1_555
O2 C13 1_555 1_555
O4 Ni1B 1_555 1_555
C3 C4 1_555 1_555
C18 C19 1_555 1_555

#END
