
#######################################################################
#
#                 Cambridge Crystallographic Data Centre
#                                CCDC 
#
#######################################################################
#
# If this CIF has been generated from an entry in the Cambridge 
# Structural Database, then it will include bibliographic, chemical, 
# crystal, experimental, refinement or atomic coordinate data resulting 
# from the CCDC's data processing and validation procedures.
#
#######################################################################

data_NURMUJ
_symmetry_cell_setting           monoclinic
_symmetry_space_group_name_H-M   'P 21/c'
_symmetry_Int_Tables_number      14
_space_group_name_Hall           '-P 2ybc'
loop_
_symmetry_equiv_pos_site_id
_symmetry_equiv_pos_as_xyz
1 x,y,z
2 -x,1/2+y,1/2-z
3 -x,-y,-z
4 x,1/2-y,1/2+z
_cell_length_a                   10.0861(11)
_cell_length_b                   10.2527(11)
_cell_length_c                   16.4013(18)
_cell_angle_alpha                90
_cell_angle_beta                 95.478(2)
_cell_angle_gamma                90
_cell_volume                     1688.31
loop_
_atom_site_label
_atom_site_type_symbol
_atom_site_fract_x
_atom_site_fract_y
_atom_site_fract_z
Zn1 Zn 1.77210(2) 0.23913(2) 0.923550(15)
Zn2 Zn 1.0000 0.0000 1.0000
S1 S 0.78219(7) 0.12141(7) 1.11381(4)
S2 S 1.82461(8) 0.56243(7) 0.96102(5)
O1 O 1.63268(16) 0.33557(19) 0.82183(11)
O2 O 1.56657(17) 0.26169(17) 0.93694(11)
O3 O 1.09790(16) 0.14471(15) 0.94645(10)
O4 O 0.94028(16) 0.25276(16) 0.86720(11)
O5 O 1.09030(16) 0.44660(17) 0.61179(10)
O6 O 1.27907(17) 0.56236(18) 0.63154(11)
O7 O 0.84105(16) 0.14249(16) 1.03215(9)
O8 O 1.8122(2) 0.42051(18) 0.98254(12)
C1 C 1.5423(2) 0.3074(2) 0.86560(14)
C2 C 1.0589(2) 0.2206(2) 0.88938(14)
C3 C 1.1977(2) 0.4782(2) 0.65075(14)
C4 C 1.3990(2) 0.3260(2) 0.83342(14)
C5 C 1.2987(2) 0.2693(2) 0.87418(14)
H1 H 1.3207 0.2229 0.9223
C6 C 1.1654(2) 0.2813(2) 0.84341(13)
C7 C 1.1335(2) 0.3491(2) 0.77117(13)
H2 H 1.0449 0.3562 0.7499
C8 C 1.2328(2) 0.4066(2) 0.73012(13)
C9 C 1.3650(2) 0.3960(2) 0.76225(14)
H3 H 1.4313 0.4364 0.7357
C10 C 0.7467(5) 0.2788(4) 1.1506(3)
H4 H 0.8285 0.3224 1.1687
H5 H 0.6930 0.2709 1.1957
H6 H 0.6993 0.3283 1.1076
C11 C 0.6171(3) 0.0687(4) 1.0871(3)
H7 H 0.5668 0.1380 1.0596
H8 H 0.5771 0.0448 1.1357
H9 H 0.6177 -0.0054 1.0513
C12 C 1.9011(5) 0.5692(4) 0.8687(3)
H10 H 1.9874 0.5290 0.8765
H11 H 1.9107 0.6586 0.8529
H12 H 1.8470 0.5238 0.8266
C13 C 1.6641(4) 0.6191(3) 0.9208(3)
H13 H 1.6362 0.5726 0.8713
H14 H 1.6686 0.7107 0.9091
H15 H 1.6013 0.6046 0.9603
Zn1B Zn 0.22790(2) -0.23913(2) 1.076450(15)
Zn1_2 Zn 0.77210(2) 0.23913(2) 0.923550(15)
Zn1A Zn 1.22790(2) 0.73913(2) 0.576450(15)
Zn1B_2 Zn 1.22790(2) -0.23913(2) 1.076450(15)
Zn1C Zn 0.77210(2) -0.73913(2) 1.423550(15)
Zn2A Zn 1.0000 0.5000 0.5000
Zn2A_2 Zn 1.0000 -0.5000 1.5000
S1B S 1.21781(7) -0.12141(7) 0.88619(4)
S2B S 0.17539(8) -0.56243(7) 1.03898(5)
O1B O 0.36732(16) -0.33557(19) 1.17817(11)
O2B O 0.43343(17) -0.26169(17) 1.06306(11)
O3B O 0.90210(16) -0.14471(15) 1.05355(10)
O4B O 1.05972(16) -0.25276(16) 1.13280(11)
O4_2 O 1.94028(16) 0.25276(16) 0.86720(11)
O4B_2 O 0.05972(16) -0.25276(16) 1.13280(11)
O5B O 0.90970(16) -0.44660(17) 1.38821(10)
O5A O 0.90970(16) -0.05340(17) 0.88821(10)
O5C O 1.09030(16) 0.05340(17) 1.11179(10)
O6B O 0.72093(17) -0.56236(18) 1.36846(11)
O6A O 1.72093(17) 0.06236(18) 0.86846(11)
O6C O 0.27907(17) -0.06236(18) 1.13154(11)
O7B O 1.15895(16) -0.14249(16) 0.96785(9)
O7_2 O 1.84105(16) 0.14249(16) 1.03215(9)
O7B_2 O 0.15895(16) -0.14249(16) 0.96785(9)
O8B O 0.1878(2) -0.42051(18) 1.01746(12)
C1B C 0.4577(2) -0.3074(2) 1.13440(14)
C2B C 0.9411(2) -0.2206(2) 1.11062(14)
C3B C 0.8023(2) -0.4782(2) 1.34925(14)
C4B C 0.6010(2) -0.3260(2) 1.16658(14)
C5B C 0.7013(2) -0.2693(2) 1.12582(14)
H1B H 0.6793 -0.2229 1.0777
C6B C 0.8346(2) -0.2813(2) 1.15659(13)
C7B C 0.8665(2) -0.3491(2) 1.22883(13)
H2B H 0.9551 -0.3562 1.2501
C8B C 0.7672(2) -0.4066(2) 1.26988(13)
C9B C 0.6350(2) -0.3960(2) 1.23775(14)
H3B H 0.5687 -0.4364 1.2643
C10B C 1.2533(5) -0.2788(4) 0.8494(3)
H4B H 1.1715 -0.3224 0.8313
H5B H 1.3070 -0.2709 0.8043
H6B H 1.3007 -0.3283 0.8924
C11B C 1.3829(3) -0.0687(4) 0.9129(3)
H7B H 1.4332 -0.1380 0.9404
H8B H 1.4229 -0.0448 0.8643
H9B H 1.3823 0.0054 0.9487
C12B C 0.0989(5) -0.5692(4) 1.1313(3)
H10B H 0.0126 -0.5290 1.1235
H11B H 0.0893 -0.6586 1.1471
H12B H 0.1530 -0.5238 1.1734
C13B C 0.3359(4) -0.6191(3) 1.0792(3)
H13B H 0.3638 -0.5726 1.1287
H14B H 0.3314 -0.7107 1.0909
H15B H 0.3987 -0.6046 1.0397
loop_
_geom_bond_atom_site_label_1
_geom_bond_atom_site_label_2
_geom_bond_site_symmetry_1
_geom_bond_site_symmetry_2
Zn1 O1 1_555 1_555
Zn2 O3 1_555 1_555
S1 O7 1_555 1_555
S2 O8 1_555 1_555
O1 C1 1_555 1_555
O2 Zn1 1_555 1_555
O3 C2 1_555 1_555
O4 C2 1_555 1_555
O5 C3 1_555 1_555
O6 C3 1_555 1_555
O7 Zn2 1_555 1_555
O8 Zn1 1_555 1_555
C1 O2 1_555 1_555
C2 C6 1_555 1_555
C3 C8 1_555 1_555
C4 C1 1_555 1_555
C5 C4 1_555 1_555
H1 C5 1_555 1_555
C6 C5 1_555 1_555
C7 C6 1_555 1_555
H2 C7 1_555 1_555
C8 C7 1_555 1_555
C9 C4 1_555 1_555
H3 C9 1_555 1_555
C10 S1 1_555 1_555
H4 C10 1_555 1_555
H5 C10 1_555 1_555
H6 C10 1_555 1_555
C11 S1 1_555 1_555
H7 C11 1_555 1_555
H8 C11 1_555 1_555
H9 C11 1_555 1_555
C12 S2 1_555 1_555
H10 C12 1_555 1_555
H11 C12 1_555 1_555
H12 C12 1_555 1_555
C13 S2 1_555 1_555
H13 C13 1_555 1_555
H14 C13 1_555 1_555
H15 C13 1_555 1_555
Zn1B O1B 1_555 1_555
Zn1_2 O4 1_555 1_555
Zn1A O6 1_555 1_555
Zn1B_2 O4B 1_555 1_555
Zn1C O6B 1_555 1_555
Zn2A O5 1_555 1_555
Zn2A_2 O5B 1_555 1_555
S1B O7B 1_555 1_555
S2B O8B 1_555 1_555
O1B C1B 1_555 1_555
O2B Zn1B 1_555 1_555
O3B Zn2 1_555 1_555
O4B C2B 1_555 1_555
O4_2 Zn1 1_555 1_555
O4B_2 Zn1B 1_555 1_555
O5B C3B 1_555 1_555
O5A Zn2 1_555 1_555
O5C Zn2 1_555 1_555
O6B C3B 1_555 1_555
O6A Zn1 1_555 1_555
O6C Zn1B 1_555 1_555
O7B Zn2 1_555 1_555
O7_2 Zn1 1_555 1_555
O7B_2 Zn1B 1_555 1_555
O8B Zn1B 1_555 1_555
C1B O2B 1_555 1_555
C2B O3B 1_555 1_555
C3B C8B 1_555 1_555
C4B C1B 1_555 1_555
C5B C4B 1_555 1_555
H1B C5B 1_555 1_555
C6B C2B 1_555 1_555
C7B C6B 1_555 1_555
H2B C7B 1_555 1_555
C8B C7B 1_555 1_555
C9B C4B 1_555 1_555
H3B C9B 1_555 1_555
C10B S1B 1_555 1_555
H4B C10B 1_555 1_555
H5B C10B 1_555 1_555
H6B C10B 1_555 1_555
C11B S1B 1_555 1_555
H7B C11B 1_555 1_555
H8B C11B 1_555 1_555
H9B C11B 1_555 1_555
C12B S2B 1_555 1_555
H10B C12B 1_555 1_555
H11B C12B 1_555 1_555
H12B C12B 1_555 1_555
C13B S2B 1_555 1_555
H13B C13B 1_555 1_555
H14B C13B 1_555 1_555
H15B C13B 1_555 1_555
O7 Zn1_2 1_555 1_555
C8 C9 1_555 1_555
Zn1B_2 O7B 1_555 1_555
C5B C6B 1_555 1_555
C8B C9B 1_555 1_555

#END
