
#######################################################################
#
#                 Cambridge Crystallographic Data Centre
#                                CCDC 
#
#######################################################################
#
# If this CIF has been generated from an entry in the Cambridge 
# Structural Database, then it will include bibliographic, chemical, 
# crystal, experimental, refinement or atomic coordinate data resulting 
# from the CCDC's data processing and validation procedures.
#
#######################################################################

data_NURQIB
_symmetry_cell_setting           monoclinic
_symmetry_space_group_name_H-M   'P 21/n'
_symmetry_Int_Tables_number      14
_space_group_name_Hall           '-P 2yn'
loop_
_symmetry_equiv_pos_site_id
_symmetry_equiv_pos_as_xyz
1 x,y,z
2 1/2-x,1/2+y,1/2-z
3 -x,-y,-z
4 1/2+x,1/2-y,1/2+z
_cell_length_a                   13.667(2)
_cell_length_b                   14.045(2)
_cell_length_c                   14.195(2)
_cell_angle_alpha                90
_cell_angle_beta                 101.483(3)
_cell_angle_gamma                90
_cell_volume                     2670.23
loop_
_atom_site_label
_atom_site_type_symbol
_atom_site_fract_x
_atom_site_fract_y
_atom_site_fract_z
C1 C -0.1674(3) 0.3651(3) 0.6154(3)
H1 H -0.1928 0.3655 0.6715
C2 C -0.2324(3) 0.3512(4) 0.5294(4)
H2 H -0.3002 0.3420 0.5270
C3 C -0.1936(4) 0.3513(3) 0.4470(4)
H3 H -0.2357 0.3433 0.3874
C4 C -0.0920(3) 0.3633(3) 0.4529(3)
H4 H -0.0650 0.3625 0.3978
C5 C -0.0319(3) 0.3764(3) 0.5419(3)
C6 C 0.0781(3) 0.3894(3) 0.5542(3)
C7 C 0.1277(4) 0.3870(3) 0.4782(3)
H5 H 0.0926 0.3767 0.4158
C8 C 0.2301(4) 0.4003(3) 0.4963(4)
H6 H 0.2646 0.3989 0.4460
C9 C 0.2800(4) 0.4153(3) 0.5880(4)
H7 H 0.3488 0.4241 0.6017
C10 C 0.2253(3) 0.4169(3) 0.6606(3)
H8 H 0.2592 0.4276 0.7233
C11 C 0.1097(3) 0.5743(3) 0.8183(3)
C12 C 0.1564(3) 0.6686(3) 0.8551(3)
H9 H 0.1623 0.7083 0.8006
H10 H 0.1123 0.7008 0.8905
C13 C 0.3353(3) 0.6523(3) 0.8771(3)
C14 C 0.4338(3) 0.6395(3) 0.9430(3)
C15 C 0.4472(3) 0.6399(3) 1.0429(3)
H11 H 0.3929 0.6485 1.0725
C16 C 0.5420(3) 0.6275(3) 1.0977(3)
H12 H 0.5511 0.6287 1.1643
C17 C 0.6227(3) 0.6134(3) 1.0559(3)
H13 H 0.6855 0.6042 1.0943
C18 C 0.6116(3) 0.6126(3) 0.9567(3)
C19 C 0.5173(3) 0.6264(3) 0.9012(3)
H14 H 0.5092 0.6271 0.8346
C20 C 0.6953(3) 0.5951(3) 0.9041(3)
C21 C 0.8624(3) 0.5335(3) 0.9103(3)
H15 H 0.9252 0.5475 0.9534
H16 H 0.8596 0.5709 0.8524
C22 C 0.8600(3) 0.4284(3) 0.8841(3)
Mn1 Mn 0.03442(4) 0.41041(4) 0.76006(4)
N1 N -0.0693(2) 0.3783(2) 0.6224(2)
N2 N 0.1274(2) 0.4042(2) 0.6451(2)
N3 N 0.2544(2) 0.6591(2) 0.9170(2)
N4 N 0.7808(2) 0.5621(3) 0.9560(2)
O1 O 0.0329(2) 0.5763(2) 0.7548(2)
O2 O 0.1499(2) 0.4977(2) 0.85240(19)
O3 O 0.32844(19) 0.6558(2) 0.7889(2)
O4 O 0.6838(2) 0.6109(2) 0.8166(2)
O5 O 0.7942(2) 0.3753(2) 0.9029(2)
O6 O 0.9295(2) 0.3983(2) 0.8466(2)
O11 O 0.0939(2) 0.2779(2) 0.82115(19)
H25 H 0.0594 0.2321 0.7928
H26 H 0.1540 0.2723 0.8142
Mn1_2 Mn 1.03442(4) 0.41041(4) 0.76006(4)
O6_2 O -0.0705(2) 0.3983(2) 0.8466(2)
O7 O -0.0196(3) 0.2055(3) 0.9450(3)
H17 H -0.0812 0.1975 0.9213
H18 H 0.0141 0.1612 0.9258
O8 O -0.0414(3) -0.1657(4) 0.8611(3)
H19 H -0.0128 -0.1868 0.9159
H20 H -0.1040 -0.1742 0.8536
O9 O -0.3045(3) 0.2379(3) 0.7725(3)
H21 H -0.2563 0.2772 0.7778
H22 H -0.2840 0.1865 0.8014
O10 O -0.0704(5) 0.0296(4) 0.8479(3)
H23 H -0.1328 0.0260 0.8256
H24 H -0.0394 -0.0055 0.8149
loop_
_geom_bond_atom_site_label_1
_geom_bond_atom_site_label_2
_geom_bond_site_symmetry_1
_geom_bond_site_symmetry_2
C1 H1 1_555 1_555
C2 C1 1_555 1_555
H2 C2 1_555 1_555
C3 C2 1_555 1_555
H3 C3 1_555 1_555
C4 C3 1_555 1_555
H4 C4 1_555 1_555
C5 C4 1_555 1_555
C6 C5 1_555 1_555
C7 C6 1_555 1_555
H5 C7 1_555 1_555
C8 C7 1_555 1_555
H6 C8 1_555 1_555
C9 C8 1_555 1_555
H7 C9 1_555 1_555
C10 C9 1_555 1_555
H8 C10 1_555 1_555
C11 C12 1_555 1_555
C12 H9 1_555 1_555
H10 C12 1_555 1_555
C13 C14 1_555 1_555
C14 C15 1_555 1_555
C15 H11 1_555 1_555
C16 C15 1_555 1_555
H12 C16 1_555 1_555
C17 C16 1_555 1_555
H13 C17 1_555 1_555
C18 C17 1_555 1_555
C19 C14 1_555 1_555
H14 C19 1_555 1_555
C20 C18 1_555 1_555
C21 H15 1_555 1_555
H16 C21 1_555 1_555
C22 C21 1_555 1_555
Mn1 N1 1_555 1_555
N1 C1 1_555 1_555
N2 C6 1_555 1_555
N3 C12 1_555 1_555
N4 C20 1_555 1_555
O1 C11 1_555 1_555
O2 C11 1_555 1_555
O3 C13 1_555 1_555
O4 C20 1_555 1_555
O5 C22 1_555 1_555
O6 C22 1_555 1_555
O7 H17 1_555 1_555
H18 O7 1_555 1_555
O8 H19 1_555 1_555
H20 O8 1_555 1_555
O9 H21 1_555 1_555
H22 O9 1_555 1_555
O10 H23 1_555 1_555
H24 O10 1_555 1_555
O11 Mn1 1_555 1_555
H25 O11 1_555 1_555
H26 O11 1_555 1_555
Mn1_2 O6 1_555 1_555
O6_2 Mn1 1_555 1_555
C5 N1 1_555 1_555
C10 N2 1_555 1_555
C13 N3 1_555 1_555
C18 C19 1_555 1_555
C21 N4 1_555 1_555
Mn1 N2 1_555 1_555
Mn1 O1 1_555 1_555
Mn1 O2 1_555 1_555

#END
