
#######################################################################
#
#                 Cambridge Crystallographic Data Centre
#                                CCDC 
#
#######################################################################
#
# If this CIF has been generated from an entry in the Cambridge 
# Structural Database, then it will include bibliographic, chemical, 
# crystal, experimental, refinement or atomic coordinate data resulting 
# from the CCDC's data processing and validation procedures.
#
#######################################################################

data_NURSUO
_symmetry_cell_setting           triclinic
_symmetry_space_group_name_H-M   'P -1'
_symmetry_Int_Tables_number      2
_space_group_name_Hall           '-P 1'
loop_
_symmetry_equiv_pos_site_id
_symmetry_equiv_pos_as_xyz
1 x,y,z
2 -x,-y,-z
_cell_length_a                   10.223(4)
_cell_length_b                   15.462(6)
_cell_length_c                   9.779(4)
_cell_angle_alpha                99.45(3)
_cell_angle_beta                 106.79(3)
_cell_angle_gamma                83.47(3)
_cell_volume                     1456.17
loop_
_atom_site_label
_atom_site_type_symbol
_atom_site_fract_x
_atom_site_fract_y
_atom_site_fract_z
Mn1 Mn 0.5000 0.5000 0.5000
F1 F 0.1984(9) -0.0909(4) 0.1293(8)
F2 F 0.3185(8) -0.0972(4) -0.005(1)
F3 F 0.1250(8) -0.0480(4) -0.0553(9)
F4 F 0.8236(7) 0.2678(5) 1.4174(6)
F5 F 1.0118(8) 0.2891(4) 1.4134(6)
F6 F 0.9398(8) 0.1763(4) 1.3163(6)
N1 N 0.5408(5) 0.3774(3) 0.5497(6)
N2 N 0.3971(5) 0.4512(4) 0.2990(6)
N3 N 0.3007(6) 0.5064(4) 0.5668(6)
N4 N -0.0036(7) 0.4355(6) 0.7678(8)
C1 C 0.6158(7) 0.3536(5) 0.6858(7)
C2 C 0.6241(8) 0.2603(5) 0.6726(8)
C3 C 0.5563(8) 0.2262(5) 0.5381(8)
C4 C 0.5014(7) 0.3025(4) 0.4641(7)
C5 C 0.4133(7) 0.2925(4) 0.3209(7)
C6 C 0.3672(6) 0.3656(5) 0.2468(7)
C7 C 0.2824(7) 0.3595(5) 0.0994(8)
C8 C 0.2653(7) 0.4416(5) 0.0650(7)
C9 C 0.3329(6) 0.4997(5) 0.1861(7)
C10 C 0.6695(6) 0.4107(5) 0.8076(7)
C11 C 0.3698(7) 0.2061(5) 0.2501(7)
C12 C 0.2856(8) 0.1635(5) 0.3012(8)
C13 C 0.2413(8) 0.0819(5) 0.2382(9)
C14 C 0.2812(9) 0.0414(5) 0.1179(9)
C15 C 0.3642(9) 0.0829(6) 0.0655(9)
C16 C 0.4081(8) 0.1630(5) 0.1284(8)
C17 C 0.241(1) -0.0470(6) 0.045(1)
C18 C 0.7330(7) 0.3704(5) 0.9452(7)
C19 C 0.8690(8) 0.3426(6) 0.9876(9)
C20 C 0.9216(8) 0.3058(6) 1.1135(9)
C21 C 0.8391(8) 0.2966(5) 1.1966(7)
C22 C 0.7048(8) 0.3255(6) 1.1585(8)
C23 C 0.6507(8) 0.3620(6) 1.0299(8)
C24 C 0.8947(9) 0.2559(6) 1.3343(9)
C25 C 0.1905(7) 0.4970(5) 0.5672(7)
C26 C 0.0547(6) 0.4894(5) 0.5604(7)
C27 C 0.0240(7) 0.4605(6) 0.6781(8)
H1 H 0.6706 0.2268 0.7476
H2 H 0.5467 0.1660 0.4997
H3 H 0.2463 0.3081 0.0393
H4 H 0.2156 0.4581 -0.0262
H5 H 0.2572 0.1917 0.3827
H6 H 0.1847 0.0538 0.2765
H7 H 0.3916 0.0550 -0.0171
H8 H 0.4659 0.1902 0.0899
H9 H 0.9274 0.3486 0.9302
H10 H 1.0158 0.2867 1.1419
H11 H 0.6479 0.3206 1.2183
H12 H 0.5563 0.3810 1.0014
N1A N 0.4592(5) 0.6226(3) 0.4503(6)
C1A C 0.3842(7) 0.6464(5) 0.3142(7)
C2A C 0.3759(8) 0.7397(5) 0.3274(8)
C3A C 0.4437(8) 0.7738(5) 0.4619(8)
C4A C 0.4986(7) 0.6975(4) 0.5359(7)
C5A C 0.5867(7) 0.7075(4) 0.6791(7)
C6A C 0.6328(6) 0.6344(5) 0.7532(7)
N2A N 0.6029(5) 0.5488(4) 0.7010(6)
C26A C -0.0547(6) 0.5106(5) 0.4396(7)
C25A C -0.1905(7) 0.5030(5) 0.4328(7)
N3A N -0.3007(6) 0.4936(4) 0.4332(6)
Mn1A Mn -0.5000 0.5000 0.5000
C27A C -0.0240(7) 0.5395(6) 0.3219(8)
N4A N 0.0036(7) 0.5645(6) 0.2322(8)
N3A_2 N 0.6993(6) 0.4936(4) 0.4332(6)
C9A C 0.6671(6) 0.5003(5) 0.8139(7)
C7A C 0.7176(7) 0.6405(5) 0.9006(8)
C8A C 0.7347(7) 0.5584(5) 0.9350(7)
H4A H 0.7844 0.5419 1.0262
H3A H 0.7537 0.6919 0.9607
C11A C 0.6302(7) 0.7939(5) 0.7499(7)
C12A C 0.7144(8) 0.8365(5) 0.6988(8)
C13A C 0.7587(8) 0.9181(5) 0.7618(9)
C14A C 0.7188(9) 0.9586(5) 0.8821(9)
C15A C 0.6358(9) 0.9171(6) 0.9345(9)
C16A C 0.5919(8) 0.8370(5) 0.8716(8)
H8A H 0.5341 0.8098 0.9101
H7A H 0.6084 0.9450 1.0171
C17A C 0.759(1) 1.0470(6) 0.955(1)
F1A F 0.8016(9) 1.0909(4) 0.8707(8)
F2A F 0.6815(8) 1.0972(4) 1.005(1)
F3A F 0.8750(8) 1.0480(4) 1.0553(9)
H6A H 0.8153 0.9462 0.7235
H5A H 0.7428 0.8083 0.6173
H2A H 0.4533 0.8340 0.5003
H1A H 0.3294 0.7732 0.2524
C10A C 0.3305(6) 0.5893(5) 0.1924(7)
C18A C 0.2670(7) 0.6296(5) 0.0548(7)
C19A C 0.1310(8) 0.6574(6) 0.0124(9)
C20A C 0.0784(8) 0.6942(6) -0.1135(9)
C21A C 0.1609(8) 0.7034(5) -0.1966(7)
C22A C 0.2952(8) 0.6745(6) -0.1585(8)
C23A C 0.3493(8) 0.6380(6) -0.0299(8)
H12A H 0.4437 0.6190 -0.0014
H11A H 0.3521 0.6794 -0.2183
C24A C 0.1053(9) 0.7441(6) -0.3343(9)
F4A F 0.1764(7) 0.7322(5) -0.4174(6)
F5A F -0.0118(8) 0.7109(4) -0.4134(6)
F6A F 0.0602(8) 0.8237(4) -0.3163(6)
H10A H -0.0158 0.7133 -0.1419
H9A H 0.0726 0.6514 0.0698
Cl1 Cl 0.4084(7) 0.0207(4) 0.6270(7)
C28 C 0.271(2) 0.0812(9) 0.662(1)
C29 C 0.287(1) 0.1687(10) 0.701(1)
C30 C 0.166(3) 0.210(1) 0.724(2)
C31 C 0.054(3) 0.171(1) 0.713(2)
C32 C 0.074(2) 0.088(2) 0.676(2)
C33 C 0.179(2) 0.027(1) 0.645(2)
H13 H 0.3677 0.1958 0.7051
H14 H 0.1614 0.2743 0.7510
H15 H -0.0286 0.2019 0.7304
H16 H -0.0099 0.0601 0.6680
H17 H 0.1777 -0.0356 0.6209
Cl2? Cl 0.308(1) 0.2929(7) 0.727(1)
H18? H 0.3523 0.0498 0.6430
loop_
_geom_bond_atom_site_label_1
_geom_bond_atom_site_label_2
_geom_bond_site_symmetry_1
_geom_bond_site_symmetry_2
Mn1 N1 1_555 1_555
F1 C17 1_555 1_555
F2 C17 1_555 1_555
F3 C17 1_555 1_555
F4 C24 1_555 1_555
F5 C24 1_555 1_555
F6 C24 1_555 1_555
N1 C1 1_555 1_555
N2 Mn1 1_555 1_555
N3 Mn1 1_555 1_555
N4 C27 1_555 1_555
C1 C2 1_555 1_555
C2 C3 1_555 1_555
C3 C4 1_555 1_555
C4 N1 1_555 1_555
C5 C4 1_555 1_555
C6 N2 1_555 1_555
C7 C6 1_555 1_555
C8 C7 1_555 1_555
C9 N2 1_555 1_555
C10 C1 1_555 1_555
C11 C5 1_555 1_555
C12 C11 1_555 1_555
C13 C12 1_555 1_555
C14 C13 1_555 1_555
C15 C14 1_555 1_555
C16 C11 1_555 1_555
C17 C14 1_555 1_555
C18 C10 1_555 1_555
C19 C18 1_555 1_555
C20 C19 1_555 1_555
C21 C20 1_555 1_555
C22 C21 1_555 1_555
C23 C18 1_555 1_555
C24 C21 1_555 1_555
C25 N3 1_555 1_555
C26 C25 1_555 1_555
C27 C26 1_555 1_555
H1 C2 1_555 1_555
H2 C3 1_555 1_555
H3 C7 1_555 1_555
H4 C8 1_555 1_555
H5 C12 1_555 1_555
H6 C13 1_555 1_555
H7 C15 1_555 1_555
H8 C16 1_555 1_555
H9 C19 1_555 1_555
H10 C20 1_555 1_555
H11 C22 1_555 1_555
H12 C23 1_555 1_555
Cl1 C28 1_555 1_555
C28 C29 1_555 1_555
C29 C30 1_555 1_555
C30 C31 1_555 1_555
C31 C32 1_555 1_555
C32 C33 1_555 1_555
C33 C28 1_555 1_555
H13 C29 1_555 1_555
H14 C30 1_555 1_555
H15 C31 1_555 1_555
H16 C32 1_555 1_555
H17 C33 1_555 1_555
N1A Mn1 1_555 1_555
C1A N1A 1_555 1_555
C2A C1A 1_555 1_555
C3A C2A 1_555 1_555
C4A N1A 1_555 1_555
C5A C4A 1_555 1_555
C6A C5A 1_555 1_555
N2A Mn1 1_555 1_555
C26A C26 1_555 1_555
C25A C26A 1_555 1_555
N3A C25A 1_555 1_555
Mn1A N3A 1_555 1_555
C27A C26A 1_555 1_555
N4A C27A 1_555 1_555
N3A_2 Mn1 1_555 1_555
C9A C10 1_555 1_555
C7A C6A 1_555 1_555
C8A C9A 1_555 1_555
H4A C8A 1_555 1_555
H3A C7A 1_555 1_555
C11A C5A 1_555 1_555
C12A C11A 1_555 1_555
C13A C12A 1_555 1_555
C14A C13A 1_555 1_555
C15A C14A 1_555 1_555
C16A C11A 1_555 1_555
H8A C16A 1_555 1_555
H7A C15A 1_555 1_555
C17A C14A 1_555 1_555
F1A C17A 1_555 1_555
F2A C17A 1_555 1_555
F3A C17A 1_555 1_555
H6A C13A 1_555 1_555
H5A C12A 1_555 1_555
H2A C3A 1_555 1_555
H1A C2A 1_555 1_555
C10A C9 1_555 1_555
C18A C10A 1_555 1_555
C19A C18A 1_555 1_555
C20A C19A 1_555 1_555
C21A C20A 1_555 1_555
C22A C21A 1_555 1_555
C23A C18A 1_555 1_555
H12A C23A 1_555 1_555
H11A C22A 1_555 1_555
C24A C21A 1_555 1_555
F4A C24A 1_555 1_555
F5A C24A 1_555 1_555
F6A C24A 1_555 1_555
H10A C20A 1_555 1_555
H9A C19A 1_555 1_555
C5 C6 1_555 1_555
C8 C9 1_555 1_555
C15 C16 1_555 1_555
C22 C23 1_555 1_555
C1A C10A 1_555 1_555
C3A C4A 1_555 1_555
C6A N2A 1_555 1_555
N2A C9A 1_555 1_555
C7A C8A 1_555 1_555
C15A C16A 1_555 1_555
C22A C23A 1_555 1_555

#END
