
#######################################################################
#
#                 Cambridge Crystallographic Data Centre
#                                CCDC 
#
#######################################################################
#
# If this CIF has been generated from an entry in the Cambridge 
# Structural Database, then it will include bibliographic, chemical, 
# crystal, experimental, refinement or atomic coordinate data resulting 
# from the CCDC's data processing and validation procedures.
#
#######################################################################

data_NURVAZ
_symmetry_cell_setting           monoclinic
_symmetry_space_group_name_H-M   'C 2'
_symmetry_Int_Tables_number      5
_space_group_name_Hall           'C 2y'
loop_
_symmetry_equiv_pos_site_id
_symmetry_equiv_pos_as_xyz
1 x,y,z
2 -x,y,-z
3 1/2+x,1/2+y,z
4 1/2-x,1/2+y,-z
_cell_length_a                   36.08000
_cell_length_b                   10.90600
_cell_length_c                   10.93500
_cell_angle_alpha                90
_cell_angle_beta                 105.55000
_cell_angle_gamma                90
_cell_volume                     4145.3
loop_
_atom_site_label
_atom_site_type_symbol
_atom_site_fract_x
_atom_site_fract_y
_atom_site_fract_z
La1 La 0.11880 -0.00090 0.85330
O1 O 0.05440 0.12280 0.85950
O2 O 0.05230 -0.08900 0.72270
O3 O 0.17550 -0.05180 1.04780
O4 O 0.18390 -0.03050 0.79690
O5 O 0.12590 -0.23500 0.86160
O6 O 0.15340 0.20120 0.88010
O7 O 0.08930 0.13720 0.65270
O8 O 0.11700 -0.08860 0.62770
O9 O 0.11810 0.11590 1.07130
O10 O 0.08290 -0.10470 0.99970
C1 C 0.02290 0.07830 0.80390
C2 C 0.02180 -0.03840 0.72400
O11 O -0.00960 0.12040 0.80670
O12 O -0.01160 -0.07300 0.66450
Cr1 Cr -0.05330 0.02420 0.70220
O13 O -0.05840 0.13880 0.55530
O14 O -0.09150 -0.07610 0.58070
O15 O -0.09020 0.11960 0.76860
O16 O -0.05510 -0.08780 0.84200
C3 C -0.08110 0.08960 0.45260
C4 C -0.09840 -0.03630 0.46620
C5 C -0.09710 0.07290 0.86770
C6 C -0.07750 -0.05070 0.90880
O7A O -0.08930 0.13720 0.34730
O8A O -0.11700 -0.08860 0.37230
O9A O -0.11810 0.11590 0.92870
O10A O -0.08290 -0.10470 1.00030
La1A La -0.11880 -0.00090 0.14670
La1A_2 La -0.11880 -0.00090 1.14670
La2 La 0.13190 0.53080 0.34530
O17 O 0.20040 0.59740 0.32610
O18 O 0.19320 0.46050 0.52940
O19 O 0.15650 0.12650 0.48640
O20 O 0.19740 0.17300 0.32770
C7 C 0.15000 0.23120 0.43250
C8 C 0.17290 0.25610 0.33510
O21 O 0.12900 0.31270 0.45180
O22 O 0.16740 0.35120 0.27230
O23 O 0.06880 0.65210 0.27030
O24 O 0.09890 0.53640 0.51900
O25 O 0.07580 0.39140 0.22720
O26 O 0.12490 0.55260 0.10520
Cr2 Cr 0.19700 0.03190 0.44000
O27 O 0.16150 0.70300 0.51020
O28 O 0.13590 0.75540 0.25970
O29 O 0.16290 -0.05970 0.30010
O30 O 0.24270 -0.04030 0.39910
O31 O 0.18990 -0.11350 0.54010
O32 O 0.23610 0.10140 0.58520
C9 C 0.27050 0.06870 0.59010
C10 C 0.27400 -0.00970 0.47770
C11 C 0.16950 -0.19640 0.47280
C12 C 0.15420 -0.16640 0.33100
La2C La 0.36810 0.03080 0.65470
O17C O 0.29960 0.09740 0.67390
O18C O 0.30680 -0.03950 0.47060
O27_2 O 0.16150 -0.29700 0.51020
O28_2 O 0.13590 -0.24460 0.25970
La2_2 La 0.13190 -0.46920 0.34530
O33 O 0.20430 0.28410 0.74690
O34 O 0.17430 0.62710 0.76660
O35 O 0.24420 0.49410 1.04950
O36 O 0.07310 0.37590 0.68130
O37 O 0.21640 0.73160 1.11230
O38 O 0.04320 0.70420 0.54890
O39 O 0.03670 0.36520 0.97290
O40 O 0.20210 0.32220 0.07980
O41 O 0.000 0.71100 0.000
O42 O 0.24240 0.16680 0.14330
O43 O 0.13100 -0.54700 0.88600
O44 O 0.00910 0.36200 0.39500
O45 O 0.000 0.56900 0.70200
O46 O 0.06270 0.64800 0.91100
loop_
_geom_bond_atom_site_label_1
_geom_bond_atom_site_label_2
_geom_bond_site_symmetry_1
_geom_bond_site_symmetry_2
La1 O1 1_555 1_555
O1 C1 1_555 1_555
O2 La1 1_555 1_555
O3 La1 1_555 1_555
O4 La1 1_555 1_555
O5 La1 1_555 1_555
O6 La1 1_555 1_555
O7 La1 1_555 1_555
O8 La1 1_555 1_555
O9 La1 1_555 1_555
O10 La1 1_555 1_555
C1 C2 1_555 1_555
C2 O2 1_555 1_555
O11 C1 1_555 1_555
O12 C2 1_555 1_555
Cr1 O11 1_555 1_555
O13 Cr1 1_555 1_555
O14 Cr1 1_555 1_555
O15 Cr1 1_555 1_555
O16 Cr1 1_555 1_555
C3 O13 1_555 1_555
C4 O14 1_555 1_555
C5 O15 1_555 1_555
C6 O16 1_555 1_555
La2 O17 1_555 1_555
O18 La2 1_555 1_555
O19 C7 1_555 1_555
O20 C8 1_555 1_555
C7 C8 1_555 1_555
C8 O22 1_555 1_555
O21 La2 1_555 1_555
O22 La2 1_555 1_555
O23 La2 1_555 1_555
O24 La2 1_555 1_555
O25 La2 1_555 1_555
O26 La2 1_555 1_555
Cr2 O19 1_555 1_555
O27 La2 1_555 1_555
O28 La2 1_555 1_555
O29 Cr2 1_555 1_555
O30 Cr2 1_555 1_555
O31 Cr2 1_555 1_555
O32 Cr2 1_555 1_555
C9 O32 1_555 1_555
C10 O30 1_555 1_555
C11 O31 1_555 1_555
C12 O29 1_555 1_555
O7A C3 1_555 1_555
O8A C4 1_555 1_555
O9A C5 1_555 1_555
O10A C6 1_555 1_555
La1A O7A 1_555 1_555
La1A_2 O9A 1_555 1_555
La2C O17C 1_555 1_555
O17C C9 1_555 1_555
O18C C10 1_555 1_555
O27_2 C11 1_555 1_555
O28_2 C12 1_555 1_555
La2_2 O27_2 1_555 1_555
O12 Cr1 1_555 1_555
C3 C4 1_555 1_555
C5 C6 1_555 1_555
O20 Cr2 1_555 1_555
C7 O21 1_555 1_555
C9 C10 1_555 1_555
C11 C12 1_555 1_555
O8A La1A 1_555 1_555
O10A La1A_2 1_555 1_555
La2C O18C 1_555 1_555
O28_2 La2_2 1_555 1_555

#END
