
#######################################################################
#
#                 Cambridge Crystallographic Data Centre
#                                CCDC 
#
#######################################################################
#
# If this CIF has been generated from an entry in the Cambridge 
# Structural Database, then it will include bibliographic, chemical, 
# crystal, experimental, refinement or atomic coordinate data resulting 
# from the CCDC's data processing and validation procedures.
#
#######################################################################

data_NUSHEP
_symmetry_cell_setting           triclinic
_symmetry_space_group_name_H-M   'P -1'
_symmetry_Int_Tables_number      2
_space_group_name_Hall           '-P 1'
loop_
_symmetry_equiv_pos_site_id
_symmetry_equiv_pos_as_xyz
1 x,y,z
2 -x,-y,-z
_cell_length_a                   8.5396(17)
_cell_length_b                   8.8775(18)
_cell_length_c                   15.661(3)
_cell_angle_alpha                77.24(3)
_cell_angle_beta                 83.36(3)
_cell_angle_gamma                64.96(3)
_cell_volume                     1048.78
loop_
_atom_site_label
_atom_site_type_symbol
_atom_site_fract_x
_atom_site_fract_y
_atom_site_fract_z
Cu1 Cu 0.63256(4) 0.96282(4) 0.552350(19)
Cu2 Cu 0.98019(4) 0.60341(4) 0.922206(19)
C1 C 0.8734(3) 0.7874(3) 0.72719(16)
C2 C 0.9376(3) 0.9989(3) 0.64684(17)
C3 C 1.0869(3) 0.8431(3) 0.76831(16)
C4 C 0.5547(3) 1.2524(3) 0.41357(16)
C5 C 0.5746(4) 1.4053(3) 0.35885(18)
H1 H 0.6060 1.3847 0.2996
H2 H 0.4623 1.5001 0.3565
C6 C 0.7040(4) 1.4590(4) 0.38689(18)
H3 H 0.6607 1.5064 0.4394
H4 H 0.8121 1.3606 0.4006
C7 C 0.7367(4) 1.5904(3) 0.31476(18)
H5 H 0.6271 1.6726 0.2899
H6 H 0.8076 1.5343 0.2686
C8 C 0.7089(3) 1.8060(3) 0.40368(18)
C9 C 0.8260(4) 1.6831(4) 0.3470(2)
H7 H 0.8667 1.7444 0.2969
H8 H 0.9260 1.6007 0.3802
C10 C 0.9435(3) 0.2919(3) 0.93365(18)
C11 C 0.9054(4) 0.1699(3) 0.8950(2)
H9 H 0.8853 0.0886 0.9424
H10 H 1.0065 0.1079 0.8616
C12 C 0.7517(4) 0.2529(4) 0.8362(2)
H11 H 0.7759 0.3282 0.7867
H12 H 0.7388 0.1656 0.8135
C13 C 0.3251(4) 0.3399(3) 0.97724(18)
C14 C 0.5133(4) 0.2478(4) 0.9520(2)
H13 H 0.5281 0.1456 0.9329
H14 H 0.5828 0.2139 1.0033
C15 C 0.5804(4) 0.3537(4) 0.8790(2)
H15 H 0.4940 0.4122 0.8342
H16 H 0.5938 0.4391 0.9032
O1 O 0.6511(3) 1.1640(2) 0.47617(13)
O3 O 0.7714(3) 1.8184(2) 0.46903(13)
O4 O 0.4357(3) 1.2225(3) 0.39184(13)
O5 O 0.5531(3) 1.8867(3) 0.38173(14)
O6 O 0.9401(3) 0.4260(2) 0.88394(13)
O7 O 0.2711(3) 0.2849(3) 1.05049(13)
O8 O 0.2323(3) 0.4628(3) 0.92261(13)
O9 O 0.9796(3) 0.2513(2) 1.01305(13)
N1 N 0.7875(4) 0.6885(4) 0.74017(17)
H19 H 0.7131 0.7041 0.7029
H20 H 0.8067 0.6093 0.7858
N2 N 0.8396(3) 0.9099(3) 0.65505(13)
N3 N 0.9081(4) 1.1303(4) 0.58108(18)
H21 H 0.9701 1.1874 0.5743
H22 H 0.8269 1.1582 0.5452
N4 N 1.0671(3) 0.9663(3) 0.69884(14)
N5 N 1.2185(3) 0.8016(3) 0.82033(15)
H23 H 1.2854 0.8540 0.8081
H24 H 1.2361 0.7227 0.8660
N6 N 0.9872(3) 0.7548(3) 0.78900(13)
Cu1_2 Cu 0.63256(4) 1.96282(4) 0.552350(19)
Cu1A Cu 0.36744(4) 1.03718(4) 0.447650(19)
Cu1A_2 Cu 0.36744(4) 2.03718(4) 0.447650(19)
Cu2A Cu 0.01981(4) 0.39659(4) 1.077794(19)
Cu2_2 Cu -0.01981(4) 0.60341(4) 0.922206(19)
Cu2A_2 Cu 1.01981(4) 0.39659(4) 1.077794(19)
O3_2 O 0.7714(3) 0.8184(2) 0.46903(13)
O4A O 0.5643(3) 0.7775(3) 0.60816(13)
O5A O 0.4469(3) 1.1133(3) 0.61827(14)
O7A O 0.7289(3) 0.7151(3) 0.94951(13)
O8_2 O 1.2323(3) 0.4628(3) 0.92261(13)
O9A O 1.0204(3) 0.7487(2) 0.98695(13)
O2 O 0.5505(4) 0.0222(4) 0.1809(2)
H17 H 0.467(9) 0.084(9) 0.155(4)
H18 H 0.525(6) -0.011(7) 0.229(3)
loop_
_geom_bond_atom_site_label_1
_geom_bond_atom_site_label_2
_geom_bond_site_symmetry_1
_geom_bond_site_symmetry_2
Cu1 O1 1_555 1_555
Cu2 O6 1_555 1_555
C1 N1 1_555 1_555
C2 N2 1_555 1_555
C3 N4 1_555 1_555
C4 C5 1_555 1_555
C5 H1 1_555 1_555
H2 C5 1_555 1_555
C6 C5 1_555 1_555
H3 C6 1_555 1_555
H4 C6 1_555 1_555
C7 C6 1_555 1_555
H5 C7 1_555 1_555
H6 C7 1_555 1_555
C8 C9 1_555 1_555
C9 C7 1_555 1_555
H7 C9 1_555 1_555
H8 C9 1_555 1_555
C10 C11 1_555 1_555
C11 H9 1_555 1_555
H10 C11 1_555 1_555
C12 C11 1_555 1_555
H11 C12 1_555 1_555
H12 C12 1_555 1_555
C13 C14 1_555 1_555
C14 H13 1_555 1_555
H14 C14 1_555 1_555
C15 C12 1_555 1_555
H15 C15 1_555 1_555
H16 C15 1_555 1_555
O1 C4 1_555 1_555
O2 H17 1_555 1_555
H18 O2 1_555 1_555
O3 C8 1_555 1_555
O4 C4 1_555 1_555
O5 C8 1_555 1_555
O6 C10 1_555 1_555
O7 C13 1_555 1_555
O8 C13 1_555 1_555
O9 C10 1_555 1_555
N1 H19 1_555 1_555
H20 N1 1_555 1_555
N2 Cu1 1_555 1_555
N3 C2 1_555 1_555
H21 N3 1_555 1_555
H22 N3 1_555 1_555
N4 C2 1_555 1_555
N5 C3 1_555 1_555
H23 N5 1_555 1_555
H24 N5 1_555 1_555
N6 Cu2 1_555 1_555
Cu1_2 O3 1_555 1_555
Cu1A O4 1_555 1_555
Cu1A_2 O5 1_555 1_555
Cu2A O7 1_555 1_555
Cu2_2 O8 1_555 1_555
Cu2A_2 O9 1_555 1_555
O3_2 Cu1 1_555 1_555
O4A Cu1 1_555 1_555
O5A Cu1 1_555 1_555
O7A Cu2 1_555 1_555
O8_2 Cu2 1_555 1_555
O9A Cu2 1_555 1_555
C1 N2 1_555 1_555
C1 N6 1_555 1_555
C3 N6 1_555 1_555
C14 C15 1_555 1_555

#END
