
#######################################################################
#
#                 Cambridge Crystallographic Data Centre
#                                CCDC 
#
#######################################################################
#
# If this CIF has been generated from an entry in the Cambridge 
# Structural Database, then it will include bibliographic, chemical, 
# crystal, experimental, refinement or atomic coordinate data resulting 
# from the CCDC's data processing and validation procedures.
#
#######################################################################

data_NUSJES
_symmetry_cell_setting           monoclinic
_symmetry_space_group_name_H-M   'P 21/c'
_symmetry_Int_Tables_number      14
_space_group_name_Hall           '-P 2ybc'
loop_
_symmetry_equiv_pos_site_id
_symmetry_equiv_pos_as_xyz
1 x,y,z
2 -x,1/2+y,1/2-z
3 -x,-y,-z
4 x,1/2-y,1/2+z
_cell_length_a                   14.344(3)
_cell_length_b                   10.452(2)
_cell_length_c                   12.188(2)
_cell_angle_alpha                90
_cell_angle_beta                 114.49(3)
_cell_angle_gamma                90
_cell_volume                     1662.87
loop_
_atom_site_label
_atom_site_type_symbol
_atom_site_fract_x
_atom_site_fract_y
_atom_site_fract_z
Na1 Na 0.27190(19) 0.8569(2) 0.1488(2)
Na2 Na 0.20825(19) 0.8260(2) 0.3919(2)
O1 O 0.3175(4) 0.7305(5) 0.3167(4)
O2 O 0.3099(4) 0.6509(4) 0.1004(4)
O3 O 0.5871(4) 0.4763(5) 0.3078(5)
O4 O 0.6040(5) 0.5939(6) 0.4735(6)
O5 O 0.1570(5) 1.1388(6) 0.1127(6)
O6 O -0.1424(4) 1.1474(4) 0.0432(4)
O7 O 0.1919(3) 0.9793(4) 0.2494(4)
O8 O 0.0413(4) 0.8906(5) 0.3009(5)
C1 C 0.4670(4) 0.7134(5) 0.4725(4)
H1 H 0.4405 0.7651 0.5148
C2 C 0.0195(5) 1.0535(6) 0.1607(6)
C3 C -0.0487(5) 1.1387(6) 0.0718(6)
C4 C -0.0115(5) 1.2163(6) 0.0110(5)
H2 H -0.0572 1.2703 -0.0471
C5 C 0.5452(5) 0.5520(7) 0.3511(6)
C6 C 0.4449(5) 0.6063(6) 0.2893(6)
C7 C 0.4054(5) 0.6845(6) 0.3548(6)
C8 C -0.0142(5) 0.9704(7) 0.2322(6)
C9 C 0.0850(7) 1.2205(7) 0.0284(6)
C10 C 0.5630(6) 0.6714(7) 0.5298(6)
C11 C 0.1245(5) 1.0514(6) 0.1797(5)
C12 C 0.3851(5) 0.5853(6) 0.1613(6)
C13 C 0.4135(7) 0.4818(8) 0.0960(7)
H3 H 0.3660 0.4817 0.0126
H4 H 0.4112 0.4005 0.1314
H5 H 0.4814 0.4969 0.1019
C14 C 0.6253(7) 0.7168(9) 0.6547(7)
H6 H 0.5840 0.7706 0.6806
H7 H 0.6830 0.7646 0.6562
H8 H 0.6490 0.6446 0.7078
C15 C -0.1183(7) 0.9817(10) 0.2293(10)
H9 H -0.1267 0.9189 0.2819
H10 H -0.1686 0.9678 0.1485
H11 H -0.1270 1.0657 0.2555
C16 C 0.1221(11) 1.3119(9) -0.0354(10)
H12 H 0.0657 1.3616 -0.0900
H13 H 0.1533 1.2663 -0.0798
H14 H 0.1717 1.3677 0.0218
Na1A Na 0.72810(19) 0.3569(2) 0.3512(2)
Na1B Na -0.27190(19) 1.1431(2) -0.1488(2)
Na2A Na -0.20825(19) 1.3260(2) 0.1081(2)
Na2C Na 0.20825(19) 0.6740(2) -0.1081(2)
O2C O 0.3099(4) 0.8491(4) 0.6004(4)
O3A O 0.4129(4) 0.9763(5) 0.1922(5)
O6A O 0.1424(4) 0.6474(4) 0.4568(4)
O6B O 0.1424(4) 0.8526(4) -0.0432(4)
loop_
_geom_bond_atom_site_label_1
_geom_bond_atom_site_label_2
_geom_bond_site_symmetry_1
_geom_bond_site_symmetry_2
Na1 O1 1_555 1_555
Na2 O1 1_555 1_555
O1 C7 1_555 1_555
O2 Na1 1_555 1_555
O3 C5 1_555 1_555
O4 C5 1_555 1_555
O5 C9 1_555 1_555
O6 C3 1_555 1_555
O7 Na1 1_555 1_555
O8 Na2 1_555 1_555
C1 H1 1_555 1_555
C2 C3 1_555 1_555
C3 C4 1_555 1_555
C4 H2 1_555 1_555
C5 C6 1_555 1_555
C6 C7 1_555 1_555
C7 C1 1_555 1_555
C8 O8 1_555 1_555
C9 C4 1_555 1_555
C10 O4 1_555 1_555
C11 O5 1_555 1_555
C12 O2 1_555 1_555
C13 C12 1_555 1_555
H3 C13 1_555 1_555
H4 C13 1_555 1_555
H5 C13 1_555 1_555
C14 C10 1_555 1_555
H6 C14 1_555 1_555
H7 C14 1_555 1_555
H8 C14 1_555 1_555
C15 C8 1_555 1_555
H9 C15 1_555 1_555
H10 C15 1_555 1_555
H11 C15 1_555 1_555
C16 C9 1_555 1_555
H12 C16 1_555 1_555
H13 C16 1_555 1_555
H14 C16 1_555 1_555
Na1A O3 1_555 1_555
Na1B O6 1_555 1_555
Na2A O6 1_555 1_555
Na2C O2 1_555 1_555
O2C Na2 1_555 1_555
O3A Na1 1_555 1_555
O6A Na2 1_555 1_555
O6B Na1 1_555 1_555
Na2 O7 1_555 1_555
O7 C11 1_555 1_555
C1 C10 1_555 1_555
C2 C8 1_555 1_555
C2 C11 1_555 1_555
C6 C12 1_555 1_555
Na2C O6B 1_555 1_555

#END
