
#######################################################################
#
#                 Cambridge Crystallographic Data Centre
#                                CCDC 
#
#######################################################################
#
# If this CIF has been generated from an entry in the Cambridge 
# Structural Database, then it will include bibliographic, chemical, 
# crystal, experimental, refinement or atomic coordinate data resulting 
# from the CCDC's data processing and validation procedures.
#
#######################################################################

data_NUSKUI
_symmetry_cell_setting           triclinic
_symmetry_space_group_name_H-M   'P -1'
_symmetry_Int_Tables_number      2
_space_group_name_Hall           '-P 1'
loop_
_symmetry_equiv_pos_site_id
_symmetry_equiv_pos_as_xyz
1 x,y,z
2 -x,-y,-z
_cell_length_a                   10.314(2)
_cell_length_b                   10.999(2)
_cell_length_c                   22.348(5)
_cell_angle_alpha                87.043(17)
_cell_angle_beta                 81.961(16)
_cell_angle_gamma                88.106(17)
_cell_volume                     2506.13
loop_
_atom_site_label
_atom_site_type_symbol
_atom_site_fract_x
_atom_site_fract_y
_atom_site_fract_z
Ni1 Ni 0.59034(9) 0.37954(8) 0.69082(4)
Mn1 Mn 1.07567(10) 0.36598(9) 0.72308(4)
Cl1 Cl 1.10215(19) 0.13039(17) 0.54564(8)
Cl2 Cl 0.84410(19) -0.23643(16) 0.67707(10)
Cl3 Cl 1.17834(19) 0.65493(18) 0.55851(9)
Cl4 Cl 1.3278(2) 0.97467(17) 0.71235(10)
O1 O 1.0890(4) 0.2452(3) 0.6616(2)
O2 O 1.0990(4) 0.5061(3) 0.66883(19)
O3 O 0.8654(4) 0.3645(3) 0.7192(2)
O4 O 0.2928(4) 0.3807(4) 0.7202(2)
N1 N 1.0415(5) 0.2367(4) 0.7893(2)
N2 N 1.0641(5) 0.4682(4) 0.7964(2)
N3 N 0.7876(5) 0.4122(4) 0.6810(2)
N4 N 0.6081(5) 0.5049(4) 0.6168(2)
N5 N 0.3971(5) 0.3345(4) 0.6873(2)
N6 N 0.6178(5) 0.2394(5) 0.6288(2)
N7 N 0.5889(5) 0.2648(4) 0.7685(2)
N8 N 0.5442(5) 0.5073(5) 0.7565(2)
C1 C 1.0358(6) 0.1370(5) 0.6675(3)
C2 C 1.0321(6) 0.0671(6) 0.6157(3)
C3 C 0.9748(6) -0.0462(6) 0.6188(3)
C4 C 0.9181(6) -0.0936(6) 0.6739(3)
C5 C 0.9250(6) -0.0362(6) 0.7261(3)
C6 C 0.9822(6) 0.0802(5) 0.7238(3)
C7 C 0.9955(6) 0.1311(6) 0.7816(3)
C8 C 1.0632(6) 0.2723(5) 0.8512(2)
C9 C 0.9941(7) 0.1873(6) 0.9024(3)
C10 C 1.2134(6) 0.2636(6) 0.8524(3)
C11 C 1.0103(6) 0.4063(5) 0.8561(2)
C12 C 1.0526(7) 0.4658(6) 0.9105(3)
C13 C 0.8585(6) 0.4153(6) 0.8601(3)
C14 C 1.1034(6) 0.5797(5) 0.7937(3)
C15 C 1.1533(6) 0.6504(5) 0.7397(3)
C16 C 1.2066(6) 0.7641(6) 0.7480(3)
C17 C 1.2563(7) 0.8371(6) 0.6993(3)
C18 C 1.2510(6) 0.8036(6) 0.6413(3)
C19 C 1.1948(6) 0.6941(6) 0.6316(3)
C20 C 1.1494(6) 0.6112(5) 0.6805(3)
C21 C 0.8327(6) 0.4762(5) 0.6325(3)
C22 C 0.7360(7) 0.5286(6) 0.5958(3)
C23 C 0.7704(7) 0.5981(6) 0.5413(3)
C24 C 0.6717(7) 0.6458(6) 0.5104(3)
C25 C 0.5419(7) 0.6256(7) 0.5336(3)
C26 C 0.5135(7) 0.5543(6) 0.5859(3)
C27 C 0.3857(6) 0.2492(6) 0.6492(3)
C28 C 0.5032(7) 0.1952(6) 0.6172(2)
C29 C 0.5015(7) 0.1038(7) 0.5778(3)
C30 C 0.6178(7) 0.0570(7) 0.5484(3)
C31 C 0.7334(7) 0.1043(6) 0.5581(3)
C32 C 0.7305(6) 0.1948(6) 0.5990(3)
C33 C 0.6112(6) 0.1449(6) 0.7738(3)
C34 C 0.5982(7) 0.0817(6) 0.8299(3)
C35 C 0.5577(7) 0.1426(7) 0.8821(3)
C36 C 0.5330(6) 0.2689(7) 0.8790(3)
C37 C 0.5497(6) 0.3273(6) 0.8209(3)
C38 C 0.4901(7) 0.3423(8) 0.9312(3)
C39 C 0.4734(7) 0.4646(7) 0.9234(3)
C40 C 0.4929(7) 0.5268(7) 0.8650(3)
C41 C 0.5280(6) 0.4567(6) 0.8133(3)
C42 C 0.4853(7) 0.6542(7) 0.8538(3)
C43 C 0.5031(7) 0.7043(7) 0.7965(3)
C44 C 0.5319(6) 0.6277(6) 0.7491(3)
H1 H 0.9750 -0.0891 0.5840
H2 H 0.8923 -0.0733 0.7632
H3 H 0.9683 0.0831 0.8163
H4 H 0.9013 0.1918 0.9016
H5 H 1.0126 0.2124 0.9408
H6 H 1.0256 0.1051 0.8967
H7 H 1.2488 0.1916 0.8330
H8 H 1.2306 0.2598 0.8936
H9 H 1.2535 0.3340 0.8314
H10 H 1.0261 0.4166 0.9466
H11 H 1.0122 0.5454 0.9143
H12 H 1.1461 0.4726 0.9046
H13 H 0.8201 0.4197 0.9016
H14 H 0.8277 0.3447 0.8434
H15 H 0.8338 0.4871 0.8376
H16 H 1.0989 0.6177 0.8302
H17 H 1.2079 0.7896 0.7869
H18 H 1.2849 0.8540 0.6085
H19 H 0.9219 0.4880 0.6217
H20 H 0.8578 0.6115 0.5264
H21 H 0.6923 0.6913 0.4743
H22 H 0.4748 0.6600 0.5140
H23 H 0.4263 0.5393 0.6005
H24 H 0.3035 0.2243 0.6429
H25 H 0.4222 0.0735 0.5708
H26 H 0.6174 -0.0061 0.5223
H27 H 0.8125 0.0762 0.5376
H28 H 0.8093 0.2261 0.6062
H29 H 0.6361 0.1022 0.7390
H30 H 0.6168 -0.0016 0.8323
H31 H 0.5467 0.0998 0.9193
H32 H 0.4742 0.3051 0.9697
H33 H 0.4485 0.5100 0.9573
H34 H 0.4677 0.7048 0.8862
H35 H 0.4962 0.7881 0.7893
H36 H 0.5432 0.6621 0.7098
Mn1_2 Mn 0.07567(10) 0.36598(9) 0.72308(4)
O4_2 O 1.2928(4) 0.3807(4) 0.7202(2)
Cl5 Cl 0.2781(2) 0.9319(2) 0.88748(12)
Cl6 Cl 0.2338(3) 0.7238(2) 0.97379(13)
C45 C 0.1919(10) 0.8835(8) 0.9572(4)
P1 P 0.7944(2) 0.81314(19) 0.92178(10)
F1 F 0.8233(7) 0.8391(6) 0.9858(2)
F2 F 0.7537(6) 0.6780(4) 0.9424(3)
F3 F 0.9414(5) 0.7705(5) 0.9014(3)
F4 F 0.8319(5) 0.9481(4) 0.8998(2)
F5 F 0.6454(5) 0.8560(4) 0.9396(3)
F6 F 0.7648(7) 0.7904(6) 0.8558(2)
loop_
_geom_bond_atom_site_label_1
_geom_bond_atom_site_label_2
_geom_bond_site_symmetry_1
_geom_bond_site_symmetry_2
Ni1 N3 1_555 1_555
Mn1 O1 1_555 1_555
Cl1 C2 1_555 1_555
Cl2 C4 1_555 1_555
Cl3 C19 1_555 1_555
Cl4 C17 1_555 1_555
Cl5 C45 1_555 1_555
Cl6 C45 1_555 1_555
P1 F1 1_555 1_555
F2 P1 1_555 1_555
F3 P1 1_555 1_555
F4 P1 1_555 1_555
F5 P1 1_555 1_555
F6 P1 1_555 1_555
O1 C1 1_555 1_555
O2 Mn1 1_555 1_555
O3 Mn1 1_555 1_555
O4 N5 1_555 1_555
N1 Mn1 1_555 1_555
N2 Mn1 1_555 1_555
N3 O3 1_555 1_555
N4 Ni1 1_555 1_555
N5 Ni1 1_555 1_555
N6 Ni1 1_555 1_555
N7 Ni1 1_555 1_555
N8 Ni1 1_555 1_555
C1 C2 1_555 1_555
C2 C3 1_555 1_555
C3 C4 1_555 1_555
C4 C5 1_555 1_555
C5 C6 1_555 1_555
C6 C1 1_555 1_555
C7 N1 1_555 1_555
C8 N1 1_555 1_555
C9 C8 1_555 1_555
C10 C8 1_555 1_555
C11 N2 1_555 1_555
C12 C11 1_555 1_555
C13 C11 1_555 1_555
C14 N2 1_555 1_555
C15 C14 1_555 1_555
C16 C15 1_555 1_555
C17 C16 1_555 1_555
C18 C17 1_555 1_555
C19 C18 1_555 1_555
C20 O2 1_555 1_555
C21 N3 1_555 1_555
C22 N4 1_555 1_555
C23 C22 1_555 1_555
C24 C23 1_555 1_555
C25 C24 1_555 1_555
C26 N4 1_555 1_555
C27 N5 1_555 1_555
C28 N6 1_555 1_555
C29 C28 1_555 1_555
C30 C29 1_555 1_555
C31 C30 1_555 1_555
C32 N6 1_555 1_555
C33 N7 1_555 1_555
C34 C33 1_555 1_555
C35 C34 1_555 1_555
C36 C35 1_555 1_555
C37 N7 1_555 1_555
C38 C36 1_555 1_555
C39 C38 1_555 1_555
C40 C39 1_555 1_555
C41 N8 1_555 1_555
C42 C40 1_555 1_555
C43 C42 1_555 1_555
C44 N8 1_555 1_555
H1 C3 1_555 1_555
H2 C5 1_555 1_555
H3 C7 1_555 1_555
H4 C9 1_555 1_555
H5 C9 1_555 1_555
H6 C9 1_555 1_555
H7 C10 1_555 1_555
H8 C10 1_555 1_555
H9 C10 1_555 1_555
H10 C12 1_555 1_555
H11 C12 1_555 1_555
H12 C12 1_555 1_555
H13 C13 1_555 1_555
H14 C13 1_555 1_555
H15 C13 1_555 1_555
H16 C14 1_555 1_555
H17 C16 1_555 1_555
H18 C18 1_555 1_555
H19 C21 1_555 1_555
H20 C23 1_555 1_555
H21 C24 1_555 1_555
H22 C25 1_555 1_555
H23 C26 1_555 1_555
H24 C27 1_555 1_555
H25 C29 1_555 1_555
H26 C30 1_555 1_555
H27 C31 1_555 1_555
H28 C32 1_555 1_555
H29 C33 1_555 1_555
H30 C34 1_555 1_555
H31 C35 1_555 1_555
H32 C38 1_555 1_555
H33 C39 1_555 1_555
H34 C42 1_555 1_555
H35 C43 1_555 1_555
H36 C44 1_555 1_555
Mn1_2 O4 1_555 1_555
O4_2 Mn1 1_555 1_555
C6 C7 1_555 1_555
C8 C11 1_555 1_555
C15 C20 1_555 1_555
C19 C20 1_555 1_555
C21 C22 1_555 1_555
C25 C26 1_555 1_555
C27 C28 1_555 1_555
C31 C32 1_555 1_555
C36 C37 1_555 1_555
C37 C41 1_555 1_555
C40 C41 1_555 1_555
C43 C44 1_555 1_555

#END
