
#######################################################################
#
#                 Cambridge Crystallographic Data Centre
#                                CCDC 
#
#######################################################################
#
# If this CIF has been generated from an entry in the Cambridge 
# Structural Database, then it will include bibliographic, chemical, 
# crystal, experimental, refinement or atomic coordinate data resulting 
# from the CCDC's data processing and validation procedures.
#
#######################################################################

data_NUSQUN02
_symmetry_cell_setting           triclinic
_symmetry_space_group_name_H-M   'P -1'
_symmetry_Int_Tables_number      2
_space_group_name_Hall           '-P 1'
loop_
_symmetry_equiv_pos_site_id
_symmetry_equiv_pos_as_xyz
1 x,y,z
2 -x,-y,-z
_cell_length_a                   9.485(5)
_cell_length_b                   11.227(6)
_cell_length_c                   12.535(6)
_cell_angle_alpha                75.51(4)
_cell_angle_beta                 76.68(4)
_cell_angle_gamma                80.18(4)
_cell_volume                     1248.54
loop_
_atom_site_label
_atom_site_type_symbol
_atom_site_fract_x
_atom_site_fract_y
_atom_site_fract_z
Mn1 Mn 0.5000 0.5000 1.0000
Mn2 Mn 0.3581(2) 0.5864(2) 0.7358(2)
Mn3 Mn 0.5961(2) 0.6443(2) 0.4475(2)
Cl1 Cl 0.5771(4) 0.4624(3) 0.6256(3)
Cl2 Cl 0.3860(4) 0.7616(3) 0.5570(3)
Cl3 Cl 0.5317(3) 0.6727(3) 0.8196(3)
Cl4 Cl 0.3125(4) 0.4276(3) 0.9221(3)
Cl5 Cl 0.1963(3) 0.4812(3) 0.6577(3)
O1 O 0.1644(10) 0.7081(9) 0.8022(9)
C1 C 0.1786(14) 0.8276(12) 0.8211(12)
H1 H 0.2432 0.8744 0.7561
H2 H 0.2188 0.8173 0.8895
C2 C 0.0191(14) 0.8956(13) 0.8357(13)
H3 H 0.0069 0.9602 0.8795
H4 H -0.0091 0.9336 0.7622
C3 C -0.0674(15) 0.7895(14) 0.8998(12)
H5 H -0.1694 0.8078 0.8885
H6 H -0.0677 0.7730 0.9812
C4 C 0.0156(13) 0.6747(13) 0.8481(12)
H7 H 0.0158 0.5971 0.9069
H8 H -0.0304 0.6642 0.7882
O2 O 0.6795(10) 0.3754(9) 0.9121(8)
C5 C 0.8162(13) 0.4107(12) 0.8471(11)
H9 H 0.8843 0.4098 0.8965
H10 H 0.8033 0.4949 0.7991
C6 C 0.8750(14) 0.3136(14) 0.7742(13)
H11 H 0.8435 0.3400 0.7009
H12 H 0.9828 0.2974 0.7611
C7 C 0.8039(15) 0.1998(12) 0.8483(12)
H13 H 0.7985 0.1404 0.8032
H14 H 0.8579 0.1570 0.9087
C8 C 0.6527(14) 0.2568(11) 0.8960(10)
H15 H 0.5862 0.2697 0.8428
H16 H 0.6103 0.2039 0.9683
O3 O 0.7606(9) 0.7388(8) 0.4920(9)
C9 C 0.8942(14) 0.6781(12) 0.5283(12)
H17 H 0.9537 0.6290 0.4746
H18 H 0.8734 0.6230 0.6038
C10 C 0.9712(16) 0.7856(14) 0.5306(14)
H19 H 1.0258 0.8206 0.4549
H20 H 1.0395 0.7590 0.5834
C11 C 0.8466(14) 0.8795(13) 0.5704(12)
H21 H 0.8745 0.9647 0.5456
H22 H 0.8159 0.8595 0.6533
C12 C 0.7238(15) 0.8644(12) 0.5119(13)
H23 H 0.6266 0.8737 0.5613
H24 H 0.7238 0.9266 0.4403
O4 O 0.5929(9) 0.8048(9) 0.2945(8)
C13 C 0.4823(16) 0.9128(13) 0.2897(12)
H25 H 0.4931 0.9649 0.3398
H26 H 0.3831 0.8868 0.3130
C14 C 0.5086(14) 0.9847(12) 0.1658(11)
H27 H 0.4268 0.9815 0.1301
H28 H 0.5180 1.0725 0.1608
C15 C 0.6520(15) 0.9194(13) 0.1081(12)
H29 H 0.6325 0.8689 0.0599
H30 H 0.7180 0.9805 0.0617
C16 C 0.7181(14) 0.8368(12) 0.2071(11)
H31 H 0.7771 0.7616 0.1858
H32 H 0.7806 0.8826 0.2320
Mn2A Mn 0.6419(2) 0.4136(2) 1.2642(2)
Mn3A Mn 0.4039(2) 0.3557(2) 1.5525(2)
Mn3A_2 Mn 0.4039(2) 0.3557(2) 0.5525(2)
Mn3_2 Mn 0.5961(2) 0.6443(2) 1.4475(2)
Cl1A Cl 0.4229(4) 0.5376(3) 1.3744(3)
Cl1A_2 Cl 0.4229(4) 0.5376(3) 0.3744(3)
Cl1_2 Cl 0.5771(4) 0.4624(3) 1.6256(3)
Cl2A Cl 0.6140(4) 0.2384(3) 1.4430(3)
Cl3A Cl 0.4683(3) 0.3273(3) 1.1804(3)
Cl4A Cl 0.6875(4) 0.5724(3) 1.0779(3)
Cl5A Cl 0.8037(3) 0.5188(3) 1.3423(3)
Cl5A_2 Cl 0.8037(3) 0.5188(3) 0.3423(3)
Cl5_2 Cl 0.1963(3) 0.4812(3) 1.6577(3)
O1A O 0.8356(10) 0.2919(9) 1.1978(9)
C1A C 0.8214(14) 0.1724(12) 1.1789(12)
H1A H 0.7568 0.1256 1.2439
H2A H 0.7812 0.1827 1.1105
C2A C 0.9809(14) 0.1044(13) 1.1643(13)
H3A H 0.9931 0.0398 1.1205
H4A H 1.0091 0.0664 1.2378
C3A C 1.0674(15) 0.2105(14) 1.1002(12)
H5A H 1.1694 0.1922 1.1115
H6A H 1.0677 0.2270 1.0188
C4A C 0.9844(13) 0.3253(13) 1.1519(12)
H7A H 0.9842 0.4029 1.0931
H8A H 1.0304 0.3358 1.2118
O2A O 0.3205(10) 0.6246(9) 1.0879(8)
C5A C 0.1838(13) 0.5893(12) 1.1529(11)
H9A H 0.1157 0.5902 1.1035
H10A H 0.1967 0.5051 1.2009
C6A C 0.1250(14) 0.6864(14) 1.2258(13)
H11A H 0.1565 0.6600 1.2991
H12A H 0.0172 0.7026 1.2389
C7A C 0.1961(15) 0.8002(12) 1.1517(12)
H13A H 0.2015 0.8596 1.1968
H14A H 0.1421 0.8430 1.0913
C8A C 0.3473(14) 0.7432(11) 1.1040(10)
H15A H 0.4138 0.7303 1.1572
H16A H 0.3897 0.7961 1.0317
O3A O 0.2394(9) 0.2612(8) 1.5080(9)
C9A C 0.1058(14) 0.3219(12) 1.4717(12)
H17A H 0.0463 0.3710 1.5254
H18A H 0.1266 0.3770 1.3962
C10A C 0.0288(16) 0.2144(14) 1.4694(14)
H19A H -0.0258 0.1794 1.5451
H20A H -0.0395 0.2410 1.4166
C11A C 0.1534(14) 0.1205(13) 1.4296(12)
H21A H 0.1255 0.0353 1.4544
H22A H 0.1841 0.1405 1.3467
C12A C 0.2762(15) 0.1356(12) 1.4881(13)
H23A H 0.3734 0.1263 1.4387
H24A H 0.2762 0.0734 1.5597
O4A O 0.4071(9) 0.1952(9) 1.7055(8)
C13A C 0.5177(16) 0.0872(13) 1.7103(12)
H25A H 0.5069 0.0351 1.6602
H26A H 0.6169 0.1132 1.6870
C14A C 0.4914(14) 0.0153(12) 1.8342(11)
H27A H 0.5732 0.0185 1.8699
H28A H 0.4820 -0.0725 1.8392
C15A C 0.3480(15) 0.0806(13) 1.8919(12)
H29A H 0.3675 0.1311 1.9401
H30A H 0.2820 0.0195 1.9383
C16A C 0.2819(14) 0.1632(12) 1.7929(11)
H31A H 0.2229 0.2384 1.8142
H32A H 0.2194 0.1174 1.7680
loop_
_geom_bond_atom_site_label_1
_geom_bond_atom_site_label_2
_geom_bond_site_symmetry_1
_geom_bond_site_symmetry_2
Mn1 Cl3 1_555 1_555
Mn2 Cl1 1_555 1_555
Mn3 Cl1 1_555 1_555
Cl1 Mn3A_2 1_555 1_555
Cl2 Mn2 1_555 1_555
Cl3 Mn2 1_555 1_555
Cl4 Mn1 1_555 1_555
Cl5 Mn2 1_555 1_555
O1 Mn2 1_555 1_555
C1 O1 1_555 1_555
H1 C1 1_555 1_555
H2 C1 1_555 1_555
C2 C1 1_555 1_555
H3 C2 1_555 1_555
H4 C2 1_555 1_555
C3 C2 1_555 1_555
H5 C3 1_555 1_555
H6 C3 1_555 1_555
C4 O1 1_555 1_555
H7 C4 1_555 1_555
H8 C4 1_555 1_555
O2 Mn1 1_555 1_555
C5 O2 1_555 1_555
H9 C5 1_555 1_555
H10 C5 1_555 1_555
C6 C5 1_555 1_555
H11 C6 1_555 1_555
H12 C6 1_555 1_555
C7 C6 1_555 1_555
H13 C7 1_555 1_555
H14 C7 1_555 1_555
C8 O2 1_555 1_555
H15 C8 1_555 1_555
H16 C8 1_555 1_555
O3 Mn3 1_555 1_555
C9 O3 1_555 1_555
H17 C9 1_555 1_555
H18 C9 1_555 1_555
C10 C9 1_555 1_555
H19 C10 1_555 1_555
H20 C10 1_555 1_555
C11 C10 1_555 1_555
H21 C11 1_555 1_555
H22 C11 1_555 1_555
C12 O3 1_555 1_555
H23 C12 1_555 1_555
H24 C12 1_555 1_555
O4 Mn3 1_555 1_555
C13 O4 1_555 1_555
H25 C13 1_555 1_555
H26 C13 1_555 1_555
C14 C13 1_555 1_555
H27 C14 1_555 1_555
H28 C14 1_555 1_555
C15 C14 1_555 1_555
H29 C15 1_555 1_555
H30 C15 1_555 1_555
C16 O4 1_555 1_555
H31 C16 1_555 1_555
H32 C16 1_555 1_555
Mn2A Cl1A 1_555 1_555
Mn3A Cl1A 1_555 1_555
Mn3A_2 Cl5 1_555 1_555
Mn3_2 Cl1A 1_555 1_555
Cl1A_2 Mn3 1_555 1_555
Cl1_2 Mn3A 1_555 1_555
Cl2A Mn2A 1_555 1_555
Cl3A Mn1 1_555 1_555
Cl4A Mn1 1_555 1_555
Cl5A Mn2A 1_555 1_555
Cl5A_2 Mn3 1_555 1_555
Cl5_2 Mn3A 1_555 1_555
O1A Mn2A 1_555 1_555
C1A O1A 1_555 1_555
H1A C1A 1_555 1_555
H2A C1A 1_555 1_555
C2A C1A 1_555 1_555
H3A C2A 1_555 1_555
H4A C2A 1_555 1_555
C3A C2A 1_555 1_555
H5A C3A 1_555 1_555
H6A C3A 1_555 1_555
C4A O1A 1_555 1_555
H7A C4A 1_555 1_555
H8A C4A 1_555 1_555
O2A Mn1 1_555 1_555
C5A O2A 1_555 1_555
H9A C5A 1_555 1_555
H10A C5A 1_555 1_555
C6A C5A 1_555 1_555
H11A C6A 1_555 1_555
H12A C6A 1_555 1_555
C7A C6A 1_555 1_555
H13A C7A 1_555 1_555
H14A C7A 1_555 1_555
C8A O2A 1_555 1_555
H15A C8A 1_555 1_555
H16A C8A 1_555 1_555
O3A Mn3A 1_555 1_555
C9A O3A 1_555 1_555
H17A C9A 1_555 1_555
H18A C9A 1_555 1_555
C10A C9A 1_555 1_555
H19A C10A 1_555 1_555
H20A C10A 1_555 1_555
C11A C10A 1_555 1_555
H21A C11A 1_555 1_555
H22A C11A 1_555 1_555
C12A O3A 1_555 1_555
H23A C12A 1_555 1_555
H24A C12A 1_555 1_555
O4A Mn3A 1_555 1_555
C13A O4A 1_555 1_555
H25A C13A 1_555 1_555
H26A C13A 1_555 1_555
C14A C13A 1_555 1_555
H27A C14A 1_555 1_555
H28A C14A 1_555 1_555
C15A C14A 1_555 1_555
H29A C15A 1_555 1_555
H30A C15A 1_555 1_555
C16A O4A 1_555 1_555
H31A C16A 1_555 1_555
H32A C16A 1_555 1_555
Mn2 Cl4 1_555 1_555
Mn3 Cl2 1_555 1_555
C3 C4 1_555 1_555
C7 C8 1_555 1_555
C11 C12 1_555 1_555
C15 C16 1_555 1_555
Mn2A Cl3A 1_555 1_555
Mn2A Cl4A 1_555 1_555
Mn3A Cl2A 1_555 1_555
Mn3A_2 Cl1A_2 1_555 1_555
Mn3_2 Cl1_2 1_555 1_555
Mn3_2 Cl5A 1_555 1_555
C3A C4A 1_555 1_555
C7A C8A 1_555 1_555
C11A C12A 1_555 1_555
C15A C16A 1_555 1_555

#END
