
#######################################################################
#
#                 Cambridge Crystallographic Data Centre
#                                CCDC 
#
#######################################################################
#
# If this CIF has been generated from an entry in the Cambridge 
# Structural Database, then it will include bibliographic, chemical, 
# crystal, experimental, refinement or atomic coordinate data resulting 
# from the CCDC's data processing and validation procedures.
#
#######################################################################

data_NUSSIE
_symmetry_cell_setting           monoclinic
_symmetry_space_group_name_H-M   'P 21/n'
_symmetry_Int_Tables_number      14
_space_group_name_Hall           '-P 2yn'
loop_
_symmetry_equiv_pos_site_id
_symmetry_equiv_pos_as_xyz
1 x,y,z
2 1/2-x,1/2+y,1/2-z
3 -x,-y,-z
4 1/2+x,1/2-y,1/2+z
_cell_length_a                   9.892(2)
_cell_length_b                   15.929(3)
_cell_length_c                   10.074(2)
_cell_angle_alpha                90
_cell_angle_beta                 101.18(3)
_cell_angle_gamma                90
_cell_volume                     1557.23
loop_
_atom_site_label
_atom_site_type_symbol
_atom_site_fract_x
_atom_site_fract_y
_atom_site_fract_z
Cd1 Cd 0.51072(2) 0.150130(14) 0.28088(2)
Cd2 Cd 0.33162(2) 0.350450(14) 0.08148(2)
O1 O 0.5569(2) 0.27885(15) 0.1800(2)
O2 O 0.5550(2) 0.39186(15) 0.0565(3)
C1 C 0.6189(3) 0.3325(2) 0.1265(3)
C2 C 0.7754(3) 0.3306(2) 0.1442(4)
H1 H 0.8139 0.3695 0.2156
H2 H 0.8006 0.3504 0.0612
C3 C 0.8413(3) 0.24447(19) 0.1786(3)
H3 H 0.8030 0.2050 0.1065
C4 C 0.8132(3) 0.2111(2) 0.3126(3)
O3 O 0.7535(2) 0.14087(15) 0.3144(3)
O4 O 0.8557(3) 0.25116(17) 0.4179(2)
C5 C 0.9990(3) 0.25028(19) 0.1873(3)
H4 H 1.0375 0.2855 0.2653
C6 C 1.0295(3) 0.2921(2) 0.0610(3)
O5 O 0.9884(3) 0.25692(16) -0.0511(2)
O6 O 1.0917(2) 0.36157(14) 0.0703(3)
C7 C 1.0655(3) 0.1634(2) 0.2093(4)
H5 H 1.0409 0.1386 0.2892
H6 H 1.0273 0.1281 0.1327
C8 C 1.2214(3) 0.1631(2) 0.2263(3)
O7 O 1.2832(2) 0.22333(15) 0.1883(3)
O8 O 1.2861(2) 0.09928(16) 0.2796(3)
O9 O 0.4760(3) 0.10868(16) 0.0564(3)
H7 H 0.5406 0.0901 0.0287
H8 H 0.4520 0.1472 0.0161
O10 O 0.5534(2) 0.00880(15) 0.3337(3)
H9 H 0.4734 0.0344 0.3504
H10 H 0.6198 0.0038 0.3913
O11 O 0.2902(2) 0.49317(14) 0.0429(2)
H11 H 0.3473 0.5214 0.0077
H12 H 0.2693 0.5219 0.1035
O12 O 0.3865(3) 0.39295(17) 0.3109(3)
H13 H 0.3302 0.3995 0.3616
H14 H 0.4111 0.3466 0.3528
Cd1C Cd 1.01072(2) 0.349870(14) -0.21912(2)
Cd1_2 Cd 1.51072(2) 0.150130(14) 0.28088(2)
Cd2C Cd 0.83162(2) 0.149550(14) 0.58148(2)
Cd2_2 Cd 1.33162(2) 0.350450(14) 0.08148(2)
O4C O 0.3557(3) 0.24884(17) -0.0821(2)
O5C O 0.4884(3) 0.24308(16) 0.4489(2)
O6_2 O 0.0917(2) 0.36157(14) 0.0703(3)
O7_2 O 0.2832(2) 0.22333(15) 0.1883(3)
O8_2 O 0.2861(2) 0.09928(16) 0.2796(3)
O13 O 0.6884(3) 0.0428(2) 0.9444(3)
H15 H 0.6456 0.0037 0.9230
H16 H 0.7495 0.0271 1.0114
O14 O 1.1362(4) 0.0108(2) 0.8279(4)
H17 H 1.1448 -0.0233 0.7782
H18 H 1.0618 0.0318 0.8223
loop_
_geom_bond_atom_site_label_1
_geom_bond_atom_site_label_2
_geom_bond_site_symmetry_1
_geom_bond_site_symmetry_2
Cd1 O1 1_555 1_555
Cd2 O1 1_555 1_555
O1 C1 1_555 1_555
O2 Cd2 1_555 1_555
C1 O2 1_555 1_555
C2 C1 1_555 1_555
H1 C2 1_555 1_555
H2 C2 1_555 1_555
C3 C2 1_555 1_555
H3 C3 1_555 1_555
C4 C3 1_555 1_555
O3 Cd1 1_555 1_555
O4 C4 1_555 1_555
C5 C3 1_555 1_555
H4 C5 1_555 1_555
C6 C5 1_555 1_555
O5 C6 1_555 1_555
O6 C6 1_555 1_555
C7 C5 1_555 1_555
H5 C7 1_555 1_555
H6 C7 1_555 1_555
C8 C7 1_555 1_555
O7 C8 1_555 1_555
O8 C8 1_555 1_555
O9 Cd1 1_555 1_555
H7 O9 1_555 1_555
H8 O9 1_555 1_555
O10 Cd1 1_555 1_555
H9 O10 1_555 1_555
H10 O10 1_555 1_555
O11 Cd2 1_555 1_555
H11 O11 1_555 1_555
H12 O11 1_555 1_555
O12 Cd2 1_555 1_555
H13 O12 1_555 1_555
H14 O12 1_555 1_555
O13 H15 1_555 1_555
H16 O13 1_555 1_555
O14 H17 1_555 1_555
H18 O14 1_555 1_555
Cd1C O5 1_555 1_555
Cd1_2 O7 1_555 1_555
Cd2C O4 1_555 1_555
Cd2_2 O6 1_555 1_555
O4C Cd2 1_555 1_555
O5C Cd1 1_555 1_555
O6_2 Cd2 1_555 1_555
O7_2 Cd1 1_555 1_555
O8_2 Cd1 1_555 1_555
Cd2 O7_2 1_555 1_555
C4 O3 1_555 1_555
O7 Cd2_2 1_555 1_555
O8 Cd1_2 1_555 1_555

#END
