
#######################################################################
#
#                 Cambridge Crystallographic Data Centre
#                                CCDC 
#
#######################################################################
#
# If this CIF has been generated from an entry in the Cambridge 
# Structural Database, then it will include bibliographic, chemical, 
# crystal, experimental, refinement or atomic coordinate data resulting 
# from the CCDC's data processing and validation procedures.
#
#######################################################################

data_NUSTAX
_symmetry_cell_setting           triclinic
_symmetry_space_group_name_H-M   'P -1'
_symmetry_Int_Tables_number      2
_space_group_name_Hall           '-P 1'
loop_
_symmetry_equiv_pos_site_id
_symmetry_equiv_pos_as_xyz
1 x,y,z
2 -x,-y,-z
_cell_length_a                   6.9567(2)
_cell_length_b                   7.0650(2)
_cell_length_c                   16.3165(5)
_cell_angle_alpha                95.210(2)
_cell_angle_beta                 94.715(2)
_cell_angle_gamma                114.279(3)
_cell_volume                     721.653
loop_
_atom_site_label
_atom_site_type_symbol
_atom_site_fract_x
_atom_site_fract_y
_atom_site_fract_z
K1 K 1.17535(5) 0.37965(7) 0.45179(2)
O1 O 0.83335(15) 0.43020(18) 0.38628(8)
C1 C 0.6910(2) 0.2525(2) 0.39151(9)
O2 O 0.72229(16) 0.13032(19) 0.43546(8)
O3 O 1.56428(18) 0.70487(19) 0.43366(8)
H1 H 1.6046 0.8396 0.4369
H2 H 1.6009 0.6602 0.3866
C2 C 0.4721(2) 0.1897(2) 0.34555(9)
C3 C 0.4306(2) 0.3027(2) 0.28446(9)
C4 C 0.2223(2) 0.2337(3) 0.24475(10)
H3 H 0.1939 0.3052 0.2037
C5 C 0.0597(2) 0.0614(3) 0.26584(11)
H4 H -0.0777 0.0178 0.2390
C6 C 0.0981(2) -0.0473(3) 0.32624(12)
H5 H -0.0130 -0.1625 0.3408
C7 C 0.3031(2) 0.0163(2) 0.36497(10)
H6 H 0.3287 -0.0590 0.4051
N1 N 0.59390(19) 0.4822(2) 0.26686(9)
H7 H 0.7163 0.4903 0.2902
C8 C 0.5842(2) 0.5921(2) 0.19902(10)
C9 C 0.7016(2) 0.5894(2) 0.13416(10)
C10 C 0.7056(2) 0.7139(3) 0.07149(10)
C11 C 0.5919(3) 0.8333(3) 0.07612(12)
H8 H 0.5947 0.9166 0.0349
C12 C 0.4748(3) 0.8336(3) 0.13940(13)
H9 H 0.3982 0.9147 0.1404
C13 C 0.4707(2) 0.7133(3) 0.20182(11)
H10 H 0.3923 0.7136 0.2453
C14 C 0.8247(3) 0.4575(3) 0.13174(16)
H11 H 0.9714 0.5437 0.1523
H12 H 0.8134 0.3962 0.0756
H13 H 0.7678 0.3484 0.1657
C15 C 0.8315(3) 0.7171(4) 0.00036(13)
H14 H 0.8086 0.8031 -0.0382
H15 H 0.7860 0.5770 -0.0273
H16 H 0.9800 0.7734 0.0212
K1A K 0.82465(5) 0.62035(7) 0.54821(2)
K1A_2 K 1.82465(5) 0.62035(7) 0.54821(2)
O1A O 1.16665(15) 0.56980(18) 0.61372(8)
O3A O 1.43572(18) 0.29513(19) 0.56634(8)
H1A H 1.3954 0.1604 0.5631
H2A H 1.3991 0.3398 0.6134
loop_
_geom_bond_atom_site_label_1
_geom_bond_atom_site_label_2
_geom_bond_site_symmetry_1
_geom_bond_site_symmetry_2
K1 O1 1_555 1_555
O1 C1 1_555 1_555
C1 O2 1_555 1_555
O2 K1 1_555 1_555
O3 K1 1_555 1_555
H1 O3 1_555 1_555
H2 O3 1_555 1_555
C2 C1 1_555 1_555
C3 C2 1_555 1_555
C4 C3 1_555 1_555
H3 C4 1_555 1_555
C5 C4 1_555 1_555
H4 C5 1_555 1_555
C6 C5 1_555 1_555
H5 C6 1_555 1_555
C7 C2 1_555 1_555
H6 C7 1_555 1_555
N1 C3 1_555 1_555
H7 N1 1_555 1_555
C8 N1 1_555 1_555
C9 C8 1_555 1_555
C10 C9 1_555 1_555
C11 C10 1_555 1_555
H8 C11 1_555 1_555
C12 C11 1_555 1_555
H9 C12 1_555 1_555
C13 C8 1_555 1_555
H10 C13 1_555 1_555
C14 C9 1_555 1_555
H11 C14 1_555 1_555
H12 C14 1_555 1_555
H13 C14 1_555 1_555
C15 C10 1_555 1_555
H14 C15 1_555 1_555
H15 C15 1_555 1_555
H16 C15 1_555 1_555
K1A O1 1_555 1_555
K1A_2 O3 1_555 1_555
O1A K1 1_555 1_555
O3A K1 1_555 1_555
H1A O3A 1_555 1_555
H2A O3A 1_555 1_555
C6 C7 1_555 1_555
C12 C13 1_555 1_555
K1A O1A 1_555 1_555
K1A_2 O3A 1_555 1_555

#END
