
#######################################################################
#
#                 Cambridge Crystallographic Data Centre
#                                CCDC 
#
#######################################################################
#
# If this CIF has been generated from an entry in the Cambridge 
# Structural Database, then it will include bibliographic, chemical, 
# crystal, experimental, refinement or atomic coordinate data resulting 
# from the CCDC's data processing and validation procedures.
#
#######################################################################

data_NUTFUF
_symmetry_cell_setting           triclinic
_symmetry_space_group_name_H-M   'P -1'
_symmetry_Int_Tables_number      2
_space_group_name_Hall           '-P 1'
loop_
_symmetry_equiv_pos_site_id
_symmetry_equiv_pos_as_xyz
1 x,y,z
2 -x,-y,-z
_cell_length_a                   8.9533(18)
_cell_length_b                   9.5321(19)
_cell_length_c                   16.993(3)
_cell_angle_alpha                76.234(4)
_cell_angle_beta                 86.011(4)
_cell_angle_gamma                84.480(4)
_cell_volume                     1400.42
loop_
_atom_site_label
_atom_site_type_symbol
_atom_site_fract_x
_atom_site_fract_y
_atom_site_fract_z
Cu1 Cu 0.0000 0.0000 0.0000
O1 O 0.6899(2) -0.1642(2) 0.19721(13)
N1 N 0.2162(3) -0.0849(2) 0.02693(15)
C1 C 0.3151(3) -0.1230(3) -0.02889(19)
H1 H 0.2838 -0.1111 -0.0825
H2 H -0.126(5) -0.050(4) 0.168(2)
H3 H -0.068(4) 0.061(4) 0.163(2)
O2 O 0.9052(2) 0.2533(2) 0.18795(12)
N2 N 0.4367(3) -0.1858(3) 0.20653(15)
H4 H 0.3584 -0.1906 0.2410
C2 C 0.4597(4) -0.1785(4) -0.01182(19)
H5 H 0.5262 -0.2035 -0.0533
O3 O -0.0609(3) -0.0090(3) 0.14473(14)
N3 N 0.5726(3) -0.2653(3) 0.31888(15)
H6 H 0.4906 -0.3062 0.3402
C3 C 0.5082(4) -0.1979(3) 0.06573(19)
H7 H 0.6082 -0.2351 0.0783
N4 N 1.0333(3) 0.2873(3) 0.29315(15)
H8 H 1.0706 0.3535 0.3126
C4 C 0.4071(3) -0.1616(3) 0.12457(18)
N5 N 0.9756(3) 0.4781(3) 0.18868(15)
H9 H 1.0162 0.5264 0.2187
C5 C 0.2633(3) -0.1053(3) 0.10228(18)
H10 H 0.1944 -0.0799 0.1427
N6 N 0.9348(3) 0.7935(2) 0.02103(14)
C6 C 0.5767(3) -0.2032(3) 0.23903(18)
C7 C 0.6950(3) -0.2700(3) 0.37340(19)
C8 C 0.8336(4) -0.3587(3) 0.3485(2)
H11 H 0.9104 -0.3696 0.3884
H12 H 0.8734 -0.3088 0.2950
H13 H 0.8061 -0.4546 0.3461
C9 C 0.6363(4) -0.3494(4) 0.45759(19)
H14 H 0.6183 -0.4487 0.4566
H15 H 0.5422 -0.2984 0.4725
H16 H 0.7109 -0.3517 0.4975
C10 C 0.7255(3) -0.1149(3) 0.37416(18)
C11 C 0.6067(4) -0.0216(4) 0.3936(2)
H17 H 0.5090 -0.0546 0.4048
C12 C 0.6287(4) 0.1182(4) 0.3969(2)
H18 H 0.5469 0.1800 0.4112
C13 C 0.7701(4) 0.1682(3) 0.3795(2)
H19 H 0.7847 0.2645 0.3819
C14 C 0.8906(4) 0.0797(3) 0.35855(18)
C15 C 0.8666(4) -0.0620(3) 0.35709(18)
H20 H 0.9491 -0.1243 0.3440
C16 C 1.0470(4) 0.1357(3) 0.34187(18)
C17 C 1.1102(4) 0.1418(4) 0.4226(2)
H21 H 1.0415 0.2043 0.4494
H22 H 1.2087 0.1811 0.4122
H23 H 1.1206 0.0439 0.4576
C18 C 1.1594(4) 0.0452(3) 0.2987(2)
H24 H 1.1789 -0.0515 0.3340
H25 H 1.2535 0.0924 0.2861
H26 H 1.1181 0.0365 0.2483
C19 C 0.9682(3) 0.3313(3) 0.22156(18)
C20 C 0.9267(3) 0.5593(3) 0.11385(18)
C21 C 0.8413(3) 0.5129(3) 0.06110(18)
H27 H 0.8067 0.4186 0.0749
C22 C 0.8080(3) 0.6081(3) -0.01214(19)
H28 H 0.7518 0.5783 -0.0498
C23 C 0.8561(3) 0.7455(3) -0.03049(18)
H29 H 0.8329 0.8086 -0.0812
C24 C 0.9682(3) 0.7014(3) 0.09144(18)
H30 H 1.0233 0.7346 0.1283
O1A O -0.6899(2) 0.1642(2) -0.19721(13)
N1A N -0.2162(3) 0.0849(2) -0.02693(15)
C1A C -0.3151(3) 0.1230(3) 0.02889(19)
H1A H -0.2838 0.1111 0.0825
H2A H 0.126(5) 0.050(4) -0.168(2)
H3A H 0.068(4) -0.061(4) -0.163(2)
O2A O -0.9052(2) -0.2533(2) -0.18795(12)
N2A N -0.4367(3) 0.1858(3) -0.20653(15)
H4A H -0.3584 0.1906 -0.2410
C2A C -0.4597(4) 0.1785(4) 0.01182(19)
H5A H -0.5262 0.2035 0.0533
O3A O 0.0609(3) 0.0090(3) -0.14473(14)
N3A N -0.5726(3) 0.2653(3) -0.31888(15)
H6A H -0.4906 0.3062 -0.3402
C3A C -0.5082(4) 0.1979(3) -0.06573(19)
H7A H -0.6082 0.2351 -0.0783
N4A N -1.0333(3) -0.2873(3) -0.29315(15)
H8A H -1.0706 -0.3535 -0.3126
C4A C -0.4071(3) 0.1616(3) -0.12457(18)
N5A N -0.9756(3) -0.4781(3) -0.18868(15)
H9A H -1.0162 -0.5264 -0.2187
C5A C -0.2633(3) 0.1053(3) -0.10228(18)
H10A H -0.1944 0.0799 -0.1427
N6A N -0.9348(3) -0.7935(2) -0.02103(14)
C6A C -0.5767(3) 0.2032(3) -0.23903(18)
C7A C -0.6950(3) 0.2700(3) -0.37340(19)
C8A C -0.8336(4) 0.3587(3) -0.3485(2)
H11A H -0.9104 0.3696 -0.3884
H12A H -0.8734 0.3088 -0.2950
H13A H -0.8061 0.4546 -0.3461
C9A C -0.6363(4) 0.3494(4) -0.45759(19)
H14A H -0.6183 0.4487 -0.4566
H15A H -0.5422 0.2984 -0.4725
H16A H -0.7109 0.3517 -0.4975
C10A C -0.7255(3) 0.1149(3) -0.37416(18)
C11A C -0.6067(4) 0.0216(4) -0.3936(2)
H17A H -0.5090 0.0546 -0.4048
C12A C -0.6287(4) -0.1182(4) -0.3969(2)
H18A H -0.5469 -0.1800 -0.4112
C13A C -0.7701(4) -0.1682(3) -0.3795(2)
H19A H -0.7847 -0.2645 -0.3819
C14A C -0.8906(4) -0.0797(3) -0.35855(18)
C15A C -0.8666(4) 0.0620(3) -0.35709(18)
H20A H -0.9491 0.1243 -0.3440
C16A C -1.0470(4) -0.1357(3) -0.34187(18)
C17A C -1.1102(4) -0.1418(4) -0.4226(2)
H21A H -1.0415 -0.2043 -0.4494
H22A H -1.2087 -0.1811 -0.4122
H23A H -1.1206 -0.0439 -0.4576
C18A C -1.1594(4) -0.0452(3) -0.2987(2)
H24A H -1.1789 0.0515 -0.3340
H25A H -1.2535 -0.0924 -0.2861
H26A H -1.1181 -0.0365 -0.2483
C19A C -0.9682(3) -0.3313(3) -0.22156(18)
C20A C -0.9267(3) -0.5593(3) -0.11385(18)
C21A C -0.8413(3) -0.5129(3) -0.06110(18)
H27A H -0.8067 -0.4186 -0.0749
C22A C -0.8080(3) -0.6081(3) 0.01214(19)
H28A H -0.7518 -0.5783 0.0498
C23A C -0.8561(3) -0.7455(3) 0.03049(18)
H29A H -0.8329 -0.8086 0.0812
C24A C -0.9682(3) -0.7014(3) -0.09144(18)
H30A H -1.0233 -0.7346 -0.1283
Cu1_2 Cu -1.0000 -1.0000 0.0000
Cu1_3 Cu 1.0000 1.0000 0.0000
N6_2 N -0.0652(3) -0.2065(2) 0.02103(14)
N6A_2 N 0.0652(3) 0.2065(2) -0.02103(14)
O4 O 0.1773(3) -0.3637(3) 0.25675(15)
O5 O 0.2603(3) -0.3212(2) 0.36510(15)
O6 O 0.1753(3) -0.5271(3) 0.36972(16)
N7 N 0.2052(3) -0.4048(3) 0.33065(19)
C25 C 0.5036(6) 0.4036(6) 0.2134(3)
O7 O 0.5550(6) 0.2901(6) 0.1837(3)
O8? O 0.3757(9) 0.4247(11) 0.1716(5)
loop_
_geom_bond_atom_site_label_1
_geom_bond_atom_site_label_2
_geom_bond_site_symmetry_1
_geom_bond_site_symmetry_2
Cu1 N1 1_555 1_555
O1 C6 1_555 1_555
N1 C1 1_555 1_555
C1 H1 1_555 1_555
H2 O3 1_555 1_555
H3 O3 1_555 1_555
O2 C19 1_555 1_555
N2 H4 1_555 1_555
C2 C1 1_555 1_555
H5 C2 1_555 1_555
O3 Cu1 1_555 1_555
N3 H6 1_555 1_555
C3 C2 1_555 1_555
H7 C3 1_555 1_555
N4 H8 1_555 1_555
C4 N2 1_555 1_555
N5 H9 1_555 1_555
C5 N1 1_555 1_555
H10 C5 1_555 1_555
N6 C23 1_555 1_555
C6 N2 1_555 1_555
C7 N3 1_555 1_555
C8 C7 1_555 1_555
H11 C8 1_555 1_555
H12 C8 1_555 1_555
H13 C8 1_555 1_555
C9 C7 1_555 1_555
H14 C9 1_555 1_555
H15 C9 1_555 1_555
H16 C9 1_555 1_555
C10 C7 1_555 1_555
C11 C10 1_555 1_555
H17 C11 1_555 1_555
C12 C11 1_555 1_555
H18 C12 1_555 1_555
C13 C12 1_555 1_555
H19 C13 1_555 1_555
C14 C13 1_555 1_555
C15 C10 1_555 1_555
H20 C15 1_555 1_555
C16 N4 1_555 1_555
C17 C16 1_555 1_555
H21 C17 1_555 1_555
H22 C17 1_555 1_555
H23 C17 1_555 1_555
C18 C16 1_555 1_555
H24 C18 1_555 1_555
H25 C18 1_555 1_555
H26 C18 1_555 1_555
C19 N4 1_555 1_555
C20 N5 1_555 1_555
C21 C20 1_555 1_555
H27 C21 1_555 1_555
C22 C21 1_555 1_555
H28 C22 1_555 1_555
C23 C22 1_555 1_555
H29 C23 1_555 1_555
C24 N6 1_555 1_555
H30 C24 1_555 1_555
O4 N7 1_555 1_555
O5 N7 1_555 1_555
O6 N7 1_555 1_555
C25 O7 1_555 1_555
O1A C6A 1_555 1_555
N1A Cu1 1_555 1_555
C1A N1A 1_555 1_555
H1A C1A 1_555 1_555
H2A O3A 1_555 1_555
H3A O3A 1_555 1_555
O2A C19A 1_555 1_555
N2A H4A 1_555 1_555
C2A C1A 1_555 1_555
H5A C2A 1_555 1_555
O3A Cu1 1_555 1_555
N3A H6A 1_555 1_555
C3A C2A 1_555 1_555
H7A C3A 1_555 1_555
N4A H8A 1_555 1_555
C4A N2A 1_555 1_555
N5A H9A 1_555 1_555
C5A N1A 1_555 1_555
H10A C5A 1_555 1_555
N6A C23A 1_555 1_555
C6A N2A 1_555 1_555
C7A N3A 1_555 1_555
C8A C7A 1_555 1_555
H11A C8A 1_555 1_555
H12A C8A 1_555 1_555
H13A C8A 1_555 1_555
C9A C7A 1_555 1_555
H14A C9A 1_555 1_555
H15A C9A 1_555 1_555
H16A C9A 1_555 1_555
C10A C7A 1_555 1_555
C11A C10A 1_555 1_555
H17A C11A 1_555 1_555
C12A C11A 1_555 1_555
H18A C12A 1_555 1_555
C13A C12A 1_555 1_555
H19A C13A 1_555 1_555
C14A C13A 1_555 1_555
C15A C10A 1_555 1_555
H20A C15A 1_555 1_555
C16A N4A 1_555 1_555
C17A C16A 1_555 1_555
H21A C17A 1_555 1_555
H22A C17A 1_555 1_555
H23A C17A 1_555 1_555
C18A C16A 1_555 1_555
H24A C18A 1_555 1_555
H25A C18A 1_555 1_555
H26A C18A 1_555 1_555
C19A N4A 1_555 1_555
C20A N5A 1_555 1_555
C21A C20A 1_555 1_555
H27A C21A 1_555 1_555
C22A C21A 1_555 1_555
H28A C22A 1_555 1_555
C23A C22A 1_555 1_555
H29A C23A 1_555 1_555
C24A N6A 1_555 1_555
H30A C24A 1_555 1_555
Cu1_2 N6A 1_555 1_555
Cu1_3 N6 1_555 1_555
N6_2 Cu1 1_555 1_555
N6A_2 Cu1 1_555 1_555
N3 C6 1_555 1_555
C3 C4 1_555 1_555
C4 C5 1_555 1_555
N5 C19 1_555 1_555
C14 C15 1_555 1_555
C14 C16 1_555 1_555
C20 C24 1_555 1_555
N3A C6A 1_555 1_555
C3A C4A 1_555 1_555
C4A C5A 1_555 1_555
N5A C19A 1_555 1_555
C14A C15A 1_555 1_555
C14A C16A 1_555 1_555
C20A C24A 1_555 1_555

#END
