
#######################################################################
#
#                 Cambridge Crystallographic Data Centre
#                                CCDC 
#
#######################################################################
#
# If this CIF has been generated from an entry in the Cambridge 
# Structural Database, then it will include bibliographic, chemical, 
# crystal, experimental, refinement or atomic coordinate data resulting 
# from the CCDC's data processing and validation procedures.
#
#######################################################################

data_NUTYAD
_symmetry_cell_setting           monoclinic
_symmetry_space_group_name_H-M   'P 21/c'
_symmetry_Int_Tables_number      14
_space_group_name_Hall           '-P 2ybc'
loop_
_symmetry_equiv_pos_site_id
_symmetry_equiv_pos_as_xyz
1 x,y,z
2 -x,1/2+y,1/2-z
3 -x,-y,-z
4 x,1/2-y,1/2+z
_cell_length_a                   7.7510(9)
_cell_length_b                   7.9050(11)
_cell_length_c                   23.169(2)
_cell_angle_alpha                90
_cell_angle_beta                 107.948(8)
_cell_angle_gamma                90
_cell_volume                     1350.52
loop_
_atom_site_label
_atom_site_type_symbol
_atom_site_fract_x
_atom_site_fract_y
_atom_site_fract_z
Cd1 Cd 0.08297(4) 0.18097(4) 0.101480(15)
Fe1 Fe -0.5000 0.5000 0.0000
O1 O -0.0886(5) 0.1320(5) 0.18108(19)
H1 H -0.186(6) 0.073(8) 0.169(3)
H2 H 0.008(6) 0.087(9) 0.204(3)
N1 N -0.1902(6) 0.2412(6) 0.03526(19)
N2 N 0.1244(6) 0.4562(5) 0.14400(19)
H3 H 0.061(9) 0.472(9) 0.167(3)
N3 N 0.0534(6) 0.8973(5) 0.0745(2)
H4 H 0.122(9) 0.880(9) 0.044(3)
H5 H -0.075(10) 0.869(9) 0.049(3)
N4 N -0.6503(8) 0.3550(7) -0.1282(2)
N5 N -0.2736(6) 0.7591(5) -0.0449(2)
N6 N 0.3243(6) 0.1475(6) 0.1909(2)
H6 H 0.416(11) 0.120(10) 0.185(3)
H7 H 0.311(10) 0.056(10) 0.213(3)
C1 C 0.1080(8) 0.7700(6) 0.1240(3)
H8 H 0.0284 0.7801 0.1500
H9 H 0.2342 0.7924 0.1494
C2 C -0.5910(6) 0.4085(6) -0.0806(2)
C3 C -0.3069(7) 0.3389(6) 0.0205(2)
C4 C -0.3556(7) 0.6594(6) -0.0275(2)
C5 C 0.0948(8) 0.5887(6) 0.0980(2)
H10 H -0.0268 0.5731 0.0682
H11 H 0.1855 0.5758 0.0762
C6 C 0.3080(8) 0.4591(7) 0.1886(3)
H12 H 0.3205 0.5603 0.2148
H13 H 0.3995 0.4670 0.1669
C7 C 0.3428(9) 0.3021(7) 0.2276(3)
H14 H 0.4667 0.3074 0.2568
H15 H 0.2558 0.2980 0.2512
Cd1B Cd -1.08297(4) 0.81903(4) -0.101480(15)
Cd1_2 Cd 0.08297(4) 1.18097(4) 0.101480(15)
Cd1B_2 Cd -0.08297(4) 0.81903(4) -0.101480(15)
Cd1_3 Cd -0.91703(4) 0.18097(4) 0.101480(15)
Cd1_4 Cd 0.08297(4) -0.81903(4) 0.101480(15)
O1B O -0.9114(5) 0.8680(5) -0.18108(19)
H1B H -0.814(6) 0.927(8) -0.169(3)
H2B H -1.008(6) 0.913(9) -0.204(3)
N1B N -0.8098(6) 0.7588(6) -0.03526(19)
N2_2 N 0.1244(6) -0.5438(5) 0.14400(19)
N2B N -1.1244(6) 0.5438(5) -0.14400(19)
H3_2 H 0.061(9) -0.528(9) 0.167(3)
H3B H -1.061(9) 0.528(9) -0.167(3)
N3_2 N 0.0534(6) -0.1027(5) 0.0745(2)
N3B N -1.0534(6) 1.1027(5) -0.0745(2)
H4_2 H 0.122(9) -0.120(9) 0.044(3)
H4B H -1.122(9) 1.120(9) -0.044(3)
H5_2 H -0.075(10) -0.131(9) 0.049(3)
H5B H -0.925(10) 1.131(9) -0.049(3)
N4B N -0.3497(8) 0.6450(7) 0.1282(2)
N5B N -0.7264(6) 0.2409(5) 0.0449(2)
N5B_2 N 0.2736(6) 0.2409(5) 0.0449(2)
N5_2 N -1.2736(6) 0.7591(5) -0.0449(2)
N6_2 N 0.3243(6) -0.8525(6) 0.1909(2)
N6B N -1.3243(6) 0.8525(6) -0.1909(2)
H6_2 H 0.416(11) -0.880(10) 0.185(3)
H6B H -1.416(11) 0.880(10) -0.185(3)
H7_2 H 0.311(10) -0.944(10) 0.213(3)
H7B H -1.311(10) 0.944(10) -0.213(3)
C1_2 C 0.1080(8) -0.2300(6) 0.1240(3)
H8_2 H 0.0284 -0.2199 0.1500
H9_2 H 0.2342 -0.2076 0.1494
C2B C -0.4090(6) 0.5915(6) 0.0806(2)
C3B C -0.6931(7) 0.6611(6) -0.0205(2)
C4B C -0.6444(7) 0.3406(6) 0.0275(2)
C5_2 C 0.0948(8) -0.4113(6) 0.0980(2)
H10_2 H -0.0268 -0.4269 0.0682
H11_2 H 0.1855 -0.4242 0.0762
C6_2 C 0.3080(8) -0.5409(7) 0.1886(3)
H12_2 H 0.3205 -0.4397 0.2148
H13_2 H 0.3995 -0.5330 0.1669
C7_2 C 0.3428(9) -0.6979(7) 0.2276(3)
H14_2 H 0.4667 -0.6926 0.2568
H15_2 H 0.2558 -0.7020 0.2512
O2 O 0.5756(6) 0.0026(6) 0.1254(2)
H18 H 0.537(12) 0.042(12) 0.0897(19)
H19 H 0.616(12) -0.092(6) 0.117(4)
O3 O 0.8462(7) 0.4442(6) 0.22742(19)
H16 H 0.846(14) 0.344(5) 0.213(4)
H17 H 0.748(7) 0.487(11) 0.204(3)
loop_
_geom_bond_atom_site_label_1
_geom_bond_atom_site_label_2
_geom_bond_site_symmetry_1
_geom_bond_site_symmetry_2
Cd1 O1 1_555 1_555
Fe1 C2 1_555 1_555
O1 H1 1_555 1_555
H2 O1 1_555 1_555
N1 Cd1 1_555 1_555
N2 Cd1 1_555 1_555
H3 N2 1_555 1_555
N3 H4 1_555 1_555
H5 N3 1_555 1_555
N4 C2 1_555 1_555
N5 C4 1_555 1_555
N6 Cd1 1_555 1_555
H6 N6 1_555 1_555
H7 N6 1_555 1_555
C1 N3 1_555 1_555
H8 C1 1_555 1_555
H9 C1 1_555 1_555
C3 Fe1 1_555 1_555
C4 Fe1 1_555 1_555
C5 N2 1_555 1_555
H10 C5 1_555 1_555
H11 C5 1_555 1_555
C6 N2 1_555 1_555
H12 C6 1_555 1_555
H13 C6 1_555 1_555
C7 N6 1_555 1_555
H14 C7 1_555 1_555
H15 C7 1_555 1_555
O2 H18 1_555 1_555
O3 H16 1_555 1_555
H17 O3 1_555 1_555
H19 O2 1_555 1_555
Cd1B O1B 1_555 1_555
Cd1_2 N3 1_555 1_555
Cd1B_2 N5 1_555 1_555
Cd1_3 N5B 1_555 1_555
Cd1_4 N2_2 1_555 1_555
O1B H1B 1_555 1_555
H2B O1B 1_555 1_555
N1B Cd1B 1_555 1_555
N2_2 H3_2 1_555 1_555
N2B Cd1B 1_555 1_555
H3B N2B 1_555 1_555
N3_2 Cd1 1_555 1_555
N3B Cd1B 1_555 1_555
H4_2 N3_2 1_555 1_555
H4B N3B 1_555 1_555
H5_2 N3_2 1_555 1_555
H5B N3B 1_555 1_555
N4B C2B 1_555 1_555
N5B C4B 1_555 1_555
N5B_2 Cd1 1_555 1_555
N5_2 Cd1B 1_555 1_555
N6_2 Cd1_4 1_555 1_555
N6B Cd1B 1_555 1_555
H6_2 N6_2 1_555 1_555
H6B N6B 1_555 1_555
H7_2 N6_2 1_555 1_555
H7B N6B 1_555 1_555
C1_2 N3_2 1_555 1_555
H8_2 C1_2 1_555 1_555
H9_2 C1_2 1_555 1_555
C2B Fe1 1_555 1_555
C3B Fe1 1_555 1_555
C4B Fe1 1_555 1_555
C5_2 N2_2 1_555 1_555
H10_2 C5_2 1_555 1_555
H11_2 C5_2 1_555 1_555
C6_2 N2_2 1_555 1_555
H12_2 C6_2 1_555 1_555
H13_2 C6_2 1_555 1_555
C7_2 N6_2 1_555 1_555
H14_2 C7_2 1_555 1_555
H15_2 C7_2 1_555 1_555
N1 C3 1_555 1_555
C1 C5 1_555 1_555
C6 C7 1_555 1_555
N1B C3B 1_555 1_555
C1_2 C5_2 1_555 1_555
C6_2 C7_2 1_555 1_555

#END
