
#######################################################################
#
#                 Cambridge Crystallographic Data Centre
#                                CCDC 
#
#######################################################################
#
# If this CIF has been generated from an entry in the Cambridge 
# Structural Database, then it will include bibliographic, chemical, 
# crystal, experimental, refinement or atomic coordinate data resulting 
# from the CCDC's data processing and validation procedures.
#
#######################################################################

data_NUVCIR
_symmetry_cell_setting           monoclinic
_symmetry_space_group_name_H-M   'P n'
_symmetry_Int_Tables_number      7
_space_group_name_Hall           'P -2yac'
loop_
_symmetry_equiv_pos_site_id
_symmetry_equiv_pos_as_xyz
1 x,y,z
2 1/2+x,-y,1/2+z
_cell_length_a                   10.2768(6)
_cell_length_b                   7.1844(4)
_cell_length_c                   16.9426(9)
_cell_angle_alpha                90
_cell_angle_beta                 91.586(5)
_cell_angle_gamma                90
_cell_volume                     1250.44
loop_
_atom_site_label
_atom_site_type_symbol
_atom_site_fract_x
_atom_site_fract_y
_atom_site_fract_z
Cd1 Cd -0.10185(2) -0.14351(4) -0.172945(16)
Cd2 Cd -0.13524(2) -0.62159(4) -0.036360(15)
S1 S 0.33525(10) -0.12645(14) -0.27316(7)
S2 S -0.21160(11) 0.10183(15) -0.43093(6)
S3 S 0.31806(10) -0.61417(15) 0.06052(7)
S4 S -0.20903(11) -0.38244(14) 0.22320(7)
N1 N 0.1009(3) -0.1134(5) -0.2234(2)
N2 N -0.1390(3) -0.0176(5) -0.2945(2)
N3 N 0.2567(4) -0.2111(6) -0.1275(2)
H1 H 0.1980 -0.2249 -0.0911
H2 H 0.3391 -0.2353 -0.1162
N4 N -0.3624(3) 0.0506(5) -0.3065(2)
H3 H -0.3761 0.0221 -0.2569
H4 H -0.4276 0.0882 -0.3373
N5 N 0.0782(3) -0.6106(4) 0.0147(2)
N6 N -0.1521(3) -0.5063(5) 0.0867(2)
N7 N 0.2209(4) -0.7235(6) -0.0808(2)
H5 H 0.1575 -0.7449 -0.1155
H6 H 0.3020 -0.7483 -0.0926
N8 N -0.3746(4) -0.4418(5) 0.1001(2)
H7 H -0.3946 -0.4744 0.0512
H8 H -0.4359 -0.4029 0.1314
N9 N -0.3814(3) -0.7467(5) -0.0957(2)
N10 N -0.3526(3) -0.2755(5) -0.1054(2)
N11 N -0.0369(3) -0.5470(5) -0.2073(2)
N12 N -0.0425(3) -0.0366(4) -0.0102(2)
O1 O -0.4873(3) -0.7996(5) -0.1234(2)
O2 O -0.3569(3) -0.7467(4) -0.02233(18)
O3 O -0.2925(3) -0.6905(5) -0.1402(2)
O4 O -0.2603(3) -0.3013(4) -0.05582(19)
O5 O -0.3241(3) -0.1963(5) -0.1705(2)
O6 O -0.4640(3) -0.3238(5) -0.0923(2)
O7 O -0.0508(3) -0.4668(4) -0.27187(18)
O8 O -0.0600(3) -0.4556(4) -0.14443(17)
O9 O 0.0022(3) -0.7093(4) -0.2018(2)
O10 O -0.0480(3) 0.0233(4) 0.05764(17)
O11 O 0.0099(3) -0.1861(4) -0.0268(2)
O12 O -0.0941(3) 0.0602(4) -0.06780(17)
C1 C 0.2205(4) -0.1530(5) -0.2005(3)
C2 C 0.0971(4) -0.0605(5) -0.3035(2)
C3 C 0.2118(4) -0.0620(6) -0.3390(3)
H9 H 0.2237 -0.0318 -0.3929
C4 C -0.2440(4) 0.0369(5) -0.3347(2)
C5 C -0.0487(4) 0.0510(6) -0.4143(3)
H10 H 0.0168 0.0630 -0.4524
C6 C -0.0281(4) -0.0083(5) -0.3396(3)
C7 C 0.1938(4) -0.6525(5) -0.0091(2)
C8 C 0.2038(4) -0.5411(6) 0.1262(3)
H11 H 0.2232 -0.5020 0.1788
C9 C 0.0832(4) -0.5467(5) 0.0930(2)
C10 C -0.2512(4) -0.4514(6) 0.1268(2)
C11 C -0.0486(5) -0.4302(6) 0.2048(3)
H12 H 0.0214 -0.4153 0.2421
C12 C -0.0358(4) -0.4919(5) 0.1300(2)
Cd2_2 Cd -0.13524(2) 0.37841(4) -0.036360(15)
O12_2 O -0.0941(3) -0.9398(4) -0.06780(17)
loop_
_geom_bond_atom_site_label_1
_geom_bond_atom_site_label_2
_geom_bond_site_symmetry_1
_geom_bond_site_symmetry_2
Cd1 N1 1_555 1_555
Cd2 N5 1_555 1_555
S1 C1 1_555 1_555
S2 C4 1_555 1_555
S3 C7 1_555 1_555
S4 C10 1_555 1_555
N1 C1 1_555 1_555
N2 Cd1 1_555 1_555
N3 H1 1_555 1_555
H2 N3 1_555 1_555
N4 H3 1_555 1_555
H4 N4 1_555 1_555
N5 C7 1_555 1_555
N6 Cd2 1_555 1_555
N7 H5 1_555 1_555
H6 N7 1_555 1_555
N8 H7 1_555 1_555
H8 N8 1_555 1_555
N9 O1 1_555 1_555
N10 O4 1_555 1_555
N11 O7 1_555 1_555
N12 O10 1_555 1_555
O2 Cd2 1_555 1_555
O3 Cd2 1_555 1_555
O4 Cd1 1_555 1_555
O5 Cd1 1_555 1_555
O6 N10 1_555 1_555
O7 Cd1 1_555 1_555
O8 Cd1 1_555 1_555
O9 N11 1_555 1_555
O11 Cd1 1_555 1_555
O12 Cd1 1_555 1_555
C1 N3 1_555 1_555
C2 N1 1_555 1_555
C3 S1 1_555 1_555
H9 C3 1_555 1_555
C4 N2 1_555 1_555
C5 S2 1_555 1_555
H10 C5 1_555 1_555
C6 N2 1_555 1_555
C7 N7 1_555 1_555
C8 S3 1_555 1_555
H11 C8 1_555 1_555
C9 N5 1_555 1_555
C10 N6 1_555 1_555
C11 S4 1_555 1_555
H12 C11 1_555 1_555
C12 N6 1_555 1_555
Cd2_2 O12 1_555 1_555
O12_2 Cd2 1_555 1_555
Cd2 O4 1_555 1_555
Cd2 O8 1_555 1_555
N4 C4 1_555 1_555
N8 C10 1_555 1_555
N9 O2 1_555 1_555
N9 O3 1_555 1_555
N10 O5 1_555 1_555
N11 O8 1_555 1_555
N12 O11 1_555 1_555
N12 O12 1_555 1_555
C2 C3 1_555 1_555
C2 C6 1_555 1_555
C5 C6 1_555 1_555
C8 C9 1_555 1_555
C9 C12 1_555 1_555
C11 C12 1_555 1_555

#END
