
#######################################################################
#
#                 Cambridge Crystallographic Data Centre
#                                CCDC 
#
#######################################################################
#
# If this CIF has been generated from an entry in the Cambridge 
# Structural Database, then it will include bibliographic, chemical, 
# crystal, experimental, refinement or atomic coordinate data resulting 
# from the CCDC's data processing and validation procedures.
#
#######################################################################

data_NUVDUE
_symmetry_cell_setting           trigonal
_symmetry_space_group_name_H-M   'P 32 2 1'
_symmetry_Int_Tables_number      154
_space_group_name_Hall           'P 32 2"'
loop_
_symmetry_equiv_pos_site_id
_symmetry_equiv_pos_as_xyz
1 x,y,z
2 -y,x-y,2/3+z
3 -x+y,-x,1/3+z
4 x-y,-y,1/3-z
5 -x,-x+y,2/3-z
6 y,x,-z
_cell_length_a                   8.674(5)
_cell_length_b                   8.674(5)
_cell_length_c                   9.796(6)
_cell_angle_alpha                90
_cell_angle_beta                 90
_cell_angle_gamma                120
_cell_volume                     638.29
loop_
_atom_site_label
_atom_site_type_symbol
_atom_site_fract_x
_atom_site_fract_y
_atom_site_fract_z
Eu1 Eu 0.77540(4) 0.0000 0.1667
O1 O 1.0000 0.2443(3) 0.3333
H1 H 0.9281 0.2825 0.3466
O2 O 0.5357 -0.2909(3) 0.2314
N1 N 0.8077 -0.1278(3) 0.4005
O3 O 0.3996 -0.5343(3) 0.3583
N2 N 0.9283 -0.0717(3) 0.5000
C1 C 0.5220 -0.3811(3) 0.3369
C2 C 0.6719 -0.2872(3) 0.4363
Eu1A Eu 1.0000 -0.22460(4) 0.8334
Eu1B Eu 0.22460(4) -0.77540(4) 0.5000
Eu1B_2 Eu 1.22460(4) 0.22460(4) 0.5000
O1A O 0.7557(3) -0.2443(3) -0.0000
H1D H 1.0719 0.3544 0.3201
H1A H 0.7175 -0.3544 0.0133
H1C H 0.6456 -0.2825 -0.0133
O2E O 0.7091(3) -0.4643 0.7686
O2C O 0.8266(3) 0.2909(3) 0.1019
N1E N 0.8722(3) -0.1923 0.5995
N1C N 0.9355(3) 0.1278(3) -0.0672
O3E O 0.4657(3) -0.6004 0.6417
O3A O 0.5343(3) -0.0661(3) 0.0250
O3D O 0.6004 0.0661(3) 0.3084
N2A N 1.0717(3) 0.0000(3) 0.1667
C1E C 0.6189(3) -0.4780 0.6631
C2E C 0.7128(3) -0.3281 0.5637
O4 O 0.2983 -0.5131(3) 0.0761
H2 H 0.3839 -0.4709 0.1330
H3 H 0.2527 -0.4462 0.0769
loop_
_geom_bond_atom_site_label_1
_geom_bond_atom_site_label_2
_geom_bond_site_symmetry_1
_geom_bond_site_symmetry_2
Eu1 O1 1_555 1_555
O1 H1 1_555 1_555
O2 Eu1 1_555 1_555
N1 Eu1 1_555 1_555
O3 C1 1_555 1_555
N2 N1 1_555 1_555
C1 O2 1_555 1_555
C2 N1 1_555 1_555
O4 H2 1_555 1_555
H3 O4 1_555 1_555
Eu1A O2E 1_555 1_555
Eu1B O3 1_555 1_555
Eu1B_2 O1 1_555 1_555
O1A Eu1 1_555 1_555
H1D O1 1_555 1_555
H1A O1A 1_555 1_555
H1C O1A 1_555 1_555
O2E C1E 1_555 1_555
O2C Eu1 1_555 1_555
N1E N2 1_555 1_555
N1C Eu1 1_555 1_555
O3E Eu1B 1_555 1_555
O3A Eu1 1_555 1_555
O3D Eu1 1_555 1_555
N2A Eu1 1_555 1_555
C1E O3E 1_555 1_555
C2E C2 1_555 1_555
N2 Eu1B_2 1_555 1_555
C1 C2 1_555 1_555
Eu1A N1E 1_555 1_555
N1E C2E 1_555 1_555
C1E C2E 1_555 1_555

#END
