
#######################################################################
#
#                 Cambridge Crystallographic Data Centre
#                                CCDC 
#
#######################################################################
#
# If this CIF has been generated from an entry in the Cambridge 
# Structural Database, then it will include bibliographic, chemical, 
# crystal, experimental, refinement or atomic coordinate data resulting 
# from the CCDC's data processing and validation procedures.
#
#######################################################################

data_NUVDAJ
_symmetry_cell_setting           triclinic
_symmetry_space_group_name_H-M   'P -1'
_symmetry_Int_Tables_number      2
_space_group_name_Hall           '-P 1'
loop_
_symmetry_equiv_pos_site_id
_symmetry_equiv_pos_as_xyz
1 x,y,z
2 -x,-y,-z
_cell_length_a                   8.5651(11)
_cell_length_b                   9.0471(8)
_cell_length_c                   12.1586(9)
_cell_angle_alpha                78.041(7)
_cell_angle_beta                 69.321(8)
_cell_angle_gamma                62.552(10)
_cell_volume                     781.114
loop_
_atom_site_label
_atom_site_type_symbol
_atom_site_fract_x
_atom_site_fract_y
_atom_site_fract_z
C1 C -0.0028(6) 0.0173(6) 0.2569(4)
C2 C 0.1429(6) -0.3042(6) 0.1752(4)
C3 C -0.0763(6) -0.2149(6) 0.4040(4)
C4 C 0.2886(6) -0.2616(6) 0.3154(4)
C5 C -0.1349(6) -0.0323(6) 0.3628(4)
C6 C 0.3119(6) -0.3489(1) 0.2118(4)
C7 C -0.0885(6) 0.2075(6) 0.2310(5)
C8 C 0.1917(7) -0.4051(6) 0.0722(5)
C9 C -0.2282(8) -0.2350(7) 0.5107(5)
C10 C 0.4728(7) -0.3271(8) 0.3413(5)
Cu1 Cu 0.4015(1) 0.0364(1) 0.1275(1)
Cu2 Cu -0.2165(1) 0.0007(1) 0.0619(1)
Cl1 Cl 0.5240(2) 0.1879(2) 0.1808(1)
Cl2 Cl 0.3034(2) 0.1946(1) -0.0355(1)
S1 S 0.2126(1) -0.0354(1) 0.2851(1)
S2 S 0.0460(1) -0.0829(1) 0.1241(1)
S3 S -0.0385(2) -0.3439(2) 0.2920(1)
S4 S 0.1291(2) -0.2963(2) 0.4509(1)
Cl1_2 Cl -0.4760(2) 0.1879(2) 0.1808(1)
Cu1_2 Cu -0.5985(1) 0.0364(1) 0.1275(1)
Cl2_2 Cl -0.6966(2) 0.1946(1) -0.0355(1)
Cu1A Cu -0.4015(1) -0.0364(1) -0.1275(1)
Cl1A Cl -0.5240(2) -0.1879(2) -0.1808(1)
Cu2A Cu -0.7835(1) -0.0007(1) -0.0619(1)
Cl2A Cl -0.3034(2) -0.1946(1) 0.0355(1)
S1A S -0.2126(1) 0.0354(1) -0.2851(1)
C1A C 0.0028(6) -0.0173(6) -0.2569(4)
C5A C 0.1349(6) 0.0323(6) -0.3628(4)
C3A C 0.0763(6) 0.2149(6) -0.4040(4)
C9A C 0.2282(8) 0.2350(7) -0.5107(5)
S3A S 0.0385(2) 0.3439(2) -0.2920(1)
C2A C -0.1429(6) 0.3042(6) -0.1752(4)
C6A C -0.3119(6) 0.3489(1) -0.2118(4)
C4A C -0.2886(6) 0.2616(6) -0.3154(4)
C10A C -0.4728(7) 0.3271(8) -0.3413(5)
S4A S -0.1291(2) 0.2963(2) -0.4509(1)
C8A C -0.1917(7) 0.4051(6) -0.0722(5)
S2A S -0.0460(1) 0.0829(1) -0.1241(1)
C7A C 0.0885(6) -0.2075(6) -0.2310(5)
Cu2A_2 Cu 0.2165(1) -0.0007(1) -0.0619(1)
Cl2A_2 Cl 0.6966(2) -0.1946(1) 0.0355(1)
Cu1A_2 Cu 0.5985(1) -0.0364(1) -0.1275(1)
Cl1A_2 Cl 0.4760(2) -0.1879(2) -0.1808(1)
loop_
_geom_bond_atom_site_label_1
_geom_bond_atom_site_label_2
_geom_bond_site_symmetry_1
_geom_bond_site_symmetry_2
C1 C5 1_555 1_555
C2 C6 1_555 1_555
C3 C5 1_555 1_555
C4 C6 1_555 1_555
C7 C1 1_555 1_555
C8 C2 1_555 1_555
C9 C3 1_555 1_555
C10 C4 1_555 1_555
Cu1 Cl1 1_555 1_555
Cu2 S2 1_555 1_555
Cl2 Cu1 1_555 1_555
S1 C1 1_555 1_555
S2 C1 1_555 1_555
S3 C2 1_555 1_555
S4 C3 1_555 1_555
Cl1_2 Cu2 1_555 1_555
Cu1_2 Cl1_2 1_555 1_555
Cl2_2 Cu1_2 1_555 1_555
Cu1A Cl2_2 1_555 1_555
Cl1A Cu1A 1_555 1_555
Cu2A Cl2_2 1_555 1_555
Cl2A Cu2 1_555 1_555
S1A Cu1A 1_555 1_555
C1A S1A 1_555 1_555
C5A C1A 1_555 1_555
C3A C5A 1_555 1_555
C9A C3A 1_555 1_555
S3A C3A 1_555 1_555
C2A S3A 1_555 1_555
C6A C2A 1_555 1_555
C4A S1A 1_555 1_555
C10A C4A 1_555 1_555
S4A C3A 1_555 1_555
C8A C2A 1_555 1_555
S2A Cu2 1_555 1_555
C7A C1A 1_555 1_555
Cu2A_2 Cl2 1_555 1_555
Cl2A_2 Cu1 1_555 1_555
Cu1A_2 Cl2 1_555 1_555
Cl1A_2 Cu2A_2 1_555 1_555
C2 S2 1_555 1_555
C3 S3 1_555 1_555
C4 S1 1_555 1_555
C4 S4 1_555 1_555
Cu1 S1 1_555 1_555
S2 Cu2A_2 1_555 1_555
Cu1_2 Cl2A 1_555 1_555
Cu1A Cl2A 1_555 1_555
Cl1A Cu2A 1_555 1_555
C1A S2A 1_555 1_555
C2A S2A 1_555 1_555
C6A C4A 1_555 1_555
C4A S4A 1_555 1_555
S2A Cu2A_2 1_555 1_555
Cl2A_2 Cu1A_2 1_555 1_555
Cu1A_2 Cl1A_2 1_555 1_555

#END
