
#######################################################################
#
#                 Cambridge Crystallographic Data Centre
#                                CCDC 
#
#######################################################################
#
# If this CIF has been generated from an entry in the Cambridge 
# Structural Database, then it will include bibliographic, chemical, 
# crystal, experimental, refinement or atomic coordinate data resulting 
# from the CCDC's data processing and validation procedures.
#
#######################################################################

data_NUVDOY
_symmetry_cell_setting           trigonal
_symmetry_space_group_name_H-M   'P 32 2 1'
_symmetry_Int_Tables_number      154
_space_group_name_Hall           'P 32 2"'
loop_
_symmetry_equiv_pos_site_id
_symmetry_equiv_pos_as_xyz
1 x,y,z
2 -y,x-y,2/3+z
3 -x+y,-x,1/3+z
4 x-y,-y,1/3-z
5 -x,-x+y,2/3-z
6 y,x,-z
_cell_length_a                   8.712(8)
_cell_length_b                   8.712(8)
_cell_length_c                   9.818(9)
_cell_angle_alpha                90
_cell_angle_beta                 90
_cell_angle_gamma                120
_cell_volume                     645.341
loop_
_atom_site_label
_atom_site_type_symbol
_atom_site_fract_x
_atom_site_fract_y
_atom_site_fract_z
Sm1 Sm 0.77509(5) 0.0000 0.6667
O1 O 1.0000 0.2459(9) 0.8333
H1 H 1.0689 0.3375 0.7873
C1 C 0.6725(9) -0.2872(9) 0.9364(7)
O2 O 0.4010(7) -0.5338(7) 0.8584(5)
O3 O 0.5349(7) -0.2899(8) 0.7331(5)
C2 C 0.5244(10) -0.3791(10) 0.8368(7)
N1 N 0.8073(7) -0.1280(8) 0.9002(6)
N2 N 0.9293(9) -0.0707(9) 1.0000
Sm1A Sm 1.0000 -0.22491(5) 1.3334
Sm1B Sm 0.22491(5) -0.77509(5) 1.0000
Sm1B_2 Sm 1.22491(5) 0.22491(5) 1.0000
O1A O 0.7541(9) -0.2459(9) 0.5000
H1D H 0.9311 0.2686 0.8794
H1A H 0.6625 -0.2686 0.4540
H1C H 0.7314 -0.3375 0.5460
C1E C 0.7128(9) -0.3275(9) 1.0636(7)
O2E O 0.4662(7) -0.5990(7) 1.1416(5)
O2A O 0.5338(7) -0.0652(10) 0.5251(5)
O2D O 0.5990(7) 0.0652(10) 0.8083(5)
O3E O 0.7101(8) -0.4651(7) 1.2669(5)
O3C O 0.8248(11) 0.2899(8) 0.6002(5)
C2E C 0.6209(10) -0.4756(10) 1.1632(7)
N1E N 0.8720(8) -0.1927(7) 1.0998(6)
N1C N 0.9353(11) 0.1280(8) 0.4331(6)
N2A N 1.0707(9) 0.0000(13) 0.6667
O4 O 1.301(7) 0.496(7) 0.589(6)
H2 H 1.2712 0.5596 0.6354
H3 H 1.3691 0.4642 0.5527
loop_
_geom_bond_atom_site_label_1
_geom_bond_atom_site_label_2
_geom_bond_site_symmetry_1
_geom_bond_site_symmetry_2
Sm1 O1 1_555 1_555
O1 H1 1_555 1_555
C1 C2 1_555 1_555
O2 C2 1_555 1_555
O3 Sm1 1_555 1_555
C2 O3 1_555 1_555
N1 Sm1 1_555 1_555
N2 N1 1_555 1_555
O4 H2 1_555 1_555
H3 O4 1_555 1_555
Sm1A O3E 1_555 1_555
Sm1B O2 1_555 1_555
Sm1B_2 O1 1_555 1_555
O1A Sm1 1_555 1_555
H1D O1 1_555 1_555
H1A O1A 1_555 1_555
H1C O1A 1_555 1_555
C1E C1 1_555 1_555
O2E Sm1B 1_555 1_555
O2A Sm1 1_555 1_555
O2D Sm1 1_555 1_555
O3E C2E 1_555 1_555
O3C Sm1 1_555 1_555
C2E C1E 1_555 1_555
N1E N2 1_555 1_555
N1C Sm1 1_555 1_555
N2A Sm1 1_555 1_555
C1 N1 1_555 1_555
N2 Sm1B_2 1_555 1_555
Sm1A N1E 1_555 1_555
C1E N1E 1_555 1_555
O2E C2E 1_555 1_555

#END
