
#######################################################################
#
#                 Cambridge Crystallographic Data Centre
#                                CCDC 
#
#######################################################################
#
# If this CIF has been generated from an entry in the Cambridge 
# Structural Database, then it will include bibliographic, chemical, 
# crystal, experimental, refinement or atomic coordinate data resulting 
# from the CCDC's data processing and validation procedures.
#
#######################################################################

data_NUVLOG
_symmetry_cell_setting           monoclinic
_symmetry_space_group_name_H-M   'P 21'
_symmetry_Int_Tables_number      4
_space_group_name_Hall           'P 2yb'
loop_
_symmetry_equiv_pos_site_id
_symmetry_equiv_pos_as_xyz
1 x,y,z
2 -x,1/2+y,-z
_cell_length_a                   8.484(3)
_cell_length_b                   10.491(3)
_cell_length_c                   10.187(3)
_cell_angle_alpha                90
_cell_angle_beta                 93.552(7)
_cell_angle_gamma                90
_cell_volume                     904.959
loop_
_atom_site_label
_atom_site_type_symbol
_atom_site_fract_x
_atom_site_fract_y
_atom_site_fract_z
Zn1 Zn 0.84989(17) 0.38720(14) 0.27171(17)
Zn2 Zn 0.96329(17) 0.46190(13) 0.80901(16)
Zn3 Zn 0.40742(17) 0.61420(14) 0.45795(18)
O1 O 0.7051(10) 0.5320(9) 0.3234(10)
O2 O 0.6186(10) 0.7049(9) 0.4179(10)
O3 O 1.0193(10) 0.7033(9) 0.7623(10)
O4 O 0.8617(10) 0.5644(8) 0.6649(10)
O5 O 1.1356(11) 0.7948(8) 0.1691(10)
O6 O 1.2588(10) 0.7468(8) 0.3606(9)
O7 O 0.9450(10) 0.4959(8) -0.0032(10)
O8 O 1.0286(10) 0.4883(8) 0.2033(9)
O9 O 0.7951(10) 0.0125(8) 0.4285(9)
O10 O 0.8137(10) -0.0668(8) 0.2256(10)
O11 O 0.6721(12) 0.2882(9) 0.1839(11)
O12 O 0.6125(11) 0.2444(9) 0.3854(11)
N1 N 1.0441(12) 0.8502(10) 0.5504(13)
N2 N 1.3547(13) 0.5229(10) 0.2771(12)
N3 N 0.4851(12) -0.0192(11) 0.4192(11)
C1 C 0.7293(15) 0.6370(13) 0.3848(15)
C2 C 0.8910(15) 0.6822(14) 0.4171(15)
C3 C 0.9151(15) 0.7551(12) 0.5488(15)
C4 C 0.9364(15) 0.6700(13) 0.6657(15)
C5 C 1.2284(14) 0.7263(12) 0.2439(14)
C6 C 1.3088(14) 0.6164(13) 0.1777(13)
C7 C 1.2117(14) 0.5672(13) 0.0558(15)
C8 C 1.0490(14) 0.5136(13) 0.0868(15)
C9 C 0.7389(14) -0.0256(13) 0.3198(14)
C10 C 0.5599(14) -0.0202(14) 0.2959(15)
C11 C 0.5169(15) 0.1042(14) 0.2144(15)
C12 C 0.6035(15) 0.2184(14) 0.2666(16)
H1 H 0.92220 0.73870 0.34530
H2 H 1.00390 0.92520 0.51570
H3 H 1.11940 0.82180 0.49610
H4 H 0.96290 0.60780 0.41980
H5 H 1.44180 0.47880 0.25260
H6 H 1.27380 0.46560 0.28540
H7 H 0.81560 0.80410 0.55950
H8 H 0.49320 -0.09850 0.45760
H9 H 0.37960 0.00000 0.40470
H10 H 1.40900 0.65130 0.14540
H11 H 1.27240 0.49960 0.01370
H12 H 1.19610 0.63790 -0.00810
H13 H 0.52330 -0.09650 0.24380
H14 H 0.54190 0.09060 0.12180
H15 H 0.40190 0.11990 0.21580
Zn1A Zn 1.15011(17) 0.88720(14) 0.72829(17)
Zn2A Zn 1.03671(17) 0.96190(13) 0.19099(16)
Zn2_2 Zn 0.96329(17) 0.46190(13) -0.19099(16)
Zn2A_2 Zn 1.03671(17) -0.03810(13) 0.19099(16)
Zn3_2 Zn 1.40742(17) 0.61420(14) 0.45795(18)
Zn3A Zn 0.59258(17) 0.11420(14) 0.54205(18)
O3A O 0.9807(10) 0.2033(9) 0.2377(10)
O5A O 0.8644(11) 0.2948(8) 0.8309(10)
O6_2 O 0.2588(10) 0.7468(8) 0.3606(9)
O7_2 O 0.9450(10) 0.4959(8) 0.9968(10)
O9A O 0.2049(10) 0.5125(8) 0.5715(9)
O10A O 1.1863(10) 0.4332(8) 0.7744(10)
O12A O 0.3875(11) 0.7444(9) 0.6146(11)
N1A N 0.9559(12) 0.3502(10) 0.4496(13)
N2_2 N 0.3547(13) 0.5229(10) 0.2771(12)
N3A N 0.5149(12) 0.4808(11) 0.5808(11)
H2A H 0.99610 0.42520 0.48430
H3A H 0.88060 0.32180 0.50390
H5_2 H 0.44180 0.47880 0.25260
H6_2 H 0.27380 0.46560 0.28540
H8A H 0.50680 0.40150 0.54240
H9A H 0.62040 0.50000 0.59530
O13 O 0.307(3) 0.223(2) 0.956(2)
O14? O 0.227(9) 0.248(7) 1.024(8)
loop_
_geom_bond_atom_site_label_1
_geom_bond_atom_site_label_2
_geom_bond_site_symmetry_1
_geom_bond_site_symmetry_2
Zn1 O1 1_555 1_555
Zn2 O4 1_555 1_555
Zn3 O2 1_555 1_555
O1 C1 1_555 1_555
O2 C1 1_555 1_555
O3 C4 1_555 1_555
O4 C4 1_555 1_555
O5 C5 1_555 1_555
O6 C5 1_555 1_555
O7 C8 1_555 1_555
O8 Zn1 1_555 1_555
O9 C9 1_555 1_555
O10 C9 1_555 1_555
O11 Zn1 1_555 1_555
O12 C12 1_555 1_555
N1 C3 1_555 1_555
N2 C6 1_555 1_555
N3 C10 1_555 1_555
C1 C2 1_555 1_555
C2 C3 1_555 1_555
C3 C4 1_555 1_555
C5 C6 1_555 1_555
C6 C7 1_555 1_555
C7 C8 1_555 1_555
C8 O8 1_555 1_555
C9 C10 1_555 1_555
C10 C11 1_555 1_555
C11 C12 1_555 1_555
C12 O11 1_555 1_555
H1 C2 1_555 1_555
H2 N1 1_555 1_555
H3 N1 1_555 1_555
H4 C2 1_555 1_555
H5 N2 1_555 1_555
H6 N2 1_555 1_555
H7 C3 1_555 1_555
H8 N3 1_555 1_555
H9 N3 1_555 1_555
H10 C6 1_555 1_555
H11 C7 1_555 1_555
H12 C7 1_555 1_555
H13 C10 1_555 1_555
H14 C11 1_555 1_555
H15 C11 1_555 1_555
Zn1A O3 1_555 1_555
Zn2A O5 1_555 1_555
Zn2_2 O7 1_555 1_555
Zn2A_2 O10 1_555 1_555
Zn3_2 O6 1_555 1_555
Zn3A O9 1_555 1_555
O3A Zn1 1_555 1_555
O5A Zn2 1_555 1_555
O6_2 Zn3 1_555 1_555
O7_2 Zn2 1_555 1_555
O9A Zn3 1_555 1_555
O10A Zn2 1_555 1_555
O12A Zn3 1_555 1_555
N1A Zn1 1_555 1_555
N2_2 Zn3 1_555 1_555
N3A Zn3 1_555 1_555
H2A N1A 1_555 1_555
H3A N1A 1_555 1_555
H5_2 N2_2 1_555 1_555
H6_2 N2_2 1_555 1_555
H8A N3A 1_555 1_555
H9A N3A 1_555 1_555
O12 Zn3A 1_555 1_555
N1 Zn1A 1_555 1_555
N2 Zn3_2 1_555 1_555
N3 Zn3A 1_555 1_555

#END
