
#######################################################################
#
#                 Cambridge Crystallographic Data Centre
#                                CCDC 
#
#######################################################################
#
# If this CIF has been generated from an entry in the Cambridge 
# Structural Database, then it will include bibliographic, chemical, 
# crystal, experimental, refinement or atomic coordinate data resulting 
# from the CCDC's data processing and validation procedures.
#
#######################################################################

data_NUVVIK
_symmetry_cell_setting           trigonal
_symmetry_space_group_name_H-M   'P 31'
_symmetry_Int_Tables_number      144
_space_group_name_Hall           'P 31'
loop_
_symmetry_equiv_pos_site_id
_symmetry_equiv_pos_as_xyz
1 x,y,z
2 -y,x-y,1/3+z
3 -x+y,-x,2/3+z
_cell_length_a                   8.6449(4)
_cell_length_b                   8.6449(4)
_cell_length_c                   16.5629(11)
_cell_angle_alpha                90
_cell_angle_beta                 90
_cell_angle_gamma                120
_cell_volume                     1071.98
loop_
_atom_site_label
_atom_site_type_symbol
_atom_site_fract_x
_atom_site_fract_y
_atom_site_fract_z
Cu1 Cu 0.20520(3) 1.27153(3) 0.406808(15)
O1 O -0.5056(2) 0.4128(2) 0.47421(12)
O3 O 0.1986(2) 1.4975(2) 0.39485(12)
O4 O 0.3154(2) 1.2547(2) 0.30550(11)
N1 N -0.1539(2) 0.7153(2) 0.45605(13)
H1 H -0.0918 0.6979 0.4959
C1 C -0.4382(3) 0.5539(3) 0.53205(18)
H2 H -0.3823 0.5257 0.5760
H3 H -0.5366 0.5642 0.5542
C2 C -0.3037(3) 0.7300(3) 0.49473(16)
H4 H -0.3621 0.7645 0.4544
H5 H -0.2556 0.8218 0.5361
C3 C -0.2275(3) 0.5580(3) 0.40142(16)
H6 H -0.1309 0.5425 0.3812
H7 H -0.2848 0.5786 0.3556
C4 C -0.3605(3) 0.3916(3) 0.44462(18)
H8 H -0.4064 0.2906 0.4080
H9 H -0.3028 0.3683 0.4894
C5 C -0.0262(3) 0.8847(3) 0.41143(16)
H10 H 0.0533 0.8623 0.3784
H11 H -0.0936 0.9181 0.3758
C6 C 0.0828(3) 1.0363(3) 0.46814(17)
H12 H 0.1924 1.0533 0.4857
C7 C 0.0272(3) 1.1518(3) 0.49527(18)
H13 H -0.0819 1.1372 0.4784
H14 H 0.0989 1.2441 0.5304
H17 H 0.1990 1.5439 0.4467
H18 H 0.2999 1.5811 0.3652
H19 H 0.4186 1.2463 0.3177
H20 H 0.3495 1.3586 0.2739
Cu1_2 Cu -0.79480(3) 0.27153(3) 0.406808(15)
O1_2 O 0.4944(2) 1.4128(2) 0.47421(12)
Si1 Si 0.41428(7) 0.47224(8) 0.96199(4)
F1 F 0.5486(4) 0.6856(3) 0.97858(18)
F2 F 0.3908(3) 0.5004(3) 0.86358(12)
F3 F 0.2384(2) 0.4960(2) 0.98602(11)
F4 F 0.2737(3) 0.2567(2) 0.94359(13)
F5 F 0.4235(2) 0.4287(3) 1.05875(12)
F6 F 0.5868(2) 0.4507(3) 0.93917(13)
O2 O 0.5232(3) 1.5241(3) 0.21095(14)
H15 H 0.6105 1.6146 0.2434
H16 H 0.4670 1.5781 0.1784
loop_
_geom_bond_atom_site_label_1
_geom_bond_atom_site_label_2
_geom_bond_site_symmetry_1
_geom_bond_site_symmetry_2
Cu1 O3 1_555 1_555
Si1 F1 1_555 1_555
F2 Si1 1_555 1_555
F3 Si1 1_555 1_555
F4 Si1 1_555 1_555
F5 Si1 1_555 1_555
F6 Si1 1_555 1_555
O1 C1 1_555 1_555
O2 H15 1_555 1_555
O3 H17 1_555 1_555
O4 Cu1 1_555 1_555
N1 H1 1_555 1_555
C1 H2 1_555 1_555
H3 C1 1_555 1_555
C2 N1 1_555 1_555
H4 C2 1_555 1_555
H5 C2 1_555 1_555
C3 N1 1_555 1_555
H6 C3 1_555 1_555
H7 C3 1_555 1_555
C4 O1 1_555 1_555
H8 C4 1_555 1_555
H9 C4 1_555 1_555
C5 N1 1_555 1_555
H10 C5 1_555 1_555
H11 C5 1_555 1_555
C6 Cu1 1_555 1_555
H12 C6 1_555 1_555
C7 Cu1 1_555 1_555
H13 C7 1_555 1_555
H14 C7 1_555 1_555
H16 O2 1_555 1_555
H18 O3 1_555 1_555
H19 O4 1_555 1_555
H20 O4 1_555 1_555
Cu1_2 O1 1_555 1_555
O1_2 Cu1 1_555 1_555
C1 C2 1_555 1_555
C3 C4 1_555 1_555
C5 C6 1_555 1_555
C6 C7 1_555 1_555

#END
