
#######################################################################
#
#                 Cambridge Crystallographic Data Centre
#                                CCDC 
#
#######################################################################
#
# If this CIF has been generated from an entry in the Cambridge 
# Structural Database, then it will include bibliographic, chemical, 
# crystal, experimental, refinement or atomic coordinate data resulting 
# from the CCDC's data processing and validation procedures.
#
#######################################################################

data_NUVZIO
_symmetry_cell_setting           monoclinic
_symmetry_space_group_name_H-M   'C 2/c'
_symmetry_Int_Tables_number      15
_space_group_name_Hall           '-C 2yn'
loop_
_symmetry_equiv_pos_site_id
_symmetry_equiv_pos_as_xyz
1 x,y,z
2 -x,y,1/2-z
3 1/2+x,1/2+y,z
4 1/2-x,1/2+y,1/2-z
5 -x,-y,-z
6 x,-y,1/2+z
7 1/2-x,1/2-y,-z
8 1/2+x,1/2-y,1/2+z
_cell_length_a                   29.090(4)
_cell_length_b                   9.1837(11)
_cell_length_c                   21.114(3)
_cell_angle_alpha                90
_cell_angle_beta                 127.7640(10)
_cell_angle_gamma                90
_cell_volume                     4459.19
loop_
_atom_site_label
_atom_site_type_symbol
_atom_site_fract_x
_atom_site_fract_y
_atom_site_fract_z
Cu1 Cu 0.250188(14) -0.21747(4) 0.28985(2)
Cu2 Cu 0.2500 -0.7500 0.0000
C1 C 0.37651(14) -0.2647(4) 0.4143(2)
H1 H 0.3686 -0.3553 0.3899
C2 C 0.43302(14) -0.2356(4) 0.4799(2)
H2 H 0.4620 -0.3052 0.4991
C3 C 0.44590(12) -0.0997(3) 0.51684(17)
C4 C 0.39940(12) -0.0033(3) 0.48643(17)
H3 H 0.4056 0.0871 0.5104
C5 C 0.34498(12) -0.0427(3) 0.42143(17)
H4 H 0.3148 0.0231 0.4022
C6 C 0.55526(12) -0.1051(3) 0.62231(17)
C7 C 0.57056(13) -0.2300(3) 0.6020(2)
H5 H 0.5423 -0.2856 0.5579
C8 C 0.60062(13) -0.0241(3) 0.68794(18)
H6 H 0.5926 0.0629 0.7019
C9 C 0.62821(14) -0.2705(3) 0.64792(19)
H7 H 0.6379 -0.3535 0.6332
C10 C 0.15654(12) -0.5346(3) -0.09363(17)
H8 H 0.1880 -0.4711 -0.0682
C11 C 0.10193(13) -0.4788(3) -0.15109(17)
H9 H 0.0971 -0.3800 -0.1631
C12 C 0.05368(12) -0.5721(3) -0.19129(17)
C13 C 0.06362(13) -0.7174(3) -0.16673(18)
H10 H 0.0328 -0.7825 -0.1894
C14 C 0.12005(13) -0.7631(3) -0.10807(18)
H11 H 0.1259 -0.8603 -0.0925
C15 C 0.65647(13) -0.0735(3) 0.73107(18)
H12 H 0.6857 -0.0196 0.7751
C16 C 0.28197(11) -0.5630(3) 0.11758(16)
C17 C 0.30559(12) -0.4231(3) 0.16803(17)
C18 C 0.28333(11) -0.3940(3) 0.21742(16)
C19 C 0.29358(19) -0.2932(3) 0.1148(2)
H13 H 0.3085 -0.2062 0.1467
H14 H 0.2524 -0.2835 0.0738
H15 H 0.3123 -0.3081 0.0905
C20 C 0.37247(13) -0.4469(4) 0.2305(2)
H16 H 0.3899 -0.3625 0.2641
H17 H 0.3888 -0.4624 0.2030
H18 H 0.3799 -0.5305 0.2628
O2 O 0.27314(9) -0.2609(2) 0.22175(12)
O3 O 0.27046(8) -0.6778(2) 0.13769(12)
O4 O 0.27687(8) -0.5600(2) 0.05340(11)
O5 O 0.27926(9) -0.4937(2) 0.25352(12)
N1 N 0.33241(10) -0.1714(3) 0.38352(14)
N2 N 0.49990(11) -0.0488(3) 0.58190(16)
H19 H 0.4985(15) 0.038(3) 0.598(2)
N3 N 0.16696(10) -0.6761(3) -0.07211(14)
N4 N 0.0000 -0.5105(4) -0.2500
H20 H 0.0000 -0.415(2) -0.2500
N5 N 0.67114(10) -0.1967(3) 0.71270(14)
Cu1F Cu 0.249812(14) -1.28253(4) -0.28985(2)
Cu1C Cu 0.249812(14) -0.71747(4) 0.21015(2)
Cu1G Cu 0.750188(14) -0.28253(4) 0.78985(2)
Cu1E Cu 0.250188(14) -0.78253(4) -0.21015(2)
Cu1G_2 Cu -0.249812(14) -0.28253(4) -0.21015(2)
Cu2A Cu -0.2500 -0.7500 -0.5000
C1G C -0.12349(14) -0.2353(4) -0.0857(2)
H1G H -0.1314 -0.1447 -0.1101
C2G C -0.06698(14) -0.2644(4) -0.0201(2)
H2G H -0.0380 -0.1948 -0.0009
C3G C -0.05410(12) -0.4003(3) 0.01684(17)
C4G C -0.10060(12) -0.4967(3) -0.01357(17)
H3G H -0.0944 -0.5871 0.0104
C5G C -0.15502(12) -0.4573(3) -0.07857(17)
H4G H -0.1852 -0.5231 -0.0978
C6G C 0.05526(12) -0.3949(3) 0.12231(17)
C7G C 0.07056(13) -0.2700(3) 0.1020(2)
H5G H 0.0423 -0.2144 0.0579
C8G C 0.10062(13) -0.4759(3) 0.18794(18)
H6G H 0.0926 -0.5629 0.2019
C9G C 0.12821(14) -0.2295(3) 0.14792(19)
H7G H 0.1379 -0.1465 0.1332
C10A C -0.15654(12) -0.5346(3) -0.40637(17)
H8A H -0.1880 -0.4711 -0.4318
C11A C -0.10193(13) -0.4788(3) -0.34891(17)
H9A H -0.0971 -0.3800 -0.3369
C12A C -0.05368(12) -0.5721(3) -0.30871(17)
C13A C -0.06362(13) -0.7174(3) -0.33327(18)
H10A H -0.0328 -0.7825 -0.3106
C14A C -0.12005(13) -0.7631(3) -0.39193(18)
H11A H -0.1259 -0.8603 -0.4075
C15G C 0.15647(13) -0.4265(3) 0.23107(18)
H12G H 0.1857 -0.4804 0.2751
C16F C 0.21803(11) -0.9370(3) -0.11758(16)
C17F C 0.19441(12) -1.0769(3) -0.16803(17)
C18F C 0.21667(11) -1.1060(3) -0.21742(16)
C19F C 0.20642(19) -1.2068(3) -0.1148(2)
H13F H 0.1915 -1.2938 -0.1467
H14F H 0.2476 -1.2165 -0.0738
H15F H 0.1877 -1.1919 -0.0905
C20F C 0.12753(13) -1.0531(4) -0.2305(2)
H16F H 0.1101 -1.1375 -0.2641
H17F H 0.1112 -1.0376 -0.2030
H18F H 0.1201 -0.9695 -0.2628
O2F O 0.22686(9) -1.2391(2) -0.22175(12)
O3F O 0.22954(8) -0.8222(2) -0.13769(12)
O3C O 0.22954(8) -0.1778(2) 0.36231(12)
O3E O 0.27046(8) -1.3222(2) -0.36231(12)
O4F O 0.22313(8) -0.9400(2) -0.05340(11)
O5F O 0.22074(9) -1.0063(2) -0.25352(12)
O5C O 0.22074(9) 0.0063(2) 0.24648(12)
O5E O 0.27926(9) -1.5063(2) -0.24648(12)
N1G N -0.16759(10) -0.3286(3) -0.11648(14)
N1F N 0.16759(10) -1.3286(3) -0.38352(14)
N2G N -0.00010(11) -0.4512(3) 0.08190(16)
H19G H -0.0015(15) -0.538(3) 0.098(2)
N3A N -0.16696(10) -0.6761(3) -0.42789(14)
N3F N 0.33304(10) -0.8239(3) 0.07211(14)
N5G N 0.17114(10) -0.3033(3) 0.21270(14)
N5A N 0.32886(10) -1.1967(3) -0.21270(14)
O1 O 0.2929(3) 0.4956(7) 0.4142(4)
Cl1 Cl 0.03492(4) 0.12941(9) 0.39273(5)
O6 O 0.0071(4) 0.2687(10) 0.3547(4)
O7 O 0.0240(4) 0.0305(7) 0.3358(4)
O8 O 0.0103(3) 0.0753(7) 0.4302(4)
O9 O 0.0942(3) 0.1554(8) 0.4544(4)
O10? O 0.0931(8) 0.1352(19) 0.4126(17)
O11? O 0.0064(7) -0.0014(15) 0.3530(12)
O12? O 0.0016(14) 0.251(3) 0.358(2)
O13? O 0.0485(13) 0.115(3) 0.4670(10)
loop_
_geom_bond_atom_site_label_1
_geom_bond_atom_site_label_2
_geom_bond_site_symmetry_1
_geom_bond_site_symmetry_2
Cu1 O2 1_555 1_555
Cu2 O4 1_555 1_555
C1 H1 1_555 1_555
C2 C1 1_555 1_555
H2 C2 1_555 1_555
C3 C2 1_555 1_555
C4 C3 1_555 1_555
H3 C4 1_555 1_555
C5 C4 1_555 1_555
H4 C5 1_555 1_555
C6 C7 1_555 1_555
C7 H5 1_555 1_555
C8 C6 1_555 1_555
H6 C8 1_555 1_555
C9 C7 1_555 1_555
H7 C9 1_555 1_555
C10 H8 1_555 1_555
C11 C10 1_555 1_555
H9 C11 1_555 1_555
C12 C11 1_555 1_555
C13 C12 1_555 1_555
H10 C13 1_555 1_555
C14 C13 1_555 1_555
H11 C14 1_555 1_555
C15 C8 1_555 1_555
H12 C15 1_555 1_555
C16 C17 1_555 1_555
C17 C18 1_555 1_555
C18 O2 1_555 1_555
C19 C17 1_555 1_555
H13 C19 1_555 1_555
H14 C19 1_555 1_555
H15 C19 1_555 1_555
C20 C17 1_555 1_555
H16 C20 1_555 1_555
H17 C20 1_555 1_555
H18 C20 1_555 1_555
O3 C16 1_555 1_555
O4 C16 1_555 1_555
O5 C18 1_555 1_555
N1 Cu1 1_555 1_555
N2 C3 1_555 1_555
H19 N2 1_555 1_555
N3 Cu2 1_555 1_555
N4 C12 1_555 1_555
H20 N4 1_555 1_555
N5 C9 1_555 1_555
Cl1 O6 1_555 1_555
O7 Cl1 1_555 1_555
O8 Cl1 1_555 1_555
O9 Cl1 1_555 1_555
Cu1F O2F 1_555 1_555
Cu1C O3 1_555 1_555
Cu1G N5 1_555 1_555
Cu1E O3F 1_555 1_555
Cu1G_2 N1G 1_555 1_555
Cu2A N3A 1_555 1_555
C1G H1G 1_555 1_555
C2G C1G 1_555 1_555
H2G C2G 1_555 1_555
C3G C2G 1_555 1_555
C4G C3G 1_555 1_555
H3G C4G 1_555 1_555
C5G C4G 1_555 1_555
H4G C5G 1_555 1_555
C6G C7G 1_555 1_555
C7G H5G 1_555 1_555
C8G C6G 1_555 1_555
H6G C8G 1_555 1_555
C9G C7G 1_555 1_555
H7G C9G 1_555 1_555
C10A H8A 1_555 1_555
C11A C10A 1_555 1_555
H9A C11A 1_555 1_555
C12A N4 1_555 1_555
C13A C12A 1_555 1_555
H10A C13A 1_555 1_555
C14A C13A 1_555 1_555
H11A C14A 1_555 1_555
C15G C8G 1_555 1_555
H12G C15G 1_555 1_555
C16F C17F 1_555 1_555
C17F C18F 1_555 1_555
C18F O2F 1_555 1_555
C19F C17F 1_555 1_555
H13F C19F 1_555 1_555
H14F C19F 1_555 1_555
H15F C19F 1_555 1_555
C20F C17F 1_555 1_555
H16F C20F 1_555 1_555
H17F C20F 1_555 1_555
H18F C20F 1_555 1_555
O3F C16F 1_555 1_555
O3C Cu1 1_555 1_555
O3E Cu1F 1_555 1_555
O4F Cu2 1_555 1_555
O5F Cu1E 1_555 1_555
O5C Cu1 1_555 1_555
O5E Cu1F 1_555 1_555
N1G C1G 1_555 1_555
N1F Cu1F 1_555 1_555
N2G C3G 1_555 1_555
H19G N2G 1_555 1_555
N3A C10A 1_555 1_555
N3F Cu2 1_555 1_555
N5G Cu1 1_555 1_555
N5A Cu1F 1_555 1_555
C1 N1 1_555 1_555
C5 N1 1_555 1_555
C6 N2 1_555 1_555
C10 N3 1_555 1_555
C14 N3 1_555 1_555
C15 N5 1_555 1_555
O5 Cu1C 1_555 1_555
C5G N1G 1_555 1_555
C6G N2G 1_555 1_555
C9G N5G 1_555 1_555
C11A C12A 1_555 1_555
C14A N3A 1_555 1_555
C15G N5G 1_555 1_555
C16F O4F 1_555 1_555
C18F O5F 1_555 1_555

#END
