
#######################################################################
#
#                 Cambridge Crystallographic Data Centre
#                                CCDC 
#
#######################################################################
#
# If this CIF has been generated from an entry in the Cambridge 
# Structural Database, then it will include bibliographic, chemical, 
# crystal, experimental, refinement or atomic coordinate data resulting 
# from the CCDC's data processing and validation procedures.
#
#######################################################################

data_NUWJIZ
_symmetry_cell_setting           monoclinic
_symmetry_space_group_name_H-M   'P 21/c'
_symmetry_Int_Tables_number      14
_space_group_name_Hall           '-P 2ybc'
loop_
_symmetry_equiv_pos_site_id
_symmetry_equiv_pos_as_xyz
1 x,y,z
2 -x,1/2+y,1/2-z
3 -x,-y,-z
4 x,1/2-y,1/2+z
_cell_length_a                   10.3864(7)
_cell_length_b                   4.5721(2)
_cell_length_c                   18.9419(12)
_cell_angle_alpha                90
_cell_angle_beta                 100.960(5)
_cell_angle_gamma                90
_cell_volume                     883.1
loop_
_atom_site_label
_atom_site_type_symbol
_atom_site_fract_x
_atom_site_fract_y
_atom_site_fract_z
C1 C 0.1170(5) 0.7742(14) 0.3329(3)
H1 H 0.1475 0.9060 0.3024
C2 C -0.0158(5) 0.7463(15) 0.3282(4)
H2 H -0.0738 0.8570 0.2953
C3 C -0.0614(5) 0.5534(16) 0.3727(3)
H3 H -0.1510 0.5315 0.3708
C4 C 0.0271(5) 0.3920(14) 0.4203(3)
H4 H -0.0015 0.2580 0.4509
C5 C 0.1598(5) 0.4327(12) 0.4219(3)
C6 C 0.2605(5) 0.2591(13) 0.4725(3)
N1 N 0.2036(4) 0.6219(10) 0.3787(2)
N2 N 0.3458(5) 1.2821(13) 0.2522(3)
O1 O 0.2214(4) 0.0795(11) 0.5121(3)
O2 O 0.3808(4) 0.3099(10) 0.4713(2)
O3 O 0.3665(4) 1.1952(9) 0.3159(2)
O4 O 0.3671(5) 1.5486(12) 0.2468(2)
Pb1 Pb 0.449576(17) 0.63986(4) 0.389211(10)
O5 O 0.6369(4) 0.2752(12) 0.3910(2)
H5 H 0.631(8) 0.183(14) 0.3535(19)
H6 H 0.670(8) 0.169(13) 0.425(2)
O2B O 0.6192(4) 0.6901(10) 0.5287(2)
O3_2 O 0.3665(4) 0.1952(9) 0.3159(2)
O4_2 O 0.3671(5) 0.5486(12) 0.2468(2)
Pb1B Pb 0.550424(17) 0.36014(4) 0.610789(10)
Pb1_2 Pb 0.449576(17) 1.63986(4) 0.389211(10)
loop_
_geom_bond_atom_site_label_1
_geom_bond_atom_site_label_2
_geom_bond_site_symmetry_1
_geom_bond_site_symmetry_2
C1 H1 1_555 1_555
C2 C1 1_555 1_555
H2 C2 1_555 1_555
C3 C2 1_555 1_555
H3 C3 1_555 1_555
C4 C3 1_555 1_555
H4 C4 1_555 1_555
C5 C4 1_555 1_555
C6 C5 1_555 1_555
N1 C1 1_555 1_555
N2 O3 1_555 1_555
O1 C6 1_555 1_555
O2 C6 1_555 1_555
O3 Pb1 1_555 1_555
O4 N2 1_555 1_555
Pb1 N1 1_555 1_555
O5 Pb1 1_555 1_555
H5 O5 1_555 1_555
H6 O5 1_555 1_555
O2B Pb1 1_555 1_555
O3_2 Pb1 1_555 1_555
O4_2 Pb1 1_555 1_555
Pb1B O2 1_555 1_555
Pb1_2 O3 1_555 1_555
C5 N1 1_555 1_555
O2 Pb1 1_555 1_555
O4 Pb1_2 1_555 1_555
O2B Pb1B 1_555 1_555

#END
