
#######################################################################
#
#                 Cambridge Crystallographic Data Centre
#                                CCDC 
#
#######################################################################
#
# If this CIF has been generated from an entry in the Cambridge 
# Structural Database, then it will include bibliographic, chemical, 
# crystal, experimental, refinement or atomic coordinate data resulting 
# from the CCDC's data processing and validation procedures.
#
#######################################################################

data_NUWSII
_symmetry_cell_setting           triclinic
_symmetry_space_group_name_H-M   'P -1'
_symmetry_Int_Tables_number      2
_space_group_name_Hall           '-P 1'
loop_
_symmetry_equiv_pos_site_id
_symmetry_equiv_pos_as_xyz
1 x,y,z
2 -x,-y,-z
_cell_length_a                   9.6550(17)
_cell_length_b                   10.0259(18)
_cell_length_c                   14.313(3)
_cell_angle_alpha                91.012(2)
_cell_angle_beta                 107.625(2)
_cell_angle_gamma                118.626(2)
_cell_volume                     1136.92
loop_
_atom_site_label
_atom_site_type_symbol
_atom_site_fract_x
_atom_site_fract_y
_atom_site_fract_z
O1 O 0.8617(11) 0.4645(10) -0.1528(7)
O2 O 0.8967(10) 0.6348(9) -0.0162(6)
S1 S 0.7837(3) 0.4781(3) -0.0836(2)
O3 O 0.7778(11) 0.3687(9) -0.0134(6)
C1 C 0.7824(14) 0.1196(13) -0.2480(9)
C2 C 0.6664(15) -0.0442(14) -0.2908(9)
C3 C 0.5436(15) -0.0810(13) -0.3851(9)
H1 H 0.5287 -0.0049 -0.4151
C4 C 0.4439(15) -0.2374(14) -0.4325(9)
C5 C 0.2739(17) -0.4615(15) -0.5326(10)
H2 H 0.1915 -0.5367 -0.5888
C6 C 0.4660(15) -0.3502(14) -0.3868(9)
C7 C 0.5865(15) -0.3144(14) -0.2942(9)
H3 H 0.6025 -0.3906 -0.2653
C8 C 0.6838(14) -0.1605(13) -0.2453(8)
C9 C 0.8157(13) -0.1340(13) -0.1483(8)
C10 C 0.5864(14) -0.0432(13) 0.1495(8)
C11 C 0.6817(14) -0.0028(14) 0.2571(8)
C12 C 0.6472(14) -0.1261(14) 0.3053(9)
H4 H 0.5722 -0.2277 0.2707
C13 C 0.7298(14) -0.0918(13) 0.4085(9)
C14 C 0.8438(16) -0.0883(15) 0.5662(9)
H5 H 0.8701 -0.1245 0.6246
C15 C 0.8365(14) 0.0596(14) 0.4617(8)
C16 C 0.8685(14) 0.1854(13) 0.4128(9)
H6 H 0.9372 0.2871 0.4481
C17 C 0.7933(14) 0.1517(14) 0.3096(9)
C18 C 0.8379(14) 0.2851(14) 0.2560(9)
La1 La 0.82239(8) 0.13631(7) 0.01157(5)
La2 La 0.89847(8) 0.56350(7) 0.16130(5)
N1 N 0.3200(13) -0.3115(12) -0.5262(8)
N2 N 0.3540(15) -0.4930(13) -0.4536(8)
N3 N 0.7355(13) -0.1827(11) 0.4770(8)
H7 H 0.6802 -0.2823 0.4656
N4 N 0.9089(12) 0.0601(11) 0.5626(7)
O4 O 0.8091(11) 0.2233(9) -0.2998(6)
O5 O 0.8748(10) 0.1618(9) -0.1522(6)
O6 O 0.7860(11) -0.1081(9) -0.0659(6)
O7 O 0.9486(10) -0.1260(11) -0.1429(7)
O8 O 0.6467(10) -0.0675(9) 0.0861(6)
O9 O 0.4522(10) -0.0359(10) 0.1188(7)
O10 O 0.9097(12) 0.4196(10) 0.3046(7)
O11 O 0.8087(10) 0.2627(9) 0.1618(6)
O12 O 0.6179(10) 0.4555(10) -0.1351(6)
O13 O 0.5793(12) 0.3988(12) 0.1150(9)
H8 H 0.5555 0.3115 0.1316
H9 H 0.5398 0.4404 0.1432
O14 O 0.8435(12) 0.6712(11) 0.3008(7)
H10 H 0.9341 0.7462 0.3422
H11 H 0.7959 0.6014 0.3317
O15 O 0.7566(14) 0.7184(12) 0.0956(8)
H12 H 0.7650 0.7868 0.1365
H13 H 0.8003 0.7461 0.0509
H14 H 0.277(18) -0.288(16) -0.583(11)
O1A O 0.1383(11) -0.4645(10) 0.1528(7)
O1_2 O -0.1383(11) -0.5355(10) -0.1528(7)
O1A_2 O 1.1383(11) 0.5355(10) 0.1528(7)
O2A O 0.1033(10) -0.6348(9) 0.0162(6)
O2_2 O -0.1033(10) -0.3652(9) -0.0162(6)
O2A_2 O 1.1033(10) 0.3652(9) 0.0162(6)
S1A S 0.2163(3) -0.4781(3) 0.0836(2)
O3A O 0.2222(11) -0.3687(9) 0.0134(6)
C1A C 0.2176(14) -0.1196(13) 0.2480(9)
C2A C 0.3336(15) 0.0442(14) 0.2908(9)
C3A C 0.4564(15) 0.0810(13) 0.3851(9)
H1A H 0.4713 0.0049 0.4151
C4A C 0.5561(15) 0.2374(14) 0.4325(9)
C5A C 0.7261(17) 0.4615(15) 0.5326(10)
H2A H 0.8085 0.5367 0.5888
C6A C 0.5340(15) 0.3502(14) 0.3868(9)
C7A C 0.4135(15) 0.3144(14) 0.2942(9)
H3A H 0.3975 0.3906 0.2653
C8A C 0.3162(14) 0.1605(13) 0.2453(8)
C9A C 0.1843(13) 0.1340(13) 0.1483(8)
C10A C 0.4136(14) 0.0432(13) -0.1495(8)
C11A C 0.3183(14) 0.0028(14) -0.2571(8)
C12A C 0.3528(14) 0.1261(14) -0.3053(9)
H4A H 0.4278 0.2277 -0.2707
C13A C 0.2702(14) 0.0918(13) -0.4085(9)
C14A C 0.1562(16) 0.0883(15) -0.5662(9)
H5A H 0.1299 0.1245 -0.6246
C15A C 0.1635(14) -0.0596(14) -0.4617(8)
C16A C 0.1315(14) -0.1854(13) -0.4128(9)
H6A H 0.0628 -0.2871 -0.4481
C17A C 0.2067(14) -0.1517(14) -0.3096(9)
C18A C 0.1621(14) -0.2851(14) -0.2560(9)
La1A La 0.17761(8) -0.13631(7) -0.01157(5)
La1_2 La -0.17761(8) -0.86369(7) 0.01157(5)
La1_3 La -0.17761(8) 0.13631(7) 0.01157(5)
La1A_2 La 1.17761(8) -0.13631(7) -0.01157(5)
La1A_3 La 1.17761(8) 0.86369(7) -0.01157(5)
La2A La 0.10153(8) -0.56350(7) -0.16130(5)
La2_2 La -0.10153(8) -0.43650(7) 0.16130(5)
La2A_2 La 1.10153(8) 0.43650(7) -0.16130(5)
N1A N 0.6800(13) 0.3115(12) 0.5262(8)
N2A N 0.6460(15) 0.4930(13) 0.4536(8)
N3A N 0.2645(13) 0.1827(11) -0.4770(8)
H7A H 0.3198 0.2823 -0.4656
N4A N 0.0911(12) -0.0601(11) -0.5626(7)
O4A O 0.1909(11) -0.2233(9) 0.2998(6)
O4_2 O -0.1909(11) -0.7767(9) -0.2998(6)
O4A_2 O 1.1909(11) 0.7767(9) 0.2998(6)
O5A O 0.1252(10) -0.1618(9) 0.1522(6)
O5_2 O -0.1252(10) -0.8382(9) -0.1522(6)
O5A_2 O 1.1252(10) 0.8382(9) 0.1522(6)
O6A O 0.2140(11) 0.1081(9) 0.0659(6)
O7A O 0.0514(10) 0.1260(11) 0.1429(7)
O7_2 O -0.0514(10) -0.1260(11) -0.1429(7)
O7A_2 O 1.0514(10) 0.1260(11) 0.1429(7)
O8A O 0.3533(10) 0.0675(9) -0.0861(6)
O9A O 0.5478(10) 0.0359(10) -0.1188(7)
O10A O 0.0903(12) -0.4196(10) -0.3046(7)
O11A O 0.1913(10) -0.2627(9) -0.1618(6)
O12A O 0.3821(10) -0.4555(10) 0.1351(6)
O13A O 0.4207(12) -0.3988(12) -0.1150(9)
H8A H 0.4445 -0.3115 -0.1316
H9A H 0.4602 -0.4404 -0.1432
O14A O 0.1565(12) -0.6712(11) -0.3008(7)
H10A H 0.0659 -0.7462 -0.3422
H11A H 0.2041 -0.6014 -0.3317
O15A O 0.2434(14) -0.7184(12) -0.0956(8)
H12A H 0.2350 -0.7868 -0.1365
H13A H 0.1997 -0.7461 -0.0509
H14A H 0.723(18) 0.288(16) 0.583(11)
loop_
_geom_bond_atom_site_label_1
_geom_bond_atom_site_label_2
_geom_bond_site_symmetry_1
_geom_bond_site_symmetry_2
O1 S1 1_555 1_555
O2 S1 1_555 1_555
S1 O3 1_555 1_555
O3 La1 1_555 1_555
C1 C2 1_555 1_555
C2 C3 1_555 1_555
C3 H1 1_555 1_555
C4 C3 1_555 1_555
C5 H2 1_555 1_555
C6 C4 1_555 1_555
C7 C6 1_555 1_555
H3 C7 1_555 1_555
C8 C2 1_555 1_555
C9 C8 1_555 1_555
C10 C11 1_555 1_555
C11 C12 1_555 1_555
C12 H4 1_555 1_555
C13 C12 1_555 1_555
C14 H5 1_555 1_555
C15 C13 1_555 1_555
C16 C15 1_555 1_555
H6 C16 1_555 1_555
C17 C11 1_555 1_555
C18 C17 1_555 1_555
La1 O5 1_555 1_555
La2 O2 1_555 1_555
N1 C4 1_555 1_555
N2 C5 1_555 1_555
N3 C13 1_555 1_555
H7 N3 1_555 1_555
N4 C14 1_555 1_555
O4 C1 1_555 1_555
O5 C1 1_555 1_555
O6 C9 1_555 1_555
O7 C9 1_555 1_555
O8 C10 1_555 1_555
O9 C10 1_555 1_555
O10 C18 1_555 1_555
O11 C18 1_555 1_555
O12 S1 1_555 1_555
O13 La2 1_555 1_555
H8 O13 1_555 1_555
H9 O13 1_555 1_555
O14 La2 1_555 1_555
H10 O14 1_555 1_555
H11 O14 1_555 1_555
O15 La2 1_555 1_555
H12 O15 1_555 1_555
H13 O15 1_555 1_555
H14 N1 1_555 1_555
O1A S1A 1_555 1_555
O1_2 La2A 1_555 1_555
O1A_2 La2 1_555 1_555
O2A S1A 1_555 1_555
O2_2 La1A 1_555 1_555
O2A_2 La1 1_555 1_555
S1A O3A 1_555 1_555
O3A La1A 1_555 1_555
C1A C2A 1_555 1_555
C2A C3A 1_555 1_555
C3A H1A 1_555 1_555
C4A C3A 1_555 1_555
C5A H2A 1_555 1_555
C6A C4A 1_555 1_555
C7A C6A 1_555 1_555
H3A C7A 1_555 1_555
C8A C2A 1_555 1_555
C9A C8A 1_555 1_555
C10A C11A 1_555 1_555
C11A C12A 1_555 1_555
C12A H4A 1_555 1_555
C13A C12A 1_555 1_555
C14A H5A 1_555 1_555
C15A C13A 1_555 1_555
C16A C15A 1_555 1_555
H6A C16A 1_555 1_555
C17A C11A 1_555 1_555
C18A C17A 1_555 1_555
La1A O9 1_555 1_555
La1_2 O2A 1_555 1_555
La1_3 O7A 1_555 1_555
La1A_2 O7 1_555 1_555
La1A_3 O2 1_555 1_555
La2A O2A 1_555 1_555
La2_2 O1A 1_555 1_555
La2A_2 O1 1_555 1_555
N1A C4A 1_555 1_555
N2A C5A 1_555 1_555
N3A C13A 1_555 1_555
H7A N3A 1_555 1_555
N4A C14A 1_555 1_555
O4A C1A 1_555 1_555
O4_2 La2A 1_555 1_555
O4A_2 La2 1_555 1_555
O5A C1A 1_555 1_555
O5_2 La1_2 1_555 1_555
O5A_2 La2 1_555 1_555
O6A C9A 1_555 1_555
O7A C9A 1_555 1_555
O7_2 La1A 1_555 1_555
O7A_2 La1 1_555 1_555
O8A C10A 1_555 1_555
O9A La1 1_555 1_555
O10A C18A 1_555 1_555
O11A C18A 1_555 1_555
O12A S1A 1_555 1_555
O13A La2A 1_555 1_555
H8A O13A 1_555 1_555
H9A O13A 1_555 1_555
O14A La2A 1_555 1_555
H10A O14A 1_555 1_555
H11A O14A 1_555 1_555
O15A La2A 1_555 1_555
H12A O15A 1_555 1_555
H13A O15A 1_555 1_555
H14A N1A 1_555 1_555
O3 La2 1_555 1_555
C5 N1 1_555 1_555
C6 N2 1_555 1_555
C7 C8 1_555 1_555
C14 N3 1_555 1_555
C15 N4 1_555 1_555
C16 C17 1_555 1_555
La1 O6 1_555 1_555
La1 O8 1_555 1_555
La1 O11 1_555 1_555
La2 O10 1_555 1_555
La2 O11 1_555 1_555
O4 La2A_2 1_555 1_555
O5 La2A_2 1_555 1_555
O2_2 La2_2 1_555 1_555
O2A_2 La2A_2 1_555 1_555
O3A La2A 1_555 1_555
C5A N1A 1_555 1_555
C6A N2A 1_555 1_555
C7A C8A 1_555 1_555
C10A O9A 1_555 1_555
C14A N3A 1_555 1_555
C15A N4A 1_555 1_555
C16A C17A 1_555 1_555
La1A O5A 1_555 1_555
La1A O6A 1_555 1_555
La1A O8A 1_555 1_555
La1A O11A 1_555 1_555
La1A_3 O5A_2 1_555 1_555
La2A O5_2 1_555 1_555
La2A O10A 1_555 1_555
La2A O11A 1_555 1_555
La2_2 O4A 1_555 1_555
La2_2 O5A 1_555 1_555

#END
