
#######################################################################
#
#                 Cambridge Crystallographic Data Centre
#                                CCDC 
#
#######################################################################
#
# If this CIF has been generated from an entry in the Cambridge 
# Structural Database, then it will include bibliographic, chemical, 
# crystal, experimental, refinement or atomic coordinate data resulting 
# from the CCDC's data processing and validation procedures.
#
#######################################################################

data_NUWSUU
_symmetry_cell_setting           monoclinic
_symmetry_space_group_name_H-M   'P 21/c'
_symmetry_Int_Tables_number      14
_space_group_name_Hall           '-P 2ybc'
loop_
_symmetry_equiv_pos_site_id
_symmetry_equiv_pos_as_xyz
1 x,y,z
2 -x,1/2+y,1/2-z
3 -x,-y,-z
4 x,1/2-y,1/2+z
_cell_length_a                   9.5378(8)
_cell_length_b                   6.6828(5)
_cell_length_c                   16.1310(13)
_cell_angle_alpha                90
_cell_angle_beta                 96.7490(10)
_cell_angle_gamma                90
_cell_volume                     1021.05
loop_
_atom_site_label
_atom_site_type_symbol
_atom_site_fract_x
_atom_site_fract_y
_atom_site_fract_z
Tb1 Tb 0.40822(6) -0.42027(9) 0.60104(3)
S1 S 0.4080(6) 0.0782(9) 0.5225(4)
O1 O 0.2020(12) -0.3814(18) 0.5036(7)
O2 O 0.3762(10) -0.4776(15) 0.4441(6)
O3 O 0.4323(9) -0.5315(17) 0.2885(5)
O4 O 0.3522(10) -0.3446(16) 0.1825(5)
O5 O 0.507(2) -0.129(3) 0.5509(12)
O6 O 0.3954(14) 0.228(2) 0.5842(7)
O7 O 0.259(2) 0.031(4) 0.4977(12)
N1 N -0.1789(11) -0.4392(18) 0.1692(7)
H3 H -0.1871 -0.4336 0.1155
N2 N -0.2407(11) -0.4550(18) 0.2998(6)
C1 C 0.2514(13) -0.4335(19) 0.4379(7)
C2 C 0.1519(13) -0.440(2) 0.3586(7)
C3 C 0.0104(13) -0.443(2) 0.3715(8)
H4 H -0.0145 -0.4427 0.4256
C4 C -0.0937(13) -0.4460(18) 0.3039(8)
C5 C -0.0557(13) -0.437(2) 0.2232(8)
C6 C 0.0845(13) -0.431(2) 0.2084(8)
H5 H 0.1079 -0.4243 0.1541
C7 C 0.1872(13) -0.4343(19) 0.2743(8)
C8 C 0.3361(13) -0.4337(19) 0.2485(8)
C9 C -0.2885(16) -0.452(2) 0.2201(9)
H6 H -0.3838 -0.4580 0.1997
Tb1B Tb 0.59178(6) -0.57973(9) 0.39896(3)
Tb1C Tb 0.40822(6) -0.07973(9) 0.10104(3)
Tb1_2 Tb 0.40822(6) 0.57973(9) 0.60104(3)
Tb1B_2 Tb -0.40822(6) -0.57973(9) 0.39896(3)
Tb1B_3 Tb 0.59178(6) 0.42027(9) 0.39896(3)
Tb1A Tb 0.59178(6) -0.92027(9) 0.89896(3)
Tb1_3 Tb 1.40822(6) -0.42027(9) 0.60104(3)
S1B S 0.5920(6) -0.0782(9) 0.4775(4)
O1B O 0.7980(12) -0.6186(18) 0.4964(7)
O2B O 0.6238(10) -0.5224(15) 0.5559(6)
O3B O 0.5677(9) -0.4685(17) 0.7115(5)
O4B O 0.6478(10) -0.6554(16) 0.8175(5)
O4C O 0.3522(10) -0.1554(16) 0.6825(5)
O4A O 0.6478(10) -0.8446(16) 0.3175(5)
O5B O 0.493(2) 0.129(3) 0.4491(12)
O5B_2 O 0.493(2) -0.871(3) 0.4491(12)
O6B O 0.6046(14) -0.228(2) 0.4158(7)
O6_2 O 0.3954(14) -0.772(2) 0.5842(7)
O7B O 0.741(2) -0.031(4) 0.5023(12)
N1B N 1.1789(11) -0.5608(18) 0.8308(7)
H3B H 1.1871 -0.5664 0.8845
N2B N 1.2407(11) -0.5450(18) 0.7002(6)
N2B_2 N 0.2407(11) -0.5450(18) 0.7002(6)
N2_2 N 0.7593(11) -0.4550(18) 0.2998(6)
C1B C 0.7486(13) -0.5665(19) 0.5621(7)
C2B C 0.8481(13) -0.560(2) 0.6414(7)
C3B C 0.9896(13) -0.557(2) 0.6285(8)
H4B H 1.0145 -0.5573 0.5744
C4B C 1.0937(13) -0.5540(18) 0.6961(8)
C5B C 1.0557(13) -0.563(2) 0.7768(8)
C6B C 0.9155(13) -0.569(2) 0.7916(8)
H5B H 0.8921 -0.5757 0.8459
C7B C 0.8128(13) -0.5657(19) 0.7257(8)
C8B C 0.6639(13) -0.5663(19) 0.7515(8)
C9B C 1.2885(16) -0.548(2) 0.7799(9)
H6B H 1.3838 -0.5420 0.8003
O8 O 0.054(2) 0.017(4) 0.4934(15)
O8B O -0.054(2) -0.017(4) 0.5066(15)
H1? H 0.0053 0.1050 0.4652
H2? H 0.0189 -0.0981 0.4824
loop_
_geom_bond_atom_site_label_1
_geom_bond_atom_site_label_2
_geom_bond_site_symmetry_1
_geom_bond_site_symmetry_2
Tb1 O1 1_555 1_555
S1 O5 1_555 1_555
O1 C1 1_555 1_555
O2 Tb1 1_555 1_555
O3 C8 1_555 1_555
O4 C8 1_555 1_555
O5 Tb1 1_555 1_555
O6 S1 1_555 1_555
O7 S1 1_555 1_555
O8 O8B 1_555 1_555
N1 H3 1_555 1_555
N2 C4 1_555 1_555
C1 O2 1_555 1_555
C2 C1 1_555 1_555
C3 C2 1_555 1_555
H4 C3 1_555 1_555
C4 C3 1_555 1_555
C5 N1 1_555 1_555
C6 C5 1_555 1_555
H5 C6 1_555 1_555
C7 C2 1_555 1_555
C8 C7 1_555 1_555
C9 N1 1_555 1_555
H6 C9 1_555 1_555
Tb1B O2 1_555 1_555
Tb1C O4 1_555 1_555
Tb1_2 O6 1_555 1_555
Tb1B_2 N2 1_555 1_555
Tb1B_3 O5B 1_555 1_555
Tb1A O4B 1_555 1_555
Tb1_3 N2B 1_555 1_555
S1B O5 1_555 1_555
O1B Tb1B 1_555 1_555
O2B Tb1 1_555 1_555
O3B Tb1 1_555 1_555
O4B C8B 1_555 1_555
O4C Tb1 1_555 1_555
O4A Tb1B 1_555 1_555
O5B S1 1_555 1_555
O5B_2 Tb1B 1_555 1_555
O6B Tb1B 1_555 1_555
O6_2 Tb1 1_555 1_555
O7B S1B 1_555 1_555
N1B H3B 1_555 1_555
N2B C4B 1_555 1_555
N2B_2 Tb1 1_555 1_555
N2_2 Tb1B 1_555 1_555
C1B O1B 1_555 1_555
C2B C1B 1_555 1_555
C3B C2B 1_555 1_555
H4B C3B 1_555 1_555
C4B C3B 1_555 1_555
C5B N1B 1_555 1_555
C6B C5B 1_555 1_555
H5B C6B 1_555 1_555
C7B C2B 1_555 1_555
C8B O3B 1_555 1_555
C9B N1B 1_555 1_555
H6B C9B 1_555 1_555
O3 Tb1B 1_555 1_555
N2 C9 1_555 1_555
C4 C5 1_555 1_555
C6 C7 1_555 1_555
Tb1B O2B 1_555 1_555
S1B O5B 1_555 1_555
S1B O6B 1_555 1_555
O2B C1B 1_555 1_555
N2B C9B 1_555 1_555
C4B C5B 1_555 1_555
C6B C7B 1_555 1_555
C7B C8B 1_555 1_555

#END
