
#######################################################################
#
#                 Cambridge Crystallographic Data Centre
#                                CCDC 
#
#######################################################################
#
# If this CIF has been generated from an entry in the Cambridge 
# Structural Database, then it will include bibliographic, chemical, 
# crystal, experimental, refinement or atomic coordinate data resulting 
# from the CCDC's data processing and validation procedures.
#
#######################################################################

data_NUWVEI
_symmetry_cell_setting           orthorhombic
_symmetry_space_group_name_H-M   'P b a 2'
_symmetry_Int_Tables_number      32
_space_group_name_Hall           'P 2 -2ab'
loop_
_symmetry_equiv_pos_site_id
_symmetry_equiv_pos_as_xyz
1 x,y,z
2 -x,-y,z
3 1/2-x,1/2+y,z
4 1/2+x,1/2-y,z
_cell_length_a                   11.2987(7)
_cell_length_b                   14.6667(9)
_cell_length_c                   8.2144(5)
_cell_angle_alpha                90
_cell_angle_beta                 90
_cell_angle_gamma                90
_cell_volume                     1361.25
loop_
_atom_site_label
_atom_site_type_symbol
_atom_site_fract_x
_atom_site_fract_y
_atom_site_fract_z
Zn1 Zn 0.5000 0.5000 -0.04404(14)
O1 O 0.4424(3) 0.5922(2) 0.1071(5)
O2 O 0.3263(3) 0.6679(2) -0.0673(5)
N1 N 0.1303(4) 0.9582(3) 0.8015(5)
N2 N 0.1946(4) 1.0260(3) 0.7279(6)
H1 H 0.1977 1.0828 0.7621
C1 C 0.3682(4) 0.6553(3) 0.0695(6)
C2 C 0.3325(5) 0.7180(3) 0.2065(7)
C3 C 0.2477(7) 0.7840(5) 0.1775(7)
H2 H 0.2114 0.7876 0.0733
C4 C 0.2148(7) 0.8449(5) 0.2979(8)
H3 H 0.1585 0.8911 0.2744
C5 C 0.2634(4) 0.8391(3) 0.4530(8)
C6 C 0.3455(5) 0.7717(4) 0.4828(7)
H4 H 0.3789 0.7658 0.5884
C7 C 0.3800(5) 0.7122(4) 0.3593(7)
H5 H 0.4375 0.6666 0.3817
C8 C 0.2245(5) 0.9032(4) 0.5808(6)
C9 C 0.2523(6) 0.9940(4) 0.5961(6)
C10 C 0.1478(4) 0.8831(3) 0.7116(6)
C11 C 0.3352(6) 1.0530(4) 0.4993(7)
H6 H 0.3021 1.1146 0.4902
H7 H 0.3454 1.0271 0.3903
H8 H 0.4121 1.0559 0.5543
C12 C 0.0944(5) 0.7936(3) 0.7527(7)
H9 H 0.0264 0.8030 0.8249
H10 H 0.1534 0.7555 0.8078
H11 H 0.0682 0.7633 0.6527
O1A O 0.5576(3) 0.4078(2) 0.1071(5)
O2A O 0.6737(3) 0.3321(2) -0.0673(5)
N1A N 0.8697(4) 0.0418(3) 0.8015(5)
N2A N 0.8054(4) -0.0260(3) 0.7279(6)
H1A H 0.8023 -0.0828 0.7621
C1A C 0.6318(4) 0.3447(3) 0.0695(6)
C2A C 0.6675(5) 0.2820(3) 0.2065(7)
C3A C 0.7523(7) 0.2160(5) 0.1775(7)
H2A H 0.7886 0.2124 0.0733
C4A C 0.7852(7) 0.1551(5) 0.2979(8)
H3A H 0.8415 0.1089 0.2744
C5A C 0.7366(4) 0.1609(3) 0.4530(8)
C6A C 0.6545(5) 0.2283(4) 0.4828(7)
H4A H 0.6211 0.2342 0.5884
C7A C 0.6200(5) 0.2878(4) 0.3593(7)
H5A H 0.5625 0.3334 0.3817
C8A C 0.7755(5) 0.0968(4) 0.5808(6)
C9A C 0.7477(6) 0.0060(4) 0.5961(6)
C10A C 0.8522(4) 0.1169(3) 0.7116(6)
C11A C 0.6648(6) -0.0530(4) 0.4993(7)
H6A H 0.6979 -0.1146 0.4902
H7A H 0.6546 -0.0271 0.3903
H8A H 0.5879 -0.0559 0.5543
C12A C 0.9056(5) 0.2064(3) 0.7527(7)
H9A H 0.9736 0.1970 0.8249
H10A H 0.8466 0.2445 0.8078
H11A H 0.9318 0.2367 0.6527
Zn1B Zn 0.0000 1.0000 0.95596(14)
Zn1B_2 Zn 1.0000 0.0000 0.95596(14)
N1B N 0.3697(4) 0.4582(3) -0.1985(5)
N1C N 0.6303(4) 0.5418(3) -0.1985(5)
C13 C 0.4947(18) 0.9494(4) -0.161(2)
H12 H 0.4531 0.9289 -0.2601
H13 H 0.5745 0.9214 -0.1595
C14 C 0.490(3) 0.9496(5) 0.123(2)
H14 H 0.5663 0.9174 0.1309
H15 H 0.4412 0.9328 0.2185
O3 O 0.4307(14) 0.9220(11) -0.021(3)
C13A C 0.5053(18) 1.0506(4) -0.161(2)
H12A H 0.5469 1.0711 -0.2601
H13A H 0.4255 1.0786 -0.1595
C14A C 0.510(3) 1.0504(5) 0.123(2)
H14A H 0.4337 1.0826 0.1309
H15A H 0.5588 1.0672 0.2185
O3A O 0.5693(14) 1.0780(11) -0.021(3)
O4? O 0.5000 1.0000 0.161(2)
O5? O 0.5000 1.0000 -0.191(3)
C15? C 0.536(4) 0.9252(11) 0.067(3)
H16? H 0.5155 0.8685 0.1260
H17? H 0.6234 0.9270 0.0561
C16? C 0.483(4) 0.9212(6) -0.098(3)
H18? H 0.5181 0.8687 -0.1569
H19? H 0.3974 0.9098 -0.0869
loop_
_geom_bond_atom_site_label_1
_geom_bond_atom_site_label_2
_geom_bond_site_symmetry_1
_geom_bond_site_symmetry_2
Zn1 O1 1_555 1_555
O1 C1 1_555 1_555
O2 C1 1_555 1_555
N1 N2 1_555 1_555
N2 H1 1_555 1_555
C1 C2 1_555 1_555
C2 C3 1_555 1_555
C3 H2 1_555 1_555
C4 C3 1_555 1_555
H3 C4 1_555 1_555
C5 C4 1_555 1_555
C6 C5 1_555 1_555
H4 C6 1_555 1_555
C7 C2 1_555 1_555
H5 C7 1_555 1_555
C8 C5 1_555 1_555
C9 N2 1_555 1_555
C10 N1 1_555 1_555
C11 C9 1_555 1_555
H6 C11 1_555 1_555
H7 C11 1_555 1_555
H8 C11 1_555 1_555
C12 C10 1_555 1_555
H9 C12 1_555 1_555
H10 C12 1_555 1_555
H11 C12 1_555 1_555
C13 H12 1_555 1_555
H13 C13 1_555 1_555
C14 H14 1_555 1_555
H15 C14 1_555 1_555
O3 C13 1_555 1_555
O1A Zn1 1_555 1_555
O2A C1A 1_555 1_555
N1A N2A 1_555 1_555
N2A H1A 1_555 1_555
C1A O1A 1_555 1_555
C2A C1A 1_555 1_555
C3A C2A 1_555 1_555
H2A C3A 1_555 1_555
C4A C3A 1_555 1_555
H3A C4A 1_555 1_555
C5A C4A 1_555 1_555
C6A C5A 1_555 1_555
H4A C6A 1_555 1_555
C7A C2A 1_555 1_555
H5A C7A 1_555 1_555
C8A C5A 1_555 1_555
C9A N2A 1_555 1_555
C10A N1A 1_555 1_555
C11A C9A 1_555 1_555
H6A C11A 1_555 1_555
H7A C11A 1_555 1_555
H8A C11A 1_555 1_555
C12A C10A 1_555 1_555
H9A C12A 1_555 1_555
H10A C12A 1_555 1_555
H11A C12A 1_555 1_555
Zn1B N1 1_555 1_555
Zn1B_2 N1A 1_555 1_555
N1B Zn1 1_555 1_555
N1C Zn1 1_555 1_555
C13A C13 1_555 1_555
H12A C13A 1_555 1_555
H13A C13A 1_555 1_555
C14A C14 1_555 1_555
H14A C14A 1_555 1_555
H15A C14A 1_555 1_555
O3A C13A 1_555 1_555
C6 C7 1_555 1_555
C8 C9 1_555 1_555
C8 C10 1_555 1_555
C14 O3 1_555 1_555
C6A C7A 1_555 1_555
C8A C9A 1_555 1_555
C8A C10A 1_555 1_555
C14A O3A 1_555 1_555

#END
