
#######################################################################
#
#                 Cambridge Crystallographic Data Centre
#                                CCDC 
#
#######################################################################
#
# If this CIF has been generated from an entry in the Cambridge 
# Structural Database, then it will include bibliographic, chemical, 
# crystal, experimental, refinement or atomic coordinate data resulting 
# from the CCDC's data processing and validation procedures.
#
#######################################################################

data_NUWVOR
_symmetry_cell_setting           triclinic
_symmetry_space_group_name_H-M   'P -1'
_symmetry_Int_Tables_number      2
_space_group_name_Hall           '-P 1'
loop_
_symmetry_equiv_pos_site_id
_symmetry_equiv_pos_as_xyz
1 x,y,z
2 -x,-y,-z
_cell_length_a                   8.4300(17)
_cell_length_b                   8.7510(18)
_cell_length_c                   11.484(2)
_cell_angle_alpha                73.65(3)
_cell_angle_beta                 83.56(3)
_cell_angle_gamma                78.56(3)
_cell_volume                     795.344
loop_
_atom_site_label
_atom_site_type_symbol
_atom_site_fract_x
_atom_site_fract_y
_atom_site_fract_z
Zn1 Zn 0.5000 0.0000 0.5000
C1 C 0.3879(3) 0.0009(3) 0.24996(19)
C2 C 0.4459(3) -0.0038(3) 0.12110(19)
C3 C 0.3363(3) 0.0054(3) 0.0356(2)
C4 C 0.6099(3) -0.0093(3) 0.0838(2)
C5 C 0.4789(3) 0.3587(3) 0.3528(2)
H1 H 0.5560 0.3171 0.3000
C6 C 0.4251(3) 0.5244(3) 0.3266(2)
H2 H 0.4678 0.5923 0.2578
C7 C 0.3080(3) 0.5891(3) 0.4025(2)
H3 H 0.2700 0.6999 0.3847
C8 C 0.2484(3) 0.4845(3) 0.5061(2)
C9 C 0.3108(3) 0.3204(3) 0.5270(2)
H4 H 0.2730 0.2501 0.5967
C10 C 0.1251(3) 0.5404(3) 0.5931(2)
C11 C -0.0350(3) 0.5378(3) 0.7489(2)
C12 C -0.1227(3) 0.4899(3) 0.8682(2)
C13 C -0.0777(4) 0.3370(3) 0.9453(2)
H5 H 0.0044 0.2621 0.9212
C14 C -0.1578(4) 0.2985(4) 1.0588(3)
H6 H -0.1270 0.1956 1.1096
C15 C -0.3191(4) 0.5438(4) 1.0246(3)
H7 H -0.4023 0.6160 1.0508
C16 C -0.2477(4) 0.5937(4) 0.9090(3)
H8 H -0.2836 0.6962 0.8592
N1 N 0.4227(2) 0.2571(2) 0.45244(17)
N2 N 0.0713(2) 0.4387(2) 0.69673(17)
N3 N 0.0568(3) 0.6954(2) 0.57812(18)
N4 N -0.0455(3) 0.6906(2) 0.67900(18)
N5 N -0.2760(3) 0.3992(3) 1.1002(2)
O1 O 0.4962(2) -0.0107(2) 0.32021(14)
O2 O 0.2368(2) 0.0190(2) 0.27786(15)
O3 O 0.7478(2) 0.0321(2) 0.44879(18)
H9 H -0.107(4) 0.779(3) 0.692(4)
H10 H 0.682(4) -0.014(4) 0.141(3)
H11 H 0.223(4) 0.007(4) 0.059(3)
H13 H 0.806(4) 0.005(4) 0.390(2)
H15 H 0.797(4) 0.079(4) 0.483(3)
Zn1_2 Zn 0.5000 0.0000 -0.5000
C1A C 0.6121(3) -0.0009(3) -0.24996(19)
C2A C 0.5541(3) 0.0038(3) -0.12110(19)
C3A C 0.6637(3) -0.0054(3) -0.0356(2)
C4A C 0.3901(3) 0.0093(3) -0.0838(2)
C5A C 0.5211(3) -0.3587(3) 0.6472(2)
H1A H 0.4440 -0.3171 0.7000
C6A C 0.5749(3) -0.5244(3) 0.6734(2)
H2A H 0.5322 -0.5923 0.7422
C7A C 0.6920(3) -0.5891(3) 0.5975(2)
H3A H 0.7300 -0.6999 0.6153
C8A C 0.7516(3) -0.4845(3) 0.4939(2)
C9A C 0.6892(3) -0.3204(3) 0.4730(2)
H4A H 0.7270 -0.2501 0.4033
C10A C 0.8749(3) -0.5404(3) 0.4069(2)
C11A C 1.0350(3) -0.5378(3) 0.2511(2)
C12A C 1.1227(3) -0.4899(3) 0.1318(2)
C13A C 1.0777(4) -0.3370(3) 0.0547(2)
H5A H 0.9956 -0.2621 0.0788
C14A C 1.1578(4) -0.2985(4) -0.0588(3)
H6A H 1.1270 -0.1956 -0.1096
C15A C 1.3191(4) -0.5438(4) -0.0246(3)
H7A H 1.4023 -0.6160 -0.0508
C16A C 1.2477(4) -0.5937(4) 0.0910(3)
H8A H 1.2836 -0.6962 0.1408
N1A N 0.5773(2) -0.2571(2) 0.54756(17)
N2A N 0.9287(2) -0.4387(2) 0.30327(17)
N3A N 0.9432(3) -0.6954(2) 0.42188(18)
N4A N 1.0455(3) -0.6906(2) 0.32100(18)
N5A N 1.2760(3) -0.3992(3) -0.1002(2)
O1A O 0.5038(2) 0.0107(2) -0.32021(14)
O1A_2 O 0.5038(2) 0.0107(2) 0.67979(14)
O2A O 0.7632(2) -0.0190(2) -0.27786(15)
O3A O 0.2522(2) -0.0321(2) 0.55121(18)
H9A H 1.107(4) -0.779(3) 0.308(4)
H10A H 0.318(4) 0.014(4) -0.141(3)
H11A H 0.777(4) -0.007(4) -0.059(3)
H13A H 0.194(4) -0.005(4) 0.610(2)
H15A H 0.203(4) -0.079(4) 0.517(3)
O4 O 0.0535(2) 0.0846(2) 0.73532(19)
H12 H 0.054(4) 0.184(2) 0.722(3)
H14 H -0.042(3) 0.068(4) 0.736(3)
loop_
_geom_bond_atom_site_label_1
_geom_bond_atom_site_label_2
_geom_bond_site_symmetry_1
_geom_bond_site_symmetry_2
Zn1 N1 1_555 1_555
C1 C2 1_555 1_555
C2 C3 1_555 1_555
C3 H11 1_555 1_555
C4 C2 1_555 1_555
C5 H1 1_555 1_555
C6 C5 1_555 1_555
H2 C6 1_555 1_555
C7 C6 1_555 1_555
H3 C7 1_555 1_555
C8 C7 1_555 1_555
C9 C8 1_555 1_555
H4 C9 1_555 1_555
C10 C8 1_555 1_555
C11 C12 1_555 1_555
C12 C13 1_555 1_555
C13 H5 1_555 1_555
C14 C13 1_555 1_555
H6 C14 1_555 1_555
C15 H7 1_555 1_555
C16 C12 1_555 1_555
H8 C16 1_555 1_555
N1 C5 1_555 1_555
N2 C10 1_555 1_555
N3 C10 1_555 1_555
N4 C11 1_555 1_555
N5 C14 1_555 1_555
O1 Zn1 1_555 1_555
O2 C1 1_555 1_555
O3 Zn1 1_555 1_555
O4 H12 1_555 1_555
H9 N4 1_555 1_555
H10 C4 1_555 1_555
H13 O3 1_555 1_555
H14 O4 1_555 1_555
H15 O3 1_555 1_555
Zn1_2 O1A 1_555 1_555
C1A C2A 1_555 1_555
C2A C3A 1_555 1_555
C3A C4 1_555 1_555
C4A C3 1_555 1_555
C5A H1A 1_555 1_555
C6A C5A 1_555 1_555
H2A C6A 1_555 1_555
C7A C6A 1_555 1_555
H3A C7A 1_555 1_555
C8A C7A 1_555 1_555
C9A C8A 1_555 1_555
H4A C9A 1_555 1_555
C10A C8A 1_555 1_555
C11A C12A 1_555 1_555
C12A C13A 1_555 1_555
C13A H5A 1_555 1_555
C14A C13A 1_555 1_555
H6A C14A 1_555 1_555
C15A H7A 1_555 1_555
C16A C12A 1_555 1_555
H8A C16A 1_555 1_555
N1A Zn1 1_555 1_555
N2A C10A 1_555 1_555
N3A C10A 1_555 1_555
N4A C11A 1_555 1_555
N5A C14A 1_555 1_555
O1A C1A 1_555 1_555
O1A_2 Zn1 1_555 1_555
O2A C1A 1_555 1_555
O3A Zn1 1_555 1_555
H9A N4A 1_555 1_555
H10A C4A 1_555 1_555
H11A C3A 1_555 1_555
H13A O3A 1_555 1_555
H15A O3A 1_555 1_555
C1 O1 1_555 1_555
C9 N1 1_555 1_555
C11 N2 1_555 1_555
C15 C16 1_555 1_555
C15 N5 1_555 1_555
N3 N4 1_555 1_555
C2A C4A 1_555 1_555
C5A N1A 1_555 1_555
C9A N1A 1_555 1_555
C11A N2A 1_555 1_555
C15A C16A 1_555 1_555
C15A N5A 1_555 1_555
N3A N4A 1_555 1_555

#END
