
#######################################################################
#
#                 Cambridge Crystallographic Data Centre
#                                CCDC 
#
#######################################################################
#
# If this CIF has been generated from an entry in the Cambridge 
# Structural Database, then it will include bibliographic, chemical, 
# crystal, experimental, refinement or atomic coordinate data resulting 
# from the CCDC's data processing and validation procedures.
#
#######################################################################

data_NUXLUN
_symmetry_cell_setting           monoclinic
_symmetry_space_group_name_H-M   'P 21/c'
_symmetry_Int_Tables_number      14
_space_group_name_Hall           '-P 2ybc'
loop_
_symmetry_equiv_pos_site_id
_symmetry_equiv_pos_as_xyz
1 x,y,z
2 -x,1/2+y,1/2-z
3 -x,-y,-z
4 x,1/2-y,1/2+z
_cell_length_a                   8.0756(1)
_cell_length_b                   7.5872(1)
_cell_length_c                   7.4100(1)
_cell_angle_alpha                90
_cell_angle_beta                 116.319(1)
_cell_angle_gamma                90
_cell_volume                     406.956
loop_
_atom_site_label
_atom_site_type_symbol
_atom_site_fract_x
_atom_site_fract_y
_atom_site_fract_z
Cu1 Cu -0.0551(2) -0.1890(2) -0.0912(2)
P1 P 0.2149(3) -0.4487(4) 0.2634(4)
O1 O 0.2132(6) -0.6000(5) 0.1176(7)
O2 O 0.1015(5) -0.4881(6) 0.3710(6)
O3 O 0.1599(5) -0.2723(5) 0.1464(6)
O4 O 1.2712(6) -0.9411(6) 1.3057(8)
C1 C 0.4582(6) -0.4148(5) 0.4445(9)
Cu1C Cu -0.0551(2) -0.3110(2) 0.4088(2)
O2A O -0.1015(5) 0.0119(6) 0.1290(6)
O1B O -0.2132(6) -0.4000(5) -0.1176(7)
O2C O 0.1015(5) -0.0119(6) -0.1290(6)
Cu1B Cu 0.0551(2) -0.8110(2) 0.0912(2)
Cu1A Cu 0.0551(2) -0.6890(2) 0.5912(2)
C1B C 0.5418(6) -0.5852(5) 0.5555(9)
P1B P 0.7851(3) -0.5513(4) 0.7366(4)
O1B_2 O 0.7868(6) -0.4000(5) 0.8824(7)
Cu1_2 Cu 0.9449(2) -0.1890(2) 0.9088(2)
O2B O 0.8985(5) -0.5119(6) 0.6290(6)
Cu1A_2 Cu 1.0551(2) -0.6890(2) 0.5912(2)
Cu1C_2 Cu 0.9449(2) -0.3110(2) 0.4088(2)
O3B O 0.8401(5) -0.7277(5) 0.8536(6)
Cu1B_2 Cu 1.0551(2) -0.8110(2) 1.0912(2)
O1_2 O 1.2132(6) -0.6000(5) 1.1176(7)
O2A_2 O 0.8985(5) -0.9881(6) 1.1290(6)
O2C_2 O 1.1015(5) -1.0119(6) 0.8710(6)
O4B O -0.2712(6) -0.0589(6) -0.3057(8)
loop_
_geom_bond_atom_site_label_1
_geom_bond_atom_site_label_2
_geom_bond_site_symmetry_1
_geom_bond_site_symmetry_2
Cu1 O3 1_555 1_555
P1 O1 1_555 1_555
O1 Cu1B 1_555 1_555
O2 P1 1_555 1_555
O3 P1 1_555 1_555
O4 Cu1B_2 1_555 1_555
C1 P1 1_555 1_555
Cu1C O2 1_555 1_555
O2A Cu1 1_555 1_555
O1B Cu1 1_555 1_555
O2C Cu1 1_555 1_555
Cu1A O2 1_555 1_555
C1B C1 1_555 1_555
P1B C1B 1_555 1_555
O1B_2 P1B 1_555 1_555
Cu1_2 O1B_2 1_555 1_555
O2B P1B 1_555 1_555
Cu1A_2 O2B 1_555 1_555
Cu1C_2 O2B 1_555 1_555
O3B P1B 1_555 1_555
Cu1B_2 O3B 1_555 1_555
O1_2 Cu1B_2 1_555 1_555
O2A_2 Cu1B_2 1_555 1_555
O2C_2 Cu1B_2 1_555 1_555
O4B Cu1 1_555 1_555

#END
