
#######################################################################
#
#                 Cambridge Crystallographic Data Centre
#                                CCDC 
#
#######################################################################
#
# If this CIF has been generated from an entry in the Cambridge 
# Structural Database, then it will include bibliographic, chemical, 
# crystal, experimental, refinement or atomic coordinate data resulting 
# from the CCDC's data processing and validation procedures.
#
#######################################################################

data_NUXLEY
_symmetry_cell_setting           orthorhombic
_symmetry_space_group_name_H-M   'P 21 21 21'
_symmetry_Int_Tables_number      19
_space_group_name_Hall           'P 2ac 2ab'
loop_
_symmetry_equiv_pos_site_id
_symmetry_equiv_pos_as_xyz
1 x,y,z
2 1/2-x,-y,1/2+z
3 1/2+x,1/2-y,-z
4 -x,1/2+y,1/2-z
_cell_length_a                   13.8544(13)
_cell_length_b                   14.6245(13)
_cell_length_c                   17.9282(17)
_cell_angle_alpha                90
_cell_angle_beta                 90
_cell_angle_gamma                90
_cell_volume                     3632.5
loop_
_atom_site_label
_atom_site_type_symbol
_atom_site_fract_x
_atom_site_fract_y
_atom_site_fract_z
Cd1 Cd 0.18198(2) 0.83990(2) 0.612676(19)
N1 N 0.3040(3) 0.9479(3) 0.6150(3)
N2 N 0.4379(3) 1.0206(3) 0.6403(2)
N3 N 0.8949(3) 0.9570(3) 0.5780(3)
N4 N 1.0378(3) 0.9115(3) 0.6157(3)
N5 N 0.7590(3) 1.3434(3) 0.6397(2)
N6 N 0.8122(3) 1.3617(3) 0.7549(2)
O1 O 0.0893(3) 0.6954(3) 0.5870(3)
O2 O 0.2237(3) 0.6891(3) 0.6502(2)
O3 O 0.2330(3) 0.2084(3) 1.0058(2)
O4 O 0.3409(3) 0.1126(3) 0.9610(3)
O5 O 0.0139(3) 0.2183(3) 0.6432(3)
O6 O 0.1787(4) 0.2015(3) 0.5915(2)
S1 S 0.11499(13) 0.24064(10) 0.64525(8)
C1 C 0.1519(4) 0.6518(4) 0.6205(3)
C2 C 0.1441(4) 0.5492(4) 0.6273(3)
C3 C 0.0591(4) 0.5062(4) 0.6071(4)
H3 H 0.0078 0.5408 0.5894
C4 C 0.0494(4) 0.4120(4) 0.6130(4)
H4 H -0.0079 0.3834 0.5993
C5 C 0.1263(4) 0.3617(4) 0.6397(3)
C6 C 0.2119(4) 0.4046(4) 0.6591(3)
H5 H 0.2639 0.3700 0.6758
C7 C 0.2202(4) 0.4974(4) 0.6538(3)
H6 H 0.2773 0.5259 0.6681
C8 C 0.2734(4) 0.1673(5) 0.9527(3)
C9 C 0.2344(4) 0.1841(3) 0.8759(3)
C10 C 0.1402(4) 0.2112(4) 0.8659(3)
H7 H 0.1008 0.2199 0.9073
C11 C 0.1035(4) 0.2257(4) 0.7957(3)
H8 H 0.0394 0.2430 0.7897
C12 C 0.1622(4) 0.2144(3) 0.7340(3)
C13 C 0.2555(4) 0.1876(4) 0.7425(3)
H9 H 0.2950 0.1808 0.7009
C14 C 0.2920(4) 0.1703(4) 0.8130(3)
H10 H 0.3551 0.1495 0.8185
C15 C 0.3755(4) 0.9562(4) 0.6617(3)
H11 H 0.3822 0.9214 0.7048
C16 C 0.3223(5) 1.0096(4) 0.5603(3)
H12 H 0.2841 1.0190 0.5183
C17 C 0.4037(5) 1.0549(5) 0.5761(4)
H13 H 0.4313 1.1014 0.5479
C18 C 0.5222(4) 1.0518(5) 0.6833(3)
H14 H 0.5436 1.0027 0.7157
H15 H 0.5032 1.1028 0.7146
C19 C 0.9779(4) 0.9172(4) 0.5590(3)
H16 H 0.9918 0.8960 0.5113
C20 C 0.9904(4) 0.9508(5) 0.6739(3)
H17 H 1.0151 0.9578 0.7218
C21 C 0.9024(5) 0.9779(5) 0.6514(4)
H18 H 0.8554 1.0057 0.6807
C22 C 0.8122(4) 0.9734(5) 0.5277(3)
H19 H 0.7775 0.9166 0.5198
H20 H 0.8356 0.9945 0.4797
C23 C 0.7860(4) 1.3024(4) 0.7043(3)
H21 H 0.7859 1.2395 0.7117
C24 C 0.8017(4) 1.4454(4) 0.7205(3)
H22 H 0.8148 1.5014 0.7428
C25 C 0.7701(4) 1.4349(4) 0.6506(3)
H23 H 0.7581 1.4810 0.6162
C26 C 0.7231(6) 1.3018(4) 0.5707(3)
H24 H 0.7710 1.3095 0.5317
H25 H 0.6648 1.3331 0.5551
C27 C 0.6050(4) 1.0810(4) 0.6342(3)
C28 C 0.6669(4) 1.0152(4) 0.6029(3)
C29 C 0.7446(4) 1.0437(4) 0.5601(3)
C30 C 0.7642(4) 1.1363(4) 0.5505(3)
C31 C 0.7016(4) 1.2007(4) 0.5803(3)
C32 C 0.6210(4) 1.1735(4) 0.6210(3)
C33 C 0.6491(5) 0.9155(4) 0.6188(5)
H26 H 0.5945 0.8949 0.5903
H27 H 0.6363 0.9074 0.6710
H28 H 0.7050 0.8806 0.6050
C34 C 0.8559(4) 1.1651(6) 0.5084(4)
H29 H 0.8873 1.1118 0.4887
H30 H 0.8987 1.1962 0.5420
H31 H 0.8388 1.2053 0.4682
C35 C 0.5509(4) 1.2478(4) 0.6519(4)
H32 H 0.4858 1.2324 0.6385
H33 H 0.5673 1.3062 0.6309
H34 H 0.5564 1.2506 0.7052
Cd1_2 Cd 1.18198(2) 0.83990(2) 0.612676(19)
Cd1A Cd 0.31802(2) 0.16010(2) 1.112676(19)
Cd1C Cd 0.81802(2) 1.33990(2) 0.887324(19)
N4_2 N 0.0378(3) 0.9115(3) 0.6157(3)
N6C N 0.1878(3) 0.8617(3) 0.7451(2)
O3A O 0.2670(3) 0.7916(3) 0.5058(2)
O7 O 0.4253(4) 0.6615(5) 0.6557(3)
H1 H 0.3642 0.6664 0.6563
H36 H 0.4490 0.7054 0.6249
O8 O 0.0321(3) 0.2106(4) 0.0484(3)
H35 H -0.0166 0.1839 0.0264
H38 H 0.0887 0.1957 0.0285
O9 O 0.4827(5) 0.9940(5) 0.8736(4)
H2 H 0.5033 1.0483 0.8679
H37 H 0.5301 0.9568 0.8527
loop_
_geom_bond_atom_site_label_1
_geom_bond_atom_site_label_2
_geom_bond_site_symmetry_1
_geom_bond_site_symmetry_2
Cd1 N1 1_555 1_555
N1 C15 1_555 1_555
N2 C15 1_555 1_555
N3 C19 1_555 1_555
N4 C19 1_555 1_555
N5 C23 1_555 1_555
N6 C23 1_555 1_555
O1 Cd1 1_555 1_555
O2 Cd1 1_555 1_555
O3 C8 1_555 1_555
O4 C8 1_555 1_555
O5 S1 1_555 1_555
O6 S1 1_555 1_555
O7 H1 1_555 1_555
O8 H35 1_555 1_555
O9 H2 1_555 1_555
S1 C5 1_555 1_555
C1 O1 1_555 1_555
C2 C1 1_555 1_555
C3 C2 1_555 1_555
H3 C3 1_555 1_555
C4 C3 1_555 1_555
H4 C4 1_555 1_555
C5 C4 1_555 1_555
C6 C5 1_555 1_555
H5 C6 1_555 1_555
C7 C2 1_555 1_555
H6 C7 1_555 1_555
C8 C9 1_555 1_555
C9 C10 1_555 1_555
C10 H7 1_555 1_555
C11 C10 1_555 1_555
H8 C11 1_555 1_555
C12 S1 1_555 1_555
C13 C12 1_555 1_555
H9 C13 1_555 1_555
C14 C9 1_555 1_555
H10 C14 1_555 1_555
C15 H11 1_555 1_555
C16 N1 1_555 1_555
H12 C16 1_555 1_555
C17 N2 1_555 1_555
H13 C17 1_555 1_555
C18 N2 1_555 1_555
H14 C18 1_555 1_555
H15 C18 1_555 1_555
C19 H16 1_555 1_555
C20 N4 1_555 1_555
H17 C20 1_555 1_555
C21 N3 1_555 1_555
H18 C21 1_555 1_555
C22 N3 1_555 1_555
H19 C22 1_555 1_555
H20 C22 1_555 1_555
C23 H21 1_555 1_555
C24 N6 1_555 1_555
H22 C24 1_555 1_555
C25 N5 1_555 1_555
H23 C25 1_555 1_555
C26 N5 1_555 1_555
H24 C26 1_555 1_555
H25 C26 1_555 1_555
C27 C18 1_555 1_555
C28 C27 1_555 1_555
C29 C22 1_555 1_555
C30 C29 1_555 1_555
C31 C26 1_555 1_555
C32 C27 1_555 1_555
C33 C28 1_555 1_555
H26 C33 1_555 1_555
H27 C33 1_555 1_555
H28 C33 1_555 1_555
C34 C30 1_555 1_555
H29 C34 1_555 1_555
H30 C34 1_555 1_555
H31 C34 1_555 1_555
C35 C32 1_555 1_555
H32 C35 1_555 1_555
H33 C35 1_555 1_555
H34 C35 1_555 1_555
H36 O7 1_555 1_555
H37 O9 1_555 1_555
H38 O8 1_555 1_555
Cd1_2 N4 1_555 1_555
Cd1A O3 1_555 1_555
Cd1C N6 1_555 1_555
N4_2 Cd1 1_555 1_555
N6C Cd1 1_555 1_555
O3A Cd1 1_555 1_555
O2 C1 1_555 1_555
C6 C7 1_555 1_555
C11 C12 1_555 1_555
C13 C14 1_555 1_555
C16 C17 1_555 1_555
C20 C21 1_555 1_555
C24 C25 1_555 1_555
C28 C29 1_555 1_555
C30 C31 1_555 1_555
C31 C32 1_555 1_555

#END
