
#######################################################################
#
#                 Cambridge Crystallographic Data Centre
#                                CCDC 
#
#######################################################################
#
# If this CIF has been generated from an entry in the Cambridge 
# Structural Database, then it will include bibliographic, chemical, 
# crystal, experimental, refinement or atomic coordinate data resulting 
# from the CCDC's data processing and validation procedures.
#
#######################################################################

data_NUXLAU
_symmetry_cell_setting           orthorhombic
_symmetry_space_group_name_H-M   'P 21 21 21'
_symmetry_Int_Tables_number      19
_space_group_name_Hall           'P 2ac 2ab'
loop_
_symmetry_equiv_pos_site_id
_symmetry_equiv_pos_as_xyz
1 x,y,z
2 1/2-x,-y,1/2+z
3 -x,1/2+y,1/2-z
4 1/2+x,1/2-y,-z
_cell_length_a                   10.4927(13)
_cell_length_b                   10.6448(14)
_cell_length_c                   45.543(6)
_cell_angle_alpha                90
_cell_angle_beta                 90
_cell_angle_gamma                90
_cell_volume                     5086.82
loop_
_atom_site_label
_atom_site_type_symbol
_atom_site_fract_x
_atom_site_fract_y
_atom_site_fract_z
Zn1 Zn 0.77318(3) 0.24872(4) 0.027272(7)
Zn2 Zn -0.08957(3) 0.02407(3) 0.272231(7)
N1 N 0.8200(3) 0.0715(3) 0.01586(6)
N2 N 0.9356(2) -0.0913(3) 0.00288(6)
N3 N 1.1658(2) -0.2473(3) -0.24346(5)
N4 N 1.2685(2) -0.4110(3) -0.25988(6)
N5 N 0.9180(3) 0.3152(3) 0.05142(6)
N6 N 1.0836(3) 0.4233(3) 0.06657(7)
N7 N 0.8216(3) 1.3316(3) 0.17833(7)
N8 N 0.9716(2) 1.4487(3) 0.19753(6)
O1 O 0.6378(2) 0.2283(2) 0.05783(5)
O2 O 0.5247(2) 0.1933(3) 0.01806(5)
O3 O 0.2405(2) 0.1365(3) 0.00481(5)
O4 O 0.3532(3) -0.0376(3) 0.01125(5)
O5 O 0.0260(2) 0.0793(2) 0.23889(5)
O6 O 0.0307(2) -0.1269(2) 0.23743(5)
O7 O 0.2776(2) -0.2654(2) 0.24229(5)
O8 O 0.1544(2) -0.3321(2) 0.20545(5)
O9 O 0.4425(2) 0.2668(2) 0.15389(4)
O10 O 0.2106(2) 0.3023(2) 0.15128(5)
S1 S 0.31751(8) 0.21951(8) 0.147497(16)
C1 C 0.5350(3) 0.1964(3) 0.04479(7)
C2 C 0.4232(3) 0.1608(3) 0.06380(6)
C3 C 0.4232(3) 0.1939(3) 0.09301(6)
H1 H 0.4928 0.2360 0.1009
C4 C 0.3197(3) 0.1646(3) 0.11071(7)
C5 C 0.2173(3) 0.1009(3) 0.09918(7)
H2 H 0.1485 0.0802 0.1111
C6 C 0.2171(3) 0.0680(3) 0.06998(7)
H3 H 0.1477 0.0247 0.0623
C7 C 0.3188(3) 0.0984(3) 0.05188(7)
C8 C 0.3086(3) 0.0610(3) 0.01976(7)
C9 C 0.0698(3) -0.0240(3) 0.22918(6)
C10 C 0.1739(3) -0.0223(3) 0.20665(6)
C11 C 0.1962(3) 0.0849(3) 0.18997(6)
H4 H 0.1482 0.1571 0.1931
C12 C 0.2895(3) 0.0839(3) 0.16879(6)
C13 C 0.3646(3) -0.0220(3) 0.16461(7)
H5 H 0.4307 -0.0205 0.1510
C14 C 0.3409(3) -0.1297(3) 0.18070(7)
H6 H 0.3891 -0.2017 0.1774
C15 C 0.2454(3) -0.1304(3) 0.20172(6)
C16 C 0.2239(3) -0.2510(3) 0.21870(6)
C17 C 0.9342(3) 0.0329(4) 0.00750(7)
H7 H 1.0044 0.0853 0.0051
C18 C 0.7458(3) -0.0348(4) 0.01640(8)
H8 H 0.6600 -0.0373 0.0215
C19 C 0.8168(3) -0.1355(4) 0.00838(9)
H9 H 0.7894 -0.2184 0.0069
C20 C 1.0432(3) -0.1661(4) -0.00859(7)
H10 H 1.0341 -0.2524 -0.0021
H11 H 1.1222 -0.1337 -0.0005
C21 C 1.0511(3) -0.1638(3) -0.04150(7)
C22 C 1.0990(5) -0.0609(4) -0.05581(8)
H12 H 1.1266 0.0080 -0.0450
C23 C 1.1066(5) -0.0582(4) -0.08599(9)
H13 H 1.1389 0.0132 -0.0952
C24 C 1.0676(3) -0.1587(3) -0.10306(7)
C25 C 1.0196(3) -0.2618(4) -0.08862(8)
H14 H 0.9932 -0.3313 -0.0994
C26 C 1.0100(3) -0.2638(4) -0.05811(8)
H15 H 0.9753 -0.3338 -0.0489
C27 C 1.0818(3) -0.1545(3) -0.13534(7)
C28 C 1.0408(4) -0.0520(3) -0.15121(8)
H16 H 0.9994 0.0133 -0.1416
C29 C 1.0600(3) -0.0446(3) -0.18108(7)
H17 H 1.0322 0.0261 -0.1912
C30 C 1.1198(3) -0.1404(3) -0.19623(7)
C31 C 1.1584(3) -0.2437(4) -0.18026(7)
H18 H 1.1982 -0.3100 -0.1899
C32 C 1.1396(3) -0.2511(3) -0.15066(7)
H19 H 1.1661 -0.3225 -0.1406
C33 C 1.1469(3) -0.1269(3) -0.22859(8)
H20 H 1.0763 -0.0832 -0.2378
H21 H 1.2227 -0.0759 -0.2311
C34 C 1.2790(3) -0.2970(3) -0.24942(7)
H22 H 1.3561 -0.2559 -0.2465
C35 C 1.0763(4) -0.3345(4) -0.25001(10)
H23 H 0.9885 -0.3271 -0.2478
C36 C 1.1415(3) -0.4348(4) -0.26052(11)
H24 H 1.1046 -0.5089 -0.2672
C37 C 1.0102(3) 0.3916(4) 0.04378(8)
H25 H 1.0229 0.4203 0.0247
C38 C 0.9345(5) 0.2984(4) 0.08055(9)
H26 H 0.8834 0.2477 0.0923
C39 C 1.0343(5) 0.3648(4) 0.09029(10)
H27 H 1.0637 0.3696 0.1095
C40 C 1.1762(4) 0.5268(5) 0.06743(10)
H28 H 1.2028 0.5482 0.0477
H29 H 1.2510 0.5016 0.0785
C41 C 1.1141(4) 0.6395(5) 0.08187(10)
C42 C 1.0002(5) 0.6871(5) 0.07112(10)
H30 H 0.9677 0.6558 0.0536
C43 C 0.9344(5) 0.7797(4) 0.08576(9)
H31 H 0.8574 0.8081 0.0781
C44 C 0.9799(4) 0.8311(4) 0.11146(9)
C45 C 1.0954(5) 0.7847(4) 0.12172(10)
H32 H 1.1299 0.8174 0.1389
C46 C 1.1598(4) 0.6917(5) 0.10705(11)
H33 H 1.2371 0.6634 0.1145
C47 C 0.9102(4) 0.9293(3) 0.12780(8)
C48 C 0.8265(4) 1.0105(4) 0.11380(9)
H34 H 0.8118 1.0018 0.0938
C49 C 0.7648(4) 1.1036(4) 0.12915(10)
H35 H 0.7090 1.1566 0.1192
C50 C 0.7836(4) 1.1205(4) 0.15873(10)
C51 C 0.8628(4) 1.0365(5) 0.17276(10)
H36 H 0.8755 1.0444 0.1929
C52 C 0.9237(4) 0.9418(4) 0.15791(9)
H37 H 0.9745 0.8853 0.1682
C53 C 0.7277(4) 1.2294(4) 0.17528(11)
H38 H 0.6533 1.2604 0.1649
H39 H 0.7009 1.2017 0.1946
C54 C 0.8947(3) 1.3519(3) 0.20150(8)
H40 H 0.8922 1.3038 0.2185
C55 C 0.8557(4) 1.4201(4) 0.15795(10)
H41 H 0.8217 1.4287 0.1392
C56 C 0.9479(4) 1.4927(4) 0.16999(8)
H42 H 0.9878 1.5607 0.1611
Zn1C Zn 0.27318(3) 0.25128(4) -0.027272(7)
Zn2B Zn 0.08957(3) -0.47593(3) 0.227769(7)
Zn2B_2 Zn 1.08957(3) 1.52407(3) 0.227769(7)
Zn2C Zn 1.41043(3) -0.52407(3) -0.272231(7)
N4C N -0.2315(2) -0.0890(3) 0.25988(6)
N8B N 0.0284(2) -0.0513(3) 0.30247(6)
O3C O 0.7405(2) 0.3635(3) -0.00481(5)
O8B O -0.1544(2) 0.1679(2) 0.29455(5)
loop_
_geom_bond_atom_site_label_1
_geom_bond_atom_site_label_2
_geom_bond_site_symmetry_1
_geom_bond_site_symmetry_2
Zn1 N1 1_555 1_555
Zn2 O5 1_555 1_555
N1 C17 1_555 1_555
N2 C17 1_555 1_555
N3 C33 1_555 1_555
N4 C34 1_555 1_555
N5 Zn1 1_555 1_555
N6 C37 1_555 1_555
N7 C53 1_555 1_555
N8 C54 1_555 1_555
O1 Zn1 1_555 1_555
O2 C1 1_555 1_555
O3 C8 1_555 1_555
O4 C8 1_555 1_555
O5 C9 1_555 1_555
O6 C9 1_555 1_555
O7 C16 1_555 1_555
O8 C16 1_555 1_555
O9 S1 1_555 1_555
O10 S1 1_555 1_555
S1 C4 1_555 1_555
C1 O1 1_555 1_555
C2 C1 1_555 1_555
C3 C2 1_555 1_555
H1 C3 1_555 1_555
C4 C3 1_555 1_555
C5 C4 1_555 1_555
H2 C5 1_555 1_555
C6 C5 1_555 1_555
H3 C6 1_555 1_555
C7 C2 1_555 1_555
C8 C7 1_555 1_555
C9 C10 1_555 1_555
C10 C11 1_555 1_555
C11 H4 1_555 1_555
C12 S1 1_555 1_555
C13 C12 1_555 1_555
H5 C13 1_555 1_555
C14 C13 1_555 1_555
H6 C14 1_555 1_555
C15 C10 1_555 1_555
C16 C15 1_555 1_555
C17 H7 1_555 1_555
C18 N1 1_555 1_555
H8 C18 1_555 1_555
C19 N2 1_555 1_555
H9 C19 1_555 1_555
C20 N2 1_555 1_555
H10 C20 1_555 1_555
H11 C20 1_555 1_555
C21 C20 1_555 1_555
C22 C21 1_555 1_555
H12 C22 1_555 1_555
C23 C22 1_555 1_555
H13 C23 1_555 1_555
C24 C23 1_555 1_555
C25 C24 1_555 1_555
H14 C25 1_555 1_555
C26 C21 1_555 1_555
H15 C26 1_555 1_555
C27 C24 1_555 1_555
C28 C27 1_555 1_555
H16 C28 1_555 1_555
C29 C28 1_555 1_555
H17 C29 1_555 1_555
C30 C29 1_555 1_555
C31 C30 1_555 1_555
H18 C31 1_555 1_555
C32 C27 1_555 1_555
H19 C32 1_555 1_555
C33 C30 1_555 1_555
H20 C33 1_555 1_555
H21 C33 1_555 1_555
C34 N3 1_555 1_555
H22 C34 1_555 1_555
C35 N3 1_555 1_555
H23 C35 1_555 1_555
C36 N4 1_555 1_555
H24 C36 1_555 1_555
C37 N5 1_555 1_555
H25 C37 1_555 1_555
C38 N5 1_555 1_555
H26 C38 1_555 1_555
C39 N6 1_555 1_555
H27 C39 1_555 1_555
C40 N6 1_555 1_555
H28 C40 1_555 1_555
H29 C40 1_555 1_555
C41 C40 1_555 1_555
C42 C41 1_555 1_555
H30 C42 1_555 1_555
C43 C42 1_555 1_555
H31 C43 1_555 1_555
C44 C43 1_555 1_555
C45 C44 1_555 1_555
H32 C45 1_555 1_555
C46 C41 1_555 1_555
H33 C46 1_555 1_555
C47 C44 1_555 1_555
C48 C47 1_555 1_555
H34 C48 1_555 1_555
C49 C48 1_555 1_555
H35 C49 1_555 1_555
C50 C49 1_555 1_555
C51 C50 1_555 1_555
H36 C51 1_555 1_555
C52 C47 1_555 1_555
H37 C52 1_555 1_555
C53 C50 1_555 1_555
H38 C53 1_555 1_555
H39 C53 1_555 1_555
C54 N7 1_555 1_555
H40 C54 1_555 1_555
C55 N7 1_555 1_555
H41 C55 1_555 1_555
C56 N8 1_555 1_555
H42 C56 1_555 1_555
Zn1C O3 1_555 1_555
Zn2B O8 1_555 1_555
Zn2B_2 N8 1_555 1_555
Zn2C N4 1_555 1_555
N4C Zn2 1_555 1_555
N8B Zn2 1_555 1_555
O3C Zn1 1_555 1_555
O8B Zn2 1_555 1_555
C6 C7 1_555 1_555
C11 C12 1_555 1_555
C14 C15 1_555 1_555
C18 C19 1_555 1_555
C25 C26 1_555 1_555
C31 C32 1_555 1_555
C35 C36 1_555 1_555
C38 C39 1_555 1_555
C45 C46 1_555 1_555
C51 C52 1_555 1_555
C55 C56 1_555 1_555

#END
