
#######################################################################
#
#                 Cambridge Crystallographic Data Centre
#                                CCDC 
#
#######################################################################
#
# If this CIF has been generated from an entry in the Cambridge 
# Structural Database, then it will include bibliographic, chemical, 
# crystal, experimental, refinement or atomic coordinate data resulting 
# from the CCDC's data processing and validation procedures.
#
#######################################################################

data_NUXMOJ
_symmetry_cell_setting           orthorhombic
_symmetry_space_group_name_H-M   'A b a 2'
_symmetry_Int_Tables_number      41
_space_group_name_Hall           'A 2 -2ab'
loop_
_symmetry_equiv_pos_site_id
_symmetry_equiv_pos_as_xyz
1 x,y,z
2 -x,-y,z
3 1/2+x,1/2-y,z
4 1/2-x,1/2+y,z
5 x,1/2+y,1/2+z
6 -x,1/2-y,1/2+z
7 1/2+x,-y,1/2+z
8 1/2-x,y,1/2+z
_cell_length_a                   17.581(2)
_cell_length_b                   27.365(3)
_cell_length_c                   8.8889(11)
_cell_angle_alpha                90
_cell_angle_beta                 90
_cell_angle_gamma                90
_cell_volume                     4276.49
loop_
_atom_site_label
_atom_site_type_symbol
_atom_site_fract_x
_atom_site_fract_y
_atom_site_fract_z
Mn1 Mn 0.17316(3) 0.33977(2) 0.26758(9)
S1 S 0.0000 0.5000 -0.2933(3)
O3 O 0.1389(2) 0.34639(17) 0.4989(4)
H5 H 0.1028 0.3286 0.5247
H6 H 0.1650 0.3536 0.5744
O4 O 0.20754(19) 0.36014(11) -0.2108(4)
O5 O 0.1910(2) 0.33714(11) 0.0242(4)
O6 O 0.0183(3) 0.28227(19) 0.0098(7)
O7 O 0.0563(2) 0.32111(15) 0.2185(4)
O8 O 0.0714(5) 0.5084(2) -0.3731(7)
N1 N 0.2076(2) 0.25873(13) 0.2725(7)
N2 N 0.3370(2) -0.07480(14) 0.2308(5)
C1 C 0.1547(5) 0.2258(2) 0.2726(18)
H7 H 0.1052 0.2353 0.2957
C2 C 0.1687(5) 0.1770(3) 0.2396(18)
H8 H 0.1278 0.1565 0.2193
C3 C 0.2380(4) 0.15878(19) 0.2361(10)
C4 C 0.2902(5) 0.1908(3) 0.2718(16)
H9 H 0.3405 0.1807 0.2798
C5 C 0.2722(4) 0.2404(2) 0.2986(14)
H10 H 0.3100 0.2606 0.3374
C6 C 0.2506(5) 0.1056(2) 0.2113(9)
H11 H 0.2124 0.0886 0.1612
C7 C 0.3100(4) 0.08054(19) 0.2531(9)
H12 H 0.3496 0.0974 0.2990
C8 C 0.3191(3) 0.02730(19) 0.2331(6)
C9 C 0.2712(3) -0.00215(19) 0.1506(8)
H13 H 0.2319 0.0117 0.0951
C10 C 0.2812(3) -0.05192(18) 0.1499(7)
H14 H 0.2485 -0.0709 0.0920
C11 C 0.3847(3) -0.04579(19) 0.3030(6)
H15 H 0.4246 -0.0602 0.3553
C12 C 0.3791(4) 0.00452(19) 0.3060(7)
H16 H 0.4154 0.0230 0.3566
C13 C 0.0374(3) 0.3186(2) 0.0809(7)
C14 C 0.0322(3) 0.3665(2) -0.0056(6)
C15 C -0.0366(4) 0.3917(3) -0.0050(9)
H17 H -0.0770 0.3798 0.0518
C16 C -0.0456(5) 0.4335(3) -0.0868(9)
H18 H -0.0908 0.4511 -0.0821
C17 C 0.0129(4) 0.4490(3) -0.1757(7)
C18 C 0.0830(3) 0.4250(2) -0.1792(6)
H19 H 0.1225 0.4367 -0.2387
C19 C 0.0923(3) 0.38342(17) -0.0922(5)
C20 C 0.1688(3) 0.35784(16) -0.0921(5)
Mn1A Mn -0.17316(3) 0.66023(2) 0.26758(9)
Mn1G Mn 0.32684(3) 0.33977(2) -0.23242(9)
Mn1C Mn 0.32684(3) -0.16023(2) 0.26758(9)
Mn1F Mn -0.32684(3) 0.66023(2) -0.23242(9)
Mn1C_2 Mn 0.32684(3) 0.83977(2) 0.26758(9)
O3A O -0.1389(2) 0.65361(17) 0.4989(4)
H5A H -0.1028 0.6714 0.5247
H6A H -0.1650 0.6464 0.5744
O4A O -0.20754(19) 0.63986(11) -0.2108(4)
O4G O 0.29246(19) 0.36014(11) 0.2892(4)
O4F O -0.29246(19) 0.63986(11) 0.2892(4)
O5A O -0.1910(2) 0.66286(11) 0.0242(4)
O6A O -0.0183(3) 0.71773(19) 0.0098(7)
O7A O -0.0563(2) 0.67889(15) 0.2185(4)
O8A O -0.0714(5) 0.4916(2) -0.3731(7)
N1C N 0.2924(2) 0.75873(13) 0.2725(7)
N1A N -0.2076(2) 0.74127(13) 0.2725(7)
N2C N 0.1630(2) 0.42520(14) 0.2308(5)
N2B N -0.1630(2) 0.57480(14) 0.2308(5)
C1C C 0.3453(5) 0.7258(2) 0.2726(18)
H7C H 0.3948 0.7353 0.2957
C2C C 0.3313(5) 0.6770(3) 0.2396(18)
H8C H 0.3722 0.6565 0.2193
C3C C 0.2620(4) 0.65878(19) 0.2361(10)
C4C C 0.2098(5) 0.6908(3) 0.2718(16)
H9C H 0.1595 0.6807 0.2798
C5C C 0.2278(4) 0.7404(2) 0.2986(14)
H10C H 0.1900 0.7606 0.3374
C6C C 0.2494(5) 0.6056(2) 0.2113(9)
H11C H 0.2876 0.5886 0.1612
C7C C 0.1900(4) 0.58054(19) 0.2531(9)
H12C H 0.1504 0.5974 0.2990
C8C C 0.1809(3) 0.52730(19) 0.2331(6)
C9C C 0.2288(3) 0.49785(19) 0.1506(8)
H13C H 0.2681 0.5117 0.0951
C10C C 0.2188(3) 0.44808(18) 0.1499(7)
H14C H 0.2515 0.4291 0.0920
C11C C 0.1153(3) 0.45421(19) 0.3030(6)
H15C H 0.0754 0.4398 0.3553
C12C C 0.1209(4) 0.50452(19) 0.3060(7)
H16C H 0.0846 0.5230 0.3566
C13A C -0.0374(3) 0.6814(2) 0.0809(7)
C14A C -0.0322(3) 0.6335(2) -0.0056(6)
C15A C 0.0366(4) 0.6083(3) -0.0050(9)
H17A H 0.0770 0.6202 0.0518
C16A C 0.0456(5) 0.5665(3) -0.0868(9)
H18A H 0.0908 0.5489 -0.0821
C17A C -0.0129(4) 0.5510(3) -0.1757(7)
C18A C -0.0830(3) 0.5750(2) -0.1792(6)
H19A H -0.1225 0.5633 -0.2387
C19A C -0.0923(3) 0.61658(17) -0.0922(5)
C20A C -0.1688(3) 0.64216(16) -0.0921(5)
O1 O 0.5282(3) 0.2007(2) 0.6665(7)
H1 H 0.5194 0.2077 0.7555
H2 H 0.5068 0.2201 0.6081
O2 O 0.5392(5) 0.3705(4) 0.9384(13)
H3 H 0.5372 0.3437 0.9893
H4 H 0.5293 0.3628 0.8489
loop_
_geom_bond_atom_site_label_1
_geom_bond_atom_site_label_2
_geom_bond_site_symmetry_1
_geom_bond_site_symmetry_2
Mn1 O3 1_555 1_555
S1 O8 1_555 1_555
O1 H1 1_555 1_555
H2 O1 1_555 1_555
O2 H3 1_555 1_555
H4 O2 1_555 1_555
O3 H5 1_555 1_555
H6 O3 1_555 1_555
O4 C20 1_555 1_555
O5 Mn1 1_555 1_555
O6 C13 1_555 1_555
O7 Mn1 1_555 1_555
N1 Mn1 1_555 1_555
N2 C10 1_555 1_555
C1 N1 1_555 1_555
H7 C1 1_555 1_555
C2 C1 1_555 1_555
H8 C2 1_555 1_555
C3 C2 1_555 1_555
C4 C3 1_555 1_555
H9 C4 1_555 1_555
C5 N1 1_555 1_555
H10 C5 1_555 1_555
C6 C3 1_555 1_555
H11 C6 1_555 1_555
C7 C6 1_555 1_555
H12 C7 1_555 1_555
C8 C7 1_555 1_555
C9 C8 1_555 1_555
H13 C9 1_555 1_555
C10 C9 1_555 1_555
H14 C10 1_555 1_555
C11 N2 1_555 1_555
H15 C11 1_555 1_555
C12 C8 1_555 1_555
H16 C12 1_555 1_555
C13 O7 1_555 1_555
C14 C13 1_555 1_555
C15 C14 1_555 1_555
H17 C15 1_555 1_555
C16 C15 1_555 1_555
H18 C16 1_555 1_555
C17 S1 1_555 1_555
C18 C17 1_555 1_555
H19 C18 1_555 1_555
C19 C14 1_555 1_555
C20 O5 1_555 1_555
Mn1A O3A 1_555 1_555
Mn1G O4 1_555 1_555
Mn1C N2 1_555 1_555
Mn1F O4A 1_555 1_555
Mn1C_2 N1C 1_555 1_555
O3A H5A 1_555 1_555
H6A O3A 1_555 1_555
O4A C20A 1_555 1_555
O4G Mn1 1_555 1_555
O4F Mn1A 1_555 1_555
O5A Mn1A 1_555 1_555
O6A C13A 1_555 1_555
O7A Mn1A 1_555 1_555
O8A S1 1_555 1_555
N1C C1C 1_555 1_555
N1A Mn1A 1_555 1_555
N2C Mn1 1_555 1_555
N2B Mn1A 1_555 1_555
C1C H7C 1_555 1_555
C2C C1C 1_555 1_555
H8C C2C 1_555 1_555
C3C C2C 1_555 1_555
C4C C3C 1_555 1_555
H9C C4C 1_555 1_555
C5C N1C 1_555 1_555
H10C C5C 1_555 1_555
C6C C3C 1_555 1_555
H11C C6C 1_555 1_555
C7C C6C 1_555 1_555
H12C C7C 1_555 1_555
C8C C7C 1_555 1_555
C9C C8C 1_555 1_555
H13C C9C 1_555 1_555
C10C N2C 1_555 1_555
H14C C10C 1_555 1_555
C11C N2C 1_555 1_555
H15C C11C 1_555 1_555
C12C C8C 1_555 1_555
H16C C12C 1_555 1_555
C13A O7A 1_555 1_555
C14A C13A 1_555 1_555
C15A C14A 1_555 1_555
H17A C15A 1_555 1_555
C16A C15A 1_555 1_555
H18A C16A 1_555 1_555
C17A S1 1_555 1_555
C18A C17A 1_555 1_555
H19A C18A 1_555 1_555
C19A C14A 1_555 1_555
C20A O5A 1_555 1_555
C4 C5 1_555 1_555
C11 C12 1_555 1_555
C16 C17 1_555 1_555
C18 C19 1_555 1_555
C19 C20 1_555 1_555
C4C C5C 1_555 1_555
C9C C10C 1_555 1_555
C11C C12C 1_555 1_555
C16A C17A 1_555 1_555
C18A C19A 1_555 1_555
C19A C20A 1_555 1_555

#END
