
#######################################################################
#
#                 Cambridge Crystallographic Data Centre
#                                CCDC 
#
#######################################################################
#
# If this CIF has been generated from an entry in the Cambridge 
# Structural Database, then it will include bibliographic, chemical, 
# crystal, experimental, refinement or atomic coordinate data resulting 
# from the CCDC's data processing and validation procedures.
#
#######################################################################

data_NUXMEY
_symmetry_cell_setting           monoclinic
_symmetry_space_group_name_H-M   'P 21/n'
_symmetry_Int_Tables_number      14
_space_group_name_Hall           '-P 2yn'
loop_
_symmetry_equiv_pos_site_id
_symmetry_equiv_pos_as_xyz
1 x,y,z
2 1/2-x,1/2+y,1/2-z
3 -x,-y,-z
4 1/2+x,1/2-y,1/2+z
_cell_length_a                   5.6861(8)
_cell_length_b                   15.230(2)
_cell_length_c                   4.7923(6)
_cell_angle_alpha                90
_cell_angle_beta                 91.936(2)
_cell_angle_gamma                90
_cell_volume                     414.773
loop_
_atom_site_label
_atom_site_type_symbol
_atom_site_fract_x
_atom_site_fract_y
_atom_site_fract_z
Zn1 Zn 1.5901(4) 0.2331(1) -1.4193(4)
P1 P 2.0882(7) 0.1430(2) -1.4768(8)
O1 O 1.8582(10) 0.1770(4) -1.6001(16)
O2 O 2.1051(11) 0.1492(5) -1.1638(10)
O3 O 2.2882(10) 0.1881(5) -1.6047(14)
O4 O 2.0937(10) 0.3657(5) -1.6098(13)
C1 C 2.1045(10) 0.0229(3) -1.5674(14)
Zn1C Zn 2.0901(4) 0.2669(1) -0.9193(4)
Zn1C_2 Zn 2.0901(4) 0.2669(1) -1.9193(4)
Zn1_2 Zn 2.5901(4) 0.2331(1) -1.4193(4)
O1C O 2.3582(10) 0.3230(4) -2.1001(16)
O2_2 O 2.1051(11) 0.1492(5) -2.1638(10)
O3C O 1.7882(10) 0.3119(5) -2.1047(14)
C1B C 1.8955(10) -0.0229(3) -1.4326(14)
P1B P 1.9118(7) -0.1430(2) -1.5232(8)
O1B O 2.1418(10) -0.1770(4) -1.3999(16)
Zn1B Zn 2.4099(4) -0.2331(1) -1.5807(4)
O3A O 2.2118(10) -0.3119(5) -0.8953(14)
Zn1A Zn 1.9099(4) -0.2669(1) -1.0807(4)
O1A O 1.6418(10) -0.3230(4) -0.8999(16)
O2B O 1.8949(11) -0.1492(5) -0.8362(10)
O3B O 1.7118(10) -0.1881(5) -1.3953(14)
Zn1B_2 Zn 1.4099(4) -0.2331(1) -1.5807(4)
O4B O 1.9063(10) -0.3657(5) -1.3902(13)
O2B_2 O 1.8949(11) -0.1492(5) -1.8362(10)
Zn1A_2 Zn 1.9099(4) -0.2669(1) -2.0807(4)
loop_
_geom_bond_atom_site_label_1
_geom_bond_atom_site_label_2
_geom_bond_site_symmetry_1
_geom_bond_site_symmetry_2
Zn1 O1 1_555 1_555
P1 O1 1_555 1_555
O1 Zn1C_2 1_555 1_555
O2 P1 1_555 1_555
O3 P1 1_555 1_555
O4 Zn1C_2 1_555 1_555
C1 P1 1_555 1_555
Zn1C O2 1_555 1_555
Zn1C_2 O3 1_555 1_555
Zn1_2 O3 1_555 1_555
O1C Zn1C_2 1_555 1_555
O2_2 Zn1C_2 1_555 1_555
O3C Zn1C_2 1_555 1_555
C1B C1 1_555 1_555
P1B C1B 1_555 1_555
O1B P1B 1_555 1_555
Zn1B O1B 1_555 1_555
O3A Zn1A 1_555 1_555
Zn1A O1B 1_555 1_555
O1A Zn1A 1_555 1_555
O2B Zn1A 1_555 1_555
O3B P1B 1_555 1_555
Zn1B_2 O3B 1_555 1_555
O4B Zn1A 1_555 1_555
O2B_2 P1B 1_555 1_555
Zn1A_2 O2B_2 1_555 1_555
Zn1A O3B 1_555 1_555

#END
