
#######################################################################
#
#                 Cambridge Crystallographic Data Centre
#                                CCDC 
#
#######################################################################
#
# If this CIF has been generated from an entry in the Cambridge 
# Structural Database, then it will include bibliographic, chemical, 
# crystal, experimental, refinement or atomic coordinate data resulting 
# from the CCDC's data processing and validation procedures.
#
#######################################################################

data_NUXNAW
_symmetry_cell_setting           orthorhombic
_symmetry_space_group_name_H-M   'P n a 21'
_symmetry_Int_Tables_number      33
_space_group_name_Hall           'P 2c -2n'
loop_
_symmetry_equiv_pos_site_id
_symmetry_equiv_pos_as_xyz
1 x,y,z
2 -x,-y,1/2+z
3 1/2+x,1/2-y,z
4 1/2-x,1/2+y,1/2+z
_cell_length_a                   26.0880(5)
_cell_length_b                   11.7108(2)
_cell_length_c                   18.8757(3)
_cell_angle_alpha                90
_cell_angle_beta                 90
_cell_angle_gamma                90
_cell_volume                     5766.74
loop_
_atom_site_label
_atom_site_type_symbol
_atom_site_fract_x
_atom_site_fract_y
_atom_site_fract_z
K1 K -0.15863(8) 0.82921(14) 1.07737(12)
K2 K -0.14163(5) 1.21742(10) 1.09810(8)
Ti1 Ti -0.15765(4) 1.50668(8) 1.05382(7)
O1 O -0.19507(17) 1.3752(3) 1.0147(2)
O2 O -0.1719(2) 1.5620(4) 0.9578(3)
C1 C -0.2103(2) 1.3847(5) 0.9477(4)
C2 C -0.1985(3) 1.4917(6) 0.9161(4)
C3 C -0.2139(3) 1.5150(7) 0.8471(4)
H1 H -0.2054 1.5851 0.8258
C4 C -0.2418(4) 1.4343(7) 0.8098(4)
H2 H -0.2531 1.4508 0.7637
C5 C -0.2529(3) 1.3306(7) 0.8395(4)
H3 H -0.2715 1.2766 0.8131
C6 C -0.2371(2) 1.3028(5) 0.9092(3)
C7 C -0.2502(2) 1.1903(5) 0.9370(3)
H4 H -0.2709 1.1427 0.9090
N1 N -0.23530(19) 1.1519(4) 0.9973(3)
N2 N -0.2543(2) 1.0421(4) 1.0137(3)
H5 H -0.2630 0.9919 0.9820
S1 S -0.25823(6) 1.02021(12) 1.09877(10)
O3 O -0.20894(17) 1.0446(4) 1.1279(3)
O4 O -0.2783(2) 0.9066(4) 1.1053(3)
C8 C -0.3033(2) 1.1184(5) 1.1326(4)
C9 C -0.2918(3) 1.2333(6) 1.1355(4)
H6 H -0.2593 1.2599 1.1216
C10 C -0.3288(3) 1.3087(7) 1.1590(5)
H7 H -0.3213 1.3871 1.1609
C11 C -0.3763(3) 1.2709(8) 1.1798(4)
C12 C -0.3861(3) 1.1578(8) 1.1770(5)
H8 H -0.4183 1.1309 1.1919
C13 C -0.3502(3) 1.0804(7) 1.1528(5)
H9 H -0.3582 1.0022 1.1504
C14 C -0.4163(4) 1.3565(11) 1.2041(7)
H10 H -0.4006 1.4112 1.2360
H11 H -0.4437 1.3167 1.2285
H12 H -0.4302 1.3963 1.1633
O5 O -0.16804(16) 0.4314(3) 1.1463(2)
O6 O -0.20852(18) 0.6086(4) 1.0953(3)
C15 C -0.2061(2) 0.4724(5) 1.1852(4)
C16 C -0.2286(3) 0.5729(5) 1.1579(4)
C17 C -0.2677(3) 0.6255(7) 1.1939(5)
H13 H -0.2825 0.6926 1.1756
C18 C -0.2857(3) 0.5795(7) 1.2578(5)
H14 H -0.3130 0.6142 1.2821
C19 C -0.2628(3) 0.4828(7) 1.2844(5)
H15 H -0.2741 0.4539 1.3281
C20 C -0.2232(2) 0.4259(6) 1.2489(4)
C21 C -0.2026(3) 0.3234(6) 1.2812(4)
H16 H -0.2158 0.3013 1.3254
N3 N -0.1678(2) 0.2615(5) 1.2540(3)
N4 N -0.1528(2) 0.1676(5) 1.2965(4)
H17 H -0.1724 0.1362 1.3283
S2 S -0.09482(7) 0.12503(14) 1.27940(11)
O7 O -0.0924(2) 0.0978(4) 1.2060(3)
O8 O -0.0854(3) 0.0365(5) 1.3292(4)
C22 C -0.0527(3) 0.2393(5) 1.2964(4)
C23 C -0.0467(3) 0.3241(6) 1.2456(4)
H18 H -0.0634 0.3203 1.2015
C24 C -0.0148(3) 0.4148(7) 1.2629(5)
H19 H -0.0101 0.4734 1.2295
C25 C 0.0101(3) 0.4223(8) 1.3268(5)
C26 C 0.0035(3) 0.3361(8) 1.3754(5)
H20 H 0.0213 0.3390 1.4187
C27 C -0.0287(3) 0.2457(7) 1.3616(4)
H21 H -0.0344 0.1890 1.3961
C28 C 0.0451(4) 0.5247(10) 1.3432(6)
H22 H 0.0383 0.5519 1.3908
H23 H 0.0384 0.5855 1.3095
H24 H 0.0806 0.5013 1.3395
O9 O -0.09535(15) 0.4146(3) 1.0475(2)
O10 O -0.10601(18) 0.6262(3) 1.0666(3)
C29 C -0.0518(2) 0.4713(5) 1.0533(3)
C30 C -0.0568(3) 0.5907(5) 1.0628(3)
C31 C -0.0146(3) 0.6603(6) 1.0670(4)
H25 H -0.0184 0.7391 1.0747
C32 C 0.0335(3) 0.6128(6) 1.0597(4)
H26 H 0.0626 0.6603 1.0607
C33 C 0.0396(3) 0.4980(7) 1.0512(5)
H27 H 0.0728 0.4678 1.0474
C34 C -0.0029(2) 0.4230(5) 1.0479(4)
C35 C 0.0064(3) 0.3013(6) 1.0397(4)
H28 H 0.0404 0.2770 1.0329
N5 N -0.0288(2) 0.2250(4) 1.0411(3)
N6 N -0.0098(2) 0.1129(5) 1.0314(3)
H29 H 0.0204 0.0905 1.0451
S3 S -0.05148(7) 0.02981(13) 0.99138(10)
O11 O -0.09773(19) 0.0280(4) 1.0327(3)
O12 O -0.0242(2) -0.0753(4) 0.9799(3)
C36 C -0.0654(3) 0.0946(5) 0.9100(4)
C37 C -0.0353(3) 0.0679(7) 0.8512(4)
H30 H -0.0092 0.0130 0.8548
C38 C -0.0443(4) 0.1227(8) 0.7874(5)
H31 H -0.0239 0.1050 0.7479
C39 C -0.0824(3) 0.2020(8) 0.7810(4)
C40 C -0.1110(3) 0.2285(7) 0.8401(4)
H32 H -0.1368 0.2842 0.8363
C41 C -0.1031(3) 0.1768(6) 0.9041(4)
H33 H -0.1232 0.1968 0.9435
C42 C -0.0929(5) 0.2608(12) 0.7110(5)
H34 H -0.0931 0.3429 0.7180
H35 H -0.1260 0.2365 0.6930
H36 H -0.0664 0.2407 0.6773
O13 O -0.1766(4) 0.7883(6) 0.9337(5)
H37 H -0.2093 0.7694 0.9478
C43 C -0.1370(6) 0.8165(12) 0.8840(9)
H38 H -0.1339 0.8989 0.8805
H39 H -0.1456 0.7853 0.8379
H40 H -0.1047 0.7845 0.8999
O14 O -0.1072(5) 0.8355(11) 1.1999(8)
H41 H -0.0890 0.8572 1.1720
C44 C -0.0971(8) 0.7478(18) 1.2434(11)
H42 H -0.1015 0.6765 1.2180
H43 H -0.1203 0.7500 1.2834
H44 H -0.0620 0.7534 1.2602
K1_2 K -0.15863(8) -0.17079(14) 1.07737(12)
K2_2 K -0.14163(5) 0.21742(10) 1.09810(8)
Ti1_2 Ti -0.15765(4) 0.50668(8) 1.05382(7)
O5_2 O -0.16804(16) 1.4314(3) 1.1463(2)
O6_2 O -0.20852(18) 1.6086(4) 1.0953(3)
N3_2 N -0.1678(2) 1.2615(5) 1.2540(3)
O7_2 O -0.0924(2) 1.0978(4) 1.2060(3)
O9_2 O -0.09535(15) 1.4146(3) 1.0475(2)
O10_2 O -0.10601(18) 1.6262(3) 1.0666(3)
N5_2 N -0.0288(2) 1.2250(4) 1.0411(3)
O11_2 O -0.09773(19) 1.0280(4) 1.0327(3)
O15 O -0.1568(4) 0.2192(8) 1.4489(5)
H45 H -0.1668 0.2462 1.4107
C45 C -0.1961(6) 0.1857(13) 1.4858(9)
H46 H -0.1901 0.2015 1.5356
H47 H -0.2011 0.1043 1.4793
H48 H -0.2265 0.2264 1.4702
O16 O -0.0876(3) 0.9017(8) 1.4547(5)
H49 H -0.0690 0.8690 1.4253
C46 C -0.1339(4) 0.8474(11) 1.4583(7)
H50 H -0.1315 0.7840 1.4912
H51 H -0.1430 0.8189 1.4117
H52 H -0.1598 0.9006 1.4744
O17 O -0.1561(2) 0.4599(6) 1.4433(4)
H53 H -0.1844 0.4449 1.4256
C47 C -0.1239(3) 0.5032(8) 1.3911(5)
H54 H -0.1442 0.5410 1.3550
H55 H -0.1046 0.4412 1.3699
H56 H -0.1003 0.5576 1.4122
O18 O -0.0823(5) 1.1138(11) 1.5308(7)
loop_
_geom_bond_atom_site_label_1
_geom_bond_atom_site_label_2
_geom_bond_site_symmetry_1
_geom_bond_site_symmetry_2
K1 O3 1_555 1_555
K2 O1 1_555 1_555
Ti1 O1 1_555 1_555
O1 C1 1_555 1_555
O2 Ti1 1_555 1_555
C1 C2 1_555 1_555
C2 O2 1_555 1_555
C3 C2 1_555 1_555
H1 C3 1_555 1_555
C4 C3 1_555 1_555
H2 C4 1_555 1_555
C5 C4 1_555 1_555
H3 C5 1_555 1_555
C6 C1 1_555 1_555
C7 C6 1_555 1_555
H4 C7 1_555 1_555
N1 K2 1_555 1_555
N2 N1 1_555 1_555
H5 N2 1_555 1_555
S1 N2 1_555 1_555
O3 K2 1_555 1_555
O4 S1 1_555 1_555
C8 S1 1_555 1_555
C9 C8 1_555 1_555
H6 C9 1_555 1_555
C10 C9 1_555 1_555
H7 C10 1_555 1_555
C11 C10 1_555 1_555
C12 C11 1_555 1_555
H8 C12 1_555 1_555
C13 C8 1_555 1_555
H9 C13 1_555 1_555
C14 C11 1_555 1_555
H10 C14 1_555 1_555
H11 C14 1_555 1_555
H12 C14 1_555 1_555
O5 C15 1_555 1_555
O6 K1 1_555 1_555
C15 C16 1_555 1_555
C16 O6 1_555 1_555
C17 C16 1_555 1_555
H13 C17 1_555 1_555
C18 C17 1_555 1_555
H14 C18 1_555 1_555
C19 C18 1_555 1_555
H15 C19 1_555 1_555
C20 C15 1_555 1_555
C21 C20 1_555 1_555
H16 C21 1_555 1_555
N3 C21 1_555 1_555
N4 N3 1_555 1_555
H17 N4 1_555 1_555
S2 N4 1_555 1_555
O7 S2 1_555 1_555
O8 S2 1_555 1_555
C22 S2 1_555 1_555
C23 C22 1_555 1_555
H18 C23 1_555 1_555
C24 C23 1_555 1_555
H19 C24 1_555 1_555
C25 C24 1_555 1_555
C26 C25 1_555 1_555
H20 C26 1_555 1_555
C27 C22 1_555 1_555
H21 C27 1_555 1_555
C28 C25 1_555 1_555
H22 C28 1_555 1_555
H23 C28 1_555 1_555
H24 C28 1_555 1_555
O9 C29 1_555 1_555
O10 K1 1_555 1_555
C29 C30 1_555 1_555
C30 O10 1_555 1_555
C31 C30 1_555 1_555
H25 C31 1_555 1_555
C32 C31 1_555 1_555
H26 C32 1_555 1_555
C33 C32 1_555 1_555
H27 C33 1_555 1_555
C34 C29 1_555 1_555
C35 C34 1_555 1_555
H28 C35 1_555 1_555
N5 C35 1_555 1_555
N6 N5 1_555 1_555
H29 N6 1_555 1_555
S3 N6 1_555 1_555
O11 S3 1_555 1_555
O12 S3 1_555 1_555
C36 S3 1_555 1_555
C37 C36 1_555 1_555
H30 C37 1_555 1_555
C38 C37 1_555 1_555
H31 C38 1_555 1_555
C39 C38 1_555 1_555
C40 C39 1_555 1_555
H32 C40 1_555 1_555
C41 C36 1_555 1_555
H33 C41 1_555 1_555
C42 C39 1_555 1_555
H34 C42 1_555 1_555
H35 C42 1_555 1_555
H36 C42 1_555 1_555
O13 K1 1_555 1_555
H37 O13 1_555 1_555
C43 O13 1_555 1_555
H38 C43 1_555 1_555
H39 C43 1_555 1_555
H40 C43 1_555 1_555
O14 K1 1_555 1_555
H41 O14 1_555 1_555
C44 O14 1_555 1_555
H42 C44 1_555 1_555
H43 C44 1_555 1_555
H44 C44 1_555 1_555
O15 H45 1_555 1_555
C45 O15 1_555 1_555
H46 C45 1_555 1_555
H47 C45 1_555 1_555
H48 C45 1_555 1_555
O16 H49 1_555 1_555
C46 O16 1_555 1_555
H50 C46 1_555 1_555
H51 C46 1_555 1_555
H52 C46 1_555 1_555
O17 H53 1_555 1_555
C47 O17 1_555 1_555
H54 C47 1_555 1_555
H55 C47 1_555 1_555
H56 C47 1_555 1_555
K1_2 O11 1_555 1_555
K2_2 O5 1_555 1_555
Ti1_2 O5 1_555 1_555
O5_2 K2 1_555 1_555
O6_2 Ti1 1_555 1_555
N3_2 K2 1_555 1_555
O7_2 K2 1_555 1_555
O9_2 K2 1_555 1_555
O10_2 Ti1 1_555 1_555
N5_2 K2 1_555 1_555
O11_2 K1 1_555 1_555
K2 O11_2 1_555 1_555
Ti1 O5_2 1_555 1_555
Ti1 O9_2 1_555 1_555
C5 C6 1_555 1_555
C7 N1 1_555 1_555
S1 O3 1_555 1_555
C12 C13 1_555 1_555
O6 Ti1_2 1_555 1_555
C19 C20 1_555 1_555
N3 K2_2 1_555 1_555
O7 K2_2 1_555 1_555
C26 C27 1_555 1_555
O9 K2_2 1_555 1_555
O9 Ti1_2 1_555 1_555
O10 Ti1_2 1_555 1_555
C33 C34 1_555 1_555
N5 K2_2 1_555 1_555
O11 K2_2 1_555 1_555
C40 C41 1_555 1_555

#END
