
#######################################################################
#
#                 Cambridge Crystallographic Data Centre
#                                CCDC 
#
#######################################################################
#
# If this CIF has been generated from an entry in the Cambridge 
# Structural Database, then it will include bibliographic, chemical, 
# crystal, experimental, refinement or atomic coordinate data resulting 
# from the CCDC's data processing and validation procedures.
#
#######################################################################

data_NUXWUZ
_symmetry_cell_setting           triclinic
_symmetry_space_group_name_H-M   'P -1'
_symmetry_Int_Tables_number      2
_space_group_name_Hall           '-P 1'
loop_
_symmetry_equiv_pos_site_id
_symmetry_equiv_pos_as_xyz
1 x,y,z
2 -x,-y,-z
_cell_length_a                   9.4109(15)
_cell_length_b                   9.8326(15)
_cell_length_c                   10.5023(16)
_cell_angle_alpha                86.828(3)
_cell_angle_beta                 84.343(3)
_cell_angle_gamma                80.472(3)
_cell_volume                     952.988
loop_
_atom_site_label
_atom_site_type_symbol
_atom_site_fract_x
_atom_site_fract_y
_atom_site_fract_z
Cu1 Cu 0.37065(9) 0.59713(8) 0.02407(8)
I1 I 0.42696(5) 0.38690(4) 0.18073(4)
S1 S 0.39217(16) 0.81160(15) 0.10112(14)
S2 S 0.15641(17) 0.61494(15) -0.07180(14)
C1 C 0.0744(6) 1.0767(6) 0.0676(5)
C2 C 0.0776(6) 0.8943(6) -0.0760(5)
C3 C 0.1523(6) 0.9715(5) -0.0068(5)
C4 C 0.3151(6) 0.9480(6) -0.0088(6)
H1 H 0.3456 1.0354 0.0117
H2 H 0.3568 0.9257 -0.0969
C5 C 0.3007(7) 0.8672(6) 0.2555(5)
H3 H 0.1945 0.8905 0.2466
C6 C 0.3525(8) 0.9949(7) 0.2967(6)
H4 H 0.3326 1.0709 0.2318
H5 H 0.4583 0.9750 0.3027
C7 C 0.2763(9) 1.0393(7) 0.4257(7)
H6 H 0.1713 1.0661 0.4180
H7 H 0.3137 1.1206 0.4525
C8 C 0.3008(10) 0.9225(8) 0.5267(7)
H8 H 0.4047 0.9027 0.5412
H9 H 0.2453 0.9514 0.6085
C9 C 0.2534(9) 0.7927(8) 0.4849(6)
H10 H 0.2776 0.7168 0.5489
H11 H 0.1471 0.8093 0.4818
C10 C 0.3253(8) 0.7494(7) 0.3546(6)
H12 H 0.2853 0.6696 0.3279
H13 H 0.4304 0.7205 0.3601
C11 C 0.1504(7) 0.7797(6) -0.1609(6)
H14 H 0.2499 0.7948 -0.1908
H15 H 0.0961 0.7791 -0.2369
C12 C 0.1763(6) 0.4956(6) -0.2018(5)
H16 H 0.2536 0.5194 -0.2676
C13 C 0.0347(7) 0.5072(7) -0.2647(7)
H17 H 0.0139 0.5989 -0.3088
H18 H -0.0457 0.4989 -0.1979
C14 C 0.0440(9) 0.3935(7) -0.3620(7)
H19 H -0.0506 0.3993 -0.3974
H20 H 0.1172 0.4079 -0.4337
C15 C 0.0843(8) 0.2538(7) -0.3001(7)
H21 H 0.0890 0.1823 -0.3638
H22 H 0.0096 0.2379 -0.2301
C16 C 0.2304(7) 0.2428(7) -0.2464(6)
H23 H 0.2572 0.1495 -0.2067
H24 H 0.3055 0.2567 -0.3166
C17 C 0.2236(7) 0.3509(6) -0.1467(6)
H25 H 0.1545 0.3316 -0.0732
H26 H 0.3201 0.3451 -0.1149
Cu1A Cu 0.62935(9) 0.40287(8) -0.02407(8)
Cu1A_2 Cu -0.37065(9) 1.40287(8) -0.02407(8)
I1A I 0.57304(5) 0.61310(4) -0.18073(4)
S1A S -0.39217(16) 1.18840(15) -0.10112(14)
S1A_2 S 0.60783(16) 0.18840(15) -0.10112(14)
S2A S -0.15641(17) 1.38506(15) 0.07180(14)
S2A_2 S 0.84359(17) 0.38506(15) 0.07180(14)
C1A C -0.0744(6) 0.9233(6) -0.0676(5)
C2A C -0.0776(6) 1.1057(6) 0.0760(5)
C3A C -0.1523(6) 1.0285(5) 0.0068(5)
C4A C -0.3151(6) 1.0520(6) 0.0088(6)
H1A H -0.3456 0.9646 -0.0117
H2A H -0.3568 1.0743 0.0969
C5A C -0.3007(7) 1.1328(6) -0.2555(5)
H3A H -0.1945 1.1095 -0.2466
C6A C -0.3525(8) 1.0051(7) -0.2967(6)
H4A H -0.3326 0.9291 -0.2318
H5A H -0.4583 1.0250 -0.3027
C7A C -0.2763(9) 0.9607(7) -0.4257(7)
H6A H -0.1713 0.9339 -0.4180
H7A H -0.3137 0.8794 -0.4525
C8A C -0.3008(10) 1.0775(8) -0.5267(7)
H8A H -0.4047 1.0973 -0.5412
H9A H -0.2453 1.0486 -0.6085
C9A C -0.2534(9) 1.2073(8) -0.4849(6)
H10A H -0.2776 1.2832 -0.5489
H11A H -0.1471 1.1907 -0.4818
C10A C -0.3253(8) 1.2506(7) -0.3546(6)
H12A H -0.2853 1.3304 -0.3279
H13A H -0.4304 1.2795 -0.3601
C11A C -0.1504(7) 1.2203(6) 0.1609(6)
H14A H -0.2499 1.2052 0.1908
H15A H -0.0961 1.2209 0.2369
C12A C -0.1763(6) 1.5044(6) 0.2018(5)
H16A H -0.2536 1.4806 0.2676
C13A C -0.0347(7) 1.4928(7) 0.2647(7)
H17A H -0.0139 1.4011 0.3088
H18A H 0.0457 1.5011 0.1979
C14A C -0.0440(9) 1.6065(7) 0.3620(7)
H19A H 0.0506 1.6007 0.3974
H20A H -0.1172 1.5921 0.4337
C15A C -0.0843(8) 1.7462(7) 0.3001(7)
H21A H -0.0890 1.8177 0.3638
H22A H -0.0096 1.7621 0.2301
C16A C -0.2304(7) 1.7572(7) 0.2464(6)
H23A H -0.2572 1.8505 0.2067
H24A H -0.3055 1.7433 0.3166
C17A C -0.2236(7) 1.6491(6) 0.1467(6)
H25A H -0.1545 1.6684 0.0732
H26A H -0.3201 1.6549 0.1149
loop_
_geom_bond_atom_site_label_1
_geom_bond_atom_site_label_2
_geom_bond_site_symmetry_1
_geom_bond_site_symmetry_2
Cu1 I1 1_555 1_555
I1 Cu1A 1_555 1_555
S1 Cu1 1_555 1_555
S2 Cu1 1_555 1_555
C1 C3 1_555 1_555
C2 C3 1_555 1_555
C3 C4 1_555 1_555
C4 S1 1_555 1_555
H1 C4 1_555 1_555
H2 C4 1_555 1_555
C5 S1 1_555 1_555
H3 C5 1_555 1_555
C6 C5 1_555 1_555
H4 C6 1_555 1_555
H5 C6 1_555 1_555
C7 C6 1_555 1_555
H6 C7 1_555 1_555
H7 C7 1_555 1_555
C8 C7 1_555 1_555
H8 C8 1_555 1_555
H9 C8 1_555 1_555
C9 C8 1_555 1_555
H10 C9 1_555 1_555
H11 C9 1_555 1_555
C10 C5 1_555 1_555
H12 C10 1_555 1_555
H13 C10 1_555 1_555
C11 S2 1_555 1_555
H14 C11 1_555 1_555
H15 C11 1_555 1_555
C12 S2 1_555 1_555
H16 C12 1_555 1_555
C13 C12 1_555 1_555
H17 C13 1_555 1_555
H18 C13 1_555 1_555
C14 C13 1_555 1_555
H19 C14 1_555 1_555
H20 C14 1_555 1_555
C15 C14 1_555 1_555
H21 C15 1_555 1_555
H22 C15 1_555 1_555
C16 C15 1_555 1_555
H23 C16 1_555 1_555
H24 C16 1_555 1_555
C17 C12 1_555 1_555
H25 C17 1_555 1_555
H26 C17 1_555 1_555
Cu1A I1A 1_555 1_555
Cu1A_2 S1A 1_555 1_555
I1A Cu1 1_555 1_555
S1A C4A 1_555 1_555
S1A_2 Cu1A 1_555 1_555
S2A Cu1A_2 1_555 1_555
S2A_2 Cu1A 1_555 1_555
C1A C2 1_555 1_555
C2A C1 1_555 1_555
C3A C1A 1_555 1_555
C4A C3A 1_555 1_555
H1A C4A 1_555 1_555
H2A C4A 1_555 1_555
C5A S1A 1_555 1_555
H3A C5A 1_555 1_555
C6A C5A 1_555 1_555
H4A C6A 1_555 1_555
H5A C6A 1_555 1_555
C7A C6A 1_555 1_555
H6A C7A 1_555 1_555
H7A C7A 1_555 1_555
C8A C7A 1_555 1_555
H8A C8A 1_555 1_555
H9A C8A 1_555 1_555
C9A C8A 1_555 1_555
H10A C9A 1_555 1_555
H11A C9A 1_555 1_555
C10A C5A 1_555 1_555
H12A C10A 1_555 1_555
H13A C10A 1_555 1_555
C11A S2A 1_555 1_555
H14A C11A 1_555 1_555
H15A C11A 1_555 1_555
C12A S2A 1_555 1_555
H16A C12A 1_555 1_555
C13A C12A 1_555 1_555
H17A C13A 1_555 1_555
H18A C13A 1_555 1_555
C14A C13A 1_555 1_555
H19A C14A 1_555 1_555
H20A C14A 1_555 1_555
C15A C14A 1_555 1_555
H21A C15A 1_555 1_555
H22A C15A 1_555 1_555
C16A C15A 1_555 1_555
H23A C16A 1_555 1_555
H24A C16A 1_555 1_555
C17A C12A 1_555 1_555
H25A C17A 1_555 1_555
H26A C17A 1_555 1_555
C2 C11 1_555 1_555
C9 C10 1_555 1_555
C16 C17 1_555 1_555
C2A C3A 1_555 1_555
C2A C11A 1_555 1_555
C9A C10A 1_555 1_555
C16A C17A 1_555 1_555

#END
