
#######################################################################
#
#                 Cambridge Crystallographic Data Centre
#                                CCDC 
#
#######################################################################
#
# If this CIF has been generated from an entry in the Cambridge 
# Structural Database, then it will include bibliographic, chemical, 
# crystal, experimental, refinement or atomic coordinate data resulting 
# from the CCDC's data processing and validation procedures.
#
#######################################################################

data_NUXYAH
_symmetry_cell_setting           orthorhombic
_symmetry_space_group_name_H-M   'P n a 21'
_symmetry_Int_Tables_number      33
_space_group_name_Hall           'P 2c -2n'
loop_
_symmetry_equiv_pos_site_id
_symmetry_equiv_pos_as_xyz
1 x,y,z
2 -x,-y,1/2+z
3 1/2+x,1/2-y,z
4 1/2-x,1/2+y,1/2+z
_cell_length_a                   17.1458(9)
_cell_length_b                   9.6805(5)
_cell_length_c                   15.0694(8)
_cell_angle_alpha                90
_cell_angle_beta                 90
_cell_angle_gamma                90
_cell_volume                     2501.22
loop_
_atom_site_label
_atom_site_type_symbol
_atom_site_fract_x
_atom_site_fract_y
_atom_site_fract_z
Pb1 Pb 0.870585(12) 0.22359(2) 0.500128(18)
I1 I 0.73781(2) 0.42419(5) 0.69608(3)
I2 I 0.85700(3) 0.60719(5) 1.05347(3)
I3 I 1.05356(3) 0.22826(5) 0.82170(4)
O1 O 0.9414(3) 0.3403(6) 0.6334(3)
O2 O 0.8748(3) 0.1566(5) 0.6799(4)
O3 O 0.7301(3) 0.6818(5) 0.8616(4)
O4 O 0.6867(3) 0.5030(5) 0.9381(4)
O5 O 0.8144(4) 0.4858(7) 0.4518(4)
H1 H 0.7939 0.5037 0.4016
H2 H 0.8068 0.5534 0.4869
N1 N 1.0020(3) 0.4222(7) 0.9875(4)
H9 H 0.9955 0.4675 1.0360
H10 H 1.0450 0.3789 0.9780
N2 N 0.9891(3) 0.0739(5) 0.5046(4)
N3 N 0.9611(4) 0.2555(6) 0.3743(4)
C1 C 0.9061(4) 0.2728(6) 0.6912(4)
C2 C 0.8939(4) 0.3440(7) 0.7808(4)
C3 C 0.8243(3) 0.4157(6) 0.7952(4)
C4 C 0.8134(3) 0.4877(6) 0.8744(4)
C5 C 0.8720(3) 0.4883(7) 0.9377(4)
C6 C 0.9436(4) 0.4188(7) 0.9249(4)
C7 C 0.9517(3) 0.3426(7) 0.8448(4)
C8 C 0.7372(3) 0.5644(7) 0.8916(4)
C9 C 1.0020(5) -0.0153(8) 0.5733(5)
H11 H 0.9659 -0.0185 0.6193
C10 C 1.0657(5) -0.1001(9) 0.5772(7)
H12 H 1.0724 -0.1599 0.6248
C11 C 1.1188(4) -0.0960(8) 0.5110(7)
H13 H 1.1623 -0.1533 0.5124
C12 C 1.1077(4) -0.0052(10) 0.4411(6)
H14 H 1.1438 -0.0004 0.3951
C13 C 1.0421(4) 0.0786(7) 0.4404(5)
C14 C 1.0274(4) 0.1793(8) 0.3666(5)
C15 C 1.0779(5) 0.1999(9) 0.2963(6)
H15 H 1.1237 0.1488 0.2924
C16 C 1.0606(5) 0.2947(10) 0.2330(6)
H16 H 1.0936 0.3066 0.1847
C17 C 0.9939(6) 0.3732(9) 0.2407(5)
H17 H 0.9822 0.4412 0.1992
C18 C 0.9455(5) 0.3486(9) 0.3109(6)
H18 H 0.8994 0.3988 0.3148
Pb1C Pb 0.629415(12) 0.72359(2) 1.000128(18)
O3C O 0.7699(3) 0.1818(5) 0.3616(4)
O4C O 0.8133(3) 0.0030(5) 0.4381(4)
O6 O 0.7505(3) 0.5594(6) 0.2753(4)
H3 H 0.7389 0.6447 0.2682
H4 H 0.7255 0.5098 0.2381
O7 O 0.8169(5) 0.7431(7) 0.5322(5)
H5 H 0.7856 0.7558 0.5753
H6 H 0.8123 0.8089 0.4951
O8 O 0.7697(5) 0.2991(7) 0.1853(5)
H7 H 0.8153 0.2803 0.1667
H8 H 0.7615 0.2558 0.2339
loop_
_geom_bond_atom_site_label_1
_geom_bond_atom_site_label_2
_geom_bond_site_symmetry_1
_geom_bond_site_symmetry_2
Pb1 O1 1_555 1_555
I1 C3 1_555 1_555
I2 C5 1_555 1_555
I3 C7 1_555 1_555
O1 C1 1_555 1_555
O2 Pb1 1_555 1_555
O3 C8 1_555 1_555
O4 C8 1_555 1_555
O5 Pb1 1_555 1_555
H1 O5 1_555 1_555
H2 O5 1_555 1_555
O6 H3 1_555 1_555
H4 O6 1_555 1_555
O7 H5 1_555 1_555
H6 O7 1_555 1_555
O8 H7 1_555 1_555
H8 O8 1_555 1_555
N1 H9 1_555 1_555
H10 N1 1_555 1_555
N2 Pb1 1_555 1_555
N3 Pb1 1_555 1_555
C1 O2 1_555 1_555
C2 C1 1_555 1_555
C3 C2 1_555 1_555
C4 C3 1_555 1_555
C5 C4 1_555 1_555
C6 N1 1_555 1_555
C7 C2 1_555 1_555
C8 C4 1_555 1_555
C9 N2 1_555 1_555
H11 C9 1_555 1_555
C10 C9 1_555 1_555
H12 C10 1_555 1_555
C11 C10 1_555 1_555
H13 C11 1_555 1_555
C12 C11 1_555 1_555
H14 C12 1_555 1_555
C13 N2 1_555 1_555
C14 N3 1_555 1_555
C15 C14 1_555 1_555
H15 C15 1_555 1_555
C16 C15 1_555 1_555
H16 C16 1_555 1_555
C17 C16 1_555 1_555
H17 C17 1_555 1_555
C18 N3 1_555 1_555
H18 C18 1_555 1_555
Pb1C O3 1_555 1_555
O3C Pb1 1_555 1_555
O4C Pb1 1_555 1_555
O4 Pb1C 1_555 1_555
C5 C6 1_555 1_555
C6 C7 1_555 1_555
C12 C13 1_555 1_555
C13 C14 1_555 1_555
C17 C18 1_555 1_555

#END
