
#######################################################################
#
#                 Cambridge Crystallographic Data Centre
#                                CCDC 
#
#######################################################################
#
# If this CIF has been generated from an entry in the Cambridge 
# Structural Database, then it will include bibliographic, chemical, 
# crystal, experimental, refinement or atomic coordinate data resulting 
# from the CCDC's data processing and validation procedures.
#
#######################################################################

data_NUXYEL
_symmetry_cell_setting           trigonal
_symmetry_space_group_name_H-M   'P 31'
_symmetry_Int_Tables_number      144
_space_group_name_Hall           'P 31'
loop_
_symmetry_equiv_pos_site_id
_symmetry_equiv_pos_as_xyz
1 x,y,z
2 -y,x-y,1/3+z
3 -x+y,-x,2/3+z
_cell_length_a                   9.3959(9)
_cell_length_b                   9.3959(9)
_cell_length_c                   12.2406(12)
_cell_angle_alpha                90
_cell_angle_beta                 90
_cell_angle_gamma                120
_cell_volume                     935.858
loop_
_atom_site_label
_atom_site_type_symbol
_atom_site_fract_x
_atom_site_fract_y
_atom_site_fract_z
Pb1 Pb 0.03714(4) 0.13912(4) 0.50002(3)
I1 I 0.25808(7) 0.42151(8) 0.71659(6)
I2 I 0.41006(8) -0.13169(8) 0.71701(6)
I3 I 0.96071(7) 0.57229(8) 0.68325(6)
O1 O 0.0877(9) 0.0193(9) 0.6647(6)
O2 O 0.1549(8) 0.0049(8) 0.8339(5)
O3 O 0.8279(10) 0.1537(11) 0.6074(7)
O4 O 0.8247(10) 0.1451(10) 0.7886(7)
C1 C 0.1959(10) 0.0561(10) 0.7367(7)
C2 C 0.3753(10) 0.1738(10) 0.7165(6)
C3 C 0.4904(10) 0.1213(9) 0.7123(7)
C4 C 0.6586(11) 0.2318(11) 0.6997(6)
C5 C 0.7090(10) 0.3994(11) 0.6906(7)
C6 C 0.5991(11) 0.4578(10) 0.6896(6)
C7 C 0.4300(11) 0.3414(10) 0.7059(7)
C8 C 0.7802(11) 0.1721(11) 0.6980(8)
N1 N 0.6510(10) 0.6228(9) 0.6745(6)
H1 H 0.7537 0.6922 0.6655
H2 H 0.5806 0.6558 0.6742
Pb1A Pb -0.13912(4) -0.10198(6) 0.83335(3)
Pb1_2 Pb 1.03714(4) 0.13912(4) 0.50002(3)
Pb1A_2 Pb 0.86088(4) -0.10198(6) 0.83335(3)
O1B O -0.0684(13) -0.0877(9) 0.3314(6)
O2B O -0.1500(11) -0.1549(8) 0.5006(5)
O3_2 O -0.1721(10) 0.1537(11) 0.6074(7)
O4B O 0.3204(14) 0.1753(10) 0.4553(7)
loop_
_geom_bond_atom_site_label_1
_geom_bond_atom_site_label_2
_geom_bond_site_symmetry_1
_geom_bond_site_symmetry_2
Pb1 O1 1_555 1_555
I1 C7 1_555 1_555
I2 C3 1_555 1_555
I3 C5 1_555 1_555
O1 C1 1_555 1_555
O2 C1 1_555 1_555
O3 C8 1_555 1_555
O4 C8 1_555 1_555
C1 C2 1_555 1_555
C2 C3 1_555 1_555
C3 C4 1_555 1_555
C4 C5 1_555 1_555
C5 C6 1_555 1_555
C6 C7 1_555 1_555
C7 C2 1_555 1_555
C8 C4 1_555 1_555
N1 C6 1_555 1_555
H1 N1 1_555 1_555
H2 N1 1_555 1_555
Pb1A O1 1_555 1_555
Pb1_2 O3 1_555 1_555
Pb1A_2 O4 1_555 1_555
O1B Pb1 1_555 1_555
O2B Pb1 1_555 1_555
O3_2 Pb1 1_555 1_555
O4B Pb1 1_555 1_555
O2 Pb1A 1_555 1_555

#END
