
#######################################################################
#
#                 Cambridge Crystallographic Data Centre
#                                CCDC 
#
#######################################################################
#
# If this CIF has been generated from an entry in the Cambridge 
# Structural Database, then it will include bibliographic, chemical, 
# crystal, experimental, refinement or atomic coordinate data resulting 
# from the CCDC's data processing and validation procedures.
#
#######################################################################

data_NUXZAI
_symmetry_cell_setting           monoclinic
_symmetry_space_group_name_H-M   'P 21/c'
_symmetry_Int_Tables_number      14
_space_group_name_Hall           '-P 2ybc'
loop_
_symmetry_equiv_pos_site_id
_symmetry_equiv_pos_as_xyz
1 x,y,z
2 -x,1/2+y,1/2-z
3 -x,-y,-z
4 x,1/2-y,1/2+z
_cell_length_a                   15.180(8)
_cell_length_b                   12.571(7)
_cell_length_c                   8.951(5)
_cell_angle_alpha                90
_cell_angle_beta                 95.759(12)
_cell_angle_gamma                90
_cell_volume                     1699.48
loop_
_atom_site_label
_atom_site_type_symbol
_atom_site_fract_x
_atom_site_fract_y
_atom_site_fract_z
Cu1 Cu 0.93158(8) 0.44794(9) 0.43528(13)
S1 S 0.5578(2) 0.3960(2) -0.1654(3)
O1 O 0.9931(5) 0.3144(5) 0.4957(7)
O2 O 1.1104(4) 0.4057(5) 0.5991(7)
O3 O 1.1216(5) -0.0473(5) 0.8730(7)
O4 O 1.0025(5) 0.0401(5) 0.7666(7)
N1 N 0.8201(6) 0.3860(6) 0.2854(10)
N2 N 0.5976(5) 0.2015(7) -0.1005(8)
N3 N 0.5285(6) 0.1978(7) -0.2162(8)
N4 N 0.2947(7) 0.3440(9) -0.6154(10)
C1 C 1.0684(7) 0.3209(7) 0.5691(11)
C2 C 1.1137(7) 0.2210(7) 0.6269(11)
H1 H 1.0974 0.2081 0.7274
H2 H 1.1771 0.2334 0.6356
C3 C 1.0944(6) 0.1185(7) 0.5334(9)
H3 H 1.0312 0.1123 0.5057
H4 H 1.1234 0.1228 0.4418
C4 C 1.1276(7) 0.0195(7) 0.6229(10)
H5 H 1.1189 -0.0427 0.5589
H6 H 1.1907 0.0267 0.6518
C5 C 1.0810(7) 0.0027(7) 0.7616(11)
C6 C 0.8199(7) 0.2900(8) 0.2159(11)
H7 H 0.8663 0.2435 0.2436
C7 C 0.7545(7) 0.2572(8) 0.1059(10)
H8 H 0.7542 0.1883 0.0679
C8 C 0.6897(6) 0.3296(8) 0.0540(11)
C9 C 0.6883(8) 0.4279(7) 0.1279(12)
H9 H 0.6432 0.4763 0.1013
C10 C 0.7541(7) 0.4523(8) 0.2399(11)
H10 H 0.7524 0.5183 0.2863
C11 C 0.6181(7) 0.3003(8) -0.0615(10)
C12 C 0.5013(7) 0.2924(8) -0.2617(11)
C13 C 0.3161(8) 0.2468(11) -0.5611(13)
H11 H 0.2845 0.1890 -0.6033
C14 C 0.3821(7) 0.2271(9) -0.4468(11)
H12 H 0.3949 0.1576 -0.4163
C15 C 0.4288(7) 0.3102(9) -0.3782(11)
C16 C 0.4073(7) 0.4137(9) -0.4287(11)
H13 H 0.4374 0.4729 -0.3872
C17 C 0.3384(8) 0.4238(9) -0.5449(10)
H14 H 0.3219 0.4924 -0.5750
Cu1B Cu 1.06842(8) 0.55206(9) 0.56472(13)
Cu1A Cu 1.06842(8) -0.05206(9) 1.06472(13)
Cu1C Cu 0.93158(8) 0.05206(9) 0.93528(13)
O2B O 0.8896(4) 0.5943(5) 0.4009(7)
O3A O 0.8784(5) 0.4527(5) 0.6270(7)
O4C O 1.0025(5) 0.4599(5) 0.2666(7)
loop_
_geom_bond_atom_site_label_1
_geom_bond_atom_site_label_2
_geom_bond_site_symmetry_1
_geom_bond_site_symmetry_2
Cu1 O1 1_555 1_555
S1 C11 1_555 1_555
O1 C1 1_555 1_555
O2 C1 1_555 1_555
O3 C5 1_555 1_555
O4 C5 1_555 1_555
N1 Cu1 1_555 1_555
N2 N3 1_555 1_555
N3 C12 1_555 1_555
N4 C13 1_555 1_555
C1 C2 1_555 1_555
C2 H1 1_555 1_555
H2 C2 1_555 1_555
C3 C2 1_555 1_555
H3 C3 1_555 1_555
H4 C3 1_555 1_555
C4 C3 1_555 1_555
H5 C4 1_555 1_555
H6 C4 1_555 1_555
C5 C4 1_555 1_555
C6 N1 1_555 1_555
H7 C6 1_555 1_555
C7 C6 1_555 1_555
H8 C7 1_555 1_555
C8 C7 1_555 1_555
C9 C8 1_555 1_555
H9 C9 1_555 1_555
C10 N1 1_555 1_555
H10 C10 1_555 1_555
C11 N2 1_555 1_555
C12 S1 1_555 1_555
C13 H11 1_555 1_555
C14 C13 1_555 1_555
H12 C14 1_555 1_555
C15 C12 1_555 1_555
C16 C15 1_555 1_555
H13 C16 1_555 1_555
C17 N4 1_555 1_555
H14 C17 1_555 1_555
Cu1B O2 1_555 1_555
Cu1A O3 1_555 1_555
Cu1C O4 1_555 1_555
O2B Cu1 1_555 1_555
O3A Cu1 1_555 1_555
O4C Cu1 1_555 1_555
C8 C11 1_555 1_555
C9 C10 1_555 1_555
C14 C15 1_555 1_555
C16 C17 1_555 1_555

#END
