
#######################################################################
#
#                 Cambridge Crystallographic Data Centre
#                                CCDC 
#
#######################################################################
#
# If this CIF has been generated from an entry in the Cambridge 
# Structural Database, then it will include bibliographic, chemical, 
# crystal, experimental, refinement or atomic coordinate data resulting 
# from the CCDC's data processing and validation procedures.
#
#######################################################################

data_NUXZOW
_symmetry_cell_setting           orthorhombic
_symmetry_space_group_name_H-M   'P n a 21'
_symmetry_Int_Tables_number      33
_space_group_name_Hall           'P 2c -2n'
loop_
_symmetry_equiv_pos_site_id
_symmetry_equiv_pos_as_xyz
1 x,y,z
2 -x,-y,1/2+z
3 1/2+x,1/2-y,z
4 1/2-x,1/2+y,1/2+z
_cell_length_a                   29.719(5)
_cell_length_b                   7.4493(13)
_cell_length_c                   7.5474(13)
_cell_angle_alpha                90
_cell_angle_beta                 90
_cell_angle_gamma                90
_cell_volume                     1670.89
loop_
_atom_site_label
_atom_site_type_symbol
_atom_site_fract_x
_atom_site_fract_y
_atom_site_fract_z
Cd1 Cd 0.722102(13) -0.12915(5) 0.5063(3)
S1 S 0.56053(5) 0.6895(2) 0.5083(7)
O1 O 0.7620(3) 0.0342(12) 0.3106(11)
O2 O 0.8148(3) 0.2390(10) 0.2429(12)
O3 O 0.7612(3) 0.0481(11) 0.7045(10)
O4 O 0.8130(3) 0.2367(10) 0.7818(11)
O5 O 0.77902(13) -0.3448(6) 0.503(3)
H1 H 0.7817 -0.3924 0.4016
H2 H 0.7696 -0.4185 0.5780
N1 N 0.5320(3) 0.4549(10) 0.2726(12)
N2 N 0.4989(3) 0.5852(11) 0.2780(14)
C1 C 0.5660(3) 0.4879(11) 0.3726(13)
C2 C 0.5090(3) 0.7147(11) 0.3859(13)
C3 C 0.7974(5) 0.1307(13) 0.673(2)
C4 C 0.82417(18) 0.0799(8) 0.512(2)
H3 H 0.8318 -0.0466 0.5180
H4 H 0.8520 0.1478 0.5104
C5 C 0.7978(4) 0.1166(12) 0.338(2)
N3 N 0.66643(10) 0.0967(4) 0.4637(6)
C6 C 0.66932(10) 0.2622(4) 0.5479(6)
H5 H 0.6918 0.2828 0.6312
C7 C 0.63862(8) 0.3969(3) 0.5076(6)
H6 H 0.6406 0.5077 0.5640
C8 C 0.60503(9) 0.3661(3) 0.3831(5)
C9 C 0.60214(12) 0.2006(4) 0.2989(6)
H7 H 0.5797 0.1800 0.2156
C10 C 0.63284(11) 0.0658(4) 0.3392(6)
H8 H 0.6309 -0.0449 0.2828
N4 N 0.41812(11) 1.1454(4) 0.4844(8)
C11 C 0.47771(9) 0.8652(4) 0.4200(6)
C12 C 0.46160(11) 1.1523(4) 0.5520(8)
H9 H 0.4708 1.2507 0.6187
C13 C 0.49139(10) 1.0122(3) 0.5198(7)
H10 H 0.5205 1.0169 0.5650
C14 C 0.43423(10) 0.8582(5) 0.3524(7)
H11 H 0.4251 0.7599 0.2857
C15 C 0.40444(10) 0.9983(5) 0.3846(8)
H12 H 0.3754 0.9937 0.3394
Cd1C Cd 0.777898(13) 0.37085(5) 0.0063(3)
Cd1C_2 Cd 0.777898(13) 0.37085(5) 1.0063(3)
O2C O 0.6852(3) -0.2610(10) 0.7429(12)
O4C O 0.6870(3) -0.2633(10) 0.2818(11)
loop_
_geom_bond_atom_site_label_1
_geom_bond_atom_site_label_2
_geom_bond_site_symmetry_1
_geom_bond_site_symmetry_2
Cd1 O1 1_555 1_555
S1 C1 1_555 1_555
O1 C5 1_555 1_555
O2 C5 1_555 1_555
O3 Cd1 1_555 1_555
O4 C3 1_555 1_555
O5 Cd1 1_555 1_555
H1 O5 1_555 1_555
H2 O5 1_555 1_555
N1 N2 1_555 1_555
N2 C2 1_555 1_555
C1 N1 1_555 1_555
C2 S1 1_555 1_555
C3 O3 1_555 1_555
C4 C3 1_555 1_555
H3 C4 1_555 1_555
H4 C4 1_555 1_555
C5 C4 1_555 1_555
N3 Cd1 1_555 1_555
C6 N3 1_555 1_555
H5 C6 1_555 1_555
C7 C6 1_555 1_555
H6 C7 1_555 1_555
C8 C1 1_555 1_555
C9 C8 1_555 1_555
H7 C9 1_555 1_555
C10 N3 1_555 1_555
H8 C10 1_555 1_555
N4 C12 1_555 1_555
C11 C2 1_555 1_555
C12 H9 1_555 1_555
C13 C11 1_555 1_555
H10 C13 1_555 1_555
C14 C11 1_555 1_555
H11 C14 1_555 1_555
C15 N4 1_555 1_555
H12 C15 1_555 1_555
Cd1C O2 1_555 1_555
Cd1C_2 O4 1_555 1_555
O2C Cd1 1_555 1_555
O4C Cd1 1_555 1_555
C7 C8 1_555 1_555
C9 C10 1_555 1_555
C12 C13 1_555 1_555
C14 C15 1_555 1_555

#END
