
#######################################################################
#
#                 Cambridge Crystallographic Data Centre
#                                CCDC 
#
#######################################################################
#
# If this CIF has been generated from an entry in the Cambridge 
# Structural Database, then it will include bibliographic, chemical, 
# crystal, experimental, refinement or atomic coordinate data resulting 
# from the CCDC's data processing and validation procedures.
#
#######################################################################

data_NUYBEP
_symmetry_cell_setting           orthorhombic
_symmetry_space_group_name_H-M   'P n a 21'
_symmetry_Int_Tables_number      33
_space_group_name_Hall           'P 2c -2n'
loop_
_symmetry_equiv_pos_site_id
_symmetry_equiv_pos_as_xyz
1 x,y,z
2 -x,-y,1/2+z
3 1/2+x,1/2-y,z
4 1/2-x,1/2+y,1/2+z
_cell_length_a                   31.025(5)
_cell_length_b                   7.5923(13)
_cell_length_c                   15.377(3)
_cell_angle_alpha                90
_cell_angle_beta                 90
_cell_angle_gamma                90
_cell_volume                     3622.07
loop_
_atom_site_label
_atom_site_type_symbol
_atom_site_fract_x
_atom_site_fract_y
_atom_site_fract_z
O1 O 0.2294(6) 0.133(2) 0.7172(16)
H1 H 0.2529 0.1370 0.7430
H2 H 0.2314 0.0772 0.6710
O2 O 0.3258(4) 0.199(2) 0.7598(9)
H3 H 0.3235 0.1886 0.8138
H4 H 0.3465 0.1394 0.7414
Cd1 Cd 0.431937(17) 0.21156(7) 0.44496(4)
Cd2 Cd 0.429409(17) 0.74097(7) 0.50345(4)
O3 O 0.42307(18) 0.3365(7) 0.3094(4)
O4 O 0.4436(2) 0.5643(8) 0.3852(4)
O5 O 0.4677(2) 0.9737(9) 0.2810(5)
O6 O 0.41928(19) 0.9370(7) 0.3858(4)
O7 O 0.4382(2) 0.0193(8) 0.5657(4)
O8 O 0.3853(2) 0.0134(10) 0.6620(4)
O9 O 0.42101(19) 0.4052(9) 0.5571(4)
O10 O 0.43916(17) 0.6266(8) 0.6439(4)
C1 C 0.4371(3) 0.4638(11) 0.6272(6)
C2 C 0.4208(3) 0.0582(11) 0.6364(6)
C3 C 0.4260(3) 0.4949(12) 0.3193(7)
C4 C 0.4348(3) 0.9082(11) 0.3113(6)
C5 C 0.4469(3) 0.1644(11) 0.6964(6)
H5 H 0.4601 0.1044 0.7419
C6 C 0.4540(3) 0.3450(12) 0.6923(6)
H6 H 0.4712 0.3940 0.7356
C7 C 0.4074(3) 0.6081(11) 0.2546(6)
H7 H 0.3923 0.5539 0.2097
C8 C 0.4098(3) 0.7883(12) 0.2526(6)
H8 H 0.3939 0.8433 0.2092
N1 N 0.35481(11) 0.7211(5) 0.5147(4)
C9 C 0.32757(16) 0.7455(6) 0.4439(3)
H9 H 0.3391 0.7683 0.3892
C10 C 0.28316(15) 0.7358(7) 0.4550(4)
H10 H 0.2649 0.7521 0.4076
C11 C 0.26600(11) 0.7017(7) 0.5367(4)
C12 C 0.29324(15) 0.6774(8) 0.6075(4)
H11 H 0.2818 0.6546 0.6622
C13 C 0.33764(14) 0.6871(7) 0.5965(4)
H12 H 0.3559 0.6708 0.6438
N2 N 0.50616(11) 0.2359(5) 0.4392(4)
C14 C 0.53279(15) 0.2327(7) 0.5119(3)
H13 H 0.5209 0.2199 0.5671
C15 C 0.57715(14) 0.2487(7) 0.5022(4)
H14 H 0.5950 0.2466 0.5508
C16 C 0.59490(11) 0.2679(6) 0.4197(4)
C17 C 0.56828(15) 0.2710(8) 0.3470(4)
H15 H 0.5802 0.2838 0.2918
C18 C 0.52391(14) 0.2550(7) 0.3568(3)
H16 H 0.5061 0.2571 0.3081
N3 N 0.8548(2) 0.2826(10) 0.4396(8)
C19 C 0.8370(3) 0.3369(13) 0.3612(8)
H17 H 0.8548 0.3698 0.3154
C20 C 0.7924(3) 0.3420(14) 0.3512(9)
H18 H 0.7805 0.3784 0.2987
C21 C 0.7658(2) 0.2929(13) 0.4197(10)
C22 C 0.7836(3) 0.2386(13) 0.4981(9)
H19 H 0.7658 0.2057 0.5440
C23 C 0.8282(3) 0.2335(12) 0.5081(8)
H20 H 0.8401 0.1971 0.5606
N4 N 0.00622(12) 0.7456(5) 0.5128(4)
C24 C 0.02307(16) 0.7177(7) 0.5954(4)
H21 H 0.0047 0.7085 0.6430
C25 C 0.06738(17) 0.7035(7) 0.6069(4)
H22 H 0.0787 0.6848 0.6622
C26 C 0.09483(12) 0.7172(6) 0.5358(5)
C27 C 0.07798(16) 0.7452(6) 0.4532(4)
H23 H 0.0963 0.7544 0.4056
C28 C 0.03367(17) 0.7594(6) 0.4417(4)
H24 H 0.0224 0.7780 0.3864
N5 N 0.2016(2) 0.6215(11) 0.6229(5)
N6 N 0.1568(2) 0.6286(12) 0.6219(6)
S1 S 0.18104(7) 0.7614(3) 0.4764(2)
C29 C 0.1428(2) 0.7002(10) 0.5495(6)
C30 C 0.2179(3) 0.6929(11) 0.5473(7)
N7 N 0.7015(2) 0.3592(13) 0.3345(6)
N8 N 0.6579(3) 0.3549(12) 0.3356(6)
S2 S 0.68100(7) 0.2374(3) 0.4800(2)
C31 C 0.6411(3) 0.2916(11) 0.4063(7)
C32 C 0.7184(3) 0.3026(10) 0.4055(7)
Cd1_2 Cd 0.431937(17) 1.21156(7) 0.44496(4)
Cd1B Cd 0.931937(17) 0.28844(7) 0.44496(4)
Cd2_2 Cd 0.429409(17) -0.25903(7) 0.50345(4)
Cd2B Cd -0.070591(17) 0.75903(7) 0.50345(4)
O6_2 O 0.41928(19) -0.0630(7) 0.3858(4)
O7_2 O 0.4382(2) 1.0193(8) 0.5657(4)
N3B N 0.3548(2) 0.2174(10) 0.4396(8)
N4B N 0.50622(12) 0.7544(5) 0.5128(4)
C33? C 0.8363(7) 0.275(2) 0.3551(15)
C34? C 0.7918(7) 0.281(3) 0.3466(16)
C35? C 0.7659(5) 0.294(2) 0.4201(19)
C36? C 0.7846(6) 0.301(2) 0.5021(17)
C37? C 0.8292(6) 0.295(2) 0.5107(15)
H25? H 0.8536 0.2659 0.3059
H26? H 0.7792 0.2763 0.2917
H27? H 0.7673 0.3099 0.5513
H28? H 0.8417 0.2995 0.5656
N9? N 0.8551(5) 0.2817(19) 0.4371(16)
loop_
_geom_bond_atom_site_label_1
_geom_bond_atom_site_label_2
_geom_bond_site_symmetry_1
_geom_bond_site_symmetry_2
O1 H1 1_555 1_555
H2 O1 1_555 1_555
O2 H3 1_555 1_555
H4 O2 1_555 1_555
Cd1 O3 1_555 1_555
Cd2 O4 1_555 1_555
O3 C3 1_555 1_555
O4 C3 1_555 1_555
O5 C4 1_555 1_555
O6 Cd2 1_555 1_555
O7 Cd1 1_555 1_555
O8 C2 1_555 1_555
O9 Cd1 1_555 1_555
O10 Cd2 1_555 1_555
C1 O9 1_555 1_555
C2 O7 1_555 1_555
C3 C7 1_555 1_555
C4 O6 1_555 1_555
C5 C2 1_555 1_555
H5 C5 1_555 1_555
C6 C1 1_555 1_555
H6 C6 1_555 1_555
C7 H7 1_555 1_555
C8 C4 1_555 1_555
H8 C8 1_555 1_555
N1 Cd2 1_555 1_555
C9 N1 1_555 1_555
H9 C9 1_555 1_555
C10 C9 1_555 1_555
H10 C10 1_555 1_555
C11 C10 1_555 1_555
C12 C11 1_555 1_555
H11 C12 1_555 1_555
C13 N1 1_555 1_555
H12 C13 1_555 1_555
N2 Cd1 1_555 1_555
C14 N2 1_555 1_555
H13 C14 1_555 1_555
C15 C14 1_555 1_555
H14 C15 1_555 1_555
C16 C15 1_555 1_555
C17 C16 1_555 1_555
H15 C17 1_555 1_555
C18 N2 1_555 1_555
H16 C18 1_555 1_555
N3 C19 1_555 1_555
C19 H17 1_555 1_555
C20 C19 1_555 1_555
H18 C20 1_555 1_555
C21 C20 1_555 1_555
C22 C21 1_555 1_555
H19 C22 1_555 1_555
C23 N3 1_555 1_555
H20 C23 1_555 1_555
N4 C24 1_555 1_555
C24 H21 1_555 1_555
C25 C24 1_555 1_555
H22 C25 1_555 1_555
C26 C25 1_555 1_555
C27 C26 1_555 1_555
H23 C27 1_555 1_555
C28 N4 1_555 1_555
H24 C28 1_555 1_555
N5 N6 1_555 1_555
N6 C29 1_555 1_555
S1 C29 1_555 1_555
C29 C26 1_555 1_555
C30 C11 1_555 1_555
N7 N8 1_555 1_555
N8 C31 1_555 1_555
S2 C31 1_555 1_555
C31 C16 1_555 1_555
C32 C21 1_555 1_555
Cd1_2 O6 1_555 1_555
Cd1B N3 1_555 1_555
Cd2_2 O7 1_555 1_555
Cd2B N4 1_555 1_555
O6_2 Cd1 1_555 1_555
O7_2 Cd2 1_555 1_555
N3B Cd1 1_555 1_555
N4B Cd2 1_555 1_555
O10 C1 1_555 1_555
C5 C6 1_555 1_555
C7 C8 1_555 1_555
C12 C13 1_555 1_555
C17 C18 1_555 1_555
C22 C23 1_555 1_555
C27 C28 1_555 1_555
N5 C30 1_555 1_555
S1 C30 1_555 1_555
N7 C32 1_555 1_555
S2 C32 1_555 1_555
Cd1_2 O7_2 1_555 1_555
Cd2_2 O6_2 1_555 1_555

#END
