
#######################################################################
#
#                 Cambridge Crystallographic Data Centre
#                                CCDC 
#
#######################################################################
#
# If this CIF has been generated from an entry in the Cambridge 
# Structural Database, then it will include bibliographic, chemical, 
# crystal, experimental, refinement or atomic coordinate data resulting 
# from the CCDC's data processing and validation procedures.
#
#######################################################################

data_NUYDEQ
_symmetry_cell_setting           monoclinic
_symmetry_space_group_name_H-M   'C 2/c'
_symmetry_Int_Tables_number      15
_space_group_name_Hall           '-C 2yn'
loop_
_symmetry_equiv_pos_site_id
_symmetry_equiv_pos_as_xyz
1 x,y,z
2 1/2+x,1/2+y,z
3 -x,y,1/2-z
4 1/2-x,1/2+y,1/2-z
5 -x,-y,-z
6 1/2-x,1/2-y,-z
7 x,-y,1/2+z
8 1/2+x,1/2-y,1/2+z
_cell_length_a                   44.138(4)
_cell_length_b                   10.1308(8)
_cell_length_c                   20.010(2)
_cell_angle_alpha                90
_cell_angle_beta                 111.077(4)
_cell_angle_gamma                90
_cell_volume                     8348.93
loop_
_atom_site_label
_atom_site_type_symbol
_atom_site_fract_x
_atom_site_fract_y
_atom_site_fract_z
Sn1 Sn 0.08767(2) -0.03108(8) -0.29730(3)
Sn2 Sn 0.26534(1) -0.19223(6) -0.22126(3)
O1 O 0.0657(2) -0.0468(8) -0.7276(3)
O2 O 0.1130(2) -0.0520(8) -0.6350(3)
O3 O 0.1988(1) -0.1510(6) 0.1725(3)
O4 O 0.2322(1) -0.0042(6) -0.2659(3)
O5 O 0.1110(2) -0.1267(7) -0.3973(3)
N1 N 0.1107(2) -0.1247(7) -0.5105(3)
H1 H 0.1225(2) -0.1045(7) -0.5351(3)
C1 C 0.1134(3) 0.199(1) 0.2551(6)
H2 H 0.1329(3) 0.172(1) 0.2941(6)
H3 H 0.1198(3) 0.251(1) 0.2218(6)
C2 C 0.0917(4) 0.282(2) 0.284(1)
H4 H 0.0721(4) 0.307(2) 0.245(1)
H5 H 0.0855(4) 0.230(2) 0.318(1)
C3 C 0.1089(5) 0.408(2) 0.322(1)
H6 H 0.1174(5) 0.458(2) 0.292(1)
H7 H 0.1266(5) 0.386(2) 0.366(1)
C4 C 0.0825(7) 0.488(2) 0.339(2)
H8 H 0.0919(7) 0.569(2) 0.363(2)
H9 H 0.0743(7) 0.437(2) 0.369(2)
H10 H 0.0651(7) 0.509(2) 0.295(2)
C5 C 0.0421(3) 0.052(1) 0.1194(6)
H11 H 0.0451(3) 0.097(1) 0.0795(6)
H12 H 0.0335(3) -0.035(1) 0.1030(6)
C6 C 0.0172(4) 0.128(2) 0.141(1)
H13 H 0.0254(4) 0.216(2) 0.156(1)
H14 H 0.0142(4) 0.083(2) 0.181(1)
C7 C -0.0161(4) 0.139(3) 0.079(1)
H15 H -0.0133(4) 0.172(3) 0.036(1)
H16 H -0.0266(4) 0.053(3) 0.068(1)
C8 C -0.0366(6) 0.235(3) 0.104(2)
H17 H -0.0575(6) 0.245(3) 0.067(2)
H18 H -0.0259(6) 0.319(3) 0.114(2)
H19 H -0.0391(6) 0.202(3) 0.146(2)
C9 C 0.1149(3) -0.136(1) 0.1996(6)
H20 H 0.1236(3) -0.121(1) 0.1621(6)
H21 H 0.1333(3) -0.138(1) 0.2445(6)
C10 C 0.0997(5) -0.273(2) 0.188(1)
H22 H 0.1163(5) -0.338(2) 0.191(1)
H23 H 0.0912(5) -0.292(2) 0.225(1)
C11 C 0.0727(5) -0.286(2) 0.116(1)
H24 H 0.0807(5) -0.261(2) 0.078(1)
H25 H 0.0552(5) -0.226(2) 0.114(1)
C12 C 0.0600(6) -0.428(2) 0.103(2)
H26 H 0.0428(6) -0.434(2) 0.058(2)
H27 H 0.0518(6) -0.452(2) 0.140(2)
H28 H 0.0773(6) -0.487(2) 0.105(2)
C13 C 0.2684(3) 0.235(1) -0.3217(6)
H29 H 0.2886(3) 0.216(1) -0.2826(6)
H30 H 0.2603(3) 0.153(1) -0.3462(6)
C14 C 0.2756(4) 0.328(2) -0.3739(9)
H31 H 0.2867(4) 0.406(2) -0.3483(9)
H32 H 0.2553(4) 0.357(2) -0.4100(9)
C15 C 0.2967(5) 0.262(2) -0.411(1)
H33 H 0.2854(5) 0.186(2) -0.438(1)
H34 H 0.3169(5) 0.232(2) -0.375(1)
C16 C 0.3038(6) 0.362(2) -0.461(1)
H35 H 0.3170(6) 0.321(2) -0.484(1)
H36 H 0.3151(6) 0.436(2) -0.434(1)
H37 H 0.2837(6) 0.391(2) -0.497(1)
C17 C 0.2386(3) 0.273(1) -0.1709(6)
H38 H 0.2447(3) 0.182(1) -0.1584(6)
H39 H 0.2554(3) 0.329(1) -0.1390(6)
C18 C 0.2069(3) 0.301(2) -0.1613(8)
H40 H 0.1902(3) 0.241(2) -0.1906(8)
H41 H 0.2000(3) 0.391(2) -0.1761(8)
C19 C 0.2116(4) 0.283(2) -0.0822(8)
H42 H 0.2194(4) 0.194(2) -0.0666(8)
H43 H 0.2274(4) 0.346(2) -0.0529(8)
C20 C 0.1788(5) 0.305(2) -0.075(1)
H44 H 0.1809(5) 0.295(2) -0.026(1)
H45 H 0.1634(5) 0.243(2) -0.104(1)
H46 H 0.1714(5) 0.393(2) -0.091(1)
C21 C 0.2008(3) 0.450(1) -0.3368(6)
H47 H 0.1858(3) 0.462(1) -0.3118(6)
H48 H 0.2127(3) 0.532(1) -0.3320(6)
C22 C 0.1807(3) 0.436(2) -0.4139(7)
H49 H 0.1759(3) 0.343(2) -0.4256(7)
H50 H 0.1925(3) 0.470(2) -0.4429(7)
C23 C 0.1489(4) 0.514(2) -0.4294(9)
H51 H 0.1366(4) 0.479(2) -0.4018(9)
H52 H 0.1535(4) 0.607(2) -0.4172(9)
C24 C 0.1298(5) 0.499(3) -0.510(1)
H53 H 0.1096(5) 0.546(3) -0.522(1)
H54 H 0.1254(5) 0.407(3) -0.521(1)
H55 H 0.1423(5) 0.534(3) -0.536(1)
C25 C 0.0844(2) -0.081(1) -0.6622(5)
C26 C 0.0669(1) -0.1567(6) -0.6230(2)
C27 C 0.0368(1) -0.2099(7) -0.6633(2)
H56 H 0.0279(2) -0.194(1) -0.7124(2)
C28 C 0.0201(1) -0.2864(7) -0.6303(3)
H57 H 0.0000(2) -0.322(1) -0.6573(4)
C29 C 0.0334(1) -0.3096(6) -0.5570(3)
H58 H 0.0222(2) -0.3608(9) -0.5350(4)
C30 C 0.0635(1) -0.2564(6) -0.5167(2)
H59 H 0.0724(2) -0.2719(9) -0.4677(2)
C31 C 0.0802(1) -0.1799(6) -0.5497(2)
C32 C 0.1238(2) -0.0996(9) -0.4408(4)
C33 C 0.1565(2) 0.032(1) 0.0817(5)
H60 H 0.1667(2) 0.054(1) 0.0476(5)
H61 H 0.1531(2) -0.063(1) 0.0798(5)
C34 C 0.1792(2) 0.0681(9) 0.1556(5)
H62 H 0.1895(2) 0.1517(9) 0.1531(5)
H63 H 0.1667(2) 0.0805(9) 0.1862(5)
C35 C 0.2053(2) -0.0325(9) 0.1896(5)
Sn1F Sn 0.08767(2) 0.03108(8) -0.79730(3)
O1F O 0.0657(2) 0.0468(8) -0.2276(3)
C25F C 0.0844(2) 0.081(1) -0.1622(5)
O2F O 0.1130(2) 0.0520(8) -0.1350(3)
C26F C 0.0669(1) 0.1567(6) -0.1230(2)
C27F C 0.0368(1) 0.2099(7) -0.1633(2)
H56F H 0.0279(2) 0.194(1) -0.2124(2)
C28F C 0.0201(1) 0.2864(7) -0.1303(3)
H57F H 0.0000(2) 0.322(1) -0.1573(4)
C29F C 0.0334(1) 0.3096(6) -0.0570(3)
H58F H 0.0222(2) 0.3608(9) -0.0350(4)
C30F C 0.0635(1) 0.2564(6) -0.0167(2)
H59F H 0.0724(2) 0.2719(9) 0.0323(2)
C31F C 0.0802(1) 0.1799(6) -0.0497(2)
N1F N 0.1107(2) 0.1247(7) -0.0105(3)
H1F H 0.1225(2) 0.1045(7) -0.0351(3)
C32F C 0.1238(2) 0.0996(9) 0.0592(4)
O5F O 0.1110(2) 0.1267(7) 0.1027(3)
Sn1F_2 Sn 0.08767(2) 0.03108(8) 0.20270(3)
O1_2 O 0.0657(2) -0.0468(8) 0.2724(3)
Sn2E Sn 0.23466(1) -0.30777(6) 0.22126(3)
O3E O 0.3012(1) -0.3490(6) -0.1725(3)
C35F C 0.2053(2) 0.0325(9) -0.3104(5)
O3F O 0.1988(1) 0.1510(6) -0.3275(3)
Sn2C Sn 0.23466(1) 0.30777(6) -0.27874(3)
O4C O 0.2678(1) 0.4958(6) -0.2341(3)
C34F C 0.1792(2) -0.0681(9) -0.3444(5)
C33F C 0.1565(2) -0.032(1) -0.4183(5)
H60F H 0.1667(2) -0.054(1) -0.4524(5)
H61F H 0.1531(2) 0.063(1) -0.4202(5)
H62F H 0.1895(2) -0.1517(9) -0.3469(5)
H63F H 0.1667(2) -0.0805(9) -0.3138(5)
C13C C 0.2316(3) -0.265(1) -0.1783(6)
H29C H 0.2114(3) -0.284(1) -0.2174(6)
H30C H 0.2397(3) -0.347(1) -0.1538(6)
C14C C 0.2244(4) -0.172(2) -0.1261(9)
H31C H 0.2133(4) -0.094(2) -0.1517(9)
H32C H 0.2447(4) -0.143(2) -0.0900(9)
C15C C 0.2033(5) -0.238(2) -0.089(1)
H33C H 0.2146(5) -0.314(2) -0.062(1)
H34C H 0.1831(5) -0.268(2) -0.125(1)
C16C C 0.1962(6) -0.138(2) -0.039(1)
H35C H 0.1830(6) -0.179(2) -0.016(1)
H36C H 0.1849(6) -0.064(2) -0.066(1)
H37C H 0.2163(6) -0.109(2) -0.003(1)
C17C C 0.2614(3) -0.227(1) -0.3291(6)
H38C H 0.2553(3) -0.318(1) -0.3416(6)
H39C H 0.2446(3) -0.171(1) -0.3610(6)
C18C C 0.2931(3) -0.199(2) -0.3387(8)
H40C H 0.3098(3) -0.259(2) -0.3094(8)
H41C H 0.3000(3) -0.109(2) -0.3239(8)
C19C C 0.2884(4) -0.217(2) -0.4178(8)
H42C H 0.2806(4) -0.306(2) -0.4334(8)
H43C H 0.2726(4) -0.154(2) -0.4471(8)
C20C C 0.3212(5) -0.195(2) -0.425(1)
H44C H 0.3191(5) -0.205(2) -0.474(1)
H45C H 0.3366(5) -0.257(2) -0.396(1)
H46C H 0.3286(5) -0.107(2) -0.409(1)
C21C C 0.2992(3) -0.050(1) -0.1632(6)
H47C H 0.3142(3) -0.038(1) -0.1882(6)
H48C H 0.2873(3) 0.032(1) -0.1680(6)
C22C C 0.3193(3) -0.064(2) -0.0861(7)
H49C H 0.3241(3) -0.157(2) -0.0744(7)
H50C H 0.3075(3) -0.030(2) -0.0571(7)
C23C C 0.3511(4) 0.014(2) -0.0706(9)
H51C H 0.3634(4) -0.021(2) -0.0982(9)
H52C H 0.3465(4) 0.107(2) -0.0828(9)
C24C C 0.3702(5) -0.001(3) 0.010(1)
H53C H 0.3904(5) 0.046(3) 0.022(1)
H54C H 0.3746(5) -0.093(3) 0.021(1)
H55C H 0.3577(5) 0.034(3) 0.036(1)
O4F O 0.2322(1) 0.0042(6) 0.2341(3)
Sn2F Sn 0.26534(1) 0.19223(6) 0.27874(3)
C1F C 0.1134(3) -0.199(1) -0.2449(6)
H2F H 0.1329(3) -0.172(1) -0.2059(6)
H3F H 0.1198(3) -0.251(1) -0.2782(6)
C2F C 0.0917(4) -0.282(2) -0.216(1)
H4F H 0.0721(4) -0.307(2) -0.255(1)
H5F H 0.0855(4) -0.230(2) -0.182(1)
C3F C 0.1089(5) -0.408(2) -0.178(1)
H6F H 0.1174(5) -0.458(2) -0.208(1)
H7F H 0.1266(5) -0.386(2) -0.134(1)
C4F C 0.0825(7) -0.488(2) -0.161(2)
H8F H 0.0919(7) -0.569(2) -0.137(2)
H9F H 0.0743(7) -0.437(2) -0.131(2)
H10F H 0.0651(7) -0.509(2) -0.205(2)
C5F C 0.0421(3) -0.052(1) -0.3806(6)
H11F H 0.0451(3) -0.097(1) -0.4205(6)
H12F H 0.0335(3) 0.035(1) -0.3970(6)
C6F C 0.0172(4) -0.128(2) -0.359(1)
H13F H 0.0254(4) -0.216(2) -0.344(1)
H14F H 0.0142(4) -0.083(2) -0.319(1)
C7F C -0.0161(4) -0.139(3) -0.421(1)
H15F H -0.0133(4) -0.172(3) -0.464(1)
H16F H -0.0266(4) -0.053(3) -0.432(1)
C8F C -0.0366(6) -0.235(3) -0.396(2)
H17F H -0.0575(6) -0.245(3) -0.433(2)
H18F H -0.0259(6) -0.319(3) -0.386(2)
H19F H -0.0391(6) -0.202(3) -0.354(2)
C9F C 0.1149(3) 0.136(1) -0.3004(6)
H20F H 0.1236(3) 0.121(1) -0.3379(6)
H21F H 0.1333(3) 0.138(1) -0.2555(6)
C10F C 0.0997(5) 0.273(2) -0.312(1)
H22F H 0.1163(5) 0.338(2) -0.309(1)
H23F H 0.0912(5) 0.292(2) -0.275(1)
C11F C 0.0727(5) 0.286(2) -0.384(1)
H24F H 0.0807(5) 0.261(2) -0.422(1)
H25F H 0.0552(5) 0.226(2) -0.386(1)
C12F C 0.0600(6) 0.428(2) -0.397(2)
H26F H 0.0428(6) 0.434(2) -0.442(2)
H27F H 0.0518(6) 0.452(2) -0.360(2)
H28F H 0.0773(6) 0.487(2) -0.395(2)
loop_
_geom_bond_atom_site_label_1
_geom_bond_atom_site_label_2
_geom_bond_site_symmetry_1
_geom_bond_site_symmetry_2
Sn1 O5 1_555 1_555
Sn2 O4 1_555 1_555
O1 C25 1_555 1_555
O2 C25 1_555 1_555
O3 C35 1_555 1_555
O4 C35F 1_555 1_555
O5 C32 1_555 1_555
N1 H1 1_555 1_555
C1 H2 1_555 1_555
H3 C1 1_555 1_555
C2 C1 1_555 1_555
H4 C2 1_555 1_555
H5 C2 1_555 1_555
C3 C2 1_555 1_555
H6 C3 1_555 1_555
H7 C3 1_555 1_555
C4 C3 1_555 1_555
H8 C4 1_555 1_555
H9 C4 1_555 1_555
H10 C4 1_555 1_555
C5 H11 1_555 1_555
H12 C5 1_555 1_555
C6 C5 1_555 1_555
H13 C6 1_555 1_555
H14 C6 1_555 1_555
C7 C6 1_555 1_555
H15 C7 1_555 1_555
H16 C7 1_555 1_555
C8 C7 1_555 1_555
H17 C8 1_555 1_555
H18 C8 1_555 1_555
H19 C8 1_555 1_555
C9 H20 1_555 1_555
H21 C9 1_555 1_555
C10 C9 1_555 1_555
H22 C10 1_555 1_555
H23 C10 1_555 1_555
C11 C10 1_555 1_555
H24 C11 1_555 1_555
H25 C11 1_555 1_555
C12 C11 1_555 1_555
H26 C12 1_555 1_555
H27 C12 1_555 1_555
H28 C12 1_555 1_555
C13 H29 1_555 1_555
H30 C13 1_555 1_555
C14 C13 1_555 1_555
H31 C14 1_555 1_555
H32 C14 1_555 1_555
C15 C14 1_555 1_555
H33 C15 1_555 1_555
H34 C15 1_555 1_555
C16 C15 1_555 1_555
H35 C16 1_555 1_555
H36 C16 1_555 1_555
H37 C16 1_555 1_555
C17 H38 1_555 1_555
H39 C17 1_555 1_555
C18 C17 1_555 1_555
H40 C18 1_555 1_555
H41 C18 1_555 1_555
C19 C18 1_555 1_555
H42 C19 1_555 1_555
H43 C19 1_555 1_555
C20 C19 1_555 1_555
H44 C20 1_555 1_555
H45 C20 1_555 1_555
H46 C20 1_555 1_555
C21 H47 1_555 1_555
H48 C21 1_555 1_555
C22 C21 1_555 1_555
H49 C22 1_555 1_555
H50 C22 1_555 1_555
C23 C22 1_555 1_555
H51 C23 1_555 1_555
H52 C23 1_555 1_555
C24 C23 1_555 1_555
H53 C24 1_555 1_555
H54 C24 1_555 1_555
H55 C24 1_555 1_555
C25 C26 1_555 1_555
C26 C27 1_555 1_555
C27 H56 1_555 1_555
C28 C27 1_555 1_555
H57 C28 1_555 1_555
C29 C28 1_555 1_555
H58 C29 1_555 1_555
C30 C29 1_555 1_555
H59 C30 1_555 1_555
C31 N1 1_555 1_555
C32 N1 1_555 1_555
C33 H60 1_555 1_555
H61 C33 1_555 1_555
C34 C33 1_555 1_555
H62 C34 1_555 1_555
H63 C34 1_555 1_555
C35 C34 1_555 1_555
Sn1F O1 1_555 1_555
O1F Sn1 1_555 1_555
C25F O1F 1_555 1_555
O2F C25F 1_555 1_555
C26F C25F 1_555 1_555
C27F C26F 1_555 1_555
H56F C27F 1_555 1_555
C28F C27F 1_555 1_555
H57F C28F 1_555 1_555
C29F C28F 1_555 1_555
H58F C29F 1_555 1_555
C30F C29F 1_555 1_555
H59F C30F 1_555 1_555
C31F C26F 1_555 1_555
N1F C31F 1_555 1_555
H1F N1F 1_555 1_555
C32F C33 1_555 1_555
O5F C32F 1_555 1_555
Sn1F_2 C1 1_555 1_555
O1_2 Sn1F_2 1_555 1_555
Sn2E O3 1_555 1_555
O3E Sn2 1_555 1_555
C35F O3F 1_555 1_555
O3F Sn2C 1_555 1_555
Sn2C C13 1_555 1_555
O4C Sn2C 1_555 1_555
C34F C35F 1_555 1_555
C33F C32 1_555 1_555
H60F C33F 1_555 1_555
H61F C33F 1_555 1_555
H62F C34F 1_555 1_555
H63F C34F 1_555 1_555
C13C Sn2 1_555 1_555
H29C C13C 1_555 1_555
H30C C13C 1_555 1_555
C14C C13C 1_555 1_555
H31C C14C 1_555 1_555
H32C C14C 1_555 1_555
C15C C14C 1_555 1_555
H33C C15C 1_555 1_555
H34C C15C 1_555 1_555
C16C C15C 1_555 1_555
H35C C16C 1_555 1_555
H36C C16C 1_555 1_555
H37C C16C 1_555 1_555
C17C Sn2 1_555 1_555
H38C C17C 1_555 1_555
H39C C17C 1_555 1_555
C18C C17C 1_555 1_555
H40C C18C 1_555 1_555
H41C C18C 1_555 1_555
C19C C18C 1_555 1_555
H42C C19C 1_555 1_555
H43C C19C 1_555 1_555
C20C C19C 1_555 1_555
H44C C20C 1_555 1_555
H45C C20C 1_555 1_555
H46C C20C 1_555 1_555
C21C Sn2 1_555 1_555
H47C C21C 1_555 1_555
H48C C21C 1_555 1_555
C22C C21C 1_555 1_555
H49C C22C 1_555 1_555
H50C C22C 1_555 1_555
C23C C22C 1_555 1_555
H51C C23C 1_555 1_555
H52C C23C 1_555 1_555
C24C C23C 1_555 1_555
H53C C24C 1_555 1_555
H54C C24C 1_555 1_555
H55C C24C 1_555 1_555
O4F C35 1_555 1_555
Sn2F O4F 1_555 1_555
C1F Sn1 1_555 1_555
H2F C1F 1_555 1_555
H3F C1F 1_555 1_555
C2F C1F 1_555 1_555
H4F C2F 1_555 1_555
H5F C2F 1_555 1_555
C3F C2F 1_555 1_555
H6F C3F 1_555 1_555
H7F C3F 1_555 1_555
C4F C3F 1_555 1_555
H8F C4F 1_555 1_555
H9F C4F 1_555 1_555
H10F C4F 1_555 1_555
C5F Sn1 1_555 1_555
H11F C5F 1_555 1_555
H12F C5F 1_555 1_555
C6F C5F 1_555 1_555
H13F C6F 1_555 1_555
H14F C6F 1_555 1_555
C7F C6F 1_555 1_555
H15F C7F 1_555 1_555
H16F C7F 1_555 1_555
C8F C7F 1_555 1_555
H17F C8F 1_555 1_555
H18F C8F 1_555 1_555
H19F C8F 1_555 1_555
C9F Sn1 1_555 1_555
H20F C9F 1_555 1_555
H21F C9F 1_555 1_555
C10F C9F 1_555 1_555
H22F C10F 1_555 1_555
H23F C10F 1_555 1_555
C11F C10F 1_555 1_555
H24F C11F 1_555 1_555
H25F C11F 1_555 1_555
C12F C11F 1_555 1_555
H26F C12F 1_555 1_555
H27F C12F 1_555 1_555
H28F C12F 1_555 1_555
C5 Sn1F_2 1_555 1_555
C9 Sn1F_2 1_555 1_555
C17 Sn2C 1_555 1_555
C21 Sn2C 1_555 1_555
C26 C31 1_555 1_555
C30 C31 1_555 1_555
C30F C31F 1_555 1_555
N1F C32F 1_555 1_555
O5F Sn1F_2 1_555 1_555
C34F C33F 1_555 1_555

#END
