
#######################################################################
#
#                 Cambridge Crystallographic Data Centre
#                                CCDC 
#
#######################################################################
#
# If this CIF has been generated from an entry in the Cambridge 
# Structural Database, then it will include bibliographic, chemical, 
# crystal, experimental, refinement or atomic coordinate data resulting 
# from the CCDC's data processing and validation procedures.
#
#######################################################################

data_NUYPEE
_symmetry_cell_setting           orthorhombic
_symmetry_space_group_name_H-M   'P 21 21 21'
_symmetry_Int_Tables_number      19
_space_group_name_Hall           'P 2ac 2ab'
loop_
_symmetry_equiv_pos_site_id
_symmetry_equiv_pos_as_xyz
1 x,y,z
2 1/2-x,-y,1/2+z
3 -x,1/2+y,1/2-z
4 1/2+x,1/2-y,-z
_cell_length_a                   12.6998(7)
_cell_length_b                   17.6511(9)
_cell_length_c                   20.9304(11)
_cell_angle_alpha                90
_cell_angle_beta                 90
_cell_angle_gamma                90
_cell_volume                     4691.87
loop_
_atom_site_label
_atom_site_type_symbol
_atom_site_fract_x
_atom_site_fract_y
_atom_site_fract_z
Co1 Co 0.48276(5) 0.50255(5) 0.17853(3)
Na1 Na 0.2871(2) 0.62914(15) 0.23489(13)
O1 O 0.3769(3) 0.5230(2) 0.23761(18)
F1 F 0.5428(3) 0.38462(19) 0.21791(15)
F2 F 0.6198(4) 0.2447(2) 0.23344(19)
F3 F 0.6040(4) 0.1403(2) 0.1393(2)
F4 F 0.5049(4) 0.1796(2) 0.0275(2)
F5 F 0.4318(3) 0.3173(2) 0.00917(17)
F6 F 0.4514(3) 0.6300(2) 0.14054(17)
F7 F 0.4637(4) 0.7714(2) 0.0966(3)
F8 F 0.6485(4) 0.8503(2) 0.1009(3)
F9 F 0.8199(4) 0.7825(3) 0.1537(3)
F10 F 0.8130(3) 0.6430(2) 0.1970(2)
N1 N 0.4480(4) 0.4327(3) 0.1091(2)
N2 N 0.6200(4) 0.5521(3) 0.1849(2)
N3 N 0.1238(6) 0.6567(4) 0.2920(4)
N4 N 0.1717(5) 0.6815(4) 0.1523(3)
C1 C 0.3669(5) 0.4513(3) 0.0642(3)
C2 C 0.3893(5) 0.5028(4) 0.0149(2)
C3 C 0.3098(6) 0.5218(4) -0.0274(3)
H1 H 0.3236 0.5561 -0.0600
C4 C 0.2114(6) 0.4910(5) -0.0224(3)
H2 H 0.1593 0.5035 -0.0518
C5 C 0.1902(6) 0.4416(4) 0.0266(3)
H3 H 0.1233 0.4206 0.0297
C6 C 0.2653(5) 0.4223(3) 0.0711(3)
C7 C 0.2355(6) 0.3702(5) 0.1263(4)
H4 H 0.2994 0.3595 0.1509
C8 C 0.1900(9) 0.2937(5) 0.1026(5)
H5 H 0.1723 0.2626 0.1387
H6 H 0.1279 0.3030 0.0776
H7 H 0.2415 0.2683 0.0768
C9 C 0.1568(7) 0.4095(6) 0.1706(4)
H8 H 0.1387 0.3761 0.2051
H9 H 0.1878 0.4549 0.1875
H10 H 0.0944 0.4222 0.1470
C10 C 0.4986(6) 0.5347(4) 0.0062(3)
H11 H 0.5318 0.5357 0.0485
C11 C 0.5644(6) 0.4832(6) -0.0356(4)
H12 H 0.6335 0.5044 -0.0406
H13 H 0.5697 0.4341 -0.0160
H14 H 0.5317 0.4783 -0.0768
C12 C 0.5006(8) 0.6169(5) -0.0200(4)
H15 H 0.5723 0.6334 -0.0243
H16 H 0.4667 0.6183 -0.0610
H17 H 0.4641 0.6498 0.0090
C13 C 0.4828(5) 0.3594(3) 0.1129(3)
C14 C 0.5334(5) 0.3349(4) 0.1682(3)
C15 C 0.5731(5) 0.2639(4) 0.1776(3)
C16 C 0.5656(6) 0.2105(4) 0.1302(4)
C17 C 0.5167(6) 0.2308(4) 0.0750(3)
C18 C 0.4776(5) 0.3023(4) 0.0660(3)
C19 C 0.7085(5) 0.5106(4) 0.2088(3)
C20 C 0.7791(5) 0.4744(4) 0.1676(3)
C21 C 0.8630(6) 0.4354(4) 0.1939(4)
H18 H 0.9103 0.4113 0.1668
C22 C 0.8790(6) 0.4308(4) 0.2588(4)
H19 H 0.9375 0.4058 0.2754
C23 C 0.8073(6) 0.4637(4) 0.2978(3)
H20 H 0.8166 0.4595 0.3418
C24 C 0.7208(5) 0.5033(5) 0.2753(3)
C25 C 0.6459(6) 0.5402(5) 0.3217(4)
H21 H 0.5817 0.5535 0.2983
C26 C 0.6147(7) 0.4866(7) 0.3763(3)
H22 H 0.5671 0.5122 0.4047
H23 H 0.5808 0.4426 0.3590
H24 H 0.6766 0.4716 0.3994
C27 C 0.6933(8) 0.6128(6) 0.3473(4)
H25 H 0.6451 0.6359 0.3768
H26 H 0.7582 0.6016 0.3688
H27 H 0.7066 0.6469 0.3125
C28 C 0.7663(6) 0.4781(5) 0.0960(3)
H28 H 0.6959 0.4980 0.0867
C29 C 0.7759(8) 0.4008(6) 0.0651(4)
H29 H 0.7673 0.4056 0.0198
H30 H 0.8441 0.3799 0.0743
H31 H 0.7224 0.3679 0.0818
C30 C 0.8479(9) 0.5319(6) 0.0660(4)
H32 H 0.8382 0.5333 0.0206
H33 H 0.8389 0.5819 0.0832
H34 H 0.9176 0.5141 0.0756
C31 C 0.6330(5) 0.6257(4) 0.1677(3)
C32 C 0.5478(6) 0.6665(4) 0.1433(3)
C33 C 0.5515(7) 0.7402(4) 0.1216(4)
C34 C 0.6424(8) 0.7790(4) 0.1246(4)
C35 C 0.7273(7) 0.7446(5) 0.1496(4)
C36 C 0.7242(6) 0.6719(4) 0.1716(4)
C37 C 0.3516(6) 0.4735(4) 0.2880(3)
H35 H 0.2951 0.4946 0.3127
H36 H 0.3302 0.4254 0.2708
H37 H 0.4122 0.4665 0.3148
C38 C 0.0687(10) 0.5865(6) 0.3031(6)
H38 H 0.1085 0.5557 0.3322
H39 H 0.0008 0.5970 0.3212
H40 H 0.0601 0.5600 0.2634
C39 C 0.1338(9) 0.6982(9) 0.3511(5)
H41 H 0.1705 0.7449 0.3433
H42 H 0.0650 0.7090 0.3678
H43 H 0.1725 0.6684 0.3814
C40 C 0.0625(7) 0.7020(6) 0.2482(5)
H44 H 0.0825 0.7545 0.2542
H45 H -0.0109 0.6976 0.2605
C41 C 0.0701(7) 0.6850(6) 0.1806(5)
H46 H 0.0358 0.6367 0.1733
H47 H 0.0298 0.7230 0.1577
C42 C 0.1698(10) 0.6356(7) 0.0946(5)
H48 H 0.2390 0.6340 0.0763
H49 H 0.1474 0.5852 0.1050
H50 H 0.1216 0.6575 0.0644
C43 C 0.2078(8) 0.7564(6) 0.1348(5)
H51 H 0.2765 0.7528 0.1159
H52 H 0.1597 0.7783 0.1047
H53 H 0.2113 0.7876 0.1723
Na1B Na 0.7129(2) 0.12914(15) 0.26511(13)
F2B F 0.3802(4) 0.7447(2) 0.26656(19)
loop_
_geom_bond_atom_site_label_1
_geom_bond_atom_site_label_2
_geom_bond_site_symmetry_1
_geom_bond_site_symmetry_2
Co1 O1 1_555 1_555
Na1 O1 1_555 1_555
O1 C37 1_555 1_555
F1 Co1 1_555 1_555
F2 C15 1_555 1_555
F3 C16 1_555 1_555
F4 C17 1_555 1_555
F5 C18 1_555 1_555
F6 Co1 1_555 1_555
F7 C33 1_555 1_555
F8 C34 1_555 1_555
F9 C35 1_555 1_555
F10 C36 1_555 1_555
N1 Co1 1_555 1_555
N2 Co1 1_555 1_555
N3 Na1 1_555 1_555
N4 Na1 1_555 1_555
C1 N1 1_555 1_555
C2 C1 1_555 1_555
C3 C2 1_555 1_555
H1 C3 1_555 1_555
C4 C3 1_555 1_555
H2 C4 1_555 1_555
C5 C4 1_555 1_555
H3 C5 1_555 1_555
C6 C1 1_555 1_555
C7 C6 1_555 1_555
H4 C7 1_555 1_555
C8 C7 1_555 1_555
H5 C8 1_555 1_555
H6 C8 1_555 1_555
H7 C8 1_555 1_555
C9 C7 1_555 1_555
H8 C9 1_555 1_555
H9 C9 1_555 1_555
H10 C9 1_555 1_555
C10 C2 1_555 1_555
H11 C10 1_555 1_555
C11 C10 1_555 1_555
H12 C11 1_555 1_555
H13 C11 1_555 1_555
H14 C11 1_555 1_555
C12 C10 1_555 1_555
H15 C12 1_555 1_555
H16 C12 1_555 1_555
H17 C12 1_555 1_555
C13 N1 1_555 1_555
C14 F1 1_555 1_555
C15 C14 1_555 1_555
C16 C15 1_555 1_555
C17 C16 1_555 1_555
C18 C13 1_555 1_555
C19 N2 1_555 1_555
C20 C19 1_555 1_555
C21 C20 1_555 1_555
H18 C21 1_555 1_555
C22 C21 1_555 1_555
H19 C22 1_555 1_555
C23 C22 1_555 1_555
H20 C23 1_555 1_555
C24 C19 1_555 1_555
C25 C24 1_555 1_555
H21 C25 1_555 1_555
C26 C25 1_555 1_555
H22 C26 1_555 1_555
H23 C26 1_555 1_555
H24 C26 1_555 1_555
C27 C25 1_555 1_555
H25 C27 1_555 1_555
H26 C27 1_555 1_555
H27 C27 1_555 1_555
C28 C20 1_555 1_555
H28 C28 1_555 1_555
C29 C28 1_555 1_555
H29 C29 1_555 1_555
H30 C29 1_555 1_555
H31 C29 1_555 1_555
C30 C28 1_555 1_555
H32 C30 1_555 1_555
H33 C30 1_555 1_555
H34 C30 1_555 1_555
C31 N2 1_555 1_555
C32 F6 1_555 1_555
C33 C32 1_555 1_555
C34 C33 1_555 1_555
C35 C34 1_555 1_555
C36 C31 1_555 1_555
C37 H35 1_555 1_555
H36 C37 1_555 1_555
H37 C37 1_555 1_555
C38 N3 1_555 1_555
H38 C38 1_555 1_555
H39 C38 1_555 1_555
H40 C38 1_555 1_555
C39 N3 1_555 1_555
H41 C39 1_555 1_555
H42 C39 1_555 1_555
H43 C39 1_555 1_555
C40 N3 1_555 1_555
H44 C40 1_555 1_555
H45 C40 1_555 1_555
C41 N4 1_555 1_555
H46 C41 1_555 1_555
H47 C41 1_555 1_555
C42 N4 1_555 1_555
H48 C42 1_555 1_555
H49 C42 1_555 1_555
H50 C42 1_555 1_555
C43 N4 1_555 1_555
H51 C43 1_555 1_555
H52 C43 1_555 1_555
H53 C43 1_555 1_555
Na1B F2 1_555 1_555
F2B Na1 1_555 1_555
C5 C6 1_555 1_555
C13 C14 1_555 1_555
C17 C18 1_555 1_555
C23 C24 1_555 1_555
C31 C32 1_555 1_555
C35 C36 1_555 1_555
C40 C41 1_555 1_555

#END
