
#######################################################################
#
#                 Cambridge Crystallographic Data Centre
#                                CCDC 
#
#######################################################################
#
# If this CIF has been generated from an entry in the Cambridge 
# Structural Database, then it will include bibliographic, chemical, 
# crystal, experimental, refinement or atomic coordinate data resulting 
# from the CCDC's data processing and validation procedures.
#
#######################################################################

data_NUYTOR
_symmetry_cell_setting           monoclinic
_symmetry_space_group_name_H-M   'P 21/n'
_symmetry_Int_Tables_number      14
_space_group_name_Hall           '-P 2yn'
loop_
_symmetry_equiv_pos_site_id
_symmetry_equiv_pos_as_xyz
1 x,y,z
2 1/2-x,1/2+y,1/2-z
3 -x,-y,-z
4 1/2+x,1/2-y,1/2+z
_cell_length_a                   13.362(3)
_cell_length_b                   5.9634(13)
_cell_length_c                   15.641(3)
_cell_angle_alpha                90
_cell_angle_beta                 93.626(3)
_cell_angle_gamma                90
_cell_volume                     1243.83
loop_
_atom_site_label
_atom_site_type_symbol
_atom_site_fract_x
_atom_site_fract_y
_atom_site_fract_z
Eu1 Eu 0.86942(3) 0.08015(6) 0.41937(2)
C1 C 0.9873(5) 0.3605(11) 0.3226(4)
C2 C 1.0499(5) 0.5101(11) 0.2713(4)
C3 C 1.0640(6) 0.4612(13) 0.1866(4)
H1 H 1.0324 0.3364 0.1616
C4 C 1.1239(6) 0.5933(14) 0.1382(4)
H2 H 1.1335 0.5559 0.0815
C5 C 1.1688(5) 0.7791(13) 0.1741(4)
H3 H 1.2089 0.8693 0.1419
C6 C 1.1549(5) 0.8340(12) 0.2594(4)
H4 H 1.1847 0.9623 0.2833
C7 C 1.0969(5) 0.6989(11) 0.3088(4)
C8 C 1.0949(5) 0.7607(12) 0.4015(4)
C9 C 0.6818(5) 0.2995(12) 0.4022(4)
C10 C 0.5938(5) 0.4521(13) 0.4121(4)
H5 H 0.5458 0.4304 0.3636
H6 H 0.6168 0.6063 0.4106
C11 C 0.5411(5) 0.4150(12) 0.4942(4)
H7 H 0.5124 0.2655 0.4934
H8 H 0.5900 0.4239 0.5427
O1 O 0.9334(4) 0.2119(8) 0.2852(3)
O2 O 0.8073(4) -0.1963(9) 0.3158(3)
H9 H 0.780(6) -0.327(7) 0.332(5)
H10 H 0.797(6) -0.166(13) 0.2610(17)
O3 O 0.9887(3) 0.3843(7) 0.4035(3)
O4 O 0.8391(4) -0.2436(9) 0.5042(3)
H11 H 0.872(5) -0.318(11) 0.546(3)
H12 H 0.797(5) -0.356(9) 0.495(5)
O5 O 1.0268(3) 0.8882(8) 0.4278(3)
O6 O 1.1664(3) 0.7034(8) 0.4520(3)
O7 O 0.7569(4) 0.3789(8) 0.3642(3)
O8 O 0.6849(4) 0.1055(8) 0.4300(3)
Eu1_2 Eu 0.86942(3) -0.91985(6) 0.41937(2)
Eu1_3 Eu 0.86942(3) 1.08015(6) 0.41937(2)
Eu1B Eu 1.13058(3) 0.91985(6) 0.58063(2)
Eu1B_2 Eu 0.13058(3) 0.91985(6) 0.58063(2)
Eu1B_3 Eu 1.13058(3) -0.08015(6) 0.58063(2)
C1_2 C 0.9873(5) -0.6395(11) 0.3226(4)
C2_2 C 1.0499(5) -0.4899(11) 0.2713(4)
C3_2 C 1.0640(6) -0.5388(13) 0.1866(4)
H1_2 H 1.0324 -0.6636 0.1616
C4_2 C 1.1239(6) -0.4067(14) 0.1382(4)
H2_2 H 1.1335 -0.4441 0.0815
C5_2 C 1.1688(5) -0.2209(13) 0.1741(4)
H3_2 H 1.2089 -0.1307 0.1419
C6_2 C 1.1549(5) -0.1660(12) 0.2594(4)
H4_2 H 1.1847 -0.0377 0.2833
C7_2 C 1.0969(5) -0.3011(11) 0.3088(4)
C8_2 C 1.0949(5) -0.2393(12) 0.4015(4)
C9B C 0.3182(5) 0.7005(12) 0.5978(4)
C10B C 0.4062(5) 0.5479(13) 0.5879(4)
H5B H 0.4542 0.5696 0.6364
H6B H 0.3832 0.3937 0.5894
C11B C 0.4589(5) 0.5850(12) 0.5058(4)
H7B H 0.4876 0.7345 0.5066
H8B H 0.4100 0.5761 0.4573
O1_2 O 0.9334(4) -0.7881(8) 0.2852(3)
O2_2 O 0.8073(4) -1.1963(9) 0.3158(3)
H9_2 H 0.780(6) -1.327(7) 0.332(5)
H10_2 H 0.797(6) -1.166(13) 0.2610(17)
O3_2 O 0.9887(3) -0.6157(7) 0.4035(3)
O4_2 O 0.8391(4) -1.2436(9) 0.5042(3)
H11_2 H 0.872(5) -1.318(11) 0.546(3)
H12_2 H 0.797(5) -1.356(9) 0.495(5)
O5_2 O 1.0268(3) -0.1118(8) 0.4278(3)
O5B O 0.9732(3) 0.1118(8) 0.5722(3)
O5_3 O 1.0268(3) -1.1118(8) 0.4278(3)
O5B_2 O 0.9732(3) -0.8882(8) 0.5722(3)
O6_2 O 1.1664(3) -0.2966(8) 0.4520(3)
O6B O 0.8336(3) 0.2966(8) 0.5480(3)
O6B_2 O 0.8336(3) -0.7034(8) 0.5480(3)
O7B O 0.2431(4) 0.6211(8) 0.6358(3)
O7_2 O 0.7569(4) -0.6211(8) 0.3642(3)
O8B O 0.3151(4) 0.8945(8) 0.5700(3)
O8_2 O 0.6849(4) -0.8945(8) 0.4300(3)
loop_
_geom_bond_atom_site_label_1
_geom_bond_atom_site_label_2
_geom_bond_site_symmetry_1
_geom_bond_site_symmetry_2
Eu1 O1 1_555 1_555
C1 C2 1_555 1_555
C2 C3 1_555 1_555
C3 H1 1_555 1_555
C4 C3 1_555 1_555
H2 C4 1_555 1_555
C5 C4 1_555 1_555
H3 C5 1_555 1_555
C6 C5 1_555 1_555
H4 C6 1_555 1_555
C7 C2 1_555 1_555
C8 C7 1_555 1_555
C9 C10 1_555 1_555
C10 H5 1_555 1_555
H6 C10 1_555 1_555
C11 C10 1_555 1_555
H7 C11 1_555 1_555
H8 C11 1_555 1_555
O1 C1 1_555 1_555
O2 Eu1 1_555 1_555
H9 O2 1_555 1_555
H10 O2 1_555 1_555
O3 Eu1 1_555 1_555
O4 Eu1 1_555 1_555
H11 O4 1_555 1_555
H12 O4 1_555 1_555
O5 C8 1_555 1_555
O6 C8 1_555 1_555
O7 Eu1 1_555 1_555
O8 Eu1 1_555 1_555
Eu1_2 O1_2 1_555 1_555
Eu1_3 O5 1_555 1_555
Eu1B O5 1_555 1_555
Eu1B_2 O7B 1_555 1_555
Eu1B_3 O5_2 1_555 1_555
C1_2 C2_2 1_555 1_555
C2_2 C3_2 1_555 1_555
C3_2 H1_2 1_555 1_555
C4_2 C3_2 1_555 1_555
H2_2 C4_2 1_555 1_555
C5_2 C4_2 1_555 1_555
H3_2 C5_2 1_555 1_555
C6_2 C5_2 1_555 1_555
H4_2 C6_2 1_555 1_555
C7_2 C2_2 1_555 1_555
C8_2 C7_2 1_555 1_555
C9B C10B 1_555 1_555
C10B H5B 1_555 1_555
H6B C10B 1_555 1_555
C11B C11 1_555 1_555
H7B C11B 1_555 1_555
H8B C11B 1_555 1_555
O1_2 C1_2 1_555 1_555
O2_2 Eu1_2 1_555 1_555
H9_2 O2_2 1_555 1_555
H10_2 O2_2 1_555 1_555
O3_2 Eu1_2 1_555 1_555
O4_2 Eu1_2 1_555 1_555
H11_2 O4_2 1_555 1_555
H12_2 O4_2 1_555 1_555
O5_2 Eu1 1_555 1_555
O5B Eu1 1_555 1_555
O5_3 Eu1_2 1_555 1_555
O5B_2 Eu1_2 1_555 1_555
O6_2 Eu1B_3 1_555 1_555
O6B Eu1 1_555 1_555
O6B_2 Eu1_2 1_555 1_555
O7B C9B 1_555 1_555
O7_2 Eu1_2 1_555 1_555
O8B Eu1B_2 1_555 1_555
O8_2 Eu1_2 1_555 1_555
C1 O3 1_555 1_555
C6 C7 1_555 1_555
C9 O7 1_555 1_555
C9 O8 1_555 1_555
O6 Eu1B 1_555 1_555
Eu1B_3 O5B 1_555 1_555
C1_2 O3_2 1_555 1_555
C6_2 C7_2 1_555 1_555
C8_2 O5_2 1_555 1_555
C8_2 O6_2 1_555 1_555
C9B O8B 1_555 1_555
C10B C11B 1_555 1_555

#END
