
#######################################################################
#
#                 Cambridge Crystallographic Data Centre
#                                CCDC 
#
#######################################################################
#
# If this CIF has been generated from an entry in the Cambridge 
# Structural Database, then it will include bibliographic, chemical, 
# crystal, experimental, refinement or atomic coordinate data resulting 
# from the CCDC's data processing and validation procedures.
#
#######################################################################

data_NUYVOT
_symmetry_cell_setting           monoclinic
_symmetry_space_group_name_H-M   'P 21/c'
_symmetry_Int_Tables_number      14
_space_group_name_Hall           '-P 2ybc'
loop_
_symmetry_equiv_pos_site_id
_symmetry_equiv_pos_as_xyz
1 x,y,z
2 -x,1/2+y,1/2-z
3 -x,-y,-z
4 x,1/2-y,1/2+z
_cell_length_a                   14.9754(11)
_cell_length_b                   11.6808(8)
_cell_length_c                   20.0188(14)
_cell_angle_alpha                90
_cell_angle_beta                 108.9630(10)
_cell_angle_gamma                90
_cell_volume                     3311.74
loop_
_atom_site_label
_atom_site_type_symbol
_atom_site_fract_x
_atom_site_fract_y
_atom_site_fract_z
Zn1 Zn 0.00004(4) 1.08385(4) 0.41678(2)
O1 O -0.0202(3) 0.9174(3) 0.42611(18)
O2 O 0.0119(3) 0.7965(3) 0.51583(15)
O3 O -0.0289(4) 0.7702(3) 0.18878(18)
O4 O -0.0135(3) 0.5844(3) 0.17805(17)
O5 O 0.0491(4) 0.4171(3) 0.41721(18)
H1 H 0.0437 0.3703 0.3863
N1 N -0.1535(5) 1.1075(11) 0.3645(5)
C1 C -0.1969(6) 1.0196(10) 0.3186(6)
H2 H -0.1612 0.9587 0.3113
C2 C -0.2937(7) 1.0227(9) 0.2837(7)
H3 H -0.3227 0.9638 0.2530
C3 C -0.3471(6) 1.1137(10) 0.2946(6)
C4 C -0.3037(8) 1.2016(10) 0.3405(6)
H4 H -0.3395 1.2626 0.3478
C5 C -0.2070(8) 1.1985(10) 0.3754(6)
H5 H -0.1779 1.2574 0.4061
C6 C -0.4486(6) 1.1234(10) 0.2529(7)
H6 H -0.4794 1.1894 0.2596
C7 C -0.6010(5) 1.0534(10) 0.1645(5)
C8 C -0.6639(6) 1.1186(12) 0.1865(4)
H7 H -0.6424 1.1606 0.2281
C9 C -0.7590(6) 1.1209(14) 0.1462(5)
H8 H -0.8011 1.1645 0.1610
C10 C -0.7912(5) 1.0581(12) 0.0840(6)
H9 H -0.8548 1.0596 0.0571
C11 C -0.7282(7) 0.9929(11) 0.0620(6)
H10 H -0.7497 0.9509 0.0204
N2 N -0.6331(6) 0.9906(10) 0.1022(6)
C12 C -0.5000(6) 1.0479(13) 0.2072(6)
H11 H -0.4681 0.9825 0.2010
N3 N 0.1553(7) 1.0804(13) 0.4680(6)
C13 C 0.2011(8) 0.9763(11) 0.4880(8)
H12 H 0.1668 0.9084 0.4791
C14 C 0.2982(8) 0.9736(10) 0.5215(8)
H13 H 0.3289 0.9039 0.5350
C15 C 0.3496(7) 1.0750(10) 0.5350(6)
C16 C 0.3038(9) 1.1791(9) 0.5149(8)
H14 H 0.3381 1.2470 0.5239
C17 C 0.2066(9) 1.1818(11) 0.4814(8)
H15 H 0.1760 1.2515 0.4680
C18 C 0.4529(8) 1.0685(14) 0.5661(8)
H16 H 0.4818 0.9978 0.5668
C19 C 0.5061(7) 1.1558(14) 0.5927(8)
H17 H 0.4784 1.2272 0.5925
C20 C 0.6097(6) 1.1443(11) 0.6233(7)
C21 C 0.6663(7) 1.2385(9) 0.6231(9)
H18 H 0.6398 1.3042 0.5984
C22 C 0.7626(7) 1.2344(11) 0.6599(9)
H19 H 0.8004 1.2974 0.6597
C23 C 0.8022(7) 1.1361(15) 0.6968(8)
H20 H 0.8666 1.1334 0.7214
C24 C 0.7455(8) 1.0419(16) 0.6971(9)
H21 H 0.7720 0.9762 0.7218
N4 N 0.6493(8) 1.0460(13) 0.6603(8)
C25 C -0.0001(3) 0.8203(4) 0.4523(2)
C26 C 0.0075(3) 0.7238(4) 0.4047(2)
C27 C -0.0069(3) 0.7442(4) 0.3341(2)
H22 H -0.0195 0.8180 0.3161
C28 C -0.0024(3) 0.6537(4) 0.2899(2)
C29 C -0.0158(4) 0.6727(4) 0.2133(2)
C30 C 0.0171(4) 0.5450(4) 0.3175(2)
H23 H 0.0204 0.4846 0.2881
C31 C 0.0318(4) 0.5245(4) 0.3885(2)
C32 C 0.0282(4) 0.6147(4) 0.4329(2)
H24 H 0.0395 0.6020 0.4808
Zn1B Zn -0.00004(4) 0.91615(4) 0.58322(2)
Zn1A Zn -0.00004(4) 0.58385(4) 0.08322(2)
O2B O -0.0119(3) 1.2035(3) 0.48417(15)
O4A O 0.0135(3) 1.0844(3) 0.32195(17)
O6 O 0.6015(11) 0.7608(17) 0.6474(10)
O7 O 0.7549(13) 0.644(2) 0.6593(12)
O8 O 0.5454(18) 0.326(3) 0.4476(16)
C33? C -0.2087(12) 0.9953(13) 0.3364(11)
C34? C -0.7490(14) 1.180(2) 0.1486(13)
C35? C -0.7894(12) 1.097(2) 0.0983(12)
C36? C -0.7344(13) 1.0079(19) 0.0869(13)
C37? C 0.1958(10) 0.9736(13) 0.4638(9)
C38? C 0.2932(10) 0.9704(12) 0.4959(9)
C39? C 0.3410(8) 1.0670(13) 0.5298(9)
C40? C 0.2913(10) 1.1669(12) 0.5317(8)
C41? C 0.1939(10) 1.1701(12) 0.4996(8)
C42? C 0.4376(10) 1.0523(18) 0.5794(11)
C43? C 0.5121(10) 1.112(2) 0.5824(11)
C44? C -0.3047(12) 1.0068(12) 0.3005(11)
C45? C 0.6098(9) 1.1023(17) 0.6300(9)
C46? C 0.6627(10) 1.2016(15) 0.6504(9)
C47? C 0.7597(10) 1.1947(16) 0.6841(10)
C48? C 0.8036(9) 1.0884(18) 0.6972(10)
C49? C 0.7507(12) 0.9891(16) 0.6768(10)
C50? C -0.3468(9) 1.1142(14) 0.2929(8)
C51? C -0.2928(11) 1.2102(11) 0.3212(10)
C52? C -0.1967(10) 1.1987(14) 0.3570(10)
C53? C -0.4509(10) 1.122(2) 0.2754(16)
C54? C -0.4950(13) 1.088(2) 0.2095(12)
C55? C -0.5984(11) 1.086(2) 0.1760(11)
C56? C -0.6534(14) 1.175(2) 0.1874(10)
H25? H -0.1805 0.9235 0.3415
H26? H -0.7858 1.2397 0.1562
H27? H -0.8534 1.1005 0.0723
H28? H -0.7615 0.9521 0.0533
H29? H 0.1639 0.9089 0.4411
H30? H 0.3264 0.9036 0.4946
H31? H 0.3233 1.2316 0.5544
H32? H 0.1607 1.2369 0.5008
H33? H 0.4462 0.9936 0.6123
H34? H 0.5018 1.1700 0.5491
H35? H -0.3409 0.9426 0.2816
H36? H 0.6333 1.2728 0.6416
H37? H 0.7951 1.2612 0.6977
H38? H 0.8685 1.0837 0.7197
H39? H 0.7801 0.9179 0.6856
H40? H -0.3210 1.2820 0.3161
H41? H -0.1606 1.2629 0.3759
H42? H -0.4813 1.1465 0.3065
H43? H -0.4581 1.0651 0.1826
H44? H -0.6263 1.2305 0.2210
N5? N -0.1547(9) 1.0913(16) 0.3646(9)
N6? N -0.6389(12) 1.0024(17) 0.1258(13)
N7? N 0.1462(8) 1.0734(14) 0.4657(7)
N8? N 0.6537(12) 0.9960(15) 0.6432(10)
loop_
_geom_bond_atom_site_label_1
_geom_bond_atom_site_label_2
_geom_bond_site_symmetry_1
_geom_bond_site_symmetry_2
Zn1 O1 1_555 1_555
O1 C25 1_555 1_555
O2 C25 1_555 1_555
O3 C29 1_555 1_555
O4 C29 1_555 1_555
O5 H1 1_555 1_555
N1 Zn1 1_555 1_555
C1 N1 1_555 1_555
H2 C1 1_555 1_555
C2 C1 1_555 1_555
H3 C2 1_555 1_555
C3 C2 1_555 1_555
C4 C3 1_555 1_555
H4 C4 1_555 1_555
C5 N1 1_555 1_555
H5 C5 1_555 1_555
C6 C3 1_555 1_555
H6 C6 1_555 1_555
C7 C8 1_555 1_555
C8 H7 1_555 1_555
C9 C8 1_555 1_555
H8 C9 1_555 1_555
C10 C9 1_555 1_555
H9 C10 1_555 1_555
C11 C10 1_555 1_555
H10 C11 1_555 1_555
N2 C7 1_555 1_555
C12 C6 1_555 1_555
H11 C12 1_555 1_555
N3 Zn1 1_555 1_555
C13 N3 1_555 1_555
H12 C13 1_555 1_555
C14 C13 1_555 1_555
H13 C14 1_555 1_555
C15 C14 1_555 1_555
C16 C15 1_555 1_555
H14 C16 1_555 1_555
C17 N3 1_555 1_555
H15 C17 1_555 1_555
C18 C15 1_555 1_555
H16 C18 1_555 1_555
C19 C18 1_555 1_555
H17 C19 1_555 1_555
C20 C19 1_555 1_555
C21 C20 1_555 1_555
H18 C21 1_555 1_555
C22 C21 1_555 1_555
H19 C22 1_555 1_555
C23 C22 1_555 1_555
H20 C23 1_555 1_555
C24 C23 1_555 1_555
H21 C24 1_555 1_555
N4 C20 1_555 1_555
C25 C26 1_555 1_555
C26 C27 1_555 1_555
C27 H22 1_555 1_555
C28 C27 1_555 1_555
C29 C28 1_555 1_555
C30 C28 1_555 1_555
H23 C30 1_555 1_555
C31 O5 1_555 1_555
C32 C26 1_555 1_555
H24 C32 1_555 1_555
Zn1B O2 1_555 1_555
Zn1A O4 1_555 1_555
O2B Zn1 1_555 1_555
O4A Zn1 1_555 1_555
C4 C5 1_555 1_555
C7 C12 1_555 1_555
C11 N2 1_555 1_555
C16 C17 1_555 1_555
C24 N4 1_555 1_555
C30 C31 1_555 1_555
C31 C32 1_555 1_555

#END
