
#######################################################################
#
#                 Cambridge Crystallographic Data Centre
#                                CCDC 
#
#######################################################################
#
# If this CIF has been generated from an entry in the Cambridge 
# Structural Database, then it will include bibliographic, chemical, 
# crystal, experimental, refinement or atomic coordinate data resulting 
# from the CCDC's data processing and validation procedures.
#
#######################################################################

data_NUYXAH
_symmetry_cell_setting           monoclinic
_symmetry_space_group_name_H-M   'P 21/c'
_symmetry_Int_Tables_number      14
_space_group_name_Hall           '-P 2ybc'
loop_
_symmetry_equiv_pos_site_id
_symmetry_equiv_pos_as_xyz
1 x,y,z
2 -x,1/2+y,1/2-z
3 -x,-y,-z
4 x,1/2-y,1/2+z
_cell_length_a                   19.370(5)
_cell_length_b                   10.292(3)
_cell_length_c                   20.590(4)
_cell_angle_alpha                90
_cell_angle_beta                 114.102(5)
_cell_angle_gamma                90
_cell_volume                     3746.89
loop_
_atom_site_label
_atom_site_type_symbol
_atom_site_fract_x
_atom_site_fract_y
_atom_site_fract_z
Cd1 Cd 1.011683(13) 0.08488(2) 0.807847(11)
Cd2 Cd 0.550530(13) 0.53568(2) 0.830330(12)
O1 O 1.44501(13) 0.4037(2) 0.81902(12)
O2 O 1.42896(13) 0.5744(2) 0.74919(12)
O3 O 1.05384(13) 0.8606(2) 0.83785(12)
O4 O 1.00851(13) 0.9744(2) 0.90297(12)
O5 O 0.89702(12) 0.0233(2) 0.71454(11)
O6 O 0.89725(12) 0.1978(2) 0.77746(11)
O7 O 0.59856(14) -0.2591(2) 0.85461(12)
O8 O 0.58062(13) -0.3512(2) 0.94326(12)
N1 N 1.08952(15) 0.1059(3) 0.75161(13)
N2 N 1.17566(14) 0.2071(2) 0.72625(13)
N3 N 1.07756(15) 0.2351(3) 0.89324(14)
N4 N 1.09726(15) 0.4134(2) 0.95782(14)
N5 N 0.58783(15) 0.4817(3) 0.74179(14)
N6 N 0.62702(15) 0.3596(3) 0.67523(14)
N7 N 0.63286(15) 0.3821(3) 0.89887(14)
N8 N 0.68191(14) 0.2006(3) 0.95523(13)
C1 C 1.13531(18) 0.0147(3) 0.73982(16)
H1 H 1.1304 -0.0748 0.7422
C2 C 1.18869(19) 0.0764(3) 0.72419(17)
H2 H 1.2266 0.0376 0.7141
C3 C 1.11560(18) 0.2202(3) 0.74279(16)
H3 H 1.0951 0.2995 0.7474
C4 C 1.21219(18) 0.3147(3) 0.70812(16)
C5 C 1.28908(18) 0.3368(3) 0.74640(16)
H4 H 1.3182 0.2807 0.7827
C6 C 1.32150(18) 0.4450(3) 0.72912(17)
C7 C 1.27609(19) 0.5277(3) 0.67469(17)
H5 H 1.2975 0.6004 0.6634
C8 C 1.20031(19) 0.5032(3) 0.63764(17)
H6 H 1.1708 0.5595 0.6016
C9 C 1.16770(19) 0.3954(3) 0.65360(17)
H7 H 1.1166 0.3775 0.6280
C10 C 1.40357(18) 0.4756(3) 0.76851(17)
C11 C 1.12335(19) 0.2051(3) 0.96336(17)
H8 H 1.1429 0.1233 0.9802
C12 C 1.13517(18) 0.3144(3) 1.00349(17)
H9 H 1.1634 0.3210 1.0523
C13 C 1.06350(17) 0.3597(3) 0.89237(16)
H10 H 1.0338 0.4057 0.8516
C14 C 1.08608(17) 0.5426(3) 0.97610(16)
C15 C 1.07028(16) 0.6406(3) 0.92647(15)
H11 H 1.0709 0.6243 0.8823
C16 C 1.05337(17) 0.7643(3) 0.94318(16)
C17 C 1.05434(17) 0.7883(3) 1.01056(16)
H12 H 1.0413 0.8701 1.0212
C18 C 1.07451(17) 0.6911(3) 1.06115(16)
H13 H 1.0780 0.7091 1.1067
C19 C 1.08955(18) 0.5671(3) 1.04446(17)
H14 H 1.1018 0.5009 1.0780
C20 C 1.03774(17) 0.8726(3) 0.89072(16)
C21 C 0.5981(2) 0.4734(4) 0.63775(19)
H15 H 0.5953 0.4949 0.5929
C22 C 0.5750(2) 0.5465(3) 0.67942(19)
H16 H 0.5535 0.6286 0.6677
C23 C 0.61911(19) 0.3705(3) 0.73736(17)
H17 H 0.6340 0.3071 0.7726
C24 C 0.66555(18) 0.2567(3) 0.65690(16)
C25 C 0.74107(18) 0.2346(3) 0.70040(16)
H18 H 0.7651 0.2847 0.7411
C26 C 0.78092(18) 0.1377(3) 0.68331(16)
C27 C 0.74281(19) 0.0629(3) 0.62227(17)
H19 H 0.7687 -0.0021 0.6101
C28 C 0.6672(2) 0.0842(3) 0.57972(18)
H20 H 0.6426 0.0329 0.5397
C29 C 0.6277(2) 0.1821(3) 0.59650(17)
H21 H 0.5770 0.1973 0.5678
C30 C 0.86319(18) 0.1190(3) 0.72806(16)
C31 C 0.71025(19) 0.3906(3) 0.92608(18)
H22 H 0.7372 0.4618 0.9210
C32 C 0.74167(18) 0.2796(3) 0.96143(17)
H23 H 0.7929 0.2608 0.9850
C33 C 0.61779(18) 0.2658(3) 0.91715(17)
H24 H 0.5693 0.2333 0.9053
C34 C 0.68674(18) 0.0718(3) 0.98333(17)
C35 C 0.64385(18) -0.0267(3) 0.93877(17)
H25 H 0.6130 -0.0093 0.8914
C36 C 0.64775(18) -0.1509(3) 0.96590(16)
C37 C 0.69492(18) -0.1759(3) 1.03673(17)
H26 H 0.6966 -0.2588 1.0552
C38 C 0.7395(2) -0.0779(3) 1.07991(18)
H27 H 0.7720 -0.0959 1.1268
C39 C 0.73564(19) 0.0468(3) 1.05330(17)
H28 H 0.7654 0.1128 1.0819
C40 C 0.60558(18) -0.2604(3) 0.91802(16)
Cd1_2 Cd 1.011683(13) 1.08488(2) 0.807847(11)
Cd2_2 Cd 1.550530(13) 0.53568(2) 0.830330(12)
Cd2_3 Cd 0.550530(13) -0.46432(2) 0.830330(12)
O1_2 O 0.44501(13) 0.4037(2) 0.81902(12)
O2_2 O 0.42896(13) 0.5744(2) 0.74919(12)
O3_2 O 1.05384(13) -0.1394(2) 0.83785(12)
O4_2 O 1.00851(13) -0.0256(2) 0.90297(12)
O7_2 O 0.59856(14) 0.7409(2) 0.85461(12)
O8_2 O 0.58062(13) 0.6488(2) 0.94326(12)
O9 O 0.46236(16) 0.2722(3) 0.94455(15)
H29 H 0.445(2) 0.296(4) 0.968(2)
H30 H 0.449(3) 0.321(4) 0.9099(18)
loop_
_geom_bond_atom_site_label_1
_geom_bond_atom_site_label_2
_geom_bond_site_symmetry_1
_geom_bond_site_symmetry_2
Cd1 O5 1_555 1_555
Cd2 N5 1_555 1_555
O1 C10 1_555 1_555
O2 C10 1_555 1_555
O3 C20 1_555 1_555
O4 C20 1_555 1_555
O5 C30 1_555 1_555
O6 Cd1 1_555 1_555
O7 C40 1_555 1_555
O8 C40 1_555 1_555
N1 Cd1 1_555 1_555
N2 C2 1_555 1_555
N3 Cd1 1_555 1_555
N4 C12 1_555 1_555
N5 C22 1_555 1_555
N6 C21 1_555 1_555
N7 Cd2 1_555 1_555
N8 C32 1_555 1_555
C1 N1 1_555 1_555
H1 C1 1_555 1_555
C2 C1 1_555 1_555
H2 C2 1_555 1_555
C3 N1 1_555 1_555
H3 C3 1_555 1_555
C4 N2 1_555 1_555
C5 C4 1_555 1_555
H4 C5 1_555 1_555
C6 C5 1_555 1_555
C7 C6 1_555 1_555
H5 C7 1_555 1_555
C8 C7 1_555 1_555
H6 C8 1_555 1_555
C9 C4 1_555 1_555
H7 C9 1_555 1_555
C10 C6 1_555 1_555
C11 N3 1_555 1_555
H8 C11 1_555 1_555
C12 C11 1_555 1_555
H9 C12 1_555 1_555
C13 N3 1_555 1_555
H10 C13 1_555 1_555
C14 N4 1_555 1_555
C15 C14 1_555 1_555
H11 C15 1_555 1_555
C16 C15 1_555 1_555
C17 C16 1_555 1_555
H12 C17 1_555 1_555
C18 C17 1_555 1_555
H13 C18 1_555 1_555
C19 C14 1_555 1_555
H14 C19 1_555 1_555
C20 C16 1_555 1_555
C21 H15 1_555 1_555
C22 C21 1_555 1_555
H16 C22 1_555 1_555
C23 N5 1_555 1_555
H17 C23 1_555 1_555
C24 N6 1_555 1_555
C25 C24 1_555 1_555
H18 C25 1_555 1_555
C26 C25 1_555 1_555
C27 C26 1_555 1_555
H19 C27 1_555 1_555
C28 C27 1_555 1_555
H20 C28 1_555 1_555
C29 C24 1_555 1_555
H21 C29 1_555 1_555
C30 O6 1_555 1_555
C31 N7 1_555 1_555
H22 C31 1_555 1_555
C32 C31 1_555 1_555
H23 C32 1_555 1_555
C33 N7 1_555 1_555
H24 C33 1_555 1_555
C34 N8 1_555 1_555
C35 C34 1_555 1_555
H25 C35 1_555 1_555
C36 C35 1_555 1_555
C37 C36 1_555 1_555
H26 C37 1_555 1_555
C38 C37 1_555 1_555
H27 C38 1_555 1_555
C39 C34 1_555 1_555
H28 C39 1_555 1_555
C40 C36 1_555 1_555
O9 H29 1_555 1_555
H30 O9 1_555 1_555
Cd1_2 O3 1_555 1_555
Cd2_2 O1 1_555 1_555
Cd2_3 O7 1_555 1_555
O1_2 Cd2 1_555 1_555
O2_2 Cd2 1_555 1_555
O3_2 Cd1 1_555 1_555
O4_2 Cd1 1_555 1_555
O7_2 Cd2 1_555 1_555
O8_2 Cd2 1_555 1_555
O2 Cd2_2 1_555 1_555
O4 Cd1_2 1_555 1_555
O8 Cd2_3 1_555 1_555
N2 C3 1_555 1_555
N4 C13 1_555 1_555
N6 C23 1_555 1_555
N8 C33 1_555 1_555
C8 C9 1_555 1_555
C18 C19 1_555 1_555
C26 C30 1_555 1_555
C28 C29 1_555 1_555
C38 C39 1_555 1_555

#END
