
#######################################################################
#
#                 Cambridge Crystallographic Data Centre
#                                CCDC 
#
#######################################################################
#
# If this CIF has been generated from an entry in the Cambridge 
# Structural Database, then it will include bibliographic, chemical, 
# crystal, experimental, refinement or atomic coordinate data resulting 
# from the CCDC's data processing and validation procedures.
#
#######################################################################

data_NUZSOR
_symmetry_cell_setting           monoclinic
_symmetry_space_group_name_H-M   'P 21/c'
_symmetry_Int_Tables_number      14
_space_group_name_Hall           '-P 2ybc'
loop_
_symmetry_equiv_pos_site_id
_symmetry_equiv_pos_as_xyz
1 x,y,z
2 -x,1/2+y,1/2-z
3 -x,-y,-z
4 x,1/2-y,1/2+z
_cell_length_a                   3.6484(7)
_cell_length_b                   10.844(2)
_cell_length_c                   14.425(3)
_cell_angle_alpha                90
_cell_angle_beta                 93.790(3)
_cell_angle_gamma                90
_cell_volume                     569.452
loop_
_atom_site_label
_atom_site_type_symbol
_atom_site_fract_x
_atom_site_fract_y
_atom_site_fract_z
Ag1 Ag 0.66665(14) -0.01685(5) 0.39972(4)
O1 O 1.1232(13) 0.1146(4) 0.4658(3)
O2 O 1.2107(13) 0.2934(4) 0.5384(3)
N1 N 0.6288(15) 0.4159(5) 0.2275(4)
C1 C 1.1010(17) 0.2320(6) 0.4717(5)
C2 C 0.9294(18) 0.2965(6) 0.3853(5)
C3 C 0.7856(17) 0.4140(6) 0.3906(5)
H1 H 0.7886 0.4559 0.4485
C4 C 0.6391(17) 0.4690(6) 0.3114(5)
H2 H 0.5389 0.5495 0.3161
C5 C 0.7686(18) 0.3018(6) 0.2221(5)
H3 H 0.7627 0.2619 0.1634
C6 C 0.9211(18) 0.2408(6) 0.2994(5)
H4 H 1.0201 0.1604 0.2933
Ag1B Ag 1.33335(14) 0.01685(5) 0.60028(4)
Ag1A Ag 0.33335(14) 0.48315(5) 0.10028(4)
O1B O 0.8768(13) -0.1146(4) 0.5342(3)
N1A N 0.3712(15) -0.0841(5) 0.2725(4)
loop_
_geom_bond_atom_site_label_1
_geom_bond_atom_site_label_2
_geom_bond_site_symmetry_1
_geom_bond_site_symmetry_2
Ag1 O1 1_555 1_555
O1 C1 1_555 1_555
O2 C1 1_555 1_555
N1 C4 1_555 1_555
C1 C2 1_555 1_555
C2 C3 1_555 1_555
C3 H1 1_555 1_555
C4 C3 1_555 1_555
H2 C4 1_555 1_555
C5 N1 1_555 1_555
H3 C5 1_555 1_555
C6 C2 1_555 1_555
H4 C6 1_555 1_555
Ag1B O1 1_555 1_555
Ag1A N1 1_555 1_555
O1B Ag1 1_555 1_555
N1A Ag1 1_555 1_555
C5 C6 1_555 1_555
Ag1B O1B 1_555 1_555

#END
