
#######################################################################
#
#                 Cambridge Crystallographic Data Centre
#                                CCDC 
#
#######################################################################
#
# If this CIF has been generated from an entry in the Cambridge 
# Structural Database, then it will include bibliographic, chemical, 
# crystal, experimental, refinement or atomic coordinate data resulting 
# from the CCDC's data processing and validation procedures.
#
#######################################################################

data_OBECUT
_symmetry_cell_setting           triclinic
_symmetry_space_group_name_H-M   'P -1'
_symmetry_Int_Tables_number      2
_space_group_name_Hall           '-P 1'
loop_
_symmetry_equiv_pos_site_id
_symmetry_equiv_pos_as_xyz
1 x,y,z
2 -x,-y,-z
_cell_length_a                   8.8148(8)
_cell_length_b                   10.5031(6)
_cell_length_c                   10.8323(11)
_cell_angle_alpha                81.782(6)
_cell_angle_beta                 67.448(8)
_cell_angle_gamma                66.501(5)
_cell_volume                     849.324
loop_
_atom_site_label
_atom_site_type_symbol
_atom_site_fract_x
_atom_site_fract_y
_atom_site_fract_z
Ag1 Ag 0.46762(3) 0.33129(2) 0.52731(2)
C1 C 0.6324(4) 0.0402(3) 1.3083(3)
C2 C 0.6173(4) 0.0716(3) 1.1726(3)
C3 C 0.4536(4) 0.1589(3) 1.1650(3)
C4 C 0.4354(4) 0.1985(3) 1.0425(3)
C5 C 0.5850(4) 0.1506(3) 0.9254(3)
C6 C 0.7496(4) 0.0621(3) 0.9310(3)
C7 C 0.7646(4) 0.0219(3) 1.0545(3)
C8 C 0.5682(4) 0.1937(3) 0.7972(3)
C9 C 0.7772(4) -0.0863(3) 1.3295(3)
C10 C 0.8359(4) -0.2125(3) 1.2637(3)
C11 C 0.9634(4) -0.3310(3) 1.2905(3)
C12 C 1.0356(4) -0.3215(3) 1.3817(3)
C13 C 0.9785(4) -0.1960(3) 1.4482(3)
C14 C 0.8481(4) -0.0802(3) 1.4222(3)
C15 C 1.1686(4) -0.4435(3) 1.4084(3)
H1 H 0.3556(4) 0.1909(3) 1.2432(3)
H2 H 0.3258(4) 0.2560(3) 1.0378(3)
H3 H 0.8477(4) 0.0305(3) 0.8528(3)
H4 H 0.8731(4) -0.0384(3) 1.0594(3)
H5 H 0.7889(4) -0.2167(3) 1.2015(3)
H6 H 1.0001(4) -0.4150(3) 1.2486(3)
H7 H 1.0275(4) -0.1908(3) 1.5087(3)
H8 H 0.8073(4) 0.0027(3) 1.4674(3)
N1 N 0.5543(3) 0.2294(3) 0.6958(3)
N2 N 1.2750(4) -0.5422(3) 1.4293(3)
O1 O 0.5259(3) 0.1193(2) 1.4014(2)
C16 C 0.7917(7) 0.3996(4) 0.1131(4)
F1 F 0.7795(4) 0.5314(3) 0.0990(3)
F2 F 0.9101(7) 0.3341(4) 0.0028(3)
F3 F 0.6334(6) 0.3972(4) 0.1291(4)
O2 O 0.7029(4) 0.3999(3) 0.3640(2)
O3 O 1.0123(4) 0.3474(3) 0.2312(4)
O4 O 0.8816(4) 0.1793(3) 0.2469(3)
S1 S 0.8562(1) 0.32197(8) 0.25330(8)
N2_2 N 0.2750(4) 0.4578(3) 0.4293(3)
O1_2 O 0.5259(3) 0.1193(2) 0.4014(2)
Ag1_2 Ag 1.46762(3) -0.66871(2) 1.52731(2)
Ag1_3 Ag 0.46762(3) 0.33129(2) 1.52731(2)
loop_
_geom_bond_atom_site_label_1
_geom_bond_atom_site_label_2
_geom_bond_site_symmetry_1
_geom_bond_site_symmetry_2
Ag1 N1 1_555 1_555
C1 C2 1_555 1_555
C2 C3 1_555 1_555
C3 C4 1_555 1_555
C4 C5 1_555 1_555
C5 C6 1_555 1_555
C6 C7 1_555 1_555
C7 C2 1_555 1_555
C8 C5 1_555 1_555
C9 C1 1_555 1_555
C10 C9 1_555 1_555
C11 C10 1_555 1_555
C12 C11 1_555 1_555
C13 C12 1_555 1_555
C14 C9 1_555 1_555
C15 C12 1_555 1_555
H1 C3 1_555 1_555
H2 C4 1_555 1_555
H3 C6 1_555 1_555
H4 C7 1_555 1_555
H5 C10 1_555 1_555
H6 C11 1_555 1_555
H7 C13 1_555 1_555
H8 C14 1_555 1_555
N1 C8 1_555 1_555
N2 C15 1_555 1_555
O1 C1 1_555 1_555
C16 F1 1_555 1_555
F2 C16 1_555 1_555
F3 C16 1_555 1_555
O2 Ag1 1_555 1_555
O3 S1 1_555 1_555
O4 S1 1_555 1_555
S1 C16 1_555 1_555
N2_2 Ag1 1_555 1_555
O1_2 Ag1 1_555 1_555
Ag1_2 N2 1_555 1_555
Ag1_3 O1 1_555 1_555
C13 C14 1_555 1_555
O2 S1 1_555 1_555

#END
