
#######################################################################
#
#                 Cambridge Crystallographic Data Centre
#                                CCDC 
#
#######################################################################
#
# If this CIF has been generated from an entry in the Cambridge 
# Structural Database, then it will include bibliographic, chemical, 
# crystal, experimental, refinement or atomic coordinate data resulting 
# from the CCDC's data processing and validation procedures.
#
#######################################################################

data_OBEHEJ
_symmetry_cell_setting           monoclinic
_symmetry_space_group_name_H-M   'C 2/c'
_symmetry_Int_Tables_number      15
_space_group_name_Hall           '-C 2yn'
loop_
_symmetry_equiv_pos_site_id
_symmetry_equiv_pos_as_xyz
1 x,y,z
2 1/2+x,1/2+y,z
3 x,-y,1/2+z
4 1/2+x,1/2-y,1/2+z
5 -x,-y,-z
6 1/2-x,1/2-y,-z
7 -x,y,1/2-z
8 1/2-x,1/2+y,1/2-z
_cell_length_a                   14.9403(5)
_cell_length_b                   7.0436(3)
_cell_length_c                   10.2343(4)
_cell_angle_alpha                90
_cell_angle_beta                 131.220(3)
_cell_angle_gamma                90
_cell_volume                     810.097
loop_
_atom_site_label
_atom_site_type_symbol
_atom_site_fract_x
_atom_site_fract_y
_atom_site_fract_z
Cu1 Cu 0.0000 0.33221(5) 0.2500
Cl1 Cl -0.14440(5) 0.55232(9) 0.13949(8)
O1 O -0.04769(17) 0.2421(3) -0.0109(2)
O2 O 0.11501(15) 0.1209(3) 0.3100(2)
C1 C 0.0301(2) 0.0951(3) 0.0175(3)
H1 H 0.0447 0.1125 -0.0621
C2 C 0.1455(2) 0.1141(4) 0.2023(3)
H2 H 0.1968 0.0064 0.2339
H3 H 0.1867 0.2292 0.2162
H4 H -0.071(3) 0.303(4) -0.093(3)
H5 H 0.171(2) 0.106(5) 0.408(2)
C1D C -0.0301(2) -0.0951(3) -0.0175(3)
O1D O 0.04769(17) -0.2421(3) 0.0109(2)
H4D H 0.071(3) -0.303(4) 0.093(3)
H1D H -0.0447 -0.1125 0.0621
C2D C -0.1455(2) -0.1141(4) -0.2023(3)
O2D O -0.11501(15) -0.1209(3) -0.3100(2)
H5D H -0.171(2) -0.106(5) -0.408(2)
H2D H -0.1968 -0.0064 -0.2339
H3D H -0.1867 -0.2292 -0.2162
Cl1F Cl 0.14440(5) 0.55232(9) 0.36051(8)
O1F O 0.04769(17) 0.2421(3) 0.5109(2)
O2F O -0.11501(15) 0.1209(3) 0.1900(2)
Cu1B Cu 0.0000 -0.33221(5) -0.2500
H4F H 0.071(3) 0.303(4) 0.593(3)
H5F H -0.171(2) 0.106(5) 0.092(2)
loop_
_geom_bond_atom_site_label_1
_geom_bond_atom_site_label_2
_geom_bond_site_symmetry_1
_geom_bond_site_symmetry_2
Cu1 Cl1 1_555 1_555
O1 Cu1 1_555 1_555
O2 Cu1 1_555 1_555
C1 O1 1_555 1_555
H1 C1 1_555 1_555
C2 O2 1_555 1_555
H2 C2 1_555 1_555
H3 C2 1_555 1_555
H4 O1 1_555 1_555
H5 O2 1_555 1_555
C1D C1 1_555 1_555
O1D C1D 1_555 1_555
H4D O1D 1_555 1_555
H1D C1D 1_555 1_555
C2D C1D 1_555 1_555
O2D C2D 1_555 1_555
H5D O2D 1_555 1_555
H2D C2D 1_555 1_555
H3D C2D 1_555 1_555
Cl1F Cu1 1_555 1_555
O1F Cu1 1_555 1_555
O2F Cu1 1_555 1_555
Cu1B O1D 1_555 1_555
H4F O1F 1_555 1_555
H5F O2F 1_555 1_555
C1 C2 1_555 1_555
O2D Cu1B 1_555 1_555

#END
