
#######################################################################
#
#                 Cambridge Crystallographic Data Centre
#                                CCDC 
#
#######################################################################
#
# If this CIF has been generated from an entry in the Cambridge 
# Structural Database, then it will include bibliographic, chemical, 
# crystal, experimental, refinement or atomic coordinate data resulting 
# from the CCDC's data processing and validation procedures.
#
#######################################################################

data_OBEPAN
_symmetry_cell_setting           triclinic
_symmetry_space_group_name_H-M   'P -1'
_symmetry_Int_Tables_number      2
_space_group_name_Hall           '-P 1'
loop_
_symmetry_equiv_pos_site_id
_symmetry_equiv_pos_as_xyz
1 x,y,z
2 -x,-y,-z
_cell_length_a                   7.495(6)
_cell_length_b                   9.293(8)
_cell_length_c                   11.649(10)
_cell_angle_alpha                73.820(13)
_cell_angle_beta                 71.618(14)
_cell_angle_gamma                79.844(13)
_cell_volume                     735.977
loop_
_atom_site_label
_atom_site_type_symbol
_atom_site_fract_x
_atom_site_fract_y
_atom_site_fract_z
Gd1 Gd 0.60499(4) 0.55479(3) 0.72196(3)
N1 N 0.8228(8) 0.9017(7) 1.2302(5)
O1 O 0.6830(6) 0.7123(5) 0.8216(4)
O2 O 0.9545(6) 0.6149(5) 0.8677(5)
O3 O 0.6159(7) 1.2795(5) 0.7638(4)
O4 O 0.6674(7) 1.3683(5) 0.9050(4)
O5 O 0.8036(9) 1.0099(6) 1.2759(5)
O6 O 0.8750(11) 0.7727(6) 1.2795(6)
C1 C 0.7890(9) 0.8325(7) 0.9376(6)
C2 C 0.7309(9) 0.9795(7) 0.8785(6)
H1 H 0.7061 0.9964 0.8022
C3 C 0.7096(8) 1.1015(7) 0.9334(6)
C4 C 0.7372(9) 1.0737(7) 1.0502(6)
H2 H 0.7189 1.1513 1.0900
C5 C 0.7927(9) 0.9276(7) 1.1060(6)
C6 C 0.8224(9) 0.8063(7) 1.0515(6)
H3 H 0.8635 0.7105 1.0911
C7 C 0.8121(9) 0.7101(7) 0.8706(6)
C8 C 0.6610(9) 1.2573(7) 0.8642(6)
O7 O 0.7215(6) 0.5116(5) 0.5144(4)
O8 O 0.6441(6) 0.4672(5) 0.3582(4)
C9 C 0.6053(8) 0.4941(7) 0.4627(6)
O9 O 0.9380(6) 0.5382(6) 0.6623(4)
H4 H 0.9893 0.5584 0.7104
H5 H 1.0143 0.4900 0.6110
O10 O 0.3160(6) 0.5807(5) 0.8776(4)
H6 H 0.2047 0.5993 0.8672
H7 H 0.3143 0.5689 0.9536
O11 O 0.5606(8) 0.8052(5) 0.5996(5)
H8 H 0.5373 0.8373 0.5254
H9 H 0.5436 0.8748 0.6388
C9A C 0.3947(8) 0.5059(7) 0.5373(6)
O7A O 0.2785(6) 0.4884(5) 0.4856(4)
O8A O 0.3559(6) 0.5328(5) 0.6418(4)
N1_2 N 0.8228(8) -0.0983(7) 1.2302(5)
O1_2 O 0.6830(6) -0.2877(5) 0.8216(4)
O2_2 O 0.9545(6) -0.3851(5) 0.8677(5)
O3_2 O 0.6159(7) 0.2795(5) 0.7638(4)
O4_2 O 0.6674(7) 0.3683(5) 0.9050(4)
O5_2 O 0.8036(9) 0.0099(6) 1.2759(5)
O6_2 O 0.8750(11) -0.2273(6) 1.2795(6)
C1_2 C 0.7890(9) -0.1675(7) 0.9376(6)
C2_2 C 0.7309(9) -0.0205(7) 0.8785(6)
H1_2 H 0.7061 -0.0036 0.8022
C3_2 C 0.7096(8) 0.1015(7) 0.9334(6)
C4_2 C 0.7372(9) 0.0737(7) 1.0502(6)
H2_2 H 0.7189 0.1513 1.0900
C5_2 C 0.7927(9) -0.0724(7) 1.1060(6)
C6_2 C 0.8224(9) -0.1937(7) 1.0515(6)
H3_2 H 0.8635 -0.2895 1.0911
C7_2 C 0.8121(9) -0.2899(7) 0.8706(6)
C8_2 C 0.6610(9) 0.2573(7) 0.8642(6)
Gd1_2 Gd 0.60499(4) -0.44521(3) 0.72196(3)
O9_2 O 0.9380(6) -0.4618(6) 0.6623(4)
H4_2 H 0.9893 -0.4416 0.7104
H5_2 H 1.0143 -0.5100 0.6110
O10_2 O 0.3160(6) -0.4193(5) 0.8776(4)
H6_2 H 0.2047 -0.4007 0.8672
H7_2 H 0.3143 -0.4311 0.9536
O11_2 O 0.5606(8) -0.1948(5) 0.5996(5)
H8_2 H 0.5373 -0.1627 0.5254
H9_2 H 0.5436 -0.1252 0.6388
Gd1_3 Gd 0.60499(4) 1.55479(3) 0.72196(3)
Gd1A Gd 0.39501(4) 0.44521(3) 0.27804(3)
O3_3 O 0.6159(7) -0.7205(5) 0.7638(4)
O4_3 O 0.6674(7) -0.6317(5) 0.9050(4)
O7_2 O 0.7215(6) -0.4884(5) 0.5144(4)
O8A_2 O 0.3559(6) -0.4672(5) 0.6418(4)
O12 O 0.6215(9) 0.1154(6) 0.5864(5)
H10 H 0.6116 0.1487 0.6491
H11 H 0.7343 0.0869 0.5501
O13 O -0.0087(18) 0.1407(14) 0.4978(13)
H12 H 0.1078 0.1549 0.4718
H13 H -0.0385 0.0661 0.5589
loop_
_geom_bond_atom_site_label_1
_geom_bond_atom_site_label_2
_geom_bond_site_symmetry_1
_geom_bond_site_symmetry_2
Gd1 O1 1_555 1_555
N1 O5 1_555 1_555
O1 C7 1_555 1_555
O2 C7 1_555 1_555
O3 C8 1_555 1_555
O4 C8 1_555 1_555
O6 N1 1_555 1_555
C1 C2 1_555 1_555
C2 H1 1_555 1_555
C3 C2 1_555 1_555
C4 C3 1_555 1_555
H2 C4 1_555 1_555
C5 N1 1_555 1_555
C6 C1 1_555 1_555
H3 C6 1_555 1_555
C7 C1 1_555 1_555
C8 C3 1_555 1_555
O7 Gd1 1_555 1_555
O8 C9 1_555 1_555
C9 O7 1_555 1_555
O9 Gd1 1_555 1_555
H4 O9 1_555 1_555
H5 O9 1_555 1_555
O10 Gd1 1_555 1_555
H6 O10 1_555 1_555
H7 O10 1_555 1_555
O11 Gd1 1_555 1_555
H8 O11 1_555 1_555
H9 O11 1_555 1_555
O12 H10 1_555 1_555
H11 O12 1_555 1_555
O13 H12 1_555 1_555
H13 O13 1_555 1_555
C9A C9 1_555 1_555
O7A C9A 1_555 1_555
O8A Gd1 1_555 1_555
N1_2 O5_2 1_555 1_555
O1_2 C7_2 1_555 1_555
O2_2 C7_2 1_555 1_555
O3_2 Gd1 1_555 1_555
O4_2 Gd1 1_555 1_555
O6_2 N1_2 1_555 1_555
C1_2 C2_2 1_555 1_555
C2_2 H1_2 1_555 1_555
C3_2 C2_2 1_555 1_555
C4_2 C3_2 1_555 1_555
H2_2 C4_2 1_555 1_555
C5_2 N1_2 1_555 1_555
C6_2 C1_2 1_555 1_555
H3_2 C6_2 1_555 1_555
C7_2 C1_2 1_555 1_555
C8_2 O3_2 1_555 1_555
Gd1_2 O1_2 1_555 1_555
O9_2 Gd1_2 1_555 1_555
H4_2 O9_2 1_555 1_555
H5_2 O9_2 1_555 1_555
O10_2 Gd1_2 1_555 1_555
H6_2 O10_2 1_555 1_555
H7_2 O10_2 1_555 1_555
O11_2 Gd1_2 1_555 1_555
H8_2 O11_2 1_555 1_555
H9_2 O11_2 1_555 1_555
Gd1_3 O3 1_555 1_555
Gd1A O8 1_555 1_555
O3_3 Gd1_2 1_555 1_555
O4_3 Gd1_2 1_555 1_555
O7_2 Gd1_2 1_555 1_555
O8A_2 Gd1_2 1_555 1_555
O4 Gd1_3 1_555 1_555
C4 C5 1_555 1_555
C5 C6 1_555 1_555
C9A O8A 1_555 1_555
O7A Gd1A 1_555 1_555
O4_2 C8_2 1_555 1_555
C3_2 C8_2 1_555 1_555
C4_2 C5_2 1_555 1_555
C5_2 C6_2 1_555 1_555

#END
