
#######################################################################
#
#                 Cambridge Crystallographic Data Centre
#                                CCDC 
#
#######################################################################
#
# If this CIF has been generated from an entry in the Cambridge 
# Structural Database, then it will include bibliographic, chemical, 
# crystal, experimental, refinement or atomic coordinate data resulting 
# from the CCDC's data processing and validation procedures.
#
#######################################################################

data_OBEWUO
_symmetry_cell_setting           monoclinic
_symmetry_space_group_name_H-M   'P 21/n'
_symmetry_Int_Tables_number      14
_space_group_name_Hall           '-P 2yn'
loop_
_symmetry_equiv_pos_site_id
_symmetry_equiv_pos_as_xyz
1 x,y,z
2 1/2-x,1/2+y,1/2-z
3 -x,-y,-z
4 1/2+x,1/2-y,1/2+z
_cell_length_a                   7.8769(8)
_cell_length_b                   18.0103(18)
_cell_length_c                   11.5651(11)
_cell_angle_alpha                90
_cell_angle_beta                 98.881(3)
_cell_angle_gamma                90
_cell_volume                     1621.02
loop_
_atom_site_label
_atom_site_type_symbol
_atom_site_fract_x
_atom_site_fract_y
_atom_site_fract_z
Cu1 Cu -0.12474(6) 0.13626(3) -0.23201(4)
O1 O 0.1223(4) 0.10433(17) -0.2065(2)
O2 O 0.1898(5) 0.2199(2) -0.1807(3)
O3 O 0.3825(5) 0.1348(2) -0.1475(3)
N1 N -0.1406(4) 0.10167(18) -0.3994(2)
N2 N -0.2390(4) 0.02447(17) -0.2188(2)
N3 N -0.1024(5) 0.1727(2) -0.0702(3)
N4 N -0.0416(5) 0.2089(2) 0.1340(3)
N5 N 0.1843(5) 0.2937(2) 0.2182(3)
N6 N 0.2297(5) 0.1532(3) -0.1784(3)
C1 C -0.0922(5) 0.1414(2) -0.4864(3)
C2 C -0.1186(6) 0.1133(3) -0.6012(3)
H1 H -0.0848 0.1414 -0.6611
C3 C -0.1926(6) 0.0462(3) -0.6259(3)
H2 H -0.2083 0.0281 -0.7021
C4 C -0.2452(5) 0.0042(2) -0.5358(3)
C5 C -0.3288(6) -0.0664(3) -0.5537(4)
H3 H -0.3501 -0.0862 -0.6288
C6 C -0.3768(6) -0.1044(3) -0.4651(4)
H4 H -0.4314 -0.1500 -0.4800
C7 C -0.3462(5) -0.0767(2) -0.3483(4)
C8 C -0.3951(6) -0.1142(2) -0.2528(4)
H5 H -0.4475 -0.1605 -0.2632
C9 C -0.3659(6) -0.0830(3) -0.1454(4)
H6 H -0.3975 -0.1081 -0.0817
C10 C -0.2884(5) -0.0130(2) -0.1294(3)
C11 C -0.2672(5) -0.0067(2) -0.3268(3)
C12 C -0.2148(5) 0.0341(2) -0.4227(3)
C13 C -0.0106(6) 0.2153(2) -0.4597(4)
H7 H -0.0914 0.2482 -0.4320
H8 H 0.0238 0.2355 -0.5293
H9 H 0.0885 0.2099 -0.4005
C14 C -0.2608(7) 0.0221(3) -0.0104(3)
H10 H -0.1406 0.0317 0.0131
H11 H -0.3007 -0.0110 0.0448
H12 H -0.3235 0.0679 -0.0129
C15 C -0.0670(5) 0.1919(2) 0.0234(4)
C16 C 0.0807(6) 0.2545(2) 0.1746(3)
N5C N -0.3157(5) 0.2063(2) -0.2818(3)
Cu1C Cu 0.37526(6) 0.36374(3) 0.26799(4)
loop_
_geom_bond_atom_site_label_1
_geom_bond_atom_site_label_2
_geom_bond_site_symmetry_1
_geom_bond_site_symmetry_2
Cu1 O1 1_555 1_555
O1 N6 1_555 1_555
O2 N6 1_555 1_555
O3 N6 1_555 1_555
N1 Cu1 1_555 1_555
N2 Cu1 1_555 1_555
N3 Cu1 1_555 1_555
N4 C15 1_555 1_555
N5 C16 1_555 1_555
C1 N1 1_555 1_555
C2 C1 1_555 1_555
H1 C2 1_555 1_555
C3 C2 1_555 1_555
H2 C3 1_555 1_555
C4 C3 1_555 1_555
C5 C4 1_555 1_555
H3 C5 1_555 1_555
C6 C5 1_555 1_555
H4 C6 1_555 1_555
C7 C6 1_555 1_555
C8 C7 1_555 1_555
H5 C8 1_555 1_555
C9 C8 1_555 1_555
H6 C9 1_555 1_555
C10 N2 1_555 1_555
C11 N2 1_555 1_555
C12 N1 1_555 1_555
C13 C1 1_555 1_555
H7 C13 1_555 1_555
H8 C13 1_555 1_555
H9 C13 1_555 1_555
C14 C10 1_555 1_555
H10 C14 1_555 1_555
H11 C14 1_555 1_555
H12 C14 1_555 1_555
C15 N3 1_555 1_555
C16 N4 1_555 1_555
N5C Cu1 1_555 1_555
Cu1C N5 1_555 1_555
C4 C12 1_555 1_555
C7 C11 1_555 1_555
C9 C10 1_555 1_555
C11 C12 1_555 1_555

#END
