
#######################################################################
#
#                 Cambridge Crystallographic Data Centre
#                                CCDC 
#
#######################################################################
#
# If this CIF has been generated from an entry in the Cambridge 
# Structural Database, then it will include bibliographic, chemical, 
# crystal, experimental, refinement or atomic coordinate data resulting 
# from the CCDC's data processing and validation procedures.
#
#######################################################################

data_OBICEI
_symmetry_cell_setting           monoclinic
_symmetry_space_group_name_H-M   'P 21/n'
_symmetry_Int_Tables_number      14
_space_group_name_Hall           '-P 2yn'
loop_
_symmetry_equiv_pos_site_id
_symmetry_equiv_pos_as_xyz
1 x,y,z
2 1/2+x,1/2-y,1/2+z
3 -x,-y,-z
4 1/2-x,1/2+y,1/2-z
_cell_length_a                   11.6836(15)
_cell_length_b                   9.0050(8)
_cell_length_c                   16.504(2)
_cell_angle_alpha                90
_cell_angle_beta                 100.159(10)
_cell_angle_gamma                90
_cell_volume                     1709.18
loop_
_atom_site_label
_atom_site_type_symbol
_atom_site_fract_x
_atom_site_fract_y
_atom_site_fract_z
Cu1 Cu 0.31951(3) 0.02420(3) 0.380942(16)
O1 O 0.14826(16) 0.1293(2) 0.30658(10)
O2 O 0.2802(2) 0.1045(2) 0.48834(11)
H1 H 0.341(5) 0.110(6) 0.517(3)
H2 H 0.255(4) 0.186(5) 0.468(2)
O3 O 0.15064(18) 0.3108(2) 0.39863(10)
O4 O 0.11293(16) 0.4263(2) 0.20931(10)
O5 O -0.0241(2) 0.3945(3) 0.10046(11)
N1 N 0.4068(2) 0.2082(2) 0.36754(12)
N2 N 0.4428(2) 0.4242(3) 0.31784(13)
H3 H 0.4359 0.5024 0.2854
N3 N 0.2280(2) -0.1553(2) 0.39695(12)
N4 N 0.1619(2) -0.3819(3) 0.39395(14)
H4 H 0.1602 -0.4793 0.3898
C1 C 0.3726(3) 0.3068(3) 0.30930(15)
H5 H 0.3066 0.2955 0.2669
C2 C 0.5279(2) 0.4033(3) 0.38564(15)
C3 C 0.5040(2) 0.2682(3) 0.41583(15)
H6 H 0.5478 0.2221 0.4631
C4 C 0.6199(3) 0.5145(4) 0.4145(2)
H7 H 0.6815 0.4682 0.4545
H8 H 0.5863 0.5977 0.4406
H9 H 0.6526 0.5510 0.3675
C5 C 0.2526(3) -0.2952(3) 0.38767(17)
H10 H 0.3255 -0.3305 0.3777
C6 C 0.0720(3) -0.2932(3) 0.40794(16)
C7 C 0.1151(3) -0.1537(3) 0.41000(17)
H11 H 0.0732 -0.0667 0.4192
C8 C -0.0441(3) -0.3513(5) 0.4166(2)
H12 H -0.0995 -0.2689 0.4133
H13 H -0.0387 -0.4011 0.4700
H14 H -0.0707 -0.4224 0.3723
C9 C 0.1023(2) 0.2349(3) 0.33850(13)
C10 C -0.0244(2) 0.2652(3) 0.30752(14)
C11 C -0.1020(3) 0.2183(4) 0.35743(18)
H15 H -0.0730 0.1725 0.4088
C12 C -0.2205(3) 0.2373(5) 0.3334(2)
H16 H -0.2725 0.2040 0.3678
C13 C -0.2628(3) 0.3046(5) 0.2596(2)
H17 H -0.3441 0.3188 0.2432
C14 C -0.1877(3) 0.3520(4) 0.20879(18)
H18 H -0.2178 0.3982 0.1577
C15 C -0.0684(2) 0.3324(3) 0.23195(14)
C16 C 0.0110(2) 0.3877(3) 0.17622(14)
O4C O 0.38707(16) -0.0737(2) 0.29069(10)
Cu1C Cu 0.18049(3) 0.52420(3) 0.119058(16)
O5C O 0.5241(2) -0.1055(3) 0.39954(11)
loop_
_geom_bond_atom_site_label_1
_geom_bond_atom_site_label_2
_geom_bond_site_symmetry_1
_geom_bond_site_symmetry_2
Cu1 O1 1_555 1_555
O1 C9 1_555 1_555
O2 Cu1 1_555 1_555
H1 O2 1_555 1_555
H2 O2 1_555 1_555
O3 C9 1_555 1_555
O4 C16 1_555 1_555
O5 C16 1_555 1_555
N1 Cu1 1_555 1_555
N2 H3 1_555 1_555
N3 Cu1 1_555 1_555
N4 H4 1_555 1_555
C1 N1 1_555 1_555
H5 C1 1_555 1_555
C2 N2 1_555 1_555
C3 N1 1_555 1_555
H6 C3 1_555 1_555
C4 C2 1_555 1_555
H7 C4 1_555 1_555
H8 C4 1_555 1_555
H9 C4 1_555 1_555
C5 N3 1_555 1_555
H10 C5 1_555 1_555
C6 N4 1_555 1_555
C7 N3 1_555 1_555
H11 C7 1_555 1_555
C8 C6 1_555 1_555
H12 C8 1_555 1_555
H13 C8 1_555 1_555
H14 C8 1_555 1_555
C9 C10 1_555 1_555
C10 C11 1_555 1_555
C11 H15 1_555 1_555
C12 C11 1_555 1_555
H16 C12 1_555 1_555
C13 C12 1_555 1_555
H17 C13 1_555 1_555
C14 C13 1_555 1_555
H18 C14 1_555 1_555
C15 C10 1_555 1_555
C16 C15 1_555 1_555
O4C Cu1 1_555 1_555
Cu1C O4 1_555 1_555
O5C Cu1 1_555 1_555
O5 Cu1C 1_555 1_555
N2 C1 1_555 1_555
N4 C5 1_555 1_555
C2 C3 1_555 1_555
C6 C7 1_555 1_555
C14 C15 1_555 1_555

#END
