
#######################################################################
#
#                 Cambridge Crystallographic Data Centre
#                                CCDC 
#
#######################################################################
#
# If this CIF has been generated from an entry in the Cambridge 
# Structural Database, then it will include bibliographic, chemical, 
# crystal, experimental, refinement or atomic coordinate data resulting 
# from the CCDC's data processing and validation procedures.
#
#######################################################################

data_OBIHEM
_symmetry_cell_setting           monoclinic
_symmetry_space_group_name_H-M   'P 21/c'
_symmetry_Int_Tables_number      14
_space_group_name_Hall           '-P 2ybc'
loop_
_symmetry_equiv_pos_site_id
_symmetry_equiv_pos_as_xyz
1 x,y,z
2 x,1/2-y,1/2+z
3 -x,-y,-z
4 -x,1/2+y,1/2-z
_cell_length_a                   9.6028(10)
_cell_length_b                   15.4336(16)
_cell_length_c                   15.7975(17)
_cell_angle_alpha                90
_cell_angle_beta                 104.869(2)
_cell_angle_gamma                90
_cell_volume                     2262.88
loop_
_atom_site_label
_atom_site_type_symbol
_atom_site_fract_x
_atom_site_fract_y
_atom_site_fract_z
Cu1 Cu 0.57329(2) 0.333677(13) 0.006108(14)
O1 O 0.63875(12) 0.44918(7) -0.03706(8)
N1 N 0.75954(17) 0.28149(10) -0.00798(11)
H1 H 0.745(3) 0.2753(15) -0.0542(16)
H2 H 0.811(3) 0.3186(18) 0.008(2)
N2 N 0.55805(18) -0.30985(11) 0.13855(11)
H3 H 0.497(2) -0.2978(14) 0.1631(14)
H4 H 0.589(2) -0.3547(13) 0.1489(14)
N3 N 0.56483(14) 0.59199(9) -0.03918(9)
N4 N 0.52599(15) 0.75616(9) -0.06580(9)
C1 C 0.81853(18) 0.20157(12) 0.03429(12)
C2 C 0.8003(2) 0.12466(13) -0.01151(13)
H5 H 0.752(2) 0.1294(15) -0.0657(16)
C3 C 0.8491(2) 0.04746(12) 0.03070(13)
H6 H 0.8388(19) -0.0109(13) -0.0003(13)
C4 C 0.91747(19) 0.04633(12) 0.11965(13)
C5 C 0.9369(2) 0.12500(13) 0.16412(13)
H7 H 0.978(2) 0.1275(15) 0.2155(15)
C6 C 0.8880(2) 0.20213(13) 0.12285(13)
H8 H 0.898(2) 0.2579(13) 0.1562(14)
C7 C 0.9728(2) -0.03738(13) 0.16619(14)
H9 H 1.065(2) -0.0550(13) 0.1455(14)
H10 H 1.014(2) -0.0230(15) 0.2269(16)
C8 C 0.86342(19) -0.10917(12) 0.15692(12)
C9 C 0.8956(2) -0.19360(13) 0.14000(14)
H11 H 0.982(2) -0.2087(13) 0.1314(12)
C10 C 0.7972(2) -0.25982(13) 0.13498(14)
H12 H 0.825(2) -0.3148(13) 0.1300(13)
C11 C 0.66247(19) -0.24321(12) 0.14796(11)
C12 C 0.6286(2) -0.15909(13) 0.16599(14)
H13 H 0.5401(19) -0.1428(11) 0.1718(12)
C13 C 0.7282(2) -0.09312(13) 0.17023(14)
H14 H 0.703(2) -0.0346(13) 0.1838(13)
C14 C 0.55925(17) 0.51049(11) -0.02189(11)
C15 C 0.6653(2) 0.62916(12) -0.08329(13)
H16 H 0.761(2) 0.6175(14) -0.0479(14)
H17 H 0.655(2) 0.5988(14) -0.1486(14)
C16 C 0.63677(19) 0.72469(12) -0.09390(11)
C17 C 0.7213(2) 0.77740(13) -0.13160(13)
H18 H 0.795(2) 0.7510(15) -0.1516(15)
C18 C 0.6905(2) 0.86418(14) -0.14147(14)
H19 H 0.7502(19) 0.9002(13) -0.1683(12)
C19 C 0.5771(2) 0.89706(13) -0.11344(15)
H20 H 0.552(2) 0.9516(13) -0.1206(14)
C20 C 0.4989(2) 0.84167(12) -0.07544(14)
H21 H 0.424(2) 0.8609(12) -0.0592(13)
C14B C 0.44075(17) 0.48951(11) 0.02189(11)
O1B O 0.36125(12) 0.55082(7) 0.03706(8)
N3B N 0.43517(14) 0.40801(9) 0.03918(9)
C15B C 0.3347(2) 0.37084(12) 0.08329(13)
H16B H 0.239(2) 0.3825(14) 0.0479(14)
H17B H 0.345(2) 0.4012(14) 0.1486(14)
C16B C 0.36323(19) 0.27531(12) 0.09390(11)
N4B N 0.47401(15) 0.24384(9) 0.06580(9)
C20B C 0.5011(2) 0.15833(12) 0.07544(14)
C19B C 0.4229(2) 0.10294(13) 0.11344(15)
C18B C 0.3095(2) 0.13582(14) 0.14147(14)
C17B C 0.2787(2) 0.22260(13) 0.13160(13)
H18B H 0.205(2) 0.2490(15) 0.1516(15)
H19B H 0.2498(19) 0.0998(13) 0.1683(12)
H20B H 0.448(2) 0.0484(13) 0.1206(14)
H21B H 0.576(2) 0.1391(12) 0.0592(13)
N1B N 0.24046(17) -0.28149(10) 0.00798(11)
H1B H 0.255(3) -0.2753(15) 0.0542(16)
H2B H 0.189(3) -0.3186(18) -0.008(2)
N2B N 0.44195(18) 0.30985(11) -0.13855(11)
H3B H 0.503(2) 0.2978(14) -0.1631(14)
H4B H 0.411(2) 0.3547(13) -0.1489(14)
C1B C 0.18147(18) -0.20157(12) -0.03429(12)
C2B C 0.1997(2) -0.12466(13) 0.01151(13)
H5B H 0.248(2) -0.1294(15) 0.0657(16)
C3B C 0.1509(2) -0.04746(12) -0.03070(13)
H6B H 0.1612(19) 0.0109(13) 0.0003(13)
C4B C 0.08253(19) -0.04633(12) -0.11965(13)
C5B C 0.0631(2) -0.12500(13) -0.16412(13)
H7B H 0.022(2) -0.1275(15) -0.2155(15)
C6B C 0.1120(2) -0.20213(13) -0.12285(13)
H8B H 0.102(2) -0.2579(13) -0.1562(14)
C7B C 0.0272(2) 0.03738(13) -0.16619(14)
H9B H -0.065(2) 0.0550(13) -0.1455(14)
H10B H -0.014(2) 0.0230(15) -0.2269(16)
C8B C 0.13658(19) 0.10917(12) -0.15692(12)
C9B C 0.1044(2) 0.19360(13) -0.14000(14)
H11B H 0.018(2) 0.2087(13) -0.1314(12)
C10B C 0.2028(2) 0.25982(13) -0.13498(14)
H12B H 0.175(2) 0.3148(13) -0.1300(13)
C11B C 0.33753(19) 0.24321(12) -0.14796(11)
C12B C 0.3714(2) 0.15909(13) -0.16599(14)
H13B H 0.4599(19) 0.1428(11) -0.1718(12)
C13B C 0.2718(2) 0.09312(13) -0.17023(14)
H14B H 0.297(2) 0.0346(13) -0.1838(13)
Cu1B Cu 0.42671(2) 0.666323(13) -0.006108(14)
Cu1B_2 Cu 0.42671(2) -0.333677(13) -0.006108(14)
N1B_2 N 0.24046(17) 0.71851(10) 0.00798(11)
N2_2 N 0.55805(18) 0.69015(11) 0.13855(11)
H1B_2 H 0.255(3) 0.7247(15) 0.0542(16)
H2B_2 H 0.189(3) 0.6814(18) -0.008(2)
H3_2 H 0.497(2) 0.7022(14) 0.1631(14)
H4_2 H 0.589(2) 0.6453(13) 0.1489(14)
O2 O 0.70389(18) 0.23910(11) 0.29506(10)
O3 O 0.9560(2) 0.44762(18) 0.07830(16)
O4 O 0.8104(3) 0.43055(15) -0.15607(17)
N5 N 0.69818(17) 0.44690(11) 0.19969(11)
O5 O 0.6345(4) 0.4445(3) 0.2627(2)
O6 O 0.7479(4) 0.38420(19) 0.1751(2)
O7 O 0.7337(3) 0.52329(16) 0.16091(19)
H15? H 0.5000 0.5000 0.0000
O8? O 0.6153(6) 0.4514(3) 0.2413(3)
O9? O 0.7378(5) 0.3674(2) 0.1800(3)
O10? O 0.7247(4) 0.50579(19) 0.1734(2)
loop_
_geom_bond_atom_site_label_1
_geom_bond_atom_site_label_2
_geom_bond_site_symmetry_1
_geom_bond_site_symmetry_2
Cu1 O1 1_555 1_555
O1 C14 1_555 1_555
N1 Cu1 1_555 1_555
H1 N1 1_555 1_555
H2 N1 1_555 1_555
N2 H3 1_555 1_555
H4 N2 1_555 1_555
N3 C14 1_555 1_555
N4 C16 1_555 1_555
C1 N1 1_555 1_555
C2 C1 1_555 1_555
H5 C2 1_555 1_555
C3 C2 1_555 1_555
H6 C3 1_555 1_555
C4 C3 1_555 1_555
C5 C4 1_555 1_555
H7 C5 1_555 1_555
C6 C1 1_555 1_555
H8 C6 1_555 1_555
C7 C4 1_555 1_555
H9 C7 1_555 1_555
H10 C7 1_555 1_555
C8 C7 1_555 1_555
C9 C8 1_555 1_555
H11 C9 1_555 1_555
C10 C9 1_555 1_555
H12 C10 1_555 1_555
C11 N2 1_555 1_555
C12 C11 1_555 1_555
H13 C12 1_555 1_555
C13 C8 1_555 1_555
H14 C13 1_555 1_555
C14 C14B 1_555 1_555
C15 N3 1_555 1_555
H16 C15 1_555 1_555
H17 C15 1_555 1_555
C16 C15 1_555 1_555
C17 C16 1_555 1_555
H18 C17 1_555 1_555
C18 C17 1_555 1_555
H19 C18 1_555 1_555
C19 C18 1_555 1_555
H20 C19 1_555 1_555
C20 N4 1_555 1_555
H21 C20 1_555 1_555
N5 O5 1_555 1_555
O6 N5 1_555 1_555
O7 N5 1_555 1_555
C14B O1B 1_555 1_555
O1B Cu1B 1_555 1_555
N3B Cu1 1_555 1_555
C15B N3B 1_555 1_555
H16B C15B 1_555 1_555
H17B C15B 1_555 1_555
C16B C15B 1_555 1_555
N4B Cu1 1_555 1_555
C20B N4B 1_555 1_555
C19B C20B 1_555 1_555
C18B C19B 1_555 1_555
C17B C16B 1_555 1_555
H18B C17B 1_555 1_555
H19B C18B 1_555 1_555
H20B C19B 1_555 1_555
H21B C20B 1_555 1_555
N1B H1B 1_555 1_555
H2B N1B 1_555 1_555
N2B Cu1 1_555 1_555
H3B N2B 1_555 1_555
H4B N2B 1_555 1_555
C1B N1B 1_555 1_555
C2B C1B 1_555 1_555
H5B C2B 1_555 1_555
C3B C2B 1_555 1_555
H6B C3B 1_555 1_555
C4B C3B 1_555 1_555
C5B C4B 1_555 1_555
H7B C5B 1_555 1_555
C6B C1B 1_555 1_555
H8B C6B 1_555 1_555
C7B C4B 1_555 1_555
H9B C7B 1_555 1_555
H10B C7B 1_555 1_555
C8B C7B 1_555 1_555
C9B C8B 1_555 1_555
H11B C9B 1_555 1_555
C10B C9B 1_555 1_555
H12B C10B 1_555 1_555
C11B N2B 1_555 1_555
C12B C11B 1_555 1_555
H13B C12B 1_555 1_555
C13B C8B 1_555 1_555
H14B C13B 1_555 1_555
Cu1B N3 1_555 1_555
Cu1B_2 N2 1_555 1_555
N1B_2 Cu1B 1_555 1_555
N2_2 Cu1B 1_555 1_555
H1B_2 N1B_2 1_555 1_555
H2B_2 N1B_2 1_555 1_555
H3_2 N2_2 1_555 1_555
H4_2 N2_2 1_555 1_555
N4 Cu1B 1_555 1_555
C5 C6 1_555 1_555
C10 C11 1_555 1_555
C12 C13 1_555 1_555
C19 C20 1_555 1_555
C14B N3B 1_555 1_555
C16B N4B 1_555 1_555
C18B C17B 1_555 1_555
N1B Cu1B_2 1_555 1_555
C5B C6B 1_555 1_555
C10B C11B 1_555 1_555
C12B C13B 1_555 1_555

#END
