
#######################################################################
#
#                 Cambridge Crystallographic Data Centre
#                                CCDC 
#
#######################################################################
#
# If this CIF has been generated from an entry in the Cambridge 
# Structural Database, then it will include bibliographic, chemical, 
# crystal, experimental, refinement or atomic coordinate data resulting 
# from the CCDC's data processing and validation procedures.
#
#######################################################################

data_OBIJUF
_symmetry_cell_setting           orthorhombic
_symmetry_space_group_name_H-M   'P b c a'
_symmetry_Int_Tables_number      61
_space_group_name_Hall           '-P 2ac 2ab'
loop_
_symmetry_equiv_pos_site_id
_symmetry_equiv_pos_as_xyz
1 x,y,z
2 1/2+x,y,1/2-z
3 1/2-x,1/2+y,z
4 x,1/2-y,1/2+z
5 -x,-y,-z
6 1/2-x,-y,1/2+z
7 1/2+x,1/2-y,-z
8 -x,1/2+y,1/2-z
_cell_length_a                   12.1522(4)
_cell_length_b                   11.5983(4)
_cell_length_c                   16.3011(5)
_cell_angle_alpha                90
_cell_angle_beta                 90
_cell_angle_gamma                90
_cell_volume                     2297.56
loop_
_atom_site_label
_atom_site_type_symbol
_atom_site_fract_x
_atom_site_fract_y
_atom_site_fract_z
C1 C -0.0213(4) 0.1767(4) -0.2829(3)
H1 H -0.0938 0.2028 -0.2623
H2 H 0.0108 0.2396 -0.3164
C2 C 0.0540(4) 0.1499(4) -0.2112(3)
H3 H 0.0191 0.0897 -0.1759
C3 C 0.1647(4) 0.1058(4) -0.2423(3)
H4 H 0.2038 0.1691 -0.2707
H5 H 0.2102 0.0813 -0.1950
C4 C 0.1508(4) 0.0047(4) -0.3010(3)
H6 H 0.1175 -0.0610 -0.2700
C5 C 0.0714(4) 0.0387(4) -0.3701(3)
H7 H 0.1023 0.1039 -0.4017
H8 H 0.0608 -0.0271 -0.4079
N1 N -0.0352(3) 0.0724(3) -0.3339(2)
N2 N 0.0719(3) 0.2561(3) -0.1621(2)
H9 H 0.1243 0.2404 -0.1229
H10 H 0.0075 0.2731 -0.1351
N3 N 0.2598(4) -0.0317(4) -0.3311(2)
H11 H -0.079(3) 0.093(4) -0.375(2)
H12 H 0.247(4) -0.089(3) -0.367(2)
H13 H 0.285(4) 0.027(3) -0.361(2)
Ag1 Ag -0.12513(3) -0.08627(3) -0.26861(2)
N2G N -0.0719(3) -0.2439(3) -0.3379(2)
N3A N -0.2402(4) -0.0317(4) -0.1689(2)
H12A H -0.253(4) -0.089(3) -0.133(2)
H13A H -0.215(4) 0.027(3) -0.139(2)
H9G H -0.1243 -0.2596 -0.3771
H10G H -0.0075 -0.2269 -0.3649
Ag1G Ag 0.12513(3) 0.41373(3) -0.23139(2)
Ag1A Ag 0.37487(3) -0.08627(3) -0.23139(2)
S1 S 0.34309(10) 0.24688(11) -0.49727(7)
O1 O 0.2721(3) 0.3115(3) -0.5503(2)
O2 O 0.3060(3) 0.2333(3) -0.41331(18)
O3 O 0.4581(3) 0.2747(3) -0.50512(19)
C6 C 0.3317(5) 0.1015(5) -0.5387(3)
F1 F 0.2274(3) 0.0676(2) -0.54145(18)
F2 F 0.3868(3) 0.0254(3) -0.4936(2)
F3 F 0.3717(3) 0.0971(3) -0.61481(18)
loop_
_geom_bond_atom_site_label_1
_geom_bond_atom_site_label_2
_geom_bond_site_symmetry_1
_geom_bond_site_symmetry_2
C1 H1 1_555 1_555
H2 C1 1_555 1_555
C2 C1 1_555 1_555
H3 C2 1_555 1_555
C3 C2 1_555 1_555
H4 C3 1_555 1_555
H5 C3 1_555 1_555
C4 C3 1_555 1_555
H6 C4 1_555 1_555
C5 C4 1_555 1_555
H7 C5 1_555 1_555
H8 C5 1_555 1_555
N1 C1 1_555 1_555
N2 C2 1_555 1_555
H9 N2 1_555 1_555
H10 N2 1_555 1_555
N3 C4 1_555 1_555
H11 N1 1_555 1_555
H12 N3 1_555 1_555
H13 N3 1_555 1_555
S1 O1 1_555 1_555
O2 S1 1_555 1_555
O3 S1 1_555 1_555
C6 S1 1_555 1_555
F1 C6 1_555 1_555
F2 C6 1_555 1_555
F3 C6 1_555 1_555
Ag1 N1 1_555 1_555
N2G Ag1 1_555 1_555
N3A Ag1 1_555 1_555
H12A N3A 1_555 1_555
H13A N3A 1_555 1_555
H9G N2G 1_555 1_555
H10G N2G 1_555 1_555
Ag1G N2 1_555 1_555
Ag1A N3 1_555 1_555
C5 N1 1_555 1_555

#END
