
#######################################################################
#
#                 Cambridge Crystallographic Data Centre
#                                CCDC 
#
#######################################################################
#
# If this CIF has been generated from an entry in the Cambridge 
# Structural Database, then it will include bibliographic, chemical, 
# crystal, experimental, refinement or atomic coordinate data resulting 
# from the CCDC's data processing and validation procedures.
#
#######################################################################

data_OBIJEP
_symmetry_cell_setting           monoclinic
_symmetry_space_group_name_H-M   'P 21/m'
_symmetry_Int_Tables_number      11
_space_group_name_Hall           '-P 2yb'
loop_
_symmetry_equiv_pos_site_id
_symmetry_equiv_pos_as_xyz
1 x,y,z
2 x,1/2-y,z
3 -x,-y,-z
4 -x,1/2+y,-z
_cell_length_a                   6.3452(8)
_cell_length_b                   9.8756(15)
_cell_length_c                   8.4770(12)
_cell_angle_alpha                90
_cell_angle_beta                 106.703(8)
_cell_angle_gamma                90
_cell_volume                     508.779
loop_
_atom_site_label
_atom_site_type_symbol
_atom_site_fract_x
_atom_site_fract_y
_atom_site_fract_z
Ag1 Ag 0.0000 0.0000 0.0000
N1 N -0.2334(5) 0.0019(3) -0.2409(4)
H1 H -0.1571 -0.0029 -0.3180
H2 H -0.3188 -0.0747 -0.2520
C1 C -0.2445(8) 0.2500 -0.2507(7)
H3 H -0.148(7) 0.2500 -0.320(5)
H4 H -0.164(8) 0.2500 -0.137(3)
C2 C -0.3822(6) 0.1219(4) -0.2795(5)
H5 H -0.4718 0.1179 -0.3976
C3 C -0.5346(6) 0.1214(4) -0.1710(5)
H6 H -0.4464 0.1157 -0.0540
H7 H -0.6313 0.0408 -0.1966
C4 C -0.6761(10) 0.2500 -0.1977(9)
H8 H -0.779(8) 0.2500 -0.311(4)
H9 H -0.763(8) 0.2500 -0.121(5)
C2A C -0.3822(6) 0.3781(4) -0.2795(5)
N1A N -0.2334(5) 0.4981(3) -0.2409(4)
Ag1A Ag 0.0000 0.5000 0.0000
H1A H -0.1571 0.5029 -0.3180
H2A H -0.3188 0.5747 -0.2520
H5A H -0.4718 0.3821 -0.3976
C3A C -0.5346(6) 0.3786(4) -0.1710(5)
H6A H -0.4464 0.3843 -0.0540
H7A H -0.6313 0.4592 -0.1966
N1B N 0.2334(5) -0.0019(3) 0.2409(4)
H1B H 0.1571 0.0029 0.3180
H2B H 0.3188 0.0747 0.2520
Cl1 Cl -0.8120(2) -0.2500 -0.32174(18)
O1 O -0.5746(6) -0.2500 -0.2717(6)
O2 O -0.8911(7) -0.2500 -0.1786(5)
O3 O -0.8904(5) -0.1305(3) -0.4178(3)
O3A O -0.8904(5) -0.3695(3) -0.4178(3)
loop_
_geom_bond_atom_site_label_1
_geom_bond_atom_site_label_2
_geom_bond_site_symmetry_1
_geom_bond_site_symmetry_2
Ag1 N1 1_555 1_555
Cl1 O1 1_555 1_555
O2 Cl1 1_555 1_555
O3 Cl1 1_555 1_555
N1 H1 1_555 1_555
H2 N1 1_555 1_555
C1 H3 1_555 1_555
H4 C1 1_555 1_555
C2 N1 1_555 1_555
H5 C2 1_555 1_555
C3 C2 1_555 1_555
H6 C3 1_555 1_555
H7 C3 1_555 1_555
C4 C3 1_555 1_555
H8 C4 1_555 1_555
H9 C4 1_555 1_555
C2A C1 1_555 1_555
N1A C2A 1_555 1_555
Ag1A N1A 1_555 1_555
H1A N1A 1_555 1_555
H2A N1A 1_555 1_555
H5A C2A 1_555 1_555
C3A C4 1_555 1_555
H6A C3A 1_555 1_555
H7A C3A 1_555 1_555
N1B Ag1 1_555 1_555
O3A Cl1 1_555 1_555
H1B N1B 1_555 1_555
H2B N1B 1_555 1_555
C1 C2 1_555 1_555
C2A C3A 1_555 1_555

#END
