
#######################################################################
#
#                 Cambridge Crystallographic Data Centre
#                                CCDC 
#
#######################################################################
#
# If this CIF has been generated from an entry in the Cambridge 
# Structural Database, then it will include bibliographic, chemical, 
# crystal, experimental, refinement or atomic coordinate data resulting 
# from the CCDC's data processing and validation procedures.
#
#######################################################################

data_OBIZOQ
_symmetry_cell_setting           monoclinic
_symmetry_space_group_name_H-M   'P 21/c'
_symmetry_Int_Tables_number      14
_space_group_name_Hall           '-P 2ybc'
loop_
_symmetry_equiv_pos_site_id
_symmetry_equiv_pos_as_xyz
1 x,y,z
2 -x,1/2+y,1/2-z
3 -x,-y,-z
4 x,1/2-y,1/2+z
_cell_length_a                   12.3293(11)
_cell_length_b                   14.3519(16)
_cell_length_c                   12.2865(13)
_cell_angle_alpha                90
_cell_angle_beta                 94.3240(10)
_cell_angle_gamma                90
_cell_volume                     2167.89
loop_
_atom_site_label
_atom_site_type_symbol
_atom_site_fract_x
_atom_site_fract_y
_atom_site_fract_z
Sn1 Sn 0.70340(3) 0.19810(3) 0.84922(3)
Se1 Se 0.77442(5) 0.15274(4) 0.58249(4)
O1 O 0.7026(3) 0.2382(3) 0.5185(3)
O2 O 0.7000(3) 0.1284(3) 0.6898(3)
C1 C 0.7357(5) 0.0477(4) 0.4897(4)
C2 C 0.8174(5) -0.0095(4) 0.4585(5)
H1 H 0.8887 0.0016 0.4855
C3 C 0.7952(6) -0.0832(5) 0.3876(5)
C4 C 0.6892(6) -0.0984(5) 0.3507(5)
H2 H 0.6725 -0.1482 0.3041
C5 C 0.6067(6) -0.0415(5) 0.3812(5)
H3 H 0.5354 -0.0530 0.3545
C6 C 0.6288(5) 0.0312(4) 0.4498(5)
H4 H 0.5731 0.0697 0.4699
C7 C 0.8869(7) -0.1441(6) 0.3487(7)
H5 H 0.8624 -0.2075 0.3418
H6 H 0.9488 -0.1409 0.4008
H7 H 0.9068 -0.1220 0.2792
C8 C 0.5467(4) 0.2559(4) 0.8132(4)
C9 C 0.5205(5) 0.2946(5) 0.7122(5)
H8 H 0.5676 0.2878 0.6570
C10 C 0.4236(6) 0.3440(6) 0.6922(6)
H9 H 0.4070 0.3706 0.6239
C11 C 0.3525(6) 0.3539(5) 0.7720(7)
H10 H 0.2886 0.3878 0.7586
C12 C 0.3767(5) 0.3133(5) 0.8715(6)
H11 H 0.3278 0.3180 0.9253
C13 C 0.4728(5) 0.2655(4) 0.8929(5)
H12 H 0.4887 0.2392 0.9614
C14 C 0.8439(5) 0.2784(4) 0.8187(4)
C15 C 0.8425(5) 0.3467(4) 0.7412(5)
H13 H 0.7786 0.3574 0.6977
C16 C 0.9327(6) 0.4001(5) 0.7254(6)
H14 H 0.9288 0.4471 0.6731
C17 C 1.0270(6) 0.3841(5) 0.7861(6)
H15 H 1.0883 0.4196 0.7750
C18 C 1.0322(5) 0.3148(5) 0.8646(6)
H16 H 1.0969 0.3039 0.9066
C19 C 0.9419(5) 0.2624(4) 0.8804(5)
H17 H 0.9460 0.2155 0.9329
C20 C 0.7300(5) 0.0694(4) 0.9337(4)
C21 C 0.6583(5) 0.0405(4) 1.0097(5)
H18 H 0.5969 0.0757 1.0214
C22 C 0.6796(7) -0.0412(5) 1.0677(5)
H19 H 0.6319 -0.0607 1.1182
C23 C 0.7689(8) -0.0929(5) 1.0516(6)
H20 H 0.7818 -0.1477 1.0908
C24 C 0.8394(7) -0.0651(5) 0.9787(7)
H21 H 0.9013 -0.1003 0.9690
C25 C 0.8198(5) 0.0154(4) 0.9186(5)
H22 H 0.8678 0.0332 0.8675
Sn1C Sn 0.70340(3) 0.30190(3) 0.34922(3)
O1C O 0.7026(3) 0.2618(3) 1.0185(3)
loop_
_geom_bond_atom_site_label_1
_geom_bond_atom_site_label_2
_geom_bond_site_symmetry_1
_geom_bond_site_symmetry_2
Sn1 O2 1_555 1_555
Se1 O1 1_555 1_555
O1 Sn1C 1_555 1_555
O2 Se1 1_555 1_555
C1 Se1 1_555 1_555
C2 C1 1_555 1_555
H1 C2 1_555 1_555
C3 C2 1_555 1_555
C4 C3 1_555 1_555
H2 C4 1_555 1_555
C5 C4 1_555 1_555
H3 C5 1_555 1_555
C6 C1 1_555 1_555
H4 C6 1_555 1_555
C7 C3 1_555 1_555
H5 C7 1_555 1_555
H6 C7 1_555 1_555
H7 C7 1_555 1_555
C8 Sn1 1_555 1_555
C9 C8 1_555 1_555
H8 C9 1_555 1_555
C10 C9 1_555 1_555
H9 C10 1_555 1_555
C11 C10 1_555 1_555
H10 C11 1_555 1_555
C12 C11 1_555 1_555
H11 C12 1_555 1_555
C13 C8 1_555 1_555
H12 C13 1_555 1_555
C14 Sn1 1_555 1_555
C15 C14 1_555 1_555
H13 C15 1_555 1_555
C16 C15 1_555 1_555
H14 C16 1_555 1_555
C17 C16 1_555 1_555
H15 C17 1_555 1_555
C18 C17 1_555 1_555
H16 C18 1_555 1_555
C19 C14 1_555 1_555
H17 C19 1_555 1_555
C20 Sn1 1_555 1_555
C21 C20 1_555 1_555
H18 C21 1_555 1_555
C22 C21 1_555 1_555
H19 C22 1_555 1_555
C23 C22 1_555 1_555
H20 C23 1_555 1_555
C24 C23 1_555 1_555
H21 C24 1_555 1_555
C25 C20 1_555 1_555
H22 C25 1_555 1_555
O1C Sn1 1_555 1_555
C5 C6 1_555 1_555
C12 C13 1_555 1_555
C18 C19 1_555 1_555
C24 C25 1_555 1_555

#END
