
#######################################################################
#
#                 Cambridge Crystallographic Data Centre
#                                CCDC 
#
#######################################################################
#
# If this CIF has been generated from an entry in the Cambridge 
# Structural Database, then it will include bibliographic, chemical, 
# crystal, experimental, refinement or atomic coordinate data resulting 
# from the CCDC's data processing and validation procedures.
#
#######################################################################

data_OBOBIS
_symmetry_cell_setting           orthorhombic
_symmetry_space_group_name_H-M   'P b c a'
_symmetry_Int_Tables_number      61
_space_group_name_Hall           '-P 2ac 2ab'
loop_
_symmetry_equiv_pos_site_id
_symmetry_equiv_pos_as_xyz
1 x,y,z
2 1/2-x,-y,1/2+z
3 -x,1/2+y,1/2-z
4 1/2+x,1/2-y,-z
5 -x,-y,-z
6 1/2+x,y,1/2-z
7 x,1/2-y,1/2+z
8 1/2-x,1/2+y,z
_cell_length_a                   18.091(4)
_cell_length_b                   15.245(3)
_cell_length_c                   19.007(4)
_cell_angle_alpha                90
_cell_angle_beta                 90
_cell_angle_gamma                90
_cell_volume                     5242.08
loop_
_atom_site_label
_atom_site_type_symbol
_atom_site_fract_x
_atom_site_fract_y
_atom_site_fract_z
Zn1 Zn 0.31740(3) 0.38833(3) 0.58277(3)
Zn2 Zn 0.72087(3) 0.09336(4) 0.98785(3)
O1 O 0.31600(17) 0.3726(2) 0.69057(16)
O2 O 0.2850(2) 0.5068(2) 0.72587(18)
O3 O 0.25130(17) 0.2574(2) 0.83197(17)
O4 O 0.3152(2) 0.1190(2) 0.97441(18)
O5 O 0.3015(2) -0.0169(2) 0.93205(19)
O6 O 0.62798(18) 0.1136(2) 0.93178(19)
O7 O 0.59177(18) -0.0269(2) 0.9208(2)
O8 O 0.51124(19) 0.2312(2) 1.00804(16)
O9 O 0.3748(2) 0.4990(2) 1.0069(2)
O10 O 0.32546(18) 0.3666(2) 0.99074(18)
O11 O 0.3804(2) 0.2759(2) 0.58136(19)
H1 H 0.4266 0.2785 0.5737
H2 H 0.3657 0.2307 0.5593
O12 O 0.2201(2) 0.3113(3) 0.5791(2)
H3 H 0.2128 0.2941 0.5371
H4 H 0.2266 0.2647 0.6028
O13 O 0.24415(19) 0.5017(2) 0.59018(17)
H5 H 0.1933 0.4842 0.5818
H6 H 0.2473 0.5278 0.6366
O14 O 0.67873(19) 0.2110(2) 1.03965(19)
H7 H 0.6329 0.2227 1.0421
H8 H 0.6971 0.2307 1.0776
N1 N 0.36573(19) 0.3234(2) 0.82313(18)
N2 N 0.3603(2) 0.1803(2) 0.84462(19)
N3 N 0.4826(2) 0.1711(2) 0.89992(19)
N4 N 0.4545(2) 0.3105(2) 0.91913(18)
C1 C 0.3114(2) 0.4320(3) 0.7363(2)
C2 C 0.3388(3) 0.4123(3) 0.8108(2)
H9 H 0.3783 0.4530 0.8218
H10 H 0.2986 0.4236 0.8434
C3 C 0.3197(2) 0.2545(3) 0.8337(2)
C4 C 0.4399(2) 0.1956(3) 0.8382(2)
C5 C 0.4854(2) 0.2371(3) 0.9482(2)
C6 C 0.4411(2) 0.3008(3) 0.8433(2)
C7 C 0.3268(3) 0.0946(3) 0.8513(2)
H11 H 0.3583 0.0521 0.8279
H12 H 0.2798 0.0952 0.8269
C8 C 0.3140(2) 0.0645(3) 0.9261(2)
C9 C 0.4996(3) 0.0798(3) 0.9173(2)
H13 H 0.4768 0.0428 0.8819
H14 H 0.4762 0.0663 0.9619
C10 C 0.5807(3) 0.0544(3) 0.9226(2)
C11 C 0.4525(3) 0.3943(3) 0.9552(2)
H15 H 0.4686 0.4393 0.9225
H16 H 0.4883 0.3926 0.9932
C12 C 0.3774(3) 0.4225(3) 0.9862(2)
C13 C 0.4999(2) 0.3428(3) 0.7982(2)
C14 C 0.5696(3) 0.3608(3) 0.8253(3)
H17 H 0.5774 0.3570 0.8735
C15 C 0.6269(3) 0.3841(3) 0.7820(3)
H18 H 0.6731 0.3968 0.8008
C16 C 0.6152(3) 0.3886(3) 0.7088(3)
H19 H 0.6545 0.4012 0.6789
C17 C 0.5468(3) 0.3745(3) 0.6818(3)
H20 H 0.5389 0.3803 0.6337
C18 C 0.4879(3) 0.3512(3) 0.7261(2)
H21 H 0.4411 0.3413 0.7074
C19 C 0.4733(3) 0.1581(3) 0.7713(2)
C20 C 0.5502(3) 0.1551(3) 0.7646(3)
H22 H 0.5799 0.1687 0.8031
C21 C 0.5826(3) 0.1320(3) 0.7011(3)
H23 H 0.6338 0.1330 0.6963
C22 C 0.5384(3) 0.1072(3) 0.6447(3)
H24 H 0.5599 0.0916 0.6020
C23 C 0.4627(3) 0.1059(3) 0.6521(3)
H25 H 0.4333 0.0866 0.6151
C24 C 0.4298(3) 0.1333(3) 0.7148(2)
H26 H 0.3785 0.1349 0.7185
Zn1F Zn 0.31740(3) 0.11167(3) 1.08277(3)
Zn1B Zn 0.68260(3) -0.11167(3) 0.91723(3)
Zn2D Zn 0.27913(3) -0.09336(4) 1.01215(3)
Zn2C Zn 0.22087(3) 0.40664(4) 1.01215(3)
Zn2B Zn 0.27913(3) 0.59336(4) 0.51215(3)
O4F O 0.3152(2) 0.3810(2) 0.47441(18)
O5D O 0.6985(2) 0.0169(2) 1.06795(19)
O7B O 0.40823(18) 0.4731(2) 0.5792(2)
O10C O 0.82546(18) 0.1334(2) 1.00926(18)
O13B O 0.75585(19) 0.0017(2) 0.90982(17)
H5B H 0.8067 -0.0158 0.9182
H6B H 0.7527 0.0278 0.8634
O15 O 0.7371(3) 0.1916(3) 0.8159(3)
H27 H 0.713(4) 0.150(4) 0.799(4)
H28 H 0.757(4) 0.224(4) 0.786(3)
loop_
_geom_bond_atom_site_label_1
_geom_bond_atom_site_label_2
_geom_bond_site_symmetry_1
_geom_bond_site_symmetry_2
Zn1 O1 1_555 1_555
Zn2 O6 1_555 1_555
O1 C1 1_555 1_555
O2 C1 1_555 1_555
O3 C3 1_555 1_555
O4 C8 1_555 1_555
O5 C8 1_555 1_555
O6 C10 1_555 1_555
O7 C10 1_555 1_555
O8 C5 1_555 1_555
O9 C12 1_555 1_555
O10 C12 1_555 1_555
O11 Zn1 1_555 1_555
H1 O11 1_555 1_555
H2 O11 1_555 1_555
O12 Zn1 1_555 1_555
H3 O12 1_555 1_555
H4 O12 1_555 1_555
O13 Zn1 1_555 1_555
H5 O13 1_555 1_555
H6 O13 1_555 1_555
O14 Zn2 1_555 1_555
H7 O14 1_555 1_555
H8 O14 1_555 1_555
N1 C2 1_555 1_555
N2 C3 1_555 1_555
N3 C4 1_555 1_555
N4 C5 1_555 1_555
C1 C2 1_555 1_555
C2 H9 1_555 1_555
H10 C2 1_555 1_555
C3 N1 1_555 1_555
C4 N2 1_555 1_555
C5 N3 1_555 1_555
C6 N1 1_555 1_555
C7 N2 1_555 1_555
H11 C7 1_555 1_555
H12 C7 1_555 1_555
C8 C7 1_555 1_555
C9 N3 1_555 1_555
H13 C9 1_555 1_555
H14 C9 1_555 1_555
C10 C9 1_555 1_555
C11 N4 1_555 1_555
H15 C11 1_555 1_555
H16 C11 1_555 1_555
C12 C11 1_555 1_555
C13 C6 1_555 1_555
C14 C13 1_555 1_555
H17 C14 1_555 1_555
C15 C14 1_555 1_555
H18 C15 1_555 1_555
C16 C15 1_555 1_555
H19 C16 1_555 1_555
C17 C16 1_555 1_555
H20 C17 1_555 1_555
C18 C13 1_555 1_555
H21 C18 1_555 1_555
C19 C4 1_555 1_555
C20 C19 1_555 1_555
H22 C20 1_555 1_555
C21 C20 1_555 1_555
H23 C21 1_555 1_555
C22 C21 1_555 1_555
H24 C22 1_555 1_555
C23 C22 1_555 1_555
H25 C23 1_555 1_555
C24 C19 1_555 1_555
H26 C24 1_555 1_555
O15 H27 1_555 1_555
H28 O15 1_555 1_555
Zn1F O4 1_555 1_555
Zn1B O7 1_555 1_555
Zn2D O5 1_555 1_555
Zn2C O10 1_555 1_555
Zn2B O13 1_555 1_555
O4F Zn1 1_555 1_555
O5D Zn2 1_555 1_555
O7B Zn1 1_555 1_555
O10C Zn2 1_555 1_555
O13B Zn2 1_555 1_555
H5B O13B 1_555 1_555
H6B O13B 1_555 1_555
N4 C6 1_555 1_555
C4 C6 1_555 1_555
C17 C18 1_555 1_555
C23 C24 1_555 1_555
Zn1B O13B 1_555 1_555

#END
