
#######################################################################
#
#                 Cambridge Crystallographic Data Centre
#                                CCDC 
#
#######################################################################
#
# If this CIF has been generated from an entry in the Cambridge 
# Structural Database, then it will include bibliographic, chemical, 
# crystal, experimental, refinement or atomic coordinate data resulting 
# from the CCDC's data processing and validation procedures.
#
#######################################################################

data_OBODEQ
_symmetry_cell_setting           monoclinic
_symmetry_space_group_name_H-M   'P 21/n'
_symmetry_Int_Tables_number      14
_space_group_name_Hall           '-P 2yn'
loop_
_symmetry_equiv_pos_site_id
_symmetry_equiv_pos_as_xyz
1 x,y,z
2 1/2-x,1/2+y,1/2-z
3 -x,-y,-z
4 1/2+x,1/2-y,1/2+z
_cell_length_a                   10.380(2)
_cell_length_b                   10.752(3)
_cell_length_c                   16.025(4)
_cell_angle_alpha                90
_cell_angle_beta                 106.419(4)
_cell_angle_gamma                90
_cell_volume                     1715.55
loop_
_atom_site_label
_atom_site_type_symbol
_atom_site_fract_x
_atom_site_fract_y
_atom_site_fract_z
Nd1 Nd 0.36554(3) 0.12931(3) 0.02773(2)
S1 S 0.0680(2) 0.2768(2) -0.08861(14)
S2 S 0.3373(3) 0.4585(2) 0.08367(18)
O1 O 0.1446(4) 0.0876(4) 0.0571(3)
O2 O 0.2784(4) 0.2139(4) 0.1508(3)
O3 O -0.3430(4) 0.0586(4) 0.0532(3)
O4 O -0.4178(4) 0.1981(4) 0.1279(3)
O5 O 0.0801(4) 0.4650(4) 0.3619(3)
O6 O -0.0472(4) 0.3271(4) 0.4070(3)
O7 O 0.1768(5) 0.1920(5) -0.1004(3)
O8 O 0.3616(5) 0.3615(4) 0.0214(3)
C1 C 0.1662(6) 0.1639(5) 0.1191(4)
C2 C 0.0514(6) 0.1983(6) 0.1562(4)
C3 C -0.0760(6) 0.1517(5) 0.1195(4)
H1 H -0.0916 0.0987 0.0719
C4 C -0.1821(6) 0.1837(6) 0.1535(4)
C5 C -0.1545(6) 0.2560(5) 0.2286(4)
H2 H -0.2228 0.2735 0.2540
C6 C -0.0262(6) 0.3024(5) 0.2661(4)
C7 C 0.0737(6) 0.2764(5) 0.2272(4)
H3 H 0.1579 0.3123 0.2494
C8 C -0.3236(6) 0.1436(6) 0.1090(4)
C9 C 0.0043(6) 0.3722(6) 0.3517(4)
C10 C 0.3202(10) 0.6008(7) 0.0260(7)
H4 H 0.3911 0.6083 -0.0013
H5 H 0.3251 0.6687 0.0657
H6 H 0.2350 0.6025 -0.0176
C11 C 0.4971(10) 0.4797(10) 0.1533(7)
H7 H 0.5345 0.4005 0.1752
H8 H 0.4922 0.5318 0.2010
H9 H 0.5531 0.5186 0.1224
C12 C 0.0497(10) 0.3915(8) -0.1710(6)
H10 H 0.1285 0.4430 -0.1580
H11 H -0.0275 0.4420 -0.1733
H12 H 0.0383 0.3515 -0.2262
C13 C -0.0810(8) 0.1947(9) -0.1314(7)
H13 H -0.0857 0.1672 -0.1892
H14 H -0.1561 0.2478 -0.1333
H15 H -0.0832 0.1239 -0.0953
Nd1B Nd -0.36554(3) -0.12931(3) -0.02773(2)
Nd1_2 Nd -0.63446(3) 0.12931(3) 0.02773(2)
Nd1A Nd 0.13446(3) 0.62931(3) 0.47227(2)
Nd1C Nd -0.13446(3) 0.37069(3) 0.52773(2)
O3B O 0.3430(4) -0.0586(4) -0.0532(3)
O4_2 O 0.5822(4) 0.1981(4) 0.1279(3)
O5A O 0.4199(4) -0.0350(4) 0.1381(3)
O6C O 0.4528(4) 0.1729(4) -0.0930(3)
loop_
_geom_bond_atom_site_label_1
_geom_bond_atom_site_label_2
_geom_bond_site_symmetry_1
_geom_bond_site_symmetry_2
Nd1 O1 1_555 1_555
S1 O7 1_555 1_555
S2 O8 1_555 1_555
O1 C1 1_555 1_555
O2 Nd1 1_555 1_555
O3 C8 1_555 1_555
O4 C8 1_555 1_555
O5 C9 1_555 1_555
O6 C9 1_555 1_555
O7 Nd1 1_555 1_555
O8 Nd1 1_555 1_555
C1 O2 1_555 1_555
C2 C1 1_555 1_555
C3 C2 1_555 1_555
H1 C3 1_555 1_555
C4 C3 1_555 1_555
C5 C4 1_555 1_555
H2 C5 1_555 1_555
C6 C5 1_555 1_555
C7 C2 1_555 1_555
H3 C7 1_555 1_555
C8 C4 1_555 1_555
C9 C6 1_555 1_555
C10 S2 1_555 1_555
H4 C10 1_555 1_555
H5 C10 1_555 1_555
H6 C10 1_555 1_555
C11 S2 1_555 1_555
H7 C11 1_555 1_555
H8 C11 1_555 1_555
H9 C11 1_555 1_555
C12 S1 1_555 1_555
H10 C12 1_555 1_555
H11 C12 1_555 1_555
H12 C12 1_555 1_555
C13 S1 1_555 1_555
H13 C13 1_555 1_555
H14 C13 1_555 1_555
H15 C13 1_555 1_555
Nd1B O3 1_555 1_555
Nd1_2 O4 1_555 1_555
Nd1A O5 1_555 1_555
Nd1C O6 1_555 1_555
O3B Nd1 1_555 1_555
O4_2 Nd1 1_555 1_555
O5A Nd1 1_555 1_555
O6C Nd1 1_555 1_555
C6 C7 1_555 1_555

#END
