
#######################################################################
#
#                 Cambridge Crystallographic Data Centre
#                                CCDC 
#
#######################################################################
#
# If this CIF has been generated from an entry in the Cambridge 
# Structural Database, then it will include bibliographic, chemical, 
# crystal, experimental, refinement or atomic coordinate data resulting 
# from the CCDC's data processing and validation procedures.
#
#######################################################################

data_OBOXIM
_symmetry_cell_setting           triclinic
_symmetry_space_group_name_H-M   'P -1'
_symmetry_Int_Tables_number      2
_space_group_name_Hall           '-P 1'
loop_
_symmetry_equiv_pos_site_id
_symmetry_equiv_pos_as_xyz
1 x,y,z
2 -x,-y,-z
_cell_length_a                   6.3398(13)
_cell_length_b                   10.861(2)
_cell_length_c                   11.399(2)
_cell_angle_alpha                110.561(4)
_cell_angle_beta                 96.751(4)
_cell_angle_gamma                97.779(4)
_cell_volume                     716.512
loop_
_atom_site_label
_atom_site_type_symbol
_atom_site_fract_x
_atom_site_fract_y
_atom_site_fract_z
Cu1 Cu 0.08999(8) 0.15900(5) 0.02931(5)
O1 O 0.2450(5) 0.2245(3) 0.2022(3)
N1 N 0.3403(5) 0.2544(3) -0.0228(3)
N2 N -0.0516(5) 0.1303(3) -0.1479(3)
N3 N 0.1746(6) -0.0663(4) -0.0621(3)
O2 O 0.0738(6) 0.3938(3) 0.2208(3)
C1 C 0.2092(7) 0.3417(5) 0.2623(4)
N4 N 0.1991(6) -0.0879(4) -0.1706(4)
C2 C 0.2871(7) 0.2546(4) -0.1421(4)
C3 C 0.3578(7) 0.4199(4) 0.3878(4)
C4 C 0.1611(10) 0.2414(6) -0.3893(5)
H1 H 0.1206 0.2367 -0.4721
C5 C 0.5591(8) 0.3884(5) 0.4142(4)
C6 C 0.5381(7) 0.3137(4) 0.0406(4)
H2 H 0.5779 0.3115 0.1209
C7 C 0.0761(7) 0.1871(4) -0.2096(4)
C8 C -0.2450(7) 0.0597(5) -0.2109(4)
H3 H -0.3354 0.0203 -0.1701
C9 C 0.2997(8) 0.5322(5) 0.4740(4)
C10 C 0.4305(8) 0.3172(5) -0.1979(4)
C11 C 0.6381(8) 0.3816(5) -0.1252(5)
H4 H 0.7382 0.4251 -0.1579
C12 C 0.6899(8) 0.3794(5) -0.0076(5)
H5 H 0.8261 0.4216 0.0411
N5 N 0.2262(7) -0.1050(5) -0.2731(4)
C13 C 0.0134(8) 0.1773(5) -0.3350(4)
C14 C 0.3569(9) 0.3083(5) -0.3244(5)
H6 H 0.4482 0.3506 -0.3627
C15 C -0.1912(9) 0.1026(6) -0.3969(5)
H7 H -0.2423 0.0936 -0.4800
C16 C -0.3153(9) 0.0432(6) -0.3359(5)
H8 H -0.4498 -0.0094 -0.3785
H9 H 0.599(9) 0.310(6) 0.357(5)
H10 H 0.148(7) 0.557(5) 0.454(4)
C9A C 0.7003(8) 0.4678(5) 0.5260(4)
C3A C 0.6422(7) 0.5801(4) 0.6122(4)
C1A C 0.7908(7) 0.6583(5) 0.7377(4)
O1A O 0.7550(5) 0.7755(3) 0.7978(3)
O2A O 0.9262(6) 0.6062(3) 0.7792(3)
C5A C 0.4409(8) 0.6116(5) 0.5858(4)
H9A H 0.401(9) 0.690(6) 0.643(5)
H10A H 0.852(7) 0.443(5) 0.546(4)
N3A N -0.1746(6) 0.0663(4) 0.0621(3)
N4A N -0.1991(6) 0.0879(4) 0.1706(4)
N5A N -0.2262(7) 0.1050(5) 0.2731(4)
Cu1A Cu 0.91001(8) 0.84100(5) 0.97069(5)
N1A N 0.6597(5) 0.7456(3) 1.0228(3)
N2A N 1.0516(5) 0.8697(3) 1.1479(3)
C2A C 0.7129(7) 0.7454(4) 1.1421(4)
C4A C 0.8389(10) 0.7586(6) 1.3893(5)
H1A H 0.8794 0.7633 1.4721
C6A C 0.4619(7) 0.6863(4) 0.9594(4)
H2A H 0.4221 0.6885 0.8791
C7A C 0.9239(7) 0.8129(4) 1.2096(4)
C8A C 1.2450(7) 0.9403(5) 1.2109(4)
H3A H 1.3354 0.9797 1.1701
C10A C 0.5695(8) 0.6828(5) 1.1979(4)
C11A C 0.3619(8) 0.6184(5) 1.1252(5)
H4A H 0.2618 0.5749 1.1579
C12A C 0.3101(8) 0.6206(5) 1.0076(5)
H5A H 0.1739 0.5784 0.9589
C13A C 0.9866(8) 0.8227(5) 1.3350(4)
C14A C 0.6431(9) 0.6917(5) 1.3244(5)
H6A H 0.5518 0.6494 1.3627
C15A C 1.1912(9) 0.8974(6) 1.3969(5)
H7A H 1.2423 0.9064 1.4800
C16A C 1.3153(9) 0.9568(6) 1.3359(5)
H8A H 1.4498 1.0094 1.3785
Cu1A_2 Cu -0.08999(8) -0.15900(5) -0.02931(5)
N3_2 N 1.1746(6) 0.9337(4) 0.9379(3)
N3A_2 N 0.8254(6) 1.0663(4) 1.0621(3)
loop_
_geom_bond_atom_site_label_1
_geom_bond_atom_site_label_2
_geom_bond_site_symmetry_1
_geom_bond_site_symmetry_2
Cu1 O1 1_555 1_555
O1 C1 1_555 1_555
N1 Cu1 1_555 1_555
N2 Cu1 1_555 1_555
N3 Cu1 1_555 1_555
O2 C1 1_555 1_555
C1 C3 1_555 1_555
N4 N3 1_555 1_555
C2 N1 1_555 1_555
C3 C5 1_555 1_555
C4 H1 1_555 1_555
C5 H9 1_555 1_555
C6 N1 1_555 1_555
H2 C6 1_555 1_555
C7 N2 1_555 1_555
C8 N2 1_555 1_555
H3 C8 1_555 1_555
C9 C3 1_555 1_555
C10 C2 1_555 1_555
C11 C10 1_555 1_555
H4 C11 1_555 1_555
C12 C6 1_555 1_555
H5 C12 1_555 1_555
N5 N4 1_555 1_555
C13 C4 1_555 1_555
C14 C4 1_555 1_555
H6 C14 1_555 1_555
C15 C13 1_555 1_555
H7 C15 1_555 1_555
C16 C8 1_555 1_555
H8 C16 1_555 1_555
H10 C9 1_555 1_555
C9A C5 1_555 1_555
C3A C9A 1_555 1_555
C1A C3A 1_555 1_555
O1A C1A 1_555 1_555
O2A C1A 1_555 1_555
C5A C9 1_555 1_555
H9A C5A 1_555 1_555
H10A C9A 1_555 1_555
N3A Cu1 1_555 1_555
N4A N3A 1_555 1_555
N5A N4A 1_555 1_555
Cu1A O1A 1_555 1_555
N1A Cu1A 1_555 1_555
N2A Cu1A 1_555 1_555
C2A N1A 1_555 1_555
C4A H1A 1_555 1_555
C6A N1A 1_555 1_555
H2A C6A 1_555 1_555
C7A N2A 1_555 1_555
C8A N2A 1_555 1_555
H3A C8A 1_555 1_555
C10A C2A 1_555 1_555
C11A C10A 1_555 1_555
H4A C11A 1_555 1_555
C12A C6A 1_555 1_555
H5A C12A 1_555 1_555
C13A C4A 1_555 1_555
C14A C4A 1_555 1_555
H6A C14A 1_555 1_555
C15A C13A 1_555 1_555
H7A C15A 1_555 1_555
C16A C8A 1_555 1_555
H8A C16A 1_555 1_555
Cu1A_2 N3 1_555 1_555
N3_2 Cu1A 1_555 1_555
N3A_2 Cu1A 1_555 1_555
C2 C7 1_555 1_555
C7 C13 1_555 1_555
C10 C14 1_555 1_555
C11 C12 1_555 1_555
C15 C16 1_555 1_555
C3A C5A 1_555 1_555
N3A Cu1A_2 1_555 1_555
C2A C7A 1_555 1_555
C7A C13A 1_555 1_555
C10A C14A 1_555 1_555
C11A C12A 1_555 1_555
C15A C16A 1_555 1_555

#END
