
#######################################################################
#
#                 Cambridge Crystallographic Data Centre
#                                CCDC 
#
#######################################################################
#
# If this CIF has been generated from an entry in the Cambridge 
# Structural Database, then it will include bibliographic, chemical, 
# crystal, experimental, refinement or atomic coordinate data resulting 
# from the CCDC's data processing and validation procedures.
#
#######################################################################

data_OBUFAT
_symmetry_cell_setting           monoclinic
_symmetry_space_group_name_H-M   'P 21/c'
_symmetry_Int_Tables_number      14
_space_group_name_Hall           '-P 2ybc'
loop_
_symmetry_equiv_pos_site_id
_symmetry_equiv_pos_as_xyz
1 x,y,z
2 x,1/2-y,1/2+z
3 -x,-y,-z
4 -x,1/2+y,1/2-z
_cell_length_a                   10.902(5)
_cell_length_b                   14.868(6)
_cell_length_c                   7.756(3)
_cell_angle_alpha                90
_cell_angle_beta                 110.631(4)
_cell_angle_gamma                90
_cell_volume                     1176.55
loop_
_atom_site_label
_atom_site_type_symbol
_atom_site_fract_x
_atom_site_fract_y
_atom_site_fract_z
Zn1 Zn 0.758940(19) -0.101650(15) 0.49757(3)
Zn2 Zn 0.5000 0.0000 0.5000
O1 O 0.86400(12) -0.08411(9) 0.32544(17)
H1 H 0.829(3) -0.1032(9) 0.1994(6)
H2 H 0.9295(6) -0.0379(4) 0.354(5)
O2 O 0.91115(12) -0.03553(9) 0.70930(17)
H3 H 0.8951(13) 0.0268(3) 0.722(2)
H4 H 0.8953(8) -0.0629(6) 0.8112(7)
O3 O 0.85025(13) -0.21772(9) 0.6195(2)
H5 H 0.834(2) -0.2691(3) 0.5409(9)
H6 H 0.9429(4) -0.2084(15) 0.676(4)
O6 O 0.78421(14) 0.09521(10) 0.3120(2)
O7 O 0.63972(11) 0.01390(8) 0.37861(16)
O8 O 0.21109(13) 0.11433(10) 0.05445(18)
O9 O 0.35684(12) 0.08429(9) 0.32943(16)
O10 O 0.39028(12) 0.31328(9) 0.15362(17)
O11 O 0.57361(12) 0.38696(9) 0.17175(18)
C1 C 0.67299(18) 0.08415(13) 0.3105(2)
C2 C 0.56488(18) 0.15341(13) 0.2229(2)
C3 C 0.43700(18) 0.12177(13) 0.0863(2)
H11 H 0.4081 0.1654 -0.0130
H12 H 0.4524 0.0656 0.0337
C4 C 0.32566(18) 0.10720(12) 0.1599(2)
C5 C 0.59372(18) 0.23830(13) 0.2688(3)
H13 H 0.6750 0.2492 0.3591
C6 C 0.51129(17) 0.31831(13) 0.1926(2)
O6B O 0.21579(14) -0.09521(10) 0.6880(2)
O7B O 0.36028(11) -0.01390(8) 0.62139(16)
O8B O 0.78891(13) -0.11433(10) 0.94555(18)
O9B O 0.64316(12) -0.08429(9) 0.67057(16)
O10B O 0.60972(12) -0.31328(9) 0.84638(17)
O11B O 0.42639(12) -0.38696(9) 0.82825(18)
C1B C 0.32701(18) -0.08415(13) 0.6895(2)
C2B C 0.43512(18) -0.15341(13) 0.7771(2)
C3B C 0.56300(18) -0.12177(13) 0.9137(2)
H11B H 0.5919 -0.1654 1.0130
H12B H 0.5476 -0.0656 0.9663
C4B C 0.67434(18) -0.10720(12) 0.8401(2)
C5B C 0.40628(18) -0.23830(13) 0.7312(3)
H13B H 0.3250 -0.2492 0.6409
C6B C 0.48871(17) -0.31831(13) 0.8074(2)
Zn1B Zn 0.241060(19) 0.101650(15) 0.50243(3)
O1B O 0.13600(12) 0.08411(9) 0.67456(17)
H1B H 0.171(3) 0.1032(9) 0.8006(6)
H2B H 0.0705(6) 0.0379(4) 0.646(5)
O2B O 0.08885(12) 0.03553(9) 0.29070(17)
H3B H 0.1049(13) -0.0268(3) 0.278(2)
H4B H 0.1047(8) 0.0629(6) 0.1888(7)
O3B O 0.14975(13) 0.21772(9) 0.3805(2)
H5B H 0.166(2) 0.2691(3) 0.4591(9)
H6B H 0.0571(4) 0.2084(15) 0.324(4)
O10C O 0.60972(12) -0.18672(9) 0.34638(17)
O11A O 0.57361(12) 0.11304(9) 0.67175(18)
O11C O 0.42639(12) -0.11304(9) 0.32825(18)
Zn1C Zn 0.241060(19) 0.398350(15) 0.00243(3)
Zn2A Zn 0.5000 0.5000 0.0000
Zn1A Zn 0.758940(19) -0.398350(15) 0.99757(3)
Zn2A_2 Zn 0.5000 -0.5000 1.0000
O10A O 0.39028(12) 0.18672(9) 0.65362(17)
O4 O 0.84461(13) 0.13419(10) 0.7712(2)
H7 H 0.7515(4) 0.1272(13) 0.725(3)
O5 O -0.09852(13) 0.20560(9) 0.13119(19)
H9 H -0.1090(19) 0.1673(5) 0.0273(7)
H10 H -0.126(2) 0.1726(16) 0.168(3)
H8? H -0.111(2) 0.2695(3) 0.132(8)
loop_
_geom_bond_atom_site_label_1
_geom_bond_atom_site_label_2
_geom_bond_site_symmetry_1
_geom_bond_site_symmetry_2
Zn1 O1 1_555 1_555
Zn2 O7 1_555 1_555
O1 H1 1_555 1_555
H2 O1 1_555 1_555
O2 Zn1 1_555 1_555
H3 O2 1_555 1_555
H4 O2 1_555 1_555
O3 Zn1 1_555 1_555
H5 O3 1_555 1_555
H6 O3 1_555 1_555
O4 H7 1_555 1_555
O5 H9 1_555 1_555
H10 O5 1_555 1_555
O6 C1 1_555 1_555
O7 Zn1 1_555 1_555
O8 C4 1_555 1_555
O9 Zn2 1_555 1_555
O10 C6 1_555 1_555
O11 C6 1_555 1_555
C1 O7 1_555 1_555
C2 C1 1_555 1_555
C3 C2 1_555 1_555
H11 C3 1_555 1_555
H12 C3 1_555 1_555
C4 O9 1_555 1_555
C5 C2 1_555 1_555
H13 C5 1_555 1_555
C6 C5 1_555 1_555
O6B C1B 1_555 1_555
O7B Zn2 1_555 1_555
O8B C4B 1_555 1_555
O9B Zn1 1_555 1_555
O10B C6B 1_555 1_555
O11B C6B 1_555 1_555
C1B O7B 1_555 1_555
C2B C1B 1_555 1_555
C3B C2B 1_555 1_555
H11B C3B 1_555 1_555
H12B C3B 1_555 1_555
C4B O9B 1_555 1_555
C5B C2B 1_555 1_555
H13B C5B 1_555 1_555
C6B C5B 1_555 1_555
Zn1B O9 1_555 1_555
O1B Zn1B 1_555 1_555
H1B O1B 1_555 1_555
H2B O1B 1_555 1_555
O2B Zn1B 1_555 1_555
H3B O2B 1_555 1_555
H4B O2B 1_555 1_555
O3B Zn1B 1_555 1_555
H5B O3B 1_555 1_555
H6B O3B 1_555 1_555
O10C Zn1 1_555 1_555
O11A Zn2 1_555 1_555
O11C Zn2 1_555 1_555
Zn1C O10 1_555 1_555
Zn2A O11 1_555 1_555
Zn1A O10B 1_555 1_555
Zn2A_2 O11B 1_555 1_555
O10A Zn1B 1_555 1_555
Zn2 O9B 1_555 1_555
C3 C4 1_555 1_555
O7B Zn1B 1_555 1_555
C3B C4B 1_555 1_555

#END
