
#######################################################################
#
#                 Cambridge Crystallographic Data Centre
#                                CCDC 
#
#######################################################################
#
# If this CIF has been generated from an entry in the Cambridge 
# Structural Database, then it will include bibliographic, chemical, 
# crystal, experimental, refinement or atomic coordinate data resulting 
# from the CCDC's data processing and validation procedures.
#
#######################################################################

data_OCACEB
_symmetry_cell_setting           monoclinic
_symmetry_space_group_name_H-M   'C 2/m'
_symmetry_Int_Tables_number      12
_space_group_name_Hall           '-C 2y'
loop_
_symmetry_equiv_pos_site_id
_symmetry_equiv_pos_as_xyz
1 x,y,z
2 1/2+x,1/2+y,z
3 x,-y,z
4 1/2+x,1/2-y,z
5 -x,-y,-z
6 1/2-x,1/2-y,-z
7 -x,y,-z
8 1/2-x,1/2+y,-z
_cell_length_a                   17.259(6)
_cell_length_b                   7.249(3)
_cell_length_c                   8.030(3)
_cell_angle_alpha                90
_cell_angle_beta                 114.002(5)
_cell_angle_gamma                90
_cell_volume                     917.768
loop_
_atom_site_label
_atom_site_type_symbol
_atom_site_fract_x
_atom_site_fract_y
_atom_site_fract_z
Co1 Co 0.0000 0.0000 0.0000
N1 N 0.0278(2) 0.2062(5) -0.1530(4)
N2 N 0.0729(3) 0.5000 -0.2424(6)
N3 N 0.1306(3) 0.0000 0.1942(6)
N4 N 0.1927(3) 0.0000 0.1395(6)
N5 N 0.2657(3) 0.0000 0.2872(6)
H1 H 0.3148 0.0000 0.2839
C1 C 0.0474(2) 0.3456(6) -0.1923(4)
C2 C 0.2531(3) 0.0000 0.4438(7)
C3 C 0.1658(3) 0.0000 0.3844(7)
C4 C 0.1273(4) 0.0000 0.5087(7)
H2 H 0.0687 0.0000 0.4699
C5 C 0.1807(4) 0.0000 0.6899(8)
H3 H 0.1577 0.0000 0.7765
C6 C 0.2694(4) 0.0000 0.7482(9)
H4 H 0.3034 0.0000 0.8726
C7 C 0.3075(4) 0.0000 0.6279(8)
H5 H 0.3661 0.0000 0.6671
C1B C 0.0474(2) 0.6544(6) -0.1923(4)
N1B N 0.0278(2) 0.7938(5) -0.1530(4)
N1B_2 N 0.0278(2) -0.2062(5) -0.1530(4)
N1D N -0.0278(2) -0.2062(5) 0.1530(4)
N1F N -0.0278(2) 0.2062(5) 0.1530(4)
N2F N -0.0729(3) 0.5000 0.2424(6)
C1F C -0.0474(2) 0.3456(6) 0.1923(4)
C1D C -0.0474(2) 0.6544(6) 0.1923(4)
N1D_2 N -0.0278(2) 0.7938(5) 0.1530(4)
N3D N -0.1306(3) 0.0000 -0.1942(6)
N4D N -0.1927(3) 0.0000 -0.1395(6)
N5D N -0.2657(3) 0.0000 -0.2872(6)
H1D H -0.3148 0.0000 -0.2839
C2D C -0.2531(3) 0.0000 -0.4438(7)
C3D C -0.1658(3) 0.0000 -0.3844(7)
C4D C -0.1273(4) 0.0000 -0.5087(7)
H2D H -0.0687 0.0000 -0.4699
C5D C -0.1807(4) 0.0000 -0.6899(8)
H3D H -0.1577 0.0000 -0.7765
C6D C -0.2694(4) 0.0000 -0.7482(9)
H4D H -0.3034 0.0000 -0.8726
C7D C -0.3075(4) 0.0000 -0.6279(8)
H5D H -0.3661 0.0000 -0.6671
Co1B Co 0.0000 1.0000 0.0000
loop_
_geom_bond_atom_site_label_1
_geom_bond_atom_site_label_2
_geom_bond_site_symmetry_1
_geom_bond_site_symmetry_2
Co1 N1 1_555 1_555
N1 C1 1_555 1_555
N2 C1 1_555 1_555
N3 Co1 1_555 1_555
N4 N3 1_555 1_555
N5 N4 1_555 1_555
H1 N5 1_555 1_555
C2 N5 1_555 1_555
C3 N3 1_555 1_555
C4 C3 1_555 1_555
H2 C4 1_555 1_555
C5 C4 1_555 1_555
H3 C5 1_555 1_555
C6 C5 1_555 1_555
H4 C6 1_555 1_555
C7 C2 1_555 1_555
H5 C7 1_555 1_555
C1B N2 1_555 1_555
N1B C1B 1_555 1_555
N1B_2 Co1 1_555 1_555
N1D Co1 1_555 1_555
N1F Co1 1_555 1_555
N2F C1F 1_555 1_555
C1F N1F 1_555 1_555
C1D N2F 1_555 1_555
N1D_2 C1D 1_555 1_555
N3D Co1 1_555 1_555
N4D N3D 1_555 1_555
N5D N4D 1_555 1_555
H1D N5D 1_555 1_555
C2D N5D 1_555 1_555
C3D N3D 1_555 1_555
C4D C3D 1_555 1_555
H2D C4D 1_555 1_555
C5D C4D 1_555 1_555
H3D C5D 1_555 1_555
C6D C5D 1_555 1_555
H4D C6D 1_555 1_555
C7D C2D 1_555 1_555
H5D C7D 1_555 1_555
Co1B N1B 1_555 1_555
C2 C3 1_555 1_555
C6 C7 1_555 1_555
N1D_2 Co1B 1_555 1_555
C2D C3D 1_555 1_555
C6D C7D 1_555 1_555

#END
