
#######################################################################
#
#                 Cambridge Crystallographic Data Centre
#                                CCDC 
#
#######################################################################
#
# If this CIF has been generated from an entry in the Cambridge 
# Structural Database, then it will include bibliographic, chemical, 
# crystal, experimental, refinement or atomic coordinate data resulting 
# from the CCDC's data processing and validation procedures.
#
#######################################################################

data_OCAGII
_symmetry_cell_setting           monoclinic
_symmetry_space_group_name_H-M   'P 21/c'
_symmetry_Int_Tables_number      14
_space_group_name_Hall           '-P 2ybc'
loop_
_symmetry_equiv_pos_site_id
_symmetry_equiv_pos_as_xyz
1 x,y,z
2 x,1/2-y,1/2+z
3 -x,-y,-z
4 -x,1/2+y,1/2-z
_cell_length_a                   9.0656(5)
_cell_length_b                   8.6584(5)
_cell_length_c                   20.9345(11)
_cell_angle_alpha                90
_cell_angle_beta                 97.3060(10)
_cell_angle_gamma                90
_cell_volume                     1629.88
loop_
_atom_site_label
_atom_site_type_symbol
_atom_site_fract_x
_atom_site_fract_y
_atom_site_fract_z
Cu1 Cu 0.40049(4) 0.05207(5) 0.13969(2)
V1 V -0.12099(6) 0.08163(7) 0.29994(3)
P1 P 0.14541(9) -0.04693(10) 0.21812(4)
P2 P 0.42686(9) -0.21987(10) 0.24006(4)
O1 O 0.4775(3) -0.1333(3) 0.18323(12)
O2 O 0.5586(3) -0.2653(3) 0.28859(12)
O3 O 0.1975(3) 0.0264(3) 0.15901(12)
O4 O 0.0441(3) 0.0648(3) 0.24910(13)
O5 O -0.1897(3) -0.1303(3) 0.26647(13)
O6 O 0.3298(3) -0.3626(3) 0.21856(13)
O7 O 0.0638(3) -0.1994(3) 0.20209(13)
O8 O -0.0724(3) 0.0416(3) 0.37442(13)
N1 N 0.5884(3) 0.0683(3) 0.09759(15)
N2 N 0.3256(3) 0.1991(3) 0.06668(14)
C1 C 0.7181(4) -0.0009(4) 0.11473(18)
H1 H 0.7290 -0.0641 0.1509
C2 C 0.8400(4) 0.0185(4) 0.07975(18)
H2 H 0.9303 -0.0297 0.0932
C3 C 0.8234(4) 0.1099(5) 0.02534(19)
H3 H 0.9022 0.1223 0.0014
C4 C 0.6872(4) 0.1843(4) 0.00620(18)
C5 C 0.5734(4) 0.1597(4) 0.04413(17)
C6 C 0.6586(4) 0.2818(4) -0.04978(18)
H4 H 0.7340 0.3001 -0.0751
C7 C 0.5232(4) 0.3472(4) -0.06609(18)
H5 H 0.5073 0.4096 -0.1025
C8 C 0.4037(4) 0.3219(4) -0.02812(18)
C9 C 0.4296(4) 0.2303(4) 0.02704(17)
C10 C 0.2576(4) 0.3803(4) -0.04341(19)
H6 H 0.2326 0.4392 -0.0804
C11 C 0.1538(4) 0.3491(4) -0.00328(19)
H7 H 0.0577 0.3872 -0.0129
C12 C 0.1912(4) 0.2600(4) 0.05238(18)
H8 H 0.1200 0.2432 0.0799
C13 C 0.3042(4) -0.0900(4) 0.27652(17)
H9 H 0.2717 -0.1382 0.3142
H10 H 0.3566 0.0045 0.2900
O2C O 0.4414(3) 0.2347(3) 0.21141(12)
Cu1C Cu 0.59951(4) -0.44793(5) 0.36031(2)
V1C V 0.12099(6) -0.41837(7) 0.20006(3)
O6C O -0.3298(3) 0.1374(3) 0.28144(13)
O7C O -0.0638(3) 0.3006(3) 0.29791(13)
loop_
_geom_bond_atom_site_label_1
_geom_bond_atom_site_label_2
_geom_bond_site_symmetry_1
_geom_bond_site_symmetry_2
Cu1 O1 1_555 1_555
V1 O4 1_555 1_555
P1 O3 1_555 1_555
P2 O1 1_555 1_555
O2 P2 1_555 1_555
O3 Cu1 1_555 1_555
O4 P1 1_555 1_555
O5 V1 1_555 1_555
O6 P2 1_555 1_555
O7 P1 1_555 1_555
O8 V1 1_555 1_555
N1 Cu1 1_555 1_555
N2 Cu1 1_555 1_555
C1 N1 1_555 1_555
H1 C1 1_555 1_555
C2 C1 1_555 1_555
H2 C2 1_555 1_555
C3 C2 1_555 1_555
H3 C3 1_555 1_555
C4 C3 1_555 1_555
C5 N1 1_555 1_555
C6 C4 1_555 1_555
H4 C6 1_555 1_555
C7 C6 1_555 1_555
H5 C7 1_555 1_555
C8 C7 1_555 1_555
C9 N2 1_555 1_555
C10 C8 1_555 1_555
H6 C10 1_555 1_555
C11 C10 1_555 1_555
H7 C11 1_555 1_555
C12 N2 1_555 1_555
H8 C12 1_555 1_555
C13 P1 1_555 1_555
H9 C13 1_555 1_555
H10 C13 1_555 1_555
O2C Cu1 1_555 1_555
Cu1C O2 1_555 1_555
V1C O6 1_555 1_555
O6C V1 1_555 1_555
O7C V1 1_555 1_555
P2 C13 1_555 1_555
O7 V1C 1_555 1_555
C4 C5 1_555 1_555
C5 C9 1_555 1_555
C8 C9 1_555 1_555
C11 C12 1_555 1_555

#END
