
#######################################################################
#
#                 Cambridge Crystallographic Data Centre
#                                CCDC 
#
#######################################################################
#
# If this CIF has been generated from an entry in the Cambridge 
# Structural Database, then it will include bibliographic, chemical, 
# crystal, experimental, refinement or atomic coordinate data resulting 
# from the CCDC's data processing and validation procedures.
#
#######################################################################

data_OCEGOT
_symmetry_cell_setting           triclinic
_symmetry_space_group_name_H-M   'P -1'
_symmetry_Int_Tables_number      2
_space_group_name_Hall           '-P 1'
loop_
_symmetry_equiv_pos_site_id
_symmetry_equiv_pos_as_xyz
1 x,y,z
2 -x,-y,-z
_cell_length_a                   8.614(4)
_cell_length_b                   10.905(5)
_cell_length_c                   10.911(5)
_cell_angle_alpha                102.41(2)
_cell_angle_beta                 108.13(2)
_cell_angle_gamma                111.69(2)
_cell_volume                     839.546
loop_
_atom_site_label
_atom_site_type_symbol
_atom_site_fract_x
_atom_site_fract_y
_atom_site_fract_z
Zn1 Zn 0.0000 0.0000 0.0000
Zn2 Zn 0.32735(6) -0.10152(4) 0.02406(5)
N1 N -0.0412(4) -0.5257(3) -0.1752(3)
C1 C 0.0523(5) -0.3816(4) -0.1193(3)
O1 O 0.2282(3) -0.3155(3) -0.0683(3)
C2 C -0.0528(5) -0.3047(4) -0.1196(3)
O2 O 0.0512(3) -0.1652(2) -0.0604(3)
C3 C -0.2415(5) -0.3784(4) -0.1798(4)
H1 H -0.3114(5) -0.3294(4) -0.1817(4)
C4 C -0.3307(5) -0.5274(4) -0.2388(4)
H2 H -0.4607(5) -0.5780(4) -0.2815(4)
C5 C -0.2311(5) -0.5991(4) -0.2347(4)
H3 H -0.2921(5) -0.6991(4) -0.2727(4)
C6 C 0.0630(6) -0.6081(4) -0.1786(4)
H4 H 0.0090(6) -0.6902(4) -0.1542(4)
H5 H 0.1920(6) -0.5480(4) -0.1094(4)
C7 C 0.0577(5) -0.6586(4) -0.3195(4)
C8 C 0.1511(8) -0.5648(5) -0.3706(6)
H6 H 0.2180(8) -0.4666(5) -0.3174(6)
C9 C 0.1455(10) -0.6164(7) -0.5009(7)
H7 H 0.2091(10) -0.5521(7) -0.5348(7)
C10 C 0.0515(9) -0.7560(7) -0.5793(6)
H8 H 0.0495(9) -0.7887(7) -0.6671(6)
C11 C -0.0425(9) -0.8513(6) -0.5300(5)
H9 H -0.1088(9) -0.9493(6) -0.5843(5)
C12 C -0.0382(7) -0.8019(5) -0.4006(5)
H10 H -0.1018(7) -0.8670(5) -0.3673(5)
O3 O 0.2337(4) 0.0893(3) 0.1957(3)
O4 O 0.3920(4) -0.0322(3) 0.2243(3)
C13 C 0.3483(5) 0.0617(4) 0.2694(4)
C14 C 0.4459(7) 0.1458(6) 0.4230(5)
H11 H 0.5785(7) 0.1929(6) 0.4517(5)
H12 H 0.4166(7) 0.0824(6) 0.4720(5)
H13 H 0.4058(7) 0.2166(6) 0.4447(5)
O5 O 0.1642(3) 0.1069(3) -0.0878(3)
O6 O 0.4036(3) 0.0606(2) -0.0444(3)
C15 C 0.3099(5) 0.1223(4) -0.0936(4)
C16 C 0.3873(6) 0.2178(5) -0.1633(5)
H14 H 0.4306(6) 0.1728(5) -0.2220(5)
H15 H 0.4897(6) 0.3076(5) -0.0932(5)
H16 H 0.2915(6) 0.2349(5) -0.2197(5)
N1A N 0.0412(4) 0.5257(3) 0.1752(3)
C1A C -0.0523(5) 0.3816(4) 0.1193(3)
O1A O -0.2282(3) 0.3155(3) 0.0683(3)
C2A C 0.0528(5) 0.3047(4) 0.1196(3)
O2A O -0.0512(3) 0.1652(2) 0.0604(3)
C3A C 0.2415(5) 0.3784(4) 0.1798(4)
H1A H 0.3114(5) 0.3294(4) 0.1817(4)
C4A C 0.3307(5) 0.5274(4) 0.2388(4)
H2A H 0.4607(5) 0.5780(4) 0.2815(4)
C5A C 0.2311(5) 0.5991(4) 0.2347(4)
H3A H 0.2921(5) 0.6991(4) 0.2727(4)
C6A C -0.0630(6) 0.6081(4) 0.1786(4)
H4A H -0.0090(6) 0.6902(4) 0.1542(4)
H5A H -0.1920(6) 0.5480(4) 0.1094(4)
C7A C -0.0577(5) 0.6586(4) 0.3195(4)
C8A C -0.1511(8) 0.5648(5) 0.3706(6)
H6A H -0.2180(8) 0.4666(5) 0.3174(6)
C9A C -0.1455(10) 0.6164(7) 0.5009(7)
H7A H -0.2091(10) 0.5521(7) 0.5348(7)
C10A C -0.0515(9) 0.7560(7) 0.5793(6)
H8A H -0.0495(9) 0.7887(7) 0.6671(6)
C11A C 0.0425(9) 0.8513(6) 0.5300(5)
H9A H 0.1088(9) 0.9493(6) 0.5843(5)
C12A C 0.0382(7) 0.8019(5) 0.4006(5)
H10A H 0.1018(7) 0.8670(5) 0.3673(5)
O3A O -0.2337(4) -0.0893(3) -0.1957(3)
O4A O -0.3920(4) 0.0322(3) -0.2243(3)
C13A C -0.3483(5) -0.0617(4) -0.2694(4)
C14A C -0.4459(7) -0.1458(6) -0.4230(5)
H11A H -0.5785(7) -0.1929(6) -0.4517(5)
H12A H -0.4166(7) -0.0824(6) -0.4720(5)
H13A H -0.4058(7) -0.2166(6) -0.4447(5)
O5A O -0.1642(3) -0.1069(3) 0.0878(3)
O6A O -0.4036(3) -0.0606(2) 0.0444(3)
C15A C -0.3099(5) -0.1223(4) 0.0936(4)
C16A C -0.3873(6) -0.2178(5) 0.1633(5)
H14A H -0.4306(6) -0.1728(5) 0.2220(5)
H15A H -0.4897(6) -0.3076(5) 0.0932(5)
H16A H -0.2915(6) -0.2349(5) 0.2197(5)
Zn2A Zn -0.32735(6) 0.10152(4) -0.02406(5)
O6A_2 O 0.5964(3) -0.0606(2) 0.0444(3)
Zn2A_2 Zn 0.67265(6) 0.10152(4) -0.02406(5)
Zn2_2 Zn -0.67265(6) -0.10152(4) 0.02406(5)
O6_2 O -0.5964(3) 0.0606(2) -0.0444(3)
loop_
_geom_bond_atom_site_label_1
_geom_bond_atom_site_label_2
_geom_bond_site_symmetry_1
_geom_bond_site_symmetry_2
Zn1 O2 1_555 1_555
Zn2 O1 1_555 1_555
N1 C1 1_555 1_555
C1 O1 1_555 1_555
C2 C1 1_555 1_555
O2 Zn2 1_555 1_555
C3 C2 1_555 1_555
H1 C3 1_555 1_555
C4 C3 1_555 1_555
H2 C4 1_555 1_555
C5 N1 1_555 1_555
H3 C5 1_555 1_555
C6 N1 1_555 1_555
H4 C6 1_555 1_555
H5 C6 1_555 1_555
C7 C6 1_555 1_555
C8 C7 1_555 1_555
H6 C8 1_555 1_555
C9 C8 1_555 1_555
H7 C9 1_555 1_555
C10 C9 1_555 1_555
H8 C10 1_555 1_555
C11 C10 1_555 1_555
H9 C11 1_555 1_555
C12 C7 1_555 1_555
H10 C12 1_555 1_555
O3 Zn1 1_555 1_555
O4 Zn2 1_555 1_555
C13 O3 1_555 1_555
C14 C13 1_555 1_555
H11 C14 1_555 1_555
H12 C14 1_555 1_555
H13 C14 1_555 1_555
O5 Zn1 1_555 1_555
O6 Zn2 1_555 1_555
C15 O5 1_555 1_555
C16 C15 1_555 1_555
H14 C16 1_555 1_555
H15 C16 1_555 1_555
H16 C16 1_555 1_555
N1A C1A 1_555 1_555
C1A O1A 1_555 1_555
O1A Zn2A 1_555 1_555
C2A C1A 1_555 1_555
O2A Zn1 1_555 1_555
C3A C2A 1_555 1_555
H1A C3A 1_555 1_555
C4A C3A 1_555 1_555
H2A C4A 1_555 1_555
C5A N1A 1_555 1_555
H3A C5A 1_555 1_555
C6A N1A 1_555 1_555
H4A C6A 1_555 1_555
H5A C6A 1_555 1_555
C7A C6A 1_555 1_555
C8A C7A 1_555 1_555
H6A C8A 1_555 1_555
C9A C8A 1_555 1_555
H7A C9A 1_555 1_555
C10A C9A 1_555 1_555
H8A C10A 1_555 1_555
C11A C10A 1_555 1_555
H9A C11A 1_555 1_555
C12A C7A 1_555 1_555
H10A C12A 1_555 1_555
O3A Zn1 1_555 1_555
O4A C13A 1_555 1_555
C13A O3A 1_555 1_555
C14A C13A 1_555 1_555
H11A C14A 1_555 1_555
H12A C14A 1_555 1_555
H13A C14A 1_555 1_555
O5A Zn1 1_555 1_555
O6A C15A 1_555 1_555
C15A O5A 1_555 1_555
C16A C15A 1_555 1_555
H14A C16A 1_555 1_555
H15A C16A 1_555 1_555
H16A C16A 1_555 1_555
Zn2A O2A 1_555 1_555
O6A_2 Zn2 1_555 1_555
Zn2A_2 O6 1_555 1_555
Zn2_2 O6A 1_555 1_555
O6_2 Zn2A 1_555 1_555
C2 O2 1_555 1_555
C4 C5 1_555 1_555
C11 C12 1_555 1_555
O4 C13 1_555 1_555
O6 C15 1_555 1_555
C2A O2A 1_555 1_555
C4A C5A 1_555 1_555
C11A C12A 1_555 1_555
O4A Zn2A 1_555 1_555
O6A Zn2A 1_555 1_555
O6A_2 Zn2A_2 1_555 1_555
Zn2_2 O6_2 1_555 1_555

#END
