
#######################################################################
#
#                 Cambridge Crystallographic Data Centre
#                                CCDC 
#
#######################################################################
#
# If this CIF has been generated from an entry in the Cambridge 
# Structural Database, then it will include bibliographic, chemical, 
# crystal, experimental, refinement or atomic coordinate data resulting 
# from the CCDC's data processing and validation procedures.
#
#######################################################################

data_OCERIY
_symmetry_cell_setting           triclinic
_symmetry_space_group_name_H-M   'P -1'
_symmetry_Int_Tables_number      2
_space_group_name_Hall           '-P 1'
loop_
_symmetry_equiv_pos_site_id
_symmetry_equiv_pos_as_xyz
1 x,y,z
2 -x,-y,-z
_cell_length_a                   7.780(2)
_cell_length_b                   9.701(2)
_cell_length_c                   10.188(2)
_cell_angle_alpha                114.51(3)
_cell_angle_beta                 93.27(3)
_cell_angle_gamma                110.72(3)
_cell_volume                     635.342
loop_
_atom_site_label
_atom_site_type_symbol
_atom_site_fract_x
_atom_site_fract_y
_atom_site_fract_z
Cu1 Cu 0.0000 0.0000 0.5000
Cu2 Cu 0.24089(5) 0.06205(4) 0.80979(3)
O1 O 0.1664(3) 0.1423(2) 0.6889(2)
O2 O 0.3001(3) -0.0991(3) 0.6483(2)
O3 O 0.1471(3) -0.1331(3) 0.4359(2)
O4 O 0.3044(4) -0.7360(3) -0.0070(2)
O5 O 0.1864(3) -0.5744(2) -0.0504(2)
O6 O 0.8200(4) -0.4607(3) 0.4290(3)
O7 O 0.8373(4) -0.2434(4) 0.6181(3)
C1 C 0.2557(4) -0.1579(3) 0.5099(3)
C2 C 0.3440(4) -0.2715(3) 0.4237(3)
C3 C 0.5025(4) -0.2668(3) 0.4980(3)
H1 H 0.5611 -0.2020 0.5984
C4 C 0.5819(4) -0.3726(3) 0.4185(3)
C5 C 0.5066(4) -0.4856(3) 0.2694(3)
H2 H 0.5699 -0.5643 0.2079
C6 C 0.3504(4) -0.4871(3) 0.1948(3)
C7 C 0.2696(4) -0.3791(3) 0.2717(3)
H3 H 0.1546 -0.3827 0.2143
C8 C 0.2717(4) -0.6069(3) 0.0314(3)
C9 C 0.2258(5) -0.2109(4) 0.8747(3)
H4 H 0.2277 -0.2841 0.7618
C10 C 0.2200(4) -0.2540(3) 0.9827(3)
H5 H 0.2343 -0.3396 0.9815
C11 C 0.2401(5) -0.0017(4) 1.0721(3)
H6 H 0.2782 0.1136 1.1524
N1 N 0.7581(3) -0.3591(3) 0.4944(3)
N2 N 0.2408(4) -0.0561(3) 0.9250(3)
N3 N 0.2297(5) -0.1232(4) 1.1092(4)
H7 H 0.2364 -0.1198 1.2172
H8 H 0.1425 0.2217 0.7399
Cu2A Cu -0.24089(5) -0.06205(4) 0.19021(3)
Cu2_2 Cu 0.24089(5) -0.93795(4) -0.19021(3)
Cu2A_2 Cu -0.24089(5) 0.93795(4) 1.19021(3)
O1A O -0.1664(3) -0.1423(2) 0.3111(2)
O2A O -0.3001(3) 0.0991(3) 0.3517(2)
O3A O -0.1471(3) 0.1331(3) 0.5641(2)
O4A O -0.3044(4) 0.7360(3) 1.0070(2)
O4_2 O 0.3044(4) 0.2640(3) 0.9930(2)
O4A_2 O -0.3044(4) -0.2640(3) 0.0070(2)
O5A O -0.1864(3) 0.5744(2) 1.0504(2)
O6A O -0.8200(4) 0.4607(3) 0.5710(3)
O7A O -0.8373(4) 0.2434(4) 0.3819(3)
C1A C -0.2557(4) 0.1579(3) 0.4901(3)
C2A C -0.3440(4) 0.2715(3) 0.5763(3)
C3A C -0.5025(4) 0.2668(3) 0.5020(3)
H1A H -0.5611 0.2020 0.4016
C4A C -0.5819(4) 0.3726(3) 0.5815(3)
C5A C -0.5066(4) 0.4856(3) 0.7306(3)
H2A H -0.5699 0.5643 0.7921
C6A C -0.3504(4) 0.4871(3) 0.8052(3)
C7A C -0.2696(4) 0.3791(3) 0.7283(3)
H3A H -0.1546 0.3827 0.7857
C8A C -0.2717(4) 0.6069(3) 0.9686(3)
C9A C -0.2258(5) 0.2109(4) 0.1253(3)
H4A H -0.2277 0.2841 0.2382
C10A C -0.2200(4) 0.2540(3) 0.0173(3)
H5A H -0.2343 0.3396 0.0185
C11A C -0.2401(5) 0.0017(4) -0.0721(3)
H6A H -0.2782 -0.1136 -0.1524
N1A N -0.7581(3) 0.3591(3) 0.5056(3)
N2A N -0.2408(4) 0.0561(3) 0.0750(3)
N3A N -0.2297(5) 0.1232(4) -0.1092(4)
H7A H -0.2364 0.1198 -0.2172
H8A H -0.1425 -0.2217 0.2601
loop_
_geom_bond_atom_site_label_1
_geom_bond_atom_site_label_2
_geom_bond_site_symmetry_1
_geom_bond_site_symmetry_2
Cu1 O1 1_555 1_555
Cu2 O1 1_555 1_555
O1 H8 1_555 1_555
O2 Cu2 1_555 1_555
O3 Cu1 1_555 1_555
O4 C8 1_555 1_555
O5 C8 1_555 1_555
O6 N1 1_555 1_555
O7 N1 1_555 1_555
C1 O2 1_555 1_555
C2 C1 1_555 1_555
C3 C2 1_555 1_555
H1 C3 1_555 1_555
C4 C3 1_555 1_555
C5 C4 1_555 1_555
H2 C5 1_555 1_555
C6 C5 1_555 1_555
C7 C2 1_555 1_555
H3 C7 1_555 1_555
C8 C6 1_555 1_555
C9 H4 1_555 1_555
C10 C9 1_555 1_555
H5 C10 1_555 1_555
C11 H6 1_555 1_555
N1 C4 1_555 1_555
N2 Cu2 1_555 1_555
N3 C10 1_555 1_555
H7 N3 1_555 1_555
Cu2A O1A 1_555 1_555
Cu2_2 O4 1_555 1_555
Cu2A_2 O4A 1_555 1_555
O1A Cu1 1_555 1_555
O2A Cu2A 1_555 1_555
O3A Cu1 1_555 1_555
O4A C8A 1_555 1_555
O4_2 Cu2 1_555 1_555
O4A_2 Cu2A 1_555 1_555
O5A C8A 1_555 1_555
O6A N1A 1_555 1_555
O7A N1A 1_555 1_555
C1A O2A 1_555 1_555
C2A C1A 1_555 1_555
C3A C2A 1_555 1_555
H1A C3A 1_555 1_555
C4A C3A 1_555 1_555
C5A C4A 1_555 1_555
H2A C5A 1_555 1_555
C6A C5A 1_555 1_555
C7A C2A 1_555 1_555
H3A C7A 1_555 1_555
C8A C6A 1_555 1_555
C9A H4A 1_555 1_555
C10A C9A 1_555 1_555
H5A C10A 1_555 1_555
C11A H6A 1_555 1_555
N1A C4A 1_555 1_555
N2A Cu2A 1_555 1_555
N3A C10A 1_555 1_555
H7A N3A 1_555 1_555
H8A O1A 1_555 1_555
O3 C1 1_555 1_555
C6 C7 1_555 1_555
C9 N2 1_555 1_555
C11 N2 1_555 1_555
C11 N3 1_555 1_555
O3A C1A 1_555 1_555
C6A C7A 1_555 1_555
C9A N2A 1_555 1_555
C11A N2A 1_555 1_555
C11A N3A 1_555 1_555

#END
