
#######################################################################
#
#                 Cambridge Crystallographic Data Centre
#                                CCDC 
#
#######################################################################
#
# If this CIF has been generated from an entry in the Cambridge 
# Structural Database, then it will include bibliographic, chemical, 
# crystal, experimental, refinement or atomic coordinate data resulting 
# from the CCDC's data processing and validation procedures.
#
#######################################################################

data_OCESUL01
_symmetry_cell_setting           monoclinic
_symmetry_space_group_name_H-M   'C 2/c'
_symmetry_Int_Tables_number      15
_space_group_name_Hall           '-C 2yn'
loop_
_symmetry_equiv_pos_site_id
_symmetry_equiv_pos_as_xyz
1 x,y,z
2 1/2+x,1/2+y,z
3 -x,y,1/2-z
4 1/2-x,1/2+y,1/2-z
5 -x,-y,-z
6 1/2-x,1/2-y,-z
7 x,-y,1/2+z
8 1/2+x,1/2-y,1/2+z
_cell_length_a                   10.030(9)
_cell_length_b                   11.391(10)
_cell_length_c                   7.490(7)
_cell_angle_alpha                90
_cell_angle_beta                 100.590(14)
_cell_angle_gamma                90
_cell_volume                     841.17
loop_
_atom_site_label
_atom_site_type_symbol
_atom_site_fract_x
_atom_site_fract_y
_atom_site_fract_z
Ag1 Ag 0.12891(13) 0.11954(11) 0.1250(2)
N1 N -0.0690(12) 0.1533(11) -0.0637(18)
N2 N -0.1451(13) 0.0740(12) -0.1699(19)
N3 N -0.2393(12) 0.1308(11) -0.2861(18)
N4 N -0.2290(12) 0.2462(10) -0.2509(18)
C1 C -0.1203(17) 0.2574(15) -0.120(2)
C2 C -0.0680(15) 0.3701(13) -0.046(2)
H1 H 0.0292 0.3700 -0.0295
H2 H -0.0950 0.3826 0.0693
H3 H -0.1038 0.4318 -0.1280
Ag1D Ag -0.12891(13) -0.11954(11) -0.1250(2)
Ag1G Ag -0.37109(13) 0.38046(11) -0.3750(2)
N2D N 0.1451(13) -0.0740(12) 0.1699(19)
N4G N 0.2710(12) 0.2538(10) 0.2491(18)
loop_
_geom_bond_atom_site_label_1
_geom_bond_atom_site_label_2
_geom_bond_site_symmetry_1
_geom_bond_site_symmetry_2
Ag1 N1 1_555 1_555
N1 N2 1_555 1_555
N2 N3 1_555 1_555
N3 N4 1_555 1_555
N4 C1 1_555 1_555
C1 N1 1_555 1_555
C2 C1 1_555 1_555
H1 C2 1_555 1_555
H2 C2 1_555 1_555
H3 C2 1_555 1_555
Ag1D N2 1_555 1_555
Ag1G N4 1_555 1_555
N2D Ag1 1_555 1_555
N4G Ag1 1_555 1_555

#END
