
#######################################################################
#
#                 Cambridge Crystallographic Data Centre
#                                CCDC 
#
#######################################################################
#
# If this CIF has been generated from an entry in the Cambridge 
# Structural Database, then it will include bibliographic, chemical, 
# crystal, experimental, refinement or atomic coordinate data resulting 
# from the CCDC's data processing and validation procedures.
#
#######################################################################

data_OCEWAU
_symmetry_cell_setting           monoclinic
_symmetry_space_group_name_H-M   'C 2/c'
_symmetry_Int_Tables_number      15
_space_group_name_Hall           '-C 2yn'
loop_
_symmetry_equiv_pos_site_id
_symmetry_equiv_pos_as_xyz
1 x,y,z
2 1/2+x,1/2+y,z
3 x,-y,1/2+z
4 1/2+x,1/2-y,1/2+z
5 -x,-y,-z
6 1/2-x,1/2-y,-z
7 -x,y,1/2-z
8 1/2-x,1/2+y,1/2-z
_cell_length_a                   17.2064(4)
_cell_length_b                   12.4777(3)
_cell_length_c                   15.3058(3)
_cell_angle_alpha                90
_cell_angle_beta                 115.5290(10)
_cell_angle_gamma                90
_cell_volume                     2965.27
loop_
_atom_site_label
_atom_site_type_symbol
_atom_site_fract_x
_atom_site_fract_y
_atom_site_fract_z
Na1 Na 0.5000 0.52984(7) 0.2500
B1 B 0.5000 0.18528(18) 0.2500
N1 N 0.55651(9) 0.43884(10) 0.07339(9)
N2 N 0.51702(9) 0.51927(10) 0.09391(9)
N3 N 0.57694(10) 0.32824(11) -0.13230(10)
C1 C 0.53850(10) 0.42163(12) -0.01978(11)
C2 C 0.58150(10) 0.33011(12) -0.04232(11)
C3 C 0.62143(12) 0.25078(14) 0.02521(13)
H1 H 0.6239 0.2547 0.0870
C4 C 0.65764(14) 0.16536(14) -0.00156(15)
H2 H 0.6845 0.1103 0.0420
C5 C 0.65367(14) 0.16253(15) -0.09269(16)
H3 H 0.6779 0.1060 -0.1119
C6 C 0.61306(14) 0.24520(15) -0.15532(14)
H4 H 0.6107 0.2429 -0.2171
C7 C 0.43708(9) 0.26237(11) 0.16041(10)
C8 C 0.41932(10) 0.24826(13) 0.06343(11)
H5 H 0.4472 0.1932 0.0472
C9 C 0.36183(12) 0.31262(15) -0.01049(12)
H6 H 0.3514 0.2993 -0.0744
C10 C 0.32025(12) 0.39615(14) 0.01096(13)
H7 H 0.2824 0.4401 -0.0379
C11 C 0.33578(11) 0.41327(13) 0.10621(13)
H8 H 0.3080 0.4690 0.1217
C12 C 0.39261(11) 0.34776(12) 0.17888(11)
H9 H 0.4018 0.3607 0.2424
C13 C 0.56068(9) 0.10515(11) 0.21960(10)
C14 C 0.52281(12) 0.02039(13) 0.15491(12)
H10 H 0.4631 0.0150 0.1254
C15 C 0.57050(14) -0.05562(14) 0.13305(14)
H11 H 0.5425 -0.1106 0.0899
C16 C 0.65907(14) -0.05019(15) 0.17490(15)
H12 H 0.6913 -0.1017 0.1611
C17 C 0.69919(12) 0.03278(14) 0.23758(14)
H13 H 0.7589 0.0381 0.2657
C18 C 0.65039(10) 0.10897(13) 0.25897(11)
H14 H 0.6789 0.1645 0.3012
C7F C 0.56292(9) 0.26237(11) 0.33959(10)
C8F C 0.58068(10) 0.24826(13) 0.43657(11)
H5F H 0.5528 0.1932 0.4528
C9F C 0.63817(12) 0.31262(15) 0.51049(12)
H6F H 0.6486 0.2993 0.5744
C10F C 0.67975(12) 0.39615(14) 0.48904(13)
H7F H 0.7176 0.4401 0.5379
C11F C 0.66422(11) 0.41327(13) 0.39379(13)
H8F H 0.6920 0.4690 0.3783
C12F C 0.60739(11) 0.34776(12) 0.32112(11)
H9F H 0.5982 0.3607 0.2576
C13F C 0.43932(9) 0.10515(11) 0.28040(10)
C14F C 0.47719(12) 0.02039(13) 0.34509(12)
H10F H 0.5369 0.0150 0.3746
C15F C 0.42950(14) -0.05562(14) 0.36695(14)
H11F H 0.4575 -0.1106 0.4101
C16F C 0.34093(14) -0.05019(15) 0.32510(15)
H12F H 0.3087 -0.1017 0.3389
C17F C 0.30081(12) 0.03278(14) 0.26242(14)
H13F H 0.2411 0.0381 0.2343
C18F C 0.34961(10) 0.10897(13) 0.24103(11)
H14F H 0.3211 0.1645 0.1988
C1D C 0.46150(10) 0.57837(12) 0.01978(11)
N1D N 0.44349(9) 0.56116(10) -0.07339(9)
N2D N 0.48298(9) 0.48073(10) -0.09391(9)
C2D C 0.41850(10) 0.66989(12) 0.04232(11)
N3D N 0.42306(10) 0.67176(11) 0.13230(10)
C6D C 0.38694(14) 0.75480(15) 0.15532(14)
C5D C 0.34633(14) 0.83747(15) 0.09269(16)
C4D C 0.34236(14) 0.83464(14) 0.00156(15)
C3D C 0.37857(12) 0.74922(14) -0.02521(13)
H1D H 0.3761 0.7453 -0.0870
H2D H 0.3155 0.8897 -0.0420
H3D H 0.3221 0.8940 0.1119
H4D H 0.3893 0.7571 0.2171
N2F N 0.48298(9) 0.51927(10) 0.40609(9)
N3B N 0.57694(10) 0.67176(11) 0.36770(10)
Na1B Na 0.5000 0.47016(7) -0.2500
loop_
_geom_bond_atom_site_label_1
_geom_bond_atom_site_label_2
_geom_bond_site_symmetry_1
_geom_bond_site_symmetry_2
Na1 N2 1_555 1_555
B1 C7 1_555 1_555
N1 N2 1_555 1_555
N2 C1D 1_555 1_555
N3 C2 1_555 1_555
C1 N1 1_555 1_555
C2 C1 1_555 1_555
C3 C2 1_555 1_555
H1 C3 1_555 1_555
C4 C3 1_555 1_555
H2 C4 1_555 1_555
C5 C4 1_555 1_555
H3 C5 1_555 1_555
C6 N3 1_555 1_555
H4 C6 1_555 1_555
C7 C8 1_555 1_555
C8 H5 1_555 1_555
C9 C8 1_555 1_555
H6 C9 1_555 1_555
C10 C9 1_555 1_555
H7 C10 1_555 1_555
C11 C10 1_555 1_555
H8 C11 1_555 1_555
C12 Na1 1_555 1_555
H9 C12 1_555 1_555
C13 B1 1_555 1_555
C14 C13 1_555 1_555
H10 C14 1_555 1_555
C15 C14 1_555 1_555
H11 C15 1_555 1_555
C16 C15 1_555 1_555
H12 C16 1_555 1_555
C17 C16 1_555 1_555
H13 C17 1_555 1_555
C18 C13 1_555 1_555
H14 C18 1_555 1_555
C7F B1 1_555 1_555
C8F C7F 1_555 1_555
H5F C8F 1_555 1_555
C9F C8F 1_555 1_555
H6F C9F 1_555 1_555
C10F C9F 1_555 1_555
H7F C10F 1_555 1_555
C11F C10F 1_555 1_555
H8F C11F 1_555 1_555
C12F Na1 1_555 1_555
H9F C12F 1_555 1_555
C13F B1 1_555 1_555
C14F C13F 1_555 1_555
H10F C14F 1_555 1_555
C15F C14F 1_555 1_555
H11F C15F 1_555 1_555
C16F C15F 1_555 1_555
H12F C16F 1_555 1_555
C17F C16F 1_555 1_555
H13F C17F 1_555 1_555
C18F C13F 1_555 1_555
H14F C18F 1_555 1_555
C1D N1D 1_555 1_555
N1D N2D 1_555 1_555
N2D C1 1_555 1_555
C2D C1D 1_555 1_555
N3D Na1 1_555 1_555
C6D N3D 1_555 1_555
C5D C6D 1_555 1_555
C4D C5D 1_555 1_555
C3D C2D 1_555 1_555
H1D C3D 1_555 1_555
H2D C4D 1_555 1_555
H3D C5D 1_555 1_555
H4D C6D 1_555 1_555
N2F Na1 1_555 1_555
N3B Na1 1_555 1_555
Na1B N3 1_555 1_555
C5 C6 1_555 1_555
C7 C12 1_555 1_555
C11 C12 1_555 1_555
C17 C18 1_555 1_555
C7F C12F 1_555 1_555
C11F C12F 1_555 1_555
C17F C18F 1_555 1_555
N2D Na1B 1_555 1_555
C2D N3D 1_555 1_555
C4D C3D 1_555 1_555

#END
