
#######################################################################
#
#                 Cambridge Crystallographic Data Centre
#                                CCDC 
#
#######################################################################
#
# If this CIF has been generated from an entry in the Cambridge 
# Structural Database, then it will include bibliographic, chemical, 
# crystal, experimental, refinement or atomic coordinate data resulting 
# from the CCDC's data processing and validation procedures.
#
#######################################################################

data_OCIGIR
_symmetry_cell_setting           triclinic
_symmetry_space_group_name_H-M   'P -1'
_symmetry_Int_Tables_number      2
_space_group_name_Hall           '-P 1'
loop_
_symmetry_equiv_pos_site_id
_symmetry_equiv_pos_as_xyz
1 x,y,z
2 -x,-y,-z
_cell_length_a                   8.8758(12)
_cell_length_b                   13.9822(18)
_cell_length_c                   15.222(2)
_cell_angle_alpha                71.359(7)
_cell_angle_beta                 89.092(8)
_cell_angle_gamma                89.993(7)
_cell_volume                     1789.75
loop_
_atom_site_label
_atom_site_type_symbol
_atom_site_fract_x
_atom_site_fract_y
_atom_site_fract_z
Ag1 Ag 1.13446(8) 0.24793(5) 0.18251(6)
Ag2 Ag 1.63507(8) 0.12525(5) 0.18165(6)
C1 C 1.0697(11) 0.3998(7) 0.1498(8)
C2 C 1.0858(11) 0.5715(7) 0.1179(8)
H1 H 1.1266 0.6360 0.1124
C3 C 0.9463(11) 0.5517(7) 0.0987(8)
H2 H 0.8682 0.5994 0.0763
C4 C 1.3223(11) 0.4678(8) 0.1719(9)
H3 H 1.3842 0.5047 0.1168
H4 H 1.3497 0.3955 0.1899
C5 C 1.3565(11) 0.5075(7) 0.2501(8)
C6 C 1.4666(12) 0.5839(8) 0.2385(8)
H5 H 1.5161 0.6121 0.1801
C7 C 1.5024(13) 0.6176(8) 0.3110(9)
H6 H 1.5761 0.6693 0.3021
C8 C 1.4327(14) 0.5775(9) 0.3965(10)
H7 H 1.4589 0.6020 0.4457
C9 C 1.3258(14) 0.5026(9) 0.4114(10)
H8 H 1.2779 0.4749 0.4704
C10 C 1.2894(12) 0.4682(8) 0.3372(8)
H9 H 1.2162 0.4162 0.3470
C11 C 0.8002(10) 0.3943(7) 0.1046(7)
H10 H 0.8293 0.3282 0.0987
H11 H 0.7519 0.4340 0.0461
C12 C 0.6863(11) 0.3772(8) 0.1848(8)
H12 H 0.6694 0.4413 0.1980
H13 H 0.5888 0.3546 0.1673
C13 C 0.8125(13) 0.3160(9) 0.3399(9)
C14 C 0.8302(16) 0.4180(9) 0.3542(11)
H14 H 0.9084 0.4573 0.3118
H15 H 0.8590 0.4082 0.4184
H16 H 0.7344 0.4544 0.3418
C15 C 0.8606(14) 0.2214(8) 0.3974(9)
H17 H 0.9113 0.2074 0.4546
C16 C 0.8187(13) 0.1523(9) 0.3536(9)
C17 C 0.8495(16) 0.0411(9) 0.3795(10)
H18 H 0.9441 0.0305 0.3499
H19 H 0.7668 0.0078 0.3585
H20 H 0.8577 0.0125 0.4470
C18 C 1.5687(11) -0.0035(7) 0.1469(7)
C19 C 1.5898(11) -0.1545(7) 0.1195(8)
H21 H 1.6321 -0.2158 0.1163
C20 C 1.4454(12) -0.1198(7) 0.0967(8)
H22 H 1.3683 -0.1509 0.0726
C21 C 1.8205(11) -0.0880(7) 0.1715(9)
H23 H 1.8484 -0.0270 0.1874
H24 H 1.8815 -0.0881 0.1165
C22 C 1.8576(11) -0.1796(7) 0.2508(8)
C23 C 1.7935(13) -0.1948(8) 0.3387(8)
H25 H 1.7216 -0.1485 0.3480
C24 C 1.8353(14) -0.2773(8) 0.4119(9)
H26 H 1.7907 -0.2881 0.4715
C25 C 1.9390(14) -0.3432(9) 0.3999(9)
H27 H 1.9676 -0.3990 0.4514
C26 C 2.0042(13) -0.3302(9) 0.3133(10)
H28 H 2.0752 -0.3778 0.3055
C27 C 1.9660(12) -0.2489(7) 0.2394(9)
H29 H 2.0123 -0.2390 0.1804
C28 C 1.2990(11) 0.0323(7) 0.1024(8)
H30 H 1.2501 0.0314 0.0447
H31 H 1.3279 0.1030 0.0946
C29 C 1.1851(12) -0.0043(8) 0.1836(7)
H32 H 1.0889 0.0322 0.1664
H33 H 1.1649 -0.0772 0.1968
C30 C 1.3406(16) 0.1903(9) 0.3844(11)
H34 H 1.3745 0.1668 0.4487
H35 H 1.2470 0.2286 0.3808
H36 H 1.4182 0.2339 0.3449
C31 C 1.3128(14) 0.1010(8) 0.3519(9)
C32 C 1.3622(14) 0.0020(9) 0.3951(9)
H37 H 1.4161 -0.0225 0.4513
C33 C 1.3155(11) -0.0528(8) 0.3382(9)
C34 C 1.3329(16) -0.1641(9) 0.3503(10)
H38 H 1.2335 -0.1941 0.3491
H39 H 1.3804 -0.1981 0.4098
H40 H 1.3960 -0.1721 0.2997
N1 N 1.1615(8) 0.4791(6) 0.1479(7)
N2 N 0.9363(9) 0.4476(6) 0.1177(7)
N3 N 0.7430(9) 0.3000(6) 0.2686(7)
N4 N 0.7447(10) 0.2019(6) 0.2742(7)
N5 N 1.4369(8) -0.0303(6) 0.1163(6)
N6 N 1.6591(8) -0.0825(5) 0.1477(6)
N7 N 1.2441(9) 0.0131(6) 0.2667(7)
N8 N 1.2433(10) 0.1070(6) 0.2745(7)
Ag2_2 Ag 0.63507(8) 0.12525(5) 0.18165(6)
N4_2 N 1.7447(10) 0.2019(6) 0.2742(7)
N9 N 0.9671(9) 0.1691(6) 0.0277(7)
O1 O 0.8899(9) 0.1322(7) -0.0214(6)
O2 O 0.9245(8) 0.1625(5) 0.1084(6)
O3 O 1.0921(8) 0.2096(5) -0.0020(6)
N10 N 0.4673(9) 0.3130(6) 0.0281(7)
O4 O 0.5903(8) 0.2923(6) -0.0011(6)
O5 O 0.4242(8) 0.2616(5) 0.1090(6)
O6 O 0.3885(9) 0.3826(6) -0.0189(6)
loop_
_geom_bond_atom_site_label_1
_geom_bond_atom_site_label_2
_geom_bond_site_symmetry_1
_geom_bond_site_symmetry_2
Ag1 C1 1_555 1_555
Ag2 C18 1_555 1_555
C1 N1 1_555 1_555
C2 H1 1_555 1_555
C3 C2 1_555 1_555
H2 C3 1_555 1_555
C4 H3 1_555 1_555
H4 C4 1_555 1_555
C5 C4 1_555 1_555
C6 C5 1_555 1_555
H5 C6 1_555 1_555
C7 C6 1_555 1_555
H6 C7 1_555 1_555
C8 C7 1_555 1_555
H7 C8 1_555 1_555
C9 C8 1_555 1_555
H8 C9 1_555 1_555
C10 C5 1_555 1_555
H9 C10 1_555 1_555
C11 H10 1_555 1_555
H11 C11 1_555 1_555
C12 C11 1_555 1_555
H12 C12 1_555 1_555
H13 C12 1_555 1_555
C13 C14 1_555 1_555
C14 H14 1_555 1_555
H15 C14 1_555 1_555
H16 C14 1_555 1_555
C15 C13 1_555 1_555
H17 C15 1_555 1_555
C16 C15 1_555 1_555
C17 C16 1_555 1_555
H18 C17 1_555 1_555
H19 C17 1_555 1_555
H20 C17 1_555 1_555
C18 N5 1_555 1_555
C19 H21 1_555 1_555
C20 C19 1_555 1_555
H22 C20 1_555 1_555
C21 H23 1_555 1_555
H24 C21 1_555 1_555
C22 C21 1_555 1_555
C23 C22 1_555 1_555
H25 C23 1_555 1_555
C24 C23 1_555 1_555
H26 C24 1_555 1_555
C25 C24 1_555 1_555
H27 C25 1_555 1_555
C26 C25 1_555 1_555
H28 C26 1_555 1_555
C27 C22 1_555 1_555
H29 C27 1_555 1_555
C28 H30 1_555 1_555
H31 C28 1_555 1_555
C29 C28 1_555 1_555
H32 C29 1_555 1_555
H33 C29 1_555 1_555
C30 H34 1_555 1_555
H35 C30 1_555 1_555
H36 C30 1_555 1_555
C31 C30 1_555 1_555
C32 C31 1_555 1_555
H37 C32 1_555 1_555
C33 C32 1_555 1_555
C34 C33 1_555 1_555
H38 C34 1_555 1_555
H39 C34 1_555 1_555
H40 C34 1_555 1_555
N1 C2 1_555 1_555
N2 C1 1_555 1_555
N3 C12 1_555 1_555
N4 C16 1_555 1_555
N5 C20 1_555 1_555
N6 C18 1_555 1_555
N7 C29 1_555 1_555
N8 Ag1 1_555 1_555
N9 O1 1_555 1_555
N10 O4 1_555 1_555
O2 N9 1_555 1_555
O3 N9 1_555 1_555
O5 N10 1_555 1_555
O6 N10 1_555 1_555
Ag2_2 N4 1_555 1_555
N4_2 Ag2 1_555 1_555
C3 N2 1_555 1_555
C4 N1 1_555 1_555
C9 C10 1_555 1_555
C11 N2 1_555 1_555
C13 N3 1_555 1_555
C19 N6 1_555 1_555
C21 N6 1_555 1_555
C26 C27 1_555 1_555
C28 N5 1_555 1_555
C31 N8 1_555 1_555
C33 N7 1_555 1_555
N3 N4 1_555 1_555
N7 N8 1_555 1_555

#END
