
#######################################################################
#
#                 Cambridge Crystallographic Data Centre
#                                CCDC 
#
#######################################################################
#
# If this CIF has been generated from an entry in the Cambridge 
# Structural Database, then it will include bibliographic, chemical, 
# crystal, experimental, refinement or atomic coordinate data resulting 
# from the CCDC's data processing and validation procedures.
#
#######################################################################

data_OCIREY
_symmetry_cell_setting           triclinic
_symmetry_space_group_name_H-M   'P -1'
_symmetry_Int_Tables_number      2
_space_group_name_Hall           '-P 1'
loop_
_symmetry_equiv_pos_site_id
_symmetry_equiv_pos_as_xyz
1 x,y,z
2 -x,-y,-z
_cell_length_a                   8.6789(10)
_cell_length_b                   9.3860(11)
_cell_length_c                   13.8299(16)
_cell_angle_alpha                84.90
_cell_angle_beta                 77.94
_cell_angle_gamma                73.81
_cell_volume                     1057.47
loop_
_atom_site_label
_atom_site_type_symbol
_atom_site_fract_x
_atom_site_fract_y
_atom_site_fract_z
Er1 Er 0.326786(18) 0.945006(18) 0.915556(13)
N1 N -0.2704(5) 1.4949(5) 0.6164(4)
N2 N -0.1929(5) 0.3994(5) 1.2283(4)
O1 O 0.2325(4) 0.9961(4) 0.7731(2)
O2 O 0.2710(4) 1.1389(5) 0.6384(3)
O3 O -0.3520(4) 1.0156(3) 0.9293(2)
O4 O -0.5392(3) 1.1241(3) 0.8396(2)
O5 O -0.4068(6) 1.5231(6) 0.5979(4)
O6 O -0.1769(6) 1.5700(5) 0.5869(5)
O7 O 0.1480(3) 0.8076(3) 0.9601(2)
O8 O -0.1120(3) 0.8614(3) 1.0348(2)
O9 O 0.5055(3) 0.2866(3) 1.0304(2)
O10 O 0.4355(4) 0.2047(3) 1.1823(2)
O11 O -0.1711(6) 0.2974(6) 1.2880(4)
O12 O -0.3264(4) 0.4558(5) 1.2056(4)
C1 C 0.1834(5) 1.0955(5) 0.7116(3)
C2 C 0.0017(5) 1.1685(5) 0.7230(3)
C3 C -0.1111(5) 1.1077(5) 0.7873(3)
H1 H -0.0749 1.0244 0.8266
C4 C -0.2777(5) 1.1709(4) 0.7931(3)
C5 C -0.3320(5) 1.2983(5) 0.7365(3)
H2 H -0.4431 1.3410 0.7388
C6 C -0.2169(5) 1.3593(5) 0.6771(4)
C7 C -0.0504(5) 1.2972(5) 0.6678(3)
H3 H 0.0241 1.3403 0.6259
C8 C -0.3993(5) 1.1009(4) 0.8598(3)
C9 C 0.0281(5) 0.7773(4) 1.0173(3)
C10 C 0.0547(5) 0.6274(4) 1.0689(3)
C11 C 0.2117(5) 0.5323(4) 1.0631(3)
H4 H 0.3009 0.5595 1.0243
C12 C 0.2346(5) 0.3962(4) 1.1157(3)
C13 C 0.1029(5) 0.3555(5) 1.1728(3)
H5 H 0.1179 0.2669 1.2100
C14 C -0.0523(5) 0.4482(5) 1.1741(4)
C15 C -0.0784(5) 0.5847(5) 1.1241(3)
H6 H -0.1836 0.6465 1.1275
C16 C 0.4021(5) 0.2921(4) 1.1092(3)
Er1A Er -0.326786(18) 1.054994(18) 1.084444(13)
Er1_2 Er -0.673214(18) 0.945006(18) 0.915556(13)
Er1A_2 Er 0.673214(18) 0.054994(18) 1.084444(13)
Er1A_3 Er 0.673214(18) 1.054994(18) 1.084444(13)
Er1_3 Er -0.673214(18) 1.945006(18) 0.915556(13)
N1A N 0.2704(5) 0.5051(5) 1.3836(4)
N2A N 0.1929(5) 1.6006(5) 0.7717(4)
O1A O -0.2325(4) 1.0039(4) 1.2269(2)
O2A O -0.2710(4) 0.8611(5) 1.3616(3)
O3A O 0.3520(4) 0.9844(3) 1.0707(2)
O4A O 0.5392(3) 0.8759(3) 1.1604(2)
O4_2 O 0.4608(3) 1.1241(3) 0.8396(2)
O4A_2 O -0.4608(3) 0.8759(3) 1.1604(2)
O5A O 0.4068(6) 0.4769(6) 1.4021(4)
O6A O 0.1769(6) 0.4300(5) 1.4131(5)
O7A O -0.1480(3) 1.1924(3) 1.0399(2)
O8A O 0.1120(3) 1.1386(3) 0.9652(2)
O9A O -0.5055(3) 1.7134(3) 0.9696(2)
O9A_2 O 0.4945(3) 0.7134(3) 0.9696(2)
O9_2 O -0.4945(3) 1.2866(3) 1.0304(2)
O10A O -0.4355(4) 1.7953(3) 0.8177(2)
O10A_2 O 0.5645(4) 0.7953(3) 0.8177(2)
O10_2 O -0.5645(4) 1.2047(3) 1.1823(2)
O11A O 0.1711(6) 1.7026(6) 0.7120(4)
O12A O 0.3264(4) 1.5442(5) 0.7944(4)
C1A C -0.1834(5) 0.9045(5) 1.2884(3)
C2A C -0.0017(5) 0.8315(5) 1.2770(3)
C3A C 0.1111(5) 0.8923(5) 1.2127(3)
H1A H 0.0749 0.9756 1.1734
C4A C 0.2777(5) 0.8291(4) 1.2069(3)
C5A C 0.3320(5) 0.7017(5) 1.2635(3)
H2A H 0.4431 0.6590 1.2612
C6A C 0.2169(5) 0.6407(5) 1.3229(4)
C7A C 0.0504(5) 0.7028(5) 1.3322(3)
H3A H -0.0241 0.6597 1.3741
C8A C 0.3993(5) 0.8991(4) 1.1402(3)
C9A C -0.0281(5) 1.2227(4) 0.9827(3)
C10A C -0.0547(5) 1.3726(4) 0.9311(3)
C11A C -0.2117(5) 1.4677(4) 0.9369(3)
H4A H -0.3009 1.4405 0.9757
C12A C -0.2346(5) 1.6038(4) 0.8843(3)
C13A C -0.1029(5) 1.6445(5) 0.8272(3)
H5A H -0.1179 1.7331 0.7900
C14A C 0.0523(5) 1.5518(5) 0.8259(4)
C15A C 0.0784(5) 1.4153(5) 0.8759(3)
H6A H 0.1836 1.3535 0.8725
C16A C -0.4021(5) 1.7079(4) 0.8908(3)
N3 N 0.4195(4) 0.9420(5) 0.4133(3)
H7 H 0.5228 0.9259 0.3906
C17 C 0.3186(6) 1.0659(6) 0.3858(4)
H8 H 0.3597 1.1358 0.3444
C18 C 0.1526(6) 1.0907(6) 0.4189(4)
H9 H 0.0817 1.1771 0.3989
C19 C 0.0904(5) 0.9882(5) 0.4815(3)
C20 C 0.2011(6) 0.8616(6) 0.5091(4)
H10 H 0.1644 0.7896 0.5508
C21 C 0.3658(6) 0.8433(7) 0.4743(4)
H11 H 0.4403 0.7595 0.4942
N3A N -0.4195(4) 1.0580(5) 0.5867(3)
H7A H -0.5228 1.0741 0.6094
C17A C -0.3186(6) 0.9341(6) 0.6142(4)
H8A H -0.3597 0.8642 0.6556
C18A C -0.1526(6) 0.9093(6) 0.5811(4)
H9A H -0.0817 0.8229 0.6011
C19A C -0.0904(5) 1.0118(5) 0.5185(3)
C20A C -0.2011(6) 1.1384(6) 0.4909(4)
H10A H -0.1644 1.2104 0.4492
C21A C -0.3658(6) 1.1567(7) 0.5257(4)
H11A H -0.4403 1.2405 0.5058
loop_
_geom_bond_atom_site_label_1
_geom_bond_atom_site_label_2
_geom_bond_site_symmetry_1
_geom_bond_site_symmetry_2
Er1 O1 1_555 1_555
N1 O5 1_555 1_555
N2 O11 1_555 1_555
O1 C1 1_555 1_555
O2 C1 1_555 1_555
O3 C8 1_555 1_555
O4 C8 1_555 1_555
O6 N1 1_555 1_555
O7 Er1 1_555 1_555
O8 C9 1_555 1_555
O9 C16 1_555 1_555
O10 C16 1_555 1_555
O12 N2 1_555 1_555
C1 C2 1_555 1_555
C2 C3 1_555 1_555
C3 H1 1_555 1_555
C4 C3 1_555 1_555
C5 C4 1_555 1_555
H2 C5 1_555 1_555
C6 N1 1_555 1_555
C7 C2 1_555 1_555
H3 C7 1_555 1_555
C8 C4 1_555 1_555
C9 O7 1_555 1_555
C10 C9 1_555 1_555
C11 C10 1_555 1_555
H4 C11 1_555 1_555
C12 C11 1_555 1_555
C13 C12 1_555 1_555
H5 C13 1_555 1_555
C14 N2 1_555 1_555
C15 C10 1_555 1_555
H6 C15 1_555 1_555
C16 C12 1_555 1_555
N3 H7 1_555 1_555
C17 N3 1_555 1_555
H8 C17 1_555 1_555
C18 C17 1_555 1_555
H9 C18 1_555 1_555
C19 C18 1_555 1_555
C20 C19 1_555 1_555
H10 C20 1_555 1_555
C21 N3 1_555 1_555
H11 C21 1_555 1_555
Er1A O3 1_555 1_555
Er1_2 O4 1_555 1_555
Er1A_2 O9 1_555 1_555
Er1A_3 O4A 1_555 1_555
Er1_3 O9A 1_555 1_555
N1A O5A 1_555 1_555
N2A O11A 1_555 1_555
O1A Er1A 1_555 1_555
O2A C1A 1_555 1_555
O3A Er1 1_555 1_555
O4A C8A 1_555 1_555
O4_2 Er1 1_555 1_555
O4A_2 Er1A 1_555 1_555
O6A N1A 1_555 1_555
O7A Er1A 1_555 1_555
O8A Er1 1_555 1_555
O9A C16A 1_555 1_555
O9A_2 Er1 1_555 1_555
O9_2 Er1A 1_555 1_555
O10A Er1_3 1_555 1_555
O10A_2 Er1 1_555 1_555
O10_2 Er1A 1_555 1_555
O12A N2A 1_555 1_555
C1A O1A 1_555 1_555
C2A C1A 1_555 1_555
C3A C2A 1_555 1_555
H1A C3A 1_555 1_555
C4A C3A 1_555 1_555
C5A C4A 1_555 1_555
H2A C5A 1_555 1_555
C6A N1A 1_555 1_555
C7A C2A 1_555 1_555
H3A C7A 1_555 1_555
C8A O3A 1_555 1_555
C9A O7A 1_555 1_555
C10A C9A 1_555 1_555
C11A C10A 1_555 1_555
H4A C11A 1_555 1_555
C12A C11A 1_555 1_555
C13A C12A 1_555 1_555
H5A C13A 1_555 1_555
C14A N2A 1_555 1_555
C15A C10A 1_555 1_555
H6A C15A 1_555 1_555
C16A O10A 1_555 1_555
N3A H7A 1_555 1_555
C17A N3A 1_555 1_555
H8A C17A 1_555 1_555
C18A C17A 1_555 1_555
H9A C18A 1_555 1_555
C19A C19 1_555 1_555
C20A C19A 1_555 1_555
H10A C20A 1_555 1_555
C21A N3A 1_555 1_555
H11A C21A 1_555 1_555
O8 Er1A 1_555 1_555
O10 Er1A_2 1_555 1_555
C5 C6 1_555 1_555
C6 C7 1_555 1_555
C13 C14 1_555 1_555
C14 C15 1_555 1_555
C20 C21 1_555 1_555
O8A C9A 1_555 1_555
C4A C8A 1_555 1_555
C5A C6A 1_555 1_555
C6A C7A 1_555 1_555
C12A C16A 1_555 1_555
C13A C14A 1_555 1_555
C14A C15A 1_555 1_555
C18A C19A 1_555 1_555
C20A C21A 1_555 1_555

#END
