
#######################################################################
#
#                 Cambridge Crystallographic Data Centre
#                                CCDC 
#
#######################################################################
#
# If this CIF has been generated from an entry in the Cambridge 
# Structural Database, then it will include bibliographic, chemical, 
# crystal, experimental, refinement or atomic coordinate data resulting 
# from the CCDC's data processing and validation procedures.
#
#######################################################################

data_OCITOL03
_symmetry_cell_setting           monoclinic
_symmetry_space_group_name_H-M   'C 2/m'
_symmetry_Int_Tables_number      12
_space_group_name_Hall           '-C 2y'
loop_
_symmetry_equiv_pos_site_id
_symmetry_equiv_pos_as_xyz
1 x,y,z
2 -x,y,-z
3 1/2+x,1/2+y,z
4 1/2-x,1/2+y,-z
5 -x,-y,-z
6 x,-y,z
7 1/2-x,1/2-y,-z
8 1/2+x,1/2-y,z
_cell_length_a                   13.1229(4)
_cell_length_b                   6.9476(2)
_cell_length_c                   9.7058(3)
_cell_angle_alpha                90
_cell_angle_beta                 107.467(2)
_cell_angle_gamma                90
_cell_volume                     844.101
loop_
_atom_site_label
_atom_site_type_symbol
_atom_site_fract_x
_atom_site_fract_y
_atom_site_fract_z
Cu1 Cu 0.45737(2) 0.0000 0.65670(3)
Cl1 Cl 0.37404(4) 0.0000 0.37071(6)
Cl2 Cl 0.31807(5) 0.0000 0.74453(6)
C1 C 0.39339(13) 0.3983(2) 0.56366(18)
H1 H 0.3451 0.3336 0.4879
C2 C 0.52571(12) 0.3974(2) 0.78195(17)
N1 N 0.45966(10) 0.2972(2) 0.66757(14)
C3 C 0.65234(13) 0.3987(2) 1.02048(18)
H2 H 0.6943 0.3323 1.1007
C4 C 0.59113(13) 0.2985(2) 0.90331(17)
H3 H 0.5927 0.1647 0.9037
Cu1A Cu 0.54263(2) 0.0000 0.34330(3)
Cu1_2 Cu 0.45737(2) 1.0000 0.65670(3)
Cl1A Cl 0.62596(4) 0.0000 0.62929(6)
C1E C 0.39339(13) 0.6017(2) 0.56366(18)
H1E H 0.3451 0.6664 0.4879
C2E C 0.52571(12) 0.6026(2) 0.78195(17)
N1E N 0.45966(10) 0.7028(2) 0.66757(14)
N1E_2 N 0.45966(10) -0.2972(2) 0.66757(14)
C3E C 0.65234(13) 0.6013(2) 1.02048(18)
H2E H 0.6943 0.6677 1.1007
C4E C 0.59113(13) 0.7015(2) 0.90331(17)
H3E H 0.5927 0.8353 0.9037
loop_
_geom_bond_atom_site_label_1
_geom_bond_atom_site_label_2
_geom_bond_site_symmetry_1
_geom_bond_site_symmetry_2
Cu1 Cl1 1_555 1_555
Cl1 Cu1A 1_555 1_555
Cl2 Cu1 1_555 1_555
C1 H1 1_555 1_555
C2 N1 1_555 1_555
N1 Cu1 1_555 1_555
C3 H2 1_555 1_555
C4 C2 1_555 1_555
H3 C4 1_555 1_555
Cu1A Cl1A 1_555 1_555
Cu1_2 N1E 1_555 1_555
Cl1A Cu1 1_555 1_555
C1E C1 1_555 1_555
H1E C1E 1_555 1_555
C2E C2 1_555 1_555
N1E C1E 1_555 1_555
N1E_2 Cu1 1_555 1_555
C3E C3 1_555 1_555
H2E C3E 1_555 1_555
C4E C2E 1_555 1_555
H3E C4E 1_555 1_555
C1 N1 1_555 1_555
C3 C4 1_555 1_555
C2E N1E 1_555 1_555
C3E C4E 1_555 1_555

#END
