
#######################################################################
#
#                 Cambridge Crystallographic Data Centre
#                                CCDC 
#
#######################################################################
#
# If this CIF has been generated from an entry in the Cambridge 
# Structural Database, then it will include bibliographic, chemical, 
# crystal, experimental, refinement or atomic coordinate data resulting 
# from the CCDC's data processing and validation procedures.
#
#######################################################################

data_OCIXUU
_symmetry_cell_setting           rhombohedral
_symmetry_space_group_name_H-M   'R -3 c'
_symmetry_Int_Tables_number      167
_space_group_name_Hall           '-R 3 2"c'
loop_
_symmetry_equiv_pos_site_id
_symmetry_equiv_pos_as_xyz
1 x,y,z
2 -y,x-y,z
3 -x+y,-x,z
4 y,x,1/2-z
5 2/3+x,1/3+y,1/3+z
6 2/3-y,1/3+x-y,1/3+z
7 2/3-x+y,1/3-x,1/3+z
8 2/3+y,1/3+x,5/6-z
9 1/3+x,2/3+y,2/3+z
10 1/3+y,2/3+x,1/6-z
11 x-y,-y,1/2-z
12 -x,-x+y,1/2-z
13 1/3-y,2/3+x-y,2/3+z
14 1/3-x+y,2/3-x,2/3+z
15 1/3+x-y,2/3-y,1/6-z
16 1/3-x,2/3-x+y,1/6-z
17 2/3+x-y,1/3-y,5/6-z
18 2/3-x,1/3-x+y,5/6-z
19 -x,-y,-z
20 y,-x+y,-z
21 x-y,x,-z
22 -y,-x,1/2+z
23 1/3-x,2/3-y,2/3-z
24 1/3+y,2/3-x+y,2/3-z
25 1/3+x-y,2/3+x,2/3-z
26 1/3-y,2/3-x,1/6+z
27 2/3-x,1/3-y,1/3-z
28 2/3-y,1/3-x,5/6+z
29 -x+y,y,1/2+z
30 x,x-y,1/2+z
31 2/3+y,1/3-x+y,1/3-z
32 2/3+x-y,1/3+x,1/3-z
33 2/3-x+y,1/3+y,5/6+z
34 2/3+x,1/3+x-y,5/6+z
35 1/3-x+y,2/3+y,1/6+z
36 1/3+x,2/3+x-y,1/6+z
_cell_length_a                   14.787(4)
_cell_length_b                   14.787(4)
_cell_length_c                   31.231(11)
_cell_angle_alpha                90
_cell_angle_beta                 90
_cell_angle_gamma                120.00
_cell_volume                     5913.94
loop_
_atom_site_label
_atom_site_type_symbol
_atom_site_fract_x
_atom_site_fract_y
_atom_site_fract_z
Ni1 Ni 0.10257(5) 0.92821(5) 0.031055(19)
O1 O 0.1386(3) 1.0808(2) 0.03365(10)
O2 O 0.1226(3) 0.9186(3) 0.09741(12)
O3 O 0.0833(3) 0.7799(3) 0.02853(13)
O4 O -0.0226(3) 0.7164(3) -0.02752(12)
C1 C 0.0326(4) 0.7103(4) 0.00152(19)
C2 C 0.0383(5) 0.6116(5) 0.0053(2)
H1 H 0.1014 0.6293 0.0217
C3 C -0.0499(9) 0.5335(6) 0.0300(3)
H2 H -0.1141 0.5180 0.0155
H3 H -0.0500 0.5625 0.0578
C4 C 0.0484(9) 0.5686(6) -0.0364(3)
H4 H 0.1123 0.6193 -0.0504
H5 H -0.0098 0.5558 -0.0547
Ni1B Ni -0.17436(7) 0.89743(5) 0.031055(19)
Ni1S Ni -0.07179(5) 0.82564(7) -0.031055(19)
Ni1A Ni 0.07179(5) 1.17436(7) 0.031055(19)
Ni1T Ni 0.17436(7) 1.10257(5) -0.031055(19)
Ni1R Ni -0.10257(5) 0.07179(5) -0.031055(19)
Ni1A_2 Ni 0.07179(5) 0.17436(7) 0.031055(19)
Ni1B_2 Ni 0.82564(7) 0.89743(5) 0.031055(19)
Ni1R_2 Ni 0.89743(5) 1.07179(5) -0.031055(19)
Ni1R_3 Ni -0.10257(5) 1.07179(5) -0.031055(19)
Ni1T_2 Ni -0.82564(7) 1.10257(5) -0.031055(19)
Ni1_2 Ni -0.89743(5) 0.92821(5) 0.031055(19)
O1B O -0.0578(4) 0.8614(3) 0.03365(10)
O1S O 0.0808(2) 0.9422(4) -0.03365(10)
O1A O -0.0808(2) 1.0578(4) 0.03365(10)
O1R O -0.1386(3) 0.9192(2) -0.03365(10)
O1T O 0.0578(4) 1.1386(3) -0.03365(10)
O1A_2 O -0.0808(2) 0.0578(4) 0.03365(10)
O1R_2 O -0.1386(3) -0.0808(2) -0.03365(10)
O1T_2 O 0.0578(4) 0.1386(3) -0.03365(10)
O2B O -0.2040(4) 0.8774(3) 0.09741(12)
O2S O -0.0814(3) 0.7960(4) -0.09741(12)
O2A O 0.0814(3) 1.2040(4) 0.09741(12)
O2T O 0.2040(4) 1.1226(3) -0.09741(12)
O2R O -0.1226(3) 0.0814(3) -0.09741(12)
O3R O -0.0833(3) 0.2201(3) -0.02853(13)
O3T O 0.3034(4) 1.0833(3) -0.02853(13)
O3B O 0.6966(4) 0.9167(3) 0.02853(13)
O3B_2 O -0.3034(4) 0.9167(3) 0.02853(13)
O3T_2 O -0.6966(4) 1.0833(3) -0.02853(13)
O3S O -0.2201(3) 0.6966(4) -0.02853(13)
O3A O 0.2201(3) 1.3034(4) 0.02853(13)
O4R O 0.0226(3) 0.2836(3) 0.02752(12)
O4T O 0.2610(4) 0.9774(3) 0.02752(12)
O4B O 0.7390(4) 1.0226(3) -0.02752(12)
O4B_2 O -0.2610(4) 1.0226(3) -0.02752(12)
O4T_2 O -0.7390(4) 0.9774(3) 0.02752(12)
O4S O -0.2836(3) 0.7390(4) 0.02752(12)
O4R_2 O 0.0226(3) 1.2836(3) 0.02752(12)
O4A O 0.2836(3) 1.2610(4) -0.02752(12)
O4B_3 O -0.2610(4) 0.0226(3) -0.02752(12)
C1R C -0.0326(4) 0.2897(4) -0.00152(19)
C1T C 0.3223(6) 1.0326(4) -0.00152(19)
C1B C 0.6777(6) 0.9674(4) 0.00152(19)
C1B_2 C -0.3223(6) 0.9674(4) 0.00152(19)
C1T_2 C -0.6777(6) 1.0326(4) -0.00152(19)
C2R C -0.0383(5) 0.3884(5) -0.0053(2)
C2T C 0.4267(7) 1.0383(5) -0.0053(2)
C2B C 0.5733(7) 0.9617(5) 0.0053(2)
C2B_2 C -0.4267(7) 0.9617(5) 0.0053(2)
C2T_2 C -0.5733(7) 1.0383(5) -0.0053(2)
H1R H -0.1014 0.3707 -0.0217
H1T H 0.4721 1.1014 -0.0217
H1B H 0.5279 0.8986 0.0217
H1B_2 H -0.4721 0.8986 0.0217
H1T_2 H -0.5279 1.1014 -0.0217
C3R C 0.0499(9) 0.4665(6) -0.0300(3)
C3T C 0.4166(11) 0.9501(9) -0.0300(3)
C3B C 0.5834(11) 1.0499(9) 0.0300(3)
C3B_2 C -0.4166(11) 1.0499(9) 0.0300(3)
C3T_2 C -0.5834(11) 0.9501(9) -0.0300(3)
H2R H 0.1141 0.4820 -0.0155
H2T H 0.3679 0.8859 -0.0155
H2B H 0.6321 1.1141 0.0155
H2B_2 H -0.3679 1.1141 0.0155
H2T_2 H -0.6321 0.8859 -0.0155
H3R H 0.0500 0.4375 -0.0578
H3T H 0.3875 0.9500 -0.0578
H3B H 0.6125 1.0500 0.0578
H3B_2 H -0.3875 1.0500 0.0578
H3T_2 H -0.6125 0.9500 -0.0578
C4R C -0.0484(9) 0.4314(6) 0.0364(3)
C4T C 0.4798(11) 1.0484(9) 0.0364(3)
C4B C 0.5202(11) 0.9516(9) -0.0364(3)
C4B_2 C -0.4798(11) 0.9516(9) -0.0364(3)
C4T_2 C -0.5202(11) 1.0484(9) 0.0364(3)
H4R H -0.1123 0.3807 0.0504
H4T H 0.4930 1.1123 0.0504
H4B H 0.5070 0.8877 -0.0504
H4B_2 H -0.4930 0.8877 -0.0504
H4T_2 H -0.5070 1.1123 0.0504
H5R H 0.0098 0.4442 0.0547
H5T H 0.4344 0.9902 0.0547
H5B H 0.5656 1.0098 -0.0547
H5B_2 H -0.4344 1.0098 -0.0547
H5T_2 H -0.5656 0.9902 0.0547
O5 O 0.0000 0.0000 0.1343(3)
loop_
_geom_bond_atom_site_label_1
_geom_bond_atom_site_label_2
_geom_bond_site_symmetry_1
_geom_bond_site_symmetry_2
Ni1 O1 1_555 1_555
O1 Ni1A 1_555 1_555
O2 Ni1 1_555 1_555
O3 Ni1 1_555 1_555
O4 C1 1_555 1_555
C1 O3 1_555 1_555
C2 C1 1_555 1_555
H1 C2 1_555 1_555
C3 C2 1_555 1_555
H2 C3 1_555 1_555
H3 C3 1_555 1_555
C4 C2 1_555 1_555
H4 C4 1_555 1_555
H5 C4 1_555 1_555
Ni1B O1B 1_555 1_555
Ni1S O4 1_555 1_555
Ni1A O1A 1_555 1_555
Ni1T O1 1_555 1_555
Ni1R O1A_2 1_555 1_555
Ni1A_2 O1A_2 1_555 1_555
Ni1B_2 O3B 1_555 1_555
Ni1R_2 O4B 1_555 1_555
Ni1R_3 O1A 1_555 1_555
Ni1T_2 O3T_2 1_555 1_555
Ni1_2 O4T_2 1_555 1_555
O1B Ni1 1_555 1_555
O1S Ni1 1_555 1_555
O1A Ni1B 1_555 1_555
O1R Ni1B 1_555 1_555
O1T Ni1A 1_555 1_555
O1R_2 Ni1R 1_555 1_555
O1T_2 Ni1R 1_555 1_555
O2B Ni1B 1_555 1_555
O2S Ni1S 1_555 1_555
O2A Ni1A 1_555 1_555
O2T Ni1T 1_555 1_555
O2R Ni1R 1_555 1_555
O3R Ni1R 1_555 1_555
O3T Ni1T 1_555 1_555
O3B C1B 1_555 1_555
O3B_2 Ni1B 1_555 1_555
O3T_2 C1T_2 1_555 1_555
O3S Ni1S 1_555 1_555
O3A Ni1A 1_555 1_555
O4R Ni1A_2 1_555 1_555
O4T Ni1 1_555 1_555
O4B C1B 1_555 1_555
O4B_2 Ni1R_3 1_555 1_555
O4T_2 C1T_2 1_555 1_555
O4S Ni1B 1_555 1_555
O4R_2 Ni1A 1_555 1_555
O4A Ni1T 1_555 1_555
O4B_3 Ni1R 1_555 1_555
C1R O3R 1_555 1_555
C1T O3T 1_555 1_555
C1B C2B 1_555 1_555
C1B_2 O3B_2 1_555 1_555
C1T_2 C2T_2 1_555 1_555
C2R C1R 1_555 1_555
C2T C1T 1_555 1_555
C2B H1B 1_555 1_555
C2B_2 C1B_2 1_555 1_555
C2T_2 H1T_2 1_555 1_555
H1R C2R 1_555 1_555
H1T C2T 1_555 1_555
H1B_2 C2B_2 1_555 1_555
C3R C4 1_555 1_555
C3T C2T 1_555 1_555
C3B C2B 1_555 1_555
C3B_2 C2B_2 1_555 1_555
C3T_2 C2T_2 1_555 1_555
H2R C3R 1_555 1_555
H2T C3T 1_555 1_555
H2B C3B 1_555 1_555
H2B_2 C3B_2 1_555 1_555
H2T_2 C3T_2 1_555 1_555
H3R C3R 1_555 1_555
H3T C3T 1_555 1_555
H3B C3B 1_555 1_555
H3B_2 C3B_2 1_555 1_555
H3T_2 C3T_2 1_555 1_555
C4R C3 1_555 1_555
C4T C2T 1_555 1_555
C4B C2B 1_555 1_555
C4B_2 C2B_2 1_555 1_555
C4T_2 C2T_2 1_555 1_555
H4R C4R 1_555 1_555
H4T C4T 1_555 1_555
H4B C4B 1_555 1_555
H4B_2 C4B_2 1_555 1_555
H4T_2 C4T_2 1_555 1_555
H5R C4R 1_555 1_555
H5T C4T 1_555 1_555
H5B C4B 1_555 1_555
H5B_2 C4B_2 1_555 1_555
H5T_2 C4T_2 1_555 1_555
Ni1S O1B 1_555 1_555
Ni1S O1S 1_555 1_555
Ni1S O1R 1_555 1_555
Ni1T O1S 1_555 1_555
Ni1T O1T 1_555 1_555
Ni1A_2 O1T_2 1_555 1_555
Ni1R_3 O1R 1_555 1_555
Ni1R_3 O1T 1_555 1_555
O4R C1R 1_555 1_555
O4T C1T 1_555 1_555
O4B_2 C1B_2 1_555 1_555
C2R C3R 1_555 1_555
C2R C4R 1_555 1_555
C3T C4B 1_555 1_555
C3B C4T 1_555 1_555
C3B_2 C4T_2 1_555 1_555
C3T_2 C4B_2 1_555 1_555

#END
