
#######################################################################
#
#                 Cambridge Crystallographic Data Centre
#                                CCDC 
#
#######################################################################
#
# If this CIF has been generated from an entry in the Cambridge 
# Structural Database, then it will include bibliographic, chemical, 
# crystal, experimental, refinement or atomic coordinate data resulting 
# from the CCDC's data processing and validation procedures.
#
#######################################################################

data_OCIZIK
_symmetry_cell_setting           monoclinic
_symmetry_space_group_name_H-M   'P 21/c'
_symmetry_Int_Tables_number      14
_space_group_name_Hall           '-P 2ybc'
loop_
_symmetry_equiv_pos_site_id
_symmetry_equiv_pos_as_xyz
1 x,y,z
2 -x,1/2+y,1/2-z
3 -x,-y,-z
4 x,1/2-y,1/2+z
_cell_length_a                   25.475(16)
_cell_length_b                   10.032(6)
_cell_length_c                   12.627(8)
_cell_angle_alpha                90
_cell_angle_beta                 92.220(8)
_cell_angle_gamma                90
_cell_volume                     3224.6
loop_
_atom_site_label
_atom_site_type_symbol
_atom_site_fract_x
_atom_site_fract_y
_atom_site_fract_z
Cd1 Cd 0.744046(9) 0.78268(2) 0.535890(16)
O1 O 0.74293(10) 1.01459(17) 0.54304(17)
O2 O 0.74788(10) 0.92180(19) 0.69782(16)
O3 O 0.76311(8) 1.63153(18) 0.66884(14)
O4 O 0.74723(9) 1.51989(16) 0.52083(15)
O5 O 0.72009(7) 0.76879(17) 0.35309(13)
H1 H 0.7358 0.8180 0.3096
H2 H 0.7209 0.6864 0.3374
O6 O 0.97975(9) 0.46565(19) 0.35228(17)
O7 O 1.02885(9) 0.8950(2) 0.43666(16)
O8 O 0.45772(9) 0.8996(2) 0.58154(17)
O9 O 0.49704(9) 0.4571(2) 0.64281(17)
N1 N 1.02940(9) 0.7751(2) 0.40308(17)
N2 N 1.00565(10) 0.5741(2) 0.35772(18)
N3 N 0.83056(10) 0.7717(2) 0.47495(18)
N4 N 0.65357(9) 0.7558(2) 0.55760(19)
N5 N 0.45393(9) 0.7768(3) 0.60700(18)
N6 N 0.47293(10) 0.5690(2) 0.64138(19)
C1 C 1.04741(13) 0.6161(3) 0.1933(2)
H3 H 1.0271 0.5442 0.1629
H4 H 1.0800 0.6231 0.1581
H5 H 1.0282 0.6980 0.1849
C2 C 1.08960(13) 0.4612(3) 0.3251(2)
H6 H 1.0931 0.4402 0.3992
H7 H 1.1238 0.4725 0.2971
H8 H 1.0716 0.3899 0.2882
C3 C 1.05840(12) 0.5894(3) 0.3104(2)
C4 C 1.07995(11) 0.7111(3) 0.3736(2)
C5 C 1.10937(12) 0.6759(3) 0.4770(2)
H9 H 1.1164 0.7557 0.5170
H10 H 1.1420 0.6332 0.4618
H11 H 1.0884 0.6165 0.5173
C6 C 1.11144(13) 0.8074(3) 0.3092(2)
H12 H 1.0892 0.8455 0.2541
H13 H 1.1399 0.7607 0.2781
H14 H 1.1252 0.8770 0.3544
C7 C 0.98836(12) 0.6916(3) 0.3972(2)
C8 C 0.93510(11) 0.7210(3) 0.4235(2)
C9 C 0.92267(13) 0.8200(3) 0.4963(2)
H15 H 0.9489 0.8719 0.5288
C10 C 0.87097(14) 0.8392(3) 0.5189(2)
H16 H 0.8635 0.9041 0.5687
C11 C 0.84314(13) 0.6809(3) 0.4031(2)
H17 H 0.8159 0.6336 0.3694
C12 C 0.89303(13) 0.6526(3) 0.3755(2)
H18 H 0.8990 0.5877 0.3248
C13 C 0.58544(13) 0.6384(3) 0.6413(2)
H19 H 0.5762 0.5729 0.6892
C14 C 0.63688(13) 0.6650(3) 0.6257(2)
H20 H 0.6620 0.6169 0.6650
C15 C 0.61629(13) 0.8254(3) 0.5049(2)
H21 H 0.6268 0.8902 0.4574
C16 C 0.56358(12) 0.8073(3) 0.5164(2)
H22 H 0.5392 0.8596 0.4787
C17 C 0.54712(12) 0.7093(3) 0.5857(2)
C18 C 0.49262(12) 0.6858(3) 0.6065(2)
C19 C 0.40237(12) 0.7170(3) 0.6359(2)
C20 C 0.37124(14) 0.6910(3) 0.5331(2)
H23 H 0.3634 0.7742 0.4984
H24 H 0.3391 0.6461 0.5481
H25 H 0.3916 0.6362 0.4877
C21 C 0.37309(13) 0.8137(3) 0.7045(3)
H26 H 0.3961 0.8442 0.7615
H27 H 0.3433 0.7697 0.7330
H28 H 0.3614 0.8885 0.6624
C22 C 0.42192(13) 0.5882(3) 0.6927(2)
C23 C 0.43600(14) 0.6074(3) 0.8099(2)
H29 H 0.4564 0.5327 0.8355
H30 H 0.4044 0.6138 0.8486
H31 H 0.4561 0.6877 0.8195
C24 C 0.38667(13) 0.4677(3) 0.6766(2)
H32 H 0.3827 0.4480 0.6023
H33 H 0.3528 0.4861 0.7042
H34 H 0.4021 0.3925 0.7131
C25 C 0.75657(12) 1.5238(3) 0.6171(2)
C26 C 0.75951(11) 1.3965(3) 0.6819(2)
C27 C 0.77230(12) 1.4014(3) 0.7886(2)
H35 H 0.7795 1.4831 0.8207
C28 C 0.77450(11) 1.2865(3) 0.8487(2)
H36 H 0.7829 1.2910 0.9210
C29 C 0.76418(12) 1.1650(3) 0.8012(2)
H37 H 0.7650 1.0879 0.8421
C30 C 0.75271(11) 1.1564(3) 0.6940(2)
C31 C 0.74664(12) 1.0219(3) 0.6408(3)
C32 C 0.74958(10) 1.2741(3) 0.6342(2)
H38 H 0.7408 1.2701 0.5621
Cd1_2 Cd 0.744046(9) 1.78268(2) 0.535890(16)
O3_2 O 0.76311(8) 0.63153(18) 0.66884(14)
O4_2 O 0.74723(9) 0.51989(16) 0.52083(15)
loop_
_geom_bond_atom_site_label_1
_geom_bond_atom_site_label_2
_geom_bond_site_symmetry_1
_geom_bond_site_symmetry_2
Cd1 O1 1_555 1_555
O1 C31 1_555 1_555
O2 Cd1 1_555 1_555
O3 C25 1_555 1_555
O4 C25 1_555 1_555
O5 Cd1 1_555 1_555
H1 O5 1_555 1_555
H2 O5 1_555 1_555
O6 N2 1_555 1_555
O7 N1 1_555 1_555
O8 N5 1_555 1_555
O9 N6 1_555 1_555
N1 C4 1_555 1_555
N2 C3 1_555 1_555
N3 Cd1 1_555 1_555
N4 Cd1 1_555 1_555
N5 C18 1_555 1_555
N6 C18 1_555 1_555
C1 H3 1_555 1_555
H4 C1 1_555 1_555
H5 C1 1_555 1_555
C2 H6 1_555 1_555
H7 C2 1_555 1_555
H8 C2 1_555 1_555
C3 C1 1_555 1_555
C4 C3 1_555 1_555
C5 C4 1_555 1_555
H9 C5 1_555 1_555
H10 C5 1_555 1_555
H11 C5 1_555 1_555
C6 C4 1_555 1_555
H12 C6 1_555 1_555
H13 C6 1_555 1_555
H14 C6 1_555 1_555
C7 N1 1_555 1_555
C8 C7 1_555 1_555
C9 C8 1_555 1_555
H15 C9 1_555 1_555
C10 N3 1_555 1_555
H16 C10 1_555 1_555
C11 N3 1_555 1_555
H17 C11 1_555 1_555
C12 C8 1_555 1_555
H18 C12 1_555 1_555
C13 H19 1_555 1_555
C14 N4 1_555 1_555
H20 C14 1_555 1_555
C15 N4 1_555 1_555
H21 C15 1_555 1_555
C16 C15 1_555 1_555
H22 C16 1_555 1_555
C17 C13 1_555 1_555
C18 C17 1_555 1_555
C19 N5 1_555 1_555
C20 C19 1_555 1_555
H23 C20 1_555 1_555
H24 C20 1_555 1_555
H25 C20 1_555 1_555
C21 C19 1_555 1_555
H26 C21 1_555 1_555
H27 C21 1_555 1_555
H28 C21 1_555 1_555
C22 N6 1_555 1_555
C23 C22 1_555 1_555
H29 C23 1_555 1_555
H30 C23 1_555 1_555
H31 C23 1_555 1_555
C24 C22 1_555 1_555
H32 C24 1_555 1_555
H33 C24 1_555 1_555
H34 C24 1_555 1_555
C25 C26 1_555 1_555
C26 C27 1_555 1_555
C27 H35 1_555 1_555
C28 C27 1_555 1_555
H36 C28 1_555 1_555
C29 C28 1_555 1_555
H37 C29 1_555 1_555
C30 C29 1_555 1_555
C31 O2 1_555 1_555
C32 C26 1_555 1_555
H38 C32 1_555 1_555
Cd1_2 O3 1_555 1_555
O3_2 Cd1 1_555 1_555
O4_2 Cd1 1_555 1_555
O4 Cd1_2 1_555 1_555
N2 C7 1_555 1_555
C2 C3 1_555 1_555
C9 C10 1_555 1_555
C11 C12 1_555 1_555
C13 C14 1_555 1_555
C16 C17 1_555 1_555
C19 C22 1_555 1_555
C30 C31 1_555 1_555
C30 C32 1_555 1_555

#END
