
#######################################################################
#
#                 Cambridge Crystallographic Data Centre
#                                CCDC 
#
#######################################################################
#
# If this CIF has been generated from an entry in the Cambridge 
# Structural Database, then it will include bibliographic, chemical, 
# crystal, experimental, refinement or atomic coordinate data resulting 
# from the CCDC's data processing and validation procedures.
#
#######################################################################

data_OCOKIC
_symmetry_cell_setting           orthorhombic
_symmetry_space_group_name_H-M   'P 21 21 21'
_symmetry_Int_Tables_number      19
_space_group_name_Hall           'P 2ac 2ab'
loop_
_symmetry_equiv_pos_site_id
_symmetry_equiv_pos_as_xyz
1 x,y,z
2 1/2-x,-y,1/2+z
3 -x,1/2+y,1/2-z
4 1/2+x,1/2-y,-z
_cell_length_a                   6.1943(7)
_cell_length_b                   11.4203(13)
_cell_length_c                   15.7536(18)
_cell_angle_alpha                90
_cell_angle_beta                 90
_cell_angle_gamma                90
_cell_volume                     1114.42
loop_
_atom_site_label
_atom_site_type_symbol
_atom_site_fract_x
_atom_site_fract_y
_atom_site_fract_z
K1 K 0.48244(6) 0.19348(3) 0.58730(2)
Si1 Si 0.87106(7) 0.01864(4) 0.71377(3)
N1 N 0.8080(2) 0.02184(11) 0.60798(7)
B1 B 0.9370(3) 0.10488(16) 0.54855(11)
C1 C 0.7375(3) -0.08318(14) 0.56234(11)
C2 C 0.9216(3) -0.15014(15) 0.52038(12)
C3 C 1.0464(3) -0.07461(15) 0.45777(11)
C4 C 1.1326(3) 0.03539(15) 0.50085(11)
C5 C 0.7750(3) 0.15682(16) 0.76534(12)
C6 C 0.7430(3) -0.10965(16) 0.76794(12)
C7 C 1.1677(3) 0.0099(2) 0.73711(12)
H1 H 0.647(3) -0.0625(16) 0.5151(11)
H2 H 0.821(3) 0.1375(17) 0.4975(13)
H3 H 0.668(3) -0.1374(17) 0.6012(12)
H4 H 0.863(4) -0.2211(19) 0.4922(14)
H5 H 0.999(3) 0.1877(16) 0.5883(11)
H6 H 1.016(3) -0.1734(15) 0.5616(12)
H7 H 0.944(3) -0.0520(17) 0.4148(13)
H8 H 1.154(4) -0.1210(19) 0.4302(14)
H9 H 1.213(3) 0.0836(18) 0.4639(12)
H10 H 1.248(3) 0.0129(18) 0.5417(13)
H11 H 0.615(4) 0.158(2) 0.7753(15)
H12 H 0.817(3) 0.2248(19) 0.7351(13)
H13 H 0.834(4) 0.1649(19) 0.8192(15)
H14 H 0.780(4) -0.112(2) 0.8206(17)
H15 H 0.787(3) -0.176(2) 0.7461(14)
H16 H 0.599(4) -0.108(2) 0.7612(13)
H17 H 1.228(4) -0.055(2) 0.7069(17)
H18 H 1.234(4) 0.085(2) 0.7296(16)
H19 H 1.189(4) -0.007(2) 0.7943(15)
K1C K 0.98244(6) 0.30652(3) 0.41270(2)
H2C H 0.321(3) 0.3625(17) 0.5025(13)
loop_
_geom_bond_atom_site_label_1
_geom_bond_atom_site_label_2
_geom_bond_site_symmetry_1
_geom_bond_site_symmetry_2
K1 N1 1_555 1_555
Si1 N1 1_555 1_555
N1 B1 1_555 1_555
B1 C4 1_555 1_555
C1 N1 1_555 1_555
C2 C1 1_555 1_555
C3 C2 1_555 1_555
C4 C3 1_555 1_555
C5 Si1 1_555 1_555
C6 Si1 1_555 1_555
C7 Si1 1_555 1_555
H1 C1 1_555 1_555
H2 K1 1_555 1_555
H3 C1 1_555 1_555
H4 C2 1_555 1_555
H5 B1 1_555 1_555
H6 C2 1_555 1_555
H7 C3 1_555 1_555
H8 C3 1_555 1_555
H9 C4 1_555 1_555
H10 C4 1_555 1_555
H11 C5 1_555 1_555
H12 C5 1_555 1_555
H13 C5 1_555 1_555
H14 C6 1_555 1_555
H15 C6 1_555 1_555
H16 C6 1_555 1_555
H17 C7 1_555 1_555
H18 C7 1_555 1_555
H19 C7 1_555 1_555
K1C H2 1_555 1_555
H2C K1 1_555 1_555
B1 H2 1_555 1_555

#END
