
#######################################################################
#
#                 Cambridge Crystallographic Data Centre
#                                CCDC 
#
#######################################################################
#
# If this CIF has been generated from an entry in the Cambridge 
# Structural Database, then it will include bibliographic, chemical, 
# crystal, experimental, refinement or atomic coordinate data resulting 
# from the CCDC's data processing and validation procedures.
#
#######################################################################

data_OCOQUU01
_symmetry_cell_setting           monoclinic
_symmetry_space_group_name_H-M   'C 2/c'
_symmetry_Int_Tables_number      15
_space_group_name_Hall           '-C 2yn'
loop_
_symmetry_equiv_pos_site_id
_symmetry_equiv_pos_as_xyz
1 x,y,z
2 -x,y,1/2-z
3 1/2+x,1/2+y,z
4 1/2-x,1/2+y,1/2-z
5 -x,-y,-z
6 x,-y,1/2+z
7 1/2-x,1/2-y,-z
8 1/2+x,1/2-y,1/2+z
_cell_length_a                   16.254(4)
_cell_length_b                   12.096(3)
_cell_length_c                   14.729(4)
_cell_angle_alpha                90
_cell_angle_beta                 120.458(4)
_cell_angle_gamma                90
_cell_volume                     2496.22
loop_
_atom_site_label
_atom_site_type_symbol
_atom_site_fract_x
_atom_site_fract_y
_atom_site_fract_z
Au1 Au 0.27504(6) 0.73874(14) 0.19769(6)
Fe1 Fe 0.0000 1.0000 0.0000
C1 C 0.1713(14) 0.841(3) 0.1045(16)
N1 N 0.1103(11) 0.897(2) 0.0581(13)
N2 N -0.0559(13) 0.901(3) 0.0708(14)
C2 C -0.0755(17) 0.602(4) 0.1040(16)
C3 C -0.1395(18) 0.892(4) 0.1619(16)
H1 H -0.1710 0.9270 0.1916
C4 C -0.0966(17) 0.945(4) 0.1206(16)
H2 H -0.0944 1.0212 0.1268
C5 C -0.133(2) 0.767(3) 0.157(2)
H3 H -0.1601 0.7235 0.1876
C6 C -0.0513(18) 0.795(4) 0.0638(18)
H4 H -0.0219 0.7697 0.0276
C7 C -0.0870(18) 0.712(4) 0.1061(17)
C8 C -0.1519(19) 0.528(4) 0.074(2)
H5 H -0.2118 0.5539 0.0566
C9 C -0.049(2) 0.372(4) 0.0953(19)
H6 H -0.0432 0.2962 0.0910
N3 N 0.0707(12) 1.094(2) 0.1276(13)
C10 C -0.138(2) 0.427(4) 0.070(2)
H7 H -0.1911 0.3811 0.0483
C11 C 0.027(2) 0.444(4) 0.126(2)
H8 H 0.0876 0.4164 0.1460
C12 C 0.0132(18) 0.558(4) 0.1282(17)
H9 H 0.0640 0.6056 0.1460
C13 C 0.1261(16) 1.141(3) 0.1970(15)
Au1D Au -0.27504(6) 1.26126(14) -0.19769(6)
Au1C Au 0.22496(6) 1.23874(14) 0.30231(6)
Au1G Au -0.22496(6) 0.76126(14) -0.30231(6)
C1D C -0.1713(14) 1.159(3) -0.1045(16)
N1D N -0.1103(11) 1.103(2) -0.0581(13)
N2D N 0.0559(13) 1.099(3) -0.0708(14)
C2D C 0.0755(17) 1.398(4) -0.1040(16)
C3D C 0.1395(18) 1.108(4) -0.1619(16)
H1D H 0.1710 1.0730 -0.1916
C4D C 0.0966(17) 1.055(4) -0.1206(16)
H2D H 0.0944 0.9788 -0.1268
C5D C 0.133(2) 1.233(3) -0.157(2)
H3D H 0.1601 1.2765 -0.1876
C6D C 0.0513(18) 1.205(4) -0.0638(18)
H4D H 0.0219 1.2303 -0.0276
C7D C 0.0870(18) 1.288(4) -0.1061(17)
C8D C 0.1519(19) 1.472(4) -0.074(2)
H5D H 0.2118 1.4461 -0.0566
C9D C 0.049(2) 1.628(4) -0.0953(19)
H6D H 0.0432 1.7038 -0.0910
N3D N -0.0707(12) 0.906(2) -0.1276(13)
C10D C 0.138(2) 1.573(4) -0.070(2)
H7D H 0.1911 1.6189 -0.0483
C11D C -0.027(2) 1.556(4) -0.126(2)
H8D H -0.0876 1.5836 -0.1460
C12D C -0.0132(18) 1.442(4) -0.1282(17)
H9D H -0.0640 1.3944 -0.1460
C13D C -0.1261(16) 0.859(3) -0.1970(15)
C13C C 0.3739(16) 0.641(3) 0.3030(15)
C13G C -0.3739(16) 1.359(3) -0.3030(15)
loop_
_geom_bond_atom_site_label_1
_geom_bond_atom_site_label_2
_geom_bond_site_symmetry_1
_geom_bond_site_symmetry_2
Au1 C1 1_555 1_555
Fe1 N1 1_555 1_555
C1 N1 1_555 1_555
N2 Fe1 1_555 1_555
C2 C7 1_555 1_555
C3 H1 1_555 1_555
C4 N2 1_555 1_555
H2 C4 1_555 1_555
C5 C3 1_555 1_555
H3 C5 1_555 1_555
C6 N2 1_555 1_555
H4 C6 1_555 1_555
C7 C5 1_555 1_555
C8 C2 1_555 1_555
H5 C8 1_555 1_555
C9 H6 1_555 1_555
N3 Fe1 1_555 1_555
C10 C8 1_555 1_555
H7 C10 1_555 1_555
C11 C9 1_555 1_555
H8 C11 1_555 1_555
C12 C2 1_555 1_555
H9 C12 1_555 1_555
C13 N3 1_555 1_555
Au1D C1D 1_555 1_555
Au1C C13 1_555 1_555
Au1G C13D 1_555 1_555
C1D N1D 1_555 1_555
N1D Fe1 1_555 1_555
N2D Fe1 1_555 1_555
C2D C7D 1_555 1_555
C3D H1D 1_555 1_555
C4D N2D 1_555 1_555
H2D C4D 1_555 1_555
C5D C3D 1_555 1_555
H3D C5D 1_555 1_555
C6D N2D 1_555 1_555
H4D C6D 1_555 1_555
C7D C5D 1_555 1_555
C8D C2D 1_555 1_555
H5D C8D 1_555 1_555
C9D H6D 1_555 1_555
N3D Fe1 1_555 1_555
C10D C8D 1_555 1_555
H7D C10D 1_555 1_555
C11D C9D 1_555 1_555
H8D C11D 1_555 1_555
C12D C2D 1_555 1_555
H9D C12D 1_555 1_555
C13D N3D 1_555 1_555
C13C Au1 1_555 1_555
C13G Au1D 1_555 1_555
C3 C4 1_555 1_555
C6 C7 1_555 1_555
C9 C10 1_555 1_555
C11 C12 1_555 1_555
C3D C4D 1_555 1_555
C6D C7D 1_555 1_555
C9D C10D 1_555 1_555
C11D C12D 1_555 1_555

#END
