
#######################################################################
#
#                 Cambridge Crystallographic Data Centre
#                                CCDC 
#
#######################################################################
#
# If this CIF has been generated from an entry in the Cambridge 
# Structural Database, then it will include bibliographic, chemical, 
# crystal, experimental, refinement or atomic coordinate data resulting 
# from the CCDC's data processing and validation procedures.
#
#######################################################################

data_OCOTUX
_symmetry_cell_setting           orthorhombic
_symmetry_space_group_name_H-M   'F d d 2'
_symmetry_Int_Tables_number      43
_space_group_name_Hall           'F 2 -2d'
loop_
_symmetry_equiv_pos_site_id
_symmetry_equiv_pos_as_xyz
1 x,y,z
2 -x,-y,z
3 1/4+x,1/4-y,1/4+z
4 1/4-x,1/4+y,1/4+z
5 x,1/2+y,1/2+z
6 -x,1/2-y,1/2+z
7 1/4+x,3/4-y,3/4+z
8 1/4-x,3/4+y,3/4+z
9 1/2+x,y,1/2+z
10 1/2-x,-y,1/2+z
11 3/4+x,1/4-y,3/4+z
12 3/4-x,1/4+y,3/4+z
13 1/2+x,1/2+y,z
14 1/2-x,1/2-y,z
15 3/4+x,3/4-y,1/4+z
16 3/4-x,3/4+y,1/4+z
_cell_length_a                   15.7898(9)
_cell_length_b                   18.5707(11)
_cell_length_c                   7.3240(4)
_cell_angle_alpha                90
_cell_angle_beta                 90
_cell_angle_gamma                90
_cell_volume                     2147.6
loop_
_atom_site_label
_atom_site_type_symbol
_atom_site_fract_x
_atom_site_fract_y
_atom_site_fract_z
Mn1 Mn 0.0000 0.0000 1.22817(11)
C1 C 0.1367(3) 0.1663(2) 0.9108(6)
H1 H 0.1470 0.2140 0.8789
C2 C 0.1508(2) 0.0514(2) 0.9440(5)
H2 H 0.1725 0.0049 0.9404
C3 C 0.2701(2) 0.11076(19) 0.7860(5)
C4 C 0.3828(2) 0.1428(2) 0.6661(5)
H3 H 0.4251 0.1697 0.6097
N1 N 0.0792(2) 0.06969(17) 1.0219(4)
N2 N 0.0706(2) 0.14427(18) 1.0016(5)
N3 N 0.1888(2) 0.11003(17) 0.8691(4)
N4 N 0.30495(18) 0.16967(16) 0.7059(5)
N5 N 0.39274(18) 0.07499(16) 0.7149(5)
N6 N 0.3175(2) 0.05340(17) 0.7952(5)
Mn1B Mn 0.2500 0.2500 0.47817(11)
Mn1H Mn 0.5000 0.0000 0.72817(11)
Mn1F Mn 0.2500 -0.2500 1.97817(11)
Mn1N Mn -0.2500 -0.2500 1.47817(11)
C1G C 0.1133(3) -0.0837(2) 1.6608(6)
H1G H 0.1030 -0.0360 1.6289
C2G C 0.0992(2) -0.1986(2) 1.6940(5)
H2G H 0.0775 -0.2451 1.6904
C3G C -0.0201(2) -0.13924(19) 1.5360(5)
C4G C -0.1328(2) -0.1072(2) 1.4161(5)
H3G H -0.1751 -0.0803 1.3597
N1G N 0.1708(2) -0.18031(17) 1.7719(4)
N1A N -0.0792(2) -0.06969(17) 1.0219(4)
N2G N 0.1794(2) -0.10573(18) 1.7516(5)
N3G N 0.0612(2) -0.13997(17) 1.6191(4)
N4G N -0.05495(18) -0.08033(16) 1.4559(5)
N4J N 0.05495(18) 0.08033(16) 1.4559(5)
N5G N -0.14274(18) -0.17501(16) 1.4649(5)
N5H N -0.10726(18) 0.07499(16) 1.2149(5)
N5I N 0.10726(18) -0.07499(16) 1.2149(5)
N6G N -0.0675(2) -0.19660(17) 1.5452(5)
loop_
_geom_bond_atom_site_label_1
_geom_bond_atom_site_label_2
_geom_bond_site_symmetry_1
_geom_bond_site_symmetry_2
Mn1 N1 1_555 1_555
C1 H1 1_555 1_555
C2 H2 1_555 1_555
C3 N3 1_555 1_555
C4 H3 1_555 1_555
N1 C2 1_555 1_555
N2 C1 1_555 1_555
N3 C1 1_555 1_555
N4 C3 1_555 1_555
N5 C4 1_555 1_555
N6 C3 1_555 1_555
Mn1B N4 1_555 1_555
Mn1H N5 1_555 1_555
Mn1F N1G 1_555 1_555
Mn1N N5G 1_555 1_555
C1G H1G 1_555 1_555
C2G H2G 1_555 1_555
C3G N3G 1_555 1_555
C4G H3G 1_555 1_555
N1G C2G 1_555 1_555
N1A Mn1 1_555 1_555
N2G C1G 1_555 1_555
N3G C1G 1_555 1_555
N4G Mn1 1_555 1_555
N4J Mn1 1_555 1_555
N5G C4G 1_555 1_555
N5H Mn1 1_555 1_555
N5I Mn1 1_555 1_555
N6G C3G 1_555 1_555
C2 N3 1_555 1_555
C4 N4 1_555 1_555
N1 N2 1_555 1_555
N5 N6 1_555 1_555
C2G N3G 1_555 1_555
C3G N4G 1_555 1_555
C4G N4G 1_555 1_555
N1G N2G 1_555 1_555
N5G N6G 1_555 1_555

#END
