
#######################################################################
#
#                 Cambridge Crystallographic Data Centre
#                                CCDC 
#
#######################################################################
#
# If this CIF has been generated from an entry in the Cambridge 
# Structural Database, then it will include bibliographic, chemical, 
# crystal, experimental, refinement or atomic coordinate data resulting 
# from the CCDC's data processing and validation procedures.
#
#######################################################################

data_OCOXUA
_symmetry_cell_setting           monoclinic
_symmetry_space_group_name_H-M   'P 21/n'
_symmetry_Int_Tables_number      14
_space_group_name_Hall           '-P 2yn'
loop_
_symmetry_equiv_pos_site_id
_symmetry_equiv_pos_as_xyz
1 x,y,z
2 1/2-x,1/2+y,1/2-z
3 -x,-y,-z
4 1/2+x,1/2-y,1/2+z
_cell_length_a                   20.531(7)
_cell_length_b                   13.027(4)
_cell_length_c                   23.378(8)
_cell_angle_alpha                90
_cell_angle_beta                 92.220(5)
_cell_angle_gamma                90
_cell_volume                     6247.92
loop_
_atom_site_label
_atom_site_type_symbol
_atom_site_fract_x
_atom_site_fract_y
_atom_site_fract_z
C1 C 0.5995(2) 0.0531(4) 0.06643(19)
C2 C 0.6922(3) 0.1244(4) 0.0334(2)
H1 H 0.7370 0.1396 0.0293
C3 C 0.6421(3) 0.1655(4) 0.0041(2)
H2 H 0.6441 0.2155 -0.0253
C4 C 0.5212(2) 0.1552(4) 0.0061(2)
H3 H 0.4902 0.0979 0.0109
H4 H 0.5210 0.1729 -0.0351
C5 C 0.4985(2) 0.2483(4) 0.04004(19)
H5 H 0.5326 0.3020 0.0387
H6 H 0.4587 0.2762 0.0205
C6 C 0.4841(2) 0.2292(4) 0.1013(2)
C7 C 0.4343(2) 0.1644(4) 0.1209(2)
C8 C 0.4339(2) 0.1722(4) 0.1823(2)
C9 C 0.4828(2) 0.2419(4) 0.2007(2)
C10 C 0.5029(2) 0.2812(4) 0.2533(2)
H7 H 0.4830 0.2574 0.2868
C11 C 0.5511(3) 0.3539(4) 0.2581(2)
H8 H 0.5638 0.3810 0.2946
C12 C 0.3877(2) -0.4266(4) 0.2964(2)
C13 C 0.3801(3) -0.3491(4) 0.3835(2)
H9 H 0.3870 -0.3355 0.4232
C14 C 0.3416(3) -0.2975(4) 0.3466(2)
H10 H 0.3156 -0.2394 0.3547
C15 C 0.3124(2) -0.3103(4) 0.2428(2)
H11 H 0.2670 -0.2932 0.2520
H12 H 0.3109 -0.3669 0.2145
C16 C 0.3442(2) -0.2163(4) 0.2162(2)
H13 H 0.3165 -0.1930 0.1831
H14 H 0.3458 -0.1601 0.2447
C17 C 0.4117(2) -0.2354(4) 0.1966(2)
C18 C 0.4699(2) -0.1987(4) 0.2223(2)
C19 C 0.5251(3) -0.2378(4) 0.1917(2)
C20 C 0.4987(3) -0.3022(4) 0.1484(2)
C21 C 0.4287(3) -0.2992(4) 0.1508(2)
C22 C 0.3906(3) -0.3595(4) 0.1118(2)
H15 H 0.3443 -0.3571 0.1119
C23 C 0.4219(4) -0.4221(4) 0.0735(2)
H16 H 0.3969 -0.4630 0.0472
C24 C 0.4897(4) -0.4257(5) 0.0733(2)
H17 H 0.5100 -0.4705 0.0473
C25 C 0.5273(3) -0.3671(4) 0.1090(2)
H18 H 0.5734 -0.3701 0.1072
C26 C 0.5880(3) -0.2070(4) 0.2080(3)
H19 H 0.6240 -0.2331 0.1882
C27 C 0.5983(3) -0.1404(5) 0.2517(3)
H20 H 0.6413 -0.1178 0.2613
C28 C 0.5460(3) -0.1046(4) 0.2827(2)
H21 H 0.5544 -0.0601 0.3144
C29 C 0.4829(3) -0.1322(4) 0.2686(2)
H22 H 0.4481 -0.1063 0.2900
C30 C 0.4510(2) -0.5013(4) 0.37802(19)
C31 C 0.4271(2) -0.5983(4) 0.3922(2)
C32 C 0.3560(2) -0.6245(4) 0.3806(2)
H23 H 0.3360 -0.5677 0.3571
C33 C 0.3200(3) -0.6310(6) 0.4351(3)
H24 H 0.3378 -0.6875 0.4586
H25 H 0.2736 -0.6434 0.4262
H26 H 0.3251 -0.5663 0.4563
C34 C 0.3482(3) -0.7210(6) 0.3472(3)
H27 H 0.3705 -0.7142 0.3111
H28 H 0.3017 -0.7341 0.3391
H29 H 0.3671 -0.7782 0.3693
C35 C 0.4690(3) -0.6662(5) 0.4180(2)
H30 H 0.4535 -0.7320 0.4285
C36 C 0.5337(3) -0.6415(5) 0.4292(2)
H31 H 0.5625 -0.6902 0.4469
C37 C 0.5563(3) -0.5456(5) 0.4146(2)
H32 H 0.6007 -0.5284 0.4229
C38 C 0.5159(3) -0.4745(4) 0.3884(2)
C39 C 0.5434(3) -0.3712(4) 0.3713(2)
H33 H 0.5063 -0.3297 0.3545
C40 C 0.5918(4) -0.3839(5) 0.3257(3)
H34 H 0.6267 -0.4302 0.3394
H35 H 0.6104 -0.3169 0.3166
H36 H 0.5701 -0.4130 0.2914
C41 C 0.5724(6) -0.3120(7) 0.4199(3)
H37 H 0.5391 -0.2984 0.4478
H38 H 0.5894 -0.2467 0.4059
H39 H 0.6081 -0.3515 0.4382
C42 C 0.5818(2) 0.3884(4) 0.2083(2)
H40 H 0.6154 0.4384 0.2116
C43 C 0.5632(2) 0.3501(4) 0.1556(2)
H41 H 0.5844 0.3740 0.1227
C44 C 0.5140(2) 0.2768(4) 0.1491(2)
C45 C 0.3882(3) 0.1146(4) 0.2121(2)
H42 H 0.3874 0.1194 0.2526
C46 C 0.3448(3) 0.0516(4) 0.1831(3)
H43 H 0.3138 0.0136 0.2035
C47 C 0.3462(3) 0.0431(4) 0.1233(2)
H44 H 0.3162 -0.0013 0.1037
C48 C 0.3900(3) 0.0977(4) 0.0929(2)
H45 H 0.3903 0.0903 0.0525
C49 C 0.7047(2) -0.0018(4) 0.1114(2)
C50 C 0.7144(2) 0.0387(4) 0.1665(2)
C51 C 0.6860(2) 0.1406(4) 0.1827(2)
H46 H 0.6492 0.1562 0.1548
C52 C 0.7358(3) 0.2259(4) 0.1786(2)
H47 H 0.7722 0.2132 0.2061
H48 H 0.7154 0.2917 0.1873
H49 H 0.7522 0.2278 0.1398
C53 C 0.6587(3) 0.1385(4) 0.2427(2)
H50 H 0.6304 0.0784 0.2464
H51 H 0.6334 0.2011 0.2488
H52 H 0.6948 0.1346 0.2714
C54 C 0.7527(2) -0.0180(4) 0.2049(2)
H53 H 0.7600 0.0070 0.2428
C55 C 0.7803(2) -0.1092(4) 0.1898(2)
H54 H 0.8063 -0.1465 0.2172
C56 C 0.7706(2) -0.1468(4) 0.1355(2)
H55 H 0.7903 -0.2098 0.1253
C57 C 0.7322(2) -0.0939(4) 0.0953(2)
C58 C 0.7180(2) -0.1387(4) 0.0368(2)
H56 H 0.6983 -0.0834 0.0120
C59 C 0.6687(3) -0.2246(4) 0.0401(2)
H57 H 0.6864 -0.2792 0.0650
H58 H 0.6593 -0.2523 0.0017
H59 H 0.6284 -0.1981 0.0557
C60 C 0.7801(2) -0.1772(5) 0.0086(2)
H60 H 0.8124 -0.1218 0.0083
H61 H 0.7693 -0.1988 -0.0308
H62 H 0.7982 -0.2356 0.0304
K1 K 0.51485(6) -0.01342(9) 0.15549(5)
K2 K 0.44751(5) 0.48584(8) 0.19658(4)
N1 N 0.66593(19) 0.0549(3) 0.07105(16)
N2 N 0.58636(19) 0.1220(3) 0.02461(16)
N3 N 0.40806(18) -0.4267(3) 0.35238(17)
N4 N 0.34689(19) -0.3449(3) 0.29410(17)
C12_2 C 0.3877(2) 0.5734(4) 0.2964(2)
C20_2 C 0.4987(3) 0.6978(4) 0.1484(2)
C21_2 C 0.4287(3) 0.7008(4) 0.1508(2)
C22_2 C 0.3906(3) 0.6405(4) 0.1118(2)
H15_2 H 0.3443 0.6429 0.1119
C23_2 C 0.4219(4) 0.5779(4) 0.0735(2)
H16_2 H 0.3969 0.5370 0.0472
K2_2 K 0.44751(5) -0.51416(8) 0.19658(4)
C61 C 0.3111(3) 0.3620(4) 0.1717(3)
H63 H 0.3409 0.3212 0.1938
C62 C 0.2686(3) 0.4275(4) 0.1985(2)
H64 H 0.2702 0.4333 0.2390
C63 C 0.2246(3) 0.4835(4) 0.1664(3)
H65 H 0.1952 0.5273 0.1852
C64 C 0.2216(3) 0.4781(4) 0.1080(3)
H66 H 0.1908 0.5176 0.0860
C65 C 0.2653(3) 0.4129(4) 0.0814(2)
H67 H 0.2641 0.4075 0.0409
C66 C 0.3097(3) 0.3565(4) 0.1134(3)
H68 H 0.3397 0.3134 0.0949
C67 C 0.2787(5) 0.1111(4) 0.5362(2)
H69 H 0.2875 0.1627 0.5089
C68 C 0.2146(4) 0.0883(5) 0.5487(3)
H70 H 0.1797 0.1245 0.5300
C69 C 0.2017(3) 0.0127(5) 0.5887(4)
H71 H 0.1579 -0.0028 0.5973
C70 C 0.2528(5) -0.0402(4) 0.6160(2)
H72 H 0.2439 -0.0919 0.6433
C71 C 0.3168(4) -0.0175(5) 0.6035(3)
H73 H 0.3517 -0.0536 0.6222
C72 C 0.3298(3) 0.0582(6) 0.5635(4)
H74 H 0.3735 0.0737 0.5549
loop_
_geom_bond_atom_site_label_1
_geom_bond_atom_site_label_2
_geom_bond_site_symmetry_1
_geom_bond_site_symmetry_2
C1 K1 1_555 1_555
C2 H1 1_555 1_555
C3 C2 1_555 1_555
H2 C3 1_555 1_555
C4 H3 1_555 1_555
H4 C4 1_555 1_555
C5 C4 1_555 1_555
H5 C5 1_555 1_555
H6 C5 1_555 1_555
C6 C5 1_555 1_555
C7 C6 1_555 1_555
C8 C7 1_555 1_555
C9 C8 1_555 1_555
C10 C9 1_555 1_555
H7 C10 1_555 1_555
C11 C10 1_555 1_555
H8 C11 1_555 1_555
C12 N3 1_555 1_555
C13 H9 1_555 1_555
C14 C13 1_555 1_555
H10 C14 1_555 1_555
C15 H11 1_555 1_555
H12 C15 1_555 1_555
C16 C15 1_555 1_555
H13 C16 1_555 1_555
H14 C16 1_555 1_555
C17 C16 1_555 1_555
C18 C17 1_555 1_555
C19 C18 1_555 1_555
C20 C19 1_555 1_555
C21 C17 1_555 1_555
C22 C21 1_555 1_555
H15 C22 1_555 1_555
C23 C22 1_555 1_555
H16 C23 1_555 1_555
C24 C23 1_555 1_555
H17 C24 1_555 1_555
C25 C20 1_555 1_555
H18 C25 1_555 1_555
C26 C19 1_555 1_555
H19 C26 1_555 1_555
C27 C26 1_555 1_555
H20 C27 1_555 1_555
C28 C27 1_555 1_555
H21 C28 1_555 1_555
C29 C18 1_555 1_555
H22 C29 1_555 1_555
C30 C31 1_555 1_555
C31 C32 1_555 1_555
C32 H23 1_555 1_555
C33 C32 1_555 1_555
H24 C33 1_555 1_555
H25 C33 1_555 1_555
H26 C33 1_555 1_555
C34 C32 1_555 1_555
H27 C34 1_555 1_555
H28 C34 1_555 1_555
H29 C34 1_555 1_555
C35 C31 1_555 1_555
H30 C35 1_555 1_555
C36 C35 1_555 1_555
H31 C36 1_555 1_555
C37 C36 1_555 1_555
H32 C37 1_555 1_555
C38 C30 1_555 1_555
C39 C38 1_555 1_555
H33 C39 1_555 1_555
C40 C39 1_555 1_555
H34 C40 1_555 1_555
H35 C40 1_555 1_555
H36 C40 1_555 1_555
C41 C39 1_555 1_555
H37 C41 1_555 1_555
H38 C41 1_555 1_555
H39 C41 1_555 1_555
C42 C11 1_555 1_555
H40 C42 1_555 1_555
C43 C42 1_555 1_555
H41 C43 1_555 1_555
C44 C6 1_555 1_555
C45 C8 1_555 1_555
H42 C45 1_555 1_555
C46 C45 1_555 1_555
H43 C46 1_555 1_555
C47 C46 1_555 1_555
H44 C47 1_555 1_555
C48 C7 1_555 1_555
H45 C48 1_555 1_555
C49 C50 1_555 1_555
C50 C51 1_555 1_555
C51 H46 1_555 1_555
C52 C51 1_555 1_555
H47 C52 1_555 1_555
H48 C52 1_555 1_555
H49 C52 1_555 1_555
C53 C51 1_555 1_555
H50 C53 1_555 1_555
H51 C53 1_555 1_555
H52 C53 1_555 1_555
C54 C50 1_555 1_555
H53 C54 1_555 1_555
C55 C54 1_555 1_555
H54 C55 1_555 1_555
C56 C55 1_555 1_555
H55 C56 1_555 1_555
C57 C49 1_555 1_555
C58 C57 1_555 1_555
H56 C58 1_555 1_555
C59 C58 1_555 1_555
H57 C59 1_555 1_555
H58 C59 1_555 1_555
H59 C59 1_555 1_555
C60 C58 1_555 1_555
H60 C60 1_555 1_555
H61 C60 1_555 1_555
H62 C60 1_555 1_555
C61 H63 1_555 1_555
C62 C61 1_555 1_555
H64 C62 1_555 1_555
C63 C62 1_555 1_555
H65 C63 1_555 1_555
C64 C63 1_555 1_555
H66 C64 1_555 1_555
C65 C64 1_555 1_555
H67 C65 1_555 1_555
C66 C61 1_555 1_555
H68 C66 1_555 1_555
C67 H69 1_555 1_555
C68 C67 1_555 1_555
H70 C68 1_555 1_555
C69 C68 1_555 1_555
H71 C69 1_555 1_555
C70 C69 1_555 1_555
H72 C70 1_555 1_555
C71 C70 1_555 1_555
H73 C71 1_555 1_555
C72 C67 1_555 1_555
H74 C72 1_555 1_555
K1 C7 1_555 1_555
K2 C10 1_555 1_555
N1 C1 1_555 1_555
N2 C1 1_555 1_555
N3 C13 1_555 1_555
N4 C12 1_555 1_555
C12_2 K2 1_555 1_555
C20_2 K2 1_555 1_555
C21_2 K2 1_555 1_555
C22_2 K2 1_555 1_555
H15_2 C22_2 1_555 1_555
C23_2 K2 1_555 1_555
H16_2 C23_2 1_555 1_555
K2_2 C12 1_555 1_555
C2 N1 1_555 1_555
C3 N2 1_555 1_555
C4 N2 1_555 1_555
C8 K1 1_555 1_555
C9 C44 1_555 1_555
C11 K2 1_555 1_555
C14 N4 1_555 1_555
C15 N4 1_555 1_555
C18 K1 1_555 1_555
C19 K1 1_555 1_555
C20 C21 1_555 1_555
C20 K2_2 1_555 1_555
C21 K2_2 1_555 1_555
C22 K2_2 1_555 1_555
C23 K2_2 1_555 1_555
C24 C25 1_555 1_555
C26 K1 1_555 1_555
C28 C29 1_555 1_555
C29 K1 1_555 1_555
C30 N3 1_555 1_555
C37 C38 1_555 1_555
C42 K2 1_555 1_555
C43 C44 1_555 1_555
C43 K2 1_555 1_555
C47 C48 1_555 1_555
C49 N1 1_555 1_555
C56 C57 1_555 1_555
C65 C66 1_555 1_555
C71 C72 1_555 1_555
C20_2 C21_2 1_555 1_555
C21_2 C22_2 1_555 1_555
C22_2 C23_2 1_555 1_555

#END
