
#######################################################################
#
#                 Cambridge Crystallographic Data Centre
#                                CCDC 
#
#######################################################################
#
# If this CIF has been generated from an entry in the Cambridge 
# Structural Database, then it will include bibliographic, chemical, 
# crystal, experimental, refinement or atomic coordinate data resulting 
# from the CCDC's data processing and validation procedures.
#
#######################################################################

data_OCUBIX
_symmetry_cell_setting           monoclinic
_symmetry_space_group_name_H-M   'P 21/a'
_symmetry_Int_Tables_number      14
_space_group_name_Hall           '-P 2yab'
loop_
_symmetry_equiv_pos_site_id
_symmetry_equiv_pos_as_xyz
1 x,y,z
2 1/2-x,1/2+y,-z
3 -x,-y,-z
4 1/2+x,1/2-y,z
_cell_length_a                   9.6558(8)
_cell_length_b                   7.4793(6)
_cell_length_c                   19.8936(24)
_cell_angle_alpha                90
_cell_angle_beta                 95.648(9)
_cell_angle_gamma                90
_cell_volume                     1429.71
loop_
_atom_site_label
_atom_site_type_symbol
_atom_site_fract_x
_atom_site_fract_y
_atom_site_fract_z
Co1 Co 0.2143(8) -0.0184(9) 0.08250(28)
O1 O 0.0516(15) 0.1649(20) 0.0746(11)
O2 O 0.1390(24) 0.2749(31) 0.8673(11)
O3 O 0.2984(19) 0.4252(24) 0.8147(6)
O4 O 0.2471(20) 0.0134(28) -0.0210(6)
O5 O -0.1442(17) 0.3048(23) 0.0983(10)
O6 O 0.0791(20) -0.2273(23) 0.0562(10)
C1 C -0.0125(16) 0.2830(26) 0.1058(7)
C2 C 0.0843(17) 0.3123(43) 0.1710(8)
C3 C 0.0145(22) 0.2607(36) 0.2346(7)
C4 C 0.0926(34) 0.3378(28) 0.2993(7)
C5 C 0.0620(36) 0.2332(31) 0.3628(7)
C6 C 0.1345(27) 0.3175(30) 0.4277(7)
C7 C 0.1019(29) 0.2150(22) 0.4914(7)
C8 C 0.1518(41) 0.3173(24) 0.5565(7)
C9 C 0.1136(32) 0.2193(32) 0.6202(7)
C10 C 0.1843(25) 0.3043(38) 0.6853(7)
C11 C 0.1270(30) 0.2294(40) 0.7491(7)
C12 C 0.1964(37) 0.3162(46) 0.8141(8)
O2A O 0.3610(24) -0.2251(31) 0.1327(11)
O3A O 0.2016(19) -0.0748(24) 0.1853(6)
O5C O 0.3558(17) 0.1952(23) 0.0983(10)
Co1A Co 0.2857(8) 0.4816(9) 0.91750(28)
Co1C Co -0.2857(8) 0.5184(9) 0.08250(28)
loop_
_geom_bond_atom_site_label_1
_geom_bond_atom_site_label_2
_geom_bond_site_symmetry_1
_geom_bond_site_symmetry_2
Co1 O1 1_555 1_555
O1 C1 1_555 1_555
O2 C12 1_555 1_555
O3 C12 1_555 1_555
O4 Co1 1_555 1_555
O5 C1 1_555 1_555
O6 Co1 1_555 1_555
C1 C2 1_555 1_555
C2 C3 1_555 1_555
C3 C4 1_555 1_555
C4 C5 1_555 1_555
C5 C6 1_555 1_555
C6 C7 1_555 1_555
C7 C8 1_555 1_555
C8 C9 1_555 1_555
C9 C10 1_555 1_555
C10 C11 1_555 1_555
C11 C12 1_555 1_555
O2A Co1 1_555 1_555
O3A Co1 1_555 1_555
O5C Co1 1_555 1_555
Co1A O2 1_555 1_555
Co1C O5 1_555 1_555
O3 Co1A 1_555 1_555

#END
