
#######################################################################
#
#                 Cambridge Crystallographic Data Centre
#                                CCDC 
#
#######################################################################
#
# If this CIF has been generated from an entry in the Cambridge 
# Structural Database, then it will include bibliographic, chemical, 
# crystal, experimental, refinement or atomic coordinate data resulting 
# from the CCDC's data processing and validation procedures.
#
#######################################################################

data_OCUBET
_symmetry_cell_setting           triclinic
_symmetry_space_group_name_H-M   'P -1'
_symmetry_Int_Tables_number      2
_space_group_name_Hall           '-P 1'
loop_
_symmetry_equiv_pos_site_id
_symmetry_equiv_pos_as_xyz
1 x,y,z
2 -x,-y,-z
_cell_length_a                   9.6498(6)
_cell_length_b                   12.2431(7)
_cell_length_c                   12.6058(8)
_cell_angle_alpha                107.549(1)
_cell_angle_beta                 102.106(1)
_cell_angle_gamma                100.230(1)
_cell_volume                     1341.27
loop_
_atom_site_label
_atom_site_type_symbol
_atom_site_fract_x
_atom_site_fract_y
_atom_site_fract_z
Cu1 Cu 0.2805(1) 0.6471(1) -0.6089(1)
Cu2 Cu 0.0417(1) 0.5191(1) -0.7368(1)
Cu3 Cu 0.1710(1) 0.1356(1) -0.2412(1)
Cu4 Cu 0.1688(1) 0.0163(1) -0.1176(1)
I1 I 0.2976(1) 0.4562(1) -0.7928(1)
I2 I 0.3070(1) -0.0489(1) -0.2943(1)
O1 O -0.0332(3) 0.0498(3) -0.3179(3)
O2 O -0.0343(3) -0.0589(3) -0.2040(3)
O3 O 0.3301(3) 0.2534(3) -0.1149(3)
O4 O 0.3318(3) 0.1420(3) -0.0039(3)
O5 O 0.2536(3) 0.5628(3) -0.5041(3)
O6 O 0.0409(3) 0.4405(3) -0.6254(3)
O7 O 0.2532(3) -0.2467(3) 0.3059(3)
O8 O 0.0380(3) -0.3649(3) 0.1881(3)
N1 N -0.5204(4) -0.2459(3) -0.5015(3)
N2 N 0.8308(4) 0.4233(3) 0.1667(3)
N3 N 0.1697(4) 0.2372(3) -0.3436(3)
N4 N 0.1648(4) -0.0846(3) -0.0143(3)
C1 C -0.4506(5) -0.2687(4) -0.4102(4)
C2 C -0.3139(5) -0.2022(4) -0.3394(5)
C3 C -0.2446(5) -0.1051(4) -0.3615(4)
C4 C -0.3178(5) -0.0789(4) -0.4537(4)
C5 C -0.4538(5) -0.1506(4) -0.5204(4)
C6 C -0.0929(5) -0.0332(4) -0.2896(4)
C7 C 0.7577(5) 0.3376(4) 0.1943(4)
C8 C 0.6139(5) 0.2749(4) 0.1357(4)
C9 C 0.5401(5) 0.3004(4) 0.0430(4)
C10 C 0.6148(5) 0.3902(4) 0.0143(4)
C11 C 0.7583(5) 0.4486(4) 0.0775(4)
C12 C 0.3868(5) 0.2272(4) -0.0300(4)
C13 C 0.0495(5) 0.2188(4) -0.4309(4)
C14 C 0.0402(5) 0.2919(4) -0.4954(4)
C15 C 0.1579(5) 0.3890(4) -0.4696(4)
C16 C 0.2821(5) 0.4067(4) -0.3814(4)
C17 C 0.2833(5) 0.3293(4) -0.3215(4)
C18 C 0.1503(5) 0.4708(4) -0.5373(4)
C19 C 0.0427(5) -0.1667(4) -0.0282(4)
C20 C 0.0327(5) -0.2313(4) 0.0433(4)
C21 C 0.1539(5) -0.2120(4) 0.1345(4)
C22 C 0.2816(5) -0.1276(4) 0.1497(4)
C23 C 0.2813(5) -0.0677(4) 0.0734(4)
C24 C 0.1482(5) -0.2791(4) 0.2168(4)
Cu1_2 Cu -0.7195(1) -0.3529(1) -0.6089(1)
Cu1_3 Cu 0.2805(1) -0.3529(1) 0.3911(1)
Cu2_2 Cu 0.0417(1) -0.4809(1) 0.2632(1)
Cu2_3 Cu 1.0417(1) 0.5191(1) 0.2632(1)
O7_2 O 0.2532(3) 0.7533(3) -0.6941(3)
O8_2 O 0.0380(3) 0.6351(3) -0.8119(3)
N1_2 N 0.4796(4) 0.7541(3) -0.5015(3)
N2_2 N -0.1692(4) 0.4233(3) -0.8333(3)
loop_
_geom_bond_atom_site_label_1
_geom_bond_atom_site_label_2
_geom_bond_site_symmetry_1
_geom_bond_site_symmetry_2
Cu1 Cu2 1_555 1_555
Cu2 I1 1_555 1_555
Cu3 Cu4 1_555 1_555
Cu4 I2 1_555 1_555
I1 Cu1 1_555 1_555
I2 Cu3 1_555 1_555
O1 Cu3 1_555 1_555
O2 Cu4 1_555 1_555
O3 Cu3 1_555 1_555
O4 Cu4 1_555 1_555
O5 Cu1 1_555 1_555
O6 Cu2 1_555 1_555
O7 C24 1_555 1_555
O8 C24 1_555 1_555
N1 C1 1_555 1_555
N2 C7 1_555 1_555
N3 Cu3 1_555 1_555
N4 Cu4 1_555 1_555
C1 C2 1_555 1_555
C2 C3 1_555 1_555
C3 C4 1_555 1_555
C4 C5 1_555 1_555
C5 N1 1_555 1_555
C6 O1 1_555 1_555
C7 C8 1_555 1_555
C8 C9 1_555 1_555
C9 C10 1_555 1_555
C10 C11 1_555 1_555
C11 N2 1_555 1_555
C12 O3 1_555 1_555
C13 N3 1_555 1_555
C14 C13 1_555 1_555
C15 C14 1_555 1_555
C16 C15 1_555 1_555
C17 N3 1_555 1_555
C18 O5 1_555 1_555
C19 N4 1_555 1_555
C20 C19 1_555 1_555
C21 C20 1_555 1_555
C22 C21 1_555 1_555
C23 N4 1_555 1_555
C24 C21 1_555 1_555
Cu1_2 N1 1_555 1_555
Cu1_3 O7 1_555 1_555
Cu2_2 O8 1_555 1_555
Cu2_3 N2 1_555 1_555
O7_2 Cu1 1_555 1_555
O8_2 Cu2 1_555 1_555
N1_2 Cu1 1_555 1_555
N2_2 Cu2 1_555 1_555
O2 C6 1_555 1_555
O4 C12 1_555 1_555
O6 C18 1_555 1_555
C3 C6 1_555 1_555
C9 C12 1_555 1_555
C15 C18 1_555 1_555
C16 C17 1_555 1_555
C22 C23 1_555 1_555
Cu1_3 Cu2_2 1_555 1_555

#END
