
#######################################################################
#
#                 Cambridge Crystallographic Data Centre
#                                CCDC 
#
#######################################################################
#
# If this CIF has been generated from an entry in the Cambridge 
# Structural Database, then it will include bibliographic, chemical, 
# crystal, experimental, refinement or atomic coordinate data resulting 
# from the CCDC's data processing and validation procedures.
#
#######################################################################

data_OCUQAF
_symmetry_cell_setting           monoclinic
_symmetry_space_group_name_H-M   'P 21/c'
_symmetry_Int_Tables_number      14
_space_group_name_Hall           '-P 2ybc'
loop_
_symmetry_equiv_pos_site_id
_symmetry_equiv_pos_as_xyz
1 x,y,z
2 -x,1/2+y,1/2-z
3 -x,-y,-z
4 x,1/2-y,1/2+z
_cell_length_a                   14.0943(12)
_cell_length_b                   5.2746(4)
_cell_length_c                   10.1660(8)
_cell_angle_alpha                90
_cell_angle_beta                 94.606(2)
_cell_angle_gamma                90
_cell_volume                     753.318
loop_
_atom_site_label
_atom_site_type_symbol
_atom_site_fract_x
_atom_site_fract_y
_atom_site_fract_z
V1 V 0.80978(4) 1.10864(9) 0.34935(5)
P1 P 0.78928(6) 0.89833(14) 0.64335(8)
O1 O 0.83060(16) 0.8711(4) 0.5071(2)
O2 O 0.69779(18) 1.1387(5) 0.3533(3)
O3 O 0.82384(17) 1.1567(4) 0.6979(2)
O4 O 0.82557(16) 0.6806(4) 0.7303(2)
O5 O 0.9749(2) 1.0732(5) 0.3368(3)
O6 O 0.86291(19) 1.3819(4) 0.4743(3)
C1 C 0.6621(2) 0.8820(6) 0.6241(3)
H1 H 0.6371 0.8844 0.7123
H2 H 0.6373 1.0338 0.5754
C2 C 0.6254(3) 0.6442(7) 0.5501(4)
H3 H 0.6473 0.6486 0.4600
H4 H 0.6545 0.4937 0.5954
C3 C 0.5194(3) 0.6129(8) 0.5394(5)
H5 H 0.4905 0.7683 0.4991
H6 H 0.4982 0.5996 0.6297
H7 H 1.017(5) 1.123(12) 0.397(7)
H8 H 0.989(5) 0.969(15) 0.309(7)
H9 H 0.857(4) 1.352(10) 0.547(6)
H10 H 0.856(6) 1.530(16) 0.465(8)
V1B V 0.19022(4) -0.10864(9) 0.65065(5)
V1C V 0.80978(4) 1.39136(9) 0.84935(5)
V1C_2 V 0.80978(4) 0.39136(9) 0.84935(5)
V1A V 0.19022(4) -0.39136(9) 0.15065(5)
V1A_2 V 0.19022(4) 0.60864(9) 0.15065(5)
P1B P 0.21072(6) 0.10167(14) 0.35665(8)
O1B O 0.16940(16) 0.1289(4) 0.4929(2)
O2B O 0.30221(18) -0.1387(5) 0.6467(3)
O3B O 0.17616(17) -0.1567(4) 0.3021(2)
O3C O 0.82384(17) 1.3433(4) 0.1979(2)
O3A O 0.17616(17) -0.3433(4) 0.8021(2)
O4B O 0.17443(16) 0.3194(4) 0.2697(2)
O4C O 0.82557(16) 0.8194(4) 0.2303(2)
O4A O 0.17443(16) 0.1806(4) 0.7697(2)
O5B O 0.0251(2) -0.0732(5) 0.6632(3)
O6B O 0.13709(19) -0.3819(4) 0.5257(3)
C1B C 0.3379(2) 0.1180(6) 0.3759(3)
H1B H 0.3629 0.1156 0.2877
H2B H 0.3627 -0.0338 0.4246
C2B C 0.3746(3) 0.3558(7) 0.4499(4)
H3B H 0.3527 0.3514 0.5400
H4B H 0.3455 0.5063 0.4046
C3B C 0.4806(3) 0.3871(8) 0.4606(5)
H5B H 0.5095 0.2317 0.5009
H6B H 0.5018 0.4004 0.3703
H7B H -0.017(5) -0.123(12) 0.603(7)
H8B H 0.011(5) 0.031(15) 0.691(7)
H9B H 0.143(4) -0.352(10) 0.453(6)
H10B H 0.144(6) -0.530(16) 0.535(8)
loop_
_geom_bond_atom_site_label_1
_geom_bond_atom_site_label_2
_geom_bond_site_symmetry_1
_geom_bond_site_symmetry_2
V1 O1 1_555 1_555
P1 O1 1_555 1_555
O2 V1 1_555 1_555
O3 P1 1_555 1_555
O4 P1 1_555 1_555
O5 V1 1_555 1_555
O6 V1 1_555 1_555
C1 P1 1_555 1_555
H1 C1 1_555 1_555
H2 C1 1_555 1_555
C2 C1 1_555 1_555
H3 C2 1_555 1_555
H4 C2 1_555 1_555
C3 C2 1_555 1_555
H5 C3 1_555 1_555
H6 C3 1_555 1_555
H7 O5 1_555 1_555
H8 O5 1_555 1_555
H9 O6 1_555 1_555
H10 O6 1_555 1_555
V1B O1B 1_555 1_555
V1C O3 1_555 1_555
V1C_2 O4 1_555 1_555
V1A O3B 1_555 1_555
V1A_2 O4B 1_555 1_555
P1B O1B 1_555 1_555
O2B V1B 1_555 1_555
O3B P1B 1_555 1_555
O3C V1 1_555 1_555
O3A V1B 1_555 1_555
O4B P1B 1_555 1_555
O4C V1 1_555 1_555
O4A V1B 1_555 1_555
O5B V1B 1_555 1_555
O6B V1B 1_555 1_555
C1B P1B 1_555 1_555
H1B C1B 1_555 1_555
H2B C1B 1_555 1_555
C2B C1B 1_555 1_555
H3B C2B 1_555 1_555
H4B C2B 1_555 1_555
C3B C3 1_555 1_555
H5B C3B 1_555 1_555
H6B C3B 1_555 1_555
H7B O5B 1_555 1_555
H8B O5B 1_555 1_555
H9B O6B 1_555 1_555
H10B O6B 1_555 1_555
C2B C3B 1_555 1_555

#END
