
#######################################################################
#
#                 Cambridge Crystallographic Data Centre
#                                CCDC 
#
#######################################################################
#
# If this CIF has been generated from an entry in the Cambridge 
# Structural Database, then it will include bibliographic, chemical, 
# crystal, experimental, refinement or atomic coordinate data resulting 
# from the CCDC's data processing and validation procedures.
#
#######################################################################

data_OCUXUH
_symmetry_cell_setting           triclinic
_symmetry_space_group_name_H-M   'P -1'
_symmetry_Int_Tables_number      2
_space_group_name_Hall           '-P 1'
loop_
_symmetry_equiv_pos_site_id
_symmetry_equiv_pos_as_xyz
1 x,y,z
2 -x,-y,-z
_cell_length_a                   11.886(2)
_cell_length_b                   12.206(2)
_cell_length_c                   16.128(3)
_cell_angle_alpha                74.40(3)
_cell_angle_beta                 89.43(3)
_cell_angle_gamma                61.46(3)
_cell_volume                     1960.28
loop_
_atom_site_label
_atom_site_type_symbol
_atom_site_fract_x
_atom_site_fract_y
_atom_site_fract_z
O39 O 0.2970(14) 0.9348(13) 0.4813(9)
H10 H 0.3663 0.9419 0.4797
H11 H 0.2283 0.9413 0.4525
W1 W 0.11952(4) 1.10190(4) -0.19035(3)
W2 W 0.18461(4) 0.66785(3) 0.00814(3)
W3 W 0.33562(3) 0.85823(3) -0.00432(2)
W4 W 0.15373(4) 1.18486(4) -0.00209(3)
W5 W -0.02138(4) 0.90311(4) -0.18431(3)
W6 W -0.21619(4) 1.23190(3) -0.18874(3)
Ru1 Ru 0.26390(7) 1.47723(7) -0.31746(5)
Si1 Si 0.0000 1.0000 0.0000
K1 K -0.2184(2) 1.3881(2) -0.44572(16)
K2 K 0.3635(2) 1.2633(2) 0.14134(15)
K3 K 0.1671(3) 1.2499(3) -0.4652(2)
O1 O 0.2978(13) 1.0205(8) 0.0155(6)
O2 O 0.1212(7) 0.7514(12) -0.1122(6)
O3 O 0.0839(13) 0.9862(13) -0.2405(10)
O5 O -0.0337(7) 0.8559(8) -0.2700(5)
O6 O -0.1723(13) 1.0879(13) -0.2394(10)
O8 O 0.1300(10) 1.1176(11) 0.1083(7)
O10 O -0.0240(9) 1.0482(10) -0.1076(7)
O11 O 0.0009(11) 0.8815(12) -0.0319(8)
O12 O 0.1162(11) 1.0234(11) -0.0352(8)
O13 O 0.1368(10) 0.8700(11) 0.0340(8)
O14 O -0.0651(12) 1.2369(12) -0.2439(9)
O16 O 0.0241(13) 0.7064(14) 0.0297(9)
O18 O 0.1359(11) 1.2002(8) -0.1230(6)
O19 O 0.2228(7) 1.2772(7) -0.0032(5)
O20 O 0.2431(15) 0.6318(13) 0.1314(10)
O22 O 0.3289(12) 0.8007(11) 0.1182(6)
O23 O -0.3176(8) 1.3431(8) -0.2782(5)
O24 O 0.4959(7) 0.7913(10) -0.0042(6)
O25 O 0.3089(14) 0.7260(13) -0.0166(6)
O26 O 0.2749(12) 0.9537(7) -0.1205(6)
O27 O 0.1780(8) 1.1480(7) -0.2800(5)
O28 O 0.2752(8) 0.5107(7) 0.0109(5)
O29 O 0.4028(7) 1.4442(6) -0.4016(5)
O30 O 0.5742(8) 1.2839(7) -0.4343(5)
O31 O 0.1575(6) 1.6735(6) -0.3921(4)
O32 O 0.1468(8) 1.8659(7) -0.4153(6)
O33 O 0.1609(7) 1.4284(7) -0.3906(5)
O34 O -0.0327(7) 1.4397(8) -0.4063(5)
N1 N 0.3907(7) 1.2882(7) -0.2585(5)
N2 N 0.5642(8) 1.0189(8) -0.2042(6)
N3 N 0.3354(8) 1.5581(7) -0.2563(6)
N4 N 0.4259(9) 1.6976(10) -0.1910(8)
N5 N 0.1179(7) 1.4983(7) -0.2476(5)
N6 N -0.1137(9) 1.5585(9) -0.1800(6)
C1 C 0.4861(10) 1.2318(9) -0.3048(6)
C2 C 0.5712(9) 1.0974(9) -0.2762(7)
H1 H 0.6374 1.0605 -0.3099
C3 C 0.4741(10) 1.0794(9) -0.1551(7)
H2 H 0.4706 1.0285 -0.1001
C4 C 0.3884(10) 1.2111(10) -0.1826(7)
H3 H 0.3258 1.2486 -0.1469
C5 C 0.4908(9) 1.3235(9) -0.3869(6)
C6 C 0.4175(9) 1.5004(10) -0.1812(7)
H4 H 0.4464 1.4115 -0.1501
C7 C 0.4601(10) 1.5729(12) -0.1494(9)
H5 H 0.5159 1.5313 -0.0956
C8 C 0.3384(11) 1.7554(12) -0.2623(9)
H6 H 0.3064 1.8457 -0.2911
C9 C 0.2917(10) 1.6871(9) -0.2964(8)
C10 C 0.1910(10) 1.7486(9) -0.3736(7)
C11 C 0.1009(10) 1.5263(10) -0.1712(7)
H7 H 0.1687 1.5248 -0.1395
C12 C -0.0170(11) 1.5576(11) -0.1393(8)
H8 H -0.0281 1.5790 -0.0863
C13 C -0.0942(10) 1.5208(10) -0.2516(8)
H9 H -0.1592 1.5125 -0.2786
C14 C 0.0216(9) 1.4929(9) -0.2879(7)
C15 C 0.0486(10) 1.4519(9) -0.3680(7)
O35 O 0.3944(9) 1.2131(9) 0.3221(6)
O36 O -0.0032(10) 1.1450(10) -0.4336(7)
O38 O -0.4241(11) 1.6025(11) -0.3967(8)
O40 O 0.4091(15) 1.0295(15) -0.4288(11)
O41 O 0.1834(8) 1.1858(8) -0.6187(6)
W1A W -0.11952(4) 0.89810(4) 0.19035(3)
W2A W -0.18461(4) 1.33215(3) -0.00814(3)
W3A W -0.33562(3) 1.14177(3) 0.00432(2)
W4A W -0.15373(4) 0.81514(4) 0.00209(3)
W5A W 0.02138(4) 1.09689(4) 0.18431(3)
W6A W 0.21619(4) 0.76810(3) 0.18874(3)
Ru1A Ru -0.26390(7) 1.52277(7) -0.68254(5)
Ru1A_2 Ru -0.26390(7) 1.52277(7) 0.31746(5)
K1A K 0.2184(2) 0.6119(2) 0.44572(16)
K1A_2 K 0.2184(2) 1.6119(2) -0.55428(16)
K1A_3 K 0.2184(2) 1.6119(2) 0.44572(16)
K2A K -0.3635(2) 0.7367(2) -0.14134(15)
K2A_2 K 0.6365(2) 0.7367(2) -0.14134(15)
K2_2 K 0.3635(2) 0.2633(2) 0.14134(15)
K2A_3 K 0.6365(2) 1.7367(2) -0.14134(15)
K2A_4 K -0.3635(2) 1.7367(2) -0.14134(15)
K2_3 K -0.6365(2) 1.2633(2) 0.14134(15)
K2_4 K -0.6365(2) 2.2633(2) -0.85866(15)
K2_5 K -0.6365(2) 1.2633(2) -0.85866(15)
K3A K -0.1671(3) 0.7501(3) 0.4652(2)
K3A_2 K -0.1671(3) 1.7501(3) 0.4652(2)
O1A O -0.2978(13) 0.9795(8) -0.0155(6)
O2A O -0.1212(7) 1.2486(12) 0.1122(6)
O3A O -0.0839(13) 1.0138(13) 0.2405(10)
O5A O 0.0337(7) 1.1441(8) 0.2700(5)
O6A O 0.1723(13) 0.9121(13) 0.2394(10)
O8A O -0.1300(10) 0.8824(11) -0.1083(7)
O10A O 0.0240(9) 0.9518(10) 0.1076(7)
O11A O -0.0009(11) 1.1185(12) 0.0319(8)
O12A O -0.1162(11) 0.9766(11) 0.0352(8)
O13A O -0.1368(10) 1.1300(11) -0.0340(8)
O14A O 0.0651(12) 0.7631(12) 0.2439(9)
O16A O -0.0241(13) 1.2936(14) -0.0297(9)
O18A O -0.1359(11) 0.7998(8) 0.1230(6)
O19A O -0.2228(7) 0.7228(7) 0.0032(5)
O20A O -0.2431(15) 1.3682(13) -0.1314(10)
O22A O -0.3289(12) 1.1993(11) -0.1182(6)
O23A O 0.3176(8) 0.6569(8) 0.2782(5)
O24A O -0.4959(7) 1.2087(10) 0.0042(6)
O24A_2 O 0.5041(7) 1.2087(10) 0.0042(6)
O24_2 O -0.5041(7) 0.7913(10) -0.0042(6)
O25A O -0.3089(14) 1.2740(13) 0.0166(6)
O26A O -0.2749(12) 1.0463(7) 0.1205(6)
O27A O -0.1780(8) 0.8520(7) 0.2800(5)
O28A O -0.2752(8) 1.4893(7) -0.0109(5)
O28_2 O 0.2752(8) 1.5107(7) 0.0109(5)
O28A_2 O -0.2752(8) 0.4893(7) -0.0109(5)
O29A O -0.4028(7) 1.5558(6) -0.5984(5)
O29_2 O 0.4028(7) 0.4442(6) 0.5984(5)
O30A O -0.5742(8) 1.7161(7) -0.5657(5)
O31A O -0.1575(6) 1.3265(6) -0.6079(4)
O31_2 O 0.1575(6) 0.6735(6) 0.6079(4)
O32A O -0.1468(8) 1.1341(7) -0.5847(6)
O33A O -0.1609(7) 1.5716(7) 0.3906(5)
O33A_2 O -0.1609(7) 0.5716(7) 0.3906(5)
O33A_3 O -0.1609(7) 1.5716(7) -0.6094(5)
O34A O 0.0327(7) 1.5603(8) 0.4063(5)
O34A_2 O 0.0327(7) 0.5603(8) 0.4063(5)
N1A N -0.3907(7) 1.7118(7) -0.7415(5)
N2A N -0.5642(8) 1.9811(8) -0.7958(6)
N2A_2 N 0.4358(8) 0.9811(8) 0.2042(6)
N2_2 N -0.4358(8) 1.0189(8) -0.2042(6)
N3A N -0.3354(8) 1.4419(7) -0.7437(6)
N4A N -0.4259(9) 1.3024(10) -0.8090(8)
N4A_2 N 0.5741(9) 1.3024(10) 0.1910(8)
N4_2 N -0.5741(9) 0.6976(10) -0.1910(8)
N5A N -0.1179(7) 1.5017(7) 0.2476(5)
N5A_2 N -0.1179(7) 1.5017(7) -0.7524(5)
N6A N 0.1137(9) 1.4415(9) 0.1800(6)
N6_2 N -0.1137(9) 0.5585(9) -0.1800(6)
C1A C -0.4861(10) 1.7682(9) -0.6952(6)
C2A C -0.5712(9) 1.9026(9) -0.7238(7)
H1A H -0.6374 1.9395 -0.6901
C3A C -0.4741(10) 1.9206(9) -0.8449(7)
H2A H -0.4706 1.9715 -0.8999
C4A C -0.3884(10) 1.7889(10) -0.8174(7)
H3A H -0.3258 1.7514 -0.8531
C5A C -0.4908(9) 1.6765(9) -0.6131(6)
C6A C -0.4175(9) 1.4996(10) -0.8188(7)
H4A H -0.4464 1.5885 -0.8499
C7A C -0.4601(10) 1.4271(12) -0.8506(9)
H5A H -0.5159 1.4687 -0.9044
C8A C -0.3384(11) 1.2446(12) -0.7377(9)
H6A H -0.3064 1.1543 -0.7089
C9A C -0.2917(10) 1.3129(9) -0.7036(8)
C10A C -0.1910(10) 1.2514(9) -0.6264(7)
C11A C -0.1009(10) 1.4737(10) 0.1712(7)
H7A H -0.1687 1.4752 0.1395
C12A C 0.0170(11) 1.4424(11) 0.1393(8)
H8A H 0.0281 1.4210 0.0863
C13A C 0.0942(10) 1.4792(10) 0.2516(8)
H9A H 0.1592 1.4875 0.2786
C14A C -0.0216(9) 1.5071(9) 0.2879(7)
C15A C -0.0486(10) 1.5481(9) 0.3680(7)
O35A O -0.3944(9) 0.7869(9) -0.3221(6)
O36A O 0.0032(10) 0.8550(10) 0.4336(7)
O38A O 0.4241(11) 0.3975(11) 0.3967(8)
O40A O -0.4091(15) 0.9705(15) 0.4288(11)
O41A O -0.1834(8) 0.8142(8) 0.6187(6)
O4? O -0.0869(15) 1.0329(15) 0.1943(12)
O7? O 0.1574(14) 0.9346(14) 0.1922(10)
O9? O -0.1355(11) 0.8302(12) -0.1236(8)
O15? O -0.0494(14) 1.2071(14) -0.1958(11)
O17? O 0.0231(16) 0.6531(18) 0.0214(11)
O21? O 0.1903(16) 0.6854(15) 0.1159(11)
O37? O 0.362(3) 0.347(3) 0.4376(18)
O42? O 0.915(4) 0.896(4) 0.545(3)
loop_
_geom_bond_atom_site_label_1
_geom_bond_atom_site_label_2
_geom_bond_site_symmetry_1
_geom_bond_site_symmetry_2
W1 O3 1_555 1_555
W2 O2 1_555 1_555
W3 O1 1_555 1_555
W4 O1 1_555 1_555
W5 O2 1_555 1_555
W6 O6 1_555 1_555
Ru1 O29 1_555 1_555
Si1 O10 1_555 1_555
K1 O23 1_555 1_555
K2 O19 1_555 1_555
K3 O27 1_555 1_555
O3 W5 1_555 1_555
O5 W5 1_555 1_555
O6 W5 1_555 1_555
O8 W4 1_555 1_555
O10 W1 1_555 1_555
O11 W2 1_555 1_555
O12 W1 1_555 1_555
O13 W2 1_555 1_555
O14 W1 1_555 1_555
O16 W2 1_555 1_555
O18 W1 1_555 1_555
O19 W4 1_555 1_555
O20 W2 1_555 1_555
O22 W3 1_555 1_555
O23 W6 1_555 1_555
O24 W3 1_555 1_555
O25 W2 1_555 1_555
O26 W1 1_555 1_555
O27 W1 1_555 1_555
O28 W2 1_555 1_555
O29 C5 1_555 1_555
O30 C5 1_555 1_555
O31 Ru1 1_555 1_555
O32 C10 1_555 1_555
O33 Ru1 1_555 1_555
O34 K1 1_555 1_555
N1 Ru1 1_555 1_555
N2 C2 1_555 1_555
N3 Ru1 1_555 1_555
N4 C7 1_555 1_555
N5 Ru1 1_555 1_555
N6 C12 1_555 1_555
C1 N1 1_555 1_555
C2 C1 1_555 1_555
H1 C2 1_555 1_555
C3 N2 1_555 1_555
H2 C3 1_555 1_555
C4 N1 1_555 1_555
H3 C4 1_555 1_555
C5 C1 1_555 1_555
C6 N3 1_555 1_555
H4 C6 1_555 1_555
C7 C6 1_555 1_555
H5 C7 1_555 1_555
C8 N4 1_555 1_555
H6 C8 1_555 1_555
C9 N3 1_555 1_555
C10 O31 1_555 1_555
C11 N5 1_555 1_555
H7 C11 1_555 1_555
C12 C11 1_555 1_555
H8 C12 1_555 1_555
C13 N6 1_555 1_555
H9 C13 1_555 1_555
C14 N5 1_555 1_555
C15 O33 1_555 1_555
O35 K2 1_555 1_555
O36 K1 1_555 1_555
O38 K1 1_555 1_555
O39 H10 1_555 1_555
H11 O39 1_555 1_555
O40 K3 1_555 1_555
O41 K3 1_555 1_555
W1A O3A 1_555 1_555
W2A O2A 1_555 1_555
W3A O1A 1_555 1_555
W4A O11 1_555 1_555
W5A O8 1_555 1_555
W6A O13 1_555 1_555
Ru1A O29A 1_555 1_555
Ru1A_2 O33A 1_555 1_555
K1A O23A 1_555 1_555
K1A_2 O29 1_555 1_555
K1A_3 O34A 1_555 1_555
K2A O19A 1_555 1_555
K2A_2 O24 1_555 1_555
K2_2 O28 1_555 1_555
K2A_3 N4 1_555 1_555
K2A_4 N6 1_555 1_555
K2_3 O24A 1_555 1_555
K2_4 N2A 1_555 1_555
K2_5 N4A 1_555 1_555
K3A O27A 1_555 1_555
K3A_2 O33A 1_555 1_555
O1A W4A 1_555 1_555
O2A W5A 1_555 1_555
O3A W5A 1_555 1_555
O5A W5A 1_555 1_555
O6A W5A 1_555 1_555
O8A W5 1_555 1_555
O10A Si1 1_555 1_555
O11A W4 1_555 1_555
O12A Si1 1_555 1_555
O13A W6 1_555 1_555
O14A W1A 1_555 1_555
O16A W4 1_555 1_555
O18A W1A 1_555 1_555
O19A W4A 1_555 1_555
O20A W6 1_555 1_555
O22A W6 1_555 1_555
O23A W6A 1_555 1_555
O24A W3A 1_555 1_555
O24A_2 K2 1_555 1_555
O24_2 K2A 1_555 1_555
O25A W2A 1_555 1_555
O26A W1A 1_555 1_555
O27A W1A 1_555 1_555
O28A W2A 1_555 1_555
O28_2 K2 1_555 1_555
O28A_2 K2A 1_555 1_555
O29A K1 1_555 1_555
O29_2 K1A 1_555 1_555
O30A C5A 1_555 1_555
O31A K1 1_555 1_555
O31_2 K1A 1_555 1_555
O32A C10A 1_555 1_555
O33A C15A 1_555 1_555
O33A_2 K3A 1_555 1_555
O33A_3 Ru1A 1_555 1_555
O34A K3A_2 1_555 1_555
O34A_2 K1A 1_555 1_555
N1A Ru1A 1_555 1_555
N2A C2A 1_555 1_555
N2A_2 K2 1_555 1_555
N2_2 K2A 1_555 1_555
N3A Ru1A 1_555 1_555
N4A C7A 1_555 1_555
N4A_2 K2 1_555 1_555
N4_2 K2A 1_555 1_555
N5A Ru1A_2 1_555 1_555
N5A_2 Ru1A 1_555 1_555
N6A K2 1_555 1_555
N6_2 K2A 1_555 1_555
C1A N1A 1_555 1_555
C2A C1A 1_555 1_555
H1A C2A 1_555 1_555
C3A N2A 1_555 1_555
H2A C3A 1_555 1_555
C4A N1A 1_555 1_555
H3A C4A 1_555 1_555
C5A O29A 1_555 1_555
C6A N3A 1_555 1_555
H4A C6A 1_555 1_555
C7A C6A 1_555 1_555
H5A C7A 1_555 1_555
C8A N4A 1_555 1_555
H6A C8A 1_555 1_555
C9A N3A 1_555 1_555
C10A O31A 1_555 1_555
C11A N5A 1_555 1_555
H7A C11A 1_555 1_555
C12A N6A 1_555 1_555
H8A C12A 1_555 1_555
C13A N6A 1_555 1_555
H9A C13A 1_555 1_555
C14A N5A 1_555 1_555
C15A O34A 1_555 1_555
O35A K2A 1_555 1_555
O36A K1A 1_555 1_555
O38A K1A 1_555 1_555
O40A K3A 1_555 1_555
O41A K3A 1_555 1_555
W3 O12 1_555 1_555
W3 O13 1_555 1_555
W3 O25 1_555 1_555
W3 O26 1_555 1_555
W4 O12 1_555 1_555
W4 O18 1_555 1_555
W5 O10 1_555 1_555
W5 O11 1_555 1_555
W6 O10 1_555 1_555
W6 O14 1_555 1_555
Si1 O11 1_555 1_555
Si1 O12 1_555 1_555
Si1 O13 1_555 1_555
Si1 O11A 1_555 1_555
Si1 O13A 1_555 1_555
K3 O33 1_555 1_555
K3 O34 1_555 1_555
K3 O36 1_555 1_555
O16 W4A 1_555 1_555
O20 W6A 1_555 1_555
O22 W6A 1_555 1_555
O31 K1A_2 1_555 1_555
O34 C15 1_555 1_555
N2 K2A_2 1_555 1_555
C3 C4 1_555 1_555
C8 C9 1_555 1_555
C9 C10 1_555 1_555
C13 C14 1_555 1_555
C14 C15 1_555 1_555
W1A O10A 1_555 1_555
W1A O12A 1_555 1_555
W2A O11A 1_555 1_555
W2A O13A 1_555 1_555
W2A O16A 1_555 1_555
W2A O20A 1_555 1_555
W3A O12A 1_555 1_555
W3A O13A 1_555 1_555
W3A O22A 1_555 1_555
W3A O25A 1_555 1_555
W3A O26A 1_555 1_555
W4A O8A 1_555 1_555
W4A O12A 1_555 1_555
W4A O18A 1_555 1_555
W5A O10A 1_555 1_555
W5A O11A 1_555 1_555
W6A O6A 1_555 1_555
W6A O10A 1_555 1_555
W6A O14A 1_555 1_555
Ru1A O31A 1_555 1_555
K2A_4 O28A 1_555 1_555
K3A O34A_2 1_555 1_555
K3A O36A 1_555 1_555
C1A C5A 1_555 1_555
C3A C4A 1_555 1_555
C8A C9A 1_555 1_555
C9A C10A 1_555 1_555
C11A C12A 1_555 1_555
C13A C14A 1_555 1_555
C14A C15A 1_555 1_555

#END
