
#######################################################################
#
#                 Cambridge Crystallographic Data Centre
#                                CCDC 
#
#######################################################################
#
# If this CIF has been generated from an entry in the Cambridge 
# Structural Database, then it will include bibliographic, chemical, 
# crystal, experimental, refinement or atomic coordinate data resulting 
# from the CCDC's data processing and validation procedures.
#
#######################################################################

data_ODAGOP
_symmetry_cell_setting           monoclinic
_symmetry_space_group_name_H-M   'C 2/c'
_symmetry_Int_Tables_number      15
_space_group_name_Hall           '-C 2yn'
loop_
_symmetry_equiv_pos_site_id
_symmetry_equiv_pos_as_xyz
1 x,y,z
2 1/2+x,1/2+y,z
3 x,-y,1/2+z
4 1/2+x,1/2-y,1/2+z
5 -x,-y,-z
6 1/2-x,1/2-y,-z
7 -x,y,1/2-z
8 1/2-x,1/2+y,1/2-z
_cell_length_a                   22.161(2)
_cell_length_b                   11.4278(12)
_cell_length_c                   13.2000(14)
_cell_angle_alpha                90
_cell_angle_beta                 104.989(2)
_cell_angle_gamma                90
_cell_volume                     3229.18
loop_
_atom_site_label
_atom_site_type_symbol
_atom_site_fract_x
_atom_site_fract_y
_atom_site_fract_z
Co1 Co 0.0000 0.17881(3) 0.2500
N1 N 0.09669(8) 0.19231(14) 0.33941(13)
N2 N 0.0000 0.3670(2) 0.2500
N3 N 0.0000 0.9883(2) 0.2500
N4 N -0.07425(8) 0.18583(15) 0.41742(13)
O1 O -0.02012(6) 0.18040(12) 0.39814(11)
O2 O -0.10843(8) 0.09925(15) 0.40376(14)
O3 O -0.09001(8) 0.27920(14) 0.45100(12)
C1 C 0.13511(9) 0.26967(19) 0.31130(16)
H3 H 0.1202 0.3102 0.2468
C2 C 0.19473(9) 0.2937(2) 0.37021(16)
H4 H 0.2199 0.3485 0.3457
C3 C 0.21811(9) 0.23714(18) 0.46651(15)
C4 C 0.17835(9) 0.15681(19) 0.49509(16)
H5 H 0.1918 0.1154 0.5594
C5 C 0.11922(9) 0.13671(19) 0.43050(16)
H6 H 0.0934 0.0806 0.4520
C6 C 0.01461(10) 0.42835(18) 0.34010(16)
H7 H 0.0250 0.3866 0.4045
C7 C 0.01528(9) 0.54891(18) 0.34337(15)
H8 H 0.0261 0.5886 0.4088
C8 C 0.0000 0.6122(2) 0.2500
C9 C -0.01336(9) 0.92635(18) 0.32811(16)
H9 H -0.0227 0.9680 0.3845
C10 C -0.01419(9) 0.80551(17) 0.33082(16)
H10 H -0.0244 0.7662 0.3876
C11 C 0.0000 0.7414(2) 0.2500
C3E C 0.28189(9) 0.26286(18) 0.53349(15)
C2E C 0.30527(9) 0.2063(2) 0.62979(16)
C1E C 0.36489(9) 0.23033(19) 0.68870(16)
N1E N 0.40331(8) 0.30769(14) 0.66059(13)
C5E C 0.38078(9) 0.36329(19) 0.56950(16)
C4E C 0.32165(9) 0.34319(19) 0.50491(16)
H5E H 0.3082 0.3846 0.4406
H6E H 0.4066 0.4194 0.5480
H3E H 0.3798 0.1898 0.7532
H4E H 0.2801 0.1515 0.6543
C7F C -0.01528(9) 0.54891(18) 0.15663(15)
C6F C -0.01461(10) 0.42835(18) 0.15990(16)
H7F H -0.0250 0.3866 0.0955
H8F H -0.0261 0.5886 0.0912
C9F C 0.01336(9) 0.92635(18) 0.17189(16)
H9F H 0.0227 0.9680 0.1155
C10F C 0.01419(9) 0.80551(17) 0.16918(16)
H10F H 0.0244 0.7662 0.1124
N4F N 0.07425(8) 0.18583(15) 0.08258(13)
O1F O 0.02012(6) 0.18040(12) 0.10186(11)
O2F O 0.10843(8) 0.09925(15) 0.09624(14)
O3F O 0.09001(8) 0.27920(14) 0.04900(12)
N1F N -0.09669(8) 0.19231(14) 0.16059(13)
N3_2 N 0.0000 -0.0117(2) 0.2500
Co1_2 Co 0.0000 1.17881(3) 0.2500
Co1C Co 0.5000 0.32119(3) 0.7500
N5 N 0.15097(9) 0.17197(19) 0.89473(16)
H1 H 0.1461 0.2049 0.9571
H2 H 0.1220 0.1888 0.8412
N6 N 0.35203(10) -0.10073(19) 0.85750(17)
O4 O 0.39765(8) -0.11090(18) 0.93288(14)
O5 O 0.34904(11) -0.1516(3) 0.77440(18)
C12 C 0.20008(10) 0.1073(2) 0.88525(17)
C13 C 0.25431(10) 0.0972(2) 0.96987(17)
H11 H 0.2562 0.1368 1.0339
C14 C 0.30411(10) 0.0308(2) 0.96008(17)
H12 H 0.3406 0.0256 1.0166
C15 C 0.30090(10) -0.0288(2) 0.86691(17)
C16 C 0.24740(10) -0.0217(2) 0.78320(17)
H13 H 0.2452 -0.0640 0.7204
C17 C 0.19840(10) 0.0461(2) 0.79222(16)
H14 H 0.1625 0.0521 0.7346
loop_
_geom_bond_atom_site_label_1
_geom_bond_atom_site_label_2
_geom_bond_site_symmetry_1
_geom_bond_site_symmetry_2
Co1 N1 1_555 1_555
N1 C1 1_555 1_555
N2 Co1 1_555 1_555
N3 C9 1_555 1_555
N4 O1 1_555 1_555
O1 Co1 1_555 1_555
O2 N4 1_555 1_555
O3 N4 1_555 1_555
N5 H1 1_555 1_555
H2 N5 1_555 1_555
N6 O4 1_555 1_555
O5 N6 1_555 1_555
C1 H3 1_555 1_555
C2 C1 1_555 1_555
H4 C2 1_555 1_555
C3 C2 1_555 1_555
C4 C3 1_555 1_555
H5 C4 1_555 1_555
C5 N1 1_555 1_555
H6 C5 1_555 1_555
C6 N2 1_555 1_555
H7 C6 1_555 1_555
C7 C6 1_555 1_555
H8 C7 1_555 1_555
C8 C7 1_555 1_555
C9 H9 1_555 1_555
C10 C9 1_555 1_555
H10 C10 1_555 1_555
C11 C8 1_555 1_555
C12 N5 1_555 1_555
C13 C12 1_555 1_555
H11 C13 1_555 1_555
C14 C13 1_555 1_555
H12 C14 1_555 1_555
C15 N6 1_555 1_555
C16 C15 1_555 1_555
H13 C16 1_555 1_555
C17 C12 1_555 1_555
H14 C17 1_555 1_555
C3E C3 1_555 1_555
C2E C3E 1_555 1_555
C1E C2E 1_555 1_555
N1E C1E 1_555 1_555
C5E N1E 1_555 1_555
C4E C3E 1_555 1_555
H5E C4E 1_555 1_555
H6E C5E 1_555 1_555
H3E C1E 1_555 1_555
H4E C2E 1_555 1_555
C7F C8 1_555 1_555
C6F N2 1_555 1_555
H7F C6F 1_555 1_555
H8F C7F 1_555 1_555
C9F N3 1_555 1_555
H9F C9F 1_555 1_555
C10F C11 1_555 1_555
H10F C10F 1_555 1_555
N4F O1F 1_555 1_555
O1F Co1 1_555 1_555
O2F N4F 1_555 1_555
O3F N4F 1_555 1_555
N1F Co1 1_555 1_555
N3_2 Co1 1_555 1_555
Co1_2 N3 1_555 1_555
Co1C N1E 1_555 1_555
C4 C5 1_555 1_555
C10 C11 1_555 1_555
C14 C15 1_555 1_555
C16 C17 1_555 1_555
C5E C4E 1_555 1_555
C7F C6F 1_555 1_555
C9F C10F 1_555 1_555

#END
