
#######################################################################
#
#                 Cambridge Crystallographic Data Centre
#                                CCDC 
#
#######################################################################
#
# If this CIF has been generated from an entry in the Cambridge 
# Structural Database, then it will include bibliographic, chemical, 
# crystal, experimental, refinement or atomic coordinate data resulting 
# from the CCDC's data processing and validation procedures.
#
#######################################################################

data_ODAGUV
_symmetry_cell_setting           monoclinic
_symmetry_space_group_name_H-M   'C 2/c'
_symmetry_Int_Tables_number      15
_space_group_name_Hall           '-C 2yn'
loop_
_symmetry_equiv_pos_site_id
_symmetry_equiv_pos_as_xyz
1 x,y,z
2 1/2+x,1/2+y,z
3 -x,y,1/2-z
4 1/2-x,1/2+y,1/2-z
5 -x,-y,-z
6 1/2-x,1/2-y,-z
7 x,-y,1/2+z
8 1/2+x,1/2-y,1/2+z
_cell_length_a                   22.184(6)
_cell_length_b                   11.308(3)
_cell_length_c                   13.326(3)
_cell_angle_alpha                90
_cell_angle_beta                 106.400(4)
_cell_angle_gamma                90
_cell_volume                     3206.91
loop_
_atom_site_label
_atom_site_type_symbol
_atom_site_fract_x
_atom_site_fract_y
_atom_site_fract_z
Ni1 Ni 0.0000 0.31790(3) 0.7500
N1 N 0.09495(7) 0.30583(14) 0.83918(13)
N2 N 0.0000 0.5068(2) 0.7500
N3 N 0.0000 1.1319(2) 0.7500
N4 N -0.07307(9) 0.31195(17) 0.91653(13)
O1 O -0.02017(6) 0.31549(13) 0.89600(11)
O2 O -0.08942(8) 0.22017(16) 0.94985(14)
O3 O -0.10645(8) 0.40066(17) 0.90348(16)
C1 C 0.13355(9) 0.2299(2) 0.81134(16)
H1 H 0.1187 0.1901 0.7481
C2 C 0.19378(10) 0.2072(2) 0.87057(17)
H2 H 0.2187 0.1545 0.8464
C3 C 0.21769(8) 0.26252(18) 0.96649(15)
C4 C 0.17785(9) 0.34117(19) 0.99472(17)
H3 H 0.1913 0.3811 1.0581
C5 C 0.11821(9) 0.3611(2) 0.92982(17)
H4 H 0.0930 0.4162 0.9506
C6 C -0.01320(9) 0.56892(18) 0.82646(16)
H5 H -0.0224 0.5277 0.8807
C7 C -0.01388(10) 0.69039(18) 0.82924(16)
H6 H -0.0236 0.7293 0.8841
C8 C 0.0000 0.7549(2) 0.7500
C9 C 0.01491(10) 1.07044(18) 0.83889(16)
H7 H 0.0254 1.1118 0.9017
C10 C 0.01554(10) 0.94941(18) 0.84248(16)
H8 H 0.0263 0.9105 0.9066
C11 C 0.0000 0.8850(2) 0.7500
C3E C 0.28231(8) 0.23748(18) 1.03351(15)
C2E C 0.30622(10) 0.2928(2) 1.12943(17)
C1E C 0.36645(9) 0.2701(2) 1.18866(16)
N1E N 0.40505(7) 0.19417(14) 1.16082(13)
C5E C 0.38179(9) 0.1389(2) 1.07018(17)
C4E C 0.32215(9) 0.15883(19) 1.00528(17)
H3E H 0.3087 0.1189 0.9419
H4E H 0.4070 0.0838 1.0494
H1E H 0.3813 0.3099 1.2519
H2E H 0.2813 0.3455 1.1536
C7B C 0.01388(10) 0.69039(18) 0.67076(16)
C6B C 0.01320(9) 0.56892(18) 0.67354(16)
H5B H 0.0224 0.5277 0.6193
H6B H 0.0236 0.7293 0.6159
C9B C -0.01491(10) 1.07044(18) 0.66111(16)
H7B H -0.0254 1.1118 0.5983
C10B C -0.01554(10) 0.94941(18) 0.65752(16)
H8B H -0.0263 0.9105 0.5934
N4B N 0.07307(9) 0.31195(17) 0.58347(13)
O1B O 0.02017(6) 0.31549(13) 0.60400(11)
O2B O 0.08942(8) 0.22017(16) 0.55015(14)
O3B O 0.10645(8) 0.40066(17) 0.59652(16)
N1B N -0.09495(7) 0.30583(14) 0.66082(13)
N3_2 N 0.0000 0.1319(2) 0.7500
Ni1_2 Ni 0.0000 1.31790(3) 0.7500
Ni1G Ni 0.5000 0.18210(3) 1.2500
N5 N 0.15199(10) 0.6696(2) 0.89861(18)
H9 H 0.1500 0.6865 0.9656
H10 H 0.1212 0.6943 0.8424
N6 N 0.35210(11) 0.4010(2) 0.8529(2)
O4 O 0.39765(9) 0.3873(2) 0.92682(17)
O5 O 0.34806(12) 0.3559(3) 0.7685(2)
C12 C 0.20119(11) 0.6053(2) 0.88723(19)
C13 C 0.25616(11) 0.5939(2) 0.96939(18)
H11 H 0.2592 0.6312 1.0328
C14 C 0.30558(11) 0.5286(2) 0.95771(19)
H12 H 0.3422 0.5221 1.0126
C15 C 0.30079(11) 0.4726(2) 0.86401(19)
C16 C 0.24643(11) 0.4816(2) 0.78193(18)
H13 H 0.2432 0.4421 0.7194
C17 C 0.19785(11) 0.5481(2) 0.79299(18)
H14 H 0.1618 0.5557 0.7371
loop_
_geom_bond_atom_site_label_1
_geom_bond_atom_site_label_2
_geom_bond_site_symmetry_1
_geom_bond_site_symmetry_2
Ni1 N1 1_555 1_555
N1 C1 1_555 1_555
N2 Ni1 1_555 1_555
N3 C9 1_555 1_555
N4 O1 1_555 1_555
O1 Ni1 1_555 1_555
O2 N4 1_555 1_555
O3 N4 1_555 1_555
C1 H1 1_555 1_555
C2 C1 1_555 1_555
H2 C2 1_555 1_555
C3 C2 1_555 1_555
C4 C3 1_555 1_555
H3 C4 1_555 1_555
C5 N1 1_555 1_555
H4 C5 1_555 1_555
C6 N2 1_555 1_555
H5 C6 1_555 1_555
C7 C6 1_555 1_555
H6 C7 1_555 1_555
C8 C7 1_555 1_555
C9 H7 1_555 1_555
C10 C9 1_555 1_555
H8 C10 1_555 1_555
C11 C8 1_555 1_555
N5 H9 1_555 1_555
H10 N5 1_555 1_555
N6 O4 1_555 1_555
O5 N6 1_555 1_555
C12 N5 1_555 1_555
C13 C12 1_555 1_555
H11 C13 1_555 1_555
C14 C13 1_555 1_555
H12 C14 1_555 1_555
C15 N6 1_555 1_555
C16 C15 1_555 1_555
H13 C16 1_555 1_555
C17 C12 1_555 1_555
H14 C17 1_555 1_555
C3E C3 1_555 1_555
C2E C3E 1_555 1_555
C1E C2E 1_555 1_555
N1E C1E 1_555 1_555
C5E N1E 1_555 1_555
C4E C3E 1_555 1_555
H3E C4E 1_555 1_555
H4E C5E 1_555 1_555
H1E C1E 1_555 1_555
H2E C2E 1_555 1_555
C7B C8 1_555 1_555
C6B N2 1_555 1_555
H5B C6B 1_555 1_555
H6B C7B 1_555 1_555
C9B N3 1_555 1_555
H7B C9B 1_555 1_555
C10B C11 1_555 1_555
H8B C10B 1_555 1_555
N4B O1B 1_555 1_555
O1B Ni1 1_555 1_555
O2B N4B 1_555 1_555
O3B N4B 1_555 1_555
N1B Ni1 1_555 1_555
N3_2 Ni1 1_555 1_555
Ni1_2 N3 1_555 1_555
Ni1G N1E 1_555 1_555
C4 C5 1_555 1_555
C10 C11 1_555 1_555
C14 C15 1_555 1_555
C16 C17 1_555 1_555
C5E C4E 1_555 1_555
C7B C6B 1_555 1_555
C9B C10B 1_555 1_555

#END
