
#######################################################################
#
#                 Cambridge Crystallographic Data Centre
#                                CCDC 
#
#######################################################################
#
# If this CIF has been generated from an entry in the Cambridge 
# Structural Database, then it will include bibliographic, chemical, 
# crystal, experimental, refinement or atomic coordinate data resulting 
# from the CCDC's data processing and validation procedures.
#
#######################################################################

data_ODAHIK
_symmetry_cell_setting           monoclinic
_symmetry_space_group_name_H-M   'P 21/n'
_symmetry_Int_Tables_number      14
_space_group_name_Hall           '-P 2yn'
loop_
_symmetry_equiv_pos_site_id
_symmetry_equiv_pos_as_xyz
1 x,y,z
2 1/2+x,1/2-y,1/2+z
3 -x,-y,-z
4 1/2-x,1/2+y,1/2-z
_cell_length_a                   10.439(2)
_cell_length_b                   14.440(3)
_cell_length_c                   28.415(6)
_cell_angle_alpha                90
_cell_angle_beta                 97.67(3)
_cell_angle_gamma                90
_cell_volume                     4244.93
loop_
_atom_site_label
_atom_site_type_symbol
_atom_site_fract_x
_atom_site_fract_y
_atom_site_fract_z
N5 N 1.3207(8) 0.3233(5) 0.8798(3)
C33 C 1.2348(10) 0.2586(7) 0.8843(4)
H41 H 1.2186 0.2132 0.8601
C34 C 1.1657(11) 0.2536(8) 0.9233(4)
H42 H 1.0983 0.2095 0.9232
C35 C 1.1945(11) 0.3125(8) 0.9622(4)
C36 C 1.2959(10) 0.3845(7) 0.9593(3)
H43 H 1.3204 0.4290 0.9834
C37 C 1.3484(12) 0.3795(9) 0.9188(4)
H44 H 1.4166 0.4222 0.9167
C38 C 1.1119(10) 0.2958(8) 1.0017(3)
H45 H 1.0779 0.2317 0.9998
H46 H 1.1645 0.3042 1.0330
C39 C 1.0016(10) 0.3644(7) 0.9956(4)
H47 H 0.9511 0.3559 0.9639
H48 H 0.9436 0.3518 1.0197
C40 C 1.0475(9) 0.4618(5) 1.0005(4)
H49 H 1.1059 0.4665 1.0309
H50 H 1.1007 0.4736 0.9748
C40B C 0.9525(9) 0.5382(5) 0.9995(4)
C39B C 0.9984(10) 0.6356(7) 1.0044(4)
C38B C 0.8881(10) 0.7042(8) 0.9983(3)
C35B C 0.8055(11) 0.6875(8) 1.0378(4)
C34B C 0.8343(11) 0.7464(8) 1.0767(4)
C33B C 0.7652(10) 0.7414(7) 1.1157(4)
N5B N 0.6793(8) 0.6767(5) 1.1202(3)
C37B C 0.6516(12) 0.6205(9) 1.0812(4)
C36B C 0.7041(10) 0.6155(7) 1.0407(3)
H43B H 0.6796 0.5710 1.0166
H44B H 0.5834 0.5778 1.0833
H41B H 0.7814 0.7868 1.1399
H42B H 0.9017 0.7905 1.0768
H45B H 0.9221 0.7683 1.0002
H46B H 0.8355 0.6958 0.9670
H47B H 1.0489 0.6441 1.0361
H48B H 1.0564 0.6482 0.9803
H49B H 0.8941 0.5335 0.9691
H50B H 0.8993 0.5264 1.0252
N6 N 1.0137(5) 0.1169(3) 0.81964(18)
O1 O 0.9260(6) 0.1514(4) 0.8381(2)
O2 O 1.0483(10) 0.1548(7) 0.7849(3)
O3 O 1.0748(7) 0.0494(5) 0.8363(3)
N8 N 0.5064(11) 0.5887(8) 0.9008(4)
O9 O 0.3932(12) 0.5627(13) 0.8886(7)
O10 O 0.5687(16) 0.5517(10) 0.9362(5)
O11 O 0.5541(18) 0.6512(12) 0.8800(6)
O16 O 0.4116(6) 0.5434(5) 0.7916(3)
H53 H 0.4831 0.5480 0.7799
H54 H 0.4181 0.5786 0.8153
O17 O 0.938(3) -0.106(2) 1.0432(11)
H55 H 0.9128 -0.0891 1.0687
C41 C 0.975(4) -0.026(2) 1.0177(10)
C42 C 0.961(6) 0.062(2) 1.0450(16)
H58 H 0.9288 0.0467 1.0749
H59 H 0.9001 0.1030 1.0261
H60 H 1.0454 0.0922 1.0518
C41B C 1.025(4) 0.026(2) 0.9823(10)
O17B O 1.062(3) 0.106(2) 0.9568(11)
H55B H 1.0872 0.0891 0.9313
C42B C 1.039(6) -0.062(2) 0.9550(16)
H58B H 1.0712 -0.0467 0.9251
H59B H 1.0999 -0.1030 0.9739
H60B H 0.9546 -0.0922 0.9482
Cu1 Cu 0.67824(9) 0.29328(6) 0.82157(3)
N1 N 0.5894(6) 0.1700(4) 0.80406(18)
C1 C 0.4672(7) 0.1572(5) 0.8114(2)
H1 H 0.4269 0.2055 0.8267
C2 C 0.3940(7) 0.0785(4) 0.7983(2)
H2 H 0.3074 0.0738 0.8049
C3 C 0.4496(7) 0.0070(4) 0.7754(2)
C4 C 0.5818(7) 0.0188(4) 0.7680(2)
H3 H 0.6255 -0.0282 0.7530
C5 C 0.6433(7) 0.0984(5) 0.7827(2)
H4 H 0.7311 0.1046 0.7777
C6 C 0.3706(7) -0.0782(4) 0.7604(2)
H5 H 0.306(5) -0.057(3) 0.7310(18)
H6 H 0.418(6) -0.134(5) 0.745(2)
C7 C 0.3216(7) -0.1256(4) 0.8019(2)
H7 H 0.3966 -0.1427 0.8254
H8 H 0.2685 -0.0810 0.8174
C8 C 0.2422(6) -0.2112(4) 0.7892(2)
H9 H 0.2950 -0.2578 0.7749
H10 H 0.1669 -0.1955 0.7655
C9 C 0.1953(7) -0.2517(4) 0.8337(2)
H11 H 0.2718 -0.2689 0.8565
H12 H 0.1482 -0.2028 0.8488
C10 C 0.1079(7) -0.3360(5) 0.8253(2)
H13 H 0.0296 -0.3190 0.8034
H14 H 0.1537 -0.3852 0.8100
C11 C 0.0678(7) -0.3730(5) 0.8712(2)
H15 H 0.0264 -0.3228 0.8875
H16 H 0.1456 -0.3936 0.8924
C12 C -0.0267(7) -0.4545(5) 0.8617(2)
C13 C 0.0159(8) -0.5436(5) 0.8592(2)
H17 H 0.1057 -0.5571 0.8649
C14 C -0.0730(7) -0.6139(5) 0.8482(2)
H18 H -0.0422 -0.6757 0.8475
C15 C -0.2406(8) -0.5112(5) 0.8410(2)
H19 H -0.3306 -0.4991 0.8342
C16 C -0.1586(7) -0.4378(5) 0.8528(2)
H20 H -0.1916 -0.3768 0.8549
N2 N -0.2000(6) -0.5992(4) 0.83857(18)
N3 N 0.6852(5) 0.2662(4) 0.89070(18)
C17 C 0.7303(7) 0.1864(5) 0.9101(2)
H21 H 0.7594 0.1408 0.8899
C18 C 0.7373(8) 0.1663(6) 0.9584(3)
H22 H 0.7710 0.1085 0.9702
C19 C 0.6951(8) 0.2305(6) 0.9889(2)
C20 C 0.6494(8) 0.3173(6) 0.9686(3)
H23 H 0.6205 0.3651 0.9876
C21 C 0.6492(7) 0.3287(5) 0.9212(3)
H24 H 0.6204 0.3869 0.9083
C22 C 0.6993(10) 0.2113(6) 1.0413(2)
H25 H 0.7892 0.1959 1.0548
H26 H 0.6740 0.2680 1.0572
C23 C 0.6119(9) 0.1333(6) 1.0515(3)
H27 H 0.6420 0.0755 1.0378
H28 H 0.6191 0.1246 1.0864
C24 C 0.4729(9) 0.1483(8) 1.0324(3)
H29 H 0.4460 0.2096 1.0432
H30 H 0.4647 0.1499 0.9973
C25 C 0.3828(11) 0.0769(8) 1.0467(3)
H31 H 0.2991 0.0836 1.0261
H32 H 0.4178 0.0152 1.0403
C26 C 0.3563(10) 0.0785(7) 1.0985(3)
H33 H 0.4386 0.0872 1.1197
H34 H 0.3189 0.0183 1.1065
C27 C 0.2636(9) 0.1558(6) 1.1066(2)
H35 H 0.2983 0.2152 1.0963
H36 H 0.1796 0.1445 1.0868
C28 C 0.2417(8) 0.1641(5) 1.1585(2)
C29 C 0.1408(8) 0.1219(5) 1.1759(3)
H37 H 0.0830 0.0838 1.1558
C30 C 0.1226(8) 0.1344(5) 1.2226(2)
H38 H 0.0513 0.1045 1.2336
C31 C 0.3020(8) 0.2236(5) 1.2364(2)
H39 H 0.3623 0.2575 1.2578
C32 C 0.3254(8) 0.2160(5) 1.1900(3)
H40 H 0.3978 0.2459 1.1798
N4 N 0.2002(6) 0.1865(4) 1.25331(19)
O15 O 0.4917(5) 0.3714(3) 0.81907(18)
H51 H 0.4488 0.3673 0.8428
H52 H 0.4866 0.4268 0.8102
N1_2 N 1.5894(6) 1.1700(4) 0.80406(18)
C1_2 C 1.4672(7) 1.1572(5) 0.8114(2)
H1_2 H 1.4269 1.2055 0.8267
C2_2 C 1.3940(7) 1.0785(4) 0.7983(2)
H2_2 H 1.3074 1.0738 0.8049
C3_2 C 1.4496(7) 1.0070(4) 0.7754(2)
C4_2 C 1.5818(7) 1.0188(4) 0.7680(2)
H3_2 H 1.6255 0.9718 0.7530
C5_2 C 1.6433(7) 1.0984(5) 0.7827(2)
H4_2 H 1.7311 1.1046 0.7777
C6_2 C 1.3706(7) 0.9218(4) 0.7604(2)
H5_2 H 1.306(5) 0.943(3) 0.7310(18)
H6_2 H 1.418(6) 0.866(5) 0.745(2)
C7_2 C 1.3216(7) 0.8744(4) 0.8019(2)
H7_2 H 1.3966 0.8573 0.8254
H8_2 H 1.2685 0.9190 0.8174
C8_2 C 1.2422(6) 0.7888(4) 0.7892(2)
H9_2 H 1.2950 0.7422 0.7749
H10_2 H 1.1669 0.8045 0.7655
C9_2 C 1.1953(7) 0.7483(4) 0.8337(2)
H11_2 H 1.2718 0.7311 0.8565
H12_2 H 1.1482 0.7972 0.8488
C10_2 C 1.1079(7) 0.6640(5) 0.8253(2)
H13_2 H 1.0296 0.6810 0.8034
H14_2 H 1.1537 0.6148 0.8100
C11_2 C 1.0678(7) 0.6270(5) 0.8712(2)
H15_2 H 1.0264 0.6772 0.8875
H16_2 H 1.1456 0.6064 0.8924
C12_2 C 0.9733(7) 0.5455(5) 0.8617(2)
C13_2 C 1.0159(8) 0.4564(5) 0.8592(2)
H17_2 H 1.1057 0.4429 0.8649
C14_2 C 0.9270(7) 0.3861(5) 0.8482(2)
H18_2 H 0.9578 0.3243 0.8475
C15_2 C 0.7594(8) 0.4888(5) 0.8410(2)
H19_2 H 0.6694 0.5009 0.8342
C16_2 C 0.8414(7) 0.5622(5) 0.8528(2)
H20_2 H 0.8084 0.6232 0.8549
N2_2 N 0.8000(6) 0.4008(4) 0.83857(18)
N3A N 1.1852(5) 0.2338(4) 0.39070(18)
C17A C 1.2303(7) 0.3136(5) 0.4101(2)
H21A H 1.2594 0.3592 0.3899
C18A C 1.2373(8) 0.3337(6) 0.4584(3)
H22A H 1.2710 0.3915 0.4702
C19A C 1.1951(8) 0.2695(6) 0.4889(2)
C20A C 1.1494(8) 0.1827(6) 0.4686(3)
H23A H 1.1205 0.1349 0.4876
C21A C 1.1492(7) 0.1713(5) 0.4212(3)
H24A H 1.1204 0.1131 0.4083
C22A C 1.1993(10) 0.2887(6) 0.5413(2)
H25A H 1.2892 0.3041 0.5548
H26A H 1.1740 0.2320 0.5572
C23A C 1.1119(9) 0.3667(6) 0.5515(3)
H27A H 1.1420 0.4245 0.5378
H28A H 1.1191 0.3754 0.5864
C24A C 0.9729(9) 0.3517(8) 0.5324(3)
H29A H 0.9460 0.2904 0.5432
H30A H 0.9647 0.3501 0.4973
C25A C 0.8828(11) 0.4231(8) 0.5467(3)
H31A H 0.7991 0.4164 0.5261
H32A H 0.9178 0.4848 0.5403
C26A C 0.8563(10) 0.4215(7) 0.5985(3)
H33A H 0.9386 0.4128 0.6197
H34A H 0.8189 0.4817 0.6065
C27A C 0.7636(9) 0.3442(6) 0.6066(2)
H35A H 0.7983 0.2848 0.5963
H36A H 0.6796 0.3555 0.5868
C28A C 0.7417(8) 0.3359(5) 0.6585(2)
C29A C 0.6408(8) 0.3781(5) 0.6759(3)
H37A H 0.5830 0.4162 0.6558
C30A C 0.6226(8) 0.3656(5) 0.7226(2)
H38A H 0.5513 0.3955 0.7336
C31A C 0.8020(8) 0.2764(5) 0.7364(2)
H39A H 0.8623 0.2425 0.7578
C32A C 0.8254(8) 0.2840(5) 0.6900(3)
H40A H 0.8978 0.2541 0.6798
N4A N 0.7002(6) 0.3135(4) 0.75331(19)
Cu1_2 Cu 1.67824(9) 1.29328(6) 0.82157(3)
Cu1_3 Cu -0.32176(9) -0.70672(6) 0.82157(3)
Cu1A Cu 0.17824(9) 0.20672(6) 1.32157(3)
Cu1A_2 Cu 1.17824(9) 0.20672(6) 0.32157(3)
N2_3 N 1.8000(6) 1.4008(4) 0.83857(18)
N3_2 N 1.6852(5) 1.2662(4) 0.89070(18)
N4A_2 N 1.7002(6) 1.3135(4) 0.75331(19)
O15_2 O 1.4917(5) 1.3714(3) 0.81907(18)
H51_2 H 1.4488 1.3673 0.8428
H52_2 H 1.4866 1.4268 0.8102
O4? O 1.1217(5) 0.1501(5) 0.8300(5)
O5? O 0.9866(10) 0.0815(8) 0.7806(2)
N7? N 0.5156(14) 0.6194(9) 0.9097(5)
O6? O 0.519(2) 0.6447(14) 0.8680(5)
O7? O 0.4166(17) 0.5870(14) 0.9214(8)
O8? O 0.6137(18) 0.6316(16) 0.9390(6)
N9? N 0.5254(15) 0.6003(11) 0.9109(6)
O12? O 0.462(3) 0.644(2) 0.8778(9)
O13? O 0.6379(18) 0.579(2) 0.9095(12)
O14? O 0.473(3) 0.5825(18) 0.9465(7)
H56? H 0.9208 -0.0221 0.9865
H57? H 1.0665 -0.0326 1.0120
O18? O 0.985(3) -0.1248(14) 0.9860(10)
H61? H 0.9119 -0.1429 0.9916
C43? C 0.993(2) -0.0251(13) 0.9907(5)
H62? H 0.9249 0.0038 0.9676
H63? H 1.0777 -0.0036 0.9834
C44? C 0.975(3) 0.0051(16) 1.0400(6)
H64? H 0.9808 0.0728 1.0421
H65? H 1.0429 -0.0226 1.0628
H66? H 0.8902 -0.0151 1.0471
loop_
_geom_bond_atom_site_label_1
_geom_bond_atom_site_label_2
_geom_bond_site_symmetry_1
_geom_bond_site_symmetry_2
Cu1 N1 1_555 1_555
N1 C1 1_555 1_555
C1 H1 1_555 1_555
C2 C1 1_555 1_555
H2 C2 1_555 1_555
C3 C2 1_555 1_555
C4 C3 1_555 1_555
H3 C4 1_555 1_555
C5 N1 1_555 1_555
H4 C5 1_555 1_555
C6 C3 1_555 1_555
H5 C6 1_555 1_555
H6 C6 1_555 1_555
C7 C6 1_555 1_555
H7 C7 1_555 1_555
H8 C7 1_555 1_555
C8 C7 1_555 1_555
H9 C8 1_555 1_555
H10 C8 1_555 1_555
C9 C8 1_555 1_555
H11 C9 1_555 1_555
H12 C9 1_555 1_555
C10 C9 1_555 1_555
H13 C10 1_555 1_555
H14 C10 1_555 1_555
C11 C10 1_555 1_555
H15 C11 1_555 1_555
H16 C11 1_555 1_555
C12 C11 1_555 1_555
C13 C12 1_555 1_555
H17 C13 1_555 1_555
C14 C13 1_555 1_555
H18 C14 1_555 1_555
C15 H19 1_555 1_555
C16 C12 1_555 1_555
H20 C16 1_555 1_555
N2 C14 1_555 1_555
N3 Cu1 1_555 1_555
C17 N3 1_555 1_555
H21 C17 1_555 1_555
C18 C17 1_555 1_555
H22 C18 1_555 1_555
C19 C18 1_555 1_555
C20 C19 1_555 1_555
H23 C20 1_555 1_555
C21 N3 1_555 1_555
H24 C21 1_555 1_555
C22 C19 1_555 1_555
H25 C22 1_555 1_555
H26 C22 1_555 1_555
C23 C22 1_555 1_555
H27 C23 1_555 1_555
H28 C23 1_555 1_555
C24 C23 1_555 1_555
H29 C24 1_555 1_555
H30 C24 1_555 1_555
C25 C24 1_555 1_555
H31 C25 1_555 1_555
H32 C25 1_555 1_555
C26 C25 1_555 1_555
H33 C26 1_555 1_555
H34 C26 1_555 1_555
C27 C26 1_555 1_555
H35 C27 1_555 1_555
H36 C27 1_555 1_555
C28 C27 1_555 1_555
C29 C28 1_555 1_555
H37 C29 1_555 1_555
C30 C29 1_555 1_555
H38 C30 1_555 1_555
C31 H39 1_555 1_555
C32 C28 1_555 1_555
H40 C32 1_555 1_555
N4 C30 1_555 1_555
N5 C33 1_555 1_555
C33 H41 1_555 1_555
C34 C33 1_555 1_555
H42 C34 1_555 1_555
C35 C34 1_555 1_555
C36 C35 1_555 1_555
H43 C36 1_555 1_555
C37 N5 1_555 1_555
H44 C37 1_555 1_555
C38 C35 1_555 1_555
H45 C38 1_555 1_555
H46 C38 1_555 1_555
C39 C38 1_555 1_555
H47 C39 1_555 1_555
H48 C39 1_555 1_555
C40 C39 1_555 1_555
H49 C40 1_555 1_555
H50 C40 1_555 1_555
N6 O1 1_555 1_555
O2 N6 1_555 1_555
O3 N6 1_555 1_555
N8 O9 1_555 1_555
O10 N8 1_555 1_555
O11 N8 1_555 1_555
O15 Cu1 1_555 1_555
H51 O15 1_555 1_555
H52 O15 1_555 1_555
O16 H53 1_555 1_555
H54 O16 1_555 1_555
O17 H55 1_555 1_555
C41 O17 1_555 1_555
C42 C41 1_555 1_555
H58 C42 1_555 1_555
H59 C42 1_555 1_555
H60 C42 1_555 1_555
C40B C40 1_555 1_555
C39B C40B 1_555 1_555
C38B C39B 1_555 1_555
C35B C38B 1_555 1_555
C34B C35B 1_555 1_555
C33B C34B 1_555 1_555
N5B C33B 1_555 1_555
C37B N5B 1_555 1_555
C36B C35B 1_555 1_555
H43B C36B 1_555 1_555
H44B C37B 1_555 1_555
H41B C33B 1_555 1_555
H42B C34B 1_555 1_555
H45B C38B 1_555 1_555
H46B C38B 1_555 1_555
H47B C39B 1_555 1_555
H48B C39B 1_555 1_555
H49B C40B 1_555 1_555
H50B C40B 1_555 1_555
C41B C41 1_555 1_555
O17B C41B 1_555 1_555
H55B O17B 1_555 1_555
C42B C41B 1_555 1_555
H58B C42B 1_555 1_555
H59B C42B 1_555 1_555
H60B C42B 1_555 1_555
N1_2 C1_2 1_555 1_555
C1_2 H1_2 1_555 1_555
C2_2 C1_2 1_555 1_555
H2_2 C2_2 1_555 1_555
C3_2 C2_2 1_555 1_555
C4_2 C3_2 1_555 1_555
H3_2 C4_2 1_555 1_555
C5_2 N1_2 1_555 1_555
H4_2 C5_2 1_555 1_555
C6_2 C3_2 1_555 1_555
H5_2 C6_2 1_555 1_555
H6_2 C6_2 1_555 1_555
C7_2 C6_2 1_555 1_555
H7_2 C7_2 1_555 1_555
H8_2 C7_2 1_555 1_555
C8_2 C7_2 1_555 1_555
H9_2 C8_2 1_555 1_555
H10_2 C8_2 1_555 1_555
C9_2 C8_2 1_555 1_555
H11_2 C9_2 1_555 1_555
H12_2 C9_2 1_555 1_555
C10_2 C9_2 1_555 1_555
H13_2 C10_2 1_555 1_555
H14_2 C10_2 1_555 1_555
C11_2 C10_2 1_555 1_555
H15_2 C11_2 1_555 1_555
H16_2 C11_2 1_555 1_555
C12_2 C11_2 1_555 1_555
C13_2 C12_2 1_555 1_555
H17_2 C13_2 1_555 1_555
C14_2 C13_2 1_555 1_555
H18_2 C14_2 1_555 1_555
C15_2 H19_2 1_555 1_555
C16_2 C12_2 1_555 1_555
H20_2 C16_2 1_555 1_555
N2_2 Cu1 1_555 1_555
N3A C17A 1_555 1_555
C17A H21A 1_555 1_555
C18A C17A 1_555 1_555
H22A C18A 1_555 1_555
C19A C18A 1_555 1_555
C20A C19A 1_555 1_555
H23A C20A 1_555 1_555
C21A N3A 1_555 1_555
H24A C21A 1_555 1_555
C22A C19A 1_555 1_555
H25A C22A 1_555 1_555
H26A C22A 1_555 1_555
C23A C22A 1_555 1_555
H27A C23A 1_555 1_555
H28A C23A 1_555 1_555
C24A C23A 1_555 1_555
H29A C24A 1_555 1_555
H30A C24A 1_555 1_555
C25A C24A 1_555 1_555
H31A C25A 1_555 1_555
H32A C25A 1_555 1_555
C26A C25A 1_555 1_555
H33A C26A 1_555 1_555
H34A C26A 1_555 1_555
C27A C26A 1_555 1_555
H35A C27A 1_555 1_555
H36A C27A 1_555 1_555
C28A C27A 1_555 1_555
C29A C28A 1_555 1_555
H37A C29A 1_555 1_555
C30A C29A 1_555 1_555
H38A C30A 1_555 1_555
C31A H39A 1_555 1_555
C32A C28A 1_555 1_555
H40A C32A 1_555 1_555
N4A Cu1 1_555 1_555
Cu1_2 N1_2 1_555 1_555
Cu1_3 N2 1_555 1_555
Cu1A N4 1_555 1_555
Cu1A_2 N3A 1_555 1_555
N2_3 Cu1_2 1_555 1_555
N3_2 Cu1_2 1_555 1_555
N4A_2 Cu1_2 1_555 1_555
O15_2 Cu1_2 1_555 1_555
H51_2 O15_2 1_555 1_555
H52_2 O15_2 1_555 1_555
C4 C5 1_555 1_555
C15 N2 1_555 1_555
C15 C16 1_555 1_555
C20 C21 1_555 1_555
C31 N4 1_555 1_555
C31 C32 1_555 1_555
C36 C37 1_555 1_555
C37B C36B 1_555 1_555
C4_2 C5_2 1_555 1_555
C14_2 N2_2 1_555 1_555
C15_2 N2_2 1_555 1_555
C15_2 C16_2 1_555 1_555
C20A C21A 1_555 1_555
C30A N4A 1_555 1_555
C31A N4A 1_555 1_555
C31A C32A 1_555 1_555

#END
