
#######################################################################
#
#                 Cambridge Crystallographic Data Centre
#                                CCDC 
#
#######################################################################
#
# If this CIF has been generated from an entry in the Cambridge 
# Structural Database, then it will include bibliographic, chemical, 
# crystal, experimental, refinement or atomic coordinate data resulting 
# from the CCDC's data processing and validation procedures.
#
#######################################################################

data_ODASUJ
_symmetry_cell_setting           monoclinic
_symmetry_space_group_name_H-M   'P 2/c'
_symmetry_Int_Tables_number      13
_space_group_name_Hall           '-P 2yc'
loop_
_symmetry_equiv_pos_site_id
_symmetry_equiv_pos_as_xyz
1 x,y,z
2 -x,y,1/2-z
3 -x,-y,-z
4 x,-y,1/2+z
_cell_length_a                   13.0533(6)
_cell_length_b                   11.4197(5)
_cell_length_c                   15.9181(6)
_cell_angle_alpha                90
_cell_angle_beta                 90.423(4)
_cell_angle_gamma                90
_cell_volume                     2372.76
loop_
_atom_site_label
_atom_site_type_symbol
_atom_site_fract_x
_atom_site_fract_y
_atom_site_fract_z
Co1 Co 0.87684(4) 0.42130(5) 0.35080(3)
Co2 Co 0.5000 0.51660(6) 0.2500
C1 C 0.6576(3) 0.5139(3) 0.3910(2)
N1 N 0.5000 1.3279(4) 0.2500
O1 O 0.8714(2) 0.3959(2) 0.47939(15)
C2 C 0.9560(4) 1.1702(4) 0.3786(3)
H1 H 1.0088 1.2119 0.4043
O2 O 0.7622(3) 0.3721(2) 0.58413(17)
O3 O 0.3593(2) 0.5052(2) 0.30834(17)
H2 H 0.3474 0.5667 0.3330
C3 C 0.9426(4) 0.7907(4) 0.3983(3)
H3 H 0.9790 0.8297 0.4402
O4 O 0.5674(2) 0.5345(2) 0.36858(16)
O5 O 0.8378(2) 0.5944(3) 0.72438(16)
C4 C 0.8025(3) 0.6359(3) 0.5829(2)
O6 O 0.9647(2) 0.5818(3) 0.63435(18)
O7 O 0.7149(2) 0.4370(2) 0.36003(16)
C5 C 0.9412(3) 0.6712(4) 0.3973(3)
H4 H 0.9767 0.6314 0.4393
C6 C 0.7688(3) 0.5572(3) 0.5215(2)
N2 N 0.8913(3) 0.6085(3) 0.33897(18)
N3 N 0.5000 0.7064(4) 0.2500
C7 C 0.5057(4) 1.1459(4) 0.3241(3)
H5 H 0.5103 1.1073 0.3754
C8 C 0.5000 0.9524(5) 0.2500
C9 C 0.8901(3) 0.8553(4) 0.3369(2)
C10 C 0.8855(4) 0.9839(4) 0.3398(2)
N4 N 0.8774(3) 1.2301(3) 0.3466(2)
C11 C 0.8750(3) 0.5994(3) 0.6531(2)
C12 C 0.8457(4) 0.6694(4) 0.2773(3)
H6 H 0.8135 0.6278 0.2344
O8 O 0.6186(4) 0.9428(3) 0.4595(3)
C13 C 0.6999(3) 0.5947(3) 0.4591(2)
C14 C 0.6692(3) 0.7116(3) 0.4572(2)
H7 H 0.6228 0.7377 0.4167
N5 N 0.6804(4) 0.9116(3) 0.5110(2)
C15 C 0.5044(4) 1.2667(4) 0.3214(3)
H8 H 0.5067 1.3075 0.3719
C16 C 0.8434(4) 0.7894(4) 0.2736(3)
H9 H 0.8108 0.8267 0.2289
O9 O 0.7222(4) 0.9790(3) 0.5599(3)
C17 C 0.7082(4) 0.7873(3) 0.5159(2)
C18 C 0.7728(3) 0.7519(3) 0.5800(2)
H10 H 0.7958 0.8049 0.6203
C19 C 0.4516(4) 0.7688(4) 0.3091(3)
H11 H 0.4170 0.7285 0.3510
C20 C 0.8011(4) 1.1664(4) 0.3127(3)
H12 H 0.7445 1.2058 0.2909
C21 C 0.5000 1.0825(5) 0.2500
C22 C 0.4503(4) 0.8887(4) 0.3111(3)
H13 H 0.4159 0.9273 0.3539
C23 C 0.8021(4) 1.0465(4) 0.3083(3)
H14 H 0.7470 1.0069 0.2843
C24 C 0.8028(3) 0.4305(3) 0.5282(2)
C25 C 0.9634(4) 1.0498(4) 0.3755(3)
H15 H 1.0210 1.0127 0.3976
Co1A Co 0.12316(4) 0.42130(5) 0.14920(3)
Co1_2 Co 0.87684(4) 1.42130(5) 0.35080(3)
Co1A_2 Co 0.12316(4) 1.42130(5) 0.14920(3)
Co1B Co 0.12316(4) 0.57870(5) -0.35080(3)
Co1B_2 Co 1.12316(4) 0.57870(5) 0.64920(3)
Co1C Co -0.12316(4) 0.57870(5) -0.14920(3)
Co1C_2 Co 0.87684(4) 0.57870(5) 0.85080(3)
Co2_2 Co 0.5000 1.51660(6) 0.2500
C1A C 0.3424(3) 0.5139(3) 0.1090(2)
N1_2 N 0.5000 0.3279(4) 0.2500
O1A O 0.1286(2) 0.3959(2) 0.02061(15)
C2A C 0.0440(4) 1.1702(4) 0.1214(3)
H1A H -0.0088 1.2119 0.0957
O2A O 0.2378(3) 0.3721(2) -0.08413(17)
O3A O 0.6407(2) 0.5052(2) 0.19166(17)
H2A H 0.6526 0.5667 0.1670
C3A C 0.0574(4) 0.7907(4) 0.1017(3)
H3A H 0.0210 0.8297 0.0598
O4A O 0.4326(2) 0.5345(2) 0.13142(16)
O5A O 0.1622(2) 0.5944(3) -0.22438(16)
O5B O 0.1622(2) 0.4056(3) 0.27562(16)
O5C O 0.8378(2) 0.4056(3) 0.22438(16)
C4A C 0.1975(3) 0.6359(3) -0.0829(2)
O6A O 0.0353(2) 0.5818(3) -0.13435(18)
O6B O 1.0353(2) 0.4182(3) 0.36565(18)
O6C O -0.0353(2) 0.4182(3) 0.13435(18)
O7A O 0.2851(2) 0.4370(2) 0.13997(16)
C5A C 0.0588(3) 0.6712(4) 0.1027(3)
H4A H 0.0233 0.6314 0.0607
C6A C 0.2312(3) 0.5572(3) -0.0215(2)
N2A N 0.1087(3) 0.6085(3) 0.16103(18)
C7A C 0.4943(4) 1.1459(4) 0.1759(3)
H5A H 0.4897 1.1073 0.1246
C9A C 0.1099(3) 0.8553(4) 0.1631(2)
C10A C 0.1145(4) 0.9839(4) 0.1602(2)
N4A N 0.1226(3) 1.2301(3) 0.1534(2)
N4_2 N 0.8774(3) 0.2301(3) 0.3466(2)
N4A_2 N 0.1226(3) 0.2301(3) 0.1534(2)
C11A C 0.1250(3) 0.5994(3) -0.1531(2)
C12A C 0.1543(4) 0.6694(4) 0.2227(3)
H6A H 0.1865 0.6278 0.2656
O8A O 0.3814(4) 0.9428(3) 0.0405(3)
C13A C 0.3001(3) 0.5947(3) 0.0409(2)
C14A C 0.3308(3) 0.7116(3) 0.0428(2)
H7A H 0.3772 0.7377 0.0833
N5A N 0.3196(4) 0.9116(3) -0.0110(2)
C15A C 0.4956(4) 1.2667(4) 0.1786(3)
H8A H 0.4933 1.3075 0.1281
C16A C 0.1566(4) 0.7894(4) 0.2264(3)
H9A H 0.1892 0.8267 0.2711
O9A O 0.2778(4) 0.9790(3) -0.0599(3)
C17A C 0.2918(4) 0.7873(3) -0.0159(2)
C18A C 0.2272(3) 0.7519(3) -0.0800(2)
H10A H 0.2042 0.8049 -0.1203
C19A C 0.5484(4) 0.7688(4) 0.1909(3)
H11A H 0.5830 0.7285 0.1490
C20A C 0.1989(4) 1.1664(4) 0.1873(3)
H12A H 0.2555 1.2058 0.2091
C22A C 0.5497(4) 0.8887(4) 0.1889(3)
H13A H 0.5841 0.9273 0.1461
C23A C 0.1979(4) 1.0465(4) 0.1917(3)
H14A H 0.2530 1.0069 0.2157
C24A C 0.1972(3) 0.4305(3) -0.0282(2)
C25A C 0.0366(4) 1.0498(4) 0.1245(3)
H15A H -0.0210 1.0127 0.1024
O10 O 0.834(2) 0.136(3) 0.555(2)
loop_
_geom_bond_atom_site_label_1
_geom_bond_atom_site_label_2
_geom_bond_site_symmetry_1
_geom_bond_site_symmetry_2
Co1 O1 1_555 1_555
Co2 O3 1_555 1_555
C1 O4 1_555 1_555
N1 C15 1_555 1_555
O1 C24 1_555 1_555
C2 H1 1_555 1_555
O2 C24 1_555 1_555
O3 H2 1_555 1_555
C3 H3 1_555 1_555
O4 Co2 1_555 1_555
O5 C11 1_555 1_555
C4 C6 1_555 1_555
O6 C11 1_555 1_555
O7 Co1 1_555 1_555
C5 C3 1_555 1_555
H4 C5 1_555 1_555
C6 C13 1_555 1_555
N2 Co1 1_555 1_555
N3 Co2 1_555 1_555
C7 H5 1_555 1_555
C8 C21 1_555 1_555
C9 C3 1_555 1_555
C10 C9 1_555 1_555
N4 C2 1_555 1_555
C11 C4 1_555 1_555
C12 N2 1_555 1_555
H6 C12 1_555 1_555
O8 N5 1_555 1_555
C13 C1 1_555 1_555
C14 C13 1_555 1_555
H7 C14 1_555 1_555
N5 O9 1_555 1_555
C15 C7 1_555 1_555
H8 C15 1_555 1_555
C16 C9 1_555 1_555
H9 C16 1_555 1_555
C17 C14 1_555 1_555
C18 C4 1_555 1_555
H10 C18 1_555 1_555
C19 N3 1_555 1_555
H11 C19 1_555 1_555
C20 N4 1_555 1_555
H12 C20 1_555 1_555
C21 C7 1_555 1_555
C22 C8 1_555 1_555
H13 C22 1_555 1_555
C23 C10 1_555 1_555
H14 C23 1_555 1_555
C24 C6 1_555 1_555
C25 C2 1_555 1_555
H15 C25 1_555 1_555
Co1A O1A 1_555 1_555
Co1_2 N4 1_555 1_555
Co1A_2 N4A 1_555 1_555
Co1B O5A 1_555 1_555
Co1B_2 O6 1_555 1_555
Co1C O6A 1_555 1_555
Co1C_2 O5 1_555 1_555
Co2_2 N1 1_555 1_555
C1A O4A 1_555 1_555
N1_2 Co2 1_555 1_555
O1A C24A 1_555 1_555
C2A H1A 1_555 1_555
O2A C24A 1_555 1_555
O3A Co2 1_555 1_555
H2A O3A 1_555 1_555
C3A H3A 1_555 1_555
O4A Co2 1_555 1_555
O5A C11A 1_555 1_555
O5B Co1A 1_555 1_555
O5C Co1 1_555 1_555
C4A C6A 1_555 1_555
O6A C11A 1_555 1_555
O6B Co1 1_555 1_555
O6C Co1A 1_555 1_555
O7A Co1A 1_555 1_555
C5A C3A 1_555 1_555
H4A C5A 1_555 1_555
C6A C13A 1_555 1_555
N2A Co1A 1_555 1_555
C7A C21 1_555 1_555
H5A C7A 1_555 1_555
C9A C3A 1_555 1_555
C10A C9A 1_555 1_555
N4A C2A 1_555 1_555
N4_2 Co1 1_555 1_555
N4A_2 Co1A 1_555 1_555
C11A C4A 1_555 1_555
C12A N2A 1_555 1_555
H6A C12A 1_555 1_555
O8A N5A 1_555 1_555
C13A C1A 1_555 1_555
C14A C13A 1_555 1_555
H7A C14A 1_555 1_555
N5A O9A 1_555 1_555
C15A N1 1_555 1_555
H8A C15A 1_555 1_555
C16A C9A 1_555 1_555
H9A C16A 1_555 1_555
C17A C14A 1_555 1_555
C18A C4A 1_555 1_555
H10A C18A 1_555 1_555
C19A N3 1_555 1_555
H11A C19A 1_555 1_555
C20A N4A 1_555 1_555
H12A C20A 1_555 1_555
C22A C8 1_555 1_555
H13A C22A 1_555 1_555
C23A C10A 1_555 1_555
H14A C23A 1_555 1_555
C24A C6A 1_555 1_555
C25A C2A 1_555 1_555
H15A C25A 1_555 1_555
C1 O7 1_555 1_555
C5 N2 1_555 1_555
C10 C25 1_555 1_555
C12 C16 1_555 1_555
N5 C17 1_555 1_555
C17 C18 1_555 1_555
C19 C22 1_555 1_555
C20 C23 1_555 1_555
C1A O7A 1_555 1_555
C5A N2A 1_555 1_555
C7A C15A 1_555 1_555
C10A C25A 1_555 1_555
C12A C16A 1_555 1_555
N5A C17A 1_555 1_555
C17A C18A 1_555 1_555
C19A C22A 1_555 1_555
C20A C23A 1_555 1_555

#END
