
#######################################################################
#
#                 Cambridge Crystallographic Data Centre
#                                CCDC 
#
#######################################################################
#
# If this CIF has been generated from an entry in the Cambridge 
# Structural Database, then it will include bibliographic, chemical, 
# crystal, experimental, refinement or atomic coordinate data resulting 
# from the CCDC's data processing and validation procedures.
#
#######################################################################

data_ODATOE
_symmetry_cell_setting           monoclinic
_symmetry_space_group_name_H-M   'P 21/c'
_symmetry_Int_Tables_number      14
_space_group_name_Hall           '-P 2ybc'
loop_
_symmetry_equiv_pos_site_id
_symmetry_equiv_pos_as_xyz
1 x,y,z
2 -x,1/2+y,1/2-z
3 -x,-y,-z
4 x,1/2-y,1/2+z
_cell_length_a                   7.0615(14)
_cell_length_b                   16.787(3)
_cell_length_c                   6.9476(14)
_cell_angle_alpha                90
_cell_angle_beta                 101.73(3)
_cell_angle_gamma                90
_cell_volume                     806.379
loop_
_atom_site_label
_atom_site_type_symbol
_atom_site_fract_x
_atom_site_fract_y
_atom_site_fract_z
Nd1 Nd 1.25809(3) 0.420406(14) 0.50880(3)
C1 C 0.8308(7) 0.3314(3) 0.3537(6)
C2 C 0.7261(7) 0.2556(3) 0.3555(7)
C3 C 0.5632(7) 0.3004(3) 0.4077(6)
C4 C 0.6705(7) 0.3726(3) 0.4099(6)
C5 C 1.0200(7) 0.4897(3) 0.8616(6)
C6 C 0.8788(7) 0.5337(3) 0.9425(6)
O1 O 0.9935(4) 0.34830(18) 0.3210(4)
O2 O 0.7717(5) 0.18444(17) 0.3352(4)
O3 O 0.4004(5) 0.28760(18) 0.4501(4)
O4 O 0.6191(5) 0.44185(18) 0.4604(4)
O5 O 1.0300(4) 0.48261(18) 0.6825(4)
O6 O 0.7308(5) 0.57113(17) 0.8577(5)
O7 O 1.1416(5) 0.32351(19) 0.7316(5)
O8 O 1.4761(5) 0.41819(18) 0.8343(5)
H1 H 1.576(4) 0.389(2) 0.839(6)
H2 H 1.421(6) 0.415(2) 0.932(5)
H3 H 1.026(2) 0.315(2) 0.745(6)
H4 H 1.228(4) 0.294(2) 0.800(6)
Nd1B Nd 0.74191(3) 0.579594(14) 0.49120(3)
Nd1_2 Nd 0.25809(3) 0.420406(14) 0.50880(3)
Nd1_3 Nd 1.25809(3) 0.420406(14) 1.50880(3)
Nd1B_2 Nd 0.74191(3) 0.579594(14) 1.49120(3)
Nd1B_3 Nd 1.74191(3) 0.579594(14) 0.49120(3)
C1B C 1.1692(7) 0.6686(3) 0.6463(6)
C2B C 1.2739(7) 0.7444(3) 0.6445(7)
C3B C 1.4368(7) 0.6996(3) 0.5923(6)
C4B C 1.3295(7) 0.6274(3) 0.5901(6)
C5B C 0.9800(7) 0.5103(3) 1.1384(6)
C6B C 1.1212(7) 0.4663(3) 1.0575(6)
O1B O 1.0065(4) 0.65170(18) 0.6790(4)
O2B O 1.2283(5) 0.81556(17) 0.6648(4)
O3B O 1.5996(5) 0.71240(18) 0.5499(4)
O3_2 O 1.4004(5) 0.28760(18) 0.4501(4)
O3B_2 O 0.5996(5) 0.71240(18) 0.5499(4)
O4B O 1.3809(5) 0.55815(18) 0.5396(4)
O4_2 O 1.6191(5) 0.44185(18) 0.4604(4)
O4B_2 O 0.3809(5) 0.55815(18) 0.5396(4)
O5B O 0.9700(4) 0.51739(18) 1.3175(4)
O5B_2 O 0.9700(4) 0.51739(18) 0.3175(4)
O6B O 1.2692(5) 0.42887(17) 1.1423(5)
O6B_2 O 1.2692(5) 0.42887(17) 0.1423(5)
O7B O 0.8584(5) 0.67649(19) 0.2684(5)
O8B O 0.5239(5) 0.58181(18) 0.1657(5)
H1B H 0.424(4) 0.611(2) 0.161(6)
H2B H 0.579(6) 0.585(2) 0.068(5)
H3B H 0.974(2) 0.685(2) 0.255(6)
H4B H 0.772(4) 0.706(2) 0.200(6)
loop_
_geom_bond_atom_site_label_1
_geom_bond_atom_site_label_2
_geom_bond_site_symmetry_1
_geom_bond_site_symmetry_2
Nd1 O1 1_555 1_555
C1 C2 1_555 1_555
C2 C3 1_555 1_555
C3 C4 1_555 1_555
C4 C1 1_555 1_555
C5 C6 1_555 1_555
C6 O6 1_555 1_555
O1 C1 1_555 1_555
O2 C2 1_555 1_555
O3 C3 1_555 1_555
O4 C4 1_555 1_555
O5 Nd1 1_555 1_555
O6 Nd1B 1_555 1_555
O7 Nd1 1_555 1_555
O8 Nd1 1_555 1_555
H1 O8 1_555 1_555
H2 O8 1_555 1_555
H3 O7 1_555 1_555
H4 O7 1_555 1_555
Nd1B O4 1_555 1_555
Nd1_2 O3 1_555 1_555
Nd1_3 O5B 1_555 1_555
Nd1B_2 O5B 1_555 1_555
Nd1B_3 O3B 1_555 1_555
C1B C2B 1_555 1_555
C2B C3B 1_555 1_555
C3B C4B 1_555 1_555
C4B C1B 1_555 1_555
C5B C6 1_555 1_555
C6B C5 1_555 1_555
O1B Nd1B 1_555 1_555
O2B C2B 1_555 1_555
O3B C3B 1_555 1_555
O3_2 Nd1 1_555 1_555
O3B_2 Nd1B 1_555 1_555
O4B Nd1 1_555 1_555
O4_2 Nd1 1_555 1_555
O4B_2 Nd1B 1_555 1_555
O5B C5B 1_555 1_555
O5B_2 Nd1 1_555 1_555
O6B Nd1_3 1_555 1_555
O6B_2 Nd1 1_555 1_555
O7B Nd1B 1_555 1_555
O8B Nd1B 1_555 1_555
H1B O8B 1_555 1_555
H2B O8B 1_555 1_555
H3B O7B 1_555 1_555
H4B O7B 1_555 1_555
C5 O5 1_555 1_555
O4 Nd1_2 1_555 1_555
O5 Nd1B 1_555 1_555
Nd1B O5B_2 1_555 1_555
Nd1_2 O4B_2 1_555 1_555
Nd1B_3 O4B 1_555 1_555
Nd1B_3 O4_2 1_555 1_555
C1B O1B 1_555 1_555
C4B O4B 1_555 1_555
C5B C6B 1_555 1_555
C6B O6B 1_555 1_555

#END
