
#######################################################################
#
#                 Cambridge Crystallographic Data Centre
#                                CCDC 
#
#######################################################################
#
# If this CIF has been generated from an entry in the Cambridge 
# Structural Database, then it will include bibliographic, chemical, 
# crystal, experimental, refinement or atomic coordinate data resulting 
# from the CCDC's data processing and validation procedures.
#
#######################################################################

data_ODAVIA
_symmetry_cell_setting           monoclinic
_symmetry_space_group_name_H-M   'P 21/c'
_symmetry_Int_Tables_number      14
_space_group_name_Hall           '-P 2ybc'
loop_
_symmetry_equiv_pos_site_id
_symmetry_equiv_pos_as_xyz
1 x,y,z
2 -x,1/2+y,1/2-z
3 -x,-y,-z
4 x,1/2-y,1/2+z
_cell_length_a                   7.1482(14)
_cell_length_b                   16.972(3)
_cell_length_c                   7.0121(14)
_cell_angle_alpha                90
_cell_angle_beta                 101.48(3)
_cell_angle_gamma                90
_cell_volume                     833.684
loop_
_atom_site_label
_atom_site_type_symbol
_atom_site_fract_x
_atom_site_fract_y
_atom_site_fract_z
La1 La 0.25753(3) 0.420153(11) 0.50654(3)
O1 O 0.3829(3) 0.55979(14) 0.5466(4)
O2 O 0.0124(3) 0.65176(15) 0.6820(4)
O3 O 0.2292(3) 0.81466(14) 0.6672(4)
O4 O 0.5981(3) 0.71430(15) 0.5541(4)
O5 O 0.4788(4) 0.41641(15) 0.8359(4)
O6 O 0.1388(4) 0.32257(15) 0.7328(4)
O7 O 0.0242(3) 0.48203(14) 0.6838(4)
O8 O -0.2663(4) 0.57103(15) 0.8665(4)
C1 C 0.3333(5) 0.6290(2) 0.5944(5)
C2 C 0.1737(5) 0.6690(2) 0.6497(5)
C3 C 0.2745(5) 0.7454(2) 0.6469(5)
C4 C 0.4364(5) 0.7012(2) 0.5948(5)
C5 C 0.0180(5) 0.4897(2) 0.8610(5)
C6 C -0.1208(5) 0.5330(2) 0.9463(6)
H1 H 0.426(6) 0.410(3) 0.933(5)
H2 H 0.578(4) 0.389(3) 0.834(6)
H3 H 0.025(2) 0.316(3) 0.749(6)
H4 H 0.221(4) 0.291(2) 0.797(6)
La1B La -0.25753(3) 0.579847(11) 0.49346(3)
La1B_2 La 0.74247(3) 0.579847(11) 0.49346(3)
La1B_3 La -0.25753(3) 0.579847(11) 1.49346(3)
La1_2 La 0.25753(3) 0.420153(11) 1.50654(3)
La1_3 La -0.74247(3) 0.420153(11) 0.50654(3)
O1B O -0.3829(3) 0.44021(14) 0.4534(4)
O1B_2 O 0.6171(3) 0.44021(14) 0.4534(4)
O1_2 O -0.6171(3) 0.55979(14) 0.5466(4)
O2B O -0.0124(3) 0.34824(15) 0.3180(4)
O3B O -0.2292(3) 0.18534(14) 0.3328(4)
O4B O -0.5981(3) 0.28570(15) 0.4459(4)
O4B_2 O 0.4019(3) 0.28570(15) 0.4459(4)
O4_2 O -0.4019(3) 0.71430(15) 0.5541(4)
O5B O -0.4788(4) 0.58359(15) 0.1641(4)
O6B O -0.1388(4) 0.67743(15) 0.2672(4)
O7B O -0.0242(3) 0.51797(14) 1.3162(4)
O7B_2 O -0.0242(3) 0.51797(14) 0.3162(4)
O8B O 0.2663(4) 0.42897(15) 1.1335(4)
O8B_2 O 0.2663(4) 0.42897(15) 0.1335(4)
C1B C -0.3333(5) 0.3710(2) 0.4056(5)
C2B C -0.1737(5) 0.3310(2) 0.3503(5)
C3B C -0.2745(5) 0.2546(2) 0.3531(5)
C4B C -0.4364(5) 0.2988(2) 0.4052(5)
C5B C -0.0180(5) 0.5103(2) 1.1390(5)
C6B C 0.1208(5) 0.4670(2) 1.0537(6)
H1B H -0.426(6) 0.590(3) 0.067(5)
H2B H -0.578(4) 0.611(3) 0.166(6)
H3B H -0.025(2) 0.684(3) 0.251(6)
H4B H -0.221(4) 0.709(2) 0.203(6)
loop_
_geom_bond_atom_site_label_1
_geom_bond_atom_site_label_2
_geom_bond_site_symmetry_1
_geom_bond_site_symmetry_2
La1 O1 1_555 1_555
O1 C1 1_555 1_555
O2 C2 1_555 1_555
O3 C3 1_555 1_555
O4 C4 1_555 1_555
O5 La1 1_555 1_555
O6 La1 1_555 1_555
O7 La1 1_555 1_555
O8 C6 1_555 1_555
C1 C2 1_555 1_555
C2 C3 1_555 1_555
C3 C4 1_555 1_555
C4 C1 1_555 1_555
C5 O7 1_555 1_555
C6 C5 1_555 1_555
H1 O5 1_555 1_555
H2 O5 1_555 1_555
H3 O6 1_555 1_555
H4 O6 1_555 1_555
La1B O2 1_555 1_555
La1B_2 O1 1_555 1_555
La1B_3 O7B 1_555 1_555
La1_2 O7B 1_555 1_555
La1_3 O1B 1_555 1_555
O1B La1B 1_555 1_555
O1B_2 La1 1_555 1_555
O1_2 La1B 1_555 1_555
O2B La1 1_555 1_555
O3B C3B 1_555 1_555
O4B La1_3 1_555 1_555
O4B_2 La1 1_555 1_555
O4_2 La1B 1_555 1_555
O5B La1B 1_555 1_555
O6B La1B 1_555 1_555
O7B C5B 1_555 1_555
O7B_2 La1 1_555 1_555
O8B La1_2 1_555 1_555
O8B_2 La1 1_555 1_555
C1B O1B 1_555 1_555
C2B O2B 1_555 1_555
C3B C2B 1_555 1_555
C4B O4B 1_555 1_555
C5B C6 1_555 1_555
C6B C5 1_555 1_555
H1B O5B 1_555 1_555
H2B O5B 1_555 1_555
H3B O6B 1_555 1_555
H4B O6B 1_555 1_555
O4 La1B_2 1_555 1_555
O7 La1B 1_555 1_555
O8 La1B 1_555 1_555
La1B O7B_2 1_555 1_555
La1B_2 O1B_2 1_555 1_555
La1_3 O1_2 1_555 1_555
O8B C6B 1_555 1_555
C1B C2B 1_555 1_555
C1B C4B 1_555 1_555
C3B C4B 1_555 1_555
C5B C6B 1_555 1_555

#END
