
#######################################################################
#
#                 Cambridge Crystallographic Data Centre
#                                CCDC 
#
#######################################################################
#
# If this CIF has been generated from an entry in the Cambridge 
# Structural Database, then it will include bibliographic, chemical, 
# crystal, experimental, refinement or atomic coordinate data resulting 
# from the CCDC's data processing and validation procedures.
#
#######################################################################

data_ODAYUP
_symmetry_cell_setting           monoclinic
_symmetry_space_group_name_H-M   'P 21/c'
_symmetry_Int_Tables_number      14
_space_group_name_Hall           '-P 2ybc'
loop_
_symmetry_equiv_pos_site_id
_symmetry_equiv_pos_as_xyz
1 x,y,z
2 -x,1/2+y,1/2-z
3 -x,-y,-z
4 x,1/2-y,1/2+z
_cell_length_a                   7.9896(16)
_cell_length_b                   15.532(3)
_cell_length_c                   18.130(4)
_cell_angle_alpha                90
_cell_angle_beta                 98.89(3)
_cell_angle_gamma                90
_cell_volume                     2222.81
loop_
_atom_site_label
_atom_site_type_symbol
_atom_site_fract_x
_atom_site_fract_y
_atom_site_fract_z
Fe1 Fe 0.36886(5) 0.33352(2) 0.34802(2)
O1 O 0.1573(2) 0.36808(13) 0.39948(11)
O2 O 0.5858(3) 0.28993(14) 0.30299(11)
N1 N 0.5282(3) 0.34099(15) 0.45484(12)
N2 N 0.5735(4) 0.29148(19) 0.51618(15)
N3 N 0.4795(3) 0.46072(15) 0.34729(12)
N4 N 0.2950(3) 0.20369(15) 0.35560(13)
N5 N -0.0682(5) 0.0592(3) 0.20964(18)
N6 N -0.2254(3) -0.15638(15) 0.26201(13)
N7 N -0.0949(4) -0.26391(18) 0.48562(15)
N8 N 0.4452(4) 0.1191(2) 0.55763(18)
N9 N 0.2820(4) -0.1398(2) 0.63002(17)
C1 C -0.0146(4) 0.3612(3) 0.3616(2)
H1 H -0.0309 0.3050 0.3369
H2 H -0.0369 0.4070 0.3242
H3 H -0.0929 0.3668 0.3980
C2 C 0.6356(5) 0.3097(3) 0.23345(19)
H4 H 0.6548 0.3718 0.2303
H5 H 0.5462 0.2921 0.1930
H6 H 0.7404 0.2788 0.2288
C3 C 0.6962(5) 0.3333(3) 0.56687(17)
H7 H 0.7484 0.3120 0.6140
C4 C 0.7278(4) 0.4129(2) 0.53494(16)
H8 H 0.8043 0.4566 0.5554
C5 C 0.6211(3) 0.41321(18) 0.46615(15)
C6 C 0.5993(3) 0.47861(17) 0.40672(15)
C7 C 0.6937(4) 0.5535(2) 0.40864(19)
H9 H 0.7763 0.5658 0.4509
C8 C 0.6689(5) 0.6086(2) 0.3511(2)
H10 H 0.7338 0.6600 0.3523
C9 C 0.5530(5) 0.5908(2) 0.2926(2)
H11 H 0.5358 0.6287 0.2509
C10 C 0.4607(4) 0.5191(2) 0.29260(17)
H12 H 0.3756 0.5090 0.2508
C11 C 0.1256(3) 0.00016(17) 0.38989(15)
C12 C 0.0650(3) -0.07811(17) 0.41020(14)
C13 C 0.1772(3) -0.03166(17) 0.46118(15)
C14 C 0.1262(4) 0.06423(18) 0.33588(15)
C15 C 0.2207(3) 0.14012(18) 0.34952(15)
C16 C 0.0183(4) 0.0598(2) 0.26628(18)
C17 C -0.0415(3) -0.14935(17) 0.39092(15)
C18 C -0.1428(3) -0.15329(17) 0.32010(15)
C19 C -0.0689(4) -0.21233(18) 0.44406(16)
C20 C 0.2716(3) -0.02055(19) 0.53222(15)
C21 C 0.3696(4) 0.0556(2) 0.54773(17)
C22 C 0.2776(4) -0.0860(2) 0.58625(17)
H13 H 0.525(5) 0.240(3) 0.516(2)
H14 H 0.156(5) 0.336(2) 0.4377(17)
H15 H 0.631(5) 0.2440(18) 0.321(2)
Fe1A Fe -0.36886(5) -0.16648(2) 0.15198(2)
N6A N 0.2254(3) 0.34362(15) 0.23799(13)
loop_
_geom_bond_atom_site_label_1
_geom_bond_atom_site_label_2
_geom_bond_site_symmetry_1
_geom_bond_site_symmetry_2
Fe1 O1 1_555 1_555
O1 C1 1_555 1_555
O2 Fe1 1_555 1_555
N1 Fe1 1_555 1_555
N2 N1 1_555 1_555
N3 Fe1 1_555 1_555
N4 Fe1 1_555 1_555
N5 C16 1_555 1_555
N6 C18 1_555 1_555
N7 C19 1_555 1_555
N8 C21 1_555 1_555
N9 C22 1_555 1_555
C1 H1 1_555 1_555
H2 C1 1_555 1_555
H3 C1 1_555 1_555
C2 O2 1_555 1_555
H4 C2 1_555 1_555
H5 C2 1_555 1_555
H6 C2 1_555 1_555
C3 N2 1_555 1_555
H7 C3 1_555 1_555
C4 C3 1_555 1_555
H8 C4 1_555 1_555
C5 N1 1_555 1_555
C6 N3 1_555 1_555
C7 C6 1_555 1_555
H9 C7 1_555 1_555
C8 C7 1_555 1_555
H10 C8 1_555 1_555
C9 C8 1_555 1_555
H11 C9 1_555 1_555
C10 N3 1_555 1_555
H12 C10 1_555 1_555
C11 C12 1_555 1_555
C12 C13 1_555 1_555
C13 C11 1_555 1_555
C14 C11 1_555 1_555
C15 N4 1_555 1_555
C16 C14 1_555 1_555
C17 C12 1_555 1_555
C18 C17 1_555 1_555
C19 C17 1_555 1_555
C20 C13 1_555 1_555
C21 C20 1_555 1_555
C22 C20 1_555 1_555
H13 N2 1_555 1_555
H14 O1 1_555 1_555
H15 O2 1_555 1_555
Fe1A N6 1_555 1_555
N6A Fe1 1_555 1_555
C4 C5 1_555 1_555
C5 C6 1_555 1_555
C9 C10 1_555 1_555
C14 C15 1_555 1_555

#END
