
#######################################################################
#
#                 Cambridge Crystallographic Data Centre
#                                CCDC 
#
#######################################################################
#
# If this CIF has been generated from an entry in the Cambridge 
# Structural Database, then it will include bibliographic, chemical, 
# crystal, experimental, refinement or atomic coordinate data resulting 
# from the CCDC's data processing and validation procedures.
#
#######################################################################

data_ODAYEZ
_symmetry_cell_setting           monoclinic
_symmetry_space_group_name_H-M   'P 21/c'
_symmetry_Int_Tables_number      14
_space_group_name_Hall           '-P 2ybc'
loop_
_symmetry_equiv_pos_site_id
_symmetry_equiv_pos_as_xyz
1 x,y,z
2 -x,1/2+y,1/2-z
3 -x,-y,-z
4 x,1/2-y,1/2+z
_cell_length_a                   7.6839(3)
_cell_length_b                   16.3826(6)
_cell_length_c                   18.9623(9)
_cell_angle_alpha                90
_cell_angle_beta                 99.4790(10)
_cell_angle_gamma                90
_cell_volume                     2354.42
loop_
_atom_site_label
_atom_site_type_symbol
_atom_site_fract_x
_atom_site_fract_y
_atom_site_fract_z
Mn1 Mn 0.35656(6) 0.29687(3) 0.32612(3)
O1 O 0.1199(3) 0.33643(18) 0.36364(16)
O2 O 0.5931(3) 0.25558(16) 0.28470(14)
N1 N 0.4644(3) 0.42538(17) 0.32801(16)
N2 N 0.5146(3) 0.31330(18) 0.43505(15)
N3 N 0.2968(4) 0.16881(19) 0.34655(15)
N4 N 0.0041(4) -0.0163(2) 0.20923(18)
N5 N -0.2154(4) -0.19311(19) 0.28372(17)
N6 N -0.0588(4) -0.2628(2) 0.50965(18)
N7 N 0.4489(4) 0.0960(2) 0.57726(16)
N8 N 0.2263(4) -0.1360(2) 0.63246(17)
C1 C 0.6992(5) 0.3016(3) 0.2440(2)
H1 H 0.6211 0.3299 0.2056
H2 H 0.7779 0.2650 0.2231
H3 H 0.7696 0.3418 0.2746
C2 C 0.4378(4) 0.4809(2) 0.2764(2)
H4 H 0.3653 0.4667 0.2326
C3 C 0.5110(5) 0.5587(2) 0.2828(2)
H5 H 0.4877 0.5966 0.2445
C4 C 0.6176(5) 0.5799(2) 0.3454(2)
H6 H 0.6695 0.6326 0.3509
C5 C 0.6496(4) 0.5235(2) 0.4014(2)
C6 C 0.7537(4) 0.5421(3) 0.4689(2)
H7 H 0.8070 0.5943 0.4764
C7 C 0.7770(4) 0.4867(3) 0.5224(2)
H8 H 0.8475 0.5003 0.5669
C8 C 0.6979(4) 0.4079(2) 0.5133(2)
C9 C 0.7144(4) 0.3490(3) 0.5675(2)
H9 H 0.7843 0.3602 0.6126
C10 C 0.6309(4) 0.2757(3) 0.5556(2)
H10 H 0.6392 0.2359 0.5925
C11 C 0.5335(4) 0.2604(2) 0.4885(2)
H11 H 0.4766 0.2089 0.4805
C12 C 0.5953(4) 0.3872(2) 0.44761(19)
C13 C 0.5692(4) 0.4472(2) 0.39075(19)
C14 C 0.1408(4) -0.0239(2) 0.39360(19)
C15 C 0.0751(4) -0.0951(2) 0.41790(18)
C16 C 0.1807(4) -0.0443(2) 0.46546(19)
C17 C 0.1507(4) 0.0282(2) 0.33509(19)
C18 C 0.2317(4) 0.1052(2) 0.34330(18)
C19 C 0.0693(4) 0.0043(2) 0.2655(2)
C20 C -0.0291(4) -0.1658(2) 0.40605(18)
C21 C -0.1316(4) -0.1812(2) 0.3386(2)
C22 C -0.0472(4) -0.2186(2) 0.4634(2)
C23 C 0.2593(4) -0.0301(2) 0.53588(19)
C24 C 0.3634(4) 0.0395(2) 0.55756(19)
C25 C 0.2413(4) -0.0880(2) 0.5889(2)
H12 H 0.075(6) 0.314(3) 0.3980(19)
H13 H 0.037(4) 0.371(2) 0.348(2)
H14 H 0.656(4) 0.2214(18) 0.3127(17)
Mn1A Mn -0.35656(6) -0.20313(3) 0.17388(3)
N5A N 0.2154(4) 0.30689(19) 0.21628(17)
loop_
_geom_bond_atom_site_label_1
_geom_bond_atom_site_label_2
_geom_bond_site_symmetry_1
_geom_bond_site_symmetry_2
Mn1 O1 1_555 1_555
O1 H12 1_555 1_555
O2 Mn1 1_555 1_555
N1 Mn1 1_555 1_555
N2 Mn1 1_555 1_555
N3 Mn1 1_555 1_555
N4 C19 1_555 1_555
N5 C21 1_555 1_555
N6 C22 1_555 1_555
N7 C24 1_555 1_555
N8 C25 1_555 1_555
C1 O2 1_555 1_555
H1 C1 1_555 1_555
H2 C1 1_555 1_555
H3 C1 1_555 1_555
C2 N1 1_555 1_555
H4 C2 1_555 1_555
C3 C2 1_555 1_555
H5 C3 1_555 1_555
C4 C3 1_555 1_555
H6 C4 1_555 1_555
C5 C4 1_555 1_555
C6 C5 1_555 1_555
H7 C6 1_555 1_555
C7 C6 1_555 1_555
H8 C7 1_555 1_555
C8 C7 1_555 1_555
C9 C8 1_555 1_555
H9 C9 1_555 1_555
C10 C9 1_555 1_555
H10 C10 1_555 1_555
C11 N2 1_555 1_555
H11 C11 1_555 1_555
C12 N2 1_555 1_555
C13 N1 1_555 1_555
C14 C15 1_555 1_555
C15 C16 1_555 1_555
C16 C14 1_555 1_555
C17 C14 1_555 1_555
C18 N3 1_555 1_555
C19 C17 1_555 1_555
C20 C15 1_555 1_555
C21 C20 1_555 1_555
C22 C20 1_555 1_555
C23 C16 1_555 1_555
C24 C23 1_555 1_555
C25 C23 1_555 1_555
H13 O1 1_555 1_555
H14 O2 1_555 1_555
Mn1A N5 1_555 1_555
N5A Mn1 1_555 1_555
C5 C13 1_555 1_555
C8 C12 1_555 1_555
C10 C11 1_555 1_555
C12 C13 1_555 1_555
C17 C18 1_555 1_555

#END
