
#######################################################################
#
#                 Cambridge Crystallographic Data Centre
#                                CCDC 
#
#######################################################################
#
# If this CIF has been generated from an entry in the Cambridge 
# Structural Database, then it will include bibliographic, chemical, 
# crystal, experimental, refinement or atomic coordinate data resulting 
# from the CCDC's data processing and validation procedures.
#
#######################################################################

data_ODAYOJ
_symmetry_cell_setting           monoclinic
_symmetry_space_group_name_H-M   'P 21/c'
_symmetry_Int_Tables_number      14
_space_group_name_Hall           '-P 2ybc'
loop_
_symmetry_equiv_pos_site_id
_symmetry_equiv_pos_as_xyz
1 x,y,z
2 -x,1/2+y,1/2-z
3 -x,-y,-z
4 x,1/2-y,1/2+z
_cell_length_a                   8.0169(2)
_cell_length_b                   15.3911(3)
_cell_length_c                   18.0902(4)
_cell_angle_alpha                90
_cell_angle_beta                 98.7400(10)
_cell_angle_gamma                90
_cell_volume                     2206.21
loop_
_atom_site_label
_atom_site_type_symbol
_atom_site_fract_x
_atom_site_fract_y
_atom_site_fract_z
Co1 Co 0.37187(6) 0.33342(3) 0.34801(3)
O1 O 0.1639(3) 0.36874(17) 0.39973(14)
O2 O 0.5845(3) 0.29065(18) 0.30208(15)
N1 N 0.5276(4) 0.33877(19) 0.45315(15)
N2 N 0.5729(5) 0.2878(3) 0.5135(2)
N3 N 0.4744(4) 0.46010(19) 0.34698(16)
N4 N 0.3023(4) 0.2042(2) 0.35631(16)
N5 N -0.0613(6) 0.0619(4) 0.2083(2)
N6 N -0.2291(4) -0.15594(19) 0.25979(16)
N7 N -0.1029(5) -0.2635(2) 0.48440(19)
N8 N 0.4471(5) 0.1147(3) 0.5589(2)
N9 N 0.2687(5) -0.1439(3) 0.6287(2)
C1 C -0.0072(6) 0.3621(4) 0.3631(3)
H1 H -0.0235 0.3061 0.3372
H2 H -0.0312 0.4093 0.3268
H3 H -0.0837 0.3662 0.4004
C2 C 0.6395(6) 0.3142(3) 0.2348(3)
H4 H 0.6677 0.3762 0.2361
H5 H 0.5496 0.3027 0.1929
H6 H 0.7397 0.2802 0.2286
C3 C 0.6988(6) 0.3288(4) 0.5649(2)
H7 H 0.7529 0.3061 0.6112
C4 C 0.7282(5) 0.4109(3) 0.5331(2)
H8 H 0.8040 0.4551 0.5537
C5 C 0.6206(4) 0.4118(2) 0.4647(2)
C6 C 0.5952(4) 0.4781(2) 0.40555(19)
C7 C 0.6861(5) 0.5544(3) 0.4067(3)
H9 H 0.7693 0.5675 0.4484
C8 C 0.6578(7) 0.6096(3) 0.3497(3)
H10 H 0.7213 0.6618 0.3505
C9 C 0.5429(6) 0.5920(3) 0.2930(3)
H11 H 0.5232 0.6308 0.2518
C10 C 0.4531(5) 0.5195(2) 0.2931(2)
H12 H 0.3674 0.5094 0.2516
C11 C 0.1272(4) -0.0003(2) 0.38815(19)
C12 C 0.0626(4) -0.0787(2) 0.40774(18)
C13 C 0.1742(4) -0.0333(2) 0.45954(19)
C14 C 0.1314(5) 0.0650(2) 0.33472(19)
C15 C 0.2269(4) 0.1407(2) 0.34915(19)
C16 C 0.0243(6) 0.0617(3) 0.2650(2)
C17 C -0.0464(4) -0.1492(2) 0.38853(19)
C18 C -0.1471(4) -0.1530(2) 0.3175(2)
C19 C -0.0763(5) -0.2120(2) 0.4419(2)
C20 C 0.2666(5) -0.0235(2) 0.5309(2)
C21 C 0.3681(5) 0.0519(3) 0.5479(2)
C22 C 0.2679(5) -0.0896(3) 0.5851(2)
H13 H 0.521(7) 0.236(4) 0.513(3)
H14 H 0.165(6) 0.334(3) 0.4374(19)
H15 H 0.640(5) 0.247(2) 0.319(2)
Co1A Co -0.37187(6) -0.16658(3) 0.15199(3)
N6A N 0.2291(4) 0.34406(19) 0.24021(16)
loop_
_geom_bond_atom_site_label_1
_geom_bond_atom_site_label_2
_geom_bond_site_symmetry_1
_geom_bond_site_symmetry_2
Co1 O1 1_555 1_555
O1 C1 1_555 1_555
O2 Co1 1_555 1_555
N1 Co1 1_555 1_555
N2 N1 1_555 1_555
N3 Co1 1_555 1_555
N4 Co1 1_555 1_555
N5 C16 1_555 1_555
N6 C18 1_555 1_555
N7 C19 1_555 1_555
N8 C21 1_555 1_555
N9 C22 1_555 1_555
C1 H1 1_555 1_555
H2 C1 1_555 1_555
H3 C1 1_555 1_555
C2 O2 1_555 1_555
H4 C2 1_555 1_555
H5 C2 1_555 1_555
H6 C2 1_555 1_555
C3 N2 1_555 1_555
H7 C3 1_555 1_555
C4 C3 1_555 1_555
H8 C4 1_555 1_555
C5 N1 1_555 1_555
C6 N3 1_555 1_555
C7 C6 1_555 1_555
H9 C7 1_555 1_555
C8 C7 1_555 1_555
H10 C8 1_555 1_555
C9 C8 1_555 1_555
H11 C9 1_555 1_555
C10 N3 1_555 1_555
H12 C10 1_555 1_555
C11 C12 1_555 1_555
C12 C13 1_555 1_555
C13 C11 1_555 1_555
C14 C11 1_555 1_555
C15 N4 1_555 1_555
C16 C14 1_555 1_555
C17 C12 1_555 1_555
C18 C17 1_555 1_555
C19 C17 1_555 1_555
C20 C13 1_555 1_555
C21 C20 1_555 1_555
C22 C20 1_555 1_555
H13 N2 1_555 1_555
H14 O1 1_555 1_555
H15 O2 1_555 1_555
Co1A N6 1_555 1_555
N6A Co1 1_555 1_555
C4 C5 1_555 1_555
C5 C6 1_555 1_555
C9 C10 1_555 1_555
C14 C15 1_555 1_555

#END
