
#######################################################################
#
#                 Cambridge Crystallographic Data Centre
#                                CCDC 
#
#######################################################################
#
# If this CIF has been generated from an entry in the Cambridge 
# Structural Database, then it will include bibliographic, chemical, 
# crystal, experimental, refinement or atomic coordinate data resulting 
# from the CCDC's data processing and validation procedures.
#
#######################################################################

data_ODEHAH
_symmetry_cell_setting           monoclinic
_symmetry_space_group_name_H-M   'C 2/m'
_symmetry_Int_Tables_number      12
_space_group_name_Hall           '-C 2y'
loop_
_symmetry_equiv_pos_site_id
_symmetry_equiv_pos_as_xyz
1 x,y,z
2 1/2+x,1/2+y,z
3 -x,y,-z
4 1/2-x,1/2+y,-z
5 -x,-y,-z
6 1/2-x,1/2-y,-z
7 x,-y,z
8 1/2+x,1/2-y,z
_cell_length_a                   6.6012(10)
_cell_length_b                   7.2585(11)
_cell_length_c                   9.8539(16)
_cell_angle_alpha                90
_cell_angle_beta                 92.228(3)
_cell_angle_gamma                90
_cell_volume                     471.791
loop_
_atom_site_label
_atom_site_type_symbol
_atom_site_fract_x
_atom_site_fract_y
_atom_site_fract_z
Cr1 Cr 0.0000 0.5000 0.5000
K1 K 0.0000 0.0000 0.0000
O1 O 0.0638(3) 0.3215(3) 0.3590(2)
O2 O 0.1862(4) 0.3070(4) 0.1521(2)
C1 C 0.1285(4) 0.3925(4) 0.2473(3)
O3 O -0.2885(5) 0.5000 0.4385(3)
H1 H -0.334(6) 0.585(6) 0.400(4)
K1A K 0.5000 0.5000 0.0000
K1_2 K 0.0000 1.0000 0.0000
K1_3 K 0.0000 1.0000 1.0000
K1A_2 K -0.5000 0.5000 1.0000
K1_4 K 0.0000 0.0000 1.0000
O1F O 0.0638(3) 0.6785(3) 0.3590(2)
O1D O -0.0638(3) 0.6785(3) 0.6410(2)
O1B O -0.0638(3) 0.3215(3) 0.6410(2)
O2F O 0.1862(4) 0.6930(4) 0.1521(2)
O2D O -0.1862(4) 0.6930(4) 0.8479(2)
O2B O -0.1862(4) 0.3070(4) 0.8479(2)
O2A O -0.3138(4) -0.1930(4) 0.1521(2)
O2F_2 O 0.1862(4) -0.3070(4) 0.1521(2)
O2G O -0.3138(4) 0.1930(4) 0.1521(2)
O2D_2 O -0.1862(4) -0.3070(4) -0.1521(2)
O2E O 0.3138(4) 0.1930(4) -0.1521(2)
O2B_2 O -0.1862(4) 0.3070(4) -0.1521(2)
O2C O 0.3138(4) -0.1930(4) -0.1521(2)
C1F C 0.1285(4) 0.6075(4) 0.2473(3)
C1D C -0.1285(4) 0.6075(4) 0.7527(3)
C1B C -0.1285(4) 0.3925(4) 0.7527(3)
O3D O 0.2885(5) 0.5000 0.5615(3)
H1F H -0.334(6) 0.415(6) 0.400(4)
H1D H 0.334(6) 0.415(6) 0.600(4)
H1B H 0.334(6) 0.585(6) 0.600(4)
loop_
_geom_bond_atom_site_label_1
_geom_bond_atom_site_label_2
_geom_bond_site_symmetry_1
_geom_bond_site_symmetry_2
Cr1 O1 1_555 1_555
K1 O2 1_555 1_555
O1 C1 1_555 1_555
O2 C1 1_555 1_555
C1 C1F 1_555 1_555
O3 Cr1 1_555 1_555
H1 O3 1_555 1_555
K1A O2 1_555 1_555
K1_2 O2F 1_555 1_555
K1_3 O2D 1_555 1_555
K1A_2 O2D 1_555 1_555
K1_4 O2B 1_555 1_555
O1F Cr1 1_555 1_555
O1D Cr1 1_555 1_555
O1B Cr1 1_555 1_555
O2F K1A 1_555 1_555
O2D C1D 1_555 1_555
O2B K1A_2 1_555 1_555
O2A K1 1_555 1_555
O2F_2 K1 1_555 1_555
O2G K1 1_555 1_555
O2D_2 K1 1_555 1_555
O2E K1 1_555 1_555
O2B_2 K1 1_555 1_555
O2C K1 1_555 1_555
C1F O1F 1_555 1_555
C1D O1D 1_555 1_555
C1B O1B 1_555 1_555
O3D Cr1 1_555 1_555
H1F O3 1_555 1_555
H1D O3D 1_555 1_555
H1B O3D 1_555 1_555
K1A O2E 1_555 1_555
O2F C1F 1_555 1_555
O2B C1B 1_555 1_555
C1D C1B 1_555 1_555

#END
