
#######################################################################
#
#                 Cambridge Crystallographic Data Centre
#                                CCDC 
#
#######################################################################
#
# If this CIF has been generated from an entry in the Cambridge 
# Structural Database, then it will include bibliographic, chemical, 
# crystal, experimental, refinement or atomic coordinate data resulting 
# from the CCDC's data processing and validation procedures.
#
#######################################################################

data_ODEJEO
_symmetry_cell_setting           orthorhombic
_symmetry_space_group_name_H-M   'P b c n'
_symmetry_Int_Tables_number      60
_space_group_name_Hall           '-P 2n 2ab'
loop_
_symmetry_equiv_pos_site_id
_symmetry_equiv_pos_as_xyz
1 x,y,z
2 1/2-x,1/2-y,1/2+z
3 -x,y,1/2-z
4 1/2+x,1/2-y,-z
5 -x,-y,-z
6 1/2+x,1/2+y,1/2-z
7 x,-y,1/2+z
8 1/2-x,1/2+y,z
_cell_length_a                   17.0829(4)
_cell_length_b                   40.0431(7)
_cell_length_c                   13.3183(3)
_cell_angle_alpha                90
_cell_angle_beta                 90
_cell_angle_gamma                90
_cell_volume                     9110.41
loop_
_atom_site_label
_atom_site_type_symbol
_atom_site_fract_x
_atom_site_fract_y
_atom_site_fract_z
N1 N 0.4798(4) 0.16771(17) 0.0785(5)
O1 O 0.6655(3) 0.14984(12) -0.4514(3)
O2 O 0.8219(3) 0.28608(12) -0.0483(3)
Ru1 Ru 0.64305(3) 0.133410(11) 0.06825(3)
Zn1 Zn 0.36486(5) 0.17053(2) 0.07998(6)
C1 C 0.6685(6) 0.06169(16) 0.0816(5)
C2 C 0.6501(5) 0.0275(2) 0.0864(6)
H1 H 0.6893 0.0110 0.0770
C3 C 0.5361(5) 0.0752(2) 0.1163(5)
H2 H 0.4961 0.0914 0.1259
C4 C 0.5161(5) 0.0381(2) 0.1234(5)
H3 H 0.4655 0.0299 0.1399
C5 C 0.5762(5) 0.0189(2) 0.1044(5)
N2 N 0.6070(4) 0.08495(15) 0.0975(4)
C6 C 0.8901(6) 0.1030(3) 0.0294(9)
H4 H 0.9397 0.1133 0.0215
C7 C 0.7432(5) 0.0744(2) 0.0635(6)
C8 C 0.8807(6) 0.0711(3) 0.0297(9)
C9 C 0.8145(6) 0.0533(3) 0.0482(7)
H5 H 0.8136 0.0296 0.0512
N3 N 0.7485(4) 0.10692(15) 0.0574(5)
C10 C 0.6588(4) 0.14232(14) 0.2140(6)
N4 N 0.6666(4) 0.14857(16) 0.2964(4)
N5 N 0.6315(3) 0.12847(12) -0.0886(4)
C11 C 0.5490(8) -0.0186(2) 0.1077(6)
O3 O 0.6145(5) -0.03851(16) 0.0752(5)
O4 O 0.4911(3) -0.02963(13) 0.1303(4)
O5 O 0.9470(6) 0.01819(19) 0.0164(10)
C12 C 0.6316(4) 0.12563(14) -0.2959(5)
C13 C 0.6663(4) 0.15211(15) -0.2449(4)
H6 H 0.6910 0.1695 -0.2816
C14 C 0.6650(4) 0.15326(16) -0.1424(5)
C15 C 0.6003(4) 0.10288(16) -0.1364(5)
H7 H 0.5780 0.0854 -0.0978
C16 C 0.5983(4) 0.10022(15) -0.2414(4)
H8 H 0.5748 0.0816 -0.2736
N6 N 0.6920(3) 0.17714(13) 0.0195(4)
C17 C 0.6968(4) 0.18103(16) -0.0823(5)
C18 C 0.7295(4) 0.20955(16) -0.1230(5)
H9 H 0.7322 0.2119 -0.1940
C19 C 0.7180(4) 0.20226(15) 0.0788(5)
H10 H 0.7129 0.2003 0.1496
C20 C 0.7578(4) 0.23420(17) -0.0638(5)
C21 C 0.7513(4) 0.23034(17) 0.0392(5)
H11 H 0.7702 0.2473 0.0826
C22 C 0.7955(5) 0.26622(19) -0.1115(6)
C23 C 0.6320(4) 0.12514(16) -0.4100(4)
C24 C 0.9543(6) 0.0456(5) 0.0167(15)
C25 C 0.8209(5) 0.1209(3) 0.0415(7)
H12 H 0.8240 0.1446 0.0386
O6 O 1.0191(6) 0.0620(3) -0.0032(13)
O7 O 0.6012(3) 0.10141(12) -0.4537(3)
O8 O 0.7922(5) 0.26858(15) -0.2008(4)
C26 C 0.5406(5) 0.15527(16) 0.0745(5)
O1B O 0.3345(3) 0.14984(12) -0.0486(3)
O2C O 0.3219(3) 0.21392(12) 0.0483(3)
Zn1B Zn 0.63514(5) 0.17053(2) -0.57998(6)
Zn1C Zn 0.86486(5) 0.32947(2) -0.07998(6)
Zn1B_2 Zn 0.63514(5) 0.17053(2) 0.42002(6)
N4B N 0.3334(4) 0.14857(16) 0.2036(4)
loop_
_geom_bond_atom_site_label_1
_geom_bond_atom_site_label_2
_geom_bond_site_symmetry_1
_geom_bond_site_symmetry_2
N1 Zn1 1_555 1_555
O1 C23 1_555 1_555
O2 C22 1_555 1_555
Ru1 N2 1_555 1_555
Zn1 O1B 1_555 1_555
C1 C2 1_555 1_555
C2 H1 1_555 1_555
C3 H2 1_555 1_555
C4 C3 1_555 1_555
H3 C4 1_555 1_555
C5 C2 1_555 1_555
N2 C1 1_555 1_555
C6 H4 1_555 1_555
C7 C1 1_555 1_555
C8 C6 1_555 1_555
C9 C7 1_555 1_555
H5 C9 1_555 1_555
N3 Ru1 1_555 1_555
C10 Ru1 1_555 1_555
N4 C10 1_555 1_555
N5 Ru1 1_555 1_555
C11 C5 1_555 1_555
O3 C11 1_555 1_555
O4 C11 1_555 1_555
O5 C24 1_555 1_555
C12 C13 1_555 1_555
C13 H6 1_555 1_555
C14 N5 1_555 1_555
C15 N5 1_555 1_555
H7 C15 1_555 1_555
C16 C12 1_555 1_555
H8 C16 1_555 1_555
N6 Ru1 1_555 1_555
C17 C14 1_555 1_555
C18 C17 1_555 1_555
H9 C18 1_555 1_555
C19 N6 1_555 1_555
H10 C19 1_555 1_555
C20 C18 1_555 1_555
C21 C19 1_555 1_555
H11 C21 1_555 1_555
C22 C20 1_555 1_555
C23 C12 1_555 1_555
C24 C8 1_555 1_555
C25 C6 1_555 1_555
H12 C25 1_555 1_555
O6 C24 1_555 1_555
O7 C23 1_555 1_555
O8 C22 1_555 1_555
C26 N1 1_555 1_555
O2C Zn1 1_555 1_555
Zn1B O1 1_555 1_555
Zn1C O2 1_555 1_555
Zn1B_2 N4 1_555 1_555
N4B Zn1 1_555 1_555
Ru1 C26 1_555 1_555
C3 N2 1_555 1_555
C4 C5 1_555 1_555
C7 N3 1_555 1_555
C8 C9 1_555 1_555
N3 C25 1_555 1_555
C13 C14 1_555 1_555
C15 C16 1_555 1_555
N6 C17 1_555 1_555
C20 C21 1_555 1_555

#END
