
#######################################################################
#
#                 Cambridge Crystallographic Data Centre
#                                CCDC 
#
#######################################################################
#
# If this CIF has been generated from an entry in the Cambridge 
# Structural Database, then it will include bibliographic, chemical, 
# crystal, experimental, refinement or atomic coordinate data resulting 
# from the CCDC's data processing and validation procedures.
#
#######################################################################

data_ODEJOY01
_symmetry_cell_setting           orthorhombic
_symmetry_space_group_name_H-M   'P n n 2'
_symmetry_Int_Tables_number      34
_space_group_name_Hall           'P 2 -2n'
loop_
_symmetry_equiv_pos_site_id
_symmetry_equiv_pos_as_xyz
1 x,y,z
2 -x,-y,z
3 1/2+x,1/2-y,1/2+z
4 1/2-x,1/2+y,1/2+z
_cell_length_a                   12.872(2)
_cell_length_b                   17.417(3)
_cell_length_c                   20.462(4)
_cell_angle_alpha                90
_cell_angle_beta                 90
_cell_angle_gamma                90
_cell_volume                     4587.41
loop_
_atom_site_label
_atom_site_type_symbol
_atom_site_fract_x
_atom_site_fract_y
_atom_site_fract_z
Mn1 Mn -1.21245(5) 0.47690(3) 0.62410(4)
Mn2 Mn -0.5000 0.0000 0.20029(5)
Mn3 Mn 0.0000 -1.0000 1.05170(5)
O1 O -0.6732(2) 0.02737(17) 0.22838(15)
O2 O -0.9047(2) 0.43128(15) 0.63259(16)
C1 C -0.7018(3) 0.2570(3) 0.4594(2)
C2 C -0.8091(3) 0.2778(2) 0.4855(2)
O3 O -1.0690(3) 0.40349(17) 0.61267(18)
O4 O 0.2846(2) -0.36789(18) 0.6229(3)
C3 C -0.1141(3) -0.2381(3) 0.4506(2)
N1 N 0.2893(3) -0.2392(2) 0.6177(3)
O5 O 0.3509(2) -0.53405(19) 0.64773(19)
C4 C -0.7291(3) 0.2005(3) 0.4053(2)
O6 O 0.3932(3) -0.45639(19) 0.48835(17)
C5 C -0.6343(3) 0.0740(2) 0.2695(2)
C6 C -0.6628(3) 0.1632(2) 0.3627(2)
H1 H -0.5913 0.1701 0.3657
O7 O 0.4743(3) -0.60026(18) 0.60126(17)
C7 C -0.1638(3) -0.1904(2) 0.4004(2)
C8 C -0.8363(3) 0.3284(2) 0.5344(2)
H2 H -0.2146 -0.3551 0.5573
C9 C 0.1984(3) -0.1607(3) 0.2282(2)
H3 H 0.2524 -0.1260 0.2218
O8 O -0.5390(2) 0.08533(17) 0.27276(16)
C10 C 0.2079(3) -0.2204(3) 0.2736(2)
C11 C 0.3254(4) -0.1716(3) 0.3629(3)
H4 H 0.3786 -0.1890 0.3931
H5 H 0.3549 -0.1301 0.3373
C12 C 0.4062(3) -0.5919(2) 0.6437(2)
C13 C 0.2569(4) -0.3085(3) 0.3538(2)
C14 C -0.9421(3) 0.3390(2) 0.5492(2)
C15 C 0.2986(3) -0.2383(3) 0.3164(3)
C16 C 0.2961(4) -0.4569(3) 0.4855(2)
C17 C -0.7048(3) 0.1152(2) 0.3155(2)
C18 C 0.1068(3) -0.1544(2) 0.1929(2)
C19 C -0.3665(3) -0.2202(2) 0.5128(2)
H6 H -0.4323 -0.2057 0.4933
H7 H -0.3809 -0.2588 0.5458
C20 C -0.1880(3) -0.1046(3) 0.3119(2)
H8 H -0.1606 -0.0718 0.2805
O9 O 0.2363(3) -0.4921(2) 0.52350(18)
C21 C 0.1248(3) -0.2706(2) 0.2834(2)
C22 C -0.9733(4) 0.3954(2) 0.6009(2)
C23 C 0.3048(4) -0.3525(3) 0.4016(2)
H9 H 0.3736 -0.3436 0.4132
C24 C -0.3573(3) -0.3274(2) 0.4321(2)
H10 H -0.3689 -0.3630 0.4678
H11 H -0.4249 -0.3102 0.4172
C25 C 0.0254(4) -0.2057(2) 0.2036(3)
H12 H -0.0357 -0.2003 0.1797
C26 C 0.1559(4) -0.3256(3) 0.3341(2)
C27 C 0.2468(4) -0.4109(3) 0.4323(2)
C28 C -0.1225(3) -0.1418(3) 0.3541(2)
H13 H -0.0511 -0.1343 0.3516
C29 C -0.3063(4) -0.3710(3) 0.3769(3)
H14 H -0.2463 -0.3984 0.3936
H15 H -0.2822 -0.3348 0.3442
C30 C 0.3806(4) -0.3143(3) 0.2216(3)
H16 H 0.3289 -0.2943 0.1916
H17 H 0.3539 -0.3617 0.2398
C31 C 0.1463(4) -0.4267(3) 0.4124(2)
H18 H 0.1097 -0.4661 0.4327
C32 C 0.0173(4) -0.2978(3) 0.5147(3)
H19 H 0.0872 -0.3047 0.5248
C33 C -0.3208(4) -0.1500(3) 0.5466(3)
H20 H -0.2576 -0.1652 0.5689
H21 H -0.3019 -0.1127 0.5135
C34 C 0.0989(4) -0.3850(3) 0.3626(3)
H22 H 0.0317 -0.3962 0.3489
C35 C 0.3961(4) -0.2580(3) 0.2755(3)
H23 H 0.4229 -0.2107 0.2569
H24 H 0.4489 -0.2780 0.3048
C36 C -0.0102(4) -0.2474(3) 0.4664(3)
H25 H 0.0405 -0.2195 0.4443
C37 C 0.0333(4) -0.2641(3) 0.2486(3)
H26 H -0.0213 -0.2981 0.2554
C38 C 0.2598(5) -0.3041(3) 0.6417(3)
H27 H 0.2148 -0.3020 0.6772
C39 C -0.3284(7) -0.4720(3) 0.2887(3)
H28 H -0.3771 -0.5078 0.2703
H29 H -0.2690 -0.4993 0.3049
H30 H -0.3068 -0.4364 0.2555
C40 C -0.3805(4) -0.4279(3) 0.3452(3)
H31 H -0.4406 -0.4005 0.3286
H32 H -0.4044 -0.4642 0.3778
C41 C -0.3924(4) -0.1119(3) 0.5954(3)
H33 H -0.4550 -0.0960 0.5728
H34 H -0.4125 -0.1497 0.6278
C42 C 0.2367(4) -0.1404(3) 0.4017(3)
H35 H 0.2142 -0.1793 0.4326
H36 H 0.1791 -0.1304 0.3723
C43 C 0.4800(4) -0.3317(4) 0.1835(3)
H37 H 0.5078 -0.2839 0.1666
H38 H 0.5310 -0.3528 0.2135
C44 C 0.4666(6) -0.3867(4) 0.1276(4)
H39 H 0.5321 -0.3940 0.1060
H40 H 0.4172 -0.3661 0.0971
H41 H 0.4418 -0.4350 0.1438
C45 C 0.1607(7) -0.0373(4) 0.4751(4)
H42 H 0.1767 0.0082 0.4995
H43 H 0.1357 -0.0764 0.5042
H44 H 0.1082 -0.0258 0.4432
C46 C 0.2615(5) -0.0667(3) 0.4394(3)
H45 H 0.2864 -0.0277 0.4094
H46 H 0.3156 -0.0767 0.4712
C47 C 0.3540(6) -0.2397(5) 0.5592(4)
H47 H 0.3650 -0.2917 0.5453
H48 H 0.3199 -0.2115 0.5251
H49 H 0.4197 -0.2161 0.5688
C48 C -0.3487(5) -0.0439(3) 0.6301(4)
H50 H -0.3996 -0.0237 0.6598
H51 H -0.3303 -0.0051 0.5988
H52 H -0.2879 -0.0590 0.6541
C49 C 0.2653(6) -0.1677(4) 0.6464(6)
H53 H 0.2235 -0.1758 0.6846
H54 H 0.3284 -0.1420 0.6584
H55 H 0.2276 -0.1368 0.6157
Mn1A Mn -0.78755(5) 0.52310(3) 0.62410(4)
Mn1B Mn -0.71245(5) 0.02310(3) 0.12410(4)
Mn1C Mn -0.28755(5) -0.02310(3) 0.12410(4)
Mn1_2 Mn -0.21245(5) -0.52310(3) 0.62410(4)
Mn1A_2 Mn 0.21245(5) -0.47690(3) 0.62410(4)
Mn1B_2 Mn 0.28755(5) 0.02310(3) 0.12410(4)
Mn1B_3 Mn 0.28755(5) -0.97690(3) 1.12410(4)
Mn2B Mn -1.0000 0.5000 0.70029(5)
Mn2B_2 Mn 0.0000 -0.5000 0.70029(5)
Mn3B Mn 0.5000 -0.5000 0.55170(5)
Mn3_2 Mn 0.0000 0.0000 0.05170(5)
O1B O -1.1732(2) 0.47263(17) 0.72838(15)
O1A O -0.3268(2) -0.02737(17) 0.22838(15)
O1C O 0.1732(2) -0.47263(17) 0.72838(15)
O2A O -1.0953(2) 0.56872(15) 0.63259(16)
O2B O -0.4047(2) 0.06872(15) 0.13259(16)
O2C O -0.5953(2) -0.06872(15) 0.13259(16)
O2A_2 O -0.0953(2) -0.43128(15) 0.63259(16)
O2_2 O 0.0953(2) -0.56872(15) 0.63259(16)
C1A C -0.2982(3) -0.2570(3) 0.4594(2)
C2A C -0.1909(3) -0.2778(2) 0.4855(2)
O3A O 0.0690(3) -0.40349(17) 0.61267(18)
O4A O -1.2846(2) 0.36789(18) 0.6229(3)
C3A C -0.8859(3) 0.2381(3) 0.4506(2)
N1A N -1.2893(3) 0.2392(2) 0.6177(3)
O5A O -1.3509(2) 0.53405(19) 0.64773(19)
O5C O 0.1491(2) -0.03405(19) 0.14773(19)
C4A C -0.2709(3) -0.2005(3) 0.4053(2)
O6C O 0.1068(3) -0.95639(19) 0.98835(17)
O6B O -0.1068(3) -1.04361(19) 0.98835(17)
C5A C -0.3657(3) -0.0740(2) 0.2695(2)
C6A C -0.3372(3) -0.1632(2) 0.3627(2)
H1A H -0.4087 -0.1701 0.3657
O7C O 0.0257(3) -0.10026(18) 0.10126(17)
O7C_2 O 0.0257(3) -1.10026(18) 1.10126(17)
O7B O -0.0257(3) -0.89974(18) 1.10126(17)
C7A C -0.8362(3) 0.1904(2) 0.4004(2)
C8A C -0.1637(3) -0.3284(2) 0.5344(2)
H2A H -0.7854 0.3551 0.5573
C9C C 0.3016(3) -0.6607(3) 0.7282(2)
H3C H 0.2476 -0.6260 0.7218
O8A O -0.4610(2) -0.08533(17) 0.27276(16)
C10C C 0.2921(3) -0.7204(3) 0.7736(2)
C11C C 0.1746(4) -0.6716(3) 0.8629(3)
H4C H 0.1214 -0.6890 0.8931
H5C H 0.1451 -0.6301 0.8373
C12C C 0.0938(3) -0.0919(2) 0.1437(2)
C13C C 0.2431(4) -0.8085(3) 0.8538(2)
C14A C -0.0579(3) -0.3390(2) 0.5492(2)
C15C C 0.2014(3) -0.7383(3) 0.8164(3)
C16C C 0.2039(4) -0.9569(3) 0.9855(2)
C17A C -0.2952(3) -0.1152(2) 0.3155(2)
C18C C 0.3932(3) -0.6544(2) 0.6929(2)
C19A C -0.6335(3) 0.2202(2) 0.5128(2)
H6A H -0.5677 0.2057 0.4933
H7A H -0.6191 0.2588 0.5458
C20A C -0.8120(3) 0.1046(3) 0.3119(2)
H8A H -0.8394 0.0718 0.2805
O9C O 0.2637(3) -0.9921(2) 1.02350(18)
O9A O -1.2363(3) 0.4921(2) 0.52350(18)
C21C C 0.3752(3) -0.7706(2) 0.7834(2)
C22A C -0.0267(4) -0.3954(2) 0.6009(2)
C23C C 0.1952(4) -0.8525(3) 0.9016(2)
H9C H 0.1264 -0.8436 0.9132
C24A C -0.6427(3) 0.3274(2) 0.4321(2)
H10A H -0.6311 0.3630 0.4678
H11A H -0.5751 0.3102 0.4172
C25C C 0.4746(4) -0.7057(2) 0.7036(3)
H12C H 0.5357 -0.7003 0.6797
C26C C 0.3441(4) -0.8256(3) 0.8341(2)
C27C C 0.2532(4) -0.9109(3) 0.9323(2)
C28A C -0.8775(3) 0.1418(3) 0.3541(2)
H13A H -0.9489 0.1343 0.3516
C29A C -0.6937(4) 0.3710(3) 0.3769(3)
H14A H -0.7537 0.3984 0.3936
H15A H -0.7178 0.3348 0.3442
C30C C 0.1194(4) -0.8143(3) 0.7216(3)
H16C H 0.1711 -0.7943 0.6916
H17C H 0.1461 -0.8617 0.7398
C31C C 0.3537(4) -0.9267(3) 0.9124(2)
H18C H 0.3903 -0.9661 0.9327
C32A C -1.0173(4) 0.2978(3) 0.5147(3)
H19A H -1.0872 0.3047 0.5248
C33A C -0.6792(4) 0.1500(3) 0.5466(3)
H20A H -0.7424 0.1652 0.5689
H21A H -0.6981 0.1127 0.5135
C34C C 0.4011(4) -0.8850(3) 0.8626(3)
H22C H 0.4683 -0.8962 0.8489
C35C C 0.1039(4) -0.7580(3) 0.7755(3)
H23C H 0.0771 -0.7107 0.7569
H24C H 0.0511 -0.7780 0.8048
C36A C -0.9898(4) 0.2474(3) 0.4664(3)
H25A H -1.0405 0.2195 0.4443
C37C C 0.4667(4) -0.7641(3) 0.7486(3)
H26C H 0.5213 -0.7981 0.7554
C38A C -1.2598(5) 0.3041(3) 0.6417(3)
H27A H -1.2148 0.3020 0.6772
C39A C -0.6716(7) 0.4720(3) 0.2887(3)
H28A H -0.6229 0.5078 0.2703
H29A H -0.7310 0.4993 0.3049
H30A H -0.6932 0.4364 0.2555
C40A C -0.6195(4) 0.4279(3) 0.3452(3)
H31A H -0.5594 0.4005 0.3286
H32A H -0.5956 0.4642 0.3778
C41A C -0.6076(4) 0.1119(3) 0.5954(3)
H33A H -0.5450 0.0960 0.5728
H34A H -0.5875 0.1497 0.6278
C42C C 0.2633(4) -0.6404(3) 0.9017(3)
H35C H 0.2858 -0.6793 0.9326
H36C H 0.3209 -0.6304 0.8723
C43C C 0.0200(4) -0.8317(4) 0.6835(3)
H37C H -0.0078 -0.7839 0.6666
H38C H -0.0310 -0.8528 0.7135
C44C C 0.0334(6) -0.8867(4) 0.6276(4)
H39C H -0.0321 -0.8940 0.6060
H40C H 0.0828 -0.8661 0.5971
H41C H 0.0582 -0.9350 0.6438
C45C C 0.3393(7) -0.5373(4) 0.9751(4)
H42C H 0.3233 -0.4918 0.9995
H43C H 0.3643 -0.5764 1.0042
H44C H 0.3918 -0.5258 0.9432
C46C C 0.2385(5) -0.5667(3) 0.9394(3)
H45C H 0.2136 -0.5277 0.9094
H46C H 0.1844 -0.5767 0.9712
C47A C -1.3540(6) 0.2397(5) 0.5592(4)
H47A H -1.3650 0.2917 0.5453
H48A H -1.3199 0.2115 0.5251
H49A H -1.4197 0.2161 0.5688
C48A C -0.6513(5) 0.0439(3) 0.6301(4)
H50A H -0.6004 0.0237 0.6598
H51A H -0.6697 0.0051 0.5988
H52A H -0.7121 0.0590 0.6541
C49A C -1.2653(6) 0.1677(4) 0.6464(6)
H53A H -1.2235 0.1758 0.6846
H54A H -1.3284 0.1420 0.6584
H55A H -1.2276 0.1368 0.6157
loop_
_geom_bond_atom_site_label_1
_geom_bond_atom_site_label_2
_geom_bond_site_symmetry_1
_geom_bond_site_symmetry_2
Mn1 O3 1_555 1_555
Mn2 O1 1_555 1_555
Mn3 O6C 1_555 1_555
O1 C5 1_555 1_555
O2 C22 1_555 1_555
C1 C2 1_555 1_555
C2 C8 1_555 1_555
O3 C22 1_555 1_555
O4 C38 1_555 1_555
C3 C7 1_555 1_555
N1 C38 1_555 1_555
O5 C12 1_555 1_555
C4 C1 1_555 1_555
O6 C16 1_555 1_555
C5 O8 1_555 1_555
C6 C4 1_555 1_555
H1 C6 1_555 1_555
O7 C12 1_555 1_555
C7 C28 1_555 1_555
C8 C14 1_555 1_555
H2 C8A 1_555 1_555
C9 H3 1_555 1_555
O8 Mn2 1_555 1_555
C10 C9 1_555 1_555
C11 H4 1_555 1_555
H5 C11 1_555 1_555
C12 C18C 1_555 1_555
C13 C15 1_555 1_555
C14 C22 1_555 1_555
C15 C10 1_555 1_555
C16 O9 1_555 1_555
C17 C5 1_555 1_555
C18 C9 1_555 1_555
C19 H6 1_555 1_555
H7 C19 1_555 1_555
C20 H8 1_555 1_555
O9 Mn1A_2 1_555 1_555
C21 C10 1_555 1_555
C23 C13 1_555 1_555
H9 C23 1_555 1_555
C24 H10 1_555 1_555
H11 C24 1_555 1_555
C25 C18 1_555 1_555
H12 C25 1_555 1_555
C26 C13 1_555 1_555
C27 C16 1_555 1_555
C28 C20 1_555 1_555
H13 C28 1_555 1_555
C29 C24 1_555 1_555
H14 C29 1_555 1_555
H15 C29 1_555 1_555
C30 H16 1_555 1_555
H17 C30 1_555 1_555
C31 C27 1_555 1_555
H18 C31 1_555 1_555
C32 H19 1_555 1_555
C33 C19 1_555 1_555
H20 C33 1_555 1_555
H21 C33 1_555 1_555
C34 C26 1_555 1_555
H22 C34 1_555 1_555
C35 C15 1_555 1_555
H23 C35 1_555 1_555
H24 C35 1_555 1_555
C36 C3 1_555 1_555
H25 C36 1_555 1_555
C37 C21 1_555 1_555
H26 C37 1_555 1_555
C38 H27 1_555 1_555
C39 H28 1_555 1_555
H29 C39 1_555 1_555
H30 C39 1_555 1_555
C40 C29 1_555 1_555
H31 C40 1_555 1_555
H32 C40 1_555 1_555
C41 C33 1_555 1_555
H33 C41 1_555 1_555
H34 C41 1_555 1_555
C42 C11 1_555 1_555
H35 C42 1_555 1_555
H36 C42 1_555 1_555
C43 C30 1_555 1_555
H37 C43 1_555 1_555
H38 C43 1_555 1_555
C44 C43 1_555 1_555
H39 C44 1_555 1_555
H40 C44 1_555 1_555
H41 C44 1_555 1_555
C45 H42 1_555 1_555
H43 C45 1_555 1_555
H44 C45 1_555 1_555
C46 C42 1_555 1_555
H45 C46 1_555 1_555
H46 C46 1_555 1_555
C47 N1 1_555 1_555
H47 C47 1_555 1_555
H48 C47 1_555 1_555
H49 C47 1_555 1_555
C48 C41 1_555 1_555
H50 C48 1_555 1_555
H51 C48 1_555 1_555
H52 C48 1_555 1_555
C49 N1 1_555 1_555
H53 C49 1_555 1_555
H54 C49 1_555 1_555
H55 C49 1_555 1_555
Mn1A O2 1_555 1_555
Mn1B O1 1_555 1_555
Mn1C O1A 1_555 1_555
Mn1_2 O2A_2 1_555 1_555
Mn1A_2 O4 1_555 1_555
Mn1B_2 O5C 1_555 1_555
Mn1B_3 O9C 1_555 1_555
Mn2B O2 1_555 1_555
Mn2B_2 O1C 1_555 1_555
Mn3B O6 1_555 1_555
Mn3_2 O7C 1_555 1_555
O1B Mn1 1_555 1_555
O1A Mn2 1_555 1_555
O1C Mn1A_2 1_555 1_555
O2A Mn1 1_555 1_555
O2B Mn2 1_555 1_555
O2C Mn2 1_555 1_555
O2A_2 Mn2B_2 1_555 1_555
O2_2 Mn1A_2 1_555 1_555
C1A C19 1_555 1_555
C2A C3 1_555 1_555
O3A Mn1A_2 1_555 1_555
O4A Mn1 1_555 1_555
C3A C2 1_555 1_555
N1A C38A 1_555 1_555
O5A Mn1 1_555 1_555
O5C C12C 1_555 1_555
C4A C7 1_555 1_555
O6C C16C 1_555 1_555
O6B Mn3 1_555 1_555
C5A O1A 1_555 1_555
C6A C4A 1_555 1_555
H1A C6A 1_555 1_555
O7C C12C 1_555 1_555
O7C_2 Mn3 1_555 1_555
O7B Mn3 1_555 1_555
C7A C4 1_555 1_555
C8A C2A 1_555 1_555
H2A C8 1_555 1_555
C9C H3C 1_555 1_555
O8A Mn2 1_555 1_555
C10C C9C 1_555 1_555
C11C H4C 1_555 1_555
H5C C11C 1_555 1_555
C12C C18 1_555 1_555
C13C C15C 1_555 1_555
C14A C32 1_555 1_555
C15C C10C 1_555 1_555
C16C O9C 1_555 1_555
C17A C20 1_555 1_555
C18C C9C 1_555 1_555
C19A C1 1_555 1_555
H6A C19A 1_555 1_555
H7A C19A 1_555 1_555
C20A C17 1_555 1_555
H8A C20A 1_555 1_555
O9A Mn1 1_555 1_555
C21C C10C 1_555 1_555
C22A O2A_2 1_555 1_555
C23C C13C 1_555 1_555
H9C C23C 1_555 1_555
C24A C1 1_555 1_555
H10A C24A 1_555 1_555
H11A C24A 1_555 1_555
C25C C18C 1_555 1_555
H12C C25C 1_555 1_555
C26C C13C 1_555 1_555
C27C C16C 1_555 1_555
C28A C7A 1_555 1_555
H13A C28A 1_555 1_555
C29A C24A 1_555 1_555
H14A C29A 1_555 1_555
H15A C29A 1_555 1_555
C30C H16C 1_555 1_555
H17C C30C 1_555 1_555
C31C C27C 1_555 1_555
H18C C31C 1_555 1_555
C32A C14 1_555 1_555
H19A C32A 1_555 1_555
C33A C19A 1_555 1_555
H20A C33A 1_555 1_555
H21A C33A 1_555 1_555
C34C C26C 1_555 1_555
H22C C34C 1_555 1_555
C35C C15C 1_555 1_555
H23C C35C 1_555 1_555
H24C C35C 1_555 1_555
C36A C3A 1_555 1_555
H25A C36A 1_555 1_555
C37C C21C 1_555 1_555
H26C C37C 1_555 1_555
C38A O4A 1_555 1_555
H27A C38A 1_555 1_555
C39A H28A 1_555 1_555
H29A C39A 1_555 1_555
H30A C39A 1_555 1_555
C40A C29A 1_555 1_555
H31A C40A 1_555 1_555
H32A C40A 1_555 1_555
C41A C33A 1_555 1_555
H33A C41A 1_555 1_555
H34A C41A 1_555 1_555
C42C C11C 1_555 1_555
H35C C42C 1_555 1_555
H36C C42C 1_555 1_555
C43C C30C 1_555 1_555
H37C C43C 1_555 1_555
H38C C43C 1_555 1_555
C44C C43C 1_555 1_555
H39C C44C 1_555 1_555
H40C C44C 1_555 1_555
H41C C44C 1_555 1_555
C45C H42C 1_555 1_555
H43C C45C 1_555 1_555
H44C C45C 1_555 1_555
C46C C42C 1_555 1_555
H45C C46C 1_555 1_555
H46C C46C 1_555 1_555
C47A N1A 1_555 1_555
H47A C47A 1_555 1_555
H48A C47A 1_555 1_555
H49A C47A 1_555 1_555
C48A C41A 1_555 1_555
H50A C48A 1_555 1_555
H51A C48A 1_555 1_555
H52A C48A 1_555 1_555
C49A N1A 1_555 1_555
H53A C49A 1_555 1_555
H54A C49A 1_555 1_555
H55A C49A 1_555 1_555
O5 Mn1A_2 1_555 1_555
C6 C17 1_555 1_555
O7 Mn3B 1_555 1_555
C11 C15 1_555 1_555
C21 C26 1_555 1_555
C23 C27 1_555 1_555
C24 C1A 1_555 1_555
C25 C37 1_555 1_555
C30 C35 1_555 1_555
C31 C34 1_555 1_555
C32 C36 1_555 1_555
C39 C40 1_555 1_555
C45 C46 1_555 1_555
Mn1B O2C 1_555 1_555
Mn1C O2B 1_555 1_555
Mn2B O1B 1_555 1_555
Mn2B O2A 1_555 1_555
Mn2B_2 O2_2 1_555 1_555
C1A C2A 1_555 1_555
C1A C4A 1_555 1_555
O3A C22A 1_555 1_555
C3A C7A 1_555 1_555
C5A O8A 1_555 1_555
C5A C17A 1_555 1_555
C6A C17A 1_555 1_555
C8A C14A 1_555 1_555
C11C C15C 1_555 1_555
C14A C22A 1_555 1_555
C20A C28A 1_555 1_555
C21C C26C 1_555 1_555
C23C C27C 1_555 1_555
C25C C37C 1_555 1_555
C30C C35C 1_555 1_555
C31C C34C 1_555 1_555
C32A C36A 1_555 1_555
C39A C40A 1_555 1_555
C45C C46C 1_555 1_555

#END
