
#######################################################################
#
#                 Cambridge Crystallographic Data Centre
#                                CCDC 
#
#######################################################################
#
# If this CIF has been generated from an entry in the Cambridge 
# Structural Database, then it will include bibliographic, chemical, 
# crystal, experimental, refinement or atomic coordinate data resulting 
# from the CCDC's data processing and validation procedures.
#
#######################################################################

data_ODENIW
_symmetry_cell_setting           triclinic
_symmetry_space_group_name_H-M   'P -1'
_symmetry_Int_Tables_number      2
_space_group_name_Hall           '-P 1'
loop_
_symmetry_equiv_pos_site_id
_symmetry_equiv_pos_as_xyz
1 x,y,z
2 -x,-y,-z
_cell_length_a                   8.162(5)
_cell_length_b                   9.500(5)
_cell_length_c                   11.148(5)
_cell_angle_alpha                102.623(5)
_cell_angle_beta                 98.607(5)
_cell_angle_gamma                113.004(5)
_cell_volume                     749.376
loop_
_atom_site_label
_atom_site_type_symbol
_atom_site_fract_x
_atom_site_fract_y
_atom_site_fract_z
Cd1 Cd 0.88443(4) 0.42651(3) 0.83596(3)
P1 P 1.07375(14) 0.21704(11) 0.98402(9)
O1 O 1.0477(4) 0.3675(3) 0.9835(3)
O2 O 1.0613(5) 0.1764(3) 1.1063(3)
H1 H 1.0603 0.0882 1.0984
O3 O 0.9254(4) 0.0778(4) 0.8653(3)
O4 O 1.6017(5) 0.4303(5) 0.7718(4)
N1 N 1.1401(5) 0.5799(4) 0.7713(3)
O5 O 1.6035(5) 0.2549(5) 0.8691(4)
N2 N 0.8861(5) 0.2692(4) 0.6446(3)
C1 C 1.0184(6) 0.3427(6) 0.5892(4)
C2 C 1.5260(6) 0.3307(5) 0.8271(4)
C3 C 1.0281(7) 0.2644(6) 0.4691(4)
C4 C 1.2975(7) 0.4998(8) 0.4788(5)
H2 H 1.3886 0.5522 0.4417
C5 C 0.7655(7) 0.1178(6) 0.5860(5)
H3 H 0.6772 0.0665 0.6255
C6 C 1.2674(6) 0.7275(6) 0.8352(5)
H4 H 1.2581 0.7779 0.9137
C7 C 1.2966(6) 0.5821(6) 0.6028(4)
C8 C 1.1706(7) 0.3497(7) 0.4151(5)
H5 H 1.1749 0.3001 0.3347
C9 C 1.2941(6) 0.2436(5) 0.9577(4)
H6 H 1.3891 0.3165 1.0349
H7 H 1.2991 0.1410 0.9424
C10 C 1.4153(7) 0.8108(6) 0.7891(5)
H8 H 1.5029 0.9141 0.8365
C11 C 1.4288(7) 0.7380(7) 0.6740(5)
H9 H 1.5262 0.7919 0.6423
C12 C 1.1539(6) 0.5054(5) 0.6560(4)
C13 C 1.3382(6) 0.3084(6) 0.8471(4)
H10 H 1.2440 0.2352 0.7697
H11 H 1.3331 0.4109 0.8621
C14 C 0.7659(8) 0.0314(7) 0.4657(5)
H12 H 0.6784 -0.0743 0.4265
C15 C 0.8960(8) 0.1049(7) 0.4081(5)
H13 H 0.8975 0.0498 0.3286
Cd1A Cd 1.11557(4) 0.57349(3) 1.16404(3)
Cd1_2 Cd 1.88443(4) 0.42651(3) 0.83596(3)
O1A O 0.9523(4) 0.6325(3) 1.0165(3)
O4_2 O 0.6017(5) 0.4303(5) 0.7718(4)
O5_2 O 0.6035(5) 0.2549(5) 0.8691(4)
loop_
_geom_bond_atom_site_label_1
_geom_bond_atom_site_label_2
_geom_bond_site_symmetry_1
_geom_bond_site_symmetry_2
Cd1 O1 1_555 1_555
P1 O1 1_555 1_555
O1 Cd1A 1_555 1_555
O2 P1 1_555 1_555
H1 O2 1_555 1_555
O3 P1 1_555 1_555
O4 C2 1_555 1_555
N1 Cd1 1_555 1_555
O5 C2 1_555 1_555
N2 Cd1 1_555 1_555
C1 N2 1_555 1_555
C2 C13 1_555 1_555
C3 C1 1_555 1_555
C4 H2 1_555 1_555
C5 N2 1_555 1_555
H3 C5 1_555 1_555
C6 N1 1_555 1_555
H4 C6 1_555 1_555
C7 C4 1_555 1_555
C8 C3 1_555 1_555
H5 C8 1_555 1_555
C9 P1 1_555 1_555
H6 C9 1_555 1_555
H7 C9 1_555 1_555
C10 C6 1_555 1_555
H8 C10 1_555 1_555
C11 C7 1_555 1_555
H9 C11 1_555 1_555
C12 N1 1_555 1_555
C13 C9 1_555 1_555
H10 C13 1_555 1_555
H11 C13 1_555 1_555
C14 C5 1_555 1_555
H12 C14 1_555 1_555
C15 C3 1_555 1_555
H13 C15 1_555 1_555
Cd1A O1A 1_555 1_555
Cd1_2 O4 1_555 1_555
O1A Cd1 1_555 1_555
O4_2 Cd1 1_555 1_555
O5_2 Cd1 1_555 1_555
O5 Cd1_2 1_555 1_555
C1 C12 1_555 1_555
C4 C8 1_555 1_555
C7 C12 1_555 1_555
C10 C11 1_555 1_555
C14 C15 1_555 1_555

#END
