
#######################################################################
#
#                 Cambridge Crystallographic Data Centre
#                                CCDC 
#
#######################################################################
#
# If this CIF has been generated from an entry in the Cambridge 
# Structural Database, then it will include bibliographic, chemical, 
# crystal, experimental, refinement or atomic coordinate data resulting 
# from the CCDC's data processing and validation procedures.
#
#######################################################################

data_ODEPIW
_symmetry_cell_setting           tetragonal
_symmetry_space_group_name_H-M   'P -4 b 2'
_symmetry_Int_Tables_number      117
_space_group_name_Hall           'P -4 -2ab'
loop_
_symmetry_equiv_pos_site_id
_symmetry_equiv_pos_as_xyz
1 x,y,z
2 -x,-y,z
3 y,-x,-z
4 -y,x,-z
5 1/2+x,1/2-y,z
6 1/2-x,1/2+y,z
7 1/2+y,1/2+x,-z
8 1/2-y,1/2-x,-z
_cell_length_a                   14.0882(10)
_cell_length_b                   14.0882(10)
_cell_length_c                   3.7707(4)
_cell_angle_alpha                90
_cell_angle_beta                 90
_cell_angle_gamma                90
_cell_volume                     748.399
loop_
_atom_site_label
_atom_site_type_symbol
_atom_site_fract_x
_atom_site_fract_y
_atom_site_fract_z
Cd1 Cd 0.5000 0.0000 0.5000
Cl1 Cl 0.40944(4) 0.09056(4) 0.0000
Cl2 Cl 0.63531(7) 0.38973(6) 0.7422(3)
N1 N 0.61916(14) 0.11916(14) 0.5000
C1 C 0.5987(2) 0.2075(2) 0.5994(8)
H1 H 0.5337 0.2229 0.6724
C2 C 0.6663(2) 0.2774(2) 0.6021(8)
C3 C 0.75787(18) 0.25787(18) 0.5000
H2 H 0.8071 0.3071 0.5000
C1F C 0.7075(2) 0.0987(2) 0.4006(8)
H1F H 0.7229 0.0337 0.3276
C2F C 0.7774(2) 0.1663(2) 0.3979(8)
Cl2F Cl 0.88973(6) 0.13531(7) 0.2578(3)
Cl1_2 Cl 0.40944(4) 0.09056(4) 1.0000
Cl2A Cl 0.36469(7) -0.38973(6) 0.7422(3)
N1A N 0.38084(14) -0.11916(14) 0.5000
C1A C 0.4013(2) -0.2075(2) 0.5994(8)
H1A H 0.4663 -0.2229 0.6724
C2A C 0.3337(2) -0.2774(2) 0.6021(8)
C3A C 0.24213(18) -0.25787(18) 0.5000
H2A H 0.1929 -0.3071 0.5000
C1G C 0.2925(2) -0.0987(2) 0.4006(8)
H1G H 0.2771 -0.0337 0.3276
C2G C 0.2226(2) -0.1663(2) 0.3979(8)
Cl2G Cl 0.11027(6) -0.13531(7) 0.2578(3)
Cl1A Cl 0.59056(4) -0.09056(4) 0.0000
Cl1A_2 Cl 0.59056(4) -0.09056(4) 1.0000
Cd1_2 Cd 0.5000 0.0000 -0.5000
Cd1_3 Cd 0.5000 0.0000 1.5000
loop_
_geom_bond_atom_site_label_1
_geom_bond_atom_site_label_2
_geom_bond_site_symmetry_1
_geom_bond_site_symmetry_2
Cd1 Cl1 1_555 1_555
Cl1 Cd1_2 1_555 1_555
Cl2 C2 1_555 1_555
N1 Cd1 1_555 1_555
C1 N1 1_555 1_555
H1 C1 1_555 1_555
C2 C1 1_555 1_555
C3 C2 1_555 1_555
H2 C3 1_555 1_555
C1F N1 1_555 1_555
H1F C1F 1_555 1_555
C2F C3 1_555 1_555
Cl2F C2F 1_555 1_555
Cl1_2 Cd1 1_555 1_555
Cl2A C2A 1_555 1_555
N1A Cd1 1_555 1_555
C1A N1A 1_555 1_555
H1A C1A 1_555 1_555
C2A C1A 1_555 1_555
C3A C2A 1_555 1_555
H2A C3A 1_555 1_555
C1G N1A 1_555 1_555
H1G C1G 1_555 1_555
C2G C3A 1_555 1_555
Cl2G C2G 1_555 1_555
Cl1A Cd1 1_555 1_555
Cl1A_2 Cd1 1_555 1_555
Cd1_2 Cl1A 1_555 1_555
Cd1_3 Cl1_2 1_555 1_555
C1F C2F 1_555 1_555
C1G C2G 1_555 1_555
Cl1A_2 Cd1_3 1_555 1_555

#END
