
#######################################################################
#
#                 Cambridge Crystallographic Data Centre
#                                CCDC 
#
#######################################################################
#
# If this CIF has been generated from an entry in the Cambridge 
# Structural Database, then it will include bibliographic, chemical, 
# crystal, experimental, refinement or atomic coordinate data resulting 
# from the CCDC's data processing and validation procedures.
#
#######################################################################

data_ODEPUI
_symmetry_cell_setting           tetragonal
_symmetry_space_group_name_H-M   'P -4 b 2'
_symmetry_Int_Tables_number      117
_space_group_name_Hall           'P -4 -2ab'
loop_
_symmetry_equiv_pos_site_id
_symmetry_equiv_pos_as_xyz
1 x,y,z
2 -x,-y,z
3 y,-x,-z
4 -y,x,-z
5 1/2+x,1/2-y,z
6 1/2-x,1/2+y,z
7 1/2+y,1/2+x,-z
8 1/2-y,1/2-x,-z
_cell_length_a                   14.1909(11)
_cell_length_b                   14.1909(11)
_cell_length_c                   3.8790(4)
_cell_angle_alpha                90
_cell_angle_beta                 90
_cell_angle_gamma                90
_cell_volume                     781.159
loop_
_atom_site_label
_atom_site_type_symbol
_atom_site_fract_x
_atom_site_fract_y
_atom_site_fract_z
Cd1 Cd 0.5000 0.0000 0.5000
Cl1 Cl 0.40953(4) 0.09047(4) 0.0000
N1 N 0.61679(13) 0.11679(13) 0.5000
C1 C 0.5990(2) 0.2036(2) 0.6142(8)
H1 H 0.5355 0.2172 0.7003
C2 C 0.6642(3) 0.2754(2) 0.6186(8)
C3 C 0.75390(19) 0.25390(19) 0.5000
H2 H 0.8027 0.3027 0.5000
C4 C 0.6398(3) 0.3717(2) 0.7494(10)
H3 H 0.6167 0.4105 0.5582
H4 H 0.6960 0.4011 0.8496
H5 H 0.5907 0.3665 0.9261
C2F C 0.7754(2) 0.1642(3) 0.3814(8)
C1F C 0.7036(2) 0.0990(2) 0.3858(8)
H1F H 0.7172 0.0355 0.2997
C4F C 0.8717(2) 0.1398(3) 0.2506(10)
H3F H 0.9105 0.1167 0.4418
H4F H 0.9011 0.1960 0.1504
H5F H 0.8665 0.0907 0.0739
Cl1_2 Cl 0.40953(4) 0.09047(4) 1.0000
N1A N 0.38321(13) -0.11679(13) 0.5000
C1A C 0.4010(2) -0.2036(2) 0.6142(8)
H1A H 0.4645 -0.2172 0.7003
C2A C 0.3358(3) -0.2754(2) 0.6186(8)
C3A C 0.24610(19) -0.25390(19) 0.5000
H2A H 0.1973 -0.3027 0.5000
C4A C 0.3602(3) -0.3717(2) 0.7494(10)
H3A H 0.3833 -0.4105 0.5582
H4A H 0.3040 -0.4011 0.8496
H5A H 0.4093 -0.3665 0.9261
C2G C 0.2246(2) -0.1642(3) 0.3814(8)
C1G C 0.2964(2) -0.0990(2) 0.3858(8)
H1G H 0.2828 -0.0355 0.2997
C4G C 0.1283(2) -0.1398(3) 0.2506(10)
H3G H 0.0895 -0.1167 0.4418
H4G H 0.0989 -0.1960 0.1504
H5G H 0.1335 -0.0907 0.0739
Cl1A Cl 0.59047(4) -0.09047(4) 0.0000
Cl1A_2 Cl 0.59047(4) -0.09047(4) 1.0000
Cd1_2 Cd 0.5000 0.0000 -0.5000
Cd1_3 Cd 0.5000 0.0000 1.5000
loop_
_geom_bond_atom_site_label_1
_geom_bond_atom_site_label_2
_geom_bond_site_symmetry_1
_geom_bond_site_symmetry_2
Cd1 Cl1 1_555 1_555
Cl1 Cd1_2 1_555 1_555
N1 Cd1 1_555 1_555
C1 N1 1_555 1_555
H1 C1 1_555 1_555
C2 C1 1_555 1_555
C3 C2 1_555 1_555
H2 C3 1_555 1_555
C4 C2 1_555 1_555
H3 C4 1_555 1_555
H4 C4 1_555 1_555
H5 C4 1_555 1_555
C2F C3 1_555 1_555
C1F N1 1_555 1_555
H1F C1F 1_555 1_555
C4F C2F 1_555 1_555
H3F C4F 1_555 1_555
H4F C4F 1_555 1_555
H5F C4F 1_555 1_555
Cl1_2 Cd1 1_555 1_555
N1A Cd1 1_555 1_555
C1A N1A 1_555 1_555
H1A C1A 1_555 1_555
C2A C1A 1_555 1_555
C3A C2A 1_555 1_555
H2A C3A 1_555 1_555
C4A C2A 1_555 1_555
H3A C4A 1_555 1_555
H4A C4A 1_555 1_555
H5A C4A 1_555 1_555
C2G C3A 1_555 1_555
C1G N1A 1_555 1_555
H1G C1G 1_555 1_555
C4G C2G 1_555 1_555
H3G C4G 1_555 1_555
H4G C4G 1_555 1_555
H5G C4G 1_555 1_555
Cl1A Cd1 1_555 1_555
Cl1A_2 Cd1 1_555 1_555
Cd1_2 Cl1A 1_555 1_555
Cd1_3 Cl1_2 1_555 1_555
C2F C1F 1_555 1_555
C2G C1G 1_555 1_555
Cl1A_2 Cd1_3 1_555 1_555

#END
