
#######################################################################
#
#                 Cambridge Crystallographic Data Centre
#                                CCDC 
#
#######################################################################
#
# If this CIF has been generated from an entry in the Cambridge 
# Structural Database, then it will include bibliographic, chemical, 
# crystal, experimental, refinement or atomic coordinate data resulting 
# from the CCDC's data processing and validation procedures.
#
#######################################################################

data_ODEQAP
_symmetry_cell_setting           monoclinic
_symmetry_space_group_name_H-M   'C 2/m'
_symmetry_Int_Tables_number      12
_space_group_name_Hall           '-C 2y'
loop_
_symmetry_equiv_pos_site_id
_symmetry_equiv_pos_as_xyz
1 x,y,z
2 1/2+x,1/2+y,z
3 x,-y,z
4 1/2+x,1/2-y,z
5 -x,-y,-z
6 1/2-x,1/2-y,-z
7 -x,y,-z
8 1/2-x,1/2+y,-z
_cell_length_a                   20.186(5)
_cell_length_b                   20.493(6)
_cell_length_c                   3.8838(11)
_cell_angle_alpha                90
_cell_angle_beta                 97.338(9)
_cell_angle_gamma                90
_cell_volume                     1593.46
loop_
_atom_site_label
_atom_site_type_symbol
_atom_site_fract_x
_atom_site_fract_y
_atom_site_fract_z
Cd1 Cd 0.0000 0.0000 0.0000
Br1 Br 0.0000 0.09407(5) -0.5000
Cl1 Cl 0.25399(13) 0.13092(14) -0.1076(9)
N1 N 0.1186(4) 0.0000 0.051(2)
C1 C 0.1504(4) 0.0564(4) 0.016(2)
H1 H 0.1274 0.0978 0.0449
C2 C 0.2159(4) 0.0570(4) -0.061(2)
C3 C 0.2494(5) 0.0000 -0.100(3)
H2 H 0.2955 0.0000 -0.1539
C1B C 0.1504(4) -0.0564(4) 0.016(2)
H1B H 0.1274 -0.0978 0.0449
C2B C 0.2159(4) -0.0570(4) -0.061(2)
Cl1B Cl 0.25399(13) -0.13092(14) -0.1076(9)
Br1_2 Br 0.0000 0.09407(5) 0.5000
Cl1D Cl -0.25399(13) -0.13092(14) 0.1076(9)
N1D N -0.1186(4) 0.0000 -0.051(2)
C1D C -0.1504(4) -0.0564(4) -0.016(2)
H1D H -0.1274 -0.0978 -0.0449
C2D C -0.2159(4) -0.0570(4) 0.061(2)
C3D C -0.2494(5) 0.0000 0.100(3)
H2D H -0.2955 0.0000 0.1539
C1F C -0.1504(4) 0.0564(4) -0.016(2)
H1F H -0.1274 0.0978 -0.0449
C2F C -0.2159(4) 0.0570(4) 0.061(2)
Cl1F Cl -0.25399(13) 0.13092(14) 0.1076(9)
Br1B Br 0.0000 -0.09407(5) -0.5000
Br1B_2 Br 0.0000 -0.09407(5) 0.5000
Cd1_2 Cd 0.0000 0.0000 -1.0000
Cd1_3 Cd 0.0000 0.0000 1.0000
Cd2 Cd 0.0000 0.5000 0.0000
Br2 Br -0.09641(5) 0.5000 -0.5669(2)
Cl2 Cl 0.12678(13) 0.24332(11) 0.3147(8)
N2 N 0.0000 0.3829(4) 0.0000
C4 C 0.0541(4) 0.3499(4) 0.130(2)
H3 H 0.0941 0.3741 0.2254
C5 C 0.0555(4) 0.2824(3) 0.136(2)
C6 C 0.0000 0.2487(5) 0.0000
H4 H 0.0000 0.2009 0.0000
C4F C -0.0541(4) 0.3499(4) -0.130(2)
H3F H -0.0941 0.3741 -0.2254
C5F C -0.0555(4) 0.2824(3) -0.136(2)
Cl2F Cl -0.12678(13) 0.24332(11) -0.3147(8)
Br2_2 Br -0.09641(5) 0.5000 0.4331(2)
Cl2B Cl 0.12678(13) 0.75668(11) 0.3147(8)
N2B N 0.0000 0.6171(4) 0.0000
C4B C 0.0541(4) 0.6501(4) 0.130(2)
H3B H 0.0941 0.6259 0.2254
C5B C 0.0555(4) 0.7176(3) 0.136(2)
C6B C 0.0000 0.7513(5) 0.0000
H4B H 0.0000 0.7991 0.0000
C4D C -0.0541(4) 0.6501(4) -0.130(2)
H3D H -0.0941 0.6259 -0.2254
C5D C -0.0555(4) 0.7176(3) -0.136(2)
Cl2D Cl -0.12678(13) 0.75668(11) -0.3147(8)
Br2D Br 0.09641(5) 0.5000 -0.4331(2)
Br2D_2 Br 0.09641(5) 0.5000 0.5669(2)
Cd2_2 Cd 0.0000 0.5000 -1.0000
Cd2_3 Cd 0.0000 0.5000 1.0000
loop_
_geom_bond_atom_site_label_1
_geom_bond_atom_site_label_2
_geom_bond_site_symmetry_1
_geom_bond_site_symmetry_2
Cd1 Br1 1_555 1_555
Br1 Cd1_2 1_555 1_555
Cl1 C2 1_555 1_555
N1 Cd1 1_555 1_555
C1 N1 1_555 1_555
H1 C1 1_555 1_555
C2 C1 1_555 1_555
C3 C2 1_555 1_555
H2 C3 1_555 1_555
Cd2 Br2 1_555 1_555
Br2 Cd2_2 1_555 1_555
Cl2 C5 1_555 1_555
N2 Cd2 1_555 1_555
C4 N2 1_555 1_555
H3 C4 1_555 1_555
C5 C4 1_555 1_555
C6 C5 1_555 1_555
H4 C6 1_555 1_555
C1B N1 1_555 1_555
H1B C1B 1_555 1_555
C2B C3 1_555 1_555
Cl1B C2B 1_555 1_555
C4F N2 1_555 1_555
H3F C4F 1_555 1_555
C5F C6 1_555 1_555
Cl2F C5F 1_555 1_555
Br1_2 Cd1 1_555 1_555
Cl1D C2D 1_555 1_555
N1D Cd1 1_555 1_555
C1D N1D 1_555 1_555
H1D C1D 1_555 1_555
C2D C1D 1_555 1_555
C3D C2D 1_555 1_555
H2D C3D 1_555 1_555
C1F N1D 1_555 1_555
H1F C1F 1_555 1_555
C2F C3D 1_555 1_555
Cl1F C2F 1_555 1_555
Br2_2 Cd2 1_555 1_555
Cl2B C5B 1_555 1_555
N2B Cd2 1_555 1_555
C4B N2B 1_555 1_555
H3B C4B 1_555 1_555
C5B C4B 1_555 1_555
C6B C5B 1_555 1_555
H4B C6B 1_555 1_555
C4D N2B 1_555 1_555
H3D C4D 1_555 1_555
C5D C6B 1_555 1_555
Cl2D C5D 1_555 1_555
Br1B Cd1 1_555 1_555
Br1B_2 Cd1 1_555 1_555
Cd1_2 Br1B 1_555 1_555
Br2D Cd2 1_555 1_555
Br2D_2 Cd2 1_555 1_555
Cd2_2 Br2D 1_555 1_555
Cd1_3 Br1_2 1_555 1_555
Cd2_3 Br2_2 1_555 1_555
C1B C2B 1_555 1_555
C4F C5F 1_555 1_555
C1F C2F 1_555 1_555
C4D C5D 1_555 1_555
Br1B_2 Cd1_3 1_555 1_555
Br2D_2 Cd2_3 1_555 1_555

#END
