
#######################################################################
#
#                 Cambridge Crystallographic Data Centre
#                                CCDC 
#
#######################################################################
#
# If this CIF has been generated from an entry in the Cambridge 
# Structural Database, then it will include bibliographic, chemical, 
# crystal, experimental, refinement or atomic coordinate data resulting 
# from the CCDC's data processing and validation procedures.
#
#######################################################################

data_ODEQAP01
_symmetry_cell_setting           monoclinic
_symmetry_space_group_name_H-M   'C 2/m'
_symmetry_Int_Tables_number      12
_space_group_name_Hall           '-C 2y'
loop_
_symmetry_equiv_pos_site_id
_symmetry_equiv_pos_as_xyz
1 x,y,z
2 -x,y,-z
3 1/2+x,1/2+y,z
4 1/2-x,1/2+y,-z
5 -x,-y,-z
6 x,-y,z
7 1/2-x,1/2-y,-z
8 1/2+x,1/2-y,z
_cell_length_a                   20.0345(5)
_cell_length_b                   20.4024(6)
_cell_length_c                   3.8561(2)
_cell_angle_alpha                90
_cell_angle_beta                 98.518(2)
_cell_angle_gamma                90
_cell_volume                     1558.8
loop_
_atom_site_label
_atom_site_type_symbol
_atom_site_fract_x
_atom_site_fract_y
_atom_site_fract_z
Cd1 Cd 0.0000 0.5000 0.0000
Br1 Br -0.097940(7) 0.5000 -0.57726(4)
Cl1 Cl 0.128212(16) 0.241967(14) 0.33822(8)
N1 N 0.0000 0.38317(6) 0.0000
C1 C 0.05528(6) 0.35004(5) 0.1406(3)
H1 H 0.0945 0.3735 0.2388
C2 C 0.05604(6) 0.28210(5) 0.1450(3)
C3 C 0.0000 0.24661(7) 0.0000
H2 H 0.0000 0.2000 0.0000
Cd1_2 Cd 0.0000 0.5000 -1.0000
Br1_2 Br -0.097940(7) 0.5000 0.42274(4)
Br1A Br 0.097940(7) 0.5000 -0.42274(4)
Br1A_2 Br 0.097940(7) 0.5000 0.57726(4)
Cl1A Cl -0.128212(16) 0.241967(14) -0.33822(8)
Cl1D Cl -0.128212(16) 0.758033(14) -0.33822(8)
Cl1E Cl 0.128212(16) 0.758033(14) 0.33822(8)
N1D N 0.0000 0.61683(6) 0.0000
C1A C -0.05528(6) 0.35004(5) -0.1406(3)
C1D C -0.05528(6) 0.64996(5) -0.1406(3)
C1E C 0.05528(6) 0.64996(5) 0.1406(3)
H1A H -0.0945 0.3735 -0.2388
H1D H -0.0945 0.6265 -0.2388
H1E H 0.0945 0.6265 0.2388
C2A C -0.05604(6) 0.28210(5) -0.1450(3)
C2D C -0.05604(6) 0.71790(5) -0.1450(3)
C2E C 0.05604(6) 0.71790(5) 0.1450(3)
C3D C 0.0000 0.75339(7) 0.0000
H2D H 0.0000 0.8000 0.0000
Cd2 Cd 0.0000 0.0000 0.0000
Br2 Br 0.0000 0.094910(7) -0.5000
Cl2 Cl 0.254588(16) 0.132311(16) -0.12422(9)
N2 N 0.12005(6) 0.0000 0.0589(3)
C4 C 0.15195(5) 0.05676(6) 0.0216(3)
H3 H 0.1300 0.0970 0.0566
C5 C 0.21661(6) 0.05775(6) -0.0675(3)
C6 C 0.24969(8) 0.0000 -0.1191(4)
H4 H 0.2934 0.0000 -0.1872
Cd2_2 Cd 0.0000 0.0000 -1.0000
Br2_2 Br 0.0000 0.094910(7) 0.5000
Br2D Br 0.0000 -0.094910(7) -0.5000
Br2D_2 Br 0.0000 -0.094910(7) 0.5000
Cl2E Cl 0.254588(16) -0.132311(16) -0.12422(9)
Cl2A Cl -0.254588(16) 0.132311(16) 0.12422(9)
Cl2D Cl -0.254588(16) -0.132311(16) 0.12422(9)
N2A N -0.12005(6) 0.0000 -0.0589(3)
C4E C 0.15195(5) -0.05676(6) 0.0216(3)
C4A C -0.15195(5) 0.05676(6) -0.0216(3)
C4D C -0.15195(5) -0.05676(6) -0.0216(3)
H3E H 0.1300 -0.0970 0.0566
H3A H -0.1300 0.0970 -0.0566
H3D H -0.1300 -0.0970 -0.0566
C5E C 0.21661(6) -0.05775(6) -0.0675(3)
C5A C -0.21661(6) 0.05775(6) 0.0675(3)
C5D C -0.21661(6) -0.05775(6) 0.0675(3)
C6A C -0.24969(8) 0.0000 0.1191(4)
H4A H -0.2934 0.0000 0.1872
loop_
_geom_bond_atom_site_label_1
_geom_bond_atom_site_label_2
_geom_bond_site_symmetry_1
_geom_bond_site_symmetry_2
Cd1 Br1 1_555 1_555
Br1 Cd1_2 1_555 1_555
Cl1 C2 1_555 1_555
N1 Cd1 1_555 1_555
C1 N1 1_555 1_555
H1 C1 1_555 1_555
C2 C1 1_555 1_555
C3 C2 1_555 1_555
H2 C3 1_555 1_555
Cd2 Br2 1_555 1_555
Br2 Cd2_2 1_555 1_555
Cl2 C5 1_555 1_555
N2 Cd2 1_555 1_555
C4 N2 1_555 1_555
H3 C4 1_555 1_555
C5 C4 1_555 1_555
C6 C5 1_555 1_555
H4 C6 1_555 1_555
Cd1_2 Br1A 1_555 1_555
Br1_2 Cd1 1_555 1_555
Br1A Cd1 1_555 1_555
Br1A_2 Cd1 1_555 1_555
Cl1A C2A 1_555 1_555
Cl1D C2D 1_555 1_555
Cl1E C2E 1_555 1_555
N1D Cd1 1_555 1_555
C1A N1 1_555 1_555
C1D N1D 1_555 1_555
C1E N1D 1_555 1_555
H1A C1A 1_555 1_555
H1D C1D 1_555 1_555
H1E C1E 1_555 1_555
C2A C3 1_555 1_555
C2D C1D 1_555 1_555
C2E C1E 1_555 1_555
C3D C2D 1_555 1_555
H2D C3D 1_555 1_555
Cd2_2 Br2D 1_555 1_555
Br2_2 Cd2 1_555 1_555
Br2D Cd2 1_555 1_555
Br2D_2 Cd2 1_555 1_555
Cl2E C5E 1_555 1_555
Cl2A C5A 1_555 1_555
Cl2D C5D 1_555 1_555
N2A Cd2 1_555 1_555
C4E N2 1_555 1_555
C4A N2A 1_555 1_555
C4D N2A 1_555 1_555
H3E C4E 1_555 1_555
H3A C4A 1_555 1_555
H3D C4D 1_555 1_555
C5E C6 1_555 1_555
C5A C4A 1_555 1_555
C5D C4D 1_555 1_555
C6A C5A 1_555 1_555
H4A C6A 1_555 1_555
C1A C2A 1_555 1_555
C2E C3D 1_555 1_555
C4E C5E 1_555 1_555
C5D C6A 1_555 1_555

#END
