
#######################################################################
#
#                 Cambridge Crystallographic Data Centre
#                                CCDC 
#
#######################################################################
#
# If this CIF has been generated from an entry in the Cambridge 
# Structural Database, then it will include bibliographic, chemical, 
# crystal, experimental, refinement or atomic coordinate data resulting 
# from the CCDC's data processing and validation procedures.
#
#######################################################################

data_ODEQIX
_symmetry_cell_setting           tetragonal
_symmetry_space_group_name_H-M   'P -4 b 2'
_symmetry_Int_Tables_number      117
_space_group_name_Hall           'P -4 -2ab'
loop_
_symmetry_equiv_pos_site_id
_symmetry_equiv_pos_as_xyz
1 x,y,z
2 -x,-y,z
3 y,-x,-z
4 -y,x,-z
5 1/2+x,1/2-y,z
6 1/2-x,1/2+y,z
7 1/2+y,1/2+x,-z
8 1/2-y,1/2-x,-z
_cell_length_a                   14.5412(11)
_cell_length_b                   14.5412(11)
_cell_length_c                   3.9776(4)
_cell_angle_alpha                90
_cell_angle_beta                 90
_cell_angle_gamma                90
_cell_volume                     841.05
loop_
_atom_site_label
_atom_site_type_symbol
_atom_site_fract_x
_atom_site_fract_y
_atom_site_fract_z
Cd1 Cd 0.5000 0.0000 0.5000
Br1 Br 0.405520(16) 0.094480(16) 0.0000
N1 N 0.61462(14) 0.11462(14) 0.5000
C1 C 0.5960(2) 0.2005(2) 0.5977(8)
H1 H 0.5331 0.2147 0.6690
C2 C 0.6600(3) 0.2702(2) 0.6043(9)
C3 C 0.74828(19) 0.24828(19) 0.5000
H2 H 0.7959 0.2959 0.5000
C4 C 0.6353(3) 0.3651(3) 0.7197(12)
H3 H 0.6261 0.4049 0.5238
H4 H 0.6851 0.3898 0.8589
H5 H 0.5785 0.3626 0.8519
C2F C 0.7702(2) 0.1600(3) 0.3957(9)
C1F C 0.7005(2) 0.0960(2) 0.4023(8)
H1F H 0.7147 0.0331 0.3310
C4F C 0.8651(3) 0.1353(3) 0.2803(12)
H3F H 0.9049 0.1261 0.4762
H4F H 0.8898 0.1851 0.1411
H5F H 0.8626 0.0785 0.1481
Br1_2 Br 0.405520(16) 0.094480(16) 1.0000
N1A N 0.38538(14) -0.11462(14) 0.5000
C1A C 0.4040(2) -0.2005(2) 0.5977(8)
H1A H 0.4669 -0.2147 0.6690
C2A C 0.3400(3) -0.2702(2) 0.6043(9)
C3A C 0.25172(19) -0.24828(19) 0.5000
H2A H 0.2041 -0.2959 0.5000
C4A C 0.3647(3) -0.3651(3) 0.7197(12)
H3A H 0.3739 -0.4049 0.5238
H4A H 0.3149 -0.3898 0.8589
H5A H 0.4215 -0.3626 0.8519
C2G C 0.2298(2) -0.1600(3) 0.3957(9)
C1G C 0.2995(2) -0.0960(2) 0.4023(8)
H1G H 0.2853 -0.0331 0.3310
C4G C 0.1349(3) -0.1353(3) 0.2803(12)
H3G H 0.0951 -0.1261 0.4762
H4G H 0.1102 -0.1851 0.1411
H5G H 0.1374 -0.0785 0.1481
Br1A Br 0.594480(16) -0.094480(16) 0.0000
Br1A_2 Br 0.594480(16) -0.094480(16) 1.0000
Cd1_2 Cd 0.5000 0.0000 -0.5000
Cd1_3 Cd 0.5000 0.0000 1.5000
loop_
_geom_bond_atom_site_label_1
_geom_bond_atom_site_label_2
_geom_bond_site_symmetry_1
_geom_bond_site_symmetry_2
Cd1 Br1 1_555 1_555
Br1 Cd1_2 1_555 1_555
N1 Cd1 1_555 1_555
C1 N1 1_555 1_555
H1 C1 1_555 1_555
C2 C1 1_555 1_555
C3 C2 1_555 1_555
H2 C3 1_555 1_555
C4 C2 1_555 1_555
H3 C4 1_555 1_555
H4 C4 1_555 1_555
H5 C4 1_555 1_555
C2F C3 1_555 1_555
C1F N1 1_555 1_555
H1F C1F 1_555 1_555
C4F C2F 1_555 1_555
H3F C4F 1_555 1_555
H4F C4F 1_555 1_555
H5F C4F 1_555 1_555
Br1_2 Cd1 1_555 1_555
N1A Cd1 1_555 1_555
C1A N1A 1_555 1_555
H1A C1A 1_555 1_555
C2A C1A 1_555 1_555
C3A C2A 1_555 1_555
H2A C3A 1_555 1_555
C4A C2A 1_555 1_555
H3A C4A 1_555 1_555
H4A C4A 1_555 1_555
H5A C4A 1_555 1_555
C2G C3A 1_555 1_555
C1G N1A 1_555 1_555
H1G C1G 1_555 1_555
C4G C2G 1_555 1_555
H3G C4G 1_555 1_555
H4G C4G 1_555 1_555
H5G C4G 1_555 1_555
Br1A Cd1 1_555 1_555
Br1A_2 Cd1 1_555 1_555
Cd1_2 Br1A 1_555 1_555
Cd1_3 Br1_2 1_555 1_555
C2F C1F 1_555 1_555
C2G C1G 1_555 1_555
Br1A_2 Cd1_3 1_555 1_555

#END
