
#######################################################################
#
#                 Cambridge Crystallographic Data Centre
#                                CCDC 
#
#######################################################################
#
# If this CIF has been generated from an entry in the Cambridge 
# Structural Database, then it will include bibliographic, chemical, 
# crystal, experimental, refinement or atomic coordinate data resulting 
# from the CCDC's data processing and validation procedures.
#
#######################################################################

data_ODEREV
_symmetry_cell_setting           monoclinic
_symmetry_space_group_name_H-M   'P 21/n'
_symmetry_Int_Tables_number      14
_space_group_name_Hall           '-P 2yn'
loop_
_symmetry_equiv_pos_site_id
_symmetry_equiv_pos_as_xyz
1 x,y,z
2 1/2-x,1/2+y,1/2-z
3 -x,-y,-z
4 1/2+x,1/2-y,1/2+z
_cell_length_a                   11.984(4)
_cell_length_b                   37.696(10)
_cell_length_c                   13.122(4)
_cell_angle_alpha                90
_cell_angle_beta                 97.158(15)
_cell_angle_gamma                90
_cell_volume                     5881.65
loop_
_atom_site_label
_atom_site_type_symbol
_atom_site_fract_x
_atom_site_fract_y
_atom_site_fract_z
S5 S 0.2472(3) -0.02242(10) 0.3271(3)
O29 O 0.2470(9) -0.0593(3) 0.2829(8)
C20 C 0.1330(11) -0.0196(4) 0.4011(11)
H29 H 0.0628 -0.0162 0.3552
H30 H 0.1448 0.0005 0.4485
H31 H 0.1285 -0.0415 0.4403
C21 C 0.3592(13) -0.0219(4) 0.4309(12)
H32 H 0.3568 -0.0436 0.4714
H33 H 0.3507 -0.0013 0.4748
H34 H 0.4314 -0.0204 0.4034
Mo1 Mo 0.29745(11) 0.16375(3) 0.96020(10)
Mo2 Mo 0.29461(11) 0.07576(3) 0.93794(10)
Mo3 Mo 0.23498(11) 0.03760(3) 0.70407(10)
Mo4 Mo 0.18362(11) 0.08814(3) 0.49353(10)
Mo5 Mo 0.18793(11) 0.17667(3) 0.51810(9)
Mo6 Mo 0.24538(11) 0.21477(3) 0.75012(10)
Ag1 Ag 0.59136(10) 0.12176(3) 1.05902(9)
Ag2 Ag -0.16566(10) 0.12478(3) 0.93569(9)
Ag3 Ag 0.67071(10) 0.14577(3) 0.54977(9)
Mn1 Mn 0.23855(17) 0.12579(6) 0.72726(16)
S1 S 0.7079(3) 0.04497(10) 0.9564(3)
S2 S 0.5249(3) 0.10412(12) 1.3127(3)
S3 S 0.8613(4) 0.14351(11) 1.1933(3)
S4 S -0.3019(3) 0.20985(11) 0.9067(3)
S6 S 0.7886(3) 0.23096(10) 0.6198(3)
S7 S 0.0184(11) 0.0645(4) 1.0752(11)
O1 O 0.3387(7) 0.0494(2) 0.8240(7)
O2 O 0.2629(8) 0.0613(2) 0.4256(7)
O3 O 0.2526(8) 0.1333(2) 0.4768(7)
O4 O 0.1331(8) 0.0560(2) 0.5916(7)
O5 O 0.1414(8) 0.0112(2) 0.7556(7)
O6 O 0.1410(7) 0.2032(2) 0.6317(7)
O7 O 0.3528(7) 0.1220(2) 0.8402(7)
O8 O 0.3136(7) 0.1643(2) 0.6655(7)
O9 O 0.4223(8) 0.0755(2) 1.0158(7)
O10 O 0.4245(7) 0.1582(2) 1.0348(7)
O11 O 0.2753(8) 0.2062(2) 0.4694(7)
O12 O 0.1210(8) 0.1297(2) 0.6155(7)
O13 O 0.2290(8) 0.1187(3) 0.9804(7)
O14 O 0.2213(8) 0.1903(2) 1.0306(7)
O15 O 0.2139(9) 0.0450(2) 0.9886(7)
O16 O 0.1646(8) 0.0875(2) 0.7916(7)
O17 O 0.1682(7) 0.1646(2) 0.8169(7)
O18 O 0.0587(8) 0.0938(3) 0.4171(7)
O19 O 0.3198(8) 0.0094(2) 0.6455(7)
O20 O 0.3149(8) 0.0876(2) 0.6406(7)
O21 O 0.1656(8) 0.2432(3) 0.8112(7)
O22 O 0.0652(8) 0.1788(2) 0.4366(7)
O23 O 0.3482(7) 0.1960(2) 0.8629(7)
O24 O 0.3385(8) 0.2410(3) 0.6967(8)
O25 O 0.6770(8) 0.0841(2) 0.9423(7)
O26 O 0.6093(9) 0.1116(3) 1.2388(8)
O27 O 0.7879(8) 0.1494(3) 1.0918(7)
O28 O -0.3260(8) 0.1715(3) 0.8771(8)
O30 O 0.7957(8) 0.1941(3) 0.6634(8)
O31 O -0.0882(19) 0.0815(8) 1.079(2)
N1 N 0.6026(9) 0.1261(3) 0.6907(9)
H1 H 0.6308 0.1036 0.7029
H2 H 0.6344 0.1400 0.7443
N2 N -0.1220(9) 0.1269(3) 0.7733(8)
H3 H -0.1547 0.1076 0.7386
H4 H -0.1552 0.1469 0.7425
N3 N 0.5794(11) 0.1918(4) 0.4590(10)
N4 N 0.7802(10) 0.1125(4) 0.4632(9)
C1 C 0.4796(12) 0.1242(4) 0.6999(10)
C2 C 0.4707(11) 0.1215(4) 0.8172(10)
C3 C 0.4343(11) 0.0916(4) 0.6373(11)
C4 C 0.4322(11) 0.1595(4) 0.6533(11)
C5 C 0.0023(11) 0.1274(4) 0.7579(11)
C6 C 0.0057(11) 0.1305(4) 0.6427(10)
C7 C 0.0471(12) 0.0918(4) 0.8032(11)
C8 C 0.0485(12) 0.1600(4) 0.8206(10)
C9 C 0.5922(12) 0.0194(4) 0.8923(12)
H5 H 0.5231 0.0254 0.9214
H6 H 0.6081 -0.0059 0.9019
H7 H 0.5826 0.0250 0.8188
C10 C 0.6854(14) 0.0352(4) 1.0837(11)
H8 H 0.7394 0.0484 1.1315
H9 H 0.6956 0.0097 1.0962
H10 H 0.6088 0.0420 1.0941
C11 C 0.4052(13) 0.1306(5) 1.2737(13)
H11 H 0.4229 0.1555 1.2895
H12 H 0.3429 0.1230 1.3105
H13 H 0.3835 0.1278 1.1997
C12 C 0.4655(14) 0.0624(4) 1.2774(13)
H14 H 0.4370 0.0625 1.2041
H15 H 0.4034 0.0576 1.3175
H16 H 0.5230 0.0440 1.2910
C13 C 0.8158(13) 0.1748(4) 1.2802(12)
H17 H 0.8191 0.1987 1.2515
H18 H 0.8649 0.1735 1.3457
H19 H 0.7383 0.1694 1.2916
C14 C 0.9914(15) 0.1645(5) 1.1775(15)
H20 H 1.0260 0.1524 1.1232
H21 H 1.0421 0.1632 1.2420
H22 H 0.9777 0.1894 1.1584
C15 C -0.006(4) 0.0142(12) 1.039(4)
C16 C 0.0769(19) 0.0474(6) 1.1914(17)
C18 C -0.3631(14) 0.2161(4) 1.0204(12)
H23 H -0.4401 0.2069 1.0112
H24 H -0.3643 0.2414 1.0366
H25 H -0.3188 0.2034 1.0769
C19 C -0.3987(13) 0.2359(4) 0.8236(11)
H26 H -0.3858 0.2319 0.7522
H27 H -0.3877 0.2610 0.8408
H28 H -0.4758 0.2289 0.8322
C22 C 0.8613(12) 0.2285(4) 0.5097(11)
H35 H 0.9365 0.2187 0.5293
H36 H 0.8678 0.2524 0.4812
H37 H 0.8195 0.2132 0.4579
C23 C 0.8866(13) 0.2579(4) 0.7003(12)
H38 H 0.8620 0.2599 0.7686
H39 H 0.8900 0.2815 0.6699
H40 H 0.9612 0.2469 0.7064
C24 C 0.5434(13) 0.2191(4) 0.4708(11)
C25 C 0.4987(12) 0.2538(4) 0.4893(12)
H41 H 0.4533 0.2525 0.5464
H42 H 0.4516 0.2620 0.4273
H43 H 0.5608 0.2705 0.5066
C26 C 0.8053(13) 0.0911(4) 0.4090(12)
C27 C 0.8323(13) 0.0629(4) 0.3428(11)
H44 H 0.9011 0.0510 0.3733
H45 H 0.8438 0.0726 0.2756
H46 H 0.7703 0.0458 0.3342
Mo1_2 Mo -0.70255(11) 0.16375(3) 0.96020(10)
Mo2_2 Mo -0.70539(11) 0.07576(3) 0.93794(10)
Mo3_2 Mo -0.76502(11) 0.03760(3) 0.70407(10)
Mo4_2 Mo -0.81638(11) 0.08814(3) 0.49353(10)
Mo5_2 Mo -0.81207(11) 0.17667(3) 0.51810(9)
Mo6_2 Mo -0.75462(11) 0.21477(3) 0.75012(10)
Ag1_2 Ag -0.40864(10) 0.12176(3) 1.05902(9)
Ag2_2 Ag 0.83434(10) 0.12478(3) 0.93569(9)
Ag2B Ag 0.16566(10) -0.12478(3) 1.06431(9)
Ag2_3 Ag -1.16566(10) 0.12478(3) 0.93569(9)
Ag3_2 Ag -0.32929(10) 0.14577(3) 0.54977(9)
Mn1_2 Mn -0.76145(17) 0.12579(6) 0.72726(16)
S1_2 S -0.2921(3) 0.04497(10) 0.9564(3)
S2_2 S -0.4751(3) 0.10412(12) 1.3127(3)
S3_2 S -0.1387(4) 0.14351(11) 1.1933(3)
S4_2 S 0.6981(3) 0.20985(11) 0.9067(3)
S6_2 S -0.2114(3) 0.23096(10) 0.6198(3)
S7B S -0.0184(11) -0.0645(4) 0.9248(11)
O1_2 O -0.6613(7) 0.0494(2) 0.8240(7)
O2_2 O -0.7371(8) 0.0613(2) 0.4256(7)
O3_2 O -0.7474(8) 0.1333(2) 0.4768(7)
O4_2 O -0.8669(8) 0.0560(2) 0.5916(7)
O5_2 O -0.8586(8) 0.0112(2) 0.7556(7)
O6_2 O -0.8590(7) 0.2032(2) 0.6317(7)
O7_2 O -0.6472(7) 0.1220(2) 0.8402(7)
O8_2 O -0.6864(7) 0.1643(2) 0.6655(7)
O9_2 O -0.5777(8) 0.0755(2) 1.0158(7)
O10_2 O -0.5755(7) 0.1582(2) 1.0348(7)
O11_2 O -0.7247(8) 0.2062(2) 0.4694(7)
O12_2 O -0.8790(8) 0.1297(2) 0.6155(7)
O13_2 O -0.7710(8) 0.1187(3) 0.9804(7)
O14_2 O -0.7787(8) 0.1903(2) 1.0306(7)
O15_2 O -0.7861(9) 0.0450(2) 0.9886(7)
O16_2 O -0.8354(8) 0.0875(2) 0.7916(7)
O17_2 O -0.8318(7) 0.1646(2) 0.8169(7)
O18_2 O -0.9413(8) 0.0938(3) 0.4171(7)
O19_2 O -0.6802(8) 0.0094(2) 0.6455(7)
O20_2 O -0.6851(8) 0.0876(2) 0.6406(7)
O21_2 O -0.8344(8) 0.2432(3) 0.8112(7)
O22_2 O -0.9348(8) 0.1788(2) 0.4366(7)
O23_2 O -0.6518(7) 0.1960(2) 0.8629(7)
O24_2 O -0.6615(8) 0.2410(3) 0.6967(8)
O25_2 O -0.3230(8) 0.0841(2) 0.9423(7)
O26_2 O -0.3907(9) 0.1116(3) 1.2388(8)
O27_2 O -0.2121(8) 0.1494(3) 1.0918(7)
O28_2 O 0.6740(8) 0.1715(3) 0.8771(8)
O30_2 O -0.2043(8) 0.1941(3) 0.6634(8)
O31B O 0.0882(19) -0.0815(8) 0.921(2)
O31_2 O 0.9118(19) 0.0815(8) 1.079(2)
N1_2 N -0.3974(9) 0.1261(3) 0.6907(9)
H1_2 H -0.3692 0.1036 0.7029
H2_2 H -0.3656 0.1400 0.7443
N2_2 N 0.8780(9) 0.1269(3) 0.7733(8)
N2_3 N -1.1220(9) 0.1269(3) 0.7733(8)
H3_2 H 0.8453 0.1076 0.7386
H3_3 H -1.1547 0.1076 0.7386
H4_2 H 0.8448 0.1469 0.7425
H4_3 H -1.1552 0.1469 0.7425
N3_2 N -0.4206(11) 0.1918(4) 0.4590(10)
N4_2 N -0.2198(10) 0.1125(4) 0.4632(9)
C1_2 C -0.5204(12) 0.1242(4) 0.6999(10)
C2_2 C -0.5293(11) 0.1215(4) 0.8172(10)
C3_2 C -0.5657(11) 0.0916(4) 0.6373(11)
C4_2 C -0.5678(11) 0.1595(4) 0.6533(11)
C5_2 C -0.9977(11) 0.1274(4) 0.7579(11)
C6_2 C -0.9943(11) 0.1305(4) 0.6427(10)
C7_2 C -0.9529(12) 0.0918(4) 0.8032(11)
C8_2 C -0.9515(12) 0.1600(4) 0.8206(10)
C9_2 C -0.4078(12) 0.0194(4) 0.8923(12)
H5_2 H -0.4769 0.0254 0.9214
H6_2 H -0.3919 -0.0059 0.9019
H7_2 H -0.4174 0.0250 0.8188
C10_2 C -0.3146(14) 0.0352(4) 1.0837(11)
H8_2 H -0.2606 0.0484 1.1315
H9_2 H -0.3044 0.0097 1.0962
H10_2 H -0.3912 0.0420 1.0941
C11_2 C -0.5948(13) 0.1306(5) 1.2737(13)
H11_2 H -0.5771 0.1555 1.2895
H12_2 H -0.6571 0.1230 1.3105
H13_2 H -0.6165 0.1278 1.1997
C12_2 C -0.5345(14) 0.0624(4) 1.2774(13)
H14_2 H -0.5630 0.0625 1.2041
H15_2 H -0.5966 0.0576 1.3175
H16_2 H -0.4770 0.0440 1.2910
C13_2 C -0.1842(13) 0.1748(4) 1.2802(12)
H17_2 H -0.1809 0.1987 1.2515
H18_2 H -0.1351 0.1735 1.3457
H19_2 H -0.2617 0.1694 1.2916
C14_2 C -0.0086(15) 0.1645(5) 1.1775(15)
H20_2 H 0.0260 0.1524 1.1232
H21_2 H 0.0421 0.1632 1.2420
H22_2 H -0.0223 0.1894 1.1584
C15B C 0.006(4) -0.0142(12) 0.961(4)
C16B C -0.0769(19) -0.0474(6) 0.8086(17)
C18_2 C 0.6369(14) 0.2161(4) 1.0204(12)
H23_2 H 0.5599 0.2069 1.0112
H24_2 H 0.6357 0.2414 1.0366
H25_2 H 0.6812 0.2034 1.0769
C19_2 C 0.6013(13) 0.2359(4) 0.8236(11)
H26_2 H 0.6142 0.2319 0.7522
H27_2 H 0.6123 0.2610 0.8408
H28_2 H 0.5242 0.2289 0.8322
C22_2 C -0.1387(12) 0.2285(4) 0.5097(11)
H35_2 H -0.0635 0.2187 0.5293
H36_2 H -0.1322 0.2524 0.4812
H37_2 H -0.1805 0.2132 0.4579
C23_2 C -0.1134(13) 0.2579(4) 0.7003(12)
H38_2 H -0.1380 0.2599 0.7686
H39_2 H -0.1100 0.2815 0.6699
H40_2 H -0.0388 0.2469 0.7064
C24_2 C -0.4566(13) 0.2191(4) 0.4708(11)
C25_2 C -0.5013(12) 0.2538(4) 0.4893(12)
H41_2 H -0.5467 0.2525 0.5464
H42_2 H -0.5484 0.2620 0.4273
H43_2 H -0.4392 0.2705 0.5066
C26_2 C -0.1947(13) 0.0911(4) 0.4090(12)
C27_2 C -0.1677(13) 0.0629(4) 0.3428(11)
H44_2 H -0.0989 0.0510 0.3733
H45_2 H -0.1562 0.0726 0.2756
H46_2 H -0.2297 0.0458 0.3342
S8? S 0.974(2) 0.0566(6) 1.1154(18)
O32? O 0.963(2) 0.0853(6) 1.0448(17)
C17? C 1.110(5) 0.0687(18) 1.202(5)
loop_
_geom_bond_atom_site_label_1
_geom_bond_atom_site_label_2
_geom_bond_site_symmetry_1
_geom_bond_site_symmetry_2
Mo1 O7 1_555 1_555
Mo2 O1 1_555 1_555
Mo3 O1 1_555 1_555
Mo4 O2 1_555 1_555
Mo5 O3 1_555 1_555
Mo6 O6 1_555 1_555
Ag1 O9 1_555 1_555
Ag2 O28 1_555 1_555
Ag3 O30 1_555 1_555
Mn1 O7 1_555 1_555
S1 O25 1_555 1_555
S2 O26 1_555 1_555
S3 O27 1_555 1_555
S4 O28 1_555 1_555
S5 O29 1_555 1_555
S6 O30 1_555 1_555
S7 O31 1_555 1_555
O3 Mo4 1_555 1_555
O4 Mo3 1_555 1_555
O5 Mo3 1_555 1_555
O6 Mo5 1_555 1_555
O7 Mo2 1_555 1_555
O8 Mo5 1_555 1_555
O9 Mo2 1_555 1_555
O10 Mo1 1_555 1_555
O11 Mo5 1_555 1_555
O12 Mo4 1_555 1_555
O13 Mo1 1_555 1_555
O14 Mo1 1_555 1_555
O15 Mo2 1_555 1_555
O16 Mo2 1_555 1_555
O17 Mo1 1_555 1_555
O18 Mo4 1_555 1_555
O19 Mo3 1_555 1_555
O20 Mo3 1_555 1_555
O21 Mo6 1_555 1_555
O22 Mo5 1_555 1_555
O23 Mo1 1_555 1_555
O24 Mo6 1_555 1_555
O25 Ag1 1_555 1_555
O26 Ag1 1_555 1_555
O27 Ag1 1_555 1_555
O31 Ag2 1_555 1_555
N1 Ag3 1_555 1_555
H1 N1 1_555 1_555
H2 N1 1_555 1_555
N2 Ag2 1_555 1_555
H3 N2 1_555 1_555
H4 N2 1_555 1_555
N3 Ag3 1_555 1_555
N4 Ag3 1_555 1_555
C1 N1 1_555 1_555
C2 O7 1_555 1_555
C3 O20 1_555 1_555
C4 O8 1_555 1_555
C5 N2 1_555 1_555
C6 O12 1_555 1_555
C7 O16 1_555 1_555
C8 O17 1_555 1_555
C9 S1 1_555 1_555
H5 C9 1_555 1_555
H6 C9 1_555 1_555
H7 C9 1_555 1_555
C10 S1 1_555 1_555
H8 C10 1_555 1_555
H9 C10 1_555 1_555
H10 C10 1_555 1_555
C11 S2 1_555 1_555
H11 C11 1_555 1_555
H12 C11 1_555 1_555
H13 C11 1_555 1_555
C12 S2 1_555 1_555
H14 C12 1_555 1_555
H15 C12 1_555 1_555
H16 C12 1_555 1_555
C13 S3 1_555 1_555
H17 C13 1_555 1_555
H18 C13 1_555 1_555
H19 C13 1_555 1_555
C14 S3 1_555 1_555
H20 C14 1_555 1_555
H21 C14 1_555 1_555
H22 C14 1_555 1_555
C15 S7 1_555 1_555
C16 S7 1_555 1_555
C18 S4 1_555 1_555
H23 C18 1_555 1_555
H24 C18 1_555 1_555
H25 C18 1_555 1_555
C19 S4 1_555 1_555
H26 C19 1_555 1_555
H27 C19 1_555 1_555
H28 C19 1_555 1_555
C20 S5 1_555 1_555
H29 C20 1_555 1_555
H30 C20 1_555 1_555
H31 C20 1_555 1_555
C21 S5 1_555 1_555
H32 C21 1_555 1_555
H33 C21 1_555 1_555
H34 C21 1_555 1_555
C22 S6 1_555 1_555
H35 C22 1_555 1_555
H36 C22 1_555 1_555
H37 C22 1_555 1_555
C23 S6 1_555 1_555
H38 C23 1_555 1_555
H39 C23 1_555 1_555
H40 C23 1_555 1_555
C24 N3 1_555 1_555
C25 C24 1_555 1_555
H41 C25 1_555 1_555
H42 C25 1_555 1_555
H43 C25 1_555 1_555
C26 N4 1_555 1_555
C27 C26 1_555 1_555
H44 C27 1_555 1_555
H45 C27 1_555 1_555
H46 C27 1_555 1_555
Mo1_2 O7_2 1_555 1_555
Mo2_2 O1_2 1_555 1_555
Mo3_2 O1_2 1_555 1_555
Mo4_2 O2_2 1_555 1_555
Mo5_2 O3_2 1_555 1_555
Mo6_2 O6_2 1_555 1_555
Ag1_2 O9_2 1_555 1_555
Ag2_2 O25 1_555 1_555
Ag2B O31B 1_555 1_555
Ag2_3 N2_3 1_555 1_555
Ag3_2 O30_2 1_555 1_555
Mn1_2 O7_2 1_555 1_555
S1_2 O25_2 1_555 1_555
S2_2 O26_2 1_555 1_555
S3_2 O27_2 1_555 1_555
S4_2 O28_2 1_555 1_555
S6_2 O30_2 1_555 1_555
S7B O31B 1_555 1_555
O3_2 Mo4_2 1_555 1_555
O4_2 Mo3_2 1_555 1_555
O5_2 Mo3_2 1_555 1_555
O6_2 Mo5_2 1_555 1_555
O7_2 Mo2_2 1_555 1_555
O8_2 Mo5_2 1_555 1_555
O9_2 Mo2_2 1_555 1_555
O10_2 Mo1_2 1_555 1_555
O11_2 Mo5_2 1_555 1_555
O12_2 Mo4_2 1_555 1_555
O13_2 Mo1_2 1_555 1_555
O14_2 Mo1_2 1_555 1_555
O15_2 Mo2_2 1_555 1_555
O16_2 Mo2_2 1_555 1_555
O17_2 Mo1_2 1_555 1_555
O18_2 Mo4_2 1_555 1_555
O19_2 Mo3_2 1_555 1_555
O20_2 Mo3_2 1_555 1_555
O21_2 Mo6_2 1_555 1_555
O22_2 Mo5_2 1_555 1_555
O23_2 Mo1_2 1_555 1_555
O24_2 Mo6_2 1_555 1_555
O25_2 Ag2 1_555 1_555
O26_2 Ag1_2 1_555 1_555
O27_2 Ag2 1_555 1_555
O28_2 Ag2_2 1_555 1_555
O31_2 Ag2_2 1_555 1_555
N1_2 Ag3_2 1_555 1_555
H1_2 N1_2 1_555 1_555
H2_2 N1_2 1_555 1_555
N2_2 Ag2_2 1_555 1_555
N2_3 H3_3 1_555 1_555
H3_2 N2_2 1_555 1_555
H4_2 N2_2 1_555 1_555
H4_3 N2_3 1_555 1_555
N3_2 Ag3_2 1_555 1_555
N4_2 Ag3_2 1_555 1_555
C1_2 N1_2 1_555 1_555
C2_2 O7_2 1_555 1_555
C3_2 O20_2 1_555 1_555
C4_2 O8_2 1_555 1_555
C5_2 N2_3 1_555 1_555
C6_2 O12_2 1_555 1_555
C7_2 O16_2 1_555 1_555
C8_2 O17_2 1_555 1_555
C9_2 S1_2 1_555 1_555
H5_2 C9_2 1_555 1_555
H6_2 C9_2 1_555 1_555
H7_2 C9_2 1_555 1_555
C10_2 S1_2 1_555 1_555
H8_2 C10_2 1_555 1_555
H9_2 C10_2 1_555 1_555
H10_2 C10_2 1_555 1_555
C11_2 S2_2 1_555 1_555
H11_2 C11_2 1_555 1_555
H12_2 C11_2 1_555 1_555
H13_2 C11_2 1_555 1_555
C12_2 S2_2 1_555 1_555
H14_2 C12_2 1_555 1_555
H15_2 C12_2 1_555 1_555
H16_2 C12_2 1_555 1_555
C13_2 S3_2 1_555 1_555
H17_2 C13_2 1_555 1_555
H18_2 C13_2 1_555 1_555
H19_2 C13_2 1_555 1_555
C14_2 S3_2 1_555 1_555
H20_2 C14_2 1_555 1_555
H21_2 C14_2 1_555 1_555
H22_2 C14_2 1_555 1_555
C15B C15 1_555 1_555
C16B S7B 1_555 1_555
C18_2 S4_2 1_555 1_555
H23_2 C18_2 1_555 1_555
H24_2 C18_2 1_555 1_555
H25_2 C18_2 1_555 1_555
C19_2 S4_2 1_555 1_555
H26_2 C19_2 1_555 1_555
H27_2 C19_2 1_555 1_555
H28_2 C19_2 1_555 1_555
C22_2 S6_2 1_555 1_555
H35_2 C22_2 1_555 1_555
H36_2 C22_2 1_555 1_555
H37_2 C22_2 1_555 1_555
C23_2 S6_2 1_555 1_555
H38_2 C23_2 1_555 1_555
H39_2 C23_2 1_555 1_555
H40_2 C23_2 1_555 1_555
C24_2 N3_2 1_555 1_555
C25_2 C24_2 1_555 1_555
H41_2 C25_2 1_555 1_555
H42_2 C25_2 1_555 1_555
H43_2 C25_2 1_555 1_555
C26_2 N4_2 1_555 1_555
C27_2 C26_2 1_555 1_555
H44_2 C27_2 1_555 1_555
H45_2 C27_2 1_555 1_555
H46_2 C27_2 1_555 1_555
Mo2 O13 1_555 1_555
Mo3 O16 1_555 1_555
Mo4 O4 1_555 1_555
Mo4 O20 1_555 1_555
Mo5 O12 1_555 1_555
Mo6 O8 1_555 1_555
Mo6 O17 1_555 1_555
Mo6 O23 1_555 1_555
Ag1 O10 1_555 1_555
Mn1 O8 1_555 1_555
Mn1 O12 1_555 1_555
Mn1 O16 1_555 1_555
Mn1 O17 1_555 1_555
Mn1 O20 1_555 1_555
O27 Ag2_2 1_555 1_555
C1 C2 1_555 1_555
C1 C3 1_555 1_555
C1 C4 1_555 1_555
C5 C6 1_555 1_555
C5 C7 1_555 1_555
C5 C8 1_555 1_555
Mo2_2 O13_2 1_555 1_555
Mo3_2 O16_2 1_555 1_555
Mo4_2 O4_2 1_555 1_555
Mo4_2 O20_2 1_555 1_555
Mo5_2 O12_2 1_555 1_555
Mo6_2 O8_2 1_555 1_555
Mo6_2 O17_2 1_555 1_555
Mo6_2 O23_2 1_555 1_555
Ag1_2 O10_2 1_555 1_555
Ag1_2 O25_2 1_555 1_555
Ag1_2 O27_2 1_555 1_555
Mn1_2 O8_2 1_555 1_555
Mn1_2 O12_2 1_555 1_555
Mn1_2 O16_2 1_555 1_555
Mn1_2 O17_2 1_555 1_555
Mn1_2 O20_2 1_555 1_555
S7B C15B 1_555 1_555
C1_2 C2_2 1_555 1_555
C1_2 C3_2 1_555 1_555
C1_2 C4_2 1_555 1_555
C5_2 C6_2 1_555 1_555
C5_2 C7_2 1_555 1_555
C5_2 C8_2 1_555 1_555

#END
