
#######################################################################
#
#                 Cambridge Crystallographic Data Centre
#                                CCDC 
#
#######################################################################
#
# If this CIF has been generated from an entry in the Cambridge 
# Structural Database, then it will include bibliographic, chemical, 
# crystal, experimental, refinement or atomic coordinate data resulting 
# from the CCDC's data processing and validation procedures.
#
#######################################################################

data_ODESAS
_symmetry_cell_setting           monoclinic
_symmetry_space_group_name_H-M   'C 2/c'
_symmetry_Int_Tables_number      15
_space_group_name_Hall           '-C 2yn'
loop_
_symmetry_equiv_pos_site_id
_symmetry_equiv_pos_as_xyz
1 x,y,z
2 1/2+x,1/2+y,z
3 -x,y,1/2-z
4 1/2-x,1/2+y,1/2-z
5 -x,-y,-z
6 1/2-x,1/2-y,-z
7 x,-y,1/2+z
8 1/2+x,1/2-y,1/2+z
_cell_length_a                   21.761(10)
_cell_length_b                   15.819(7)
_cell_length_c                   17.876(8)
_cell_angle_alpha                90
_cell_angle_beta                 97.911(5)
_cell_angle_gamma                90
_cell_volume                     6095.02
loop_
_atom_site_label
_atom_site_type_symbol
_atom_site_fract_x
_atom_site_fract_y
_atom_site_fract_z
Ni1 Ni 0.5000 0.25808(6) 0.7500
Mn1 Mn 0.31245(3) 0.20704(4) 0.55580(4)
O1 O 0.28556(14) 0.3206(2) 0.53706(18)
O2 O 0.25622(16) 0.1881(2) 0.62433(19)
O3 O 0.3884(2) 0.2497(2) 0.6330(3)
N1 N 0.36754(16) 0.2139(2) 0.4765(2)
N2 N 0.33503(16) 0.0861(2) 0.5515(2)
N3 N 0.4156(3) 0.2548(3) 0.6864(4)
N4 N 0.4491(2) 0.2605(2) 0.8369(2)
N5 N 0.3580(2) 0.2560(3) 0.8791(2)
N6 N 0.5000 0.1198(3) 0.7500
N7 N 0.5000 0.3929(3) 0.7500
C1 C 0.3244(2) 0.3822(3) 0.5200(2)
C2 C 0.3135(2) 0.4657(3) 0.5419(3)
C3 C 0.3492(2) 0.5316(3) 0.5210(3)
C4 C 0.3970(2) 0.5169(3) 0.4782(3)
C5 C 0.4088(2) 0.4358(3) 0.4571(3)
C6 C 0.3734(2) 0.3670(3) 0.4785(3)
C7 C 0.3882(2) 0.2840(3) 0.4535(3)
C8 C 0.3824(2) 0.1317(2) 0.4411(2)
C9 C 0.4443(2) 0.1366(3) 0.4086(3)
C10 C 0.3302(2) 0.1164(3) 0.3762(2)
C11 C 0.3852(2) 0.0638(2) 0.5044(2)
C12 C 0.4458(2) 0.0693(3) 0.5589(2)
C13 C 0.3770(2) -0.0252(3) 0.4711(2)
C14 C 0.3155(2) 0.0281(3) 0.5933(2)
C15 C 0.2722(2) 0.0389(3) 0.6469(2)
C16 C 0.2577(2) -0.0333(3) 0.6880(3)
C17 C 0.2171(2) -0.0281(3) 0.7389(3)
C18 C 0.1894(2) 0.0488(3) 0.7513(3)
C19 C 0.2027(2) 0.1208(3) 0.7131(3)
C20 C 0.2444(2) 0.1175(3) 0.6600(2)
C21 C 0.3591(3) 0.2552(3) 0.7386(3)
C22 C 0.3880(2) 0.2586(3) 0.8167(3)
C23 C 0.2924(3) 0.2481(4) 0.8814(4)
C24 C 0.4035(3) 0.2583(3) 0.9405(3)
C25 C 0.4581(3) 0.2611(3) 0.9137(3)
C26 C 0.5519(2) 0.0744(3) 0.7469(2)
C27 C 0.5538(2) -0.0120(3) 0.7482(2)
C28 C 0.500000(10) -0.0580(4) 0.750000(10)
C29 C 0.4727(2) 0.4371(3) 0.6899(3)
C30 C 0.4718(2) 0.5240(3) 0.6884(3)
C31 C 0.500000(10) 0.5686(4) 0.750000(10)
H1 H 0.2812 0.4769 0.5714
H2 H 0.3411 0.5877 0.5361
H3 H 0.4211 0.5626 0.4637
H4 H 0.4412 0.4256 0.4277
H5 H 0.4157 0.2808 0.4167
H6 H 0.4632 0.0824 0.4111
H7 H 0.4711 0.1757 0.4372
H8 H 0.4367 0.1547 0.3575
H9 H 0.2980 0.0849 0.3942
H10 H 0.3142 0.1692 0.3570
H11 H 0.3458 0.0857 0.3373
H12 H 0.4751 0.0308 0.5435
H13 H 0.4617 0.1252 0.5585
H14 H 0.4381 0.0554 0.6084
H15 H 0.3986 -0.0646 0.5053
H16 H 0.3342 -0.0392 0.4630
H17 H 0.3932 -0.0272 0.4245
H18 H 0.3313 -0.0273 0.5883
H19 H 0.2768 -0.0859 0.6799
H20 H 0.2076 -0.0769 0.7660
H21 H 0.1608 0.0519 0.7867
H22 H 0.1835 0.1728 0.7228
H23 H 0.3159 0.2536 0.7211
H24 H 0.2740 0.2166 0.8389
H25 H 0.2742 0.3028 0.8804
H26 H 0.2857 0.2198 0.9264
H27 H 0.3975 0.2580 0.9922
H28 H 0.4974 0.2632 0.9441
H29 H 0.5894 0.1041 0.7436
H30 H 0.5922 -0.0405 0.7479
H31 H 0.5000 -0.1180 0.7500
H32 H 0.4533 0.4071 0.6470
H33 H 0.4519 0.5532 0.6453
H34 H 0.5000 0.6286 0.7500
Mn1B Mn 0.68755(3) 0.20704(4) 0.94420(4)
Mn1E Mn 0.18755(3) 0.29296(4) 0.44420(4)
O1E O 0.21444(14) 0.1794(2) 0.46294(18)
O1G O 0.78556(14) 0.1794(2) 1.03706(18)
O1B O 0.71444(14) 0.3206(2) 0.96294(18)
O2E O 0.24378(16) 0.3119(2) 0.37567(19)
O2B O 0.74378(16) 0.1881(2) 0.87567(19)
O3B O 0.6116(2) 0.2497(2) 0.8670(3)
N1E N 0.13246(16) 0.2861(2) 0.5235(2)
N1B N 0.63246(16) 0.2139(2) 1.0235(2)
N2E N 0.16497(16) 0.4139(2) 0.4485(2)
N2B N 0.66497(16) 0.0861(2) 0.9485(2)
N3B N 0.5844(3) 0.2548(3) 0.8136(4)
N4B N 0.5509(2) 0.2605(2) 0.6631(2)
N5B N 0.6420(2) 0.2560(3) 0.6209(2)
C1E C 0.1756(2) 0.1178(3) 0.4800(2)
C2E C 0.1865(2) 0.0343(3) 0.4581(3)
C3E C 0.1508(2) -0.0316(3) 0.4790(3)
C4E C 0.1030(2) -0.0169(3) 0.5218(3)
C5E C 0.0912(2) 0.0642(3) 0.5429(3)
C6E C 0.1266(2) 0.1330(3) 0.5215(3)
C7E C 0.1118(2) 0.2160(3) 0.5465(3)
C8E C 0.1176(2) 0.3683(2) 0.5589(2)
C9E C 0.0557(2) 0.3634(3) 0.5914(3)
C10E C 0.1698(2) 0.3836(3) 0.6238(2)
C11E C 0.1148(2) 0.4362(2) 0.4956(2)
C12E C 0.0542(2) 0.4307(3) 0.4411(2)
C13E C 0.1230(2) 0.5252(3) 0.5289(2)
C14E C 0.1845(2) 0.4719(3) 0.4067(2)
C15E C 0.2278(2) 0.4611(3) 0.3531(2)
C16E C 0.2423(2) 0.5333(3) 0.3120(3)
C17E C 0.2829(2) 0.5281(3) 0.2611(3)
C18E C 0.3106(2) 0.4512(3) 0.2487(3)
C19E C 0.2973(2) 0.3792(3) 0.2869(3)
C20E C 0.2556(2) 0.3825(3) 0.3400(2)
C21B C 0.6409(3) 0.2552(3) 0.7614(3)
C22B C 0.6120(2) 0.2586(3) 0.6833(3)
C23B C 0.7076(3) 0.2481(4) 0.6186(4)
C24B C 0.5965(3) 0.2583(3) 0.5595(3)
C25B C 0.5419(3) 0.2611(3) 0.5863(3)
C26B C 0.4481(2) 0.0744(3) 0.7531(2)
C27B C 0.4462(2) -0.0120(3) 0.7518(2)
C29B C 0.5273(2) 0.4371(3) 0.8101(3)
C30B C 0.5282(2) 0.5240(3) 0.8116(3)
H1E H 0.2188 0.0231 0.4286
H2E H 0.1589 -0.0877 0.4639
H3E H 0.0789 -0.0626 0.5363
H4E H 0.0588 0.0744 0.5723
H5E H 0.0843 0.2192 0.5833
H6E H 0.0368 0.4176 0.5889
H7E H 0.0289 0.3243 0.5628
H8E H 0.0633 0.3453 0.6425
H9E H 0.2020 0.4151 0.6058
H10E H 0.1858 0.3308 0.6430
H11E H 0.1542 0.4143 0.6627
H12E H 0.0249 0.4692 0.4565
H13E H 0.0383 0.3748 0.4415
H14E H 0.0619 0.4446 0.3916
H15E H 0.1014 0.5646 0.4947
H16E H 0.1658 0.5392 0.5370
H17E H 0.1068 0.5272 0.5755
H18E H 0.1687 0.5273 0.4117
H19E H 0.2232 0.5859 0.3201
H20E H 0.2924 0.5769 0.2340
H21E H 0.3392 0.4481 0.2133
H22E H 0.3165 0.3272 0.2772
H23B H 0.6841 0.2536 0.7789
H24B H 0.7260 0.2166 0.6611
H25B H 0.7258 0.3028 0.6196
H26B H 0.7143 0.2198 0.5736
H27B H 0.6025 0.2580 0.5078
H28B H 0.5026 0.2632 0.5559
H29B H 0.4106 0.1041 0.7564
H30B H 0.4078 -0.0405 0.7521
H32B H 0.5467 0.4071 0.8530
H33B H 0.5481 0.5532 0.8547
Cl1 Cl 0.39244(7) -0.23424(9) 0.65189(8)
O4 O 0.3869(5) -0.1582(4) 0.6187(4)
O5 O 0.3926(3) -0.2258(4) 0.7302(2)
O6 O 0.3464(2) -0.2913(5) 0.6263(3)
O7 O 0.4485(2) -0.2690(4) 0.6333(3)
loop_
_geom_bond_atom_site_label_1
_geom_bond_atom_site_label_2
_geom_bond_site_symmetry_1
_geom_bond_site_symmetry_2
Ni1 N3 1_555 1_555
Mn1 O1 1_555 1_555
O1 C1 1_555 1_555
O2 Mn1 1_555 1_555
O3 Mn1 1_555 1_555
N1 Mn1 1_555 1_555
N2 Mn1 1_555 1_555
N3 O3 1_555 1_555
N4 Ni1 1_555 1_555
N5 C22 1_555 1_555
N6 Ni1 1_555 1_555
N7 Ni1 1_555 1_555
C1 C2 1_555 1_555
C2 C3 1_555 1_555
C3 C4 1_555 1_555
C4 C5 1_555 1_555
C5 C6 1_555 1_555
C6 C1 1_555 1_555
C7 N1 1_555 1_555
C8 N1 1_555 1_555
C9 C8 1_555 1_555
C10 C8 1_555 1_555
C11 N2 1_555 1_555
C12 C11 1_555 1_555
C13 C11 1_555 1_555
C14 N2 1_555 1_555
C15 C14 1_555 1_555
C16 C15 1_555 1_555
C17 C16 1_555 1_555
C18 C17 1_555 1_555
C19 C18 1_555 1_555
C20 O2 1_555 1_555
C21 N3 1_555 1_555
C22 N4 1_555 1_555
C23 N5 1_555 1_555
C24 N5 1_555 1_555
C25 N4 1_555 1_555
C26 N6 1_555 1_555
C27 C26 1_555 1_555
C28 C27 1_555 1_555
C29 N7 1_555 1_555
C30 C29 1_555 1_555
C31 C30 1_555 1_555
H1 C2 1_555 1_555
H2 C3 1_555 1_555
H3 C4 1_555 1_555
H4 C5 1_555 1_555
H5 C7 1_555 1_555
H6 C9 1_555 1_555
H7 C9 1_555 1_555
H8 C9 1_555 1_555
H9 C10 1_555 1_555
H10 C10 1_555 1_555
H11 C10 1_555 1_555
H12 C12 1_555 1_555
H13 C12 1_555 1_555
H14 C12 1_555 1_555
H15 C13 1_555 1_555
H16 C13 1_555 1_555
H17 C13 1_555 1_555
H18 C14 1_555 1_555
H19 C16 1_555 1_555
H20 C17 1_555 1_555
H21 C18 1_555 1_555
H22 C19 1_555 1_555
H23 C21 1_555 1_555
H24 C23 1_555 1_555
H25 C23 1_555 1_555
H26 C23 1_555 1_555
H27 C24 1_555 1_555
H28 C25 1_555 1_555
H29 C26 1_555 1_555
H30 C27 1_555 1_555
H31 C28 1_555 1_555
H32 C29 1_555 1_555
H33 C30 1_555 1_555
H34 C31 1_555 1_555
Cl1 O4 1_555 1_555
O5 Cl1 1_555 1_555
O6 Cl1 1_555 1_555
O7 Cl1 1_555 1_555
Mn1B O1G 1_555 1_555
Mn1E O1 1_555 1_555
O1E Mn1 1_555 1_555
O1B Mn1B 1_555 1_555
O2E Mn1E 1_555 1_555
O2B Mn1B 1_555 1_555
O3B Mn1B 1_555 1_555
N1E Mn1E 1_555 1_555
N1B Mn1B 1_555 1_555
N2E Mn1E 1_555 1_555
N2B Mn1B 1_555 1_555
N3B Ni1 1_555 1_555
N4B Ni1 1_555 1_555
N5B C22B 1_555 1_555
C1E O1E 1_555 1_555
C2E C1E 1_555 1_555
C3E C2E 1_555 1_555
C4E C3E 1_555 1_555
C5E C4E 1_555 1_555
C6E C1E 1_555 1_555
C7E N1E 1_555 1_555
C8E N1E 1_555 1_555
C9E C8E 1_555 1_555
C10E C8E 1_555 1_555
C11E N2E 1_555 1_555
C12E C11E 1_555 1_555
C13E C11E 1_555 1_555
C14E N2E 1_555 1_555
C15E C14E 1_555 1_555
C16E C15E 1_555 1_555
C17E C16E 1_555 1_555
C18E C17E 1_555 1_555
C19E C18E 1_555 1_555
C20E O2E 1_555 1_555
C21B N3B 1_555 1_555
C22B N4B 1_555 1_555
C23B N5B 1_555 1_555
C24B N5B 1_555 1_555
C25B N4B 1_555 1_555
C26B N6 1_555 1_555
C27B C28 1_555 1_555
C29B N7 1_555 1_555
C30B C31 1_555 1_555
H1E C2E 1_555 1_555
H2E C3E 1_555 1_555
H3E C4E 1_555 1_555
H4E C5E 1_555 1_555
H5E C7E 1_555 1_555
H6E C9E 1_555 1_555
H7E C9E 1_555 1_555
H8E C9E 1_555 1_555
H9E C10E 1_555 1_555
H10E C10E 1_555 1_555
H11E C10E 1_555 1_555
H12E C12E 1_555 1_555
H13E C12E 1_555 1_555
H14E C12E 1_555 1_555
H15E C13E 1_555 1_555
H16E C13E 1_555 1_555
H17E C13E 1_555 1_555
H18E C14E 1_555 1_555
H19E C16E 1_555 1_555
H20E C17E 1_555 1_555
H21E C18E 1_555 1_555
H22E C19E 1_555 1_555
H23B C21B 1_555 1_555
H24B C23B 1_555 1_555
H25B C23B 1_555 1_555
H26B C23B 1_555 1_555
H27B C24B 1_555 1_555
H28B C25B 1_555 1_555
H29B C26B 1_555 1_555
H30B C27B 1_555 1_555
H32B C29B 1_555 1_555
H33B C30B 1_555 1_555
C6 C7 1_555 1_555
C8 C11 1_555 1_555
C15 C20 1_555 1_555
C19 C20 1_555 1_555
C21 C22 1_555 1_555
C24 C25 1_555 1_555
Mn1E O1E 1_555 1_555
O3B N3B 1_555 1_555
C5E C6E 1_555 1_555
C6E C7E 1_555 1_555
C8E C11E 1_555 1_555
C15E C20E 1_555 1_555
C19E C20E 1_555 1_555
C21B C22B 1_555 1_555
C24B C25B 1_555 1_555
C26B C27B 1_555 1_555
C29B C30B 1_555 1_555

#END
