
#######################################################################
#
#                 Cambridge Crystallographic Data Centre
#                                CCDC 
#
#######################################################################
#
# If this CIF has been generated from an entry in the Cambridge 
# Structural Database, then it will include bibliographic, chemical, 
# crystal, experimental, refinement or atomic coordinate data resulting 
# from the CCDC's data processing and validation procedures.
#
#######################################################################

data_ODESIA
_symmetry_cell_setting           monoclinic
_symmetry_space_group_name_H-M   'C 2/c'
_symmetry_Int_Tables_number      15
_space_group_name_Hall           '-C 2yn'
loop_
_symmetry_equiv_pos_site_id
_symmetry_equiv_pos_as_xyz
1 x,y,z
2 1/2+x,1/2+y,z
3 -x,y,1/2-z
4 1/2-x,1/2+y,1/2-z
5 -x,-y,-z
6 1/2-x,1/2-y,-z
7 x,-y,1/2+z
8 1/2+x,1/2-y,1/2+z
_cell_length_a                   21.992(10)
_cell_length_b                   16.141(7)
_cell_length_c                   17.831(8)
_cell_angle_alpha                90
_cell_angle_beta                 98.103(5)
_cell_angle_gamma                90
_cell_volume                     6266.33
loop_
_atom_site_label
_atom_site_type_symbol
_atom_site_fract_x
_atom_site_fract_y
_atom_site_fract_z
Ni1 Ni 1.0000 0.23199(6) 0.2500
Mn1 Mn 1.18599(3) 0.28806(4) 0.44395(4)
O1 O 1.21538(14) 0.17849(18) 0.46779(16)
O2 O 1.23691(14) 0.30196(19) 0.36915(16)
O3 O 1.10750(15) 0.2401(2) 0.37529(18)
N1 N 1.13456(16) 0.2853(2) 0.52699(19)
N2 N 1.16363(17) 0.4077(2) 0.4439(2)
N3 N 1.0908(2) 0.2335(2) 0.3024(2)
N4 N 1.04518(19) 0.2286(2) 0.1577(2)
N5 N 1.1353(2) 0.2238(2) 0.1155(2)
N6 N 1.0000 0.0993(3) 0.2500
N7 N 1.0000 0.3653(3) 0.2500
C1 C 1.1772(2) 0.1192(2) 0.4865(2)
C2 C 1.1861(2) 0.0370(2) 0.4638(2)
C3 C 1.1492(2) -0.0263(3) 0.4851(3)
C4 C 1.1035(2) -0.0104(3) 0.5301(3)
C5 C 1.0949(2) 0.0698(3) 0.5518(3)
C6 C 1.1300(2) 0.1351(2) 0.5296(2)
C7 C 1.1161(2) 0.2178(3) 0.5537(2)
C8 C 1.1190(2) 0.3679(2) 0.5587(2)
C9 C 1.0596(2) 0.3642(3) 0.5931(2)
C10 C 1.1728(2) 0.3874(3) 0.6212(2)
C11 C 1.1144(2) 0.4302(2) 0.4913(2)
C12 C 1.0532(2) 0.4215(3) 0.4388(2)
C13 C 1.1212(2) 0.5192(2) 0.5200(2)
C14 C 1.1835(2) 0.4621(3) 0.4005(2)
C15 C 1.2261(2) 0.4490(2) 0.3473(2)
C16 C 1.2432(2) 0.5183(3) 0.3069(2)
C17 C 1.2841(2) 0.5110(3) 0.2557(2)
C18 C 1.3083(2) 0.4339(3) 0.2428(2)
C19 C 1.2923(2) 0.3646(3) 0.2813(2)
C20 C 1.2507(2) 0.3704(2) 0.3341(2)
C21 C 1.1325(2) 0.2266(3) 0.2568(2)
C22 C 1.1064(2) 0.2250(2) 0.1779(2)
C23 C 1.2017(2) 0.2258(3) 0.1136(2)
C24 C 1.2213(2) 0.3072(3) 0.0833(3)
C25 C 1.0901(2) 0.2261(3) 0.0530(2)
C26 C 1.0358(2) 0.2271(3) 0.0804(2)
C27 C 0.9714(2) 0.0563(3) 0.1907(3)
C28 C 0.9707(2) -0.0291(3) 0.1891(3)
C29 C 1.000000(10) -0.0732(5) 0.250000(10)
C30 C 0.9489(2) 0.4104(3) 0.2585(2)
C31 C 0.9477(2) 0.4967(3) 0.2577(2)
C32 C 1.000000(10) 0.5410(4) 0.250000(10)
H1 H 1.2174 0.0247 0.4338
H2 H 1.1553 -0.0814 0.4688
H3 H 1.0789 -0.0540 0.5452
H4 H 1.0641 0.0812 0.5829
H5 H 1.0910 0.2222 0.5927
H6 H 1.0286 0.3392 0.5579
H7 H 1.0473 0.4187 0.6043
H8 H 1.0658 0.3323 0.6383
H9 H 1.1641 0.3657 0.6681
H10 H 1.1780 0.4457 0.6254
H11 H 1.2093 0.3629 0.6087
H12 H 1.0430 0.4728 0.4142
H13 H 1.0218 0.4064 0.4678
H14 H 1.0568 0.3799 0.4020
H15 H 1.1623 0.5283 0.5432
H16 H 1.0939 0.5287 0.5559
H17 H 1.1117 0.5562 0.4785
H18 H 1.1685 0.5169 0.4041
H19 H 1.2262 0.5711 0.3153
H20 H 1.2956 0.5583 0.2293
H21 H 1.3363 0.4286 0.2072
H22 H 1.3096 0.3124 0.2718
H23 H 1.1753 0.2230 0.2740
H24 H 1.2225 0.2177 0.1635
H25 H 1.2122 0.1824 0.0817
H26 H 1.2196 0.3040 0.0299
H27 H 1.1948 0.3500 0.0956
H28 H 1.0960 0.2269 0.0013
H29 H 0.9967 0.2268 0.0501
H30 H 0.9509 0.0859 0.1484
H31 H 0.9502 -0.0575 0.1462
H32 H 0.9125 0.3815 0.2652
H33 H 0.9106 0.5251 0.2626
H34 H 1.0000 -0.1404 0.2500
H35 H 1.0000 0.5884 0.2500
H36 H 1.2622 0.3190 0.1057
Mn1B Mn 0.81401(3) 0.28806(4) 0.05605(4)
Mn1E Mn 1.31401(3) 0.21194(4) 0.55605(4)
O1E O 1.28462(14) 0.32151(18) 0.53221(16)
O1G O 0.71538(14) 0.32151(18) -0.03221(16)
O1B O 0.78462(14) 0.17849(18) 0.03221(16)
O2E O 1.26309(14) 0.19804(19) 0.63085(16)
O2B O 0.76309(14) 0.30196(19) 0.13085(16)
O3B O 0.89250(15) 0.2401(2) 0.12471(18)
N1E N 1.36544(16) 0.2147(2) 0.47301(19)
N1B N 0.86544(16) 0.2853(2) -0.02699(19)
N2E N 1.33637(17) 0.0923(2) 0.5561(2)
N2B N 0.83637(17) 0.4077(2) 0.0561(2)
N3B N 0.9092(2) 0.2335(2) 0.1976(2)
N4B N 0.95482(19) 0.2286(2) 0.3423(2)
N5B N 0.8647(2) 0.2238(2) 0.3845(2)
C1E C 1.3228(2) 0.3808(2) 0.5135(2)
C2E C 1.3139(2) 0.4630(2) 0.5362(2)
C3E C 1.3508(2) 0.5263(3) 0.5149(3)
C4E C 1.3965(2) 0.5104(3) 0.4699(3)
C5E C 1.4051(2) 0.4302(3) 0.4482(3)
C6E C 1.3700(2) 0.3649(2) 0.4704(2)
C7E C 1.3839(2) 0.2822(3) 0.4463(2)
C8E C 1.3810(2) 0.1321(2) 0.4413(2)
C9E C 1.4404(2) 0.1358(3) 0.4069(2)
C10E C 1.3272(2) 0.1126(3) 0.3788(2)
C11E C 1.3856(2) 0.0698(2) 0.5087(2)
C12E C 1.4468(2) 0.0785(3) 0.5612(2)
C13E C 1.3788(2) -0.0192(2) 0.4800(2)
C14E C 1.3165(2) 0.0379(3) 0.5995(2)
C15E C 1.2739(2) 0.0510(2) 0.6527(2)
C16E C 1.2568(2) -0.0183(3) 0.6931(2)
C17E C 1.2159(2) -0.0110(3) 0.7443(2)
C18E C 1.1917(2) 0.0661(3) 0.7572(2)
C19E C 1.2077(2) 0.1354(3) 0.7187(2)
C20E C 1.2493(2) 0.1296(2) 0.6659(2)
C21B C 0.8675(2) 0.2266(3) 0.2432(2)
C22B C 0.8936(2) 0.2250(2) 0.3221(2)
C23B C 0.7983(2) 0.2258(3) 0.3864(2)
C24B C 0.7787(2) 0.3072(3) 0.4167(3)
C25B C 0.9099(2) 0.2261(3) 0.4470(2)
C26B C 0.9642(2) 0.2271(3) 0.4196(2)
C27B C 1.0286(2) 0.0563(3) 0.3093(3)
C28B C 1.0293(2) -0.0291(3) 0.3109(3)
C30B C 1.0511(2) 0.4104(3) 0.2415(2)
C31B C 1.0523(2) 0.4967(3) 0.2423(2)
H1E H 1.2826 0.4753 0.5662
H2E H 1.3447 0.5814 0.5312
H3E H 1.4211 0.5540 0.4548
H4E H 1.4359 0.4188 0.4171
H5E H 1.4090 0.2778 0.4073
H6E H 1.4714 0.1608 0.4421
H7E H 1.4527 0.0813 0.3957
H8E H 1.4342 0.1677 0.3617
H9E H 1.3359 0.1343 0.3319
H10E H 1.3220 0.0543 0.3746
H11E H 1.2907 0.1371 0.3913
H12E H 1.4570 0.0272 0.5858
H13E H 1.4782 0.0936 0.5322
H14E H 1.4432 0.1201 0.5980
H15E H 1.3377 -0.0283 0.4568
H16E H 1.4061 -0.0287 0.4441
H17E H 1.3883 -0.0562 0.5215
H18E H 1.3315 -0.0169 0.5959
H19E H 1.2738 -0.0711 0.6847
H20E H 1.2044 -0.0583 0.7707
H21E H 1.1637 0.0714 0.7928
H22E H 1.1904 0.1876 0.7282
H23B H 0.8247 0.2230 0.2260
H24B H 0.7775 0.2177 0.3365
H25B H 0.7878 0.1824 0.4183
H26B H 0.7804 0.3040 0.4701
H27B H 0.8052 0.3500 0.4044
H28B H 0.9040 0.2269 0.4987
H29B H 1.0033 0.2268 0.4499
H30B H 1.0491 0.0859 0.3516
H31B H 1.0498 -0.0575 0.3538
H32B H 1.0875 0.3815 0.2348
H33B H 1.0894 0.5251 0.2374
H36B H 0.7378 0.3190 0.3943
Cl1 Cl 1.10961(7) 0.71731(9) 0.34243(8)
O4 O 1.1646(3) 0.6781(4) 0.3666(10)
O5 O 1.0746(3) 0.6660(4) 0.3752(3)
O6 O 1.1063(6) 0.7156(5) 0.2688(3)
O7 O 1.1195(2) 0.7971(2) 0.3724(2)
loop_
_geom_bond_atom_site_label_1
_geom_bond_atom_site_label_2
_geom_bond_site_symmetry_1
_geom_bond_site_symmetry_2
Ni1 N3 1_555 1_555
Mn1 O1 1_555 1_555
O1 C1 1_555 1_555
O2 Mn1 1_555 1_555
O3 Mn1 1_555 1_555
N1 Mn1 1_555 1_555
N2 Mn1 1_555 1_555
N3 O3 1_555 1_555
N4 Ni1 1_555 1_555
N5 C22 1_555 1_555
N6 Ni1 1_555 1_555
N7 Ni1 1_555 1_555
C1 C2 1_555 1_555
C2 C3 1_555 1_555
C3 C4 1_555 1_555
C4 C5 1_555 1_555
C5 C6 1_555 1_555
C6 C1 1_555 1_555
C7 N1 1_555 1_555
C8 N1 1_555 1_555
C9 C8 1_555 1_555
C10 C8 1_555 1_555
C11 N2 1_555 1_555
C12 C11 1_555 1_555
C13 C11 1_555 1_555
C14 N2 1_555 1_555
C15 C14 1_555 1_555
C16 C15 1_555 1_555
C17 C16 1_555 1_555
C18 C17 1_555 1_555
C19 C18 1_555 1_555
C20 O2 1_555 1_555
C21 N3 1_555 1_555
C22 N4 1_555 1_555
C23 N5 1_555 1_555
C24 C23 1_555 1_555
C25 N5 1_555 1_555
C26 N4 1_555 1_555
C27 N6 1_555 1_555
C28 C27 1_555 1_555
C29 C28 1_555 1_555
C30 N7 1_555 1_555
C31 C30 1_555 1_555
C32 C31 1_555 1_555
H1 C2 1_555 1_555
H2 C3 1_555 1_555
H3 C4 1_555 1_555
H4 C5 1_555 1_555
H5 C7 1_555 1_555
H6 C9 1_555 1_555
H7 C9 1_555 1_555
H8 C9 1_555 1_555
H9 C10 1_555 1_555
H10 C10 1_555 1_555
H11 C10 1_555 1_555
H12 C12 1_555 1_555
H13 C12 1_555 1_555
H14 C12 1_555 1_555
H15 C13 1_555 1_555
H16 C13 1_555 1_555
H17 C13 1_555 1_555
H18 C14 1_555 1_555
H19 C16 1_555 1_555
H20 C17 1_555 1_555
H21 C18 1_555 1_555
H22 C19 1_555 1_555
H23 C21 1_555 1_555
H24 C23 1_555 1_555
H25 C23 1_555 1_555
H26 C24 1_555 1_555
H27 C24 1_555 1_555
H28 C25 1_555 1_555
H29 C26 1_555 1_555
H30 C27 1_555 1_555
H31 C28 1_555 1_555
H32 C30 1_555 1_555
H33 C31 1_555 1_555
H34 C29 1_555 1_555
H35 C32 1_555 1_555
H36 C24 1_555 1_555
Cl1 O4 1_555 1_555
O5 Cl1 1_555 1_555
O6 Cl1 1_555 1_555
O7 Cl1 1_555 1_555
Mn1B O1G 1_555 1_555
Mn1E O1 1_555 1_555
O1E Mn1 1_555 1_555
O1B Mn1B 1_555 1_555
O2E Mn1E 1_555 1_555
O2B Mn1B 1_555 1_555
O3B Mn1B 1_555 1_555
N1E Mn1E 1_555 1_555
N1B Mn1B 1_555 1_555
N2E Mn1E 1_555 1_555
N2B Mn1B 1_555 1_555
N3B Ni1 1_555 1_555
N4B Ni1 1_555 1_555
N5B C22B 1_555 1_555
C1E O1E 1_555 1_555
C2E C1E 1_555 1_555
C3E C2E 1_555 1_555
C4E C3E 1_555 1_555
C5E C4E 1_555 1_555
C6E C1E 1_555 1_555
C7E N1E 1_555 1_555
C8E N1E 1_555 1_555
C9E C8E 1_555 1_555
C10E C8E 1_555 1_555
C11E N2E 1_555 1_555
C12E C11E 1_555 1_555
C13E C11E 1_555 1_555
C14E N2E 1_555 1_555
C15E C14E 1_555 1_555
C16E C15E 1_555 1_555
C17E C16E 1_555 1_555
C18E C17E 1_555 1_555
C19E C18E 1_555 1_555
C20E O2E 1_555 1_555
C21B N3B 1_555 1_555
C22B N4B 1_555 1_555
C23B N5B 1_555 1_555
C24B C23B 1_555 1_555
C25B N5B 1_555 1_555
C26B N4B 1_555 1_555
C27B N6 1_555 1_555
C28B C29 1_555 1_555
C30B N7 1_555 1_555
C31B C32 1_555 1_555
H1E C2E 1_555 1_555
H2E C3E 1_555 1_555
H3E C4E 1_555 1_555
H4E C5E 1_555 1_555
H5E C7E 1_555 1_555
H6E C9E 1_555 1_555
H7E C9E 1_555 1_555
H8E C9E 1_555 1_555
H9E C10E 1_555 1_555
H10E C10E 1_555 1_555
H11E C10E 1_555 1_555
H12E C12E 1_555 1_555
H13E C12E 1_555 1_555
H14E C12E 1_555 1_555
H15E C13E 1_555 1_555
H16E C13E 1_555 1_555
H17E C13E 1_555 1_555
H18E C14E 1_555 1_555
H19E C16E 1_555 1_555
H20E C17E 1_555 1_555
H21E C18E 1_555 1_555
H22E C19E 1_555 1_555
H23B C21B 1_555 1_555
H24B C23B 1_555 1_555
H25B C23B 1_555 1_555
H26B C24B 1_555 1_555
H27B C24B 1_555 1_555
H28B C25B 1_555 1_555
H29B C26B 1_555 1_555
H30B C27B 1_555 1_555
H31B C28B 1_555 1_555
H32B C30B 1_555 1_555
H33B C31B 1_555 1_555
H36B C24B 1_555 1_555
C6 C7 1_555 1_555
C8 C11 1_555 1_555
C15 C20 1_555 1_555
C19 C20 1_555 1_555
C21 C22 1_555 1_555
C25 C26 1_555 1_555
Mn1E O1E 1_555 1_555
O3B N3B 1_555 1_555
C5E C6E 1_555 1_555
C6E C7E 1_555 1_555
C8E C11E 1_555 1_555
C15E C20E 1_555 1_555
C19E C20E 1_555 1_555
C21B C22B 1_555 1_555
C25B C26B 1_555 1_555
C27B C28B 1_555 1_555
C30B C31B 1_555 1_555

#END
