
#######################################################################
#
#                 Cambridge Crystallographic Data Centre
#                                CCDC 
#
#######################################################################
#
# If this CIF has been generated from an entry in the Cambridge 
# Structural Database, then it will include bibliographic, chemical, 
# crystal, experimental, refinement or atomic coordinate data resulting 
# from the CCDC's data processing and validation procedures.
#
#######################################################################

data_ODEYIG
_symmetry_cell_setting           orthorhombic
_symmetry_space_group_name_H-M   'P 21 21 21'
_symmetry_Int_Tables_number      19
_space_group_name_Hall           'P 2ac 2ab'
loop_
_symmetry_equiv_pos_site_id
_symmetry_equiv_pos_as_xyz
1 x,y,z
2 1/2-x,-y,1/2+z
3 -x,1/2+y,1/2-z
4 1/2+x,1/2-y,-z
_cell_length_a                   9.8373(12)
_cell_length_b                   14.6653(19)
_cell_length_c                   24.263(3)
_cell_angle_alpha                90
_cell_angle_beta                 90
_cell_angle_gamma                90
_cell_volume                     3500.35
loop_
_atom_site_label
_atom_site_type_symbol
_atom_site_fract_x
_atom_site_fract_y
_atom_site_fract_z
Cu1 Cu 0.15950(6) 0.91502(4) 0.208009(18)
Cu2 Cu -0.16121(6) 1.09073(4) -0.217480(18)
N1 N 0.0939(4) 0.9447(3) 0.13186(14)
N2 N -0.0991(4) 1.0593(3) -0.14107(14)
C1 C -0.0070(5) 1.0047(3) 0.12192(18)
H1 H -0.0512 1.0323 0.1520
C2 C -0.0473(5) 1.0269(4) 0.06975(18)
H2 H -0.1189 1.0686 0.0647
C3 C 0.0159(5) 0.9889(3) 0.02403(18)
C4 C 0.1162(5) 0.9247(4) 0.03500(18)
H3 H 0.1600 0.8950 0.0056
C5 C 0.1516(5) 0.9044(4) 0.08789(17)
H4 H 0.2193 0.8603 0.0939
C6 C -0.0210(5) 1.0146(3) -0.03326(17)
C7 C -0.1152(5) 1.0828(4) -0.04448(17)
H5 H -0.1550 1.1155 -0.0153
C8 C -0.1504(5) 1.1027(3) -0.09808(16)
H6 H -0.2139 1.1495 -0.1044
C9 C -0.0057(5) 0.9950(4) -0.13146(18)
H7 H 0.0338 0.9650 -0.1617
C10 C 0.0355(6) 0.9706(4) -0.07871(18)
H8 H 0.1009 0.9246 -0.0737
O1 O -0.0271(3) 0.9228(3) 0.23715(11)
O2 O -0.1525(3) 0.8914(2) 0.31104(11)
N3 N 0.2053(4) 0.8905(3) 0.28618(16)
H9 H 0.263(5) 0.856(3) 0.287(2)
H10 H 0.218(5) 0.942(3) 0.302(2)
N4 N 0.3640(5) 0.7508(3) 0.44100(19)
H11 H 0.433(7) 0.721(4) 0.437(2)
C11 C -0.0419(5) 0.8949(3) 0.28561(17)
C12 C 0.0834(5) 0.8586(3) 0.31601(17)
H12 H 0.0816 0.7913 0.3132
C13 C 0.0831(4) 0.8827(3) 0.37715(16)
H13 H 0.0977 0.9485 0.3807
H14 H -0.0073 0.8693 0.3920
C14 C 0.1857(5) 0.8351(3) 0.41194(17)
C15 C 0.1981(5) 0.8427(3) 0.47119(18)
C16 C 0.1235(6) 0.8893(4) 0.51170(19)
H15 H 0.0472 0.9243 0.5019
C17 C 0.1633(7) 0.8831(4) 0.56586(19)
H16 H 0.1130 0.9134 0.5932
C18 C 0.2790(6) 0.8317(4) 0.5808(2)
H17 H 0.3055 0.8295 0.6180
C19 C 0.3534(6) 0.7850(4) 0.5424(2)
H18 H 0.4299 0.7506 0.5527
C20 C 0.3116(6) 0.7903(3) 0.48725(19)
C21 C 0.2894(5) 0.7780(4) 0.3955(2)
H19 H 0.3068 0.7602 0.3590
O3 O 0.4745(3) 0.9265(3) 0.25502(11)
O4 O 0.3466(3) 0.9152(2) 0.17922(10)
N5 N 0.7058(4) 0.8984(3) 0.20330(15)
H20 H 0.764(5) 0.865(3) 0.194(2)
H21 H 0.738(6) 0.954(4) 0.199(2)
N6 N 0.8444(6) 0.7433(4) 0.0445(2)
H22 H 0.916(7) 0.718(5) 0.040(3)
C22 C 0.4573(5) 0.9133(3) 0.20417(16)
C23 C 0.5829(4) 0.8925(3) 0.16840(16)
H23 H 0.5893 0.9389 0.1388
C24 C 0.5685(5) 0.7985(3) 0.14208(18)
H24 H 0.5843 0.7515 0.1701
H25 H 0.4755 0.7911 0.1282
C25 C 0.6670(5) 0.7854(3) 0.09549(17)
C26 C 0.6566(6) 0.8278(3) 0.04231(18)
C27 C 0.5640(6) 0.8865(4) 0.0170(2)
H26 H 0.4892 0.9090 0.0369
C28 C 0.5825(7) 0.9113(5) -0.0372(2)
H27 H 0.5199 0.9504 -0.0545
C29 C 0.6957(10) 0.8778(5) -0.0671(3)
H28 H 0.7069 0.8951 -0.1041
C30 C 0.7866(9) 0.8226(5) -0.0441(3)
H29 H 0.8604 0.8002 -0.0647
C31 C 0.7701(7) 0.7984(4) 0.0113(2)
C32 C 0.7831(6) 0.7356(4) 0.0953(2)
H30 H 0.8164 0.7012 0.1251
O5 O 0.1409(5) 0.7600(3) 0.18423(16)
H31 H 0.068(5) 0.719(3) 0.193(2)
H32 H 0.206(7) 0.735(4) 0.198(2)
O6 O -0.1251(5) 1.2437(3) -0.19985(19)
H33 H -0.048(7) 1.269(4) -0.209(2)
H34 H -0.176(7) 1.275(4) -0.208(3)
Cu2A Cu -0.33879(6) 0.90927(4) 0.282520(18)
Cu2A_2 Cu 0.66121(6) 0.90927(4) 0.282520(18)
O2A O -0.3475(3) 1.1086(2) -0.18896(11)
O3A O 0.0255(3) 1.0735(3) -0.24498(11)
N5A N -0.2058(4) 1.1016(3) -0.29670(15)
H20A H -0.264(5) 1.135(3) -0.306(2)
H21A H -0.238(6) 1.046(4) -0.301(2)
O7 O 0.1972(5) 1.0900(3) 0.22695(18)
O8 O 0.1302(7) 1.0818(3) 0.31156(17)
O9 O 0.1114(5) 1.2086(3) 0.2686(2)
N7 N 0.1477(6) 1.1256(3) 0.2694(2)
O10 O 0.7202(6) 1.0833(3) 0.2685(2)
O11 O 0.6354(4) 1.2089(3) 0.23930(17)
O12 O 0.6533(8) 1.0955(3) 0.18413(18)
N8 N 0.6709(6) 1.1287(3) 0.2291(2)
loop_
_geom_bond_atom_site_label_1
_geom_bond_atom_site_label_2
_geom_bond_site_symmetry_1
_geom_bond_site_symmetry_2
Cu1 N1 1_555 1_555
Cu2 N2 1_555 1_555
N1 C1 1_555 1_555
N2 C8 1_555 1_555
C1 H1 1_555 1_555
C2 C1 1_555 1_555
H2 C2 1_555 1_555
C3 C2 1_555 1_555
C4 C3 1_555 1_555
H3 C4 1_555 1_555
C5 N1 1_555 1_555
H4 C5 1_555 1_555
C6 C3 1_555 1_555
C7 C6 1_555 1_555
H5 C7 1_555 1_555
C8 C7 1_555 1_555
H6 C8 1_555 1_555
C9 N2 1_555 1_555
H7 C9 1_555 1_555
C10 C6 1_555 1_555
H8 C10 1_555 1_555
O1 Cu1 1_555 1_555
O2 C11 1_555 1_555
N3 Cu1 1_555 1_555
H9 N3 1_555 1_555
H10 N3 1_555 1_555
N4 H11 1_555 1_555
C11 O1 1_555 1_555
C12 N3 1_555 1_555
H12 C12 1_555 1_555
C13 C12 1_555 1_555
H13 C13 1_555 1_555
H14 C13 1_555 1_555
C14 C13 1_555 1_555
C15 C14 1_555 1_555
C16 C15 1_555 1_555
H15 C16 1_555 1_555
C17 C16 1_555 1_555
H16 C17 1_555 1_555
C18 C17 1_555 1_555
H17 C18 1_555 1_555
C19 C18 1_555 1_555
H18 C19 1_555 1_555
C20 N4 1_555 1_555
C21 N4 1_555 1_555
H19 C21 1_555 1_555
O3 C22 1_555 1_555
O4 Cu1 1_555 1_555
N5 H20 1_555 1_555
H21 N5 1_555 1_555
N6 H22 1_555 1_555
C22 O4 1_555 1_555
C23 N5 1_555 1_555
H23 C23 1_555 1_555
C24 C23 1_555 1_555
H24 C24 1_555 1_555
H25 C24 1_555 1_555
C25 C24 1_555 1_555
C26 C25 1_555 1_555
C27 C26 1_555 1_555
H26 C27 1_555 1_555
C28 C27 1_555 1_555
H27 C28 1_555 1_555
C29 C28 1_555 1_555
H28 C29 1_555 1_555
C30 C29 1_555 1_555
H29 C30 1_555 1_555
C31 N6 1_555 1_555
C32 N6 1_555 1_555
H30 C32 1_555 1_555
O5 Cu1 1_555 1_555
H31 O5 1_555 1_555
H32 O5 1_555 1_555
O6 Cu2 1_555 1_555
H33 O6 1_555 1_555
H34 O6 1_555 1_555
O7 N7 1_555 1_555
O8 N7 1_555 1_555
O9 N7 1_555 1_555
O10 N8 1_555 1_555
O11 N8 1_555 1_555
O12 N8 1_555 1_555
Cu2A O2 1_555 1_555
Cu2A_2 O3 1_555 1_555
O2A Cu2 1_555 1_555
O3A Cu2 1_555 1_555
N5A Cu2 1_555 1_555
H20A N5A 1_555 1_555
H21A N5A 1_555 1_555
C4 C5 1_555 1_555
C9 C10 1_555 1_555
C11 C12 1_555 1_555
C14 C21 1_555 1_555
C15 C20 1_555 1_555
C19 C20 1_555 1_555
N5 Cu2A_2 1_555 1_555
C22 C23 1_555 1_555
C25 C32 1_555 1_555
C26 C31 1_555 1_555
C30 C31 1_555 1_555

#END
