
#######################################################################
#
#                 Cambridge Crystallographic Data Centre
#                                CCDC 
#
#######################################################################
#
# If this CIF has been generated from an entry in the Cambridge 
# Structural Database, then it will include bibliographic, chemical, 
# crystal, experimental, refinement or atomic coordinate data resulting 
# from the CCDC's data processing and validation procedures.
#
#######################################################################

data_ODILUI
_symmetry_cell_setting           orthorhombic
_symmetry_space_group_name_H-M   'P 21 21 21'
_symmetry_Int_Tables_number      19
_space_group_name_Hall           'P 2ac 2ab'
loop_
_symmetry_equiv_pos_site_id
_symmetry_equiv_pos_as_xyz
1 x,y,z
2 1/2-x,-y,1/2+z
3 -x,1/2+y,1/2-z
4 1/2+x,1/2-y,-z
_cell_length_a                   12.022(4)
_cell_length_b                   14.219(5)
_cell_length_c                   20.294(7)
_cell_angle_alpha                90
_cell_angle_beta                 90
_cell_angle_gamma                90
_cell_volume                     3469.07
loop_
_atom_site_label
_atom_site_type_symbol
_atom_site_fract_x
_atom_site_fract_y
_atom_site_fract_z
Mn1 Mn 1.39594(11) 1.18677(9) 0.26754(6)
O1 O 1.4806(5) 1.2802(4) 0.2015(3)
O2 O 1.4540(5) 1.6033(4) 0.2325(3)
O3 O 1.5296(6) 1.5252(5) 0.4643(3)
O4 O 1.2938(8) 1.5285(7) 0.4660(5)
O5 O 1.3063(8) 1.6564(7) 0.4037(5)
O6 O 1.3111(6) 1.0697(4) 0.3144(3)
O7 O 1.3056(5) 1.1328(5) 0.1821(3)
O8 O 1.4256(6) 1.2349(5) 0.3669(3)
O9 O 1.2570(6) 1.2823(5) 0.2768(4)
N1 N 1.4585(6) 1.3675(5) 0.1919(3)
N2 N 1.4447(5) 1.5209(5) 0.2069(3)
C1 C 1.4821(6) 1.4415(6) 0.2339(4)
C2 C 1.4115(8) 1.4046(6) 0.1269(4)
C3 C 1.3704(8) 1.5035(6) 0.1490(5)
C4 C 1.3225(9) 1.3367(7) 0.1027(5)
H1 H 1.3566 1.2783 0.0902
H2 H 1.2852 1.3634 0.0653
H3 H 1.2696 1.3256 0.1373
C5 C 1.5108(9) 1.4056(8) 0.0799(5)
H4 H 1.5309 1.3421 0.0690
H5 H 1.5727 1.4361 0.1008
H6 H 1.4913 1.4390 0.0405
C6 C 1.3875(12) 1.5788(7) 0.0965(5)
H7 H 1.3604 1.6380 0.1125
H8 H 1.3476 1.5616 0.0573
H9 H 1.4653 1.5841 0.0866
C7 C 1.2502(9) 1.5034(9) 0.1758(7)
H10 H 1.2298 1.5661 0.1885
H11 H 1.2456 1.4626 0.2133
H12 H 1.2004 1.4816 0.1421
C8 C 1.5412(7) 1.4304(6) 0.2958(4)
C9 C 1.5064(7) 1.4832(6) 0.3488(4)
H13 H 1.4479 1.5252 0.3434
C10 C 1.5566(8) 1.4751(7) 0.4100(5)
C11 C 1.6419(9) 1.4125(8) 0.4171(5)
H14 H 1.6768 1.4067 0.4578
C12 C 1.6775(9) 1.3569(7) 0.3642(5)
H15 H 1.7357 1.3146 0.3701
C13 C 1.6266(8) 1.3647(7) 0.3032(4)
H16 H 1.6488 1.3271 0.2680
C14 C 1.4833(12) 1.6652(9) 0.5179(5)
H17 H 1.5613 1.6754 0.5254
H18 H 1.4521 1.6318 0.5546
H19 H 1.4465 1.7247 0.5132
C15 C 1.4679(10) 1.6084(8) 0.4562(5)
H20 H 1.4990 1.6437 0.4190
C16 C 1.3429(10) 1.5916(9) 0.4432(5)
C17 C 1.1904(13) 1.6495(15) 0.3900(9)
H21 H 1.1690 1.6992 0.3606
H22 H 1.1492 1.6549 0.4303
H23 H 1.1750 1.5899 0.3698
C18 C 1.1610(16) 0.9845(14) 0.3497(8)
C19 C 1.2167(9) 1.0389(8) 0.2962(5)
C20 C 1.1674(8) 1.0475(8) 0.2361(6)
H24 H 1.0982 1.0198 0.2296
C21 C 1.2155(8) 1.0950(7) 0.1852(5)
C22 C 1.1479(12) 1.1006(10) 0.1212(6)
C23 C 1.3863(14) 1.2502(10) 0.4779(6)
C24 C 1.3510(11) 1.2601(7) 0.4060(5)
C25 C 1.2464(12) 1.2886(10) 0.3913(7)
H25 H 1.1990 1.3025 0.4262
C26 C 1.2054(10) 1.2984(10) 0.3285(8)
C27 C 1.0830(18) 1.327(2) 0.3211(11)
F1 F 1.0596(8) 0.9660(12) 0.3404(6)
F2 F 1.1725(14) 1.0112(13) 0.4045(6)
F3 F 1.1986(16) 0.9009(11) 0.3554(9)
F4 F 1.2112(6) 1.1164(6) 0.0677(3)
F5 F 1.0791(7) 1.1708(7) 0.1232(4)
F6 F 1.0916(8) 1.0246(6) 0.1070(4)
F7 F 1.3765(8) 1.1602(6) 0.4967(3)
F8 F 1.4869(11) 1.2707(9) 0.4895(3)
F9 F 1.3197(11) 1.2920(9) 0.5188(4)
F10 F 1.0304(10) 1.3393(15) 0.3700(7)
F11 F 1.0830(10) 1.4107(12) 0.2926(8)
F12 F 1.0337(11) 1.2797(17) 0.2792(14)
O2B O 1.5460(5) 1.1033(4) 0.2675(3)
Mn1B Mn 1.60406(11) 1.68677(9) 0.23246(6)
loop_
_geom_bond_atom_site_label_1
_geom_bond_atom_site_label_2
_geom_bond_site_symmetry_1
_geom_bond_site_symmetry_2
Mn1 O1 1_555 1_555
O1 N1 1_555 1_555
O2 N2 1_555 1_555
O3 C10 1_555 1_555
O4 C16 1_555 1_555
O5 C16 1_555 1_555
O6 Mn1 1_555 1_555
O7 Mn1 1_555 1_555
O8 Mn1 1_555 1_555
O9 Mn1 1_555 1_555
N1 C1 1_555 1_555
N2 C1 1_555 1_555
C1 C8 1_555 1_555
C2 N1 1_555 1_555
C3 N2 1_555 1_555
C4 C2 1_555 1_555
H1 C4 1_555 1_555
H2 C4 1_555 1_555
H3 C4 1_555 1_555
C5 C2 1_555 1_555
H4 C5 1_555 1_555
H5 C5 1_555 1_555
H6 C5 1_555 1_555
C6 C3 1_555 1_555
H7 C6 1_555 1_555
H8 C6 1_555 1_555
H9 C6 1_555 1_555
C7 C3 1_555 1_555
H10 C7 1_555 1_555
H11 C7 1_555 1_555
H12 C7 1_555 1_555
C8 C9 1_555 1_555
C9 H13 1_555 1_555
C10 C9 1_555 1_555
C11 C10 1_555 1_555
H14 C11 1_555 1_555
C12 C11 1_555 1_555
H15 C12 1_555 1_555
C13 C8 1_555 1_555
H16 C13 1_555 1_555
C14 H17 1_555 1_555
H18 C14 1_555 1_555
H19 C14 1_555 1_555
C15 O3 1_555 1_555
H20 C15 1_555 1_555
C16 C15 1_555 1_555
C17 O5 1_555 1_555
H21 C17 1_555 1_555
H22 C17 1_555 1_555
H23 C17 1_555 1_555
C18 C19 1_555 1_555
C19 O6 1_555 1_555
C20 C19 1_555 1_555
H24 C20 1_555 1_555
C21 O7 1_555 1_555
C22 C21 1_555 1_555
C23 C24 1_555 1_555
C24 O8 1_555 1_555
C25 C24 1_555 1_555
H25 C25 1_555 1_555
C26 O9 1_555 1_555
C27 C26 1_555 1_555
F1 C18 1_555 1_555
F2 C18 1_555 1_555
F3 C18 1_555 1_555
F4 C22 1_555 1_555
F5 C22 1_555 1_555
F6 C22 1_555 1_555
F7 C23 1_555 1_555
F8 C23 1_555 1_555
F9 C23 1_555 1_555
F10 C27 1_555 1_555
F11 C27 1_555 1_555
F12 C27 1_555 1_555
O2B Mn1 1_555 1_555
Mn1B O2 1_555 1_555
C2 C3 1_555 1_555
C12 C13 1_555 1_555
C14 C15 1_555 1_555
C20 C21 1_555 1_555
C25 C26 1_555 1_555

#END
