
#######################################################################
#
#                 Cambridge Crystallographic Data Centre
#                                CCDC 
#
#######################################################################
#
# If this CIF has been generated from an entry in the Cambridge 
# Structural Database, then it will include bibliographic, chemical, 
# crystal, experimental, refinement or atomic coordinate data resulting 
# from the CCDC's data processing and validation procedures.
#
#######################################################################

data_ODIPUN
_symmetry_cell_setting           monoclinic
_symmetry_space_group_name_H-M   'P 2/c'
_symmetry_Int_Tables_number      13
_space_group_name_Hall           '-P 2yc'
loop_
_symmetry_equiv_pos_site_id
_symmetry_equiv_pos_as_xyz
1 x,y,z
2 -x,y,1/2-z
3 -x,-y,-z
4 x,-y,1/2+z
_cell_length_a                   9.2952(7)
_cell_length_b                   6.1245(5)
_cell_length_c                   14.5597(11)
_cell_angle_alpha                90
_cell_angle_beta                 95.379(1)
_cell_angle_gamma                90
_cell_volume                     825.211
loop_
_atom_site_label
_atom_site_type_symbol
_atom_site_fract_x
_atom_site_fract_y
_atom_site_fract_z
Hg1 Hg 0.5000 0.65768(4) 0.2500
S1 S 0.3488(2) 0.8015(2) 0.36309(13)
N1 N 0.3369(5) 0.3955(7) 0.1820(3)
N2 N 0.2832(8) 0.4049(12) 0.4457(5)
C1 C 0.1940(6) 0.4305(11) 0.1818(4)
H1 H 0.1631 0.5541 0.2114
C2 C 0.0931(7) 0.2942(12) 0.1403(5)
H2 H -0.0046 0.3260 0.1411
C3 C 0.1360(6) 0.1064(9) 0.0966(4)
C4 C 0.2816(5) 0.0718(9) 0.0959(3)
H3 H 0.3151 -0.0509 0.0669
C5 C 0.3777(5) 0.2184(9) 0.1381(4)
H4 H 0.4760 0.1930 0.1359
C6 C 0.0264(6) -0.0446(10) 0.0469(4)
H5 H -0.0549 -0.0625 0.0834
H6 H 0.0698 -0.1870 0.0399
C7 C 0.3130(6) 0.5653(11) 0.4123(4)
Hg1B Hg -0.5000 -0.65768(4) -0.2500
S1A S 0.6512(2) 0.8015(2) 0.13691(13)
N1B N -0.3369(5) -0.3955(7) -0.1820(3)
N1A N 0.6631(5) 0.3955(7) 0.3180(3)
N2A N 0.7168(8) 0.4049(12) 0.0543(5)
C1B C -0.1940(6) -0.4305(11) -0.1818(4)
H1B H -0.1631 -0.5541 -0.2114
C2B C -0.0931(7) -0.2942(12) -0.1403(5)
H2B H 0.0046 -0.3260 -0.1411
C3B C -0.1360(6) -0.1064(9) -0.0966(4)
C4B C -0.2816(5) -0.0718(9) -0.0959(3)
H3B H -0.3151 0.0509 -0.0669
C5B C -0.3777(5) -0.2184(9) -0.1381(4)
H4B H -0.4760 -0.1930 -0.1359
C6B C -0.0264(6) 0.0446(10) -0.0469(4)
H5B H 0.0549 0.0625 -0.0834
H6B H -0.0698 0.1870 -0.0399
C7A C 0.6870(6) 0.5653(11) 0.0877(4)
loop_
_geom_bond_atom_site_label_1
_geom_bond_atom_site_label_2
_geom_bond_site_symmetry_1
_geom_bond_site_symmetry_2
Hg1 S1 1_555 1_555
S1 C7 1_555 1_555
N1 Hg1 1_555 1_555
N2 C7 1_555 1_555
C1 N1 1_555 1_555
H1 C1 1_555 1_555
C2 C1 1_555 1_555
H2 C2 1_555 1_555
C3 C2 1_555 1_555
C4 C3 1_555 1_555
H3 C4 1_555 1_555
C5 N1 1_555 1_555
H4 C5 1_555 1_555
C6 C3 1_555 1_555
H5 C6 1_555 1_555
H6 C6 1_555 1_555
Hg1B N1B 1_555 1_555
S1A Hg1 1_555 1_555
N1B C1B 1_555 1_555
N1A Hg1 1_555 1_555
N2A C7A 1_555 1_555
C1B H1B 1_555 1_555
C2B C1B 1_555 1_555
H2B C2B 1_555 1_555
C3B C2B 1_555 1_555
C4B C3B 1_555 1_555
H3B C4B 1_555 1_555
C5B N1B 1_555 1_555
H4B C5B 1_555 1_555
C6B C6 1_555 1_555
H5B C6B 1_555 1_555
H6B C6B 1_555 1_555
C7A S1A 1_555 1_555
C4 C5 1_555 1_555
C3B C6B 1_555 1_555
C4B C5B 1_555 1_555

#END
