
#######################################################################
#
#                 Cambridge Crystallographic Data Centre
#                                CCDC 
#
#######################################################################
#
# If this CIF has been generated from an entry in the Cambridge 
# Structural Database, then it will include bibliographic, chemical, 
# crystal, experimental, refinement or atomic coordinate data resulting 
# from the CCDC's data processing and validation procedures.
#
#######################################################################

data_ODIQID
_symmetry_cell_setting           monoclinic
_symmetry_space_group_name_H-M   'P 21/c'
_symmetry_Int_Tables_number      14
_space_group_name_Hall           '-P 2ybc'
loop_
_symmetry_equiv_pos_site_id
_symmetry_equiv_pos_as_xyz
1 x,y,z
2 -x,1/2+y,1/2-z
3 -x,-y,-z
4 x,1/2-y,1/2+z
_cell_length_a                   9.1899(4)
_cell_length_b                   12.0766(4)
_cell_length_c                   8.9553(3)
_cell_angle_alpha                90
_cell_angle_beta                 106.950(2)
_cell_angle_gamma                90
_cell_volume                     950.709
loop_
_atom_site_label
_atom_site_type_symbol
_atom_site_fract_x
_atom_site_fract_y
_atom_site_fract_z
Cu1 Cu -0.07610(7) 0.18141(4) 0.07912(7)
Cu2 Cu -0.36378(9) 0.11746(6) -0.13220(8)
Cl1 Cl 0.3924(2) 0.33156(16) -0.1633(2)
N1 N -0.2079(5) 0.2519(3) 0.1759(5)
N2 N 0.0827(5) 0.3010(3) 0.0604(5)
C1 C -0.2751(6) 0.2997(4) 0.2457(5)
N3 N -0.4682(6) 0.0296(4) -0.0321(6)
C2 C 0.1759(6) 0.2825(4) -0.0265(6)
C3 C -0.0173(5) 0.0413(3) 0.0195(5)
C4 C 0.1984(7) 0.4777(4) 0.1256(7)
C5 C 0.0936(6) 0.3988(4) 0.1366(6)
C6 C 0.2779(6) 0.3600(4) -0.0450(6)
C7 C 0.2892(7) 0.4606(4) 0.0337(7)
H1 H 0.175326 0.211111 -0.073945
H2 H 0.025745 0.412458 0.198328
H3 H 0.362931 0.515019 0.026377
H4 H 0.208820 0.546302 0.181819
N3B N -0.5318(6) -0.0296(4) 0.0321(6)
C3B C 0.0173(5) -0.0413(3) -0.0195(5)
Cu1B Cu -0.92390(7) -0.18141(4) -0.07912(7)
Cu2B Cu -0.63622(9) -0.11746(6) 0.13220(8)
Cl1B Cl -1.3924(2) -0.33156(16) 0.1633(2)
N1B N -0.7921(5) -0.2519(3) -0.1759(5)
N2B N -1.0827(5) -0.3010(3) -0.0604(5)
C1B C -0.7249(6) -0.2997(4) -0.2457(5)
C2B C -1.1759(6) -0.2825(4) 0.0265(6)
C4B C -1.1984(7) -0.4777(4) -0.1256(7)
C5B C -1.0936(6) -0.3988(4) -0.1366(6)
C6B C -1.2779(6) -0.3600(4) 0.0450(6)
C7B C -1.2892(7) -0.4606(4) -0.0337(7)
H1B H -1.175326 -0.211111 0.073945
H2B H -1.025745 -0.412458 -0.198328
H3B H -1.362931 -0.515019 -0.026377
H4B H -1.208820 -0.546302 -0.181819
Cu1B_2 Cu 0.07610(7) -0.18141(4) -0.07912(7)
Cu2A Cu -0.63622(9) -0.38254(6) -0.36780(8)
Cu2C Cu -0.36378(9) 0.38254(6) 0.36780(8)
C1A C -0.7249(6) -0.2003(4) 0.2543(5)
C1C C -0.2751(6) 0.2003(4) -0.2543(5)
C3B_2 C -0.9827(5) -0.0413(3) -0.0195(5)
loop_
_geom_bond_atom_site_label_1
_geom_bond_atom_site_label_2
_geom_bond_site_symmetry_1
_geom_bond_site_symmetry_2
Cu1 Cu2 1_555 1_555
Cu2 N3 1_555 1_555
Cl1 C6 1_555 1_555
N1 Cu1 1_555 1_555
N2 Cu1 1_555 1_555
C1 N1 1_555 1_555
N3 N3B 1_555 1_555
C2 N2 1_555 1_555
C3 Cu1 1_555 1_555
C4 C5 1_555 1_555
C5 N2 1_555 1_555
C6 C2 1_555 1_555
C7 C4 1_555 1_555
H1 C2 1_555 1_555
H2 C5 1_555 1_555
H3 C7 1_555 1_555
H4 C4 1_555 1_555
N3B Cu2B 1_555 1_555
C3B C3 1_555 1_555
Cu1B Cu2B 1_555 1_555
Cu2B C1A 1_555 1_555
Cl1B C6B 1_555 1_555
N1B Cu1B 1_555 1_555
N2B Cu1B 1_555 1_555
C1B N1B 1_555 1_555
C2B N2B 1_555 1_555
C4B C5B 1_555 1_555
C5B N2B 1_555 1_555
C6B C2B 1_555 1_555
C7B C4B 1_555 1_555
H1B C2B 1_555 1_555
H2B C5B 1_555 1_555
H3B C7B 1_555 1_555
H4B C4B 1_555 1_555
Cu1B_2 C3B 1_555 1_555
Cu2A C1B 1_555 1_555
Cu2C C1 1_555 1_555
C1C Cu2 1_555 1_555
C3B_2 Cu1B 1_555 1_555
C6 C7 1_555 1_555
C6B C7B 1_555 1_555

#END
