
#######################################################################
#
#                 Cambridge Crystallographic Data Centre
#                                CCDC 
#
#######################################################################
#
# If this CIF has been generated from an entry in the Cambridge 
# Structural Database, then it will include bibliographic, chemical, 
# crystal, experimental, refinement or atomic coordinate data resulting 
# from the CCDC's data processing and validation procedures.
#
#######################################################################

data_ODISOK
_symmetry_cell_setting           triclinic
_symmetry_space_group_name_H-M   'P -1'
_symmetry_Int_Tables_number      2
_space_group_name_Hall           '-P 1'
loop_
_symmetry_equiv_pos_site_id
_symmetry_equiv_pos_as_xyz
1 x,y,z
2 -x,-y,-z
_cell_length_a                   8.419(3)
_cell_length_b                   9.236(3)
_cell_length_c                   12.274(4)
_cell_angle_alpha                102.489(3)
_cell_angle_beta                 95.987(5)
_cell_angle_gamma                91.462(3)
_cell_volume                     925.598
loop_
_atom_site_label
_atom_site_type_symbol
_atom_site_fract_x
_atom_site_fract_y
_atom_site_fract_z
Hg1 Hg 0.06552(2) 0.68951(2) 0.67480(2)
I1 I 0.38244(4) 0.74576(4) 0.67767(3)
I2 I -0.07196(5) 0.42944(5) 0.69156(3)
Br1 Br -0.22711(7) 0.54913(6) -0.01954(5)
N1 N -0.3452(6) 0.7660(5) 0.4413(4)
N2 N -0.1302(6) 0.7730(5) 0.5618(4)
N3 N -0.8374(6) 0.9584(5) 0.0942(4)
N4 N -0.9989(6) 1.1063(5) 0.1883(4)
C1 C -0.2460(7) 0.6875(6) 0.4987(4)
C2 C -0.1548(8) 0.9159(7) 0.5471(5)
C3 C -0.2889(8) 0.9099(7) 0.4707(5)
C4 C -0.4903(7) 0.7075(6) 0.3665(4)
C5 C -0.4800(6) 0.7235(6) 0.2473(4)
C6 C -0.3708(7) 0.6452(6) 0.1842(5)
C7 C -0.3722(6) 0.6560(5) 0.0717(4)
C8 C -0.4815(7) 0.7406(6) 0.0238(4)
C9 C -0.5872(6) 0.8210(6) 0.0896(4)
C10 C -0.5856(7) 0.8142(6) 0.2018(5)
C11 C -0.7027(8) 0.9120(8) 0.0319(5)
C12 C -0.8653(7) 1.0994(6) 0.1402(5)
C13 C -0.9587(8) 0.8703(7) 0.1148(5)
C14 C -1.0583(7) 0.9614(6) 0.1723(5)
H1 H -0.2578(7) 0.5814(6) 0.4931(4)
H2 H -0.0897(8) 1.0042(7) 0.5849(5)
H3 H -0.3338(8) 0.9932(7) 0.4440(5)
H4 H -0.5085(7) 0.6036(6) 0.3670(4)
H5 H -0.5790(7) 0.7631(6) 0.3952(4)
H6 H -0.2945(7) 0.5850(6) 0.2168(5)
H7 H -0.4820(7) 0.7442(6) -0.0547(4)
H8 H -0.6573(7) 0.8736(6) 0.2480(5)
H9 H -0.7461(8) 0.8511(8) -0.0403(5)
H10 H -0.6452(8) 0.9988(8) 0.0205(5)
H11 H -0.7975(7) 1.1853(6) 0.1389(5)
H12 H -0.9717(8) 0.7630(7) 0.0920(5)
H13 H -1.1550(7) 0.9307(6) 0.1994(5)
Hg1A Hg -1.06552(2) 1.31049(2) 0.32520(2)
N4A N -0.0011(6) 0.8937(5) 0.8117(4)
loop_
_geom_bond_atom_site_label_1
_geom_bond_atom_site_label_2
_geom_bond_site_symmetry_1
_geom_bond_site_symmetry_2
Hg1 I1 1_555 1_555
I2 Hg1 1_555 1_555
Br1 C7 1_555 1_555
N1 C1 1_555 1_555
N2 Hg1 1_555 1_555
N3 C11 1_555 1_555
N4 C12 1_555 1_555
C1 N2 1_555 1_555
C2 N2 1_555 1_555
C3 N1 1_555 1_555
C4 N1 1_555 1_555
C5 C4 1_555 1_555
C6 C5 1_555 1_555
C7 C6 1_555 1_555
C8 C7 1_555 1_555
C9 C8 1_555 1_555
C10 C5 1_555 1_555
C11 C9 1_555 1_555
C12 N3 1_555 1_555
C13 N3 1_555 1_555
C14 N4 1_555 1_555
H1 C1 1_555 1_555
H2 C2 1_555 1_555
H3 C3 1_555 1_555
H4 C4 1_555 1_555
H5 C4 1_555 1_555
H6 C6 1_555 1_555
H7 C8 1_555 1_555
H8 C10 1_555 1_555
H9 C11 1_555 1_555
H10 C11 1_555 1_555
H11 C12 1_555 1_555
H12 C13 1_555 1_555
H13 C14 1_555 1_555
Hg1A N4 1_555 1_555
N4A Hg1 1_555 1_555
C2 C3 1_555 1_555
C9 C10 1_555 1_555
C13 C14 1_555 1_555

#END
