
#######################################################################
#
#                 Cambridge Crystallographic Data Centre
#                                CCDC 
#
#######################################################################
#
# If this CIF has been generated from an entry in the Cambridge 
# Structural Database, then it will include bibliographic, chemical, 
# crystal, experimental, refinement or atomic coordinate data resulting 
# from the CCDC's data processing and validation procedures.
#
#######################################################################

data_ODISOL
_symmetry_cell_setting           monoclinic
_symmetry_space_group_name_H-M   'P 21/c'
_symmetry_Int_Tables_number      14
_space_group_name_Hall           '-P 2ybc'
loop_
_symmetry_equiv_pos_site_id
_symmetry_equiv_pos_as_xyz
1 x,y,z
2 -x,1/2+y,1/2-z
3 -x,-y,-z
4 x,1/2-y,1/2+z
_cell_length_a                   8.8381(14)
_cell_length_b                   10.8914(18)
_cell_length_c                   13.533(2)
_cell_angle_alpha                90
_cell_angle_beta                 97.940(5)
_cell_angle_gamma                90
_cell_volume                     1290.19
loop_
_atom_site_label
_atom_site_type_symbol
_atom_site_fract_x
_atom_site_fract_y
_atom_site_fract_z
Cu1 Cu 0.0000 0.0000 0.0000
Cl1 Cl 0.12105(9) 0.13878(8) 0.10600(6)
S1 S -0.43681(9) 0.17685(8) 0.07108(6)
S2 S -0.27559(10) 0.44328(8) 0.08294(7)
N1 N -0.2018(3) 0.0537(2) 0.03763(19)
C1 C -0.2690(3) 0.1602(3) 0.0196(2)
C2 C -0.2817(3) -0.0218(3) 0.0954(2)
C3 C -0.4145(4) 0.0311(3) 0.1220(2)
C4 C -0.5053(4) -0.0288(3) 0.1825(3)
H1 H -0.5953 0.0081 0.2000
C5 C -0.4597(4) -0.1439(3) 0.2161(3)
H2 H -0.5192 -0.1871 0.2579
C6 C -0.3287(4) -0.1985(3) 0.1903(3)
H3 H -0.3002 -0.2780 0.2152
C7 C -0.2394(4) -0.1396(3) 0.1293(3)
H4 H -0.1511 -0.1781 0.1107
C8 C -0.2144(3) 0.2543(3) -0.0458(2)
C9 C -0.2132(4) 0.3808(3) -0.0261(3)
C10 C -0.1552(4) 0.4607(3) -0.0931(3)
H5 H -0.1510 0.5464 -0.0798
C11 C -0.1043(4) 0.4161(4) -0.1781(3)
H6 H -0.0643 0.4714 -0.2222
C12 C -0.1108(4) 0.2929(4) -0.1999(3)
H7 H -0.0793 0.2636 -0.2600
C13 C -0.1631(3) 0.2119(3) -0.1340(3)
H8 H -0.1648 0.1264 -0.1482
C14 C -0.4347(4) 0.5378(3) 0.0259(3)
H9 H -0.4722 0.5886 0.0782
H10 H -0.3980 0.5941 -0.0231
S1B S -0.56319(9) 0.82315(8) -0.07108(6)
S2B S -0.72441(10) 0.55672(8) -0.08294(7)
N1B N -0.7982(3) 0.9463(2) -0.03763(19)
C1B C -0.7310(3) 0.8398(3) -0.0196(2)
C2B C -0.7183(3) 1.0218(3) -0.0954(2)
C3B C -0.5855(4) 0.9689(3) -0.1220(2)
C4B C -0.4947(4) 1.0288(3) -0.1825(3)
H1B H -0.4047 0.9919 -0.2000
C5B C -0.5403(4) 1.1439(3) -0.2161(3)
H2B H -0.4808 1.1871 -0.2579
C6B C -0.6713(4) 1.1985(3) -0.1903(3)
H3B H -0.6998 1.2780 -0.2152
C7B C -0.7606(4) 1.1396(3) -0.1293(3)
H4B H -0.8489 1.1781 -0.1107
C8B C -0.7856(3) 0.7457(3) 0.0458(2)
C9B C -0.7868(4) 0.6192(3) 0.0261(3)
C10B C -0.8448(4) 0.5393(3) 0.0931(3)
H5B H -0.8490 0.4536 0.0798
C11B C -0.8957(4) 0.5839(4) 0.1781(3)
H6B H -0.9357 0.5286 0.2222
C12B C -0.8892(4) 0.7071(4) 0.1999(3)
H7B H -0.9207 0.7364 0.2600
C13B C -0.8369(3) 0.7881(3) 0.1340(3)
H8B H -0.8352 0.8736 0.1482
C14B C -0.5653(4) 0.4622(3) -0.0259(3)
H9B H -0.5278 0.4114 -0.0782
H10B H -0.6020 0.4059 0.0231
Cl1B Cl -0.12105(9) -0.13878(8) -0.10600(6)
Cu1_2 Cu -1.0000 1.0000 0.0000
N1B_2 N 0.2018(3) -0.0537(2) -0.03763(19)
loop_
_geom_bond_atom_site_label_1
_geom_bond_atom_site_label_2
_geom_bond_site_symmetry_1
_geom_bond_site_symmetry_2
Cu1 Cl1 1_555 1_555
S1 C1 1_555 1_555
S2 C9 1_555 1_555
N1 Cu1 1_555 1_555
C1 N1 1_555 1_555
C2 N1 1_555 1_555
C3 S1 1_555 1_555
C4 C3 1_555 1_555
H1 C4 1_555 1_555
C5 C4 1_555 1_555
H2 C5 1_555 1_555
C6 C5 1_555 1_555
H3 C6 1_555 1_555
C7 C2 1_555 1_555
H4 C7 1_555 1_555
C8 C1 1_555 1_555
C9 C8 1_555 1_555
C10 C9 1_555 1_555
H5 C10 1_555 1_555
C11 C10 1_555 1_555
H6 C11 1_555 1_555
C12 C11 1_555 1_555
H7 C12 1_555 1_555
C13 C8 1_555 1_555
H8 C13 1_555 1_555
C14 S2 1_555 1_555
H9 C14 1_555 1_555
H10 C14 1_555 1_555
S1B C1B 1_555 1_555
S2B C9B 1_555 1_555
N1B C1B 1_555 1_555
C1B C8B 1_555 1_555
C2B N1B 1_555 1_555
C3B S1B 1_555 1_555
C4B C3B 1_555 1_555
H1B C4B 1_555 1_555
C5B C4B 1_555 1_555
H2B C5B 1_555 1_555
C6B C5B 1_555 1_555
H3B C6B 1_555 1_555
C7B C2B 1_555 1_555
H4B C7B 1_555 1_555
C8B C9B 1_555 1_555
C9B C10B 1_555 1_555
C10B H5B 1_555 1_555
C11B C10B 1_555 1_555
H6B C11B 1_555 1_555
C12B C11B 1_555 1_555
H7B C12B 1_555 1_555
C13B C8B 1_555 1_555
H8B C13B 1_555 1_555
C14B C14 1_555 1_555
H9B C14B 1_555 1_555
H10B C14B 1_555 1_555
Cl1B Cu1 1_555 1_555
Cu1_2 N1B 1_555 1_555
N1B_2 Cu1 1_555 1_555
C2 C3 1_555 1_555
C6 C7 1_555 1_555
C12 C13 1_555 1_555
S2B C14B 1_555 1_555
C2B C3B 1_555 1_555
C6B C7B 1_555 1_555
C12B C13B 1_555 1_555

#END
