
#######################################################################
#
#                 Cambridge Crystallographic Data Centre
#                                CCDC 
#
#######################################################################
#
# If this CIF has been generated from an entry in the Cambridge 
# Structural Database, then it will include bibliographic, chemical, 
# crystal, experimental, refinement or atomic coordinate data resulting 
# from the CCDC's data processing and validation procedures.
#
#######################################################################

data_ODITEB
_symmetry_cell_setting           monoclinic
_symmetry_space_group_name_H-M   'P 21/c'
_symmetry_Int_Tables_number      14
_space_group_name_Hall           '-P 2ybc'
loop_
_symmetry_equiv_pos_site_id
_symmetry_equiv_pos_as_xyz
1 x,y,z
2 -x,1/2+y,1/2-z
3 -x,-y,-z
4 x,1/2-y,1/2+z
_cell_length_a                   11.585(5)
_cell_length_b                   11.901(3)
_cell_length_c                   19.438(5)
_cell_angle_alpha                90
_cell_angle_beta                 93.407(14)
_cell_angle_gamma                90
_cell_volume                     2675.24
loop_
_atom_site_label
_atom_site_type_symbol
_atom_site_fract_x
_atom_site_fract_y
_atom_site_fract_z
Hg1 Hg 0.50653(3) 0.26200(3) 0.240811(16)
Hg2 Hg 0.82516(3) -0.00603(3) 0.365040(16)
Br1 Br 0.53331(9) 0.46466(8) 0.30081(5)
Br2 Br 0.72825(9) 0.16859(9) 0.29696(6)
Br3 Br 0.25590(8) 0.29902(8) 0.17117(5)
Br4 Br 0.84222(11) 0.04939(8) 0.48951(4)
N1 N 0.6568(6) 0.2080(5) 0.0470(3)
N2 N 0.5614(6) 0.2540(5) 0.1373(3)
N3 N 0.6946(6) -0.2962(5) 0.0855(3)
N4 N 0.5868(6) -0.3004(5) 0.1735(3)
N5 N 1.0752(6) -0.0050(6) 0.2092(3)
N6 N 0.9886(7) -0.0049(6) 0.3070(3)
C1 C 0.8060(7) 0.0594(6) 0.0325(3)
C2 C 0.7607(7) -0.0492(7) 0.0222(4)
C3 C 0.8213(7) -0.1421(6) 0.0483(4)
C4 C 0.9275(7) -0.1289(7) 0.0860(4)
C5 C 0.9731(7) -0.0204(7) 0.0952(4)
C6 C 0.9118(7) 0.0743(6) 0.0708(4)
C7 C 0.7431(7) 0.1599(7) 0.0022(4)
H1 H 0.8004 0.2187 -0.0074
H2 H 0.7034 0.1380 -0.0423
C8 C 0.6436(7) 0.1900(7) 0.1143(4)
H3 H 0.6879 0.1378 0.1418
C9 C 0.5197(7) 0.3161(6) 0.0821(4)
H4 H 0.4581 0.3687 0.0827
C10 C 0.5795(7) 0.2912(7) 0.0269(4)
H5 H 0.5702 0.3246 -0.0175
C11 C 0.6440(8) -0.0627(8) -0.0162(4)
H6 H 0.6549 -0.0906 -0.0628
H7 H 0.6045 0.0101 -0.0190
H8 H 0.5972 -0.1164 0.0083
C12 C 0.7763(8) -0.2579(7) 0.0347(4)
H9 H 0.7369 -0.2600 -0.0118
H10 H 0.8423 -0.3107 0.0351
C13 C 0.6589(8) -0.2401(7) 0.1407(4)
H11 H 0.6832 -0.1665 0.1537
C14 C 0.5729(8) -0.4001(7) 0.1395(4)
H12 H 0.5250 -0.4605 0.1524
C15 C 0.6393(8) -0.3984(6) 0.0838(4)
H13 H 0.6460 -0.4562 0.0506
C16 C 0.9884(9) -0.2281(8) 0.1185(5)
H14 H 0.9313 -0.2822 0.1335
H15 H 1.0375 -0.2032 0.1584
H16 H 1.0365 -0.2639 0.0849
C17 C 1.0893(8) -0.0050(8) 0.1352(4)
H17 H 1.1422 -0.0665 0.1235
H18 H 1.1244 0.0670 0.1218
C18 C 0.9739(8) 0.0002(8) 0.2404(4)
H19 H 0.9005 0.0069 0.2163
C19 C 1.1056(8) -0.0128(7) 0.3209(4)
H20 H 1.1431 -0.0167 0.3656
C20 C 1.1588(8) -0.0140(7) 0.2617(4)
H21 H 1.2397 -0.0201 0.2569
C21 C 0.9577(8) 0.1918(7) 0.0878(4)
H22 H 0.9917 0.1932 0.1351
H23 H 0.8940 0.2460 0.0832
H24 H 1.0168 0.2118 0.0559
Hg1A Hg 0.49347(3) -0.23800(3) 0.259189(16)
Hg2A Hg 0.17484(3) 0.49397(3) 0.134960(16)
Br3A Br 0.74410(8) -0.20098(8) 0.32883(5)
N4A N 0.4132(6) 0.1996(5) 0.3265(3)
loop_
_geom_bond_atom_site_label_1
_geom_bond_atom_site_label_2
_geom_bond_site_symmetry_1
_geom_bond_site_symmetry_2
Hg1 Br1 1_555 1_555
Hg2 Br2 1_555 1_555
Br2 Hg1 1_555 1_555
Br3 Hg1 1_555 1_555
Br4 Hg2 1_555 1_555
N1 C7 1_555 1_555
N2 Hg1 1_555 1_555
N3 C12 1_555 1_555
N4 C13 1_555 1_555
N5 C17 1_555 1_555
N6 Hg2 1_555 1_555
C1 C2 1_555 1_555
C2 C3 1_555 1_555
C3 C4 1_555 1_555
C4 C5 1_555 1_555
C5 C6 1_555 1_555
C6 C1 1_555 1_555
C7 C1 1_555 1_555
H1 C7 1_555 1_555
H2 C7 1_555 1_555
C8 N1 1_555 1_555
H3 C8 1_555 1_555
C9 N2 1_555 1_555
H4 C9 1_555 1_555
C10 N1 1_555 1_555
H5 C10 1_555 1_555
C11 C2 1_555 1_555
H6 C11 1_555 1_555
H7 C11 1_555 1_555
H8 C11 1_555 1_555
C12 C3 1_555 1_555
H9 C12 1_555 1_555
H10 C12 1_555 1_555
C13 N3 1_555 1_555
H11 C13 1_555 1_555
C14 N4 1_555 1_555
H12 C14 1_555 1_555
C15 N3 1_555 1_555
H13 C15 1_555 1_555
C16 C4 1_555 1_555
H14 C16 1_555 1_555
H15 C16 1_555 1_555
H16 C16 1_555 1_555
C17 C5 1_555 1_555
H17 C17 1_555 1_555
H18 C17 1_555 1_555
C18 N5 1_555 1_555
H19 C18 1_555 1_555
C19 N6 1_555 1_555
H20 C19 1_555 1_555
C20 N5 1_555 1_555
H21 C20 1_555 1_555
C21 C6 1_555 1_555
H22 C21 1_555 1_555
H23 C21 1_555 1_555
H24 C21 1_555 1_555
Hg1A N4 1_555 1_555
Hg2A Br3 1_555 1_555
Br3A Hg2 1_555 1_555
N4A Hg1 1_555 1_555
N2 C8 1_555 1_555
N6 C18 1_555 1_555
C9 C10 1_555 1_555
C14 C15 1_555 1_555
C19 C20 1_555 1_555
Hg1A Br3A 1_555 1_555

#END
