
#######################################################################
#
#                 Cambridge Crystallographic Data Centre
#                                CCDC 
#
#######################################################################
#
# If this CIF has been generated from an entry in the Cambridge 
# Structural Database, then it will include bibliographic, chemical, 
# crystal, experimental, refinement or atomic coordinate data resulting 
# from the CCDC's data processing and validation procedures.
#
#######################################################################

data_ODITIF
_symmetry_cell_setting           monoclinic
_symmetry_space_group_name_H-M   'C 2/c'
_symmetry_Int_Tables_number      15
_space_group_name_Hall           '-C 2yn'
loop_
_symmetry_equiv_pos_site_id
_symmetry_equiv_pos_as_xyz
1 x,y,z
2 1/2+x,1/2+y,z
3 -x,y,1/2-z
4 1/2-x,1/2+y,1/2-z
5 -x,-y,-z
6 1/2-x,1/2-y,-z
7 x,-y,1/2+z
8 1/2+x,1/2-y,1/2+z
_cell_length_a                   28.808(12)
_cell_length_b                   11.585(4)
_cell_length_c                   19.238(9)
_cell_angle_alpha                90
_cell_angle_beta                 127.723(12)
_cell_angle_gamma                90
_cell_volume                     5078.48
loop_
_atom_site_label
_atom_site_type_symbol
_atom_site_fract_x
_atom_site_fract_y
_atom_site_fract_z
Hg1 Hg 0.58822(3) 0.27262(6) 0.70250(4)
Hg2 Hg 0.75457(3) 0.02896(8) 0.75844(5)
Cl1 Cl 0.6362(2) 0.0890(5) 0.7046(4)
Cl2 Cl 0.5804(6) 0.2828(6) 0.8171(5)
Cl3 Cl 0.6328(2) 0.4519(5) 0.6929(5)
Cl4 Cl 0.7666(2) 0.2367(5) 0.7191(3)
N1 N 0.4596(5) 0.2418(11) 0.4233(9)
N2 N 0.5055(5) 0.2593(11) 0.5640(8)
N3 N 0.6643(7) 0.4762(14) 0.4694(10)
N4 N 0.7143(6) 0.5213(11) 0.6086(9)
N5 N 0.6581(6) -0.0339(12) 0.4865(10)
N6 N 0.7110(6) -0.0372(13) 0.6266(10)
C1 C 0.5081(7) 0.2248(15) 0.3546(10)
C2 C 0.5353(7) 0.3283(13) 0.3612(9)
C3 C 0.5905(8) 0.3236(17) 0.3787(11)
C4 C 0.6154(7) 0.2196(18) 0.3863(11)
C5 C 0.5878(7) 0.1184(16) 0.3784(9)
C6 C 0.5345(7) 0.1176(14) 0.3653(10)
C7 C 0.4493(7) 0.2267(18) 0.3386(10)
H1 H 0.4249 0.2909 0.2984
H2 H 0.4280 0.1535 0.3107
C8 C 0.5116(6) 0.2410(18) 0.5029(9)
H3 H 0.5481 0.2287 0.5138
C9 C 0.4466(7) 0.2700(15) 0.5221(12)
H4 H 0.4291 0.2836 0.5501
C10 C 0.4169(7) 0.2579(13) 0.4334(11)
H5 H 0.3756 0.2601 0.3886
C11 C 0.5080(10) 0.4428(16) 0.3610(13)
H6 H 0.4718 0.4267 0.3538
H7 H 0.4988 0.4912 0.3123
H8 H 0.5358 0.4832 0.4167
C12 C 0.6171(9) 0.4362(18) 0.3799(11)
H9 H 0.6331 0.4266 0.3470
H10 H 0.5861 0.4958 0.3495
C13 C 0.6693(8) 0.4632(18) 0.5421(11)
H11 H 0.6436 0.4175 0.5458
C14 C 0.7402(7) 0.5706(15) 0.5762(13)
H12 H 0.7749 0.6161 0.6088
C15 C 0.7092(7) 0.5451(15) 0.4915(11)
H13 H 0.7173 0.5709 0.4530
C16 C 0.6759(8) 0.217(3) 0.4058(15)
H14 H 0.7042 0.2606 0.4597
H15 H 0.6728 0.2520 0.3567
H16 H 0.6891 0.1370 0.4135
C17 C 0.6183(8) 0.0027(17) 0.3933(11)
H17 H 0.5880 -0.0575 0.3588
H18 H 0.6412 0.0083 0.3706
C18 C 0.6759(8) 0.0257(18) 0.5565(11)
H19 H 0.6649 0.1031 0.5564
C19 C 0.7155(8) -0.1414(16) 0.6028(13)
H20 H 0.7381 -0.2038 0.6410
C20 C 0.6817(8) -0.1424(16) 0.5139(12)
H21 H 0.6755 -0.2056 0.4777
C21 C 0.5071(9) 0.0069(17) 0.3626(14)
H22 H 0.5371 -0.0538 0.3914
H23 H 0.4763 -0.0148 0.3013
H24 H 0.4900 0.0164 0.3932
Hg2C Hg 0.74543(3) 0.52896(8) 0.74156(5)
Cl3C Cl 0.8672(2) -0.0481(5) 0.8071(5)
N4C N 0.7857(6) 0.0213(11) 0.8914(9)
loop_
_geom_bond_atom_site_label_1
_geom_bond_atom_site_label_2
_geom_bond_site_symmetry_1
_geom_bond_site_symmetry_2
Hg1 Cl1 1_555 1_555
Hg2 Cl1 1_555 1_555
Cl2 Hg1 1_555 1_555
Cl3 Hg1 1_555 1_555
Cl4 Hg2 1_555 1_555
N1 C7 1_555 1_555
N2 Hg1 1_555 1_555
N3 C12 1_555 1_555
N4 C13 1_555 1_555
N5 C17 1_555 1_555
N6 Hg2 1_555 1_555
C1 C2 1_555 1_555
C2 C3 1_555 1_555
C3 C4 1_555 1_555
C4 C5 1_555 1_555
C5 C6 1_555 1_555
C6 C1 1_555 1_555
C7 C1 1_555 1_555
H1 C7 1_555 1_555
H2 C7 1_555 1_555
C8 N1 1_555 1_555
H3 C8 1_555 1_555
C9 N2 1_555 1_555
H4 C9 1_555 1_555
C10 N1 1_555 1_555
H5 C10 1_555 1_555
C11 C2 1_555 1_555
H6 C11 1_555 1_555
H7 C11 1_555 1_555
H8 C11 1_555 1_555
C12 C3 1_555 1_555
H9 C12 1_555 1_555
H10 C12 1_555 1_555
C13 N3 1_555 1_555
H11 C13 1_555 1_555
C14 N4 1_555 1_555
H12 C14 1_555 1_555
C15 N3 1_555 1_555
H13 C15 1_555 1_555
C16 C4 1_555 1_555
H14 C16 1_555 1_555
H15 C16 1_555 1_555
H16 C16 1_555 1_555
C17 C5 1_555 1_555
H17 C17 1_555 1_555
H18 C17 1_555 1_555
C18 N5 1_555 1_555
H19 C18 1_555 1_555
C19 N6 1_555 1_555
H20 C19 1_555 1_555
C20 N5 1_555 1_555
H21 C20 1_555 1_555
C21 C6 1_555 1_555
H22 C21 1_555 1_555
H23 C21 1_555 1_555
H24 C21 1_555 1_555
Hg2C Cl3 1_555 1_555
Cl3C Hg2 1_555 1_555
N4C Hg2 1_555 1_555
N2 C8 1_555 1_555
N4 Hg2C 1_555 1_555
N6 C18 1_555 1_555
C9 C10 1_555 1_555
C14 C15 1_555 1_555
C19 C20 1_555 1_555

#END
