
#######################################################################
#
#                 Cambridge Crystallographic Data Centre
#                                CCDC 
#
#######################################################################
#
# If this CIF has been generated from an entry in the Cambridge 
# Structural Database, then it will include bibliographic, chemical, 
# crystal, experimental, refinement or atomic coordinate data resulting 
# from the CCDC's data processing and validation procedures.
#
#######################################################################

data_ODIVAZ
_symmetry_cell_setting           triclinic
_symmetry_space_group_name_H-M   'P -1'
_symmetry_Int_Tables_number      2
_space_group_name_Hall           '-P 1'
loop_
_symmetry_equiv_pos_site_id
_symmetry_equiv_pos_as_xyz
1 x,y,z
2 -x,-y,-z
_cell_length_a                   7.913(2)
_cell_length_b                   8.575(2)
_cell_length_c                   17.175(5)
_cell_angle_alpha                77.358(5)
_cell_angle_beta                 81.104(5)
_cell_angle_gamma                65.633(5)
_cell_volume                     1033.13
loop_
_atom_site_label
_atom_site_type_symbol
_atom_site_fract_x
_atom_site_fract_y
_atom_site_fract_z
Cu1 Cu 0.0000 0.0000 1.0000
N1 N -0.0546(9) -0.1169(7) 1.1103(4)
N2 N -0.1658(9) -0.2547(8) 1.2122(4)
N3 N 0.1774(10) -1.2319(8) 1.9684(4)
N4 N 0.4123(10) -1.4056(8) 1.9045(4)
N5 N 0.4621(10) -1.2516(8) 1.4628(4)
N6 N 0.3642(10) -1.1314(8) 1.3978(4)
N7 N 0.3283(13) 0.0432(13) 1.0858(8)
N8 N 0.2765(12) -1.4627(9) 1.9079(4)
N9 N -0.0635(10) -0.1913(8) 1.2444(4)
C1 C 0.2535(11) -0.9975(9) 1.4290(5)
C2 C 0.1226(11) -0.8352(9) 1.3878(4)
C3 C 0.1195(12) -0.8043(11) 1.3060(5)
H1 H 0.2033 -0.8878 1.2769
C4 C -0.0037(12) -0.6539(11) 1.2666(5)
H2 H -0.0053 -0.6384 1.2114
C5 C -0.1260(11) -0.5243(10) 1.3071(5)
C6 C -0.1234(12) -0.5514(10) 1.3892(5)
H3 H -0.2046 -0.4654 1.4177
C7 C -0.0014(11) -0.7049(10) 1.4294(5)
H4 H -0.0017 -0.7219 1.4848
C8 C -0.2597(11) -0.3583(11) 1.2629(5)
H5 H -0.3300 -0.3855 1.2303
H6 H -0.3468 -0.2908 1.3013
C9 C -0.1577(11) -0.2090(10) 1.1331(5)
H7 H -0.2163 -0.2378 1.0988
C10 C -0.0017(12) -0.1114(10) 1.1798(5)
H8 H 0.0744 -0.0542 1.1820
C11 C 0.4023(10) -1.1807(10) 1.5249(5)
C12 C 0.4513(10) -1.2500(9) 1.6060(5)
C13 C 0.3832(11) -1.1476(10) 1.6658(5)
H9 H 0.3058 -1.0309 1.6529
C14 C 0.4285(13) -1.2163(11) 1.7426(5)
H10 H 0.3828 -1.1448 1.7811
C15 C 0.6101(10) -1.4915(10) 1.7055(5)
H11 H 0.6860 -1.6085 1.7190
C16 C 0.5690(11) -1.4231(10) 1.6279(5)
H12 H 0.6204 -1.4933 1.5890
C17 C 0.5799(12) -1.4674(10) 1.8521(5)
H13 H 0.6278 -1.5931 1.8586
H14 H 0.6742 -1.4364 1.8667
C18 C 0.1369(13) -1.3559(11) 1.9463(5)
H15 H 0.0213 -1.3632 1.9575
C19 C 0.3515(12) -1.2684(11) 1.9407(5)
H16 H 0.4216 -1.2072 1.9457
C20 C 0.5399(11) -1.3884(11) 1.7648(5)
O1 O 0.2674(7) -1.0168(6) 1.5079(3)
O2 O 0.2690(13) 0.0010(15) 1.0422(6)
O3 O 0.4179(16) -0.036(2) 1.1354(7)
O4 O 0.2928(15) 0.192(2) 1.0766(11)
Cu1_2 Cu 0.0000 -1.0000 2.0000
Cu1_3 Cu 0.0000 1.0000 0.0000
N1A N 0.0546(9) 0.1169(7) 0.8897(4)
N2A N 0.1658(9) 0.2547(8) 0.7878(4)
N3A N -0.1774(10) 1.2319(8) 0.0316(4)
N3_2 N 0.1774(10) -0.2319(8) 0.9684(4)
N3A_2 N -0.1774(10) 0.2319(8) 1.0316(4)
N4A N -0.4123(10) 1.4056(8) 0.0955(4)
N5A N -0.4621(10) 1.2516(8) 0.5372(4)
N6A N -0.3642(10) 1.1314(8) 0.6022(4)
N7A N -0.3283(13) -0.0432(13) 0.9142(8)
N8A N -0.2765(12) 1.4627(9) 0.0921(4)
N9A N 0.0635(10) 0.1913(8) 0.7556(4)
C1A C -0.2535(11) 0.9975(9) 0.5710(5)
C2A C -0.1226(11) 0.8352(9) 0.6122(4)
C3A C -0.1195(12) 0.8043(11) 0.6940(5)
H1A H -0.2033 0.8878 0.7231
C4A C 0.0037(12) 0.6539(11) 0.7334(5)
H2A H 0.0053 0.6384 0.7886
C5A C 0.1260(11) 0.5243(10) 0.6929(5)
C6A C 0.1234(12) 0.5514(10) 0.6108(5)
H3A H 0.2046 0.4654 0.5823
C7A C 0.0014(11) 0.7049(10) 0.5706(5)
H4A H 0.0017 0.7219 0.5152
C8A C 0.2597(11) 0.3583(11) 0.7371(5)
H5A H 0.3300 0.3855 0.7697
H6A H 0.3468 0.2908 0.6987
C9A C 0.1577(11) 0.2090(10) 0.8669(5)
H7A H 0.2163 0.2378 0.9012
C10A C 0.0017(12) 0.1114(10) 0.8202(5)
H8A H -0.0744 0.0542 0.8180
C11A C -0.4023(10) 1.1807(10) 0.4751(5)
C12A C -0.4513(10) 1.2500(9) 0.3940(5)
C13A C -0.3832(11) 1.1476(10) 0.3342(5)
H9A H -0.3058 1.0309 0.3471
C14A C -0.4285(13) 1.2163(11) 0.2574(5)
H10A H -0.3828 1.1448 0.2189
C15A C -0.6101(10) 1.4915(10) 0.2945(5)
H11A H -0.6860 1.6085 0.2810
C16A C -0.5690(11) 1.4231(10) 0.3721(5)
H12A H -0.6204 1.4933 0.4110
C17A C -0.5799(12) 1.4674(10) 0.1479(5)
H13A H -0.6278 1.5931 0.1414
H14A H -0.6742 1.4364 0.1333
C18A C -0.1369(13) 1.3559(11) 0.0537(5)
H15A H -0.0213 1.3632 0.0425
C19A C -0.3515(12) 1.2684(11) 0.0593(5)
H16A H -0.4216 1.2072 0.0543
C20A C -0.5399(11) 1.3884(11) 0.2352(5)
O1A O -0.2674(7) 1.0168(6) 0.4921(3)
O2A O -0.2690(13) -0.0010(15) 0.9578(6)
O3A O -0.4179(16) 0.036(2) 0.8646(7)
O4A O -0.2928(15) -0.192(2) 0.9234(11)
loop_
_geom_bond_atom_site_label_1
_geom_bond_atom_site_label_2
_geom_bond_site_symmetry_1
_geom_bond_site_symmetry_2
Cu1 N1 1_555 1_555
N1 C9 1_555 1_555
N2 N9 1_555 1_555
N3 C18 1_555 1_555
N4 N8 1_555 1_555
N5 N6 1_555 1_555
N6 C1 1_555 1_555
N7 O2 1_555 1_555
N8 C18 1_555 1_555
N9 C10 1_555 1_555
C1 C2 1_555 1_555
C2 C3 1_555 1_555
C3 H1 1_555 1_555
C4 C3 1_555 1_555
H2 C4 1_555 1_555
C5 C4 1_555 1_555
C6 C5 1_555 1_555
H3 C6 1_555 1_555
C7 C2 1_555 1_555
H4 C7 1_555 1_555
C8 N2 1_555 1_555
H5 C8 1_555 1_555
H6 C8 1_555 1_555
C9 N2 1_555 1_555
H7 C9 1_555 1_555
C10 N1 1_555 1_555
H8 C10 1_555 1_555
C11 N5 1_555 1_555
C12 C11 1_555 1_555
C13 C12 1_555 1_555
H9 C13 1_555 1_555
C14 C13 1_555 1_555
H10 C14 1_555 1_555
C15 H11 1_555 1_555
C16 C12 1_555 1_555
H12 C16 1_555 1_555
C17 N4 1_555 1_555
H13 C17 1_555 1_555
H14 C17 1_555 1_555
C18 H15 1_555 1_555
C19 N3 1_555 1_555
H16 C19 1_555 1_555
C20 C14 1_555 1_555
O1 C1 1_555 1_555
O2 Cu1 1_555 1_555
O3 N7 1_555 1_555
O4 N7 1_555 1_555
Cu1_2 N3 1_555 1_555
Cu1_3 N3A 1_555 1_555
N1A Cu1 1_555 1_555
N2A N9A 1_555 1_555
N3A C18A 1_555 1_555
N3_2 Cu1 1_555 1_555
N3A_2 Cu1 1_555 1_555
N4A N8A 1_555 1_555
N5A N6A 1_555 1_555
N6A C1A 1_555 1_555
N7A O2A 1_555 1_555
N8A C18A 1_555 1_555
N9A C10A 1_555 1_555
C1A C2A 1_555 1_555
C2A C3A 1_555 1_555
C3A H1A 1_555 1_555
C4A C3A 1_555 1_555
H2A C4A 1_555 1_555
C5A C4A 1_555 1_555
C6A C5A 1_555 1_555
H3A C6A 1_555 1_555
C7A C2A 1_555 1_555
H4A C7A 1_555 1_555
C8A N2A 1_555 1_555
H5A C8A 1_555 1_555
H6A C8A 1_555 1_555
C9A N1A 1_555 1_555
H7A C9A 1_555 1_555
C10A N1A 1_555 1_555
H8A C10A 1_555 1_555
C11A N5A 1_555 1_555
C12A C11A 1_555 1_555
C13A C12A 1_555 1_555
H9A C13A 1_555 1_555
C14A C13A 1_555 1_555
H10A C14A 1_555 1_555
C15A H11A 1_555 1_555
C16A C12A 1_555 1_555
H12A C16A 1_555 1_555
C17A N4A 1_555 1_555
H13A C17A 1_555 1_555
H14A C17A 1_555 1_555
C18A H15A 1_555 1_555
C19A N3A 1_555 1_555
H16A C19A 1_555 1_555
C20A C14A 1_555 1_555
O1A C1A 1_555 1_555
O2A Cu1 1_555 1_555
O3A N7A 1_555 1_555
O4A N7A 1_555 1_555
N4 C19 1_555 1_555
C5 C8 1_555 1_555
C6 C7 1_555 1_555
C11 O1 1_555 1_555
C15 C16 1_555 1_555
C15 C20 1_555 1_555
C17 C20 1_555 1_555
N2A C9A 1_555 1_555
N4A C19A 1_555 1_555
C5A C8A 1_555 1_555
C6A C7A 1_555 1_555
C11A O1A 1_555 1_555
C15A C16A 1_555 1_555
C15A C20A 1_555 1_555
C17A C20A 1_555 1_555

#END
