
#######################################################################
#
#                 Cambridge Crystallographic Data Centre
#                                CCDC 
#
#######################################################################
#
# If this CIF has been generated from an entry in the Cambridge 
# Structural Database, then it will include bibliographic, chemical, 
# crystal, experimental, refinement or atomic coordinate data resulting 
# from the CCDC's data processing and validation procedures.
#
#######################################################################

data_ODIXUW02
_symmetry_cell_setting           triclinic
_symmetry_space_group_name_H-M   'P -1'
_symmetry_Int_Tables_number      2
_space_group_name_Hall           '-P 1'
loop_
_symmetry_equiv_pos_site_id
_symmetry_equiv_pos_as_xyz
1 x,y,z
2 -x,-y,-z
_cell_length_a                   10.352(2)
_cell_length_b                   10.760(2)
_cell_length_c                   11.977(2)
_cell_angle_alpha                106.782(3)
_cell_angle_beta                 90.335(3)
_cell_angle_gamma                101.715(3)
_cell_volume                     1247.7
loop_
_atom_site_label
_atom_site_type_symbol
_atom_site_fract_x
_atom_site_fract_y
_atom_site_fract_z
Cu1 Cu 0.70147(8) -0.60188(8) 0.20213(7)
Cu2 Cu -0.08211(8) 0.51502(8) 0.39906(8)
Cu3 Cu -0.16783(8) 0.23881(8) 0.26179(8)
I1 I 0.57478(4) -0.83712(5) 0.18587(4)
I2 I -0.15216(4) 0.32061(4) 0.49577(4)
I3 I -0.04287(4) 0.43902(4) 0.17013(3)
C1 C 0.3806(7) -0.5417(8) 0.2207(7)
H1 H 0.3166 -0.5980 0.1578
H2 H 0.3368 -0.4843 0.2787
H3 H 0.4197 -0.5967 0.2566
C2 C 0.4861(6) -0.4591(6) 0.1729(6)
C3 C 0.6734(6) -0.3756(6) 0.1165(6)
H4 H 0.7637 -0.3587 0.1028
C4 C 0.5823(7) -0.3117(7) 0.0879(6)
H5 H 0.5972 -0.2446 0.0508
C5 C 0.3388(6) -0.3254(7) 0.1128(6)
H6 H 0.2649 -0.4007 0.1069
H7 H 0.3351 -0.2993 0.0411
C6 C 0.3260(7) -0.2102(7) 0.2172(7)
H8 H 0.3982 -0.1342 0.2206
H9 H 0.3350 -0.2353 0.2888
C7 C 0.1938(7) -0.1684(7) 0.2125(6)
H10 H 0.1224 -0.2478 0.1957
H11 H 0.1821 -0.1101 0.2897
C8 C 0.1805(6) -0.0969(7) 0.1222(6)
H12 H 0.2570 -0.0231 0.1323
H13 H 0.1794 -0.1584 0.0437
C9 C 0.1442(7) 0.1736(7) 0.2816(7)
H14 H 0.2085 0.2111 0.2351
H15 H 0.1875 0.1334 0.3297
H16 H 0.1059 0.2434 0.3312
C10 C 0.0391(6) 0.0718(6) 0.2036(5)
C11 C -0.0613(6) -0.1141(6) 0.0726(6)
H17 H -0.0789 -0.1990 0.0178
C12 C -0.1466(6) -0.0337(6) 0.1083(6)
H18 H -0.2359 -0.0543 0.0808
C13 C -0.1115(6) 0.8185(7) 0.3625(7)
H19 H -0.1488 0.8473 0.3021
H20 H -0.0491 0.7642 0.3292
H21 H -0.0665 0.8957 0.4245
C14 C -0.2194(6) 0.7394(6) 0.4109(5)
C15 C -0.3382(6) 0.5923(6) 0.4773(5)
H22 H -0.3651 0.5146 0.4997
C16 C -0.4085(7) 0.6860(7) 0.4878(6)
H23 H -0.4923 0.6863 0.5176
C17 C -0.3685(7) 0.9042(6) 0.4348(7)
H24 H -0.3923 0.8925 0.3525
H25 H -0.2920 0.9786 0.4606
C18 C -0.4820(6) 0.9363(6) 0.5061(6)
H26 H -0.4584 0.9481 0.5885
H27 H -0.5588 0.8622 0.4802
N1 N 0.6122(5) -0.4682(5) 0.1681(4)
N2 N 0.4649(5) -0.3657(5) 0.1246(5)
N3 N -0.0857(5) 0.0825(5) 0.1901(4)
N4 N 0.0580(5) -0.0452(5) 0.1338(4)
N5 N -0.2207(5) 0.6259(5) 0.4290(4)
N6 N -0.3327(5) 0.7831(5) 0.4457(5)
C13A C -0.8885(6) 1.1815(7) 0.6375(7)
H19A H -0.8512 1.1527 0.6979
H20A H -0.9509 1.2358 0.6708
H21A H -0.9335 1.1043 0.5755
C14A C -0.7806(6) 1.2606(6) 0.5891(5)
C15A C -0.6618(6) 1.4077(6) 0.5227(5)
H22A H -0.6349 1.4854 0.5003
C16A C -0.5915(7) 1.3140(7) 0.5122(6)
H23A H -0.5077 1.3137 0.4824
C17A C -0.6315(7) 1.0958(6) 0.5652(7)
H24A H -0.6077 1.1075 0.6475
H25A H -0.7080 1.0214 0.5394
C18A C -0.5180(6) 1.0637(6) 0.4939(6)
H26A H -0.5416 1.0519 0.4115
H27A H -0.4412 1.1378 0.5198
N5A N -0.7793(5) 1.3741(5) 0.5710(4)
N6A N -0.6673(5) 1.2169(5) 0.5543(5)
Cu1A Cu -1.70147(8) 2.60188(8) 0.79787(7)
Cu2A Cu -0.91789(8) 1.48498(8) 0.60094(8)
Cu3A Cu -0.83217(8) 1.76119(8) 0.73821(8)
I1A I -1.57478(4) 2.83712(5) 0.81413(4)
I2A I -0.84784(4) 1.67939(4) 0.50423(4)
I3A I -0.95713(4) 1.56098(4) 0.82987(3)
C1A C -1.3806(7) 2.5417(8) 0.7793(7)
H1A H -1.3166 2.5980 0.8422
H2A H -1.3368 2.4843 0.7213
H3A H -1.4197 2.5967 0.7434
C2A C -1.4861(6) 2.4591(6) 0.8271(6)
C3A C -1.6734(6) 2.3756(6) 0.8835(6)
H4A H -1.7637 2.3587 0.8972
C4A C -1.5823(7) 2.3117(7) 0.9121(6)
H5A H -1.5972 2.2446 0.9492
C5A C -1.3388(6) 2.3254(7) 0.8872(6)
H6A H -1.2649 2.4007 0.8931
H7A H -1.3351 2.2993 0.9589
C6A C -1.3260(7) 2.2102(7) 0.7828(7)
H8A H -1.3982 2.1342 0.7794
H9A H -1.3350 2.2353 0.7112
C7A C -1.1938(7) 2.1684(7) 0.7875(6)
H10A H -1.1224 2.2478 0.8043
H11A H -1.1821 2.1101 0.7103
C8A C -1.1805(6) 2.0969(7) 0.8778(6)
H12A H -1.2570 2.0231 0.8677
H13A H -1.1794 2.1584 0.9563
C9A C -1.1442(7) 1.8264(7) 0.7184(7)
H14A H -1.2085 1.7889 0.7649
H15A H -1.1875 1.8666 0.6703
H16A H -1.1059 1.7566 0.6688
C10A C -1.0391(6) 1.9282(6) 0.7964(5)
C11A C -0.9387(6) 2.1141(6) 0.9274(6)
H17A H -0.9211 2.1990 0.9822
C12A C -0.8534(6) 2.0337(6) 0.8917(6)
H18A H -0.7641 2.0543 0.9192
N1A N -1.6122(5) 2.4682(5) 0.8319(4)
N2A N -1.4649(5) 2.3657(5) 0.8754(5)
N3A N -0.9143(5) 1.9175(5) 0.8099(4)
N4A N -1.0580(5) 2.0452(5) 0.8662(4)
Cu1_2 Cu -0.29853(8) 0.39812(8) 0.20213(7)
Cu1A_2 Cu -0.70147(8) 1.60188(8) 0.79787(7)
Cu2_2 Cu -1.08211(8) 1.51502(8) 0.39906(8)
Cu2A_2 Cu 0.08211(8) 0.48498(8) 0.60094(8)
Cu3_2 Cu 0.83217(8) -0.76119(8) 0.26179(8)
Cu3A_2 Cu -1.83217(8) 2.76119(8) 0.73821(8)
I1_2 I -0.42522(4) 0.16288(5) 0.18587(4)
I1A_2 I -0.57478(4) 1.83712(5) 0.81413(4)
I2_2 I -1.15216(4) 1.32061(4) 0.49577(4)
I2A_2 I 0.15216(4) 0.67939(4) 0.50423(4)
I3_2 I 0.95713(4) -0.56098(4) 0.17013(3)
I3A_2 I -1.95713(4) 2.56098(4) 0.82987(3)
loop_
_geom_bond_atom_site_label_1
_geom_bond_atom_site_label_2
_geom_bond_site_symmetry_1
_geom_bond_site_symmetry_2
Cu1 I1 1_555 1_555
Cu2 I2 1_555 1_555
Cu3 I2 1_555 1_555
I1 Cu3_2 1_555 1_555
I2 Cu2A_2 1_555 1_555
I3 Cu2 1_555 1_555
C1 H1 1_555 1_555
H2 C1 1_555 1_555
H3 C1 1_555 1_555
C2 C1 1_555 1_555
C3 H4 1_555 1_555
C4 C3 1_555 1_555
H5 C4 1_555 1_555
C5 H6 1_555 1_555
H7 C5 1_555 1_555
C6 C5 1_555 1_555
H8 C6 1_555 1_555
H9 C6 1_555 1_555
C7 C6 1_555 1_555
H10 C7 1_555 1_555
H11 C7 1_555 1_555
C8 C7 1_555 1_555
H12 C8 1_555 1_555
H13 C8 1_555 1_555
C9 H14 1_555 1_555
H15 C9 1_555 1_555
H16 C9 1_555 1_555
C10 C9 1_555 1_555
C11 H17 1_555 1_555
C12 C11 1_555 1_555
H18 C12 1_555 1_555
C13 H19 1_555 1_555
H20 C13 1_555 1_555
H21 C13 1_555 1_555
C14 C13 1_555 1_555
C15 H22 1_555 1_555
C16 C15 1_555 1_555
H23 C16 1_555 1_555
C17 H24 1_555 1_555
H25 C17 1_555 1_555
C18 C17 1_555 1_555
H26 C18 1_555 1_555
H27 C18 1_555 1_555
N1 Cu1 1_555 1_555
N2 C2 1_555 1_555
N3 Cu3 1_555 1_555
N4 C8 1_555 1_555
N5 Cu2 1_555 1_555
N6 C14 1_555 1_555
C13A H19A 1_555 1_555
H20A C13A 1_555 1_555
H21A C13A 1_555 1_555
C14A C13A 1_555 1_555
C15A H22A 1_555 1_555
C16A C15A 1_555 1_555
H23A C16A 1_555 1_555
C17A H24A 1_555 1_555
H25A C17A 1_555 1_555
C18A C18 1_555 1_555
H26A C18A 1_555 1_555
H27A C18A 1_555 1_555
N5A C14A 1_555 1_555
N6A C14A 1_555 1_555
Cu1A I1A 1_555 1_555
Cu2A N5A 1_555 1_555
Cu3A I2A 1_555 1_555
I1A Cu3A_2 1_555 1_555
I2A Cu2A 1_555 1_555
I3A Cu2A 1_555 1_555
C1A H1A 1_555 1_555
H2A C1A 1_555 1_555
H3A C1A 1_555 1_555
C2A C1A 1_555 1_555
C3A H4A 1_555 1_555
C4A C3A 1_555 1_555
H5A C4A 1_555 1_555
C5A H6A 1_555 1_555
H7A C5A 1_555 1_555
C6A C5A 1_555 1_555
H8A C6A 1_555 1_555
H9A C6A 1_555 1_555
C7A C6A 1_555 1_555
H10A C7A 1_555 1_555
H11A C7A 1_555 1_555
C8A C7A 1_555 1_555
H12A C8A 1_555 1_555
H13A C8A 1_555 1_555
C9A H14A 1_555 1_555
H15A C9A 1_555 1_555
H16A C9A 1_555 1_555
C10A C9A 1_555 1_555
C11A H17A 1_555 1_555
C12A C11A 1_555 1_555
H18A C12A 1_555 1_555
N1A Cu1A 1_555 1_555
N2A C2A 1_555 1_555
N3A Cu3A 1_555 1_555
N4A C8A 1_555 1_555
Cu1_2 I3 1_555 1_555
Cu1A_2 I3A 1_555 1_555
Cu2_2 I2A 1_555 1_555
Cu2A_2 I2A_2 1_555 1_555
Cu3_2 I3_2 1_555 1_555
Cu3A_2 I3A_2 1_555 1_555
I1_2 Cu3 1_555 1_555
I1A_2 Cu3A 1_555 1_555
I2_2 Cu2A 1_555 1_555
I2A_2 Cu2 1_555 1_555
I3_2 Cu1 1_555 1_555
I3A_2 Cu1A 1_555 1_555
Cu3 I3 1_555 1_555
C2 N1 1_555 1_555
C3 N1 1_555 1_555
C4 N2 1_555 1_555
C5 N2 1_555 1_555
C10 N3 1_555 1_555
C10 N4 1_555 1_555
C11 N4 1_555 1_555
C12 N3 1_555 1_555
C14 N5 1_555 1_555
C15 N5 1_555 1_555
C16 N6 1_555 1_555
C17 N6 1_555 1_555
C15A N5A 1_555 1_555
C16A N6A 1_555 1_555
C17A C18A 1_555 1_555
C17A N6A 1_555 1_555
Cu3A I3A 1_555 1_555
C2A N1A 1_555 1_555
C3A N1A 1_555 1_555
C4A N2A 1_555 1_555
C5A N2A 1_555 1_555
C10A N3A 1_555 1_555
C10A N4A 1_555 1_555
C11A N4A 1_555 1_555
C12A N3A 1_555 1_555
Cu1_2 I1_2 1_555 1_555
Cu1A_2 I1A_2 1_555 1_555
Cu2_2 I2_2 1_555 1_555

#END
