
#######################################################################
#
#                 Cambridge Crystallographic Data Centre
#                                CCDC 
#
#######################################################################
#
# If this CIF has been generated from an entry in the Cambridge 
# Structural Database, then it will include bibliographic, chemical, 
# crystal, experimental, refinement or atomic coordinate data resulting 
# from the CCDC's data processing and validation procedures.
#
#######################################################################

data_ODIXUW01
_symmetry_cell_setting           triclinic
_symmetry_space_group_name_H-M   'P -1'
_symmetry_Int_Tables_number      2
_space_group_name_Hall           '-P 1'
loop_
_symmetry_equiv_pos_site_id
_symmetry_equiv_pos_as_xyz
1 x,y,z
2 -x,-y,-z
_cell_length_a                   10.2961(9)
_cell_length_b                   10.7386(10)
_cell_length_c                   11.9132(10)
_cell_angle_alpha                106.7680(10)
_cell_angle_beta                 90.2070(10)
_cell_angle_gamma                101.7260(10)
_cell_volume                     1232.14
loop_
_atom_site_label
_atom_site_type_symbol
_atom_site_fract_x
_atom_site_fract_y
_atom_site_fract_z
Cu1 Cu 0.70373(5) -0.59972(6) 0.20390(5)
Cu2 Cu -0.08180(6) 0.51320(6) 0.39795(5)
Cu3 Cu -0.16620(5) 0.24142(6) 0.26249(5)
I1 I 0.57533(3) -0.83488(3) 0.18632(3)
I2 I -0.15176(3) 0.32060(3) 0.49690(2)
I3 I -0.04034(3) 0.43928(3) 0.16891(2)
C1 C 0.3819(5) -0.5385(5) 0.2228(5)
H1 H 0.3162 -0.5962 0.1600
H2 H 0.3383 -0.4787 0.2813
H3 H 0.4214 -0.5933 0.2603
C2 C 0.4883(4) -0.4581(4) 0.1722(4)
C3 C 0.6751(4) -0.3750(4) 0.1138(4)
H4 H 0.7665 -0.3586 0.0983
C4 C 0.5851(4) -0.3118(4) 0.0854(4)
H5 H 0.6008 -0.2438 0.0478
C5 C 0.3414(5) -0.3238(5) 0.1127(4)
H6 H 0.2660 -0.3993 0.1078
H7 H 0.3367 -0.2981 0.0396
C6 C 0.3290(5) -0.2063(5) 0.2178(4)
H8 H 0.3402 -0.2303 0.2910
H9 H 0.4016 -0.1294 0.2194
C7 C 0.1962(5) -0.1653(5) 0.2150(4)
H10 H 0.1854 -0.1053 0.2933
H11 H 0.1239 -0.2456 0.1995
C8 C 0.1819(4) -0.0951(5) 0.1228(4)
H12 H 0.2590 -0.0200 0.1325
H13 H 0.1814 -0.1581 0.0435
C9 C 0.1475(5) 0.1755(5) 0.2820(4)
H14 H 0.2127 0.2134 0.2346
H15 H 0.1915 0.1343 0.3304
H16 H 0.1090 0.2462 0.3330
C10 C 0.0400(4) 0.0728(4) 0.2030(4)
C11 C -0.0602(4) -0.1123(4) 0.0732(4)
H17 H -0.0784 -0.1981 0.0173
C12 C -0.1470(4) -0.0316(4) 0.1098(4)
H18 H -0.2381 -0.0524 0.0830
C13 C -0.1110(5) 0.8179(5) 0.3607(4)
H19 H -0.1492 0.8470 0.2995
H20 H -0.0481 0.7623 0.3265
H21 H -0.0645 0.8960 0.4231
C14 C -0.2192(4) 0.7398(4) 0.4105(4)
C15 C -0.3377(4) 0.5910(5) 0.4782(4)
H22 H -0.3652 0.5126 0.5013
C16 C -0.4083(4) 0.6860(5) 0.4887(4)
H23 H -0.4932 0.6869 0.5194
C17 C -0.3672(5) 0.9035(5) 0.4351(4)
H24 H -0.3899 0.8924 0.3515
H25 H -0.2895 0.9785 0.4623
C18 C -0.4827(5) 0.9361(4) 0.5059(4)
H26 H -0.4604 0.9471 0.5896
H27 H -0.5609 0.8616 0.4786
N1 N 0.6150(3) -0.4675(4) 0.1688(3)
N2 N 0.4662(3) -0.3657(4) 0.1221(3)
N3 N -0.0844(3) 0.0843(3) 0.1910(3)
N4 N 0.0589(3) -0.0449(4) 0.1332(3)
N5 N -0.2196(4) 0.6245(4) 0.4290(3)
N6 N -0.3322(3) 0.7823(4) 0.4456(3)
C13A C -0.8890(5) 1.1821(5) 0.6393(4)
H19A H -0.8508 1.1530 0.7005
H20A H -0.9519 1.2377 0.6735
H21A H -0.9355 1.1040 0.5769
C14A C -0.7808(4) 1.2602(4) 0.5895(4)
C15A C -0.6623(4) 1.4090(5) 0.5218(4)
H22A H -0.6348 1.4874 0.4987
C16A C -0.5917(4) 1.3140(5) 0.5113(4)
H23A H -0.5068 1.3131 0.4806
C17A C -0.6328(5) 1.0965(5) 0.5649(4)
H24A H -0.6101 1.1076 0.6485
H25A H -0.7105 1.0215 0.5377
C18A C -0.5173(5) 1.0639(4) 0.4941(4)
H26A H -0.5396 1.0529 0.4104
H27A H -0.4391 1.1384 0.5214
N5A N -0.7804(4) 1.3755(4) 0.5710(3)
N6A N -0.6678(3) 1.2177(4) 0.5544(3)
Cu1A Cu -1.70373(5) 2.59972(6) 0.79610(5)
Cu2A Cu -0.91820(6) 1.48680(6) 0.60205(5)
Cu3A Cu -0.83380(5) 1.75858(6) 0.73751(5)
I1A I -1.57533(3) 2.83488(3) 0.81368(3)
I2A I -0.84824(3) 1.67940(3) 0.50310(2)
I3A I -0.95966(3) 1.56072(3) 0.83109(2)
C1A C -1.3819(5) 2.5385(5) 0.7772(5)
H1A H -1.3162 2.5962 0.8400
H2A H -1.3383 2.4787 0.7187
H3A H -1.4214 2.5933 0.7397
C2A C -1.4883(4) 2.4581(4) 0.8278(4)
C3A C -1.6751(4) 2.3750(4) 0.8862(4)
H4A H -1.7665 2.3586 0.9017
C4A C -1.5851(4) 2.3118(4) 0.9146(4)
H5A H -1.6008 2.2438 0.9522
C5A C -1.3414(5) 2.3238(5) 0.8873(4)
H6A H -1.2660 2.3993 0.8922
H7A H -1.3367 2.2981 0.9604
C6A C -1.3290(5) 2.2063(5) 0.7822(4)
H8A H -1.3402 2.2303 0.7090
H9A H -1.4016 2.1294 0.7806
C7A C -1.1962(5) 2.1653(5) 0.7850(4)
H10A H -1.1854 2.1053 0.7067
H11A H -1.1239 2.2456 0.8005
C8A C -1.1819(4) 2.0951(5) 0.8772(4)
H12A H -1.2590 2.0200 0.8675
H13A H -1.1814 2.1581 0.9565
C9A C -1.1475(5) 1.8245(5) 0.7180(4)
H14A H -1.2127 1.7866 0.7654
H15A H -1.1915 1.8657 0.6696
H16A H -1.1090 1.7538 0.6670
C10A C -1.0400(4) 1.9272(4) 0.7970(4)
C11A C -0.9398(4) 2.1123(4) 0.9268(4)
H17A H -0.9216 2.1981 0.9827
C12A C -0.8530(4) 2.0316(4) 0.8902(4)
H18A H -0.7619 2.0524 0.9170
N1A N -1.6150(3) 2.4675(4) 0.8312(3)
N2A N -1.4662(3) 2.3657(4) 0.8779(3)
N3A N -0.9156(3) 1.9157(3) 0.8090(3)
N4A N -1.0589(3) 2.0449(4) 0.8668(3)
Cu1_2 Cu -0.29627(5) 0.40028(6) 0.20390(5)
Cu1A_2 Cu -0.70373(5) 1.59972(6) 0.79610(5)
Cu2_2 Cu -1.08180(6) 1.51320(6) 0.39795(5)
Cu2A_2 Cu 0.08180(6) 0.48680(6) 0.60205(5)
Cu3_2 Cu 0.83380(5) -0.75858(6) 0.26249(5)
Cu3A_2 Cu -1.83380(5) 2.75858(6) 0.73751(5)
I1_2 I -0.42467(3) 0.16512(3) 0.18632(3)
I1A_2 I -0.57533(3) 1.83488(3) 0.81368(3)
I2_2 I -1.15176(3) 1.32060(3) 0.49690(2)
I2A_2 I 0.15176(3) 0.67940(3) 0.50310(2)
I3_2 I 0.95966(3) -0.56072(3) 0.16891(2)
I3A_2 I -1.95966(3) 2.56072(3) 0.83109(2)
loop_
_geom_bond_atom_site_label_1
_geom_bond_atom_site_label_2
_geom_bond_site_symmetry_1
_geom_bond_site_symmetry_2
Cu1 I1 1_555 1_555
Cu2 I2 1_555 1_555
Cu3 I2 1_555 1_555
I1 Cu3_2 1_555 1_555
I2 Cu2A_2 1_555 1_555
I3 Cu2 1_555 1_555
C1 H1 1_555 1_555
H2 C1 1_555 1_555
H3 C1 1_555 1_555
C2 C1 1_555 1_555
C3 H4 1_555 1_555
C4 C3 1_555 1_555
H5 C4 1_555 1_555
C5 H6 1_555 1_555
H7 C5 1_555 1_555
C6 C5 1_555 1_555
H8 C6 1_555 1_555
H9 C6 1_555 1_555
C7 C6 1_555 1_555
H10 C7 1_555 1_555
H11 C7 1_555 1_555
C8 C7 1_555 1_555
H12 C8 1_555 1_555
H13 C8 1_555 1_555
C9 H14 1_555 1_555
H15 C9 1_555 1_555
H16 C9 1_555 1_555
C10 C9 1_555 1_555
C11 H17 1_555 1_555
C12 C11 1_555 1_555
H18 C12 1_555 1_555
C13 H19 1_555 1_555
H20 C13 1_555 1_555
H21 C13 1_555 1_555
C14 C13 1_555 1_555
C15 H22 1_555 1_555
C16 C15 1_555 1_555
H23 C16 1_555 1_555
C17 H24 1_555 1_555
H25 C17 1_555 1_555
C18 C17 1_555 1_555
H26 C18 1_555 1_555
H27 C18 1_555 1_555
N1 Cu1 1_555 1_555
N2 C2 1_555 1_555
N3 Cu3 1_555 1_555
N4 C8 1_555 1_555
N5 Cu2 1_555 1_555
N6 C14 1_555 1_555
C13A H19A 1_555 1_555
H20A C13A 1_555 1_555
H21A C13A 1_555 1_555
C14A C13A 1_555 1_555
C15A H22A 1_555 1_555
C16A C15A 1_555 1_555
H23A C16A 1_555 1_555
C17A H24A 1_555 1_555
H25A C17A 1_555 1_555
C18A C18 1_555 1_555
H26A C18A 1_555 1_555
H27A C18A 1_555 1_555
N5A C14A 1_555 1_555
N6A C14A 1_555 1_555
Cu1A I1A 1_555 1_555
Cu2A N5A 1_555 1_555
Cu3A I2A 1_555 1_555
I1A Cu3A_2 1_555 1_555
I2A Cu2A 1_555 1_555
I3A Cu2A 1_555 1_555
C1A H1A 1_555 1_555
H2A C1A 1_555 1_555
H3A C1A 1_555 1_555
C2A C1A 1_555 1_555
C3A H4A 1_555 1_555
C4A C3A 1_555 1_555
H5A C4A 1_555 1_555
C5A H6A 1_555 1_555
H7A C5A 1_555 1_555
C6A C5A 1_555 1_555
H8A C6A 1_555 1_555
H9A C6A 1_555 1_555
C7A C6A 1_555 1_555
H10A C7A 1_555 1_555
H11A C7A 1_555 1_555
C8A C7A 1_555 1_555
H12A C8A 1_555 1_555
H13A C8A 1_555 1_555
C9A H14A 1_555 1_555
H15A C9A 1_555 1_555
H16A C9A 1_555 1_555
C10A C9A 1_555 1_555
C11A H17A 1_555 1_555
C12A C11A 1_555 1_555
H18A C12A 1_555 1_555
N1A Cu1A 1_555 1_555
N2A C2A 1_555 1_555
N3A Cu3A 1_555 1_555
N4A C8A 1_555 1_555
Cu1_2 I3 1_555 1_555
Cu1A_2 I3A 1_555 1_555
Cu2_2 I2A 1_555 1_555
Cu2A_2 I2A_2 1_555 1_555
Cu3_2 I3_2 1_555 1_555
Cu3A_2 I3A_2 1_555 1_555
I1_2 Cu3 1_555 1_555
I1A_2 Cu3A 1_555 1_555
I2_2 Cu2A 1_555 1_555
I2A_2 Cu2 1_555 1_555
I3_2 Cu1 1_555 1_555
I3A_2 Cu1A 1_555 1_555
Cu3 I3 1_555 1_555
C2 N1 1_555 1_555
C3 N1 1_555 1_555
C4 N2 1_555 1_555
C5 N2 1_555 1_555
C10 N3 1_555 1_555
C10 N4 1_555 1_555
C11 N4 1_555 1_555
C12 N3 1_555 1_555
C14 N5 1_555 1_555
C15 N5 1_555 1_555
C16 N6 1_555 1_555
C17 N6 1_555 1_555
C15A N5A 1_555 1_555
C16A N6A 1_555 1_555
C17A C18A 1_555 1_555
C17A N6A 1_555 1_555
Cu3A I3A 1_555 1_555
C2A N1A 1_555 1_555
C3A N1A 1_555 1_555
C4A N2A 1_555 1_555
C5A N2A 1_555 1_555
C10A N3A 1_555 1_555
C10A N4A 1_555 1_555
C11A N4A 1_555 1_555
C12A N3A 1_555 1_555
Cu1_2 I1_2 1_555 1_555
Cu1A_2 I1A_2 1_555 1_555
Cu2_2 I2_2 1_555 1_555

#END
