
#######################################################################
#
#                 Cambridge Crystallographic Data Centre
#                                CCDC 
#
#######################################################################
#
# If this CIF has been generated from an entry in the Cambridge 
# Structural Database, then it will include bibliographic, chemical, 
# crystal, experimental, refinement or atomic coordinate data resulting 
# from the CCDC's data processing and validation procedures.
#
#######################################################################

data_ODIZIK
_symmetry_cell_setting           orthorhombic
_symmetry_space_group_name_H-M   'P b c n'
_symmetry_Int_Tables_number      60
_space_group_name_Hall           '-P 2n 2ab'
loop_
_symmetry_equiv_pos_site_id
_symmetry_equiv_pos_as_xyz
1 x,y,z
2 1/2+x,1/2+y,1/2-z
3 1/2-x,1/2+y,z
4 x,-y,1/2+z
5 -x,-y,-z
6 1/2-x,1/2-y,1/2+z
7 1/2+x,1/2-y,-z
8 -x,y,1/2-z
_cell_length_a                   13.735(3)
_cell_length_b                   6.9950(14)
_cell_length_c                   16.723(3)
_cell_angle_alpha                90
_cell_angle_beta                 90
_cell_angle_gamma                90
_cell_volume                     1606.68
loop_
_atom_site_label
_atom_site_type_symbol
_atom_site_fract_x
_atom_site_fract_y
_atom_site_fract_z
Ni1 Ni 0.50000 0.5000 0.50000
N1 N 0.60960(14) 0.5352(3) 0.41438(11)
O1 O 0.90868(11) 0.8794(2) 0.08323(9)
O2 O 0.97927(12) 0.5975(3) 0.10989(10)
O3 O 0.56574(12) 0.2346(2) 0.52388(10)
C1 C 0.58929(17) 0.5749(4) 0.33744(14)
C2 C 0.65938(18) 0.5917(4) 0.27909(13)
C3 C 0.75681(18) 0.5668(3) 0.29842(13)
C4 C 0.77765(17) 0.5228(3) 0.37780(14)
C5 C 0.70359(18) 0.5096(3) 0.43332(14)
C6 C 0.83568(18) 0.5877(4) 0.23977(13)
C7 C 0.82739(17) 0.6764(4) 0.17014(13)
C8 C 0.91215(16) 0.7182(3) 0.11666(12)
H1 H 0.5184 0.5904 0.3241
H2 H 0.6355 0.6301 0.2258
H3 H 0.845 0.4936 0.3954
H4 H 0.718 0.4876 0.487
H5 H 0.8955 0.5237 0.2544
H6 H 0.7651 0.7428 0.1586
H7 H 0.5426 0.156 0.4793
H8 H 0.5544 0.1491 0.5601
N1D N 0.39040(14) 0.4648(3) 0.58562(11)
O1D O 0.09132(11) 0.1206(2) 0.91677(9)
O2D O 0.02073(12) 0.4025(3) 0.89011(10)
C1D C 0.41071(17) 0.4251(4) 0.66256(14)
C2D C 0.34062(18) 0.4083(4) 0.72091(13)
C3D C 0.24319(18) 0.4332(3) 0.70158(13)
C4D C 0.22235(17) 0.4772(3) 0.62220(14)
C5D C 0.29641(18) 0.4904(3) 0.56668(14)
C6D C 0.16432(18) 0.4123(4) 0.76023(13)
C7D C 0.17261(17) 0.3236(4) 0.82986(13)
C8D C 0.08785(16) 0.2818(3) 0.88334(12)
H1D H 0.4816 0.4096 0.6759
H2D H 0.3645 0.3699 0.7742
H3D H 0.155 0.5064 0.6046
H4D H 0.282 0.5124 0.513
H5D H 0.1045 0.4763 0.7456
H6D H 0.2349 0.2572 0.8414
O3D O 0.43426(12) 0.7654(2) 0.47612(10)
H7D H 0.4574 0.844 0.5207
H8D H 0.4456 0.8509 0.4399
O1A O 0.40868(11) 0.3794(2) 0.41677(9)
O1E O 0.59132(11) 0.6206(2) 0.58323(9)
Ni1A Ni 1.00000 1.0000 0.00000
Ni1A_2 Ni 0.00000 0.0000 1.00000
loop_
_geom_bond_atom_site_label_1
_geom_bond_atom_site_label_2
_geom_bond_site_symmetry_1
_geom_bond_site_symmetry_2
Ni1 N1 1_555 1_555
N1 C1 1_555 1_555
O1 C8 1_555 1_555
O2 C8 1_555 1_555
O3 Ni1 1_555 1_555
C1 C2 1_555 1_555
C2 C3 1_555 1_555
C3 C4 1_555 1_555
C4 C5 1_555 1_555
C5 N1 1_555 1_555
C6 C3 1_555 1_555
C7 C6 1_555 1_555
C8 C7 1_555 1_555
H1 C1 1_555 1_555
H2 C2 1_555 1_555
H3 C4 1_555 1_555
H4 C5 1_555 1_555
H5 C6 1_555 1_555
H6 C7 1_555 1_555
H7 O3 1_555 1_555
H8 O3 1_555 1_555
N1D Ni1 1_555 1_555
O1D C8D 1_555 1_555
O2D C8D 1_555 1_555
C1D N1D 1_555 1_555
C2D C1D 1_555 1_555
C3D C2D 1_555 1_555
C4D C3D 1_555 1_555
C5D N1D 1_555 1_555
C6D C3D 1_555 1_555
C7D C6D 1_555 1_555
C8D C7D 1_555 1_555
H1D C1D 1_555 1_555
H2D C2D 1_555 1_555
H3D C4D 1_555 1_555
H4D C5D 1_555 1_555
H5D C6D 1_555 1_555
H6D C7D 1_555 1_555
O3D Ni1 1_555 1_555
H7D O3D 1_555 1_555
H8D O3D 1_555 1_555
O1A Ni1 1_555 1_555
O1E Ni1 1_555 1_555
Ni1A O1 1_555 1_555
Ni1A_2 O1D 1_555 1_555
C4D C5D 1_555 1_555

#END
