
#######################################################################
#
#                 Cambridge Crystallographic Data Centre
#                                CCDC 
#
#######################################################################
#
# If this CIF has been generated from an entry in the Cambridge 
# Structural Database, then it will include bibliographic, chemical, 
# crystal, experimental, refinement or atomic coordinate data resulting 
# from the CCDC's data processing and validation procedures.
#
#######################################################################

data_ODOBEP
_symmetry_cell_setting           monoclinic
_symmetry_space_group_name_H-M   'P 21/n'
_symmetry_Int_Tables_number      14
_space_group_name_Hall           '-P 2yn'
loop_
_symmetry_equiv_pos_site_id
_symmetry_equiv_pos_as_xyz
1 x,y,z
2 1/2-x,1/2+y,1/2-z
3 -x,-y,-z
4 1/2+x,1/2-y,1/2+z
_cell_length_a                   4.862(3)
_cell_length_b                   20.48(1)
_cell_length_c                   13.333(8)
_cell_angle_alpha                90
_cell_angle_beta                 95.66(2)
_cell_angle_gamma                90
_cell_volume                     1321.14
loop_
_atom_site_label
_atom_site_type_symbol
_atom_site_fract_x
_atom_site_fract_y
_atom_site_fract_z
Cu1 Cu 0.09946(13) 0.84001(3) 0.34581(5)
N1 N 0.1890(9) 0.7461(2) 0.3734(3)
N2 N 0.4091(9) 0.8506(2) 0.4555(3)
O1 O 0.0169(8) 0.93140(18) 0.3447(3)
O2 O -0.6556(7) 0.84645(18) 0.2021(3)
O3 O -0.2500(7) 0.81611(17) 0.2744(3)
C1 C 0.0651(12) 0.6954(3) 0.3238(4)
C2 C 0.1490(13) 0.6314(3) 0.3408(5)
C3 C 0.3654(14) 0.6204(3) 0.4134(5)
C4 C 0.4920(13) 0.6723(3) 0.4661(5)
C5 C 0.4022(10) 0.7351(3) 0.4437(4)
C6 C 0.5253(11) 0.7946(3) 0.4915(4)
C7 C 0.7461(12) 0.7954(3) 0.5659(4)
C8 C 0.8488(13) 0.8543(3) 0.6021(5)
C9 C 0.7308(14) 0.9115(3) 0.5651(5)
C10 C 0.5098(13) 0.9077(3) 0.4925(5)
O4 O -0.2075(10) 1.01864(19) 0.2824(4)
C11 C -0.1499(11) 0.9609(3) 0.2781(4)
C12 C -0.2755(11) 0.9193(3) 0.1885(4)
C13 C -0.4071(10) 0.8567(2) 0.2236(4)
C14 C -0.4702(14) 0.9585(3) 0.1164(5)
H1 H -0.5353 0.9318 0.0599
H2 H -0.3744 0.9958 0.0933
H3 H -0.6244 0.9730 0.1504
H4 H -0.086(12) 0.707(3) 0.270(4)
H5 H 0.059(13) 0.598(3) 0.300(5)
H6 H 0.433(15) 0.576(4) 0.425(5)
H7 H 0.641(13) 0.663(3) 0.517(5)
H8 H 0.818(13) 0.758(3) 0.590(5)
H9 H 1.002(12) 0.857(3) 0.653(4)
H10 H 0.804(13) 0.953(3) 0.585(4)
H11 H 0.430(13) 0.944(3) 0.462(4)
H12 H -0.132(13) 0.907(3) 0.158(4)
Cu1_2 Cu -0.90054(13) 0.84001(3) 0.34581(5)
O2_2 O 0.3444(7) 0.84645(18) 0.2021(3)
loop_
_geom_bond_atom_site_label_1
_geom_bond_atom_site_label_2
_geom_bond_site_symmetry_1
_geom_bond_site_symmetry_2
Cu1 N1 1_555 1_555
N1 C1 1_555 1_555
N2 Cu1 1_555 1_555
O1 Cu1 1_555 1_555
O2 C13 1_555 1_555
O3 Cu1 1_555 1_555
C1 C2 1_555 1_555
C2 C3 1_555 1_555
C3 C4 1_555 1_555
C4 C5 1_555 1_555
C5 N1 1_555 1_555
C6 N2 1_555 1_555
C7 C6 1_555 1_555
C8 C7 1_555 1_555
C9 C8 1_555 1_555
C10 N2 1_555 1_555
O4 C11 1_555 1_555
C11 O1 1_555 1_555
C12 C11 1_555 1_555
C13 O3 1_555 1_555
C14 C12 1_555 1_555
H1 C14 1_555 1_555
H2 C14 1_555 1_555
H3 C14 1_555 1_555
H4 C1 1_555 1_555
H5 C2 1_555 1_555
H6 C3 1_555 1_555
H7 C4 1_555 1_555
H8 C7 1_555 1_555
H9 C8 1_555 1_555
H10 C9 1_555 1_555
H11 C10 1_555 1_555
H12 C12 1_555 1_555
Cu1_2 O2 1_555 1_555
O2_2 Cu1 1_555 1_555
C5 C6 1_555 1_555
C9 C10 1_555 1_555
C12 C13 1_555 1_555

#END
