
#######################################################################
#
#                 Cambridge Crystallographic Data Centre
#                                CCDC 
#
#######################################################################
#
# If this CIF has been generated from an entry in the Cambridge 
# Structural Database, then it will include bibliographic, chemical, 
# crystal, experimental, refinement or atomic coordinate data resulting 
# from the CCDC's data processing and validation procedures.
#
#######################################################################

data_ODOFIW
_symmetry_cell_setting           monoclinic
_symmetry_space_group_name_H-M   'P 21/c'
_symmetry_Int_Tables_number      14
_space_group_name_Hall           '-P 2ybc'
loop_
_symmetry_equiv_pos_site_id
_symmetry_equiv_pos_as_xyz
1 x,y,z
2 x,1/2-y,1/2+z
3 -x,-y,-z
4 -x,1/2+y,1/2-z
_cell_length_a                   3.7738(4)
_cell_length_b                   12.8533(10)
_cell_length_c                   12.7034(12)
_cell_angle_alpha                90
_cell_angle_beta                 90.711(13)
_cell_angle_gamma                90
_cell_volume                     616.141
loop_
_atom_site_label
_atom_site_type_symbol
_atom_site_fract_x
_atom_site_fract_y
_atom_site_fract_z
Cu1 Cu 0.54440(5) 0.348049(15) 0.318680(13)
Cl1 Cl 0.04472(9) 0.46076(3) 0.31864(3)
N1 N 0.5303(3) 0.28346(9) 0.46402(9)
C1 C 0.6534(4) 0.18982(10) 0.49137(10)
C2 C 0.6671(4) 0.15510(10) 0.59445(11)
H1 H 0.7583 0.0894 0.6092
N2 N 0.5510(3) 0.21477(9) 0.67324(9)
C3 C 0.4246(4) 0.30879(11) 0.64714(10)
H2 H 0.3427 0.3525 0.6999
C4 C 0.4128(4) 0.34271(11) 0.54357(11)
H3 H 0.3211 0.4083 0.5287
Cl2 Cl 0.79681(11) 0.10965(3) 0.39202(3)
Cl1_2 Cl 1.04472(9) 0.46076(3) 0.31864(3)
N2A N 0.5510(3) 0.28523(9) 0.17324(9)
Cu1_2 Cu -0.45560(5) 0.348049(15) 0.318680(13)
Cu1A Cu 0.54440(5) 0.151951(15) 0.818680(13)
loop_
_geom_bond_atom_site_label_1
_geom_bond_atom_site_label_2
_geom_bond_site_symmetry_1
_geom_bond_site_symmetry_2
Cu1 Cl1 1_555 1_555
Cl1 Cu1_2 1_555 1_555
N1 Cu1 1_555 1_555
C1 N1 1_555 1_555
C2 C1 1_555 1_555
H1 C2 1_555 1_555
N2 C2 1_555 1_555
C3 N2 1_555 1_555
H2 C3 1_555 1_555
C4 N1 1_555 1_555
H3 C4 1_555 1_555
Cl2 C1 1_555 1_555
Cl1_2 Cu1 1_555 1_555
N2A Cu1 1_555 1_555
Cu1A N2 1_555 1_555
C3 C4 1_555 1_555

#END
