
#######################################################################
#
#                 Cambridge Crystallographic Data Centre
#                                CCDC 
#
#######################################################################
#
# If this CIF has been generated from an entry in the Cambridge 
# Structural Database, then it will include bibliographic, chemical, 
# crystal, experimental, refinement or atomic coordinate data resulting 
# from the CCDC's data processing and validation procedures.
#
#######################################################################

data_ODOFES
_symmetry_cell_setting           monoclinic
_symmetry_space_group_name_H-M   'P 21/c'
_symmetry_Int_Tables_number      14
_space_group_name_Hall           '-P 2ybc'
loop_
_symmetry_equiv_pos_site_id
_symmetry_equiv_pos_as_xyz
1 x,y,z
2 x,1/2-y,1/2+z
3 -x,-y,-z
4 -x,1/2+y,1/2-z
_cell_length_a                   3.9068(3)
_cell_length_b                   13.1594(11)
_cell_length_c                   12.7652(8)
_cell_angle_alpha                90
_cell_angle_beta                 90.530(8)
_cell_angle_gamma                90
_cell_volume                     656.245
loop_
_atom_site_label
_atom_site_type_symbol
_atom_site_fract_x
_atom_site_fract_y
_atom_site_fract_z
Cu1 Cu 0.44846(14) 0.34308(4) -0.67866(3)
Br1 Br -0.05148(10) 0.46013(3) -0.67870(3)
Cl1 Cl 0.2025(3) 0.10955(8) -0.60621(7)
N1 N 0.4653(8) 0.2807(2) -0.5335(2)
C1 C 0.3446(9) 0.1906(3) -0.5061(3)
C2 C 0.3285(11) 0.1571(3) -0.4034(3)
H1 H 0.2383 0.0933 -0.3887
C3 C 0.5653(10) 0.3065(3) -0.3506(3)
H2 H 0.6455 0.3494 -0.2979
C4 C 0.5779(11) 0.3396(3) -0.4544(3)
H3 H 0.6661 0.4036 -0.4691
N2 N 0.4431(9) 0.2165(2) -0.3249(2)
Br1_2 Br 0.94852(10) 0.46013(3) -0.67870(3)
Cu1_2 Cu -0.55154(14) 0.34308(4) -0.67866(3)
N2A N 0.4431(9) 0.2835(2) -0.8249(2)
Cu1A Cu 0.44846(14) 0.15692(4) -0.17866(3)
loop_
_geom_bond_atom_site_label_1
_geom_bond_atom_site_label_2
_geom_bond_site_symmetry_1
_geom_bond_site_symmetry_2
Cu1 Br1 1_555 1_555
Br1 Cu1_2 1_555 1_555
Cl1 C1 1_555 1_555
N1 Cu1 1_555 1_555
C1 N1 1_555 1_555
C2 C1 1_555 1_555
H1 C2 1_555 1_555
C3 H2 1_555 1_555
C4 N1 1_555 1_555
H3 C4 1_555 1_555
N2 C2 1_555 1_555
Br1_2 Cu1 1_555 1_555
N2A Cu1 1_555 1_555
Cu1A N2 1_555 1_555
C3 C4 1_555 1_555
C3 N2 1_555 1_555

#END
