
#######################################################################
#
#                 Cambridge Crystallographic Data Centre
#                                CCDC 
#
#######################################################################
#
# If this CIF has been generated from an entry in the Cambridge 
# Structural Database, then it will include bibliographic, chemical, 
# crystal, experimental, refinement or atomic coordinate data resulting 
# from the CCDC's data processing and validation procedures.
#
#######################################################################

data_ODOJOG02
_symmetry_cell_setting           monoclinic
_symmetry_space_group_name_H-M   'P 21/c'
_symmetry_Int_Tables_number      14
_space_group_name_Hall           '-P 2ybc'
loop_
_symmetry_equiv_pos_site_id
_symmetry_equiv_pos_as_xyz
1 x,y,z
2 x,1/2-y,1/2+z
3 -x,-y,-z
4 -x,1/2+y,1/2-z
_cell_length_a                   10.1900(10)
_cell_length_b                   10.9060(10)
_cell_length_c                   10.1160(10)
_cell_angle_alpha                90
_cell_angle_beta                 107.960(10)
_cell_angle_gamma                90
_cell_volume                     1069.43
loop_
_atom_site_label
_atom_site_type_symbol
_atom_site_fract_x
_atom_site_fract_y
_atom_site_fract_z
Mn1 Mn 0.51019(4) 0.13415(4) 1.09810(4)
C1 C 0.8231(3) 0.1158(2) 1.1434(3)
C2 C 0.9601(3) 0.1452(3) 1.1777(3)
H1 H 1.0153 0.1011 1.1366
C3 C 0.9335(3) 0.2923(3) 1.3236(3)
H2 H 0.9687 0.3554 1.3864
C4 C 0.7962(3) 0.2632(3) 1.2925(3)
H3 H 0.7421 0.3054 1.3365
C5 C 0.3673(3) 0.3721(3) 0.9586(3)
C6 C 0.2775(3) 0.4689(3) 0.9158(3)
H4 H 0.2856 0.5179 0.8435
C7 C 0.1732(3) 0.4212(3) 1.0736(3)
H5 H 0.1051 0.4346 1.1156
C8 C 0.2626(3) 0.3245(3) 1.1194(3)
H6 H 0.2544 0.2762 1.1922
C9 C 0.7579(3) 0.0154(3) 1.0413(3)
C10 C 0.4710(3) 0.3387(3) 0.8862(3)
N1 N 0.7385(2) 0.1759(2) 1.2007(2)
N2 N 1.0183(3) 0.2341(2) 1.2675(3)
N3 N 0.3609(2) 0.2984(2) 1.0619(2)
N4 N 0.1795(3) 0.4957(2) 0.9729(3)
O1 O 0.8252(2) -0.03338(18) 0.9752(2)
O2 O 0.63293(19) -0.00939(17) 1.03335(19)
O3 O 0.5410(2) 0.24403(18) 0.9277(2)
O4 O 0.4750(2) 0.40615(18) 0.78690(19)
O2B O 0.36707(19) 0.00939(17) 0.96665(19)
O4A O 0.4750(2) 0.09385(18) 1.28690(19)
Mn1B Mn 0.48981(4) -0.13415(4) 0.90190(4)
Mn1A Mn 0.51019(4) 0.36585(4) 0.59810(4)
loop_
_geom_bond_atom_site_label_1
_geom_bond_atom_site_label_2
_geom_bond_site_symmetry_1
_geom_bond_site_symmetry_2
Mn1 N1 1_555 1_555
C1 C2 1_555 1_555
C2 H1 1_555 1_555
C3 H2 1_555 1_555
C4 C3 1_555 1_555
H3 C4 1_555 1_555
C5 C6 1_555 1_555
C6 H4 1_555 1_555
C7 H5 1_555 1_555
C8 C7 1_555 1_555
H6 C8 1_555 1_555
C9 C1 1_555 1_555
C10 C5 1_555 1_555
N1 C1 1_555 1_555
N2 C2 1_555 1_555
N3 Mn1 1_555 1_555
N4 C6 1_555 1_555
O1 C9 1_555 1_555
O2 Mn1 1_555 1_555
O3 Mn1 1_555 1_555
O4 C10 1_555 1_555
O2B Mn1 1_555 1_555
O4A Mn1 1_555 1_555
Mn1B O2 1_555 1_555
Mn1A O4 1_555 1_555
C3 N2 1_555 1_555
C4 N1 1_555 1_555
C5 N3 1_555 1_555
C7 N4 1_555 1_555
C8 N3 1_555 1_555
C9 O2 1_555 1_555
C10 O3 1_555 1_555
O2B Mn1B 1_555 1_555

#END
