
#######################################################################
#
#                 Cambridge Crystallographic Data Centre
#                                CCDC 
#
#######################################################################
#
# If this CIF has been generated from an entry in the Cambridge 
# Structural Database, then it will include bibliographic, chemical, 
# crystal, experimental, refinement or atomic coordinate data resulting 
# from the CCDC's data processing and validation procedures.
#
#######################################################################

data_ODONEB
_symmetry_cell_setting           hexagonal
_symmetry_space_group_name_H-M   'P 65 2 2'
_symmetry_Int_Tables_number      179
_space_group_name_Hall           "P 65 2' (0,0,1)"
loop_
_symmetry_equiv_pos_site_id
_symmetry_equiv_pos_as_xyz
1 x,y,z
2 -y,x-y,2/3+z
3 -x+y,-x,1/3+z
4 -x,-y,1/2+z
5 y,-x+y,1/6+z
6 x-y,x,5/6+z
7 y,x,2/3-z
8 x-y,-y,-z
9 -x,-x+y,1/3-z
10 -y,-x,1/6-z
11 -x+y,y,1/2-z
12 x,x-y,5/6-z
_cell_length_a                   12.5611(4)
_cell_length_b                   12.5611(4)
_cell_length_c                   62.471(3)
_cell_angle_alpha                90
_cell_angle_beta                 90
_cell_angle_gamma                120
_cell_volume                     8536.2
loop_
_atom_site_label
_atom_site_type_symbol
_atom_site_fract_x
_atom_site_fract_y
_atom_site_fract_z
C1 C 0.0761(4) 0.4142(4) 0.53097(6)
C2 C 0.0757(4) 0.5272(4) 0.50141(6)
C3 C 0.0414(4) 0.5720(4) 0.53454(6)
C4 C 0.0704(4) 0.2840(4) 0.56042(6)
H1 H 0.0364 0.1996 0.5557
H2 H 0.0036 0.2935 0.5660
C5 C 0.1820(4) 0.3542(4) 0.57401(6)
C6 C 0.0714(5) 0.6409(5) 0.47004(7)
H3 H 0.0964 0.7096 0.4798
H4 H -0.0152 0.6073 0.4669
C7 C 0.1445(4) 0.6861(4) 0.44957(6)
C8 C -0.0042(4) 0.7389(4) 0.53874(7)
H5 H 0.0586 0.7889 0.5284
H6 H -0.0002 0.7923 0.5503
C9 C -0.1308(4) 0.6830(4) 0.52801(7)
C10 C 0.3939(4) 0.8190(4) 0.56755(7)
H7 H 0.4089 0.8430 0.5818
C11 C 0.3728(5) 0.8913(4) 0.55341(8)
H8 H 0.3738 0.9617 0.5583
C12 C 0.3504(4) 0.8596(4) 0.53211(7)
C13 C 0.3516(4) 0.7543(4) 0.52601(7)
H9 H 0.3379 0.7294 0.5118
C14 C 0.3729(4) 0.6865(4) 0.54069(7)
H10 H 0.3731 0.6163 0.5360
C15 C 0.3221(5) 0.9324(5) 0.51640(8)
H11 H 0.3090 0.9918 0.5242
H12 H 0.2464 0.8773 0.5090
C16 C 0.4233(5) 1.0000 0.5000
H13 H 0.4395 0.9414 0.4927
C17 C 0.4393(4) 0.7382(4) 0.37461(6)
H14 H 0.3721 0.7466 0.3709
C18 C 0.5332(5) 0.7772(5) 0.36029(6)
H15 H 0.5278 0.8091 0.3472
C19 C 0.6365(4) 0.7696(4) 0.36522(8)
C20 C 0.6350(4) 0.7138(5) 0.38470(8)
H16 H 0.7002 0.7026 0.3886
C21 C 0.5359(4) 0.6761(5) 0.39792(7)
H17 H 0.5363 0.6393 0.4108
C22 C 0.7439(6) 0.8111(6) 0.34961(9)
H18 H 0.7598 0.8864 0.3425
H19 H 0.8174 0.8271 0.3573
C23 C 0.7120(6) 0.7120(6) 0.3333
H20 H 0.6956 0.6382 0.3406
N1 N 0.0530(3) 0.4826(3) 0.54412(5)
N2 N 0.0912(3) 0.4346(3) 0.50910(5)
N3 N 0.0481(4) 0.5970(4) 0.51329(5)
N4 N 0.0837(3) 0.3191(3) 0.53782(5)
H21 H 0.0970 0.2759 0.5287
N5 N 0.0891(4) 0.5473(4) 0.48036(5)
H22 H 0.1089 0.5032 0.4726
N6 N 0.0218(3) 0.6468(4) 0.54721(5)
H23 H 0.0248 0.6399 0.5609
N7 N 0.3938(3) 0.7164(3) 0.56176(5)
N8 N 0.4377(3) 0.6886(3) 0.39359(5)
Ni1 Ni 0.40573(3) 0.59427(3) 0.5833
Ni2 Ni 0.30390(6) 0.65195(3) 0.4167
O1 O 0.2670(3) 0.4520(3) 0.56656(4)
O2 O 0.1797(3) 0.3096(3) 0.59196(5)
O3 O 0.1712(3) 0.6144(3) 0.43993(4)
O4 O 0.1721(4) 0.7924(3) 0.44328(6)
O5 O -0.1428(4) 0.7315(3) 0.51151(5)
H24 H -0.2144 0.6930 0.5075
O6 O -0.2169(3) 0.5888(3) 0.53687(5)
O7 O 0.5342(3) 0.5949(3) 0.56238(5)
H25 H 0.5299 0.5261 0.5646
H26 H 0.6071 0.6509 0.5653
O8 O 0.2971(3) 0.8078(3) 0.40849(4)
H27 H 0.2689 0.8294 0.4189
H28 H 0.2433 0.7845 0.3986
C1I C 0.5858(4) 0.9239(4) 0.63570(6)
C2I C 0.4728(4) 0.9243(4) 0.66526(6)
C3I C 0.4280(4) 0.9586(4) 0.63213(6)
C4I C 0.7160(4) 0.9296(4) 0.60625(6)
H1I H 0.8004 0.9636 0.6110
H2I H 0.7065 0.9964 0.6007
C5I C 0.6458(4) 0.8180(4) 0.59266(6)
C6I C 0.3591(5) 0.9286(5) 0.69663(7)
H3I H 0.2904 0.9036 0.6869
H4I H 0.3927 1.0152 0.6998
C7I C 0.3139(4) 0.8555(4) 0.71710(6)
C8I C 0.2611(4) 1.0042(4) 0.62793(7)
H5I H 0.2111 0.9414 0.6383
H6I H 0.2077 1.0002 0.6164
C9I C 0.3170(4) 1.1308(4) 0.63866(7)
C10G C 0.5749(6) 1.1810(4) 0.43245(7)
H7G H 0.5659 1.1570 0.4182
C11G C 0.4815(6) 1.1087(4) 0.44659(8)
H8G H 0.4121 1.0383 0.4417
C12G C 0.4908(6) 1.1404(4) 0.46789(7)
C13G C 0.5973(6) 1.2457(4) 0.47399(7)
H9G H 0.6085 1.2706 0.4882
C14G C 0.6864(6) 1.3135(4) 0.45931(7)
H10G H 0.7568 1.3837 0.4640
C15G C 0.3897(7) 1.0676(5) 0.48360(8)
H11G H 0.3172 1.0082 0.4758
H12G H 0.3691 1.1227 0.4910
H13G H 0.4981 1.0586 0.5073
C17F C 0.7382(4) 0.4393(4) 0.29206(6)
H14F H 0.7466 0.3721 0.2958
C18F C 0.7772(5) 0.5332(5) 0.30638(6)
H15F H 0.8091 0.5278 0.3195
C19F C 0.7696(4) 0.6365(4) 0.30145(8)
C20F C 0.7138(5) 0.6350(4) 0.28197(8)
H16F H 0.7026 0.7002 0.2781
C21F C 0.6761(5) 0.5359(4) 0.26875(7)
H17F H 0.6393 0.5363 0.2559
C22F C 0.8111(6) 0.7439(6) 0.31706(9)
H18F H 0.8864 0.7598 0.3242
H19F H 0.8271 0.8174 0.3094
H20F H 0.6382 0.6956 0.3261
N1I N 0.5174(3) 0.9470(3) 0.62255(5)
N2I N 0.5654(3) 0.9088(3) 0.65757(5)
N3I N 0.4030(4) 0.9519(4) 0.65338(5)
N4I N 0.6809(3) 0.9163(3) 0.62885(5)
H21I H 0.7241 0.9030 0.6380
N5I N 0.4527(4) 0.9109(4) 0.68631(5)
H22I H 0.4968 0.8911 0.6941
N6I N 0.3532(4) 0.9782(3) 0.61946(5)
H23I H 0.3601 0.9752 0.6058
N7G N 0.6774(4) 1.2836(3) 0.43824(5)
N7I N 0.2836(3) 0.6062(3) 0.60491(5)
N8F N 0.6886(3) 0.4377(3) 0.27308(5)
N8K N 0.4377(3) 0.7491(4) 0.43974(5)
Ni1G Ni 0.81146(4) 1.40573(3) 0.4167
Ni2I Ni 0.34805(3) 0.69610(6) 0.7500
Ni2E Ni 0.65195(7) 0.30390(6) 0.2500
O1I O 0.5480(3) 0.7330(3) 0.60011(4)
O2I O 0.6904(3) 0.8203(3) 0.57471(5)
O3I O 0.3856(3) 0.8288(3) 0.72674(4)
O3K O 0.1712(3) 0.5568(4) 0.39340(4)
O4I O 0.2076(3) 0.8279(4) 0.72339(6)
O5I O 0.2685(3) 1.1428(4) 0.65516(5)
H24I H 0.3070 1.2144 0.6592
O6I O 0.4112(3) 1.2169(3) 0.62980(5)
O7I O 0.4051(3) 0.4658(3) 0.60429(5)
H25I H 0.4739 0.4701 0.6021
H26I H 0.3491 0.3929 0.6014
O8K O 0.2971(3) 0.4893(4) 0.42484(4)
H27K H 0.2689 0.4395 0.4144
H28K H 0.2433 0.4588 0.4347
O9 O 0.0822(11) 1.0000 0.5000
H29 H 0.0195 0.9549 0.4924
H29G H 0.0646 1.0451 0.5076
O10 O 0.0398(8) 0.9046(7) 0.46153(15)
H30 H 0.0781 0.8698 0.4568
H31 H 0.0866 0.9814 0.4596
O11 O 0.0633(6) 0.0594(5) 0.60145(12)
H32 H 0.0804 0.1239 0.5944
H33 H -0.0141 0.0117 0.6008
loop_
_geom_bond_atom_site_label_1
_geom_bond_atom_site_label_2
_geom_bond_site_symmetry_1
_geom_bond_site_symmetry_2
C1 N1 1_555 1_555
C2 N2 1_555 1_555
C3 N1 1_555 1_555
C4 H1 1_555 1_555
H2 C4 1_555 1_555
C5 C4 1_555 1_555
C6 H3 1_555 1_555
H4 C6 1_555 1_555
C7 C6 1_555 1_555
C8 H5 1_555 1_555
H6 C8 1_555 1_555
C9 C8 1_555 1_555
C10 H7 1_555 1_555
C11 C10 1_555 1_555
H8 C11 1_555 1_555
C12 C11 1_555 1_555
C13 C12 1_555 1_555
H9 C13 1_555 1_555
C14 C13 1_555 1_555
H10 C14 1_555 1_555
C15 C12 1_555 1_555
H11 C15 1_555 1_555
H12 C15 1_555 1_555
C16 C15 1_555 1_555
H13 C16 1_555 1_555
C17 H14 1_555 1_555
C18 C17 1_555 1_555
H15 C18 1_555 1_555
C19 C18 1_555 1_555
C20 C19 1_555 1_555
H16 C20 1_555 1_555
C21 C20 1_555 1_555
H17 C21 1_555 1_555
C22 C19 1_555 1_555
H18 C22 1_555 1_555
H19 C22 1_555 1_555
C23 C22 1_555 1_555
H20 C23 1_555 1_555
N2 C1 1_555 1_555
N3 C2 1_555 1_555
N4 C1 1_555 1_555
H21 N4 1_555 1_555
N5 C2 1_555 1_555
H22 N5 1_555 1_555
N6 C3 1_555 1_555
H23 N6 1_555 1_555
N7 C10 1_555 1_555
N8 C17 1_555 1_555
Ni1 N7 1_555 1_555
Ni2 N8 1_555 1_555
O1 C5 1_555 1_555
O2 C5 1_555 1_555
O3 C7 1_555 1_555
O4 C7 1_555 1_555
O5 C9 1_555 1_555
H24 O5 1_555 1_555
O6 C9 1_555 1_555
O7 Ni1 1_555 1_555
H25 O7 1_555 1_555
H26 O7 1_555 1_555
O8 Ni2 1_555 1_555
H27 O8 1_555 1_555
H28 O8 1_555 1_555
O9 H29 1_555 1_555
O10 H30 1_555 1_555
H31 O10 1_555 1_555
O11 H32 1_555 1_555
H33 O11 1_555 1_555
C1I N1I 1_555 1_555
C2I N2I 1_555 1_555
C3I N1I 1_555 1_555
C4I H1I 1_555 1_555
H2I C4I 1_555 1_555
C5I C4I 1_555 1_555
C6I H3I 1_555 1_555
H4I C6I 1_555 1_555
C7I C6I 1_555 1_555
C8I H5I 1_555 1_555
H6I C8I 1_555 1_555
C9I C8I 1_555 1_555
C10G H7G 1_555 1_555
C11G C10G 1_555 1_555
H8G C11G 1_555 1_555
C12G C11G 1_555 1_555
C13G C12G 1_555 1_555
H9G C13G 1_555 1_555
C14G C13G 1_555 1_555
H10G C14G 1_555 1_555
C15G C16 1_555 1_555
H11G C15G 1_555 1_555
H12G C15G 1_555 1_555
H13G C16 1_555 1_555
C17F H14F 1_555 1_555
C18F C17F 1_555 1_555
H15F C18F 1_555 1_555
C19F C18F 1_555 1_555
C20F C19F 1_555 1_555
H16F C20F 1_555 1_555
C21F C20F 1_555 1_555
H17F C21F 1_555 1_555
C22F C23 1_555 1_555
H18F C22F 1_555 1_555
H19F C22F 1_555 1_555
H20F C23 1_555 1_555
N2I C1I 1_555 1_555
N3I C2I 1_555 1_555
N4I C1I 1_555 1_555
H21I N4I 1_555 1_555
N5I C2I 1_555 1_555
H22I N5I 1_555 1_555
N6I C3I 1_555 1_555
H23I N6I 1_555 1_555
N7G C10G 1_555 1_555
N7I Ni1 1_555 1_555
N8F C17F 1_555 1_555
N8K Ni2 1_555 1_555
Ni1G N7G 1_555 1_555
Ni2I O3I 1_555 1_555
Ni2E N8F 1_555 1_555
O1I Ni1 1_555 1_555
O2I C5I 1_555 1_555
O3I C7I 1_555 1_555
O3K Ni2 1_555 1_555
O4I C7I 1_555 1_555
O5I C9I 1_555 1_555
H24I O5I 1_555 1_555
O6I C9I 1_555 1_555
O7I Ni1 1_555 1_555
H25I O7I 1_555 1_555
H26I O7I 1_555 1_555
O8K Ni2 1_555 1_555
H27K O8K 1_555 1_555
H28K O8K 1_555 1_555
H29G O9 1_555 1_555
C3 N3 1_555 1_555
C4 N4 1_555 1_555
C6 N5 1_555 1_555
C8 N6 1_555 1_555
C14 N7 1_555 1_555
C21 N8 1_555 1_555
Ni1 O1 1_555 1_555
Ni2 O3 1_555 1_555
C3I N3I 1_555 1_555
C4I N4I 1_555 1_555
C5I O1I 1_555 1_555
C6I N5I 1_555 1_555
C8I N6I 1_555 1_555
C12G C15G 1_555 1_555
C14G N7G 1_555 1_555
C19F C22F 1_555 1_555
C21F N8F 1_555 1_555

#END
