
#######################################################################
#
#                 Cambridge Crystallographic Data Centre
#                                CCDC 
#
#######################################################################
#
# If this CIF has been generated from an entry in the Cambridge 
# Structural Database, then it will include bibliographic, chemical, 
# crystal, experimental, refinement or atomic coordinate data resulting 
# from the CCDC's data processing and validation procedures.
#
#######################################################################

data_ODONOL
_symmetry_cell_setting           monoclinic
_symmetry_space_group_name_H-M   'P 21'
_symmetry_Int_Tables_number      4
_space_group_name_Hall           'P 2yb'
loop_
_symmetry_equiv_pos_site_id
_symmetry_equiv_pos_as_xyz
1 x,y,z
2 -x,1/2+y,-z
_cell_length_a                   7.1024(14)
_cell_length_b                   7.0967(14)
_cell_length_c                   13.380(3)
_cell_angle_alpha                90
_cell_angle_beta                 90.81(3)
_cell_angle_gamma                90
_cell_volume                     674.333
loop_
_atom_site_label
_atom_site_type_symbol
_atom_site_fract_x
_atom_site_fract_y
_atom_site_fract_z
Co1 Co 0.73058(4) 0.50089(5) 0.679920(18)
Co2 Co 0.79070(4) 0.49944(5) 0.180662(18)
S1 S 0.68948(10) 0.36489(10) 0.42778(4)
S2 S 0.91189(8) 0.48716(12) 0.92590(4)
N1 N 0.7080(3) 0.5181(4) 0.51843(12)
N2 N 0.7610(3) 0.5071(4) 0.34040(12)
N3 N 0.7767(3) 0.5294(3) 1.02011(13)
N4 N 0.7501(3) 0.5191(4) 0.84011(12)
C1 C 0.7901(4) 0.8366(4) 0.56112(17)
C2 C 0.7720(4) 0.6804(4) 0.48375(17)
C3 C 0.8035(3) 0.6736(4) 0.37959(16)
C4 C 0.8970(4) 0.8106(4) 0.30966(17)
C5 C 0.4529(4) 0.5802(4) 1.06780(16)
C6 C 0.6025(3) 0.5677(4) 0.98747(15)
C7 C 0.5891(3) 0.5658(4) 0.88138(15)
C8 C 0.4346(3) 0.6307(4) 0.80994(17)
O1 O 0.7849(3) 0.7797(3) 0.65111(12)
O2 O 0.7992(3) 1.0018(4) 0.53547(12)
O3 O 0.9931(3) 0.9377(3) 0.34840(13)
O4 O 0.8792(3) 0.7739(3) 0.21804(12)
O5 O 0.6521(3) 0.2257(3) 0.67957(14)
H1 H 0.616(4) 0.181(4) 0.7350(13)
H2 H 0.729(4) 0.161(4) 0.6457(19)
O6 O 0.5177(3) 0.5887(3) 1.15637(12)
O7 O 0.2875(3) 0.5733(4) 1.04377(13)
O8 O 0.3038(3) 0.7259(3) 0.84469(13)
O9 O 0.4602(3) 0.5907(3) 0.71977(12)
O10 O 1.0632(3) 0.4191(3) 0.18072(13)
H3 H 1.141(3) 0.468(4) 0.1409(15)
H4 H 1.109(3) 0.378(4) 0.2361(12)
Co1A Co 1.26942(4) 1.00089(5) 0.320080(18)
Co2_2 Co 0.79070(4) 0.49944(5) 1.180662(18)
Co2A Co 0.20930(4) 0.99944(5) 0.819338(18)
N3_2 N 0.7767(3) 0.5294(3) 0.02011(13)
O3A O 1.0069(3) 0.4377(3) 0.65160(13)
O6_2 O 0.5177(3) 0.5887(3) 0.15637(12)
O8A O 0.6962(3) 0.2259(3) 0.15531(13)
loop_
_geom_bond_atom_site_label_1
_geom_bond_atom_site_label_2
_geom_bond_site_symmetry_1
_geom_bond_site_symmetry_2
Co1 N1 1_555 1_555
Co2 N2 1_555 1_555
S1 N1 1_555 1_555
S2 N3 1_555 1_555
N1 C2 1_555 1_555
N2 S1 1_555 1_555
N3 C6 1_555 1_555
N4 Co1 1_555 1_555
C1 C2 1_555 1_555
C2 C3 1_555 1_555
C3 N2 1_555 1_555
C4 C3 1_555 1_555
C5 C6 1_555 1_555
C6 C7 1_555 1_555
C7 N4 1_555 1_555
C8 C7 1_555 1_555
O1 Co1 1_555 1_555
O2 C1 1_555 1_555
O3 C4 1_555 1_555
O4 Co2 1_555 1_555
O5 Co1 1_555 1_555
H1 O5 1_555 1_555
H2 O5 1_555 1_555
O6 C5 1_555 1_555
O7 C5 1_555 1_555
O8 C8 1_555 1_555
O9 Co1 1_555 1_555
O10 Co2 1_555 1_555
H3 O10 1_555 1_555
H4 O10 1_555 1_555
Co1A O3 1_555 1_555
Co2_2 N3 1_555 1_555
Co2A O8 1_555 1_555
N3_2 Co2 1_555 1_555
O3A Co1 1_555 1_555
O6_2 Co2 1_555 1_555
O8A Co2 1_555 1_555
S2 N4 1_555 1_555
C1 O1 1_555 1_555
C4 O4 1_555 1_555
C8 O9 1_555 1_555
O6 Co2_2 1_555 1_555

#END
