
#######################################################################
#
#                 Cambridge Crystallographic Data Centre
#                                CCDC 
#
#######################################################################
#
# If this CIF has been generated from an entry in the Cambridge 
# Structural Database, then it will include bibliographic, chemical, 
# crystal, experimental, refinement or atomic coordinate data resulting 
# from the CCDC's data processing and validation procedures.
#
#######################################################################

data_ODONUR
_symmetry_cell_setting           monoclinic
_symmetry_space_group_name_H-M   'P 21'
_symmetry_Int_Tables_number      4
_space_group_name_Hall           'P 2yb'
loop_
_symmetry_equiv_pos_site_id
_symmetry_equiv_pos_as_xyz
1 x,y,z
2 -x,1/2+y,-z
_cell_length_a                   7.1244(14)
_cell_length_b                   7.1131(14)
_cell_length_c                   13.153(3)
_cell_angle_alpha                90
_cell_angle_beta                 90.85(3)
_cell_angle_gamma                90
_cell_volume                     666.476
loop_
_atom_site_label
_atom_site_type_symbol
_atom_site_fract_x
_atom_site_fract_y
_atom_site_fract_z
Ni1 Ni 0.26981(5) 0.49830(6) 0.31983(2)
Ni2 Ni 0.21253(4) 0.50147(7) 0.81943(2)
S1 S 0.31541(12) 0.63301(13) 0.57141(6)
S2 S 0.09153(9) 0.51320(15) 0.07313(5)
N1 N 0.2924(3) 0.4802(5) 0.47958(17)
N2 N 0.2399(3) 0.4939(6) 0.66074(16)
N3 N 0.2276(3) 0.4696(4) -0.02196(17)
N4 N 0.2518(3) 0.4801(5) 0.16094(17)
C1 C 0.2019(4) 0.1654(5) 0.4368(2)
C2 C 0.2251(4) 0.3193(4) 0.5147(2)
C3 C 0.1953(4) 0.3279(5) 0.6209(2)
C4 C 0.0988(4) 0.1939(5) 0.6931(2)
C5 C 0.5498(4) 0.4145(5) -0.0700(2)
C6 C 0.4009(4) 0.4317(5) 0.0121(2)
C7 C 0.4136(4) 0.4327(4) 0.1192(2)
C8 C 0.5657(4) 0.3704(5) 0.1931(2)
O1 O 0.2074(3) 0.2238(3) 0.34508(17)
O2 O 0.1854(3) 0.0014(4) 0.46184(17)
O3 O 0.0020(3) 0.0676(4) 0.65368(17)
O4 O 0.1166(3) 0.2328(4) 0.78552(17)
O5 O 0.3477(4) 0.7712(4) 0.3238(2)
H1 H 0.376(5) 0.814(5) 0.2661(15)
H2 H 0.261(5) 0.824(5) 0.356(3)
O6 O 0.4844(3) 0.4167(4) -0.16026(16)
O7 O 0.7142(3) 0.4101(5) -0.04648(18)
O8 O 0.6969(3) 0.2744(4) 0.15986(18)
O9 O 0.5385(3) 0.4133(4) 0.28513(17)
O10 O -0.0562(3) 0.5869(4) 0.82441(19)
H3 H -0.124(4) 0.508(4) 0.856(2)
H4 H -0.109(4) 0.638(5) 0.7719(18)
Ni1A Ni -0.26981(5) -0.00170(6) 0.68017(2)
Ni2_2 Ni 0.21253(4) 0.50147(7) -0.18057(2)
Ni2A Ni 0.78747(4) 0.00147(7) 0.18057(2)
N3_2 N 0.2276(3) 0.4696(4) 0.97804(17)
O3A O -0.0020(3) 0.5676(4) 0.34632(17)
O6_2 O 0.4844(3) 0.4167(4) 0.83974(16)
O8A O 0.3031(3) 0.7744(4) 0.84014(18)
loop_
_geom_bond_atom_site_label_1
_geom_bond_atom_site_label_2
_geom_bond_site_symmetry_1
_geom_bond_site_symmetry_2
Ni1 N1 1_555 1_555
Ni2 N2 1_555 1_555
S1 N1 1_555 1_555
S2 N3 1_555 1_555
N1 C2 1_555 1_555
N2 S1 1_555 1_555
N3 C6 1_555 1_555
N4 Ni1 1_555 1_555
C1 C2 1_555 1_555
C2 C3 1_555 1_555
C3 N2 1_555 1_555
C4 C3 1_555 1_555
C5 C6 1_555 1_555
C6 C7 1_555 1_555
C7 N4 1_555 1_555
C8 C7 1_555 1_555
O1 Ni1 1_555 1_555
O2 C1 1_555 1_555
O3 C4 1_555 1_555
O4 Ni2 1_555 1_555
O5 Ni1 1_555 1_555
H1 O5 1_555 1_555
H2 O5 1_555 1_555
O6 C5 1_555 1_555
O7 C5 1_555 1_555
O8 C8 1_555 1_555
O9 Ni1 1_555 1_555
O10 Ni2 1_555 1_555
H3 O10 1_555 1_555
H4 O10 1_555 1_555
Ni1A O3 1_555 1_555
Ni2_2 N3 1_555 1_555
Ni2A O8 1_555 1_555
N3_2 Ni2 1_555 1_555
O3A Ni1 1_555 1_555
O6_2 Ni2 1_555 1_555
O8A Ni2 1_555 1_555
S2 N4 1_555 1_555
C1 O1 1_555 1_555
C4 O4 1_555 1_555
C8 O9 1_555 1_555
O6 Ni2_2 1_555 1_555

#END
