
#######################################################################
#
#                 Cambridge Crystallographic Data Centre
#                                CCDC 
#
#######################################################################
#
# If this CIF has been generated from an entry in the Cambridge 
# Structural Database, then it will include bibliographic, chemical, 
# crystal, experimental, refinement or atomic coordinate data resulting 
# from the CCDC's data processing and validation procedures.
#
#######################################################################

data_ODOVUY
_symmetry_cell_setting           triclinic
_symmetry_space_group_name_H-M   'P -1'
_symmetry_Int_Tables_number      2
_space_group_name_Hall           '-P 1'
loop_
_symmetry_equiv_pos_site_id
_symmetry_equiv_pos_as_xyz
1 x,y,z
2 -x,-y,-z
_cell_length_a                   8.7941(17)
_cell_length_b                   9.9647(19)
_cell_length_c                   11.840(2)
_cell_angle_alpha                105.778(3)
_cell_angle_beta                 92.193(4)
_cell_angle_gamma                112.421(3)
_cell_volume                     911.146
loop_
_atom_site_label
_atom_site_type_symbol
_atom_site_fract_x
_atom_site_fract_y
_atom_site_fract_z
B1 B 0.6146(4) -0.0569(4) 0.2050(3)
O1 O 0.6051(3) -0.0743(2) 0.07966(19)
C1 C 0.6131(4) -0.2009(3) 0.0065(3)
C2 C 0.5422(4) -0.2530(4) -0.1131(3)
H1 H 0.492(5) -0.201(4) -0.139(3)
C3 C 0.5506(5) -0.3815(4) -0.1879(3)
H2 H 0.499(5) -0.420(4) -0.273(3)
C4 C 0.6293(4) -0.4611(4) -0.1467(3)
H3 H 0.639(5) -0.547(5) -0.202(4)
C5 C 0.7001(4) -0.4091(4) -0.0291(3)
H4 H 0.742(5) -0.472(4) -0.003(3)
C6 C 0.6924(4) -0.2798(3) 0.0488(3)
C7 C 0.7679(4) -0.2228(4) 0.1748(3)
O2 O 0.7331(3) -0.1150(2) 0.24562(19)
O3 O 0.8620(3) -0.2695(3) 0.2133(2)
O4 O 0.6738(3) 0.1029(2) 0.2689(2)
C8 C 0.5982(4) 0.1546(3) 0.3575(3)
C9 C 0.6722(4) 0.3081(4) 0.4244(3)
H5 H 0.778(5) 0.368(5) 0.405(3)
C10 C 0.5966(5) 0.3635(4) 0.5153(3)
H6 H 0.649(5) 0.465(4) 0.556(3)
C11 C 0.4477(5) 0.2691(4) 0.5404(3)
H7 H 0.396(5) 0.311(4) 0.607(3)
C12 C 0.3738(4) 0.1178(4) 0.4729(3)
H8 H 0.272(5) 0.053(4) 0.494(3)
C13 C 0.4471(4) 0.0589(3) 0.3804(3)
C14 C 0.3658(4) -0.1006(4) 0.3057(3)
O5 O 0.4473(3) -0.1516(2) 0.2259(2)
O6 O 0.2259(3) -0.1860(3) 0.3135(2)
Li1 Li 1.0045(7) -0.3161(6) 0.3045(5)
N1 N 0.9480(4) -0.5378(4) 0.2000(3)
C15 C 0.9037(4) -0.6403(4) 0.1160(4)
C16 C 0.8476(6) -0.7700(5) 0.0085(4)
H9 H 0.928(9) -0.801(7) -0.015(6)
H10 H 0.757(8) -0.860(7) 0.009(5)
H11 H 0.778(9) -0.745(7) -0.050(6)
N2 N 0.9572(4) -0.2857(4) 0.4762(3)
C17 C 0.9397(4) -0.2396(5) 0.5719(4)
C18 C 0.9158(6) -0.1823(6) 0.6931(4)
H12 H 0.801(8) -0.215(6) 0.696(5)
H13 H 1.009(10) -0.170(8) 0.735(6)
H14 H 0.941(9) -0.061(9) 0.720(6)
Li1_2 Li 0.0045(7) -0.3161(6) 0.3045(5)
O6_2 O 1.2259(3) -0.1860(3) 0.3135(2)
loop_
_geom_bond_atom_site_label_1
_geom_bond_atom_site_label_2
_geom_bond_site_symmetry_1
_geom_bond_site_symmetry_2
B1 O1 1_555 1_555
O1 C1 1_555 1_555
C1 C2 1_555 1_555
C2 H1 1_555 1_555
C3 C2 1_555 1_555
H2 C3 1_555 1_555
C4 C3 1_555 1_555
H3 C4 1_555 1_555
C5 C4 1_555 1_555
H4 C5 1_555 1_555
C6 C1 1_555 1_555
C7 C6 1_555 1_555
O2 B1 1_555 1_555
O3 C7 1_555 1_555
O4 B1 1_555 1_555
C8 O4 1_555 1_555
C9 C8 1_555 1_555
H5 C9 1_555 1_555
C10 C9 1_555 1_555
H6 C10 1_555 1_555
C11 C10 1_555 1_555
H7 C11 1_555 1_555
C12 C11 1_555 1_555
H8 C12 1_555 1_555
C13 C8 1_555 1_555
C14 C13 1_555 1_555
O5 B1 1_555 1_555
O6 C14 1_555 1_555
Li1 O3 1_555 1_555
N1 Li1 1_555 1_555
C15 N1 1_555 1_555
C16 C15 1_555 1_555
H9 C16 1_555 1_555
H10 C16 1_555 1_555
H11 C16 1_555 1_555
N2 Li1 1_555 1_555
C17 N2 1_555 1_555
C18 C17 1_555 1_555
H12 C18 1_555 1_555
H13 C18 1_555 1_555
H14 C18 1_555 1_555
Li1_2 O6 1_555 1_555
O6_2 Li1 1_555 1_555
C5 C6 1_555 1_555
C7 O2 1_555 1_555
C12 C13 1_555 1_555
C14 O5 1_555 1_555

#END
