
#######################################################################
#
#                 Cambridge Crystallographic Data Centre
#                                CCDC 
#
#######################################################################
#
# If this CIF has been generated from an entry in the Cambridge 
# Structural Database, then it will include bibliographic, chemical, 
# crystal, experimental, refinement or atomic coordinate data resulting 
# from the CCDC's data processing and validation procedures.
#
#######################################################################

data_ODOWUZ
_symmetry_cell_setting           monoclinic
_symmetry_space_group_name_H-M   'C 2/c'
_symmetry_Int_Tables_number      15
_space_group_name_Hall           '-C 2yn'
loop_
_symmetry_equiv_pos_site_id
_symmetry_equiv_pos_as_xyz
1 x,y,z
2 1/2+x,1/2+y,z
3 -x,y,1/2-z
4 1/2-x,1/2+y,1/2-z
5 -x,-y,-z
6 1/2-x,1/2-y,-z
7 x,-y,1/2+z
8 1/2+x,1/2-y,1/2+z
_cell_length_a                   18.9848(18)
_cell_length_b                   7.3872(6)
_cell_length_c                   20.4321(19)
_cell_angle_alpha                90
_cell_angle_beta                 97.1660(10)
_cell_angle_gamma                90
_cell_volume                     2843.11
loop_
_atom_site_label
_atom_site_type_symbol
_atom_site_fract_x
_atom_site_fract_y
_atom_site_fract_z
Cd1 Cd 0.0000 0.1812(3) 0.7500
Cd2 Cd -0.27262(6) -0.02394(17) 0.35023(5)
O1 O -0.1901(6) 0.071(2) 0.4349(6)
O2 O -0.0417(5) 0.2051(18) 0.6429(5)
O3 O -0.1595(6) 0.1508(16) 0.3412(5)
O4 O 0.0720(6) 0.2358(19) 0.6436(5)
O5 O -0.2106(6) -0.2912(16) 0.3534(6)
O6 O -0.3221(7) 0.259(2) 0.3441(8)
C1 C -0.1453(8) 0.137(2) 0.4024(7)
C2 C 0.0003(8) 0.239(2) 0.5391(7)
C3 C 0.0110(8) 0.226(2) 0.6135(7)
O7 O -0.2792(7) -0.067(2) 0.2388(5)
O8 O 0.0000 0.489(3) 0.7500
O9 O -0.0875(8) -0.0298(19) 0.7440(6)
C4 C -0.0647(8) 0.196(2) 0.5049(7)
H1 H -0.1019 0.1637 0.5281
C5 C 0.0565(8) 0.286(2) 0.5045(7)
H2 H 0.1010 0.3121 0.5270
C6 C -0.0756(8) 0.201(2) 0.4375(7)
C7 C 0.0452(7) 0.294(2) 0.4356(7)
C8 C -0.0209(7) 0.249(2) 0.4020(7)
H3 H -0.0282 0.2514 0.3561
C9 C 0.1065(8) 0.347(2) 0.3990(7)
O10 O 0.1002(6) 0.3343(18) 0.3370(5)
O11 O 0.1609(6) 0.406(2) 0.4311(6)
O1B O 0.1901(6) 0.071(2) 1.0651(6)
O2B O 0.0417(5) 0.2051(18) 0.8571(5)
O3B O 0.1595(6) 0.1508(16) 1.1588(5)
O4B O -0.0720(6) 0.2358(19) 0.8564(5)
C1B C 0.1453(8) 0.137(2) 1.0976(7)
C2B C -0.0003(8) 0.239(2) 0.9609(7)
C3B C -0.0110(8) 0.226(2) 0.8865(7)
C4B C 0.0647(8) 0.196(2) 0.9951(7)
H1B H 0.1019 0.1637 0.9719
C5B C -0.0565(8) 0.286(2) 0.9955(7)
H2B H -0.1010 0.3121 0.9730
C6B C 0.0756(8) 0.201(2) 1.0625(7)
C7B C -0.0452(7) 0.294(2) 1.0644(7)
C8B C 0.0209(7) 0.249(2) 1.0980(7)
H3B H 0.0282 0.2514 1.1439
C9B C -0.1065(8) 0.347(2) 1.1010(7)
O10B O -0.1002(6) 0.3343(18) 1.1630(5)
O11B O -0.1609(6) 0.406(2) 1.0689(6)
O9B O 0.0875(8) -0.0298(19) 0.7560(6)
Cd2B Cd 0.27262(6) -0.02394(17) 1.14977(5)
O5B O 0.2106(6) -0.2912(16) 1.1466(6)
O6B O 0.3221(7) 0.259(2) 1.1559(8)
O7B O 0.2792(7) -0.067(2) 1.2612(5)
O10A O -0.3998(6) -0.1657(18) 0.3370(5)
O11A O -0.3391(6) -0.094(2) 0.4311(6)
Cd2A Cd 0.22738(6) 0.47606(17) 0.35023(5)
Cd2C Cd -0.22738(6) 0.47606(17) 1.14977(5)
O10C O 0.3998(6) -0.1657(18) 1.1630(5)
O11C O 0.3391(6) -0.094(2) 1.0689(6)
O12 O -0.2425(12) -0.514(3) 0.4474(8)
loop_
_geom_bond_atom_site_label_1
_geom_bond_atom_site_label_2
_geom_bond_site_symmetry_1
_geom_bond_site_symmetry_2
Cd1 O2 1_555 1_555
Cd2 O1 1_555 1_555
O1 C1 1_555 1_555
O2 C3 1_555 1_555
O3 Cd2 1_555 1_555
O4 C3 1_555 1_555
O5 Cd2 1_555 1_555
O6 Cd2 1_555 1_555
C1 O3 1_555 1_555
C2 C3 1_555 1_555
O7 Cd2 1_555 1_555
O8 Cd1 1_555 1_555
O9 Cd1 1_555 1_555
C4 C2 1_555 1_555
H1 C4 1_555 1_555
C5 C2 1_555 1_555
H2 C5 1_555 1_555
C6 C1 1_555 1_555
C7 C5 1_555 1_555
C8 C6 1_555 1_555
H3 C8 1_555 1_555
C9 C7 1_555 1_555
O10 C9 1_555 1_555
O11 C9 1_555 1_555
O1B C1B 1_555 1_555
O2B Cd1 1_555 1_555
O3B C1B 1_555 1_555
O4B C3B 1_555 1_555
C1B C6B 1_555 1_555
C2B C3B 1_555 1_555
C3B O2B 1_555 1_555
C4B C2B 1_555 1_555
H1B C4B 1_555 1_555
C5B C2B 1_555 1_555
H2B C5B 1_555 1_555
C6B C4B 1_555 1_555
C7B C5B 1_555 1_555
C8B C6B 1_555 1_555
H3B C8B 1_555 1_555
C9B C7B 1_555 1_555
O10B C9B 1_555 1_555
O11B C9B 1_555 1_555
O9B Cd1 1_555 1_555
Cd2B O1B 1_555 1_555
O5B Cd2B 1_555 1_555
O6B Cd2B 1_555 1_555
O7B Cd2B 1_555 1_555
O10A Cd2 1_555 1_555
O11A Cd2 1_555 1_555
Cd2A O10 1_555 1_555
Cd2C O10B 1_555 1_555
O10C Cd2B 1_555 1_555
O11C Cd2B 1_555 1_555
C4 C6 1_555 1_555
C7 C8 1_555 1_555
O11 Cd2A 1_555 1_555
O3B Cd2B 1_555 1_555
C7B C8B 1_555 1_555
O11B Cd2C 1_555 1_555

#END
