
#######################################################################
#
#                 Cambridge Crystallographic Data Centre
#                                CCDC 
#
#######################################################################
#
# If this CIF has been generated from an entry in the Cambridge 
# Structural Database, then it will include bibliographic, chemical, 
# crystal, experimental, refinement or atomic coordinate data resulting 
# from the CCDC's data processing and validation procedures.
#
#######################################################################

data_ODURAG
_symmetry_cell_setting           monoclinic
_symmetry_space_group_name_H-M   'P 21/c'
_symmetry_Int_Tables_number      14
_space_group_name_Hall           '-P 2ybc'
loop_
_symmetry_equiv_pos_site_id
_symmetry_equiv_pos_as_xyz
1 x,y,z
2 x,1/2-y,1/2+z
3 -x,-y,-z
4 -x,1/2+y,1/2-z
_cell_length_a                   18.060(3)
_cell_length_b                   14.866(3)
_cell_length_c                   18.468(4)
_cell_angle_alpha                90
_cell_angle_beta                 105.862(4)
_cell_angle_gamma                90
_cell_volume                     4769.49
loop_
_atom_site_label
_atom_site_type_symbol
_atom_site_fract_x
_atom_site_fract_y
_atom_site_fract_z
C1 C 0.1893(6) 0.2185(6) 0.1617(6)
C2 C 0.1952(6) 0.6483(6) 0.1515(5)
H1 H 0.2384 0.6626 0.1904
C3 C 0.3205(5) 0.3258(5) 0.2445(4)
H2 H 0.3082 0.2895 0.2833
H3 H 0.3759 0.3225 0.2528
C4 C 0.0580(8) 0.1279(8) 0.1592(8)
H4 H 0.0134 0.0961 0.1580
C5 C 0.2154(5) 0.4386(5) 0.2474(5)
H5 H 0.1887 0.4141 0.1986
H6 H 0.2065 0.5030 0.2449
C6 C 0.1225(8) 0.1128(8) 0.2176(7)
H7 H 0.1211 0.0733 0.2562
C7 C 0.3441(5) 0.4449(6) 0.3423(4)
H8 H 0.3320 0.5050 0.3541
H9 H 0.3986 0.4396 0.3496
H10 H 0.3280 0.4032 0.3747
C8 C 0.3014(5) 0.4235(6) 0.2587(5)
C9 C 0.1312(7) 0.6951(7) 0.1459(6)
H11 H 0.1304 0.7410 0.1799
C10 C 0.1893(6) 0.1572(7) 0.2178(6)
H12 H 0.2343 0.1461 0.2557
C11 C 0.3342(6) 0.1689(6) 0.1587(6)
C12 C 0.1240(6) 0.2349(7) 0.1040(5)
H13 H 0.1249 0.2765 0.0666
C13 C 0.1456(6) 0.4553(7) 0.4511(5)
H14 H 0.1350 0.3951 0.4576
C14 C 0.1841(6) 0.5686(6) 0.3798(6)
H15 H 0.1987 0.5881 0.3379
C15 C 0.1671(5) 0.4814(7) 0.3856(5)
C16 C 0.3282(5) 0.4938(6) 0.2086(4)
H16 H 0.3817 0.4801 0.2130
H17 H 0.3278 0.5515 0.2330
C17 C 0.3835(6) 0.1339(7) 0.2251(6)
H18 H 0.3921 0.1654 0.2701
C18 C 0.3243(6) 0.1181(8) 0.0926(6)
H19 H 0.2919 0.1406 0.0482
C19 C -0.0760(7) 0.3817(9) 0.1691(7)
H20 H -0.1267 0.3782 0.1395
C20 C 0.1343(6) 0.5589(7) 0.0462(6)
H21 H 0.1343 0.5131 0.0119
C21 C -0.0454(7) 0.3098(8) 0.2141(7)
H22 H -0.0748 0.2582 0.2132
C22 C 0.0684(7) 0.6069(7) 0.0413(6)
H23 H 0.0239 0.5926 0.0040
C23 C 0.1802(7) 0.6315(8) 0.4365(7)
H24 H 0.1936 0.6912 0.4318
C24 C 0.1400(7) 0.5172(9) 0.5055(6)
H25 H 0.1247 0.4991 0.5474
C25 C 0.0566(7) 0.1882(8) 0.1024(7)
H26 H 0.0119 0.1975 0.0639
C26 C -0.0363(8) 0.4558(9) 0.1664(7)
H27 H -0.0574 0.5032 0.1345
C27 C 0.0383(7) 0.4600(7) 0.2132(6)
H28 H 0.0665 0.5123 0.2132
C28 C 0.0731(6) 0.3890(7) 0.2606(5)
C29 C 0.4191(6) 0.5637(7) 0.0839(5)
H29 H 0.4309 0.5029 0.0912
C30 C 0.0668(7) 0.6751(7) 0.0898(7)
H30 H 0.0219 0.7080 0.0846
C31 C 0.4724(7) 0.6221(10) 0.0725(6)
H31 H 0.5207 0.6003 0.0729
C32 C 0.4193(6) 0.0519(7) 0.2228(7)
H32 H 0.4528 0.0286 0.2663
C33 C 0.4051(8) 0.0037(8) 0.1548(8)
H33 H 0.4274 -0.0527 0.1546
C34 C 0.1575(8) 0.6060(9) 0.4963(7)
H34 H 0.1535 0.6484 0.5321
C35 C 0.3597(8) 0.0375(8) 0.0898(7)
H35 H 0.3527 0.0068 0.0446
C36 C 0.2013(6) 0.5788(6) 0.1025(5)
C37 C 0.3882(8) 0.7450(8) 0.0576(6)
H36 H 0.3767 0.8055 0.0478
C38 C 0.3341(6) 0.6856(7) 0.0700(5)
H37 H 0.2856 0.7078 0.0683
C39 C 0.4579(7) 0.7117(10) 0.0604(7)
H38 H 0.4965 0.7498 0.0541
Ag1 Ag 0.26425(5) 0.36775(5) 0.03972(4)
Ag2 Ag 0.21370(5) 0.25644(5) 0.38015(4)
P1 P 0.28197(15) 0.51365(16) 0.10542(13)
P2 P 0.16915(16) 0.39243(17) 0.31684(14)
P3 P 0.27558(15) 0.26945(17) 0.15221(14)
Cl1 Cl 0.13698(15) 0.35536(17) -0.06977(13)
Cl2 Cl 0.33943(15) 0.31113(16) -0.05590(14)
C46 C 0.3480(6) 0.5942(7) 0.0848(5)
C47 C 0.0288(7) 0.3138(7) 0.2606(6)
H53 H 0.0489 0.2656 0.2919
Cl1A Cl 0.13698(15) 0.14464(17) 0.43023(13)
Cl2A Cl 0.33943(15) 0.18887(16) 0.44410(14)
Ag2A Ag 0.21370(5) 0.24356(5) -0.11985(4)
N1 N 0.5283(5) 0.2474(6) 0.1632(5)
O2 O 0.4719(5) 0.3746(6) 0.1766(4)
C42 C 0.5688(7) 0.2421(8) 0.2435(6)
H43 H 0.6229 0.2515 0.2503
H44 H 0.5607 0.1838 0.2624
H45 H 0.5493 0.2875 0.2703
C43 C 0.5366(7) 0.1717(7) 0.1147(6)
H46 H 0.4980 0.1761 0.0674
H47 H 0.5305 0.1161 0.1388
H48 H 0.5868 0.1736 0.1063
C45 C 0.4820(7) 0.3105(8) 0.1350(7)
H52 H 0.4555 0.3097 0.0842
N2 N 0.7196(5) 0.3943(6) 0.1819(5)
O1 O 0.7332(5) 0.2456(6) 0.1829(4)
C40 C 0.7126(7) 0.3164(8) 0.1490(7)
H39 H 0.6909 0.3140 0.0972
C41 C 0.7501(7) 0.4068(8) 0.2639(6)
H40 H 0.7369 0.3556 0.2895
H41 H 0.7280 0.4600 0.2790
H42 H 0.8050 0.4130 0.2767
C44 C 0.6935(7) 0.4729(8) 0.1330(7)
H49 H 0.7367 0.5111 0.1342
H50 H 0.6561 0.5058 0.1507
H51 H 0.6707 0.4531 0.0824
loop_
_geom_bond_atom_site_label_1
_geom_bond_atom_site_label_2
_geom_bond_site_symmetry_1
_geom_bond_site_symmetry_2
C1 C10 1_555 1_555
C2 H1 1_555 1_555
C3 H2 1_555 1_555
H3 C3 1_555 1_555
C4 H4 1_555 1_555
C5 H5 1_555 1_555
H6 C5 1_555 1_555
C6 C4 1_555 1_555
H7 C6 1_555 1_555
C7 H8 1_555 1_555
H9 C7 1_555 1_555
H10 C7 1_555 1_555
C8 C3 1_555 1_555
C9 C2 1_555 1_555
H11 C9 1_555 1_555
C10 C6 1_555 1_555
H12 C10 1_555 1_555
C11 C17 1_555 1_555
C12 C1 1_555 1_555
H13 C12 1_555 1_555
C13 H14 1_555 1_555
C14 H15 1_555 1_555
C15 C13 1_555 1_555
C16 C8 1_555 1_555
H16 C16 1_555 1_555
H17 C16 1_555 1_555
C17 H18 1_555 1_555
C18 C11 1_555 1_555
H19 C18 1_555 1_555
C19 H20 1_555 1_555
C20 H21 1_555 1_555
C21 C19 1_555 1_555
H22 C21 1_555 1_555
C22 C20 1_555 1_555
H23 C22 1_555 1_555
C23 C14 1_555 1_555
H24 C23 1_555 1_555
C24 C13 1_555 1_555
H25 C24 1_555 1_555
C25 C4 1_555 1_555
H26 C25 1_555 1_555
C26 C19 1_555 1_555
H27 C26 1_555 1_555
C27 C26 1_555 1_555
H28 C27 1_555 1_555
C28 C27 1_555 1_555
C29 H29 1_555 1_555
C30 C9 1_555 1_555
H30 C30 1_555 1_555
C31 C29 1_555 1_555
H31 C31 1_555 1_555
C32 C17 1_555 1_555
H32 C32 1_555 1_555
C33 C32 1_555 1_555
H33 C33 1_555 1_555
C34 C23 1_555 1_555
H34 C34 1_555 1_555
C35 C18 1_555 1_555
H35 C35 1_555 1_555
C36 C2 1_555 1_555
C37 H36 1_555 1_555
C38 C37 1_555 1_555
H37 C38 1_555 1_555
C39 C31 1_555 1_555
H38 C39 1_555 1_555
N1 C42 1_555 1_555
N2 C40 1_555 1_555
O1 C40 1_555 1_555
O2 C45 1_555 1_555
C40 H39 1_555 1_555
C41 N2 1_555 1_555
H40 C41 1_555 1_555
H41 C41 1_555 1_555
H42 C41 1_555 1_555
C42 H43 1_555 1_555
H44 C42 1_555 1_555
H45 C42 1_555 1_555
C43 N1 1_555 1_555
H46 C43 1_555 1_555
H47 C43 1_555 1_555
H48 C43 1_555 1_555
C44 N2 1_555 1_555
H49 C44 1_555 1_555
H50 C44 1_555 1_555
H51 C44 1_555 1_555
C45 N1 1_555 1_555
H52 C45 1_555 1_555
Ag1 P1 1_555 1_555
Ag2 P2 1_555 1_555
P1 C16 1_555 1_555
P2 C5 1_555 1_555
P3 C1 1_555 1_555
Cl1 Ag1 1_555 1_555
Cl2 Ag1 1_555 1_555
C46 C29 1_555 1_555
C47 C21 1_555 1_555
H53 C47 1_555 1_555
Cl1A Ag2 1_555 1_555
Cl2A Ag2 1_555 1_555
Ag2A Cl1 1_555 1_555
C3 P3 1_555 1_555
C5 C8 1_555 1_555
C7 C8 1_555 1_555
C11 P3 1_555 1_555
C12 C25 1_555 1_555
C14 C15 1_555 1_555
C15 P2 1_555 1_555
C20 C36 1_555 1_555
C22 C30 1_555 1_555
C24 C34 1_555 1_555
C28 P2 1_555 1_555
C28 C47 1_555 1_555
C33 C35 1_555 1_555
C36 P1 1_555 1_555
C37 C39 1_555 1_555
C38 C46 1_555 1_555
Ag1 P3 1_555 1_555
P1 C46 1_555 1_555
Cl2 Ag2A 1_555 1_555

#END
