
#######################################################################
#
#                 Cambridge Crystallographic Data Centre
#                                CCDC 
#
#######################################################################
#
# If this CIF has been generated from an entry in the Cambridge 
# Structural Database, then it will include bibliographic, chemical, 
# crystal, experimental, refinement or atomic coordinate data resulting 
# from the CCDC's data processing and validation procedures.
#
#######################################################################

data_ODUSOX
_symmetry_cell_setting           triclinic
_symmetry_space_group_name_H-M   'P -1'
_symmetry_Int_Tables_number      2
_space_group_name_Hall           '-P 1'
loop_
_symmetry_equiv_pos_site_id
_symmetry_equiv_pos_as_xyz
1 x,y,z
2 -x,-y,-z
_cell_length_a                   7.9545(18)
_cell_length_b                   8.843(2)
_cell_length_c                   9.858(2)
_cell_angle_alpha                70.637(3)
_cell_angle_beta                 85.704(4)
_cell_angle_gamma                65.432(3)
_cell_volume                     593.376
loop_
_atom_site_label
_atom_site_type_symbol
_atom_site_fract_x
_atom_site_fract_y
_atom_site_fract_z
Fe1 Fe 0.5000 0.5000 0.0000
S1 S 0.46487(12) 0.94361(10) 0.20407(8)
N1 N 0.4704(3) 0.6846(3) 0.0999(2)
N2 N 0.2195(3) 0.5147(3) 0.0752(2)
N3 N 0.0579(3) 0.6698(3) 0.0461(2)
N4 N 0.0249(3) 0.4695(3) 0.2365(2)
N5 N 0.0878(3) 0.2254(3) 0.4407(2)
N6 N 0.1865(3) -0.0270(3) 0.6398(2)
N7 N 0.4316(3) -0.2748(3) 0.6658(2)
N8 N 0.3572(3) -0.2805(3) 0.7984(2)
C1 C 0.4647(3) 0.7941(3) 0.1418(3)
C2 C 0.1946(4) 0.3991(3) 0.1871(3)
H1 H 0.2813 0.2835 0.2280
C3 C -0.0541(4) 0.6389(4) 0.1428(3)
H2 H -0.1725 0.7209 0.1480
C4 C -0.0329(3) 0.3893(3) 0.3721(3)
C5 C -0.1921(4) 0.4803(3) 0.4283(3)
H3 H -0.2728 0.5948 0.3762
C6 C -0.2271(4) 0.3943(4) 0.5655(3)
H4 H -0.3333 0.4509 0.6071
C7 C -0.1044(4) 0.2248(3) 0.6402(3)
H5 H -0.1248 0.1650 0.7326
C8 C 0.0503(3) 0.1475(3) 0.5721(3)
C9 C 0.3281(4) -0.1229(3) 0.5751(3)
H6 H 0.3480 -0.0842 0.4779
C10 C 0.2131(4) -0.1332(3) 0.7795(3)
H7 H 0.1378 -0.1039 0.8520
N2A N 0.7805(3) -0.5147(3) 0.9248(2)
N3A N 0.9421(3) -0.6698(3) 0.9539(2)
N4A N 0.9751(3) -0.4695(3) 0.7635(2)
N5A N 0.9122(3) -0.2254(3) 0.5593(2)
N6A N 0.8135(3) 0.0270(3) 0.3602(2)
N7A N 0.5684(3) 0.2748(3) 0.3342(2)
N8A N 0.6428(3) 0.2805(3) 0.2016(2)
C2A C 0.8054(4) -0.3991(3) 0.8129(3)
H1A H 0.7187 -0.2835 0.7720
C3A C 1.0541(4) -0.6389(4) 0.8572(3)
H2A H 1.1725 -0.7209 0.8520
C4A C 1.0329(3) -0.3893(3) 0.6279(3)
C5A C 1.1921(4) -0.4803(3) 0.5717(3)
H3A H 1.2728 -0.5948 0.6238
C6A C 1.2271(4) -0.3943(4) 0.4345(3)
H4A H 1.3333 -0.4509 0.3929
C7A C 1.1044(4) -0.2248(3) 0.3598(3)
H5A H 1.1248 -0.1650 0.2674
C8A C 0.9497(3) -0.1475(3) 0.4279(3)
C9A C 0.6719(4) 0.1229(3) 0.4249(3)
H6A H 0.6520 0.0842 0.5221
C10A C 0.7869(4) 0.1332(3) 0.2205(3)
H7A H 0.8622 0.1039 0.1480
S1A S 0.53513(12) 0.05639(10) -0.20407(8)
N1A N 0.5296(3) 0.3154(3) -0.0999(2)
C1A C 0.5353(3) 0.2059(3) -0.1418(3)
Fe1_2 Fe 0.5000 -0.5000 1.0000
N2A_2 N 0.7805(3) 0.4853(3) -0.0752(2)
N8_2 N 0.3572(3) 0.7195(3) -0.2016(2)
loop_
_geom_bond_atom_site_label_1
_geom_bond_atom_site_label_2
_geom_bond_site_symmetry_1
_geom_bond_site_symmetry_2
Fe1 N1 1_555 1_555
S1 C1 1_555 1_555
N1 C1 1_555 1_555
N2 Fe1 1_555 1_555
N3 N2 1_555 1_555
N4 C2 1_555 1_555
N5 C4 1_555 1_555
N6 C8 1_555 1_555
N7 N8 1_555 1_555
N8 C10 1_555 1_555
C2 N2 1_555 1_555
H1 C2 1_555 1_555
C3 N3 1_555 1_555
H2 C3 1_555 1_555
C4 N4 1_555 1_555
C5 C4 1_555 1_555
H3 C5 1_555 1_555
C6 C5 1_555 1_555
H4 C6 1_555 1_555
C7 C6 1_555 1_555
H5 C7 1_555 1_555
C8 N5 1_555 1_555
C9 N6 1_555 1_555
H6 C9 1_555 1_555
C10 N6 1_555 1_555
H7 C10 1_555 1_555
N2A N3A 1_555 1_555
N3A C3A 1_555 1_555
N4A C2A 1_555 1_555
N5A C4A 1_555 1_555
N6A C8A 1_555 1_555
N7A N8A 1_555 1_555
N8A Fe1 1_555 1_555
C2A N2A 1_555 1_555
H1A C2A 1_555 1_555
C3A N4A 1_555 1_555
H2A C3A 1_555 1_555
C4A N4A 1_555 1_555
C5A C4A 1_555 1_555
H3A C5A 1_555 1_555
C6A C5A 1_555 1_555
H4A C6A 1_555 1_555
C7A C6A 1_555 1_555
H5A C7A 1_555 1_555
C8A N5A 1_555 1_555
C9A N6A 1_555 1_555
H6A C9A 1_555 1_555
C10A N6A 1_555 1_555
H7A C10A 1_555 1_555
S1A C1A 1_555 1_555
N1A Fe1 1_555 1_555
C1A N1A 1_555 1_555
Fe1_2 N8 1_555 1_555
N2A_2 Fe1 1_555 1_555
N8_2 Fe1 1_555 1_555
N4 C3 1_555 1_555
N7 C9 1_555 1_555
C7 C8 1_555 1_555
N2A Fe1_2 1_555 1_555
N7A C9A 1_555 1_555
N8A C10A 1_555 1_555
C7A C8A 1_555 1_555

#END
