
#######################################################################
#
#                 Cambridge Crystallographic Data Centre
#                                CCDC 
#
#######################################################################
#
# If this CIF has been generated from an entry in the Cambridge 
# Structural Database, then it will include bibliographic, chemical, 
# crystal, experimental, refinement or atomic coordinate data resulting 
# from the CCDC's data processing and validation procedures.
#
#######################################################################

data_ODUVIU
_symmetry_cell_setting           tetragonal
_symmetry_space_group_name_H-M   'P 4/n n c'
_symmetry_Int_Tables_number      126
_space_group_name_Hall           '-P 4a 2bc'
loop_
_symmetry_equiv_pos_site_id
_symmetry_equiv_pos_as_xyz
1 x,y,z
2 1/2-x,1/2-y,z
3 1/2-y,x,z
4 y,1/2-x,z
5 1/2-x,y,1/2-z
6 x,1/2-y,1/2-z
7 y,x,1/2-z
8 1/2-y,1/2-x,1/2-z
9 -x,-y,-z
10 1/2+x,1/2+y,-z
11 1/2+y,-x,-z
12 -y,1/2+x,-z
13 1/2+x,-y,1/2+z
14 -x,1/2+y,1/2+z
15 -y,-x,1/2+z
16 1/2+y,1/2+x,1/2+z
_cell_length_a                   11.877(1)
_cell_length_b                   11.877(1)
_cell_length_c                   7.469(1)
_cell_angle_alpha                90
_cell_angle_beta                 90
_cell_angle_gamma                90
_cell_volume                     1053.6
loop_
_atom_site_label
_atom_site_type_symbol
_atom_site_fract_x
_atom_site_fract_y
_atom_site_fract_z
N1 N 0.7500 0.563(1) 0.2500
C1 C 0.7885(1) 0.5064(1) 0.3927(1)
N2 N 0.7749(1) 0.3865(1) 0.3367(1)
N3 N 0.8354(1) 0.5324(1) 0.5578(1)
Zn1 Zn 0.7500 0.2500 0.5000
Ni1 Ni 0.7500 0.7500 0.2500
F1 F 0.7500 0.7500 -0.0364(1)
C1D C 0.7115(1) 0.5064(1) 0.1073(1)
N2D N 0.7251(1) 0.3865(1) 0.1633(1)
N3D N 0.6646(1) 0.5324(1) -0.0578(1)
N1A N 0.7500 -0.063(1) 0.2500
C1A C 0.7115(1) -0.0064(1) 0.3927(1)
N2A N 0.7251(1) 0.1135(1) 0.3367(1)
N3A N 0.6646(1) -0.0324(1) 0.5578(1)
C1E C 0.7885(1) -0.0064(1) 0.1073(1)
N2E N 0.7749(1) 0.1135(1) 0.1633(1)
N3E N 0.8354(1) -0.0324(1) -0.0578(1)
N1B N 0.937(1) 0.7500 0.2500
C1B C 0.9936(1) 0.7885(1) 0.3927(1)
N2B N 1.1135(1) 0.7749(1) 0.3367(1)
N3B N 0.9676(1) 0.8354(1) 0.5578(1)
Zn1B Zn 1.2500 0.7500 0.5000
C1G C 0.9936(1) 0.7115(1) 0.1073(1)
N2G N 1.1135(1) 0.7251(1) 0.1633(1)
N3G N 0.9676(1) 0.6646(1) -0.0578(1)
N1C N 0.563(1) 0.7500 0.2500
C1C C 0.5064(1) 0.7115(1) 0.3927(1)
N2C N 0.3865(1) 0.7251(1) 0.3367(1)
N3C N 0.5324(1) 0.6646(1) 0.5578(1)
C1F C 0.5064(1) 0.7885(1) 0.1073(1)
N2F N 0.3865(1) 0.7749(1) 0.1633(1)
N3F N 0.5324(1) 0.8354(1) -0.0578(1)
F1D F 0.7500 0.7500 0.5364(1)
N1A_2 N 0.7500 0.937(1) 0.2500
N2C_2 N 1.3865(1) 0.7251(1) 0.3367(1)
N2H N 1.2251(1) 0.6135(1) 0.6633(1)
N2I N 1.2749(1) 0.8865(1) 0.6633(1)
N2J N 0.8865(1) 0.2251(1) 0.6633(1)
N2K N 0.6135(1) 0.2749(1) 0.6633(1)
Zn1B_2 Zn 0.2500 0.7500 0.5000
Zn1D Zn 0.7500 0.2500 0.0000
Zn1F Zn 0.2500 0.7500 0.0000
Zn1F_2 Zn 1.2500 0.7500 0.0000
Ni1_2 Ni 0.7500 -0.2500 0.2500
loop_
_geom_bond_atom_site_label_1
_geom_bond_atom_site_label_2
_geom_bond_site_symmetry_1
_geom_bond_site_symmetry_2
N1 C1 1_555 1_555
C1 N2 1_555 1_555
N2 Zn1 1_555 1_555
N3 C1 1_555 1_555
Zn1 N2A 1_555 1_555
Ni1 N1 1_555 1_555
F1 Ni1 1_555 1_555
C1D N1 1_555 1_555
N2D N2 1_555 1_555
N3D C1D 1_555 1_555
N1A C1A 1_555 1_555
C1A N2A 1_555 1_555
N2A N2E 1_555 1_555
N3A C1A 1_555 1_555
C1E N1A 1_555 1_555
N2E C1E 1_555 1_555
N3E C1E 1_555 1_555
N1B Ni1 1_555 1_555
C1B N1B 1_555 1_555
N2B C1B 1_555 1_555
N3B C1B 1_555 1_555
Zn1B N2B 1_555 1_555
C1G N1B 1_555 1_555
N2G N2B 1_555 1_555
N3G C1G 1_555 1_555
N1C Ni1 1_555 1_555
C1C N1C 1_555 1_555
N2C C1C 1_555 1_555
N3C C1C 1_555 1_555
C1F N1C 1_555 1_555
N2F N2C 1_555 1_555
N3F C1F 1_555 1_555
F1D Ni1 1_555 1_555
N1A_2 Ni1 1_555 1_555
N2C_2 Zn1B 1_555 1_555
N2H Zn1B 1_555 1_555
N2I Zn1B 1_555 1_555
N2J Zn1 1_555 1_555
N2K Zn1 1_555 1_555
Zn1B_2 N2C 1_555 1_555
Zn1D N2D 1_555 1_555
Zn1F N2F 1_555 1_555
Zn1F_2 N2G 1_555 1_555
Ni1_2 N1A 1_555 1_555
C1D N2D 1_555 1_555
N2E Zn1D 1_555 1_555
C1G N2G 1_555 1_555
C1F N2F 1_555 1_555

#END
