
#######################################################################
#
#                 Cambridge Crystallographic Data Centre
#                                CCDC 
#
#######################################################################
#
# If this CIF has been generated from an entry in the Cambridge 
# Structural Database, then it will include bibliographic, chemical, 
# crystal, experimental, refinement or atomic coordinate data resulting 
# from the CCDC's data processing and validation procedures.
#
#######################################################################

data_ODUVEQ
_symmetry_cell_setting           orthorhombic
_symmetry_space_group_name_H-M   'P n m a'
_symmetry_Int_Tables_number      62
_space_group_name_Hall           '-P 2ac 2n'
loop_
_symmetry_equiv_pos_site_id
_symmetry_equiv_pos_as_xyz
1 x,y,z
2 1/2+x,1/2-y,1/2-z
3 -x,1/2+y,-z
4 1/2-x,-y,1/2+z
5 -x,-y,-z
6 1/2-x,1/2+y,1/2+z
7 x,1/2-y,z
8 1/2+x,y,1/2-z
_cell_length_a                   7.383(1)
_cell_length_b                   9.870(1)
_cell_length_c                   17.293(1)
_cell_angle_alpha                90
_cell_angle_beta                 90
_cell_angle_gamma                90
_cell_volume                     1260.14
loop_
_atom_site_label
_atom_site_type_symbol
_atom_site_fract_x
_atom_site_fract_y
_atom_site_fract_z
Ni1 Ni -0.1259(2) 0.75000 0.4215(4)
Cl1 Cl 0.1857(8) 0.75000 0.4259(6)
N1 N -0.3063(2) 1.0968(1) 0.3089(1)
N2 N -0.1354(2) 1.0823(1) 0.3015(1)
N3 N -0.1934(2) 0.9073(1) 0.3674(1)
N4 N -0.2115(3) 0.7500 0.5317(1)
N5 N -0.1710(3) 0.7500 0.6556(1)
N6 N -0.3518(3) 0.7500 0.6382(1)
C1 C -0.3449(3) 0.9935(2) 0.3517(1)
C2 C -0.0596(3) 0.9815(2) 0.3302(1)
C3 C -0.3915(3) 0.75000 0.5585(1)
C4 C -0.0740(3) 0.75000 0.5817(1)
Zn1 Zn -0.4760(7) 1.25000 0.2607(2)
N1F N -0.3063(2) 0.4032(1) 0.3089(1)
N2F N -0.1354(2) 0.4177(1) 0.3015(1)
N3F N -0.1934(2) 0.5927(1) 0.3674(1)
C1F C -0.3449(3) 0.5065(2) 0.3517(1)
C2F C -0.0596(3) 0.5185(2) 0.3302(1)
N1F_2 N -0.3063(2) 1.4032(1) 0.3089(1)
N2A N -0.6354(2) 1.4177(1) 0.1985(1)
N2G N -0.6354(2) 1.0823(1) 0.1985(1)
N5C N -0.3290(3) 1.2500 0.1556(1)
N6B N -0.6482(3) 1.2500 0.3618(1)
Zn1A Zn 0.0240(7) 0.25000 0.2393(2)
Zn1A_2 Zn 0.0240(7) 1.25000 0.2393(2)
Zn1B Zn -0.5240(7) 0.75000 0.7393(2)
Zn1C Zn -0.0240(7) 0.75000 0.7607(2)
Zn1_2 Zn -0.4760(7) 0.25000 0.2607(2)
loop_
_geom_bond_atom_site_label_1
_geom_bond_atom_site_label_2
_geom_bond_site_symmetry_1
_geom_bond_site_symmetry_2
Ni1 Cl1 1_555 1_555
N1 N2 1_555 1_555
N2 C2 1_555 1_555
N3 Ni1 1_555 1_555
N4 Ni1 1_555 1_555
N5 N6 1_555 1_555
N6 C3 1_555 1_555
C1 N1 1_555 1_555
C2 N3 1_555 1_555
C3 N4 1_555 1_555
C4 N4 1_555 1_555
Zn1 N1 1_555 1_555
N1F N2F 1_555 1_555
N2F C2F 1_555 1_555
N3F Ni1 1_555 1_555
C1F N1F 1_555 1_555
C2F N3F 1_555 1_555
N1F_2 Zn1 1_555 1_555
N2A Zn1 1_555 1_555
N2G Zn1 1_555 1_555
N5C Zn1 1_555 1_555
N6B Zn1 1_555 1_555
Zn1A N2F 1_555 1_555
Zn1A_2 N2 1_555 1_555
Zn1B N6 1_555 1_555
Zn1C N5 1_555 1_555
Zn1_2 N1F 1_555 1_555
N3 C1 1_555 1_555
N5 C4 1_555 1_555
N3F C1F 1_555 1_555

#END
