
#######################################################################
#
#                 Cambridge Crystallographic Data Centre
#                                CCDC 
#
#######################################################################
#
# If this CIF has been generated from an entry in the Cambridge 
# Structural Database, then it will include bibliographic, chemical, 
# crystal, experimental, refinement or atomic coordinate data resulting 
# from the CCDC's data processing and validation procedures.
#
#######################################################################

data_OFACEF
_symmetry_cell_setting           monoclinic
_symmetry_space_group_name_H-M   'P 21/n'
_symmetry_Int_Tables_number      14
_space_group_name_Hall           '-P 2yn'
loop_
_symmetry_equiv_pos_site_id
_symmetry_equiv_pos_as_xyz
1 x,y,z
2 1/2-x,1/2+y,1/2-z
3 -x,-y,-z
4 1/2+x,1/2-y,1/2+z
_cell_length_a                   7.6592(10)
_cell_length_b                   14.6130(17)
_cell_length_c                   20.536(2)
_cell_angle_alpha                90
_cell_angle_beta                 93.1880(10)
_cell_angle_gamma                90
_cell_volume                     2294.91
loop_
_atom_site_label
_atom_site_type_symbol
_atom_site_fract_x
_atom_site_fract_y
_atom_site_fract_z
Cu1 Cu 0.20879(6) 0.59863(3) 0.24139(2)
I1 I 0.00585(4) 0.48840(2) 0.176317(15)
N1 N 0.8595(3) 0.41306(17) 0.38567(13)
N2 N 1.1418(4) 0.19213(18) 0.31025(14)
N3 N 0.3989(4) 0.52581(17) 0.29650(14)
N4 N -0.1644(4) 0.84447(17) 0.44249(14)
N5 N 0.0799(4) 0.69288(18) 0.29838(14)
N6 N -0.6038(4) 0.7453(2) 0.53603(18)
C1 C 0.9324(4) 0.4571(2) 0.44379(16)
C2 C 0.9198(4) 0.4153(2) 0.50341(17)
H1 H 0.8664 0.3583 0.5058
C3 C 0.9863(4) 0.4578(2) 0.55992(17)
H2 H 0.9767 0.4296 0.6002
C4 C 1.2210(4) 0.2669(2) 0.33563(19)
H3 H 1.3423 0.2696 0.3362
C5 C 1.1337(5) 0.3397(2) 0.36087(19)
H4 H 1.1955 0.3899 0.3778
C6 C 0.9529(4) 0.3376(2) 0.36090(16)
C7 C 0.8696(4) 0.2595(2) 0.33707(17)
H5 H 0.7487 0.2540 0.3375
C8 C 0.9688(4) 0.1898(2) 0.31256(16)
H6 H 0.9107 0.1379 0.2966
C9 C 0.4952(5) 0.4637(2) 0.26637(18)
H7 H 0.4574 0.4462 0.2244
C10 C 0.6443(4) 0.4245(2) 0.29269(17)
H8 H 0.7060 0.3830 0.2684
C11 C 0.7042(4) 0.4465(2) 0.35608(17)
C12 C 0.6018(4) 0.5092(2) 0.38894(17)
H9 H 0.6323 0.5256 0.4318
C13 C 0.4559(4) 0.5459(2) 0.35700(18)
H10 H 0.3919 0.5884 0.3796
C14 C -0.0809(4) 0.9239(2) 0.47158(17)
C15 C -0.0442(5) 0.9991(2) 0.43347(18)
H11 H -0.0733 0.9987 0.3889
C16 C 0.0362(5) 1.0748(2) 0.46254(18)
H12 H 0.0604 1.1256 0.4372
C17 C -0.0918(5) 0.6892(2) 0.30503(17)
H13 H -0.1573 0.6498 0.2778
C18 C -0.1794(4) 0.7402(2) 0.34961(17)
H14 H -0.3004 0.7363 0.3508
C19 C -0.0842(4) 0.7974(2) 0.39285(16)
C20 C 0.0945(4) 0.8051(2) 0.38366(18)
H15 H 0.1635 0.8450 0.4092
C21 C 0.1674(4) 0.7531(2) 0.33646(18)
H16 H 0.2862 0.7605 0.3307
C22 C -0.4870(5) 0.6904(3) 0.5107(2)
H17 H -0.5059 0.6277 0.5140
C23 C -0.3421(5) 0.7177(2) 0.48038(18)
H18 H -0.2640 0.6748 0.4654
C24 C -0.3133(4) 0.8101(2) 0.47222(17)
C25 C -0.4321(5) 0.8692(3) 0.4980(2)
H19 H -0.4181 0.9321 0.4944
C26 C -0.5710(5) 0.8338(3) 0.5292(2)
H20 H -0.6479 0.8750 0.5469
N1B N 1.1405(3) 0.58694(17) 0.61433(13)
N3B N 1.6011(4) 0.47419(17) 0.70350(14)
C1B C 1.0676(4) 0.5429(2) 0.55621(16)
C2B C 1.0802(4) 0.5847(2) 0.49659(17)
H1B H 1.1336 0.6417 0.4942
C3B C 1.0137(4) 0.5422(2) 0.44008(17)
H2B H 1.0233 0.5704 0.3998
C9B C 1.5048(5) 0.5363(2) 0.73363(18)
H7B H 1.5426 0.5538 0.7756
C10B C 1.3557(4) 0.5755(2) 0.70731(17)
H8B H 1.2940 0.6170 0.7316
C11B C 1.2958(4) 0.5535(2) 0.64392(17)
C12B C 1.3982(4) 0.4908(2) 0.61106(17)
H9B H 1.3677 0.4744 0.5682
C13B C 1.5441(4) 0.4541(2) 0.64300(18)
H10B H 1.6081 0.4116 0.6204
N2B N 0.8582(4) 0.80787(18) 0.68975(14)
C4B C 0.7790(4) 0.7331(2) 0.66437(19)
H3B H 0.6577 0.7304 0.6638
C5B C 0.8663(5) 0.6603(2) 0.63913(19)
H4B H 0.8045 0.6101 0.6222
C6B C 1.0471(4) 0.6624(2) 0.63910(16)
C7B C 1.1304(4) 0.7405(2) 0.66293(17)
H5B H 1.2513 0.7460 0.6625
C8B C 1.0312(4) 0.8102(2) 0.68744(16)
H6B H 1.0893 0.8621 0.7034
N4B N 0.1644(4) 1.15553(17) 0.55751(14)
N5B N -0.0799(4) 1.30712(18) 0.70162(14)
N6B N 0.6038(4) 1.2547(2) 0.46397(18)
C14B C 0.0809(4) 1.0761(2) 0.52842(17)
C15B C 0.0442(5) 1.0009(2) 0.56653(18)
H11B H 0.0733 1.0013 0.6111
C16B C -0.0362(5) 0.9252(2) 0.53746(18)
H12B H -0.0604 0.8744 0.5628
C17B C 0.0918(5) 1.3108(2) 0.69497(17)
H13B H 0.1573 1.3502 0.7222
C18B C 0.1794(4) 1.2598(2) 0.65039(17)
H14B H 0.3004 1.2637 0.6492
C19B C 0.0842(4) 1.2026(2) 0.60715(16)
C20B C -0.0945(4) 1.1949(2) 0.61634(18)
H15B H -0.1635 1.1550 0.5908
C21B C -0.1674(4) 1.2469(2) 0.66354(18)
H16B H -0.2862 1.2395 0.6693
C22B C 0.4870(5) 1.3096(3) 0.4893(2)
H17B H 0.5059 1.3723 0.4860
C23B C 0.3421(5) 1.2823(2) 0.51962(18)
H18B H 0.2640 1.3252 0.5346
C24B C 0.3133(4) 1.1899(2) 0.52778(17)
C25B C 0.4321(5) 1.1308(3) 0.5020(2)
H19B H 0.4181 1.0679 0.5056
C26B C 0.5710(5) 1.1662(3) 0.4708(2)
H20B H 0.6479 1.1250 0.4531
Cu1B Cu -0.20879(6) 1.40137(3) 0.75861(2)
I1B I -0.00585(4) 1.51160(2) 0.823683(15)
Cu1A Cu 1.29121(6) 0.09863(3) 0.25861(2)
Cu1B_2 Cu 1.79121(6) 0.40137(3) 0.75861(2)
Cu1C Cu 0.70879(6) 0.90137(3) 0.74139(2)
N2A N 0.3582(4) 0.69213(18) 0.18975(14)
N2C N -0.3582(4) 1.30787(18) 0.81025(14)
N3B_2 N -0.3989(4) 1.47419(17) 0.70350(14)
loop_
_geom_bond_atom_site_label_1
_geom_bond_atom_site_label_2
_geom_bond_site_symmetry_1
_geom_bond_site_symmetry_2
Cu1 I1 1_555 1_555
N1 C1 1_555 1_555
N2 C4 1_555 1_555
N3 Cu1 1_555 1_555
N4 C14 1_555 1_555
N5 Cu1 1_555 1_555
N6 C22 1_555 1_555
C1 C2 1_555 1_555
C2 H1 1_555 1_555
C3 C2 1_555 1_555
H2 C3 1_555 1_555
C4 H3 1_555 1_555
C5 C4 1_555 1_555
H4 C5 1_555 1_555
C6 N1 1_555 1_555
C7 C6 1_555 1_555
H5 C7 1_555 1_555
C8 N2 1_555 1_555
H6 C8 1_555 1_555
C9 N3 1_555 1_555
H7 C9 1_555 1_555
C10 C9 1_555 1_555
H8 C10 1_555 1_555
C11 N1 1_555 1_555
C12 C11 1_555 1_555
H9 C12 1_555 1_555
C13 N3 1_555 1_555
H10 C13 1_555 1_555
C14 C15 1_555 1_555
C15 H11 1_555 1_555
C16 C15 1_555 1_555
H12 C16 1_555 1_555
C17 N5 1_555 1_555
H13 C17 1_555 1_555
C18 C17 1_555 1_555
H14 C18 1_555 1_555
C19 N4 1_555 1_555
C20 C19 1_555 1_555
H15 C20 1_555 1_555
C21 N5 1_555 1_555
H16 C21 1_555 1_555
C22 H17 1_555 1_555
C23 C22 1_555 1_555
H18 C23 1_555 1_555
C24 N4 1_555 1_555
C25 C24 1_555 1_555
H19 C25 1_555 1_555
C26 N6 1_555 1_555
H20 C26 1_555 1_555
N1B C1B 1_555 1_555
N3B C9B 1_555 1_555
C1B C3 1_555 1_555
C2B C1B 1_555 1_555
H1B C2B 1_555 1_555
C3B C1 1_555 1_555
H2B C3B 1_555 1_555
C9B H7B 1_555 1_555
C10B C9B 1_555 1_555
H8B C10B 1_555 1_555
C11B N1B 1_555 1_555
C12B C11B 1_555 1_555
H9B C12B 1_555 1_555
C13B N3B 1_555 1_555
H10B C13B 1_555 1_555
N2B C4B 1_555 1_555
C4B H3B 1_555 1_555
C5B C4B 1_555 1_555
H4B C5B 1_555 1_555
C6B N1B 1_555 1_555
C7B C6B 1_555 1_555
H5B C7B 1_555 1_555
C8B N2B 1_555 1_555
H6B C8B 1_555 1_555
N4B C14B 1_555 1_555
N5B C17B 1_555 1_555
N6B C22B 1_555 1_555
C14B C16 1_555 1_555
C15B C14B 1_555 1_555
H11B C15B 1_555 1_555
C16B C14 1_555 1_555
H12B C16B 1_555 1_555
C17B H13B 1_555 1_555
C18B C17B 1_555 1_555
H14B C18B 1_555 1_555
C19B N4B 1_555 1_555
C20B C19B 1_555 1_555
H15B C20B 1_555 1_555
C21B N5B 1_555 1_555
H16B C21B 1_555 1_555
C22B H17B 1_555 1_555
C23B C22B 1_555 1_555
H18B C23B 1_555 1_555
C24B N4B 1_555 1_555
C25B C24B 1_555 1_555
H19B C25B 1_555 1_555
C26B N6B 1_555 1_555
H20B C26B 1_555 1_555
Cu1B N5B 1_555 1_555
I1B Cu1B 1_555 1_555
Cu1A N2 1_555 1_555
Cu1B_2 N3B 1_555 1_555
Cu1C N2B 1_555 1_555
N2A Cu1 1_555 1_555
N2C Cu1B 1_555 1_555
N3B_2 Cu1B 1_555 1_555
C5 C6 1_555 1_555
C7 C8 1_555 1_555
C10 C11 1_555 1_555
C12 C13 1_555 1_555
C18 C19 1_555 1_555
C20 C21 1_555 1_555
C23 C24 1_555 1_555
C25 C26 1_555 1_555
C2B C3B 1_555 1_555
C10B C11B 1_555 1_555
C12B C13B 1_555 1_555
C5B C6B 1_555 1_555
C7B C8B 1_555 1_555
C15B C16B 1_555 1_555
C18B C19B 1_555 1_555
C20B C21B 1_555 1_555
C23B C24B 1_555 1_555
C25B C26B 1_555 1_555

#END
