
#######################################################################
#
#                 Cambridge Crystallographic Data Centre
#                                CCDC 
#
#######################################################################
#
# If this CIF has been generated from an entry in the Cambridge 
# Structural Database, then it will include bibliographic, chemical, 
# crystal, experimental, refinement or atomic coordinate data resulting 
# from the CCDC's data processing and validation procedures.
#
#######################################################################

data_OFADAC
_symmetry_cell_setting           triclinic
_symmetry_space_group_name_H-M   'P -1'
_symmetry_Int_Tables_number      2
_space_group_name_Hall           '-P 1'
loop_
_symmetry_equiv_pos_site_id
_symmetry_equiv_pos_as_xyz
1 x,y,z
2 -x,-y,-z
_cell_length_a                   7.01610(10)
_cell_length_b                   7.86470(10)
_cell_length_c                   15.6706(2)
_cell_angle_alpha                79.5240(10)
_cell_angle_beta                 78.1340(10)
_cell_angle_gamma                67.6390(10)
_cell_volume                     777.444
loop_
_atom_site_label
_atom_site_type_symbol
_atom_site_fract_x
_atom_site_fract_y
_atom_site_fract_z
C1 C -0.3362(2) 0.4282(2) 0.31782(10)
H1 H -0.4704 0.4239 0.3194
C2 C -0.1953(2) 0.3948(2) 0.24139(9)
H2 H -0.2330 0.3695 0.1915
C3 C 0.0033(2) 0.39880(19) 0.23858(9)
C4 C 0.0474(2) 0.4425(2) 0.31280(10)
H3 H 0.1794 0.4501 0.3128
C5 C -0.1032(2) 0.4746(2) 0.38647(10)
H4 H -0.0713 0.5037 0.4368
C6 C 0.3592(2) 0.24428(19) 0.16524(9)
C7 C 0.4213(2) 0.1240(2) 0.24033(10)
H5 H 0.3227 0.1210 0.2917
C8 C 0.6278(2) 0.0098(2) 0.23878(11)
H6 H 0.6667 -0.0700 0.2905
C9 C 0.7154(2) 0.1190(2) 0.09751(10)
H7 H 0.8173 0.1164 0.0469
C10 C 0.5136(2) 0.2411(2) 0.09226(10)
H8 H 0.4805 0.3215 0.0400
C11 C 0.0771(2) 0.4295(2) 0.07904(9)
C12 C 0.1149(2) 0.3114(2) 0.01637(9)
H9 H 0.1929 0.1831 0.0275
C13 C -0.0378(2) 0.6178(2) 0.06267(9)
H10 H -0.0634 0.6979 0.1057
C14 C -0.2171(2) 0.1731(2) 0.58197(10)
C15 C -0.0233(3) 0.0772(2) 0.62472(11)
H11 H 0.0480 -0.0477 0.6070
H12 H -0.0619 0.0691 0.6887
H13 H 0.0700 0.1478 0.6063
Cu1 Cu -0.5000 0.5000 0.5000
H14 H -0.530(3) 0.172(3) 0.4965(16)
H15 H -0.667(4) 0.163(3) 0.4540(15)
N1 N -0.2922(2) 0.46644(17) 0.39001(8)
N2 N 0.15156(19) 0.36072(17) 0.16184(8)
N3 N 0.7770(2) 0.00392(18) 0.16930(9)
O1 O -0.27442(18) 0.34841(16) 0.56747(7)
O2 O -0.3079(2) 0.0793(2) 0.56401(9)
O3 O -0.6252(3) 0.23910(19) 0.46753(10)
C1A C 0.3362(2) 0.5718(2) -0.31782(10)
H1A H 0.4704 0.5761 -0.3194
C2A C 0.1953(2) 0.6052(2) -0.24139(9)
H2A H 0.2330 0.6305 -0.1915
C3A C -0.0033(2) 0.60120(19) -0.23858(9)
C4A C -0.0474(2) 0.5575(2) -0.31280(10)
H3A H -0.1794 0.5499 -0.3128
C5A C 0.1032(2) 0.5254(2) -0.38647(10)
H4A H 0.0713 0.4963 -0.4368
C6A C -0.3592(2) 0.75572(19) -0.16524(9)
C7A C -0.4213(2) 0.8760(2) -0.24033(10)
H5A H -0.3227 0.8790 -0.2917
C8A C -0.6278(2) 0.9902(2) -0.23878(11)
H6A H -0.6667 1.0700 -0.2905
C9A C -0.7154(2) 0.8810(2) -0.09751(10)
H7A H -0.8173 0.8836 -0.0469
C10A C -0.5136(2) 0.7589(2) -0.09226(10)
H8A H -0.4805 0.6785 -0.0400
C11A C -0.0771(2) 0.5705(2) -0.07904(9)
C12A C -0.1149(2) 0.6886(2) -0.01637(9)
H9A H -0.1929 0.8169 -0.0275
C13A C 0.0378(2) 0.3822(2) -0.06267(9)
H10A H 0.0634 0.3021 -0.1057
N1A N 0.2922(2) 0.53356(17) -0.39001(8)
N2A N -0.15156(19) 0.63928(17) -0.16184(8)
N3A N -0.7770(2) 0.99608(18) -0.16930(9)
C14A C -0.7829(2) 0.8269(2) 0.41803(10)
C15A C -0.9767(3) 0.9228(2) 0.37528(11)
H11A H -1.0480 1.0477 0.3930
H12A H -0.9381 0.9309 0.3113
H13A H -1.0700 0.8522 0.3937
H14A H -0.470(3) 0.828(3) 0.5035(16)
H15A H -0.333(4) 0.837(3) 0.5460(15)
O1A O -0.72558(18) 0.65159(16) 0.43253(7)
O2A O -0.6921(2) 0.9207(2) 0.43599(9)
O3A O -0.3748(3) 0.76090(19) 0.53247(10)
Cu1_2 Cu 0.5000 0.5000 -0.5000
N1A_2 N -0.7078(2) 0.53356(17) 0.60999(8)
C16 C 0.3576(3) 0.7455(2) 0.16083(12)
H16 H 0.4989 0.7396 0.1344
H17 H 0.3355 0.6361 0.1499
H18 H 0.3401 0.7490 0.2242
H19 H 0.0946(18) 0.910(3) 0.1517(11)
O4 O 0.21207(19) 0.90555(18) 0.12362(9)
loop_
_geom_bond_atom_site_label_1
_geom_bond_atom_site_label_2
_geom_bond_site_symmetry_1
_geom_bond_site_symmetry_2
C1 H1 1_555 1_555
C2 C1 1_555 1_555
H2 C2 1_555 1_555
C3 C2 1_555 1_555
C4 C3 1_555 1_555
H3 C4 1_555 1_555
C5 C4 1_555 1_555
H4 C5 1_555 1_555
C6 C7 1_555 1_555
C7 H5 1_555 1_555
C8 C7 1_555 1_555
H6 C8 1_555 1_555
C9 H7 1_555 1_555
C10 C6 1_555 1_555
H8 C10 1_555 1_555
C11 C12 1_555 1_555
C12 H9 1_555 1_555
C13 C11 1_555 1_555
H10 C13 1_555 1_555
C14 C15 1_555 1_555
C15 H11 1_555 1_555
H12 C15 1_555 1_555
H13 C15 1_555 1_555
Cu1 N1 1_555 1_555
H14 O3 1_555 1_555
H15 O3 1_555 1_555
N1 C1 1_555 1_555
N2 C3 1_555 1_555
N3 C8 1_555 1_555
O1 C14 1_555 1_555
O2 C14 1_555 1_555
O3 Cu1 1_555 1_555
C16 H16 1_555 1_555
H17 C16 1_555 1_555
H18 C16 1_555 1_555
H19 O4 1_555 1_555
O4 C16 1_555 1_555
C1A H1A 1_555 1_555
C2A C1A 1_555 1_555
H2A C2A 1_555 1_555
C3A C2A 1_555 1_555
C4A C3A 1_555 1_555
H3A C4A 1_555 1_555
C5A C4A 1_555 1_555
H4A C5A 1_555 1_555
C6A C7A 1_555 1_555
C7A H5A 1_555 1_555
C8A C7A 1_555 1_555
H6A C8A 1_555 1_555
C9A H7A 1_555 1_555
C10A C6A 1_555 1_555
H8A C10A 1_555 1_555
C11A C12A 1_555 1_555
C12A C13 1_555 1_555
H9A C12A 1_555 1_555
C13A C12 1_555 1_555
H10A C13A 1_555 1_555
N1A C1A 1_555 1_555
N2A C3A 1_555 1_555
N3A C8A 1_555 1_555
C14A C15A 1_555 1_555
C15A H11A 1_555 1_555
H12A C15A 1_555 1_555
H13A C15A 1_555 1_555
H14A O3A 1_555 1_555
H15A O3A 1_555 1_555
O1A Cu1 1_555 1_555
O2A C14A 1_555 1_555
O3A Cu1 1_555 1_555
Cu1_2 N1A 1_555 1_555
N1A_2 Cu1 1_555 1_555
C5 N1 1_555 1_555
C6 N2 1_555 1_555
C9 C10 1_555 1_555
C9 N3 1_555 1_555
C11 N2 1_555 1_555
Cu1 O1 1_555 1_555
C5A N1A 1_555 1_555
C6A N2A 1_555 1_555
C9A C10A 1_555 1_555
C9A N3A 1_555 1_555
C11A C13A 1_555 1_555
C11A N2A 1_555 1_555
C14A O1A 1_555 1_555

#END
