
#######################################################################
#
#                 Cambridge Crystallographic Data Centre
#                                CCDC 
#
#######################################################################
#
# If this CIF has been generated from an entry in the Cambridge 
# Structural Database, then it will include bibliographic, chemical, 
# crystal, experimental, refinement or atomic coordinate data resulting 
# from the CCDC's data processing and validation procedures.
#
#######################################################################

data_OFALEO
_symmetry_cell_setting           monoclinic
_symmetry_space_group_name_H-M   'P 21/n'
_symmetry_Int_Tables_number      14
_space_group_name_Hall           '-P 2yn'
loop_
_symmetry_equiv_pos_site_id
_symmetry_equiv_pos_as_xyz
1 x,y,z
2 1/2-x,1/2+y,1/2-z
3 -x,-y,-z
4 1/2+x,1/2-y,1/2+z
_cell_length_a                   11.170(6)
_cell_length_b                   7.238(4)
_cell_length_c                   25.268(3)
_cell_angle_alpha                90
_cell_angle_beta                 93.532(11)
_cell_angle_gamma                90
_cell_volume                     2039
loop_
_atom_site_label
_atom_site_type_symbol
_atom_site_fract_x
_atom_site_fract_y
_atom_site_fract_z
Ag1 Ag 0.58802(5) 0.66087(7) 0.505292(16)
N1 N 0.6856(4) 0.5515(6) 0.57570(15)
C1 C 0.8007(6) 0.5018(9) 0.5738(2)
H1 H 0.8375 0.5155 0.5420
C2 C 0.8664(6) 0.4316(10) 0.6168(2)
H2 H 0.9462 0.3981 0.6142
C3 C 0.8119(6) 0.4115(9) 0.6641(2)
H3 H 0.8543 0.3618 0.6936
C4 C 0.6946(5) 0.4658(7) 0.66717(18)
C5 C 0.6337(5) 0.5333(8) 0.62193(18)
H4 H 0.5537 0.5673 0.6236
C6 C 0.6375(5) 0.4380(8) 0.71884(19)
N2 N 0.5353(4) 0.7316(7) 0.70848(14)
C7 C 0.5445(5) 0.5718(8) 0.73502(18)
C8 C 0.4763(6) 0.5333(10) 0.7777(2)
H5 H 0.4844 0.4213 0.7956
C9 C 0.3962(6) 0.6648(11) 0.7929(2)
H6 H 0.3479 0.6412 0.8209
C10 C 0.3879(5) 0.8315(9) 0.7666(2)
H7 H 0.3360 0.9232 0.7770
C11 C 0.4593(5) 0.8591(8) 0.72412(17)
C12 C 0.4513(5) 1.0332(8) 0.69372(18)
O1 O 0.3867(4) 1.1577(6) 0.70724(14)
C13 C 0.6158(6) 1.1117(8) 0.5508(2)
H8 H 0.6493 1.1280 0.5183
C14 C 0.6836(5) 1.0254(8) 0.5906(2)
H9 H 0.7616 0.9873 0.5855
C15 C 0.6329(5) 0.9966(8) 0.63843(19)
H10 H 0.6765 0.9387 0.6663
C16 C 0.5175(5) 1.0546(7) 0.64431(17)
C17 C 0.4575(5) 1.1446(7) 0.60251(18)
H11 H 0.3802 1.1873 0.6070
N3 N 0.5048(4) 1.1736(6) 0.55591(15)
O2 O 0.6698(4) 0.3118(6) 0.74796(15)
Ag1B Ag 0.41198(5) 0.33913(7) 0.494708(16)
Ag1B_2 Ag 0.41198(5) 1.33913(7) 0.494708(16)
N3B N 0.4952(4) 0.8264(6) 0.44409(15)
C18 C 0.8928(7) 0.1611(14) 0.4374(3)
C19 C 0.7182(8) 0.3958(10) 0.4289(2)
C20 C 0.8102(6) 0.2754(10) 0.4009(2)
F1 F 0.8792(4) 0.3663(8) 0.36928(16)
F2 F 0.7525(4) 0.1515(7) 0.36885(17)
F3 F 0.9712(5) 0.0673(9) 0.4136(2)
F4 F 0.9529(5) 0.2710(10) 0.4707(2)
F5 F 0.8350(5) 0.0520(9) 0.4673(2)
O3 O 0.6268(5) 0.3278(9) 0.43770(19)
O4 O 0.7587(6) 0.5496(11) 0.4395(2)
loop_
_geom_bond_atom_site_label_1
_geom_bond_atom_site_label_2
_geom_bond_site_symmetry_1
_geom_bond_site_symmetry_2
Ag1 N1 1_555 1_555
N1 C1 1_555 1_555
C1 H1 1_555 1_555
C2 C1 1_555 1_555
H2 C2 1_555 1_555
C3 C2 1_555 1_555
H3 C3 1_555 1_555
C4 C3 1_555 1_555
C5 N1 1_555 1_555
H4 C5 1_555 1_555
C6 C4 1_555 1_555
N2 C7 1_555 1_555
C7 C6 1_555 1_555
C8 C7 1_555 1_555
H5 C8 1_555 1_555
C9 C8 1_555 1_555
H6 C9 1_555 1_555
C10 C9 1_555 1_555
H7 C10 1_555 1_555
C11 N2 1_555 1_555
C12 C11 1_555 1_555
O1 C12 1_555 1_555
C13 H8 1_555 1_555
C14 C13 1_555 1_555
H9 C14 1_555 1_555
C15 C14 1_555 1_555
H10 C15 1_555 1_555
C16 C12 1_555 1_555
C17 C16 1_555 1_555
H11 C17 1_555 1_555
N3 C13 1_555 1_555
O2 C6 1_555 1_555
C18 C20 1_555 1_555
C19 C20 1_555 1_555
C20 F1 1_555 1_555
F2 C20 1_555 1_555
F3 C18 1_555 1_555
F4 C18 1_555 1_555
F5 C18 1_555 1_555
O3 C19 1_555 1_555
O4 C19 1_555 1_555
Ag1B Ag1 1_555 1_555
Ag1B_2 N3 1_555 1_555
N3B Ag1 1_555 1_555
C4 C5 1_555 1_555
C10 C11 1_555 1_555
C15 C16 1_555 1_555
C17 N3 1_555 1_555

#END
