
#######################################################################
#
#                 Cambridge Crystallographic Data Centre
#                                CCDC 
#
#######################################################################
#
# If this CIF has been generated from an entry in the Cambridge 
# Structural Database, then it will include bibliographic, chemical, 
# crystal, experimental, refinement or atomic coordinate data resulting 
# from the CCDC's data processing and validation procedures.
#
#######################################################################

data_OFANAM
_symmetry_cell_setting           monoclinic
_symmetry_space_group_name_H-M   'C 2/c'
_symmetry_Int_Tables_number      15
_space_group_name_Hall           '-C 2yn'
loop_
_symmetry_equiv_pos_site_id
_symmetry_equiv_pos_as_xyz
1 x,y,z
2 -x,y,1/2-z
3 1/2+x,1/2+y,z
4 1/2-x,1/2+y,1/2-z
5 -x,-y,-z
6 x,-y,1/2+z
7 1/2-x,1/2-y,-z
8 1/2+x,1/2-y,1/2+z
_cell_length_a                   17.465(18)
_cell_length_b                   9.797(10)
_cell_length_c                   16.253(16)
_cell_angle_alpha                90
_cell_angle_beta                 104.207(12)
_cell_angle_gamma                90
_cell_volume                     2695.91
loop_
_atom_site_label
_atom_site_type_symbol
_atom_site_fract_x
_atom_site_fract_y
_atom_site_fract_z
Co1 Co 0.35340(2) 0.44400(4) 0.23412(2)
O1 O 0.27805(11) 0.4526(2) 0.31514(13)
H1 H 0.2320 0.5058 0.3082
H2 H 0.3041 0.4554 0.3645
C1 C 0.43945(14) 1.0529(3) 0.31676(16)
O2 O 0.42690(11) 0.4119(2) 0.14456(13)
H3 H 0.4647 0.4828 0.1396
H4 H 0.4598 0.3525 0.1628
C2 C 0.41614(14) 0.9214(3) 0.29226(17)
H5 H 0.3720 0.9065 0.2477
C3 C 0.55258(14) 0.9651(3) 0.42235(16)
N1 N 0.75947(12) 1.0310(2) 0.62653(14)
O3 O 0.42074(10) 1.29093(19) 0.29643(13)
O4 O 0.33002(10) 1.1566(2) 0.21911(13)
C4 C 0.45837(14) 0.8122(3) 0.33396(17)
O5 O 0.38614(12) 0.6443(2) 0.24110(14)
C5 C 0.50744(14) 1.0736(3) 0.38169(16)
H6 H 0.5229 1.1623 0.3982
C6 C 0.52648(14) 0.8343(3) 0.39817(16)
H7 H 0.5549 0.7599 0.4253
C7 C 0.43190(15) 0.6687(3) 0.31236(19)
O6 O 0.45556(12) 0.5776(2) 0.36674(16)
C8 C 0.39269(15) 1.1728(3) 0.27391(17)
C9 C 0.66848(16) 0.8815(3) 0.53626(19)
H8 H 0.6530 0.7920 0.5219
C10 C 0.73320(16) 0.9062(3) 0.6020(2)
H9 H 0.7602 0.8318 0.6309
C11 C 0.62573(14) 0.9889(3) 0.49099(16)
C12 C 0.65490(16) 1.1169(3) 0.51526(19)
H10 H 0.6306 1.1929 0.4857
C13 C 0.71965(16) 1.1344(3) 0.58279(19)
H11 H 0.7363 1.2229 0.5985
Co1_2 Co 0.35340(2) 1.44400(4) 0.23412(2)
Co1G Co 0.85340(2) 1.05600(4) 0.73412(2)
N1G N 0.25947(12) 0.4690(2) 0.12653(14)
O3_2 O 0.42074(10) 0.29093(19) 0.29643(13)
O7 O 0.37272(17) 0.4700(3) 0.47524(16)
H12 H 0.3639 0.5559 0.4652
H13 H 0.3738 0.4996 0.5257
loop_
_geom_bond_atom_site_label_1
_geom_bond_atom_site_label_2
_geom_bond_site_symmetry_1
_geom_bond_site_symmetry_2
Co1 O1 1_555 1_555
O1 H1 1_555 1_555
H2 O1 1_555 1_555
C1 C2 1_555 1_555
O2 Co1 1_555 1_555
H3 O2 1_555 1_555
H4 O2 1_555 1_555
C2 H5 1_555 1_555
C3 C5 1_555 1_555
N1 C10 1_555 1_555
O3 C8 1_555 1_555
O4 C8 1_555 1_555
C4 C2 1_555 1_555
O5 Co1 1_555 1_555
C5 C1 1_555 1_555
H6 C5 1_555 1_555
C6 C3 1_555 1_555
H7 C6 1_555 1_555
C7 C4 1_555 1_555
O6 C7 1_555 1_555
C8 C1 1_555 1_555
C9 H8 1_555 1_555
C10 C9 1_555 1_555
H9 C10 1_555 1_555
C11 C3 1_555 1_555
C12 C11 1_555 1_555
H10 C12 1_555 1_555
C13 N1 1_555 1_555
H11 C13 1_555 1_555
O7 H12 1_555 1_555
H13 O7 1_555 1_555
Co1_2 O3 1_555 1_555
Co1G N1 1_555 1_555
N1G Co1 1_555 1_555
O3_2 Co1 1_555 1_555
C4 C6 1_555 1_555
O5 C7 1_555 1_555
C9 C11 1_555 1_555
C12 C13 1_555 1_555

#END
