
#######################################################################
#
#                 Cambridge Crystallographic Data Centre
#                                CCDC 
#
#######################################################################
#
# If this CIF has been generated from an entry in the Cambridge 
# Structural Database, then it will include bibliographic, chemical, 
# crystal, experimental, refinement or atomic coordinate data resulting 
# from the CCDC's data processing and validation procedures.
#
#######################################################################

data_OFAPOC
_symmetry_cell_setting           triclinic
_symmetry_space_group_name_H-M   'P -1'
_symmetry_Int_Tables_number      2
_space_group_name_Hall           '-P 1'
loop_
_symmetry_equiv_pos_site_id
_symmetry_equiv_pos_as_xyz
1 x,y,z
2 -x,-y,-z
_cell_length_a                   9.94(2)
_cell_length_b                   10.51(2)
_cell_length_c                   10.98(2)
_cell_angle_alpha                74.51(3)
_cell_angle_beta                 67.11(3)
_cell_angle_gamma                74.83(3)
_cell_volume                     1002.15
loop_
_atom_site_label
_atom_site_type_symbol
_atom_site_fract_x
_atom_site_fract_y
_atom_site_fract_z
Co1 Co 0.61818(16) 0.14030(15) 0.68745(13)
N1 N -0.2630(9) 0.1475(8) 1.4773(7)
N2 N 0.6507(9) -0.0705(8) 0.7242(8)
N3 N 0.6130(9) -0.2791(9) 0.8149(8)
O1 O 0.4085(7) 0.1542(7) 0.6734(6)
O2 O 0.4212(7) 0.1390(7) 0.8710(6)
O3 O -0.2432(7) 0.1460(7) 0.7781(6)
O4 O -0.1059(10) 0.2915(10) 0.6312(8)
O5 O 0.5684(9) 0.3578(7) 0.6425(8)
H1 H 0.6456 0.3877 0.6137
C1 C 0.3402(11) 0.1542(9) 0.8015(10)
C2 C 0.1807(10) 0.1629(9) 0.8585(9)
C3 C 0.1106(11) 0.1498(9) 0.9951(9)
H2 H 0.1666 0.1350 1.0501
C4 C -0.0422(10) 0.1583(9) 1.0528(9)
C5 C -0.1226(10) 0.1748(9) 0.9683(9)
H3 H -0.2242 0.1754 1.0057
C6 C -0.0547(10) 0.1904(10) 0.8305(9)
C7 C 0.0947(11) 0.1866(9) 0.7803(9)
H4 H 0.1411 0.2010 0.6874
C8 C -0.1415(12) 0.2109(12) 0.7401(10)
C9 C -0.1199(11) 0.1529(10) 1.2024(9)
C10 C -0.2667(14) 0.1594(13) 1.2605(10)
H5 H -0.3230 0.1640 1.2082
C11 C -0.3371(13) 0.1595(14) 1.3979(10)
H6 H -0.4399 0.1683 1.4342
C12 C -0.1201(12) 0.1395(12) 1.4224(10)
H7 H -0.0665 0.1351 1.4769
C13 C -0.0428(13) 0.1373(12) 1.2862(10)
H8 H 0.0603 0.1253 1.2528
C14 C 0.5945(11) -0.1521(10) 0.8313(10)
H9 H 0.5445 -0.1259 0.9144
C15 C 0.7208(14) -0.1542(12) 0.6237(11)
H10 H 0.7761 -0.1262 0.5342
C16 C 0.6935(14) -0.2790(12) 0.6800(10)
H11 H 0.7231 -0.3516 0.6365
C17 C 0.5025(14) -0.3926(11) 1.0404(10)
H12 H 0.5026 -0.3192 1.0724
C18 C 0.5579(15) -0.3908(12) 0.9097(11)
C19 C 0.5555(18) -0.4996(13) 0.8693(11)
H13 H 0.5941 -0.5024 0.7779
N2A N 0.3493(9) -0.9295(8) 1.2758(8)
N3A N 0.3870(9) -0.7209(9) 1.1851(8)
C14A C 0.4055(11) -0.8479(10) 1.1687(10)
H9A H 0.4555 -0.8741 1.0856
C15A C 0.2792(14) -0.8458(12) 1.3763(11)
H10A H 0.2239 -0.8738 1.4658
C16A C 0.3065(14) -0.7210(12) 1.3200(10)
H11A H 0.2769 -0.6484 1.3635
C17A C 0.4975(14) -0.6074(11) 0.9596(10)
H12A H 0.4974 -0.6808 0.9276
C18A C 0.4421(15) -0.6092(12) 1.0903(11)
C19A C 0.4445(18) -0.5004(13) 1.1307(11)
H13A H 0.4059 -0.4976 1.2221
Co1A Co 0.38182(16) -1.14030(15) 1.31255(13)
N1A N 1.2630(9) -1.1475(8) 0.5227(7)
O1A O 0.5915(7) -1.1542(7) 1.3266(6)
O2A O 0.5788(7) -1.1390(7) 1.1290(6)
O3A O 1.2432(7) -1.1460(7) 1.2219(6)
O4A O 1.1059(10) -1.2915(10) 1.3688(8)
O5A O 0.4316(9) -1.3578(7) 1.3575(8)
H1A H 0.3544 -1.3877 1.3863
C1A C 0.6598(11) -1.1542(9) 1.1985(10)
C2A C 0.8193(10) -1.1629(9) 1.1415(9)
C3A C 0.8894(11) -1.1498(9) 1.0049(9)
H2A H 0.8334 -1.1350 0.9499
C4A C 1.0422(10) -1.1583(9) 0.9472(9)
C5A C 1.1226(10) -1.1748(9) 1.0317(9)
H3A H 1.2242 -1.1754 0.9943
C6A C 1.0547(10) -1.1904(10) 1.1695(9)
C7A C 0.9053(11) -1.1866(9) 1.2197(9)
H4A H 0.8589 -1.2010 1.3126
C8A C 1.1415(12) -1.2109(12) 1.2599(10)
C9A C 1.1199(11) -1.1529(10) 0.7976(9)
C10A C 1.2667(14) -1.1594(13) 0.7395(10)
H5A H 1.3230 -1.1640 0.7918
C11A C 1.3371(13) -1.1595(14) 0.6021(10)
H6A H 1.4399 -1.1683 0.5658
C12A C 1.1201(12) -1.1395(12) 0.5776(10)
H7A H 1.0665 -1.1351 0.5231
C13A C 1.0428(13) -1.1373(12) 0.7138(10)
H8A H 0.9397 -1.1253 0.7472
Co1_2 Co -0.38182(16) 0.14030(15) 0.68745(13)
Co1_3 Co -0.38182(16) 0.14030(15) 1.68745(13)
Co1A_2 Co 1.38182(16) -1.14030(15) 0.31255(13)
Co1A_3 Co 1.38182(16) -1.14030(15) 1.31255(13)
N1_2 N 0.7370(9) 0.1475(8) 0.4773(7)
N1A_2 N 0.2630(9) -1.1475(8) 1.5227(7)
O3_2 O 0.7568(7) 0.1460(7) 0.7781(6)
O3A_2 O 0.2432(7) -1.1460(7) 1.2219(6)
O6 O 0.294(2) 0.491(2) 0.607(4)
O7 O 0.070(4) 0.4948(19) 0.574(2)
O8 O 0.988(3) 0.5156(18) 0.899(2)
O9 O 0.205(4) 0.487(2) 0.807(5)
loop_
_geom_bond_atom_site_label_1
_geom_bond_atom_site_label_2
_geom_bond_site_symmetry_1
_geom_bond_site_symmetry_2
Co1 N2 1_555 1_555
N1 C11 1_555 1_555
N2 C14 1_555 1_555
N3 C14 1_555 1_555
O1 Co1 1_555 1_555
O2 Co1 1_555 1_555
O3 C8 1_555 1_555
O4 C8 1_555 1_555
O5 Co1 1_555 1_555
H1 O5 1_555 1_555
C1 O1 1_555 1_555
C2 C1 1_555 1_555
C3 C2 1_555 1_555
H2 C3 1_555 1_555
C4 C3 1_555 1_555
C5 C4 1_555 1_555
H3 C5 1_555 1_555
C6 C5 1_555 1_555
C7 C2 1_555 1_555
H4 C7 1_555 1_555
C8 C6 1_555 1_555
C9 C4 1_555 1_555
C10 C9 1_555 1_555
H5 C10 1_555 1_555
C11 C10 1_555 1_555
H6 C11 1_555 1_555
C12 N1 1_555 1_555
H7 C12 1_555 1_555
C13 C9 1_555 1_555
H8 C13 1_555 1_555
C14 H9 1_555 1_555
C15 N2 1_555 1_555
H10 C15 1_555 1_555
C16 N3 1_555 1_555
H11 C16 1_555 1_555
C17 H12 1_555 1_555
C18 N3 1_555 1_555
C19 C18 1_555 1_555
H13 C19 1_555 1_555
N2A C14A 1_555 1_555
N3A C14A 1_555 1_555
C14A H9A 1_555 1_555
C15A N2A 1_555 1_555
H10A C15A 1_555 1_555
C16A N3A 1_555 1_555
H11A C16A 1_555 1_555
C17A C19 1_555 1_555
H12A C17A 1_555 1_555
C18A N3A 1_555 1_555
C19A C17 1_555 1_555
H13A C19A 1_555 1_555
Co1A N2A 1_555 1_555
N1A C11A 1_555 1_555
O1A Co1A 1_555 1_555
O2A Co1A 1_555 1_555
O3A C8A 1_555 1_555
O4A C8A 1_555 1_555
O5A Co1A 1_555 1_555
H1A O5A 1_555 1_555
C1A O1A 1_555 1_555
C2A C1A 1_555 1_555
C3A C2A 1_555 1_555
H2A C3A 1_555 1_555
C4A C3A 1_555 1_555
C5A C4A 1_555 1_555
H3A C5A 1_555 1_555
C6A C5A 1_555 1_555
C7A C2A 1_555 1_555
H4A C7A 1_555 1_555
C8A C6A 1_555 1_555
C9A C4A 1_555 1_555
C10A C9A 1_555 1_555
H5A C10A 1_555 1_555
C11A C10A 1_555 1_555
H6A C11A 1_555 1_555
C12A N1A 1_555 1_555
H7A C12A 1_555 1_555
C13A C9A 1_555 1_555
H8A C13A 1_555 1_555
Co1_2 O3 1_555 1_555
Co1_3 N1 1_555 1_555
Co1A_2 N1A 1_555 1_555
Co1A_3 O3A 1_555 1_555
N1_2 Co1 1_555 1_555
N1A_2 Co1A 1_555 1_555
O3_2 Co1 1_555 1_555
O3A_2 Co1A 1_555 1_555
O2 C1 1_555 1_555
C6 C7 1_555 1_555
C12 C13 1_555 1_555
C15 C16 1_555 1_555
C17 C18 1_555 1_555
C15A C16A 1_555 1_555
C17A C18A 1_555 1_555
C18A C19A 1_555 1_555
O2A C1A 1_555 1_555
C6A C7A 1_555 1_555
C12A C13A 1_555 1_555

#END
