
#######################################################################
#
#                 Cambridge Crystallographic Data Centre
#                                CCDC 
#
#######################################################################
#
# If this CIF has been generated from an entry in the Cambridge 
# Structural Database, then it will include bibliographic, chemical, 
# crystal, experimental, refinement or atomic coordinate data resulting 
# from the CCDC's data processing and validation procedures.
#
#######################################################################

data_OFARAQ
_symmetry_cell_setting           rhombohedral
_symmetry_space_group_name_H-M   'R -3'
_symmetry_Int_Tables_number      148
_space_group_name_Hall           '-R 3'
loop_
_symmetry_equiv_pos_site_id
_symmetry_equiv_pos_as_xyz
1 x,y,z
2 -y,x-y,z
3 -x+y,-x,z
4 2/3+x,1/3+y,1/3+z
5 2/3-y,1/3+x-y,1/3+z
6 2/3-x+y,1/3-x,1/3+z
7 1/3+x,2/3+y,2/3+z
8 1/3-y,2/3+x-y,2/3+z
9 1/3-x+y,2/3-x,2/3+z
10 -x,-y,-z
11 y,-x+y,-z
12 x-y,x,-z
13 1/3-x,2/3-y,2/3-z
14 1/3+y,2/3-x+y,2/3-z
15 1/3+x-y,2/3+x,2/3-z
16 2/3-x,1/3-y,1/3-z
17 2/3+y,1/3-x+y,1/3-z
18 2/3+x-y,1/3+x,1/3-z
_cell_length_a                   29.024(3)
_cell_length_b                   29.024(3)
_cell_length_c                   11.2581(11)
_cell_angle_alpha                90
_cell_angle_beta                 90
_cell_angle_gamma                120
_cell_volume                     8213.16
loop_
_atom_site_label
_atom_site_type_symbol
_atom_site_fract_x
_atom_site_fract_y
_atom_site_fract_z
Cu1 Cu 0.73341(3) 0.86669(3) 0.33094(6)
Cl1 Cl 0.75021(9) 0.87506(7) 0.53310(13)
N1 N 0.73402(18) 0.93017(17) 0.2750(4)
N2 N 0.59691(26) 1.06746(19) 0.0586(4)
N3 N 0.73630(16) 1.06959(16) 0.1666(4)
C1 C 0.7687(2) 0.9781(2) 0.3208(5)
H1 H 0.7923 0.9798 0.3789
C2 C 0.7712(2) 1.0245(2) 0.2866(4)
H2 H 0.7965 1.0568 0.3193
C3 C 0.73569(19) 1.02277(19) 0.2027(4)
C4 C 0.7001(2) 0.9740(2) 0.1553(5)
H3 H 0.6757 0.9714 0.0983
C5 C 0.7007(2) 0.9293(2) 0.1924(5)
H4 H 0.6766 0.8969 0.1583
C6 C 0.5959(3) 1.0341(2) 0.1411(5)
H5 H 0.5634 1.0100 0.1751
C7 C 0.6408(2) 1.0337(2) 0.1784(5)
H6 H 0.6381 1.0094 0.2357
C8 C 0.68958(19) 1.06913(19) 0.1311(4)
C9 C 0.6913(2) 1.1046(2) 0.0464(5)
H7 H 0.7235 1.1297 0.0132
C10 C 0.6450(3) 1.1019(2) 0.0127(5)
H8 H 0.6466 1.1254 -0.0456
C11 C 0.78570(19) 1.11893(19) 0.1667(4)
C12 C 0.8290(2) 1.1227(2) 0.1091(5)
H9 H 0.8263 1.0934 0.0695
C13 C 0.8771(2) 1.1707(2) 0.1097(5)
H10 H 0.9067 1.1732 0.0715
N1O N 0.93265(18) 1.40316(17) 0.0583(4)
N2O N 1.06976(26) 1.26587(19) 0.2747(4)
N3O N 0.93037(16) 1.26374(16) 0.1667(4)
C1O C 0.8980(2) 1.3552(2) 0.0125(5)
H1O H 0.8744 1.3535 -0.0456
C2O C 0.8955(2) 1.3088(2) 0.0467(4)
H2O H 0.8702 1.2765 0.0140
C3O C 0.93098(19) 1.31056(19) 0.1306(4)
C4O C 0.9666(2) 1.3593(2) 0.1780(5)
H3O H 0.9910 1.3619 0.2350
C5O C 0.9660(2) 1.4040(2) 0.1409(5)
H4O H 0.9901 1.4364 0.1750
C6O C 1.0708(3) 1.2992(2) 0.1922(5)
H5O H 1.1033 1.3233 0.1582
C7O C 1.0259(2) 1.2996(2) 0.1549(5)
H6O H 1.0286 1.3239 0.0976
C8O C 0.97709(19) 1.26420(19) 0.2022(4)
C9O C 0.9754(2) 1.2287(2) 0.2869(5)
H7O H 0.9432 1.2036 0.3201
C10O C 1.0217(3) 1.2314(2) 0.3206(5)
H8O H 1.0201 1.2079 0.3789
C11O C 0.88097(19) 1.21440(19) 0.1666(4)
C12O C 0.8377(2) 1.2106(2) 0.2242(5)
H9O H 0.8404 1.2399 0.2638
C13O C 0.7896(2) 1.1626(2) 0.2236(5)
H10O H 0.7600 1.1601 0.2618
Cu1Q Cu 0.53339(4) 1.06674(3) 0.00239(6)
Cl1Q Cl 0.54182(11) 1.08354(9) -0.19977(13)
Cu1B Cu 1.13328(4) 1.26659(3) 0.33094(6)
Cu1O Cu 0.93326(3) 1.46664(3) 0.00239(6)
N1Q N 0.47052(25) 1.06735(18) 0.0583(4)
N2P N 0.73413(19) 0.80388(32) 0.2747(4)
N4 N 0.8254(16) 0.8233(15) -0.010(3)
C14 C 0.8302(18) 0.8620(19) 0.028(4)
C15 C 0.832(2) 0.9130(19) 0.062(5)
H11 H 0.8566 0.9411 0.0112
H12 H 0.8437 0.9216 0.1432
H13 H 0.7974 0.9089 0.0541
N5? N 0.873(3) 0.898(3) 0.204(7)
N6? N 0.9269(18) 0.8514(17) 0.181(4)
N7? N 0.808(4) 0.906(4) 0.115(9)
C16? C 0.869(4) 0.937(5) 0.202(11)
C17? C 0.871(4) 0.988(4) 0.164(9)
H14? H 0.8572 0.9837 0.0850
H15? H 0.9072 1.0163 0.1661
H16? H 0.8499 0.9954 0.2175
C18? C 0.898(2) 0.844(2) 0.103(6)
C19? C 0.859(3) 0.838(3) 0.008(6)
H17? H 0.8704 0.8324 -0.0672
H18? H 0.8556 0.8693 0.0053
H19? H 0.8245 0.8077 0.0270
C20? C 0.850(5) 0.925(5) 0.164(12)
C21? C 0.889(5) 0.944(4) 0.262(11)
H20? H 0.9230 0.9494 0.2327
H21? H 0.8770 0.9173 0.3236
H22? H 0.8938 0.9764 0.2934
loop_
_geom_bond_atom_site_label_1
_geom_bond_atom_site_label_2
_geom_bond_site_symmetry_1
_geom_bond_site_symmetry_2
Cu1 Cl1 1_555 1_555
N1 Cu1 1_555 1_555
N2 C6 1_555 1_555
N3 C3 1_555 1_555
C1 N1 1_555 1_555
H1 C1 1_555 1_555
C2 C1 1_555 1_555
H2 C2 1_555 1_555
C3 C2 1_555 1_555
C4 C3 1_555 1_555
H3 C4 1_555 1_555
C5 N1 1_555 1_555
H4 C5 1_555 1_555
C6 H5 1_555 1_555
C7 C6 1_555 1_555
H6 C7 1_555 1_555
C8 N3 1_555 1_555
C9 C8 1_555 1_555
H7 C9 1_555 1_555
C10 N2 1_555 1_555
H8 C10 1_555 1_555
C11 N3 1_555 1_555
C12 C11 1_555 1_555
H9 C12 1_555 1_555
C13 C12 1_555 1_555
H10 C13 1_555 1_555
N4 C14 1_555 1_555
C14 C15 1_555 1_555
C15 H11 1_555 1_555
H12 C15 1_555 1_555
H13 C15 1_555 1_555
N1O C1O 1_555 1_555
N2O C6O 1_555 1_555
N3O C3O 1_555 1_555
C1O H1O 1_555 1_555
C2O C1O 1_555 1_555
H2O C2O 1_555 1_555
C3O C2O 1_555 1_555
C4O C3O 1_555 1_555
H3O C4O 1_555 1_555
C5O N1O 1_555 1_555
H4O C5O 1_555 1_555
C6O H5O 1_555 1_555
C7O C6O 1_555 1_555
H6O C7O 1_555 1_555
C8O N3O 1_555 1_555
C9O C8O 1_555 1_555
H7O C9O 1_555 1_555
C10O N2O 1_555 1_555
H8O C10O 1_555 1_555
C11O C13 1_555 1_555
C12O C11O 1_555 1_555
H9O C12O 1_555 1_555
C13O C11 1_555 1_555
H10O C13O 1_555 1_555
Cu1Q N2 1_555 1_555
Cl1Q Cu1Q 1_555 1_555
Cu1B N2O 1_555 1_555
Cu1O N1O 1_555 1_555
N1Q Cu1Q 1_555 1_555
N2P Cu1 1_555 1_555
C4 C5 1_555 1_555
C7 C8 1_555 1_555
C9 C10 1_555 1_555
N3O C11O 1_555 1_555
C4O C5O 1_555 1_555
C7O C8O 1_555 1_555
C9O C10O 1_555 1_555
C12O C13O 1_555 1_555

#END
