
#######################################################################
#
#                 Cambridge Crystallographic Data Centre
#                                CCDC 
#
#######################################################################
#
# If this CIF has been generated from an entry in the Cambridge 
# Structural Database, then it will include bibliographic, chemical, 
# crystal, experimental, refinement or atomic coordinate data resulting 
# from the CCDC's data processing and validation procedures.
#
#######################################################################

data_OFATOG
_symmetry_cell_setting           monoclinic
_symmetry_space_group_name_H-M   'P 21/m'
_symmetry_Int_Tables_number      11
_space_group_name_Hall           '-P 2yb'
loop_
_symmetry_equiv_pos_site_id
_symmetry_equiv_pos_as_xyz
1 x,y,z
2 -x,1/2+y,-z
3 -x,-y,-z
4 x,1/2-y,z
_cell_length_a                   7.4571(12)
_cell_length_b                   29.029(5)
_cell_length_c                   12.046(2)
_cell_angle_alpha                90
_cell_angle_beta                 101.404(4)
_cell_angle_gamma                90
_cell_volume                     2556.14
loop_
_atom_site_label
_atom_site_type_symbol
_atom_site_fract_x
_atom_site_fract_y
_atom_site_fract_z
Nd1 Nd 0.42239(4) 0.7500 0.20103(2)
Nd2 Nd 0.84561(4) 0.2500 0.29603(2)
S1 S 0.11682(14) 0.65491(4) 0.28489(8)
S2 S 1.25123(14) 0.33620(4) 0.37764(8)
S3 S 0.70527(14) 0.33434(4) 0.04959(8)
O1 O 1.3607(4) 0.33764(11) 0.2898(2)
O2 O 0.5124(6) 0.2500 0.2894(4)
O3 O 0.7452(4) 0.32334(13) 0.3847(3)
O4 O -0.0354(4) 0.66108(10) 0.1890(2)
O5 O 1.0264(6) 0.2500 0.1494(3)
O6 O 0.6962(4) 0.30702(11) 0.1501(2)
O7 O 1.0997(4) 0.30470(11) 0.3484(3)
O8 O 0.6245(4) 0.31018(11) -0.0545(3)
O9 O 0.0893(6) 0.7500 0.1145(3)
O10 O 0.4664(6) 0.7500 0.4141(4)
O11 O 0.2692(4) 0.68593(11) 0.2802(3)
O12 O 0.0604(4) 0.65793(11) 0.3943(2)
O13 O 0.9437(9) 0.2500 0.5088(4)
O14 O 0.8856(4) 0.35228(11) 0.0496(2)
O15 O 1.3623(4) 0.32806(11) 0.4893(2)
O16 O 0.6586(4) 0.69086(12) 0.2768(3)
O17 O 0.6763(6) 0.7500 0.0913(3)
C1 C 0.5734(6) 0.40618(15) 0.1569(3)
C2 C 1.1562(5) 0.39180(14) 0.3824(3)
C3 C 0.4717(5) 0.44604(15) 0.1612(3)
C4 C 0.1850(6) 0.57493(15) 0.1759(3)
C5 C 0.3203(6) 0.58161(16) 0.3760(4)
C6 C 0.4068(6) 0.53994(16) 0.3721(4)
C7 C 1.0844(5) 0.45558(15) 0.4915(3)
C8 C 0.5638(5) 0.38342(14) 0.0542(3)
O18 O 0.8243(4) 0.54148(11) 0.3091(2)
O19 O 0.1653(4) 0.52339(11) -0.0240(2)
C9 C 0.2086(5) 0.59900(14) 0.2772(3)
C10 C 1.1660(6) 0.41280(15) 0.4866(3)
C11 C 0.9939(5) 0.47694(15) 0.3915(3)
C12 C 0.3870(6) 0.51484(15) 0.2715(3)
C13 C 0.3600(5) 0.46323(15) 0.0614(3)
C14 C 0.4836(6) 0.46992(15) 0.2716(3)
C15 C 0.9048(6) 0.52227(15) 0.3949(3)
O20 O 0.5691(4) 0.45324(11) 0.3595(2)
C16 C 0.9867(6) 0.45532(15) 0.2869(3)
C17 C 0.4492(6) 0.39955(15) -0.0443(3)
C18 C 0.3482(6) 0.43917(16) -0.0403(3)
C19 C 0.2747(6) 0.53268(15) 0.1729(3)
C20 C 0.2571(6) 0.50730(15) 0.0624(3)
C21 C 1.0668(6) 0.41268(16) 0.2820(3)
H1 H 0.104(5) 0.5886(16) 0.111(3)
H2 H 0.445(6) 0.3822(14) -0.114(3)
H3 H 0.927(5) 0.4721(13) 0.220(2)
H4 H 1.239(5) 0.3978(14) 0.552(2)
H5 H 0.339(5) 0.5989(13) 0.446(2)
H6 H 1.059(6) 0.3956(14) 0.212(2)
H7 H 0.269(6) 0.4519(17) -0.107(3)
H8 H 0.490(5) 0.5278(16) 0.438(3)
H9 H 0.654(6) 0.3976(18) 0.227(3)
H10 H 0.445(3) 0.27931(18) 0.279(6)
H11 H 1.052(10) 0.27921(18) 0.115(4)
H12 H 0.676(11) 0.72080(18) 0.050(2)
H13 H 0.919(16) 0.28106(18) 0.547(2)
H14 H 0.644(8) 0.679(2) 0.350(3)
H15 H 0.766(6) 0.681(2) 0.245(4)
H16 H 0.033(6) 0.72074(18) 0.129(6)
H17 H 0.511(8) 0.72074(18) 0.449(4)
H18 H 0.809(8) 0.331(3) 0.4629(19)
S2B S 0.74877(14) 0.66380(4) 0.62236(8)
O1B O 0.6393(4) 0.66236(11) 0.7102(2)
O7B O 0.9003(4) 0.69530(11) 0.6516(3)
O15B O 0.6377(4) 0.67194(11) 0.5107(2)
C2B C 0.8438(5) 0.60820(14) 0.6176(3)
C7B C 0.9156(5) 0.54442(15) 0.5085(3)
O18B O 1.1757(4) 0.45852(11) 0.6909(2)
C10B C 0.8340(6) 0.58720(15) 0.5134(3)
C11B C 1.0061(5) 0.52306(15) 0.6085(3)
C15B C 1.0952(6) 0.47773(15) 0.6051(3)
C16B C 1.0133(6) 0.54468(15) 0.7131(3)
C21B C 0.9332(6) 0.58732(16) 0.7180(3)
H3B H 1.073(5) 0.5279(13) 0.780(2)
H4B H 0.761(5) 0.6022(14) 0.448(2)
H6B H 0.941(6) 0.6044(14) 0.788(2)
H10C H 0.445(3) 0.22069(18) 0.279(6)
H11C H 1.052(10) 0.22079(18) 0.115(4)
H16C H 0.033(6) 0.77926(18) 0.129(6)
H17C H 0.511(8) 0.77926(18) 0.449(4)
H13C H 0.919(16) 0.21894(18) 0.547(2)
H12C H 0.676(11) 0.77920(18) 0.050(2)
S1B S 0.88318(14) 0.34509(4) -0.28489(8)
S3B S 0.29473(14) 0.66566(4) -0.04959(8)
O4B O 1.0354(4) 0.33892(10) -0.1890(2)
O6B O 0.3038(4) 0.69298(11) -0.1501(2)
O8B O 0.3755(4) 0.68982(11) 0.0545(3)
O11B O 0.7308(4) 0.31407(11) -0.2802(3)
O12B O 0.9396(4) 0.34207(11) -0.3943(2)
O14B O 0.1144(4) 0.64772(11) -0.0496(2)
C1B C 0.4266(6) 0.59382(15) -0.1569(3)
C3B C 0.5283(5) 0.55396(15) -0.1612(3)
C4B C 0.8150(6) 0.42507(15) -0.1759(3)
C5B C 0.6797(6) 0.41839(16) -0.3760(4)
C6B C 0.5932(6) 0.46006(16) -0.3721(4)
C8B C 0.4362(5) 0.61658(14) -0.0542(3)
O19B O 0.8347(4) 0.47661(11) 0.0240(2)
C9B C 0.7914(5) 0.40100(14) -0.2772(3)
C12B C 0.6130(6) 0.48516(15) -0.2715(3)
C13B C 0.6400(5) 0.53677(15) -0.0614(3)
C14B C 0.5164(6) 0.53008(15) -0.2716(3)
O20B O 0.4309(4) 0.54676(11) -0.3595(2)
C17B C 0.5508(6) 0.60045(15) 0.0443(3)
C18B C 0.6518(6) 0.56083(16) 0.0403(3)
C19B C 0.7253(6) 0.46732(15) -0.1729(3)
C20B C 0.7429(6) 0.49270(15) -0.0624(3)
H1B H 0.896(5) 0.4114(16) -0.111(3)
H2B H 0.555(6) 0.6178(14) 0.114(3)
H5B H 0.661(5) 0.4011(13) -0.446(2)
H7B H 0.731(6) 0.5481(17) 0.107(3)
H8B H 0.510(5) 0.4722(16) -0.438(3)
H9B H 0.346(6) 0.6024(18) -0.227(3)
O16C O 0.6586(4) 0.80914(12) 0.2768(3)
H14C H 0.644(8) 0.821(2) 0.350(3)
H15C H 0.766(6) 0.819(2) 0.245(4)
O3C O 0.7452(4) 0.17666(13) 0.3847(3)
H18C H 0.809(8) 0.169(3) 0.4629(19)
Nd1A Nd 0.57761(4) 0.2500 -0.20103(2)
Nd2A Nd 0.15439(4) 0.7500 -0.29603(2)
Nd2A_2 Nd 1.15439(4) 0.7500 0.70397(2)
O6C O 0.6962(4) 0.19298(11) 0.1501(2)
O7C O 1.0997(4) 0.19530(11) 0.3484(3)
O8A O 0.3755(4) 0.81018(11) 0.0545(3)
O11C O 0.2692(4) 0.81407(11) 0.2802(3)
O21 O 0.2287(4) 0.18432(12) 0.0539(3)
H19 H 0.306(8) 0.172(2) 0.122(4)
H20 H 0.121(7) 0.167(2) 0.015(5)
loop_
_geom_bond_atom_site_label_1
_geom_bond_atom_site_label_2
_geom_bond_site_symmetry_1
_geom_bond_site_symmetry_2
Nd1 O9 1_555 1_555
Nd2 O2 1_555 1_555
S1 O4 1_555 1_555
S2 O1 1_555 1_555
S3 O6 1_555 1_555
O2 H10 1_555 1_555
O3 Nd2 1_555 1_555
O5 Nd2 1_555 1_555
O6 Nd2 1_555 1_555
O7 Nd2 1_555 1_555
O8 S3 1_555 1_555
O9 H16 1_555 1_555
O10 Nd1 1_555 1_555
O11 Nd1 1_555 1_555
O12 S1 1_555 1_555
O13 Nd2 1_555 1_555
O14 S3 1_555 1_555
O15 S2 1_555 1_555
O16 Nd1 1_555 1_555
O17 Nd1 1_555 1_555
C1 C3 1_555 1_555
C2 S2 1_555 1_555
C3 C13 1_555 1_555
C4 C9 1_555 1_555
C5 C6 1_555 1_555
C6 C12 1_555 1_555
C7 C10 1_555 1_555
C8 S3 1_555 1_555
O18 C15 1_555 1_555
O19 C20 1_555 1_555
C9 S1 1_555 1_555
C10 C2 1_555 1_555
C11 C7 1_555 1_555
C12 C14 1_555 1_555
C13 C18 1_555 1_555
C14 C3 1_555 1_555
C15 C11 1_555 1_555
O20 C14 1_555 1_555
C16 C11 1_555 1_555
C17 C8 1_555 1_555
C18 C17 1_555 1_555
C19 C4 1_555 1_555
C20 C13 1_555 1_555
C21 C2 1_555 1_555
H1 C4 1_555 1_555
H2 C17 1_555 1_555
H3 C16 1_555 1_555
H4 C10 1_555 1_555
H5 C5 1_555 1_555
H6 C21 1_555 1_555
H7 C18 1_555 1_555
H8 C6 1_555 1_555
H9 C1 1_555 1_555
H11 O5 1_555 1_555
H12 O17 1_555 1_555
H13 O13 1_555 1_555
H14 O16 1_555 1_555
H15 O16 1_555 1_555
H17 O10 1_555 1_555
H18 O3 1_555 1_555
O21 H19 1_555 1_555
H20 O21 1_555 1_555
S2B O1B 1_555 1_555
O7B S2B 1_555 1_555
O15B S2B 1_555 1_555
C2B S2B 1_555 1_555
C7B C15 1_555 1_555
O18B C15B 1_555 1_555
C10B C2B 1_555 1_555
C11B C7B 1_555 1_555
C15B C7 1_555 1_555
C16B C11B 1_555 1_555
C21B C2B 1_555 1_555
H3B C16B 1_555 1_555
H4B C10B 1_555 1_555
H6B C21B 1_555 1_555
H10C O2 1_555 1_555
H11C O5 1_555 1_555
H16C O9 1_555 1_555
H17C O10 1_555 1_555
H13C O13 1_555 1_555
H12C O17 1_555 1_555
S1B O4B 1_555 1_555
S3B O6B 1_555 1_555
O6B Nd2A 1_555 1_555
O8B Nd1 1_555 1_555
O11B S1B 1_555 1_555
O12B S1B 1_555 1_555
O14B S3B 1_555 1_555
C1B C3B 1_555 1_555
C3B C13B 1_555 1_555
C4B C9B 1_555 1_555
C5B C6B 1_555 1_555
C6B C12B 1_555 1_555
C8B S3B 1_555 1_555
O19B C20B 1_555 1_555
C9B S1B 1_555 1_555
C12B C14B 1_555 1_555
C13B C18B 1_555 1_555
C14B C3B 1_555 1_555
O20B C14B 1_555 1_555
C17B C8B 1_555 1_555
C18B C17B 1_555 1_555
C19B C4B 1_555 1_555
C20B C13B 1_555 1_555
H1B C4B 1_555 1_555
H2B C17B 1_555 1_555
H5B C5B 1_555 1_555
H7B C18B 1_555 1_555
H8B C6B 1_555 1_555
H9B C1B 1_555 1_555
O16C Nd1 1_555 1_555
H14C O16C 1_555 1_555
H15C O16C 1_555 1_555
O3C Nd2 1_555 1_555
H18C O3C 1_555 1_555
Nd1A O8 1_555 1_555
Nd2A_2 O7B 1_555 1_555
O6C Nd2 1_555 1_555
O7C Nd2 1_555 1_555
O8A Nd1 1_555 1_555
O11C Nd1 1_555 1_555
S1 O11 1_555 1_555
S2 O7 1_555 1_555
C1 C8 1_555 1_555
C5 C9 1_555 1_555
C12 C19 1_555 1_555
C16 C21 1_555 1_555
C19 C20 1_555 1_555
C7B C10B 1_555 1_555
C11B C15B 1_555 1_555
C16B C21B 1_555 1_555
S3B O8B 1_555 1_555
O11B Nd1A 1_555 1_555
C1B C8B 1_555 1_555
C5B C9B 1_555 1_555
C12B C19B 1_555 1_555
C19B C20B 1_555 1_555

#END
