
#######################################################################
#
#                 Cambridge Crystallographic Data Centre
#                                CCDC 
#
#######################################################################
#
# If this CIF has been generated from an entry in the Cambridge 
# Structural Database, then it will include bibliographic, chemical, 
# crystal, experimental, refinement or atomic coordinate data resulting 
# from the CCDC's data processing and validation procedures.
#
#######################################################################

data_OFERUN05
_symmetry_cell_setting           monoclinic
_symmetry_space_group_name_H-M   'P 21/c'
_symmetry_Int_Tables_number      14
_space_group_name_Hall           '-P 2ybc'
loop_
_symmetry_equiv_pos_site_id
_symmetry_equiv_pos_as_xyz
1 x,y,z
2 -x,1/2+y,1/2-z
3 -x,-y,-z
4 x,1/2-y,1/2+z
_cell_length_a                   17.474(6)
_cell_length_b                   7.712(3)
_cell_length_c                   14.753(5)
_cell_angle_alpha                90
_cell_angle_beta                 107.256(6)
_cell_angle_gamma                90
_cell_volume                     1898.62
loop_
_atom_site_label
_atom_site_type_symbol
_atom_site_fract_x
_atom_site_fract_y
_atom_site_fract_z
Zn1 Zn 0.128793(18) 0.93575(4) 0.33370(2)
Zn2 Zn 0.372468(18) 0.97967(4) 0.71013(2)
N1 N 0.18342(14) 1.0301(3) 0.46250(18)
N2 N 0.28484(14) 1.0487(3) 0.59508(18)
N3 N -0.07084(13) 0.6223(3) 0.25473(17)
N4 N 0.04063(14) 0.7689(3) 0.32647(17)
N5 N 0.53502(13) 1.3570(3) 0.81620(16)
N6 N 0.42639(13) 1.1877(3) 0.78259(16)
N7 N 0.22079(13) 0.6525(3) 0.79422(18)
N8 N 0.32298(13) 0.8005(3) 0.77226(17)
C1 C 0.25717(17) 1.2132(4) 0.5681(2)
H1 H 0.2773 1.3152 0.5999
C2 C 0.19596(17) 1.2013(4) 0.4877(2)
H2 H 0.1668 1.2941 0.4545
C3 C 0.23832(17) 0.9445(4) 0.5296(2)
C4 C 0.2463(2) 0.7511(4) 0.5314(3)
H3 H 0.2477 0.7086 0.5931
H4 H 0.2949 0.7194 0.5179
H5 H 0.2013 0.7013 0.4844
C5 C 0.0003(2) 0.7368(4) 0.3911(2)
H6 H 0.0167 0.7706 0.4545
C6 C -0.06683(19) 0.6484(4) 0.3480(2)
H7 H -0.1046 0.6109 0.3768
C7 C -0.00468(16) 0.6984(4) 0.24575(19)
C8 C 0.0150(2) 0.7063(5) 0.1542(2)
H8 H 0.0708 0.7336 0.1663
H9 H -0.0169 0.7944 0.1145
H10 H 0.0039 0.5962 0.1227
C9 C 0.51998(18) 1.3131(4) 0.8998(2)
H11 H 0.5499 1.3481 0.9602
C10 C 0.45444(18) 1.2106(4) 0.8789(2)
H12 H 0.4319 1.1631 0.9230
C11 C 0.47637(16) 1.2795(3) 0.74824(19)
C12 C 0.46649(17) 1.2999(4) 0.6447(2)
H13 H 0.4356 1.2049 0.6105
H14 H 0.5182 1.3010 0.6344
H15 H 0.4393 1.4070 0.6226
C13 C 0.34091(17) 0.6262(4) 0.7761(2)
H16 H 0.3881 0.5784 0.7703
C14 C 0.27966(18) 0.5370(4) 0.7893(3)
H17 H 0.2771 0.4171 0.7944
C15 C 0.25044(16) 0.8084(4) 0.7839(2)
C16 C 0.2082(2) 0.9759(4) 0.7857(3)
H18 H 0.2439 1.0552 0.8280
H19 H 0.1623 0.9558 0.8075
H20 H 0.1911 1.0245 0.7230
Zn1A Zn -0.128793(18) 0.43575(4) 0.16630(2)
Zn1C Zn 0.128793(18) 0.56425(4) 0.83370(2)
Zn2A Zn 0.627532(18) 1.47967(4) 0.78987(2)
N3A N 0.07084(13) 1.1223(3) 0.24527(17)
N5A N 0.46498(13) 0.8570(3) 0.68380(16)
N7C N 0.22079(13) 0.8475(3) 0.29422(18)
loop_
_geom_bond_atom_site_label_1
_geom_bond_atom_site_label_2
_geom_bond_site_symmetry_1
_geom_bond_site_symmetry_2
Zn1 N1 1_555 1_555
Zn2 N2 1_555 1_555
N1 C2 1_555 1_555
N2 C1 1_555 1_555
N3 C6 1_555 1_555
N4 Zn1 1_555 1_555
N5 C9 1_555 1_555
N6 Zn2 1_555 1_555
N7 C14 1_555 1_555
N8 Zn2 1_555 1_555
C1 H1 1_555 1_555
C2 C1 1_555 1_555
H2 C2 1_555 1_555
C3 N1 1_555 1_555
C4 C3 1_555 1_555
H3 C4 1_555 1_555
H4 C4 1_555 1_555
H5 C4 1_555 1_555
C5 N4 1_555 1_555
H6 C5 1_555 1_555
C6 C5 1_555 1_555
H7 C6 1_555 1_555
C7 N3 1_555 1_555
C8 C7 1_555 1_555
H8 C8 1_555 1_555
H9 C8 1_555 1_555
H10 C8 1_555 1_555
C9 H11 1_555 1_555
C10 N6 1_555 1_555
H12 C10 1_555 1_555
C11 N5 1_555 1_555
C12 C11 1_555 1_555
H13 C12 1_555 1_555
H14 C12 1_555 1_555
H15 C12 1_555 1_555
C13 N8 1_555 1_555
H16 C13 1_555 1_555
C14 C13 1_555 1_555
H17 C14 1_555 1_555
C15 N7 1_555 1_555
C16 C15 1_555 1_555
H18 C16 1_555 1_555
H19 C16 1_555 1_555
H20 C16 1_555 1_555
Zn1A N3 1_555 1_555
Zn1C N7 1_555 1_555
Zn2A N5 1_555 1_555
N3A Zn1 1_555 1_555
N5A Zn2 1_555 1_555
N7C Zn1 1_555 1_555
N2 C3 1_555 1_555
N4 C7 1_555 1_555
N6 C11 1_555 1_555
N8 C15 1_555 1_555
C9 C10 1_555 1_555

#END
