
#######################################################################
#
#                 Cambridge Crystallographic Data Centre
#                                CCDC 
#
#######################################################################
#
# If this CIF has been generated from an entry in the Cambridge 
# Structural Database, then it will include bibliographic, chemical, 
# crystal, experimental, refinement or atomic coordinate data resulting 
# from the CCDC's data processing and validation procedures.
#
#######################################################################

data_OFIDOX
_symmetry_cell_setting           monoclinic
_symmetry_space_group_name_H-M   'P 21/m'
_symmetry_Int_Tables_number      11
_space_group_name_Hall           '-P 2yb'
loop_
_symmetry_equiv_pos_site_id
_symmetry_equiv_pos_as_xyz
1 x,y,z
2 -x,1/2+y,-z
3 -x,-y,-z
4 x,1/2-y,z
_cell_length_a                   4.7454(1)
_cell_length_b                   7.2032(1)
_cell_length_c                   9.6750(1)
_cell_angle_alpha                90
_cell_angle_beta                 93.164(1)
_cell_angle_gamma                90
_cell_volume                     330.207
loop_
_atom_site_label
_atom_site_type_symbol
_atom_site_fract_x
_atom_site_fract_y
_atom_site_fract_z
C1 C 0.167(2) 0.2500 0.3198(12)
C2 C 0.354(3) 0.2500 0.4547(14)
H1 H 0.4747 0.1414 0.4554
H2 H 0.4747 0.3586 0.4554
C3 C 0.193(3) 0.2500 0.5854(11)
H3 H 0.0729 0.3588 0.5857
H4 H 0.0729 0.1412 0.5857
C4 C 0.385(2) 0.2500 0.7143(11)
H5 H 0.5048 0.1411 0.7148
H6 H 0.5048 0.3589 0.7148
C5 C 0.219(2) 0.2500 0.8414(9)
O1 O 0.2818(18) 0.2500 0.2068(9)
O2 O -0.085(2) 0.2500 0.3266(10)
O3 O 0.1443(19) 0.1000(13) 0.8921(9)
Pb1 Pb 0.81152(6) 0.2500 0.08109(3)
O1_2 O 1.2818(18) 0.2500 0.2068(9)
O2_2 O 0.915(2) 0.2500 0.3266(10)
O3C O 0.1443(19) 0.4000(13) 0.8921(9)
O3_2 O 1.1443(19) 0.1000(13) -0.1079(9)
O3C_2 O 1.1443(19) 0.4000(13) -0.1079(9)
O3B O 0.8557(19) -0.1000(13) 0.1079(9)
O3A O 0.8557(19) 0.6000(13) 0.1079(9)
Pb1_2 Pb -0.18848(6) 0.2500 0.08109(3)
Pb1_3 Pb -0.18848(6) 0.2500 1.08109(3)
Pb1B Pb 0.18848(6) -0.2500 0.91891(3)
Pb1B_2 Pb 0.18848(6) 0.7500 0.91891(3)
loop_
_geom_bond_atom_site_label_1
_geom_bond_atom_site_label_2
_geom_bond_site_symmetry_1
_geom_bond_site_symmetry_2
C1 C2 1_555 1_555
C2 H1 1_555 1_555
H2 C2 1_555 1_555
C3 C2 1_555 1_555
H3 C3 1_555 1_555
H4 C3 1_555 1_555
C4 C3 1_555 1_555
H5 C4 1_555 1_555
H6 C4 1_555 1_555
C5 C4 1_555 1_555
O1 C1 1_555 1_555
O2 C1 1_555 1_555
O3 C5 1_555 1_555
Pb1 O1 1_555 1_555
O1_2 Pb1 1_555 1_555
O2_2 Pb1 1_555 1_555
O3C C5 1_555 1_555
O3_2 Pb1 1_555 1_555
O3C_2 Pb1 1_555 1_555
O3B Pb1 1_555 1_555
O3A Pb1 1_555 1_555
Pb1_2 O1 1_555 1_555
Pb1_3 O3 1_555 1_555
Pb1B O3 1_555 1_555
Pb1B_2 O3C 1_555 1_555
O2 Pb1_2 1_555 1_555
O3C Pb1_3 1_555 1_555

#END
