
#######################################################################
#
#                 Cambridge Crystallographic Data Centre
#                                CCDC 
#
#######################################################################
#
# If this CIF has been generated from an entry in the Cambridge 
# Structural Database, then it will include bibliographic, chemical, 
# crystal, experimental, refinement or atomic coordinate data resulting 
# from the CCDC's data processing and validation procedures.
#
#######################################################################

data_OFIHIW
_symmetry_cell_setting           monoclinic
_symmetry_space_group_name_H-M   'C 2/c'
_symmetry_Int_Tables_number      15
_space_group_name_Hall           '-C 2yn'
loop_
_symmetry_equiv_pos_site_id
_symmetry_equiv_pos_as_xyz
1 x,y,z
2 -x,y,1/2-z
3 1/2+x,1/2+y,z
4 1/2-x,1/2+y,1/2-z
5 -x,-y,-z
6 x,-y,1/2+z
7 1/2-x,1/2-y,-z
8 1/2+x,1/2-y,1/2+z
_cell_length_a                   18.4608(7)
_cell_length_b                   6.0615(2)
_cell_length_c                   21.3052(8)
_cell_angle_alpha                90
_cell_angle_beta                 93.544(2)
_cell_angle_gamma                90
_cell_volume                     2379.5
loop_
_atom_site_label
_atom_site_type_symbol
_atom_site_fract_x
_atom_site_fract_y
_atom_site_fract_z
Cd1 Cd 0.0000 0.27778(3) 0.2500
O1 O -0.01487(9) 0.3362(2) 0.14063(7)
O2 O -0.01987(9) -0.0110(2) 0.17130(7)
O3 O 0.0000 0.6462(4) 0.2500
H1 H 0.0084(19) 0.733(4) 0.2819(12)
N1 N 0.12246(10) 0.2256(3) 0.22376(9)
N2 N 0.26288(10) -0.1608(3) 0.06299(9)
C1 C 0.14911(12) 0.3607(4) 0.18129(11)
H2 H 0.1294 0.5013 0.1766
C2 C 0.20459(13) 0.3014(4) 0.14395(11)
H3 H 0.2220 0.4020 0.1155
C3 C 0.23413(12) 0.0922(4) 0.14899(11)
C4 C 0.20827(12) -0.0458(4) 0.19471(11)
H4 H 0.2281 -0.1857 0.2011
C5 C 0.15316(12) 0.0255(4) 0.23059(11)
H5 H 0.1365 -0.0693 0.2609
C6 C 0.29077(13) 0.0125(4) 0.10592(12)
H6 H 0.3071 0.1360 0.0815
H7 H 0.3323 -0.0438 0.1311
C7 C 0.20419(13) -0.0813(4) 0.01989(12)
H8 H 0.2210 0.0441 -0.0035
H9 H 0.1641 -0.0326 0.0437
C8 C 0.32159(13) -0.2402(5) 0.02539(13)
H10 H 0.3607 -0.2972 0.0533
H11 H 0.3405 -0.1178 0.0020
C9 C -0.01424(11) 0.1333(4) 0.12886(10)
C10 C -0.00591(11) 0.0612(3) 0.06232(9)
C11 C 0.01568(12) 0.2140(3) 0.01866(10)
H12 H 0.0266 0.3576 0.0314
C12 C -0.02117(12) -0.1553(4) 0.04367(10)
H13 H -0.0349 -0.2591 0.0728
O1D O 0.01487(9) -0.3362(2) -0.14063(7)
O2D O 0.01987(9) 0.0110(2) -0.17130(7)
C9D C 0.01424(11) -0.1333(4) -0.12886(10)
C10D C 0.00591(11) -0.0612(3) -0.06232(9)
C11D C -0.01568(12) -0.2140(3) -0.01866(10)
H12D H -0.0266 -0.3576 -0.0314
C12D C 0.02117(12) 0.1553(4) -0.04367(10)
H13D H 0.0349 0.2591 -0.0728
H1A H -0.0084(19) 0.733(4) 0.2181(12)
N1F N 0.37754(10) -0.7256(3) -0.22376(9)
N2F N 0.23712(10) -0.3392(3) -0.06299(9)
C1F C 0.35089(12) -0.8607(4) -0.18129(11)
H2F H 0.3706 -1.0013 -0.1766
C2F C 0.29541(13) -0.8014(4) -0.14395(11)
H3F H 0.2780 -0.9020 -0.1155
C3F C 0.26587(12) -0.5922(4) -0.14899(11)
C4F C 0.29173(12) -0.4542(4) -0.19471(11)
H4F H 0.2719 -0.3143 -0.2011
C5F C 0.34684(12) -0.5255(4) -0.23059(11)
H5F H 0.3635 -0.4307 -0.2609
C6F C 0.20923(13) -0.5125(4) -0.10592(12)
H6F H 0.1929 -0.6360 -0.0815
H7F H 0.1677 -0.4562 -0.1311
C7F C 0.29581(13) -0.4187(4) -0.01989(12)
H8F H 0.2790 -0.5441 0.0035
H9F H 0.3359 -0.4674 -0.0437
C8F C 0.17841(13) -0.2598(5) -0.02539(13)
H10F H 0.1393 -0.2028 -0.0533
H11F H 0.1595 -0.3822 -0.0020
Cd1D Cd 0.0000 -0.27778(3) -0.2500
Cd1F Cd 0.5000 -0.77778(3) -0.2500
O1A O 0.01487(9) 0.3362(2) 0.35937(7)
O2A O 0.01987(9) -0.0110(2) 0.32870(7)
N1A N -0.12246(10) 0.2256(3) 0.27624(9)
loop_
_geom_bond_atom_site_label_1
_geom_bond_atom_site_label_2
_geom_bond_site_symmetry_1
_geom_bond_site_symmetry_2
Cd1 O1 1_555 1_555
O1 C9 1_555 1_555
O2 Cd1 1_555 1_555
O3 Cd1 1_555 1_555
H1 O3 1_555 1_555
N1 Cd1 1_555 1_555
N2 C6 1_555 1_555
C1 N1 1_555 1_555
H2 C1 1_555 1_555
C2 C1 1_555 1_555
H3 C2 1_555 1_555
C3 C2 1_555 1_555
C4 C3 1_555 1_555
H4 C4 1_555 1_555
C5 N1 1_555 1_555
H5 C5 1_555 1_555
C6 C3 1_555 1_555
H6 C6 1_555 1_555
H7 C6 1_555 1_555
C7 N2 1_555 1_555
H8 C7 1_555 1_555
H9 C7 1_555 1_555
C8 N2 1_555 1_555
H10 C8 1_555 1_555
H11 C8 1_555 1_555
C9 O2 1_555 1_555
C10 C9 1_555 1_555
C11 C10 1_555 1_555
H12 C11 1_555 1_555
C12 C10 1_555 1_555
H13 C12 1_555 1_555
O1D C9D 1_555 1_555
O2D C9D 1_555 1_555
C9D C10D 1_555 1_555
C10D C11D 1_555 1_555
C11D C12 1_555 1_555
H12D C11D 1_555 1_555
C12D C11 1_555 1_555
H13D C12D 1_555 1_555
H1A O3 1_555 1_555
N1F C1F 1_555 1_555
N2F C6F 1_555 1_555
C1F H2F 1_555 1_555
C2F C1F 1_555 1_555
H3F C2F 1_555 1_555
C3F C2F 1_555 1_555
C4F C3F 1_555 1_555
H4F C4F 1_555 1_555
C5F N1F 1_555 1_555
H5F C5F 1_555 1_555
C6F C3F 1_555 1_555
H6F C6F 1_555 1_555
H7F C6F 1_555 1_555
C7F C8 1_555 1_555
H8F C7F 1_555 1_555
H9F C7F 1_555 1_555
C8F C7 1_555 1_555
H10F C8F 1_555 1_555
H11F C8F 1_555 1_555
Cd1D O1D 1_555 1_555
Cd1F N1F 1_555 1_555
O1A Cd1 1_555 1_555
O2A Cd1 1_555 1_555
N1A Cd1 1_555 1_555
C4 C5 1_555 1_555
O2D Cd1D 1_555 1_555
C10D C12D 1_555 1_555
N2F C7F 1_555 1_555
N2F C8F 1_555 1_555
C4F C5F 1_555 1_555

#END
