
#######################################################################
#
#                 Cambridge Crystallographic Data Centre
#                                CCDC 
#
#######################################################################
#
# If this CIF has been generated from an entry in the Cambridge 
# Structural Database, then it will include bibliographic, chemical, 
# crystal, experimental, refinement or atomic coordinate data resulting 
# from the CCDC's data processing and validation procedures.
#
#######################################################################

data_OFIRIE
_symmetry_cell_setting           monoclinic
_symmetry_space_group_name_H-M   'P 21/m'
_symmetry_Int_Tables_number      11
_space_group_name_Hall           '-P 2yb'
loop_
_symmetry_equiv_pos_site_id
_symmetry_equiv_pos_as_xyz
1 x,y,z
2 -x,1/2+y,-z
3 -x,-y,-z
4 x,1/2-y,z
_cell_length_a                   3.742(3)
_cell_length_b                   13.075(9)
_cell_length_c                   9.092(6)
_cell_angle_alpha                90
_cell_angle_beta                 90.09(2)
_cell_angle_gamma                90
_cell_volume                     444.841
loop_
_atom_site_label
_atom_site_type_symbol
_atom_site_fract_x
_atom_site_fract_y
_atom_site_fract_z
Co1 Co 0.5000 0.5000 0.0000
Br1 Br -0.0001(1) 0.4431(1) 0.1795(1)
N1 N 0.5013(8) 0.3445(2) -0.0949(3)
S1 S 0.4998(4) 0.2500 0.0207(1)
C1 C 0.5007(11) 0.3045(3) -0.4933(4)
C2 C 0.5009(12) 0.3596(3) -0.3680(5)
C3 C 0.5008(9) 0.3048(3) -0.2330(4)
N1C N 0.5013(8) 0.1555(2) -0.0949(3)
C3C C 0.5008(9) 0.1952(3) -0.2330(4)
C2C C 0.5009(12) 0.1404(3) -0.3680(5)
C1C C 0.5007(11) 0.1955(3) -0.4933(4)
Br1_2 Br 0.9999(1) 0.4431(1) 0.1795(1)
Br1B Br 0.0001(1) 0.5569(1) -0.1795(1)
Br1B_2 Br 1.0001(1) 0.5569(1) -0.1795(1)
N1B N 0.4987(8) 0.6555(2) 0.0949(3)
Co1_2 Co -0.5000 0.5000 0.0000
Co1A Co 0.5000 0.0000 0.0000
Co1_3 Co 1.5000 0.5000 0.0000
loop_
_geom_bond_atom_site_label_1
_geom_bond_atom_site_label_2
_geom_bond_site_symmetry_1
_geom_bond_site_symmetry_2
Co1 Br1 1_555 1_555
Br1 Co1_2 1_555 1_555
N1 Co1 1_555 1_555
S1 N1 1_555 1_555
C1 C2 1_555 1_555
C2 C3 1_555 1_555
C3 N1 1_555 1_555
N1C S1 1_555 1_555
C3C C3 1_555 1_555
C2C C3C 1_555 1_555
C1C C1 1_555 1_555
Br1_2 Co1 1_555 1_555
Br1B Co1 1_555 1_555
Br1B_2 Co1 1_555 1_555
N1B Co1 1_555 1_555
Co1_2 Br1B 1_555 1_555
Co1A N1C 1_555 1_555
Co1_3 Br1_2 1_555 1_555
N1C C3C 1_555 1_555
C2C C1C 1_555 1_555
Br1B_2 Co1_3 1_555 1_555

#END
