
#######################################################################
#
#                 Cambridge Crystallographic Data Centre
#                                CCDC 
#
#######################################################################
#
# If this CIF has been generated from an entry in the Cambridge 
# Structural Database, then it will include bibliographic, chemical, 
# crystal, experimental, refinement or atomic coordinate data resulting 
# from the CCDC's data processing and validation procedures.
#
#######################################################################

data_OFIRUQ
_symmetry_cell_setting           monoclinic
_symmetry_space_group_name_H-M   'P 21/n'
_symmetry_Int_Tables_number      14
_space_group_name_Hall           '-P 2yn'
loop_
_symmetry_equiv_pos_site_id
_symmetry_equiv_pos_as_xyz
1 x,y,z
2 1/2-x,1/2+y,1/2-z
3 -x,-y,-z
4 1/2+x,1/2-y,1/2+z
_cell_length_a                   12.1945(3)
_cell_length_b                   9.1129(3)
_cell_length_c                   8.5495(2)
_cell_angle_alpha                90
_cell_angle_beta                 94.317(2)
_cell_angle_gamma                90
_cell_volume                     947.387
loop_
_atom_site_label
_atom_site_type_symbol
_atom_site_fract_x
_atom_site_fract_y
_atom_site_fract_z
Al1 Al 0.736(1) 0.423(1) 0.233(1)
P1 P 0.5971(2) 0.171(1) 0.400(1)
P2 P 0.4260(8) 0.326(1) 0.878(1)
P3 P 0.7465(8) 0.151(1) 0.969(1)
O1 O 0.4765(9) 0.132(2) 0.408(2)
O2 O 0.609(1) 0.313(1) 0.313(2)
O3 O 0.641(1) 0.033(1) 0.330(1)
O4 O 0.379(1) 0.479(1) 0.889(2)
O5 O 0.457(1) 0.277(2) 1.046(1)
O6 O 0.344(1) 0.205(2) 0.835(2)
O7 O 0.777(1) 0.032(1) 1.088(2)
O8 O 0.837(1) 0.163(2) 0.856(2)
O9 O 0.731(1) 0.298(1) 1.044(2)
N1 N 0.574(1) 0.162(2) 0.726(2)
C1 C 0.659(2) 0.198(2) 0.597(2)
C2 C 0.542(1) 0.320(1) 0.755(2)
C3 C 0.627(1) 0.076(2) 0.861(3)
O3A O 0.859(1) 0.533(1) 0.170(1)
O4B O 0.621(1) 0.521(1) 0.111(2)
O6C O 0.844(1) 0.295(2) 0.335(2)
O7A O 0.723(1) 0.532(1) 0.412(2)
O9_2 O 0.731(1) 0.298(1) 0.044(2)
Al1A Al 0.764(1) -0.077(1) 0.267(1)
Al1B Al 0.264(1) 0.577(1) 0.767(1)
Al1C Al 0.236(1) 0.077(1) 0.733(1)
Al1A_2 Al 0.764(1) -0.077(1) 1.267(1)
Al1_2 Al 0.736(1) 0.423(1) 1.233(1)
loop_
_geom_bond_atom_site_label_1
_geom_bond_atom_site_label_2
_geom_bond_site_symmetry_1
_geom_bond_site_symmetry_2
Al1 O2 1_555 1_555
P1 O1 1_555 1_555
P2 O4 1_555 1_555
P3 O7 1_555 1_555
O2 P1 1_555 1_555
O3 P1 1_555 1_555
O4 Al1B 1_555 1_555
O5 P2 1_555 1_555
O6 P2 1_555 1_555
O7 Al1A_2 1_555 1_555
O8 P3 1_555 1_555
O9 P3 1_555 1_555
N1 C1 1_555 1_555
C1 P1 1_555 1_555
C2 P2 1_555 1_555
C3 P3 1_555 1_555
O3A Al1 1_555 1_555
O4B Al1 1_555 1_555
O6C Al1 1_555 1_555
O7A Al1 1_555 1_555
O9_2 Al1 1_555 1_555
Al1A O3 1_555 1_555
Al1C O6 1_555 1_555
Al1_2 O9 1_555 1_555
N1 C2 1_555 1_555
N1 C3 1_555 1_555

#END
