
#######################################################################
#
#                 Cambridge Crystallographic Data Centre
#                                CCDC 
#
#######################################################################
#
# If this CIF has been generated from an entry in the Cambridge 
# Structural Database, then it will include bibliographic, chemical, 
# crystal, experimental, refinement or atomic coordinate data resulting 
# from the CCDC's data processing and validation procedures.
#
#######################################################################

data_OFIVIJ
_symmetry_cell_setting           monoclinic
_symmetry_space_group_name_H-M   'C 2/c'
_symmetry_Int_Tables_number      15
_space_group_name_Hall           '-C 2yn'
loop_
_symmetry_equiv_pos_site_id
_symmetry_equiv_pos_as_xyz
1 x,y,z
2 1/2+x,1/2+y,z
3 -x,y,1/2-z
4 1/2-x,1/2+y,1/2-z
5 -x,-y,-z
6 1/2-x,1/2-y,-z
7 x,-y,1/2+z
8 1/2+x,1/2-y,1/2+z
_cell_length_a                   22.344(5)
_cell_length_b                   9.1089(18)
_cell_length_c                   13.041(3)
_cell_angle_alpha                90
_cell_angle_beta                 121.25(3)
_cell_angle_gamma                90
_cell_volume                     2269.13
loop_
_atom_site_label
_atom_site_type_symbol
_atom_site_fract_x
_atom_site_fract_y
_atom_site_fract_z
H1 H 0.294(3) 0.233(14) 0.453(6)
O1 O 0.3366(3) 0.2592(4) 0.5010(4)
H2 H 0.356(3) 0.310(6) 0.471(5)
O2 O 0.0000 0.2450(8) 0.2500
H3 H 0.022(3) 0.196(7) 0.315(4)
H3B H -0.022(3) 0.196(7) 0.185(4)
C1 C -0.17101(18) 0.3262(4) 0.7357(3)
C2 C 0.13443(19) 0.4237(5) 0.9976(4)
H4 H 0.1789 0.4648 1.0335
C3 C -0.06366(18) 0.1627(4) 0.8426(3)
C4 C -0.10672(18) 0.0253(4) 0.8220(3)
C5 C 0.02031(18) 0.4059(4) 0.8960(3)
C6 C 0.05050(18) 0.2677(4) 0.9364(4)
C7 C -0.09337(18) 0.3040(4) 0.8064(3)
C8 C 0.00846(18) 0.1432(4) 0.9076(3)
H5 H 0.0281 0.0502 0.9312
C9 C -0.05165(19) 0.4271(4) 0.8320(3)
H6 H -0.0710 0.5202 0.8074
H7 H 0.075(3) 0.581(6) 0.920(5)
H8 H 0.201(3) 0.3439(12) 1.266(6)
H9 H 0.206(3) 0.104(4) 0.943(3)
H10 H 0.1689(17) 0.207(4) 1.266(5)
H11 H 0.183(2) -0.036(4) 0.963(4)
N1 N 0.07565(17) 0.5016(4) 0.9349(3)
N2 N 0.12316(16) 0.2826(4) 1.0037(3)
Ni1 Ni 0.20094(2) 0.14549(5) 1.12354(4)
O3 O 0.20393(15) 0.2502(3) 1.2699(3)
O4 O 0.20930(16) 0.0390(3) 0.9926(3)
O5 O -0.14188(14) 0.0219(3) 0.8735(2)
O6 O -0.10230(16) -0.0761(3) 0.7630(3)
O7 O -0.21065(13) 0.2266(3) 0.6645(2)
O8 O -0.19731(13) 0.4426(3) 0.7476(2)
C1D C 0.17101(18) -0.3262(4) 1.2643(3)
C2D C -0.13443(19) -0.4237(5) 1.0024(4)
H4D H -0.1789 -0.4648 0.9665
C3D C 0.06366(18) -0.1627(4) 1.1574(3)
C4D C 0.10672(18) -0.0253(4) 1.1780(3)
C5D C -0.02031(18) -0.4059(4) 1.1040(3)
C6D C -0.05050(18) -0.2677(4) 1.0636(4)
C7D C 0.09337(18) -0.3040(4) 1.1936(3)
C8D C -0.00846(18) -0.1432(4) 1.0924(3)
H5D H -0.0281 -0.0502 1.0688
C9D C 0.05165(19) -0.4271(4) 1.1680(3)
H6D H 0.0710 -0.5202 1.1926
H7D H -0.075(3) -0.581(6) 1.080(5)
H8D H -0.201(3) -0.3439(12) 0.734(6)
H9D H -0.206(3) -0.104(4) 1.057(3)
H10D H -0.1689(17) -0.207(4) 0.734(5)
H11D H -0.183(2) 0.036(4) 1.037(4)
N1D N -0.07565(17) -0.5016(4) 1.0651(3)
N2D N -0.12316(16) -0.2826(4) 0.9963(3)
Ni1D Ni -0.20094(2) -0.14549(5) 0.87646(4)
Ni1G Ni -0.29906(2) 0.35451(5) 0.62354(4)
Ni1C Ni 0.29906(2) -0.35451(5) 1.37646(4)
O3D O -0.20393(15) -0.2502(3) 0.7301(3)
O4D O -0.20930(16) -0.0390(3) 1.0074(3)
O5D O 0.14188(14) -0.0219(3) 1.1265(2)
O6D O 0.10230(16) 0.0761(3) 1.2370(3)
O7D O 0.21065(13) -0.2266(3) 1.3355(2)
O7G O 0.28935(13) 0.2734(3) 1.1645(2)
O7C O -0.28935(13) -0.2734(3) 0.8355(2)
O8D O 0.19731(13) -0.4426(3) 1.2524(2)
O8G O 0.30269(13) 0.0574(3) 1.2476(2)
O8C O -0.30269(13) -0.0574(3) 0.7524(2)
loop_
_geom_bond_atom_site_label_1
_geom_bond_atom_site_label_2
_geom_bond_site_symmetry_1
_geom_bond_site_symmetry_2
H1 O1 1_555 1_555
O1 H2 1_555 1_555
O2 H3 1_555 1_555
C1 C7 1_555 1_555
C2 H4 1_555 1_555
C3 C4 1_555 1_555
C4 O5 1_555 1_555
C5 C6 1_555 1_555
C6 C8 1_555 1_555
C7 C3 1_555 1_555
C8 C3 1_555 1_555
H5 C8 1_555 1_555
C9 C5 1_555 1_555
H6 C9 1_555 1_555
H7 N1 1_555 1_555
H8 O3 1_555 1_555
H9 O4 1_555 1_555
H10 O3 1_555 1_555
H11 O4 1_555 1_555
N1 C2 1_555 1_555
N2 C2 1_555 1_555
Ni1 N2 1_555 1_555
O3 Ni1 1_555 1_555
O4 Ni1 1_555 1_555
O5 Ni1D 1_555 1_555
O6 C4 1_555 1_555
O7 C1 1_555 1_555
O8 C1 1_555 1_555
H3B O2 1_555 1_555
C1D C7D 1_555 1_555
C2D H4D 1_555 1_555
C3D C4D 1_555 1_555
C4D O5D 1_555 1_555
C5D C6D 1_555 1_555
C6D C8D 1_555 1_555
C7D C3D 1_555 1_555
C8D C3D 1_555 1_555
H5D C8D 1_555 1_555
C9D C5D 1_555 1_555
H6D C9D 1_555 1_555
H7D N1D 1_555 1_555
H8D O3D 1_555 1_555
H9D O4D 1_555 1_555
H10D O3D 1_555 1_555
H11D O4D 1_555 1_555
N1D C2D 1_555 1_555
N2D C2D 1_555 1_555
Ni1D N2D 1_555 1_555
Ni1G O7 1_555 1_555
Ni1C O7D 1_555 1_555
O3D Ni1D 1_555 1_555
O4D Ni1D 1_555 1_555
O5D Ni1 1_555 1_555
O6D C4D 1_555 1_555
O7D C1D 1_555 1_555
O7G Ni1 1_555 1_555
O7C Ni1D 1_555 1_555
O8D C1D 1_555 1_555
O8G Ni1 1_555 1_555
O8C Ni1D 1_555 1_555
C5 N1 1_555 1_555
C6 N2 1_555 1_555
C7 C9 1_555 1_555
O8 Ni1G 1_555 1_555
C5D N1D 1_555 1_555
C6D N2D 1_555 1_555
C7D C9D 1_555 1_555
Ni1C O8D 1_555 1_555

#END
