
#######################################################################
#
#                 Cambridge Crystallographic Data Centre
#                                CCDC 
#
#######################################################################
#
# If this CIF has been generated from an entry in the Cambridge 
# Structural Database, then it will include bibliographic, chemical, 
# crystal, experimental, refinement or atomic coordinate data resulting 
# from the CCDC's data processing and validation procedures.
#
#######################################################################

data_OFIVEF
_symmetry_cell_setting           monoclinic
_symmetry_space_group_name_H-M   'P 21/c'
_symmetry_Int_Tables_number      14
_space_group_name_Hall           '-P 2ybc'
loop_
_symmetry_equiv_pos_site_id
_symmetry_equiv_pos_as_xyz
1 x,y,z
2 -x,1/2+y,1/2-z
3 -x,-y,-z
4 x,1/2-y,1/2+z
_cell_length_a                   18.695(4)
_cell_length_b                   12.688(3)
_cell_length_c                   15.429(3)
_cell_angle_alpha                90
_cell_angle_beta                 108.32(3)
_cell_angle_gamma                90
_cell_volume                     3474.3
loop_
_atom_site_label
_atom_site_type_symbol
_atom_site_fract_x
_atom_site_fract_y
_atom_site_fract_z
C1 C 0.07719(19) 0.5751(3) 0.1276(2)
H1 H 0.0287 0.5531 0.1234
C2 C 0.09421(17) 0.6425(2) 0.4135(2)
C3 C -0.10162(19) 0.6181(3) 0.3726(2)
H2 H -0.0537 0.6019 0.3705
C4 C -0.13670(18) 0.4452(2) 0.1976(2)
C5 C 0.08893(18) 0.4427(2) 0.3075(2)
C6 C -0.40420(18) 0.8013(2) 0.3173(2)
C7 C -0.11267(17) 0.6430(2) 0.1050(2)
C8 C -0.40882(17) 0.5899(2) 0.4025(2)
C9 C 0.31124(18) 0.6328(2) 0.1144(2)
C10 C 0.24012(18) 0.7325(3) 0.1957(2)
H3 H 0.2368 0.7877 0.2339
C11 C 0.18013(17) 0.6633(2) 0.1613(2)
C12 C -0.32243(17) 0.5821(3) 0.1537(2)
C13 C -0.26477(18) 0.5085(3) 0.1841(2)
H4 H -0.2710 0.4488 0.2160
C14 C 0.36783(18) 0.7952(3) 0.2065(2)
C15 C -0.19785(17) 0.5260(2) 0.1658(2)
C16 C -0.20981(18) 0.6998(3) 0.3529(2)
C17 C 0.30569(18) 0.7174(2) 0.1716(2)
C18 C -0.18821(16) 0.6160(2) 0.1167(2)
C19 C -0.21131(17) 0.6050(2) 0.3970(2)
C20 C 0.25272(18) 0.5624(3) 0.0822(2)
H5 H 0.2564 0.5057 0.0457
C21 C -0.27484(17) 0.5703(2) 0.4156(2)
H6 H -0.2751 0.5067 0.4454
C22 C -0.33838(17) 0.6339(2) 0.3880(2)
C23 C -0.42278(18) 0.6752(3) 0.1271(2)
H7 H -0.4702 0.6990 0.1256
C24 C -0.31208(17) 0.6711(2) 0.1060(2)
C25 C 0.18735(18) 0.5795(3) 0.1064(2)
C26 C -0.33666(17) 0.7318(2) 0.3449(2)
C27 C 0.16277(17) 0.5990(2) 0.3928(2)
C28 C 0.22763(18) 0.6573(3) 0.4256(2)
H8 H 0.2293 0.7186 0.4593
C29 C 0.22320(18) 0.4695(3) 0.3228(2)
H9 H 0.2218 0.4078 0.2898
C30 C 0.29097(17) 0.6195(3) 0.4056(2)
C31 C 0.28890(17) 0.5292(3) 0.3544(2)
C32 C 0.16037(17) 0.5055(2) 0.3424(2)
C33 C 0.38036(17) 0.6152(2) 0.0859(2)
C34 C -0.27113(18) 0.7661(3) 0.3283(2)
H10 H -0.2691 0.8313 0.3016
C35 C 0.4023(2) 0.5978(3) 0.3891(3)
H11 H 0.4525 0.6081 0.3933
C36 C -0.24554(18) 0.6892(3) 0.0859(2)
H12 H -0.2398 0.7482 0.0529
H13 H -0.035(3) 0.757(4) 0.032(3)
H14 H 0.0197(19) 0.815(3) 0.033(2)
Ho1 Ho 0.028296(7) 0.796515(10) 0.224343(9)
Ho2 Ho -0.475920(7) 0.444740(10) 0.209040(9)
N1 N -0.39432(14) 0.5859(2) 0.16522(18)
N2 N -0.37727(15) 0.7298(2) 0.09003(19)
H15 H -0.3870 0.7892 0.0621
N3 N -0.14181(15) 0.5574(2) 0.40933(19)
H16 H -0.1274 0.4982 0.4364
N4 N -0.13933(15) 0.7052(2) 0.33938(19)
H17 H -0.1232 0.7563 0.3139
N5 N 0.10941(14) 0.6593(2) 0.17381(19)
N6 N 0.12156(16) 0.5239(2) 0.0871(2)
H18 H 0.1105 0.4672 0.0552
N7 N 0.36322(16) 0.6592(3) 0.4266(2)
H19 H 0.3799 0.7146 0.4586
N8 N 0.35944(16) 0.5192(2) 0.3445(2)
H20 H 0.3733 0.4704 0.3145
O1 O -0.41772(13) 0.59735(19) 0.47816(15)
O2 O -0.45404(13) 0.5421(2) 0.33489(16)
O3 O -0.45703(14) 0.7843(2) 0.34905(19)
O4 O -0.40847(13) 0.87804(18) 0.26281(17)
O5 O -0.10846(14) 0.6488(2) 0.02570(15)
O6 O -0.06039(12) 0.66358(18) 0.17698(15)
O7 O -0.09035(14) 0.42932(19) 0.15590(17)
O8 O -0.13437(13) 0.39154(19) 0.26871(17)
O9 O -0.00876(15) 0.8043(2) 0.06582(16)
O10 O 0.05221(13) 0.70418(18) 0.35677(15)
O11 O 0.08668(14) 0.6196(2) 0.48870(16)
O12 O 0.03174(13) 0.46872(19) 0.32777(17)
O13 O 0.08811(13) 0.36170(19) 0.25831(17)
O14 O 0.36825(14) 0.8493(2) 0.2761(2)
O15 O 0.41886(15) 0.8073(2) 0.17107(18)
O16 O -0.48346(15) 0.4151(2) 0.05634(16)
H21 H -0.4428 0.3903 0.0512
H22 H -0.4991 0.4402 0.0031
O17 O 0.37897(15) 0.6490(2) 0.00966(17)
O18 O 0.43390(14) 0.5633(2) 0.13798(18)
Ho1A Ho -0.028296(7) 0.296515(10) 0.275657(9)
Ho2A Ho -0.524080(7) 0.944740(10) 0.290960(9)
Ho2A_2 Ho 0.475920(7) 0.944740(10) 0.290960(9)
Ho2_2 Ho 0.524080(7) 0.444740(10) 0.209040(9)
O3A O -0.54297(14) 0.2843(2) 0.15095(19)
O4A O -0.59153(13) 0.37804(18) 0.23719(17)
O7A O 0.09035(14) 0.92932(19) 0.34410(17)
O8A O 0.13437(13) 0.89154(19) 0.23129(17)
O12A O -0.03174(13) 0.96872(19) 0.17223(17)
O13A O -0.08811(13) 0.86170(19) 0.24169(17)
O14A O -0.36825(14) 0.3493(2) 0.2239(2)
O15A O -0.41886(15) 0.3073(2) 0.32893(18)
O18_2 O -0.56610(14) 0.5633(2) 0.13798(18)
loop_
_geom_bond_atom_site_label_1
_geom_bond_atom_site_label_2
_geom_bond_site_symmetry_1
_geom_bond_site_symmetry_2
C1 H1 1_555 1_555
C2 C27 1_555 1_555
C3 H2 1_555 1_555
C4 C15 1_555 1_555
C5 C32 1_555 1_555
C6 C26 1_555 1_555
C7 C18 1_555 1_555
C8 C22 1_555 1_555
C9 C17 1_555 1_555
C10 H3 1_555 1_555
C11 C10 1_555 1_555
C12 C13 1_555 1_555
C13 H4 1_555 1_555
C14 C17 1_555 1_555
C15 C13 1_555 1_555
C16 C19 1_555 1_555
C17 C10 1_555 1_555
C18 C15 1_555 1_555
C19 C21 1_555 1_555
C20 C9 1_555 1_555
H5 C20 1_555 1_555
C21 H6 1_555 1_555
C22 C21 1_555 1_555
C23 H7 1_555 1_555
C24 C12 1_555 1_555
C25 C11 1_555 1_555
C26 C22 1_555 1_555
C27 C28 1_555 1_555
C28 H8 1_555 1_555
C29 H9 1_555 1_555
C30 C28 1_555 1_555
C31 C29 1_555 1_555
C32 C27 1_555 1_555
C33 C9 1_555 1_555
C34 C16 1_555 1_555
H10 C34 1_555 1_555
C35 H11 1_555 1_555
C36 C18 1_555 1_555
H12 C36 1_555 1_555
H13 O9 1_555 1_555
H14 O9 1_555 1_555
Ho1 N5 1_555 1_555
Ho2 N1 1_555 1_555
N1 C12 1_555 1_555
N2 C23 1_555 1_555
H15 N2 1_555 1_555
N3 C3 1_555 1_555
H16 N3 1_555 1_555
N4 C3 1_555 1_555
H17 N4 1_555 1_555
N5 C1 1_555 1_555
N6 C1 1_555 1_555
H18 N6 1_555 1_555
N7 C30 1_555 1_555
H19 N7 1_555 1_555
N8 C31 1_555 1_555
H20 N8 1_555 1_555
O1 C8 1_555 1_555
O2 C8 1_555 1_555
O3 C6 1_555 1_555
O4 C6 1_555 1_555
O5 C7 1_555 1_555
O6 C7 1_555 1_555
O7 C4 1_555 1_555
O8 C4 1_555 1_555
O9 Ho1 1_555 1_555
O10 C2 1_555 1_555
O11 C2 1_555 1_555
O12 C5 1_555 1_555
O13 C5 1_555 1_555
O14 C14 1_555 1_555
O15 C14 1_555 1_555
O16 Ho2 1_555 1_555
H21 O16 1_555 1_555
H22 O16 1_555 1_555
O17 C33 1_555 1_555
O18 C33 1_555 1_555
Ho1A O7 1_555 1_555
Ho2A O3 1_555 1_555
Ho2A_2 O14 1_555 1_555
Ho2_2 O18 1_555 1_555
O3A Ho2 1_555 1_555
O4A Ho2 1_555 1_555
O7A Ho1 1_555 1_555
O8A Ho1 1_555 1_555
O12A Ho1 1_555 1_555
O13A Ho1 1_555 1_555
O14A Ho2 1_555 1_555
O15A Ho2 1_555 1_555
O18_2 Ho2 1_555 1_555
C11 N5 1_555 1_555
C16 N4 1_555 1_555
C19 N3 1_555 1_555
C20 C25 1_555 1_555
C23 N1 1_555 1_555
C24 C36 1_555 1_555
C24 N2 1_555 1_555
C25 N6 1_555 1_555
C26 C34 1_555 1_555
C29 C32 1_555 1_555
C30 C31 1_555 1_555
C35 N7 1_555 1_555
C35 N8 1_555 1_555
Ho1 O6 1_555 1_555
Ho1 O10 1_555 1_555
Ho2 O2 1_555 1_555
O4 Ho2A 1_555 1_555
O8 Ho1A 1_555 1_555
O12 Ho1A 1_555 1_555
O13 Ho1A 1_555 1_555
O15 Ho2A_2 1_555 1_555

#END
