
#######################################################################
#
#                 Cambridge Crystallographic Data Centre
#                                CCDC 
#
#######################################################################
#
# If this CIF has been generated from an entry in the Cambridge 
# Structural Database, then it will include bibliographic, chemical, 
# crystal, experimental, refinement or atomic coordinate data resulting 
# from the CCDC's data processing and validation procedures.
#
#######################################################################

data_OFIWAD
_symmetry_cell_setting           orthorhombic
_symmetry_space_group_name_H-M   'P 21 21 21'
_symmetry_Int_Tables_number      19
_space_group_name_Hall           'P 2ac 2ab'
loop_
_symmetry_equiv_pos_site_id
_symmetry_equiv_pos_as_xyz
1 x,y,z
2 1/2-x,-y,1/2+z
3 -x,1/2+y,1/2-z
4 1/2+x,1/2-y,-z
_cell_length_a                   11.861(2)
_cell_length_b                   20.370(4)
_cell_length_c                   25.040(5)
_cell_angle_alpha                90
_cell_angle_beta                 90
_cell_angle_gamma                90
_cell_volume                     6049.88
loop_
_atom_site_label
_atom_site_type_symbol
_atom_site_fract_x
_atom_site_fract_y
_atom_site_fract_z
Zn1 Zn 0.13876(6) 0.49682(3) 1.00526(3)
Zn2 Zn -0.06282(6) 0.47726(3) 1.08748(3)
Zn3 Zn 0.17158(7) 0.40613(4) 1.10790(3)
Zn4 Zn 0.01832(7) 0.36601(3) 1.00648(3)
Zn5 Zn 0.32421(6) 0.51415(3) 0.91313(3)
Zn6 Zn 0.09087(6) 0.58750(3) 0.90231(3)
Zn7 Zn 0.25804(7) 0.62664(3) 0.99733(3)
N1 N 0.0095(5) 0.3265(2) 0.93024(19)
N2 N 0.1046(5) 0.2440(3) 0.7490(2)
N3 N 0.2161(5) 0.3245(2) 0.5682(2)
C1 C -0.0395(5) 0.2668(3) 0.9251(2)
H1 H -0.0839 0.2505 0.9538
C2 C -0.0274(6) 0.2294(3) 0.8803(2)
H2 H -0.0657 0.1886 0.8771
C3 C 0.0429(6) 0.2522(3) 0.8388(2)
C4 C 0.0854(7) 0.3155(3) 0.8429(2)
H3 H 0.1281 0.3336 0.8144
C5 C 0.0656(6) 0.3521(3) 0.8885(2)
H4 H 0.0920 0.3961 0.8904
C6 C 0.0744(6) 0.2105(3) 0.7927(2)
C7 C 0.0809(6) 0.1426(3) 0.7968(2)
H5 H 0.0577 0.1209 0.8285
C8 C 0.1229(5) 0.1062(3) 0.7525(2)
C9 C 0.1461(6) 0.1397(3) 0.7057(2)
H6 H 0.1693 0.1167 0.6746
C10 C 0.1349(6) 0.2078(3) 0.7051(2)
C11 C 0.2147(8) 0.3505(3) 0.6160(3)
H7 H 0.2332 0.3956 0.6199
C12 C 0.1870(8) 0.3144(3) 0.6611(3)
H8 H 0.1849 0.3355 0.6949
C13 C 0.1625(6) 0.2483(3) 0.6575(2)
C14 C 0.1651(5) 0.2209(3) 0.6070(2)
H9 H 0.1506 0.1755 0.6016
C15 C 0.1900(5) 0.2625(3) 0.5644(2)
H10 H 0.1877 0.2440 0.5295
C16 C 0.1466(5) 0.0345(3) 0.7581(2)
C17 C 0.1860(5) 0.0086(3) 0.8060(2)
H11 H 0.1940 0.0362 0.8363
C18 C 0.2137(5) -0.0576(3) 0.8098(3)
H12 H 0.2385 -0.0747 0.8430
C19 C 0.2057(6) -0.0996(3) 0.7654(3)
C20 C 0.1678(6) -0.0742(3) 0.7178(3)
H13 H 0.1641 -0.1016 0.6872
C21 C 0.1339(6) -0.0075(3) 0.7138(2)
H14 H 0.1029 0.0088 0.6814
C22 C 0.2364(7) -0.1699(3) 0.7701(3)
C23 C 0.1629(7) -0.2184(4) 0.7622(3)
H15 H 0.0899 -0.2059 0.7503
C24 C 0.1811(9) -0.2853(4) 0.7695(4)
H16 H 0.1244 -0.3157 0.7591
C25 C 0.2748(9) -0.3070(5) 0.7903(5)
H17 H 0.2877 -0.3528 0.7944
C26 C 0.3603(8) -0.2588(4) 0.8076(4)
C27 C 0.3410(8) -0.1915(4) 0.7972(3)
C28 C 0.4258(8) -0.1436(4) 0.8105(3)
H18 H 0.4150 -0.0980 0.8042
C29 C 0.5244(8) -0.1678(5) 0.8330(4)
H19 H 0.5852 -0.1386 0.8399
C30 C 0.5357(9) -0.2342(5) 0.8455(4)
H20 H 0.6011 -0.2475 0.8645
C31 C 0.4577(9) -0.2818(5) 0.8319(4)
H21 H 0.4700 -0.3271 0.8388
O1 O 0.0652(4) 0.43554(18) 1.05563(15)
O2 O 0.2050(4) 0.55692(19) 0.95092(16)
O3 O 0.2860(4) 0.5214(2) 1.04992(17)
O4 O 0.3308(4) 0.4345(2) 1.10115(19)
C32 C 0.3596(7) 0.4873(3) 1.0760(3)
C33 C 0.4732(7) 0.5117(5) 1.0785(4)
H22 H 0.4964 0.5158 1.1159
H23 H 0.4770 0.5548 1.0612
H24 H 0.5238 0.4811 1.0601
O5 O 0.0754(4) 0.58758(19) 1.03894(15)
O6 O -0.0985(4) 0.5675(2) 1.0661(2)
C34 C -0.0222(6) 0.6046(3) 1.0504(3)
C35 C -0.0495(8) 0.6735(4) 1.0376(5)
H25 H 0.0150 0.7015 1.0464
H26 H -0.1153 0.6874 1.0584
H27 H -0.0663 0.6774 0.9994
O7 O -0.0434(4) 0.4803(3) 1.16406(18)
O8 O 0.1214(5) 0.4323(3) 1.18006(18)
C36 C 0.0296(6) 0.4568(4) 1.1960(3)
C37 C 0.0059(7) 0.4595(6) 1.2546(3)
H28 H 0.0207 0.4165 1.2705
H29 H -0.0733 0.4714 1.2603
H30 H 0.0547 0.4925 1.2713
O9 O 0.1837(5) 0.3105(2) 1.10971(18)
O10 O 0.0772(4) 0.2819(2) 1.03970(18)
C38 C 0.1352(6) 0.2690(3) 1.0798(3)
C39 C 0.1512(9) 0.1982(4) 1.0940(3)
H31 H 0.0778 0.1782 1.1015
H32 H 0.1991 0.1949 1.1258
H33 H 0.1873 0.1752 1.0642
O11 O -0.1480(4) 0.3497(2) 1.02102(17)
O12 O -0.2061(4) 0.4310(2) 1.07558(18)
C40 C -0.2212(7) 0.3796(4) 1.0472(3)
C41 C -0.3375(8) 0.3538(5) 1.0448(4)
H34 H -0.3888 0.3886 1.0330
H35 H -0.3602 0.3386 1.0804
H36 H -0.3407 0.3171 1.0196
O13 O 0.2081(4) 0.4063(2) 0.97440(16)
O14 O 0.3734(4) 0.4277(2) 0.9388(2)
C42 C 0.3014(6) 0.3879(3) 0.9572(2)
C43 C 0.3286(8) 0.3154(3) 0.9571(4)
H37 H 0.4084 0.3091 0.9660
H38 H 0.3134 0.2971 0.9216
H39 H 0.2818 0.2929 0.9837
O15 O -0.0145(4) 0.47377(19) 0.95747(15)
O16 O -0.0698(4) 0.56410(19) 0.91450(17)
C44 C -0.0877(5) 0.5087(3) 0.9372(2)
C45 C -0.2085(6) 0.4871(4) 0.9376(3)
H40 H -0.2122 0.4394 0.9334
H41 H -0.2489 0.5083 0.9081
H42 H -0.2433 0.4997 0.9716
O17 O 0.2719(5) 0.4935(3) 0.8401(2)
O18 O 0.1152(5) 0.5514(3) 0.82995(18)
C46 C 0.1883(7) 0.5141(4) 0.8148(3)
C47 C 0.1753(7) 0.4880(4) 0.7576(3)
H43 H 0.2203 0.4480 0.7534
H44 H 0.2014 0.5213 0.7322
H45 H 0.0958 0.4780 0.7507
O19 O 0.4608(4) 0.5679(2) 0.9104(2)
O20 O 0.4217(4) 0.6361(2) 0.97799(19)
C48 C 0.4855(7) 0.6123(4) 0.9438(4)
C49 C 0.6052(8) 0.6396(5) 0.9378(5)
H46 H 0.6093 0.6831 0.9543
H47 H 0.6240 0.6430 0.8998
H48 H 0.6588 0.6100 0.9554
O21 O 0.0827(4) 0.6827(2) 0.89497(16)
O22 O 0.2008(4) 0.7103(2) 0.96095(17)
C50 C 0.1349(5) 0.7237(3) 0.9240(2)
C51 C 0.1170(6) 0.7959(3) 0.9113(3)
H49 H 0.1244 0.8028 0.8727
H50 H 0.1737 0.8222 0.9301
H51 H 0.0415 0.8092 0.9229
Zn7A Zn 0.24196(7) 0.37336(3) 0.49733(3)
N3A N 0.2839(5) 0.6755(2) 1.0682(2)
Cl1 Cl 0.6242(4) -0.3021(2) 0.6682(2)
Cl2 Cl 0.6041(4) -0.1606(2) 0.68318(17)
C52 C 0.5612(14) -0.2353(8) 0.7027(7)
H52 H 0.4784 -0.2380 0.6980
H53 H 0.5772 -0.2402 0.7413
loop_
_geom_bond_atom_site_label_1
_geom_bond_atom_site_label_2
_geom_bond_site_symmetry_1
_geom_bond_site_symmetry_2
Zn1 O1 1_555 1_555
Zn2 O1 1_555 1_555
Zn3 O1 1_555 1_555
Zn4 N1 1_555 1_555
Zn5 O2 1_555 1_555
Zn6 O2 1_555 1_555
Zn7 O2 1_555 1_555
N1 C1 1_555 1_555
N2 C6 1_555 1_555
N3 C11 1_555 1_555
C1 H1 1_555 1_555
C2 C1 1_555 1_555
H2 C2 1_555 1_555
C3 C2 1_555 1_555
C4 C3 1_555 1_555
H3 C4 1_555 1_555
C5 N1 1_555 1_555
H4 C5 1_555 1_555
C6 C3 1_555 1_555
C7 C6 1_555 1_555
H5 C7 1_555 1_555
C8 C7 1_555 1_555
C9 C8 1_555 1_555
H6 C9 1_555 1_555
C10 N2 1_555 1_555
C11 H7 1_555 1_555
C12 C11 1_555 1_555
H8 C12 1_555 1_555
C13 C10 1_555 1_555
C14 C13 1_555 1_555
H9 C14 1_555 1_555
C15 N3 1_555 1_555
H10 C15 1_555 1_555
C16 C8 1_555 1_555
C17 C16 1_555 1_555
H11 C17 1_555 1_555
C18 C17 1_555 1_555
H12 C18 1_555 1_555
C19 C18 1_555 1_555
C20 C19 1_555 1_555
H13 C20 1_555 1_555
C21 C16 1_555 1_555
H14 C21 1_555 1_555
C22 C19 1_555 1_555
C23 C22 1_555 1_555
H15 C23 1_555 1_555
C24 C23 1_555 1_555
H16 C24 1_555 1_555
C25 C24 1_555 1_555
H17 C25 1_555 1_555
C26 C25 1_555 1_555
C27 C22 1_555 1_555
C28 C27 1_555 1_555
H18 C28 1_555 1_555
C29 C28 1_555 1_555
H19 C29 1_555 1_555
C30 C29 1_555 1_555
H20 C30 1_555 1_555
C31 C26 1_555 1_555
H21 C31 1_555 1_555
O1 Zn4 1_555 1_555
O2 Zn1 1_555 1_555
O3 Zn1 1_555 1_555
O4 Zn3 1_555 1_555
C32 O3 1_555 1_555
C33 C32 1_555 1_555
H22 C33 1_555 1_555
H23 C33 1_555 1_555
H24 C33 1_555 1_555
O5 Zn1 1_555 1_555
O6 Zn2 1_555 1_555
C34 O5 1_555 1_555
C35 C34 1_555 1_555
H25 C35 1_555 1_555
H26 C35 1_555 1_555
H27 C35 1_555 1_555
O7 Zn2 1_555 1_555
O8 Zn3 1_555 1_555
C36 O7 1_555 1_555
C37 C36 1_555 1_555
H28 C37 1_555 1_555
H29 C37 1_555 1_555
H30 C37 1_555 1_555
O9 Zn3 1_555 1_555
O10 Zn4 1_555 1_555
C38 O9 1_555 1_555
C39 C38 1_555 1_555
H31 C39 1_555 1_555
H32 C39 1_555 1_555
H33 C39 1_555 1_555
O11 Zn4 1_555 1_555
O12 Zn2 1_555 1_555
C40 O11 1_555 1_555
C41 C40 1_555 1_555
H34 C41 1_555 1_555
H35 C41 1_555 1_555
H36 C41 1_555 1_555
O13 Zn1 1_555 1_555
O14 Zn5 1_555 1_555
C42 O13 1_555 1_555
C43 C42 1_555 1_555
H37 C43 1_555 1_555
H38 C43 1_555 1_555
H39 C43 1_555 1_555
O15 Zn1 1_555 1_555
O16 Zn6 1_555 1_555
C44 O15 1_555 1_555
C45 C44 1_555 1_555
H40 C45 1_555 1_555
H41 C45 1_555 1_555
H42 C45 1_555 1_555
O17 Zn5 1_555 1_555
O18 Zn6 1_555 1_555
C46 O17 1_555 1_555
C47 C46 1_555 1_555
H43 C47 1_555 1_555
H44 C47 1_555 1_555
H45 C47 1_555 1_555
O19 Zn5 1_555 1_555
O20 Zn7 1_555 1_555
C48 O19 1_555 1_555
C49 C48 1_555 1_555
H46 C49 1_555 1_555
H47 C49 1_555 1_555
H48 C49 1_555 1_555
O21 Zn6 1_555 1_555
O22 Zn7 1_555 1_555
C50 O21 1_555 1_555
C51 C50 1_555 1_555
H49 C51 1_555 1_555
H50 C51 1_555 1_555
H51 C51 1_555 1_555
Cl1 C52 1_555 1_555
Cl2 C52 1_555 1_555
C52 H52 1_555 1_555
H53 C52 1_555 1_555
Zn7A N3 1_555 1_555
N3A Zn7 1_555 1_555
Zn4 O13 1_555 1_555
Zn4 O15 1_555 1_555
Zn7 O3 1_555 1_555
Zn7 O5 1_555 1_555
C4 C5 1_555 1_555
C9 C10 1_555 1_555
C12 C13 1_555 1_555
C14 C15 1_555 1_555
C20 C21 1_555 1_555
C26 C27 1_555 1_555
C30 C31 1_555 1_555
O4 C32 1_555 1_555
O6 C34 1_555 1_555
O8 C36 1_555 1_555
O10 C38 1_555 1_555
O12 C40 1_555 1_555
O14 C42 1_555 1_555
O16 C44 1_555 1_555
O18 C46 1_555 1_555
O20 C48 1_555 1_555
O22 C50 1_555 1_555

#END
