
#######################################################################
#
#                 Cambridge Crystallographic Data Centre
#                                CCDC 
#
#######################################################################
#
# If this CIF has been generated from an entry in the Cambridge 
# Structural Database, then it will include bibliographic, chemical, 
# crystal, experimental, refinement or atomic coordinate data resulting 
# from the CCDC's data processing and validation procedures.
#
#######################################################################

data_OFIXOR
_symmetry_cell_setting           orthorhombic
_symmetry_space_group_name_H-M   'P n a 21'
_symmetry_Int_Tables_number      33
_space_group_name_Hall           'P 2c -2n'
loop_
_symmetry_equiv_pos_site_id
_symmetry_equiv_pos_as_xyz
1 x,y,z
2 -x,-y,1/2+z
3 1/2+x,1/2-y,z
4 1/2-x,1/2+y,1/2+z
_cell_length_a                   10.790(6)
_cell_length_b                   17.585(10)
_cell_length_c                   5.148(3)
_cell_angle_alpha                90
_cell_angle_beta                 90
_cell_angle_gamma                90
_cell_volume                     976.793
loop_
_atom_site_label
_atom_site_type_symbol
_atom_site_fract_x
_atom_site_fract_y
_atom_site_fract_z
Zn1 Zn 0.098842(19) 0.516726(12) 0.41913(9)
O1 O 0.27391(19) 0.63903(11) 0.4955(4)
O2 O 0.12289(15) 0.61113(9) 0.2200(4)
O3 O -0.04733(18) 0.46992(10) 0.2694(3)
H1 H -0.0854 0.4357 0.3542
N1 N 0.25084(18) 0.94779(11) -0.1564(4)
C1 C 0.1282(2) 0.75662(13) 0.0088(6)
H2 H 0.0648 0.7238 -0.0401
C2 C 0.2117(2) 0.73401(12) 0.1908(5)
C3 C 0.3082(2) 0.78392(14) 0.2635(5)
H3 H 0.3646 0.7689 0.3902
C4 C 0.3199(2) 0.85368(14) 0.1509(6)
H4 H 0.3840 0.8857 0.2020
C5 C 0.1697(3) 0.96942(14) -0.3329(6)
H5 H 0.1815 1.0160 -0.4147
C6 C 0.0668(3) 0.92580(17) -0.4032(7)
H6 H 0.0102 0.9441 -0.5243
C7 C 0.0501(3) 0.85593(15) -0.2921(7)
H7 H -0.0177 0.8262 -0.3380
C8 C 0.1364(2) 0.82918(12) -0.1071(7)
C9 C 0.23611(19) 0.87786(12) -0.0422(6)
C10 C 0.2047(2) 0.65614(13) 0.3151(5)
Zn1A Zn -0.098842(19) 0.483274(12) -0.08087(9)
Zn1C Zn 0.401158(19) 1.016726(12) -0.08087(9)
O3A O 0.04733(18) 0.53008(10) 0.7694(3)
H1A H 0.0854 0.5643 0.8542
N1C N 0.24916(18) 0.44779(11) 0.3436(4)
loop_
_geom_bond_atom_site_label_1
_geom_bond_atom_site_label_2
_geom_bond_site_symmetry_1
_geom_bond_site_symmetry_2
Zn1 O2 1_555 1_555
O1 C10 1_555 1_555
O2 C10 1_555 1_555
O3 Zn1 1_555 1_555
H1 O3 1_555 1_555
N1 C5 1_555 1_555
C1 H2 1_555 1_555
C2 C1 1_555 1_555
C3 C2 1_555 1_555
H3 C3 1_555 1_555
C4 C3 1_555 1_555
H4 C4 1_555 1_555
C5 H5 1_555 1_555
C6 C5 1_555 1_555
H6 C6 1_555 1_555
C7 C6 1_555 1_555
H7 C7 1_555 1_555
C8 C1 1_555 1_555
C9 N1 1_555 1_555
C10 C2 1_555 1_555
Zn1A O3 1_555 1_555
Zn1C N1 1_555 1_555
O3A Zn1 1_555 1_555
H1A O3A 1_555 1_555
N1C Zn1 1_555 1_555
C4 C9 1_555 1_555
C7 C8 1_555 1_555
C8 C9 1_555 1_555

#END
