
#######################################################################
#
#                 Cambridge Crystallographic Data Centre
#                                CCDC 
#
#######################################################################
#
# If this CIF has been generated from an entry in the Cambridge 
# Structural Database, then it will include bibliographic, chemical, 
# crystal, experimental, refinement or atomic coordinate data resulting 
# from the CCDC's data processing and validation procedures.
#
#######################################################################

data_OFIZEJ
_symmetry_cell_setting           monoclinic
_symmetry_space_group_name_H-M   'C m'
_symmetry_Int_Tables_number      8
_space_group_name_Hall           'C -2y'
loop_
_symmetry_equiv_pos_site_id
_symmetry_equiv_pos_as_xyz
1 x,y,z
2 x,-y,z
3 1/2+x,1/2+y,z
4 1/2+x,1/2-y,z
_cell_length_a                   10.894(6)
_cell_length_b                   20.828(12)
_cell_length_c                   5.325(3)
_cell_angle_alpha                90
_cell_angle_beta                 104.344(10)
_cell_angle_gamma                90
_cell_volume                     1170.58
loop_
_atom_site_label
_atom_site_type_symbol
_atom_site_fract_x
_atom_site_fract_y
_atom_site_fract_z
Cu1 Cu 0.55177(19) 1.0000 0.7607(3)
Cu2 Cu 0.37562(13) 0.90733(6) 1.1978(2)
Cu3 Cu 0.73569(14) 0.93286(6) 0.2136(3)
Cl1 Cl 0.7311(3) 1.0000 0.5667(6)
Cl2 Cl 0.2489(3) 0.82301(12) 1.1804(6)
Cl3 Cl 0.9136(3) 0.89004(14) 0.1765(5)
S1 S 0.5363(2) 0.90818(11) 1.0021(5)
S2 S 0.3663(3) 1.0000 0.4051(6)
N1 N 0.5555(10) 0.7331(4) 0.5176(16)
H1 H 0.5582 0.7001 0.4218
N2 N 0.0638(12) 1.0000 0.846(2)
H2 H 0.0064 1.0000 0.9314
C1 C 0.5447(9) 0.8394(4) 0.8200(17)
C2 C 0.6315(12) 0.8357(4) 0.661(2)
H3 H 0.6877 0.8693 0.6604
C3 C 0.6332(12) 0.7837(5) 0.511(2)
H4 H 0.6880 0.7826 0.4016
C4 C 0.4750(12) 0.7335(5) 0.670(2)
H5 H 0.4227 0.6983 0.6723
C5 C 0.4693(11) 0.7858(5) 0.824(2)
H6 H 0.4141 0.7853 0.9321
C6 C 0.2448(13) 1.0000 0.571(3)
C7 C 0.1968(10) 0.9429(5) 0.6484(19)
H7 H 0.2276 0.9037 0.6070
C8 C 0.1064(9) 0.9438(6) 0.7823(18)
H8 H 0.0743 0.9056 0.8298
Cu2A Cu 0.37562(13) 1.09267(6) 1.1978(2)
Cu2_2 Cu 0.37562(13) 0.90733(6) 0.1978(2)
Cu2A_2 Cu 0.37562(13) 1.09267(6) 0.1978(2)
Cu3A Cu 0.73569(14) 1.06714(6) 0.2136(3)
Cu3_2 Cu 0.73569(14) 0.93286(6) 1.2136(3)
Cu3A_2 Cu 0.73569(14) 1.06714(6) 1.2136(3)
Cl2A Cl 0.2489(3) 1.17699(12) 1.1804(6)
Cl3A Cl 0.9136(3) 1.10996(14) 0.1765(5)
S1A S 0.5363(2) 1.09182(11) 1.0021(5)
S1_2 S 0.5363(2) 0.90818(11) 0.0021(5)
S1A_2 S 0.5363(2) 1.09182(11) 0.0021(5)
S2_2 S 0.3663(3) 1.0000 1.4051(6)
N1A N 0.5555(10) 1.2669(4) 0.5176(16)
H1A H 0.5582 1.2999 0.4218
C1A C 0.5447(9) 1.1606(4) 0.8200(17)
C2A C 0.6315(12) 1.1643(4) 0.661(2)
H3A H 0.6877 1.1307 0.6604
C3A C 0.6332(12) 1.2163(5) 0.511(2)
H4A H 0.6880 1.2174 0.4016
C4A C 0.4750(12) 1.2665(5) 0.670(2)
H5A H 0.4227 1.3017 0.6723
C5A C 0.4693(11) 1.2142(5) 0.824(2)
H6A H 0.4141 1.2147 0.9321
C7A C 0.1968(10) 1.0571(5) 0.6484(19)
H7A H 0.2276 1.0963 0.6070
C8A C 0.1064(9) 1.0562(6) 0.7823(18)
H8A H 0.0743 1.0944 0.8298
loop_
_geom_bond_atom_site_label_1
_geom_bond_atom_site_label_2
_geom_bond_site_symmetry_1
_geom_bond_site_symmetry_2
Cu1 Cl1 1_555 1_555
Cu2 Cl2 1_555 1_555
Cu3 Cl1 1_555 1_555
Cl1 Cu3A 1_555 1_555
Cl3 Cu3 1_555 1_555
S1 Cu1 1_555 1_555
S2 Cu1 1_555 1_555
N1 H1 1_555 1_555
N2 H2 1_555 1_555
C1 S1 1_555 1_555
C2 C1 1_555 1_555
H3 C2 1_555 1_555
C3 N1 1_555 1_555
H4 C3 1_555 1_555
C4 N1 1_555 1_555
H5 C4 1_555 1_555
C5 C1 1_555 1_555
H6 C5 1_555 1_555
C6 S2 1_555 1_555
C7 C6 1_555 1_555
H7 C7 1_555 1_555
C8 N2 1_555 1_555
H8 C8 1_555 1_555
Cu2A Cl2A 1_555 1_555
Cu2_2 S2 1_555 1_555
Cu2A_2 S2 1_555 1_555
Cu3A Cl3A 1_555 1_555
Cu3_2 S1 1_555 1_555
Cu3A_2 S1A 1_555 1_555
S1A Cu1 1_555 1_555
S1_2 Cu3 1_555 1_555
S1A_2 Cu2A_2 1_555 1_555
S2_2 Cu2 1_555 1_555
N1A H1A 1_555 1_555
C1A S1A 1_555 1_555
C2A C1A 1_555 1_555
H3A C2A 1_555 1_555
C3A N1A 1_555 1_555
H4A C3A 1_555 1_555
C4A N1A 1_555 1_555
H5A C4A 1_555 1_555
C5A C1A 1_555 1_555
H6A C5A 1_555 1_555
C7A C6 1_555 1_555
H7A C7A 1_555 1_555
C8A N2 1_555 1_555
H8A C8A 1_555 1_555
Cu2 S1 1_555 1_555
C2 C3 1_555 1_555
C4 C5 1_555 1_555
C7 C8 1_555 1_555
Cu2A S1A 1_555 1_555
Cu2A S2_2 1_555 1_555
Cu2_2 S1_2 1_555 1_555
Cu3A S1A_2 1_555 1_555
C2A C3A 1_555 1_555
C4A C5A 1_555 1_555
C7A C8A 1_555 1_555

#END
