
#######################################################################
#
#                 Cambridge Crystallographic Data Centre
#                                CCDC 
#
#######################################################################
#
# If this CIF has been generated from an entry in the Cambridge 
# Structural Database, then it will include bibliographic, chemical, 
# crystal, experimental, refinement or atomic coordinate data resulting 
# from the CCDC's data processing and validation procedures.
#
#######################################################################

data_OFODAP
_symmetry_cell_setting           orthorhombic
_symmetry_space_group_name_H-M   'P n a 21'
_symmetry_Int_Tables_number      33
_space_group_name_Hall           'P 2c -2n'
loop_
_symmetry_equiv_pos_site_id
_symmetry_equiv_pos_as_xyz
1 x,y,z
2 -x,-y,1/2+z
3 1/2+x,1/2-y,z
4 1/2-x,1/2+y,1/2+z
_cell_length_a                   23.5160(11)
_cell_length_b                   15.1207(7)
_cell_length_c                   12.8597(6)
_cell_angle_alpha                90
_cell_angle_beta                 90
_cell_angle_gamma                90
_cell_volume                     4572.63
loop_
_atom_site_label
_atom_site_type_symbol
_atom_site_fract_x
_atom_site_fract_y
_atom_site_fract_z
Cd1 Cd -0.38505(4) -0.36013(6) -0.36730(8)
Cd2 Cd -0.50014(4) -0.23267(5) -0.25250(9)
O1 O -0.5016(4) -0.3574(7) -0.1379(8)
O2 O -0.4191(4) -0.3220(6) -0.2067(7)
O3 O -0.5230(5) -0.6150(8) 0.0839(8)
O4 O -0.4498(4) -0.6970(6) 0.1268(10)
O5 O -0.1168(4) -0.7160(7) 0.0915(8)
O6 O -0.0398(4) -0.6404(6) 0.1375(11)
O7 O -0.0786(4) -0.3291(7) -0.1913(8)
O8 O -0.0085(4) -0.3749(6) -0.1056(8)
O9 O -0.2935(4) -0.3505(7) -0.3285(9)
O10 O -0.3641(5) -0.4083(9) -0.5290(9)
O11 O -0.3814(5) -0.5044(6) -0.3237(7)
N1 N -0.2809(4) -0.5368(8) -0.0151(9)
N2 N -0.2503(4) -0.4819(8) -0.0535(9)
N3 N -0.2026(5) -0.3913(9) -0.3511(14)
N4 N -0.4031(8) -0.4438(12) -0.6892(12)
N5 N -0.3967(5) -0.6484(9) -0.3641(15)
C1 C -0.4499(6) -0.3712(9) -0.1469(10)
C2 C -0.4227(5) -0.4437(9) -0.0908(10)
C3 C -0.4583(5) -0.5062(9) -0.0340(9)
H1 H -0.4976 -0.4998 -0.0348
C4 C -0.4348(5) -0.5718(9) 0.0188(10)
C5 C -0.4719(6) -0.6337(11) 0.0786(11)
C6 C -0.3768(5) -0.5831(10) 0.0217(11)
H2 H -0.3615 -0.6317 0.0562
C7 C -0.3404(6) -0.5223(10) -0.0268(12)
C8 C -0.3628(5) -0.4541(9) -0.0873(11)
H3 H -0.3391 -0.4164 -0.1244
C9 C -0.1925(5) -0.4946(10) -0.0379(10)
C10 C -0.1708(5) -0.5658(9) 0.0184(10)
H4 H -0.1955 -0.6074 0.0464
C11 C -0.1104(6) -0.5756(10) 0.0337(10)
C12 C -0.0866(7) -0.6492(9) 0.0935(10)
C13 C -0.0746(5) -0.5059(12) -0.0110(11)
H5 H -0.0356 -0.5082 0.0004
C14 C -0.0956(6) -0.4390(9) -0.0677(10)
C15 C -0.0573(6) -0.3746(9) -0.1280(12)
C16 C -0.1541(6) -0.4341(9) -0.0793(11)
H6 H -0.1688 -0.3871 -0.1174
C17 C -0.2583(7) -0.4034(14) -0.3395(12)
H7 H -0.2706 -0.4619 -0.3403
C18 C -0.1842(8) -0.3003(13) -0.372(2)
H8 H -0.2113 -0.2721 -0.4174
H9 H -0.1477 -0.3012 -0.4055
H10 H -0.1818 -0.2680 -0.3083
C19 C -0.1615(8) -0.4631(13) -0.374(2)
H11 H -0.1796 -0.5071 -0.4169
H12 H -0.1489 -0.4896 -0.3106
H13 H -0.1294 -0.4391 -0.4109
C20 C -0.3932(10) -0.3958(14) -0.6057(19)
H14 H -0.4122 -0.3418 -0.6053
C21 C -0.4409(10) -0.4118(17) -0.7746(18)
H15 H -0.4768 -0.4418 -0.7708
H16 H -0.4234 -0.4237 -0.8405
H17 H -0.4468 -0.3493 -0.7673
C22 C -0.3723(10) -0.5239(15) -0.7039(15)
H18 H -0.3346 -0.5174 -0.6760
H19 H -0.3699 -0.5369 -0.7769
H20 H -0.3914 -0.5713 -0.6688
C23 C -0.3970(7) -0.5604(11) -0.3766(19)
H21 H -0.4125 -0.5414 -0.4392
C24 C -0.4044(11) -0.7109(16) -0.4432(17)
H22 H -0.4202 -0.6825 -0.5034
H23 H -0.4299 -0.7562 -0.4196
H24 H -0.3685 -0.7369 -0.4609
C25 C -0.3679(12) -0.6748(18) -0.263(2)
H25 H -0.3296 -0.6526 -0.2619
H26 H -0.3673 -0.7381 -0.2570
H27 H -0.3886 -0.6503 -0.2052
Cd1A Cd -0.61495(4) -0.63987(6) 0.13270(8)
Cd1C Cd -0.11495(4) -0.86013(6) 0.13270(8)
Cd2A Cd -0.49986(4) -0.76733(5) 0.24750(9)
Cd2C Cd 0.00014(4) -0.73267(5) 0.24750(9)
Cd2B Cd -0.00014(4) -0.26733(5) -0.25250(9)
O3A O -0.4770(5) -0.3850(8) -0.4161(8)
O4A O -0.5502(4) -0.3030(6) -0.3732(10)
O5C O -0.3832(4) -0.2160(7) -0.4085(8)
O6C O -0.4602(4) -0.1404(6) -0.3625(11)
O7B O -0.5786(4) -0.1709(7) -0.1913(8)
O8B O -0.5085(4) -0.1251(6) -0.1056(8)
O12 O -0.7164(12) -0.127(2) -0.632(2)
N6 N -0.7760(11) -0.2067(17) -0.718(2)
C26 C -0.7525(16) -0.194(3) -0.633(3)
C27 C -0.8219(13) -0.279(2) -0.720(3)
C28 C -0.7623(17) -0.172(3) -0.817(3)
O13 O -0.7659(9) -0.8868(15) -0.464(2)
N7 N -0.7242(12) -0.8565(18) -0.6036(19)
C29 C -0.7469(11) -0.906(2) -0.546(2)
C30 C -0.678(3) -0.853(4) -0.679(5)
C31 C -0.713(2) -0.772(3) -0.585(4)
loop_
_geom_bond_atom_site_label_1
_geom_bond_atom_site_label_2
_geom_bond_site_symmetry_1
_geom_bond_site_symmetry_2
Cd1 O2 1_555 1_555
Cd2 O1 1_555 1_555
O1 C1 1_555 1_555
O2 Cd2 1_555 1_555
O3 C5 1_555 1_555
O4 C5 1_555 1_555
O5 C12 1_555 1_555
O6 C12 1_555 1_555
O7 C15 1_555 1_555
O8 C15 1_555 1_555
O9 Cd1 1_555 1_555
O10 Cd1 1_555 1_555
O11 Cd1 1_555 1_555
N1 N2 1_555 1_555
N2 C9 1_555 1_555
N3 C17 1_555 1_555
N4 C20 1_555 1_555
N5 C23 1_555 1_555
C1 O2 1_555 1_555
C2 C1 1_555 1_555
C3 C2 1_555 1_555
H1 C3 1_555 1_555
C4 C3 1_555 1_555
C5 C4 1_555 1_555
C6 C4 1_555 1_555
H2 C6 1_555 1_555
C7 N1 1_555 1_555
C8 C2 1_555 1_555
H3 C8 1_555 1_555
C9 C10 1_555 1_555
C10 H4 1_555 1_555
C11 C10 1_555 1_555
C12 C11 1_555 1_555
C13 C11 1_555 1_555
H5 C13 1_555 1_555
C14 C13 1_555 1_555
C15 C14 1_555 1_555
C16 C9 1_555 1_555
H6 C16 1_555 1_555
C17 O9 1_555 1_555
H7 C17 1_555 1_555
C18 N3 1_555 1_555
H8 C18 1_555 1_555
H9 C18 1_555 1_555
H10 C18 1_555 1_555
C19 N3 1_555 1_555
H11 C19 1_555 1_555
H12 C19 1_555 1_555
H13 C19 1_555 1_555
C20 O10 1_555 1_555
H14 C20 1_555 1_555
C21 N4 1_555 1_555
H15 C21 1_555 1_555
H16 C21 1_555 1_555
H17 C21 1_555 1_555
C22 N4 1_555 1_555
H18 C22 1_555 1_555
H19 C22 1_555 1_555
H20 C22 1_555 1_555
C23 O11 1_555 1_555
H21 C23 1_555 1_555
C24 N5 1_555 1_555
H22 C24 1_555 1_555
H23 C24 1_555 1_555
H24 C24 1_555 1_555
C25 N5 1_555 1_555
H25 C25 1_555 1_555
H26 C25 1_555 1_555
H27 C25 1_555 1_555
O12 C26 1_555 1_555
N6 C26 1_555 1_555
C27 N6 1_555 1_555
C28 N6 1_555 1_555
O13 C29 1_555 1_555
N7 C29 1_555 1_555
C30 N7 1_555 1_555
C31 N7 1_555 1_555
Cd1A O3 1_555 1_555
Cd1C O5 1_555 1_555
Cd2A O4 1_555 1_555
Cd2C O6 1_555 1_555
Cd2B O7 1_555 1_555
O3A Cd1 1_555 1_555
O4A Cd2 1_555 1_555
O5C Cd1 1_555 1_555
O6C Cd2 1_555 1_555
O7B Cd2 1_555 1_555
O8B Cd2 1_555 1_555
O8 Cd2B 1_555 1_555
C6 C7 1_555 1_555
C7 C8 1_555 1_555
C14 C16 1_555 1_555

#END
