
#######################################################################
#
#                 Cambridge Crystallographic Data Centre
#                                CCDC 
#
#######################################################################
#
# If this CIF has been generated from an entry in the Cambridge 
# Structural Database, then it will include bibliographic, chemical, 
# crystal, experimental, refinement or atomic coordinate data resulting 
# from the CCDC's data processing and validation procedures.
#
#######################################################################

data_OFOPIJ
_symmetry_cell_setting           monoclinic
_symmetry_space_group_name_H-M   'P 21/c'
_symmetry_Int_Tables_number      14
_space_group_name_Hall           '-P 2ybc'
loop_
_symmetry_equiv_pos_site_id
_symmetry_equiv_pos_as_xyz
1 x,y,z
2 -x,1/2+y,1/2-z
3 -x,-y,-z
4 x,1/2-y,1/2+z
_cell_length_a                   10.390(2)
_cell_length_b                   18.438(4)
_cell_length_c                   7.6784(15)
_cell_angle_alpha                90
_cell_angle_beta                 105.57(3)
_cell_angle_gamma                90
_cell_volume                     1416.98
loop_
_atom_site_label
_atom_site_type_symbol
_atom_site_fract_x
_atom_site_fract_y
_atom_site_fract_z
Cu1 Cu 0.89093(5) 0.08721(2) 0.82483(6)
N1 N 0.9848(3) 0.00542(16) 0.7548(4)
C1 C 1.1624(4) 0.0907(2) 0.8271(5)
N2 N 0.7386(3) 0.01634(18) 0.7703(4)
O1 O 0.9453(3) -0.10887(16) 0.6217(4)
N3 N 1.0718(3) 0.13258(17) 0.8734(4)
C2 C 0.7846(4) 0.1677(2) 1.4329(5)
O2 O 1.1890(3) -0.02423(15) 0.7029(4)
N4 N 0.8280(4) 0.14624(18) 0.9996(4)
C3 C 1.1143(4) 0.0164(2) 0.7535(5)
N5 N 0.6845(4) -0.10073(19) 0.6463(5)
C4 C 0.9110(4) -0.0546(2) 0.6868(5)
N6 N 0.5462(4) 0.2845(2) 1.1798(5)
C5 C 0.7357(4) 0.1917(2) 1.2541(5)
C6 C 0.6318(4) 0.2433(2) 1.2128(5)
C7 C 0.5605(5) -0.0909(3) 0.6627(6)
H1 H 0.4991 -0.1284 0.6279
C8 C 1.2319(5) 0.2258(3) 0.9368(6)
H2 H 1.2574 0.2730 0.9728
N7 N 0.8191(4) 0.15079(18) 1.5812(4)
C9 C 0.7881(4) 0.1655(2) 1.1175(5)
C10 C 0.6136(4) 0.0257(2) 0.7827(6)
H3 H 0.5901 0.0689 0.8285
C11 C 0.7681(4) -0.0466(2) 0.7023(5)
N8 N 1.2866(4) 0.1099(2) 0.8373(5)
C12 C 1.1064(5) 0.2010(2) 0.9266(6)
H4 H 1.0444 0.2315 0.9566
C13 C 0.5195(5) -0.0281(3) 0.7284(6)
H5 H 0.4323 -0.0222 0.7358
C14 C 1.3191(5) 0.1779(3) 0.8918(6)
H6 H 1.4054 0.1937 0.8996
Cu1_2 Cu 0.89093(5) 0.08721(2) 1.82483(6)
N7_2 N 0.8191(4) 0.15079(18) 0.5812(4)
loop_
_geom_bond_atom_site_label_1
_geom_bond_atom_site_label_2
_geom_bond_site_symmetry_1
_geom_bond_site_symmetry_2
Cu1 N1 1_555 1_555
N1 C3 1_555 1_555
C1 N3 1_555 1_555
N2 Cu1 1_555 1_555
O1 C4 1_555 1_555
N3 Cu1 1_555 1_555
C2 C5 1_555 1_555
O2 C3 1_555 1_555
N4 Cu1 1_555 1_555
C3 C1 1_555 1_555
N5 C7 1_555 1_555
C4 N1 1_555 1_555
N6 C6 1_555 1_555
C5 C6 1_555 1_555
C7 H1 1_555 1_555
C8 H2 1_555 1_555
N7 C2 1_555 1_555
C9 N4 1_555 1_555
C10 N2 1_555 1_555
H3 C10 1_555 1_555
C11 N2 1_555 1_555
N8 C1 1_555 1_555
C12 N3 1_555 1_555
H4 C12 1_555 1_555
C13 C7 1_555 1_555
H5 C13 1_555 1_555
C14 C8 1_555 1_555
H6 C14 1_555 1_555
Cu1_2 N7 1_555 1_555
N7_2 Cu1 1_555 1_555
N5 C11 1_555 1_555
C4 C11 1_555 1_555
C5 C9 1_555 1_555
C8 C12 1_555 1_555
C10 C13 1_555 1_555
N8 C14 1_555 1_555

#END
