
#######################################################################
#
#                 Cambridge Crystallographic Data Centre
#                                CCDC 
#
#######################################################################
#
# If this CIF has been generated from an entry in the Cambridge 
# Structural Database, then it will include bibliographic, chemical, 
# crystal, experimental, refinement or atomic coordinate data resulting 
# from the CCDC's data processing and validation procedures.
#
#######################################################################

data_OFORIL
_symmetry_cell_setting           orthorhombic
_symmetry_space_group_name_H-M   'P n m a'
_symmetry_Int_Tables_number      62
_space_group_name_Hall           '-P 2ac 2n'
loop_
_symmetry_equiv_pos_site_id
_symmetry_equiv_pos_as_xyz
1 x,y,z
2 1/2-x,-y,1/2+z
3 -x,1/2+y,-z
4 1/2+x,1/2-y,1/2-z
5 -x,-y,-z
6 1/2+x,y,1/2-z
7 x,1/2-y,z
8 1/2-x,1/2+y,1/2+z
_cell_length_a                   13.677(3)
_cell_length_b                   22.383(5)
_cell_length_c                   8.6211(19)
_cell_angle_alpha                90
_cell_angle_beta                 90
_cell_angle_gamma                90
_cell_volume                     2639.2
loop_
_atom_site_label
_atom_site_type_symbol
_atom_site_fract_x
_atom_site_fract_y
_atom_site_fract_z
Cu1 Cu -0.5000 0.5000 0.0000
Zn1 Zn -0.25891(4) 0.2500 0.37559(7)
Cl1 Cl -0.17595(11) 0.2500 0.15663(15)
Cl2 Cl -0.17515(9) 0.2500 0.59707(15)
O1 O -0.58749(17) 0.56458(10) 0.0169(3)
N1 N -0.5875(2) 0.44695(12) 0.1250(3)
N2 N -0.3492(2) 0.32313(12) 0.3866(3)
C1 C -0.6749(3) 0.56753(15) 0.0786(4)
C2 C -0.7292(3) 0.62071(16) 0.0640(4)
H1 H -0.7025 0.6531 0.0069
C3 C -0.8196(3) 0.62676(17) 0.1302(4)
H2 H -0.8547 0.6630 0.1174
C4 C -0.8608(3) 0.58048(17) 0.2161(4)
H3 H -0.9225 0.5855 0.2651
C5 C -0.8112(3) 0.52756(17) 0.2290(4)
H4 H -0.8398 0.4955 0.2851
C6 C -0.7179(2) 0.51983(16) 0.1601(4)
C7 C -0.6721(2) 0.46309(15) 0.1765(4)
H5 H -0.7081 0.4336 0.2317
C8 C -0.5595(3) 0.38463(14) 0.1574(4)
H6 H -0.5348 0.3661 0.0608
H7 H -0.6183 0.3621 0.1902
C9 C -0.4825(2) 0.37935(14) 0.2814(4)
C10 C -0.4772(3) 0.41794(16) 0.4061(4)
H8 H -0.5212 0.4506 0.4139
C11 C -0.4070(3) 0.40857(17) 0.5199(4)
H9 H -0.4023 0.4349 0.6060
C12 C -0.3446(3) 0.36092(16) 0.5069(4)
H10 H -0.2968 0.3545 0.5852
C13 C -0.4166(2) 0.33306(14) 0.2762(4)
H11 H -0.4187 0.3067 0.1900
Zn1D Zn -0.74109(4) 0.7500 -0.37559(7)
O1D O -0.41251(17) 0.43542(10) -0.0169(3)
N1D N -0.4125(2) 0.55305(12) -0.1250(3)
N2D N -0.6508(2) 0.67687(12) -0.3866(3)
N2F N -0.3492(2) 0.17687(12) 0.3866(3)
C1D C -0.3251(3) 0.43247(15) -0.0786(4)
C2D C -0.2708(3) 0.37929(16) -0.0640(4)
H1D H -0.2975 0.3469 -0.0069
C3D C -0.1804(3) 0.37324(17) -0.1302(4)
H2D H -0.1453 0.3370 -0.1174
C4D C -0.1392(3) 0.41952(17) -0.2161(4)
H3D H -0.0775 0.4145 -0.2651
C5D C -0.1888(3) 0.47244(17) -0.2290(4)
H4D H -0.1602 0.5045 -0.2851
C6D C -0.2821(2) 0.48017(16) -0.1601(4)
C7D C -0.3279(2) 0.53691(15) -0.1765(4)
H5D H -0.2919 0.5664 -0.2317
C8D C -0.4405(3) 0.61537(14) -0.1574(4)
H6D H -0.4652 0.6339 -0.0608
H7D H -0.3817 0.6379 -0.1902
C9D C -0.5175(2) 0.62065(14) -0.2814(4)
C10D C -0.5228(3) 0.58206(16) -0.4061(4)
H8D H -0.4788 0.5494 -0.4139
C11D C -0.5930(3) 0.59143(17) -0.5199(4)
H9D H -0.5977 0.5651 -0.6060
C12D C -0.6554(3) 0.63908(16) -0.5069(4)
H10D H -0.7032 0.6455 -0.5852
C13D C -0.5834(2) 0.66694(14) -0.2762(4)
H11D H -0.5813 0.6933 -0.1900
C14 C 0.0784(5) 0.2500 0.6888(8)
H12 H 0.0697 0.2100 0.7328
O2 O 0.0487(3) 0.2500 0.5386(5)
H15 H -0.018(5) 0.2500 0.537(7)
H12F H 0.0697 0.2900 0.7328
H13? H 0.0394 0.2788 0.7479
H14? H 0.1476 0.2612 0.6940
loop_
_geom_bond_atom_site_label_1
_geom_bond_atom_site_label_2
_geom_bond_site_symmetry_1
_geom_bond_site_symmetry_2
Cu1 O1 1_555 1_555
Zn1 Cl1 1_555 1_555
Cl2 Zn1 1_555 1_555
O1 C1 1_555 1_555
N1 Cu1 1_555 1_555
N2 Zn1 1_555 1_555
C1 C2 1_555 1_555
C2 H1 1_555 1_555
C3 C2 1_555 1_555
H2 C3 1_555 1_555
C4 C3 1_555 1_555
H3 C4 1_555 1_555
C5 C4 1_555 1_555
H4 C5 1_555 1_555
C6 C1 1_555 1_555
C7 N1 1_555 1_555
H5 C7 1_555 1_555
C8 N1 1_555 1_555
H6 C8 1_555 1_555
H7 C8 1_555 1_555
C9 C8 1_555 1_555
C10 C9 1_555 1_555
H8 C10 1_555 1_555
C11 C10 1_555 1_555
H9 C11 1_555 1_555
C12 N2 1_555 1_555
H10 C12 1_555 1_555
C13 N2 1_555 1_555
H11 C13 1_555 1_555
C14 H12 1_555 1_555
O2 C14 1_555 1_555
H15 O2 1_555 1_555
Zn1D N2D 1_555 1_555
O1D Cu1 1_555 1_555
N1D Cu1 1_555 1_555
N2D C12D 1_555 1_555
N2F Zn1 1_555 1_555
C1D O1D 1_555 1_555
C2D C1D 1_555 1_555
H1D C2D 1_555 1_555
C3D C2D 1_555 1_555
H2D C3D 1_555 1_555
C4D C3D 1_555 1_555
H3D C4D 1_555 1_555
C5D C4D 1_555 1_555
H4D C5D 1_555 1_555
C6D C1D 1_555 1_555
C7D N1D 1_555 1_555
H5D C7D 1_555 1_555
C8D N1D 1_555 1_555
H6D C8D 1_555 1_555
H7D C8D 1_555 1_555
C9D C8D 1_555 1_555
C10D C9D 1_555 1_555
H8D C10D 1_555 1_555
C11D C10D 1_555 1_555
H9D C11D 1_555 1_555
C12D C11D 1_555 1_555
H10D C12D 1_555 1_555
C13D N2D 1_555 1_555
H11D C13D 1_555 1_555
H12F C14 1_555 1_555
C5 C6 1_555 1_555
C6 C7 1_555 1_555
C9 C13 1_555 1_555
C11 C12 1_555 1_555
C5D C6D 1_555 1_555
C6D C7D 1_555 1_555
C9D C13D 1_555 1_555

#END
