
#######################################################################
#
#                 Cambridge Crystallographic Data Centre
#                                CCDC 
#
#######################################################################
#
# If this CIF has been generated from an entry in the Cambridge 
# Structural Database, then it will include bibliographic, chemical, 
# crystal, experimental, refinement or atomic coordinate data resulting 
# from the CCDC's data processing and validation procedures.
#
#######################################################################

data_OFOSUY
_symmetry_cell_setting           monoclinic
_symmetry_space_group_name_H-M   'C 2/c'
_symmetry_Int_Tables_number      15
_space_group_name_Hall           '-C 2yn'
loop_
_symmetry_equiv_pos_site_id
_symmetry_equiv_pos_as_xyz
1 x,y,z
2 1/2+x,1/2+y,z
3 -x,y,1/2-z
4 1/2-x,1/2+y,1/2-z
5 -x,-y,-z
6 1/2-x,1/2-y,-z
7 x,-y,1/2+z
8 1/2+x,1/2-y,1/2+z
_cell_length_a                   24.20(3)
_cell_length_b                   9.879(12)
_cell_length_c                   18.54(2)
_cell_angle_alpha                90
_cell_angle_beta                 97.131(10)
_cell_angle_gamma                90
_cell_volume                     4398.11
loop_
_atom_site_label
_atom_site_type_symbol
_atom_site_fract_x
_atom_site_fract_y
_atom_site_fract_z
Cu1 Cu 0.20399(5) 0.79254(13) 0.02371(8)
O1 O 0.1710(3) 0.7543(8) -0.0768(5)
C1 C 0.1975(5) 0.7172(13) -0.1248(8)
O2 O 0.2493(3) 0.6777(7) -0.1166(4)
C2 C 0.1699(5) 0.7138(14) -0.2023(8)
H1 H 0.1850 0.7842 -0.2296
H2 H 0.1305 0.7274 -0.2031
H3 H 0.1765 0.6275 -0.2235
O3 O 0.1252(2) 0.8481(7) 0.0552(4)
C3 C 0.1056(4) 0.9585(11) 0.0731(6)
O4 O 0.0518(3) 0.9783(7) 0.0574(4)
C4 C 0.1381(4) 1.0654(12) 0.1127(7)
H4 H 0.1536 1.0322 0.1596
H5 H 0.1144 1.1415 0.1188
H6 H 0.1676 1.0929 0.0859
O5 O 0.2239(3) 0.9699(8) -0.0137(5)
C5 C 0.2676(5) 0.9929(13) -0.0440(7)
C6 C 0.2755(6) 1.1260(12) -0.0789(8)
H7 H 0.3124 1.1308 -0.0926
H8 H 0.2705 1.1974 -0.0453
H9 H 0.2488 1.1355 -0.1214
O6 O 0.3020(3) 0.8930(8) -0.0532(5)
Cu2 Cu 0.01219(5) 0.83705(13) -0.00657(8)
O7 O -0.0335(3) 0.7993(8) 0.0701(4)
C7 C -0.0686(4) 0.6986(12) 0.0671(7)
C8 C -0.0770(4) 0.6030(12) 0.0160(7)
H10 H -0.1007 0.5322 0.0243
C9 C -0.0770(5) 0.7602(14) 0.1953(9)
H11 H -0.0421 0.7998 0.1965
C10 C -0.1035(5) 0.7656(14) 0.2601(8)
H12 H -0.0859 0.8063 0.3020
C11 C -0.1523(5) 0.6427(12) 0.1340(8)
H13 H -0.1692 0.5974 0.0932
C12 C -0.1793(5) 0.6525(13) 0.1968(9)
H14 H -0.2152 0.6181 0.1949
C13 C -0.1563(6) 0.7084(14) 0.2591(9)
H15 H -0.1748 0.7092 0.3002
C14 C -0.0990(4) 0.7023(12) 0.1333(8)
C15 C -0.0528(4) 0.6002(12) -0.0499(7)
C16 C -0.0696(5) 0.4794(12) -0.1011(7)
H16 H -0.0954 0.5096 -0.1414
H17 H -0.0868 0.4106 -0.0749
H18 H -0.0371 0.4430 -0.1187
N1 N -0.0170(3) 0.6875(8) -0.0672(5)
C17 C 0.0055(5) 0.6816(11) -0.1375(7)
H19 H -0.0226 0.6482 -0.1752
H20 H 0.0374 0.6216 -0.1343
C18 C 0.0228(5) 0.8273(14) -0.1553(7)
H21 H 0.0455 0.8258 -0.1949
H22 H -0.0101 0.8815 -0.1702
N2 N 0.0539(3) 0.8853(9) -0.0914(5)
H23 H 0.0561 0.9758 -0.0961
H24 H 0.0886 0.8511 -0.0847
Cu1E Cu 0.29601(5) 0.70746(13) -0.02371(8)
O2E O 0.2507(3) 0.8223(7) 0.1166(4)
O4D O -0.0518(3) 1.0217(7) -0.0574(4)
O6E O 0.1980(3) 0.6070(8) 0.0532(5)
Cu2D Cu -0.01219(5) 1.16295(13) 0.00657(8)
loop_
_geom_bond_atom_site_label_1
_geom_bond_atom_site_label_2
_geom_bond_site_symmetry_1
_geom_bond_site_symmetry_2
Cu1 O1 1_555 1_555
O1 C1 1_555 1_555
C1 O2 1_555 1_555
O2 Cu1E 1_555 1_555
C2 C1 1_555 1_555
H1 C2 1_555 1_555
H2 C2 1_555 1_555
H3 C2 1_555 1_555
O3 Cu1 1_555 1_555
C3 O3 1_555 1_555
O4 C3 1_555 1_555
C4 C3 1_555 1_555
H4 C4 1_555 1_555
H5 C4 1_555 1_555
H6 C4 1_555 1_555
O5 Cu1 1_555 1_555
C5 O5 1_555 1_555
C6 C5 1_555 1_555
H7 C6 1_555 1_555
H8 C6 1_555 1_555
H9 C6 1_555 1_555
O6 C5 1_555 1_555
Cu2 O4 1_555 1_555
O7 Cu2 1_555 1_555
C7 O7 1_555 1_555
C8 C7 1_555 1_555
H10 C8 1_555 1_555
C9 H11 1_555 1_555
C10 C9 1_555 1_555
H12 C10 1_555 1_555
C11 H13 1_555 1_555
C12 C11 1_555 1_555
H14 C12 1_555 1_555
C13 C10 1_555 1_555
H15 C13 1_555 1_555
C14 C7 1_555 1_555
C15 C8 1_555 1_555
C16 C15 1_555 1_555
H16 C16 1_555 1_555
H17 C16 1_555 1_555
H18 C16 1_555 1_555
N1 Cu2 1_555 1_555
C17 N1 1_555 1_555
H19 C17 1_555 1_555
H20 C17 1_555 1_555
C18 C17 1_555 1_555
H21 C18 1_555 1_555
H22 C18 1_555 1_555
N2 Cu2 1_555 1_555
H23 N2 1_555 1_555
H24 N2 1_555 1_555
Cu1E Cu1 1_555 1_555
O2E Cu1 1_555 1_555
O4D Cu2 1_555 1_555
O6E Cu1 1_555 1_555
Cu2D O4 1_555 1_555
O6 Cu1E 1_555 1_555
C9 C14 1_555 1_555
C11 C14 1_555 1_555
C12 C13 1_555 1_555
C15 N1 1_555 1_555
C18 N2 1_555 1_555
O4D Cu2D 1_555 1_555

#END
