
#######################################################################
#
#                 Cambridge Crystallographic Data Centre
#                                CCDC 
#
#######################################################################
#
# If this CIF has been generated from an entry in the Cambridge 
# Structural Database, then it will include bibliographic, chemical, 
# crystal, experimental, refinement or atomic coordinate data resulting 
# from the CCDC's data processing and validation procedures.
#
#######################################################################

data_OFOZEQ
_symmetry_cell_setting           monoclinic
_symmetry_space_group_name_H-M   'P 21'
_symmetry_Int_Tables_number      4
_space_group_name_Hall           'P 2yb'
loop_
_symmetry_equiv_pos_site_id
_symmetry_equiv_pos_as_xyz
1 x,y,z
2 -x,1/2+y,-z
_cell_length_a                   9.3433(13)
_cell_length_b                   15.837(2)
_cell_length_c                   13.795(2)
_cell_angle_alpha                90
_cell_angle_beta                 106.802(2)
_cell_angle_gamma                90
_cell_volume                     1954.1
loop_
_atom_site_label
_atom_site_type_symbol
_atom_site_fract_x
_atom_site_fract_y
_atom_site_fract_z
C1 C -0.0536(7) 0.1278(4) -0.2734(5)
C2 C -0.0515(7) 0.1945(5) -0.3386(5)
H1 H 0.0370 0.2088 -0.3527
C3 C -0.1815(7) 0.2397(5) -0.3828(5)
C4 C -0.3137(8) 0.2183(5) -0.3617(6)
H2 H -0.4007 0.2485 -0.3912
C5 C -0.3159(7) 0.1516(5) -0.2965(6)
C6 C -0.1858(7) 0.1064(5) -0.2524(5)
H3 H -0.1872 0.0619 -0.2088
C7 C 0.0859(7) 0.0803(4) -0.2172(6)
C8 C -0.1793(8) 0.3190(6) -0.4431(6)
C9 C -0.4586(7) 0.1256(5) -0.2791(6)
C10 C 0.6078(7) 0.1605(4) 0.0883(5)
C11 C 0.6278(8) 0.2457(4) 0.1135(5)
H4 H 0.5819 0.2857 0.0651
C12 C 0.7140(7) 0.2735(4) 0.2084(5)
C13 C 0.7861(7) 0.2100(5) 0.2793(5)
H5 H 0.8469 0.2266 0.3424
C14 C 0.7696(8) 0.1270(5) 0.2584(5)
C15 C 0.6775(8) 0.1028(5) 0.1590(5)
H6 H 0.6654 0.0457 0.1429
C16 C 0.5196(7) 0.1395(5) -0.0167(5)
C17 C 0.7210(9) 0.3657(5) 0.2318(6)
C18 C 0.8469(9) 0.0638(6) 0.3313(6)
C19 C 0.0933(11) 0.3440(5) -0.1884(6)
H7 H 0.0833 0.3810 -0.2423
C20 C -0.0076(11) 0.3350(5) -0.1323(6)
H8 H -0.0959 0.3650 -0.1402
C21 C 0.1768(8) 0.2457(5) -0.0770(5)
H9 H 0.2344 0.2022 -0.0400
C22 C 0.4181(10) -0.0888(5) 0.1013(6)
H10 H 0.4393 -0.1013 0.0411
C23 C 0.3295(9) -0.0231(5) 0.1138(6)
H11 H 0.2817 0.0170 0.0660
C24 C 0.4131(9) -0.0927(5) 0.2553(6)
H12 H 0.4318 -0.1076 0.3230
C25 C 0.3825(9) 0.4512(6) 0.4298(6)
H13 H 0.4790 0.4714 0.4388
C26 C 0.2780(10) 0.4836(6) 0.4683(7)
H14 H 0.2904 0.5314 0.5091
C27 C 0.1794(10) 0.3772(7) 0.3871(7)
H15 H 0.1124 0.3340 0.3599
C28 C 0.0951(9) 0.2204(5) 0.1111(6)
C29 C 0.1040(8) 0.1361(5) 0.1395(6)
C30 C 0.2241(8) 0.1134(5) 0.2290(6)
C31 C 0.3177(9) 0.1750(5) 0.2887(5)
C32 C 0.2956(9) 0.2608(6) 0.2551(6)
C33 C 0.1889(9) 0.2827(6) 0.1694(6)
C34 C -0.0226(8) 0.2521(5) 0.0156(6)
H16 H -0.0973 0.2086 -0.0093
H17 H -0.0724 0.3015 0.0322
C35 C 0.0078(10) 0.0630(6) 0.0864(8)
H18 H -0.0383 0.0775 0.0168
H19 H -0.0681 0.0515 0.1189
H20 H 0.0692 0.0138 0.0899
C36 C 0.2233(9) 0.0172(5) 0.2608(6)
H21 H 0.2588 0.0116 0.3339
H22 H 0.1229 -0.0057 0.2374
C37 C 0.4505(9) 0.1461(6) 0.3769(7)
H23 H 0.4418 0.0867 0.3882
H24 H 0.4506 0.1767 0.4371
H25 H 0.5421 0.1568 0.3607
C38 C 0.3993(9) 0.3281(5) 0.3212(7)
H26 H 0.4809 0.3001 0.3705
H27 H 0.4418 0.3628 0.2785
C39 C 0.1646(10) 0.3754(6) 0.1301(7)
H28 H 0.1682 0.3775 0.0613
H29 H 0.2418 0.4108 0.1715
H30 H 0.0689 0.3951 0.1333
N1 N 0.2099(7) 0.2894(4) -0.1515(5)
N2 N 0.0487(7) 0.2740(4) -0.0641(5)
N3 N 0.3273(6) -0.0295(4) 0.2114(5)
N4 N 0.4705(7) -0.1329(4) 0.1883(5)
N5 N 0.3185(7) 0.3832(5) 0.3751(5)
N6 N 0.1520(8) 0.4367(6) 0.4392(6)
O1 O 0.0975(6) 0.0432(4) -0.1406(4)
O2 O 0.1960(5) 0.0915(3) -0.2573(4)
O3 O -0.0498(6) 0.3421(4) -0.4490(4)
O4 O -0.2929(6) 0.3619(5) -0.4776(4)
O5 O -0.5621(5) 0.1819(3) -0.2986(4)
O6 O -0.4656(5) 0.0576(3) -0.2410(4)
O7 O 0.4809(6) 0.0647(3) -0.0365(4)
O8 O 0.6292(6) 0.4130(3) 0.1700(4)
O9 O 0.8125(8) 0.3939(4) 0.3079(5)
O10 O 0.9491(7) 0.0884(4) 0.4085(4)
O11 O 0.8147(7) -0.0125(4) 0.3156(4)
O12 O 0.2699(8) 0.3250(4) -0.3540(4)
H31 H 0.3167 0.3800 -0.3514
H32 H 0.1655 0.3279 -0.3558
Zn1 Zn 0.37354(8) 0.03335(4) -0.17490(6)
Zn2 Zn 0.38027(9) 0.27027(5) -0.21303(6)
O13 O 0.4901(5) 0.1979(3) -0.0807(3)
Zn3 Zn 0.00875(10) 0.46811(7) 0.51202(8)
N4A N 0.5295(7) 0.3671(4) -0.1883(5)
O3_2 O -0.0498(6) 0.3421(4) 0.5510(4)
O5_2 O 0.4379(5) 0.1819(3) -0.2986(4)
O6_2 O 0.5344(5) 0.0576(3) -0.2410(4)
O8A O 0.3708(6) -0.0870(3) -0.1700(4)
O10A O 0.0509(7) 0.5884(4) 0.5915(4)
O11A O 0.1853(7) 0.4875(4) 0.6844(4)
Zn1_2 Zn -0.62646(8) 0.03335(4) -0.17490(6)
Zn1A Zn 0.62646(8) 0.53335(4) 0.17490(6)
Zn2_2 Zn -0.61973(9) 0.27027(5) -0.21303(6)
Zn2A Zn 0.61973(9) -0.22973(5) 0.21303(6)
Zn3_2 Zn 0.00875(10) 0.46811(7) -0.48798(8)
Zn3A Zn 0.99125(10) -0.03189(7) 0.48798(8)
loop_
_geom_bond_atom_site_label_1
_geom_bond_atom_site_label_2
_geom_bond_site_symmetry_1
_geom_bond_site_symmetry_2
C1 C2 1_555 1_555
C2 H1 1_555 1_555
C3 C2 1_555 1_555
C4 C3 1_555 1_555
H2 C4 1_555 1_555
C5 C4 1_555 1_555
C6 C1 1_555 1_555
H3 C6 1_555 1_555
C7 C1 1_555 1_555
C8 C3 1_555 1_555
C9 C5 1_555 1_555
C10 C11 1_555 1_555
C11 H4 1_555 1_555
C12 C11 1_555 1_555
C13 C12 1_555 1_555
H5 C13 1_555 1_555
C14 C13 1_555 1_555
C15 C10 1_555 1_555
H6 C15 1_555 1_555
C16 C10 1_555 1_555
C17 C12 1_555 1_555
C18 C14 1_555 1_555
C19 H7 1_555 1_555
C20 C19 1_555 1_555
H8 C20 1_555 1_555
C21 H9 1_555 1_555
C22 H10 1_555 1_555
C23 C22 1_555 1_555
H11 C23 1_555 1_555
C24 H12 1_555 1_555
C25 H13 1_555 1_555
C26 C25 1_555 1_555
H14 C26 1_555 1_555
C27 H15 1_555 1_555
C28 C29 1_555 1_555
C29 C30 1_555 1_555
C30 C31 1_555 1_555
C31 C32 1_555 1_555
C32 C33 1_555 1_555
C33 C28 1_555 1_555
C34 C28 1_555 1_555
H16 C34 1_555 1_555
H17 C34 1_555 1_555
C35 C29 1_555 1_555
H18 C35 1_555 1_555
H19 C35 1_555 1_555
H20 C35 1_555 1_555
C36 C30 1_555 1_555
H21 C36 1_555 1_555
H22 C36 1_555 1_555
C37 C31 1_555 1_555
H23 C37 1_555 1_555
H24 C37 1_555 1_555
H25 C37 1_555 1_555
C38 C32 1_555 1_555
H26 C38 1_555 1_555
H27 C38 1_555 1_555
C39 C33 1_555 1_555
H28 C39 1_555 1_555
H29 C39 1_555 1_555
H30 C39 1_555 1_555
N1 C19 1_555 1_555
N2 C20 1_555 1_555
N3 C23 1_555 1_555
N4 C22 1_555 1_555
N5 C25 1_555 1_555
N6 C26 1_555 1_555
O1 C7 1_555 1_555
O2 C7 1_555 1_555
O3 C8 1_555 1_555
O4 C8 1_555 1_555
O5 C9 1_555 1_555
O6 C9 1_555 1_555
O7 C16 1_555 1_555
O8 C17 1_555 1_555
O9 C17 1_555 1_555
O10 C18 1_555 1_555
O11 C18 1_555 1_555
O12 H31 1_555 1_555
H32 O12 1_555 1_555
Zn1 O2 1_555 1_555
Zn2 N1 1_555 1_555
O13 C16 1_555 1_555
Zn3 N6 1_555 1_555
N4A Zn2 1_555 1_555
O3_2 Zn3 1_555 1_555
O5_2 Zn2 1_555 1_555
O6_2 Zn1 1_555 1_555
O8A Zn1 1_555 1_555
O10A Zn3 1_555 1_555
O11A Zn3 1_555 1_555
Zn1_2 O6 1_555 1_555
Zn1A O8 1_555 1_555
Zn2_2 O5 1_555 1_555
Zn2A N4 1_555 1_555
Zn3_2 O3 1_555 1_555
Zn3A O10 1_555 1_555
C5 C6 1_555 1_555
C14 C15 1_555 1_555
C21 N1 1_555 1_555
C21 N2 1_555 1_555
C24 N3 1_555 1_555
C24 N4 1_555 1_555
C27 N5 1_555 1_555
C27 N6 1_555 1_555
C34 N2 1_555 1_555
C36 N3 1_555 1_555
C38 N5 1_555 1_555
O7 Zn1 1_555 1_555
O11 Zn3A 1_555 1_555
O12 Zn2 1_555 1_555
Zn2 O13 1_555 1_555

#END
