
#######################################################################
#
#                 Cambridge Crystallographic Data Centre
#                                CCDC 
#
#######################################################################
#
# If this CIF has been generated from an entry in the Cambridge 
# Structural Database, then it will include bibliographic, chemical, 
# crystal, experimental, refinement or atomic coordinate data resulting 
# from the CCDC's data processing and validation procedures.
#
#######################################################################

data_OFUCOH
_symmetry_cell_setting           orthorhombic
_symmetry_space_group_name_H-M   'P 21 21 21'
_symmetry_Int_Tables_number      19
_space_group_name_Hall           'P 2ac 2ab'
loop_
_symmetry_equiv_pos_site_id
_symmetry_equiv_pos_as_xyz
1 x,y,z
2 1/2-x,-y,1/2+z
3 1/2+x,1/2-y,-z
4 -x,1/2+y,1/2-z
_cell_length_a                   7.726(8)
_cell_length_b                   7.740(4)
_cell_length_c                   14.640(10)
_cell_angle_alpha                90
_cell_angle_beta                 90
_cell_angle_gamma                90
_cell_volume                     875.461
loop_
_atom_site_label
_atom_site_type_symbol
_atom_site_fract_x
_atom_site_fract_y
_atom_site_fract_z
Ni1 Ni 0.81329(12) 0.12183(12) 0.82126(6)
O1 O 0.5535(8) 0.1716(11) 0.8136(4)
H1 H 0.5040 0.1955 0.7657
H2 H 0.4938 0.2025 0.8570
O2 O 1.0766(8) 0.0731(7) 0.8213(4)
H3 H 1.1244 0.1371 0.7844
H4 H 1.0779 -0.0262 0.8019
O3 O 0.8651(8) 0.3659(8) 0.8675(4)
H5 H 0.8048 0.4495 0.8545
H6 H 0.8595 0.3475 0.9226
O4 O 0.6258(10) -0.2491(8) 0.5369(4)
O5 O 0.8345(8) 0.2170(7) 0.6890(3)
O6 O 0.7374(8) 0.1324(8) 0.2904(3)
O7 O 0.8673(8) 0.3643(7) 0.3474(4)
N1 N 0.7162(8) -0.0196(8) 0.4497(4)
N2 N 0.7348(9) -0.0131(8) 0.6092(4)
H7 H 0.7233 -0.0671 0.6602
C1 C 0.6879(11) -0.1005(9) 0.5310(5)
C2 C 0.7975(10) 0.1503(9) 0.6129(5)
C3 C 0.8196(12) 0.2331(10) 0.5263(5)
H8 H 0.8609 0.3457 0.5224
C4 C 0.7787(8) 0.1431(9) 0.4506(4)
C5 C 0.7983(10) 0.2204(9) 0.3555(5)
O6A O 0.7626(8) -0.1324(8) 0.7904(3)
N1A N 0.7838(8) 0.0196(8) 0.9497(4)
Ni1A Ni 0.68671(12) -0.12183(12) 0.32126(6)
loop_
_geom_bond_atom_site_label_1
_geom_bond_atom_site_label_2
_geom_bond_site_symmetry_1
_geom_bond_site_symmetry_2
Ni1 O1 1_555 1_555
O1 H1 1_555 1_555
H2 O1 1_555 1_555
O2 Ni1 1_555 1_555
H3 O2 1_555 1_555
H4 O2 1_555 1_555
O3 Ni1 1_555 1_555
H5 O3 1_555 1_555
H6 O3 1_555 1_555
O4 C1 1_555 1_555
O5 Ni1 1_555 1_555
O6 C5 1_555 1_555
O7 C5 1_555 1_555
N1 C1 1_555 1_555
N2 H7 1_555 1_555
C1 N2 1_555 1_555
C2 O5 1_555 1_555
C3 C2 1_555 1_555
H8 C3 1_555 1_555
C4 N1 1_555 1_555
C5 C4 1_555 1_555
O6A Ni1 1_555 1_555
N1A Ni1 1_555 1_555
Ni1A O6 1_555 1_555
N1 Ni1A 1_555 1_555
N2 C2 1_555 1_555
C3 C4 1_555 1_555

#END
