
#######################################################################
#
#                 Cambridge Crystallographic Data Centre
#                                CCDC 
#
#######################################################################
#
# If this CIF has been generated from an entry in the Cambridge 
# Structural Database, then it will include bibliographic, chemical, 
# crystal, experimental, refinement or atomic coordinate data resulting 
# from the CCDC's data processing and validation procedures.
#
#######################################################################

data_OFUCAV
_symmetry_cell_setting           orthorhombic
_symmetry_space_group_name_H-M   'F d d d'
_symmetry_Int_Tables_number      70
_space_group_name_Hall           '-F 2uv 2vw'
loop_
_symmetry_equiv_pos_site_id
_symmetry_equiv_pos_as_xyz
1 x,y,z
2 3/4-x,3/4-y,z
3 3/4-x,y,3/4-z
4 x,3/4-y,3/4-z
5 x,1/2+y,1/2+z
6 3/4-x,1/4-y,1/2+z
7 3/4-x,1/2+y,1/4-z
8 x,1/4-y,1/4-z
9 1/2+x,y,1/2+z
10 1/4-x,3/4-y,1/2+z
11 1/4-x,y,1/4-z
12 1/2+x,3/4-y,1/4-z
13 1/2+x,1/2+y,z
14 1/4-x,1/4-y,z
15 1/4-x,1/2+y,3/4-z
16 1/2+x,1/4-y,3/4-z
17 -x,-y,-z
18 1/4+x,1/4+y,-z
19 1/4+x,-y,1/4+z
20 -x,1/4+y,1/4+z
21 -x,1/2-y,1/2-z
22 1/4+x,3/4+y,1/2-z
23 1/4+x,1/2-y,3/4+z
24 -x,3/4+y,3/4+z
25 1/2-x,-y,1/2-z
26 3/4+x,1/4+y,1/2-z
27 3/4+x,-y,3/4+z
28 1/2-x,1/4+y,3/4+z
29 1/2-x,1/2-y,-z
30 3/4+x,3/4+y,-z
31 3/4+x,1/2-y,1/4+z
32 1/2-x,3/4+y,1/4+z
_cell_length_a                   9.7286(2)
_cell_length_b                   15.5238(4)
_cell_length_c                   28.1545(6)
_cell_angle_alpha                90
_cell_angle_beta                 90
_cell_angle_gamma                90
_cell_volume                     4252.03
loop_
_atom_site_label
_atom_site_type_symbol
_atom_site_fract_x
_atom_site_fract_y
_atom_site_fract_z
Ce1 Ce 0.6250 0.1250 0.509499(7)
O1 O 0.6141(2) 0.03897(15) 0.58547(7)
O2 O 0.3768(2) 0.02701(16) 0.51644(8)
O3 O 0.3800(3) 0.16092(16) 0.53990(10)
O4 O 0.4719(3) 0.12737(17) 0.43500(9)
H1 H 0.404(6) 0.087(4) 0.425(2)
H2 H 0.500(6) 0.155(4) 0.4066(15)
C1 C 0.6250 0.0751(3) 0.6250
C2 C 0.3152(4) 0.0925(2) 0.53119(13)
C3 C 0.1649(4) 0.0860(3) 0.5397(2)
H3 H 0.1268 0.0481 0.5157
H4 H 0.1517 0.0580 0.5702
O1G O 0.6141(2) 0.21103(15) 0.66453(7)
C1G C 0.6250 0.1749(3) 0.6250
O1J O 0.6359(2) 0.03897(15) 0.66453(7)
O1M O 0.6359(2) 0.21103(15) 0.58547(7)
O2M O -0.1268(2) 0.22299(16) 0.51644(8)
O3M O -0.1300(3) 0.08908(16) 0.53990(10)
C2M C -0.0652(4) 0.1575(2) 0.53119(13)
C3M C 0.0851(4) 0.1640(3) 0.5397(2)
H3M H 0.1232 0.2019 0.5157
H4M H 0.0983 0.1920 0.5702
Ce1G Ce 0.6250 0.1250 0.740501(7)
O2G O 0.3768(2) 0.22299(16) 0.73356(8)
O3G O 0.3800(3) 0.08908(16) 0.71010(10)
O4G O 0.4719(3) 0.12263(17) 0.81500(9)
H1G H 0.404(6) 0.163(4) 0.825(2)
H2G H 0.500(6) 0.095(4) 0.8434(15)
C2G C 0.3152(4) 0.1575(2) 0.71881(13)
C3G C 0.1649(4) 0.1640(3) 0.7103(2)
H3G H 0.1268 0.2019 0.7343
H4G H 0.1517 0.1920 0.6798
O2J O -0.1268(2) 0.02701(16) 0.73356(8)
O3J O -0.1300(3) 0.16092(16) 0.71010(10)
C2J C -0.0652(4) 0.0925(2) 0.71881(13)
C3J C 0.0851(4) 0.0860(3) 0.7103(2)
H3J H 0.1232 0.0481 0.7343
H4J H 0.0983 0.0580 0.6798
O4M O 0.7781(3) 0.12263(17) 0.43500(9)
H1M H 0.846(6) 0.163(4) 0.425(2)
H2M H 0.750(6) 0.095(4) 0.4066(15)
O4J O 0.7781(3) 0.12737(17) 0.81500(9)
H1J H 0.846(6) 0.087(4) 0.825(2)
H2J H 0.750(6) 0.155(4) 0.8434(15)
Ce1_2 Ce -0.3750 0.1250 0.509499(7)
Ce1G_2 Ce -0.3750 0.1250 0.740501(7)
Ce1P Ce 0.3750 -0.1250 0.490501(7)
Ce1Q Ce -0.1250 0.3750 0.490501(7)
Ce1R Ce -0.1250 -0.1250 0.759499(7)
Ce1S Ce 0.3750 0.3750 0.759499(7)
O2J_2 O 0.8732(2) 0.02701(16) 0.73356(8)
O2M_2 O 0.8732(2) 0.22299(16) 0.51644(8)
O2P O 0.6232(2) -0.02701(16) 0.48356(8)
O2Q O 0.6268(2) 0.27701(16) 0.48356(8)
O2R O 0.6268(2) -0.02701(16) 0.76644(8)
O2S O 0.6232(2) 0.27701(16) 0.76644(8)
O3J_2 O 0.8700(3) 0.16092(16) 0.71010(10)
O3M_2 O 0.8700(3) 0.08908(16) 0.53990(10)
O5 O 0.9492(5) -0.0484(3) 0.5985(2)
H5 H 0.875(5) -0.086(3) 0.607(3)
H6 H 0.905(6) -0.001(3) 0.581(3)
loop_
_geom_bond_atom_site_label_1
_geom_bond_atom_site_label_2
_geom_bond_site_symmetry_1
_geom_bond_site_symmetry_2
Ce1 O1 1_555 1_555
O1 C1 1_555 1_555
O2 Ce1 1_555 1_555
O3 Ce1 1_555 1_555
O4 Ce1 1_555 1_555
H1 O4 1_555 1_555
H2 O4 1_555 1_555
C1 C1G 1_555 1_555
C2 O2 1_555 1_555
C3 C2 1_555 1_555
H3 C3 1_555 1_555
H4 C3 1_555 1_555
O5 H5 1_555 1_555
H6 O5 1_555 1_555
O1G C1G 1_555 1_555
C1G O1M 1_555 1_555
O1J C1 1_555 1_555
O1M Ce1 1_555 1_555
O2M C2M 1_555 1_555
O3M C2M 1_555 1_555
C2M C3M 1_555 1_555
C3M C3 1_555 1_555
H3M C3M 1_555 1_555
H4M C3M 1_555 1_555
Ce1G O1G 1_555 1_555
O2G Ce1G 1_555 1_555
O3G Ce1G 1_555 1_555
O4G Ce1G 1_555 1_555
H1G O4G 1_555 1_555
H2G O4G 1_555 1_555
C2G O2G 1_555 1_555
C3G C2G 1_555 1_555
H3G C3G 1_555 1_555
H4G C3G 1_555 1_555
O2J C2J 1_555 1_555
O3J C2J 1_555 1_555
C2J C3J 1_555 1_555
C3J C3G 1_555 1_555
H3J C3J 1_555 1_555
H4J C3J 1_555 1_555
O4M Ce1 1_555 1_555
H1M O4M 1_555 1_555
H2M O4M 1_555 1_555
O4J Ce1G 1_555 1_555
H1J O4J 1_555 1_555
H2J O4J 1_555 1_555
Ce1_2 O2M 1_555 1_555
Ce1G_2 O2J 1_555 1_555
Ce1P O2 1_555 1_555
Ce1Q O2M 1_555 1_555
Ce1R O2J 1_555 1_555
Ce1S O2G 1_555 1_555
O2J_2 Ce1G 1_555 1_555
O2M_2 Ce1 1_555 1_555
O2P Ce1 1_555 1_555
O2Q Ce1 1_555 1_555
O2R Ce1G 1_555 1_555
O2S Ce1G 1_555 1_555
O3J_2 Ce1G 1_555 1_555
O3M_2 Ce1 1_555 1_555
O3 C2 1_555 1_555
O1J Ce1G 1_555 1_555
O3M Ce1_2 1_555 1_555
O3G C2G 1_555 1_555
O3J Ce1G_2 1_555 1_555
Ce1P O2P 1_555 1_555
Ce1S O2S 1_555 1_555

#END
