
#######################################################################
#
#                 Cambridge Crystallographic Data Centre
#                                CCDC 
#
#######################################################################
#
# If this CIF has been generated from an entry in the Cambridge 
# Structural Database, then it will include bibliographic, chemical, 
# crystal, experimental, refinement or atomic coordinate data resulting 
# from the CCDC's data processing and validation procedures.
#
#######################################################################

data_OFUFEB
_symmetry_cell_setting           triclinic
_symmetry_space_group_name_H-M   'P -1'
_symmetry_Int_Tables_number      2
_space_group_name_Hall           '-P 1'
loop_
_symmetry_equiv_pos_site_id
_symmetry_equiv_pos_as_xyz
1 x,y,z
2 -x,-y,-z
_cell_length_a                   11.2237(6)
_cell_length_b                   12.1149(7)
_cell_length_c                   12.5214(7)
_cell_angle_alpha                61.8400(10)
_cell_angle_beta                 80.2020(10)
_cell_angle_gamma                73.7560(10)
_cell_volume                     1439.67
loop_
_atom_site_label
_atom_site_type_symbol
_atom_site_fract_x
_atom_site_fract_y
_atom_site_fract_z
Mo1 Mo 0.75697(7) 0.63574(6) 0.46153(6)
Mo2 Mo 0.55408(6) 0.76306(6) 0.21952(6)
Mo3 Mo 0.72012(7) 0.35070(7) 0.72793(6)
Mo4 Mo 0.57215(6) 0.45822(7) 0.23274(6)
Mo5 Mo 0.44849(6) 0.80850(6) 0.48165(6)
Mo6 Mo 0.80436(7) 0.34365(7) 0.44343(6)
Ag1 Ag 0.52814(6) 0.31269(7) 0.03403(6)
Ag2 Ag 0.82125(7) -0.09059(7) 0.49486(6)
Si1 Si 0.5000 0.5000 0.5000
F1 F 1.1576(5) 0.1024(5) -0.0004(4)
F2 F 0.9534(6) 0.5340(5) -0.2053(5)
C1 C 0.6615(7) 0.0655(7) 0.2563(7)
H1 H 0.5871 0.0711 0.3014
C2 C 0.7879(7) 0.0936(8) 0.1078(7)
H2 H 0.8237 0.1212 0.0296
C3 C 0.9827(7) -0.0310(7) 0.2219(7)
H3 H 0.9999 -0.1112 0.2955
H4 H 1.0226 -0.0469 0.1539
C4 C 1.0348(7) 0.0708(7) 0.2287(6)
C5 C 1.0135(7) 0.1967(7) 0.1115(7)
C6 C 1.0755(7) 0.2093(7) 0.0023(7)
C7 C 1.0592(8) 0.3198(8) -0.1055(7)
H5 H 1.1041 0.3240 -0.1765
C8 C 0.9252(7) 0.3047(7) 0.1078(7)
H6 H 0.8802 0.3013 0.1785
C9 C 0.9723(8) 0.4237(8) -0.1018(8)
C10 C 0.9028(8) 0.4187(8) -0.0005(8)
H7 H 0.8415 0.4896 -0.0029
C11 C 1.1740(7) 0.0128(7) 0.2561(7)
H8 H 1.2125 -0.0290 0.2051
H9 H 1.1814 -0.0522 0.3399
C12 C 1.2925(7) 0.2540(8) 0.2527(7)
H10 H 1.2991 0.3106 0.2809
C13 C 1.3189(7) 0.1586(8) 0.1450(7)
H11 H 1.3458 0.1330 0.0839
N1 N 0.6688(6) 0.1278(6) 0.1345(6)
N2 N 0.7674(6) -0.0037(6) 0.3059(5)
N3 N 0.8494(5) 0.0149(6) 0.2074(5)
N4 N 1.2399(5) 0.1091(6) 0.2356(5)
N5 N 1.2213(6) 0.1706(6) 0.3071(5)
N6 N 1.3544(6) 0.2493(7) 0.1529(6)
O1 O 0.8313(10) 0.4971(6) 0.4140(5)
O2 O 0.9445(5) 0.2591(5) 0.4256(5)
O3 O 0.2897(6) 0.7890(8) 0.4991(5)
O4 O 0.4218(6) 0.9513(6) 0.4767(6)
O5 O 0.4700(5) 0.8471(7) 0.3225(6)
O6 O 0.5440(6) 0.3030(7) 0.3398(5)
O7 O 0.7343(5) 0.4075(6) 0.2956(5)
O8 O 0.6052(6) 0.4448(6) 0.1044(5)
O9 O 0.5988(6) 0.6330(7) 0.1748(9)
O10 O 0.5964(6) 0.4603(7) 0.7863(9)
O11 O 0.8241(5) 0.2835(5) 0.8320(5)
O12 O 0.8019(10) 0.2941(6) 0.6153(6)
O13 O 0.3792(5) 0.7625(7) 0.2102(9)
O14 O 0.5726(6) 0.8891(6) 0.0914(5)
O15 O 0.6955(5) 0.7217(7) 0.2961(5)
O16 O 0.6295(5) 0.7516(7) 0.4932(5)
O17 O 0.8774(5) 0.6988(6) 0.4365(6)
O18 O 0.7693(10) 0.5143(6) 0.6184(6)
O19 O 0.5691(8) 0.4079(8) 0.4487(8)
O20 O 0.4902(8) 0.5663(9) 0.3607(8)
O21 O 0.6434(8) 0.4735(8) 0.5202(8)
O22 O 0.5403(8) 0.6216(8) 0.4436(8)
O23 O 0.9695(5) 0.0859(5) 0.3294(5)
H12 H 0.9929 0.1391 0.3384
Mo1A Mo 0.24303(7) 0.36426(6) 0.53847(6)
Mo2A Mo 0.44592(6) 0.23694(6) 0.78048(6)
Mo3A Mo 0.27988(7) 0.64930(7) 0.27207(6)
Mo4A Mo 0.42785(6) 0.54178(7) 0.76726(6)
Mo5A Mo 0.55151(6) 0.19150(6) 0.51835(6)
Mo6A Mo 0.19564(7) 0.65635(7) 0.55657(6)
Ag1A Ag 0.47186(6) 0.68731(7) 0.96597(6)
Ag1_2 Ag 1.52814(6) 0.31269(7) 0.03403(6)
Ag1_3 Ag -0.47186(6) 0.31269(7) 0.03403(6)
Ag2_2 Ag -0.17875(7) -0.09059(7) 0.49486(6)
Ag2A Ag 1.17875(7) 0.09059(7) 0.50514(6)
Ag2A_2 Ag 0.17875(7) 0.09059(7) 0.50514(6)
F1_2 F 0.1576(5) 0.1024(5) -0.0004(4)
F2_2 F -0.0466(6) 0.5340(5) -0.2053(5)
C1_2 C -0.3385(7) 0.0655(7) 0.2563(7)
H1_2 H -0.4129 0.0711 0.3014
C2_2 C -0.2121(7) 0.0936(8) 0.1078(7)
H2_2 H -0.1763 0.1212 0.0296
C3_2 C -0.0173(7) -0.0310(7) 0.2219(7)
H3_2 H -0.0001 -0.1112 0.2955
H4_2 H 0.0226 -0.0469 0.1539
C4_2 C 0.0348(7) 0.0708(7) 0.2287(6)
C5_2 C 0.0135(7) 0.1967(7) 0.1115(7)
C6_2 C 0.0755(7) 0.2093(7) 0.0023(7)
C7_2 C 0.0592(8) 0.3198(8) -0.1055(7)
H5_2 H 0.1041 0.3240 -0.1765
C8_2 C -0.0748(7) 0.3047(7) 0.1078(7)
H6_2 H -0.1198 0.3013 0.1785
C9_2 C -0.0277(8) 0.4237(8) -0.1018(8)
C10_2 C -0.0972(8) 0.4187(8) -0.0005(8)
H7_2 H -0.1585 0.4896 -0.0029
C11_2 C 0.1740(7) 0.0128(7) 0.2561(7)
H8_2 H 0.2125 -0.0290 0.2051
H9_2 H 0.1814 -0.0522 0.3399
C12_2 C 0.2925(7) 0.2540(8) 0.2527(7)
H10_2 H 0.2991 0.3106 0.2809
C13_2 C 0.3189(7) 0.1586(8) 0.1450(7)
H11_2 H 0.3458 0.1330 0.0839
N1_2 N -0.3312(6) 0.1278(6) 0.1345(6)
N1A N 0.3312(6) 0.8722(6) 0.8655(6)
N2_2 N -0.2326(6) -0.0037(6) 0.3059(5)
N3_2 N -0.1506(5) 0.0149(6) 0.2074(5)
N4_2 N 0.2399(5) 0.1091(6) 0.2356(5)
N5_2 N 0.2213(6) 0.1706(6) 0.3071(5)
N5A N 0.7787(6) -0.1706(6) 0.6929(5)
N5A_2 N -0.2213(6) -0.1706(6) 0.6929(5)
N6_2 N 0.3544(6) 0.2493(7) 0.1529(6)
N6A N 0.6456(6) 0.7507(7) 0.8471(6)
O1A O 0.1687(10) 0.5029(6) 0.5860(5)
O2A O 0.0555(5) 0.7409(5) 0.5744(5)
O3A O 0.7103(6) 0.2110(8) 0.5009(5)
O4A O 0.5782(6) 0.0487(6) 0.5233(6)
O5A O 0.5300(5) 0.1529(7) 0.6775(6)
O6A O 0.4560(6) 0.6970(7) 0.6602(5)
O7A O 0.2657(5) 0.5925(6) 0.7044(5)
O8A O 0.3948(6) 0.5552(6) 0.8956(5)
O9A O 0.4012(6) 0.3670(7) 0.8252(9)
O10A O 0.4036(6) 0.5397(7) 0.2137(9)
O11A O 0.1759(5) 0.7165(5) 0.1680(5)
O12A O 0.1981(10) 0.7059(6) 0.3847(6)
O13A O 0.6208(5) 0.2375(7) 0.7898(9)
O14A O 0.4274(6) 0.1109(6) 0.9086(5)
O15A O 0.3045(5) 0.2783(7) 0.7039(5)
O16A O 0.3705(5) 0.2484(7) 0.5068(5)
O17A O 0.1226(5) 0.3012(6) 0.5635(6)
O18A O 0.2307(10) 0.4857(6) 0.3816(6)
O19A O 0.4309(8) 0.5921(8) 0.5513(8)
O20A O 0.5098(8) 0.4337(9) 0.6393(8)
O21A O 0.3566(8) 0.5265(8) 0.4798(8)
O22A O 0.4597(8) 0.3784(8) 0.5564(8)
O23_2 O -0.0305(5) 0.0859(5) 0.3294(5)
H12_2 H -0.0071 0.1391 0.3384
loop_
_geom_bond_atom_site_label_1
_geom_bond_atom_site_label_2
_geom_bond_site_symmetry_1
_geom_bond_site_symmetry_2
Mo1 O1 1_555 1_555
Mo2 O5 1_555 1_555
Mo3 O10 1_555 1_555
Mo4 O6 1_555 1_555
Mo5 O3 1_555 1_555
Mo6 O1 1_555 1_555
Ag1 N1 1_555 1_555
Ag2 N2 1_555 1_555
Si1 O19 1_555 1_555
F1 C6 1_555 1_555
F2 C9 1_555 1_555
C1 H1 1_555 1_555
C2 H2 1_555 1_555
C3 H3 1_555 1_555
H4 C3 1_555 1_555
C4 C3 1_555 1_555
C5 C4 1_555 1_555
C6 C5 1_555 1_555
C7 C6 1_555 1_555
H5 C7 1_555 1_555
C8 C5 1_555 1_555
H6 C8 1_555 1_555
C9 C7 1_555 1_555
C10 C8 1_555 1_555
H7 C10 1_555 1_555
C11 C4 1_555 1_555
H8 C11 1_555 1_555
H9 C11 1_555 1_555
C12 H10 1_555 1_555
C13 H11 1_555 1_555
N1 C1 1_555 1_555
N2 C1 1_555 1_555
N3 C2 1_555 1_555
N4 C11 1_555 1_555
N5 C12 1_555 1_555
N6 C12 1_555 1_555
O2 Mo6 1_555 1_555
O3 Mo6A 1_555 1_555
O4 Mo5 1_555 1_555
O5 Mo5 1_555 1_555
O6 Mo5A 1_555 1_555
O7 Mo4 1_555 1_555
O8 Mo4 1_555 1_555
O9 Mo2 1_555 1_555
O10 Mo4A 1_555 1_555
O11 Mo3 1_555 1_555
O12 Mo3 1_555 1_555
O13 Mo2 1_555 1_555
O14 Mo2 1_555 1_555
O15 Mo1 1_555 1_555
O16 Mo1 1_555 1_555
O17 Mo1 1_555 1_555
O18 Mo1 1_555 1_555
O19 Mo4 1_555 1_555
O20 Mo2 1_555 1_555
O21 Mo1 1_555 1_555
O22 Mo1 1_555 1_555
O23 C4 1_555 1_555
H12 O23 1_555 1_555
Mo1A O1A 1_555 1_555
Mo2A O5A 1_555 1_555
Mo3A O13 1_555 1_555
Mo4A O6A 1_555 1_555
Mo5A O19 1_555 1_555
Mo6A O1A 1_555 1_555
Ag1A N1A 1_555 1_555
Ag1_2 N6 1_555 1_555
Ag1_3 N1_2 1_555 1_555
Ag2_2 N2_2 1_555 1_555
Ag2A N5 1_555 1_555
Ag2A_2 N5_2 1_555 1_555
F1_2 C6_2 1_555 1_555
F2_2 C9_2 1_555 1_555
C1_2 H1_2 1_555 1_555
C2_2 H2_2 1_555 1_555
C3_2 H3_2 1_555 1_555
H4_2 C3_2 1_555 1_555
C4_2 C3_2 1_555 1_555
C5_2 C4_2 1_555 1_555
C6_2 C5_2 1_555 1_555
C7_2 C6_2 1_555 1_555
H5_2 C7_2 1_555 1_555
C8_2 C5_2 1_555 1_555
H6_2 C8_2 1_555 1_555
C9_2 C7_2 1_555 1_555
C10_2 C8_2 1_555 1_555
H7_2 C10_2 1_555 1_555
C11_2 C4_2 1_555 1_555
H8_2 C11_2 1_555 1_555
H9_2 C11_2 1_555 1_555
C12_2 H10_2 1_555 1_555
C13_2 H11_2 1_555 1_555
N1_2 C1_2 1_555 1_555
N2_2 C1_2 1_555 1_555
N3_2 C2_2 1_555 1_555
N4_2 C11_2 1_555 1_555
N5_2 C12_2 1_555 1_555
N5A Ag2 1_555 1_555
N5A_2 Ag2_2 1_555 1_555
N6_2 Ag1 1_555 1_555
N6A Ag1A 1_555 1_555
O2A Mo6A 1_555 1_555
O3A Mo6 1_555 1_555
O4A Mo5A 1_555 1_555
O5A Mo5A 1_555 1_555
O6A Mo5 1_555 1_555
O7A Mo4A 1_555 1_555
O8A Mo4A 1_555 1_555
O9A Mo2A 1_555 1_555
O10A Mo4 1_555 1_555
O11A Mo3A 1_555 1_555
O12A Mo3A 1_555 1_555
O13A Mo3 1_555 1_555
O14A Mo2A 1_555 1_555
O15A Mo1A 1_555 1_555
O16A Mo1A 1_555 1_555
O17A Mo1A 1_555 1_555
O18A Mo1A 1_555 1_555
O19A Mo5 1_555 1_555
O20A Mo3 1_555 1_555
O21A Si1 1_555 1_555
O22A Si1 1_555 1_555
O23_2 C4_2 1_555 1_555
H12_2 O23_2 1_555 1_555
Mo2 O15 1_555 1_555
Mo2 O22 1_555 1_555
Mo3 O18 1_555 1_555
Mo3 O21 1_555 1_555
Mo4 O9 1_555 1_555
Mo4 O20 1_555 1_555
Mo5 O16 1_555 1_555
Mo5 O22 1_555 1_555
Mo6 O7 1_555 1_555
Mo6 O12 1_555 1_555
Mo6 O19 1_555 1_555
Mo6 O21 1_555 1_555
Ag1 O8 1_555 1_555
Si1 O20 1_555 1_555
Si1 O21 1_555 1_555
Si1 O22 1_555 1_555
Si1 O19A 1_555 1_555
Si1 O20A 1_555 1_555
C2 N1 1_555 1_555
C3 N3 1_555 1_555
C9 C10 1_555 1_555
C13 N4 1_555 1_555
C13 N6 1_555 1_555
N2 N3 1_555 1_555
N4 N5 1_555 1_555
O19 O20 1_555 1_555
O19 O21 1_555 1_555
O19 O22A 1_555 1_555
O20 O22 1_555 1_555
O20 Mo3A 1_555 1_555
O20 O21A 1_555 1_555
O21 O22 1_555 1_555
O21 O20A 1_555 1_555
O22 O19A 1_555 1_555
Mo1A O21A 1_555 1_555
Mo1A O22A 1_555 1_555
Mo2A O13A 1_555 1_555
Mo2A O15A 1_555 1_555
Mo2A O20A 1_555 1_555
Mo2A O22A 1_555 1_555
Mo3A O10A 1_555 1_555
Mo3A O18A 1_555 1_555
Mo3A O21A 1_555 1_555
Mo4A O9A 1_555 1_555
Mo4A O19A 1_555 1_555
Mo4A O20A 1_555 1_555
Mo5A O3A 1_555 1_555
Mo5A O16A 1_555 1_555
Mo5A O22A 1_555 1_555
Mo6A O7A 1_555 1_555
Mo6A O12A 1_555 1_555
Mo6A O19A 1_555 1_555
Mo6A O21A 1_555 1_555
Ag1A O8A 1_555 1_555
C2_2 N1_2 1_555 1_555
C3_2 N3_2 1_555 1_555
C9_2 C10_2 1_555 1_555
C12_2 N6_2 1_555 1_555
C13_2 N4_2 1_555 1_555
C13_2 N6_2 1_555 1_555
N2_2 N3_2 1_555 1_555
N4_2 N5_2 1_555 1_555
O19A O20A 1_555 1_555
O19A O21A 1_555 1_555
O20A O22A 1_555 1_555
O21A O22A 1_555 1_555

#END
