
#######################################################################
#
#                 Cambridge Crystallographic Data Centre
#                                CCDC 
#
#######################################################################
#
# If this CIF has been generated from an entry in the Cambridge 
# Structural Database, then it will include bibliographic, chemical, 
# crystal, experimental, refinement or atomic coordinate data resulting 
# from the CCDC's data processing and validation procedures.
#
#######################################################################

data_OFUFOL
_symmetry_cell_setting           monoclinic
_symmetry_space_group_name_H-M   'P 21/c'
_symmetry_Int_Tables_number      14
_space_group_name_Hall           '-P 2ybc'
loop_
_symmetry_equiv_pos_site_id
_symmetry_equiv_pos_as_xyz
1 x,y,z
2 -x,1/2+y,1/2-z
3 -x,-y,-z
4 x,1/2-y,1/2+z
_cell_length_a                   25.1472(10)
_cell_length_b                   18.2073(7)
_cell_length_c                   17.6380(7)
_cell_angle_alpha                90
_cell_angle_beta                 95.5610(10)
_cell_angle_gamma                90
_cell_volume                     8037.77
loop_
_atom_site_label
_atom_site_type_symbol
_atom_site_fract_x
_atom_site_fract_y
_atom_site_fract_z
F1 F 0.7088(4) -0.0209(6) 1.0089(7)
F2 F 0.6823(8) 0.1457(8) 1.2037(8)
C1 C 0.6877(6) 0.0830(9) 0.8605(8)
H1 H 0.7196 0.0612 0.8797
C2 C 0.6296(6) 0.1588(8) 0.8119(9)
H2 H 0.6143 0.2011 0.7898
C3 C 0.6286(7) -0.0203(8) 0.8817(8)
H3 H 0.6617 -0.0479 0.8899
H4 H 0.6070 -0.0434 0.8397
C4 C 0.5991(5) -0.0267(8) 0.9532(8)
C5 C 0.6037(7) -0.1067(7) 0.9784(8)
H5 H 0.5846 -0.1371 0.9396
H6 H 0.6410 -0.1210 0.9821
C6 C 0.6098(6) -0.1289(8) 1.1167(9)
H7 H 0.6468 -0.1272 1.1266
C7 C 0.5255(6) -0.1380(8) 1.1272(11)
H8 H 0.4938 -0.1441 1.1495
C8 C 0.6223(6) 0.0245(7) 1.0172(8)
C9 C 0.6758(7) 0.0232(9) 1.0480(10)
C10 C 0.6970(9) 0.0654(11) 1.1083(13)
H9 H 0.7335 0.0656 1.1237
C11 C 0.6623(15) 0.1067(12) 1.1442(14)
C12 C 0.6112(11) 0.1134(12) 1.1197(12)
H10 H 0.5895 0.1461 1.1430
C13 C 0.5900(7) 0.0698(10) 1.0569(10)
H11 H 0.5535 0.0715 1.0420
N1 N 0.6828(5) 0.1489(7) 0.8300(6)
H12 H 0.7081 0.1793 0.8231
N2 N 0.6029(4) 0.1004(7) 0.8298(7)
N3 N 0.6411(4) 0.0534(6) 0.8595(6)
N4 N 0.5827(4) -0.1211(6) 1.0513(7)
N5 N 0.5282(5) -0.1271(7) 1.0567(8)
N6 N 0.5754(5) -0.1398(6) 1.1666(7)
H13 H 0.5826 -0.1467 1.2147
O23 O 0.5444(4) -0.0081(6) 0.9366(6)
H14 H 0.5355 -0.0148 0.8911
O24 O 0.4397(6) 0.1818(8) 0.2173(10)
O25 O 0.6176(5) 0.8211(6) 0.3079(6)
O26 O 0.9094(8) 0.6276(11) 0.8522(14)
O27 O 0.9559(14) 0.2549(18) 0.6972(19)
O28 O 0.0218(16) 0.617(2) 0.880(2)
O29 O 0.9547(18) 0.344(2) 0.834(3)
O30 O 0.919(2) 0.940(3) 0.560(3)
Co1 Co 0.78082(6) 1.00546(8) 0.41494(8)
W7 W 0.38970(2) 0.99963(3) 0.35968(3)
W8 W 0.52115(2) 1.01001(3) 0.30524(3)
W9 W 0.63112(2) 1.01232(3) 0.44552(3)
W10 W 0.54535(2) 1.16530(3) 0.42381(3)
W11 W 0.41470(2) 1.15359(3) 0.47910(3)
W12 W 0.52546(2) 1.15502(3) 0.61878(3)
Si2 Si 0.5000 1.0000 0.5000
F3 F 0.8562(5) 0.7525(10) 0.7074(10)
F4 F 0.7438(6) 0.8907(10) 0.8484(9)
F5 F 0.8385(7) 1.2091(9) 0.1356(10)
F6 F 0.7053(12) 1.3572(16) 0.1783(17)
F7 F 0.6822(5) 1.2108(8) -0.0239(6)
C14 C 0.8059(6) 0.8580(7) 0.5002(8)
H15 H 0.8366 0.8753 0.5280
C15 C 0.7360(5) 0.8469(7) 0.4246(8)
H16 H 0.7081 0.8593 0.3884
C16 C 0.8076(5) 0.7256(7) 0.5465(7)
H17 H 0.8420 0.7384 0.5730
H18 H 0.8135 0.6865 0.5108
C17 C 0.7709(5) 0.6969(7) 0.6048(7)
C18 C 0.7643(5) 0.7521(7) 0.6702(7)
C19 C 0.7148(6) 0.7783(9) 0.6833(9)
H19 H 0.6853 0.7643 0.6506
C20 C 0.7075(7) 0.8238(10) 0.7423(10)
H20 H 0.6734 0.8395 0.7513
C21 C 0.7510(9) 0.8459(13) 0.7878(13)
C22 C 0.7995(7) 0.8237(14) 0.7781(11)
H21 H 0.8284 0.8377 0.8119
C23 C 0.8068(7) 0.7786(11) 0.7158(11)
C24 C 0.7960(5) 0.6248(7) 0.6336(7)
H22 H 0.7927 0.5896 0.5922
H23 H 0.8339 0.6330 0.6472
C25 C 0.7994(6) 0.5659(7) 0.7614(7)
H24 H 0.8362 0.5687 0.7739
C26 C 0.7178(5) 0.5445(8) 0.7637(7)
H25 H 0.6858 0.5283 0.7802
C27 C 0.8277(5) 1.0888(7) 0.5596(7)
H26 H 0.8459 1.1224 0.5319
C28 C 0.7765(5) 1.0051(7) 0.5900(7)
H27 H 0.7514 0.9675 0.5860
C29 C 0.8558(6) 1.3644(8) 0.1923(8)
H28 H 0.8779 1.3294 0.1682
H29 H 0.8785 1.3916 0.2301
C30 C 0.8121(6) 1.3229(7) 0.2315(8)
C31 C 0.7743(6) 1.2875(7) 0.1667(8)
C32 C 0.7241(6) 1.3136(8) 0.1444(8)
C33 C 0.6917(7) 1.2892(9) 0.0813(9)
H30 H 0.6575 1.3075 0.0684
C34 C 0.7142(8) 1.2352(10) 0.0388(9)
C35 C 0.7638(9) 1.2072(10) 0.0541(11)
H31 H 0.7781 1.1732 0.0224
C36 C 0.7922(6) 1.2330(9) 0.1210(9)
C37 C 0.8395(6) 1.2705(8) 0.2875(9)
H32 H 0.8566 1.2987 0.3297
H33 H 0.8675 1.2459 0.2631
N7 N 0.7572(5) 1.2298(6) 0.3438(7)
C38 C 0.8192(6) 1.1449(7) 0.3365(7)
H34 H 0.8503 1.1220 0.3243
N8 N 0.7750(4) 0.8961(6) 0.4512(6)
N9 N 0.7860(4) 0.7894(5) 0.5041(6)
N10 N 0.7415(5) 0.7822(6) 0.4542(7)
N11 N 0.7734(4) 0.5921(6) 0.6991(6)
N12 N 0.7204(4) 0.5788(6) 0.6988(6)
N13 N 0.7648(4) 0.9653(5) 0.3040(6)
N14 N 0.8058(5) 1.2139(5) 0.3187(6)
C39 C 0.7449(6) 1.1669(7) 0.3761(8)
H35 H 0.7132 1.1603 0.3984
N15 N 0.7817(4) 1.1132(6) 0.3743(6)
N16 N 0.7946(4) 1.0377(6) 0.5295(6)
N17 N 0.8309(4) 1.4149(6) 0.1351(6)
N18 N 0.7978(5) 1.0315(7) 0.6564(7)
O31 O 0.6947(3) 1.0165(4) 0.4197(5)
O32 O 0.5926(5) 0.9957(7) 0.3502(9)
O33 O 0.8627(4) 0.9962(5) 0.4114(6)
O34 O 0.5299(5) 1.0143(6) 0.2129(6)
O35 O 0.4470(5) 1.0245(6) 0.3022(9)
O36 O 0.3380(4) 0.9989(6) 0.2936(6)
O37 O 0.6445(7) 1.0248(6) 0.5521(7)
O38 O 0.3905(6) 1.0988(6) 0.3928(7)
O39 O 0.6253(6) 0.9102(6) 0.4625(6)
O40 O 0.3737(4) 1.2267(6) 0.4717(6)
O41 O 0.4578(4) 1.1788(9) 0.5706(6)
O42 O 0.5103(4) 0.9085(6) 0.3169(8)
O43 O 0.5360(4) 1.2278(6) 0.6761(7)
O44 O 0.4116(5) 0.9009(6) 0.3572(8)
O45 O 0.5546(4) 1.1865(9) 0.5297(7)
O46 O 0.5650(4) 1.2427(5) 0.3874(6)
O47 O 0.6107(6) 1.1112(7) 0.4381(9)
O48 O 0.4718(5) 1.1864(9) 0.4265(6)
O49 O 0.5291(6) 1.1102(7) 0.3335(10)
O50 O 0.5592(6) 0.9728(8) 0.5216(9)
O51 O 0.4963(6) 1.0881(7) 0.5066(8)
O52 O 0.4780(7) 0.9704(9) 0.4177(10)
O53 O 0.5383(6) 1.0364(8) 0.4358(8)
O54 O 0.7205(3) 0.6779(4) 0.5665(5)
H36 H 0.7054 0.7152 0.5497
O55 O 0.7839(4) 1.3722(5) 0.2755(6)
H37 H 0.7622 1.3492 0.2980
W7B W 0.61030(2) 1.00037(3) 0.64032(3)
W11B W 0.58530(2) 0.84641(3) 0.52090(3)
W12B W 0.47454(2) 0.84498(3) 0.38122(3)
C25C C 0.7994(6) 0.9341(7) 0.2614(7)
C26C C 0.7178(5) 0.9555(8) 0.2637(7)
C27C C 0.8277(5) 1.4112(7) 0.0596(7)
N13C N 0.7648(4) 0.5347(5) 0.8040(6)
N17C N 0.8309(4) 1.0851(6) 0.6351(6)
N18C N 0.7978(5) 1.4685(7) 0.1564(7)
O37B O 0.3555(7) 0.9752(6) 0.4479(7)
O39B O 0.3747(6) 1.0898(6) 0.5375(6)
O42B O 0.4897(4) 1.0915(6) 0.6831(8)
O44B O 0.5884(5) 1.0991(6) 0.6428(8)
O50B O 0.4408(6) 1.0272(8) 0.4784(9)
O51B O 0.5037(6) 0.9119(7) 0.4934(8)
O52B O 0.5220(7) 1.0296(9) 0.5823(10)
O53B O 0.4617(6) 0.9636(8) 0.5642(8)
W1 W -0.06697(3) 0.17150(4) -0.00426(4)
W2 W 0.0744(5) 0.1567(8) 0.0512(7)
W3 W 0.02290(2) 0.13118(4) -0.14031(4)
W4 W 0.0509(5) 0.0271(7) 0.1892(5)
W5 W 0.13823(2) -0.00945(3) 0.05685(4)
W6 W -0.08987(3) 0.03879(3) 0.13626(4)
Si1 Si 0.0000 0.0000 0.0000
O1 O 0.1066(5) 0.2372(6) 0.0748(8)
O2 O 0.0011(5) 0.1984(12) 0.0451(8)
O3 O 0.0672(5) 0.1666(12) -0.0565(8)
O4 O 0.0332(5) 0.1932(7) -0.2065(8)
O5 O -0.0350(8) 0.1756(10) -0.0984(11)
O6 O -0.0819(7) 0.1324(7) 0.0901(8)
O7 O -0.0994(6) 0.2509(6) -0.0058(9)
O8 O -0.0227(6) 0.0579(7) 0.1962(12)
O9 O -0.0266(5) 0.0689(7) -0.1945(12)
O10 O 0.0710(6) 0.0425(9) 0.2831(7)
O11 O 0.0622(6) 0.1237(8) 0.1493(9)
O12 O 0.1102(7) -0.0041(7) 0.1522(9)
O13 O 0.1290(6) 0.0932(7) 0.0471(8)
O14 O 0.2030(5) -0.0158(9) 0.0811(9)
O15 O -0.1372(7) 0.0130(7) 0.0505(8)
O16 O -0.1212(7) 0.1102(8) -0.0535(8)
O17 O -0.1340(6) 0.0568(7) 0.1966(8)
O18 O 0.0772(5) 0.0622(7) -0.1563(12)
O19 O 0.0074(7) 0.0900(10) -0.0148(10)
O20 O 0.0481(7) 0.0302(9) 0.0529(9)
O21 O 0.0124(6) 0.0091(8) -0.0901(9)
O22 O -0.0556(7) 0.0381(9) 0.0134(10)
W4B W -0.0509(5) -0.0271(7) -0.1892(5)
W5B W -0.13823(2) 0.00945(3) -0.05685(4)
W6B W 0.08987(3) -0.03879(3) -0.13626(4)
O9B O 0.0266(5) -0.0689(7) 0.1945(12)
O15B O 0.1372(7) -0.0130(7) -0.0505(8)
O16B O 0.1212(7) -0.1102(8) 0.0535(8)
O18B O -0.0772(5) -0.0622(7) 0.1563(12)
O19B O -0.0074(7) -0.0900(10) 0.0148(10)
O20B O -0.0481(7) -0.0302(9) -0.0529(9)
O21B O -0.0124(6) -0.0091(8) 0.0901(9)
O22B O 0.0556(7) -0.0381(9) -0.0134(10)
W13? W 0.0454(4) 0.0342(7) 0.1947(5)
W14? W 0.0681(5) 0.1662(8) 0.0514(8)
loop_
_geom_bond_atom_site_label_1
_geom_bond_atom_site_label_2
_geom_bond_site_symmetry_1
_geom_bond_site_symmetry_2
W1 O2 1_555 1_555
W2 O1 1_555 1_555
W3 O3 1_555 1_555
W4 O8 1_555 1_555
W5 O12 1_555 1_555
W6 O6 1_555 1_555
Si1 O19 1_555 1_555
O2 W2 1_555 1_555
O3 W2 1_555 1_555
O4 W3 1_555 1_555
O5 W1 1_555 1_555
O6 W1 1_555 1_555
O7 W1 1_555 1_555
O8 W6 1_555 1_555
O9 W3 1_555 1_555
O10 W4 1_555 1_555
O11 W2 1_555 1_555
O12 W4 1_555 1_555
O13 W2 1_555 1_555
O14 W5 1_555 1_555
O15 W6 1_555 1_555
O16 W1 1_555 1_555
O17 W6 1_555 1_555
O18 W3 1_555 1_555
O19 W1 1_555 1_555
O20 W2 1_555 1_555
O21 W3 1_555 1_555
O22 W1 1_555 1_555
F1 C9 1_555 1_555
F2 C11 1_555 1_555
C1 H1 1_555 1_555
C2 H2 1_555 1_555
C3 H3 1_555 1_555
H4 C3 1_555 1_555
C4 C3 1_555 1_555
C5 C4 1_555 1_555
H5 C5 1_555 1_555
H6 C5 1_555 1_555
C6 H7 1_555 1_555
C7 H8 1_555 1_555
C8 C4 1_555 1_555
C9 C8 1_555 1_555
C10 C9 1_555 1_555
H9 C10 1_555 1_555
C11 C10 1_555 1_555
C12 C11 1_555 1_555
H10 C12 1_555 1_555
C13 C8 1_555 1_555
H11 C13 1_555 1_555
N1 C1 1_555 1_555
H12 N1 1_555 1_555
N2 C2 1_555 1_555
N3 C1 1_555 1_555
N4 C5 1_555 1_555
N5 C7 1_555 1_555
N6 C6 1_555 1_555
H13 N6 1_555 1_555
O23 C4 1_555 1_555
H14 O23 1_555 1_555
Co1 N8 1_555 1_555
W7 O35 1_555 1_555
W8 O32 1_555 1_555
W9 O31 1_555 1_555
W10 O45 1_555 1_555
W11 O38 1_555 1_555
W12 O41 1_555 1_555
Si2 O50 1_555 1_555
F3 C23 1_555 1_555
F4 C21 1_555 1_555
F5 C36 1_555 1_555
F6 C32 1_555 1_555
F7 C34 1_555 1_555
C14 H15 1_555 1_555
C15 H16 1_555 1_555
C16 H17 1_555 1_555
H18 C16 1_555 1_555
C17 C16 1_555 1_555
C18 C17 1_555 1_555
C19 C18 1_555 1_555
H19 C19 1_555 1_555
C20 C19 1_555 1_555
H20 C20 1_555 1_555
C21 C20 1_555 1_555
C22 C21 1_555 1_555
H21 C22 1_555 1_555
C23 C18 1_555 1_555
C24 C17 1_555 1_555
H22 C24 1_555 1_555
H23 C24 1_555 1_555
C25 H24 1_555 1_555
C26 H25 1_555 1_555
C27 H26 1_555 1_555
C28 H27 1_555 1_555
C29 H28 1_555 1_555
H29 C29 1_555 1_555
C30 C29 1_555 1_555
C31 C30 1_555 1_555
C32 C31 1_555 1_555
C33 C32 1_555 1_555
H30 C33 1_555 1_555
C34 C33 1_555 1_555
C35 C34 1_555 1_555
H31 C35 1_555 1_555
C36 C31 1_555 1_555
C37 C30 1_555 1_555
H32 C37 1_555 1_555
H33 C37 1_555 1_555
N7 N14 1_555 1_555
C38 H34 1_555 1_555
N8 C14 1_555 1_555
N9 C14 1_555 1_555
N10 C15 1_555 1_555
N11 C24 1_555 1_555
N12 C26 1_555 1_555
N13 Co1 1_555 1_555
N14 C37 1_555 1_555
C39 N7 1_555 1_555
H35 C39 1_555 1_555
N15 Co1 1_555 1_555
N16 Co1 1_555 1_555
N17 C29 1_555 1_555
N18 C28 1_555 1_555
O31 Co1 1_555 1_555
O32 W9 1_555 1_555
O33 Co1 1_555 1_555
O34 W8 1_555 1_555
O35 W8 1_555 1_555
O36 W7 1_555 1_555
O37 W9 1_555 1_555
O38 W7 1_555 1_555
O39 W9 1_555 1_555
O40 W11 1_555 1_555
O41 W11 1_555 1_555
O42 W8 1_555 1_555
O43 W12 1_555 1_555
O44 W7 1_555 1_555
O45 W12 1_555 1_555
O46 W10 1_555 1_555
O47 W9 1_555 1_555
O48 W10 1_555 1_555
O49 W8 1_555 1_555
O50 W9 1_555 1_555
O51 W10 1_555 1_555
O52 W7 1_555 1_555
O53 W8 1_555 1_555
O54 C17 1_555 1_555
H36 O54 1_555 1_555
O55 C30 1_555 1_555
H37 O55 1_555 1_555
W4B O9 1_555 1_555
W5B O15 1_555 1_555
W6B O18 1_555 1_555
O9B W4 1_555 1_555
O15B W5 1_555 1_555
O16B W5 1_555 1_555
O18B W6 1_555 1_555
O19B Si1 1_555 1_555
O20B Si1 1_555 1_555
O21B W4 1_555 1_555
O22B W5 1_555 1_555
W7B O37 1_555 1_555
W11B O39 1_555 1_555
W12B O42 1_555 1_555
C25C N13 1_555 1_555
C26C N13 1_555 1_555
C27C N17 1_555 1_555
N13C C25 1_555 1_555
N17C C27 1_555 1_555
N18C N17 1_555 1_555
O37B W7 1_555 1_555
O39B W11 1_555 1_555
O42B W12 1_555 1_555
O44B W12 1_555 1_555
O50B W7 1_555 1_555
O51B Si2 1_555 1_555
O52B W12 1_555 1_555
O53B Si2 1_555 1_555
W2 O19 1_555 1_555
W3 O5 1_555 1_555
W3 O19 1_555 1_555
W4 O11 1_555 1_555
W4 O20 1_555 1_555
W5 O13 1_555 1_555
W5 O20 1_555 1_555
W6 O22 1_555 1_555
W6 O21B 1_555 1_555
Si1 O20 1_555 1_555
Si1 O21 1_555 1_555
Si1 O22 1_555 1_555
Si1 O21B 1_555 1_555
Si1 O22B 1_555 1_555
O16 W5B 1_555 1_555
O19 O20 1_555 1_555
O19 O21 1_555 1_555
O19 O22 1_555 1_555
O20 O21B 1_555 1_555
O20 O22B 1_555 1_555
O21 W4B 1_555 1_555
O21 W6B 1_555 1_555
O21 O20B 1_555 1_555
O21 O22B 1_555 1_555
O22 W5B 1_555 1_555
O22 O20B 1_555 1_555
O22 O21B 1_555 1_555
C2 N1 1_555 1_555
C3 N3 1_555 1_555
C6 N4 1_555 1_555
C7 N6 1_555 1_555
C12 C13 1_555 1_555
N2 N3 1_555 1_555
N4 N5 1_555 1_555
W8 O52 1_555 1_555
W9 O53 1_555 1_555
W10 O47 1_555 1_555
W10 O49 1_555 1_555
W10 O53 1_555 1_555
W11 O48 1_555 1_555
W11 O51 1_555 1_555
W11 O50B 1_555 1_555
W12 O51 1_555 1_555
Si2 O51 1_555 1_555
Si2 O52 1_555 1_555
Si2 O53 1_555 1_555
Si2 O50B 1_555 1_555
Si2 O52B 1_555 1_555
C15 N8 1_555 1_555
C16 N9 1_555 1_555
C22 C23 1_555 1_555
C25 N11 1_555 1_555
C26 N13C 1_555 1_555
C27 N16 1_555 1_555
C28 N16 1_555 1_555
C35 C36 1_555 1_555
C38 N14 1_555 1_555
C38 N15 1_555 1_555
N9 N10 1_555 1_555
N11 N12 1_555 1_555
C39 N15 1_555 1_555
N18 N17C 1_555 1_555
O44 W12B 1_555 1_555
O50 O53 1_555 1_555
O50 W7B 1_555 1_555
O50 W11B 1_555 1_555
O50 O51B 1_555 1_555
O50 O52B 1_555 1_555
O51 O53 1_555 1_555
O51 O50B 1_555 1_555
O51 O52B 1_555 1_555
O52 O53 1_555 1_555
O52 W12B 1_555 1_555
O52 O50B 1_555 1_555
O52 O51B 1_555 1_555
W4B O20B 1_555 1_555
W5B O20B 1_555 1_555
W6B O15B 1_555 1_555
W6B O22B 1_555 1_555
O19B O20B 1_555 1_555
O19B O21B 1_555 1_555
O19B O22B 1_555 1_555
W7B O44B 1_555 1_555
W7B O52B 1_555 1_555
W11B O51B 1_555 1_555
W12B O51B 1_555 1_555
O50B O53B 1_555 1_555
O51B O53B 1_555 1_555
O52B O53B 1_555 1_555

#END
