
#######################################################################
#
#                 Cambridge Crystallographic Data Centre
#                                CCDC 
#
#######################################################################
#
# If this CIF has been generated from an entry in the Cambridge 
# Structural Database, then it will include bibliographic, chemical, 
# crystal, experimental, refinement or atomic coordinate data resulting 
# from the CCDC's data processing and validation procedures.
#
#######################################################################

data_OFUGOL
_symmetry_cell_setting           monoclinic
_symmetry_space_group_name_H-M   'P 21/n'
_symmetry_Int_Tables_number      14
_space_group_name_Hall           '-P 2yn'
loop_
_symmetry_equiv_pos_site_id
_symmetry_equiv_pos_as_xyz
1 x,y,z
2 1/2+x,1/2-y,1/2+z
3 -x,-y,-z
4 1/2-x,1/2+y,1/2-z
_cell_length_a                   19.379(4)
_cell_length_b                   7.7306(14)
_cell_length_c                   13.9726(15)
_cell_angle_alpha                90.00
_cell_angle_beta                 94.941(11)
_cell_angle_gamma                90.00
_cell_volume                     2085.47
loop_
_atom_site_label
_atom_site_type_symbol
_atom_site_fract_x
_atom_site_fract_y
_atom_site_fract_z
Ag1 Ag 0.088304(15) 0.98655(4) 0.79039(2)
N1 N 0.08820(16) 1.1426(4) 0.6445(2)
N2 N 0.18553(18) 1.2165(5) 0.7906(2)
N3 N 0.35448(16) 1.3548(4) 0.5752(2)
N4 N -0.0267(2) 0.9183(8) 0.7814(4)
N5 N 0.32311(17) 1.2622(5) 0.7562(2)
C1 C 0.0311(2) 1.1530(6) 0.5845(3)
H1 H -0.0067 1.0849 0.5968
C2 C 0.0251(2) 1.2597(7) 0.5053(3)
H2 H -0.0160 1.2648 0.4659
C3 C 0.0814(2) 1.3586(6) 0.4857(3)
H3 H 0.0790 1.4296 0.4317
C4 C 0.1410(2) 1.3514(5) 0.5466(3)
H4 H 0.1791 1.4193 0.5354
C5 C 0.14317(18) 1.2401(5) 0.6256(2)
C6 C 0.20401(18) 1.2326(5) 0.6996(2)
C7 C 0.27374(18) 1.2476(5) 0.6815(2)
C8 C 0.3035(2) 1.2532(6) 0.8451(3)
H5 H 0.3366 1.2662 0.8969
C9 C 0.2354(2) 1.2251(6) 0.8624(3)
H6 H 0.2241 1.2120 0.9253
C10 C 0.3819(2) 1.3569(6) 0.4902(3)
H7 H 0.4188 1.4313 0.4826
C11 C 0.3584(2) 1.2551(7) 0.4141(3)
H8 H 0.3784 1.2622 0.3561
C12 C 0.3046(2) 1.1422(6) 0.4247(3)
H9 H 0.2885 1.0700 0.3744
C13 C 0.2748(2) 1.1376(5) 0.5116(3)
H10 H 0.2380 1.0636 0.5204
C14 C 0.30128(18) 1.2462(5) 0.5852(2)
C15 C -0.0800(2) 0.8601(7) 0.7791(4)
C16 C -0.1497(3) 0.7872(9) 0.7783(6)
N3C N 0.14552(16) 0.8548(4) 0.9248(2)
Ag1C Ag 0.411696(15) 1.48655(4) 0.70961(2)
N6 N 0.0653(4) 1.2823(12) 0.9746(7)
C17 C 0.0493(3) 1.3650(9) 0.9099(6)
C18 C 0.0294(4) 1.4733(10) 0.8296(7)
B1 B 0.3334(3) 1.2446(8) 1.1304(4)
F1 F 0.3866(2) 1.1590(5) 1.1817(2)
F2 F 0.2875(2) 1.1352(6) 1.0826(3)
F3 F 0.29900(18) 1.3449(5) 1.1916(2)
F4 F 0.3616(2) 1.3448(7) 1.0619(3)
loop_
_geom_bond_atom_site_label_1
_geom_bond_atom_site_label_2
_geom_bond_site_symmetry_1
_geom_bond_site_symmetry_2
Ag1 N1 1_555 1_555
N1 C1 1_555 1_555
N2 C6 1_555 1_555
N3 C10 1_555 1_555
N4 Ag1 1_555 1_555
N5 C7 1_555 1_555
N6 C17 1_555 1_555
C1 H1 1_555 1_555
C2 C1 1_555 1_555
H2 C2 1_555 1_555
C3 C2 1_555 1_555
H3 C3 1_555 1_555
C4 C3 1_555 1_555
H4 C4 1_555 1_555
C5 N1 1_555 1_555
C6 C5 1_555 1_555
C7 C6 1_555 1_555
C8 N5 1_555 1_555
H5 C8 1_555 1_555
C9 N2 1_555 1_555
H6 C9 1_555 1_555
C10 H7 1_555 1_555
C11 C10 1_555 1_555
H8 C11 1_555 1_555
C12 C11 1_555 1_555
H9 C12 1_555 1_555
C13 C12 1_555 1_555
H10 C13 1_555 1_555
C14 N3 1_555 1_555
C15 N4 1_555 1_555
C16 C15 1_555 1_555
C17 C18 1_555 1_555
B1 F1 1_555 1_555
F2 B1 1_555 1_555
F3 B1 1_555 1_555
F4 B1 1_555 1_555
N3C Ag1 1_555 1_555
Ag1C N3 1_555 1_555
C4 C5 1_555 1_555
C7 C14 1_555 1_555
C8 C9 1_555 1_555
C13 C14 1_555 1_555

#END
