
#######################################################################
#
#                 Cambridge Crystallographic Data Centre
#                                CCDC 
#
#######################################################################
#
# If this CIF has been generated from an entry in the Cambridge 
# Structural Database, then it will include bibliographic, chemical, 
# crystal, experimental, refinement or atomic coordinate data resulting 
# from the CCDC's data processing and validation procedures.
#
#######################################################################

data_OFUSIS
_symmetry_cell_setting           orthorhombic
_symmetry_space_group_name_H-M   'P b c a'
_symmetry_Int_Tables_number      61
_space_group_name_Hall           '-P 2ac 2ab'
loop_
_symmetry_equiv_pos_site_id
_symmetry_equiv_pos_as_xyz
1 x,y,z
2 1/2-x,-y,1/2+z
3 -x,1/2+y,1/2-z
4 1/2+x,1/2-y,-z
5 -x,-y,-z
6 1/2+x,y,1/2-z
7 x,1/2-y,1/2+z
8 1/2-x,1/2+y,z
_cell_length_a                   13.0038(4)
_cell_length_b                   16.9448(6)
_cell_length_c                   32.4543(11)
_cell_angle_alpha                90
_cell_angle_beta                 90
_cell_angle_gamma                90
_cell_volume                     7151.2
loop_
_atom_site_label
_atom_site_type_symbol
_atom_site_fract_x
_atom_site_fract_y
_atom_site_fract_z
Ni1 Ni 0.84767(3) 0.20643(2) 0.603096(12)
Ni2 Ni 0.51494(3) 0.24909(2) 0.563351(12)
N1 N 0.71878(18) 0.14582(13) 0.58080(8)
N2 N 0.62050(18) 0.15868(14) 0.56686(8)
N3 N 0.87588(19) 0.09155(14) 0.62801(8)
N4 N 0.7804(2) 0.24689(14) 0.65810(8)
N5 N 0.99232(18) 0.25620(14) 0.62328(8)
N6 N 0.40930(18) 0.15116(14) 0.56078(8)
N7 N 0.49284(19) 0.26143(15) 0.62787(9)
N8 N 0.40246(19) 0.33811(14) 0.55124(8)
N9 N 0.80857(19) 0.31104(14) 0.57221(8)
N10 N 0.6320(2) 0.33505(15) 0.56320(10)
N11 N 0.7198(2) 0.32184(13) 0.56777(8)
N12 N 1.02434(19) 0.25754(15) 0.50372(9)
N13 N 0.98015(19) 0.21542(15) 0.52667(9)
N14 N 0.9372(2) 0.17271(15) 0.54989(9)
C1 C 0.6478(2) 0.02756(17) 0.56639(10)
H1 H 0.6382 -0.0265 0.5634
C2 C 0.5791(2) 0.08805(17) 0.55782(10)
C3 C 0.7348(2) 0.06731(17) 0.58045(10)
C4 C 0.8380(2) 0.03910(17) 0.59425(11)
H2 H 0.8859 0.0402 0.5713
H3 H 0.8330 -0.0148 0.6041
C5 C 0.8214(3) 0.0704(2) 0.66742(12)
H4 H 0.8681 0.0799 0.6902
H5 H 0.8067 0.0143 0.6669
C6 C 0.7219(3) 0.1140(2) 0.67598(11)
H6 H 0.6779 0.1101 0.6519
H7 H 0.6869 0.0884 0.6987
C7 C 0.7366(3) 0.1994(2) 0.68630(10)
C8 C 0.7055(4) 0.2282(2) 0.72436(12)
H8 H 0.6770 0.1943 0.7438
C9 C 0.7171(4) 0.3070(2) 0.73328(13)
H9 H 0.6956 0.3270 0.7585
C10 C 0.7608(3) 0.3561(2) 0.70436(11)
H10 H 0.7693 0.4097 0.7096
C11 C 0.7915(3) 0.32397(19) 0.66761(10)
H11 H 0.8216 0.3571 0.6482
C12 C 0.9877(2) 0.07918(19) 0.63411(13)
H12 H 1.0223 0.0838 0.6077
H13 H 0.9990 0.0261 0.6443
C13 C 1.0350(3) 0.1381(2) 0.66427(13)
H14 H 0.9878 0.1448 0.6872
H15 H 1.0977 0.1152 0.6752
C14 C 1.0603(2) 0.21848(18) 0.64754(10)
C15 C 1.1528(2) 0.25312(18) 0.65907(11)
H16 H 1.1989 0.2254 0.6755
C16 C 1.1766(3) 0.3284(2) 0.64622(11)
H17 H 1.2375 0.3526 0.6543
C17 C 1.1069(3) 0.36710(19) 0.62091(11)
H18 H 1.1203 0.4180 0.6116
C18 C 1.0183(2) 0.32913(18) 0.60986(10)
H19 H 0.9734 0.3549 0.5921
C19 C 0.4718(2) 0.08794(17) 0.54092(11)
H20 H 0.4739 0.0965 0.5114
H21 H 0.4401 0.0370 0.5459
C20 C 0.3687(2) 0.12178(19) 0.60082(10)
H22 H 0.3447 0.0681 0.5970
H23 H 0.3096 0.1536 0.6084
C21 C 0.4445(3) 0.12270(18) 0.63647(11)
H24 H 0.4190 0.0887 0.6582
H25 H 0.5098 0.1015 0.6271
C22 C 0.4614(2) 0.20373(19) 0.65345(11)
C23 C 0.4397(3) 0.2191(2) 0.69445(12)
H26 H 0.4179 0.1786 0.7117
C24 C 0.4503(4) 0.2946(3) 0.70956(13)
H27 H 0.4346 0.3058 0.7369
C25 C 0.4845(4) 0.3535(2) 0.68362(12)
H28 H 0.4941 0.4046 0.6933
C26 C 0.5040(3) 0.3352(2) 0.64349(11)
H29 H 0.5260 0.3753 0.6260
C27 C 0.3205(2) 0.17069(18) 0.53347(11)
H30 H 0.2750 0.1254 0.5323
H31 H 0.3461 0.1802 0.5058
C28 C 0.2588(2) 0.24213(18) 0.54720(12)
H32 H 0.1932 0.2405 0.5330
H33 H 0.2447 0.2361 0.5764
C29 C 0.3039(2) 0.32339(18) 0.54084(10)
C30 C 0.2403(2) 0.38174(18) 0.52534(10)
H34 H 0.1732 0.3696 0.5177
C31 C 0.2763(2) 0.45819(18) 0.52113(11)
H35 H 0.2339 0.4979 0.5111
C32 C 0.3769(3) 0.47401(19) 0.53224(11)
H36 H 0.4034 0.5248 0.5302
C33 C 0.4364(2) 0.41323(18) 0.54636(11)
H37 H 0.5045 0.4241 0.5530
Ni2C Ni 1.01494(3) 0.25091(2) 0.436649(12)
N12C N 0.52434(19) 0.24246(15) 0.49628(9)
O1 O 0.2603(5) 0.0842(3) 0.7061(2)
O2 O 0.2658(5) -0.0405(3) 0.71788(15)
O3 O 0.2140(5) 0.0030(3) 0.65852(12)
N15 N 0.2407(2) 0.01456(16) 0.69524(10)
O8 O 0.4549(5) 0.0214(3) 0.75221(15)
H42 H 0.4130 0.0460 0.7384
C35 C 0.5216(7) -0.0200(5) 0.7259(2)
H43 H 0.5877 0.0053 0.7256
H44 H 0.4938 -0.0203 0.6985
H45 H 0.5290 -0.0733 0.7355
O4? O 0.1962(10) -0.0428(5) 0.7128(3)
O5? O 0.2434(12) 0.0150(7) 0.6573(2)
O6? O 0.2540(9) 0.0762(4) 0.7164(3)
O7? O 0.4844(15) -0.0308(8) 0.7239(5)
H38? H 0.4217 -0.0353 0.7252
C34? C 0.5153(14) 0.0370(8) 0.7460(5)
H39? H 0.5290 0.0228 0.7741
H40? H 0.4614 0.0757 0.7451
H41? H 0.5764 0.0584 0.7338
loop_
_geom_bond_atom_site_label_1
_geom_bond_atom_site_label_2
_geom_bond_site_symmetry_1
_geom_bond_site_symmetry_2
Ni1 N1 1_555 1_555
Ni2 N2 1_555 1_555
O1 N15 1_555 1_555
O2 N15 1_555 1_555
O3 N15 1_555 1_555
N1 N2 1_555 1_555
N2 C2 1_555 1_555
N3 Ni1 1_555 1_555
N4 Ni1 1_555 1_555
N5 Ni1 1_555 1_555
N6 Ni2 1_555 1_555
N7 Ni2 1_555 1_555
N8 Ni2 1_555 1_555
N9 Ni1 1_555 1_555
N10 Ni2 1_555 1_555
N11 N9 1_555 1_555
N12 N13 1_555 1_555
N13 N14 1_555 1_555
N14 Ni1 1_555 1_555
C1 H1 1_555 1_555
C2 C1 1_555 1_555
C3 N1 1_555 1_555
C4 N3 1_555 1_555
H2 C4 1_555 1_555
H3 C4 1_555 1_555
C5 N3 1_555 1_555
H4 C5 1_555 1_555
H5 C5 1_555 1_555
C6 C5 1_555 1_555
H6 C6 1_555 1_555
H7 C6 1_555 1_555
C7 N4 1_555 1_555
C8 C7 1_555 1_555
H8 C8 1_555 1_555
C9 C8 1_555 1_555
H9 C9 1_555 1_555
C10 C9 1_555 1_555
H10 C10 1_555 1_555
C11 N4 1_555 1_555
H11 C11 1_555 1_555
C12 N3 1_555 1_555
H12 C12 1_555 1_555
H13 C12 1_555 1_555
C13 C12 1_555 1_555
H14 C13 1_555 1_555
H15 C13 1_555 1_555
C14 N5 1_555 1_555
C15 C14 1_555 1_555
H16 C15 1_555 1_555
C16 C15 1_555 1_555
H17 C16 1_555 1_555
C17 C16 1_555 1_555
H18 C17 1_555 1_555
C18 N5 1_555 1_555
H19 C18 1_555 1_555
C19 N6 1_555 1_555
H20 C19 1_555 1_555
H21 C19 1_555 1_555
C20 N6 1_555 1_555
H22 C20 1_555 1_555
H23 C20 1_555 1_555
C21 C20 1_555 1_555
H24 C21 1_555 1_555
H25 C21 1_555 1_555
C22 N7 1_555 1_555
C23 C22 1_555 1_555
H26 C23 1_555 1_555
C24 C23 1_555 1_555
H27 C24 1_555 1_555
C25 C24 1_555 1_555
H28 C25 1_555 1_555
C26 N7 1_555 1_555
H29 C26 1_555 1_555
C27 N6 1_555 1_555
H30 C27 1_555 1_555
H31 C27 1_555 1_555
C28 C27 1_555 1_555
H32 C28 1_555 1_555
H33 C28 1_555 1_555
C29 N8 1_555 1_555
C30 C29 1_555 1_555
H34 C30 1_555 1_555
C31 C30 1_555 1_555
H35 C31 1_555 1_555
C32 C31 1_555 1_555
H36 C32 1_555 1_555
C33 N8 1_555 1_555
H37 C33 1_555 1_555
O8 H42 1_555 1_555
C35 O8 1_555 1_555
H43 C35 1_555 1_555
H44 C35 1_555 1_555
H45 C35 1_555 1_555
Ni2C N12 1_555 1_555
N12C Ni2 1_555 1_555
N10 N11 1_555 1_555
C1 C3 1_555 1_555
C2 C19 1_555 1_555
C3 C4 1_555 1_555
C6 C7 1_555 1_555
C10 C11 1_555 1_555
C13 C14 1_555 1_555
C17 C18 1_555 1_555
C21 C22 1_555 1_555
C25 C26 1_555 1_555
C28 C29 1_555 1_555
C32 C33 1_555 1_555

#END
