
#######################################################################
#
#                 Cambridge Crystallographic Data Centre
#                                CCDC 
#
#######################################################################
#
# If this CIF has been generated from an entry in the Cambridge 
# Structural Database, then it will include bibliographic, chemical, 
# crystal, experimental, refinement or atomic coordinate data resulting 
# from the CCDC's data processing and validation procedures.
#
#######################################################################

data_OFUWOD
_symmetry_cell_setting           triclinic
_symmetry_space_group_name_H-M   'P -1'
_symmetry_Int_Tables_number      2
_space_group_name_Hall           '-P 1'
loop_
_symmetry_equiv_pos_site_id
_symmetry_equiv_pos_as_xyz
1 x,y,z
2 -x,-y,-z
_cell_length_a                   10.191(2)
_cell_length_b                   12.122(2)
_cell_length_c                   14.884(3)
_cell_angle_alpha                68.13(3)
_cell_angle_beta                 83.47(3)
_cell_angle_gamma                74.45(3)
_cell_volume                     1643.71
loop_
_atom_site_label
_atom_site_type_symbol
_atom_site_fract_x
_atom_site_fract_y
_atom_site_fract_z
Ho1 Ho 1.24392(2) -0.52035(2) 0.899465(17)
Ho2 Ho 0.35775(2) -0.02257(2) 0.784415(17)
Ho3 Ho 0.48918(2) 0.28734(2) 0.540431(16)
C1 C 1.0229(5) -0.2439(5) 0.7336(4)
C2 C 0.9163(5) -0.2714(4) 0.8025(4)
C3 C 0.8002(5) -0.1775(4) 0.7957(4)
H1 H 0.7304 -0.1925 0.8412
C4 C 0.7836(5) -0.0622(5) 0.7238(4)
C5 C 0.8895(5) -0.0390(5) 0.6581(4)
H2 H 0.8805 0.0381 0.6101
C6 C 1.0075(5) -0.1282(5) 0.6628(4)
H3 H 1.0775 -0.1109 0.6181
C7 C 1.2459(5) -0.2989(5) 0.6681(4)
H4 H 1.2764 -0.2341 0.6765
H5 H 1.2096 -0.2686 0.6035
C8 C 1.3637(5) -0.4100(4) 0.6811(4)
C9 C 0.9188(5) -0.3925(4) 0.8817(4)
C10 C 0.6526(5) 0.0320(4) 0.7116(4)
C11 C 0.2003(5) 0.0149(5) 1.0060(4)
C12 C 0.1573(5) 0.1422(5) 0.9566(4)
C13 C 0.0417(5) 0.2068(5) 0.9915(4)
H6 H 0.0126 0.2912 0.9602
C14 C -0.0305(5) 0.1492(5) 1.0707(4)
C15 C 0.0171(5) 0.0234(5) 1.1205(4)
H7 H -0.0292 -0.0159 1.1757
C16 C 0.1320(5) -0.0430(5) 1.0886(4)
H8 H 0.1636 -0.1266 1.1225
C17 C 0.3938(6) -0.1562(6) 1.0369(4)
H9 H 0.3361 -0.2058 1.0805
H10 H 0.4430 -0.1313 1.0752
C18 C 0.4928(6) -0.2306(6) 0.9872(4)
C19 C 0.2284(5) 0.2113(5) 0.8705(4)
C20 C -0.1544(5) 0.2226(5) 1.1058(4)
C21 C 0.1717(5) 0.3301(5) 0.4505(4)
C22 C 0.1204(5) 0.2643(5) 0.5401(4)
C23 C -0.0212(5) 0.2970(4) 0.5558(4)
H11 H -0.0592 0.2522 0.6130
C24 C -0.1055(5) 0.3952(4) 0.4873(4)
C25 C -0.0485(5) 0.4587(4) 0.3984(4)
H12 H -0.1035 0.5245 0.3521
C26 C 0.0884(5) 0.4230(5) 0.3804(4)
H13 H 0.1251 0.4620 0.3204
C27 C 0.3513(5) 0.2321(5) 0.3674(4)
H14 H 0.3429 0.2897 0.3012
H15 H 0.2912 0.1787 0.3766
C28 C 0.4959(5) 0.1573(5) 0.3854(4)
C29 C 0.2093(5) 0.1675(5) 0.6187(4)
C30 C -0.2576(5) 0.4332(5) 0.5041(4)
O1 O 1.1421(3) -0.3346(3) 0.7397(3)
O2 O 1.4568(3) -0.4020(3) 0.6182(3)
O3 O 1.3617(4) -0.5044(3) 0.7525(3)
O4 O 1.0161(3) -0.4836(3) 0.8836(3)
O5 O 0.8207(3) -0.3980(3) 0.9407(3)
O6 O 0.5621(3) 0.0177(3) 0.7783(3)
O7 O 0.6370(4) 0.1193(3) 0.6328(3)
O8 O 0.3111(4) -0.0500(3) 0.9687(3)
O9 O 0.5702(4) -0.3227(4) 1.0414(3)
O10 O 0.4860(4) -0.1993(3) 0.8981(3)
O11 O 0.2959(4) 0.1561(3) 0.8162(3)
O12 O 0.2176(4) 0.3214(3) 0.8537(3)
O13 O -0.1735(3) 0.3372(3) 1.0714(3)
O14 O -0.2319(4) 0.1667(3) 1.1670(3)
O15 O 0.3131(3) 0.2964(3) 0.4319(3)
O16 O 0.5483(4) 0.1099(3) 0.3231(3)
O17 O 0.5546(3) 0.1482(3) 0.4569(3)
O18 O 0.3348(3) 0.1655(3) 0.6227(3)
O19 O 0.1609(4) 0.0861(3) 0.6840(3)
O20 O -0.3163(3) 0.3496(3) 0.5503(3)
O21 O -0.3156(2) 0.54555(19) 0.46818(17)
O22 O 1.4340(2) -0.43190(19) 0.89065(17)
H16 H 1.3977 -0.3596 0.8896
H17 H 1.5179 -0.4400 0.8738
O23 O 0.4682(2) 0.29600(19) 0.70120(17)
H18 H 0.4596 0.2317 0.7482
H19 H 0.4188 0.3598 0.7105
Ho1_2 Ho 0.24392(2) 0.47965(2) 0.899465(17)
Ho1A Ho -0.24392(2) 0.52035(2) 1.100535(17)
Ho1A_2 Ho 0.75608(2) -0.47965(2) 1.100535(17)
Ho2A Ho -0.35775(2) 0.02257(2) 1.215585(17)
Ho2A_2 Ho 0.64225(2) 0.02257(2) 0.215585(17)
Ho3_2 Ho -0.51082(2) 0.28734(2) 0.540431(16)
Ho3A Ho -0.48918(2) 0.71266(2) 0.459569(16)
Ho3A_2 Ho 1.51082(2) -0.28734(2) 0.459569(16)
O2A O 0.5432(3) 0.4020(3) 0.3818(3)
O5A O 1.1793(3) -0.6020(3) 1.0593(3)
O9A O 1.4298(4) -0.6773(4) 0.9586(3)
O12_2 O 1.2176(4) -0.6786(3) 0.8537(3)
O13A O 1.1735(3) -0.3372(3) 0.9286(3)
O14A O 0.2319(4) -0.1667(3) 0.8330(3)
O16A O 0.4517(4) -0.1099(3) 0.6769(3)
O20_2 O 0.6837(3) 0.3496(3) 0.5503(3)
O21A O 0.3156(2) 0.45445(19) 0.53182(17)
O24 O 0.6963(2) 0.46977(19) 0.84905(17)
H20 H 0.7505 0.4933 0.8736
H21 H 0.7121 0.3920 0.8726
O25 O 0.7173(7) 0.3407(9) 0.7459(6)
H22 H 0.6625 0.2970 0.7489
H23 H 0.7236 0.3886 0.6877
loop_
_geom_bond_atom_site_label_1
_geom_bond_atom_site_label_2
_geom_bond_site_symmetry_1
_geom_bond_site_symmetry_2
Ho1 O1 1_555 1_555
Ho2 O6 1_555 1_555
Ho3 O7 1_555 1_555
C1 C2 1_555 1_555
C2 C3 1_555 1_555
C3 H1 1_555 1_555
C4 C3 1_555 1_555
C5 C4 1_555 1_555
H2 C5 1_555 1_555
C6 C1 1_555 1_555
H3 C6 1_555 1_555
C7 H4 1_555 1_555
H5 C7 1_555 1_555
C8 C7 1_555 1_555
C9 C2 1_555 1_555
C10 C4 1_555 1_555
C11 C12 1_555 1_555
C12 C13 1_555 1_555
C13 H6 1_555 1_555
C14 C13 1_555 1_555
C15 C14 1_555 1_555
H7 C15 1_555 1_555
C16 C11 1_555 1_555
H8 C16 1_555 1_555
C17 H9 1_555 1_555
H10 C17 1_555 1_555
C18 C17 1_555 1_555
C19 C12 1_555 1_555
C20 C14 1_555 1_555
C21 C22 1_555 1_555
C22 C23 1_555 1_555
C23 H11 1_555 1_555
C24 C23 1_555 1_555
C25 C24 1_555 1_555
H12 C25 1_555 1_555
C26 C21 1_555 1_555
H13 C26 1_555 1_555
C27 H14 1_555 1_555
H15 C27 1_555 1_555
C28 C27 1_555 1_555
C29 C22 1_555 1_555
C30 C24 1_555 1_555
O1 C1 1_555 1_555
O2 C8 1_555 1_555
O3 Ho1 1_555 1_555
O4 Ho1 1_555 1_555
O5 C9 1_555 1_555
O6 C10 1_555 1_555
O7 C10 1_555 1_555
O8 Ho2 1_555 1_555
O9 C18 1_555 1_555
O10 Ho2 1_555 1_555
O11 Ho2 1_555 1_555
O12 C19 1_555 1_555
O13 C20 1_555 1_555
O14 C20 1_555 1_555
O15 Ho3 1_555 1_555
O16 C28 1_555 1_555
O17 Ho3 1_555 1_555
O18 Ho2 1_555 1_555
O19 Ho2 1_555 1_555
O20 C30 1_555 1_555
O21 C30 1_555 1_555
O22 Ho1 1_555 1_555
H16 O22 1_555 1_555
H17 O22 1_555 1_555
O23 Ho3 1_555 1_555
H18 O23 1_555 1_555
H19 O23 1_555 1_555
O24 H20 1_555 1_555
H21 O24 1_555 1_555
O25 H22 1_555 1_555
H23 O25 1_555 1_555
Ho1_2 O12 1_555 1_555
Ho1A O13 1_555 1_555
Ho1A_2 O5 1_555 1_555
Ho2A O14 1_555 1_555
Ho2A_2 O16 1_555 1_555
Ho3_2 O20 1_555 1_555
Ho3A O21 1_555 1_555
Ho3A_2 O2 1_555 1_555
O2A Ho3 1_555 1_555
O5A Ho1 1_555 1_555
O9A Ho1 1_555 1_555
O12_2 Ho1 1_555 1_555
O13A Ho1 1_555 1_555
O14A Ho2 1_555 1_555
O16A Ho2 1_555 1_555
O20_2 Ho3 1_555 1_555
O21A Ho3 1_555 1_555
Ho3 O18 1_555 1_555
C5 C6 1_555 1_555
C7 O1 1_555 1_555
C8 O3 1_555 1_555
C9 O4 1_555 1_555
C11 O8 1_555 1_555
C15 C16 1_555 1_555
C17 O8 1_555 1_555
C18 O10 1_555 1_555
C19 O11 1_555 1_555
C21 O15 1_555 1_555
C25 C26 1_555 1_555
C27 O15 1_555 1_555
C28 O17 1_555 1_555
C29 O18 1_555 1_555
C29 O19 1_555 1_555
O9 Ho1A_2 1_555 1_555

#END
