
#######################################################################
#
#                 Cambridge Crystallographic Data Centre
#                                CCDC 
#
#######################################################################
#
# If this CIF has been generated from an entry in the Cambridge 
# Structural Database, then it will include bibliographic, chemical, 
# crystal, experimental, refinement or atomic coordinate data resulting 
# from the CCDC's data processing and validation procedures.
#
#######################################################################

data_OFUWET
_symmetry_cell_setting           triclinic
_symmetry_space_group_name_H-M   'P -1'
_symmetry_Int_Tables_number      2
_space_group_name_Hall           '-P 1'
loop_
_symmetry_equiv_pos_site_id
_symmetry_equiv_pos_as_xyz
1 x,y,z
2 -x,-y,-z
_cell_length_a                   10.127(2)
_cell_length_b                   12.181(2)
_cell_length_c                   14.963(3)
_cell_angle_alpha                68.50(3)
_cell_angle_beta                 84.11(3)
_cell_angle_gamma                74.81(3)
_cell_volume                     1657.31
loop_
_atom_site_label
_atom_site_type_symbol
_atom_site_fract_x
_atom_site_fract_y
_atom_site_fract_z
Eu1 Eu 1.24524(4) -0.52008(3) 0.89992(3)
Eu2 Eu 0.35702(4) -0.02267(3) 0.78447(3)
Eu3 Eu 0.49152(4) 0.28762(3) 0.54304(3)
C1 C 1.0217(9) -0.2450(7) 0.7353(6)
C2 C 0.9166(8) -0.2704(7) 0.8021(6)
C3 C 0.8001(8) -0.1778(7) 0.7961(6)
H1 H 0.7297 -0.1925 0.8405
C4 C 0.7861(8) -0.0633(7) 0.7250(6)
C5 C 0.8920(9) -0.0405(8) 0.6601(7)
H2 H 0.8835 0.0359 0.6126
C6 C 1.0096(9) -0.1299(8) 0.6654(7)
H3 H 1.0810 -0.1135 0.6222
C7 C 1.2453(8) -0.2999(7) 0.6695(6)
H4 H 1.2792 -0.2371 0.6783
H5 H 1.2063 -0.2679 0.6058
C8 C 1.3605(9) -0.4090(7) 0.6787(6)
C9 C 0.9177(9) -0.3912(7) 0.8810(6)
C10 C 0.6568(8) 0.0311(7) 0.7148(6)
C11 C 0.1992(9) 0.0172(7) 1.0068(6)
C12 C 0.1567(9) 0.1410(7) 0.9577(6)
C13 C 0.0426(9) 0.2067(7) 0.9907(6)
H6 H 0.0156 0.2905 0.9595
C14 C -0.0323(8) 0.1516(7) 1.0687(6)
C15 C 0.0154(9) 0.0288(7) 1.1182(6)
H7 H -0.0319 -0.0089 1.1726
C16 C 0.1310(9) -0.0396(7) 1.0894(6)
H8 H 0.1627 -0.1220 1.1245
C17 C 0.3860(10) -0.1574(8) 1.0372(7)
H9 H 0.3245 -0.2060 1.0757
H10 H 0.4329 -0.1366 1.0799
C18 C 0.4885(10) -0.2299(8) 0.9883(7)
C19 C 0.2277(9) 0.2114(7) 0.8708(6)
C20 C -0.1522(8) 0.2246(7) 1.1008(6)
C21 C 0.1735(8) 0.3260(7) 0.4517(6)
C22 C 0.1195(8) 0.2648(7) 0.5402(6)
C23 C -0.0194(9) 0.2987(7) 0.5545(6)
H11 H -0.0588 0.2558 0.6111
C24 C -0.1019(8) 0.3965(7) 0.4853(6)
C25 C -0.0451(9) 0.4564(7) 0.3995(6)
H12 H -0.0998 0.5223 0.3536
C26 C 0.0918(9) 0.4193(8) 0.3813(6)
H13 H 0.1290 0.4569 0.3219
C27 C 0.3525(10) 0.2298(9) 0.3690(7)
H14 H 0.3439 0.2870 0.3034
H15 H 0.2923 0.1765 0.3774
C28 C 0.4979(9) 0.1560(8) 0.3872(7)
C29 C 0.2078(8) 0.1672(7) 0.6194(6)
C30 C -0.2545(9) 0.4354(8) 0.5034(6)
O1 O 1.1414(6) -0.3330(5) 0.7408(4)
O2 O 1.4508(6) -0.4014(5) 0.6163(4)
O3 O 1.3576(6) -0.5038(5) 0.7492(4)
O4 O 1.0124(6) -0.4811(5) 0.8822(4)
O5 O 0.8190(6) -0.3941(5) 0.9391(4)
O6 O 0.5663(6) 0.0171(5) 0.7786(4)
O7 O 0.6431(6) 0.1203(5) 0.6360(4)
O8 O 0.3095(6) -0.0496(5) 0.9698(4)
O9 O 0.5630(7) -0.3232(5) 1.0446(5)
O10 O 0.4867(7) -0.1981(5) 0.9005(4)
O11 O 0.2974(6) 0.1555(5) 0.8196(4)
O12 O 0.2158(7) 0.3200(5) 0.8548(5)
O13 O -0.1739(6) 0.3369(5) 1.0663(4)
O14 O -0.2298(6) 0.1687(5) 1.1658(4)
O15 O 0.3132(5) 0.2945(5) 0.4339(4)
O16 O 0.5480(6) 0.1103(5) 0.3255(4)
O17 O 0.5551(6) 0.1472(5) 0.4583(4)
O18 O 0.3336(6) 0.1642(5) 0.6240(4)
O19 O 0.1557(6) 0.0898(5) 0.6826(5)
O20 O -0.3137(6) 0.3561(5) 0.5544(4)
O21 O -0.3132(4) 0.5467(3) 0.4671(2)
O22 O 1.4364(4) -0.4308(3) 0.8896(2)
H16 H 1.4000 -0.3585 0.8886
H17 H 1.5203 -0.4389 0.8728
O23 O 0.4706(4) 0.2971(3) 0.7001(2)
H18 H 0.4620 0.2328 0.7471
H19 H 0.4212 0.3610 0.7094
Eu1_2 Eu 0.24524(4) 0.47992(3) 0.89992(3)
Eu1A Eu -0.24524(4) 0.52008(3) 1.10008(3)
Eu1A_2 Eu 0.75476(4) -0.47992(3) 1.10008(3)
Eu2A Eu -0.35702(4) 0.02267(3) 1.21553(3)
Eu2A_2 Eu 0.64298(4) 0.02267(3) 0.21553(3)
Eu3_2 Eu -0.50848(4) 0.28762(3) 0.54304(3)
Eu3A Eu -0.49152(4) 0.71238(3) 0.45696(3)
Eu3A_2 Eu 1.50848(4) -0.28762(3) 0.45696(3)
O2A O 0.5492(6) 0.4014(5) 0.3837(4)
O5A O 1.1810(6) -0.6059(5) 1.0609(4)
O9A O 1.4370(7) -0.6768(5) 0.9554(5)
O12_2 O 1.2158(7) -0.6800(5) 0.8548(5)
O13A O 1.1739(6) -0.3369(5) 0.9337(4)
O14A O 0.2298(6) -0.1687(5) 0.8342(4)
O16A O 0.4520(6) -0.1103(5) 0.6745(4)
O20_2 O 0.6863(6) 0.3561(5) 0.5544(4)
O21A O 0.3132(4) 0.4533(3) 0.5329(2)
O24 O 0.6986(4) 0.4709(3) 0.8480(2)
H20 H 0.7528 0.4945 0.8725
H21 H 0.7145 0.3931 0.8715
O25 O 0.7241(10) 0.3212(10) 0.7529(7)
H22 H 0.6692 0.2775 0.7559
H23 H 0.7303 0.3692 0.6946
loop_
_geom_bond_atom_site_label_1
_geom_bond_atom_site_label_2
_geom_bond_site_symmetry_1
_geom_bond_site_symmetry_2
Eu1 O1 1_555 1_555
Eu2 O6 1_555 1_555
Eu3 O7 1_555 1_555
C1 C2 1_555 1_555
C2 C3 1_555 1_555
C3 H1 1_555 1_555
C4 C3 1_555 1_555
C5 C4 1_555 1_555
H2 C5 1_555 1_555
C6 C1 1_555 1_555
H3 C6 1_555 1_555
C7 H4 1_555 1_555
H5 C7 1_555 1_555
C8 C7 1_555 1_555
C9 C2 1_555 1_555
C10 C4 1_555 1_555
C11 C12 1_555 1_555
C12 C13 1_555 1_555
C13 H6 1_555 1_555
C14 C13 1_555 1_555
C15 C14 1_555 1_555
H7 C15 1_555 1_555
C16 C11 1_555 1_555
H8 C16 1_555 1_555
C17 H9 1_555 1_555
H10 C17 1_555 1_555
C18 C17 1_555 1_555
C19 C12 1_555 1_555
C20 C14 1_555 1_555
C21 C22 1_555 1_555
C22 C23 1_555 1_555
C23 H11 1_555 1_555
C24 C23 1_555 1_555
C25 C24 1_555 1_555
H12 C25 1_555 1_555
C26 C21 1_555 1_555
H13 C26 1_555 1_555
C27 H14 1_555 1_555
H15 C27 1_555 1_555
C28 C27 1_555 1_555
C29 C22 1_555 1_555
C30 C24 1_555 1_555
O1 C1 1_555 1_555
O2 C8 1_555 1_555
O3 Eu1 1_555 1_555
O4 Eu1 1_555 1_555
O5 C9 1_555 1_555
O6 C10 1_555 1_555
O7 C10 1_555 1_555
O8 Eu2 1_555 1_555
O9 C18 1_555 1_555
O10 Eu2 1_555 1_555
O11 Eu2 1_555 1_555
O12 C19 1_555 1_555
O13 C20 1_555 1_555
O14 C20 1_555 1_555
O15 Eu3 1_555 1_555
O16 C28 1_555 1_555
O17 Eu3 1_555 1_555
O18 Eu2 1_555 1_555
O19 Eu2 1_555 1_555
O20 C30 1_555 1_555
O21 C30 1_555 1_555
O22 Eu1 1_555 1_555
H16 O22 1_555 1_555
H17 O22 1_555 1_555
O23 Eu3 1_555 1_555
H18 O23 1_555 1_555
H19 O23 1_555 1_555
O24 H20 1_555 1_555
H21 O24 1_555 1_555
O25 H22 1_555 1_555
H23 O25 1_555 1_555
Eu1_2 O12 1_555 1_555
Eu1A O13 1_555 1_555
Eu1A_2 O5 1_555 1_555
Eu2A O14 1_555 1_555
Eu2A_2 O16 1_555 1_555
Eu3_2 O20 1_555 1_555
Eu3A O21 1_555 1_555
Eu3A_2 O2 1_555 1_555
O2A Eu3 1_555 1_555
O5A Eu1 1_555 1_555
O9A Eu1 1_555 1_555
O12_2 Eu1 1_555 1_555
O13A Eu1 1_555 1_555
O14A Eu2 1_555 1_555
O16A Eu2 1_555 1_555
O20_2 Eu3 1_555 1_555
O21A Eu3 1_555 1_555
Eu3 O18 1_555 1_555
C5 C6 1_555 1_555
C7 O1 1_555 1_555
C8 O3 1_555 1_555
C9 O4 1_555 1_555
C11 O8 1_555 1_555
C15 C16 1_555 1_555
C17 O8 1_555 1_555
C18 O10 1_555 1_555
C19 O11 1_555 1_555
C21 O15 1_555 1_555
C25 C26 1_555 1_555
C27 O15 1_555 1_555
C28 O17 1_555 1_555
C29 O18 1_555 1_555
C29 O19 1_555 1_555
O9 Eu1A_2 1_555 1_555

#END
