
#######################################################################
#
#                 Cambridge Crystallographic Data Centre
#                                CCDC 
#
#######################################################################
#
# If this CIF has been generated from an entry in the Cambridge 
# Structural Database, then it will include bibliographic, chemical, 
# crystal, experimental, refinement or atomic coordinate data resulting 
# from the CCDC's data processing and validation procedures.
#
#######################################################################

data_OFUZUL
_symmetry_cell_setting           monoclinic
_symmetry_space_group_name_H-M   'P 21/c'
_symmetry_Int_Tables_number      14
_space_group_name_Hall           '-P 2ybc'
loop_
_symmetry_equiv_pos_site_id
_symmetry_equiv_pos_as_xyz
1 x,y,z
2 -x,1/2+y,1/2-z
3 -x,-y,-z
4 x,1/2-y,1/2+z
_cell_length_a                   4.892(2)
_cell_length_b                   14.915(7)
_cell_length_c                   4.972(2)
_cell_angle_alpha                90
_cell_angle_beta                 108.706(8)
_cell_angle_gamma                90
_cell_volume                     343.615
loop_
_atom_site_label
_atom_site_type_symbol
_atom_site_fract_x
_atom_site_fract_y
_atom_site_fract_z
N1 N 0.3265(4) 0.44473(13) -0.3226(4)
N2 N 0.2031(4) 0.40746(14) -0.5783(4)
Cu1 Cu 0.16557(6) 0.549504(19) -0.16731(6)
N3 N 0.5859(4) 0.40707(14) -0.1989(4)
C1 C 0.6271(5) 0.34477(17) -0.3779(5)
C2 C 0.3859(5) 0.34514(17) -0.6183(5)
H1 H 0.794(7) 0.313(2) -0.331(7)
H2 H 0.341(7) 0.314(2) -0.790(8)
N2B N -0.2031(4) 0.59254(14) -0.4217(4)
Cu1B Cu -0.16557(6) 0.450496(19) -0.83269(6)
Cu1B_2 Cu 0.83443(6) 0.450496(19) 0.16731(6)
N3B N 0.4141(4) 0.59293(14) 0.1989(4)
loop_
_geom_bond_atom_site_label_1
_geom_bond_atom_site_label_2
_geom_bond_site_symmetry_1
_geom_bond_site_symmetry_2
N1 N2 1_555 1_555
N2 C2 1_555 1_555
Cu1 N1 1_555 1_555
N3 N1 1_555 1_555
C1 N3 1_555 1_555
C2 C1 1_555 1_555
H1 C1 1_555 1_555
H2 C2 1_555 1_555
N2B Cu1 1_555 1_555
Cu1B N2 1_555 1_555
Cu1B_2 N3 1_555 1_555
N3B Cu1 1_555 1_555

#END
