
#######################################################################
#
#                 Cambridge Crystallographic Data Centre
#                                CCDC 
#
#######################################################################
#
# If this CIF has been generated from an entry in the Cambridge 
# Structural Database, then it will include bibliographic, chemical, 
# crystal, experimental, refinement or atomic coordinate data resulting 
# from the CCDC's data processing and validation procedures.
#
#######################################################################

data_OFUZIA
_symmetry_cell_setting           monoclinic
_symmetry_space_group_name_H-M   'C 2/c'
_symmetry_Int_Tables_number      15
_space_group_name_Hall           '-C 2yn'
loop_
_symmetry_equiv_pos_site_id
_symmetry_equiv_pos_as_xyz
1 x,y,z
2 -x,y,1/2-z
3 1/2+x,1/2+y,z
4 1/2-x,1/2+y,1/2-z
5 -x,-y,-z
6 x,-y,1/2+z
7 1/2-x,1/2-y,-z
8 1/2+x,1/2-y,1/2+z
_cell_length_a                   13.629(3)
_cell_length_b                   24.248(5)
_cell_length_c                   14.286(3)
_cell_angle_alpha                90
_cell_angle_beta                 104.645(3)
_cell_angle_gamma                90
_cell_volume                     4567.79
loop_
_atom_site_label
_atom_site_type_symbol
_atom_site_fract_x
_atom_site_fract_y
_atom_site_fract_z
Zn1 Zn 0.04365(3) 0.146124(15) 0.38410(2)
O1 O 0.13397(18) 0.18109(10) 0.30554(17)
O2 O 0.06012(19) 0.20538(10) 0.15222(16)
O3 O 0.37480(18) 0.32576(11) 0.49056(15)
O4 O 0.48606(19) 0.35924(10) 0.41567(17)
O5 O 0.3241(2) 0.32096(13) 0.06153(16)
H1 H 0.3852 0.3207 0.0657
N1 N 0.1193(2) 0.06994(12) 0.3784(2)
N2 N -0.0722(2) 0.08460(12) 0.37860(19)
C1 C 0.4069(3) 0.33324(14) 0.4157(2)
C2 C 0.3430(3) 0.31027(14) 0.3223(2)
C3 C 0.2681(3) 0.27183(14) 0.3210(2)
H2 H 0.2563 0.2595 0.3788
C4 C 0.2104(3) 0.25153(14) 0.2335(2)
C5 C 0.1283(3) 0.20932(14) 0.2311(2)
C6 C 0.2296(3) 0.26857(16) 0.1472(2)
H3 H 0.1905 0.2551 0.0887
C7 C 0.3073(3) 0.30572(16) 0.1484(2)
C8 C 0.3627(3) 0.32661(15) 0.2348(2)
H4 H 0.4141 0.3519 0.2353
C9 C 0.2166(3) 0.06522(17) 0.3807(3)
H5 H 0.2541 0.0972 0.3804
C10 C 0.2649(3) 0.0152(2) 0.3834(3)
H6 H 0.3336 0.0134 0.3856
C11 C 0.2097(4) -0.03160(19) 0.3829(3)
H7 H 0.2406 -0.0659 0.3848
C12 C 0.1086(3) -0.02812(16) 0.3796(3)
H8 H 0.0700 -0.0599 0.3783
C13 C 0.0647(3) 0.02349(15) 0.3781(2)
C14 C -0.0436(3) 0.03202(15) 0.3762(2)
C15 C -0.1121(3) -0.01101(18) 0.3732(3)
H9 H -0.0909 -0.0474 0.3723
C16 C -0.2111(4) 0.0007(2) 0.3716(3)
H10 H -0.2579 -0.0276 0.3688
C17 C -0.2396(3) 0.0545(2) 0.3743(3)
H11 H -0.3062 0.0634 0.3734
C18 C -0.1692(3) 0.09506(18) 0.3783(3)
H12 H -0.1893 0.1316 0.3810
Zn1A Zn -0.04365(3) 0.146124(15) 0.11590(2)
Zn1F Zn 0.45635(3) 0.353876(15) 0.61590(2)
O2A O -0.06012(19) 0.20538(10) 0.34778(16)
O3F O 0.12520(18) 0.17424(11) 0.50944(15)
loop_
_geom_bond_atom_site_label_1
_geom_bond_atom_site_label_2
_geom_bond_site_symmetry_1
_geom_bond_site_symmetry_2
Zn1 O1 1_555 1_555
O1 C5 1_555 1_555
O2 C5 1_555 1_555
O3 C1 1_555 1_555
O4 C1 1_555 1_555
O5 H1 1_555 1_555
N1 Zn1 1_555 1_555
N2 Zn1 1_555 1_555
C1 C2 1_555 1_555
C2 C3 1_555 1_555
C3 H2 1_555 1_555
C4 C3 1_555 1_555
C5 C4 1_555 1_555
C6 C4 1_555 1_555
H3 C6 1_555 1_555
C7 O5 1_555 1_555
C8 C2 1_555 1_555
H4 C8 1_555 1_555
C9 N1 1_555 1_555
H5 C9 1_555 1_555
C10 C9 1_555 1_555
H6 C10 1_555 1_555
C11 C10 1_555 1_555
H7 C11 1_555 1_555
C12 C11 1_555 1_555
H8 C12 1_555 1_555
C13 N1 1_555 1_555
C14 N2 1_555 1_555
C15 C14 1_555 1_555
H9 C15 1_555 1_555
C16 C15 1_555 1_555
H10 C16 1_555 1_555
C17 C16 1_555 1_555
H11 C17 1_555 1_555
C18 N2 1_555 1_555
H12 C18 1_555 1_555
Zn1A O2 1_555 1_555
Zn1F O3 1_555 1_555
O2A Zn1 1_555 1_555
O3F Zn1 1_555 1_555
C6 C7 1_555 1_555
C7 C8 1_555 1_555
C12 C13 1_555 1_555
C13 C14 1_555 1_555
C17 C18 1_555 1_555

#END
