
#######################################################################
#
#                 Cambridge Crystallographic Data Centre
#                                CCDC 
#
#######################################################################
#
# If this CIF has been generated from an entry in the Cambridge 
# Structural Database, then it will include bibliographic, chemical, 
# crystal, experimental, refinement or atomic coordinate data resulting 
# from the CCDC's data processing and validation procedures.
#
#######################################################################

data_OGADOQ
_symmetry_cell_setting           orthorhombic
_symmetry_space_group_name_H-M   'P n m a'
_symmetry_Int_Tables_number      62
_space_group_name_Hall           '-P 2ac 2n'
loop_
_symmetry_equiv_pos_site_id
_symmetry_equiv_pos_as_xyz
1 x,y,z
2 1/2-x,-y,1/2+z
3 -x,1/2+y,-z
4 1/2+x,1/2-y,1/2-z
5 -x,-y,-z
6 1/2+x,y,1/2-z
7 x,1/2-y,z
8 1/2-x,1/2+y,1/2+z
_cell_length_a                   12.446(3)
_cell_length_b                   13.893(3)
_cell_length_c                   8.9630(18)
_cell_angle_alpha                90
_cell_angle_beta                 90
_cell_angle_gamma                90
_cell_volume                     1549.81
loop_
_atom_site_label
_atom_site_type_symbol
_atom_site_fract_x
_atom_site_fract_y
_atom_site_fract_z
Ni1 Ni 0.03175(3) 0.7500 0.30327(5)
S1 S -0.06906(10) 0.7500 0.79860(10)
S2 S 0.19479(7) 0.7500 0.46316(11)
C1 C -0.0490(3) 0.7500 0.6221(4)
C2 C 0.3051(3) 0.7500 0.3617(4)
N1 N 0.09542(15) 0.65696(14) 0.1589(2)
C3 C 0.14783(17) 0.69641(18) 0.0453(2)
C4 C 0.1969(2) 0.6415(2) -0.0629(3)
H1 H 0.2319 0.6701 -0.1432
C5 C 0.1924(3) 0.5422(2) -0.0482(4)
H2 H 0.2261 0.5029 -0.1179
C6 C 0.0898(2) 0.56014(19) 0.1704(3)
N2 N -0.0367(3) 0.7500 0.4973(4)
C7 C 0.0294(3) 0.5229(2) 0.3015(4)
H3 H 0.0022 0.5759 0.3588
H4 H 0.0765 0.4848 0.3625
H5 H -0.0294 0.4838 0.2678
C8 C 0.1385(3) 0.5025(2) 0.0683(4)
H6 H 0.1350 0.4359 0.0782
N3 N 0.3832(3) 0.7500 0.2973(4)
Ni1C Ni 0.53175(3) 0.7500 0.19673(5)
N1F N 0.09542(15) 0.84304(14) 0.1589(2)
C3F C 0.14783(17) 0.80359(18) 0.0453(2)
C4F C 0.1969(2) 0.8585(2) -0.0629(3)
H1F H 0.2319 0.8299 -0.1432
C5F C 0.1924(3) 0.9578(2) -0.0482(4)
H2F H 0.2261 0.9971 -0.1179
C6F C 0.0898(2) 0.93986(19) 0.1704(3)
C7F C 0.0294(3) 0.9771(2) 0.3015(4)
H3F H 0.0022 0.9241 0.3588
H4F H 0.0765 1.0152 0.3625
H5F H -0.0294 1.0162 0.2678
C8F C 0.1385(3) 0.9975(2) 0.0683(4)
H6F H 0.1350 1.0641 0.0782
N3C N -0.1168(3) 0.7500 0.2027(4)
loop_
_geom_bond_atom_site_label_1
_geom_bond_atom_site_label_2
_geom_bond_site_symmetry_1
_geom_bond_site_symmetry_2
Ni1 S2 1_555 1_555
S1 C1 1_555 1_555
S2 C2 1_555 1_555
C1 N2 1_555 1_555
C2 N3 1_555 1_555
N1 Ni1 1_555 1_555
C3 N1 1_555 1_555
C4 C3 1_555 1_555
H1 C4 1_555 1_555
C5 C4 1_555 1_555
H2 C5 1_555 1_555
C6 N1 1_555 1_555
N2 Ni1 1_555 1_555
C7 C6 1_555 1_555
H3 C7 1_555 1_555
H4 C7 1_555 1_555
H5 C7 1_555 1_555
C8 C5 1_555 1_555
H6 C8 1_555 1_555
N3 Ni1C 1_555 1_555
N1F Ni1 1_555 1_555
C3F C3 1_555 1_555
C4F C3F 1_555 1_555
H1F C4F 1_555 1_555
C5F C4F 1_555 1_555
H2F C5F 1_555 1_555
C6F N1F 1_555 1_555
C7F C6F 1_555 1_555
H3F C7F 1_555 1_555
H4F C7F 1_555 1_555
H5F C7F 1_555 1_555
C8F C5F 1_555 1_555
H6F C8F 1_555 1_555
N3C Ni1 1_555 1_555
C6 C8 1_555 1_555
N1F C3F 1_555 1_555
C6F C8F 1_555 1_555

#END
