
#######################################################################
#
#                 Cambridge Crystallographic Data Centre
#                                CCDC 
#
#######################################################################
#
# If this CIF has been generated from an entry in the Cambridge 
# Structural Database, then it will include bibliographic, chemical, 
# crystal, experimental, refinement or atomic coordinate data resulting 
# from the CCDC's data processing and validation procedures.
#
#######################################################################

data_OGADOQ01
_symmetry_cell_setting           orthorhombic
_symmetry_space_group_name_H-M   'P n m a'
_symmetry_Int_Tables_number      62
_space_group_name_Hall           '-P 2ac 2n'
loop_
_symmetry_equiv_pos_site_id
_symmetry_equiv_pos_as_xyz
1 x,y,z
2 1/2-x,-y,1/2+z
3 -x,1/2+y,-z
4 1/2+x,1/2-y,1/2-z
5 -x,-y,-z
6 1/2+x,y,1/2-z
7 x,1/2-y,z
8 1/2-x,1/2+y,1/2+z
_cell_length_a                   12.3737(7)
_cell_length_b                   13.9101(8)
_cell_length_c                   9.0484(5)
_cell_angle_alpha                90
_cell_angle_beta                 90
_cell_angle_gamma                90
_cell_volume                     1557.41
loop_
_atom_site_label
_atom_site_type_symbol
_atom_site_fract_x
_atom_site_fract_y
_atom_site_fract_z
Ni1 Ni 0.03162(2) 0.2500 0.19688(3)
S1 S -0.06909(7) 0.2500 -0.29881(7)
S2 S 0.19455(5) 0.2500 0.03673(8)
N1 N 0.09540(11) 0.34356(11) 0.34113(15)
N2 N -0.03644(19) 0.2500 0.0026(3)
N3 N 0.38399(19) 0.2500 0.2029(3)
C1 C 0.14791(14) 0.30304(14) 0.45501(18)
C2 C 0.19724(15) 0.35923(16) 0.5626(2)
H1 H 0.2329 0.3309 0.6419
C3 C 0.19227(18) 0.45702(18) 0.5491(3)
H2 H 0.2253 0.4959 0.6194
C4 C 0.1385(2) 0.49807(16) 0.4317(3)
H3 H 0.1352 0.5646 0.4221
C5 C 0.08958(16) 0.43939(15) 0.3287(2)
C6 C 0.0288(2) 0.47825(19) 0.1982(3)
H4 H 0.0641 0.4586 0.1087
H5 H 0.0273 0.5472 0.2031
H6 H -0.0437 0.4539 0.1993
C7 C -0.04840(19) 0.2500 -0.1231(3)
C8 C 0.3050(2) 0.2500 0.1378(3)
N1F N 0.09540(11) 0.15644(11) 0.34113(15)
C1F C 0.14791(14) 0.19696(14) 0.45501(18)
C2F C 0.19724(15) 0.14077(16) 0.5626(2)
H1F H 0.2329 0.1691 0.6419
C3F C 0.19227(18) 0.04298(18) 0.5491(3)
H2F H 0.2253 0.0041 0.6194
C4F C 0.1385(2) 0.00193(16) 0.4317(3)
H3F H 0.1352 -0.0646 0.4221
C5F C 0.08958(16) 0.06061(15) 0.3287(2)
C6F C 0.0288(2) 0.02175(19) 0.1982(3)
H4F H 0.0641 0.0414 0.1087
H5F H 0.0273 -0.0472 0.2031
H6F H -0.0437 0.0461 0.1993
Ni1C Ni 0.53162(2) 0.2500 0.30312(3)
N3C N -0.11601(19) 0.2500 0.2971(3)
loop_
_geom_bond_atom_site_label_1
_geom_bond_atom_site_label_2
_geom_bond_site_symmetry_1
_geom_bond_site_symmetry_2
Ni1 S2 1_555 1_555
S1 C7 1_555 1_555
S2 C8 1_555 1_555
N1 Ni1 1_555 1_555
N2 Ni1 1_555 1_555
N3 C8 1_555 1_555
C1 N1 1_555 1_555
C2 C1 1_555 1_555
H1 C2 1_555 1_555
C3 C2 1_555 1_555
H2 C3 1_555 1_555
C4 C3 1_555 1_555
H3 C4 1_555 1_555
C5 N1 1_555 1_555
C6 C5 1_555 1_555
H4 C6 1_555 1_555
H5 C6 1_555 1_555
H6 C6 1_555 1_555
C7 N2 1_555 1_555
N1F Ni1 1_555 1_555
C1F C1 1_555 1_555
C2F C1F 1_555 1_555
H1F C2F 1_555 1_555
C3F C2F 1_555 1_555
H2F C3F 1_555 1_555
C4F C3F 1_555 1_555
H3F C4F 1_555 1_555
C5F N1F 1_555 1_555
C6F C5F 1_555 1_555
H4F C6F 1_555 1_555
H5F C6F 1_555 1_555
H6F C6F 1_555 1_555
Ni1C N3 1_555 1_555
N3C Ni1 1_555 1_555
C4 C5 1_555 1_555
N1F C1F 1_555 1_555
C4F C5F 1_555 1_555

#END
