
#######################################################################
#
#                 Cambridge Crystallographic Data Centre
#                                CCDC 
#
#######################################################################
#
# If this CIF has been generated from an entry in the Cambridge 
# Structural Database, then it will include bibliographic, chemical, 
# crystal, experimental, refinement or atomic coordinate data resulting 
# from the CCDC's data processing and validation procedures.
#
#######################################################################

data_OGAHIP
_symmetry_cell_setting           triclinic
_symmetry_space_group_name_H-M   'P -1'
_symmetry_Int_Tables_number      2
_space_group_name_Hall           '-P 1'
loop_
_symmetry_equiv_pos_site_id
_symmetry_equiv_pos_as_xyz
1 x,y,z
2 -x,-y,-z
_cell_length_a                   15.1379(10)
_cell_length_b                   15.6777(11)
_cell_length_c                   16.9861(12)
_cell_angle_alpha                63.936(2)
_cell_angle_beta                 80.761(2)
_cell_angle_gamma                81.111(2)
_cell_volume                     3558.26
loop_
_atom_site_label
_atom_site_type_symbol
_atom_site_fract_x
_atom_site_fract_y
_atom_site_fract_z
O1 O 0.7426(2) 0.2647(2) 0.8902(2)
O2 O 0.9328(2) 0.3675(3) 0.8597(2)
O3 O 0.6357(2) 0.4356(3) 0.8376(2)
O4 O 0.8933(2) 0.5139(3) 0.6995(2)
Lu1 Lu 0.791720(12) 0.414870(14) 0.808298(11)
C1 C 0.7114(3) 0.4623(4) 0.6131(3)
C2 C 0.6644(3) 0.5077(3) 0.4751(3)
H1 H 0.6017 0.5336 0.4627
C3 C 0.6723(3) 0.3990(4) 0.5240(3)
H2 H 0.6142 0.3731 0.5320
C4 C 0.7643(3) 0.4418(4) 0.3925(3)
C5 C 0.7141(3) 0.2884(3) 0.6798(3)
H3 H 0.6985 0.2936 0.7359
H4 H 0.6730 0.2472 0.6775
C6 C 0.7702(4) 0.2689(4) 0.4860(3)
H5 H 0.7201 0.2296 0.5166
H6 H 0.7879 0.2643 0.4298
C7 C 0.8711(3) 0.2584(3) 0.7132(3)
C8 C 0.8372(3) 0.1826(3) 0.6330(3)
H7 H 0.8018 0.1270 0.6551
C9 C 0.9359(3) 0.1519(3) 0.6552(3)
H8 H 0.9461 0.0823 0.6913
C10 C 0.9330(3) 0.2268(4) 0.5025(3)
C11 C 1.0221(3) 0.1860(3) 0.7533(3)
H9 H 1.0026 0.2047 0.8019
H10 H 1.0389 0.1171 0.7792
C12 C 1.0804(3) 0.1557(4) 0.5557(4)
H11 H 1.0940 0.1600 0.4958
H12 H 1.0949 0.0892 0.5966
C13 C 1.1288(3) 0.3053(3) 0.7153(3)
C14 C 1.1654(3) 0.1974(3) 0.6511(3)
H13 H 1.1861 0.1294 0.6849
C15 C 1.2422(3) 0.2622(4) 0.6252(3)
H14 H 1.2994 0.2245 0.6460
C16 C 1.1878(3) 0.2785(3) 0.4972(3)
C17 C 1.2683(3) 0.3835(4) 0.6785(3)
H15 H 1.3282 0.3490 0.6879
H16 H 1.2447 0.3928 0.7317
C18 C 1.3187(3) 0.3649(4) 0.4746(3)
H17 H 1.3232 0.3657 0.4161
H18 H 1.3758 0.3350 0.4992
C19 C 0.7488(3) 0.6298(3) 0.8247(3)
C20 C 0.7077(3) 0.7754(3) 0.8351(3)
H19 H 0.7309 0.8359 0.7907
C21 C 0.7748(3) 0.7145(4) 0.9013(3)
H20 H 0.8285 0.7486 0.8906
C22 C 0.6462(4) 0.7494(4) 0.9775(3)
C23 C 0.8600(3) 0.5535(4) 0.9299(3)
H21 H 0.9087 0.5784 0.9427
H22 H 0.8864 0.5223 0.8915
C24 C 0.7670(4) 0.6539(4) 1.0680(3)
H23 H 0.8310 0.6641 1.0563
H24 H 0.7384 0.6844 1.1064
C25 C 0.7848(3) 0.4061(3) 1.0169(3)
C26 C 0.8194(3) 0.4818(4) 1.0984(3)
H25 H 0.8808 0.4821 1.1114
C27 C 0.7788(3) 0.3863(4) 1.1612(3)
H26 H 0.8208 0.3418 1.2037
C28 C 0.6878(3) 0.5132(4) 1.1780(3)
C29 C 0.7420(3) 0.2521(4) 1.1313(3)
H27 H 0.7767 0.2115 1.1809
H28 H 0.7631 0.2325 1.0835
C30 C 0.6474(3) 0.3527(4) 1.2791(3)
H29 H 0.6149 0.3869 1.3130
H30 H 0.6886 0.3021 1.3170
C31 C 0.5950(3) 0.2150(3) 1.1114(3)
C32 C 0.6057(3) 0.2234(3) 1.2435(3)
H31 H 0.6405 0.1744 1.2906
C33 C 0.5122(3) 0.1907(3) 1.2467(3)
H32 H 0.5030 0.1268 1.2949
C34 C 0.4921(3) 0.3319(4) 1.2668(3)
C35 C 0.5494(3) 0.8512(3) 0.8606(3)
H33 H 0.5662 0.9081 0.8077
H34 H 0.5210 0.8721 0.9060
C36 C 0.6453(3) 0.7420(4) 0.7193(3)
H35 H 0.6555 0.8084 0.6798
H36 H 0.6698 0.7029 0.6875
N1 N 0.6943(3) 0.5384(3) 0.5347(2)
N2 N 0.7012(3) 0.3815(3) 0.6087(2)
N3 N 0.7229(3) 0.5241(3) 0.3946(2)
N4 N 0.7395(3) 0.3681(3) 0.4683(3)
N5 N 0.8043(3) 0.2444(3) 0.6774(3)
N6 N 0.9475(3) 0.2060(3) 0.7030(2)
N7 N 0.8452(3) 0.2311(3) 0.5386(3)
N8 N 0.9855(3) 0.1805(3) 0.5704(3)
N9 N 1.0999(3) 0.2334(3) 0.7038(2)
N10 N 1.2112(3) 0.3256(3) 0.6676(2)
N11 N 1.1384(3) 0.2148(3) 0.5667(2)
N12 N 1.2479(3) 0.3078(3) 0.5301(2)
N13 N 0.6936(2) 0.7119(3) 0.7954(2)
N14 N 0.7986(3) 0.6303(3) 0.8845(3)
N15 N 0.6294(3) 0.7910(3) 0.8906(3)
N16 N 0.7271(3) 0.6997(3) 0.9853(3)
N17 N 0.8204(3) 0.4824(3) 1.0122(2)
N18 N 0.7601(3) 0.3492(3) 1.1019(2)
N19 N 0.7586(3) 0.5527(3) 1.1141(3)
N20 N 0.6989(3) 0.4176(3) 1.2044(2)
N21 N 0.6483(3) 0.2355(3) 1.1583(2)
N22 N 0.5164(3) 0.1922(3) 1.1600(2)
N23 N 0.5828(3) 0.3092(3) 1.2565(2)
N24 N 0.4502(3) 0.2654(3) 1.2592(2)
O5 O 0.7321(2) 0.4698(2) 0.6769(2)
O6 O 0.8642(2) 0.3137(2) 0.7496(2)
O7 O 1.0899(2) 0.3440(3) 0.7612(2)
O8 O 0.8129(2) 0.4360(3) 0.3288(2)
O9 O 0.9584(3) 0.2563(3) 0.4241(2)
O10 O 1.1818(2) 0.3031(3) 0.4190(2)
O11 O 0.7546(2) 0.5675(2) 0.7994(2)
O12 O 0.7778(2) 0.3902(2) 0.95310(19)
O13 O 0.6168(2) 0.2158(3) 1.0380(2)
O14 O 0.5928(3) 0.7589(3) 1.0371(2)
O15 O 0.6296(2) 0.5581(3) 1.2060(2)
O16 O 0.4548(2) 0.3986(2) 1.2827(2)
C1A C 1.2886(3) 0.5377(4) 0.3869(3)
C2A C 1.3356(3) 0.4923(3) 0.5249(3)
H1A H 1.3983 0.4664 0.5373
C3A C 1.3277(3) 0.6010(4) 0.4760(3)
H2A H 1.3858 0.6269 0.4680
C4A C 1.2357(3) 0.5582(4) 0.6075(3)
C5A C 1.2859(3) 0.7116(3) 0.3202(3)
H3A H 1.3015 0.7064 0.2641
H4A H 1.3270 0.7528 0.3225
C6A C 1.2298(4) 0.7311(4) 0.5140(3)
H5A H 1.2799 0.7704 0.4834
H6A H 1.2121 0.7357 0.5702
C7A C 1.1289(3) 0.7416(3) 0.2868(3)
C8A C 1.1628(3) 0.8174(3) 0.3670(3)
H7A H 1.1982 0.8730 0.3449
C9A C 1.0641(3) 0.8481(3) 0.3448(3)
H8A H 1.0539 0.9177 0.3087
C10A C 1.0670(3) 0.7732(4) 0.4975(3)
C11A C 0.9779(3) 0.8140(3) 0.2467(3)
H9A H 0.9974 0.7953 0.1981
H10A H 0.9611 0.8829 0.2208
C12A C 0.9196(3) 0.8443(4) 0.4443(4)
H11A H 0.9060 0.8400 0.5042
H12A H 0.9051 0.9108 0.4034
C13A C 0.8712(3) 0.6947(3) 0.2847(3)
C14A C 0.8346(3) 0.8026(3) 0.3489(3)
H13A H 0.8139 0.8706 0.3151
C15A C 0.7578(3) 0.7378(4) 0.3748(3)
H14A H 0.7006 0.7755 0.3540
C16A C 0.8122(3) 0.7215(3) 0.5028(3)
C17A C 0.7317(3) 0.6165(4) 0.3215(3)
H15A H 0.6718 0.6510 0.3121
H16A H 0.7553 0.6072 0.2683
C18A C 0.6813(3) 0.6351(4) 0.5254(3)
H17A H 0.6768 0.6343 0.5839
H18A H 0.6242 0.6650 0.5008
N1A N 1.3057(3) 0.4616(3) 0.4653(2)
N2A N 1.2988(3) 0.6185(3) 0.3913(2)
N3A N 1.2771(3) 0.4759(3) 0.6054(2)
N4A N 1.2605(3) 0.6319(3) 0.5317(3)
N5A N 1.1957(3) 0.7556(3) 0.3226(3)
N6A N 1.0525(3) 0.7940(3) 0.2970(2)
N7A N 1.1548(3) 0.7689(3) 0.4614(3)
N8A N 1.0145(3) 0.8195(3) 0.4296(3)
N9A N 0.9001(3) 0.7666(3) 0.2962(2)
N10A N 0.7888(3) 0.6744(3) 0.3324(2)
N11A N 0.8616(3) 0.7852(3) 0.4333(2)
N12A N 0.7521(3) 0.6922(3) 0.4699(2)
O5A O 1.2679(2) 0.5302(2) 0.3231(2)
O6A O 1.1358(2) 0.6863(2) 0.2504(2)
O7A O 0.9101(2) 0.6560(3) 0.2388(2)
O8A O 1.1871(2) 0.5640(3) 0.6712(2)
O9A O 1.0416(3) 0.7437(3) 0.5759(2)
O10A O 0.8182(2) 0.6969(3) 0.5810(2)
C19A C 0.2512(3) 0.3702(3) 1.1753(3)
C20A C 0.2923(3) 0.2246(3) 1.1649(3)
H19A H 0.2691 0.1641 1.2093
C21A C 0.2252(3) 0.2855(4) 1.0987(3)
H20A H 0.1715 0.2514 1.1094
C22A C 0.3538(4) 0.2506(4) 1.0225(3)
C23A C 0.1400(3) 0.4465(4) 1.0701(3)
H21A H 0.0913 0.4216 1.0573
H22A H 0.1136 0.4777 1.1085
C24A C 0.2330(4) 0.3461(4) 0.9320(3)
H23A H 0.1690 0.3359 0.9437
H24A H 0.2616 0.3156 0.8936
C25A C 0.2152(3) 0.5939(3) 0.9831(3)
C26A C 0.1806(3) 0.5182(4) 0.9016(3)
H25A H 0.1192 0.5179 0.8886
C27A C 0.2212(3) 0.6137(4) 0.8388(3)
H26A H 0.1792 0.6582 0.7963
C28A C 0.3122(3) 0.4868(4) 0.8220(3)
C29A C 0.2580(3) 0.7479(4) 0.8687(3)
H27A H 0.2233 0.7885 0.8191
H28A H 0.2369 0.7675 0.9165
C30A C 0.3526(3) 0.6473(4) 0.7209(3)
H29A H 0.3851 0.6131 0.6870
H30A H 0.3114 0.6979 0.6830
C31A C 0.4050(3) 0.7850(3) 0.8886(3)
C32A C 0.3943(3) 0.7766(3) 0.7565(3)
H31A H 0.3595 0.8256 0.7094
C33A C 0.4878(3) 0.8093(3) 0.7533(3)
H32A H 0.4970 0.8732 0.7051
C34A C 0.5079(3) 0.6681(4) 0.7332(3)
C35A C 0.4506(3) 0.1488(3) 1.1394(3)
H33A H 0.4338 0.0919 1.1923
H34A H 0.4790 0.1279 1.0940
C36A C 0.3547(3) 0.2580(4) 1.2807(3)
H35A H 0.3445 0.1916 1.3202
H36A H 0.3302 0.2971 1.3125
N13A N 0.3064(2) 0.2881(3) 1.2046(2)
N14A N 0.2014(3) 0.3697(3) 1.1155(3)
N15A N 0.3706(3) 0.2090(3) 1.1094(3)
N16A N 0.2729(3) 0.3003(3) 1.0147(3)
N17A N 0.1796(3) 0.5176(3) 0.9878(2)
N18A N 0.2399(3) 0.6508(3) 0.8981(2)
N19A N 0.2414(3) 0.4473(3) 0.8859(3)
N20A N 0.3011(3) 0.5824(3) 0.7956(2)
N21A N 0.3517(3) 0.7645(3) 0.8417(2)
N22A N 0.4836(3) 0.8078(3) 0.8400(2)
N23A N 0.4172(3) 0.6908(3) 0.7435(2)
N24A N 0.5498(3) 0.7346(3) 0.7408(2)
O11A O 0.2454(2) 0.4325(2) 1.2006(2)
O12A O 0.2222(2) 0.6098(2) 1.04690(19)
O13A O 0.3832(2) 0.7842(3) 0.9620(2)
O14A O 0.4072(3) 0.2411(3) 0.9629(2)
O15A O 0.3704(2) 0.4419(3) 0.7940(2)
O16A O 0.5452(2) 0.6014(2) 0.7173(2)
O1A O 0.2574(2) 0.7353(2) 1.1098(2)
O2A O 0.0672(2) 0.6325(3) 1.1403(2)
O3A O 0.3643(2) 0.5644(3) 1.1624(2)
O4A O 0.1067(2) 0.4861(3) 1.3005(2)
Lu1A Lu 0.208280(12) 0.585130(14) 1.191702(11)
Lu1A_2 Lu 1.208280(12) 0.585130(14) 0.191702(11)
O5A_2 O 0.2679(2) 0.5302(2) 1.3231(2)
O6A_2 O 0.1358(2) 0.6863(2) 1.2504(2)
Cl2 Cl 0.48863(12) 0.25600(15) 0.65497(17)
Cl3 Cl 0.39308(13) 0.04077(14) 0.69145(19)
Cl4 Cl 0.64213(13) 0.04598(16) 0.66711(19)
Cl5 Cl 0.5162(4) 0.1829(3) 0.47595(18)
Zn1 Zn 0.50977(5) 0.12929(6) 0.62115(5)
Cl1 Cl 1.01070(12) 0.70467(15) 0.94924(14)
loop_
_geom_bond_atom_site_label_1
_geom_bond_atom_site_label_2
_geom_bond_site_symmetry_1
_geom_bond_site_symmetry_2
O1 Lu1 1_555 1_555
O2 Lu1 1_555 1_555
O3 Lu1 1_555 1_555
O4 Lu1 1_555 1_555
Lu1 O5 1_555 1_555
C1 N1 1_555 1_555
C2 H1 1_555 1_555
C3 C2 1_555 1_555
H2 C3 1_555 1_555
C4 N3 1_555 1_555
C5 H3 1_555 1_555
H4 C5 1_555 1_555
C6 H5 1_555 1_555
H6 C6 1_555 1_555
C7 N5 1_555 1_555
C8 H7 1_555 1_555
C9 C8 1_555 1_555
H8 C9 1_555 1_555
C10 N7 1_555 1_555
C11 H9 1_555 1_555
H10 C11 1_555 1_555
C12 H11 1_555 1_555
H12 C12 1_555 1_555
C13 N9 1_555 1_555
C14 H13 1_555 1_555
C15 C14 1_555 1_555
H14 C15 1_555 1_555
C16 N11 1_555 1_555
C17 H15 1_555 1_555
H16 C17 1_555 1_555
C18 H17 1_555 1_555
H18 C18 1_555 1_555
C19 N13 1_555 1_555
C20 H19 1_555 1_555
C21 C20 1_555 1_555
H20 C21 1_555 1_555
C22 N15 1_555 1_555
C23 H21 1_555 1_555
H22 C23 1_555 1_555
C24 H23 1_555 1_555
H24 C24 1_555 1_555
C25 N17 1_555 1_555
C26 H25 1_555 1_555
C27 C26 1_555 1_555
H26 C27 1_555 1_555
C28 N19 1_555 1_555
C29 H27 1_555 1_555
H28 C29 1_555 1_555
C30 H29 1_555 1_555
H30 C30 1_555 1_555
C31 N21 1_555 1_555
C32 H31 1_555 1_555
C33 C32 1_555 1_555
H32 C33 1_555 1_555
C34 N23 1_555 1_555
C35 H33 1_555 1_555
H34 C35 1_555 1_555
C36 H35 1_555 1_555
H36 C36 1_555 1_555
N1 C2 1_555 1_555
N2 C1 1_555 1_555
N3 C2 1_555 1_555
N4 C3 1_555 1_555
N5 C5 1_555 1_555
N6 C7 1_555 1_555
N7 C6 1_555 1_555
N8 C9 1_555 1_555
N9 C11 1_555 1_555
N10 C13 1_555 1_555
N11 C12 1_555 1_555
N12 C15 1_555 1_555
N13 C20 1_555 1_555
N14 C19 1_555 1_555
N15 C20 1_555 1_555
N16 C21 1_555 1_555
N17 C23 1_555 1_555
N18 C25 1_555 1_555
N19 C24 1_555 1_555
N20 C27 1_555 1_555
N21 C29 1_555 1_555
N22 C31 1_555 1_555
N23 C30 1_555 1_555
N24 C33 1_555 1_555
O5 C1 1_555 1_555
O6 Lu1 1_555 1_555
O7 C13 1_555 1_555
O8 C4 1_555 1_555
O9 C10 1_555 1_555
O10 C16 1_555 1_555
O11 Lu1 1_555 1_555
O12 Lu1 1_555 1_555
O13 C31 1_555 1_555
O14 C22 1_555 1_555
O15 C28 1_555 1_555
O16 C34 1_555 1_555
Cl2 Zn1 1_555 1_555
Cl3 Zn1 1_555 1_555
Cl4 Zn1 1_555 1_555
Cl5 Zn1 1_555 1_555
C1A N1A 1_555 1_555
C2A H1A 1_555 1_555
C3A C2A 1_555 1_555
H2A C3A 1_555 1_555
C4A N3A 1_555 1_555
C5A H3A 1_555 1_555
H4A C5A 1_555 1_555
C6A H5A 1_555 1_555
H6A C6A 1_555 1_555
C7A N5A 1_555 1_555
C8A H7A 1_555 1_555
C9A C8A 1_555 1_555
H8A C9A 1_555 1_555
C10A N7A 1_555 1_555
C11A H9A 1_555 1_555
H10A C11A 1_555 1_555
C12A H11A 1_555 1_555
H12A C12A 1_555 1_555
C13A N9A 1_555 1_555
C14A H13A 1_555 1_555
C15A C14A 1_555 1_555
H14A C15A 1_555 1_555
C16A N11A 1_555 1_555
C17A N3 1_555 1_555
H15A C17A 1_555 1_555
H16A C17A 1_555 1_555
C18A N1 1_555 1_555
H17A C18A 1_555 1_555
H18A C18A 1_555 1_555
N1A C18 1_555 1_555
N2A C1A 1_555 1_555
N3A C17 1_555 1_555
N4A C3A 1_555 1_555
N5A C5A 1_555 1_555
N6A C7A 1_555 1_555
N7A C6A 1_555 1_555
N8A C9A 1_555 1_555
N9A C11A 1_555 1_555
N10A C13A 1_555 1_555
N11A C12A 1_555 1_555
N12A C15A 1_555 1_555
O5A C1A 1_555 1_555
O6A C7A 1_555 1_555
O7A C13A 1_555 1_555
O8A C4A 1_555 1_555
O9A C10A 1_555 1_555
O10A C16A 1_555 1_555
C19A N13A 1_555 1_555
C20A H19A 1_555 1_555
C21A C20A 1_555 1_555
H20A C21A 1_555 1_555
C22A N15A 1_555 1_555
C23A H21A 1_555 1_555
H22A C23A 1_555 1_555
C24A H23A 1_555 1_555
H24A C24A 1_555 1_555
C25A N17A 1_555 1_555
C26A H25A 1_555 1_555
C27A C26A 1_555 1_555
H26A C27A 1_555 1_555
C28A N19A 1_555 1_555
C29A H27A 1_555 1_555
H28A C29A 1_555 1_555
C30A H29A 1_555 1_555
H30A C30A 1_555 1_555
C31A N21A 1_555 1_555
C32A H31A 1_555 1_555
C33A C32A 1_555 1_555
H32A C33A 1_555 1_555
C34A N23A 1_555 1_555
C35A N22 1_555 1_555
H33A C35A 1_555 1_555
H34A C35A 1_555 1_555
C36A N24 1_555 1_555
H35A C36A 1_555 1_555
H36A C36A 1_555 1_555
N13A C20A 1_555 1_555
N14A C19A 1_555 1_555
N15A C20A 1_555 1_555
N16A C21A 1_555 1_555
N17A C23A 1_555 1_555
N18A C25A 1_555 1_555
N19A C24A 1_555 1_555
N20A C27A 1_555 1_555
N21A C29A 1_555 1_555
N22A C35 1_555 1_555
N23A C30A 1_555 1_555
N24A C36 1_555 1_555
O11A C19A 1_555 1_555
O12A C25A 1_555 1_555
O13A C31A 1_555 1_555
O14A C22A 1_555 1_555
O15A C28A 1_555 1_555
O16A C34A 1_555 1_555
O1A Lu1A 1_555 1_555
O2A Lu1A 1_555 1_555
O3A Lu1A 1_555 1_555
O4A Lu1A 1_555 1_555
Lu1A O11A 1_555 1_555
Lu1A_2 O5A 1_555 1_555
O5A_2 Lu1A 1_555 1_555
O6A_2 Lu1A 1_555 1_555
C3 N2 1_555 1_555
C4 N4 1_555 1_555
C5 N2 1_555 1_555
C6 N4 1_555 1_555
C7 O6 1_555 1_555
C8 N5 1_555 1_555
C8 N7 1_555 1_555
C9 N6 1_555 1_555
C10 N8 1_555 1_555
C11 N6 1_555 1_555
C12 N8 1_555 1_555
C14 N9 1_555 1_555
C14 N11 1_555 1_555
C15 N10 1_555 1_555
C16 N12 1_555 1_555
C17 N10 1_555 1_555
C18 N12 1_555 1_555
C19 O11 1_555 1_555
C21 N14 1_555 1_555
C22 N16 1_555 1_555
C23 N14 1_555 1_555
C24 N16 1_555 1_555
C25 O12 1_555 1_555
C26 N17 1_555 1_555
C26 N19 1_555 1_555
C27 N18 1_555 1_555
C28 N20 1_555 1_555
C29 N18 1_555 1_555
C30 N20 1_555 1_555
C32 N21 1_555 1_555
C32 N23 1_555 1_555
C33 N22 1_555 1_555
C34 N24 1_555 1_555
C35 N15 1_555 1_555
C36 N13 1_555 1_555
C2A N1A 1_555 1_555
C2A N3A 1_555 1_555
C3A N2A 1_555 1_555
C4A N4A 1_555 1_555
C5A N2A 1_555 1_555
C6A N4A 1_555 1_555
C8A N5A 1_555 1_555
C8A N7A 1_555 1_555
C9A N6A 1_555 1_555
C10A N8A 1_555 1_555
C11A N6A 1_555 1_555
C12A N8A 1_555 1_555
C14A N9A 1_555 1_555
C14A N11A 1_555 1_555
C15A N10A 1_555 1_555
C16A N12A 1_555 1_555
C17A N10A 1_555 1_555
C18A N12A 1_555 1_555
O6A Lu1A_2 1_555 1_555
C21A N14A 1_555 1_555
C22A N16A 1_555 1_555
C23A N14A 1_555 1_555
C24A N16A 1_555 1_555
C26A N17A 1_555 1_555
C26A N19A 1_555 1_555
C27A N18A 1_555 1_555
C28A N20A 1_555 1_555
C29A N18A 1_555 1_555
C30A N20A 1_555 1_555
C31A N22A 1_555 1_555
C32A N21A 1_555 1_555
C32A N23A 1_555 1_555
C33A N22A 1_555 1_555
C33A N24A 1_555 1_555
C34A N24A 1_555 1_555
C35A N15A 1_555 1_555
C36A N13A 1_555 1_555
O12A Lu1A 1_555 1_555

#END
