
#######################################################################
#
#                 Cambridge Crystallographic Data Centre
#                                CCDC 
#
#######################################################################
#
# If this CIF has been generated from an entry in the Cambridge 
# Structural Database, then it will include bibliographic, chemical, 
# crystal, experimental, refinement or atomic coordinate data resulting 
# from the CCDC's data processing and validation procedures.
#
#######################################################################

data_OGAHUA
_symmetry_cell_setting           triclinic
_symmetry_space_group_name_H-M   'P -1'
_symmetry_Int_Tables_number      2
_space_group_name_Hall           '-P 1'
loop_
_symmetry_equiv_pos_site_id
_symmetry_equiv_pos_as_xyz
1 x,y,z
2 -x,-y,-z
_cell_length_a                   7.121(3)
_cell_length_b                   9.308(4)
_cell_length_c                   10.465(4)
_cell_angle_alpha                71.79(3)
_cell_angle_beta                 75.87(3)
_cell_angle_gamma                74.77(3)
_cell_volume                     625.75
loop_
_atom_site_label
_atom_site_type_symbol
_atom_site_fract_x
_atom_site_fract_y
_atom_site_fract_z
Fe1 Fe 0.5000 0.5000 0.5000
N1 N 0.4434(3) 0.2733(2) 0.57205(19)
C1 C 0.3825(3) 0.1622(2) 0.6293(2)
S1 S 0.28971(10) 0.00843(7) 0.71068(7)
N2 N 0.1825(2) 0.59263(19) 0.58433(16)
N3 N -0.2591(3) 0.3307(2) 0.86249(18)
C2 C 0.0507(3) 0.5010(2) 0.6444(2)
H1 H 0.0939 0.3944 0.6529
C3 C -0.1449(3) 0.5547(2) 0.69443(19)
C4 C -0.2121(3) 0.7113(3) 0.6788(2)
H2 H -0.3462 0.7518 0.7068
C5 C -0.0775(3) 0.8070(3) 0.6211(2)
H3 H -0.1174 0.9137 0.6128
C6 C 0.1162(3) 0.7441(2) 0.5757(2)
H4 H 0.2066 0.8104 0.5368
C7 C -0.1165(3) 0.3134(3) 0.9496(2)
H5 H -0.0031 0.3578 0.8935
H6 H -0.0681 0.2033 0.9894
C8 C -0.2069(4) 0.3912(4) 1.0621(3)
H7 H -0.1092 0.3764 1.1178
H8 H -0.3186 0.3469 1.1183
H9 H -0.2515 0.5008 1.0230
C9 C -0.3854(3) 0.2150(3) 0.9083(2)
H10 H -0.5096 0.2600 0.8732
H11 H -0.4171 0.1852 1.0084
C10 C -0.2816(4) 0.0736(3) 0.8580(3)
H12 H -0.3660 -0.0017 0.8899
H13 H -0.1588 0.0289 0.8930
H14 H -0.2533 0.1027 0.7589
C11 C -0.2871(3) 0.4464(2) 0.7512(2)
O1 O -0.4295(2) 0.46705(18) 0.69387(14)
Fe1_2 Fe -0.5000 0.5000 0.5000
Fe1_3 Fe 1.5000 0.5000 0.5000
N1A N 0.5566(3) 0.7267(2) 0.42795(19)
C1A C 0.6175(3) 0.8378(2) 0.3707(2)
S1A S 0.71029(10) 0.99157(7) 0.28932(7)
N2A N 0.8175(2) 0.40737(19) 0.41567(16)
N3A N 1.2591(3) 0.6693(2) 0.13751(18)
C2A C 0.9493(3) 0.4990(2) 0.3556(2)
H1A H 0.9061 0.6056 0.3471
C3A C 1.1449(3) 0.4453(2) 0.30557(19)
C4A C 1.2121(3) 0.2887(3) 0.3212(2)
H2A H 1.3462 0.2482 0.2932
C5A C 1.0775(3) 0.1930(3) 0.3789(2)
H3A H 1.1174 0.0863 0.3872
C6A C 0.8838(3) 0.2559(2) 0.4243(2)
H4A H 0.7934 0.1896 0.4632
C7A C 1.1165(3) 0.6866(3) 0.0504(2)
H5A H 1.0031 0.6422 0.1065
H6A H 1.0681 0.7967 0.0106
C8A C 1.2069(4) 0.6088(4) -0.0621(3)
H7A H 1.1092 0.6236 -0.1178
H8A H 1.3186 0.6531 -0.1183
H9A H 1.2515 0.4992 -0.0230
C9A C 1.3854(3) 0.7850(3) 0.0917(2)
H10A H 1.5096 0.7400 0.1268
H11A H 1.4171 0.8148 -0.0084
C10A C 1.2816(4) 0.9264(3) 0.1420(3)
H12A H 1.3660 1.0017 0.1101
H13A H 1.1588 0.9711 0.1070
H14A H 1.2533 0.8973 0.2411
C11A C 1.2871(3) 0.5536(2) 0.2488(2)
O1A O 1.4295(2) 0.53295(18) 0.30613(14)
O1_2 O 0.5705(2) 0.46705(18) 0.69387(14)
O1A_2 O 0.4295(2) 0.53295(18) 0.30613(14)
loop_
_geom_bond_atom_site_label_1
_geom_bond_atom_site_label_2
_geom_bond_site_symmetry_1
_geom_bond_site_symmetry_2
Fe1 N1 1_555 1_555
N1 C1 1_555 1_555
C1 S1 1_555 1_555
N2 Fe1 1_555 1_555
N3 C7 1_555 1_555
C2 N2 1_555 1_555
H1 C2 1_555 1_555
C3 C2 1_555 1_555
C4 C3 1_555 1_555
H2 C4 1_555 1_555
C5 C4 1_555 1_555
H3 C5 1_555 1_555
C6 N2 1_555 1_555
H4 C6 1_555 1_555
C7 H5 1_555 1_555
H6 C7 1_555 1_555
C8 C7 1_555 1_555
H7 C8 1_555 1_555
H8 C8 1_555 1_555
H9 C8 1_555 1_555
C9 N3 1_555 1_555
H10 C9 1_555 1_555
H11 C9 1_555 1_555
C10 C9 1_555 1_555
H12 C10 1_555 1_555
H13 C10 1_555 1_555
H14 C10 1_555 1_555
C11 N3 1_555 1_555
O1 C11 1_555 1_555
Fe1_2 O1 1_555 1_555
Fe1_3 O1A 1_555 1_555
N1A Fe1 1_555 1_555
C1A N1A 1_555 1_555
S1A C1A 1_555 1_555
N2A Fe1 1_555 1_555
N3A C7A 1_555 1_555
C2A N2A 1_555 1_555
H1A C2A 1_555 1_555
C3A C2A 1_555 1_555
C4A C3A 1_555 1_555
H2A C4A 1_555 1_555
C5A C4A 1_555 1_555
H3A C5A 1_555 1_555
C6A N2A 1_555 1_555
H4A C6A 1_555 1_555
C7A H5A 1_555 1_555
H6A C7A 1_555 1_555
C8A C7A 1_555 1_555
H7A C8A 1_555 1_555
H8A C8A 1_555 1_555
H9A C8A 1_555 1_555
C9A N3A 1_555 1_555
H10A C9A 1_555 1_555
H11A C9A 1_555 1_555
C10A C9A 1_555 1_555
H12A C10A 1_555 1_555
H13A C10A 1_555 1_555
H14A C10A 1_555 1_555
C11A N3A 1_555 1_555
O1A C11A 1_555 1_555
O1_2 Fe1 1_555 1_555
O1A_2 Fe1 1_555 1_555
C3 C11 1_555 1_555
C5 C6 1_555 1_555
C3A C11A 1_555 1_555
C5A C6A 1_555 1_555

#END
