
#######################################################################
#
#                 Cambridge Crystallographic Data Centre
#                                CCDC 
#
#######################################################################
#
# If this CIF has been generated from an entry in the Cambridge 
# Structural Database, then it will include bibliographic, chemical, 
# crystal, experimental, refinement or atomic coordinate data resulting 
# from the CCDC's data processing and validation procedures.
#
#######################################################################

data_OGAJUC
_symmetry_cell_setting           orthorhombic
_symmetry_space_group_name_H-M   'P 21 21 21'
_symmetry_Int_Tables_number      19
_space_group_name_Hall           'P 2ac 2ab'
loop_
_symmetry_equiv_pos_site_id
_symmetry_equiv_pos_as_xyz
1 x,y,z
2 1/2-x,-y,1/2+z
3 -x,1/2+y,1/2-z
4 1/2+x,1/2-y,-z
_cell_length_a                   11.9955(6)
_cell_length_b                   23.4684(11)
_cell_length_c                   20.7283(10)
_cell_angle_alpha                90
_cell_angle_beta                 90
_cell_angle_gamma                90
_cell_volume                     5835.33
loop_
_atom_site_label
_atom_site_type_symbol
_atom_site_fract_x
_atom_site_fract_y
_atom_site_fract_z
W1 W -0.16247(6) 0.50269(3) 0.26919(4)
W2 W 0.06841(7) 0.50345(3) 0.34927(4)
W3 W 0.22935(6) 0.37064(3) 0.36694(4)
W4 W 0.13844(6) 0.24907(3) 0.30098(4)
W5 W -0.12342(7) 0.25471(3) 0.21155(4)
W6 W -0.26983(6) 0.37036(3) 0.19339(4)
W7 W -0.14969(6) 0.43833(3) 0.40789(4)
W8 W 0.00645(6) 0.30352(3) 0.42735(4)
W9 W -0.25397(6) 0.30669(3) 0.33394(4)
W10 W -0.02201(6) 0.44141(3) 0.12807(4)
W11 W 0.12498(6) 0.32180(3) 0.14326(4)
W12 W 0.21588(6) 0.44204(3) 0.20925(4)
Ce1 Ce 0.62377(8) 0.62027(4) 0.17773(5)
Ce2 Ce 0.30815(8) 0.62988(4) 0.37758(5)
O1 O 0.6951(10) 0.6745(6) 0.0772(6)
H1 H 0.7448 0.6580 0.0506
H2 H 0.6702 0.7099 0.0689
O2 O -0.2432(9) 0.5595(5) 0.2443(6)
O4 O 0.1449(9) 0.5613(5) 0.3790(6)
O6 O 0.5560(11) 0.5206(6) 0.1958(9)
H7 H 0.5533 0.4961 0.1624
H8 H 0.5343 0.5093 0.2353
O7 O 0.3545(11) 0.3810(6) 0.4035(7)
O9 O 0.5282(11) 0.5934(6) 0.0760(6)
H11 H 0.5477 0.6103 0.0386
H12 H 0.4739 0.5670 0.0765
O10 O 0.2044(9) 0.1854(5) 0.2949(6)
O12 O 0.5488(10) 0.7197(6) 0.1758(7)
H15 H 0.5672 0.7434 0.1433
H16 H 0.5035 0.7319 0.2076
O13 O 0.7650(10) 0.5646(6) 0.1084(7)
H17 H 0.7936 0.5807 0.0727
H18 H 0.7859 0.5292 0.1199
O14 O -0.1551(10) 0.1929(6) 0.1737(7)
O16 O -0.3835(11) 0.3879(6) 0.1474(7)
O17 O 0.3831(12) 0.7082(6) 0.4482(7)
H21 H 0.4417 0.7014 0.4742
H22 H 0.3516 0.7430 0.4474
O19 O -0.2227(10) 0.4528(5) 0.4771(6)
O20 O 0.3640(11) 0.5240(6) 0.3600(8)
H25 H 0.3308 0.4965 0.3833
H26 H 0.4164 0.5149 0.3307
O22 O -0.0134(12) 0.2739(6) 0.5004(7)
O23 O 0.3305(11) 0.5834(6) 0.4828(7)
H29 H 0.3497 0.5463 0.4848
H30 H 0.3197 0.6033 0.5194
O24 O -0.3648(10) 0.2798(5) 0.3791(7)
O25 O 0.4035(9) 0.7042(6) 0.3083(6)
H31 H 0.4548 0.6937 0.2789
H32 H 0.3861 0.7412 0.3132
O26 O -0.0531(12) 0.4796(6) 0.0600(7)
O27 O 0.1619(10) 0.6675(6) 0.4574(7)
H33 H 0.1245 0.6429 0.4828
H34 H 0.1482 0.7051 0.4602
O28 O 0.1806(10) 0.2816(5) 0.0838(6)
O29 O 0.3377(11) 0.4790(6) 0.1951(8)
O30 O -0.0412(9) 0.5481(5) 0.3040(6)
O31 O 0.1546(11) 0.4399(5) 0.3812(6)
O32 O 0.2544(10) 0.2931(5) 0.3388(6)
O33 O -0.0069(9) 0.2335(5) 0.2659(6)
O34 O -0.2528(10) 0.4428(5) 0.2388(6)
O35 O -0.2397(10) 0.2970(5) 0.1607(6)
O36 O -0.2275(10) 0.4948(5) 0.3545(7)
O37 O -0.0315(9) 0.4946(5) 0.4222(6)
O38 O 0.1516(11) 0.3366(6) 0.4404(7)
O39 O 0.0756(10) 0.2395(5) 0.3866(7)
O40 O -0.0563(9) 0.3791(5) 0.4380(6)
O41 O -0.2369(10) 0.2415(5) 0.2786(6)
O42 O -0.3513(10) 0.3410(5) 0.2670(6)
O43 O -0.2428(10) 0.3816(5) 0.3719(6)
O44 O -0.1319(10) 0.2858(5) 0.3863(6)
O45 O 0.0552(10) 0.3933(5) 0.2083(6)
O46 O -0.0770(9) 0.4934(6) 0.1923(6)
O47 O -0.1544(11) 0.3984(5) 0.1382(7)
O48 O 0.0506(9) 0.3764(5) 0.0874(6)
O49 O 0.1670(10) 0.2816(5) 0.2196(6)
O50 O -0.0168(10) 0.2852(5) 0.1546(7)
O51 O 0.2415(10) 0.3766(5) 0.1567(6)
O52 O 0.1292(10) 0.4736(5) 0.1417(7)
O53 O 0.1453(10) 0.4893(5) 0.2705(6)
O54 O 0.2561(11) 0.3951(5) 0.2814(6)
O55 O -0.0550(9) 0.4429(5) 0.3173(6)
O56 O 0.0623(10) 0.3336(6) 0.3293(7)
O57 O -0.1408(10) 0.3343(5) 0.2582(6)
O58 O 0.6062(10) 0.6475(5) 0.2912(6)
O59 O 0.4213(10) 0.6188(6) 0.1910(7)
O60 O 0.5137(11) 0.6170(6) 0.3774(6)
O61 O 0.2913(10) 0.6015(5) 0.2651(6)
C1 C 0.5984(16) 0.6302(8) 0.3493(10)
C2 C 0.7038(14) 0.6242(8) 0.3883(8)
C3 C 0.8063(14) 0.6474(8) 0.3657(9)
H35 H 0.8099 0.6668 0.3266
C4 C 0.9014(18) 0.6403(9) 0.4039(12)
H36 H 0.9701 0.6530 0.3889
N1 N 0.0662(14) 0.6456(7) 0.0725(8)
C5 C 0.799(2) 0.5935(10) 0.4842(12)
H37 H 0.8005 0.5747 0.5237
C6 C 0.6996(17) 0.5977(9) 0.4510(10)
H38 H 0.6332 0.5842 0.4683
C7 C 0.3231(15) 0.6136(7) 0.2099(9)
C8 C 0.2315(15) 0.6245(7) 0.1583(10)
C9 C 0.2545(15) 0.6474(7) 0.1002(9)
H39 H 0.3278 0.6552 0.0887
C10 C 0.1719(18) 0.6587(8) 0.0593(11)
H40 H 0.1884 0.6764 0.0203
N2 N 0.8947(14) 0.6158(8) 0.4611(9)
C11 C 0.0407(15) 0.6223(8) 0.1318(13)
H41 H -0.0332 0.6145 0.1420
C12 C 0.1213(16) 0.6108(7) 0.1754(9)
H42 H 0.1046 0.5945 0.2151
Ce1_2 Ce -0.37623(8) 0.62027(4) 0.17773(5)
Ce1B Ce 0.37623(8) 0.12027(4) 0.32227(5)
Ce2B Ce -0.30815(8) 0.12988(4) 0.12242(5)
O2_2 O 0.7568(9) 0.5595(5) 0.2443(6)
O10B O 0.7956(9) 0.6854(5) 0.2051(6)
O14B O 0.1551(10) 0.6929(6) 0.3263(7)
O3 O -0.6493(17) 0.4708(6) 0.5045(10)
H3 H -0.7068 0.4877 0.5248
H4 H -0.6215 0.4378 0.5197
O5 O -0.4254(11) 0.8041(7) 0.2718(8)
H5 H -0.4079 0.8355 0.2491
H6 H -0.4522 0.8073 0.3122
O8 O -0.9414(12) 0.5960(6) 0.5492(7)
H9 H -0.9942 0.6230 0.5536
H10 H -0.9381 0.5669 0.5774
O11 O -0.8858(11) 0.1575(6) 0.5041(8)
H13 H -0.9110 0.1274 0.4816
H14 H -0.8929 0.1583 0.5474
O15 O -0.5656(12) 0.2686(8) 0.0947(8)
H19 H -0.5593 0.2549 0.0543
H20 H -0.5914 0.2461 0.1265
O18 O -0.1531(14) 0.2841(6) 0.0302(8)
H23 H -0.2012 0.2547 0.0286
H24 H -0.0823 0.2794 0.0169
O21 O -0.868(2) 0.4850(8) 0.5473(12)
H27 H -0.8957 0.4494 0.5470
H28 H -0.8836 0.5086 0.5802
loop_
_geom_bond_atom_site_label_1
_geom_bond_atom_site_label_2
_geom_bond_site_symmetry_1
_geom_bond_site_symmetry_2
W1 O2 1_555 1_555
W2 O4 1_555 1_555
W3 O7 1_555 1_555
W4 O10 1_555 1_555
W5 O14 1_555 1_555
W6 O16 1_555 1_555
W7 O19 1_555 1_555
W8 O22 1_555 1_555
W9 O24 1_555 1_555
W10 O26 1_555 1_555
W11 O28 1_555 1_555
W12 O29 1_555 1_555
Ce1 O1 1_555 1_555
Ce2 O4 1_555 1_555
O1 H1 1_555 1_555
H2 O1 1_555 1_555
O2 Ce1_2 1_555 1_555
O3 H3 1_555 1_555
H4 O3 1_555 1_555
O5 H5 1_555 1_555
H6 O5 1_555 1_555
O6 Ce1 1_555 1_555
H7 O6 1_555 1_555
H8 O6 1_555 1_555
O8 H9 1_555 1_555
H10 O8 1_555 1_555
O9 Ce1 1_555 1_555
H11 O9 1_555 1_555
H12 O9 1_555 1_555
O10 Ce1B 1_555 1_555
O11 H13 1_555 1_555
H14 O11 1_555 1_555
O12 Ce1 1_555 1_555
H15 O12 1_555 1_555
H16 O12 1_555 1_555
O13 Ce1 1_555 1_555
H17 O13 1_555 1_555
H18 O13 1_555 1_555
O14 Ce2B 1_555 1_555
O15 H19 1_555 1_555
H20 O15 1_555 1_555
O17 Ce2 1_555 1_555
H21 O17 1_555 1_555
H22 O17 1_555 1_555
O18 H23 1_555 1_555
H24 O18 1_555 1_555
O20 Ce2 1_555 1_555
H25 O20 1_555 1_555
H26 O20 1_555 1_555
O21 H27 1_555 1_555
H28 O21 1_555 1_555
O23 Ce2 1_555 1_555
H29 O23 1_555 1_555
H30 O23 1_555 1_555
O25 Ce2 1_555 1_555
H31 O25 1_555 1_555
H32 O25 1_555 1_555
O27 Ce2 1_555 1_555
H33 O27 1_555 1_555
H34 O27 1_555 1_555
O30 W1 1_555 1_555
O31 W2 1_555 1_555
O32 W3 1_555 1_555
O33 W4 1_555 1_555
O34 W1 1_555 1_555
O35 W5 1_555 1_555
O36 W1 1_555 1_555
O37 W2 1_555 1_555
O38 W3 1_555 1_555
O39 W4 1_555 1_555
O40 W7 1_555 1_555
O41 W5 1_555 1_555
O42 W6 1_555 1_555
O43 W7 1_555 1_555
O44 W8 1_555 1_555
O45 W10 1_555 1_555
O46 W1 1_555 1_555
O47 W6 1_555 1_555
O48 W10 1_555 1_555
O49 W4 1_555 1_555
O50 W5 1_555 1_555
O51 W11 1_555 1_555
O52 W10 1_555 1_555
O53 W2 1_555 1_555
O54 W3 1_555 1_555
O55 W1 1_555 1_555
O56 W3 1_555 1_555
O57 W5 1_555 1_555
O58 Ce1 1_555 1_555
O59 Ce1 1_555 1_555
O60 Ce2 1_555 1_555
O61 Ce2 1_555 1_555
C1 O58 1_555 1_555
C2 C1 1_555 1_555
C3 C2 1_555 1_555
H35 C3 1_555 1_555
C4 C3 1_555 1_555
H36 C4 1_555 1_555
N1 C10 1_555 1_555
C5 H37 1_555 1_555
C6 C2 1_555 1_555
H38 C6 1_555 1_555
C7 O59 1_555 1_555
C8 C7 1_555 1_555
C9 C8 1_555 1_555
H39 C9 1_555 1_555
C10 C9 1_555 1_555
H40 C10 1_555 1_555
N2 C4 1_555 1_555
C11 N1 1_555 1_555
H41 C11 1_555 1_555
C12 C8 1_555 1_555
H42 C12 1_555 1_555
O2_2 Ce1 1_555 1_555
O10B Ce1 1_555 1_555
O14B Ce2 1_555 1_555
W2 O30 1_555 1_555
W2 O55 1_555 1_555
W3 O31 1_555 1_555
W4 O32 1_555 1_555
W4 O56 1_555 1_555
W5 O33 1_555 1_555
W6 O34 1_555 1_555
W6 O35 1_555 1_555
W6 O57 1_555 1_555
W7 O36 1_555 1_555
W7 O37 1_555 1_555
W7 O55 1_555 1_555
W8 O38 1_555 1_555
W8 O39 1_555 1_555
W8 O40 1_555 1_555
W8 O56 1_555 1_555
W9 O41 1_555 1_555
W9 O42 1_555 1_555
W9 O43 1_555 1_555
W9 O44 1_555 1_555
W9 O57 1_555 1_555
W10 O46 1_555 1_555
W10 O47 1_555 1_555
W11 O45 1_555 1_555
W11 O48 1_555 1_555
W11 O49 1_555 1_555
W11 O50 1_555 1_555
W12 O45 1_555 1_555
W12 O51 1_555 1_555
W12 O52 1_555 1_555
W12 O53 1_555 1_555
W12 O54 1_555 1_555
O60 C1 1_555 1_555
O61 C7 1_555 1_555
C5 C6 1_555 1_555
C5 N2 1_555 1_555
C11 C12 1_555 1_555

#END
