
#######################################################################
#
#                 Cambridge Crystallographic Data Centre
#                                CCDC 
#
#######################################################################
#
# If this CIF has been generated from an entry in the Cambridge 
# Structural Database, then it will include bibliographic, chemical, 
# crystal, experimental, refinement or atomic coordinate data resulting 
# from the CCDC's data processing and validation procedures.
#
#######################################################################

data_OGAJEN
_symmetry_cell_setting           triclinic
_symmetry_space_group_name_H-M   'P -1'
_symmetry_Int_Tables_number      2
_space_group_name_Hall           '-P 1'
loop_
_symmetry_equiv_pos_site_id
_symmetry_equiv_pos_as_xyz
1 x,y,z
2 -x,-y,-z
_cell_length_a                   15.31(2)
_cell_length_b                   15.81(2)
_cell_length_c                   17.28(2)
_cell_angle_alpha                64.156(15)
_cell_angle_beta                 81.043(17)
_cell_angle_gamma                81.527(17)
_cell_volume                     3703.52
loop_
_atom_site_label
_atom_site_type_symbol
_atom_site_fract_x
_atom_site_fract_y
_atom_site_fract_z
O1 O 0.9350(4) -0.1336(4) 0.8579(4)
O2 O 0.6314(4) -0.0644(5) 0.8358(4)
O3 O 0.7408(4) -0.2386(4) 0.8928(4)
O4 O 0.8948(4) 0.0174(4) 0.6980(4)
Ho1 Ho 0.79144(3) -0.08585(3) 0.80800(3)
C1 C 0.7466(6) 0.1287(7) 0.8269(6)
C2 C 0.7063(5) 0.2756(6) 0.8354(5)
H1 H 0.7292 0.3354 0.7919
C3 C 0.7742(6) 0.2164(6) 0.9021(6)
H2 H 0.8274 0.2504 0.8911
C4 C 0.6435(6) 0.2499(7) 0.9770(7)
C5 C 0.8594(5) 0.0534(6) 0.9313(6)
H3 H 0.9072 0.0787 0.9442
H4 H 0.8858 0.0222 0.8939
C6 C 0.7645(6) 0.1534(6) 1.0681(6)
H5 H 0.7365 0.1829 1.1064
H6 H 0.8277 0.1634 1.0572
C7 C 0.7856(5) -0.0929(6) 1.0144(6)
C8 C 0.8177(6) -0.0165(6) 1.0982(6)
H7 H 0.8779 -0.0147 1.1112
C9 C 0.7774(5) -0.1128(6) 1.1610(5)
H8 H 0.8192 -0.1560 1.2026
C10 C 0.6864(7) 0.0159(8) 1.1767(7)
C11 C 0.7396(6) -0.2477(6) 1.1310(6)
H9 H 0.7593 -0.2661 1.0833
H10 H 0.7747 -0.2884 1.1789
C12 C 0.6458(6) -0.1471(6) 1.2780(6)
H11 H 0.6856 -0.1970 1.3162
H12 H 0.6130 -0.1126 1.3104
C13 C 0.5941(6) -0.2870(6) 1.1116(6)
C14 C 0.6061(5) -0.2771(6) 1.2431(5)
H13 H 0.6403 -0.3252 1.2896
C15 C 0.5113(5) -0.3091(6) 1.2460(5)
H14 H 0.5025 -0.3723 1.2934
C16 C 0.4909(6) -0.1685(7) 1.2673(5)
C17 C 0.4505(6) -0.3517(6) 1.1390(6)
H15 H 0.4337 -0.4081 1.1906
H16 H 0.4785 -0.3724 1.0944
C18 C 0.3555(5) -0.2415(6) 1.2789(5)
H17 H 0.3318 -0.2013 1.3088
H18 H 0.3445 -0.3066 1.3189
C19 C 0.7118(5) -0.0382(6) 0.6114(6)
C20 C 0.6654(5) 0.0046(6) 0.4758(5)
H19 H 0.6032 0.0294 0.4643
C21 C 0.6734(6) -0.1036(7) 0.5226(6)
H20 H 0.6160 -0.1296 0.5304
C22 C 0.7662(6) -0.0590(7) 0.3913(7)
C23 C 0.7146(5) -0.2127(6) 0.6784(6)
H21 H 0.6728 -0.2536 0.6775
H22 H 0.7009 -0.2065 0.7331
C24 C 0.7715(6) -0.2310(7) 0.4856(6)
H23 H 0.7886 -0.2366 0.4309
H24 H 0.7220 -0.2699 0.5162
C25 C 0.8716(6) -0.2396(6) 0.7122(6)
C26 C 0.8391(6) -0.3180(6) 0.6299(5)
H25 H 0.8041 -0.3730 0.6501
C27 C 0.9371(6) -0.3492(6) 0.6540(6)
H26 H 0.9475 -0.4181 0.6884
C28 C 0.9329(7) -0.2714(7) 0.5015(7)
C29 C 1.0220(5) -0.3141(6) 0.7523(5)
H27 H 1.0387 -0.3822 0.7791
H28 H 1.0016 -0.2941 0.7989
C30 C 1.0822(6) -0.3424(6) 0.5548(6)
H29 H 1.0959 -0.4081 0.5954
H30 H 1.0962 -0.3388 0.4962
C31 C 1.1300(6) -0.1936(6) 0.7153(6)
C32 C 1.1655(6) -0.3018(6) 0.6504(5)
H31 H 1.1861 -0.3689 0.6835
C33 C 1.2411(5) -0.2371(6) 0.6248(5)
H32 H 1.2972 -0.2748 0.6456
C34 C 1.1886(6) -0.2218(6) 0.5000(6)
C35 C 0.7315(6) 0.1163(6) 0.3213(6)
H33 H 0.7545 0.1076 0.2688
H34 H 0.6721 0.1497 0.3125
C36 C 0.6814(6) 0.1316(6) 0.5243(6)
H35 H 0.6768 0.1297 0.5822
H36 H 0.6247 0.1603 0.5006
N1 N 0.6930(5) 0.2136(5) 0.7955(4)
N2 N 0.7969(5) 0.1296(5) 0.8861(5)
N3 N 0.6296(5) 0.2923(5) 0.8911(5)
N4 N 0.7260(5) 0.2010(6) 0.9871(5)
N5 N 0.8192(5) -0.0157(5) 1.0112(5)
N6 N 0.7589(4) -0.1514(5) 1.1031(5)
N7 N 0.7561(5) 0.0528(6) 1.1130(5)
N8 N 0.6991(4) -0.0821(6) 1.2034(5)
N9 N 0.6476(4) -0.2655(5) 1.1586(5)
N10 N 0.5154(5) -0.3100(5) 1.1597(4)
N11 N 0.5837(4) -0.1896(5) 1.2544(4)
N12 N 0.4487(5) -0.2359(5) 1.2597(5)
N13 N 0.6951(4) 0.0379(5) 0.5318(5)
N14 N 0.7021(4) -0.1196(5) 0.6067(4)
N15 N 0.7232(5) 0.0229(5) 0.3936(4)
N16 N 0.7411(5) -0.1344(5) 0.4670(5)
N17 N 0.8051(4) -0.2574(5) 0.6746(5)
N18 N 0.9491(5) -0.2958(5) 0.7007(4)
N19 N 0.8476(5) -0.2691(5) 0.5384(5)
N20 N 0.9874(5) -0.3169(5) 0.5682(5)
N21 N 1.1004(4) -0.2660(5) 0.7029(5)
N22 N 1.2118(5) -0.1750(5) 0.6680(4)
N23 N 1.1384(5) -0.2846(5) 0.5657(5)
N24 N 1.2490(4) -0.1915(5) 0.5301(4)
O5 O 0.7543(4) 0.0668(4) 0.8004(4)
O6 O 0.7782(4) -0.1121(4) 0.9560(3)
O7 O 0.6179(4) -0.2851(5) 1.0388(4)
O8 O 0.5909(5) 0.2597(5) 1.0370(5)
O9 O 0.6285(4) 0.0564(5) 1.2070(4)
O10 O 0.4527(4) -0.1024(4) 1.2829(4)
O11 O 0.7326(4) -0.0324(4) 0.6758(4)
O12 O 0.8633(4) -0.1901(4) 0.7512(4)
O13 O 1.0899(4) -0.1573(4) 0.7600(4)
O14 O 0.8145(4) -0.0641(4) 0.3285(4)
O15 O 0.9604(4) -0.2430(5) 0.4220(4)
O16 O 1.1823(4) -0.1964(4) 0.4196(4)
O17 O 0.7077(9) 0.0882(9) 0.6906(9)
C1A C 0.2534(6) -0.1287(7) 1.1731(6)
C2A C 0.2937(5) -0.2756(6) 1.1646(5)
H1A H 0.2708 -0.3354 1.2081
C3A C 0.2258(6) -0.2164(6) 1.0979(6)
H2A H 0.1726 -0.2504 1.1089
C4A C 0.3565(6) -0.2499(7) 1.0230(7)
C5A C 0.1406(5) -0.0534(6) 1.0687(6)
H3A H 0.0928 -0.0787 1.0558
H4A H 0.1142 -0.0222 1.1061
C6A C 0.2355(6) -0.1534(6) 0.9319(6)
H5A H 0.2635 -0.1829 0.8936
H6A H 0.1723 -0.1634 0.9428
C7A C 0.2144(5) 0.0929(6) 0.9856(6)
C8A C 0.1823(6) 0.0165(6) 0.9018(6)
H7A H 0.1221 0.0147 0.8888
C9A C 0.2226(5) 0.1128(6) 0.8390(5)
H8A H 0.1808 0.1560 0.7974
C10A C 0.3136(7) -0.0159(8) 0.8233(7)
C11A C 0.2604(6) 0.2477(6) 0.8690(6)
H9A H 0.2407 0.2661 0.9167
H10A H 0.2253 0.2884 0.8211
C12A C 0.3542(6) 0.1471(6) 0.7220(6)
H11A H 0.3144 0.1970 0.6838
H12A H 0.3870 0.1126 0.6896
C13A C 0.4059(6) 0.2870(6) 0.8884(6)
C14A C 0.3939(5) 0.2771(6) 0.7569(5)
H13A H 0.3597 0.3252 0.7104
C15A C 0.4887(5) 0.3091(6) 0.7540(5)
H14A H 0.4975 0.3723 0.7066
C16A C 0.5091(6) 0.1685(7) 0.7327(5)
C17A C 0.5495(6) 0.3517(6) 0.8610(6)
H15A H 0.5663 0.4081 0.8094
H16A H 0.5215 0.3724 0.9056
C18A C 0.6445(5) 0.2415(6) 0.7211(5)
H17A H 0.6682 0.2013 0.6912
H18A H 0.6555 0.3066 0.6811
N1A N 0.3070(5) -0.2136(5) 1.2045(4)
N2A N 0.2031(5) -0.1296(5) 1.1139(5)
N3A N 0.3704(5) -0.2923(5) 1.1089(5)
N4A N 0.2740(5) -0.2010(6) 1.0129(5)
N5A N 0.1808(5) 0.0157(5) 0.9888(5)
N6A N 0.2411(4) 0.1514(5) 0.8969(5)
N7A N 0.2439(5) -0.0528(6) 0.8870(5)
N8A N 0.3009(4) 0.0821(6) 0.7966(5)
N9A N 0.3524(4) 0.2655(5) 0.8414(5)
N10A N 0.4846(5) 0.3100(5) 0.8403(4)
N11A N 0.4163(4) 0.1896(5) 0.7456(4)
N12A N 0.5513(5) 0.2359(5) 0.7403(5)
O5A O 0.2457(4) -0.0668(4) 1.1996(4)
O6A O 0.2218(4) 0.1121(4) 1.0440(3)
O7A O 0.3821(4) 0.2851(5) 0.9612(4)
O8A O 0.4091(5) -0.2597(5) 0.9630(5)
O9A O 0.3715(4) -0.0564(5) 0.7930(4)
O10A O 0.5473(4) 0.1024(4) 0.7171(4)
C19A C 1.2882(5) 0.0382(6) 0.3886(6)
C20A C 1.3346(5) -0.0046(6) 0.5242(5)
H19A H 1.3968 -0.0294 0.5357
C21A C 1.3266(6) 0.1036(7) 0.4774(6)
H20A H 1.3840 0.1296 0.4696
C22A C 1.2338(6) 0.0590(7) 0.6087(7)
C23A C 1.2854(5) 0.2127(6) 0.3216(6)
H21A H 1.3272 0.2536 0.3225
H22A H 1.2991 0.2065 0.2669
C24A C 1.2285(6) 0.2310(7) 0.5144(6)
H23A H 1.2114 0.2366 0.5691
H24A H 1.2780 0.2699 0.4838
C25A C 1.1284(6) 0.2396(6) 0.2878(6)
C26A C 1.1609(6) 0.3180(6) 0.3701(5)
H25A H 1.1959 0.3730 0.3499
C27A C 1.0629(6) 0.3492(6) 0.3460(6)
H26A H 1.0525 0.4181 0.3116
C28A C 1.0671(7) 0.2714(7) 0.4985(7)
C29A C 0.9780(5) 0.3141(6) 0.2477(5)
H27A H 0.9613 0.3822 0.2209
H28A H 0.9984 0.2941 0.2011
C30A C 0.9178(6) 0.3424(6) 0.4452(6)
H29A H 0.9041 0.4081 0.4046
H30A H 0.9038 0.3388 0.5038
C31A C 0.8700(6) 0.1936(6) 0.2847(6)
C32A C 0.8345(6) 0.3018(6) 0.3496(5)
H31A H 0.8139 0.3689 0.3165
C33A C 0.7589(5) 0.2371(6) 0.3752(5)
H32A H 0.7028 0.2748 0.3544
C34A C 0.8114(6) 0.2218(6) 0.5000(6)
C35A C 1.2685(6) -0.1163(6) 0.6787(6)
H33A H 1.2455 -0.1076 0.7312
H34A H 1.3279 -0.1497 0.6875
C36A C 1.3186(6) -0.1316(6) 0.4757(6)
H35A H 1.3232 -0.1297 0.4178
H36A H 1.3753 -0.1603 0.4994
N13A N 1.3049(4) -0.0379(5) 0.4682(5)
N14A N 1.2979(4) 0.1196(5) 0.3933(4)
N15A N 1.2768(5) -0.0229(5) 0.6064(4)
N16A N 1.2589(5) 0.1344(5) 0.5330(5)
N17A N 1.1949(4) 0.2574(5) 0.3254(5)
N18A N 1.0509(5) 0.2958(5) 0.2993(4)
N19A N 1.1524(5) 0.2691(5) 0.4616(5)
N20A N 1.0126(5) 0.3169(5) 0.4318(5)
N21A N 0.8996(4) 0.2660(5) 0.2971(5)
N22A N 0.7882(5) 0.1750(5) 0.3320(4)
N23A N 0.8616(5) 0.2846(5) 0.4343(5)
N24A N 0.7510(4) 0.1915(5) 0.4699(4)
O11A O 1.2674(4) 0.0324(4) 0.3242(4)
O12A O 1.1367(4) 0.1901(4) 0.2488(4)
O13A O 0.9101(4) 0.1573(4) 0.2400(4)
O14A O 1.1855(4) 0.0641(4) 0.6715(4)
O15A O 1.0396(4) 0.2430(5) 0.5780(4)
O16A O 0.8177(4) 0.1964(4) 0.5804(4)
O1A O 0.0650(4) 0.1336(4) 1.1421(4)
O2A O 0.3686(4) 0.0644(5) 1.1642(4)
O3A O 0.2592(4) 0.2386(4) 1.1072(4)
O4A O 0.1052(4) -0.0174(4) 1.3020(4)
Ho1A Ho 0.20856(3) 0.08585(3) 1.19200(3)
O17A O 0.2923(9) -0.0882(9) 1.3094(9)
Ho1A_2 Ho 1.20856(3) 0.08585(3) 0.19200(3)
O11A_2 O 0.2674(4) 0.0324(4) 1.3242(4)
O12A_2 O 0.1367(4) 0.1901(4) 1.2488(4)
Cl2 Cl 0.3592(2) 0.4527(2) 0.3321(3)
Cl3 Cl 0.6075(2) 0.4583(2) 0.3113(3)
Cl4 Cl 0.5123(2) 0.2424(2) 0.3444(3)
Cl5 Cl 0.4815(5) 0.3153(5) 0.5239(3)
Zn1 Zn 0.49025(9) 0.36863(9) 0.37899(9)
Cl1 Cl 1.0107(2) 0.2032(2) 0.9496(2)
loop_
_geom_bond_atom_site_label_1
_geom_bond_atom_site_label_2
_geom_bond_site_symmetry_1
_geom_bond_site_symmetry_2
O1 Ho1 1_555 1_555
O2 Ho1 1_555 1_555
O3 Ho1 1_555 1_555
O4 Ho1 1_555 1_555
Ho1 O5 1_555 1_555
C1 N1 1_555 1_555
C2 H1 1_555 1_555
C3 C2 1_555 1_555
H2 C3 1_555 1_555
C4 N3 1_555 1_555
C5 H3 1_555 1_555
H4 C5 1_555 1_555
C6 H5 1_555 1_555
H6 C6 1_555 1_555
C7 N5 1_555 1_555
C8 H7 1_555 1_555
C9 C8 1_555 1_555
H8 C9 1_555 1_555
C10 N7 1_555 1_555
C11 H9 1_555 1_555
H10 C11 1_555 1_555
C12 H11 1_555 1_555
H12 C12 1_555 1_555
C13 N9 1_555 1_555
C14 H13 1_555 1_555
C15 C14 1_555 1_555
H14 C15 1_555 1_555
C16 N11 1_555 1_555
C17 H15 1_555 1_555
H16 C17 1_555 1_555
C18 H17 1_555 1_555
H18 C18 1_555 1_555
C19 N13 1_555 1_555
C20 H19 1_555 1_555
C21 C20 1_555 1_555
H20 C21 1_555 1_555
C22 N15 1_555 1_555
C23 H21 1_555 1_555
H22 C23 1_555 1_555
C24 H23 1_555 1_555
H24 C24 1_555 1_555
C25 N17 1_555 1_555
C26 H25 1_555 1_555
C27 C26 1_555 1_555
H26 C27 1_555 1_555
C28 N19 1_555 1_555
C29 H27 1_555 1_555
H28 C29 1_555 1_555
C30 H29 1_555 1_555
H30 C30 1_555 1_555
C31 N21 1_555 1_555
C32 H31 1_555 1_555
C33 C32 1_555 1_555
H32 C33 1_555 1_555
C34 N23 1_555 1_555
C35 H33 1_555 1_555
H34 C35 1_555 1_555
C36 H35 1_555 1_555
H36 C36 1_555 1_555
N1 C2 1_555 1_555
N2 C1 1_555 1_555
N3 C2 1_555 1_555
N4 C3 1_555 1_555
N5 C5 1_555 1_555
N6 C7 1_555 1_555
N7 C6 1_555 1_555
N8 C9 1_555 1_555
N9 C11 1_555 1_555
N10 C13 1_555 1_555
N11 C12 1_555 1_555
N12 C15 1_555 1_555
N13 C20 1_555 1_555
N14 C19 1_555 1_555
N15 C20 1_555 1_555
N16 C21 1_555 1_555
N17 C23 1_555 1_555
N18 C25 1_555 1_555
N19 C24 1_555 1_555
N20 C27 1_555 1_555
N21 C29 1_555 1_555
N22 C31 1_555 1_555
N23 C30 1_555 1_555
N24 C33 1_555 1_555
O5 C1 1_555 1_555
O6 Ho1 1_555 1_555
O7 C13 1_555 1_555
O8 C4 1_555 1_555
O9 C10 1_555 1_555
O10 C16 1_555 1_555
O11 Ho1 1_555 1_555
O12 Ho1 1_555 1_555
O13 C31 1_555 1_555
O14 C22 1_555 1_555
O15 C28 1_555 1_555
O16 C34 1_555 1_555
O17 Ho1 1_555 1_555
Cl2 Zn1 1_555 1_555
Cl3 Zn1 1_555 1_555
Cl4 Zn1 1_555 1_555
Cl5 Zn1 1_555 1_555
C1A N1A 1_555 1_555
C2A H1A 1_555 1_555
C3A C2A 1_555 1_555
H2A C3A 1_555 1_555
C4A N3A 1_555 1_555
C5A H3A 1_555 1_555
H4A C5A 1_555 1_555
C6A H5A 1_555 1_555
H6A C6A 1_555 1_555
C7A N5A 1_555 1_555
C8A H7A 1_555 1_555
C9A C8A 1_555 1_555
H8A C9A 1_555 1_555
C10A N7A 1_555 1_555
C11A H9A 1_555 1_555
H10A C11A 1_555 1_555
C12A H11A 1_555 1_555
H12A C12A 1_555 1_555
C13A N9A 1_555 1_555
C14A H13A 1_555 1_555
C15A C14A 1_555 1_555
H14A C15A 1_555 1_555
C16A N11A 1_555 1_555
C17A N3 1_555 1_555
H15A C17A 1_555 1_555
H16A C17A 1_555 1_555
C18A N1 1_555 1_555
H17A C18A 1_555 1_555
H18A C18A 1_555 1_555
N1A C18 1_555 1_555
N2A C1A 1_555 1_555
N3A C17 1_555 1_555
N4A C3A 1_555 1_555
N5A C5A 1_555 1_555
N6A C7A 1_555 1_555
N7A C6A 1_555 1_555
N8A C9A 1_555 1_555
N9A C11A 1_555 1_555
N10A C13A 1_555 1_555
N11A C12A 1_555 1_555
N12A C15A 1_555 1_555
O5A C1A 1_555 1_555
O6A C7A 1_555 1_555
O7A C13A 1_555 1_555
O8A C4A 1_555 1_555
O9A C10A 1_555 1_555
O10A C16A 1_555 1_555
C19A N13A 1_555 1_555
C20A H19A 1_555 1_555
C21A C20A 1_555 1_555
H20A C21A 1_555 1_555
C22A N15A 1_555 1_555
C23A H21A 1_555 1_555
H22A C23A 1_555 1_555
C24A H23A 1_555 1_555
H24A C24A 1_555 1_555
C25A N17A 1_555 1_555
C26A H25A 1_555 1_555
C27A C26A 1_555 1_555
H26A C27A 1_555 1_555
C28A N19A 1_555 1_555
C29A H27A 1_555 1_555
H28A C29A 1_555 1_555
C30A H29A 1_555 1_555
H30A C30A 1_555 1_555
C31A N21A 1_555 1_555
C32A H31A 1_555 1_555
C33A C32A 1_555 1_555
H32A C33A 1_555 1_555
C34A N23A 1_555 1_555
C35A N22 1_555 1_555
H33A C35A 1_555 1_555
H34A C35A 1_555 1_555
C36A N24 1_555 1_555
H35A C36A 1_555 1_555
H36A C36A 1_555 1_555
N13A C20A 1_555 1_555
N14A C19A 1_555 1_555
N15A C20A 1_555 1_555
N16A C21A 1_555 1_555
N17A C23A 1_555 1_555
N18A C25A 1_555 1_555
N19A C24A 1_555 1_555
N20A C27A 1_555 1_555
N21A C29A 1_555 1_555
N22A C35 1_555 1_555
N23A C30A 1_555 1_555
N24A C36 1_555 1_555
O11A C19A 1_555 1_555
O12A C25A 1_555 1_555
O13A C31A 1_555 1_555
O14A C22A 1_555 1_555
O15A C28A 1_555 1_555
O16A C34A 1_555 1_555
O1A Ho1A 1_555 1_555
O2A Ho1A 1_555 1_555
O3A Ho1A 1_555 1_555
O4A Ho1A 1_555 1_555
Ho1A O5A 1_555 1_555
O17A Ho1A 1_555 1_555
Ho1A_2 O11A 1_555 1_555
O11A_2 Ho1A 1_555 1_555
O12A_2 Ho1A 1_555 1_555
C3 N2 1_555 1_555
C4 N4 1_555 1_555
C5 N2 1_555 1_555
C6 N4 1_555 1_555
C7 O6 1_555 1_555
C8 N5 1_555 1_555
C8 N7 1_555 1_555
C9 N6 1_555 1_555
C10 N8 1_555 1_555
C11 N6 1_555 1_555
C12 N8 1_555 1_555
C14 N9 1_555 1_555
C14 N11 1_555 1_555
C15 N10 1_555 1_555
C16 N12 1_555 1_555
C17 N10 1_555 1_555
C18 N12 1_555 1_555
C19 O11 1_555 1_555
C21 N14 1_555 1_555
C22 N16 1_555 1_555
C23 N14 1_555 1_555
C24 N16 1_555 1_555
C25 O12 1_555 1_555
C26 N17 1_555 1_555
C26 N19 1_555 1_555
C27 N18 1_555 1_555
C28 N20 1_555 1_555
C29 N18 1_555 1_555
C30 N20 1_555 1_555
C32 N21 1_555 1_555
C32 N23 1_555 1_555
C33 N22 1_555 1_555
C34 N24 1_555 1_555
C35 N15 1_555 1_555
C36 N13 1_555 1_555
C2A N1A 1_555 1_555
C2A N3A 1_555 1_555
C3A N2A 1_555 1_555
C4A N4A 1_555 1_555
C5A N2A 1_555 1_555
C6A N4A 1_555 1_555
C8A N5A 1_555 1_555
C8A N7A 1_555 1_555
C9A N6A 1_555 1_555
C10A N8A 1_555 1_555
C11A N6A 1_555 1_555
C12A N8A 1_555 1_555
C14A N9A 1_555 1_555
C14A N11A 1_555 1_555
C15A N10A 1_555 1_555
C16A N12A 1_555 1_555
C17A N10A 1_555 1_555
C18A N12A 1_555 1_555
O6A Ho1A 1_555 1_555
C21A N14A 1_555 1_555
C22A N16A 1_555 1_555
C23A N14A 1_555 1_555
C24A N16A 1_555 1_555
C26A N17A 1_555 1_555
C26A N19A 1_555 1_555
C27A N18A 1_555 1_555
C28A N20A 1_555 1_555
C29A N18A 1_555 1_555
C30A N20A 1_555 1_555
C31A N22A 1_555 1_555
C32A N21A 1_555 1_555
C32A N23A 1_555 1_555
C33A N22A 1_555 1_555
C33A N24A 1_555 1_555
C34A N24A 1_555 1_555
C35A N15A 1_555 1_555
C36A N13A 1_555 1_555
O12A Ho1A_2 1_555 1_555

#END
