
#######################################################################
#
#                 Cambridge Crystallographic Data Centre
#                                CCDC 
#
#######################################################################
#
# If this CIF has been generated from an entry in the Cambridge 
# Structural Database, then it will include bibliographic, chemical, 
# crystal, experimental, refinement or atomic coordinate data resulting 
# from the CCDC's data processing and validation procedures.
#
#######################################################################

data_OGAKEO
_symmetry_cell_setting           monoclinic
_symmetry_space_group_name_H-M   'P 21/c'
_symmetry_Int_Tables_number      14
_space_group_name_Hall           '-P 2ybc'
loop_
_symmetry_equiv_pos_site_id
_symmetry_equiv_pos_as_xyz
1 x,y,z
2 -x,1/2+y,1/2-z
3 -x,-y,-z
4 x,1/2-y,1/2+z
_cell_length_a                   10.3737(18)
_cell_length_b                   27.124(5)
_cell_length_c                   29.044(5)
_cell_angle_alpha                90
_cell_angle_beta                 95.595(6)
_cell_angle_gamma                90
_cell_volume                     8133.36
loop_
_atom_site_label
_atom_site_type_symbol
_atom_site_fract_x
_atom_site_fract_y
_atom_site_fract_z
Cl2 Cl 1.0150(2) 0.24640(14) -0.37879(8)
Cl3 Cl 1.2544(2) -0.10740(8) -0.11769(6)
Cl4 Cl 1.0385(4) -0.02341(13) -0.18998(11)
Cl5 Cl 1.0162(4) -0.03452(13) -0.06297(13)
Cl6 Cl 1.2912(3) 0.02695(12) -0.10981(16)
Zn1 Zn 1.14792(10) -0.03510(4) -0.11986(4)
Cl7 Cl 0.2316(3) 0.61319(10) -0.12599(8)
Cl8 Cl 0.4587(4) 0.54439(14) -0.19125(13)
Cl9 Cl 0.4662(5) 0.5305(2) -0.06429(14)
Cl10 Cl 0.2084(5) 0.4784(2) -0.1371(3)
Zn2 Zn 0.34192(13) 0.54312(5) -0.13073(5)
O1 O 1.2147(4) 0.31678(18) -0.04361(17)
O2 O 1.2539(4) 0.15624(17) 0.01203(16)
O3 O 1.2798(4) 0.1884(2) -0.09648(15)
O4 O 1.0656(5) 0.2522(2) -0.10360(17)
O5 O 1.2446(5) 0.2556(2) 0.04762(16)
O6 O 0.2848(4) 0.19404(18) -0.21462(16)
O7 O 0.2438(4) 0.35335(19) -0.27283(15)
O8 O 0.4346(5) 0.2593(2) -0.15536(17)
O9 O 0.2553(5) 0.2538(2) -0.30670(16)
O10 O 0.2212(4) 0.3230(2) -0.16225(15)
Eu1 Eu 1.19483(3) 0.228883(12) -0.032742(11)
Eu2 Eu 0.30395(3) 0.281591(12) -0.226204(11)
C1 C 0.9015(5) 0.2548(2) 0.0120(2)
C2 C 0.7097(6) 0.2790(2) 0.0412(2)
H1 H 0.7072 0.2930 0.0726
C3 C 0.7221(5) 0.2222(2) 0.0421(2)
H2 H 0.7209 0.2091 0.0738
C4 C 0.5320(5) 0.2439(2) -0.0023(2)
C5 C 0.9104(6) 0.1659(2) 0.0279(2)
H3 H 1.0040 0.1719 0.0326
H4 H 0.8852 0.1483 0.0550
C6 C 0.5778(6) 0.1540(2) 0.0047(2)
H5 H 0.4847 0.1507 -0.0043
H6 H 0.5978 0.1359 0.0338
C7 C 0.9518(5) 0.1363(2) -0.0494(2)
C8 C 0.7698(5) 0.1042(2) -0.0196(2)
H7 H 0.7636 0.0806 0.0061
C9 C 0.7881(5) 0.0779(2) -0.0657(2)
H8 H 0.8029 0.0421 -0.0615
C10 C 0.5904(6) 0.1188(2) -0.0730(2)
C11 C 0.9687(6) 0.0866(2) -0.1196(2)
H9 H 1.0597 0.0965 -0.1139
H10 H 0.9660 0.0505 -0.1208
C12 C 0.6344(6) 0.0663(2) -0.1388(2)
H11 H 0.5396 0.0655 -0.1440
H12 H 0.6651 0.0321 -0.1382
C13 C 0.9830(6) 0.1393(2) -0.1873(2)
C14 C 0.8099(6) 0.0838(2) -0.1922(2)
H13 H 0.8256 0.0484 -0.1978
C15 C 0.8055(5) 0.1136(2) -0.2374(2)
H14 H 0.8087 0.0918 -0.2646
C16 C 0.6100(6) 0.1236(2) -0.2049(2)
C17 C 0.9683(6) 0.1744(2) -0.2658(2)
H15 H 0.9535 0.1567 -0.2952
H16 H 1.0621 0.1785 -0.2588
C18 C 0.6284(6) 0.1668(2) -0.2782(2)
H17 H 0.6500 0.1503 -0.3064
H18 H 0.5338 0.1668 -0.2784
C19 C 0.9683(5) 0.2655(2) -0.2565(2)
C20 C 0.7891(5) 0.2315(2) -0.2998(2)
H19 H 0.7907 0.2175 -0.3313
C21 C 0.7777(5) 0.2881(2) -0.3008(2)
H20 H 0.7800 0.3013 -0.3325
C22 C 0.5976(5) 0.2553(2) -0.2707(2)
C23 C 0.9214(6) 0.3556(2) -0.2624(2)
H21 H 1.0141 0.3580 -0.2521
H22 H 0.9060 0.3736 -0.2916
C24 C 0.5881(5) 0.3445(2) -0.2872(2)
H23 H 0.6124 0.3623 -0.3144
H24 H 0.4947 0.3382 -0.2917
C25 C 0.9066(6) 0.3913(2) -0.1858(2)
C26 C 0.7312(6) 0.4063(2) -0.2392(2)
H25 H 0.7373 0.4300 -0.2648
C27 C 0.7101(6) 0.4322(2) -0.1935(2)
H26 H 0.6952 0.4680 -0.1981
C28 C 0.5465(6) 0.3747(2) -0.2101(2)
C29 C 0.8651(6) 0.4438(2) -0.1196(2)
H27 H 0.9598 0.4447 -0.1142
H28 H 0.8340 0.4779 -0.1194
C30 C 0.5311(6) 0.4237(2) -0.1392(2)
H29 H 0.5359 0.4597 -0.1374
H30 H 0.4395 0.4147 -0.1449
C31 C 0.8903(6) 0.3866(2) -0.0540(2)
C32 C 0.6872(5) 0.4266(2) -0.0670(2)
H31 H 0.6708 0.4619 -0.0615
C33 C 0.6913(5) 0.3958(2) -0.0216(2)
H32 H 0.6859 0.4172 0.0057
C34 C 0.5195(5) 0.3699(2) -0.0722(2)
C35 C 0.8717(6) 0.3432(2) 0.0190(2)
H33 H 0.9660 0.3425 0.0184
H34 H 0.8530 0.3601 0.0474
C36 C 0.5305(6) 0.3352(2) 0.0070(2)
H35 H 0.5450 0.3531 0.0364
H36 H 0.4369 0.3310 -0.0001
N1 N 0.8248(4) 0.29399(19) 0.01994(17)
N2 N 0.8442(4) 0.21268(18) 0.02427(18)
N3 N 0.5907(4) 0.28673(18) 0.01250(17)
N4 N 0.6092(4) 0.20580(19) 0.01220(17)
N5 N 0.8830(4) 0.13543(18) -0.01216(17)
N6 N 0.9012(4) 0.10291(19) -0.08094(17)
N7 N 0.6486(4) 0.13201(19) -0.03069(18)
N8 N 0.6706(4) 0.08810(18) -0.09422(18)
N9 N 0.9174(5) 0.10557(18) -0.16376(17)
N10 N 0.9210(5) 0.14521(18) -0.23041(17)
N11 N 0.6841(5) 0.09138(19) -0.17720(18)
N12 N 0.6838(4) 0.13894(18) -0.23837(18)
N13 N 0.9096(5) 0.22287(17) -0.27143(17)
N14 N 0.8886(4) 0.30350(18) -0.27083(17)
N15 N 0.6729(5) 0.21646(18) -0.27846(18)
N16 N 0.6570(4) 0.29768(18) -0.28335(17)
N17 N 0.8502(5) 0.37882(19) -0.22871(18)
N18 N 0.8289(5) 0.42254(19) -0.16557(19)
N19 N 0.6165(4) 0.37470(18) -0.24685(17)
N20 N 0.5972(4) 0.40764(19) -0.17842(17)
N21 N 0.8163(5) 0.41815(19) -0.0825(2)
N22 N 0.8158(5) 0.37116(19) -0.02015(18)
N23 N 0.5813(5) 0.40365(18) -0.09553(17)
N24 N 0.5803(5) 0.36486(18) -0.02949(17)
O11 O 1.0086(4) 0.25809(17) -0.00252(15)
O12 O 1.0480(4) 0.16230(16) -0.05394(14)
O13 O 1.0836(4) 0.15993(17) -0.17205(14)
O14 O 1.0743(4) 0.26896(16) -0.23418(15)
O15 O 1.0140(5) 0.3784(2) -0.16878(19)
O16 O 0.9999(4) 0.37571(18) -0.05869(17)
O17 O 0.4256(4) 0.24105(17) -0.02430(15)
O18 O 0.4836(4) 0.1316(2) -0.08941(18)
O19 O 0.4985(4) 0.13397(18) -0.20096(17)
O20 O 0.4915(4) 0.25290(17) -0.25649(15)
O21 O 0.4513(4) 0.34930(16) -0.20584(15)
O22 O 0.4166(4) 0.34925(18) -0.08727(15)
Eu1_2 Eu 0.19483(3) 0.228883(12) -0.032742(11)
Eu2_2 Eu 1.30395(3) 0.281591(12) -0.226204(11)
O14_2 O 0.0743(4) 0.26896(16) -0.23418(15)
O17_2 O 1.4256(4) 0.24105(17) -0.02430(15)
Cl1 Cl 0.4864(2) 0.25268(12) 0.12068(7)
loop_
_geom_bond_atom_site_label_1
_geom_bond_atom_site_label_2
_geom_bond_site_symmetry_1
_geom_bond_site_symmetry_2
Cl3 Zn1 1_555 1_555
Cl4 Zn1 1_555 1_555
Cl5 Zn1 1_555 1_555
Cl6 Zn1 1_555 1_555
Cl7 Zn2 1_555 1_555
Cl8 Zn2 1_555 1_555
Cl9 Zn2 1_555 1_555
Cl10 Zn2 1_555 1_555
O1 Eu1 1_555 1_555
O2 Eu1 1_555 1_555
O3 Eu1 1_555 1_555
O4 Eu1 1_555 1_555
O5 Eu1 1_555 1_555
O6 Eu2 1_555 1_555
O7 Eu2 1_555 1_555
O8 Eu2 1_555 1_555
O9 Eu2 1_555 1_555
O10 Eu2 1_555 1_555
Eu1 O11 1_555 1_555
Eu2 O20 1_555 1_555
C1 N1 1_555 1_555
C2 H1 1_555 1_555
C3 C2 1_555 1_555
H2 C3 1_555 1_555
C4 N3 1_555 1_555
C5 H3 1_555 1_555
H4 C5 1_555 1_555
C6 H5 1_555 1_555
H6 C6 1_555 1_555
C7 N5 1_555 1_555
C8 H7 1_555 1_555
C9 C8 1_555 1_555
H8 C9 1_555 1_555
C10 N7 1_555 1_555
C11 H9 1_555 1_555
H10 C11 1_555 1_555
C12 H11 1_555 1_555
H12 C12 1_555 1_555
C13 N9 1_555 1_555
C14 H13 1_555 1_555
C15 C14 1_555 1_555
H14 C15 1_555 1_555
C16 N11 1_555 1_555
C17 H15 1_555 1_555
H16 C17 1_555 1_555
C18 H17 1_555 1_555
H18 C18 1_555 1_555
C19 N13 1_555 1_555
C20 H19 1_555 1_555
C21 C20 1_555 1_555
H20 C21 1_555 1_555
C22 N15 1_555 1_555
C23 H21 1_555 1_555
H22 C23 1_555 1_555
C24 H23 1_555 1_555
H24 C24 1_555 1_555
C25 N17 1_555 1_555
C26 H25 1_555 1_555
C27 C26 1_555 1_555
H26 C27 1_555 1_555
C28 N19 1_555 1_555
C29 H27 1_555 1_555
H28 C29 1_555 1_555
C30 H29 1_555 1_555
H30 C30 1_555 1_555
C31 N21 1_555 1_555
C32 H31 1_555 1_555
C33 C32 1_555 1_555
H32 C33 1_555 1_555
C34 N23 1_555 1_555
C35 H33 1_555 1_555
H34 C35 1_555 1_555
C36 H35 1_555 1_555
H36 C36 1_555 1_555
N1 C2 1_555 1_555
N2 C1 1_555 1_555
N3 C2 1_555 1_555
N4 C3 1_555 1_555
N5 C5 1_555 1_555
N6 C7 1_555 1_555
N7 C6 1_555 1_555
N8 C9 1_555 1_555
N9 C11 1_555 1_555
N10 C13 1_555 1_555
N11 C12 1_555 1_555
N12 C15 1_555 1_555
N13 C17 1_555 1_555
N14 C19 1_555 1_555
N15 C18 1_555 1_555
N16 C21 1_555 1_555
N17 C23 1_555 1_555
N18 C25 1_555 1_555
N19 C24 1_555 1_555
N20 C27 1_555 1_555
N21 C29 1_555 1_555
N22 C31 1_555 1_555
N23 C30 1_555 1_555
N24 C33 1_555 1_555
O11 C1 1_555 1_555
O12 Eu1 1_555 1_555
O13 C13 1_555 1_555
O14 C19 1_555 1_555
O15 C25 1_555 1_555
O16 C31 1_555 1_555
O17 C4 1_555 1_555
O18 C10 1_555 1_555
O19 C16 1_555 1_555
O20 C22 1_555 1_555
O21 Eu2 1_555 1_555
O22 C34 1_555 1_555
Eu1_2 O17 1_555 1_555
Eu2_2 O14 1_555 1_555
O14_2 Eu2 1_555 1_555
O17_2 Eu1 1_555 1_555
C3 N2 1_555 1_555
C4 N4 1_555 1_555
C5 N2 1_555 1_555
C6 N4 1_555 1_555
C7 O12 1_555 1_555
C8 N5 1_555 1_555
C8 N7 1_555 1_555
C9 N6 1_555 1_555
C10 N8 1_555 1_555
C11 N6 1_555 1_555
C12 N8 1_555 1_555
C14 N9 1_555 1_555
C14 N11 1_555 1_555
C15 N10 1_555 1_555
C16 N12 1_555 1_555
C17 N10 1_555 1_555
C18 N12 1_555 1_555
C20 N13 1_555 1_555
C20 N15 1_555 1_555
C21 N14 1_555 1_555
C22 N16 1_555 1_555
C23 N14 1_555 1_555
C24 N16 1_555 1_555
C26 N17 1_555 1_555
C26 N19 1_555 1_555
C27 N18 1_555 1_555
C28 N20 1_555 1_555
C28 O21 1_555 1_555
C29 N18 1_555 1_555
C30 N20 1_555 1_555
C32 N21 1_555 1_555
C32 N23 1_555 1_555
C33 N22 1_555 1_555
C34 N24 1_555 1_555
C35 N1 1_555 1_555
C35 N22 1_555 1_555
C36 N3 1_555 1_555
C36 N24 1_555 1_555

#END
