
#######################################################################
#
#                 Cambridge Crystallographic Data Centre
#                                CCDC 
#
#######################################################################
#
# If this CIF has been generated from an entry in the Cambridge 
# Structural Database, then it will include bibliographic, chemical, 
# crystal, experimental, refinement or atomic coordinate data resulting 
# from the CCDC's data processing and validation procedures.
#
#######################################################################

data_OGAKOY
_symmetry_cell_setting           triclinic
_symmetry_space_group_name_H-M   'P -1'
_symmetry_Int_Tables_number      2
_space_group_name_Hall           '-P 1'
loop_
_symmetry_equiv_pos_site_id
_symmetry_equiv_pos_as_xyz
1 x,y,z
2 -x,-y,-z
_cell_length_a                   15.064(10)
_cell_length_b                   15.606(10)
_cell_length_c                   16.975(11)
_cell_angle_alpha                64.896(18)
_cell_angle_beta                 80.645(19)
_cell_angle_gamma                81.170(19)
_cell_volume                     3549.62
loop_
_atom_site_label
_atom_site_type_symbol
_atom_site_fract_x
_atom_site_fract_y
_atom_site_fract_z
O1 O 0.4320(4) 0.8682(5) 0.8558(4)
O2 O 0.2404(5) 0.7685(5) 0.8853(4)
O3 O 0.3938(4) 1.0157(5) 0.6981(5)
O4 O 0.1344(5) 0.9376(5) 0.8364(5)
Lu1 Lu 0.29156(2) 0.91702(2) 0.80578(2)
C1 C 0.2507(6) 1.1311(6) 0.8245(6)
C2 C 0.2100(6) 1.2745(7) 0.8378(6)
H1 H 0.2329 1.3349 0.7943
C3 C 0.2776(7) 1.2141(7) 0.9034(6)
H2 H 0.3318 1.2475 0.8938
C4 C 0.1462(7) 1.2485(7) 0.9812(7)
C5 C 0.3623(5) 1.0531(6) 0.9300(7)
H3 H 0.4114 1.0773 0.9436
H4 H 0.3886 1.0214 0.8915
C6 C 0.2657(7) 1.1529(8) 1.0698(7)
H5 H 0.2367 1.1834 1.1087
H6 H 0.3299 1.1634 1.0583
C7 C 0.2874(5) 0.9089(6) 1.0118(6)
C8 C 0.3203(6) 0.9821(6) 1.0961(6)
H7 H 0.3822 0.9829 1.1083
C9 C 0.2799(6) 0.8888(6) 1.1577(6)
H8 H 0.3227 0.8447 1.1988
C10 C 0.1910(6) 1.0145(7) 1.1762(7)
C11 C 0.2431(6) 0.7555(7) 1.1238(6)
H9 H 0.2781 0.7149 1.1727
H10 H 0.2648 0.7367 1.0753
C12 C 0.1489(7) 0.8533(8) 1.2749(7)
H11 H 0.1165 0.8867 1.3101
H12 H 0.1903 0.8024 1.3114
C13 C 0.0947(6) 0.7151(6) 1.1061(6)
C14 C 0.1063(6) 0.7242(7) 1.2380(6)
H13 H 0.1409 0.6749 1.2844
C15 C 0.0137(6) 0.6932(7) 1.2369(6)
H14 H 0.0034 0.6300 1.2845
C16 C -0.0087(6) 0.8309(6) 1.2638(6)
C17 C -0.0510(6) 0.6504(6) 1.1327(6)
H15 H -0.0225 0.6308 1.0860
H16 H -0.0682 0.5930 1.1838
C18 C -0.1451(6) 0.7575(7) 1.2759(6)
H17 H -0.1525 0.6903 1.3130
H18 H -0.1701 0.7941 1.3106
C19 C 0.2099(6) 0.9654(7) 0.6123(6)
C20 C 0.1634(6) 1.0076(7) 0.4742(6)
H19 H 0.1005 1.0334 0.4619
C21 C 0.1726(6) 0.9003(6) 0.5213(7)
H20 H 0.1140 0.8749 0.5289
C22 C 0.2623(6) 0.9421(8) 0.3929(7)
C23 C 0.2144(6) 0.7915(6) 0.6757(7)
H21 H 0.1990 0.7963 0.7322
H22 H 0.1728 0.7506 0.6731
C24 C 0.2667(7) 0.7724(7) 0.4830(7)
H23 H 0.2846 0.7680 0.4266
H24 H 0.2161 0.7336 0.5126
C25 C 0.3708(6) 0.7617(6) 0.7074(5)
C26 C 0.3348(6) 0.6849(6) 0.6281(5)
H25 H 0.2984 0.6301 0.6491
C27 C 0.4343(6) 0.6531(6) 0.6497(7)
H26 H 0.4447 0.5837 0.6839
C28 C 0.4299(7) 0.7286(8) 0.4996(8)
C29 C 0.5193(6) 0.6864(7) 0.7489(6)
H27 H 0.5362 0.6177 0.7731
H28 H 0.4998 0.7044 0.7982
C30 C 0.5778(6) 0.6575(7) 0.5506(7)
H29 H 0.5915 0.6600 0.4913
H30 H 0.5916 0.5917 0.5918
C31 C 0.6281(6) 0.8078(7) 0.7106(6)
C32 C 0.6644(6) 0.6988(6) 0.6458(6)
H31 H 0.6852 0.6310 0.6779
C33 C 0.7430(6) 0.7635(6) 0.6185(5)
H32 H 0.8004 0.7259 0.6386
C34 C 0.6857(6) 0.7777(7) 0.4951(6)
C35 C 0.2308(7) 1.1169(7) 0.3238(6)
H33 H 0.2532 1.1078 0.2701
H34 H 0.1705 1.1514 0.3163
C36 C 0.1798(6) 1.1376(7) 0.5278(6)
H35 H 0.1224 1.1665 0.5034
H36 H 0.1750 1.1377 0.5860
N1 N 0.1950(5) 1.2123(5) 0.7977(5)
N2 N 0.2991(5) 1.1322(5) 0.8844(5)
N3 N 0.1301(6) 1.2894(5) 0.8952(6)
N4 N 0.2266(6) 1.1988(6) 0.9886(5)
N5 N 0.3199(6) 0.9837(6) 1.0111(6)
N6 N 0.2604(5) 0.8502(5) 1.0975(5)
N7 N 0.2579(6) 1.0527(6) 1.1146(6)
N8 N 0.1992(5) 0.9168(6) 1.2030(6)
N9 N 0.1493(5) 0.7381(6) 1.1504(5)
N10 N 0.0155(5) 0.6925(6) 1.1556(6)
N11 N 0.0842(5) 0.8113(6) 1.2507(5)
N12 N -0.0497(5) 0.7694(5) 1.2509(5)
N13 N 0.1957(5) 1.0398(5) 0.5357(5)
N14 N 0.1989(5) 0.8848(6) 0.6073(5)
N15 N 0.2234(5) 1.0249(6) 0.3959(5)
N16 N 0.2366(6) 0.8686(6) 0.4673(6)
N17 N 0.3038(5) 0.7462(5) 0.6735(5)
N18 N 0.4453(5) 0.7072(5) 0.6991(5)
N19 N 0.3444(6) 0.7316(6) 0.5372(6)
N20 N 0.4849(5) 0.6841(6) 0.5648(5)
N21 N 0.5969(5) 0.7338(5) 0.7001(5)
N22 N 0.7099(5) 0.8262(6) 0.6644(5)
N23 N 0.6350(6) 0.7171(6) 0.5610(5)
N24 N 0.7482(5) 0.8067(6) 0.5277(5)
O5 O 0.2543(5) 1.0703(4) 0.7978(4)
O6 O 0.2782(4) 0.8932(5) 0.9500(4)
O7 O 0.1178(5) 0.7142(5) 1.0328(5)
O8 O 0.0960(6) 1.2581(7) 1.0402(6)
O9 O 0.1307(5) 1.0567(5) 1.2079(5)
O10 O -0.0448(4) 0.8982(5) 1.2794(5)
O11 O 0.2305(4) 0.9718(5) 0.6761(4)
O12 O 0.3640(4) 0.8163(5) 0.7447(4)
O13 O 0.5891(5) 0.8441(5) 0.7591(5)
O14 O 0.3106(5) 0.9367(6) 0.3284(5)
O15 O 0.4548(6) 0.7569(6) 0.4209(5)
O16 O 0.6824(5) 0.8021(5) 0.4177(5)
C1A C -0.2507(6) 0.8689(6) 1.1755(6)
C2A C -0.2100(6) 0.7255(7) 1.1622(6)
H1A H -0.2329 0.6651 1.2057
C3A C -0.2776(7) 0.7859(7) 1.0966(6)
H2A H -0.3318 0.7525 1.1062
C4A C -0.1462(7) 0.7515(7) 1.0188(7)
C5A C -0.3623(5) 0.9469(6) 1.0700(7)
H3A H -0.4114 0.9227 1.0564
H4A H -0.3886 0.9786 1.1085
C6A C -0.2657(7) 0.8471(8) 0.9302(7)
H5A H -0.2367 0.8166 0.8913
H6A H -0.3299 0.8366 0.9417
C7A C -0.2874(5) 1.0911(6) 0.9882(6)
C8A C -0.3203(6) 1.0179(6) 0.9039(6)
H7A H -0.3822 1.0171 0.8917
C9A C -0.2799(6) 1.1112(6) 0.8423(6)
H8A H -0.3227 1.1553 0.8012
C10A C -0.1910(6) 0.9855(7) 0.8238(7)
C11A C -0.2431(6) 1.2445(7) 0.8762(6)
H9A H -0.2781 1.2851 0.8273
H10A H -0.2648 1.2633 0.9247
C12A C -0.1489(7) 1.1467(8) 0.7251(7)
H11A H -0.1165 1.1133 0.6899
H12A H -0.1903 1.1976 0.6886
C13A C -0.0947(6) 1.2849(6) 0.8939(6)
C14A C -0.1063(6) 1.2758(7) 0.7620(6)
H13A H -0.1409 1.3251 0.7156
C15A C -0.0137(6) 1.3068(7) 0.7631(6)
H14A H -0.0034 1.3700 0.7155
C16A C 0.0087(6) 1.1691(6) 0.7362(6)
C17A C 0.0510(6) 1.3496(6) 0.8673(6)
H15A H 0.0225 1.3692 0.9140
H16A H 0.0682 1.4070 0.8162
C18A C 0.1451(6) 1.2425(7) 0.7241(6)
H17A H 0.1525 1.3097 0.6870
H18A H 0.1701 1.2059 0.6894
N1A N -0.1950(5) 0.7877(5) 1.2023(5)
N2A N -0.2991(5) 0.8678(5) 1.1156(5)
N3A N -0.1301(6) 0.7106(5) 1.1048(6)
N4A N -0.2266(6) 0.8012(6) 1.0114(5)
N5A N -0.3199(6) 1.0163(6) 0.9889(6)
N6A N -0.2604(5) 1.1498(5) 0.9025(5)
N7A N -0.2579(6) 0.9473(6) 0.8854(6)
N8A N -0.1992(5) 1.0832(6) 0.7970(6)
N9A N -0.1493(5) 1.2619(6) 0.8496(5)
N10A N -0.0155(5) 1.3075(6) 0.8444(6)
N11A N -0.0842(5) 1.1887(6) 0.7493(5)
N12A N 0.0497(5) 1.2306(5) 0.7491(5)
O5A O -0.2543(5) 0.9297(4) 1.2022(4)
O6A O -0.2782(4) 1.1068(5) 1.0500(4)
O7A O -0.1178(5) 1.2858(5) 0.9672(5)
O8A O -0.0960(6) 0.7419(7) 0.9598(6)
O9A O -0.1307(5) 0.9433(5) 0.7921(5)
O10A O 0.0448(4) 1.1018(5) 0.7206(5)
C19A C 0.7901(6) 1.0346(7) 0.3877(6)
C20A C 0.8366(6) 0.9924(7) 0.5258(6)
H19A H 0.8995 0.9666 0.5381
C21A C 0.8274(6) 1.0997(6) 0.4787(7)
H20A H 0.8860 1.1251 0.4711
C22A C 0.7377(6) 1.0579(8) 0.6071(7)
C23A C 0.7856(6) 1.2085(6) 0.3243(7)
H21A H 0.8010 1.2037 0.2678
H22A H 0.8272 1.2494 0.3269
C24A C 0.7333(7) 1.2276(7) 0.5170(7)
H23A H 0.7154 1.2320 0.5734
H24A H 0.7839 1.2664 0.4874
C25A C 0.6292(6) 1.2383(6) 0.2926(5)
C26A C 0.6652(6) 1.3151(6) 0.3719(5)
H25A H 0.7016 1.3699 0.3509
C27A C 0.5657(6) 1.3469(6) 0.3503(7)
H26A H 0.5553 1.4163 0.3161
C28A C 0.5701(7) 1.2714(8) 0.5004(8)
C29A C 0.4807(6) 1.3136(7) 0.2511(6)
H27A H 0.4638 1.3823 0.2269
H28A H 0.5002 1.2956 0.2018
C30A C 0.4222(6) 1.3425(7) 0.4494(7)
H29A H 0.4085 1.3400 0.5087
H30A H 0.4084 1.4083 0.4082
C31A C 0.3719(6) 1.1922(7) 0.2894(6)
C32A C 0.3356(6) 1.3012(6) 0.3542(6)
H31A H 0.3148 1.3690 0.3221
C33A C 0.2570(6) 1.2365(6) 0.3815(5)
H32A H 0.1996 1.2741 0.3614
C34A C 0.3143(6) 1.2223(7) 0.5049(6)
C35A C 0.7692(7) 0.8831(7) 0.6762(6)
H33A H 0.7468 0.8922 0.7299
H34A H 0.8295 0.8486 0.6837
C36A C 0.8202(6) 0.8624(7) 0.4722(6)
H35A H 0.8776 0.8335 0.4966
H36A H 0.8250 0.8623 0.4140
N13A N 0.8043(5) 0.9602(5) 0.4643(5)
N14A N 0.8011(5) 1.1152(6) 0.3927(5)
N15A N 0.7766(5) 0.9751(6) 0.6041(5)
N16A N 0.7634(6) 1.1314(6) 0.5327(6)
N17A N 0.6962(5) 1.2538(5) 0.3265(5)
N18A N 0.5547(5) 1.2928(5) 0.3009(5)
N19A N 0.6556(6) 1.2684(6) 0.4628(6)
N20A N 0.5151(5) 1.3159(6) 0.4352(5)
N21A N 0.4031(5) 1.2662(5) 0.2999(5)
N22A N 0.2901(5) 1.1738(6) 0.3356(5)
N23A N 0.3650(6) 1.2829(6) 0.4390(5)
N24A N 0.2518(5) 1.1933(6) 0.4723(5)
O11A O 0.7695(4) 1.0282(5) 0.3239(4)
O12A O 0.6360(4) 1.1837(5) 0.2553(4)
O13A O 0.4109(5) 1.1559(5) 0.2409(5)
O14A O 0.6894(5) 1.0633(6) 0.6716(5)
O15A O 0.5452(6) 1.2431(6) 0.5791(5)
O16A O 0.3176(5) 1.1979(5) 0.5823(5)
O1A O -0.4320(4) 1.1318(5) 1.1442(4)
O2A O -0.2404(5) 1.2315(5) 1.1147(4)
O3A O -0.3938(4) 0.9843(5) 1.3019(5)
O4A O -0.1344(5) 1.0624(5) 1.1636(5)
Lu1A Lu -0.29156(2) 1.08298(2) 1.19422(2)
Lu1A_2 Lu 0.70844(2) 1.08298(2) 0.19422(2)
O11A_2 O -0.2305(4) 1.0282(5) 1.3239(4)
O12A_2 O -0.3640(4) 1.1837(5) 1.2553(4)
Cl2 Cl -0.1247(2) 0.5292(3) 0.6965(4)
Cl3 Cl -0.0123(3) 0.7562(3) 0.6500(4)
Cl4 Cl 0.1482(3) 0.5274(3) 0.6638(4)
Cl5 Cl 0.0019(8) 0.6690(7) 0.4602(4)
Cd1 Cd 0.00553(7) 0.61623(7) 0.61385(8)
Cl1 Cl 0.5120(2) 1.1986(2) 0.9566(2)
loop_
_geom_bond_atom_site_label_1
_geom_bond_atom_site_label_2
_geom_bond_site_symmetry_1
_geom_bond_site_symmetry_2
O1 Lu1 1_555 1_555
O2 Lu1 1_555 1_555
O3 Lu1 1_555 1_555
O4 Lu1 1_555 1_555
Lu1 O5 1_555 1_555
C1 N1 1_555 1_555
C2 H1 1_555 1_555
C3 C2 1_555 1_555
H2 C3 1_555 1_555
C4 N3 1_555 1_555
C5 H3 1_555 1_555
H4 C5 1_555 1_555
C6 H5 1_555 1_555
H6 C6 1_555 1_555
C7 N5 1_555 1_555
C8 H7 1_555 1_555
C9 C8 1_555 1_555
H8 C9 1_555 1_555
C10 N7 1_555 1_555
C11 H9 1_555 1_555
H10 C11 1_555 1_555
C12 H11 1_555 1_555
H12 C12 1_555 1_555
C13 N9 1_555 1_555
C14 H13 1_555 1_555
C15 C14 1_555 1_555
H14 C15 1_555 1_555
C16 N11 1_555 1_555
C17 H15 1_555 1_555
H16 C17 1_555 1_555
C18 H17 1_555 1_555
H18 C18 1_555 1_555
C19 N13 1_555 1_555
C20 H19 1_555 1_555
C21 C20 1_555 1_555
H20 C21 1_555 1_555
C22 N15 1_555 1_555
C23 H21 1_555 1_555
H22 C23 1_555 1_555
C24 H23 1_555 1_555
H24 C24 1_555 1_555
C25 N17 1_555 1_555
C26 H25 1_555 1_555
C27 C26 1_555 1_555
H26 C27 1_555 1_555
C28 N19 1_555 1_555
C29 H27 1_555 1_555
H28 C29 1_555 1_555
C30 H29 1_555 1_555
H30 C30 1_555 1_555
C31 N21 1_555 1_555
C32 H31 1_555 1_555
C33 C32 1_555 1_555
H32 C33 1_555 1_555
C34 N23 1_555 1_555
C35 H33 1_555 1_555
H34 C35 1_555 1_555
C36 H35 1_555 1_555
H36 C36 1_555 1_555
N1 C2 1_555 1_555
N2 C1 1_555 1_555
N3 C2 1_555 1_555
N4 C3 1_555 1_555
N5 C5 1_555 1_555
N6 C7 1_555 1_555
N7 C6 1_555 1_555
N8 C9 1_555 1_555
N9 C11 1_555 1_555
N10 C13 1_555 1_555
N11 C12 1_555 1_555
N12 C15 1_555 1_555
N13 C20 1_555 1_555
N14 C19 1_555 1_555
N15 C20 1_555 1_555
N16 C21 1_555 1_555
N17 C23 1_555 1_555
N18 C25 1_555 1_555
N19 C24 1_555 1_555
N20 C27 1_555 1_555
N21 C29 1_555 1_555
N22 C31 1_555 1_555
N23 C30 1_555 1_555
N24 C33 1_555 1_555
O5 C1 1_555 1_555
O6 Lu1 1_555 1_555
O7 C13 1_555 1_555
O8 C4 1_555 1_555
O9 C10 1_555 1_555
O10 C16 1_555 1_555
O11 Lu1 1_555 1_555
O12 Lu1 1_555 1_555
O13 C31 1_555 1_555
O14 C22 1_555 1_555
O15 C28 1_555 1_555
O16 C34 1_555 1_555
Cl2 Cd1 1_555 1_555
Cl3 Cd1 1_555 1_555
Cl4 Cd1 1_555 1_555
Cl5 Cd1 1_555 1_555
C1A N1A 1_555 1_555
C2A H1A 1_555 1_555
C3A C2A 1_555 1_555
H2A C3A 1_555 1_555
C4A N3A 1_555 1_555
C5A H3A 1_555 1_555
H4A C5A 1_555 1_555
C6A H5A 1_555 1_555
H6A C6A 1_555 1_555
C7A N5A 1_555 1_555
C8A H7A 1_555 1_555
C9A C8A 1_555 1_555
H8A C9A 1_555 1_555
C10A N7A 1_555 1_555
C11A H9A 1_555 1_555
H10A C11A 1_555 1_555
C12A H11A 1_555 1_555
H12A C12A 1_555 1_555
C13A N9A 1_555 1_555
C14A H13A 1_555 1_555
C15A C14A 1_555 1_555
H14A C15A 1_555 1_555
C16A N11A 1_555 1_555
C17A N3 1_555 1_555
H15A C17A 1_555 1_555
H16A C17A 1_555 1_555
C18A N1 1_555 1_555
H17A C18A 1_555 1_555
H18A C18A 1_555 1_555
N1A C18 1_555 1_555
N2A C1A 1_555 1_555
N3A C17 1_555 1_555
N4A C3A 1_555 1_555
N5A C5A 1_555 1_555
N6A C7A 1_555 1_555
N7A C6A 1_555 1_555
N8A C9A 1_555 1_555
N9A C11A 1_555 1_555
N10A C13A 1_555 1_555
N11A C12A 1_555 1_555
N12A C15A 1_555 1_555
O5A C1A 1_555 1_555
O6A C7A 1_555 1_555
O7A C13A 1_555 1_555
O8A C4A 1_555 1_555
O9A C10A 1_555 1_555
O10A C16A 1_555 1_555
C19A N13A 1_555 1_555
C20A H19A 1_555 1_555
C21A C20A 1_555 1_555
H20A C21A 1_555 1_555
C22A N15A 1_555 1_555
C23A H21A 1_555 1_555
H22A C23A 1_555 1_555
C24A H23A 1_555 1_555
H24A C24A 1_555 1_555
C25A N17A 1_555 1_555
C26A H25A 1_555 1_555
C27A C26A 1_555 1_555
H26A C27A 1_555 1_555
C28A N19A 1_555 1_555
C29A H27A 1_555 1_555
H28A C29A 1_555 1_555
C30A H29A 1_555 1_555
H30A C30A 1_555 1_555
C31A N21A 1_555 1_555
C32A H31A 1_555 1_555
C33A C32A 1_555 1_555
H32A C33A 1_555 1_555
C34A N23A 1_555 1_555
C35A N22 1_555 1_555
H33A C35A 1_555 1_555
H34A C35A 1_555 1_555
C36A N24 1_555 1_555
H35A C36A 1_555 1_555
H36A C36A 1_555 1_555
N13A C20A 1_555 1_555
N14A C19A 1_555 1_555
N15A C20A 1_555 1_555
N16A C21A 1_555 1_555
N17A C23A 1_555 1_555
N18A C25A 1_555 1_555
N19A C24A 1_555 1_555
N20A C27A 1_555 1_555
N21A C29A 1_555 1_555
N22A C35 1_555 1_555
N23A C30A 1_555 1_555
N24A C36 1_555 1_555
O11A C19A 1_555 1_555
O12A C25A 1_555 1_555
O13A C31A 1_555 1_555
O14A C22A 1_555 1_555
O15A C28A 1_555 1_555
O16A C34A 1_555 1_555
O1A Lu1A 1_555 1_555
O2A Lu1A 1_555 1_555
O3A Lu1A 1_555 1_555
O4A Lu1A 1_555 1_555
Lu1A O5A 1_555 1_555
Lu1A_2 O11A 1_555 1_555
O11A_2 Lu1A 1_555 1_555
O12A_2 Lu1A 1_555 1_555
C3 N2 1_555 1_555
C4 N4 1_555 1_555
C5 N2 1_555 1_555
C6 N4 1_555 1_555
C7 O6 1_555 1_555
C8 N5 1_555 1_555
C8 N7 1_555 1_555
C9 N6 1_555 1_555
C10 N8 1_555 1_555
C11 N6 1_555 1_555
C12 N8 1_555 1_555
C14 N9 1_555 1_555
C14 N11 1_555 1_555
C15 N10 1_555 1_555
C16 N12 1_555 1_555
C17 N10 1_555 1_555
C18 N12 1_555 1_555
C19 O11 1_555 1_555
C21 N14 1_555 1_555
C22 N16 1_555 1_555
C23 N14 1_555 1_555
C24 N16 1_555 1_555
C25 O12 1_555 1_555
C26 N17 1_555 1_555
C26 N19 1_555 1_555
C27 N18 1_555 1_555
C28 N20 1_555 1_555
C29 N18 1_555 1_555
C30 N20 1_555 1_555
C32 N21 1_555 1_555
C32 N23 1_555 1_555
C33 N22 1_555 1_555
C34 N24 1_555 1_555
C35 N15 1_555 1_555
C36 N13 1_555 1_555
C2A N1A 1_555 1_555
C2A N3A 1_555 1_555
C3A N2A 1_555 1_555
C4A N4A 1_555 1_555
C5A N2A 1_555 1_555
C6A N4A 1_555 1_555
C8A N5A 1_555 1_555
C8A N7A 1_555 1_555
C9A N6A 1_555 1_555
C10A N8A 1_555 1_555
C11A N6A 1_555 1_555
C12A N8A 1_555 1_555
C14A N9A 1_555 1_555
C14A N11A 1_555 1_555
C15A N10A 1_555 1_555
C16A N12A 1_555 1_555
C17A N10A 1_555 1_555
C18A N12A 1_555 1_555
O6A Lu1A 1_555 1_555
C21A N14A 1_555 1_555
C22A N16A 1_555 1_555
C23A N14A 1_555 1_555
C24A N16A 1_555 1_555
C26A N17A 1_555 1_555
C26A N19A 1_555 1_555
C27A N18A 1_555 1_555
C28A N20A 1_555 1_555
C29A N18A 1_555 1_555
C30A N20A 1_555 1_555
C31A N22A 1_555 1_555
C32A N21A 1_555 1_555
C32A N23A 1_555 1_555
C33A N22A 1_555 1_555
C33A N24A 1_555 1_555
C34A N24A 1_555 1_555
C35A N15A 1_555 1_555
C36A N13A 1_555 1_555
O12A Lu1A_2 1_555 1_555

#END
