
#######################################################################
#
#                 Cambridge Crystallographic Data Centre
#                                CCDC 
#
#######################################################################
#
# If this CIF has been generated from an entry in the Cambridge 
# Structural Database, then it will include bibliographic, chemical, 
# crystal, experimental, refinement or atomic coordinate data resulting 
# from the CCDC's data processing and validation procedures.
#
#######################################################################

data_OGALIS01
_symmetry_cell_setting           monoclinic
_symmetry_space_group_name_H-M   'P 21/c'
_symmetry_Int_Tables_number      14
_space_group_name_Hall           '-P 2ybc'
loop_
_symmetry_equiv_pos_site_id
_symmetry_equiv_pos_as_xyz
1 x,y,z
2 -x,1/2+y,1/2-z
3 -x,-y,-z
4 x,1/2-y,1/2+z
_cell_length_a                   8.2338(2)
_cell_length_b                   15.6694(4)
_cell_length_c                   9.8905(3)
_cell_angle_alpha                90
_cell_angle_beta                 105.310(1)
_cell_angle_gamma                90
_cell_volume                     1230.77
loop_
_atom_site_label
_atom_site_type_symbol
_atom_site_fract_x
_atom_site_fract_y
_atom_site_fract_z
Cu1 Cu 0.85652(5) 0.18436(2) 0.13723(4)
O1 O 0.8768(3) 0.23988(13) -0.0385(2)
O2 O 1.0113(4) 0.22773(18) -0.2075(2)
O3 O 0.7940(3) 0.10061(14) 0.2665(2)
O4 O 0.6217(3) 0.08798(13) 0.4060(2)
N1 N 1.0415(4) 0.11597(17) 0.1059(3)
N2 N 1.1405(4) 0.05033(17) 0.1645(3)
H1 H 1.1385 0.0260 0.2442
N3 N 0.6371(4) 0.23330(16) 0.1382(3)
N4 N 0.5322(4) 0.29699(16) 0.0810(3)
H2 H 0.5505 0.3328 0.0181
C1 C 0.9853(4) 0.2062(2) -0.0940(3)
C2 C 1.0835(4) 0.1345(2) -0.0126(3)
C3 C 1.2086(5) 0.0798(2) -0.0309(3)
H3 H 1.2595 0.0790 -0.1066
C4 C 1.2432(5) 0.0266(2) 0.0853(4)
C5 C 1.3665(5) -0.0448(2) 0.1281(5)
H4 H 1.3121 -0.0927 0.1627
H5 H 1.4631 -0.0252 0.2025
H6 H 1.4049 -0.0635 0.0472
C6 C 0.6657(4) 0.12271(18) 0.3071(3)
C7 C 0.5653(4) 0.19483(19) 0.2291(3)
C8 C 0.4138(4) 0.2337(2) 0.2295(3)
H7 H 0.3394 0.2187 0.2844
C9 C 0.3946(4) 0.2994(2) 0.1321(3)
C10 C 0.2584(5) 0.3635(2) 0.0829(4)
H8 H 0.3061 0.4211 0.0985
H9 H 0.1733 0.3564 0.1350
H10 H 0.2060 0.3551 -0.0174
Cu1C Cu 0.85652(5) 0.31564(2) -0.36277(4)
O2C O 1.0113(4) 0.27227(18) 0.2925(2)
O5 O 1.0964(4) -0.0371(3) 0.3895(4)
loop_
_geom_bond_atom_site_label_1
_geom_bond_atom_site_label_2
_geom_bond_site_symmetry_1
_geom_bond_site_symmetry_2
Cu1 O1 1_555 1_555
O1 C1 1_555 1_555
O2 C1 1_555 1_555
O3 Cu1 1_555 1_555
O4 C6 1_555 1_555
N1 Cu1 1_555 1_555
N2 N1 1_555 1_555
H1 N2 1_555 1_555
N3 Cu1 1_555 1_555
N4 N3 1_555 1_555
H2 N4 1_555 1_555
C1 C2 1_555 1_555
C2 N1 1_555 1_555
C3 C2 1_555 1_555
H3 C3 1_555 1_555
C4 N2 1_555 1_555
C5 C4 1_555 1_555
H4 C5 1_555 1_555
H5 C5 1_555 1_555
H6 C5 1_555 1_555
C6 O3 1_555 1_555
C7 N3 1_555 1_555
C8 C7 1_555 1_555
H7 C8 1_555 1_555
C9 N4 1_555 1_555
C10 C9 1_555 1_555
H8 C10 1_555 1_555
H9 C10 1_555 1_555
H10 C10 1_555 1_555
Cu1C O2 1_555 1_555
O2C Cu1 1_555 1_555
C3 C4 1_555 1_555
C6 C7 1_555 1_555
C8 C9 1_555 1_555

#END
