
#######################################################################
#
#                 Cambridge Crystallographic Data Centre
#                                CCDC 
#
#######################################################################
#
# If this CIF has been generated from an entry in the Cambridge 
# Structural Database, then it will include bibliographic, chemical, 
# crystal, experimental, refinement or atomic coordinate data resulting 
# from the CCDC's data processing and validation procedures.
#
#######################################################################

data_OGALEO
_symmetry_cell_setting           triclinic
_symmetry_space_group_name_H-M   'P -1'
_symmetry_Int_Tables_number      2
_space_group_name_Hall           '-P 1'
loop_
_symmetry_equiv_pos_site_id
_symmetry_equiv_pos_as_xyz
1 x,y,z
2 -x,-y,-z
_cell_length_a                   7.1127(8)
_cell_length_b                   7.3125(9)
_cell_length_c                   11.8873(14)
_cell_angle_alpha                104.328(2)
_cell_angle_beta                 90.5050(10)
_cell_angle_gamma                112.2570(10)
_cell_volume                     550.776
loop_
_atom_site_label
_atom_site_type_symbol
_atom_site_fract_x
_atom_site_fract_y
_atom_site_fract_z
Co1 Co 0.5000 0.5000 0.5000
Co2 Co 0.0000 0.0000 1.0000
O1 O 0.2538(3) 0.4186(3) 0.37220(15)
O2 O -0.0865(3) 0.2734(3) 0.33454(15)
O3 O -0.2719(3) 0.0355(3) 0.77367(17)
O4 O 0.0453(3) 0.1385(3) 0.85974(16)
O5 O 0.3087(3) 0.1606(4) 1.0611(2)
H1 H 0.3426 0.1195 1.1159
H2 H 0.3996 0.2623 1.0443
O6 O 0.0570(4) -0.2435(4) 0.89846(19)
H3 H 0.1374 -0.2909 0.9223
H4 H 0.0615 -0.2401 0.8275
O7 O 0.4552(3) 0.7652(3) 0.58529(17)
H5 H 0.3390 0.7439 0.6100
H6 H 0.5568 0.8470 0.6353
N1 N 0.2490(3) 0.3284(3) 0.57270(18)
N2 N 0.2067(3) 0.2727(3) 0.67121(18)
H7 H 0.2978 0.2880 0.7247
C1 C 0.0752(4) 0.3257(4) 0.3977(2)
C2 C 0.0679(4) 0.2782(4) 0.5128(2)
C3 C -0.0914(4) 0.1892(4) 0.5745(2)
H8 H -0.2311 0.1403 0.5521
C4 C 0.0037(4) 0.1896(4) 0.6765(2)
C5 C -0.0807(4) 0.1147(4) 0.7782(2)
Co2_2 Co 1.0000 1.0000 0.0000
O1A O 0.7462(3) 0.5814(3) 0.62780(15)
O2A O 1.0865(3) 0.7266(3) 0.66546(15)
O3A O 1.2719(3) 0.9645(3) 0.22633(17)
O4A O 0.9547(3) 0.8615(3) 0.14026(16)
O4A_2 O -0.0453(3) -0.1385(3) 1.14026(16)
O5A O -0.3087(3) -0.1606(4) 0.9389(2)
H1A H -0.3426 -0.1195 0.8841
H2A H -0.3996 -0.2623 0.9557
O6A O -0.0570(4) 0.2435(4) 1.10154(19)
H3A H -0.1374 0.2909 1.0777
H4A H -0.0615 0.2401 1.1725
O7A O 0.5448(3) 0.2348(3) 0.41471(17)
H5A H 0.6610 0.2561 0.3900
H6A H 0.4432 0.1530 0.3647
N1A N 0.7510(3) 0.6716(3) 0.42730(18)
N2A N 0.7933(3) 0.7273(3) 0.32879(18)
H7A H 0.7022 0.7120 0.2753
C1A C 0.9248(4) 0.6743(4) 0.6023(2)
C2A C 0.9321(4) 0.7218(4) 0.4872(2)
C3A C 1.0914(4) 0.8108(4) 0.4255(2)
H8A H 1.2311 0.8597 0.4479
C4A C 0.9963(4) 0.8104(4) 0.3235(2)
C5A C 1.0807(4) 0.8853(4) 0.2218(2)
O8 O 0.4166(3) 0.6452(4) 0.21382(19)
H9 H 0.3460 0.5615 0.2506
H10 H 0.3863 0.7471 0.2141
O9 O 0.3034(4) 0.5726(4) 0.9757(2)
H11 H 0.2575 0.5061 1.0257
H12 H 0.2294 0.6270 0.9522
loop_
_geom_bond_atom_site_label_1
_geom_bond_atom_site_label_2
_geom_bond_site_symmetry_1
_geom_bond_site_symmetry_2
Co1 O1 1_555 1_555
Co2 O4 1_555 1_555
O1 C1 1_555 1_555
O2 C1 1_555 1_555
O3 C5 1_555 1_555
O4 C5 1_555 1_555
O5 Co2 1_555 1_555
H1 O5 1_555 1_555
H2 O5 1_555 1_555
O6 Co2 1_555 1_555
H3 O6 1_555 1_555
H4 O6 1_555 1_555
O7 Co1 1_555 1_555
H5 O7 1_555 1_555
H6 O7 1_555 1_555
N1 Co1 1_555 1_555
N2 N1 1_555 1_555
H7 N2 1_555 1_555
C1 C2 1_555 1_555
C2 N1 1_555 1_555
C3 C2 1_555 1_555
H8 C3 1_555 1_555
C4 N2 1_555 1_555
C5 C4 1_555 1_555
O8 H9 1_555 1_555
H10 O8 1_555 1_555
O9 H11 1_555 1_555
H12 O9 1_555 1_555
Co2_2 O4A 1_555 1_555
O1A Co1 1_555 1_555
O2A C1A 1_555 1_555
O3A C5A 1_555 1_555
O4A C5A 1_555 1_555
O4A_2 Co2 1_555 1_555
O5A Co2 1_555 1_555
H1A O5A 1_555 1_555
H2A O5A 1_555 1_555
O6A Co2 1_555 1_555
H3A O6A 1_555 1_555
H4A O6A 1_555 1_555
O7A Co1 1_555 1_555
H5A O7A 1_555 1_555
H6A O7A 1_555 1_555
N1A Co1 1_555 1_555
N2A N1A 1_555 1_555
H7A N2A 1_555 1_555
C1A O1A 1_555 1_555
C2A N1A 1_555 1_555
C3A C2A 1_555 1_555
H8A C3A 1_555 1_555
C4A N2A 1_555 1_555
C5A C4A 1_555 1_555
C3 C4 1_555 1_555
C1A C2A 1_555 1_555
C3A C4A 1_555 1_555

#END
