
#######################################################################
#
#                 Cambridge Crystallographic Data Centre
#                                CCDC 
#
#######################################################################
#
# If this CIF has been generated from an entry in the Cambridge 
# Structural Database, then it will include bibliographic, chemical, 
# crystal, experimental, refinement or atomic coordinate data resulting 
# from the CCDC's data processing and validation procedures.
#
#######################################################################

data_OGAMUG
_symmetry_cell_setting           triclinic
_symmetry_space_group_name_H-M   'P -1'
_symmetry_Int_Tables_number      2
_space_group_name_Hall           '-P 1'
loop_
_symmetry_equiv_pos_site_id
_symmetry_equiv_pos_as_xyz
1 x,y,z
2 -x,-y,-z
_cell_length_a                   10.5123(7)
_cell_length_b                   15.0065(10)
_cell_length_c                   15.3954(16)
_cell_angle_alpha                113.108(3)
_cell_angle_beta                 107.716(3)
_cell_angle_gamma                98.386(2)
_cell_volume                     2028
loop_
_atom_site_label
_atom_site_type_symbol
_atom_site_fract_x
_atom_site_fract_y
_atom_site_fract_z
Zn2 Zn 0.31090(16) 0.59371(11) 1.28726(12)
Cl5 Cl 0.4035(4) 0.5659(3) 1.1687(3)
Cl6 Cl 0.3100(4) 0.7563(3) 1.3548(3)
Cl7 Cl 0.4148(6) 0.5430(4) 1.4012(4)
Cl8 Cl 0.1157(12) 0.4962(9) 1.2161(11)
O1 O 0.9962(9) 0.2100(7) 1.0218(7)
O2 O 0.9447(9) -0.0812(7) 0.8350(7)
O3 O 0.9419(9) 0.2336(7) 0.8268(7)
O4 O 0.8281(10) 0.0252(8) 0.6663(7)
O5 O 0.8126(12) 0.0191(8) 0.9687(8)
Cd1 Cd 0.8774(2) 0.07154(18) 0.84617(18)
C1 C 0.5942(12) 0.1721(9) 0.8466(9)
C2 C 0.3609(11) 0.1507(8) 0.7554(8)
H1 H 0.3256 0.1694 0.6996
C3 C 0.4144(11) 0.2442(8) 0.8627(9)
H2 H 0.4155 0.3082 0.8579
C4 C 0.2191(11) 0.1276(8) 0.8407(9)
C5 C 0.6584(12) 0.3275(9) 1.0084(9)
H3 H 0.7523 0.3269 1.0102
H4 H 0.6453 0.3909 1.0086
C6 C 0.3108(12) 0.2931(9) 0.9977(9)
H5 H 0.2160 0.2749 0.9954
H6 H 0.3299 0.3601 1.0001
C7 C 0.7583(11) 0.3170(8) 1.1699(9)
C8 C 0.5550(11) 0.3670(8) 1.1420(8)
H7 H 0.5598 0.4358 1.1485
C9 C 0.6042(12) 0.3686(9) 1.2494(9)
H8 H 0.6226 0.4367 1.3059
C10 C 0.3741(12) 0.2582(9) 1.1469(9)
C11 C 0.8241(11) 0.3408(8) 1.3487(9)
H9 H 0.8254 0.3981 1.4088
H10 H 0.9195 0.3521 1.3508
C12 C 0.4760(13) 0.2773(9) 1.3225(9)
H11 H 0.3765 0.2540 1.3085
H12 H 0.5187 0.3421 1.3858
C13 C 0.8437(12) 0.1731(9) 1.3271(9)
C14 C 0.6881(11) 0.2291(8) 1.4017(9)
H13 H 0.7152 0.2842 1.4721
C15 C 0.7012(11) 0.1257(8) 1.4010(9)
H14 H 0.7430 0.1336 1.4715
C16 C 0.4674(11) 0.1074(9) 1.3079(9)
C17 C 0.1550(12) -0.0107(8) 0.6656(9)
H15 H 0.1399 -0.0008 0.6044
H16 H 0.0642 -0.0263 0.6702
C18 C 0.4893(12) 0.0384(8) 0.6667(9)
H17 H 0.4321 0.0413 0.6049
H18 H 0.5864 0.0525 0.6725
N1 N 0.4827(9) 0.1171(8) 0.7546(7)
N2 N 0.5551(9) 0.2422(7) 0.9137(7)
N3 N 0.2487(9) 0.0819(7) 0.7559(7)
N4 N 0.3148(10) 0.2200(7) 0.9045(7)
N5 N 0.6502(10) 0.3259(7) 1.0994(7)
N6 N 0.7315(10) 0.3394(8) 1.2561(7)
N7 N 0.4097(9) 0.3002(7) 1.0912(7)
N8 N 0.4885(10) 0.2938(7) 1.2382(7)
N9 N 0.7839(10) 0.2480(7) 1.3556(8)
N10 N 0.7884(10) 0.0969(7) 1.3453(7)
N11 N 0.5421(10) 0.2034(7) 1.3384(7)
N12 N 0.5563(10) 0.0613(7) 1.3468(8)
O6 O 0.7125(8) 0.1614(6) 0.8659(6)
O7 O 0.8621(9) 0.2960(7) 1.1591(7)
O8 O 0.9334(10) 0.1740(7) 1.2908(8)
O9 O 0.1182(8) 0.0916(6) 0.8547(7)
O10 O 0.2595(8) 0.2021(6) 1.1227(7)
O11 O 0.3401(8) 0.0698(6) 1.2583(7)
C1A C 0.4058(12) -0.1721(9) 1.1534(9)
C2A C 0.6391(11) -0.1507(8) 1.2446(8)
H1A H 0.6744 -0.1694 1.3004
C3A C 0.5856(11) -0.2442(8) 1.1373(9)
H2A H 0.5845 -0.3082 1.1421
C4A C 0.7809(11) -0.1276(8) 1.1593(9)
C5A C 0.3416(12) -0.3275(9) 0.9916(9)
H3A H 0.2477 -0.3269 0.9898
H4A H 0.3547 -0.3909 0.9914
C6A C 0.6892(12) -0.2931(9) 1.0023(9)
H5A H 0.7840 -0.2749 1.0046
H6A H 0.6701 -0.3601 0.9999
C7A C 0.2417(11) -0.3170(8) 0.8301(9)
C8A C 0.4450(11) -0.3670(8) 0.8580(8)
H7A H 0.4402 -0.4358 0.8515
C9A C 0.3958(12) -0.3686(9) 0.7506(9)
H8A H 0.3774 -0.4367 0.6941
C10A C 0.6259(12) -0.2582(9) 0.8531(9)
C11A C 0.1759(11) -0.3408(8) 0.6513(9)
H9A H 0.1746 -0.3981 0.5912
H10A H 0.0805 -0.3521 0.6492
C12A C 0.5240(13) -0.2773(9) 0.6775(9)
H11A H 0.6235 -0.2540 0.6915
H12A H 0.4813 -0.3421 0.6142
C13A C 0.1563(12) -0.1731(9) 0.6729(9)
C14A C 0.3119(11) -0.2291(8) 0.5983(9)
H13A H 0.2848 -0.2842 0.5279
C15A C 0.2988(11) -0.1257(8) 0.5990(9)
H14A H 0.2570 -0.1336 0.5285
C16A C 0.5326(11) -0.1074(9) 0.6921(9)
C17A C 0.8450(12) 0.0107(8) 1.3344(9)
H15A H 0.8601 0.0008 1.3956
H16A H 0.9358 0.0263 1.3298
C18A C 0.5107(12) -0.0384(8) 1.3333(9)
H17A H 0.5679 -0.0413 1.3951
H18A H 0.4136 -0.0525 1.3275
N1A N 0.5173(9) -0.1171(8) 1.2454(7)
N2A N 0.4449(9) -0.2422(7) 1.0863(7)
N3A N 0.7513(9) -0.0819(7) 1.2441(7)
N4A N 0.6852(10) -0.2200(7) 1.0955(7)
N5A N 0.3498(10) -0.3259(7) 0.9006(7)
N6A N 0.2685(10) -0.3394(8) 0.7439(7)
N7A N 0.5903(9) -0.3002(7) 0.9088(7)
N8A N 0.5115(10) -0.2938(7) 0.7618(7)
N9A N 0.2161(10) -0.2480(7) 0.6444(8)
N10A N 0.2116(10) -0.0969(7) 0.6547(7)
N11A N 0.4579(10) -0.2034(7) 0.6616(7)
N12A N 0.4437(10) -0.0613(7) 0.6532(8)
O6A O 0.2875(8) -0.1614(6) 1.1341(6)
O7A O 0.1379(9) -0.2960(7) 0.8409(7)
O8A O 0.0666(10) -0.1740(7) 0.7092(8)
O9A O 0.8818(8) -0.0916(6) 1.1453(7)
O10A O 0.7405(8) -0.2021(6) 0.8773(7)
O11A O 0.6599(8) -0.0698(6) 0.7417(7)
O1A O 0.0038(9) -0.2100(7) 0.9782(7)
O2A O 0.0553(9) 0.0812(7) 1.1650(7)
O3A O 0.0581(9) -0.2336(7) 1.1732(7)
O4A O 0.1719(10) -0.0252(8) 1.3337(7)
O5A O 0.1874(12) -0.0191(8) 1.0313(8)
Cd1A Cd 0.1226(2) -0.07154(18) 1.15383(18)
Cd1_2 Cd -0.1226(2) 0.07154(18) 0.84617(18)
Cd1A_2 Cd 1.1226(2) -0.07154(18) 1.15383(18)
O9_2 O 1.1182(8) 0.0916(6) 0.8547(7)
O9A_2 O -0.1182(8) -0.0916(6) 1.1453(7)
Zn1 Zn 0.11446(16) 0.33684(11) 0.67495(12)
Cl1 Cl 0.0256(4) 0.1673(2) 0.6027(3)
Cl2 Cl -0.0059(4) 0.4231(3) 0.6107(3)
Cl3 Cl 0.1934(4) 0.4096(3) 0.8468(3)
Cl4 Cl 0.2917(12) 0.3613(13) 0.6510(11)
loop_
_geom_bond_atom_site_label_1
_geom_bond_atom_site_label_2
_geom_bond_site_symmetry_1
_geom_bond_site_symmetry_2
Zn1 Cl1 1_555 1_555
Cl2 Zn1 1_555 1_555
Cl3 Zn1 1_555 1_555
Cl4 Zn1 1_555 1_555
Zn2 Cl5 1_555 1_555
Cl6 Zn2 1_555 1_555
Cl7 Zn2 1_555 1_555
Cl8 Zn2 1_555 1_555
O1 Cd1 1_555 1_555
O2 Cd1 1_555 1_555
O3 Cd1 1_555 1_555
O4 Cd1 1_555 1_555
O5 Cd1 1_555 1_555
Cd1 O6 1_555 1_555
C1 N1 1_555 1_555
C2 H1 1_555 1_555
C3 C2 1_555 1_555
H2 C3 1_555 1_555
C4 N3 1_555 1_555
C5 H3 1_555 1_555
H4 C5 1_555 1_555
C6 H5 1_555 1_555
H6 C6 1_555 1_555
C7 N5 1_555 1_555
C8 H7 1_555 1_555
C9 C8 1_555 1_555
H8 C9 1_555 1_555
C10 N7 1_555 1_555
C11 H9 1_555 1_555
H10 C11 1_555 1_555
C12 H11 1_555 1_555
H12 C12 1_555 1_555
C13 N9 1_555 1_555
C14 H13 1_555 1_555
C15 C14 1_555 1_555
H14 C15 1_555 1_555
C16 N11 1_555 1_555
C17 H15 1_555 1_555
H16 C17 1_555 1_555
C18 H17 1_555 1_555
H18 C18 1_555 1_555
N1 C2 1_555 1_555
N2 C1 1_555 1_555
N3 C2 1_555 1_555
N4 C3 1_555 1_555
N5 C5 1_555 1_555
N6 C7 1_555 1_555
N7 C6 1_555 1_555
N8 C9 1_555 1_555
N9 C11 1_555 1_555
N10 C13 1_555 1_555
N11 C12 1_555 1_555
N12 C15 1_555 1_555
O6 C1 1_555 1_555
O7 C7 1_555 1_555
O8 C13 1_555 1_555
O9 C4 1_555 1_555
O10 C10 1_555 1_555
O11 C16 1_555 1_555
C1A N1A 1_555 1_555
C2A H1A 1_555 1_555
C3A C2A 1_555 1_555
H2A C3A 1_555 1_555
C4A N3A 1_555 1_555
C5A H3A 1_555 1_555
H4A C5A 1_555 1_555
C6A H5A 1_555 1_555
H6A C6A 1_555 1_555
C7A N5A 1_555 1_555
C8A H7A 1_555 1_555
C9A C8A 1_555 1_555
H8A C9A 1_555 1_555
C10A N7A 1_555 1_555
C11A H9A 1_555 1_555
H10A C11A 1_555 1_555
C12A H11A 1_555 1_555
H12A C12A 1_555 1_555
C13A N9A 1_555 1_555
C14A H13A 1_555 1_555
C15A C14A 1_555 1_555
H14A C15A 1_555 1_555
C16A N11A 1_555 1_555
C17A N10 1_555 1_555
H15A C17A 1_555 1_555
H16A C17A 1_555 1_555
C18A N12 1_555 1_555
H17A C18A 1_555 1_555
H18A C18A 1_555 1_555
N1A C2A 1_555 1_555
N2A C1A 1_555 1_555
N3A C2A 1_555 1_555
N4A C3A 1_555 1_555
N5A C5A 1_555 1_555
N6A C7A 1_555 1_555
N7A C6A 1_555 1_555
N8A C9A 1_555 1_555
N9A C11A 1_555 1_555
N10A C17 1_555 1_555
N11A C12A 1_555 1_555
N12A C18 1_555 1_555
O6A C1A 1_555 1_555
O7A C7A 1_555 1_555
O8A C13A 1_555 1_555
O9A C4A 1_555 1_555
O10A C10A 1_555 1_555
O11A Cd1 1_555 1_555
O1A Cd1A 1_555 1_555
O2A Cd1A 1_555 1_555
O3A Cd1A 1_555 1_555
O4A Cd1A 1_555 1_555
O5A Cd1A 1_555 1_555
Cd1A O11 1_555 1_555
Cd1_2 O9 1_555 1_555
Cd1A_2 O9A 1_555 1_555
O9_2 Cd1 1_555 1_555
O9A_2 Cd1A 1_555 1_555
C3 N2 1_555 1_555
C4 N4 1_555 1_555
C5 N2 1_555 1_555
C6 N4 1_555 1_555
C8 N5 1_555 1_555
C8 N7 1_555 1_555
C9 N6 1_555 1_555
C10 N8 1_555 1_555
C11 N6 1_555 1_555
C12 N8 1_555 1_555
C14 N9 1_555 1_555
C14 N11 1_555 1_555
C15 N10 1_555 1_555
C16 N12 1_555 1_555
C17 N3 1_555 1_555
C18 N1 1_555 1_555
C3A N2A 1_555 1_555
C4A N4A 1_555 1_555
C5A N2A 1_555 1_555
C6A N4A 1_555 1_555
C8A N5A 1_555 1_555
C8A N7A 1_555 1_555
C9A N6A 1_555 1_555
C10A N8A 1_555 1_555
C11A N6A 1_555 1_555
C12A N8A 1_555 1_555
C13A N10A 1_555 1_555
C14A N9A 1_555 1_555
C14A N11A 1_555 1_555
C15A N10A 1_555 1_555
C15A N12A 1_555 1_555
C16A N12A 1_555 1_555
C16A O11A 1_555 1_555
C17A N3A 1_555 1_555
C18A N1A 1_555 1_555
O6A Cd1A 1_555 1_555

#END
