
#######################################################################
#
#                 Cambridge Crystallographic Data Centre
#                                CCDC 
#
#######################################################################
#
# If this CIF has been generated from an entry in the Cambridge 
# Structural Database, then it will include bibliographic, chemical, 
# crystal, experimental, refinement or atomic coordinate data resulting 
# from the CCDC's data processing and validation procedures.
#
#######################################################################

data_OGAXAX
_symmetry_cell_setting           monoclinic
_symmetry_space_group_name_H-M   'C c'
_symmetry_Int_Tables_number      9
_space_group_name_Hall           'C -2yc'
loop_
_symmetry_equiv_pos_site_id
_symmetry_equiv_pos_as_xyz
1 x,y,z
2 x,-y,1/2+z
3 1/2+x,1/2+y,z
4 1/2+x,1/2-y,1/2+z
_cell_length_a                   44.370(2)
_cell_length_b                   3.811(3)
_cell_length_c                   30.2800(19)
_cell_angle_alpha                90
_cell_angle_beta                 132.87(3)
_cell_angle_gamma                90
_cell_volume                     3752.57
loop_
_atom_site_label
_atom_site_type_symbol
_atom_site_fract_x
_atom_site_fract_y
_atom_site_fract_z
C1 C 0.7685(3) -0.3795(18) 0.5148(4)
C2 C 0.6444(2) 0.1828(19) 0.4518(3)
C3 C 0.5186(2) 0.817(2) 0.2622(3)
C4 C 0.3920(3) 0.393(2) 0.1998(4)
C5 C 0.7308(2) -0.360(2) 0.5975(4)
H1 H 0.7242 -0.4482 0.5632
C6 C 0.6989(2) -0.2520(19) 0.5934(4)
H2 H 0.6724 -0.2379 0.5557
C7 C 0.7060(2) -0.1651(16) 0.6446(4)
C8 C 0.7477(3) -0.1835(17) 0.6980(4)
H3 H 0.7549 -0.1371 0.7343
C9 C 0.7781(2) -0.2658(18) 0.6992(3)
H4 H 0.8049 -0.2702 0.7365
C10 C 0.6737(3) -0.066(2) 0.6460(4)
C11 C 0.6496(3) 0.1097(18) 0.2828(4)
H5 H 0.6750 0.0343 0.2974
C12 C 0.6174(2) 0.1739(17) 0.2185(4)
H6 H 0.6209 0.1313 0.1920
C13 C 0.5813(2) 0.3026(19) 0.1999(4)
C14 C 0.5774(3) 0.338(2) 0.2406(4)
H7 H 0.5525 0.4142 0.2275
C15 C 0.6088(2) 0.2649(18) 0.2996(4)
H8 H 0.6050 0.2945 0.3260
C16 C 0.5499(3) 0.3831(18) 0.1336(4)
C17 C 0.4832(3) 0.8431(19) 0.3432(4)
H9 H 0.4793 0.8773 0.3093
C18 C 0.4527(2) 0.9032(19) 0.3409(3)
H10 H 0.4273 0.9653 0.3037
C19 C 0.4555(2) 0.8803(18) 0.3908(4)
C20 C 0.4956(2) 0.765(2) 0.4445(4)
H11 H 0.5003 0.7237 0.4790
C21 C 0.5269(3) 0.714(2) 0.4466(4)
H12 H 0.5531 0.6692 0.4836
C22 C 0.4246(2) 0.9763(19) 0.3931(3)
C23 C 0.4039(3) 0.1837(19) 0.0362(4)
H13 H 0.4307 0.1269 0.0551
C24 C 0.3730(3) 0.1435(18) -0.0253(4)
H14 H 0.3788 0.0706 -0.0482
C25 C 0.3315(2) 0.2180(18) -0.0531(3)
C26 C 0.3252(2) 0.3472(18) -0.0160(4)
H15 H 0.2990 0.4084 -0.0328
C27 C 0.3580(2) 0.3809(18) 0.0445(4)
H16 H 0.3529 0.4606 0.0680
C28 C 0.2994(3) 0.168(2) -0.1189(4)
Cu1 Cu 0.81693(3) -0.4306(3) 0.65048(4)
Cu2 Cu 0.69280(3) 0.1141(3) 0.41429(4)
Cu3 Cu 0.56736(3) 0.7040(2) 0.39665(4)
Cu4 Cu 0.44272(3) 0.3612(2) 0.16388(4)
N1 N 0.7924(2) -0.3966(14) 0.5675(3)
N2 N 0.6687(2) 0.1496(18) 0.4498(3)
N3 N 0.5426(2) 0.7695(17) 0.3136(3)
N4 N 0.4168(2) 0.3825(18) 0.1968(3)
N5 N 0.7720(2) -0.3411(18) 0.6504(3)
N6 N 0.6402(2) 0.0660(19) 0.5926(3)
H17 H 0.6386 0.0775 0.5627
N7 N 0.6069(2) 0.1884(16) 0.5871(3)
H18 H 0.5832 0.2786 0.5531
H19 H 0.6130 0.1600 0.6217
N8 N 0.6459(2) 0.1494(15) 0.3218(3)
N9 N 0.51596(17) 0.5317(14) 0.1142(2)
H20 H 0.5136 0.5628 0.1399
N10 N 0.4825(2) 0.6463(17) 0.0534(3)
H21 H 0.4596 0.7549 0.0400
H22 H 0.4880 0.5925 0.0308
N11 N 0.5214(2) 0.7274(17) 0.3974(3)
N12 N 0.3908(2) 1.1483(16) 0.3455(3)
H23 H 0.3884 1.1841 0.3151
N13 N 0.3597(2) 1.2718(17) 0.3414(3)
H24 H 0.3375 1.3901 0.3096
H25 H 0.3646 1.2140 0.3743
N14 N 0.3961(2) 0.3085(18) 0.0717(3)
N15 N 0.2643(2) 0.0428(14) -0.1357(3)
H26 H 0.2624 0.0351 -0.1093
N16 N 0.2300(2) -0.0789(17) -0.1961(3)
H27 H 0.2061 -0.1620 -0.2090
H28 H 0.2364 -0.0643 -0.2182
O1 O 0.67898(16) -0.1007(14) 0.6895(2)
O2 O 0.55316(16) 0.2926(13) 0.0978(2)
O3 O 0.42881(18) 0.8861(13) 0.4373(3)
O4 O 0.30560(19) 0.2067(15) -0.1525(3)
S1 S 0.73338(6) -0.3731(5) 0.43875(9)
S2 S 0.60739(6) 0.2139(5) 0.45461(8)
S3 S 0.48371(6) 0.8584(5) 0.18785(9)
S4 S 0.35773(7) 0.4094(5) 0.20713(9)
Cu1C Cu 0.31693(3) -0.0694(3) 0.15048(4)
Cu1C_2 Cu 0.31693(3) 0.9306(3) 0.15048(4)
Cu2_2 Cu 0.69280(3) -0.8859(3) 0.41429(4)
Cu3_2 Cu 0.56736(3) -0.2960(2) 0.39665(4)
Cu4_2 Cu 0.44272(3) 1.3612(2) 0.16388(4)
S1_2 S 0.73338(6) 0.6269(5) 0.43875(9)
S2_2 S 0.60739(6) 1.2139(5) 0.45461(8)
S3_2 S 0.48371(6) -0.1416(5) 0.18785(9)
S4C S 0.85773(7) -0.9094(5) 0.70713(9)
S4C_2 S 0.85773(7) 0.0906(5) 0.70713(9)
loop_
_geom_bond_atom_site_label_1
_geom_bond_atom_site_label_2
_geom_bond_site_symmetry_1
_geom_bond_site_symmetry_2
C1 N1 1_555 1_555
C2 N2 1_555 1_555
C3 N3 1_555 1_555
C4 N4 1_555 1_555
C5 H1 1_555 1_555
C6 C5 1_555 1_555
H2 C6 1_555 1_555
C7 C6 1_555 1_555
C8 C7 1_555 1_555
H3 C8 1_555 1_555
C9 C8 1_555 1_555
H4 C9 1_555 1_555
C10 C7 1_555 1_555
C11 H5 1_555 1_555
C12 C11 1_555 1_555
H6 C12 1_555 1_555
C13 C12 1_555 1_555
C14 C13 1_555 1_555
H7 C14 1_555 1_555
C15 C14 1_555 1_555
H8 C15 1_555 1_555
C16 C13 1_555 1_555
C17 H9 1_555 1_555
C18 C17 1_555 1_555
H10 C18 1_555 1_555
C19 C18 1_555 1_555
C20 C19 1_555 1_555
H11 C20 1_555 1_555
C21 C20 1_555 1_555
H12 C21 1_555 1_555
C22 C19 1_555 1_555
C23 H13 1_555 1_555
C24 C23 1_555 1_555
H14 C24 1_555 1_555
C25 C24 1_555 1_555
C26 C25 1_555 1_555
H15 C26 1_555 1_555
C27 C26 1_555 1_555
H16 C27 1_555 1_555
C28 C25 1_555 1_555
Cu1 N1 1_555 1_555
Cu2 N2 1_555 1_555
Cu3 N3 1_555 1_555
Cu4 N4 1_555 1_555
N5 C5 1_555 1_555
N6 C10 1_555 1_555
H17 N6 1_555 1_555
N7 N6 1_555 1_555
H18 N7 1_555 1_555
H19 N7 1_555 1_555
N8 C11 1_555 1_555
N9 C16 1_555 1_555
H20 N9 1_555 1_555
N10 N9 1_555 1_555
H21 N10 1_555 1_555
H22 N10 1_555 1_555
N11 C17 1_555 1_555
N12 C22 1_555 1_555
H23 N12 1_555 1_555
N13 N12 1_555 1_555
H24 N13 1_555 1_555
H25 N13 1_555 1_555
N14 C23 1_555 1_555
N15 C28 1_555 1_555
H26 N15 1_555 1_555
N16 N15 1_555 1_555
H27 N16 1_555 1_555
H28 N16 1_555 1_555
O1 C10 1_555 1_555
O2 C16 1_555 1_555
O3 C22 1_555 1_555
O4 C28 1_555 1_555
S1 C1 1_555 1_555
S2 C2 1_555 1_555
S3 C3 1_555 1_555
S4 C4 1_555 1_555
Cu1C S4 1_555 1_555
Cu1C_2 S4 1_555 1_555
Cu2_2 S1 1_555 1_555
Cu3_2 S2 1_555 1_555
Cu4_2 S3 1_555 1_555
S1_2 Cu2 1_555 1_555
S2_2 Cu3 1_555 1_555
S3_2 Cu4 1_555 1_555
S4C Cu1 1_555 1_555
S4C_2 Cu1 1_555 1_555
C9 N5 1_555 1_555
C15 N8 1_555 1_555
C21 N11 1_555 1_555
C27 N14 1_555 1_555
Cu1 N5 1_555 1_555
Cu2 N8 1_555 1_555
Cu2 S1 1_555 1_555
Cu3 N11 1_555 1_555
Cu3 S2 1_555 1_555
Cu4 N14 1_555 1_555
Cu4 S3 1_555 1_555

#END
