
#######################################################################
#
#                 Cambridge Crystallographic Data Centre
#                                CCDC 
#
#######################################################################
#
# If this CIF has been generated from an entry in the Cambridge 
# Structural Database, then it will include bibliographic, chemical, 
# crystal, experimental, refinement or atomic coordinate data resulting 
# from the CCDC's data processing and validation procedures.
#
#######################################################################

data_OGEDAH
_symmetry_cell_setting           monoclinic
_symmetry_space_group_name_H-M   'P 21/c'
_symmetry_Int_Tables_number      14
_space_group_name_Hall           '-P 2ybc'
loop_
_symmetry_equiv_pos_site_id
_symmetry_equiv_pos_as_xyz
1 x,y,z
2 -x,1/2+y,1/2-z
3 -x,-y,-z
4 x,1/2-y,1/2+z
_cell_length_a                   26.0839(8)
_cell_length_b                   18.1039(6)
_cell_length_c                   8.7895(3)
_cell_angle_alpha                90
_cell_angle_beta                 98.496(1)
_cell_angle_gamma                90
_cell_volume                     4105.03
loop_
_atom_site_label
_atom_site_type_symbol
_atom_site_fract_x
_atom_site_fract_y
_atom_site_fract_z
Dy1 Dy 0.257525(15) 0.132008(19) 0.67312(4)
O1 O 0.2231(3) 0.2018(4) 0.4625(7)
O2 O 0.2047(2) 0.2924(3) 0.2930(6)
C1 C 0.1953(3) 0.2537(4) 0.4036(9)
C2 C 0.1455(4) 0.2677(5) 0.4679(11)
H1 H 0.1208 0.2272 0.4349
H2 H 0.1529 0.2668 0.5816
N1 N 0.1213(3) 0.3375(4) 0.4193(8)
C3 C 0.1282(4) 0.3998(6) 0.4986(10)
H3 H 0.1479 0.4047 0.5980
N2 N 0.1038(3) 0.4538(4) 0.4192(9)
C4 C 0.0789(4) 0.4253(6) 0.2833(11)
H4 H 0.0576 0.4518 0.2045
C5 C 0.0902(4) 0.3529(6) 0.2828(10)
H5 H 0.0788 0.3188 0.2029
C6 C 0.1016(5) 0.5310(6) 0.4743(15)
H6 H 0.0677 0.5402 0.5057
H7 H 0.1069 0.5650 0.3912
H8 H 0.1289 0.5387 0.5622
O3 O 0.3094(2) 0.2446(4) 0.6824(7)
O4 O 0.3308(3) 0.1621(4) 0.8637(7)
C7 C 0.3383(3) 0.2226(5) 0.8039(9)
C8 C 0.3812(4) 0.2713(5) 0.8792(10)
H9 H 0.3695 0.2961 0.9684
H10 H 0.4113 0.2399 0.9188
N3 N 0.3981(3) 0.3281(4) 0.7766(8)
C9 C 0.3695(4) 0.3853(5) 0.7144(10)
H11 H 0.3353 0.3967 0.7317
N4 N 0.3963(3) 0.4227(4) 0.6263(8)
C10 C 0.4436(4) 0.3887(6) 0.6292(13)
H12 H 0.4707 0.4039 0.5747
C11 C 0.4444(4) 0.3301(6) 0.7235(13)
H13 H 0.4723 0.2963 0.7484
C12 C 0.3784(5) 0.4874(7) 0.5343(14)
H14 H 0.3775 0.4759 0.4250
H15 H 0.4021 0.5288 0.5626
H16 H 0.3435 0.5008 0.5535
O5 O 0.3070(2) 0.0166(4) 0.6839(7)
O6 O 0.3155(3) 0.0961(4) 0.4990(7)
C13 C 0.3279(4) 0.0372(5) 0.5687(10)
C14 C 0.3691(5) -0.0100(6) 0.5118(13)
H17 H 0.3570 -0.0245 0.4038
H18 H 0.4011 0.0196 0.5136
N5 N 0.3811(3) -0.0767(5) 0.6047(10)
C15 C 0.3513(5) -0.1337(6) 0.6079(17)
H19 H 0.3184 -0.1397 0.5467
N6 N 0.3738(4) -0.1826(5) 0.7100(14)
C16 C 0.4202(4) -0.1563(7) 0.7668(14)
H20 H 0.4452 -0.1792 0.8415
C17 C 0.4248(5) -0.0913(7) 0.6983(17)
H21 H 0.4546 -0.0604 0.7139
C18 C 0.3546(6) -0.2552(8) 0.751(3)
H22 H 0.3700 -0.2678 0.8563
H23 H 0.3642 -0.2926 0.6798
H24 H 0.3168 -0.2535 0.7444
O7 O 0.1969(3) 0.0524(4) 0.5589(8)
O8 O 0.1867(3) 0.0130(5) 0.3129(9)
C19 C 0.1789(4) 0.0094(5) 0.4503(11)
C20 C 0.1468(5) -0.0522(6) 0.5053(13)
H25 H 0.1700 -0.0843 0.5760
H26 H 0.1214 -0.0300 0.5651
N7 N 0.1184(4) -0.0987(5) 0.3829(9)
C21 C 0.1392(4) -0.1500(6) 0.2968(13)
H27 H 0.1749 -0.1618 0.3027
N8 N 0.1006(4) -0.1804(5) 0.2033(10)
C22 C 0.0551(5) -0.1499(7) 0.2273(15)
H28 H 0.0216 -0.1621 0.1751
C23 C 0.0663(5) -0.0987(7) 0.3399(14)
H29 H 0.0420 -0.0683 0.3811
C24 C 0.1048(6) -0.2384(7) 0.0876(15)
H30 H 0.0858 -0.2230 -0.0119
H31 H 0.0900 -0.2845 0.1200
H32 H 0.1414 -0.2461 0.0779
O9 O 0.2400(3) 0.0653(4) 0.8906(7)
H33 H 0.238(4) 0.081(5) 0.991(6)
H34 H 0.244(4) 0.015(2) 0.897(11)
Dy1C Dy 0.257525(15) 0.367992(19) 0.17312(4)
O2C O 0.2047(2) 0.2076(3) 0.7930(6)
P1 P 0.50461(12) 0.37682(13) 0.2047(3)
F1 F 0.5097(3) 0.3089(4) 0.0927(8)
F2 F 0.5232(3) 0.3251(4) 0.3484(8)
F3 F 0.4984(3) 0.4447(4) 0.3198(9)
F4 F 0.4852(4) 0.4280(4) 0.0600(9)
F5 F 0.5631(3) 0.3996(5) 0.1958(10)
F6 F 0.4460(3) 0.3545(4) 0.2129(10)
P2 P 0.02355(12) 0.12530(14) 0.2893(3)
F7 F 0.0246(3) 0.1852(5) 0.4232(9)
F8 F 0.0223(3) 0.0650(4) 0.1591(9)
F9 F 0.0398(19) 0.1849(17) 0.185(4)
F10 F 0.0797(8) 0.0997(19) 0.331(3)
F11 F 0.0060(14) 0.0605(14) 0.401(4)
F12 F -0.0341(11) 0.144(2) 0.248(5)
P3 P 0.23254(15) -0.16554(18) 0.8897(5)
F17 F 0.2407(4) -0.1653(6) 0.7176(10)
F18 F 0.1728(3) -0.1865(5) 0.8379(11)
F19 F 0.2241(5) -0.1654(6) 1.0652(11)
F20 F 0.2905(4) -0.1421(6) 0.9384(14)
F21 F 0.2462(4) -0.2506(4) 0.9010(14)
F22 F 0.2168(4) -0.0806(4) 0.8724(14)
O10 O 0.2412(3) 0.1275(4) 0.1652(8)
H35 H 0.224(5) 0.086(6) 0.227(14)
H36 H 0.269(4) 0.170(5) 0.173(15)
O11 O 0.2785(7) -0.0693(11) 0.292(2)
F13? F 0.0676(9) 0.1714(15) 0.224(3)
F14? F 0.0668(15) 0.0858(15) 0.401(3)
F15? F -0.0227(14) 0.0859(17) 0.344(3)
F16? F -0.0186(12) 0.1684(16) 0.180(4)
O12? O 0.2770(18) -0.030(3) 0.190(5)
loop_
_geom_bond_atom_site_label_1
_geom_bond_atom_site_label_2
_geom_bond_site_symmetry_1
_geom_bond_site_symmetry_2
Dy1 O1 1_555 1_555
O1 C1 1_555 1_555
O2 C1 1_555 1_555
C1 C2 1_555 1_555
C2 H1 1_555 1_555
H2 C2 1_555 1_555
N1 C2 1_555 1_555
C3 N1 1_555 1_555
H3 C3 1_555 1_555
N2 C3 1_555 1_555
C4 N2 1_555 1_555
H4 C4 1_555 1_555
C5 N1 1_555 1_555
H5 C5 1_555 1_555
C6 N2 1_555 1_555
H6 C6 1_555 1_555
H7 C6 1_555 1_555
H8 C6 1_555 1_555
O3 Dy1 1_555 1_555
O4 Dy1 1_555 1_555
C7 O3 1_555 1_555
C8 C7 1_555 1_555
H9 C8 1_555 1_555
H10 C8 1_555 1_555
N3 C8 1_555 1_555
C9 N3 1_555 1_555
H11 C9 1_555 1_555
N4 C9 1_555 1_555
C10 N4 1_555 1_555
H12 C10 1_555 1_555
C11 N3 1_555 1_555
H13 C11 1_555 1_555
C12 N4 1_555 1_555
H14 C12 1_555 1_555
H15 C12 1_555 1_555
H16 C12 1_555 1_555
O5 Dy1 1_555 1_555
O6 Dy1 1_555 1_555
C13 O5 1_555 1_555
C14 C13 1_555 1_555
H17 C14 1_555 1_555
H18 C14 1_555 1_555
N5 C14 1_555 1_555
C15 N5 1_555 1_555
H19 C15 1_555 1_555
N6 C15 1_555 1_555
C16 N6 1_555 1_555
H20 C16 1_555 1_555
C17 N5 1_555 1_555
H21 C17 1_555 1_555
C18 N6 1_555 1_555
H22 C18 1_555 1_555
H23 C18 1_555 1_555
H24 C18 1_555 1_555
O7 Dy1 1_555 1_555
O8 C19 1_555 1_555
C19 O7 1_555 1_555
C20 C19 1_555 1_555
H25 C20 1_555 1_555
H26 C20 1_555 1_555
N7 C20 1_555 1_555
C21 N7 1_555 1_555
H27 C21 1_555 1_555
N8 C21 1_555 1_555
C22 N8 1_555 1_555
H28 C22 1_555 1_555
C23 N7 1_555 1_555
H29 C23 1_555 1_555
C24 N8 1_555 1_555
H30 C24 1_555 1_555
H31 C24 1_555 1_555
H32 C24 1_555 1_555
O9 Dy1 1_555 1_555
H33 O9 1_555 1_555
H34 O9 1_555 1_555
P1 F1 1_555 1_555
F2 P1 1_555 1_555
F3 P1 1_555 1_555
F4 P1 1_555 1_555
F5 P1 1_555 1_555
F6 P1 1_555 1_555
P2 F7 1_555 1_555
F8 P2 1_555 1_555
F9 P2 1_555 1_555
F10 P2 1_555 1_555
F11 P2 1_555 1_555
F12 P2 1_555 1_555
P3 F17 1_555 1_555
F18 P3 1_555 1_555
F19 P3 1_555 1_555
F20 P3 1_555 1_555
F21 P3 1_555 1_555
F22 P3 1_555 1_555
O10 H35 1_555 1_555
H36 O10 1_555 1_555
Dy1C O2 1_555 1_555
O2C Dy1 1_555 1_555
C4 C5 1_555 1_555
O4 C7 1_555 1_555
C10 C11 1_555 1_555
O6 C13 1_555 1_555
C16 C17 1_555 1_555
C22 C23 1_555 1_555

#END
