
#######################################################################
#
#                 Cambridge Crystallographic Data Centre
#                                CCDC 
#
#######################################################################
#
# If this CIF has been generated from an entry in the Cambridge 
# Structural Database, then it will include bibliographic, chemical, 
# crystal, experimental, refinement or atomic coordinate data resulting 
# from the CCDC's data processing and validation procedures.
#
#######################################################################

data_OGEGIQ
_symmetry_cell_setting           monoclinic
_symmetry_space_group_name_H-M   'C 2/c'
_symmetry_Int_Tables_number      15
_space_group_name_Hall           '-C 2yn'
loop_
_symmetry_equiv_pos_site_id
_symmetry_equiv_pos_as_xyz
1 x,y,z
2 1/2+x,1/2+y,z
3 x,-y,1/2+z
4 1/2+x,1/2-y,1/2+z
5 -x,-y,-z
6 1/2-x,1/2-y,-z
7 -x,y,1/2-z
8 1/2-x,1/2+y,1/2-z
_cell_length_a                   24.384(2)
_cell_length_b                   6.5472(6)
_cell_length_c                   16.4884(18)
_cell_angle_alpha                90
_cell_angle_beta                 113.356(5)
_cell_angle_gamma                90
_cell_volume                     2416.63
loop_
_atom_site_label
_atom_site_type_symbol
_atom_site_fract_x
_atom_site_fract_y
_atom_site_fract_z
Ag1 Ag 0.0000 1.13659(18) 0.2500
Au1 Au 0.0000 0.69175(9) 0.2500
P1 P 0.07644(12) 0.8763(4) 0.1458(2)
S1 S 0.04788(12) 1.1635(4) 0.1457(2)
C1 C 0.0251(5) 0.6892(15) 0.1440(8)
H1 H 0.0420 0.5564 0.1415
H2 H -0.0105 0.7054 0.0902
C2 C 0.1459(4) 0.8343(15) 0.2395(8)
C3 C 0.1595(5) 0.6525(17) 0.2855(9)
H3 H 0.1323 0.5452 0.2685
C4 C 0.2143(6) 0.6297(19) 0.3578(11)
H4 H 0.2235 0.5063 0.3882
C5 C 0.2538(6) 0.788(2) 0.3840(10)
H5 H 0.2891 0.7754 0.4340
C6 C 0.2415(5) 0.967(2) 0.3360(10)
H6 H 0.2696 1.0712 0.3511
C7 C 0.1878(5) 0.9897(19) 0.2665(9)
H7 H 0.1794 1.1129 0.2359
C8 C 0.0964(4) 0.8432(15) 0.0533(8)
C9 C 0.1103(5) 1.0053(17) 0.0104(9)
H8 H 0.1094 1.1377 0.0303
C10 C 0.1253(5) 0.9753(18) -0.0598(9)
H9 H 0.1341 1.0872 -0.0872
C11 C 0.1275(4) 0.7825(16) -0.0922(8)
H10 H 0.1371 0.7637 -0.1410
C12 C 0.1150(5) 0.6139(17) -0.0490(9)
H11 H 0.1175 0.4817 -0.0680
C13 C 0.0996(5) 0.6466(16) 0.0213(9)
H12 H 0.0906 0.5345 0.0484
P1F P -0.07644(12) 0.8763(4) 0.3542(2)
S1F S -0.04788(12) 1.1635(4) 0.3543(2)
C1F C -0.0251(5) 0.6892(15) 0.3560(8)
H1F H -0.0420 0.5564 0.3585
H2F H 0.0105 0.7054 0.4098
C2F C -0.1459(4) 0.8343(15) 0.2605(8)
C3F C -0.1595(5) 0.6525(17) 0.2145(9)
H3F H -0.1323 0.5452 0.2315
C4F C -0.2143(6) 0.6297(19) 0.1422(11)
H4F H -0.2235 0.5063 0.1118
C5F C -0.2538(6) 0.788(2) 0.1160(10)
H5F H -0.2891 0.7754 0.0660
C6F C -0.2415(5) 0.967(2) 0.1640(10)
H6F H -0.2696 1.0712 0.1489
C7F C -0.1878(5) 0.9897(19) 0.2335(9)
H7F H -0.1794 1.1129 0.2641
C8F C -0.0964(4) 0.8432(15) 0.4467(8)
C9F C -0.1103(5) 1.0053(17) 0.4896(9)
H8F H -0.1094 1.1377 0.4697
C10F C -0.1253(5) 0.9753(18) 0.5598(9)
H9F H -0.1341 1.0872 0.5872
C11F C -0.1275(4) 0.7825(16) 0.5922(8)
H10F H -0.1371 0.7637 0.6410
C12F C -0.1150(5) 0.6139(17) 0.5490(9)
H11F H -0.1175 0.4817 0.5680
C13F C -0.0996(5) 0.6466(16) 0.4787(9)
H12F H -0.0906 0.5345 0.4516
Au1_2 Au 0.0000 1.69175(9) 0.2500
Ag1_2 Ag 0.0000 0.13659(18) 0.2500
loop_
_geom_bond_atom_site_label_1
_geom_bond_atom_site_label_2
_geom_bond_site_symmetry_1
_geom_bond_site_symmetry_2
Ag1 Au1 1_555 1_555
Au1 C1 1_555 1_555
P1 S1 1_555 1_555
S1 Ag1 1_555 1_555
C1 P1 1_555 1_555
H1 C1 1_555 1_555
H2 C1 1_555 1_555
C2 P1 1_555 1_555
C3 C2 1_555 1_555
H3 C3 1_555 1_555
C4 C3 1_555 1_555
H4 C4 1_555 1_555
C5 C4 1_555 1_555
H5 C5 1_555 1_555
C6 C5 1_555 1_555
H6 C6 1_555 1_555
C7 C2 1_555 1_555
H7 C7 1_555 1_555
C8 P1 1_555 1_555
C9 C8 1_555 1_555
H8 C9 1_555 1_555
C10 C9 1_555 1_555
H9 C10 1_555 1_555
C11 C10 1_555 1_555
H10 C11 1_555 1_555
C12 C11 1_555 1_555
H11 C12 1_555 1_555
C13 C8 1_555 1_555
H12 C13 1_555 1_555
P1F S1F 1_555 1_555
S1F Ag1 1_555 1_555
C1F Au1 1_555 1_555
H1F C1F 1_555 1_555
H2F C1F 1_555 1_555
C2F P1F 1_555 1_555
C3F C2F 1_555 1_555
H3F C3F 1_555 1_555
C4F C3F 1_555 1_555
H4F C4F 1_555 1_555
C5F C4F 1_555 1_555
H5F C5F 1_555 1_555
C6F C5F 1_555 1_555
H6F C6F 1_555 1_555
C7F C2F 1_555 1_555
H7F C7F 1_555 1_555
C8F P1F 1_555 1_555
C9F C8F 1_555 1_555
H8F C9F 1_555 1_555
C10F C9F 1_555 1_555
H9F C10F 1_555 1_555
C11F C10F 1_555 1_555
H10F C11F 1_555 1_555
C12F C11F 1_555 1_555
H11F C12F 1_555 1_555
C13F C8F 1_555 1_555
H12F C13F 1_555 1_555
Au1_2 Ag1 1_555 1_555
Ag1_2 Au1 1_555 1_555
C6 C7 1_555 1_555
C12 C13 1_555 1_555
P1F C1F 1_555 1_555
C6F C7F 1_555 1_555
C12F C13F 1_555 1_555

#END
