
#######################################################################
#
#                 Cambridge Crystallographic Data Centre
#                                CCDC 
#
#######################################################################
#
# If this CIF has been generated from an entry in the Cambridge 
# Structural Database, then it will include bibliographic, chemical, 
# crystal, experimental, refinement or atomic coordinate data resulting 
# from the CCDC's data processing and validation procedures.
#
#######################################################################

data_OGEHUF
_symmetry_cell_setting           monoclinic
_symmetry_space_group_name_H-M   'P 21/c'
_symmetry_Int_Tables_number      14
_space_group_name_Hall           '-P 2ybc'
loop_
_symmetry_equiv_pos_site_id
_symmetry_equiv_pos_as_xyz
1 x,y,z
2 -x,1/2+y,1/2-z
3 -x,-y,-z
4 x,1/2-y,1/2+z
_cell_length_a                   9.8199(8)
_cell_length_b                   17.4052(12)
_cell_length_c                   8.6142(6)
_cell_angle_alpha                90
_cell_angle_beta                 105.229(8)
_cell_angle_gamma                90
_cell_volume                     1420.61
loop_
_atom_site_label
_atom_site_type_symbol
_atom_site_fract_x
_atom_site_fract_y
_atom_site_fract_z
C1 C 0.3124(5) 0.2141(3) 0.0488(5)
C2 C 0.4443(5) 0.1768(3) 0.1553(5)
H1 H 0.4949 0.1510 0.0877
H2 H 0.5054 0.2166 0.2148
C3 C 0.3989(5) 0.0419(3) 0.2086(6)
H3 H 0.3409 0.0431 0.0984
H4 H 0.3480 0.0125 0.2709
C4 C 0.5334(5) -0.0006(3) 0.2109(5)
C5 C 0.5295(5) 0.1196(3) 0.4211(5)
H5 H 0.5061 0.0832 0.4955
H6 H 0.5378 0.1700 0.4706
C6 C 0.6692(5) 0.0976(3) 0.3922(6)
H7 H 0.7053 0.1406 0.3432
H8 H 0.7362 0.0868 0.4945
C7 C 0.7878(5) -0.0084(3) 0.2851(6)
H9 H 0.8606 0.0299 0.2902
H10 H 0.7731 -0.0349 0.1831
C8 C 0.8404(5) -0.0656(3) 0.4192(6)
N1 N 0.4137(4) 0.1208(2) 0.2702(4)
N2 N 0.6576(4) 0.0307(2) 0.2883(5)
O1 O 0.0236(4) 0.20578(19) 0.3555(4)
O2 O 0.3295(3) 0.25198(18) -0.0685(4)
O3 O 0.0707(4) 0.0765(2) 0.1622(4)
O4 O 0.1975(3) 0.20666(19) 0.0867(4)
O5 O 0.5250(4) -0.0644(2) 0.1421(4)
O6 O 0.7616(3) -0.07972(19) 0.5112(4)
O7 O 0.9586(4) -0.0958(2) 0.4288(4)
H11 H 0.000(5) 0.1703(18) 0.411(4)
H12 H 0.080(5) 0.0288(8) 0.181(5)
H13 H 0.028(5) 0.084(2) 0.065(2)
H14 H 0.067(5) 0.2408(18) 0.419(4)
Co1 Co 0.20930(7) 0.15772(4) 0.30622(7)
O2C O 0.3295(3) 0.24802(18) 0.4315(4)
O6B O 0.2384(3) 0.07972(19) 0.4888(4)
Co1B Co 0.79070(7) -0.15772(4) 0.69378(7)
Co1C Co 0.20930(7) 0.34228(4) -0.19378(7)
O8 O -0.2150(4) 0.2440(3) 0.1148(4)
H15 H -0.259(4) 0.274(2) 0.164(5)
H16 H -0.136(3) 0.232(3) 0.178(4)
O9 O -0.3100(4) 0.1643(2) -0.1619(4)
H17 H -0.380(4) 0.138(3) -0.155(5)
H18 H -0.282(5) 0.192(3) -0.078(4)
O10 O -0.0679(4) 0.0818(2) -0.1677(4)
H19 H -0.145(3) 0.104(3) -0.173(5)
H20 H -0.040(4) 0.091(3) -0.251(4)
loop_
_geom_bond_atom_site_label_1
_geom_bond_atom_site_label_2
_geom_bond_site_symmetry_1
_geom_bond_site_symmetry_2
C1 C2 1_555 1_555
C2 H1 1_555 1_555
H2 C2 1_555 1_555
C3 H3 1_555 1_555
H4 C3 1_555 1_555
C4 C3 1_555 1_555
C5 H5 1_555 1_555
H6 C5 1_555 1_555
C6 C5 1_555 1_555
H7 C6 1_555 1_555
H8 C6 1_555 1_555
C7 H9 1_555 1_555
H10 C7 1_555 1_555
C8 C7 1_555 1_555
N1 C2 1_555 1_555
N2 C4 1_555 1_555
O1 H11 1_555 1_555
O2 C1 1_555 1_555
O3 H12 1_555 1_555
O4 C1 1_555 1_555
O5 C4 1_555 1_555
O6 C8 1_555 1_555
O7 C8 1_555 1_555
H13 O3 1_555 1_555
H14 O1 1_555 1_555
Co1 N1 1_555 1_555
O8 H15 1_555 1_555
H16 O8 1_555 1_555
O9 H17 1_555 1_555
H18 O9 1_555 1_555
O10 H19 1_555 1_555
H20 O10 1_555 1_555
O2C Co1 1_555 1_555
O6B Co1 1_555 1_555
Co1B O6 1_555 1_555
Co1C O2 1_555 1_555
C3 N1 1_555 1_555
C5 N1 1_555 1_555
C6 N2 1_555 1_555
C7 N2 1_555 1_555
O1 Co1 1_555 1_555
O3 Co1 1_555 1_555
O4 Co1 1_555 1_555

#END
