
#######################################################################
#
#                 Cambridge Crystallographic Data Centre
#                                CCDC 
#
#######################################################################
#
# If this CIF has been generated from an entry in the Cambridge 
# Structural Database, then it will include bibliographic, chemical, 
# crystal, experimental, refinement or atomic coordinate data resulting 
# from the CCDC's data processing and validation procedures.
#
#######################################################################

data_OGEHOZ
_symmetry_cell_setting           monoclinic
_symmetry_space_group_name_H-M   'P 21/c'
_symmetry_Int_Tables_number      14
_space_group_name_Hall           '-P 2ybc'
loop_
_symmetry_equiv_pos_site_id
_symmetry_equiv_pos_as_xyz
1 x,y,z
2 -x,1/2+y,1/2-z
3 -x,-y,-z
4 x,1/2-y,1/2+z
_cell_length_a                   9.726(4)
_cell_length_b                   17.322(5)
_cell_length_c                   8.608(3)
_cell_angle_alpha                90
_cell_angle_beta                 105.16(4)
_cell_angle_gamma                90
_cell_volume                     1399.75
loop_
_atom_site_label
_atom_site_type_symbol
_atom_site_fract_x
_atom_site_fract_y
_atom_site_fract_z
Ni1 Ni -0.20990(11) 0.34339(5) -0.30735(11)
N1 N -0.4089(6) 0.3800(3) -0.2709(7)
N2 N -0.6562(7) 0.4690(3) -0.2880(7)
O1 O -0.1950(5) 0.2873(3) -0.0975(5)
O2 O -0.3272(5) 0.2451(3) 0.0628(5)
O3 O -0.5243(6) 0.5643(3) -0.1403(6)
O4 O -0.9622(6) 0.5941(3) -0.4282(6)
O5 O -0.7605(6) 0.5802(3) -0.5086(6)
C1 C -0.3106(9) 0.2820(4) -0.0528(8)
C2 C -0.4412(8) 0.3224(4) -0.1556(8)
H1 H -0.5058 0.2839 -0.2161
H2 H -0.4897 0.3486 -0.0855
C3 C -0.3967(8) 0.4596(4) -0.2063(8)
H3 H -0.3448 0.4902 -0.2665
H4 H -0.3395 0.4579 -0.0955
C4 C -0.5334(8) 0.5009(4) -0.2097(8)
C5 C -0.5275(8) 0.3816(4) -0.4225(8)
H5 H -0.5045 0.4187 -0.4964
H6 H -0.5352 0.3312 -0.4731
C6 C -0.6668(9) 0.4024(4) -0.3940(9)
H7 H -0.7342 0.4136 -0.4963
H8 H -0.7030 0.3586 -0.3464
C7 C -0.7870(8) 0.5074(4) -0.2844(8)
H9 H -0.7728 0.5338 -0.1820
H10 H -0.8603 0.4687 -0.2904
C8 C -0.8403(9) 0.5659(4) -0.4196(9)
O6 O -0.0781(6) 0.4239(3) -0.1616(5)
O7 O -0.0250(6) 0.2965(3) -0.3531(5)
H11 H -0.093(9) 0.4722(11) -0.177(7)
H12 H -0.037(8) 0.416(3) -0.062(3)
H13 H -0.067(7) 0.267(3) -0.430(5)
H14 H 0.016(7) 0.333(3) -0.390(7)
Ni1B Ni -0.79010(11) 0.65661(5) -0.69265(11)
Ni1C Ni -0.20990(11) 0.15661(5) 0.19265(11)
O2C O -0.3272(5) 0.2549(3) -0.4372(5)
O5B O -0.2395(6) 0.4198(3) -0.4914(6)
O8 O 0.2148(7) 0.2558(4) -0.1126(6)
H15 H 0.134(4) 0.273(4) -0.164(7)
H16 H 0.252(6) 0.231(4) -0.177(6)
O9 O 0.0683(6) 0.4182(3) 0.1654(6)
H17 H 0.020(6) 0.399(3) 0.225(8)
H18 H 0.143(4) 0.392(3) 0.172(8)
O10 O 0.3101(6) 0.3345(3) 0.1607(6)
H19 H 0.306(7) 0.309(3) 0.076(5)
H20 H 0.377(6) 0.367(3) 0.175(8)
loop_
_geom_bond_atom_site_label_1
_geom_bond_atom_site_label_2
_geom_bond_site_symmetry_1
_geom_bond_site_symmetry_2
Ni1 N1 1_555 1_555
N1 C2 1_555 1_555
N2 C4 1_555 1_555
O1 Ni1 1_555 1_555
O2 C1 1_555 1_555
O3 C4 1_555 1_555
O4 C8 1_555 1_555
O5 C8 1_555 1_555
C1 O1 1_555 1_555
C2 C1 1_555 1_555
H1 C2 1_555 1_555
H2 C2 1_555 1_555
C3 N1 1_555 1_555
H3 C3 1_555 1_555
H4 C3 1_555 1_555
C4 C3 1_555 1_555
C5 N1 1_555 1_555
H5 C5 1_555 1_555
H6 C5 1_555 1_555
C6 N2 1_555 1_555
H7 C6 1_555 1_555
H8 C6 1_555 1_555
C7 N2 1_555 1_555
H9 C7 1_555 1_555
H10 C7 1_555 1_555
C8 C7 1_555 1_555
O6 Ni1 1_555 1_555
O7 Ni1 1_555 1_555
H11 O6 1_555 1_555
H12 O6 1_555 1_555
H13 O7 1_555 1_555
H14 O7 1_555 1_555
O8 H15 1_555 1_555
H16 O8 1_555 1_555
O9 H17 1_555 1_555
H18 O9 1_555 1_555
O10 H19 1_555 1_555
H20 O10 1_555 1_555
Ni1B O5 1_555 1_555
Ni1C O2 1_555 1_555
O2C Ni1 1_555 1_555
O5B Ni1 1_555 1_555
C5 C6 1_555 1_555

#END
