
#######################################################################
#
#                 Cambridge Crystallographic Data Centre
#                                CCDC 
#
#######################################################################
#
# If this CIF has been generated from an entry in the Cambridge 
# Structural Database, then it will include bibliographic, chemical, 
# crystal, experimental, refinement or atomic coordinate data resulting 
# from the CCDC's data processing and validation procedures.
#
#######################################################################

data_OGEHIT
_symmetry_cell_setting           monoclinic
_symmetry_space_group_name_H-M   'P 21/c'
_symmetry_Int_Tables_number      14
_space_group_name_Hall           '-P 2ybc'
loop_
_symmetry_equiv_pos_site_id
_symmetry_equiv_pos_as_xyz
1 x,y,z
2 -x,1/2+y,1/2-z
3 -x,-y,-z
4 x,1/2-y,1/2+z
_cell_length_a                   9.7930(7)
_cell_length_b                   17.4391(11)
_cell_length_c                   8.6138(6)
_cell_angle_alpha                90
_cell_angle_beta                 105.169(7)
_cell_angle_gamma                90
_cell_volume                     1419.82
loop_
_atom_site_label
_atom_site_type_symbol
_atom_site_fract_x
_atom_site_fract_y
_atom_site_fract_z
Zn1 Zn 0.20851(5) 0.15660(3) 0.30543(6)
N1 N 0.4151(4) 0.1205(2) 0.2715(4)
N2 N 0.6580(4) 0.0302(2) 0.2877(4)
O1 O 0.1966(3) 0.20636(17) 0.0861(4)
O2 O 0.3293(3) 0.25152(17) -0.0675(4)
O3 O 0.5252(4) -0.06458(18) 0.1417(4)
O4 O 0.7627(3) -0.07775(18) 0.5130(4)
O5 O 0.9576(3) -0.09656(18) 0.4287(4)
C1 C 0.3121(5) 0.2135(2) 0.0494(5)
C2 C 0.4439(4) 0.1767(2) 0.1559(5)
H1 H 0.4951 0.1513 0.0882
H2 H 0.5046 0.2167 0.2152
C3 C 0.3987(5) 0.0417(2) 0.2070(5)
H3 H 0.3418 0.0438 0.0965
H4 H 0.3461 0.0123 0.2675
C4 C 0.5331(5) -0.0013(2) 0.2102(5)
C5 C 0.5300(5) 0.1194(3) 0.4210(5)
H5 H 0.5068 0.0829 0.4952
H6 H 0.5378 0.1696 0.4708
C6 C 0.6708(5) 0.0979(2) 0.3917(6)
H7 H 0.7063 0.1407 0.3418
H8 H 0.7384 0.0873 0.4939
C7 C 0.7883(5) -0.0085(3) 0.2851(5)
H9 H 0.8614 0.0297 0.2911
H10 H 0.7743 -0.0350 0.1831
C8 C 0.8397(5) -0.0657(2) 0.4195(5)
O6 O 0.0270(3) 0.20591(18) 0.3558(4)
O7 O 0.0691(4) 0.07479(18) 0.1594(4)
H11 H -0.006(5) 0.1706(18) 0.403(4)
H12 H 0.070(5) 0.239(2) 0.424(4)
H13 H 0.049(5) 0.087(2) 0.0603(19)
H14 H 0.079(5) 0.0266(7) 0.169(5)
Zn1B Zn 0.79149(5) -0.15660(3) 0.69457(6)
Zn1C Zn 0.20851(5) 0.34340(3) -0.19457(6)
O2C O 0.3293(3) 0.24848(17) 0.4325(4)
O4B O 0.2373(3) 0.07775(18) 0.4870(4)
O8 O -0.2146(4) 0.2452(2) 0.1148(5)
H15 H -0.135(3) 0.230(3) 0.168(5)
H16 H -0.261(4) 0.264(3) 0.176(5)
O9 O -0.0683(4) 0.08222(19) -0.1689(4)
H17 H -0.035(4) 0.092(3) -0.248(4)
H18 H -0.143(3) 0.108(2) -0.175(5)
O10 O -0.3109(4) 0.16484(19) -0.1625(4)
H19 H -0.282(5) 0.188(2) -0.073(3)
H20 H -0.361(5) 0.1263(19) -0.152(5)
loop_
_geom_bond_atom_site_label_1
_geom_bond_atom_site_label_2
_geom_bond_site_symmetry_1
_geom_bond_site_symmetry_2
Zn1 N1 1_555 1_555
N1 C2 1_555 1_555
N2 C4 1_555 1_555
O1 Zn1 1_555 1_555
O2 C1 1_555 1_555
O3 C4 1_555 1_555
O4 C8 1_555 1_555
O5 C8 1_555 1_555
C1 O1 1_555 1_555
C2 C1 1_555 1_555
H1 C2 1_555 1_555
H2 C2 1_555 1_555
C3 N1 1_555 1_555
H3 C3 1_555 1_555
H4 C3 1_555 1_555
C4 C3 1_555 1_555
C5 N1 1_555 1_555
H5 C5 1_555 1_555
H6 C5 1_555 1_555
C6 N2 1_555 1_555
H7 C6 1_555 1_555
H8 C6 1_555 1_555
C7 N2 1_555 1_555
H9 C7 1_555 1_555
H10 C7 1_555 1_555
C8 C7 1_555 1_555
O6 Zn1 1_555 1_555
O7 Zn1 1_555 1_555
H11 O6 1_555 1_555
H12 O6 1_555 1_555
H13 O7 1_555 1_555
H14 O7 1_555 1_555
O8 H15 1_555 1_555
H16 O8 1_555 1_555
O9 H17 1_555 1_555
H18 O9 1_555 1_555
O10 H19 1_555 1_555
H20 O10 1_555 1_555
Zn1B O4 1_555 1_555
Zn1C O2 1_555 1_555
O2C Zn1 1_555 1_555
O4B Zn1 1_555 1_555
C5 C6 1_555 1_555

#END
