
#######################################################################
#
#                 Cambridge Crystallographic Data Centre
#                                CCDC 
#
#######################################################################
#
# If this CIF has been generated from an entry in the Cambridge 
# Structural Database, then it will include bibliographic, chemical, 
# crystal, experimental, refinement or atomic coordinate data resulting 
# from the CCDC's data processing and validation procedures.
#
#######################################################################

data_OGENUL
_symmetry_cell_setting           triclinic
_symmetry_space_group_name_H-M   'P -1'
_symmetry_Int_Tables_number      2
_space_group_name_Hall           '-P 1'
loop_
_symmetry_equiv_pos_site_id
_symmetry_equiv_pos_as_xyz
1 x,y,z
2 -x,-y,-z
_cell_length_a                   7.5451(2)
_cell_length_b                   9.8422(3)
_cell_length_c                   25.2209(7)
_cell_angle_alpha                80.299(2)
_cell_angle_beta                 89.204(2)
_cell_angle_gamma                82.7770(10)
_cell_volume                     1831.43
loop_
_atom_site_label
_atom_site_type_symbol
_atom_site_fract_x
_atom_site_fract_y
_atom_site_fract_z
C1 C 1.1345(2) 0.8766(2) 0.36769(8)
C2 C 1.2018(2) 1.0025(2) 0.36753(8)
C3 C 1.2796(3) 1.0652(2) 0.32111(9)
H1 H 1.3263 1.1483 0.3209
C4 C 1.2884(3) 1.0058(3) 0.27521(10)
H2 H 1.3412 1.0489 0.2444
C5 C 1.2194(3) 0.8831(3) 0.27495(9)
H3 H 1.2243 0.8434 0.2439
C6 C 1.1429(3) 0.8192(2) 0.32087(9)
H4 H 1.096 0.7363 0.3205
C7 C 1.0653(2) 0.79765(19) 0.41835(8)
C8 C 1.1796(3) 1.0766(2) 0.41529(9)
O1 O 0.92207(18) 0.74637(15) 0.41568(6)
O2 O 0.7321(3) 1.0815(2) 0.36782(9)
O3 O 0.6008(3) 0.7899(2) 0.34511(10)
O4 O 0.5810(3) 0.8736(2) 0.45998(8)
O5 O 1.15745(17) 0.78533(15) 0.46003(5)
O6 O 1.3161(2) 1.09655(17) 0.43862(7)
O7 O 1.0225(2) 1.11784(16) 0.42656(7)
Li1 Li 0.7094(6) 0.8839(5) 0.39176(19)
H5 H 0.652(4) 1.100(5) 0.3922(13)
H6 H 0.830(3) 1.103(4) 0.3785(15)
H7 H 0.510(4) 0.815(4) 0.3244(15)
H8 H 0.588(6) 0.712(3) 0.3648(17)
H9 H 0.670(2) 0.880(2) 0.4797(8)
H10 H 0.524(8) 0.956(3) 0.451(3)
C9 C 0.4361(2) 0.43376(19) 0.36928(7)
C10 C 0.4756(3) 0.4408(2) 0.31519(8)
H11 H 0.594 0.4381 0.3042
C11 C 0.3423(3) 0.4518(2) 0.27730(8)
H12 H 0.3708 0.4585 0.241
C12 C 0.1669(3) 0.4527(2) 0.29326(8)
H13 H 0.0765 0.4605 0.2678
C13 C 0.1260(3) 0.4421(2) 0.34697(8)
H14 H 0.0078 0.4398 0.3577
C14 C 0.2581(2) 0.43463(18) 0.38559(7)
C15 C 0.2036(2) 0.43255(18) 0.44284(7)
C16 C 0.5919(2) 0.4290(2) 0.40742(7)
O8 O 0.6456(2) 0.54379(17) 0.41009(6)
O9 O 0.66101(18) 0.31454(16) 0.43179(6)
O10 O 0.31469(17) 0.45193(15) 0.47640(5)
O11 O 0.04498(16) 0.41545(14) 0.45565(6)
Li2 Li 0.9094(4) 0.2552(3) 0.46472(13)
Li3 Li 0.8511(4) 0.5717(3) 0.45623(14)
O5A O 0.84255(17) 0.21467(15) 0.53997(5)
O7_2 O 1.0225(2) 0.11784(16) 0.42656(7)
O10A O 0.68531(17) 0.54807(15) 0.52360(5)
O11_2 O 1.04498(16) 0.41545(14) 0.45565(6)
O11A O 0.95502(16) 0.58455(14) 0.54435(6)
Li2_2 Li -0.0906(4) 0.2552(3) 0.46472(13)
Li2_3 Li 0.9094(4) 1.2552(3) 0.46472(13)
Li2A Li 1.0906(4) 0.7448(3) 0.53528(13)
Li3_2 Li -0.1489(4) 0.5717(3) 0.45623(14)
Li3A Li 0.1489(4) 0.4283(3) 0.54377(14)
Na1 Na 0.44232(10) 0.67433(9) 0.47416(3)
C17 C 0.3644(2) 0.23186(19) 0.87015(8)
C18 C 0.2954(2) 0.10596(19) 0.87207(8)
C19 C 0.2213(3) 0.0769(2) 0.82602(9)
H15 H 0.1716 -0.0054 0.8273
C20 C 0.2203(3) 0.1684(3) 0.77829(9)
H16 H 0.1727 0.1467 0.7474
C21 C 0.2895(3) 0.2918(3) 0.77621(9)
H17 H 0.2883 0.3537 0.744
C22 C 0.3609(3) 0.3238(2) 0.82194(9)
H18 H 0.407 0.4077 0.8204
C23 C 0.4347(2) 0.27171(18) 0.92014(8)
C24 C 0.3185(3) -0.00658(19) 0.92069(8)
C25 C 0.7664(2) 0.33500(19) 1.11741(7)
C26 C 0.9468(2) 0.32335(19) 1.13221(7)
C27 C 0.9954(3) 0.2778(2) 1.18567(8)
H19 H 1.1149 0.2702 1.1956
C28 C 0.8701(3) 0.2434(2) 1.22436(9)
H20 H 0.9051 0.2123 1.26
C29 C 0.6925(3) 0.2555(2) 1.20982(9)
H21 H 0.6072 0.2333 1.2357
C30 C 0.6417(3) 0.3002(2) 1.15699(8)
H22 H 0.5218 0.3074 1.1475
C31 C 0.7040(2) 0.38451(18) 1.06054(8)
C32 C 1.0949(2) 0.35862(19) 1.09321(7)
O12 O 0.58077(17) 0.32106(15) 0.91708(6)
O13 O 0.34057(17) 0.25612(15) 0.96117(5)
O14 O 0.47595(19) -0.05896(15) 0.93148(7)
O15 O 0.1835(2) -0.04526(16) 0.94451(7)
O16 O 1.13938(18) 0.47863(14) 1.08953(6)
O17 O 0.81224(16) 0.42919(14) 1.02570(5)
O18 O 1.16854(17) 0.26635(14) 1.06924(6)
O19 O 0.54232(16) 0.38175(14) 1.04955(6)
O20 O 0.7576(2) 0.03037(17) 0.87062(8)
O21 O 0.8869(2) 0.34448(18) 0.83805(7)
Li4 Li 0.6520(4) 0.4617(3) 0.95640(13)
Li5 Li 0.4099(4) 0.2325(3) 1.03574(13)
Li6 Li 0.7849(5) 0.2092(4) 0.88999(15)
H23 H 0.842(3) -0.031(3) 0.8830(15)
H24 H 0.660(2) 0.008(3) 0.8847(13)
H25 H 0.993(2) 0.330(4) 0.8231(14)
H26 H 0.891(4) 0.408(3) 0.8587(13)
O22 O 0.9251(2) 0.16499(16) 0.95684(6)
H27 H 1.001(3) 0.096(2) 0.9514(10)
H28 H 0.867(3) 0.140(3) 0.9854(7)
O14A O 0.52405(19) 0.05896(15) 1.06852(7)
O16A O 0.86062(18) 0.52137(14) 0.91047(6)
O18_2 O 0.16854(17) 0.26635(14) 1.06924(6)
O19A O 0.45768(16) 0.61825(14) 0.95045(6)
Li4A Li 0.3480(4) 0.5383(3) 1.04360(13)
Li4A_2 Li 1.3480(4) 0.5383(3) 1.04360(13)
Li5_2 Li 1.4099(4) 0.2325(3) 1.03574(13)
Li5A Li 0.5901(4) -0.2325(3) 0.96426(13)
Na2 Na 0.05738(9) 0.35009(8) 0.97615(3)
loop_
_geom_bond_atom_site_label_1
_geom_bond_atom_site_label_2
_geom_bond_site_symmetry_1
_geom_bond_site_symmetry_2
C1 C2 1_555 1_555
C2 C3 1_555 1_555
C3 H1 1_555 1_555
C4 C3 1_555 1_555
H2 C4 1_555 1_555
C5 C4 1_555 1_555
H3 C5 1_555 1_555
C6 C1 1_555 1_555
H4 C6 1_555 1_555
C7 C1 1_555 1_555
C8 C2 1_555 1_555
O1 C7 1_555 1_555
O2 Li1 1_555 1_555
O3 Li1 1_555 1_555
O4 Li1 1_555 1_555
O5 C7 1_555 1_555
O6 C8 1_555 1_555
O7 C8 1_555 1_555
Li1 O1 1_555 1_555
H5 O2 1_555 1_555
H6 O2 1_555 1_555
H7 O3 1_555 1_555
H8 O3 1_555 1_555
H9 O4 1_555 1_555
H10 O4 1_555 1_555
C9 C10 1_555 1_555
C10 H11 1_555 1_555
C11 C10 1_555 1_555
H12 C11 1_555 1_555
C12 C11 1_555 1_555
H13 C12 1_555 1_555
C13 C12 1_555 1_555
H14 C13 1_555 1_555
C14 C9 1_555 1_555
C15 C14 1_555 1_555
C16 C9 1_555 1_555
O8 C16 1_555 1_555
O9 C16 1_555 1_555
O10 C15 1_555 1_555
O11 C15 1_555 1_555
Li2 O9 1_555 1_555
Li3 O1 1_555 1_555
C17 C18 1_555 1_555
C18 C19 1_555 1_555
C19 H15 1_555 1_555
C20 C19 1_555 1_555
H16 C20 1_555 1_555
C21 C20 1_555 1_555
H17 C21 1_555 1_555
C22 C17 1_555 1_555
H18 C22 1_555 1_555
C23 C17 1_555 1_555
C24 C18 1_555 1_555
C25 C26 1_555 1_555
C26 C27 1_555 1_555
C27 H19 1_555 1_555
C28 C27 1_555 1_555
H20 C28 1_555 1_555
C29 C28 1_555 1_555
H21 C29 1_555 1_555
C30 C25 1_555 1_555
H22 C30 1_555 1_555
C31 C25 1_555 1_555
C32 C26 1_555 1_555
O12 C23 1_555 1_555
O13 C23 1_555 1_555
O14 C24 1_555 1_555
O15 C24 1_555 1_555
O16 C32 1_555 1_555
O17 C31 1_555 1_555
O18 C32 1_555 1_555
O19 C31 1_555 1_555
O20 Li6 1_555 1_555
O21 Li6 1_555 1_555
Li4 O12 1_555 1_555
Li5 O13 1_555 1_555
Li6 O12 1_555 1_555
H23 O20 1_555 1_555
H24 O20 1_555 1_555
H25 O21 1_555 1_555
H26 O21 1_555 1_555
O22 Li6 1_555 1_555
H27 O22 1_555 1_555
H28 O22 1_555 1_555
O5A Li2 1_555 1_555
O7_2 Li2 1_555 1_555
O10A Li3 1_555 1_555
O11_2 Li2 1_555 1_555
O11A Li3 1_555 1_555
Li2_2 O11 1_555 1_555
Li2_3 O7 1_555 1_555
Li2A O5 1_555 1_555
Li3_2 O11 1_555 1_555
Li3A O10 1_555 1_555
O14A Li5 1_555 1_555
O16A Li4 1_555 1_555
O18_2 Li5 1_555 1_555
O19A Li4 1_555 1_555
Li4A O19 1_555 1_555
Li4A_2 O16 1_555 1_555
Li5_2 O18 1_555 1_555
Li5A O14 1_555 1_555
C5 C6 1_555 1_555
C13 C14 1_555 1_555
O8 Li3 1_555 1_555
O11 Li3A 1_555 1_555
Li3 O11_2 1_555 1_555
C21 C22 1_555 1_555
C29 C30 1_555 1_555
O17 Li4 1_555 1_555
O19 Li4 1_555 1_555
O19 Li5 1_555 1_555
O11A Li2A 1_555 1_555
O19A Li4A 1_555 1_555

#END
