
#######################################################################
#
#                 Cambridge Crystallographic Data Centre
#                                CCDC 
#
#######################################################################
#
# If this CIF has been generated from an entry in the Cambridge 
# Structural Database, then it will include bibliographic, chemical, 
# crystal, experimental, refinement or atomic coordinate data resulting 
# from the CCDC's data processing and validation procedures.
#
#######################################################################

data_OGEPUN
_symmetry_cell_setting           monoclinic
_symmetry_space_group_name_H-M   'C 2/c'
_symmetry_Int_Tables_number      15
_space_group_name_Hall           '-C 2yn'
loop_
_symmetry_equiv_pos_site_id
_symmetry_equiv_pos_as_xyz
1 x,y,z
2 -x,y,1/2-z
3 1/2+x,1/2+y,z
4 1/2-x,1/2+y,1/2-z
5 -x,-y,-z
6 x,-y,1/2+z
7 1/2-x,1/2-y,-z
8 1/2+x,1/2-y,1/2+z
_cell_length_a                   31.061(9)
_cell_length_b                   15.409(4)
_cell_length_c                   13.956(4)
_cell_angle_alpha                90
_cell_angle_beta                 115.612(4)
_cell_angle_gamma                90
_cell_volume                     6023.28
loop_
_atom_site_label
_atom_site_type_symbol
_atom_site_fract_x
_atom_site_fract_y
_atom_site_fract_z
C1 C 0.2058(2) 0.0166(4) 0.8780(4)
C2 C 0.15339(10) 0.0376(2) 0.8208(3)
C3 C 0.11952(13) -0.02821(18) 0.7925(3)
H1 H 0.1290 -0.0851 0.8133
C4 C 0.07146(12) -0.0090(2) 0.7333(3)
H2 H 0.0488 -0.0531 0.7144
C5 C 0.05728(10) 0.0760(3) 0.7023(3)
C6 C 0.09115(13) 0.14178(18) 0.7305(3)
H3 H 0.0817 0.1987 0.7098
C7 C 0.13921(12) 0.1226(2) 0.7897(3)
H4 H 0.1619 0.1666 0.8086
C8 C 0.00438(11) 0.0976(3) 0.6296(3)
C9 C -0.02742(14) 0.03321(19) 0.5710(4)
H5 H -0.0174 -0.0243 0.5774
C10 C -0.07421(13) 0.0546(2) 0.5027(4)
H6 H -0.0955 0.0115 0.4635
C11 C -0.08920(11) 0.1405(3) 0.4931(3)
C12 C -0.05741(14) 0.2050(2) 0.5517(4)
H7 H -0.0674 0.2624 0.5452
C13 C -0.01062(13) 0.1835(2) 0.6199(4)
H8 H 0.0107 0.2266 0.6592
C14 C -0.1392(2) 0.1685(4) 0.4184(5)
C15 C 0.3768(3) 0.0652(5) 1.1330(6)
C16 C 0.4100(2) 0.0680(4) 1.2551(4)
C17 C 0.4514(3) 0.1176(4) 1.2987(5)
H9 H 0.4569 0.1600 1.2580
C18 C 0.4845(2) 0.1037(5) 1.4031(6)
H10 H 0.5122 0.1369 1.4322
C19 C 0.47630(19) 0.0402(5) 1.4639(4)
C20 C 0.4349(2) -0.0094(4) 1.4204(4)
H11 H 0.4294 -0.0519 1.4611
C21 C 0.40173(16) 0.0045(3) 1.3160(4)
H12 H 0.3740 -0.0287 1.2869
C22 C 0.47433(11) -0.2435(3) 1.2079(3)
C23 C 0.43859(15) -0.2123(3) 1.2335(2)
H13 H 0.4458 -0.1964 1.3031
C24 C 0.39208(13) -0.2047(3) 1.1550(3)
H14 H 0.3682 -0.1838 1.1721
C25 C 0.38131(11) -0.2284(3) 1.0510(3)
C26 C 0.41704(15) -0.2596(3) 1.0254(3)
H15 H 0.4098 -0.2754 0.9558
C27 C 0.46355(13) -0.2671(3) 1.1039(3)
H16 H 0.4875 -0.2880 1.0868
C28 C 0.3331(2) -0.2114(4) 0.9633(5)
O1 O 0.27444(15) -0.0851(3) 0.7487(3)
O2 O 0.21403(16) -0.2461(3) 0.8247(3)
O3 O 0.24902(15) -0.2575(3) 0.6637(3)
O4 O 0.32038(15) -0.2476(3) 0.8726(3)
O5 O 0.30418(16) -0.1596(3) 0.9759(3)
O6 O 0.21863(15) -0.0607(3) 0.8740(3)
O7 O 0.30948(15) 0.0847(3) 0.8515(3)
O8 O 0.30311(15) 0.2126(3) 1.0567(3)
O9 O 0.38890(16) 0.1164(3) 1.0759(4)
O10 O 0.33463(15) 0.0374(3) 1.0967(3)
O11 O 0.23484(15) 0.0761(3) 0.9278(3)
O12 O -0.16950(15) 0.1148(3) 0.3571(3)
O13 O -0.14852(15) 0.2491(3) 0.4173(3)
U1 U 0.244816(8) -0.165383(13) 0.788723(17)
U2 U 0.306122(8) 0.148253(13) 0.954249(16)
C22A C 0.52567(11) -0.2435(3) 1.2921(3)
C23A C 0.56141(15) -0.2123(3) 1.2665(2)
H13A H 0.5542 -0.1964 1.1969
C24A C 0.60792(13) -0.2047(3) 1.3450(3)
H14A H 0.6318 -0.1838 1.3279
C25A C 0.61869(11) -0.2284(3) 1.4490(3)
C26A C 0.58296(15) -0.2596(3) 1.4746(3)
H15A H 0.5902 -0.2754 1.5442
C27A C 0.53645(13) -0.2671(3) 1.3961(3)
H16A H 0.5125 -0.2880 1.4132
C28A C 0.6669(2) -0.2114(4) 1.5367(5)
O4A O 0.67962(15) -0.2476(3) 1.6274(3)
O5A O 0.69582(16) -0.1596(3) 1.5241(3)
C1A C 0.7942(2) 0.0166(4) 1.6220(4)
C2A C 0.84661(10) 0.0376(2) 1.6792(3)
C3A C 0.88048(13) -0.02821(18) 1.7075(3)
H1A H 0.8710 -0.0851 1.6867
C4A C 0.92854(12) -0.0090(2) 1.7667(3)
H2A H 0.9512 -0.0531 1.7856
C5A C 0.94272(10) 0.0760(3) 1.7977(3)
C6A C 0.90885(13) 0.14178(18) 1.7695(3)
H3A H 0.9183 0.1987 1.7902
C7A C 0.86079(12) 0.1226(2) 1.7103(3)
H4A H 0.8381 0.1666 1.6914
C8A C 0.99562(11) 0.0976(3) 1.8704(3)
C9A C 1.02742(14) 0.03321(19) 1.9290(4)
H5A H 1.0174 -0.0243 1.9226
C10A C 1.07421(13) 0.0546(2) 1.9973(4)
H6A H 1.0955 0.0115 2.0365
C11A C 1.08920(11) 0.1405(3) 2.0069(3)
C12A C 1.05741(14) 0.2050(2) 1.9483(4)
H7A H 1.0674 0.2624 1.9548
C13A C 1.01062(13) 0.1835(2) 1.8801(4)
H8A H 0.9893 0.2266 1.8408
C14A C 1.1392(2) 0.1685(4) 2.0816(5)
C15A C 0.6232(3) 0.0652(5) 1.3670(6)
C16A C 0.5900(2) 0.0680(4) 1.2449(4)
C17A C 0.5486(3) 0.1176(4) 1.2013(5)
H9A H 0.5431 0.1600 1.2420
C18A C 0.5155(2) 0.1037(5) 1.0969(6)
H10A H 0.4878 0.1369 1.0678
C19A C 0.52370(19) 0.0402(5) 1.0361(4)
C20A C 0.5651(2) -0.0094(4) 1.0796(4)
H11A H 0.5706 -0.0519 1.0389
C21A C 0.59827(16) 0.0045(3) 1.1840(4)
H12A H 0.6260 -0.0287 1.2131
O1A O 0.72556(15) -0.0851(3) 1.7513(3)
O2A O 0.78597(16) -0.2461(3) 1.6753(3)
O3A O 0.75098(15) -0.2575(3) 1.8363(3)
O6A O 0.78137(15) -0.0607(3) 1.6260(3)
O7A O 0.69052(15) 0.0847(3) 1.6485(3)
O8A O 0.69689(15) 0.2126(3) 1.4433(3)
O9A O 0.61110(16) 0.1164(3) 1.4241(4)
O10A O 0.66537(15) 0.0374(3) 1.4033(3)
O11A O 0.76516(15) 0.0761(3) 1.5722(3)
O12A O 1.16950(15) 0.1148(3) 2.1429(3)
O13A O 1.14852(15) 0.2491(3) 2.0827(3)
U1A U 0.755184(8) -0.165383(13) 1.711277(17)
U2A U 0.693878(8) 0.148253(13) 1.545751(16)
O3B O 0.74902(15) 0.2425(3) 1.6637(3)
O3C O 0.25098(15) 0.2425(3) 0.8363(3)
O12D O 0.16950(15) -0.1148(3) 0.6429(3)
O12E O 0.83050(15) -0.1148(3) 1.8571(3)
O13F O 0.64852(15) 0.2509(3) 1.5827(3)
O13G O 0.35148(15) 0.2509(3) 0.9173(3)
U1D U -0.244816(8) 0.165383(13) 0.211277(17)
U1E U 1.244816(8) 0.165383(13) 2.288723(17)
U2B U 0.806122(8) -0.351747(13) 1.954249(16)
U2C U 0.193878(8) -0.351747(13) 0.545751(16)
U2F U 1.193878(8) 0.351747(13) 2.045751(16)
U2G U -0.193878(8) 0.351747(13) 0.454249(16)
O14 O 0.27147(18) 0.0753(3) 0.6181(4)
N1 N -0.17783(18) -0.0660(3) 0.4089(4)
C29? C 0.4137(4) 0.0242(8) 1.2262(10)
C30? C 0.4618(5) 0.0177(9) 1.2426(10)
H17? H 0.4699 0.0311 1.1875
C31? C 0.4970(5) -0.0084(9) 1.3397(10)
H18? H 0.5284 -0.0149 1.3492
C32? C 0.4849(4) -0.0250(9) 1.4237(9)
loop_
_geom_bond_atom_site_label_1
_geom_bond_atom_site_label_2
_geom_bond_site_symmetry_1
_geom_bond_site_symmetry_2
C1 C2 1_555 1_555
C2 C3 1_555 1_555
C3 H1 1_555 1_555
C4 C3 1_555 1_555
H2 C4 1_555 1_555
C5 C4 1_555 1_555
C6 C5 1_555 1_555
H3 C6 1_555 1_555
C7 C2 1_555 1_555
H4 C7 1_555 1_555
C8 C5 1_555 1_555
C9 C8 1_555 1_555
H5 C9 1_555 1_555
C10 C9 1_555 1_555
H6 C10 1_555 1_555
C11 C10 1_555 1_555
C12 C11 1_555 1_555
H7 C12 1_555 1_555
C13 C8 1_555 1_555
H8 C13 1_555 1_555
C14 C11 1_555 1_555
C15 C16 1_555 1_555
C16 C17 1_555 1_555
C17 H9 1_555 1_555
C18 C17 1_555 1_555
H10 C18 1_555 1_555
C19 C18 1_555 1_555
C20 C19 1_555 1_555
H11 C20 1_555 1_555
C21 C16 1_555 1_555
H12 C21 1_555 1_555
C22 C23 1_555 1_555
C23 H13 1_555 1_555
C24 C23 1_555 1_555
H14 C24 1_555 1_555
C25 C24 1_555 1_555
C26 C25 1_555 1_555
H15 C26 1_555 1_555
C27 C22 1_555 1_555
H16 C27 1_555 1_555
C28 C25 1_555 1_555
O1 U1 1_555 1_555
O2 U1 1_555 1_555
O3 U1 1_555 1_555
O4 C28 1_555 1_555
O5 C28 1_555 1_555
O6 C1 1_555 1_555
O7 U2 1_555 1_555
O8 U2 1_555 1_555
O9 C15 1_555 1_555
O10 C15 1_555 1_555
O11 C1 1_555 1_555
O12 C14 1_555 1_555
O13 C14 1_555 1_555
U1 O4 1_555 1_555
U2 O9 1_555 1_555
C22A C22 1_555 1_555
C23A C22A 1_555 1_555
H13A C23A 1_555 1_555
C24A C23A 1_555 1_555
H14A C24A 1_555 1_555
C25A C24A 1_555 1_555
C26A C25A 1_555 1_555
H15A C26A 1_555 1_555
C27A C22A 1_555 1_555
H16A C27A 1_555 1_555
C28A C25A 1_555 1_555
O4A C28A 1_555 1_555
O5A C28A 1_555 1_555
C1A C2A 1_555 1_555
C2A C3A 1_555 1_555
C3A H1A 1_555 1_555
C4A C3A 1_555 1_555
H2A C4A 1_555 1_555
C5A C4A 1_555 1_555
C6A C5A 1_555 1_555
H3A C6A 1_555 1_555
C7A C2A 1_555 1_555
H4A C7A 1_555 1_555
C8A C5A 1_555 1_555
C9A C8A 1_555 1_555
H5A C9A 1_555 1_555
C10A C9A 1_555 1_555
H6A C10A 1_555 1_555
C11A C10A 1_555 1_555
C12A C11A 1_555 1_555
H7A C12A 1_555 1_555
C13A C8A 1_555 1_555
H8A C13A 1_555 1_555
C14A C11A 1_555 1_555
C15A C16A 1_555 1_555
C16A C17A 1_555 1_555
C17A H9A 1_555 1_555
C18A C17A 1_555 1_555
H10A C18A 1_555 1_555
C19A C18A 1_555 1_555
C20A C19A 1_555 1_555
H11A C20A 1_555 1_555
C21A C16A 1_555 1_555
H12A C21A 1_555 1_555
O1A U1A 1_555 1_555
O2A U1A 1_555 1_555
O3A U1A 1_555 1_555
O6A C1A 1_555 1_555
O7A U2A 1_555 1_555
O8A U2A 1_555 1_555
O9A C15A 1_555 1_555
O10A C15A 1_555 1_555
O11A C1A 1_555 1_555
O12A C14A 1_555 1_555
O13A C14A 1_555 1_555
U1A O4A 1_555 1_555
U2A O9A 1_555 1_555
O3B U2A 1_555 1_555
O3C U2 1_555 1_555
O12D U1 1_555 1_555
O12E U1A 1_555 1_555
O13F U2A 1_555 1_555
O13G U2 1_555 1_555
U1D O12 1_555 1_555
U1E O12A 1_555 1_555
U2B O3A 1_555 1_555
U2C O3 1_555 1_555
U2F O13A 1_555 1_555
U2G O13 1_555 1_555
C6 C7 1_555 1_555
C12 C13 1_555 1_555
C20 C21 1_555 1_555
C26 C27 1_555 1_555
O5 U1 1_555 1_555
O6 U1 1_555 1_555
O10 U2 1_555 1_555
O11 U2 1_555 1_555
C26A C27A 1_555 1_555
O5A U1A 1_555 1_555
C6A C7A 1_555 1_555
C12A C13A 1_555 1_555
C20A C21A 1_555 1_555
O6A U1A 1_555 1_555
O10A U2A 1_555 1_555
O11A U2A 1_555 1_555

#END
