
#######################################################################
#
#                 Cambridge Crystallographic Data Centre
#                                CCDC 
#
#######################################################################
#
# If this CIF has been generated from an entry in the Cambridge 
# Structural Database, then it will include bibliographic, chemical, 
# crystal, experimental, refinement or atomic coordinate data resulting 
# from the CCDC's data processing and validation procedures.
#
#######################################################################

data_OGEQAU
_symmetry_cell_setting           monoclinic
_symmetry_space_group_name_H-M   'P 21/c'
_symmetry_Int_Tables_number      14
_space_group_name_Hall           '-P 2ybc'
loop_
_symmetry_equiv_pos_site_id
_symmetry_equiv_pos_as_xyz
1 x,y,z
2 -x,1/2+y,1/2-z
3 -x,-y,-z
4 x,1/2-y,1/2+z
_cell_length_a                   16.6217(6)
_cell_length_b                   10.2529(3)
_cell_length_c                   10.4232(3)
_cell_angle_alpha                90
_cell_angle_beta                 101.1000(10)
_cell_angle_gamma                90
_cell_volume                     1743.1
loop_
_atom_site_label
_atom_site_type_symbol
_atom_site_fract_x
_atom_site_fract_y
_atom_site_fract_z
C1 C 0.2081(4) 0.9093(6) 0.2062(6)
C2 C 0.2858(4) 0.8599(6) 0.1695(6)
C3 C 0.3123(7) 0.7351(12) 0.1941(12)
H1 H 0.2804 0.6751 0.2290
C4 C 0.3884(7) 0.6983(12) 0.1659(14)
H2 H 0.4073 0.6143 0.1880
C5 C 0.4000(6) 0.8959(12) 0.0624(12)
H3 H 0.4271 0.9493 0.0124
C6 C 0.3242(6) 0.9342(10) 0.0907(10)
H4 H 0.2999 1.0112 0.0554
C7 C 0.4345(4) 0.7760(8) 0.1102(7)
C8 C 0.5162(4) 0.7397(8) 0.0817(8)
C9 C 0.5792(9) 0.8384(19) 0.0832(19)
H5 H 0.5682 0.9239 0.1043
C10 C 0.6563(10) 0.8089(18) 0.054(2)
H6 H 0.6956 0.8734 0.0537
C11 C 0.6226(7) 0.5880(13) 0.0575(14)
H7 H 0.6405 0.5019 0.0642
C12 C 0.5461(8) 0.6171(15) 0.0812(16)
H8 H 0.5130 0.5485 0.0979
C13 C 0.6716(4) 0.6791(7) 0.0254(7)
C14 C 0.7542(4) 0.6536(7) -0.0054(6)
O1 O 0.9484(2) 0.5439(4) 0.2150(4)
O2 O 0.8822(3) 0.3272(4) -0.0570(4)
O3 O 0.7849(3) 0.5432(5) 0.0156(5)
O4 O 0.9487(2) 0.5945(4) -0.0568(4)
O5 O 0.9704(2) 0.2604(4) 0.2012(4)
O6 O 0.1837(2) 0.8538(4) 0.2998(4)
O7 O 0.8502(3) 0.7214(4) -0.2809(4)
O8 O 0.9623(3) 0.8645(4) 0.0126(4)
O9 O 0.7889(3) 0.7488(5) -0.0500(5)
O10 O 0.1746(3) 1.0045(5) 0.1419(4)
U1 U 0.915374(12) 0.43884(2) 0.07394(2)
U2 U 0.906183(13) 0.79413(2) -0.13402(2)
O1C O 0.9484(2) 0.9561(4) -0.2850(4)
O4B O 1.0513(2) 0.4055(4) 0.0568(4)
O5B O 1.0296(2) 0.7396(4) -0.2012(4)
O6A O 0.8163(2) 0.3538(4) 0.2002(4)
O10B O 0.8254(3) 0.9955(5) -0.1419(4)
U1A U 0.084626(12) 0.93884(2) 0.42606(2)
U1B U 1.084626(12) 0.56116(2) -0.07394(2)
U2B U 0.093817(13) 1.20587(2) 0.13402(2)
U2B_2 U 1.093817(13) 0.20587(2) 0.13402(2)
U2C U 0.906183(13) 0.70587(2) 0.36598(2)
N1 N 0.8653(4) 1.0527(6) 0.1535(6)
C15? C 0.357(2) 0.857(4) 0.271(4)
H9? H 0.3538 0.8851 0.3552
C16? C 0.431(2) 0.813(4) 0.245(5)
H10? H 0.4777 0.8068 0.3111
C17? C 0.364(2) 0.774(4) 0.017(4)
H11? H 0.3647 0.7444 -0.0670
C18? C 0.295(2) 0.817(3) 0.049(3)
H12? H 0.2481 0.8172 -0.0171
C19? C 0.5353(12) 0.767(2) -0.043(2)
H13? H 0.4960 0.8046 -0.1074
C20? C 0.6104(12) 0.738(2) -0.068(3)
H14? H 0.6216 0.7571 -0.1500
C21? C 0.5752(10) 0.6922(18) 0.179(2)
H15? H 0.5641 0.6808 0.2624
C22? C 0.6538(9) 0.6599(16) 0.1538(19)
H16? H 0.6938 0.6264 0.2204
loop_
_geom_bond_atom_site_label_1
_geom_bond_atom_site_label_2
_geom_bond_site_symmetry_1
_geom_bond_site_symmetry_2
C1 C2 1_555 1_555
C2 C3 1_555 1_555
C3 H1 1_555 1_555
C4 C3 1_555 1_555
H2 C4 1_555 1_555
C5 H3 1_555 1_555
C6 C2 1_555 1_555
H4 C6 1_555 1_555
C7 C4 1_555 1_555
C8 C7 1_555 1_555
C9 C8 1_555 1_555
H5 C9 1_555 1_555
C10 C9 1_555 1_555
H6 C10 1_555 1_555
C11 H7 1_555 1_555
C12 C8 1_555 1_555
H8 C12 1_555 1_555
C13 C10 1_555 1_555
C14 C13 1_555 1_555
O1 U1 1_555 1_555
O2 U1 1_555 1_555
O3 C14 1_555 1_555
O4 U1 1_555 1_555
O5 U1 1_555 1_555
O6 C1 1_555 1_555
O7 U2 1_555 1_555
O8 U2 1_555 1_555
O9 C14 1_555 1_555
O10 C1 1_555 1_555
U1 O3 1_555 1_555
U2 O4 1_555 1_555
O1C U2 1_555 1_555
O4B U1 1_555 1_555
O5B U2 1_555 1_555
O6A U1 1_555 1_555
O10B U2 1_555 1_555
U1A O6 1_555 1_555
U1B O4 1_555 1_555
U2B O10 1_555 1_555
U2B_2 O5 1_555 1_555
U2C O1 1_555 1_555
C5 C6 1_555 1_555
C5 C7 1_555 1_555
C11 C12 1_555 1_555
C11 C13 1_555 1_555
O9 U2 1_555 1_555
O4B U1B 1_555 1_555
O4B U2B_2 1_555 1_555
O5B U1B 1_555 1_555

#END
