
#######################################################################
#
#                 Cambridge Crystallographic Data Centre
#                                CCDC 
#
#######################################################################
#
# If this CIF has been generated from an entry in the Cambridge 
# Structural Database, then it will include bibliographic, chemical, 
# crystal, experimental, refinement or atomic coordinate data resulting 
# from the CCDC's data processing and validation procedures.
#
#######################################################################

data_OGEZOQ
_symmetry_cell_setting           monoclinic
_symmetry_space_group_name_H-M   'P 21/c'
_symmetry_Int_Tables_number      14
_space_group_name_Hall           '-P 2ybc'
loop_
_symmetry_equiv_pos_site_id
_symmetry_equiv_pos_as_xyz
1 x,y,z
2 -x,1/2+y,1/2-z
3 -x,-y,-z
4 x,1/2-y,1/2+z
_cell_length_a                   12.1674(5)
_cell_length_b                   7.9501(3)
_cell_length_c                   25.4391(10)
_cell_angle_alpha                90
_cell_angle_beta                 101.5860(10)
_cell_angle_gamma                90
_cell_volume                     2410.64
loop_
_atom_site_label
_atom_site_type_symbol
_atom_site_fract_x
_atom_site_fract_y
_atom_site_fract_z
C1 C 0.6460(3) 0.0853(5) -0.02036(14)
H1 H 0.6333 0.1320 -0.0559
H2 H 0.5754 0.0704 -0.0096
H3 H 0.6829 -0.0216 -0.0202
C2 C 0.8237(2) 0.2196(3) 0.00815(10)
C3 C 0.8645(2) 0.1459(4) -0.03304(11)
H4 H 0.8178 0.0808 -0.0586
C4 C 0.9757(3) 0.1695(4) -0.03608(12)
H5 H 1.0038 0.1212 -0.0639
C5 C 1.0437(2) 0.2633(4) 0.00166(12)
H6 H 1.1187 0.2760 -0.0004
C6 C 1.0043(2) 0.3418(3) 0.04371(11)
C7 C 0.8901(2) 0.3229(3) 0.04673(10)
C8 C 1.0852(2) 0.4359(4) 0.08237(12)
H7 H 1.1596 0.4328 0.0786
C9 C 1.1508(2) 0.6045(4) 0.15989(14)
H8 H 1.1434 0.7257 0.1563
H9 H 1.2243 0.5727 0.1538
C10 C 1.1383(2) 0.5506(4) 0.21538(14)
H10 H 1.1722 0.4409 0.2237
H11 H 1.1763 0.6302 0.2418
C11 C 0.9859(3) 0.5623(4) 0.26116(12)
H12 H 1.0404 0.5868 0.2914
C12 C 0.8713(3) 0.5490(4) 0.26818(11)
C13 C 0.7809(2) 0.4940(3) 0.22802(10)
C14 C 0.6727(2) 0.4978(3) 0.23944(11)
C15 C 0.6547(3) 0.5491(4) 0.28860(12)
H13 H 0.5823 0.5504 0.2953
C16 C 0.7447(3) 0.5988(4) 0.32835(12)
H14 H 0.7326 0.6322 0.3618
C17 C 0.8494(3) 0.5987(4) 0.31849(12)
H15 H 0.9088 0.6321 0.3454
C18 C 0.4769(3) 0.4733(5) 0.20419(15)
H16 H 0.4675 0.5883 0.2139
H17 H 0.4625 0.4006 0.2322
H18 H 0.4253 0.4479 0.1714
C19 C 0.8371(2) -0.0788(3) 0.12929(10)
N1 N 1.06310(18) 0.5214(3) 0.12068(10)
N2 N 1.01831(19) 0.5435(3) 0.21739(10)
N3 N 0.8568(2) -0.2194(3) 0.13235(11)
N4 N 0.5913(2) -0.0277(3) 0.14480(10)
N5 N 0.4270(2) 0.3274(3) 0.05014(10)
Nd1 Nd 0.669935(10) 0.296852(16) 0.108410(5)
O1 O 0.71520(15) 0.1972(2) 0.01626(7)
O2 O 0.84045(13) 0.3932(2) 0.08336(7)
O3 O 0.79312(15) 0.4362(2) 0.18001(7)
O4 O 0.58988(16) 0.4479(2) 0.19692(7)
O5 O 0.62035(18) 0.0933(2) 0.17680(8)
O6 O 0.58956(16) -0.0027(2) 0.09582(8)
O7 O 0.5663(3) -0.1643(3) 0.16092(11)
O8 O 0.45245(18) 0.2991(3) 0.09943(9)
O9 O 0.50521(16) 0.3179(2) 0.02458(8)
O10 O 0.33214(19) 0.3604(4) 0.02690(11)
O11 O 0.61358(18) 0.5863(2) 0.08632(8)
H19 H 0.6018 0.6137 0.0555
H20 H 0.6013 0.6503 0.1055
Zn1 Zn 0.91134(2) 0.54783(4) 0.142782(12)
O12 O 0.82020(16) 0.0712(2) 0.12697(8)
N3_2 N 0.8568(2) 0.7806(3) 0.13235(11)
Zn1_2 Zn 0.91134(2) -0.45217(4) 0.142782(12)
loop_
_geom_bond_atom_site_label_1
_geom_bond_atom_site_label_2
_geom_bond_site_symmetry_1
_geom_bond_site_symmetry_2
C1 H1 1_555 1_555
H2 C1 1_555 1_555
H3 C1 1_555 1_555
C2 C3 1_555 1_555
C3 H4 1_555 1_555
C4 C3 1_555 1_555
H5 C4 1_555 1_555
C5 C4 1_555 1_555
H6 C5 1_555 1_555
C6 C5 1_555 1_555
C7 C2 1_555 1_555
C8 C6 1_555 1_555
H7 C8 1_555 1_555
C9 H8 1_555 1_555
H9 C9 1_555 1_555
C10 C9 1_555 1_555
H10 C10 1_555 1_555
H11 C10 1_555 1_555
C11 H12 1_555 1_555
C12 C11 1_555 1_555
C13 C12 1_555 1_555
C14 C13 1_555 1_555
C15 C14 1_555 1_555
H13 C15 1_555 1_555
C16 C15 1_555 1_555
H14 C16 1_555 1_555
C17 C12 1_555 1_555
H15 C17 1_555 1_555
C18 H16 1_555 1_555
H17 C18 1_555 1_555
H18 C18 1_555 1_555
C19 N3 1_555 1_555
N1 C8 1_555 1_555
N2 C10 1_555 1_555
N3 Zn1_2 1_555 1_555
N4 O5 1_555 1_555
N5 O8 1_555 1_555
Nd1 O1 1_555 1_555
O1 C1 1_555 1_555
O2 C7 1_555 1_555
O3 C13 1_555 1_555
O4 C14 1_555 1_555
O5 Nd1 1_555 1_555
O6 N4 1_555 1_555
O7 N4 1_555 1_555
O8 Nd1 1_555 1_555
O9 N5 1_555 1_555
O10 N5 1_555 1_555
O11 Nd1 1_555 1_555
H19 O11 1_555 1_555
H20 O11 1_555 1_555
Zn1 N1 1_555 1_555
O12 C19 1_555 1_555
N3_2 Zn1 1_555 1_555
C2 O1 1_555 1_555
C6 C7 1_555 1_555
C9 N1 1_555 1_555
C11 N2 1_555 1_555
C16 C17 1_555 1_555
C18 O4 1_555 1_555
N2 Zn1 1_555 1_555
Nd1 O2 1_555 1_555
Nd1 O3 1_555 1_555
Nd1 O4 1_555 1_555
Nd1 O6 1_555 1_555
Nd1 O9 1_555 1_555
Nd1 O12 1_555 1_555
O2 Zn1 1_555 1_555
O3 Zn1 1_555 1_555

#END
