
#######################################################################
#
#                 Cambridge Crystallographic Data Centre
#                                CCDC 
#
#######################################################################
#
# If this CIF has been generated from an entry in the Cambridge 
# Structural Database, then it will include bibliographic, chemical, 
# crystal, experimental, refinement or atomic coordinate data resulting 
# from the CCDC's data processing and validation procedures.
#
#######################################################################

data_OGIBAI
_symmetry_cell_setting           monoclinic
_symmetry_space_group_name_H-M   'P 21/c'
_symmetry_Int_Tables_number      14
_space_group_name_Hall           '-P 2ybc'
loop_
_symmetry_equiv_pos_site_id
_symmetry_equiv_pos_as_xyz
1 x,y,z
2 -x,1/2+y,1/2-z
3 -x,-y,-z
4 x,1/2-y,1/2+z
_cell_length_a                   12.1855(6)
_cell_length_b                   8.0054(4)
_cell_length_c                   25.6608(12)
_cell_angle_alpha                90
_cell_angle_beta                 101.7220(10)
_cell_angle_gamma                90
_cell_volume                     2451
loop_
_atom_site_label
_atom_site_type_symbol
_atom_site_fract_x
_atom_site_fract_y
_atom_site_fract_z
C1 C 0.6487(3) 0.9177(5) -0.01861(13)
H1 H 0.6356 0.8730 -0.0541
H2 H 0.6861 1.0235 -0.0179
H3 H 0.5784 0.9327 -0.0078
C2 C 0.8254(2) 0.7814(3) 0.00902(9)
C3 C 0.8655(2) 0.8538(4) -0.03208(10)
H4 H 0.8185 0.9189 -0.0572
C4 C 0.9762(2) 0.8291(4) -0.03577(11)
H5 H 1.0035 0.8767 -0.0637
C5 C 1.0449(2) 0.7355(4) 0.00136(12)
H6 H 1.1195 0.7219 -0.0012
C6 C 1.0061(2) 0.6584(3) 0.04357(10)
C7 C 0.89266(19) 0.6786(3) 0.04737(9)
C8 C 1.0875(2) 0.5644(3) 0.08142(12)
H7 H 1.1614 0.5663 0.0770
C9 C 1.1544(2) 0.3952(4) 0.15815(13)
H8 H 1.2274 0.4271 0.1519
H9 H 1.1466 0.2751 0.1540
C10 C 1.1436(2) 0.4457(4) 0.21381(13)
H10 H 1.1819 0.3651 0.2394
H11 H 1.1781 0.5541 0.2225
C11 C 0.9933(2) 0.4328(4) 0.26006(11)
H12 H 1.0482 0.4070 0.2898
C12 C 0.8792(2) 0.4462(3) 0.26774(10)
C13 C 0.8590(3) 0.3968(4) 0.31786(11)
H13 H 0.9187 0.3613 0.3442
C14 C 0.7540(3) 0.4002(4) 0.32834(11)
H14 H 0.7424 0.3667 0.3615
C15 C 0.6640(3) 0.4536(4) 0.28951(11)
H15 H 0.5921 0.4546 0.2966
C16 C 0.6813(2) 0.5050(3) 0.24054(10)
C17 C 0.7885(2) 0.5049(3) 0.22860(9)
C18 C 0.4852(3) 0.5442(5) 0.20725(14)
H16 H 0.4713 0.4307 0.2161
H17 H 0.4337 0.5755 0.1753
H18 H 0.4752 0.6163 0.2358
C19 C 0.8373(2) 1.0851(3) 0.12959(10)
La1 La 0.668504(10) 0.703797(17) 0.109640(5)
N1 N 1.06630(17) 0.4795(3) 0.12016(9)
N2 N 1.02467(18) 0.4531(3) 0.21645(9)
N3 N 0.8593(2) 1.2238(3) 0.13169(10)
N4 N 0.42224(18) 0.6693(3) 0.04877(10)
N5 N 0.5850(2) 1.0334(3) 0.14552(10)
O1 O 0.71741(14) 0.8041(2) 0.01720(7)
O2 O 0.84419(12) 0.6105(2) 0.08447(6)
O3 O 0.79960(14) 0.5628(2) 0.18106(6)
O4 O 0.59833(15) 0.5593(2) 0.19913(7)
O5 O 0.81747(16) 0.9365(2) 0.12792(8)
O6 O 0.44480(17) 0.6962(3) 0.09790(9)
O7 O 0.50153(15) 0.6839(2) 0.02439(7)
O8 O 0.32890(18) 0.6317(4) 0.02483(10)
O9 O 0.61334(18) 0.9133(2) 0.17753(7)
O10 O 0.58405(16) 1.0087(2) 0.09703(7)
O11 O 0.5605(3) 1.1699(3) 0.16128(11)
O12 O 0.60893(18) 0.4105(2) 0.08643(8)
H19 H 0.5998 0.3366 0.1058
H20 H 0.6014 0.3849 0.0565
Zn1 Zn 0.91563(2) 0.45415(3) 0.142640(11)
N3_2 N 0.8593(2) 0.2238(3) 0.13169(10)
Zn1_2 Zn 0.91563(2) 1.45415(3) 0.142640(11)
loop_
_geom_bond_atom_site_label_1
_geom_bond_atom_site_label_2
_geom_bond_site_symmetry_1
_geom_bond_site_symmetry_2
C1 H1 1_555 1_555
H2 C1 1_555 1_555
H3 C1 1_555 1_555
C2 C3 1_555 1_555
C3 H4 1_555 1_555
C4 C3 1_555 1_555
H5 C4 1_555 1_555
C5 C4 1_555 1_555
H6 C5 1_555 1_555
C6 C5 1_555 1_555
C7 C2 1_555 1_555
C8 C6 1_555 1_555
H7 C8 1_555 1_555
C9 H8 1_555 1_555
H9 C9 1_555 1_555
C10 C9 1_555 1_555
H10 C10 1_555 1_555
H11 C10 1_555 1_555
C11 H12 1_555 1_555
C12 C11 1_555 1_555
C13 C12 1_555 1_555
H13 C13 1_555 1_555
C14 C13 1_555 1_555
H14 C14 1_555 1_555
C15 C14 1_555 1_555
H15 C15 1_555 1_555
C16 C15 1_555 1_555
C17 C12 1_555 1_555
C18 H16 1_555 1_555
H17 C18 1_555 1_555
H18 C18 1_555 1_555
C19 N3 1_555 1_555
La1 O1 1_555 1_555
N1 C8 1_555 1_555
N2 C10 1_555 1_555
N3 Zn1_2 1_555 1_555
N4 O6 1_555 1_555
N5 O9 1_555 1_555
O1 C1 1_555 1_555
O2 C7 1_555 1_555
O3 C17 1_555 1_555
O4 C16 1_555 1_555
O5 C19 1_555 1_555
O6 La1 1_555 1_555
O7 La1 1_555 1_555
O8 N4 1_555 1_555
O9 La1 1_555 1_555
O10 La1 1_555 1_555
O11 N5 1_555 1_555
O12 La1 1_555 1_555
H19 O12 1_555 1_555
H20 O12 1_555 1_555
Zn1 N1 1_555 1_555
N3_2 Zn1 1_555 1_555
C2 O1 1_555 1_555
C6 C7 1_555 1_555
C9 N1 1_555 1_555
C11 N2 1_555 1_555
C16 C17 1_555 1_555
C18 O4 1_555 1_555
La1 O2 1_555 1_555
La1 O3 1_555 1_555
La1 O4 1_555 1_555
La1 O5 1_555 1_555
N2 Zn1 1_555 1_555
N4 O7 1_555 1_555
N5 O10 1_555 1_555
O2 Zn1 1_555 1_555
O3 Zn1 1_555 1_555

#END
