
#######################################################################
#
#                 Cambridge Crystallographic Data Centre
#                                CCDC 
#
#######################################################################
#
# If this CIF has been generated from an entry in the Cambridge 
# Structural Database, then it will include bibliographic, chemical, 
# crystal, experimental, refinement or atomic coordinate data resulting 
# from the CCDC's data processing and validation procedures.
#
#######################################################################

data_OGICIS
_symmetry_cell_setting           triclinic
_symmetry_space_group_name_H-M   'P -1'
_symmetry_Int_Tables_number      2
_space_group_name_Hall           '-P 1'
loop_
_symmetry_equiv_pos_site_id
_symmetry_equiv_pos_as_xyz
1 x,y,z
2 -x,-y,-z
_cell_length_a                   9.3497(8)
_cell_length_b                   10.3231(9)
_cell_length_c                   13.5291(12)
_cell_angle_alpha                96.3980(10)
_cell_angle_beta                 90.7290(10)
_cell_angle_gamma                102.0270(10)
_cell_volume                     1268.31
loop_
_atom_site_label
_atom_site_type_symbol
_atom_site_fract_x
_atom_site_fract_y
_atom_site_fract_z
Ni1 Ni 0.57341(4) 0.54167(3) 0.68901(2)
N1 N 0.6313(2) 0.3645(2) 0.63925(15)
N2 N 0.7271(2) 0.2072(2) 0.55846(15)
N3 N 0.7552(2) -0.3954(2) -0.21503(15)
N4 N 0.8914(2) -0.3052(2) -0.08069(16)
O1 O 0.5148(2) 0.8269(2) 0.62458(15)
O2 O 0.4965(2) 0.70307(18) 0.75141(13)
O3 O 0.3165(2) 0.84772(19) 0.84930(13)
O4 O 0.3774(2) 0.47756(19) 0.61190(12)
O5 O 0.1365(2) 0.4562(3) 0.62362(16)
O6 O 0.4176(2) 0.44601(18) 0.79972(12)
O7 O 1.0640(2) -0.0552(2) 0.30127(14)
O8 O 0.6674(2) 0.6391(2) 0.57659(14)
C1 C 0.4651(3) 0.7931(3) 0.70492(19)
C2 C 0.3500(3) 0.8648(3) 0.74796(19)
H1 H 0.3828 0.9593 0.7431
H2 H 0.2607 0.8339 0.7072
C3 C 0.5483(3) 1.0005(3) 0.9033(2)
H3 H 0.5818 1.0008 0.8389
C4 C 0.4129(3) 0.9260(3) 0.92131(19)
C5 C 0.3667(3) 0.9254(3) 1.0177(2)
H4 H 0.2759 0.8737 1.0297
C6 C 0.2596(3) 0.4632(3) 0.6590(2)
C7 C 0.2720(3) 0.4564(4) 0.7697(2)
H5 H 0.2486 0.5357 0.8054
H6 H 0.2019 0.3797 0.7871
C8 C 0.4129(3) 0.5767(3) 0.9610(2)
H7 H 0.3546 0.6284 0.9349
C9 C 0.4526(3) 0.4734(3) 0.90126(18)
C10 C 0.5397(3) 0.3971(3) 0.93999(19)
H8 H 0.5665 0.3279 0.8995
C11 C 0.7243(3) 0.3385(3) 0.57097(19)
H9 H 0.7807 0.4022 0.5360
C12 C 0.5699(3) 0.2433(3) 0.6696(2)
H10 H 0.4986 0.2301 0.7169
C13 C 0.6276(3) 0.1462(3) 0.6213(2)
H11 H 0.6046 0.0559 0.6291
C14 C 0.8113(3) 0.1412(3) 0.48942(18)
C15 C 0.7634(3) 0.0064(3) 0.4591(2)
H12 H 0.6764 -0.0398 0.4821
C16 C 0.8453(3) -0.0595(3) 0.3942(2)
H13 H 0.8147 -0.1505 0.3744
C17 C 0.9721(3) 0.0109(3) 0.35953(19)
C18 C 1.0195(3) 0.1450(3) 0.3886(2)
H14 H 1.1053 0.1914 0.3641
C19 C 0.9392(3) 0.2111(3) 0.4546(2)
H15 H 0.9712 0.3017 0.4752
C20 C 0.7597(3) -0.3249(3) -0.1271(2)
H16 H 0.6810 -0.2926 -0.1004
C21 C 0.8932(3) -0.4196(3) -0.2261(2)
H17 H 0.9237 -0.4666 -0.2818
C22 C 0.9779(3) -0.3653(3) -0.1447(2)
H18 H 1.0757 -0.3678 -0.1338
C23 C 0.9320(3) -0.2403(3) 0.01807(19)
C24 C 0.8788(3) -0.1315(3) 0.0538(2)
H19 H 0.8154 -0.0993 0.0141
C25 C 0.9189(4) -0.0687(3) 0.1494(2)
H20 H 0.8823 0.0053 0.1737
C26 C 1.0131(3) -0.1166(3) 0.20782(19)
C27 C 1.0665(3) -0.2265(3) 0.1725(2)
H21 H 1.1297 -0.2588 0.2123
C28 C 1.0257(3) -0.2892(3) 0.07723(19)
H22 H 1.0612 -0.3639 0.0531
H23 H 0.651(3) 0.600(3) 0.5181(14)
H24 H 0.626(4) 0.708(3) 0.584(3)
O1A O 0.4852(2) 1.1731(2) 1.37542(15)
O2A O 0.5035(2) 1.29693(18) 1.24859(13)
O3A O 0.6835(2) 1.15228(19) 1.15070(13)
C1A C 0.5349(3) 1.2069(3) 1.29508(19)
C2A C 0.6500(3) 1.1352(3) 1.25204(19)
H1A H 0.6172 1.0407 1.2569
H2A H 0.7393 1.1661 1.2928
C3A C 0.4517(3) 0.9995(3) 1.0967(2)
H3A H 0.4182 0.9992 1.1611
C4A C 0.5871(3) 1.0740(3) 1.07869(19)
C5A C 0.6333(3) 1.0746(3) 0.9823(2)
H4A H 0.7241 1.1263 0.9703
O4A O 0.6226(2) 0.52244(19) 1.38810(12)
O5A O 0.8635(2) 0.5438(3) 1.37638(16)
O6A O 0.5824(2) 0.55399(18) 1.20028(12)
C6A C 0.7404(3) 0.5368(3) 1.3410(2)
C7A C 0.7280(3) 0.5436(4) 1.2303(2)
H5A H 0.7514 0.4643 1.1946
H6A H 0.7981 0.6203 1.2129
C8A C 0.5871(3) 0.4233(3) 1.0390(2)
H7A H 0.6454 0.3716 1.0651
C9A C 0.5474(3) 0.5266(3) 1.09874(18)
C10A C 0.4603(3) 0.6029(3) 1.06001(19)
H8A H 0.4335 0.6721 1.1005
Ni1A Ni 0.42659(4) 0.45833(3) 1.31099(2)
N1A N 0.3687(2) 0.6355(2) 1.36075(15)
N2A N 0.2729(2) 0.7928(2) 1.44154(15)
N3A N 0.2448(2) 1.3954(2) 2.21503(15)
N4A N 0.1086(2) 1.3052(2) 2.08069(16)
O7A O -0.0640(2) 1.0552(2) 1.69873(14)
O8A O 0.3326(2) 0.3609(2) 1.42341(14)
C11A C 0.2757(3) 0.6615(3) 1.42903(19)
H9A H 0.2193 0.5978 1.4640
C12A C 0.4301(3) 0.7567(3) 1.3304(2)
H10A H 0.5014 0.7699 1.2831
C13A C 0.3724(3) 0.8538(3) 1.3787(2)
H11A H 0.3954 0.9441 1.3709
C14A C 0.1887(3) 0.8588(3) 1.51058(18)
C15A C 0.2366(3) 0.9936(3) 1.5409(2)
H12A H 0.3236 1.0398 1.5179
C16A C 0.1547(3) 1.0595(3) 1.6058(2)
H13A H 0.1853 1.1505 1.6256
C17A C 0.0279(3) 0.9891(3) 1.64047(19)
C18A C -0.0195(3) 0.8550(3) 1.6114(2)
H14A H -0.1053 0.8086 1.6359
C19A C 0.0608(3) 0.7889(3) 1.5454(2)
H15A H 0.0288 0.6983 1.5248
C20A C 0.2403(3) 1.3249(3) 2.1271(2)
H16A H 0.3190 1.2926 2.1004
C21A C 0.1068(3) 1.4196(3) 2.2261(2)
H17A H 0.0763 1.4666 2.2818
C22A C 0.0221(3) 1.3653(3) 2.1447(2)
H18A H -0.0757 1.3678 2.1338
C23A C 0.0680(3) 1.2403(3) 1.98193(19)
C24A C 0.1212(3) 1.1315(3) 1.9462(2)
H19A H 0.1846 1.0993 1.9859
C25A C 0.0811(4) 1.0687(3) 1.8506(2)
H20A H 0.1177 0.9947 1.8263
C26A C -0.0131(3) 1.1166(3) 1.79218(19)
C27A C -0.0665(3) 1.2265(3) 1.8275(2)
H21A H -0.1297 1.2588 1.7877
C28A C -0.0257(3) 1.2892(3) 1.92277(19)
H22A H -0.0612 1.3639 1.9469
H23A H 0.349(3) 0.400(3) 1.4819(14)
H24A H 0.374(4) 0.292(3) 1.416(3)
Ni1_2 Ni 0.57341(4) -0.45833(3) -0.31099(2)
Ni1A_2 Ni 0.42659(4) 1.45833(3) 1.31099(2)
Ni1A_3 Ni 0.42659(4) 1.45833(3) 2.31099(2)
N3_2 N 0.7552(2) 0.6046(2) 0.78497(15)
N3A_2 N 0.2448(2) 0.3954(2) 1.21503(15)
O2A_2 O 0.5035(2) 0.29693(18) 1.24859(13)
loop_
_geom_bond_atom_site_label_1
_geom_bond_atom_site_label_2
_geom_bond_site_symmetry_1
_geom_bond_site_symmetry_2
Ni1 N1 1_555 1_555
N1 C11 1_555 1_555
N2 C11 1_555 1_555
N3 C20 1_555 1_555
N4 C20 1_555 1_555
O1 C1 1_555 1_555
O2 Ni1 1_555 1_555
O3 C2 1_555 1_555
O4 Ni1 1_555 1_555
O5 C6 1_555 1_555
O6 Ni1 1_555 1_555
O7 C17 1_555 1_555
O8 Ni1 1_555 1_555
C1 O2 1_555 1_555
C2 C1 1_555 1_555
H1 C2 1_555 1_555
H2 C2 1_555 1_555
C3 H3 1_555 1_555
C4 O3 1_555 1_555
C5 C4 1_555 1_555
H4 C5 1_555 1_555
C6 O4 1_555 1_555
C7 O6 1_555 1_555
H5 C7 1_555 1_555
H6 C7 1_555 1_555
C8 H7 1_555 1_555
C9 O6 1_555 1_555
C10 C9 1_555 1_555
H8 C10 1_555 1_555
C11 H9 1_555 1_555
C12 N1 1_555 1_555
H10 C12 1_555 1_555
C13 N2 1_555 1_555
H11 C13 1_555 1_555
C14 N2 1_555 1_555
C15 C14 1_555 1_555
H12 C15 1_555 1_555
C16 C15 1_555 1_555
H13 C16 1_555 1_555
C17 C16 1_555 1_555
C18 C17 1_555 1_555
H14 C18 1_555 1_555
C19 C14 1_555 1_555
H15 C19 1_555 1_555
C20 H16 1_555 1_555
C21 N3 1_555 1_555
H17 C21 1_555 1_555
C22 N4 1_555 1_555
H18 C22 1_555 1_555
C23 N4 1_555 1_555
C24 C23 1_555 1_555
H19 C24 1_555 1_555
C25 C24 1_555 1_555
H20 C25 1_555 1_555
C26 O7 1_555 1_555
C27 C26 1_555 1_555
H21 C27 1_555 1_555
C28 C23 1_555 1_555
H22 C28 1_555 1_555
H23 O8 1_555 1_555
H24 O8 1_555 1_555
O1A C1A 1_555 1_555
O2A C1A 1_555 1_555
O3A C2A 1_555 1_555
C1A C2A 1_555 1_555
C2A H1A 1_555 1_555
H2A C2A 1_555 1_555
C3A C5 1_555 1_555
H3A C3A 1_555 1_555
C4A O3A 1_555 1_555
C5A C3 1_555 1_555
H4A C5A 1_555 1_555
O4A C6A 1_555 1_555
O5A C6A 1_555 1_555
O6A C7A 1_555 1_555
C6A C7A 1_555 1_555
C7A H5A 1_555 1_555
H6A C7A 1_555 1_555
C8A C10 1_555 1_555
H7A C8A 1_555 1_555
C9A O6A 1_555 1_555
C10A C8 1_555 1_555
H8A C10A 1_555 1_555
Ni1A O4A 1_555 1_555
N1A Ni1A 1_555 1_555
N2A C11A 1_555 1_555
N3A C20A 1_555 1_555
N4A C20A 1_555 1_555
O7A C17A 1_555 1_555
O8A Ni1A 1_555 1_555
C11A N1A 1_555 1_555
H9A C11A 1_555 1_555
C12A N1A 1_555 1_555
H10A C12A 1_555 1_555
C13A N2A 1_555 1_555
H11A C13A 1_555 1_555
C14A N2A 1_555 1_555
C15A C14A 1_555 1_555
H12A C15A 1_555 1_555
C16A C15A 1_555 1_555
H13A C16A 1_555 1_555
C17A C16A 1_555 1_555
C18A C17A 1_555 1_555
H14A C18A 1_555 1_555
C19A C14A 1_555 1_555
H15A C19A 1_555 1_555
C20A H16A 1_555 1_555
C21A N3A 1_555 1_555
H17A C21A 1_555 1_555
C22A N4A 1_555 1_555
H18A C22A 1_555 1_555
C23A N4A 1_555 1_555
C24A C23A 1_555 1_555
H19A C24A 1_555 1_555
C25A C24A 1_555 1_555
H20A C25A 1_555 1_555
C26A O7A 1_555 1_555
C27A C26A 1_555 1_555
H21A C27A 1_555 1_555
C28A C23A 1_555 1_555
H22A C28A 1_555 1_555
H23A O8A 1_555 1_555
H24A O8A 1_555 1_555
Ni1_2 N3 1_555 1_555
Ni1A_2 O2A 1_555 1_555
Ni1A_3 N3A 1_555 1_555
N3_2 Ni1 1_555 1_555
N3A_2 Ni1A 1_555 1_555
O2A_2 Ni1A 1_555 1_555
C3 C4 1_555 1_555
C6 C7 1_555 1_555
C8 C9 1_555 1_555
C12 C13 1_555 1_555
C18 C19 1_555 1_555
C21 C22 1_555 1_555
C25 C26 1_555 1_555
C27 C28 1_555 1_555
C3A C4A 1_555 1_555
C4A C5A 1_555 1_555
O6A Ni1A 1_555 1_555
C8A C9A 1_555 1_555
C9A C10A 1_555 1_555
C12A C13A 1_555 1_555
C18A C19A 1_555 1_555
C21A C22A 1_555 1_555
C25A C26A 1_555 1_555
C27A C28A 1_555 1_555

#END
