
#######################################################################
#
#                 Cambridge Crystallographic Data Centre
#                                CCDC 
#
#######################################################################
#
# If this CIF has been generated from an entry in the Cambridge 
# Structural Database, then it will include bibliographic, chemical, 
# crystal, experimental, refinement or atomic coordinate data resulting 
# from the CCDC's data processing and validation procedures.
#
#######################################################################

data_OGIMUN
_symmetry_cell_setting           orthorhombic
_symmetry_space_group_name_H-M   'P c a 21'
_symmetry_Int_Tables_number      29
_space_group_name_Hall           'P 2c -2ac'
loop_
_symmetry_equiv_pos_site_id
_symmetry_equiv_pos_as_xyz
1 x,y,z
2 -x,-y,1/2+z
3 1/2+x,-y,z
4 1/2-x,y,1/2+z
_cell_length_a                   15.9428(12)
_cell_length_b                   5.4341(4)
_cell_length_c                   16.4442(12)
_cell_angle_alpha                90
_cell_angle_beta                 90
_cell_angle_gamma                90
_cell_volume                     1424.64
loop_
_atom_site_label
_atom_site_type_symbol
_atom_site_fract_x
_atom_site_fract_y
_atom_site_fract_z
Ag1 Ag 0.338937(13) 0.24255(3) 0.46413(5)
C1 C 0.42482(19) 0.5572(6) 0.31397(16)
C2 C 0.4733(2) 0.3699(6) 0.28264(18)
H1 H 0.5215 0.3150 0.3114
C3 C 0.4519(3) 0.2618(5) 0.2094(3)
H2 H 0.4848 0.1320 0.1875
C4 C 0.3819(2) 0.3452(7) 0.16849(19)
H3 H 0.3659 0.2696 0.1188
C5 C 0.33499(19) 0.5370(6) 0.1989(2)
H4 H 0.2880 0.5945 0.1690
C6 C 0.35480(19) 0.6474(6) 0.27188(18)
C7 C 0.3033(2) 0.8611(6) 0.30278(18)
H5 H 0.3413 0.9989 0.3166
H6 H 0.2653 0.9177 0.2590
C8 C 0.4979(2) 0.8506(6) 0.4079(2)
H7 H 0.5290 0.9434 0.3693
C9 C 0.49658(19) 0.8884(6) 0.49014(19)
H8 H 0.5264 1.0102 0.5199
C10 C 0.4422(3) 0.7103(6) 0.5211(2)
H9 H 0.4281 0.6925 0.5769
C11 C 0.19796(19) 0.6154(5) 0.38258(19)
H10 H 0.1826 0.4997 0.3419
C12 C 0.16731(17) 0.6255(5) 0.4606(2)
H11 H 0.1268 0.5201 0.4847
C13 C 0.2083(2) 0.8234(7) 0.4968(2)
H12 H 0.2000 0.8757 0.5514
N1 N 0.41287(14) 0.5690(4) 0.46141(17)
N2 N 0.44766(17) 0.6594(5) 0.39144(15)
N3 N 0.26069(15) 0.9288(4) 0.44473(14)
N4 N 0.25324(17) 0.7978(5) 0.37449(16)
Ag1_2 Ag 0.338937(13) 1.24255(3) 0.46413(5)
N3_2 N 0.26069(15) -0.0712(4) 0.44473(14)
B1 B 0.3720(3) 0.2449(6) 0.6774(3)
F1 F 0.30806(14) 0.1480(4) 0.62898(12)
F2 F 0.37455(14) 0.1199(4) 0.75108(13)
F3 F 0.35751(13) 0.4911(4) 0.69155(15)
F4 F 0.44764(16) 0.2156(4) 0.63656(15)
loop_
_geom_bond_atom_site_label_1
_geom_bond_atom_site_label_2
_geom_bond_site_symmetry_1
_geom_bond_site_symmetry_2
Ag1 N1 1_555 1_555
C1 C2 1_555 1_555
C2 H1 1_555 1_555
C3 C2 1_555 1_555
H2 C3 1_555 1_555
C4 C3 1_555 1_555
H3 C4 1_555 1_555
C5 C4 1_555 1_555
H4 C5 1_555 1_555
C6 C1 1_555 1_555
C7 C6 1_555 1_555
H5 C7 1_555 1_555
H6 C7 1_555 1_555
C8 H7 1_555 1_555
C9 C8 1_555 1_555
H8 C9 1_555 1_555
C10 C9 1_555 1_555
H9 C10 1_555 1_555
C11 H10 1_555 1_555
C12 C11 1_555 1_555
H11 C12 1_555 1_555
C13 C12 1_555 1_555
H12 C13 1_555 1_555
N1 C10 1_555 1_555
N2 C1 1_555 1_555
N3 C13 1_555 1_555
N4 C7 1_555 1_555
B1 F1 1_555 1_555
F2 B1 1_555 1_555
F3 B1 1_555 1_555
F4 B1 1_555 1_555
Ag1_2 N3 1_555 1_555
N3_2 Ag1 1_555 1_555
C5 C6 1_555 1_555
C8 N2 1_555 1_555
C11 N4 1_555 1_555
N1 N2 1_555 1_555
N3 N4 1_555 1_555

#END
