
#######################################################################
#
#                 Cambridge Crystallographic Data Centre
#                                CCDC 
#
#######################################################################
#
# If this CIF has been generated from an entry in the Cambridge 
# Structural Database, then it will include bibliographic, chemical, 
# crystal, experimental, refinement or atomic coordinate data resulting 
# from the CCDC's data processing and validation procedures.
#
#######################################################################

data_OGIQAY
_symmetry_cell_setting           monoclinic
_symmetry_space_group_name_H-M   'P 21/c'
_symmetry_Int_Tables_number      14
_space_group_name_Hall           '-P 2ybc'
loop_
_symmetry_equiv_pos_site_id
_symmetry_equiv_pos_as_xyz
1 x,y,z
2 -x,1/2+y,1/2-z
3 -x,-y,-z
4 x,1/2-y,1/2+z
_cell_length_a                   9.5164(9)
_cell_length_b                   5.6425(4)
_cell_length_c                   39.571(3)
_cell_angle_alpha                90
_cell_angle_beta                 93.576(3)
_cell_angle_gamma                90
_cell_volume                     2120.68
loop_
_atom_site_label
_atom_site_type_symbol
_atom_site_fract_x
_atom_site_fract_y
_atom_site_fract_z
Zn1 Zn 0.44291(13) 0.72819(18) 0.09340(3)
C1 C 0.8487(11) 1.2886(15) 0.1388(2)
H1 H 0.7784 1.3717 0.1491
O1 O 0.5771(8) 1.0961(11) 0.13457(16)
C2 C 0.8119(11) 1.0980(14) 0.1168(2)
O2 O 0.6645(10) 1.2353(12) 0.31250(18)
O3 O 0.4581(11) 0.5256(12) 0.13512(17)
H2 H 0.4678 0.3746 0.1334
H3 H 0.4552 0.5899 0.1548
C3 C 0.9150(11) 0.9762(15) 0.1009(2)
H4 H 0.8911 0.8542 0.0858
C4 C 0.4917(11) 0.0989(14) 0.0117(2)
O4 O 0.6294(8) 0.8640(11) 0.09183(16)
O5 O 0.5562(10) 1.5909(12) 0.30909(19)
H5 H 0.5281 1.5512 0.3274
C5 C 0.8556(12) 1.6242(15) 0.2102(2)
N1 N 1.0310(10) 1.5367(13) 0.16675(19)
H6 H 1.1190 1.5526 0.1727
C6 C 1.1720(12) 0.8886(18) 0.0934(3)
O6 O 1.2973(9) 0.9453(13) 0.1028(2)
C7 C 1.0581(11) 1.0407(16) 0.1079(2)
C8 C 0.6639(10) 1.0159(15) 0.1146(2)
C9 C 0.9907(11) 1.3543(16) 0.1454(2)
C10 C 1.0928(11) 1.2266(14) 0.1295(2)
H7 H 1.1869 1.2679 0.1335
C11 C 0.6064(12) 0.2392(16) 0.0243(3)
H8 H 0.6964 0.2078 0.0175
N2 N 0.4560(10) 0.4797(13) 0.0575(2)
C12 C 0.6442(14) 1.426(2) 0.2985(3)
C13 C 0.7141(12) 1.4969(15) 0.2675(2)
C14 C 0.9325(13) 1.7039(15) 0.1797(3)
H9 H 0.8629 1.7425 0.1616
H10 H 0.9832 1.8485 0.1857
O7 O 1.1427(10) 0.7294(15) 0.0731(3)
C15 C 0.3477(12) 0.3519(19) 0.0458(3)
H11 H 0.2586 0.3877 0.0528
C16 C 0.6827(12) 1.7112(16) 0.2513(2)
H12 H 0.6180 1.8150 0.2600
C17 C 0.8851(12) 1.4090(16) 0.2280(2)
H13 H 0.9546 1.3084 0.2208
C18 C 0.7498(13) 1.7684(14) 0.2219(3)
H14 H 0.7233 1.9049 0.2099
C19 C 0.8124(12) 1.3461(17) 0.2560(2)
H15 H 0.8306 1.2021 0.2668
C20 C 0.5861(14) 0.4220(17) 0.0466(3)
H16 H 0.6638 0.5101 0.0546
C21 C 0.3633(15) 0.156(2) 0.0223(3)
H17 H 0.2845 0.0703 0.0145
C4B C 0.5083(11) -0.0989(14) -0.0117(2)
C11B C 0.3936(12) -0.2392(16) -0.0243(3)
H8B H 0.3036 -0.2078 -0.0175
N2B N 0.5440(10) -0.4797(13) -0.0575(2)
C15B C 0.6523(12) -0.3519(19) -0.0458(3)
H11B H 0.7414 -0.3877 -0.0528
C20B C 0.4139(14) -0.4220(17) -0.0466(3)
H16B H 0.3362 -0.5101 -0.0546
C21B C 0.6367(15) -0.156(2) -0.0223(3)
H17B H 0.7155 -0.0703 -0.0145
Zn1B Zn 0.55709(13) -0.72819(18) -0.09340(3)
C1B C 0.1513(11) -1.2886(15) -0.1388(2)
H1B H 0.2216 -1.3717 -0.1491
O1B O 0.4229(8) -1.0961(11) -0.13457(16)
C2B C 0.1881(11) -1.0980(14) -0.1168(2)
O2B O 0.3355(10) -1.2353(12) -0.31250(18)
O3B O 0.5419(11) -0.5256(12) -0.13512(17)
H2B H 0.5322 -0.3746 -0.1334
H3B H 0.5448 -0.5899 -0.1548
C3B C 0.0850(11) -0.9762(15) -0.1009(2)
H4B H 0.1089 -0.8542 -0.0858
O4B O 0.3706(8) -0.8640(11) -0.09183(16)
O5B O 0.4438(10) -1.5909(12) -0.30909(19)
H5B H 0.4719 -1.5512 -0.3274
C5B C 0.1444(12) -1.6242(15) -0.2102(2)
N1B N -0.0310(10) -1.5367(13) -0.16675(19)
H6B H -0.1190 -1.5526 -0.1727
C6B C -0.1720(12) -0.8886(18) -0.0934(3)
O6B O -0.2973(9) -0.9453(13) -0.1028(2)
C7B C -0.0581(11) -1.0407(16) -0.1079(2)
C8B C 0.3361(10) -1.0159(15) -0.1146(2)
C9B C 0.0093(11) -1.3543(16) -0.1454(2)
C10B C -0.0928(11) -1.2266(14) -0.1295(2)
H7B H -0.1869 -1.2679 -0.1335
C12B C 0.3558(14) -1.426(2) -0.2985(3)
C13B C 0.2859(12) -1.4969(15) -0.2675(2)
C14B C 0.0675(13) -1.7039(15) -0.1797(3)
H9B H 0.1371 -1.7425 -0.1616
H10B H 0.0168 -1.8485 -0.1857
O7B O -0.1427(10) -0.7294(15) -0.0731(3)
C16B C 0.3173(12) -1.7112(16) -0.2513(2)
H12B H 0.3820 -1.8150 -0.2600
C17B C 0.1149(12) -1.4090(16) -0.2280(2)
H13B H 0.0454 -1.3084 -0.2208
C18B C 0.2502(13) -1.7684(14) -0.2219(3)
H14B H 0.2767 -1.9049 -0.2099
C19B C 0.1876(12) -1.3461(17) -0.2560(2)
H15B H 0.1694 -1.2021 -0.2668
Zn1_2 Zn 1.44291(13) 0.72819(18) 0.09340(3)
Zn1B_2 Zn -0.44291(13) -0.72819(18) -0.09340(3)
O6_2 O 0.2973(9) 0.9453(13) 0.1028(2)
O6B_2 O 0.7027(9) -0.9453(13) -0.1028(2)
O8 O 0.918(4) 0.465(5) 0.0372(7)
H18 H 0.9149 0.3606 0.0214
H19 H 0.9962 0.5297 0.0439
O9 O 0.0000 0.0000 0.0000
H20 H -0.0278 -0.1308 0.0085
H20B H 0.0278 0.1308 -0.0085
H21? H -0.0282 0.0389 -0.0203
loop_
_geom_bond_atom_site_label_1
_geom_bond_atom_site_label_2
_geom_bond_site_symmetry_1
_geom_bond_site_symmetry_2
Zn1 O3 1_555 1_555
C1 H1 1_555 1_555
O1 C8 1_555 1_555
C2 C1 1_555 1_555
O2 C12 1_555 1_555
O3 H2 1_555 1_555
H3 O3 1_555 1_555
C3 C2 1_555 1_555
H4 C3 1_555 1_555
C4 C11 1_555 1_555
O4 Zn1 1_555 1_555
O5 H5 1_555 1_555
C5 C14 1_555 1_555
N1 H6 1_555 1_555
C6 O6 1_555 1_555
O6 Zn1_2 1_555 1_555
C7 C3 1_555 1_555
C8 C2 1_555 1_555
C9 C1 1_555 1_555
C10 C7 1_555 1_555
H7 C10 1_555 1_555
C11 H8 1_555 1_555
N2 Zn1 1_555 1_555
C12 O5 1_555 1_555
C13 C12 1_555 1_555
C14 N1 1_555 1_555
H9 C14 1_555 1_555
H10 C14 1_555 1_555
O7 C6 1_555 1_555
C15 N2 1_555 1_555
H11 C15 1_555 1_555
C16 C13 1_555 1_555
H12 C16 1_555 1_555
C17 C5 1_555 1_555
H13 C17 1_555 1_555
C18 C5 1_555 1_555
H14 C18 1_555 1_555
C19 C13 1_555 1_555
H15 C19 1_555 1_555
C20 C11 1_555 1_555
H16 C20 1_555 1_555
C21 C4 1_555 1_555
H17 C21 1_555 1_555
O8 H18 1_555 1_555
H19 O8 1_555 1_555
O9 H20 1_555 1_555
C4B C4 1_555 1_555
C11B C4B 1_555 1_555
H8B C11B 1_555 1_555
N2B C15B 1_555 1_555
C15B H11B 1_555 1_555
C20B C11B 1_555 1_555
H16B C20B 1_555 1_555
C21B C4B 1_555 1_555
H17B C21B 1_555 1_555
Zn1B N2B 1_555 1_555
C1B H1B 1_555 1_555
O1B C8B 1_555 1_555
C2B C1B 1_555 1_555
O2B C12B 1_555 1_555
O3B Zn1B 1_555 1_555
H2B O3B 1_555 1_555
H3B O3B 1_555 1_555
C3B C2B 1_555 1_555
H4B C3B 1_555 1_555
O4B Zn1B 1_555 1_555
O5B H5B 1_555 1_555
C5B C14B 1_555 1_555
N1B H6B 1_555 1_555
C6B O6B 1_555 1_555
O6B Zn1B_2 1_555 1_555
C7B C3B 1_555 1_555
C8B C2B 1_555 1_555
C9B C1B 1_555 1_555
C10B C7B 1_555 1_555
H7B C10B 1_555 1_555
C12B O5B 1_555 1_555
C13B C12B 1_555 1_555
C14B N1B 1_555 1_555
H9B C14B 1_555 1_555
H10B C14B 1_555 1_555
O7B C6B 1_555 1_555
C16B C13B 1_555 1_555
H12B C16B 1_555 1_555
C17B C5B 1_555 1_555
H13B C17B 1_555 1_555
C18B C5B 1_555 1_555
H14B C18B 1_555 1_555
C19B C13B 1_555 1_555
H15B C19B 1_555 1_555
O6_2 Zn1 1_555 1_555
O6B_2 Zn1B 1_555 1_555
H20B O9 1_555 1_555
O4 C8 1_555 1_555
N1 C9 1_555 1_555
C6 C7 1_555 1_555
C9 C10 1_555 1_555
N2 C20 1_555 1_555
C15 C21 1_555 1_555
C16 C18 1_555 1_555
C17 C19 1_555 1_555
N2B C20B 1_555 1_555
C15B C21B 1_555 1_555
O4B C8B 1_555 1_555
N1B C9B 1_555 1_555
C6B C7B 1_555 1_555
C9B C10B 1_555 1_555
C16B C18B 1_555 1_555
C17B C19B 1_555 1_555

#END
