
#######################################################################
#
#                 Cambridge Crystallographic Data Centre
#                                CCDC 
#
#######################################################################
#
# If this CIF has been generated from an entry in the Cambridge 
# Structural Database, then it will include bibliographic, chemical, 
# crystal, experimental, refinement or atomic coordinate data resulting 
# from the CCDC's data processing and validation procedures.
#
#######################################################################

data_OGIZOU
_symmetry_cell_setting           monoclinic
_symmetry_space_group_name_H-M   'P 2/n'
_symmetry_Int_Tables_number      13
_space_group_name_Hall           '-P 2yac'
loop_
_symmetry_equiv_pos_site_id
_symmetry_equiv_pos_as_xyz
1 x,y,z
2 1/2-x,y,1/2-z
3 -x,-y,-z
4 1/2+x,-y,1/2+z
_cell_length_a                   13.4846(13)
_cell_length_b                   6.6387(11)
_cell_length_c                   16.759(2)
_cell_angle_alpha                90
_cell_angle_beta                 111.391(8)
_cell_angle_gamma                90
_cell_volume                     1396.92
loop_
_atom_site_label
_atom_site_type_symbol
_atom_site_fract_x
_atom_site_fract_y
_atom_site_fract_z
U1 U 0.74492(5) 0.48406(12) 0.61674(4)
Gd1 Gd 0.7500 0.7781(3) 0.2500
N1 N 0.7620(14) 1.002(3) 0.3776(9)
N2 N 0.9150(14) 0.999(2) 0.2902(10)
O1 O 0.8318(12) 0.618(3) 0.3841(8)
O2 O 0.8260(12) 0.559(3) 0.5136(9)
O3 O 0.8987(10) 0.616(2) 0.2377(8)
O4 O 1.0688(13) 0.535(3) 0.3081(8)
O5 O 0.7414(11) 0.219(3) 0.5912(9)
O6 O 0.7453(12) 0.750(3) 0.6405(10)
O7 O 0.6100(11) 0.532(2) 0.4732(9)
O8 O 0.4390(11) 0.542(3) 0.3913(8)
O9 O 0.7500 0.392(4) 0.7500
C1 C 0.8698(16) 1.096(4) 0.4164(12)
H1 H 0.9195 0.9978 0.4525
H2 H 0.8664 1.2083 0.4521
C2 C 0.9093(18) 1.168(4) 0.3481(13)
H3 H 0.8618 1.2718 0.3142
H4 H 0.9794 1.2272 0.3750
C3 C 0.9246(16) 1.084(4) 0.2110(12)
H5 H 0.9513 0.9801 0.1834
H6 H 0.9768 1.1920 0.2273
C4 C 0.6794(17) 1.167(4) 0.3538(13)
H7 H 0.7039 1.2793 0.3291
H8 H 0.6679 1.2135 0.4046
C5 C 0.7426(16) 0.867(4) 0.4408(13)
H9 H 0.6670 0.8384 0.4231
H10 H 0.7655 0.9321 0.4964
C6 C 0.8045(16) 0.669(4) 0.4474(12)
C7 C 1.0094(18) 0.868(4) 0.3315(13)
H11 H 1.0215 0.8529 0.3919
H12 H 1.0721 0.9302 0.3266
C8 C 0.9904(16) 0.663(3) 0.2881(11)
C9 C 0.513(2) 0.520(3) 0.4606(14)
U1A U 0.75508(5) 0.48406(12) -0.11674(4)
U1B U 1.25508(5) 0.51594(12) 0.38326(4)
U1B_2 U 0.25508(5) 0.51594(12) 0.38326(4)
U1A_2 U 0.75508(5) 0.48406(12) 0.88326(4)
U1C U 0.24492(5) 0.51594(12) 0.11674(4)
N1A N 0.7380(14) 1.002(3) 0.1224(9)
N2A N 0.5850(14) 0.999(2) 0.2098(10)
O1A O 0.6682(12) 0.618(3) 0.1159(8)
O2A O 0.6740(12) 0.559(3) -0.0136(9)
O3A O 0.6013(10) 0.616(2) 0.2623(8)
O4A O 0.4312(13) 0.535(3) 0.1919(8)
O4B O 0.9312(13) 0.465(3) 0.6919(8)
O4C O 0.5688(13) 0.465(3) -0.1919(8)
O5A O 0.7586(11) 0.219(3) -0.0912(9)
O6A O 0.7547(12) 0.750(3) -0.1405(10)
O7B O 0.3900(11) 0.468(2) 0.5268(9)
O7A O 0.8900(11) 0.532(2) 0.0268(9)
O8B O 0.5610(11) 0.458(3) 0.6087(8)
O8C O 0.9390(11) 0.458(3) -0.1087(8)
O9_2 O 0.7500 0.392(4) -0.2500
C1A C 0.6302(16) 1.096(4) 0.0836(12)
H1A H 0.5805 0.9978 0.0475
H2A H 0.6336 1.2083 0.0479
C2A C 0.5907(18) 1.168(4) 0.1519(13)
H3A H 0.6382 1.2718 0.1858
H4A H 0.5206 1.2272 0.1250
C3A C 0.5754(16) 1.084(4) 0.2890(12)
H5A H 0.5487 0.9801 0.3166
H6A H 0.5232 1.1920 0.2727
C4A C 0.8206(17) 1.167(4) 0.1462(13)
H7A H 0.7961 1.2793 0.1709
H8A H 0.8321 1.2135 0.0954
C5A C 0.7574(16) 0.867(4) 0.0592(13)
H9A H 0.8330 0.8384 0.0769
H10A H 0.7345 0.9321 0.0036
C6A C 0.6955(16) 0.669(4) 0.0526(12)
C7A C 0.4906(18) 0.868(4) 0.1685(13)
H11A H 0.4785 0.8529 0.1081
H12A H 0.4279 0.9302 0.1734
C8A C 0.5096(16) 0.663(3) 0.2119(11)
C9B C 0.487(2) 0.480(3) 0.5394(14)
O10 O 0.670(3) 1.012(4) 0.7253(18)
loop_
_geom_bond_atom_site_label_1
_geom_bond_atom_site_label_2
_geom_bond_site_symmetry_1
_geom_bond_site_symmetry_2
U1 O2 1_555 1_555
Gd1 N1 1_555 1_555
N1 C1 1_555 1_555
N2 Gd1 1_555 1_555
O1 Gd1 1_555 1_555
O2 C6 1_555 1_555
O3 Gd1 1_555 1_555
O4 C8 1_555 1_555
O5 U1 1_555 1_555
O6 U1 1_555 1_555
O7 U1 1_555 1_555
O8 C9 1_555 1_555
O9 U1 1_555 1_555
C1 H1 1_555 1_555
H2 C1 1_555 1_555
C2 N2 1_555 1_555
H3 C2 1_555 1_555
H4 C2 1_555 1_555
C3 N2 1_555 1_555
H5 C3 1_555 1_555
H6 C3 1_555 1_555
C4 N1 1_555 1_555
H7 C4 1_555 1_555
H8 C4 1_555 1_555
C5 N1 1_555 1_555
H9 C5 1_555 1_555
H10 C5 1_555 1_555
C6 O1 1_555 1_555
C7 N2 1_555 1_555
H11 C7 1_555 1_555
H12 C7 1_555 1_555
C8 O3 1_555 1_555
C9 O7 1_555 1_555
U1A O2A 1_555 1_555
U1B O4 1_555 1_555
U1B_2 O8 1_555 1_555
U1A_2 O9 1_555 1_555
U1C O4A 1_555 1_555
N1A Gd1 1_555 1_555
N2A Gd1 1_555 1_555
O1A Gd1 1_555 1_555
O2A C6A 1_555 1_555
O3A Gd1 1_555 1_555
O4A C8A 1_555 1_555
O4B U1 1_555 1_555
O4C U1A 1_555 1_555
O5A U1A 1_555 1_555
O6A U1A 1_555 1_555
O7B U1B_2 1_555 1_555
O7A U1A 1_555 1_555
O8B U1 1_555 1_555
O8C U1A 1_555 1_555
O9_2 U1A 1_555 1_555
C1A N1A 1_555 1_555
H1A C1A 1_555 1_555
H2A C1A 1_555 1_555
C2A N2A 1_555 1_555
H3A C2A 1_555 1_555
H4A C2A 1_555 1_555
C3A C4 1_555 1_555
H5A C3A 1_555 1_555
H6A C3A 1_555 1_555
C4A C3 1_555 1_555
H7A C4A 1_555 1_555
H8A C4A 1_555 1_555
C5A N1A 1_555 1_555
H9A C5A 1_555 1_555
H10A C5A 1_555 1_555
C6A O1A 1_555 1_555
C7A N2A 1_555 1_555
H11A C7A 1_555 1_555
H12A C7A 1_555 1_555
C8A O3A 1_555 1_555
C9B C9 1_555 1_555
C1 C2 1_555 1_555
C5 C6 1_555 1_555
C7 C8 1_555 1_555
N1A C4A 1_555 1_555
N2A C3A 1_555 1_555
O7B C9B 1_555 1_555
O8B C9B 1_555 1_555
C1A C2A 1_555 1_555
C5A C6A 1_555 1_555
C7A C8A 1_555 1_555

#END
