
#######################################################################
#
#                 Cambridge Crystallographic Data Centre
#                                CCDC 
#
#######################################################################
#
# If this CIF has been generated from an entry in the Cambridge 
# Structural Database, then it will include bibliographic, chemical, 
# crystal, experimental, refinement or atomic coordinate data resulting 
# from the CCDC's data processing and validation procedures.
#
#######################################################################

data_OGOTOU
_symmetry_cell_setting           monoclinic
_symmetry_space_group_name_H-M   'P 21/c'
_symmetry_Int_Tables_number      14
_space_group_name_Hall           '-P 2ybc'
loop_
_symmetry_equiv_pos_site_id
_symmetry_equiv_pos_as_xyz
1 x,y,z
2 -x,1/2+y,1/2-z
3 -x,-y,-z
4 x,1/2-y,1/2+z
_cell_length_a                   25.187(4)
_cell_length_b                   10.8273(17)
_cell_length_c                   21.822(3)
_cell_angle_alpha                90
_cell_angle_beta                 93.360(10)
_cell_angle_gamma                90
_cell_volume                     5940.79
loop_
_atom_site_label
_atom_site_type_symbol
_atom_site_fract_x
_atom_site_fract_y
_atom_site_fract_z
Cu1 Cu 0.07915(3) 0.28340(7) 0.34197(3)
N1 N 0.0075(2) 0.3637(5) 0.3579(2)
N2 N 0.0771(2) 0.2571(5) 0.4282(2)
N3 N 0.1499(2) 0.1938(5) 0.3581(2)
N4 N 0.0773(2) 0.1980(5) 0.7522(2)
N5 N 0.1082(2) 0.5392(5) 0.4100(2)
N6 N 0.0567(2) -0.0142(5) 0.3578(3)
C1 C -0.0267(3) 0.4189(6) 0.3177(3)
C2 C -0.0746(3) 0.4672(6) 0.3345(3)
C3 C -0.0872(3) 0.4635(6) 0.3958(3)
C4 C -0.0512(3) 0.4086(6) 0.4380(3)
C5 C -0.0043(3) 0.3581(6) 0.4181(3)
C6 C 0.0353(2) 0.2958(6) 0.4591(3)
C7 C 0.0334(3) 0.2777(6) 0.5216(3)
C8 C 0.0768(3) 0.2222(6) 0.5545(3)
C9 C 0.1206(3) 0.1845(6) 0.5219(3)
C10 C 0.1190(3) 0.2040(6) 0.4599(3)
C11 C 0.1611(3) 0.1659(6) 0.4182(3)
C12 C 0.2077(3) 0.1065(6) 0.4377(3)
C13 C 0.2450(3) 0.0760(6) 0.3962(3)
C14 C 0.2327(3) 0.1045(6) 0.3345(3)
C15 C 0.1859(3) 0.1610(6) 0.3176(3)
C16 C 0.0761(3) 0.2087(6) 0.6229(3)
C17 C 0.0337(3) 0.2509(6) 0.6553(3)
C18 C 0.0352(2) 0.2463(6) 0.7190(3)
C19 C 0.1175(3) 0.1524(6) 0.7216(3)
C20 C 0.1188(3) 0.1577(6) 0.6577(3)
O1 O 0.1214(2) 0.4862(5) 0.3604(2)
O2 O 0.1276(2) 0.5023(5) 0.4607(2)
O3 O 0.0766(2) 0.6274(5) 0.4072(2)
O4 O 0.0402(2) 0.0679(5) 0.3199(2)
O5 O 0.0925(2) -0.0878(5) 0.3450(3)
O6 O 0.0374(2) -0.0196(5) 0.4093(2)
H7 H -0.0173 0.4268 0.2763
H8 H -0.0990 0.5023 0.3045
H9 H -0.1199 0.4958 0.4082
H10 H -0.0579 0.4071 0.4804
H11 H 0.0027 0.3022 0.5418
H12 H 0.1507 0.1465 0.5423
H13 H 0.2137 0.0858 0.4798
H14 H 0.2778 0.0382 0.4089
H15 H 0.2566 0.0837 0.3041
H16 H 0.1779 0.1805 0.2757
H17 H 0.0034 0.2849 0.6332
H18 H 0.0061 0.2784 0.7398
H19 H 0.1463 0.1146 0.7444
H20 H 0.1487 0.1267 0.6380
Cu1C Cu 0.07915(3) 0.21660(7) 0.84197(3)
N4C N 0.0773(2) 0.3020(5) 0.2522(2)
Cu2 Cu 0.41757(3) 0.25404(8) 0.39811(3)
N7 N 0.3423(2) 0.3168(5) 0.4109(2)
N8 N 0.4168(2) 0.2380(5) 0.4860(2)
N9 N 0.4929(2) 0.1867(5) 0.4177(2)
N10 N 0.4181(2) 0.2312(6) 0.8074(2)
N11 N 0.4453(2) 0.5553(6) 0.3836(3)
N12 N 0.3891(2) -0.0277(6) 0.3474(3)
C21 C 0.3061(3) 0.3645(6) 0.3694(3)
C22 C 0.2564(3) 0.4077(7) 0.3853(3)
C23 C 0.2442(3) 0.4034(7) 0.4457(3)
C24 C 0.2808(3) 0.3575(6) 0.4896(3)
C25 C 0.3292(3) 0.3140(6) 0.4702(3)
C26 C 0.3723(3) 0.2665(6) 0.5145(3)
C27 C 0.3698(3) 0.2564(6) 0.5773(3)
C28 C 0.4165(3) 0.2230(6) 0.6127(3)
C29 C 0.4619(3) 0.1940(6) 0.5821(3)
C30 C 0.4606(3) 0.2004(6) 0.5185(3)
C31 C 0.5051(3) 0.1705(6) 0.4788(3)
C32 C 0.5524(3) 0.1218(7) 0.5012(3)
C33 C 0.5909(3) 0.0934(7) 0.4601(3)
C34 C 0.5792(3) 0.1115(7) 0.3980(3)
C35 C 0.5296(3) 0.1576(6) 0.3787(3)
C36 C 0.4172(3) 0.2203(6) 0.6781(3)
C37 C 0.3781(3) 0.2867(7) 0.7097(3)
C38 C 0.3790(3) 0.2902(7) 0.7741(3)
C39 C 0.4539(3) 0.1644(7) 0.7795(3)
C40 C 0.4546(3) 0.1587(7) 0.7162(3)
O7 O 0.4515(2) 0.4652(5) 0.4185(2)
O8 O 0.4039(3) 0.6189(9) 0.3844(3)
O9 O 0.4800(2) 0.5849(5) 0.3474(2)
O10 O 0.3773(2) 0.0451(5) 0.3896(2)
O11 O 0.3535(2) -0.0701(6) 0.3125(3)
O12 O 0.4364(2) -0.0527(6) 0.3411(3)
H21 H 0.3147 0.3664 0.3276
H22 H 0.2322 0.4408 0.3545
H23 H 0.2102 0.4309 0.4565
H24 H 0.2734 0.3563 0.5318
H25 H 0.3373 0.2706 0.5963
H26 H 0.4935 0.1690 0.6047
H27 H 0.5587 0.1076 0.5440
H28 H 0.6245 0.0612 0.4741
H29 H 0.6047 0.0919 0.3691
H30 H 0.5219 0.1707 0.3361
H31 H 0.3504 0.3289 0.6870
H32 H 0.3524 0.3335 0.7945
H33 H 0.4798 0.1190 0.8036
H34 H 0.4816 0.1113 0.6986
Cu2C Cu 0.41757(3) 0.24596(8) 0.89811(3)
N10C N 0.4181(2) 0.2688(6) 0.3074(2)
Cu3 Cu 0.75311(3) 0.26987(8) 0.38055(4)
N13 N 0.6795(2) 0.3403(6) 0.3914(2)
N14 N 0.7536(2) 0.2684(5) 0.4688(2)
N15 N 0.8286(2) 0.2026(6) 0.4008(2)
N16 N 0.7519(2) 0.2361(6) 0.7907(2)
N17 N 0.7745(2) 0.5708(5) 0.3539(3)
N18 N 0.7313(2) -0.0168(6) 0.4157(3)
C41 C 0.6440(3) 0.3847(6) 0.3483(3)
C42 C 0.5960(3) 0.4369(6) 0.3623(3)
C43 C 0.5840(3) 0.4449(6) 0.4238(3)
C44 C 0.6202(3) 0.4017(6) 0.4695(3)
C45 C 0.6672(3) 0.3505(6) 0.4518(3)
C46 C 0.7095(3) 0.3032(6) 0.4955(3)
C47 C 0.7076(3) 0.2977(6) 0.5588(3)
C48 C 0.7533(2) 0.2595(6) 0.5947(3)
C49 C 0.7986(3) 0.2244(6) 0.5655(3)
C50 C 0.7972(3) 0.2307(6) 0.5018(3)
C51 C 0.8399(3) 0.1897(6) 0.4626(3)
C52 C 0.8879(3) 0.1414(6) 0.4862(3)
C53 C 0.9259(3) 0.1044(6) 0.4450(3)
C54 C 0.9144(3) 0.1189(6) 0.3826(3)
C55 C 0.8652(3) 0.1666(6) 0.3626(3)
C56 C 0.7520(2) 0.2515(5) 0.6630(3)
C57 C 0.7137(3) 0.3115(6) 0.6948(3)
C58 C 0.7142(3) 0.3020(7) 0.7577(3)
C59 C 0.7884(3) 0.1759(6) 0.7598(3)
C60 C 0.7902(3) 0.1828(6) 0.6970(3)
O13 O 0.7831(2) 0.4849(5) 0.3918(2)
O14 O 0.7307(3) 0.6216(8) 0.3512(4)
O15 O 0.8100(3) 0.6057(6) 0.3217(3)
O16 O 0.7194(2) 0.0518(5) 0.3705(2)
O17 O 0.7640(3) -0.1015(7) 0.4111(3)
O18 O 0.7101(2) -0.0005(6) 0.4643(2)
H35 H 0.6526 0.3810 0.3065
H36 H 0.5714 0.4652 0.3308
H37 H 0.5512 0.4804 0.4343
H38 H 0.6131 0.4082 0.5117
H39 H 0.6759 0.3185 0.5779
H40 H 0.8294 0.1952 0.5882
H41 H 0.8947 0.1330 0.5293
H42 H 0.9592 0.0713 0.4595
H43 H 0.9396 0.0966 0.3538
H44 H 0.8570 0.1730 0.3197
H45 H 0.6876 0.3608 0.6732
H46 H 0.6874 0.3433 0.7787
H47 H 0.8143 0.1264 0.7817
H48 H 0.8180 0.1426 0.6772
Cu3C Cu 0.75311(3) 0.23013(8) 0.88055(4)
N16C N 0.7519(2) 0.2639(6) 0.2907(2)
O19 O 0.0902(2) 0.6834(6) 0.2703(2)
H1 H 0.0986 0.6267 0.2937
H2 H 0.0904 0.7486 0.2894
O20 O 0.4199(2) 0.7183(5) 0.2506(2)
H3 H 0.4359 0.6676 0.2726
H4 H 0.4204 0.7856 0.2678
O21 O 0.7471(2) 0.8657(6) 0.2705(2)
H5 H 0.7438 0.7980 0.2878
H6 H 0.7402 0.9222 0.2945
loop_
_geom_bond_atom_site_label_1
_geom_bond_atom_site_label_2
_geom_bond_site_symmetry_1
_geom_bond_site_symmetry_2
Cu1 N1 1_555 1_555
Cu2 N7 1_555 1_555
Cu3 N13 1_555 1_555
N1 C1 1_555 1_555
N2 Cu1 1_555 1_555
N3 Cu1 1_555 1_555
N4 C18 1_555 1_555
N5 O1 1_555 1_555
N6 O4 1_555 1_555
N7 C21 1_555 1_555
N8 Cu2 1_555 1_555
N9 Cu2 1_555 1_555
N10 C38 1_555 1_555
N11 O7 1_555 1_555
N12 O10 1_555 1_555
N13 C41 1_555 1_555
N14 Cu3 1_555 1_555
N15 Cu3 1_555 1_555
N16 C58 1_555 1_555
N17 O13 1_555 1_555
N18 O16 1_555 1_555
C1 C2 1_555 1_555
C2 C3 1_555 1_555
C3 C4 1_555 1_555
C4 C5 1_555 1_555
C5 N1 1_555 1_555
C6 N2 1_555 1_555
C7 C6 1_555 1_555
C8 C7 1_555 1_555
C9 C8 1_555 1_555
C10 N2 1_555 1_555
C11 N3 1_555 1_555
C12 C11 1_555 1_555
C13 C12 1_555 1_555
C14 C13 1_555 1_555
C15 N3 1_555 1_555
C16 C8 1_555 1_555
C17 C16 1_555 1_555
C18 C17 1_555 1_555
C19 N4 1_555 1_555
C20 C16 1_555 1_555
C21 C22 1_555 1_555
C22 C23 1_555 1_555
C23 C24 1_555 1_555
C24 C25 1_555 1_555
C25 N7 1_555 1_555
C26 N8 1_555 1_555
C27 C26 1_555 1_555
C28 C27 1_555 1_555
C29 C28 1_555 1_555
C30 N8 1_555 1_555
C31 N9 1_555 1_555
C32 C31 1_555 1_555
C33 C32 1_555 1_555
C34 C33 1_555 1_555
C35 N9 1_555 1_555
C36 C28 1_555 1_555
C37 C36 1_555 1_555
C38 C37 1_555 1_555
C39 N10 1_555 1_555
C40 C36 1_555 1_555
C41 C42 1_555 1_555
C42 C43 1_555 1_555
C43 C44 1_555 1_555
C44 C45 1_555 1_555
C45 N13 1_555 1_555
C46 N14 1_555 1_555
C47 C46 1_555 1_555
C48 C47 1_555 1_555
C49 C48 1_555 1_555
C50 N14 1_555 1_555
C51 N15 1_555 1_555
C52 C51 1_555 1_555
C53 C52 1_555 1_555
C54 C53 1_555 1_555
C55 N15 1_555 1_555
C56 C48 1_555 1_555
C57 C56 1_555 1_555
C58 C57 1_555 1_555
C59 N16 1_555 1_555
C60 C56 1_555 1_555
O1 Cu1 1_555 1_555
O2 N5 1_555 1_555
O3 N5 1_555 1_555
O4 Cu1 1_555 1_555
O5 N6 1_555 1_555
O6 N6 1_555 1_555
O7 Cu2 1_555 1_555
O8 N11 1_555 1_555
O9 N11 1_555 1_555
O10 Cu2 1_555 1_555
O11 N12 1_555 1_555
O12 N12 1_555 1_555
O13 Cu3 1_555 1_555
O14 N17 1_555 1_555
O15 N17 1_555 1_555
O16 Cu3 1_555 1_555
O17 N18 1_555 1_555
O18 N18 1_555 1_555
O19 H1 1_555 1_555
O20 H3 1_555 1_555
O21 H5 1_555 1_555
H2 O19 1_555 1_555
H4 O20 1_555 1_555
H6 O21 1_555 1_555
H7 C1 1_555 1_555
H8 C2 1_555 1_555
H9 C3 1_555 1_555
H10 C4 1_555 1_555
H11 C7 1_555 1_555
H12 C9 1_555 1_555
H13 C12 1_555 1_555
H14 C13 1_555 1_555
H15 C14 1_555 1_555
H16 C15 1_555 1_555
H17 C17 1_555 1_555
H18 C18 1_555 1_555
H19 C19 1_555 1_555
H20 C20 1_555 1_555
H21 C21 1_555 1_555
H22 C22 1_555 1_555
H23 C23 1_555 1_555
H24 C24 1_555 1_555
H25 C27 1_555 1_555
H26 C29 1_555 1_555
H27 C32 1_555 1_555
H28 C33 1_555 1_555
H29 C34 1_555 1_555
H30 C35 1_555 1_555
H31 C37 1_555 1_555
H32 C38 1_555 1_555
H33 C39 1_555 1_555
H34 C40 1_555 1_555
H35 C41 1_555 1_555
H36 C42 1_555 1_555
H37 C43 1_555 1_555
H38 C44 1_555 1_555
H39 C47 1_555 1_555
H40 C49 1_555 1_555
H41 C52 1_555 1_555
H42 C53 1_555 1_555
H43 C54 1_555 1_555
H44 C55 1_555 1_555
H45 C57 1_555 1_555
H46 C58 1_555 1_555
H47 C59 1_555 1_555
H48 C60 1_555 1_555
Cu1C N4 1_555 1_555
Cu2C N10 1_555 1_555
Cu3C N16 1_555 1_555
N4C Cu1 1_555 1_555
N10C Cu2 1_555 1_555
N16C Cu3 1_555 1_555
C5 C6 1_555 1_555
C9 C10 1_555 1_555
C10 C11 1_555 1_555
C14 C15 1_555 1_555
C19 C20 1_555 1_555
C25 C26 1_555 1_555
C29 C30 1_555 1_555
C30 C31 1_555 1_555
C34 C35 1_555 1_555
C39 C40 1_555 1_555
C45 C46 1_555 1_555
C49 C50 1_555 1_555
C50 C51 1_555 1_555
C54 C55 1_555 1_555
C59 C60 1_555 1_555

#END
