
#######################################################################
#
#                 Cambridge Crystallographic Data Centre
#                                CCDC 
#
#######################################################################
#
# If this CIF has been generated from an entry in the Cambridge 
# Structural Database, then it will include bibliographic, chemical, 
# crystal, experimental, refinement or atomic coordinate data resulting 
# from the CCDC's data processing and validation procedures.
#
#######################################################################

data_OGOVUC
_symmetry_cell_setting           monoclinic
_symmetry_space_group_name_H-M   'C c'
_symmetry_Int_Tables_number      9
_space_group_name_Hall           'C -2yc'
loop_
_symmetry_equiv_pos_site_id
_symmetry_equiv_pos_as_xyz
1 x,y,z
2 x,-y,1/2+z
3 1/2+x,1/2+y,z
4 1/2+x,1/2-y,1/2+z
_cell_length_a                   24.831(5)
_cell_length_b                   9.586(5)
_cell_length_c                   10.703(5)
_cell_angle_alpha                90
_cell_angle_beta                 98.294(5)
_cell_angle_gamma                90
_cell_volume                     2520.99
loop_
_atom_site_label
_atom_site_type_symbol
_atom_site_fract_x
_atom_site_fract_y
_atom_site_fract_z
C1 C 0.65897(19) -0.4422(4) 0.4642(4)
H1 H 0.6647 -0.5046 0.4009
C2 C 0.6929(2) -0.4418(5) 0.5776(5)
C3 C 0.6837(2) -0.3501(4) 0.6725(5)
H2 H 0.7071 -0.3508 0.7486
C4 C 0.64047(18) -0.2575(4) 0.6567(4)
H3 H 0.6342 -0.1979 0.7216
C5 C 0.53337(19) -0.0691(4) 0.5582(5)
H4 H 0.5466 -0.0440 0.6408
C6 C 0.4878(2) -0.0037(5) 0.4943(4)
H5 H 0.4707 0.0660 0.5343
C7 C 0.4676(2) -0.0408(5) 0.3715(5)
C8 C 0.4920(2) -0.1472(4) 0.3113(5)
H6 H 0.4774 -0.1744 0.2300
C9 C 0.5736(2) -0.3278(5) 0.3293(4)
C10 C 0.6154(2) -0.3467(5) 0.4450(5)
C11 C 0.60721(18) -0.2560(5) 0.5430(4)
C12 C 0.5586(2) -0.1702(5) 0.4990(6)
C13 C 0.53864(19) -0.2131(5) 0.3735(4)
C14 C 0.6014(3) -0.2742(7) 0.2178(5)
H7 H 0.6233 -0.3472 0.1899
H8 H 0.5740 -0.2467 0.1495
H9 H 0.6240 -0.1955 0.2450
C15 C 0.5408(3) -0.4617(6) 0.2956(6)
H10 H 0.5642 -0.5316 0.2680
H11 H 0.5264 -0.4948 0.3686
H12 H 0.5115 -0.4424 0.2292
C16 C 0.7412(2) -0.5402(6) 0.5994(6)
C17 C 0.4176(2) 0.0318(5) 0.3073(5)
C18 C 0.3985(3) 0.3124(7) 0.0440(6)
H13 H 0.4098 0.2254 0.0196
C19 C 0.4189(3) 0.4304(8) -0.0072(6)
H14 H 0.4427 0.4215 -0.0662
C20 C 0.4044(2) 0.5564(7) 0.0276(6)
H15 H 0.4178 0.6357 -0.0073
C21 C 0.3491(3) 0.6999(7) 0.1648(7)
H16 H 0.3611 0.7835 0.1347
C22 C 0.3149(3) 0.7020(6) 0.2488(8)
H17 H 0.3039 0.7879 0.2767
C23 C 0.2590(3) 0.5740(7) 0.3827(7)
H18 H 0.2471 0.6575 0.4135
C24 C 0.2399(3) 0.4475(8) 0.4257(7)
H19 H 0.2150 0.4456 0.4828
C25 C 0.2597(3) 0.3249(7) 0.3795(6)
H20 H 0.2481 0.2400 0.4082
C26 C 0.3679(2) 0.5694(6) 0.1193(6)
C27 C 0.34872(19) 0.4449(5) 0.1658(5)
C28 C 0.3113(2) 0.4467(5) 0.2553(5)
C29 C 0.2938(2) 0.5773(5) 0.2988(6)
N1 N 0.36383(18) 0.3184(4) 0.1260(4)
N2 N 0.29460(19) 0.3237(4) 0.2958(4)
O1 O 0.7468(2) -0.6308(5) 0.5221(4)
O2 O 0.77253(14) -0.5233(4) 0.7013(4)
O3 O 0.39307(14) 0.1153(4) 0.3685(3)
O4 O 0.40011(13) 0.0077(3) 0.1947(3)
Zn1 Zn 0.33231(2) 0.15388(3) 0.21827(4)
O2C O 0.27253(14) 0.0233(4) 0.2013(4)
Zn1C Zn 0.83231(2) -0.65388(3) 0.71827(4)
loop_
_geom_bond_atom_site_label_1
_geom_bond_atom_site_label_2
_geom_bond_site_symmetry_1
_geom_bond_site_symmetry_2
C1 H1 1_555 1_555
C2 C1 1_555 1_555
C3 C2 1_555 1_555
H2 C3 1_555 1_555
C4 C3 1_555 1_555
H3 C4 1_555 1_555
C5 H4 1_555 1_555
C6 C5 1_555 1_555
H5 C6 1_555 1_555
C7 C6 1_555 1_555
C8 C7 1_555 1_555
H6 C8 1_555 1_555
C9 C10 1_555 1_555
C10 C1 1_555 1_555
C11 C4 1_555 1_555
C12 C5 1_555 1_555
C13 C8 1_555 1_555
C14 C9 1_555 1_555
H7 C14 1_555 1_555
H8 C14 1_555 1_555
H9 C14 1_555 1_555
C15 C9 1_555 1_555
H10 C15 1_555 1_555
H11 C15 1_555 1_555
H12 C15 1_555 1_555
C16 C2 1_555 1_555
C17 C7 1_555 1_555
C18 H13 1_555 1_555
C19 C18 1_555 1_555
H14 C19 1_555 1_555
C20 C19 1_555 1_555
H15 C20 1_555 1_555
C21 H16 1_555 1_555
C22 C21 1_555 1_555
H17 C22 1_555 1_555
C23 H18 1_555 1_555
C24 C23 1_555 1_555
H19 C24 1_555 1_555
C25 C24 1_555 1_555
H20 C25 1_555 1_555
C26 C20 1_555 1_555
C27 C26 1_555 1_555
C28 C27 1_555 1_555
C29 C22 1_555 1_555
N1 C18 1_555 1_555
N2 C25 1_555 1_555
O1 C16 1_555 1_555
O2 C16 1_555 1_555
O3 C17 1_555 1_555
O4 C17 1_555 1_555
Zn1 N1 1_555 1_555
O2C Zn1 1_555 1_555
Zn1C O2 1_555 1_555
C9 C13 1_555 1_555
C10 C11 1_555 1_555
C11 C12 1_555 1_555
C12 C13 1_555 1_555
C21 C26 1_555 1_555
C23 C29 1_555 1_555
C27 N1 1_555 1_555
C28 C29 1_555 1_555
C28 N2 1_555 1_555
N2 Zn1 1_555 1_555
O3 Zn1 1_555 1_555
O4 Zn1 1_555 1_555

#END
