
#######################################################################
#
#                 Cambridge Crystallographic Data Centre
#                                CCDC 
#
#######################################################################
#
# If this CIF has been generated from an entry in the Cambridge 
# Structural Database, then it will include bibliographic, chemical, 
# crystal, experimental, refinement or atomic coordinate data resulting 
# from the CCDC's data processing and validation procedures.
#
#######################################################################

data_OGOWEN
_symmetry_cell_setting           monoclinic
_symmetry_space_group_name_H-M   'C 2/c'
_symmetry_Int_Tables_number      15
_space_group_name_Hall           '-C 2yn'
loop_
_symmetry_equiv_pos_site_id
_symmetry_equiv_pos_as_xyz
1 x,y,z
2 -x,y,1/2-z
3 1/2+x,1/2+y,z
4 1/2-x,1/2+y,1/2-z
5 -x,-y,-z
6 x,-y,1/2+z
7 1/2-x,1/2-y,-z
8 1/2+x,1/2-y,1/2+z
_cell_length_a                   32.5852(15)
_cell_length_b                   20.8089(9)
_cell_length_c                   16.3201(7)
_cell_angle_alpha                90
_cell_angle_beta                 115.5590(10)
_cell_angle_gamma                90
_cell_volume                     9983.14
loop_
_atom_site_label
_atom_site_type_symbol
_atom_site_fract_x
_atom_site_fract_y
_atom_site_fract_z
Zn1 Zn 0.705939(17) 0.24793(2) -0.08111(3)
Zn2 Zn 1.024980(17) -0.25078(2) -0.15156(3)
O1 O 0.73920(12) 0.18070(18) -0.1173(3)
O2 O 0.80558(12) 0.18313(17) 0.0059(2)
O3 O 0.98562(11) -0.17054(15) -0.1701(2)
O4 O 0.93380(11) -0.19532(15) -0.3100(2)
O5 O 0.73531(12) 0.31371(18) -0.1312(3)
O6 O 0.80038(13) 0.31774(18) -0.0050(3)
O7 O 0.97243(11) 0.69223(15) -0.1607(2)
O8 O 0.94873(11) 0.67276(15) -0.3091(2)
O9 O 1.12325(12) -0.26746(18) 0.3284(2)
O10 O 0.64431(11) 0.23908(15) -0.1816(2)
H1 H 0.6166(17) 0.263(3) -0.187(5)
H2 H 0.642(2) 0.243(3) -0.245(2)
N1 N 1.18650(16) -0.2633(3) 0.3098(3)
N2 N 1.19782(17) -0.2660(3) 0.4026(3)
N3 N 1.06226(14) -0.25484(17) -0.0148(3)
N4 N 1.14562(17) -0.2653(3) 0.6564(3)
C1 C 0.84320(17) 0.0951(2) -0.0696(4)
H3 H 0.8625 0.1136 -0.0144
C2 C 0.79733(17) 0.1123(2) -0.1125(3)
C3 C 0.76824(18) 0.0832(3) -0.1933(4)
H4 H 0.7377 0.0947 -0.2204
C4 C 0.78415(17) 0.0374(3) -0.2339(4)
H5 H 0.7645 0.0175 -0.2876
C5 C 0.84188(17) -0.0633(2) -0.2948(4)
H6 H 0.8120 -0.0618 -0.3393
C6 C 0.87346(17) -0.1052(2) -0.3029(4)
H7 H 0.8652 -0.1301 -0.3550
C7 C 0.91754(16) -0.1099(2) -0.2329(3)
C8 C 0.93171(17) -0.0692(2) -0.1571(4)
H8 H 0.9612 -0.0716 -0.1112
C9 C 0.90770(18) 0.0246(3) -0.0791(4)
C10 C 0.85950(17) 0.0499(2) -0.1103(3)
C11 C 0.83019(17) 0.0218(2) -0.1926(4)
C12 C 0.85595(16) -0.0244(2) -0.2196(4)
C13 C 0.90067(17) -0.0254(2) -0.1522(4)
C14 C 0.9265(2) -0.0042(4) 0.0155(4)
H9 H 0.9296 0.0289 0.0588
H10 H 0.9061 -0.0368 0.0176
H11 H 0.9558 -0.0229 0.0300
C15 C 0.9386(2) 0.0794(3) -0.0840(5)
H12 H 0.9421 0.1111 -0.0386
H13 H 0.9678 0.0622 -0.0732
H14 H 0.9249 0.0988 -0.1430
C16 C 0.77907(16) 0.1624(2) -0.0715(3)
C17 C 0.94833(16) -0.1619(2) -0.2377(3)
C18 C 0.83335(18) 0.4159(3) -0.0727(4)
H15 H 0.8465 0.4102 -0.0101
C19 C 0.79451(17) 0.3814(2) -0.1276(3)
C20 C 0.77511(19) 0.3899(3) -0.2209(4)
H16 H 0.7492 0.3668 -0.2576
C21 C 0.7943(2) 0.4327(3) -0.2599(4)
H17 H 0.7814 0.4382 -0.3226
C22 C 0.85216(18) 0.5432(3) -0.3087(3)
H18 H 0.8279 0.5306 -0.3624
C23 C 0.88231(18) 0.5900(2) -0.3088(3)
H19 H 0.8786 0.6083 -0.3636
C24 C 0.91806(16) 0.6101(2) -0.2287(3)
C25 C 0.92465(17) 0.5827(2) -0.1461(3)
H20 H 0.9486 0.5960 -0.0924
C26 C 0.89400(19) 0.5001(3) -0.0642(4)
C27 C 0.85222(17) 0.4583(2) -0.1112(3)
C28 C 0.83256(17) 0.4668(2) -0.2050(4)
C29 C 0.85895(17) 0.5155(2) -0.2261(3)
C30 C 0.89510(17) 0.5352(2) -0.1453(3)
C31 C 0.8873(2) 0.5474(3) 0.0009(4)
H21 H 0.9138 0.5741 0.0288
H22 H 0.8612 0.5738 -0.0323
H23 H 0.8828 0.5239 0.0470
C32 C 0.9365(2) 0.4595(3) -0.0140(4)
H24 H 0.9625 0.4871 0.0139
H25 H 0.9330 0.4345 0.0320
H26 H 0.9408 0.4313 -0.0562
C33 C 0.77496(17) 0.3339(2) -0.0843(4)
C34 C 0.94885(15) 0.6625(2) -0.2327(3)
C35 C 1.14254(18) -0.2641(3) 0.2694(4)
C36 C 1.16001(18) -0.2674(3) 0.4098(3)
C37 C 1.04258(17) -0.2604(3) 0.0419(4)
H27 H 1.0110 -0.2626 0.0176
C38 C 1.06737(19) -0.2632(3) 0.1356(4)
H28 H 1.0526 -0.2664 0.1732
C39 C 1.11407(18) -0.2613(2) 0.1719(3)
C40 C 1.13475(18) -0.2558(3) 0.1134(4)
H29 H 1.1663 -0.2540 0.1360
C41 C 1.10769(17) -0.2530(2) 0.0212(4)
H30 H 1.1217 -0.2497 -0.0177
C42 C 1.1092(2) -0.2700(3) 0.5761(4)
H31 H 1.0806 -0.2724 0.5758
C43 C 1.1116(2) -0.2713(3) 0.4926(4)
H32 H 1.0855 -0.2746 0.4383
C44 C 1.15393(19) -0.2677(3) 0.4934(4)
C45 C 1.1926(2) -0.2631(3) 0.5770(4)
H33 H 1.2216 -0.2606 0.5794
C46 C 1.1864(2) -0.2622(3) 0.6553(4)
H34 H 1.2121 -0.2594 0.7105
Zn1F Zn 0.794061(17) 0.25207(2) 0.08111(3)
Zn2A Zn 0.975020(17) -0.25078(2) -0.34844(3)
Zn2_2 Zn 1.024980(17) 0.74922(2) -0.15156(3)
Zn2A_2 Zn 0.975020(17) 0.74922(2) -0.34844(3)
O2F O 0.69442(12) 0.31687(17) -0.0059(2)
O4A O 1.06620(11) -0.19532(15) -0.1900(2)
O6F O 0.69962(13) 0.18226(18) 0.0050(3)
O7_2 O 0.97243(11) -0.30777(15) -0.1607(2)
O8A O 1.05127(11) -0.32724(15) -0.1909(2)
O11 O 0.3616(4) 0.3751(4) 0.1576(6)
N5 N 0.2959(4) 0.4123(5) 0.0601(6)
C47 C 0.3259(6) 0.3851(7) 0.1341(11)
H35 H 0.3141 0.3717 0.1739
C48 C 0.3110(7) 0.4345(10) -0.0018(15)
H36 H 0.2859 0.4526 -0.0533
H37 H 0.3238 0.3996 -0.0214
H38 H 0.3338 0.4670 0.0261
C49 C 0.2497(7) 0.4147(7) 0.0349(8)
H39 H 0.2350 0.4374 -0.0215
H40 H 0.2442 0.4365 0.0810
H41 H 0.2379 0.3718 0.0278
O12? O 0.5177(5) 0.2699(9) 0.3186(11)
O13? O 0.4850(6) -0.1497(9) 0.6273(14)
N6? N 0.5000 0.3679(7) 0.2500
N7? N 0.5000 -0.0710(7) 0.7500
C50? C 0.5294(4) 0.3306(7) 0.3185(8)
C51? C 0.5107(6) 0.4282(9) 0.2552(18)
C52? C 0.5000 -0.0024(9) 0.7500
C53? C 0.5026(10) -0.1000(13) 0.670(2)
C54? C 0.4531(10) -0.0843(13) 0.753(2)
loop_
_geom_bond_atom_site_label_1
_geom_bond_atom_site_label_2
_geom_bond_site_symmetry_1
_geom_bond_site_symmetry_2
Zn1 O1 1_555 1_555
Zn2 O3 1_555 1_555
O1 C16 1_555 1_555
O2 C16 1_555 1_555
O3 C17 1_555 1_555
O4 C17 1_555 1_555
O5 Zn1 1_555 1_555
O6 C33 1_555 1_555
O7 C34 1_555 1_555
O8 C34 1_555 1_555
O9 C35 1_555 1_555
O10 Zn1 1_555 1_555
H1 O10 1_555 1_555
H2 O10 1_555 1_555
O11 C47 1_555 1_555
N1 N2 1_555 1_555
N2 C36 1_555 1_555
N3 Zn2 1_555 1_555
N4 C42 1_555 1_555
N5 C47 1_555 1_555
C1 H3 1_555 1_555
C2 C1 1_555 1_555
C3 C2 1_555 1_555
H4 C3 1_555 1_555
C4 C3 1_555 1_555
H5 C4 1_555 1_555
C5 H6 1_555 1_555
C6 C5 1_555 1_555
H7 C6 1_555 1_555
C7 C6 1_555 1_555
C8 C7 1_555 1_555
H8 C8 1_555 1_555
C9 C10 1_555 1_555
C10 C1 1_555 1_555
C11 C4 1_555 1_555
C12 C5 1_555 1_555
C13 C8 1_555 1_555
C14 C9 1_555 1_555
H9 C14 1_555 1_555
H10 C14 1_555 1_555
H11 C14 1_555 1_555
C15 C9 1_555 1_555
H12 C15 1_555 1_555
H13 C15 1_555 1_555
H14 C15 1_555 1_555
C16 C2 1_555 1_555
C17 C7 1_555 1_555
C18 H15 1_555 1_555
C19 C18 1_555 1_555
C20 C19 1_555 1_555
H16 C20 1_555 1_555
C21 C20 1_555 1_555
H17 C21 1_555 1_555
C22 H18 1_555 1_555
C23 C22 1_555 1_555
H19 C23 1_555 1_555
C24 C23 1_555 1_555
C25 C24 1_555 1_555
H20 C25 1_555 1_555
C26 C27 1_555 1_555
C27 C18 1_555 1_555
C28 C21 1_555 1_555
C29 C22 1_555 1_555
C30 C25 1_555 1_555
C31 C26 1_555 1_555
H21 C31 1_555 1_555
H22 C31 1_555 1_555
H23 C31 1_555 1_555
C32 C26 1_555 1_555
H24 C32 1_555 1_555
H25 C32 1_555 1_555
H26 C32 1_555 1_555
C33 O5 1_555 1_555
C34 C24 1_555 1_555
C35 N1 1_555 1_555
C36 O9 1_555 1_555
C37 N3 1_555 1_555
H27 C37 1_555 1_555
C38 C37 1_555 1_555
H28 C38 1_555 1_555
C39 C35 1_555 1_555
C40 C39 1_555 1_555
H29 C40 1_555 1_555
C41 N3 1_555 1_555
H30 C41 1_555 1_555
C42 H31 1_555 1_555
C43 C42 1_555 1_555
H32 C43 1_555 1_555
C44 C36 1_555 1_555
C45 C44 1_555 1_555
H33 C45 1_555 1_555
C46 N4 1_555 1_555
H34 C46 1_555 1_555
C47 H35 1_555 1_555
C48 N5 1_555 1_555
H36 C48 1_555 1_555
H37 C48 1_555 1_555
H38 C48 1_555 1_555
C49 N5 1_555 1_555
H39 C49 1_555 1_555
H40 C49 1_555 1_555
H41 C49 1_555 1_555
Zn1F O2 1_555 1_555
Zn2A O4 1_555 1_555
Zn2_2 O7 1_555 1_555
Zn2A_2 O8 1_555 1_555
O2F Zn1 1_555 1_555
O4A Zn2 1_555 1_555
O6F Zn1 1_555 1_555
O7_2 Zn2 1_555 1_555
O8A Zn2 1_555 1_555
O6 Zn1F 1_555 1_555
C9 C13 1_555 1_555
C10 C11 1_555 1_555
C11 C12 1_555 1_555
C12 C13 1_555 1_555
C19 C33 1_555 1_555
C26 C30 1_555 1_555
C27 C28 1_555 1_555
C28 C29 1_555 1_555
C29 C30 1_555 1_555
C38 C39 1_555 1_555
C40 C41 1_555 1_555
C43 C44 1_555 1_555
C45 C46 1_555 1_555

#END
