
#######################################################################
#
#                 Cambridge Crystallographic Data Centre
#                                CCDC 
#
#######################################################################
#
# If this CIF has been generated from an entry in the Cambridge 
# Structural Database, then it will include bibliographic, chemical, 
# crystal, experimental, refinement or atomic coordinate data resulting 
# from the CCDC's data processing and validation procedures.
#
#######################################################################

data_OGOWUD
_symmetry_cell_setting           monoclinic
_symmetry_space_group_name_H-M   'P 21'
_symmetry_Int_Tables_number      4
_space_group_name_Hall           'P 2yb'
loop_
_symmetry_equiv_pos_site_id
_symmetry_equiv_pos_as_xyz
1 x,y,z
2 -x,1/2+y,-z
_cell_length_a                   5.8432(1)
_cell_length_b                   9.2266(2)
_cell_length_c                   18.6853(5)
_cell_angle_alpha                90
_cell_angle_beta                 91.103(1)
_cell_angle_gamma                90
_cell_volume                     1007.19
loop_
_atom_site_label
_atom_site_type_symbol
_atom_site_fract_x
_atom_site_fract_y
_atom_site_fract_z
Cd1 Cd 0.78718(3) 0.22732(2) 0.517634(9)
Cl1 Cl 0.65639(11) 0.47742(7) 0.68228(4)
Cl2 Cl 0.19854(11) 0.59982(7) 0.69261(3)
P1 P 0.29875(11) 0.40286(7) 0.57195(3)
P2 P 0.27613(12) 0.29948(8) 0.73160(4)
O1 O 0.9248(3) 0.0794(2) 0.60849(11)
H1 H 0.8350 0.0065 0.6061
H2 H 0.9301 0.1318 0.6456
O2 O 1.1102(3) 0.1628(2) 0.45269(10)
H3 H 1.1100 0.0707 0.4491
H4 H 1.2243 0.1899 0.4784
O3 O 0.6960(3) 0.4094(2) 0.43482(11)
H5 H 0.5984 0.4687 0.4516
H6 H 0.8164 0.4609 0.4343
O5 O 0.4282(3) 0.26355(18) 0.55642(10)
O6 O 0.3906(3) 0.5332(2) 0.53211(10)
O7 O 0.0405(3) 0.3882(2) 0.56698(10)
O8 O 0.4693(3) 0.1823(2) 0.72256(10)
O9 O 0.3224(3) 0.3665(2) 0.80895(10)
O10 O 0.0403(3) 0.2474(2) 0.72103(9)
C1 C 0.3601(5) 0.4416(3) 0.66900(15)
C2 C 0.4918(5) 0.0695(3) 0.77399(15)
C3 C 0.3267(5) -0.0373(3) 0.77796(16)
H9 H 0.1944 -0.0351 0.7476
C4 C 0.3595(6) -0.1481(3) 0.82762(16)
H10 H 0.2482 -0.2225 0.8317
C5 C 0.5540(6) -0.1502(4) 0.87114(17)
H11 H 0.5762 -0.2270 0.9045
C6 C 0.7169(6) -0.0411(4) 0.86654(18)
H12 H 0.8489 -0.0427 0.8970
C7 C 0.6862(5) 0.0712(3) 0.81684(16)
H13 H 0.7962 0.1464 0.8128
C8 C 0.1555(5) 0.3590(3) 0.86244(15)
C9 C -0.0356(5) 0.4463(3) 0.85819(16)
H14 H -0.0568 0.5122 0.8195
C10 C -0.1968(6) 0.4358(4) 0.91178(17)
H15 H -0.3312 0.4937 0.9094
C11 C -0.1626(6) 0.3419(4) 0.96839(17)
H16 H -0.2721 0.3369 1.0052
C12 C 0.1925(5) 0.2621(3) 0.91836(15)
H17 H 0.3250 0.2025 0.9201
C13 C 0.0303(6) 0.2546(4) 0.97192(17)
H18 H 0.0521 0.1897 1.0109
Cd1A Cd 0.21282(3) 0.72732(2) 0.482366(9)
Cd1_2 Cd -0.21282(3) 0.22732(2) 0.517634(9)
O6A O 0.6094(3) 0.0332(2) 0.46789(10)
O7_2 O 1.0405(3) 0.3882(2) 0.56698(10)
O4 O 0.7234(4) -0.1566(3) 0.65633(13)
H7 H 0.7596 -0.2191 0.6250
H8 H 0.6746 -0.1931 0.6934
loop_
_geom_bond_atom_site_label_1
_geom_bond_atom_site_label_2
_geom_bond_site_symmetry_1
_geom_bond_site_symmetry_2
Cd1 O1 1_555 1_555
Cl1 C1 1_555 1_555
Cl2 C1 1_555 1_555
P1 O5 1_555 1_555
P2 O8 1_555 1_555
O1 H1 1_555 1_555
H2 O1 1_555 1_555
O2 Cd1 1_555 1_555
H3 O2 1_555 1_555
H4 O2 1_555 1_555
O3 Cd1 1_555 1_555
H5 O3 1_555 1_555
H6 O3 1_555 1_555
O4 H7 1_555 1_555
H8 O4 1_555 1_555
O5 Cd1 1_555 1_555
O6 P1 1_555 1_555
O7 P1 1_555 1_555
O8 C2 1_555 1_555
O9 P2 1_555 1_555
O10 P2 1_555 1_555
C1 P1 1_555 1_555
C2 C3 1_555 1_555
C3 H9 1_555 1_555
C4 C3 1_555 1_555
H10 C4 1_555 1_555
C5 C4 1_555 1_555
H11 C5 1_555 1_555
C6 C5 1_555 1_555
H12 C6 1_555 1_555
C7 C2 1_555 1_555
H13 C7 1_555 1_555
C8 O9 1_555 1_555
C9 C8 1_555 1_555
H14 C9 1_555 1_555
C10 C9 1_555 1_555
H15 C10 1_555 1_555
C11 C10 1_555 1_555
H16 C11 1_555 1_555
C12 C8 1_555 1_555
H17 C12 1_555 1_555
C13 C11 1_555 1_555
H18 C13 1_555 1_555
Cd1A O6 1_555 1_555
Cd1_2 O7 1_555 1_555
O6A Cd1 1_555 1_555
O7_2 Cd1 1_555 1_555
P2 C1 1_555 1_555
C6 C7 1_555 1_555
C12 C13 1_555 1_555

#END
