
#######################################################################
#
#                 Cambridge Crystallographic Data Centre
#                                CCDC 
#
#######################################################################
#
# If this CIF has been generated from an entry in the Cambridge 
# Structural Database, then it will include bibliographic, chemical, 
# crystal, experimental, refinement or atomic coordinate data resulting 
# from the CCDC's data processing and validation procedures.
#
#######################################################################

data_OGOXEN
_symmetry_cell_setting           monoclinic
_symmetry_space_group_name_H-M   'P 21/c'
_symmetry_Int_Tables_number      14
_space_group_name_Hall           '-P 2ybc'
loop_
_symmetry_equiv_pos_site_id
_symmetry_equiv_pos_as_xyz
1 x,y,z
2 x,1/2-y,1/2+z
3 -x,-y,-z
4 -x,1/2+y,1/2-z
_cell_length_a                   14.202(3)
_cell_length_b                   7.3201(17)
_cell_length_c                   9.700(2)
_cell_angle_alpha                90
_cell_angle_beta                 103.427(4)
_cell_angle_gamma                90
_cell_volume                     980.849
loop_
_atom_site_label
_atom_site_type_symbol
_atom_site_fract_x
_atom_site_fract_y
_atom_site_fract_z
Tl1 Tl 0.07782(3) 0.11377(5) 0.33830(4)
C1 C -0.1572(6) 0.1325(12) -0.0710(9)
O1 O -0.4022(5) 0.0987(8) -0.4033(7)
C2 C -0.1795(7) 0.2739(12) -0.1681(10)
H1 H -0.1388 0.3750 -0.1591
O2 O -0.0624(5) 0.0115(9) 0.1406(6)
C3 C -0.2624(7) 0.2671(13) -0.2800(9)
H2 H -0.2778 0.3659 -0.3414
C4 C -0.3205(6) 0.1169(13) -0.2989(9)
C5 C -0.2182(7) -0.0215(12) -0.0922(10)
H3 H -0.2034 -0.1200 -0.0304
C6 C -0.3520(9) -0.3153(15) -0.1302(12)
H4 H -0.2878 -0.3647 -0.1156
H5 H -0.3985 -0.4096 -0.1645
H6 H -0.3619 -0.2686 -0.0421
O3 O -0.3635(5) -0.1717(9) -0.2313(7)
C7 C -0.3007(7) -0.0302(13) -0.2043(10)
C8 C -0.0744(7) 0.1426(12) 0.0511(10)
O4 O -0.0197(5) 0.2803(9) 0.0653(6)
C9 C -0.4289(9) 0.2457(15) -0.5012(11)
H7 H -0.4366 0.3553 -0.4505
H8 H -0.4889 0.2170 -0.5667
H9 H -0.3793 0.2638 -0.5523
O2C O 0.0624(5) 0.5115(9) 0.3594(6)
O4A O -0.0197(5) 0.2197(9) 0.5653(6)
O4C O 0.0197(5) -0.2197(9) 0.4347(6)
Tl1C Tl -0.07782(3) -0.38623(5) 0.16170(4)
Tl1A Tl 0.07782(3) 0.38623(5) -0.16170(4)
Tl1C_2 Tl -0.07782(3) 0.61377(5) 0.16170(4)
loop_
_geom_bond_atom_site_label_1
_geom_bond_atom_site_label_2
_geom_bond_site_symmetry_1
_geom_bond_site_symmetry_2
Tl1 O2 1_555 1_555
C1 C2 1_555 1_555
O1 C4 1_555 1_555
C2 H1 1_555 1_555
O2 C8 1_555 1_555
C3 C2 1_555 1_555
H2 C3 1_555 1_555
C4 C3 1_555 1_555
C5 C1 1_555 1_555
H3 C5 1_555 1_555
C6 H4 1_555 1_555
H5 C6 1_555 1_555
H6 C6 1_555 1_555
O3 C6 1_555 1_555
C7 C4 1_555 1_555
C8 C1 1_555 1_555
O4 Tl1 1_555 1_555
C9 O1 1_555 1_555
H7 C9 1_555 1_555
H8 C9 1_555 1_555
H9 C9 1_555 1_555
O2C Tl1 1_555 1_555
O4A Tl1 1_555 1_555
O4C Tl1 1_555 1_555
Tl1C O2 1_555 1_555
Tl1A O4 1_555 1_555
Tl1C_2 O4 1_555 1_555
C5 C7 1_555 1_555
O3 C7 1_555 1_555
C8 O4 1_555 1_555
O2C Tl1C_2 1_555 1_555
O4C Tl1C 1_555 1_555

#END
