
#######################################################################
#
#                 Cambridge Crystallographic Data Centre
#                                CCDC 
#
#######################################################################
#
# If this CIF has been generated from an entry in the Cambridge 
# Structural Database, then it will include bibliographic, chemical, 
# crystal, experimental, refinement or atomic coordinate data resulting 
# from the CCDC's data processing and validation procedures.
#
#######################################################################

data_OGUJUX
_symmetry_cell_setting           monoclinic
_symmetry_space_group_name_H-M   'P c'
_symmetry_Int_Tables_number      7
_space_group_name_Hall           'P -2yc'
loop_
_symmetry_equiv_pos_site_id
_symmetry_equiv_pos_as_xyz
1 x,y,z
2 x,-y,1/2+z
_cell_length_a                   6.9597(11)
_cell_length_b                   6.8943(11)
_cell_length_c                   18.317(3)
_cell_angle_alpha                90
_cell_angle_beta                 96.213(4)
_cell_angle_gamma                90
_cell_volume                     873.729
loop_
_atom_site_label
_atom_site_type_symbol
_atom_site_fract_x
_atom_site_fract_y
_atom_site_fract_z
Cu1 Cu 0.00411(6) 1.04749(8) 0.27074(3)
Cu2 Cu 0.01651(6) 0.54676(8) 0.26537(3)
O1 O 0.2579(6) 0.6071(6) 0.1791(3)
H1 H 0.2268 0.5829 0.1339
H2 H 0.3279 0.5137 0.1968
O2 O 0.0898(5) 0.7972(5) 0.3103(2)
H3 H 0.0844 0.7970 0.3564
O3 O -0.2457(6) 1.0961(6) 0.3524(3)
H4 H -0.1846 1.0822 0.3949
H5 H -0.2722 1.2159 0.3469
O4 O 0.2795(6) 1.0096(6) 0.1889(3)
H6 H 0.2854 0.8888 0.1802
H7 H 0.2322 1.0645 0.1494
O5 O -0.0707(6) 1.2961(5) 0.2240(2)
H8 H -0.0397 1.2754 0.1810
N1 N 0.3868(7) 0.3027(6) 0.4343(3)
N2 N 0.1808(7) 0.1978(6) 0.3465(3)
N3 N 0.1997(7) 0.3984(7) 0.3384(3)
N4 N 0.5121(7) 0.3232(7) 0.4980(3)
N5 N 0.5225(7) 0.1709(7) 0.5334(3)
N6 N 0.6453(7) 0.1961(6) 0.5977(3)
N7 N 0.8284(7) 0.1015(6) 0.6936(3)
N8 N 0.8363(7) 0.3024(6) 0.6903(3)
C1 C 0.3273(9) 0.4568(8) 0.3927(4)
H9 H 0.3691 0.5838 0.4009
C2 C 0.2910(8) 0.1402(9) 0.4041(4)
H10 H 0.3033 0.0139 0.4218
C3 C 0.7146(9) 0.0403(8) 0.6386(4)
H11 H 0.6843 -0.0889 0.6282
C4 C 0.7247(9) 0.3569(9) 0.6314(4)
H12 H 0.7038 0.4840 0.6155
O6 O -0.2272(6) 0.4996(6) 0.3507(3)
H13 H -0.3332 0.5553 0.3358
H14 H -0.1812 0.5561 0.3900
Cu1_2 Cu 0.00411(6) 0.04749(8) 0.27074(3)
Cu1A Cu 1.00411(6) -0.04749(8) 0.77074(3)
Cu2_2 Cu 0.01651(6) 1.54676(8) 0.26537(3)
Cu2A Cu 1.01651(6) 0.45324(8) 0.76537(3)
O5_2 O -0.0707(6) 0.2961(5) 0.2240(2)
N2_2 N 0.1808(7) 1.1978(6) 0.3465(3)
N7A N -0.1716(7) 0.8985(6) 0.1936(3)
N8A N -0.1637(7) 0.6976(6) 0.1903(3)
S1 S -0.0167(2) 0.79750(16) 0.50896(9)
O7 O -0.1139(5) 0.9855(5) 0.4930(2)
O8 O -0.1578(5) 0.6379(5) 0.4905(2)
O9 O 0.0565(6) 0.7839(5) 0.5869(2)
O10 O 0.1445(5) 0.7767(5) 0.4637(2)
O11 O 0.5055(6) 0.7897(5) 0.3204(3)
H15 H 0.3845 0.8091 0.3120
H16 H 0.5597 0.8999 0.3261
O12 O 0.5160(7) 0.3253(5) 0.2268(3)
H17 H 0.6386 0.3172 0.2300
H18 H 0.4706 0.2365 0.1976
O13 O 0.5079(9) 0.7131(7) 0.5583(4)
H19 H 0.4223 0.7902 0.5385
H20 H 0.6087 0.7281 0.5365
O14 O 0.0866(6) 0.3222(5) 0.5370(2)
H21 H 0.0230 0.4210 0.5204
H22 H 0.0245 0.2223 0.5207
loop_
_geom_bond_atom_site_label_1
_geom_bond_atom_site_label_2
_geom_bond_site_symmetry_1
_geom_bond_site_symmetry_2
Cu1 O2 1_555 1_555
Cu2 O1 1_555 1_555
O1 H1 1_555 1_555
H2 O1 1_555 1_555
O2 Cu2 1_555 1_555
H3 O2 1_555 1_555
O3 Cu1 1_555 1_555
H4 O3 1_555 1_555
H5 O3 1_555 1_555
O4 Cu1 1_555 1_555
H6 O4 1_555 1_555
H7 O4 1_555 1_555
O5 Cu1 1_555 1_555
H8 O5 1_555 1_555
N1 N4 1_555 1_555
N2 N3 1_555 1_555
N3 Cu2 1_555 1_555
N4 N5 1_555 1_555
N5 N6 1_555 1_555
N6 C3 1_555 1_555
N7 N8 1_555 1_555
N8 C4 1_555 1_555
C1 N1 1_555 1_555
H9 C1 1_555 1_555
C2 N1 1_555 1_555
H10 C2 1_555 1_555
C3 N7 1_555 1_555
H11 C3 1_555 1_555
C4 N6 1_555 1_555
H12 C4 1_555 1_555
O6 Cu2 1_555 1_555
H13 O6 1_555 1_555
H14 O6 1_555 1_555
S1 O7 1_555 1_555
O8 S1 1_555 1_555
O9 S1 1_555 1_555
O10 S1 1_555 1_555
O11 H15 1_555 1_555
H16 O11 1_555 1_555
O12 H17 1_555 1_555
H18 O12 1_555 1_555
O13 H19 1_555 1_555
H20 O13 1_555 1_555
O14 H21 1_555 1_555
H22 O14 1_555 1_555
Cu1_2 N2 1_555 1_555
Cu1A N7 1_555 1_555
Cu2_2 O5 1_555 1_555
Cu2A N8 1_555 1_555
O5_2 Cu2 1_555 1_555
N2_2 Cu1 1_555 1_555
N7A Cu1 1_555 1_555
N8A Cu2 1_555 1_555
N2 C2 1_555 1_555
N3 C1 1_555 1_555
Cu1_2 O5_2 1_555 1_555
N7A N8A 1_555 1_555

#END
