
#######################################################################
#
#                 Cambridge Crystallographic Data Centre
#                                CCDC 
#
#######################################################################
#
# If this CIF has been generated from an entry in the Cambridge 
# Structural Database, then it will include bibliographic, chemical, 
# crystal, experimental, refinement or atomic coordinate data resulting 
# from the CCDC's data processing and validation procedures.
#
#######################################################################

data_OGUQIQ
_symmetry_cell_setting           triclinic
_symmetry_space_group_name_H-M   'P -1'
_symmetry_Int_Tables_number      2
_space_group_name_Hall           '-P 1'
loop_
_symmetry_equiv_pos_site_id
_symmetry_equiv_pos_as_xyz
1 x,y,z
2 -x,-y,-z
_cell_length_a                   8.1746(3)
_cell_length_b                   9.9818(4)
_cell_length_c                   11.8745(4)
_cell_angle_alpha                75.939(1)
_cell_angle_beta                 72.089(1)
_cell_angle_gamma                82.280(1)
_cell_volume                     892.476
loop_
_atom_site_label
_atom_site_type_symbol
_atom_site_fract_x
_atom_site_fract_y
_atom_site_fract_z
Mo1 Mo 0.7547(1) 0.7327(1) 0.5483(1)
Mo2 Mo 0.4951(1) 1.0141(1) 0.6397(1)
Mo3 Mo 0.8904(1) 0.9951(1) 0.6509(1)
Mo4 Mo 1.1545(1) 0.7168(1) 0.5386(1)
Cu1 Cu 0.3628(1) 0.6729(1) 0.7778(1)
O1 O 0.5817(7) 0.6474(5) 0.6546(5)
O2 O 0.8011(7) 0.6600(5) 0.4268(5)
O3 O 0.9270(7) 0.6496(5) 0.6233(5)
O4 O 0.6964(6) 0.8867(5) 0.6804(4)
O5 O 0.3675(7) 0.8731(5) 0.7123(5)
O6 O 0.6094(6) 0.8970(5) 0.4829(5)
O7 O 0.4310(7) 1.1165(5) 0.7420(5)
O8 O 0.8377(7) 1.0664(5) 0.7742(5)
O9 O 0.9610(6) 0.8778(5) 0.4753(4)
O10 O 1.0399(7) 0.8600(5) 0.6795(5)
O11 O 0.7233(7) 1.1164(5) 0.5498(4)
O12 O 1.2645(7) 0.6301(5) 0.6397(5)
O13 O 1.2092(7) 0.6314(5) 0.4247(5)
N1 N 0.3888(8) 0.4856(6) 0.8784(5)
N2 N 0.1744(8) 0.6941(6) 0.9252(5)
C1 C 0.5054(11) 0.3842(8) 0.8406(8)
C2 C 0.5245(10) 0.2597(8) 0.9201(7)
C3 C 0.4186(10) 0.2390(8) 1.0381(7)
C4 C 0.2997(10) 0.3431(8) 1.0753(7)
C5 C 0.2858(10) 0.4662(8) 0.9939(7)
C6 C 0.1614(10) 0.5844(8) 1.0208(7)
C7 C 0.0416(10) 0.5869(8) 1.1310(7)
C8 C -0.0698(10) 0.7045(8) 1.1438(7)
C9 C -0.0563(10) 0.8150(8) 1.0465(7)
C10 C 0.0677(10) 0.8079(8) 0.9385(7)
H1 H 0.5734 0.3981 0.7604
H2 H 0.6072 0.1913 0.8945
H3 H 0.4274 0.1554 1.0921
H4 H 0.2294 0.3304 1.1548
H5 H 0.0351 0.5115 1.1957
H6 H -0.1523 0.7082 1.2173
H7 H -0.1303 0.8938 1.0536
H8 H 0.0778 0.8833 0.8735
O6A O 0.3906(6) 1.1030(5) 0.5171(5)
Mo4A Mo 0.8455(1) 1.2832(1) 0.4614(1)
O9A O 1.0390(6) 1.1222(5) 0.5247(4)
Mo3A Mo 1.1096(1) 1.0049(1) 0.3491(1)
O11A O 1.2767(7) 0.8836(5) 0.4502(4)
O12_2 O 0.2645(7) 0.6301(5) 0.6397(5)
Mo2A Mo 0.5049(1) 0.9859(1) 0.3603(1)
Cu1_2 Cu 1.3628(1) 0.6729(1) 0.7778(1)
loop_
_geom_bond_atom_site_label_1
_geom_bond_atom_site_label_2
_geom_bond_site_symmetry_1
_geom_bond_site_symmetry_2
Mo1 O1 1_555 1_555
Mo2 O4 1_555 1_555
Mo3 O4 1_555 1_555
Mo4 O3 1_555 1_555
Cu1 O1 1_555 1_555
O2 Mo1 1_555 1_555
O3 Mo1 1_555 1_555
O4 Mo1 1_555 1_555
O5 Mo2 1_555 1_555
O6 Mo1 1_555 1_555
O7 Mo2 1_555 1_555
O8 Mo3 1_555 1_555
O9 Mo1 1_555 1_555
O10 Mo3 1_555 1_555
O11 Mo2 1_555 1_555
O12 Mo4 1_555 1_555
O13 Mo4 1_555 1_555
N1 Cu1 1_555 1_555
N2 Cu1 1_555 1_555
C1 N1 1_555 1_555
C2 C1 1_555 1_555
C3 C2 1_555 1_555
C4 C3 1_555 1_555
C5 N1 1_555 1_555
C6 N2 1_555 1_555
C7 C6 1_555 1_555
C8 C7 1_555 1_555
C9 C8 1_555 1_555
C10 N2 1_555 1_555
H1 C1 1_555 1_555
H2 C2 1_555 1_555
H3 C3 1_555 1_555
H4 C4 1_555 1_555
H5 C7 1_555 1_555
H6 C8 1_555 1_555
H7 C9 1_555 1_555
H8 C10 1_555 1_555
O6A Mo2 1_555 1_555
Mo4A O11 1_555 1_555
O9A Mo3 1_555 1_555
Mo3A O9 1_555 1_555
O11A Mo4 1_555 1_555
O12_2 Cu1 1_555 1_555
Mo2A O6 1_555 1_555
Cu1_2 O12 1_555 1_555
Mo2 O6 1_555 1_555
Mo3 O9 1_555 1_555
Mo3 O11 1_555 1_555
Mo4 O9 1_555 1_555
Mo4 O10 1_555 1_555
Cu1 O5 1_555 1_555
C4 C5 1_555 1_555
C5 C6 1_555 1_555
C9 C10 1_555 1_555
O6A Mo2A 1_555 1_555
Mo4A O9A 1_555 1_555
O9A Mo3A 1_555 1_555
Mo3A O11A 1_555 1_555

#END
