
#######################################################################
#
#                 Cambridge Crystallographic Data Centre
#                                CCDC 
#
#######################################################################
#
# If this CIF has been generated from an entry in the Cambridge 
# Structural Database, then it will include bibliographic, chemical, 
# crystal, experimental, refinement or atomic coordinate data resulting 
# from the CCDC's data processing and validation procedures.
#
#######################################################################

data_OGUROX
_symmetry_cell_setting           triclinic
_symmetry_space_group_name_H-M   'P -1'
_symmetry_Int_Tables_number      2
_space_group_name_Hall           '-P 1'
loop_
_symmetry_equiv_pos_site_id
_symmetry_equiv_pos_as_xyz
1 x,y,z
2 -x,-y,-z
_cell_length_a                   7.3576(2)
_cell_length_b                   13.6399(3)
_cell_length_c                   3.8622(1)
_cell_angle_alpha                95.955(4)
_cell_angle_beta                 103.326(2)
_cell_angle_gamma                92.994(4)
_cell_volume                     373.964
loop_
_atom_site_label
_atom_site_type_symbol
_atom_site_fract_x
_atom_site_fract_y
_atom_site_fract_z
K1 K 0.7990(11) 0.4185(5) 0.4889(22)
C1 C 0.3308(17) 0.0858(4) -0.2202(28)
C2 C 0.1543(15) 0.1054(4) -0.1533(26)
C3 C 0.4633(13) 0.1649(6) -0.2185(26)
C4 C 0.1104(11) 0.2042(5) -0.0846(27)
C5 C 0.4193(9) 0.2637(5) -0.1498(16)
C6 C 0.2429(10) 0.2833(4) -0.0829(21)
H1 H 0.3634(23) 0.0125(5) -0.2712(40)
H2 H 0.0560(19) 0.0467(6) -0.1546(34)
H3 H 0.5942(15) 0.1503(9) -0.2682(39)
H4 H -0.0206(12) 0.2188(8) -0.0349(41)
O1 O 0.5459(11) 0.3393(7) -0.1481(24)
C7 C 0.2166(13) 0.3789(4) 0.0496(19)
O2 O 0.3313(16) 0.4540(4) 0.0091(27)
O3 O 0.0733(18) 0.3962(7) 0.1694(37)
K1A K 1.2010(11) 0.5815(5) 0.5111(22)
O1_2 O 0.5459(11) 0.3393(7) 0.8519(24)
O2A O 0.6687(16) 0.5460(4) -0.0091(27)
O2A_2 O 0.6687(16) 0.5460(4) 0.9909(27)
O3_2 O 1.0733(18) 0.3962(7) 0.1694(37)
O3_3 O 1.0733(18) 0.3962(7) 1.1694(37)
O3A O 0.9267(18) 0.6038(7) 0.8306(37)
K1_2 K 0.7990(11) 0.4185(5) -0.5111(22)
K1A_2 K 0.2010(11) 0.5815(5) -0.4889(22)
K1A_3 K 0.2010(11) 0.5815(5) 0.5111(22)
K1_3 K -0.2010(11) 0.4185(5) -0.5111(22)
K1_4 K -0.2010(11) 0.4185(5) 0.4889(22)
loop_
_geom_bond_atom_site_label_1
_geom_bond_atom_site_label_2
_geom_bond_site_symmetry_1
_geom_bond_site_symmetry_2
K1 O1 1_555 1_555
C1 C2 1_555 1_555
C2 C4 1_555 1_555
C3 C1 1_555 1_555
C4 C6 1_555 1_555
C5 C3 1_555 1_555
C6 C5 1_555 1_555
H1 C1 1_555 1_555
H2 C2 1_555 1_555
H3 C3 1_555 1_555
H4 C4 1_555 1_555
O1 C5 1_555 1_555
C7 C6 1_555 1_555
O2 C7 1_555 1_555
O3 C7 1_555 1_555
K1A O3_2 1_555 1_555
O1_2 K1 1_555 1_555
O2A K1 1_555 1_555
O2A_2 K1 1_555 1_555
O3_2 K1 1_555 1_555
O3_3 K1 1_555 1_555
O3A K1 1_555 1_555
K1_2 O1 1_555 1_555
K1A_2 O2 1_555 1_555
K1A_3 O2 1_555 1_555
K1_3 O3 1_555 1_555
K1_4 O3 1_555 1_555
O3 K1A_3 1_555 1_555
K1A O3A 1_555 1_555
O2A K1_2 1_555 1_555
O3_2 K1_2 1_555 1_555

#END
