
#######################################################################
#
#                 Cambridge Crystallographic Data Centre
#                                CCDC 
#
#######################################################################
#
# If this CIF has been generated from an entry in the Cambridge 
# Structural Database, then it will include bibliographic, chemical, 
# crystal, experimental, refinement or atomic coordinate data resulting 
# from the CCDC's data processing and validation procedures.
#
#######################################################################

data_OGUREO
_symmetry_cell_setting           triclinic
_symmetry_space_group_name_H-M   'P -1'
_symmetry_Int_Tables_number      2
_space_group_name_Hall           '-P 1'
loop_
_symmetry_equiv_pos_site_id
_symmetry_equiv_pos_as_xyz
1 x,y,z
2 -x,-y,-z
_cell_length_a                   9.9685
_cell_length_b                   11.1408
_cell_length_c                   13.8246
_cell_angle_alpha                68.752
_cell_angle_beta                 89.6698
_cell_angle_gamma                63.697
_cell_volume                     1260.58
loop_
_atom_site_label
_atom_site_type_symbol
_atom_site_fract_x
_atom_site_fract_y
_atom_site_fract_z
P1 P 0.18576(14) 0.06933(14) 0.10727(12)
P2 P -0.36599(15) 0.04166(15) 0.14109(12)
C1 C -0.3272(6) 0.5142(5) 0.0960(4)
C2 C -0.2460(5) 0.3557(5) 0.1118(4)
C3 C -0.0911(6) 0.2916(5) 0.1062(4)
C4 C -0.0138(5) 0.1449(5) 0.1179(4)
C5 C -0.0954(6) 0.0664(6) 0.1329(4)
C6 C -0.2493(6) 0.1302(5) 0.1394(4)
C7 C -0.3234(6) 0.2771(6) 0.1290(4)
O1 O -0.2484(4) 0.5789(4) 0.0887(3)
O2 O -0.4691(4) 0.5701(4) 0.0915(3)
O3 O 0.1943(4) 0.1947(4) 0.0182(3)
O4 O 0.2817(4) 0.0301(4) 0.2124(3)
O5 O 0.2224(4) -0.0659(4) 0.0871(3)
O6 O -0.2570(4) -0.1143(4) 0.1548(3)
O7 O -0.4488(4) 0.0416(4) 0.2348(3)
O8 O -0.4733(4) 0.1323(4) 0.0336(3)
H1 H -0.039937 0.349581 0.077337
H2 H -0.032744 -0.036699 0.12811
H3 H -0.438326 0.316094 0.14469
P3 P 0.57012(15) 0.13213(15) 0.43937(12)
P4 P 0.59492(15) 0.65579(14) 0.31415(12)
C8 C 1.0744(5) 0.1558(6) 0.3500(4)
C9 C 0.9108(5) 0.2381(6) 0.3618(4)
C10 C 0.8265(6) 0.1627(5) 0.3896(4)
C11 C 0.6732(5) 0.2352(5) 0.3978(4)
C12 C 0.6056(6) 0.3851(6) 0.3761(5)
C13 C 0.6883(6) 0.4619(5) 0.3462(4)
C14 C 0.8423(6) 0.3878(6) 0.3394(5)
O9 O 1.1229(4) 0.0177(4) 0.3798(3)
O10 O 1.1458(4) 0.2236(4) 0.3110(3)
O11 O 0.6765(4) -0.0198(4) 0.4477(3)
O12 O 0.5405(4) 0.1294(4) 0.5504(3)
O13 O 0.4205(4) 0.2111(4) 0.3606(3)
O14 O 0.4430(4) 0.6905(4) 0.3507(3)
O15 O 0.5658(4) 0.7404(4) 0.1940(3)
O16 O 0.7016(4) 0.6821(4) 0.3719(4)
H4 H 0.861361 0.064202 0.401422
H5 H 0.496225 0.437219 0.383206
H6 H 0.896834 0.447602 0.319137
Cu1 Cu 0.29542(7) 0.86490(7) 0.35935(6)
Cu2 Cu 0.66298(8) 0.84993(7) 0.39729(6)
Cu3 Cu 0.34722(7) 0.14139(7) 0.26857(6)
O17 O 0.1556(6) 0.7794(6) 0.3572(6)
O18 O 0.8738(7) 0.7967(8) 0.3650(8)
O19 O 0.2693(6) 0.3573(6) 0.1340(4)
H7 H 0.115275 0.743329 0.41947
H8 H 0.125319 0.775427 0.287996
H9 H 0.927018 0.715066 0.339327
H10 H 0.930789 0.847963 0.374453
H11 H 0.347382 0.388704 0.103574
H12 H 0.16001 0.422719 0.101996
Cu4 Cu 0.30956(8) 0.22217(8) -0.09067(6)
Cu5 Cu 0.39024(7) 0.76196(7) 0.08721(6)
O20 O 0.2796(7) 0.6545(6) 0.1610(6)
H13 H 0.203981 0.643608 0.122199
H14 H 0.297544 0.607933 0.242404
P1A P -0.18576(14) -0.06933(14) -0.10727(12)
P2A P 0.36599(15) -0.04166(15) -0.14109(12)
C1A C 0.3272(6) -0.5142(5) -0.0960(4)
C2A C 0.2460(5) -0.3557(5) -0.1118(4)
C3A C 0.0911(6) -0.2916(5) -0.1062(4)
C4A C 0.0138(5) -0.1449(5) -0.1179(4)
C5A C 0.0954(6) -0.0664(6) -0.1329(4)
C6A C 0.2493(6) -0.1302(5) -0.1394(4)
C7A C 0.3234(6) -0.2771(6) -0.1290(4)
O1A O 0.2484(4) -0.5789(4) -0.0887(3)
O1_2 O -0.2484(4) -0.4211(4) 0.0887(3)
O1A_2 O 0.2484(4) 0.4211(4) -0.0887(3)
O2A O 0.4691(4) -0.5701(4) -0.0915(3)
O2_2 O 0.5309(4) 0.5701(4) 0.0915(3)
O2A_2 O -0.5309(4) -0.5701(4) -0.0915(3)
O3A O -0.1943(4) -0.1947(4) -0.0182(3)
O4A O -0.2817(4) -0.0301(4) -0.2124(3)
O4_2 O 0.2817(4) 1.0301(4) 0.2124(3)
O4A_2 O -0.2817(4) -1.0301(4) -0.2124(3)
O5A O -0.2224(4) 0.0659(4) -0.0871(3)
O5_2 O 0.2224(4) 0.9341(4) 0.0871(3)
O5A_2 O -0.2224(4) -0.9341(4) -0.0871(3)
O6A O 0.2570(4) 0.1143(4) -0.1548(3)
O7A O 0.4488(4) -0.0416(4) -0.2348(3)
O7_2 O 0.5512(4) 0.0416(4) 0.2348(3)
O7_3 O 0.5512(4) 1.0416(4) 0.2348(3)
O7A_2 O -0.5512(4) -1.0416(4) -0.2348(3)
O7A_3 O -0.5512(4) -0.0416(4) -0.2348(3)
O8A O 0.4733(4) -0.1323(4) -0.0336(3)
O8_2 O -0.4733(4) -0.8677(4) 0.0336(3)
O8_3 O 0.5267(4) 0.1323(4) 0.0336(3)
O8A_2 O -0.5267(4) -0.1323(4) -0.0336(3)
O8A_3 O 0.4733(4) 0.8677(4) -0.0336(3)
H1A H 0.039937 -0.349581 -0.077337
H2A H 0.032744 0.036699 -0.12811
H3A H 0.438326 -0.316094 -0.14469
P3A P -0.57012(15) -0.13213(15) -0.43937(12)
P4A P -0.59492(15) -0.65579(14) -0.31415(12)
C8A C -1.0744(5) -0.1558(6) -0.3500(4)
C9A C -0.9108(5) -0.2381(6) -0.3618(4)
C10A C -0.8265(6) -0.1627(5) -0.3896(4)
C11A C -0.6732(5) -0.2352(5) -0.3978(4)
C12A C -0.6056(6) -0.3851(6) -0.3761(5)
C13A C -0.6883(6) -0.4619(5) -0.3462(4)
C14A C -0.8423(6) -0.3878(6) -0.3394(5)
O9A O -1.1229(4) -0.0177(4) -0.3798(3)
O9_2 O 0.1229(4) 1.0177(4) 0.3798(3)
O9A_2 O -0.1229(4) -1.0177(4) -0.3798(3)
O10A O -1.1458(4) -0.2236(4) -0.3110(3)
O10_2 O 0.1458(4) 0.2236(4) 0.3110(3)
O10A_2 O -0.1458(4) -0.2236(4) -0.3110(3)
O11A O -0.6765(4) 0.0198(4) -0.4477(3)
O11_2 O 0.6765(4) 0.9802(4) 0.4477(3)
O11A_2 O -0.6765(4) -0.9802(4) -0.4477(3)
O12A O -0.5405(4) -0.1294(4) -0.5504(3)
O12_2 O -0.4595(4) -0.8706(4) -0.4496(3)
O12A_2 O 0.4595(4) 0.8706(4) 0.4496(3)
O13A O -0.4205(4) -0.2111(4) -0.3606(3)
O14A O -0.4430(4) -0.6905(4) -0.3507(3)
O15A O -0.5658(4) -0.7404(4) -0.1940(3)
O15_2 O -0.4342(4) -0.2596(4) 0.1940(3)
O15A_2 O 0.4342(4) 0.2596(4) -0.1940(3)
O16A O -0.7016(4) -0.6821(4) -0.3719(4)
H4A H -0.861361 -0.064202 -0.401422
H5A H -0.496225 -0.437219 -0.383206
H6A H -0.896834 -0.447602 -0.319137
Cu1A Cu -0.29542(7) -0.86490(7) -0.35935(6)
Cu1_2 Cu -0.70458(7) -0.13510(7) -0.64065(6)
Cu1_3 Cu 0.29542(7) -0.13510(7) 0.35935(6)
Cu1_4 Cu 1.29542(7) -0.13510(7) 0.35935(6)
Cu1A_2 Cu -1.29542(7) 0.13510(7) -0.35935(6)
Cu1A_3 Cu -0.29542(7) 0.13510(7) -0.35935(6)
Cu1A_4 Cu 0.70458(7) 0.13510(7) 0.64065(6)
Cu2A Cu -0.66298(8) -0.84993(7) -0.39729(6)
Cu2_2 Cu -0.33702(8) -0.15007(7) -0.60271(6)
Cu2_3 Cu -0.33702(8) -0.15007(7) 0.39729(6)
Cu2_4 Cu 0.66298(8) -0.15007(7) 0.39729(6)
Cu2A_2 Cu -0.66298(8) 0.15007(7) -0.39729(6)
Cu2A_3 Cu 0.33702(8) 0.15007(7) -0.39729(6)
Cu2A_4 Cu 0.33702(8) 0.15007(7) 0.60271(6)
Cu3A Cu -0.34722(7) -0.14139(7) -0.26857(6)
Cu3_2 Cu -0.65278(7) 0.14139(7) 0.26857(6)
Cu3_3 Cu 1.34722(7) 0.14139(7) 0.26857(6)
Cu3A_2 Cu -1.34722(7) -0.14139(7) -0.26857(6)
Cu3A_3 Cu 0.65278(7) -0.14139(7) -0.26857(6)
O17A O -0.1556(6) -0.7794(6) -0.3572(6)
O18A O -0.8738(7) -0.7967(8) -0.3650(8)
O19A O -0.2693(6) -0.3573(6) -0.1340(4)
H7A H -0.115275 -0.743329 -0.41947
H8A H -0.125319 -0.775427 -0.287996
H9A H -0.927018 -0.715066 -0.339327
H10A H -0.930789 -0.847963 -0.374453
H11A H -0.347382 -0.388704 -0.103574
H12A H -0.16001 -0.422719 -0.101996
Cu4A Cu -0.30956(8) -0.22217(8) 0.09067(6)
Cu4_2 Cu -0.69044(8) -0.77783(8) -0.09067(6)
Cu4_3 Cu -0.69044(8) 0.22217(8) -0.09067(6)
Cu4_4 Cu 0.30956(8) -0.77783(8) -0.09067(6)
Cu4A_2 Cu -0.30956(8) 0.77783(8) 0.09067(6)
Cu4A_3 Cu 0.69044(8) -0.22217(8) 0.09067(6)
Cu4A_4 Cu 0.69044(8) 0.77783(8) 0.09067(6)
Cu5A Cu -0.39024(7) -0.76196(7) -0.08721(6)
Cu5_2 Cu -0.60976(7) 0.76196(7) 0.08721(6)
Cu5_3 Cu 0.39024(7) -0.23804(7) 0.08721(6)
Cu5A_2 Cu -0.39024(7) 0.23804(7) -0.08721(6)
Cu5A_3 Cu 0.60976(7) -0.76196(7) -0.08721(6)
O20A O -0.2796(7) -0.6545(6) -0.1610(6)
H13A H -0.203981 -0.643608 -0.122199
H14A H -0.297544 -0.607933 -0.242404
O21 O 0.0411(10) 0.5825(12) 0.1529(7)
H15 H -0.014123 0.686949 0.101396
H16 H 0.03009 0.5564 0.228919
O22 O 0.1994(12) 0.4939(12) 0.3609(15)
H17 H 0.302433 0.459944 0.342715
H18 H 0.199661 0.40713 0.424545
loop_
_geom_bond_atom_site_label_1
_geom_bond_atom_site_label_2
_geom_bond_site_symmetry_1
_geom_bond_site_symmetry_2
P1 C4 1_555 1_555
P2 C6 1_555 1_555
C1 C2 1_555 1_555
C2 C3 1_555 1_555
C3 C4 1_555 1_555
C4 C5 1_555 1_555
C5 C6 1_555 1_555
C6 C7 1_555 1_555
C7 C2 1_555 1_555
O1 C1 1_555 1_555
O2 C1 1_555 1_555
O3 P1 1_555 1_555
O4 P1 1_555 1_555
O5 P1 1_555 1_555
O6 P2 1_555 1_555
O7 P2 1_555 1_555
O8 P2 1_555 1_555
H1 C3 1_555 1_555
H2 C5 1_555 1_555
H3 C7 1_555 1_555
P3 C11 1_555 1_555
P4 C13 1_555 1_555
C8 C9 1_555 1_555
C9 C10 1_555 1_555
C10 C11 1_555 1_555
C11 C12 1_555 1_555
C12 C13 1_555 1_555
C13 C14 1_555 1_555
C14 C9 1_555 1_555
O9 C8 1_555 1_555
O10 C8 1_555 1_555
O11 P3 1_555 1_555
O12 P3 1_555 1_555
O13 P3 1_555 1_555
O14 P4 1_555 1_555
O15 P4 1_555 1_555
O16 P4 1_555 1_555
H4 C10 1_555 1_555
H5 C12 1_555 1_555
H6 C14 1_555 1_555
Cu1 O14 1_555 1_555
Cu2 O16 1_555 1_555
Cu3 O4 1_555 1_555
O17 Cu1 1_555 1_555
O18 Cu2 1_555 1_555
O19 Cu3 1_555 1_555
H7 O17 1_555 1_555
H8 O17 1_555 1_555
H9 O18 1_555 1_555
H10 O18 1_555 1_555
H11 O19 1_555 1_555
H12 O19 1_555 1_555
Cu4 O3 1_555 1_555
Cu5 O15 1_555 1_555
O20 Cu5 1_555 1_555
H13 O20 1_555 1_555
H14 O20 1_555 1_555
O21 H15 1_555 1_555
H16 O21 1_555 1_555
O22 H17 1_555 1_555
H18 O22 1_555 1_555
P1A C4A 1_555 1_555
P2A C6A 1_555 1_555
C1A C2A 1_555 1_555
C2A C3A 1_555 1_555
C3A C4A 1_555 1_555
C4A C5A 1_555 1_555
C5A C6A 1_555 1_555
C6A C7A 1_555 1_555
C7A C2A 1_555 1_555
O1A C1A 1_555 1_555
O1_2 Cu4A 1_555 1_555
O1A_2 Cu4 1_555 1_555
O2A C1A 1_555 1_555
O2_2 Cu5 1_555 1_555
O2A_2 Cu5A 1_555 1_555
O3A P1A 1_555 1_555
O4A P1A 1_555 1_555
O4_2 Cu1 1_555 1_555
O4A_2 Cu1A 1_555 1_555
O5A P1A 1_555 1_555
O5_2 Cu5 1_555 1_555
O5A_2 Cu5A 1_555 1_555
O6A Cu4 1_555 1_555
O7A P2A 1_555 1_555
O7_2 Cu3 1_555 1_555
O7_3 Cu2 1_555 1_555
O7A_2 Cu2A 1_555 1_555
O7A_3 Cu2A_2 1_555 1_555
O8A P2A 1_555 1_555
O8_2 Cu4_2 1_555 1_555
O8_3 Cu4 1_555 1_555
O8A_2 Cu4A 1_555 1_555
O8A_3 Cu5 1_555 1_555
H1A C3A 1_555 1_555
H2A C5A 1_555 1_555
H3A C7A 1_555 1_555
P3A C11A 1_555 1_555
P4A C13A 1_555 1_555
C8A C9A 1_555 1_555
C9A C10A 1_555 1_555
C10A C11A 1_555 1_555
C11A C12A 1_555 1_555
C12A C13A 1_555 1_555
C13A C14A 1_555 1_555
C14A C9A 1_555 1_555
O9A C8A 1_555 1_555
O9_2 Cu1 1_555 1_555
O9A_2 Cu1A 1_555 1_555
O10A C8A 1_555 1_555
O10_2 Cu3 1_555 1_555
O10A_2 Cu3A 1_555 1_555
O11A P3A 1_555 1_555
O11_2 Cu2 1_555 1_555
O11A_2 Cu2A 1_555 1_555
O12A P3A 1_555 1_555
O12_2 Cu1A 1_555 1_555
O12A_2 Cu1 1_555 1_555
O13A P3A 1_555 1_555
O14A P4A 1_555 1_555
O15A P4A 1_555 1_555
O15_2 Cu4A 1_555 1_555
O15A_2 Cu4 1_555 1_555
O16A P4A 1_555 1_555
H4A C10A 1_555 1_555
H5A C12A 1_555 1_555
H6A C14A 1_555 1_555
Cu1A O14A 1_555 1_555
Cu1_2 O12A 1_555 1_555
Cu1_3 O4 1_555 1_555
Cu1_4 O9 1_555 1_555
Cu1A_2 O9A 1_555 1_555
Cu1A_3 O4A 1_555 1_555
Cu1A_4 O12 1_555 1_555
Cu2A O12_2 1_555 1_555
Cu2_2 O12A 1_555 1_555
Cu2_3 O7 1_555 1_555
Cu2_4 O11 1_555 1_555
Cu2A_2 O11A 1_555 1_555
Cu2A_3 O7A 1_555 1_555
Cu2A_4 O12 1_555 1_555
Cu3A O4A 1_555 1_555
Cu3_2 O7 1_555 1_555
Cu3_3 O10 1_555 1_555
Cu3A_2 O10A 1_555 1_555
Cu3A_3 O7A 1_555 1_555
O17A Cu1A 1_555 1_555
O18A Cu2A 1_555 1_555
O19A Cu3A 1_555 1_555
H7A O17A 1_555 1_555
H8A O17A 1_555 1_555
H9A O18A 1_555 1_555
H10A O18A 1_555 1_555
H11A O19A 1_555 1_555
H12A O19A 1_555 1_555
Cu4A O6 1_555 1_555
Cu4_2 O15A 1_555 1_555
Cu4_3 O8 1_555 1_555
Cu4_4 O1A 1_555 1_555
Cu4A_2 O1 1_555 1_555
Cu4A_3 O8A 1_555 1_555
Cu4A_4 O15 1_555 1_555
Cu5A O8_2 1_555 1_555
Cu5_2 O2 1_555 1_555
Cu5_3 O5 1_555 1_555
Cu5A_2 O8 1_555 1_555
Cu5A_3 O2A 1_555 1_555
O20A Cu5A 1_555 1_555
H13A O20A 1_555 1_555
H14A O20A 1_555 1_555
O13 Cu3 1_555 1_555
Cu2 O12A_2 1_555 1_555
P2A O6A 1_555 1_555
O3A Cu4A 1_555 1_555
O5A Cu5A_2 1_555 1_555
O7_2 Cu2_4 1_555 1_555
O7A_3 Cu3A 1_555 1_555
O8A Cu5_3 1_555 1_555
O8A_3 Cu4A_4 1_555 1_555
O13A Cu3A 1_555 1_555
O15A Cu5A 1_555 1_555
O16A Cu2A 1_555 1_555

#END
