
#######################################################################
#
#                 Cambridge Crystallographic Data Centre
#                                CCDC 
#
#######################################################################
#
# If this CIF has been generated from an entry in the Cambridge 
# Structural Database, then it will include bibliographic, chemical, 
# crystal, experimental, refinement or atomic coordinate data resulting 
# from the CCDC's data processing and validation procedures.
#
#######################################################################

data_OGUVIW
_symmetry_cell_setting           monoclinic
_symmetry_space_group_name_H-M   'C c'
_symmetry_Int_Tables_number      9
_space_group_name_Hall           'C -2yc'
loop_
_symmetry_equiv_pos_site_id
_symmetry_equiv_pos_as_xyz
1 x,y,z
2 x,-y,1/2+z
3 1/2+x,1/2+y,z
4 1/2+x,1/2-y,1/2+z
_cell_length_a                   11.6989(8)
_cell_length_b                   23.3258(16)
_cell_length_c                   7.8773(6)
_cell_angle_alpha                90
_cell_angle_beta                 100.374(3)
_cell_angle_gamma                90
_cell_volume                     2114.47
loop_
_atom_site_label
_atom_site_type_symbol
_atom_site_fract_x
_atom_site_fract_y
_atom_site_fract_z
Co1 Co -0.18850(7) 0.35022(3) -0.32593(12)
Mo1 Mo -0.53725(4) 0.50824(2) 0.20138(7)
Mo2 Mo -0.28545(4) 0.452720(19) 0.31646(6)
Mo3 Mo -0.40732(4) 0.38772(2) -0.04683(6)
C1 C 0.0453(6) 0.3927(3) -0.3599(9)
C2 C 0.0216(5) 0.4142(3) -0.1942(9)
C3 C -0.2145(5) 0.2339(3) -0.4538(9)
C4 C -0.1096(6) 0.1744(3) -0.2093(10)
H1 H -0.1193 0.1411 -0.2757
C5 C -0.0846(7) 0.2732(3) -0.0218(10)
H2 H -0.0769 0.3068 0.0428
C6 C 0.1433(6) 0.4090(3) -0.4235(11)
H3 H 0.1957 0.4353 -0.3644
C7 C 0.0836(7) 0.3454(3) -0.6590(11)
H4 H 0.0965 0.3272 -0.7589
C8 C 0.0885(7) 0.4463(3) -0.0646(11)
H5 H 0.1627 0.4610 -0.0620
C9 C -0.2421(8) 0.1959(3) -0.5923(11)
H6 H -0.2256 0.1570 -0.5947
C10 C -0.0145(6) 0.3327(3) -0.5897(10)
H7 H -0.0692 0.3075 -0.6488
C11 C -0.0525(7) 0.1727(3) -0.0400(11)
H8 H -0.0217 0.1384 0.0084
C12 C -0.0414(8) 0.2227(3) 0.0572(11)
H9 H -0.0058 0.2223 0.1727
C13 C -0.1524(5) 0.2264(3) -0.2789(9)
C14 C 0.1613(7) 0.3851(3) -0.5782(12)
H10 H 0.2251 0.3959 -0.6262
C15 C -0.2997(7) 0.2296(3) -0.7248(11)
H11 H -0.3296 0.2171 -0.8360
C16 C 0.0188(6) 0.4513(3) 0.0605(10)
H12 H 0.0380 0.4706 0.1651
N1 N -0.2535(5) 0.2864(2) -0.4980(8)
N2 N -0.3051(5) 0.2832(3) -0.6661(9)
N3 N -0.1370(5) 0.2757(2) -0.1877(8)
N4 N -0.0811(5) 0.4007(2) -0.1546(7)
N5 N -0.0814(5) 0.4232(2) 0.0028(7)
N6 N -0.0334(5) 0.3553(2) -0.4410(8)
O1 O -0.3653(4) 0.48106(18) -0.1398(6)
O2 O -0.2719(4) 0.39605(19) 0.1333(6)
O3 O -0.1544(4) 0.4801(2) 0.2970(8)
O4 O -0.2655(4) 0.4111(2) 0.5013(6)
O5 O -0.4635(4) 0.32602(18) 0.0195(7)
O6 O -0.3307(4) 0.36311(19) -0.2013(6)
O7 O -0.5347(4) 0.53683(19) 0.0015(7)
O8 O -0.4509(4) 0.43918(17) 0.1712(6)
O9 O -0.6748(4) 0.48164(19) 0.1888(8)
O10 O -0.5457(4) 0.42144(17) -0.1717(6)
H13 H -0.345(7) 0.315(2) -0.732(8)
H14 H -0.148(4) 0.424(4) 0.062(9)
Co1_2 Co -0.18850(7) 0.35022(3) 0.67407(12)
Mo1A Mo -0.53725(4) 0.49176(2) -0.29862(7)
Mo2A Mo -0.28545(4) 0.547280(19) -0.18354(6)
O1A O -0.3653(4) 0.51894(18) 0.3602(6)
O4_2 O -0.2655(4) 0.4111(2) -0.4987(6)
O10A O -0.5457(4) 0.57856(17) 0.3283(6)
loop_
_geom_bond_atom_site_label_1
_geom_bond_atom_site_label_2
_geom_bond_site_symmetry_1
_geom_bond_site_symmetry_2
Co1 N1 1_555 1_555
Mo1 O7 1_555 1_555
Mo2 O2 1_555 1_555
Mo3 O1 1_555 1_555
C1 C2 1_555 1_555
C2 C8 1_555 1_555
C3 C9 1_555 1_555
C4 H1 1_555 1_555
C5 H2 1_555 1_555
C6 C1 1_555 1_555
H3 C6 1_555 1_555
C7 H4 1_555 1_555
C8 H5 1_555 1_555
C9 H6 1_555 1_555
C10 C7 1_555 1_555
H7 C10 1_555 1_555
C11 C4 1_555 1_555
H8 C11 1_555 1_555
C12 C5 1_555 1_555
H9 C12 1_555 1_555
C13 C3 1_555 1_555
C14 C6 1_555 1_555
H10 C14 1_555 1_555
C15 C9 1_555 1_555
H11 C15 1_555 1_555
C16 C8 1_555 1_555
H12 C16 1_555 1_555
N1 C3 1_555 1_555
N2 C15 1_555 1_555
N3 Co1 1_555 1_555
N4 Co1 1_555 1_555
N5 C16 1_555 1_555
N6 Co1 1_555 1_555
O1 Mo1A 1_555 1_555
O2 Mo3 1_555 1_555
O3 Mo2 1_555 1_555
O4 Mo2 1_555 1_555
O5 Mo3 1_555 1_555
O6 Co1 1_555 1_555
O8 Mo1 1_555 1_555
O9 Mo1 1_555 1_555
O10 Mo3 1_555 1_555
H13 N2 1_555 1_555
H14 N5 1_555 1_555
Co1_2 O4 1_555 1_555
Mo1A O10 1_555 1_555
Mo2A O1 1_555 1_555
O1A Mo1 1_555 1_555
O4_2 Co1 1_555 1_555
O10A Mo1 1_555 1_555
Mo2 O8 1_555 1_555
Mo2 O1A 1_555 1_555
Mo3 O6 1_555 1_555
Mo3 O8 1_555 1_555
C1 N6 1_555 1_555
C2 N4 1_555 1_555
C4 C13 1_555 1_555
C5 N3 1_555 1_555
C7 C14 1_555 1_555
C10 N6 1_555 1_555
C11 C12 1_555 1_555
C13 N3 1_555 1_555
N1 N2 1_555 1_555
N4 N5 1_555 1_555

#END
