
#######################################################################
#
#                 Cambridge Crystallographic Data Centre
#                                CCDC 
#
#######################################################################
#
# If this CIF has been generated from an entry in the Cambridge 
# Structural Database, then it will include bibliographic, chemical, 
# crystal, experimental, refinement or atomic coordinate data resulting 
# from the CCDC's data processing and validation procedures.
#
#######################################################################

data_OGUWAP
_symmetry_cell_setting           monoclinic
_symmetry_space_group_name_H-M   'P 21/c'
_symmetry_Int_Tables_number      14
_space_group_name_Hall           '-P 2ybc'
loop_
_symmetry_equiv_pos_site_id
_symmetry_equiv_pos_as_xyz
1 x,y,z
2 -x,1/2+y,1/2-z
3 -x,-y,-z
4 x,1/2-y,1/2+z
_cell_length_a                   21.1518(9)
_cell_length_b                   14.4928(6)
_cell_length_c                   18.1169(8)
_cell_angle_alpha                90
_cell_angle_beta                 111.6400(10)
_cell_angle_gamma                90
_cell_volume                     5162.28
loop_
_atom_site_label
_atom_site_type_symbol
_atom_site_fract_x
_atom_site_fract_y
_atom_site_fract_z
W1 W 0.257592(8) 0.731383(12) 0.247557(9)
Cu1 Cu -0.07342(3) 0.90174(3) 0.01710(3)
Cu2 Cu 0.11529(2) 0.89523(3) 0.14132(3)
Cu3 Cu 0.39905(3) 0.89206(4) 0.35707(3)
Cu4 Cu 0.54651(3) 0.88125(4) 0.56964(3)
C1 C -0.2176(3) 0.7859(4) -0.0865(3)
H1 H -0.2390 0.8429 -0.0998
C2 C -0.2556(3) 0.7094(4) -0.1144(3)
H2 H -0.3013 0.7140 -0.1469
C3 C -0.2248(3) 0.6246(4) -0.0934(3)
H3 H -0.2498 0.5707 -0.1105
C4 C -0.1554(3) 0.6200(3) -0.0461(3)
H4 H -0.1335 0.5635 -0.0314
C5 C -0.1205(2) 0.7020(3) -0.0221(2)
C6 C -0.0477(2) 0.7056(3) 0.0257(2)
C7 C 0.0020(2) 0.6385(3) 0.0517(2)
H5 H -0.0029 0.5751 0.0439
C8 C 0.0612(2) 0.6877(3) 0.0925(2)
H6 H 0.1039 0.6612 0.1172
C9 C 0.1850(2) 0.8818(3) -0.0440(2)
H7 H 0.2073 0.8527 -0.0732
C10 C 0.1484(2) 0.9630(3) -0.0614(2)
C11 C 0.1309(2) 1.0274(3) -0.1276(2)
C12 C 0.1493(2) 1.0157(3) -0.1933(2)
H8 H 0.1735 0.9640 -0.1980
C13 C 0.1303(3) 1.0837(3) -0.2517(3)
H9 H 0.1414 1.0774 -0.2966
C14 C 0.0954(2) 1.1597(3) -0.2429(2)
H10 H 0.0838 1.2063 -0.2809
C15 C 0.0780(2) 1.1662(3) -0.1776(2)
H11 H 0.0539 1.2178 -0.1720
C16 C 0.0106(2) 1.1453(3) 0.1010(2)
H12 H -0.0102 1.1982 0.0738
C17 C 0.0109(2) 1.1187(3) 0.1747(2)
H13 H -0.0080 1.1497 0.2066
C18 C 0.0452(2) 1.0359(3) 0.1899(2)
C19 C 0.0624(2) 0.9699(3) 0.2546(2)
C20 C 0.0479(2) 0.9821(3) 0.3227(2)
H14 H 0.0265 1.0355 0.3300
C21 C 0.0657(2) 0.9137(3) 0.3788(3)
H15 H 0.0573 0.9206 0.4255
C22 C 0.0960(2) 0.8350(3) 0.3657(2)
H16 H 0.1072 0.7876 0.4029
C23 C 0.1097(2) 0.8262(3) 0.2979(2)
H17 H 0.1302 0.7725 0.2895
C24 C 0.1807(2) 0.8536(3) 0.0267(2)
H18 H 0.2005 0.8002 0.0539
C25 C 0.2626(2) 1.0155(4) 0.3066(3)
H19 H 0.2313 0.9708 0.2788
C26 C 0.3597(2) 0.9102(3) 0.1792(2)
H20 H 0.3148 0.9067 0.1762
C27 C 0.3724(3) 0.9117(3) 0.1100(2)
H21 H 0.3369 0.9088 0.0609
C28 C 0.4391(3) 0.9175(3) 0.1149(3)
H22 H 0.4489 0.9175 0.0689
C29 C 0.4914(2) 0.9233(3) 0.1884(2)
H23 H 0.5364 0.9289 0.1926
C30 C 0.4748(2) 0.9206(3) 0.2562(2)
C31 C 0.5235(2) 0.9236(3) 0.3370(2)
C32 C 0.5924(2) 0.9382(3) 0.3694(2)
H24 H 0.6218 0.9492 0.3429
C33 C 0.6084(2) 0.9329(3) 0.4513(2)
H25 H 0.6516 0.9409 0.4898
C34 C 0.3393(2) 0.8354(3) 0.4729(2)
H26 H 0.2962 0.8300 0.4337
C35 C 0.3541(2) 0.8226(3) 0.5531(2)
H27 H 0.3242 0.8079 0.5782
C36 C 0.4232(2) 0.8363(3) 0.5873(2)
C37 C 0.4711(2) 0.8351(3) 0.6692(2)
C38 C 0.4541(2) 0.8157(3) 0.7345(2)
H28 H 0.4094 0.8024 0.7282
C39 C 0.5045(2) 0.8165(3) 0.8086(3)
H29 H 0.4942 0.8039 0.8533
C40 C 0.5708(2) 0.8362(3) 0.8167(2)
H30 H 0.6057 0.8363 0.8663
C41 C 0.5837(2) 0.8557(3) 0.7490(2)
H31 H 0.6281 0.8695 0.7543
C42 C 0.4160(2) 1.3361(3) 0.4585(2)
H32 H 0.4626 1.3470 0.4790
C43 C 0.3736(3) 1.4054(3) 0.4638(3)
H33 H 0.3910 1.4617 0.4871
C44 C 0.3047(3) 1.3891(4) 0.4337(3)
H34 H 0.2746 1.4346 0.4363
C45 C 0.2805(3) 1.3041(4) 0.3994(3)
H35 H 0.2341 1.2915 0.3795
C46 C 0.3268(2) 1.2381(3) 0.3952(2)
C47 C 0.3072(2) 1.1457(3) 0.3615(2)
C48 C 0.2460(2) 1.1043(4) 0.3195(3)
H36 H 0.2028 1.1305 0.3033
N1 N -0.15137(18) 0.7851(3) -0.0412(2)
N2 N -0.01907(17) 0.7882(2) 0.05042(18)
N3 N 0.04474(17) 1.0839(2) 0.07480(18)
N4 N 0.12454(16) 0.9831(2) -0.00338(18)
N5 N 0.09436(17) 1.1007(2) -0.12096(18)
N6 N 0.04855(16) 0.7776(2) 0.09143(18)
N7 N 0.14425(16) 0.9137(2) 0.05110(18)
N8 N 0.06576(17) 1.0148(2) 0.12923(18)
N9 N 0.09405(17) 0.8938(2) 0.24315(18)
N10 N 0.33041(17) 1.0023(2) 0.34004(19)
N11 N 0.40986(18) 0.9137(2) 0.25108(19)
N12 N 0.49894(17) 0.9099(2) 0.39491(18)
N13 N 0.55228(17) 0.9145(2) 0.46602(18)
N14 N 0.39575(17) 0.8566(3) 0.45953(19)
N15 N 0.44783(17) 0.8571(2) 0.53088(18)
N16 N 0.53568(17) 0.8557(2) 0.67667(18)
N17 N 0.39418(18) 1.2536(2) 0.4255(2)
N18 N 0.35755(17) 1.0839(2) 0.37331(18)
O1 O 0.19737(14) 0.8176(2) 0.19520(15)
O2 O 0.26989(16) 0.6505(2) 0.18121(15)
O3 O 0.22745(16) 0.6728(2) 0.31193(16)
O4 O 0.33662(14) 0.7827(2) 0.30463(16)
Cu1B Cu 0.07342(3) 1.09826(3) -0.01710(3)
Cu4B Cu 0.45349(3) 1.11875(4) 0.43036(3)
N3B N -0.04474(17) 0.9161(2) -0.07480(18)
N4B N -0.12454(16) 1.0169(2) 0.00338(18)
N5B N -0.09436(17) 0.8993(2) 0.12096(18)
N17B N 0.60582(18) 0.7464(2) 0.5745(2)
N18B N 0.64245(17) 0.9161(2) 0.62669(18)
O5 O 0.3407(2) 0.5029(3) 0.2760(2)
H37 H 0.323(2) 0.550(3) 0.244(3)
H38 H 0.3039(18) 0.484(3) 0.284(3)
O6 O 0.4101(2) 0.6234(3) 0.42195(19)
H39 H 0.397(3) 0.599(3) 0.3741(17)
H40 H 0.383(2) 0.669(3) 0.419(3)
O7 O 0.8040(3) 0.4072(5) 0.9674(3)
H41 H 0.775(2) 0.402(4) 0.9147(16)
H42 H 0.8397(19) 0.435(4) 0.963(3)
loop_
_geom_bond_atom_site_label_1
_geom_bond_atom_site_label_2
_geom_bond_site_symmetry_1
_geom_bond_site_symmetry_2
W1 O1 1_555 1_555
Cu1 N1 1_555 1_555
Cu2 N6 1_555 1_555
Cu3 N10 1_555 1_555
Cu4 N13 1_555 1_555
C1 H1 1_555 1_555
C2 C1 1_555 1_555
H2 C2 1_555 1_555
C3 C2 1_555 1_555
H3 C3 1_555 1_555
C4 C3 1_555 1_555
H4 C4 1_555 1_555
C5 C4 1_555 1_555
C6 C5 1_555 1_555
C7 C6 1_555 1_555
H5 C7 1_555 1_555
C8 C7 1_555 1_555
H6 C8 1_555 1_555
C9 H7 1_555 1_555
C10 C9 1_555 1_555
C11 C10 1_555 1_555
C12 C11 1_555 1_555
H8 C12 1_555 1_555
C13 C12 1_555 1_555
H9 C13 1_555 1_555
C14 C13 1_555 1_555
H10 C14 1_555 1_555
C15 C14 1_555 1_555
H11 C15 1_555 1_555
C16 H12 1_555 1_555
C17 C16 1_555 1_555
H13 C17 1_555 1_555
C18 C17 1_555 1_555
C19 C18 1_555 1_555
C20 C19 1_555 1_555
H14 C20 1_555 1_555
C21 C20 1_555 1_555
H15 C21 1_555 1_555
C22 C21 1_555 1_555
H16 C22 1_555 1_555
C23 C22 1_555 1_555
H17 C23 1_555 1_555
C24 C9 1_555 1_555
H18 C24 1_555 1_555
C25 H19 1_555 1_555
C26 H20 1_555 1_555
C27 C26 1_555 1_555
H21 C27 1_555 1_555
C28 C27 1_555 1_555
H22 C28 1_555 1_555
C29 C28 1_555 1_555
H23 C29 1_555 1_555
C30 C29 1_555 1_555
C31 C30 1_555 1_555
C32 C31 1_555 1_555
H24 C32 1_555 1_555
C33 C32 1_555 1_555
H25 C33 1_555 1_555
C34 H26 1_555 1_555
C35 C34 1_555 1_555
H27 C35 1_555 1_555
C36 C35 1_555 1_555
C37 C36 1_555 1_555
C38 C37 1_555 1_555
H28 C38 1_555 1_555
C39 C38 1_555 1_555
H29 C39 1_555 1_555
C40 C39 1_555 1_555
H30 C40 1_555 1_555
C41 C40 1_555 1_555
H31 C41 1_555 1_555
C42 H32 1_555 1_555
C43 C42 1_555 1_555
H33 C43 1_555 1_555
C44 C43 1_555 1_555
H34 C44 1_555 1_555
C45 C44 1_555 1_555
H35 C45 1_555 1_555
C46 C45 1_555 1_555
C47 C46 1_555 1_555
C48 C25 1_555 1_555
H36 C48 1_555 1_555
N1 C1 1_555 1_555
N2 Cu1 1_555 1_555
N3 C16 1_555 1_555
N4 C10 1_555 1_555
N5 C11 1_555 1_555
N6 C8 1_555 1_555
N7 Cu2 1_555 1_555
N8 Cu2 1_555 1_555
N9 Cu2 1_555 1_555
N10 C25 1_555 1_555
N11 Cu3 1_555 1_555
N12 Cu3 1_555 1_555
N13 C33 1_555 1_555
N14 Cu3 1_555 1_555
N15 Cu4 1_555 1_555
N16 Cu4 1_555 1_555
N17 C42 1_555 1_555
N18 C47 1_555 1_555
O1 Cu2 1_555 1_555
O2 W1 1_555 1_555
O3 W1 1_555 1_555
O4 W1 1_555 1_555
O5 H37 1_555 1_555
O6 H39 1_555 1_555
H38 O5 1_555 1_555
H40 O6 1_555 1_555
O7 H41 1_555 1_555
H42 O7 1_555 1_555
Cu1B N3 1_555 1_555
Cu4B N17 1_555 1_555
N3B Cu1 1_555 1_555
N4B Cu1 1_555 1_555
N5B Cu1 1_555 1_555
N17B Cu4 1_555 1_555
N18B Cu4 1_555 1_555
Cu3 O4 1_555 1_555
C5 N1 1_555 1_555
C6 N2 1_555 1_555
C15 N5 1_555 1_555
C18 N8 1_555 1_555
C19 N9 1_555 1_555
C23 N9 1_555 1_555
C24 N7 1_555 1_555
C26 N11 1_555 1_555
C30 N11 1_555 1_555
C31 N12 1_555 1_555
C34 N14 1_555 1_555
C36 N15 1_555 1_555
C37 N16 1_555 1_555
C41 N16 1_555 1_555
C46 N17 1_555 1_555
C47 C48 1_555 1_555
N2 N6 1_555 1_555
N3 N8 1_555 1_555
N4 N7 1_555 1_555
N4 Cu1B 1_555 1_555
N5 Cu1B 1_555 1_555
N10 N18 1_555 1_555
N12 N13 1_555 1_555
N14 N15 1_555 1_555
N18 Cu4B 1_555 1_555

#END
