
#######################################################################
#
#                 Cambridge Crystallographic Data Centre
#                                CCDC 
#
#######################################################################
#
# If this CIF has been generated from an entry in the Cambridge 
# Structural Database, then it will include bibliographic, chemical, 
# crystal, experimental, refinement or atomic coordinate data resulting 
# from the CCDC's data processing and validation procedures.
#
#######################################################################

data_OHAJEN
_symmetry_cell_setting           monoclinic
_symmetry_space_group_name_H-M   'P 21/c'
_symmetry_Int_Tables_number      14
_space_group_name_Hall           '-P 2ybc'
loop_
_symmetry_equiv_pos_site_id
_symmetry_equiv_pos_as_xyz
1 x,y,z
2 -x,1/2+y,1/2-z
3 -x,-y,-z
4 x,1/2-y,1/2+z
_cell_length_a                   12.618(4)
_cell_length_b                   13.076(4)
_cell_length_c                   8.739(3)
_cell_angle_alpha                90
_cell_angle_beta                 106.414(4)
_cell_angle_gamma                90
_cell_volume                     1383.11
loop_
_atom_site_label
_atom_site_type_symbol
_atom_site_fract_x
_atom_site_fract_y
_atom_site_fract_z
Zn1 Zn 0.0000 0.5000 0.0000
C1 C 0.24521(16) 0.41067(15) 0.0726(2)
H1 H 0.2326 0.4261 -0.0373
C2 C 0.34833(16) 0.37437(15) 0.1559(2)
C3 C 0.36528(17) 0.34903(16) 0.3163(2)
H2 H 0.4347 0.3234 0.3779
C4 C 0.27938(17) 0.36176(16) 0.3845(2)
H3 H 0.2888 0.3441 0.4930
C5 C 0.17975(17) 0.40053(16) 0.2924(2)
H4 H 0.1218 0.4098 0.3407
C6 C 0.43808(17) 0.36465(15) 0.0764(2)
C7 C 0.41754(17) 0.40528(17) -0.0908(2)
H5 H 0.4858 0.4010 -0.1229
H6 H 0.3936 0.4767 -0.0943
H7 H 0.3599 0.3645 -0.1640
C8 C 0.95736(17) 0.26782(16) -0.0586(2)
H8 H 1.0218 0.2749 -0.0935
C9 C 0.90960(16) 0.17282(16) -0.0656(2)
H9 H 0.9413 0.1157 -0.1035
C10 C 0.81449(17) 0.16108(16) -0.0167(2)
H10 H 0.7805 0.0960 -0.0204
C11 C 0.77002(16) 0.24663(15) 0.0379(2)
C12 C 0.82515(16) 0.33908(16) 0.0434(2)
H11 H 0.7964 0.3972 0.0834
C13 C 0.66877(16) 0.24017(16) 0.0930(2)
C14 C 0.63641(19) 0.13861(16) 0.1441(3)
H12 H 0.5838 0.1486 0.2065
H13 H 0.7022 0.1035 0.2096
H14 H 0.6020 0.0972 0.0497
N1 N 0.16101(13) 0.42566(13) 0.13788(19)
N2 N 0.52761(14) 0.32202(13) 0.1588(2)
N3 N 0.61627(14) 0.32431(14) 0.0914(2)
N4 N 0.91663(13) 0.35143(13) -0.00441(19)
N5 N -0.02545(14) 0.53468(14) 0.22238(19)
N6 N -0.08927(14) 0.57465(14) 0.28025(19)
N7 N -0.14983(17) 0.6133(2) 0.3417(2)
Zn1_2 Zn -1.0000 0.5000 0.0000
Zn1_3 Zn 1.0000 0.5000 0.0000
C1B C -0.24521(16) 0.58933(15) -0.0726(2)
H1B H -0.2326 0.5739 0.0373
C2B C -0.34833(16) 0.62563(15) -0.1559(2)
C3B C -0.36528(17) 0.65097(16) -0.3163(2)
H2B H -0.4347 0.6766 -0.3779
C4B C -0.27938(17) 0.63824(16) -0.3845(2)
H3B H -0.2888 0.6559 -0.4930
C5B C -0.17975(17) 0.59947(16) -0.2924(2)
H4B H -0.1218 0.5902 -0.3407
C6B C -0.43808(17) 0.63535(15) -0.0764(2)
C7B C -0.41754(17) 0.59472(17) 0.0908(2)
H5B H -0.4858 0.5990 0.1229
H6B H -0.3936 0.5233 0.0943
H7B H -0.3599 0.6355 0.1640
C8B C -0.95736(17) 0.73218(16) 0.0586(2)
H8B H -1.0218 0.7251 0.0935
C9B C -0.90960(16) 0.82718(16) 0.0656(2)
H9B H -0.9413 0.8843 0.1035
C10B C -0.81449(17) 0.83892(16) 0.0167(2)
H10B H -0.7805 0.9040 0.0204
C11B C -0.77002(16) 0.75337(15) -0.0379(2)
C12B C -0.82515(16) 0.66092(16) -0.0434(2)
H11B H -0.7964 0.6028 -0.0834
C13B C -0.66877(16) 0.75983(16) -0.0930(2)
C14B C -0.63641(19) 0.86139(16) -0.1441(3)
H12B H -0.5838 0.8514 -0.2065
H13B H -0.7022 0.8965 -0.2096
H14B H -0.6020 0.9028 -0.0497
N1B N -0.16101(13) 0.57434(13) -0.13788(19)
N2B N -0.52761(14) 0.67798(13) -0.1588(2)
N3B N -0.61627(14) 0.67569(14) -0.0914(2)
N4B N -0.91663(13) 0.64857(13) 0.00441(19)
N4_2 N -0.08337(13) 0.35143(13) -0.00441(19)
N4B_2 N 0.08337(13) 0.64857(13) 0.00441(19)
N5B N 0.02545(14) 0.46532(14) -0.22238(19)
N6B N 0.08927(14) 0.42535(14) -0.28025(19)
N7B N 0.14983(17) 0.3867(2) -0.3417(2)
loop_
_geom_bond_atom_site_label_1
_geom_bond_atom_site_label_2
_geom_bond_site_symmetry_1
_geom_bond_site_symmetry_2
Zn1 N1 1_555 1_555
C1 H1 1_555 1_555
C2 C1 1_555 1_555
C3 C2 1_555 1_555
H2 C3 1_555 1_555
C4 C3 1_555 1_555
H3 C4 1_555 1_555
C5 C4 1_555 1_555
H4 C5 1_555 1_555
C6 C2 1_555 1_555
C7 C6 1_555 1_555
H5 C7 1_555 1_555
H6 C7 1_555 1_555
H7 C7 1_555 1_555
C8 H8 1_555 1_555
C9 C8 1_555 1_555
H9 C9 1_555 1_555
C10 C9 1_555 1_555
H10 C10 1_555 1_555
C11 C10 1_555 1_555
C12 C11 1_555 1_555
H11 C12 1_555 1_555
C13 C11 1_555 1_555
C14 C13 1_555 1_555
H12 C14 1_555 1_555
H13 C14 1_555 1_555
H14 C14 1_555 1_555
N1 C1 1_555 1_555
N2 C6 1_555 1_555
N3 C13 1_555 1_555
N4 C8 1_555 1_555
N5 Zn1 1_555 1_555
N6 N5 1_555 1_555
N7 N6 1_555 1_555
Zn1_2 N4B 1_555 1_555
Zn1_3 N4 1_555 1_555
C1B H1B 1_555 1_555
C2B C1B 1_555 1_555
C3B C2B 1_555 1_555
H2B C3B 1_555 1_555
C4B C3B 1_555 1_555
H3B C4B 1_555 1_555
C5B C4B 1_555 1_555
H4B C5B 1_555 1_555
C6B C2B 1_555 1_555
C7B C6B 1_555 1_555
H5B C7B 1_555 1_555
H6B C7B 1_555 1_555
H7B C7B 1_555 1_555
C8B H8B 1_555 1_555
C9B C8B 1_555 1_555
H9B C9B 1_555 1_555
C10B C9B 1_555 1_555
H10B C10B 1_555 1_555
C11B C10B 1_555 1_555
C12B C11B 1_555 1_555
H11B C12B 1_555 1_555
C13B C11B 1_555 1_555
C14B C13B 1_555 1_555
H12B C14B 1_555 1_555
H13B C14B 1_555 1_555
H14B C14B 1_555 1_555
N1B Zn1 1_555 1_555
N2B C6B 1_555 1_555
N3B C13B 1_555 1_555
N4B C8B 1_555 1_555
N4_2 Zn1 1_555 1_555
N4B_2 Zn1 1_555 1_555
N5B Zn1 1_555 1_555
N6B N5B 1_555 1_555
N7B N6B 1_555 1_555
C5 N1 1_555 1_555
C12 N4 1_555 1_555
N2 N3 1_555 1_555
C1B N1B 1_555 1_555
C5B N1B 1_555 1_555
C12B N4B 1_555 1_555
N2B N3B 1_555 1_555

#END
