
#######################################################################
#
#                 Cambridge Crystallographic Data Centre
#                                CCDC 
#
#######################################################################
#
# If this CIF has been generated from an entry in the Cambridge 
# Structural Database, then it will include bibliographic, chemical, 
# crystal, experimental, refinement or atomic coordinate data resulting 
# from the CCDC's data processing and validation procedures.
#
#######################################################################

data_OHANIW
_symmetry_cell_setting           orthorhombic
_symmetry_space_group_name_H-M   'P 21 21 2'
_symmetry_Int_Tables_number      18
_space_group_name_Hall           'P 2 2ab'
loop_
_symmetry_equiv_pos_site_id
_symmetry_equiv_pos_as_xyz
1 x,y,z
2 -x,-y,z
3 1/2+x,1/2-y,-z
4 1/2-x,1/2+y,-z
_cell_length_a                   14.2642(17)
_cell_length_b                   42.291(5)
_cell_length_c                   9.6129(11)
_cell_angle_alpha                90
_cell_angle_beta                 90
_cell_angle_gamma                90
_cell_volume                     5798.96
loop_
_atom_site_label
_atom_site_type_symbol
_atom_site_fract_x
_atom_site_fract_y
_atom_site_fract_z
Zn1 Zn 1.0000 0.0000 0.31704(13)
N1 N 0.8963(4) -0.01491(14) 0.1860(7)
O1 O 0.9451(4) 0.03689(14) 0.4100(6)
C1 C 0.8750(6) -0.04422(19) 0.1504(9)
C2 C 0.8372(9) 0.0072(2) 0.1389(15)
C3 C 0.8737(5) 0.0280(2) 0.4799(8)
H1 H 0.9131 -0.0605 0.1829
C4 C 0.7996(6) -0.05209(19) 0.0677(10)
H2 H 0.8493 0.0280 0.1638
C5 C 0.7619(8) 0.0017(2) 0.0584(14)
C6 C 0.8151(5) 0.05336(18) 0.5462(9)
O2 O 0.8538(5) -0.00038(17) 0.4980(7)
H3 H 0.7856 -0.0732 0.0496
C7 C 0.7456(6) -0.0286(2) 0.0126(9)
H4 H 0.7216 0.0181 0.0343
C8 C 0.8335(5) 0.08524(18) 0.5197(8)
C9 C 0.7397(5) 0.04551(19) 0.6303(8)
C10 C 0.6657(6) -0.0357(2) -0.0850(12)
C11 C 0.7803(5) 0.10843(18) 0.5817(8)
H5 H 0.8819 0.0908 0.4599
C12 C 0.6857(5) 0.06939(17) 0.6917(9)
H6 H 0.7249 0.0244 0.6460
H7 H 0.6908 -0.0391 -0.1776
H8 H 0.6358 -0.0552 -0.0557
N2 N 0.5954(4) -0.01091(16) -0.0913(7)
C13 C 0.7055(5) 0.10027(18) 0.6708(8)
H9 H 0.7937 0.1296 0.5647
H10 H 0.6353 0.0639 0.7480
C14 C 0.5371(5) -0.0127(2) -0.2119(8)
C15 C 0.5376(7) -0.0130(2) 0.0320(10)
N3 N 0.6525(4) 0.12462(15) 0.7378(7)
H11 H 0.5072 -0.0333 -0.2153
H12 H 0.5756 -0.0105 -0.2945
H13 H 0.5766 -0.0109 0.1141
H14 H 0.5075 -0.0336 0.0353
C16 C 0.5555(5) 0.12024(17) 0.7613(8)
C17 C 0.6955(5) 0.15329(17) 0.7837(7)
C18 C 0.5145(5) 0.13030(19) 0.8850(7)
C19 C 0.4997(5) 0.10683(18) 0.6566(7)
C20 C 0.7860(5) 0.15256(18) 0.8368(8)
C21 C 0.6462(7) 0.1812(2) 0.7790(8)
C22 C 0.4187(5) 0.12945(18) 0.9000(8)
H15 H 0.5519 0.1376 0.9574
C23 C 0.4028(5) 0.10549(16) 0.6762(8)
H16 H 0.5268 0.0990 0.5757
C24 C 0.8262(6) 0.1806(2) 0.8854(10)
H17 H 0.8194 0.1337 0.8399
C25 C 0.6869(6) 0.20900(19) 0.8295(10)
H18 H 0.5859 0.1816 0.7423
C26 C 0.3625(4) 0.11758(15) 0.7962(7)
H19 H 0.3915 0.1370 0.9815
H20 H 0.3650 0.0964 0.6082
C27 C 0.7751(8) 0.2088(2) 0.8831(11)
H21 H 0.8872 0.1804 0.9196
H22 H 0.6532 0.2278 0.8265
C28 C 0.2580(5) 0.11752(17) 0.8126(8)
H23 H 0.8014 0.2273 0.9179
O3 O 0.2112(4) 0.10517(16) 0.7163(7)
O4 O 0.2261(4) 0.12925(15) 0.9214(6)
Zn2 Zn 0.07856(7) 0.09433(3) 0.68461(14)
Zn3 Zn 0.09680(7) 0.14138(3) 0.95523(10)
O5 O 0.0346(5) 0.10110(17) 0.9226(11)
O6 O 0.0981(10) 0.0467(3) 0.7116(12)
O7 O 0.0829(5) 0.0840(2) 0.4735(9)
O8 O 0.0177(4) 0.13546(14) 0.6376(7)
O9 O 0.1009(5) 0.16622(15) 1.1207(7)
O10 O 0.0538(4) 0.16932(15) 0.8081(7)
C29 C -0.0372(7) 0.0872(3) 0.9298(13)
C30 C 0.1337(7) 0.1526(3) 1.2311(11)
C31 C -0.1145(5) 0.09310(19) 1.0231(8)
O11 O -0.0421(13) 0.0513(3) 0.880(2)
C32 C 0.1836(6) 0.1740(2) 1.3349(10)
O12 O 0.1298(7) 0.12346(19) 1.2525(10)
C33 C -0.2018(6) 0.07963(19) 0.9986(9)
C34 C -0.1090(5) 0.1149(2) 1.1326(8)
C35 C 0.1779(6) 0.2067(2) 1.3178(11)
C36 C 0.2390(7) 0.1615(2) 1.4392(10)
C37 C -0.2802(5) 0.08827(17) 1.0675(8)
H24 H -0.2064 0.0639 0.9315
C38 C -0.1871(5) 0.12411(19) 1.2045(8)
H25 H -0.0510 0.1233 1.1569
H26 H 0.1417 0.2152 1.2465
C39 C 0.2261(6) 0.2265(2) 1.4070(9)
H27 H 0.2433 0.1398 1.4504
C40 C 0.2884(7) 0.1816(2) 1.5275(11)
C41 C -0.2745(5) 0.11133(18) 1.1718(8)
H28 H -0.3375 0.0790 1.0459
H29 H -0.1820 0.1389 1.2754
H30 H 0.2197 0.2483 1.3975
C42 C 0.2848(6) 0.21431(19) 1.5120(9)
H31 H 0.3246 0.1729 1.5984
N4 N -0.3553(5) 0.12234(15) 1.2421(7)
N5 N 0.3370(5) 0.23519(17) 1.5990(7)
C43 C -0.4309(5) 0.10163(19) 1.2741(8)
C44 C -0.3632(5) 0.15535(18) 1.2711(8)
C45 C 0.3846(5) 0.26084(19) 1.5317(9)
C46 C 0.3510(6) 0.2285(2) 1.7430(9)
C47 C -0.5243(6) 0.1122(2) 1.2635(9)
C48 C -0.4125(6) 0.07125(18) 1.3190(9)
C49 C -0.3956(8) 0.1652(2) 1.3981(9)
C50 C -0.3375(5) 0.17725(19) 1.1717(9)
C51 C 0.4246(6) 0.2564(2) 1.3971(9)
C52 C 0.3931(6) 0.2907(2) 1.5949(10)
C53 C 0.2795(8) 0.2150(2) 1.8179(11)
C54 C 0.4349(7) 0.2347(3) 1.8062(11)
C55 C -0.5957(5) 0.0925(3) 1.3020(9)
H32 H -0.5373 0.1324 1.2305
C56 C -0.4841(7) 0.0512(2) 1.3567(8)
H33 H -0.3508 0.0642 1.3238
C57 C -0.3992(9) 0.1977(2) 1.4245(11)
H34 H -0.4147 0.1507 1.4650
C58 C -0.3405(6) 0.20936(19) 1.2033(9)
H35 H -0.3183 0.1706 1.0840
C59 C 0.4686(6) 0.28063(19) 1.3326(10)
H36 H 0.4204 0.2368 1.3537
C60 C 0.4380(6) 0.3145(2) 1.5222(10)
H37 H 0.3692 0.2943 1.6834
H38 H 0.2223 0.2106 1.7758
C61 C 0.2941(10) 0.2079(2) 1.9610(12)
H39 H 0.4832 0.2437 1.7549
C62 C 0.4493(8) 0.2276(3) 1.9455(11)
C63 C -0.5762(7) 0.0615(3) 1.3516(9)
H40 H -0.6575 0.0994 1.2958
H41 H -0.4706 0.0307 1.3857
C64 C -0.3711(6) 0.2196(2) 1.3284(9)
H42 H -0.4214 0.2047 1.5102
H43 H -0.3212 0.2240 1.1371
C65 C 0.4750(5) 0.31085(19) 1.3910(9)
H44 H 0.4956 0.2771 1.2459
H45 H 0.4434 0.3342 1.5646
C66 C 0.3790(12) 0.2134(3) 2.0192(11)
H46 H 0.2456 0.1996 2.0143
H47 H 0.5060 0.2324 1.9882
C67 C -0.6530(13) 0.0403(5) 1.3973(12)
H48 H -0.3729 0.2411 1.3487
C68 C 0.5206(6) 0.33791(19) 1.3118(10)
H49 H 0.3896 0.2074 2.1109
O13 O -0.7325(7) 0.0512(3) 1.4159(11)
O14 O -0.6410(11) 0.0127(4) 1.4196(14)
N1A N 1.1037(4) 0.01491(14) 0.1860(7)
O1A O 1.0549(4) -0.03689(14) 0.4100(6)
C14A C 0.4629(5) 0.0127(2) -0.2119(8)
C15A C 0.4624(7) 0.0130(2) 0.0320(10)
H11A H 0.4928 0.0333 -0.2153
H12A H 0.4244 0.0105 -0.2945
N2A N 0.4046(4) 0.01091(16) -0.0913(7)
H13A H 0.4234 0.0109 0.1141
H14A H 0.4925 0.0336 0.0353
C10A C 0.3343(6) 0.0357(2) -0.0850(12)
C7A C 0.2544(6) 0.0286(2) 0.0126(9)
H7A H 0.3092 0.0391 -0.1776
H8A H 0.3642 0.0552 -0.0557
C5A C 0.2381(8) -0.0017(2) 0.0584(14)
C4A C 0.2004(6) 0.05209(19) 0.0677(10)
C2A C 0.1628(9) -0.0072(2) 0.1389(15)
H4A H 0.2784 -0.0181 0.0343
C1A C 0.1250(6) 0.04422(19) 0.1504(9)
H3A H 0.2144 0.0732 0.0496
H2A H 0.1507 -0.0280 0.1638
N1A_2 N 0.1037(4) 0.01491(14) 0.1860(7)
H1A H 0.0869 0.0605 0.1829
Zn1_2 Zn 0.0000 0.0000 0.31704(13)
O10B O 0.5538(4) 0.33068(15) 1.1919(7)
O8B O 0.5177(4) 0.36454(14) 1.3624(7)
Zn3B Zn 0.59680(7) 0.35862(3) 1.04477(10)
Zn2B Zn 0.57856(7) 0.40567(3) 1.31539(14)
O5B O 0.5346(5) 0.39890(17) 1.0774(11)
O9B O 0.6009(5) 0.33378(15) 0.8793(7)
O4B O 0.7261(4) 0.37075(15) 1.0786(6)
O6B O 0.5981(10) 0.4533(3) 1.2884(12)
O7B O 0.5829(5) 0.4160(2) 1.5265(9)
O3B O 0.7112(4) 0.39483(16) 1.2837(7)
Zn2_2 Zn 1.07856(7) 0.09433(3) 0.68461(14)
Zn3_2 Zn 1.09680(7) 0.14138(3) 0.95523(10)
C29B C 0.4628(7) 0.4128(3) 1.0702(13)
C30B C 0.6337(7) 0.3474(3) 0.7689(11)
C28B C 0.7580(5) 0.38248(17) 1.1874(8)
O8_2 O 1.0177(4) 0.13546(14) 0.6376(7)
O10_2 O 1.0538(4) 0.16932(15) 0.8081(7)
C31B C 0.3855(5) 0.40690(19) 0.9769(8)
O11B O 0.4579(13) 0.4487(3) 1.120(2)
C32B C 0.6836(6) 0.3260(2) 0.6651(10)
O12B O 0.6298(7) 0.37654(19) 0.7475(10)
C26B C 0.8625(4) 0.38242(15) 1.2038(7)
C68B C 1.0206(6) 0.16209(19) 0.6882(10)
C33B C 0.2982(6) 0.42037(19) 1.0014(9)
C34B C 0.3910(5) 0.3851(2) 0.8674(8)
C35B C 0.6779(6) 0.2933(2) 0.6822(11)
C36B C 0.7390(7) 0.3385(2) 0.5608(10)
C23B C 0.9028(5) 0.39451(16) 1.3238(8)
C22B C 0.9187(5) 0.37055(18) 1.1000(8)
C65B C 0.9750(5) 0.18915(19) 0.6090(9)
C37B C 0.2198(5) 0.41173(17) 0.9325(8)
H24B H 0.2936 0.4361 1.0685
C38B C 0.3129(5) 0.37589(19) 0.7955(8)
H25B H 0.4490 0.3767 0.8431
H26B H 0.6417 0.2848 0.7535
C39B C 0.7261(6) 0.2735(2) 0.5930(9)
H27B H 0.7433 0.3602 0.5496
C40B C 0.7884(7) 0.3184(2) 0.4725(11)
H20B H 0.8650 0.4036 1.3918
C19B C 0.9997(5) 0.39317(18) 1.3434(7)
H19B H 0.8915 0.3630 1.0185
C18B C 1.0145(5) 0.36970(19) 1.1150(7)
C59B C 0.9686(6) 0.21937(19) 0.6674(10)
C60B C 0.9380(6) 0.1855(2) 0.4778(10)
C41B C 0.2255(5) 0.38867(18) 0.8282(8)
H28B H 0.1625 0.4210 0.9541
H29B H 0.3180 0.3611 0.7246
H30B H 0.7197 0.2517 0.6025
C42B C 0.7848(6) 0.28569(19) 0.4880(9)
H31B H 0.8246 0.3271 0.4016
H16B H 1.0268 0.4010 1.4243
C16B C 1.0555(5) 0.37976(17) 1.2387(8)
H15B H 1.0519 0.3624 1.0426
C51B C 0.9246(6) 0.2436(2) 0.6029(9)
H44B H 0.9956 0.2229 0.7541
C52B C 0.8931(6) 0.2093(2) 0.4051(10)
H45B H 0.9434 0.1658 0.4354
N4B N 0.1447(5) 0.37766(15) 0.7579(7)
N5B N 0.8370(5) 0.26481(17) 0.4010(7)
N3B N 1.1525(4) 0.37538(15) 1.2622(7)
C45B C 0.8846(5) 0.23916(19) 0.4683(9)
H36B H 0.9204 0.2632 0.6463
H37B H 0.8692 0.2057 0.3166
C43B C 0.0691(5) 0.39837(19) 0.7259(8)
C44B C 0.1368(5) 0.34465(18) 0.7289(8)
C46B C 0.8510(6) 0.2715(2) 0.2570(9)
C17B C 1.1955(5) 0.34671(17) 1.2163(7)
C13B C 1.2055(5) 0.39973(18) 1.3292(8)
C47B C -0.0243(6) 0.3878(2) 0.7365(9)
C48B C 0.0875(6) 0.42875(18) 0.6810(9)
C49B C 0.1044(8) 0.3348(2) 0.6019(9)
C50B C 0.1625(5) 0.32275(19) 0.8283(9)
C53B C 0.7795(8) 0.2850(2) 0.1821(11)
C54B C 0.9349(7) 0.2653(3) 0.1938(11)
C20B C 1.2860(5) 0.34744(18) 1.1632(8)
C21B C 1.1462(7) 0.3188(2) 1.2210(8)
C12B C 1.1857(5) 0.43061(17) 1.3083(9)
C11B C 1.2803(5) 0.39157(18) 1.4183(8)
C55B C -0.0957(5) 0.4075(3) 0.6980(9)
H32B H -0.0373 0.3676 0.7695
C56B C 0.0159(7) 0.4488(2) 0.6433(8)
H33B H 0.1492 0.4358 0.6762
C57B C 0.1008(9) 0.3023(2) 0.5755(11)
H34B H 0.0853 0.3493 0.5350
C58B C 0.1595(6) 0.29064(19) 0.7967(9)
H35B H 0.1817 0.3294 0.9160
H38B H 0.7223 0.2894 0.2242
C61B C 0.7941(10) 0.2921(2) 0.0390(12)
H39B H 0.9832 0.2563 0.2451
C62B C 0.9493(8) 0.2724(3) 0.0545(11)
C24B C 1.3262(6) 0.3194(2) 1.1146(10)
H17B H 1.3194 0.3663 1.1601
C25B C 1.1869(6) 0.29100(19) 1.1705(10)
H18B H 1.0859 0.3184 1.2577
H10B H 1.1353 0.4361 1.2520
C9B C 1.2397(5) 0.45449(19) 1.3697(8)
H9B H 1.2937 0.3704 1.4353
C8B C 1.3335(5) 0.41476(18) 1.4803(8)
C63B C -0.0762(7) 0.4385(3) 0.6484(9)
H40B H -0.1575 0.4006 0.7042
H41B H 0.0294 0.4693 0.6143
C64B C 0.1289(6) 0.2804(2) 0.6716(9)
H42B H 0.0786 0.2953 0.4898
H43B H 0.1788 0.2760 0.8629
C66B C 0.8790(12) 0.2866(3) -0.0192(11)
H46B H 0.7456 0.3004 -0.0143
H47B H 1.0060 0.2676 0.0118
C27B C 1.2751(8) 0.2912(2) 1.1169(11)
H21B H 1.3872 0.3196 1.0804
H22B H 1.1532 0.2722 1.1735
H6B H 1.2249 0.4756 1.3540
C6B C 1.3151(5) 0.44664(18) 1.4538(9)
H5B H 1.3819 0.4092 1.5401
C67B C -0.1530(13) 0.4597(5) 0.6027(12)
H48B H 0.1271 0.2589 0.6513
H49B H 0.8896 0.2926 -0.1109
H23B H 1.3014 0.2727 1.0821
C3B C 1.3737(5) 0.4720(2) 1.5201(8)
O13B O -0.2325(7) 0.4488(3) 0.5841(11)
O14B O -0.1410(11) 0.4873(4) 0.5804(14)
O2B O 1.3538(5) 0.50038(17) 1.5020(7)
O1B O 1.4451(4) 0.46311(14) 1.5900(6)
Zn1B Zn 1.5000 0.5000 1.68296(13)
loop_
_geom_bond_atom_site_label_1
_geom_bond_atom_site_label_2
_geom_bond_site_symmetry_1
_geom_bond_site_symmetry_2
Zn1 N1 1_555 1_555
N1 C1 1_555 1_555
O1 Zn1 1_555 1_555
C1 H1 1_555 1_555
C2 N1 1_555 1_555
C3 O1 1_555 1_555
C4 C1 1_555 1_555
H2 C2 1_555 1_555
C5 C2 1_555 1_555
C6 C3 1_555 1_555
O2 C3 1_555 1_555
H3 C4 1_555 1_555
C7 C4 1_555 1_555
H4 C5 1_555 1_555
C8 C6 1_555 1_555
C9 C6 1_555 1_555
C10 C7 1_555 1_555
C11 C8 1_555 1_555
H5 C8 1_555 1_555
C12 C9 1_555 1_555
H6 C9 1_555 1_555
H7 C10 1_555 1_555
H8 C10 1_555 1_555
N2 C10 1_555 1_555
C13 C11 1_555 1_555
H9 C11 1_555 1_555
H10 C12 1_555 1_555
C14 N2 1_555 1_555
C15 N2 1_555 1_555
N3 C13 1_555 1_555
H11 C14 1_555 1_555
H12 C14 1_555 1_555
H13 C15 1_555 1_555
H14 C15 1_555 1_555
C16 N3 1_555 1_555
C17 N3 1_555 1_555
C18 C16 1_555 1_555
C19 C16 1_555 1_555
C20 C17 1_555 1_555
C21 C17 1_555 1_555
C22 C18 1_555 1_555
H15 C18 1_555 1_555
C23 C19 1_555 1_555
H16 C19 1_555 1_555
C24 C20 1_555 1_555
H17 C20 1_555 1_555
C25 C21 1_555 1_555
H18 C21 1_555 1_555
C26 C22 1_555 1_555
H19 C22 1_555 1_555
H20 C23 1_555 1_555
C27 C24 1_555 1_555
H21 C24 1_555 1_555
H22 C25 1_555 1_555
C28 C26 1_555 1_555
H23 C27 1_555 1_555
O3 C28 1_555 1_555
O4 C28 1_555 1_555
Zn2 O3 1_555 1_555
Zn3 O4 1_555 1_555
O5 Zn2 1_555 1_555
O6 Zn2 1_555 1_555
O7 Zn2 1_555 1_555
O8 Zn2 1_555 1_555
O9 Zn3 1_555 1_555
O10 Zn3 1_555 1_555
C29 O5 1_555 1_555
C30 O9 1_555 1_555
C31 C29 1_555 1_555
O11 C29 1_555 1_555
C32 C30 1_555 1_555
O12 C30 1_555 1_555
C33 C31 1_555 1_555
C34 C31 1_555 1_555
C35 C32 1_555 1_555
C36 C32 1_555 1_555
C37 C33 1_555 1_555
H24 C33 1_555 1_555
C38 C34 1_555 1_555
H25 C34 1_555 1_555
H26 C35 1_555 1_555
C39 C35 1_555 1_555
H27 C36 1_555 1_555
C40 C36 1_555 1_555
C41 C37 1_555 1_555
H28 C37 1_555 1_555
H29 C38 1_555 1_555
H30 C39 1_555 1_555
C42 C39 1_555 1_555
H31 C40 1_555 1_555
N4 C41 1_555 1_555
N5 C42 1_555 1_555
C43 N4 1_555 1_555
C44 N4 1_555 1_555
C45 N5 1_555 1_555
C46 N5 1_555 1_555
C47 C43 1_555 1_555
C48 C43 1_555 1_555
C49 C44 1_555 1_555
C50 C44 1_555 1_555
C51 C45 1_555 1_555
C52 C45 1_555 1_555
C53 C46 1_555 1_555
C54 C46 1_555 1_555
C55 C47 1_555 1_555
H32 C47 1_555 1_555
C56 C48 1_555 1_555
H33 C48 1_555 1_555
C57 C49 1_555 1_555
H34 C49 1_555 1_555
C58 C50 1_555 1_555
H35 C50 1_555 1_555
C59 C51 1_555 1_555
H36 C51 1_555 1_555
C60 C52 1_555 1_555
H37 C52 1_555 1_555
H38 C53 1_555 1_555
C61 C53 1_555 1_555
H39 C54 1_555 1_555
C62 C54 1_555 1_555
C63 C55 1_555 1_555
H40 C55 1_555 1_555
H41 C56 1_555 1_555
C64 C57 1_555 1_555
H42 C57 1_555 1_555
H43 C58 1_555 1_555
C65 C59 1_555 1_555
H44 C59 1_555 1_555
H45 C60 1_555 1_555
C66 C61 1_555 1_555
H46 C61 1_555 1_555
H47 C62 1_555 1_555
C67 C63 1_555 1_555
H48 C64 1_555 1_555
C68 C65 1_555 1_555
H49 C66 1_555 1_555
O13 C67 1_555 1_555
O14 C67 1_555 1_555
N1A Zn1 1_555 1_555
O1A Zn1 1_555 1_555
C14A C14 1_555 1_555
C15A C15 1_555 1_555
H11A C14A 1_555 1_555
H12A C14A 1_555 1_555
N2A C14A 1_555 1_555
H13A C15A 1_555 1_555
H14A C15A 1_555 1_555
C10A N2A 1_555 1_555
C7A C10A 1_555 1_555
H7A C10A 1_555 1_555
H8A C10A 1_555 1_555
C5A C7A 1_555 1_555
C4A C7A 1_555 1_555
C2A C5A 1_555 1_555
H4A C5A 1_555 1_555
C1A C4A 1_555 1_555
H3A C4A 1_555 1_555
H2A C2A 1_555 1_555
N1A_2 C2A 1_555 1_555
H1A C1A 1_555 1_555
Zn1_2 N1A_2 1_555 1_555
O10B C68 1_555 1_555
O8B C68 1_555 1_555
Zn3B O10B 1_555 1_555
Zn2B O8B 1_555 1_555
O5B Zn3B 1_555 1_555
O9B Zn3B 1_555 1_555
O4B Zn3B 1_555 1_555
O6B Zn2B 1_555 1_555
O7B Zn2B 1_555 1_555
O3B Zn2B 1_555 1_555
Zn2_2 O8_2 1_555 1_555
Zn3_2 O10_2 1_555 1_555
C29B O5B 1_555 1_555
C30B O9B 1_555 1_555
C28B O4B 1_555 1_555
O8_2 C68B 1_555 1_555
O10_2 C68B 1_555 1_555
C31B C29B 1_555 1_555
O11B C29B 1_555 1_555
C32B C30B 1_555 1_555
O12B C30B 1_555 1_555
C26B C28B 1_555 1_555
C68B C65B 1_555 1_555
C33B C31B 1_555 1_555
C34B C31B 1_555 1_555
C35B C32B 1_555 1_555
C36B C32B 1_555 1_555
C23B C26B 1_555 1_555
C22B C26B 1_555 1_555
C65B C59B 1_555 1_555
C37B C33B 1_555 1_555
H24B C33B 1_555 1_555
C38B C34B 1_555 1_555
H25B C34B 1_555 1_555
H26B C35B 1_555 1_555
C39B C35B 1_555 1_555
H27B C36B 1_555 1_555
C40B C36B 1_555 1_555
H20B C23B 1_555 1_555
C19B C23B 1_555 1_555
H19B C22B 1_555 1_555
C18B C22B 1_555 1_555
C59B C51B 1_555 1_555
C60B C65B 1_555 1_555
C41B C37B 1_555 1_555
H28B C37B 1_555 1_555
H29B C38B 1_555 1_555
H30B C39B 1_555 1_555
C42B C39B 1_555 1_555
H31B C40B 1_555 1_555
H16B C19B 1_555 1_555
C16B C19B 1_555 1_555
H15B C18B 1_555 1_555
C51B C45B 1_555 1_555
H44B C59B 1_555 1_555
C52B C60B 1_555 1_555
H45B C60B 1_555 1_555
N4B C41B 1_555 1_555
N5B C42B 1_555 1_555
N3B C16B 1_555 1_555
C45B C52B 1_555 1_555
H36B C51B 1_555 1_555
H37B C52B 1_555 1_555
C43B N4B 1_555 1_555
C44B N4B 1_555 1_555
C46B N5B 1_555 1_555
C17B N3B 1_555 1_555
C13B N3B 1_555 1_555
C47B C43B 1_555 1_555
C48B C43B 1_555 1_555
C49B C44B 1_555 1_555
C50B C44B 1_555 1_555
C53B C46B 1_555 1_555
C54B C46B 1_555 1_555
C20B C17B 1_555 1_555
C21B C17B 1_555 1_555
C12B C13B 1_555 1_555
C11B C13B 1_555 1_555
C55B C47B 1_555 1_555
H32B C47B 1_555 1_555
C56B C48B 1_555 1_555
H33B C48B 1_555 1_555
C57B C49B 1_555 1_555
H34B C49B 1_555 1_555
C58B C50B 1_555 1_555
H35B C50B 1_555 1_555
H38B C53B 1_555 1_555
C61B C53B 1_555 1_555
H39B C54B 1_555 1_555
C62B C54B 1_555 1_555
C24B C20B 1_555 1_555
H17B C20B 1_555 1_555
C25B C21B 1_555 1_555
H18B C21B 1_555 1_555
H10B C12B 1_555 1_555
C9B C12B 1_555 1_555
H9B C11B 1_555 1_555
C8B C11B 1_555 1_555
C63B C55B 1_555 1_555
H40B C55B 1_555 1_555
H41B C56B 1_555 1_555
C64B C57B 1_555 1_555
H42B C57B 1_555 1_555
H43B C58B 1_555 1_555
C66B C61B 1_555 1_555
H46B C61B 1_555 1_555
H47B C62B 1_555 1_555
C27B C24B 1_555 1_555
H21B C24B 1_555 1_555
H22B C25B 1_555 1_555
H6B C9B 1_555 1_555
C6B C9B 1_555 1_555
H5B C8B 1_555 1_555
C67B C63B 1_555 1_555
H48B C64B 1_555 1_555
H49B C66B 1_555 1_555
H23B C27B 1_555 1_555
C3B C6B 1_555 1_555
O13B C67B 1_555 1_555
O14B C67B 1_555 1_555
O2B C3B 1_555 1_555
O1B C3B 1_555 1_555
Zn1B O1B 1_555 1_555
C5 C7 1_555 1_555
C12 C13 1_555 1_555
C23 C26 1_555 1_555
C25 C27 1_555 1_555
Zn3 O5 1_555 1_555
C38 C41 1_555 1_555
C40 C42 1_555 1_555
C56 C63 1_555 1_555
C58 C64 1_555 1_555
C60 C65 1_555 1_555
C62 C66 1_555 1_555
C15A N2A 1_555 1_555
C1A N1A_2 1_555 1_555
Zn2B O5B 1_555 1_555
O3B C28B 1_555 1_555
C38B C41B 1_555 1_555
C40B C42B 1_555 1_555
C18B C16B 1_555 1_555
N5B C45B 1_555 1_555
C56B C63B 1_555 1_555
C58B C64B 1_555 1_555
C62B C66B 1_555 1_555
C25B C27B 1_555 1_555
C8B C6B 1_555 1_555

#END
