
#######################################################################
#
#                 Cambridge Crystallographic Data Centre
#                                CCDC 
#
#######################################################################
#
# If this CIF has been generated from an entry in the Cambridge 
# Structural Database, then it will include bibliographic, chemical, 
# crystal, experimental, refinement or atomic coordinate data resulting 
# from the CCDC's data processing and validation procedures.
#
#######################################################################

data_OHANAO
_symmetry_cell_setting           monoclinic
_symmetry_space_group_name_H-M   'C 2/c'
_symmetry_Int_Tables_number      15
_space_group_name_Hall           '-C 2yn'
loop_
_symmetry_equiv_pos_site_id
_symmetry_equiv_pos_as_xyz
1 x,y,z
2 -x,y,1/2-z
3 1/2+x,1/2+y,z
4 1/2-x,1/2+y,1/2-z
5 -x,-y,-z
6 x,-y,1/2+z
7 1/2-x,1/2-y,-z
8 1/2+x,1/2-y,1/2+z
_cell_length_a                   21.485(5)
_cell_length_b                   18.709(4)
_cell_length_c                   21.225(4)
_cell_angle_alpha                90
_cell_angle_beta                 118.707(4)
_cell_angle_gamma                90
_cell_volume                     7483.01
loop_
_atom_site_label
_atom_site_type_symbol
_atom_site_fract_x
_atom_site_fract_y
_atom_site_fract_z
C1 C 0.6295(4) 0.0172(3) 0.0337(4)
H1 H 0.6564 0.0138 0.0102
C2 C 0.6099(4) -0.0443(3) 0.0544(4)
H2 H 0.6231 -0.0883 0.0439
C3 C 0.5712(3) -0.0423(3) 0.0903(3)
C4 C 0.5560(3) 0.0235(4) 0.1055(4)
H3 H 0.5318 0.0283 0.1318
C5 C 0.5764(3) 0.0841(3) 0.0821(3)
H4 H 0.5646 0.1288 0.0924
C6 C 0.5496(3) -0.1099(3) 0.1125(4)
H5 H 0.5127 -0.0992 0.1250
H6 H 0.5302 -0.1429 0.0724
C7 C 0.6104(3) -0.1447(4) 0.1751(3)
H7 H 0.6461 -0.1569 0.1613
H8 H 0.6314 -0.1101 0.2137
C8 C 0.5936(3) -0.2095(4) 0.2033(4)
H9 H 0.5762 -0.2457 0.1660
H10 H 0.5556 -0.1984 0.2140
C9 C 0.6541(3) -0.2397(3) 0.2687(3)
C10 C 0.7178(4) -0.2563(4) 0.2714(3)
H11 H 0.7223 -0.2505 0.2303
C11 C 0.7743(3) -0.2811(4) 0.3325(3)
H12 H 0.8170 -0.2895 0.3327
C12 C 0.6497(3) -0.2520(3) 0.3313(3)
H13 H 0.6080 -0.2420 0.3327
C13 C 0.7074(3) -0.2791(3) 0.3909(3)
H14 H 0.7035 -0.2877 0.4320
C14 C 0.8136(3) 0.0165(3) -0.1625(3)
C15 C 0.8394(3) 0.0603(4) -0.1026(4)
H15 H 0.8872 0.0723 -0.0785
C16 C 0.7418(3) 0.0007(3) -0.1988(3)
H16 H 0.7237 -0.0277 -0.2398
C17 C 0.7943(3) 0.0863(3) -0.0781(3)
H17 H 0.8123 0.1152 -0.0374
C18 C 0.6969(3) 0.0268(3) -0.1747(3)
H18 H 0.6488 0.0157 -0.1993
C19 C 0.7233(3) 0.0696(3) -0.1136(3)
C20 C 0.6751(3) 0.0973(3) -0.0870(3)
C21 C 0.9102(3) -0.0618(3) -0.1457(3)
C22 C 0.9690(3) -0.0755(3) -0.1549(3)
H19 H 0.9764 -0.0493 -0.1879
C23 C 0.9035(4) -0.0998(4) -0.0937(4)
H20 H 0.8650 -0.0911 -0.0861
C24 C 0.9526(4) -0.1503(4) -0.0528(4)
H21 H 0.9470 -0.1742 -0.0174
C25 C 1.0165(3) -0.1286(3) -0.1143(3)
H22 H 1.0544 -0.1388 -0.1224
C26 C 1.0096(3) -0.1668(3) -0.0624(3)
C27 C 1.0578(3) -0.2273(3) -0.0234(4)
C28 C 0.8439(3) 0.0059(3) -0.2588(4)
C29 C 0.8442(3) -0.0449(4) -0.3058(4)
H23 H 0.8562 -0.0918 -0.2903
C30 C 0.8238(4) 0.0745(4) -0.2846(4)
H24 H 0.8213 0.1098 -0.2550
C31 C 0.8076(5) 0.0905(5) -0.3538(5)
H25 H 0.7951 0.1370 -0.3704
C32 C 0.8274(4) -0.0273(5) -0.3744(4)
H26 H 0.8284 -0.0626 -0.4047
C33 C 0.8094(5) 0.0393(6) -0.3992(5)
H27 H 0.7983 0.0507 -0.4460
N1 N 0.6118(2) 0.0806(2) 0.0459(2)
N2 N 0.7695(2) -0.2936(2) 0.3922(2)
N3 N 0.8606(3) -0.0106(3) -0.1874(3)
O1 O 0.6103(2) 0.0875(2) -0.1228(2)
O2 O 0.70447(18) 0.12868(19) -0.0267(2)
O3 O 1.0556(2) -0.2551(3) 0.0287(3)
O4 O 1.0987(2) -0.2495(2) -0.0450(2)
Zn1 Zn 0.64803(3) 0.16811(3) 0.01498(3)
N2C N 0.7305(2) 0.2064(2) 0.1078(2)
O3B O 0.5556(2) 0.2449(3) 0.0287(3)
O4B O 0.5987(2) 0.2505(2) -0.0450(2)
Zn1B Zn 1.14803(3) -0.33189(3) 0.01498(3)
Zn1C Zn 0.85197(3) -0.33189(3) 0.48502(3)
O5 O 0.5000 0.0207(4) -0.2500
O6 O 0.7107(18) -0.1831(16) -0.1187(18)
O7 O 1.0000 0.1498(19) -0.2500
O8 O 0.9603(18) 0.2239(19) -0.165(2)
O9 O 0.6198(15) -0.1354(17) -0.1266(15)
O10 O 0.8778(19) 0.3134(17) -0.265(2)
O11 O 0.647(3) -0.226(4) -0.041(3)
loop_
_geom_bond_atom_site_label_1
_geom_bond_atom_site_label_2
_geom_bond_site_symmetry_1
_geom_bond_site_symmetry_2
C1 H1 1_555 1_555
C2 C1 1_555 1_555
H2 C2 1_555 1_555
C3 C2 1_555 1_555
C4 C3 1_555 1_555
H3 C4 1_555 1_555
C5 C4 1_555 1_555
H4 C5 1_555 1_555
C6 C3 1_555 1_555
H5 C6 1_555 1_555
H6 C6 1_555 1_555
C7 C6 1_555 1_555
H7 C7 1_555 1_555
H8 C7 1_555 1_555
C8 C7 1_555 1_555
H9 C8 1_555 1_555
H10 C8 1_555 1_555
C9 C8 1_555 1_555
C10 C9 1_555 1_555
H11 C10 1_555 1_555
C11 C10 1_555 1_555
H12 C11 1_555 1_555
C12 C9 1_555 1_555
H13 C12 1_555 1_555
C13 C12 1_555 1_555
H14 C13 1_555 1_555
C14 C15 1_555 1_555
C15 H15 1_555 1_555
C16 C14 1_555 1_555
H16 C16 1_555 1_555
C17 C15 1_555 1_555
H17 C17 1_555 1_555
C18 C16 1_555 1_555
H18 C18 1_555 1_555
C19 C17 1_555 1_555
C20 C19 1_555 1_555
C21 C22 1_555 1_555
C22 H19 1_555 1_555
C23 C21 1_555 1_555
H20 C23 1_555 1_555
C24 C23 1_555 1_555
H21 C24 1_555 1_555
C25 C22 1_555 1_555
H22 C25 1_555 1_555
C26 C24 1_555 1_555
C27 C26 1_555 1_555
C28 C29 1_555 1_555
C29 H23 1_555 1_555
C30 C28 1_555 1_555
H24 C30 1_555 1_555
C31 C30 1_555 1_555
H25 C31 1_555 1_555
C32 C29 1_555 1_555
H26 C32 1_555 1_555
C33 C31 1_555 1_555
H27 C33 1_555 1_555
N1 C1 1_555 1_555
N2 C11 1_555 1_555
N3 C14 1_555 1_555
O1 C20 1_555 1_555
O2 C20 1_555 1_555
O3 C27 1_555 1_555
O4 C27 1_555 1_555
Zn1 N1 1_555 1_555
N2C Zn1 1_555 1_555
O3B Zn1 1_555 1_555
O4B Zn1 1_555 1_555
Zn1B O3 1_555 1_555
Zn1C N2 1_555 1_555
C5 N1 1_555 1_555
C13 N2 1_555 1_555
C18 C19 1_555 1_555
C21 N3 1_555 1_555
C25 C26 1_555 1_555
C28 N3 1_555 1_555
C32 C33 1_555 1_555
O2 Zn1 1_555 1_555
O4 Zn1B 1_555 1_555

#END
