
#######################################################################
#
#                 Cambridge Crystallographic Data Centre
#                                CCDC 
#
#######################################################################
#
# If this CIF has been generated from an entry in the Cambridge 
# Structural Database, then it will include bibliographic, chemical, 
# crystal, experimental, refinement or atomic coordinate data resulting 
# from the CCDC's data processing and validation procedures.
#
#######################################################################

data_OHANUI
_symmetry_cell_setting           monoclinic
_symmetry_space_group_name_H-M   'C 2/c'
_symmetry_Int_Tables_number      15
_space_group_name_Hall           '-C 2yn'
loop_
_symmetry_equiv_pos_site_id
_symmetry_equiv_pos_as_xyz
1 x,y,z
2 -x,y,1/2-z
3 1/2+x,1/2+y,z
4 1/2-x,1/2+y,1/2-z
5 -x,-y,-z
6 x,-y,1/2+z
7 1/2-x,1/2-y,-z
8 1/2+x,1/2-y,1/2+z
_cell_length_a                   28.327(4)
_cell_length_b                   6.0289(8)
_cell_length_c                   29.409(4)
_cell_angle_alpha                90
_cell_angle_beta                 107.892(3)
_cell_angle_gamma                90
_cell_volume                     4779.59
loop_
_atom_site_label
_atom_site_type_symbol
_atom_site_fract_x
_atom_site_fract_y
_atom_site_fract_z
C1 C 0.81228(15) -0.3189(7) 0.68687(15)
C2 C 0.77075(14) -0.1661(7) 0.66578(14)
C3 C 0.74985(15) -0.0360(7) 0.69340(14)
H1 H 0.7637 -0.0366 0.7265
C4 C 0.75033(15) -0.1554(7) 0.61657(14)
H2 H 0.7643 -0.2387 0.5974
C5 C 0.70905(14) 0.0937(7) 0.67290(14)
H3 H 0.6957 0.1793 0.6922
C6 C 0.70976(15) -0.0240(7) 0.59552(14)
H4 H 0.6971 -0.0168 0.5624
C7 C 0.68747(14) 0.0986(6) 0.62358(14)
C8 C 0.54981(19) 0.0361(12) 0.46690(19)
H5 H 0.5277 -0.0007 0.4373
C9 C 0.56037(19) -0.1128(10) 0.5028(2)
H6 H 0.5466 -0.2541 0.4972
C10 C 0.5714(2) 0.2411(12) 0.47388(17)
H7 H 0.5650 0.3421 0.4488
C11 C 0.59148(17) -0.0586(8) 0.54791(17)
H8 H 0.5979 -0.1608 0.5728
C12 C 0.60281(18) 0.2969(9) 0.51834(16)
H9 H 0.6175 0.4365 0.5233
C13 C 0.61259(14) 0.1490(7) 0.55521(14)
C14 C 0.57272(15) 0.3664(7) 0.62151(15)
H10 H 0.5525 0.2621 0.6014
C15 C 0.62292(14) 0.3707(6) 0.62663(13)
C16 C 0.55249(14) 0.5147(7) 0.64582(14)
H11 H 0.5187 0.5094 0.6419
C17 C 0.65180(14) 0.5316(6) 0.65554(14)
H12 H 0.6853 0.5418 0.6582
C18 C 0.58142(13) 0.6708(6) 0.67587(12)
C19 C 0.63155(14) 0.6767(6) 0.68038(14)
H13 H 0.6518 0.7807 0.7006
C20 C 0.56031(15) 0.8254(6) 0.70413(12)
C21 C 0.56221(14) 1.3924(6) 0.78282(13)
H14 H 0.5524 1.4207 0.7502
C22 C 0.55882(13) 1.1748(6) 0.84537(12)
H15 H 0.5463 1.0516 0.8568
C23 C 0.59422(14) 1.5378(6) 0.81267(13)
H16 H 0.6053 1.6630 0.8005
C24 C 0.59147(14) 1.3113(6) 0.87766(12)
H17 H 0.6010 1.2793 0.9102
C25 C 0.60979(12) 1.4949(6) 0.86135(12)
C26 C 0.64678(14) 1.6514(6) 0.89295(13)
H18 H 0.6727 1.6843 0.8788
H19 H 0.6306 1.7893 0.8963
C27 C 0.70834(14) 1.6590(6) 0.96818(12)
C28 C 0.72504(16) 1.8627(7) 0.95861(13)
H20 H 0.7084 1.9392 0.9309
C29 C 0.76702(15) 1.9516(6) 0.99096(14)
H21 H 0.7786 2.0890 0.9848
N1 N 0.64355(12) 0.2150(6) 0.60175(11)
N2 N 0.54434(10) 1.2118(5) 0.79821(10)
O1 O 0.83125(11) -0.3058(6) 0.73407(10)
O2 O 0.82878(11) -0.4453(5) 0.66356(11)
O3 O 0.58551(12) 0.9769(5) 0.72781(12)
O4 O 0.51619(10) 0.7933(4) 0.70422(9)
O5 O 0.66762(10) 1.5522(4) 0.93830(9)
Zn1 Zn 0.5000 0.99684(10) 0.7500
C21F C 0.93779(14) 2.1076(6) 1.21718(13)
H14F H 0.9476 2.0793 1.2498
C22F C 0.94118(13) 2.3252(6) 1.15463(12)
H15F H 0.9537 2.4484 1.1432
C23F C 0.90578(14) 1.9622(6) 1.18733(13)
H16F H 0.8947 1.8370 1.1995
C24F C 0.90853(14) 2.1887(6) 1.12234(12)
H17F H 0.8990 2.2207 1.0898
C25F C 0.89021(12) 2.0051(6) 1.13865(12)
C26F C 0.85322(14) 1.8486(6) 1.10705(13)
H18F H 0.8273 1.8157 1.1212
H19F H 0.8694 1.7107 1.1037
C27F C 0.79166(14) 1.8410(6) 1.03182(12)
C28F C 0.77496(16) 1.6373(7) 1.04139(13)
H20F H 0.7916 1.5608 1.0691
C29F C 0.73298(15) 1.5484(6) 1.00904(14)
H21F H 0.7214 1.4110 1.0152
N2F N 0.95566(10) 2.2882(5) 1.20179(10)
O5F O 0.83238(10) 1.9478(4) 1.06170(9)
C1A C 0.18772(15) -0.3189(7) 0.81313(15)
C2A C 0.22925(14) -0.1661(7) 0.83422(14)
C3A C 0.25015(15) -0.0360(7) 0.80660(14)
H1A H 0.2363 -0.0366 0.7735
C4A C 0.24967(15) -0.1554(7) 0.88343(14)
H2A H 0.2357 -0.2387 0.9026
C5A C 0.29095(14) 0.0937(7) 0.82710(14)
H3A H 0.3043 0.1793 0.8078
C6A C 0.29024(15) -0.0240(7) 0.90448(14)
H4A H 0.3029 -0.0168 0.9376
C7A C 0.31253(14) 0.0986(6) 0.87642(14)
C8A C 0.45019(19) 0.0361(12) 1.03310(19)
H5A H 0.4723 -0.0007 1.0627
C9A C 0.43963(19) -0.1128(10) 0.9972(2)
H6A H 0.4534 -0.2541 1.0028
C10A C 0.4286(2) 0.2411(12) 1.02612(17)
H7A H 0.4350 0.3421 1.0512
C11A C 0.40852(17) -0.0586(8) 0.95209(17)
H8A H 0.4021 -0.1608 0.9272
C12A C 0.39719(18) 0.2969(9) 0.98166(16)
H9A H 0.3825 0.4365 0.9767
C13A C 0.38741(14) 0.1490(7) 0.94479(14)
C14A C 0.42728(15) 0.3664(7) 0.87849(15)
H10A H 0.4475 0.2621 0.8986
C15A C 0.37708(14) 0.3707(6) 0.87337(13)
C16A C 0.44751(14) 0.5147(7) 0.85418(14)
H11A H 0.4813 0.5094 0.8581
C17A C 0.34820(14) 0.5316(6) 0.84446(14)
H12A H 0.3147 0.5418 0.8418
C18A C 0.41858(13) 0.6708(6) 0.82413(12)
C19A C 0.36845(14) 0.6767(6) 0.81962(14)
H13A H 0.3482 0.7807 0.7994
C20A C 0.43969(15) 0.8254(6) 0.79587(12)
N1A N 0.35645(12) 0.2150(6) 0.89825(11)
O1A O 0.16875(11) -0.3058(6) 0.76593(10)
O2A O 0.17122(11) -0.4453(5) 0.83644(11)
O3A O 0.41449(12) 0.9769(5) 0.77219(12)
O4A O 0.48381(10) 0.7933(4) 0.79578(9)
N2A N 0.45566(10) 1.2118(5) 0.70179(10)
Zn1F Zn 1.0000 2.50316(10) 1.2500
loop_
_geom_bond_atom_site_label_1
_geom_bond_atom_site_label_2
_geom_bond_site_symmetry_1
_geom_bond_site_symmetry_2
C1 C2 1_555 1_555
C2 C3 1_555 1_555
C3 H1 1_555 1_555
C4 C2 1_555 1_555
H2 C4 1_555 1_555
C5 C3 1_555 1_555
H3 C5 1_555 1_555
C6 C4 1_555 1_555
H4 C6 1_555 1_555
C7 C5 1_555 1_555
C8 H5 1_555 1_555
C9 C8 1_555 1_555
H6 C9 1_555 1_555
C10 C8 1_555 1_555
H7 C10 1_555 1_555
C11 C9 1_555 1_555
H8 C11 1_555 1_555
C12 C10 1_555 1_555
H9 C12 1_555 1_555
C13 C11 1_555 1_555
C14 H10 1_555 1_555
C15 C14 1_555 1_555
C16 C14 1_555 1_555
H11 C16 1_555 1_555
C17 C15 1_555 1_555
H12 C17 1_555 1_555
C18 C16 1_555 1_555
C19 C17 1_555 1_555
H13 C19 1_555 1_555
C20 C18 1_555 1_555
C21 H14 1_555 1_555
C22 H15 1_555 1_555
C23 C21 1_555 1_555
H16 C23 1_555 1_555
C24 C22 1_555 1_555
H17 C24 1_555 1_555
C25 C23 1_555 1_555
C26 C25 1_555 1_555
H18 C26 1_555 1_555
H19 C26 1_555 1_555
C27 C28 1_555 1_555
C28 H20 1_555 1_555
C29 C28 1_555 1_555
H21 C29 1_555 1_555
N1 C7 1_555 1_555
N2 C21 1_555 1_555
O1 C1 1_555 1_555
O2 C1 1_555 1_555
O3 C20 1_555 1_555
O4 C20 1_555 1_555
O5 C26 1_555 1_555
Zn1 N2 1_555 1_555
C21F H14F 1_555 1_555
C22F H15F 1_555 1_555
C23F C21F 1_555 1_555
H16F C23F 1_555 1_555
C24F C22F 1_555 1_555
H17F C24F 1_555 1_555
C25F C23F 1_555 1_555
C26F C25F 1_555 1_555
H18F C26F 1_555 1_555
H19F C26F 1_555 1_555
C27F C29 1_555 1_555
C28F C27F 1_555 1_555
H20F C28F 1_555 1_555
C29F C27 1_555 1_555
H21F C29F 1_555 1_555
N2F C21F 1_555 1_555
O5F C26F 1_555 1_555
C1A C2A 1_555 1_555
C2A C3A 1_555 1_555
C3A H1A 1_555 1_555
C4A C2A 1_555 1_555
H2A C4A 1_555 1_555
C5A C3A 1_555 1_555
H3A C5A 1_555 1_555
C6A C4A 1_555 1_555
H4A C6A 1_555 1_555
C7A C5A 1_555 1_555
C8A H5A 1_555 1_555
C9A C8A 1_555 1_555
H6A C9A 1_555 1_555
C10A C8A 1_555 1_555
H7A C10A 1_555 1_555
C11A C9A 1_555 1_555
H8A C11A 1_555 1_555
C12A C10A 1_555 1_555
H9A C12A 1_555 1_555
C13A C11A 1_555 1_555
C14A H10A 1_555 1_555
C15A C14A 1_555 1_555
C16A C14A 1_555 1_555
H11A C16A 1_555 1_555
C17A C15A 1_555 1_555
H12A C17A 1_555 1_555
C18A C16A 1_555 1_555
C19A C17A 1_555 1_555
H13A C19A 1_555 1_555
C20A C18A 1_555 1_555
N1A C7A 1_555 1_555
O1A C1A 1_555 1_555
O2A C1A 1_555 1_555
O3A C20A 1_555 1_555
O4A Zn1 1_555 1_555
N2A Zn1 1_555 1_555
Zn1F N2F 1_555 1_555
C6 C7 1_555 1_555
C12 C13 1_555 1_555
C13 N1 1_555 1_555
C15 N1 1_555 1_555
C18 C19 1_555 1_555
C22 N2 1_555 1_555
C24 C25 1_555 1_555
C27 O5 1_555 1_555
O4 Zn1 1_555 1_555
C22F N2F 1_555 1_555
C24F C25F 1_555 1_555
C27F O5F 1_555 1_555
C28F C29F 1_555 1_555
C6A C7A 1_555 1_555
C12A C13A 1_555 1_555
C13A N1A 1_555 1_555
C15A N1A 1_555 1_555
C18A C19A 1_555 1_555
C20A O4A 1_555 1_555

#END
