
#######################################################################
#
#                 Cambridge Crystallographic Data Centre
#                                CCDC 
#
#######################################################################
#
# If this CIF has been generated from an entry in the Cambridge 
# Structural Database, then it will include bibliographic, chemical, 
# crystal, experimental, refinement or atomic coordinate data resulting 
# from the CCDC's data processing and validation procedures.
#
#######################################################################

data_OHAPIX
_symmetry_cell_setting           triclinic
_symmetry_space_group_name_H-M   'P -1'
_symmetry_Int_Tables_number      2
_space_group_name_Hall           '-P 1'
loop_
_symmetry_equiv_pos_site_id
_symmetry_equiv_pos_as_xyz
1 x,y,z
2 -x,-y,-z
_cell_length_a                   8.6729(9)
_cell_length_b                   13.6780(14)
_cell_length_c                   14.1078(15)
_cell_angle_alpha                77.424(2)
_cell_angle_beta                 76.202(2)
_cell_angle_gamma                73.774(2)
_cell_volume                     1539.92
loop_
_atom_site_label
_atom_site_type_symbol
_atom_site_fract_x
_atom_site_fract_y
_atom_site_fract_z
Cu1 Cu 1.0000 0.5000 0.5000
N1 N 0.9770(6) 0.5668(4) 0.6192(3)
N2 N 1.0322(7) 0.6219(4) 0.7390(3)
N3 N 0.9558(6) 0.3707(4) 0.5852(3)
N4 N 0.8708(6) 0.2284(4) 0.6278(4)
C1 C 1.0853(9) 0.5562(5) 0.6733(4)
H1 H 1.1865 0.5092 0.6672
C2 C 0.8480(8) 0.6439(6) 0.6517(5)
H2 H 0.7523 0.6691 0.6263
C3 C 0.8803(9) 0.6774(6) 0.7257(5)
H3 H 0.8122 0.7286 0.7609
C4 C 1.1176(10) 0.6248(6) 0.8166(5)
H4 H 1.0988 0.6956 0.8261
H5 H 1.2343 0.5985 0.7958
C5 C 1.0581(9) 0.5612(5) 0.9126(4)
C6 C 0.9257(10) 0.6016(6) 0.9797(5)
H6 H 0.8731 0.6710 0.9667
C7 C 1.1320(10) 0.4584(6) 0.9332(5)
H7 H 1.2214 0.4286 0.8886
C8 C 0.8478(8) 0.3234(5) 0.5760(5)
H8 H 0.7666 0.3526 0.5385
C9 C 1.0513(8) 0.3008(5) 0.6462(4)
H9 H 1.1382 0.3124 0.6665
C10 C 1.0000(8) 0.2130(5) 0.6721(4)
H10 H 1.0444 0.1533 0.7124
C11 C 0.7892(8) 0.1507(5) 0.6217(5)
H11 H 0.6921 0.1842 0.5936
H12 H 0.7552 0.1153 0.6877
C12 C 0.9018(7) 0.0728(4) 0.5584(4)
C13 C 1.0291(8) 0.0958(5) 0.4860(5)
H13 H 1.0498 0.1609 0.4756
C14 C 0.8730(8) -0.0240(5) 0.5717(5)
H14 H 0.7867 -0.0410 0.6200
Cu1_2 Cu 1.0000 0.5000 1.5000
Cu1_3 Cu 1.0000 -0.5000 0.5000
N1A N 1.0230(6) 0.4332(4) 1.3808(3)
N1A_2 N 1.0230(6) 0.4332(4) 0.3808(3)
N2A N 0.9678(7) 0.3781(4) 1.2610(3)
N3A N 1.0442(6) -0.3707(4) 0.4148(3)
N3A_2 N 1.0442(6) 0.6293(4) 0.4148(3)
N4A N 1.1292(6) -0.2284(4) 0.3722(4)
C1A C 0.9147(9) 0.4438(5) 1.3267(4)
H1A H 0.8135 0.4908 1.3328
C2A C 1.1520(8) 0.3561(6) 1.3483(5)
H2A H 1.2477 0.3309 1.3737
C3A C 1.1197(9) 0.3226(6) 1.2743(5)
H3A H 1.1878 0.2714 1.2391
C4A C 0.8824(10) 0.3752(6) 1.1834(5)
H4A H 0.9012 0.3044 1.1739
H5A H 0.7657 0.4015 1.2042
C5A C 0.9419(9) 0.4388(5) 1.0874(4)
C6A C 1.0743(10) 0.3984(6) 1.0203(5)
H6A H 1.1269 0.3290 1.0333
C7A C 0.8680(10) 0.5416(6) 1.0668(5)
H7A H 0.7786 0.5714 1.1114
C8A C 1.1522(8) -0.3234(5) 0.4240(5)
H8A H 1.2334 -0.3526 0.4615
C9A C 0.9487(8) -0.3008(5) 0.3538(4)
H9A H 0.8618 -0.3124 0.3335
C10A C 1.0000(8) -0.2130(5) 0.3279(4)
H10A H 0.9556 -0.1533 0.2876
C11A C 1.2108(8) -0.1507(5) 0.3783(5)
H11A H 1.3079 -0.1842 0.4064
H12A H 1.2448 -0.1153 0.3123
C12A C 1.0982(7) -0.0728(4) 0.4416(4)
C13A C 0.9709(8) -0.0958(5) 0.5140(5)
H13A H 0.9502 -0.1609 0.5244
C14A C 1.1270(8) 0.0240(5) 0.4283(5)
H14A H 1.2133 0.0410 0.3800
Cu2 Cu 1.0000 0.0000 0.0000
N5 N 0.8897(7) 0.0501(4) 0.1288(4)
N6 N 0.7003(6) 0.1085(4) 0.2507(3)
N7 N 0.8602(7) 0.1238(4) -0.0686(4)
N8 N 0.7662(6) 0.2841(4) -0.1270(4)
C15 C 0.7316(9) 0.0772(6) 0.1622(4)
H15 H 0.6518 0.0752 0.1292
C16 C 0.9620(8) 0.0650(5) 0.1990(5)
H16 H 1.0742 0.0528 0.1951
C17 C 0.8465(8) 0.0998(5) 0.2745(5)
H17 H 0.8636 0.1150 0.3317
C18 C 0.5400(8) 0.1401(6) 0.3135(4)
H18 H 0.4550 0.1422 0.2787
H19 H 0.5264 0.2091 0.3266
C19 C 0.5215(7) 0.0675(5) 0.4101(4)
C20 C 0.5634(7) -0.0385(6) 0.4128(4)
H20 H 0.6060 -0.0654 0.3542
C21 C 0.4578(7) 0.1052(6) 0.4978(5)
H21 H 0.4286 0.1761 0.4973
C22 C 0.8851(8) 0.2157(6) -0.0881(4)
H22 H 0.9756 0.2316 -0.0763
C23 C 0.7151(10) 0.1339(5) -0.0965(5)
H23 H 0.6652 0.0805 -0.0912
C24 C 0.6566(8) 0.2328(5) -0.1327(5)
H24 H 0.5600 0.2608 -0.1569
C25 C 0.7455(10) 0.3965(5) -0.1492(5)
H25 H 0.7138 0.4224 -0.2132
H26 H 0.8488 0.4128 -0.1525
C26 C 0.6170(8) 0.4488(5) -0.0711(5)
C27 C 0.5766(9) 0.3984(5) 0.0246(5)
H27 H 0.6273 0.3292 0.0415
C28 C 0.5376(9) 0.5506(5) -0.0954(5)
H28 H 0.5609 0.5851 -0.1597
Cu2_2 Cu 0.0000 0.0000 1.0000
Cu2_3 Cu 0.0000 1.0000 0.0000
N5A N 0.1103(7) -0.0501(4) 0.8712(4)
N5A_2 N 1.1103(7) -0.0501(4) -0.1288(4)
N6A N 0.2997(6) -0.1085(4) 0.7493(3)
N7A N 0.1398(7) 0.8762(4) 0.0686(4)
N7A_2 N 1.1398(7) -0.1238(4) 0.0686(4)
N8A N 0.2338(6) 0.7159(4) 0.1270(4)
C15A C 0.2684(9) -0.0772(6) 0.8378(4)
H15A H 0.3482 -0.0752 0.8708
C16A C 0.0380(8) -0.0650(5) 0.8010(5)
H16A H -0.0742 -0.0528 0.8049
C17A C 0.1535(8) -0.0998(5) 0.7255(5)
H17A H 0.1364 -0.1150 0.6683
C18A C 0.4600(8) -0.1401(6) 0.6865(4)
H18A H 0.5450 -0.1422 0.7213
H19A H 0.4736 -0.2091 0.6734
C19A C 0.4785(7) -0.0675(5) 0.5899(4)
C20A C 0.4366(7) 0.0385(6) 0.5872(4)
H20A H 0.3940 0.0654 0.6458
C21A C 0.5422(7) -0.1052(6) 0.5022(5)
H21A H 0.5714 -0.1761 0.5027
C22A C 0.1149(8) 0.7843(6) 0.0881(4)
H22A H 0.0244 0.7684 0.0763
C23A C 0.2849(10) 0.8661(5) 0.0965(5)
H23A H 0.3348 0.9195 0.0912
C24A C 0.3434(8) 0.7672(5) 0.1327(5)
H24A H 0.4400 0.7392 0.1569
C25A C 0.2545(10) 0.6035(5) 0.1492(5)
H25A H 0.2862 0.5776 0.2132
H26A H 0.1512 0.5872 0.1525
C26A C 0.3830(8) 0.5512(5) 0.0711(5)
C27A C 0.4234(9) 0.6016(5) -0.0246(5)
H27A H 0.3727 0.6708 -0.0415
C28A C 0.4624(9) 0.4494(5) 0.0954(5)
H28A H 0.4391 0.4149 0.1597
N9 N 0.7689(8) 0.8877(5) 0.0165(4)
N10 N 0.7157(14) 0.8747(9) -0.0531(7)
N11 N 0.6612(15) 0.8756(11) -0.1269(8)
N12 N 0.6884(9) 0.5727(7) 0.4970(5)
N13 N 0.597(3) 0.560(2) 0.5775(14)
N14 N 0.515(2) 0.5374(17) 0.6590(11)
O1 O 0.5650(10) 0.6524(8) 0.3204(7)
H29 H 0.6057 0.6327 0.3725
H30 H 0.5904 0.7084 0.2904
N15? N 0.7063(14) 0.8681(9) 0.1083(6)
N16? N 0.6393(15) 0.8513(11) 0.2009(7)
N17? N 0.565(3) 0.5997(19) 0.5548(17)
N18? N 0.464(2) 0.6076(18) 0.6296(13)
loop_
_geom_bond_atom_site_label_1
_geom_bond_atom_site_label_2
_geom_bond_site_symmetry_1
_geom_bond_site_symmetry_2
Cu1 N1 1_555 1_555
Cu2 N5 1_555 1_555
N1 C1 1_555 1_555
N2 C1 1_555 1_555
N3 Cu1 1_555 1_555
N4 C8 1_555 1_555
N5 C15 1_555 1_555
N6 C15 1_555 1_555
N7 Cu2 1_555 1_555
N8 C22 1_555 1_555
C1 H1 1_555 1_555
C2 N1 1_555 1_555
H2 C2 1_555 1_555
C3 N2 1_555 1_555
H3 C3 1_555 1_555
C4 N2 1_555 1_555
H4 C4 1_555 1_555
H5 C4 1_555 1_555
C5 C4 1_555 1_555
C6 C5 1_555 1_555
H6 C6 1_555 1_555
C7 C5 1_555 1_555
H7 C7 1_555 1_555
C8 N3 1_555 1_555
H8 C8 1_555 1_555
C9 N3 1_555 1_555
H9 C9 1_555 1_555
C10 N4 1_555 1_555
H10 C10 1_555 1_555
C11 N4 1_555 1_555
H11 C11 1_555 1_555
H12 C11 1_555 1_555
C12 C11 1_555 1_555
C13 C12 1_555 1_555
H13 C13 1_555 1_555
C14 C12 1_555 1_555
H14 C14 1_555 1_555
C15 H15 1_555 1_555
C16 N5 1_555 1_555
H16 C16 1_555 1_555
C17 N6 1_555 1_555
H17 C17 1_555 1_555
C18 N6 1_555 1_555
H18 C18 1_555 1_555
H19 C18 1_555 1_555
C19 C18 1_555 1_555
C20 C19 1_555 1_555
H20 C20 1_555 1_555
C21 C19 1_555 1_555
H21 C21 1_555 1_555
C22 N7 1_555 1_555
H22 C22 1_555 1_555
C23 N7 1_555 1_555
H23 C23 1_555 1_555
C24 N8 1_555 1_555
H24 C24 1_555 1_555
C25 N8 1_555 1_555
H25 C25 1_555 1_555
H26 C25 1_555 1_555
C26 C25 1_555 1_555
C27 C26 1_555 1_555
H27 C27 1_555 1_555
C28 C26 1_555 1_555
H28 C28 1_555 1_555
N9 N10 1_555 1_555
N10 N11 1_555 1_555
N12 N13 1_555 1_555
N13 N14 1_555 1_555
O1 H29 1_555 1_555
H30 O1 1_555 1_555
Cu1_2 N1A 1_555 1_555
Cu1_3 N3A 1_555 1_555
Cu2_2 N5A 1_555 1_555
Cu2_3 N7A 1_555 1_555
N1A C1A 1_555 1_555
N1A_2 Cu1 1_555 1_555
N2A C1A 1_555 1_555
N3A C8A 1_555 1_555
N3A_2 Cu1 1_555 1_555
N4A C8A 1_555 1_555
N5A C15A 1_555 1_555
N5A_2 Cu2 1_555 1_555
N6A C15A 1_555 1_555
N7A C22A 1_555 1_555
N7A_2 Cu2 1_555 1_555
N8A C22A 1_555 1_555
C1A H1A 1_555 1_555
C2A N1A 1_555 1_555
H2A C2A 1_555 1_555
C3A N2A 1_555 1_555
H3A C3A 1_555 1_555
C4A N2A 1_555 1_555
H4A C4A 1_555 1_555
H5A C4A 1_555 1_555
C5A C4A 1_555 1_555
C6A C7 1_555 1_555
H6A C6A 1_555 1_555
C7A C6 1_555 1_555
H7A C7A 1_555 1_555
C8A H8A 1_555 1_555
C9A N3A 1_555 1_555
H9A C9A 1_555 1_555
C10A N4A 1_555 1_555
H10A C10A 1_555 1_555
C11A N4A 1_555 1_555
H11A C11A 1_555 1_555
H12A C11A 1_555 1_555
C12A C11A 1_555 1_555
C13A C14 1_555 1_555
H13A C13A 1_555 1_555
C14A C13 1_555 1_555
H14A C14A 1_555 1_555
C15A H15A 1_555 1_555
C16A N5A 1_555 1_555
H16A C16A 1_555 1_555
C17A N6A 1_555 1_555
H17A C17A 1_555 1_555
C18A N6A 1_555 1_555
H18A C18A 1_555 1_555
H19A C18A 1_555 1_555
C19A C18A 1_555 1_555
C20A C21 1_555 1_555
H20A C20A 1_555 1_555
C21A C20 1_555 1_555
H21A C21A 1_555 1_555
C22A H22A 1_555 1_555
C23A N7A 1_555 1_555
H23A C23A 1_555 1_555
C24A N8A 1_555 1_555
H24A C24A 1_555 1_555
C25A N8A 1_555 1_555
H25A C25A 1_555 1_555
H26A C25A 1_555 1_555
C26A C25A 1_555 1_555
C27A C28 1_555 1_555
H27A C27A 1_555 1_555
C28A C27 1_555 1_555
H28A C28A 1_555 1_555
C2 C3 1_555 1_555
C9 C10 1_555 1_555
C16 C17 1_555 1_555
C23 C24 1_555 1_555
C2A C3A 1_555 1_555
C5A C6A 1_555 1_555
C5A C7A 1_555 1_555
C9A C10A 1_555 1_555
C12A C13A 1_555 1_555
C12A C14A 1_555 1_555
C16A C17A 1_555 1_555
C19A C20A 1_555 1_555
C19A C21A 1_555 1_555
C23A C24A 1_555 1_555
C26A C27A 1_555 1_555
C26A C28A 1_555 1_555

#END
