
#######################################################################
#
#                 Cambridge Crystallographic Data Centre
#                                CCDC 
#
#######################################################################
#
# If this CIF has been generated from an entry in the Cambridge 
# Structural Database, then it will include bibliographic, chemical, 
# crystal, experimental, refinement or atomic coordinate data resulting 
# from the CCDC's data processing and validation procedures.
#
#######################################################################

data_OHAPEU
_symmetry_cell_setting           monoclinic
_symmetry_space_group_name_H-M   'P 21/c'
_symmetry_Int_Tables_number      14
_space_group_name_Hall           '-P 2ybc'
loop_
_symmetry_equiv_pos_site_id
_symmetry_equiv_pos_as_xyz
1 x,y,z
2 -x,1/2+y,1/2-z
3 -x,-y,-z
4 x,1/2-y,1/2+z
_cell_length_a                   14.7273(16)
_cell_length_b                   34.677(4)
_cell_length_c                   8.2504(9)
_cell_angle_alpha                90
_cell_angle_beta                 104.498(2)
_cell_angle_gamma                90
_cell_volume                     4079.3
loop_
_atom_site_label
_atom_site_type_symbol
_atom_site_fract_x
_atom_site_fract_y
_atom_site_fract_z
Zn1 Zn 0.31879(5) 0.15077(2) 1.12175(12)
O1 O 0.2227(3) 0.11728(16) 0.9833(7)
O2 O 0.1555(4) 0.16966(19) 0.8599(8)
N1 N 0.4949(4) 0.22081(19) 0.9293(8)
N2 N -0.1799(4) 0.0496(2) 0.6078(11)
N3 N 0.3837(4) 0.1888(2) 1.0054(9)
N4 N 1.1299(5) 0.3003(2) 0.8583(9)
C1 C 0.5853(5) 0.2307(2) 0.9079(10)
N5 N 1.2478(4) 0.3231(2) 0.7757(9)
C2 C -0.1810(5) 0.0081(2) 0.6158(12)
C3 C 0.7616(5) 0.2507(2) 0.8701(10)
C4 C 0.1559(5) 0.1340(3) 0.8860(10)
C5 C 0.8569(5) 0.2626(3) 0.8570(10)
C6 C 0.0701(5) 0.1113(2) 0.8051(11)
C7 C 0.4722(5) 0.1892(2) 1.0017(11)
H1 H 0.5144 0.1696 1.0449
C8 C 0.0601(5) 0.0735(3) 0.8562(12)
H2 H 0.1088 0.0618 0.9349
C9 C -0.0210(5) 0.0534(3) 0.7910(13)
H3 H -0.0266 0.0282 0.8263
C10 C 1.1996(6) 0.3065(3) 0.9991(12)
H4 H 1.1970 0.3017 1.1087
C11 C -0.0024(6) 0.1270(3) 0.6858(12)
H5 H 0.0031 0.1522 0.6505
C12 C 0.7373(6) 0.2128(3) 0.8725(15)
H6 H 0.7800 0.1937 0.8627
C13 C 1.1591(6) 0.3118(3) 0.7243(12)
H7 H 1.1233 0.3119 0.6141
C14 C 0.6981(6) 0.2781(3) 0.8858(14)
H8 H 0.7140 0.3040 0.8821
C15 C -0.2415(7) -0.0100(3) 0.6959(15)
H9 H -0.2813 0.0045 0.7432
C16 C -0.0947(5) 0.0698(2) 0.6737(12)
C17 C 1.0359(5) 0.2864(3) 0.8523(11)
C18 C 0.6476(7) 0.2024(3) 0.8899(14)
H10 H 0.6306 0.1765 0.8892
C19 C -0.1252(10) -0.0530(4) 0.5561(18)
H11 H -0.0842 -0.0679 0.5130
C20 C -0.0820(6) 0.1069(3) 0.6176(14)
H12 H -0.1284 0.1179 0.5327
C21 C 0.6105(6) 0.2685(3) 0.9072(13)
H13 H 0.5691 0.2878 0.9210
C22 C -0.1234(7) -0.0129(3) 0.5435(14)
H14 H -0.0838 -0.0008 0.4873
C23 C 0.9631(7) 0.3125(4) 0.814(2)
H15 H 0.9728 0.3378 0.7850
C24 C 1.2727(6) 0.3209(3) 0.9494(11)
H16 H 1.3301 0.3281 1.0191
C25 C 0.3460(5) 0.2228(3) 0.9285(12)
H17 H 0.2839 0.2306 0.9113
C26 C 0.9274(7) 0.2369(4) 0.870(2)
H18 H 0.9160 0.2108 0.8812
C27 C 0.4133(6) 0.2424(3) 0.8834(13)
H19 H 0.4067 0.2663 0.8306
C28 C 1.0165(7) 0.2490(4) 0.866(2)
H20 H 1.0637 0.2308 0.8722
C29 C 0.8747(6) 0.2997(3) 0.8206(18)
H21 H 0.8254 0.3173 0.7991
C30 C -0.2423(9) -0.0493(4) 0.7052(19)
H22 H -0.2810 -0.0617 0.7623
C31 C -0.1859(10) -0.0703(4) 0.630(2)
H23 H -0.1895 -0.0971 0.6299
C32 C -0.3707(5) 0.1214(3) 0.5492(12)
H24 H -0.3841 0.1442 0.5982
C33 C -0.2658(5) 0.0685(2) 0.5452(12)
C34 C -0.3310(6) 0.0537(3) 0.4134(11)
H25 H -0.3184 0.0305 0.3671
C35 C -0.2865(6) 0.1025(3) 0.6161(12)
H26 H -0.2439 0.1127 0.7089
C36 C -0.5243(5) 0.1287(2) 0.3362(12)
C37 C -0.4158(5) 0.0720(2) 0.3453(11)
H27 H -0.4593 0.0608 0.2564
C38 C -0.4353(5) 0.1067(2) 0.4095(10)
O3 O -0.5359(4) 0.16106(18) 0.3932(9)
O4 O -0.5828(3) 0.11303(16) 0.2141(8)
Zn1_2 Zn -0.68121(5) 0.15077(2) 0.12175(12)
Zn1C Zn 1.31879(5) 0.34923(2) 0.62175(12)
N5C N 0.2478(4) 0.1769(2) 1.2757(9)
O4_2 O 0.4172(3) 0.11303(16) 1.2141(8)
N6 N -0.4247(10) -0.0580(4) 0.2082(17)
C39 C -0.3595(14) -0.0458(7) 0.125(3)
O5 O -0.3669(14) -0.0101(6) 0.075(3)
C40 C -0.4869(13) -0.0360(6) 0.274(2)
H28 H -0.5245 -0.0528 0.3228
H29 H -0.5268 -0.0212 0.1859
H30 H -0.4519 -0.0188 0.3581
C41 C -0.4090(16) -0.0961(7) 0.254(3)
H31 H -0.4551 -0.1045 0.3109
H32 H -0.3475 -0.0988 0.3278
H33 H -0.4135 -0.1117 0.1562
N7 N -0.1858(14) 0.0778(7) 1.094(2)
C42 C -0.290(2) 0.0815(11) 1.040(5)
C43 C -0.1625(16) 0.0391(8) 1.120(3)
H34 H -0.0955 0.0364 1.1508
H35 H -0.1878 0.0250 1.0183
H36 H -0.1880 0.0291 1.2074
C44 C -0.117(2) 0.1101(10) 1.092(4)
O6 O -0.293(2) 0.1172(11) 1.068(4)
loop_
_geom_bond_atom_site_label_1
_geom_bond_atom_site_label_2
_geom_bond_site_symmetry_1
_geom_bond_site_symmetry_2
Zn1 O1 1_555 1_555
O1 C4 1_555 1_555
O2 C4 1_555 1_555
N1 C1 1_555 1_555
N2 C2 1_555 1_555
N3 Zn1 1_555 1_555
N4 C10 1_555 1_555
C1 C18 1_555 1_555
N5 C13 1_555 1_555
C2 C15 1_555 1_555
C3 C5 1_555 1_555
C4 C6 1_555 1_555
C5 C26 1_555 1_555
C6 C8 1_555 1_555
C7 N1 1_555 1_555
H1 C7 1_555 1_555
C8 H2 1_555 1_555
C9 C8 1_555 1_555
H3 C9 1_555 1_555
C10 H4 1_555 1_555
C11 C6 1_555 1_555
H5 C11 1_555 1_555
C12 C3 1_555 1_555
H6 C12 1_555 1_555
C13 N4 1_555 1_555
H7 C13 1_555 1_555
C14 C3 1_555 1_555
H8 C14 1_555 1_555
C15 H9 1_555 1_555
C16 N2 1_555 1_555
C17 N4 1_555 1_555
C18 C12 1_555 1_555
H10 C18 1_555 1_555
C19 H11 1_555 1_555
C20 C11 1_555 1_555
H12 C20 1_555 1_555
C21 C1 1_555 1_555
H13 C21 1_555 1_555
C22 C2 1_555 1_555
H14 C22 1_555 1_555
C23 C17 1_555 1_555
H15 C23 1_555 1_555
C24 N5 1_555 1_555
H16 C24 1_555 1_555
C25 N3 1_555 1_555
H17 C25 1_555 1_555
C26 H18 1_555 1_555
C27 N1 1_555 1_555
H19 C27 1_555 1_555
C28 C17 1_555 1_555
H20 C28 1_555 1_555
C29 C5 1_555 1_555
H21 C29 1_555 1_555
C30 C15 1_555 1_555
H22 C30 1_555 1_555
C31 C19 1_555 1_555
H23 C31 1_555 1_555
C32 H24 1_555 1_555
C33 N2 1_555 1_555
C34 C33 1_555 1_555
H25 C34 1_555 1_555
C35 C32 1_555 1_555
H26 C35 1_555 1_555
C36 C38 1_555 1_555
C37 C34 1_555 1_555
H27 C37 1_555 1_555
C38 C32 1_555 1_555
O3 C36 1_555 1_555
O4 C36 1_555 1_555
N6 C39 1_555 1_555
C39 O5 1_555 1_555
C40 N6 1_555 1_555
H28 C40 1_555 1_555
H29 C40 1_555 1_555
H30 C40 1_555 1_555
C41 N6 1_555 1_555
H31 C41 1_555 1_555
H32 C41 1_555 1_555
H33 C41 1_555 1_555
N7 C42 1_555 1_555
C42 O6 1_555 1_555
C43 N7 1_555 1_555
H34 C43 1_555 1_555
H35 C43 1_555 1_555
H36 C43 1_555 1_555
C44 N7 1_555 1_555
Zn1_2 O4 1_555 1_555
Zn1C N5 1_555 1_555
N5C Zn1 1_555 1_555
O4_2 Zn1 1_555 1_555
N3 C7 1_555 1_555
C9 C16 1_555 1_555
C10 C24 1_555 1_555
C14 C21 1_555 1_555
C16 C20 1_555 1_555
C19 C22 1_555 1_555
C23 C29 1_555 1_555
C25 C27 1_555 1_555
C26 C28 1_555 1_555
C30 C31 1_555 1_555
C33 C35 1_555 1_555
C37 C38 1_555 1_555

#END
