
#######################################################################
#
#                 Cambridge Crystallographic Data Centre
#                                CCDC 
#
#######################################################################
#
# If this CIF has been generated from an entry in the Cambridge 
# Structural Database, then it will include bibliographic, chemical, 
# crystal, experimental, refinement or atomic coordinate data resulting 
# from the CCDC's data processing and validation procedures.
#
#######################################################################

data_OHASAS
_symmetry_cell_setting           tetragonal
_symmetry_space_group_name_H-M   'P 43 21 2'
_symmetry_Int_Tables_number      96
_space_group_name_Hall           'P 4nw 2abw'
loop_
_symmetry_equiv_pos_site_id
_symmetry_equiv_pos_as_xyz
1 x,y,z
2 -x,-y,1/2+z
3 1/2-y,1/2+x,3/4+z
4 1/2+y,1/2-x,1/4+z
5 1/2-x,1/2+y,3/4-z
6 1/2+x,1/2-y,1/4-z
7 y,x,-z
8 -y,-x,1/2-z
_cell_length_a                   11.624(2)
_cell_length_b                   11.624(2)
_cell_length_c                   30.720(8)
_cell_angle_alpha                90
_cell_angle_beta                 90
_cell_angle_gamma                90
_cell_volume                     4150.81
loop_
_atom_site_label
_atom_site_type_symbol
_atom_site_fract_x
_atom_site_fract_y
_atom_site_fract_z
Cu1 Cu 0.87779(4) 0.04910(5) 0.030786(17)
C1 C 0.8692(4) -0.1374(5) 0.09862(16)
H1 H 0.9347 -0.1042 0.1106
C2 C 0.8235(5) -0.2359(5) 0.11802(18)
H2 H 0.8587 -0.2679 0.1424
C3 C 0.7260(5) -0.2851(5) 0.10079(16)
H3 H 0.6946 -0.3506 0.1134
C4 C 0.6746(4) -0.2360(4) 0.06426(14)
C5 C 0.5719(4) -0.2819(4) 0.04370(14)
C6 C 0.4314(4) -0.4182(4) 0.04054(16)
C7 C 0.3774(5) -0.5186(5) 0.05727(18)
H4 H 0.4066 -0.5545 0.0820
C8 C 0.2831(6) -0.5618(5) 0.03705(19)
H5 H 0.2469 -0.6267 0.0483
C9 C 0.2392(6) -0.5091(6) -0.0010(2)
H6 H 0.1753 -0.5407 -0.0147
C10 C 0.2884(5) -0.4137(5) -0.0176(2)
H7 H 0.2581 -0.3802 -0.0426
C11 C 0.3850(4) -0.3646(4) 0.00245(16)
C12 C 0.5258(4) -0.2272(4) 0.00600(15)
C13 C 0.5800(4) -0.1232(4) -0.01100(14)
C14 C 0.5370(5) -0.0632(5) -0.04697(18)
H8 H 0.4705 -0.0879 -0.0610
C15 C 0.5948(6) 0.0325(5) -0.0612(2)
H9 H 0.5680 0.0734 -0.0852
C16 C 0.6944(5) 0.0685(5) -0.03944(16)
H10 H 0.7324 0.1341 -0.0490
C17 C 0.6776(4) -0.0822(4) 0.00880(14)
C18 C 0.7260(4) -0.1391(4) 0.04663(13)
C19 C 0.9960(4) 0.1348(4) -0.04226(13)
C20 C 1.0487(4) 0.2323(4) -0.06813(13)
C21 C 1.0027(4) 0.3420(4) -0.06434(14)
H11 H 0.9391 0.3553 -0.0467
C22 C 1.0532(4) 0.4318(3) -0.08739(13)
C23 C 1.1481(4) 0.4111(4) -0.11362(14)
H12 H 1.1813 0.4713 -0.1291
C24 C 1.1935(4) 0.3015(4) -0.11688(14)
C25 C 1.1427(4) 0.2107(4) -0.09411(14)
H13 H 1.1721 0.1366 -0.0965
C26 C 1.3000(4) 0.2806(4) -0.14446(14)
N1 N 0.8218(3) -0.0894(3) 0.06340(12)
N2 N 0.7359(3) 0.0115(3) -0.00552(12)
N3 N 0.5245(3) -0.3757(3) 0.06042(12)
N4 N 0.4329(4) -0.2683(3) -0.01401(13)
O1 O 0.9320(3) 0.1611(3) -0.01087(11)
O2 O 1.0217(3) 0.0355(3) -0.05387(11)
O3 O 1.3253(3) 0.3559(3) -0.17146(11)
O4 O 1.3527(3) 0.1892(3) -0.13805(12)
O5 O 1.0051(3) 0.5383(3) -0.08267(11)
H14 H 1.0498 0.5873 -0.0919
Cu1F Cu 1.04910(5) -0.12221(4) -0.030786(17)
Cu1B Cu 1.45090(5) 0.37779(4) -0.219214(17)
O2F O 1.0355(3) 0.0217(3) 0.05387(11)
O3C O 0.8559(3) 0.1747(3) 0.07854(11)
loop_
_geom_bond_atom_site_label_1
_geom_bond_atom_site_label_2
_geom_bond_site_symmetry_1
_geom_bond_site_symmetry_2
Cu1 N1 1_555 1_555
C1 H1 1_555 1_555
C2 C1 1_555 1_555
H2 C2 1_555 1_555
C3 C2 1_555 1_555
H3 C3 1_555 1_555
C4 C3 1_555 1_555
C5 C4 1_555 1_555
C6 C7 1_555 1_555
C7 H4 1_555 1_555
C8 C7 1_555 1_555
H5 C8 1_555 1_555
C9 C8 1_555 1_555
H6 C9 1_555 1_555
C10 C9 1_555 1_555
H7 C10 1_555 1_555
C11 C6 1_555 1_555
C12 C5 1_555 1_555
C13 C12 1_555 1_555
C14 C13 1_555 1_555
H8 C14 1_555 1_555
C15 C14 1_555 1_555
H9 C15 1_555 1_555
C16 C15 1_555 1_555
H10 C16 1_555 1_555
C17 C13 1_555 1_555
C18 C4 1_555 1_555
C19 C20 1_555 1_555
C20 C21 1_555 1_555
C21 H11 1_555 1_555
C22 C21 1_555 1_555
C23 C22 1_555 1_555
H12 C23 1_555 1_555
C24 C23 1_555 1_555
C25 C20 1_555 1_555
H13 C25 1_555 1_555
C26 C24 1_555 1_555
N1 C1 1_555 1_555
N2 Cu1 1_555 1_555
N3 C5 1_555 1_555
N4 C11 1_555 1_555
O1 Cu1 1_555 1_555
O2 C19 1_555 1_555
O3 C26 1_555 1_555
O4 C26 1_555 1_555
O5 C22 1_555 1_555
H14 O5 1_555 1_555
Cu1F O2 1_555 1_555
Cu1B O3 1_555 1_555
O2F Cu1 1_555 1_555
O3C Cu1 1_555 1_555
C6 N3 1_555 1_555
C10 C11 1_555 1_555
C12 N4 1_555 1_555
C16 N2 1_555 1_555
C17 C18 1_555 1_555
C17 N2 1_555 1_555
C18 N1 1_555 1_555
C19 O1 1_555 1_555
C24 C25 1_555 1_555

#END
