
#######################################################################
#
#                 Cambridge Crystallographic Data Centre
#                                CCDC 
#
#######################################################################
#
# If this CIF has been generated from an entry in the Cambridge 
# Structural Database, then it will include bibliographic, chemical, 
# crystal, experimental, refinement or atomic coordinate data resulting 
# from the CCDC's data processing and validation procedures.
#
#######################################################################

data_OHAVEZ
_symmetry_cell_setting           monoclinic
_symmetry_space_group_name_H-M   'P 21/a'
_symmetry_Int_Tables_number      14
_space_group_name_Hall           '-P 2yab'
loop_
_symmetry_equiv_pos_site_id
_symmetry_equiv_pos_as_xyz
1 x,y,z
2 1/2-x,1/2+y,-z
3 -x,-y,-z
4 1/2+x,1/2-y,z
_cell_length_a                   17.0068(2)
_cell_length_b                   19.5863(2)
_cell_length_c                   17.7921(2)
_cell_angle_alpha                90
_cell_angle_beta                 93.7974(10)
_cell_angle_gamma                90
_cell_volume                     5913.54
loop_
_atom_site_label
_atom_site_type_symbol
_atom_site_fract_x
_atom_site_fract_y
_atom_site_fract_z
Fe1 Fe 0.084283(17) 0.313344(15) 0.390687(15)
Fe2 Fe 0.167776(17) 0.260740(14) 0.724653(15)
Fe3 Fe 0.058350(17) 0.249920(15) 0.050830(15)
N1 N 0.01878(11) 0.22573(9) 0.41909(10)
N2 N 0.16409(11) 0.23135(9) 0.37689(9)
N3 N 0.02454(10) 0.31175(9) 0.27940(9)
N4 N 0.14769(10) 0.32715(8) 0.49927(9)
N5 N 0.18198(10) 0.30664(8) 0.61773(9)
N6 N 0.04296(10) 0.26362(9) 0.70547(9)
N7 N 0.13930(10) 0.35926(8) 0.76044(9)
N8 N 0.14819(10) 0.21992(8) 0.83559(9)
N9 N 0.11170(10) 0.21388(9) 0.95132(9)
N10 N 0.12981(10) 0.33949(9) 0.05525(9)
N11 N 0.16191(10) 0.21732(9) 0.11245(9)
N12 N 0.01512(10) 0.28775(9) 0.15850(9)
O1 O 0.15859(8) 0.37202(7) 0.34694(7)
O2 O 0.00358(8) 0.36700(7) 0.43069(8)
O3 O 0.16591(8) 0.17284(7) 0.67957(8)
O4 O 0.27473(8) 0.27792(7) 0.75861(8)
O5 O -0.01719(8) 0.30043(7) -0.00921(8)
O6 O 0.01422(8) 0.16252(7) 0.06936(8)
C1 C 0.05209(14) 0.16130(11) 0.39485(13)
H1 H 0.0382 0.1536 0.3406
H2 H 0.0314 0.1228 0.4237
C2 C 0.13985(14) 0.16678(11) 0.40937(13)
H3 H 0.1542 0.1659 0.4642
H4 H 0.1663 0.1281 0.3857
C3 C 0.23234(13) 0.23616(11) 0.35041(12)
H5 H 0.2634 0.1959 0.3503
C4 C 0.26588(13) 0.29732(12) 0.32080(12)
C5 C 0.34044(14) 0.29188(13) 0.29131(13)
H6 H 0.3659 0.2487 0.2917
C6 C 0.37730(14) 0.34694(14) 0.26218(13)
H7 H 0.4271 0.3418 0.2417
C7 C 0.34115(14) 0.41039(13) 0.26288(13)
H8 H 0.3669 0.4491 0.2438
C8 C 0.26779(13) 0.41756(12) 0.29127(12)
H9 H 0.2438 0.4614 0.2909
C9 C 0.22802(12) 0.36180(11) 0.32052(11)
C10 C -0.04399(13) 0.22556(12) 0.45485(12)
H10 H -0.0691 0.1828 0.4611
C11 C -0.07980(13) 0.28451(12) 0.48636(12)
C12 C -0.14331(15) 0.27376(14) 0.53183(14)
H11 H -0.1641 0.2290 0.5358
C13 C -0.17583(15) 0.32564(14) 0.57031(14)
H12 H -0.2187 0.3173 0.6007
C14 C -0.14496(15) 0.39112(14) 0.56408(14)
H13 H -0.1658 0.4274 0.5922
C15 C -0.08458(14) 0.40441(13) 0.51788(13)
H14 H -0.0654 0.4497 0.5138
C16 C -0.05138(13) 0.35200(12) 0.47712(11)
N13 N 0.05562(10) 0.27662(9) 0.22428(9)
C17 C -0.03818(12) 0.34837(10) 0.24831(11)
C18 C -0.08994(13) 0.39478(11) 0.27959(12)
H15 H -0.0847 0.4068 0.3314
C19 C -0.14800(13) 0.42184(11) 0.23205(13)
H16 H -0.1836 0.4538 0.2513
C20 C 0.21590(14) 0.44200(11) 0.49044(12)
H17 H 0.2003 0.4517 0.4393
C21 C 0.26170(14) 0.48659(11) 0.53366(12)
H18 H 0.2779 0.5282 0.5121
C22 C 0.28526(13) 0.47200(11) 0.60936(12)
H19 H 0.3175 0.5039 0.6373
C23 C 0.26318(12) 0.41329(10) 0.64390(11)
H20 H 0.2796 0.4038 0.6949
C24 C 0.21520(12) 0.36762(10) 0.60065(11)
C25 C 0.19319(12) 0.38150(10) 0.52514(11)
N14 N 0.14147(10) 0.28376(9) 0.55570(9)
C26 C 0.00555(13) 0.32401(11) 0.73599(12)
H21 H -0.0061 0.3160 0.7890
H22 H -0.0445 0.3341 0.7065
C27 C 0.06243(12) 0.38347(11) 0.73112(12)
H23 H 0.0647 0.3986 0.6782
H24 H 0.0452 0.4225 0.7614
C28 C 0.18092(13) 0.39329(11) 0.80979(11)
H25 H 0.1586 0.4339 0.8283
C29 C 0.25900(12) 0.37498(11) 0.83965(11)
C30 C 0.29509(14) 0.41831(12) 0.89492(12)
H26 H 0.2665 0.4564 0.9118
C31 C 0.37043(14) 0.40698(13) 0.92506(13)
H27 H 0.3936 0.4367 0.9625
C32 C 0.41230(14) 0.35123(12) 0.89990(12)
H28 H 0.4642 0.3425 0.9209
C33 C 0.37926(13) 0.30865(12) 0.84500(12)
H29 H 0.4092 0.2713 0.8282
C34 C 0.30243(13) 0.31894(10) 0.81318(11)
C35 C -0.00041(13) 0.21680(11) 0.67379(11)
H30 H -0.0557 0.2246 0.6688
C36 C 0.02860(13) 0.15300(11) 0.64513(11)
C37 C -0.02753(14) 0.10715(12) 0.61282(12)
H31 H -0.0815 0.1201 0.6090
C38 C -0.00679(14) 0.04410(12) 0.58661(13)
H32 H -0.0457 0.0138 0.5652
C39 C 0.07247(14) 0.02540(12) 0.59205(13)
H33 H 0.0876 -0.0182 0.5746
C40 C 0.12862(14) 0.06933(11) 0.62228(12)
H34 H 0.1823 0.0557 0.6247
C41 C 0.10921(12) 0.13396(11) 0.64987(11)
C42 C 0.20715(12) 0.10165(11) 0.82865(12)
H35 H 0.2237 0.1047 0.7788
C43 C 0.21883(13) 0.04355(11) 0.87073(12)
H36 H 0.2436 0.0053 0.8495
C44 C 0.19480(12) 0.03936(11) 0.94505(12)
H37 H 0.2040 -0.0017 0.9726
C45 C 0.15868(13) 0.09272(11) 0.97854(11)
H38 H 0.1428 0.0894 1.0286
C46 C 0.14604(12) 0.15255(10) 0.93606(11)
C47 C 0.16971(12) 0.15641(10) 0.86222(11)
N15 N 0.11374(10) 0.25298(8) 0.88984(9)
C48 C 0.19995(13) 0.33548(12) 0.10750(13)
H39 H 0.1865 0.3485 0.1589
H40 H 0.2411 0.3670 0.0914
C49 C 0.22970(13) 0.26256(12) 0.10719(13)
H41 H 0.2559 0.2533 0.0602
H42 H 0.2684 0.2549 0.1505
C50 C 0.11597(13) 0.39404(11) 0.01732(12)
H43 H 0.1538 0.4296 0.0232
C51 C 0.04798(13) 0.40637(11) -0.03362(12)
C52 C 0.04448(14) 0.46925(11) -0.07153(12)
H44 H 0.0863 0.5009 -0.0627
C53 C -0.01771(14) 0.48618(12) -0.12100(12)
H45 H -0.0185 0.5284 -0.1472
C54 C -0.07969(14) 0.44009(12) -0.13190(12)
H46 H -0.1231 0.4512 -0.1660
C55 C -0.07934(13) 0.37846(11) -0.09404(12)
H47 H -0.1231 0.3485 -0.1015
C56 C 0.16380(13) 0.16902(11) 0.16123(11)
H48 H 0.2087 0.1666 0.1958
C57 C -0.01508(13) 0.35964(11) -0.04468(11)
C58 C 0.10355(13) 0.11807(11) 0.16801(11)
C59 C 0.03301(12) 0.11580(11) 0.12071(11)
C60 C -0.01712(13) 0.05967(11) 0.12769(12)
H49 H -0.0646 0.0571 0.0965
C61 C 0.00073(14) 0.00789(12) 0.17890(12)
H50 H -0.0340 -0.0298 0.1818
C62 C 0.06913(14) 0.01068(12) 0.22609(13)
H51 H 0.0811 -0.0245 0.2618
C63 C 0.11905(14) 0.06504(12) 0.22031(12)
H52 H 0.1657 0.0670 0.2527
C64 C -0.04478(12) 0.33221(10) 0.17154(11)
C65 C -0.10598(12) 0.35920(11) 0.12361(12)
H53 H -0.1120 0.3472 0.0718
C66 C -0.15684(13) 0.40393(11) 0.15520(12)
H54 H -0.1989 0.4232 0.1244
Fe3_2 Fe 0.058350(17) 0.249920(15) 1.050830(15)
N9_2 N 0.11170(10) 0.21388(9) -0.04868(9)
loop_
_geom_bond_atom_site_label_1
_geom_bond_atom_site_label_2
_geom_bond_site_symmetry_1
_geom_bond_site_symmetry_2
Fe1 N1 1_555 1_555
Fe2 N5 1_555 1_555
Fe3 N10 1_555 1_555
N1 C1 1_555 1_555
N2 Fe1 1_555 1_555
N3 Fe1 1_555 1_555
N4 Fe1 1_555 1_555
N5 C24 1_555 1_555
N6 Fe2 1_555 1_555
N7 Fe2 1_555 1_555
N8 Fe2 1_555 1_555
N9 C46 1_555 1_555
N10 C48 1_555 1_555
N11 Fe3 1_555 1_555
N12 Fe3 1_555 1_555
O1 Fe1 1_555 1_555
O2 Fe1 1_555 1_555
O3 Fe2 1_555 1_555
O4 Fe2 1_555 1_555
O5 Fe3 1_555 1_555
O6 Fe3 1_555 1_555
C1 H1 1_555 1_555
H2 C1 1_555 1_555
C2 N2 1_555 1_555
H3 C2 1_555 1_555
H4 C2 1_555 1_555
C3 N2 1_555 1_555
H5 C3 1_555 1_555
C4 C3 1_555 1_555
C5 C4 1_555 1_555
H6 C5 1_555 1_555
C6 C5 1_555 1_555
H7 C6 1_555 1_555
C7 C6 1_555 1_555
H8 C7 1_555 1_555
C8 C7 1_555 1_555
H9 C8 1_555 1_555
C9 O1 1_555 1_555
C10 N1 1_555 1_555
H10 C10 1_555 1_555
C11 C10 1_555 1_555
C12 C11 1_555 1_555
H11 C12 1_555 1_555
C13 C12 1_555 1_555
H12 C13 1_555 1_555
C14 C13 1_555 1_555
H13 C14 1_555 1_555
C15 C14 1_555 1_555
H14 C15 1_555 1_555
C16 O2 1_555 1_555
N13 N3 1_555 1_555
C17 N3 1_555 1_555
C18 C17 1_555 1_555
H15 C18 1_555 1_555
C19 C18 1_555 1_555
H16 C19 1_555 1_555
C20 H17 1_555 1_555
C21 C20 1_555 1_555
H18 C21 1_555 1_555
C22 C21 1_555 1_555
H19 C22 1_555 1_555
C23 C22 1_555 1_555
H20 C23 1_555 1_555
C24 C23 1_555 1_555
C25 N4 1_555 1_555
N14 N4 1_555 1_555
C26 N6 1_555 1_555
H21 C26 1_555 1_555
H22 C26 1_555 1_555
C27 N7 1_555 1_555
H23 C27 1_555 1_555
H24 C27 1_555 1_555
C28 N7 1_555 1_555
H25 C28 1_555 1_555
C29 C28 1_555 1_555
C30 C29 1_555 1_555
H26 C30 1_555 1_555
C31 C30 1_555 1_555
H27 C31 1_555 1_555
C32 C31 1_555 1_555
H28 C32 1_555 1_555
C33 C32 1_555 1_555
H29 C33 1_555 1_555
C34 O4 1_555 1_555
C35 N6 1_555 1_555
H30 C35 1_555 1_555
C36 C35 1_555 1_555
C37 C36 1_555 1_555
H31 C37 1_555 1_555
C38 C37 1_555 1_555
H32 C38 1_555 1_555
C39 C38 1_555 1_555
H33 C39 1_555 1_555
C40 C39 1_555 1_555
H34 C40 1_555 1_555
C41 O3 1_555 1_555
C42 H35 1_555 1_555
C43 C42 1_555 1_555
H36 C43 1_555 1_555
C44 C43 1_555 1_555
H37 C44 1_555 1_555
C45 C44 1_555 1_555
H38 C45 1_555 1_555
C46 C45 1_555 1_555
C47 N8 1_555 1_555
N15 N8 1_555 1_555
C48 H39 1_555 1_555
H40 C48 1_555 1_555
C49 N11 1_555 1_555
H41 C49 1_555 1_555
H42 C49 1_555 1_555
C50 N10 1_555 1_555
H43 C50 1_555 1_555
C51 C50 1_555 1_555
C52 C51 1_555 1_555
H44 C52 1_555 1_555
C53 C52 1_555 1_555
H45 C53 1_555 1_555
C54 C53 1_555 1_555
H46 C54 1_555 1_555
C55 C54 1_555 1_555
H47 C55 1_555 1_555
C56 N11 1_555 1_555
H48 C56 1_555 1_555
C57 O5 1_555 1_555
C58 C56 1_555 1_555
C59 O6 1_555 1_555
C60 C59 1_555 1_555
H49 C60 1_555 1_555
C61 C60 1_555 1_555
H50 C61 1_555 1_555
C62 C61 1_555 1_555
H51 C62 1_555 1_555
C63 C58 1_555 1_555
H52 C63 1_555 1_555
C64 N12 1_555 1_555
C65 C64 1_555 1_555
H53 C65 1_555 1_555
C66 C19 1_555 1_555
H54 C66 1_555 1_555
Fe3_2 N9 1_555 1_555
N9_2 Fe3 1_555 1_555
N5 N14 1_555 1_555
N9 N15 1_555 1_555
N12 N13 1_555 1_555
C1 C2 1_555 1_555
C4 C9 1_555 1_555
C8 C9 1_555 1_555
C11 C16 1_555 1_555
C15 C16 1_555 1_555
C17 C64 1_555 1_555
C20 C25 1_555 1_555
C24 C25 1_555 1_555
C26 C27 1_555 1_555
C29 C34 1_555 1_555
C33 C34 1_555 1_555
C36 C41 1_555 1_555
C40 C41 1_555 1_555
C42 C47 1_555 1_555
C46 C47 1_555 1_555
C48 C49 1_555 1_555
C51 C57 1_555 1_555
C55 C57 1_555 1_555
C58 C59 1_555 1_555
C62 C63 1_555 1_555
C65 C66 1_555 1_555

#END
