
#######################################################################
#
#                 Cambridge Crystallographic Data Centre
#                                CCDC 
#
#######################################################################
#
# If this CIF has been generated from an entry in the Cambridge 
# Structural Database, then it will include bibliographic, chemical, 
# crystal, experimental, refinement or atomic coordinate data resulting 
# from the CCDC's data processing and validation procedures.
#
#######################################################################

data_OHAVAV
_symmetry_cell_setting           orthorhombic
_symmetry_space_group_name_H-M   'P n m a'
_symmetry_Int_Tables_number      62
_space_group_name_Hall           '-P 2ac 2n'
loop_
_symmetry_equiv_pos_site_id
_symmetry_equiv_pos_as_xyz
1 x,y,z
2 1/2-x,-y,1/2+z
3 -x,1/2+y,-z
4 1/2+x,1/2-y,1/2-z
5 -x,-y,-z
6 1/2+x,y,1/2-z
7 x,1/2-y,z
8 1/2-x,1/2+y,1/2+z
_cell_length_a                   7.621(5)
_cell_length_b                   7.519(5)
_cell_length_c                   18.177(13)
_cell_angle_alpha                90
_cell_angle_beta                 90
_cell_angle_gamma                90
_cell_volume                     1041.58
loop_
_atom_site_label
_atom_site_type_symbol
_atom_site_fract_x
_atom_site_fract_y
_atom_site_fract_z
Mn1 Mn 0.5000 0.0000 0.5000
C1 C 0.5440(10) 0.2500 0.6394(5)
C2 C 0.5275(9) 0.2500 0.7219(5)
C3 C 0.5151(10) 0.0940(9) 0.7603(3)
H1 H 0.5191 -0.0140 0.7354
C4 C 0.4967(11) 0.0960(8) 0.8353(3)
H2 H 0.4900 -0.0105 0.8611
C5 C 0.4761(10) 0.2500 0.9521(4)
H3 H 0.4151 0.3567 0.9692
C6 C 0.6665(11) 0.2500 0.9812(4)
N1 N 0.5918(10) 0.2500 0.4459(4)
C7 C 0.6734(15) 0.2500 0.3928(6)
O1 O 0.7545(16) 0.2500 0.3369(5)
N2 N 0.4884(10) 0.2500 0.8712(4)
O2 O 0.5562(8) 0.1025(6) 0.6092(2)
O3 O 0.7366(6) 0.1029(6) 0.9901(3)
Mn1A Mn 1.0000 0.0000 1.0000
Mn1B Mn 0.5000 0.5000 0.5000
Mn1C Mn 1.0000 0.5000 1.0000
C3F C 0.5151(10) 0.4060(9) 0.7603(3)
H1F H 0.5191 0.5140 0.7354
C4F C 0.4967(11) 0.4040(8) 0.8353(3)
H2F H 0.4900 0.5105 0.8611
H3F H 0.4151 0.1433 0.9692
N1B N 0.4082(10) -0.2500 0.5541(4)
O2F O 0.5562(8) 0.3975(6) 0.6092(2)
O2D O 0.4438(8) -0.1025(6) 0.3908(2)
O3F O 0.7366(6) 0.3971(6) 0.9901(3)
O3A O 0.7634(6) -0.1029(6) 0.4901(3)
O3E O 0.2366(6) 0.1029(6) 0.5099(3)
O4 O 0.2625(19) -0.2500 0.8339(8)
H4 H 0.24(3) -0.2500 0.788(3)
H5 H 0.167(16) -0.2500 0.859(9)
loop_
_geom_bond_atom_site_label_1
_geom_bond_atom_site_label_2
_geom_bond_site_symmetry_1
_geom_bond_site_symmetry_2
Mn1 N1 1_555 1_555
C1 C2 1_555 1_555
C2 C3 1_555 1_555
C3 H1 1_555 1_555
C4 C3 1_555 1_555
H2 C4 1_555 1_555
C5 H3 1_555 1_555
C6 C5 1_555 1_555
N1 C7 1_555 1_555
C7 O1 1_555 1_555
N2 C4 1_555 1_555
O2 Mn1 1_555 1_555
O3 C6 1_555 1_555
O4 H4 1_555 1_555
H5 O4 1_555 1_555
Mn1A O3 1_555 1_555
Mn1B N1 1_555 1_555
Mn1C O3F 1_555 1_555
C3F C2 1_555 1_555
H1F C3F 1_555 1_555
C4F N2 1_555 1_555
H2F C4F 1_555 1_555
H3F C5 1_555 1_555
N1B Mn1 1_555 1_555
O2F C1 1_555 1_555
O2D Mn1 1_555 1_555
O3F C6 1_555 1_555
O3A Mn1 1_555 1_555
O3E Mn1 1_555 1_555
C1 O2 1_555 1_555
C5 N2 1_555 1_555
Mn1B O2F 1_555 1_555
C3F C4F 1_555 1_555

#END
