
#######################################################################
#
#                 Cambridge Crystallographic Data Centre
#                                CCDC 
#
#######################################################################
#
# If this CIF has been generated from an entry in the Cambridge 
# Structural Database, then it will include bibliographic, chemical, 
# crystal, experimental, refinement or atomic coordinate data resulting 
# from the CCDC's data processing and validation procedures.
#
#######################################################################

data_OHEBEJ
_symmetry_cell_setting           triclinic
_symmetry_space_group_name_H-M   'P -1'
_symmetry_Int_Tables_number      2
_space_group_name_Hall           '-P 1'
loop_
_symmetry_equiv_pos_site_id
_symmetry_equiv_pos_as_xyz
1 x,y,z
2 -x,-y,-z
_cell_length_a                   7.8710(3)
_cell_length_b                   13.1170(5)
_cell_length_c                   14.7856(5)
_cell_angle_alpha                82.907(2)
_cell_angle_beta                 78.582(2)
_cell_angle_gamma                83.523(2)
_cell_volume                     1478.72
loop_
_atom_site_label
_atom_site_type_symbol
_atom_site_fract_x
_atom_site_fract_y
_atom_site_fract_z
Pr1 Pr 0.09221(4) 0.48756(2) 0.12763(2)
Na1 Na 0.4123(4) 0.3850(2) -0.09848(18)
N1 N 0.4990(8) -0.0284(4) 0.1216(4)
N2 N 0.1708(7) 0.4291(5) 0.5517(3)
N3 N -0.0220(8) 1.0313(4) 0.1161(4)
O1 O 0.2781(6) 0.3417(3) 0.0493(3)
O2 O 0.1009(6) 0.2963(3) 0.1798(3)
O3 O 0.3248(6) 0.4567(4) 0.2083(3)
O4 O 0.5624(6) 0.5008(4) 0.2401(3)
O5 O 0.0969(6) 0.6523(3) 0.2055(3)
O6 O -0.1007(6) 0.6554(3) 0.1187(3)
C1 C 0.2298(8) 0.2760(4) 0.1168(4)
C2 C 0.3291(8) 0.1710(4) 0.1214(4)
C3 C 0.3839(8) 0.1261(4) 0.0413(4)
H1 H 0.3645 0.1614 -0.0148
C4 C 0.4705(8) 0.0256(5) 0.0435(4)
C5 C 0.4535(9) 0.0172(5) 0.2018(4)
C6 C 0.3685(8) 0.1191(5) 0.2058(4)
C7 C 0.3351(10) 0.1631(5) 0.2916(5)
H2 H 0.2824 0.2300 0.2951
C8 C 0.3806(11) 0.1070(6) 0.3690(5)
H3 H 0.3593 0.1361 0.4248
C9 C 0.4598(12) 0.0049(6) 0.3645(5)
H4 H 0.4874 -0.0330 0.4179
C10 C 0.4956(11) -0.0379(6) 0.2837(5)
H5 H 0.5490 -0.1048 0.2820
C11 C 0.4192(7) 0.4701(5) 0.2656(5)
C12 C 0.3441(7) 0.4486(5) 0.3643(4)
C13 C 0.1760(7) 0.4939(5) 0.3922(4)
H6 H 0.1190 0.5343 0.3491
C14 C 0.0915(7) 0.4786(5) 0.4865(4)
C15 C 0.3375(8) 0.3849(5) 0.5264(4)
C16 C 0.4264(7) 0.3902(4) 0.4324(4)
C17 C 0.5955(8) 0.3373(5) 0.4127(4)
H7 H 0.6543 0.3377 0.3516
C18 C 0.6725(9) 0.2861(6) 0.4823(5)
H8 H 0.7821 0.2508 0.4680
C19 C 0.5882(10) 0.2861(6) 0.5750(5)
H9 H 0.6452 0.2547 0.6220
C20 C 0.4219(9) 0.3321(5) 0.5970(4)
H10 H 0.3645 0.3286 0.6585
C21 C -0.0119(8) 0.7007(5) 0.1608(4)
C22 C -0.0260(8) 0.8165(4) 0.1504(4)
C23 C -0.0171(8) 0.8648(4) 0.0628(4)
H11 H -0.0153 0.8272 0.0132
C24 C -0.0106(8) 0.9736(5) 0.0483(4)
C25 C -0.0360(9) 0.9846(5) 0.2046(4)
C26 C -0.0339(8) 0.8751(5) 0.2256(4)
C27 C -0.0448(10) 0.8335(5) 0.3194(5)
H12 H -0.0428 0.7625 0.3345
C28 C -0.0582(12) 0.8965(6) 0.3877(5)
H13 H -0.0660 0.8680 0.4490
C29 C -0.0602(12) 1.0042(6) 0.3664(5)
H14 H -0.0681 1.0462 0.4136
C30 C -0.0507(11) 1.0471(6) 0.2773(5)
H15 H -0.0539 1.1184 0.2641
C31 C 0.2486(7) 0.6136(4) -0.0439(4)
C32 C 0.2908(10) 0.7030(5) -0.1151(5)
H16 H 0.2898 0.7637 -0.0846
H17 H 0.2056 0.7143 -0.1544
H18 H 0.4040 0.6884 -0.1518
O7 O 0.1426(5) 0.5513(3) -0.0531(3)
O8 O 0.3160(7) 0.6004(4) 0.0275(3)
O9 O -0.1199(6) 0.4761(4) 0.2753(3)
H19 H -0.0948 0.4472 0.3263
H20 H -0.2266 0.4849 0.2706
O10 O 0.5703(7) 0.2555(4) -0.1788(4)
H21 H 0.6801 0.2553 -0.1852
H22 H 0.5723 0.1917 -0.1592
Pr1A Pr 0.90779(4) -0.48756(2) -0.12763(2)
Pr1A_2 Pr -0.09221(4) 0.51244(2) -0.12763(2)
Pr1A_3 Pr -0.09221(4) 0.51244(2) 0.87237(2)
Pr1A_4 Pr -0.09221(4) 1.51244(2) -0.12763(2)
Na1A Na 0.5877(4) -0.3850(2) 0.09848(18)
Na1A_2 Na 0.5877(4) 0.6150(2) 0.09848(18)
Na1A_3 Na -0.4123(4) 0.6150(2) 0.09848(18)
Na1_2 Na -0.5877(4) 0.3850(2) 0.90152(18)
Na1_3 Na 0.4123(4) 1.3850(2) -0.09848(18)
Na1_4 Na -0.5877(4) 0.3850(2) -0.09848(18)
N1A N 0.5010(8) 0.0284(4) -0.1216(4)
N2A N -0.1708(7) 0.5709(5) 0.4483(3)
N3A N 0.0220(8) 0.9687(4) -0.1161(4)
O1A O 0.7219(6) -0.3417(3) -0.0493(3)
O2A O 0.8991(6) -0.2963(3) -0.1798(3)
O3A O -0.3248(6) 0.5433(4) 0.7917(3)
O3A_2 O 0.6752(6) -0.4567(4) -0.2083(3)
O4A O -0.5624(6) 0.4992(4) 0.7599(3)
O4A_2 O 0.4376(6) 0.4992(4) -0.2401(3)
O4_2 O 0.5624(6) -0.4992(4) 0.2401(3)
O5A O -0.0969(6) 1.3477(3) -0.2055(3)
O5A_2 O 0.9031(6) -0.6523(3) -0.2055(3)
O6A O 0.1007(6) 1.3446(3) -0.1187(3)
O6A_2 O 0.1007(6) 0.3446(3) -0.1187(3)
O6A_3 O 1.1007(6) -0.6554(3) -0.1187(3)
O6_2 O 0.8993(6) -0.3446(3) 0.1187(3)
C1A C 0.7702(8) -0.2760(4) -0.1168(4)
C2A C 0.6709(8) -0.1710(4) -0.1214(4)
C3A C 0.6161(8) -0.1261(4) -0.0413(4)
H1A H 0.6355 -0.1614 0.0148
C4A C 0.5295(8) -0.0256(5) -0.0435(4)
C5A C 0.5465(9) -0.0172(5) -0.2018(4)
C6A C 0.6315(8) -0.1191(5) -0.2058(4)
C7A C 0.6649(10) -0.1631(5) -0.2916(5)
H2A H 0.7176 -0.2300 -0.2951
C8A C 0.6194(11) -0.1070(6) -0.3690(5)
H3A H 0.6407 -0.1361 -0.4248
C9A C 0.5402(12) -0.0049(6) -0.3645(5)
H4A H 0.5126 0.0330 -0.4179
C10A C 0.5044(11) 0.0379(6) -0.2837(5)
H5A H 0.4510 0.1048 -0.2820
C11A C -0.4192(7) 0.5299(5) 0.7344(5)
C12A C -0.3441(7) 0.5514(5) 0.6357(4)
C13A C -0.1760(7) 0.5061(5) 0.6078(4)
H6A H -0.1190 0.4657 0.6509
C14A C -0.0915(7) 0.5214(5) 0.5135(4)
C15A C -0.3375(8) 0.6151(5) 0.4736(4)
C16A C -0.4264(7) 0.6098(4) 0.5676(4)
C17A C -0.5955(8) 0.6627(5) 0.5873(4)
H7A H -0.6543 0.6623 0.6484
C18A C -0.6725(9) 0.7139(6) 0.5177(5)
H8A H -0.7821 0.7492 0.5320
C19A C -0.5882(10) 0.7139(6) 0.4250(5)
H9A H -0.6452 0.7453 0.3780
C20A C -0.4219(9) 0.6679(5) 0.4030(4)
H10A H -0.3645 0.6714 0.3415
C21A C 0.0119(8) 1.2993(5) -0.1608(4)
C22A C 0.0260(8) 1.1835(4) -0.1504(4)
C23A C 0.0171(8) 1.1352(4) -0.0628(4)
H11A H 0.0153 1.1728 -0.0132
C24A C 0.0106(8) 1.0264(5) -0.0483(4)
C25A C 0.0360(9) 1.0154(5) -0.2046(4)
C26A C 0.0339(8) 1.1249(5) -0.2256(4)
C27A C 0.0448(10) 1.1665(5) -0.3194(5)
H12A H 0.0428 1.2375 -0.3345
C28A C 0.0582(12) 1.1035(6) -0.3877(5)
H13A H 0.0660 1.1320 -0.4490
C29A C 0.0602(12) 0.9958(6) -0.3664(5)
H14A H 0.0681 0.9538 -0.4136
C30A C 0.0507(11) 0.9529(6) -0.2773(5)
H15A H 0.0539 0.8816 -0.2641
C31A C -0.2486(7) 0.3864(4) 0.0439(4)
C32A C -0.2908(10) 0.2970(5) 0.1151(5)
H16A H -0.2898 0.2363 0.0846
H17A H -0.2056 0.2857 0.1544
H18A H -0.4040 0.3116 0.1518
O7A O -0.1426(5) 0.4487(3) 0.0531(3)
O7A_2 O 0.8574(5) -0.5513(3) 0.0531(3)
O7_2 O 1.1426(5) -0.4487(3) -0.0531(3)
O8A O -0.3160(7) 0.3996(4) -0.0275(3)
O8A_2 O 0.6840(7) 0.3996(4) -0.0275(3)
O8A_3 O 0.6840(7) -0.6004(4) -0.0275(3)
O8_2 O 0.3160(7) -0.3996(4) 0.0275(3)
O9A O 1.1199(6) -0.4761(4) -0.2753(3)
H19A H 1.0948 -0.4472 -0.3263
H20A H 1.2266 -0.4849 -0.2706
O10A O 0.4297(7) -0.2555(4) 0.1788(4)
H21A H 0.3199 -0.2553 0.1852
H22A H 0.4277 -0.1917 0.1592
loop_
_geom_bond_atom_site_label_1
_geom_bond_atom_site_label_2
_geom_bond_site_symmetry_1
_geom_bond_site_symmetry_2
Pr1 O1 1_555 1_555
Na1 O1 1_555 1_555
N1 C4 1_555 1_555
N2 C14 1_555 1_555
N3 C24 1_555 1_555
O1 C1 1_555 1_555
O2 Pr1 1_555 1_555
O3 Pr1 1_555 1_555
O4 C11 1_555 1_555
O5 Pr1 1_555 1_555
O6 Pr1 1_555 1_555
C1 O2 1_555 1_555
C2 C1 1_555 1_555
C3 C2 1_555 1_555
H1 C3 1_555 1_555
C4 C3 1_555 1_555
C5 N1 1_555 1_555
C6 C2 1_555 1_555
C7 C6 1_555 1_555
H2 C7 1_555 1_555
C8 C7 1_555 1_555
H3 C8 1_555 1_555
C9 C8 1_555 1_555
H4 C9 1_555 1_555
C10 C5 1_555 1_555
H5 C10 1_555 1_555
C11 O3 1_555 1_555
C12 C11 1_555 1_555
C13 C12 1_555 1_555
H6 C13 1_555 1_555
C14 C13 1_555 1_555
C15 N2 1_555 1_555
C16 C12 1_555 1_555
C17 C16 1_555 1_555
H7 C17 1_555 1_555
C18 C17 1_555 1_555
H8 C18 1_555 1_555
C19 C18 1_555 1_555
H9 C19 1_555 1_555
C20 C15 1_555 1_555
H10 C20 1_555 1_555
C21 O5 1_555 1_555
C22 C21 1_555 1_555
C23 C22 1_555 1_555
H11 C23 1_555 1_555
C24 C23 1_555 1_555
C25 N3 1_555 1_555
C26 C22 1_555 1_555
C27 C26 1_555 1_555
H12 C27 1_555 1_555
C28 C27 1_555 1_555
H13 C28 1_555 1_555
C29 C28 1_555 1_555
H14 C29 1_555 1_555
C30 C25 1_555 1_555
H15 C30 1_555 1_555
C31 C32 1_555 1_555
C32 H16 1_555 1_555
H17 C32 1_555 1_555
H18 C32 1_555 1_555
O7 Pr1 1_555 1_555
O8 Pr1 1_555 1_555
O9 Pr1 1_555 1_555
H19 O9 1_555 1_555
H20 O9 1_555 1_555
O10 Na1 1_555 1_555
H21 O10 1_555 1_555
H22 O10 1_555 1_555
Pr1A O1A 1_555 1_555
Pr1A_2 O7 1_555 1_555
Pr1A_3 O3A 1_555 1_555
Pr1A_4 O5A 1_555 1_555
Na1A O1A 1_555 1_555
Na1A_2 O4 1_555 1_555
Na1A_3 O6 1_555 1_555
Na1_2 O4A 1_555 1_555
Na1_3 O6A 1_555 1_555
Na1_4 O8A 1_555 1_555
N1A C4A 1_555 1_555
N2A C14A 1_555 1_555
N3A C24A 1_555 1_555
O1A C1A 1_555 1_555
O2A Pr1A 1_555 1_555
O3A C11A 1_555 1_555
O3A_2 Pr1A 1_555 1_555
O4A C11A 1_555 1_555
O4A_2 Na1 1_555 1_555
O4_2 Na1A 1_555 1_555
O5A C21A 1_555 1_555
O5A_2 Pr1A 1_555 1_555
O6A Pr1A_4 1_555 1_555
O6A_2 Na1 1_555 1_555
O6A_3 Pr1A 1_555 1_555
O6_2 Na1A 1_555 1_555
C1A O2A 1_555 1_555
C2A C1A 1_555 1_555
C3A C2A 1_555 1_555
H1A C3A 1_555 1_555
C4A C4 1_555 1_555
C5A N1A 1_555 1_555
C6A C2A 1_555 1_555
C7A C6A 1_555 1_555
H2A C7A 1_555 1_555
C8A C7A 1_555 1_555
H3A C8A 1_555 1_555
C9A C8A 1_555 1_555
H4A C9A 1_555 1_555
C10A C5A 1_555 1_555
H5A C10A 1_555 1_555
C11A C12A 1_555 1_555
C12A C13A 1_555 1_555
C13A H6A 1_555 1_555
C14A C14 1_555 1_555
C15A N2A 1_555 1_555
C16A C12A 1_555 1_555
C17A C16A 1_555 1_555
H7A C17A 1_555 1_555
C18A C17A 1_555 1_555
H8A C18A 1_555 1_555
C19A C18A 1_555 1_555
H9A C19A 1_555 1_555
C20A C15A 1_555 1_555
H10A C20A 1_555 1_555
C21A O6A 1_555 1_555
C22A C21A 1_555 1_555
C23A C22A 1_555 1_555
H11A C23A 1_555 1_555
C24A C24 1_555 1_555
C25A N3A 1_555 1_555
C26A C22A 1_555 1_555
C27A C26A 1_555 1_555
H12A C27A 1_555 1_555
C28A C27A 1_555 1_555
H13A C28A 1_555 1_555
C29A C28A 1_555 1_555
H14A C29A 1_555 1_555
C30A C25A 1_555 1_555
H15A C30A 1_555 1_555
C31A C32A 1_555 1_555
C32A H16A 1_555 1_555
H17A C32A 1_555 1_555
H18A C32A 1_555 1_555
O7A Pr1 1_555 1_555
O7A_2 Pr1A 1_555 1_555
O7_2 Pr1A 1_555 1_555
O8A Pr1A_2 1_555 1_555
O8A_2 Na1 1_555 1_555
O8A_3 Pr1A 1_555 1_555
O8_2 Na1A 1_555 1_555
O9A Pr1A 1_555 1_555
H19A O9A 1_555 1_555
H20A O9A 1_555 1_555
O10A Na1A 1_555 1_555
H21A O10A 1_555 1_555
H22A O10A 1_555 1_555
Na1 O7 1_555 1_555
O6 C21 1_555 1_555
C5 C6 1_555 1_555
C9 C10 1_555 1_555
C15 C16 1_555 1_555
C19 C20 1_555 1_555
C25 C26 1_555 1_555
C29 C30 1_555 1_555
C31 O7 1_555 1_555
C31 O8 1_555 1_555
O8 Na1A_2 1_555 1_555
Pr1A_2 O6A_2 1_555 1_555
Pr1A_2 O7A 1_555 1_555
Na1A O7A_2 1_555 1_555
Na1A_3 O7A 1_555 1_555
C3A C4A 1_555 1_555
C5A C6A 1_555 1_555
C9A C10A 1_555 1_555
C13A C14A 1_555 1_555
C15A C16A 1_555 1_555
C19A C20A 1_555 1_555
C23A C24A 1_555 1_555
C25A C26A 1_555 1_555
C29A C30A 1_555 1_555
C31A O7A 1_555 1_555
C31A O8A 1_555 1_555

#END
