
#######################################################################
#
#                 Cambridge Crystallographic Data Centre
#                                CCDC 
#
#######################################################################
#
# If this CIF has been generated from an entry in the Cambridge 
# Structural Database, then it will include bibliographic, chemical, 
# crystal, experimental, refinement or atomic coordinate data resulting 
# from the CCDC's data processing and validation procedures.
#
#######################################################################

data_OHEBUZ
_symmetry_cell_setting           orthorhombic
_symmetry_space_group_name_H-M   'P m c n'
_symmetry_Int_Tables_number      62
_space_group_name_Hall           '-P 2n 2a'
loop_
_symmetry_equiv_pos_site_id
_symmetry_equiv_pos_as_xyz
1 x,y,z
2 1/2-x,1/2-y,1/2+z
3 1/2+x,-y,-z
4 -x,1/2+y,1/2-z
5 -x,-y,-z
6 1/2+x,1/2+y,1/2-z
7 1/2-x,y,z
8 x,1/2-y,1/2+z
_cell_length_a                   28.665(3)
_cell_length_b                   5.402(7)
_cell_length_c                   10.882(6)
_cell_angle_alpha                90
_cell_angle_beta                 90
_cell_angle_gamma                90
_cell_volume                     1685.06
loop_
_atom_site_label
_atom_site_type_symbol
_atom_site_fract_x
_atom_site_fract_y
_atom_site_fract_z
Ag1 Ag 0.2500 0.32495(15) 0.26470(11)
O1 O 0.13469(13) -0.2171(8) -0.0813(5)
H1 H 0.1124 -0.3074 -0.0964
O2 O 0.05162(16) -0.4054(9) -0.0454(5)
O3 O 0.00694(16) -0.2419(9) 0.1037(6)
H2 H -0.0087 -0.3675 0.0939
N1 N 0.18111(16) 0.4712(9) 0.1657(6)
C1 C 0.08095(14) -0.0682(8) 0.0738(5)
C2 C 0.12300(16) -0.0564(8) 0.0104(4)
C3 C 0.15591(12) 0.1220(9) 0.0413(5)
H3 H 0.1840 0.1299 -0.0011
C4 C 0.14677(13) 0.2887(8) 0.1356(5)
C5 C 0.10473(16) 0.2770(9) 0.1990(4)
H4 H 0.0986 0.3885 0.2620
C6 C 0.07182(12) 0.0985(9) 0.1680(5)
H5 H 0.0437 0.0907 0.2104
C7 C 0.0458(2) -0.2569(15) 0.0363(8)
N2 N 0.2500 -0.153(2) 0.3864(14)
O4 O 0.2500 -0.3456(14) 0.4411(8)
O5 O 0.2500 0.0519(14) 0.4458(9)
O6 O 0.2500 -0.1363(16) 0.2750(11)
Ag1_2 Ag 0.2500 -0.67505(15) 0.26470(11)
O1F O 0.36531(13) -0.2171(8) -0.0813(5)
H1F H 0.3876 -0.3074 -0.0964
O2F O 0.44838(16) -0.4054(9) -0.0454(5)
O3F O 0.49306(16) -0.2419(9) 0.1037(6)
H2F H 0.5087 -0.3675 0.0939
N1F N 0.31889(16) 0.4712(9) 0.1657(6)
C1F C 0.41905(14) -0.0682(8) 0.0738(5)
C2F C 0.37700(16) -0.0564(8) 0.0104(4)
C3F C 0.34409(12) 0.1220(9) 0.0413(5)
H3F H 0.3160 0.1299 -0.0011
C4F C 0.35323(13) 0.2887(8) 0.1356(5)
C5F C 0.39527(16) 0.2770(9) 0.1990(4)
H4F H 0.4014 0.3885 0.2620
C6F C 0.42818(12) 0.0985(9) 0.1680(5)
H5F H 0.4563 0.0907 0.2104
C7F C 0.4542(2) -0.2569(15) 0.0363(8)
O4_2 O 0.2500 0.6544(14) 0.4411(8)
loop_
_geom_bond_atom_site_label_1
_geom_bond_atom_site_label_2
_geom_bond_site_symmetry_1
_geom_bond_site_symmetry_2
Ag1 N1 1_555 1_555
O1 H1 1_555 1_555
O2 C7 1_555 1_555
O3 H2 1_555 1_555
N1 C4 1_555 1_555
C1 C2 1_555 1_555
C2 O1 1_555 1_555
C3 C2 1_555 1_555
H3 C3 1_555 1_555
C4 C3 1_555 1_555
C5 C4 1_555 1_555
H4 C5 1_555 1_555
C6 C1 1_555 1_555
H5 C6 1_555 1_555
C7 O3 1_555 1_555
N2 O4 1_555 1_555
O4 Ag1_2 1_555 1_555
O5 Ag1 1_555 1_555
O6 Ag1 1_555 1_555
O1F H1F 1_555 1_555
O2F C7F 1_555 1_555
O3F H2F 1_555 1_555
N1F Ag1 1_555 1_555
C1F C2F 1_555 1_555
C2F O1F 1_555 1_555
C3F C2F 1_555 1_555
H3F C3F 1_555 1_555
C4F N1F 1_555 1_555
C5F C4F 1_555 1_555
H4F C5F 1_555 1_555
C6F C1F 1_555 1_555
H5F C6F 1_555 1_555
C7F O3F 1_555 1_555
O4_2 Ag1 1_555 1_555
C1 C7 1_555 1_555
C5 C6 1_555 1_555
N2 O5 1_555 1_555
N2 O6 1_555 1_555
C1F C7F 1_555 1_555
C3F C4F 1_555 1_555
C5F C6F 1_555 1_555

#END
