
#######################################################################
#
#                 Cambridge Crystallographic Data Centre
#                                CCDC 
#
#######################################################################
#
# If this CIF has been generated from an entry in the Cambridge 
# Structural Database, then it will include bibliographic, chemical, 
# crystal, experimental, refinement or atomic coordinate data resulting 
# from the CCDC's data processing and validation procedures.
#
#######################################################################

data_OHENIY
_symmetry_cell_setting           monoclinic
_symmetry_space_group_name_H-M   'C 2/c'
_symmetry_Int_Tables_number      15
_space_group_name_Hall           '-C 2yn'
loop_
_symmetry_equiv_pos_site_id
_symmetry_equiv_pos_as_xyz
1 x,y,z
2 1/2+x,1/2+y,z
3 x,-y,1/2+z
4 1/2+x,1/2-y,1/2+z
5 -x,-y,-z
6 1/2-x,1/2-y,-z
7 -x,y,1/2-z
8 1/2-x,1/2+y,1/2-z
_cell_length_a                   30.896(11)
_cell_length_b                   10.183(7)
_cell_length_c                   20.432(13)
_cell_angle_alpha                90
_cell_angle_beta                 118.75
_cell_angle_gamma                90
_cell_volume                     5635.77
loop_
_atom_site_label
_atom_site_type_symbol
_atom_site_fract_x
_atom_site_fract_y
_atom_site_fract_z
Tb1 Tb 0.707286(12) 0.58790(3) 0.438700(15)
O1 O 0.76878(18) 0.6519(5) 0.4067(2)
O2 O 0.80172(18) 0.8468(4) 0.4580(2)
O3 O 1.11903(18) 1.0472(5) 0.3959(2)
O4 O 1.1724(2) 0.8947(4) 0.4633(3)
O5 O 0.9774(2) 0.6089(5) 0.4170(4)
O6 O 0.69293(18) 0.8103(4) 0.4272(2)
O7 O 0.72262(17) 1.0132(5) 0.4635(2)
O8 O 0.5000 1.1644(6) 0.2500
N1 N 0.6590(2) 0.6039(5) 0.2935(3)
N2 N 0.7203(2) 0.4002(5) 0.3634(3)
C1 C 0.8033(3) 0.7358(7) 0.4313(3)
C2 C 0.8487(3) 0.7015(6) 0.4264(3)
C3 C 0.8502(3) 0.6041(6) 0.3798(4)
H1 H 0.8210 0.5537 0.3499
C4 C 0.8927(4) 0.5780(7) 0.3755(5)
H2 H 0.8930 0.5122 0.3420
C5 C 0.9354(3) 0.6484(7) 0.4203(4)
C6 C 0.9354(3) 0.7425(7) 0.4684(4)
H3 H 0.9656 0.7876 0.5002
C7 C 0.8933(3) 0.7719(7) 0.4716(4)
H4 H 0.8939 0.8400 0.5044
C8 C 1.0138(3) 0.7025(7) 0.4283(4)
C9 C 1.0623(3) 0.6580(7) 0.4658(4)
H5 H 1.0697 0.5736 0.4897
C10 C 1.0993(3) 0.7367(7) 0.4683(4)
H6 H 1.1330 0.7072 0.4932
C11 C 1.0889(3) 0.8592(7) 0.4341(4)
C12 C 1.0407(3) 0.9056(7) 0.3995(4)
H7 H 1.0343 0.9918 0.3779
C13 C 1.0024(3) 0.8265(7) 0.3956(4)
H8 H 0.9689 0.8566 0.3713
C14 C 1.1289(3) 0.9395(6) 0.4313(3)
C15 C 0.6883(3) 0.9349(6) 0.4249(3)
C16 C 0.6380(2) 0.9906(6) 0.3748(3)
C17 C 0.6323(3) 1.1139(6) 0.3398(4)
H9 H 0.6612 1.1601 0.3463
C18 C 0.5857(3) 1.1654(7) 0.2961(4)
H10 H 0.5814 1.2477 0.2707
C19 C 0.5448(3) 1.0979(6) 0.2885(3)
C20 C 0.5490(3) 0.9777(7) 0.3229(4)
H11 H 0.5201 0.9335 0.3177
C21 C 0.5958(3) 0.9242(6) 0.3644(4)
H12 H 0.5993 0.8387 0.3861
C22 C 0.6232(3) 0.6928(8) 0.2586(4)
H13 H 0.6172 0.7541 0.2890
C23 C 0.5935(3) 0.7007(8) 0.1819(4)
H14 H 0.5693 0.7690 0.1599
C24 C 0.6008(3) 0.6111(8) 0.1379(4)
H15 H 0.5805 0.6132 0.0846
C25 C 0.6375(3) 0.5168(8) 0.1724(4)
H16 H 0.6425 0.4513 0.1429
C26 C 0.6665(3) 0.5170(7) 0.2500(3)
C27 C 0.7055(3) 0.4167(7) 0.2899(4)
C28 C 0.7257(3) 0.3445(10) 0.2539(5)
H17 H 0.7169 0.3639 0.2030
C29 C 0.7588(4) 0.2451(11) 0.2917(5)
H18 H 0.7734 0.1948 0.2676
C30 C 0.7720(3) 0.2208(8) 0.3661(5)
H19 H 0.7924 0.1472 0.3925
C31 C 0.7535(3) 0.3030(7) 0.4004(4)
H20 H 0.7646 0.2925 0.4528
C19F C 0.4552(3) 1.0979(6) 0.2115(3)
C18F C 0.4143(3) 1.1654(7) 0.2039(4)
C17F C 0.3677(3) 1.1139(6) 0.1602(4)
C16F C 0.3620(2) 0.9906(6) 0.1252(3)
C15F C 0.3117(3) 0.9349(6) 0.0751(3)
O6F O 0.30707(18) 0.8103(4) 0.0728(2)
O7F O 0.27738(17) 1.0132(5) 0.0365(2)
C21F C 0.4042(3) 0.9242(6) 0.1356(4)
C20F C 0.4510(3) 0.9777(7) 0.1771(4)
H11F H 0.4799 0.9335 0.1823
H12F H 0.4007 0.8387 0.1139
H9F H 0.3388 1.1601 0.1537
H10F H 0.4186 1.2477 0.2293
O1E O 0.73122(18) 0.8481(5) 0.5933(2)
O2E O 0.69828(18) 0.6532(4) 0.5420(2)
O3E O 0.38097(18) 0.4528(5) 0.6041(2)
O4E O 0.3276(2) 0.6053(4) 0.5367(3)
O5E O 0.5226(2) 0.8911(5) 0.5830(4)
C1E C 0.6967(3) 0.7642(7) 0.5687(3)
C2E C 0.6513(3) 0.7985(6) 0.5736(3)
C3E C 0.6498(3) 0.8959(6) 0.6202(4)
H1E H 0.6790 0.9463 0.6501
C4E C 0.6073(4) 0.9220(7) 0.6245(5)
H2E H 0.6070 0.9878 0.6580
C5E C 0.5646(3) 0.8516(7) 0.5797(4)
C6E C 0.5646(3) 0.7575(7) 0.5316(4)
H3E H 0.5344 0.7124 0.4998
C7E C 0.6067(3) 0.7281(7) 0.5284(4)
H4E H 0.6061 0.6600 0.4956
C8E C 0.4862(3) 0.7975(7) 0.5717(4)
C9E C 0.4377(3) 0.8420(7) 0.5342(4)
H5E H 0.4303 0.9264 0.5103
C10E C 0.4007(3) 0.7633(7) 0.5317(4)
H6E H 0.3670 0.7928 0.5068
C11E C 0.4111(3) 0.6408(7) 0.5659(4)
C12E C 0.4593(3) 0.5944(7) 0.6005(4)
H7E H 0.4657 0.5082 0.6221
C13E C 0.4976(3) 0.6735(7) 0.6044(4)
H8E H 0.5311 0.6434 0.6287
C14E C 0.3711(3) 0.5605(6) 0.5687(3)
Tb1E Tb 0.792714(12) 0.91210(3) 0.561300(15)
N1E N 0.8410(2) 0.8961(5) 0.7065(3)
N2E N 0.7797(2) 1.0998(5) 0.6366(3)
C22E C 0.8768(3) 0.8072(8) 0.7414(4)
H13E H 0.8828 0.7459 0.7110
C23E C 0.9065(3) 0.7993(8) 0.8181(4)
H14E H 0.9307 0.7310 0.8401
C24E C 0.8992(3) 0.8889(8) 0.8621(4)
H15E H 0.9195 0.8868 0.9154
C25E C 0.8625(3) 0.9832(8) 0.8276(4)
H16E H 0.8575 1.0487 0.8571
C26E C 0.8335(3) 0.9830(7) 0.7500(3)
C27E C 0.7945(3) 1.0833(7) 0.7101(4)
C28E C 0.7743(3) 1.1555(10) 0.7461(5)
H17E H 0.7831 1.1361 0.7970
C29E C 0.7412(4) 1.2549(11) 0.7083(5)
H18E H 0.7266 1.3052 0.7324
C30E C 0.7280(3) 1.2792(8) 0.6339(5)
H19E H 0.7076 1.3528 0.6075
C31E C 0.7465(3) 1.1970(7) 0.5996(4)
H20E H 0.7354 1.2075 0.5472
O3A O 0.61903(18) 0.5472(5) 0.3959(2)
O4A O 0.6724(2) 0.3947(4) 0.4633(3)
O7E O 0.77738(17) 0.4868(5) 0.5365(2)
Tb1A Tb 1.207286(12) 1.08790(3) 0.438700(15)
Tb1F Tb 0.292714(12) 0.58790(3) 0.061300(15)
Tb1C Tb 0.207286(12) 0.91210(3) -0.061300(15)
Tb1D Tb 0.292714(12) 0.41210(3) 0.561300(15)
O3D O 0.88097(18) 0.9528(5) 0.6041(2)
O4D O 0.8276(2) 1.1053(4) 0.5367(3)
O6E O 0.80707(18) 0.6897(4) 0.5728(2)
loop_
_geom_bond_atom_site_label_1
_geom_bond_atom_site_label_2
_geom_bond_site_symmetry_1
_geom_bond_site_symmetry_2
Tb1 O1 1_555 1_555
O1 C1 1_555 1_555
O2 C1 1_555 1_555
O3 C14 1_555 1_555
O4 C14 1_555 1_555
O5 C5 1_555 1_555
O6 Tb1 1_555 1_555
O7 C15 1_555 1_555
O8 C19 1_555 1_555
N1 Tb1 1_555 1_555
N2 Tb1 1_555 1_555
C1 C2 1_555 1_555
C2 C3 1_555 1_555
C3 H1 1_555 1_555
C4 C3 1_555 1_555
H2 C4 1_555 1_555
C5 C4 1_555 1_555
C6 C5 1_555 1_555
H3 C6 1_555 1_555
C7 C2 1_555 1_555
H4 C7 1_555 1_555
C8 O5 1_555 1_555
C9 C8 1_555 1_555
H5 C9 1_555 1_555
C10 C9 1_555 1_555
H6 C10 1_555 1_555
C11 C10 1_555 1_555
C12 C11 1_555 1_555
H7 C12 1_555 1_555
C13 C8 1_555 1_555
H8 C13 1_555 1_555
C14 C11 1_555 1_555
C15 O6 1_555 1_555
C16 C15 1_555 1_555
C17 C16 1_555 1_555
H9 C17 1_555 1_555
C18 C17 1_555 1_555
H10 C18 1_555 1_555
C19 C18 1_555 1_555
C20 C19 1_555 1_555
H11 C20 1_555 1_555
C21 C16 1_555 1_555
H12 C21 1_555 1_555
C22 N1 1_555 1_555
H13 C22 1_555 1_555
C23 C22 1_555 1_555
H14 C23 1_555 1_555
C24 C23 1_555 1_555
H15 C24 1_555 1_555
C25 C24 1_555 1_555
H16 C25 1_555 1_555
C26 N1 1_555 1_555
C27 N2 1_555 1_555
C28 C27 1_555 1_555
H17 C28 1_555 1_555
C29 C28 1_555 1_555
H18 C29 1_555 1_555
C30 C29 1_555 1_555
H19 C30 1_555 1_555
C31 N2 1_555 1_555
H20 C31 1_555 1_555
C19F O8 1_555 1_555
C18F C19F 1_555 1_555
C17F C18F 1_555 1_555
C16F C17F 1_555 1_555
C15F C16F 1_555 1_555
O6F C15F 1_555 1_555
O7F C15F 1_555 1_555
C21F C16F 1_555 1_555
C20F C19F 1_555 1_555
H11F C20F 1_555 1_555
H12F C21F 1_555 1_555
H9F C17F 1_555 1_555
H10F C18F 1_555 1_555
O1E C1E 1_555 1_555
O2E Tb1 1_555 1_555
O3E C14E 1_555 1_555
O4E C14E 1_555 1_555
O5E C5E 1_555 1_555
C1E O2E 1_555 1_555
C2E C1E 1_555 1_555
C3E C2E 1_555 1_555
H1E C3E 1_555 1_555
C4E C3E 1_555 1_555
H2E C4E 1_555 1_555
C5E C4E 1_555 1_555
C6E C5E 1_555 1_555
H3E C6E 1_555 1_555
C7E C2E 1_555 1_555
H4E C7E 1_555 1_555
C8E O5E 1_555 1_555
C9E C8E 1_555 1_555
H5E C9E 1_555 1_555
C10E C9E 1_555 1_555
H6E C10E 1_555 1_555
C11E C10E 1_555 1_555
C12E C11E 1_555 1_555
H7E C12E 1_555 1_555
C13E C8E 1_555 1_555
H8E C13E 1_555 1_555
C14E C11E 1_555 1_555
Tb1E O2 1_555 1_555
N1E Tb1E 1_555 1_555
N2E Tb1E 1_555 1_555
C22E N1E 1_555 1_555
H13E C22E 1_555 1_555
C23E C22E 1_555 1_555
H14E C23E 1_555 1_555
C24E C23E 1_555 1_555
H15E C24E 1_555 1_555
C25E C24E 1_555 1_555
H16E C25E 1_555 1_555
C26E N1E 1_555 1_555
C27E N2E 1_555 1_555
C28E C27E 1_555 1_555
H17E C28E 1_555 1_555
C29E C28E 1_555 1_555
H18E C29E 1_555 1_555
C30E C29E 1_555 1_555
H19E C30E 1_555 1_555
C31E N2E 1_555 1_555
H20E C31E 1_555 1_555
O3A Tb1 1_555 1_555
O4A Tb1 1_555 1_555
O7E Tb1 1_555 1_555
Tb1A O3 1_555 1_555
Tb1F O6F 1_555 1_555
Tb1C O7F 1_555 1_555
Tb1D O3E 1_555 1_555
O3D Tb1E 1_555 1_555
O4D Tb1E 1_555 1_555
O6E Tb1E 1_555 1_555
O4 Tb1A 1_555 1_555
O7 Tb1E 1_555 1_555
C6 C7 1_555 1_555
C12 C13 1_555 1_555
C20 C21 1_555 1_555
C25 C26 1_555 1_555
C26 C27 1_555 1_555
C30 C31 1_555 1_555
C21F C20F 1_555 1_555
O1E Tb1E 1_555 1_555
O4E Tb1D 1_555 1_555
C6E C7E 1_555 1_555
C12E C13E 1_555 1_555
C25E C26E 1_555 1_555
C26E C27E 1_555 1_555
C30E C31E 1_555 1_555

#END
