
#######################################################################
#
#                 Cambridge Crystallographic Data Centre
#                                CCDC 
#
#######################################################################
#
# If this CIF has been generated from an entry in the Cambridge 
# Structural Database, then it will include bibliographic, chemical, 
# crystal, experimental, refinement or atomic coordinate data resulting 
# from the CCDC's data processing and validation procedures.
#
#######################################################################

data_OHEPIB
_symmetry_cell_setting           monoclinic
_symmetry_space_group_name_H-M   'P 21/c'
_symmetry_Int_Tables_number      14
_space_group_name_Hall           '-P 2ybc'
loop_
_symmetry_equiv_pos_site_id
_symmetry_equiv_pos_as_xyz
1 x,y,z
2 -x,1/2+y,1/2-z
3 -x,-y,-z
4 x,1/2-y,1/2+z
_cell_length_a                   9.2844(11)
_cell_length_b                   20.105(2)
_cell_length_c                   7.6606(9)
_cell_angle_alpha                90
_cell_angle_beta                 100.057(2)
_cell_angle_gamma                90
_cell_volume                     1407.98
loop_
_atom_site_label
_atom_site_type_symbol
_atom_site_fract_x
_atom_site_fract_y
_atom_site_fract_z
Zn1 Zn 0.22150(3) 0.576109(11) 0.20898(3)
O1 O 0.12497(17) 0.55151(7) -0.04690(18)
O2 O 0.17816(19) 0.44293(8) -0.0721(2)
O3 O 0.36557(18) 0.53330(10) -0.2685(2)
O4 O 0.33513(18) 0.58650(8) -0.5274(2)
O5 O 0.33902(18) 0.48252(8) 0.2263(2)
H1 H 0.4321 0.4766 0.2428
H2 H 0.2945 0.4679 0.1252
N1 N 0.07329(18) 0.52590(8) -0.6277(2)
N2 N 0.1141(2) 0.67180(9) 0.2207(2)
N3 N 0.3733(2) 0.64380(9) 0.1312(2)
C1 C 0.1298(2) 0.49748(10) -0.1297(3)
C2 C 0.0621(2) 0.49962(10) -0.3262(2)
C3 C 0.1361(2) 0.52476(10) -0.4558(3)
C4 C 0.2934(2) 0.55054(11) -0.4121(3)
C5 C -0.0163(3) 0.68335(12) 0.2684(3)
H3 H -0.0752 0.6472 0.2842
C6 C -0.0667(3) 0.74656(13) 0.2951(3)
H4 H -0.1580 0.7527 0.3269
C7 C 0.0204(3) 0.80051(12) 0.2739(3)
H5 H -0.0104 0.8435 0.2927
C8 C 0.1543(3) 0.78929(12) 0.2242(3)
H6 H 0.2149 0.8249 0.2092
C9 C 0.1983(2) 0.72458(11) 0.1966(3)
C10 C 0.3399(2) 0.70905(11) 0.1394(3)
C11 C 0.4330(3) 0.75802(12) 0.0949(3)
H7 H 0.4086 0.8027 0.1009
C12 C 0.5615(3) 0.73970(12) 0.0421(3)
H8 H 0.6247 0.7720 0.0121
C13 C 0.5962(3) 0.67291(13) 0.0340(4)
H9 H 0.6826 0.6595 -0.0013
C14 C 0.4987(3) 0.62662(12) 0.0796(3)
H10 H 0.5213 0.5817 0.0743
Zn1B Zn -0.22150(3) 0.423891(11) -1.20898(3)
Zn1_2 Zn 0.22150(3) 0.576109(11) -0.79102(3)
Zn1B_2 Zn -0.22150(3) 0.423891(11) -0.20898(3)
O1B O -0.12497(17) 0.44849(7) -0.95310(18)
O2B O -0.17816(19) 0.55707(8) -0.9279(2)
O3B O -0.36557(18) 0.46670(10) -0.7315(2)
O4B O -0.33513(18) 0.41350(8) -0.4726(2)
O4_2 O 0.33513(18) 0.58650(8) 0.4726(2)
O4B_2 O -0.33513(18) 0.41350(8) -1.4726(2)
O5B O -0.33902(18) 0.51748(8) -1.2263(2)
H1B H -0.4321 0.5234 -1.2428
H2B H -0.2945 0.5321 -1.1252
N1B N -0.07329(18) 0.47410(8) -0.3723(2)
N1_2 N 0.07329(18) 0.52590(8) 0.3723(2)
N1B_2 N -0.07329(18) 0.47410(8) -1.3723(2)
N2B N -0.1141(2) 0.32820(9) -1.2207(2)
N3B N -0.3733(2) 0.35620(9) -1.1312(2)
C1B C -0.1298(2) 0.50252(10) -0.8703(3)
C2B C -0.0621(2) 0.50038(10) -0.6738(2)
C3B C -0.1361(2) 0.47524(10) -0.5442(3)
C4B C -0.2934(2) 0.44946(11) -0.5879(3)
C5B C 0.0163(3) 0.31665(12) -1.2684(3)
H3B H 0.0752 0.3528 -1.2842
C6B C 0.0667(3) 0.25344(13) -1.2951(3)
H4B H 0.1580 0.2473 -1.3269
C7B C -0.0204(3) 0.19949(12) -1.2739(3)
H5B H 0.0104 0.1565 -1.2927
C8B C -0.1543(3) 0.21071(12) -1.2242(3)
H6B H -0.2149 0.1751 -1.2092
C9B C -0.1983(2) 0.27542(11) -1.1966(3)
C10B C -0.3399(2) 0.29095(11) -1.1394(3)
C11B C -0.4330(3) 0.24198(12) -1.0949(3)
H7B H -0.4086 0.1973 -1.1009
C12B C -0.5615(3) 0.26030(12) -1.0421(3)
H8B H -0.6247 0.2280 -1.0121
C13B C -0.5962(3) 0.32709(13) -1.0340(4)
H9B H -0.6826 0.3405 -0.9987
C14B C -0.4987(3) 0.37338(12) -1.0796(3)
H10B H -0.5213 0.4183 -1.0743
O6 O 0.2924(4) 0.38667(13) 0.5054(4)
H11 H 0.3147 0.4000 0.4066
H12 H 0.3496 0.3995 0.5991
loop_
_geom_bond_atom_site_label_1
_geom_bond_atom_site_label_2
_geom_bond_site_symmetry_1
_geom_bond_site_symmetry_2
Zn1 O1 1_555 1_555
O1 C1 1_555 1_555
O2 C1 1_555 1_555
O3 C4 1_555 1_555
O4 C4 1_555 1_555
O5 Zn1 1_555 1_555
H1 O5 1_555 1_555
H2 O5 1_555 1_555
N1 C3 1_555 1_555
N2 Zn1 1_555 1_555
N3 Zn1 1_555 1_555
C1 C2 1_555 1_555
C2 C3 1_555 1_555
C3 C4 1_555 1_555
C5 N2 1_555 1_555
H3 C5 1_555 1_555
C6 C5 1_555 1_555
H4 C6 1_555 1_555
C7 C6 1_555 1_555
H5 C7 1_555 1_555
C8 C7 1_555 1_555
H6 C8 1_555 1_555
C9 N2 1_555 1_555
C10 N3 1_555 1_555
C11 C10 1_555 1_555
H7 C11 1_555 1_555
C12 C11 1_555 1_555
H8 C12 1_555 1_555
C13 C12 1_555 1_555
H9 C13 1_555 1_555
C14 N3 1_555 1_555
H10 C14 1_555 1_555
O6 H11 1_555 1_555
H12 O6 1_555 1_555
Zn1B O1B 1_555 1_555
Zn1_2 O4 1_555 1_555
Zn1B_2 O4B 1_555 1_555
O1B C1B 1_555 1_555
O2B C1B 1_555 1_555
O3B C4B 1_555 1_555
O4B C4B 1_555 1_555
O4_2 Zn1 1_555 1_555
O4B_2 Zn1B 1_555 1_555
O5B Zn1B 1_555 1_555
H1B O5B 1_555 1_555
H2B O5B 1_555 1_555
N1B C2 1_555 1_555
N1_2 Zn1 1_555 1_555
N1B_2 Zn1B 1_555 1_555
N2B Zn1B 1_555 1_555
N3B Zn1B 1_555 1_555
C1B C2B 1_555 1_555
C2B N1 1_555 1_555
C3B N1B 1_555 1_555
C4B C3B 1_555 1_555
C5B N2B 1_555 1_555
H3B C5B 1_555 1_555
C6B C5B 1_555 1_555
H4B C6B 1_555 1_555
C7B C6B 1_555 1_555
H5B C7B 1_555 1_555
C8B C7B 1_555 1_555
H6B C8B 1_555 1_555
C9B N2B 1_555 1_555
C10B N3B 1_555 1_555
C11B C10B 1_555 1_555
H7B C11B 1_555 1_555
C12B C11B 1_555 1_555
H8B C12B 1_555 1_555
C13B C12B 1_555 1_555
H9B C13B 1_555 1_555
C14B N3B 1_555 1_555
H10B C14B 1_555 1_555
N1 Zn1_2 1_555 1_555
C8 C9 1_555 1_555
C9 C10 1_555 1_555
C13 C14 1_555 1_555
Zn1B_2 N1B 1_555 1_555
C2B C3B 1_555 1_555
C8B C9B 1_555 1_555
C9B C10B 1_555 1_555
C13B C14B 1_555 1_555

#END
