
#######################################################################
#
#                 Cambridge Crystallographic Data Centre
#                                CCDC 
#
#######################################################################
#
# If this CIF has been generated from an entry in the Cambridge 
# Structural Database, then it will include bibliographic, chemical, 
# crystal, experimental, refinement or atomic coordinate data resulting 
# from the CCDC's data processing and validation procedures.
#
#######################################################################

data_OHESIF
_symmetry_cell_setting           monoclinic
_symmetry_space_group_name_H-M   'P 21/c'
_symmetry_Int_Tables_number      14
_space_group_name_Hall           '-P 2ybc'
loop_
_symmetry_equiv_pos_site_id
_symmetry_equiv_pos_as_xyz
1 x,y,z
2 -x,1/2+y,1/2-z
3 -x,-y,-z
4 x,1/2-y,1/2+z
_cell_length_a                   15.9669(12)
_cell_length_b                   8.8350(7)
_cell_length_c                   17.9218(17)
_cell_angle_alpha                90
_cell_angle_beta                 103.452(8)
_cell_angle_gamma                90
_cell_volume                     2458.82
loop_
_atom_site_label
_atom_site_type_symbol
_atom_site_fract_x
_atom_site_fract_y
_atom_site_fract_z
Cd1 Cd 0.5000 0.5000 0.5000
Cd2 Cd 0.241179(15) 0.49797(3) 0.475461(17)
Cd3 Cd 0.0000 0.5000 0.5000
N1 N 0.49337(16) 0.7351(3) 0.44338(14)
N2 N -0.03575(16) 0.3526(3) 0.39017(14)
O1 O 0.36215(13) 0.4514(3) 0.42736(12)
O2 O 0.23978(15) 0.4617(3) 0.34346(15)
O3 O 0.56437(15) 0.3964(3) 0.41053(14)
O4 O 0.69699(18) 0.4548(4) 0.40472(17)
O5 O 0.21430(18) 0.7619(3) 0.4515(2)
O6 O 0.10717(13) 0.6131(2) 0.45279(13)
O7 O -0.21147(17) 0.7325(3) 0.49336(16)
O8 O -0.10282(15) 0.6704(3) 0.44173(14)
C1 C 0.5635(2) 0.8058(4) 0.4322(2)
H1 H 0.6156 0.7538 0.4418
C2 C 0.5608(2) 0.9522(4) 0.4072(2)
H2 H 0.6108 0.9988 0.4005
C3 C 0.4847(2) 1.0303(4) 0.3919(2)
H3 H 0.4829 1.1307 0.3759
C4 C 0.4102(2) 0.9585(4) 0.40048(19)
C5 C 0.4190(2) 0.8122(4) 0.42735(18)
H4 H 0.3700 0.7635 0.4349
C6 C 0.3242(2) 1.0356(4) 0.3823(3)
H5 H 0.3258 1.1214 0.4155
H6 H 0.2808 0.9660 0.3899
H7 H 0.3110 1.0689 0.3299
C7 C 0.3192(2) 0.4510(4) 0.35818(19)
C8 C 0.3659(3) 0.4362(5) 0.2959(2)
H8 H 0.3262 0.4068 0.2492
H9 H 0.4100 0.3606 0.3097
H10 H 0.3916 0.5315 0.2884
C9 C 0.6241(2) 0.4021(4) 0.37805(19)
C10 C 0.6085(3) 0.3426(7) 0.2977(2)
H11 H 0.5886 0.2399 0.2965
H12 H 0.6612 0.3461 0.2806
H13 H 0.5658 0.4037 0.2645
C11 C 0.1368(2) 0.7438(4) 0.4466(2)
C12 C 0.0758(3) 0.8752(5) 0.4316(3)
H14 H 0.1073 0.9665 0.4283
H15 H 0.0468 0.8839 0.4727
H16 H 0.0341 0.8594 0.3841
C13 C -0.1639(2) 0.7529(4) 0.44796(19)
C14 C -0.1817(3) 0.8903(6) 0.3974(3)
H17 H -0.2139 0.8613 0.3473
H18 H -0.1281 0.9352 0.3933
H19 H -0.2142 0.9623 0.4192
C15 C -0.1174(2) 0.3205(4) 0.35560(18)
H20 H -0.1614 0.3596 0.3760
C16 C -0.1383(2) 0.2324(4) 0.2914(2)
H21 H -0.1956 0.2110 0.2689
C17 C -0.0739(2) 0.1754(4) 0.26014(19)
H22 H -0.0875 0.1146 0.2166
C18 C 0.0107(2) 0.2087(4) 0.29351(18)
C19 C 0.0260(2) 0.2969(4) 0.35865(17)
H23 H 0.0829 0.3192 0.3822
C20 C 0.0841(3) 0.1526(5) 0.2616(2)
H24 H 0.1339 0.2145 0.2806
H25 H 0.0684 0.1579 0.2066
H26 H 0.0969 0.0496 0.2773
Cd2B Cd -0.241179(15) 0.50203(3) 0.524539(17)
N2B N 0.03575(16) 0.6474(3) 0.60983(14)
O1B O -0.36215(13) 0.5486(3) 0.57264(12)
O2B O -0.23978(15) 0.5383(3) 0.65654(15)
O5B O -0.21430(18) 0.2381(3) 0.5485(2)
O6B O -0.10717(13) 0.3869(2) 0.54721(13)
O7B O 0.21147(17) 0.2675(3) 0.50664(16)
O8B O 0.10282(15) 0.3296(3) 0.55827(14)
C7B C -0.3192(2) 0.5490(4) 0.64182(19)
C8B C -0.3659(3) 0.5638(5) 0.7041(2)
H8B H -0.3262 0.5932 0.7508
H9B H -0.4100 0.6394 0.6903
H10B H -0.3916 0.4685 0.7116
C11B C -0.1368(2) 0.2562(4) 0.5534(2)
C12B C -0.0758(3) 0.1248(5) 0.5684(3)
H14B H -0.1073 0.0335 0.5717
H15B H -0.0468 0.1161 0.5273
H16B H -0.0341 0.1406 0.6159
C13B C 0.1639(2) 0.2471(4) 0.55204(19)
C14B C 0.1817(3) 0.1097(6) 0.6026(3)
H17B H 0.2139 0.1387 0.6527
H18B H 0.1281 0.0648 0.6067
H19B H 0.2142 0.0377 0.5808
C15B C 0.1174(2) 0.6795(4) 0.64440(18)
H20B H 0.1614 0.6404 0.6240
C16B C 0.1383(2) 0.7676(4) 0.7086(2)
H21B H 0.1956 0.7890 0.7311
C17B C 0.0739(2) 0.8246(4) 0.73986(19)
H22B H 0.0875 0.8854 0.7834
C18B C -0.0107(2) 0.7913(4) 0.70649(18)
C19B C -0.0260(2) 0.7031(4) 0.64135(17)
H23B H -0.0829 0.6808 0.6178
C20B C -0.0841(3) 0.8474(5) 0.7384(2)
H24B H -0.1339 0.7855 0.7194
H25B H -0.0684 0.8421 0.7934
H26B H -0.0969 0.9504 0.7227
N1B N 0.50663(16) 0.2649(3) 0.55662(14)
C1B C 0.4365(2) 0.1942(4) 0.5678(2)
H1B H 0.3844 0.2462 0.5582
C2B C 0.4392(2) 0.0478(4) 0.5928(2)
H2B H 0.3892 0.0012 0.5995
C3B C 0.5153(2) -0.0303(4) 0.6081(2)
H3B H 0.5171 -0.1307 0.6241
C4B C 0.5898(2) 0.0415(4) 0.59952(19)
C5B C 0.5810(2) 0.1878(4) 0.57265(18)
H4B H 0.6300 0.2365 0.5651
C6B C 0.6758(2) -0.0356(4) 0.6177(3)
H5B H 0.6742 -0.1214 0.5845
H6B H 0.7192 0.0340 0.6101
H7B H 0.6890 -0.0689 0.6701
O3B O 0.43563(15) 0.6036(3) 0.58947(14)
O4B O 0.30301(18) 0.5452(4) 0.59528(17)
C9B C 0.3759(2) 0.5979(4) 0.62195(19)
C10B C 0.3915(3) 0.6574(7) 0.7023(2)
H11B H 0.4114 0.7601 0.7035
H12B H 0.3388 0.6539 0.7194
H13B H 0.4342 0.5963 0.7355
Cd1_2 Cd -0.5000 0.5000 0.5000
Cd2B_2 Cd 0.758821(15) 0.50203(3) 0.524539(17)
O1B_2 O 0.63785(13) 0.5486(3) 0.57264(12)
O4_2 O -0.30301(18) 0.4548(4) 0.40472(17)
loop_
_geom_bond_atom_site_label_1
_geom_bond_atom_site_label_2
_geom_bond_site_symmetry_1
_geom_bond_site_symmetry_2
Cd1 N1 1_555 1_555
Cd2 O1 1_555 1_555
Cd3 N2 1_555 1_555
N1 C1 1_555 1_555
N2 C15 1_555 1_555
O1 Cd1 1_555 1_555
O2 Cd2 1_555 1_555
O3 Cd1 1_555 1_555
O4 C9 1_555 1_555
O5 Cd2 1_555 1_555
O6 Cd2 1_555 1_555
O7 C13 1_555 1_555
O8 Cd3 1_555 1_555
C1 H1 1_555 1_555
C2 C1 1_555 1_555
H2 C2 1_555 1_555
C3 C2 1_555 1_555
H3 C3 1_555 1_555
C4 C3 1_555 1_555
C5 N1 1_555 1_555
H4 C5 1_555 1_555
C6 C4 1_555 1_555
H5 C6 1_555 1_555
H6 C6 1_555 1_555
H7 C6 1_555 1_555
C7 O1 1_555 1_555
C8 C7 1_555 1_555
H8 C8 1_555 1_555
H9 C8 1_555 1_555
H10 C8 1_555 1_555
C9 O3 1_555 1_555
C10 C9 1_555 1_555
H11 C10 1_555 1_555
H12 C10 1_555 1_555
H13 C10 1_555 1_555
C11 O5 1_555 1_555
C12 C11 1_555 1_555
H14 C12 1_555 1_555
H15 C12 1_555 1_555
H16 C12 1_555 1_555
C13 O8 1_555 1_555
C14 C13 1_555 1_555
H17 C14 1_555 1_555
H18 C14 1_555 1_555
H19 C14 1_555 1_555
C15 H20 1_555 1_555
C16 C15 1_555 1_555
H21 C16 1_555 1_555
C17 C16 1_555 1_555
H22 C17 1_555 1_555
C18 C17 1_555 1_555
C19 N2 1_555 1_555
H23 C19 1_555 1_555
C20 C18 1_555 1_555
H24 C20 1_555 1_555
H25 C20 1_555 1_555
H26 C20 1_555 1_555
Cd2B O7 1_555 1_555
N2B Cd3 1_555 1_555
O1B Cd2B 1_555 1_555
O2B Cd2B 1_555 1_555
O5B Cd2B 1_555 1_555
O6B Cd3 1_555 1_555
O7B Cd2 1_555 1_555
O8B Cd3 1_555 1_555
C7B O1B 1_555 1_555
C8B C7B 1_555 1_555
H8B C8B 1_555 1_555
H9B C8B 1_555 1_555
H10B C8B 1_555 1_555
C11B O5B 1_555 1_555
C12B C11B 1_555 1_555
H14B C12B 1_555 1_555
H15B C12B 1_555 1_555
H16B C12B 1_555 1_555
C13B O7B 1_555 1_555
C14B C13B 1_555 1_555
H17B C14B 1_555 1_555
H18B C14B 1_555 1_555
H19B C14B 1_555 1_555
C15B N2B 1_555 1_555
H20B C15B 1_555 1_555
C16B C15B 1_555 1_555
H21B C16B 1_555 1_555
C17B C16B 1_555 1_555
H22B C17B 1_555 1_555
C18B C17B 1_555 1_555
C19B N2B 1_555 1_555
H23B C19B 1_555 1_555
C20B C18B 1_555 1_555
H24B C20B 1_555 1_555
H25B C20B 1_555 1_555
H26B C20B 1_555 1_555
N1B Cd1 1_555 1_555
C1B N1B 1_555 1_555
H1B C1B 1_555 1_555
C2B C1B 1_555 1_555
H2B C2B 1_555 1_555
C3B C2B 1_555 1_555
H3B C3B 1_555 1_555
C4B C3B 1_555 1_555
C5B N1B 1_555 1_555
H4B C5B 1_555 1_555
C6B C4B 1_555 1_555
H5B C6B 1_555 1_555
H6B C6B 1_555 1_555
H7B C6B 1_555 1_555
O3B Cd1 1_555 1_555
O4B Cd2 1_555 1_555
C9B O3B 1_555 1_555
C10B C9B 1_555 1_555
H11B C10B 1_555 1_555
H12B C10B 1_555 1_555
H13B C10B 1_555 1_555
Cd1_2 O1B 1_555 1_555
Cd2B_2 O4 1_555 1_555
O1B_2 Cd1 1_555 1_555
O4_2 Cd2B 1_555 1_555
Cd3 O6 1_555 1_555
O2 C7 1_555 1_555
O6 C11 1_555 1_555
C4 C5 1_555 1_555
C18 C19 1_555 1_555
Cd2B O6B 1_555 1_555
O2B C7B 1_555 1_555
O6B C11B 1_555 1_555
O8B C13B 1_555 1_555
C18B C19B 1_555 1_555
C4B C5B 1_555 1_555
O4B C9B 1_555 1_555
Cd2B_2 O1B_2 1_555 1_555

#END
