
#######################################################################
#
#                 Cambridge Crystallographic Data Centre
#                                CCDC 
#
#######################################################################
#
# If this CIF has been generated from an entry in the Cambridge 
# Structural Database, then it will include bibliographic, chemical, 
# crystal, experimental, refinement or atomic coordinate data resulting 
# from the CCDC's data processing and validation procedures.
#
#######################################################################

data_OHESIE
_symmetry_cell_setting           monoclinic
_symmetry_space_group_name_H-M   'P 2/c'
_symmetry_Int_Tables_number      13
_space_group_name_Hall           '-P 2yc'
loop_
_symmetry_equiv_pos_site_id
_symmetry_equiv_pos_as_xyz
1 x,y,z
2 -x,y,1/2-z
3 -x,-y,-z
4 x,-y,1/2+z
_cell_length_a                   12.5784(14)
_cell_length_b                   10.1347(13)
_cell_length_c                   15.213(2)
_cell_angle_alpha                90
_cell_angle_beta                 97.987(2)
_cell_angle_gamma                90
_cell_volume                     1920.52
loop_
_atom_site_label
_atom_site_type_symbol
_atom_site_fract_x
_atom_site_fract_y
_atom_site_fract_z
Cd1 Cd -0.13156(4) -0.25162(5) -0.18452(3)
N1 N -0.2929(4) -0.1660(6) -0.2611(3)
N2 N -0.3739(5) -0.3685(6) -0.2953(5)
H1 H -0.4260 -0.4153 -0.3213
H2 H -0.3193 -0.4062 -0.2652
N3 N -0.4655(4) -0.1858(7) -0.3500(4)
N4 N -0.1230(4) -0.0248(6) -0.1826(3)
N5 N -0.5745(5) 0.1329(7) -0.4152(5)
O1 O -0.1213(5) -0.2979(7) -0.0397(4)
O2 O -0.2518(5) -0.4197(7) -0.1039(4)
C1 C -0.1952(6) -0.4522(8) 0.0518(5)
H7 H -0.2610 -0.5031 0.0488
H8 H -0.1958 -0.3857 0.0975
C2 C -0.1894(8) -0.3861(10) -0.0372(6)
C3 C -0.3776(5) -0.2378(7) -0.3017(5)
C4 C -0.4700(5) -0.0544(7) -0.3568(4)
C5 C -0.3881(5) 0.0267(7) -0.3171(4)
H9 H -0.3926 0.1180 -0.3221
C6 C -0.2997(5) -0.0335(7) -0.2699(4)
C7 C -0.2068(5) 0.0436(7) -0.2245(4)
C8 C -0.2062(6) 0.1816(8) -0.2247(5)
H10 H -0.2634 0.2286 -0.2551
C9 C -0.1197(7) 0.2466(8) -0.1794(6)
H11 H -0.1178 0.3384 -0.1794
C10 C -0.0362(7) 0.1767(8) -0.1342(6)
H12 H 0.0217 0.2196 -0.1015
C11 C -0.0406(6) 0.0416(8) -0.1385(5)
H13 H 0.0168 -0.0062 -0.1091
C12 C -0.5688(5) 0.0009(8) -0.4097(4)
C13 C -0.6477(5) -0.0808(9) -0.4512(5)
H14 H -0.6406 -0.1719 -0.4463
C14 C -0.7377(6) -0.0253(9) -0.5003(5)
H15 H -0.7926 -0.0785 -0.5282
C15 C -0.7441(6) 0.1089(9) -0.5070(5)
H16 H -0.8031 0.1488 -0.5402
C16 C -0.6615(7) 0.1846(10) -0.4633(6)
H17 H -0.6669 0.2759 -0.4677
O5 O -0.1365(4) -0.5692(5) 0.2242(3)
O6 O -0.0627(4) -0.7359(5) 0.1610(3)
C17 C -0.1001(5) -0.6201(7) 0.1594(5)
C18 C -0.1005(7) -0.5409(9) 0.0743(5)
H18 H -0.0979 -0.6019 0.0255
H19 H -0.0358 -0.4877 0.0797
Cd1C Cd -0.13156(4) -0.74838(5) 0.31548(3)
Cd1B Cd 0.13156(4) -0.74838(5) 0.18452(3)
O5C O -0.1365(4) -0.4308(5) -0.2758(3)
O6C O -0.0627(4) -0.2641(5) -0.3390(3)
O6B O 0.0627(4) -0.2641(5) -0.1610(3)
O3 O 0.4591(10) -0.4869(15) 0.0924(11)
H3 H 0.3957 -0.5166 0.0918
H4 H 0.4768 -0.4961 0.0408
O4 O 0.5000 -0.330(4) 0.2500
H5 H 0.4768 -0.3266 0.1948
H5A H 0.5232 -0.3266 0.3052
H6? H 0.5174 -0.4093 0.2623
loop_
_geom_bond_atom_site_label_1
_geom_bond_atom_site_label_2
_geom_bond_site_symmetry_1
_geom_bond_site_symmetry_2
Cd1 N1 1_555 1_555
N1 C3 1_555 1_555
N2 H1 1_555 1_555
H2 N2 1_555 1_555
N3 C3 1_555 1_555
N4 Cd1 1_555 1_555
N5 C12 1_555 1_555
O1 Cd1 1_555 1_555
O2 Cd1 1_555 1_555
O3 H3 1_555 1_555
H4 O3 1_555 1_555
O4 H5 1_555 1_555
C1 H7 1_555 1_555
H8 C1 1_555 1_555
C2 O1 1_555 1_555
C3 N2 1_555 1_555
C4 N3 1_555 1_555
C5 C4 1_555 1_555
H9 C5 1_555 1_555
C6 N1 1_555 1_555
C7 N4 1_555 1_555
C8 C7 1_555 1_555
H10 C8 1_555 1_555
C9 C8 1_555 1_555
H11 C9 1_555 1_555
C10 C9 1_555 1_555
H12 C10 1_555 1_555
C11 N4 1_555 1_555
H13 C11 1_555 1_555
C12 C4 1_555 1_555
C13 C12 1_555 1_555
H14 C13 1_555 1_555
C14 C13 1_555 1_555
H15 C14 1_555 1_555
C15 C14 1_555 1_555
H16 C15 1_555 1_555
C16 N5 1_555 1_555
H17 C16 1_555 1_555
O5 C17 1_555 1_555
O6 C17 1_555 1_555
C17 C18 1_555 1_555
C18 C1 1_555 1_555
H18 C18 1_555 1_555
H19 C18 1_555 1_555
Cd1C O5 1_555 1_555
Cd1B O6 1_555 1_555
H5A O4 1_555 1_555
O5C Cd1 1_555 1_555
O6C Cd1 1_555 1_555
O6B Cd1 1_555 1_555
O2 C2 1_555 1_555
C1 C2 1_555 1_555
C5 C6 1_555 1_555
C6 C7 1_555 1_555
C10 C11 1_555 1_555
C15 C16 1_555 1_555
O6 Cd1C 1_555 1_555

#END
