
#######################################################################
#
#                 Cambridge Crystallographic Data Centre
#                                CCDC 
#
#######################################################################
#
# If this CIF has been generated from an entry in the Cambridge 
# Structural Database, then it will include bibliographic, chemical, 
# crystal, experimental, refinement or atomic coordinate data resulting 
# from the CCDC's data processing and validation procedures.
#
#######################################################################

data_OHESEB
_symmetry_cell_setting           triclinic
_symmetry_space_group_name_H-M   'P -1'
_symmetry_Int_Tables_number      2
_space_group_name_Hall           '-P 1'
loop_
_symmetry_equiv_pos_site_id
_symmetry_equiv_pos_as_xyz
1 x,y,z
2 -x,-y,-z
_cell_length_a                   9.651(4)
_cell_length_b                   10.032(3)
_cell_length_c                   12.882(5)
_cell_angle_alpha                71.478(5)
_cell_angle_beta                 72.948(4)
_cell_angle_gamma                75.060(6)
_cell_volume                     1111.82
loop_
_atom_site_label
_atom_site_type_symbol
_atom_site_fract_x
_atom_site_fract_y
_atom_site_fract_z
Cd1 Cd 1.0000 1.0000 0.0000
Cd2 Cd 0.75176(4) 0.72899(4) 0.23136(4)
Cd3 Cd 0.5000 0.5000 0.5000
N1 N 0.7988(5) 1.1668(5) -0.0453(4)
N2 N 0.5180(5) 0.3488(5) 0.3959(4)
O1 O 0.8734(4) 0.8138(4) 0.0464(4)
O2 O 0.7849(4) 0.6190(4) 0.0800(4)
O3 O 0.9179(5) 1.0082(4) 0.1841(4)
O4 O 0.7993(5) 0.8540(5) 0.3260(4)
O5 O 0.5192(4) 0.8858(4) 0.2060(4)
O6 O 0.5231(4) 0.6811(4) 0.3361(3)
O7 O 0.9055(5) 0.5359(5) 0.2975(4)
O8 O 0.7546(4) 0.4698(5) 0.4648(4)
C1 C 0.8068(6) 1.3033(6) -0.1047(5)
H1 H 0.9008 1.3307 -0.1338
C2 C 0.6838(7) 1.4046(6) -0.1247(6)
H2 H 0.6929 1.4997 -0.1675
C3 C 0.5461(6) 1.3650(6) -0.0810(5)
H3 H 0.4593 1.4328 -0.0928
C4 C 0.5379(6) 1.2248(6) -0.0200(5)
H4 H 0.4450 1.1953 0.0108
C5 C 0.6666(6) 1.1276(6) -0.0042(5)
H5 H 0.6606 1.0313 0.0368
C6 C 0.8566(6) 0.7102(6) 0.0139(5)
C7 C 0.9245(8) 0.7070(8) -0.1069(6)
H6 H 0.9759 0.7880 -0.1457
H7 H 0.8469 0.7137 -0.1441
H8 H 0.9947 0.6174 -0.1092
C8 C 0.8654(6) 0.9580(6) 0.2858(5)
C9 C 0.8833(7) 1.0245(7) 0.3696(6)
H9 H 0.8366 0.9747 0.4458
H10 H 0.8366 1.1256 0.3535
H11 H 0.9885 1.0165 0.3642
C10 C 0.4513(6) 0.8008(6) 0.2833(5)
C11 C 0.2875(6) 0.8329(7) 0.3209(6)
H12 H 0.2537 0.7535 0.3833
H13 H 0.2433 0.8456 0.2582
H14 H 0.2580 0.9208 0.3460
C12 C 0.8774(6) 0.4643(6) 0.3962(5)
C13 C 1.0079(7) 0.3578(7) 0.4365(6)
H15 H 1.0966 0.3649 0.3753
H16 H 0.9872 0.2606 0.4593
H17 H 1.0235 0.3796 0.5007
C14 C 0.4308(7) 0.2503(6) 0.4332(5)
H18 H 0.3632 0.2446 0.5042
C15 C 0.4349(8) 0.1573(7) 0.3730(6)
H19 H 0.3738 0.0870 0.4029
C16 C 0.5312(7) 0.1687(6) 0.2666(6)
H20 H 0.5350 0.1075 0.2223
C17 C 0.6212(6) 0.2708(6) 0.2269(5)
H21 H 0.6879 0.2805 0.1552
C18 C 0.6117(6) 0.3582(6) 0.2941(5)
H22 H 0.6737 0.4275 0.2673
Cd2A Cd 0.24824(4) 0.27101(4) 0.76864(4)
N2A N 0.4820(5) 0.6512(5) 0.6041(4)
O1A O 0.1266(4) 0.1862(4) 0.9536(4)
O2A O 0.2151(4) 0.3810(4) 0.9200(4)
O3A O 0.0821(5) -0.0082(4) 0.8159(4)
O4A O 0.2007(5) 0.1460(5) 0.6740(4)
O5A O 0.4808(4) 0.1142(4) 0.7940(4)
O6A O 0.4769(4) 0.3189(4) 0.6639(3)
O7A O 0.0945(5) 0.4641(5) 0.7025(4)
O8A O 0.2454(4) 0.5302(5) 0.5352(4)
C6A C 0.1434(6) 0.2898(6) 0.9861(5)
C7A C 0.0755(8) 0.2930(8) 1.1069(6)
H6A H 0.0241 0.2120 1.1457
H7A H 0.1531 0.2863 1.1441
H8A H 0.0053 0.3826 1.1092
C8A C 0.1346(6) 0.0420(6) 0.7142(5)
C9A C 0.1167(7) -0.0245(7) 0.6304(6)
H9A H 0.1634 0.0253 0.5542
H10A H 0.1634 -0.1256 0.6465
H11A H 0.0115 -0.0165 0.6358
C10A C 0.5487(6) 0.1992(6) 0.7167(5)
C11A C 0.7125(6) 0.1671(7) 0.6791(6)
H12A H 0.7463 0.2465 0.6167
H13A H 0.7567 0.1544 0.7418
H14A H 0.7420 0.0792 0.6540
C12A C 0.1226(6) 0.5357(6) 0.6038(5)
C13A C -0.0079(7) 0.6422(7) 0.5635(6)
H15A H -0.0966 0.6351 0.6247
H16A H 0.0128 0.7394 0.5407
H17A H -0.0235 0.6204 0.4993
C14A C 0.5692(7) 0.7497(6) 0.5668(5)
H18A H 0.6368 0.7554 0.4958
C15A C 0.5651(8) 0.8427(7) 0.6270(6)
H19A H 0.6262 0.9130 0.5971
C16A C 0.4688(7) 0.8313(6) 0.7334(6)
H20A H 0.4650 0.8925 0.7777
C17A C 0.3788(6) 0.7292(6) 0.7731(5)
H21A H 0.3121 0.7195 0.8448
C18A C 0.3883(6) 0.6418(6) 0.7059(5)
H22A H 0.3263 0.5725 0.7327
N1A N 1.2012(5) 0.8332(5) 0.0453(4)
C1A C 1.1932(6) 0.6967(6) 0.1047(5)
H1A H 1.0992 0.6693 0.1338
C2A C 1.3162(7) 0.5954(6) 0.1247(6)
H2A H 1.3071 0.5003 0.1675
C3A C 1.4539(6) 0.6350(6) 0.0810(5)
H3A H 1.5407 0.5672 0.0928
C4A C 1.4621(6) 0.7752(6) 0.0200(5)
H4A H 1.5550 0.8047 -0.0108
C5A C 1.3334(6) 0.8724(6) 0.0042(5)
H5A H 1.3394 0.9687 -0.0368
Cd1_2 Cd 0.0000 0.0000 1.0000
O1A_2 O 1.1266(4) 1.1862(4) -0.0464(4)
O3A_2 O 1.0821(5) 0.9918(4) -0.1841(4)
loop_
_geom_bond_atom_site_label_1
_geom_bond_atom_site_label_2
_geom_bond_site_symmetry_1
_geom_bond_site_symmetry_2
Cd1 N1 1_555 1_555
Cd2 O1 1_555 1_555
Cd3 N2 1_555 1_555
N1 C1 1_555 1_555
N2 C14 1_555 1_555
O1 Cd1 1_555 1_555
O2 Cd2 1_555 1_555
O3 Cd1 1_555 1_555
O4 Cd2 1_555 1_555
O5 Cd2 1_555 1_555
O6 Cd2 1_555 1_555
O7 Cd2 1_555 1_555
O8 Cd3 1_555 1_555
C1 H1 1_555 1_555
C2 C1 1_555 1_555
H2 C2 1_555 1_555
C3 C2 1_555 1_555
H3 C3 1_555 1_555
C4 C3 1_555 1_555
H4 C4 1_555 1_555
C5 N1 1_555 1_555
H5 C5 1_555 1_555
C6 O1 1_555 1_555
C7 C6 1_555 1_555
H6 C7 1_555 1_555
H7 C7 1_555 1_555
H8 C7 1_555 1_555
C8 O3 1_555 1_555
C9 C8 1_555 1_555
H9 C9 1_555 1_555
H10 C9 1_555 1_555
H11 C9 1_555 1_555
C10 O5 1_555 1_555
C11 C10 1_555 1_555
H12 C11 1_555 1_555
H13 C11 1_555 1_555
H14 C11 1_555 1_555
C12 O7 1_555 1_555
C13 C12 1_555 1_555
H15 C13 1_555 1_555
H16 C13 1_555 1_555
H17 C13 1_555 1_555
C14 H18 1_555 1_555
C15 C14 1_555 1_555
H19 C15 1_555 1_555
C16 C15 1_555 1_555
H20 C16 1_555 1_555
C17 C16 1_555 1_555
H21 C17 1_555 1_555
C18 N2 1_555 1_555
H22 C18 1_555 1_555
Cd2A O1A 1_555 1_555
N2A Cd3 1_555 1_555
O1A C6A 1_555 1_555
O2A Cd2A 1_555 1_555
O3A C8A 1_555 1_555
O4A Cd2A 1_555 1_555
O5A Cd2A 1_555 1_555
O6A Cd3 1_555 1_555
O7A Cd2A 1_555 1_555
O8A Cd3 1_555 1_555
C6A O2A 1_555 1_555
C7A C6A 1_555 1_555
H6A C7A 1_555 1_555
H7A C7A 1_555 1_555
H8A C7A 1_555 1_555
C8A O4A 1_555 1_555
C9A C8A 1_555 1_555
H9A C9A 1_555 1_555
H10A C9A 1_555 1_555
H11A C9A 1_555 1_555
C10A O5A 1_555 1_555
C11A C10A 1_555 1_555
H12A C11A 1_555 1_555
H13A C11A 1_555 1_555
H14A C11A 1_555 1_555
C12A O7A 1_555 1_555
C13A C12A 1_555 1_555
H15A C13A 1_555 1_555
H16A C13A 1_555 1_555
H17A C13A 1_555 1_555
C14A N2A 1_555 1_555
H18A C14A 1_555 1_555
C15A C14A 1_555 1_555
H19A C15A 1_555 1_555
C16A C15A 1_555 1_555
H20A C16A 1_555 1_555
C17A C16A 1_555 1_555
H21A C17A 1_555 1_555
C18A N2A 1_555 1_555
H22A C18A 1_555 1_555
N1A Cd1 1_555 1_555
C1A N1A 1_555 1_555
H1A C1A 1_555 1_555
C2A C1A 1_555 1_555
H2A C2A 1_555 1_555
C3A C2A 1_555 1_555
H3A C3A 1_555 1_555
C4A C3A 1_555 1_555
H4A C4A 1_555 1_555
C5A N1A 1_555 1_555
H5A C5A 1_555 1_555
Cd1_2 O1A 1_555 1_555
O1A_2 Cd1 1_555 1_555
O3A_2 Cd1 1_555 1_555
Cd3 O6 1_555 1_555
O2 C6 1_555 1_555
O4 C8 1_555 1_555
O6 C10 1_555 1_555
O8 C12 1_555 1_555
C4 C5 1_555 1_555
C17 C18 1_555 1_555
Cd2A O6A 1_555 1_555
O3A Cd1_2 1_555 1_555
O6A C10A 1_555 1_555
O8A C12A 1_555 1_555
C17A C18A 1_555 1_555
C4A C5A 1_555 1_555

#END
