
#######################################################################
#
#                 Cambridge Crystallographic Data Centre
#                                CCDC 
#
#######################################################################
#
# If this CIF has been generated from an entry in the Cambridge 
# Structural Database, then it will include bibliographic, chemical, 
# crystal, experimental, refinement or atomic coordinate data resulting 
# from the CCDC's data processing and validation procedures.
#
#######################################################################

data_OHETOL
_symmetry_cell_setting           monoclinic
_symmetry_space_group_name_H-M   'C c'
_symmetry_Int_Tables_number      9
_space_group_name_Hall           'C -2yc'
loop_
_symmetry_equiv_pos_site_id
_symmetry_equiv_pos_as_xyz
1 x,y,z
2 x,-y,1/2+z
3 1/2+x,1/2+y,z
4 1/2+x,1/2-y,1/2+z
_cell_length_a                   14.2332(15)
_cell_length_b                   17.1597(18)
_cell_length_c                   8.6468(10)
_cell_angle_alpha                90
_cell_angle_beta                 102.428(2)
_cell_angle_gamma                90
_cell_volume                     2062.39
loop_
_atom_site_label
_atom_site_type_symbol
_atom_site_fract_x
_atom_site_fract_y
_atom_site_fract_z
Cd1 Cd 0.24875(5) 0.69373(3) 0.80139(6)
N1 N 0.0811(8) 0.7386(5) 0.4594(12)
H1 H 0.0412 0.7622 0.3855
H2 H 0.1240 0.7647 0.5241
N2 N 0.1412(5) 0.6274(4) 0.5901(8)
N3 N 0.0083(6) 0.6236(4) 0.3696(9)
N4 N 0.2692(5) 0.5613(4) 0.8281(9)
N5 N -0.1374(6) 0.3889(5) 0.1403(10)
O1 O 0.3037(4) 0.7617(4) 0.6151(8)
O2 O 0.4194(6) 0.6859(4) 0.7364(9)
O3 O 0.6432(5) 0.7065(4) 0.3355(8)
O4 O 0.6220(6) 0.8173(4) 0.4465(10)
O5 O 0.3557(6) 0.7304(5) 1.0405(10)
H3 H 0.3425 0.7787 1.0343
H4 H 0.3993 0.7224 0.9889
C1 C 0.3877(8) 0.7361(7) 0.6307(13)
C2 C 0.4500(7) 0.7666(6) 0.5260(13)
H5 H 0.4841 0.8120 0.5762
H6 H 0.4090 0.7836 0.4273
C3 C 0.5231(9) 0.7096(6) 0.4881(16)
H7 H 0.5526 0.6818 0.5839
H8 H 0.4900 0.6717 0.4124
C4 C 0.6011(8) 0.7482(8) 0.4209(13)
C5 C 0.0765(7) 0.6614(5) 0.4736(11)
C6 C 0.0057(6) 0.5462(5) 0.3827(10)
C7 C 0.0710(6) 0.5065(5) 0.4965(11)
H9 H 0.0697 0.4525 0.5035
C8 C 0.1385(7) 0.5502(6) 0.6000(11)
C9 C 0.2132(6) 0.5127(6) 0.7263(11)
C10 C 0.2248(7) 0.4336(6) 0.7372(12)
H10 H 0.1853 0.4008 0.6658
C11 C 0.2965(8) 0.4032(6) 0.8564(14)
H11 H 0.3050 0.3496 0.8667
C12 C 0.3544(7) 0.4526(6) 0.9587(11)
H12 H 0.4037 0.4335 1.0382
C13 C 0.3378(7) 0.5309(6) 0.9408(13)
H13 H 0.3765 0.5646 1.0112
C14 C -0.0701(8) 0.4260(6) 0.2422(13)
H14 H -0.0189 0.3975 0.3001
C15 C -0.0722(6) 0.5062(6) 0.2669(10)
C16 C -0.1491(7) 0.5465(6) 0.1783(12)
H15 H -0.1528 0.6001 0.1903
C17 C -0.2193(8) 0.5091(7) 0.0740(14)
H16 H -0.2715 0.5361 0.0147
C18 C -0.2106(8) 0.4294(7) 0.0590(13)
H17 H -0.2586 0.4030 -0.0117
Cd1C Cd 0.74875(5) 0.80627(3) 0.30139(6)
O3C O 0.1432(5) 0.7935(4) 0.8355(8)
O4C O 0.1220(6) 0.6827(4) 0.9465(10)
O6 O 0.0533(8) 0.9296(6) 0.6858(11)
H18 H 0.0806 0.8886 0.7287
H19 H 0.0559 0.9294 0.5885
O7 O 0.0607(8) 0.9317(7) 0.3595(13)
H20 H 0.0174 0.8993 0.3177
H21 H 0.0550 0.9723 0.3020
loop_
_geom_bond_atom_site_label_1
_geom_bond_atom_site_label_2
_geom_bond_site_symmetry_1
_geom_bond_site_symmetry_2
Cd1 N2 1_555 1_555
N1 H1 1_555 1_555
H2 N1 1_555 1_555
N2 C5 1_555 1_555
N3 C5 1_555 1_555
N4 Cd1 1_555 1_555
N5 C14 1_555 1_555
O1 Cd1 1_555 1_555
O2 Cd1 1_555 1_555
O3 C4 1_555 1_555
O4 C4 1_555 1_555
O5 Cd1 1_555 1_555
H3 O5 1_555 1_555
H4 O5 1_555 1_555
C1 O1 1_555 1_555
C2 C1 1_555 1_555
H5 C2 1_555 1_555
H6 C2 1_555 1_555
C3 C2 1_555 1_555
H7 C3 1_555 1_555
H8 C3 1_555 1_555
C4 C3 1_555 1_555
C5 N1 1_555 1_555
C6 N3 1_555 1_555
C7 C6 1_555 1_555
H9 C7 1_555 1_555
C8 N2 1_555 1_555
C9 N4 1_555 1_555
C10 C9 1_555 1_555
H10 C10 1_555 1_555
C11 C10 1_555 1_555
H11 C11 1_555 1_555
C12 C11 1_555 1_555
H12 C12 1_555 1_555
C13 N4 1_555 1_555
H13 C13 1_555 1_555
C14 H14 1_555 1_555
C15 C6 1_555 1_555
C16 C15 1_555 1_555
H15 C16 1_555 1_555
C17 C16 1_555 1_555
H16 C17 1_555 1_555
C18 N5 1_555 1_555
H17 C18 1_555 1_555
O6 H18 1_555 1_555
H19 O6 1_555 1_555
O7 H20 1_555 1_555
H21 O7 1_555 1_555
Cd1C O3 1_555 1_555
O3C Cd1 1_555 1_555
O4C Cd1 1_555 1_555
O2 C1 1_555 1_555
O4 Cd1C 1_555 1_555
C7 C8 1_555 1_555
C8 C9 1_555 1_555
C12 C13 1_555 1_555
C14 C15 1_555 1_555
C17 C18 1_555 1_555

#END
