
#######################################################################
#
#                 Cambridge Crystallographic Data Centre
#                                CCDC 
#
#######################################################################
#
# If this CIF has been generated from an entry in the Cambridge 
# Structural Database, then it will include bibliographic, chemical, 
# crystal, experimental, refinement or atomic coordinate data resulting 
# from the CCDC's data processing and validation procedures.
#
#######################################################################

data_OHETUR
_symmetry_cell_setting           monoclinic
_symmetry_space_group_name_H-M   'P 21/c'
_symmetry_Int_Tables_number      14
_space_group_name_Hall           '-P 2ybc'
loop_
_symmetry_equiv_pos_site_id
_symmetry_equiv_pos_as_xyz
1 x,y,z
2 -x,1/2+y,1/2-z
3 -x,-y,-z
4 x,1/2-y,1/2+z
_cell_length_a                   7.5111(15)
_cell_length_b                   25.426(5)
_cell_length_c                   12.294(3)
_cell_angle_alpha                90
_cell_angle_beta                 106.74(3)
_cell_angle_gamma                90
_cell_volume                     2248.38
loop_
_atom_site_label
_atom_site_type_symbol
_atom_site_fract_x
_atom_site_fract_y
_atom_site_fract_z
Cu1 Cu 0.36472(6) 0.590523(16) 1.00706(4)
Cu2 Cu 0.44861(7) 0.445522(19) 1.28417(4)
Cu3 Cu 0.01408(7) 0.313332(19) 1.04139(4)
Cu4 Cu 0.78717(7) 0.360050(19) 1.64065(4)
N1 N 0.3253(4) 0.64216(11) 0.8872(2)
N2 N 0.1387(4) 0.58040(12) 0.7784(2)
N3 N 0.1930(4) 0.55070(11) 0.8772(2)
N4 N 0.5284(4) 0.69154(11) 1.0208(2)
N5 N 0.5425(4) 0.64661(11) 1.0857(2)
N6 N 0.4145(5) 0.53799(13) 1.1222(3)
N7 N 0.2926(5) 0.38738(14) 1.1976(3)
N8 N -0.1330(5) 0.34584(14) 0.8952(3)
N9 N -0.1042(5) 0.20129(14) 1.0779(3)
N10 N 0.6589(5) 0.40565(14) 1.5190(3)
C1 C 0.4180(5) 0.68782(13) 0.9077(3)
C2 C 0.4007(5) 0.72473(14) 0.8234(3)
H1 H 0.4650 0.7564 0.8376
C3 C 0.2852(6) 0.71313(15) 0.7176(3)
H2 H 0.2698 0.7377 0.6596
C4 C 0.1909(5) 0.66567(15) 0.6950(3)
H3 H 0.1135 0.6578 0.6230
C5 C 0.2164(5) 0.63076(13) 0.7834(3)
C6 C 0.0175(5) 0.55231(15) 0.6939(3)
C7 C -0.0023(5) 0.50495(15) 0.7394(3)
H4 H -0.0763 0.4774 0.7020
C8 C 0.1078(5) 0.50476(14) 0.8525(3)
C9 C -0.0742(6) 0.57228(18) 0.5762(3)
H5 H -0.1461 0.6030 0.5804
H6 H -0.1544 0.5455 0.5331
H7 H 0.0191 0.5810 0.5398
C10 C 0.1331(6) 0.46112(15) 0.9351(4)
H8 H 0.2498 0.4440 0.9420
H9 H 0.0338 0.4362 0.9092
H10 H 0.1320 0.4748 1.0077
C11 C 0.6288(5) 0.73188(14) 1.0832(3)
C12 C 0.7069(5) 0.71152(16) 1.1891(3)
H11 H 0.7835 0.7294 1.2510
C13 C 0.6515(5) 0.65918(15) 1.1881(3)
C14 C 0.6384(6) 0.78641(16) 1.0422(4)
H12 H 0.7003 0.7863 0.9839
H13 H 0.7062 0.8081 1.1042
H14 H 0.5148 0.8001 1.0119
C15 C 0.6989(6) 0.62141(17) 1.2852(3)
H15 H 0.5967 0.6190 1.3172
H16 H 0.8074 0.6336 1.3422
H17 H 0.7231 0.5874 1.2587
C16 C 0.4369(5) 0.50471(15) 1.1887(3)
C17 C 0.1911(5) 0.35850(15) 1.1388(3)
C18 C -0.1689(5) 0.35321(14) 0.7988(3)
C19 C -0.0576(5) 0.24243(15) 1.0593(3)
C20 C 0.5775(5) 0.42521(14) 1.4351(3)
Cu4C Cu -0.21283(7) 0.139950(19) 1.14065(4)
Cu4_2 Cu -0.21283(7) 0.360050(19) 0.64065(4)
N9C N 0.8958(5) 0.29871(14) 1.5779(3)
C18_2 C 0.8311(5) 0.35321(14) 1.7988(3)
loop_
_geom_bond_atom_site_label_1
_geom_bond_atom_site_label_2
_geom_bond_site_symmetry_1
_geom_bond_site_symmetry_2
Cu1 N1 1_555 1_555
Cu2 N7 1_555 1_555
Cu3 N8 1_555 1_555
Cu4 N10 1_555 1_555
N1 C1 1_555 1_555
N2 N3 1_555 1_555
N3 Cu1 1_555 1_555
N4 N5 1_555 1_555
N5 Cu1 1_555 1_555
N6 Cu1 1_555 1_555
N7 C17 1_555 1_555
N8 C18 1_555 1_555
N9 C19 1_555 1_555
N10 C20 1_555 1_555
C1 N4 1_555 1_555
C2 C1 1_555 1_555
H1 C2 1_555 1_555
C3 C2 1_555 1_555
H2 C3 1_555 1_555
C4 C3 1_555 1_555
H3 C4 1_555 1_555
C5 N1 1_555 1_555
C6 N2 1_555 1_555
C7 C6 1_555 1_555
H4 C7 1_555 1_555
C8 N3 1_555 1_555
C9 C6 1_555 1_555
H5 C9 1_555 1_555
H6 C9 1_555 1_555
H7 C9 1_555 1_555
C10 C8 1_555 1_555
H8 C10 1_555 1_555
H9 C10 1_555 1_555
H10 C10 1_555 1_555
C11 N4 1_555 1_555
C12 C11 1_555 1_555
H11 C12 1_555 1_555
C13 N5 1_555 1_555
C14 C11 1_555 1_555
H12 C14 1_555 1_555
H13 C14 1_555 1_555
H14 C14 1_555 1_555
C15 C13 1_555 1_555
H15 C15 1_555 1_555
H16 C15 1_555 1_555
H17 C15 1_555 1_555
C16 Cu2 1_555 1_555
C17 Cu3 1_555 1_555
C18 Cu4_2 1_555 1_555
C19 Cu3 1_555 1_555
C20 Cu2 1_555 1_555
Cu4C N9 1_555 1_555
N9C Cu4 1_555 1_555
C18_2 Cu4 1_555 1_555
N2 C5 1_555 1_555
N6 C16 1_555 1_555
C4 C5 1_555 1_555
C7 C8 1_555 1_555
C12 C13 1_555 1_555

#END
