
#######################################################################
#
#                 Cambridge Crystallographic Data Centre
#                                CCDC 
#
#######################################################################
#
# If this CIF has been generated from an entry in the Cambridge 
# Structural Database, then it will include bibliographic, chemical, 
# crystal, experimental, refinement or atomic coordinate data resulting 
# from the CCDC's data processing and validation procedures.
#
#######################################################################

data_OHEYUV
_symmetry_cell_setting           monoclinic
_symmetry_space_group_name_H-M   'P 21/c'
_symmetry_Int_Tables_number      14
_space_group_name_Hall           '-P 2ybc'
loop_
_symmetry_equiv_pos_site_id
_symmetry_equiv_pos_as_xyz
1 x,y,z
2 x,1/2-y,1/2+z
3 -x,-y,-z
4 -x,1/2+y,1/2-z
_cell_length_a                   8.2430(3)
_cell_length_b                   19.0730(6)
_cell_length_c                   14.6010(5)
_cell_angle_alpha                90
_cell_angle_beta                 97.2750(18)
_cell_angle_gamma                90
_cell_volume                     2277.07
loop_
_atom_site_label
_atom_site_type_symbol
_atom_site_fract_x
_atom_site_fract_y
_atom_site_fract_z
K1 K 0.61311(6) 0.48863(2) 0.22858(3)
N1 N -0.0007(2) 0.47256(10) 0.08551(14)
O1 O 0.30691(16) 0.41683(7) 0.17013(9)
C1 C 0.3215(3) 0.34291(10) 0.18540(16)
H1 H 0.2301 0.3196 0.1494
H2 H 0.3145 0.3334 0.2500
C2 C 0.4779(3) 0.31248(12) 0.16034(15)
H3 H 0.4726 0.2617 0.1614
H4 H 0.4942 0.3271 0.0985
O2 O 0.60983(17) 0.33623(7) 0.22475(10)
C3 C 0.7636(3) 0.31486(11) 0.19915(16)
H5 H 0.7813 0.3371 0.1415
H6 H 0.7643 0.2645 0.1903
C4 C 0.8966(3) 0.33517(11) 0.27322(17)
H7 H 0.8782 0.3136 0.3312
H8 H 1.0013 0.3191 0.2575
O3 O 0.89773(18) 0.40966(8) 0.28228(11)
C5 C 1.0320(3) 0.43535(13) 0.34403(17)
H9 H 1.1299 0.4366 0.3135
H10 H 1.0522 0.4048 0.3974
C6 C 0.9912(3) 0.50741(13) 0.37366(16)
H11 H 0.9043 0.5052 0.4126
H12 H 1.0863 0.5285 0.4090
O4 O 0.94039(18) 0.54857(8) 0.29429(10)
C7 C 0.9266(3) 0.62115(13) 0.3156(2)
H13 H 1.0346 0.6416 0.3296
H14 H 0.8694 0.6266 0.3692
C8 C 0.8352(3) 0.65732(12) 0.23506(19)
H15 H 0.8393 0.7077 0.2445
H16 H 0.8838 0.6467 0.1795
O5 O 0.67033(17) 0.63375(8) 0.22549(11)
C9 C 0.5698(3) 0.66935(12) 0.15522(17)
H17 H 0.6016 0.6573 0.0955
H18 H 0.5821 0.7196 0.1638
C10 C 0.3961(3) 0.64886(11) 0.15884(18)
H19 H 0.3707 0.6523 0.2218
H20 H 0.3240 0.6803 0.1206
O6 O 0.37108(17) 0.57862(7) 0.12647(10)
C11 C 0.2068(2) 0.55760(11) 0.12954(14)
H21 H 0.1347 0.5971 0.1131
H22 H 0.1934 0.5435 0.1920
C12 C 0.1581(2) 0.49632(10) 0.06315(14)
C13 C 0.2817(2) 0.43619(11) 0.07492(14)
H23 H 0.2404 0.3964 0.0376
H24 H 0.3842 0.4509 0.0550
C14 C -0.1478(3) 0.47873(10) 0.03634(14)
O7 O -0.27454(17) 0.46337(8) 0.06788(10)
O9 O 0.4563(3) 0.50910(14) 0.37410(16)
H28 H -0.005(3) 0.4596(13) 0.1354(18)
H30 H 0.451(4) 0.4716(19) 0.406(3)
H31 H 0.475(5) 0.543(2) 0.413(3)
C14B C 0.1478(3) 0.52127(10) -0.03634(14)
N1B N 0.0007(2) 0.52744(10) -0.08551(14)
C12B C -0.1581(2) 0.50368(10) -0.06315(14)
C11B C -0.2068(2) 0.44240(11) -0.12954(14)
O6B O -0.37108(17) 0.42138(7) -0.12647(10)
C10B C -0.3961(3) 0.35114(11) -0.15884(18)
C9B C -0.5698(3) 0.33065(12) -0.15522(17)
O5B O -0.67033(17) 0.36625(8) -0.22549(11)
C8B C -0.8352(3) 0.34268(12) -0.23506(19)
C7B C -0.9266(3) 0.37885(13) -0.3156(2)
O4B O -0.94039(18) 0.45143(8) -0.29429(10)
C6B C -0.9912(3) 0.49259(13) -0.37366(16)
C5B C -1.0320(3) 0.56465(13) -0.34403(17)
O3B O -0.89773(18) 0.59034(8) -0.28228(11)
C4B C -0.8966(3) 0.66483(11) -0.27322(17)
C3B C -0.7636(3) 0.68514(11) -0.19915(16)
O2B O -0.60983(17) 0.66377(7) -0.22475(10)
C2B C -0.4779(3) 0.68752(12) -0.16034(15)
C1B C -0.3215(3) 0.65709(10) -0.18540(16)
O1B O -0.30691(16) 0.58317(7) -0.17013(9)
C13B C -0.2817(2) 0.56381(11) -0.07492(14)
H23B H -0.2404 0.6036 -0.0376
H24B H -0.3842 0.5491 -0.0550
H1B H -0.2301 0.6804 -0.1494
H2B H -0.3145 0.6666 -0.2500
H3B H -0.4726 0.7383 -0.1614
H4B H -0.4942 0.6729 -0.0985
H5B H -0.7813 0.6629 -0.1415
H6B H -0.7643 0.7355 -0.1903
H7B H -0.8782 0.6864 -0.3312
H8B H -1.0013 0.6809 -0.2575
H9B H -1.1299 0.5634 -0.3135
H10B H -1.0522 0.5952 -0.3974
H11B H -0.9043 0.4948 -0.4126
H12B H -1.0863 0.4715 -0.4090
H13B H -1.0346 0.3584 -0.3296
H14B H -0.8694 0.3734 -0.3692
H15B H -0.8393 0.2923 -0.2445
H16B H -0.8838 0.3533 -0.1795
H17B H -0.6016 0.3427 -0.0955
H18B H -0.5821 0.2804 -0.1638
H19B H -0.3707 0.3477 -0.2218
H20B H -0.3240 0.3197 -0.1206
H21B H -0.1347 0.4029 -0.1131
H22B H -0.1934 0.4565 -0.1920
H28B H 0.005(3) 0.5404(13) -0.1354(18)
O7B O 0.27454(17) 0.53663(8) -0.06788(10)
K1B K -0.61311(6) 0.51137(2) -0.22858(3)
O9B O -0.4563(3) 0.49090(14) -0.37410(16)
H30B H -0.451(4) 0.5284(19) -0.406(3)
H31B H -0.475(5) 0.457(2) -0.413(3)
O7_2 O 0.72546(17) 0.46337(8) 0.06788(10)
K1_2 K -0.38689(6) 0.48863(2) 0.22858(3)
K1B_2 K 0.38689(6) 0.51137(2) -0.22858(3)
O7B_2 O -0.72546(17) 0.53663(8) -0.06788(10)
S1 S -0.02673(8) 0.22065(3) 0.50321(5)
N2 N 0.2522(3) 0.29491(12) 0.47371(18)
C15 C 0.1362(3) 0.26401(12) 0.48589(16)
C16 C 0.6380(3) 0.34904(15) 0.4789(2)
H25 H 0.7294 0.3800 0.4771
H26 H 0.6218 0.3220 0.4230
H27 H 0.6594 0.3181 0.5309
O8 O 0.4957(2) 0.38890(9) 0.48717(14)
H29 H 0.401(5) 0.358(2) 0.481(3)
loop_
_geom_bond_atom_site_label_1
_geom_bond_atom_site_label_2
_geom_bond_site_symmetry_1
_geom_bond_site_symmetry_2
K1 O1 1_555 1_555
N1 C12 1_555 1_555
O1 C1 1_555 1_555
C1 H1 1_555 1_555
H2 C1 1_555 1_555
C2 C1 1_555 1_555
H3 C2 1_555 1_555
H4 C2 1_555 1_555
O2 K1 1_555 1_555
C3 O2 1_555 1_555
H5 C3 1_555 1_555
H6 C3 1_555 1_555
C4 C3 1_555 1_555
H7 C4 1_555 1_555
H8 C4 1_555 1_555
O3 K1 1_555 1_555
C5 O3 1_555 1_555
H9 C5 1_555 1_555
H10 C5 1_555 1_555
C6 C5 1_555 1_555
H11 C6 1_555 1_555
H12 C6 1_555 1_555
O4 K1 1_555 1_555
C7 O4 1_555 1_555
H13 C7 1_555 1_555
H14 C7 1_555 1_555
C8 C7 1_555 1_555
H15 C8 1_555 1_555
H16 C8 1_555 1_555
O5 K1 1_555 1_555
C9 O5 1_555 1_555
H17 C9 1_555 1_555
H18 C9 1_555 1_555
C10 C9 1_555 1_555
H19 C10 1_555 1_555
H20 C10 1_555 1_555
O6 K1 1_555 1_555
C11 O6 1_555 1_555
H21 C11 1_555 1_555
H22 C11 1_555 1_555
C12 C11 1_555 1_555
C13 O1 1_555 1_555
H23 C13 1_555 1_555
H24 C13 1_555 1_555
C14 N1 1_555 1_555
O7 C14 1_555 1_555
S1 C15 1_555 1_555
N2 C15 1_555 1_555
C16 H25 1_555 1_555
H26 C16 1_555 1_555
H27 C16 1_555 1_555
O8 C16 1_555 1_555
O9 K1 1_555 1_555
H28 N1 1_555 1_555
H29 O8 1_555 1_555
H30 O9 1_555 1_555
H31 O9 1_555 1_555
C14B C12 1_555 1_555
N1B C14B 1_555 1_555
C12B C14 1_555 1_555
C11B C12B 1_555 1_555
O6B C11B 1_555 1_555
C10B O6B 1_555 1_555
C9B C10B 1_555 1_555
O5B C9B 1_555 1_555
C8B O5B 1_555 1_555
C7B C8B 1_555 1_555
O4B C7B 1_555 1_555
C6B O4B 1_555 1_555
C5B C6B 1_555 1_555
O3B C5B 1_555 1_555
C4B O3B 1_555 1_555
C3B C4B 1_555 1_555
O2B C3B 1_555 1_555
C2B O2B 1_555 1_555
C1B C2B 1_555 1_555
O1B C1B 1_555 1_555
C13B C12B 1_555 1_555
H23B C13B 1_555 1_555
H24B C13B 1_555 1_555
H1B C1B 1_555 1_555
H2B C1B 1_555 1_555
H3B C2B 1_555 1_555
H4B C2B 1_555 1_555
H5B C3B 1_555 1_555
H6B C3B 1_555 1_555
H7B C4B 1_555 1_555
H8B C4B 1_555 1_555
H9B C5B 1_555 1_555
H10B C5B 1_555 1_555
H11B C6B 1_555 1_555
H12B C6B 1_555 1_555
H13B C7B 1_555 1_555
H14B C7B 1_555 1_555
H15B C8B 1_555 1_555
H16B C8B 1_555 1_555
H17B C9B 1_555 1_555
H18B C9B 1_555 1_555
H19B C10B 1_555 1_555
H20B C10B 1_555 1_555
H21B C11B 1_555 1_555
H22B C11B 1_555 1_555
H28B N1B 1_555 1_555
O7B C14B 1_555 1_555
K1B O6B 1_555 1_555
O9B K1B 1_555 1_555
H30B O9B 1_555 1_555
H31B O9B 1_555 1_555
O7_2 K1 1_555 1_555
K1_2 O7 1_555 1_555
K1B_2 O7B 1_555 1_555
O7B_2 K1B 1_555 1_555
C2 O2 1_555 1_555
C4 O3 1_555 1_555
C6 O4 1_555 1_555
C8 O5 1_555 1_555
C10 O6 1_555 1_555
C12 C13 1_555 1_555
N1B C12B 1_555 1_555
O5B K1B 1_555 1_555
O4B K1B 1_555 1_555
O3B K1B 1_555 1_555
O2B K1B 1_555 1_555
O1B C13B 1_555 1_555
O1B K1B 1_555 1_555

#END
