
#######################################################################
#
#                 Cambridge Crystallographic Data Centre
#                                CCDC 
#
#######################################################################
#
# If this CIF has been generated from an entry in the Cambridge 
# Structural Database, then it will include bibliographic, chemical, 
# crystal, experimental, refinement or atomic coordinate data resulting 
# from the CCDC's data processing and validation procedures.
#
#######################################################################

data_OHIDEP
_symmetry_cell_setting           triclinic
_symmetry_space_group_name_H-M   'P 1'
_symmetry_Int_Tables_number      1
_space_group_name_Hall           'P 1'
loop_
_symmetry_equiv_pos_site_id
_symmetry_equiv_pos_as_xyz
1 x,y,z
_cell_length_a                   9.3209(19)
_cell_length_b                   14.000(3)
_cell_length_c                   17.577(4)
_cell_angle_alpha                84.07(3)
_cell_angle_beta                 89.09(4)
_cell_angle_gamma                84.48(3)
_cell_volume                     2270.77
loop_
_atom_site_label
_atom_site_type_symbol
_atom_site_fract_x
_atom_site_fract_y
_atom_site_fract_z
Er1 Er 0.52794(3) 0.62376(3) 0.73322(2)
Er2 Er 1.14506(3) 0.46363(3) 0.28180(2)
S1 S 0.3921(3) 0.4856(2) 0.57873(15)
F1 F 0.3694(8) 0.3505(5) 0.6872(3)
F2 F 0.2913(8) 0.3214(4) 0.5785(3)
F3 F 0.1711(6) 0.4230(6) 0.6464(5)
O1 O 0.5094(7) 0.7805(5) 0.7739(4)
H1 H 0.4753 0.8047 0.7328
O2 O 1.2173(8) 1.0092(5) 0.5939(4)
H2 H 1.1402 0.9952 0.6129
O3 O 0.4323(6) 0.5350(4) 0.6406(3)
O4 O 0.5156(6) 0.4362(6) 0.5419(5)
O5 O 0.2939(7) 0.5388(5) 0.5246(4)
O9 O 1.2441(8) 0.5596(5) 0.3792(4)
H3 H 1.3254 0.5316 0.3833
O10 O 0.4325(7) 0.5113(5) 0.8241(4)
O11 O 0.7069(8) 0.6810(5) 0.6596(4)
O12 O 0.6950(7) 0.4887(5) 0.7176(3)
H4 H 0.7592 0.5219 0.7269
O13 O 0.9836(8) 0.5974(6) 0.2895(4)
H5 H 0.9870 0.5834 0.3359
O14 O 0.9572(7) 0.4111(5) 0.3590(4)
O15 O 1.2510(8) 0.5633(6) 0.1935(4)
O16 O 0.0205(7) 0.4697(5) 1.1727(4)
H6 H 0.0950 0.4805 1.1493
O17 O 0.6524(8) 0.6106(6) 0.8491(4)
H7 H 0.5903 0.5881 0.8772
O18 O 0.4636(10) 0.0811(6) 0.4198(5)
H8 H 0.5323 0.1025 0.3964
O19 O 1.1688(8) 0.3062(6) 0.2404(4)
H9 H 1.0833 0.2991 0.2481
N1 N 0.6655(9) 0.9235(7) 0.7464(5)
N2 N 1.0368(10) 0.9770(6) 0.7065(5)
N3 N 0.2609(10) 0.6590(7) 0.7387(5)
N4 N 0.4254(9) 0.7465(6) 0.6225(5)
N5 N 0.8463(9) 0.4818(6) 0.6029(5)
N6 N 0.8241(10) 0.6116(6) 0.4108(5)
N7 N 1.2388(10) 0.3399(7) 0.3968(5)
N8 N 1.4099(10) 0.4205(5) 0.2780(5)
N9 N 0.1559(7) 0.5304(6) 1.0455(5)
N10 N 0.5181(9) 0.5632(7) 0.9738(5)
N11 N 0.6303(10) 0.1083(7) 0.3109(6)
N12 N 0.9940(11) 0.1686(7) 0.2671(5)
C1 C 0.3450(6) 0.7929(4) 0.8746(3)
H10 H 0.3077 0.7371 0.8624
C2 C 0.2913(7) 0.8381(5) 0.9373(4)
H11 H 0.2180 0.8126 0.9671
C3 C 0.3470(9) 0.9214(5) 0.9555(4)
H12 H 0.3111 0.9516 0.9974
C4 C 0.4566(9) 0.9595(5) 0.9110(5)
H13 H 0.4939 1.0152 0.9231
C5 C 0.5103(7) 0.9143(5) 0.8483(4)
C6 C 0.4546(7) 0.8310(4) 0.8301(3)
C7 C 0.6104(12) 0.9474(8) 0.8129(6)
H14 H 0.6536 0.9950 0.8349
C8 C 0.7851(8) 0.9661(8) 0.7040(6)
H15 H 0.7736 1.0357 0.7037
H16 H 0.7864 0.9504 0.6515
C9 C 0.9259(9) 0.9244(9) 0.7441(6)
H17 H 0.9210 0.9334 0.7981
H18 H 0.9445 0.8560 0.7388
C10 C 1.1211(15) 1.0160(10) 0.7476(8)
H19 H 1.1072 1.0126 0.8002
C11 C 1.2361(7) 1.0645(5) 0.7134(4)
C12 C 1.3144(9) 1.1153(7) 0.7596(4)
H20 H 1.2846 1.1222 0.8096
C13 C 1.4373(10) 1.1557(8) 0.7309(6)
H21 H 1.4896 1.1896 0.7618
C14 C 1.4818(9) 1.1453(8) 0.6561(6)
H22 H 1.5640 1.1724 0.6370
C15 C 1.4036(9) 1.0946(8) 0.6100(5)
H23 H 1.4334 1.0877 0.5599
C16 C 1.2807(8) 1.0542(6) 0.6386(4)
C17 C 0.3209(6) 0.3780(4) 0.8672(3)
H24 H 0.4072 0.3502 0.8890
C18 C 0.1995(7) 0.3272(4) 0.8727(4)
H25 H 0.2046 0.2654 0.8982
C19 C 0.0705(6) 0.3687(5) 0.8400(4)
H26 H -0.0107 0.3347 0.8437
C20 C 0.0628(6) 0.4611(6) 0.8018(4)
H27 H -0.0235 0.4889 0.7800
C21 C 0.1842(7) 0.5119(5) 0.7963(4)
C22 C 0.3132(6) 0.4703(4) 0.8290(3)
C23 C 0.1693(12) 0.6028(7) 0.7586(6)
H28 H 0.0750 0.6262 0.7459
C24 C 0.2146(10) 0.7544(8) 0.6954(4)
H29 H 0.2484 0.8059 0.7212
H30 H 0.1102 0.7639 0.6933
C25 C 0.2769(11) 0.7575(9) 0.6137(4)
H31 H 0.2453 0.7057 0.5875
H32 H 0.2465 0.8186 0.5846
C26 C 0.4945(12) 0.8052(7) 0.5810(6)
H33 H 0.4354 0.8514 0.5514
C27 C 0.6399(5) 0.8154(4) 0.5702(3)
C28 C 0.6835(6) 0.8881(4) 0.5175(4)
H34 H 0.6152 0.9326 0.4924
C29 C 0.8294(7) 0.8941(5) 0.5023(4)
H35 H 0.8586 0.9427 0.4670
C30 C 0.9315(6) 0.8275(6) 0.5397(4)
H36 H 1.0291 0.8316 0.5295
C31 C 0.8879(6) 0.7549(5) 0.5925(4)
H37 H 0.9562 0.7103 0.6175
C32 C 0.7420(6) 0.7488(4) 0.6077(3)
C33 C 0.6884(5) 0.3485(4) 0.8133(2)
H38 H 0.6282 0.3827 0.8457
C34 C 0.7329(6) 0.2517(4) 0.8336(3)
H39 H 0.7023 0.2212 0.8797
C35 C 0.8229(7) 0.2006(4) 0.7851(4)
H40 H 0.8527 0.1359 0.7988
C36 C 0.8686(7) 0.2463(5) 0.7162(3)
H41 H 0.9289 0.2121 0.6838
C37 C 0.8242(7) 0.3430(5) 0.6958(3)
C38 C 0.7341(6) 0.3942(4) 0.7444(3)
C39 C 0.8672(11) 0.3810(8) 0.6297(6)
H42 H 0.9152 0.3398 0.5974
C40 C 0.8980(12) 0.5210(8) 0.5299(6)
H43 H 0.9518 0.4703 0.5046
H44 H 0.9621 0.5700 0.5370
C41 C 0.7736(12) 0.5642(9) 0.4815(6)
H45 H 0.7144 0.5140 0.4707
H46 H 0.7148 0.6105 0.5090
C42 C 0.7948(10) 0.6928(7) 0.3934(4)
H47 H 0.7309 0.7276 0.4238
C43 C 0.8577(6) 0.7442(4) 0.3223(3)
C44 C 0.8167(7) 0.8403(4) 0.2976(3)
H48 H 0.7614 0.8788 0.3292
C45 C 0.8583(9) 0.8789(4) 0.2255(4)
H49 H 0.8309 0.9432 0.2089
C46 C 0.9409(8) 0.8214(6) 0.1781(3)
H50 H 0.9688 0.8472 0.1299
C47 C 0.9819(7) 0.7253(5) 0.2029(3)
H51 H 1.0372 0.6868 0.1712
C48 C 0.9403(7) 0.6866(4) 0.2750(3)
C49 C 0.7840(6) 0.3280(4) 0.4271(3)
H52 H 0.7126 0.3728 0.4050
C50 C 0.7466(6) 0.2517(5) 0.4782(4)
H53 H 0.6503 0.2455 0.4903
C51 C 0.8533(8) 0.1847(5) 0.5113(4)
H54 H 0.8283 0.1337 0.5455
C52 C 0.9974(7) 0.1940(5) 0.4932(4)
H55 H 1.0688 0.1491 0.5153
C53 C 1.0347(5) 0.2702(5) 0.4420(4)
C54 C 0.9280(6) 0.3372(4) 0.4090(3)
C55 C 1.1844(13) 0.2710(9) 0.4388(7)
H56 H 1.2437 0.2229 0.4665
C56 C 1.3949(11) 0.3268(9) 0.3957(6)
H57 H 1.4262 0.2654 0.4240
H58 H 1.4314 0.3771 0.4219
C57 C 1.4581(13) 0.3291(7) 0.3201(6)
H59 H 1.5624 0.3220 0.3236
H60 H 1.4285 0.2765 0.2941
C58 C 1.5062(14) 0.4752(5) 0.2593(6)
H61 H 1.6004 0.4508 0.2711
C59 C 1.4856(7) 0.5779(4) 0.2189(3)
C60 C 1.6072(7) 0.6284(5) 0.2135(4)
H62 H 1.6930 0.6007 0.2361
C61 C 1.6007(8) 0.7203(5) 0.1745(5)
H63 H 1.6821 0.7541 0.1710
C62 C 1.4725(9) 0.7616(4) 0.1409(4)
H64 H 1.4681 0.8231 0.1148
C63 C 1.3508(8) 0.7111(5) 0.1462(4)
H65 H 1.2650 0.7388 0.1237
C64 C 1.3574(6) 0.6192(5) 0.1852(4)
C65 C -0.1796(6) 0.3905(4) 1.1649(3)
H66 H -0.1900 0.3886 1.2177
C66 C -0.2774(7) 0.3493(5) 1.1224(3)
H67 H -0.3533 0.3198 1.1469
C67 C -0.2618(8) 0.3521(6) 1.0435(3)
H68 H -0.3272 0.3245 1.0151
C68 C -0.1483(8) 0.3961(6) 1.0070(3)
H69 H -0.1379 0.3980 0.9541
C69 C -0.0505(7) 0.4373(6) 1.0494(3)
C70 C -0.0662(6) 0.4345(5) 1.1284(3)
C71 C 0.0546(11) 0.4875(8) 1.0118(6)
H70 H 0.0554 0.4919 0.9586
C72 C 0.2659(8) 0.5728(7) 0.9995(5)
H71 H 0.2741 0.6378 1.0125
H72 H 0.2408 0.5765 0.9459
C73 C 0.4039(12) 0.5141(10) 1.0130(7)
H73 H 0.4233 0.5037 1.0675
H74 H 0.3994 0.4517 0.9942
C74 C 0.6082(13) 0.6040(9) 1.0050(7)
H75 H 0.6010 0.6074 1.0575
C75 C 0.7174(6) 0.6443(5) 0.9664(3)
C76 C 0.8126(7) 0.6839(5) 1.0116(3)
H76 H 0.8018 0.6777 1.0645
C77 C 0.9239(7) 0.7327(6) 0.9777(4)
H77 H 0.9876 0.7592 1.0079
C78 C 0.9401(7) 0.7420(6) 0.8986(4)
H78 H 1.0146 0.7746 0.8759
C79 C 0.8450(7) 0.7024(6) 0.8534(3)
H79 H 0.8558 0.7086 0.8005
C80 C 0.7336(7) 0.6536(5) 0.8873(3)
C81 C 0.2646(7) -0.0046(5) 0.4010(3)
H80 H 0.2325 0.0038 0.4504
C82 C 0.1886(7) -0.0569(6) 0.3550(4)
H81 H 0.1057 -0.0834 0.3736
C83 C 0.2366(8) -0.0695(6) 0.2811(4)
H82 H 0.1858 -0.1045 0.2503
C84 C 0.3606(8) -0.0299(6) 0.2532(3)
H83 H 0.3927 -0.0384 0.2038
C85 C 0.4365(7) 0.0224(6) 0.2992(4)
C86 C 0.3885(7) 0.0350(6) 0.3731(4)
C87 C 0.5592(12) 0.0640(8) 0.2708(6)
H84 H 0.5877 0.0580 0.2205
C88 C 0.7505(11) 0.1536(8) 0.2709(6)
H85 H 0.7334 0.2232 0.2702
H86 H 0.7547 0.1381 0.2183
C89 C 0.8869(12) 0.1210(10) 0.3076(7)
H87 H 0.8839 0.1358 0.3603
H88 H 0.9069 0.0518 0.3071
C90 C 1.0515(13) 0.1297(10) 0.2133(7)
H89 H 1.0292 0.0689 0.2034
C91 C 1.1578(7) 0.1814(5) 0.1641(4)
C92 C 1.2148(8) 0.1328(5) 0.1037(4)
H90 H 1.1785 0.0761 0.0930
C93 C 1.3258(9) 0.1691(6) 0.0593(4)
H91 H 1.3639 0.1366 0.0189
C94 C 1.3800(8) 0.2539(6) 0.0753(5)
H92 H 1.4543 0.2782 0.0456
C95 C 1.3230(8) 0.3024(5) 0.1357(5)
H93 H 1.3592 0.3592 0.1464
C96 C 1.2119(8) 0.2662(5) 0.1801(4)
C97 C 0.2995(6) 0.3895(3) 0.6236(3)
C99 C 1.2532(12) 0.6691(8) 0.3742(6)
H94 H 1.2929 0.6853 0.4208
H95 H 1.1584 0.7020 0.3669
H96 H 1.3139 0.6885 0.3319
Er2_2 Er 0.14506(3) 0.46363(3) 1.28180(2)
O16_2 O 1.0205(7) 0.4697(5) 0.1727(4)
H6_2 H 1.0950 0.4805 0.1493
S2 S 0.9315(4) 0.0346(3) -0.02281(19)
F4 F 0.8039(9) 0.0903(6) 0.0999(4)
F5 F 0.6601(8) 0.1120(5) -0.0118(4)
F6 F 0.7149(11) -0.0228(7) 0.0566(5)
O6 O 0.9697(10) 0.1299(7) -0.0384(6)
O7 O 0.8797(14) -0.0137(10) -0.0808(7)
O8 O 1.0022(12) -0.0341(8) 0.0237(6)
C98 C 0.7599(9) 0.0480(11) 0.0299(7)
loop_
_geom_bond_atom_site_label_1
_geom_bond_atom_site_label_2
_geom_bond_site_symmetry_1
_geom_bond_site_symmetry_2
Er1 O1 1_555 1_555
Er2 O9 1_555 1_555
S1 O3 1_555 1_555
S2 O6 1_555 1_555
F1 C97 1_555 1_555
F2 C97 1_555 1_555
F3 C97 1_555 1_555
F4 C98 1_555 1_555
F5 C98 1_555 1_555
F6 C98 1_555 1_555
O1 H1 1_555 1_555
O2 H2 1_555 1_555
O3 Er1 1_555 1_555
O4 S1 1_555 1_555
O5 S1 1_555 1_555
O7 S2 1_555 1_555
O8 S2 1_555 1_555
O9 H3 1_555 1_555
O10 Er1 1_555 1_555
O11 Er1 1_555 1_555
O12 Er1 1_555 1_555
H4 O12 1_555 1_555
O13 Er2 1_555 1_555
H5 O13 1_555 1_555
O14 Er2 1_555 1_555
O15 Er2 1_555 1_555
O16 H6 1_555 1_555
O17 Er1 1_555 1_555
H7 O17 1_555 1_555
O18 H8 1_555 1_555
O19 Er2 1_555 1_555
H9 O19 1_555 1_555
N1 C7 1_555 1_555
N2 C9 1_555 1_555
N3 Er1 1_555 1_555
N4 Er1 1_555 1_555
N5 C39 1_555 1_555
N6 C41 1_555 1_555
N7 Er2 1_555 1_555
N8 Er2 1_555 1_555
N9 C71 1_555 1_555
N10 C73 1_555 1_555
N11 C87 1_555 1_555
N12 C89 1_555 1_555
C1 H10 1_555 1_555
C2 C1 1_555 1_555
H11 C2 1_555 1_555
C3 C2 1_555 1_555
H12 C3 1_555 1_555
C4 C3 1_555 1_555
H13 C4 1_555 1_555
C5 C4 1_555 1_555
C6 O1 1_555 1_555
C7 C5 1_555 1_555
H14 C7 1_555 1_555
C8 N1 1_555 1_555
H15 C8 1_555 1_555
H16 C8 1_555 1_555
C9 C8 1_555 1_555
H17 C9 1_555 1_555
H18 C9 1_555 1_555
C10 N2 1_555 1_555
H19 C10 1_555 1_555
C11 C10 1_555 1_555
C12 C11 1_555 1_555
H20 C12 1_555 1_555
C13 C12 1_555 1_555
H21 C13 1_555 1_555
C14 C13 1_555 1_555
H22 C14 1_555 1_555
C15 C14 1_555 1_555
H23 C15 1_555 1_555
C16 O2 1_555 1_555
C17 H24 1_555 1_555
C18 C17 1_555 1_555
H25 C18 1_555 1_555
C19 C18 1_555 1_555
H26 C19 1_555 1_555
C20 C19 1_555 1_555
H27 C20 1_555 1_555
C21 C20 1_555 1_555
C22 O10 1_555 1_555
C23 N3 1_555 1_555
H28 C23 1_555 1_555
C24 N3 1_555 1_555
H29 C24 1_555 1_555
H30 C24 1_555 1_555
C25 N4 1_555 1_555
H31 C25 1_555 1_555
H32 C25 1_555 1_555
C26 N4 1_555 1_555
H33 C26 1_555 1_555
C27 C26 1_555 1_555
C28 C27 1_555 1_555
H34 C28 1_555 1_555
C29 C28 1_555 1_555
H35 C29 1_555 1_555
C30 C29 1_555 1_555
H36 C30 1_555 1_555
C31 C30 1_555 1_555
H37 C31 1_555 1_555
C32 O11 1_555 1_555
C33 H38 1_555 1_555
C34 C33 1_555 1_555
H39 C34 1_555 1_555
C35 C34 1_555 1_555
H40 C35 1_555 1_555
C36 C35 1_555 1_555
H41 C36 1_555 1_555
C37 C36 1_555 1_555
C38 O12 1_555 1_555
C39 C37 1_555 1_555
H42 C39 1_555 1_555
C40 N5 1_555 1_555
H43 C40 1_555 1_555
H44 C40 1_555 1_555
C41 C40 1_555 1_555
H45 C41 1_555 1_555
H46 C41 1_555 1_555
C42 N6 1_555 1_555
H47 C42 1_555 1_555
C43 C42 1_555 1_555
C44 C43 1_555 1_555
H48 C44 1_555 1_555
C45 C44 1_555 1_555
H49 C45 1_555 1_555
C46 C45 1_555 1_555
H50 C46 1_555 1_555
C47 C46 1_555 1_555
H51 C47 1_555 1_555
C48 O13 1_555 1_555
C49 H52 1_555 1_555
C50 C49 1_555 1_555
H53 C50 1_555 1_555
C51 C50 1_555 1_555
H54 C51 1_555 1_555
C52 C51 1_555 1_555
H55 C52 1_555 1_555
C53 C52 1_555 1_555
C54 O14 1_555 1_555
C55 N7 1_555 1_555
H56 C55 1_555 1_555
C56 N7 1_555 1_555
H57 C56 1_555 1_555
H58 C56 1_555 1_555
C57 N8 1_555 1_555
H59 C57 1_555 1_555
H60 C57 1_555 1_555
C58 N8 1_555 1_555
H61 C58 1_555 1_555
C59 C58 1_555 1_555
C60 C59 1_555 1_555
H62 C60 1_555 1_555
C61 C60 1_555 1_555
H63 C61 1_555 1_555
C62 C61 1_555 1_555
H64 C62 1_555 1_555
C63 C62 1_555 1_555
H65 C63 1_555 1_555
C64 O15 1_555 1_555
C65 H66 1_555 1_555
C66 C65 1_555 1_555
H67 C66 1_555 1_555
C67 C66 1_555 1_555
H68 C67 1_555 1_555
C68 C67 1_555 1_555
H69 C68 1_555 1_555
C69 C68 1_555 1_555
C70 O16 1_555 1_555
C71 C69 1_555 1_555
H70 C71 1_555 1_555
C72 N9 1_555 1_555
H71 C72 1_555 1_555
H72 C72 1_555 1_555
C73 C72 1_555 1_555
H73 C73 1_555 1_555
H74 C73 1_555 1_555
C74 N10 1_555 1_555
H75 C74 1_555 1_555
C75 C74 1_555 1_555
C76 C75 1_555 1_555
H76 C76 1_555 1_555
C77 C76 1_555 1_555
H77 C77 1_555 1_555
C78 C77 1_555 1_555
H78 C78 1_555 1_555
C79 C78 1_555 1_555
H79 C79 1_555 1_555
C80 O17 1_555 1_555
C81 H80 1_555 1_555
C82 C81 1_555 1_555
H81 C82 1_555 1_555
C83 C82 1_555 1_555
H82 C83 1_555 1_555
C84 C83 1_555 1_555
H83 C84 1_555 1_555
C85 C84 1_555 1_555
C86 O18 1_555 1_555
C87 C85 1_555 1_555
H84 C87 1_555 1_555
C88 N11 1_555 1_555
H85 C88 1_555 1_555
H86 C88 1_555 1_555
C89 C88 1_555 1_555
H87 C89 1_555 1_555
H88 C89 1_555 1_555
C90 N12 1_555 1_555
H89 C90 1_555 1_555
C91 C90 1_555 1_555
C92 C91 1_555 1_555
H90 C92 1_555 1_555
C93 C92 1_555 1_555
H91 C93 1_555 1_555
C94 C93 1_555 1_555
H92 C94 1_555 1_555
C95 C94 1_555 1_555
H93 C95 1_555 1_555
C96 O19 1_555 1_555
C97 S1 1_555 1_555
C98 S2 1_555 1_555
C99 O9 1_555 1_555
H94 C99 1_555 1_555
H95 C99 1_555 1_555
H96 C99 1_555 1_555
Er2_2 O16 1_555 1_555
O16_2 Er2 1_555 1_555
H6_2 O16_2 1_555 1_555
C1 C6 1_555 1_555
C5 C6 1_555 1_555
C11 C16 1_555 1_555
C15 C16 1_555 1_555
C17 C22 1_555 1_555
C21 C22 1_555 1_555
C21 C23 1_555 1_555
C24 C25 1_555 1_555
C27 C32 1_555 1_555
C31 C32 1_555 1_555
C33 C38 1_555 1_555
C37 C38 1_555 1_555
C43 C48 1_555 1_555
C47 C48 1_555 1_555
C49 C54 1_555 1_555
C53 C54 1_555 1_555
C53 C55 1_555 1_555
C56 C57 1_555 1_555
C59 C64 1_555 1_555
C63 C64 1_555 1_555
C65 C70 1_555 1_555
C69 C70 1_555 1_555
C75 C80 1_555 1_555
C79 C80 1_555 1_555
C81 C86 1_555 1_555
C85 C86 1_555 1_555
C91 C96 1_555 1_555
C95 C96 1_555 1_555

#END
