
#######################################################################
#
#                 Cambridge Crystallographic Data Centre
#                                CCDC 
#
#######################################################################
#
# If this CIF has been generated from an entry in the Cambridge 
# Structural Database, then it will include bibliographic, chemical, 
# crystal, experimental, refinement or atomic coordinate data resulting 
# from the CCDC's data processing and validation procedures.
#
#######################################################################

data_OHIDIT
_symmetry_cell_setting           orthorhombic
_symmetry_space_group_name_H-M   'P b c a'
_symmetry_Int_Tables_number      61
_space_group_name_Hall           '-P 2ac 2ab'
loop_
_symmetry_equiv_pos_site_id
_symmetry_equiv_pos_as_xyz
1 x,y,z
2 1/2-x,-y,1/2+z
3 -x,1/2+y,1/2-z
4 1/2+x,1/2-y,-z
5 -x,-y,-z
6 1/2+x,y,1/2-z
7 x,1/2-y,1/2+z
8 1/2-x,1/2+y,z
_cell_length_a                   17.117(3)
_cell_length_b                   20.590(4)
_cell_length_c                   22.583(5)
_cell_angle_alpha                90
_cell_angle_beta                 90
_cell_angle_gamma                90
_cell_volume                     7959.13
loop_
_atom_site_label
_atom_site_type_symbol
_atom_site_fract_x
_atom_site_fract_y
_atom_site_fract_z
Yb1 Yb 0.12001(2) 0.689214(16) 0.588598(15)
Yb2 Yb -0.16496(2) 0.845630(16) 0.466120(15)
N1 N 0.0262(4) 0.7368(3) 0.6644(3)
N2 N 0.1403(4) 0.8107(3) 0.6048(3)
N3 N -0.0709(4) 0.9088(3) 0.5312(3)
N4 N -0.0328(4) 0.8556(3) 0.4202(3)
O1 O 0.0572(3) 0.6080(2) 0.6312(2)
O2 O 0.2194(3) 0.7246(2) 0.5251(2)
O3 O 0.0191(3) 0.7329(2) 0.5345(2)
O4 O -0.0988(3) 0.7631(3) 0.5074(2)
O5 O 0.2270(3) 0.6106(2) 0.5912(2)
O6 O 0.3269(3) 0.5444(2) 0.5791(2)
O7 O 0.2040(3) 0.7090(3) 0.6738(2)
H1 H 0.2474 0.7102 0.6585
O8 O 0.1162(3) 0.6175(2) 0.4994(2)
H2 H 0.1602 0.6220 0.4857
O9 O -0.2350(3) 0.8885(3) 0.5427(2)
O10 O -0.1609(3) 0.7860(2) 0.3780(2)
C1 C 0.0161(4) 0.5926(4) 0.6787(3)
C2 C 0.0078(5) 0.5273(4) 0.6953(4)
H3 H 0.0289 0.4952 0.6712
C3 C -0.0309(4) 0.5092(4) 0.7464(4)
H4 H -0.0324 0.4657 0.7573
C4 C -0.0676(5) 0.5554(4) 0.7817(4)
H5 H -0.0946 0.5434 0.8157
C5 C -0.0629(5) 0.6200(4) 0.7646(4)
H6 H -0.0889 0.6511 0.7870
C6 C -0.0206(5) 0.6398(4) 0.7154(3)
C7 C -0.0161(5) 0.7091(4) 0.7038(4)
H7 H -0.0469 0.7360 0.7273
C8 C 0.0221(5) 0.8085(4) 0.6621(4)
H8 H -0.0039 0.8248 0.6973
H9 H -0.0079 0.8220 0.6278
C9 C 0.1036(5) 0.8359(4) 0.6585(4)
H10 H 0.1016 0.8830 0.6572
H11 H 0.1335 0.8231 0.6931
C10 C 0.1724(4) 0.8527(4) 0.5702(4)
H12 H 0.1741 0.8955 0.5835
C11 C 0.2060(4) 0.8398(4) 0.5128(4)
C12 C 0.2174(5) 0.8953(4) 0.4756(4)
H13 H 0.2074 0.9367 0.4903
C13 C 0.2432(5) 0.8877(5) 0.4182(4)
H14 H 0.2506 0.9240 0.3943
C14 C 0.2580(5) 0.8261(5) 0.3958(4)
H15 H 0.2746 0.8212 0.3568
C15 C 0.2480(5) 0.7725(4) 0.4313(4)
H16 H 0.2580 0.7316 0.4156
C16 C 0.2232(4) 0.7773(4) 0.4907(3)
C17 C -0.0487(5) 0.7203(4) 0.5164(3)
C18 C -0.0704(5) 0.6514(4) 0.5036(4)
H17 H -0.1237 0.6496 0.4903
H18 H -0.0648 0.6259 0.5389
H19 H -0.0368 0.6345 0.4733
C19 C 0.2584(4) 0.5544(4) 0.5981(3)
C20 C 0.2142(5) 0.5011(4) 0.6278(4)
H20 H 0.2350 0.4941 0.6668
H21 H 0.2191 0.4619 0.6050
H22 H 0.1601 0.5129 0.6307
C21 C 0.2071(6) 0.6703(5) 0.7269(4)
H23 H 0.2453 0.6883 0.7534
H24 H 0.2213 0.6266 0.7170
H25 H 0.1568 0.6705 0.7457
C22 C 0.0946(5) 0.5503(4) 0.4974(4)
H26 H 0.0986 0.5348 0.4575
H27 H 0.0417 0.5455 0.5110
H28 H 0.1289 0.5257 0.5225
C23 C -0.2276(5) 0.9179(4) 0.5939(3)
C24 C -0.2913(5) 0.9271(4) 0.6320(4)
H29 H -0.3398 0.9109 0.6208
C25 C -0.2854(6) 0.9586(5) 0.6847(4)
H30 H -0.3294 0.9632 0.7086
C26 C -0.2141(6) 0.9842(5) 0.7035(4)
H31 H -0.2102 1.0070 0.7389
C27 C -0.1503(6) 0.9748(4) 0.6686(4)
H32 H -0.1023 0.9907 0.6813
C28 C -0.1541(5) 0.9423(4) 0.6148(3)
C29 C -0.0813(4) 0.9351(3) 0.5815(3)
H33 H -0.0369 0.9520 0.5994
C30 C 0.0091(5) 0.9076(4) 0.5094(4)
H34 H 0.0344 0.8678 0.5223
H35 H 0.0378 0.9439 0.5259
C31 C 0.0110(5) 0.9113(4) 0.4420(4)
H36 H -0.0128 0.9514 0.4285
H37 H 0.0644 0.9098 0.4278
C32 C 0.0057(5) 0.8114(4) 0.3936(4)
H38 H 0.0592 0.8176 0.3895
C33 C -0.0271(4) 0.7525(4) 0.3691(3)
C34 C 0.0252(5) 0.7044(4) 0.3501(4)
H39 H 0.0786 0.7112 0.3548
C35 C -0.0001(5) 0.6478(4) 0.3250(4)
H40 H 0.0354 0.6154 0.3149
C36 C -0.0802(5) 0.6392(4) 0.3145(4)
H41 H -0.0976 0.6018 0.2956
C37 C -0.1337(5) 0.6859(4) 0.3323(4)
H42 H -0.1866 0.6795 0.3249
C38 C -0.1089(5) 0.7427(4) 0.3612(3)
Yb2C Yb 0.33504(2) 0.654370(16) 0.533880(15)
O2C O -0.2806(3) 0.7754(2) 0.4749(2)
O5C O -0.2730(3) 0.8894(2) 0.4088(2)
O6C O -0.1731(3) 0.9556(2) 0.4209(2)
loop_
_geom_bond_atom_site_label_1
_geom_bond_atom_site_label_2
_geom_bond_site_symmetry_1
_geom_bond_site_symmetry_2
Yb1 N1 1_555 1_555
Yb2 N3 1_555 1_555
N1 C7 1_555 1_555
N2 Yb1 1_555 1_555
N3 C29 1_555 1_555
N4 Yb2 1_555 1_555
O1 Yb1 1_555 1_555
O2 Yb1 1_555 1_555
O3 Yb1 1_555 1_555
O4 Yb2 1_555 1_555
O5 Yb1 1_555 1_555
O6 C19 1_555 1_555
O7 Yb1 1_555 1_555
H1 O7 1_555 1_555
O8 Yb1 1_555 1_555
H2 O8 1_555 1_555
O9 Yb2 1_555 1_555
O10 Yb2 1_555 1_555
C1 O1 1_555 1_555
C2 C1 1_555 1_555
H3 C2 1_555 1_555
C3 C2 1_555 1_555
H4 C3 1_555 1_555
C4 C3 1_555 1_555
H5 C4 1_555 1_555
C5 C4 1_555 1_555
H6 C5 1_555 1_555
C6 C1 1_555 1_555
C7 C6 1_555 1_555
H7 C7 1_555 1_555
C8 N1 1_555 1_555
H8 C8 1_555 1_555
H9 C8 1_555 1_555
C9 N2 1_555 1_555
H10 C9 1_555 1_555
H11 C9 1_555 1_555
C10 N2 1_555 1_555
H12 C10 1_555 1_555
C11 C10 1_555 1_555
C12 C11 1_555 1_555
H13 C12 1_555 1_555
C13 C12 1_555 1_555
H14 C13 1_555 1_555
C14 C13 1_555 1_555
H15 C14 1_555 1_555
C15 C14 1_555 1_555
H16 C15 1_555 1_555
C16 O2 1_555 1_555
C17 O3 1_555 1_555
C18 C17 1_555 1_555
H17 C18 1_555 1_555
H18 C18 1_555 1_555
H19 C18 1_555 1_555
C19 O5 1_555 1_555
C20 C19 1_555 1_555
H20 C20 1_555 1_555
H21 C20 1_555 1_555
H22 C20 1_555 1_555
C21 O7 1_555 1_555
H23 C21 1_555 1_555
H24 C21 1_555 1_555
H25 C21 1_555 1_555
C22 O8 1_555 1_555
H26 C22 1_555 1_555
H27 C22 1_555 1_555
H28 C22 1_555 1_555
C23 O9 1_555 1_555
C24 C23 1_555 1_555
H29 C24 1_555 1_555
C25 C24 1_555 1_555
H30 C25 1_555 1_555
C26 C25 1_555 1_555
H31 C26 1_555 1_555
C27 C26 1_555 1_555
H32 C27 1_555 1_555
C28 C23 1_555 1_555
C29 C28 1_555 1_555
H33 C29 1_555 1_555
C30 N3 1_555 1_555
H34 C30 1_555 1_555
H35 C30 1_555 1_555
C31 N4 1_555 1_555
H36 C31 1_555 1_555
H37 C31 1_555 1_555
C32 N4 1_555 1_555
H38 C32 1_555 1_555
C33 C32 1_555 1_555
C34 C33 1_555 1_555
H39 C34 1_555 1_555
C35 C34 1_555 1_555
H40 C35 1_555 1_555
C36 C35 1_555 1_555
H41 C36 1_555 1_555
C37 C36 1_555 1_555
H42 C37 1_555 1_555
C38 O10 1_555 1_555
Yb2C O2 1_555 1_555
O2C Yb2 1_555 1_555
O5C Yb2 1_555 1_555
O6C Yb2 1_555 1_555
O4 C17 1_555 1_555
O5 Yb2C 1_555 1_555
O6 Yb2C 1_555 1_555
C5 C6 1_555 1_555
C8 C9 1_555 1_555
C11 C16 1_555 1_555
C15 C16 1_555 1_555
C27 C28 1_555 1_555
C30 C31 1_555 1_555
C33 C38 1_555 1_555
C37 C38 1_555 1_555

#END
