
#######################################################################
#
#                 Cambridge Crystallographic Data Centre
#                                CCDC 
#
#######################################################################
#
# If this CIF has been generated from an entry in the Cambridge 
# Structural Database, then it will include bibliographic, chemical, 
# crystal, experimental, refinement or atomic coordinate data resulting 
# from the CCDC's data processing and validation procedures.
#
#######################################################################

data_OHIJEU
_symmetry_cell_setting           monoclinic
_symmetry_space_group_name_H-M   'C 2/c'
_symmetry_Int_Tables_number      15
_space_group_name_Hall           '-C 2yn'
loop_
_symmetry_equiv_pos_site_id
_symmetry_equiv_pos_as_xyz
1 x,y,z
2 1/2+x,1/2+y,z
3 x,-y,1/2+z
4 1/2+x,1/2-y,1/2+z
5 -x,-y,-z
6 1/2-x,1/2-y,-z
7 -x,y,1/2-z
8 1/2-x,1/2+y,1/2-z
_cell_length_a                   32.4150(5)
_cell_length_b                   18.8240(7)
_cell_length_c                   20.4850(8)
_cell_angle_alpha                90.00
_cell_angle_beta                 127.8221(13)
_cell_angle_gamma                90.00
_cell_volume                     9873.62
loop_
_atom_site_label
_atom_site_type_symbol
_atom_site_fract_x
_atom_site_fract_y
_atom_site_fract_z
C43 C 0.3861(19) 0.393(3) 0.567(3)
C44 C 0.352(2) 0.432(3) 0.572(4)
C45 C 0.299(2) 0.444(3) 0.513(4)
C46 C 0.276(3) 0.413(4) 0.435(4)
C47 C 0.295(2) 0.368(3) 0.408(3)
C48 C 0.342(2) 0.384(3) 0.486(3)
O3 O 0.419(4) 0.574(5) 0.579(6)
C56 C 0.385(5) 0.553(7) 0.501(6)
Co1 Co 0.63273(5) 0.18509(6) 0.60497(8)
Co2 Co 0.80219(5) 0.39272(7) 0.79881(9)
Co3 Co 0.5000 0.23829(11) 0.2500
Cl1 Cl 0.81342(12) 0.37557(18) 0.91762(18)
Cl2 Cl 0.56216(13) 0.3053(2) 0.26287(19)
O1 O 0.8715(2) 0.3513(4) 0.8083(3)
N1 N 0.5764(3) 0.2546(4) 0.5471(5)
N2 N 0.6049(3) 0.1590(4) 0.4940(4)
N3 N 0.5098(3) 0.2994(5) 0.4264(6)
H1 H 0.475(3) 0.322(5) 0.361(3)
N4 N 0.5435(3) 0.1800(4) 0.3554(5)
N5 N 0.6801(3) 0.2567(4) 0.6174(5)
N6 N 0.6592(3) 0.2183(4) 0.7134(5)
N7 N 0.7428(3) 0.3382(4) 0.7007(5)
N8 N 0.7122(3) 0.2914(4) 0.8181(5)
H2 H 0.750(2) 0.327(5) 0.858(5)
N9 N 0.5905(3) 0.1117(4) 0.6035(4)
N10 N 0.5868(3) 0.0009(4) 0.6386(5)
H3 H 0.600(4) -0.045(3) 0.651(6)
N11 N 0.7065(3) -0.0003(4) 0.7080(5)
N12 N 0.6859(3) 0.1118(4) 0.6575(4)
C1 C 0.5485(4) 0.2503(5) 0.4659(6)
C2 C 0.5633(3) 0.1974(5) 0.4345(6)
C3 C 0.5560(4) 0.3113(5) 0.5630(6)
C4 C 0.5701(4) 0.3409(6) 0.6366(7)
H4 H 0.5980 0.3233 0.6878
C5 C 0.5406(5) 0.3976(7) 0.6296(8)
H5 H 0.5493 0.4189 0.6776
C6 C 0.4986(5) 0.4240(8) 0.5543(9)
H6 H 0.4795 0.4618 0.5527
C7 C 0.4846(5) 0.3954(7) 0.4822(9)
H7 H 0.4565 0.4130 0.4312
C8 C 0.5144(4) 0.3388(6) 0.4884(7)
C9 C 0.6133(3) 0.1116(5) 0.4510(6)
C10 C 0.6508(4) 0.0573(5) 0.4790(6)
H8 H 0.6761 0.0483 0.5350
C11 C 0.6482(4) 0.0186(5) 0.4202(6)
H9 H 0.6723 -0.0177 0.4364
C12 C 0.6101(4) 0.0327(6) 0.3362(7)
H10 H 0.6097 0.0053 0.2980
C13 C 0.5731(4) 0.0852(6) 0.3075(7)
H11 H 0.5479 0.0935 0.2512
C14 C 0.5753(4) 0.1249(5) 0.3663(6)
C15 C 0.7080(3) 0.2888(5) 0.6900(6)
C16 C 0.6960(4) 0.2669(5) 0.7438(6)
C17 C 0.6949(4) 0.2869(5) 0.5732(6)
C18 C 0.6792(4) 0.2747(5) 0.4947(6)
H12 H 0.6539 0.2408 0.4606
C19 C 0.7025(4) 0.3149(6) 0.4679(7)
H13 H 0.6917 0.3091 0.4144
C20 C 0.7418(5) 0.3638(7) 0.5208(8)
H14 H 0.7573 0.3891 0.5019
C21 C 0.7583(4) 0.3759(6) 0.5999(7)
H15 H 0.7846 0.4085 0.6346
C22 C 0.7337(4) 0.3369(5) 0.6258(6)
C23 C 0.6509(4) 0.2081(5) 0.7719(6)
C24 C 0.6165(4) 0.1641(6) 0.7731(7)
H16 H 0.5939 0.1329 0.7301
C25 C 0.6182(5) 0.1697(6) 0.8426(8)
H17 H 0.5962 0.1413 0.8461
C26 C 0.6519(5) 0.2165(7) 0.9071(8)
H18 H 0.6512 0.2187 0.9518
C27 C 0.6856(4) 0.2592(6) 0.9070(7)
H19 H 0.7083 0.2897 0.9507
C28 C 0.6844(4) 0.2548(5) 0.8380(6)
C29 C 0.6166(3) 0.0508(5) 0.6382(6)
C30 C 0.5406(4) 0.1005(5) 0.5801(6)
C31 C 0.4980(4) 0.1461(5) 0.5445(6)
H20 H 0.4992 0.1927 0.5304
C32 C 0.4538(4) 0.1181(6) 0.5312(7)
H21 H 0.4242 0.1464 0.5064
C33 C 0.4526(4) 0.0483(6) 0.5543(7)
H22 H 0.4225 0.0319 0.5457
C34 C 0.4946(4) 0.0037(6) 0.5893(6)
H23 H 0.4935 -0.0425 0.6041
C35 C 0.5388(3) 0.0301(5) 0.6017(6)
C36 C 0.6696(3) 0.0501(5) 0.6684(6)
C37 C 0.7503(4) 0.0319(5) 0.7236(6)
C38 C 0.8002(5) 0.0029(6) 0.7612(7)
H24 H 0.8083 -0.0435 0.7808
C39 C 0.8363(5) 0.0468(7) 0.7674(8)
H25 H 0.8698 0.0296 0.7927
C40 C 0.8248(5) 0.1147(6) 0.7379(7)
H26 H 0.8507 0.1424 0.7442
C41 C 0.7757(4) 0.1435(5) 0.6991(6)
H27 H 0.7679 0.1894 0.6778
C42 C 0.7378(4) 0.1008(5) 0.6929(6)
Cl2F Cl 0.43784(13) 0.3053(2) 0.23713(19)
N1F N 0.4236(3) 0.2546(4) -0.0471(5)
N2F N 0.3951(3) 0.1590(4) 0.0060(4)
N3F N 0.4902(3) 0.2994(5) 0.0736(6)
H1F H 0.525(3) 0.322(5) 0.139(3)
N4F N 0.4565(3) 0.1800(4) 0.1446(5)
C1F C 0.4515(4) 0.2503(5) 0.0341(6)
C2F C 0.4367(3) 0.1974(5) 0.0655(6)
C3F C 0.4440(4) 0.3113(5) -0.0630(6)
C4F C 0.4299(4) 0.3409(6) -0.1366(7)
H4F H 0.4020 0.3233 -0.1878
C5F C 0.4594(5) 0.3976(7) -0.1296(8)
H5F H 0.4507 0.4189 -0.1776
C6F C 0.5014(5) 0.4240(8) -0.0543(9)
H6F H 0.5205 0.4618 -0.0527
C7F C 0.5154(5) 0.3954(7) 0.0178(9)
H7F H 0.5435 0.4130 0.0688
C8F C 0.4856(4) 0.3388(6) 0.0116(7)
C9F C 0.3867(3) 0.1116(5) 0.0490(6)
C10F C 0.3492(4) 0.0573(5) 0.0210(6)
H8F H 0.3239 0.0483 -0.0350
C11F C 0.3518(4) 0.0186(5) 0.0798(6)
H9F H 0.3277 -0.0177 0.0636
C12F C 0.3899(4) 0.0327(6) 0.1638(7)
H10F H 0.3903 0.0053 0.2020
C13F C 0.4269(4) 0.0852(6) 0.1925(7)
H11F H 0.4521 0.0935 0.2488
C14F C 0.4247(4) 0.1249(5) 0.1337(6)
Co1F Co 0.36727(5) 0.18509(6) -0.10497(8)
N5F N 0.3199(3) 0.2567(4) -0.1174(5)
N6F N 0.3408(3) 0.2183(4) -0.2134(5)
N7F N 0.2572(3) 0.3382(4) -0.2007(5)
N8F N 0.2878(3) 0.2914(4) -0.3181(5)
H2F H 0.250(2) 0.327(5) -0.358(5)
C15F C 0.2920(3) 0.2888(5) -0.1900(6)
C16F C 0.3040(4) 0.2669(5) -0.2438(6)
C17F C 0.3051(4) 0.2869(5) -0.0732(6)
C18F C 0.3208(4) 0.2747(5) 0.0053(6)
H12F H 0.3461 0.2408 0.0394
C19F C 0.2975(4) 0.3149(6) 0.0321(7)
H13F H 0.3083 0.3091 0.0856
C20F C 0.2582(5) 0.3638(7) -0.0208(8)
H14F H 0.2427 0.3891 -0.0019
C21F C 0.2417(4) 0.3759(6) -0.0999(7)
H15F H 0.2154 0.4085 -0.1346
C22F C 0.2663(4) 0.3369(5) -0.1258(6)
C23F C 0.3491(4) 0.2081(5) -0.2719(6)
C24F C 0.3835(4) 0.1641(6) -0.2731(7)
H16F H 0.4061 0.1329 -0.2301
C25F C 0.3818(5) 0.1697(6) -0.3426(8)
H17F H 0.4038 0.1413 -0.3461
C26F C 0.3481(5) 0.2165(7) -0.4071(8)
H18F H 0.3488 0.2187 -0.4518
C27F C 0.3144(4) 0.2592(6) -0.4070(7)
H19F H 0.2917 0.2897 -0.4507
C28F C 0.3156(4) 0.2548(5) -0.3380(6)
N9F N 0.4095(3) 0.1117(4) -0.1035(4)
N10F N 0.4132(3) 0.0009(4) -0.1386(5)
H3F H 0.400(4) -0.045(3) -0.151(6)
N11F N 0.2935(3) -0.0003(4) -0.2080(5)
N12F N 0.3141(3) 0.1118(4) -0.1575(4)
C29F C 0.3834(3) 0.0508(5) -0.1382(6)
C30F C 0.4594(4) 0.1005(5) -0.0801(6)
C31F C 0.5020(4) 0.1461(5) -0.0445(6)
H20F H 0.5008 0.1927 -0.0304
C32F C 0.5462(4) 0.1181(6) -0.0312(7)
H21F H 0.5758 0.1464 -0.0064
C33F C 0.5474(4) 0.0483(6) -0.0543(7)
H22F H 0.5775 0.0319 -0.0457
C34F C 0.5054(4) 0.0037(6) -0.0893(6)
H23F H 0.5065 -0.0425 -0.1041
C35F C 0.4612(3) 0.0301(5) -0.1017(6)
C36F C 0.3304(3) 0.0501(5) -0.1684(6)
C37F C 0.2497(4) 0.0319(5) -0.2236(6)
C38F C 0.1998(5) 0.0029(6) -0.2612(7)
H24F H 0.1917 -0.0435 -0.2808
C39F C 0.1637(5) 0.0468(7) -0.2674(8)
H25F H 0.1302 0.0296 -0.2927
C40F C 0.1752(5) 0.1147(6) -0.2379(7)
H26F H 0.1493 0.1424 -0.2442
C41F C 0.2243(4) 0.1435(5) -0.1991(6)
H27F H 0.2321 0.1894 -0.1778
C42F C 0.2622(4) 0.1008(5) -0.1929(6)
Co2F Co 0.19781(5) 0.39272(7) -0.29881(9)
N11G N 0.7935(3) 0.4997(4) 0.7920(5)
Co2G Co 0.69781(5) -0.10728(7) 0.70119(9)
Co2A Co 0.30219(5) -0.10728(7) -0.20119(9)
Cl1A Cl 0.31342(12) -0.12443(18) -0.08238(18)
O1A O 0.3715(2) -0.1487(4) -0.1917(3)
N7A N 0.2428(3) -0.1618(4) -0.2993(5)
C49? C 0.276(3) 0.388(5) 0.407(5)
C50? C 0.274(3) 0.431(5) 0.459(5)
C51? C 0.324(3) 0.435(4) 0.535(5)
C52? C 0.368(3) 0.401(4) 0.556(5)
C53? C 0.372(3) 0.358(4) 0.504(5)
C54? C 0.322(3) 0.356(4) 0.429(5)
O2? O 0.780(3) -0.051(4) 0.530(5)
C55? C 0.762(5) -0.082(7) 0.459(6)
O4? O 0.346(3) 0.348(4) 0.450(5)
C57? C 0.383(4) 0.308(6) 0.467(7)
O5? O 0.341(4) 0.462(6) 0.482(7)
C58? C 0.367(6) 0.511(9) 0.538(10)
O6? O 0.395(5) 0.571(7) 0.547(7)
C59? C 0.415(7) 0.518(8) 0.605(9)
O7? O 0.318(3) 0.459(4) 0.582(5)
C60? C 0.355(4) 0.500(5) 0.600(7)
loop_
_geom_bond_atom_site_label_1
_geom_bond_atom_site_label_2
_geom_bond_site_symmetry_1
_geom_bond_site_symmetry_2
Co1 N1 1_555 1_555
Co2 Cl1 1_555 1_555
Co3 Cl2 1_555 1_555
O1 Co2 1_555 1_555
N1 C1 1_555 1_555
N2 Co1 1_555 1_555
N3 H1 1_555 1_555
N4 Co3 1_555 1_555
N5 Co1 1_555 1_555
N6 Co1 1_555 1_555
N7 Co2 1_555 1_555
N8 H2 1_555 1_555
N9 Co1 1_555 1_555
N10 H3 1_555 1_555
N11 C36 1_555 1_555
N12 Co1 1_555 1_555
C1 N3 1_555 1_555
C2 N2 1_555 1_555
C3 N1 1_555 1_555
C4 C3 1_555 1_555
H4 C4 1_555 1_555
C5 C4 1_555 1_555
H5 C5 1_555 1_555
C6 C5 1_555 1_555
H6 C6 1_555 1_555
C7 C6 1_555 1_555
H7 C7 1_555 1_555
C8 N3 1_555 1_555
C9 N2 1_555 1_555
C10 C9 1_555 1_555
H8 C10 1_555 1_555
C11 C10 1_555 1_555
H9 C11 1_555 1_555
C12 C11 1_555 1_555
H10 C12 1_555 1_555
C13 C12 1_555 1_555
H11 C13 1_555 1_555
C14 N4 1_555 1_555
C15 N5 1_555 1_555
C16 N6 1_555 1_555
C17 N5 1_555 1_555
C18 C17 1_555 1_555
H12 C18 1_555 1_555
C19 C18 1_555 1_555
H13 C19 1_555 1_555
C20 C19 1_555 1_555
H14 C20 1_555 1_555
C21 C20 1_555 1_555
H15 C21 1_555 1_555
C22 N7 1_555 1_555
C23 N6 1_555 1_555
C24 C23 1_555 1_555
H16 C24 1_555 1_555
C25 C24 1_555 1_555
H17 C25 1_555 1_555
C26 C25 1_555 1_555
H18 C26 1_555 1_555
C27 C26 1_555 1_555
H19 C27 1_555 1_555
C28 N8 1_555 1_555
C29 N9 1_555 1_555
C30 N9 1_555 1_555
C31 C30 1_555 1_555
H20 C31 1_555 1_555
C32 C31 1_555 1_555
H21 C32 1_555 1_555
C33 C32 1_555 1_555
H22 C33 1_555 1_555
C34 C33 1_555 1_555
H23 C34 1_555 1_555
C35 N10 1_555 1_555
C36 N12 1_555 1_555
C37 N11 1_555 1_555
C38 C37 1_555 1_555
H24 C38 1_555 1_555
C39 C38 1_555 1_555
H25 C39 1_555 1_555
C40 C39 1_555 1_555
H26 C40 1_555 1_555
C41 C40 1_555 1_555
H27 C41 1_555 1_555
C42 N12 1_555 1_555
C43 C44 1_555 1_555
C44 C45 1_555 1_555
C45 C46 1_555 1_555
C46 C47 1_555 1_555
C47 C48 1_555 1_555
C48 C43 1_555 1_555
O3 C56 1_555 1_555
Cl2F Co3 1_555 1_555
N1F C1F 1_555 1_555
N2F C2F 1_555 1_555
N3F H1F 1_555 1_555
N4F Co3 1_555 1_555
C1F N3F 1_555 1_555
C2F N4F 1_555 1_555
C3F N1F 1_555 1_555
C4F C3F 1_555 1_555
H4F C4F 1_555 1_555
C5F C4F 1_555 1_555
H5F C5F 1_555 1_555
C6F C5F 1_555 1_555
H6F C6F 1_555 1_555
C7F C6F 1_555 1_555
H7F C7F 1_555 1_555
C8F N3F 1_555 1_555
C9F N2F 1_555 1_555
C10F C9F 1_555 1_555
H8F C10F 1_555 1_555
C11F C10F 1_555 1_555
H9F C11F 1_555 1_555
C12F C11F 1_555 1_555
H10F C12F 1_555 1_555
C13F C12F 1_555 1_555
H11F C13F 1_555 1_555
C14F N4F 1_555 1_555
Co1F N1F 1_555 1_555
N5F Co1F 1_555 1_555
N6F Co1F 1_555 1_555
N7F C15F 1_555 1_555
N8F H2F 1_555 1_555
C15F N5F 1_555 1_555
C16F N6F 1_555 1_555
C17F N5F 1_555 1_555
C18F C17F 1_555 1_555
H12F C18F 1_555 1_555
C19F C18F 1_555 1_555
H13F C19F 1_555 1_555
C20F C19F 1_555 1_555
H14F C20F 1_555 1_555
C21F C20F 1_555 1_555
H15F C21F 1_555 1_555
C22F N7F 1_555 1_555
C23F N6F 1_555 1_555
C24F C23F 1_555 1_555
H16F C24F 1_555 1_555
C25F C24F 1_555 1_555
H17F C25F 1_555 1_555
C26F C25F 1_555 1_555
H18F C26F 1_555 1_555
C27F C26F 1_555 1_555
H19F C27F 1_555 1_555
C28F N8F 1_555 1_555
N9F Co1F 1_555 1_555
N10F H3F 1_555 1_555
N11F C36F 1_555 1_555
N12F Co1F 1_555 1_555
C29F N9F 1_555 1_555
C30F N9F 1_555 1_555
C31F C30F 1_555 1_555
H20F C31F 1_555 1_555
C32F C31F 1_555 1_555
H21F C32F 1_555 1_555
C33F C32F 1_555 1_555
H22F C33F 1_555 1_555
C34F C33F 1_555 1_555
H23F C34F 1_555 1_555
C35F N10F 1_555 1_555
C36F N12F 1_555 1_555
C37F N11F 1_555 1_555
C38F C37F 1_555 1_555
H24F C38F 1_555 1_555
C39F C38F 1_555 1_555
H25F C39F 1_555 1_555
C40F C39F 1_555 1_555
H26F C40F 1_555 1_555
C41F C40F 1_555 1_555
H27F C41F 1_555 1_555
C42F N12F 1_555 1_555
Co2F N7F 1_555 1_555
N11G Co2 1_555 1_555
Co2G N11 1_555 1_555
Co2A N11F 1_555 1_555
Cl1A Co2A 1_555 1_555
O1A Co2A 1_555 1_555
N7A Co2A 1_555 1_555
N4 C2 1_555 1_555
N7 C15 1_555 1_555
N8 C16 1_555 1_555
N10 C29 1_555 1_555
C1 C2 1_555 1_555
C3 C8 1_555 1_555
C7 C8 1_555 1_555
C9 C14 1_555 1_555
C13 C14 1_555 1_555
C15 C16 1_555 1_555
C17 C22 1_555 1_555
C21 C22 1_555 1_555
C23 C28 1_555 1_555
C27 C28 1_555 1_555
C29 C36 1_555 1_555
C30 C35 1_555 1_555
C34 C35 1_555 1_555
C37 C42 1_555 1_555
C41 C42 1_555 1_555
N2F Co1F 1_555 1_555
C1F C2F 1_555 1_555
C3F C8F 1_555 1_555
C7F C8F 1_555 1_555
C9F C14F 1_555 1_555
C13F C14F 1_555 1_555
N8F C16F 1_555 1_555
C15F C16F 1_555 1_555
C17F C22F 1_555 1_555
C21F C22F 1_555 1_555
C23F C28F 1_555 1_555
C27F C28F 1_555 1_555
N10F C29F 1_555 1_555
C29F C36F 1_555 1_555
C30F C35F 1_555 1_555
C34F C35F 1_555 1_555
C37F C42F 1_555 1_555
C41F C42F 1_555 1_555

#END
