
#######################################################################
#
#                 Cambridge Crystallographic Data Centre
#                                CCDC 
#
#######################################################################
#
# If this CIF has been generated from an entry in the Cambridge 
# Structural Database, then it will include bibliographic, chemical, 
# crystal, experimental, refinement or atomic coordinate data resulting 
# from the CCDC's data processing and validation procedures.
#
#######################################################################

data_OHILOH
_symmetry_cell_setting           triclinic
_symmetry_space_group_name_H-M   'P -1'
_symmetry_Int_Tables_number      2
_space_group_name_Hall           '-P 1'
loop_
_symmetry_equiv_pos_site_id
_symmetry_equiv_pos_as_xyz
1 x,y,z
2 -x,-y,-z
_cell_length_a                   9.7404(4)
_cell_length_b                   12.4073(6)
_cell_length_c                   16.2808(8)
_cell_angle_alpha                93.9560(10)
_cell_angle_beta                 103.2140(10)
_cell_angle_gamma                97.7710(10)
_cell_volume                     1887.68
loop_
_atom_site_label
_atom_site_type_symbol
_atom_site_fract_x
_atom_site_fract_y
_atom_site_fract_z
Zn1 Zn 1.01115(4) 0.61703(3) 0.16906(2)
Zn2 Zn 1.92552(4) 1.61125(3) 0.59544(2)
N1 N 1.7516(3) 1.4999(2) 0.56526(16)
N2 N 1.5738(3) 1.3841(2) 0.48493(16)
N3 N 1.3276(3) 0.8562(2) 0.30610(17)
N4 N 1.1692(3) 0.7405(2) 0.21314(17)
O1 O 0.9853(3) 0.6506(2) 0.01304(15)
O2 O 0.8423(2) 0.6616(2) 0.09857(14)
O3 O 0.8430(3) 0.6446(2) -0.24473(15)
O4 O 0.9706(3) 0.7390(2) -0.31922(15)
O5 O 0.9973(2) 0.57104(19) 0.28225(14)
O6 O 0.9014(2) 0.45909(19) 0.36115(14)
O7 O 0.9742(2) 0.6769(2) 0.49718(14)
O8 O 0.7642(3) 0.7321(3) 0.47747(18)
O9 O 1.0818(4) 0.4867(3) 0.1317(2)
C1 C 0.8740(4) 0.6761(3) 0.0286(2)
C2 C 0.7705(3) 0.7262(3) -0.0358(2)
C3 C 0.6286(4) 0.7118(3) -0.0300(2)
H1 H 0.6024 0.6758 0.0136
C4 C 0.5266(4) 0.7512(4) -0.0898(3)
H2 H 0.4318 0.7412 -0.0862
C5 C 0.5642(4) 0.8048(4) -0.1538(3)
H3 H 0.4953 0.8303 -0.1940
C6 C 0.7045(4) 0.8207(3) -0.1586(2)
H4 H 0.7291 0.8576 -0.2022
C7 C 0.8110(4) 0.7831(3) -0.0999(2)
C8 C 0.9633(4) 0.8172(3) -0.1023(2)
C9 C 1.0504(4) 0.8854(3) -0.0331(2)
H5 H 1.0158 0.8996 0.0146
C10 C 1.1867(4) 0.9324(3) -0.0337(2)
H6 H 1.2423 0.9790 0.0126
C11 C 1.2399(4) 0.9100(3) -0.1029(3)
H7 H 1.3323 0.9407 -0.1033
C12 C 1.1568(4) 0.8424(3) -0.1715(2)
H8 H 1.1941 0.8271 -0.2180
C13 C 1.0180(4) 0.7965(3) -0.1729(2)
C14 C 0.9360(4) 0.7212(3) -0.2506(2)
C15 C 0.8938(3) 0.5319(3) 0.31011(19)
C16 C 0.7510(3) 0.5659(3) 0.27939(19)
C17 C 0.6354(4) 0.4824(3) 0.2488(2)
H9 H 0.6489 0.4101 0.2537
C18 C 0.5018(4) 0.5045(3) 0.2115(2)
H10 H 0.4262 0.4478 0.1910
C19 C 0.4816(4) 0.6111(4) 0.2050(2)
H11 H 0.3921 0.6269 0.1791
C20 C 0.5933(4) 0.6948(3) 0.2365(2)
H12 H 0.5774 0.7667 0.2324
C21 C 0.7295(3) 0.6750(3) 0.27421(19)
C22 C 0.8440(3) 0.7715(3) 0.3060(2)
C23 C 0.8735(4) 0.8464(3) 0.2493(2)
H13 H 0.8261 0.8324 0.1923
C24 C 0.9710(4) 0.9401(3) 0.2764(3)
H14 H 0.9907 0.9877 0.2375
C25 C 1.0394(4) 0.9638(3) 0.3605(3)
H15 H 1.1027 1.0286 0.3790
C26 C 1.0135(4) 0.8908(3) 0.4173(2)
H16 H 1.0630 0.9053 0.4739
C27 C 0.9148(3) 0.7959(3) 0.3915(2)
C28 C 0.8794(3) 0.7291(3) 0.4597(2)
C29 C 1.6908(3) 1.4552(3) 0.4870(2)
H17 H 1.7250 1.4711 0.4397
C30 C 1.6666(3) 1.4556(3) 0.6148(2)
H18 H 1.6821 1.4722 0.6731
C31 C 1.5576(3) 1.3844(3) 0.5661(2)
H19 H 1.4850 1.3432 0.5842
C32 C 1.4852(3) 1.3135(3) 0.4105(2)
H20 H 1.4820 1.3522 0.3605
H21 H 1.3885 1.2973 0.4175
C33 C 1.5409(3) 1.2080(3) 0.3973(2)
C34 C 1.6774(3) 1.2073(3) 0.3857(2)
H22 H 1.7349 1.2732 0.3847
C35 C 1.7295(4) 1.1101(3) 0.3755(2)
H23 H 1.8212 1.1109 0.3676
C36 C 1.6454(4) 1.0124(3) 0.3771(2)
H24 H 1.6808 0.9472 0.3711
C37 C 1.5079(4) 1.0106(3) 0.3876(2)
C38 C 1.4567(3) 1.1092(3) 0.39746(19)
H25 H 1.3643 1.1084 0.4042
C39 C 1.4156(4) 0.9041(3) 0.3907(2)
H26 H 1.4761 0.8523 0.4145
H27 H 1.3533 0.9161 0.4280
C40 C 1.2247(3) 0.7714(3) 0.2942(2)
H28 H 1.1952 0.7378 0.3379
C41 C 1.2410(4) 0.8126(3) 0.1712(2)
H29 H 1.2245 0.8119 0.1126
C42 C 1.3388(4) 0.8843(3) 0.2281(2)
H30 H 1.4015 0.9415 0.2165
H31 H 1.054(6) 0.447(5) 0.089(4)
H32 H 1.097(5) 0.437(4) 0.169(3)
Zn2_2 Zn 0.92552(4) 0.61125(3) -0.40456(2)
Zn2A Zn 1.07448(4) 0.38875(3) 0.40456(2)
Zn2_3 Zn 0.92552(4) 0.61125(3) 0.59544(2)
O4_2 O 1.9706(3) 1.7390(2) 0.68078(15)
O6A O 2.0986(2) 1.54091(19) 0.63885(14)
O7_2 O 1.9742(2) 1.6769(2) 0.49718(14)
loop_
_geom_bond_atom_site_label_1
_geom_bond_atom_site_label_2
_geom_bond_site_symmetry_1
_geom_bond_site_symmetry_2
Zn1 N4 1_555 1_555
Zn2 N1 1_555 1_555
N1 C29 1_555 1_555
N2 C29 1_555 1_555
N3 C39 1_555 1_555
N4 C40 1_555 1_555
O1 C1 1_555 1_555
O2 Zn1 1_555 1_555
O3 C14 1_555 1_555
O4 C14 1_555 1_555
O5 Zn1 1_555 1_555
O6 C15 1_555 1_555
O7 C28 1_555 1_555
O8 C28 1_555 1_555
O9 Zn1 1_555 1_555
C1 O2 1_555 1_555
C2 C1 1_555 1_555
C3 C2 1_555 1_555
H1 C3 1_555 1_555
C4 C3 1_555 1_555
H2 C4 1_555 1_555
C5 C4 1_555 1_555
H3 C5 1_555 1_555
C6 C5 1_555 1_555
H4 C6 1_555 1_555
C7 C2 1_555 1_555
C8 C7 1_555 1_555
C9 C8 1_555 1_555
H5 C9 1_555 1_555
C10 C9 1_555 1_555
H6 C10 1_555 1_555
C11 C10 1_555 1_555
H7 C11 1_555 1_555
C12 C11 1_555 1_555
H8 C12 1_555 1_555
C13 C8 1_555 1_555
C14 C13 1_555 1_555
C15 O5 1_555 1_555
C16 C15 1_555 1_555
C17 C16 1_555 1_555
H9 C17 1_555 1_555
C18 C17 1_555 1_555
H10 C18 1_555 1_555
C19 C18 1_555 1_555
H11 C19 1_555 1_555
C20 C19 1_555 1_555
H12 C20 1_555 1_555
C21 C16 1_555 1_555
C22 C21 1_555 1_555
C23 C22 1_555 1_555
H13 C23 1_555 1_555
C24 C23 1_555 1_555
H14 C24 1_555 1_555
C25 C24 1_555 1_555
H15 C25 1_555 1_555
C26 C25 1_555 1_555
H16 C26 1_555 1_555
C27 C22 1_555 1_555
C28 C27 1_555 1_555
C29 H17 1_555 1_555
C30 N1 1_555 1_555
H18 C30 1_555 1_555
C31 N2 1_555 1_555
H19 C31 1_555 1_555
C32 N2 1_555 1_555
H20 C32 1_555 1_555
H21 C32 1_555 1_555
C33 C32 1_555 1_555
C34 C33 1_555 1_555
H22 C34 1_555 1_555
C35 C34 1_555 1_555
H23 C35 1_555 1_555
C36 C35 1_555 1_555
H24 C36 1_555 1_555
C37 C36 1_555 1_555
C38 C33 1_555 1_555
H25 C38 1_555 1_555
C39 C37 1_555 1_555
H26 C39 1_555 1_555
H27 C39 1_555 1_555
C40 N3 1_555 1_555
H28 C40 1_555 1_555
C41 N4 1_555 1_555
H29 C41 1_555 1_555
C42 N3 1_555 1_555
H30 C42 1_555 1_555
H31 O9 1_555 1_555
H32 O9 1_555 1_555
Zn2_2 O4 1_555 1_555
Zn2A O6 1_555 1_555
Zn2_3 O7 1_555 1_555
O4_2 Zn2 1_555 1_555
O6A Zn2 1_555 1_555
O7_2 Zn2 1_555 1_555
C6 C7 1_555 1_555
C12 C13 1_555 1_555
C20 C21 1_555 1_555
C26 C27 1_555 1_555
C30 C31 1_555 1_555
C37 C38 1_555 1_555
C41 C42 1_555 1_555

#END
