
#######################################################################
#
#                 Cambridge Crystallographic Data Centre
#                                CCDC 
#
#######################################################################
#
# If this CIF has been generated from an entry in the Cambridge 
# Structural Database, then it will include bibliographic, chemical, 
# crystal, experimental, refinement or atomic coordinate data resulting 
# from the CCDC's data processing and validation procedures.
#
#######################################################################

data_OHIMEY
_symmetry_cell_setting           monoclinic
_symmetry_space_group_name_H-M   'P 21/c'
_symmetry_Int_Tables_number      14
_space_group_name_Hall           '-P 2ybc'
loop_
_symmetry_equiv_pos_site_id
_symmetry_equiv_pos_as_xyz
1 x,y,z
2 -x,1/2+y,1/2-z
3 -x,-y,-z
4 x,1/2-y,1/2+z
_cell_length_a                   5.9273(12)
_cell_length_b                   26.321(5)
_cell_length_c                   17.508(4)
_cell_angle_alpha                90
_cell_angle_beta                 96.428(3)
_cell_angle_gamma                90
_cell_volume                     2714.29
loop_
_atom_site_label
_atom_site_type_symbol
_atom_site_fract_x
_atom_site_fract_y
_atom_site_fract_z
Cd1 Cd 0.45501(3) 0.387785(7) 0.689927(11)
N1 N 0.5432(4) 0.46026(8) 0.62646(12)
N2 N 0.4776(4) 0.53744(8) 0.58198(12)
N3 N -0.3678(4) 0.81345(8) 0.75209(13)
N4 N -0.2163(4) 0.75613(8) 0.68176(13)
O1 O 0.6790(3) 0.34017(7) 0.61197(10)
O2 O 0.3940(4) 0.31163(7) 0.52908(12)
O3 O 0.8001(4) -0.06342(7) 0.74890(11)
O4 O 0.4990(4) -0.05653(10) 0.66313(17)
O5 O 1.0780(5) 0.10710(8) 0.42946(12)
O6 O 1.3530(4) 0.12559(8) 0.54355(16)
O7 O 0.8002(4) 0.38828(8) 0.76853(12)
O8 O 0.1338(3) 0.38112(7) 0.59092(11)
S1 S 1.12553(15) 0.11834(3) 0.51006(5)
C1 C 0.5865(5) 0.30775(10) 0.56467(16)
C2 C 0.7244(5) 0.26090(9) 0.55085(14)
C3 C 0.9381(5) 0.25318(10) 0.59067(15)
H1 H 0.9992 0.2775 0.6256
C4 C 1.0606(5) 0.20981(10) 0.57891(16)
H2 H 1.2032 0.2048 0.6058
C5 C 0.9695(5) 0.17394(10) 0.52688(16)
C6 C 0.7598(5) 0.18097(10) 0.48591(17)
H3 H 0.7013 0.1569 0.4502
C7 C 0.6369(5) 0.22428(10) 0.49848(16)
H4 H 0.4941 0.2290 0.4716
C8 C 0.6928(6) -0.04441(11) 0.6889(2)
C9 C 0.8104(5) -0.00367(10) 0.64595(15)
C10 C 1.0224(5) 0.01471(11) 0.67098(17)
H5 H 1.1010 0.0019 0.7158
C11 C 1.1207(5) 0.05238(11) 0.62969(17)
H6 H 1.2634 0.0652 0.6471
C12 C 1.0046(5) 0.07028(9) 0.56319(16)
C13 C 0.7929(6) 0.05172(11) 0.53692(17)
H7 H 0.7157 0.0636 0.4913
C14 C 0.6981(6) 0.01527(11) 0.57950(18)
H8 H 0.5536 0.0031 0.5627
C15 C 0.3878(5) 0.49229(10) 0.59744(15)
H9 H 0.2339 0.4847 0.5886
C16 C 0.7441(5) 0.48623(11) 0.62970(16)
H10 H 0.8857 0.4730 0.6476
C17 C 0.7054(6) 0.53391(11) 0.60288(17)
H11 H 0.8129 0.5593 0.5994
C18 C 0.3514(6) 0.58283(11) 0.55603(16)
H12 H 0.2237 0.5729 0.5195
H13 H 0.4489 0.6046 0.5293
C19 C 0.2637(5) 0.61299(10) 0.62010(15)
C20 C 0.3079(6) 0.60022(11) 0.69725(16)
H14 H 0.3951 0.5717 0.7117
C21 C 0.2230(6) 0.62973(11) 0.75263(16)
H15 H 0.2526 0.6208 0.8042
C22 C 0.0949(5) 0.67226(11) 0.73239(15)
H16 H 0.0385 0.6918 0.7702
C23 C 0.0496(4) 0.68596(10) 0.65554(15)
C24 C 0.1325(4) 0.65548(10) 0.60071(15)
H17 H 0.0988 0.6638 0.5491
C25 C -0.2029(5) 0.80376(10) 0.70987(15)
H18 H -0.0909 0.8270 0.7006
C26 C -0.4944(5) 0.76976(10) 0.75059(17)
H19 H -0.6233 0.7651 0.7756
C27 C -0.4031(5) 0.73459(11) 0.70733(17)
H20 H -0.4572 0.7019 0.6969
C28 C -0.0702(5) 0.73435(10) 0.62849(15)
H21 H 0.0432 0.7594 0.6188
H22 H -0.1616 0.7276 0.5801
H23 H 0.7493 0.3971 0.8062
H24 H -0.0039 0.3691 0.6021
H25 H 0.9295 0.4089 0.7592
H26 H 0.1770 0.3488 0.5762
Cd1A Cd -0.45501(3) 0.887785(7) 0.810073(11)
Cd1A_2 Cd 0.54499(3) -0.112215(7) 0.810073(11)
N3A N 0.3678(4) 0.31345(8) 0.74791(13)
O3A O 0.1999(4) 0.43658(7) 0.75110(11)
loop_
_geom_bond_atom_site_label_1
_geom_bond_atom_site_label_2
_geom_bond_site_symmetry_1
_geom_bond_site_symmetry_2
Cd1 N1 1_555 1_555
N1 C15 1_555 1_555
N2 C15 1_555 1_555
N3 C25 1_555 1_555
N4 C25 1_555 1_555
O1 Cd1 1_555 1_555
O2 C1 1_555 1_555
O3 C8 1_555 1_555
O4 C8 1_555 1_555
O5 S1 1_555 1_555
O6 S1 1_555 1_555
O7 Cd1 1_555 1_555
O8 Cd1 1_555 1_555
S1 C5 1_555 1_555
C1 O1 1_555 1_555
C2 C1 1_555 1_555
C3 C2 1_555 1_555
H1 C3 1_555 1_555
C4 C3 1_555 1_555
H2 C4 1_555 1_555
C5 C4 1_555 1_555
C6 C5 1_555 1_555
H3 C6 1_555 1_555
C7 C2 1_555 1_555
H4 C7 1_555 1_555
C8 C9 1_555 1_555
C9 C10 1_555 1_555
C10 H5 1_555 1_555
C11 C10 1_555 1_555
H6 C11 1_555 1_555
C12 S1 1_555 1_555
C13 C12 1_555 1_555
H7 C13 1_555 1_555
C14 C9 1_555 1_555
H8 C14 1_555 1_555
C15 H9 1_555 1_555
C16 N1 1_555 1_555
H10 C16 1_555 1_555
C17 N2 1_555 1_555
H11 C17 1_555 1_555
C18 N2 1_555 1_555
H12 C18 1_555 1_555
H13 C18 1_555 1_555
C19 C18 1_555 1_555
C20 C19 1_555 1_555
H14 C20 1_555 1_555
C21 C20 1_555 1_555
H15 C21 1_555 1_555
C22 C21 1_555 1_555
H16 C22 1_555 1_555
C23 C22 1_555 1_555
C24 C19 1_555 1_555
H17 C24 1_555 1_555
C25 H18 1_555 1_555
C26 N3 1_555 1_555
H19 C26 1_555 1_555
C27 N4 1_555 1_555
H20 C27 1_555 1_555
C28 N4 1_555 1_555
H21 C28 1_555 1_555
H22 C28 1_555 1_555
H23 O7 1_555 1_555
H24 O8 1_555 1_555
H25 O7 1_555 1_555
H26 O8 1_555 1_555
Cd1A N3 1_555 1_555
Cd1A_2 O3 1_555 1_555
N3A Cd1 1_555 1_555
O3A Cd1 1_555 1_555
C6 C7 1_555 1_555
C11 C12 1_555 1_555
C13 C14 1_555 1_555
C16 C17 1_555 1_555
C23 C24 1_555 1_555
C23 C28 1_555 1_555
C26 C27 1_555 1_555

#END
