
#######################################################################
#
#                 Cambridge Crystallographic Data Centre
#                                CCDC 
#
#######################################################################
#
# If this CIF has been generated from an entry in the Cambridge 
# Structural Database, then it will include bibliographic, chemical, 
# crystal, experimental, refinement or atomic coordinate data resulting 
# from the CCDC's data processing and validation procedures.
#
#######################################################################

data_OHIVUW
_symmetry_cell_setting           monoclinic
_symmetry_space_group_name_H-M   'P 21/c'
_symmetry_Int_Tables_number      14
_space_group_name_Hall           '-P 2ybc'
loop_
_symmetry_equiv_pos_site_id
_symmetry_equiv_pos_as_xyz
1 x,y,z
2 -x,1/2+y,1/2-z
3 -x,-y,-z
4 x,1/2-y,1/2+z
_cell_length_a                   13.9552(5)
_cell_length_b                   10.7372(3)
_cell_length_c                   6.2156(2)
_cell_angle_alpha                90
_cell_angle_beta                 93.9807(12)
_cell_angle_gamma                90
_cell_volume                     929.097
loop_
_atom_site_label
_atom_site_type_symbol
_atom_site_fract_x
_atom_site_fract_y
_atom_site_fract_z
Na1 Na 0.98943(6) 0.26909(8) 0.04324(12)
O1 O 1.08955(10) 0.14661(14) -0.1795(2)
O2 O 1.18881(11) 0.05403(14) 0.0682(2)
O3 O 1.28871(11) -0.14403(14) -0.2928(2)
O4 O 1.45475(12) 0.14028(14) 0.3367(2)
O5 O 0.86759(12) 0.18682(17) -0.2093(3)
H1 H 0.818(2) 0.237(3) -0.223(4)
H2 H 0.847(2) 0.120(3) -0.164(5)
O6 O 1.01536(13) 0.41543(16) -0.2253(3)
H3 H 1.068(2) 0.428(3) -0.280(5)
H4 H 0.988(2) 0.485(3) -0.259(5)
N1 N 1.39850(13) 0.11943(17) -0.0107(3)
H5 H 1.4178(17) 0.194(3) -0.037(4)
N2 N 1.35917(13) -0.12750(18) 0.0439(3)
H6 H 1.3484(18) -0.207(3) 0.066(4)
C1 C 1.17077(15) 0.10639(19) -0.1115(3)
C2 C 1.25147(16) 0.1216(2) -0.2613(4)
H7 H 1.2621(16) 0.210(2) -0.281(3)
H8 H 1.2257(16) 0.091(2) -0.402(4)
C3 C 1.34598(15) 0.05602(19) -0.1894(3)
H9 H 1.3858(16) 0.0586(19) -0.317(3)
C4 C 1.32840(15) -0.0803(2) -0.1451(3)
C5 C 1.38652(18) -0.0544(2) 0.2355(3)
H10 H 1.4381(18) -0.095(2) 0.317(4)
H11 H 1.3317(19) -0.051(2) 0.320(4)
C6 C 1.41541(15) 0.0769(2) 0.1891(3)
O1C O 1.08955(10) 0.35339(14) 0.3205(2)
O5C O 0.86759(12) 0.31318(17) 0.2907(3)
O6C O 1.01536(13) 0.08457(16) 0.2747(3)
Na1C Na 0.98943(6) 0.23091(8) -0.45676(12)
H1C H 0.818(2) 0.263(3) 0.277(4)
H2C H 0.847(2) 0.380(3) 0.336(5)
H3C H 1.068(2) 0.072(3) 0.220(5)
H4C H 0.988(2) 0.015(3) 0.241(5)
loop_
_geom_bond_atom_site_label_1
_geom_bond_atom_site_label_2
_geom_bond_site_symmetry_1
_geom_bond_site_symmetry_2
Na1 O1 1_555 1_555
O1 C1 1_555 1_555
O2 C1 1_555 1_555
O3 C4 1_555 1_555
O4 C6 1_555 1_555
O5 Na1 1_555 1_555
H1 O5 1_555 1_555
H2 O5 1_555 1_555
O6 Na1 1_555 1_555
H3 O6 1_555 1_555
H4 O6 1_555 1_555
N1 H5 1_555 1_555
N2 H6 1_555 1_555
C1 C2 1_555 1_555
C2 H7 1_555 1_555
H8 C2 1_555 1_555
C3 N1 1_555 1_555
H9 C3 1_555 1_555
C4 N2 1_555 1_555
C5 N2 1_555 1_555
H10 C5 1_555 1_555
H11 C5 1_555 1_555
C6 N1 1_555 1_555
O1C Na1 1_555 1_555
O5C Na1 1_555 1_555
O6C Na1 1_555 1_555
Na1C O1 1_555 1_555
H1C O5C 1_555 1_555
H2C O5C 1_555 1_555
H3C O6C 1_555 1_555
H4C O6C 1_555 1_555
O5 Na1C 1_555 1_555
O6 Na1C 1_555 1_555
C2 C3 1_555 1_555
C3 C4 1_555 1_555
C5 C6 1_555 1_555

#END
