
#######################################################################
#
#                 Cambridge Crystallographic Data Centre
#                                CCDC 
#
#######################################################################
#
# If this CIF has been generated from an entry in the Cambridge 
# Structural Database, then it will include bibliographic, chemical, 
# crystal, experimental, refinement or atomic coordinate data resulting 
# from the CCDC's data processing and validation procedures.
#
#######################################################################

data_OHIXIO
_symmetry_cell_setting           monoclinic
_symmetry_space_group_name_H-M   'P 21/n'
_symmetry_Int_Tables_number      14
_space_group_name_Hall           '-P 2yn'
loop_
_symmetry_equiv_pos_site_id
_symmetry_equiv_pos_as_xyz
1 x,y,z
2 1/2-x,1/2+y,1/2-z
3 -x,-y,-z
4 1/2+x,1/2-y,1/2+z
_cell_length_a                   9.3490(18)
_cell_length_b                   11.162(2)
_cell_length_c                   11.688(2)
_cell_angle_alpha                90
_cell_angle_beta                 95.094(3)
_cell_angle_gamma                90
_cell_volume                     1214.87
loop_
_atom_site_label
_atom_site_type_symbol
_atom_site_fract_x
_atom_site_fract_y
_atom_site_fract_z
Cd1 Cd 0.0000 0.5000 0.0000
N1 N 0.0402(3) 0.42324(19) 0.18486(19)
N2 N 0.0878(2) 0.39660(19) 0.37118(18)
N3 N 0.2439(2) 0.50927(18) 0.49342(18)
N4 N 0.4064(3) 0.63004(19) 0.60220(18)
N5 N 0.5034(3) 0.8020(2) 0.56154(19)
N6 N 0.3357(3) 0.4800(2) 0.0472(2)
O1 O 0.2424(2) 0.4930(2) -0.03642(18)
O2 O 0.4176(3) 0.39146(19) 0.04862(18)
O3 O 0.3456(2) 0.55258(19) 0.12740(17)
C1 C 0.1107(3) 0.4654(2) 0.2782(2)
H1 H 0.1698 0.5348 0.2808
C2 C -0.0303(3) 0.3220(2) 0.2188(2)
H2 H -0.0903 0.2723 0.1691
C3 C -0.0016(3) 0.3040(2) 0.3324(2)
H3 H -0.0358 0.2406 0.3768
C4 C 0.1523(3) 0.4177(2) 0.4850(2)
C5 C 0.1202(3) 0.3466(2) 0.5762(2)
H4 H 0.0551 0.2813 0.5660
C6 C 0.1876(3) 0.3750(2) 0.6835(2)
H5 H 0.1676 0.3292 0.7487
C7 C 0.2836(3) 0.4695(3) 0.6964(2)
H6 H 0.3305 0.4904 0.7691
C8 C 0.3075(3) 0.5320(2) 0.5973(2)
C9 C 0.5306(3) 0.6397(2) 0.6743(2)
H7 H 0.5667 0.5840 0.7311
C10 C 0.5903(3) 0.7449(2) 0.6472(2)
H8 H 0.6787 0.7754 0.6817
C11 C 0.3945(3) 0.7293(3) 0.5361(2)
H9 H 0.3179 0.7446 0.4790
N1B N -0.0402(3) 0.57676(19) -0.18486(19)
N2B N -0.0878(2) 0.60340(19) -0.37118(18)
N3B N -0.2439(2) 0.49073(18) -0.49342(18)
N4B N -0.4064(3) 0.36996(19) -0.60220(18)
N5B N -0.5034(3) 0.1980(2) -0.56154(19)
N6B N -0.3357(3) 0.5200(2) -0.0472(2)
O1B O -0.2424(2) 0.5070(2) 0.03642(18)
O2B O -0.4176(3) 0.60854(19) -0.04862(18)
O3B O -0.3456(2) 0.44742(19) -0.12740(17)
C1B C -0.1107(3) 0.5346(2) -0.2782(2)
H1B H -0.1698 0.4652 -0.2808
C2B C 0.0303(3) 0.6780(2) -0.2188(2)
H2B H 0.0903 0.7277 -0.1691
C3B C 0.0016(3) 0.6960(2) -0.3324(2)
H3B H 0.0358 0.7594 -0.3768
C4B C -0.1523(3) 0.5823(2) -0.4850(2)
C5B C -0.1202(3) 0.6534(2) -0.5762(2)
H4B H -0.0551 0.7187 -0.5660
C6B C -0.1876(3) 0.6250(2) -0.6835(2)
H5B H -0.1676 0.6708 -0.7487
C7B C -0.2836(3) 0.5305(3) -0.6964(2)
H6B H -0.3305 0.5096 -0.7691
C8B C -0.3075(3) 0.4680(2) -0.5973(2)
C9B C -0.5306(3) 0.3603(2) -0.6743(2)
H7B H -0.5667 0.4160 -0.7311
C10B C -0.5903(3) 0.2551(2) -0.6472(2)
H8B H -0.6787 0.2246 -0.6817
C11B C -0.3945(3) 0.2707(3) -0.5361(2)
H9B H -0.3179 0.2554 -0.4790
Cd1A Cd -0.5000 0.0000 -0.5000
Cd1A_2 Cd 0.5000 1.0000 0.5000
N5A N -0.0034(3) 0.3020(2) -0.06154(19)
N5C N 0.0034(3) 0.6980(2) 0.06154(19)
loop_
_geom_bond_atom_site_label_1
_geom_bond_atom_site_label_2
_geom_bond_site_symmetry_1
_geom_bond_site_symmetry_2
Cd1 N1 1_555 1_555
N1 C1 1_555 1_555
N2 C1 1_555 1_555
N3 C4 1_555 1_555
N4 C8 1_555 1_555
N5 C10 1_555 1_555
N6 O1 1_555 1_555
O1 Cd1 1_555 1_555
O2 N6 1_555 1_555
O3 N6 1_555 1_555
C1 H1 1_555 1_555
C2 N1 1_555 1_555
H2 C2 1_555 1_555
C3 N2 1_555 1_555
H3 C3 1_555 1_555
C4 N2 1_555 1_555
C5 C4 1_555 1_555
H4 C5 1_555 1_555
C6 C5 1_555 1_555
H5 C6 1_555 1_555
C7 C6 1_555 1_555
H6 C7 1_555 1_555
C8 N3 1_555 1_555
C9 N4 1_555 1_555
H7 C9 1_555 1_555
C10 C9 1_555 1_555
H8 C10 1_555 1_555
C11 N4 1_555 1_555
H9 C11 1_555 1_555
N1B Cd1 1_555 1_555
N2B C1B 1_555 1_555
N3B C4B 1_555 1_555
N4B C8B 1_555 1_555
N5B C10B 1_555 1_555
N6B O1B 1_555 1_555
O1B Cd1 1_555 1_555
O2B N6B 1_555 1_555
O3B N6B 1_555 1_555
C1B N1B 1_555 1_555
H1B C1B 1_555 1_555
C2B N1B 1_555 1_555
H2B C2B 1_555 1_555
C3B N2B 1_555 1_555
H3B C3B 1_555 1_555
C4B N2B 1_555 1_555
C5B C4B 1_555 1_555
H4B C5B 1_555 1_555
C6B C5B 1_555 1_555
H5B C6B 1_555 1_555
C7B C6B 1_555 1_555
H6B C7B 1_555 1_555
C8B N3B 1_555 1_555
C9B N4B 1_555 1_555
H7B C9B 1_555 1_555
C10B C9B 1_555 1_555
H8B C10B 1_555 1_555
C11B N4B 1_555 1_555
H9B C11B 1_555 1_555
Cd1A N5B 1_555 1_555
Cd1A_2 N5 1_555 1_555
N5A Cd1 1_555 1_555
N5C Cd1 1_555 1_555
N5 C11 1_555 1_555
C2 C3 1_555 1_555
C7 C8 1_555 1_555
N5B C11B 1_555 1_555
C2B C3B 1_555 1_555
C7B C8B 1_555 1_555

#END
