
#######################################################################
#
#                 Cambridge Crystallographic Data Centre
#                                CCDC 
#
#######################################################################
#
# If this CIF has been generated from an entry in the Cambridge 
# Structural Database, then it will include bibliographic, chemical, 
# crystal, experimental, refinement or atomic coordinate data resulting 
# from the CCDC's data processing and validation procedures.
#
#######################################################################

data_OHIZUA
_symmetry_cell_setting           monoclinic
_symmetry_space_group_name_H-M   'P 21/c'
_symmetry_Int_Tables_number      14
_space_group_name_Hall           '-P 2ybc'
loop_
_symmetry_equiv_pos_site_id
_symmetry_equiv_pos_as_xyz
1 x,y,z
2 x,1/2-y,1/2+z
3 -x,-y,-z
4 -x,1/2+y,1/2-z
_cell_length_a                   3.8409(8)
_cell_length_b                   19.705(4)
_cell_length_c                   17.084(3)
_cell_angle_alpha                90
_cell_angle_beta                 94.94(3)
_cell_angle_gamma                90
_cell_volume                     1288.2
loop_
_atom_site_label
_atom_site_type_symbol
_atom_site_fract_x
_atom_site_fract_y
_atom_site_fract_z
Br1 Br 0.45630(15) 0.64122(3) 0.02612(3)
Br2 Br -0.01363(17) 0.82273(4) 0.08626(4)
Cu1 Cu 0.9355(2) 0.62963(5) 0.12089(4)
Cu2 Cu 0.4810(2) 0.75259(5) 0.07270(5)
N1 N 1.1102(12) 0.6569(3) 0.2325(3)
N2 N 1.0785(12) 0.5330(3) 0.1640(3)
C1 C 1.1275(17) 0.7174(4) 0.2659(4)
H1 H 1.0348 0.7544 0.2374
C2 C 1.2788(17) 0.7281(4) 0.3420(4)
H2 H 1.2848 0.7714 0.3636
C3 C 1.4170(17) 0.6750(4) 0.3842(4)
H3 H 1.5210 0.6818 0.4347
C4 C 1.4036(14) 0.6103(4) 0.3522(3)
C5 C 1.2482(13) 0.6028(3) 0.2751(3)
C6 C 1.2303(13) 0.5376(3) 0.2393(3)
C7 C 1.3730(15) 0.4807(3) 0.2808(4)
C8 C 1.3550(17) 0.4184(4) 0.2429(4)
H4 H 1.4469 0.3799 0.2684
C9 C 1.2037(17) 0.4139(4) 0.1687(4)
H5 H 1.1898 0.3723 0.1429
C10 C 1.0679(17) 0.4726(4) 0.1312(4)
H6 H 0.9643 0.4685 0.0802
C11 C 1.5406(16) 0.5514(4) 0.3923(4)
H7 H 1.6431 0.5558 0.4433
C12 C 1.5268(16) 0.4912(4) 0.3596(4)
H8 H 1.6191 0.4542 0.3881
Cu1_2 Cu -0.0645(2) 0.62963(5) 0.12089(4)
Cu2_2 Cu -0.5190(2) 0.75259(5) 0.07270(5)
Br1_2 Br 1.45630(15) 0.64122(3) 0.02612(3)
Br2_2 Br 0.98637(17) 0.82273(4) 0.08626(4)
loop_
_geom_bond_atom_site_label_1
_geom_bond_atom_site_label_2
_geom_bond_site_symmetry_1
_geom_bond_site_symmetry_2
Br1 Cu1 1_555 1_555
Br2 Cu2 1_555 1_555
Cu1 N1 1_555 1_555
Cu2 Br1 1_555 1_555
N1 C1 1_555 1_555
N2 Cu1 1_555 1_555
C1 H1 1_555 1_555
C2 C1 1_555 1_555
H2 C2 1_555 1_555
C3 C2 1_555 1_555
H3 C3 1_555 1_555
C4 C3 1_555 1_555
C5 N1 1_555 1_555
C6 N2 1_555 1_555
C7 C6 1_555 1_555
C8 C7 1_555 1_555
H4 C8 1_555 1_555
C9 C8 1_555 1_555
H5 C9 1_555 1_555
C10 N2 1_555 1_555
H6 C10 1_555 1_555
C11 C4 1_555 1_555
H7 C11 1_555 1_555
C12 C7 1_555 1_555
H8 C12 1_555 1_555
Cu1_2 Br1 1_555 1_555
Cu2_2 Br2 1_555 1_555
Br1_2 Cu1 1_555 1_555
Br2_2 Cu2 1_555 1_555
C4 C5 1_555 1_555
C5 C6 1_555 1_555
C9 C10 1_555 1_555
C11 C12 1_555 1_555

#END
