
#######################################################################
#
#                 Cambridge Crystallographic Data Centre
#                                CCDC 
#
#######################################################################
#
# If this CIF has been generated from an entry in the Cambridge 
# Structural Database, then it will include bibliographic, chemical, 
# crystal, experimental, refinement or atomic coordinate data resulting 
# from the CCDC's data processing and validation procedures.
#
#######################################################################

data_OHOFOG
_symmetry_cell_setting           trigonal
_symmetry_space_group_name_H-M   'P 3 2 1'
_symmetry_Int_Tables_number      150
_space_group_name_Hall           'P 3 2"'
loop_
_symmetry_equiv_pos_site_id
_symmetry_equiv_pos_as_xyz
1 x,y,z
2 -y,x-y,z
3 y,x,-z
4 -x+y,-x,z
5 -x,-x+y,-z
6 x-y,-y,-z
_cell_length_a                   19.298(4)
_cell_length_b                   19.298(4)
_cell_length_c                   7.967(2)
_cell_angle_alpha                90
_cell_angle_beta                 90
_cell_angle_gamma                120
_cell_volume                     2569.51
loop_
_atom_site_label
_atom_site_type_symbol
_atom_site_fract_x
_atom_site_fract_y
_atom_site_fract_z
Zn1 Zn -1.00000(6) -0.5384 0.5000
S1 S -0.94878(12) -0.56829(11) 0.0834(3)
O1 O -0.9706(2) -0.5290(2) 0.2109(7)
O2 O -1.0572(3) -0.6920(3) -0.1467(7)
O3 O -1.1171(3) -0.6309(3) 0.0207(8)
N1 N -0.6597(3) -0.0902(3) 0.5293(9)
N2 N -0.7081(4) -0.0754(4) 0.6354(9)
H1 H -0.6964(52) -0.0244(54) 0.715(13)
N3 N -0.8825(4) -0.4112(4) 0.7302(10)
N4 N -0.9181(3) -0.4214(3) 0.5778(11)
C1 C -0.7003(4) -0.1696(4) 0.5085(12)
C2 C -0.7718(4) -0.2053(4) 0.5967(11)
C3 C -0.7742(4) -0.1428(4) 0.6810(12)
C4 C -0.6693(5) -0.2105(4) 0.3981(13)
H2 H -0.6184(5) -0.1716(4) 0.3526(13)
H3 H -0.7063(5) -0.2371(4) 0.3083(13)
H4 H -0.6630(5) -0.2490(4) 0.4627(13)
C5 C -1.1671(5) -0.3082(5) 0.2009(13)
H5 H -1.1852(5) -0.2721(5) 0.1676(13)
H6 H -1.1622(5) -0.3348(5) 0.1035(13)
H7 H -1.1160(5) -0.2788(5) 0.2551(13)
C6 C -0.8269(5) -0.3344(4) 0.7600(12)
C7 C -0.8277(5) -0.2918(4) 0.6194(12)
C8 C -1.1160(4) -0.4628(4) 0.4917(13)
C9 C -1.2206(5) -0.5294(4) 0.0802(14)
H8 H -1.2054(5) -0.5602(4) 0.0104(14)
H9 H -1.2102(5) -0.4816(4) 0.0221(14)
H10 H -1.2766(5) -0.5606(4) 0.1059(14)
C10 C -1.0920(5) -0.4236(4) 0.6618(13)
H11 H -1.0515(5) -0.4328(4) 0.7091(13)
H12 H -1.1378(5) -0.4458(4) 0.7344(13)
H13 H -1.0712(5) -0.3670(4) 0.6503(13)
Zn1B Zn -0.5384 0.00000(6) 0.5000
S1D S -1.05122(12) -0.61951(16) -0.0834(3)
O1D O -1.0294(2) -0.5584(3) -0.2109(7)
Zn1_2 Zn -1.00000(6) -0.5384 -0.5000
Zn1A Zn -1.4616 -0.46160(6) 0.5000
N1D N -1.3403(3) -0.4305(4) 0.4707(9)
N2D N -1.2919(4) -0.3673(6) 0.3646(9)
H1D H -1.3036(52) -0.3280(75) 0.285(13)
C3D C -1.2258(4) -0.3686(6) 0.3190(12)
C2D C -1.2282(4) -0.4335(6) 0.4033(11)
C1D C -1.2997(4) -0.4693(6) 0.4915(12)
C4D C -1.3307(5) -0.5412(6) 0.6019(13)
H2D H -1.3816(5) -0.5532(6) 0.6474(13)
H3D H -1.2937(5) -0.5308(6) 0.6917(13)
H4D H -1.3370(5) -0.5860(6) 0.5373(13)
C7D C -1.1723(5) -0.4641(6) 0.3806(12)
C6D C -1.1731(5) -0.5075(6) 0.2400(12)
N3D N -1.1175(4) -0.5287(6) 0.2698(10)
N4D N -1.0819(3) -0.5033(4) 0.4222(11)
O1D_2 O -1.0294(2) -0.5584(3) 0.7891(7)
N1A N -0.9098(3) -0.5695(4) 0.5293(9)
N1B N -1.0902(3) -0.6597(3) 0.4707(9)
O2D O -0.9428(3) -0.6348(4) 0.1467(7)
O3D O -0.8829(3) -0.5138(4) -0.0207(8)
C8D C -0.8840(4) -0.3468(6) 0.5083(13)
C10D C -0.9080(5) -0.3316(6) 0.3382(13)
H11D H -0.9485(5) -0.3813(6) 0.2909(13)
H12D H -0.8622(5) -0.3080(6) 0.2656(13)
H13D H -0.9288(5) -0.2958(6) 0.3497(13)
C9D C -0.7794(5) -0.3088(6) 0.9198(14)
H8D H -0.7946(5) -0.3548(6) 0.9896(14)
H9D H -0.7898(5) -0.2714(6) 0.9779(14)
H10D H -0.7234(5) -0.2840(6) 0.8941(14)
C5D C -0.8329(5) -0.1411(7) 0.7991(13)
H5D H -0.8148(5) -0.0869(7) 0.8324(13)
H6D H -0.8378(5) -0.1726(7) 0.8965(13)
H7D H -0.8840(5) -0.1628(7) 0.7449(13)
loop_
_geom_bond_atom_site_label_1
_geom_bond_atom_site_label_2
_geom_bond_site_symmetry_1
_geom_bond_site_symmetry_2
Zn1 O1 1_555 1_555
S1 O1 1_555 1_555
O2 S1D 1_555 1_555
O3 S1D 1_555 1_555
N1 N2 1_555 1_555
N2 H1 1_555 1_555
N3 N4 1_555 1_555
N4 Zn1 1_555 1_555
C1 N1 1_555 1_555
C2 C1 1_555 1_555
C3 N2 1_555 1_555
C4 C1 1_555 1_555
H2 C4 1_555 1_555
H3 C4 1_555 1_555
H4 C4 1_555 1_555
C5 H5 1_555 1_555
H6 C5 1_555 1_555
H7 C5 1_555 1_555
C6 N3 1_555 1_555
C7 C2 1_555 1_555
C8 C10 1_555 1_555
C9 H8 1_555 1_555
H9 C9 1_555 1_555
H10 C9 1_555 1_555
C10 H11 1_555 1_555
H12 C10 1_555 1_555
H13 C10 1_555 1_555
Zn1B N1 1_555 1_555
S1D S1 1_555 1_555
O1D S1D 1_555 1_555
Zn1_2 O1D 1_555 1_555
Zn1A N1D 1_555 1_555
N1D N2D 1_555 1_555
N2D H1D 1_555 1_555
C3D C5 1_555 1_555
C2D C3D 1_555 1_555
C1D N1D 1_555 1_555
C4D C1D 1_555 1_555
H2D C4D 1_555 1_555
H3D C4D 1_555 1_555
H4D C4D 1_555 1_555
C7D C8 1_555 1_555
C6D C9 1_555 1_555
N3D C6D 1_555 1_555
N4D Zn1 1_555 1_555
O1D_2 Zn1 1_555 1_555
N1A Zn1 1_555 1_555
N1B Zn1 1_555 1_555
O2D S1 1_555 1_555
O3D S1 1_555 1_555
C8D N4 1_555 1_555
C10D C8D 1_555 1_555
H11D C10D 1_555 1_555
H12D C10D 1_555 1_555
H13D C10D 1_555 1_555
C9D C6 1_555 1_555
H8D C9D 1_555 1_555
H9D C9D 1_555 1_555
H10D C9D 1_555 1_555
C5D C3 1_555 1_555
H5D C5D 1_555 1_555
H6D C5D 1_555 1_555
H7D C5D 1_555 1_555
C2 C3 1_555 1_555
C6 C7 1_555 1_555
C7 C8D 1_555 1_555
C8 N4D 1_555 1_555
N2D C3D 1_555 1_555
C2D C1D 1_555 1_555
C2D C7D 1_555 1_555
C7D C6D 1_555 1_555
N3D N4D 1_555 1_555

#END
