
#######################################################################
#
#                 Cambridge Crystallographic Data Centre
#                                CCDC 
#
#######################################################################
#
# If this CIF has been generated from an entry in the Cambridge 
# Structural Database, then it will include bibliographic, chemical, 
# crystal, experimental, refinement or atomic coordinate data resulting 
# from the CCDC's data processing and validation procedures.
#
#######################################################################

data_OHOLOM
_symmetry_cell_setting           monoclinic
_symmetry_space_group_name_H-M   'C 2/c'
_symmetry_Int_Tables_number      15
_space_group_name_Hall           '-C 2yn'
loop_
_symmetry_equiv_pos_site_id
_symmetry_equiv_pos_as_xyz
1 x,y,z
2 1/2+x,1/2+y,z
3 x,-y,1/2+z
4 1/2+x,1/2-y,1/2+z
5 -x,-y,-z
6 1/2-x,1/2-y,-z
7 -x,y,1/2-z
8 1/2-x,1/2+y,1/2-z
_cell_length_a                   19.658(7)
_cell_length_b                   14.108(5)
_cell_length_c                   19.540(6)
_cell_angle_alpha                90
_cell_angle_beta                 90.407(4)
_cell_angle_gamma                90
_cell_volume                     5418.99
loop_
_atom_site_label
_atom_site_type_symbol
_atom_site_fract_x
_atom_site_fract_y
_atom_site_fract_z
Ge1 Ge 0.5000 0.31062(8) 0.2500
Zn1 Zn 0.36718(4) 0.44062(7) 0.22985(4)
Zn2 Zn 0.48311(4) 0.44069(7) 0.11620(4)
Zn3 Zn 0.63346(4) 0.17946(7) 0.23441(4)
Zn4 Zn 0.51841(4) 0.17639(6) 0.12022(4)
O1 O 0.4493(2) 0.3795(4) 0.1983(2)
O2 O 0.5521(2) 0.2429(3) 0.2005(2)
O3 O 0.3827(3) 0.5730(4) 0.2089(3)
O4 O 0.4631(3) 0.5743(4) 0.1294(3)
O5 O 0.6112(3) 0.0609(5) 0.2770(3)
O6 O 0.5265(4) 0.0630(5) 0.3516(4)
O7 O 0.2931(3) 0.3910(5) 0.1757(3)
O8 O 0.3051(3) 0.2402(5) 0.2037(3)
O9 O 0.4549(3) 0.2346(5) 0.0595(3)
O10 O 0.4325(3) 0.3866(5) 0.0404(3)
O11 O 0.1808(3) 0.3504(5) 0.6503(3)
O12 O 0.0994(3) 0.3584(5) 0.5716(3)
O13 O 0.3415(3) 0.4268(5) 0.3240(3)
O14 O 0.5779(3) 0.4220(5) 0.0972(3)
C1 C 0.4238(4) 0.6134(6) 0.1709(4)
C2 C 0.4263(4) 0.7188(6) 0.1741(4)
C3 C 0.3821(5) 0.7673(6) 0.2161(4)
H1 H 0.3502 0.7342 0.2417
C4 C 0.3854(5) 0.8638(7) 0.2200(4)
H2 H 0.3563 0.8951 0.2498
C5 C 0.4295(4) 0.9157(6) 0.1821(4)
C6 C 0.4731(5) 0.8667(7) 0.1393(5)
H3 H 0.5037 0.9001 0.1125
C7 C 0.4719(4) 0.7703(7) 0.1360(5)
H4 H 0.5022 0.7388 0.1076
C8 C 0.5696(5) 0.0216(6) 0.3149(4)
C9 C 0.2793(4) 0.3055(7) 0.1699(4)
C10 C 0.2262(4) 0.2776(6) 0.1185(4)
C11 C 0.2075(5) 0.1851(7) 0.1076(5)
H5 H 0.2284 0.1378 0.1334
C12 C 0.1594(5) 0.1604(7) 0.0604(4)
H6 H 0.1479 0.0970 0.0544
C13 C 0.1280(4) 0.2285(6) 0.0218(4)
C14 C 0.1450(5) 0.3207(7) 0.0319(5)
H7 H 0.1237 0.3674 0.0059
C15 C 0.1933(4) 0.3466(7) 0.0804(4)
H8 H 0.2036 0.4102 0.0874
C16 C 0.4240(4) 0.2998(7) 0.0298(4)
C17 C 0.1593(4) 0.3601(6) 0.5898(4)
C18 C 0.2124(4) 0.3752(6) 0.5372(4)
C19 C 0.2809(4) 0.3773(7) 0.5536(4)
H9 H 0.2943 0.3702 0.5990
C20 C 0.3295(4) 0.3897(7) 0.5041(4)
H10 H 0.3754 0.3894 0.5160
C21 C 0.3100(4) 0.4026(6) 0.4371(4)
C22 C 0.2424(4) 0.4014(7) 0.4199(4)
H11 H 0.2294 0.4108 0.3745
C23 C 0.1933(4) 0.3867(7) 0.4686(4)
H12 H 0.1476 0.3843 0.4560
C24 C 0.3622(4) 0.4171(6) 0.3838(4)
O1F O 0.5507(2) 0.3795(4) 0.3017(2)
Zn1F Zn 0.63282(4) 0.44062(7) 0.27015(4)
O3F O 0.6173(3) 0.5730(4) 0.2911(3)
O4F O 0.5369(3) 0.5743(4) 0.3706(3)
Zn2F Zn 0.51689(4) 0.44069(7) 0.38380(4)
O10F O 0.5675(3) 0.3866(5) 0.4596(3)
O9F O 0.5451(3) 0.2346(5) 0.4405(3)
Zn4F Zn 0.48159(4) 0.17639(6) 0.37978(4)
O2F O 0.4479(2) 0.2429(3) 0.2995(2)
Zn3F Zn 0.36654(4) 0.17946(7) 0.26559(4)
O5F O 0.3888(3) 0.0609(5) 0.2230(3)
O6F O 0.4735(4) 0.0630(5) 0.1484(4)
O12E O 0.4006(3) 0.1416(5) 0.4284(3)
O11E O 0.3192(3) 0.1496(5) 0.3497(3)
O8F O 0.6949(3) 0.2402(5) 0.2963(3)
O14F O 0.4221(3) 0.4220(5) 0.4028(3)
O11C O 0.6808(3) 0.1496(5) 0.1503(3)
Zn3C Zn 0.13346(4) 0.32054(7) 0.73441(4)
Zn4C Zn 0.01841(4) 0.32361(6) 0.62022(4)
O12C O 0.5994(3) 0.1416(5) 0.0716(3)
C5F C 0.5705(4) -0.0843(6) 0.3179(4)
C4F C 0.6146(5) -0.1362(7) 0.2800(4)
C3F C 0.6179(5) -0.2327(6) 0.2839(4)
C2F C 0.5737(4) -0.2812(6) 0.3259(4)
C1F C 0.5762(4) -0.3866(6) 0.3291(4)
O3F_2 O 0.6173(3) -0.4270(4) 0.2911(3)
O4F_2 O 0.5369(3) -0.4257(4) 0.3706(3)
C7F C 0.5281(4) -0.2297(7) 0.3640(5)
C6F C 0.5269(5) -0.1333(7) 0.3607(5)
H3F H 0.4963 -0.0999 0.3875
H4F H 0.4978 -0.2612 0.3924
H1F H 0.6498 -0.2658 0.2583
H2F H 0.6437 -0.1049 0.2502
O7F O 0.7069(3) 0.3910(5) 0.3243(3)
O13F O 0.6585(3) 0.4268(5) 0.1760(3)
C13E C 0.3720(4) 0.2715(6) -0.0218(4)
C24F C 0.6378(4) 0.4171(6) 0.1162(4)
C8F C 0.4304(5) 1.0216(6) 0.1851(4)
C16E C 0.0760(4) 0.2002(7) -0.0298(4)
C21F C 0.6900(4) 0.4026(6) 0.0629(4)
Zn1F_2 Zn 0.63282(4) -0.55938(7) 0.27015(4)
Zn2F_2 Zn 0.51689(4) -0.55931(7) 0.38380(4)
C12E C 0.3406(5) 0.3396(7) -0.0604(4)
C14E C 0.3550(5) 0.1793(7) -0.0319(5)
O5F_2 O 0.3888(3) 1.0609(5) 0.2230(3)
O6F_2 O 0.4735(4) 1.0630(5) 0.1484(4)
O9E O 0.0451(3) 0.2654(5) -0.0595(3)
O10E O 0.0675(3) 0.1134(5) -0.0404(3)
C20F C 0.6705(4) 0.3897(7) -0.0041(4)
C22F C 0.7576(4) 0.4014(7) 0.0801(4)
C11E C 0.2925(5) 0.3149(7) -0.1076(5)
H6E H 0.3521 0.4030 -0.0544
H7E H 0.3763 0.1326 -0.0059
C15E C 0.3067(4) 0.1534(7) -0.0804(4)
Zn3F_2 Zn 0.36654(4) 1.17946(7) 0.26559(4)
Zn4_2 Zn 0.51841(4) 1.17639(6) 0.12022(4)
Zn4E Zn -0.01841(4) 0.32361(6) -0.12022(4)
Zn2E Zn 0.01689(4) 0.05931(7) -0.11620(4)
C19F C 0.7191(4) 0.3773(7) -0.0536(4)
H10F H 0.6246 0.3894 -0.0160
H11F H 0.7706 0.4108 0.1255
C23F C 0.8067(4) 0.3867(7) 0.0314(4)
C10E C 0.2738(4) 0.2224(6) -0.1185(4)
H5E H 0.2716 0.3622 -0.1334
H8E H 0.2964 0.0898 -0.0874
C18F C 0.7876(4) 0.3752(6) -0.0372(4)
H9F H 0.7057 0.3702 -0.0990
H12F H 0.8524 0.3843 0.0440
C9E C 0.2207(4) 0.1945(7) -0.1699(4)
C17F C 0.8407(4) 0.3601(6) -0.0898(4)
O7E O 0.2069(3) 0.1090(5) -0.1757(3)
O8E O 0.1949(3) 0.2598(5) -0.2037(3)
O11F O 0.8192(3) 0.3504(5) -0.1503(3)
O12F O 0.9006(3) 0.3584(5) -0.0716(3)
Zn1E Zn 0.13282(4) 0.05938(7) -0.22985(4)
Zn3C_2 Zn 0.13346(4) 0.32054(7) -0.26559(4)
Zn3E Zn 0.86654(4) 0.32054(7) -0.23441(4)
Zn4E_2 Zn 0.98159(4) 0.32361(6) -0.12022(4)
loop_
_geom_bond_atom_site_label_1
_geom_bond_atom_site_label_2
_geom_bond_site_symmetry_1
_geom_bond_site_symmetry_2
Ge1 O1 1_555 1_555
Zn1 O1 1_555 1_555
Zn2 O1 1_555 1_555
Zn3 O2 1_555 1_555
Zn4 O2 1_555 1_555
O2 Ge1 1_555 1_555
O3 Zn1 1_555 1_555
O4 Zn2 1_555 1_555
O5 Zn3 1_555 1_555
O6 C8 1_555 1_555
O7 Zn1 1_555 1_555
O8 C9 1_555 1_555
O9 Zn4 1_555 1_555
O10 Zn2 1_555 1_555
O11 C17 1_555 1_555
O12 C17 1_555 1_555
O13 Zn1 1_555 1_555
O14 Zn2 1_555 1_555
C1 O3 1_555 1_555
C2 C1 1_555 1_555
C3 C2 1_555 1_555
H1 C3 1_555 1_555
C4 C3 1_555 1_555
H2 C4 1_555 1_555
C5 C4 1_555 1_555
C6 C5 1_555 1_555
H3 C6 1_555 1_555
C7 C2 1_555 1_555
H4 C7 1_555 1_555
C8 O5 1_555 1_555
C9 O7 1_555 1_555
C10 C9 1_555 1_555
C11 C10 1_555 1_555
H5 C11 1_555 1_555
C12 C11 1_555 1_555
H6 C12 1_555 1_555
C13 C12 1_555 1_555
C14 C13 1_555 1_555
H7 C14 1_555 1_555
C15 C10 1_555 1_555
H8 C15 1_555 1_555
C16 O9 1_555 1_555
C17 C18 1_555 1_555
C18 C19 1_555 1_555
C19 H9 1_555 1_555
C20 C19 1_555 1_555
H10 C20 1_555 1_555
C21 C20 1_555 1_555
C22 C21 1_555 1_555
H11 C22 1_555 1_555
C23 C18 1_555 1_555
H12 C23 1_555 1_555
C24 O13 1_555 1_555
O1F Ge1 1_555 1_555
Zn1F O1F 1_555 1_555
O3F Zn1F 1_555 1_555
O4F Zn2F 1_555 1_555
Zn2F O1F 1_555 1_555
O10F Zn2F 1_555 1_555
O9F Zn4F 1_555 1_555
Zn4F O6 1_555 1_555
O2F Ge1 1_555 1_555
Zn3F O8 1_555 1_555
O5F Zn3F 1_555 1_555
O6F Zn4 1_555 1_555
O12E Zn4F 1_555 1_555
O11E Zn3F 1_555 1_555
O8F Zn3 1_555 1_555
O14F C24 1_555 1_555
O11C Zn3 1_555 1_555
Zn3C O11 1_555 1_555
Zn4C O12 1_555 1_555
O12C Zn4 1_555 1_555
C5F C8 1_555 1_555
C4F C5F 1_555 1_555
C3F C4F 1_555 1_555
C2F C3F 1_555 1_555
C1F C2F 1_555 1_555
O3F_2 C1F 1_555 1_555
O4F_2 C1F 1_555 1_555
C7F C2F 1_555 1_555
C6F C5F 1_555 1_555
H3F C6F 1_555 1_555
H4F C7F 1_555 1_555
H1F C3F 1_555 1_555
H2F C4F 1_555 1_555
O7F Zn1F 1_555 1_555
O13F Zn1F 1_555 1_555
C13E C16 1_555 1_555
C24F O14 1_555 1_555
C8F C5 1_555 1_555
C16E C13 1_555 1_555
C21F C24F 1_555 1_555
Zn1F_2 O3F_2 1_555 1_555
Zn2F_2 O4F_2 1_555 1_555
C12E C13E 1_555 1_555
C14E C13E 1_555 1_555
O5F_2 C8F 1_555 1_555
O6F_2 C8F 1_555 1_555
O9E C16E 1_555 1_555
O10E C16E 1_555 1_555
C20F C21F 1_555 1_555
C22F C21F 1_555 1_555
C11E C12E 1_555 1_555
H6E C12E 1_555 1_555
H7E C14E 1_555 1_555
C15E C14E 1_555 1_555
Zn3F_2 O5F_2 1_555 1_555
Zn4_2 O6F_2 1_555 1_555
Zn4E O9E 1_555 1_555
Zn2E O10E 1_555 1_555
C19F C20F 1_555 1_555
H10F C20F 1_555 1_555
H11F C22F 1_555 1_555
C23F C22F 1_555 1_555
C10E C11E 1_555 1_555
H5E C11E 1_555 1_555
H8E C15E 1_555 1_555
C18F C19F 1_555 1_555
H9F C19F 1_555 1_555
H12F C23F 1_555 1_555
C9E C10E 1_555 1_555
C17F C18F 1_555 1_555
O7E C9E 1_555 1_555
O8E C9E 1_555 1_555
O11F C17F 1_555 1_555
O12F C17F 1_555 1_555
Zn1E O7E 1_555 1_555
Zn3C_2 O8E 1_555 1_555
Zn3E O11F 1_555 1_555
Zn4E_2 O12F 1_555 1_555
O4 C1 1_555 1_555
O10 C16 1_555 1_555
C6 C7 1_555 1_555
C14 C15 1_555 1_555
C21 C24 1_555 1_555
C22 C23 1_555 1_555
Zn2F O14F 1_555 1_555
Zn4F O2F 1_555 1_555
O2F Zn3F 1_555 1_555
C7F C6F 1_555 1_555
O13F C24F 1_555 1_555
C15E C10E 1_555 1_555
C23F C18F 1_555 1_555

#END
