
#######################################################################
#
#                 Cambridge Crystallographic Data Centre
#                                CCDC 
#
#######################################################################
#
# If this CIF has been generated from an entry in the Cambridge 
# Structural Database, then it will include bibliographic, chemical, 
# crystal, experimental, refinement or atomic coordinate data resulting 
# from the CCDC's data processing and validation procedures.
#
#######################################################################

data_OHOLON
_symmetry_cell_setting           monoclinic
_symmetry_space_group_name_H-M   'P 21/c'
_symmetry_Int_Tables_number      14
_space_group_name_Hall           '-P 2ybc'
loop_
_symmetry_equiv_pos_site_id
_symmetry_equiv_pos_as_xyz
1 x,y,z
2 -x,1/2+y,1/2-z
3 -x,-y,-z
4 x,1/2-y,1/2+z
_cell_length_a                   13.213(3)
_cell_length_b                   17.556(4)
_cell_length_c                   13.114(3)
_cell_angle_alpha                90
_cell_angle_beta                 114.17(3)
_cell_angle_gamma                90
_cell_volume                     2775.34
loop_
_atom_site_label
_atom_site_type_symbol
_atom_site_fract_x
_atom_site_fract_y
_atom_site_fract_z
K1 K 0.45470(4) 0.67392(4) 0.59447(4)
K2 K 0.51859(5) 0.87026(4) 0.44163(5)
K3 K 1.39072(5) 0.87058(4) 0.76510(6)
K4 K 1.13523(5) 0.54786(3) 0.66846(5)
K5 K 1.06642(5) 0.59859(4) 0.95213(5)
K6 K 1.13252(5) 0.93895(4) 0.84077(5)
N1 N 0.86993(14) 0.75278(11) 0.64848(14)
N2 N 0.74162(15) 0.85404(11) 0.58515(15)
N3 N 0.93812(15) 0.87888(11) 0.67449(16)
N4 N 1.06121(15) 0.78014(11) 0.74271(15)
N5 N 0.99416(15) 0.65009(11) 0.71643(15)
N6 N 0.80721(15) 0.62524(11) 0.62078(15)
N7 N 0.67688(15) 0.73034(11) 0.55880(15)
N8 N 0.81656(16) 0.97753(11) 0.61088(16)
N9 N 1.17677(15) 0.67398(12) 0.81207(16)
N10 N 0.61533(15) 0.60747(11) 0.52921(16)
N11 N 0.62899(19) 1.03334(14) 0.5156(2)
N12 N 1.34680(16) 0.75270(13) 0.88775(18)
N13 N 0.64027(16) 0.46753(13) 0.55082(18)
C1 C 0.76033(17) 0.77955(13) 0.59636(17)
C2 C 0.95828(18) 0.80511(14) 0.68879(18)
C3 C 0.89058(18) 0.67436(13) 0.66224(17)
C4 C 0.83062(19) 0.90171(14) 0.62261(18)
C5 C 1.07566(18) 0.70414(14) 0.75554(18)
C6 C 0.70264(17) 0.65443(13) 0.57048(17)
C7 C 0.7138(2) 1.00294(14) 0.5593(2)
C8 C 1.26385(19) 0.71988(14) 0.85032(19)
C9 C 0.63406(18) 0.53342(15) 0.5430(2)
C10 C 0.86867(18) 0.72835(13) 0.89924(17)
C11 C 0.67718(18) 0.77113(14) 0.81367(18)
C12 C 0.82807(19) 0.86344(14) 0.87896(18)
C13 C 0.72311(19) 0.64468(14) 0.83214(18)
C14 C 0.6454(2) 0.89987(15) 0.7956(2)
C15 C 1.00685(19) 0.81866(14) 0.96227(18)
C16 C 0.7582(2) 0.51918(15) 0.83131(19)
C17 C 0.6043(2) 1.02501(16) 0.7735(2)
C18 C 1.18564(19) 0.77865(15) 1.0533(2)
N14 N 0.79202(15) 0.78803(11) 0.86508(15)
N15 N 0.83443(15) 0.65694(11) 0.88204(15)
N16 N 0.64414(15) 0.69969(11) 0.80080(16)
N17 N 0.60518(16) 0.82738(12) 0.77885(17)
N18 N 0.75490(16) 0.91897(12) 0.84390(17)
N19 N 0.93702(16) 0.87896(12) 0.92762(16)
N20 N 0.97632(15) 0.74434(11) 0.94903(15)
N21 N 0.68407(16) 0.57349(12) 0.81044(17)
N22 N 0.56851(17) 0.95410(13) 0.76122(19)
N23 N 1.11525(16) 0.83679(12) 1.01370(16)
N24 N 1.25404(17) 0.73312(14) 1.09072(18)
N25 N 0.62827(19) 1.08871(14) 0.7792(2)
N26 N 0.81425(19) 0.46585(13) 0.84345(18)
K1C K 1.45470(4) 0.82608(4) 1.09447(4)
K1B K 0.54530(4) 0.32608(4) 0.40553(4)
K1A K 0.54530(4) 1.17392(4) 0.90553(4)
K2B K 0.48141(5) 1.12974(4) 0.55837(5)
K2C K 1.51859(5) 0.62974(4) 0.94163(5)
K3C K 0.39072(5) 0.62942(4) 0.26510(6)
K3A K 0.60928(5) 0.37058(4) 0.73490(6)
K3_2 K 0.39072(5) 0.87058(4) 0.76510(6)
K3C_2 K 1.39072(5) 0.62942(4) 1.26510(6)
K4A K 0.86477(5) 1.04786(3) 0.83154(5)
K4C K 1.13523(5) 0.95214(3) 1.16846(5)
K5A K 0.93358(5) 1.09859(4) 0.54787(5)
K5B K 0.93358(5) 0.40141(4) 1.04787(5)
K6A K 0.86748(5) 0.43895(4) 0.65923(5)
N8A N 1.18344(16) 0.47753(11) 0.88912(16)
N11B N 0.37101(19) 0.96666(14) 0.4844(2)
N12C N 0.34680(16) 0.74730(13) 0.38775(18)
N13B N 0.35973(16) 0.53247(13) 0.44918(18)
N13A N 1.35973(16) 0.96753(13) 0.94918(18)
N17_2 N 1.60518(16) 0.82738(12) 0.77885(17)
N18A N 1.24510(16) 0.41897(12) 0.65610(17)
N22_2 N 1.56851(17) 0.95410(13) 0.76122(19)
N23C N 1.11525(16) 0.66321(12) 0.51370(16)
N24C N 0.25404(17) 0.76688(14) 0.59072(18)
N24C_2 N 1.25404(17) 0.76688(14) 0.59072(18)
N25A N 0.37173(19) 0.58871(14) 0.7208(2)
N25B N 0.37173(19) 0.91129(14) 0.2208(2)
N25A_2 N 1.37173(19) 0.58871(14) 0.7208(2)
N26A N 1.18575(19) 0.96585(13) 0.65655(18)
N26B N 1.18575(19) 0.53415(13) 1.15655(18)
loop_
_geom_bond_atom_site_label_1
_geom_bond_atom_site_label_2
_geom_bond_site_symmetry_1
_geom_bond_site_symmetry_2
K1 N10 1_555 1_555
K2 N2 1_555 1_555
K3 N12 1_555 1_555
K4 N5 1_555 1_555
K5 N5 1_555 1_555
K6 N3 1_555 1_555
N1 C1 1_555 1_555
N2 C1 1_555 1_555
N3 C2 1_555 1_555
N4 K6 1_555 1_555
N5 C3 1_555 1_555
N6 C3 1_555 1_555
N7 C1 1_555 1_555
N8 C4 1_555 1_555
N9 K4 1_555 1_555
N10 C6 1_555 1_555
N11 K2 1_555 1_555
N12 C8 1_555 1_555
N13 C9 1_555 1_555
C2 N1 1_555 1_555
C3 N1 1_555 1_555
C4 N2 1_555 1_555
C5 N4 1_555 1_555
C6 N6 1_555 1_555
C7 N8 1_555 1_555
C8 N9 1_555 1_555
C9 N10 1_555 1_555
C10 N14 1_555 1_555
C11 N14 1_555 1_555
C12 N14 1_555 1_555
C13 N15 1_555 1_555
C14 N17 1_555 1_555
C15 N19 1_555 1_555
C16 N21 1_555 1_555
C17 N22 1_555 1_555
C18 N23 1_555 1_555
N15 K5 1_555 1_555
N16 K1 1_555 1_555
N17 C11 1_555 1_555
N18 C12 1_555 1_555
N19 C12 1_555 1_555
N20 K5 1_555 1_555
N21 C13 1_555 1_555
N22 C14 1_555 1_555
N23 K6 1_555 1_555
N24 C18 1_555 1_555
N25 C17 1_555 1_555
N26 C16 1_555 1_555
K1C N12 1_555 1_555
K1B N13 1_555 1_555
K1A N25 1_555 1_555
K2B N11 1_555 1_555
K2C N12 1_555 1_555
K3C N12C 1_555 1_555
K3A N13 1_555 1_555
K3_2 N17 1_555 1_555
K3C_2 N24 1_555 1_555
K4A N8 1_555 1_555
K4C N23 1_555 1_555
K5A N8 1_555 1_555
K5B N26 1_555 1_555
K6A N13 1_555 1_555
N8A K4 1_555 1_555
N11B K2 1_555 1_555
N12C K1 1_555 1_555
N13B K1 1_555 1_555
N13A K3 1_555 1_555
N17_2 K3 1_555 1_555
N18A K4 1_555 1_555
N22_2 K3 1_555 1_555
N23C K4 1_555 1_555
N24C K1 1_555 1_555
N24C_2 K3 1_555 1_555
N25A K1 1_555 1_555
N25B K2 1_555 1_555
N25A_2 K4 1_555 1_555
N26A K3 1_555 1_555
N26B K5 1_555 1_555
K2 N12C 1_555 1_555
K5 N9 1_555 1_555
K5 N8A 1_555 1_555
K6 N13A 1_555 1_555
K6 N26A 1_555 1_555
N3 C4 1_555 1_555
N4 C2 1_555 1_555
N5 C5 1_555 1_555
N7 C6 1_555 1_555
N9 C5 1_555 1_555
N11 C7 1_555 1_555
C10 N15 1_555 1_555
C10 N20 1_555 1_555
C11 N16 1_555 1_555
C13 N16 1_555 1_555
C14 N18 1_555 1_555
C15 N20 1_555 1_555
C15 N23 1_555 1_555
N18 K4A 1_555 1_555
N22 K3_2 1_555 1_555
N24 K1C 1_555 1_555
N25 K2B 1_555 1_555
N25 K4A 1_555 1_555
N26 K3A 1_555 1_555
N26 K6A 1_555 1_555
K1C N13A 1_555 1_555
K2B N11B 1_555 1_555
K2C N25A_2 1_555 1_555
K3C N13B 1_555 1_555
K3_2 N24C 1_555 1_555
K3C_2 N26B 1_555 1_555

#END
