
#######################################################################
#
#                 Cambridge Crystallographic Data Centre
#                                CCDC 
#
#######################################################################
#
# If this CIF has been generated from an entry in the Cambridge 
# Structural Database, then it will include bibliographic, chemical, 
# crystal, experimental, refinement or atomic coordinate data resulting 
# from the CCDC's data processing and validation procedures.
#
#######################################################################

data_OHOQEI
_symmetry_cell_setting           monoclinic
_symmetry_space_group_name_H-M   'P 21/n'
_symmetry_Int_Tables_number      14
_space_group_name_Hall           '-P 2yn'
loop_
_symmetry_equiv_pos_site_id
_symmetry_equiv_pos_as_xyz
1 x,y,z
2 1/2-x,1/2+y,1/2-z
3 -x,-y,-z
4 1/2+x,1/2-y,1/2+z
_cell_length_a                   13.7528(5)
_cell_length_b                   14.7010(7)
_cell_length_c                   22.6381(11)
_cell_angle_alpha                90
_cell_angle_beta                 96.594(2)
_cell_angle_gamma                90
_cell_volume                     4546.69
loop_
_atom_site_label
_atom_site_type_symbol
_atom_site_fract_x
_atom_site_fract_y
_atom_site_fract_z
Fe1 Fe 0.69200(4) 0.45683(4) 0.79263(3)
N1 N 0.5344(3) 0.4604(2) 0.80064(15)
N2 N -0.1503(3) 0.4556(2) 0.78333(15)
O1 O 0.7056(2) 0.56519(19) 0.84003(12)
N3 N 0.7296(2) 0.3819(2) 0.87142(15)
C2 C 0.6622(3) 0.4510(3) 0.66166(18)
C4 C 0.3695(3) 0.4716(3) 0.75316(19)
H3 H 0.3274 0.4720 0.7179
O2 O 0.6708(2) 0.49556(19) 0.71277(12)
C7 C 0.4683(3) 0.4601(3) 0.7519(2)
H6 H 0.4910 0.4515 0.7151
C8 C 0.3327(3) 0.4827(3) 0.80735(19)
C9 C 0.4986(3) 0.4718(3) 0.85308(19)
H7 H 0.5423 0.4724 0.8876
C10 C 0.7455(3) 0.2854(3) 0.86011(19)
H8 H 0.7400 0.2501 0.8958
H9 H 0.8104 0.2762 0.8483
C13 C 0.6677(3) 0.2557(3) 0.81035(19)
H11 H 0.6832 0.1959 0.7959
H12 H 0.6041 0.2529 0.8249
N4 N 0.6665(3) 0.3226(2) 0.76272(15)
C14 C 0.6577(3) 0.4577(3) 0.5547(2)
H13 H 0.6634 0.4914 0.5205
C15 C 0.7454(3) 0.4132(3) 0.92398(19)
H14 H 0.7663 0.3723 0.9542
C16 C 0.7439(3) 0.5292(3) 1.0015(2)
H15 H 0.7607 0.4836 1.0293
C19 C 0.6680(3) 0.5006(3) 0.60875(19)
H17 H 0.6791 0.5630 0.6106
C22 C 0.7335(3) 0.5080(3) 0.94072(19)
C23 C 0.6495(3) 0.2969(3) 0.70794(19)
H20 H 0.6374 0.2354 0.7007
C24 C 0.1558(3) 0.4738(3) 0.7589(2)
H21 H 0.1634 0.5186 0.7283
H22 H 0.1746 0.4153 0.7439
C26 C 0.6348(3) 0.3157(3) 0.60077(19)
H24 H 0.6232 0.2535 0.5978
C27 C 0.6477(3) 0.3562(3) 0.65730(19)
C29 C 0.4015(3) 0.4826(3) 0.8580(2)
H25 H 0.3806 0.4901 0.8953
C30 C 0.2264(3) 0.4973(3) 0.8135(2)
H26 H 0.2170 0.5606 0.8233
H27 H 0.2095 0.4610 0.8466
C34 C 0.6389(3) 0.3654(3) 0.5499(2)
H30 H 0.6293 0.3376 0.5128
C36 C 0.7111(3) 0.5790(3) 0.89841(19)
C37 C 0.0497(3) 0.4694(3) 0.7680(2)
C38 C 0.6939(3) 0.6665(3) 0.9194(2)
H32 H 0.6754 0.7130 0.8926
C39 C 0.7297(3) 0.6165(3) 1.0208(2)
H33 H 0.7373 0.6299 1.0612
C40 C 0.7043(3) 0.6839(3) 0.9796(2)
H34 H 0.6939 0.7426 0.9928
C41 C -0.1146(3) 0.4237(3) 0.7344(2)
H35 H -0.1580 0.3975 0.7047
C42 C -0.0173(3) 0.4280(3) 0.7262(2)
H36 H 0.0038 0.4027 0.6922
C48 C 0.0132(4) 0.5007(4) 0.8187(2)
H42 H 0.0551 0.5270 0.8491
C52 C -0.0858(4) 0.4930(4) 0.8241(2)
H46 H -0.1083 0.5153 0.8585
Fe1_2 Fe -0.30800(4) 0.45683(4) 0.79263(3)
N2_2 N 0.8497(3) 0.4556(2) 0.78333(15)
C1 C 0.3900(3) 0.4514(3) 0.59280(18)
H1 H 0.4451 0.4157 0.5899
C3 C 0.4025(3) 0.5436(3) 0.60300(18)
H2 H 0.4651 0.5683 0.6070
C5 C 0.2184(3) 0.4681(3) 0.59233(19)
H4 H 0.1556 0.4437 0.5898
C6 C 0.3227(4) 0.5995(3) 0.60739(19)
H5 H 0.3311 0.6615 0.6141
C11 C 0.2977(3) 0.4092(3) 0.58657(18)
C12 C 0.2302(4) 0.5614(3) 0.6017(2)
H10 H 0.1758 0.5981 0.6041
C17 C 0.2064(4) 0.2519(3) 0.6794(2)
H16 H 0.1442 0.2593 0.6591
C18 C 0.2881(3) 0.2634(3) 0.64903(19)
C20 C 0.3784(4) 0.2528(3) 0.6826(2)
H18 H 0.4345 0.2608 0.6639
C21 C 0.3894(4) 0.2309(3) 0.7425(2)
H19 H 0.4515 0.2239 0.7630
C25 C 0.3990(3) 0.2887(3) 0.4928(2)
H23 H 0.3781 0.3468 0.4811
C28 C 0.3662(3) 0.2508(3) 0.54395(18)
C31 C 0.1796(3) 0.2752(3) 0.53794(19)
C32 C 0.2166(4) 0.2293(3) 0.7397(2)
H28 H 0.1609 0.2208 0.7588
C33 C 0.1299(3) 0.1919(3) 0.5438(2)
H29 H 0.1518 0.1532 0.5750
C35 C 0.4016(3) 0.1639(3) 0.5583(2)
H31 H 0.3813 0.1352 0.5914
C43 C 0.4951(3) 0.1579(3) 0.4756(2)
H37 H 0.5377 0.1275 0.4533
C44 C 0.4657(3) 0.1177(3) 0.5256(2)
H38 H 0.4886 0.0602 0.5374
C45 C 0.0155(4) 0.2218(3) 0.4581(2)
H39 H -0.0385 0.2045 0.4319
C46 C 0.4615(3) 0.2427(3) 0.4589(2)
H40 H 0.4805 0.2697 0.4249
C47 C 0.0619(3) 0.3036(3) 0.4505(2)
H41 H 0.0389 0.3417 0.4192
C49 C 0.3076(4) 0.2195(3) 0.7714(2)
H43 H 0.3136 0.2054 0.8117
C50 C 0.0500(3) 0.1663(3) 0.5046(2)
H44 H 0.0193 0.1109 0.5097
C51 C 0.1430(3) 0.3293(3) 0.4897(2)
H45 H 0.1738 0.3843 0.4835
B1 B 0.2825(4) 0.3001(3) 0.5795(2)
O3 O -0.0354(3) 0.3480(2) 0.59062(15)
H47 H -0.0115 0.3138 0.5675
C53 C -0.0744(4) 0.4250(4) 0.5597(2)
H49 H -0.1235 0.4521 0.5810
H50 H -0.1033 0.4074 0.5207
H51 H -0.0231 0.4683 0.5561
O4 O 0.6478(3) 0.7105(2) 0.76178(18)
H48 H 0.6619 0.6781 0.7910
C54 C 0.5513(4) 0.6937(4) 0.7381(3)
H52 H 0.5151 0.6710 0.7688
H53 H 0.5505 0.6494 0.7069
H54 H 0.5220 0.7491 0.7224
loop_
_geom_bond_atom_site_label_1
_geom_bond_atom_site_label_2
_geom_bond_site_symmetry_1
_geom_bond_site_symmetry_2
Fe1 N1 1_555 1_555
N1 C7 1_555 1_555
N2 C41 1_555 1_555
O1 Fe1 1_555 1_555
N3 Fe1 1_555 1_555
C1 H1 1_555 1_555
C2 O2 1_555 1_555
C3 C1 1_555 1_555
H2 C3 1_555 1_555
C4 H3 1_555 1_555
O2 Fe1 1_555 1_555
C5 H4 1_555 1_555
C6 C3 1_555 1_555
H5 C6 1_555 1_555
C7 C4 1_555 1_555
H6 C7 1_555 1_555
C8 C4 1_555 1_555
C9 N1 1_555 1_555
H7 C9 1_555 1_555
C10 N3 1_555 1_555
H8 C10 1_555 1_555
H9 C10 1_555 1_555
C11 C1 1_555 1_555
C12 C5 1_555 1_555
H10 C12 1_555 1_555
C13 C10 1_555 1_555
H11 C13 1_555 1_555
H12 C13 1_555 1_555
N4 Fe1 1_555 1_555
C14 H13 1_555 1_555
C15 N3 1_555 1_555
H14 C15 1_555 1_555
C16 H15 1_555 1_555
C17 H16 1_555 1_555
C18 C17 1_555 1_555
C19 C2 1_555 1_555
H17 C19 1_555 1_555
C20 C18 1_555 1_555
H18 C20 1_555 1_555
C21 C20 1_555 1_555
H19 C21 1_555 1_555
C22 C15 1_555 1_555
C23 N4 1_555 1_555
H20 C23 1_555 1_555
C24 H21 1_555 1_555
H22 C24 1_555 1_555
C25 H23 1_555 1_555
C26 H24 1_555 1_555
C27 C2 1_555 1_555
C28 C25 1_555 1_555
C29 C8 1_555 1_555
H25 C29 1_555 1_555
C30 C8 1_555 1_555
H26 C30 1_555 1_555
H27 C30 1_555 1_555
C31 C33 1_555 1_555
C32 C17 1_555 1_555
H28 C32 1_555 1_555
C33 H29 1_555 1_555
C34 C14 1_555 1_555
H30 C34 1_555 1_555
C35 C28 1_555 1_555
H31 C35 1_555 1_555
C36 O1 1_555 1_555
C37 C24 1_555 1_555
C38 C36 1_555 1_555
H32 C38 1_555 1_555
C39 C16 1_555 1_555
H33 C39 1_555 1_555
C40 C38 1_555 1_555
H34 C40 1_555 1_555
C41 H35 1_555 1_555
C42 C37 1_555 1_555
H36 C42 1_555 1_555
C43 H37 1_555 1_555
C44 C35 1_555 1_555
H38 C44 1_555 1_555
C45 H39 1_555 1_555
C46 C25 1_555 1_555
H40 C46 1_555 1_555
C47 C45 1_555 1_555
H41 C47 1_555 1_555
C48 C37 1_555 1_555
H42 C48 1_555 1_555
C49 C21 1_555 1_555
H43 C49 1_555 1_555
C50 C33 1_555 1_555
H44 C50 1_555 1_555
C51 C31 1_555 1_555
H45 C51 1_555 1_555
C52 N2 1_555 1_555
H46 C52 1_555 1_555
B1 C11 1_555 1_555
O3 H47 1_555 1_555
O4 H48 1_555 1_555
C53 O3 1_555 1_555
H49 C53 1_555 1_555
H50 C53 1_555 1_555
H51 C53 1_555 1_555
C54 O4 1_555 1_555
H52 C54 1_555 1_555
H53 C54 1_555 1_555
H54 C54 1_555 1_555
Fe1_2 N2 1_555 1_555
N2_2 Fe1 1_555 1_555
C5 C11 1_555 1_555
C6 C12 1_555 1_555
C9 C29 1_555 1_555
C13 N4 1_555 1_555
C14 C19 1_555 1_555
C16 C22 1_555 1_555
C18 B1 1_555 1_555
C22 C36 1_555 1_555
C23 C27 1_555 1_555
C24 C30 1_555 1_555
C26 C27 1_555 1_555
C26 C34 1_555 1_555
C28 B1 1_555 1_555
C31 B1 1_555 1_555
C32 C49 1_555 1_555
C39 C40 1_555 1_555
C41 C42 1_555 1_555
C43 C44 1_555 1_555
C43 C46 1_555 1_555
C45 C50 1_555 1_555
C47 C51 1_555 1_555
C48 C52 1_555 1_555

#END
