
#######################################################################
#
#                 Cambridge Crystallographic Data Centre
#                                CCDC 
#
#######################################################################
#
# If this CIF has been generated from an entry in the Cambridge 
# Structural Database, then it will include bibliographic, chemical, 
# crystal, experimental, refinement or atomic coordinate data resulting 
# from the CCDC's data processing and validation procedures.
#
#######################################################################

data_OHORIN
_symmetry_cell_setting           monoclinic
_symmetry_space_group_name_H-M   'C c'
_symmetry_Int_Tables_number      9
_space_group_name_Hall           'C -2yc'
loop_
_symmetry_equiv_pos_site_id
_symmetry_equiv_pos_as_xyz
1 x,y,z
2 x,-y,1/2+z
3 1/2+x,1/2+y,z
4 1/2+x,1/2-y,1/2+z
_cell_length_a                   24.2992(12)
_cell_length_b                   11.8936(6)
_cell_length_c                   18.1891(6)
_cell_angle_alpha                90
_cell_angle_beta                 93.565(2)
_cell_angle_gamma                90
_cell_volume                     5246.57
loop_
_atom_site_label
_atom_site_type_symbol
_atom_site_fract_x
_atom_site_fract_y
_atom_site_fract_z
Fe1 Fe 0.00882(5) 0.29309(9) 0.31806(6)
C1 C -0.2636(3) 0.1927(5) 0.6523(4)
N1 N -0.4146(3) 0.2035(5) 0.7622(4)
N2 N -0.0671(3) 0.2808(6) 0.3791(4)
N3 N 0.0046(3) 0.1170(5) 0.3082(4)
C2 C -0.3175(3) 0.1943(5) 0.6907(4)
C3 C -0.1633(4) 0.2905(6) 0.4578(4)
C4 C -0.1198(3) 0.2176(7) 0.4777(5)
H1 H -0.1220 0.1695 0.5191
C5 C -0.4032(4) 0.2773(7) 0.7087(5)
H2 H -0.4296 0.3341 0.6961
N4 N -0.2642(3) 0.2446(8) 0.5906(4)
N5 N 0.0529(2) 0.2378(6) 0.4146(3)
C6 C -0.0733(3) 0.2156(7) 0.4371(4)
H3 H -0.0445 0.1647 0.4515
C7 C -0.2133(4) 0.2991(7) 0.4991(5)
C8 C -0.3562(3) 0.2753(6) 0.6718(4)
H4 H -0.3503 0.3283 0.6340
O1 O -0.0347(3) 0.3043(5) 0.2270(3)
C9 C -0.3751(4) 0.1316(7) 0.7805(5)
H5 H -0.3812 0.0812 0.8198
C10 C -0.0661(4) 0.2245(11) 0.1922(5)
C11 C -0.1553(3) 0.3606(7) 0.3980(4)
H6 H -0.1832 0.4131 0.3827
C12 C -0.1075(3) 0.3550(8) 0.3605(4)
H7 H -0.1030 0.4048 0.3204
C13 C -0.3254(4) 0.1227(7) 0.7476(5)
H8 H -0.2982 0.0693 0.7638
C14 C 0.0641(3) 0.1204(8) 0.4174(5)
C15 C -0.2581(5) 0.3722(12) 0.4709(8)
H9 H -0.2935 0.3346 0.4761
H10 H -0.2537 0.3885 0.4188
H11 H -0.2572 0.4427 0.4989
C17 C 0.0383(3) 0.0552(7) 0.3618(5)
C18 C -0.0650(3) 0.1128(9) 0.2096(5)
C19 C 0.0282(5) 0.4856(8) 0.4154(6)
C25 C -0.1385(5) 0.1873(13) 0.0968(6)
H16 H -0.1653 0.2145 0.0609
C27 C -0.2163(4) 0.1334(8) 0.6879(6)
H18 H -0.2198 0.0526 0.6780
H19 H -0.2153 0.1463 0.7412
H20 H -0.1822 0.1615 0.6684
C28 C -0.1357(5) 0.0731(15) 0.1104(7)
H21 H -0.1575 0.0211 0.0818
C30 C -0.1009(4) 0.0391(10) 0.1658(6)
H23 H -0.0997 -0.0389 0.1771
C35 C 0.0536(5) 0.4193(10) 0.4758(5)
C36 C 0.0980(4) 0.0658(10) 0.4706(5)
H27 H 0.1172 0.1078 0.5086
C38 C -0.0298(3) 0.0648(10) 0.2652(5)
H29 H -0.0318 -0.0144 0.2711
N6 N -0.2149(3) 0.2355(8) 0.5546(4)
C46 C 0.0475(4) -0.0624(8) 0.3584(5)
H36 H 0.0313 -0.1068 0.3194
C49 C 0.0665(6) 0.4672(12) 0.5453(6)
H39 H 0.0829 0.4242 0.5849
C50 C 0.1037(5) -0.0489(12) 0.4683(6)
H40 H 0.1249 -0.0852 0.5070
C51 C 0.0813(5) -0.1102(11) 0.4150(7)
H41 H 0.0881 -0.1888 0.4146
C52 C 0.0163(7) 0.5978(9) 0.4278(7)
H42 H -0.0007 0.6417 0.3891
C55 C -0.1032(5) 0.2640(11) 0.1339(5)
H45 H -0.1039 0.3412 0.1205
C56 C 0.0544(9) 0.5796(14) 0.5535(8)
H46 H 0.0633 0.6136 0.6000
C57 C 0.0292(10) 0.6474(12) 0.4967(9)
H47 H 0.0214 0.7244 0.5051
C58 C 0.0643(4) 0.3036(9) 0.4695(5)
H48 H 0.0823 0.2693 0.5116
O2 O 0.0174(3) 0.4434(5) 0.3491(3)
Fe1C Fe -0.49118(5) 0.20691(9) 0.81806(6)
N1C N 0.0854(3) 0.2965(5) 0.2622(4)
B1 B -0.3096(5) 0.3000(9) 0.2104(5)
C16 C -0.2430(6) 0.6141(9) 0.3070(5)
H12 H -0.2288 0.6800 0.3308
C20 C -0.3739(5) 0.2993(9) 0.1989(6)
C21 C -0.2671(5) 0.3090(10) 0.0029(5)
H13 H -0.2584 0.3653 -0.0315
C22 C -0.4648(10) 0.2018(17) 0.2001(10)
H14 H -0.4862 0.1405 0.2158
C23 C -0.2907(4) 0.2644(7) 0.1264(4)
C24 C -0.2761(5) 0.3396(8) 0.0750(4)
H15 H -0.2719 0.4163 0.0888
C26 C -0.4869(7) 0.2964(18) 0.1606(10)
H17 H -0.5246 0.2927 0.1432
C29 C -0.2335(4) 0.1590(6) 0.2680(5)
H22 H -0.2129 0.1778 0.2271
C31 C -0.2385(5) 0.0643(7) 0.3831(5)
H24 H -0.2227 0.0172 0.4209
C32 C -0.4602(6) 0.3875(16) 0.1464(6)
H25 H -0.4786 0.4508 0.1245
C33 C -0.2863(4) 0.4184(7) 0.2390(4)
C34 C -0.3123(5) 0.1775(8) 0.3346(5)
H26 H -0.3478 0.2086 0.3406
C37 C -0.2092(4) 0.0881(7) 0.3213(5)
H28 H -0.1737 0.0568 0.3160
C39 C -0.3168(4) 0.4876(7) 0.2865(4)
H30 H -0.3534 0.4665 0.2960
C40 C -0.4067(6) 0.2102(12) 0.2131(7)
H31 H -0.3887 0.1460 0.2342
C41 C -0.2892(6) 0.1080(9) 0.3892(6)
H32 H -0.3092 0.0911 0.4311
C42 C -0.2856(5) 0.2038(7) 0.2708(4)
C43 C -0.2705(4) 0.1987(11) -0.0192(5)
H33 H -0.2629 0.1772 -0.0678
C44 C -0.2955(4) 0.1532(9) 0.1021(5)
H34 H -0.3061 0.0969 0.1354
C45 C -0.2850(4) 0.1226(10) 0.0301(6)
H35 H -0.2882 0.0459 0.0159
C47 C -0.2324(5) 0.4548(9) 0.2299(5)
H37 H -0.2098 0.4106 0.2005
C48 C -0.2951(6) 0.5828(8) 0.3185(5)
H38 H -0.3168 0.6273 0.3490
C53 C -0.4030(5) 0.3897(10) 0.1643(4)
H43 H -0.3829 0.4553 0.1526
C54 C -0.2096(5) 0.5551(11) 0.2627(6)
H44 H -0.1733 0.5795 0.2542
O3 O -0.5758(6) 0.2904(12) 0.2943(7)
H49 H -0.5430 0.2701 0.3038
C59 C -0.5968(8) 0.3780(13) 0.4045(10)
H50 H -0.5588 0.3769 0.4258
H51 H -0.6223 0.3825 0.4441
H52 H -0.6021 0.4436 0.3722
C60 C -0.6082(9) 0.2710(16) 0.3600(11)
H53 H -0.5950 0.2035 0.3878
H54 H -0.6480 0.2625 0.3459
C61 C -0.0981(9) 0.5699(18) 0.1544(13)
C62 C -0.0671(10) 0.545(2) 0.0830(14)
O4 O -0.0698(10) 0.573(2) 0.2288(13)
H55 H -0.0566 0.5097 0.2394
H56? H -0.1081 0.7206 0.1153
O5? O -0.1131(10) 0.691(2) 0.1564(14)
loop_
_geom_bond_atom_site_label_1
_geom_bond_atom_site_label_2
_geom_bond_site_symmetry_1
_geom_bond_site_symmetry_2
Fe1 N2 1_555 1_555
C1 C2 1_555 1_555
N1 C5 1_555 1_555
N2 C6 1_555 1_555
N3 Fe1 1_555 1_555
C2 C8 1_555 1_555
C3 C4 1_555 1_555
C4 H1 1_555 1_555
C5 H2 1_555 1_555
N4 C1 1_555 1_555
N5 Fe1 1_555 1_555
C6 C4 1_555 1_555
H3 C6 1_555 1_555
C7 C3 1_555 1_555
C8 C5 1_555 1_555
H4 C8 1_555 1_555
O1 Fe1 1_555 1_555
C9 N1 1_555 1_555
H5 C9 1_555 1_555
C10 O1 1_555 1_555
B1 C20 1_555 1_555
C11 C3 1_555 1_555
H6 C11 1_555 1_555
C12 N2 1_555 1_555
H7 C12 1_555 1_555
C13 C2 1_555 1_555
H8 C13 1_555 1_555
C14 N5 1_555 1_555
C15 C7 1_555 1_555
H9 C15 1_555 1_555
H10 C15 1_555 1_555
H11 C15 1_555 1_555
C16 H12 1_555 1_555
C17 N3 1_555 1_555
C18 C10 1_555 1_555
C19 C35 1_555 1_555
C20 C40 1_555 1_555
C21 H13 1_555 1_555
C22 H14 1_555 1_555
C23 B1 1_555 1_555
C24 C21 1_555 1_555
H15 C24 1_555 1_555
C25 H16 1_555 1_555
C26 C22 1_555 1_555
H17 C26 1_555 1_555
C27 C1 1_555 1_555
H18 C27 1_555 1_555
H19 C27 1_555 1_555
H20 C27 1_555 1_555
C28 C25 1_555 1_555
H21 C28 1_555 1_555
C29 H22 1_555 1_555
C30 C18 1_555 1_555
H23 C30 1_555 1_555
C31 H24 1_555 1_555
C32 C26 1_555 1_555
H25 C32 1_555 1_555
C33 B1 1_555 1_555
C34 H26 1_555 1_555
C35 C49 1_555 1_555
C36 C14 1_555 1_555
H27 C36 1_555 1_555
C37 C29 1_555 1_555
H28 C37 1_555 1_555
C38 N3 1_555 1_555
H29 C38 1_555 1_555
C39 C33 1_555 1_555
H30 C39 1_555 1_555
C40 C22 1_555 1_555
H31 C40 1_555 1_555
C41 C31 1_555 1_555
H32 C41 1_555 1_555
C42 B1 1_555 1_555
C43 C21 1_555 1_555
H33 C43 1_555 1_555
C44 C23 1_555 1_555
H34 C44 1_555 1_555
C45 C43 1_555 1_555
H35 C45 1_555 1_555
N6 N4 1_555 1_555
C46 C17 1_555 1_555
H36 C46 1_555 1_555
C47 C33 1_555 1_555
H37 C47 1_555 1_555
C48 C16 1_555 1_555
H38 C48 1_555 1_555
C49 H39 1_555 1_555
C50 C36 1_555 1_555
H40 C50 1_555 1_555
C51 C46 1_555 1_555
H41 C51 1_555 1_555
C52 C19 1_555 1_555
H42 C52 1_555 1_555
C53 C20 1_555 1_555
H43 C53 1_555 1_555
C54 C16 1_555 1_555
H44 C54 1_555 1_555
C55 C10 1_555 1_555
H45 C55 1_555 1_555
C56 C49 1_555 1_555
H46 C56 1_555 1_555
C57 C52 1_555 1_555
H47 C57 1_555 1_555
C58 N5 1_555 1_555
H48 C58 1_555 1_555
O2 Fe1 1_555 1_555
O3 H49 1_555 1_555
C59 H50 1_555 1_555
H51 C59 1_555 1_555
H52 C59 1_555 1_555
C60 O3 1_555 1_555
H53 C60 1_555 1_555
H54 C60 1_555 1_555
C61 C62 1_555 1_555
O4 C61 1_555 1_555
H55 O4 1_555 1_555
Fe1C N1 1_555 1_555
N1C Fe1 1_555 1_555
C7 N6 1_555 1_555
C9 C13 1_555 1_555
C11 C12 1_555 1_555
C14 C17 1_555 1_555
C18 C38 1_555 1_555
C19 O2 1_555 1_555
C23 C24 1_555 1_555
C25 C55 1_555 1_555
C28 C30 1_555 1_555
C29 C42 1_555 1_555
C31 C37 1_555 1_555
C32 C53 1_555 1_555
C34 C41 1_555 1_555
C34 C42 1_555 1_555
C35 C58 1_555 1_555
C39 C48 1_555 1_555
C44 C45 1_555 1_555
C47 C54 1_555 1_555
C50 C51 1_555 1_555
C56 C57 1_555 1_555
C59 C60 1_555 1_555

#END
