
#######################################################################
#
#                 Cambridge Crystallographic Data Centre
#                                CCDC 
#
#######################################################################
#
# If this CIF has been generated from an entry in the Cambridge 
# Structural Database, then it will include bibliographic, chemical, 
# crystal, experimental, refinement or atomic coordinate data resulting 
# from the CCDC's data processing and validation procedures.
#
#######################################################################

data_OHOSUA01
_symmetry_cell_setting           orthorhombic
_symmetry_space_group_name_H-M   'P c c n'
_symmetry_Int_Tables_number      56
_space_group_name_Hall           '-P 2ab 2ac'
loop_
_symmetry_equiv_pos_site_id
_symmetry_equiv_pos_as_xyz
1 x,y,z
2 1/2-x,1/2-y,z
3 1/2+x,-y,1/2-z
4 -x,1/2+y,1/2-z
5 -x,-y,-z
6 1/2+x,1/2+y,-z
7 1/2-x,y,1/2+z
8 x,1/2-y,1/2+z
_cell_length_a                   14.3578(6)
_cell_length_b                   14.3904(5)
_cell_length_c                   17.8813(7)
_cell_angle_alpha                90
_cell_angle_beta                 90
_cell_angle_gamma                90
_cell_volume                     3694.54
loop_
_atom_site_label
_atom_site_type_symbol
_atom_site_fract_x
_atom_site_fract_y
_atom_site_fract_z
Fe1 Fe -0.2500 -0.2500 0.74953(8)
S1 S -0.0184(3) -0.4867(3) 0.74873(12)
O1 O -0.0822(3) -0.0330(3) 0.4250(2)
H1 H -0.0530 -0.0298 0.3844
N1 N -0.1551(4) -0.3516(4) 0.7524(3)
C1 C -0.0909(7) -0.4003(5) 0.7505(4)
O2 O -0.0391(4) -0.0799(4) 1.0738(2)
H2 H -0.0359 -0.0504 1.1143
N2 N -0.1738(3) -0.1810(3) 0.6648(2)
C2 C -0.0843(3) -0.1831(2) 0.66298(16)
H3 H -0.0538 -0.2145 0.7028
N3 N -0.1790(3) -0.1742(2) 0.83519(16)
C3 C -0.0264(3) -0.1427(2) 0.60688(16)
H4 H 0.0395 -0.1479 0.6087
C4 C -0.0721(5) -0.0939(4) 0.5478(3)
C5 C -0.1660(5) -0.0980(4) 0.5475(3)
H5 H -0.1986 -0.0727 0.5061
C6 C -0.2181(5) -0.1388(4) 0.6068(4)
H6 H -0.2842 -0.1365 0.6058
C7 C -0.0176(4) -0.0518(5) 0.4851(3)
C8 C 0.0612(5) -0.1086(5) 0.4601(4)
H7 H 0.0870 -0.0823 0.4140
H8 H 0.1094 -0.1091 0.4990
H9 H 0.0401 -0.1723 0.4508
C9 C -0.1381(5) -0.2136(5) 0.8934(4)
H10 H -0.1380 -0.2796 0.8950
C10 C -0.0971(5) -0.1696(5) 0.9498(3)
H11 H -0.0671 -0.2035 0.9885
C11 C -0.0991(4) -0.0720(4) 0.9513(3)
C12 C -0.1422(3) -0.0290(3) 0.8926(3)
H12 H -0.1452 0.0370 0.8913
C13 C -0.1805(4) -0.0785(4) 0.8368(3)
H13 H -0.2097 -0.0462 0.7968
C14 C -0.0467(5) -0.0168(5) 1.0139(3)
C15 C -0.1077(5) 0.0610(5) 1.0402(4)
H14 H -0.0809 0.0887 1.0854
H15 H -0.1122 0.1084 1.0010
H16 H -0.1700 0.0369 1.0514
Fe1D Fe 0.2500 0.2500 0.25047(8)
Fe1D_2 Fe 0.2500 0.2500 1.25047(8)
S1A S -0.4816(3) -0.0133(3) 0.74873(12)
O1D O 0.0822(3) 0.0330(3) 0.5750(2)
H1D H 0.0530 0.0298 0.6156
N1A N -0.3449(4) -0.1484(4) 0.7524(3)
C1A C -0.4091(7) -0.0997(5) 0.7505(4)
O2D O 0.0391(4) 0.0799(4) 0.9262(2)
H2D H 0.0359 0.0504 0.8857
N2D N 0.1738(3) 0.1810(3) 0.3352(2)
N2A N -0.3262(3) -0.3190(3) 0.6648(2)
C2D C 0.0843(3) 0.1831(2) 0.33702(16)
H3D H 0.0538 0.2145 0.2972
N3D N 0.1790(3) 0.1742(2) 1.16481(16)
N3A N -0.3210(3) -0.3258(2) 0.83519(16)
C3D C 0.0264(3) 0.1427(2) 0.39312(16)
H4D H -0.0395 0.1479 0.3913
C4D C 0.0721(5) 0.0939(4) 0.4522(3)
C5D C 0.1660(5) 0.0980(4) 0.4525(3)
H5D H 0.1986 0.0727 0.4939
C6D C 0.2181(5) 0.1388(4) 0.3932(4)
H6D H 0.2842 0.1365 0.3942
C7D C 0.0176(4) 0.0518(5) 0.5149(3)
C8D C -0.0612(5) 0.1086(5) 0.5399(4)
H7D H -0.0870 0.0823 0.5860
H8D H -0.1094 0.1091 0.5010
H9D H -0.0401 0.1723 0.5492
C9D C 0.1381(5) 0.2136(5) 1.1066(4)
H10D H 0.1380 0.2796 1.1050
C10D C 0.0971(5) 0.1696(5) 1.0502(3)
H11D H 0.0671 0.2035 1.0115
C11D C 0.0991(4) 0.0720(4) 1.0487(3)
C12D C 0.1422(3) 0.0290(3) 1.1074(3)
H12D H 0.1452 -0.0370 1.1087
C13D C 0.1805(4) 0.0785(4) 1.1632(3)
H13D H 0.2097 0.0462 1.2032
C14D C 0.0467(5) 0.0168(5) 0.9861(3)
C15D C 0.1077(5) -0.0610(5) 0.9598(4)
H14D H 0.0809 -0.0887 0.9146
H15D H 0.1122 -0.1084 0.9990
H16D H 0.1700 -0.0369 0.9486
C16 C 0.813(2) 0.158(2) 0.2586(14)
O3 O 0.748(4) 0.145(2) 0.2080(16)
O4? O -0.3134(11) 0.2296(12) 0.3825(9)
C17? C -0.244(3) 0.215(2) 0.4264(14)
S2? S 0.5508(11) 0.0947(11) 0.2289(9)
loop_
_geom_bond_atom_site_label_1
_geom_bond_atom_site_label_2
_geom_bond_site_symmetry_1
_geom_bond_site_symmetry_2
Fe1 N1 1_555 1_555
S1 C1 1_555 1_555
O1 H1 1_555 1_555
N1 C1 1_555 1_555
O2 H2 1_555 1_555
N2 Fe1 1_555 1_555
C2 N2 1_555 1_555
H3 C2 1_555 1_555
N3 Fe1 1_555 1_555
C3 C2 1_555 1_555
H4 C3 1_555 1_555
C4 C3 1_555 1_555
C5 C4 1_555 1_555
H5 C5 1_555 1_555
C6 N2 1_555 1_555
H6 C6 1_555 1_555
C7 O1 1_555 1_555
C8 C7 1_555 1_555
H7 C8 1_555 1_555
H8 C8 1_555 1_555
H9 C8 1_555 1_555
C9 N3 1_555 1_555
H10 C9 1_555 1_555
C10 C9 1_555 1_555
H11 C10 1_555 1_555
C11 C10 1_555 1_555
C12 C11 1_555 1_555
H12 C12 1_555 1_555
C13 N3 1_555 1_555
H13 C13 1_555 1_555
C14 O2 1_555 1_555
C15 C14 1_555 1_555
H14 C15 1_555 1_555
H15 C15 1_555 1_555
H16 C15 1_555 1_555
C16 O3 1_555 1_555
Fe1D N2D 1_555 1_555
Fe1D_2 N3D 1_555 1_555
S1A C1A 1_555 1_555
O1D H1D 1_555 1_555
N1A Fe1 1_555 1_555
C1A N1A 1_555 1_555
O2D H2D 1_555 1_555
N2D C2D 1_555 1_555
N2A Fe1 1_555 1_555
C2D H3D 1_555 1_555
N3D C9D 1_555 1_555
N3A Fe1 1_555 1_555
C3D C2D 1_555 1_555
H4D C3D 1_555 1_555
C4D C3D 1_555 1_555
C5D C4D 1_555 1_555
H5D C5D 1_555 1_555
C6D N2D 1_555 1_555
H6D C6D 1_555 1_555
C7D C7 1_555 1_555
C8D C7D 1_555 1_555
H7D C8D 1_555 1_555
H8D C8D 1_555 1_555
H9D C8D 1_555 1_555
C9D H10D 1_555 1_555
C10D C9D 1_555 1_555
H11D C10D 1_555 1_555
C11D C10D 1_555 1_555
C12D C11D 1_555 1_555
H12D C12D 1_555 1_555
C13D N3D 1_555 1_555
H13D C13D 1_555 1_555
C14D C14 1_555 1_555
C15D C14D 1_555 1_555
H14D C15D 1_555 1_555
H15D C15D 1_555 1_555
H16D C15D 1_555 1_555
C4 C7 1_555 1_555
C5 C6 1_555 1_555
C11 C14 1_555 1_555
C12 C13 1_555 1_555
O1D C7D 1_555 1_555
O2D C14D 1_555 1_555
C4D C7D 1_555 1_555
C5D C6D 1_555 1_555
C11D C14D 1_555 1_555
C12D C13D 1_555 1_555

#END
