
#######################################################################
#
#                 Cambridge Crystallographic Data Centre
#                                CCDC 
#
#######################################################################
#
# If this CIF has been generated from an entry in the Cambridge 
# Structural Database, then it will include bibliographic, chemical, 
# crystal, experimental, refinement or atomic coordinate data resulting 
# from the CCDC's data processing and validation procedures.
#
#######################################################################

data_OHOXIS01
_symmetry_cell_setting           triclinic
_symmetry_space_group_name_H-M   'P -1'
_symmetry_Int_Tables_number      2
_space_group_name_Hall           '-P 1'
loop_
_symmetry_equiv_pos_site_id
_symmetry_equiv_pos_as_xyz
1 x,y,z
2 -x,-y,-z
_cell_length_a                   7.1902(16)
_cell_length_b                   7.5288(17)
_cell_length_c                   11.562(3)
_cell_angle_alpha                77.211(4)
_cell_angle_beta                 80.432(4)
_cell_angle_gamma                74.070(4)
_cell_volume                     583.202
loop_
_atom_site_label
_atom_site_type_symbol
_atom_site_fract_x
_atom_site_fract_y
_atom_site_fract_z
Cu1 Cu -0.08315(7) -0.02105(8) -0.25078(5)
N1 N -0.7806(6) 0.4512(6) -0.5992(4)
N2 N -0.2789(5) 0.0772(5) -0.3655(3)
N3 N -0.8958(5) 0.1131(6) -0.3510(3)
N4 N 0.5541(6) -0.3256(6) 0.1553(3)
N5 N 0.1092(6) -0.1084(6) -0.1335(3)
N6 N 0.7239(5) -0.1456(5) -0.1453(3)
O1 O -0.4543(5) 0.4031(5) -0.6206(3)
O2 O 0.2320(5) -0.2803(5) 0.1613(3)
O3 O 0.0556(6) -0.2959(6) -0.3254(4)
C1 C -0.6075(7) 0.3634(7) -0.5641(4)
C2 C -0.5975(6) 0.2225(6) -0.4564(4)
C3 C -0.4217(6) 0.1424(6) -0.4068(4)
C4 C -0.7611(6) 0.1626(6) -0.3981(4)
C5 C 0.3976(6) -0.2753(6) 0.1015(4)
C6 C 0.4116(6) -0.2058(6) -0.0245(4)
C7 C 0.2426(7) -0.1506(6) -0.0840(4)
C8 C 0.5827(6) -0.1738(6) -0.0910(4)
H1 H -0.803(10) 0.552(7) -0.668(4)
H2 H -0.869(11) 0.427(14) -0.528(5)
H3 H 0.689(6) -0.339(17) 0.122(10)
H4 H 0.546(9) -0.380(9) 0.2389(17)
H5 H 0.184(7) -0.377(11) -0.341(7)
H6 H 0.056(8) -0.211(7) -0.401(3)
N3_2 N 0.1042(5) 0.1131(6) -0.3510(3)
Cu1_2 Cu -1.08315(7) -0.02105(8) -0.25078(5)
Cu1A Cu 0.08315(7) 0.02105(8) 0.25078(5)
O2A O -0.2320(5) 0.2803(5) -0.1613(3)
N6_2 N -0.2761(5) -0.1456(5) -0.1453(3)
Cu1_3 Cu 0.91685(7) -0.02105(8) -0.25078(5)
O4 O -0.0430(6) -0.4374(6) -0.8931(4)
H7 H -0.024(10) -0.526(8) -0.819(4)
H8 H 0.024(15) -0.339(12) -0.901(10)
loop_
_geom_bond_atom_site_label_1
_geom_bond_atom_site_label_2
_geom_bond_site_symmetry_1
_geom_bond_site_symmetry_2
Cu1 N2 1_555 1_555
N1 C1 1_555 1_555
N2 C3 1_555 1_555
N3 C4 1_555 1_555
N4 C5 1_555 1_555
N5 Cu1 1_555 1_555
N6 C8 1_555 1_555
O1 C1 1_555 1_555
O2 C5 1_555 1_555
O3 Cu1 1_555 1_555
O4 H7 1_555 1_555
C1 C2 1_555 1_555
C2 C3 1_555 1_555
C4 C2 1_555 1_555
C5 C6 1_555 1_555
C6 C7 1_555 1_555
C7 N5 1_555 1_555
C8 C6 1_555 1_555
H1 N1 1_555 1_555
H2 N1 1_555 1_555
H3 N4 1_555 1_555
H4 N4 1_555 1_555
H5 O3 1_555 1_555
H6 O3 1_555 1_555
H8 O4 1_555 1_555
N3_2 Cu1 1_555 1_555
Cu1_2 N3 1_555 1_555
Cu1A O2 1_555 1_555
O2A Cu1 1_555 1_555
N6_2 Cu1 1_555 1_555
Cu1_3 N6 1_555 1_555

#END
