
#######################################################################
#
#                 Cambridge Crystallographic Data Centre
#                                CCDC 
#
#######################################################################
#
# If this CIF has been generated from an entry in the Cambridge 
# Structural Database, then it will include bibliographic, chemical, 
# crystal, experimental, refinement or atomic coordinate data resulting 
# from the CCDC's data processing and validation procedures.
#
#######################################################################

data_OHOYOA
_symmetry_cell_setting           triclinic
_symmetry_space_group_name_H-M   'P -1'
_symmetry_Int_Tables_number      2
_space_group_name_Hall           '-P 1'
loop_
_symmetry_equiv_pos_site_id
_symmetry_equiv_pos_as_xyz
1 x,y,z
2 -x,-y,-z
_cell_length_a                   8.9977(7)
_cell_length_b                   12.4830(10)
_cell_length_c                   17.1670(14)
_cell_angle_alpha                85.7480(10)
_cell_angle_beta                 76.9090(10)
_cell_angle_gamma                85.0700(10)
_cell_volume                     1868.14
loop_
_atom_site_label
_atom_site_type_symbol
_atom_site_fract_x
_atom_site_fract_y
_atom_site_fract_z
Cd1 Cd 0.77584(2) 0.051705(17) 0.291789(10)
O1 O 0.5886(2) 0.02434(18) 0.23203(11)
O2 O 0.3843(2) -0.02682(19) 0.32220(10)
O3 O -0.0886(2) -0.09039(17) 0.21687(10)
O4 O -0.0312(2) -0.11498(18) 0.08585(11)
O5 O 0.8505(2) 0.16971(18) 0.17651(11)
O6 O 0.9835(2) 0.16547(18) 0.26887(11)
O7 O 1.4785(4) 0.3609(4) 0.20516(17)
O8 O 1.5569(2) 0.4152(2) 0.07928(13)
H1 H 1.6315 0.4358 0.0956
N1 N 0.8315(3) -0.0459(2) 0.40518(12)
N2 N 0.8018(3) -0.0546(2) 0.53825(13)
H2 H 0.7561 -0.0302 0.5865
N3 N 0.6248(3) 0.1335(2) 0.40560(13)
N4 N 0.5576(3) 0.1317(2) 0.53919(13)
H3 H 0.5560 0.1122 0.5909
N5 N 0.5196(2) 0.19614(18) -0.03510(12)
H4 H 0.5943 0.1946 -0.0079
N6 N 0.3278(2) 0.15492(18) -0.08269(12)
H5 H 0.2364 0.1323 -0.0845
N7 N 1.0433(3) 0.3629(2) -0.09782(14)
H6 H 1.0025 0.2995 -0.0815
N8 N 1.2045(2) 0.48959(19) -0.10221(13)
C1 C 0.7573(3) -0.0044(3) 0.47346(15)
C2 C 0.6464(3) 0.0855(3) 0.47359(15)
C3 C 0.9315(3) -0.1279(3) 0.42669(16)
C4 C 0.9136(3) -0.1329(3) 0.51045(16)
C5 C 1.0009(4) -0.2078(3) 0.54900(18)
H7 H 0.9880 -0.2121 0.6044
C6 C 1.1052(4) -0.2740(3) 0.5021(2)
H8 H 1.1676 -0.3230 0.5259
C7 C 1.1224(4) -0.2709(3) 0.4187(2)
H9 H 1.1939 -0.3188 0.3887
C8 C 1.0349(4) -0.1982(3) 0.38046(17)
H10 H 1.0454 -0.1966 0.3252
C9 C 0.5140(3) 0.2174(3) 0.42743(17)
C10 C 0.4717(3) 0.2168(3) 0.51179(17)
C11 C 0.3626(4) 0.2915(3) 0.55052(19)
H11 H 0.3341 0.2908 0.6061
C12 C 0.2985(5) 0.3665(4) 0.5032(2)
H12 H 0.2256 0.4185 0.5272
C13 C 0.3402(5) 0.3670(4) 0.4191(2)
H13 H 0.2944 0.4192 0.3888
C14 C 0.4469(4) 0.2922(3) 0.3811(2)
H14 H 0.4731 0.2921 0.3255
C15 C 0.3402(3) 0.0770(2) 0.05447(14)
C16 C 0.4208(3) 0.0672(2) 0.11539(14)
H15 H 0.5147 0.0971 0.1073
C17 C 0.3623(3) 0.0135(2) 0.18776(14)
C18 C 0.2221(3) -0.0305(2) 0.19971(14)
H16 H 0.1801 -0.0632 0.2494
C19 C 0.1434(3) -0.0264(2) 0.13850(14)
C20 C 0.2021(3) 0.0282(2) 0.06604(14)
H17 H 0.1493 0.0323 0.0250
C21 C 0.3957(3) 0.1406(2) -0.01982(14)
C22 C 0.5319(3) 0.2515(2) -0.10964(15)
C23 C 0.4102(3) 0.2235(2) -0.13965(14)
C24 C 0.3901(3) 0.2641(3) -0.21504(16)
H18 H 0.3116 0.2437 -0.2367
C25 C 0.4923(4) 0.3352(3) -0.25517(18)
H19 H 0.4825 0.3641 -0.3054
C26 C 0.6103(4) 0.3660(3) -0.22351(18)
H20 H 0.6754 0.4159 -0.2526
C27 C 0.6333(3) 0.3244(3) -0.15004(17)
H21 H 0.7127 0.3444 -0.1290
C28 C 0.4528(3) 0.0033(2) 0.25344(14)
C29 C -0.0049(3) -0.0807(2) 0.14896(15)
C30 C 1.1536(3) 0.3714(2) 0.02144(15)
C31 C 1.0477(3) 0.3094(2) 0.07329(15)
H22 H 0.9596 0.2938 0.0580
C32 C 1.0723(3) 0.2705(2) 0.14783(15)
C33 C 1.2031(3) 0.2949(2) 0.17079(15)
H23 H 1.2193 0.2709 0.2210
C34 C 1.3102(3) 0.3555(2) 0.11852(16)
C35 C 1.2855(3) 0.3942(2) 0.04423(15)
H24 H 1.3571 0.4352 0.0098
C36 C 1.1345(3) 0.4101(2) -0.05942(15)
C37 C 1.0624(3) 0.4142(3) -0.17410(18)
C38 C 1.1618(3) 0.4946(3) -0.17469(17)
C39 C 1.2063(4) 0.5634(3) -0.24400(19)
H25 H 1.2729 0.6170 -0.2457
C40 C 1.1472(5) 0.5474(3) -0.3077(2)
H26 H 1.1738 0.5915 -0.3541
C41 C 1.0470(4) 0.4664(4) -0.3064(2)
H27 H 1.0090 0.4583 -0.3516
C42 C 1.0048(4) 0.3994(3) -0.23970(18)
H28 H 0.9391 0.3455 -0.2388
C43 C 0.9603(3) 0.1979(2) 0.20156(15)
C44 C 1.4566(4) 0.3771(3) 0.13966(18)
Cd1_2 Cd -0.22416(2) 0.051705(17) 0.291789(10)
O3_2 O 0.9114(2) -0.09039(17) 0.21687(10)
O9 O 0.7652(2) 0.1796(2) 0.03268(13)
H29 H 0.7800 0.1800 0.0798
H30 H 0.8448 0.1502 0.0032
loop_
_geom_bond_atom_site_label_1
_geom_bond_atom_site_label_2
_geom_bond_site_symmetry_1
_geom_bond_site_symmetry_2
Cd1 O1 1_555 1_555
O1 C28 1_555 1_555
O2 C28 1_555 1_555
O3 C29 1_555 1_555
O4 C29 1_555 1_555
O5 Cd1 1_555 1_555
O6 Cd1 1_555 1_555
O7 C44 1_555 1_555
O8 H1 1_555 1_555
N1 Cd1 1_555 1_555
N2 H2 1_555 1_555
N3 Cd1 1_555 1_555
N4 H3 1_555 1_555
N5 H4 1_555 1_555
N6 H5 1_555 1_555
N7 H6 1_555 1_555
N8 C36 1_555 1_555
C1 N1 1_555 1_555
C2 N3 1_555 1_555
C3 N1 1_555 1_555
C4 N2 1_555 1_555
C5 C4 1_555 1_555
H7 C5 1_555 1_555
C6 C5 1_555 1_555
H8 C6 1_555 1_555
C7 C6 1_555 1_555
H9 C7 1_555 1_555
C8 C3 1_555 1_555
H10 C8 1_555 1_555
C9 N3 1_555 1_555
C10 N4 1_555 1_555
C11 C10 1_555 1_555
H11 C11 1_555 1_555
C12 C11 1_555 1_555
H12 C12 1_555 1_555
C13 C12 1_555 1_555
H13 C13 1_555 1_555
C14 C9 1_555 1_555
H14 C14 1_555 1_555
C15 C16 1_555 1_555
C16 H15 1_555 1_555
C17 C16 1_555 1_555
C18 C17 1_555 1_555
H16 C18 1_555 1_555
C19 C18 1_555 1_555
C20 C15 1_555 1_555
H17 C20 1_555 1_555
C21 N5 1_555 1_555
C22 N5 1_555 1_555
C23 N6 1_555 1_555
C24 C23 1_555 1_555
H18 C24 1_555 1_555
C25 C24 1_555 1_555
H19 C25 1_555 1_555
C26 C25 1_555 1_555
H20 C26 1_555 1_555
C27 C22 1_555 1_555
H21 C27 1_555 1_555
C28 C17 1_555 1_555
C29 C19 1_555 1_555
C30 C31 1_555 1_555
C31 H22 1_555 1_555
C32 C31 1_555 1_555
C33 C32 1_555 1_555
H23 C33 1_555 1_555
C34 C33 1_555 1_555
C35 C30 1_555 1_555
H24 C35 1_555 1_555
C36 N7 1_555 1_555
C37 N7 1_555 1_555
C38 N8 1_555 1_555
C39 C38 1_555 1_555
H25 C39 1_555 1_555
C40 C39 1_555 1_555
H26 C40 1_555 1_555
C41 C40 1_555 1_555
H27 C41 1_555 1_555
C42 C37 1_555 1_555
H28 C42 1_555 1_555
C43 O5 1_555 1_555
C44 O8 1_555 1_555
O9 H29 1_555 1_555
H30 O9 1_555 1_555
Cd1_2 O3 1_555 1_555
O3_2 Cd1 1_555 1_555
O6 C43 1_555 1_555
N2 C1 1_555 1_555
N4 C2 1_555 1_555
N6 C21 1_555 1_555
C1 C2 1_555 1_555
C3 C4 1_555 1_555
C7 C8 1_555 1_555
C9 C10 1_555 1_555
C13 C14 1_555 1_555
C15 C21 1_555 1_555
C19 C20 1_555 1_555
C22 C23 1_555 1_555
C26 C27 1_555 1_555
C30 C36 1_555 1_555
C32 C43 1_555 1_555
C34 C35 1_555 1_555
C34 C44 1_555 1_555
C37 C38 1_555 1_555
C41 C42 1_555 1_555

#END
