
#######################################################################
#
#                 Cambridge Crystallographic Data Centre
#                                CCDC 
#
#######################################################################
#
# If this CIF has been generated from an entry in the Cambridge 
# Structural Database, then it will include bibliographic, chemical, 
# crystal, experimental, refinement or atomic coordinate data resulting 
# from the CCDC's data processing and validation procedures.
#
#######################################################################

data_OHUCUQ
_symmetry_cell_setting           triclinic
_symmetry_space_group_name_H-M   'P 1'
_symmetry_Int_Tables_number      1
_space_group_name_Hall           'P 1'
loop_
_symmetry_equiv_pos_site_id
_symmetry_equiv_pos_as_xyz
1 x,y,z
_cell_length_a                   9.9100(3)
_cell_length_b                   10.0290(6)
_cell_length_c                   10.0977(7)
_cell_angle_alpha                90.526(5)
_cell_angle_beta                 119.290(4)
_cell_angle_gamma                91.400(4)
_cell_volume                     874.762
loop_
_atom_site_label
_atom_site_type_symbol
_atom_site_fract_x
_atom_site_fract_y
_atom_site_fract_z
Pb1 Pb 0.50000 0.50000 0.50000
Pb2 Pb 1.04596(7) 0.39960(8) 1.24052(6)
Pb3 Pb 0.69092(7) 0.58958(8) 0.22898(8)
Pb4 Pb 0.94130(7) 0.58689(8) 0.73348(6)
Pb5 Pb 0.28483(7) 0.40277(8) 0.76000(8)
P1 P 0.6945(3) 0.4471(3) 0.8724(3)
P2 P 0.2828(3) 0.5263(3) 0.0771(3)
P3 P 0.8268(3) 0.3525(3) 0.4667(3)
P4 P 0.0979(3) -0.3373(3) 0.5067(3)
O1 O 0.7976(9) 0.5245(9) 1.0194(8)
O2 O 0.7479(7) 0.4618(8) 0.7544(8)
O3 O 0.5252(7) 0.4858(8) 0.8001(8)
O4 O 0.6755(15) -0.1842(11) 1.0921(14)
O5 O 0.8018(10) -0.2172(10) 0.9679(9)
O6 O 0.1399(8) 0.4585(10) -0.0612(8)
O7 O 0.4236(7) 0.5035(8) 0.0588(7)
O8 O 0.2921(7) 0.4809(8) 0.2228(6)
O9 O 0.172357 1.191809 -0.056927
O10 O 0.1529(12) 1.1751(11) 0.1507(11)
O11 O 0.9640(7) 0.3871(8) 0.6230(7)
O12 O 0.6888(7) 0.4409(8) 0.4306(7)
O13 O 0.8624(7) 0.3677(7) 0.3368(7)
O14 O 0.6852(7) -0.2814(8) 0.5983(7)
O15 O 0.5644(7) -0.2905(8) 0.3489(7)
O16 O 0.1085(10) -0.4081(8) 0.3792(8)
O17 O 0.2008(7) -0.3980(8) 0.6622(7)
O18 O -0.0673(6) -0.3290(7) 0.4779(7)
O19 O 0.2483(7) 0.3236(8) 0.4907(7)
O20 O 0.4715(7) 0.2486(8) 0.5274(8)
C1 C 0.7052(9) 0.2721(10) 0.9164(9)
C2 C 0.634785 0.220883 0.997586
C3 C 0.641705 0.084529 1.027956
C4 C 0.7252(9) 0.0010(9) 0.9821(8)
C5 C 0.791363 0.056375 0.900492
C6 C 0.782466 0.186777 0.867976
C7 C 0.7294(14) -0.1428(12) 1.0193(12)
C8 C 0.2504(8) 0.7034(10) 0.0635(9)
C9 C 0.193991 0.766202 0.149185
C10 C 0.171566 0.90131 0.143857
C11 C 0.1957(9) 0.9794(10) 0.0469(10)
C12 C 0.251584 0.917338 -0.042718
C13 C 0.278609 0.779832 -0.035483
C14 C 0.1733(11) 1.1302(14) 0.0539(11)
C15 C 0.7705(9) 0.1811(8) 0.4700(8)
C16 C 0.628946 0.130015 0.354069
C17 C 0.592405 -0.002955 0.35422
C18 C 0.6879(10) -0.0839(9) 0.4716(10)
C19 C 0.825749 -0.030244 0.589688
C20 C 0.867088 0.100333 0.587456
C21 C 0.6449(11) -0.2273(13) 0.4749(12)
C22 C 0.1717(10) -0.1682(9) 0.5144(9)
C23 C 0.07138 -0.066690 0.454070
C24 C 0.123550 0.063260 0.453600
C25 C 0.2819(11) 0.0930(10) 0.5134(9)
C26 C 0.385540 -0.012120 0.574960
C27 C 0.333480 -0.1407 0.579890
C28 C 0.3399(11) 0.2266(13) 0.5102(12)
H1 H 0.897241 -0.198781 1.015146
H2 H 0.580006 0.281453 1.033507
H3 H 0.588005 0.046429 1.081689
H4 H 0.847478 -0.002781 0.864754
H5 H 0.831418 0.222694 0.80887
H6 H 0.168889 0.711215 0.216889
H7 H 0.13703 0.942997 0.212143
H8 H 0.317302 0.737732 -0.100177
H9 H 0.272373 0.972809 -0.112982
H10 H 0.555632 0.189009 0.272578
H11 H 0.494868 -0.04212 0.267789
H12 H 0.894561 -0.087261 0.676156
H13 H 0.967616 0.137919 0.671039
H14 H -0.042250 -0.086220 0.409180
H15 H 0.047530 0.13591 0.410290
H16 H 0.498810 0.006470 0.615840
H17 H 0.408760 -0.213080 0.628860
H18 H 0.176512 1.220343 -0.149532
Pb1_2 Pb 1.50000 0.50000 1.50000
Pb1_3 Pb 0.50000 -0.50000 0.50000
Pb2_2 Pb 0.04596(7) 0.39960(8) 0.24052(6)
Pb2_3 Pb 1.04596(7) 0.39960(8) 0.24052(6)
Pb2_4 Pb 0.04596(7) 1.39960(8) 0.24052(6)
Pb2_5 Pb 0.04596(7) -0.60040(8) 0.24052(6)
Pb3_2 Pb 0.69092(7) 0.58958(8) 1.22898(8)
Pb3_3 Pb 0.69092(7) -0.41042(8) 1.22898(8)
Pb3_4 Pb 0.69092(7) -0.41042(8) 0.22898(8)
Pb3_5 Pb -0.30908(7) -0.41042(8) 0.22898(8)
Pb4_2 Pb -0.05870(7) 0.58689(8) 0.73348(6)
Pb4_3 Pb -0.05870(7) 0.58689(8) -0.26652(6)
Pb4_4 Pb 0.94130(7) -0.41311(8) 0.73348(6)
Pb4_5 Pb -0.05870(7) -0.41311(8) 0.73348(6)
Pb5_2 Pb 1.28483(7) 0.40277(8) 0.76000(8)
Pb5_3 Pb 0.28483(7) 0.40277(8) -0.24000(8)
Pb5_4 Pb 0.28483(7) -0.59723(8) 0.76000(8)
O1_2 O 0.7976(9) 0.5245(9) 0.0194(8)
O4_2 O 0.6755(15) 0.8158(11) 0.0921(14)
O6_2 O 1.1399(8) 0.4585(10) 0.9388(8)
O6_3 O 0.1399(8) 0.4585(10) 0.9388(8)
O7_2 O 0.4236(7) 0.5035(8) 1.0588(7)
O8_2 O 1.2921(7) 0.4809(8) 1.2228(6)
O10_2 O 1.1529(12) 0.1751(11) 1.1507(11)
O11_2 O -0.0360(7) 0.3871(8) 0.6230(7)
O13_2 O 0.8624(7) 0.3677(7) 1.3368(7)
O14_2 O 0.6852(7) 0.7186(8) 0.5983(7)
O15_2 O 0.5644(7) 0.7095(8) 0.3489(7)
O16_2 O 1.1085(10) 0.5919(8) 1.3792(8)
O17_2 O 1.2008(7) 0.6020(8) 0.6622(7)
O17_3 O 0.2008(7) 0.6020(8) 0.6622(7)
O18_2 O 0.9327(6) 0.6710(7) 0.4779(7)
O19_2 O 1.2483(7) 0.3236(8) 1.4907(7)
loop_
_geom_bond_atom_site_label_1
_geom_bond_atom_site_label_2
_geom_bond_site_symmetry_1
_geom_bond_site_symmetry_2
Pb1 O2 1_555 1_555
Pb2 O1 1_555 1_555
Pb3 O7 1_555 1_555
Pb4 O2 1_555 1_555
Pb5 O3 1_555 1_555
P1 O1 1_555 1_555
P2 O6 1_555 1_555
P3 O11 1_555 1_555
P4 O16 1_555 1_555
O1 Pb3_2 1_555 1_555
O2 P1 1_555 1_555
O3 Pb1 1_555 1_555
O4 C7 1_555 1_555
O5 C7 1_555 1_555
O6 Pb4_3 1_555 1_555
O7 P2 1_555 1_555
O8 Pb1 1_555 1_555
O9 C14 1_555 1_555
O10 C14 1_555 1_555
O11 Pb4 1_555 1_555
O12 Pb1 1_555 1_555
O13 Pb3 1_555 1_555
O14 C21 1_555 1_555
O15 C21 1_555 1_555
O16 Pb2_5 1_555 1_555
O17 P4 1_555 1_555
O18 P4 1_555 1_555
O19 Pb1 1_555 1_555
O20 Pb1 1_555 1_555
C1 P1 1_555 1_555
C2 C1 1_555 1_555
C3 C2 1_555 1_555
C4 C3 1_555 1_555
C5 C4 1_555 1_555
C6 C1 1_555 1_555
C7 C4 1_555 1_555
C8 P2 1_555 1_555
C9 C8 1_555 1_555
C10 C9 1_555 1_555
C11 C10 1_555 1_555
C12 C11 1_555 1_555
C13 C8 1_555 1_555
C14 C11 1_555 1_555
C15 P3 1_555 1_555
C16 C15 1_555 1_555
C17 C16 1_555 1_555
C18 C17 1_555 1_555
C19 C18 1_555 1_555
C20 C15 1_555 1_555
C21 C18 1_555 1_555
C22 P4 1_555 1_555
C23 C22 1_555 1_555
C24 C23 1_555 1_555
C25 C24 1_555 1_555
C26 C25 1_555 1_555
C27 C22 1_555 1_555
C28 O19 1_555 1_555
H1 O5 1_555 1_555
H2 C2 1_555 1_555
H3 C3 1_555 1_555
H4 C5 1_555 1_555
H5 C6 1_555 1_555
H6 C9 1_555 1_555
H7 C10 1_555 1_555
H8 C13 1_555 1_555
H9 C12 1_555 1_555
H10 C16 1_555 1_555
H11 C17 1_555 1_555
H12 C19 1_555 1_555
H13 C20 1_555 1_555
H14 C23 1_555 1_555
H15 C24 1_555 1_555
H16 C26 1_555 1_555
H17 C27 1_555 1_555
H18 O9 1_555 1_555
Pb1_2 O8_2 1_555 1_555
Pb1_3 O14 1_555 1_555
Pb2_2 O8 1_555 1_555
Pb2_3 O13 1_555 1_555
Pb2_4 O10 1_555 1_555
Pb3_2 O7_2 1_555 1_555
Pb3_3 O4 1_555 1_555
Pb3_4 O15 1_555 1_555
Pb3_5 O18 1_555 1_555
Pb4_2 O6_3 1_555 1_555
Pb4_4 O14 1_555 1_555
Pb4_5 O17 1_555 1_555
Pb5_2 O11 1_555 1_555
Pb5_3 O6 1_555 1_555
Pb5_4 O17 1_555 1_555
O1_2 Pb3 1_555 1_555
O4_2 Pb3 1_555 1_555
O6_2 Pb4 1_555 1_555
O6_3 Pb5 1_555 1_555
O7_2 Pb5 1_555 1_555
O8_2 Pb2 1_555 1_555
O10_2 Pb2 1_555 1_555
O11_2 Pb5 1_555 1_555
O13_2 Pb2 1_555 1_555
O14_2 Pb1 1_555 1_555
O15_2 Pb1 1_555 1_555
O16_2 Pb2 1_555 1_555
O17_2 Pb4 1_555 1_555
O17_3 Pb5 1_555 1_555
O18_2 Pb3 1_555 1_555
O19_2 Pb2 1_555 1_555
Pb3 O12 1_555 1_555
Pb3 O15_2 1_555 1_555
Pb4 O14_2 1_555 1_555
Pb4 O18_2 1_555 1_555
Pb5 O19 1_555 1_555
P1 O3 1_555 1_555
P2 O8 1_555 1_555
P3 O12 1_555 1_555
P3 O13 1_555 1_555
O7 Pb5_3 1_555 1_555
O15 Pb1_3 1_555 1_555
O18 Pb4_5 1_555 1_555
O19 Pb2_2 1_555 1_555
O20 C28 1_555 1_555
C5 C6 1_555 1_555
C12 C13 1_555 1_555
C19 C20 1_555 1_555
C25 C28 1_555 1_555
C26 C27 1_555 1_555
Pb1_2 O19_2 1_555 1_555
Pb2_3 O1_2 1_555 1_555
Pb3_2 O13_2 1_555 1_555
Pb4_2 O11_2 1_555 1_555
Pb4_2 O17_3 1_555 1_555
Pb5_2 O6_2 1_555 1_555
Pb5_2 O17_2 1_555 1_555

#END
