
#######################################################################
#
#                 Cambridge Crystallographic Data Centre
#                                CCDC 
#
#######################################################################
#
# If this CIF has been generated from an entry in the Cambridge 
# Structural Database, then it will include bibliographic, chemical, 
# crystal, experimental, refinement or atomic coordinate data resulting 
# from the CCDC's data processing and validation procedures.
#
#######################################################################

data_OHUFOM
_symmetry_cell_setting           monoclinic
_symmetry_space_group_name_H-M   'P 21/n'
_symmetry_Int_Tables_number      14
_space_group_name_Hall           '-P 2yn'
loop_
_symmetry_equiv_pos_site_id
_symmetry_equiv_pos_as_xyz
1 x,y,z
2 1/2+x,1/2-y,1/2+z
3 -x,-y,-z
4 1/2-x,1/2+y,1/2-z
_cell_length_a                   8.751(3)
_cell_length_b                   11.579(4)
_cell_length_c                   12.961(4)
_cell_angle_alpha                90
_cell_angle_beta                 103.714(5)
_cell_angle_gamma                90
_cell_volume                     1275.87
loop_
_atom_site_label
_atom_site_type_symbol
_atom_site_fract_x
_atom_site_fract_y
_atom_site_fract_z
Ag1 Ag 1.67297(3) 0.316780(19) 1.160010(17)
Mn1 Mn 0.5000 0.5000 0.5000
N1 N 1.4237(3) 0.3530(2) 1.02852(19)
N2 N 0.7270(3) 0.4546(2) 0.62706(18)
N3 N 0.5852(3) 0.4162(2) 0.37253(18)
N4 N 0.6164(3) 0.6635(2) 0.46080(19)
C1 C 1.4258(4) 0.3683(3) 0.9270(2)
H1 H 1.5220 0.3626 0.9086
C2 C 1.2938(3) 0.3920(2) 0.8474(2)
H2 H 1.3024 0.4032 0.7780
C3 C 1.1482(3) 0.3991(2) 0.8721(2)
C4 C 1.1446(3) 0.3835(3) 0.9781(2)
H3 H 1.0500 0.3877 0.9988
C5 C 1.2837(4) 0.3618(3) 1.0522(2)
H4 H 1.2795 0.3528 1.1228
C6 C 1.0016(3) 0.4185(2) 0.7881(2)
C7 C 1.0053(4) 0.4744(3) 0.6940(3)
H5 H 1.1001 0.5018 0.6829
C8 C 0.8677(4) 0.4891(3) 0.6168(2)
H6 H 0.8737 0.5253 0.5538
C9 C 0.7242(3) 0.3994(3) 0.7166(2)
H7 H 0.6279 0.3726 0.7253
C10 C 0.8556(3) 0.3796(3) 0.7973(2)
H8 H 0.8463 0.3400 0.8580
C11 C 0.6166(3) 0.3801(2) 0.2988(2)
C12 C 0.6875(3) 0.7263(3) 0.4231(2)
N1B N -0.4237(3) 0.6470(2) -0.02852(19)
N2B N 0.2730(3) 0.5454(2) 0.37294(18)
C1B C -0.4258(4) 0.6317(3) 0.0730(2)
H1B H -0.5220 0.6374 0.0914
C2B C -0.2938(3) 0.6080(2) 0.1526(2)
H2B H -0.3024 0.5968 0.2220
C3B C -0.1482(3) 0.6009(2) 0.1279(2)
C4B C -0.1446(3) 0.6165(3) 0.0219(2)
H3B H -0.0500 0.6123 0.0012
C5B C -0.2837(4) 0.6382(3) -0.0522(2)
H4B H -0.2795 0.6472 -0.1228
C6B C -0.0016(3) 0.5815(2) 0.2119(2)
C7B C -0.0053(4) 0.5256(3) 0.3060(3)
H5B H -0.1001 0.4982 0.3171
C8B C 0.1323(4) 0.5109(3) 0.3832(2)
H6B H 0.1263 0.4747 0.4462
C9B C 0.2758(3) 0.6006(3) 0.2834(2)
H7B H 0.3721 0.6274 0.2747
C10B C 0.1444(3) 0.6204(3) 0.2027(2)
H8B H 0.1537 0.6600 0.1420
N3B N 0.4148(3) 0.5838(2) 0.62747(18)
C11B C 0.3834(3) 0.6199(2) 0.7012(2)
N4B N 0.3836(3) 0.3365(2) 0.53920(19)
C12B C 0.3125(3) 0.2737(3) 0.5769(2)
Ag1B Ag -0.67297(3) 0.683220(19) -0.160010(17)
C11_2 C 1.6166(3) 0.3801(2) 1.2988(2)
C12C C 1.8125(3) 0.2263(3) 1.0769(2)
Ag1_2 Ag 0.67297(3) 0.316780(19) 0.160010(17)
Ag1C Ag 0.82703(3) 0.816780(19) 0.339990(17)
Ag1B_2 Ag 0.32703(3) 0.683220(19) 0.839990(17)
Ag1A Ag 0.17297(3) 0.183220(19) 0.660010(17)
C11B_2 C -0.6166(3) 0.6199(2) -0.2988(2)
C12A C -0.8125(3) 0.7737(3) -0.0769(2)
loop_
_geom_bond_atom_site_label_1
_geom_bond_atom_site_label_2
_geom_bond_site_symmetry_1
_geom_bond_site_symmetry_2
Ag1 N1 1_555 1_555
Mn1 N2 1_555 1_555
N1 C1 1_555 1_555
N2 C8 1_555 1_555
N3 Mn1 1_555 1_555
N4 Mn1 1_555 1_555
C1 H1 1_555 1_555
C2 C1 1_555 1_555
H2 C2 1_555 1_555
C3 C2 1_555 1_555
C4 C3 1_555 1_555
H3 C4 1_555 1_555
C5 N1 1_555 1_555
H4 C5 1_555 1_555
C6 C3 1_555 1_555
C7 C6 1_555 1_555
H5 C7 1_555 1_555
C8 C7 1_555 1_555
H6 C8 1_555 1_555
C9 N2 1_555 1_555
H7 C9 1_555 1_555
C10 C6 1_555 1_555
H8 C10 1_555 1_555
C11 N3 1_555 1_555
C12 N4 1_555 1_555
N1B C1B 1_555 1_555
N2B Mn1 1_555 1_555
C1B H1B 1_555 1_555
C2B C1B 1_555 1_555
H2B C2B 1_555 1_555
C3B C2B 1_555 1_555
C4B C3B 1_555 1_555
H3B C4B 1_555 1_555
C5B N1B 1_555 1_555
H4B C5B 1_555 1_555
C6B C3B 1_555 1_555
C7B C6B 1_555 1_555
H5B C7B 1_555 1_555
C8B N2B 1_555 1_555
H6B C8B 1_555 1_555
C9B N2B 1_555 1_555
H7B C9B 1_555 1_555
C10B C6B 1_555 1_555
H8B C10B 1_555 1_555
N3B Mn1 1_555 1_555
C11B N3B 1_555 1_555
N4B Mn1 1_555 1_555
C12B N4B 1_555 1_555
Ag1B N1B 1_555 1_555
C11_2 Ag1 1_555 1_555
C12C Ag1 1_555 1_555
Ag1_2 C11 1_555 1_555
Ag1C C12 1_555 1_555
Ag1B_2 C11B 1_555 1_555
Ag1A C12B 1_555 1_555
C11B_2 Ag1B 1_555 1_555
C12A Ag1B 1_555 1_555
C4 C5 1_555 1_555
C9 C10 1_555 1_555
C4B C5B 1_555 1_555
C7B C8B 1_555 1_555
C9B C10B 1_555 1_555

#END
