
#######################################################################
#
#                 Cambridge Crystallographic Data Centre
#                                CCDC 
#
#######################################################################
#
# If this CIF has been generated from an entry in the Cambridge 
# Structural Database, then it will include bibliographic, chemical, 
# crystal, experimental, refinement or atomic coordinate data resulting 
# from the CCDC's data processing and validation procedures.
#
#######################################################################

data_OJALAO
_symmetry_cell_setting           monoclinic
_symmetry_space_group_name_H-M   'C 2'
_symmetry_Int_Tables_number      5
_space_group_name_Hall           'C 2y'
loop_
_symmetry_equiv_pos_site_id
_symmetry_equiv_pos_as_xyz
1 x,y,z
2 -x,y,-z
3 1/2+x,1/2+y,z
4 1/2-x,1/2+y,-z
_cell_length_a                   33.2283(19)
_cell_length_b                   6.6469(4)
_cell_length_c                   7.4241(4)
_cell_angle_alpha                90
_cell_angle_beta                 91.299(5)
_cell_angle_gamma                90
_cell_volume                     1639.3
loop_
_atom_site_label
_atom_site_type_symbol
_atom_site_fract_x
_atom_site_fract_y
_atom_site_fract_z
Zn1 Zn 0.233914(10) 0.42083(8) 0.73454(5)
N1 N 0.17375(8) 0.3623(4) 0.6437(4)
H1 H 0.1597 0.4709 0.6397
O1 O 0.24190(8) 0.1911(5) 0.5410(4)
O2 O 0.21213(8) 0.0329(4) 0.3117(4)
O3 O 0.24662(8) 0.2510(4) 0.9489(4)
O4 O 0.29276(8) 0.1716(4) 1.1569(4)
C1 C 0.02920(17) 0.1151(12) 0.7521(10)
H2 H 0.0017 0.0893 0.7477
C2 C 0.05512(18) -0.0259(11) 0.8210(10)
H3 H 0.0452 -0.1462 0.8659
C3 C 0.09645(16) 0.0098(9) 0.8246(8)
H4 H 0.1141 -0.0879 0.8690
C4 C 0.11124(12) 0.1906(8) 0.7620(6)
C5 C 0.08440(13) 0.3284(8) 0.6956(7)
H5 H 0.0939 0.4506 0.6526
C6 C 0.04331(15) 0.2908(10) 0.6905(8)
H6 H 0.0256 0.3872 0.6446
C7 C 0.15600(12) 0.2295(8) 0.7796(6)
H7 H 0.1615 0.2874 0.8976
H8 H 0.1698 0.1010 0.7757
C8 C 0.17382(11) 0.2780(6) 0.4625(5)
H9 H 0.1506 0.1887 0.4462
C9 C 0.21230(12) 0.1574(6) 0.4396(6)
C10 C 0.17216(10) 0.4422(9) 0.3178(5)
H10 H 0.1913 0.5469 0.3500
H11 H 0.1801 0.3849 0.2039
C11 C 0.13122(12) 0.5339(6) 0.2949(6)
C12 C 0.12273(16) 0.7232(8) 0.3638(8)
H12 H 0.1432 0.7977 0.4193
C13 C 0.08452(18) 0.8022(9) 0.3512(10)
H13 H 0.0794 0.9293 0.3976
C14 C 0.05434(18) 0.6950(11) 0.2711(10)
H14 H 0.0284 0.7478 0.2656
C15 C 0.06178(16) 0.5078(10) 0.1977(8)
H15 H 0.0413 0.4352 0.1404
C16 C 0.10044(11) 0.4307(12) 0.2113(5)
H16 H 0.1057 0.3049 0.1622
C17 C 0.27963(12) 0.2741(6) 1.0299(6)
H17 H 0.2959 0.3785 0.9909
Zn1C Zn 0.266086(10) -0.07917(8) 0.26546(5)
Zn1C_2 Zn 0.266086(10) -0.07917(8) 1.26546(5)
O2C O 0.28787(8) 0.5329(4) 0.6883(4)
O4C O 0.20724(8) 0.6716(4) 0.8431(4)
loop_
_geom_bond_atom_site_label_1
_geom_bond_atom_site_label_2
_geom_bond_site_symmetry_1
_geom_bond_site_symmetry_2
Zn1 N1 1_555 1_555
N1 H1 1_555 1_555
O1 Zn1 1_555 1_555
O2 C9 1_555 1_555
O3 Zn1 1_555 1_555
O4 C17 1_555 1_555
C1 H2 1_555 1_555
C2 C1 1_555 1_555
H3 C2 1_555 1_555
C3 C2 1_555 1_555
H4 C3 1_555 1_555
C4 C3 1_555 1_555
C5 C4 1_555 1_555
H5 C5 1_555 1_555
C6 C1 1_555 1_555
H6 C6 1_555 1_555
C7 N1 1_555 1_555
H7 C7 1_555 1_555
H8 C7 1_555 1_555
C8 N1 1_555 1_555
H9 C8 1_555 1_555
C9 O1 1_555 1_555
C10 C8 1_555 1_555
H10 C10 1_555 1_555
H11 C10 1_555 1_555
C11 C10 1_555 1_555
C12 C11 1_555 1_555
H12 C12 1_555 1_555
C13 C12 1_555 1_555
H13 C13 1_555 1_555
C14 C13 1_555 1_555
H14 C14 1_555 1_555
C15 C14 1_555 1_555
H15 C15 1_555 1_555
C16 C11 1_555 1_555
H16 C16 1_555 1_555
C17 O3 1_555 1_555
H17 C17 1_555 1_555
Zn1C O2 1_555 1_555
Zn1C_2 O4 1_555 1_555
O2C Zn1 1_555 1_555
O4C Zn1 1_555 1_555
C4 C7 1_555 1_555
C5 C6 1_555 1_555
C8 C9 1_555 1_555
C15 C16 1_555 1_555

#END
