
#######################################################################
#
#                 Cambridge Crystallographic Data Centre
#                                CCDC 
#
#######################################################################
#
# If this CIF has been generated from an entry in the Cambridge 
# Structural Database, then it will include bibliographic, chemical, 
# crystal, experimental, refinement or atomic coordinate data resulting 
# from the CCDC's data processing and validation procedures.
#
#######################################################################

data_OJANET
_symmetry_cell_setting           triclinic
_symmetry_space_group_name_H-M   'P -1'
_symmetry_Int_Tables_number      2
_space_group_name_Hall           '-P 1'
loop_
_symmetry_equiv_pos_site_id
_symmetry_equiv_pos_as_xyz
1 x,y,z
2 -x,-y,-z
_cell_length_a                   4.3852(11)
_cell_length_b                   11.548(3)
_cell_length_c                   16.509(4)
_cell_angle_alpha                90.961(3)
_cell_angle_beta                 91.721(3)
_cell_angle_gamma                91.883(3)
_cell_volume                     835.06
loop_
_atom_site_label
_atom_site_type_symbol
_atom_site_fract_x
_atom_site_fract_y
_atom_site_fract_z
Pb1 Pb -0.16432(17) 0.67453(6) 0.48145(4)
O1 O 0.040(4) 0.8032(16) 0.3745(14)
O2 O 0.407(4) 0.8200(16) 0.4700(11)
O3 O -0.408(3) 0.6119(14) 0.3459(9)
O4 O -0.756(3) 0.5417(13) 0.4301(9)
O5 O 0.302(4) 0.6727(15) 0.6110(11)
O6 O -0.014(5) 0.813(2) 0.6128(15)
O7 O 0.336(6) 0.802(2) 0.7064(12)
N1 N 0.390(5) 0.9495(17) 0.2754(12)
N2 N 0.271(6) 0.992(2) 0.1528(14)
H1 H 0.1884 1.0250 0.1115
N3 N -0.657(4) 0.4860(16) 0.2150(11)
N4 N -0.369(5) 0.445(2) 0.1174(12)
H2 H -0.2467 0.4092 0.0867
N5 N 0.210(5) 0.7640(18) 0.6439(11)
C1 C 0.281(5) 0.8497(18) 0.4059(16)
C2 C 0.428(5) 0.9548(19) 0.3640(12)
H3 H 0.3385 1.0249 0.3842
H4 H 0.6446 0.9594 0.3784
C3 C 0.235(6) 1.022(2) 0.2303(16)
H5 H 0.1203 1.0821 0.2493
C4 C 0.468(8) 0.899(3) 0.150(2)
H6 H 0.5379 0.8635 0.1038
C5 C 0.534(7) 0.871(2) 0.2248(17)
H7 H 0.6549 0.8109 0.2412
C6 C -0.639(4) 0.5501(18) 0.3619(13)
C7 C -0.808(5) 0.479(2) 0.2931(14)
H8 H -0.8254 0.3990 0.3088
H9 H -1.0135 0.5076 0.2864
C8 C -0.642(6) 0.581(2) 0.1640(16)
H10 H -0.7387 0.6505 0.1712
C9 C -0.469(8) 0.554(3) 0.1044(17)
H11 H -0.4221 0.6003 0.0607
C10 C -0.483(6) 0.403(2) 0.1821(15)
H12 H -0.4526 0.3300 0.2025
Pb1_2 Pb 0.83568(17) 0.67453(6) 0.48145(4)
Pb1_3 Pb -1.16432(17) 0.67453(6) 0.48145(4)
Pb1A Pb -0.83568(17) 0.32547(6) 0.51855(4)
O2_2 O -0.593(4) 0.8200(16) 0.4700(11)
O4_2 O 0.244(3) 0.5417(13) 0.4301(9)
O4A O -0.244(3) 0.4583(13) 0.5699(9)
O8 O -0.065(7) 0.214(3) 0.1184(16)
O9 O 0.138(9) 0.136(2) 0.0168(14)
O10 O -0.025(6) 0.316(2) 0.0121(14)
N6 N 0.021(7) 0.220(2) 0.0487(15)
loop_
_geom_bond_atom_site_label_1
_geom_bond_atom_site_label_2
_geom_bond_site_symmetry_1
_geom_bond_site_symmetry_2
Pb1 O1 1_555 1_555
O1 C1 1_555 1_555
O2 Pb1 1_555 1_555
O3 Pb1 1_555 1_555
O4 C6 1_555 1_555
O5 Pb1 1_555 1_555
O6 Pb1 1_555 1_555
O7 N5 1_555 1_555
O8 N6 1_555 1_555
O9 N6 1_555 1_555
O10 N6 1_555 1_555
N1 C2 1_555 1_555
N2 H1 1_555 1_555
N3 C7 1_555 1_555
N4 H2 1_555 1_555
N5 O5 1_555 1_555
C1 O2 1_555 1_555
C2 C1 1_555 1_555
H3 C2 1_555 1_555
H4 C2 1_555 1_555
C3 N1 1_555 1_555
H5 C3 1_555 1_555
C4 N2 1_555 1_555
H6 C4 1_555 1_555
C5 N1 1_555 1_555
H7 C5 1_555 1_555
C6 O3 1_555 1_555
C7 C6 1_555 1_555
H8 C7 1_555 1_555
H9 C7 1_555 1_555
C8 N3 1_555 1_555
H10 C8 1_555 1_555
C9 N4 1_555 1_555
H11 C9 1_555 1_555
C10 N3 1_555 1_555
H12 C10 1_555 1_555
Pb1_2 O2 1_555 1_555
Pb1_3 O4 1_555 1_555
Pb1A O4 1_555 1_555
O2_2 Pb1 1_555 1_555
O4_2 Pb1 1_555 1_555
O4A Pb1 1_555 1_555
O6 N5 1_555 1_555
N2 C3 1_555 1_555
N4 C10 1_555 1_555
C4 C5 1_555 1_555
C8 C9 1_555 1_555
Pb1_3 O2_2 1_555 1_555

#END
