
#######################################################################
#
#                 Cambridge Crystallographic Data Centre
#                                CCDC 
#
#######################################################################
#
# If this CIF has been generated from an entry in the Cambridge 
# Structural Database, then it will include bibliographic, chemical, 
# crystal, experimental, refinement or atomic coordinate data resulting 
# from the CCDC's data processing and validation procedures.
#
#######################################################################

data_OJANIW
_symmetry_cell_setting           orthorhombic
_symmetry_space_group_name_H-M   'A b a 2'
_symmetry_Int_Tables_number      41
_space_group_name_Hall           'A 2 -2ab'
loop_
_symmetry_equiv_pos_site_id
_symmetry_equiv_pos_as_xyz
1 x,y,z
2 -x,-y,z
3 1/2-x,1/2+y,z
4 1/2+x,1/2-y,z
5 x,1/2+y,1/2+z
6 -x,1/2-y,1/2+z
7 1/2-x,y,1/2+z
8 1/2+x,-y,1/2+z
_cell_length_a                   15.2939(9)
_cell_length_b                   10.4710(14)
_cell_length_c                   11.3349(15)
_cell_angle_alpha                90
_cell_angle_beta                 90
_cell_angle_gamma                90
_cell_volume                     1815.2
loop_
_atom_site_label
_atom_site_type_symbol
_atom_site_fract_x
_atom_site_fract_y
_atom_site_fract_z
Hg1 Hg 0.07192(2) 0.44029(4) 0.30371(4)
N1 N 0.1730(6) 0.2847(10) 0.2920(19)
N2 N 0.2946(8) 0.0866(11) 0.2754(10)
C1 C 0.1647(10) 0.1789(14) 0.3591(14)
C2 C 0.2265(10) 0.0813(13) 0.3484(14)
C3 C 0.2432(9) 0.2957(14) 0.2191(13)
C4 C 0.3047(9) 0.1949(14) 0.2123(13)
Hg1A Hg -0.07192(2) 0.55971(4) 0.30371(4)
N2B N 0.2054(8) 0.5866(11) 0.2754(10)
Hg1B Hg 0.42808(2) -0.05971(4) 0.30371(4)
Cl1 Cl 0.4244(2) 0.3185(4) 0.4986(3)
O1 O 0.3879(10) 0.4468(11) 0.5538(12)
O2 O 0.3496(10) 0.2340(14) 0.4967(14)
O3 O 0.4553(10) 0.3308(18) 0.3803(13)
O4 O 0.4938(12) 0.2677(14) 0.5752(14)
loop_
_geom_bond_atom_site_label_1
_geom_bond_atom_site_label_2
_geom_bond_site_symmetry_1
_geom_bond_site_symmetry_2
Hg1 N1 1_555 1_555
Cl1 O1 1_555 1_555
O2 Cl1 1_555 1_555
O3 Cl1 1_555 1_555
O4 Cl1 1_555 1_555
N1 C1 1_555 1_555
N2 C2 1_555 1_555
C1 C2 1_555 1_555
C3 N1 1_555 1_555
C4 N2 1_555 1_555
Hg1A Hg1 1_555 1_555
N2B Hg1 1_555 1_555
Hg1B N2 1_555 1_555
C3 C4 1_555 1_555

#END
