
#######################################################################
#
#                 Cambridge Crystallographic Data Centre
#                                CCDC 
#
#######################################################################
#
# If this CIF has been generated from an entry in the Cambridge 
# Structural Database, then it will include bibliographic, chemical, 
# crystal, experimental, refinement or atomic coordinate data resulting 
# from the CCDC's data processing and validation procedures.
#
#######################################################################

data_OJANAO
_symmetry_cell_setting           orthorhombic
_symmetry_space_group_name_H-M   'P n m a'
_symmetry_Int_Tables_number      62
_space_group_name_Hall           '-P 2ac 2n'
loop_
_symmetry_equiv_pos_site_id
_symmetry_equiv_pos_as_xyz
1 x,y,z
2 1/2+x,y,1/2-z
3 1/2-x,1/2+y,1/2+z
4 x,1/2-y,z
5 -x,-y,-z
6 1/2-x,-y,1/2+z
7 1/2+x,1/2-y,1/2-z
8 -x,1/2+y,-z
_cell_length_a                   11.827(2)
_cell_length_b                   16.625(2)
_cell_length_c                   6.0794(11)
_cell_angle_alpha                90
_cell_angle_beta                 90
_cell_angle_gamma                90
_cell_volume                     1195.36
loop_
_atom_site_label
_atom_site_type_symbol
_atom_site_fract_x
_atom_site_fract_y
_atom_site_fract_z
Hg1 Hg 0.02623(4) 0.06580(2) 0.58595(7)
N1 N 0.0766(8) 0.1799(5) 0.7359(16)
Cl1 Cl 0.1617(3) -0.1023(2) 0.9316(5)
O1 O 0.1598(12) -0.1336(11) 1.1550(19)
O2 O 0.127(2) -0.0227(9) 0.942(3)
O3 O 0.2729(10) -0.1110(9) 0.8539(17)
O4 O 0.0882(10) -0.1465(6) 0.790(2)
C1 C 0.0471(14) 0.2500 0.650(2)
C2 C 0.1421(10) 0.1799(6) 0.9211(17)
C3 C 0.1748(16) 0.2500 1.016(3)
N1C N 0.0766(8) 0.3201(5) 0.7359(16)
C2C C 0.1421(10) 0.3201(6) 0.9211(17)
Cl1E Cl 0.3383(3) 0.1023(2) 0.4316(5)
O1E O 0.3402(12) 0.1336(11) 0.6550(19)
O2E O 0.373(2) 0.0227(9) 0.442(3)
O3E O 0.2271(10) 0.1110(9) 0.3539(17)
O4E O 0.4118(10) 0.1465(6) 0.290(2)
Hg1C Hg 0.02623(4) 0.43420(2) 0.58595(7)
Hg1D Hg -0.02623(4) -0.06580(2) 0.41405(7)
Hg1E Hg 0.47377(4) -0.06580(2) 1.08595(7)
Hg1E_2 Hg 0.47377(4) -0.06580(2) 0.08595(7)
Hg1G Hg -0.02623(4) 0.56580(2) 0.41405(7)
O2C O 0.127(2) 0.5227(9) 0.942(3)
O3B O 0.2271(10) 0.3890(9) 0.3539(17)
loop_
_geom_bond_atom_site_label_1
_geom_bond_atom_site_label_2
_geom_bond_site_symmetry_1
_geom_bond_site_symmetry_2
Hg1 N1 1_555 1_555
N1 C1 1_555 1_555
Cl1 O1 1_555 1_555
O2 Hg1 1_555 1_555
O3 Cl1 1_555 1_555
O4 Cl1 1_555 1_555
C1 N1C 1_555 1_555
C2 N1 1_555 1_555
C3 C2 1_555 1_555
N1C C2C 1_555 1_555
C2C C3 1_555 1_555
Cl1E O1E 1_555 1_555
O2E Cl1E 1_555 1_555
O3E Hg1 1_555 1_555
O4E Cl1E 1_555 1_555
Hg1C N1C 1_555 1_555
Hg1D Hg1 1_555 1_555
Hg1E O3 1_555 1_555
Hg1E_2 O2E 1_555 1_555
Hg1G Hg1C 1_555 1_555
O2C Hg1C 1_555 1_555
O3B Hg1C 1_555 1_555
Cl1 O2 1_555 1_555
Cl1E O3E 1_555 1_555

#END
