
#######################################################################
#
#                 Cambridge Crystallographic Data Centre
#                                CCDC 
#
#######################################################################
#
# If this CIF has been generated from an entry in the Cambridge 
# Structural Database, then it will include bibliographic, chemical, 
# crystal, experimental, refinement or atomic coordinate data resulting 
# from the CCDC's data processing and validation procedures.
#
#######################################################################

data_OJARUO
_symmetry_cell_setting           triclinic
_symmetry_space_group_name_H-M   'P -1'
_symmetry_Int_Tables_number      2
_space_group_name_Hall           '-P 1'
loop_
_symmetry_equiv_pos_site_id
_symmetry_equiv_pos_as_xyz
1 x,y,z
2 -x,-y,-z
_cell_length_a                   8.3520(11)
_cell_length_b                   11.7428(16)
_cell_length_c                   12.3408(16)
_cell_angle_alpha                100.670(2)
_cell_angle_beta                 101.093(2)
_cell_angle_gamma                97.040(2)
_cell_volume                     1151.38
loop_
_atom_site_label
_atom_site_type_symbol
_atom_site_fract_x
_atom_site_fract_y
_atom_site_fract_z
Pb1 Pb 0.75895(2) 1.189096(17) 0.402349(16)
C1 C 0.0602(9) 0.3006(6) -0.3504(5)
H1 H 0.0919 0.2293 -0.3770
C2 C 0.1341(8) 0.3603(5) -0.2421(5)
H2 H 0.2141 0.3297 -0.1978
C3 C 0.0893(6) 0.4652(4) -0.1996(4)
C4 C -0.0255(7) 0.5077(5) -0.2717(5)
H3 H -0.0565 0.5800 -0.2480
C5 C -0.0929(8) 0.4426(6) -0.3777(5)
H4 H -0.1712 0.4722 -0.4242
C6 C 0.1634(6) 0.5304(4) -0.0812(4)
C7 C 0.1438(6) 0.6461(4) -0.0422(4)
H5 H 0.0830 0.6855 -0.0901
C8 C 0.2160(6) 0.7015(4) 0.0691(4)
C9 C 0.3018(7) 0.6379(4) 0.1365(4)
H6 H 0.3486 0.6715 0.2121
C10 C 0.3188(6) 0.5233(4) 0.0916(4)
C11 C 0.4163(6) 0.4539(4) 0.1617(4)
C12 C 0.4459(7) 0.3457(5) 0.1121(5)
H7 H 0.4027 0.3147 0.0355
C13 C 0.5407(8) 0.2833(5) 0.1771(5)
H8 H 0.5605 0.2107 0.1423
C14 C 0.5739(8) 0.4264(6) 0.3336(5)
H9 H 0.6173 0.4549 0.4106
C15 C 0.4822(8) 0.4943(5) 0.2755(5)
H10 H 0.4649 0.5667 0.3126
C16 C 0.1926(6) 0.8231(4) 0.1166(4)
C17 C 0.3217(6) 0.9111(4) 0.1831(4)
C18 C 0.2856(7) 1.0174(5) 0.2320(5)
H11 H 0.3713 1.0760 0.2750
C19 C 0.1258(7) 1.0386(5) 0.2185(4)
C20 C -0.0013(7) 0.9562(5) 0.1496(5)
H12 H -0.1091 0.9719 0.1370
C21 C 0.0338(7) 0.8488(5) 0.0987(5)
H13 H -0.0518 0.7929 0.0514
N1 N -0.0535(7) 0.3384(5) -0.4193(4)
N2 N 0.2489(5) 0.4699(4) -0.0157(3)
N3 N 0.6039(6) 0.3224(4) 0.2861(4)
S1 S 0.53670(17) 0.89760(12) 0.21413(12)
S2 S 0.08954(18) 1.16601(12) 0.30675(13)
O1 O 0.5613(6) 0.8476(4) 0.3150(4)
O2 O 0.7304(9) 1.0222(5) 0.5085(6)
H14 H 0.826(6) 1.004(8) 0.530(9)
H15 H 0.674(10) 0.963(6) 0.459(7)
O3 O 0.5219(6) 1.2485(5) 0.5036(4)
H16 H 0.4364 1.2664 0.4652
H17 H 0.5015 1.2406 0.5670
O4 O 0.5712(5) 0.8252(4) 0.1186(4)
O5 O 0.6235(5) 1.0181(3) 0.2388(3)
O6 O 0.2380(6) 1.2515(4) 0.3347(5)
O7 O 0.0540(6) 1.1244(4) 0.4058(3)
O8 O -0.0561(5) 1.2038(3) 0.2481(3)
Pb1_2 Pb -0.24105(2) 0.189096(17) -0.597651(16)
Pb1_3 Pb -0.24105(2) 1.189096(17) 0.402349(16)
Pb1_4 Pb 0.75895(2) 0.189096(17) 0.402349(16)
N1_2 N 0.9465(7) 1.3384(5) 0.5807(4)
N3_2 N 0.6039(6) 1.3224(4) 0.2861(4)
O7_2 O 1.0540(6) 1.1244(4) 0.4058(3)
O8_2 O 0.9439(5) 1.2038(3) 0.2481(3)
loop_
_geom_bond_atom_site_label_1
_geom_bond_atom_site_label_2
_geom_bond_site_symmetry_1
_geom_bond_site_symmetry_2
Pb1 O2 1_555 1_555
C1 H1 1_555 1_555
C2 C1 1_555 1_555
H2 C2 1_555 1_555
C3 C2 1_555 1_555
C4 C3 1_555 1_555
H3 C4 1_555 1_555
C5 C4 1_555 1_555
H4 C5 1_555 1_555
C6 C3 1_555 1_555
C7 C6 1_555 1_555
H5 C7 1_555 1_555
C8 C7 1_555 1_555
C9 C8 1_555 1_555
H6 C9 1_555 1_555
C10 C9 1_555 1_555
C11 C10 1_555 1_555
C12 C11 1_555 1_555
H7 C12 1_555 1_555
C13 C12 1_555 1_555
H8 C13 1_555 1_555
C14 H9 1_555 1_555
C15 C11 1_555 1_555
H10 C15 1_555 1_555
C16 C8 1_555 1_555
C17 C16 1_555 1_555
C18 C17 1_555 1_555
H11 C18 1_555 1_555
C19 C18 1_555 1_555
C20 C19 1_555 1_555
H12 C20 1_555 1_555
C21 C16 1_555 1_555
H13 C21 1_555 1_555
N1 C1 1_555 1_555
N2 C6 1_555 1_555
N3 C13 1_555 1_555
S1 C17 1_555 1_555
S2 C19 1_555 1_555
O1 S1 1_555 1_555
O2 H14 1_555 1_555
H15 O2 1_555 1_555
O3 Pb1 1_555 1_555
H16 O3 1_555 1_555
H17 O3 1_555 1_555
O4 S1 1_555 1_555
O5 Pb1 1_555 1_555
O6 S2 1_555 1_555
O7 S2 1_555 1_555
O8 S2 1_555 1_555
Pb1_2 N1 1_555 1_555
Pb1_3 O7 1_555 1_555
Pb1_4 N3 1_555 1_555
N1_2 Pb1 1_555 1_555
N3_2 Pb1 1_555 1_555
O7_2 Pb1 1_555 1_555
O8_2 Pb1 1_555 1_555
C5 N1 1_555 1_555
C10 N2 1_555 1_555
C14 C15 1_555 1_555
C14 N3 1_555 1_555
C20 C21 1_555 1_555
S1 O5 1_555 1_555
O8 Pb1_3 1_555 1_555

#END
