
#######################################################################
#
#                 Cambridge Crystallographic Data Centre
#                                CCDC 
#
#######################################################################
#
# If this CIF has been generated from an entry in the Cambridge 
# Structural Database, then it will include bibliographic, chemical, 
# crystal, experimental, refinement or atomic coordinate data resulting 
# from the CCDC's data processing and validation procedures.
#
#######################################################################

data_OJASAV
_symmetry_cell_setting           monoclinic
_symmetry_space_group_name_H-M   'P 21/c'
_symmetry_Int_Tables_number      14
_space_group_name_Hall           '-P 2ybc'
loop_
_symmetry_equiv_pos_site_id
_symmetry_equiv_pos_as_xyz
1 x,y,z
2 -x,1/2+y,1/2-z
3 -x,-y,-z
4 x,1/2-y,1/2+z
_cell_length_a                   13.784(3)
_cell_length_b                   14.323(3)
_cell_length_c                   13.791(3)
_cell_angle_alpha                90
_cell_angle_beta                 91.018(4)
_cell_angle_gamma                90
_cell_volume                     2722.3
loop_
_atom_site_label
_atom_site_type_symbol
_atom_site_fract_x
_atom_site_fract_y
_atom_site_fract_z
Pb1 Pb 1.28856(3) 0.60159(3) -0.40939(3)
S1 S 0.7662(2) 0.8521(2) 0.1685(2)
S2 S 0.4162(2) 0.6885(2) 0.0823(2)
C1 C 1.0783(9) 0.6033(8) -0.2609(8)
H1 H 1.0479 0.5964 -0.3212
C2 C 1.0217(8) 0.6111(8) -0.1806(8)
H2 H 0.9545 0.6088 -0.1873
C3 C 1.0647(7) 0.6228(7) -0.0875(8)
C4 C 1.1631(8) 0.6226(8) -0.0858(8)
H3 H 1.1958 0.6287 -0.0266
C5 C 1.2163(8) 0.6138(9) -0.1693(9)
H4 H 1.2837 0.6139 -0.1640
C6 C 1.0067(8) 0.6341(7) -0.0001(7)
C7 C 0.9102(8) 0.6492(8) -0.0057(8)
H5 H 0.8786 0.6516 -0.0658
C8 C 0.8578(7) 0.6615(8) 0.0795(8)
C9 C 0.9077(7) 0.6559(8) 0.1681(8)
H6 H 0.8749 0.6624 0.2260
C10 C 1.0073(8) 0.6405(8) 0.1684(8)
C11 C 1.0616(8) 0.6331(7) 0.2616(8)
C12 C 1.1597(9) 0.6409(8) 0.2616(9)
H7 H 1.1921 0.6495 0.2037
C13 C 1.2116(9) 0.6359(8) 0.3492(10)
H8 H 1.2787 0.6411 0.3474
C14 C 1.0752(9) 0.6175(9) 0.4356(8)
H9 H 1.0434 0.6096 0.4939
C15 C 1.0203(8) 0.6220(8) 0.3495(7)
H10 H 0.9531 0.6171 0.3526
C16 C 0.7502(7) 0.6751(8) 0.0795(7)
C17 C 0.7027(7) 0.7551(7) 0.1171(7)
C18 C 0.6021(8) 0.7575(8) 0.1170(7)
H11 H 0.5716 0.8094 0.1430
C19 C 0.5451(8) 0.6855(8) 0.0794(8)
C20 C 0.5920(8) 0.6097(8) 0.0381(8)
H12 H 0.5555 0.5613 0.0112
C21 C 0.6946(8) 0.6053(8) 0.0363(8)
H13 H 0.7248 0.5553 0.0062
N1 N 1.1756(7) 0.6052(7) -0.2564(7)
N2 N 1.0564(6) 0.6293(6) 0.0845(6)
N3 N 1.1702(8) 0.6240(6) 0.4367(7)
O1 O 0.7947(5) 0.8260(6) 0.2664(5)
O2 O 0.8481(5) 0.8721(5) 0.1063(5)
O3 O 0.6961(6) 0.9273(5) 0.1671(6)
O4 O 0.3824(6) 0.5931(6) 0.0772(7)
O5 O 0.3925(5) 0.7361(6) 0.1714(5)
O6 O 0.3837(5) 0.7450(6) -0.0004(5)
O7 O 1.4068(6) 0.5287(7) -0.5310(6)
H14 H 1.4601 0.5177 -0.5589
H15 H 1.3610 0.5111 -0.5689
O8 O 1.3866(7) 0.5027(7) -0.2937(6)
H16 H 1.3760 0.4603 -0.2520
H17 H 1.4326 0.4841 -0.3291
O9 O 1.2083(5) 0.4493(5) -0.4316(5)
H18 H 1.1696 0.4364 -0.4784
H19 H 1.1778 0.4415 -0.3792
Pb1_2 Pb 1.28856(3) 0.60159(3) 0.59061(3)
Pb1C Pb 0.28856(3) 0.89841(3) 0.09061(3)
N3_2 N 1.1702(8) 0.6240(6) -0.5633(7)
O6C O 1.3837(5) 0.7550(6) -0.5004(5)
O10 O 1.4883(7) 0.6890(8) -0.6508(6)
H20 H 1.5357 0.7271 -0.6492
H21 H 1.4557 0.6994 -0.7026
O11 O 1.5466(8) 0.5487(9) -0.2010(8)
H22 H 1.5860 0.5939 -0.1936
H23 H 1.5703 0.5019 -0.1710
O12 O 1.3098(7) 0.3106(6) -0.3588(6)
H24 H 1.3330 0.2862 -0.4096
H25 H 1.2884 0.2667 -0.3237
loop_
_geom_bond_atom_site_label_1
_geom_bond_atom_site_label_2
_geom_bond_site_symmetry_1
_geom_bond_site_symmetry_2
Pb1 N1 1_555 1_555
S1 C17 1_555 1_555
S2 C19 1_555 1_555
C1 H1 1_555 1_555
C2 C1 1_555 1_555
H2 C2 1_555 1_555
C3 C2 1_555 1_555
C4 C3 1_555 1_555
H3 C4 1_555 1_555
C5 C4 1_555 1_555
H4 C5 1_555 1_555
C6 C3 1_555 1_555
C7 C6 1_555 1_555
H5 C7 1_555 1_555
C8 C7 1_555 1_555
C9 C8 1_555 1_555
H6 C9 1_555 1_555
C10 C9 1_555 1_555
C11 C10 1_555 1_555
C12 C11 1_555 1_555
H7 C12 1_555 1_555
C13 C12 1_555 1_555
H8 C13 1_555 1_555
C14 H9 1_555 1_555
C15 C11 1_555 1_555
H10 C15 1_555 1_555
C16 C8 1_555 1_555
C17 C16 1_555 1_555
C18 C17 1_555 1_555
H11 C18 1_555 1_555
C19 C18 1_555 1_555
C20 C19 1_555 1_555
H12 C20 1_555 1_555
C21 C16 1_555 1_555
H13 C21 1_555 1_555
N1 C1 1_555 1_555
N2 C6 1_555 1_555
N3 C13 1_555 1_555
O1 S1 1_555 1_555
O2 S1 1_555 1_555
O3 S1 1_555 1_555
O4 S2 1_555 1_555
O5 S2 1_555 1_555
O6 S2 1_555 1_555
O7 Pb1 1_555 1_555
H14 O7 1_555 1_555
H15 O7 1_555 1_555
O8 Pb1 1_555 1_555
H16 O8 1_555 1_555
H17 O8 1_555 1_555
O9 Pb1 1_555 1_555
H18 O9 1_555 1_555
H19 O9 1_555 1_555
O10 H20 1_555 1_555
H21 O10 1_555 1_555
O11 H22 1_555 1_555
H23 O11 1_555 1_555
O12 H24 1_555 1_555
H25 O12 1_555 1_555
Pb1_2 N3 1_555 1_555
Pb1C O6 1_555 1_555
N3_2 Pb1 1_555 1_555
O6C Pb1 1_555 1_555
C5 N1 1_555 1_555
C10 N2 1_555 1_555
C14 C15 1_555 1_555
C14 N3 1_555 1_555
C20 C21 1_555 1_555

#END
