
#######################################################################
#
#                 Cambridge Crystallographic Data Centre
#                                CCDC 
#
#######################################################################
#
# If this CIF has been generated from an entry in the Cambridge 
# Structural Database, then it will include bibliographic, chemical, 
# crystal, experimental, refinement or atomic coordinate data resulting 
# from the CCDC's data processing and validation procedures.
#
#######################################################################

data_OJEDEM01
_symmetry_cell_setting           triclinic
_symmetry_space_group_name_H-M   'P -1'
_symmetry_Int_Tables_number      2
_space_group_name_Hall           '-P 1'
loop_
_symmetry_equiv_pos_site_id
_symmetry_equiv_pos_as_xyz
1 x,y,z
2 -x,-y,-z
_cell_length_a                   7.7715(16)
_cell_length_b                   9.3157(19)
_cell_length_c                   10.887(2)
_cell_angle_alpha                89.35(3)
_cell_angle_beta                 69.63(3)
_cell_angle_gamma                76.41(3)
_cell_volume                     716.059
loop_
_atom_site_label
_atom_site_type_symbol
_atom_site_fract_x
_atom_site_fract_y
_atom_site_fract_z
Cu1 Cu -0.02021(8) 0.13135(6) -0.30524(5)
V1 V 0.29092(11) 0.35242(10) -0.43744(8)
V2 V -0.34557(12) 0.37924(10) -0.35259(9)
O1 O 0.0980(5) 0.3093(4) -0.3414(4)
O2 O 0.2089(6) 0.0090(5) -0.4482(5)
O3 O 0.4191(5) 0.3908(5) -0.3393(4)
O4 O 0.2415(6) 0.5112(6) -0.5236(5)
N1 N -0.1022(6) -0.0637(5) -0.2292(4)
N2 N -0.1177(6) 0.1864(5) -0.1040(4)
O5 O 0.4153(7) 0.2116(5) -0.5398(5)
O6 O -0.3560(6) 0.4411(5) -0.2135(4)
C1 C -0.1923(7) -0.0458(6) -0.0972(5)
C2 C -0.3720(9) 0.0011(9) 0.1771(6)
H1 H -0.4304 0.0152 0.2680
C3 C -0.0886(9) -0.1887(7) -0.2911(6)
H2 H -0.0218 -0.2032 -0.3812
C4 C -0.2928(9) 0.2467(8) 0.1655(6)
H3 H -0.3520 0.2685 0.2558
C5 C -0.2645(9) -0.2808(7) -0.0967(7)
H4 H -0.3227 -0.3530 -0.0537
C6 C -0.2895(8) 0.1113(7) 0.1067(6)
C7 C -0.2760(8) -0.1514(7) -0.0244(6)
C8 C -0.1985(7) 0.0886(6) -0.0303(5)
C9 C -0.1694(10) -0.3001(7) -0.2281(8)
H5 H -0.1583 -0.3864 -0.2754
C10 C -0.2089(9) 0.3443(7) 0.0892(6)
H6 H -0.2085 0.4332 0.1271
C11 C -0.3668(9) -0.1238(7) 0.1140(7)
H7 H -0.4240 -0.1939 0.1620
C12 C -0.1234(8) 0.3121(6) -0.0456(6)
H8 H -0.0680 0.3813 -0.0967
O7 O -0.2124(5) 0.2015(4) -0.3850(4)
V2A V 0.34557(12) 0.62076(10) -0.64741(9)
V2_2 V 0.65443(12) 0.37924(10) -0.35259(9)
O3_2 O -0.5809(5) 0.3908(5) -0.3393(4)
O4A O -0.2415(6) 0.4888(6) -0.4764(5)
loop_
_geom_bond_atom_site_label_1
_geom_bond_atom_site_label_2
_geom_bond_site_symmetry_1
_geom_bond_site_symmetry_2
Cu1 O1 1_555 1_555
V1 O1 1_555 1_555
V2 O6 1_555 1_555
O2 Cu1 1_555 1_555
O3 V1 1_555 1_555
O4 V1 1_555 1_555
N1 Cu1 1_555 1_555
N2 Cu1 1_555 1_555
O5 V1 1_555 1_555
C1 N1 1_555 1_555
C2 H1 1_555 1_555
C3 N1 1_555 1_555
H2 C3 1_555 1_555
C4 H3 1_555 1_555
C5 H4 1_555 1_555
C6 C2 1_555 1_555
C7 C1 1_555 1_555
C8 N2 1_555 1_555
C9 C3 1_555 1_555
H5 C9 1_555 1_555
C10 C4 1_555 1_555
H6 C10 1_555 1_555
C11 C2 1_555 1_555
H7 C11 1_555 1_555
C12 N2 1_555 1_555
H8 C12 1_555 1_555
O7 Cu1 1_555 1_555
V2A O4 1_555 1_555
V2_2 O3 1_555 1_555
O3_2 V2 1_555 1_555
O4A V2 1_555 1_555
V2 O7 1_555 1_555
C1 C8 1_555 1_555
C4 C6 1_555 1_555
C5 C7 1_555 1_555
C5 C9 1_555 1_555
C6 C8 1_555 1_555
C7 C11 1_555 1_555
C10 C12 1_555 1_555

#END
