
#######################################################################
#
#                 Cambridge Crystallographic Data Centre
#                                CCDC 
#
#######################################################################
#
# If this CIF has been generated from an entry in the Cambridge 
# Structural Database, then it will include bibliographic, chemical, 
# crystal, experimental, refinement or atomic coordinate data resulting 
# from the CCDC's data processing and validation procedures.
#
#######################################################################

data_OJEGUG
_symmetry_cell_setting           monoclinic
_symmetry_space_group_name_H-M   'P 21/n'
_symmetry_Int_Tables_number      14
_space_group_name_Hall           '-P 2yn'
loop_
_symmetry_equiv_pos_site_id
_symmetry_equiv_pos_as_xyz
1 x,y,z
2 1/2-x,1/2+y,1/2-z
3 -x,-y,-z
4 1/2+x,1/2-y,1/2+z
_cell_length_a                   14.6948(4)
_cell_length_b                   6.9642(2)
_cell_length_c                   15.5028(4)
_cell_angle_alpha                90
_cell_angle_beta                 102.974(2)
_cell_angle_gamma                90
_cell_volume                     1546.02
loop_
_atom_site_label
_atom_site_type_symbol
_atom_site_fract_x
_atom_site_fract_y
_atom_site_fract_z
Cu1 Cu 0.75610(3) 0.12071(6) 0.59455(3)
N1 N 0.80425(19) -0.0146(4) 0.70614(18)
N2 N 0.9713(2) 0.0113(5) 0.7266(2)
N3 N 0.8923(2) 0.1420(4) 0.58673(19)
N4 N 1.0421(3) 0.1558(5) 0.6199(2)
N5 N 0.9238(2) 0.2232(5) 0.5186(2)
N6 N 1.0130(2) 0.2327(5) 0.5386(2)
N7 N 0.5403(2) -0.2202(5) 0.4563(2)
N8 N 0.6290(2) 0.3852(5) 0.3601(2)
N9 N 0.7091(2) 0.2713(4) 0.48714(19)
N10 N 0.6537(2) -0.0706(4) 0.54247(19)
N11 N 0.5897(2) 0.0717(5) 0.4012(2)
N12 N 0.6929(2) 0.5168(5) 0.3999(2)
N13 N 0.6327(2) -0.2365(5) 0.5827(2)
N14 N 0.7398(2) 0.4507(5) 0.4754(2)
N15 N 0.5652(2) -0.3242(5) 0.5319(2)
C1 C 0.9678(2) 0.0999(5) 0.6485(2)
C2 C 0.5945(2) -0.0659(5) 0.4638(2)
C3 C 0.8917(2) -0.0474(5) 0.7517(2)
C4 C 0.6410(2) 0.2370(5) 0.4158(2)
N16 N 0.8025(2) -0.1710(4) 0.82538(19)
N17 N 0.7491(2) -0.0949(4) 0.75510(19)
N18 N 0.8930(2) -0.1446(4) 0.82509(19)
H5 H 0.552(3) 0.062(7) 0.361(3)
H6 H 0.502(3) -0.250(6) 0.419(3)
H7 H 1.020(3) 0.033(7) 0.765(3)
H8 H 1.094(4) 0.135(8) 0.638(4)
Cu1A Cu 0.74390(3) -0.37929(6) 0.90545(3)
N16A N 0.6975(2) 0.3290(4) 0.67462(19)
O1 O 0.4494(2) 0.0498(5) 0.2552(2)
H9 H 0.401(4) 0.070(7) 0.263(3)
H10 H 0.446(5) -0.022(12) 0.216(5)
O2 O 0.8887(3) 0.6556(6) 0.6010(2)
H11 H 0.849(4) 0.594(8) 0.574(4)
H12 H 0.913(4) 0.682(9) 0.573(4)
O3 O 0.2281(2) 0.1588(6) 0.6719(3)
H1 H 0.2535 0.0501 0.7086
H2 H 0.2167 0.2774 0.7007
O4 O 0.3669(4) 0.1712(10) 0.8258(4)
H3 H 0.3892 0.0589 0.8613
H4 H 0.3635 0.2924 0.8558
loop_
_geom_bond_atom_site_label_1
_geom_bond_atom_site_label_2
_geom_bond_site_symmetry_1
_geom_bond_site_symmetry_2
Cu1 N1 1_555 1_555
N1 C3 1_555 1_555
N2 C1 1_555 1_555
N3 Cu1 1_555 1_555
N4 N6 1_555 1_555
N5 N3 1_555 1_555
N6 N5 1_555 1_555
N7 N15 1_555 1_555
N8 N12 1_555 1_555
N9 Cu1 1_555 1_555
N10 Cu1 1_555 1_555
N11 C2 1_555 1_555
N12 N14 1_555 1_555
N13 N10 1_555 1_555
N14 N9 1_555 1_555
N15 N13 1_555 1_555
C1 N3 1_555 1_555
C2 N7 1_555 1_555
C3 N2 1_555 1_555
C4 N8 1_555 1_555
O1 H9 1_555 1_555
O2 H11 1_555 1_555
O3 H1 1_555 1_555
H2 O3 1_555 1_555
N16 N17 1_555 1_555
N17 N1 1_555 1_555
N18 C3 1_555 1_555
O4 H3 1_555 1_555
H4 O4 1_555 1_555
H5 N11 1_555 1_555
H6 N7 1_555 1_555
H7 N2 1_555 1_555
H8 N4 1_555 1_555
H10 O1 1_555 1_555
H12 O2 1_555 1_555
Cu1A N16 1_555 1_555
N16A Cu1 1_555 1_555
N4 C1 1_555 1_555
N9 C4 1_555 1_555
N10 C2 1_555 1_555
N11 C4 1_555 1_555
N16 N18 1_555 1_555

#END
