
#######################################################################
#
#                 Cambridge Crystallographic Data Centre
#                                CCDC 
#
#######################################################################
#
# If this CIF has been generated from an entry in the Cambridge 
# Structural Database, then it will include bibliographic, chemical, 
# crystal, experimental, refinement or atomic coordinate data resulting 
# from the CCDC's data processing and validation procedures.
#
#######################################################################

data_OJOBIY
_symmetry_cell_setting           orthorhombic
_symmetry_space_group_name_H-M   'I 2 m m'
_symmetry_Int_Tables_number      44
_space_group_name_Hall           'I -2 2'
loop_
_symmetry_equiv_pos_site_id
_symmetry_equiv_pos_as_xyz
1 x,y,z
2 x,-y,-z
3 x,y,-z
4 x,-y,z
5 1/2+x,1/2+y,1/2+z
6 1/2+x,1/2-y,1/2-z
7 1/2+x,1/2+y,1/2-z
8 1/2+x,1/2-y,1/2+z
_cell_length_a                   7.1059(11)
_cell_length_b                   7.6986(6)
_cell_length_c                   15.9824(13)
_cell_angle_alpha                90
_cell_angle_beta                 90
_cell_angle_gamma                90
_cell_volume                     874.325
loop_
_atom_site_label
_atom_site_type_symbol
_atom_site_fract_x
_atom_site_fract_y
_atom_site_fract_z
Mn1 Mn 0.61453(6) 0.0000 -0.195999(18)
O1 O 0.7811(3) 0.18563(18) -0.26499(8)
O2 O 0.9806(2) 0.27860(18) -0.36199(8)
O3 O 0.3907(4) 0.0000 -0.29413(12)
N1 N 0.8066(3) 0.0000 -0.07733(12)
N2 N 1.0513(4) -0.1582(3) 0.0000
C1 C 0.6897(6) 0.0000 0.0000
H1 H 0.6093 0.1019 0.0000
H2 H 0.6093 -0.1019 0.0000
C2 C 0.9305(3) -0.1568(2) -0.07428(11)
H3 H 0.8527 -0.2604 -0.0743
H4 H 1.0086 -0.1596 -0.1240
C3 C 1.1667(6) 0.0000 0.0000
H5 H 1.2470 0.0000 -0.0491
H6 H 1.2470 0.0000 0.0491
C4 C 0.8473(5) 0.0000 -0.38208(15)
H7 H 0.9365 0.0000 -0.4280
H8 H 0.7220 0.0000 -0.4061
C5 C 0.8730(3) 0.1667(2) -0.33239(11)
H9 H 0.322(2) -0.0931(7) -0.2890(12)
C5C C 0.8730(3) -0.1667(2) -0.33239(11)
O1C O 0.7811(3) -0.18563(18) -0.26499(8)
O2C O 0.9806(2) -0.27860(18) -0.36199(8)
H9C H 0.322(2) 0.0931(7) -0.2890(12)
N1A N 0.8066(3) 0.0000 0.07733(12)
C2A C 0.9305(3) 0.1568(2) 0.07428(11)
N2A N 1.0513(4) 0.1582(3) 0.0000
C2C C 0.9305(3) 0.1568(2) -0.07428(11)
C2B C 0.9305(3) -0.1568(2) 0.07428(11)
H3B H 0.8527 -0.2604 0.0743
H4B H 1.0086 -0.1596 0.1240
H3C H 0.8527 0.2604 -0.0743
H4C H 1.0086 0.1596 -0.1240
H3A H 0.8527 0.2604 0.0743
H4A H 1.0086 0.1596 0.1240
O1E O 0.2811(3) 0.31437(18) -0.23501(8)
O2E O 0.4806(2) 0.22140(18) -0.13801(8)
C4E C 0.3473(5) 0.5000 -0.11792(15)
H7E H 0.4365 0.5000 -0.0720
H8E H 0.2220 0.5000 -0.0939
C5E C 0.3730(3) 0.3333(2) -0.16761(11)
C5F C 0.3730(3) 0.6667(2) -0.16761(11)
O1F O 0.2811(3) 0.68563(18) -0.23501(8)
O2F O 0.4806(2) 0.77860(18) -0.13801(8)
Mn1E Mn 0.11453(6) 0.5000 -0.304001(18)
O3E O -0.1093(4) 0.5000 -0.20587(12)
H9E H -0.178(2) 0.5931(7) -0.2110(12)
H9F H -0.178(2) 0.4069(7) -0.2110(12)
O2F_2 O 0.4806(2) -0.22140(18) -0.13801(8)
Mn1E_2 Mn 1.11453(6) 0.5000 -0.304001(18)
Mn1E_3 Mn 1.11453(6) -0.5000 -0.304001(18)
Mn1A Mn 0.61453(6) 0.0000 0.195999(18)
Mn1_2 Mn 0.61453(6) 1.0000 -0.195999(18)
O2_2 O -0.0194(2) 0.27860(18) -0.36199(8)
O2C_2 O -0.0194(2) 0.72140(18) -0.36199(8)
N1E N 0.3066(3) 0.5000 -0.42267(12)
loop_
_geom_bond_atom_site_label_1
_geom_bond_atom_site_label_2
_geom_bond_site_symmetry_1
_geom_bond_site_symmetry_2
Mn1 O1 1_555 1_555
O1 C5 1_555 1_555
O2 C5 1_555 1_555
O3 Mn1 1_555 1_555
N1 Mn1 1_555 1_555
N2 C2 1_555 1_555
C1 N1 1_555 1_555
H1 C1 1_555 1_555
H2 C1 1_555 1_555
C2 N1 1_555 1_555
H3 C2 1_555 1_555
H4 C2 1_555 1_555
C3 N2 1_555 1_555
H5 C3 1_555 1_555
H6 C3 1_555 1_555
C4 H7 1_555 1_555
H8 C4 1_555 1_555
C5 C4 1_555 1_555
H9 O3 1_555 1_555
C5C C4 1_555 1_555
O1C Mn1 1_555 1_555
O2C C5C 1_555 1_555
H9C O3 1_555 1_555
N1A C1 1_555 1_555
C2A N1A 1_555 1_555
N2A C3 1_555 1_555
C2C N1 1_555 1_555
C2B N2 1_555 1_555
H3B C2B 1_555 1_555
H4B C2B 1_555 1_555
H3C C2C 1_555 1_555
H4C C2C 1_555 1_555
H3A C2A 1_555 1_555
H4A C2A 1_555 1_555
O1E C5E 1_555 1_555
O2E Mn1 1_555 1_555
C4E H7E 1_555 1_555
H8E C4E 1_555 1_555
C5E O2E 1_555 1_555
C5F C4E 1_555 1_555
O1F C5F 1_555 1_555
O2F C5F 1_555 1_555
Mn1E O1E 1_555 1_555
O3E Mn1E 1_555 1_555
H9E O3E 1_555 1_555
H9F O3E 1_555 1_555
O2F_2 Mn1 1_555 1_555
Mn1E_2 O2 1_555 1_555
Mn1E_3 O2C 1_555 1_555
Mn1A N1A 1_555 1_555
Mn1_2 O2F 1_555 1_555
O2_2 Mn1E 1_555 1_555
O2C_2 Mn1E 1_555 1_555
N1E Mn1E 1_555 1_555
C5C O1C 1_555 1_555
N1A C2B 1_555 1_555
C2A N2A 1_555 1_555
N2A C2C 1_555 1_555
C4E C5E 1_555 1_555
O1F Mn1E 1_555 1_555

#END
