
#######################################################################
#
#                 Cambridge Crystallographic Data Centre
#                                CCDC 
#
#######################################################################
#
# If this CIF has been generated from an entry in the Cambridge 
# Structural Database, then it will include bibliographic, chemical, 
# crystal, experimental, refinement or atomic coordinate data resulting 
# from the CCDC's data processing and validation procedures.
#
#######################################################################

data_OJOBIY01
_symmetry_cell_setting           orthorhombic
_symmetry_space_group_name_H-M   'I m m 2'
_symmetry_Int_Tables_number      44
_space_group_name_Hall           'I 2 -2'
loop_
_symmetry_equiv_pos_site_id
_symmetry_equiv_pos_as_xyz
1 x,y,z
2 -x,-y,z
3 -x,y,z
4 x,-y,z
5 1/2+x,1/2+y,1/2+z
6 1/2-x,1/2-y,1/2+z
7 1/2-x,1/2+y,1/2+z
8 1/2+x,1/2-y,1/2+z
_cell_length_a                   16.058(3)
_cell_length_b                   7.704(2)
_cell_length_c                   7.098(3)
_cell_angle_alpha                90
_cell_angle_beta                 90
_cell_angle_gamma                90
_cell_volume                     878.099
loop_
_atom_site_label
_atom_site_type_symbol
_atom_site_fract_x
_atom_site_fract_y
_atom_site_fract_z
Mn1 Mn 0.19599(2) 0.0000 0.53833(7)
O1 O 0.29440(17) 0.0000 0.7611(4)
H1 H 0.278(2) 0.100(4) 0.816(6)
O2 O 0.26452(11) 0.1853(2) 0.3721(3)
O3 O 0.36169(11) 0.2785(2) 0.1728(3)
C1 C 0.33224(13) 0.1666(3) 0.2801(3)
C2 C 0.3815(2) 0.0000 0.3059(5)
H2 H 0.4273 0.0000 0.2168
H3 H 0.4053 0.0000 0.4315
N1 N 0.42284(16) 0.5000 -0.1530(4)
N2 N 0.5000 0.3422(4) -0.3984(4)
C3 C 0.42604(15) 0.3436(3) -0.2767(4)
H4 H 0.4261 0.2402 -0.1988
H5 H 0.3765 0.3406 -0.3548
C4 C 0.5000 0.5000 -0.5134(7)
H6 H 0.5488 0.5000 -0.5938
C5 C 0.5000 0.5000 -0.0368(6)
H7 H 0.5000 0.3983 0.0437
H1C H 0.278(2) -0.100(4) 0.816(6)
O3E O 0.13831(11) 0.2215(2) 0.6728(3)
Mn1E Mn 0.30401(2) 0.5000 0.03833(7)
O1E O 0.20560(17) 0.5000 0.2611(4)
H1E H 0.222(2) 0.400(4) 0.316(6)
H1F H 0.222(2) 0.600(4) 0.316(6)
O2E O 0.23548(11) 0.3147(2) -0.1279(3)
C1E C 0.16776(13) 0.3334(3) -0.2199(3)
O3E_2 O 0.13831(11) 0.2215(2) -0.3272(3)
Mn1_2 Mn 0.19599(2) 0.0000 -0.46167(7)
C2E C 0.1185(2) 0.5000 -0.1941(5)
O2F O 0.23548(11) 0.6853(2) -0.1279(3)
O3C O 0.36169(11) 0.7215(2) 0.1728(3)
N1E N 0.07716(16) 0.0000 0.3470(4)
O2C O 0.26452(11) -0.1853(2) 0.3721(3)
O3F O 0.13831(11) -0.2215(2) 0.6728(3)
C1C C 0.33224(13) -0.1666(3) 0.2801(3)
O3C_2 O 0.36169(11) -0.2785(2) 0.1728(3)
C1F C 0.16776(13) 0.6666(3) -0.2199(3)
H2E H 0.0727 0.5000 -0.2832
H3E H 0.0947 0.5000 -0.0685
C3C C 0.42604(15) 0.6564(3) -0.2767(4)
Mn1E_2 Mn 0.30401(2) -0.5000 0.03833(7)
O3F_2 O 0.13831(11) 0.7785(2) -0.3272(3)
N2A N 0.5000 0.6578(4) -0.3984(4)
H4C H 0.4261 0.7598 -0.1988
H5C H 0.3765 0.6594 -0.3548
N1A N 0.57716(16) 0.5000 -0.1530(4)
H7A H 0.5000 0.6017 0.0437
Mn1_3 Mn 0.19599(2) 1.0000 -0.46167(7)
C3B C 0.57396(15) 0.3436(3) -0.2767(4)
C3A C 0.57396(15) 0.6564(3) -0.2767(4)
Mn1D Mn 0.69599(2) 0.5000 0.03833(7)
H4B H 0.5739 0.2402 -0.1988
H5B H 0.6235 0.3406 -0.3548
H6A H 0.4512 0.5000 -0.5938
H4A H 0.5739 0.7598 -0.1988
H5A H 0.6235 0.6594 -0.3548
loop_
_geom_bond_atom_site_label_1
_geom_bond_atom_site_label_2
_geom_bond_site_symmetry_1
_geom_bond_site_symmetry_2
Mn1 O1 1_555 1_555
O1 H1 1_555 1_555
O2 Mn1 1_555 1_555
O3 C1 1_555 1_555
C1 O2 1_555 1_555
C2 C1 1_555 1_555
H2 C2 1_555 1_555
H3 C2 1_555 1_555
N1 C3 1_555 1_555
N2 C3 1_555 1_555
C3 H4 1_555 1_555
H5 C3 1_555 1_555
C4 N2 1_555 1_555
H6 C4 1_555 1_555
C5 N1 1_555 1_555
H7 C5 1_555 1_555
H1C O1 1_555 1_555
O3E Mn1 1_555 1_555
Mn1E O3 1_555 1_555
O1E Mn1E 1_555 1_555
H1E O1E 1_555 1_555
H1F O1E 1_555 1_555
O2E Mn1E 1_555 1_555
C1E O2E 1_555 1_555
O3E_2 C1E 1_555 1_555
Mn1_2 O3E_2 1_555 1_555
C2E C1E 1_555 1_555
O2F Mn1E 1_555 1_555
O3C Mn1E 1_555 1_555
N1E Mn1 1_555 1_555
O2C Mn1 1_555 1_555
O3F Mn1 1_555 1_555
C1C C2 1_555 1_555
O3C_2 C1C 1_555 1_555
C1F C2E 1_555 1_555
H2E C2E 1_555 1_555
H3E C2E 1_555 1_555
C3C N1 1_555 1_555
Mn1E_2 O3C_2 1_555 1_555
O3F_2 C1F 1_555 1_555
N2A C4 1_555 1_555
H4C C3C 1_555 1_555
H5C C3C 1_555 1_555
N1A C5 1_555 1_555
H7A C5 1_555 1_555
Mn1_3 O3F_2 1_555 1_555
C3B N2 1_555 1_555
C3A N2A 1_555 1_555
Mn1D N1A 1_555 1_555
H4B C3B 1_555 1_555
H5B C3B 1_555 1_555
H6A C4 1_555 1_555
H4A C3A 1_555 1_555
H5A C3A 1_555 1_555
N1 Mn1E 1_555 1_555
O2F C1F 1_555 1_555
O2C C1C 1_555 1_555
C3C N2A 1_555 1_555
N1A C3A 1_555 1_555
N1A C3B 1_555 1_555

#END
