
#######################################################################
#
#                 Cambridge Crystallographic Data Centre
#                                CCDC 
#
#######################################################################
#
# If this CIF has been generated from an entry in the Cambridge 
# Structural Database, then it will include bibliographic, chemical, 
# crystal, experimental, refinement or atomic coordinate data resulting 
# from the CCDC's data processing and validation procedures.
#
#######################################################################

data_OJOQEJ
_symmetry_cell_setting           monoclinic
_symmetry_space_group_name_H-M   'C 2/c'
_symmetry_Int_Tables_number      15
_space_group_name_Hall           '-C 2yn'
loop_
_symmetry_equiv_pos_site_id
_symmetry_equiv_pos_as_xyz
1 x,y,z
2 1/2+x,1/2+y,z
3 x,-y,1/2+z
4 1/2+x,1/2-y,1/2+z
5 -x,-y,-z
6 1/2-x,1/2-y,-z
7 -x,y,1/2-z
8 1/2-x,1/2+y,1/2-z
_cell_length_a                   11.405(3)
_cell_length_b                   7.5100(1)
_cell_length_c                   8.435(2)
_cell_angle_alpha                90
_cell_angle_beta                 92.78(2)
_cell_angle_gamma                90
_cell_volume                     721.621
loop_
_atom_site_label
_atom_site_type_symbol
_atom_site_fract_x
_atom_site_fract_y
_atom_site_fract_z
Cu1 Cu 0.2500 0.2500 0.0000
C1 C -0.0014(2) 0.1747(2) 0.0205(3)
H1 H -0.0035(7) 0.3167(6) 0.0352(11)
N1 N 0.10142(13) 0.09889(16) -0.00321(19)
C2 C -0.10293(18) 0.0760(2) 0.0238(3)
H2 H -0.1867(6) 0.1380(7) 0.0433(11)
O1 O 0.3525(2) 0.0109(3) 0.1108(3)
C3 C 0.3342(2) -0.0303(2) 0.2485(3)
H3 H 0.3635(9) 0.0579(8) 0.3444(9)
O2 O 0.2837(2) -0.1713(3) 0.2879(3)
C2D C 0.10293(18) -0.0760(2) -0.0238(3)
C1D C 0.0014(2) -0.1747(2) -0.0205(3)
H1D H 0.0035(7) -0.3167(6) -0.0352(11)
N1D N -0.10142(13) -0.09889(16) 0.00321(19)
H2D H 0.1867(6) -0.1380(7) -0.0433(11)
O1E O 0.1475(2) 0.4891(3) -0.1108(3)
C3E C 0.1658(2) 0.5303(2) -0.2485(3)
H3E H 0.1365(9) 0.4421(8) -0.3444(9)
O2E O 0.2163(2) 0.6713(3) -0.2879(3)
N1E N 0.39858(13) 0.40111(16) 0.00321(19)
O2B O 0.2837(2) 0.1713(3) -0.2121(3)
O2G O 0.2163(2) 0.3287(3) 0.2121(3)
Cu1B Cu 0.2500 -0.2500 0.5000
Cu1A Cu -0.2500 -0.2500 0.0000
Cu1B_2 Cu 0.2500 0.7500 -0.5000
loop_
_geom_bond_atom_site_label_1
_geom_bond_atom_site_label_2
_geom_bond_site_symmetry_1
_geom_bond_site_symmetry_2
Cu1 N1 1_555 1_555
C1 H1 1_555 1_555
N1 C1 1_555 1_555
C2 C1 1_555 1_555
H2 C2 1_555 1_555
O1 Cu1 1_555 1_555
C3 O1 1_555 1_555
H3 C3 1_555 1_555
O2 C3 1_555 1_555
C2D N1 1_555 1_555
C1D C2D 1_555 1_555
H1D C1D 1_555 1_555
N1D C2 1_555 1_555
H2D C2D 1_555 1_555
O1E Cu1 1_555 1_555
C3E O1E 1_555 1_555
H3E C3E 1_555 1_555
O2E C3E 1_555 1_555
N1E Cu1 1_555 1_555
O2B Cu1 1_555 1_555
O2G Cu1 1_555 1_555
Cu1B O2 1_555 1_555
Cu1A N1D 1_555 1_555
Cu1B_2 O2E 1_555 1_555
C1D N1D 1_555 1_555

#END
