
#######################################################################
#
#                 Cambridge Crystallographic Data Centre
#                                CCDC 
#
#######################################################################
#
# If this CIF has been generated from an entry in the Cambridge 
# Structural Database, then it will include bibliographic, chemical, 
# crystal, experimental, refinement or atomic coordinate data resulting 
# from the CCDC's data processing and validation procedures.
#
#######################################################################

data_OJUFUU
_symmetry_cell_setting           monoclinic
_symmetry_space_group_name_H-M   'P 21/c'
_symmetry_Int_Tables_number      14
_space_group_name_Hall           '-P 2ybc'
loop_
_symmetry_equiv_pos_site_id
_symmetry_equiv_pos_as_xyz
1 x,y,z
2 x,1/2-y,1/2+z
3 -x,-y,-z
4 -x,1/2+y,1/2-z
_cell_length_a                   11.4539(3)
_cell_length_b                   13.3059(5)
_cell_length_c                   8.8068(3)
_cell_angle_alpha                90
_cell_angle_beta                 111.4290(10)
_cell_angle_gamma                90
_cell_volume                     1249.41
loop_
_atom_site_label
_atom_site_type_symbol
_atom_site_fract_x
_atom_site_fract_y
_atom_site_fract_z
Mn1 Mn -0.30285(4) -0.42399(3) 0.09942(5)
O1 O -0.48696(17) -0.39190(15) -0.0634(2)
O2 O -0.63707(18) -0.47739(15) -0.2538(2)
O3 O -0.25129(19) -0.31954(15) -0.0566(2)
O4 O -0.2861(2) -0.18663(15) -0.2157(2)
N1 N -0.0948(2) -0.45848(16) 0.2197(3)
N2 N -0.2576(2) -0.56583(17) -0.0249(3)
C1 C -0.0181(3) -0.4073(2) 0.3491(3)
H1 H -0.0494 -0.3510 0.3838
C2 C 0.1048(3) -0.4346(2) 0.4328(4)
H2 H 0.1560 -0.3962 0.5199
C3 C 0.1503(3) -0.5189(3) 0.3855(4)
H3 H 0.2321 -0.5401 0.4423
C4 C 0.0730(3) -0.5724(2) 0.2520(4)
H4 H 0.1022 -0.6301 0.2180
C5 C -0.0484(2) -0.5392(2) 0.1693(3)
C6 C -0.1365(3) -0.59226(19) 0.0233(3)
C7 C -0.0951(3) -0.6665(2) -0.0558(4)
H5 H -0.0104 -0.6828 -0.0214
C8 C -0.1818(3) -0.7158(2) -0.1862(4)
H6 H -0.1560 -0.7652 -0.2419
C9 C -0.3068(3) -0.6913(2) -0.2333(4)
H7 H -0.3671 -0.7248 -0.3192
C10 C -0.3404(3) -0.6161(2) -0.1500(4)
H8 H -0.4247 -0.5992 -0.1822
C11 C -0.5429(2) -0.42036(19) -0.2082(3)
C12 C -0.4993(3) -0.3869(2) -0.3401(3)
H9 H -0.5464 -0.4104 -0.4440
C13 C -0.4025(3) -0.3284(2) -0.3308(3)
H10 H -0.3917 -0.3188 -0.4295
C14 C -0.3083(2) -0.2753(2) -0.1891(3)
O2B O -0.36293(18) -0.52261(15) 0.2538(2)
Mn1B Mn -0.69715(4) -0.57601(3) -0.09942(5)
O4A O -0.2861(2) -0.31337(15) 0.2843(2)
Mn1A Mn -0.30285(4) -0.07601(3) -0.40058(5)
loop_
_geom_bond_atom_site_label_1
_geom_bond_atom_site_label_2
_geom_bond_site_symmetry_1
_geom_bond_site_symmetry_2
Mn1 O1 1_555 1_555
O1 C11 1_555 1_555
O2 C11 1_555 1_555
O3 Mn1 1_555 1_555
O4 C14 1_555 1_555
N1 Mn1 1_555 1_555
N2 Mn1 1_555 1_555
C1 N1 1_555 1_555
H1 C1 1_555 1_555
C2 C1 1_555 1_555
H2 C2 1_555 1_555
C3 C2 1_555 1_555
H3 C3 1_555 1_555
C4 C3 1_555 1_555
H4 C4 1_555 1_555
C5 N1 1_555 1_555
C6 N2 1_555 1_555
C7 C6 1_555 1_555
H5 C7 1_555 1_555
C8 C7 1_555 1_555
H6 C8 1_555 1_555
C9 C8 1_555 1_555
H7 C9 1_555 1_555
C10 N2 1_555 1_555
H8 C10 1_555 1_555
C11 C12 1_555 1_555
C12 H9 1_555 1_555
C13 C12 1_555 1_555
H10 C13 1_555 1_555
C14 O3 1_555 1_555
O2B Mn1 1_555 1_555
Mn1B O2 1_555 1_555
O4A Mn1 1_555 1_555
Mn1A O4 1_555 1_555
C4 C5 1_555 1_555
C5 C6 1_555 1_555
C9 C10 1_555 1_555
C13 C14 1_555 1_555

#END
