
#######################################################################
#
#                 Cambridge Crystallographic Data Centre
#                                CCDC 
#
#######################################################################
#
# If this CIF has been generated from an entry in the Cambridge 
# Structural Database, then it will include bibliographic, chemical, 
# crystal, experimental, refinement or atomic coordinate data resulting 
# from the CCDC's data processing and validation procedures.
#
#######################################################################

data_OKAVEB
_symmetry_cell_setting           tetragonal
_symmetry_space_group_name_H-M   'P 4/n'
_symmetry_Int_Tables_number      85
_space_group_name_Hall           '-P 4a'
loop_
_symmetry_equiv_pos_site_id
_symmetry_equiv_pos_as_xyz
1 x,y,z
2 1/2-y,x,z
3 1/2-x,1/2-y,z
4 y,1/2-x,z
5 -x,-y,-z
6 1/2+y,-x,-z
7 1/2+x,1/2+y,-z
8 -y,1/2+x,-z
_cell_length_a                   9.6379(5)
_cell_length_b                   9.6379(5)
_cell_length_c                   6.8909(3)
_cell_angle_alpha                90
_cell_angle_beta                 90
_cell_angle_gamma                90
_cell_volume                     640.09
loop_
_atom_site_label
_atom_site_type_symbol
_atom_site_fract_x
_atom_site_fract_y
_atom_site_fract_z
Rb1 Rb 0.2500 0.7500 0.0000
Rb2 Rb 0.2500 1.2500 0.1171(4)
O1 O 0.0915(5) 0.9812(8) 0.1265(4)
C1 C 0.1528(4) 1.000(2) 0.4587(5)
C2 C 0.0516(2) 0.982(1) 0.3155(4)
C3 C -0.0901(2) 0.987(1) 0.3592(5)
C3D C 0.0901(2) 1.013(1) 0.6408(5)
C2D C -0.0516(2) 1.018(1) 0.6845(4)
O1D O -0.0915(5) 1.0188(8) 0.8735(4)
C1D C -0.1528(4) 1.000(2) 0.5413(5)
O1B O 0.4085(5) 0.5188(8) 0.1265(4)
C1B C 0.3472(4) 0.500(2) 0.4587(5)
C2B C 0.4484(2) 0.518(1) 0.3155(4)
C3B C 0.5901(2) 0.513(1) 0.3592(5)
C3F C 0.4099(2) 0.487(1) 0.6408(5)
C2F C 0.5516(2) 0.482(1) 0.6845(4)
O1F O 0.5915(5) 0.4812(8) 0.8735(4)
C1F C 0.6528(4) 0.500(2) 0.5413(5)
O1E O 0.4812(8) 0.9085(5) -0.1265(4)
O1G O 0.0188(8) 0.5915(5) -0.1265(4)
O1A O 0.5188(8) 1.0915(5) 0.1265(4)
O1B_2 O 0.4085(5) 1.5188(8) 0.1265(4)
O1C O -0.0188(8) 1.4085(5) 0.1265(4)
Rb1A Rb -0.2500 1.2500 1.0000
Rb2D Rb -0.2500 0.7500 0.8829(4)
Rb2_2 Rb 0.2500 0.2500 0.1171(4)
Rb1A_2 Rb 0.7500 0.2500 1.0000
Rb2D_2 Rb 0.7500 0.7500 0.8829(4)
loop_
_geom_bond_atom_site_label_1
_geom_bond_atom_site_label_2
_geom_bond_site_symmetry_1
_geom_bond_site_symmetry_2
Rb1 O1 1_555 1_555
Rb2 O1 1_555 1_555
O1 C2 1_555 1_555
C1 C2 1_555 1_555
C2 C3 1_555 1_555
C3 C1D 1_555 1_555
C3D C1 1_555 1_555
C2D C3D 1_555 1_555
O1D C2D 1_555 1_555
C1D C2D 1_555 1_555
O1B Rb1 1_555 1_555
C1B C2B 1_555 1_555
C2B O1B 1_555 1_555
C3B C2B 1_555 1_555
C3F C1B 1_555 1_555
C2F C3F 1_555 1_555
O1F C2F 1_555 1_555
C1F C3B 1_555 1_555
O1E Rb1 1_555 1_555
O1G Rb1 1_555 1_555
O1A Rb2 1_555 1_555
O1B_2 Rb2 1_555 1_555
O1C Rb2 1_555 1_555
Rb1A O1D 1_555 1_555
Rb2D O1D 1_555 1_555
Rb2_2 O1B 1_555 1_555
Rb1A_2 O1F 1_555 1_555
Rb2D_2 O1F 1_555 1_555
C2F C1F 1_555 1_555

#END
