
#######################################################################
#
#                 Cambridge Crystallographic Data Centre
#                                CCDC 
#
#######################################################################
#
# If this CIF has been generated from an entry in the Cambridge 
# Structural Database, then it will include bibliographic, chemical, 
# crystal, experimental, refinement or atomic coordinate data resulting 
# from the CCDC's data processing and validation procedures.
#
#######################################################################

data_OKEHOB
_symmetry_cell_setting           triclinic
_symmetry_space_group_name_H-M   'P -1'
_symmetry_Int_Tables_number      2
_space_group_name_Hall           '-P 1'
loop_
_symmetry_equiv_pos_site_id
_symmetry_equiv_pos_as_xyz
1 x,y,z
2 -x,-y,-z
_cell_length_a                   6.541(7)
_cell_length_b                   7.344(8)
_cell_length_c                   11.309(12)
_cell_angle_alpha                108.347(15)
_cell_angle_beta                 93.974(16)
_cell_angle_gamma                91.668(15)
_cell_volume                     513.653
loop_
_atom_site_label
_atom_site_type_symbol
_atom_site_fract_x
_atom_site_fract_y
_atom_site_fract_z
Cu1 Cu 0.27003(6) 0.09199(6) 0.97112(4)
O1 O 0.5855(4) 0.3058(4) 1.3017(2)
O2 O 0.5063(4) 0.1990(4) 1.0966(2)
O3 O -0.3464(4) -0.1449(4) 1.1784(2)
O4 O -0.2414(5) -0.1081(4) 1.3759(3)
N1 N 0.1560(4) 0.0688(4) 1.1155(3)
N2 N -0.0222(5) -0.0035(4) 1.1329(3)
C1 C 0.4714(5) 0.2188(5) 1.2118(3)
C2 C 0.2701(5) 0.1289(5) 1.2244(3)
C3 C -0.2163(5) -0.0855(5) 1.2759(3)
C4 C -0.0233(5) 0.0072(5) 1.2524(3)
C5 C 0.1618(6) 0.0917(5) 1.3156(3)
H1 H 0.204(7) 0.115(6) 1.3994(15)
H6 H -0.35(3) -0.19(4) 1.373(8)
O1A O 0.4145(4) -0.3058(4) 0.6983(2)
O2A O 0.4937(4) -0.1990(4) 0.9034(2)
O3A O 1.3464(4) 0.1449(4) 0.8216(2)
O4A O 1.2414(5) 0.1081(4) 0.6241(3)
N1A N 0.8440(4) -0.0688(4) 0.8845(3)
N2A N 1.0222(5) 0.0035(4) 0.8671(3)
C1A C 0.5286(5) -0.2188(5) 0.7882(3)
C2A C 0.7299(5) -0.1289(5) 0.7756(3)
C3A C 1.2163(5) 0.0855(5) 0.7241(3)
C4A C 1.0233(5) -0.0072(5) 0.7476(3)
C5A C 0.8382(6) -0.0917(5) 0.6844(3)
H1A H 0.796(7) -0.115(6) 0.6006(15)
H6A H 1.35(3) 0.19(4) 0.627(8)
Cu1A Cu 0.72997(6) -0.09199(6) 1.02888(4)
O3A_2 O 0.3464(4) 0.1449(4) 0.8216(2)
N2A_2 N 0.0222(5) 0.0035(4) 0.8671(3)
Cu1A_2 Cu -0.27003(6) -0.09199(6) 1.02888(4)
Cu1_2 Cu 1.27003(6) 0.09199(6) 0.97112(4)
O3_2 O 0.6536(4) -0.1449(4) 1.1784(2)
N2_2 N 0.9778(5) -0.0035(4) 1.1329(3)
O5 O 0.2544(8) 0.6486(8) 0.4458(4)
N3 N 0.1797(5) 0.6013(4) 0.3118(3)
C6 C 0.2990(6) 0.6446(5) 0.2333(4)
H2 H 0.4289 0.7029 0.2624
C7 C 0.2327(6) 0.6044(5) 0.1100(4)
H3 H 0.3182 0.6338 0.0554
C8 C 0.0397(6) 0.5206(5) 0.0665(4)
C9 C -0.0800(6) 0.4739(6) 0.1499(4)
H4 H -0.2099 0.4142 0.1231
C10 C -0.0064(6) 0.5161(6) 0.2717(4)
H5 H -0.0873 0.4849 0.3278
C8A C -0.0397(6) 0.4794(5) -0.0665(4)
C7A C -0.2327(6) 0.3956(5) -0.1100(4)
C6A C -0.2990(6) 0.3554(5) -0.2333(4)
N3A N -0.1797(5) 0.3987(4) -0.3118(3)
O5A O -0.2544(8) 0.3514(8) -0.4458(4)
C10A C 0.0064(6) 0.4839(6) -0.2717(4)
C9A C 0.0800(6) 0.5261(6) -0.1499(4)
H4A H 0.2099 0.5858 -0.1231
H5A H 0.0873 0.5151 -0.3278
H2A H -0.4289 0.2971 -0.2624
H3A H -0.3182 0.3662 -0.0554
loop_
_geom_bond_atom_site_label_1
_geom_bond_atom_site_label_2
_geom_bond_site_symmetry_1
_geom_bond_site_symmetry_2
Cu1 O2 1_555 1_555
O1 C1 1_555 1_555
O2 C1 1_555 1_555
O3 C3 1_555 1_555
O4 C3 1_555 1_555
O5 N3 1_555 1_555
N1 Cu1 1_555 1_555
N2 N1 1_555 1_555
N3 C6 1_555 1_555
C1 C2 1_555 1_555
C2 N1 1_555 1_555
C3 C4 1_555 1_555
C4 N2 1_555 1_555
C5 C2 1_555 1_555
H1 C5 1_555 1_555
C6 H2 1_555 1_555
C7 C6 1_555 1_555
H3 C7 1_555 1_555
C8 C7 1_555 1_555
C9 C8 1_555 1_555
H4 C9 1_555 1_555
C10 N3 1_555 1_555
H5 C10 1_555 1_555
H6 O4 1_555 1_555
C8A C8 1_555 1_555
C7A C8A 1_555 1_555
C6A C7A 1_555 1_555
N3A C6A 1_555 1_555
O5A N3A 1_555 1_555
C10A N3A 1_555 1_555
C9A C8A 1_555 1_555
H4A C9A 1_555 1_555
H5A C10A 1_555 1_555
H2A C6A 1_555 1_555
H3A C7A 1_555 1_555
O1A C1A 1_555 1_555
O2A Cu1 1_555 1_555
O3A C3A 1_555 1_555
O4A C3A 1_555 1_555
N1A N2A 1_555 1_555
N2A C4A 1_555 1_555
C1A O2A 1_555 1_555
C2A N1A 1_555 1_555
C3A C4A 1_555 1_555
C4A C5A 1_555 1_555
C5A C2A 1_555 1_555
H1A C5A 1_555 1_555
H6A O4A 1_555 1_555
Cu1A O2 1_555 1_555
O3A_2 Cu1 1_555 1_555
N2A_2 Cu1 1_555 1_555
Cu1A_2 O3 1_555 1_555
Cu1_2 O3A 1_555 1_555
O3_2 Cu1A 1_555 1_555
N2_2 Cu1A 1_555 1_555
N2 Cu1A_2 1_555 1_555
C4 C5 1_555 1_555
C9 C10 1_555 1_555
C10A C9A 1_555 1_555
O2A Cu1A 1_555 1_555
N1A Cu1A 1_555 1_555
N2A Cu1_2 1_555 1_555
C1A C2A 1_555 1_555

#END
