
#######################################################################
#
#                 Cambridge Crystallographic Data Centre
#                                CCDC 
#
#######################################################################
#
# If this CIF has been generated from an entry in the Cambridge 
# Structural Database, then it will include bibliographic, chemical, 
# crystal, experimental, refinement or atomic coordinate data resulting 
# from the CCDC's data processing and validation procedures.
#
#######################################################################

data_OKEHIW
_symmetry_cell_setting           monoclinic
_symmetry_space_group_name_H-M   'P 21/n'
_symmetry_Int_Tables_number      14
_space_group_name_Hall           '-P 2yn'
loop_
_symmetry_equiv_pos_site_id
_symmetry_equiv_pos_as_xyz
1 x,y,z
2 1/2-x,1/2+y,1/2-z
3 -x,-y,-z
4 1/2+x,1/2-y,1/2+z
_cell_length_a                   7.7130(9)
_cell_length_b                   13.9995(16)
_cell_length_c                   11.6256(14)
_cell_angle_alpha                90
_cell_angle_beta                 93.365(2)
_cell_angle_gamma                90
_cell_volume                     1253.15
loop_
_atom_site_label
_atom_site_type_symbol
_atom_site_fract_x
_atom_site_fract_y
_atom_site_fract_z
O1 O 0.73613(19) 0.57124(11) 0.00807(13)
N1 N -0.1753(2) 0.92697(14) -0.31355(14)
C1 C -0.2040(3) 0.8619(2) -0.2335(2)
H1 H -0.3022 0.8236 -0.2432
C2 C -0.0336(3) 0.9798(2) -0.29768(19)
H2 H -0.0098 1.0252 -0.3530
C3 C -0.0944(4) 0.8487(2) -0.1365(2)
H3 H -0.1191 0.8022 -0.0828
C4 C 0.0810(3) 0.9703(2) -0.2019(2)
H4 H 0.1787 1.0092 -0.1939
C5 C 0.0511(3) 0.90450(18) -0.11988(18)
C6 C 0.8076(2) 0.64070(14) 0.06156(15)
C7 C 0.6912(2) 0.72194(14) 0.09091(16)
C8 C 0.5546(2) 0.74699(15) 0.01264(17)
H5 H 0.5364 0.7130 -0.0557
C9 C 0.7147(2) 0.77098(15) 0.19495(16)
H6 H 0.8072 0.7558 0.2466
Co1 Co 0.84909(3) 0.449030(18) -0.04539(2)
O2 O 0.72979(19) 0.87008(11) 0.40938(12)
C10 C 0.6090(2) 0.89115(15) 0.33561(16)
O3 O 0.4942(2) 0.95124(11) 0.35514(14)
C11 C 0.4656(3) 0.86961(16) 0.14103(17)
H7 H 0.3906 0.9190 0.1580
C12 C 0.5993(2) 0.84236(15) 0.22079(15)
O4 O 0.3226(2) 0.84600(14) -0.04889(12)
C13 C 0.4462(3) 0.82214(16) 0.03634(17)
C14 C 0.1741(3) 0.8934(2) -0.0150(2)
H8 H 0.2052 0.9556 0.0166
H9 H 0.1194 0.8567 0.0437
O5 O 0.96754(17) 0.64759(10) 0.09064(12)
N1A N 0.6753(2) 0.42697(14) -0.18645(14)
Co1A Co -0.34909(3) 0.949030(18) -0.45461(2)
Co1A_2 Co 0.65091(3) 0.949030(18) 0.54539(2)
Co1C Co 0.34909(3) 1.050970(18) 0.45461(2)
Co1B Co 1.15091(3) 0.550970(18) 0.04539(2)
O2A O 0.77021(19) 0.37008(11) 0.09062(12)
O3C O 0.9942(2) 0.54876(11) -0.14486(14)
O5B O 1.03246(17) 0.35241(10) -0.09064(12)
loop_
_geom_bond_atom_site_label_1
_geom_bond_atom_site_label_2
_geom_bond_site_symmetry_1
_geom_bond_site_symmetry_2
O1 C6 1_555 1_555
N1 C1 1_555 1_555
C1 H1 1_555 1_555
C2 N1 1_555 1_555
H2 C2 1_555 1_555
C3 C1 1_555 1_555
H3 C3 1_555 1_555
C4 C2 1_555 1_555
H4 C4 1_555 1_555
C5 C3 1_555 1_555
C6 C7 1_555 1_555
C7 C8 1_555 1_555
C8 H5 1_555 1_555
C9 C7 1_555 1_555
H6 C9 1_555 1_555
Co1 O1 1_555 1_555
O2 C10 1_555 1_555
C10 O3 1_555 1_555
O3 Co1C 1_555 1_555
C11 H7 1_555 1_555
C12 C9 1_555 1_555
O4 C13 1_555 1_555
C13 C8 1_555 1_555
C14 C5 1_555 1_555
H8 C14 1_555 1_555
H9 C14 1_555 1_555
O5 C6 1_555 1_555
N1A Co1 1_555 1_555
Co1A N1 1_555 1_555
Co1A_2 O2 1_555 1_555
Co1B O5 1_555 1_555
O2A Co1 1_555 1_555
O3C Co1 1_555 1_555
O5B Co1 1_555 1_555
C4 C5 1_555 1_555
C10 C12 1_555 1_555
C11 C12 1_555 1_555
C11 C13 1_555 1_555
O4 C14 1_555 1_555

#END
