
#######################################################################
#
#                 Cambridge Crystallographic Data Centre
#                                CCDC 
#
#######################################################################
#
# If this CIF has been generated from an entry in the Cambridge 
# Structural Database, then it will include bibliographic, chemical, 
# crystal, experimental, refinement or atomic coordinate data resulting 
# from the CCDC's data processing and validation procedures.
#
#######################################################################

data_OKEXAE
_symmetry_cell_setting           triclinic
_symmetry_space_group_name_H-M   'P -1'
_symmetry_Int_Tables_number      2
_space_group_name_Hall           '-P 1'
loop_
_symmetry_equiv_pos_site_id
_symmetry_equiv_pos_as_xyz
1 x,y,z
2 -x,-y,-z
_cell_length_a                   8.9237(3)
_cell_length_b                   10.0609(3)
_cell_length_c                   10.0893(4)
_cell_angle_alpha                77.9170(10)
_cell_angle_beta                 79.698(2)
_cell_angle_gamma                73.5840(10)
_cell_volume                     842.702
loop_
_atom_site_label
_atom_site_type_symbol
_atom_site_fract_x
_atom_site_fract_y
_atom_site_fract_z
Co1 Co -0.06550(2) 0.894887(18) 0.369349(19)
O1 O 0.08628(14) 1.01617(11) 0.34136(11)
O2 O 0.13342(14) 1.18192(11) 0.43116(11)
O3 O 0.18720(15) 1.23459(12) -0.29346(12)
O4 O 0.05531(15) 1.09619(12) -0.15536(12)
C1 C 0.14662(19) 1.21407(17) 0.19063(17)
C2 C 0.1846(2) 1.34226(19) 0.17294(18)
C3 C 0.2084(3) 1.4186(2) 0.0439(2)
C4 C 0.1960(2) 1.3668(2) -0.07049(18)
C5 C 0.1559(2) 1.24100(17) -0.05377(17)
C6 C 0.13100(19) 1.16401(17) 0.07579(17)
C7 C 0.11880(18) 1.13144(16) 0.33075(17)
C8 C 0.13238(19) 1.18729(16) -0.17515(17)
N1 N 0.13790(17) 0.71734(15) 0.37417(15)
N2 N 0.74069(17) 0.07962(15) 0.36424(15)
C9 C 0.2632(2) 0.71016(19) 0.2777(2)
C10 C 0.3876(2) 0.59170(19) 0.2725(2)
C11 C 0.3873(2) 0.47141(17) 0.37093(18)
C12 C 0.2586(2) 0.48054(19) 0.4731(2)
C13 C 0.1392(2) 0.60292(18) 0.4702(2)
C14 C 0.7321(2) 0.1836(2) 0.2558(2)
C15 C 0.6214(2) 0.31190(19) 0.2542(2)
C16 C 0.5110(2) 0.33781(18) 0.36758(18)
C17 C 0.5184(2) 0.22860(19) 0.47856(19)
C18 C 0.6325(2) 0.10399(19) 0.47273(19)
H1 H 0.193(3) 1.383(2) 0.252(3)
H2 H 0.238(3) 1.499(2) 0.031(2)
H3 H 0.214(3) 1.419(2) -0.153(3)
H4 H 0.098(2) 1.086(2) 0.091(2)
H5 H 0.257(3) 0.790(2) 0.213(2)
H6 H 0.469(3) 0.592(2) 0.206(3)
H7 H 0.256(3) 0.398(3) 0.552(3)
H8 H 0.047(3) 0.609(2) 0.538(2)
H9 H 0.812(3) 0.167(3) 0.180(3)
H10 H 0.619(3) 0.382(2) 0.179(3)
H11 H 0.453(3) 0.240(2) 0.543(3)
H12 H 0.635(2) 0.036(2) 0.545(2)
Co1A Co 0.06550(2) 1.105113(18) 0.630651(19)
Co1A_2 Co 0.06550(2) 1.105113(18) -0.369349(19)
Co1_2 Co 0.93450(2) -0.105113(18) 0.369349(19)
O2A O -0.13342(14) 0.81808(11) 0.56884(11)
O3A O -0.18720(15) 0.76541(12) 0.29346(12)
O4A O -0.05531(15) 0.90381(12) 0.15536(12)
N2_2 N -0.25931(17) 1.07962(15) 0.36424(15)
O5 O 0.549(2) 0.1297(18) 0.0034(19)
O6 O 0.504(2) 0.025(2) 0.831(2)
loop_
_geom_bond_atom_site_label_1
_geom_bond_atom_site_label_2
_geom_bond_site_symmetry_1
_geom_bond_site_symmetry_2
Co1 O1 1_555 1_555
O1 C7 1_555 1_555
O2 C7 1_555 1_555
O3 C8 1_555 1_555
O4 C8 1_555 1_555
C1 C2 1_555 1_555
C2 C3 1_555 1_555
C3 C4 1_555 1_555
C4 C5 1_555 1_555
C5 C6 1_555 1_555
C6 C1 1_555 1_555
C7 C1 1_555 1_555
C8 C5 1_555 1_555
N1 Co1 1_555 1_555
N2 C14 1_555 1_555
C9 N1 1_555 1_555
C10 C9 1_555 1_555
C11 C10 1_555 1_555
C12 C11 1_555 1_555
C13 N1 1_555 1_555
C14 C15 1_555 1_555
C15 C16 1_555 1_555
C16 C11 1_555 1_555
C17 C16 1_555 1_555
C18 N2 1_555 1_555
H1 C2 1_555 1_555
H2 C3 1_555 1_555
H3 C4 1_555 1_555
H4 C6 1_555 1_555
H5 C9 1_555 1_555
H6 C10 1_555 1_555
H7 C12 1_555 1_555
H8 C13 1_555 1_555
H9 C14 1_555 1_555
H10 C15 1_555 1_555
H11 C17 1_555 1_555
H12 C18 1_555 1_555
Co1A O2 1_555 1_555
Co1A_2 O3 1_555 1_555
Co1_2 N2 1_555 1_555
O2A Co1 1_555 1_555
O3A Co1 1_555 1_555
O4A Co1 1_555 1_555
N2_2 Co1 1_555 1_555
O4 Co1A_2 1_555 1_555
C12 C13 1_555 1_555
C17 C18 1_555 1_555

#END
