
#######################################################################
#
#                 Cambridge Crystallographic Data Centre
#                                CCDC 
#
#######################################################################
#
# If this CIF has been generated from an entry in the Cambridge 
# Structural Database, then it will include bibliographic, chemical, 
# crystal, experimental, refinement or atomic coordinate data resulting 
# from the CCDC's data processing and validation procedures.
#
#######################################################################

data_OKIGUK
_symmetry_cell_setting           triclinic
_symmetry_space_group_name_H-M   'P -1'
_symmetry_Int_Tables_number      2
_space_group_name_Hall           '-P 1'
loop_
_symmetry_equiv_pos_site_id
_symmetry_equiv_pos_as_xyz
1 x,y,z
2 -x,-y,-z
_cell_length_a                   7.83730(10)
_cell_length_b                   9.5854(2)
_cell_length_c                   10.6931(2)
_cell_angle_alpha                68.7770(8)
_cell_angle_beta                 70.8710(8)
_cell_angle_gamma                75.3330(12)
_cell_volume                     699.168
loop_
_atom_site_label
_atom_site_type_symbol
_atom_site_fract_x
_atom_site_fract_y
_atom_site_fract_z
Er1 Er 0.26636(2) 0.794254(19) 0.006597(16)
O1 O 0.3440(5) 0.5904(4) -0.0883(4)
O2 O 0.0451(5) 0.8845(4) 0.1673(3)
O3 O -0.1712(6) 0.6437(4) 0.8959(4)
O4 O 0.3255(5) 0.5817(4) 0.1977(3)
O5 O -0.4377(5) 0.7911(5) 0.8875(4)
O6 O 0.4165(5) 0.7888(4) 0.1779(3)
O7 O 0.0012(5) 0.6664(5) 0.0734(4)
O8 O 0.3028(6) 1.0505(4) -0.0679(5)
O9 O -0.1385(6) 1.1012(4) 0.1734(4)
C1 C 0.3955(6) 0.6528(6) 0.2434(5)
C2 C -0.0632(6) 0.9721(5) 0.2311(4)
C3 C -0.2760(7) 0.7442(5) 0.8314(5)
C4 C -0.1106(7) 0.9177(5) 0.3876(5)
C5 C 0.4515(7) 0.5741(5) 0.3750(5)
C6 C -0.2101(6) 0.8092(5) 0.6763(5)
C7 C 0.5419(10) 0.6437(7) 0.4219(6)
H1 H 0.5700 0.7403 0.3699
C8 C 0.4092(10) 0.4296(7) 0.4540(6)
H2 H 0.3480 0.3822 0.4234
C9 C -0.0657(9) 0.7317(8) 0.6007(6)
H3 H -0.0004 0.6432 0.6465
C10 C -0.0169(9) 0.7852(8) 0.4565(6)
H4 H 0.0794 0.7313 0.4061
C11 C -0.2496(10) 0.9980(7) 0.4634(6)
H5 H -0.3096 1.0902 0.4182
C12 C -0.3005(11) 0.9420(8) 0.6069(6)
H6 H -0.3977 0.9955 0.6571
C8A C 0.5908(10) 0.5704(7) 0.5460(6)
C5A C 0.5485(7) 0.4259(5) 0.6250(5)
C1A C 0.6045(6) 0.3472(6) 0.7566(5)
O4A O 0.6745(5) 0.4183(4) 0.8023(3)
O6A O 0.5835(5) 0.2112(4) 0.8221(3)
C7A C 0.4581(10) 0.3563(7) 0.5781(6)
H1A H 0.4300 0.2597 0.6301
H2A H 0.6520 0.6178 0.5766
O2_2 O 1.0451(5) 0.8845(4) -0.8327(3)
O3_2 O 0.8288(6) 0.6437(4) -0.1041(4)
O5_2 O 0.5623(5) 0.7911(5) -0.1125(4)
O9_2 O 0.8615(6) 1.1012(4) -0.8266(4)
C2_2 C 0.9368(6) 0.9721(5) -0.7689(4)
C3_2 C 0.7240(7) 0.7442(5) -0.1686(5)
C4_2 C 0.8894(7) 0.9177(5) -0.6124(5)
C6_2 C 0.7899(6) 0.8092(5) -0.3237(5)
C9_2 C 0.9343(9) 0.7317(8) -0.3993(6)
H3_2 H 0.9996 0.6432 -0.3535
C10_2 C 0.9831(9) 0.7852(8) -0.5435(6)
H4_2 H 1.0794 0.7313 -0.5939
C11_2 C 0.7504(10) 0.9980(7) -0.5366(6)
H5_2 H 0.6904 1.0902 -0.5818
C12_2 C 0.6995(11) 0.9420(8) -0.3931(6)
H6_2 H 0.6023 0.9955 -0.3429
Er1_2 Er 1.26636(2) 0.794254(19) -0.993403(16)
O1_2 O 1.3440(5) 0.5904(4) -1.0883(4)
O7_2 O 1.0012(5) 0.6664(5) -0.9266(4)
O8_2 O 1.3028(6) 1.0505(4) -1.0679(5)
O9A O 0.1385(6) 0.8988(4) -0.1734(4)
Er1_3 Er -0.73364(2) 0.794254(19) 1.006597(16)
Er1A Er -0.26636(2) 1.205746(19) -0.006597(16)
Er1A_2 Er 0.73364(2) 0.205746(19) 0.993403(16)
Er1A_3 Er 0.73364(2) 1.205746(19) -1.006597(16)
O4_2 O 1.3255(5) 0.5817(4) -0.8023(3)
O5_3 O 1.5623(5) 0.7911(5) -1.1125(4)
O6_2 O 1.4165(5) 0.7888(4) -0.8221(3)
O9A_2 O 1.1385(6) 0.8988(4) -1.1734(4)
loop_
_geom_bond_atom_site_label_1
_geom_bond_atom_site_label_2
_geom_bond_site_symmetry_1
_geom_bond_site_symmetry_2
Er1 O1 1_555 1_555
O2 Er1 1_555 1_555
O3 C3 1_555 1_555
O4 Er1 1_555 1_555
O5 C3 1_555 1_555
O6 Er1 1_555 1_555
O7 Er1 1_555 1_555
O8 Er1 1_555 1_555
O9 C2 1_555 1_555
C1 O4 1_555 1_555
C2 O2 1_555 1_555
C3 C6 1_555 1_555
C4 C2 1_555 1_555
C5 C1 1_555 1_555
C6 C9 1_555 1_555
C7 C5 1_555 1_555
H1 C7 1_555 1_555
C8 C5 1_555 1_555
H2 C8 1_555 1_555
C9 H3 1_555 1_555
C10 C4 1_555 1_555
H4 C10 1_555 1_555
C11 C4 1_555 1_555
H5 C11 1_555 1_555
C12 C6 1_555 1_555
H6 C12 1_555 1_555
C8A C7 1_555 1_555
C5A C8A 1_555 1_555
C1A C5A 1_555 1_555
O4A C1A 1_555 1_555
O6A C1A 1_555 1_555
C7A C8 1_555 1_555
H1A C7A 1_555 1_555
H2A C8A 1_555 1_555
O2_2 C2_2 1_555 1_555
O3_2 C3_2 1_555 1_555
O5_2 Er1 1_555 1_555
O9_2 C2_2 1_555 1_555
C2_2 C4_2 1_555 1_555
C3_2 O5_2 1_555 1_555
C4_2 C10_2 1_555 1_555
C6_2 C3_2 1_555 1_555
C9_2 C6_2 1_555 1_555
H3_2 C9_2 1_555 1_555
C10_2 C9_2 1_555 1_555
H4_2 C10_2 1_555 1_555
C11_2 C4_2 1_555 1_555
H5_2 C11_2 1_555 1_555
C12_2 C6_2 1_555 1_555
H6_2 C12_2 1_555 1_555
Er1_2 O2_2 1_555 1_555
O1_2 Er1_2 1_555 1_555
O7_2 Er1_2 1_555 1_555
O8_2 Er1_2 1_555 1_555
O9A Er1 1_555 1_555
Er1_3 O5 1_555 1_555
Er1A O9 1_555 1_555
Er1A_2 O4A 1_555 1_555
Er1A_3 O9_2 1_555 1_555
O4_2 Er1_2 1_555 1_555
O5_3 Er1_2 1_555 1_555
O6_2 Er1_2 1_555 1_555
O9A_2 Er1_2 1_555 1_555
O6 C1 1_555 1_555
C9 C10 1_555 1_555
C11 C12 1_555 1_555
C5A C7A 1_555 1_555
O6A Er1A_2 1_555 1_555
C11_2 C12_2 1_555 1_555

#END
