
#######################################################################
#
#                 Cambridge Crystallographic Data Centre
#                                CCDC 
#
#######################################################################
#
# If this CIF has been generated from an entry in the Cambridge 
# Structural Database, then it will include bibliographic, chemical, 
# crystal, experimental, refinement or atomic coordinate data resulting 
# from the CCDC's data processing and validation procedures.
#
#######################################################################

data_OKIHAS
_symmetry_cell_setting           triclinic
_symmetry_space_group_name_H-M   'P -1'
_symmetry_Int_Tables_number      2
_space_group_name_Hall           '-P 1'
loop_
_symmetry_equiv_pos_site_id
_symmetry_equiv_pos_as_xyz
1 x,y,z
2 -x,-y,-z
_cell_length_a                   15.134(3)
_cell_length_b                   15.840(3)
_cell_length_c                   23.066(5)
_cell_angle_alpha                101.50(3)
_cell_angle_beta                 98.00(3)
_cell_angle_gamma                116.73(3)
_cell_volume                     4671.04
loop_
_atom_site_label
_atom_site_type_symbol
_atom_site_fract_x
_atom_site_fract_y
_atom_site_fract_z
Cu1 Cu 0.20275(6) 0.37099(5) 0.23559(3)
Cu2 Cu -0.25630(6) 0.38490(5) 0.23554(3)
S1 S -0.51890(13) 0.35632(13) 0.24389(8)
S2 S -0.01256(13) 0.38651(13) 0.27220(8)
O1 O 0.4876(4) 0.7921(4) 0.4637(3)
O2 O 0.9581(5) 0.8955(5) 0.3986(5)
O3 O 0.1322(4) -0.0760(4) 0.2933(3)
O4 O 0.6475(4) 0.1367(4) 0.4450(3)
O5 O 0.0525(5) 0.0411(5) -0.0626(3)
O6 O 0.4312(4) -0.0832(3) 0.0217(2)
O7 O 0.4223(6) 0.7671(5) 0.1088(4)
O8 O 0.6979(5) 0.5606(4) -0.0227(3)
O9 O -0.5078(4) 0.4030(3) 0.3092(2)
O10 O -0.5840(5) 0.3788(5) 0.2050(3)
O11 O -0.5643(4) 0.2494(3) 0.2350(2)
O12 O -0.4167(4) 0.3963(4) 0.2324(3)
O13 O -0.1055(4) 0.3715(4) 0.2316(2)
O14 O 0.0447(4) 0.4864(4) 0.3133(3)
O15 O 0.0522(3) 0.3702(3) 0.2336(2)
O16 O -0.0413(4) 0.3141(4) 0.3073(3)
N1 N 0.2774(4) 0.4449(4) 0.3248(2)
N2 N 0.5162(4) 0.6714(4) 0.4128(3)
H6 H 0.5617 0.6589 0.4011
N3 N 0.7099(4) 0.8062(4) 0.4233(3)
N4 N 0.8202(5) 0.7400(4) 0.3656(3)
H7 H 0.7592 0.7051 0.3688
N5 N 0.8304(4) 0.5343(4) 0.2689(2)
N6 N 0.1512(4) 0.2388(4) 0.2532(2)
N7 N 0.2397(4) 0.0886(4) 0.3179(3)
H8 H 0.3024 0.1341 0.3346
N8 N 0.3919(4) 0.0636(4) 0.3728(3)
N9 N 0.5782(4) 0.2157(4) 0.3989(3)
H9 H 0.5226 0.2185 0.3899
N10 N 0.7472(4) 0.3739(4) 0.3218(2)
N11 N 0.1510(4) 0.3040(4) 0.1442(2)
N12 N 0.1677(4) 0.1195(4) 0.0307(2)
H10 H 0.2181 0.1204 0.0538
N13 N 0.2548(4) 0.0047(4) 0.0016(2)
N14 N 0.4259(4) 0.0467(4) 0.0824(3)
H11 H 0.3885 0.0741 0.0870
N15 N 0.6623(4) 0.2349(4) 0.1987(2)
N16 N 0.2604(4) 0.5049(4) 0.2191(2)
N17 N 0.4277(5) 0.6368(4) 0.1314(3)
H12 H 0.4537 0.5986 0.1244
N18 N 0.5518(5) 0.6418(4) 0.0574(3)
N19 N 0.6487(4) 0.5319(4) 0.0634(3)
H13 H 0.6130 0.5409 0.0873
N20 N 0.7357(4) 0.4031(4) 0.1498(2)
C1 C 0.2210(5) 0.4338(5) 0.3659(3)
H14 H 0.1552 0.3797 0.3549
C2 C 0.2584(6) 0.5016(6) 0.4248(3)
H15 H 0.2173 0.4933 0.4519
C3 C 0.3551(6) 0.5792(5) 0.4415(3)
H16 H 0.3820 0.6237 0.4807
C4 C 0.4135(5) 0.5912(5) 0.3991(3)
C5 C 0.3729(5) 0.5225(5) 0.3428(3)
H17 H 0.4135 0.5297 0.3153
C6 C 0.5446(5) 0.7648(5) 0.4430(3)
C7 C 0.6568(6) 0.8388(5) 0.4511(3)
C8 C 0.6951(7) 0.9350(5) 0.4869(4)
H18 H 0.6544 0.9549 0.5058
C9 C 0.7965(8) 0.9998(6) 0.4931(6)
H19 H 0.8260 1.0650 0.5172
C10 C 0.8541(8) 0.9688(6) 0.4640(6)
H20 H 0.9229 1.0116 0.4682
C11 C 0.8061(7) 0.8721(6) 0.4285(5)
C12 C 0.8706(7) 0.8370(6) 0.3975(5)
C13 C 0.8583(5) 0.6899(5) 0.3271(3)
C14 C 0.9487(5) 0.7380(5) 0.3102(4)
H21 H 0.9882 0.8066 0.3236
C15 C 0.9779(6) 0.6814(5) 0.2731(4)
H22 H 1.0384 0.7120 0.2616
C16 C 0.9199(5) 0.5824(5) 0.2535(3)
H23 H 0.9415 0.5457 0.2286
C17 C 0.8034(5) 0.5895(4) 0.3055(3)
H24 H 0.7431 0.5575 0.3170
C18 C 0.0501(5) 0.1831(5) 0.2414(4)
H25 H 0.0083 0.2049 0.2238
C19 C 0.0047(6) 0.0932(6) 0.2546(5)
H26 H -0.0662 0.0565 0.2465
C20 C 0.0645(6) 0.0596(6) 0.2792(5)
H27 H 0.0352 -0.0003 0.2882
C21 C 0.1714(5) 0.1164(5) 0.2909(3)
C22 C 0.2103(5) 0.2040(5) 0.2771(3)
H28 H 0.2810 0.2417 0.2845
C23 C 0.2141(6) -0.0042(5) 0.3194(4)
C24 C 0.2965(6) -0.0149(5) 0.3547(3)
C25 C 0.2735(6) -0.1032(6) 0.3682(4)
H29 H 0.2069 -0.1561 0.3550
C26 C 0.3501(7) -0.1108(6) 0.4009(4)
H30 H 0.3357 -0.1686 0.4111
C27 C 0.4502(7) -0.0318(6) 0.4191(4)
H31 H 0.5036 -0.0364 0.4408
C28 C 0.4676(6) 0.0535(5) 0.4039(3)
C29 C 0.5743(6) 0.1406(6) 0.4188(3)
C30 C 0.6688(5) 0.2905(5) 0.3919(3)
C31 C 0.7581(5) 0.3424(5) 0.4362(3)
H32 H 0.7623 0.3323 0.4746
C32 C 0.8430(6) 0.4106(6) 0.4229(3)
H33 H 0.9051 0.4469 0.4527
C33 C 0.8370(5) 0.4255(5) 0.3663(3)
H34 H 0.8952 0.4717 0.3583
C34 C 0.6644(5) 0.3072(5) 0.3342(3)
H35 H 0.6026 0.2713 0.3040
C35 C 0.0907(6) 0.3267(6) 0.1098(3)
H36 H 0.0746 0.3739 0.1283
C36 C 0.0523(7) 0.2817(6) 0.0478(4)
H37 H 0.0103 0.2985 0.0250
C37 C 0.0751(6) 0.2123(6) 0.0188(3)
H38 H 0.0495 0.1824 -0.0233
C38 C 0.1377(5) 0.1878(5) 0.0540(3)
C39 C 0.1734(5) 0.2364(5) 0.1161(3)
H39 H 0.2157 0.2211 0.1400
C40 C 0.1237(6) 0.0520(6) -0.0253(3)
C41 C 0.1705(5) -0.0151(5) -0.0384(3)
C42 C 0.1247(6) -0.0916(6) -0.0910(3)
H40 H 0.0660 -0.1028 -0.1179
C43 C 0.1669(6) -0.1526(6) -0.1040(4)
H41 H 0.1366 -0.2054 -0.1398
C44 C 0.2535(6) -0.1349(5) -0.0640(4)
H42 H 0.2835 -0.1745 -0.0715
C45 C 0.2945(5) -0.0546(4) -0.0114(3)
C46 C 0.3902(5) -0.0331(4) 0.0322(3)
C47 C 0.5208(5) 0.0887(5) 0.1281(3)
C48 C 0.5603(6) 0.0300(5) 0.1458(4)
H43 H 0.5263 -0.0382 0.1281
C49 C 0.6507(6) 0.0775(5) 0.1904(4)
H44 H 0.6796 0.0413 0.2034
C50 C 0.6997(6) 0.1795(5) 0.2163(3)
H45 H 0.7606 0.2102 0.2470
C51 C 0.5724(5) 0.1884(5) 0.1558(3)
H46 H 0.5441 0.2259 0.1446
C52 C 0.2398(6) 0.5722(5) 0.2493(4)
H47 H 0.1974 0.5567 0.2756
C53 C 0.2827(7) 0.6657(6) 0.2411(4)
H48 H 0.2674 0.7121 0.2617
C54 C 0.3448(7) 0.6905(6) 0.2046(4)
H49 H 0.3734 0.7538 0.2003
C55 C 0.3664(6) 0.6210(5) 0.1731(3)
C56 C 0.3222(5) 0.5292(5) 0.1819(3)
H50 H 0.3358 0.4817 0.1609
C57 C 0.4500(7) 0.7058(6) 0.1010(4)
C58 C 0.5094(6) 0.6999(5) 0.0564(4)
C59 C 0.5177(6) 0.7528(6) 0.0144(4)
H51 H 0.4888 0.7937 0.0151
C60 C 0.5694(7) 0.7432(6) -0.0282(4)
H52 H 0.5767 0.7788 -0.0565
C61 C 0.6110(6) 0.6813(5) -0.0301(4)
H53 H 0.6436 0.6723 -0.0602
C62 C 0.6026(6) 0.6330(5) 0.0148(3)
C63 C 0.6523(6) 0.5707(5) 0.0162(3)
C64 C 0.6976(5) 0.4783(5) 0.0774(3)
C65 C 0.7468(7) 0.4472(7) 0.0406(4)
H54 H 0.7520 0.4623 0.0038
C66 C 0.7894(7) 0.3917(7) 0.0598(4)
H55 H 0.8206 0.3668 0.0348
C67 C 0.7849(6) 0.3747(5) 0.1139(3)
H56 H 0.8176 0.3417 0.1271
C68 C 0.6923(5) 0.4527(4) 0.1317(3)
H57 H 0.6565 0.4714 0.1562
Cu2_2 Cu 0.74370(6) 0.38490(5) 0.23554(3)
N5_2 N -0.1696(4) 0.5343(4) 0.2689(2)
N10_2 N -0.2528(4) 0.3739(4) 0.3218(2)
N15_2 N -0.3377(4) 0.2349(4) 0.1987(2)
N20_2 N -0.2643(4) 0.4031(4) 0.1498(2)
O17 O 0.6330(4) 0.5768(3) 0.3809(3)
H1 H 0.5847 0.5243 0.3582
C69 C 0.6742(8) 0.5606(7) 0.4331(4)
H58 H 0.7073 0.5228 0.4219
H59 H 0.6202 0.5249 0.4507
H60 H 0.7232 0.6231 0.4625
O18 O 0.5355(5) 0.5343(4) 0.1629(3)
H2 H 0.5080 0.4831 0.1724
C70 C 0.5983(9) 0.6133(8) 0.2156(6)
H61 H 0.6178 0.5888 0.2471
H62 H 0.5618 0.6462 0.2293
H63 H 0.6586 0.6590 0.2065
O19 O 0.4260(4) 0.2812(4) 0.3767(3)
H3 H 0.4529 0.3193 0.3571
C71 C 0.4035(8) 0.3285(7) 0.4243(4)
H64 H 0.4658 0.3841 0.4512
H65 H 0.3705 0.2833 0.4466
H66 H 0.3587 0.3510 0.4084
O20 O 0.2998(4) 0.1195(4) 0.1342(2)
H4 H 0.3401 0.1601 0.1666
C72 C 0.2256(9) 0.0360(8) 0.1462(5)
H67 H 0.2590 0.0140 0.1732
H68 H 0.1862 -0.0161 0.1084
H69 H 0.1810 0.0532 0.1652
O21 O 0.833(2) 0.1374(15) 0.3456(14)
O22 O 0.0920(10) 0.5927(9) 0.4307(4)
H5 H 0.0508 0.5478 0.4001
C73 C 0.1180(15) 0.6765(9) 0.4203(8)
H70 H 0.1613 0.6854 0.3928
H71 H 0.1543 0.7289 0.4582
H72 H 0.0576 0.6776 0.4022
O23 O 0.0278(19) 0.318(3) 0.4343(12)
O24 O 0.076(2) 0.573(2) 0.0698(14)
loop_
_geom_bond_atom_site_label_1
_geom_bond_atom_site_label_2
_geom_bond_site_symmetry_1
_geom_bond_site_symmetry_2
Cu1 O15 1_555 1_555
Cu2 O12 1_555 1_555
S1 O9 1_555 1_555
S2 O13 1_555 1_555
O1 C6 1_555 1_555
O2 C12 1_555 1_555
O3 C23 1_555 1_555
O4 C29 1_555 1_555
O5 C40 1_555 1_555
O6 C46 1_555 1_555
O7 C57 1_555 1_555
O8 C63 1_555 1_555
O10 S1 1_555 1_555
O11 S1 1_555 1_555
O12 S1 1_555 1_555
O13 Cu2 1_555 1_555
O14 S2 1_555 1_555
O15 S2 1_555 1_555
O16 S2 1_555 1_555
O17 H1 1_555 1_555
O18 H2 1_555 1_555
O19 H3 1_555 1_555
O20 H4 1_555 1_555
O22 H5 1_555 1_555
N1 Cu1 1_555 1_555
N2 H6 1_555 1_555
N3 C7 1_555 1_555
N4 H7 1_555 1_555
N5 C16 1_555 1_555
N6 Cu1 1_555 1_555
N7 H8 1_555 1_555
N8 C24 1_555 1_555
N9 H9 1_555 1_555
N10 C33 1_555 1_555
N11 Cu1 1_555 1_555
N12 H10 1_555 1_555
N13 C41 1_555 1_555
N14 H11 1_555 1_555
N15 C50 1_555 1_555
N16 Cu1 1_555 1_555
N17 H12 1_555 1_555
N18 C58 1_555 1_555
N19 H13 1_555 1_555
N20 C67 1_555 1_555
C1 N1 1_555 1_555
H14 C1 1_555 1_555
C2 C1 1_555 1_555
H15 C2 1_555 1_555
C3 C2 1_555 1_555
H16 C3 1_555 1_555
C4 N2 1_555 1_555
C5 N1 1_555 1_555
H17 C5 1_555 1_555
C6 N2 1_555 1_555
C7 C6 1_555 1_555
C8 C7 1_555 1_555
H18 C8 1_555 1_555
C9 C8 1_555 1_555
H19 C9 1_555 1_555
C10 C9 1_555 1_555
H20 C10 1_555 1_555
C11 N3 1_555 1_555
C12 N4 1_555 1_555
C13 N4 1_555 1_555
C14 C13 1_555 1_555
H21 C14 1_555 1_555
C15 C14 1_555 1_555
H22 C15 1_555 1_555
C16 C15 1_555 1_555
H23 C16 1_555 1_555
C17 N5 1_555 1_555
H24 C17 1_555 1_555
C18 N6 1_555 1_555
H25 C18 1_555 1_555
C19 C18 1_555 1_555
H26 C19 1_555 1_555
C20 C19 1_555 1_555
H27 C20 1_555 1_555
C21 N7 1_555 1_555
C22 N6 1_555 1_555
H28 C22 1_555 1_555
C23 N7 1_555 1_555
C24 C23 1_555 1_555
C25 C24 1_555 1_555
H29 C25 1_555 1_555
C26 C25 1_555 1_555
H30 C26 1_555 1_555
C27 C26 1_555 1_555
H31 C27 1_555 1_555
C28 N8 1_555 1_555
C29 N9 1_555 1_555
C30 N9 1_555 1_555
C31 C30 1_555 1_555
H32 C31 1_555 1_555
C32 C31 1_555 1_555
H33 C32 1_555 1_555
C33 C32 1_555 1_555
H34 C33 1_555 1_555
C34 N10 1_555 1_555
H35 C34 1_555 1_555
C35 N11 1_555 1_555
H36 C35 1_555 1_555
C36 C35 1_555 1_555
H37 C36 1_555 1_555
C37 C36 1_555 1_555
H38 C37 1_555 1_555
C38 N12 1_555 1_555
C39 N11 1_555 1_555
H39 C39 1_555 1_555
C40 N12 1_555 1_555
C41 C40 1_555 1_555
C42 C41 1_555 1_555
H40 C42 1_555 1_555
C43 C42 1_555 1_555
H41 C43 1_555 1_555
C44 C43 1_555 1_555
H42 C44 1_555 1_555
C45 N13 1_555 1_555
C46 N14 1_555 1_555
C47 N14 1_555 1_555
C48 C47 1_555 1_555
H43 C48 1_555 1_555
C49 C48 1_555 1_555
H44 C49 1_555 1_555
C50 C49 1_555 1_555
H45 C50 1_555 1_555
C51 N15 1_555 1_555
H46 C51 1_555 1_555
C52 N16 1_555 1_555
H47 C52 1_555 1_555
C53 C52 1_555 1_555
H48 C53 1_555 1_555
C54 C53 1_555 1_555
H49 C54 1_555 1_555
C55 N17 1_555 1_555
C56 N16 1_555 1_555
H50 C56 1_555 1_555
C57 N17 1_555 1_555
C58 C57 1_555 1_555
C59 C58 1_555 1_555
H51 C59 1_555 1_555
C60 C59 1_555 1_555
H52 C60 1_555 1_555
C61 C60 1_555 1_555
H53 C61 1_555 1_555
C62 N18 1_555 1_555
C63 N19 1_555 1_555
C64 N19 1_555 1_555
C65 C64 1_555 1_555
H54 C65 1_555 1_555
C66 C65 1_555 1_555
H55 C66 1_555 1_555
C67 C66 1_555 1_555
H56 C67 1_555 1_555
C68 N20 1_555 1_555
H57 C68 1_555 1_555
C69 O17 1_555 1_555
H58 C69 1_555 1_555
H59 C69 1_555 1_555
H60 C69 1_555 1_555
C70 O18 1_555 1_555
H61 C70 1_555 1_555
H62 C70 1_555 1_555
H63 C70 1_555 1_555
C71 O19 1_555 1_555
H64 C71 1_555 1_555
H65 C71 1_555 1_555
H66 C71 1_555 1_555
C72 O20 1_555 1_555
H67 C72 1_555 1_555
H68 C72 1_555 1_555
H69 C72 1_555 1_555
C73 O22 1_555 1_555
H70 C73 1_555 1_555
H71 C73 1_555 1_555
H72 C73 1_555 1_555
Cu2_2 N5 1_555 1_555
N5_2 Cu2 1_555 1_555
N10_2 Cu2 1_555 1_555
N15_2 Cu2 1_555 1_555
N20_2 Cu2 1_555 1_555
N10 Cu2_2 1_555 1_555
N15 Cu2_2 1_555 1_555
N20 Cu2_2 1_555 1_555
C3 C4 1_555 1_555
C4 C5 1_555 1_555
C10 C11 1_555 1_555
C11 C12 1_555 1_555
C13 C17 1_555 1_555
C20 C21 1_555 1_555
C21 C22 1_555 1_555
C27 C28 1_555 1_555
C28 C29 1_555 1_555
C30 C34 1_555 1_555
C37 C38 1_555 1_555
C38 C39 1_555 1_555
C44 C45 1_555 1_555
C45 C46 1_555 1_555
C47 C51 1_555 1_555
C54 C55 1_555 1_555
C55 C56 1_555 1_555
C61 C62 1_555 1_555
C62 C63 1_555 1_555
C64 C68 1_555 1_555

#END
