
#######################################################################
#
#                 Cambridge Crystallographic Data Centre
#                                CCDC 
#
#######################################################################
#
# If this CIF has been generated from an entry in the Cambridge 
# Structural Database, then it will include bibliographic, chemical, 
# crystal, experimental, refinement or atomic coordinate data resulting 
# from the CCDC's data processing and validation procedures.
#
#######################################################################

data_OKIJIC
_symmetry_cell_setting           monoclinic
_symmetry_space_group_name_H-M   'C 2/c'
_symmetry_Int_Tables_number      15
_space_group_name_Hall           '-C 2yn'
loop_
_symmetry_equiv_pos_site_id
_symmetry_equiv_pos_as_xyz
1 x,y,z
2 -x,y,1/2-z
3 1/2+x,1/2+y,z
4 1/2-x,1/2+y,1/2-z
5 -x,-y,-z
6 x,-y,1/2+z
7 1/2-x,1/2-y,-z
8 1/2+x,1/2-y,1/2+z
_cell_length_a                   12.7209(13)
_cell_length_b                   15.4365(15)
_cell_length_c                   27.097(3)
_cell_angle_alpha                90
_cell_angle_beta                 99.045(2)
_cell_angle_gamma                90
_cell_volume                     5254.77
loop_
_atom_site_label
_atom_site_type_symbol
_atom_site_fract_x
_atom_site_fract_y
_atom_site_fract_z
Ag1 Ag 0.13333(4) 0.23212(3) 0.304052(16)
C1 C 0.1405(4) 0.4188(3) 0.24819(19)
C2 C 0.1143(4) 0.4937(3) 0.21744(17)
C3 C 0.1353(4) 0.5751(3) 0.23630(17)
H1 H 0.1639 0.5820 0.2698
C4 C 0.1145(4) 0.6470(3) 0.20627(17)
H2 H 0.1292 0.7022 0.2194
C5 C 0.0716(4) 0.6366(3) 0.15617(17)
C6 C 0.0471(5) 0.5549(3) 0.1374(2)
H3 H 0.0161 0.5482 0.1042
C7 C 0.0683(5) 0.4829(3) 0.1675(2)
H4 H 0.0522 0.4278 0.1547
C8 C 0.0698(4) 0.7091(3) 0.07481(17)
C9 C 0.0120(4) 0.7634(3) 0.03961(19)
H5 H -0.0392 0.8000 0.0493
C10 C 0.0292(4) 0.7641(3) -0.0092(2)
H6 H -0.0102 0.8007 -0.0323
C11 C 0.1056(5) 0.7099(4) -0.02390(19)
C12 C 0.1288(6) 0.7114(5) -0.0738(2)
C13 C 0.1636(6) 0.6554(4) 0.0106(2)
H7 H 0.2148 0.6190 0.0008
C14 C 0.1458(5) 0.6547(4) 0.0592(2)
H8 H 0.1850 0.6175 0.0821
C15 C 0.0217(4) 0.7895(3) 0.14573(17)
C16 C -0.0687(4) 0.7909(3) 0.1675(2)
H9 H -0.1065 0.7401 0.1704
C17 C -0.1034(4) 0.8680(3) 0.1849(2)
H10 H -0.1645 0.8695 0.1998
C18 C -0.0468(4) 0.9430(3) 0.18018(17)
C19 C -0.0881(4) 1.0254(3) 0.1931(2)
C20 C 0.0456(4) 0.9407(3) 0.1597(2)
H11 H 0.0845 0.9911 0.1575
C21 C 0.0803(4) 0.8634(3) 0.14258(18)
H12 H 0.1429 0.8613 0.1290
Cl1 Cl -0.12290(11) 0.20502(10) 0.34535(6)
N1 N 0.1625(5) 0.3596(3) 0.27239(17)
N2 N 0.0536(4) 0.7105(2) 0.12485(15)
N3 N -0.1216(4) 1.0912(3) 0.20048(19)
N4 N 0.1507(6) 0.7147(5) -0.1130(2)
O1 O -0.0677(5) 0.2306(5) 0.3052(2)
O2 O -0.1413(5) 0.2768(3) 0.3736(3)
O3 O -0.2154(5) 0.1628(6) 0.3278(3)
O4 O -0.0517(4) 0.1476(3) 0.37706(18)
Ag1A Ag -0.13333(4) 1.23212(3) 0.195948(16)
Ag1E Ag 0.13333(4) 0.76788(3) -0.195948(16)
Ag1A_2 Ag -0.13333(4) 0.23212(3) 0.195948(16)
N3A N 0.1216(4) 0.0912(3) 0.29952(19)
N4E N 0.1507(6) 0.2853(5) 0.3870(2)
O1A O 0.0677(5) 0.2306(5) 0.1948(2)
C22 C 0.72342(12) 0.1126(3) 0.4725(2)
H13 H 0.6802 0.1470 0.4495
C23 C 0.71499(18) 0.1173(3) 0.5229(2)
H14 H 0.6661 0.1549 0.5337
C24 C 0.7796(2) 0.0659(4) 0.55730(18)
H15 H 0.7739 0.0691 0.5911
C25 C 0.85263(16) 0.0098(3) 0.5412(2)
H16 H 0.8959 -0.0247 0.5642
C26 C 0.86107(16) 0.0050(3) 0.4908(2)
H17 H 0.9099 -0.0326 0.4800
C27 C 0.79646(15) 0.0564(4) 0.45640(19)
H18 H 0.8021 0.0533 0.4226
loop_
_geom_bond_atom_site_label_1
_geom_bond_atom_site_label_2
_geom_bond_site_symmetry_1
_geom_bond_site_symmetry_2
Ag1 N1 1_555 1_555
C1 C2 1_555 1_555
C2 C3 1_555 1_555
C3 H1 1_555 1_555
C4 C3 1_555 1_555
H2 C4 1_555 1_555
C5 C4 1_555 1_555
C6 C5 1_555 1_555
H3 C6 1_555 1_555
C7 C2 1_555 1_555
H4 C7 1_555 1_555
C8 C9 1_555 1_555
C9 H5 1_555 1_555
C10 C9 1_555 1_555
H6 C10 1_555 1_555
C11 C10 1_555 1_555
C12 C11 1_555 1_555
C13 C11 1_555 1_555
H7 C13 1_555 1_555
C14 C8 1_555 1_555
H8 C14 1_555 1_555
C15 C16 1_555 1_555
C16 H9 1_555 1_555
C17 C16 1_555 1_555
H10 C17 1_555 1_555
C18 C17 1_555 1_555
C19 C18 1_555 1_555
C20 C18 1_555 1_555
H11 C20 1_555 1_555
C21 C15 1_555 1_555
H12 C21 1_555 1_555
C22 H13 1_555 1_555
C23 C22 1_555 1_555
H14 C23 1_555 1_555
C24 C23 1_555 1_555
H15 C24 1_555 1_555
C25 C24 1_555 1_555
H16 C25 1_555 1_555
C26 C25 1_555 1_555
H17 C26 1_555 1_555
C27 C22 1_555 1_555
H18 C27 1_555 1_555
Cl1 O1 1_555 1_555
N1 C1 1_555 1_555
N2 C5 1_555 1_555
N3 C19 1_555 1_555
N4 C12 1_555 1_555
O1 Ag1 1_555 1_555
O2 Cl1 1_555 1_555
O3 Cl1 1_555 1_555
O4 Cl1 1_555 1_555
Ag1A N3 1_555 1_555
Ag1E N4 1_555 1_555
Ag1A_2 O1 1_555 1_555
N3A Ag1 1_555 1_555
N4E Ag1 1_555 1_555
O1A Ag1 1_555 1_555
C6 C7 1_555 1_555
C8 N2 1_555 1_555
C13 C14 1_555 1_555
C15 N2 1_555 1_555
C20 C21 1_555 1_555
C26 C27 1_555 1_555
Ag1A_2 O1A 1_555 1_555

#END
