
#######################################################################
#
#                 Cambridge Crystallographic Data Centre
#                                CCDC 
#
#######################################################################
#
# If this CIF has been generated from an entry in the Cambridge 
# Structural Database, then it will include bibliographic, chemical, 
# crystal, experimental, refinement or atomic coordinate data resulting 
# from the CCDC's data processing and validation procedures.
#
#######################################################################

data_OKIJUO
_symmetry_cell_setting           orthorhombic
_symmetry_space_group_name_H-M   'P n c 2'
_symmetry_Int_Tables_number      30
_space_group_name_Hall           'P 2 -2bc'
loop_
_symmetry_equiv_pos_site_id
_symmetry_equiv_pos_as_xyz
1 x,y,z
2 -x,-y,z
3 x,1/2-y,1/2+z
4 -x,1/2+y,1/2+z
_cell_length_a                   9.549(4)
_cell_length_b                   26.717(10)
_cell_length_c                   12.141(5)
_cell_angle_alpha                90
_cell_angle_beta                 90
_cell_angle_gamma                90
_cell_volume                     3097.42
loop_
_atom_site_label
_atom_site_type_symbol
_atom_site_fract_x
_atom_site_fract_y
_atom_site_fract_z
Ag1 Ag 0.21581(9) 1.00605(2) 0.7197(4)
C1 C 0.2561(13) 0.8831(4) 0.6938(11)
C2 C 0.2606(12) 0.8285(3) 0.6985(12)
C3 C 0.2281(14) 0.8030(5) 0.6080(13)
H1 H 0.2069 0.8200 0.5433
C4 C 0.2260(14) 0.7503(6) 0.6098(13)
H2 H 0.2010 0.7321 0.5476
C5 C 0.2625(10) 0.7263(3) 0.7078(15)
C6 C 0.2941(15) 0.7525(5) 0.7999(13)
H3 H 0.3121 0.7357 0.8656
C7 C 0.2995(15) 0.8039(5) 0.7961(12)
H4 H 0.3285 0.8221 0.8573
C8 C 0.1841(11) 0.6466(4) 0.7853(9)
C9 C 0.0573(11) 0.6666(4) 0.8225(10)
H5 H 0.0269 0.6971 0.7948
C10 C -0.0220(12) 0.6425(4) 0.8976(10)
H6 H -0.1065 0.6560 0.9215
C11 C 0.0292(11) 0.5939(5) 0.9411(10)
C12 C -0.0538(13) 0.5699(4) 1.0161(11)
C13 C 0.1554(11) 0.5765(4) 0.9096(10)
H7 H 0.1927 0.5478 0.9415
C14 C 0.2268(11) 0.6016(5) 0.8309(11)
H8 H 0.3101 0.5877 0.8057
C15 C 0.3420(10) 0.6470(3) 0.6246(9)
C16 C 0.4673(12) 0.6633(4) 0.5934(12)
H9 H 0.5053 0.6918 0.6256
C17 C 0.5420(12) 0.6376(4) 0.5120(13)
H10 H 0.6284 0.6498 0.4889
C18 C 0.4906(11) 0.5957(4) 0.4670(11)
C19 C 0.5704(13) 0.5666(4) 0.3831(11)
C20 C 0.3560(12) 0.5775(4) 0.5022(11)
H11 H 0.3175 0.5488 0.4712
C21 C 0.2863(10) 0.6033(4) 0.5819(10)
H12 H 0.2009 0.5914 0.6079
N1 N 0.2581(12) 0.9245(3) 0.6912(10)
N2 N 0.2667(9) 0.6726(2) 0.7044(10)
N3 N -0.1214(13) 0.5465(4) 1.0810(10)
N4 N 0.6359(12) 0.5453(4) 0.3261(11)
O1 O 0.0000 1.0000 0.8339(15)
H22 H -0.0284 1.0292 0.8501
Ag1C Ag -0.21581(9) 1.50605(2) 0.2197(4)
Ag1C_2 Ag -0.21581(9) 0.50605(2) 1.2197(4)
Ag1C_3 Ag 0.78419(9) 0.50605(2) 0.2197(4)
Ag1A Ag -0.21581(9) 0.99395(2) 0.7197(4)
Ag1_2 Ag -0.78419(9) 1.00605(2) -0.2803(4)
C1C C -0.2561(13) 1.3831(4) 0.1938(11)
C2C C -0.2606(12) 1.3285(3) 0.1985(12)
C3C C -0.2281(14) 1.3030(5) 0.1080(13)
H1C H -0.2069 1.3200 0.0433
C4C C -0.2260(14) 1.2503(6) 0.1098(13)
H2C H -0.2010 1.2321 0.0476
C5C C -0.2625(10) 1.2263(3) 0.2078(15)
C6C C -0.2941(15) 1.2525(5) 0.2999(13)
H3C H -0.3121 1.2357 0.3656
C7C C -0.2995(15) 1.3039(5) 0.2961(12)
H4C H -0.3285 1.3221 0.3573
C8C C -0.1841(11) 1.1466(4) 0.2853(9)
C9C C -0.0573(11) 1.1666(4) 0.3225(10)
H5C H -0.0269 1.1971 0.2948
C10C C 0.0220(12) 1.1425(4) 0.3976(10)
H6C H 0.1065 1.1560 0.4215
C11C C -0.0292(11) 1.0939(5) 0.4411(10)
C12C C 0.0538(13) 1.0699(4) 0.5161(11)
C13C C -0.1554(11) 1.0765(4) 0.4096(10)
H7C H -0.1927 1.0478 0.4415
C14C C -0.2268(11) 1.1016(5) 0.3309(11)
H8C H -0.3101 1.0877 0.3057
C15C C -0.3420(10) 1.1470(3) 0.1246(9)
C16C C -0.4673(12) 1.1633(4) 0.0934(12)
H9C H -0.5053 1.1918 0.1256
C17C C -0.5420(12) 1.1376(4) 0.0120(13)
H10C H -0.6284 1.1498 -0.0111
C18C C -0.4906(11) 1.0957(4) -0.0330(11)
C19C C -0.5704(13) 1.0666(4) -0.1169(11)
C20C C -0.3560(12) 1.0775(4) 0.0022(11)
H11C H -0.3175 1.0488 -0.0288
C21C C -0.2863(10) 1.1033(4) 0.0819(10)
H12C H -0.2009 1.0914 0.1079
N1C N -0.2581(12) 1.4245(3) 0.1912(10)
N2C N -0.2667(9) 1.1726(2) 0.2044(10)
N3C N 0.1214(13) 1.0465(4) 0.5810(10)
N3_2 N -0.1214(13) 1.5465(4) 0.0810(10)
N4C N -0.6359(12) 1.0453(4) -0.1739(11)
N4C_2 N 0.3641(12) 1.0453(4) 0.8261(11)
N4_2 N -0.3641(12) 1.5453(4) 0.3261(11)
O1B O 0.0000 1.5000 0.3339(15)
H22A H 0.0284 0.9708 0.8501
H22C H 0.0284 1.5292 0.3501
H22B H -0.0284 1.4708 0.3501
B1 B 0.0420(17) 0.1305(6) 0.9525(14)
F1 F 0.1533(14) 0.1444(7) 0.8912(14)
F2 F -0.0417(18) 0.1004(7) 0.8919(18)
F3 F 0.084(3) 0.1054(10) 1.0424(16)
F4 F -0.0314(19) 0.1714(7) 0.981(2)
C22 C 0.7784(19) 0.7118(8) 0.1334(17)
H13 H 0.8365 0.7197 0.1923
C23 C 0.6919(19) 0.6702(7) 0.1389(13)
H14 H 0.6921 0.6503 0.2017
C24 C 0.6049(18) 0.6582(6) 0.0512(15)
H15 H 0.5470 0.6303 0.0554
C25 C 0.6043(19) 0.6879(7) -0.0427(16)
H16 H 0.5465 0.6800 -0.1018
C26 C 0.6918(18) 0.7298(6) -0.0472(14)
H17 H 0.6917 0.7499 -0.1097
C27 C 0.7783(16) 0.7415(7) 0.0402(17)
H18 H 0.8365 0.7694 0.0364
C28 C 0.452(3) 0.0180(10) 0.4377(18)
H19 H 0.4268 0.0320 0.5048
C29 C 0.388(2) 0.0361(8) 0.342(2)
H20 H 0.3155 0.0592 0.3441
C30 C 0.440(2) 0.0177(8) 0.2434(18)
H21 H 0.3988 0.0273 0.1771
C28A C 0.548(3) -0.0180(10) 0.4377(18)
H19A H 0.5732 -0.0320 0.5048
C29A C 0.612(2) -0.0361(8) 0.342(2)
H20A H 0.6845 -0.0592 0.3441
C30A C 0.560(2) -0.0177(8) 0.2434(18)
H21A H 0.6012 -0.0273 0.1771
loop_
_geom_bond_atom_site_label_1
_geom_bond_atom_site_label_2
_geom_bond_site_symmetry_1
_geom_bond_site_symmetry_2
Ag1 N1 1_555 1_555
B1 F1 1_555 1_555
C1 C2 1_555 1_555
C2 C3 1_555 1_555
C3 H1 1_555 1_555
C4 C3 1_555 1_555
H2 C4 1_555 1_555
C5 C4 1_555 1_555
C6 C5 1_555 1_555
H3 C6 1_555 1_555
C7 C2 1_555 1_555
H4 C7 1_555 1_555
C8 C9 1_555 1_555
C9 H5 1_555 1_555
C10 C9 1_555 1_555
H6 C10 1_555 1_555
C11 C10 1_555 1_555
C12 C11 1_555 1_555
C13 C11 1_555 1_555
H7 C13 1_555 1_555
C14 C8 1_555 1_555
H8 C14 1_555 1_555
C15 C16 1_555 1_555
C16 H9 1_555 1_555
C17 C16 1_555 1_555
H10 C17 1_555 1_555
C18 C17 1_555 1_555
C19 C18 1_555 1_555
C20 C18 1_555 1_555
H11 C20 1_555 1_555
C21 C15 1_555 1_555
H12 C21 1_555 1_555
C22 H13 1_555 1_555
C23 C22 1_555 1_555
H14 C23 1_555 1_555
C24 C23 1_555 1_555
H15 C24 1_555 1_555
C25 C24 1_555 1_555
H16 C25 1_555 1_555
C26 C25 1_555 1_555
H17 C26 1_555 1_555
C27 C22 1_555 1_555
H18 C27 1_555 1_555
C28 H19 1_555 1_555
C29 C28 1_555 1_555
H20 C29 1_555 1_555
C30 C29 1_555 1_555
H21 C30 1_555 1_555
F2 B1 1_555 1_555
F3 B1 1_555 1_555
F4 B1 1_555 1_555
N1 C1 1_555 1_555
N2 C5 1_555 1_555
N3 C12 1_555 1_555
N4 C19 1_555 1_555
O1 Ag1 1_555 1_555
H22 O1 1_555 1_555
Ag1C N1C 1_555 1_555
Ag1C_2 N3 1_555 1_555
Ag1C_3 N4 1_555 1_555
Ag1A O1 1_555 1_555
Ag1_2 N4C 1_555 1_555
C1C C2C 1_555 1_555
C2C C3C 1_555 1_555
C3C H1C 1_555 1_555
C4C C3C 1_555 1_555
H2C C4C 1_555 1_555
C5C C4C 1_555 1_555
C6C C5C 1_555 1_555
H3C C6C 1_555 1_555
C7C C2C 1_555 1_555
H4C C7C 1_555 1_555
C8C C9C 1_555 1_555
C9C H5C 1_555 1_555
C10C C9C 1_555 1_555
H6C C10C 1_555 1_555
C11C C10C 1_555 1_555
C12C C11C 1_555 1_555
C13C C11C 1_555 1_555
H7C C13C 1_555 1_555
C14C C8C 1_555 1_555
H8C C14C 1_555 1_555
C15C C16C 1_555 1_555
C16C H9C 1_555 1_555
C17C C16C 1_555 1_555
H10C C17C 1_555 1_555
C18C C17C 1_555 1_555
C19C C18C 1_555 1_555
C20C C18C 1_555 1_555
H11C C20C 1_555 1_555
C21C C15C 1_555 1_555
H12C C21C 1_555 1_555
C28A C28 1_555 1_555
H19A C28A 1_555 1_555
C29A C28A 1_555 1_555
H20A C29A 1_555 1_555
C30A C30 1_555 1_555
H21A C30A 1_555 1_555
N1C C1C 1_555 1_555
N2C C5C 1_555 1_555
N3C Ag1 1_555 1_555
N3_2 Ag1C 1_555 1_555
N4C C19C 1_555 1_555
N4C_2 Ag1 1_555 1_555
N4_2 Ag1C 1_555 1_555
O1B Ag1C 1_555 1_555
H22A O1 1_555 1_555
H22C O1B 1_555 1_555
H22B O1B 1_555 1_555
C6 C7 1_555 1_555
C8 N2 1_555 1_555
C13 C14 1_555 1_555
C15 N2 1_555 1_555
C20 C21 1_555 1_555
C26 C27 1_555 1_555
C6C C7C 1_555 1_555
C8C N2C 1_555 1_555
C12C N3C 1_555 1_555
C13C C14C 1_555 1_555
C15C N2C 1_555 1_555
C20C C21C 1_555 1_555
C29A C30A 1_555 1_555

#END
