
#######################################################################
#
#                 Cambridge Crystallographic Data Centre
#                                CCDC 
#
#######################################################################
#
# If this CIF has been generated from an entry in the Cambridge 
# Structural Database, then it will include bibliographic, chemical, 
# crystal, experimental, refinement or atomic coordinate data resulting 
# from the CCDC's data processing and validation procedures.
#
#######################################################################

data_OKIKOJ
_symmetry_cell_setting           monoclinic
_symmetry_space_group_name_H-M   'P 21/n'
_symmetry_Int_Tables_number      14
_space_group_name_Hall           '-P 2yn'
loop_
_symmetry_equiv_pos_site_id
_symmetry_equiv_pos_as_xyz
1 x,y,z
2 1/2-x,1/2+y,1/2-z
3 -x,-y,-z
4 1/2+x,1/2-y,1/2+z
_cell_length_a                   10.5230(5)
_cell_length_b                   11.5968(6)
_cell_length_c                   50.242(3)
_cell_angle_alpha                90
_cell_angle_beta                 95.6970(10)
_cell_angle_gamma                90
_cell_volume                     6100.9
loop_
_atom_site_label
_atom_site_type_symbol
_atom_site_fract_x
_atom_site_fract_y
_atom_site_fract_z
Ag1 Ag 1.12501(10) 0.00536(11) 0.10456(2)
Ag2 Ag 0.85836(11) 0.07147(12) 0.08152(2)
Ag3 Ag 1.22595(10) -0.39634(9) -0.36701(2)
Ag4 Ag 1.56979(11) 0.17727(10) -0.12007(2)
C1 C 1.4059(12) 0.0976(11) 0.0936(2)
C2 C 1.4873(11) 0.1702(11) 0.0792(2)
C3 C 1.6006(11) 0.2172(11) 0.0911(3)
H1 H 1.6276 0.2013 0.1090
C4 C 1.6715(11) 0.2867(10) 0.0765(2)
H2 H 1.7485 0.3160 0.0844
C5 C 1.6319(11) 0.3147(10) 0.0503(2)
C6 C 1.5203(11) 0.2620(11) 0.0377(2)
H3 H 1.4957 0.2750 0.0197
C7 C 1.4491(11) 0.1918(10) 0.0523(3)
H4 H 1.3748 0.1583 0.0442
C8 C 1.7687(11) 0.4864(10) 0.0472(2)
C9 C 1.7224(12) 0.5452(11) 0.0685(3)
H5 H 1.6463 0.5223 0.0749
C10 C 1.7896(12) 0.6366(10) 0.0801(3)
H6 H 1.7602 0.6741 0.0946
C11 C 1.8982(12) 0.6728(10) 0.0704(3)
C12 C 1.9676(14) 0.7703(13) 0.0818(3)
C13 C 1.9453(15) 0.6149(12) 0.0495(3)
H7 H 2.0215 0.6387 0.0434
C14 C 1.8797(13) 0.5215(12) 0.0376(3)
H8 H 1.9108 0.4833 0.0233
C15 C 1.6999(11) 0.3764(11) 0.0075(2)
C16 C 1.6736(15) 0.4687(12) -0.0097(3)
H9 H 1.6558 0.5410 -0.0029
C17 C 1.6741(14) 0.4526(12) -0.0366(3)
H10 H 1.6556 0.5154 -0.0478
C18 C 1.6998(12) 0.3511(13) -0.0478(2)
C19 C 1.7273(14) 0.2548(13) -0.0306(3)
H11 H 1.7463 0.1831 -0.0375
C20 C 1.7250(12) 0.2702(11) -0.0032(2)
H12 H 1.7407 0.2074 0.0081
C21 C 1.7064(15) 0.3359(14) -0.0757(3)
C22 C 1.9671(11) 0.3539(11) -0.3196(3)
C23 C 2.0095(13) 0.3147(13) -0.2939(3)
H13 H 2.0824 0.3457 -0.2846
C24 C 1.9418(14) 0.2303(13) -0.2828(3)
H14 H 1.9717 0.2018 -0.2661
C25 C 1.8312(12) 0.1859(11) -0.2956(2)
C26 C 1.7865(11) 0.2286(10) -0.3210(2)
H15 H 1.7104 0.2012 -0.3297
C27 C 1.8565(11) 0.3116(11) -0.3329(2)
H16 H 1.8287 0.3388 -0.3499
C28 C 1.6892(12) 0.0138(10) -0.2982(2)
C29 C 1.5802(13) -0.0290(13) -0.2885(3)
H17 H 1.5550 -0.0013 -0.2725
C30 C 1.5094(13) -0.1119(15) -0.3025(3)
H18 H 1.4345 -0.1388 -0.2962
C31 C 1.5487(12) -0.1550(11) -0.3254(3)
C32 C 1.6554(12) -0.1135(11) -0.3352(3)
H19 H 1.6788 -0.1410 -0.3514
C33 C 1.7289(11) -0.0312(11) -0.3214(2)
H20 H 1.8045 -0.0060 -0.3276
C34 C 1.7552(12) 0.1064(11) -0.2555(2)
C35 C 1.8010(16) 0.0211(13) -0.2385(3)
H21 H 1.8419 -0.0416 -0.2455
C36 C 1.680(2) 0.2059(14) -0.2177(3)
H22 H 1.6363 0.2669 -0.2108
C37 C 1.697(2) 0.1990(13) -0.2450(3)
H23 H 1.6678 0.2590 -0.2563
C38 C 1.4693(14) -0.2429(14) -0.3407(3)
C39 C 1.7163(17) 0.1232(13) -0.1732(3)
C40 C 1.7319(14) 0.1172(12) -0.2013(3)
C41 C 1.7891(17) 0.0240(13) -0.2116(3)
H24 H 1.8195 -0.0364 -0.2005
C42 C 1.0409(15) 0.1285(15) 0.0429(3)
C43 C 1.083(2) 0.165(3) 0.0167(4)
C44 C 0.9465(13) 0.1261(13) 0.1418(3)
C45 C 0.9131(15) 0.1757(18) 0.1673(3)
C46 C 0.6053(13) -0.1149(12) 0.0725(2)
C47 C 0.6127(17) -0.1024(18) 0.0421(3)
C48 C 1.387(3) 0.505(2) -0.1484(5)
F1 F 1.1831(15) 0.133(3) 0.0111(3)
F2 F 1.099(4) 0.277(2) 0.0172(4)
F3 F 1.0039(13) 0.145(2) -0.0043(2)
F4 F 0.8046(13) 0.2066(18) 0.1692(3)
F5 F 0.919(3) 0.105(2) 0.1852(3)
F6 F 0.9848(16) 0.247(3) 0.1785(4)
F7 F 0.6239(17) -0.2010(13) 0.0310(2)
F8 F 0.5063(16) -0.0661(13) 0.0291(2)
F9 F 0.6928(19) -0.033(2) 0.0353(2)
F10 F 1.295(2) 0.5347(17) -0.1378(5)
F11 F 1.481(4) 0.5282(16) -0.1277(6)
F12 F 1.424(2) 0.5733(18) -0.1655(5)
N1 N 1.3394(11) 0.0464(11) 0.1051(2)
N2 N 1.7021(10) 0.3890(9) 0.0353(2)
N3 N 2.0215(13) 0.8489(12) 0.0905(3)
N4 N 1.7121(14) 0.3264(14) -0.0979(3)
N5 N 1.7633(11) 0.1009(9) -0.2833(2)
N6 N 1.4088(13) -0.3110(13) -0.3504(3)
N7 N 1.7020(17) 0.1275(12) -0.1512(3)
O1 O 1.1263(11) 0.0954(14) 0.0593(2)
O2 O 0.9277(11) 0.1366(11) 0.0445(2)
O3 O 1.0606(9) 0.1091(10) 0.13980(19)
O4 O 0.8538(8) 0.1028(8) 0.12562(17)
O5 O 0.6974(8) -0.0742(8) 0.08686(16)
O6 O 0.5089(10) -0.1562(10) 0.0786(2)
O7 O 1.3813(15) 0.3033(11) -0.1340(3)
O8 O 1.5144(16) 0.3472(17) -0.1659(5)
O9 O 1.281(2) 0.381(5) -0.1780(5)
S1 S 1.3968(7) 0.3654(6) -0.15818(16)
N8 N 2.0934(11) 0.5019(10) -0.3437(2)
C56 C 2.0403(12) 0.4399(13) -0.3329(3)
Ag1_2 Ag 2.12501(10) 1.00536(11) 0.10456(2)
Ag3A Ag 1.27405(10) 0.10366(9) -0.13299(2)
Ag3C Ag 0.72595(10) -0.10366(9) 0.13299(2)
Ag3_2 Ag 2.22595(10) 0.60366(9) -0.36701(2)
Ag4A Ag 0.93021(11) -0.32273(10) -0.37993(2)
Ag4B Ag 0.43021(11) -0.17727(10) 0.12007(2)
N3_2 N 1.0215(13) -0.1511(12) 0.0905(3)
O5C O 1.1974(8) -0.4258(8) -0.41314(16)
O6B O 1.4911(10) 0.1562(10) -0.0786(2)
O7A O 1.1187(15) -0.1967(11) -0.3660(3)
N8_2 N 1.0934(11) -0.4981(10) -0.3437(2)
C49 C 0.705(2) 0.472(2) 0.2361(6)
H25 H 0.6698 0.5301 0.2248
C50 C 0.782(2) 0.388(3) 0.2269(5)
H26 H 0.7995 0.3900 0.2091
C51 C 0.836(2) 0.300(2) 0.2430(6)
H27 H 0.8878 0.2446 0.2363
C52 C 0.809(2) 0.299(2) 0.2696(6)
H28 H 0.8446 0.2410 0.2809
C53 C 0.732(2) 0.381(2) 0.2799(5)
H29 H 0.7142 0.3787 0.2977
C54 C 0.681(2) 0.467(2) 0.2627(6)
H30 H 0.6286 0.5231 0.2693
C55 C 0.1032(14) 0.368(4) 0.0989(6)
H31 H 0.0835 0.2877 0.0951
H32 H 0.0853 0.4078 0.0819
Cl1 Cl 0.0012(8) 0.4062(8) 0.11446(19)
Cl2 Cl 0.2415(11) 0.3703(10) 0.1036(2)
loop_
_geom_bond_atom_site_label_1
_geom_bond_atom_site_label_2
_geom_bond_site_symmetry_1
_geom_bond_site_symmetry_2
Ag1 Ag2 1_555 1_555
Ag2 O2 1_555 1_555
Ag3 N6 1_555 1_555
Ag4 N4 1_555 1_555
C1 C2 1_555 1_555
C2 C3 1_555 1_555
C3 H1 1_555 1_555
C4 C3 1_555 1_555
H2 C4 1_555 1_555
C5 C4 1_555 1_555
C6 C5 1_555 1_555
H3 C6 1_555 1_555
C7 C2 1_555 1_555
H4 C7 1_555 1_555
C8 C9 1_555 1_555
C9 H5 1_555 1_555
C10 C9 1_555 1_555
H6 C10 1_555 1_555
C11 C10 1_555 1_555
C12 C11 1_555 1_555
C13 C11 1_555 1_555
H7 C13 1_555 1_555
C14 C8 1_555 1_555
H8 C14 1_555 1_555
C15 C16 1_555 1_555
C16 H9 1_555 1_555
C17 C16 1_555 1_555
H10 C17 1_555 1_555
C18 C17 1_555 1_555
C19 C18 1_555 1_555
H11 C19 1_555 1_555
C20 C15 1_555 1_555
H12 C20 1_555 1_555
C21 C18 1_555 1_555
C22 C23 1_555 1_555
C23 H13 1_555 1_555
C24 C23 1_555 1_555
H14 C24 1_555 1_555
C25 C24 1_555 1_555
C26 C25 1_555 1_555
H15 C26 1_555 1_555
C27 C22 1_555 1_555
H16 C27 1_555 1_555
C28 C29 1_555 1_555
C29 H17 1_555 1_555
C30 C29 1_555 1_555
H18 C30 1_555 1_555
C31 C30 1_555 1_555
C32 C31 1_555 1_555
H19 C32 1_555 1_555
C33 C28 1_555 1_555
H20 C33 1_555 1_555
C34 C35 1_555 1_555
C35 H21 1_555 1_555
C36 H22 1_555 1_555
C37 C34 1_555 1_555
H23 C37 1_555 1_555
C38 C31 1_555 1_555
C39 C40 1_555 1_555
C40 C36 1_555 1_555
C41 C35 1_555 1_555
H24 C41 1_555 1_555
C42 C43 1_555 1_555
C43 F1 1_555 1_555
C44 C45 1_555 1_555
C45 F4 1_555 1_555
C46 C47 1_555 1_555
C47 F7 1_555 1_555
C48 F10 1_555 1_555
C49 H25 1_555 1_555
C50 C49 1_555 1_555
H26 C50 1_555 1_555
C51 C50 1_555 1_555
H27 C51 1_555 1_555
C52 C51 1_555 1_555
H28 C52 1_555 1_555
C53 C52 1_555 1_555
H29 C53 1_555 1_555
C54 C49 1_555 1_555
H30 C54 1_555 1_555
C55 H31 1_555 1_555
H32 C55 1_555 1_555
Cl1 C55 1_555 1_555
Cl2 C55 1_555 1_555
F2 C43 1_555 1_555
F3 C43 1_555 1_555
F5 C45 1_555 1_555
F6 C45 1_555 1_555
F8 C47 1_555 1_555
F9 C47 1_555 1_555
F11 C48 1_555 1_555
F12 C48 1_555 1_555
N1 Ag1 1_555 1_555
N2 C5 1_555 1_555
N3 C12 1_555 1_555
N4 C21 1_555 1_555
N5 C25 1_555 1_555
N6 C38 1_555 1_555
N7 Ag4 1_555 1_555
O1 Ag1 1_555 1_555
O2 C42 1_555 1_555
O3 Ag1 1_555 1_555
O4 Ag2 1_555 1_555
O5 Ag2 1_555 1_555
O6 C46 1_555 1_555
O7 Ag4 1_555 1_555
O8 S1 1_555 1_555
O9 S1 1_555 1_555
S1 C48 1_555 1_555
N8 C56 1_555 1_555
C56 C22 1_555 1_555
Ag1_2 N3 1_555 1_555
Ag3A Ag4 1_555 1_555
Ag3C O5 1_555 1_555
Ag3_2 N8 1_555 1_555
Ag4A Ag3 1_555 1_555
Ag4B O6 1_555 1_555
N3_2 Ag1 1_555 1_555
O5C Ag3 1_555 1_555
O6B Ag4 1_555 1_555
O7A Ag3 1_555 1_555
N8_2 Ag3 1_555 1_555
C1 N1 1_555 1_555
C6 C7 1_555 1_555
C8 N2 1_555 1_555
C13 C14 1_555 1_555
C15 N2 1_555 1_555
C19 C20 1_555 1_555
C26 C27 1_555 1_555
C28 N5 1_555 1_555
C32 C33 1_555 1_555
C34 N5 1_555 1_555
C36 C37 1_555 1_555
C39 N7 1_555 1_555
C40 C41 1_555 1_555
C42 O1 1_555 1_555
C44 O3 1_555 1_555
C44 O4 1_555 1_555
C46 O5 1_555 1_555
C53 C54 1_555 1_555
O7 S1 1_555 1_555
O7 Ag3A 1_555 1_555
Ag3C Ag4B 1_555 1_555
Ag4A O7A 1_555 1_555

#END
