
#######################################################################
#
#                 Cambridge Crystallographic Data Centre
#                                CCDC 
#
#######################################################################
#
# If this CIF has been generated from an entry in the Cambridge 
# Structural Database, then it will include bibliographic, chemical, 
# crystal, experimental, refinement or atomic coordinate data resulting 
# from the CCDC's data processing and validation procedures.
#
#######################################################################

data_OKIKAV
_symmetry_cell_setting           orthorhombic
_symmetry_space_group_name_H-M   'P n c 2'
_symmetry_Int_Tables_number      30
_space_group_name_Hall           'P 2 -2bc'
loop_
_symmetry_equiv_pos_site_id
_symmetry_equiv_pos_as_xyz
1 x,y,z
2 -x,-y,z
3 x,1/2-y,1/2+z
4 -x,1/2+y,1/2+z
_cell_length_a                   9.8704(6)
_cell_length_b                   26.3900(16)
_cell_length_c                   12.1381(7)
_cell_angle_alpha                90
_cell_angle_beta                 90
_cell_angle_gamma                90
_cell_volume                     3161.73
loop_
_atom_site_label
_atom_site_type_symbol
_atom_site_fract_x
_atom_site_fract_y
_atom_site_fract_z
Ag1 Ag 0.28952(9) 0.01064(2) -0.0026(5)
C1 C 0.2476(13) -0.1142(4) 0.0194(13)
C2 C 0.2387(12) -0.1695(3) 0.0195(11)
C3 C 0.2103(16) -0.1938(5) -0.0757(11)
H1 H 0.1919 -0.1755 -0.1394
C4 C 0.2088(13) -0.2460(5) -0.0775(11)
H2 H 0.1900 -0.2629 -0.1429
C5 C 0.2349(9) -0.2731(3) 0.0164(10)
C6 C 0.2650(14) -0.2493(4) 0.1104(10)
H3 H 0.2862 -0.2679 0.1732
C7 C 0.2645(15) -0.1965(4) 0.1140(11)
H4 H 0.2815 -0.1797 0.1798
C8 C 0.3149(9) -0.3538(3) -0.0656(9)
C9 C 0.4356(10) -0.3340(4) -0.0979(10)
H5 H 0.4661 -0.3043 -0.0650
C10 C 0.5110(10) -0.3557(4) -0.1746(10)
H6 H 0.5911 -0.3404 -0.1977
C11 C 0.4670(10) -0.4043(4) -0.2232(10)
C12 C 0.5481(11) -0.4298(4) -0.2988(10)
C13 C 0.3432(9) -0.4238(4) -0.1883(9)
H7 H 0.3106 -0.4539 -0.2178
C14 C 0.2688(11) -0.3981(4) -0.1095(10)
H8 H 0.1862 -0.4113 -0.0862
C15 C 0.1586(9) -0.3537(3) 0.0949(9)
C16 C 0.2091(9) -0.3987(4) 0.1408(10)
H9 H 0.2918 -0.4117 0.1174
C17 C 0.1367(10) -0.4230(3) 0.2194(9)
H10 H 0.1701 -0.4529 0.2498
C18 C 0.0137(10) -0.4039(4) 0.2547(10)
C19 C -0.0386(10) -0.3608(4) 0.2133(10)
H11 H -0.1204 -0.3481 0.2394
C20 C 0.0345(10) -0.3348(4) 0.1283(10)
H12 H -0.0009 -0.3057 0.0962
C28 C -0.0708(11) -0.4337(4) 0.3336(10)
N1 N 0.2476(12) -0.0721(3) 0.0242(11)
N2 N 0.6120(10) -0.4506(4) -0.3622(10)
N3 N -0.1305(10) -0.4539(3) 0.3945(10)
N4 N 0.2324(8) -0.3277(2) 0.0135(10)
O1 O 0.5000 0.0000 -0.1109(14)
H21 H 0.5106 0.0294 -0.1582
Ag1C Ag 0.71048(9) 0.51064(2) 0.4974(5)
Ag1C_2 Ag 0.71048(9) -0.48936(2) -0.5026(5)
Ag1C_3 Ag -0.28952(9) -0.48936(2) 0.4974(5)
Ag1A Ag 0.71048(9) -0.01064(2) -0.0026(5)
Ag1_2 Ag 1.28952(9) 0.01064(2) 0.9974(5)
C1C C 0.7524(13) 0.3858(4) 0.5194(13)
C2C C 0.7613(12) 0.3305(3) 0.5195(11)
C3C C 0.7897(16) 0.3062(5) 0.4243(11)
H1C H 0.8081 0.3245 0.3606
C4C C 0.7912(13) 0.2540(5) 0.4225(11)
H2C H 0.8100 0.2371 0.3571
C5C C 0.7651(9) 0.2269(3) 0.5164(10)
C6C C 0.7350(14) 0.2507(4) 0.6104(10)
H3C H 0.7138 0.2321 0.6732
C7C C 0.7355(15) 0.3035(4) 0.6140(11)
H4C H 0.7185 0.3203 0.6798
C8C C 0.6851(9) 0.1462(3) 0.4344(9)
C9C C 0.5644(10) 0.1660(4) 0.4021(10)
H5C H 0.5339 0.1957 0.4350
C10C C 0.4890(10) 0.1443(4) 0.3254(10)
H6C H 0.4089 0.1596 0.3023
C11C C 0.5330(10) 0.0957(4) 0.2768(10)
C12C C 0.4519(11) 0.0702(4) 0.2012(10)
C13C C 0.6568(9) 0.0762(4) 0.3117(9)
H7C H 0.6894 0.0461 0.2822
C14C C 0.7312(11) 0.1019(4) 0.3905(10)
H8C H 0.8138 0.0887 0.4138
C15C C 0.8414(9) 0.1463(3) 0.5949(9)
C16C C 0.7909(9) 0.1013(4) 0.6408(10)
H9C H 0.7082 0.0883 0.6174
C17C C 0.8633(10) 0.0770(3) 0.7194(9)
H10C H 0.8299 0.0471 0.7498
C18C C 0.9863(10) 0.0961(4) 0.7547(10)
C19C C 1.0386(10) 0.1392(4) 0.7133(10)
H11C H 1.1204 0.1519 0.7394
C20C C 0.9655(10) 0.1652(4) 0.6283(10)
H12C H 1.0009 0.1943 0.5962
C28C C 1.0708(11) 0.0663(4) 0.8336(10)
N1C N 0.7524(12) 0.4279(3) 0.5242(11)
N2C N 0.3880(10) 0.0494(4) 0.1378(10)
N2_2 N 0.6120(10) 0.5494(4) 0.6378(10)
N3C N 1.1305(10) 0.0461(3) 0.8945(10)
N3C_2 N 0.1305(10) 0.0461(3) -0.1055(10)
N3_2 N 0.8695(10) 0.5461(3) 0.3945(10)
N4C N 0.7676(8) 0.1723(2) 0.5135(10)
O1B O 0.5000 0.5000 0.3891(14)
H21A H 0.4894 -0.0294 -0.1582
H21C H 0.4894 0.5294 0.3418
H21B H 0.5106 0.4706 0.3418
C21 C 0.346(2) 0.2637(16) 0.546(3)
C22 C 0.2507(16) 0.2828(9) 0.6316(16)
C23 C 0.181(2) 0.3254(9) 0.5989(12)
H16 H 0.1955 0.3392 0.5295
C24 C 0.089(2) 0.3474(6) 0.670(2)
H17 H 0.0417 0.3761 0.6478
C25 C 0.0678(19) 0.3270(9) 0.773(2)
H18 H 0.0061 0.3420 0.8207
C26 C 0.138(2) 0.2846(9) 0.8044(11)
H19 H 0.1231 0.2708 0.8738
C27 C 0.2290(18) 0.2625(6) 0.734(2)
H20 H 0.2762 0.2337 0.7556
Cl1 Cl 0.5385(6) 0.8629(3) 0.7772(9)
O2 O 0.6639(14) 0.8558(8) 0.8325(16)
O3 O 0.473(2) 0.8140(6) 0.761(3)
O4 O 0.562(3) 0.8848(12) 0.6697(14)
O5 O 0.4490(19) 0.8942(8) 0.8395(18)
O6 O 1.0000 0.5000 0.951(2)
H22 H 1.0417 0.5166 0.9018
H22A H 0.9583 0.4834 0.9018
H13? H 0.3016 0.2379 0.5028
H14? H 0.4247 0.2497 0.5804
H15? H 0.3720 0.2911 0.4983
H23? H 1.0338 0.4974 1.0156
loop_
_geom_bond_atom_site_label_1
_geom_bond_atom_site_label_2
_geom_bond_site_symmetry_1
_geom_bond_site_symmetry_2
Ag1 N1 1_555 1_555
C1 C2 1_555 1_555
C2 C3 1_555 1_555
C3 H1 1_555 1_555
C4 C3 1_555 1_555
H2 C4 1_555 1_555
C5 C4 1_555 1_555
C6 C5 1_555 1_555
H3 C6 1_555 1_555
C7 C2 1_555 1_555
H4 C7 1_555 1_555
C8 C9 1_555 1_555
C9 H5 1_555 1_555
C10 C9 1_555 1_555
H6 C10 1_555 1_555
C11 C10 1_555 1_555
C12 C11 1_555 1_555
C13 C11 1_555 1_555
H7 C13 1_555 1_555
C14 C8 1_555 1_555
H8 C14 1_555 1_555
C15 C16 1_555 1_555
C16 H9 1_555 1_555
C17 C16 1_555 1_555
H10 C17 1_555 1_555
C18 C17 1_555 1_555
C19 C18 1_555 1_555
H11 C19 1_555 1_555
C20 C15 1_555 1_555
H12 C20 1_555 1_555
C21 C22 1_555 1_555
C22 C23 1_555 1_555
C23 H16 1_555 1_555
C24 C23 1_555 1_555
H17 C24 1_555 1_555
C25 C24 1_555 1_555
H18 C25 1_555 1_555
C26 C25 1_555 1_555
H19 C26 1_555 1_555
C27 C22 1_555 1_555
H20 C27 1_555 1_555
C28 C18 1_555 1_555
Cl1 O2 1_555 1_555
N1 C1 1_555 1_555
N2 C12 1_555 1_555
N3 C28 1_555 1_555
N4 C5 1_555 1_555
O1 Ag1 1_555 1_555
H21 O1 1_555 1_555
O3 Cl1 1_555 1_555
O4 Cl1 1_555 1_555
O5 Cl1 1_555 1_555
O6 H22 1_555 1_555
Ag1C N1C 1_555 1_555
Ag1C_2 N2 1_555 1_555
Ag1C_3 N3 1_555 1_555
Ag1A O1 1_555 1_555
Ag1_2 N3C 1_555 1_555
C1C C2C 1_555 1_555
C2C C3C 1_555 1_555
C3C H1C 1_555 1_555
C4C C3C 1_555 1_555
H2C C4C 1_555 1_555
C5C C4C 1_555 1_555
C6C C5C 1_555 1_555
H3C C6C 1_555 1_555
C7C C2C 1_555 1_555
H4C C7C 1_555 1_555
C8C C9C 1_555 1_555
C9C H5C 1_555 1_555
C10C C9C 1_555 1_555
H6C C10C 1_555 1_555
C11C C10C 1_555 1_555
C12C C11C 1_555 1_555
C13C C11C 1_555 1_555
H7C C13C 1_555 1_555
C14C C8C 1_555 1_555
H8C C14C 1_555 1_555
C15C C16C 1_555 1_555
C16C H9C 1_555 1_555
C17C C16C 1_555 1_555
H10C C17C 1_555 1_555
C18C C17C 1_555 1_555
C19C C18C 1_555 1_555
H11C C19C 1_555 1_555
C20C C15C 1_555 1_555
H12C C20C 1_555 1_555
C28C C18C 1_555 1_555
N1C C1C 1_555 1_555
N2C Ag1 1_555 1_555
N2_2 Ag1C 1_555 1_555
N3C C28C 1_555 1_555
N3C_2 Ag1 1_555 1_555
N3_2 Ag1C 1_555 1_555
N4C C5C 1_555 1_555
O1B Ag1C 1_555 1_555
H21A O1 1_555 1_555
H21C O1B 1_555 1_555
H21B O1B 1_555 1_555
H22A O6 1_555 1_555
C6 C7 1_555 1_555
C8 N4 1_555 1_555
C13 C14 1_555 1_555
C15 N4 1_555 1_555
C19 C20 1_555 1_555
C26 C27 1_555 1_555
C6C C7C 1_555 1_555
C8C N4C 1_555 1_555
C12C N2C 1_555 1_555
C13C C14C 1_555 1_555
C15C N4C 1_555 1_555
C19C C20C 1_555 1_555

#END
