
#######################################################################
#
#                 Cambridge Crystallographic Data Centre
#                                CCDC 
#
#######################################################################
#
# If this CIF has been generated from an entry in the Cambridge 
# Structural Database, then it will include bibliographic, chemical, 
# crystal, experimental, refinement or atomic coordinate data resulting 
# from the CCDC's data processing and validation procedures.
#
#######################################################################

data_OKIKEZ
_symmetry_cell_setting           orthorhombic
_symmetry_space_group_name_H-M   'P n c 2'
_symmetry_Int_Tables_number      30
_space_group_name_Hall           'P 2 -2bc'
loop_
_symmetry_equiv_pos_site_id
_symmetry_equiv_pos_as_xyz
1 x,y,z
2 -x,-y,z
3 x,1/2-y,1/2+z
4 -x,1/2+y,1/2+z
_cell_length_a                   10.0613(8)
_cell_length_b                   26.359(2)
_cell_length_c                   11.9930(9)
_cell_angle_alpha                90
_cell_angle_beta                 90
_cell_angle_gamma                90
_cell_volume                     3180.61
loop_
_atom_site_label
_atom_site_type_symbol
_atom_site_fract_x
_atom_site_fract_y
_atom_site_fract_z
Ag1 Ag 0.28749(4) 0.487242(12) 0.78489(8)
C1 C 0.2421(6) 0.61359(19) 0.7679(6)
C2 C 0.2374(5) 0.66842(16) 0.7711(6)
C3 C 0.2048(7) 0.6924(3) 0.8695(6)
H1 H 0.1903 0.6738 0.9341
C4 C 0.1941(7) 0.7444(2) 0.8706(5)
H2 H 0.1680 0.7608 0.9356
C5 C 0.2216(5) 0.77251(14) 0.7761(7)
C6 C 0.2571(7) 0.7486(2) 0.6801(5)
H3 H 0.2765 0.7674 0.6164
C7 C 0.2641(8) 0.6958(2) 0.6780(6)
H4 H 0.2871 0.6793 0.6123
C8 C 0.2994(5) 0.85184(17) 0.8572(4)
C9 C 0.4215(5) 0.83225(17) 0.8855(4)
H5 H 0.4489 0.8016 0.8546
C10 C 0.5022(6) 0.8568(2) 0.9576(5)
H6 H 0.5850 0.8433 0.9751
C11 C 0.4615(6) 0.90274(19) 1.0063(4)
C12 C 0.3380(6) 0.92254(19) 0.9798(4)
H7 H 0.3101 0.9529 1.0117
C13 C 0.2568(6) 0.8973(2) 0.9067(5)
H8 H 0.1734 0.9104 0.8897
C14 C 0.5497(6) 0.9294(2) 1.0805(5)
C15 C 0.1443(5) 0.85303(16) 0.6971(4)
C16 C 0.1911(5) 0.8984(2) 0.6543(5)
H9 H 0.2704 0.9119 0.6810
C17 C 0.1226(5) 0.92367(18) 0.5737(4)
H10 H 0.1545 0.9544 0.5465
C18 C 0.0049(5) 0.90349(18) 0.5321(5)
C19 C -0.0436(6) 0.8579(2) 0.5738(5)
H11 H -0.1223 0.8442 0.5465
C20 C 0.0265(6) 0.83326(18) 0.6560(5)
H12 H -0.0057 0.8028 0.6846
C21 C -0.0697(6) 0.9297(2) 0.4487(5)
N1 N 0.2452(6) 0.57103(16) 0.7626(6)
N2 N 0.2157(4) 0.82668(11) 0.7805(6)
N3 N 0.6171(6) 0.9504(2) 1.1398(5)
N4 N -0.1269(5) 0.95086(18) 0.3828(5)
O1 O 0.5000 0.5000 0.8796(5)
H22 H 0.4961 0.5268 0.9190
Ag1C Ag 0.71251(4) -0.012758(12) 0.28489(8)
Ag1C_2 Ag 0.71251(4) 0.987242(12) 1.28489(8)
Ag1C_3 Ag -0.28749(4) 0.987242(12) 0.28489(8)
Ag1A Ag 0.71251(4) 0.512758(12) 0.78489(8)
Ag1_2 Ag 1.28749(4) 0.487242(12) -0.21511(8)
C1C C 0.7579(6) 0.11359(19) 0.2679(6)
C2C C 0.7626(5) 0.16842(16) 0.2711(6)
C3C C 0.7952(7) 0.1924(3) 0.3695(6)
H1C H 0.8097 0.1738 0.4341
C4C C 0.8059(7) 0.2444(2) 0.3706(5)
H2C H 0.8320 0.2608 0.4356
C5C C 0.7784(5) 0.27251(14) 0.2761(7)
C6C C 0.7429(7) 0.2486(2) 0.1801(5)
H3C H 0.7235 0.2674 0.1164
C7C C 0.7359(8) 0.1958(2) 0.1780(6)
H4C H 0.7129 0.1793 0.1123
C8C C 0.7006(5) 0.35184(17) 0.3572(4)
C9C C 0.5785(5) 0.33225(17) 0.3855(4)
H5C H 0.5511 0.3016 0.3546
C10C C 0.4978(6) 0.3568(2) 0.4576(5)
H6C H 0.4150 0.3433 0.4751
C11C C 0.5385(6) 0.40274(19) 0.5063(4)
C12C C 0.6620(6) 0.42254(19) 0.4798(4)
H7C H 0.6899 0.4529 0.5117
C13C C 0.7432(6) 0.3973(2) 0.4067(5)
H8C H 0.8266 0.4104 0.3897
C14C C 0.4503(6) 0.4294(2) 0.5805(5)
C15C C 0.8557(5) 0.35303(16) 0.1971(4)
C16C C 0.8089(5) 0.3984(2) 0.1543(5)
H9C H 0.7296 0.4119 0.1810
C17C C 0.8774(5) 0.42367(18) 0.0737(4)
H10C H 0.8455 0.4544 0.0465
C18C C 0.9951(5) 0.40349(18) 0.0321(5)
C19C C 1.0436(6) 0.3579(2) 0.0738(5)
H11C H 1.1223 0.3442 0.0465
C20C C 0.9735(6) 0.33326(18) 0.1560(5)
H12C H 1.0057 0.3028 0.1846
C21C C 1.0697(6) 0.4297(2) -0.0513(5)
N1C N 0.7548(6) 0.07103(16) 0.2626(6)
N2C N 0.7843(4) 0.32668(11) 0.2805(6)
N3C N 0.3829(6) 0.4504(2) 0.6398(5)
N3_2 N 0.6171(6) -0.0496(2) 0.1398(5)
N4C N 1.1269(5) 0.45086(18) -0.1172(5)
N4C_2 N 0.1269(5) 0.45086(18) 0.8828(5)
N4_2 N 0.8731(5) -0.04914(18) 0.3828(5)
O1B O 0.5000 0.0000 0.3796(5)
H22A H 0.5039 0.4732 0.9190
H22C H 0.5039 0.0268 0.4190
H22B H 0.4961 -0.0268 0.4190
C22 C 0.6112(8) 0.9149(4) 0.6532(7)
F1 F 0.6817(6) 0.9531(3) 0.6172(6)
F2 F 0.6929(6) 0.8878(3) 0.7164(5)
F3 F 0.5218(5) 0.9339(2) 0.7255(5)
O2 O 0.4703(6) 0.83793(19) 0.6015(6)
O3 O 0.6478(6) 0.8633(3) 0.4779(5)
O4 O 0.4493(6) 0.9137(2) 0.4939(5)
S1 S 0.53564(19) 0.87763(8) 0.54451(19)
C23 C 0.6938(18) 0.7237(9) 0.672(2)
H13 H 0.6254 0.7387 0.7128
C24 C 0.767(2) 0.6831(9) 0.7089(13)
H14 H 0.7461 0.6703 0.7789
C25 C 0.8689(19) 0.6594(5) 0.652(2)
H15 H 0.9146 0.6319 0.6821
C26 C 0.8988(13) 0.6787(8) 0.549(2)
H16 H 0.9669 0.6637 0.5081
C27 C 0.833(2) 0.7191(8) 0.5028(15)
H17 H 0.8532 0.7318 0.4325
C28 C 0.7332(19) 0.7397(5) 0.568(2)
H18 H 0.6882 0.7675 0.5390
C29 C 0.9526(11) 0.9827(5) 1.0225(11)
H19 H 0.9207 0.9702 1.0899
C30 C 0.9010(11) 0.9650(4) 0.9254(13)
H20 H 0.8326 0.9413 0.9254
C31 C 0.9514(9) 0.9827(3) 0.8296(10)
H21 H 0.9184 0.9707 0.7622
C29A C 1.0474(11) 1.0173(5) 1.0225(11)
H19A H 1.0793 1.0298 1.0899
C30A C 1.0990(11) 1.0350(4) 0.9254(13)
H20A H 1.1674 1.0587 0.9254
C31A C 1.0486(9) 1.0173(3) 0.8296(10)
H21A H 1.0816 1.0293 0.7622
loop_
_geom_bond_atom_site_label_1
_geom_bond_atom_site_label_2
_geom_bond_site_symmetry_1
_geom_bond_site_symmetry_2
Ag1 N1 1_555 1_555
C1 C2 1_555 1_555
C2 C3 1_555 1_555
C3 H1 1_555 1_555
C4 C3 1_555 1_555
H2 C4 1_555 1_555
C5 C4 1_555 1_555
C6 C5 1_555 1_555
H3 C6 1_555 1_555
C7 C2 1_555 1_555
H4 C7 1_555 1_555
C8 C9 1_555 1_555
C9 H5 1_555 1_555
C10 C9 1_555 1_555
H6 C10 1_555 1_555
C11 C10 1_555 1_555
C12 C11 1_555 1_555
H7 C12 1_555 1_555
C13 C8 1_555 1_555
H8 C13 1_555 1_555
C14 C11 1_555 1_555
C15 C16 1_555 1_555
C16 H9 1_555 1_555
C17 C16 1_555 1_555
H10 C17 1_555 1_555
C18 C17 1_555 1_555
C19 C18 1_555 1_555
H11 C19 1_555 1_555
C20 C15 1_555 1_555
H12 C20 1_555 1_555
C21 C18 1_555 1_555
C22 F1 1_555 1_555
C23 H13 1_555 1_555
C24 C23 1_555 1_555
H14 C24 1_555 1_555
C25 C24 1_555 1_555
H15 C25 1_555 1_555
C26 C25 1_555 1_555
H16 C26 1_555 1_555
C27 C26 1_555 1_555
H17 C27 1_555 1_555
C28 C23 1_555 1_555
H18 C28 1_555 1_555
C29 H19 1_555 1_555
C30 C29 1_555 1_555
H20 C30 1_555 1_555
C31 C30 1_555 1_555
H21 C31 1_555 1_555
F2 C22 1_555 1_555
F3 C22 1_555 1_555
N1 C1 1_555 1_555
N2 C5 1_555 1_555
N3 C14 1_555 1_555
N4 C21 1_555 1_555
O1 Ag1 1_555 1_555
H22 O1 1_555 1_555
O2 S1 1_555 1_555
O3 S1 1_555 1_555
O4 S1 1_555 1_555
S1 C22 1_555 1_555
Ag1C N1C 1_555 1_555
Ag1C_2 N3 1_555 1_555
Ag1C_3 N4 1_555 1_555
Ag1A O1 1_555 1_555
Ag1_2 N4C 1_555 1_555
C1C C2C 1_555 1_555
C2C C3C 1_555 1_555
C3C H1C 1_555 1_555
C4C C3C 1_555 1_555
H2C C4C 1_555 1_555
C5C C4C 1_555 1_555
C6C C5C 1_555 1_555
H3C C6C 1_555 1_555
C7C C2C 1_555 1_555
H4C C7C 1_555 1_555
C8C C9C 1_555 1_555
C9C H5C 1_555 1_555
C10C C9C 1_555 1_555
H6C C10C 1_555 1_555
C11C C10C 1_555 1_555
C12C C11C 1_555 1_555
H7C C12C 1_555 1_555
C13C C8C 1_555 1_555
H8C C13C 1_555 1_555
C14C C11C 1_555 1_555
C15C C16C 1_555 1_555
C16C H9C 1_555 1_555
C17C C16C 1_555 1_555
H10C C17C 1_555 1_555
C18C C17C 1_555 1_555
C19C C18C 1_555 1_555
H11C C19C 1_555 1_555
C20C C15C 1_555 1_555
H12C C20C 1_555 1_555
C21C C18C 1_555 1_555
C29A C29 1_555 1_555
H19A C29A 1_555 1_555
C30A C29A 1_555 1_555
H20A C30A 1_555 1_555
C31A C31 1_555 1_555
H21A C31A 1_555 1_555
N1C C1C 1_555 1_555
N2C C5C 1_555 1_555
N3C Ag1 1_555 1_555
N3_2 Ag1C 1_555 1_555
N4C C21C 1_555 1_555
N4C_2 Ag1 1_555 1_555
N4_2 Ag1C 1_555 1_555
O1B Ag1C 1_555 1_555
H22A O1 1_555 1_555
H22C O1B 1_555 1_555
H22B O1B 1_555 1_555
C6 C7 1_555 1_555
C8 N2 1_555 1_555
C12 C13 1_555 1_555
C15 N2 1_555 1_555
C19 C20 1_555 1_555
C27 C28 1_555 1_555
C6C C7C 1_555 1_555
C8C N2C 1_555 1_555
C12C C13C 1_555 1_555
C14C N3C 1_555 1_555
C15C N2C 1_555 1_555
C19C C20C 1_555 1_555
C30A C31A 1_555 1_555

#END
