
#######################################################################
#
#                 Cambridge Crystallographic Data Centre
#                                CCDC 
#
#######################################################################
#
# If this CIF has been generated from an entry in the Cambridge 
# Structural Database, then it will include bibliographic, chemical, 
# crystal, experimental, refinement or atomic coordinate data resulting 
# from the CCDC's data processing and validation procedures.
#
#######################################################################

data_OKINUS
_symmetry_cell_setting           triclinic
_symmetry_space_group_name_H-M   'P -1'
_symmetry_Int_Tables_number      2
_space_group_name_Hall           '-P 1'
loop_
_symmetry_equiv_pos_site_id
_symmetry_equiv_pos_as_xyz
1 x,y,z
2 -x,-y,-z
_cell_length_a                   8.0763(6)
_cell_length_b                   9.5108(6)
_cell_length_c                   10.4739(9)
_cell_angle_alpha                105.160(4)
_cell_angle_beta                 91.515(5)
_cell_angle_gamma                94.437(4)
_cell_volume                     773.286
loop_
_atom_site_label
_atom_site_type_symbol
_atom_site_fract_x
_atom_site_fract_y
_atom_site_fract_z
K1 K 0.17914(5) 0.26417(5) 0.24554(4)
K2 K -0.29411(5) 0.20697(5) 0.32550(5)
O1 O -0.03218(17) 0.01399(15) 0.25040(15)
O2 O -0.09860(16) -0.14089(15) 0.37074(14)
H1 H -0.1779 -0.0724 0.4158
O3 O 0.36286(17) 0.09825(14) 0.37274(13)
O4 O 0.27127(16) -0.04361(15) 0.50018(13)
O5 O 0.47852(15) -0.29503(15) -0.15130(13)
O6 O 0.67719(15) -0.32328(14) -0.01310(13)
O7 O 0.10492(16) -0.38960(15) -0.20201(14)
O8 O 0.24424(15) -0.56900(14) -0.16693(13)
H2 H 0.2812 -0.6046 -0.0906
O9 O 0.00051(17) 0.32853(16) 0.47460(15)
H3 H 0.0244 0.2766 0.5347
H4 H -0.0545 0.3903 0.5221
O10 O 0.29560(17) 0.53030(16) 0.43164(16)
H5 H 0.3133 0.4724 0.4880
H6 H 0.3972 0.5678 0.4117
C1 C 0.1121(2) -0.2064(2) 0.22081(19)
H9 H 0.0780 -0.2993 0.2405
C2 C 0.2977(2) -0.1612(2) 0.27564(19)
H10 H 0.3333 -0.2406 0.3107
C3 C 0.4080(2) -0.1544(2) 0.15850(18)
H11 H 0.5225 -0.1180 0.1903
C4 C 0.4015(2) -0.3131(2) 0.06578(18)
H12 H 0.4400 -0.3770 0.1181
C5 C 0.2155(2) -0.3646(2) 0.01963(18)
H13 H 0.1803 -0.4373 0.0669
C6 C 0.1075(2) -0.2356(2) 0.06813(19)
H14 H -0.0068 -0.2616 0.0308
C7 C -0.0120(2) -0.0988(2) 0.28169(19)
C8 C 0.3148(2) -0.0234(2) 0.38975(19)
C9 C 0.5238(2) -0.31271(19) -0.04374(19)
C10 C 0.1862(2) -0.4402(2) -0.12647(19)
C11 C 0.1825(2) -0.1023(2) 0.03214(19)
H15 H 0.1260 -0.0548 -0.0205
C12 C 0.3359(2) -0.0581(2) 0.08174(19)
H16 H 0.3942 0.0255 0.0702
K1A K 0.82086(5) -0.26417(5) -0.24554(4)
K1A_2 K -0.17914(5) -0.26417(5) -0.24554(4)
K2_2 K 0.70589(5) 0.20697(5) 0.32550(5)
K2A K 0.29411(5) -0.20697(5) 0.67450(5)
K2A_2 K 0.29411(5) -0.20697(5) -0.32550(5)
K2A_3 K 0.29411(5) 0.79303(5) 0.67450(5)
O3_2 O -0.63714(17) 0.09825(14) 0.37274(13)
O4A O -0.27127(16) 0.04361(15) 0.49982(13)
O5A O 0.52148(15) 0.29503(15) 0.15130(13)
O5A_2 O -0.47852(15) 0.29503(15) 0.15130(13)
O6A O 0.32281(15) 0.32328(14) 0.01310(13)
O7A O -0.10492(16) 0.38960(15) 0.20201(14)
O10A O -0.29560(17) 0.46970(16) 0.56836(16)
H5A H -0.3133 0.5276 0.5120
H6A H -0.3972 0.4322 0.5883
O11 O 0.39228(16) 0.34514(15) 0.58645(14)
H7 H 0.3672 0.2568 0.5371
H8 H 0.3308 0.3565 0.6587
loop_
_geom_bond_atom_site_label_1
_geom_bond_atom_site_label_2
_geom_bond_site_symmetry_1
_geom_bond_site_symmetry_2
K1 O1 1_555 1_555
K2 O1 1_555 1_555
O1 C7 1_555 1_555
O2 H1 1_555 1_555
O3 K1 1_555 1_555
O4 C8 1_555 1_555
O5 C9 1_555 1_555
O6 C9 1_555 1_555
O7 C10 1_555 1_555
O8 H2 1_555 1_555
O9 K1 1_555 1_555
H3 O9 1_555 1_555
H4 O9 1_555 1_555
O10 K1 1_555 1_555
H5 O10 1_555 1_555
H6 O10 1_555 1_555
O11 H7 1_555 1_555
H8 O11 1_555 1_555
C1 H9 1_555 1_555
C2 C1 1_555 1_555
H10 C2 1_555 1_555
C3 C2 1_555 1_555
H11 C3 1_555 1_555
C4 C3 1_555 1_555
H12 C4 1_555 1_555
C5 C4 1_555 1_555
H13 C5 1_555 1_555
C6 C1 1_555 1_555
H14 C6 1_555 1_555
C7 O2 1_555 1_555
C8 O3 1_555 1_555
C9 C4 1_555 1_555
C10 O8 1_555 1_555
C11 C6 1_555 1_555
H15 C11 1_555 1_555
C12 C3 1_555 1_555
H16 C12 1_555 1_555
K1A O5 1_555 1_555
K1A_2 O7 1_555 1_555
K2_2 O3 1_555 1_555
K2A O4 1_555 1_555
K2A_2 O5 1_555 1_555
K2A_3 O10 1_555 1_555
O3_2 K2 1_555 1_555
O4A K2 1_555 1_555
O5A K1 1_555 1_555
O5A_2 K2 1_555 1_555
O6A K1 1_555 1_555
O7A K1 1_555 1_555
O10A K2 1_555 1_555
H5A O10A 1_555 1_555
H6A O10A 1_555 1_555
K2 O9 1_555 1_555
K2 O7A 1_555 1_555
O6 K1A 1_555 1_555
O7 K2A_2 1_555 1_555
C1 C7 1_555 1_555
C2 C8 1_555 1_555
C5 C6 1_555 1_555
C5 C10 1_555 1_555
C11 C12 1_555 1_555
K2_2 O5A 1_555 1_555

#END
