
#######################################################################
#
#                 Cambridge Crystallographic Data Centre
#                                CCDC 
#
#######################################################################
#
# If this CIF has been generated from an entry in the Cambridge 
# Structural Database, then it will include bibliographic, chemical, 
# crystal, experimental, refinement or atomic coordinate data resulting 
# from the CCDC's data processing and validation procedures.
#
#######################################################################

data_OKIPUU
_symmetry_cell_setting           tetragonal
_symmetry_space_group_name_H-M   'I 41/a c d'
_symmetry_Int_Tables_number      142
_space_group_name_Hall           '-I 4bd 2c'
loop_
_symmetry_equiv_pos_site_id
_symmetry_equiv_pos_as_xyz
1 x,y,z
2 1/4-y,3/4+x,1/4+z
3 -x,1/2-y,z
4 1/4+y,1/4-x,3/4+z
5 x,-y,1/2-z
6 1/2-x,y,-z
7 3/4+y,1/4+x,1/4-z
8 1/4-y,1/4-x,1/4-z
9 1/2+x,1/2+y,1/2+z
10 3/4-y,1/4+x,3/4+z
11 1/2-x,-y,1/2+z
12 3/4+y,3/4-x,1/4+z
13 1/2+x,1/2-y,-z
14 -x,1/2+y,1/2-z
15 1/4+y,3/4+x,3/4-z
16 3/4-y,3/4-x,3/4-z
17 -x,-y,-z
18 3/4+y,1/4-x,3/4-z
19 x,1/2+y,-z
20 3/4-y,3/4+x,1/4-z
21 -x,y,1/2+z
22 1/2+x,-y,z
23 1/4-y,3/4-x,3/4+z
24 3/4+y,3/4+x,3/4+z
25 1/2-x,1/2-y,1/2-z
26 1/4+y,3/4-x,1/4-z
27 1/2+x,y,1/2-z
28 1/4-y,1/4+x,3/4-z
29 1/2-x,1/2+y,z
30 x,1/2-y,1/2+z
31 3/4-y,1/4-x,1/4+z
32 1/4+y,1/4+x,1/4+z
_cell_length_a                   18.903(3)
_cell_length_b                   18.903(3)
_cell_length_c                   62.293(9)
_cell_angle_alpha                90
_cell_angle_beta                 90
_cell_angle_gamma                90
_cell_volume                     22258.7
loop_
_atom_site_label
_atom_site_type_symbol
_atom_site_fract_x
_atom_site_fract_y
_atom_site_fract_z
O1 O 0.44939(16) 0.05315(17) 0.50574(5)
H26 H 0.4380 0.0425 0.5185
H27 H 0.4127 0.0663 0.4989
O7 O 0.7500 0.3862(6) 0.5000
H28 H 0.7294 0.3789 0.5119
H28E H 0.7706 0.3789 0.4881
C1 C 0.5242(2) -0.1326(3) 0.35476(7)
H1 H 0.5316 -0.1805 0.3522
C2 C 0.5508(2) -0.0968(3) 0.37098(7)
H2 H 0.5797 -0.1147 0.3818
C3 C 0.4868(2) -0.0273(3) 0.35159(7)
H3 H 0.4629 0.0126 0.3468
C4 C 0.5434(2) 0.0316(2) 0.38261(6)
C5 C 0.6050(3) 0.0324(3) 0.39383(7)
H4 H 0.6360 -0.0057 0.3932
C6 C 0.6208(3) 0.0921(3) 0.40630(8)
H5 H 0.6629 0.0939 0.4140
C7 C 0.5753(3) 0.1468(4) 0.40716(7)
C8 C 0.5105(3) 0.1436(4) 0.39678(8)
H6 H 0.4777 0.1799 0.3984
C9 C 0.4954(2) 0.0852(3) 0.38397(7)
H7 H 0.4530 0.0828 0.3764
C10 C 0.6023(3) 0.1959(3) 0.54092(8)
H8 H 0.5990 0.1712 0.5538
C11 C 0.5920(3) 0.1685(3) 0.52132(7)
H9 H 0.5811 0.1217 0.5182
C12 C 0.6201(3) 0.2774(2) 0.51847(7)
H10 H 0.6337 0.3205 0.5126
C13 C 0.5988(2) 0.2170(2) 0.48412(7)
C14 C 0.5568(3) 0.1675(3) 0.47442(8)
H11 H 0.5294 0.1372 0.4827
C15 C 0.5550(4) 0.1623(3) 0.45218(8)
H12 H 0.5269 0.1281 0.4456
C16 C 0.5946(3) 0.2075(2) 0.44002(7)
C17 C 0.6353(3) 0.2570(3) 0.44974(7)
H13 H 0.6616 0.2881 0.4414
C18 C 0.6384(3) 0.2622(2) 0.47163(7)
H14 H 0.6671 0.2961 0.4780
C19 C 0.3275(2) 0.0063(2) 0.31827(8)
C20 C 0.2875(2) 0.0739(2) 0.31789(8)
C21 C 0.2440(2) 0.0938(3) 0.33470(8)
H15 H 0.2402 0.0645 0.3466
C22 C 0.2929(2) 0.1183(2) 0.30061(9)
H16 H 0.3218 0.1058 0.2891
C23 C 0.1707(2) 0.2680(2) 0.31579(6)
C24 C 0.2114(2) 0.2006(2) 0.31656(6)
C25 C 0.2560(2) 0.1816(2) 0.30002(7)
H17 H 0.2614 0.2116 0.2883
C26 C 0.20590(16) 0.15677(17) 0.33409(5)
H18 H 0.1768 0.1692 0.3455
Cd1 Cd 0.406810(15) -0.113173(16) 0.315301(4)
N2 N 0.4841(2) -0.08890(18) 0.34225(5)
N3 N 0.52818(16) -0.02857(18) 0.36899(5)
N4 N 0.6181(2) 0.2654(2) 0.53885(5)
N5 N 0.6005(2) 0.2217(2) 0.50666(6)
O2 O 0.32417(15) -0.03214(17) 0.33434(6)
O3 O 0.36533(16) -0.00980(18) 0.30235(6)
O4 O 0.12452(15) 0.27902(16) 0.32978(4)
O5 O 0.18172(16) 0.31048(17) 0.30117(5)
O6 O 0.5920(3) 0.20855(18) 0.41793(5)
Cd1K Cd 0.636827(16) 0.343190(15) 0.565301(4)
Cd1BA Cd 0.093190(15) 0.386827(16) 0.315301(4)
N4I N 0.4846(2) -0.1319(2) 0.28885(5)
O4BA O 0.37548(15) -0.22098(16) 0.32978(4)
O5BA O 0.31828(16) -0.18952(17) 0.30117(5)
C27? C 0.19615(16) 0.96364(17) 0.47921(5)
H19? H 0.1536 0.9423 0.4730
N1? N 0.24520(16) 0.92019(17) 0.47777(5)
C28? C 0.26196(16) 0.87848(17) 0.45722(5)
H20? H 0.2876 0.8372 0.4618
H21? H 0.2949 0.9069 0.4493
H22? H 0.2276 0.8622 0.4470
C29? C 0.27906(16) 0.91288(17) 0.49743(5)
H23? H 0.3017 0.9574 0.5002
H24? H 0.3164 0.8792 0.4952
H25? H 0.2565 0.8995 0.5106
H29? H 0.7520 0.4304 0.4976
O8? O 0.1775(9) 1.0065(6) 0.49331(18)
loop_
_geom_bond_atom_site_label_1
_geom_bond_atom_site_label_2
_geom_bond_site_symmetry_1
_geom_bond_site_symmetry_2
C1 H1 1_555 1_555
C2 C1 1_555 1_555
H2 C2 1_555 1_555
C3 H3 1_555 1_555
C4 C5 1_555 1_555
C5 H4 1_555 1_555
C6 C5 1_555 1_555
H5 C6 1_555 1_555
C7 C6 1_555 1_555
C8 C7 1_555 1_555
H6 C8 1_555 1_555
C9 C4 1_555 1_555
H7 C9 1_555 1_555
C10 H8 1_555 1_555
C11 C10 1_555 1_555
H9 C11 1_555 1_555
C12 H10 1_555 1_555
C13 C14 1_555 1_555
C14 H11 1_555 1_555
C15 C14 1_555 1_555
H12 C15 1_555 1_555
C16 C15 1_555 1_555
C17 C16 1_555 1_555
H13 C17 1_555 1_555
C18 C13 1_555 1_555
H14 C18 1_555 1_555
C19 C20 1_555 1_555
C20 C21 1_555 1_555
C21 H15 1_555 1_555
C22 C20 1_555 1_555
H16 C22 1_555 1_555
C23 C24 1_555 1_555
C24 C25 1_555 1_555
C25 C22 1_555 1_555
H17 C25 1_555 1_555
C26 C21 1_555 1_555
H18 C26 1_555 1_555
O1 H26 1_555 1_555
H27 O1 1_555 1_555
Cd1 N2 1_555 1_555
N2 C1 1_555 1_555
N3 C2 1_555 1_555
N4 C10 1_555 1_555
N5 C11 1_555 1_555
O2 C19 1_555 1_555
O3 C19 1_555 1_555
O4 C23 1_555 1_555
O5 C23 1_555 1_555
O6 C7 1_555 1_555
O7 H28 1_555 1_555
Cd1K N4 1_555 1_555
Cd1BA O4 1_555 1_555
N4I Cd1 1_555 1_555
O4BA Cd1 1_555 1_555
O5BA Cd1 1_555 1_555
H28E O7 1_555 1_555
C3 N2 1_555 1_555
C3 N3 1_555 1_555
C4 N3 1_555 1_555
C8 C9 1_555 1_555
C12 N4 1_555 1_555
C12 N5 1_555 1_555
C13 N5 1_555 1_555
C16 O6 1_555 1_555
C17 C18 1_555 1_555
C24 C26 1_555 1_555
Cd1 O2 1_555 1_555
Cd1 O3 1_555 1_555
O5 Cd1BA 1_555 1_555

#END
