
#######################################################################
#
#                 Cambridge Crystallographic Data Centre
#                                CCDC 
#
#######################################################################
#
# If this CIF has been generated from an entry in the Cambridge 
# Structural Database, then it will include bibliographic, chemical, 
# crystal, experimental, refinement or atomic coordinate data resulting 
# from the CCDC's data processing and validation procedures.
#
#######################################################################

data_OKIREG
_symmetry_cell_setting           triclinic
_symmetry_space_group_name_H-M   'P -1'
_symmetry_Int_Tables_number      2
_space_group_name_Hall           '-P 1'
loop_
_symmetry_equiv_pos_site_id
_symmetry_equiv_pos_as_xyz
1 x,y,z
2 -x,-y,-z
_cell_length_a                   10.2624(11)
_cell_length_b                   10.3350(11)
_cell_length_c                   10.9124(12)
_cell_angle_alpha                77.773(2)
_cell_angle_beta                 75.062(2)
_cell_angle_gamma                81.616(2)
_cell_volume                     1087.8
loop_
_atom_site_label
_atom_site_type_symbol
_atom_site_fract_x
_atom_site_fract_y
_atom_site_fract_z
Ag1 Ag 0.11012(6) 0.28373(6) 0.80046(5)
S1 S -0.22372(18) 0.83022(18) 0.38805(16)
N1 N 0.0319(6) 0.4944(5) 0.6923(5)
N2 N -0.0400(6) 1.1951(5) -0.0168(5)
N3 N 0.2575(6) 0.3653(6) 0.8949(6)
C1 C -0.0917(8) 0.5543(7) 0.7185(7)
H1 H -0.1539 0.5151 0.7899
C2 C -0.1345(7) 0.6721(7) 0.6464(6)
H2 H -0.2223 0.7117 0.6704
C3 C -0.0452(7) 0.7293(6) 0.5388(6)
C4 C 0.0838(7) 0.6674(7) 0.5092(6)
H3 H 0.1472 0.7036 0.4371
C5 C 0.1176(7) 0.5526(7) 0.5867(7)
H4 H 0.2054 0.5120 0.5653
C6 C -0.0882(7) 0.8570(7) 0.4572(6)
H5 H -0.0116 0.8867 0.3887
H6 H -0.1196 0.9254 0.5097
C7 C -0.2911(7) 0.9994(8) 0.3354(7)
H7 H -0.3810 0.9978 0.3226
H8 H -0.3002 1.0499 0.4030
C8 C -0.2037(7) 1.0697(6) 0.2114(6)
C9 C -0.1013(7) 1.1391(7) 0.2135(6)
H9 H -0.0852 1.1461 0.2918
C10 C -0.0221(7) 1.1983(7) 0.0999(7)
H10 H 0.0483 1.2434 0.1040
C11 C -0.1420(7) 1.1283(7) -0.0182(7)
H11 H -0.1571 1.1239 -0.0976
C12 C -0.2258(7) 1.0655(6) 0.0925(6)
H12 H -0.2961 1.0211 0.0871
C13 C 0.3550(9) 0.2909(7) 0.9430(9)
H13 H 0.3601 0.1994 0.9481
C14 C 0.4487(9) 0.3388(7) 0.9857(9)
H14 H 0.5136 0.2797 1.0196
C15 C 0.4491(7) 0.4717(6) 0.9797(6)
C16 C 0.3471(8) 0.5505(7) 0.9298(8)
H15 H 0.3409 0.6424 0.9225
C17 C 0.2548(8) 0.4941(7) 0.8907(8)
H16 H 0.1864 0.5501 0.8596
Ag1A Ag -0.11012(6) 0.71627(6) 0.19954(5)
Ag1_2 Ag 0.11012(6) 1.28373(6) -0.19954(5)
Ag1A_2 Ag 0.88988(6) 0.71627(6) 1.19954(5)
Ag1A_3 Ag -0.11012(6) -0.28373(6) 1.19954(5)
S1A S 0.22372(18) 0.16978(18) 0.61195(16)
N1A N -0.0319(6) 0.5056(5) 0.3077(5)
N2A N 0.0400(6) -0.1951(5) 1.0168(5)
N2_2 N -0.0400(6) 0.1951(5) 0.9832(5)
N2A_2 N 0.0400(6) 0.8049(5) 0.0168(5)
N3A N 0.7425(6) 0.6347(6) 1.1051(6)
N3A_2 N -0.2575(6) 0.6347(6) 0.1051(6)
C1A C 0.0917(8) 0.4457(7) 0.2815(7)
H1A H 0.1539 0.4849 0.2101
C2A C 0.1345(7) 0.3279(7) 0.3536(6)
H2A H 0.2223 0.2883 0.3296
C3A C 0.0452(7) 0.2707(6) 0.4612(6)
C4A C -0.0838(7) 0.3326(7) 0.4908(6)
H3A H -0.1472 0.2964 0.5629
C5A C -0.1176(7) 0.4474(7) 0.4133(7)
H4A H -0.2054 0.4880 0.4347
C6A C 0.0882(7) 0.1430(7) 0.5428(6)
H5A H 0.0116 0.1133 0.6113
H6A H 0.1196 0.0746 0.4903
C7A C 0.2911(7) 0.0006(8) 0.6646(7)
H7A H 0.3810 0.0022 0.6774
H8A H 0.3002 -0.0499 0.5970
C8A C 0.2037(7) -0.0697(6) 0.7886(6)
C9A C 0.1013(7) -0.1391(7) 0.7865(6)
H9A H 0.0852 -0.1461 0.7082
C10A C 0.0221(7) -0.1983(7) 0.9001(7)
H10A H -0.0483 -0.2434 0.8960
C11A C 0.1420(7) -0.1283(7) 1.0182(7)
H11A H 0.1571 -0.1239 1.0976
C12A C 0.2258(7) -0.0655(6) 0.9075(6)
H12A H 0.2961 -0.0211 0.9129
C13A C 0.6450(9) 0.7091(7) 1.0570(9)
H13A H 0.6399 0.8006 1.0519
C14A C 0.5513(9) 0.6612(7) 1.0143(9)
H14A H 0.4864 0.7203 0.9804
C15A C 0.5509(7) 0.5283(6) 1.0203(6)
C16A C 0.6529(8) 0.4495(7) 1.0702(8)
H15A H 0.6591 0.3576 1.0775
C17A C 0.7452(8) 0.5059(7) 1.1093(8)
H16A H 0.8136 0.4499 1.1404
C18 C 0.5186(15) 0.575(3) 0.576(2)
H17 H 0.5351 0.6284 0.6285
C19 C 0.4789(13) 0.6364(5) 0.464(2)
H18 H 0.4619 0.7282 0.4421
C20 C 0.5335(14) 0.449(3) 0.6109(13)
H19 H 0.5536 0.4140 0.6904
C18A C 0.4814(15) 0.425(3) 0.424(2)
H17A H 0.4649 0.3716 0.3715
C19A C 0.5211(13) 0.3636(5) 0.536(2)
H18A H 0.5381 0.2718 0.5579
C20A C 0.4665(14) 0.551(3) 0.3891(13)
H19A H 0.4464 0.5860 0.3096
Cl1 Cl -0.3354(2) 1.0161(2) 0.75123(19)
O1 O -0.2373(18) 0.9279(17) 0.8046(17)
O2 O -0.3985(13) 0.9042(15) 0.7230(14)
O3 O -0.423(2) 1.094(2) 0.8253(19)
O4 O -0.281(2) 1.089(2) 0.633(2)
O5? O -0.1974(15) 0.9736(17) 0.7444(16)
O6? O -0.3641(19) 1.034(2) 0.6344(16)
O7? O -0.4328(19) 1.002(2) 0.8561(18)
O8? O -0.313(2) 1.1588(16) 0.753(2)
loop_
_geom_bond_atom_site_label_1
_geom_bond_atom_site_label_2
_geom_bond_site_symmetry_1
_geom_bond_site_symmetry_2
Ag1 N1 1_555 1_555
S1 C6 1_555 1_555
N1 C1 1_555 1_555
N2 C10 1_555 1_555
N3 Ag1 1_555 1_555
C1 H1 1_555 1_555
C2 C1 1_555 1_555
H2 C2 1_555 1_555
C3 C2 1_555 1_555
C4 C3 1_555 1_555
H3 C4 1_555 1_555
C5 N1 1_555 1_555
H4 C5 1_555 1_555
C6 C3 1_555 1_555
H5 C6 1_555 1_555
H6 C6 1_555 1_555
C7 S1 1_555 1_555
H7 C7 1_555 1_555
H8 C7 1_555 1_555
C8 C7 1_555 1_555
C9 C8 1_555 1_555
H9 C9 1_555 1_555
C10 C9 1_555 1_555
H10 C10 1_555 1_555
C11 N2 1_555 1_555
H11 C11 1_555 1_555
C12 C8 1_555 1_555
H12 C12 1_555 1_555
C13 N3 1_555 1_555
H13 C13 1_555 1_555
C14 C13 1_555 1_555
H14 C14 1_555 1_555
C15 C14 1_555 1_555
C16 C15 1_555 1_555
H15 C16 1_555 1_555
C17 N3 1_555 1_555
H16 C17 1_555 1_555
C18 H17 1_555 1_555
C19 C18 1_555 1_555
H18 C19 1_555 1_555
C20 C18 1_555 1_555
H19 C20 1_555 1_555
Cl1 O1 1_555 1_555
O2 Cl1 1_555 1_555
O3 Cl1 1_555 1_555
O4 Cl1 1_555 1_555
Ag1A S1 1_555 1_555
Ag1_2 N2 1_555 1_555
Ag1A_2 N3A 1_555 1_555
Ag1A_3 N2A 1_555 1_555
S1A Ag1 1_555 1_555
N1A Ag1A 1_555 1_555
N2A C10A 1_555 1_555
N2_2 Ag1 1_555 1_555
N2A_2 Ag1A 1_555 1_555
N3A C13A 1_555 1_555
N3A_2 Ag1A 1_555 1_555
C1A N1A 1_555 1_555
H1A C1A 1_555 1_555
C2A C1A 1_555 1_555
H2A C2A 1_555 1_555
C3A C2A 1_555 1_555
C4A C3A 1_555 1_555
H3A C4A 1_555 1_555
C5A N1A 1_555 1_555
H4A C5A 1_555 1_555
C6A S1A 1_555 1_555
H5A C6A 1_555 1_555
H6A C6A 1_555 1_555
C7A S1A 1_555 1_555
H7A C7A 1_555 1_555
H8A C7A 1_555 1_555
C8A C7A 1_555 1_555
C9A C8A 1_555 1_555
H9A C9A 1_555 1_555
C10A C9A 1_555 1_555
H10A C10A 1_555 1_555
C11A N2A 1_555 1_555
H11A C11A 1_555 1_555
C12A C8A 1_555 1_555
H12A C12A 1_555 1_555
C13A H13A 1_555 1_555
C14A C13A 1_555 1_555
H14A C14A 1_555 1_555
C15A C15 1_555 1_555
C16A C15A 1_555 1_555
H15A C16A 1_555 1_555
C17A N3A 1_555 1_555
H16A C17A 1_555 1_555
C18A H17A 1_555 1_555
C19A C20 1_555 1_555
H18A C19A 1_555 1_555
C20A C19 1_555 1_555
H19A C20A 1_555 1_555
C4 C5 1_555 1_555
C11 C12 1_555 1_555
C16 C17 1_555 1_555
C3A C6A 1_555 1_555
C4A C5A 1_555 1_555
C11A C12A 1_555 1_555
C14A C15A 1_555 1_555
C16A C17A 1_555 1_555
C18A C19A 1_555 1_555
C18A C20A 1_555 1_555

#END
