
#######################################################################
#
#                 Cambridge Crystallographic Data Centre
#                                CCDC 
#
#######################################################################
#
# If this CIF has been generated from an entry in the Cambridge 
# Structural Database, then it will include bibliographic, chemical, 
# crystal, experimental, refinement or atomic coordinate data resulting 
# from the CCDC's data processing and validation procedures.
#
#######################################################################

data_OKIRAC
_symmetry_cell_setting           triclinic
_symmetry_space_group_name_H-M   'P -1'
_symmetry_Int_Tables_number      2
_space_group_name_Hall           '-P 1'
loop_
_symmetry_equiv_pos_site_id
_symmetry_equiv_pos_as_xyz
1 x,y,z
2 -x,-y,-z
_cell_length_a                   8.1239(5)
_cell_length_b                   13.3351(8)
_cell_length_c                   13.4270(8)
_cell_angle_alpha                89.9040(10)
_cell_angle_beta                 82.5010(10)
_cell_angle_gamma                87.3820(10)
_cell_volume                     1440.63
loop_
_atom_site_label
_atom_site_type_symbol
_atom_site_fract_x
_atom_site_fract_y
_atom_site_fract_z
Ag1 Ag 0.68069(2) 0.269236(14) 0.181345(15)
Ag2 Ag 0.75799(2) 0.754238(14) 0.288282(16)
S1 S 1.00466(8) 0.77591(4) 0.15630(5)
S2 S 0.39422(7) 0.28930(4) 0.26628(5)
N1 N 0.8510(3) 0.39608(15) 0.13362(16)
N2 N 0.8785(3) 1.14465(15) 0.20246(16)
N3 N 0.6411(3) 0.61288(15) 0.34974(16)
N4 N 0.5884(3) -0.10154(15) 0.29437(16)
C1 C 1.0941(3) 0.47662(18) 0.1694(2)
H1 H 1.1997 0.4709 0.1926
C2 C 1.0007(3) 0.39362(19) 0.1653(2)
H2 H 1.0449 0.3310 0.1861
C3 C 0.7933(3) 0.48480(18) 0.10154(19)
H3 H 0.6888 0.4880 0.0768
C4 C 0.8795(3) 0.57154(18) 0.10312(18)
H4 H 0.8345 0.6327 0.0795
C5 C 1.0316(3) 0.56911(17) 0.13917(18)
C6 C 1.1330(3) 0.65997(18) 0.1454(2)
H5 H 1.2158 0.6629 0.0846
H6 H 1.1942 0.6536 0.2044
C7 C 1.1451(3) 0.85975(18) 0.2068(2)
H7 H 1.1633 0.8394 0.2756
H8 H 1.2539 0.8587 0.1637
C8 C 1.0610(3) 0.96262(17) 0.20774(19)
C9 C 1.0678(3) 1.01941(18) 0.12057(19)
H9 H 1.1357 0.9968 0.0612
C10 C 0.9753(3) 1.10872(18) 0.1208(2)
H10 H 0.9804 1.1464 0.0604
C11 C 0.8774(3) 1.09228(18) 0.28769(19)
H11 H 0.8135 1.1186 0.3469
C12 C 0.9655(3) 1.00125(18) 0.29354(19)
H12 H 0.9605 0.9659 0.3553
C13 C 0.4015(3) 0.51274(19) 0.37029(19)
H13 H 0.2844 0.5096 0.3732
C14 C 0.4766(3) 0.60320(19) 0.35341(19)
H14 H 0.4085 0.6614 0.3439
C15 C 0.7345(3) 0.52972(18) 0.36449(18)
H15 H 0.8507 0.5354 0.3641
C16 C 0.6687(3) 0.43616(18) 0.38025(18)
H16 H 0.7394 0.3790 0.3891
C17 C 0.4986(3) 0.42636(18) 0.38300(18)
C18 C 0.4238(3) 0.32490(18) 0.39387(19)
H17 H 0.3163 0.3291 0.4382
H18 H 0.4997 0.2756 0.4222
C19 C 0.2881(3) 0.17176(18) 0.2826(2)
H19 H 0.2089 0.1768 0.3452
H20 H 0.2221 0.1645 0.2262
C20 C 0.3962(3) 0.07772(18) 0.28762(19)
C21 C 0.4966(3) 0.03997(17) 0.20256(19)
H21 H 0.5008 0.0748 0.1405
C22 C 0.5898(3) -0.04812(18) 0.2092(2)
H22 H 0.6584 -0.0724 0.1507
C23 C 0.4901(3) -0.0660(2) 0.3754(2)
H23 H 0.4862 -0.1032 0.4360
C24 C 0.3933(3) 0.02266(19) 0.3756(2)
H24 H 0.3260 0.0453 0.4352
Ag1_2 Ag 0.68069(2) 1.269236(14) 0.181345(15)
Ag2_2 Ag 0.75799(2) -0.245762(14) 0.288282(16)
N2_2 N 0.8785(3) 0.14465(15) 0.20246(16)
N4_2 N 0.5884(3) 0.89846(15) 0.29437(16)
Cl1 Cl 0.46166(7) 0.25932(5) -0.01863(5)
O1 O 0.3122(3) 0.21525(19) 0.02564(18)
O2 O 0.4679(3) 0.35981(15) 0.01861(16)
O3 O 0.6039(2) 0.20041(14) 0.00837(14)
O4 O 0.4685(2) 0.26090(15) -0.12596(14)
Cl2 Cl 1.03748(8) 0.74090(5) 0.47589(5)
O5 O 0.9968(3) 0.6905(2) 0.56936(17)
O6 O 1.0632(3) 0.66994(16) 0.39430(17)
O7 O 0.9007(3) 0.80954(16) 0.46055(16)
O8 O 1.1866(3) 0.7930(2) 0.47785(19)
loop_
_geom_bond_atom_site_label_1
_geom_bond_atom_site_label_2
_geom_bond_site_symmetry_1
_geom_bond_site_symmetry_2
Ag1 S2 1_555 1_555
Ag2 S1 1_555 1_555
Cl1 O1 1_555 1_555
Cl2 O5 1_555 1_555
S1 C6 1_555 1_555
S2 C18 1_555 1_555
N1 Ag1 1_555 1_555
N2 C10 1_555 1_555
N3 Ag2 1_555 1_555
N4 C22 1_555 1_555
O2 Cl1 1_555 1_555
O3 Cl1 1_555 1_555
O4 Cl1 1_555 1_555
O6 Cl2 1_555 1_555
O7 Cl2 1_555 1_555
O8 Cl2 1_555 1_555
C1 H1 1_555 1_555
C2 N1 1_555 1_555
H2 C2 1_555 1_555
C3 N1 1_555 1_555
H3 C3 1_555 1_555
C4 C3 1_555 1_555
H4 C4 1_555 1_555
C5 C1 1_555 1_555
C6 C5 1_555 1_555
H5 C6 1_555 1_555
H6 C6 1_555 1_555
C7 S1 1_555 1_555
H7 C7 1_555 1_555
H8 C7 1_555 1_555
C8 C7 1_555 1_555
C9 C8 1_555 1_555
H9 C9 1_555 1_555
C10 C9 1_555 1_555
H10 C10 1_555 1_555
C11 N2 1_555 1_555
H11 C11 1_555 1_555
C12 C8 1_555 1_555
H12 C12 1_555 1_555
C13 H13 1_555 1_555
C14 N3 1_555 1_555
H14 C14 1_555 1_555
C15 N3 1_555 1_555
H15 C15 1_555 1_555
C16 C15 1_555 1_555
H16 C16 1_555 1_555
C17 C13 1_555 1_555
C18 C17 1_555 1_555
H17 C18 1_555 1_555
H18 C18 1_555 1_555
C19 S2 1_555 1_555
H19 C19 1_555 1_555
H20 C19 1_555 1_555
C20 C19 1_555 1_555
C21 C20 1_555 1_555
H21 C21 1_555 1_555
C22 C21 1_555 1_555
H22 C22 1_555 1_555
C23 N4 1_555 1_555
H23 C23 1_555 1_555
C24 C20 1_555 1_555
H24 C24 1_555 1_555
Ag1_2 N2 1_555 1_555
Ag2_2 N4 1_555 1_555
N2_2 Ag1 1_555 1_555
N4_2 Ag2 1_555 1_555
C1 C2 1_555 1_555
C4 C5 1_555 1_555
C11 C12 1_555 1_555
C13 C14 1_555 1_555
C16 C17 1_555 1_555
C23 C24 1_555 1_555

#END
