
#######################################################################
#
#                 Cambridge Crystallographic Data Centre
#                                CCDC 
#
#######################################################################
#
# If this CIF has been generated from an entry in the Cambridge 
# Structural Database, then it will include bibliographic, chemical, 
# crystal, experimental, refinement or atomic coordinate data resulting 
# from the CCDC's data processing and validation procedures.
#
#######################################################################

data_OKISEH
_symmetry_cell_setting           monoclinic
_symmetry_space_group_name_H-M   'P 21/c'
_symmetry_Int_Tables_number      14
_space_group_name_Hall           '-P 2ybc'
loop_
_symmetry_equiv_pos_site_id
_symmetry_equiv_pos_as_xyz
1 x,y,z
2 -x,1/2+y,1/2-z
3 -x,-y,-z
4 x,1/2-y,1/2+z
_cell_length_a                   6.7010(13)
_cell_length_b                   11.860(2)
_cell_length_c                   11.190(2)
_cell_angle_alpha                90
_cell_angle_beta                 103.73(3)
_cell_angle_gamma                90
_cell_volume                     863.9
loop_
_atom_site_label
_atom_site_type_symbol
_atom_site_fract_x
_atom_site_fract_y
_atom_site_fract_z
Cd1 Cd 0.72631(4) -0.125226(19) 0.42863(2)
S1 S 0.77403(12) 0.09777(7) 0.55694(8)
O1 O 0.8864(4) -0.0022(2) 0.6121(3)
O2 O 0.6419(4) 0.0640(2) 0.4360(2)
O3 O 0.6454(4) 0.14438(19) 0.6345(2)
O4 O 0.9179(4) 0.18627(19) 0.5372(2)
N1 N 0.7138(4) -0.2673(2) 0.5536(3)
N2 N 0.7177(4) -0.3660(2) 0.7276(3)
N3 N 0.7446(4) -0.4175(3) 0.4159(3)
N4 N 0.7702(4) -0.5938(2) 0.5143(3)
H1 H 0.7852 -0.6650 0.5052
N5 N 0.7566(5) -0.6279(2) 0.7170(3)
H2 H 0.7456 -0.6050 0.7881
H3 H 0.7688 -0.6988 0.7038
C1 C 0.7057(5) -0.2651(3) 0.6724(3)
H4 H 0.6928 -0.1983 0.7134
C2 C 0.7331(5) -0.3772(3) 0.5274(3)
C3 C 0.7629(5) -0.5267(3) 0.4166(4)
H5 H 0.7718 -0.5612 0.3434
C4 C 0.7550(5) -0.5552(3) 0.6292(3)
C5 C 0.7367(5) -0.4389(3) 0.6354(3)
Cd1B Cd 0.27369(4) 0.125226(19) 0.57137(2)
Cd1B_2 Cd 1.27369(4) 0.125226(19) 0.57137(2)
Cd1C Cd 0.72631(4) -0.374774(19) 0.92863(2)
O3B O 0.3546(4) -0.14438(19) 0.3655(2)
O4B O 1.0821(4) -0.18627(19) 0.4628(2)
N2C N 0.7177(4) -0.1340(2) 0.2276(3)
loop_
_geom_bond_atom_site_label_1
_geom_bond_atom_site_label_2
_geom_bond_site_symmetry_1
_geom_bond_site_symmetry_2
Cd1 O1 1_555 1_555
S1 O1 1_555 1_555
O2 Cd1 1_555 1_555
O3 S1 1_555 1_555
O4 S1 1_555 1_555
N1 Cd1 1_555 1_555
N2 C1 1_555 1_555
N3 C2 1_555 1_555
N4 H1 1_555 1_555
N5 H2 1_555 1_555
H3 N5 1_555 1_555
C1 N1 1_555 1_555
H4 C1 1_555 1_555
C2 N1 1_555 1_555
C3 N3 1_555 1_555
H5 C3 1_555 1_555
C4 N4 1_555 1_555
C5 N2 1_555 1_555
Cd1B O3 1_555 1_555
Cd1B_2 O4 1_555 1_555
Cd1C N2 1_555 1_555
O3B Cd1 1_555 1_555
O4B Cd1 1_555 1_555
N2C Cd1 1_555 1_555
S1 O2 1_555 1_555
N4 C3 1_555 1_555
N5 C4 1_555 1_555
C2 C5 1_555 1_555
C4 C5 1_555 1_555

#END
