
#######################################################################
#
#                 Cambridge Crystallographic Data Centre
#                                CCDC 
#
#######################################################################
#
# If this CIF has been generated from an entry in the Cambridge 
# Structural Database, then it will include bibliographic, chemical, 
# crystal, experimental, refinement or atomic coordinate data resulting 
# from the CCDC's data processing and validation procedures.
#
#######################################################################

data_OKIVAG
_symmetry_cell_setting           tetragonal
_symmetry_space_group_name_H-M   'P 43 21 2'
_symmetry_Int_Tables_number      96
_space_group_name_Hall           'P 4nw 2abw'
loop_
_symmetry_equiv_pos_site_id
_symmetry_equiv_pos_as_xyz
1 x,y,z
2 -x,-y,1/2+z
3 1/2-y,1/2+x,3/4+z
4 1/2+y,1/2-x,1/4+z
5 1/2-x,1/2+y,3/4-z
6 1/2+x,1/2-y,1/4-z
7 y,x,-z
8 -y,-x,1/2-z
_cell_length_a                   15.937(2)
_cell_length_b                   15.937(2)
_cell_length_c                   21.884(7)
_cell_angle_alpha                90
_cell_angle_beta                 90
_cell_angle_gamma                90
_cell_volume                     5558.27
loop_
_atom_site_label
_atom_site_type_symbol
_atom_site_fract_x
_atom_site_fract_y
_atom_site_fract_z
C1 C -0.4141(4) -0.3603(4) -0.3615(3)
H1 H -0.4636 -0.3900 -0.3507
C2 C -0.3859(4) -0.2974(4) -0.3215(3)
H2 H -0.4163 -0.2849 -0.2853
C3 C -0.3120(4) -0.2530(4) -0.3357(3)
C4 C -0.2690(4) -0.2817(4) -0.3869(3)
H3 H -0.2153 -0.2592 -0.3962
C5 C -0.3032(4) -0.3424(4) -0.4244(3)
H4 H -0.2736 -0.3579 -0.4604
C6 C -0.2814(4) -0.1813(4) -0.2980(3)
C7 C -0.3083(4) -0.1661(4) -0.2387(3)
H5 H -0.3493 -0.2018 -0.2208
C8 C -0.2766(5) -0.1005(5) -0.2057(3)
H6 H -0.2944 -0.0928 -0.1647
C9 C -0.2188(5) -0.0448(4) -0.2308(3)
H7 H -0.1992 0.0021 -0.2082
C10 C -0.1901(4) -0.0602(3) -0.2909(3)
C11 C -0.2222(4) -0.1269(4) -0.3235(3)
H8 H -0.2036 -0.1361 -0.3642
C12 C -0.1275(4) -0.0036(4) -0.3207(3)
C13 C -0.0765(3) 0.0915(3) -0.3817(3)
C14 C -0.0686(4) 0.1607(4) -0.4257(3)
C15 C 0.0028(5) 0.1639(4) -0.4624(3)
H9 H 0.0443 0.1213 -0.4591
C16 C 0.0133(5) 0.2287(4) -0.5035(4)
H10 H 0.0621 0.2301 -0.5284
C17 C -0.0452(5) 0.2912(4) -0.5091(4)
H11 H -0.0377 0.3345 -0.5384
C18 C -0.1174(4) 0.2909(4) -0.4705(3)
C19 C -0.1276(4) 0.2250(4) -0.4297(3)
H12 H -0.1757 0.2238 -0.4041
C20 C -0.1825(4) 0.3580(4) -0.4768(3)
C21 C -0.2390(5) 0.3760(4) -0.4294(3)
H13 H -0.2335 0.3484 -0.3912
C22 C -0.3027(4) 0.4336(4) -0.4382(3)
H14 H -0.3402 0.4443 -0.4054
C23 C -0.2591(4) 0.4599(4) -0.5360(3)
H15 H -0.2658 0.4890 -0.5736
C24 C -0.1933(4) 0.4036(4) -0.5297(3)
H16 H -0.1550 0.3963 -0.5626
Cd1 Cd 0.05735(2) -0.05735(2) -0.2500
N1 N -0.3770(3) -0.3805(3) -0.4120(2)
N2 N -0.0139(3) 0.0552(3) -0.3548(2)
N3 N -0.0458(3) -0.0059(3) -0.3165(2)
N4 N -0.1496(3) 0.0564(3) -0.3610(2)
N5 N -0.2314(4) 0.0752(3) -0.3828(3)
H21 H -0.2601 0.0264 -0.3884
H22 H -0.2590 0.1079 -0.3553
N6 N -0.3139(3) 0.4746(3) -0.4904(3)
C1G C 0.3603(4) 0.4141(4) -0.1385(3)
H1G H 0.3900 0.4636 -0.1493
C2G C 0.2974(4) 0.3859(4) -0.1785(3)
H2G H 0.2849 0.4163 -0.2147
C3G C 0.2530(4) 0.3120(4) -0.1643(3)
C4G C 0.2817(4) 0.2690(4) -0.1131(3)
H3G H 0.2592 0.2153 -0.1038
C5G C 0.3424(4) 0.3032(4) -0.0756(3)
H4G H 0.3579 0.2736 -0.0396
C6G C 0.1813(4) 0.2814(4) -0.2020(3)
C7G C 0.1661(4) 0.3083(4) -0.2613(3)
H5G H 0.2018 0.3493 -0.2792
C8G C 0.1005(5) 0.2766(5) -0.2943(3)
H6G H 0.0928 0.2944 -0.3353
C9G C 0.0448(4) 0.2188(5) -0.2692(3)
H7G H -0.0021 0.1992 -0.2918
C10G C 0.0602(3) 0.1901(4) -0.2091(3)
C11G C 0.1269(4) 0.2222(4) -0.1765(3)
H8G H 0.1361 0.2036 -0.1358
C12G C 0.0036(4) 0.1275(4) -0.1793(3)
C13G C -0.0915(3) 0.0765(3) -0.1183(3)
C14G C -0.1607(4) 0.0686(4) -0.0743(3)
C15G C -0.1639(4) -0.0028(5) -0.0376(3)
H9G H -0.1213 -0.0443 -0.0409
C16G C -0.2287(4) -0.0133(5) 0.0035(4)
H10G H -0.2301 -0.0621 0.0284
C17G C -0.2912(4) 0.0452(5) 0.0091(4)
H11G H -0.3345 0.0377 0.0384
C18G C -0.2909(4) 0.1174(4) -0.0295(3)
C19G C -0.2250(4) 0.1276(4) -0.0703(3)
H12G H -0.2238 0.1757 -0.0959
C20G C -0.3580(4) 0.1825(4) -0.0232(3)
C21G C -0.3760(4) 0.2390(5) -0.0706(3)
H13G H -0.3484 0.2335 -0.1088
C22G C -0.4336(4) 0.3027(4) -0.0618(3)
H14G H -0.4443 0.3402 -0.0946
C23G C -0.4599(4) 0.2591(4) 0.0360(3)
H15G H -0.4890 0.2658 0.0736
C24G C -0.4036(4) 0.1933(4) 0.0297(3)
H16G H -0.3963 0.1550 0.0626
Cd1B Cd -0.44265(2) -0.44265(2) -0.5000
Cd1C Cd 0.44265(2) 0.44265(2) 0.0000
Cd1B_2 Cd -0.44265(2) 0.55735(2) -0.5000
Cd1C_2 Cd -0.55735(2) 0.44265(2) 0.0000
N1E N 0.1230(3) -0.1195(3) -0.3380(2)
N1C N 0.1195(3) -0.1230(3) -0.1620(2)
N1G N 0.3805(3) 0.3770(3) -0.0880(2)
N2G N -0.0552(3) 0.0139(3) -0.1452(2)
N3G N 0.0059(3) 0.0458(3) -0.1835(2)
N4G N -0.0564(3) 0.1496(3) -0.1390(2)
N5G N -0.0752(3) 0.2314(4) -0.1172(3)
H21G H -0.0264 0.2601 -0.1116
H22G H -0.1079 0.2590 -0.1447
N6E N 0.1861(3) 0.0254(3) -0.2596(3)
N6C N -0.0254(3) -0.1861(3) -0.2404(3)
N6G N -0.4746(3) 0.3139(3) -0.0096(3)
C25 C 0.0511(13) -0.6116(11) -0.0390(10)
H17 H 0.0669 -0.6423 -0.0744
C26 C -0.0090(11) -0.5506(12) -0.0325(9)
H18 H -0.0443 -0.5304 -0.0643
C27 C -0.0102(9) -0.5219(8) 0.0304(9)
C28 C 0.0496(13) -0.5652(14) 0.0632(8)
H19 H 0.0644 -0.5608 0.1052
C29 C -0.0693(13) -0.4572(12) 0.0480(14)
H20 H -0.1095 -0.4297 0.0229
O1 O 0.0820(10) -0.6163(10) 0.0187(11)
O2 O -0.056(2) -0.446(2) 0.1037(14)
Cl1 Cl 0.12061(15) -0.87939(15) 0.0000
O6 O 0.1793(10) -0.9017(10) -0.0487(8)
O7 O 0.0596(12) -0.8592(11) -0.0341(8)
O6F O 0.0983(10) -0.8207(10) 0.0487(8)
O7F O 0.1408(11) -0.9404(12) 0.0341(8)
Cl2 Cl 0.73196(15) -0.26804(15) 0.0000
O3 O 0.7643(8) -0.2284(7) -0.0494(3)
O5 O 0.6630(10) -0.2170(13) 0.0014(18)
O3F O 0.7716(7) -0.2357(8) 0.0494(3)
O5F O 0.7830(13) -0.3370(10) -0.0014(18)
O4? O 0.6722(4) -0.3278(4) 0.0000
loop_
_geom_bond_atom_site_label_1
_geom_bond_atom_site_label_2
_geom_bond_site_symmetry_1
_geom_bond_site_symmetry_2
C1 H1 1_555 1_555
C2 C1 1_555 1_555
H2 C2 1_555 1_555
C3 C2 1_555 1_555
C4 C3 1_555 1_555
H3 C4 1_555 1_555
C5 C4 1_555 1_555
H4 C5 1_555 1_555
C6 C3 1_555 1_555
C7 C6 1_555 1_555
H5 C7 1_555 1_555
C8 C7 1_555 1_555
H6 C8 1_555 1_555
C9 C8 1_555 1_555
H7 C9 1_555 1_555
C10 C9 1_555 1_555
C11 C6 1_555 1_555
H8 C11 1_555 1_555
C12 C10 1_555 1_555
C13 C14 1_555 1_555
C14 C15 1_555 1_555
C15 H9 1_555 1_555
C16 C15 1_555 1_555
H10 C16 1_555 1_555
C17 C16 1_555 1_555
H11 C17 1_555 1_555
C18 C17 1_555 1_555
C19 C14 1_555 1_555
H12 C19 1_555 1_555
C20 C18 1_555 1_555
C21 C20 1_555 1_555
H13 C21 1_555 1_555
C22 C21 1_555 1_555
H14 C22 1_555 1_555
C23 H15 1_555 1_555
C24 C20 1_555 1_555
H16 C24 1_555 1_555
C25 H17 1_555 1_555
C26 C25 1_555 1_555
H18 C26 1_555 1_555
C27 C26 1_555 1_555
C28 C27 1_555 1_555
H19 C28 1_555 1_555
C29 C27 1_555 1_555
H20 C29 1_555 1_555
O1 C25 1_555 1_555
O2 C29 1_555 1_555
Cd1 N3 1_555 1_555
Cl1 O6 1_555 1_555
Cl2 O3 1_555 1_555
N1 C1 1_555 1_555
N2 C13 1_555 1_555
N3 C12 1_555 1_555
N4 C12 1_555 1_555
N5 N4 1_555 1_555
H21 N5 1_555 1_555
H22 N5 1_555 1_555
N6 C22 1_555 1_555
O5 Cl2 1_555 1_555
O7 Cl1 1_555 1_555
C1G H1G 1_555 1_555
C2G C1G 1_555 1_555
H2G C2G 1_555 1_555
C3G C2G 1_555 1_555
C4G C3G 1_555 1_555
H3G C4G 1_555 1_555
C5G C4G 1_555 1_555
H4G C5G 1_555 1_555
C6G C3G 1_555 1_555
C7G C6G 1_555 1_555
H5G C7G 1_555 1_555
C8G C7G 1_555 1_555
H6G C8G 1_555 1_555
C9G C8G 1_555 1_555
H7G C9G 1_555 1_555
C10G C9G 1_555 1_555
C11G C6G 1_555 1_555
H8G C11G 1_555 1_555
C12G C10G 1_555 1_555
C13G C14G 1_555 1_555
C14G C15G 1_555 1_555
C15G H9G 1_555 1_555
C16G C15G 1_555 1_555
H10G C16G 1_555 1_555
C17G C16G 1_555 1_555
H11G C17G 1_555 1_555
C18G C17G 1_555 1_555
C19G C14G 1_555 1_555
H12G C19G 1_555 1_555
C20G C18G 1_555 1_555
C21G C20G 1_555 1_555
H13G C21G 1_555 1_555
C22G C21G 1_555 1_555
H14G C22G 1_555 1_555
C23G H15G 1_555 1_555
C24G C20G 1_555 1_555
H16G C24G 1_555 1_555
Cd1B N1 1_555 1_555
Cd1C N1G 1_555 1_555
Cd1B_2 N6 1_555 1_555
Cd1C_2 N6G 1_555 1_555
N1E Cd1 1_555 1_555
N1C Cd1 1_555 1_555
N1G C1G 1_555 1_555
N2G C13G 1_555 1_555
N3G Cd1 1_555 1_555
N4G C12G 1_555 1_555
N5G N4G 1_555 1_555
H21G N5G 1_555 1_555
H22G N5G 1_555 1_555
N6E Cd1 1_555 1_555
N6C Cd1 1_555 1_555
N6G C22G 1_555 1_555
O3F Cl2 1_555 1_555
O5F Cl2 1_555 1_555
O6F Cl1 1_555 1_555
O7F Cl1 1_555 1_555
C5 N1 1_555 1_555
C10 C11 1_555 1_555
C13 N4 1_555 1_555
C18 C19 1_555 1_555
C23 C24 1_555 1_555
C23 N6 1_555 1_555
C28 O1 1_555 1_555
N2 N3 1_555 1_555
C5G N1G 1_555 1_555
C10G C11G 1_555 1_555
C12G N3G 1_555 1_555
C13G N4G 1_555 1_555
C18G C19G 1_555 1_555
C23G C24G 1_555 1_555
C23G N6G 1_555 1_555
N2G N3G 1_555 1_555

#END
