
#######################################################################
#
#                 Cambridge Crystallographic Data Centre
#                                CCDC 
#
#######################################################################
#
# If this CIF has been generated from an entry in the Cambridge 
# Structural Database, then it will include bibliographic, chemical, 
# crystal, experimental, refinement or atomic coordinate data resulting 
# from the CCDC's data processing and validation procedures.
#
#######################################################################

data_OKIWEL01
_symmetry_cell_setting           tetragonal
_symmetry_space_group_name_H-M   'P 43 21 2'
_symmetry_Int_Tables_number      96
_space_group_name_Hall           'P 4nw 2abw'
loop_
_symmetry_equiv_pos_site_id
_symmetry_equiv_pos_as_xyz
1 x,y,z
2 -x,-y,1/2+z
3 1/2-y,1/2+x,3/4+z
4 1/2+y,1/2-x,1/4+z
5 1/2-x,1/2+y,3/4-z
6 1/2+x,1/2-y,1/4-z
7 y,x,-z
8 -y,-x,1/2-z
_cell_length_a                   15.8770(12)
_cell_length_b                   15.8770(12)
_cell_length_c                   21.806(3)
_cell_angle_alpha                90
_cell_angle_beta                 90
_cell_angle_gamma                90
_cell_volume                     5496.84
loop_
_atom_site_label
_atom_site_type_symbol
_atom_site_fract_x
_atom_site_fract_y
_atom_site_fract_z
C1 C 0.9135(5) 0.8593(5) -0.3611(4)
H1 H 0.9634 0.8891 -0.3506
C2 C 0.8856(4) 0.7975(4) -0.3210(3)
H2 H 0.9159 0.7854 -0.2845
C3 C 0.8114(5) 0.7530(4) -0.3354(3)
C4 C 0.7688(5) 0.7804(5) -0.3868(3)
H3 H 0.7156 0.7566 -0.3968
C5 C 0.8028(5) 0.8423(5) -0.4239(4)
H4 H 0.7722 0.8589 -0.4594
C6 C 0.7818(5) 0.6802(4) -0.2980(3)
C7 C 0.8077(5) 0.6672(5) -0.2385(3)
H5 H 0.8466 0.7052 -0.2202
C8 C 0.7775(6) 0.5991(5) -0.2051(4)
H6 H 0.7975 0.5896 -0.1646
C9 C 0.7169(5) 0.5433(5) -0.2311(3)
H7 H 0.6957 0.4966 -0.2086
C10 C 0.6901(4) 0.5597(4) -0.2902(3)
C11 C 0.7215(4) 0.6258(5) -0.3239(3)
H8 H 0.7024 0.6348 -0.3647
C12 C 0.6282(4) 0.5033(4) -0.3195(3)
C13 C 0.5762(4) 0.4084(4) -0.3820(3)
C14 C 0.5676(4) 0.3385(4) -0.4262(3)
C15 C 0.4958(5) 0.3371(5) -0.4639(4)
H9 H 0.4549 0.3806 -0.4609
C16 C 0.4851(6) 0.2727(5) -0.5049(4)
H10 H 0.4366 0.2715 -0.5304
C17 C 0.5439(5) 0.2101(5) -0.5094(4)
H11 H 0.5356 0.1664 -0.5386
C18 C 0.6165(5) 0.2081(5) -0.4721(4)
C19 C 0.6270(4) 0.2744(4) -0.4299(3)
H12 H 0.6749 0.2753 -0.4038
C20 C 0.6820(4) 0.1420(5) -0.4776(3)
C21 C 0.6929(5) 0.0988(5) -0.5315(4)
H13 H 0.6559 0.1082 -0.5651
C22 C 0.7592(5) 0.0405(5) -0.5366(4)
H14 H 0.7654 0.0106 -0.5741
C23 C 0.8014(5) 0.0673(5) -0.4391(3)
H15 H 0.8390 0.0569 -0.4060
C24 C 0.7388(5) 0.1240(5) -0.4297(4)
H16 H 0.7333 0.1515 -0.3912
Cd1 Cd 0.44219(3) 0.55781(3) -0.2500
N1 N 0.8754(4) 0.8796(4) -0.4126(3)
N2 N 0.5449(3) 0.5055(4) -0.3157(3)
N3 N 0.5122(4) 0.4453(3) -0.3549(3)
N4 N 0.6494(4) 0.4430(3) -0.3607(3)
N5 N 0.7308(4) 0.4241(4) -0.3822(3)
H21 H 0.7584 0.4728 -0.3912
H22 H 0.7593 0.3959 -0.3523
N6 N 0.8143(4) 0.0249(4) -0.4913(3)
C1G C 0.1407(5) 0.0865(5) -0.1389(4)
H1G H 0.1109 0.0366 -0.1494
C2G C 0.2025(4) 0.1144(4) -0.1790(3)
H2G H 0.2146 0.0841 -0.2155
C3G C 0.2470(4) 0.1886(5) -0.1646(3)
C4G C 0.2196(5) 0.2312(5) -0.1132(3)
H3G H 0.2434 0.2844 -0.1032
C5G C 0.1577(5) 0.1972(5) -0.0761(4)
H4G H 0.1411 0.2278 -0.0406
C6G C 0.3198(4) 0.2182(5) -0.2020(3)
C7G C 0.3328(5) 0.1923(5) -0.2615(3)
H5G H 0.2948 0.1534 -0.2798
C8G C 0.4009(5) 0.2225(6) -0.2949(4)
H6G H 0.4104 0.2025 -0.3354
C9G C 0.4567(5) 0.2831(5) -0.2689(3)
H7G H 0.5034 0.3043 -0.2914
C10G C 0.4403(4) 0.3099(4) -0.2098(3)
C11G C 0.3742(5) 0.2785(4) -0.1761(3)
H8G H 0.3652 0.2976 -0.1353
C12G C 0.4967(4) 0.3718(4) -0.1805(3)
C13G C 0.5916(4) 0.4238(4) -0.1180(3)
C14G C 0.6615(4) 0.4324(4) -0.0738(3)
C15G C 0.6629(5) 0.5042(5) -0.0361(4)
H9G H 0.6194 0.5451 -0.0391
C16G C 0.7273(5) 0.5149(6) 0.0049(4)
H10G H 0.7285 0.5634 0.0304
C17G C 0.7899(5) 0.4561(5) 0.0094(4)
H11G H 0.8336 0.4644 0.0386
C18G C 0.7919(5) 0.3835(5) -0.0279(4)
C19G C 0.7256(4) 0.3730(4) -0.0701(3)
H12G H 0.7247 0.3251 -0.0962
C20G C 0.8580(5) 0.3180(4) -0.0224(3)
C21G C 0.9012(5) 0.3071(5) 0.0315(4)
H13G H 0.8918 0.3441 0.0651
C22G C 0.9595(5) 0.2408(5) 0.0366(4)
H14G H 0.9894 0.2346 0.0741
C23G C 0.9327(5) 0.1986(5) -0.0609(3)
H15G H 0.9431 0.1610 -0.0940
C24G C 0.8760(5) 0.2612(5) -0.0703(4)
H16G H 0.8485 0.2667 -0.1088
Cd1B Cd 0.94219(3) 0.94219(3) -0.5000
Cd1C Cd 0.05781(3) 0.05781(3) 0.0000
Cd1B_2 Cd 0.94219(3) -0.05781(3) -0.5000
Cd1C_2 Cd 1.05781(3) 0.05781(3) 0.0000
N1E N 0.3754(4) 0.6204(4) -0.3374(3)
N1C N 0.3796(4) 0.6246(4) -0.1626(3)
N1G N 0.1204(4) 0.1246(4) -0.0874(3)
N2G N 0.4945(4) 0.4551(3) -0.1843(3)
N3G N 0.5547(3) 0.4878(4) -0.1451(3)
N4G N 0.5570(3) 0.3506(4) -0.1393(3)
N5G N 0.5759(4) 0.2692(4) -0.1178(3)
H21G H 0.5272 0.2416 -0.1088
H22G H 0.6041 0.2407 -0.1477
N6E N 0.3143(4) 0.4751(4) -0.2587(3)
N6C N 0.5249(4) 0.6857(4) -0.2413(3)
N6G N 0.9751(4) 0.1857(4) -0.0087(3)
C25 C -0.3680(10) 0.0739(9) 0.2770(7)
H17 H -0.3268 0.1078 0.2966
C26 C -0.4221(11) 0.0233(10) 0.3063(9)
H18 H -0.4240 0.0168 0.3496
C27 C -0.4790(7) -0.0213(6) 0.2630(12)
C28 C -0.4637(7) -0.0019(7) 0.2048(12)
H19 H -0.4933 -0.0242 0.1706
C29 C -0.5445(9) -0.0814(8) 0.2841(10)
H20 H -0.5789 -0.1085 0.2544
O7 O -0.5561(11) -0.0976(9) 0.3391(9)
S1 S -0.3833(4) 0.0689(5) 0.2003(5)
Cl1 Cl -0.23178(14) 0.76822(14) 0.0000
O1 O -0.2601(9) 0.7276(8) -0.0523(4)
O2 O -0.2758(18) 0.8424(14) -0.0080(18)
O1F O -0.2724(8) 0.7399(9) 0.0523(4)
O2F O -0.1576(14) 0.7242(18) 0.0080(18)
Cl2 Cl -0.62116(17) 0.37884(17) 0.0000
O4 O -0.643(2) 0.4473(10) 0.0300(7)
O5 O -0.6677(19) 0.4036(9) -0.0540(7)
O4F O -0.5527(10) 0.357(2) -0.0300(7)
O5F O -0.5964(9) 0.3323(19) 0.0540(7)
O3? O -0.1735(9) 0.8265(9) 0.0000
O6? O -0.6853(19) 0.3147(19) 0.0000
loop_
_geom_bond_atom_site_label_1
_geom_bond_atom_site_label_2
_geom_bond_site_symmetry_1
_geom_bond_site_symmetry_2
C1 H1 1_555 1_555
C2 C1 1_555 1_555
H2 C2 1_555 1_555
C3 C2 1_555 1_555
C4 C3 1_555 1_555
H3 C4 1_555 1_555
C5 C4 1_555 1_555
H4 C5 1_555 1_555
C6 C3 1_555 1_555
C7 C6 1_555 1_555
H5 C7 1_555 1_555
C8 C7 1_555 1_555
H6 C8 1_555 1_555
C9 C8 1_555 1_555
H7 C9 1_555 1_555
C10 C9 1_555 1_555
C11 C6 1_555 1_555
H8 C11 1_555 1_555
C12 C10 1_555 1_555
C13 C14 1_555 1_555
C14 C15 1_555 1_555
C15 H9 1_555 1_555
C16 C15 1_555 1_555
H10 C16 1_555 1_555
C17 C16 1_555 1_555
H11 C17 1_555 1_555
C18 C17 1_555 1_555
C19 C14 1_555 1_555
H12 C19 1_555 1_555
C20 C18 1_555 1_555
C21 C20 1_555 1_555
H13 C21 1_555 1_555
C22 C21 1_555 1_555
H14 C22 1_555 1_555
C23 H15 1_555 1_555
C24 C20 1_555 1_555
H16 C24 1_555 1_555
C25 H17 1_555 1_555
C26 C25 1_555 1_555
H18 C26 1_555 1_555
C27 C26 1_555 1_555
C28 C27 1_555 1_555
H19 C28 1_555 1_555
C29 C27 1_555 1_555
H20 C29 1_555 1_555
Cd1 N2 1_555 1_555
Cl1 O1 1_555 1_555
Cl2 O4 1_555 1_555
N1 C1 1_555 1_555
N2 C12 1_555 1_555
N3 C13 1_555 1_555
N4 C12 1_555 1_555
N5 N4 1_555 1_555
H21 N5 1_555 1_555
H22 N5 1_555 1_555
N6 C22 1_555 1_555
O2 Cl1 1_555 1_555
O5 Cl2 1_555 1_555
O7 C29 1_555 1_555
S1 C25 1_555 1_555
C1G H1G 1_555 1_555
C2G C1G 1_555 1_555
H2G C2G 1_555 1_555
C3G C2G 1_555 1_555
C4G C3G 1_555 1_555
H3G C4G 1_555 1_555
C5G C4G 1_555 1_555
H4G C5G 1_555 1_555
C6G C3G 1_555 1_555
C7G C6G 1_555 1_555
H5G C7G 1_555 1_555
C8G C7G 1_555 1_555
H6G C8G 1_555 1_555
C9G C8G 1_555 1_555
H7G C9G 1_555 1_555
C10G C9G 1_555 1_555
C11G C6G 1_555 1_555
H8G C11G 1_555 1_555
C12G C10G 1_555 1_555
C13G C14G 1_555 1_555
C14G C15G 1_555 1_555
C15G H9G 1_555 1_555
C16G C15G 1_555 1_555
H10G C16G 1_555 1_555
C17G C16G 1_555 1_555
H11G C17G 1_555 1_555
C18G C17G 1_555 1_555
C19G C14G 1_555 1_555
H12G C19G 1_555 1_555
C20G C18G 1_555 1_555
C21G C20G 1_555 1_555
H13G C21G 1_555 1_555
C22G C21G 1_555 1_555
H14G C22G 1_555 1_555
C23G H15G 1_555 1_555
C24G C20G 1_555 1_555
H16G C24G 1_555 1_555
Cd1B N1 1_555 1_555
Cd1C N1G 1_555 1_555
Cd1B_2 N6 1_555 1_555
Cd1C_2 N6G 1_555 1_555
N1E Cd1 1_555 1_555
N1C Cd1 1_555 1_555
N1G C1G 1_555 1_555
N2G Cd1 1_555 1_555
N3G C13G 1_555 1_555
N4G C12G 1_555 1_555
N5G N4G 1_555 1_555
H21G N5G 1_555 1_555
H22G N5G 1_555 1_555
N6E Cd1 1_555 1_555
N6C Cd1 1_555 1_555
N6G C22G 1_555 1_555
O1F Cl1 1_555 1_555
O2F Cl1 1_555 1_555
O4F Cl2 1_555 1_555
O5F Cl2 1_555 1_555
C5 N1 1_555 1_555
C10 C11 1_555 1_555
C13 N4 1_555 1_555
C18 C19 1_555 1_555
C23 C24 1_555 1_555
C23 N6 1_555 1_555
C28 S1 1_555 1_555
N2 N3 1_555 1_555
C5G N1G 1_555 1_555
C10G C11G 1_555 1_555
C12G N2G 1_555 1_555
C13G N4G 1_555 1_555
C18G C19G 1_555 1_555
C23G C24G 1_555 1_555
C23G N6G 1_555 1_555
N2G N3G 1_555 1_555

#END
