
#######################################################################
#
#                 Cambridge Crystallographic Data Centre
#                                CCDC 
#
#######################################################################
#
# If this CIF has been generated from an entry in the Cambridge 
# Structural Database, then it will include bibliographic, chemical, 
# crystal, experimental, refinement or atomic coordinate data resulting 
# from the CCDC's data processing and validation procedures.
#
#######################################################################

data_OKIXIQ
_symmetry_cell_setting           tetragonal
_symmetry_space_group_name_H-M   'P 43 21 2'
_symmetry_Int_Tables_number      96
_space_group_name_Hall           'P 4nw 2abw'
loop_
_symmetry_equiv_pos_site_id
_symmetry_equiv_pos_as_xyz
1 x,y,z
2 -x,-y,1/2+z
3 1/2-y,1/2+x,3/4+z
4 1/2+y,1/2-x,1/4+z
5 1/2-x,1/2+y,3/4-z
6 1/2+x,1/2-y,1/4-z
7 y,x,-z
8 -y,-x,1/2-z
_cell_length_a                   15.8832(12)
_cell_length_b                   15.8832(12)
_cell_length_c                   21.700(3)
_cell_angle_alpha                90
_cell_angle_beta                 90
_cell_angle_gamma                90
_cell_volume                     5474.39
loop_
_atom_site_label
_atom_site_type_symbol
_atom_site_fract_x
_atom_site_fract_y
_atom_site_fract_z
C1 C 0.4125(4) 0.3593(4) -0.3610(3)
H1 H 0.4631 0.3878 -0.3504
C2 C 0.3830(4) 0.2984(4) -0.3210(3)
H2 H 0.4133 0.2854 -0.2845
C3 C 0.3087(4) 0.2562(4) -0.3347(3)
C4 C 0.2645(4) 0.2851(4) -0.3860(3)
H3 H 0.2099 0.2638 -0.3948
C5 C 0.2999(4) 0.3439(4) -0.4235(3)
H4 H 0.2697 0.3601 -0.4594
C6 C 0.2772(4) 0.1835(4) -0.2976(3)
C7 C 0.3062(4) 0.1682(4) -0.2381(3)
H5 H 0.3462 0.2051 -0.2199
C8 C 0.2767(4) 0.0994(4) -0.2053(3)
H6 H 0.2971 0.0893 -0.1648
C9 C 0.2176(4) 0.0448(4) -0.2308(2)
H7 H 0.1978 -0.0024 -0.2082
C10 C 0.1880(4) 0.0610(3) -0.2905(2)
C11 C 0.2174(4) 0.1296(4) -0.3227(3)
H8 H 0.1964 0.1403 -0.3629
C12 C 0.1265(3) 0.0054(3) -0.3201(2)
C13 C 0.0755(3) -0.0917(3) -0.3817(2)
C14 C 0.0673(3) -0.1614(3) -0.4256(2)
C15 C -0.0050(4) -0.1651(4) -0.4621(3)
H9 H -0.0461 -0.1217 -0.4595
C16 C -0.0164(4) -0.2312(4) -0.5013(4)
H10 H -0.0666 -0.2341 -0.5250
C17 C 0.0428(4) -0.2934(4) -0.5074(3)
H11 H 0.0343 -0.3376 -0.5362
C18 C 0.1156(4) -0.2920(4) -0.4713(3)
C19 C 0.1269(4) -0.2250(3) -0.4304(3)
H12 H 0.1761 -0.2229 -0.4056
C20 C 0.1817(4) -0.3579(4) -0.4779(3)
C21 C 0.1893(4) -0.4066(4) -0.5300(3)
H13 H 0.1490 -0.4013 -0.5620
C22 C 0.2554(4) -0.4636(4) -0.5363(3)
H14 H 0.2596 -0.4952 -0.5733
C23 C 0.3040(4) -0.4304(4) -0.4409(3)
H15 H 0.3440 -0.4388 -0.4089
C24 C 0.2413(4) -0.3731(4) -0.4310(3)
H16 H 0.2379 -0.3437 -0.3929
Cd1 Cd -0.05872(2) 0.05872(2) -0.2500
N2 N 0.3747(3) 0.3804(3) -0.4130(2)
N3 N 0.0444(3) 0.0061(3) -0.3163(2)
N4 N 0.0122(3) -0.0549(3) -0.3548(2)
N5 N 0.1487(3) -0.0555(3) -0.3611(2)
N6 N 0.2305(3) -0.0740(3) -0.3822(3)
H23 H 0.2552 -0.0258 -0.3959
H24 H 0.2614 -0.0958 -0.3507
N7 N 0.3130(3) -0.4755(3) -0.4925(2)
C1G C -0.3593(4) -0.4125(4) -0.1390(3)
H1G H -0.3878 -0.4631 -0.1496
C2G C -0.2984(4) -0.3830(4) -0.1790(3)
H2G H -0.2854 -0.4133 -0.2155
C3G C -0.2562(4) -0.3087(4) -0.1653(3)
C4G C -0.2851(4) -0.2645(4) -0.1140(3)
H3G H -0.2638 -0.2099 -0.1052
C5G C -0.3439(4) -0.2999(4) -0.0765(3)
H4G H -0.3601 -0.2697 -0.0406
C6G C -0.1835(4) -0.2772(4) -0.2024(3)
C7G C -0.1682(4) -0.3062(4) -0.2619(3)
H5G H -0.2051 -0.3462 -0.2801
C8G C -0.0994(4) -0.2767(4) -0.2947(3)
H6G H -0.0893 -0.2971 -0.3352
C9G C -0.0448(4) -0.2176(4) -0.2692(2)
H7G H 0.0024 -0.1978 -0.2918
C10G C -0.0610(3) -0.1880(4) -0.2095(2)
C11G C -0.1296(4) -0.2174(4) -0.1773(3)
H8G H -0.1403 -0.1964 -0.1371
C12G C -0.0054(3) -0.1265(3) -0.1799(2)
C13G C 0.0917(3) -0.0755(3) -0.1183(2)
C14G C 0.1614(3) -0.0673(3) -0.0744(2)
C15G C 0.1651(4) 0.0050(4) -0.0379(3)
H9G H 0.1217 0.0461 -0.0405
C16G C 0.2312(4) 0.0164(4) 0.0013(4)
H10G H 0.2341 0.0666 0.0250
C17G C 0.2934(4) -0.0428(4) 0.0074(3)
H11G H 0.3376 -0.0343 0.0362
C18G C 0.2920(4) -0.1156(4) -0.0287(3)
C19G C 0.2250(3) -0.1269(4) -0.0696(3)
H12G H 0.2229 -0.1761 -0.0944
C20G C 0.3579(4) -0.1817(4) -0.0221(3)
C21G C 0.4066(4) -0.1893(4) 0.0300(3)
H13G H 0.4013 -0.1490 0.0620
C22G C 0.4636(4) -0.2554(4) 0.0363(3)
H14G H 0.4952 -0.2596 0.0733
C23G C 0.4304(4) -0.3040(4) -0.0591(3)
H15G H 0.4388 -0.3440 -0.0911
C24G C 0.3731(4) -0.2413(4) -0.0690(3)
H16G H 0.3437 -0.2379 -0.1071
Cd1B Cd 0.44128(2) 0.44128(2) -0.5000
Cd1C Cd -0.44128(2) -0.44128(2) 0.0000
Cd1B_2 Cd 0.44128(2) -0.55872(2) -0.5000
Cd1C_2 Cd 0.55872(2) -0.44128(2) 0.0000
N2E N -0.1253(3) 0.1196(3) -0.3370(2)
N2C N -0.1196(3) 0.1253(3) -0.1630(2)
N2G N -0.3804(3) -0.3747(3) -0.0870(2)
N3G N -0.0061(3) -0.0444(3) -0.1837(2)
N4G N 0.0549(3) -0.0122(3) -0.1452(2)
N5G N 0.0555(3) -0.1487(3) -0.1389(2)
N6G N 0.0740(3) -0.2305(3) -0.1178(3)
H23G H 0.0258 -0.2552 -0.1041
H24G H 0.0958 -0.2614 -0.1493
N7E N -0.1870(3) -0.0245(3) -0.2575(2)
N7C N 0.0245(3) 0.1870(3) -0.2425(2)
N7G N 0.4755(3) -0.3130(3) -0.0075(2)
C25 C -0.0316(9) 0.5849(9) 0.9826(6)
C26 C -0.0702(8) 0.6155(7) 0.9296(8)
H17 H -0.1101 0.6598 0.9324
C27 C -0.0503(9) 0.5812(9) 0.8725(6)
H18 H -0.0767 0.6021 0.8363
C28 C 0.0082(10) 0.5164(9) 0.8683(6)
H19 H 0.0218 0.4929 0.8293
C29 C 0.0468(7) 0.4858(7) 0.9213(8)
C30 C 0.0269(8) 0.5201(9) 0.9784(6)
H20 H 0.0533 0.4992 1.0146
N1 N 0.1013(11) 0.4299(10) 0.9205(10)
H21 H 0.1253 0.4138 0.9551
H22 H 0.1159 0.4064 0.8854
C31 C -0.0596(14) 0.6169(13) 1.0442(8)
H25 H -0.0454 0.6767 1.0479
H26 H -0.0312 0.5851 1.0768
H27 H -0.1207 0.6098 1.0481
Cl1 Cl -0.62082(13) 0.62082(13) 0.2500
O4 O -0.6128(13) 0.6770(9) 0.2060(8)
O5 O -0.6348(16) 0.5581(8) 0.2155(5)
O4G O -0.6770(9) 0.6128(13) 0.2940(8)
O5G O -0.5581(8) 0.6348(16) 0.2845(5)
Cl2? Cl -0.7393(7) 0.2801(7) 0.0025(15)
O1? O -0.7651(6) 0.2378(6) -0.0517(3)
O2? O -0.6722(6) 0.3278(6) 0.0000
O3? O -0.7846(13) 0.3521(9) 0.0014(14)
loop_
_geom_bond_atom_site_label_1
_geom_bond_atom_site_label_2
_geom_bond_site_symmetry_1
_geom_bond_site_symmetry_2
C1 H1 1_555 1_555
C2 C1 1_555 1_555
H2 C2 1_555 1_555
C3 C2 1_555 1_555
C4 C3 1_555 1_555
H3 C4 1_555 1_555
C5 C4 1_555 1_555
H4 C5 1_555 1_555
C6 C3 1_555 1_555
C7 C6 1_555 1_555
H5 C7 1_555 1_555
C8 C7 1_555 1_555
H6 C8 1_555 1_555
C9 C8 1_555 1_555
H7 C9 1_555 1_555
C10 C9 1_555 1_555
C11 C6 1_555 1_555
H8 C11 1_555 1_555
C12 C10 1_555 1_555
C13 C14 1_555 1_555
C14 C15 1_555 1_555
C15 H9 1_555 1_555
C16 C15 1_555 1_555
H10 C16 1_555 1_555
C17 C16 1_555 1_555
H11 C17 1_555 1_555
C18 C17 1_555 1_555
C19 C14 1_555 1_555
H12 C19 1_555 1_555
C20 C18 1_555 1_555
C21 C20 1_555 1_555
H13 C21 1_555 1_555
C22 C21 1_555 1_555
H14 C22 1_555 1_555
C23 H15 1_555 1_555
C24 C20 1_555 1_555
H16 C24 1_555 1_555
C25 C26 1_555 1_555
C26 H17 1_555 1_555
C27 C26 1_555 1_555
H18 C27 1_555 1_555
C28 C27 1_555 1_555
H19 C28 1_555 1_555
C29 C28 1_555 1_555
C30 C25 1_555 1_555
H20 C30 1_555 1_555
N1 C29 1_555 1_555
H21 N1 1_555 1_555
H22 N1 1_555 1_555
Cd1 N3 1_555 1_555
Cl1 O4 1_555 1_555
N2 C1 1_555 1_555
N3 C12 1_555 1_555
N4 C13 1_555 1_555
N5 C12 1_555 1_555
N6 N5 1_555 1_555
H23 N6 1_555 1_555
H24 N6 1_555 1_555
N7 C22 1_555 1_555
C31 C25 1_555 1_555
H25 C31 1_555 1_555
H26 C31 1_555 1_555
H27 C31 1_555 1_555
O5 Cl1 1_555 1_555
C1G H1G 1_555 1_555
C2G C1G 1_555 1_555
H2G C2G 1_555 1_555
C3G C2G 1_555 1_555
C4G C3G 1_555 1_555
H3G C4G 1_555 1_555
C5G C4G 1_555 1_555
H4G C5G 1_555 1_555
C6G C3G 1_555 1_555
C7G C6G 1_555 1_555
H5G C7G 1_555 1_555
C8G C7G 1_555 1_555
H6G C8G 1_555 1_555
C9G C8G 1_555 1_555
H7G C9G 1_555 1_555
C10G C9G 1_555 1_555
C11G C6G 1_555 1_555
H8G C11G 1_555 1_555
C12G C10G 1_555 1_555
C13G C14G 1_555 1_555
C14G C15G 1_555 1_555
C15G H9G 1_555 1_555
C16G C15G 1_555 1_555
H10G C16G 1_555 1_555
C17G C16G 1_555 1_555
H11G C17G 1_555 1_555
C18G C17G 1_555 1_555
C19G C14G 1_555 1_555
H12G C19G 1_555 1_555
C20G C18G 1_555 1_555
C21G C20G 1_555 1_555
H13G C21G 1_555 1_555
C22G C21G 1_555 1_555
H14G C22G 1_555 1_555
C23G H15G 1_555 1_555
C24G C20G 1_555 1_555
H16G C24G 1_555 1_555
Cd1B N2 1_555 1_555
Cd1C N2G 1_555 1_555
Cd1B_2 N7 1_555 1_555
Cd1C_2 N7G 1_555 1_555
N2E Cd1 1_555 1_555
N2C Cd1 1_555 1_555
N2G C1G 1_555 1_555
N3G Cd1 1_555 1_555
N4G C13G 1_555 1_555
N5G C12G 1_555 1_555
N6G N5G 1_555 1_555
H23G N6G 1_555 1_555
H24G N6G 1_555 1_555
N7E Cd1 1_555 1_555
N7C Cd1 1_555 1_555
N7G C22G 1_555 1_555
O4G Cl1 1_555 1_555
O5G Cl1 1_555 1_555
C5 N2 1_555 1_555
C10 C11 1_555 1_555
C13 N5 1_555 1_555
C18 C19 1_555 1_555
C23 C24 1_555 1_555
C23 N7 1_555 1_555
C29 C30 1_555 1_555
N3 N4 1_555 1_555
C5G N2G 1_555 1_555
C10G C11G 1_555 1_555
C12G N3G 1_555 1_555
C13G N5G 1_555 1_555
C18G C19G 1_555 1_555
C23G C24G 1_555 1_555
C23G N7G 1_555 1_555
N3G N4G 1_555 1_555

#END
