
#######################################################################
#
#                 Cambridge Crystallographic Data Centre
#                                CCDC 
#
#######################################################################
#
# If this CIF has been generated from an entry in the Cambridge 
# Structural Database, then it will include bibliographic, chemical, 
# crystal, experimental, refinement or atomic coordinate data resulting 
# from the CCDC's data processing and validation procedures.
#
#######################################################################

data_OKIYIR03
_symmetry_cell_setting           tetragonal
_symmetry_space_group_name_H-M   'P 43 21 2'
_symmetry_Int_Tables_number      96
_space_group_name_Hall           'P 4nw 2abw'
loop_
_symmetry_equiv_pos_site_id
_symmetry_equiv_pos_as_xyz
1 x,y,z
2 -x,-y,1/2+z
3 1/2-y,1/2+x,3/4+z
4 1/2+y,1/2-x,1/4+z
5 1/2-x,1/2+y,3/4-z
6 1/2+x,1/2-y,1/4-z
7 y,x,-z
8 -y,-x,1/2-z
_cell_length_a                   15.8562(13)
_cell_length_b                   15.8562(13)
_cell_length_c                   21.765(4)
_cell_angle_alpha                90
_cell_angle_beta                 90
_cell_angle_gamma                90
_cell_volume                     5472.14
loop_
_atom_site_label
_atom_site_type_symbol
_atom_site_fract_x
_atom_site_fract_y
_atom_site_fract_z
C1 C 0.2530(3) -0.4643(4) -0.5346(3)
H1 H 0.2569 -0.4952 -0.5708
C2 C 0.1868(3) -0.4081(3) -0.5282(3)
H2 H 0.1468 -0.4034 -0.5593
C3 C 0.1795(3) -0.3591(3) -0.4761(3)
C4 C 0.2393(3) -0.3744(3) -0.4306(3)
H3 H 0.2361 -0.3456 -0.3934
C5 C 0.3032(4) -0.4319(3) -0.4400(2)
H4 H 0.3424 -0.4401 -0.4088
C6 C 0.1146(3) -0.2926(3) -0.4700(3)
C7 C 0.0413(4) -0.2934(3) -0.5059(3)
H5 H 0.0327 -0.3371 -0.5338
C8 C -0.0176(4) -0.2310(4) -0.5006(3)
H6 H -0.0665 -0.2339 -0.5240
C9 C -0.0060(4) -0.1635(4) -0.4613(3)
H7 H -0.0457 -0.1204 -0.4591
C10 C 0.0669(3) -0.1613(3) -0.4246(2)
C11 C 0.1258(3) -0.2256(3) -0.4294(2)
H8 H 0.1739 -0.2239 -0.4050
C12 C 0.0750(3) -0.0914(3) -0.3811(2)
C13 C 0.1257(3) 0.0046(3) -0.3195(2)
C14 C 0.1875(3) 0.0613(3) -0.2891(2)
C15 C 0.2174(4) 0.0448(3) -0.2303(2)
H9 H 0.1989 -0.0025 -0.2088
C16 C 0.2754(4) 0.0999(4) -0.2040(3)
H10 H 0.2947 0.0903 -0.1643
C17 C 0.3046(3) 0.1692(3) -0.2369(2)
H11 H 0.3437 0.2055 -0.2190
C18 C 0.2759(3) 0.1846(3) -0.2961(2)
C19 C 0.2163(3) 0.1302(3) -0.3211(2)
H12 H 0.1957 0.1406 -0.3604
C20 C 0.3068(3) 0.2573(3) -0.3334(2)
C21 C 0.3829(3) 0.2985(3) -0.3202(2)
H13 H 0.4127 0.2851 -0.2847
C22 C 0.4134(3) 0.3588(3) -0.3601(2)
H14 H 0.4635 0.3861 -0.3502
C23 C 0.2983(3) 0.3439(4) -0.4227(2)
H15 H 0.2682 0.3599 -0.4575
C24 C 0.2635(3) 0.2851(3) -0.3849(2)
H16 H 0.2104 0.2635 -0.3937
Cd1 Cd -0.059793(19) 0.059793(19) -0.2500
N1 N 0.3115(3) -0.4763(3) -0.4916(2)
N2 N 0.0111(3) -0.0538(3) -0.35486(18)
N3 N 0.0440(2) 0.0070(3) -0.31629(19)
N4 N 0.1486(3) -0.0563(2) -0.35978(19)
N5 N 0.2304(3) -0.0749(3) -0.3805(3)
H17 H 0.2583 -0.0269 -0.3861
H18 H 0.2570 -0.1062 -0.3526
N6 N 0.3737(3) 0.3802(3) -0.41274(19)
C1G C 0.4643(4) -0.2530(3) 0.0346(3)
H1G H 0.4952 -0.2569 0.0708
C2G C 0.4081(3) -0.1868(3) 0.0282(3)
H2G H 0.4034 -0.1468 0.0593
C3G C 0.3591(3) -0.1795(3) -0.0239(3)
C4G C 0.3744(3) -0.2393(3) -0.0694(3)
H3G H 0.3456 -0.2361 -0.1066
C5G C 0.4319(3) -0.3032(4) -0.0600(2)
H4G H 0.4401 -0.3424 -0.0912
C6G C 0.2926(3) -0.1146(3) -0.0300(3)
C7G C 0.2934(3) -0.0413(4) 0.0059(3)
H5G H 0.3371 -0.0327 0.0338
C8G C 0.2310(4) 0.0176(4) 0.0006(3)
H6G H 0.2339 0.0665 0.0240
C9G C 0.1635(4) 0.0060(4) -0.0387(3)
H7G H 0.1204 0.0457 -0.0409
C10G C 0.1613(3) -0.0669(3) -0.0754(2)
C11G C 0.2256(3) -0.1258(3) -0.0706(2)
H8G H 0.2239 -0.1739 -0.0950
C12G C 0.0914(3) -0.0750(3) -0.1189(2)
C13G C -0.0046(3) -0.1257(3) -0.1805(2)
C14G C -0.0613(3) -0.1875(3) -0.2109(2)
C15G C -0.0448(3) -0.2174(4) -0.2697(2)
H9G H 0.0025 -0.1989 -0.2912
C16G C -0.0999(4) -0.2754(4) -0.2960(3)
H10G H -0.0903 -0.2947 -0.3357
C17G C -0.1692(3) -0.3046(3) -0.2631(2)
H11G H -0.2055 -0.3437 -0.2810
C18G C -0.1846(3) -0.2759(3) -0.2039(2)
C19G C -0.1302(3) -0.2163(3) -0.1789(2)
H12G H -0.1406 -0.1957 -0.1396
C20G C -0.2573(3) -0.3068(3) -0.1666(2)
C21G C -0.2985(3) -0.3829(3) -0.1798(2)
H13G H -0.2851 -0.4127 -0.2153
C22G C -0.3588(3) -0.4134(3) -0.1399(2)
H14G H -0.3861 -0.4635 -0.1498
C23G C -0.3439(4) -0.2983(3) -0.0773(2)
H15G H -0.3599 -0.2682 -0.0425
C24G C -0.2851(3) -0.2635(3) -0.1151(2)
H16G H -0.2635 -0.2104 -0.1063
Cd1B Cd 0.440207(19) 0.440207(19) -0.5000
Cd1B_2 Cd 0.440207(19) -0.559793(19) -0.5000
Cd1C Cd -0.440207(19) -0.440207(19) 0.0000
Cd1C_2 Cd 0.559793(19) -0.440207(19) 0.0000
N1E N -0.1885(3) -0.0237(3) -0.2584(2)
N1C N 0.0237(3) 0.1885(3) -0.2416(2)
N1G N 0.4763(3) -0.3115(3) -0.0084(2)
N2G N 0.0538(3) -0.0111(3) -0.14514(18)
N3G N -0.0070(3) -0.0440(2) -0.18371(19)
N4G N 0.0563(2) -0.1486(3) -0.14022(19)
N5G N 0.0749(3) -0.2304(3) -0.1195(3)
H17G H 0.0269 -0.2583 -0.1139
H18G H 0.1062 -0.2570 -0.1474
N6C N -0.1198(3) 0.1263(3) -0.16274(19)
N6E N -0.1263(3) 0.1198(3) -0.33726(19)
N6G N -0.3802(3) -0.3737(3) -0.08726(19)
Cl1 Cl 0.37385(11) 0.62615(11) 0.2500
O1 O 0.3684(9) 0.5573(9) 0.2120(5)
O2 O 0.3291(16) 0.5941(7) 0.3011(6)
O1G O 0.4427(9) 0.6316(9) 0.2880(5)
O2G O 0.4059(7) 0.6709(16) 0.1989(6)
Cl2 Cl 0.26944(11) 0.26944(11) 0.0000
O4 O 0.2370(5) 0.2329(5) -0.0531(2)
O6 O 0.2172(13) 0.3545(8) 0.0022(12)
O4F O 0.2329(5) 0.2370(5) 0.0531(2)
O6F O 0.3545(8) 0.2172(13) -0.0022(12)
N7 N 1.0956(16) 0.4328(16) 0.9191(9)
H19 H 1.1265 0.4175 0.9496
H20 H 1.1024 0.4097 0.8837
C25 C 1.0385(8) 0.4907(8) 0.9265(6)
C26 C 1.0274(8) 0.5281(9) 0.9837(5)
H21 H 1.0573 0.5082 1.0175
C27 C 0.9716(10) 0.5951(9) 0.9904(7)
H22 H 0.9642 0.6200 1.0287
C28 C 0.9269(9) 0.6247(8) 0.9399(9)
H23 H 0.8896 0.6696 0.9444
C29 C 0.9381(10) 0.5874(10) 0.8827(7)
H24 H 0.9082 0.6073 0.8489
C30 C 0.9938(10) 0.5204(11) 0.8760(5)
H25 H 1.0013 0.4954 0.8377
O3? O 0.2891(12) 0.6567(11) 0.2579(10)
O5? O 0.3269(6) 0.3269(6) 0.0000
loop_
_geom_bond_atom_site_label_1
_geom_bond_atom_site_label_2
_geom_bond_site_symmetry_1
_geom_bond_site_symmetry_2
C1 H1 1_555 1_555
C2 C1 1_555 1_555
H2 C2 1_555 1_555
C3 C2 1_555 1_555
C4 C3 1_555 1_555
H3 C4 1_555 1_555
C5 C4 1_555 1_555
H4 C5 1_555 1_555
C6 C3 1_555 1_555
C7 C6 1_555 1_555
H5 C7 1_555 1_555
C8 C7 1_555 1_555
H6 C8 1_555 1_555
C9 C8 1_555 1_555
H7 C9 1_555 1_555
C10 C9 1_555 1_555
C11 C6 1_555 1_555
H8 C11 1_555 1_555
C12 C10 1_555 1_555
C13 C14 1_555 1_555
C14 C15 1_555 1_555
C15 H9 1_555 1_555
C16 C15 1_555 1_555
H10 C16 1_555 1_555
C17 C16 1_555 1_555
H11 C17 1_555 1_555
C18 C17 1_555 1_555
C19 C14 1_555 1_555
H12 C19 1_555 1_555
C20 C18 1_555 1_555
C21 C20 1_555 1_555
H13 C21 1_555 1_555
C22 C21 1_555 1_555
H14 C22 1_555 1_555
C23 H15 1_555 1_555
C24 C20 1_555 1_555
H16 C24 1_555 1_555
Cd1 N3 1_555 1_555
Cl1 O1 1_555 1_555
Cl2 O4 1_555 1_555
N1 C1 1_555 1_555
N2 C12 1_555 1_555
N3 C13 1_555 1_555
N4 C12 1_555 1_555
N5 N4 1_555 1_555
H17 N5 1_555 1_555
H18 N5 1_555 1_555
N6 C22 1_555 1_555
N7 H19 1_555 1_555
H20 N7 1_555 1_555
C25 N7 1_555 1_555
C26 C25 1_555 1_555
H21 C26 1_555 1_555
C27 C26 1_555 1_555
H22 C27 1_555 1_555
C28 C27 1_555 1_555
H23 C28 1_555 1_555
C29 C28 1_555 1_555
H24 C29 1_555 1_555
C30 C25 1_555 1_555
H25 C30 1_555 1_555
O2 Cl1 1_555 1_555
O6 Cl2 1_555 1_555
C1G H1G 1_555 1_555
C2G C1G 1_555 1_555
H2G C2G 1_555 1_555
C3G C2G 1_555 1_555
C4G C3G 1_555 1_555
H3G C4G 1_555 1_555
C5G C4G 1_555 1_555
H4G C5G 1_555 1_555
C6G C3G 1_555 1_555
C7G C6G 1_555 1_555
H5G C7G 1_555 1_555
C8G C7G 1_555 1_555
H6G C8G 1_555 1_555
C9G C8G 1_555 1_555
H7G C9G 1_555 1_555
C10G C9G 1_555 1_555
C11G C6G 1_555 1_555
H8G C11G 1_555 1_555
C12G C10G 1_555 1_555
C13G C14G 1_555 1_555
C14G C15G 1_555 1_555
C15G H9G 1_555 1_555
C16G C15G 1_555 1_555
H10G C16G 1_555 1_555
C17G C16G 1_555 1_555
H11G C17G 1_555 1_555
C18G C17G 1_555 1_555
C19G C14G 1_555 1_555
H12G C19G 1_555 1_555
C20G C18G 1_555 1_555
C21G C20G 1_555 1_555
H13G C21G 1_555 1_555
C22G C21G 1_555 1_555
H14G C22G 1_555 1_555
C23G H15G 1_555 1_555
C24G C20G 1_555 1_555
H16G C24G 1_555 1_555
Cd1B N6 1_555 1_555
Cd1B_2 N1 1_555 1_555
Cd1C N6G 1_555 1_555
Cd1C_2 N1G 1_555 1_555
N1E Cd1 1_555 1_555
N1C Cd1 1_555 1_555
N1G C1G 1_555 1_555
N2G C12G 1_555 1_555
N3G Cd1 1_555 1_555
N4G C12G 1_555 1_555
N5G N4G 1_555 1_555
H17G N5G 1_555 1_555
H18G N5G 1_555 1_555
N6C Cd1 1_555 1_555
N6E Cd1 1_555 1_555
N6G C22G 1_555 1_555
O1G Cl1 1_555 1_555
O2G Cl1 1_555 1_555
O4F Cl2 1_555 1_555
O6F Cl2 1_555 1_555
C5 N1 1_555 1_555
C10 C11 1_555 1_555
C13 N4 1_555 1_555
C18 C19 1_555 1_555
C23 C24 1_555 1_555
C23 N6 1_555 1_555
N2 N3 1_555 1_555
C29 C30 1_555 1_555
C5G N1G 1_555 1_555
C10G C11G 1_555 1_555
C13G N3G 1_555 1_555
C13G N4G 1_555 1_555
C18G C19G 1_555 1_555
C23G C24G 1_555 1_555
C23G N6G 1_555 1_555
N2G N3G 1_555 1_555

#END
