
#######################################################################
#
#                 Cambridge Crystallographic Data Centre
#                                CCDC 
#
#######################################################################
#
# If this CIF has been generated from an entry in the Cambridge 
# Structural Database, then it will include bibliographic, chemical, 
# crystal, experimental, refinement or atomic coordinate data resulting 
# from the CCDC's data processing and validation procedures.
#
#######################################################################

data_OKOCIB
_symmetry_cell_setting           triclinic
_symmetry_space_group_name_H-M   'P -1'
_symmetry_Int_Tables_number      2
_space_group_name_Hall           '-P 1'
loop_
_symmetry_equiv_pos_site_id
_symmetry_equiv_pos_as_xyz
1 x,y,z
2 -x,-y,-z
_cell_length_a                   10.5152(5)
_cell_length_b                   11.0902(6)
_cell_length_c                   17.2952(9)
_cell_angle_alpha                79.4710(10)
_cell_angle_beta                 77.7490(10)
_cell_angle_gamma                76.8820(10)
_cell_volume                     1900.24
loop_
_atom_site_label
_atom_site_type_symbol
_atom_site_fract_x
_atom_site_fract_y
_atom_site_fract_z
N1 N -0.1114(2) 0.1890(2) 0.37913(13)
C1 C -0.0941(3) 0.0733(3) 0.41964(16)
H1 H -0.0290 0.0066 0.4027
C2 C -0.1853(3) 0.0656(3) 0.48991(17)
H2 H -0.1929 -0.0043 0.5282
C3 C -0.2622(3) 0.1835(3) 0.49112(16)
H3 H -0.3333 0.2088 0.5308
N2 N -0.2160(2) 0.2556(2) 0.42450(13)
C4 C -0.2647(3) 0.3878(2) 0.39589(16)
H4 H -0.2849 0.3950 0.3429
H5 H -0.1954 0.4345 0.3919
C5 C -0.3877(3) 0.4440(2) 0.45107(15)
C6 C -0.5133(3) 0.4525(2) 0.43262(15)
C7 C -0.5272(3) 0.4053(2) 0.35750(16)
H6 H -0.6192 0.4293 0.3508
H7 H -0.4748 0.4463 0.3114
N3 N -0.4854(2) 0.2698(2) 0.35898(13)
C8 C -0.5454(3) 0.1793(3) 0.40484(18)
H8 H -0.6205 0.1909 0.4444
C9 C -0.4758(3) 0.0677(3) 0.38241(19)
H9 H -0.4931 -0.0116 0.4030
C10 C -0.3728(3) 0.0990(3) 0.32171(18)
H10 H -0.3080 0.0409 0.2952
N4 N -0.3787(2) 0.2217(2) 0.30637(14)
C11 C -0.3742(3) 0.4901(2) 0.51812(15)
C12 C -0.2357(3) 0.4811(2) 0.53479(16)
H11 H -0.2368 0.4622 0.5919
H12 H -0.1747 0.4139 0.5096
N5 N -0.1905(2) 0.5993(2) 0.50388(13)
C13 C -0.2077(3) 0.6740(3) 0.43428(17)
H13 H -0.2582 0.6645 0.3985
C14 C -0.1371(3) 0.7663(3) 0.42637(19)
H14 H -0.1296 0.8318 0.3847
C15 C -0.0795(3) 0.7412(3) 0.49360(19)
H15 H -0.0256 0.7897 0.5043
N6 N -0.1105(2) 0.6387(2) 0.54164(15)
O1 O -0.18178(19) 0.33841(19) 0.20321(11)
H16 H -0.2024 0.4129 0.1975
H17 H -0.2485 0.3083 0.2283
O2 O -0.0263(2) 0.06670(18) 0.21911(12)
H18 H 0.0164 0.0009 0.2312
H19 H -0.0534 0.0660 0.1829
O3 O 0.20045(19) 0.15206(19) 0.30317(12)
H20 H 0.2666 0.1845 0.2774
H21 H 0.2270 0.0815 0.3090
O4 O 0.0441(2) 0.41432(19) 0.30373(12)
H22 H 0.0617 0.4049 0.3455
H23 H 0.0341 0.4873 0.2877
N7 N 0.1205(2) 0.3141(2) 0.13019(13)
C16 C 0.0978(3) 0.4312(3) 0.09200(17)
H24 H 0.0342 0.4964 0.1121
C17 C 0.1814(3) 0.4425(3) 0.01855(17)
H25 H 0.1848 0.5140 -0.0189
C18 C 0.2582(3) 0.3252(3) 0.01301(16)
H26 H 0.3243 0.3018 -0.0296
N8 N 0.2202(2) 0.2505(2) 0.08042(13)
C19 C 0.2647(3) 0.1161(2) 0.10283(15)
H27 H 0.1935 0.0738 0.1028
H28 H 0.2827 0.1012 0.1569
C20 C 0.3879(3) 0.0595(2) 0.04794(15)
C21 C 0.3751(3) 0.0197(2) -0.02199(15)
C22 C 0.2392(3) 0.0425(2) -0.04496(16)
H29 H 0.1805 0.1094 -0.0183
H30 H 0.2468 0.0685 -0.1022
N9 N 0.1822(2) -0.0708(2) -0.02276(13)
N10 N 0.1223(2) -0.1077(2) -0.07428(14)
C23 C 0.0792(3) -0.2093(3) -0.03342(19)
H31 H 0.0341 -0.2560 -0.0537
C24 C 0.1094(3) -0.2372(3) 0.04252(18)
H32 H 0.0891 -0.3029 0.0817
C25 C 0.1758(3) -0.1471(3) 0.04750(17)
H33 H 0.2103 -0.1398 0.0914
C26 C 0.5131(3) 0.0413(2) 0.06982(15)
C27 C 0.5259(3) 0.0835(3) 0.14656(16)
H34 H 0.4683 0.0453 0.1911
H35 H 0.6164 0.0540 0.1556
N11 N 0.4919(2) 0.2195(2) 0.14476(13)
C28 C 0.5542(3) 0.3058(3) 0.09626(18)
H36 H 0.6274 0.2906 0.0559
C29 C 0.4899(3) 0.4202(3) 0.11718(19)
H37 H 0.5101 0.4979 0.0946
C30 C 0.3874(3) 0.3946(3) 0.17976(18)
H38 H 0.3259 0.4552 0.2059
Cd1 Cd 0.008182(18) 0.248378(18) 0.255197(11)
N12 N 0.3888(2) 0.2719(2) 0.19735(14)
N1A N -0.8886(2) 0.8110(2) 0.62087(13)
C1A C -0.9059(3) 0.9267(3) 0.58036(16)
H1A H -0.9710 0.9934 0.5973
C2A C -0.8147(3) 0.9344(3) 0.51009(17)
H2A H -0.8071 1.0043 0.4718
C3A C -0.7378(3) 0.8165(3) 0.50888(16)
H3A H -0.6667 0.7912 0.4692
N2A N -0.7840(2) 0.7444(2) 0.57550(13)
C4A C -0.7353(3) 0.6122(2) 0.60411(16)
H4A H -0.7151 0.6050 0.6571
H5A H -0.8046 0.5655 0.6081
C5A C -0.6123(3) 0.5560(2) 0.54893(15)
C6A C -0.4867(3) 0.5475(2) 0.56738(15)
C7A C -0.4728(3) 0.5947(2) 0.64250(16)
H6A H -0.3808 0.5707 0.6492
H7A H -0.5252 0.5537 0.6886
N3A N -0.5146(2) 0.7302(2) 0.64102(13)
C8A C -0.4546(3) 0.8207(3) 0.59516(18)
H8A H -0.3795 0.8091 0.5556
C9A C -0.5242(3) 0.9323(3) 0.61759(19)
H9A H -0.5069 1.0116 0.5970
C10A C -0.6272(3) 0.9010(3) 0.67829(18)
H10A H -0.6920 0.9591 0.7048
N4A N -0.6213(2) 0.7783(2) 0.69363(14)
C11A C -0.6258(3) 0.5099(2) 0.48188(15)
C12A C -0.7643(3) 0.5189(2) 0.46521(16)
H11A H -0.7632 0.5378 0.4081
H12A H -0.8253 0.5861 0.4904
N5A N -0.8095(2) 0.4007(2) 0.49612(13)
C13A C -0.7923(3) 0.3260(3) 0.56572(17)
H13A H -0.7418 0.3355 0.6015
C14A C -0.8629(3) 0.2337(3) 0.57363(19)
H14A H -0.8704 0.1682 0.6153
C15A C -0.9205(3) 0.2588(3) 0.50640(19)
H15A H -0.9744 0.2103 0.4957
N6A N -0.8895(2) 0.3613(2) 0.45836(15)
O1A O -0.81822(19) 0.66159(19) 0.79679(11)
H16A H -0.7976 0.5871 0.8025
H17A H -0.7515 0.6917 0.7717
O2A O -0.9737(2) 0.93330(18) 0.78089(12)
H18A H -1.0164 0.9991 0.7688
H19A H -0.9466 0.9340 0.8171
O3A O -1.20045(19) 0.84794(19) 0.69683(12)
H20A H -1.2666 0.8155 0.7226
H21A H -1.2270 0.9185 0.6910
O4A O -1.0441(2) 0.58568(19) 0.69627(12)
H22A H -1.0617 0.5951 0.6545
H23A H -1.0341 0.5127 0.7123
N7A N 0.8795(2) -0.3141(2) -0.13019(13)
N7A_2 N -1.1205(2) 0.6859(2) 0.86981(13)
C16A C 0.9022(3) -0.4312(3) -0.09200(17)
H24A H 0.9658 -0.4964 -0.1121
C17A C 0.8186(3) -0.4425(3) -0.01855(17)
H25A H 0.8152 -0.5140 0.0189
C18A C 0.7418(3) -0.3252(3) -0.01301(16)
H26A H 0.6757 -0.3018 0.0296
N8A N 0.7798(2) -0.2505(2) -0.08042(13)
C19A C 0.7353(3) -0.1161(2) -0.10283(15)
H27A H 0.8065 -0.0738 -0.1028
H28A H 0.7173 -0.1012 -0.1569
C20A C 0.6121(3) -0.0595(2) -0.04794(15)
C21A C 0.6249(3) -0.0197(2) 0.02199(15)
C22A C 0.7608(3) -0.0425(2) 0.04496(16)
H29A H 0.8195 -0.1094 0.0183
H30A H 0.7532 -0.0685 0.1022
N9A N 0.8178(2) 0.0708(2) 0.02276(13)
N10A N 0.8777(2) 0.1077(2) 0.07428(14)
C23A C 0.9208(3) 0.2093(3) 0.03342(19)
H31A H 0.9659 0.2560 0.0537
C24A C 0.8906(3) 0.2372(3) -0.04252(18)
H32A H 0.9109 0.3029 -0.0817
C25A C 0.8242(3) 0.1471(3) -0.04750(17)
H33A H 0.7897 0.1398 -0.0914
C26A C 0.4869(3) -0.0413(2) -0.06982(15)
C27A C 0.4741(3) -0.0835(3) -0.14656(16)
H34A H 0.5317 -0.0453 -0.1911
H35A H 0.3836 -0.0540 -0.1556
N11A N 0.5081(2) -0.2195(2) -0.14476(13)
C28A C 0.4458(3) -0.3058(3) -0.09626(18)
H36A H 0.3726 -0.2906 -0.0559
C29A C 0.5101(3) -0.4202(3) -0.11718(19)
H37A H 0.4899 -0.4979 -0.0946
C30A C 0.6126(3) -0.3946(3) -0.17976(18)
H38A H 0.6741 -0.4552 -0.2059
Cd1A Cd -1.008182(18) 0.751622(18) 0.744803(11)
Cd1A_2 Cd 0.991818(18) -0.248378(18) -0.255197(11)
N12A N 0.6112(2) -0.2719(2) -0.19735(14)
O5 O 0.0462(3) 0.6521(2) 0.24072(15)
Cl1 Cl 0.27289(8) 0.82351(7) 0.27989(4)
O6 O 0.1295(2) 0.8561(3) 0.29855(18)
O7 O 0.3138(3) 0.6942(2) 0.30454(16)
O8 O 0.3148(3) 0.8560(2) 0.19695(13)
O9 O 0.3269(3) 0.8961(2) 0.32155(14)
Cl2 Cl 0.70762(8) 0.69130(7) 0.21856(4)
O10 O 0.6421(2) 0.6330(2) 0.29173(13)
O11 O 0.6143(3) 0.7586(2) 0.16832(14)
O12 O 0.7752(3) 0.7813(2) 0.23587(15)
O13 O 0.8009(3) 0.6005(2) 0.17734(16)
loop_
_geom_bond_atom_site_label_1
_geom_bond_atom_site_label_2
_geom_bond_site_symmetry_1
_geom_bond_site_symmetry_2
N1 C1 1_555 1_555
C1 H1 1_555 1_555
C2 C1 1_555 1_555
H2 C2 1_555 1_555
C3 C2 1_555 1_555
H3 C3 1_555 1_555
N2 N1 1_555 1_555
C4 N2 1_555 1_555
H4 C4 1_555 1_555
H5 C4 1_555 1_555
C5 C4 1_555 1_555
C6 C5 1_555 1_555
C7 C6 1_555 1_555
H6 C7 1_555 1_555
H7 C7 1_555 1_555
N3 C7 1_555 1_555
C8 N3 1_555 1_555
H8 C8 1_555 1_555
C9 C8 1_555 1_555
H9 C9 1_555 1_555
C10 C9 1_555 1_555
H10 C10 1_555 1_555
N4 N3 1_555 1_555
C11 C5 1_555 1_555
C12 C11 1_555 1_555
H11 C12 1_555 1_555
H12 C12 1_555 1_555
N5 C12 1_555 1_555
C13 N5 1_555 1_555
H13 C13 1_555 1_555
C14 C13 1_555 1_555
H14 C14 1_555 1_555
C15 C14 1_555 1_555
H15 C15 1_555 1_555
N6 N5 1_555 1_555
O1 H16 1_555 1_555
H17 O1 1_555 1_555
O2 H18 1_555 1_555
H19 O2 1_555 1_555
O3 H20 1_555 1_555
H21 O3 1_555 1_555
O4 H22 1_555 1_555
H23 O4 1_555 1_555
N7 C16 1_555 1_555
C16 H24 1_555 1_555
C17 C16 1_555 1_555
H25 C17 1_555 1_555
C18 C17 1_555 1_555
H26 C18 1_555 1_555
N8 N7 1_555 1_555
C19 N8 1_555 1_555
H27 C19 1_555 1_555
H28 C19 1_555 1_555
C20 C19 1_555 1_555
C21 C20 1_555 1_555
C22 C21 1_555 1_555
H29 C22 1_555 1_555
H30 C22 1_555 1_555
N9 C22 1_555 1_555
N10 N9 1_555 1_555
C23 N10 1_555 1_555
H31 C23 1_555 1_555
C24 C23 1_555 1_555
H32 C24 1_555 1_555
C25 N9 1_555 1_555
H33 C25 1_555 1_555
C26 C20 1_555 1_555
C27 C26 1_555 1_555
H34 C27 1_555 1_555
H35 C27 1_555 1_555
N11 C27 1_555 1_555
C28 N11 1_555 1_555
H36 C28 1_555 1_555
C29 C28 1_555 1_555
H37 C29 1_555 1_555
C30 C29 1_555 1_555
H38 C30 1_555 1_555
Cd1 N1 1_555 1_555
N12 N11 1_555 1_555
Cl1 O6 1_555 1_555
O7 Cl1 1_555 1_555
O8 Cl1 1_555 1_555
O9 Cl1 1_555 1_555
Cl2 O10 1_555 1_555
O11 Cl2 1_555 1_555
O12 Cl2 1_555 1_555
O13 Cl2 1_555 1_555
N1A C1A 1_555 1_555
C1A H1A 1_555 1_555
C2A C1A 1_555 1_555
H2A C2A 1_555 1_555
C3A C2A 1_555 1_555
H3A C3A 1_555 1_555
N2A N1A 1_555 1_555
C4A N2A 1_555 1_555
H4A C4A 1_555 1_555
H5A C4A 1_555 1_555
C5A C4A 1_555 1_555
C6A C11 1_555 1_555
C7A C6A 1_555 1_555
H6A C7A 1_555 1_555
H7A C7A 1_555 1_555
N3A C7A 1_555 1_555
C8A N3A 1_555 1_555
H8A C8A 1_555 1_555
C9A C8A 1_555 1_555
H9A C9A 1_555 1_555
C10A C9A 1_555 1_555
H10A C10A 1_555 1_555
N4A N3A 1_555 1_555
C11A C6 1_555 1_555
C12A C11A 1_555 1_555
H11A C12A 1_555 1_555
H12A C12A 1_555 1_555
N5A C12A 1_555 1_555
C13A N5A 1_555 1_555
H13A C13A 1_555 1_555
C14A C13A 1_555 1_555
H14A C14A 1_555 1_555
C15A C14A 1_555 1_555
H15A C15A 1_555 1_555
N6A N5A 1_555 1_555
O1A H16A 1_555 1_555
H17A O1A 1_555 1_555
O2A H18A 1_555 1_555
H19A O2A 1_555 1_555
O3A H20A 1_555 1_555
H21A O3A 1_555 1_555
O4A H22A 1_555 1_555
H23A O4A 1_555 1_555
N7A C16A 1_555 1_555
N7A_2 Cd1A 1_555 1_555
C16A H24A 1_555 1_555
C17A C16A 1_555 1_555
H25A C17A 1_555 1_555
C18A C17A 1_555 1_555
H26A C18A 1_555 1_555
N8A N7A 1_555 1_555
C19A N8A 1_555 1_555
H27A C19A 1_555 1_555
H28A C19A 1_555 1_555
C20A C19A 1_555 1_555
C21A C26 1_555 1_555
C22A C21A 1_555 1_555
H29A C22A 1_555 1_555
H30A C22A 1_555 1_555
N9A C22A 1_555 1_555
N10A N9A 1_555 1_555
C23A N10A 1_555 1_555
H31A C23A 1_555 1_555
C24A C23A 1_555 1_555
H32A C24A 1_555 1_555
C25A N9A 1_555 1_555
H33A C25A 1_555 1_555
C26A C21 1_555 1_555
C27A C26A 1_555 1_555
H34A C27A 1_555 1_555
H35A C27A 1_555 1_555
N11A C27A 1_555 1_555
C28A N11A 1_555 1_555
H36A C28A 1_555 1_555
C29A C28A 1_555 1_555
H37A C29A 1_555 1_555
C30A C29A 1_555 1_555
H38A C30A 1_555 1_555
Cd1A N1A 1_555 1_555
Cd1A_2 N7A 1_555 1_555
N12A N11A 1_555 1_555
C3 N2 1_555 1_555
C10 N4 1_555 1_555
C15 N6 1_555 1_555
O1 Cd1 1_555 1_555
O2 Cd1 1_555 1_555
O3 Cd1 1_555 1_555
O4 Cd1 1_555 1_555
N7 Cd1 1_555 1_555
C18 N8 1_555 1_555
C24 C25 1_555 1_555
C30 N12 1_555 1_555
C3A N2A 1_555 1_555
C5A C6A 1_555 1_555
C5A C11A 1_555 1_555
C10A N4A 1_555 1_555
C15A N6A 1_555 1_555
O1A Cd1A 1_555 1_555
O2A Cd1A 1_555 1_555
O3A Cd1A 1_555 1_555
O4A Cd1A 1_555 1_555
C18A N8A 1_555 1_555
C20A C21A 1_555 1_555
C20A C26A 1_555 1_555
C24A C25A 1_555 1_555
C30A N12A 1_555 1_555

#END
