
#######################################################################
#
#                 Cambridge Crystallographic Data Centre
#                                CCDC 
#
#######################################################################
#
# If this CIF has been generated from an entry in the Cambridge 
# Structural Database, then it will include bibliographic, chemical, 
# crystal, experimental, refinement or atomic coordinate data resulting 
# from the CCDC's data processing and validation procedures.
#
#######################################################################

data_OKOROW
_symmetry_cell_setting           triclinic
_symmetry_space_group_name_H-M   'P -1'
_symmetry_Int_Tables_number      2
_space_group_name_Hall           '-P 1'
loop_
_symmetry_equiv_pos_site_id
_symmetry_equiv_pos_as_xyz
1 x,y,z
2 -x,-y,-z
_cell_length_a                   8.2911(3)
_cell_length_b                   9.9884(4)
_cell_length_c                   10.8264(4)
_cell_angle_alpha                91.984(2)
_cell_angle_beta                 97.495(2)
_cell_angle_gamma                114.189(2)
_cell_volume                     807.024
loop_
_atom_site_label
_atom_site_type_symbol
_atom_site_fract_x
_atom_site_fract_y
_atom_site_fract_z
Na1 Na 0.45213(5) 0.29919(5) 0.02644(4)
B1 B 0.62381(17) 0.23187(14) -0.16277(12)
H1 H 0.4746(15) 0.1885(12) -0.1783(10)
H2 H 0.6777(16) 0.2491(13) -0.0602(12)
H3 H 0.6694(14) 0.1577(12) -0.2141(10)
B2 B 0.63083(18) 0.49857(15) -0.15452(13)
H4 H 0.4833(16) 0.4492(13) -0.1678(11)
H5 H 0.6791(15) 0.5165(13) -0.0496(11)
H6 H 0.6855(15) 0.6107(13) -0.1967(11)
N1 N 0.69709(11) 0.38870(10) -0.21414(8)
H7 H 0.6562(16) 0.3711(13) -0.2927(10)
C1 C 0.89379(15) 0.45287(14) -0.20589(12)
H8 H 0.9338 0.5461 -0.2444
H9 H 0.9286 0.3840 -0.2500
H10 H 0.9495 0.4712 -0.1178
O1 O 0.16124(10) 0.11445(9) -0.02133(9)
C2 C -0.00208(15) 0.13340(13) -0.02961(13)
H11 H -0.0645 0.1086 -0.1173
H12 H 0.0257 0.2378 -0.0049
C3 C 0.12152(16) -0.03729(13) -0.05332(13)
H13 H 0.2343 -0.0506 -0.0448
H14 H 0.0624 -0.0665 -0.1416
Na2 Na 0.40846(5) 0.00875(5) -0.34901(4)
B3 B 0.64400(17) 0.26644(14) 0.25429(12)
H15 H 0.7493(15) 0.2279(12) 0.2877(11)
H16 H 0.5239(16) 0.1711(14) 0.2058(11)
H17 H 0.6900(14) 0.3542(13) 0.1902(11)
N2 N 0.58434(12) 0.32681(9) 0.36925(8)
H18 H 0.4935(14) 0.3426(12) 0.3378(11)
C4 C 0.72575(17) 0.46918(13) 0.42855(12)
H19 H 0.6817 0.5075 0.4949
H20 H 0.7578 0.5398 0.3655
H21 H 0.8316 0.4547 0.4645
B4 B 0.51960(17) 0.21282(14) 0.46911(11)
H22 H 0.4118(16) 0.1065(13) 0.4213(11)
H23 H 0.6396(16) 0.1944(12) 0.5140(11)
H24 H 0.4678(15) 0.2590(13) 0.5410(12)
O2 O 0.11458(10) -0.01518(8) -0.39833(7)
C5 C -0.02224(15) -0.14124(12) -0.47342(12)
H25 H 0.0169 -0.2224 -0.4763
H26 H -0.1329 -0.1753 -0.4353
C6 C 0.06044(16) 0.10389(13) -0.39631(12)
H27 H -0.0483 0.0755 -0.3564
H28 H 0.1566 0.1916 -0.3461
Na1A Na 0.54787(5) 0.70081(5) -0.02644(4)
Na1A_2 Na -0.45213(5) -0.29919(5) -0.02644(4)
Na1A_3 Na 0.54787(5) -0.29919(5) -0.02644(4)
B1A B 0.37619(17) 0.76813(14) 0.16277(12)
H1A H 0.5254(15) 0.8115(12) 0.1783(10)
H2A H 0.3223(16) 0.7509(13) 0.0602(12)
H3A H 0.3306(14) 0.8423(12) 0.2141(10)
B2A B 0.36917(18) 0.50143(15) 0.15452(13)
H4A H 0.5167(16) 0.5508(13) 0.1678(11)
H5A H 0.3209(15) 0.4835(13) 0.0496(11)
H6A H 0.3145(15) 0.3893(13) 0.1967(11)
N1A N 0.30291(11) 0.61130(10) 0.21414(8)
H7A H 0.3438(16) 0.6289(13) 0.2927(10)
C1A C 0.10621(15) 0.54713(14) 0.20589(12)
H8A H 0.0662 0.4539 0.2444
H9A H 0.0714 0.6160 0.2500
H10A H 0.0505 0.5288 0.1178
O1A O -0.16124(10) -0.11445(9) 0.02133(9)
O1A_2 O 0.83876(10) 0.88555(9) 0.02133(9)
C2A C 0.00208(15) -0.13340(13) 0.02961(13)
H11A H 0.0645 -0.1086 0.1173
H12A H -0.0257 -0.2378 0.0049
C3A C -0.12152(16) 0.03729(13) 0.05332(13)
H13A H -0.2343 0.0506 0.0448
H14A H -0.0624 0.0665 0.1416
Na2A Na 0.59154(5) 0.99125(5) 0.34901(4)
Na2A_2 Na 0.59154(5) -0.00875(5) 0.34901(4)
Na2A_3 Na -0.40846(5) -0.00875(5) -0.65099(4)
B3A B 0.35600(17) -0.26644(14) -0.25429(12)
H15A H 0.2507(15) -0.2279(12) -0.2877(11)
H15_2 H 0.7493(15) 1.2279(12) 0.2877(11)
H16A H 0.4761(16) -0.1711(14) -0.2058(11)
H16A_2 H 0.4761(16) 0.8289(14) -0.2058(11)
H16_2 H 0.5239(16) 1.1711(14) 0.2058(11)
H17A H 0.3100(14) -0.3542(13) -0.1902(11)
H17A_2 H 0.3100(14) 0.6458(13) -0.1902(11)
N2A N 0.41566(12) -0.32681(9) -0.36925(8)
H18A H 0.5065(14) -0.3426(12) -0.3378(11)
C4A C 0.27425(17) -0.46918(13) -0.42855(12)
H19A H 0.3183 -0.5075 -0.4949
H20A H 0.2422 -0.5398 -0.3655
H21A H 0.1684 -0.4547 -0.4645
B4A B 0.48040(17) -0.21282(14) -0.46911(11)
H22A H 0.5882(16) -0.1065(13) -0.4213(11)
H22_2 H 0.4118(16) 1.1065(13) 0.4213(11)
H23A H 0.3604(16) -0.1944(12) -0.5140(11)
H23_2 H 0.6396(16) 1.1944(12) 0.5140(11)
H24A H 0.5322(15) -0.2590(13) -0.5410(12)
O2A O -0.11458(10) 0.01518(8) -0.60167(7)
O2A_2 O 0.88542(10) 1.01518(8) 0.39833(7)
C5A C 0.02224(15) 0.14124(12) -0.52658(12)
H25A H -0.0169 0.2224 -0.5237
H26A H 0.1329 0.1753 -0.5647
C6A C -0.06044(16) -0.10389(13) -0.60369(12)
H27A H 0.0483 -0.0755 -0.6436
H28A H -0.1566 -0.1916 -0.6539
loop_
_geom_bond_atom_site_label_1
_geom_bond_atom_site_label_2
_geom_bond_site_symmetry_1
_geom_bond_site_symmetry_2
Na1 H1 1_555 1_555
B1 H1 1_555 1_555
H1 Na2 1_555 1_555
H2 Na1 1_555 1_555
H3 B1 1_555 1_555
B2 H4 1_555 1_555
H4 Na1 1_555 1_555
H5 Na1 1_555 1_555
H6 B2 1_555 1_555
N1 B1 1_555 1_555
H7 N1 1_555 1_555
C1 N1 1_555 1_555
H8 C1 1_555 1_555
H9 C1 1_555 1_555
H10 C1 1_555 1_555
O1 Na1 1_555 1_555
C2 O1 1_555 1_555
H11 C2 1_555 1_555
H12 C2 1_555 1_555
C3 O1 1_555 1_555
H13 C3 1_555 1_555
H14 C3 1_555 1_555
Na2 H3 1_555 1_555
B3 H15 1_555 1_555
H15 Na2A_2 1_555 1_555
H16 Na1 1_555 1_555
H17 Na1 1_555 1_555
N2 B3 1_555 1_555
H18 N2 1_555 1_555
C4 N2 1_555 1_555
H19 C4 1_555 1_555
H20 C4 1_555 1_555
H21 C4 1_555 1_555
B4 N2 1_555 1_555
H22 B4 1_555 1_555
H23 B4 1_555 1_555
H24 B4 1_555 1_555
O2 Na2 1_555 1_555
C5 O2 1_555 1_555
H25 C5 1_555 1_555
H26 C5 1_555 1_555
C6 O2 1_555 1_555
H27 C6 1_555 1_555
H28 C6 1_555 1_555
Na1A H5 1_555 1_555
Na1A_2 O1A 1_555 1_555
Na1A_3 H16A 1_555 1_555
B1A H1A 1_555 1_555
H1A Na1A 1_555 1_555
H2A Na1A 1_555 1_555
H3A B1A 1_555 1_555
B2A H4A 1_555 1_555
H4A Na1A 1_555 1_555
H5A Na1 1_555 1_555
H6A Na1 1_555 1_555
N1A B1A 1_555 1_555
H7A N1A 1_555 1_555
C1A N1A 1_555 1_555
H8A C1A 1_555 1_555
H9A C1A 1_555 1_555
H10A C1A 1_555 1_555
O1A C2A 1_555 1_555
O1A_2 Na1A 1_555 1_555
C2A C3 1_555 1_555
H11A C2A 1_555 1_555
H12A C2A 1_555 1_555
C3A C2 1_555 1_555
H13A C3A 1_555 1_555
H14A C3A 1_555 1_555
Na2A H1A 1_555 1_555
Na2A_2 H16 1_555 1_555
Na2A_3 O2A 1_555 1_555
B3A H15A 1_555 1_555
H15A Na2 1_555 1_555
H15_2 Na2A 1_555 1_555
H16A Na2 1_555 1_555
H16A_2 Na1A 1_555 1_555
H16_2 Na2A 1_555 1_555
H17A Na1A_3 1_555 1_555
H17A_2 Na1A 1_555 1_555
N2A B3A 1_555 1_555
H18A N2A 1_555 1_555
C4A N2A 1_555 1_555
H19A C4A 1_555 1_555
H20A C4A 1_555 1_555
H21A C4A 1_555 1_555
B4A N2A 1_555 1_555
H22A Na2 1_555 1_555
H22_2 Na2A 1_555 1_555
H23A Na2 1_555 1_555
H23_2 Na2A 1_555 1_555
H24A B4A 1_555 1_555
O2A C5A 1_555 1_555
O2A_2 Na2A 1_555 1_555
C5A C6 1_555 1_555
H25A C5A 1_555 1_555
H26A C5A 1_555 1_555
C6A C5 1_555 1_555
H27A C6A 1_555 1_555
H28A C6A 1_555 1_555
B1 H2 1_555 1_555
B2 H5 1_555 1_555
B2 N1 1_555 1_555
H6 Na1A 1_555 1_555
B3 H16 1_555 1_555
B3 H17 1_555 1_555
H22 Na2A_2 1_555 1_555
H23 Na2A_2 1_555 1_555
Na1A H5A 1_555 1_555
B1A H2A 1_555 1_555
H3A Na2A 1_555 1_555
B2A H5A 1_555 1_555
B2A H6A 1_555 1_555
B2A N1A 1_555 1_555
O1A C3A 1_555 1_555
B3A H16A 1_555 1_555
B3A H17A 1_555 1_555
B4A H22A 1_555 1_555
B4A H23A 1_555 1_555
O2A C6A 1_555 1_555

#END
