
#######################################################################
#
#                 Cambridge Crystallographic Data Centre
#                                CCDC 
#
#######################################################################
#
# If this CIF has been generated from an entry in the Cambridge 
# Structural Database, then it will include bibliographic, chemical, 
# crystal, experimental, refinement or atomic coordinate data resulting 
# from the CCDC's data processing and validation procedures.
#
#######################################################################

data_OKUHAE
_symmetry_cell_setting           monoclinic
_symmetry_space_group_name_H-M   'P 21/a'
_symmetry_Int_Tables_number      14
_space_group_name_Hall           '-P 2yab'
loop_
_symmetry_equiv_pos_site_id
_symmetry_equiv_pos_as_xyz
1 x,y,z
2 1/2-x,1/2+y,-z
3 -x,-y,-z
4 1/2+x,1/2-y,z
_cell_length_a                   12.800(8)
_cell_length_b                   12.046(10)
_cell_length_c                   14.400(9)
_cell_angle_alpha                90
_cell_angle_beta                 91.88(2)
_cell_angle_gamma                90
_cell_volume                     2219.12
loop_
_atom_site_label
_atom_site_type_symbol
_atom_site_fract_x
_atom_site_fract_y
_atom_site_fract_z
Cu1 Cu 0.31059(6) 0.51576(6) 0.08310(5)
Cu2 Cu 0.09246(6) 0.01826(6) 0.15338(5)
Cl1 Cl 0.45832(13) 0.59720(14) 0.12903(15)
Cl2 Cl 0.26886(13) 0.47262(14) -0.06613(11)
O1 O -0.0075(3) 0.3715(3) 0.2758(2)
O2 O 0.2200(3) 0.3494(3) 0.3674(2)
N1 N 0.1927(3) 0.5003(3) 0.1659(3)
N2 N 0.0554(3) 0.4410(3) 0.2422(3)
N3 N 0.1141(3) 0.1217(3) 0.2554(3)
N4 N 0.1771(3) 0.2568(3) 0.3470(3)
C1 C 0.1718(4) 0.2953(4) 0.1761(3)
C2 C 0.1034(4) 0.2624(4) 0.0899(3)
C3 C 0.2876(4) 0.2797(4) 0.1559(4)
C4 C 0.1456(4) 0.4145(4) 0.1960(3)
C5 C 0.1264(5) 0.6013(5) 0.1840(4)
C6 C 0.0478(4) 0.5636(4) 0.2534(4)
C7 C 0.1878(5) 0.7002(5) 0.2010(7)
C8 C 0.0634(6) 0.6211(7) 0.0897(5)
C9 C 0.0892(7) 0.5852(6) 0.3550(5)
C10 C -0.0648(5) 0.6042(6) 0.2498(6)
C11 C 0.1495(3) 0.2223(4) 0.2580(3)
C12 C 0.0997(4) 0.0827(4) 0.3542(3)
C13 C 0.1719(4) 0.1624(5) 0.4131(3)
C14 C 0.1306(4) -0.0392(4) 0.3616(4)
C15 C -0.0154(4) 0.0962(5) 0.3690(4)
C16 C 0.2841(4) 0.1214(5) 0.4277(4)
C17 C 0.1296(5) 0.2017(5) 0.5041(4)
H1 H 0.0921 0.3256 0.0513
H2 H 0.0380 0.2350 0.1094
H3 H 0.1378 0.2064 0.0560
H4 H 0.3085 0.2065 0.1725
H5 H 0.3281 0.3317 0.1912
H6 H 0.2980 0.2913 0.0916
H7 H 0.2033 0.7072 0.2657
H8 H 0.1494 0.7632 0.1799
H9 H 0.2511 0.6953 0.1686
H10 H 0.1021 0.6690 0.0513
H11 H -0.0021 0.6541 0.1018
H12 H 0.0524 0.5521 0.0590
H13 H 0.0328 0.5811 0.3961
H14 H 0.1201 0.6568 0.3588
H15 H 0.1400 0.5306 0.3719
H16 H -0.0979 0.5799 0.1934
H17 H -0.0662 0.6830 0.2524
H18 H -0.1028 0.5568 0.3089
H19 H 0.0710 -0.0844 0.3488
H20 H 0.1573 -0.0542 0.4227
H21 H 0.1827 -0.0551 0.3181
H22 H -0.0282 0.1680 0.3935
H23 H -0.0377 0.0415 0.4116
H24 H -0.0529 0.0877 0.3115
H25 H 0.2981 0.0657 0.3831
H26 H 0.2931 0.0913 0.4884
H27 H 0.3310 0.1817 0.4206
H28 H 0.1859 0.2250 0.5442
H29 H 0.0932 0.1427 0.5325
H30 H 0.0832 0.2622 0.4930
Cu2A Cu 0.40754(6) 0.51826(6) -0.15338(5)
Cu2C Cu 0.59246(6) 0.48174(6) 0.15338(5)
Cl1C Cl -0.04168(13) -0.09720(14) 0.12903(15)
Cl2A Cl 0.23114(13) -0.02738(14) 0.06613(11)
loop_
_geom_bond_atom_site_label_1
_geom_bond_atom_site_label_2
_geom_bond_site_symmetry_1
_geom_bond_site_symmetry_2
Cu1 Cl1 1_555 1_555
Cu2 N3 1_555 1_555
Cl1 Cu2C 1_555 1_555
Cl2 Cu1 1_555 1_555
O1 N2 1_555 1_555
O2 N4 1_555 1_555
N1 Cu1 1_555 1_555
N2 C4 1_555 1_555
N3 C11 1_555 1_555
N4 C11 1_555 1_555
C1 C2 1_555 1_555
C2 H1 1_555 1_555
C3 C1 1_555 1_555
C4 N1 1_555 1_555
C5 N1 1_555 1_555
C6 N2 1_555 1_555
C7 C5 1_555 1_555
C8 C5 1_555 1_555
C9 C6 1_555 1_555
C10 C6 1_555 1_555
C11 C1 1_555 1_555
C12 N3 1_555 1_555
C13 N4 1_555 1_555
C14 C12 1_555 1_555
C15 C12 1_555 1_555
C16 C13 1_555 1_555
C17 C13 1_555 1_555
H2 C2 1_555 1_555
H3 C2 1_555 1_555
H4 C3 1_555 1_555
H5 C3 1_555 1_555
H6 C3 1_555 1_555
H7 C7 1_555 1_555
H8 C7 1_555 1_555
H9 C7 1_555 1_555
H10 C8 1_555 1_555
H11 C8 1_555 1_555
H12 C8 1_555 1_555
H13 C9 1_555 1_555
H14 C9 1_555 1_555
H15 C9 1_555 1_555
H16 C10 1_555 1_555
H17 C10 1_555 1_555
H18 C10 1_555 1_555
H19 C14 1_555 1_555
H20 C14 1_555 1_555
H21 C14 1_555 1_555
H22 C15 1_555 1_555
H23 C15 1_555 1_555
H24 C15 1_555 1_555
H25 C16 1_555 1_555
H26 C16 1_555 1_555
H27 C16 1_555 1_555
H28 C17 1_555 1_555
H29 C17 1_555 1_555
H30 C17 1_555 1_555
Cu2A Cl2 1_555 1_555
Cl1C Cu2 1_555 1_555
Cl2A Cu2 1_555 1_555
C1 C4 1_555 1_555
C5 C6 1_555 1_555
C12 C13 1_555 1_555

#END
