
#######################################################################
#
#                 Cambridge Crystallographic Data Centre
#                                CCDC 
#
#######################################################################
#
# If this CIF has been generated from an entry in the Cambridge 
# Structural Database, then it will include bibliographic, chemical, 
# crystal, experimental, refinement or atomic coordinate data resulting 
# from the CCDC's data processing and validation procedures.
#
#######################################################################

data_OKUQAM
_symmetry_cell_setting           orthorhombic
_symmetry_space_group_name_H-M   'C 2 2 21'
_symmetry_Int_Tables_number      20
_space_group_name_Hall           'C 2n 2'
loop_
_symmetry_equiv_pos_site_id
_symmetry_equiv_pos_as_xyz
1 x,y,z
2 -x,-y,1/2+z
3 -x,y,1/2-z
4 x,-y,-z
5 1/2+x,1/2+y,z
6 1/2-x,1/2-y,1/2+z
7 1/2-x,1/2+y,1/2-z
8 1/2+x,1/2-y,-z
_cell_length_a                   8.196(13)
_cell_length_b                   24.75(4)
_cell_length_c                   29.54(5)
_cell_angle_alpha                90
_cell_angle_beta                 90
_cell_angle_gamma                90
_cell_volume                     5992.22
loop_
_atom_site_label
_atom_site_type_symbol
_atom_site_fract_x
_atom_site_fract_y
_atom_site_fract_z
Er1 Er -1.0000 -1.02017(3) -0.2500
Er2 Er -0.5000 -0.95458(3) -0.2500
Er3 Er -1.01700(9) -0.74554(3) 0.01757(2)
O1 O -0.7930(15) -0.9942(5) -0.2015(5)
O2 O -0.6310(17) -0.9263(5) -0.1845(5)
O3 O -0.9172(16) -0.8235(5) -0.0088(5)
O4 O -0.6721(17) -0.8246(5) -0.0412(5)
O5 O -1.3468(15) -0.7722(5) -0.0758(4)
O6 O -1.1150(14) -0.7348(4) -0.0518(4)
O7 O -1.3256(18) -0.8947(4) -0.2191(5)
O8 O -1.0943(16) -0.9425(4) -0.2128(5)
O9 O -1.1563(17) -1.0528(5) -0.1897(5)
O10 O -1.4020(15) -1.0187(4) -0.2026(5)
O11 O -1.1225(16) -1.1953(5) -0.0728(5)
O12 O -1.2982(16) -1.2002(4) -0.0166(5)
N1 N -0.851(2) -1.1087(5) -0.2260(5)
C1 C -0.747(3) -0.9585(7) -0.1732(8)
C2 C -0.823(2) -0.9500(7) -0.1287(7)
C3 C -0.946(2) -0.9844(6) -0.1123(6)
H1 H -0.9814 -1.0136 -0.1295
C4 C -1.014(4) -0.9748(7) -0.0714(8)
H2 H -1.0872 -1.0000 -0.0599
C5 C -0.980(3) -0.9292(6) -0.0459(7)
H3 H -1.0388 -0.9210 -0.0198
C6 C -0.853(2) -0.8964(7) -0.0608(6)
C7 C -0.817(2) -0.8453(7) -0.0339(8)
C8 C -0.774(2) -0.9074(6) -0.1019(7)
H4 H -0.6871 -0.8857 -0.1111
C9 C -1.195(2) -0.7643(7) -0.0806(6)
C10 C -1.1124(19) -0.7885(7) -0.1195(6)
C11 C -0.9559(19) -0.7736(7) -0.1295(6)
H5 H -0.9072 -0.7468 -0.1120
C12 C -0.864(2) -0.7971(7) -0.1652(8)
H6 H -0.7594 -0.7854 -0.1724
C13 C -0.941(2) -0.8389(8) -0.1890(7)
H7 H -0.8822 -0.8573 -0.2111
C14 C -1.101(2) -0.8539(7) -0.1806(7)
C15 C -1.175(2) -0.9010(7) -0.2062(7)
C16 C -1.183(2) -0.8294(6) -0.1458(6)
H8 H -1.2895 -0.8402 -0.1394
C17 C -1.296(3) -1.0434(7) -0.1797(7)
C18 C -1.349(2) -1.0640(7) -0.1331(7)
C19 C -1.480(3) -1.0393(7) -0.1093(8)
H9 H -1.5327 -1.0098 -0.1221
C20 C -1.530(3) -1.0581(8) -0.0677(7)
H10 H -1.6142 -1.0408 -0.0523
C21 C -1.453(3) -1.1039(7) -0.0483(7)
H11 H -1.4847 -1.1165 -0.0201
C22 C -1.329(2) -1.1296(7) -0.0719(8)
C23 C -1.246(3) -1.1769(8) -0.0511(7)
C24 C -1.282(2) -1.1083(7) -0.1128(6)
H12 H -1.1968 -1.1255 -0.1279
C25 C -0.711(3) -1.1107(8) -0.2064(8)
H13 H -0.6649 -1.0782 -0.1972
C26 C -0.625(3) -1.1569(7) -0.1981(9)
H14 H -0.5236 -1.1551 -0.1840
C27 C -0.688(2) -1.2060(7) -0.2106(7)
H15 H -0.6287 -1.2376 -0.2067
C28 C -0.845(2) -1.2072(7) -0.2293(7)
C29 C -0.926(2) -1.2584(6) -0.2397(7)
H16 H -0.8762 -1.2910 -0.2322
C30 C -0.922(2) -1.1577(6) -0.2385(6)
C29B C -1.074(2) -1.2584(6) -0.2603(7)
C28B C -1.155(2) -1.2072(7) -0.2707(7)
C27B C -1.312(2) -1.2060(7) -0.2894(7)
C26B C -1.375(3) -1.1569(7) -0.3019(9)
C25B C -1.289(3) -1.1107(8) -0.2936(8)
N1B N -1.149(2) -1.1087(5) -0.2740(5)
C30B C -1.078(2) -1.1577(6) -0.2615(6)
H13B H -1.3351 -1.0782 -0.3028
H14B H -1.4764 -1.1551 -0.3160
H15B H -1.3713 -1.2376 -0.2933
H16B H -1.1238 -1.2910 -0.2678
O1B O -1.2070(15) -0.9942(5) -0.2985(5)
O2B O -1.3690(17) -0.9263(5) -0.3155(5)
O3B O -1.0828(16) -0.8235(5) -0.4912(5)
O4B O -1.3279(17) -0.8246(5) -0.4588(5)
C1B C -1.253(3) -0.9585(7) -0.3268(8)
C2B C -1.177(2) -0.9500(7) -0.3713(7)
C3B C -1.054(2) -0.9844(6) -0.3877(6)
H1B H -1.0186 -1.0136 -0.3705
C4B C -0.986(4) -0.9748(7) -0.4286(8)
H2B H -0.9128 -1.0000 -0.4401
C5B C -1.020(3) -0.9292(6) -0.4541(7)
H3B H -0.9612 -0.9210 -0.4802
C6B C -1.147(2) -0.8964(7) -0.4392(6)
C7B C -1.183(2) -0.8453(7) -0.4661(8)
C8B C -1.226(2) -0.9074(6) -0.3981(7)
H4B H -1.3129 -0.8857 -0.3889
O5B O -0.6532(15) -0.7722(5) -0.4242(4)
O6B O -0.8850(14) -0.7348(4) -0.4482(4)
O7B O -0.6744(18) -0.8947(4) -0.2809(5)
O8B O -0.9057(16) -0.9425(4) -0.2872(5)
C9B C -0.805(2) -0.7643(7) -0.4194(6)
C10B C -0.8876(19) -0.7885(7) -0.3805(6)
C11B C -1.0441(19) -0.7736(7) -0.3705(6)
H5B H -1.0928 -0.7468 -0.3880
C12B C -1.136(2) -0.7971(7) -0.3348(8)
H6B H -1.2406 -0.7854 -0.3276
C13B C -1.059(2) -0.8389(8) -0.3110(7)
H7B H -1.1178 -0.8573 -0.2889
C14B C -0.899(2) -0.8539(7) -0.3194(7)
C15B C -0.825(2) -0.9010(7) -0.2938(7)
C16B C -0.817(2) -0.8294(6) -0.3542(6)
H8B H -0.7105 -0.8402 -0.3606
O9B O -0.8437(17) -1.0528(5) -0.3103(5)
O10B O -0.5980(15) -1.0187(4) -0.2974(5)
O11B O -0.8775(16) -1.1953(5) -0.4272(5)
O12B O -0.7018(16) -1.2002(4) -0.4834(5)
C17B C -0.704(3) -1.0434(7) -0.3203(7)
C18B C -0.651(2) -1.0640(7) -0.3669(7)
C19B C -0.520(3) -1.0393(7) -0.3907(8)
H9B H -0.4673 -1.0098 -0.3779
C20B C -0.470(3) -1.0581(8) -0.4323(7)
H10B H -0.3858 -1.0408 -0.4477
C21B C -0.547(3) -1.1039(7) -0.4517(7)
H11B H -0.5153 -1.1165 -0.4799
C22B C -0.671(2) -1.1296(7) -0.4281(8)
C23B C -0.754(3) -1.1769(8) -0.4489(7)
C24B C -0.718(2) -1.1083(7) -0.3872(6)
H12B H -0.8032 -1.1255 -0.3721
Er3B Er -0.98300(9) -0.74554(3) -0.51757(2)
O2B_2 O -0.3690(17) -0.9263(5) -0.3155(5)
O7_2 O -0.3256(18) -0.8947(4) -0.2191(5)
O10_2 O -0.4020(15) -1.0187(4) -0.2026(5)
O4G O -1.1721(17) -0.6754(5) 0.0412(5)
O5G O -0.8468(15) -0.7278(5) 0.0758(4)
O11C O -1.1225(16) -0.8047(5) 0.0728(5)
O12C O -1.2982(16) -0.7998(4) 0.0166(5)
O12D O -0.7982(16) -0.7002(4) -0.0166(5)
Er3G Er -0.51700(9) -0.75446(3) -0.01757(2)
Er3G_2 Er -1.51700(9) -0.75446(3) -0.01757(2)
Er2_2 Er -1.5000 -0.95458(3) -0.2500
Er3C Er -1.01700(9) -1.25446(3) -0.01757(2)
Er3D Er -1.51700(9) -1.24554(3) 0.01757(2)
Er3E Er -1.48300(9) -0.75446(3) -0.48243(2)
Er3E_2 Er -0.48300(9) -0.75446(3) -0.48243(2)
Er3A Er -0.98300(9) -1.25446(3) -0.48243(2)
Er3F Er -0.48300(9) -1.24554(3) -0.51757(2)
O4E O -0.8279(17) -0.6754(5) -0.5412(5)
O5E O -1.1532(15) -0.7278(5) -0.5758(4)
O11A O -0.8775(16) -0.8047(5) -0.5728(5)
O12A O -0.7018(16) -0.7998(4) -0.5166(5)
O12F O -1.2018(16) -0.7002(4) -0.4834(5)
loop_
_geom_bond_atom_site_label_1
_geom_bond_atom_site_label_2
_geom_bond_site_symmetry_1
_geom_bond_site_symmetry_2
Er1 O1 1_555 1_555
Er2 O2 1_555 1_555
Er3 O3 1_555 1_555
O1 C1 1_555 1_555
O2 C1 1_555 1_555
O3 C7 1_555 1_555
O4 C7 1_555 1_555
O5 C9 1_555 1_555
O6 Er3 1_555 1_555
O7 C15 1_555 1_555
O8 Er1 1_555 1_555
O9 Er1 1_555 1_555
O10 C17 1_555 1_555
O11 C23 1_555 1_555
O12 C23 1_555 1_555
N1 Er1 1_555 1_555
C1 C2 1_555 1_555
C2 C3 1_555 1_555
C3 H1 1_555 1_555
C4 C3 1_555 1_555
H2 C4 1_555 1_555
C5 C4 1_555 1_555
H3 C5 1_555 1_555
C6 C5 1_555 1_555
C7 C6 1_555 1_555
C8 C2 1_555 1_555
H4 C8 1_555 1_555
C9 O6 1_555 1_555
C10 C9 1_555 1_555
C11 C10 1_555 1_555
H5 C11 1_555 1_555
C12 C11 1_555 1_555
H6 C12 1_555 1_555
C13 C12 1_555 1_555
H7 C13 1_555 1_555
C14 C13 1_555 1_555
C15 O8 1_555 1_555
C16 C10 1_555 1_555
H8 C16 1_555 1_555
C17 O9 1_555 1_555
C18 C17 1_555 1_555
C19 C18 1_555 1_555
H9 C19 1_555 1_555
C20 C19 1_555 1_555
H10 C20 1_555 1_555
C21 C20 1_555 1_555
H11 C21 1_555 1_555
C22 C21 1_555 1_555
C23 C22 1_555 1_555
C24 C18 1_555 1_555
H12 C24 1_555 1_555
C25 N1 1_555 1_555
H13 C25 1_555 1_555
C26 C25 1_555 1_555
H14 C26 1_555 1_555
C27 C26 1_555 1_555
H15 C27 1_555 1_555
C28 C27 1_555 1_555
C29 C28 1_555 1_555
H16 C29 1_555 1_555
C30 N1 1_555 1_555
C29B C29 1_555 1_555
C28B C29B 1_555 1_555
C27B C28B 1_555 1_555
C26B C27B 1_555 1_555
C25B C26B 1_555 1_555
N1B Er1 1_555 1_555
C30B C30 1_555 1_555
H13B C25B 1_555 1_555
H14B C26B 1_555 1_555
H15B C27B 1_555 1_555
H16B C29B 1_555 1_555
O1B Er1 1_555 1_555
O2B C1B 1_555 1_555
O3B C7B 1_555 1_555
O4B C7B 1_555 1_555
C1B O1B 1_555 1_555
C2B C1B 1_555 1_555
C3B C2B 1_555 1_555
H1B C3B 1_555 1_555
C4B C3B 1_555 1_555
H2B C4B 1_555 1_555
C5B C4B 1_555 1_555
H3B C5B 1_555 1_555
C6B C5B 1_555 1_555
C7B C6B 1_555 1_555
C8B C2B 1_555 1_555
H4B C8B 1_555 1_555
O5B C9B 1_555 1_555
O6B C9B 1_555 1_555
O7B Er2 1_555 1_555
O8B Er1 1_555 1_555
C9B C10B 1_555 1_555
C10B C11B 1_555 1_555
C11B H5B 1_555 1_555
C12B C11B 1_555 1_555
H6B C12B 1_555 1_555
C13B C12B 1_555 1_555
H7B C13B 1_555 1_555
C14B C13B 1_555 1_555
C15B O7B 1_555 1_555
C16B C10B 1_555 1_555
H8B C16B 1_555 1_555
O9B Er1 1_555 1_555
O10B Er2 1_555 1_555
O11B C23B 1_555 1_555
O12B C23B 1_555 1_555
C17B O9B 1_555 1_555
C18B C17B 1_555 1_555
C19B C18B 1_555 1_555
H9B C19B 1_555 1_555
C20B C19B 1_555 1_555
H10B C20B 1_555 1_555
C21B C20B 1_555 1_555
H11B C21B 1_555 1_555
C22B C21B 1_555 1_555
C23B C22B 1_555 1_555
C24B C18B 1_555 1_555
H12B C24B 1_555 1_555
Er3B O3B 1_555 1_555
O2B_2 Er2 1_555 1_555
O7_2 Er2 1_555 1_555
O10_2 Er2 1_555 1_555
O4G Er3 1_555 1_555
O5G Er3 1_555 1_555
O11C Er3 1_555 1_555
O12C Er3 1_555 1_555
O12D Er3 1_555 1_555
Er3G O4 1_555 1_555
Er3G_2 O5 1_555 1_555
Er2_2 O7 1_555 1_555
Er3C O11 1_555 1_555
Er3D O12 1_555 1_555
Er3E O4B 1_555 1_555
Er3E_2 O5B 1_555 1_555
Er3A O11B 1_555 1_555
Er3F O12B 1_555 1_555
O4E Er3B 1_555 1_555
O5E Er3B 1_555 1_555
O11A Er3B 1_555 1_555
O12A Er3B 1_555 1_555
O12F Er3B 1_555 1_555
O10 Er2_2 1_555 1_555
O12 Er3C 1_555 1_555
C6 C8 1_555 1_555
C14 C15 1_555 1_555
C14 C16 1_555 1_555
C22 C24 1_555 1_555
C28 C30 1_555 1_555
C28B C30B 1_555 1_555
C25B N1B 1_555 1_555
N1B C30B 1_555 1_555
O2B Er2_2 1_555 1_555
C6B C8B 1_555 1_555
O6B Er3B 1_555 1_555
O8B C15B 1_555 1_555
C14B C15B 1_555 1_555
C14B C16B 1_555 1_555
O10B C17B 1_555 1_555
O12B Er3A 1_555 1_555
C22B C24B 1_555 1_555
O12C Er3G_2 1_555 1_555
O12D Er3G 1_555 1_555
Er3E O12F 1_555 1_555
Er3E_2 O12A 1_555 1_555

#END
