
#######################################################################
#
#                 Cambridge Crystallographic Data Centre
#                                CCDC 
#
#######################################################################
#
# If this CIF has been generated from an entry in the Cambridge 
# Structural Database, then it will include bibliographic, chemical, 
# crystal, experimental, refinement or atomic coordinate data resulting 
# from the CCDC's data processing and validation procedures.
#
#######################################################################

data_OKUQEQ
_symmetry_cell_setting           orthorhombic
_symmetry_space_group_name_H-M   'P b c a'
_symmetry_Int_Tables_number      61
_space_group_name_Hall           '-P 2ac 2ab'
loop_
_symmetry_equiv_pos_site_id
_symmetry_equiv_pos_as_xyz
1 x,y,z
2 1/2+x,y,1/2-z
3 x,1/2-y,1/2+z
4 1/2-x,1/2+y,z
5 -x,-y,-z
6 1/2-x,-y,1/2+z
7 -x,1/2+y,1/2-z
8 1/2+x,1/2-y,-z
_cell_length_a                   14.505(4)
_cell_length_b                   20.576(6)
_cell_length_c                   23.388(7)
_cell_angle_alpha                90
_cell_angle_beta                 90
_cell_angle_gamma                90
_cell_volume                     6980.26
loop_
_atom_site_label
_atom_site_type_symbol
_atom_site_fract_x
_atom_site_fract_y
_atom_site_fract_z
Pr1 Pr 0.676317(17) 0.218470(12) 0.598408(12)
Pr2 Pr 0.423201(18) 0.356595(13) 0.523565(12)
O1 O 0.5416(2) 0.17254(17) 0.55836(15)
O2 O 0.4306(2) 0.24697(16) 0.55804(16)
O3 O 0.1272(2) 0.19082(16) 0.46986(15)
O4 O 0.0747(2) 0.09800(16) 0.50468(15)
O5 O 0.8211(2) 0.27217(17) 0.59446(15)
O6 O 0.9315(2) 0.21064(17) 0.55810(15)
O7 O 1.2345(2) 0.31717(17) 0.50924(16)
O8 O 1.2860(2) 0.3790(2) 0.57941(17)
O9 O 0.5961(2) 0.29855(15) 0.65377(14)
O10 O 0.4915(2) 0.36754(15) 0.61878(14)
O11 O 0.7469(2) 0.61900(17) 0.60632(16)
O12 O 0.6319(2) 0.57679(16) 0.55570(15)
O13 O 0.4236(2) 0.47716(16) 0.55420(15)
N1 N 0.7458(3) 0.2194(2) 0.70778(19)
N2 N 0.5854(3) 0.1530(2) 0.68374(18)
C1 C 0.8245(5) 0.2488(3) 0.7213(3)
H1 H 0.8625 0.2628 0.6917
C2 C 0.8529(6) 0.2596(4) 0.7774(3)
H2 H 0.9084 0.2806 0.7847
C3 C 0.7995(7) 0.2394(4) 0.8206(3)
H3 H 0.8175 0.2470 0.8582
C4 C 0.7178(6) 0.2073(3) 0.8094(3)
C5 C 0.6593(7) 0.1827(5) 0.8541(3)
H4 H 0.6756 0.1897 0.8921
C6 C 0.5831(7) 0.1505(5) 0.8423(4)
H5 H 0.5461 0.1361 0.8722
C7 C 0.5556(5) 0.1370(4) 0.7845(3)
C8 C 0.4786(6) 0.1009(4) 0.7710(4)
H6 H 0.4412 0.0846 0.8000
C9 C 0.4575(5) 0.0893(4) 0.7159(4)
H7 H 0.4071 0.0636 0.7064
C10 C 0.5121(4) 0.1162(3) 0.6737(3)
H8 H 0.4965 0.1080 0.6358
C11 C 0.6093(4) 0.1626(3) 0.7393(3)
C12 C 0.6921(4) 0.1978(3) 0.7520(2)
C13 C 0.4596(3) 0.1901(3) 0.5509(2)
C14 C 0.3919(3) 0.1395(2) 0.5326(2)
C15 C 0.3016(3) 0.1583(2) 0.5199(2)
H9 H 0.2851 0.2019 0.5228
C16 C 0.2368(3) 0.1135(2) 0.5033(2)
C17 C 0.1400(3) 0.1350(2) 0.49156(19)
C18 C 0.2609(3) 0.0487(2) 0.4991(2)
H10 H 0.2166 0.0179 0.4897
C19 C 0.3520(3) 0.0296(2) 0.5091(2)
H11 H 0.3690 -0.0136 0.5042
C20 C 0.4160(4) 0.0743(3) 0.5260(2)
H12 H 0.4763 0.0612 0.5332
C21 C 0.9043(3) 0.2618(3) 0.5811(2)
C22 C 0.9733(3) 0.3137(2) 0.5933(2)
C23 C 0.9518(4) 0.3677(3) 0.6264(3)
H13 H 0.8925 0.3724 0.6409
C24 C 1.0170(4) 0.4142(3) 0.6378(3)
H14 H 1.0023 0.4499 0.6604
C25 C 1.1058(4) 0.4075(3) 0.6153(3)
H15 H 1.1508 0.4382 0.6238
C26 C 1.1267(3) 0.3554(3) 0.5807(2)
C27 C 1.2215(3) 0.3494(3) 0.5539(3)
C28 C 1.0619(3) 0.3085(2) 0.5708(2)
H16 H 1.0771 0.2725 0.5486
C29 C 0.5673(3) 0.3549(3) 0.6426(2)
C30 C 0.6296(3) 0.4110(2) 0.6583(2)
C31 C 0.6921(4) 0.4067(3) 0.7026(2)
H17 H 0.6946 0.3692 0.7248
C32 C 0.7508(4) 0.4578(3) 0.7140(3)
H18 H 0.7914 0.4552 0.7448
C33 C 0.7497(4) 0.5128(3) 0.6800(2)
H19 H 0.7907 0.5466 0.6874
C34 C 0.6882(3) 0.5177(2) 0.6353(2)
C35 C 0.6888(3) 0.5755(2) 0.5964(2)
C36 C 0.6264(3) 0.4672(2) 0.6257(2)
H20 H 0.5823 0.4712 0.5971
O3G O 0.6272(2) 0.30918(16) 0.53014(15)
O7G O 0.7345(2) 0.18283(17) 0.49076(16)
O11C O 0.7531(2) 0.11900(17) 0.60632(16)
O4G O 0.5747(2) 0.40200(16) 0.49532(15)
O6G O 0.4315(2) 0.28936(17) 0.44190(15)
O8_2 O 0.2860(2) 0.3790(2) 0.57941(17)
O12D O 0.3681(2) 0.42321(16) 0.44430(15)
Pr1G Pr 0.176317(17) 0.281530(12) 0.401592(12)
Pr2G Pr -0.076799(18) 0.143405(13) 0.476435(12)
Pr2G_2 Pr 0.923201(18) 0.143405(13) 0.476435(12)
Pr1G_2 Pr 1.176317(17) 0.281530(12) 0.401592(12)
Pr2_2 Pr 1.423201(18) 0.356595(13) 0.523565(12)
Pr1C Pr 0.823683(17) 0.718470(12) 0.598408(12)
Pr2D Pr 0.576799(18) 0.643405(13) 0.476435(12)
O14 O 0.3687(9) 0.4630(6) 0.6653(5)
loop_
_geom_bond_atom_site_label_1
_geom_bond_atom_site_label_2
_geom_bond_site_symmetry_1
_geom_bond_site_symmetry_2
Pr1 O1 1_555 1_555
Pr2 O2 1_555 1_555
O1 C13 1_555 1_555
O2 C13 1_555 1_555
O3 C17 1_555 1_555
O4 C17 1_555 1_555
O5 Pr1 1_555 1_555
O6 C21 1_555 1_555
O7 C27 1_555 1_555
O8 C27 1_555 1_555
O9 Pr1 1_555 1_555
O10 Pr2 1_555 1_555
O11 C35 1_555 1_555
O12 C35 1_555 1_555
O13 Pr2 1_555 1_555
N1 Pr1 1_555 1_555
N2 Pr1 1_555 1_555
C1 N1 1_555 1_555
H1 C1 1_555 1_555
C2 C1 1_555 1_555
H2 C2 1_555 1_555
C3 C2 1_555 1_555
H3 C3 1_555 1_555
C4 C3 1_555 1_555
C5 C4 1_555 1_555
H4 C5 1_555 1_555
C6 C5 1_555 1_555
H5 C6 1_555 1_555
C7 C6 1_555 1_555
C8 C7 1_555 1_555
H6 C8 1_555 1_555
C9 C8 1_555 1_555
H7 C9 1_555 1_555
C10 N2 1_555 1_555
H8 C10 1_555 1_555
C11 N2 1_555 1_555
C12 N1 1_555 1_555
C13 C14 1_555 1_555
C14 C15 1_555 1_555
C15 H9 1_555 1_555
C16 C15 1_555 1_555
C17 C16 1_555 1_555
C18 C16 1_555 1_555
H10 C18 1_555 1_555
C19 C18 1_555 1_555
H11 C19 1_555 1_555
C20 C14 1_555 1_555
H12 C20 1_555 1_555
C21 O5 1_555 1_555
C22 C21 1_555 1_555
C23 C22 1_555 1_555
H13 C23 1_555 1_555
C24 C23 1_555 1_555
H14 C24 1_555 1_555
C25 C24 1_555 1_555
H15 C25 1_555 1_555
C26 C25 1_555 1_555
C27 C26 1_555 1_555
C28 C22 1_555 1_555
H16 C28 1_555 1_555
C29 O9 1_555 1_555
C30 C29 1_555 1_555
C31 C30 1_555 1_555
H17 C31 1_555 1_555
C32 C31 1_555 1_555
H18 C32 1_555 1_555
C33 C32 1_555 1_555
H19 C33 1_555 1_555
C34 C33 1_555 1_555
C35 C34 1_555 1_555
C36 C30 1_555 1_555
H20 C36 1_555 1_555
O3G Pr1 1_555 1_555
O7G Pr1 1_555 1_555
O11C Pr1 1_555 1_555
O4G Pr2 1_555 1_555
O6G Pr2 1_555 1_555
O8_2 Pr2 1_555 1_555
O12D Pr2 1_555 1_555
Pr1G O3 1_555 1_555
Pr2G O4 1_555 1_555
Pr2G_2 O6 1_555 1_555
Pr1G_2 O7 1_555 1_555
Pr2_2 O8 1_555 1_555
Pr1C O11 1_555 1_555
Pr2D O12 1_555 1_555
O10 C29 1_555 1_555
C4 C12 1_555 1_555
C7 C11 1_555 1_555
C9 C10 1_555 1_555
C11 C12 1_555 1_555
C19 C20 1_555 1_555
C26 C28 1_555 1_555
C34 C36 1_555 1_555

#END
