
#######################################################################
#
#                 Cambridge Crystallographic Data Centre
#                                CCDC 
#
#######################################################################
#
# If this CIF has been generated from an entry in the Cambridge 
# Structural Database, then it will include bibliographic, chemical, 
# crystal, experimental, refinement or atomic coordinate data resulting 
# from the CCDC's data processing and validation procedures.
#
#######################################################################

data_OKUWOH
_symmetry_cell_setting           monoclinic
_symmetry_space_group_name_H-M   'P 21/c'
_symmetry_Int_Tables_number      14
_space_group_name_Hall           '-P 2ybc'
loop_
_symmetry_equiv_pos_site_id
_symmetry_equiv_pos_as_xyz
1 x,y,z
2 -x,1/2+y,1/2-z
3 -x,-y,-z
4 x,1/2-y,1/2+z
_cell_length_a                   10.918(4)
_cell_length_b                   10.357(3)
_cell_length_c                   20.528(7)
_cell_angle_alpha                90
_cell_angle_beta                 94.747(6)
_cell_angle_gamma                90
_cell_volume                     2313.3
loop_
_atom_site_label
_atom_site_type_symbol
_atom_site_fract_x
_atom_site_fract_y
_atom_site_fract_z
Pb1 Pb 1.05214(4) 0.75973(4) 0.519779(18)
Pb2 Pb 0.91187(4) 0.49790(4) 0.644803(18)
Pb3 Pb 1.91602(4) -0.00804(4) 0.675450(19)
As1 As 1.15983(9) 0.44168(10) 0.54922(5)
As2 As 1.11322(9) 0.75587(9) 0.70152(5)
S1 S 1.7036(3) 0.2070(4) 0.58606(17)
S2 S 1.7012(2) 0.7418(3) 0.69494(14)
C1 C 1.3216(9) 0.3677(10) 0.5604(5)
C2 C 1.3654(11) 0.3234(13) 0.6210(5)
H1 H 1.3160 0.3261 0.6558
C3 C 1.4834(11) 0.2747(12) 0.6298(5)
H2 H 1.5146 0.2447 0.6706
C4 C 1.5537(10) 0.2712(10) 0.5778(6)
C5 C 1.5092(11) 0.3150(14) 0.5165(6)
H3 H 1.5578 0.3111 0.4815
C6 C 1.3931(11) 0.3639(13) 0.5086(6)
H4 H 1.3623 0.3948 0.4680
C7 C 1.2878(10) 0.7559(9) 0.6963(5)
C8 C 1.3500(11) 0.8673(10) 0.6871(6)
H5 H 1.3074 0.9449 0.6824
C9 C 1.4788(10) 0.8658(10) 0.6847(7)
H6 H 1.5220 0.9411 0.6774
C10 C 1.5388(10) 0.7478(10) 0.6935(5)
C11 C 1.4762(10) 0.6355(11) 0.6997(6)
H7 H 1.5177 0.5570 0.7021
C12 C 1.3495(10) 0.6396(11) 0.7023(5)
H8 H 1.3061 0.5637 0.7081
O1 O 1.0687(7) 0.3734(8) 0.6029(4)
O2 O 1.1727(7) 0.6003(7) 0.5614(4)
O3 O 1.0978(6) 0.4024(7) 0.4730(3)
O4 O 1.7210(8) 0.1296(9) 0.5288(6)
O5 O 1.7127(11) 0.1332(17) 0.6461(7)
O6 O 1.7850(8) 0.3149(12) 0.5876(6)
O7 O 1.0342(6) 0.7936(8) 0.6302(3)
O8 O 1.0653(6) 0.8728(7) 0.7509(3)
O9 O 1.0684(6) 0.6074(6) 0.7231(3)
O10 O 1.7347(9) 0.7335(10) 0.6293(4)
O11 O 1.7374(7) 0.6268(8) 0.7323(4)
O12 O 1.7462(7) 0.8593(8) 0.7282(4)
O13 O 2.1028(7) 0.1308(8) 0.6543(4)
H9 H 2.1525 0.1316 0.6884
H10 H 2.0791 0.2074 0.6452
Pb1B Pb 0.94786(4) 0.24027(4) 0.480221(18)
Pb2B Pb 1.08813(4) 0.50210(4) 0.355197(18)
Pb2_2 Pb 1.91187(4) 0.49790(4) 0.644803(18)
Pb2A Pb 1.08813(4) 0.99790(4) 0.855197(18)
Pb3_2 Pb 0.91602(4) 0.99196(4) 0.675450(19)
Pb3A Pb 1.08398(4) 0.49196(4) 0.824550(19)
Pb3_3 Pb 1.91602(4) 0.99196(4) 0.675450(19)
O3B O 0.9022(6) 0.5976(7) 0.5270(3)
O6_2 O 0.7850(8) 0.3149(12) 0.5876(6)
O7_2 O 2.0342(6) -0.2064(8) 0.6302(3)
O8A O 0.9347(6) 0.3728(7) 0.7491(3)
O8_2 O 2.0653(6) -0.1272(7) 0.7509(3)
O9A O 1.9316(6) 0.1074(6) 0.7769(3)
O12_2 O 1.7462(7) -0.1407(8) 0.7282(4)
O14 O 0.8309(9) 0.8887(11) 0.5318(6)
H11 H 0.8028 0.8668 0.5676
H12 H 0.8433 0.9697 0.5317
loop_
_geom_bond_atom_site_label_1
_geom_bond_atom_site_label_2
_geom_bond_site_symmetry_1
_geom_bond_site_symmetry_2
Pb1 O2 1_555 1_555
Pb2 O1 1_555 1_555
Pb3 O5 1_555 1_555
As1 C1 1_555 1_555
As2 C7 1_555 1_555
S1 C4 1_555 1_555
S2 C10 1_555 1_555
C1 C2 1_555 1_555
C2 H1 1_555 1_555
C3 C2 1_555 1_555
H2 C3 1_555 1_555
C4 C3 1_555 1_555
C5 C4 1_555 1_555
H3 C5 1_555 1_555
C6 C1 1_555 1_555
H4 C6 1_555 1_555
C7 C8 1_555 1_555
C8 H5 1_555 1_555
C9 C8 1_555 1_555
H6 C9 1_555 1_555
C10 C9 1_555 1_555
C11 C10 1_555 1_555
H7 C11 1_555 1_555
C12 C7 1_555 1_555
H8 C12 1_555 1_555
O1 As1 1_555 1_555
O2 As1 1_555 1_555
O3 As1 1_555 1_555
O4 S1 1_555 1_555
O5 S1 1_555 1_555
O6 S1 1_555 1_555
O7 Pb1 1_555 1_555
O8 As2 1_555 1_555
O9 Pb2 1_555 1_555
O10 S2 1_555 1_555
O11 S2 1_555 1_555
O12 S2 1_555 1_555
O13 Pb3 1_555 1_555
H9 O13 1_555 1_555
H10 O13 1_555 1_555
O14 H11 1_555 1_555
H12 O14 1_555 1_555
Pb1B O3 1_555 1_555
Pb2B O3 1_555 1_555
Pb2_2 O6 1_555 1_555
Pb2A O8 1_555 1_555
Pb3_2 O7 1_555 1_555
Pb3A O9 1_555 1_555
Pb3_3 O12 1_555 1_555
O3B Pb1 1_555 1_555
O6_2 Pb2 1_555 1_555
O7_2 Pb3 1_555 1_555
O8A Pb2 1_555 1_555
O8_2 Pb3 1_555 1_555
O9A Pb3 1_555 1_555
O12_2 Pb3 1_555 1_555
Pb2 O3B 1_555 1_555
As2 O7 1_555 1_555
As2 O9 1_555 1_555
C5 C6 1_555 1_555
C11 C12 1_555 1_555
O8 Pb3_2 1_555 1_555
Pb3A O8A 1_555 1_555

#END
