
#######################################################################
#
#                 Cambridge Crystallographic Data Centre
#                                CCDC 
#
#######################################################################
#
# If this CIF has been generated from an entry in the Cambridge 
# Structural Database, then it will include bibliographic, chemical, 
# crystal, experimental, refinement or atomic coordinate data resulting 
# from the CCDC's data processing and validation procedures.
#
#######################################################################

data_OKUXEY
_symmetry_cell_setting           triclinic
_symmetry_space_group_name_H-M   'P -1'
_symmetry_Int_Tables_number      2
_space_group_name_Hall           '-P 1'
loop_
_symmetry_equiv_pos_site_id
_symmetry_equiv_pos_as_xyz
1 x,y,z
2 -x,-y,-z
_cell_length_a                   7.212(3)
_cell_length_b                   11.157(4)
_cell_length_c                   13.156(5)
_cell_angle_alpha                90.860(3)
_cell_angle_beta                 95.861(4)
_cell_angle_gamma                103.842(6)
_cell_volume                     1021.62
loop_
_atom_site_label
_atom_site_type_symbol
_atom_site_fract_x
_atom_site_fract_y
_atom_site_fract_z
Pb1 Pb 0.33878(3) 0.444632(16) 0.630899(13)
As1 As -0.12567(7) 0.53439(5) 0.63814(4)
S1 S 0.2164(3) 1.12055(14) 0.72231(12)
N1 N 0.4386(7) 0.6715(4) 0.6502(4)
N2 N 0.3210(9) 0.5356(6) 0.8124(4)
C1 C -0.0179(8) 0.7066(5) 0.6662(4)
C2 C 0.0060(9) 0.7571(6) 0.7655(4)
H1 H -0.0265 0.7065 0.8196
C3 C 0.0788(9) 0.8840(6) 0.7834(5)
H2 H 0.0950 0.9186 0.8494
C4 C 0.1271(8) 0.9583(5) 0.7013(4)
C5 C 0.1045(9) 0.9075(6) 0.6030(4)
H3 H 0.1383 0.9584 0.5491
C6 C 0.0326(9) 0.7826(6) 0.5839(4)
H4 H 0.0175 0.7488 0.5176
C7 C 0.3619(17) 0.6447(13) 1.0077(6)
H5 H 0.3748 0.6798 1.0733
C8 C 0.4375(13) 0.7170(9) 0.9279(6)
C9 C 0.5349(18) 0.8443(11) 0.9404(8)
H6 H 0.5548 0.8830 1.0051
C10 C 0.5995(15) 0.9101(9) 0.8594(8)
H7 H 0.6671 0.9922 0.8698
C11 C 0.5643(11) 0.8543(7) 0.7586(7)
C12 C 0.6188(11) 0.9215(7) 0.6735(8)
H8 H 0.6809 1.0049 0.6811
C13 C 0.5804(11) 0.8643(7) 0.5805(7)
H9 H 0.6164 0.9079 0.5231
C14 C 0.4868(10) 0.7402(6) 0.5704(6)
H10 H 0.4563 0.7031 0.5052
C15 C 0.4742(8) 0.7294(6) 0.7438(5)
C16 C 0.4119(10) 0.6569(7) 0.8302(5)
C17 C 0.2510(13) 0.4713(10) 0.8901(6)
H11 H 0.1871 0.3885 0.8788
C18 C 0.2718(16) 0.5260(13) 0.9895(7)
H12 H 0.2222 0.4789 1.0426
O1 O 0.2488(12) 1.1459(5) 0.8311(5)
O2 O 0.0704(9) 1.1752(5) 0.6731(5)
O3 O 0.3920(9) 1.1524(5) 0.6709(6)
O4 O 0.0241(6) 0.4491(4) 0.6114(4)
O5 O -0.3138(6) 0.5149(4) 0.5488(3)
O6 O -0.2192(7) 0.4881(4) 0.7514(3)
H13 H -0.2247 0.4144 0.7580
Pb1A Pb -0.33878(3) 0.555368(16) 0.369101(13)
Pb1_2 Pb -0.66122(3) 0.444632(16) 0.630899(13)
O5A O 0.3138(6) 0.4851(4) 0.4512(3)
O5_2 O 0.6862(6) 0.5149(4) 0.5488(3)
O7 O 0.0285(17) 0.8162(13) 0.0283(8)
H14 H 0.1036 0.7958 0.0753
H15 H -0.0658 0.8314 0.0555
O8 O 0.2313(8) 0.7515(5) 0.2328(5)
H16 H 0.3479 0.7923 0.2391
H17 H 0.1782 0.7740 0.2821
loop_
_geom_bond_atom_site_label_1
_geom_bond_atom_site_label_2
_geom_bond_site_symmetry_1
_geom_bond_site_symmetry_2
Pb1 N1 1_555 1_555
As1 C1 1_555 1_555
S1 C4 1_555 1_555
N1 C14 1_555 1_555
N2 Pb1 1_555 1_555
C1 C2 1_555 1_555
C2 H1 1_555 1_555
C3 C2 1_555 1_555
H2 C3 1_555 1_555
C4 C3 1_555 1_555
C5 C4 1_555 1_555
H3 C5 1_555 1_555
C6 C1 1_555 1_555
H4 C6 1_555 1_555
C7 H5 1_555 1_555
C8 C7 1_555 1_555
C9 C8 1_555 1_555
H6 C9 1_555 1_555
C10 C9 1_555 1_555
H7 C10 1_555 1_555
C11 C10 1_555 1_555
C12 C11 1_555 1_555
H8 C12 1_555 1_555
C13 C12 1_555 1_555
H9 C13 1_555 1_555
C14 C13 1_555 1_555
H10 C14 1_555 1_555
C15 N1 1_555 1_555
C16 N2 1_555 1_555
C17 N2 1_555 1_555
H11 C17 1_555 1_555
C18 C7 1_555 1_555
H12 C18 1_555 1_555
O1 S1 1_555 1_555
O2 S1 1_555 1_555
O3 S1 1_555 1_555
O4 Pb1 1_555 1_555
O5 As1 1_555 1_555
O6 As1 1_555 1_555
H13 O6 1_555 1_555
O7 H14 1_555 1_555
H15 O7 1_555 1_555
O8 H16 1_555 1_555
H17 O8 1_555 1_555
Pb1A O5 1_555 1_555
Pb1_2 O5 1_555 1_555
O5A Pb1 1_555 1_555
O5_2 Pb1 1_555 1_555
As1 O4 1_555 1_555
C5 C6 1_555 1_555
C8 C16 1_555 1_555
C11 C15 1_555 1_555
C15 C16 1_555 1_555
C17 C18 1_555 1_555

#END
