
#######################################################################
#
#                 Cambridge Crystallographic Data Centre
#                                CCDC 
#
#######################################################################
#
# If this CIF has been generated from an entry in the Cambridge 
# Structural Database, then it will include bibliographic, chemical, 
# crystal, experimental, refinement or atomic coordinate data resulting 
# from the CCDC's data processing and validation procedures.
#
#######################################################################

data_OLENEY
_symmetry_cell_setting           monoclinic
_symmetry_space_group_name_H-M   'C 2/c'
_symmetry_Int_Tables_number      15
_space_group_name_Hall           '-C 2yn'
loop_
_symmetry_equiv_pos_site_id
_symmetry_equiv_pos_as_xyz
1 x,y,z
2 1/2+x,1/2+y,z
3 x,-y,1/2+z
4 1/2+x,1/2-y,1/2+z
5 -x,-y,-z
6 1/2-x,1/2-y,-z
7 -x,y,1/2-z
8 1/2-x,1/2+y,1/2-z
_cell_length_a                   9.9783(3)
_cell_length_b                   14.40030(10)
_cell_length_c                   12.0994(3)
_cell_angle_alpha                90
_cell_angle_beta                 111.276(2)
_cell_angle_gamma                90
_cell_volume                     1620.07
loop_
_atom_site_label
_atom_site_type_symbol
_atom_site_fract_x
_atom_site_fract_y
_atom_site_fract_z
Mn1 Mn 0.17308(4) 0.12583(2) 0.72949(3)
Cl1 Cl -0.08421(7) 0.12048(5) 0.59770(6)
O1 O 0.3883(2) 0.15738(12) 0.84290(16)
O2 O 0.56081(19) 0.26362(12) 0.90326(16)
O3 O 0.2398(2) 0.12211(11) 0.57406(16)
H1 H 0.1870 0.1559 0.5219
N1 N 0.1932(2) 0.28583(13) 0.72470(17)
N2 N 0.2652(2) 0.47291(13) 0.74503(19)
C1 C 0.0992(3) 0.35063(18) 0.6644(2)
H2 H 0.0076 0.3327 0.6148
C2 C 0.1351(3) 0.44368(17) 0.6742(2)
H3 H 0.0673 0.4870 0.6307
C3 C 0.3596(3) 0.40813(17) 0.8042(2)
H4 H 0.4510 0.4263 0.8543
C4 C 0.3251(3) 0.31437(16) 0.7931(2)
C5 C 0.4336(3) 0.23974(16) 0.8523(2)
H5 H 0.325(3) 0.159(3) 0.589(4)
Cl1F Cl 0.08421(7) 0.12048(5) 0.90230(6)
N2G N 0.2348(2) -0.02709(13) 0.75497(19)
Mn1F Mn -0.17308(4) 0.12583(2) 0.77051(3)
Mn1G Mn 0.32692(4) 0.62583(2) 0.77051(3)
loop_
_geom_bond_atom_site_label_1
_geom_bond_atom_site_label_2
_geom_bond_site_symmetry_1
_geom_bond_site_symmetry_2
Mn1 Cl1 1_555 1_555
Cl1 Mn1F 1_555 1_555
O1 Mn1 1_555 1_555
O2 C5 1_555 1_555
O3 Mn1 1_555 1_555
H1 O3 1_555 1_555
N1 Mn1 1_555 1_555
N2 C2 1_555 1_555
C1 N1 1_555 1_555
H2 C1 1_555 1_555
C2 C1 1_555 1_555
H3 C2 1_555 1_555
C3 N2 1_555 1_555
H4 C3 1_555 1_555
C4 N1 1_555 1_555
C5 O1 1_555 1_555
H5 O3 1_555 1_555
Cl1F Mn1 1_555 1_555
N2G Mn1 1_555 1_555
Mn1F Cl1F 1_555 1_555
Mn1G N2 1_555 1_555
C3 C4 1_555 1_555
C4 C5 1_555 1_555

#END
