
#######################################################################
#
#                 Cambridge Crystallographic Data Centre
#                                CCDC 
#
#######################################################################
#
# If this CIF has been generated from an entry in the Cambridge 
# Structural Database, then it will include bibliographic, chemical, 
# crystal, experimental, refinement or atomic coordinate data resulting 
# from the CCDC's data processing and validation procedures.
#
#######################################################################

data_OLERUS01
_symmetry_cell_setting           monoclinic
_symmetry_space_group_name_H-M   'P 21/c'
_symmetry_Int_Tables_number      14
_space_group_name_Hall           '-P 2ybc'
loop_
_symmetry_equiv_pos_site_id
_symmetry_equiv_pos_as_xyz
1 x,y,z
2 x,1/2-y,1/2+z
3 -x,-y,-z
4 -x,1/2+y,1/2-z
_cell_length_a                   10.955(3)
_cell_length_b                   8.3625(19)
_cell_length_c                   8.957(2)
_cell_angle_alpha                90
_cell_angle_beta                 105.909(4)
_cell_angle_gamma                90
_cell_volume                     789.132
loop_
_atom_site_label
_atom_site_type_symbol
_atom_site_fract_x
_atom_site_fract_y
_atom_site_fract_z
Br1 Br -0.21427(2) 0.09022(2) -0.01580(2)
Cu1 Cu 0.0000 0.0000 0.0000
O1 O 0.40115(18) 0.3807(3) 0.0721(2)
N1 N 0.14011(18) 0.4275(2) -0.0306(2)
N2 N 0.06617(18) 0.2971(2) -0.0726(2)
N3 N 0.01773(18) 0.3042(2) -0.2207(2)
N4 N 0.05939(17) 0.4382(2) -0.2768(2)
C1 C 0.1362(2) 0.5125(2) -0.1574(2)
H1 H 0.1807 0.6092 -0.1613
C2 C 0.2137(2) 0.4560(3) 0.1307(3)
H2 H 0.2419 0.5689 0.1427
H3 H 0.1594 0.4367 0.2008
C3 C 0.3279(2) 0.3478(3) 0.1753(3)
H4 H 0.3010 0.2343 0.1668
H5 H 0.3777 0.3689 0.2836
C4 C 0.5103(3) 0.2814(4) 0.0999(4)
H6 H 0.4839 0.1691 0.0872
H7 H 0.5584 0.3077 0.0257
H8 H 0.5637 0.2988 0.2058
Br1B Br 0.21427(2) -0.09022(2) 0.01580(2)
O1B O -0.40115(18) -0.3807(3) -0.0721(2)
N1B N -0.14011(18) -0.4275(2) 0.0306(2)
N2B N -0.06617(18) -0.2971(2) 0.0726(2)
N3B N -0.01773(18) -0.3042(2) 0.2207(2)
N4B N -0.05939(17) -0.4382(2) 0.2768(2)
C1B C -0.1362(2) -0.5125(2) 0.1574(2)
H1B H -0.1807 -0.6092 0.1613
C2B C -0.2137(2) -0.4560(3) -0.1307(3)
H2B H -0.2419 -0.5689 -0.1427
H3B H -0.1594 -0.4367 -0.2008
C3B C -0.3279(2) -0.3478(3) -0.1753(3)
H4B H -0.3010 -0.2343 -0.1668
H5B H -0.3777 -0.3689 -0.2836
C4B C -0.5103(3) -0.2814(4) -0.0999(4)
H6B H -0.4839 -0.1691 -0.0872
H7B H -0.5584 -0.3077 -0.0257
H8B H -0.5637 -0.2988 -0.2058
N4A N 0.05939(17) 0.0618(2) 0.2232(2)
N4C N -0.05939(17) -0.0618(2) -0.2232(2)
Cu1A Cu 0.0000 0.5000 -0.5000
Cu1A_2 Cu 0.0000 -0.5000 0.5000
loop_
_geom_bond_atom_site_label_1
_geom_bond_atom_site_label_2
_geom_bond_site_symmetry_1
_geom_bond_site_symmetry_2
Br1 Cu1 1_555 1_555
Cu1 N2 1_555 1_555
O1 C3 1_555 1_555
N1 N2 1_555 1_555
N2 N3 1_555 1_555
N3 N4 1_555 1_555
N4 C1 1_555 1_555
C1 N1 1_555 1_555
H1 C1 1_555 1_555
C2 N1 1_555 1_555
H2 C2 1_555 1_555
H3 C2 1_555 1_555
C3 C2 1_555 1_555
H4 C3 1_555 1_555
H5 C3 1_555 1_555
C4 O1 1_555 1_555
H6 C4 1_555 1_555
H7 C4 1_555 1_555
H8 C4 1_555 1_555
Br1B Cu1 1_555 1_555
O1B C3B 1_555 1_555
N1B N2B 1_555 1_555
N2B Cu1 1_555 1_555
N3B N2B 1_555 1_555
N4B N3B 1_555 1_555
C1B N1B 1_555 1_555
H1B C1B 1_555 1_555
C2B N1B 1_555 1_555
H2B C2B 1_555 1_555
H3B C2B 1_555 1_555
C3B C2B 1_555 1_555
H4B C3B 1_555 1_555
H5B C3B 1_555 1_555
C4B O1B 1_555 1_555
H6B C4B 1_555 1_555
H7B C4B 1_555 1_555
H8B C4B 1_555 1_555
N4A Cu1 1_555 1_555
N4C Cu1 1_555 1_555
Cu1A N4 1_555 1_555
Cu1A_2 N4B 1_555 1_555
N4B C1B 1_555 1_555

#END
