
#######################################################################
#
#                 Cambridge Crystallographic Data Centre
#                                CCDC 
#
#######################################################################
#
# If this CIF has been generated from an entry in the Cambridge 
# Structural Database, then it will include bibliographic, chemical, 
# crystal, experimental, refinement or atomic coordinate data resulting 
# from the CCDC's data processing and validation procedures.
#
#######################################################################

data_OLEXOS
_symmetry_cell_setting           orthorhombic
_symmetry_space_group_name_H-M   'P n m a'
_symmetry_Int_Tables_number      62
_space_group_name_Hall           '-P 2ac 2n'
loop_
_symmetry_equiv_pos_site_id
_symmetry_equiv_pos_as_xyz
1 x,y,z
2 1/2+x,y,1/2-z
3 1/2-x,1/2+y,1/2+z
4 x,1/2-y,z
5 -x,-y,-z
6 1/2-x,-y,1/2+z
7 1/2+x,1/2-y,1/2-z
8 -x,1/2+y,-z
_cell_length_a                   6.7598(3)
_cell_length_b                   20.6744(14)
_cell_length_c                   6.6776(4)
_cell_angle_alpha                90
_cell_angle_beta                 90
_cell_angle_gamma                90
_cell_volume                     933.227
loop_
_atom_site_label
_atom_site_type_symbol
_atom_site_fract_x
_atom_site_fract_y
_atom_site_fract_z
K1 K 0.85165(6) 0.25000 0.03839(6)
N1 N 0.4424(2) 0.25000 -0.0875(2)
N2 N 0.21825(17) 0.31991(6) 0.09646(18)
C1 C 0.36931(18) 0.30902(7) -0.03338(19)
C2 C 0.4656(2) 0.36256(7) -0.1287(2)
H1 H 0.578(3) 0.3543(8) -0.211(3)
C3 C 0.4016(2) 0.42473(7) -0.0958(2)
H2 H 0.469(3) 0.4598(9) -0.160(3)
C4 C 0.2426(2) 0.43543(7) 0.0338(2)
H3 H 0.196(3) 0.4783(10) 0.058(3)
C5 C 0.1594(2) 0.38195(7) 0.1247(2)
H4 H 0.048(3) 0.3887(8) 0.215(3)
C1C C 0.36931(18) 0.19098(7) -0.03338(19)
N2C N 0.21825(17) 0.18009(6) 0.09646(18)
C5C C 0.1594(2) 0.11805(7) 0.1247(2)
C4C C 0.2426(2) 0.06457(7) 0.0338(2)
C3C C 0.4016(2) 0.07527(7) -0.0958(2)
C2C C 0.4656(2) 0.13744(7) -0.1287(2)
H1C H 0.578(3) 0.1457(8) -0.211(3)
H2C H 0.469(3) 0.0402(9) -0.160(3)
H3C H 0.196(3) 0.0217(10) 0.058(3)
H4C H 0.048(3) 0.1113(8) 0.215(3)
N1A N 0.9424(2) 0.25000 -0.4125(2)
N2_2 N 1.21825(17) 0.31991(6) 0.09646(18)
N2A N 0.71825(17) 0.31991(6) 0.40354(18)
N2C_2 N 1.21825(17) 0.18009(6) 0.09646(18)
N2F N 0.71825(17) 0.18009(6) 0.40354(18)
K1A K 0.35165(6) 0.25000 -0.53839(6)
K1_2 K -0.14835(6) 0.25000 0.03839(6)
K1A_2 K 0.35165(6) 0.25000 0.46161(6)
loop_
_geom_bond_atom_site_label_1
_geom_bond_atom_site_label_2
_geom_bond_site_symmetry_1
_geom_bond_site_symmetry_2
K1 N1 1_555 1_555
N1 C1 1_555 1_555
N2 C1 1_555 1_555
C1 C2 1_555 1_555
C2 H1 1_555 1_555
C3 C2 1_555 1_555
H2 C3 1_555 1_555
C4 C3 1_555 1_555
H3 C4 1_555 1_555
C5 N2 1_555 1_555
H4 C5 1_555 1_555
C1C N1 1_555 1_555
N2C C1C 1_555 1_555
C5C N2C 1_555 1_555
C4C C5C 1_555 1_555
C3C C4C 1_555 1_555
C2C C1C 1_555 1_555
H1C C2C 1_555 1_555
H2C C3C 1_555 1_555
H3C C4C 1_555 1_555
H4C C5C 1_555 1_555
N1A K1 1_555 1_555
N2_2 K1 1_555 1_555
N2A K1 1_555 1_555
N2C_2 K1 1_555 1_555
N2F K1 1_555 1_555
K1A N1 1_555 1_555
K1_2 N2 1_555 1_555
K1A_2 N2 1_555 1_555
C4 C5 1_555 1_555
N2C K1_2 1_555 1_555
N2C K1A_2 1_555 1_555
C3C C2C 1_555 1_555
N2A K1A_2 1_555 1_555
N2F K1A_2 1_555 1_555

#END
