
#######################################################################
#
#                 Cambridge Crystallographic Data Centre
#                                CCDC 
#
#######################################################################
#
# If this CIF has been generated from an entry in the Cambridge 
# Structural Database, then it will include bibliographic, chemical, 
# crystal, experimental, refinement or atomic coordinate data resulting 
# from the CCDC's data processing and validation procedures.
#
#######################################################################

data_OLEXIM
_symmetry_cell_setting           monoclinic
_symmetry_space_group_name_H-M   'C 2/c'
_symmetry_Int_Tables_number      15
_space_group_name_Hall           '-C 2yn'
loop_
_symmetry_equiv_pos_site_id
_symmetry_equiv_pos_as_xyz
1 x,y,z
2 x,-y,1/2+z
3 1/2+x,1/2+y,z
4 1/2+x,1/2-y,1/2+z
5 -x,-y,-z
6 -x,y,1/2-z
7 1/2-x,1/2-y,-z
8 1/2-x,1/2+y,1/2-z
_cell_length_a                   23.705(2)
_cell_length_b                   10.8276(10)
_cell_length_c                   14.8147(9)
_cell_angle_alpha                90
_cell_angle_beta                 115.378(5)
_cell_angle_gamma                90
_cell_volume                     3435.53
loop_
_atom_site_label
_atom_site_type_symbol
_atom_site_fract_x
_atom_site_fract_y
_atom_site_fract_z
K1 K 0.00090(3) -0.00416(6) 0.11672(4)
O1 O -0.07816(9) -0.0981(2) 0.19259(14)
O2 O 0.00000 0.1892(3) 0.25000
N1 N -0.08961(10) 0.1181(2) -0.05281(16)
N2 N -0.09803(11) -0.0913(2) -0.06957(16)
C1 C -0.13120(16) -0.1931(3) -0.1101(2)
H1 H -0.1099 -0.27 -0.0937
C2 C -0.19377(17) -0.1951(4) -0.1738(2)
H2 H -0.215 -0.2704 -0.2001
C3 C -0.22438(16) -0.0827(4) -0.1977(2)
H3 H -0.2674 -0.0797 -0.2426
C4 C -0.19307(14) 0.0236(3) -0.1572(2)
H4 H -0.2146 0.1004 -0.1725
C5 C -0.12796(13) 0.0199(3) -0.09164(18)
C6 C -0.11175(13) 0.2349(3) -0.05022(19)
C7 C -0.16538(15) 0.2648(3) -0.0355(2)
H5 H -0.1917 0.2002 -0.0325
C8 C -0.18036(17) 0.3859(3) -0.0253(2)
H6 H -0.2167 0.4024 -0.0155
C9 C -0.14400(16) 0.4827(3) -0.0290(2)
H7 H -0.155 0.5655 -0.0225
C10 C -0.09078(16) 0.4566(3) -0.0426(2)
H8 H -0.0649 0.5222 -0.0453
C11 C -0.07515(15) 0.3357(3) -0.0520(2)
H9 H -0.0381 0.3204 -0.06
C12 C -0.08722(15) -0.2288(3) 0.1849(2)
H10 H -0.0596 -0.2696 0.2483
H11 H -0.0779 -0.2624 0.1306
C13 C -0.15455(15) -0.2496(3) 0.1625(2)
H12 H -0.1609 -0.2505 0.2243
H13 H -0.1703 -0.3278 0.1256
C14 C -0.18560(15) -0.1383(4) 0.0980(2)
H14 H -0.1935 -0.1525 0.0276
H15 H -0.2255 -0.1182 0.101
C15 C -0.13805(15) -0.0374(3) 0.1446(2)
H16 H -0.1384 0.0207 0.0927
H17 H -0.1473 0.0094 0.1941
C16 C -0.0520(2) 0.2656(5) 0.2337(4)
H18 H -0.0702 0.2426 0.2803
H19 H -0.0844 0.2549 0.1645
C17 C -0.0311(2) 0.3940(4) 0.2501(4)
H20 H -0.0284 0.4242 0.3148
H21 H -0.0603 0.4474 0.196
C17E C 0.0311(2) 0.3940(4) 0.2499(4)
C16E C 0.0520(2) 0.2656(5) 0.2663(4)
H18E H 0.0702 0.2426 0.2197
H19E H 0.0844 0.2549 0.3355
H20E H 0.0284 0.4242 0.1852
H21E H 0.0603 0.4474 0.304
O1E O 0.07816(9) -0.0981(2) 0.30741(14)
C12E C 0.08722(15) -0.2288(3) 0.3151(2)
H10E H 0.0596 -0.2696 0.2517
H11E H 0.0779 -0.2624 0.3694
C13E C 0.15455(15) -0.2496(3) 0.3375(2)
H12E H 0.1609 -0.2505 0.2757
H13E H 0.1703 -0.3278 0.3744
C14E C 0.18560(15) -0.1383(4) 0.4020(2)
H14E H 0.1935 -0.1525 0.4724
H15E H 0.2255 -0.1182 0.399
C15E C 0.13805(15) -0.0374(3) 0.3554(2)
H16E H 0.1384 0.0207 0.4073
H17E H 0.1473 0.0094 0.3059
N1D N 0.08961(10) -0.1181(2) 0.05281(16)
N2D N 0.09803(11) 0.0913(2) 0.06957(16)
C1D C 0.13120(16) 0.1931(3) 0.1101(2)
H1D H 0.1099 0.27 0.0937
C2D C 0.19377(17) 0.1951(4) 0.1738(2)
H2D H 0.215 0.2704 0.2001
C3D C 0.22438(16) 0.0827(4) 0.1977(2)
H3D H 0.2674 0.0797 0.2426
C4D C 0.19307(14) -0.0236(3) 0.1572(2)
H4D H 0.2146 -0.1004 0.1725
C5D C 0.12796(13) -0.0199(3) 0.09164(18)
C6D C 0.11175(13) -0.2349(3) 0.05022(19)
C7D C 0.16538(15) -0.2648(3) 0.0355(2)
H5D H 0.1917 -0.2002 0.0325
C8D C 0.18036(17) -0.3859(3) 0.0253(2)
H6D H 0.2167 -0.4024 0.0155
C9D C 0.14400(16) -0.4827(3) 0.0290(2)
H7D H 0.155 -0.5655 0.0225
C10D C 0.09078(16) -0.4566(3) 0.0426(2)
H8D H 0.0649 -0.5222 0.0453
C11D C 0.07515(15) -0.3357(3) 0.0520(2)
H9D H 0.0381 -0.3204 0.06
K1E K -0.00090(3) -0.00416(6) 0.38328(4)
K1D K -0.00090(3) 0.00416(6) -0.11672(4)
K1A K 0.00090(3) 0.00416(6) 0.61672(4)
N1A N -0.08961(10) -0.1181(2) 0.44719(16)
N1E N 0.08961(10) 0.1181(2) 0.55281(16)
N2A N -0.09803(11) 0.0913(2) 0.43043(16)
N2E N 0.09803(11) -0.0913(2) 0.56957(16)
loop_
_geom_bond_atom_site_label_1
_geom_bond_atom_site_label_2
_geom_bond_site_symmetry_1
_geom_bond_site_symmetry_2
K1 O1 1_555 1_555
O1 C12 1_555 1_555
O2 K1 1_555 1_555
N1 K1 1_555 1_555
N2 K1 1_555 1_555
C1 N2 1_555 1_555
H1 C1 1_555 1_555
C2 C1 1_555 1_555
H2 C2 1_555 1_555
C3 C2 1_555 1_555
H3 C3 1_555 1_555
C4 C3 1_555 1_555
H4 C4 1_555 1_555
C5 N1 1_555 1_555
C6 N1 1_555 1_555
C7 C6 1_555 1_555
H5 C7 1_555 1_555
C8 C7 1_555 1_555
H6 C8 1_555 1_555
C9 C8 1_555 1_555
H7 C9 1_555 1_555
C10 C9 1_555 1_555
H8 C10 1_555 1_555
C11 C6 1_555 1_555
H9 C11 1_555 1_555
C12 H10 1_555 1_555
H11 C12 1_555 1_555
C13 C12 1_555 1_555
H12 C13 1_555 1_555
H13 C13 1_555 1_555
C14 C13 1_555 1_555
H14 C14 1_555 1_555
H15 C14 1_555 1_555
C15 O1 1_555 1_555
H16 C15 1_555 1_555
H17 C15 1_555 1_555
C16 O2 1_555 1_555
H18 C16 1_555 1_555
H19 C16 1_555 1_555
C17 C16 1_555 1_555
H20 C17 1_555 1_555
H21 C17 1_555 1_555
C17E C17 1_555 1_555
C16E O2 1_555 1_555
H18E C16E 1_555 1_555
H19E C16E 1_555 1_555
H20E C17E 1_555 1_555
H21E C17E 1_555 1_555
O1E K1 1_555 1_555
C12E O1E 1_555 1_555
H10E C12E 1_555 1_555
H11E C12E 1_555 1_555
C13E C12E 1_555 1_555
H12E C13E 1_555 1_555
H13E C13E 1_555 1_555
C14E C13E 1_555 1_555
H14E C14E 1_555 1_555
H15E C14E 1_555 1_555
C15E O1E 1_555 1_555
H16E C15E 1_555 1_555
H17E C15E 1_555 1_555
N1D K1 1_555 1_555
N2D K1 1_555 1_555
C1D N2D 1_555 1_555
H1D C1D 1_555 1_555
C2D C1D 1_555 1_555
H2D C2D 1_555 1_555
C3D C2D 1_555 1_555
H3D C3D 1_555 1_555
C4D C3D 1_555 1_555
H4D C4D 1_555 1_555
C5D N1D 1_555 1_555
C6D N1D 1_555 1_555
C7D C6D 1_555 1_555
H5D C7D 1_555 1_555
C8D C7D 1_555 1_555
H6D C8D 1_555 1_555
C9D C8D 1_555 1_555
H7D C9D 1_555 1_555
C10D C9D 1_555 1_555
H8D C10D 1_555 1_555
C11D C6D 1_555 1_555
H9D C11D 1_555 1_555
K1E O1 1_555 1_555
K1D N1 1_555 1_555
K1A N1A 1_555 1_555
N1A K1E 1_555 1_555
N1E K1E 1_555 1_555
N2A K1E 1_555 1_555
N2E K1E 1_555 1_555
O2 K1E 1_555 1_555
N2 C5 1_555 1_555
N2 K1D 1_555 1_555
C4 C5 1_555 1_555
C10 C11 1_555 1_555
C14 C15 1_555 1_555
C17E C16E 1_555 1_555
O1E K1E 1_555 1_555
C14E C15E 1_555 1_555
N1D K1D 1_555 1_555
N2D C5D 1_555 1_555
N2D K1D 1_555 1_555
C4D C5D 1_555 1_555
C10D C11D 1_555 1_555
K1A N1E 1_555 1_555
K1A N2A 1_555 1_555
K1A N2E 1_555 1_555

#END
