
#######################################################################
#
#                 Cambridge Crystallographic Data Centre
#                                CCDC 
#
#######################################################################
#
# If this CIF has been generated from an entry in the Cambridge 
# Structural Database, then it will include bibliographic, chemical, 
# crystal, experimental, refinement or atomic coordinate data resulting 
# from the CCDC's data processing and validation procedures.
#
#######################################################################

data_OLIRIK
_symmetry_cell_setting           monoclinic
_symmetry_space_group_name_H-M   'I 2/a'
_symmetry_Int_Tables_number      15
_space_group_name_Hall           '-I 2ya'
loop_
_symmetry_equiv_pos_site_id
_symmetry_equiv_pos_as_xyz
1 x,y,z
2 1/2+x,1/2+y,1/2+z
3 1/2+x,-y,z
4 x,1/2-y,1/2+z
5 -x,-y,-z
6 1/2-x,1/2-y,1/2-z
7 1/2-x,y,-z
8 -x,1/2+y,1/2-z
_cell_length_a                   9.8986(2)
_cell_length_b                   31.4972(4)
_cell_length_c                   10.9253(4)
_cell_angle_alpha                90
_cell_angle_beta                 95.2900(10)
_cell_angle_gamma                90
_cell_volume                     3391.76
loop_
_atom_site_label
_atom_site_type_symbol
_atom_site_fract_x
_atom_site_fract_y
_atom_site_fract_z
Pb1 Pb -0.11869(4) 0.212410(14) -0.13909(4)
Pb2 Pb 0.2500 0.250823(19) 0.0000
Cl1 Cl -0.2500 0.14161(16) 0.0000
P1 P 0.0034(3) 0.28924(9) -0.2952(3)
P2 P 0.0121(3) 0.34771(10) 0.0943(3)
C1 C -0.1067(17) 0.4772(5) -0.3628(15)
H1 H -0.1163 0.4833 -0.4464
C2 C -0.0108(15) 0.4483(4) -0.3162(13)
H2 H 0.0450 0.4352 -0.3687
C3 C 0.0032(13) 0.4387(4) -0.1929(12)
C4 C -0.076(2) 0.4584(6) -0.1113(16)
H3 H -0.0660 0.4521 -0.0277
C5 C -0.171(2) 0.4881(7) -0.1604(19)
H4 H -0.2250 0.5024 -0.1083
C6 C -0.187(2) 0.4966(7) -0.286(2)
H5 H -0.2530 0.5157 -0.3168
C7 C 0.1112(12) 0.4072(4) -0.1439(11)
H6 H 0.1403 0.4144 -0.0592
H7 H 0.1892 0.4101 -0.1909
C8 C -0.0435(11) 0.3511(4) -0.0684(10)
H8 H -0.1135 0.3726 -0.0799
H9 H -0.0842 0.3242 -0.0944
C9 C 0.0267(11) 0.3460(3) -0.2804(10)
H10 H -0.0566 0.3599 -0.3122
H11 H 0.0974 0.3546 -0.3310
N1 N 0.0644(8) 0.3613(3) -0.1495(8)
H12 H 0.1378 0.3456 -0.1207
O1 O 0.0969(8) 0.2691(3) -0.1947(8)
O2 O -0.1432(8) 0.2791(3) -0.2720(8)
O3 O 0.0318(9) 0.2793(3) -0.4261(8)
O4 O 0.0188(11) 0.3948(3) 0.1387(9)
H13 H 0.0437 0.3955 0.2124
O5 O -0.0980(8) 0.3229(3) 0.1509(7)
O6 O 0.1532(8) 0.3290(3) 0.1045(8)
O7 O -0.2500 0.2657(4) 0.0000
O8 O 0.3412(8) 0.1831(3) 0.1334(8)
P1F P 0.4966(3) 0.28924(9) 0.2952(3)
P2F P 0.4879(3) 0.34771(10) -0.0943(3)
C1F C 0.6067(17) 0.4772(5) 0.3628(15)
H1F H 0.6163 0.4833 0.4464
C2F C 0.5108(15) 0.4483(4) 0.3162(13)
H2F H 0.4550 0.4352 0.3687
C3F C 0.4968(13) 0.4387(4) 0.1929(12)
C4F C 0.576(2) 0.4584(6) 0.1113(16)
H3F H 0.5660 0.4521 0.0277
C5F C 0.671(2) 0.4881(7) 0.1604(19)
H4F H 0.7250 0.5024 0.1083
C6F C 0.687(2) 0.4966(7) 0.286(2)
H5F H 0.7530 0.5157 0.3168
C7F C 0.3888(12) 0.4072(4) 0.1439(11)
H6F H 0.3597 0.4144 0.0592
H7F H 0.3108 0.4101 0.1909
C8F C 0.5435(11) 0.3511(4) 0.0684(10)
H8F H 0.6135 0.3726 0.0799
H9F H 0.5842 0.3242 0.0944
C9F C 0.4733(11) 0.3460(3) 0.2804(10)
H10F H 0.5566 0.3599 0.3122
H11F H 0.4026 0.3546 0.3310
N1F N 0.4356(8) 0.3613(3) 0.1495(8)
H12F H 0.3622 0.3456 0.1207
O1F O 0.4031(8) 0.2691(3) 0.1947(8)
O2F O 0.6432(8) 0.2791(3) 0.2720(8)
O3F O 0.4682(9) 0.2793(3) 0.4261(8)
O4F O 0.4812(11) 0.3948(3) -0.1387(9)
H13F H 0.4563 0.3955 -0.2124
O5F O 0.5980(8) 0.3229(3) -0.1509(7)
O6F O 0.3468(8) 0.3290(3) -0.1045(8)
O8F O 0.1588(8) 0.1831(3) -0.1334(8)
Pb1F Pb 0.61869(4) 0.212410(14) 0.13909(4)
O2E O -0.3568(8) 0.2209(3) -0.2280(8)
O3C O 0.0318(9) 0.2207(3) 0.0739(8)
O5C O -0.0980(8) 0.1771(3) -0.3491(7)
O3E O 0.4682(9) 0.2207(3) -0.0739(8)
Pb1F_2 Pb -0.38131(4) 0.212410(14) 0.13909(4)
Pb1E Pb -0.38131(4) 0.287590(14) -0.36091(4)
Pb1C Pb -0.11869(4) 0.287590(14) -0.63909(4)
Pb2C Pb 0.2500 0.249177(19) -0.5000
Pb1C_2 Pb -0.11869(4) 0.287590(14) 0.36091(4)
Pb1C_3 Pb 0.88131(4) 0.287590(14) 0.36091(4)
Pb1E_2 Pb 0.61869(4) 0.287590(14) 0.63909(4)
Pb2C_2 Pb 0.2500 0.249177(19) 0.5000
Pb1E_3 Pb 0.61869(4) 0.287590(14) -0.36091(4)
Cl1_2 Cl 0.7500 0.14161(16) 0.0000
O2C O 0.8568(8) 0.2209(3) 0.2280(8)
O5E O 0.5980(8) 0.1771(3) 0.3491(7)
O7_2 O 0.7500 0.2657(4) 0.0000
Cl2 Cl 0.2500 0.09798(16) 0.0000
O9 O -0.0452(13) 0.0847(4) 0.8541(11)
loop_
_geom_bond_atom_site_label_1
_geom_bond_atom_site_label_2
_geom_bond_site_symmetry_1
_geom_bond_site_symmetry_2
Pb1 Cl1 1_555 1_555
Pb2 O1 1_555 1_555
Cl1 Pb1F_2 1_555 1_555
P1 C9 1_555 1_555
P2 C8 1_555 1_555
C1 H1 1_555 1_555
C2 C1 1_555 1_555
H2 C2 1_555 1_555
C3 C2 1_555 1_555
C4 C3 1_555 1_555
H3 C4 1_555 1_555
C5 C4 1_555 1_555
H4 C5 1_555 1_555
C6 C1 1_555 1_555
H5 C6 1_555 1_555
C7 C3 1_555 1_555
H6 C7 1_555 1_555
H7 C7 1_555 1_555
C8 H8 1_555 1_555
H9 C8 1_555 1_555
C9 H10 1_555 1_555
H11 C9 1_555 1_555
N1 C7 1_555 1_555
H12 N1 1_555 1_555
O1 P1 1_555 1_555
O2 Pb1 1_555 1_555
O3 P1 1_555 1_555
O4 P2 1_555 1_555
H13 O4 1_555 1_555
O5 P2 1_555 1_555
O6 P2 1_555 1_555
O7 Pb1 1_555 1_555
O8 Pb2 1_555 1_555
P1F C9F 1_555 1_555
P2F C8F 1_555 1_555
C1F H1F 1_555 1_555
C2F C1F 1_555 1_555
H2F C2F 1_555 1_555
C3F C2F 1_555 1_555
C4F C3F 1_555 1_555
H3F C4F 1_555 1_555
C5F C4F 1_555 1_555
H4F C5F 1_555 1_555
C6F C1F 1_555 1_555
H5F C6F 1_555 1_555
C7F C3F 1_555 1_555
H6F C7F 1_555 1_555
H7F C7F 1_555 1_555
C8F H8F 1_555 1_555
H9F C8F 1_555 1_555
C9F H10F 1_555 1_555
H11F C9F 1_555 1_555
N1F C7F 1_555 1_555
H12F N1F 1_555 1_555
O1F Pb2 1_555 1_555
O2F P1F 1_555 1_555
O3F P1F 1_555 1_555
O4F P2F 1_555 1_555
H13F O4F 1_555 1_555
O5F P2F 1_555 1_555
O6F P2F 1_555 1_555
O8F Pb2 1_555 1_555
Pb1F O2F 1_555 1_555
O2E Pb1 1_555 1_555
O3C Pb1 1_555 1_555
O5C Pb1 1_555 1_555
O3E Pb2 1_555 1_555
Pb1F_2 O7 1_555 1_555
Pb1E O2 1_555 1_555
Pb1C O3 1_555 1_555
Pb2C O3 1_555 1_555
Pb1C_2 O5 1_555 1_555
Pb1C_3 O2F 1_555 1_555
Pb1E_2 O3F 1_555 1_555
Pb2C_2 O3F 1_555 1_555
Pb1E_3 O5F 1_555 1_555
Cl1_2 Pb1F 1_555 1_555
O2C Pb1F 1_555 1_555
O5E Pb1F 1_555 1_555
O7_2 Pb1F 1_555 1_555
Pb2 O3C 1_555 1_555
P1 O2 1_555 1_555
C5 C6 1_555 1_555
C8 N1 1_555 1_555
C9 N1 1_555 1_555
P1F O1F 1_555 1_555
C5F C6F 1_555 1_555
C8F N1F 1_555 1_555
C9F N1F 1_555 1_555
Pb1F O3E 1_555 1_555
O2E Pb1E 1_555 1_555
Pb1C_3 O2C 1_555 1_555

#END
