
#######################################################################
#
#                 Cambridge Crystallographic Data Centre
#                                CCDC 
#
#######################################################################
#
# If this CIF has been generated from an entry in the Cambridge 
# Structural Database, then it will include bibliographic, chemical, 
# crystal, experimental, refinement or atomic coordinate data resulting 
# from the CCDC's data processing and validation procedures.
#
#######################################################################

data_OLOFIF
_symmetry_cell_setting           monoclinic
_symmetry_space_group_name_H-M   'C 2/m'
_symmetry_Int_Tables_number      12
_space_group_name_Hall           '-C 2y'
loop_
_symmetry_equiv_pos_site_id
_symmetry_equiv_pos_as_xyz
1 x,y,z
2 -x,y,-z
3 1/2+x,1/2+y,z
4 1/2-x,1/2+y,-z
5 -x,-y,-z
6 x,-y,z
7 1/2-x,1/2-y,-z
8 1/2+x,1/2-y,z
_cell_length_a                   26.940(4)
_cell_length_b                   7.3179(11)
_cell_length_c                   7.7540(12)
_cell_angle_alpha                90
_cell_angle_beta                 100.82(2)
_cell_angle_gamma                90
_cell_volume                     1501.48
loop_
_atom_site_label
_atom_site_type_symbol
_atom_site_fract_x
_atom_site_fract_y
_atom_site_fract_z
Co1 Co 0.2500 0.2500 0.5000
C1 C 0.34565(13) 0.5000 0.5429(5)
C2 C 0.40116(13) 0.5000 0.6151(5)
C3 C 0.42795(10) 0.3415(4) 0.6586(5)
H1 H 0.4110 0.2306 0.6404
C4 C 0.47923(11) 0.3400(4) 0.7285(5)
H2 H 0.4957 0.2288 0.7535
C5 C 0.50627(14) 0.5000 0.7616(5)
C6 C 0.56143(13) 0.5000 0.8242(5)
C7 C 0.58981(10) 0.3421(3) 0.8556(4)
H3 H 0.5732 0.2301 0.8465
C8 C 0.64193(10) 0.3447(3) 0.9000(5)
H4 H 0.6596 0.2348 0.9117
C9 C 0.72395(12) 0.5000 0.9712(5)
C10 C 0.73826(12) 0.5000 1.1673(4)
N1 N 0.21906(12) 0.5000 0.4037(4)
N2 N 0.18500(14) 0.5000 0.2722(6)
N3 N 0.15013(15) 0.5000 0.1502(6)
N4 N 0.66722(10) 0.5000 0.9262(4)
O1 O 0.32425(6) 0.3476(2) 0.5065(3)
O2 O 0.74481(6) 0.3447(2) 1.2419(2)
H6 H 0.7389(7) 0.618(3) 0.911(3)
Co1C Co 0.2500 0.7500 0.5000
Co1A Co 0.7500 0.2500 1.5000
Co1B Co 0.7500 0.7500 1.5000
C3E C 0.42795(10) 0.6585(4) 0.6586(5)
H1E H 0.4110 0.7694 0.6404
C4E C 0.47923(11) 0.6600(4) 0.7285(5)
H2E H 0.4957 0.7712 0.7535
C7E C 0.58981(10) 0.6579(3) 0.8556(4)
H3E H 0.5732 0.7699 0.8465
C8E C 0.64193(10) 0.6553(3) 0.9000(5)
H4E H 0.6596 0.7652 0.9117
N1C N 0.28094(12) 0.0000 0.5963(4)
O1E O 0.32425(6) 0.6524(2) 0.5065(3)
O1F O 0.17575(6) 0.1524(2) 0.4935(3)
O2E O 0.74481(6) 0.6553(2) 1.2419(2)
O2A O 0.25519(6) 0.3447(2) 0.7581(2)
O2G O 0.24481(6) 0.1553(2) 0.2419(2)
H6E H 0.7389(7) 0.382(3) 0.911(3)
O3 O 0.36649(13) 0.0000 0.3600(6)
H5 H 0.3528(10) 0.0947(13) 0.389(4)
H5E H 0.3528(10) -0.0947(13) 0.389(4)
loop_
_geom_bond_atom_site_label_1
_geom_bond_atom_site_label_2
_geom_bond_site_symmetry_1
_geom_bond_site_symmetry_2
Co1 N1 1_555 1_555
C1 C2 1_555 1_555
C2 C3 1_555 1_555
C3 H1 1_555 1_555
C4 C3 1_555 1_555
H2 C4 1_555 1_555
C5 C4 1_555 1_555
C6 C5 1_555 1_555
C7 C6 1_555 1_555
H3 C7 1_555 1_555
C8 C7 1_555 1_555
H4 C8 1_555 1_555
C9 C10 1_555 1_555
C10 O2 1_555 1_555
N1 N2 1_555 1_555
N2 N3 1_555 1_555
N4 C8 1_555 1_555
O1 Co1 1_555 1_555
O2 Co1A 1_555 1_555
O3 H5 1_555 1_555
H6 C9 1_555 1_555
Co1C N1 1_555 1_555
Co1B O2E 1_555 1_555
C3E C2 1_555 1_555
H1E C3E 1_555 1_555
C4E C5 1_555 1_555
H2E C4E 1_555 1_555
C7E C6 1_555 1_555
H3E C7E 1_555 1_555
C8E N4 1_555 1_555
H4E C8E 1_555 1_555
N1C Co1 1_555 1_555
O1E C1 1_555 1_555
O1F Co1 1_555 1_555
O2E C10 1_555 1_555
O2A Co1 1_555 1_555
O2G Co1 1_555 1_555
H5E O3 1_555 1_555
H6E C9 1_555 1_555
C1 O1 1_555 1_555
C9 N4 1_555 1_555
Co1C O1E 1_555 1_555
C3E C4E 1_555 1_555
C7E C8E 1_555 1_555

#END
