
#######################################################################
#
#                 Cambridge Crystallographic Data Centre
#                                CCDC 
#
#######################################################################
#
# If this CIF has been generated from an entry in the Cambridge 
# Structural Database, then it will include bibliographic, chemical, 
# crystal, experimental, refinement or atomic coordinate data resulting 
# from the CCDC's data processing and validation procedures.
#
#######################################################################

data_OLOKIJ01
_symmetry_cell_setting           triclinic
_symmetry_space_group_name_H-M   'P -1'
_symmetry_Int_Tables_number      2
_space_group_name_Hall           '-P 1'
loop_
_symmetry_equiv_pos_site_id
_symmetry_equiv_pos_as_xyz
1 x,y,z
2 -x,-y,-z
_cell_length_a                   9.8522(4)
_cell_length_b                   10.7554(5)
_cell_length_c                   21.7832(10)
_cell_angle_alpha                76.3650(10)
_cell_angle_beta                 85.6580(10)
_cell_angle_gamma                63.6550(10)
_cell_volume                     2009.1
loop_
_atom_site_label
_atom_site_type_symbol
_atom_site_fract_x
_atom_site_fract_y
_atom_site_fract_z
Co1 Co 0.5000 0.0000 0.5000
Co2 Co 1.0000 0.0000 0.0000
O1 O 0.3612(2) -0.0887(2) 0.48155(10)
O2 O 0.8699(3) -0.1086(2) -0.00254(10)
N1 N 0.7926(3) 0.1817(3) 0.01866(12)
N2 N 0.4961(3) 0.1052(3) 0.40122(12)
N3 N 0.7040(3) -0.1892(3) 0.48417(12)
N4 N 1.0270(3) -0.0838(3) 0.10144(12)
C1 C 0.6516(4) 0.1936(4) 0.01630(15)
H1 H 0.6353 0.1340 -0.0039
C2 C 0.5289(4) 0.2900(4) 0.04245(15)
H2 H 0.4338 0.2922 0.0404
C3 C 0.5476(4) 0.3832(4) 0.07163(14)
C4 C 0.6914(4) 0.3752(3) 0.07172(15)
H3 H 0.7089 0.4379 0.0893
C5 C 0.8100(4) 0.2740(4) 0.04571(14)
H4 H 0.9060 0.2700 0.0471
C6 C 0.4212(4) 0.4801(4) 0.10604(15)
H5 H 0.3278 0.5239 0.0808
H6 H 0.4444 0.5554 0.1118
C7 C 0.3993(4) 0.3967(4) 0.17121(15)
H7 H 0.3139 0.4603 0.1912
H8 H 0.3764 0.3213 0.1653
C8 C 0.5407(4) 0.3319(4) 0.21434(15)
H9 H 0.6251 0.2662 0.1947
H10 H 0.5655 0.4072 0.2188
C9 C 0.5205(4) 0.2543(4) 0.27887(15)
C10 C 0.4764(4) 0.3205(4) 0.32924(15)
H11 H 0.4541 0.4162 0.3231
C11 C 0.4653(4) 0.2441(3) 0.38885(15)
H12 H 0.4353 0.2910 0.4218
C12 C 0.5470(4) 0.1122(4) 0.29073(15)
H13 H 0.5733 0.0643 0.2581
C13 C 0.5339(4) 0.0423(4) 0.35171(15)
H14 H 0.5522 -0.0525 0.3587
C14 C 0.8429(4) -0.2020(3) 0.49304(14)
H15 H 0.8540 -0.1480 0.5182
C15 C 0.9719(4) -0.2919(3) 0.46674(15)
H16 H 1.0660 -0.2977 0.4751
C16 C 0.9604(4) -0.3727(3) 0.42825(14)
C17 C 0.8179(4) -0.3668(4) 0.42282(16)
H17 H 0.8048 -0.4236 0.3998
C18 C 0.6959(4) -0.2773(4) 0.45135(17)
H18 H 0.6027 -0.2778 0.4477
C19 C 1.0918(4) -0.4580(4) 0.39244(14)
H19 H 1.1017 -0.5543 0.4000
H20 H 1.1843 -0.4632 0.4080
C20 C 1.0716(4) -0.3920(3) 0.32068(14)
H21 H 1.1555 -0.4535 0.2993
H22 H 0.9790 -0.3870 0.3053
C21 C 1.0642(4) -0.2421(4) 0.30415(14)
H23 H 0.9771 -0.1788 0.3236
H24 H 1.1545 -0.2457 0.3211
C22 C 1.0523(4) -0.1846(3) 0.23381(15)
C23 C 1.1770(4) -0.1905(4) 0.19816(15)
H25 H 1.2719 -0.2284 0.2179
C24 C 1.1600(4) -0.1398(3) 0.13272(15)
H26 H 1.2452 -0.1452 0.1098
C25 C 0.9058(4) -0.0788(4) 0.13632(15)
H27 H 0.8120 -0.0405 0.1156
C26 C 0.9144(4) -0.1277(4) 0.20124(15)
H28 H 0.8279 -0.1225 0.2231
O1A O 0.6388(2) 0.0887(2) 0.51845(10)
O2A O 1.1301(3) 0.1086(2) 0.00254(10)
N1A N 1.2074(3) -0.1817(3) -0.01866(12)
C1A C 1.3484(4) -0.1936(4) -0.01630(15)
H1A H 1.3647 -0.1340 0.0039
C2A C 1.4711(4) -0.2900(4) -0.04245(15)
H2A H 1.5662 -0.2922 -0.0404
C3A C 1.4524(4) -0.3832(4) -0.07163(14)
C4A C 1.3086(4) -0.3752(3) -0.07172(15)
H3A H 1.2911 -0.4379 -0.0893
C5A C 1.1900(4) -0.2740(4) -0.04571(14)
H4A H 1.0940 -0.2700 -0.0471
C6A C 1.5788(4) -0.4801(4) -0.10604(15)
H5A H 1.6722 -0.5239 -0.0808
H6A H 1.5556 -0.5554 -0.1118
C7A C 1.6007(4) -0.3967(4) -0.17121(15)
H7A H 1.6861 -0.4603 -0.1912
H8A H 1.6236 -0.3213 -0.1653
C8A C 1.4593(4) -0.3319(4) -0.21434(15)
H9A H 1.3749 -0.2662 -0.1947
H10A H 1.4345 -0.4072 -0.2188
C9A C 1.4795(4) -0.2543(4) -0.27887(15)
C10A C 1.5236(4) -0.3205(4) -0.32924(15)
H11A H 1.5459 -0.4162 -0.3231
C11A C 1.5347(4) -0.2441(3) -0.38885(15)
N2A N 1.5039(3) -0.1052(3) -0.40122(12)
Co1A Co 1.5000 0.0000 -0.5000
N3A N 1.2960(3) 0.1892(3) -0.48417(12)
C14A C 1.1571(4) 0.2020(3) -0.49304(14)
H15A H 1.1460 0.1480 -0.5182
C15A C 1.0281(4) 0.2919(3) -0.46674(15)
H16A H 0.9340 0.2977 -0.4751
C16A C 1.0396(4) 0.3727(3) -0.42825(14)
C17A C 1.1821(4) 0.3668(4) -0.42282(16)
H17A H 1.1952 0.4236 -0.3998
C18A C 1.3041(4) 0.2773(4) -0.45135(17)
H18A H 1.3973 0.2778 -0.4477
C19A C 0.9082(4) 0.4580(4) -0.39244(14)
H19A H 0.8983 0.5543 -0.4000
H20A H 0.8157 0.4632 -0.4080
C20A C 0.9284(4) 0.3920(3) -0.32068(14)
H21A H 0.8445 0.4535 -0.2993
H22A H 1.0210 0.3870 -0.3053
C21A C 0.9358(4) 0.2421(4) -0.30415(14)
H23A H 1.0229 0.1788 -0.3236
H24A H 0.8455 0.2457 -0.3211
C22A C 0.9477(4) 0.1846(3) -0.23381(15)
C23A C 0.8230(4) 0.1905(4) -0.19816(15)
H25A H 0.7281 0.2284 -0.2179
C24A C 0.8400(4) 0.1398(3) -0.13272(15)
N4A N 0.9730(3) 0.0838(3) -0.10144(12)
N2A_2 N 0.5039(3) -0.1052(3) 0.59878(12)
N3A_2 N 0.2960(3) 0.1892(3) 0.51583(12)
C25A C 1.0942(4) 0.0788(4) -0.13632(15)
H27A H 1.1880 0.0405 -0.1156
C26A C 1.0856(4) 0.1277(4) -0.20124(15)
H28A H 1.1721 0.1225 -0.2231
H26A H 0.7548 0.1452 -0.1098
C13A C 1.4661(4) -0.0423(4) -0.35171(15)
C12A C 1.4530(4) -0.1122(4) -0.29073(15)
H13A H 1.4267 -0.0643 -0.2581
H14A H 1.4478 0.0525 -0.3587
H12A H 1.5647 -0.2910 -0.4218
O3 O 0.3413(4) 1.0828(3) 0.08603(17)
O4 O 0.4878(4) 0.8594(4) 0.1094(2)
O5 O 0.5252(3) 0.9977(4) 0.15579(14)
N7 N 0.4526(4) 0.9798(4) 0.11690(17)
O6 O 0.3822(3) 0.8182(3) 0.37124(14)
O7 O 0.3648(6) 0.6424(6) 0.4328(2)
O8 O 0.4688(5) 0.6223(4) 0.3407(2)
N8 N 0.4025(5) 0.6952(5) 0.3832(2)
O9 O 0.6519(4) 0.7384(5) 0.26217(17)
N5 N 0.9265(4) 0.6408(3) 0.08013(15)
N6 N 0.8136(3) 0.1724(3) 0.42976(14)
C27 C 0.8430(5) 0.6252(4) 0.13065(19)
H29 H 0.7646 0.7065 0.1401
C28 C 0.8682(4) 0.4943(4) 0.16916(17)
H30 H 0.8076 0.4893 0.2036
C29 C 0.9840(4) 0.3697(4) 0.15646(16)
C30 C 1.0732(4) 0.3848(4) 0.10468(16)
H31 H 1.1534 0.3053 0.0946
C31 C 1.0395(5) 0.5210(4) 0.06850(17)
H32 H 1.0992 0.5295 0.0341
C32 C 1.0182(4) 0.2233(4) 0.19557(16)
H33 H 1.0377 0.1591 0.1678
H34 H 0.9306 0.2267 0.2200
C33 C 1.1552(4) 0.1662(4) 0.24031(15)
H35 H 1.1833 0.0667 0.2597
H36 H 1.2400 0.1714 0.2161
C34 C 1.1256(4) 0.2479(4) 0.29199(15)
H37 H 1.2206 0.2186 0.3140
H38 H 1.0866 0.3488 0.2727
C35 C 1.0145(4) 0.2245(4) 0.33920(15)
C36 C 0.8770(4) 0.3335(4) 0.34980(16)
H39 H 0.8486 0.4262 0.3265
C37 C 0.7811(4) 0.3038(4) 0.39553(16)
H40 H 0.6907 0.3788 0.4024
C38 C 0.9456(4) 0.0687(4) 0.41815(16)
H41 H 0.9707 -0.0235 0.4414
C39 C 1.0465(4) 0.0880(4) 0.37458(16)
H42 H 1.1357 0.0106 0.3687
loop_
_geom_bond_atom_site_label_1
_geom_bond_atom_site_label_2
_geom_bond_site_symmetry_1
_geom_bond_site_symmetry_2
Co1 O1 1_555 1_555
Co2 O2 1_555 1_555
O3 N7 1_555 1_555
O4 N7 1_555 1_555
O5 N7 1_555 1_555
O6 N8 1_555 1_555
O7 N8 1_555 1_555
O8 N8 1_555 1_555
N1 Co2 1_555 1_555
N2 Co1 1_555 1_555
N3 Co1 1_555 1_555
N4 Co2 1_555 1_555
N5 C27 1_555 1_555
N6 C37 1_555 1_555
C1 N1 1_555 1_555
H1 C1 1_555 1_555
C2 C1 1_555 1_555
H2 C2 1_555 1_555
C3 C2 1_555 1_555
C4 C3 1_555 1_555
H3 C4 1_555 1_555
C5 N1 1_555 1_555
H4 C5 1_555 1_555
C6 C3 1_555 1_555
H5 C6 1_555 1_555
H6 C6 1_555 1_555
C7 C6 1_555 1_555
H7 C7 1_555 1_555
H8 C7 1_555 1_555
C8 C7 1_555 1_555
H9 C8 1_555 1_555
H10 C8 1_555 1_555
C9 C8 1_555 1_555
C10 C9 1_555 1_555
H11 C10 1_555 1_555
C11 N2 1_555 1_555
H12 C11 1_555 1_555
C12 C9 1_555 1_555
H13 C12 1_555 1_555
C13 N2 1_555 1_555
H14 C13 1_555 1_555
C14 N3 1_555 1_555
H15 C14 1_555 1_555
C15 C14 1_555 1_555
H16 C15 1_555 1_555
C16 C15 1_555 1_555
C17 C16 1_555 1_555
H17 C17 1_555 1_555
C18 N3 1_555 1_555
H18 C18 1_555 1_555
C19 C16 1_555 1_555
H19 C19 1_555 1_555
H20 C19 1_555 1_555
C20 C19 1_555 1_555
H21 C20 1_555 1_555
H22 C20 1_555 1_555
C21 C20 1_555 1_555
H23 C21 1_555 1_555
H24 C21 1_555 1_555
C22 C21 1_555 1_555
C23 C22 1_555 1_555
H25 C23 1_555 1_555
C24 N4 1_555 1_555
H26 C24 1_555 1_555
C25 N4 1_555 1_555
H27 C25 1_555 1_555
C26 C22 1_555 1_555
H28 C26 1_555 1_555
C27 H29 1_555 1_555
C28 C27 1_555 1_555
H30 C28 1_555 1_555
C29 C28 1_555 1_555
C30 C29 1_555 1_555
H31 C30 1_555 1_555
C31 N5 1_555 1_555
H32 C31 1_555 1_555
C32 C29 1_555 1_555
H33 C32 1_555 1_555
H34 C32 1_555 1_555
C33 C32 1_555 1_555
H35 C33 1_555 1_555
H36 C33 1_555 1_555
C34 C33 1_555 1_555
H37 C34 1_555 1_555
H38 C34 1_555 1_555
C35 C34 1_555 1_555
C36 C35 1_555 1_555
H39 C36 1_555 1_555
C37 C36 1_555 1_555
H40 C37 1_555 1_555
C38 N6 1_555 1_555
H41 C38 1_555 1_555
C39 C35 1_555 1_555
H42 C39 1_555 1_555
O1A Co1 1_555 1_555
O2A Co2 1_555 1_555
N1A Co2 1_555 1_555
C1A N1A 1_555 1_555
H1A C1A 1_555 1_555
C2A C1A 1_555 1_555
H2A C2A 1_555 1_555
C3A C2A 1_555 1_555
C4A C3A 1_555 1_555
H3A C4A 1_555 1_555
C5A N1A 1_555 1_555
H4A C5A 1_555 1_555
C6A C3A 1_555 1_555
H5A C6A 1_555 1_555
H6A C6A 1_555 1_555
C7A C6A 1_555 1_555
H7A C7A 1_555 1_555
H8A C7A 1_555 1_555
C8A C7A 1_555 1_555
H9A C8A 1_555 1_555
H10A C8A 1_555 1_555
C9A C8A 1_555 1_555
C10A C9A 1_555 1_555
H11A C10A 1_555 1_555
C11A C10A 1_555 1_555
N2A C11A 1_555 1_555
Co1A N2A 1_555 1_555
N3A Co1A 1_555 1_555
C14A N3A 1_555 1_555
H15A C14A 1_555 1_555
C15A C14A 1_555 1_555
H16A C15A 1_555 1_555
C16A C15A 1_555 1_555
C17A C16A 1_555 1_555
H17A C17A 1_555 1_555
C18A N3A 1_555 1_555
H18A C18A 1_555 1_555
C19A C16A 1_555 1_555
H19A C19A 1_555 1_555
H20A C19A 1_555 1_555
C20A C19A 1_555 1_555
H21A C20A 1_555 1_555
H22A C20A 1_555 1_555
C21A C20A 1_555 1_555
H23A C21A 1_555 1_555
H24A C21A 1_555 1_555
C22A C21A 1_555 1_555
C23A C22A 1_555 1_555
H25A C23A 1_555 1_555
C24A C23A 1_555 1_555
N4A Co2 1_555 1_555
N2A_2 Co1 1_555 1_555
N3A_2 Co1 1_555 1_555
C25A N4A 1_555 1_555
H27A C25A 1_555 1_555
C26A C22A 1_555 1_555
H28A C26A 1_555 1_555
H26A C24A 1_555 1_555
C13A N2A 1_555 1_555
C12A C9A 1_555 1_555
H13A C12A 1_555 1_555
H14A C13A 1_555 1_555
H12A C11A 1_555 1_555
C4 C5 1_555 1_555
C10 C11 1_555 1_555
C12 C13 1_555 1_555
C17 C18 1_555 1_555
C23 C24 1_555 1_555
C25 C26 1_555 1_555
C30 C31 1_555 1_555
C38 C39 1_555 1_555
C4A C5A 1_555 1_555
C17A C18A 1_555 1_555
C24A N4A 1_555 1_555
C25A C26A 1_555 1_555
C13A C12A 1_555 1_555

#END
