
#######################################################################
#
#                 Cambridge Crystallographic Data Centre
#                                CCDC 
#
#######################################################################
#
# If this CIF has been generated from an entry in the Cambridge 
# Structural Database, then it will include bibliographic, chemical, 
# crystal, experimental, refinement or atomic coordinate data resulting 
# from the CCDC's data processing and validation procedures.
#
#######################################################################

data_OLUBIG
_symmetry_cell_setting           monoclinic
_symmetry_space_group_name_H-M   'P 21/c'
_symmetry_Int_Tables_number      14
_space_group_name_Hall           '-P 2ybc'
loop_
_symmetry_equiv_pos_site_id
_symmetry_equiv_pos_as_xyz
1 x,y,z
2 x,1/2-y,1/2+z
3 -x,-y,-z
4 -x,1/2+y,1/2-z
_cell_length_a                   9.2193(18)
_cell_length_b                   7.9853(16)
_cell_length_c                   21.401(4)
_cell_angle_alpha                90
_cell_angle_beta                 97.54(3)
_cell_angle_gamma                90
_cell_volume                     1561.89
loop_
_atom_site_label
_atom_site_type_symbol
_atom_site_fract_x
_atom_site_fract_y
_atom_site_fract_z
Te1 Te -0.22045(3) 0.02924(4) 0.273940(12)
Cu1 Cu -0.42301(5) -0.08871(7) 0.37344(2)
V1 V -0.39248(7) -0.35241(9) 0.25267(3)
V2 V 0.06961(7) -0.06268(9) 0.19784(3)
O1 O -0.2272(3) -0.0634(4) 0.35256(13)
O2 O -0.4880(3) 0.0700(4) 0.30718(14)
O3 O -0.0343(3) -0.0617(4) 0.26423(15)
O4 O 0.2536(4) -0.0017(5) 0.22516(16)
O5 O -0.4840(3) -0.3153(4) 0.31138(14)
O6 O -0.3144(3) -0.1648(4) 0.22728(14)
O7 O -0.0759(3) 0.2436(4) 0.33059(15)
O8 O -0.0057(4) 0.0574(5) 0.14301(17)
N1 N -0.3485(4) -0.2222(5) 0.44959(16)
N2 N -0.6111(4) -0.0985(5) 0.41156(16)
C1 C -0.4504(4) -0.2463(5) 0.48870(19)
C2 C -0.5922(4) -0.1790(6) 0.46828(19)
C3 C -0.7056(5) -0.2000(6) 0.5053(2)
C4 C -0.8431(5) -0.1348(7) 0.4814(2)
H1 H -0.9206 -0.1426 0.5050
C5 C -0.7439(5) -0.0427(6) 0.3901(2)
H2 H -0.7581 0.0103 0.3510
C6 C -0.6754(5) -0.2859(6) 0.5645(2)
H3 H -0.7491 -0.2978 0.5899
C7 C -0.4235(5) -0.3329(6) 0.5459(2)
C8 C -0.2813(5) -0.3972(6) 0.5620(2)
H4 H -0.2570 -0.4545 0.5998
C9 C -0.1796(5) -0.3752(6) 0.5220(2)
H5 H -0.0858 -0.4182 0.5323
C10 C -0.8635(5) -0.0602(7) 0.4238(2)
H6 H -0.9555 -0.0214 0.4070
C11 C -0.2161(5) -0.2875(6) 0.4653(2)
H7 H -0.1461 -0.2748 0.4381
C12 C -0.5407(5) -0.3501(6) 0.5838(2)
H8 H -0.5238 -0.4063 0.6221
V1C V -0.60752(7) 0.14759(9) 0.24733(3)
V1C_2 V 0.39248(7) 0.14759(9) 0.24733(3)
O7C O 0.0759(3) -0.2564(4) 0.16941(15)
O2C O -0.5120(3) -0.4300(4) 0.19282(14)
O4C O -0.2536(4) -0.5017(5) 0.27484(16)
V2C V -0.06961(7) 0.43732(9) 0.30216(3)
loop_
_geom_bond_atom_site_label_1
_geom_bond_atom_site_label_2
_geom_bond_site_symmetry_1
_geom_bond_site_symmetry_2
Te1 O1 1_555 1_555
Cu1 O1 1_555 1_555
V1 O5 1_555 1_555
V2 O3 1_555 1_555
O2 Cu1 1_555 1_555
O3 Te1 1_555 1_555
O4 V2 1_555 1_555
O5 Cu1 1_555 1_555
O6 Te1 1_555 1_555
O7 Te1 1_555 1_555
O8 V2 1_555 1_555
N1 Cu1 1_555 1_555
N2 Cu1 1_555 1_555
C1 N1 1_555 1_555
C2 N2 1_555 1_555
C3 C2 1_555 1_555
C4 C3 1_555 1_555
H1 C4 1_555 1_555
C5 N2 1_555 1_555
H2 C5 1_555 1_555
C6 C3 1_555 1_555
H3 C6 1_555 1_555
C7 C1 1_555 1_555
C8 C7 1_555 1_555
H4 C8 1_555 1_555
C9 C8 1_555 1_555
H5 C9 1_555 1_555
C10 C4 1_555 1_555
H6 C10 1_555 1_555
C11 N1 1_555 1_555
H7 C11 1_555 1_555
C12 C6 1_555 1_555
H8 C12 1_555 1_555
V1C O2 1_555 1_555
V1C_2 O4 1_555 1_555
O7C V2 1_555 1_555
O2C V1 1_555 1_555
O4C V1 1_555 1_555
V2C O7 1_555 1_555
V1 O6 1_555 1_555
C1 C2 1_555 1_555
C5 C10 1_555 1_555
C7 C12 1_555 1_555
C9 C11 1_555 1_555

#END
