
#######################################################################
#
#                 Cambridge Crystallographic Data Centre
#                                CCDC 
#
#######################################################################
#
# If this CIF has been generated from an entry in the Cambridge 
# Structural Database, then it will include bibliographic, chemical, 
# crystal, experimental, refinement or atomic coordinate data resulting 
# from the CCDC's data processing and validation procedures.
#
#######################################################################

data_OLUCAZ
_symmetry_cell_setting           orthorhombic
_symmetry_space_group_name_H-M   'P n a 21'
_symmetry_Int_Tables_number      33
_space_group_name_Hall           'P 2c -2n'
loop_
_symmetry_equiv_pos_site_id
_symmetry_equiv_pos_as_xyz
1 x,y,z
2 -x,-y,1/2+z
3 1/2-x,1/2+y,1/2+z
4 1/2+x,1/2-y,z
_cell_length_a                   15.401(3)
_cell_length_b                   17.141(3)
_cell_length_c                   9.0521(18)
_cell_angle_alpha                90
_cell_angle_beta                 90
_cell_angle_gamma                90
_cell_volume                     2389.65
loop_
_atom_site_label
_atom_site_type_symbol
_atom_site_fract_x
_atom_site_fract_y
_atom_site_fract_z
C1 C 0.2971(4) 0.2788(4) -0.2651(7)
H1 H 0.3086 0.3321 -0.2651
C2 C 0.2558(5) 0.1656(4) -0.3338(8)
H2 H 0.2330 0.1255 -0.3911
C3 C 0.2885(4) 0.1580(5) -0.1947(9)
H3 H 0.2925 0.1123 -0.1396
C4 C 0.3577(4) 0.2515(5) -0.0134(8)
H4 H 0.3330 0.2997 0.0240
H5 H 0.3462 0.2110 0.0588
C5 C 0.4543(4) 0.2614(4) -0.0295(7)
H6 H 0.4658 0.3114 -0.0755
H7 H 0.4802 0.2622 0.0682
C6 C 0.4979(4) 0.1980(4) -0.1200(8)
H8 H 0.4846 0.1476 -0.0767
H9 H 0.4743 0.1987 -0.2193
C7 C 0.5976(4) 0.2075(4) -0.1285(8)
H10 H 0.6116 0.2621 -0.1439
H11 H 0.6195 0.1783 -0.2123
C8 C 0.6542(4) 0.2218(4) 0.1308(7)
H12 H 0.6389 0.2739 0.1431
C9 C 0.6719(4) 0.1072(4) 0.0310(8)
H13 H 0.6717 0.0659 -0.0355
C10 C 0.7039(4) 0.1061(4) 0.1703(8)
H14 H 0.7295 0.0635 0.2166
C11 C 0.8929(4) 0.3928(3) 0.2811(7)
C12 C 0.8372(4) 0.4403(3) 0.2033(7)
H15 H 0.7795 0.4257 0.1917
C13 C 0.8663(4) 0.5097(3) 0.1421(7)
C14 C 0.9522(4) 0.5323(3) 0.1642(7)
H16 H 0.9721 0.5789 0.1241
C15 C 1.0074(4) 0.4864(4) 0.2444(8)
H17 H 1.0639 0.5030 0.2625
C16 C 0.9794(4) 0.4148(4) 0.2989(7)
H18 H 1.0181 0.3819 0.3469
C17 C 0.8614(4) 0.3169(4) 0.3438(7)
C18 C 0.8056(4) 0.5622(4) 0.0539(8)
N1 N 0.2621(3) 0.2414(3) -0.3747(6)
N2 N 0.3144(3) 0.2311(3) -0.1524(6)
N3 N 0.6403(3) 0.1801(3) 0.0067(6)
N4 N 0.6922(3) 0.1790(3) 0.2319(6)
O1 O 0.7800(3) 0.3065(3) 0.3390(5)
O2 O 0.9149(3) 0.2693(2) 0.3919(6)
O3 O 0.8341(3) 0.6289(2) 0.0256(5)
O4 O 0.7344(3) 0.5360(3) 0.0137(8)
O5 O 0.5898(3) 0.2834(3) 0.4538(9)
Cu1 Cu 0.72173(4) 0.21815(4) 0.42936(10)
H22 H 0.586(6) 0.331(3) 0.493(10)
H24 H 0.539(3) 0.269(5) 0.488(11)
Cu1C Cu 0.22173(4) 0.28185(4) -0.57064(10)
N1C N 0.7621(3) 0.2586(3) 0.6253(6)
Cu1B Cu 0.77827(4) 0.71815(4) -0.07064(10)
O3B O 0.6659(3) 0.1289(2) 0.5256(5)
O6 O -0.1011(4) 0.1115(3) -1.6194(10)
H19 H -0.122(6) 0.155(3) -1.657(11)
H21 H -0.151(3) 0.088(4) -1.596(12)
O7 O -0.3832(6) 0.4096(4) -2.0072(13)
H20 H -0.382(7) 0.434(6) -1.915(6)
O8 O -0.1243(7) 0.0491(6) -1.1890(16)
H23 H -0.086(5) 0.038(6) -1.112(8)
O9 O -0.4570(9) 0.3955(6) -2.3045(15)
H25 H -0.464(7) 0.4490(17) -2.291(13)
O10 O -0.0570(10) 0.0517(8) -1.883(2)
O11 O 0.0627(14) 0.0611(11) -1.525(3)
O12 O 0.0614(11) 0.0899(13) -1.729(2)
loop_
_geom_bond_atom_site_label_1
_geom_bond_atom_site_label_2
_geom_bond_site_symmetry_1
_geom_bond_site_symmetry_2
C1 H1 1_555 1_555
C2 H2 1_555 1_555
C3 C2 1_555 1_555
H3 C3 1_555 1_555
C4 H4 1_555 1_555
H5 C4 1_555 1_555
C5 C4 1_555 1_555
H6 C5 1_555 1_555
H7 C5 1_555 1_555
C6 C5 1_555 1_555
H8 C6 1_555 1_555
H9 C6 1_555 1_555
C7 C6 1_555 1_555
H10 C7 1_555 1_555
H11 C7 1_555 1_555
C8 H12 1_555 1_555
C9 H13 1_555 1_555
C10 C9 1_555 1_555
H14 C10 1_555 1_555
C11 C12 1_555 1_555
C12 H15 1_555 1_555
C13 C12 1_555 1_555
C14 C13 1_555 1_555
H16 C14 1_555 1_555
C15 C14 1_555 1_555
H17 C15 1_555 1_555
C16 C11 1_555 1_555
H18 C16 1_555 1_555
C17 C11 1_555 1_555
C18 C13 1_555 1_555
N1 C1 1_555 1_555
N2 C1 1_555 1_555
N3 C7 1_555 1_555
N4 C8 1_555 1_555
O1 C17 1_555 1_555
O2 C17 1_555 1_555
O3 C18 1_555 1_555
O4 C18 1_555 1_555
O5 Cu1 1_555 1_555
Cu1 N4 1_555 1_555
O6 H19 1_555 1_555
O7 H20 1_555 1_555
O8 H23 1_555 1_555
O9 H25 1_555 1_555
H21 O6 1_555 1_555
H22 O5 1_555 1_555
H24 O5 1_555 1_555
Cu1C N1 1_555 1_555
N1C Cu1 1_555 1_555
Cu1B O3 1_555 1_555
O3B Cu1 1_555 1_555
C2 N1 1_555 1_555
C3 N2 1_555 1_555
C4 N2 1_555 1_555
C8 N3 1_555 1_555
C9 N3 1_555 1_555
C10 N4 1_555 1_555
C15 C16 1_555 1_555
O1 Cu1 1_555 1_555

#END
