
#######################################################################
#
#                 Cambridge Crystallographic Data Centre
#                                CCDC 
#
#######################################################################
#
# If this CIF has been generated from an entry in the Cambridge 
# Structural Database, then it will include bibliographic, chemical, 
# crystal, experimental, refinement or atomic coordinate data resulting 
# from the CCDC's data processing and validation procedures.
#
#######################################################################

data_OLUCED
_symmetry_cell_setting           monoclinic
_symmetry_space_group_name_H-M   'C 2/c'
_symmetry_Int_Tables_number      15
_space_group_name_Hall           '-C 2yn'
loop_
_symmetry_equiv_pos_site_id
_symmetry_equiv_pos_as_xyz
1 x,y,z
2 1/2+x,1/2+y,z
3 x,-y,1/2+z
4 1/2+x,1/2-y,1/2+z
5 -x,-y,-z
6 1/2-x,1/2-y,-z
7 -x,y,1/2-z
8 1/2-x,1/2+y,1/2-z
_cell_length_a                   22.9357(13)
_cell_length_b                   11.3993(6)
_cell_length_c                   17.7305(9)
_cell_angle_alpha                90
_cell_angle_beta                 94.744(2)
_cell_angle_gamma                90
_cell_volume                     4619.77
loop_
_atom_site_label
_atom_site_type_symbol
_atom_site_fract_x
_atom_site_fract_y
_atom_site_fract_z
S1 S 0.39972(11) 0.1166(2) 0.39879(15)
C11 C 0.3677(4) 0.2303(7) 0.4506(6)
C12 C 0.3354(4) 0.2049(8) 0.5107(6)
H9 H 0.3276 0.1273 0.5223
C13 C 0.3144(4) 0.2956(8) 0.5544(5)
C14 C 0.3282(4) 0.4110(8) 0.5396(5)
H10 H 0.3160 0.4709 0.5702
C15 C 0.3607(4) 0.4369(7) 0.4782(5)
C16 C 0.3795(4) 0.3455(7) 0.4336(5)
H11 H 0.4002 0.3626 0.3920
C17 C 0.2822(4) 0.2635(9) 0.6220(6)
C18 C 0.3794(4) 0.5597(8) 0.4617(6)
O2 O 0.3812(4) 0.1389(6) 0.3204(4)
O3 O 0.4614(3) 0.1258(7) 0.4155(6)
O4 O 0.3759(3) 0.0081(5) 0.4238(5)
O5 O 0.3996(4) 0.5870(6) 0.4038(5)
O6 O 0.3739(3) 0.6326(6) 0.5182(4)
H16 H 0.394(7) 0.706(14) 0.522(9)
O7 O 0.2653(3) 0.3541(6) 0.6604(5)
H17 H 0.256(7) 0.339(14) 0.701(9)
O8 O 0.2740(3) 0.1619(6) 0.6391(4)
Ag1 Ag 0.43562(4) 1.12160(6) 0.19415(5)
C1 C 0.3919(4) 0.3716(8) 0.2202(5)
H1 H 0.3631 0.3306 0.2432
C2 C 0.3892(4) 0.4932(7) 0.2212(5)
H2 H 0.3597 0.5322 0.2441
C3 C 0.4329(4) 0.5559(7) 0.1859(5)
C4 C 0.4332(4) 0.6867(7) 0.1877(5)
C5 C 0.4092(4) 0.7505(8) 0.2438(5)
H3 H 0.3916 0.7119 0.2821
C6 C 0.4115(4) 0.8709(8) 0.2428(6)
H4 H 0.3959 0.9116 0.2819
C7 C 0.4587(4) 0.8723(8) 0.1340(6)
H5 H 0.4761 0.9135 0.0966
C8 C 0.4581(4) 0.7509(8) 0.1310(6)
H6 H 0.4743 0.7121 0.0915
C9 C 0.4745(4) 0.4915(7) 0.1535(5)
H7 H 0.5040 0.5294 0.1300
C10 C 0.4731(4) 0.3706(8) 0.1557(5)
H8 H 0.5018 0.3292 0.1328
N1 N 0.4322(4) 0.3095(6) 0.1891(5)
N2 N 0.4350(4) 0.9331(6) 0.1887(5)
Ag1_2 Ag 0.43562(4) 0.12160(6) 0.19415(5)
N1_2 N 0.4322(4) 1.3095(6) 0.1891(5)
C19 C 0.2636(5) 0.2009(10) 0.8310(6)
H12 H 0.2770 0.1443 0.7988
C20 C 0.2674(4) 0.1766(9) 0.9083(6)
H13 H 0.2823 0.1050 0.9261
C21 C 0.2488(4) 0.2595(8) 0.9587(5)
C22 C 0.2257(5) 0.3625(9) 0.9268(6)
H14 H 0.2112 0.4203 0.9573
C23 C 0.2244(5) 0.3784(10) 0.8484(6)
H15 H 0.2100 0.4490 0.8283
N3 N 0.2425(4) 0.2986(8) 0.8008(5)
C21E C 0.2512(4) 0.2405(8) 1.0413(5)
C20E C 0.2326(4) 0.3234(9) 1.0917(6)
C19E C 0.2364(5) 0.2991(10) 1.1690(6)
H12E H 0.2230 0.3557 1.2012
N3E N 0.2575(4) 0.2014(8) 1.1992(5)
C23E C 0.2756(5) 0.1216(10) 1.1516(6)
C22E C 0.2743(5) 0.1375(9) 1.0732(6)
H14E H 0.2888 0.0797 1.0427
H15E H 0.2900 0.0510 1.1717
H13E H 0.2177 0.3950 1.0739
O1 O 0.4284(6) 0.8317(9) 0.5103(7)
H18 H 0.470(5) 0.835(9) 0.534(6)
H19 H 0.419(4) 0.878(7) 0.508(5)
loop_
_geom_bond_atom_site_label_1
_geom_bond_atom_site_label_2
_geom_bond_site_symmetry_1
_geom_bond_site_symmetry_2
S1 C11 1_555 1_555
Ag1 N2 1_555 1_555
C1 H1 1_555 1_555
C2 C1 1_555 1_555
H2 C2 1_555 1_555
C3 C2 1_555 1_555
C4 C3 1_555 1_555
C5 C4 1_555 1_555
H3 C5 1_555 1_555
C6 C5 1_555 1_555
H4 C6 1_555 1_555
C7 H5 1_555 1_555
C8 C4 1_555 1_555
H6 C8 1_555 1_555
C9 C3 1_555 1_555
H7 C9 1_555 1_555
C10 C9 1_555 1_555
H8 C10 1_555 1_555
C11 C12 1_555 1_555
C12 H9 1_555 1_555
C13 C12 1_555 1_555
C14 C13 1_555 1_555
H10 C14 1_555 1_555
C15 C14 1_555 1_555
C16 C11 1_555 1_555
H11 C16 1_555 1_555
C17 C13 1_555 1_555
C18 C15 1_555 1_555
C19 H12 1_555 1_555
C20 C19 1_555 1_555
H13 C20 1_555 1_555
C21 C20 1_555 1_555
C22 C21 1_555 1_555
H14 C22 1_555 1_555
C23 C22 1_555 1_555
H15 C23 1_555 1_555
N1 C1 1_555 1_555
N2 C6 1_555 1_555
N3 C19 1_555 1_555
O1 H18 1_555 1_555
O2 S1 1_555 1_555
O3 S1 1_555 1_555
O4 S1 1_555 1_555
O5 C18 1_555 1_555
O6 C18 1_555 1_555
H16 O6 1_555 1_555
O7 C17 1_555 1_555
H17 O7 1_555 1_555
O8 C17 1_555 1_555
H19 O1 1_555 1_555
Ag1_2 N1 1_555 1_555
N1_2 Ag1 1_555 1_555
C21E C21 1_555 1_555
C20E C21E 1_555 1_555
C19E C20E 1_555 1_555
H12E C19E 1_555 1_555
N3E C19E 1_555 1_555
C23E N3E 1_555 1_555
C22E C21E 1_555 1_555
H14E C22E 1_555 1_555
H15E C23E 1_555 1_555
H13E C20E 1_555 1_555
C7 N2 1_555 1_555
C7 C8 1_555 1_555
C10 N1 1_555 1_555
C15 C16 1_555 1_555
C23 N3 1_555 1_555
C23E C22E 1_555 1_555

#END
