
#######################################################################
#
#                 Cambridge Crystallographic Data Centre
#                                CCDC 
#
#######################################################################
#
# If this CIF has been generated from an entry in the Cambridge 
# Structural Database, then it will include bibliographic, chemical, 
# crystal, experimental, refinement or atomic coordinate data resulting 
# from the CCDC's data processing and validation procedures.
#
#######################################################################

data_OLUMUD
_symmetry_cell_setting           triclinic
_symmetry_space_group_name_H-M   'P -1'
_symmetry_Int_Tables_number      2
_space_group_name_Hall           '-P 1'
loop_
_symmetry_equiv_pos_site_id
_symmetry_equiv_pos_as_xyz
1 x,y,z
2 -x,-y,-z
_cell_length_a                   7.4790(15)
_cell_length_b                   9.0820(18)
_cell_length_c                   11.737(2)
_cell_angle_alpha                78.98(3)
_cell_angle_beta                 80.42(3)
_cell_angle_gamma                68.47(3)
_cell_volume                     723.869
loop_
_atom_site_label
_atom_site_type_symbol
_atom_site_fract_x
_atom_site_fract_y
_atom_site_fract_z
Cu1 Cu -0.48832(5) -0.27346(4) -0.27067(3)
N1 N -0.3620(3) -0.3951(3) -0.40045(17)
N2 N -0.2226(3) -0.6268(3) -0.46680(18)
H1 H -0.1817 -0.7283 -0.4676
C1 C -0.2911(4) -0.3675(3) -0.5174(2)
N3 N -0.4538(3) -0.4973(2) -0.18397(18)
H2 H -0.3768 -0.5178 -0.1273
H3 H -0.5697 -0.4998 -0.1495
C2 C -0.2025(4) -0.5123(3) -0.5601(2)
C3 C -0.2981(4) -0.2253(3) -0.5889(2)
H4 H -0.3575 -0.1273 -0.5615
C4 C -0.3164(4) -0.5519(3) -0.3758(2)
N4 N -0.1028(4) 0.0156(3) -0.3602(2)
N5 N -0.3432(3) -0.1169(3) -0.3242(2)
C5 C -0.2260(4) -0.0594(3) -0.3394(2)
C6 C -0.3709(4) -0.6233(3) -0.2581(2)
H5 H -0.4646 -0.6728 -0.2612
H6 H -0.2579 -0.7050 -0.2264
C7 C -0.1169(4) -0.5221(3) -0.6733(2)
H7 H -0.0573 -0.6198 -0.7012
N6 N -0.5973(4) -0.1848(3) -0.1251(2)
C8 C -0.1244(4) -0.3809(4) -0.7424(2)
H8 H -0.0673 -0.3831 -0.8191
C9 C -0.2135(4) -0.2353(4) -0.7023(2)
H9 H -0.2167 -0.1421 -0.7527
C10 C -0.6649(5) -0.1184(4) -0.0481(3)
N7 N -0.7400(5) -0.0561(3) 0.0471(2)
C11 C 0.0807(5) -0.0713(3) -0.3531(2)
N8 N 0.2433(4) -0.1395(3) -0.3494(2)
N9 N -0.8947(4) 0.2258(3) 0.0595(2)
C12 C -0.8202(5) 0.0959(4) 0.0482(3)
N8_2 N -0.7567(4) -0.1395(3) -0.3494(2)
Cu1_2 Cu 0.51168(5) -0.27346(4) -0.27067(3)
O1 O -0.7698(4) 0.5052(3) -0.0009(2)
H10 H -0.870(3) 0.589(3) -0.017(3)
H11 H -0.791(4) 0.425(3) 0.023(2)
loop_
_geom_bond_atom_site_label_1
_geom_bond_atom_site_label_2
_geom_bond_site_symmetry_1
_geom_bond_site_symmetry_2
Cu1 N1 1_555 1_555
N1 C1 1_555 1_555
N2 H1 1_555 1_555
C1 C2 1_555 1_555
N3 Cu1 1_555 1_555
H2 N3 1_555 1_555
H3 N3 1_555 1_555
C2 N2 1_555 1_555
C3 C1 1_555 1_555
H4 C3 1_555 1_555
C4 N1 1_555 1_555
O1 H10 1_555 1_555
N4 C5 1_555 1_555
N5 Cu1 1_555 1_555
C5 N5 1_555 1_555
C6 N3 1_555 1_555
H5 C6 1_555 1_555
H6 C6 1_555 1_555
C7 C2 1_555 1_555
H7 C7 1_555 1_555
N6 Cu1 1_555 1_555
C8 C7 1_555 1_555
H8 C8 1_555 1_555
C9 C3 1_555 1_555
H9 C9 1_555 1_555
C10 N6 1_555 1_555
N7 C10 1_555 1_555
C11 N4 1_555 1_555
N8 C11 1_555 1_555
N9 C12 1_555 1_555
C12 N7 1_555 1_555
H11 O1 1_555 1_555
N8_2 Cu1 1_555 1_555
Cu1_2 N8 1_555 1_555
N2 C4 1_555 1_555
C4 C6 1_555 1_555
C8 C9 1_555 1_555

#END
