
#######################################################################
#
#                 Cambridge Crystallographic Data Centre
#                                CCDC 
#
#######################################################################
#
# If this CIF has been generated from an entry in the Cambridge 
# Structural Database, then it will include bibliographic, chemical, 
# crystal, experimental, refinement or atomic coordinate data resulting 
# from the CCDC's data processing and validation procedures.
#
#######################################################################

data_OLUQOB
_symmetry_cell_setting           triclinic
_symmetry_space_group_name_H-M   'P -1'
_symmetry_Int_Tables_number      2
_space_group_name_Hall           '-P 1'
loop_
_symmetry_equiv_pos_site_id
_symmetry_equiv_pos_as_xyz
1 x,y,z
2 -x,-y,-z
_cell_length_a                   9.3623(4)
_cell_length_b                   10.7706(5)
_cell_length_c                   11.2802(5)
_cell_angle_alpha                61.691(2)
_cell_angle_beta                 88.440(2)
_cell_angle_gamma                70.695(2)
_cell_volume                     933.563
loop_
_atom_site_label
_atom_site_type_symbol
_atom_site_fract_x
_atom_site_fract_y
_atom_site_fract_z
O9 O 0.9574(5) 0.3273(5) 0.2190(4)
H11 H 0.993(7) 0.275(7) 0.192(6)
H12 H 0.980(7) 0.402(7) 0.191(6)
Cu1 Cu 0.87514(5) 0.15376(5) 1.00607(4)
O1 O 0.9020(3) -0.0557(3) 0.9729(3)
O2 O 0.8191(4) -0.1248(7) 0.8396(7)
O3 O 0.6264(9) 0.1574(11) 0.6968(8)
O4 O 0.4055(8) 0.1510(10) 0.6602(7)
O5 O 0.8692(3) 0.2727(3) 0.8094(3)
O6 O 0.9576(6) 0.4160(5) 0.8526(4)
O7 O 0.6244(9) 0.5124(11) 0.5797(9)
O8 O 0.6931(15) 0.3723(18) 0.4851(13)
N1 N 0.5154(8) 0.1230(9) 0.7368(7)
N2 N 0.7159(11) 0.4470(12) 0.5290(9)
N3 N 0.8582(4) 0.0585(4) 1.2057(3)
N4 N 0.6502(3) 0.2663(4) 0.9893(3)
C1 C 0.6439(4) -0.0319(5) 0.9588(5)
C2 C 0.5111(5) 0.0553(5) 0.8640(5)
C3 C 0.6324(4) -0.0866(5) 1.0955(5)
H1 H 0.7204 -0.1443 1.1605
C4 C 0.8014(4) -0.0763(5) 0.9186(5)
C5 C 0.9599(5) 0.4429(5) 0.6317(4)
C6 C 0.8700(6) 0.4645(5) 0.5229(5)
C7 C 1.0919(6) 0.4779(5) 0.6075(4)
H2 H 1.1550 0.4627 0.6792
C8 C 0.9253(5) 0.3751(5) 0.7755(4)
C9 C 0.9636(5) -0.0505(5) 1.3125(4)
H3 H 1.0598 -0.0977 1.2980
C10 C 0.9343(7) -0.0965(6) 1.4467(5)
H4 H 1.0099 -0.1748 1.5193
C11 C 0.7955(7) -0.0271(6) 1.4711(5)
H5 H 0.7772 -0.0551 1.5601
C12 C 0.6806(6) 0.0869(5) 1.3608(5)
C13 C 0.7180(5) 0.1250(4) 1.2289(4)
C14 C 0.6044(4) 0.2353(4) 1.1130(4)
C15 C 0.4542(5) 0.3061(5) 1.1264(5)
C16 C 0.3488(5) 0.4120(5) 1.0075(6)
H6 H 0.2481 0.4609 1.0123
C17 C 0.3955(5) 0.4425(5) 0.8846(5)
H7 H 0.3264 0.5133 0.8048
C18 C 0.5480(5) 0.3676(5) 0.8776(4)
H8 H 0.5778 0.3896 0.7927
C19 C 0.5278(7) 0.1660(7) 1.3725(6)
H9 H 0.5027 0.1464 1.4583
C20 C 0.4203(6) 0.2682(6) 1.2608(6)
H10 H 0.3218 0.3148 1.2720
C3A C 0.3676(4) 0.0866(5) 0.9045(5)
C1A C 0.3561(4) 0.0319(5) 1.0412(5)
C2A C 0.4889(5) -0.0553(5) 1.1360(5)
N1A N 0.4846(8) -0.1230(9) 1.2632(7)
O3A O 0.3736(9) -0.1574(11) 1.3032(8)
O4A O 0.5945(8) -0.1510(10) 1.3398(7)
C4A C 0.1986(4) 0.0763(5) 1.0814(5)
O1A O 0.0980(3) 0.0557(3) 1.0271(3)
O2A O 0.1809(4) 0.1248(7) 1.1604(7)
H1A H 0.2796 0.1443 0.8395
C7A C 0.9081(6) 0.5221(5) 0.3925(4)
C5A C 1.0401(5) 0.5571(5) 0.3683(4)
C6A C 1.1300(6) 0.5355(5) 0.4771(5)
N2A N 1.2841(11) 0.5530(12) 0.4710(9)
O7A O 1.3756(9) 0.4876(11) 0.4203(9)
O8A O 1.3069(15) 0.6277(18) 0.5149(13)
C8A C 1.0747(5) 0.6249(5) 0.2245(4)
O5A O 1.1308(3) 0.7273(3) 0.1906(3)
O6A O 1.0424(6) 0.5840(5) 0.1474(4)
H2A H 0.8450 0.5373 0.3208
Cu1A Cu 0.12486(5) -0.15376(5) 0.99393(4)
N3A N 0.1418(4) -0.0585(4) 0.7943(3)
N4A N 0.3498(3) -0.2663(4) 1.0107(3)
C9A C 0.0364(5) 0.0505(5) 0.6875(4)
H3A H -0.0598 0.0977 0.7020
C10A C 0.0657(7) 0.0965(6) 0.5533(5)
H4A H -0.0099 0.1748 0.4807
C11A C 0.2045(7) 0.0271(6) 0.5289(5)
H5A H 0.2228 0.0551 0.4399
C12A C 0.3194(6) -0.0869(5) 0.6392(5)
C13A C 0.2820(5) -0.1250(4) 0.7711(4)
C14A C 0.3956(4) -0.2353(4) 0.8870(4)
C15A C 0.5458(5) -0.3061(5) 0.8736(5)
C16A C 0.6512(5) -0.4120(5) 0.9925(6)
H6A H 0.7519 -0.4609 0.9877
C17A C 0.6045(5) -0.4425(5) 1.1154(5)
H7A H 0.6736 -0.5133 1.1952
C18A C 0.4520(5) -0.3676(5) 1.1224(4)
H8A H 0.4222 -0.3896 1.2073
C19A C 0.4722(7) -0.1660(7) 0.6275(6)
H9A H 0.4973 -0.1464 0.5417
C20A C 0.5797(6) -0.2682(6) 0.7392(6)
H10A H 0.6782 -0.3148 0.7280
O1A_2 O 1.0980(3) 0.0557(3) 1.0271(3)
Cu1A_2 Cu 1.12486(5) -0.15376(5) 0.99393(4)
Cu1_2 Cu -0.12486(5) 0.15376(5) 1.00607(4)
Cu1A_3 Cu 1.12486(5) 0.84624(5) -0.00607(4)
O1_2 O -0.0980(3) -0.0557(3) 0.9729(3)
O5A_2 O 0.1308(3) -0.2727(3) 1.1906(3)
loop_
_geom_bond_atom_site_label_1
_geom_bond_atom_site_label_2
_geom_bond_site_symmetry_1
_geom_bond_site_symmetry_2
Cu1 O1 1_555 1_555
O1 C4 1_555 1_555
O2 C4 1_555 1_555
O3 N1 1_555 1_555
O4 N1 1_555 1_555
O5 Cu1 1_555 1_555
O6 C8 1_555 1_555
O7 N2 1_555 1_555
O8 N2 1_555 1_555
O9 H11 1_555 1_555
N1 C2 1_555 1_555
N2 C6 1_555 1_555
N3 Cu1 1_555 1_555
N4 Cu1 1_555 1_555
C1 C2 1_555 1_555
C2 C3A 1_555 1_555
C3 C1 1_555 1_555
H1 C3 1_555 1_555
C4 C1 1_555 1_555
C5 C6 1_555 1_555
C6 C7A 1_555 1_555
C7 C5 1_555 1_555
H2 C7 1_555 1_555
C8 O5 1_555 1_555
C9 N3 1_555 1_555
H3 C9 1_555 1_555
C10 C9 1_555 1_555
H4 C10 1_555 1_555
C11 C10 1_555 1_555
H5 C11 1_555 1_555
C12 C11 1_555 1_555
C13 N3 1_555 1_555
C14 N4 1_555 1_555
C15 C14 1_555 1_555
C16 C15 1_555 1_555
H6 C16 1_555 1_555
C17 C16 1_555 1_555
H7 C17 1_555 1_555
C18 N4 1_555 1_555
H8 C18 1_555 1_555
C19 C12 1_555 1_555
H9 C19 1_555 1_555
C20 C15 1_555 1_555
H10 C20 1_555 1_555
H12 O9 1_555 1_555
C3A C1A 1_555 1_555
C1A C2A 1_555 1_555
C2A C3 1_555 1_555
N1A C2A 1_555 1_555
O3A N1A 1_555 1_555
O4A N1A 1_555 1_555
C4A C1A 1_555 1_555
O1A C4A 1_555 1_555
O2A C4A 1_555 1_555
H1A C3A 1_555 1_555
C7A C5A 1_555 1_555
C5A C6A 1_555 1_555
C6A C7 1_555 1_555
N2A C6A 1_555 1_555
O7A N2A 1_555 1_555
O8A N2A 1_555 1_555
C8A C5A 1_555 1_555
O5A C8A 1_555 1_555
O6A C8A 1_555 1_555
H2A C7A 1_555 1_555
Cu1A O1A 1_555 1_555
N3A Cu1A 1_555 1_555
N4A Cu1A 1_555 1_555
C9A N3A 1_555 1_555
H3A C9A 1_555 1_555
C10A C9A 1_555 1_555
H4A C10A 1_555 1_555
C11A C10A 1_555 1_555
H5A C11A 1_555 1_555
C12A C11A 1_555 1_555
C13A N3A 1_555 1_555
C14A N4A 1_555 1_555
C15A C14A 1_555 1_555
C16A C15A 1_555 1_555
H6A C16A 1_555 1_555
C17A C16A 1_555 1_555
H7A C17A 1_555 1_555
C18A N4A 1_555 1_555
H8A C18A 1_555 1_555
C19A C12A 1_555 1_555
H9A C19A 1_555 1_555
C20A C15A 1_555 1_555
H10A C20A 1_555 1_555
O1A_2 Cu1 1_555 1_555
Cu1A_2 O1 1_555 1_555
Cu1_2 O1A 1_555 1_555
Cu1A_3 O5A 1_555 1_555
O1_2 Cu1A 1_555 1_555
O5A_2 Cu1A 1_555 1_555
C5 C8 1_555 1_555
C12 C13 1_555 1_555
C13 C14 1_555 1_555
C17 C18 1_555 1_555
C19 C20 1_555 1_555
C12A C13A 1_555 1_555
C13A C14A 1_555 1_555
C17A C18A 1_555 1_555
C19A C20A 1_555 1_555
O1A_2 Cu1A_2 1_555 1_555
Cu1_2 O1_2 1_555 1_555

#END
