
#######################################################################
#
#                 Cambridge Crystallographic Data Centre
#                                CCDC 
#
#######################################################################
#
# If this CIF has been generated from an entry in the Cambridge 
# Structural Database, then it will include bibliographic, chemical, 
# crystal, experimental, refinement or atomic coordinate data resulting 
# from the CCDC's data processing and validation procedures.
#
#######################################################################

data_OLURUI
_symmetry_cell_setting           rhombohedral
_symmetry_space_group_name_H-M   'R -3 c'
_symmetry_Int_Tables_number      167
_space_group_name_Hall           '-R 3 2"c'
loop_
_symmetry_equiv_pos_site_id
_symmetry_equiv_pos_as_xyz
1 x,y,z
2 -y,x-y,z
3 -x+y,-x,z
4 y,x,1/2-z
5 2/3+x,1/3+y,1/3+z
6 2/3-y,1/3+x-y,1/3+z
7 2/3-x+y,1/3-x,1/3+z
8 2/3+y,1/3+x,5/6-z
9 1/3+x,2/3+y,2/3+z
10 1/3+y,2/3+x,1/6-z
11 -x+y,y,1/2+z
12 x,x-y,1/2+z
13 2/3+y,1/3-x+y,1/3-z
14 2/3+x-y,1/3+x,1/3-z
15 2/3-x+y,1/3+y,5/6+z
16 2/3+x,1/3+x-y,5/6+z
17 1/3-x+y,2/3+y,1/6+z
18 1/3+x,2/3+x-y,1/6+z
19 -x,-y,-z
20 y,-x+y,-z
21 x-y,x,-z
22 -y,-x,1/2+z
23 1/3-x,2/3-y,2/3-z
24 1/3+y,2/3-x+y,2/3-z
25 1/3+x-y,2/3+x,2/3-z
26 1/3-y,2/3-x,1/6+z
27 2/3-x,1/3-y,1/3-z
28 2/3-y,1/3-x,5/6+z
29 x-y,-y,1/2-z
30 -x,-x+y,1/2-z
31 1/3-y,2/3+x-y,2/3+z
32 1/3-x+y,2/3-x,2/3+z
33 1/3+x-y,2/3-y,1/6-z
34 1/3-x,2/3-x+y,1/6-z
35 2/3+x-y,1/3-y,5/6-z
36 2/3-x,1/3-x+y,5/6-z
_cell_length_a                   17.6740(10)
_cell_length_b                   17.6740(10)
_cell_length_c                   33.140(3)
_cell_angle_alpha                90
_cell_angle_beta                 90
_cell_angle_gamma                120.00
_cell_volume                     8965.05
loop_
_atom_site_label
_atom_site_type_symbol
_atom_site_fract_x
_atom_site_fract_y
_atom_site_fract_z
In1 In 0.6667 0.993257(14) 0.0833
C1 C 0.62505(17) 0.87066(18) 0.00861(8)
C2 C 0.58518(19) 0.8178(2) -0.02463(9)
C3 C 0.4740(2) 0.8470(3) -0.02075(11)
H1 H 0.4226 0.8419 -0.0310
C4 C 0.5112(2) 0.8980(2) 0.01319(10)
H2 H 0.4833 0.9243 0.0259
C5 C 0.6220(2) 0.7686(2) -0.04681(10)
C6 C 0.71083(18) 0.88692(19) 0.02566(9)
N1 N 0.58637(15) 0.90967(15) 0.02782(7)
N2 N 0.50909(18) 0.8047(2) -0.03936(9)
O1 O 0.74133(12) 0.93965(13) 0.05523(7)
O2 O 0.69085(16) 1.09550(16) 0.03706(8)
O3 O 0.80435(17) 1.13040(19) 0.07538(8)
O4 O 0.74516(14) 0.84872(16) 0.01016(8)
O2T O 0.59535(23) 0.69085(16) -0.03706(8)
In1T In 0.673443(14) 0.6667 -0.0833
N1T N 0.67670(21) 0.58637(15) -0.02782(7)
C1T C 0.75439(25) 0.62505(17) -0.00861(8)
C2T C 0.76738(28) 0.58518(19) 0.02463(9)
C5T C 0.8534(3) 0.6220(2) 0.04681(10)
O2A O 0.90450(16) 0.59535(23) 0.03706(8)
In1A In 1.006743(14) 0.673443(14) 0.0833
O2S O 1.09550(16) 1.40465(23) -0.03706(8)
In1S In 0.993257(14) 1.326557(14) -0.0833
N1S N 0.90967(15) 1.32330(21) -0.02782(7)
C1S C 0.87066(18) 1.24561(25) -0.00861(8)
C2S C 0.8178(2) 1.23262(28) 0.02463(9)
C5S C 0.7686(2) 1.1466(3) 0.04681(10)
N1GA N 0.74696(15) 0.98997(21) 0.13885(7)
C1GA C 0.70828(17) 0.91228(25) 0.15806(8)
C2GA C 0.74815(19) 0.89929(28) 0.19130(9)
C5GA C 0.7113(2) 0.8133(3) 0.21348(10)
O2P O 0.73798(23) 0.76217(16) 0.20373(8)
In1P In 0.659890(14) 0.659924(14) 0.2500
In1Y In 0.340076(14) 1.0000 0.2500
N1Y N 0.42366(15) 1.08030(15) 0.19449(7)
C1Y C 0.46267(18) 1.04162(17) 0.17528(8)
C2Y C 0.5155(2) 1.08149(19) 0.14204(9)
C5Y C 0.5647(2) 1.0447(2) 0.11986(10)
O2GA O 0.64248(16) 1.07132(23) 0.12961(8)
O1GA O 0.59200(12) 0.86499(18) 0.11144(7)
C6GA C 0.62250(18) 0.84276(26) 0.14101(9)
O4GA O 0.58817(14) 0.77023(21) 0.15651(8)
O3GA O 0.52898(17) 0.99272(25) 0.09129(8)
N2Y N 0.5286(2) 1.15758(18) 0.12731(9)
C3Y C 0.4863(3) 1.1927(2) 0.14592(11)
H1Y H 0.4914 1.2441 0.1357
C4Y C 0.4353(2) 1.1555(2) 0.17986(10)
H2Y H 0.4090 1.1834 0.1926
C6Y C 0.44641(19) 0.95584(18) 0.19233(9)
O1Y O 0.39368(13) 0.92534(12) 0.22190(7)
O4Y O 0.48461(16) 0.92151(14) 0.17683(8)
O3P O 0.65938(25) 0.79707(19) 0.24205(8)
N2GA N 0.82424(18) 0.96228(27) 0.20603(9)
C3GA C 0.8593(2) 1.0397(4) 0.18742(11)
H1GA H 0.9107 1.0860 0.1977
C4GA C 0.8221(2) 1.0535(3) 0.15348(10)
H2GA H 0.8500 1.1077 0.1408
N2S N 0.8047(2) 1.29561(27) 0.03936(9)
C3S C 0.8470(3) 1.3730(4) 0.02075(11)
H1S H 0.8419 1.4193 0.0310
C4S C 0.8980(2) 1.3868(3) -0.01319(10)
H2S H 0.9243 1.4410 -0.0259
C6S C 0.88692(19) 1.17609(26) -0.02566(9)
N1N N 0.98997(21) 1.24300(15) -0.13885(7)
O1S O 0.93965(13) 1.19832(18) -0.05523(7)
O1N O 0.86499(18) 1.27298(13) -0.11144(7)
O2N O 1.07132(23) 1.42883(16) -0.12961(8)
O3S O 1.13040(19) 1.32605(25) -0.07538(8)
O3N O 0.99272(25) 1.46373(19) -0.09129(8)
O3A O 0.86960(19) 0.67395(25) 0.07538(8)
N2T N 0.70439(27) 0.50909(18) 0.03936(9)
C3T C 0.6270(4) 0.4740(2) 0.02075(11)
H1T H 0.5807 0.4226 0.0310
C4T C 0.6132(3) 0.5112(2) -0.01319(10)
H2T H 0.5590 0.4833 -0.0259
C6T C 0.82391(26) 0.71083(18) -0.02566(9)
N1AA N 0.75700(15) 0.74696(15) -0.13885(7)
O1T O 0.80168(18) 0.74133(12) -0.05523(7)
O1AA O 0.72702(13) 0.59200(12) -0.11144(7)
O2AA O 0.57117(16) 0.64248(16) -0.12961(8)
O3T O 0.67395(25) 0.80435(17) -0.07538(8)
O3AA O 0.53627(19) 0.52898(17) -0.09129(8)
O4S O 0.84872(16) 1.10356(21) -0.01016(8)
O4T O 0.89644(21) 0.74516(14) -0.01016(8)
C1AA C 0.79601(18) 0.70828(17) -0.15806(8)
C4AA C 0.7687(2) 0.8221(2) -0.15348(10)
C6AA C 0.77975(19) 0.62250(18) -0.14101(9)
C2AA C 0.8489(2) 0.74815(19) -0.19130(9)
C3AA C 0.8197(3) 0.8593(2) -0.18742(11)
H2AA H 0.7424 0.8500 -0.1408
O4AA O 0.81795(16) 0.58817(14) -0.15651(8)
C5AA C 0.8981(2) 0.7113(2) -0.21348(10)
N2AA N 0.8620(2) 0.82424(18) -0.20603(9)
H1AA H 0.8248 0.9107 -0.1977
O2IA O 0.97582(16) 0.73798(23) -0.20373(8)
O3IA O 0.86232(17) 0.65938(25) -0.24205(8)
In1H In 1.0000 0.659924(14) -0.2500
O5 O 0.11388(17) 0.96454(16) 0.09671(8)
O6 O 0.3333 0.6667 0.0247(2)
O7 O 0.6044(3) 0.6539(3) 0.05230(14)
In2 In 0.0000 0.0000 0.0000
O9 O 0.11137(13) 0.06103(14) 0.03741(7)
O9A O -0.06103(14) 0.05034(19) 0.03741(7)
O9B O -0.05034(19) -0.11137(13) 0.03741(7)
O9R O -0.11137(13) -0.06103(14) -0.03741(7)
O9S O 0.06103(14) -0.05034(19) -0.03741(7)
O9T O 0.05034(19) 0.11137(13) -0.03741(7)
O8? O 0.3333 0.6667 0.9337(3)
Fe1? Fe 0.0000 0.0000 0.0000
loop_
_geom_bond_atom_site_label_1
_geom_bond_atom_site_label_2
_geom_bond_site_symmetry_1
_geom_bond_site_symmetry_2
In1 N1 1_555 1_555
C1 C2 1_555 1_555
C2 C5 1_555 1_555
C3 H1 1_555 1_555
C4 C3 1_555 1_555
H2 C4 1_555 1_555
C5 O2T 1_555 1_555
C6 C1 1_555 1_555
N1 C1 1_555 1_555
N2 C2 1_555 1_555
O1 In1 1_555 1_555
O2 In1 1_555 1_555
O3 In1 1_555 1_555
O4 C6 1_555 1_555
In2 O9 1_555 1_555
O2T In1T 1_555 1_555
In1T N1T 1_555 1_555
N1T C1T 1_555 1_555
C1T C2T 1_555 1_555
C2T C5T 1_555 1_555
C5T O2A 1_555 1_555
O2A In1A 1_555 1_555
In1A O3A 1_555 1_555
O2S In1S 1_555 1_555
In1S N1S 1_555 1_555
N1S C1S 1_555 1_555
C1S C2S 1_555 1_555
C2S C5S 1_555 1_555
C5S O2 1_555 1_555
N1GA In1 1_555 1_555
C1GA N1GA 1_555 1_555
C2GA C1GA 1_555 1_555
C5GA C2GA 1_555 1_555
O2P C5GA 1_555 1_555
In1P O2P 1_555 1_555
In1Y N1Y 1_555 1_555
N1Y C1Y 1_555 1_555
C1Y C2Y 1_555 1_555
C2Y C5Y 1_555 1_555
C5Y O2GA 1_555 1_555
O2GA In1 1_555 1_555
O1GA In1 1_555 1_555
C6GA C1GA 1_555 1_555
O4GA C6GA 1_555 1_555
O3GA In1 1_555 1_555
N2Y C2Y 1_555 1_555
C3Y N2Y 1_555 1_555
H1Y C3Y 1_555 1_555
C4Y N1Y 1_555 1_555
H2Y C4Y 1_555 1_555
C6Y C1Y 1_555 1_555
O1Y In1Y 1_555 1_555
O4Y C6Y 1_555 1_555
O3P C5GA 1_555 1_555
N2GA C2GA 1_555 1_555
C3GA N2GA 1_555 1_555
H1GA C3GA 1_555 1_555
C4GA N1GA 1_555 1_555
H2GA C4GA 1_555 1_555
N2S C2S 1_555 1_555
C3S N2S 1_555 1_555
H1S C3S 1_555 1_555
C4S N1S 1_555 1_555
H2S C4S 1_555 1_555
C6S C1S 1_555 1_555
N1N In1S 1_555 1_555
O1S In1S 1_555 1_555
O1N In1S 1_555 1_555
O2N In1S 1_555 1_555
O3S In1S 1_555 1_555
O3N In1S 1_555 1_555
O3A C5T 1_555 1_555
N2T C2T 1_555 1_555
C3T N2T 1_555 1_555
H1T C3T 1_555 1_555
C4T N1T 1_555 1_555
H2T C4T 1_555 1_555
C6T C1T 1_555 1_555
N1AA In1T 1_555 1_555
O1T In1T 1_555 1_555
O1AA In1T 1_555 1_555
O2AA In1T 1_555 1_555
O3T C5 1_555 1_555
O3AA In1T 1_555 1_555
O9A In2 1_555 1_555
O9B In2 1_555 1_555
O9R In2 1_555 1_555
O9S In2 1_555 1_555
O9T In2 1_555 1_555
O4S C6S 1_555 1_555
O4T C6T 1_555 1_555
C1AA N1AA 1_555 1_555
C4AA N1AA 1_555 1_555
C6AA O1AA 1_555 1_555
C2AA C1AA 1_555 1_555
C3AA C4AA 1_555 1_555
H2AA C4AA 1_555 1_555
O4AA C6AA 1_555 1_555
C5AA C2AA 1_555 1_555
N2AA C2AA 1_555 1_555
H1AA C3AA 1_555 1_555
O2IA C5AA 1_555 1_555
O3IA C5AA 1_555 1_555
In1H O2IA 1_555 1_555
C3 N2 1_555 1_555
C4 N1 1_555 1_555
C6 O1 1_555 1_555
O3 C5S 1_555 1_555
In1T O3T 1_555 1_555
In1P O3P 1_555 1_555
C5Y O3GA 1_555 1_555
O1GA C6GA 1_555 1_555
C3Y C4Y 1_555 1_555
C6Y O1Y 1_555 1_555
C3GA C4GA 1_555 1_555
C3S C4S 1_555 1_555
C6S O1S 1_555 1_555
C3T C4T 1_555 1_555
C6T O1T 1_555 1_555
C1AA C6AA 1_555 1_555
C3AA N2AA 1_555 1_555
O3IA In1H 1_555 1_555

#END
