
#######################################################################
#
#                 Cambridge Crystallographic Data Centre
#                                CCDC 
#
#######################################################################
#
# If this CIF has been generated from an entry in the Cambridge 
# Structural Database, then it will include bibliographic, chemical, 
# crystal, experimental, refinement or atomic coordinate data resulting 
# from the CCDC's data processing and validation procedures.
#
#######################################################################

data_OLURUI01
_symmetry_cell_setting           rhombohedral
_symmetry_space_group_name_H-M   'R -3 c'
_symmetry_Int_Tables_number      167
_space_group_name_Hall           '-R 3 2"c'
loop_
_symmetry_equiv_pos_site_id
_symmetry_equiv_pos_as_xyz
1 x,y,z
2 -y,x-y,z
3 -x+y,-x,z
4 y,x,1/2-z
5 2/3+x,1/3+y,1/3+z
6 2/3-y,1/3+x-y,1/3+z
7 2/3-x+y,1/3-x,1/3+z
8 2/3+y,1/3+x,5/6-z
9 1/3+x,2/3+y,2/3+z
10 1/3+y,2/3+x,1/6-z
11 x-y,-y,1/2-z
12 -x,-x+y,1/2-z
13 1/3-y,2/3+x-y,2/3+z
14 1/3-x+y,2/3-x,2/3+z
15 1/3+x-y,2/3-y,1/6-z
16 1/3-x,2/3-x+y,1/6-z
17 2/3+x-y,1/3-y,5/6-z
18 2/3-x,1/3-x+y,5/6-z
19 -x,-y,-z
20 y,-x+y,-z
21 x-y,x,-z
22 -y,-x,1/2+z
23 1/3-x,2/3-y,2/3-z
24 1/3+y,2/3-x+y,2/3-z
25 1/3+x-y,2/3+x,2/3-z
26 1/3-y,2/3-x,1/6+z
27 2/3-x,1/3-y,1/3-z
28 2/3-y,1/3-x,5/6+z
29 -x+y,y,1/2+z
30 x,x-y,1/2+z
31 2/3+y,1/3-x+y,1/3-z
32 2/3+x-y,1/3+x,1/3-z
33 2/3-x+y,1/3+y,5/6+z
34 2/3+x,1/3+x-y,5/6+z
35 1/3-x+y,2/3+y,1/6+z
36 1/3+x,2/3+x-y,1/6+z
_cell_length_a                   17.727(3)
_cell_length_b                   17.727(3)
_cell_length_c                   32.803(6)
_cell_angle_alpha                90
_cell_angle_beta                 90
_cell_angle_gamma                120
_cell_volume                     8927.19
loop_
_atom_site_label
_atom_site_type_symbol
_atom_site_fract_x
_atom_site_fract_y
_atom_site_fract_z
In1 In 0.32901(3) -0.00433(3) 0.0833
C1 C 0.2351(4) -0.1827(4) -0.02427(18)
C2 C 0.1803(4) -0.1095(4) 0.02462(18)
C3 C 0.2490(3) -0.1280(4) 0.00844(16)
C4 C 0.3873(4) -0.1047(4) 0.0140(2)
H1 H 0.4411 -0.0797 0.0270
C5 C 0.3727(4) -0.1563(5) -0.0193(2)
H2 H 0.4185 -0.1626 -0.0292
N1 N 0.3258(3) -0.0895(3) 0.02816(13)
N2 N 0.2972(4) -0.1976(5) -0.03801(18)
O1 O 0.2030(2) -0.0560(2) 0.05440(11)
O2 O 0.1081(3) -0.1481(3) 0.00847(14)
C6 C 0.1474(5) -0.2343(6) -0.0464(2)
O3 O 0.0957(3) -0.3089(3) -0.03572(17)
O4 O -0.1977(3) -0.3324(4) 0.07622(14)
O3IA O 0.4290(3) 0.0713(4) 0.13095(17)
In1GA In -0.00432(3) -0.33333(4) -0.0834
N1GA N -0.0075(3) -0.2514(4) -0.13851(13)
C3GA C -0.0843(3) -0.2897(5) -0.15823(16)
C1GA C -0.0982(4) -0.2489(6) -0.19094(18)
N2GA N -0.0361(4) -0.1719(6) -0.20468(18)
C5GA C 0.0394(4) -0.1377(6) -0.1860(2)
C4GA C 0.0540(4) -0.1747(6) -0.1527(2)
H1GA H 0.1078 -0.1459 -0.1397
H2GA H 0.0852 -0.0856 -0.1959
C6GA C -0.1859(5) -0.2850(8) -0.2131(2)
O3GA O -0.2376(3) -0.2621(4) -0.20239(17)
In1H In -0.33766(3) -0.33766(3) -0.2500
N1H N -0.3409(3) -0.4228(3) -0.30517(13)
N1G N -0.4228(3) -0.3409(3) -0.19483(13)
C3G C -0.4613(4) -0.4177(3) -0.17511(16)
C1G C -0.5160(4) -0.4316(4) -0.14240(18)
N2G N -0.5309(5) -0.3695(4) -0.12866(18)
C5G C -0.4896(5) -0.2940(4) -0.1474(2)
C4G C -0.4380(4) -0.2794(4) -0.1807(2)
H1G H -0.4130 -0.2256 -0.1937
H2G H -0.4959 -0.2482 -0.1375
C6G C -0.5676(6) -0.5193(5) -0.1203(2)
O3G O -0.6422(3) -0.5710(3) -0.13095(17)
In1T In -0.66666(4) -0.67099(3) -0.0833
In1M In -0.00001(4) -0.66234(3) -0.2500
N1P N 0.0820(4) -0.5772(3) -0.19483(13)
C3P C 0.0437(5) -0.5387(4) -0.17511(16)
C1P C 0.0845(6) -0.4840(4) -0.14240(18)
N2P N 0.1615(6) -0.4691(5) -0.12866(18)
C5P C 0.1957(6) -0.5104(5) -0.1474(2)
C4P C 0.1587(6) -0.5620(4) -0.1807(2)
H1P H 0.1875 -0.5870 -0.1937
H2P H 0.2478 -0.5041 -0.1375
C6P C 0.0484(8) -0.4324(6) -0.1203(2)
O3P O 0.0713(4) -0.3578(3) -0.13095(17)
N1S N -0.0895(3) -0.4153(4) -0.02816(13)
C3S C -0.1280(4) -0.3770(5) -0.00844(16)
C1S C -0.1827(4) -0.4178(6) 0.02427(18)
N2S N -0.1976(5) -0.4948(6) 0.03801(18)
C5S C -0.1563(5) -0.5290(6) 0.0193(2)
C4S C -0.1047(4) -0.4920(6) -0.0140(2)
H1S H -0.0797 -0.5208 -0.0270
H2S H -0.1626 -0.5811 0.0292
C6S C -0.2343(6) -0.3817(8) 0.0464(2)
O3S O -0.3089(3) -0.4046(4) 0.03572(17)
In1N In -0.33333(4) -0.32900(3) 0.0834
O4N O 0.4680(5) -0.0009(4) 0.09045(14)
C2S C -0.1095(4) -0.2898(6) -0.02462(18)
O1S O -0.0560(2) -0.2590(3) -0.05440(11)
O1GA O -0.1303(2) -0.4077(3) -0.11227(11)
C2GA C -0.1530(4) -0.3769(6) -0.14205(18)
O2GA O -0.2252(3) -0.4105(4) -0.15820(14)
O4T O 0.1347(5) -0.1977(3) -0.07622(14)
O4AA O -0.0009(4) -0.4690(3) -0.09045(14)
O2S O -0.1481(3) -0.2562(4) -0.00847(14)
C2P C -0.0435(6) -0.5572(4) -0.19129(18)
O1P O -0.0743(3) -0.6107(2) -0.22107(11)
O4GA O -0.5310(3) -0.5320(5) -0.09045(14)
C2G C -0.4428(4) -0.4864(4) -0.19129(18)
O1H O -0.4637(2) -0.3893(2) -0.27893(11)
O1G O -0.3893(2) -0.4637(2) -0.22107(11)
O3X O -0.2621(4) -0.2376(3) -0.29761(17)
O4P O -0.1986(5) -0.3343(4) -0.24289(14)
O4L O -0.3343(4) -0.1986(5) -0.25711(14)
N1I N 0.2438(3) -0.0075(3) 0.13851(13)
O1I O 0.2773(2) -0.1303(2) 0.11227(11)
O3T O 0.4046(4) 0.0957(3) 0.03572(17)
O4A O 0.3324(4) 0.1347(5) 0.07622(14)
O2P O -0.0771(4) -0.5186(3) -0.17514(14)
O2G O -0.4814(3) -0.5586(3) -0.17514(14)
C3H C -0.4177(3) -0.4613(4) -0.32489(16)
C4H C -0.2794(4) -0.4380(4) -0.3193(2)
C2H C -0.4864(4) -0.4428(4) -0.30871(18)
C1H C -0.4316(4) -0.5160(4) -0.35760(18)
H1H H -0.2256 -0.4130 -0.3063
C5H C -0.2940(4) -0.4896(5) -0.3526(2)
O2H O -0.5586(3) -0.4814(3) -0.32486(14)
N2H N -0.3695(4) -0.5309(5) -0.37134(18)
C6H C -0.5193(5) -0.5676(6) -0.3797(2)
H2H H -0.2482 -0.4959 -0.3625
O3H O -0.5710(3) -0.6422(3) -0.36905(17)
O4X O -0.5320(5) -0.5310(3) -0.40955(14)
In1CA In -0.67099(3) -0.66666(4) -0.4167
In2 In 0.0000 0.0000 0.0000
O5 O -0.0514(3) 0.0606(3) 0.03882(13)
O5A O -0.0606(3) -0.1120(4) 0.03882(13)
O5B O 0.1120(4) 0.0514(3) 0.03882(13)
O5R O 0.0514(3) -0.0606(3) -0.03882(13)
O5S O 0.0606(3) 0.1120(4) -0.03882(13)
O5T O -0.1120(4) -0.0514(3) -0.03882(13)
O6 O -0.1509(3) -0.0385(3) 0.09619(16)
O7 O 0.3333 -0.3333 0.0233(5)
O8 O -0.2746(6) 0.0097(5) 0.1116(3)
O9? O 0.3333 -0.3333 -0.0643(5)
loop_
_geom_bond_atom_site_label_1
_geom_bond_atom_site_label_2
_geom_bond_site_symmetry_1
_geom_bond_site_symmetry_2
In1 N1 1_555 1_555
C1 C3 1_555 1_555
C2 C3 1_555 1_555
C3 N1 1_555 1_555
C4 H1 1_555 1_555
C5 C4 1_555 1_555
H2 C5 1_555 1_555
N1 C4 1_555 1_555
N2 C1 1_555 1_555
O1 In1 1_555 1_555
O2 C2 1_555 1_555
C6 C1 1_555 1_555
O3 C6 1_555 1_555
O4 C6S 1_555 1_555
In2 O5 1_555 1_555
O3IA In1 1_555 1_555
In1GA O3 1_555 1_555
N1GA In1GA 1_555 1_555
C3GA N1GA 1_555 1_555
C1GA C3GA 1_555 1_555
N2GA C1GA 1_555 1_555
C5GA N2GA 1_555 1_555
C4GA N1GA 1_555 1_555
H1GA C4GA 1_555 1_555
H2GA C5GA 1_555 1_555
C6GA C1GA 1_555 1_555
O3GA C6GA 1_555 1_555
In1H O3GA 1_555 1_555
N1H In1H 1_555 1_555
N1G In1H 1_555 1_555
C3G N1G 1_555 1_555
C1G C3G 1_555 1_555
N2G C1G 1_555 1_555
C5G N2G 1_555 1_555
C4G N1G 1_555 1_555
H1G C4G 1_555 1_555
H2G C5G 1_555 1_555
C6G C1G 1_555 1_555
O3G C6G 1_555 1_555
In1T O3G 1_555 1_555
In1M N1P 1_555 1_555
N1P C3P 1_555 1_555
C3P C1P 1_555 1_555
C1P N2P 1_555 1_555
N2P C5P 1_555 1_555
C5P C4P 1_555 1_555
C4P N1P 1_555 1_555
H1P C4P 1_555 1_555
H2P C5P 1_555 1_555
C6P C1P 1_555 1_555
O3P In1GA 1_555 1_555
N1S In1GA 1_555 1_555
C3S N1S 1_555 1_555
C1S C3S 1_555 1_555
N2S C1S 1_555 1_555
C5S N2S 1_555 1_555
C4S N1S 1_555 1_555
H1S C4S 1_555 1_555
H2S C5S 1_555 1_555
C6S C1S 1_555 1_555
O3S C6S 1_555 1_555
In1N O4 1_555 1_555
O4N In1 1_555 1_555
C2S C3S 1_555 1_555
O1S In1GA 1_555 1_555
O1GA In1GA 1_555 1_555
C2GA C3GA 1_555 1_555
O2GA C2GA 1_555 1_555
O4T C6 1_555 1_555
O4AA In1GA 1_555 1_555
O2S C2S 1_555 1_555
C2P C3P 1_555 1_555
O1P In1M 1_555 1_555
O4GA C6G 1_555 1_555
C2G C3G 1_555 1_555
O1H In1H 1_555 1_555
O1G In1H 1_555 1_555
O3X In1H 1_555 1_555
O4P C6GA 1_555 1_555
O4L In1H 1_555 1_555
N1I In1 1_555 1_555
O1I In1 1_555 1_555
O3T In1 1_555 1_555
O4A In1 1_555 1_555
O2P C2P 1_555 1_555
O2G C2G 1_555 1_555
C3H N1H 1_555 1_555
C4H N1H 1_555 1_555
C2H O1H 1_555 1_555
C1H C3H 1_555 1_555
H1H C4H 1_555 1_555
C5H C4H 1_555 1_555
O2H C2H 1_555 1_555
N2H C1H 1_555 1_555
C6H C1H 1_555 1_555
H2H C5H 1_555 1_555
O3H C6H 1_555 1_555
O4X C6H 1_555 1_555
In1CA O3H 1_555 1_555
O5A In2 1_555 1_555
O5B In2 1_555 1_555
O5R In2 1_555 1_555
O5S In2 1_555 1_555
O5T In2 1_555 1_555
C2 O1 1_555 1_555
C5 N2 1_555 1_555
In1GA O4T 1_555 1_555
C5GA C4GA 1_555 1_555
In1H O4P 1_555 1_555
C5G C4G 1_555 1_555
In1T O4GA 1_555 1_555
C6P O3P 1_555 1_555
C6P O4AA 1_555 1_555
C5S C4S 1_555 1_555
O3S In1N 1_555 1_555
C2S O1S 1_555 1_555
O1GA C2GA 1_555 1_555
C2P O1P 1_555 1_555
C2G O1G 1_555 1_555
C3H C2H 1_555 1_555
C5H N2H 1_555 1_555
O4X In1CA 1_555 1_555

#END
