
#######################################################################
#
#                 Cambridge Crystallographic Data Centre
#                                CCDC 
#
#######################################################################
#
# If this CIF has been generated from an entry in the Cambridge 
# Structural Database, then it will include bibliographic, chemical, 
# crystal, experimental, refinement or atomic coordinate data resulting 
# from the CCDC's data processing and validation procedures.
#
#######################################################################

data_OLUSEU
_symmetry_cell_setting           triclinic
_symmetry_space_group_name_H-M   'P -1'
_symmetry_Int_Tables_number      2
_space_group_name_Hall           '-P 1'
loop_
_symmetry_equiv_pos_site_id
_symmetry_equiv_pos_as_xyz
1 x,y,z
2 -x,-y,-z
_cell_length_a                   10.8404(4)
_cell_length_b                   12.8132(5)
_cell_length_c                   20.4220(7)
_cell_angle_alpha                80.396(2)
_cell_angle_beta                 81.298(2)
_cell_angle_gamma                65.477(2)
_cell_volume                     2533.91
loop_
_atom_site_label
_atom_site_type_symbol
_atom_site_fract_x
_atom_site_fract_y
_atom_site_fract_z
Re1 Re 0.830690(2) 0.667382(2) 0.774359(1)
P1 P 0.762288(16) 0.839405(14) 0.826905(7)
P2 P 0.903052(17) 0.482936(14) 0.732726(8)
Na1 Na 0.31131(3) 0.71096(3) 0.774088(14)
O1 O 1.11501(6) 0.67832(6) 0.74450(3)
O2 O 0.90543(6) 0.51791(5) 0.90706(3)
O3 O 0.52244(5) 0.68572(5) 0.79825(2)
O4 O 0.73781(5) 0.78163(4) 0.68331(2)
O5 O 0.31193(6) 0.58103(6) 0.86687(3)
O6 O 0.21388(6) 0.91003(5) 0.75545(3)
O7 O 0.38963(7) 0.66856(6) 0.66739(3)
B1 B 0.73145(7) 0.90514(6) 0.65392(3)
C1 C 1.00989(6) 0.67137(5) 0.75534(3)
C2 C 0.87629(6) 0.57604(5) 0.85635(3)
C3 C 0.62225(6) 0.70189(5) 0.76770(3)
C4 C 0.60803(6) 0.77371(6) 0.70000(3)
H1 H 0.5899 0.7351 0.6667
H2 H 0.5335 0.8512 0.7026
C5 C 0.88428(6) 0.89172(6) 0.62318(3)
H3 H 0.9444 0.8618 0.6606
C6 C 0.94185(7) 0.80397(6) 0.57167(3)
H4 H 0.9599 0.7259 0.5955
H5 H 1.0302 0.8044 0.5507
C7 C 0.84964(7) 0.82550(7) 0.51608(3)
H6 H 0.8803 0.7534 0.4952
H7 H 0.8625 0.8850 0.4814
C8 C 0.69628(7) 0.86480(6) 0.53842(3)
H8 H 0.6782 0.7958 0.5577
H9 H 0.6452 0.8992 0.4985
C9 C 0.64029(6) 0.95287(6) 0.58985(3)
H10 H 0.5449 0.9621 0.6061
C10 C 0.63737(7) 1.07229(6) 0.55940(3)
H11 H 0.5889 1.0967 0.5185
H12 H 0.5842 1.1287 0.5914
C11 C 0.77819(8) 1.07707(7) 0.54155(3)
H13 H 0.7660 1.1590 0.5345
H14 H 0.8178 1.0444 0.4988
C12 C 0.88015(7) 1.01210(6) 0.59423(3)
H15 H 0.8569 1.0598 0.6313
H16 H 0.9723 1.0033 0.5739
C13 C 0.87377(6) 0.82763(5) 0.88951(3)
C14 C 0.98010(8) 0.86489(7) 0.87277(3)
H17 H 0.9941 0.8981 0.8286
C15 C 1.06568(9) 0.85368(8) 0.92038(4)
H18 H 1.1369 0.8801 0.9086
C16 C 1.04722(9) 0.80402(8) 0.98500(4)
H19 H 1.1052 0.7970 1.0175
C17 C 0.94350(8) 0.76464(8) 1.00183(3)
H20 H 0.9317 0.7292 1.0457
C18 C 0.85697(7) 0.77706(7) 0.95456(3)
H21 H 0.7856 0.7509 0.9666
C19 C 0.59614(6) 0.89211(5) 0.87578(3)
C20 C 0.51981(7) 1.00968(6) 0.88102(4)
H22 H 0.5515 1.0650 0.8566
C21 C 0.39775(8) 1.04648(7) 0.92174(4)
H23 H 0.3465 1.1266 0.9245
C22 C 0.35081(8) 0.96636(7) 0.95834(4)
H24 H 0.2685 0.9914 0.9867
C23 C 0.42514(8) 0.84953(7) 0.95310(4)
H25 H 0.3933 0.7945 0.9779
C24 C 0.54655(7) 0.81232(6) 0.91153(3)
H26 H 0.5956 0.7323 0.9076
C25 C 0.76302(7) 0.96359(5) 0.76911(3)
H27 H 0.7322 1.0317 0.7938
H28 H 0.8571 0.9480 0.7490
C26 C 0.66932(6) 0.99046(6) 0.71342(3)
H29 H 0.6480 1.0710 0.6929
H30 H 0.5826 0.9858 0.7339
C27 C 0.84932(7) 0.37814(6) 0.78907(3)
C28 C 0.71107(9) 0.41278(7) 0.81083(5)
H31 H 0.6501 0.4906 0.8002
C29 C 0.66162(10) 0.33432(8) 0.84797(5)
H32 H 0.5671 0.3586 0.8615
C30 C 0.74964(10) 0.22100(7) 0.86525(4)
H33 H 0.7158 0.1677 0.8906
C31 C 0.88728(10) 0.18632(7) 0.84515(4)
H34 H 0.9483 0.1091 0.8573
C32 C 0.93691(8) 0.26432(7) 0.80706(4)
H35 H 1.0314 0.2394 0.7933
C33 C 1.08926(7) 0.40653(6) 0.72202(3)
C34 C 1.16399(7) 0.37486(6) 0.77748(4)
H36 H 1.1177 0.3889 0.8206
C35 C 1.30569(8) 0.32296(7) 0.77011(5)
H37 H 1.3553 0.3016 0.8082
C36 C 1.37523(8) 0.30209(7) 0.70716(5)
H38 H 1.4719 0.2671 0.7022
C37 C 1.30212(8) 0.33278(7) 0.65198(4)
H39 H 1.3490 0.3183 0.6090
C38 C 1.16029(7) 0.38477(7) 0.65894(4)
H40 H 1.1113 0.4057 0.6207
C39 C 0.85974(7) 0.46548(6) 0.65324(3)
C40 C 0.83336(7) 0.55710(6) 0.60253(3)
H41 H 0.8266 0.6298 0.6114
C41 C 0.81677(9) 0.54243(7) 0.53850(4)
H42 H 0.7986 0.6052 0.5040
C42 C 0.82685(9) 0.43611(8) 0.52537(4)
H43 H 0.8178 0.4256 0.4817
C43 C 0.85020(9) 0.34526(7) 0.57608(4)
H44 H 0.8553 0.2731 0.5672
C44 C 0.86614(8) 0.35936(6) 0.64004(4)
H45 H 0.8813 0.2971 0.6747
C45 C 0.20282(8) 0.54452(7) 0.89081(4)
H46 H 0.1738 0.5204 0.8542
H47 H 0.1235 0.6074 0.9105
C46 C 0.26251(9) 0.44352(7) 0.94315(4)
H48 H 0.3137 0.3709 0.9226
H49 H 0.1905 0.4338 0.9765
C47 C 0.35773(10) 0.47792(9) 0.97491(4)
H50 H 0.4457 0.4115 0.9816
H51 H 0.3157 0.5066 1.0184
C48 C 0.37772(8) 0.57411(8) 0.92444(4)
H52 H 0.3363 0.6486 0.9436
H53 H 0.4759 0.5554 0.9123
C49 C 0.26686(8) 0.98272(7) 0.77746(4)
H54 H 0.3577 0.9360 0.7936
H55 H 0.2052 1.0245 0.8142
C50 C 0.27695(8) 1.06828(7) 0.71682(4)
H56 H 0.3733 1.0516 0.7005
H57 H 0.2324 1.1487 0.7281
C51 C 0.20261(10) 1.04993(8) 0.66428(4)
H58 H 0.1382 1.1246 0.6436
H59 H 0.2679 1.0070 0.6289
C52 C 0.12755(8) 0.97964(7) 0.70444(4)
H60 H 0.0378 1.0308 0.7242
H61 H 0.1137 0.9307 0.6760
C53 C 0.34582(10) 0.73001(8) 0.60420(4)
H62 H 0.3581 0.8036 0.5966
H63 H 0.2485 0.7472 0.6021
C54 C 0.43435(11) 0.65095(8) 0.55263(4)
H64 H 0.5204 0.6616 0.5390
H65 H 0.3859 0.6642 0.5127
C55 C 0.46046(12) 0.53217(9) 0.59010(5)
H66 H 0.3843 0.5094 0.5883
H67 H 0.5461 0.4731 0.5719
C56 C 0.47078(12) 0.54850(9) 0.66029(5)
H68 H 0.4357 0.4988 0.6931
H69 H 0.5667 0.5283 0.6675
Na1_2 Na 1.31131(3) 0.71096(3) 0.774088(14)
O1_2 O 0.11501(6) 0.67832(6) 0.74450(3)
loop_
_geom_bond_atom_site_label_1
_geom_bond_atom_site_label_2
_geom_bond_site_symmetry_1
_geom_bond_site_symmetry_2
Re1 P1 1_555 1_555
P1 C13 1_555 1_555
P2 Re1 1_555 1_555
Na1 O3 1_555 1_555
O1 C1 1_555 1_555
O2 C2 1_555 1_555
O3 C3 1_555 1_555
O4 Re1 1_555 1_555
O5 Na1 1_555 1_555
O6 Na1 1_555 1_555
O7 Na1 1_555 1_555
B1 O4 1_555 1_555
C1 Re1 1_555 1_555
C2 Re1 1_555 1_555
C3 Re1 1_555 1_555
C4 O4 1_555 1_555
H1 C4 1_555 1_555
H2 C4 1_555 1_555
C5 B1 1_555 1_555
H3 C5 1_555 1_555
C6 C5 1_555 1_555
H4 C6 1_555 1_555
H5 C6 1_555 1_555
C7 C6 1_555 1_555
H6 C7 1_555 1_555
H7 C7 1_555 1_555
C8 C7 1_555 1_555
H8 C8 1_555 1_555
H9 C8 1_555 1_555
C9 B1 1_555 1_555
H10 C9 1_555 1_555
C10 C9 1_555 1_555
H11 C10 1_555 1_555
H12 C10 1_555 1_555
C11 C10 1_555 1_555
H13 C11 1_555 1_555
H14 C11 1_555 1_555
C12 C5 1_555 1_555
H15 C12 1_555 1_555
H16 C12 1_555 1_555
C13 C14 1_555 1_555
C14 H17 1_555 1_555
C15 C14 1_555 1_555
H18 C15 1_555 1_555
C16 C15 1_555 1_555
H19 C16 1_555 1_555
C17 C16 1_555 1_555
H20 C17 1_555 1_555
C18 C13 1_555 1_555
H21 C18 1_555 1_555
C19 P1 1_555 1_555
C20 C19 1_555 1_555
H22 C20 1_555 1_555
C21 C20 1_555 1_555
H23 C21 1_555 1_555
C22 C21 1_555 1_555
H24 C22 1_555 1_555
C23 C22 1_555 1_555
H25 C23 1_555 1_555
C24 C19 1_555 1_555
H26 C24 1_555 1_555
C25 P1 1_555 1_555
H27 C25 1_555 1_555
H28 C25 1_555 1_555
C26 B1 1_555 1_555
H29 C26 1_555 1_555
H30 C26 1_555 1_555
C27 P2 1_555 1_555
C28 C27 1_555 1_555
H31 C28 1_555 1_555
C29 C28 1_555 1_555
H32 C29 1_555 1_555
C30 C29 1_555 1_555
H33 C30 1_555 1_555
C31 C30 1_555 1_555
H34 C31 1_555 1_555
C32 C27 1_555 1_555
H35 C32 1_555 1_555
C33 P2 1_555 1_555
C34 C33 1_555 1_555
H36 C34 1_555 1_555
C35 C34 1_555 1_555
H37 C35 1_555 1_555
C36 C35 1_555 1_555
H38 C36 1_555 1_555
C37 C36 1_555 1_555
H39 C37 1_555 1_555
C38 C33 1_555 1_555
H40 C38 1_555 1_555
C39 P2 1_555 1_555
C40 C39 1_555 1_555
H41 C40 1_555 1_555
C41 C40 1_555 1_555
H42 C41 1_555 1_555
C42 C41 1_555 1_555
H43 C42 1_555 1_555
C43 C42 1_555 1_555
H44 C43 1_555 1_555
C44 C39 1_555 1_555
H45 C44 1_555 1_555
C45 O5 1_555 1_555
H46 C45 1_555 1_555
H47 C45 1_555 1_555
C46 C45 1_555 1_555
H48 C46 1_555 1_555
H49 C46 1_555 1_555
C47 C46 1_555 1_555
H50 C47 1_555 1_555
H51 C47 1_555 1_555
C48 O5 1_555 1_555
H52 C48 1_555 1_555
H53 C48 1_555 1_555
C49 O6 1_555 1_555
H54 C49 1_555 1_555
H55 C49 1_555 1_555
C50 C49 1_555 1_555
H56 C50 1_555 1_555
H57 C50 1_555 1_555
C51 C50 1_555 1_555
H58 C51 1_555 1_555
H59 C51 1_555 1_555
C52 O6 1_555 1_555
H60 C52 1_555 1_555
H61 C52 1_555 1_555
C53 O7 1_555 1_555
H62 C53 1_555 1_555
H63 C53 1_555 1_555
C54 C53 1_555 1_555
H64 C54 1_555 1_555
H65 C54 1_555 1_555
C55 C54 1_555 1_555
H66 C55 1_555 1_555
H67 C55 1_555 1_555
C56 O7 1_555 1_555
H68 C56 1_555 1_555
H69 C56 1_555 1_555
Na1_2 O1 1_555 1_555
O1_2 Na1 1_555 1_555
C3 C4 1_555 1_555
C8 C9 1_555 1_555
C11 C12 1_555 1_555
C17 C18 1_555 1_555
C23 C24 1_555 1_555
C25 C26 1_555 1_555
C31 C32 1_555 1_555
C37 C38 1_555 1_555
C43 C44 1_555 1_555
C47 C48 1_555 1_555
C51 C52 1_555 1_555
C55 C56 1_555 1_555

#END
