
#######################################################################
#
#                 Cambridge Crystallographic Data Centre
#                                CCDC 
#
#######################################################################
#
# If this CIF has been generated from an entry in the Cambridge 
# Structural Database, then it will include bibliographic, chemical, 
# crystal, experimental, refinement or atomic coordinate data resulting 
# from the CCDC's data processing and validation procedures.
#
#######################################################################

data_OLUTIZ01
_symmetry_cell_setting           monoclinic
_symmetry_space_group_name_H-M   'C 2/m'
_symmetry_Int_Tables_number      12
_space_group_name_Hall           '-C 2y'
loop_
_symmetry_equiv_pos_site_id
_symmetry_equiv_pos_as_xyz
1 x,y,z
2 -x,y,-z
3 1/2+x,1/2+y,z
4 1/2-x,1/2+y,-z
5 -x,-y,-z
6 x,-y,z
7 1/2-x,1/2-y,-z
8 1/2+x,1/2-y,z
_cell_length_a                   10.315(2)
_cell_length_b                   12.2170(1)
_cell_length_c                   6.859(1)
_cell_angle_alpha                90
_cell_angle_beta                 120.690(2)
_cell_angle_gamma                90
_cell_volume                     743.299
loop_
_atom_site_label
_atom_site_type_symbol
_atom_site_fract_x
_atom_site_fract_y
_atom_site_fract_z
I1 I 0.20669(3) 0.0000 0.45745(4)
Cu1 Cu 0.09209(6) 0.0000 0.73021(9)
N1 N 0.1756(3) 0.1413(2) 0.9341(4)
H1 H 0.1536 0.1343 1.0463
C1 C 0.1018(3) 0.2422(3) 0.8104(5)
H2 H -0.0058 0.2359 0.7506
H3 H 0.1170 0.2493 0.6827
C2 C 0.3411(4) 0.1549(3) 1.0464(6)
H4 H 0.3693 0.1571 0.9314
H5 H 0.3898 0.0918 1.1420
I1A I -0.20669(3) 0.0000 0.54255(4)
Cu1A Cu -0.09209(6) 0.0000 0.26979(9)
Cu1C Cu 0.40791(6) 0.5000 1.26979(9)
N1F N 0.3244(3) 0.3587(2) 1.0659(4)
N1E N 0.1756(3) -0.1413(2) 0.9341(4)
H1F H 0.3464 0.3657 0.9537
H1E H 0.1536 -0.1343 1.0463
C1F C 0.3982(3) 0.2578(3) 1.1896(5)
H2F H 0.5058 0.2641 1.2494
H3F H 0.3830 0.2507 1.3173
C2F C 0.1589(4) 0.3451(3) 0.9536(6)
H4F H 0.1307 0.3429 1.0686
H5F H 0.1102 0.4082 0.8580
loop_
_geom_bond_atom_site_label_1
_geom_bond_atom_site_label_2
_geom_bond_site_symmetry_1
_geom_bond_site_symmetry_2
I1 Cu1 1_555 1_555
Cu1 N1 1_555 1_555
N1 H1 1_555 1_555
C1 N1 1_555 1_555
H2 C1 1_555 1_555
H3 C1 1_555 1_555
C2 N1 1_555 1_555
H4 C2 1_555 1_555
H5 C2 1_555 1_555
I1A Cu1 1_555 1_555
Cu1A I1 1_555 1_555
Cu1C N1F 1_555 1_555
N1F H1F 1_555 1_555
N1E Cu1 1_555 1_555
H1E N1E 1_555 1_555
C1F C2 1_555 1_555
H2F C1F 1_555 1_555
H3F C1F 1_555 1_555
C2F C1 1_555 1_555
H4F C2F 1_555 1_555
H5F C2F 1_555 1_555
I1A Cu1A 1_555 1_555
N1F C1F 1_555 1_555
N1F C2F 1_555 1_555

#END
