
#######################################################################
#
#                 Cambridge Crystallographic Data Centre
#                                CCDC 
#
#######################################################################
#
# If this CIF has been generated from an entry in the Cambridge 
# Structural Database, then it will include bibliographic, chemical, 
# crystal, experimental, refinement or atomic coordinate data resulting 
# from the CCDC's data processing and validation procedures.
#
#######################################################################

data_OLUVIB
_symmetry_cell_setting           triclinic
_symmetry_space_group_name_H-M   'P -1'
_symmetry_Int_Tables_number      2
_space_group_name_Hall           '-P 1'
loop_
_symmetry_equiv_pos_site_id
_symmetry_equiv_pos_as_xyz
1 x,y,z
2 -x,-y,-z
_cell_length_a                   10.3530(16)
_cell_length_b                   10.928(2)
_cell_length_c                   15.794(4)
_cell_angle_alpha                75.074(19)
_cell_angle_beta                 81.233(17)
_cell_angle_gamma                64.423(18)
_cell_volume                     1555.66
loop_
_atom_site_label
_atom_site_type_symbol
_atom_site_fract_x
_atom_site_fract_y
_atom_site_fract_z
Fe1 Fe 0.59152(5) 0.32651(5) 0.33493(3)
O1 O 0.7508(3) 0.2574(2) 0.41863(16)
O2 O 0.3997(2) 0.3809(2) 0.40292(15)
O3 O 1.1708(3) 0.2162(3) 0.3583(2)
O4 O 0.0471(3) 0.7385(3) 0.3148(2)
N1 N 0.7525(3) 0.2801(3) 0.23587(19)
N2 N 0.4702(3) 0.3947(3) 0.22385(18)
N3 N 0.6086(3) 0.1116(3) 0.36564(19)
N4 N 0.5615(3) -0.0730(3) 0.3919(2)
N5 N 0.5332(3) -0.2617(3) 0.3596(2)
N6 N 0.5761(3) -0.4608(3) 0.3254(2)
C1 C 0.8846(4) 0.2240(4) 0.4069(3)
C2 C 0.9560(4) 0.2179(4) 0.3231(3)
C3 C 0.8887(4) 0.2419(3) 0.2454(3)
H1 H 0.9489 0.2287 0.1946
C4 C 0.7022(4) 0.2900(3) 0.1551(2)
C5 C 0.7879(4) 0.2381(4) 0.0848(3)
H2 H 0.8881 0.1956 0.0885
C6 C 0.7282(4) 0.2480(4) 0.0097(3)
H3 H 0.7880 0.2137 -0.0376
C7 C 0.5827(4) 0.3074(4) 0.0034(3)
H4 H 0.5431 0.3142 -0.0482
C8 C 0.4940(4) 0.3573(3) 0.0724(2)
H5 H 0.3941 0.3957 0.0680
C9 C 0.5512(3) 0.3515(3) 0.1487(2)
C10 C 0.3360(4) 0.4874(3) 0.2187(2)
H6 H 0.3002 0.5279 0.1622
C11 C 0.2409(4) 0.5319(4) 0.2897(3)
C12 C 0.2764(4) 0.4682(4) 0.3781(3)
C13 C 0.9652(4) 0.1802(5) 0.4878(3)
H7 H 0.9907 0.2537 0.4926
H8 H 1.0516 0.0966 0.4848
H9 H 0.9056 0.1618 0.5388
C14 C 0.1623(5) 0.4884(4) 0.4520(3)
H10 H 0.1593 0.3997 0.4808
H11 H 0.0697 0.5522 0.4285
H12 H 0.1847 0.5263 0.4942
C15 C 1.1109(4) 0.1841(4) 0.3128(3)
C16 C 1.1994(4) 0.1083(4) 0.2429(3)
C17 C 1.3077(4) 0.1430(4) 0.1962(3)
H13 H 1.3206 0.2182 0.2060
C18 C 1.3966(4) 0.0698(4) 0.1358(3)
H14 H 1.4661 0.0981 0.1024
C19 C 1.3837(5) -0.0447(5) 0.1242(3)
H15 H 1.4455 -0.0960 0.0837
C20 C 1.2803(5) -0.0840(4) 0.1721(3)
H16 H 1.2733 -0.1637 0.1651
C21 C 1.1868(4) -0.0082(4) 0.2301(3)
H17 H 1.1146 -0.0345 0.2612
C22 C 0.1028(4) 0.6515(4) 0.2693(3)
C23 C 0.0254(4) 0.6699(4) 0.1912(3)
C24 C 0.0243(4) 0.5591(5) 0.1649(3)
H18 H 0.0800 0.4680 0.1940
C25 C -0.0563(5) 0.5794(6) 0.0973(3)
H19 H -0.0567 0.5028 0.0809
C26 C -0.1369(5) 0.7125(7) 0.0534(3)
H20 H -0.1914 0.7270 0.0064
C27 C -0.1372(5) 0.8246(6) 0.0789(4)
H21 H -0.1913 0.9154 0.0488
C28 C -0.0590(4) 0.8040(5) 0.1479(3)
H22 H -0.0624 0.8808 0.1661
C29 C 0.5081(4) 0.0674(3) 0.3764(2)
H23 H 0.4098 0.1259 0.3737
C30 C 0.7337(4) -0.0060(4) 0.3727(3)
H24 H 0.8257 -0.0066 0.3668
C31 C 0.7080(4) -0.1202(4) 0.3893(3)
H25 H 0.7758 -0.2130 0.3974
C32 C 0.4755(4) -0.1525(4) 0.4094(3)
H26 H 0.3767 -0.0907 0.3933
H27 H 0.4740 -0.1941 0.4722
C33 C 0.5158(4) -0.3806(4) 0.3837(3)
H28 H 0.4667 -0.4047 0.4358
C34 C 0.6330(4) -0.3875(4) 0.2619(3)
H29 H 0.6830 -0.4173 0.2110
C35 C 0.6091(4) -0.2659(4) 0.2806(3)
H30 H 0.6386 -0.1975 0.2463
Fe1_2 Fe 0.59152(5) -0.67349(5) 0.33493(3)
N6_2 N 0.5761(3) 0.5392(3) 0.3254(2)
loop_
_geom_bond_atom_site_label_1
_geom_bond_atom_site_label_2
_geom_bond_site_symmetry_1
_geom_bond_site_symmetry_2
Fe1 O1 1_555 1_555
O1 C1 1_555 1_555
O2 Fe1 1_555 1_555
O3 C15 1_555 1_555
O4 C22 1_555 1_555
N1 Fe1 1_555 1_555
N2 Fe1 1_555 1_555
N3 Fe1 1_555 1_555
N4 C29 1_555 1_555
N5 C32 1_555 1_555
N6 C33 1_555 1_555
C1 C2 1_555 1_555
C2 C3 1_555 1_555
C3 N1 1_555 1_555
H1 C3 1_555 1_555
C4 N1 1_555 1_555
C5 C4 1_555 1_555
H2 C5 1_555 1_555
C6 C5 1_555 1_555
H3 C6 1_555 1_555
C7 C6 1_555 1_555
H4 C7 1_555 1_555
C8 C7 1_555 1_555
H5 C8 1_555 1_555
C9 N2 1_555 1_555
C10 N2 1_555 1_555
H6 C10 1_555 1_555
C11 C10 1_555 1_555
C12 O2 1_555 1_555
C13 C1 1_555 1_555
H7 C13 1_555 1_555
H8 C13 1_555 1_555
H9 C13 1_555 1_555
C14 C12 1_555 1_555
H10 C14 1_555 1_555
H11 C14 1_555 1_555
H12 C14 1_555 1_555
C15 C2 1_555 1_555
C16 C15 1_555 1_555
C17 C16 1_555 1_555
H13 C17 1_555 1_555
C18 C17 1_555 1_555
H14 C18 1_555 1_555
C19 C18 1_555 1_555
H15 C19 1_555 1_555
C20 C19 1_555 1_555
H16 C20 1_555 1_555
C21 C16 1_555 1_555
H17 C21 1_555 1_555
C22 C11 1_555 1_555
C23 C22 1_555 1_555
C24 C23 1_555 1_555
H18 C24 1_555 1_555
C25 C24 1_555 1_555
H19 C25 1_555 1_555
C26 C25 1_555 1_555
H20 C26 1_555 1_555
C27 C26 1_555 1_555
H21 C27 1_555 1_555
C28 C23 1_555 1_555
H22 C28 1_555 1_555
C29 N3 1_555 1_555
H23 C29 1_555 1_555
C30 N3 1_555 1_555
H24 C30 1_555 1_555
C31 N4 1_555 1_555
H25 C31 1_555 1_555
C32 N4 1_555 1_555
H26 C32 1_555 1_555
H27 C32 1_555 1_555
C33 N5 1_555 1_555
H28 C33 1_555 1_555
C34 N6 1_555 1_555
H29 C34 1_555 1_555
C35 N5 1_555 1_555
H30 C35 1_555 1_555
Fe1_2 N6 1_555 1_555
N6_2 Fe1 1_555 1_555
C4 C9 1_555 1_555
C8 C9 1_555 1_555
C11 C12 1_555 1_555
C20 C21 1_555 1_555
C27 C28 1_555 1_555
C30 C31 1_555 1_555
C34 C35 1_555 1_555

#END
