
#######################################################################
#
#                 Cambridge Crystallographic Data Centre
#                                CCDC 
#
#######################################################################
#
# If this CIF has been generated from an entry in the Cambridge 
# Structural Database, then it will include bibliographic, chemical, 
# crystal, experimental, refinement or atomic coordinate data resulting 
# from the CCDC's data processing and validation procedures.
#
#######################################################################

data_OMABOU
_symmetry_cell_setting           monoclinic
_symmetry_space_group_name_H-M   'P 21/c'
_symmetry_Int_Tables_number      14
_space_group_name_Hall           '-P 2ybc'
loop_
_symmetry_equiv_pos_site_id
_symmetry_equiv_pos_as_xyz
1 x,y,z
2 -x,1/2+y,1/2-z
3 -x,-y,-z
4 x,1/2-y,1/2+z
_cell_length_a                   15.2965(10)
_cell_length_b                   16.9485(12)
_cell_length_c                   11.0150(8)
_cell_angle_alpha                90
_cell_angle_beta                 102.6370(10)
_cell_angle_gamma                90
_cell_volume                     2786.49
loop_
_atom_site_label
_atom_site_type_symbol
_atom_site_fract_x
_atom_site_fract_y
_atom_site_fract_z
Cd1 Cd 0.468348(13) 0.536865(13) 0.715719(19)
C1 C 0.30153(19) 0.55658(17) 0.7542(3)
C2 C 0.20779(19) 0.55997(17) 0.7748(3)
C3 C 0.1414(2) 0.60107(19) 0.6956(3)
H1 H 0.1546 0.6266 0.6270
C4 C 0.0552(2) 0.6052(2) 0.7160(3)
H2 H 0.0107 0.6328 0.6613
C5 C 0.03640(19) 0.5677(2) 0.8188(3)
C6 C 0.1017(2) 0.5253(2) 0.8981(3)
H3 H 0.0884 0.4991 0.9660
C7 C 0.1868(2) 0.52193(19) 0.8761(3)
H4 H 0.2310 0.4936 0.9301
C8 C -0.12619(19) 0.5719(2) 0.7723(3)
C9 C -0.1414(2) 0.5318(2) 0.6604(3)
H5 H -0.0947 0.5059 0.6352
C10 C -0.2268(2) 0.53070(19) 0.5868(3)
H6 H -0.2371 0.5050 0.5105
C11 C -0.29806(18) 0.56728(18) 0.6243(3)
C12 C -0.38989(19) 0.56782(18) 0.5403(3)
C13 C -0.28110(19) 0.60347(19) 0.7398(3)
H7 H -0.3283 0.6260 0.7684
C14 C -0.1960(2) 0.6069(2) 0.8132(3)
H8 H -0.1856 0.6325 0.8897
C15 C 0.4981(2) 0.70198(19) 0.8697(3)
H9 H 0.4635 0.7273 0.8008
C16 C 0.5724(2) 0.61319(18) 0.9854(3)
H10 H 0.5996 0.5656 1.0137
C17 C 0.6210(2) 0.6889(2) 1.1847(3)
H11 H 0.6024 0.6475 1.2343
H12 H 0.6033 0.7390 1.2143
C18 C 0.7212(2) 0.6869(2) 1.2026(3)
C19 C 0.7648(2) 0.7158(2) 1.1137(3)
H13 H 0.7316 0.7366 1.0398
C20 C 0.8574(2) 0.7138(2) 1.1342(3)
H14 H 0.8854 0.7326 1.0730
C21 C 0.9091(2) 0.6843(2) 1.2442(3)
C22 C 0.8646(2) 0.6559(2) 1.3328(3)
H15 H 0.8977 0.6359 1.4074
C23 C 0.7724(2) 0.6569(2) 1.3121(3)
H16 H 0.7443 0.6370 1.3724
C24 C 1.0086(2) 0.6843(2) 1.2640(3)
C25 C 1.1411(2) 0.6699(2) 1.1813(3)
H17 H 1.1672 0.6557 1.1157
C26 C 1.0618(2) 0.7094(2) 1.3754(3)
H18 H 1.0358 0.7215 1.4420
C27 C 1.1946(2) 0.69814(18) 1.2920(3)
C28 C 1.1543(2) 0.7166(2) 1.3882(3)
H19 H 1.1893 0.7342 1.4632
C29 C 1.0501(2) 0.6630(2) 1.1688(3)
H20 H 1.0155 0.6436 1.0947
C30 C 1.2929(2) 0.7170(2) 1.3047(4)
H21 H 1.2980 0.7680 1.2668
H22 H 1.3208 0.7214 1.3925
C31 C 1.3872(2) 0.5969(2) 1.1102(3)
H23 H 1.3952 0.5797 1.0332
C32 C 1.3991(2) 0.60517(18) 1.3028(3)
H24 H 1.4156 0.5970 1.3883
N1 N 0.52584(15) 0.62585(15) 0.8722(2)
N2 N 0.52707(19) 0.73403(17) 0.9775(3)
N3 N 0.57517(15) 0.67836(15) 1.0542(2)
N4 N 1.34221(16) 0.65906(15) 1.2486(2)
N5 N 1.33386(18) 0.65492(18) 1.1233(3)
N6 N 1.42990(17) 0.56408(16) 1.2191(2)
O1 O 0.32313(13) 0.59814(13) 0.6716(2)
O2 O 0.35678(13) 0.51113(13) 0.82312(19)
O3 O -0.45595(13) 0.58906(14) 0.58366(19)
O4 O -0.39468(14) 0.55069(14) 0.4287(2)
O5 O -0.04429(13) 0.57500(18) 0.8552(2)
Cd1B Cd 1.531652(13) 0.463135(13) 1.284281(19)
Cd1_2 Cd -0.531652(13) 0.536865(13) 0.715719(19)
Cd1B_2 Cd -0.468348(13) 0.463135(13) 0.284281(19)
N6B N 0.57010(17) 0.43592(16) 0.7809(2)
O3_2 O 0.54405(13) 0.58906(14) 0.58366(19)
O4B O 0.39468(14) 0.44931(14) 0.5713(2)
loop_
_geom_bond_atom_site_label_1
_geom_bond_atom_site_label_2
_geom_bond_site_symmetry_1
_geom_bond_site_symmetry_2
Cd1 N1 1_555 1_555
C1 C2 1_555 1_555
C2 C3 1_555 1_555
C3 H1 1_555 1_555
C4 C3 1_555 1_555
H2 C4 1_555 1_555
C5 C4 1_555 1_555
C6 C5 1_555 1_555
H3 C6 1_555 1_555
C7 C2 1_555 1_555
H4 C7 1_555 1_555
C8 C9 1_555 1_555
C9 H5 1_555 1_555
C10 C9 1_555 1_555
H6 C10 1_555 1_555
C11 C10 1_555 1_555
C12 C11 1_555 1_555
C13 C11 1_555 1_555
H7 C13 1_555 1_555
C14 C8 1_555 1_555
H8 C14 1_555 1_555
C15 H9 1_555 1_555
C16 H10 1_555 1_555
C17 H11 1_555 1_555
H12 C17 1_555 1_555
C18 C17 1_555 1_555
C19 C18 1_555 1_555
H13 C19 1_555 1_555
C20 C19 1_555 1_555
H14 C20 1_555 1_555
C21 C20 1_555 1_555
C22 C21 1_555 1_555
H15 C22 1_555 1_555
C23 C18 1_555 1_555
H16 C23 1_555 1_555
C24 C21 1_555 1_555
C25 H17 1_555 1_555
C26 C24 1_555 1_555
H18 C26 1_555 1_555
C27 C25 1_555 1_555
C28 C26 1_555 1_555
H19 C28 1_555 1_555
C29 C24 1_555 1_555
H20 C29 1_555 1_555
C30 C27 1_555 1_555
H21 C30 1_555 1_555
H22 C30 1_555 1_555
C31 H23 1_555 1_555
C32 H24 1_555 1_555
N1 C15 1_555 1_555
N2 C15 1_555 1_555
N3 C16 1_555 1_555
N4 C30 1_555 1_555
N5 C31 1_555 1_555
N6 C31 1_555 1_555
O1 Cd1 1_555 1_555
O2 Cd1 1_555 1_555
O3 C12 1_555 1_555
O4 C12 1_555 1_555
O5 C5 1_555 1_555
Cd1B N6 1_555 1_555
Cd1_2 O3 1_555 1_555
Cd1B_2 O4 1_555 1_555
N6B Cd1 1_555 1_555
O3_2 Cd1 1_555 1_555
O4B Cd1 1_555 1_555
C1 O1 1_555 1_555
C1 O2 1_555 1_555
C6 C7 1_555 1_555
C8 O5 1_555 1_555
C13 C14 1_555 1_555
C16 N1 1_555 1_555
C17 N3 1_555 1_555
C22 C23 1_555 1_555
C25 C29 1_555 1_555
C27 C28 1_555 1_555
C32 N4 1_555 1_555
C32 N6 1_555 1_555
N2 N3 1_555 1_555
N4 N5 1_555 1_555

#END
