
#######################################################################
#
#                 Cambridge Crystallographic Data Centre
#                                CCDC 
#
#######################################################################
#
# If this CIF has been generated from an entry in the Cambridge 
# Structural Database, then it will include bibliographic, chemical, 
# crystal, experimental, refinement or atomic coordinate data resulting 
# from the CCDC's data processing and validation procedures.
#
#######################################################################

data_OMABUA
_symmetry_cell_setting           monoclinic
_symmetry_space_group_name_H-M   'P 21/c'
_symmetry_Int_Tables_number      14
_space_group_name_Hall           '-P 2ybc'
loop_
_symmetry_equiv_pos_site_id
_symmetry_equiv_pos_as_xyz
1 x,y,z
2 -x,1/2+y,1/2-z
3 -x,-y,-z
4 x,1/2-y,1/2+z
_cell_length_a                   15.056(9)
_cell_length_b                   16.747(11)
_cell_length_c                   10.838(7)
_cell_angle_alpha                90
_cell_angle_beta                 102.255(8)
_cell_angle_gamma                90
_cell_volume                     2670.45
loop_
_atom_site_label
_atom_site_type_symbol
_atom_site_fract_x
_atom_site_fract_y
_atom_site_fract_z
Co1 Co 0.53148(6) 0.53343(6) 0.29063(9)
C1 C 1.3922(5) 0.5630(5) 0.4558(7)
C2 C 1.2973(4) 0.5663(4) 0.3750(6)
C3 C 1.2265(4) 0.5304(4) 0.4177(7)
H1 H 1.2383 0.5050 0.4958
C4 C 1.1382(4) 0.5317(5) 0.3462(7)
H2 H 1.0911 0.5067 0.3745
C5 C 1.1226(4) 0.5713(5) 0.2316(7)
C6 C 1.1922(4) 0.6063(5) 0.1869(7)
H3 H 1.1806 0.6318 0.1089
C7 C 1.2807(5) 0.6031(4) 0.2602(7)
H4 H 1.3284 0.6261 0.2305
C8 C 0.9575(4) 0.5661(5) 0.1859(7)
C9 C 0.9383(5) 0.6043(5) 0.2891(7)
H5 H 0.9834 0.6327 0.3435
C10 C 0.8517(5) 0.6002(4) 0.3115(7)
H6 H 0.8388 0.6255 0.3821
C11 C 0.7831(4) 0.5588(4) 0.2300(7)
C12 C 0.8048(4) 0.5222(5) 0.1269(7)
H7 H 0.7599 0.4945 0.0710
C13 C 0.8907(4) 0.5254(5) 0.1043(7)
H8 H 0.9038 0.5001 0.0338
C14 C 0.6882(4) 0.5553(5) 0.2523(7)
C15 C 0.3949(5) 0.4100(5) 0.1183(7)
H9 H 0.4043 0.4294 0.0417
C16 C 0.4039(5) 0.3975(5) 0.3140(7)
H10 H 0.4197 0.4042 0.4011
C17 C 0.2958(5) 0.2846(5) 0.3093(8)
H11 H 0.3232 0.2800 0.3985
H12 H 0.3015 0.2333 0.2704
C18 C 0.1954(5) 0.3036(4) 0.2952(7)
C19 C 0.1432(5) 0.3350(5) 0.1851(8)
H13 H 0.1710 0.3519 0.1208
C20 C 0.0499(5) 0.3412(5) 0.1703(7)
H14 H 0.0157 0.3634 0.0968
C21 C 0.0073(5) 0.3151(5) 0.2624(7)
C22 C 0.0582(5) 0.2870(5) 0.3743(7)
H15 H 0.0304 0.2723 0.4398
C23 C 0.1519(5) 0.2811(5) 0.3884(7)
H16 H 0.1861 0.2611 0.4636
C24 C -0.0947(5) 0.3150(5) 0.2392(7)
C25 C -0.1431(5) 0.2850(5) 0.1267(7)
H17 H -0.1124 0.2651 0.0671
C26 C -0.2381(5) 0.2841(5) 0.1015(7)
H18 H -0.2704 0.2652 0.0242
C27 C -0.2835(5) 0.3107(5) 0.1886(7)
C28 C -0.2355(5) 0.3422(4) 0.3013(7)
H19 H -0.2667 0.3628 0.3597
C29 C -0.1414(5) 0.3433(5) 0.3276(7)
H20 H -0.1095 0.3630 0.4046
C30 C -0.3861(5) 0.3090(5) 0.1648(7)
H21 H -0.4053 0.2570 0.1885
H22 H -0.4062 0.3485 0.2184
C31 C -0.4358(4) 0.3925(5) -0.0277(7)
H23 H -0.4114 0.4405 0.0070
C32 C -0.5023(5) 0.3053(5) -0.1535(7)
H24 H -0.5348 0.2807 -0.2261
N1 N 0.4359(4) 0.4403(4) 0.2319(6)
N2 N 0.3404(5) 0.3500(5) 0.1283(7)
N3 N 0.3452(4) 0.3429(4) 0.2543(6)
N4 N -0.4813(4) 0.3843(4) -0.1464(5)
N5 N -0.4723(4) 0.2683(4) -0.0493(8)
N6 N -0.4297(4) 0.3248(4) 0.0343(6)
O1 O 1.3983(3) 0.5421(3) 0.5680(5)
O2 O 1.4578(3) 0.5833(3) 0.4081(4)
O3 O 0.6646(3) 0.6016(3) 0.3317(4)
O4 O 0.6323(3) 0.5068(3) 0.1910(5)
O5 O 1.0393(3) 0.5739(4) 0.1475(4)
Co1B Co -0.53148(6) 0.46657(6) -0.29063(9)
Co1B_2 Co 1.46852(6) 0.46657(6) 0.70937(9)
Co1_2 Co 1.53148(6) 0.53343(6) 0.29063(9)
N4B N 0.4813(4) 0.6157(4) 0.1464(5)
O1B O 0.6017(3) 0.4579(3) 0.4320(5)
O2_2 O 0.4578(3) 0.5833(3) 0.4081(4)
loop_
_geom_bond_atom_site_label_1
_geom_bond_atom_site_label_2
_geom_bond_site_symmetry_1
_geom_bond_site_symmetry_2
Co1 N1 1_555 1_555
C1 C2 1_555 1_555
C2 C3 1_555 1_555
C3 H1 1_555 1_555
C4 C3 1_555 1_555
H2 C4 1_555 1_555
C5 C4 1_555 1_555
C6 C5 1_555 1_555
H3 C6 1_555 1_555
C7 C2 1_555 1_555
H4 C7 1_555 1_555
C8 C9 1_555 1_555
C9 H5 1_555 1_555
C10 C9 1_555 1_555
H6 C10 1_555 1_555
C11 C10 1_555 1_555
C12 C11 1_555 1_555
H7 C12 1_555 1_555
C13 C8 1_555 1_555
H8 C13 1_555 1_555
C14 C11 1_555 1_555
C15 H9 1_555 1_555
C16 H10 1_555 1_555
C17 H11 1_555 1_555
H12 C17 1_555 1_555
C18 C17 1_555 1_555
C19 C18 1_555 1_555
H13 C19 1_555 1_555
C20 C19 1_555 1_555
H14 C20 1_555 1_555
C21 C20 1_555 1_555
C22 C21 1_555 1_555
H15 C22 1_555 1_555
C23 C18 1_555 1_555
H16 C23 1_555 1_555
C24 C21 1_555 1_555
C25 C24 1_555 1_555
H17 C25 1_555 1_555
C26 C25 1_555 1_555
H18 C26 1_555 1_555
C27 C26 1_555 1_555
C28 C27 1_555 1_555
H19 C28 1_555 1_555
C29 C24 1_555 1_555
H20 C29 1_555 1_555
C30 C27 1_555 1_555
H21 C30 1_555 1_555
H22 C30 1_555 1_555
C31 H23 1_555 1_555
C32 H24 1_555 1_555
N1 C15 1_555 1_555
N2 C15 1_555 1_555
N3 C16 1_555 1_555
N4 C31 1_555 1_555
N5 C32 1_555 1_555
N6 C30 1_555 1_555
O1 C1 1_555 1_555
O2 C1 1_555 1_555
O3 Co1 1_555 1_555
O4 Co1 1_555 1_555
O5 C5 1_555 1_555
Co1B N4 1_555 1_555
Co1B_2 O1 1_555 1_555
Co1_2 O2 1_555 1_555
N4B Co1 1_555 1_555
O1B Co1 1_555 1_555
O2_2 Co1 1_555 1_555
C6 C7 1_555 1_555
C8 O5 1_555 1_555
C12 C13 1_555 1_555
C14 O3 1_555 1_555
C14 O4 1_555 1_555
C16 N1 1_555 1_555
C17 N3 1_555 1_555
C22 C23 1_555 1_555
C28 C29 1_555 1_555
C31 N6 1_555 1_555
C32 N4 1_555 1_555
N2 N3 1_555 1_555
N5 N6 1_555 1_555

#END
