
#######################################################################
#
#                 Cambridge Crystallographic Data Centre
#                                CCDC 
#
#######################################################################
#
# If this CIF has been generated from an entry in the Cambridge 
# Structural Database, then it will include bibliographic, chemical, 
# crystal, experimental, refinement or atomic coordinate data resulting 
# from the CCDC's data processing and validation procedures.
#
#######################################################################

data_OMACIP
_symmetry_cell_setting           monoclinic
_symmetry_space_group_name_H-M   'P 21'
_symmetry_Int_Tables_number      4
_space_group_name_Hall           'P 2yb'
loop_
_symmetry_equiv_pos_site_id
_symmetry_equiv_pos_as_xyz
1 x,y,z
2 -x,1/2+y,-z
_cell_length_a                   6.1365(10)
_cell_length_b                   16.580(3)
_cell_length_c                   14.445(2)
_cell_angle_alpha                90
_cell_angle_beta                 99.139(2)
_cell_angle_gamma                90
_cell_volume                     1451.02
loop_
_atom_site_label
_atom_site_type_symbol
_atom_site_fract_x
_atom_site_fract_y
_atom_site_fract_z
Co1 Co 0.36209(16) 0.38722(7) 1.38954(7)
C1 C 0.5952(16) 0.5261(7) 1.4965(7)
H1 H 0.4922 0.5247 1.5373
C2 C 0.7599(13) 0.5011(5) 1.3831(5)
H2 H 0.8021 0.4779 1.3301
C3 C 1.0462(14) 0.6120(7) 1.4086(6)
H3 H 1.1815 0.5847 1.4351
H4 H 1.0437 0.6638 1.4396
C4 C 1.0451(15) 0.6253(6) 1.3055(6)
C5 C 0.8711(16) 0.6630(6) 1.2497(6)
H5 H 0.7502 0.6793 1.2766
C6 C 0.8700(14) 0.6777(6) 1.1547(6)
H6 H 0.7484 0.7019 1.1186
C7 C 1.0502(15) 0.6561(6) 1.1148(6)
C8 C 1.2287(14) 0.6191(6) 1.1717(6)
H7 H 1.3509 0.6033 1.1454
C9 C 1.2270(14) 0.6056(6) 1.2646(6)
H8 H 1.3502 0.5828 1.3011
C10 C 1.0468(13) 0.6647(6) 1.0113(6)
C11 C 0.8650(14) 0.6479(6) 0.9468(7)
H9 H 0.7365 0.6325 0.9686
C12 C 0.8608(15) 0.6522(6) 0.8525(6)
H10 H 0.7320 0.6405 0.8115
C13 C 1.0519(14) 0.6745(6) 0.8181(6)
C14 C 1.2355(15) 0.6948(7) 0.8810(6)
H11 H 1.3627 0.7115 0.8590
C15 C 1.2344(14) 0.6909(7) 0.9765(6)
H12 H 1.3597 0.7057 1.0180
C16 C 1.0355(15) 0.6751(8) 0.7137(6)
H13 H 1.0062 0.6205 0.6907
H14 H 0.9101 0.7081 0.6876
C17 C 1.4983(13) 0.7100(6) 0.6012(6)
H15 H 1.6076 0.6953 0.5666
C18 C 1.2992(14) 0.7812(6) 0.6769(6)
H16 H 1.2370 0.8241 0.7049
C19 C 0.2037(13) 0.4074(5) 1.2117(5)
C20 C 0.0579(12) 0.4089(6) 1.1200(5)
C21 C -0.1517(14) 0.4428(6) 1.1109(6)
H17 H -0.2020 0.4639 1.1633
C22 C -0.2850(14) 0.4454(6) 1.0249(6)
H18 H -0.4242 0.4688 1.0194
C23 C -0.2136(12) 0.4135(6) 0.9463(5)
C24 C -0.0046(12) 0.3801(7) 0.9555(5)
H19 H 0.0445 0.3581 0.9033
C25 C 0.1312(12) 0.3790(7) 1.0408(5)
H20 H 0.2731 0.3581 1.0455
C26 C -0.2506(12) 0.3961(6) 0.7503(5)
C27 C -0.3169(13) 0.3336(6) 0.6888(6)
H21 H -0.4344 0.3006 0.6977
C28 C -0.2051(13) 0.3209(6) 0.6137(6)
H22 H -0.2518 0.2805 0.5704
C29 C -0.0251(12) 0.3679(5) 0.6025(5)
C30 C 0.0400(14) 0.4293(6) 0.6654(6)
H23 H 0.1615 0.4609 0.6582
C31 C -0.0733(14) 0.4442(6) 0.7383(6)
H24 H -0.0309 0.4866 0.7794
C32 C 0.1023(14) 0.3497(7) 0.5229(6)
N1 N 0.5942(10) 0.4745(5) 1.4241(5)
N2 N 0.7568(15) 0.5783(7) 1.5032(6)
N3 N 0.8555(10) 0.5636(4) 1.4267(4)
N4 N 1.4674(11) 0.7874(5) 0.6299(5)
N5 N 1.2323(11) 0.7053(5) 0.6784(5)
N6 N 1.3588(14) 0.6597(5) 0.6274(6)
O1 O 0.1086(8) 0.4029(4) 1.2853(3)
O2 O 0.4070(9) 0.4071(4) 1.2191(4)
O3 O 0.2296(9) 0.4061(4) 0.5028(4)
O4 O 0.0745(11) 0.2852(5) 0.4800(4)
O5 O -0.5032(10) 0.4923(4) 0.8307(4)
O6 O -0.5520(10) 0.3451(5) 0.8452(4)
S1 S -0.4063(3) 0.41278(15) 0.84156(14)
Co1_2 Co 0.36209(16) 0.38722(7) 0.38954(7)
Co1A Co 1.63791(16) 0.88722(7) 0.61046(7)
N4A N 0.5326(11) 0.2874(5) 1.3701(5)
O3_2 O 0.2296(9) 0.4061(4) 1.5028(4)
loop_
_geom_bond_atom_site_label_1
_geom_bond_atom_site_label_2
_geom_bond_site_symmetry_1
_geom_bond_site_symmetry_2
Co1 N1 1_555 1_555
C1 H1 1_555 1_555
C2 H2 1_555 1_555
C3 H3 1_555 1_555
H4 C3 1_555 1_555
C4 C3 1_555 1_555
C5 C4 1_555 1_555
H5 C5 1_555 1_555
C6 C5 1_555 1_555
H6 C6 1_555 1_555
C7 C6 1_555 1_555
C8 C7 1_555 1_555
H7 C8 1_555 1_555
C9 C4 1_555 1_555
H8 C9 1_555 1_555
C10 C7 1_555 1_555
C11 C10 1_555 1_555
H9 C11 1_555 1_555
C12 C11 1_555 1_555
H10 C12 1_555 1_555
C13 C12 1_555 1_555
C14 C13 1_555 1_555
H11 C14 1_555 1_555
C15 C10 1_555 1_555
H12 C15 1_555 1_555
C16 C13 1_555 1_555
H13 C16 1_555 1_555
H14 C16 1_555 1_555
C17 H15 1_555 1_555
C18 H16 1_555 1_555
C19 C20 1_555 1_555
C20 C21 1_555 1_555
C21 H17 1_555 1_555
C22 C21 1_555 1_555
H18 C22 1_555 1_555
C23 C22 1_555 1_555
C24 C23 1_555 1_555
H19 C24 1_555 1_555
C25 C20 1_555 1_555
H20 C25 1_555 1_555
C26 C27 1_555 1_555
C27 H21 1_555 1_555
C28 C27 1_555 1_555
H22 C28 1_555 1_555
C29 C28 1_555 1_555
C30 C29 1_555 1_555
H23 C30 1_555 1_555
C31 C26 1_555 1_555
H24 C31 1_555 1_555
C32 C29 1_555 1_555
N1 C1 1_555 1_555
N2 C1 1_555 1_555
N3 C2 1_555 1_555
N4 C17 1_555 1_555
N5 C16 1_555 1_555
N6 C17 1_555 1_555
O1 Co1 1_555 1_555
O2 C19 1_555 1_555
O3 C32 1_555 1_555
O4 C32 1_555 1_555
O5 S1 1_555 1_555
O6 S1 1_555 1_555
S1 C23 1_555 1_555
Co1_2 O3 1_555 1_555
Co1A N4 1_555 1_555
N4A Co1 1_555 1_555
O3_2 Co1 1_555 1_555
C2 N1 1_555 1_555
C3 N3 1_555 1_555
C8 C9 1_555 1_555
C14 C15 1_555 1_555
C18 N4 1_555 1_555
C18 N5 1_555 1_555
C19 O1 1_555 1_555
C24 C25 1_555 1_555
C26 S1 1_555 1_555
C30 C31 1_555 1_555
N2 N3 1_555 1_555
N5 N6 1_555 1_555

#END
