
#######################################################################
#
#                 Cambridge Crystallographic Data Centre
#                                CCDC 
#
#######################################################################
#
# If this CIF has been generated from an entry in the Cambridge 
# Structural Database, then it will include bibliographic, chemical, 
# crystal, experimental, refinement or atomic coordinate data resulting 
# from the CCDC's data processing and validation procedures.
#
#######################################################################

data_OMAFUE
_symmetry_cell_setting           orthorhombic
_symmetry_space_group_name_H-M   'P n a 21'
_symmetry_Int_Tables_number      33
_space_group_name_Hall           'P 2c -2n'
loop_
_symmetry_equiv_pos_site_id
_symmetry_equiv_pos_as_xyz
1 x,y,z
2 -x,-y,1/2+z
3 1/2-x,1/2+y,1/2+z
4 1/2+x,1/2-y,z
_cell_length_a                   17.041(3)
_cell_length_b                   11.140(2)
_cell_length_c                   11.131(2)
_cell_angle_alpha                90
_cell_angle_beta                 90
_cell_angle_gamma                90
_cell_volume                     2113.07
loop_
_atom_site_label
_atom_site_type_symbol
_atom_site_fract_x
_atom_site_fract_y
_atom_site_fract_z
C1 C 0.55699(14) 0.7389(2) 0.3314(4)
H1 H 0.5838 0.8116 0.3308
C2 C 0.5440(2) 0.6787(3) 0.4382(3)
C3 C 0.50300(19) 0.5716(3) 0.4355(3)
H2 H 0.4933 0.5325 0.5078
C4 C 0.48897(17) 0.5814(3) 0.2312(3)
H3 H 0.4695 0.5490 0.1602
C5 C 0.5294(2) 0.6893(3) 0.2249(3)
C6 C 0.54446(18) 0.7478(3) 0.1044(3)
C7 C 0.57412(17) 0.7264(3) 0.5577(3)
C8 C 0.41413(19) 0.8066(3) 0.7150(3)
H4 H 0.4454 0.8731 0.6985
C9 C 0.37393(19) 0.6366(3) 0.7797(3)
H5 H 0.3726 0.5618 0.8168
C10 C 0.3134(2) 0.6874(3) 0.7189(4)
H6 H 0.2637 0.6550 0.7078
C11 C 0.2985(2) 0.8736(4) 0.5943(3)
H7 H 0.3225 0.9525 0.5957
H8 H 0.2442 0.8818 0.6191
C12 C 0.3021(3) 0.8223(3) 0.4672(4)
H9 H 0.3565 0.8142 0.4431
H10 H 0.2787 0.7429 0.4668
C13 C 0.2598(2) 0.9006(4) 0.3777(3)
H11 H 0.2848 0.9787 0.3756
H12 H 0.2061 0.9120 0.4044
C14 C 0.2588(2) 0.8484(4) 0.2506(3)
H13 H 0.2201 0.8912 0.2032
H14 H 0.2428 0.7650 0.2546
C15 C 0.3374(2) 0.8559(4) 0.1877(4)
H15 H 0.3517 0.9397 0.1789
H16 H 0.3768 0.8179 0.2378
C16 C 0.3385(2) 0.7966(4) 0.0637(4)
H17 H 0.3284 0.7114 0.0722
H18 H 0.3901 0.8062 0.0281
C17 C 0.21237(18) 0.7975(3) -0.0501(3)
H19 H 0.1980 0.7195 -0.0298
C18 C 0.2116(2) 0.9745(3) -0.1241(3)
H20 H 0.1960 1.0429 -0.1657
C19 C 0.2795(2) 0.9631(4) -0.0620(4)
H21 H 0.3184 1.0208 -0.0530
Co1 Co 0.554970(19) 0.67222(3) 0.83062(4)
H22 H 0.597(3) 0.869(4) 0.7308(13)
H23 H 0.564(2) 0.909(3) 0.836(4)
N1 N 0.47638(13) 0.52115(18) 0.3334(3)
N2 N 0.43759(14) 0.7129(2) 0.7781(3)
N3 N 0.33970(16) 0.7942(3) 0.6775(3)
N4 N 0.16911(15) 0.8701(2) -0.1166(2)
N5 N 0.27939(16) 0.8500(3) -0.0156(3)
O1 O 0.59122(17) 0.8355(2) 0.5631(2)
O2 O 0.57907(14) 0.65094(17) 0.64130(18)
O3 O 0.57655(19) 0.8488(2) 0.1058(2)
O4 O 0.52462(14) 0.68879(19) 0.01367(18)
O5 O 0.59216(14) 0.85430(18) 0.80528(18)
Co1_2 Co 0.554970(19) 0.67222(3) -0.16938(4)
Co1A Co 0.445030(19) 0.32778(3) 0.33062(4)
Co1C Co 0.054970(19) 0.82778(3) -0.16938(4)
N1A N 0.52362(13) 0.47885(18) 0.8334(3)
N4C N 0.66911(15) 0.6299(2) 0.8834(2)
O4_2 O 0.52462(14) 0.68879(19) 1.01367(18)
H24 H 0.483(2) 0.057(3) 0.980(4)
H25 H 0.534(4) -0.036(6) 1.004(5)
O6 O 0.5152(3) 0.0084(3) 0.9486(3)
loop_
_geom_bond_atom_site_label_1
_geom_bond_atom_site_label_2
_geom_bond_site_symmetry_1
_geom_bond_site_symmetry_2
C1 H1 1_555 1_555
C2 C1 1_555 1_555
C3 C2 1_555 1_555
H2 C3 1_555 1_555
C4 H3 1_555 1_555
C5 C1 1_555 1_555
C6 C5 1_555 1_555
C7 C2 1_555 1_555
C8 H4 1_555 1_555
C9 H5 1_555 1_555
C10 C9 1_555 1_555
H6 C10 1_555 1_555
C11 H7 1_555 1_555
H8 C11 1_555 1_555
C12 C11 1_555 1_555
H9 C12 1_555 1_555
H10 C12 1_555 1_555
C13 C12 1_555 1_555
H11 C13 1_555 1_555
H12 C13 1_555 1_555
C14 C13 1_555 1_555
H13 C14 1_555 1_555
H14 C14 1_555 1_555
C15 C14 1_555 1_555
H15 C15 1_555 1_555
H16 C15 1_555 1_555
C16 C15 1_555 1_555
H17 C16 1_555 1_555
H18 C16 1_555 1_555
C17 H19 1_555 1_555
C18 H20 1_555 1_555
C19 C18 1_555 1_555
H21 C19 1_555 1_555
Co1 N2 1_555 1_555
H22 O5 1_555 1_555
H23 O5 1_555 1_555
N1 C3 1_555 1_555
N2 C8 1_555 1_555
N3 C8 1_555 1_555
N4 C17 1_555 1_555
N5 C16 1_555 1_555
O1 C7 1_555 1_555
O2 C7 1_555 1_555
O3 C6 1_555 1_555
O4 C6 1_555 1_555
O5 Co1 1_555 1_555
H24 O6 1_555 1_555
H25 O6 1_555 1_555
Co1_2 O4 1_555 1_555
Co1A N1 1_555 1_555
Co1C N4 1_555 1_555
N1A Co1 1_555 1_555
N4C Co1 1_555 1_555
O4_2 Co1 1_555 1_555
C4 C5 1_555 1_555
C4 N1 1_555 1_555
C9 N2 1_555 1_555
C10 N3 1_555 1_555
C11 N3 1_555 1_555
C17 N5 1_555 1_555
C18 N4 1_555 1_555
C19 N5 1_555 1_555
Co1 O2 1_555 1_555

#END
