
#######################################################################
#
#                 Cambridge Crystallographic Data Centre
#                                CCDC 
#
#######################################################################
#
# If this CIF has been generated from an entry in the Cambridge 
# Structural Database, then it will include bibliographic, chemical, 
# crystal, experimental, refinement or atomic coordinate data resulting 
# from the CCDC's data processing and validation procedures.
#
#######################################################################

data_OMAFIS
_symmetry_cell_setting           monoclinic
_symmetry_space_group_name_H-M   'P 21/c'
_symmetry_Int_Tables_number      14
_space_group_name_Hall           '-P 2ybc'
loop_
_symmetry_equiv_pos_site_id
_symmetry_equiv_pos_as_xyz
1 x,y,z
2 -x,1/2+y,1/2-z
3 -x,-y,-z
4 x,1/2-y,1/2+z
_cell_length_a                   12.803(3)
_cell_length_b                   9.817(2)
_cell_length_c                   12.104(2)
_cell_angle_alpha                90
_cell_angle_beta                 92.06(3)
_cell_angle_gamma                90
_cell_volume                     1520.33
loop_
_atom_site_label
_atom_site_type_symbol
_atom_site_fract_x
_atom_site_fract_y
_atom_site_fract_z
C1 C 0.3496(3) 0.1078(4) 0.4398(3)
H1 H 0.3165 0.1229 0.5059
C2 C 0.3790(3) 0.0523(5) 0.2728(4)
H2 H 0.3691 0.0212 0.2006
C3 C 0.4710(3) 0.0983(5) 0.3179(4)
H3 H 0.5346 0.1044 0.2835
C4 C 0.5220(3) 0.2044(4) 0.5017(4)
H4 H 0.5934 0.1809 0.4854
H5 H 0.5091 0.1730 0.5760
C5 C 0.5099(3) 0.3583(4) 0.4976(3)
C6 C 0.4304(3) 0.4237(4) 0.4375(3)
H6 H 0.3828 0.3722 0.3952
C7 C 0.5794(3) 0.4362(4) 0.5607(3)
H7 H 0.6329 0.3942 0.6020
C8 C 0.1246(3) 0.2891(3) 0.4019(3)
C9 C 0.1300(3) 0.4115(3) 0.4769(3)
C10 C 0.1363(3) 0.5428(3) 0.4345(3)
H8 H 0.1350 0.5569 0.3585
C11 C 0.1445(3) 0.6525(3) 0.5062(3)
C12 C 0.1452(3) 0.6277(3) 0.6188(3)
H9 H 0.1502 0.7016 0.6668
C13 C 0.1313(3) 0.3967(3) 0.5907(3)
H10 H 0.1267 0.3091 0.6193
C14 C 0.1530(3) 0.7954(3) 0.4634(3)
N1 N 0.3028(2) 0.0583(3) 0.3496(2)
N2 N 0.4512(3) 0.1338(3) 0.4240(3)
N3 N 0.1388(2) 0.5017(2) 0.6624(2)
Ni1 Ni 0.14286(4) 0.02044(4) 0.33795(4)
O1 O 0.1324(2) 0.3059(3) 0.3000(2)
O2 O 0.1156(2) 0.1746(2) 0.4476(2)
O3 O 0.1483(2) 0.8117(3) 0.3609(2)
O4 O 0.1634(2) 0.8924(2) 0.5295(2)
O5 O -0.0206(2) 0.0027(3) 0.3265(2)
H11 H -0.0457 -0.0680 0.2953
H12 H -0.0608 0.0316 0.3753
C1B C 0.6504(3) 0.8922(4) 0.5602(3)
H1B H 0.6835 0.8771 0.4941
C2B C 0.6210(3) 0.9477(5) 0.7272(4)
H2B H 0.6309 0.9788 0.7994
C3B C 0.5290(3) 0.9017(5) 0.6821(4)
H3B H 0.4654 0.8956 0.7165
C4B C 0.4780(3) 0.7956(4) 0.4983(4)
H4B H 0.4066 0.8191 0.5146
H5B H 0.4909 0.8270 0.4240
C5B C 0.4901(3) 0.6417(4) 0.5024(3)
C6B C 0.5696(3) 0.5763(4) 0.5625(3)
H6B H 0.6172 0.6278 0.6048
C7B C 0.4206(3) 0.5638(4) 0.4393(3)
H7B H 0.3671 0.6058 0.3980
C8B C 0.8754(3) 0.7109(3) 0.5981(3)
C9B C 0.8700(3) 0.5885(3) 0.5231(3)
C10B C 0.8637(3) 0.4572(3) 0.5655(3)
H8B H 0.8650 0.4431 0.6415
C11B C 0.8555(3) 0.3475(3) 0.4938(3)
C12B C 0.8548(3) 0.3723(3) 0.3812(3)
H9B H 0.8498 0.2984 0.3332
C13B C 0.8687(3) 0.6033(3) 0.4093(3)
H10B H 0.8733 0.6909 0.3807
C14B C 0.8470(3) 0.2046(3) 0.5366(3)
N1B N 0.6972(2) 0.9417(3) 0.6504(2)
N2B N 0.5488(3) 0.8662(3) 0.5760(3)
N3B N 0.8612(2) 0.4983(2) 0.3376(2)
N3A N 0.8612(2) 1.0017(2) 0.8376(2)
N3C N 0.1388(2) -0.0017(2) 0.1624(2)
Ni1B Ni 0.85714(4) 0.97956(4) 0.66205(4)
Ni1_2 Ni 0.14286(4) 1.02044(4) 0.33795(4)
Ni1A Ni 0.85714(4) 0.52044(4) 0.16205(4)
Ni1B_2 Ni 0.85714(4) -0.02044(4) 0.66205(4)
Ni1C Ni 0.14286(4) 0.47956(4) 0.83795(4)
O1B O 0.8676(2) 0.6941(3) 0.7000(2)
O2B O 0.8844(2) 0.8254(2) 0.5524(2)
O3B O 0.8517(2) 0.1883(3) 0.6391(2)
O3_2 O 0.1483(2) -0.1883(3) 0.3609(2)
O3B_2 O 0.8517(2) 1.1883(3) 0.6391(2)
O4B O 0.8366(2) 0.1076(2) 0.4705(2)
O5B O 1.0206(2) 0.9973(3) 0.6735(2)
H11B H 1.0457 1.0680 0.7047
H12B H 1.0608 0.9684 0.6247
O6 O 0.2897(3) 0.0260(5) 0.6955(3)
H13 H 0.2523 0.0918 0.7171
H14 H 0.2597 -0.0439 0.6671
loop_
_geom_bond_atom_site_label_1
_geom_bond_atom_site_label_2
_geom_bond_site_symmetry_1
_geom_bond_site_symmetry_2
C1 H1 1_555 1_555
C2 H2 1_555 1_555
C3 C2 1_555 1_555
H3 C3 1_555 1_555
C4 H4 1_555 1_555
H5 C4 1_555 1_555
C5 C4 1_555 1_555
C6 C5 1_555 1_555
H6 C6 1_555 1_555
C7 C5 1_555 1_555
H7 C7 1_555 1_555
C8 C9 1_555 1_555
C9 C10 1_555 1_555
C10 H8 1_555 1_555
C11 C10 1_555 1_555
C12 C11 1_555 1_555
H9 C12 1_555 1_555
C13 C9 1_555 1_555
H10 C13 1_555 1_555
C14 C11 1_555 1_555
N1 C1 1_555 1_555
N2 C1 1_555 1_555
N3 C12 1_555 1_555
Ni1 N1 1_555 1_555
O1 C8 1_555 1_555
O2 C8 1_555 1_555
O3 C14 1_555 1_555
O4 C14 1_555 1_555
O5 Ni1 1_555 1_555
H11 O5 1_555 1_555
H12 O5 1_555 1_555
O6 H13 1_555 1_555
H14 O6 1_555 1_555
C1B H1B 1_555 1_555
C2B H2B 1_555 1_555
C3B C2B 1_555 1_555
H3B C3B 1_555 1_555
C4B H4B 1_555 1_555
H5B C4B 1_555 1_555
C5B C4B 1_555 1_555
C6B C7 1_555 1_555
H6B C6B 1_555 1_555
C7B C6 1_555 1_555
H7B C7B 1_555 1_555
C8B C9B 1_555 1_555
C9B C10B 1_555 1_555
C10B H8B 1_555 1_555
C11B C10B 1_555 1_555
C12B C11B 1_555 1_555
H9B C12B 1_555 1_555
C13B C9B 1_555 1_555
H10B C13B 1_555 1_555
C14B C11B 1_555 1_555
N1B C1B 1_555 1_555
N2B C1B 1_555 1_555
N3B C12B 1_555 1_555
N3A Ni1B 1_555 1_555
N3C Ni1 1_555 1_555
Ni1B N1B 1_555 1_555
Ni1_2 O3 1_555 1_555
Ni1A N3B 1_555 1_555
Ni1B_2 O3B 1_555 1_555
Ni1C N3 1_555 1_555
O1B C8B 1_555 1_555
O2B C8B 1_555 1_555
O3B C14B 1_555 1_555
O3_2 Ni1 1_555 1_555
O3B_2 Ni1B 1_555 1_555
O4B C14B 1_555 1_555
O5B Ni1B 1_555 1_555
H11B O5B 1_555 1_555
H12B O5B 1_555 1_555
C2 N1 1_555 1_555
C3 N2 1_555 1_555
C4 N2 1_555 1_555
C13 N3 1_555 1_555
Ni1 O2 1_555 1_555
C2B N1B 1_555 1_555
C3B N2B 1_555 1_555
C4B N2B 1_555 1_555
C5B C6B 1_555 1_555
C5B C7B 1_555 1_555
C13B N3B 1_555 1_555
Ni1B O2B 1_555 1_555

#END
