
#######################################################################
#
#                 Cambridge Crystallographic Data Centre
#                                CCDC 
#
#######################################################################
#
# If this CIF has been generated from an entry in the Cambridge 
# Structural Database, then it will include bibliographic, chemical, 
# crystal, experimental, refinement or atomic coordinate data resulting 
# from the CCDC's data processing and validation procedures.
#
#######################################################################

data_OMAREZ
_symmetry_cell_setting           triclinic
_symmetry_space_group_name_H-M   'P -1'
_symmetry_Int_Tables_number      2
_space_group_name_Hall           '-P 1'
loop_
_symmetry_equiv_pos_site_id
_symmetry_equiv_pos_as_xyz
1 x,y,z
2 -x,-y,-z
_cell_length_a                   7.1504(4)
_cell_length_b                   9.4068(5)
_cell_length_c                   11.2044(6)
_cell_angle_alpha                68.0005(10)
_cell_angle_beta                 83.4916(9)
_cell_angle_gamma                81.7084(10)
_cell_volume                     690.009
loop_
_atom_site_label
_atom_site_type_symbol
_atom_site_fract_x
_atom_site_fract_y
_atom_site_fract_z
Sr1 Sr 0.26571(3) 0.25697(2) 0.21802(2)
S1 S 0.39265(8) 0.07663(7) 0.77201(6)
S2 S 0.26402(8) 0.68204(6) 0.68488(6)
O1 O 0.0909(3) 0.1807(2) 0.0531(2)
H1 H 0.143(6) 0.136(5) -0.006(4)
H2 H -0.003(7) 0.138(5) 0.080(4)
O2 O 0.1000(3) 0.0073(2) 0.3421(2)
H3 H 0.147(5) -0.054(5) 0.407(4)
H4 H 0.000(6) 0.019(5) 0.359(4)
O3 O 0.2071(3) 0.5426(2) 0.0424(2)
H5 H 0.136(7) 0.600(6) 0.047(5)
H6 H 0.203(6) 0.544(5) -0.020(5)
O4 O 0.4755(3) 0.2776(2) 0.01123(19)
H7 H 0.509(6) 0.214(5) -0.019(4)
H8 H 0.564(5) 0.334(4) -0.004(4)
O5 O 0.2858(2) 0.17962(19) 0.48464(17)
H9 H 0.3173 0.0929 0.5406
O6 O 0.1908(2) 0.46681(19) 0.33217(16)
H10 H 0.1606 0.5612 0.2920
O7 O 0.4701(3) -0.0166(2) 0.69606(18)
O8 O 0.5302(3) 0.0879(2) 0.85295(18)
O9 O 0.2150(3) 0.0307(2) 0.8452(2)
O10 O 0.4318(2) 0.6493(2) 0.75614(17)
O11 O 0.0936(2) 0.6648(2) 0.77307(18)
O12 O 0.2514(3) 0.8285(2) 0.57621(18)
C1 C 0.3356(3) 0.2647(3) 0.6591(2)
C2 C 0.2880(3) 0.2921(3) 0.5344(2)
C3 C 0.2364(3) 0.4446(3) 0.4531(2)
C4 C 0.2304(3) 0.5652(3) 0.4964(2)
H11 H 0.1941 0.6681 0.4411
C5 C 0.2780(3) 0.5351(3) 0.6213(2)
C6 C 0.3310(3) 0.3853(3) 0.7031(2)
H12 H 0.3638 0.3654 0.7882
O7A O 0.5299(3) 0.0166(2) 0.30394(18)
Sr1A Sr 0.73429(3) -0.25697(2) 0.78198(2)
O10A O 0.5682(2) 0.3507(2) 0.24386(17)
Sr1A_2 Sr 0.73429(3) 0.74303(2) 0.78198(2)
O11A O -0.0936(2) 0.3352(2) 0.22693(18)
Sr1A_3 Sr -0.26571(3) 0.74303(2) 0.78198(2)
O13 O 0.1365(3) 0.7656(2) 0.1927(2)
H13 H 0.225(6) 0.807(5) 0.190(4)
H14 H 0.037(5) 0.823(4) 0.200(4)
loop_
_geom_bond_atom_site_label_1
_geom_bond_atom_site_label_2
_geom_bond_site_symmetry_1
_geom_bond_site_symmetry_2
Sr1 O1 1_555 1_555
S1 O7 1_555 1_555
S2 O10 1_555 1_555
O1 H1 1_555 1_555
H2 O1 1_555 1_555
O2 Sr1 1_555 1_555
H3 O2 1_555 1_555
H4 O2 1_555 1_555
O3 Sr1 1_555 1_555
H5 O3 1_555 1_555
H6 O3 1_555 1_555
O4 Sr1 1_555 1_555
H7 O4 1_555 1_555
H8 O4 1_555 1_555
O5 Sr1 1_555 1_555
H9 O5 1_555 1_555
O6 Sr1 1_555 1_555
H10 O6 1_555 1_555
O7 Sr1A 1_555 1_555
O8 S1 1_555 1_555
O9 S1 1_555 1_555
O10 Sr1A_2 1_555 1_555
O11 S2 1_555 1_555
O12 S2 1_555 1_555
C1 S1 1_555 1_555
C2 O5 1_555 1_555
C3 O6 1_555 1_555
C4 C3 1_555 1_555
H11 C4 1_555 1_555
C5 S2 1_555 1_555
C6 C1 1_555 1_555
H12 C6 1_555 1_555
O13 H13 1_555 1_555
H14 O13 1_555 1_555
O7A Sr1 1_555 1_555
O10A Sr1 1_555 1_555
O11A Sr1 1_555 1_555
Sr1A_3 O11 1_555 1_555
C1 C2 1_555 1_555
C2 C3 1_555 1_555
C4 C5 1_555 1_555
C5 C6 1_555 1_555

#END
