
#######################################################################
#
#                 Cambridge Crystallographic Data Centre
#                                CCDC 
#
#######################################################################
#
# If this CIF has been generated from an entry in the Cambridge 
# Structural Database, then it will include bibliographic, chemical, 
# crystal, experimental, refinement or atomic coordinate data resulting 
# from the CCDC's data processing and validation procedures.
#
#######################################################################

data_OMAXEG
_symmetry_cell_setting           orthorhombic
_symmetry_space_group_name_H-M   'P n a 21'
_symmetry_Int_Tables_number      33
_space_group_name_Hall           'P 2c -2n'
loop_
_symmetry_equiv_pos_site_id
_symmetry_equiv_pos_as_xyz
1 x,y,z
2 -x,-y,1/2+z
3 1/2+x,1/2-y,z
4 1/2-x,1/2+y,1/2+z
_cell_length_a                   12.178(5)
_cell_length_b                   8.010(3)
_cell_length_c                   14.622(6)
_cell_angle_alpha                90
_cell_angle_beta                 90
_cell_angle_gamma                90
_cell_volume                     1426.31
loop_
_atom_site_label
_atom_site_type_symbol
_atom_site_fract_x
_atom_site_fract_y
_atom_site_fract_z
Ag1 Ag 0.43148(6) 0.06437(9) 0.31881(5)
S1 S 0.6896(2) 0.0581(3) 0.42348(16)
O1 O 0.6557(7) 0.1622(8) 0.3500(5)
O2 O 0.7943(6) 0.0831(9) 0.4653(6)
N1 N 0.5356(7) 0.0382(10) 0.6647(6)
N2 N 0.4825(6) 0.0761(9) 0.4782(6)
N3 N 0.7673(7) -0.4073(9) 0.3485(6)
N4 N 0.5855(6) -0.1944(9) 0.3486(5)
C1 C 0.6135(9) 0.0456(12) 0.5984(7)
H1 H 0.6871 0.0402 0.6151
C2 C 0.5876(8) 0.0603(10) 0.5100(7)
C3 C 0.4059(8) 0.0685(11) 0.5457(7)
H2 H 0.3321 0.0778 0.5303
C4 C 0.4336(9) 0.0478(13) 0.6348(8)
H3 H 0.3772 0.0400 0.6775
C5 C 0.6821(7) -0.1472(11) 0.3839(6)
C6 C 0.7724(8) -0.2541(11) 0.3865(6)
H4 H 0.8370 -0.2194 0.4147
C7 C 0.6718(8) -0.4539(10) 0.3133(10)
H5 H 0.6651 -0.5603 0.2884
C8 C 0.5815(7) -0.3476(11) 0.3125(8)
H6 H 0.5163 -0.3843 0.2862
C9 C 0.4598(10) 0.4551(13) 0.0811(8)
F1 F 0.5421(7) 0.5510(9) 0.1129(6)
F2 F 0.4165(9) 0.5320(11) 0.0141(6)
F3 F 0.5069(7) 0.3148(8) 0.0501(5)
S2 S 0.3640(2) 0.4070(3) 0.1732(2)
O3 O 0.4314(6) 0.3327(10) 0.2429(5)
O4 O 0.3242(7) 0.5729(9) 0.1980(7)
O5 O 0.2860(6) 0.3010(10) 0.1307(7)
Ag1A Ag 0.56852(6) -0.06437(9) 0.81881(5)
Ag1B Ag 0.93148(6) -0.56437(9) 0.31881(5)
N1A N 0.4644(7) -0.0382(10) 0.1647(6)
N3B N 0.2673(7) -0.0927(9) 0.3485(6)
loop_
_geom_bond_atom_site_label_1
_geom_bond_atom_site_label_2
_geom_bond_site_symmetry_1
_geom_bond_site_symmetry_2
Ag1 N2 1_555 1_555
S1 O1 1_555 1_555
O2 S1 1_555 1_555
N1 C1 1_555 1_555
N2 C2 1_555 1_555
N3 C6 1_555 1_555
N4 C5 1_555 1_555
C1 H1 1_555 1_555
C2 S1 1_555 1_555
C3 N2 1_555 1_555
H2 C3 1_555 1_555
C4 N1 1_555 1_555
H3 C4 1_555 1_555
C5 S1 1_555 1_555
C6 C5 1_555 1_555
H4 C6 1_555 1_555
C7 N3 1_555 1_555
H5 C7 1_555 1_555
C8 N4 1_555 1_555
H6 C8 1_555 1_555
C9 F1 1_555 1_555
F2 C9 1_555 1_555
F3 C9 1_555 1_555
S2 C9 1_555 1_555
O3 Ag1 1_555 1_555
O4 S2 1_555 1_555
O5 S2 1_555 1_555
Ag1A N1 1_555 1_555
Ag1B N3 1_555 1_555
N1A Ag1 1_555 1_555
N3B Ag1 1_555 1_555
C1 C2 1_555 1_555
C3 C4 1_555 1_555
C7 C8 1_555 1_555
S2 O3 1_555 1_555

#END
