
#######################################################################
#
#                 Cambridge Crystallographic Data Centre
#                                CCDC 
#
#######################################################################
#
# If this CIF has been generated from an entry in the Cambridge 
# Structural Database, then it will include bibliographic, chemical, 
# crystal, experimental, refinement or atomic coordinate data resulting 
# from the CCDC's data processing and validation procedures.
#
#######################################################################

data_OMEBEO
_symmetry_cell_setting           monoclinic
_symmetry_space_group_name_H-M   'P 21/c'
_symmetry_Int_Tables_number      14
_space_group_name_Hall           '-P 2ybc'
loop_
_symmetry_equiv_pos_site_id
_symmetry_equiv_pos_as_xyz
1 x,y,z
2 -x,1/2+y,1/2-z
3 -x,-y,-z
4 x,1/2-y,1/2+z
_cell_length_a                   9.2422(18)
_cell_length_b                   14.546(3)
_cell_length_c                   18.867(4)
_cell_angle_alpha                90
_cell_angle_beta                 102.24(3)
_cell_angle_gamma                90
_cell_volume                     2478.77
loop_
_atom_site_label
_atom_site_type_symbol
_atom_site_fract_x
_atom_site_fract_y
_atom_site_fract_z
C1 C 0.1664(5) 1.5797(3) 0.1395(3)
C2 C 0.2247(4) 1.4850(3) 0.1301(2)
C3 C 0.3203(5) 1.4427(3) 0.1879(2)
H1 H 0.3413 1.4712 0.2330
C4 C 0.3840(5) 1.3592(3) 0.1791(3)
H2 H 0.4511 1.3326 0.2173
C5 C 0.3473(5) 1.3154(3) 0.1129(3)
C6 C 0.2513(5) 1.3549(3) 0.0555(3)
H3 H 0.2268 1.3246 0.0112
C7 C 0.1914(4) 1.4399(3) 0.0641(2)
H4 H 0.1278 1.4673 0.0250
C8 C 0.3636(5) 1.1539(3) 0.1277(2)
C9 C 0.2375(4) 1.1502(3) 0.1552(2)
H5 H 0.1853 1.2036 0.1603
C10 C 0.1893(4) 1.0659(3) 0.1753(2)
H6 H 0.1042 1.0632 0.1942
C11 C 0.2645(5) 0.9855(3) 0.1679(2)
C12 C 0.4413(4) 1.0743(3) 0.1205(2)
H7 H 0.5265 1.0771 0.1019
C13 C 0.3923(4) 0.9913(3) 0.1410(2)
H8 H 0.4458 0.9382 0.1367
C14 C 0.2006(5) 0.8961(3) 0.1832(2)
C15 C -0.1877(5) 1.6524(3) 0.1544(2)
H9 H -0.1438 1.5951 0.1531
C16 C -0.3548(5) 1.7569(3) 0.1516(3)
H10 H -0.4449 1.7868 0.1484
C17 C -0.2191(5) 1.7964(3) 0.1631(3)
H11 H -0.2004 1.8591 0.1688
C18 C -0.4476(5) 1.5937(3) 0.1390(3)
H12 H -0.5397 1.6212 0.1452
H13 H -0.4176 1.5491 0.1776
C19 C -0.4741(5) 1.5446(3) 0.0670(2)
C20 C -0.5639(5) 1.5839(3) 0.0064(3)
H14 H -0.6073 1.6408 0.0103
C21 C -0.4106(5) 1.4608(3) 0.0598(3)
H15 H -0.3496 1.4337 0.0999
C22 C 0.1757(5) 1.6792(3) 0.3605(2)
H16 H 0.2112 1.6229 0.3482
C23 C 0.1082(5) 1.7878(4) 0.4250(3)
H17 H 0.0885 1.8217 0.4637
C24 C 0.0820(5) 1.8137(3) 0.3547(3)
H18 H 0.0403 1.8693 0.3366
C25 C 0.2116(6) 1.6451(4) 0.4926(3)
H19 H 0.2219 1.6833 0.5355
H20 H 0.3074 1.6179 0.4927
C26 C 0.1028(5) 1.5700(4) 0.4965(2)
C27 C 0.1272(5) 1.4809(5) 0.4762(3)
H21 H 0.2131 1.4674 0.4599
C28 C -0.0269(6) 1.5886(4) 0.5205(2)
H22 H -0.0459 1.6480 0.5343
Co1 Co 0.10961(6) 1.73849(4) 0.20402(3)
N1 N -0.1139(4) 1.7298(2) 0.16504(19)
N2 N -0.3338(4) 1.6656(3) 0.14579(19)
N3 N 0.1267(3) 1.7446(2) 0.31373(18)
N4 N 0.1684(4) 1.7032(3) 0.4280(2)
O1 O 0.1826(3) 1.61016(19) 0.20377(17)
O2 O 0.1074(3) 1.6248(2) 0.08524(16)
O3 O 0.2647(3) 0.82101(19) 0.17242(15)
O4 O 0.0839(3) 0.89319(19) 0.20579(17)
O5 O 0.4168(3) 1.2329(2) 0.10224(18)
C1_2 C 0.1664(5) 2.5797(3) 0.1395(3)
C2_2 C 0.2247(4) 2.4850(3) 0.1301(2)
C3_2 C 0.3203(5) 2.4427(3) 0.1879(2)
H1_2 H 0.3413 2.4712 0.2330
C4_2 C 0.3840(5) 2.3592(3) 0.1791(3)
H2_2 H 0.4511 2.3326 0.2173
C5_2 C 0.3473(5) 2.3154(3) 0.1129(3)
C6_2 C 0.2513(5) 2.3549(3) 0.0555(3)
H3_2 H 0.2268 2.3246 0.0112
C7_2 C 0.1914(4) 2.4399(3) 0.0641(2)
H4_2 H 0.1278 2.4673 0.0250
C8_2 C 0.3636(5) 2.1539(3) 0.1277(2)
C9_2 C 0.2375(4) 2.1502(3) 0.1552(2)
H5_2 H 0.1853 2.2036 0.1603
C10_2 C 0.1893(4) 2.0659(3) 0.1753(2)
H6_2 H 0.1042 2.0632 0.1942
C11_2 C 0.2645(5) 1.9855(3) 0.1679(2)
C12_2 C 0.4413(4) 2.0743(3) 0.1205(2)
H7_2 H 0.5265 2.0771 0.1019
C13_2 C 0.3923(4) 1.9913(3) 0.1410(2)
H8_2 H 0.4458 1.9382 0.1367
C14_2 C 0.2006(5) 1.8961(3) 0.1832(2)
C15B C -0.8123(5) 1.3476(3) -0.1544(2)
H9B H -0.8562 1.4049 -0.1531
C16B C -0.6452(5) 1.2431(3) -0.1516(3)
H10B H -0.5551 1.2132 -0.1484
C17B C -0.7809(5) 1.2036(3) -0.1631(3)
H11B H -0.7996 1.1409 -0.1688
C18B C -0.5524(5) 1.4063(3) -0.1390(3)
H12B H -0.4603 1.3788 -0.1452
H13B H -0.5824 1.4509 -0.1776
C19B C -0.5259(5) 1.4554(3) -0.0670(2)
C20B C -0.4361(5) 1.4161(3) -0.0064(3)
H14B H -0.3927 1.3592 -0.0103
C21B C -0.5894(5) 1.5392(3) -0.0598(3)
H15B H -0.6504 1.5663 -0.0999
C22B C -0.1757(5) 1.3208(3) 0.6395(2)
H16B H -0.2112 1.3771 0.6518
C23B C -0.1082(5) 1.2122(4) 0.5750(3)
H17B H -0.0885 1.1783 0.5363
C24B C -0.0820(5) 1.1863(3) 0.6453(3)
H18B H -0.0403 1.1307 0.6634
C25B C -0.2116(6) 1.3549(4) 0.5074(3)
H19B H -0.2219 1.3167 0.4645
H20B H -0.3074 1.3821 0.5073
C26B C -0.1028(5) 1.4300(4) 0.5035(2)
C27B C -0.1272(5) 1.5191(5) 0.5238(3)
H21B H -0.2131 1.5326 0.5401
C28B C 0.0269(6) 1.4114(4) 0.4795(2)
H22B H 0.0459 1.3520 0.4657
Co1B Co -1.10961(6) 1.26151(4) -0.20402(3)
Co1_2 Co 0.10961(6) 0.73849(4) 0.20402(3)
Co1B_2 Co -0.10961(6) 1.26151(4) 0.79598(3)
Co1_3 Co 0.10961(6) 2.73849(4) 0.20402(3)
N1B N -0.8861(4) 1.2702(2) -0.16504(19)
N2B N -0.6662(4) 1.3344(3) -0.14579(19)
N3B N -0.1267(3) 1.2554(2) 0.68627(18)
N3B_2 N -1.1267(3) 1.2554(2) -0.31373(18)
N4B N -0.1684(4) 1.2968(3) 0.5720(2)
O1_2 O 0.1826(3) 2.61016(19) 0.20377(17)
O1B O -1.1826(3) 1.38984(19) -0.20377(17)
O2_2 O 0.1074(3) 2.6248(2) 0.08524(16)
O3_2 O 0.2647(3) 1.82101(19) 0.17242(15)
O3B O -1.2647(3) 1.17899(19) -0.17242(15)
O4_2 O 0.0839(3) 1.89319(19) 0.20579(17)
O4B O -1.0839(3) 1.10681(19) -0.20579(17)
O5_2 O 0.4168(3) 2.2329(2) 0.10224(18)
loop_
_geom_bond_atom_site_label_1
_geom_bond_atom_site_label_2
_geom_bond_site_symmetry_1
_geom_bond_site_symmetry_2
C1 C2 1_555 1_555
C2 C3 1_555 1_555
C3 H1 1_555 1_555
C4 C3 1_555 1_555
H2 C4 1_555 1_555
C5 C4 1_555 1_555
C6 C5 1_555 1_555
H3 C6 1_555 1_555
C7 C2 1_555 1_555
H4 C7 1_555 1_555
C8 C9 1_555 1_555
C9 H5 1_555 1_555
C10 C9 1_555 1_555
H6 C10 1_555 1_555
C11 C10 1_555 1_555
C12 C8 1_555 1_555
H7 C12 1_555 1_555
C13 C11 1_555 1_555
H8 C13 1_555 1_555
C14 C11 1_555 1_555
C15 H9 1_555 1_555
C16 H10 1_555 1_555
C17 C16 1_555 1_555
H11 C17 1_555 1_555
C18 H12 1_555 1_555
H13 C18 1_555 1_555
C19 C18 1_555 1_555
C20 C19 1_555 1_555
H14 C20 1_555 1_555
C21 C19 1_555 1_555
H15 C21 1_555 1_555
C22 H16 1_555 1_555
C23 H17 1_555 1_555
C24 C23 1_555 1_555
H18 C24 1_555 1_555
C25 H19 1_555 1_555
H20 C25 1_555 1_555
C26 C25 1_555 1_555
C27 C26 1_555 1_555
H21 C27 1_555 1_555
C28 C26 1_555 1_555
H22 C28 1_555 1_555
Co1 N1 1_555 1_555
N1 C15 1_555 1_555
N2 C15 1_555 1_555
N3 C22 1_555 1_555
N4 C22 1_555 1_555
O1 C1 1_555 1_555
O2 C1 1_555 1_555
O3 C14 1_555 1_555
O4 C14 1_555 1_555
O5 C5 1_555 1_555
C1_2 C2_2 1_555 1_555
C2_2 C3_2 1_555 1_555
C3_2 H1_2 1_555 1_555
C4_2 C3_2 1_555 1_555
H2_2 C4_2 1_555 1_555
C5_2 C4_2 1_555 1_555
C6_2 C5_2 1_555 1_555
H3_2 C6_2 1_555 1_555
C7_2 C2_2 1_555 1_555
H4_2 C7_2 1_555 1_555
C8_2 C9_2 1_555 1_555
C9_2 H5_2 1_555 1_555
C10_2 C9_2 1_555 1_555
H6_2 C10_2 1_555 1_555
C11_2 C10_2 1_555 1_555
C12_2 C8_2 1_555 1_555
H7_2 C12_2 1_555 1_555
C13_2 C11_2 1_555 1_555
H8_2 C13_2 1_555 1_555
C14_2 C11_2 1_555 1_555
C15B H9B 1_555 1_555
C16B H10B 1_555 1_555
C17B C16B 1_555 1_555
H11B C17B 1_555 1_555
C18B H12B 1_555 1_555
H13B C18B 1_555 1_555
C19B C18B 1_555 1_555
C20B C21 1_555 1_555
H14B C20B 1_555 1_555
C21B C20 1_555 1_555
H15B C21B 1_555 1_555
C22B H16B 1_555 1_555
C23B H17B 1_555 1_555
C24B C23B 1_555 1_555
H18B C24B 1_555 1_555
C25B H19B 1_555 1_555
H20B C25B 1_555 1_555
C26B C25B 1_555 1_555
C27B C28 1_555 1_555
H21B C27B 1_555 1_555
C28B C27 1_555 1_555
H22B C28B 1_555 1_555
Co1B N1B 1_555 1_555
Co1_2 O3 1_555 1_555
Co1B_2 N3B 1_555 1_555
Co1_3 O1_2 1_555 1_555
N1B C15B 1_555 1_555
N2B C15B 1_555 1_555
N3B C22B 1_555 1_555
N3B_2 Co1B 1_555 1_555
N4B C22B 1_555 1_555
O1_2 C1_2 1_555 1_555
O1B Co1B 1_555 1_555
O2_2 C1_2 1_555 1_555
O3_2 Co1 1_555 1_555
O3B Co1B 1_555 1_555
O4_2 Co1 1_555 1_555
O4B Co1B 1_555 1_555
O5_2 C5_2 1_555 1_555
C6 C7 1_555 1_555
C8 O5 1_555 1_555
C12 C13 1_555 1_555
C16 N2 1_555 1_555
C17 N1 1_555 1_555
C18 N2 1_555 1_555
C23 N4 1_555 1_555
C24 N3 1_555 1_555
C25 N4 1_555 1_555
Co1 N3 1_555 1_555
Co1 O1 1_555 1_555
O4 Co1_2 1_555 1_555
C6_2 C7_2 1_555 1_555
C8_2 O5_2 1_555 1_555
C12_2 C13_2 1_555 1_555
C14_2 O3_2 1_555 1_555
C14_2 O4_2 1_555 1_555
C16B N2B 1_555 1_555
C17B N1B 1_555 1_555
C18B N2B 1_555 1_555
C19B C20B 1_555 1_555
C19B C21B 1_555 1_555
C23B N4B 1_555 1_555
C24B N3B 1_555 1_555
C25B N4B 1_555 1_555
C26B C27B 1_555 1_555
C26B C28B 1_555 1_555

#END
