
#######################################################################
#
#                 Cambridge Crystallographic Data Centre
#                                CCDC 
#
#######################################################################
#
# If this CIF has been generated from an entry in the Cambridge 
# Structural Database, then it will include bibliographic, chemical, 
# crystal, experimental, refinement or atomic coordinate data resulting 
# from the CCDC's data processing and validation procedures.
#
#######################################################################

data_OMEDOZ
_symmetry_cell_setting           monoclinic
_symmetry_space_group_name_H-M   'P 21'
_symmetry_Int_Tables_number      4
_space_group_name_Hall           'P 2yb'
loop_
_symmetry_equiv_pos_site_id
_symmetry_equiv_pos_as_xyz
1 x,y,z
2 -x,1/2+y,-z
_cell_length_a                   10.454(2)
_cell_length_b                   6.3740(13)
_cell_length_c                   12.338(3)
_cell_angle_alpha                90
_cell_angle_beta                 98.96(3)
_cell_angle_gamma                90
_cell_volume                     812.096
loop_
_atom_site_label
_atom_site_type_symbol
_atom_site_fract_x
_atom_site_fract_y
_atom_site_fract_z
Tl1 Tl 0.76319(2) 0.83033(13) 0.74675(2)
N1 N 0.6466(6) 0.4712(10) 0.6554(6)
N2 N 0.6797(6) 0.7021(10) 0.9269(5)
C1 C 0.7403(7) 0.6596(12) 1.0289(7)
C2 C 0.6546(6) 0.321(3) 0.5799(5)
C3 C 0.7512(6) 0.331(3) 0.5041(5)
N3 N 0.5454(7) 0.4148(11) 0.7051(6)
C4 C 0.4925(9) 0.2352(14) 0.6613(9)
H1 H 0.4200 0.1654 0.6825
C5 C 0.6872(8) 0.4820(13) 1.0717(7)
H2 H 0.7118 0.4186 1.1415
N4 N 0.5897(6) 0.5531(11) 0.9027(6)
C6 C 0.5604(8) 0.1699(13) 0.5810(7)
H3 H 0.5459 0.0482 0.5364
C7 C 0.5900(8) 0.4204(13) 0.9876(7)
H4 H 0.5334 0.3044 0.9897
N5 N 0.9326(7) 0.358(2) 0.3565(5)
C8 C 0.8458(7) 0.7973(14) 1.0792(6)
C9 C 0.9574(7) 1.1280(12) 1.0924(6)
H5 H 0.9606 1.2693 1.0685
C10 C 0.8543(7) 1.0040(13) 1.0470(7)
H6 H 0.7886 1.0613 0.9933
C11 C 0.7611(8) 0.1807(14) 0.4261(8)
H7 H 0.7051 0.0625 0.4209
C12 C 0.8371(9) 0.5056(14) 0.5054(8)
H8 H 0.8358 0.6172 0.5562
C13 C 0.8490(9) 0.1972(15) 0.3565(7)
H9 H 0.8517 0.0884 0.3043
C14 C 0.9224(9) 0.5066(15) 0.4301(8)
H10 H 0.9785 0.6241 0.4310
C15 C 1.0430(7) 0.854(2) 1.2017(6)
H11 H 1.1099 0.7987 1.2552
C16 C 0.9422(8) 0.7242(13) 1.1624(7)
H12 H 0.9375 0.5865 1.1910
B1 B 0.4940(8) 0.5568(15) 0.7929(8)
N6 N 1.0535(6) 1.0568(11) 1.1690(6)
H13 H 0.403(8) 0.503(13) 0.807(7)
H14 H 0.485(8) 0.720(14) 0.761(8)
N6A N 0.9465(6) 0.5568(11) 0.8310(6)
Tl1A Tl 1.23681(2) 1.33033(13) 1.25325(2)
loop_
_geom_bond_atom_site_label_1
_geom_bond_atom_site_label_2
_geom_bond_site_symmetry_1
_geom_bond_site_symmetry_2
Tl1 N1 1_555 1_555
N1 C2 1_555 1_555
N2 Tl1 1_555 1_555
C1 N2 1_555 1_555
C2 C3 1_555 1_555
C3 C11 1_555 1_555
N3 N1 1_555 1_555
C4 N3 1_555 1_555
H1 C4 1_555 1_555
C5 C1 1_555 1_555
H2 C5 1_555 1_555
N4 N2 1_555 1_555
C6 C2 1_555 1_555
H3 C6 1_555 1_555
C7 C5 1_555 1_555
H4 C7 1_555 1_555
N5 C13 1_555 1_555
C8 C1 1_555 1_555
C9 H5 1_555 1_555
C10 C8 1_555 1_555
H6 C10 1_555 1_555
C11 H7 1_555 1_555
C12 C3 1_555 1_555
H8 C12 1_555 1_555
C13 C11 1_555 1_555
H9 C13 1_555 1_555
C14 N5 1_555 1_555
H10 C14 1_555 1_555
C15 H11 1_555 1_555
C16 C8 1_555 1_555
H12 C16 1_555 1_555
B1 N3 1_555 1_555
N6 C9 1_555 1_555
H13 B1 1_555 1_555
H14 B1 1_555 1_555
N6A Tl1 1_555 1_555
Tl1A N6 1_555 1_555
C4 C6 1_555 1_555
N4 B1 1_555 1_555
N4 C7 1_555 1_555
C9 C10 1_555 1_555
C12 C14 1_555 1_555
C15 N6 1_555 1_555
C15 C16 1_555 1_555

#END
