
#######################################################################
#
#                 Cambridge Crystallographic Data Centre
#                                CCDC 
#
#######################################################################
#
# If this CIF has been generated from an entry in the Cambridge 
# Structural Database, then it will include bibliographic, chemical, 
# crystal, experimental, refinement or atomic coordinate data resulting 
# from the CCDC's data processing and validation procedures.
#
#######################################################################

data_OMETAC
_symmetry_cell_setting           triclinic
_symmetry_space_group_name_H-M   'P -1'
_symmetry_Int_Tables_number      2
_space_group_name_Hall           '-P 1'
loop_
_symmetry_equiv_pos_site_id
_symmetry_equiv_pos_as_xyz
1 x,y,z
2 -x,-y,-z
_cell_length_a                   9.651(5)
_cell_length_b                   10.462(5)
_cell_length_c                   15.876(9)
_cell_angle_alpha                95.288(17)
_cell_angle_beta                 107.099(9)
_cell_angle_gamma                94.983(11)
_cell_volume                     1514.63
loop_
_atom_site_label
_atom_site_type_symbol
_atom_site_fract_x
_atom_site_fract_y
_atom_site_fract_z
Ni1 Ni 0.16229(5) 0.37657(4) 0.49547(3)
C1 C -0.1039(4) 0.3784(3) 0.5764(2)
C2 C -0.1444(4) 0.2688(3) 0.6226(2)
C3 C -0.0578(4) 0.1685(3) 0.6377(2)
H1 H 0.0249 0.1693 0.6190
C4 C -0.0952(4) 0.0667(4) 0.6812(3)
H2 H -0.0367 0.0002 0.6922
C5 C -0.2201(4) 0.0653(3) 0.7079(2)
C6 C -0.2648(5) -0.0426(4) 0.7532(3)
C7 C -0.3071(4) 0.1641(3) 0.6918(2)
H3 H -0.3907 0.1624 0.7097
C8 C -0.2703(4) 0.2658(3) 0.6492(3)
H4 H -0.3294 0.3319 0.6383
C9 C 0.3051(4) 0.1967(3) 0.4898(2)
C10 C 0.4054(4) 0.0945(3) 0.4939(2)
C11 C 0.3869(4) -0.0131(3) 0.5374(2)
H5 H 0.3120 -0.0215 0.5630
C12 C 0.5195(4) 0.1069(3) 0.4580(3)
H6 H 0.5336 0.1794 0.4303
C13 C 0.0112(4) 0.3410(4) 0.2999(3)
H7 H 0.1002 0.3849 0.3015
C14 C -0.0953(4) 0.3136(4) 0.2194(3)
H8 H -0.0769 0.3367 0.1682
C15 C -0.2318(4) 0.2508(3) 0.2149(3)
C16 C -0.2479(4) 0.2143(4) 0.2934(3)
H9 H -0.3354 0.1697 0.2937
C17 C -0.1342(4) 0.2440(4) 0.3711(3)
H10 H -0.1477 0.2180 0.4229
C18 C -0.3460(4) 0.2240(4) 0.1282(3)
C19 C -0.4614(4) 0.2061(4) -0.0113(3)
C20 C -0.5033(5) 0.2055(4) -0.1033(3)
H11 H -0.4409 0.2433 -0.1313
C21 C -0.6408(6) 0.1467(4) -0.1508(3)
H12 H -0.6716 0.1450 -0.2122
C22 C -0.7349(5) 0.0900(4) -0.1099(3)
H13 H -0.8274 0.0527 -0.1447
C23 C -0.6960(5) 0.0872(4) -0.0188(3)
H14 H -0.7586 0.0484 0.0087
C24 C -0.5563(4) 0.1464(4) 0.0286(3)
C25 C 0.4427(4) 0.5315(3) 0.6145(3)
H15 H 0.4484 0.5554 0.5606
C26 C 0.5553(4) 0.5777(4) 0.6906(3)
H16 H 0.6354 0.6310 0.6873
C27 C 0.5489(4) 0.5446(4) 0.7721(3)
C28 C 0.4245(4) 0.4664(4) 0.7731(3)
H17 H 0.4141 0.4438 0.8264
C29 C 0.3170(4) 0.4230(4) 0.6937(3)
H18 H 0.2352 0.3702 0.6952
C30 C 0.6699(4) 0.5875(4) 0.8534(3)
C31 C 0.8685(4) 0.6860(4) 0.9469(3)
C32 C 0.9997(5) 0.7659(4) 0.9900(3)
H19 H 1.0382 0.8267 0.9611
C33 C 1.0683(5) 0.7504(5) 1.0765(3)
H20 H 1.1562 0.8010 1.1065
C34 C 1.0102(6) 0.6608(5) 1.1215(3)
H21 H 1.0593 0.6541 1.1805
C35 C 0.8808(5) 0.5824(4) 1.0792(3)
H22 H 0.8409 0.5228 1.1082
C36 C 0.8139(4) 0.5973(4) 0.9915(3)
N1 N -0.0053(3) 0.3083(3) 0.3760(2)
N2 N -0.3302(4) 0.2556(3) 0.0528(2)
N3 N -0.4806(3) 0.1590(3) 0.1175(2)
H23 H -0.5118 0.1312 0.1587
N4 N 0.3248(3) 0.4531(3) 0.6151(2)
N5 N 0.7770(3) 0.6793(3) 0.8603(2)
N6 N 0.6862(4) 0.5349(3) 0.9310(2)
H24 H 0.6282 0.4745 0.9404
O1 O 0.0203(3) 0.3873(2) 0.56674(18)
O2 O -0.1971(3) 0.4548(2) 0.55123(18)
O3 O -0.3810(3) -0.0528(3) 0.7687(2)
O4 O -0.1685(3) -0.1243(3) 0.7744(2)
H25 H -0.211(7) -0.203(6) 0.804(4)
O5 O 0.2070(3) 0.1872(2) 0.52792(19)
O6 O 0.3230(3) 0.2934(2) 0.45069(18)
Ni1A Ni -0.16229(5) 0.62343(4) 0.50453(3)
Ni1A_2 Ni 0.83771(5) -0.37657(4) 0.50453(3)
C1A C 0.1039(4) 0.6216(3) 0.4236(2)
C2A C 0.1444(4) 0.7312(3) 0.3774(2)
C3A C 0.0578(4) 0.8315(3) 0.3623(2)
H1A H -0.0249 0.8307 0.3810
C4A C 0.0952(4) 0.9333(4) 0.3188(3)
H2A H 0.0367 0.9998 0.3078
C5A C 0.2201(4) 0.9347(3) 0.2921(2)
C6A C 0.2648(5) 1.0426(4) 0.2468(3)
C7A C 0.3071(4) 0.8359(3) 0.3082(2)
H3A H 0.3907 0.8376 0.2903
C8A C 0.2703(4) 0.7342(3) 0.3508(3)
H4A H 0.3294 0.6681 0.3617
C9A C 0.6949(4) -0.1967(3) 0.5102(2)
C10A C 0.5946(4) -0.0945(3) 0.5061(2)
C11A C 0.6131(4) 0.0131(3) 0.4626(2)
H5A H 0.6880 0.0215 0.4370
C12A C 0.4805(4) -0.1069(3) 0.5420(3)
H6A H 0.4664 -0.1794 0.5697
C13A C -0.0112(4) 0.6590(4) 0.7001(3)
H7A H -0.1002 0.6151 0.6985
C14A C 0.0953(4) 0.6864(4) 0.7806(3)
H8A H 0.0769 0.6633 0.8318
C15A C 0.2318(4) 0.7492(3) 0.7851(3)
C16A C 0.2479(4) 0.7857(4) 0.7066(3)
H9A H 0.3354 0.8303 0.7063
C17A C 0.1342(4) 0.7560(4) 0.6289(3)
H10A H 0.1477 0.7820 0.5771
C18A C 0.3460(4) 0.7760(4) 0.8718(3)
C19A C 0.4614(4) 0.7939(4) 1.0113(3)
C20A C 0.5033(5) 0.7945(4) 1.1033(3)
H11A H 0.4409 0.7567 1.1313
C21A C 0.6408(6) 0.8533(4) 1.1508(3)
H12A H 0.6716 0.8550 1.2122
C22A C 0.7349(5) 0.9100(4) 1.1099(3)
H13A H 0.8274 0.9473 1.1447
C23A C 0.6960(5) 0.9128(4) 1.0188(3)
H14A H 0.7586 0.9516 0.9913
C24A C 0.5563(4) 0.8536(4) 0.9714(3)
C25A C -0.4427(4) 0.4685(3) 0.3855(3)
H15A H -0.4484 0.4446 0.4394
C26A C -0.5553(4) 0.4223(4) 0.3094(3)
H16A H -0.6354 0.3690 0.3127
C27A C -0.5489(4) 0.4554(4) 0.2279(3)
C28A C -0.4245(4) 0.5336(4) 0.2269(3)
H17A H -0.4141 0.5562 0.1736
C29A C -0.3170(4) 0.5770(4) 0.3063(3)
H18A H -0.2352 0.6298 0.3048
C30A C -0.6699(4) 0.4125(4) 0.1466(3)
C31A C -0.8685(4) 0.3140(4) 0.0531(3)
C32A C -0.9997(5) 0.2341(4) 0.0100(3)
H19A H -1.0382 0.1733 0.0389
C33A C -1.0683(5) 0.2496(5) -0.0765(3)
H20A H -1.1562 0.1990 -0.1065
C34A C -1.0102(6) 0.3392(5) -0.1215(3)
H21A H -1.0593 0.3459 -0.1805
C35A C -0.8808(5) 0.4176(4) -0.0792(3)
H22A H -0.8409 0.4772 -0.1082
C36A C -0.8139(4) 0.4027(4) 0.0085(3)
N1A N 0.0053(3) 0.6917(3) 0.6240(2)
N2A N 0.3302(4) 0.7444(3) 0.9472(2)
N3A N 0.4806(3) 0.8410(3) 0.8825(2)
H23A H 0.5118 0.8688 0.8413
N4A N -0.3248(3) 0.5469(3) 0.3849(2)
N5A N -0.7770(3) 0.3207(3) 0.1397(2)
N6A N -0.6862(4) 0.4651(3) 0.0690(2)
H24A H -0.6282 0.5255 0.0596
O1A O -0.0203(3) 0.6127(2) 0.43326(18)
O2A O 0.1971(3) 0.5452(2) 0.44877(18)
O3A O 0.3810(3) 1.0528(3) 0.2313(2)
O4A O 0.1685(3) 1.1243(3) 0.2256(2)
H25A H 0.211(7) 1.203(6) 0.196(4)
O5A O 0.7930(3) -0.1872(2) 0.47208(19)
O5A_2 O -0.2070(3) 0.8128(2) 0.47208(19)
O6A O 0.6770(3) -0.2934(2) 0.54931(18)
O6A_2 O -0.3230(3) 0.7066(2) 0.54931(18)
loop_
_geom_bond_atom_site_label_1
_geom_bond_atom_site_label_2
_geom_bond_site_symmetry_1
_geom_bond_site_symmetry_2
Ni1 N1 1_555 1_555
C1 C2 1_555 1_555
C2 C3 1_555 1_555
C3 H1 1_555 1_555
C4 C3 1_555 1_555
H2 C4 1_555 1_555
C5 C4 1_555 1_555
C6 C5 1_555 1_555
C7 C5 1_555 1_555
H3 C7 1_555 1_555
C8 C2 1_555 1_555
H4 C8 1_555 1_555
C9 C10 1_555 1_555
C10 C11 1_555 1_555
C11 H5 1_555 1_555
C12 C10 1_555 1_555
H6 C12 1_555 1_555
C13 H7 1_555 1_555
C14 C13 1_555 1_555
H8 C14 1_555 1_555
C15 C14 1_555 1_555
C16 C15 1_555 1_555
H9 C16 1_555 1_555
C17 C16 1_555 1_555
H10 C17 1_555 1_555
C18 C15 1_555 1_555
C19 C20 1_555 1_555
C20 H11 1_555 1_555
C21 C20 1_555 1_555
H12 C21 1_555 1_555
C22 C21 1_555 1_555
H13 C22 1_555 1_555
C23 C22 1_555 1_555
H14 C23 1_555 1_555
C24 C19 1_555 1_555
C25 H15 1_555 1_555
C26 C25 1_555 1_555
H16 C26 1_555 1_555
C27 C26 1_555 1_555
C28 C27 1_555 1_555
H17 C28 1_555 1_555
C29 C28 1_555 1_555
H18 C29 1_555 1_555
C30 C27 1_555 1_555
C31 C32 1_555 1_555
C32 H19 1_555 1_555
C33 C32 1_555 1_555
H20 C33 1_555 1_555
C34 C33 1_555 1_555
H21 C34 1_555 1_555
C35 C34 1_555 1_555
H22 C35 1_555 1_555
C36 C31 1_555 1_555
N1 C13 1_555 1_555
N2 C18 1_555 1_555
N3 C18 1_555 1_555
H23 N3 1_555 1_555
N4 Ni1 1_555 1_555
N5 C30 1_555 1_555
N6 C30 1_555 1_555
H24 N6 1_555 1_555
O1 Ni1 1_555 1_555
O2 C1 1_555 1_555
O3 C6 1_555 1_555
O4 C6 1_555 1_555
H25 O4 1_555 1_555
O5 Ni1 1_555 1_555
O6 Ni1 1_555 1_555
Ni1A O2 1_555 1_555
Ni1A_2 O5A 1_555 1_555
C1A C2A 1_555 1_555
C2A C3A 1_555 1_555
C3A H1A 1_555 1_555
C4A C3A 1_555 1_555
H2A C4A 1_555 1_555
C5A C4A 1_555 1_555
C6A C5A 1_555 1_555
C7A C5A 1_555 1_555
H3A C7A 1_555 1_555
C8A C2A 1_555 1_555
H4A C8A 1_555 1_555
C9A C10A 1_555 1_555
C10A C11A 1_555 1_555
C11A C12 1_555 1_555
H5A C11A 1_555 1_555
C12A C11 1_555 1_555
H6A C12A 1_555 1_555
C13A H7A 1_555 1_555
C14A C13A 1_555 1_555
H8A C14A 1_555 1_555
C15A C14A 1_555 1_555
C16A C15A 1_555 1_555
H9A C16A 1_555 1_555
C17A C16A 1_555 1_555
H10A C17A 1_555 1_555
C18A C15A 1_555 1_555
C19A C20A 1_555 1_555
C20A H11A 1_555 1_555
C21A C20A 1_555 1_555
H12A C21A 1_555 1_555
C22A C21A 1_555 1_555
H13A C22A 1_555 1_555
C23A C22A 1_555 1_555
H14A C23A 1_555 1_555
C24A C19A 1_555 1_555
C25A H15A 1_555 1_555
C26A C25A 1_555 1_555
H16A C26A 1_555 1_555
C27A C26A 1_555 1_555
C28A C27A 1_555 1_555
H17A C28A 1_555 1_555
C29A C28A 1_555 1_555
H18A C29A 1_555 1_555
C30A C27A 1_555 1_555
C31A C32A 1_555 1_555
C32A H19A 1_555 1_555
C33A C32A 1_555 1_555
H20A C33A 1_555 1_555
C34A C33A 1_555 1_555
H21A C34A 1_555 1_555
C35A C34A 1_555 1_555
H22A C35A 1_555 1_555
C36A C31A 1_555 1_555
N1A Ni1A 1_555 1_555
N2A C18A 1_555 1_555
N3A C18A 1_555 1_555
H23A N3A 1_555 1_555
N4A Ni1A 1_555 1_555
N5A C30A 1_555 1_555
N6A C30A 1_555 1_555
H24A N6A 1_555 1_555
O1A Ni1A 1_555 1_555
O2A Ni1 1_555 1_555
O3A C6A 1_555 1_555
O4A C6A 1_555 1_555
H25A O4A 1_555 1_555
O5A C9A 1_555 1_555
O5A_2 Ni1A 1_555 1_555
O6A Ni1A_2 1_555 1_555
O6A_2 Ni1A 1_555 1_555
C1 O1 1_555 1_555
C7 C8 1_555 1_555
C9 O5 1_555 1_555
C9 O6 1_555 1_555
C17 N1 1_555 1_555
C19 N2 1_555 1_555
C23 C24 1_555 1_555
C24 N3 1_555 1_555
C25 N4 1_555 1_555
C29 N4 1_555 1_555
C31 N5 1_555 1_555
C35 C36 1_555 1_555
C36 N6 1_555 1_555
C1A O1A 1_555 1_555
C1A O2A 1_555 1_555
C7A C8A 1_555 1_555
C9A O6A 1_555 1_555
C10A C12A 1_555 1_555
C13A N1A 1_555 1_555
C17A N1A 1_555 1_555
C19A N2A 1_555 1_555
C23A C24A 1_555 1_555
C24A N3A 1_555 1_555
C25A N4A 1_555 1_555
C29A N4A 1_555 1_555
C31A N5A 1_555 1_555
C35A C36A 1_555 1_555
C36A N6A 1_555 1_555

#END
