
#######################################################################
#
#                 Cambridge Crystallographic Data Centre
#                                CCDC 
#
#######################################################################
#
# If this CIF has been generated from an entry in the Cambridge 
# Structural Database, then it will include bibliographic, chemical, 
# crystal, experimental, refinement or atomic coordinate data resulting 
# from the CCDC's data processing and validation procedures.
#
#######################################################################

data_OMEWUZ
_symmetry_cell_setting           monoclinic
_symmetry_space_group_name_H-M   'C 2/c'
_symmetry_Int_Tables_number      15
_space_group_name_Hall           '-C 2yn'
loop_
_symmetry_equiv_pos_site_id
_symmetry_equiv_pos_as_xyz
1 x,y,z
2 -x,y,1/2-z
3 1/2+x,1/2+y,z
4 1/2-x,1/2+y,1/2-z
5 -x,-y,-z
6 x,-y,1/2+z
7 1/2-x,1/2-y,-z
8 1/2+x,1/2-y,1/2+z
_cell_length_a                   26.0856(16)
_cell_length_b                   11.9296(7)
_cell_length_c                   7.6285(5)
_cell_angle_alpha                90
_cell_angle_beta                 100.250(3)
_cell_angle_gamma                90
_cell_volume                     2336.03
loop_
_atom_site_label
_atom_site_type_symbol
_atom_site_fract_x
_atom_site_fract_y
_atom_site_fract_z
Ba1 Ba 0.057339(4) 0.783212(9) 1.060701(15)
O1 O 0.12589(7) 0.75181(18) 0.8378(2)
O2 O 0.10686(6) 0.61274(14) 0.6413(2)
O3 O 0.35077(5) 0.64850(13) 0.6632(2)
O4 O 0.43492(6) 0.50986(12) 0.41653(19)
O5 O 0.44969(5) 0.65753(12) 0.59797(18)
O6 O -0.00478(7) 0.60781(16) 0.9263(3)
H1 H 0.0003(16) 0.542(3) 0.973(11)
H2 H -0.0374(5) 0.622(3) 0.901(4)
O7 O 0.0000 0.87450(19) 0.7500
H3 H -0.0250(9) 0.918(2) 0.770(2)
O8 O 0.09814(9) 0.60508(15) 1.2585(3)
H4 H 0.1031(13) 0.5362(11) 1.237(3)
H5 H 0.0999(16) 0.616(2) 1.3704(17)
C1 C 0.19472(8) 0.66976(18) 0.7150(3)
C2 C 0.21138(8) 0.57981(19) 0.6260(3)
H6 H 0.1875 0.5251 0.5786
C3 C 0.26297(8) 0.56942(19) 0.6058(3)
H7 H 0.2736 0.5082 0.5458
C4 C 0.29858(7) 0.65133(18) 0.6760(3)
C5 C 0.28256(9) 0.7423(2) 0.7638(3)
H8 H 0.3063 0.7975 0.8098
C6 C 0.23094(9) 0.7510(2) 0.7833(3)
H9 H 0.2203 0.8124 0.8432
C7 C 0.13837(8) 0.6799(2) 0.7355(3)
C8 C 0.36537(8) 0.56707(18) 0.5451(3)
H10 H 0.3426 0.5733 0.4303
H11 H 0.3609 0.4927 0.5917
C9 C 0.42154(7) 0.58146(16) 0.5204(3)
Ba1C Ba 0.442661(4) 1.283212(9) 0.439299(15)
Ba1F Ba 0.442661(4) 0.716788(9) 0.939299(15)
Ba1C_2 Ba 0.442661(4) 0.283212(9) 0.439299(15)
Ba1G Ba 0.557339(4) 0.716788(9) 0.560701(15)
Ba1A Ba -0.057339(4) 0.783212(9) 0.439299(15)
Ba1E Ba 0.057339(4) 1.216788(9) 0.560701(15)
Ba1D Ba -0.057339(4) 1.216788(9) 0.939299(15)
O1C O 0.37411(7) 1.25181(18) 0.6622(2)
O2C O 0.39314(6) 1.11274(14) 0.8587(2)
O3C O 0.14923(5) 1.14850(13) 0.8368(2)
O3F O 0.14923(5) 0.85150(13) 1.3368(2)
O3E O 0.35077(5) 1.35150(13) 0.1632(2)
O4C O 0.06508(6) 1.00986(12) 1.08347(19)
O4_2 O 0.43492(6) 1.50986(12) 0.41653(19)
O5C O 0.05031(5) 1.15753(12) 0.90203(18)
O5G O -0.05031(5) 0.84247(12) 1.09797(18)
O5F O 0.05031(5) 0.84247(12) 1.40203(18)
O5D O 0.55031(5) 1.34247(12) 0.40203(18)
O5E O 0.44969(5) 1.34247(12) 0.09797(18)
O6C O 0.50478(7) 1.10781(16) 0.5737(3)
H1C H 0.4997(16) 1.042(3) 0.527(11)
H2C H 0.5374(5) 1.122(3) 0.599(4)
O7B O 0.5000 1.37450(19) 0.7500
H3A H 0.0250(9) 0.918(2) 0.730(2)
H3C H 0.5250(9) 1.418(2) 0.730(2)
H3B H 0.4750(9) 1.418(2) 0.770(2)
O8C O 0.40186(9) 1.10508(15) 0.2415(3)
H4C H 0.3969(13) 1.0362(11) 0.263(3)
H5C H 0.4001(16) 1.116(2) 0.1296(17)
C1C C 0.30528(8) 1.16976(18) 0.7850(3)
C2C C 0.28862(8) 1.07981(19) 0.8740(3)
H6C H 0.3125 1.0251 0.9214
C3C C 0.23703(8) 1.06942(19) 0.8942(3)
H7C H 0.2264 1.0082 0.9542
C4C C 0.20142(7) 1.15133(18) 0.8240(3)
C5C C 0.21744(9) 1.2423(2) 0.7362(3)
H8C H 0.1937 1.2975 0.6902
C6C C 0.26906(9) 1.2510(2) 0.7167(3)
H9C H 0.2797 1.3124 0.6568
C7C C 0.36163(8) 1.1799(2) 0.7645(3)
C8C C 0.13463(8) 1.06707(18) 0.9549(3)
H10C H 0.1574 1.0733 1.0697
H11C H 0.1391 0.9927 0.9083
C9C C 0.07846(7) 1.08146(16) 0.9796(3)
loop_
_geom_bond_atom_site_label_1
_geom_bond_atom_site_label_2
_geom_bond_site_symmetry_1
_geom_bond_site_symmetry_2
Ba1 O1 1_555 1_555
O1 C7 1_555 1_555
O2 C7 1_555 1_555
O3 C4 1_555 1_555
O4 C9 1_555 1_555
O5 C9 1_555 1_555
O6 Ba1 1_555 1_555
H1 O6 1_555 1_555
H2 O6 1_555 1_555
O7 Ba1 1_555 1_555
H3 O7 1_555 1_555
O8 Ba1 1_555 1_555
H4 O8 1_555 1_555
H5 O8 1_555 1_555
C1 C2 1_555 1_555
C2 H6 1_555 1_555
C3 C2 1_555 1_555
H7 C3 1_555 1_555
C4 C3 1_555 1_555
C5 C4 1_555 1_555
H8 C5 1_555 1_555
C6 C1 1_555 1_555
H9 C6 1_555 1_555
C7 C1 1_555 1_555
C8 O3 1_555 1_555
H10 C8 1_555 1_555
H11 C8 1_555 1_555
C9 C8 1_555 1_555
Ba1C O1C 1_555 1_555
Ba1F O3 1_555 1_555
Ba1C_2 O4 1_555 1_555
Ba1G O5 1_555 1_555
Ba1A O7 1_555 1_555
Ba1E O3C 1_555 1_555
Ba1D O5C 1_555 1_555
O1C C7C 1_555 1_555
O2C C7C 1_555 1_555
O3C C4C 1_555 1_555
O3F Ba1 1_555 1_555
O3E Ba1C 1_555 1_555
O4C Ba1 1_555 1_555
O4_2 Ba1C 1_555 1_555
O5C Ba1E 1_555 1_555
O5G Ba1 1_555 1_555
O5F Ba1 1_555 1_555
O5D Ba1C 1_555 1_555
O5E Ba1C 1_555 1_555
O6C Ba1C 1_555 1_555
H1C O6C 1_555 1_555
H2C O6C 1_555 1_555
O7B Ba1C 1_555 1_555
H3A O7 1_555 1_555
H3C O7B 1_555 1_555
H3B O7B 1_555 1_555
O8C Ba1C 1_555 1_555
H4C O8C 1_555 1_555
H5C O8C 1_555 1_555
C1C C2C 1_555 1_555
C2C H6C 1_555 1_555
C3C C2C 1_555 1_555
H7C C3C 1_555 1_555
C4C C3C 1_555 1_555
C5C C4C 1_555 1_555
H8C C5C 1_555 1_555
C6C C1C 1_555 1_555
H9C C6C 1_555 1_555
C7C C1C 1_555 1_555
C8C O3C 1_555 1_555
H10C C8C 1_555 1_555
H11C C8C 1_555 1_555
C9C O4C 1_555 1_555
O5 Ba1F 1_555 1_555
C5 C6 1_555 1_555
O5C C9C 1_555 1_555
C5C C6C 1_555 1_555
C8C C9C 1_555 1_555

#END
