
#######################################################################
#
#                 Cambridge Crystallographic Data Centre
#                                CCDC 
#
#######################################################################
#
# If this CIF has been generated from an entry in the Cambridge 
# Structural Database, then it will include bibliographic, chemical, 
# crystal, experimental, refinement or atomic coordinate data resulting 
# from the CCDC's data processing and validation procedures.
#
#######################################################################

data_OMEXEK
_symmetry_cell_setting           triclinic
_symmetry_space_group_name_H-M   'P -1'
_symmetry_Int_Tables_number      2
_space_group_name_Hall           '-P 1'
loop_
_symmetry_equiv_pos_site_id
_symmetry_equiv_pos_as_xyz
1 x,y,z
2 -x,-y,-z
_cell_length_a                   6.259(2)
_cell_length_b                   11.965(5)
_cell_length_c                   13.089(5)
_cell_angle_alpha                63.139(8)
_cell_angle_beta                 82.802(8)
_cell_angle_gamma                78.850(9)
_cell_volume                     857.149
loop_
_atom_site_label
_atom_site_type_symbol
_atom_site_fract_x
_atom_site_fract_y
_atom_site_fract_z
Dy1 Dy 0.48587(11) 1.14983(6) 0.25338(6)
C1 C 0.684(2) 0.7476(14) 0.4162(11)
C2 C 0.717(2) 0.6935(14) 0.3361(13)
H1 H 0.7128 0.7438 0.2574
C3 C 0.755(2) 0.5654(14) 0.3818(15)
C4 C 0.750(2) 0.4905(13) 0.5004(11)
C5 C 0.715(2) 0.5432(13) 0.5761(12)
H2 H 0.7122 0.4926 0.6548
C6 C 0.686(2) 0.6735(13) 0.5317(12)
C7 C 0.653(2) 0.7312(14) 0.6116(14)
C8 C 0.619(3) 0.8890(14) 0.3611(14)
C9 C 0.115(2) 1.3091(13) 0.0646(12)
C10 C 0.375(2) 1.3897(13) -0.0364(13)
C11 C 0.810(2) 0.3750(14) 0.4097(12)
H3 H 0.8327 0.3041 0.3955
C12 C -0.007(3) 1.2239(15) 0.1614(14)
N1 N 0.792(2) 0.3671(11) 0.5157(10)
N2 N 0.7939(19) 0.4882(11) 0.3297(10)
H4 H 0.8052 0.5107 0.2571
N3 N 0.3204(18) 1.3164(11) 0.0682(9)
N4 N 0.036(2) 1.3798(12) -0.0336(11)
H5 H -0.0963 1.3908 -0.0520
N5 N 0.575(2) 1.4187(12) -0.0806(12)
H6 H 0.6850 1.3870 -0.0372
H7 H 0.5930 1.4690 -0.1520
N6 N 0.201(2) 1.4333(12) -0.1023(11)
O1 O 0.6016(17) 0.6666(9) 0.7148(8)
O2 O 0.6989(16) 0.8405(9) 0.5785(9)
O3 O 0.4378(15) 0.9389(9) 0.3798(9)
O4 O 0.7553(17) 0.9545(9) 0.2941(9)
O5 O 0.7409(15) 1.1165(9) 0.3931(8)
H8 H 0.7261 1.0760 0.4656
H9 H 0.8740 1.0955 0.3772
O6 O 0.1038(17) 1.1515(9) 0.2460(8)
O7 O -0.2091(16) 1.2359(9) 0.1523(9)
O8 O 0.480(2) 1.0564(11) 0.1265(11)
H10 H 0.5177 0.9769 0.1497
H11 H 0.4407 1.1027 0.0582
Dy1A Dy 0.51413(11) 0.85017(6) 0.74662(6)
Dy1_2 Dy -0.51413(11) 1.14983(6) 0.25338(6)
O1A O 0.3984(17) 1.3334(9) 0.2852(8)
O2A O 0.3011(16) 1.1595(9) 0.4215(9)
O7_2 O 0.7909(16) 1.2359(9) 0.1523(9)
O9 O 0.1620(17) 0.8519(9) 0.2844(9)
H12 H 0.2111 0.8093 0.2468
H13 H 0.0485 0.8352 0.3281
O10 O 0.178(3) 0.8163(14) 0.0983(14)
H14 H 0.2804 0.8531 0.0541
H15 H 0.1522 0.7662 0.0732
O11 O 0.770(3) 0.9196(18) 0.0346(16)
H16 H 0.8980 0.8903 0.0595
H17 H 0.7884 0.9648 -0.0370
loop_
_geom_bond_atom_site_label_1
_geom_bond_atom_site_label_2
_geom_bond_site_symmetry_1
_geom_bond_site_symmetry_2
Dy1 N3 1_555 1_555
C1 C2 1_555 1_555
C2 H1 1_555 1_555
C3 C2 1_555 1_555
C4 C3 1_555 1_555
C5 C4 1_555 1_555
H2 C5 1_555 1_555
C6 C1 1_555 1_555
C7 C6 1_555 1_555
C8 C1 1_555 1_555
C9 C12 1_555 1_555
C10 N3 1_555 1_555
C11 H3 1_555 1_555
C12 O6 1_555 1_555
N1 C4 1_555 1_555
N2 C3 1_555 1_555
H4 N2 1_555 1_555
N3 C9 1_555 1_555
N4 C9 1_555 1_555
H5 N4 1_555 1_555
N5 C10 1_555 1_555
H6 N5 1_555 1_555
H7 N5 1_555 1_555
N6 C10 1_555 1_555
O1 C7 1_555 1_555
O2 C7 1_555 1_555
O3 Dy1 1_555 1_555
O4 Dy1 1_555 1_555
O5 Dy1 1_555 1_555
H8 O5 1_555 1_555
H9 O5 1_555 1_555
O6 Dy1 1_555 1_555
O7 C12 1_555 1_555
O8 Dy1 1_555 1_555
H10 O8 1_555 1_555
H11 O8 1_555 1_555
O9 H12 1_555 1_555
H13 O9 1_555 1_555
O10 H14 1_555 1_555
H15 O10 1_555 1_555
O11 H16 1_555 1_555
H17 O11 1_555 1_555
Dy1A O1 1_555 1_555
Dy1_2 O7 1_555 1_555
O1A Dy1 1_555 1_555
O2A Dy1 1_555 1_555
O7_2 Dy1 1_555 1_555
C5 C6 1_555 1_555
C8 O3 1_555 1_555
C8 O4 1_555 1_555
C11 N1 1_555 1_555
C11 N2 1_555 1_555
N4 N6 1_555 1_555
O2 Dy1A 1_555 1_555

#END
