
#######################################################################
#
#                 Cambridge Crystallographic Data Centre
#                                CCDC 
#
#######################################################################
#
# If this CIF has been generated from an entry in the Cambridge 
# Structural Database, then it will include bibliographic, chemical, 
# crystal, experimental, refinement or atomic coordinate data resulting 
# from the CCDC's data processing and validation procedures.
#
#######################################################################

data_OMEXUA
_symmetry_cell_setting           orthorhombic
_symmetry_space_group_name_H-M   'P b c a'
_symmetry_Int_Tables_number      61
_space_group_name_Hall           '-P 2ac 2ab'
loop_
_symmetry_equiv_pos_site_id
_symmetry_equiv_pos_as_xyz
1 x,y,z
2 1/2-x,-y,1/2+z
3 -x,1/2+y,1/2-z
4 1/2+x,1/2-y,-z
5 -x,-y,-z
6 1/2+x,y,1/2-z
7 x,1/2-y,1/2+z
8 1/2-x,1/2+y,z
_cell_length_a                   15.349(7)
_cell_length_b                   10.756(5)
_cell_length_c                   21.420(9)
_cell_angle_alpha                90
_cell_angle_beta                 90
_cell_angle_gamma                90
_cell_volume                     3536.31
loop_
_atom_site_label
_atom_site_type_symbol
_atom_site_fract_x
_atom_site_fract_y
_atom_site_fract_z
Cu1 Cu 0.05967(7) 0.29034(10) 0.06687(4)
O1 O 0.1376(4) 0.3493(7) 0.1322(3)
O2 O 0.0205(5) 0.4648(8) 0.1485(3)
O3 O 0.3985(4) 0.5949(5) 0.5027(3)
O4 O 0.3337(4) 0.7753(6) 0.4837(3)
N1 N 0.0297(4) 0.1347(7) 0.1104(3)
N2 N -0.0411(4) 0.2400(7) 0.0156(3)
C1 C 0.0964(8) 0.4353(10) 0.1607(4)
C2 C 0.1431(6) 0.4971(9) 0.2125(4)
C3 C 0.1139(8) 0.6028(11) 0.2383(5)
H1 H 0.0646 0.6400 0.2213
C4 C 0.1549(8) 0.6612(11) 0.2908(5)
H2 H 0.1336 0.7351 0.3074
C5 C 0.2254(6) 0.6053(11) 0.3151(4)
C6 C 0.2618(7) 0.5015(10) 0.2924(5)
H3 H 0.3111 0.4652 0.3099
C7 C 0.2164(7) 0.4486(10) 0.2364(4)
H4 H 0.2402 0.3788 0.2173
C8 C 0.2624(6) 0.6662(10) 0.3733(4)
H5 H 0.2449 0.7461 0.3841
C9 C 0.3192(6) 0.6069(10) 0.4087(4)
H6 H 0.3395 0.5291 0.3965
C10 C 0.3520(7) 0.6643(10) 0.4694(4)
C11 C 0.0690(6) 0.0851(10) 0.1611(4)
H7 H 0.1126 0.1303 0.1810
C12 C 0.0466(7) -0.0313(10) 0.1847(4)
H8 H 0.0766 -0.0640 0.2186
C13 C -0.0189(6) -0.0964(9) 0.1580(4)
H9 H -0.0363 -0.1724 0.1745
C14 C -0.0587(6) -0.0495(8) 0.1068(4)
H10 H -0.1030 -0.0939 0.0872
C15 C -0.0332(5) 0.0649(8) 0.0839(3)
C16 C -0.0739(5) 0.1252(8) 0.0286(3)
C17 C -0.1406(5) 0.0740(9) -0.0064(4)
H11 H -0.1620 -0.0048 0.0027
C18 C -0.1742(6) 0.1417(10) -0.0544(4)
H12 H -0.2187 0.1085 -0.0787
C19 C -0.1427(6) 0.2595(9) -0.0674(4)
H13 H -0.1663 0.3065 -0.0997
C20 C -0.0765(6) 0.3049(8) -0.0319(4)
H14 H -0.0548 0.3837 -0.0408
Cu1A Cu 0.44033(7) 0.70966(10) 0.56687(4)
O3A O 0.1015(4) 0.4051(5) 0.0027(3)
O4A O 0.1663(4) 0.2247(6) -0.0163(3)
loop_
_geom_bond_atom_site_label_1
_geom_bond_atom_site_label_2
_geom_bond_site_symmetry_1
_geom_bond_site_symmetry_2
Cu1 O1 1_555 1_555
O1 C1 1_555 1_555
O2 Cu1 1_555 1_555
O3 C10 1_555 1_555
O4 C10 1_555 1_555
N1 Cu1 1_555 1_555
N2 Cu1 1_555 1_555
C1 O2 1_555 1_555
C2 C1 1_555 1_555
C3 C2 1_555 1_555
H1 C3 1_555 1_555
C4 C3 1_555 1_555
H2 C4 1_555 1_555
C5 C4 1_555 1_555
C6 C5 1_555 1_555
H3 C6 1_555 1_555
C7 C2 1_555 1_555
H4 C7 1_555 1_555
C8 C5 1_555 1_555
H5 C8 1_555 1_555
C9 C8 1_555 1_555
H6 C9 1_555 1_555
C10 C9 1_555 1_555
C11 N1 1_555 1_555
H7 C11 1_555 1_555
C12 C11 1_555 1_555
H8 C12 1_555 1_555
C13 C12 1_555 1_555
H9 C13 1_555 1_555
C14 C13 1_555 1_555
H10 C14 1_555 1_555
C15 N1 1_555 1_555
C16 N2 1_555 1_555
C17 C16 1_555 1_555
H11 C17 1_555 1_555
C18 C17 1_555 1_555
H12 C18 1_555 1_555
C19 C18 1_555 1_555
H13 C19 1_555 1_555
C20 N2 1_555 1_555
H14 C20 1_555 1_555
Cu1A O3 1_555 1_555
O3A Cu1 1_555 1_555
O4A Cu1 1_555 1_555
O4 Cu1A 1_555 1_555
C6 C7 1_555 1_555
C14 C15 1_555 1_555
C15 C16 1_555 1_555
C19 C20 1_555 1_555

#END
