
#######################################################################
#
#                 Cambridge Crystallographic Data Centre
#                                CCDC 
#
#######################################################################
#
# If this CIF has been generated from an entry in the Cambridge 
# Structural Database, then it will include bibliographic, chemical, 
# crystal, experimental, refinement or atomic coordinate data resulting 
# from the CCDC's data processing and validation procedures.
#
#######################################################################

data_OMEXIO
_symmetry_cell_setting           triclinic
_symmetry_space_group_name_H-M   'P -1'
_symmetry_Int_Tables_number      2
_space_group_name_Hall           '-P 1'
loop_
_symmetry_equiv_pos_site_id
_symmetry_equiv_pos_as_xyz
1 x,y,z
2 -x,-y,-z
_cell_length_a                   6.4843(13)
_cell_length_b                   9.838(2)
_cell_length_c                   10.510(2)
_cell_angle_alpha                114.64(3)
_cell_angle_beta                 93.43(3)
_cell_angle_gamma                106.23(3)
_cell_volume                     573.054
loop_
_atom_site_label
_atom_site_type_symbol
_atom_site_fract_x
_atom_site_fract_y
_atom_site_fract_z
O1 O 0.2952(11) 1.1479(8) 0.4555(6)
C1 C 0.4753(16) 1.4165(10) 0.9967(10)
O2 O 0.4100(11) 1.2826(7) 0.8857(7)
O3 O 0.5034(12) 1.4331(8) 1.1070(7)
Dy1 Dy 0.36721(7) 1.29246(5) 0.69009(4)
O4 O 0.3502(11) 0.8164(9) 0.3295(7)
O5 O 0.5648(14) 1.2942(10) 0.4095(7)
H1 H 0.6231 1.3282 0.4931
O6 O 0.2163(12) 1.4530(9) 0.6341(8)
H2 H 0.2005 1.5340 0.7004
H3 H 0.1765 1.4309 0.5472
O7 O -0.0115(11) 0.7452(8) 0.2821(7)
O8 O 0.1826(13) 0.9919(8) 0.6016(7)
O9 O 0.6541(12) 1.4752(8) 0.6653(7)
H4 H 0.7480 1.5492 0.7385
H5 H 0.6657 1.4685 0.5829
C2 C 0.1772(14) 0.8060(10) 0.2718(9)
N1 N 0.2350(13) 0.9904(9) -0.1004(8)
H6 H 0.2853 1.0750 -0.1108
N2 N 0.0638(14) 0.7199(10) -0.1775(8)
C3 C 0.1279(16) 0.8342(12) -0.2077(10)
H7 H 0.1039 0.8148 -0.3027
C4 C 0.2401(15) 0.9788(11) 0.0094(9)
C5 C 0.3286(15) 1.0993(11) 0.1440(9)
H8 H 0.3958 1.2057 0.1673
C6 C 0.3045(14) 1.0436(10) 0.2290(9)
C7 C 0.3953(16) 1.1709(11) 0.3746(10)
C8 C 0.1895(15) 0.8687(10) 0.1788(9)
C9 C 0.1036(16) 0.7537(11) 0.0460(10)
H9 H 0.0353 0.6470 0.0212
C10 C 0.1289(15) 0.8112(11) -0.0399(10)
H10 H 0.244(13) 0.931(8) 0.548(10)
H11 H 0.050(6) 0.939(9) 0.595(11)
O1A O 0.7048(11) 0.8521(8) 0.5445(6)
C1A C 0.5247(16) 1.5835(10) 1.0033(10)
O2A O 0.5900(11) 1.7174(7) 1.1143(7)
O2A_2 O 0.5900(11) 0.7174(7) 0.1143(7)
O3A O 0.4966(12) 1.5669(8) 0.8930(7)
O3_2 O 0.5034(12) 0.4331(8) 0.1070(7)
Dy1A Dy 0.63279(7) 0.70754(5) 0.30991(4)
Dy1A_2 Dy 0.63279(7) 1.70754(5) 1.30991(4)
Dy1A_3 Dy -0.36721(7) 0.70754(5) 0.30991(4)
Dy1_2 Dy 1.36721(7) 1.29246(5) 0.69009(4)
O4A O 0.6498(11) 1.1836(9) 0.6705(7)
O5A O 0.4352(14) 0.7058(10) 0.5905(7)
H1A H 0.3769 0.6718 0.5069
O6A O 0.7837(12) 0.5470(9) 0.3659(8)
H2A H 0.7995 0.4660 0.2996
H3A H 0.8235 0.5691 0.4528
O7A O 1.0115(11) 1.2548(8) 0.7179(7)
O7A_2 O 0.0115(11) 1.2548(8) 0.7179(7)
O7_2 O 0.9885(11) 0.7452(8) 0.2821(7)
O8A O 0.8174(13) 1.0081(8) 0.3984(7)
O9A O 0.3459(12) 0.5248(8) 0.3347(7)
H4A H 0.2520 0.4508 0.2615
H5A H 0.3343 0.5315 0.4171
C2A C 0.8228(14) 1.1940(10) 0.7282(9)
N1A N 0.7650(13) 1.0096(9) 1.1004(8)
H6A H 0.7147 0.9250 1.1108
N2A N 0.9362(14) 1.2801(10) 1.1775(8)
C3A C 0.8721(16) 1.1658(12) 1.2077(10)
H7A H 0.8961 1.1852 1.3027
C4A C 0.7599(15) 1.0212(11) 0.9906(9)
C5A C 0.6714(15) 0.9007(11) 0.8560(9)
H8A H 0.6042 0.7943 0.8327
C6A C 0.6955(14) 0.9564(10) 0.7710(9)
C7A C 0.6047(16) 0.8291(11) 0.6254(10)
C8A C 0.8105(15) 1.1313(10) 0.8212(9)
C9A C 0.8964(16) 1.2463(11) 0.9540(10)
H9A H 0.9647 1.3530 0.9788
C10A C 0.8711(15) 1.1888(11) 1.0399(10)
H10A H 0.756(13) 1.069(8) 0.452(10)
H11A H 0.950(6) 1.061(9) 0.405(11)
loop_
_geom_bond_atom_site_label_1
_geom_bond_atom_site_label_2
_geom_bond_site_symmetry_1
_geom_bond_site_symmetry_2
O1 Dy1 1_555 1_555
C1 O2 1_555 1_555
O2 Dy1 1_555 1_555
O3 C1 1_555 1_555
Dy1 O6 1_555 1_555
O4 C2 1_555 1_555
O5 H1 1_555 1_555
O6 H2 1_555 1_555
H3 O6 1_555 1_555
O7 C2 1_555 1_555
O8 Dy1 1_555 1_555
O9 Dy1 1_555 1_555
H4 O9 1_555 1_555
H5 O9 1_555 1_555
C2 C8 1_555 1_555
N1 H6 1_555 1_555
N2 C3 1_555 1_555
C3 N1 1_555 1_555
H7 C3 1_555 1_555
C4 N1 1_555 1_555
C5 C4 1_555 1_555
H8 C5 1_555 1_555
C6 C5 1_555 1_555
C7 O1 1_555 1_555
C8 C6 1_555 1_555
C9 C8 1_555 1_555
H9 C9 1_555 1_555
C10 N2 1_555 1_555
H10 O8 1_555 1_555
H11 O8 1_555 1_555
O1A Dy1A 1_555 1_555
C1A C1 1_555 1_555
O2A C1A 1_555 1_555
O2A_2 Dy1A 1_555 1_555
O3A Dy1 1_555 1_555
O3_2 Dy1A 1_555 1_555
Dy1A O4 1_555 1_555
Dy1A_2 O3 1_555 1_555
Dy1A_3 O7 1_555 1_555
Dy1_2 O7A 1_555 1_555
O4A Dy1 1_555 1_555
O5A H1A 1_555 1_555
O6A Dy1A 1_555 1_555
H2A O6A 1_555 1_555
H3A O6A 1_555 1_555
O7A C2A 1_555 1_555
O7A_2 Dy1 1_555 1_555
O7_2 Dy1A 1_555 1_555
O8A Dy1A 1_555 1_555
O9A Dy1A 1_555 1_555
H4A O9A 1_555 1_555
H5A O9A 1_555 1_555
C2A O4A 1_555 1_555
N1A H6A 1_555 1_555
N2A C3A 1_555 1_555
C3A N1A 1_555 1_555
H7A C3A 1_555 1_555
C4A N1A 1_555 1_555
C5A C4A 1_555 1_555
H8A C5A 1_555 1_555
C6A C5A 1_555 1_555
C7A O1A 1_555 1_555
C8A C2A 1_555 1_555
C9A C8A 1_555 1_555
H9A C9A 1_555 1_555
C10A N2A 1_555 1_555
H10A O8A 1_555 1_555
H11A O8A 1_555 1_555
O5 C7 1_555 1_555
C4 C10 1_555 1_555
C6 C7 1_555 1_555
C9 C10 1_555 1_555
C1A O3A 1_555 1_555
O2A Dy1A_2 1_555 1_555
O5A C7A 1_555 1_555
C4A C10A 1_555 1_555
C6A C7A 1_555 1_555
C6A C8A 1_555 1_555
C9A C10A 1_555 1_555

#END
