
#######################################################################
#
#                 Cambridge Crystallographic Data Centre
#                                CCDC 
#
#######################################################################
#
# If this CIF has been generated from an entry in the Cambridge 
# Structural Database, then it will include bibliographic, chemical, 
# crystal, experimental, refinement or atomic coordinate data resulting 
# from the CCDC's data processing and validation procedures.
#
#######################################################################

data_OMEYIP01
_symmetry_cell_setting           monoclinic
_symmetry_space_group_name_H-M   'C c'
_symmetry_Int_Tables_number      9
_space_group_name_Hall           'C -2yc'
loop_
_symmetry_equiv_pos_site_id
_symmetry_equiv_pos_as_xyz
1 x,y,z
2 x,-y,1/2+z
3 1/2+x,1/2+y,z
4 1/2+x,1/2-y,1/2+z
_cell_length_a                   15.1755(11)
_cell_length_b                   22.2665(17)
_cell_length_c                   8.1466(6)
_cell_angle_alpha                90
_cell_angle_beta                 110.2820(10)
_cell_angle_gamma                90
_cell_volume                     2582.1
loop_
_atom_site_label
_atom_site_type_symbol
_atom_site_fract_x
_atom_site_fract_y
_atom_site_fract_z
Zn1 Zn 0.24656(19) 0.13475(2) -0.2924(3)
C1 C 0.4237(7) 0.0649(6) -0.2903(13)
H1 H 0.4514 0.1024 -0.2871
C2 C 0.4707(10) 0.0165(8) -0.2938(16)
H2 H 0.5328 0.0201 -0.2878
C3 C 0.4318(12) -0.0404(7) -0.3059(13)
H3 H 0.4647 -0.0743 -0.3181
C4 C 0.3376(10) -0.0449(6) -0.2989(18)
H4 H 0.3076 -0.0813 -0.2991
C5 C 0.2977(6) 0.0086(5) -0.2921(11)
C6 C 0.1999(8) 0.0064(4) -0.2905(13)
C7 C 0.1443(8) -0.0441(4) -0.2881(14)
H5 H 0.1702 -0.0819 -0.2879
C8 C 0.0591(7) -0.0412(5) -0.2863(17)
H6 H 0.0252 -0.0762 -0.2892
C9 C 0.0194(9) 0.0134(6) -0.2800(17)
H7 H -0.0402 0.0172 -0.2729
C10 C 0.0764(10) 0.0651(6) -0.2853(19)
H8 H 0.0513 0.1030 -0.2825
C11 C 0.3432(12) 0.1876(6) -0.0194(14)
C12 C 0.4006(4) 0.2120(3) 0.1601(6)
C13 C 0.3706(4) 0.2073(3) 0.3026(8)
H9 H 0.3133 0.1893 0.2893
C14 C 0.4264(5) 0.2294(3) 0.4649(7)
H10 H 0.4063 0.2262 0.5602
C15 C 0.5121(5) 0.2563(3) 0.4847(6)
C16 C 0.5421(4) 0.2611(2) 0.3422(8)
H11 H 0.5994 0.2791 0.3555
C17 C 0.4863(4) 0.2389(2) 0.1799(6)
H12 H 0.5064 0.2421 0.0846
C18 C 0.5861(10) 0.2845(5) 0.6455(16)
H13 H 0.6385 0.3033 0.6347
C19 C 0.5761(9) 0.2822(5) 0.7865(15)
H14 H 0.5243 0.2627 0.7976
C20 C 0.6480(11) 0.3112(5) 0.945(2)
N1 N 0.3319(7) 0.0609(4) -0.2914(10)
N2 N 0.1577(7) 0.0621(4) -0.2933(12)
O1 O 0.2688(8) 0.1606(4) -0.0358(11)
O2 O 0.3676(6) 0.1930(4) -0.1486(14)
O3 O 0.7209(8) 0.3373(4) 0.9484(13)
O4 O 0.6242(8) 0.3084(5) 1.0767(14)
Zn1C Zn 0.74656(19) 0.36525(2) 1.2076(3)
O3C O 0.2209(8) 0.1627(4) -0.5516(13)
O4C O 0.1242(8) 0.1916(5) -0.4233(14)
C21 C 0.1702(16) 0.6302(8) 0.102(3)
H15 H 0.1185 0.6497 0.0238
C22 C 0.2404(19) 0.6650(3) 0.201(3)
H16 H 0.2343 0.7065 0.2015
C23 C 0.3242(16) 0.6363(6) 0.306(3)
H17 H 0.3771 0.6585 0.3694
C24 C 0.3251(11) 0.5734(7) 0.313(2)
H18 H 0.3766 0.5526 0.3870
C25 C 0.2483(12) 0.5439(2) 0.207(2)
C26 C 0.2457(12) 0.4771(2) 0.208(2)
C27 C 0.3159(9) 0.4481(5) 0.3276(15)
H19 H 0.3649 0.4681 0.4113
C28 C 0.3103(15) 0.3868(10) 0.317(3)
H20 H 0.3568 0.3649 0.4009
C29 C 0.242(2) 0.3555(3) 0.195(5)
H21 H 0.2442 0.3139 0.1882
C30 C 0.1709(14) 0.3868(7) 0.083(3)
H22 H 0.1211 0.3663 0.0033
N3 N 0.1674(9) 0.5726(5) 0.1046(16)
N4 N 0.1700(9) 0.4486(6) 0.0844(19)
loop_
_geom_bond_atom_site_label_1
_geom_bond_atom_site_label_2
_geom_bond_site_symmetry_1
_geom_bond_site_symmetry_2
Zn1 N1 1_555 1_555
C1 H1 1_555 1_555
C2 C1 1_555 1_555
H2 C2 1_555 1_555
C3 C2 1_555 1_555
H3 C3 1_555 1_555
C4 C3 1_555 1_555
H4 C4 1_555 1_555
C5 C4 1_555 1_555
C6 C5 1_555 1_555
C7 C6 1_555 1_555
H5 C7 1_555 1_555
C8 C7 1_555 1_555
H6 C8 1_555 1_555
C9 C8 1_555 1_555
H7 C9 1_555 1_555
C10 C9 1_555 1_555
H8 C10 1_555 1_555
C11 C12 1_555 1_555
C12 C13 1_555 1_555
C13 H9 1_555 1_555
C14 C13 1_555 1_555
H10 C14 1_555 1_555
C15 C14 1_555 1_555
C16 C15 1_555 1_555
H11 C16 1_555 1_555
C17 C12 1_555 1_555
H12 C17 1_555 1_555
C18 C15 1_555 1_555
H13 C18 1_555 1_555
C19 C18 1_555 1_555
H14 C19 1_555 1_555
C20 C19 1_555 1_555
N1 C1 1_555 1_555
N2 Zn1 1_555 1_555
O1 Zn1 1_555 1_555
O2 Zn1 1_555 1_555
O3 C20 1_555 1_555
O4 C20 1_555 1_555
C21 H15 1_555 1_555
C22 C21 1_555 1_555
H16 C22 1_555 1_555
C23 C22 1_555 1_555
H17 C23 1_555 1_555
C24 C23 1_555 1_555
H18 C24 1_555 1_555
C25 C24 1_555 1_555
C26 C25 1_555 1_555
C27 C26 1_555 1_555
H19 C27 1_555 1_555
C28 C27 1_555 1_555
H20 C28 1_555 1_555
C29 C28 1_555 1_555
H21 C29 1_555 1_555
C30 C29 1_555 1_555
H22 C30 1_555 1_555
N3 C21 1_555 1_555
N4 C26 1_555 1_555
Zn1C O3 1_555 1_555
O3C Zn1 1_555 1_555
O4C Zn1 1_555 1_555
C5 N1 1_555 1_555
C6 N2 1_555 1_555
C10 N2 1_555 1_555
C11 O1 1_555 1_555
C11 O2 1_555 1_555
C16 C17 1_555 1_555
O4 Zn1C 1_555 1_555
C25 N3 1_555 1_555
C30 N4 1_555 1_555

#END
