
#######################################################################
#
#                 Cambridge Crystallographic Data Centre
#                                CCDC 
#
#######################################################################
#
# If this CIF has been generated from an entry in the Cambridge 
# Structural Database, then it will include bibliographic, chemical, 
# crystal, experimental, refinement or atomic coordinate data resulting 
# from the CCDC's data processing and validation procedures.
#
#######################################################################

data_OMIDIY
_symmetry_cell_setting           triclinic
_symmetry_space_group_name_H-M   'P -1'
_symmetry_Int_Tables_number      2
_space_group_name_Hall           '-P 1'
loop_
_symmetry_equiv_pos_site_id
_symmetry_equiv_pos_as_xyz
1 x,y,z
2 -x,-y,-z
_cell_length_a                   10.2489(5)
_cell_length_b                   10.2912(5)
_cell_length_c                   17.2945(7)
_cell_angle_alpha                94.360(4)
_cell_angle_beta                 96.728(4)
_cell_angle_gamma                96.603(4)
_cell_volume                     1792.11
loop_
_atom_site_label
_atom_site_type_symbol
_atom_site_fract_x
_atom_site_fract_y
_atom_site_fract_z
Zn1 Zn 0.81571(5) 0.01838(6) 0.05430(3)
Zn2 Zn 1.57589(5) 0.72192(6) 0.44563(4)
C1 C 1.0681(5) 0.0109(5) 0.1657(3)
H1 H 1.1071 -0.0418 0.1314
C2 C 0.9307(5) 0.1248(5) 0.2157(3)
H2 H 0.8567 0.1674 0.2212
C3 C 1.0328(5) 0.1237(5) 0.2721(3)
H3 H 1.0411 0.1625 0.3230
C4 C 1.2585(4) 0.0485(5) 0.2759(3)
H4 H 1.2882 -0.0325 0.2564
H5 H 1.2594 0.0477 0.3320
C5 C 1.3558(4) 0.1664(5) 0.2587(3)
C6 C 1.3767(4) 0.1564(5) 0.1725(3)
H6 H 1.2904 0.1341 0.1418
H7 H 1.4117 0.2430 0.1603
C7 C 1.5772(5) 0.1024(5) 0.1192(3)
H8 H 1.6117 0.1900 0.1189
C8 C 1.5506(5) -0.1068(6) 0.1041(4)
H9 H 1.5644 -0.1931 0.0912
C9 C 1.4457(5) -0.0713(6) 0.1358(4)
H10 H 1.3749 -0.1269 0.1485
C10 C 1.2950(4) 0.2930(4) 0.2778(3)
H11 H 1.2262 0.3015 0.2356
H12 H 1.2529 0.2837 0.3249
C11 C 1.4423(5) 0.4880(5) 0.2365(3)
H13 H 1.4305 0.4701 0.1825
C12 C 1.5168(6) 0.5908(6) 0.2780(3)
H14 H 1.5678 0.6559 0.2564
C13 C 1.4281(4) 0.4794(5) 0.3602(3)
H15 H 1.4032 0.4512 0.4067
C14 C 1.4836(5) 0.1770(5) 0.3153(3)
H16 H 1.5493 0.2362 0.2951
H17 H 1.4667 0.2194 0.3646
C15 C 1.5140(5) -0.0213(5) 0.3856(3)
H18 H 1.4410 -0.0180 0.4126
C16 C 1.6881(5) -0.0783(6) 0.3465(4)
H19 H 1.7618 -0.1215 0.3411
C17 C 1.6549(5) 0.0215(6) 0.3066(4)
H20 H 1.6992 0.0582 0.2680
C18 C 0.8311(4) -0.2434(5) 0.0260(3)
C19 C 0.8443(4) -0.3715(5) -0.0203(3)
C20 C 0.8244(4) -0.4888(5) 0.0161(3)
H21 H 0.8054 -0.4861 0.0674
C21 C 0.8331(4) -0.6083(5) -0.0245(3)
C22 C 0.8192(4) -0.7308(5) 0.0184(3)
C23 C 0.8575(4) -0.6125(5) -0.1019(3)
H22 H 0.8620 -0.6925 -0.1297
C24 C 0.8750(4) -0.4972(5) -0.1374(3)
C25 C 0.8719(4) -0.3772(5) -0.0959(3)
H23 H 0.8887 -0.2999 -0.1197
C26 C 1.3138(5) 0.7235(5) 0.4827(3)
C27 C 1.1955(4) 0.6824(5) 0.5228(3)
C28 C 1.0702(4) 0.7037(5) 0.4892(3)
H24 H 1.0611 0.7426 0.4423
C29 C 0.9587(4) 0.6675(5) 0.5250(3)
C30 C 0.8240(5) 0.6887(5) 0.4851(3)
C31 C 0.9737(4) 0.6117(5) 0.5955(3)
H25 H 0.8996 0.5855 0.6195
C32 C 1.0979(5) 0.5952(5) 0.6300(3)
C33 C 1.2079(5) 0.6261(5) 0.5932(3)
H26 H 1.2905 0.6092 0.6156
N1 N 0.9520(4) 0.0538(4) 0.1490(2)
N2 N 1.1222(3) 0.0543(4) 0.2396(2)
N3 N 1.6353(4) 0.0021(4) 0.0934(3)
N4 N 1.4634(4) 0.0631(4) 0.1456(2)
N5 N 1.3869(4) 0.4147(4) 0.2895(2)
N6 N 1.5086(4) 0.5882(4) 0.3555(2)
N7 N 1.5986(4) -0.1070(4) 0.3958(3)
N8 N 1.5441(4) 0.0596(4) 0.3329(2)
O1 O 0.8354(3) -0.1416(3) -0.0122(2)
O2 O 0.8185(4) -0.2414(4) 0.0954(2)
O3 O 0.7997(3) -0.7212(3) 0.0876(2)
O4 O 0.8317(3) -0.8405(3) -0.0199(2)
O5 O 0.8994(3) -0.4977(3) -0.2138(2)
H27 H 0.9010 -0.5734 -0.2318
O6 O 1.4260(3) 0.6946(3) 0.51082(19)
O7 O 1.2984(3) 0.7835(4) 0.4236(2)
O8 O 0.8108(3) 0.7015(4) 0.4141(2)
O9 O 0.7267(3) 0.6905(4) 0.5254(2)
O10 O 1.1193(3) 0.5458(4) 0.7022(2)
H28 H 1.0484 0.5304 0.7194
Zn1_2 Zn 1.81571(5) 0.01838(6) 0.05430(3)
Zn1_3 Zn 0.81571(5) -0.98162(6) 0.05430(3)
Zn2_2 Zn 1.57589(5) -0.27808(6) 0.44563(4)
Zn2_3 Zn 0.57589(5) 0.72192(6) 0.44563(4)
N3_2 N 0.6353(4) 0.0021(4) 0.0934(3)
N7_2 N 1.5986(4) 0.8930(4) 0.3958(3)
O4_2 O 0.8317(3) 0.1595(3) -0.0199(2)
O9_2 O 1.7267(3) 0.6905(4) 0.5254(2)
O11 O 0.6844(15) 0.3895(18) 0.1923(10)
O12 O 1.1054(5) 0.2469(6) 0.7436(3)
H29 H 1.170(6) 0.310(6) 0.753(5)
H30 H 1.090(7) 0.211(7) 0.784(3)
O13 O 0.8459(4) 0.2610(4) 0.7210(3)
H31 H 0.844(6) 0.243(7) 0.6718(14)
H32 H 0.776(4) 0.224(6) 0.736(3)
O14 O 0.5123(15) 0.408(3) 0.0575(9)
H33 H 0.58(2) 0.37(3) 0.061(16)
H34 H 0.48(3) 0.41(3) 0.010(6)
loop_
_geom_bond_atom_site_label_1
_geom_bond_atom_site_label_2
_geom_bond_site_symmetry_1
_geom_bond_site_symmetry_2
Zn1 N1 1_555 1_555
Zn2 N6 1_555 1_555
C1 H1 1_555 1_555
C2 H2 1_555 1_555
C3 C2 1_555 1_555
H3 C3 1_555 1_555
C4 H4 1_555 1_555
H5 C4 1_555 1_555
C5 C4 1_555 1_555
C6 C5 1_555 1_555
H6 C6 1_555 1_555
H7 C6 1_555 1_555
C7 H8 1_555 1_555
C8 H9 1_555 1_555
C9 C8 1_555 1_555
H10 C9 1_555 1_555
C10 C5 1_555 1_555
H11 C10 1_555 1_555
H12 C10 1_555 1_555
C11 H13 1_555 1_555
C12 C11 1_555 1_555
H14 C12 1_555 1_555
C13 H15 1_555 1_555
C14 C5 1_555 1_555
H16 C14 1_555 1_555
H17 C14 1_555 1_555
C15 H18 1_555 1_555
C16 H19 1_555 1_555
C17 C16 1_555 1_555
H20 C17 1_555 1_555
C18 C19 1_555 1_555
C19 C20 1_555 1_555
C20 H21 1_555 1_555
C21 C20 1_555 1_555
C22 C21 1_555 1_555
C23 C21 1_555 1_555
H22 C23 1_555 1_555
C24 C23 1_555 1_555
C25 C19 1_555 1_555
H23 C25 1_555 1_555
C26 C27 1_555 1_555
C27 C28 1_555 1_555
C28 H24 1_555 1_555
C29 C28 1_555 1_555
C30 C29 1_555 1_555
C31 C29 1_555 1_555
H25 C31 1_555 1_555
C32 C31 1_555 1_555
C33 C27 1_555 1_555
H26 C33 1_555 1_555
N1 C1 1_555 1_555
N2 C1 1_555 1_555
N3 C7 1_555 1_555
N4 C6 1_555 1_555
N5 C10 1_555 1_555
N6 C12 1_555 1_555
N7 C15 1_555 1_555
N8 C14 1_555 1_555
O1 Zn1 1_555 1_555
O2 C18 1_555 1_555
O3 C22 1_555 1_555
O4 C22 1_555 1_555
O5 C24 1_555 1_555
H27 O5 1_555 1_555
O6 Zn2 1_555 1_555
O7 C26 1_555 1_555
O8 C30 1_555 1_555
O9 C30 1_555 1_555
O10 C32 1_555 1_555
H28 O10 1_555 1_555
O12 H29 1_555 1_555
H30 O12 1_555 1_555
O13 H31 1_555 1_555
H32 O13 1_555 1_555
O14 H33 1_555 1_555
H34 O14 1_555 1_555
Zn1_2 N3 1_555 1_555
Zn1_3 O4 1_555 1_555
Zn2_2 N7 1_555 1_555
Zn2_3 O9 1_555 1_555
N3_2 Zn1 1_555 1_555
N7_2 Zn2 1_555 1_555
O4_2 Zn1 1_555 1_555
O9_2 Zn2 1_555 1_555
C2 N1 1_555 1_555
C3 N2 1_555 1_555
C4 N2 1_555 1_555
C7 N4 1_555 1_555
C8 N3 1_555 1_555
C9 N4 1_555 1_555
C11 N5 1_555 1_555
C13 N5 1_555 1_555
C13 N6 1_555 1_555
C15 N8 1_555 1_555
C16 N7 1_555 1_555
C17 N8 1_555 1_555
C18 O1 1_555 1_555
C24 C25 1_555 1_555
C26 O6 1_555 1_555
C32 C33 1_555 1_555

#END
