
#######################################################################
#
#                 Cambridge Crystallographic Data Centre
#                                CCDC 
#
#######################################################################
#
# If this CIF has been generated from an entry in the Cambridge 
# Structural Database, then it will include bibliographic, chemical, 
# crystal, experimental, refinement or atomic coordinate data resulting 
# from the CCDC's data processing and validation procedures.
#
#######################################################################

data_OMILAY
_symmetry_cell_setting           orthorhombic
_symmetry_space_group_name_H-M   'P 21 21 21'
_symmetry_Int_Tables_number      19
_space_group_name_Hall           'P 2ac 2ab'
loop_
_symmetry_equiv_pos_site_id
_symmetry_equiv_pos_as_xyz
1 x,y,z
2 1/2-x,-y,1/2+z
3 -x,1/2+y,1/2-z
4 1/2+x,1/2-y,-z
_cell_length_a                   13.4010(10)
_cell_length_b                   26.0156(17)
_cell_length_c                   13.8085(9)
_cell_angle_alpha                90
_cell_angle_beta                 90
_cell_angle_gamma                90
_cell_volume                     4814.13
loop_
_atom_site_label
_atom_site_type_symbol
_atom_site_fract_x
_atom_site_fract_y
_atom_site_fract_z
C1 C 0.6681(10) 0.5700(4) 0.1262(7)
H1 H 0.7065 0.5535 0.1799
C2 C 0.7276(11) 0.5904(6) 0.0554(9)
H2 H 0.8007 0.5863 0.0679
C3 C 0.7018(9) 0.6376(4) 0.0011(17)
H3 H 0.7522 0.6432 -0.0502
H4 H 0.7044 0.6673 0.0458
C4 C 0.5965(12) 0.6351(5) -0.0460(9)
H5 H 0.5472 0.6520 -0.0032
H6 H 0.5972 0.6536 -0.1086
C5 C 0.5663(11) 0.5798(5) -0.0625(8)
H7 H 0.5496 0.5719 -0.1315
C6 C 0.5117(7) 0.5501(4) 0.0047(14)
H8 H 0.4629 0.5258 -0.0254
C7 C 0.4804(10) 0.5704(5) 0.1020(8)
H9 H 0.4494 0.5424 0.1402
H10 H 0.4301 0.5979 0.0933
C8 C 0.5723(11) 0.5922(6) 0.1580(8)
H11 H 0.5746 0.6299 0.1491
H12 H 0.5635 0.5853 0.2280
C9 C 0.6924(8) 0.4172(4) -0.0573(6)
H13 H 0.6572 0.4004 -0.0019
C10 C 0.7061(9) 0.3794(5) -0.1392(8)
H14 H 0.7485 0.3958 -0.1891
H15 H 0.6400 0.3729 -0.1688
C11 C 0.7519(10) 0.3281(5) -0.1134(8)
H16 H 0.8181 0.3345 -0.0820
C12 C 0.6871(10) 0.2979(5) -0.0429(8)
H17 H 0.6766 0.3182 0.0160
H18 H 0.7203 0.2655 -0.0263
H19 H 0.6225 0.2905 -0.0732
C13 C 0.7686(13) 0.2965(6) -0.2026(10)
H20 H 0.8113 0.3155 -0.2478
H21 H 0.7043 0.2892 -0.2335
H22 H 0.8012 0.2641 -0.1849
C14 C 0.5493(10) 0.4558(5) -0.1400(8)
C15 C 0.4325(9) 0.4667(5) -0.2483(7)
C16 C 0.3993(9) 0.4281(4) -0.1887(7)
C17 C 0.3194(10) 0.3915(5) -0.1820(8)
C18 C 0.3219(11) 0.3575(5) -0.1103(9)
H23 H 0.2723 0.3315 -0.1068
C19 C 0.3992(11) 0.3598(5) -0.0378(8)
C20 C 0.3942(12) 0.3237(6) 0.0469(9)
H24 H 0.3841 0.2885 0.0234
H25 H 0.3384 0.3334 0.0890
H26 H 0.4567 0.3255 0.0836
C21 C 0.9093(12) 0.5643(6) -0.1469(9)
H27 H 0.8664 0.5414 -0.1076
H28 H 0.9495 0.5864 -0.1035
C22 C 0.9738(14) 0.5345(7) -0.2157(11)
H29 H 1.0410 0.5292 -0.1875
H30 H 0.9438 0.5005 -0.2291
C23 C 0.9812(15) 0.5649(6) -0.3063(10)
H31 H 1.0504 0.5769 -0.3172
H32 H 0.9594 0.5444 -0.3629
C24 C 0.9149(15) 0.6076(7) -0.2898(11)
H33 H 0.9533 0.6389 -0.2734
H34 H 0.8746 0.6147 -0.3485
C25 C 0.4688(13) 0.6286(7) -0.2963(11)
H35 H 0.4543 0.6435 -0.2319
H36 H 0.4426 0.5930 -0.2981
C26 C 0.4206(14) 0.6612(7) -0.3769(11)
H37 H 0.3811 0.6396 -0.4217
H38 H 0.3770 0.6883 -0.3494
C27 C 0.509(2) 0.6841(9) -0.4269(14)
H39 H 0.5195 0.6676 -0.4906
H40 H 0.4992 0.7215 -0.4367
C28 C 0.5930(17) 0.6743(7) -0.3621(16)
H41 H 0.6556 0.6707 -0.3996
H42 H 0.6011 0.7028 -0.3154
C29 C 0.3922(10) 0.4895(5) -0.3365(8)
C30 C 0.4535(10) 0.5001(5) -0.4141(8)
H43 H 0.5220 0.4910 -0.4100
C31 C 0.4192(9) 0.5234(6) -0.4973(15)
H44 H 0.4625 0.5295 -0.5506
C32 C 0.3200(10) 0.5377(5) -0.5008(16)
H45 H 0.2959 0.5547 -0.5571
C33 C 0.2577(10) 0.5288(6) -0.4293(10)
H46 H 0.1897 0.5387 -0.4345
C34 C 0.2922(11) 0.5047(5) -0.3464(8)
H47 H 0.2470 0.4983 -0.2948
C39 C 0.7914(9) 0.4411(5) -0.0227(8)
H56 H 0.8319 0.4144 0.0098
H57 H 0.8294 0.4536 -0.0795
C40 C 0.2405(11) 0.3898(6) -0.2586(9)
H58 H 0.2040 0.3572 -0.2541
H59 H 0.2718 0.3925 -0.3226
H60 H 0.1941 0.4185 -0.2494
N1 N 0.5238(8) 0.4838(4) -0.2180(7)
N2 N 0.4738(7) 0.4230(4) -0.1180(6)
N3 N 0.4745(8) 0.3902(4) -0.0388(6)
N4 N 0.6369(6) 0.4654(4) -0.0883(6)
O1 O 0.7755(6) 0.4818(3) 0.0412(4)
O2 O 0.5709(8) 0.6289(4) -0.3141(7)
O3 O 0.8531(8) 0.5935(4) -0.2128(7)
K1 K 0.6847(2) 0.54208(11) -0.27408(19)
Ir1 Ir 0.65905(3) 0.524661(16) 0.00216(7)
O1A O 0.7245(6) 0.5182(3) -0.4588(4)
K1A K 0.8153(2) 0.45792(11) 0.22592(19)
C35 C 0.538(5) 0.7754(15) -0.071(2)
H48 H 0.5109 0.7507 -0.0233
H49 H 0.6114 0.7736 -0.0695
C36 C 0.507(3) 0.8241(10) -0.0488(17)
H50 H 0.4483 0.8236 -0.0048
H51 H 0.5610 0.8444 -0.0188
C37 C 0.483(2) 0.8420(8) -0.1341(16)
H52 H 0.5163 0.8754 -0.1459
H53 H 0.4099 0.8469 -0.1393
C38 C 0.516(2) 0.8048(10) -0.2008(17)
H54 H 0.4773 0.8071 -0.2616
H55 H 0.5876 0.8102 -0.2161
O4 O 0.504(3) 0.7628(8) -0.1627(16)
C41 C 0.249(2) 0.6829(10) 0.8741(18)
H61 H 0.2030 0.7099 0.8983
H62 H 0.3053 0.6996 0.8407
C42 C 0.257(2) 0.5985(11) 0.922(3)
H63 H 0.3176 0.5777 0.9081
H64 H 0.2165 0.5805 0.9711
C45 C 0.207(3) 0.6066(15) 0.845(2)
H69 H 0.2364 0.5855 0.7923
H70 H 0.1383 0.5939 0.8555
C46 C 0.201(3) 0.6521(14) 0.815(2)
H71 H 0.1304 0.6625 0.8102
H72 H 0.2311 0.6546 0.7493
O5 O 0.2851(15) 0.6507(9) 0.9557(12)
C43 C 0.130(2) 0.2647(17) 0.8181(19)
H65 H 0.1574 0.2964 0.8477
H66 H 0.1200 0.2394 0.8707
C44 C 0.142(3) 0.2417(10) 0.663(2)
H67 H 0.1746 0.2635 0.6140
H68 H 0.1425 0.2054 0.6417
C47 C 0.035(2) 0.2604(9) 0.6863(14)
H73 H 0.0156 0.2900 0.6455
H74 H -0.0146 0.2326 0.6799
C48 C 0.0502(17) 0.2745(9) 0.7824(14)
H75 H 0.0396 0.3121 0.7875
H76 H -0.0020 0.2577 0.8220
O6 O 0.1890(17) 0.2484(14) 0.765(3)
loop_
_geom_bond_atom_site_label_1
_geom_bond_atom_site_label_2
_geom_bond_site_symmetry_1
_geom_bond_site_symmetry_2
C1 H1 1_555 1_555
C2 C1 1_555 1_555
H2 C2 1_555 1_555
C3 C2 1_555 1_555
H3 C3 1_555 1_555
H4 C3 1_555 1_555
C4 C3 1_555 1_555
H5 C4 1_555 1_555
H6 C4 1_555 1_555
C5 C4 1_555 1_555
H7 C5 1_555 1_555
C6 C5 1_555 1_555
H8 C6 1_555 1_555
C7 C6 1_555 1_555
H9 C7 1_555 1_555
H10 C7 1_555 1_555
C8 C1 1_555 1_555
H11 C8 1_555 1_555
H12 C8 1_555 1_555
C9 H13 1_555 1_555
C10 C9 1_555 1_555
H14 C10 1_555 1_555
H15 C10 1_555 1_555
C11 C10 1_555 1_555
H16 C11 1_555 1_555
C12 C11 1_555 1_555
H17 C12 1_555 1_555
H18 C12 1_555 1_555
H19 C12 1_555 1_555
C13 C11 1_555 1_555
H20 C13 1_555 1_555
H21 C13 1_555 1_555
H22 C13 1_555 1_555
C14 N1 1_555 1_555
C15 C16 1_555 1_555
C16 C17 1_555 1_555
C17 C18 1_555 1_555
C18 H23 1_555 1_555
C19 C18 1_555 1_555
C20 C19 1_555 1_555
H24 C20 1_555 1_555
H25 C20 1_555 1_555
H26 C20 1_555 1_555
C21 H27 1_555 1_555
H28 C21 1_555 1_555
C22 C21 1_555 1_555
H29 C22 1_555 1_555
H30 C22 1_555 1_555
C23 C22 1_555 1_555
H31 C23 1_555 1_555
H32 C23 1_555 1_555
C24 C23 1_555 1_555
H33 C24 1_555 1_555
H34 C24 1_555 1_555
C25 H35 1_555 1_555
H36 C25 1_555 1_555
C26 C25 1_555 1_555
H37 C26 1_555 1_555
H38 C26 1_555 1_555
C27 C26 1_555 1_555
H39 C27 1_555 1_555
H40 C27 1_555 1_555
C28 C27 1_555 1_555
H41 C28 1_555 1_555
H42 C28 1_555 1_555
C29 C15 1_555 1_555
C30 C29 1_555 1_555
H43 C30 1_555 1_555
C31 C30 1_555 1_555
H44 C31 1_555 1_555
C32 C31 1_555 1_555
H45 C32 1_555 1_555
C33 C32 1_555 1_555
H46 C33 1_555 1_555
C34 C29 1_555 1_555
H47 C34 1_555 1_555
C35 H48 1_555 1_555
H49 C35 1_555 1_555
C36 C35 1_555 1_555
H50 C36 1_555 1_555
H51 C36 1_555 1_555
C37 C36 1_555 1_555
H52 C37 1_555 1_555
H53 C37 1_555 1_555
C38 C37 1_555 1_555
H54 C38 1_555 1_555
H55 C38 1_555 1_555
C39 C9 1_555 1_555
H56 C39 1_555 1_555
H57 C39 1_555 1_555
C40 C17 1_555 1_555
H58 C40 1_555 1_555
H59 C40 1_555 1_555
H60 C40 1_555 1_555
C41 H61 1_555 1_555
H62 C41 1_555 1_555
C42 H63 1_555 1_555
H64 C42 1_555 1_555
C43 H65 1_555 1_555
H66 C43 1_555 1_555
C44 H67 1_555 1_555
H68 C44 1_555 1_555
C45 C42 1_555 1_555
H69 C45 1_555 1_555
H70 C45 1_555 1_555
C46 C41 1_555 1_555
H71 C46 1_555 1_555
H72 C46 1_555 1_555
C47 C44 1_555 1_555
H73 C47 1_555 1_555
H74 C47 1_555 1_555
C48 C43 1_555 1_555
H75 C48 1_555 1_555
H76 C48 1_555 1_555
N1 C15 1_555 1_555
N2 C14 1_555 1_555
N3 C19 1_555 1_555
N4 C9 1_555 1_555
O1 C39 1_555 1_555
O2 C25 1_555 1_555
O3 C21 1_555 1_555
O4 C35 1_555 1_555
O5 C41 1_555 1_555
O6 C43 1_555 1_555
K1 N1 1_555 1_555
Ir1 C1 1_555 1_555
O1A K1 1_555 1_555
K1A O1 1_555 1_555
C2 Ir1 1_555 1_555
C5 Ir1 1_555 1_555
C6 Ir1 1_555 1_555
C7 C8 1_555 1_555
C14 N4 1_555 1_555
C16 N2 1_555 1_555
C24 O3 1_555 1_555
C28 O2 1_555 1_555
C33 C34 1_555 1_555
C38 O4 1_555 1_555
C42 O5 1_555 1_555
C44 O6 1_555 1_555
C45 C46 1_555 1_555
C47 C48 1_555 1_555
N2 N3 1_555 1_555
N4 K1 1_555 1_555
N4 Ir1 1_555 1_555
O1 Ir1 1_555 1_555
O2 K1 1_555 1_555
O3 K1 1_555 1_555

#END
