
#######################################################################
#
#                 Cambridge Crystallographic Data Centre
#                                CCDC 
#
#######################################################################
#
# If this CIF has been generated from an entry in the Cambridge 
# Structural Database, then it will include bibliographic, chemical, 
# crystal, experimental, refinement or atomic coordinate data resulting 
# from the CCDC's data processing and validation procedures.
#
#######################################################################

data_OMIXEO
_symmetry_cell_setting           monoclinic
_symmetry_space_group_name_H-M   'P 21/n'
_symmetry_Int_Tables_number      14
_space_group_name_Hall           '-P 2yn'
loop_
_symmetry_equiv_pos_site_id
_symmetry_equiv_pos_as_xyz
1 x,y,z
2 1/2-x,1/2+y,1/2-z
3 -x,-y,-z
4 1/2+x,1/2-y,1/2+z
_cell_length_a                   5.909(3)
_cell_length_b                   17.798(8)
_cell_length_c                   9.302(5)
_cell_angle_alpha                90
_cell_angle_beta                 106.374(7)
_cell_angle_gamma                90
_cell_volume                     938.599
loop_
_atom_site_label
_atom_site_type_symbol
_atom_site_fract_x
_atom_site_fract_y
_atom_site_fract_z
Co1 Co 0.2105(2) 0.13893(7) 0.01187(16)
Zn1 Zn -0.2391(2) 0.14543(7) 0.23944(17)
Br1 Br 0.1174(2) 0.16469(7) 0.42115(16)
O1 O -0.5120(11) 0.1209(4) -0.0784(9)
O2 O -0.1382(12) 0.1391(4) 0.0451(8)
O3 O -0.2669(13) -0.0412(4) -0.1338(9)
O4 O -0.0492(11) 0.2992(4) -0.3216(8)
O5 O 0.1094(12) 0.2308(4) -0.1240(9)
O6 O 0.0009(10) 0.0784(4) -0.1766(8)
C1 C -0.4058(16) 0.0534(5) -0.3164(12)
H1 H -0.5588 0.0771 -0.3549
H2 H -0.3479 0.0409 -0.4012
O7 O -0.6356(13) -0.0492(4) -0.2816(11)
C2 C -0.0487(15) 0.2399(5) -0.2426(12)
C3 C -0.2384(16) 0.1085(5) -0.2172(12)
C4 C -0.4353(18) -0.0184(6) -0.2358(13)
C5 C -0.2350(17) 0.1822(5) -0.3053(13)
H3 H -0.2231 0.1684 -0.4037
H4 H -0.3869 0.2064 -0.3197
C6 C -0.3011(18) 0.1237(5) -0.0720(13)
Co1_2 Co -0.7895(2) 0.13893(7) 0.01187(16)
Co1B Co -0.2105(2) -0.13893(7) -0.01187(16)
Co1C Co -0.2895(2) 0.36107(7) -0.48813(16)
Zn1C Zn 0.2609(2) 0.35457(7) -0.26056(17)
Zn1B Zn -0.7609(2) -0.14543(7) -0.23944(17)
O1_2 O 0.4880(11) 0.1209(4) -0.0784(9)
O3B O 0.2669(13) 0.0412(4) 0.1338(9)
O4C O -0.5492(11) 0.2008(4) 0.1784(8)
O4C_2 O 0.4508(11) 0.2008(4) 0.1784(8)
O7B O -0.3644(13) 0.0492(4) 0.2816(11)
loop_
_geom_bond_atom_site_label_1
_geom_bond_atom_site_label_2
_geom_bond_site_symmetry_1
_geom_bond_site_symmetry_2
Co1 O2 1_555 1_555
Zn1 Br1 1_555 1_555
O1 C6 1_555 1_555
O2 Zn1 1_555 1_555
O3 C4 1_555 1_555
O4 C2 1_555 1_555
O5 Co1 1_555 1_555
O6 Co1 1_555 1_555
C1 H1 1_555 1_555
H2 C1 1_555 1_555
O7 C4 1_555 1_555
C2 O5 1_555 1_555
C3 O6 1_555 1_555
C4 C1 1_555 1_555
C5 C2 1_555 1_555
H3 C5 1_555 1_555
H4 C5 1_555 1_555
C6 O2 1_555 1_555
Co1_2 O1 1_555 1_555
Co1B O3 1_555 1_555
Co1C O4 1_555 1_555
Zn1C O4 1_555 1_555
Zn1B O7 1_555 1_555
O1_2 Co1 1_555 1_555
O3B Co1 1_555 1_555
O4C Zn1 1_555 1_555
O4C_2 Co1 1_555 1_555
O7B Zn1 1_555 1_555
C1 C3 1_555 1_555
C3 C5 1_555 1_555
C3 C6 1_555 1_555
Co1_2 O4C 1_555 1_555

#END
