
#######################################################################
#
#                 Cambridge Crystallographic Data Centre
#                                CCDC 
#
#######################################################################
#
# If this CIF has been generated from an entry in the Cambridge 
# Structural Database, then it will include bibliographic, chemical, 
# crystal, experimental, refinement or atomic coordinate data resulting 
# from the CCDC's data processing and validation procedures.
#
#######################################################################

data_OMIXAK
_symmetry_cell_setting           monoclinic
_symmetry_space_group_name_H-M   'P 21/n'
_symmetry_Int_Tables_number      14
_space_group_name_Hall           '-P 2yn'
loop_
_symmetry_equiv_pos_site_id
_symmetry_equiv_pos_as_xyz
1 x,y,z
2 1/2-x,1/2+y,1/2-z
3 -x,-y,-z
4 1/2+x,1/2-y,1/2+z
_cell_length_a                   5.8699(5)
_cell_length_b                   17.7963(13)
_cell_length_c                   9.2152(8)
_cell_angle_alpha                90
_cell_angle_beta                 106.806(4)
_cell_angle_gamma                90
_cell_volume                     921.528
loop_
_atom_site_label
_atom_site_type_symbol
_atom_site_fract_x
_atom_site_fract_y
_atom_site_fract_z
Co1 Co 0.71346(7) 0.13797(2) 0.51781(5)
Zn1 Zn 0.26834(7) 0.14516(2) 0.74747(4)
Cl1 Cl 0.60810(17) 0.16911(6) 0.91608(11)
O1 O 0.3603(4) 0.13748(14) 0.5504(3)
O2 O -0.0190(4) 0.11999(16) 0.4192(3)
O3 O 0.2294(4) -0.04115(13) 0.3598(3)
O4 O 0.4573(4) 0.29858(13) 0.1829(3)
O5 O 0.4992(4) 0.07892(13) 0.3223(3)
O6 O 0.6103(4) 0.23008(13) 0.3836(3)
C1 C 0.1926(6) 0.12372(18) 0.4284(4)
O7 O -0.1454(5) -0.04788(15) 0.2099(3)
C2 C 0.4539(6) 0.23922(18) 0.2618(4)
C3 C 0.2629(5) 0.10969(17) 0.2828(4)
C4 C 0.0532(6) -0.01696(18) 0.2558(4)
C5 C 0.0868(6) 0.05572(18) 0.1793(4)
H1 H 0.1421 0.0441 0.0923
H2 H -0.0661 0.0806 0.1423
C6 C 0.2615(6) 0.18313(18) 0.1943(4)
H3 H 0.2712 0.1701 0.0941
H4 H 0.1092 0.2076 0.1815
Co1_2 Co -0.28654(7) 0.13797(2) 0.51781(5)
Co1B Co 0.28654(7) -0.13797(2) 0.48219(5)
Co1C Co 0.21346(7) 0.36203(2) 0.01781(5)
Zn1C Zn 0.76834(7) 0.35484(2) 0.24747(4)
Zn1B Zn -0.26834(7) -0.14516(2) 0.25253(4)
O2_2 O 0.9810(4) 0.11999(16) 0.4192(3)
O3B O 0.7706(4) 0.04115(13) 0.6402(3)
O4C O 0.9573(4) 0.20142(13) 0.6829(3)
O4C_2 O -0.0427(4) 0.20142(13) 0.6829(3)
O7B O 0.1454(5) 0.04788(15) 0.7901(3)
loop_
_geom_bond_atom_site_label_1
_geom_bond_atom_site_label_2
_geom_bond_site_symmetry_1
_geom_bond_site_symmetry_2
Co1 O1 1_555 1_555
Zn1 Cl1 1_555 1_555
O1 Zn1 1_555 1_555
O2 C1 1_555 1_555
O3 C4 1_555 1_555
O4 C2 1_555 1_555
O5 Co1 1_555 1_555
O6 Co1 1_555 1_555
C1 O1 1_555 1_555
O7 C4 1_555 1_555
C2 O6 1_555 1_555
C3 O5 1_555 1_555
C4 C5 1_555 1_555
C5 C3 1_555 1_555
H1 C5 1_555 1_555
H2 C5 1_555 1_555
C6 C2 1_555 1_555
H3 C6 1_555 1_555
H4 C6 1_555 1_555
Co1_2 O2 1_555 1_555
Co1B O3 1_555 1_555
Co1C O4 1_555 1_555
Zn1C O4 1_555 1_555
Zn1B O7 1_555 1_555
O2_2 Co1 1_555 1_555
O3B Co1 1_555 1_555
O4C Co1 1_555 1_555
O4C_2 Zn1 1_555 1_555
O7B Zn1 1_555 1_555
C1 C3 1_555 1_555
C3 C6 1_555 1_555
Co1_2 O4C_2 1_555 1_555

#END
