
#######################################################################
#
#                 Cambridge Crystallographic Data Centre
#                                CCDC 
#
#######################################################################
#
# If this CIF has been generated from an entry in the Cambridge 
# Structural Database, then it will include bibliographic, chemical, 
# crystal, experimental, refinement or atomic coordinate data resulting 
# from the CCDC's data processing and validation procedures.
#
#######################################################################

data_OMOBAU
_symmetry_cell_setting           triclinic
_symmetry_space_group_name_H-M   'P -1'
_symmetry_Int_Tables_number      2
_space_group_name_Hall           '-P 1'
loop_
_symmetry_equiv_pos_site_id
_symmetry_equiv_pos_as_xyz
1 x,y,z
2 -x,-y,-z
_cell_length_a                   7.3659(6)
_cell_length_b                   8.9682(7)
_cell_length_c                   9.5739(7)
_cell_angle_alpha                87.109(1)
_cell_angle_beta                 86.690(1)
_cell_angle_gamma                83.293(1)
_cell_volume                     626.456
loop_
_atom_site_label
_atom_site_type_symbol
_atom_site_fract_x
_atom_site_fract_y
_atom_site_fract_z
Dy1 Dy 0.14459(2) 0.637253(18) 0.603789(17)
N1 N 0.3578(5) 0.6895(4) 0.7835(3)
N2 N 0.6187(5) 0.7512(4) 0.8587(4)
H1 H 0.7252 0.7820 0.8556
C1 C 0.3529(6) 0.6735(4) 0.9292(4)
C2 C 0.2210(5) 0.6252(4) 1.0254(4)
H2 H 0.1103 0.6018 0.9953
C3 C 0.5180(6) 0.7350(5) 0.7488(4)
H3 H 0.5582 0.7543 0.6565
C4 C 0.5186(5) 0.7091(4) 0.9770(4)
C5 C 0.5589(6) 0.6946(5) 1.1170(4)
H4 H 0.6710 0.7164 1.1459
C6 C 0.1091(5) 0.5498(4) 1.2608(4)
C7 C 0.4769(5) 0.6449(4) 1.3632(4)
C8 C 0.2563(5) 0.6121(4) 1.1673(4)
C9 C 0.4263(5) 0.6465(4) 1.2133(4)
O1 O 0.1350(4) 0.5068(3) 1.3880(3)
O2 O 0.6340(4) 0.5858(3) 1.3943(3)
O3 O 0.3655(4) 0.7133(3) 1.4505(3)
O4 O -0.0403(4) 0.5336(3) 1.2095(3)
O5 O 0.1249(4) 0.9230(3) 0.6266(3)
O6 O -0.0324(4) 0.7868(3) 0.7747(3)
C10 C 0.0148(6) 0.9130(5) 0.7308(5)
C11 C -0.0638(12) 1.0490(6) 0.8048(8)
H5 H -0.1775 1.0884 0.7656
H6 H 0.0202 1.1235 0.7943
H7 H -0.0848 1.0231 0.9024
O7 O -0.1033(5) 0.7747(4) 0.4753(4)
H8 H -0.105(8) 0.861(7) 0.451(6)
H9 H -0.181(9) 0.745(7) 0.461(7)
Dy1_2 Dy 0.14459(2) 0.637253(18) 1.603789(17)
Dy1A Dy -0.14459(2) 0.362747(18) 1.396211(17)
Dy1A_2 Dy 0.85541(2) 0.362747(18) 1.396211(17)
O1_2 O 0.1350(4) 0.5068(3) 0.3880(3)
O1A O -0.1350(4) 0.4932(3) 0.6120(3)
O2A O 0.3660(4) 0.4142(3) 0.6057(3)
O3_2 O 0.3655(4) 0.7133(3) 0.4505(3)
O4A O 0.0403(4) 0.4664(3) 0.7905(3)
loop_
_geom_bond_atom_site_label_1
_geom_bond_atom_site_label_2
_geom_bond_site_symmetry_1
_geom_bond_site_symmetry_2
Dy1 N1 1_555 1_555
N1 C1 1_555 1_555
N2 H1 1_555 1_555
C1 C2 1_555 1_555
C2 H2 1_555 1_555
C3 N1 1_555 1_555
H3 C3 1_555 1_555
C4 N2 1_555 1_555
C5 C4 1_555 1_555
H4 C5 1_555 1_555
C6 C8 1_555 1_555
C7 C9 1_555 1_555
C8 C2 1_555 1_555
C9 C5 1_555 1_555
O1 C6 1_555 1_555
O2 C7 1_555 1_555
O3 C7 1_555 1_555
O4 C6 1_555 1_555
O5 Dy1 1_555 1_555
O6 Dy1 1_555 1_555
C10 O5 1_555 1_555
C11 C10 1_555 1_555
H5 C11 1_555 1_555
H6 C11 1_555 1_555
H7 C11 1_555 1_555
O7 Dy1 1_555 1_555
H8 O7 1_555 1_555
H9 O7 1_555 1_555
Dy1_2 O1 1_555 1_555
Dy1A O1 1_555 1_555
Dy1A_2 O2 1_555 1_555
O1_2 Dy1 1_555 1_555
O1A Dy1 1_555 1_555
O2A Dy1 1_555 1_555
O3_2 Dy1 1_555 1_555
O4A Dy1 1_555 1_555
N2 C3 1_555 1_555
C1 C4 1_555 1_555
C8 C9 1_555 1_555
O3 Dy1_2 1_555 1_555
O4 Dy1A 1_555 1_555
O6 C10 1_555 1_555

#END
