
#######################################################################
#
#                 Cambridge Crystallographic Data Centre
#                                CCDC 
#
#######################################################################
#
# If this CIF has been generated from an entry in the Cambridge 
# Structural Database, then it will include bibliographic, chemical, 
# crystal, experimental, refinement or atomic coordinate data resulting 
# from the CCDC's data processing and validation procedures.
#
#######################################################################

data_OMOGAY01
_symmetry_cell_setting           triclinic
_symmetry_space_group_name_H-M   'P -1'
_symmetry_Int_Tables_number      2
_space_group_name_Hall           '-P 1'
loop_
_symmetry_equiv_pos_site_id
_symmetry_equiv_pos_as_xyz
1 x,y,z
2 -x,-y,-z
_cell_length_a                   7.5689(8)
_cell_length_b                   8.9882(7)
_cell_length_c                   10.6594(12)
_cell_angle_alpha                80.325(7)
_cell_angle_beta                 73.092(5)
_cell_angle_gamma                77.077(3)
_cell_volume                     672.108
loop_
_atom_site_label
_atom_site_type_symbol
_atom_site_fract_x
_atom_site_fract_y
_atom_site_fract_z
Co1 Co 0.16897(4) 0.14325(4) 0.27727(3)
O1 O 0.2927(3) -0.0231(2) 0.3982(2)
H1 H 0.3003 -0.1173 0.3913
H2 H 0.3363 0.0019 0.4551
O2 O -0.0927(2) 0.1842(2) 0.40694(18)
O3 O -0.1025(3) 0.3517(2) 0.23500(18)
O4 O -0.4513(3) 0.1634(2) 0.3344(3)
O5 O -0.7303(3) 0.3083(2) 0.33308(18)
N1 N 0.1289(3) -0.0475(2) 0.1965(2)
N2 N 0.2807(3) 0.1890(2) 0.07735(19)
C1 C -0.3205(3) 0.5008(2) 0.5029(2)
H3 H -0.1989 0.5013 0.5056
C2 C -0.3475(3) 0.3990(2) 0.4292(2)
C3 C -0.5315(3) 0.3977(2) 0.4269(2)
C4 C -0.5715(3) 0.2811(3) 0.3576(2)
C5 C -0.1740(3) 0.3045(3) 0.3484(2)
C6 C 0.0579(4) -0.1697(3) 0.2666(3)
H4 H 0.0109 -0.1707 0.3576
C7 C 0.0525(4) -0.2948(3) 0.2074(3)
H5 H 0.0063 -0.3794 0.2583
C8 C 0.1162(4) -0.2913(3) 0.0727(3)
H6 H 0.1072 -0.3712 0.0309
C9 C 0.1939(4) -0.1683(3) -0.0002(3)
H7 H 0.2419 -0.1655 -0.0913
C10 C 0.1986(3) -0.0488(3) 0.0657(2)
C11 C 0.2804(3) 0.0880(3) -0.0031(2)
C12 C 0.3503(4) 0.1135(3) -0.1378(2)
H8 H 0.3538 0.0409 -0.1915
C13 C 0.4154(4) 0.2486(3) -0.1923(3)
H9 H 0.4636 0.2674 -0.2831
C14 C 0.4080(4) 0.3550(3) -0.1105(3)
H10 H 0.4459 0.4484 -0.1451
C15 C 0.3432(4) 0.3193(3) 0.0232(3)
H11 H 0.3427 0.3890 0.0787
Co1A Co -1.16897(4) 0.85675(4) 0.72273(3)
Co1_2 Co -0.83103(4) 0.14325(4) 0.27727(3)
Co1A_2 Co -0.16897(4) 0.85675(4) 0.72273(3)
O1A O -1.2927(3) 1.0231(2) 0.6018(2)
H1A H -1.3003 1.1173 0.6087
H2A H -1.3363 0.9981 0.5449
O2A O -0.9073(2) 0.8158(2) 0.59306(18)
O3A O -0.8975(3) 0.6483(2) 0.76500(18)
O4A O -0.5487(3) 0.8366(2) 0.6656(3)
O5A O -0.2697(3) 0.6917(2) 0.66692(18)
O5_2 O 0.2697(3) 0.3083(2) 0.33308(18)
O5A_2 O -1.2697(3) 0.6917(2) 0.66692(18)
N1A N -1.1289(3) 1.0475(2) 0.8035(2)
N2A N -1.2807(3) 0.8110(2) 0.92265(19)
C1A C -0.6795(3) 0.4992(2) 0.4971(2)
H3A H -0.8011 0.4987 0.4944
C2A C -0.6525(3) 0.6010(2) 0.5708(2)
C3A C -0.4685(3) 0.6023(2) 0.5731(2)
C4A C -0.4285(3) 0.7189(3) 0.6424(2)
C5A C -0.8260(3) 0.6955(3) 0.6516(2)
C6A C -1.0579(4) 1.1697(3) 0.7334(3)
H4A H -1.0109 1.1707 0.6424
C7A C -1.0525(4) 1.2948(3) 0.7926(3)
H5A H -1.0063 1.3794 0.7417
C8A C -1.1162(4) 1.2913(3) 0.9273(3)
H6A H -1.1072 1.3712 0.9691
C9A C -1.1939(4) 1.1683(3) 1.0002(3)
H7A H -1.2419 1.1655 1.0913
C10A C -1.1986(3) 1.0488(3) 0.9343(2)
C11A C -1.2804(3) 0.9120(3) 1.0031(2)
C12A C -1.3503(4) 0.8865(3) 1.1378(2)
H8A H -1.3538 0.9591 1.1915
C13A C -1.4154(4) 0.7514(3) 1.1923(3)
H9A H -1.4636 0.7326 1.2831
C14A C -1.4080(4) 0.6450(3) 1.1105(3)
H10A H -1.4459 0.5516 1.1451
C15A C -1.3432(4) 0.6807(3) 0.9768(3)
H11A H -1.3427 0.6110 0.9213
loop_
_geom_bond_atom_site_label_1
_geom_bond_atom_site_label_2
_geom_bond_site_symmetry_1
_geom_bond_site_symmetry_2
Co1 O1 1_555 1_555
O1 H1 1_555 1_555
H2 O1 1_555 1_555
O2 Co1 1_555 1_555
O3 C5 1_555 1_555
O4 C4 1_555 1_555
O5 C4 1_555 1_555
N1 Co1 1_555 1_555
N2 Co1 1_555 1_555
C1 H3 1_555 1_555
C2 C1 1_555 1_555
C3 C2 1_555 1_555
C4 C3 1_555 1_555
C5 O2 1_555 1_555
C6 N1 1_555 1_555
H4 C6 1_555 1_555
C7 C6 1_555 1_555
H5 C7 1_555 1_555
C8 C7 1_555 1_555
H6 C8 1_555 1_555
C9 C8 1_555 1_555
H7 C9 1_555 1_555
C10 N1 1_555 1_555
C11 N2 1_555 1_555
C12 C11 1_555 1_555
H8 C12 1_555 1_555
C13 C12 1_555 1_555
H9 C13 1_555 1_555
C14 C13 1_555 1_555
H10 C14 1_555 1_555
C15 N2 1_555 1_555
H11 C15 1_555 1_555
Co1A O1A 1_555 1_555
Co1_2 O5 1_555 1_555
Co1A_2 O5A 1_555 1_555
O1A H1A 1_555 1_555
H2A O1A 1_555 1_555
O2A Co1A 1_555 1_555
O3A C5A 1_555 1_555
O4A C4A 1_555 1_555
O5A C4A 1_555 1_555
O5_2 Co1 1_555 1_555
O5A_2 Co1A 1_555 1_555
N1A Co1A 1_555 1_555
N2A Co1A 1_555 1_555
C1A C3 1_555 1_555
H3A C1A 1_555 1_555
C2A C1A 1_555 1_555
C3A C1 1_555 1_555
C4A C3A 1_555 1_555
C5A O2A 1_555 1_555
C6A N1A 1_555 1_555
H4A C6A 1_555 1_555
C7A C6A 1_555 1_555
H5A C7A 1_555 1_555
C8A C7A 1_555 1_555
H6A C8A 1_555 1_555
C9A C8A 1_555 1_555
H7A C9A 1_555 1_555
C10A N1A 1_555 1_555
C11A N2A 1_555 1_555
C12A C11A 1_555 1_555
H8A C12A 1_555 1_555
C13A C12A 1_555 1_555
H9A C13A 1_555 1_555
C14A C13A 1_555 1_555
H10A C14A 1_555 1_555
C15A N2A 1_555 1_555
H11A C15A 1_555 1_555
C2 C5 1_555 1_555
C9 C10 1_555 1_555
C10 C11 1_555 1_555
C14 C15 1_555 1_555
C2A C3A 1_555 1_555
C2A C5A 1_555 1_555
C9A C10A 1_555 1_555
C10A C11A 1_555 1_555
C14A C15A 1_555 1_555

#END
