
#######################################################################
#
#                 Cambridge Crystallographic Data Centre
#                                CCDC 
#
#######################################################################
#
# If this CIF has been generated from an entry in the Cambridge 
# Structural Database, then it will include bibliographic, chemical, 
# crystal, experimental, refinement or atomic coordinate data resulting 
# from the CCDC's data processing and validation procedures.
#
#######################################################################

data_OMOXIY
_symmetry_cell_setting           orthorhombic
_symmetry_space_group_name_H-M   'P b c a'
_symmetry_Int_Tables_number      61
_space_group_name_Hall           '-P 2ac 2ab'
loop_
_symmetry_equiv_pos_site_id
_symmetry_equiv_pos_as_xyz
1 x,y,z
2 1/2-x,-y,1/2+z
3 1/2+x,1/2-y,-z
4 -x,1/2+y,1/2-z
5 -x,-y,-z
6 1/2+x,y,1/2-z
7 1/2-x,1/2+y,z
8 x,1/2-y,1/2+z
_cell_length_a                   19.640(18)
_cell_length_b                   9.115(9)
_cell_length_c                   23.50(2)
_cell_angle_alpha                90
_cell_angle_beta                 90
_cell_angle_gamma                90
_cell_volume                     4206.94
loop_
_atom_site_label
_atom_site_type_symbol
_atom_site_fract_x
_atom_site_fract_y
_atom_site_fract_z
O1 O -0.06118(11) -0.2084(2) 0.30788(10)
C1 C -0.02942(16) -0.2192(4) 0.35433(15)
C2 C -0.04466(16) -0.1015(3) 0.39728(13)
C3 C -0.03943(18) 0.1452(4) 0.43480(15)
C4 C -0.11041(19) -0.0239(4) 0.47816(14)
C5 C -0.02022(16) 0.0397(3) 0.39259(13)
C6 C -0.09100(18) -0.1359(4) 0.44150(15)
O2 O 0.06896(11) -0.0025(2) 0.32596(10)
Ni1 Ni 0.07858(2) 0.13305(4) 0.252299(18)
N1 N 0.15926(14) 0.0447(3) 0.20849(12)
N2 N 0.15748(13) 0.2469(3) 0.29013(11)
N3 N -0.08405(17) 0.1157(4) 0.47523(13)
O3 O 0.00916(14) -0.3216(3) 0.36858(11)
O4 O 0.00780(11) 0.1966(2) 0.31537(10)
O5 O 0.00616(12) 0.0017(2) 0.21663(10)
H1 H 0.0018 -0.0869 0.2060
H2 H 0.0009 0.0570 0.1879
C7 C 0.02219(16) 0.0805(4) 0.34254(14)
C8 C -0.0089(2) 0.2949(4) 0.43615(17)
H5 H -0.0269 0.3485 0.4679
H6 H -0.0197 0.3456 0.4015
H7 H 0.0397 0.2871 0.4399
C9 C -0.1221(2) -0.2769(4) 0.44751(17)
H8 H -0.1084 -0.3546 0.4246
C10 C -0.1716(3) -0.2962(6) 0.4868(2)
H9 H -0.1918 -0.3880 0.4908
C11 C -0.1939(3) -0.1765(6) 0.5229(2)
H10 H -0.2292 -0.1906 0.5487
C12 C -0.1630(3) -0.0441(6) 0.5189(2)
H11 H -0.1761 0.0328 0.5425
C13 C 0.15921(19) -0.0527(4) 0.16658(16)
H12 H 0.1177 -0.0883 0.1534
C14 C 0.2188(2) -0.1036(4) 0.14164(17)
H13 H 0.2169 -0.1700 0.1116
C15 C 0.2792(2) -0.0563(4) 0.16118(18)
H14 H 0.3193 -0.0922 0.1453
C16 C 0.28232(18) 0.0460(4) 0.20499(16)
C17 C 0.34402(19) 0.1026(4) 0.2286(2)
H15 H 0.3856 0.0697 0.2146
C18 C 0.34307(19) 0.2034(4) 0.2710(2)
H16 H 0.3840 0.2384 0.2855
C19 C 0.28052(17) 0.2568(4) 0.29381(16)
C20 C 0.2766(2) 0.3621(4) 0.33657(16)
H17 H 0.3162 0.4012 0.3522
C21 C 0.21449(19) 0.4075(4) 0.35535(16)
H18 H 0.2111 0.4780 0.3838
C22 C 0.15614(19) 0.3466(4) 0.33127(16)
H19 H 0.1140 0.3775 0.3448
C23 C 0.22027(16) 0.0957(4) 0.22723(15)
C24 C 0.21943(16) 0.2029(3) 0.27144(15)
O1C O 0.06118(11) 0.2916(2) 0.19212(10)
Ni1C Ni -0.07858(2) -0.36695(4) 0.247701(18)
O6 O 0.12802(18) 0.6629(4) 0.43962(16)
H3 H 0.0946 0.6611 0.4166
H4 H 0.1191 0.7246 0.4657
loop_
_geom_bond_atom_site_label_1
_geom_bond_atom_site_label_2
_geom_bond_site_symmetry_1
_geom_bond_site_symmetry_2
O1 C1 1_555 1_555
C1 C2 1_555 1_555
C2 C5 1_555 1_555
C3 C5 1_555 1_555
C4 C6 1_555 1_555
C5 C7 1_555 1_555
C6 C2 1_555 1_555
O2 Ni1 1_555 1_555
Ni1 N1 1_555 1_555
N1 C13 1_555 1_555
N2 Ni1 1_555 1_555
N3 C3 1_555 1_555
O3 C1 1_555 1_555
O4 Ni1 1_555 1_555
O5 Ni1 1_555 1_555
H1 O5 1_555 1_555
H2 O5 1_555 1_555
O6 H3 1_555 1_555
H4 O6 1_555 1_555
C7 O2 1_555 1_555
C8 C3 1_555 1_555
H5 C8 1_555 1_555
H6 C8 1_555 1_555
H7 C8 1_555 1_555
C9 C6 1_555 1_555
H8 C9 1_555 1_555
C10 C9 1_555 1_555
H9 C10 1_555 1_555
C11 C10 1_555 1_555
H10 C11 1_555 1_555
C12 C4 1_555 1_555
H11 C12 1_555 1_555
C13 H12 1_555 1_555
C14 C13 1_555 1_555
H13 C14 1_555 1_555
C15 C14 1_555 1_555
H14 C15 1_555 1_555
C16 C15 1_555 1_555
C17 C16 1_555 1_555
H15 C17 1_555 1_555
C18 C17 1_555 1_555
H16 C18 1_555 1_555
C19 C18 1_555 1_555
C20 C19 1_555 1_555
H17 C20 1_555 1_555
C21 C20 1_555 1_555
H18 C21 1_555 1_555
C22 N2 1_555 1_555
H19 C22 1_555 1_555
C23 N1 1_555 1_555
C24 N2 1_555 1_555
O1C Ni1 1_555 1_555
Ni1C O1 1_555 1_555
C4 N3 1_555 1_555
O4 C7 1_555 1_555
C11 C12 1_555 1_555
C16 C23 1_555 1_555
C19 C24 1_555 1_555
C21 C22 1_555 1_555
C23 C24 1_555 1_555

#END
