
#######################################################################
#
#                 Cambridge Crystallographic Data Centre
#                                CCDC 
#
#######################################################################
#
# If this CIF has been generated from an entry in the Cambridge 
# Structural Database, then it will include bibliographic, chemical, 
# crystal, experimental, refinement or atomic coordinate data resulting 
# from the CCDC's data processing and validation procedures.
#
#######################################################################

data_OMOYIZ
_symmetry_cell_setting           triclinic
_symmetry_space_group_name_H-M   'P -1'
_symmetry_Int_Tables_number      2
_space_group_name_Hall           '-P 1'
loop_
_symmetry_equiv_pos_site_id
_symmetry_equiv_pos_as_xyz
1 x,y,z
2 -x,-y,-z
_cell_length_a                   13.111(3)
_cell_length_b                   13.657(3)
_cell_length_c                   14.245(3)
_cell_angle_alpha                66.57(3)
_cell_angle_beta                 83.14(3)
_cell_angle_gamma                61.95(3)
_cell_volume                     2058.25
loop_
_atom_site_label
_atom_site_type_symbol
_atom_site_fract_x
_atom_site_fract_y
_atom_site_fract_z
C1 C 0.9867(8) 0.5839(7) -0.2942(6)
H1 H 1.0706 0.5474 -0.2935
H2 H 0.9566 0.5935 -0.3580
Ni1 Ni 0.69496(7) 0.07254(8) 0.62775(6)
N1 N 0.6890(5) 0.0899(5) 0.7603(4)
N2 N 0.6914(4) 0.0558(5) 0.4911(4)
N3 N 0.7321(5) 0.0069(5) 0.3567(4)
O1 O 0.8213(3) 0.1352(4) 0.6191(3)
O2 O 0.5678(4) 0.0174(5) 0.7012(4)
N4 N 0.8260(5) 0.8908(5) -0.3082(4)
O3 O 0.8739(4) 0.2225(4) 0.6947(3)
C2 C 0.7524(6) 0.1442(6) 0.8710(5)
H3 H 0.7967 0.1756 0.8827
C3 C 0.7953(7) -0.0287(6) 0.2753(5)
H4 H 0.7497 -0.0466 0.2419
H5 H 0.8672 -0.1019 0.3053
C4 C 0.9417(6) 0.1173(6) 0.0622(5)
H6 H 1.0044 0.0925 0.0239
C5 C 0.7745(6) 0.0135(6) 0.4348(4)
C6 C 0.8236(5) 0.1661(6) 0.6904(5)
C7 C 0.8741(6) 0.2395(6) 0.0409(5)
C8 C 0.8227(6) 0.0664(6) 0.1958(5)
C9 C 0.5504(8) 0.0213(9) 0.7892(6)
C10 C 0.7811(6) 0.2728(6) 0.0999(5)
H7 H 0.7352 0.3537 0.0884
C11 C 0.6196(7) 0.0596(7) 0.8292(5)
C12 C 0.7561(6) 0.1867(6) 0.1754(5)
H8 H 0.6927 0.2110 0.2131
C13 C 0.3839(8) 0.4049(10) 0.4976(9)
H9 H 0.3039 0.4519 0.4925
C14 C 0.9019(6) 0.3291(6) -0.0433(5)
N5 N 0.5645(5) 0.2533(6) 0.5520(5)
N6 N 0.9424(6) 0.7043(6) -0.2911(4)
C15 C 0.8349(7) 0.7967(7) -0.3205(5)
C16 C 0.6137(7) 0.0489(7) 0.3644(5)
H10 H 0.5611 0.0564 0.3203
C17 C 0.7529(5) 0.1330(5) 0.7797(5)
O4 O 0.4767(7) -0.0053(8) 0.8455(5)
C18 C 0.8979(5) -0.0226(6) 0.4525(5)
H11 H 0.9086 -0.0099 0.5115
H12 H 0.9218 0.0250 0.3934
H13 H 0.9438 -0.1062 0.4642
C19 C 0.9173(6) 0.0312(6) 0.1395(5)
H14 H 0.9646 -0.0502 0.1534
C20 C 0.6159(7) 0.0656(7) 0.9246(5)
H15 H 0.5689 0.0420 0.9727
C21 C 0.5897(6) 0.0764(6) 0.4471(5)
H16 H 0.5169 0.1048 0.4717
C22 C 0.9345(8) 0.8537(8) -0.2674(5)
H17 H 0.9546 0.9015 -0.2499
C23 C 0.4216(9) 0.4623(13) 0.2201(8)
H18 H 0.3847 0.4238 0.2692
C24 C 0.9320(7) 0.3183(6) -0.1354(6)
H19 H 0.9355 0.2534 -0.1451
C25 C 0.9577(8) 0.4023(7) -0.2151(6)
H20 H 0.9783 0.3917 -0.2764
C26 C 0.5063(10) 0.5867(9) 0.1670(9)
H21 H 0.5298 0.6357 0.1787
C27 C 0.5723(7) 0.3377(7) 0.4675(6)
C28 C 0.4364(9) 0.5475(9) 0.3389(8)
H22 H 0.3556 0.6046 0.3365
H23 H 0.4832 0.5827 0.3453
C29 C 0.9532(7) 0.5002(7) -0.2051(6)
C30 C 0.7400(7) 0.7865(7) -0.3596(6)
H24 H 0.6699 0.8613 -0.3764
H25 H 0.7274 0.7232 -0.3075
H26 H 0.7624 0.7686 -0.4198
C31 C 0.4385(9) 0.4483(13) 0.1268(9)
H27 H 0.4149 0.3989 0.1161
N7 N 0.4641(7) 0.4331(6) 0.4328(6)
C32 C 0.5231(10) 0.5751(9) 0.0739(8)
H28 H 0.5587 0.6156 0.0250
C33 C 0.8913(8) 0.4335(7) -0.0367(6)
H29 H 0.8653 0.4476 0.0225
C34 C 0.9177(8) 0.5147(7) -0.1136(6)
H30 H 0.9118 0.5810 -0.1047
C35 C 0.6850(7) 0.1080(7) 0.9464(6)
H31 H 0.6859 0.1120 1.0099
C36 C 1.0071(8) 0.7399(8) -0.2563(6)
H32 H 1.0846 0.6948 -0.2307
C37 C 0.6756(6) 0.3369(6) 0.4135(5)
H33 H 0.7429 0.2627 0.4495
H34 H 0.6852 0.4033 0.4109
H35 H 0.6660 0.3440 0.3449
C38 C 0.4889(8) 0.5053(10) 0.0510(7)
C39 C 0.4486(8) 0.2953(10) 0.5682(7)
H36 H 0.4189 0.2525 0.6218
C40 C 0.4570(10) 0.5297(9) 0.2413(8)
C1A C 0.0133(8) 0.4161(7) 0.2942(6)
H1A H -0.0706 0.4526 0.2935
H2A H 0.0434 0.4065 0.3580
Ni1A Ni 0.30504(7) 0.92746(8) -0.62775(6)
Ni1_2 Ni 0.69496(7) 1.07254(8) -0.37225(6)
Ni1A_2 Ni 0.30504(7) -0.07254(8) 0.37225(6)
N1A N 0.3110(5) 0.9101(5) -0.7603(4)
N2A N 0.3086(4) 0.9442(5) -0.4911(4)
N3A N 0.2679(5) 0.9931(5) -0.3567(4)
O1A O 0.1787(3) 0.8648(4) -0.6191(3)
O2A O 0.4322(4) 0.9826(5) -0.7012(4)
N4A N 0.1740(5) 0.1092(5) 0.3082(4)
N4_2 N 0.8260(5) -0.1092(5) 0.6918(4)
N4A_2 N 0.1740(5) 1.1092(5) -0.6918(4)
O3A O 0.1261(4) 0.7775(4) -0.6947(3)
C2A C 0.2476(6) 0.8558(6) -0.8710(5)
H3A H 0.2033 0.8244 -0.8827
C3A C 0.2047(7) 1.0287(6) -0.2753(5)
H4A H 0.2503 1.0466 -0.2419
H5A H 0.1328 1.1019 -0.3053
C4A C 0.0583(6) 0.8827(6) -0.0622(5)
H6A H -0.0044 0.9075 -0.0239
C5A C 0.2255(6) 0.9865(6) -0.4348(4)
C6A C 0.1764(5) 0.8339(6) -0.6904(5)
C7A C 0.1259(6) 0.7605(6) -0.0409(5)
C8A C 0.1773(6) 0.9336(6) -0.1958(5)
C9A C 0.4496(8) 0.9787(9) -0.7892(6)
C10A C 0.2189(6) 0.7272(6) -0.0999(5)
H7A H 0.2648 0.6463 -0.0884
C11A C 0.3804(7) 0.9404(7) -0.8292(5)
C12A C 0.2439(6) 0.8133(6) -0.1754(5)
H8A H 0.3073 0.7890 -0.2131
C13A C 0.6161(8) 0.5951(10) -0.4976(9)
H9A H 0.6961 0.5481 -0.4925
C14A C 0.0981(6) 0.6709(6) 0.0433(5)
N5A N 0.4355(5) 0.7467(6) -0.5520(5)
N6A N 0.0576(6) 0.2957(6) 0.2911(4)
C15A C 0.1651(7) 0.2033(7) 0.3205(5)
C16A C 0.3863(7) 0.9511(7) -0.3644(5)
H10A H 0.4389 0.9436 -0.3203
C17A C 0.2471(5) 0.8670(5) -0.7797(5)
O4A O 0.5233(7) 1.0053(8) -0.8455(5)
C18A C 0.1021(5) 1.0226(6) -0.4525(5)
H11A H 0.0914 1.0099 -0.5115
H12A H 0.0782 0.9750 -0.3934
H13A H 0.0562 1.1062 -0.4642
C19A C 0.0827(6) 0.9688(6) -0.1395(5)
H14A H 0.0354 1.0502 -0.1534
C20A C 0.3841(7) 0.9344(7) -0.9246(5)
H15A H 0.4311 0.9580 -0.9727
C21A C 0.4103(6) 0.9236(6) -0.4471(5)
H16A H 0.4831 0.8952 -0.4717
C22A C 0.0655(8) 0.1463(8) 0.2674(5)
H17A H 0.0454 0.0985 0.2499
C23A C 0.5784(9) 0.5377(13) -0.2201(8)
H18A H 0.6153 0.5762 -0.2692
C24A C 0.0680(7) 0.6817(6) 0.1354(6)
H19A H 0.0645 0.7466 0.1451
C25A C 0.0423(8) 0.5977(7) 0.2151(6)
H20A H 0.0217 0.6083 0.2764
C26A C 0.4937(10) 0.4133(9) -0.1670(9)
H21A H 0.4702 0.3643 -0.1787
C27A C 0.4277(7) 0.6623(7) -0.4675(6)
C28A C 0.5636(9) 0.4525(9) -0.3389(8)
H22A H 0.6444 0.3954 -0.3365
H23A H 0.5168 0.4173 -0.3453
C29A C 0.0468(7) 0.4998(7) 0.2051(6)
C30A C 0.2600(7) 0.2135(7) 0.3596(6)
H24A H 0.3301 0.1387 0.3764
H25A H 0.2726 0.2768 0.3075
H26A H 0.2376 0.2314 0.4198
C31A C 0.5615(9) 0.5517(13) -0.1268(9)
H27A H 0.5851 0.6011 -0.1161
N7A N 0.5359(7) 0.5669(6) -0.4328(6)
C32A C 0.4769(10) 0.4249(9) -0.0739(8)
H28A H 0.4413 0.3844 -0.0250
C33A C 0.1087(8) 0.5665(7) 0.0367(6)
H29A H 0.1347 0.5524 -0.0225
C34A C 0.0823(8) 0.4853(7) 0.1136(6)
H30A H 0.0882 0.4190 0.1047
C35A C 0.3150(7) 0.8920(7) -0.9464(6)
H31A H 0.3141 0.8880 -1.0099
C36A C -0.0071(8) 0.2601(8) 0.2563(6)
H32A H -0.0846 0.3052 0.2307
C37A C 0.3244(6) 0.6631(6) -0.4135(5)
H33A H 0.2571 0.7373 -0.4495
H34A H 0.3148 0.5967 -0.4109
H35A H 0.3340 0.6560 -0.3449
C38A C 0.5111(8) 0.4947(10) -0.0510(7)
C39A C 0.5514(8) 0.7047(10) -0.5682(7)
H36A H 0.5811 0.7475 -0.6218
C40A C 0.5430(10) 0.4703(9) -0.2413(8)
loop_
_geom_bond_atom_site_label_1
_geom_bond_atom_site_label_2
_geom_bond_site_symmetry_1
_geom_bond_site_symmetry_2
C1 H1 1_555 1_555
H2 C1 1_555 1_555
Ni1 N1 1_555 1_555
N1 C11 1_555 1_555
N2 Ni1 1_555 1_555
N3 C3 1_555 1_555
O1 Ni1 1_555 1_555
O2 Ni1 1_555 1_555
N4 C15 1_555 1_555
O3 C6 1_555 1_555
C2 H3 1_555 1_555
C3 H4 1_555 1_555
H5 C3 1_555 1_555
C4 H6 1_555 1_555
C5 N2 1_555 1_555
C6 O1 1_555 1_555
C7 C4 1_555 1_555
C8 C3 1_555 1_555
C9 O2 1_555 1_555
C10 C7 1_555 1_555
H7 C10 1_555 1_555
C11 C9 1_555 1_555
C12 C8 1_555 1_555
H8 C12 1_555 1_555
C13 H9 1_555 1_555
C14 C7 1_555 1_555
N5 Ni1 1_555 1_555
N6 C1 1_555 1_555
C15 N6 1_555 1_555
C16 N3 1_555 1_555
H10 C16 1_555 1_555
C17 N1 1_555 1_555
O4 C9 1_555 1_555
C18 C5 1_555 1_555
H11 C18 1_555 1_555
H12 C18 1_555 1_555
H13 C18 1_555 1_555
C19 C4 1_555 1_555
H14 C19 1_555 1_555
C20 C11 1_555 1_555
H15 C20 1_555 1_555
C21 N2 1_555 1_555
H16 C21 1_555 1_555
C22 N4 1_555 1_555
H17 C22 1_555 1_555
C23 H18 1_555 1_555
C24 C14 1_555 1_555
H19 C24 1_555 1_555
C25 C24 1_555 1_555
H20 C25 1_555 1_555
C26 H21 1_555 1_555
C27 N5 1_555 1_555
C28 H22 1_555 1_555
H23 C28 1_555 1_555
C29 C1 1_555 1_555
C30 C15 1_555 1_555
H24 C30 1_555 1_555
H25 C30 1_555 1_555
H26 C30 1_555 1_555
C31 C23 1_555 1_555
H27 C31 1_555 1_555
N7 C13 1_555 1_555
C32 C26 1_555 1_555
H28 C32 1_555 1_555
C33 C14 1_555 1_555
H29 C33 1_555 1_555
C34 C29 1_555 1_555
H30 C34 1_555 1_555
C35 C2 1_555 1_555
H31 C35 1_555 1_555
C36 N6 1_555 1_555
H32 C36 1_555 1_555
C37 C27 1_555 1_555
H33 C37 1_555 1_555
H34 C37 1_555 1_555
H35 C37 1_555 1_555
C38 C31 1_555 1_555
C39 C13 1_555 1_555
H36 C39 1_555 1_555
C40 C23 1_555 1_555
C1A H1A 1_555 1_555
H2A C1A 1_555 1_555
Ni1A N1A 1_555 1_555
Ni1_2 N4 1_555 1_555
Ni1A_2 N4A 1_555 1_555
N1A C11A 1_555 1_555
N2A Ni1A 1_555 1_555
N3A C3A 1_555 1_555
O1A Ni1A 1_555 1_555
O2A Ni1A 1_555 1_555
N4A C15A 1_555 1_555
N4_2 Ni1 1_555 1_555
N4A_2 Ni1A 1_555 1_555
O3A C6A 1_555 1_555
C2A H3A 1_555 1_555
C3A H4A 1_555 1_555
H5A C3A 1_555 1_555
C4A H6A 1_555 1_555
C5A N2A 1_555 1_555
C6A O1A 1_555 1_555
C7A C4A 1_555 1_555
C8A C3A 1_555 1_555
C9A O2A 1_555 1_555
C10A C7A 1_555 1_555
H7A C10A 1_555 1_555
C11A C9A 1_555 1_555
C12A C8A 1_555 1_555
H8A C12A 1_555 1_555
C13A H9A 1_555 1_555
C14A C7A 1_555 1_555
N5A Ni1A 1_555 1_555
N6A C1A 1_555 1_555
C15A N6A 1_555 1_555
C16A N3A 1_555 1_555
H10A C16A 1_555 1_555
C17A N1A 1_555 1_555
O4A C9A 1_555 1_555
C18A C5A 1_555 1_555
H11A C18A 1_555 1_555
H12A C18A 1_555 1_555
H13A C18A 1_555 1_555
C19A C4A 1_555 1_555
H14A C19A 1_555 1_555
C20A C11A 1_555 1_555
H15A C20A 1_555 1_555
C21A N2A 1_555 1_555
H16A C21A 1_555 1_555
C22A N4A 1_555 1_555
H17A C22A 1_555 1_555
C23A H18A 1_555 1_555
C24A C14A 1_555 1_555
H19A C24A 1_555 1_555
C25A C24A 1_555 1_555
H20A C25A 1_555 1_555
C26A H21A 1_555 1_555
C27A N5A 1_555 1_555
C28A H22A 1_555 1_555
H23A C28A 1_555 1_555
C29A C1A 1_555 1_555
C30A C15A 1_555 1_555
H24A C30A 1_555 1_555
H25A C30A 1_555 1_555
H26A C30A 1_555 1_555
C31A C23A 1_555 1_555
H27A C31A 1_555 1_555
N7A C13A 1_555 1_555
C32A C26A 1_555 1_555
H28A C32A 1_555 1_555
C33A C14A 1_555 1_555
H29A C33A 1_555 1_555
C34A C29A 1_555 1_555
H30A C34A 1_555 1_555
C35A C2A 1_555 1_555
H31A C35A 1_555 1_555
C36A N6A 1_555 1_555
H32A C36A 1_555 1_555
C37A C27A 1_555 1_555
H33A C37A 1_555 1_555
H34A C37A 1_555 1_555
H35A C37A 1_555 1_555
C38A C38 1_555 1_555
C39A C13A 1_555 1_555
H36A C39A 1_555 1_555
C40A C23A 1_555 1_555
N3 C5 1_555 1_555
C2 C17 1_555 1_555
C6 C17 1_555 1_555
C8 C19 1_555 1_555
C10 C12 1_555 1_555
N5 C39 1_555 1_555
C16 C21 1_555 1_555
C20 C35 1_555 1_555
C22 C36 1_555 1_555
C25 C29 1_555 1_555
C26 C40 1_555 1_555
C27 N7 1_555 1_555
C28 N7 1_555 1_555
C28 C40 1_555 1_555
C32 C38 1_555 1_555
C33 C34 1_555 1_555
N3A C5A 1_555 1_555
C2A C17A 1_555 1_555
C6A C17A 1_555 1_555
C8A C19A 1_555 1_555
C10A C12A 1_555 1_555
N5A C39A 1_555 1_555
C16A C21A 1_555 1_555
C20A C35A 1_555 1_555
C22A C36A 1_555 1_555
C25A C29A 1_555 1_555
C26A C40A 1_555 1_555
C27A N7A 1_555 1_555
C28A N7A 1_555 1_555
C28A C40A 1_555 1_555
C31A C38A 1_555 1_555
C32A C38A 1_555 1_555
C33A C34A 1_555 1_555

#END
