
#######################################################################
#
#                 Cambridge Crystallographic Data Centre
#                                CCDC 
#
#######################################################################
#
# If this CIF has been generated from an entry in the Cambridge 
# Structural Database, then it will include bibliographic, chemical, 
# crystal, experimental, refinement or atomic coordinate data resulting 
# from the CCDC's data processing and validation procedures.
#
#######################################################################

data_ONABUB
_symmetry_cell_setting           monoclinic
_symmetry_space_group_name_H-M   'C 2'
_symmetry_Int_Tables_number      5
_space_group_name_Hall           'C 2y'
loop_
_symmetry_equiv_pos_site_id
_symmetry_equiv_pos_as_xyz
1 x,y,z
2 -x,y,-z
3 1/2+x,1/2+y,z
4 1/2-x,1/2+y,-z
_cell_length_a                   20.543(3)
_cell_length_b                   7.2460(9)
_cell_length_c                   10.4853(13)
_cell_angle_alpha                90
_cell_angle_beta                 111.318(2)
_cell_angle_gamma                90
_cell_volume                     1453.99
loop_
_atom_site_label
_atom_site_type_symbol
_atom_site_fract_x
_atom_site_fract_y
_atom_site_fract_z
Cu1 Cu -0.37556(4) 0.26228(10) -0.41788(7)
V1 V -0.50652(5) 1.03219(14) -0.69281(9)
V2 V -0.5000 0.6552(2) -0.5000
V3 V -0.5000 1.1860(2) -1.0000
O1 O -0.4220(2) 0.1320(7) -0.3094(4)
O2 O -0.5069(3) 0.7993(6) -0.6454(4)
O3 O -0.4310(2) 0.5229(7) -0.4644(4)
O4 O -0.5035(2) 1.0432(7) -0.8592(4)
O5 O -0.5680(3) 1.3173(8) -1.0542(5)
O6 O -0.4378(2) 0.1342(7) -0.5804(4)
N1 N -0.3120(3) 0.3719(7) -0.2452(5)
N2 N -0.2100(2) 0.3012(8) -0.2874(5)
H1 H -0.1691 0.2553 -0.2466
N3 N -0.3032(3) 0.2992(8) -0.5000(5)
C1 C -0.2345(3) 0.2956(9) -0.4292(6)
C2 C -0.1856(3) 0.2915(11) -0.4913(6)
H2 H -0.1381 0.2851 -0.4390
C3 C -0.2084(4) 0.2972(10) -0.6316(7)
H3 H -0.1765 0.2934 -0.6758
C4 C -0.2793(4) 0.3085(10) -0.7066(7)
H4 H -0.2958 0.3169 -0.8016
C5 C -0.3244(4) 0.3071(10) -0.6384(6)
H5 H -0.3720 0.3118 -0.6892
C6 C -0.2422(3) 0.3701(9) -0.2030(6)
C7 C -0.2003(4) 0.4381(10) -0.0733(7)
H6 H -0.1519 0.4371 -0.0461
C8 C -0.2308(4) 0.5047(11) 0.0115(7)
H7 H -0.2036 0.5455 0.0988
C9 C -0.3034(4) 0.5116(12) -0.0333(7)
H8 H -0.3256 0.5620 0.0216
C10 C -0.3406(4) 0.4433(11) -0.1582(7)
H9 H -0.3891 0.4454 -0.1865
Cu1A Cu -0.62444(4) 0.26228(10) -0.58212(7)
Cu1A_2 Cu -0.62444(4) 1.26228(10) -0.58212(7)
Cu1_2 Cu -0.37556(4) 1.26228(10) -0.41788(7)
V1A V -0.49348(5) 1.03219(14) -0.30719(9)
V1A_2 V -0.49348(5) 0.03219(14) -0.30719(9)
V1_2 V -0.50652(5) 0.03219(14) -0.69281(9)
V3_2 V -0.5000 1.1860(2) 0.0000
O1A O -0.5780(2) 1.1320(7) -0.6906(4)
O1A_2 O -0.5780(2) 0.1320(7) -0.6906(4)
O1_2 O -0.4220(2) 1.1320(7) -0.3094(4)
O2A O -0.4931(3) 0.7993(6) -0.3546(4)
O3A O -0.5690(2) 0.5229(7) -0.5356(4)
O4A O -0.4965(2) 1.0432(7) -0.1408(4)
O4A_2 O -0.4965(2) 1.0432(7) -1.1408(4)
O5A O -0.4320(3) 1.3173(8) -0.9458(5)
O6_2 O -0.4378(2) 1.1342(7) -0.5804(4)
O6A O -0.5622(2) 0.1342(7) -0.4196(4)
O6A_2 O -0.5622(2) 1.1342(7) -0.4196(4)
N1A N -0.6880(3) 0.3719(7) -0.7548(5)
N2A N -0.7900(2) 0.3012(8) -0.7126(5)
H1A H -0.8309 0.2553 -0.7534
N3A N -0.6968(3) 0.2992(8) -0.5000(5)
C1A C -0.7655(3) 0.2956(9) -0.5708(6)
C2A C -0.8144(3) 0.2915(11) -0.5087(6)
H2A H -0.8619 0.2851 -0.5610
C3A C -0.7916(4) 0.2972(10) -0.3684(7)
H3A H -0.8235 0.2934 -0.3242
C4A C -0.7207(4) 0.3085(10) -0.2934(7)
H4A H -0.7042 0.3169 -0.1984
C5A C -0.6756(4) 0.3071(10) -0.3616(6)
H5A H -0.6280 0.3118 -0.3108
C6A C -0.7578(3) 0.3701(9) -0.7970(6)
C7A C -0.7997(4) 0.4381(10) -0.9267(7)
H6A H -0.8481 0.4371 -0.9539
C8A C -0.7692(4) 0.5047(11) -1.0115(7)
H7A H -0.7964 0.5455 -1.0988
C9A C -0.6966(4) 0.5116(12) -0.9667(7)
H8A H -0.6744 0.5620 -1.0216
C10A C -0.6594(4) 0.4433(11) -0.8418(7)
H9A H -0.6109 0.4454 -0.8135
O7 O -0.5732(3) 1.6866(11) -0.1368(8)
H10 H -0.570(3) 1.610(9) -0.096(6)
H11 H -0.548(5) 1.761(18) -0.139(11)
loop_
_geom_bond_atom_site_label_1
_geom_bond_atom_site_label_2
_geom_bond_site_symmetry_1
_geom_bond_site_symmetry_2
Cu1 O1 1_555 1_555
V1 O2 1_555 1_555
V2 O2 1_555 1_555
V3 O4 1_555 1_555
O1 V1A_2 1_555 1_555
O3 Cu1 1_555 1_555
O4 V1 1_555 1_555
O5 V3 1_555 1_555
O6 Cu1 1_555 1_555
N1 Cu1 1_555 1_555
N2 H1 1_555 1_555
N3 Cu1 1_555 1_555
C1 N2 1_555 1_555
C2 C1 1_555 1_555
H2 C2 1_555 1_555
C3 C2 1_555 1_555
H3 C3 1_555 1_555
C4 C3 1_555 1_555
H4 C4 1_555 1_555
C5 N3 1_555 1_555
H5 C5 1_555 1_555
C6 N1 1_555 1_555
C7 C6 1_555 1_555
H6 C7 1_555 1_555
C8 C7 1_555 1_555
H7 C8 1_555 1_555
C9 C8 1_555 1_555
H8 C9 1_555 1_555
C10 N1 1_555 1_555
H9 C10 1_555 1_555
O7 H10 1_555 1_555
H11 O7 1_555 1_555
Cu1A O1A_2 1_555 1_555
Cu1A_2 O1A 1_555 1_555
Cu1_2 O1_2 1_555 1_555
V1A O1_2 1_555 1_555
V1A_2 O6A 1_555 1_555
V1_2 O6 1_555 1_555
V3_2 O4A 1_555 1_555
O1A V1 1_555 1_555
O1A_2 V1_2 1_555 1_555
O2A V2 1_555 1_555
O3A V2 1_555 1_555
O4A V1A 1_555 1_555
O4A_2 V3 1_555 1_555
O5A V3 1_555 1_555
O6_2 V1 1_555 1_555
O6A Cu1A 1_555 1_555
O6A_2 Cu1A_2 1_555 1_555
N1A Cu1A 1_555 1_555
N2A H1A 1_555 1_555
N3A Cu1A 1_555 1_555
C1A N2A 1_555 1_555
C2A C1A 1_555 1_555
H2A C2A 1_555 1_555
C3A C2A 1_555 1_555
H3A C3A 1_555 1_555
C4A C3A 1_555 1_555
H4A C4A 1_555 1_555
C5A N3A 1_555 1_555
H5A C5A 1_555 1_555
C6A N1A 1_555 1_555
C7A C6A 1_555 1_555
H6A C7A 1_555 1_555
C8A C7A 1_555 1_555
H7A C8A 1_555 1_555
C9A C8A 1_555 1_555
H8A C9A 1_555 1_555
C10A N1A 1_555 1_555
H9A C10A 1_555 1_555
V2 O3 1_555 1_555
N2 C6 1_555 1_555
N3 C1 1_555 1_555
C4 C5 1_555 1_555
C9 C10 1_555 1_555
Cu1A O3A 1_555 1_555
Cu1_2 O6_2 1_555 1_555
V1A O2A 1_555 1_555
V1A O6A_2 1_555 1_555
N2A C6A 1_555 1_555
N3A C1A 1_555 1_555
C4A C5A 1_555 1_555
C9A C10A 1_555 1_555

#END
