
#######################################################################
#
#                 Cambridge Crystallographic Data Centre
#                                CCDC 
#
#######################################################################
#
# If this CIF has been generated from an entry in the Cambridge 
# Structural Database, then it will include bibliographic, chemical, 
# crystal, experimental, refinement or atomic coordinate data resulting 
# from the CCDC's data processing and validation procedures.
#
#######################################################################

data_ONADOX
_symmetry_cell_setting           triclinic
_symmetry_space_group_name_H-M   'P -1'
_symmetry_Int_Tables_number      2
_space_group_name_Hall           '-P 1'
loop_
_symmetry_equiv_pos_site_id
_symmetry_equiv_pos_as_xyz
1 x,y,z
2 -x,-y,-z
_cell_length_a                   13.1865(5)
_cell_length_b                   13.2457(5)
_cell_length_c                   18.9036(7)
_cell_angle_alpha                96.814(3)
_cell_angle_beta                 103.403(2)
_cell_angle_gamma                93.479(2)
_cell_volume                     3175.85
loop_
_atom_site_label
_atom_site_type_symbol
_atom_site_fract_x
_atom_site_fract_y
_atom_site_fract_z
Cu1 Cu 0.65235(3) 0.63438(3) 0.170930(18)
Cu2 Cu 0.76528(3) 0.57098(3) 0.307629(18)
Cu3 Cu 0.73076(3) 0.87141(3) 0.131382(17)
Cu4 Cu 0.83524(3) 0.85091(3) 0.277326(18)
O1 O 0.78801(17) 0.59271(17) 0.21353(11)
H1 H 0.8418 0.6233 0.2052
O2 O 0.62509(16) 0.59905(16) 0.26130(10)
H2 H 0.5700 0.5607 0.2589
O3 O 0.87195(15) 0.85615(14) 0.18397(10)
H3 H 0.8994 0.8009 0.1757
O4 O 0.69459(15) 0.80793(14) 0.21313(10)
H4 H 0.6436 0.8327 0.2273
O5 O 0.8211(2) 0.02021(15) 0.29237(11)
O6 O 0.74421(19) 0.03256(15) 0.17577(11)
O7 O 0.5988(3) 0.0780(3) 0.3045(2)
O8 O 0.6488(3) 0.1837(3) 0.4076(2)
N1 N 0.7380(2) 0.57460(18) 0.40860(13)
N2 N 0.9163(2) 0.59748(18) 0.36780(13)
N3 N 0.8039(2) 0.83657(19) 0.37536(13)
N4 N 0.9843(2) 0.86019(18) 0.33841(13)
N5 N 0.50178(19) 0.64493(18) 0.11945(13)
N6 N 0.66859(19) 0.62913(18) 0.06573(13)
N7 N 0.58364(18) 0.87648(17) 0.07113(12)
N8 N 0.76236(19) 0.86732(18) 0.03123(12)
N9 N 0.7626(2) 0.39280(17) 0.28797(13)
C1 C 0.6464(3) 0.5654(3) 0.42696(18)
H29 H 0.5850 0.5529 0.3900
C2 C 0.6405(3) 0.5739(3) 0.4998(2)
H30 H 0.5756 0.5670 0.5110
C3 C 0.7285(3) 0.5920(3) 0.55457(19)
H31 H 0.7241 0.5976 0.6033
C4 C 0.8272(3) 0.6026(2) 0.53773(16)
C5 C 0.9242(3) 0.6249(3) 0.59083(17)
H32 H 0.9252 0.6308 0.6405
C6 C 1.0151(3) 0.6375(2) 0.57002(17)
H33 H 1.0775 0.6529 0.6058
C7 C 1.0174(3) 0.6278(2) 0.49408(16)
C8 C 1.1087(3) 0.6410(2) 0.46897(18)
H34 H 1.1733 0.6563 0.5023
C9 C 1.1022(3) 0.6314(3) 0.39558(19)
H35 H 1.1626 0.6385 0.3784
C10 C 1.0038(3) 0.6107(2) 0.34596(17)
H36 H 1.0000 0.6061 0.2959
C11 C 0.9222(2) 0.6055(2) 0.44086(15)
C12 C 0.8265(2) 0.5927(2) 0.46294(16)
C13 C 0.7126(3) 0.8247(3) 0.39204(18)
H37 H 0.6523 0.8118 0.3541
C14 C 0.7027(3) 0.8306(3) 0.46475(19)
H38 H 0.6369 0.8226 0.4745
C15 C 0.7902(3) 0.8481(3) 0.52079(19)
H39 H 0.7844 0.8522 0.5691
C16 C 0.8896(3) 0.8600(2) 0.50564(16)
C17 C 0.9862(3) 0.8801(2) 0.55962(17)
H40 H 0.9856 0.8857 0.6090
C18 C 1.0785(3) 0.8912(2) 0.54098(18)
H41 H 1.1403 0.9039 0.5776
C19 C 1.0825(3) 0.8838(2) 0.46564(17)
C20 C 1.1757(3) 0.8939(3) 0.4416(2)
H42 H 1.2400 0.9060 0.4755
C21 C 1.1709(3) 0.8857(3) 0.3685(2)
H43 H 1.2322 0.8911 0.3523
C22 C 1.0739(3) 0.8694(3) 0.31758(19)
H44 H 1.0719 0.8648 0.2678
C23 C 0.9895(3) 0.8657(2) 0.41113(15)
C24 C 0.8914(3) 0.8534(2) 0.43107(16)
C25 C 0.7539(3) 0.6220(2) 0.03980(18)
H45 H 0.8186 0.6249 0.0731
C26 C 0.7507(3) 0.6105(3) -0.03466(18)
H46 H 0.8123 0.6055 -0.0503
C27 C 0.6576(3) 0.6065(2) -0.08467(18)
H47 H 0.6551 0.5993 -0.1346
C28 C 0.5646(3) 0.6132(2) -0.06029(16)
C29 C 0.4623(3) 0.6100(2) -0.10725(17)
H48 H 0.4542 0.6023 -0.1579
C30 C 0.3775(3) 0.6180(2) -0.07954(18)
H49 H 0.3117 0.6145 -0.1115
C31 C 0.3861(2) 0.6318(2) -0.00192(17)
C32 C 0.3020(3) 0.6461(2) 0.0310(2)
H50 H 0.2347 0.6462 0.0018
C33 C 0.3189(3) 0.6598(2) 0.1055(2)
H51 H 0.2635 0.6706 0.1274
C34 C 0.4199(3) 0.6577(2) 0.14863(17)
H52 H 0.4303 0.6653 0.1994
C35 C 0.4848(2) 0.6334(2) 0.04533(15)
C36 C 0.5755(2) 0.6252(2) 0.01644(15)
C37 C 0.8536(3) 0.8618(3) 0.01314(18)
H53 H 0.9139 0.8601 0.0499
C38 C 0.8618(3) 0.8587(3) -0.05936(18)
H54 H 0.9269 0.8557 -0.0703
C39 C 0.7743(3) 0.8600(3) -0.11399(18)
H55 H 0.7794 0.8581 -0.1624
C40 C 0.6762(3) 0.8640(2) -0.09711(16)
C41 C 0.5803(3) 0.8646(3) -0.14991(16)
H56 H 0.5805 0.8620 -0.1992
C42 C 0.4880(3) 0.8688(2) -0.12977(16)
H57 H 0.4261 0.8687 -0.1655
C43 C 0.4848(2) 0.8733(2) -0.05458(15)
C44 C 0.3924(2) 0.8803(2) -0.02933(18)
H58 H 0.3281 0.8807 -0.0624
C45 C 0.3986(2) 0.8863(2) 0.04349(17)
H59 H 0.3382 0.8917 0.0606
C46 C 0.4952(2) 0.8843(2) 0.09324(16)
H60 H 0.4976 0.8887 0.1431
C47 C 0.5779(2) 0.8723(2) -0.00173(15)
C48 C 0.6753(2) 0.8679(2) -0.02323(14)
C49 C 0.7796(2) 0.0672(2) 0.24208(16)
C50 C 0.7729(2) 0.1809(2) 0.26089(15)
C51 C 0.8284(3) 0.2495(2) 0.22989(16)
H61 H 0.8702 0.2255 0.1993
C52 C 0.8212(3) 0.3527(2) 0.24482(16)
H62 H 0.8591 0.3970 0.2237
C53 C 0.7104(2) 0.3270(2) 0.31851(16)
H63 H 0.6695 0.3535 0.3490
C54 C 0.7134(2) 0.2214(2) 0.30756(16)
C55 C 0.6471(3) 0.1547(3) 0.3428(2)
Cu3_2 Cu 0.73076(3) -0.12859(3) 0.131382(17)
Cu4_2 Cu 0.83524(3) -0.14909(3) 0.277326(18)
O5_2 O 0.8211(2) 1.02021(15) 0.29237(11)
O6_2 O 0.74421(19) 1.03256(15) 0.17577(11)
O9 O 1.0639(2) 0.6810(2) 0.08752(15)
O10 O 0.96646(19) 0.68014(18) 0.16971(14)
O11 O 1.2045(2) 0.6999(2) 0.24585(15)
O12 O 1.3080(3) 0.5883(3) 0.29445(18)
N10 N 1.0995(3) 0.3440(3) 0.1887(2)
C56 C 1.0315(3) 0.6448(3) 0.13637(19)
C57 C 1.0631(3) 0.5411(3) 0.15417(19)
C58 C 0.9994(3) 0.4552(3) 0.1151(2)
H64 H 0.9433 0.4627 0.0765
C59 C 1.0185(4) 0.3606(3) 0.1329(3)
H65 H 0.9744 0.3048 0.1060
C60 C 1.1622(3) 0.4260(3) 0.2231(2)
H66 H 1.2196 0.4158 0.2599
C61 C 1.1496(3) 0.5260(3) 0.20902(19)
C62 C 1.2264(3) 0.6118(3) 0.2531(2)
O13 O 1.5138(2) 0.8867(2) 0.26974(15)
H5 H 1.5411 0.9437 0.2944
H6 H 1.4659 0.8698 0.2906
O14 O 0.9976(2) 1.0158(2) 0.16023(14)
H7 H 0.9591 0.9723 0.1742
H8 H 1.0336 1.0477 0.2008
O15 O 1.2921(2) 0.8865(3) 0.22136(18)
H9 H 1.3283 0.8591 0.1938
H10 H 1.2578 0.8382 0.2340
O16 O 1.1291(2) 0.8832(2) 0.09660(16)
H11 H 1.1019 0.8219 0.0886
H12 H 1.1155 0.9094 0.1362
O17 O 1.4463(4) 0.7527(5) 0.3735(3)
H13 H 1.4043 0.7034 0.3481
H14 H 1.5095 0.7393 0.3777
O18 O 1.4534(2) 0.4583(2) 0.26834(15)
H15 H 1.4056 0.4904 0.2817
H16 H 1.4535 0.4054 0.2898
O19 O 0.8679(2) 0.1404(2) 0.05644(17)
H17 H 0.8948 0.1026 0.0879
H18 H 0.8715 0.1069 0.0160
O20 O 1.1089(3) 0.1671(2) 0.27054(17)
H19 H 1.1117 0.2135 0.2434
H20 H 1.1606 0.1792 0.3077
O21 O 1.3117(4) 1.0975(4) 0.3117(3)
H21 H 1.2962 1.0734 0.2664
H22 H 1.2770 1.0606 0.3333
O22 O 0.4345(4) 1.2998(4) 0.3497(3)
H23 H 0.3992 1.2677 0.3736
H24 H 0.4794 1.2613 0.3386
O23 O 0.5916(8) 1.3200(6) 0.4850(5)
H25 H 0.5503 1.3180 0.5133
H26 H 0.6315 1.3752 0.4988
O24 O 0.4662(7) 1.0517(8) 0.4274(5)
H27 H 0.4649 1.0255 0.3839
H28 H 0.4037 1.0476 0.4324
H67? H 0.5994 1.1447 0.4935
H68? H 0.5528 1.1258 0.5490
O25? O 0.5472(10) 1.1131(11) 0.5030(8)
loop_
_geom_bond_atom_site_label_1
_geom_bond_atom_site_label_2
_geom_bond_site_symmetry_1
_geom_bond_site_symmetry_2
Cu1 O1 1_555 1_555
Cu2 O1 1_555 1_555
Cu3 O3 1_555 1_555
Cu4 O3 1_555 1_555
O1 H1 1_555 1_555
O2 Cu1 1_555 1_555
H2 O2 1_555 1_555
O3 H3 1_555 1_555
O4 Cu1 1_555 1_555
H4 O4 1_555 1_555
O5 C49 1_555 1_555
O6 C49 1_555 1_555
O7 C55 1_555 1_555
O8 C55 1_555 1_555
O9 C56 1_555 1_555
O10 C56 1_555 1_555
O11 C62 1_555 1_555
O12 C62 1_555 1_555
O13 H5 1_555 1_555
H6 O13 1_555 1_555
O14 H7 1_555 1_555
H8 O14 1_555 1_555
O15 H9 1_555 1_555
H10 O15 1_555 1_555
O16 H11 1_555 1_555
H12 O16 1_555 1_555
O17 H13 1_555 1_555
H14 O17 1_555 1_555
O18 H15 1_555 1_555
H16 O18 1_555 1_555
O19 H17 1_555 1_555
H18 O19 1_555 1_555
O20 H19 1_555 1_555
H20 O20 1_555 1_555
O21 H21 1_555 1_555
H22 O21 1_555 1_555
O22 H23 1_555 1_555
H24 O22 1_555 1_555
O23 H25 1_555 1_555
H26 O23 1_555 1_555
O24 H27 1_555 1_555
H28 O24 1_555 1_555
N1 Cu2 1_555 1_555
N2 Cu2 1_555 1_555
N3 Cu4 1_555 1_555
N4 Cu4 1_555 1_555
N5 Cu1 1_555 1_555
N6 Cu1 1_555 1_555
N7 Cu3 1_555 1_555
N8 Cu3 1_555 1_555
N9 Cu2 1_555 1_555
N10 C59 1_555 1_555
C1 N1 1_555 1_555
H29 C1 1_555 1_555
C2 C1 1_555 1_555
H30 C2 1_555 1_555
C3 C2 1_555 1_555
H31 C3 1_555 1_555
C4 C3 1_555 1_555
C5 C4 1_555 1_555
H32 C5 1_555 1_555
C6 C5 1_555 1_555
H33 C6 1_555 1_555
C7 C6 1_555 1_555
C8 C7 1_555 1_555
H34 C8 1_555 1_555
C9 C8 1_555 1_555
H35 C9 1_555 1_555
C10 N2 1_555 1_555
H36 C10 1_555 1_555
C11 N2 1_555 1_555
C12 N1 1_555 1_555
C13 N3 1_555 1_555
H37 C13 1_555 1_555
C14 C13 1_555 1_555
H38 C14 1_555 1_555
C15 C14 1_555 1_555
H39 C15 1_555 1_555
C16 C15 1_555 1_555
C17 C16 1_555 1_555
H40 C17 1_555 1_555
C18 C17 1_555 1_555
H41 C18 1_555 1_555
C19 C18 1_555 1_555
C20 C19 1_555 1_555
H42 C20 1_555 1_555
C21 C20 1_555 1_555
H43 C21 1_555 1_555
C22 N4 1_555 1_555
H44 C22 1_555 1_555
C23 N4 1_555 1_555
C24 N3 1_555 1_555
C25 N6 1_555 1_555
H45 C25 1_555 1_555
C26 C25 1_555 1_555
H46 C26 1_555 1_555
C27 C26 1_555 1_555
H47 C27 1_555 1_555
C28 C27 1_555 1_555
C29 C28 1_555 1_555
H48 C29 1_555 1_555
C30 C29 1_555 1_555
H49 C30 1_555 1_555
C31 C30 1_555 1_555
C32 C31 1_555 1_555
H50 C32 1_555 1_555
C33 C32 1_555 1_555
H51 C33 1_555 1_555
C34 N5 1_555 1_555
H52 C34 1_555 1_555
C35 N5 1_555 1_555
C36 N6 1_555 1_555
C37 N8 1_555 1_555
H53 C37 1_555 1_555
C38 C37 1_555 1_555
H54 C38 1_555 1_555
C39 C38 1_555 1_555
H55 C39 1_555 1_555
C40 C39 1_555 1_555
C41 C40 1_555 1_555
H56 C41 1_555 1_555
C42 C41 1_555 1_555
H57 C42 1_555 1_555
C43 C42 1_555 1_555
C44 C43 1_555 1_555
H58 C44 1_555 1_555
C45 C44 1_555 1_555
H59 C45 1_555 1_555
C46 N7 1_555 1_555
H60 C46 1_555 1_555
C47 N7 1_555 1_555
C48 N8 1_555 1_555
C49 C50 1_555 1_555
C50 C51 1_555 1_555
C51 H61 1_555 1_555
C52 N9 1_555 1_555
H62 C52 1_555 1_555
C53 N9 1_555 1_555
H63 C53 1_555 1_555
C54 C50 1_555 1_555
C55 C54 1_555 1_555
C56 C57 1_555 1_555
C57 C58 1_555 1_555
C58 H64 1_555 1_555
C59 C58 1_555 1_555
H65 C59 1_555 1_555
C60 N10 1_555 1_555
H66 C60 1_555 1_555
C61 C57 1_555 1_555
C62 C61 1_555 1_555
Cu3_2 O6 1_555 1_555
Cu4_2 O5 1_555 1_555
O5_2 Cu4 1_555 1_555
O6_2 Cu3 1_555 1_555
Cu2 O2 1_555 1_555
Cu3 O4 1_555 1_555
Cu4 O4 1_555 1_555
C4 C12 1_555 1_555
C7 C11 1_555 1_555
C9 C10 1_555 1_555
C11 C12 1_555 1_555
C16 C24 1_555 1_555
C19 C23 1_555 1_555
C21 C22 1_555 1_555
C23 C24 1_555 1_555
C28 C36 1_555 1_555
C31 C35 1_555 1_555
C33 C34 1_555 1_555
C35 C36 1_555 1_555
C40 C48 1_555 1_555
C43 C47 1_555 1_555
C45 C46 1_555 1_555
C47 C48 1_555 1_555
C51 C52 1_555 1_555
C53 C54 1_555 1_555
C60 C61 1_555 1_555

#END
