
#######################################################################
#
#                 Cambridge Crystallographic Data Centre
#                                CCDC 
#
#######################################################################
#
# If this CIF has been generated from an entry in the Cambridge 
# Structural Database, then it will include bibliographic, chemical, 
# crystal, experimental, refinement or atomic coordinate data resulting 
# from the CCDC's data processing and validation procedures.
#
#######################################################################

data_ONARIF
_symmetry_cell_setting           monoclinic
_symmetry_space_group_name_H-M   'P 21/c'
_symmetry_Int_Tables_number      14
_space_group_name_Hall           '-P 2ybc'
loop_
_symmetry_equiv_pos_site_id
_symmetry_equiv_pos_as_xyz
1 x,y,z
2 -x,1/2+y,1/2-z
3 -x,-y,-z
4 x,1/2-y,1/2+z
_cell_length_a                   10.2297(18)
_cell_length_b                   6.5434(11)
_cell_length_c                   22.729(4)
_cell_angle_alpha                90
_cell_angle_beta                 99.639(3)
_cell_angle_gamma                90
_cell_volume                     1499.93
loop_
_atom_site_label
_atom_site_type_symbol
_atom_site_fract_x
_atom_site_fract_y
_atom_site_fract_z
Ag1 Ag 0.43299(2) 0.90389(4) 0.445009(11)
O1 O 0.2604(2) 0.8852(4) 0.49194(10)
O2 O -0.1858(2) 0.6266(4) 0.49977(11)
O3 O 0.3885(2) 0.9482(4) 0.57919(10)
O4 O 0.1961(2) 0.9988(4) 0.75714(10)
O5 O 0.0245(2) 0.8171(4) 0.76362(11)
O6 O -0.2703(2) 0.6643(4) 0.57940(11)
C1 C 0.1847(3) 0.9016(4) 0.64041(15)
H3 H 0.2663 0.9543 0.6609
N1 N 0.1027(3) 0.8957(4) 0.73519(12)
N2 N 0.5404(3) 0.5632(4) 0.42777(12)
H4 H 0.6154 0.5485 0.4561
H5 H 0.4828 0.4602 0.4338
C2 C 0.7001(3) 0.5949(4) 0.36030(15)
H6 H 0.7624 0.6547 0.3912
C3 C -0.0378(3) 0.7844(4) 0.64371(14)
H7 H -0.1069 0.7539 0.6655
C4 C 0.5172(3) 0.4261(5) 0.27008(15)
H8 H 0.4542 0.3695 0.2389
C5 C 0.0480(3) 0.7913(5) 0.55068(14)
H9 H 0.0346 0.7664 0.5089
N3 N -0.1781(3) 0.6752(4) 0.55225(12)
C6 C 0.2819(3) 0.9040(4) 0.54765(15)
C7 C 0.6428(3) 0.4804(5) 0.25969(14)
C8 C 0.7329(3) 0.5663(5) 0.30504(15)
H10 H 0.8182 0.6056 0.2977
C9 C 0.5755(3) 0.5367(5) 0.37144(14)
C10 C 0.4852(3) 0.4548(5) 0.32556(15)
H11 H 0.3994 0.4177 0.3326
C11 C -0.0515(3) 0.7545(5) 0.58316(14)
C12 C 0.1676(3) 0.8649(4) 0.58000(14)
C13 C 0.0819(3) 0.8608(5) 0.67063(14)
C14 C 0.6748(3) 0.4485(5) 0.20176(16)
N4 N 0.6973(3) 0.4218(5) 0.15488(14)
Ag1B Ag 0.56701(2) 1.09611(4) 0.554991(11)
Ag1A Ag 0.56701(2) 0.40389(4) 0.054991(11)
O3B O 0.6115(2) 1.0518(4) 0.42081(10)
N4A N 0.3027(3) 0.9218(5) 0.34512(14)
O7 O 0.0603(3) 0.7136(4) 0.40064(12)
H1 H 0.1122 0.7889 0.4246
H2 H 0.0818 0.5898 0.4084
loop_
_geom_bond_atom_site_label_1
_geom_bond_atom_site_label_2
_geom_bond_site_symmetry_1
_geom_bond_site_symmetry_2
Ag1 O1 1_555 1_555
O1 C6 1_555 1_555
O2 N3 1_555 1_555
O3 C6 1_555 1_555
O4 N1 1_555 1_555
O5 N1 1_555 1_555
O6 N3 1_555 1_555
O7 H1 1_555 1_555
H2 O7 1_555 1_555
C1 H3 1_555 1_555
N1 C13 1_555 1_555
N2 Ag1 1_555 1_555
H4 N2 1_555 1_555
H5 N2 1_555 1_555
C2 H6 1_555 1_555
C3 H7 1_555 1_555
C4 H8 1_555 1_555
C5 H9 1_555 1_555
N3 C11 1_555 1_555
C6 C12 1_555 1_555
C7 C4 1_555 1_555
C8 C2 1_555 1_555
H10 C8 1_555 1_555
C9 N2 1_555 1_555
C10 C4 1_555 1_555
H11 C10 1_555 1_555
C11 C3 1_555 1_555
C12 C1 1_555 1_555
C13 C1 1_555 1_555
C14 C7 1_555 1_555
N4 C14 1_555 1_555
Ag1B O3 1_555 1_555
Ag1A N4 1_555 1_555
O3B Ag1 1_555 1_555
N4A Ag1 1_555 1_555
C2 C9 1_555 1_555
C3 C13 1_555 1_555
C5 C11 1_555 1_555
C5 C12 1_555 1_555
C7 C8 1_555 1_555
C9 C10 1_555 1_555

#END
