
#######################################################################
#
#                 Cambridge Crystallographic Data Centre
#                                CCDC 
#
#######################################################################
#
# If this CIF has been generated from an entry in the Cambridge 
# Structural Database, then it will include bibliographic, chemical, 
# crystal, experimental, refinement or atomic coordinate data resulting 
# from the CCDC's data processing and validation procedures.
#
#######################################################################

data_ONATUT
_symmetry_cell_setting           orthorhombic
_symmetry_space_group_name_H-M   'P b c a'
_symmetry_Int_Tables_number      61
_space_group_name_Hall           '-P 2ac 2ab'
loop_
_symmetry_equiv_pos_site_id
_symmetry_equiv_pos_as_xyz
1 x,y,z
2 1/2-x,-y,1/2+z
3 -x,1/2+y,1/2-z
4 1/2+x,1/2-y,-z
5 -x,-y,-z
6 1/2+x,y,1/2-z
7 x,1/2-y,1/2+z
8 1/2-x,1/2+y,z
_cell_length_a                   8.4935(17)
_cell_length_b                   11.085(2)
_cell_length_c                   15.094(3)
_cell_angle_alpha                90
_cell_angle_beta                 90
_cell_angle_gamma                90
_cell_volume                     1421.11
loop_
_atom_site_label
_atom_site_type_symbol
_atom_site_fract_x
_atom_site_fract_y
_atom_site_fract_z
C1 C 0.9710(5) 0.5478(4) -0.2098(3)
H1 H 0.9293 0.6212 -0.2358
H2 H 1.0813 0.5422 -0.2260
N1 N 0.7845(4) 0.7288(3) -0.0609(2)
N2 N 0.6796(4) 0.5495(3) -0.0528(2)
N3 N 0.5734(4) 0.6337(3) -0.0254(2)
C2 C 0.8093(5) 0.6101(4) -0.0748(2)
N4 N 0.6360(4) 0.7399(3) -0.0309(2)
C3 C 0.9587(5) 0.5569(4) -0.1090(3)
H3 H 0.9703 0.4767 -0.0842
H4 H 1.0459 0.6053 -0.0875
C4 C 0.8851(5) 0.4419(3) -0.2481(3)
N5 N 0.9176(4) 0.3886(3) -0.3261(2)
N6 N 0.7625(4) 0.3875(3) -0.2112(2)
N7 N 0.8111(4) 0.2989(3) -0.3369(2)
N8 N 0.7194(4) 0.2980(3) -0.2683(2)
Zn1 Zn 0.89121(5) 0.88574(4) -0.09525(3)
N2G N 0.8204(4) 1.0495(3) -0.0528(2)
N3C N 1.0734(4) 0.8663(3) 0.0254(2)
N5B N 1.0824(4) 0.8886(3) -0.1739(2)
N6G N 0.7375(4) 0.8875(3) -0.2112(2)
Zn1G Zn 0.60879(5) 0.38574(4) -0.09525(3)
Zn1C Zn 0.39121(5) 0.61426(4) 0.09525(3)
Zn1B Zn 1.10879(5) 0.38574(4) -0.40475(3)
loop_
_geom_bond_atom_site_label_1
_geom_bond_atom_site_label_2
_geom_bond_site_symmetry_1
_geom_bond_site_symmetry_2
C1 H1 1_555 1_555
H2 C1 1_555 1_555
N1 C2 1_555 1_555
N2 N3 1_555 1_555
N3 N4 1_555 1_555
C2 N2 1_555 1_555
N4 N1 1_555 1_555
C3 C1 1_555 1_555
H3 C3 1_555 1_555
H4 C3 1_555 1_555
C4 C1 1_555 1_555
N5 C4 1_555 1_555
N6 C4 1_555 1_555
N7 N5 1_555 1_555
N8 N6 1_555 1_555
Zn1 N1 1_555 1_555
N2G Zn1 1_555 1_555
N3C Zn1 1_555 1_555
N5B Zn1 1_555 1_555
N6G Zn1 1_555 1_555
Zn1G N2 1_555 1_555
Zn1C N3 1_555 1_555
Zn1B N5 1_555 1_555
C2 C3 1_555 1_555
N6 Zn1G 1_555 1_555
N7 N8 1_555 1_555

#END
