
#######################################################################
#
#                 Cambridge Crystallographic Data Centre
#                                CCDC 
#
#######################################################################
#
# If this CIF has been generated from an entry in the Cambridge 
# Structural Database, then it will include bibliographic, chemical, 
# crystal, experimental, refinement or atomic coordinate data resulting 
# from the CCDC's data processing and validation procedures.
#
#######################################################################

data_ONAWIK
_symmetry_cell_setting           monoclinic
_symmetry_space_group_name_H-M   'P 21/c'
_symmetry_Int_Tables_number      14
_space_group_name_Hall           '-P 2ybc'
loop_
_symmetry_equiv_pos_site_id
_symmetry_equiv_pos_as_xyz
1 x,y,z
2 -x,1/2+y,1/2-z
3 -x,-y,-z
4 x,1/2-y,1/2+z
_cell_length_a                   7.466(1)
_cell_length_b                   17.498(2)
_cell_length_c                   8.720(1)
_cell_angle_alpha                90
_cell_angle_beta                 115.050(1)
_cell_angle_gamma                90
_cell_volume                     1032.03
loop_
_atom_site_label
_atom_site_type_symbol
_atom_site_fract_x
_atom_site_fract_y
_atom_site_fract_z
Cu1 Cu 0.0000 0.0000 -0.5000
Cl1 Cl 0.40051(6) -0.03499(2) -0.31454(5)
N1 N -0.0649(2) -0.10248(8) -0.43249(17)
N2 N -0.0302(2) -0.22516(9) -0.3486(2)
N3 N -0.1920(2) -0.19266(9) -0.33937(18)
N4 N -0.8838(2) -0.40481(8) -0.38540(18)
N5 N -1.0824(2) -0.41180(8) -0.47749(19)
N6 N -0.9916(2) -0.45412(8) -0.21143(18)
C1 C 0.0415(2) -0.16847(10) -0.4054(2)
H1 H 0.1565 -0.1732 -0.4256
C2 C -0.2106(2) -0.11982(10) -0.3882(2)
H2 H -0.3111 -0.0858 -0.3909
C3 C -0.3145(3) -0.23491(13) -0.2751(2)
H3 H -0.3748 -0.1983 -0.2241
H4 H -0.2291 -0.2700 -0.1846
C4 C -0.4773(2) -0.28091(9) -0.4097(2)
H5 H -0.4197 -0.3153 -0.4671
H6 H -0.5711 -0.2460 -0.4956
C5 C -0.5867(2) -0.32800(9) -0.3294(2)
H7 H -0.4944 -0.3655 -0.2501
H8 H -0.6335 -0.2938 -0.2636
C6 C -0.7621(3) -0.37013(11) -0.4610(2)
H9 H -0.8435 -0.3340 -0.5508
H10 H -0.7140 -0.4104 -0.5139
C7 C -1.1419(2) -0.44192(9) -0.3680(2)
H11 H -1.2761 -0.4539 -0.3954
C8 C -0.8314(2) -0.43016(10) -0.2285(2)
H12 H -0.7003 -0.4311 -0.1420
Cu1A Cu -1.0000 -0.5000 0.0000
Cu1A_2 Cu 1.0000 0.5000 -1.0000
Cl1B Cl -0.40051(6) 0.03499(2) -0.68546(5)
N1B N 0.0649(2) 0.10248(8) -0.56751(17)
N2B N 0.0302(2) 0.22516(9) -0.6514(2)
N3B N 0.1920(2) 0.19266(9) -0.66063(18)
N4B N 0.8838(2) 0.40481(8) -0.61460(18)
N5B N 1.0824(2) 0.41180(8) -0.52251(19)
N6B N 0.9916(2) 0.45412(8) -0.78857(18)
N6A N -0.0084(2) 0.04588(8) -0.28857(18)
N6C N 0.0084(2) -0.04588(8) -0.71143(18)
C1B C -0.0415(2) 0.16847(10) -0.5946(2)
H1B H -0.1565 0.1732 -0.5744
C2B C 0.2106(2) 0.11982(10) -0.6118(2)
H2B H 0.3111 0.0858 -0.6091
C3B C 0.3145(3) 0.23491(13) -0.7249(2)
H3B H 0.3748 0.1983 -0.7759
H4B H 0.2291 0.2700 -0.8154
C4B C 0.4773(2) 0.28091(9) -0.5903(2)
H5B H 0.4197 0.3153 -0.5329
H6B H 0.5711 0.2460 -0.5044
C5B C 0.5867(2) 0.32800(9) -0.6706(2)
H7B H 0.4944 0.3655 -0.7499
H8B H 0.6335 0.2938 -0.7364
C6B C 0.7621(3) 0.37013(11) -0.5390(2)
H9B H 0.8435 0.3340 -0.4492
H10B H 0.7140 0.4104 -0.4861
C7B C 1.1419(2) 0.44192(9) -0.6320(2)
H11B H 1.2761 0.4539 -0.6046
C8B C 0.8314(2) 0.43016(10) -0.7715(2)
H12B H 0.7003 0.4311 -0.8580
loop_
_geom_bond_atom_site_label_1
_geom_bond_atom_site_label_2
_geom_bond_site_symmetry_1
_geom_bond_site_symmetry_2
Cu1 Cl1 1_555 1_555
N1 Cu1 1_555 1_555
N2 N3 1_555 1_555
N3 C2 1_555 1_555
N4 N5 1_555 1_555
N5 C7 1_555 1_555
N6 C7 1_555 1_555
C1 N1 1_555 1_555
H1 C1 1_555 1_555
C2 N1 1_555 1_555
H2 C2 1_555 1_555
C3 N3 1_555 1_555
H3 C3 1_555 1_555
H4 C3 1_555 1_555
C4 C3 1_555 1_555
H5 C4 1_555 1_555
H6 C4 1_555 1_555
C5 C4 1_555 1_555
H7 C5 1_555 1_555
H8 C5 1_555 1_555
C6 N4 1_555 1_555
H9 C6 1_555 1_555
H10 C6 1_555 1_555
C7 H11 1_555 1_555
C8 N4 1_555 1_555
H12 C8 1_555 1_555
Cu1A N6 1_555 1_555
Cu1A_2 N6B 1_555 1_555
Cl1B Cu1 1_555 1_555
N1B Cu1 1_555 1_555
N2B N3B 1_555 1_555
N3B C2B 1_555 1_555
N4B N5B 1_555 1_555
N5B C7B 1_555 1_555
N6B C7B 1_555 1_555
N6A Cu1 1_555 1_555
N6C Cu1 1_555 1_555
C1B N1B 1_555 1_555
H1B C1B 1_555 1_555
C2B N1B 1_555 1_555
H2B C2B 1_555 1_555
C3B N3B 1_555 1_555
H3B C3B 1_555 1_555
H4B C3B 1_555 1_555
C4B C3B 1_555 1_555
H5B C4B 1_555 1_555
H6B C4B 1_555 1_555
C5B C4B 1_555 1_555
H7B C5B 1_555 1_555
H8B C5B 1_555 1_555
C6B N4B 1_555 1_555
H9B C6B 1_555 1_555
H10B C6B 1_555 1_555
C7B H11B 1_555 1_555
C8B N4B 1_555 1_555
H12B C8B 1_555 1_555
N2 C1 1_555 1_555
N6 C8 1_555 1_555
C5 C6 1_555 1_555
N2B C1B 1_555 1_555
N6B C8B 1_555 1_555
C5B C6B 1_555 1_555

#END
