
#######################################################################
#
#                 Cambridge Crystallographic Data Centre
#                                CCDC 
#
#######################################################################
#
# If this CIF has been generated from an entry in the Cambridge 
# Structural Database, then it will include bibliographic, chemical, 
# crystal, experimental, refinement or atomic coordinate data resulting 
# from the CCDC's data processing and validation procedures.
#
#######################################################################

data_ONIDUL
_symmetry_cell_setting           monoclinic
_symmetry_space_group_name_H-M   'C 2/c'
_symmetry_Int_Tables_number      15
_space_group_name_Hall           '-C 2yn'
loop_
_symmetry_equiv_pos_site_id
_symmetry_equiv_pos_as_xyz
1 x,y,z
2 -x,y,1/2-z
3 1/2+x,1/2+y,z
4 1/2-x,1/2+y,1/2-z
5 -x,-y,-z
6 x,-y,1/2+z
7 1/2-x,1/2-y,-z
8 1/2+x,1/2-y,1/2+z
_cell_length_a                   11.697(3)
_cell_length_b                   18.756(4)
_cell_length_c                   8.549(4)
_cell_angle_alpha                90
_cell_angle_beta                 94.500(12)
_cell_angle_gamma                90
_cell_volume                     1869.77
loop_
_atom_site_label
_atom_site_type_symbol
_atom_site_fract_x
_atom_site_fract_y
_atom_site_fract_z
Cd1 Cd 0.5000 0.110297(15) 0.7500
O1 O 0.4279(2) 0.20561(12) 0.9068(3)
O2 O 0.4295(2) 0.09777(11) 1.0036(3)
N1 N 0.3164(2) 0.10675(13) 0.6130(3)
C1 C 0.4064(2) 0.16311(18) 1.0123(3)
C2 C 0.3507(4) 0.1901(3) 1.1542(5)
H1 H 0.3849 0.2346 1.1874
H2 H 0.3616 0.1559 1.2377
H3 H 0.2701 0.1968 1.1279
C3 C 0.2483(3) 0.1624(2) 0.6077(5)
H4 H 0.2721 0.2023 0.6660
C4 C 0.1437(3) 0.1657(3) 0.5216(5)
H5 H 0.0992 0.2068 0.5235
C5 C 0.1056(3) 0.1081(2) 0.4331(5)
C6 C 0.1780(3) 0.0511(2) 0.4347(5)
H6 H 0.1573 0.0110 0.3751
C7 C 0.2818(3) 0.05216(19) 0.5236(5)
H7 H 0.3295 0.0126 0.5205
C8 C -0.0064(4) 0.1104(2) 0.3350(6)
H8 H -0.0520 0.0695 0.3606
H9 H -0.0478 0.1529 0.3617
O3 O 0.5000 -0.01299(17) 0.7500
H10 H 0.521(4) -0.039(2) 0.824(5)
Cd1_2 Cd -0.5000 0.110297(15) -0.2500
O1A O 0.5721(2) 0.20561(12) 0.5932(3)
O2A O 0.5705(2) 0.09777(11) 0.4964(3)
N1A N -0.3164(2) 0.10675(13) -0.1130(3)
N1A_2 N 0.6836(2) 0.10675(13) 0.8870(3)
C1A C 0.5936(2) 0.16311(18) 0.4877(3)
C2A C 0.6493(4) 0.1901(3) 0.3458(5)
H1A H 0.6151 0.2346 0.3126
H2A H 0.6384 0.1559 0.2623
H3A H 0.7299 0.1968 0.3721
C3A C -0.2483(3) 0.1624(2) -0.1077(5)
H4A H -0.2721 0.2023 -0.1660
C4A C -0.1437(3) 0.1657(3) -0.0216(5)
H5A H -0.0992 0.2068 -0.0235
C5A C -0.1056(3) 0.1081(2) 0.0669(5)
C6A C -0.1780(3) 0.0511(2) 0.0653(5)
H6A H -0.1573 0.0110 0.1249
C7A C -0.2818(3) 0.05216(19) -0.0236(5)
H7A H -0.3295 0.0126 -0.0205
C8A C 0.0064(4) 0.1104(2) 0.1650(6)
H8A H 0.0520 0.0695 0.1394
H9A H 0.0478 0.1529 0.1383
H10A H 0.479(4) -0.039(2) 0.676(5)
loop_
_geom_bond_atom_site_label_1
_geom_bond_atom_site_label_2
_geom_bond_site_symmetry_1
_geom_bond_site_symmetry_2
Cd1 O1 1_555 1_555
O1 C1 1_555 1_555
O2 Cd1 1_555 1_555
N1 Cd1 1_555 1_555
C1 O2 1_555 1_555
C2 C1 1_555 1_555
H1 C2 1_555 1_555
H2 C2 1_555 1_555
H3 C2 1_555 1_555
C3 N1 1_555 1_555
H4 C3 1_555 1_555
C4 C3 1_555 1_555
H5 C4 1_555 1_555
C5 C4 1_555 1_555
C6 C5 1_555 1_555
H6 C6 1_555 1_555
C7 N1 1_555 1_555
H7 C7 1_555 1_555
C8 C5 1_555 1_555
H8 C8 1_555 1_555
H9 C8 1_555 1_555
O3 Cd1 1_555 1_555
H10 O3 1_555 1_555
Cd1_2 N1A 1_555 1_555
O1A Cd1 1_555 1_555
O2A Cd1 1_555 1_555
N1A C3A 1_555 1_555
N1A_2 Cd1 1_555 1_555
C1A O1A 1_555 1_555
C2A C1A 1_555 1_555
H1A C2A 1_555 1_555
H2A C2A 1_555 1_555
H3A C2A 1_555 1_555
C3A H4A 1_555 1_555
C4A C3A 1_555 1_555
H5A C4A 1_555 1_555
C5A C4A 1_555 1_555
C6A C5A 1_555 1_555
H6A C6A 1_555 1_555
C7A N1A 1_555 1_555
H7A C7A 1_555 1_555
C8A C8 1_555 1_555
H8A C8A 1_555 1_555
H9A C8A 1_555 1_555
H10A O3 1_555 1_555
C6 C7 1_555 1_555
O2A C1A 1_555 1_555
C5A C8A 1_555 1_555
C6A C7A 1_555 1_555

#END
