
#######################################################################
#
#                 Cambridge Crystallographic Data Centre
#                                CCDC 
#
#######################################################################
#
# If this CIF has been generated from an entry in the Cambridge 
# Structural Database, then it will include bibliographic, chemical, 
# crystal, experimental, refinement or atomic coordinate data resulting 
# from the CCDC's data processing and validation procedures.
#
#######################################################################

data_ONIHEZ
_symmetry_cell_setting           triclinic
_symmetry_space_group_name_H-M   'P -1'
_symmetry_Int_Tables_number      2
_space_group_name_Hall           '-P 1'
loop_
_symmetry_equiv_pos_site_id
_symmetry_equiv_pos_as_xyz
1 x,y,z
2 -x,-y,-z
_cell_length_a                   9.7676(7)
_cell_length_b                   10.4386(8)
_cell_length_c                   15.8912(11)
_cell_angle_alpha                82.9950(10)
_cell_angle_beta                 78.1760(10)
_cell_angle_gamma                77.3550(10)
_cell_volume                     1542.37
loop_
_atom_site_label
_atom_site_type_symbol
_atom_site_fract_x
_atom_site_fract_y
_atom_site_fract_z
Cd1 Cd 0.90565(3) 0.09905(2) 0.416636(17)
O1 O 0.1387(3) -0.0726(3) 0.31699(19)
N1 N 0.8569(3) 0.2907(3) 0.4815(2)
C1 C 0.5280(5) 0.8656(5) 0.9017(3)
H1 H 0.4900 0.9015 0.8486
H2 H 0.5974 0.9183 0.9083
Cd2 Cd 0.98233(3) -0.08099(3) 0.228755(17)
O2 O 0.1343(3) 0.0165(2) 0.43790(17)
N2 N 0.1807(4) 0.9123(3) 1.1192(2)
C2 C 0.2814(5) 0.9704(4) 0.9735(3)
H3 H 0.2702 1.0228 0.9211
O3 O 0.8327(3) -0.0656(2) 0.36613(17)
N3 N 0.7134(4) 0.6346(3) 0.6943(2)
O4 O 0.6568(3) 0.0959(3) 0.41390(18)
N4 N 0.6006(4) 0.7307(3) 0.8923(2)
C3 C 0.5032(7) 0.6502(6) 0.8813(4)
H4 H 0.4213 0.7092 0.8599
H5 H 0.4658 0.6106 0.9389
O5 O 0.9331(3) 0.2248(3) 0.29230(18)
C4 C 0.7331(4) 0.7229(5) 0.8279(3)
H6 H 0.7914 0.6333 0.8351
H7 H 0.7870 0.7853 0.8415
O6 O 0.8937(3) 0.1251(3) 0.18529(18)
C5 C 0.1734(4) 0.9849(4) 1.0442(3)
H8 H 0.0895 1.0496 1.0397
O7 O 0.9904(3) 0.6915(3) 0.23903(17)
C6 C 0.3021(5) 0.8242(4) 1.1239(3)
H9 H 0.3103 0.7722 1.1767
O8 O 0.8775(3) 0.8182(3) 0.1434(2)
C7 C 0.7199(5) 0.7511(4) 0.7343(3)
H10 H 0.6326 0.8186 0.7295
H11 H 0.8028 0.7878 0.7023
C8 C 0.7085(5) 0.5040(4) 0.4952(3)
H12 H 0.6330 0.5687 0.4771
C9 C 0.4159(5) 0.8055(5) 1.0556(3)
H13 H 0.5000 0.7421 1.0620
C10 C 0.4066(4) 0.8794(4) 0.9784(3)
C11 C 0.7520(5) 0.3858(4) 0.4582(3)
H14 H 0.7056 0.3710 0.4143
C12 C 0.7315(5) 0.6565(4) 0.6008(3)
H15 H 0.8051 0.7104 0.5794
H16 H 0.6406 0.7061 0.5848
C13 C 0.8408(4) 0.3659(4) 0.0869(3)
H17 H 0.8281 0.2897 0.0647
C14 C 0.5510(4) -0.2858(4) 0.3216(3)
H18 H 0.5855 -0.3709 0.3012
C15 C 0.9214(4) 0.3144(4) 0.5430(2)
H19 H 0.9965 0.2481 0.5600
C16 C 0.8158(5) 0.4879(4) 0.0402(3)
H20 H 0.7837 0.4952 -0.0131
C17 C 0.7753(4) 0.5282(4) 0.5586(3)
C18 C 0.1986(4) -0.0511(4) 0.3744(2)
C19 C 0.4486(4) -0.0400(4) 0.3871(2)
H21 H 0.4134 0.0417 0.4121
C20 C 0.8877(4) 0.5888(4) 0.1480(2)
C21 C 0.9087(4) 0.4662(4) 0.1961(2)
H22 H 0.9400 0.4590 0.2496
C22 C 0.4065(4) -0.2315(4) 0.3343(3)
H23 H 0.3420 -0.2783 0.3203
C23 C 0.8843(4) 0.4299(4) 0.5828(2)
H24 H 0.9327 0.4425 0.6263
C24 C 0.6452(4) -0.2146(4) 0.3392(3)
H25 H 0.7447 -0.2508 0.3298
C25 C 0.8378(4) 0.5983(4) 0.0712(3)
H26 H 0.8186 0.6815 0.0397
C26 C 0.9213(4) 0.7057(4) 0.1789(3)
C27 C 0.9052(4) 0.2244(4) 0.2188(3)
C28 C 0.3549(4) -0.1093(4) 0.3671(2)
C29 C 0.8840(4) 0.3552(4) 0.1657(2)
C30 C 0.5953(4) -0.0915(4) 0.3702(2)
C31 C 0.6980(4) -0.0129(4) 0.3852(2)
C32 C 0.5595(6) 0.5406(5) 0.8220(3)
H27 H 0.6518 0.4906 0.8358
H28 H 0.4920 0.4796 0.8336
C33 C 0.5812(5) 0.5856(5) 0.7275(3)
H29 H 0.5812 0.5111 0.6945
H30 H 0.4993 0.6564 0.7169
Cd1A Cd 0.09435(3) -0.09905(2) 0.583364(17)
Cd1_2 Cd -0.09435(3) 0.09905(2) 0.416636(17)
O1_2 O 1.1387(3) -0.0726(3) 0.31699(19)
Cd2_2 Cd -0.01767(3) -0.08099(3) 0.228755(17)
Cd2_3 Cd -0.01767(3) 0.91901(3) 1.228755(17)
Cd2_4 Cd 0.98233(3) 0.91901(3) 0.228755(17)
O2A O 0.8657(3) -0.0165(2) 0.56210(17)
O2_2 O 1.1343(3) 0.0165(2) 0.43790(17)
N2_2 N 1.1807(4) -0.0877(3) 0.1192(2)
O7_2 O 0.9904(3) -0.3085(3) 0.23903(17)
O8_2 O 0.8775(3) -0.1818(3) 0.1434(2)
loop_
_geom_bond_atom_site_label_1
_geom_bond_atom_site_label_2
_geom_bond_site_symmetry_1
_geom_bond_site_symmetry_2
Cd1 N1 1_555 1_555
O1 C18 1_555 1_555
N1 C11 1_555 1_555
C1 H1 1_555 1_555
H2 C1 1_555 1_555
Cd2 O3 1_555 1_555
O2 C18 1_555 1_555
N2 C5 1_555 1_555
C2 H3 1_555 1_555
O3 Cd1 1_555 1_555
N3 C7 1_555 1_555
O4 Cd1 1_555 1_555
N4 C1 1_555 1_555
C3 N4 1_555 1_555
H4 C3 1_555 1_555
H5 C3 1_555 1_555
O5 Cd1 1_555 1_555
C4 N4 1_555 1_555
H6 C4 1_555 1_555
H7 C4 1_555 1_555
O6 Cd2 1_555 1_555
C5 C2 1_555 1_555
H8 C5 1_555 1_555
O7 C26 1_555 1_555
C6 N2 1_555 1_555
H9 C6 1_555 1_555
O8 C26 1_555 1_555
C7 C4 1_555 1_555
H10 C7 1_555 1_555
H11 C7 1_555 1_555
C8 H12 1_555 1_555
C9 C6 1_555 1_555
H13 C9 1_555 1_555
C10 C1 1_555 1_555
C11 C8 1_555 1_555
H14 C11 1_555 1_555
C12 N3 1_555 1_555
H15 C12 1_555 1_555
H16 C12 1_555 1_555
C13 H17 1_555 1_555
C14 H18 1_555 1_555
C15 N1 1_555 1_555
H19 C15 1_555 1_555
C16 C13 1_555 1_555
H20 C16 1_555 1_555
C17 C8 1_555 1_555
C18 C28 1_555 1_555
C19 H21 1_555 1_555
C20 C21 1_555 1_555
C21 H22 1_555 1_555
C22 C14 1_555 1_555
H23 C22 1_555 1_555
C23 C15 1_555 1_555
H24 C23 1_555 1_555
C24 C14 1_555 1_555
H25 C24 1_555 1_555
C25 C16 1_555 1_555
H26 C25 1_555 1_555
C26 C20 1_555 1_555
C27 O5 1_555 1_555
C28 C19 1_555 1_555
C29 C13 1_555 1_555
C30 C19 1_555 1_555
C31 O3 1_555 1_555
C32 C3 1_555 1_555
H27 C32 1_555 1_555
H28 C32 1_555 1_555
C33 N3 1_555 1_555
H29 C33 1_555 1_555
H30 C33 1_555 1_555
Cd1A O2 1_555 1_555
Cd1_2 O2 1_555 1_555
O1_2 Cd2 1_555 1_555
Cd2_2 O1 1_555 1_555
Cd2_3 N2 1_555 1_555
Cd2_4 O7 1_555 1_555
O2A Cd1 1_555 1_555
O2_2 Cd1 1_555 1_555
N2_2 Cd2 1_555 1_555
O7_2 Cd2 1_555 1_555
O8_2 Cd2 1_555 1_555
C2 C10 1_555 1_555
O4 C31 1_555 1_555
O6 C27 1_555 1_555
O8 Cd2_4 1_555 1_555
C9 C10 1_555 1_555
C12 C17 1_555 1_555
C17 C23 1_555 1_555
C20 C25 1_555 1_555
C21 C29 1_555 1_555
C22 C28 1_555 1_555
C24 C30 1_555 1_555
C27 C29 1_555 1_555
C30 C31 1_555 1_555
C32 C33 1_555 1_555

#END
