
#######################################################################
#
#                 Cambridge Crystallographic Data Centre
#                                CCDC 
#
#######################################################################
#
# If this CIF has been generated from an entry in the Cambridge 
# Structural Database, then it will include bibliographic, chemical, 
# crystal, experimental, refinement or atomic coordinate data resulting 
# from the CCDC's data processing and validation procedures.
#
#######################################################################

data_ONOCOK
_symmetry_cell_setting           monoclinic
_symmetry_space_group_name_H-M   'P 21/c'
_symmetry_Int_Tables_number      14
_space_group_name_Hall           '-P 2ybc'
loop_
_symmetry_equiv_pos_site_id
_symmetry_equiv_pos_as_xyz
1 x,y,z
2 -x,1/2+y,1/2-z
3 -x,-y,-z
4 x,1/2-y,1/2+z
_cell_length_a                   14.001(3)
_cell_length_b                   14.448(2)
_cell_length_c                   8.8943(11)
_cell_angle_alpha                90
_cell_angle_beta                 90.280(14)
_cell_angle_gamma                90
_cell_volume                     1799.17
loop_
_atom_site_label
_atom_site_type_symbol
_atom_site_fract_x
_atom_site_fract_y
_atom_site_fract_z
Mn1 Mn 0.50422(4) 0.12279(4) 0.17300(7)
Mn2 Mn 0.58406(4) 0.17673(4) -0.17005(7)
O1 O 0.3684(2) 0.0901(2) 0.2556(4)
O2 O 0.3795(2) -0.0621(2) 0.2919(4)
O3 O 0.4635(2) 0.1087(2) -0.0599(3)
O4 O 0.4154(2) -0.0003(2) -0.2210(3)
O5 O -0.3019(2) 0.2400(2) 0.2419(3)
O6 O -0.3573(2) 0.1557(2) 0.0513(3)
C1 C 0.3360(3) 0.0141(3) 0.3006(5)
C2 C 0.2387(3) 0.0130(3) 0.3690(5)
C3 C 0.1782(3) 0.0877(3) 0.3521(6)
H1 H 0.1994 0.1412 0.3048
C4 C 0.0853(3) 0.0826(3) 0.4060(6)
H2 H 0.0454 0.1337 0.3956
C5 C 0.0504(3) 0.0031(3) 0.4750(5)
C6 C 0.1144(3) -0.0701(3) 0.4975(5)
H3 H 0.0944 -0.1227 0.5487
C7 C 0.2073(3) -0.0651(3) 0.4445(5)
H4 H 0.2488 -0.1146 0.4597
C8 C 0.3988(3) 0.0665(3) -0.1377(4)
C9 C 0.2972(3) 0.0982(3) -0.1226(5)
C10 C 0.2726(3) 0.1732(3) -0.0311(5)
H5 H 0.3203 0.2103 0.0105
C11 C 0.1777(3) 0.1924(3) -0.0022(5)
H6 H 0.1624 0.2429 0.0579
C12 C 0.1040(3) 0.1378(3) -0.0611(5)
C13 C 0.1295(3) 0.0668(3) -0.1599(5)
H7 H 0.0819 0.0321 -0.2064
C14 C 0.2246(3) 0.0473(3) -0.1898(5)
H8 H 0.2398 -0.0004 -0.2556
C15 C -0.2886(3) 0.1923(3) 0.1266(5)
C16 C -0.1881(3) 0.1760(3) 0.0769(5)
C17 C -0.1135(3) 0.2189(3) 0.1542(5)
H9 H -0.1269 0.2559 0.2370
C18 C -0.0198(3) 0.2072(3) 0.1093(5)
H10 H 0.0289 0.2367 0.1622
C19 C 0.0032(3) 0.1513(3) -0.0149(5)
C20 C -0.0724(3) 0.1072(3) -0.0898(5)
H11 H -0.0594 0.0691 -0.1714
C21 C -0.1665(3) 0.1194(3) -0.0443(5)
H12 H -0.2155 0.0892 -0.0957
O7 O 0.5241(2) 0.1897(2) -0.6048(3)
O8 O 0.4889(2) 0.2175(2) -0.3644(3)
C22 C 0.4917(3) 0.1663(3) -0.4786(5)
H13 H 0.4680 0.1064 -0.4691
Mn1B Mn -0.50422(4) -0.12279(4) 0.82700(7)
Mn1_2 Mn -0.49578(4) 0.12279(4) 0.17300(7)
Mn1_3 Mn -0.49578(4) 0.12279(4) 1.17300(7)
Mn1_4 Mn 0.50422(4) 0.12279(4) -0.82700(7)
Mn1A Mn -0.50422(4) -0.37721(4) 1.32700(7)
Mn1B_2 Mn -0.50422(4) -0.12279(4) 1.82700(7)
Mn1B_3 Mn 0.49578(4) -0.12279(4) -0.17300(7)
Mn1B_4 Mn 0.49578(4) -0.12279(4) 0.82700(7)
Mn1C Mn 0.50422(4) 0.37721(4) -0.32700(7)
Mn2B Mn -0.58406(4) -0.17673(4) 1.17005(7)
Mn2_2 Mn -0.41594(4) 0.17673(4) -0.17005(7)
Mn2_3 Mn -0.41594(4) 0.17673(4) 0.82995(7)
Mn2A Mn -0.58406(4) -0.32327(4) 1.67005(7)
Mn2A_2 Mn 0.41594(4) -0.32327(4) 0.67005(7)
Mn2B_2 Mn 0.41594(4) -0.17673(4) 0.17005(7)
Mn2B_3 Mn 0.41594(4) -0.17673(4) 1.17005(7)
Mn2C Mn -0.41594(4) 0.32327(4) 0.32995(7)
Mn2C_2 Mn 0.58406(4) 0.32327(4) -0.67005(7)
O1B O -0.3684(2) -0.0901(2) 0.7444(4)
O2B O -0.3795(2) 0.0621(2) 0.7081(4)
O2_2 O -0.6205(2) -0.0621(2) 1.2919(4)
O2B_2 O 0.6205(2) 0.0621(2) -0.2919(4)
O3B O -0.4635(2) -0.1087(2) 1.0599(3)
O4B O -0.4154(2) 0.0003(2) 1.2210(3)
O4_2 O -0.5846(2) -0.0003(2) 0.7790(3)
O4B_2 O 0.5846(2) 0.0003(2) 0.2210(3)
O5B O 0.3019(2) -0.2400(2) 0.7581(3)
O5A O -0.6981(2) -0.2600(2) 1.2581(3)
O5C O 0.6981(2) 0.2600(2) -0.2581(3)
O6B O 0.3573(2) -0.1557(2) 0.9487(3)
O6_2 O 0.6427(2) 0.1557(2) 0.0513(3)
O6B_2 O -0.6427(2) -0.1557(2) 0.9487(3)
C1B C -0.3360(3) -0.0141(3) 0.6994(5)
C2B C -0.2387(3) -0.0130(3) 0.6310(5)
C3B C -0.1782(3) -0.0877(3) 0.6479(6)
H1B H -0.1994 -0.1412 0.6952
C4B C -0.0853(3) -0.0826(3) 0.5940(6)
H2B H -0.0454 -0.1337 0.6044
C5B C -0.0504(3) -0.0031(3) 0.5250(5)
C6B C -0.1144(3) 0.0701(3) 0.5025(5)
H3B H -0.0944 0.1227 0.4513
C7B C -0.2073(3) 0.0651(3) 0.5555(5)
H4B H -0.2488 0.1146 0.5403
C8B C -0.3988(3) -0.0665(3) 1.1377(4)
C9B C -0.2972(3) -0.0982(3) 1.1226(5)
C10B C -0.2726(3) -0.1732(3) 1.0311(5)
H5B H -0.3203 -0.2103 0.9895
C11B C -0.1777(3) -0.1924(3) 1.0022(5)
H6B H -0.1624 -0.2429 0.9421
C12B C -0.1040(3) -0.1378(3) 1.0611(5)
C13B C -0.1295(3) -0.0668(3) 1.1599(5)
H7B H -0.0819 -0.0321 1.2064
C14B C -0.2246(3) -0.0473(3) 1.1898(5)
H8B H -0.2398 0.0004 1.2556
C15B C 0.2886(3) -0.1923(3) 0.8734(5)
C16B C 0.1881(3) -0.1760(3) 0.9231(5)
C17B C 0.1135(3) -0.2189(3) 0.8458(5)
H9B H 0.1269 -0.2559 0.7630
C18B C 0.0198(3) -0.2072(3) 0.8907(5)
H10B H -0.0289 -0.2367 0.8378
C19B C -0.0032(3) -0.1513(3) 1.0149(5)
C20B C 0.0724(3) -0.1072(3) 1.0898(5)
H11B H 0.0594 -0.0691 1.1714
C21B C 0.1665(3) -0.1194(3) 1.0443(5)
H12B H 0.2155 -0.0892 1.0957
O7B O -0.5241(2) -0.1897(2) 1.6048(3)
O7_2 O 0.5241(2) 0.1897(2) 0.3952(3)
O7A O -0.5241(2) -0.3103(2) 1.1048(3)
O7B_2 O -0.5241(2) -0.1897(2) 0.6048(3)
O7C O 0.5241(2) 0.3103(2) -0.1048(3)
O8B O -0.4889(2) -0.2175(2) 1.3644(3)
O8A O -0.4889(2) -0.2825(2) 0.8644(3)
O8C O 0.4889(2) 0.2825(2) 0.1356(3)
C22B C -0.4917(3) -0.1663(3) 1.4786(5)
H13B H -0.4680 -0.1064 1.4691
loop_
_geom_bond_atom_site_label_1
_geom_bond_atom_site_label_2
_geom_bond_site_symmetry_1
_geom_bond_site_symmetry_2
Mn1 O1 1_555 1_555
Mn2 O3 1_555 1_555
O1 C1 1_555 1_555
O2 C1 1_555 1_555
O3 Mn1 1_555 1_555
O4 C8 1_555 1_555
O5 C15 1_555 1_555
O6 C15 1_555 1_555
C1 C2 1_555 1_555
C2 C3 1_555 1_555
C3 H1 1_555 1_555
C4 C3 1_555 1_555
H2 C4 1_555 1_555
C5 C4 1_555 1_555
C6 C5 1_555 1_555
H3 C6 1_555 1_555
C7 C2 1_555 1_555
H4 C7 1_555 1_555
C8 O3 1_555 1_555
C9 C8 1_555 1_555
C10 C9 1_555 1_555
H5 C10 1_555 1_555
C11 C10 1_555 1_555
H6 C11 1_555 1_555
C12 C11 1_555 1_555
C13 C12 1_555 1_555
H7 C13 1_555 1_555
C14 C9 1_555 1_555
H8 C14 1_555 1_555
C15 C16 1_555 1_555
C16 C17 1_555 1_555
C17 H9 1_555 1_555
C18 C17 1_555 1_555
H10 C18 1_555 1_555
C19 C12 1_555 1_555
C20 C19 1_555 1_555
H11 C20 1_555 1_555
C21 C16 1_555 1_555
H12 C21 1_555 1_555
O7 C22 1_555 1_555
O8 Mn2 1_555 1_555
C22 O8 1_555 1_555
H13 C22 1_555 1_555
Mn1B O1B 1_555 1_555
Mn1_2 O6 1_555 1_555
Mn1_3 O4B 1_555 1_555
Mn1_4 O7 1_555 1_555
Mn1A O7A 1_555 1_555
Mn1B_2 O7B 1_555 1_555
Mn1B_3 O4 1_555 1_555
Mn1B_4 O6B 1_555 1_555
Mn1C O8 1_555 1_555
Mn2B O2_2 1_555 1_555
Mn2_2 O6 1_555 1_555
Mn2_3 O2B 1_555 1_555
Mn2A O7B 1_555 1_555
Mn2A_2 O5B 1_555 1_555
Mn2B_2 O2 1_555 1_555
Mn2B_3 O6B 1_555 1_555
Mn2C O5 1_555 1_555
Mn2C_2 O7 1_555 1_555
O1B C1B 1_555 1_555
O2B C1B 1_555 1_555
O2B_2 Mn2 1_555 1_555
O3B Mn1B 1_555 1_555
O4B C8B 1_555 1_555
O4_2 Mn1B 1_555 1_555
O4B_2 Mn1 1_555 1_555
O5B C15B 1_555 1_555
O5A Mn2B 1_555 1_555
O5C Mn2 1_555 1_555
O6B C15B 1_555 1_555
O6_2 Mn1 1_555 1_555
O6B_2 Mn1B 1_555 1_555
C1B C2B 1_555 1_555
C2B C3B 1_555 1_555
C3B H1B 1_555 1_555
C4B C3B 1_555 1_555
H2B C4B 1_555 1_555
C5B C5 1_555 1_555
C6B C5B 1_555 1_555
H3B C6B 1_555 1_555
C7B C2B 1_555 1_555
H4B C7B 1_555 1_555
C8B O3B 1_555 1_555
C9B C8B 1_555 1_555
C10B C9B 1_555 1_555
H5B C10B 1_555 1_555
C11B C10B 1_555 1_555
H6B C11B 1_555 1_555
C12B C11B 1_555 1_555
C13B C12B 1_555 1_555
H7B C13B 1_555 1_555
C14B C9B 1_555 1_555
H8B C14B 1_555 1_555
C15B C16B 1_555 1_555
C16B C17B 1_555 1_555
C17B H9B 1_555 1_555
C18B C17B 1_555 1_555
H10B C18B 1_555 1_555
C19B C12B 1_555 1_555
C20B C19B 1_555 1_555
H11B C20B 1_555 1_555
C21B C16B 1_555 1_555
H12B C21B 1_555 1_555
O7B C22B 1_555 1_555
O7_2 Mn1 1_555 1_555
O7A Mn2B 1_555 1_555
O7B_2 Mn1B 1_555 1_555
O7C Mn2 1_555 1_555
O8B Mn1A 1_555 1_555
O8A Mn1B 1_555 1_555
O8C Mn1 1_555 1_555
C22B O8B 1_555 1_555
H13B C22B 1_555 1_555
Mn2 O6_2 1_555 1_555
C6 C7 1_555 1_555
C13 C14 1_555 1_555
C18 C19 1_555 1_555
C20 C21 1_555 1_555
Mn1C O7C 1_555 1_555
Mn2B O3B 1_555 1_555
Mn2B O6B_2 1_555 1_555
Mn2B O8B 1_555 1_555
C4B C5B 1_555 1_555
C6B C7B 1_555 1_555
C13B C14B 1_555 1_555
C18B C19B 1_555 1_555
C20B C21B 1_555 1_555

#END
