
#######################################################################
#
#                 Cambridge Crystallographic Data Centre
#                                CCDC 
#
#######################################################################
#
# If this CIF has been generated from an entry in the Cambridge 
# Structural Database, then it will include bibliographic, chemical, 
# crystal, experimental, refinement or atomic coordinate data resulting 
# from the CCDC's data processing and validation procedures.
#
#######################################################################

data_ONOKEI
_symmetry_cell_setting           triclinic
_symmetry_space_group_name_H-M   'P -1'
_symmetry_Int_Tables_number      2
_space_group_name_Hall           '-P 1'
loop_
_symmetry_equiv_pos_site_id
_symmetry_equiv_pos_as_xyz
1 x,y,z
2 -x,-y,-z
_cell_length_a                   8.3322(17)
_cell_length_b                   8.6563(17)
_cell_length_c                   11.581(2)
_cell_angle_alpha                68.79(3)
_cell_angle_beta                 74.25(3)
_cell_angle_gamma                70.99(3)
_cell_volume                     724.975
loop_
_atom_site_label
_atom_site_type_symbol
_atom_site_fract_x
_atom_site_fract_y
_atom_site_fract_z
Cu1 Cu 0.81076(5) 0.54696(5) 0.28460(4)
Cu2 Cu 1.0000 0.5000 0.5000
O1 O 1.0119(3) 0.5788(3) 0.3150(2)
O2 O 0.5789(3) 0.5306(3) 0.2757(3)
O3 O 0.6774(5) 0.6142(5) 0.0766(3)
O4 O 0.4087(5) 0.6098(5) 0.1417(4)
O5 O 1.2855(4) 0.5432(4) 0.4863(3)
N1 N 1.1390(4) 0.2687(4) 0.4895(3)
N2 N 1.2756(4) 0.2614(4) 0.3911(3)
N3 N 1.2559(4) -0.0002(3) 0.4969(3)
N4 N 1.2586(4) -0.1719(3) 0.5520(3)
N5 N 1.0764(4) -0.3088(4) 0.7303(3)
N6 N 1.7073(4) -0.1980(4) 0.2508(3)
N7 N 0.5538(5) 0.5872(4) 0.1603(4)
C1 C 1.1290(4) 0.1089(4) 0.5533(3)
C2 C 1.3462(4) 0.0976(4) 0.3966(3)
C3 C 1.1263(4) -0.1668(4) 0.6479(4)
C4 C 1.0371(5) 0.0036(4) 0.6567(3)
C5 C 0.8978(5) 0.0261(5) 0.7525(4)
C6 C 0.8508(5) -0.1207(5) 0.8365(4)
C7 C 0.9413(5) -0.2806(5) 0.8204(4)
C8 C 1.5706(5) -0.1377(5) 0.3290(4)
C9 C 1.4934(4) 0.0374(4) 0.3080(4)
C10 C 1.5591(5) 0.1508(5) 0.1996(4)
C11 C 1.7017(5) 0.0877(5) 0.1198(4)
C12 C 1.7739(5) -0.0875(5) 0.1493(4)
H1 H 0.840(7) 0.137(8) 0.755(5)
H2 H 0.759(8) -0.117(8) 0.902(6)
H3 H 0.908(7) -0.386(8) 0.878(5)
H4 H 1.532(8) -0.198(7) 0.397(6)
H5 H 1.512(7) 0.272(8) 0.183(5)
H6 H 1.754(7) 0.167(7) 0.046(6)
H7 H 1.865(8) -0.123(7) 0.094(6)
H8 H 1.286(8) 0.643(8) 0.477(6)
H9 H 1.353(8) 0.526(8) 0.434(6)
H10 H 1.366(2) -0.216(7) 0.535(6)
Cu1A Cu 1.18924(5) 0.45304(5) 0.71540(4)
Cu1A_2 Cu 1.18924(5) -0.54696(5) 0.71540(4)
Cu1_2 Cu 1.81076(5) -0.45304(5) 0.28460(4)
Cu1_3 Cu 0.81076(5) 1.54696(5) 0.28460(4)
Cu1A_3 Cu 0.18924(5) 1.45304(5) 0.71540(4)
O1A O 0.9881(3) 0.4212(3) 0.6850(2)
O2A O 1.4211(3) 0.4694(3) 0.7243(3)
O3A O 1.3226(5) 0.3858(5) 0.9234(3)
O4A O 1.5913(5) 0.3902(5) 0.8583(4)
O5A O 0.7145(4) 0.4568(4) 0.5137(3)
N1A N 0.8610(4) 0.7313(4) 0.5105(3)
N2A N 0.7244(4) 0.7386(4) 0.6089(3)
N3A N 0.7441(4) 1.0002(3) 0.5031(3)
N4A N 0.7414(4) 1.1719(3) 0.4480(3)
N5A N 0.9236(4) 1.3088(4) 0.2697(3)
N5A_2 N 0.9236(4) 0.3088(4) 0.2697(3)
N5_2 N 1.0764(4) 0.6912(4) 0.7303(3)
N6A N 0.2927(4) 1.1980(4) 0.7492(3)
N6_2 N 0.7073(4) 0.8020(4) 0.2508(3)
N6A_2 N 1.2927(4) 0.1980(4) 0.7492(3)
N7A N 1.4462(5) 0.4128(4) 0.8397(4)
C1A C 0.8710(4) 0.8911(4) 0.4467(3)
C2A C 0.6538(4) 0.9024(4) 0.6034(3)
C3A C 0.8737(4) 1.1668(4) 0.3521(4)
C4A C 0.9629(5) 0.9964(4) 0.3433(3)
C5A C 1.1022(5) 0.9739(5) 0.2475(4)
C6A C 1.1492(5) 1.1207(5) 0.1635(4)
C7A C 1.0587(5) 1.2806(5) 0.1796(4)
C8A C 0.4294(5) 1.1377(5) 0.6710(4)
C9A C 0.5066(4) 0.9626(4) 0.6920(4)
C10A C 0.4409(5) 0.8492(5) 0.8004(4)
C11A C 0.2983(5) 0.9123(5) 0.8802(4)
C12A C 0.2261(5) 1.0875(5) 0.8507(4)
H1A H 1.160(7) 0.863(8) 0.245(5)
H2A H 1.241(8) 1.117(8) 0.098(6)
H3A H 1.092(7) 1.386(8) 0.122(5)
H4A H 0.468(8) 1.198(7) 0.603(6)
H5A H 0.488(7) 0.728(8) 0.817(5)
H6A H 0.246(7) 0.833(7) 0.954(6)
H7A H 0.135(8) 1.123(7) 0.906(6)
H8A H 0.714(8) 0.357(8) 0.523(6)
H9A H 0.647(8) 0.474(8) 0.566(6)
H10A H 0.634(2) 1.216(7) 0.465(6)
loop_
_geom_bond_atom_site_label_1
_geom_bond_atom_site_label_2
_geom_bond_site_symmetry_1
_geom_bond_site_symmetry_2
Cu1 O1 1_555 1_555
Cu2 O1 1_555 1_555
O2 Cu1 1_555 1_555
O3 Cu1 1_555 1_555
O4 N7 1_555 1_555
O5 Cu2 1_555 1_555
N1 Cu2 1_555 1_555
N2 N1 1_555 1_555
N3 N4 1_555 1_555
N4 C3 1_555 1_555
N5 C3 1_555 1_555
N6 C8 1_555 1_555
N7 O2 1_555 1_555
C1 N1 1_555 1_555
C2 N2 1_555 1_555
C3 C4 1_555 1_555
C4 C1 1_555 1_555
C5 C4 1_555 1_555
C6 C5 1_555 1_555
C7 N5 1_555 1_555
C8 C9 1_555 1_555
C9 C2 1_555 1_555
C10 C9 1_555 1_555
C11 C10 1_555 1_555
C12 N6 1_555 1_555
H1 C5 1_555 1_555
H2 C6 1_555 1_555
H3 C7 1_555 1_555
H4 C8 1_555 1_555
H5 C10 1_555 1_555
H6 C11 1_555 1_555
H7 C12 1_555 1_555
H8 O5 1_555 1_555
H9 O5 1_555 1_555
H10 N4 1_555 1_555
Cu1A O5 1_555 1_555
Cu1A_2 N5 1_555 1_555
Cu1_2 N6 1_555 1_555
Cu1_3 N5A 1_555 1_555
Cu1A_3 N6A 1_555 1_555
O1A Cu2 1_555 1_555
O2A Cu1A 1_555 1_555
O3A Cu1A 1_555 1_555
O4A N7A 1_555 1_555
O5A Cu1 1_555 1_555
N1A Cu2 1_555 1_555
N2A N1A 1_555 1_555
N3A N4A 1_555 1_555
N4A C3A 1_555 1_555
N5A C3A 1_555 1_555
N5A_2 Cu1 1_555 1_555
N5_2 Cu1A 1_555 1_555
N6A C8A 1_555 1_555
N6_2 Cu1 1_555 1_555
N6A_2 Cu1A 1_555 1_555
N7A O2A 1_555 1_555
C1A N1A 1_555 1_555
C2A N2A 1_555 1_555
C3A C4A 1_555 1_555
C4A C1A 1_555 1_555
C5A C4A 1_555 1_555
C6A C5A 1_555 1_555
C7A N5A 1_555 1_555
C8A C9A 1_555 1_555
C9A C2A 1_555 1_555
C10A C9A 1_555 1_555
C11A C10A 1_555 1_555
C12A N6A 1_555 1_555
H1A C5A 1_555 1_555
H2A C6A 1_555 1_555
H3A C7A 1_555 1_555
H4A C8A 1_555 1_555
H5A C10A 1_555 1_555
H6A C11A 1_555 1_555
H7A C12A 1_555 1_555
H8A O5A 1_555 1_555
H9A O5A 1_555 1_555
H10A N4A 1_555 1_555
Cu2 O5A 1_555 1_555
O3 N7 1_555 1_555
N3 C1 1_555 1_555
N3 C2 1_555 1_555
C6 C7 1_555 1_555
C11 C12 1_555 1_555
Cu1A O1A 1_555 1_555
O3A N7A 1_555 1_555
N3A C1A 1_555 1_555
N3A C2A 1_555 1_555
C6A C7A 1_555 1_555
C11A C12A 1_555 1_555

#END
