
#######################################################################
#
#                 Cambridge Crystallographic Data Centre
#                                CCDC 
#
#######################################################################
#
# If this CIF has been generated from an entry in the Cambridge 
# Structural Database, then it will include bibliographic, chemical, 
# crystal, experimental, refinement or atomic coordinate data resulting 
# from the CCDC's data processing and validation procedures.
#
#######################################################################

data_ONOPUD
_symmetry_cell_setting           monoclinic
_symmetry_space_group_name_H-M   'C 2/c'
_symmetry_Int_Tables_number      15
_space_group_name_Hall           '-C 2yn'
loop_
_symmetry_equiv_pos_site_id
_symmetry_equiv_pos_as_xyz
1 x,y,z
2 -x,y,1/2-z
3 1/2+x,1/2+y,z
4 1/2-x,1/2+y,1/2-z
5 -x,-y,-z
6 x,-y,1/2+z
7 1/2-x,1/2-y,-z
8 1/2+x,1/2-y,1/2+z
_cell_length_a                   22.077(2)
_cell_length_b                   10.8362(11)
_cell_length_c                   17.4567(17)
_cell_angle_alpha                90
_cell_angle_beta                 107.3720(10)
_cell_angle_gamma                90
_cell_volume                     3985.69
loop_
_atom_site_label
_atom_site_type_symbol
_atom_site_fract_x
_atom_site_fract_y
_atom_site_fract_z
Nd1 Nd 0.174390(11) 0.29473(2) 0.255699(14)
Nd2 Nd 0.096173(11) 0.53787(3) 0.063959(14)
P1 P 0.02997(5) 0.27128(11) 0.07531(7)
O1 O 0.09411(14) 0.3210(3) 0.12766(19)
O3 O 0.00477(14) 0.3709(3) 0.01122(18)
O4 O -0.01374(15) 0.2282(3) 0.1205(2)
O5 O 0.26083(19) 0.1909(4) -0.1618(2)
O6 O 0.30941(15) 0.0729(4) -0.0570(2)
O7 O 0.17250(15) 0.0869(3) 0.1883(2)
O8 O 0.26601(16) 0.1639(3) 0.3146(2)
O9 O 0.32808(14) 0.0124(3) 0.29674(19)
O10 O 0.23234(16) -0.0735(3) 0.1744(2)
O11 O 0.18031(17) 0.2599(3) 0.3957(2)
O12 O 0.10643(16) 0.4373(3) 0.3087(2)
O13 O 0.08310(15) 0.5028(3) 0.4185(2)
O14 O 0.15052(17) 0.3165(3) 0.5023(2)
O15 O 0.07735(16) 0.1698(3) 0.2652(2)
H3 H 0.0566 0.2123 0.2897
H4 H 0.0538 0.1533 0.2182
O16 O 0.03810(15) 0.5628(3) 0.16770(19)
H5 H 0.0431 0.6361 0.1859
H6 H -0.0012 0.5489 0.1461
O17 O 0.10816(18) 0.7582(4) 0.1233(2)
H7 H 0.1312 0.8008 0.1021
H8 H 0.0717 0.7914 0.1133
N1 N 0.10907(19) 0.1383(4) 0.0039(2)
H9 H 0.1380 0.1826 0.0421
C1 C 0.0487(2) 0.1320(5) 0.0275(3)
H10 H 0.0519 0.0631 0.0639
H11 H 0.0136 0.1150 -0.0203
C2 C 0.0989(2) 0.2030(5) -0.0750(3)
H12 H 0.0797 0.2830 -0.0731
H13 H 0.0701 0.1551 -0.1173
C3 C 0.1609(2) 0.2198(5) -0.0935(3)
H14 H 0.1875 0.2762 -0.0546
H15 H 0.1525 0.2570 -0.1461
C4 C 0.1968(2) 0.0980(5) -0.0918(3)
H16 H 0.1722 0.0481 -0.1373
C5 C 0.2608(2) 0.1231(5) -0.1036(3)
C6 C 0.2005(2) 0.0262(5) -0.0149(3)
H17 H 0.2178 -0.0552 -0.0183
H18 H 0.2293 0.0684 0.0305
C7 C 0.1369(2) 0.0127(5) -0.0006(3)
H19 H 0.1086 -0.0343 -0.0439
H20 H 0.1418 -0.0315 0.0492
C8 C 0.2220(2) 0.0238(5) 0.2060(3)
C9 C 0.2767(2) 0.0728(4) 0.2777(3)
C10 C 0.1512(2) 0.3279(5) 0.4315(3)
C11 C 0.1105(2) 0.4318(4) 0.3822(3)
Nd1F Nd 0.325610(11) 0.20527(2) -0.255699(14)
Nd1C Nd 0.325610(11) -0.20527(2) 0.244301(14)
Nd2D Nd -0.096173(11) 0.46213(3) -0.063959(14)
Nd2F Nd 0.403827(11) -0.03787(3) -0.063959(14)
Nd2C Nd 0.403827(11) 0.03787(3) 0.436041(14)
Nd2E Nd 0.096173(11) 0.46213(3) 0.563959(14)
O3D O -0.00477(14) 0.6291(3) -0.01122(18)
O5F O 0.23917(19) 0.3091(4) 0.1618(2)
O6F O 0.19059(15) 0.4271(4) 0.0570(2)
O9C O 0.17192(14) 0.5124(3) 0.20326(19)
O10C O 0.26766(16) 0.4265(3) 0.3256(2)
O13E O 0.08310(15) 0.4972(3) -0.0815(2)
O14E O 0.15052(17) 0.6835(3) 0.0023(2)
O2 O 0.0513(3) 0.9094(6) 0.2160(4)
H1 H 0.0800 0.9595 0.2125
H2 H 0.0199 0.9142 0.1738
loop_
_geom_bond_atom_site_label_1
_geom_bond_atom_site_label_2
_geom_bond_site_symmetry_1
_geom_bond_site_symmetry_2
Nd1 O1 1_555 1_555
Nd2 O1 1_555 1_555
P1 O1 1_555 1_555
O2 H1 1_555 1_555
H2 O2 1_555 1_555
O3 Nd2 1_555 1_555
O4 P1 1_555 1_555
O5 C5 1_555 1_555
O6 C5 1_555 1_555
O7 Nd1 1_555 1_555
O8 Nd1 1_555 1_555
O9 C9 1_555 1_555
O10 C8 1_555 1_555
O11 Nd1 1_555 1_555
O12 Nd1 1_555 1_555
O13 C11 1_555 1_555
O14 C10 1_555 1_555
O15 Nd1 1_555 1_555
H3 O15 1_555 1_555
H4 O15 1_555 1_555
O16 Nd2 1_555 1_555
H5 O16 1_555 1_555
H6 O16 1_555 1_555
O17 Nd2 1_555 1_555
H7 O17 1_555 1_555
H8 O17 1_555 1_555
N1 H9 1_555 1_555
C1 P1 1_555 1_555
H10 C1 1_555 1_555
H11 C1 1_555 1_555
C2 N1 1_555 1_555
H12 C2 1_555 1_555
H13 C2 1_555 1_555
C3 C2 1_555 1_555
H14 C3 1_555 1_555
H15 C3 1_555 1_555
C4 C3 1_555 1_555
H16 C4 1_555 1_555
C5 C4 1_555 1_555
C6 C4 1_555 1_555
H17 C6 1_555 1_555
H18 C6 1_555 1_555
C7 N1 1_555 1_555
H19 C7 1_555 1_555
H20 C7 1_555 1_555
C8 O7 1_555 1_555
C9 O8 1_555 1_555
C10 O11 1_555 1_555
C11 O12 1_555 1_555
Nd1F O5 1_555 1_555
Nd1C O9 1_555 1_555
Nd2D O3 1_555 1_555
Nd2F O6 1_555 1_555
Nd2C O9 1_555 1_555
Nd2E O13 1_555 1_555
O3D Nd2 1_555 1_555
O5F Nd1 1_555 1_555
O6F Nd2 1_555 1_555
O9C Nd1 1_555 1_555
O10C Nd1 1_555 1_555
O13E Nd2 1_555 1_555
O14E Nd2 1_555 1_555
Nd2 O9C 1_555 1_555
P1 O3 1_555 1_555
O10 Nd1C 1_555 1_555
O14 Nd2E 1_555 1_555
N1 C1 1_555 1_555
C6 C7 1_555 1_555
C8 C9 1_555 1_555
C10 C11 1_555 1_555
Nd2D O3D 1_555 1_555

#END
