
#######################################################################
#
#                 Cambridge Crystallographic Data Centre
#                                CCDC 
#
#######################################################################
#
# If this CIF has been generated from an entry in the Cambridge 
# Structural Database, then it will include bibliographic, chemical, 
# crystal, experimental, refinement or atomic coordinate data resulting 
# from the CCDC's data processing and validation procedures.
#
#######################################################################

data_ONUPUJ
_symmetry_cell_setting           monoclinic
_symmetry_space_group_name_H-M   'P 21/n'
_symmetry_Int_Tables_number      14
_space_group_name_Hall           '-P 2yn'
loop_
_symmetry_equiv_pos_site_id
_symmetry_equiv_pos_as_xyz
1 x,y,z
2 1/2-x,1/2+y,1/2-z
3 -x,-y,-z
4 1/2+x,1/2-y,1/2+z
_cell_length_a                   14.787(2)
_cell_length_b                   6.466(1)
_cell_length_c                   19.895(2)
_cell_angle_alpha                90
_cell_angle_beta                 97.696(2)
_cell_angle_gamma                90
_cell_volume                     1885.08
loop_
_atom_site_label
_atom_site_type_symbol
_atom_site_fract_x
_atom_site_fract_y
_atom_site_fract_z
Cd1 Cd 0.502260(17) 0.50661(5) 0.227038(13)
O1 O 0.56003(17) 0.2503(4) 0.16458(13)
N1 N 0.27685(19) 0.4985(5) 0.34897(15)
N2 N 0.4717(2) 0.2153(5) 0.30220(17)
O2 O 0.42198(17) 0.3599(4) 0.12372(13)
O3 O 0.37082(18) 0.4959(5) 0.69679(14)
O4 O 0.49833(18) -0.1955(4) 0.17109(13)
N3 N 0.3855(2) 0.5873(5) 0.28850(16)
C1 C 0.2701(2) 0.3933(6) 0.6014(2)
C2 C 0.4111(2) 0.2543(6) 0.34588(19)
C3 C 0.4936(2) 0.1143(5) 0.05874(18)
C4 C 0.2068(2) 0.2249(7) 0.4987(2)
H1 H 0.1767 0.1122 0.4769
O5 O 0.63424(19) -0.2809(5) 0.14260(15)
C5 C 0.5244(3) -0.0751(7) 0.3697(2)
H2 H 0.5639 -0.1871 0.3770
C6 C 0.3570(2) 0.4425(5) 0.32778(19)
C7 C 0.4048(3) 0.1320(6) 0.4017(2)
H3 H 0.3625 0.1613 0.4310
C8 C 0.5326(2) -0.0833(6) 0.06431(18)
C9 C 0.4912(2) 0.2481(5) 0.12012(19)
O6 O 0.2550(2) 0.2921(6) 0.71826(18)
C10 C 0.4611(2) 0.1937(5) -0.00486(18)
H4 H 0.4345 0.3243 -0.0079
C11 C 0.3217(3) 0.7400(6) 0.2846(2)
H5 H 0.3240 0.8618 0.2601
C12 C 0.5274(3) 0.0540(6) 0.3144(2)
H6 H 0.5698 0.0271 0.2849
C13 C 0.3009(3) 0.3977(6) 0.6757(2)
C14 C 0.2237(2) 0.2273(6) 0.5691(2)
H7 H 0.2041 0.1187 0.5942
C15 C 0.2337(2) 0.3869(7) 0.4603(2)
C16 C 0.2148(3) 0.3743(7) 0.38433(19)
H8 H 0.2192 0.2310 0.3708
H9 H 0.1527 0.4198 0.3700
C17 C 0.2541(3) 0.6896(7) 0.32154(19)
H10 H 0.2030 0.7681 0.3271
C18 C 0.2959(3) 0.5571(6) 0.5632(2)
H11 H 0.3260 0.6697 0.5850
C19 C 0.5597(3) -0.1919(6) 0.1319(2)
C20 C 0.2776(3) 0.5554(6) 0.4933(2)
H12 H 0.2947 0.6670 0.4683
C21 C 0.4628(3) -0.0358(6) 0.4131(2)
H13 H 0.4598 -0.1213 0.4503
Cd1B Cd 0.497740(17) -0.50661(5) -0.227038(13)
Cd1B_2 Cd 0.497740(17) 0.49339(5) 0.772962(13)
Cd1_2 Cd 0.502260(17) -0.49339(5) 0.227038(13)
Cd1B_3 Cd 0.497740(17) 0.49339(5) -0.227038(13)
O1B O 0.43997(17) -0.2503(4) -0.16458(13)
N1B N 0.72315(19) 0.5015(5) 0.65103(15)
N2B N 0.5283(2) 0.7847(5) 0.69780(17)
N2B_2 N 0.5283(2) -0.2153(5) -0.30220(17)
O2B O 0.57802(17) -0.3599(4) -0.12372(13)
O3B O 0.62918(18) 0.5041(5) 0.30321(14)
O3_2 O 0.37082(18) -0.5041(5) -0.30321(14)
O4B O 0.50167(18) 0.1955(4) -0.17109(13)
O4_2 O 0.49833(18) 0.8045(4) 0.17109(13)
O4B_2 O 0.50167(18) -0.8045(4) -0.17109(13)
N3B N 0.6145(2) 0.4127(5) 0.71150(16)
N3B_2 N 0.6145(2) -0.5873(5) -0.28850(16)
C1B C 0.7299(2) 0.6067(6) 0.3986(2)
C2B C 0.5889(2) 0.7457(6) 0.65412(19)
C3B C 0.5064(2) -0.1143(5) -0.05874(18)
C4B C 0.7932(2) 0.7751(7) 0.5013(2)
H1B H 0.8233 0.8878 0.5231
O5B O 0.36576(19) 0.2809(5) -0.14260(15)
C5B C 0.4756(3) 1.0751(7) 0.6303(2)
H2B H 0.4361 1.1871 0.6230
C6B C 0.6430(2) 0.5575(5) 0.67222(19)
C7B C 0.5952(3) 0.8680(6) 0.5983(2)
H3B H 0.6375 0.8387 0.5690
C8B C 0.4674(2) 0.0833(6) -0.06431(18)
C9B C 0.5088(2) -0.2481(5) -0.12012(19)
O6B O 0.7450(2) 0.7079(6) 0.28174(18)
C10B C 0.5389(2) -0.1937(5) 0.00486(18)
H4B H 0.5655 -0.3243 0.0079
C11B C 0.6783(3) 0.2600(6) 0.7154(2)
H5B H 0.6760 0.1382 0.7399
C12B C 0.4726(3) 0.9460(6) 0.6856(2)
H6B H 0.4302 0.9729 0.7151
C13B C 0.6991(3) 0.6023(6) 0.3243(2)
C14B C 0.7763(2) 0.7727(6) 0.4309(2)
H7B H 0.7959 0.8813 0.4058
C15B C 0.7663(2) 0.6131(7) 0.5397(2)
C16B C 0.7852(3) 0.6257(7) 0.61567(19)
H8B H 0.7808 0.7690 0.6292
H9B H 0.8473 0.5802 0.6300
C17B C 0.7459(3) 0.3104(7) 0.67846(19)
H10B H 0.7970 0.2319 0.6729
C18B C 0.7041(3) 0.4429(6) 0.4368(2)
H11B H 0.6740 0.3303 0.4150
C19B C 0.4403(3) 0.1919(6) -0.1319(2)
C20B C 0.7224(3) 0.4446(6) 0.5067(2)
H12B H 0.7053 0.3330 0.5317
C21B C 0.5372(3) 1.0358(6) 0.5869(2)
H13B H 0.5402 1.1213 0.5497
loop_
_geom_bond_atom_site_label_1
_geom_bond_atom_site_label_2
_geom_bond_site_symmetry_1
_geom_bond_site_symmetry_2
Cd1 O1 1_555 1_555
O1 C9 1_555 1_555
N1 C6 1_555 1_555
N2 Cd1 1_555 1_555
O2 Cd1 1_555 1_555
O3 C13 1_555 1_555
O4 C19 1_555 1_555
N3 Cd1 1_555 1_555
C1 C13 1_555 1_555
C2 N2 1_555 1_555
C3 C8 1_555 1_555
C4 H1 1_555 1_555
O5 C19 1_555 1_555
C5 H2 1_555 1_555
C6 N3 1_555 1_555
C7 C2 1_555 1_555
H3 C7 1_555 1_555
C8 C19 1_555 1_555
C9 O2 1_555 1_555
O6 C13 1_555 1_555
C10 C3 1_555 1_555
H4 C10 1_555 1_555
C11 N3 1_555 1_555
H5 C11 1_555 1_555
C12 N2 1_555 1_555
H6 C12 1_555 1_555
C14 C1 1_555 1_555
H7 C14 1_555 1_555
C15 C4 1_555 1_555
C16 N1 1_555 1_555
H8 C16 1_555 1_555
H9 C16 1_555 1_555
C17 N1 1_555 1_555
H10 C17 1_555 1_555
C18 C1 1_555 1_555
H11 C18 1_555 1_555
C20 C15 1_555 1_555
H12 C20 1_555 1_555
C21 C5 1_555 1_555
H13 C21 1_555 1_555
Cd1B O1B 1_555 1_555
Cd1B_2 O3 1_555 1_555
Cd1_2 O4 1_555 1_555
Cd1B_3 O4B 1_555 1_555
O1B C9B 1_555 1_555
N1B C6B 1_555 1_555
N2B Cd1B_2 1_555 1_555
N2B_2 Cd1B 1_555 1_555
O2B Cd1B 1_555 1_555
O3B Cd1 1_555 1_555
O3_2 Cd1B 1_555 1_555
O4B C19B 1_555 1_555
O4_2 Cd1 1_555 1_555
O4B_2 Cd1B 1_555 1_555
N3B Cd1B_2 1_555 1_555
N3B_2 Cd1B 1_555 1_555
C1B C13B 1_555 1_555
C2B N2B 1_555 1_555
C3B C8B 1_555 1_555
C4B H1B 1_555 1_555
O5B C19B 1_555 1_555
C5B H2B 1_555 1_555
C6B N3B 1_555 1_555
C7B C2B 1_555 1_555
H3B C7B 1_555 1_555
C8B C10 1_555 1_555
C9B O2B 1_555 1_555
O6B C13B 1_555 1_555
C10B C8 1_555 1_555
H4B C10B 1_555 1_555
C11B N3B 1_555 1_555
H5B C11B 1_555 1_555
C12B N2B 1_555 1_555
H6B C12B 1_555 1_555
C13B O3B 1_555 1_555
C14B C1B 1_555 1_555
H7B C14B 1_555 1_555
C15B C4B 1_555 1_555
C16B N1B 1_555 1_555
H8B C16B 1_555 1_555
H9B C16B 1_555 1_555
C17B N1B 1_555 1_555
H10B C17B 1_555 1_555
C18B C1B 1_555 1_555
H11B C18B 1_555 1_555
C19B C8B 1_555 1_555
C20B C15B 1_555 1_555
H12B C20B 1_555 1_555
C21B C5B 1_555 1_555
H13B C21B 1_555 1_555
C2 C6 1_555 1_555
C3 C9 1_555 1_555
C4 C14 1_555 1_555
C5 C12 1_555 1_555
C7 C21 1_555 1_555
C11 C17 1_555 1_555
C15 C16 1_555 1_555
C18 C20 1_555 1_555
C2B C6B 1_555 1_555
C3B C9B 1_555 1_555
C3B C10B 1_555 1_555
C4B C14B 1_555 1_555
C5B C12B 1_555 1_555
C7B C21B 1_555 1_555
C11B C17B 1_555 1_555
C15B C16B 1_555 1_555
C18B C20B 1_555 1_555

#END
