
#######################################################################
#
#                 Cambridge Crystallographic Data Centre
#                                CCDC 
#
#######################################################################
#
# If this CIF has been generated from an entry in the Cambridge 
# Structural Database, then it will include bibliographic, chemical, 
# crystal, experimental, refinement or atomic coordinate data resulting 
# from the CCDC's data processing and validation procedures.
#
#######################################################################

data_ONURAR
_symmetry_cell_setting           trigonal
_symmetry_space_group_name_H-M   'P -3 c 1'
_symmetry_Int_Tables_number      165
_space_group_name_Hall           '-P 3 2"c'
loop_
_symmetry_equiv_pos_site_id
_symmetry_equiv_pos_as_xyz
1 x,y,z
2 -y,x-y,z
3 -x+y,-x,z
4 y,x,1/2-z
5 x-y,-y,1/2-z
6 -x,-x+y,1/2-z
7 -x,-y,-z
8 y,-x+y,-z
9 x-y,x,-z
10 -y,-x,1/2+z
11 -x+y,y,1/2+z
12 x,x-y,1/2+z
_cell_length_a                   15.9618(8)
_cell_length_b                   15.9618(8)
_cell_length_c                   16.5653(17)
_cell_angle_alpha                90
_cell_angle_beta                 90
_cell_angle_gamma                120
_cell_volume                     3655.05
loop_
_atom_site_label
_atom_site_type_symbol
_atom_site_fract_x
_atom_site_fract_y
_atom_site_fract_z
Gd1 Gd 0.3333 -0.3334 0.334540(19)
N1 N -0.0355(2) -0.5712(2) 0.16027(19)
C1 C -0.0407(2) -0.4511(2) 0.0770(2)
C2 C -0.1407(2) -0.5061(2) 0.0579(2)
N2 N 0.2796(3) -0.5105(3) 0.2402(2)
C3 C -0.1772(3) -0.4642(3) 0.0046(3)
H1 H -0.2418 -0.4992 -0.0107
C4 C 0.0155(3) -0.3580(3) 0.0443(3)
H2 H 0.0809 -0.3224 0.0573
C5 C 0.0128(3) -0.6120(3) 0.2055(2)
H3 H 0.0822 -0.5702 0.1999
H4 H -0.0041 -0.6745 0.1826
C6 C -0.1200(3) -0.3728(3) -0.0258(3)
H5 H -0.1469 -0.3467 -0.0604
O1 O 0.2290(2) -0.5118(2) 0.2996(2)
O2 O -0.19523(19) -0.59240(15) 0.08839(17)
C7 C -0.0224(3) -0.3185(3) -0.0056(3)
H6 H 0.0158 -0.2564 -0.0260
C8 C 0.0059(3) -0.4881(3) 0.1265(2)
H7 H 0.0719 -0.4486 0.1350
O3 O 0.2547(3) -0.5811(3) 0.1989(2)
O4 O 0.3566(2) -0.4305(2) 0.22646(18)
H8 H -0.091(3) -0.600(3) 0.154(2)
Gd1C Gd -0.3334 -0.6667 0.165460(19)
Gd1C_2 Gd 0.6666 0.3333 0.165460(19)
Gd1_2 Gd 0.3333 0.6666 0.334540(19)
N1E N 0.0355(2) -0.5357(3) 0.33973(19)
N1C N 0.4288(2) -0.0355(2) 0.33973(19)
N1B N 0.4643(3) 0.0355(2) 0.16027(19)
N1A N 0.5712(2) 0.5357(3) 0.16027(19)
N1D N 0.5357(3) 0.5712(2) 0.33973(19)
C1E C 0.0407(2) -0.4104(3) 0.4230(2)
C1C C 0.5489(2) -0.0407(2) 0.4230(2)
C1B C 0.5896(3) 0.0407(2) 0.0770(2)
C1A C 0.4511(2) 0.4104(3) 0.0770(2)
C1D C 0.4104(3) 0.4511(2) 0.4230(2)
C2E C 0.1407(2) -0.3654(3) 0.4421(2)
C2C C 0.4939(2) -0.1407(2) 0.4421(2)
C2B C 0.6346(3) 0.1407(2) 0.0579(2)
C2A C 0.5061(2) 0.3654(3) 0.0579(2)
C2D C 0.3654(3) 0.5061(2) 0.4421(2)
N2B N 0.2099(4) -0.2796(3) 0.2402(2)
N2A N 0.5105(3) -0.2099(4) 0.2402(2)
N2E N 0.7204(3) 0.2099(4) 0.2598(2)
N2D N 0.7901(4) 0.5105(3) 0.2598(2)
N2C N 0.4895(3) 0.2796(3) 0.2598(2)
C3E C 0.1772(3) -0.2870(4) 0.4954(3)
C3C C 0.5358(3) -0.1772(3) 0.4954(3)
C3B C 0.7130(4) 0.1772(3) 0.0046(3)
C3A C 0.4642(3) 0.2870(4) 0.0046(3)
C3D C 0.2870(4) 0.4642(3) 0.4954(3)
H1E H 0.2418 -0.2574 0.5107
H1C H 0.5008 -0.2418 0.5107
H1B H 0.7426 0.2418 -0.0107
H1A H 0.4992 0.2574 -0.0107
H1D H 0.2574 0.4992 0.5107
C4E C -0.0155(3) -0.3735(4) 0.4557(3)
C4C C 0.6420(3) 0.0155(3) 0.4557(3)
C4B C 0.6265(4) -0.0155(3) 0.0443(3)
C4A C 0.3580(3) 0.3735(4) 0.0443(3)
C4D C 0.3735(4) 0.3580(3) 0.4557(3)
H2E H -0.0809 -0.4033 0.4427
H2C H 0.6776 0.0809 0.4427
H2B H 0.5967 -0.0809 0.0573
H2A H 0.3224 0.4033 0.0573
H2D H 0.4033 0.3224 0.4427
C5E C -0.0128(3) -0.6248(4) 0.2945(2)
C5C C 0.3880(3) 0.0128(3) 0.2945(2)
C5B C 0.3752(4) -0.0128(3) 0.2055(2)
C5A C 0.6120(3) 0.6248(4) 0.2055(2)
C5D C 0.6248(4) 0.6120(3) 0.2945(2)
H3D H 0.6524 0.5702 0.3001
H3A H 0.5702 0.6524 0.1999
H3B H 0.3476 -0.0822 0.1999
H3C H 0.4298 0.0822 0.3001
H3E H -0.0822 -0.6524 0.3001
H4D H 0.6704 0.6745 0.3174
H4A H 0.6745 0.6704 0.1826
H4B H 0.3296 0.0041 0.1826
H4C H 0.3255 -0.0041 0.3174
H4E H 0.0041 -0.6704 0.3174
C6E C 0.1200(3) -0.2528(4) 0.5258(3)
C6C C 0.6272(3) -0.1200(3) 0.5258(3)
C6B C 0.7472(4) 0.1200(3) -0.0258(3)
C6A C 0.3728(3) 0.2528(4) -0.0258(3)
C6D C 0.2528(4) 0.3728(3) 0.5258(3)
H5E H 0.1469 -0.1998 0.5604
H5C H 0.6533 -0.1469 0.5604
H5B H 0.8002 0.1469 -0.0604
H5A H 0.3467 0.1998 -0.0604
H5D H 0.1998 0.3467 0.5604
O1B O 0.2592(3) -0.2290(2) 0.2996(2)
O1A O 0.5118(2) -0.2592(3) 0.2996(2)
O1C O 0.4882(2) 0.2290(2) 0.2004(2)
O1E O 0.7710(2) 0.2592(3) 0.2004(2)
O1D O 0.7408(3) 0.5118(2) 0.2004(2)
O2E O 0.19523(19) -0.39717(24) 0.41161(17)
O2C O 0.40760(15) -0.19523(19) 0.41161(17)
O2B O 0.60283(24) 0.19523(19) 0.08839(17)
O2_2 O 0.80477(19) 0.40760(15) 0.08839(17)
O2A O 0.59240(15) 0.39717(24) 0.08839(17)
O2D O 0.39717(24) 0.59240(15) 0.41161(17)
O2D_2 O 0.39717(24) -0.40760(15) 0.41161(17)
C7E C 0.0224(3) -0.2961(4) 0.5056(3)
C7C C 0.6815(3) -0.0224(3) 0.5056(3)
C7B C 0.7039(4) 0.0224(3) -0.0056(3)
C7A C 0.3185(3) 0.2961(4) -0.0056(3)
C7D C 0.2961(4) 0.3185(3) 0.5056(3)
H6E H -0.0158 -0.2722 0.5260
H6C H 0.7436 0.0158 0.5260
H6B H 0.7278 -0.0158 -0.0260
H6A H 0.2564 0.2722 -0.0260
H6D H 0.2722 0.2564 0.5260
C8E C -0.0059(3) -0.4940(4) 0.3735(2)
C8C C 0.5119(3) 0.0059(3) 0.3735(2)
C8B C 0.5060(4) -0.0059(3) 0.1265(2)
C8A C 0.4881(3) 0.4940(4) 0.1265(2)
C8D C 0.4940(4) 0.4881(3) 0.3735(2)
H7D H 0.5205 0.4486 0.3650
H7A H 0.4486 0.5205 0.1350
H7B H 0.4795 -0.0719 0.1350
H7C H 0.5514 0.0719 0.3650
H7E H -0.0719 -0.5205 0.3650
O3B O 0.1642(4) -0.2547(3) 0.1989(2)
O3A O 0.5811(3) -0.1642(4) 0.1989(2)
O3C O 0.4189(3) 0.2547(3) 0.3011(2)
O3E O 0.7453(3) 0.1642(4) 0.3011(2)
O3D O 0.8358(4) 0.5811(3) 0.3011(2)
O4B O 0.2129(3) -0.3566(2) 0.22646(18)
O4A O 0.4305(2) -0.2129(3) 0.22646(18)
O4C O 0.5695(2) 0.3566(2) 0.27354(18)
O4E O 0.6434(2) 0.2129(3) 0.27354(18)
O4D O 0.7871(3) 0.4305(2) 0.27354(18)
H8D H 0.509(4) 0.600(3) 0.346(2)
H8A H 0.600(3) 0.509(4) 0.154(2)
H8B H 0.491(4) 0.091(3) 0.154(2)
H8C H 0.400(3) -0.091(3) 0.346(2)
H8E H 0.091(3) -0.509(4) 0.346(2)
loop_
_geom_bond_atom_site_label_1
_geom_bond_atom_site_label_2
_geom_bond_site_symmetry_1
_geom_bond_site_symmetry_2
Gd1 O1 1_555 1_555
N1 C5 1_555 1_555
C1 C2 1_555 1_555
C2 C3 1_555 1_555
N2 O1 1_555 1_555
C3 H1 1_555 1_555
C4 C1 1_555 1_555
H2 C4 1_555 1_555
C5 H3 1_555 1_555
H4 C5 1_555 1_555
C6 C3 1_555 1_555
H5 C6 1_555 1_555
O2 C2 1_555 1_555
C7 C4 1_555 1_555
H6 C7 1_555 1_555
C8 N1 1_555 1_555
H7 C8 1_555 1_555
O3 N2 1_555 1_555
O4 Gd1 1_555 1_555
H8 N1 1_555 1_555
Gd1C O2 1_555 1_555
Gd1C_2 O1C 1_555 1_555
Gd1_2 O2D 1_555 1_555
N1E C5E 1_555 1_555
N1C C5C 1_555 1_555
N1B C5B 1_555 1_555
N1A C5A 1_555 1_555
N1D C5D 1_555 1_555
C1E C2E 1_555 1_555
C1C C2C 1_555 1_555
C1B C2B 1_555 1_555
C1A C2A 1_555 1_555
C1D C2D 1_555 1_555
C2E C3E 1_555 1_555
C2C C3C 1_555 1_555
C2B C3B 1_555 1_555
C2A C3A 1_555 1_555
C2D C3D 1_555 1_555
N2B O1B 1_555 1_555
N2A O1A 1_555 1_555
N2E O1E 1_555 1_555
N2D O1D 1_555 1_555
N2C O1C 1_555 1_555
C3E H1E 1_555 1_555
C3C H1C 1_555 1_555
C3B H1B 1_555 1_555
C3A H1A 1_555 1_555
C3D H1D 1_555 1_555
C4E C1E 1_555 1_555
C4C C1C 1_555 1_555
C4B C1B 1_555 1_555
C4A C1A 1_555 1_555
C4D C1D 1_555 1_555
H2E C4E 1_555 1_555
H2C C4C 1_555 1_555
H2B C4B 1_555 1_555
H2A C4A 1_555 1_555
H2D C4D 1_555 1_555
C5E C5 1_555 1_555
C5C C5B 1_555 1_555
C5B H3B 1_555 1_555
C5A C5D 1_555 1_555
C5D H3D 1_555 1_555
H3A C5A 1_555 1_555
H3C C5C 1_555 1_555
H3E C5E 1_555 1_555
H4D C5D 1_555 1_555
H4A C5A 1_555 1_555
H4B C5B 1_555 1_555
H4C C5C 1_555 1_555
H4E C5E 1_555 1_555
C6E C3E 1_555 1_555
C6C C3C 1_555 1_555
C6B C3B 1_555 1_555
C6A C3A 1_555 1_555
C6D C3D 1_555 1_555
H5E C6E 1_555 1_555
H5C C6C 1_555 1_555
H5B C6B 1_555 1_555
H5A C6A 1_555 1_555
H5D C6D 1_555 1_555
O1B Gd1 1_555 1_555
O1A Gd1 1_555 1_555
O1E Gd1C_2 1_555 1_555
O1D Gd1C_2 1_555 1_555
O2E Gd1 1_555 1_555
O2C Gd1 1_555 1_555
O2B Gd1C_2 1_555 1_555
O2_2 Gd1C_2 1_555 1_555
O2A Gd1C_2 1_555 1_555
O2D C2D 1_555 1_555
O2D_2 Gd1 1_555 1_555
C7E C4E 1_555 1_555
C7C C4C 1_555 1_555
C7B C4B 1_555 1_555
C7A C4A 1_555 1_555
C7D C4D 1_555 1_555
H6E C7E 1_555 1_555
H6C C7C 1_555 1_555
H6B C7B 1_555 1_555
H6A C7A 1_555 1_555
H6D C7D 1_555 1_555
C8E N1E 1_555 1_555
C8C N1C 1_555 1_555
C8B N1B 1_555 1_555
C8A N1A 1_555 1_555
C8D N1D 1_555 1_555
H7D C8D 1_555 1_555
H7A C8A 1_555 1_555
H7B C8B 1_555 1_555
H7C C8C 1_555 1_555
H7E C8E 1_555 1_555
O3B N2B 1_555 1_555
O3A N2A 1_555 1_555
O3C N2C 1_555 1_555
O3E N2E 1_555 1_555
O3D N2D 1_555 1_555
O4B Gd1 1_555 1_555
O4A Gd1 1_555 1_555
O4C Gd1C_2 1_555 1_555
O4E Gd1C_2 1_555 1_555
O4D Gd1C_2 1_555 1_555
H8D N1D 1_555 1_555
H8A N1A 1_555 1_555
H8B N1B 1_555 1_555
H8C N1C 1_555 1_555
H8E N1E 1_555 1_555
C1 C8 1_555 1_555
N2 O4 1_555 1_555
C6 C7 1_555 1_555
C1E C8E 1_555 1_555
C1C C8C 1_555 1_555
C1B C8B 1_555 1_555
C1A C8A 1_555 1_555
C1D C8D 1_555 1_555
C2E O2E 1_555 1_555
C2C O2C 1_555 1_555
C2B O2B 1_555 1_555
C2A O2A 1_555 1_555
N2B O4B 1_555 1_555
N2A O4A 1_555 1_555
N2E O4E 1_555 1_555
N2D O4D 1_555 1_555
N2C O4C 1_555 1_555
C6E C7E 1_555 1_555
C6C C7C 1_555 1_555
C6B C7B 1_555 1_555
C6A C7A 1_555 1_555
C6D C7D 1_555 1_555

#END
