
#######################################################################
#
#                 Cambridge Crystallographic Data Centre
#                                CCDC 
#
#######################################################################
#
# If this CIF has been generated from an entry in the Cambridge 
# Structural Database, then it will include bibliographic, chemical, 
# crystal, experimental, refinement or atomic coordinate data resulting 
# from the CCDC's data processing and validation procedures.
#
#######################################################################

data_ONUTAT
_symmetry_cell_setting           monoclinic
_symmetry_space_group_name_H-M   'P 21/c'
_symmetry_Int_Tables_number      14
_space_group_name_Hall           '-P 2ybc'
loop_
_symmetry_equiv_pos_site_id
_symmetry_equiv_pos_as_xyz
1 x,y,z
2 -x,1/2+y,1/2-z
3 -x,-y,-z
4 x,1/2-y,1/2+z
_cell_length_a                   11.7134(10)
_cell_length_b                   13.0251(11)
_cell_length_c                   6.8227(6)
_cell_angle_alpha                90
_cell_angle_beta                 105.8380(10)
_cell_angle_gamma                90
_cell_volume                     1001.41
loop_
_atom_site_label
_atom_site_type_symbol
_atom_site_fract_x
_atom_site_fract_y
_atom_site_fract_z
O1 O -0.26854(13) 0.10211(10) -0.0786(2)
O2 O -0.43199(12) -0.01291(11) -0.1565(2)
O3 O -0.37067(14) 0.06878(11) -0.4320(2)
S1 S -0.33360(4) 0.02740(3) -0.22668(6)
Ca1 Ca -0.35651(3) -0.56094(3) -0.27506(5)
O4 O -0.36368(12) -0.37563(11) -0.2566(2)
O5 O -0.18400(13) -0.44078(10) -0.2014(2)
C1 C -0.20442(16) -0.25841(13) -0.2139(3)
O6 O -0.46495(13) -0.70975(11) -0.4200(2)
C2 C -0.08282(16) -0.24136(14) -0.1875(3)
C3 C -0.25408(17) -0.36419(14) -0.2241(3)
O7 O -0.21522(13) -0.69056(11) -0.1367(2)
C4 C -0.28017(15) -0.17496(13) -0.2295(3)
H1 H -0.3607 -0.1857 -0.2456
C5 C -0.03916(16) -0.14134(15) -0.1816(3)
H2 H 0.0412 -0.1301 -0.1666
O8 O -0.00645(12) -0.32104(11) -0.1660(2)
H3 H -0.0427 -0.3751 -0.1683
C6 C -0.23636(16) -0.07611(13) -0.2210(3)
C7 C -0.11602(17) -0.05883(14) -0.1981(3)
H4 H -0.0873 0.0079 -0.1939
O1C O -0.26854(13) -0.60211(10) -0.5786(2)
O2A O -0.56801(12) -0.51291(11) -0.3435(2)
O2C O -0.43199(12) -0.48709(11) -0.6565(2)
O3C O -0.37067(14) -0.56878(11) 0.0680(2)
Ca1C Ca -0.35651(3) 0.06094(3) 0.22494(5)
Ca1A Ca -0.64349(3) -0.06094(3) -0.22494(5)
Ca1C_2 Ca -0.35651(3) 0.06094(3) -0.77506(5)
loop_
_geom_bond_atom_site_label_1
_geom_bond_atom_site_label_2
_geom_bond_site_symmetry_1
_geom_bond_site_symmetry_2
O1 S1 1_555 1_555
O2 S1 1_555 1_555
O3 S1 1_555 1_555
S1 C6 1_555 1_555
Ca1 O4 1_555 1_555
O4 C3 1_555 1_555
O5 Ca1 1_555 1_555
C1 C2 1_555 1_555
O6 Ca1 1_555 1_555
C2 C5 1_555 1_555
C3 O5 1_555 1_555
O7 Ca1 1_555 1_555
C4 C1 1_555 1_555
H1 C4 1_555 1_555
C5 H2 1_555 1_555
O8 C2 1_555 1_555
H3 O8 1_555 1_555
C6 C4 1_555 1_555
C7 C5 1_555 1_555
H4 C7 1_555 1_555
O1C Ca1 1_555 1_555
O2A Ca1 1_555 1_555
O2C Ca1 1_555 1_555
O3C Ca1 1_555 1_555
Ca1C O1 1_555 1_555
Ca1A O2 1_555 1_555
Ca1C_2 O3 1_555 1_555
O2 Ca1C 1_555 1_555
C1 C3 1_555 1_555
C6 C7 1_555 1_555

#END
