
#######################################################################
#
#                 Cambridge Crystallographic Data Centre
#                                CCDC 
#
#######################################################################
#
# If this CIF has been generated from an entry in the Cambridge 
# Structural Database, then it will include bibliographic, chemical, 
# crystal, experimental, refinement or atomic coordinate data resulting 
# from the CCDC's data processing and validation procedures.
#
#######################################################################

data_OPACUE
_symmetry_cell_setting           triclinic
_symmetry_space_group_name_H-M   'P -1'
_symmetry_Int_Tables_number      2
_space_group_name_Hall           '-P 1'
loop_
_symmetry_equiv_pos_site_id
_symmetry_equiv_pos_as_xyz
1 x,y,z
2 -x,-y,-z
_cell_length_a                   9.4348(2)
_cell_length_b                   9.7075(2)
_cell_length_c                   19.9335(5)
_cell_angle_alpha                77.795(1)
_cell_angle_beta                 87.103(1)
_cell_angle_gamma                88.567(1)
_cell_volume                     1781.94
loop_
_atom_site_label
_atom_site_type_symbol
_atom_site_fract_x
_atom_site_fract_y
_atom_site_fract_z
Zn1 Zn 0.32885(2) 1.16315(2) 0.245313(13)
Cu1 Cu 0.84985(3) 0.66972(3) 0.23996(2)
N1 N 0.04513(19) 1.58747(18) 0.21903(10)
N2 N 0.74810(18) 1.47765(19) 0.28823(10)
N3 N -0.09352(19) 0.84102(19) 0.28060(11)
N4 N 0.68267(18) 0.75946(18) 0.18203(10)
N5 N 0.33314(17) 0.95792(17) 0.28501(9)
N6 N 0.32162(17) 1.22922(17) 0.33346(9)
N7 N 0.18206(18) 1.21987(17) 0.17606(10)
N8 N 0.49942(17) 1.21409(17) 0.18280(9)
C1 C 0.3404(3) 1.1926(3) 0.45922(13)
H1 H 0.4149 1.2599 0.4549
H2 H 0.3579 1.1152 0.4968
H3 H 0.2511 1.2369 0.4677
C2 C 0.3361(2) 1.1383(2) 0.39285(11)
C3 C 0.3452(2) 0.9911(2) 0.40046(12)
H4 H 0.3580 0.9418 0.4451
C4 C 0.3383(2) 0.9062(2) 0.35175(13)
C5 C 0.3336(3) 0.7479(3) 0.38080(16)
H5 H 0.2408 0.7140 0.3759
H6 H 0.3544 0.7291 0.4286
H7 H 0.4028 0.7009 0.3562
C6 C 0.3134(2) 0.8676(2) 0.23608(13)
H8 H 0.2368 0.9064 0.2068
H9 H 0.2852 0.7749 0.2613
C7 C 0.4444(2) 0.85222(19) 0.19139(11)
C8 C 0.5660(2) 0.7866(2) 0.21903(11)
H10 H 0.5675 0.7592 0.2666
C9 C 0.6795(3) 0.8003(3) 0.11401(13)
H11 H 0.7584 0.7817 0.0873
C10 C 0.5647(3) 0.8689(3) 0.08166(14)
H12 H 0.5666 0.8965 0.0340
C11 C 0.4460(3) 0.8966(3) 0.12067(13)
H13 H 0.3682 0.9445 0.0996
C12 C 0.3171(3) 1.3819(2) 0.33376(13)
H14 H 0.4127 1.4140 0.3366
H15 H 0.2619 1.3970 0.3740
C13 C 0.6210(3) 1.2986(3) 0.06908(15)
H16 H 0.6823 1.3606 0.0854
H17 H 0.5937 1.3418 0.0236
H18 H 0.6703 1.2113 0.0681
C14 C 0.4896(2) 1.2704(2) 0.11667(12)
C15 C 0.3593(3) 1.3079(2) 0.08619(12)
H19 H 0.3676 1.3533 0.0402
C16 C 0.2184(3) 1.2889(2) 0.11288(12)
C17 C 0.1053(3) 1.3569(3) 0.06453(15)
H20 H 0.0471 1.2851 0.0542
H21 H 0.1499 1.4090 0.0228
H22 H 0.0475 1.4196 0.0860
C18 C 0.0304(2) 1.2070(2) 0.19646(14)
H23 H -0.0222 1.2027 0.1564
H24 H -0.0012 1.2908 0.2125
C19 C 0.6371(2) 1.1728(2) 0.21218(13)
H25 H 0.7105 1.1866 0.1756
H26 H 0.6361 1.0733 0.2337
C20 C -0.0539(2) 0.9584(2) 0.23467(12)
H27 H -0.0605 0.9588 0.1882
C21 C -0.0041(2) 1.0784(2) 0.25237(13)
C22 C 0.0048(2) 1.0768(3) 0.32121(14)
H28 H 0.0370 1.1555 0.3352
C23 C -0.0344(3) 0.9578(3) 0.36950(14)
H29 H -0.0277 0.9551 0.4161
C24 C -0.0837(2) 0.8430(3) 0.34733(14)
H30 H -0.1112 0.7638 0.3800
C25 C 0.7429(2) 1.4181(3) 0.35539(13)
H31 H 0.7657 1.4719 0.3867
C26 C 0.7047(3) 1.2791(3) 0.37969(13)
H32 H 0.7032 1.2405 0.4266
C27 C 0.6690(2) 1.1985(2) 0.33451(13)
H33 H 0.6429 1.1051 0.3506
C28 C 0.67214(19) 1.2568(2) 0.26476(12)
C29 C 0.7125(2) 1.3968(2) 0.24492(11)
H34 H 0.7151 1.4375 0.1982
C30 C 0.1100(2) 1.5068(2) 0.27202(11)
H35 H 0.0564 1.4756 0.3126
C31 C 0.2525(2) 1.4669(2) 0.27017(11)
C32 C 0.3301(2) 1.5119(2) 0.20893(13)
H36 H 0.4259 1.4882 0.2054
C33 C 0.2646(3) 1.5915(2) 0.15364(13)
H37 H 0.3149 1.6203 0.1119
C34 C 0.1234(3) 1.6283(2) 0.16056(12)
H38 H 0.0806 1.6839 0.1230
Cu1_2 Cu -0.15015(3) 0.66972(3) 0.23996(2)
Cu1_3 Cu -0.15015(3) 1.66972(3) 0.23996(2)
Cu1_4 Cu 0.84985(3) 1.66972(3) 0.23996(2)
N1_2 N 1.04513(19) 0.58747(18) 0.21903(10)
N2_2 N 0.74810(18) 0.47765(19) 0.28823(10)
N3_2 N 0.90648(19) 0.84102(19) 0.28060(11)
P1 P 0.0000 1.0000 0.0000
F1 F -0.0045(3) 0.8411(2) 0.03812(15)
F2 F 0.1406(4) 1.0222(5) 0.0355(2)
F3 F -0.0894(4) 1.0435(4) 0.06213(16)
F1A F 0.0045(3) 1.1589(2) -0.03812(15)
F2A F -0.1406(4) 0.9778(5) -0.0355(2)
F3A F 0.0894(4) 0.9565(4) -0.06213(16)
P2 P 1.0000 0.5000 0.5000
F4 F 0.83628(17) 0.5380(2) 0.48896(9)
F5 F 1.0313(2) 0.5393(2) 0.41958(8)
F6 F 0.9721(2) 0.34167(17) 0.49421(10)
F4A F 1.16372(17) 0.4620(2) 0.51104(9)
F5A F 0.9687(2) 0.4607(2) 0.58042(8)
F6A F 1.0279(2) 0.65833(17) 0.50579(10)
F7? F 0.097(2) 0.871(3) -0.0068(18)
F8? F 0.1406(14) 1.062(2) 0.0230(10)
F9? F -0.0236(19) 0.938(4) 0.0749(7)
loop_
_geom_bond_atom_site_label_1
_geom_bond_atom_site_label_2
_geom_bond_site_symmetry_1
_geom_bond_site_symmetry_2
Zn1 N5 1_555 1_555
Cu1 N4 1_555 1_555
N1 C30 1_555 1_555
N2 C25 1_555 1_555
N3 C20 1_555 1_555
N4 C8 1_555 1_555
N5 C4 1_555 1_555
N6 Zn1 1_555 1_555
N7 Zn1 1_555 1_555
N8 Zn1 1_555 1_555
C1 H1 1_555 1_555
H2 C1 1_555 1_555
H3 C1 1_555 1_555
C2 N6 1_555 1_555
C3 C2 1_555 1_555
H4 C3 1_555 1_555
C4 C3 1_555 1_555
C5 C4 1_555 1_555
H5 C5 1_555 1_555
H6 C5 1_555 1_555
H7 C5 1_555 1_555
C6 N5 1_555 1_555
H8 C6 1_555 1_555
H9 C6 1_555 1_555
C7 C6 1_555 1_555
C8 C7 1_555 1_555
H10 C8 1_555 1_555
C9 N4 1_555 1_555
H11 C9 1_555 1_555
C10 C9 1_555 1_555
H12 C10 1_555 1_555
C11 C7 1_555 1_555
H13 C11 1_555 1_555
C12 N6 1_555 1_555
H14 C12 1_555 1_555
H15 C12 1_555 1_555
C13 H16 1_555 1_555
H17 C13 1_555 1_555
H18 C13 1_555 1_555
C14 N8 1_555 1_555
C15 C14 1_555 1_555
H19 C15 1_555 1_555
C16 N7 1_555 1_555
C17 C16 1_555 1_555
H20 C17 1_555 1_555
H21 C17 1_555 1_555
H22 C17 1_555 1_555
C18 N7 1_555 1_555
H23 C18 1_555 1_555
H24 C18 1_555 1_555
C19 N8 1_555 1_555
H25 C19 1_555 1_555
H26 C19 1_555 1_555
C20 H27 1_555 1_555
C21 C18 1_555 1_555
C22 C21 1_555 1_555
H28 C22 1_555 1_555
C23 C22 1_555 1_555
H29 C23 1_555 1_555
C24 N3 1_555 1_555
H30 C24 1_555 1_555
C25 H31 1_555 1_555
C26 C25 1_555 1_555
H32 C26 1_555 1_555
C27 C26 1_555 1_555
H33 C27 1_555 1_555
C28 C19 1_555 1_555
C29 N2 1_555 1_555
H34 C29 1_555 1_555
C30 H35 1_555 1_555
C31 C12 1_555 1_555
C32 C31 1_555 1_555
H36 C32 1_555 1_555
C33 C32 1_555 1_555
H37 C33 1_555 1_555
C34 N1 1_555 1_555
H38 C34 1_555 1_555
P1 F1 1_555 1_555
F2 P1 1_555 1_555
F3 P1 1_555 1_555
P2 F4 1_555 1_555
F5 P2 1_555 1_555
F6 P2 1_555 1_555
Cu1_2 N3 1_555 1_555
Cu1_3 N1 1_555 1_555
Cu1_4 N2 1_555 1_555
N1_2 Cu1 1_555 1_555
N2_2 Cu1 1_555 1_555
N3_2 Cu1 1_555 1_555
F1A P1 1_555 1_555
F2A P1 1_555 1_555
F3A P1 1_555 1_555
F4A P2 1_555 1_555
F5A P2 1_555 1_555
F6A P2 1_555 1_555
C1 C2 1_555 1_555
C10 C11 1_555 1_555
C13 C14 1_555 1_555
C15 C16 1_555 1_555
C20 C21 1_555 1_555
C23 C24 1_555 1_555
C27 C28 1_555 1_555
C28 C29 1_555 1_555
C30 C31 1_555 1_555
C33 C34 1_555 1_555

#END
