
#######################################################################
#
#                 Cambridge Crystallographic Data Centre
#                                CCDC 
#
#######################################################################
#
# If this CIF has been generated from an entry in the Cambridge 
# Structural Database, then it will include bibliographic, chemical, 
# crystal, experimental, refinement or atomic coordinate data resulting 
# from the CCDC's data processing and validation procedures.
#
#######################################################################

data_OPANEZ
_symmetry_cell_setting           monoclinic
_symmetry_space_group_name_H-M   'C 2/c'
_symmetry_Int_Tables_number      15
_space_group_name_Hall           '-C 2yn'
loop_
_symmetry_equiv_pos_site_id
_symmetry_equiv_pos_as_xyz
1 x,y,z
2 -x,y,1/2-z
3 1/2+x,1/2+y,z
4 1/2-x,1/2+y,1/2-z
5 -x,-y,-z
6 x,-y,1/2+z
7 1/2-x,1/2-y,-z
8 1/2+x,1/2-y,1/2+z
_cell_length_a                   19.458(4)
_cell_length_b                   11.370(2)
_cell_length_c                   12.870(3)
_cell_angle_alpha                90
_cell_angle_beta                 127.79(3)
_cell_angle_gamma                90
_cell_volume                     2250.13
loop_
_atom_site_label
_atom_site_type_symbol
_atom_site_fract_x
_atom_site_fract_y
_atom_site_fract_z
Ag1 Ag 0.08840(2) 0.05768(2) 0.38709(3)
C1 C 0.2586(3) -0.1523(4) 0.3285(4)
H1 H 0.3036 -0.2058 0.3802
C2 C 0.2186(3) -0.1412(4) 0.1959(4)
C3 C 0.2678(4) -0.0900(5) 0.5249(4)
H2 H 0.2406 -0.0330 0.5441
H3 H 0.2581 -0.1674 0.5432
H4 H 0.3292 -0.0748 0.5786
C4 C 0.2297(3) -0.0816(4) 0.3825(4)
C5 C 0.2415(4) -0.2204(5) 0.1274(5)
H5 H 0.2072 -0.1993 0.0362
H6 H 0.3021 -0.2118 0.1673
H7 H 0.2298 -0.3006 0.1352
C6 C 0.0065(3) -0.5048(3) 0.3491(4)
H8 H 0.0111 -0.5454 0.4159
C7 C 0.1345(3) 0.0085(3) 0.1820(3)
C8 C 0.0000 -0.7011(5) 0.2500
C9 C 0.0000 -0.5677(4) 0.2500
C10 C 0.0000 -0.3208(4) 0.2500
C11 C 0.0000 -0.1878(4) 0.2500
C12 C 0.0062(3) -0.3837(3) 0.3492(4)
H9 H 0.0101 -0.3433 0.4154
N1 N 0.1662(2) -0.0027(3) 0.3095(3)
N2 N 0.0775(2) 0.0954(3) 0.1105(3)
H10 H 0.0565 0.1047 0.0297
H11 H 0.0619 0.1417 0.1456
N3 N 0.1562(2) -0.0611(3) 0.1212(3)
O1 O 0.0300(2) -0.1367(2) 0.3564(3)
O2 O 0.0267(2) -0.7522(2) 0.3552(3)
Ag1E Ag 0.08840(2) -0.05768(2) 0.88709(3)
Ag1E_2 Ag 0.08840(2) -0.05768(2) -0.11291(3)
Ag1_2 Ag 0.08840(2) -0.94232(2) 0.38709(3)
Ag1A Ag -0.08840(2) 0.05768(2) 0.11291(3)
Ag1A_2 Ag -0.08840(2) -0.94232(2) 0.11291(3)
C1E C 0.2586(3) 0.1523(4) 0.8285(4)
H1E H 0.3036 0.2058 0.8802
C2E C 0.2186(3) 0.1412(4) 0.6959(4)
C3E C 0.2678(4) 0.0900(5) 1.0249(4)
H2E H 0.2406 0.0330 1.0441
H3E H 0.2581 0.1674 1.0432
H4E H 0.3292 0.0748 1.0786
C4E C 0.2297(3) 0.0816(4) 0.8825(4)
C5E C 0.2415(4) 0.2204(5) 0.6274(5)
H5E H 0.2072 0.1993 0.5362
H6E H 0.3021 0.2118 0.6673
H7E H 0.2298 0.3006 0.6352
C6A C -0.0065(3) -0.5048(3) 0.1509(4)
H8A H -0.0111 -0.5454 0.0841
C7E C 0.1345(3) -0.0085(3) 0.6820(3)
C12A C -0.0062(3) -0.3837(3) 0.1508(4)
H9A H -0.0101 -0.3433 0.0846
N1E N 0.1662(2) 0.0027(3) 0.8095(3)
N2E N 0.0775(2) -0.0954(3) 0.6105(3)
H10E H 0.0565 -0.1047 0.5297
H11E H 0.0619 -0.1417 0.6456
N3E N 0.1562(2) 0.0611(3) 0.6212(3)
N3_2 N 0.1562(2) -0.0611(3) 1.1212(3)
O1A O -0.0300(2) -0.1367(2) 0.1436(3)
O1E O 0.0300(2) 0.1367(2) 0.8564(3)
O2A O -0.0267(2) -0.7522(2) 0.1448(3)
O2_2 O 0.0267(2) 0.2478(2) 0.3552(3)
O2E O 0.0267(2) -0.2478(2) 0.8552(3)
loop_
_geom_bond_atom_site_label_1
_geom_bond_atom_site_label_2
_geom_bond_site_symmetry_1
_geom_bond_site_symmetry_2
Ag1 N1 1_555 1_555
C1 H1 1_555 1_555
C2 C1 1_555 1_555
C3 H2 1_555 1_555
H3 C3 1_555 1_555
H4 C3 1_555 1_555
C4 C1 1_555 1_555
C5 C2 1_555 1_555
H5 C5 1_555 1_555
H6 C5 1_555 1_555
H7 C5 1_555 1_555
C6 H8 1_555 1_555
C7 N1 1_555 1_555
C8 C9 1_555 1_555
C9 C6 1_555 1_555
C10 C11 1_555 1_555
C11 O1 1_555 1_555
C12 C6 1_555 1_555
H9 C12 1_555 1_555
N1 C4 1_555 1_555
N2 C7 1_555 1_555
H10 N2 1_555 1_555
H11 N2 1_555 1_555
N3 C2 1_555 1_555
O1 Ag1 1_555 1_555
O2 C8 1_555 1_555
Ag1E N1E 1_555 1_555
Ag1E_2 N3 1_555 1_555
Ag1_2 O2 1_555 1_555
Ag1A O1A 1_555 1_555
Ag1A_2 O2A 1_555 1_555
C1E H1E 1_555 1_555
C2E C1E 1_555 1_555
C3E H2E 1_555 1_555
H3E C3E 1_555 1_555
H4E C3E 1_555 1_555
C4E C1E 1_555 1_555
C5E C2E 1_555 1_555
H5E C5E 1_555 1_555
H6E C5E 1_555 1_555
H7E C5E 1_555 1_555
C6A C9 1_555 1_555
H8A C6A 1_555 1_555
C7E N1E 1_555 1_555
C12A C10 1_555 1_555
H9A C12A 1_555 1_555
N1E C4E 1_555 1_555
N2E C7E 1_555 1_555
H10E N2E 1_555 1_555
H11E N2E 1_555 1_555
N3E Ag1 1_555 1_555
N3_2 Ag1E 1_555 1_555
O1A C11 1_555 1_555
O1E Ag1E 1_555 1_555
O2A C8 1_555 1_555
O2_2 Ag1 1_555 1_555
O2E Ag1E 1_555 1_555
C3 C4 1_555 1_555
C7 N3 1_555 1_555
C10 C12 1_555 1_555
C2E N3E 1_555 1_555
C3E C4E 1_555 1_555
C6A C12A 1_555 1_555
C7E N3E 1_555 1_555

#END
