
#######################################################################
#
#                 Cambridge Crystallographic Data Centre
#                                CCDC 
#
#######################################################################
#
# If this CIF has been generated from an entry in the Cambridge 
# Structural Database, then it will include bibliographic, chemical, 
# crystal, experimental, refinement or atomic coordinate data resulting 
# from the CCDC's data processing and validation procedures.
#
#######################################################################

data_OPANOJ
_symmetry_cell_setting           triclinic
_symmetry_space_group_name_H-M   'P -1'
_symmetry_Int_Tables_number      2
_space_group_name_Hall           '-P 1'
loop_
_symmetry_equiv_pos_site_id
_symmetry_equiv_pos_as_xyz
1 x,y,z
2 -x,-y,-z
_cell_length_a                   9.142(5)
_cell_length_b                   10.983(6)
_cell_length_c                   13.550(7)
_cell_angle_alpha                105.686(9)
_cell_angle_beta                 107.259(10)
_cell_angle_gamma                96.046(9)
_cell_volume                     1225.13
loop_
_atom_site_label
_atom_site_type_symbol
_atom_site_fract_x
_atom_site_fract_y
_atom_site_fract_z
Cd1 Cd 1.5000 1.0000 0.5000
Fe1 Fe 0.32472(7) 0.43059(6) 0.17658(5)
Br1 Br 1.28574(5) 1.15516(5) 0.47879(4)
C1 C 0.1389(5) 0.3734(4) 0.0357(4)
C2 C 0.1077(5) 0.4688(5) 0.1170(4)
H1 H 0.0217 0.4581 0.1452
C3 C 0.2230(7) 0.5815(5) 0.1501(5)
H2 H 0.2316 0.6631 0.2056
C4 C 0.3252(7) 0.5556(5) 0.0889(5)
H3 H 0.4167 0.6164 0.0955
C5 C 0.2749(5) 0.4308(6) 0.0201(4)
H4 H 0.3243 0.3878 -0.0310
C6 C 0.5480(5) 0.4365(4) 0.2638(4)
C7 C 0.4703(6) 0.3022(5) 0.2022(4)
H5 H 0.4997 0.2399 0.1482
C8 C 0.3391(5) 0.2826(4) 0.2406(4)
H6 H 0.2601 0.2028 0.2134
C9 C 0.3413(6) 0.3921(5) 0.3187(4)
H7 H 0.2641 0.4027 0.3558
C10 C 0.4682(5) 0.4894(5) 0.3349(4)
H8 H 0.4960 0.5774 0.3860
C11 C 0.0534(5) 0.2376(5) -0.0269(4)
C12 C -0.1569(5) 0.0650(5) -0.0491(4)
H9 H -0.1754 0.0277 0.0045
H10 H -0.1042 0.0093 -0.0893
C13 C -0.3110(5) 0.0693(4) -0.1264(4)
C14 C -0.3327(5) 0.0476(4) -0.2344(4)
H11 H -0.2490 0.0308 -0.2581
C15 C -0.5860(6) 0.0710(5) -0.2756(4)
H12 H -0.6808 0.0685 -0.3271
C16 C -0.5768(6) 0.0980(6) -0.1667(5)
H13 H -0.6615 0.1170 -0.1451
C17 C -0.4364(6) 0.0952(5) -0.0924(4)
H14 H -0.4264 0.1108 -0.0195
C18 C 0.6886(5) 0.4985(5) 0.2480(4)
C19 C 0.8752(5) 0.6952(5) 0.2906(4)
H15 H 0.8569 0.7817 0.2952
H16 H 0.8803 0.6558 0.2188
C20 C 1.0320(5) 0.7053(4) 0.3751(4)
C21 C 1.1501(5) 0.8092(4) 0.4008(4)
H17 H 1.1276 0.8736 0.3694
C22 C 1.3258(5) 0.7318(5) 0.5157(4)
H18 H 1.4259 0.7398 0.5634
C23 C 1.2142(6) 0.6277(5) 0.4958(4)
H19 H 1.2386 0.5667 0.5309
C24 C 1.0655(5) 0.6115(5) 0.4242(4)
H20 H 0.9895 0.5394 0.4092
N1 N -0.0561(4) 0.1914(4) 0.0068(3)
H24 H -0.0679 0.2389 0.0647
N2 N -0.4669(4) 0.0490(4) -0.3083(3)
N3 N 0.7445(4) 0.6219(4) 0.3018(3)
H25 H 0.7007 0.6607 0.3458
N4 N 1.2956(4) 0.8231(4) 0.4686(3)
O1 O 0.0818(5) 0.1727(4) -0.1070(4)
O2 O 0.7509(4) 0.4334(4) 0.1860(3)
Cd1_2 Cd -0.5000 0.0000 -0.5000
Fe1A Fe 0.67528(7) 0.56941(6) -0.17658(5)
Br1A Br 1.71426(5) 0.84484(5) 0.52121(4)
C1A C 0.8611(5) 0.6266(4) -0.0357(4)
C2A C 0.8923(5) 0.5312(5) -0.1170(4)
H1A H 0.9783 0.5419 -0.1452
C3A C 0.7770(7) 0.4185(5) -0.1501(5)
H2A H 0.7684 0.3369 -0.2056
C4A C 0.6748(7) 0.4444(5) -0.0889(5)
H3A H 0.5833 0.3836 -0.0955
C5A C 0.7251(5) 0.5692(6) -0.0201(4)
H4A H 0.6757 0.6122 0.0310
C6A C 0.4520(5) 0.5635(4) -0.2638(4)
C7A C 0.5297(6) 0.6978(5) -0.2022(4)
H5A H 0.5003 0.7601 -0.1482
C8A C 0.6609(5) 0.7174(4) -0.2406(4)
H6A H 0.7399 0.7972 -0.2134
C9A C 0.6587(6) 0.6079(5) -0.3187(4)
H7A H 0.7359 0.5973 -0.3558
C10A C 0.5318(5) 0.5106(5) -0.3349(4)
H8A H 0.5040 0.4226 -0.3860
C11A C 0.9466(5) 0.7624(5) 0.0269(4)
C12A C 1.1569(5) 0.9350(5) 0.0491(4)
H9A H 1.1754 0.9723 -0.0045
H10A H 1.1042 0.9907 0.0893
C13A C 1.3110(5) 0.9307(4) 0.1264(4)
C14A C 1.3327(5) 0.9524(4) 0.2344(4)
H11A H 1.2490 0.9692 0.2581
C15A C 1.5860(6) 0.9290(5) 0.2756(4)
H12A H 1.6808 0.9315 0.3271
C16A C 1.5768(6) 0.9020(6) 0.1667(5)
H13A H 1.6615 0.8830 0.1451
C17A C 1.4364(6) 0.9048(5) 0.0924(4)
H14A H 1.4264 0.8892 0.0195
C18A C 0.3114(5) 0.5015(5) -0.2480(4)
C19A C 0.1248(5) 0.3048(5) -0.2906(4)
H15A H 0.1431 0.2183 -0.2952
H16A H 0.1197 0.3442 -0.2188
C20A C -0.0320(5) 0.2947(4) -0.3751(4)
C21A C -0.1501(5) 0.1908(4) -0.4008(4)
H17A H -0.1276 0.1264 -0.3694
C22A C -0.3258(5) 0.2682(5) -0.5157(4)
H18A H -0.4259 0.2602 -0.5634
C23A C -0.2142(6) 0.3723(5) -0.4958(4)
H19A H -0.2386 0.4333 -0.5309
C24A C -0.0655(5) 0.3885(5) -0.4242(4)
H20A H 0.0105 0.4606 -0.4092
N1A N 1.0561(4) 0.8086(4) -0.0068(3)
H24A H 1.0679 0.7611 -0.0647
N2A N 1.4669(4) 0.9510(4) 0.3083(3)
N2_2 N 1.5331(4) 1.0490(4) 0.6917(3)
N3A N 0.2555(4) 0.3781(4) -0.3018(3)
H25A H 0.2993 0.3393 -0.3458
N4A N -0.2956(4) 0.1769(4) -0.4686(3)
N4A_2 N 1.7044(4) 1.1769(4) 0.5314(3)
O1A O 0.9182(5) 0.8273(4) 0.1070(4)
O2A O 0.2491(4) 0.5666(4) -0.1860(3)
C25 C 0.9149(5) 0.1824(9) 0.2767(5)
H21 H 0.9933 0.2585 0.3216
H22 H 0.9645 0.1115 0.2561
H23 H 0.8502 0.1620 0.3167
O3 O 0.8224(11) 0.2048(7) 0.1830(5)
H26 H 0.8110 0.2799 0.1985
loop_
_geom_bond_atom_site_label_1
_geom_bond_atom_site_label_2
_geom_bond_site_symmetry_1
_geom_bond_site_symmetry_2
Cd1 Br1 1_555 1_555
Fe1 C1 1_555 1_555
C1 C2 1_555 1_555
C2 Fe1 1_555 1_555
H1 C2 1_555 1_555
C3 Fe1 1_555 1_555
H2 C3 1_555 1_555
C4 Fe1 1_555 1_555
H3 C4 1_555 1_555
C5 Fe1 1_555 1_555
H4 C5 1_555 1_555
C6 Fe1 1_555 1_555
C7 Fe1 1_555 1_555
H5 C7 1_555 1_555
C8 Fe1 1_555 1_555
H6 C8 1_555 1_555
C9 Fe1 1_555 1_555
H7 C9 1_555 1_555
C10 Fe1 1_555 1_555
H8 C10 1_555 1_555
C11 C1 1_555 1_555
C12 H9 1_555 1_555
H10 C12 1_555 1_555
C13 C12 1_555 1_555
C14 C13 1_555 1_555
H11 C14 1_555 1_555
C15 H12 1_555 1_555
C16 C15 1_555 1_555
H13 C16 1_555 1_555
C17 C13 1_555 1_555
H14 C17 1_555 1_555
C18 C6 1_555 1_555
C19 H15 1_555 1_555
H16 C19 1_555 1_555
C20 C19 1_555 1_555
C21 C20 1_555 1_555
H17 C21 1_555 1_555
C22 H18 1_555 1_555
C23 C22 1_555 1_555
H19 C23 1_555 1_555
C24 C20 1_555 1_555
H20 C24 1_555 1_555
C25 H21 1_555 1_555
H22 C25 1_555 1_555
H23 C25 1_555 1_555
N1 C11 1_555 1_555
H24 N1 1_555 1_555
N2 C14 1_555 1_555
N3 C18 1_555 1_555
H25 N3 1_555 1_555
N4 Cd1 1_555 1_555
O1 C11 1_555 1_555
O2 C18 1_555 1_555
O3 C25 1_555 1_555
H26 O3 1_555 1_555
Cd1_2 N2 1_555 1_555
Fe1A C1A 1_555 1_555
Br1A Cd1 1_555 1_555
C1A C2A 1_555 1_555
C2A Fe1A 1_555 1_555
H1A C2A 1_555 1_555
C3A Fe1A 1_555 1_555
H2A C3A 1_555 1_555
C4A Fe1A 1_555 1_555
H3A C4A 1_555 1_555
C5A Fe1A 1_555 1_555
H4A C5A 1_555 1_555
C6A Fe1A 1_555 1_555
C7A Fe1A 1_555 1_555
H5A C7A 1_555 1_555
C8A Fe1A 1_555 1_555
H6A C8A 1_555 1_555
C9A Fe1A 1_555 1_555
H7A C9A 1_555 1_555
C10A Fe1A 1_555 1_555
H8A C10A 1_555 1_555
C11A C1A 1_555 1_555
C12A H9A 1_555 1_555
H10A C12A 1_555 1_555
C13A C12A 1_555 1_555
C14A C13A 1_555 1_555
H11A C14A 1_555 1_555
C15A H12A 1_555 1_555
C16A C15A 1_555 1_555
H13A C16A 1_555 1_555
C17A C13A 1_555 1_555
H14A C17A 1_555 1_555
C18A C6A 1_555 1_555
C19A H15A 1_555 1_555
H16A C19A 1_555 1_555
C20A C19A 1_555 1_555
C21A C20A 1_555 1_555
H17A C21A 1_555 1_555
C22A H18A 1_555 1_555
C23A C22A 1_555 1_555
H19A C23A 1_555 1_555
C24A C20A 1_555 1_555
H20A C24A 1_555 1_555
N1A C11A 1_555 1_555
H24A N1A 1_555 1_555
N2A Cd1 1_555 1_555
N2_2 Cd1 1_555 1_555
N3A C18A 1_555 1_555
H25A N3A 1_555 1_555
N4A Cd1_2 1_555 1_555
N4A_2 Cd1 1_555 1_555
O1A C11A 1_555 1_555
O2A C18A 1_555 1_555
C1 C5 1_555 1_555
C2 C3 1_555 1_555
C3 C4 1_555 1_555
C4 C5 1_555 1_555
C6 C7 1_555 1_555
C6 C10 1_555 1_555
C7 C8 1_555 1_555
C8 C9 1_555 1_555
C9 C10 1_555 1_555
C12 N1 1_555 1_555
C15 N2 1_555 1_555
C16 C17 1_555 1_555
C19 N3 1_555 1_555
C21 N4 1_555 1_555
C22 N4 1_555 1_555
C23 C24 1_555 1_555
C1A C5A 1_555 1_555
C2A C3A 1_555 1_555
C3A C4A 1_555 1_555
C4A C5A 1_555 1_555
C6A C7A 1_555 1_555
C6A C10A 1_555 1_555
C7A C8A 1_555 1_555
C8A C9A 1_555 1_555
C9A C10A 1_555 1_555
C12A N1A 1_555 1_555
C14A N2A 1_555 1_555
C15A N2A 1_555 1_555
C16A C17A 1_555 1_555
C19A N3A 1_555 1_555
C21A N4A 1_555 1_555
C22A N4A 1_555 1_555
C23A C24A 1_555 1_555

#END
