
#######################################################################
#
#                 Cambridge Crystallographic Data Centre
#                                CCDC 
#
#######################################################################
#
# If this CIF has been generated from an entry in the Cambridge 
# Structural Database, then it will include bibliographic, chemical, 
# crystal, experimental, refinement or atomic coordinate data resulting 
# from the CCDC's data processing and validation procedures.
#
#######################################################################

data_OPEJUP
_symmetry_cell_setting           monoclinic
_symmetry_space_group_name_H-M   'P 21/c'
_symmetry_Int_Tables_number      14
_space_group_name_Hall           '-P 2ybc'
loop_
_symmetry_equiv_pos_site_id
_symmetry_equiv_pos_as_xyz
1 x,y,z
2 -x,1/2+y,1/2-z
3 -x,-y,-z
4 x,1/2-y,1/2+z
_cell_length_a                   8.7899(2)
_cell_length_b                   8.7340(3)
_cell_length_c                   23.8459(6)
_cell_angle_alpha                90
_cell_angle_beta                 101.399(2)
_cell_angle_gamma                90
_cell_volume                     1794.56
loop_
_atom_site_label
_atom_site_type_symbol
_atom_site_fract_x
_atom_site_fract_y
_atom_site_fract_z
C1 C 0.2325(16) 0.6041(15) 0.8700(5)
H1 H 0.1293 0.6242 0.8537
C2 C 0.2681(17) 0.4733(14) 0.9003(6)
H2 H 0.1897 0.4072 0.9062
C3 C 0.4175(19) 0.4397(17) 0.9218(7)
H3 H 0.4432 0.3475 0.9409
C4 C 0.5325(17) 0.5418(15) 0.9156(6)
H4 H 0.6360 0.5237 0.9320
C5 C 0.4872(14) 0.6715(13) 0.8840(5)
C6 C 0.6071(14) 0.7889(15) 0.8743(5)
C7 C -0.2302(15) 1.1700(17) 0.9374(6)
H5 H -0.3356 1.1644 0.9216
C8 C -0.1843(16) 1.2453(16) 0.9891(5)
H6 H -0.2569 1.2896 1.0077
C9 C -0.0286(17) 1.2525(16) 1.0122(5)
H7 H 0.0062 1.3019 1.0469
C10 C 0.0742(15) 1.1870(15) 0.9838(5)
H8 H 0.1800 1.1919 0.9989
C11 C 0.0221(13) 1.1142(14) 0.9331(5)
C12 C 0.1262(14) 1.0328(14) 0.8998(5)
N1 N 0.3429(11) 0.7066(11) 0.8627(4)
N2 N -0.1312(11) 1.1060(11) 0.9095(4)
O1 O 0.5566(9) 0.9214(10) 0.8586(3)
O2 O 0.7452(10) 0.7514(12) 0.8783(5)
O3 O 0.0644(10) 0.9422(11) 0.8620(3)
O4 O 0.2676(10) 1.0630(12) 0.9102(4)
Pb1 Pb 0.28995(5) 0.94955(5) 0.805585(18)
Pb2 Pb -0.20757(5) 0.98436(5) 0.812830(18)
I1 I 0.47505(10) 0.76725(10) 0.71767(4)
I2 I -0.01004(10) 0.76111(10) 0.72845(4)
O1_2 O -0.4434(9) 0.9214(10) 0.8586(3)
O2_2 O -0.2548(10) 0.7514(12) 0.8783(5)
Pb1A Pb 0.71005(5) 0.44955(5) 0.694415(18)
Pb2_2 Pb 0.79243(5) 0.98436(5) 0.812830(18)
Pb2A Pb 0.20757(5) 0.48436(5) 0.687170(18)
I1A I 0.52495(10) 1.26725(10) 0.78233(4)
I1A_2 I -0.47505(10) 1.26725(10) 0.78233(4)
I2A I 0.01004(10) 1.26111(10) 0.77155(4)
loop_
_geom_bond_atom_site_label_1
_geom_bond_atom_site_label_2
_geom_bond_site_symmetry_1
_geom_bond_site_symmetry_2
C1 H1 1_555 1_555
C2 C1 1_555 1_555
H2 C2 1_555 1_555
C3 C2 1_555 1_555
H3 C3 1_555 1_555
C4 C3 1_555 1_555
H4 C4 1_555 1_555
C5 C4 1_555 1_555
C6 C5 1_555 1_555
C7 H5 1_555 1_555
C8 C7 1_555 1_555
H6 C8 1_555 1_555
C9 C8 1_555 1_555
H7 C9 1_555 1_555
C10 C9 1_555 1_555
H8 C10 1_555 1_555
C11 C10 1_555 1_555
C12 C11 1_555 1_555
N1 C1 1_555 1_555
N2 C7 1_555 1_555
O1 C6 1_555 1_555
O2 C6 1_555 1_555
O3 C12 1_555 1_555
O4 C12 1_555 1_555
Pb1 N1 1_555 1_555
Pb2 N2 1_555 1_555
I1 Pb1 1_555 1_555
I2 Pb1 1_555 1_555
O1_2 Pb2 1_555 1_555
O2_2 Pb2 1_555 1_555
Pb1A I1 1_555 1_555
Pb2_2 O1 1_555 1_555
Pb2A I1 1_555 1_555
I1A Pb1 1_555 1_555
I1A_2 Pb2 1_555 1_555
I2A Pb2 1_555 1_555
C5 N1 1_555 1_555
C11 N2 1_555 1_555
O1 Pb1 1_555 1_555
O2 Pb2_2 1_555 1_555
O3 Pb1 1_555 1_555
O3 Pb2 1_555 1_555
O4 Pb1 1_555 1_555
Pb2 I2 1_555 1_555
I2 Pb2A 1_555 1_555
Pb2_2 I1A 1_555 1_555

#END
