
#######################################################################
#
#                 Cambridge Crystallographic Data Centre
#                                CCDC 
#
#######################################################################
#
# If this CIF has been generated from an entry in the Cambridge 
# Structural Database, then it will include bibliographic, chemical, 
# crystal, experimental, refinement or atomic coordinate data resulting 
# from the CCDC's data processing and validation procedures.
#
#######################################################################

data_OPEPAB
_symmetry_cell_setting           triclinic
_symmetry_space_group_name_H-M   'P -1'
_symmetry_Int_Tables_number      2
_space_group_name_Hall           '-P 1'
loop_
_symmetry_equiv_pos_site_id
_symmetry_equiv_pos_as_xyz
1 x,y,z
2 -x,-y,-z
_cell_length_a                   10.318(2)
_cell_length_b                   11.079(2)
_cell_length_c                   13.102(3)
_cell_angle_alpha                76.00(3)
_cell_angle_beta                 67.21(3)
_cell_angle_gamma                64.74(3)
_cell_volume                     1243.49
loop_
_atom_site_label
_atom_site_type_symbol
_atom_site_fract_x
_atom_site_fract_y
_atom_site_fract_z
Co1 Co 1.0000 1.0000 0.5000
Zn1 Zn 0.70452(3) 0.96401(3) 0.71715(2)
O1 O 0.88675(18) 0.93104(17) 0.44579(14)
O2 O 0.70013(19) 0.89618(18) 0.59390(15)
O3 O 1.03933(19) 0.83734(17) 0.61873(14)
O4 O 0.85843(18) 0.82275(17) 0.77803(14)
O5 O 0.78909(18) 1.11320(16) 0.62262(14)
O6 O 0.6818(2) 1.13330(19) 0.79961(16)
N1 N 0.4973(2) 0.9643(2) 0.81956(17)
C1 C 0.7787(2) 0.8919(2) 0.4922(2)
C2 C 0.7388(3) 0.8312(2) 0.4237(2)
C3 C 0.8393(3) 0.7896(3) 0.3218(2)
H1 H 0.9296 0.8044 0.2933
C4 C 0.8071(4) 0.7261(3) 0.2617(3)
H2 H 0.8764 0.6963 0.1935
C5 C 0.6707(5) 0.7066(3) 0.3033(3)
H3 H 0.6485 0.6639 0.2629
C6 C 0.5702(4) 0.7499(3) 0.4028(3)
H4 H 0.4786 0.7377 0.4297
C7 C 0.6016(3) 0.8118(3) 0.4646(2)
H5 H 0.5321 0.8405 0.5331
C8 C 0.9959(3) 0.7932(2) 0.7170(2)
C9 C 1.1147(3) 0.6966(2) 0.7683(2)
C10 C 1.2659(3) 0.6650(3) 0.7077(2)
H6 H 1.2942 0.7013 0.6345
C11 C 1.3762(3) 0.5796(3) 0.7549(3)
H7 H 1.4780 0.5586 0.7132
C12 C 1.3361(4) 0.5263(3) 0.8620(3)
H8 H 1.4105 0.4692 0.8936
C13 C 1.1862(4) 0.5567(3) 0.9233(3)
H9 H 1.1588 0.5197 0.9964
C14 C 1.0743(3) 0.6431(3) 0.8763(2)
H10 H 0.9726 0.6643 0.9183
C15 C 0.7467(2) 1.1772(2) 0.7062(2)
C16 C 0.7687(2) 1.3050(2) 0.6912(2)
C17 C 0.7474(3) 1.3602(3) 0.7830(3)
H11 H 0.7211 1.3168 0.8538
C18 C 0.7655(4) 1.4819(3) 0.7690(3)
H12 H 0.7522 1.5198 0.8301
C19 C 0.8032(4) 1.5449(3) 0.6636(4)
H13 H 0.8154 1.6258 0.6540
C20 C 0.8228(3) 1.4911(3) 0.5733(3)
H14 H 0.8465 1.5359 0.5029
C21 C 0.8076(3) 1.3703(2) 0.5860(2)
H15 H 0.8234 1.3325 0.5240
C22 C 0.4130(3) 1.0397(3) 0.9039(2)
H16 H 0.4500 1.0959 0.9166
C23 C 0.2730(3) 1.0390(3) 0.9740(2)
H17 H 0.2190 1.0928 1.0327
C24 C 0.2136(3) 0.9587(3) 0.9567(2)
C25 C 0.2995(3) 0.8807(3) 0.8703(3)
H18 H 0.2638 0.8245 0.8560
C26 C 0.4403(3) 0.8849(3) 0.8034(3)
H19 H 0.4972 0.8304 0.7451
C27 C 0.0590(3) 0.9581(3) 1.0286(2)
H20 H 0.0300 0.9934 1.0984
H21 H 0.0629 0.8666 1.0449
Co1_2 Co -1.0000 1.0000 1.5000
Zn1A Zn -0.70452(3) 1.03599(3) 1.28285(2)
O1A O -0.88675(18) 1.06896(17) 1.55421(14)
O1A_2 O 1.11325(18) 1.06896(17) 0.55421(14)
O2A O -0.70013(19) 1.10382(18) 1.40610(15)
O3A O -1.03933(19) 1.16266(17) 1.38127(14)
O3A_2 O 0.96067(19) 1.16266(17) 0.38127(14)
O4A O -0.85843(18) 1.17725(17) 1.22197(14)
O5A O -0.78909(18) 0.88680(16) 1.37738(14)
O5A_2 O 1.21091(18) 0.88680(16) 0.37738(14)
O6A O -0.6818(2) 0.86670(19) 1.20039(16)
N1A N -0.4973(2) 1.0357(2) 1.18044(17)
C1A C -0.7787(2) 1.1081(2) 1.5078(2)
C2A C -0.7388(3) 1.1688(2) 1.5763(2)
C3A C -0.8393(3) 1.2104(3) 1.6782(2)
H1A H -0.9296 1.1956 1.7067
C4A C -0.8071(4) 1.2739(3) 1.7383(3)
H2A H -0.8764 1.3037 1.8065
C5A C -0.6707(5) 1.2934(3) 1.6967(3)
H3A H -0.6485 1.3361 1.7371
C6A C -0.5702(4) 1.2501(3) 1.5972(3)
H4A H -0.4786 1.2623 1.5703
C7A C -0.6016(3) 1.1882(3) 1.5354(2)
H5A H -0.5321 1.1595 1.4669
C8A C -0.9959(3) 1.2068(2) 1.2830(2)
C9A C -1.1147(3) 1.3034(2) 1.2317(2)
C10A C -1.2659(3) 1.3350(3) 1.2923(2)
H6A H -1.2942 1.2987 1.3655
C11A C -1.3762(3) 1.4204(3) 1.2451(3)
H7A H -1.4780 1.4414 1.2868
C12A C -1.3361(4) 1.4737(3) 1.1380(3)
H8A H -1.4105 1.5308 1.1064
C13A C -1.1862(4) 1.4433(3) 1.0767(3)
H9A H -1.1588 1.4803 1.0036
C14A C -1.0743(3) 1.3569(3) 1.1237(2)
H10A H -0.9726 1.3357 1.0817
C15A C -0.7467(2) 0.8228(2) 1.2938(2)
C16A C -0.7687(2) 0.6950(2) 1.3088(2)
C17A C -0.7474(3) 0.6398(3) 1.2170(3)
H11A H -0.7211 0.6832 1.1462
C18A C -0.7655(4) 0.5181(3) 1.2310(3)
H12A H -0.7522 0.4802 1.1699
C19A C -0.8032(4) 0.4551(3) 1.3364(4)
H13A H -0.8154 0.3742 1.3460
C20A C -0.8228(3) 0.5089(3) 1.4267(3)
H14A H -0.8465 0.4641 1.4971
C21A C -0.8076(3) 0.6297(2) 1.4140(2)
H15A H -0.8234 0.6675 1.4760
C22A C -0.4130(3) 0.9603(3) 1.0961(2)
H16A H -0.4500 0.9041 1.0834
C23A C -0.2730(3) 0.9610(3) 1.0260(2)
H17A H -0.2190 0.9072 0.9673
C24A C -0.2136(3) 1.0413(3) 1.0433(2)
C25A C -0.2995(3) 1.1193(3) 1.1297(3)
H18A H -0.2638 1.1755 1.1440
C26A C -0.4403(3) 1.1151(3) 1.1966(3)
H19A H -0.4972 1.1696 1.2549
C27A C -0.0590(3) 1.0419(3) 0.9714(2)
H20A H -0.0300 1.0066 0.9016
H21A H -0.0629 1.1334 0.9551
loop_
_geom_bond_atom_site_label_1
_geom_bond_atom_site_label_2
_geom_bond_site_symmetry_1
_geom_bond_site_symmetry_2
Co1 O1 1_555 1_555
Zn1 O2 1_555 1_555
O1 C1 1_555 1_555
O2 C1 1_555 1_555
O3 Co1 1_555 1_555
O4 Zn1 1_555 1_555
O5 Co1 1_555 1_555
O6 Zn1 1_555 1_555
N1 Zn1 1_555 1_555
C1 C2 1_555 1_555
C2 C3 1_555 1_555
C3 H1 1_555 1_555
C4 C3 1_555 1_555
H2 C4 1_555 1_555
C5 C4 1_555 1_555
H3 C5 1_555 1_555
C6 C5 1_555 1_555
H4 C6 1_555 1_555
C7 C2 1_555 1_555
H5 C7 1_555 1_555
C8 O3 1_555 1_555
C9 C8 1_555 1_555
C10 C9 1_555 1_555
H6 C10 1_555 1_555
C11 C10 1_555 1_555
H7 C11 1_555 1_555
C12 C11 1_555 1_555
H8 C12 1_555 1_555
C13 C12 1_555 1_555
H9 C13 1_555 1_555
C14 C9 1_555 1_555
H10 C14 1_555 1_555
C15 O5 1_555 1_555
C16 C15 1_555 1_555
C17 C16 1_555 1_555
H11 C17 1_555 1_555
C18 C17 1_555 1_555
H12 C18 1_555 1_555
C19 C18 1_555 1_555
H13 C19 1_555 1_555
C20 C19 1_555 1_555
H14 C20 1_555 1_555
C21 C16 1_555 1_555
H15 C21 1_555 1_555
C22 N1 1_555 1_555
H16 C22 1_555 1_555
C23 C22 1_555 1_555
H17 C23 1_555 1_555
C24 C23 1_555 1_555
C25 C24 1_555 1_555
H18 C25 1_555 1_555
C26 N1 1_555 1_555
H19 C26 1_555 1_555
C27 C24 1_555 1_555
H20 C27 1_555 1_555
H21 C27 1_555 1_555
Co1_2 O1A 1_555 1_555
Zn1A O2A 1_555 1_555
O1A C1A 1_555 1_555
O1A_2 Co1 1_555 1_555
O2A C1A 1_555 1_555
O3A Co1_2 1_555 1_555
O3A_2 Co1 1_555 1_555
O4A Zn1A 1_555 1_555
O5A Co1_2 1_555 1_555
O5A_2 Co1 1_555 1_555
O6A Zn1A 1_555 1_555
N1A Zn1A 1_555 1_555
C1A C2A 1_555 1_555
C2A C3A 1_555 1_555
C3A H1A 1_555 1_555
C4A C3A 1_555 1_555
H2A C4A 1_555 1_555
C5A C4A 1_555 1_555
H3A C5A 1_555 1_555
C6A C5A 1_555 1_555
H4A C6A 1_555 1_555
C7A C2A 1_555 1_555
H5A C7A 1_555 1_555
C8A O3A 1_555 1_555
C9A C8A 1_555 1_555
C10A C9A 1_555 1_555
H6A C10A 1_555 1_555
C11A C10A 1_555 1_555
H7A C11A 1_555 1_555
C12A C11A 1_555 1_555
H8A C12A 1_555 1_555
C13A C12A 1_555 1_555
H9A C13A 1_555 1_555
C14A C9A 1_555 1_555
H10A C14A 1_555 1_555
C15A O5A 1_555 1_555
C16A C15A 1_555 1_555
C17A C16A 1_555 1_555
H11A C17A 1_555 1_555
C18A C17A 1_555 1_555
H12A C18A 1_555 1_555
C19A C18A 1_555 1_555
H13A C19A 1_555 1_555
C20A C19A 1_555 1_555
H14A C20A 1_555 1_555
C21A C16A 1_555 1_555
H15A C21A 1_555 1_555
C22A N1A 1_555 1_555
H16A C22A 1_555 1_555
C23A C22A 1_555 1_555
H17A C23A 1_555 1_555
C24A C23A 1_555 1_555
C25A C24A 1_555 1_555
H18A C25A 1_555 1_555
C26A N1A 1_555 1_555
H19A C26A 1_555 1_555
C27A C27 1_555 1_555
H20A C27A 1_555 1_555
H21A C27A 1_555 1_555
Zn1 O5 1_555 1_555
O4 C8 1_555 1_555
O6 C15 1_555 1_555
C6 C7 1_555 1_555
C13 C14 1_555 1_555
C20 C21 1_555 1_555
C25 C26 1_555 1_555
Zn1A O5A 1_555 1_555
O4A C8A 1_555 1_555
O6A C15A 1_555 1_555
C6A C7A 1_555 1_555
C13A C14A 1_555 1_555
C20A C21A 1_555 1_555
C24A C27A 1_555 1_555
C25A C26A 1_555 1_555

#END
