
#######################################################################
#
#                 Cambridge Crystallographic Data Centre
#                                CCDC 
#
#######################################################################
#
# If this CIF has been generated from an entry in the Cambridge 
# Structural Database, then it will include bibliographic, chemical, 
# crystal, experimental, refinement or atomic coordinate data resulting 
# from the CCDC's data processing and validation procedures.
#
#######################################################################

data_OPEVOV
_symmetry_cell_setting           monoclinic
_symmetry_space_group_name_H-M   'P 21/n'
_symmetry_Int_Tables_number      14
_space_group_name_Hall           '-P 2yn'
loop_
_symmetry_equiv_pos_site_id
_symmetry_equiv_pos_as_xyz
1 x,y,z
2 1/2-x,1/2+y,1/2-z
3 -x,-y,-z
4 1/2+x,1/2-y,1/2+z
_cell_length_a                   9.4120(18)
_cell_length_b                   13.0143(13)
_cell_length_c                   22.155(3)
_cell_angle_alpha                90
_cell_angle_beta                 97.943(13)
_cell_angle_gamma                90
_cell_volume                     2687.74
loop_
_atom_site_label
_atom_site_type_symbol
_atom_site_fract_x
_atom_site_fract_y
_atom_site_fract_z
Co1 Co 0.28527(12) 0.24276(9) 0.51998(5)
O1 O 0.1464(7) 0.1302(5) 0.5432(3)
H1 H 0.168(8) 0.080(6) 0.566(4)
H2 H 0.055(5) 0.126(7) 0.532(4)
O2 O 0.1337(7) 0.3564(5) 0.5341(3)
H3 H 0.136(9) 0.396(6) 0.506(3)
H4 H 0.045(6) 0.346(7) 0.536(4)
O3 O 0.4389(8) 0.1346(5) 0.5079(3)
H5 H 0.467(9) 0.086(6) 0.529(4)
H6 H 0.491(9) 0.141(7) 0.480(3)
O4 O 0.4211(7) 0.3620(5) 0.4977(3)
H7 H 0.376(8) 0.404(6) 0.481(4)
H8 H 0.501(6) 0.378(7) 0.515(4)
N1 N 0.3817(7) 0.2478(5) 0.6140(3)
C1 C 0.5237(9) 0.2540(7) 0.6299(3)
H9 H 0.5834 0.2578 0.5987
C2 C 0.5870(9) 0.2552(6) 0.6900(3)
H10 H 0.6886 0.2579 0.6990
C3 C 0.5058(9) 0.2526(6) 0.7370(3)
C4 C 0.3571(9) 0.2477(7) 0.7204(3)
H11 H 0.2961 0.2460 0.7512
C5 C 0.2971(9) 0.2451(7) 0.6588(4)
H12 H 0.1959 0.2414 0.6484
C6 C 0.5691(9) 0.2573(6) 0.8023(3)
C7 C 0.7174(9) 0.2475(7) 0.8194(3)
H13 H 0.7784 0.2391 0.7890
C8 C 0.7760(9) 0.2501(7) 0.8804(3)
H14 H 0.8768 0.2423 0.8910
C9 C 0.4868(10) 0.2716(7) 0.8489(4)
H15 H 0.3858 0.2796 0.8397
C10 C 0.5513(9) 0.2743(6) 0.9087(4)
H16 H 0.4922 0.2844 0.9396
N2 N 0.6927(7) 0.2635(5) 0.9255(3)
Co1C Co 0.78527(12) 0.25724(9) 1.01998(5)
N2C N 0.1927(7) 0.2365(5) 0.4255(3)
S1 S -0.1327(2) 0.58197(18) 0.11856(10)
O5 O -0.1336(11) 0.6718(8) 0.0816(4)
O6 O -0.0904(9) 0.6029(6) 0.1822(3)
O7 O -0.0260(8) 0.5103(7) 0.0977(3)
O8 O -0.2756(8) 0.5362(8) 0.1080(5)
S2 S 0.1907(2) 0.56756(16) 0.42284(9)
O9 O 0.1605(8) 0.6492(5) 0.4648(3)
O10 O 0.1048(6) 0.4753(5) 0.4347(3)
O11 O 0.3442(6) 0.5399(5) 0.4340(3)
O12 O 0.1505(7) 0.5984(5) 0.3598(3)
O13 O 0.0128(8) 0.7412(5) 0.2736(3)
H17 H 0.042(11) 0.701(7) 0.303(3)
H18 H -0.005(11) 0.706(6) 0.244(3)
O14 O 0.1466(8) 0.8590(6) 0.4758(3)
H19 H 0.148(8) 0.794(4) 0.469(5)
H20 H 0.191(11) 0.868(8) 0.510(3)
N3 N 0.2137(9) 0.4944(6) 0.1703(3)
H21 H 0.1336 0.5012 0.1450
C11 C 0.2109(10) 0.5028(7) 0.2299(4)
H22 H 0.1222 0.5158 0.2444
C12 C 0.3339(9) 0.4930(7) 0.2710(4)
H23 H 0.3306 0.4993 0.3135
C13 C 0.4642(9) 0.4735(6) 0.2491(4)
C14 C 0.4635(10) 0.4662(7) 0.1867(4)
H24 H 0.5504 0.4547 0.1705
C15 C 0.3362(11) 0.4759(7) 0.1484(4)
H25 H 0.3355 0.4692 0.1056
C16 C 0.5970(9) 0.4643(6) 0.2927(4)
C17 C 0.5940(11) 0.4291(8) 0.3523(4)
H26 H 0.5063 0.4079 0.3652
C18 C 0.7196(9) 0.4256(8) 0.3917(4)
H27 H 0.7193 0.4008 0.4320
C19 C 0.7293(10) 0.4948(7) 0.2757(4)
H28 H 0.7343 0.5177 0.2353
C20 C 0.8501(10) 0.4914(8) 0.3173(5)
H29 H 0.9391 0.5135 0.3061
N4 N 0.8444(9) 0.4573(6) 0.3737(4)
H30 H 0.9237 0.4552 0.3998
loop_
_geom_bond_atom_site_label_1
_geom_bond_atom_site_label_2
_geom_bond_site_symmetry_1
_geom_bond_site_symmetry_2
Co1 O1 1_555 1_555
O1 H1 1_555 1_555
H2 O1 1_555 1_555
O2 Co1 1_555 1_555
H3 O2 1_555 1_555
H4 O2 1_555 1_555
O3 Co1 1_555 1_555
H5 O3 1_555 1_555
H6 O3 1_555 1_555
O4 Co1 1_555 1_555
H7 O4 1_555 1_555
H8 O4 1_555 1_555
N1 Co1 1_555 1_555
C1 N1 1_555 1_555
H9 C1 1_555 1_555
C2 C1 1_555 1_555
H10 C2 1_555 1_555
C3 C2 1_555 1_555
C4 C3 1_555 1_555
H11 C4 1_555 1_555
C5 N1 1_555 1_555
H12 C5 1_555 1_555
C6 C3 1_555 1_555
C7 C6 1_555 1_555
H13 C7 1_555 1_555
C8 C7 1_555 1_555
H14 C8 1_555 1_555
C9 C6 1_555 1_555
H15 C9 1_555 1_555
C10 C9 1_555 1_555
H16 C10 1_555 1_555
N2 C8 1_555 1_555
S1 O5 1_555 1_555
O6 S1 1_555 1_555
O7 S1 1_555 1_555
O8 S1 1_555 1_555
S2 O9 1_555 1_555
O10 S2 1_555 1_555
O11 S2 1_555 1_555
O12 S2 1_555 1_555
O13 H17 1_555 1_555
H18 O13 1_555 1_555
O14 H19 1_555 1_555
H20 O14 1_555 1_555
N3 H21 1_555 1_555
C11 N3 1_555 1_555
H22 C11 1_555 1_555
C12 C11 1_555 1_555
H23 C12 1_555 1_555
C13 C12 1_555 1_555
C14 C13 1_555 1_555
H24 C14 1_555 1_555
C15 N3 1_555 1_555
H25 C15 1_555 1_555
C16 C13 1_555 1_555
C17 C16 1_555 1_555
H26 C17 1_555 1_555
C18 C17 1_555 1_555
H27 C18 1_555 1_555
C19 C16 1_555 1_555
H28 C19 1_555 1_555
C20 C19 1_555 1_555
H29 C20 1_555 1_555
N4 C18 1_555 1_555
H30 N4 1_555 1_555
Co1C N2 1_555 1_555
N2C Co1 1_555 1_555
C4 C5 1_555 1_555
C10 N2 1_555 1_555
C14 C15 1_555 1_555
C20 N4 1_555 1_555

#END
