
#######################################################################
#
#                 Cambridge Crystallographic Data Centre
#                                CCDC 
#
#######################################################################
#
# If this CIF has been generated from an entry in the Cambridge 
# Structural Database, then it will include bibliographic, chemical, 
# crystal, experimental, refinement or atomic coordinate data resulting 
# from the CCDC's data processing and validation procedures.
#
#######################################################################

data_OPIHIF
_symmetry_cell_setting           monoclinic
_symmetry_space_group_name_H-M   'C 2/c'
_symmetry_Int_Tables_number      15
_space_group_name_Hall           '-C 2yn'
loop_
_symmetry_equiv_pos_site_id
_symmetry_equiv_pos_as_xyz
1 x,y,z
2 -x,y,1/2-z
3 1/2+x,1/2+y,z
4 1/2-x,1/2+y,1/2-z
5 -x,-y,-z
6 x,-y,1/2+z
7 1/2-x,1/2-y,-z
8 1/2+x,1/2-y,1/2+z
_cell_length_a                   9.0621(6)
_cell_length_b                   19.7678(12)
_cell_length_c                   9.9583(6)
_cell_angle_alpha                90
_cell_angle_beta                 108.530(1)
_cell_angle_gamma                90
_cell_volume                     1691.43
loop_
_atom_site_label
_atom_site_type_symbol
_atom_site_fract_x
_atom_site_fract_y
_atom_site_fract_z
Ho1 Ho 0.5000 0.012868(8) 0.7500
O1 O 0.2896(2) -0.04068(10) 0.56439(19)
H1 H 0.282(3) -0.0429(15) 0.467(2)
H2 H 0.189(2) -0.0415(15) 0.576(3)
O2 O 0.7423(2) 0.05822(9) 0.72842(19)
H3 H 0.764(3) 0.1042(8) 0.750(3)
H4 H 0.830(3) 0.0303(11) 0.769(3)
O3 O 0.4422(2) 0.10039(9) 0.58785(18)
O4 O 0.3952(2) 0.06252(9) 0.36705(18)
N1 N 0.3380(3) 0.31359(11) 0.3040(2)
C1 C 0.4097(3) 0.10911(12) 0.4568(3)
C2 C 0.3856(3) 0.18094(13) 0.4029(3)
C3 C 0.3235(3) 0.19438(13) 0.2587(3)
H5 H 0.2972 0.1585 0.1917
C4 C 0.3011(3) 0.26086(13) 0.2152(3)
H6 H 0.2571 0.2698 0.1168
C5 C 0.4006(3) 0.30032(13) 0.4423(3)
H7 H 0.4295 0.3372 0.5066
C6 C 0.4248(3) 0.23523(13) 0.4954(3)
H8 H 0.4680 0.2278 0.5944
Ho1D Ho 0.5000 -0.012868(8) 0.2500
O1A O 0.7104(2) -0.04068(10) 0.93561(19)
H1A H 0.718(3) -0.0429(15) 1.033(2)
H2A H 0.811(2) -0.0415(15) 0.924(3)
O2A O 0.2577(2) 0.05822(9) 0.77158(19)
H3A H 0.236(3) 0.1042(8) 0.750(3)
H4A H 0.170(3) 0.0303(11) 0.731(3)
O3D O 0.5578(2) -0.10039(9) 0.41215(18)
O3A O 0.5578(2) 0.10039(9) 0.91215(18)
O4D O 0.6048(2) -0.06252(9) 0.63295(18)
O4E O 0.3952(2) -0.06252(9) 0.86705(18)
N1D N 0.6620(3) -0.31359(11) 0.6960(2)
C1D C 0.5903(3) -0.10911(12) 0.5432(3)
C2D C 0.6144(3) -0.18094(13) 0.5971(3)
C3D C 0.6765(3) -0.19438(13) 0.7413(3)
H5D H 0.7028 -0.1585 0.8083
C4D C 0.6989(3) -0.26086(13) 0.7848(3)
H6D H 0.7429 -0.2698 0.8832
C5D C 0.5994(3) -0.30032(13) 0.5577(3)
H7D H 0.5705 -0.3372 0.4934
C6D C 0.5752(3) -0.23523(13) 0.5046(3)
H8D H 0.5320 -0.2278 0.4056
O5 O 0.0162(2) 0.03194(10) 0.1464(2)
O6 O 0.0000 0.12677(14) 0.2500
N2 N 0.0000 0.06485(16) 0.2500
O5A O -0.0162(2) 0.03194(10) 0.3536(2)
loop_
_geom_bond_atom_site_label_1
_geom_bond_atom_site_label_2
_geom_bond_site_symmetry_1
_geom_bond_site_symmetry_2
Ho1 O1 1_555 1_555
O1 H1 1_555 1_555
H2 O1 1_555 1_555
O2 Ho1 1_555 1_555
H3 O2 1_555 1_555
H4 O2 1_555 1_555
O3 Ho1 1_555 1_555
O4 C1 1_555 1_555
N1 C4 1_555 1_555
C1 O3 1_555 1_555
C2 C1 1_555 1_555
C3 C2 1_555 1_555
H5 C3 1_555 1_555
C4 C3 1_555 1_555
H6 C4 1_555 1_555
C5 N1 1_555 1_555
H7 C5 1_555 1_555
C6 C2 1_555 1_555
H8 C6 1_555 1_555
O5 N2 1_555 1_555
O6 N2 1_555 1_555
N2 O5A 1_555 1_555
Ho1D O4 1_555 1_555
O1A Ho1 1_555 1_555
H1A O1A 1_555 1_555
H2A O1A 1_555 1_555
O2A Ho1 1_555 1_555
H3A O2A 1_555 1_555
H4A O2A 1_555 1_555
O3D Ho1D 1_555 1_555
O3A Ho1 1_555 1_555
O4D Ho1 1_555 1_555
O4E Ho1 1_555 1_555
N1D C4D 1_555 1_555
C1D O3D 1_555 1_555
C2D C1D 1_555 1_555
C3D C2D 1_555 1_555
H5D C3D 1_555 1_555
C4D C3D 1_555 1_555
H6D C4D 1_555 1_555
C5D N1D 1_555 1_555
H7D C5D 1_555 1_555
C6D C2D 1_555 1_555
H8D C6D 1_555 1_555
C5 C6 1_555 1_555
O4D C1D 1_555 1_555
C5D C6D 1_555 1_555

#END
