
#######################################################################
#
#                 Cambridge Crystallographic Data Centre
#                                CCDC 
#
#######################################################################
#
# If this CIF has been generated from an entry in the Cambridge 
# Structural Database, then it will include bibliographic, chemical, 
# crystal, experimental, refinement or atomic coordinate data resulting 
# from the CCDC's data processing and validation procedures.
#
#######################################################################

data_OPOCOM
_symmetry_cell_setting           cubic
_symmetry_space_group_name_H-M   'P a -3'
_symmetry_Int_Tables_number      205
_space_group_name_Hall           '-P 2ac 2ab 3'
loop_
_symmetry_equiv_pos_site_id
_symmetry_equiv_pos_as_xyz
1 x,y,z
2 1/2-x,-y,1/2+z
3 -x,1/2+y,1/2-z
4 1/2+x,1/2-y,-z
5 z,x,y
6 1/2+z,1/2-x,-y
7 1/2-z,-x,1/2+y
8 -z,1/2+x,1/2-y
9 y,z,x
10 -y,1/2+z,1/2-x
11 1/2+y,1/2-z,-x
12 1/2-y,-z,1/2+x
13 -x,-y,-z
14 1/2+x,y,1/2-z
15 x,1/2-y,1/2+z
16 1/2-x,1/2+y,z
17 -z,-x,-y
18 1/2-z,1/2+x,y
19 1/2+z,x,1/2-y
20 z,1/2-x,1/2+y
21 -y,-z,-x
22 y,1/2-z,1/2+x
23 1/2-y,1/2+z,x
24 1/2+y,z,1/2-x
_cell_length_a                   20.6085(6)
_cell_length_b                   20.6085(6)
_cell_length_c                   20.6085(6)
_cell_angle_alpha                90
_cell_angle_beta                 90
_cell_angle_gamma                90
_cell_volume                     8752.64
loop_
_atom_site_label
_atom_site_type_symbol
_atom_site_fract_x
_atom_site_fract_y
_atom_site_fract_z
Cd1 Cd 0.224052(9) 0.899061(9) 0.059867(9)
K1 K 0.0000 0.5000 0.0000
O1 O 0.20255(11) 0.85657(10) 0.16250(10)
H1 H 0.2041 0.8772 0.1970
H2 H 0.1860 0.8201 0.1682
O2 O 0.13410(11) 0.96902(12) 0.07454(12)
H3 H 0.1031 0.9751 0.0495
H4 H 0.1280 0.9857 0.1105
N1 N 0.04592(12) 0.77560(11) 0.06551(12)
N2 N 0.13996(11) 0.82360(12) 0.03629(12)
N3 N 0.27563(12) 0.98715(11) 0.11204(12)
N4 N 0.33345(12) 1.04420(11) 0.18635(11)
N5 N 0.0278(2) 0.6274(2) -0.0057(3)
N6 N 0.21919(17) 0.7263(2) -0.0769(2)
N7 N 0.1995(2) 1.10359(18) 0.0111(2)
N8 N 0.30744(18) 1.21103(14) 0.15324(16)
C1 C 0.08518(14) 0.82670(15) 0.07128(15)
H5 H 0.0753 0.8619 0.0977
C2 C 0.13488(14) 0.76582(14) 0.00509(14)
C3 C 0.07773(15) 0.73654(15) 0.02310(16)
C4 C 0.0512(2) 0.6753(2) 0.0057(3)
C5 C 0.18193(16) 0.74352(18) -0.04026(18)
C6 C 0.31601(14) 0.98595(14) 0.16285(14)
H6 H 0.3310 0.9473 0.1807
C7 C 0.26663(15) 1.05229(14) 0.10140(15)
C8 C 0.30167(15) 1.08683(14) 0.14663(14)
C9 C 0.22884(18) 1.07928(17) 0.05056(19)
C10 C 0.30546(16) 1.15602(15) 0.15163(16)
Cd1G Cd -0.059867(9) 0.724052(9) -0.399061(9)
Cd1J Cd 0.399061(9) 0.440133(9) -0.224052(9)
Cd1L Cd -0.224052(9) 0.100939(9) -0.059867(9)
Cd1S Cd 0.059867(9) 0.275948(9) 0.399061(9)
Cd1V Cd -0.399061(9) 0.559867(9) 0.224052(9)
Cd1P Cd -0.059867(9) 0.775948(9) 0.100939(9)
Cd1W Cd 0.399061(9) 1.059867(9) 0.275948(9)
Cd1U Cd -0.100939(9) 0.440133(9) -0.275948(9)
Cd1O Cd 0.275948(9) 0.399061(9) 0.059867(9)
Cd1D Cd 0.059867(9) 0.224052(9) -0.100939(9)
Cd1I Cd 0.100939(9) 0.559867(9) 0.275948(9)
Cd1C Cd -0.275948(9) 0.600939(9) -0.059867(9)
Cd1Q Cd 0.440133(9) 0.724052(9) -0.100939(9)
Cd1M Cd -0.275948(9) 0.899061(9) -0.559867(9)
Cd1T Cd 0.100939(9) 0.940133(9) -0.224052(9)
Cd1R Cd 0.559867(9) 0.224052(9) -0.399061(9)
Cd1N Cd 0.224052(9) 0.600939(9) -0.440133(9)
O1G O -0.16250(10) 0.70255(11) -0.35657(10)
O1J O 0.35657(10) 0.33750(10) -0.20255(11)
O1L O -0.20255(11) 0.14343(10) -0.16250(10)
O1S O 0.16250(10) 0.29745(11) 0.35657(10)
O1V O -0.35657(10) 0.66250(10) 0.20255(11)
H1G H -0.1970 0.7041 -0.3772
H1J H 0.3772 0.3030 -0.2041
H1L H -0.2041 0.1228 -0.1970
H1S H 0.1970 0.2959 0.3772
H1V H -0.3772 0.6970 0.2041
H2G H -0.1682 0.6860 -0.3201
H2J H 0.3201 0.3318 -0.1860
H2L H -0.1860 0.1799 -0.1682
H2S H 0.1682 0.3140 0.3201
H2V H -0.3201 0.6682 0.1860
O2G O -0.07454(12) 0.63410(11) -0.46902(12)
O2J O 0.46902(12) 0.42546(12) -0.13410(11)
O2L O -0.13410(11) 0.03098(12) -0.07454(12)
O2S O 0.07454(12) 0.36590(11) 0.46902(12)
O2V O -0.46902(12) 0.57454(12) 0.13410(11)
H3G H -0.0495 0.6031 -0.4751
H3J H 0.4751 0.4505 -0.1031
H3L H -0.1031 0.0249 -0.0495
H3S H 0.0495 0.3969 0.4751
H3V H -0.4751 0.5495 0.1031
H4G H -0.1105 0.6280 -0.4857
H4J H 0.4857 0.3895 -0.1280
H4L H -0.1280 0.0143 -0.1105
H4S H 0.1105 0.3720 0.4857
H4V H -0.4857 0.6105 0.1280
N1G N -0.06551(12) 0.54592(12) -0.27560(11)
N1J N 0.27560(11) 0.43449(12) -0.04592(12)
N1L N -0.04592(12) 0.22440(11) -0.06551(12)
N1S N 0.06551(12) 0.45408(12) 0.27560(11)
N1V N -0.27560(11) 0.56551(12) 0.04592(12)
N1T N 0.22440(11) 0.93449(12) -0.04592(12)
N1N N 0.04592(12) 0.72440(11) -0.43449(12)
N1Q N 0.43449(12) 0.54592(12) -0.22440(11)
N1H N -0.22440(11) 0.06551(12) 0.04592(12)
N1B N -0.04592(12) 0.27560(11) 0.43449(12)
N1E N -0.43449(12) 0.45408(12) 0.22440(11)
N2G N -0.03629(12) 0.63996(11) -0.32360(12)
N2J N 0.32360(12) 0.46371(12) -0.13996(11)
N2L N -0.13996(11) 0.17640(12) -0.03629(12)
N2S N 0.03629(12) 0.36004(11) 0.32360(12)
N2V N -0.32360(12) 0.53629(12) 0.13996(11)
N3Q N 0.38796(12) 0.77563(12) -0.01285(11)
N3G N -0.11204(12) 0.77563(12) -0.48715(11)
N3T N 0.01285(11) 0.88796(12) -0.27563(12)
N3J N 0.48715(11) 0.38796(12) -0.27563(12)
N3N N 0.27563(12) 0.51285(11) -0.38796(12)
N3L N -0.27563(12) 0.01285(11) -0.11204(12)
N3S N 0.11204(12) 0.22437(12) 0.48715(11)
N3V N -0.48715(11) 0.61204(12) 0.27563(12)
N4Q N 0.31365(11) 0.83345(12) 0.04420(11)
N4G N -0.18635(11) 0.83345(12) -0.54420(11)
N4T N -0.04420(11) 0.81365(11) -0.33345(12)
N4J N 0.54420(11) 0.31365(11) -0.33345(12)
N4N N 0.33345(12) 0.45580(11) -0.31365(11)
N4E N -0.31365(11) 0.16655(12) -0.04420(11)
N4H N 0.04420(11) 0.18635(11) 0.33345(12)
N4B N -0.33345(12) 0.54420(11) 0.31365(11)
N5G N 0.0057(3) 0.5278(2) -0.1274(2)
N5J N 0.1274(2) 0.5057(3) -0.0278(2)
N5L N -0.0278(2) 0.3726(2) 0.0057(3)
N5S N -0.0057(3) 0.4722(2) 0.1274(2)
N5V N -0.1274(2) 0.4943(3) 0.0278(2)
N6G N 0.0769(2) 0.71919(17) -0.2263(2)
N6J N 0.2263(2) 0.5769(2) -0.21919(17)
N6L N -0.21919(17) 0.2737(2) 0.0769(2)
N6S N -0.0769(2) 0.28081(17) 0.2263(2)
N6V N -0.2263(2) 0.4231(2) 0.21919(17)
N7Q N 0.4889(2) 0.6995(2) 0.10359(18)
N7G N -0.0111(2) 0.6995(2) -0.60359(18)
N7T N -0.10359(18) 0.9889(2) -0.1995(2)
N7J N 0.60359(18) 0.4889(2) -0.1995(2)
N7N N 0.1995(2) 0.39641(18) -0.4889(2)
N8Q N 0.34676(16) 0.80744(18) 0.21103(14)
N8G N -0.15324(16) 0.80744(18) -0.71103(14)
N8T N -0.21103(14) 0.84676(16) -0.30744(18)
N8J N 0.71103(14) 0.34676(16) -0.30744(18)
N8N N 0.30744(18) 0.28897(14) -0.34676(16)
C1G C -0.07128(15) 0.58518(14) -0.32670(15)
C1J C 0.32670(15) 0.42872(15) -0.08518(14)
C1L C -0.08518(14) 0.17330(15) -0.07128(15)
C1S C 0.07128(15) 0.41482(14) 0.32670(15)
C1V C -0.32670(15) 0.57128(15) 0.08518(14)
H5G H -0.0977 0.5753 -0.3619
H5J H 0.3619 0.4023 -0.0753
H5L H -0.0753 0.1381 -0.0977
H5S H 0.0977 0.4247 0.3619
H5V H -0.3619 0.5977 0.0753
C2G C -0.00509(14) 0.63488(14) -0.26582(14)
C2J C 0.26582(14) 0.49491(14) -0.13488(14)
C2L C -0.13488(14) 0.23418(14) -0.00509(14)
C2S C 0.00509(14) 0.36512(14) 0.26582(14)
C2V C -0.26582(14) 0.50509(14) 0.13488(14)
C3G C -0.02310(16) 0.57773(15) -0.23654(15)
C3J C 0.23654(15) 0.47690(16) -0.07773(15)
C3L C -0.07773(15) 0.26346(15) -0.02310(16)
C3S C 0.02310(16) 0.42227(15) 0.23654(15)
C3V C -0.23654(15) 0.52310(16) 0.07773(15)
C4G C -0.0057(3) 0.5512(2) -0.1753(2)
C4J C 0.1753(2) 0.4943(3) -0.0512(2)
C4L C -0.0512(2) 0.3247(2) -0.0057(3)
C4S C 0.0057(3) 0.4488(2) 0.1753(2)
C4V C -0.1753(2) 0.5057(3) 0.0512(2)
C5G C 0.04026(18) 0.68193(16) -0.24352(18)
C5J C 0.24352(18) 0.54026(18) -0.18193(16)
C5L C -0.18193(16) 0.25648(18) 0.04026(18)
C5S C -0.04026(18) 0.31807(16) 0.24352(18)
C5V C -0.24352(18) 0.45974(18) 0.18193(16)
C6Q C 0.33715(14) 0.81601(14) -0.01405(14)
C6G C -0.16285(14) 0.81601(14) -0.48595(14)
C6T C 0.01405(14) 0.83715(14) -0.31601(14)
C6J C 0.48595(14) 0.33715(14) -0.31601(14)
C6N C 0.31601(14) 0.51405(14) -0.33715(14)
H6Q H 0.3193 0.8310 -0.0527
H6G H -0.1807 0.8310 -0.4473
H6T H 0.0527 0.8193 -0.3310
H6J H 0.4473 0.3193 -0.3310
H6N H 0.3310 0.5527 -0.3193
C7Q C 0.39860(15) 0.76663(15) 0.05229(14)
C7G C -0.10140(15) 0.76663(15) -0.55229(14)
C7T C -0.05229(14) 0.89860(15) -0.26663(15)
C7J C 0.55229(14) 0.39860(15) -0.26663(15)
C7N C 0.26663(15) 0.44771(14) -0.39860(15)
C8Q C 0.35337(14) 0.80167(15) 0.08683(14)
C8G C -0.14663(14) 0.80167(15) -0.58683(14)
C8T C -0.08683(14) 0.85337(14) -0.30167(15)
C8J C 0.58683(14) 0.35337(14) -0.30167(15)
C8N C 0.30167(15) 0.41317(14) -0.35337(14)
C9Q C 0.44944(19) 0.72884(18) 0.07928(17)
C9G C -0.05056(19) 0.72884(18) -0.57928(17)
C9T C -0.07928(17) 0.94944(19) -0.22884(18)
C9J C 0.57928(17) 0.44944(19) -0.22884(18)
C9N C 0.22884(18) 0.42072(17) -0.44944(19)
C10Q C 0.34837(16) 0.80546(16) 0.15602(15)
C10G C -0.15163(16) 0.80546(16) -0.65602(15)
C10T C -0.15602(15) 0.84837(16) -0.30546(16)
C10J C 0.65602(15) 0.34837(16) -0.30546(16)
C10N C 0.30546(16) 0.34398(15) -0.34837(16)
Cl1 Cl 0.5000 0.5000 0.0000
loop_
_geom_bond_atom_site_label_1
_geom_bond_atom_site_label_2
_geom_bond_site_symmetry_1
_geom_bond_site_symmetry_2
Cd1 O1 1_555 1_555
K1 N5 1_555 1_555
O1 H1 1_555 1_555
H2 O1 1_555 1_555
O2 Cd1 1_555 1_555
H3 O2 1_555 1_555
H4 O2 1_555 1_555
N1 C1 1_555 1_555
N2 Cd1 1_555 1_555
N3 Cd1 1_555 1_555
N4 C6 1_555 1_555
N5 C4 1_555 1_555
N6 C5 1_555 1_555
N7 C9 1_555 1_555
N8 C10 1_555 1_555
C1 N2 1_555 1_555
H5 C1 1_555 1_555
C2 N2 1_555 1_555
C3 N1 1_555 1_555
C4 C3 1_555 1_555
C5 C2 1_555 1_555
C6 N3 1_555 1_555
H6 C6 1_555 1_555
C7 N3 1_555 1_555
C8 N4 1_555 1_555
C9 C7 1_555 1_555
C10 C8 1_555 1_555
Cd1G O1G 1_555 1_555
Cd1J O1J 1_555 1_555
Cd1L O1L 1_555 1_555
Cd1S O1S 1_555 1_555
Cd1V O1V 1_555 1_555
Cd1P N1 1_555 1_555
Cd1W N4 1_555 1_555
Cd1U N1G 1_555 1_555
Cd1O N1J 1_555 1_555
Cd1D N1L 1_555 1_555
Cd1I N1S 1_555 1_555
Cd1C N1V 1_555 1_555
Cd1Q N3Q 1_555 1_555
Cd1M N4G 1_555 1_555
Cd1T N3T 1_555 1_555
Cd1R N4J 1_555 1_555
Cd1N N3N 1_555 1_555
O1G H1G 1_555 1_555
O1J H1J 1_555 1_555
O1L H1L 1_555 1_555
O1S H1S 1_555 1_555
O1V H1V 1_555 1_555
H2G O1G 1_555 1_555
H2J O1J 1_555 1_555
H2L O1L 1_555 1_555
H2S O1S 1_555 1_555
H2V O1V 1_555 1_555
O2G Cd1G 1_555 1_555
O2J Cd1J 1_555 1_555
O2L Cd1L 1_555 1_555
O2S Cd1S 1_555 1_555
O2V Cd1V 1_555 1_555
H3G O2G 1_555 1_555
H3J O2J 1_555 1_555
H3L O2L 1_555 1_555
H3S O2S 1_555 1_555
H3V O2V 1_555 1_555
H4G O2G 1_555 1_555
H4J O2J 1_555 1_555
H4L O2L 1_555 1_555
H4S O2S 1_555 1_555
H4V O2V 1_555 1_555
N1G C1G 1_555 1_555
N1J C1J 1_555 1_555
N1L C1L 1_555 1_555
N1S C1S 1_555 1_555
N1V C1V 1_555 1_555
N1T Cd1 1_555 1_555
N1N Cd1G 1_555 1_555
N1Q Cd1J 1_555 1_555
N1H Cd1L 1_555 1_555
N1B Cd1S 1_555 1_555
N1E Cd1V 1_555 1_555
N2G Cd1G 1_555 1_555
N2J Cd1J 1_555 1_555
N2L Cd1L 1_555 1_555
N2S Cd1S 1_555 1_555
N2V Cd1V 1_555 1_555
N3Q C6Q 1_555 1_555
N3G Cd1G 1_555 1_555
N3T C6T 1_555 1_555
N3J Cd1J 1_555 1_555
N3N C6N 1_555 1_555
N3L Cd1L 1_555 1_555
N3S Cd1S 1_555 1_555
N3V Cd1V 1_555 1_555
N4Q Cd1 1_555 1_555
N4G C6G 1_555 1_555
N4T Cd1G 1_555 1_555
N4J C6J 1_555 1_555
N4N Cd1J 1_555 1_555
N4E Cd1L 1_555 1_555
N4H Cd1S 1_555 1_555
N4B Cd1V 1_555 1_555
N5G K1 1_555 1_555
N5J K1 1_555 1_555
N5L K1 1_555 1_555
N5S K1 1_555 1_555
N5V K1 1_555 1_555
N6G C5G 1_555 1_555
N6J C5J 1_555 1_555
N6L C5L 1_555 1_555
N6S C5S 1_555 1_555
N6V C5V 1_555 1_555
N7Q C9Q 1_555 1_555
N7G C9G 1_555 1_555
N7T C9T 1_555 1_555
N7J C9J 1_555 1_555
N7N C9N 1_555 1_555
N8Q C10Q 1_555 1_555
N8G C10G 1_555 1_555
N8T C10T 1_555 1_555
N8J C10J 1_555 1_555
N8N C10N 1_555 1_555
C1G N2G 1_555 1_555
C1J N2J 1_555 1_555
C1L N2L 1_555 1_555
C1S N2S 1_555 1_555
C1V N2V 1_555 1_555
H5G C1G 1_555 1_555
H5J C1J 1_555 1_555
H5L C1L 1_555 1_555
H5S C1S 1_555 1_555
H5V C1V 1_555 1_555
C2G N2G 1_555 1_555
C2J N2J 1_555 1_555
C2L N2L 1_555 1_555
C2S N2S 1_555 1_555
C2V N2V 1_555 1_555
C3G N1G 1_555 1_555
C3J N1J 1_555 1_555
C3L N1L 1_555 1_555
C3S N1S 1_555 1_555
C3V N1V 1_555 1_555
C4G N5G 1_555 1_555
C4J N5J 1_555 1_555
C4L N5L 1_555 1_555
C4S N5S 1_555 1_555
C4V N5V 1_555 1_555
C5G C2G 1_555 1_555
C5J C2J 1_555 1_555
C5L C2L 1_555 1_555
C5S C2S 1_555 1_555
C5V C2V 1_555 1_555
C6Q N4Q 1_555 1_555
C6G N3G 1_555 1_555
C6T N4T 1_555 1_555
C6J N3J 1_555 1_555
C6N N4N 1_555 1_555
H6Q C6Q 1_555 1_555
H6G C6G 1_555 1_555
H6T C6T 1_555 1_555
H6J C6J 1_555 1_555
H6N C6N 1_555 1_555
C7Q N3Q 1_555 1_555
C7G N3G 1_555 1_555
C7T N3T 1_555 1_555
C7J N3J 1_555 1_555
C7N N3N 1_555 1_555
C8Q N4Q 1_555 1_555
C8G N4G 1_555 1_555
C8T N4T 1_555 1_555
C8J N4J 1_555 1_555
C8N N4N 1_555 1_555
C9Q C7Q 1_555 1_555
C9G C7G 1_555 1_555
C9T C7T 1_555 1_555
C9J C7J 1_555 1_555
C9N C7N 1_555 1_555
C10Q C8Q 1_555 1_555
C10G C8G 1_555 1_555
C10T C8T 1_555 1_555
C10J C8J 1_555 1_555
C10N C8N 1_555 1_555
C2 C3 1_555 1_555
C7 C8 1_555 1_555
C2G C3G 1_555 1_555
C2J C3J 1_555 1_555
C2L C3L 1_555 1_555
C2S C3S 1_555 1_555
C2V C3V 1_555 1_555
C3G C4G 1_555 1_555
C3J C4J 1_555 1_555
C3L C4L 1_555 1_555
C3S C4S 1_555 1_555
C3V C4V 1_555 1_555
C7Q C8Q 1_555 1_555
C7G C8G 1_555 1_555
C7T C8T 1_555 1_555
C7J C8J 1_555 1_555
C7N C8N 1_555 1_555

#END
