
#######################################################################
#
#                 Cambridge Crystallographic Data Centre
#                                CCDC 
#
#######################################################################
#
# If this CIF has been generated from an entry in the Cambridge 
# Structural Database, then it will include bibliographic, chemical, 
# crystal, experimental, refinement or atomic coordinate data resulting 
# from the CCDC's data processing and validation procedures.
#
#######################################################################

data_OPUCUY
_symmetry_cell_setting           monoclinic
_symmetry_space_group_name_H-M   'C c'
_symmetry_Int_Tables_number      9
_space_group_name_Hall           'C -2yc'
loop_
_symmetry_equiv_pos_site_id
_symmetry_equiv_pos_as_xyz
1 x,y,z
2 x,-y,1/2+z
3 1/2+x,1/2+y,z
4 1/2+x,1/2-y,1/2+z
_cell_length_a                   21.922(12)
_cell_length_b                   33.730(8)
_cell_length_c                   14.948(9)
_cell_angle_alpha                90
_cell_angle_beta                 130.512(3)
_cell_angle_gamma                90
_cell_volume                     8403.25
loop_
_atom_site_label
_atom_site_type_symbol
_atom_site_fract_x
_atom_site_fract_y
_atom_site_fract_z
Eu1 Eu 0.65592(2) 0.257356(8) 1.00111(3)
Eu2 Eu 0.58808(2) 0.245254(9) 0.58888(3)
Eu3 Eu 0.60041(2) 0.246130(8) 1.29368(3)
Ag1 Ag 0.49135(6) 0.005623(19) 0.78504(9)
Ag2 Ag 0.69063(5) 0.000960(18) 1.09806(8)
Ag3 Ag 0.59824(7) 0.499356(19) 0.74488(11)
Ag4 Ag 0.80755(5) 0.513110(19) 1.10532(9)
Ag5 Ag 0.38228(5) 0.48560(2) 0.29024(9)
O1 O 0.5995(4) 0.20817(16) 0.8528(5)
O2 O 0.5905(5) 0.19326(17) 0.6988(6)
O3 O 0.6885(5) 0.20854(17) 0.6082(7)
O4 O 0.6774(4) 0.19926(16) 0.4508(5)
O5 O 0.5217(5) 0.19476(16) 0.4399(6)
O6 O 0.5058(4) 0.20436(14) 0.2797(5)
O7 O 0.6069(4) 0.19022(17) 1.2004(5)
O8 O 0.6491(4) 0.20848(14) 1.1042(5)
O9 O 0.7434(4) 0.30518(16) 1.0175(6)
O10 O 0.7726(6) 0.3184(2) 0.9042(8)
O11 O 0.5714(4) 0.29514(15) 0.8285(5)
O12 O 0.5616(4) 0.29335(16) 0.6696(5)
O13 O 0.6688(4) 0.29836(17) 0.6014(6)
O14 O 0.6756(4) 0.28761(16) 0.4617(5)
O15 O 0.5051(4) 0.28371(17) 0.4154(5)
O16 O 0.5088(4) 0.29507(16) 0.2726(5)
O17 O 0.6156(5) 0.29349(16) 1.1962(6)
O18 O 0.6346(4) 0.31271(15) 1.0755(5)
O19 O 0.3827(8) 0.6838(2) 0.4583(8)
O20 O 0.3834(5) 0.69723(18) 0.3118(7)
O21 O 0.7768(5) 0.26059(17) 1.2146(6)
H1 H 0.7984 0.2378 1.2326
H2 H 0.8087 0.2797 1.2348
O22 O 0.7626(5) 0.2166(2) 1.0361(9)
H3 H 0.7942 0.2329 1.0410
H4 H 0.7913 0.1958 1.0597
O23 O 0.5144(4) 0.25148(17) 0.9198(6)
H5 H 0.5060 0.2505 0.9679
H6 H 0.4763 0.2422 0.8520
O24 O 0.7117(5) 0.25065(18) 0.7920(7)
H7 H 0.7143 0.2273 0.7736
H8 H 0.7440 0.2619 0.8587
O25 O 0.4468(5) 0.2364(2) 0.5114(6)
H9 H 0.4103 0.2476 0.5071
H10 H 0.4193 0.2323 0.4382
O26 O 0.7418(5) 0.24411(18) 1.3755(6)
H11 H 0.7275 0.2485 1.3083
H12 H 0.7782 0.2282 1.3930
O27 O 0.4751(5) 0.24780(16) 1.0833(5)
H13 H 0.4523 0.2699 1.0513
H14 H 0.4596 0.2268 1.0421
N1 N 0.5153(4) 0.06645(18) 0.7769(7)
N2 N 0.6995(5) 0.06110(18) 0.5840(6)
N3 N 0.4876(5) 0.05757(19) 0.2978(7)
N4 N 0.6697(5) 0.06122(18) 1.1118(6)
N5 N 0.8088(5) 0.45034(19) 1.0807(7)
N6 N 0.5969(6) 0.43674(19) 0.7617(8)
N7 N 0.7886(5) 0.42392(17) 0.6027(7)
N8 N 0.3967(5) 0.4215(2) 0.2845(8)
N9 N 0.6021(6) 0.4403(2) 1.2092(9)
N10 N 0.3817(5) 0.5488(2) 0.3166(8)
C1 C 0.5003(5) 0.0967(2) 0.8191(7)
H23 H 0.4762 0.0914 0.8510
C2 C 0.5196(5) 0.1356(2) 0.8164(7)
H24 H 0.5077 0.1559 0.8450
C3 C 0.5566(5) 0.14417(19) 0.7714(6)
C4 C 0.5710(6) 0.1133(2) 0.7269(9)
H25 H 0.5939 0.1182 0.6932
C5 C 0.5510(7) 0.0749(2) 0.7327(11)
H26 H 0.5629 0.0542 0.7050
C6 C 0.5834(5) 0.18538(19) 0.7740(7)
C7 C 0.7071(6) 0.0855(2) 0.6608(8)
H27 H 0.7124 0.0744 0.7225
C8 C 0.7075(5) 0.1268(2) 0.6539(7)
H28 H 0.7122 0.1428 0.7086
C9 C 0.7007(5) 0.1432(2) 0.5619(7)
C10 C 0.6968(6) 0.1177(2) 0.4858(8)
H29 H 0.6936 0.1278 0.4250
C11 C 0.6977(6) 0.0770(2) 0.5005(8)
H30 H 0.6971 0.0603 0.4504
C12 C 0.6880(5) 0.1870(2) 0.5373(7)
C13 C 0.4952(6) 0.0739(2) 0.3863(8)
H31 H 0.4997 0.0571 0.4398
C14 C 0.4968(6) 0.1145(2) 0.4021(8)
H32 H 0.4999 0.1247 0.4627
C15 C 0.4937(4) 0.13923(19) 0.3261(6)
C16 C 0.4836(5) 0.1227(2) 0.2314(7)
H33 H 0.4789 0.1388 0.1768
C17 C 0.4806(5) 0.0824(2) 0.2204(8)
H34 H 0.4734 0.0715 0.1569
C18 C 0.5058(5) 0.1840(2) 0.3479(7)
C19 C 0.6360(7) 0.0714(2) 1.1580(10)
H35 H 0.6201 0.0514 1.1818
C20 C 0.6239(6) 0.1101(2) 1.1717(8)
H36 H 0.5999 0.1158 1.2035
C21 C 0.6476(4) 0.14086(19) 1.1380(6)
C22 C 0.6822(5) 0.1301(2) 1.0901(7)
H37 H 0.6972 0.1495 1.0634
C23 C 0.6944(6) 0.0905(2) 1.0821(8)
H38 H 0.7211 0.0840 1.0548
C24 C 0.6342(5) 0.1829(2) 1.1488(7)
C25 C 0.7952(6) 0.4236(3) 1.1316(9)
H39 H 0.7940 0.4322 1.1896
C26 C 0.7829(6) 0.3842(2) 1.1035(8)
H40 H 0.7726 0.3670 1.1410
C27 C 0.7856(5) 0.3698(2) 1.0196(8)
C28 C 0.8040(7) 0.3977(3) 0.9733(9)
H41 H 0.8096 0.3899 0.9192
C29 C 0.8143(7) 0.4370(3) 1.0057(10)
H42 H 0.8260 0.4549 0.9713
C30 C 0.7679(5) 0.3272(2) 0.9787(7)
C31 C 0.5812(6) 0.4191(2) 0.8234(9)
H43 H 0.5749 0.4348 0.8681
C32 C 0.5736(6) 0.3783(2) 0.8251(7)
H44 H 0.5648 0.3669 0.8724
C33 C 0.5796(4) 0.3551(2) 0.7541(6)
C34 C 0.5974(7) 0.3734(2) 0.6910(8)
H45 H 0.6023 0.3587 0.6434
C35 C 0.6076(8) 0.4136(3) 0.6996(10)
H46 H 0.6228 0.4256 0.6605
C36 C 0.5708(5) 0.3109(2) 0.7509(7)
C37 C 0.7756(7) 0.4088(3) 0.6708(10)
H47 H 0.7885 0.4241 0.7328
C38 C 0.7444(6) 0.3722(2) 0.6553(8)
H48 H 0.7329 0.3639 0.7022
C39 C 0.7298(5) 0.3473(2) 0.5696(7)
C40 C 0.7483(6) 0.3614(2) 0.5034(8)
H49 H 0.7410 0.3455 0.4463
C41 C 0.7781(5) 0.3997(2) 0.5229(8)
H50 H 0.7912 0.4088 0.4786
C42 C 0.6884(5) 0.3076(2) 0.5421(7)
C43 C 0.4209(7) 0.3995(3) 0.3766(10)
H51 H 0.4192 0.4104 0.4321
C44 C 0.4485(6) 0.3612(3) 0.3925(9)
H52 H 0.4642 0.3464 0.4570
C45 C 0.4524(5) 0.3449(2) 0.3102(7)
C46 C 0.4236(5) 0.3670(2) 0.2132(7)
H53 H 0.4216 0.3564 0.1540
C47 C 0.3973(5) 0.4053(2) 0.2039(9)
H54 H 0.3794 0.4203 0.1387
C48 C 0.4924(5) 0.3043(2) 0.3338(7)
C49 C 0.5820(7) 0.4104(2) 1.2458(10)
H55 H 0.5668 0.4163 1.2897
C50 C 0.5833(6) 0.3715(2) 1.2202(8)
H56 H 0.5669 0.3516 1.2437
C51 C 0.6086(5) 0.3620(2) 1.1607(7)
C52 C 0.6279(7) 0.3925(2) 1.1199(9)
H57 H 0.6434 0.3869 1.0763
C53 C 0.6235(9) 0.4307(2) 1.1451(13)
H58 H 0.6358 0.4510 1.1171
C54 C 0.6211(5) 0.3188(2) 1.1433(7)
C55 C 0.3708(9) 0.5619(2) 0.3894(10)
H59 H 0.3617 0.5435 0.4259
C56 C 0.3725(8) 0.6034(3) 0.4142(9)
H60 H 0.3649 0.6118 0.4657
C57 C 0.3856(6) 0.6297(3) 0.3592(8)
C58 C 0.3946(6) 0.6170(3) 0.2800(10)
H61 H 0.4015 0.6349 0.2399
C59 C 0.3930(7) 0.5757(3) 0.2628(11)
H62 H 0.4001 0.5667 0.2113
C60 C 0.3851(8) 0.6744(3) 0.3823(9)
Eu3_2 Eu 0.60041(2) 0.246130(8) 0.29368(3)
Ag1A Ag 0.49135(6) -0.005623(19) 0.28504(9)
Ag2A Ag 0.69063(5) -0.000960(18) 0.59806(8)
Ag3A Ag 0.59824(7) 0.500644(19) 1.24488(11)
Ag4A Ag 0.80755(5) 0.486890(19) 0.60532(9)
O4_2 O 0.6774(4) 0.19926(16) 1.4508(5)
O6_2 O 0.5058(4) 0.20436(14) 1.2797(5)
O14_2 O 0.6756(4) 0.28761(16) 1.4617(5)
O16_2 O 0.5088(4) 0.29507(16) 1.2726(5)
N2A N 0.6995(5) -0.06110(18) 1.0840(6)
N3A N 0.4876(5) -0.05757(19) 0.7978(7)
N7A N 0.7886(5) 0.57608(17) 1.1027(7)
N9A N 0.6021(6) 0.5597(2) 0.7092(9)
Cl1 Cl 0.37818(17) 0.15606(7) -0.0922(2)
O28 O 0.3770(5) 0.1814(2) -0.0189(8)
O29 O 0.3896(6) 0.1780(3) -0.1622(9)
O30 O 0.4380(8) 0.1269(3) -0.0272(9)
O31 O 0.3046(6) 0.1365(4) -0.1649(8)
Cl2 Cl 0.5813(2) 0.52201(9) 0.9580(3)
O32 O 0.5270(6) 0.5113(3) 0.8368(8)
O33 O 0.5438(5) 0.5142(2) 1.0032(7)
O34 O 0.6531(7) 0.5006(3) 1.0154(13)
O35 O 0.5984(8) 0.5654(2) 0.9678(10)
Cl3 Cl 0.7804(3) 0.02356(10) 0.9464(3)
O36 O 0.7644(12) 0.0120(3) 0.8479(11)
O37 O 0.8278(11) 0.0011(4) 1.0459(11)
O38 O 0.6943(10) 0.0137(5) 0.909(2)
O39 O 0.7807(12) 0.0650(3) 0.9588(13)
Cl4 Cl 0.9074(2) 0.51299(7) 0.9399(3)
O40 O 0.8655(8) 0.4821(4) 0.8589(11)
O41 O 0.8530(9) 0.5339(4) 0.9438(15)
O42 O 0.9390(9) 0.5356(4) 0.9040(13)
O43 O 0.9621(11) 0.5003(4) 1.0470(10)
O44 O 0.4144(6) 0.7631(4) 0.1601(9)
H15 H 0.4344 0.7788 0.2175
H16 H 0.4195 0.7652 0.1086
O45 O 0.7914(15) 0.1515(4) 0.9580(16)
H17 H 0.8196 0.1706 0.9649
H18 H 0.8293 0.1349 0.9871
O46 O 0.3380(9) 0.2893(5) 0.3499(16)
H19 H 0.3361 0.2699 0.3117
H20 H 0.3069 0.3046 0.2913
O47 O 0.8461(10) 0.2543(4) 0.6515(16)
H21 H 0.8579 0.2550 0.6075
H22 H 0.8230 0.2318 0.6322
loop_
_geom_bond_atom_site_label_1
_geom_bond_atom_site_label_2
_geom_bond_site_symmetry_1
_geom_bond_site_symmetry_2
Eu1 O1 1_555 1_555
Eu2 O2 1_555 1_555
Eu3 O7 1_555 1_555
Ag1 N1 1_555 1_555
Ag2 N4 1_555 1_555
Ag3 N6 1_555 1_555
Ag4 N5 1_555 1_555
Ag5 N8 1_555 1_555
Cl1 O28 1_555 1_555
Cl2 O32 1_555 1_555
Cl3 O36 1_555 1_555
Cl4 O40 1_555 1_555
O1 C6 1_555 1_555
O2 C6 1_555 1_555
O3 Eu2 1_555 1_555
O4 C12 1_555 1_555
O5 Eu2 1_555 1_555
O6 C18 1_555 1_555
O7 C24 1_555 1_555
O8 Eu1 1_555 1_555
O9 Eu1 1_555 1_555
O10 C30 1_555 1_555
O11 Eu1 1_555 1_555
O12 Eu2 1_555 1_555
O13 Eu2 1_555 1_555
O14 C42 1_555 1_555
O15 Eu2 1_555 1_555
O16 C48 1_555 1_555
O17 Eu3 1_555 1_555
O18 Eu1 1_555 1_555
O19 C60 1_555 1_555
O20 C60 1_555 1_555
O21 Eu1 1_555 1_555
H1 O21 1_555 1_555
H2 O21 1_555 1_555
O22 Eu1 1_555 1_555
H3 O22 1_555 1_555
H4 O22 1_555 1_555
O23 Eu1 1_555 1_555
H5 O23 1_555 1_555
H6 O23 1_555 1_555
O24 Eu2 1_555 1_555
H7 O24 1_555 1_555
H8 O24 1_555 1_555
O25 Eu2 1_555 1_555
H9 O25 1_555 1_555
H10 O25 1_555 1_555
O26 Eu3 1_555 1_555
H11 O26 1_555 1_555
H12 O26 1_555 1_555
O27 Eu3 1_555 1_555
H13 O27 1_555 1_555
H14 O27 1_555 1_555
O29 Cl1 1_555 1_555
O30 Cl1 1_555 1_555
O31 Cl1 1_555 1_555
O33 Cl2 1_555 1_555
O34 Cl2 1_555 1_555
O35 Cl2 1_555 1_555
O37 Cl3 1_555 1_555
O38 Cl3 1_555 1_555
O39 Cl3 1_555 1_555
O41 Cl4 1_555 1_555
O42 Cl4 1_555 1_555
O43 Cl4 1_555 1_555
O44 H15 1_555 1_555
H16 O44 1_555 1_555
O45 H17 1_555 1_555
H18 O45 1_555 1_555
O46 H19 1_555 1_555
H20 O46 1_555 1_555
O47 H21 1_555 1_555
H22 O47 1_555 1_555
N1 C1 1_555 1_555
N2 C7 1_555 1_555
N3 C13 1_555 1_555
N4 C19 1_555 1_555
N5 C25 1_555 1_555
N6 C31 1_555 1_555
N7 C37 1_555 1_555
N8 C43 1_555 1_555
N9 C49 1_555 1_555
N10 Ag5 1_555 1_555
C1 H23 1_555 1_555
C2 C1 1_555 1_555
H24 C2 1_555 1_555
C3 C2 1_555 1_555
C4 C3 1_555 1_555
H25 C4 1_555 1_555
C5 N1 1_555 1_555
H26 C5 1_555 1_555
C6 C3 1_555 1_555
C7 H27 1_555 1_555
C8 C7 1_555 1_555
H28 C8 1_555 1_555
C9 C8 1_555 1_555
C10 C9 1_555 1_555
H29 C10 1_555 1_555
C11 N2 1_555 1_555
H30 C11 1_555 1_555
C12 O3 1_555 1_555
C13 H31 1_555 1_555
C14 C13 1_555 1_555
H32 C14 1_555 1_555
C15 C14 1_555 1_555
C16 C15 1_555 1_555
H33 C16 1_555 1_555
C17 N3 1_555 1_555
H34 C17 1_555 1_555
C18 O5 1_555 1_555
C19 H35 1_555 1_555
C20 C19 1_555 1_555
H36 C20 1_555 1_555
C21 C20 1_555 1_555
C22 C21 1_555 1_555
H37 C22 1_555 1_555
C23 N4 1_555 1_555
H38 C23 1_555 1_555
C24 O8 1_555 1_555
C25 H39 1_555 1_555
C26 C25 1_555 1_555
H40 C26 1_555 1_555
C27 C26 1_555 1_555
C28 C27 1_555 1_555
H41 C28 1_555 1_555
C29 N5 1_555 1_555
H42 C29 1_555 1_555
C30 O9 1_555 1_555
C31 H43 1_555 1_555
C32 C31 1_555 1_555
H44 C32 1_555 1_555
C33 C32 1_555 1_555
C34 C33 1_555 1_555
H45 C34 1_555 1_555
C35 N6 1_555 1_555
H46 C35 1_555 1_555
C36 O11 1_555 1_555
C37 H47 1_555 1_555
C38 C37 1_555 1_555
H48 C38 1_555 1_555
C39 C38 1_555 1_555
C40 C39 1_555 1_555
H49 C40 1_555 1_555
C41 N7 1_555 1_555
H50 C41 1_555 1_555
C42 O13 1_555 1_555
C43 H51 1_555 1_555
C44 C43 1_555 1_555
H52 C44 1_555 1_555
C45 C44 1_555 1_555
C46 C45 1_555 1_555
H53 C46 1_555 1_555
C47 N8 1_555 1_555
H54 C47 1_555 1_555
C48 O15 1_555 1_555
C49 H55 1_555 1_555
C50 C49 1_555 1_555
H56 C50 1_555 1_555
C51 C50 1_555 1_555
C52 C51 1_555 1_555
H57 C52 1_555 1_555
C53 N9 1_555 1_555
H58 C53 1_555 1_555
C54 O17 1_555 1_555
C55 N10 1_555 1_555
H59 C55 1_555 1_555
C56 C55 1_555 1_555
H60 C56 1_555 1_555
C57 C56 1_555 1_555
C58 C57 1_555 1_555
H61 C58 1_555 1_555
C59 N10 1_555 1_555
H62 C59 1_555 1_555
C60 C57 1_555 1_555
Eu3_2 O4 1_555 1_555
Ag1A N3 1_555 1_555
Ag2A N2 1_555 1_555
Ag3A N9 1_555 1_555
Ag4A N7 1_555 1_555
O4_2 Eu3 1_555 1_555
O6_2 Eu3 1_555 1_555
O14_2 Eu3 1_555 1_555
O16_2 Eu3 1_555 1_555
N2A Ag2 1_555 1_555
N3A Ag1 1_555 1_555
N7A Ag4 1_555 1_555
N9A Ag3 1_555 1_555
O6 Eu3_2 1_555 1_555
O12 C36 1_555 1_555
O14 Eu3_2 1_555 1_555
O16 Eu3_2 1_555 1_555
O18 C54 1_555 1_555
C4 C5 1_555 1_555
C9 C12 1_555 1_555
C10 C11 1_555 1_555
C15 C18 1_555 1_555
C16 C17 1_555 1_555
C21 C24 1_555 1_555
C22 C23 1_555 1_555
C27 C30 1_555 1_555
C28 C29 1_555 1_555
C33 C36 1_555 1_555
C34 C35 1_555 1_555
C39 C42 1_555 1_555
C40 C41 1_555 1_555
C45 C48 1_555 1_555
C46 C47 1_555 1_555
C51 C54 1_555 1_555
C52 C53 1_555 1_555
C58 C59 1_555 1_555

#END
