
#######################################################################
#
#                 Cambridge Crystallographic Data Centre
#                                CCDC 
#
#######################################################################
#
# If this CIF has been generated from an entry in the Cambridge 
# Structural Database, then it will include bibliographic, chemical, 
# crystal, experimental, refinement or atomic coordinate data resulting 
# from the CCDC's data processing and validation procedures.
#
#######################################################################

data_OPUDAF
_symmetry_cell_setting           monoclinic
_symmetry_space_group_name_H-M   'C c'
_symmetry_Int_Tables_number      9
_space_group_name_Hall           'C -2yc'
loop_
_symmetry_equiv_pos_site_id
_symmetry_equiv_pos_as_xyz
1 x,y,z
2 x,-y,1/2+z
3 1/2+x,1/2+y,z
4 1/2+x,1/2-y,1/2+z
_cell_length_a                   21.888(5)
_cell_length_b                   33.7268(19)
_cell_length_c                   14.938(3)
_cell_angle_alpha                90
_cell_angle_beta                 130.540(3)
_cell_angle_gamma                90
_cell_volume                     8380.31
loop_
_atom_site_label
_atom_site_type_symbol
_atom_site_fract_x
_atom_site_fract_y
_atom_site_fract_z
Sm1 Sm 0.30628(2) 0.257333(8) -0.26758(3)
Sm2 Sm 0.37561(2) 0.245241(9) 0.14562(3)
Sm3 Sm 0.36288(2) 0.246150(9) -0.55913(3)
Ag1 Ag 0.47204(5) 0.005580(18) -0.05079(9)
Ag2 Ag 0.27221(5) 0.000930(18) -0.36386(8)
Ag3 Ag 0.36394(7) 0.499410(18) -0.01365(10)
Ag4 Ag 0.15600(5) 0.513000(18) -0.36967(9)
Ag5 Ag 0.57992(5) 0.48563(2) 0.44205(9)
O1 O 0.3640(4) 0.20794(14) -0.1177(5)
O2 O 0.3725(5) 0.19287(16) 0.0346(6)
O3 O 0.2730(5) 0.20820(16) 0.1233(6)
O4 O 0.2855(4) 0.19908(15) 0.2825(5)
O5 O 0.4417(5) 0.19440(15) 0.2943(6)
O6 O 0.4564(4) 0.20434(14) 0.4531(5)
O7 O 0.3550(4) 0.18982(15) -0.4673(5)
O8 O 0.3129(4) 0.20809(13) -0.3712(5)
O9 O 0.2189(4) 0.30535(15) -0.2826(6)
O10 O 0.1895(6) 0.3189(2) -0.1695(7)
O11 O 0.3913(4) 0.29510(15) -0.0941(5)
O12 O 0.4025(5) 0.29371(16) 0.0632(6)
O13 O 0.2953(4) 0.29869(15) 0.1333(6)
O14 O 0.2875(4) 0.28792(16) 0.2721(5)
O15 O 0.4584(4) 0.28384(15) 0.3185(5)
O16 O 0.4556(4) 0.29494(15) 0.4645(5)
O17 O 0.3469(5) 0.29359(15) -0.4624(6)
O18 O 0.3271(4) 0.31315(15) -0.3429(5)
O19 O 0.5800(8) 0.6838(2) 0.2765(8)
O20 O 0.5785(4) 0.69668(18) 0.4199(7)
O21 O 0.1838(4) 0.26069(16) -0.4817(5)
H1 H 0.1595 0.2386 -0.5091
H2 H 0.1602 0.2799 -0.5301
O22 O 0.1990(4) 0.2167(2) -0.3044(8)
H3 H 0.1659 0.1990 -0.3527
H4 H 0.2006 0.2058 -0.2517
O23 O 0.4486(4) 0.25122(17) -0.1867(6)
H5 H 0.4651 0.2743 -0.1572
H6 H 0.4435 0.2486 -0.2479
O24 O 0.2519(5) 0.25093(17) -0.0582(7)
H7 H 0.2297 0.2314 -0.1053
H8 H 0.2247 0.2716 -0.0956
O25 O 0.5170(5) 0.2357(2) 0.2235(7)
H9 H 0.5469 0.2535 0.2294
H10 H 0.5353 0.2134 0.2238
O26 O 0.2206(4) 0.24476(17) -0.6409(6)
H11 H 0.2232 0.2559 -0.5874
H12 H 0.2007 0.2220 -0.6702
O27 O 0.4877(4) 0.24786(15) -0.3472(5)
H13 H 0.5242 0.2304 -0.3183
H14 H 0.5128 0.2698 -0.3215
N1 N 0.4488(4) 0.06652(17) -0.0418(7)
N2 N 0.2639(4) 0.06130(18) 0.1505(7)
N3 N 0.4772(4) 0.05770(18) 0.4371(7)
N4 N 0.2932(5) 0.06098(17) -0.3784(7)
N5 N 0.1540(4) 0.45020(18) -0.3460(7)
N6 N 0.3664(6) 0.43663(18) -0.0282(8)
N7 N 0.1743(4) 0.42409(18) 0.1310(7)
N8 N 0.5664(5) 0.4218(2) 0.4494(8)
N9 N 0.3615(6) 0.44029(19) -0.4752(8)
N10 N 0.5801(5) 0.5490(2) 0.4169(8)
C1 C 0.4637(5) 0.0966(2) -0.0837(8)
H23 H 0.4888 0.0913 -0.1141
C2 C 0.4430(5) 0.1351(2) -0.0834(7)
H24 H 0.4538 0.1553 -0.1137
C3 C 0.4066(5) 0.14362(19) -0.0383(6)
C4 C 0.3933(6) 0.1134(2) 0.0079(8)
H25 H 0.3711 0.1185 0.0427
C5 C 0.4133(7) 0.0746(2) 0.0025(10)
H26 H 0.4016 0.0540 0.0305
C6 C 0.3793(5) 0.18513(18) -0.0402(7)
C7 C 0.2577(5) 0.0860(2) 0.0736(7)
H27 H 0.2543 0.0751 0.0132
C8 C 0.2561(6) 0.1267(2) 0.0815(8)
H28 H 0.2505 0.1428 0.0261
C9 C 0.2630(5) 0.1430(2) 0.1716(7)
C10 C 0.2665(5) 0.1177(2) 0.2489(8)
H29 H 0.2687 0.1280 0.3087
C11 C 0.2667(6) 0.0770(2) 0.2350(8)
H30 H 0.2689 0.0602 0.2864
C12 C 0.2738(5) 0.1869(2) 0.1951(7)
C13 C 0.4700(6) 0.0741(2) 0.3498(8)
H31 H 0.4661 0.0575 0.2966
C14 C 0.4679(5) 0.1142(2) 0.3343(8)
H32 H 0.4645 0.1243 0.2732
C15 C 0.4710(4) 0.13909(19) 0.4087(7)
C16 C 0.4788(5) 0.1224(2) 0.5014(7)
H33 H 0.4816 0.1386 0.5545
C17 C 0.4823(5) 0.0815(2) 0.5133(8)
H34 H 0.4885 0.0704 0.5756
C18 C 0.4581(5) 0.1836(2) 0.3860(7)
C19 C 0.3264(6) 0.0714(2) -0.4249(9)
H35 H 0.3413 0.0515 -0.4505
C20 C 0.3393(5) 0.1098(2) -0.4367(8)
H36 H 0.3648 0.1155 -0.4663
C21 C 0.3147(4) 0.14050(19) -0.4048(6)
C22 C 0.2788(5) 0.12987(19) -0.3576(7)
H37 H 0.2621 0.1493 -0.3334
C23 C 0.2687(5) 0.0905(2) -0.3477(7)
H38 H 0.2436 0.0839 -0.3181
C24 C 0.3280(5) 0.18286(19) -0.4166(7)
C25 C 0.1689(6) 0.4237(2) -0.3964(9)
H39 H 0.1713 0.4325 -0.4530
C26 C 0.1807(6) 0.3839(2) -0.3678(8)
H40 H 0.1911 0.3664 -0.4045
C27 C 0.1770(5) 0.3704(2) -0.2851(7)
C28 C 0.1582(7) 0.3978(2) -0.2379(9)
H41 H 0.1524 0.3899 -0.1840
C29 C 0.1481(7) 0.4362(3) -0.2708(10)
H42 H 0.1359 0.4541 -0.2370
C30 C 0.1950(5) 0.3276(2) -0.2432(7)
C31 C 0.3815(6) 0.4189(2) -0.0917(8)
H43 H 0.3867 0.4343 -0.1380
C32 C 0.3896(5) 0.3785(2) -0.0908(7)
H44 H 0.3990 0.3669 -0.1372
C33 C 0.3837(5) 0.35566(19) -0.0217(6)
C34 C 0.3669(7) 0.3736(2) 0.0442(8)
H45 H 0.3629 0.3588 0.0927
C35 C 0.3566(8) 0.4139(2) 0.0348(10)
H46 H 0.3419 0.4260 0.0744
C36 C 0.3932(5) 0.3112(2) -0.0158(7)
C37 C 0.1890(7) 0.4091(3) 0.0642(10)
H47 H 0.1781 0.4248 0.0041
C38 C 0.2192(7) 0.3721(2) 0.0793(9)
H48 H 0.2298 0.3634 0.0314
C39 C 0.2341(5) 0.34741(19) 0.1651(7)
C40 C 0.2145(5) 0.3615(2) 0.2284(8)
H49 H 0.2207 0.3453 0.2843
C41 C 0.1850(5) 0.4000(2) 0.2108(8)
H50 H 0.1725 0.4091 0.2560
C42 C 0.2752(5) 0.3078(2) 0.1924(7)
C43 C 0.5421(6) 0.3992(3) 0.3580(10)
H51 H 0.5436 0.4099 0.3020
C44 C 0.5155(6) 0.3613(2) 0.3425(8)
H52 H 0.5001 0.3465 0.2781
C45 C 0.5118(5) 0.3451(2) 0.4237(8)
C46 C 0.5397(5) 0.3671(2) 0.5210(7)
H53 H 0.5412 0.3567 0.5801
C47 C 0.5657(5) 0.4057(2) 0.5282(8)
H54 H 0.5838 0.4209 0.5934
C48 C 0.4713(5) 0.3043(2) 0.4001(7)
C49 C 0.3809(6) 0.4109(2) -0.5112(10)
H55 H 0.3964 0.4169 -0.5548
C50 C 0.3791(6) 0.3716(2) -0.4864(8)
H56 H 0.3954 0.3517 -0.5101
C51 C 0.3537(5) 0.36237(19) -0.4279(7)
C52 C 0.3357(6) 0.3928(2) -0.3856(9)
H57 H 0.3217 0.3874 -0.3399
C53 C 0.3393(9) 0.4310(2) -0.4134(13)
H58 H 0.3255 0.4515 -0.3877
C54 C 0.3424(5) 0.31912(19) -0.4079(7)
C55 C 0.5896(9) 0.5618(2) 0.3444(11)
H59 H 0.5966 0.5432 0.3059
C56 C 0.5900(8) 0.6035(3) 0.3200(9)
H60 H 0.5983 0.6115 0.2691
C57 C 0.5779(5) 0.6297(2) 0.3733(8)
C58 C 0.5687(6) 0.6161(3) 0.4540(10)
H61 H 0.5622 0.6338 0.4949
C59 C 0.5697(6) 0.5761(3) 0.4696(10)
H62 H 0.5626 0.5673 0.5212
C60 C 0.5797(7) 0.6736(2) 0.3531(9)
Sm3_2 Sm 0.36288(2) 0.246150(9) 0.44087(3)
Ag1A Ag 0.47204(5) -0.005580(18) 0.44921(9)
Ag2A Ag 0.27221(5) -0.000930(18) 0.13614(8)
Ag3A Ag 0.36394(7) 0.500590(18) -0.51365(10)
Ag4A Ag 0.15600(5) 0.487000(18) 0.13033(9)
O4_2 O 0.2855(4) 0.19908(15) -0.7175(5)
O6_2 O 0.4564(4) 0.20434(14) -0.5469(5)
O14_2 O 0.2875(4) 0.28792(16) -0.7279(5)
O16_2 O 0.4556(4) 0.29494(15) -0.5355(5)
N2A N 0.2639(4) -0.06130(18) -0.3495(7)
N3A N 0.4772(4) -0.05770(18) -0.0629(7)
N7A N 0.1743(4) 0.57591(18) -0.3690(7)
N9A N 0.3615(6) 0.55971(19) 0.0248(8)
Cl1 Cl 0.0557(2) 0.51329(7) -0.2056(3)
O28 O 0.0254(10) 0.5349(4) -0.1692(14)
O29 O 0.1112(9) 0.5324(4) -0.2087(15)
O30 O 0.0003(10) 0.5008(4) -0.3146(10)
O31 O 0.0994(8) 0.4824(4) -0.1207(11)
Cl2 Cl 0.1820(3) -0.02375(9) 0.2867(3)
O32 O 0.2008(11) -0.0128(3) 0.3876(10)
O33 O 0.1828(11) -0.0653(3) 0.2773(12)
O34 O 0.2682(9) -0.0131(4) 0.3223(16)
O35 O 0.1346(10) -0.0016(4) 0.1882(10)
Cl3 Cl 1.08463(17) 0.34436(7) 1.3263(2)
O36 O 1.0726(5) 0.3222(2) 1.3949(8)
O37 O 1.0252(7) 0.3733(3) 1.2629(9)
O38 O 1.0867(5) 0.3188(2) 1.2546(8)
O39 O 1.1591(6) 0.3644(4) 1.3996(9)
Cl4 Cl 0.3818(2) 0.47858(9) 0.2757(4)
O40 O 0.3647(8) 0.4349(3) 0.2649(11)
O41 O 0.3122(6) 0.4996(3) 0.2226(12)
O42 O 0.4184(5) 0.4862(2) 0.2287(7)
O43 O 0.4378(5) 0.4890(3) 0.3999(8)
O44 O 1.5480(5) 0.2369(3) 1.0737(8)
H15 H 1.5291 0.2220 1.0150
H16 H 1.5218 0.2388 1.0973
O45 O 1.6168(8) 0.2452(4) 1.5825(14)
H17 H 1.6118 0.2451 1.6344
H18 H 1.6071 0.2693 1.5602
O46 O 0.6274(8) 0.2957(5) 0.3723(14)
H19 H 0.6408 0.3015 0.3317
H20 H 0.6635 0.2792 0.4217
O47 O 0.6706(14) 0.3493(4) 0.2719(16)
H21 H 0.6410 0.3685 0.2272
H22 H 0.7210 0.3486 0.3289
loop_
_geom_bond_atom_site_label_1
_geom_bond_atom_site_label_2
_geom_bond_site_symmetry_1
_geom_bond_site_symmetry_2
Sm1 O1 1_555 1_555
Sm2 O2 1_555 1_555
Sm3 O7 1_555 1_555
Ag1 N1 1_555 1_555
Ag2 N4 1_555 1_555
Ag3 N6 1_555 1_555
Ag4 N5 1_555 1_555
Ag5 N8 1_555 1_555
Cl1 O28 1_555 1_555
Cl2 O32 1_555 1_555
Cl3 O36 1_555 1_555
Cl4 O40 1_555 1_555
O1 C6 1_555 1_555
O2 C6 1_555 1_555
O3 Sm2 1_555 1_555
O4 C12 1_555 1_555
O5 Sm2 1_555 1_555
O6 C18 1_555 1_555
O7 C24 1_555 1_555
O8 Sm1 1_555 1_555
O9 Sm1 1_555 1_555
O10 C30 1_555 1_555
O11 Sm1 1_555 1_555
O12 Sm2 1_555 1_555
O13 Sm2 1_555 1_555
O14 C42 1_555 1_555
O15 Sm2 1_555 1_555
O16 C48 1_555 1_555
O17 Sm3 1_555 1_555
O18 Sm1 1_555 1_555
O19 C60 1_555 1_555
O20 C60 1_555 1_555
O21 Sm1 1_555 1_555
H1 O21 1_555 1_555
H2 O21 1_555 1_555
O22 Sm1 1_555 1_555
H3 O22 1_555 1_555
H4 O22 1_555 1_555
O23 Sm1 1_555 1_555
H5 O23 1_555 1_555
H6 O23 1_555 1_555
O24 Sm2 1_555 1_555
H7 O24 1_555 1_555
H8 O24 1_555 1_555
O25 Sm2 1_555 1_555
H9 O25 1_555 1_555
H10 O25 1_555 1_555
O26 Sm3 1_555 1_555
H11 O26 1_555 1_555
H12 O26 1_555 1_555
O27 Sm3 1_555 1_555
H13 O27 1_555 1_555
H14 O27 1_555 1_555
O29 Cl1 1_555 1_555
O30 Cl1 1_555 1_555
O31 Cl1 1_555 1_555
O33 Cl2 1_555 1_555
O34 Cl2 1_555 1_555
O35 Cl2 1_555 1_555
O37 Cl3 1_555 1_555
O38 Cl3 1_555 1_555
O39 Cl3 1_555 1_555
O41 Cl4 1_555 1_555
O42 Cl4 1_555 1_555
O43 Cl4 1_555 1_555
O44 H15 1_555 1_555
H16 O44 1_555 1_555
O45 H17 1_555 1_555
H18 O45 1_555 1_555
O46 H19 1_555 1_555
H20 O46 1_555 1_555
O47 H21 1_555 1_555
H22 O47 1_555 1_555
N1 C1 1_555 1_555
N2 C7 1_555 1_555
N3 C13 1_555 1_555
N4 C19 1_555 1_555
N5 C25 1_555 1_555
N6 C31 1_555 1_555
N7 C37 1_555 1_555
N8 C43 1_555 1_555
N9 C49 1_555 1_555
N10 Ag5 1_555 1_555
C1 H23 1_555 1_555
C2 C1 1_555 1_555
H24 C2 1_555 1_555
C3 C2 1_555 1_555
C4 C3 1_555 1_555
H25 C4 1_555 1_555
C5 N1 1_555 1_555
H26 C5 1_555 1_555
C6 C3 1_555 1_555
C7 H27 1_555 1_555
C8 C7 1_555 1_555
H28 C8 1_555 1_555
C9 C8 1_555 1_555
C10 C9 1_555 1_555
H29 C10 1_555 1_555
C11 N2 1_555 1_555
H30 C11 1_555 1_555
C12 O3 1_555 1_555
C13 H31 1_555 1_555
C14 C13 1_555 1_555
H32 C14 1_555 1_555
C15 C14 1_555 1_555
C16 C15 1_555 1_555
H33 C16 1_555 1_555
C17 N3 1_555 1_555
H34 C17 1_555 1_555
C18 O5 1_555 1_555
C19 H35 1_555 1_555
C20 C19 1_555 1_555
H36 C20 1_555 1_555
C21 C20 1_555 1_555
C22 C21 1_555 1_555
H37 C22 1_555 1_555
C23 N4 1_555 1_555
H38 C23 1_555 1_555
C24 O8 1_555 1_555
C25 H39 1_555 1_555
C26 C25 1_555 1_555
H40 C26 1_555 1_555
C27 C26 1_555 1_555
C28 C27 1_555 1_555
H41 C28 1_555 1_555
C29 N5 1_555 1_555
H42 C29 1_555 1_555
C30 O9 1_555 1_555
C31 H43 1_555 1_555
C32 C31 1_555 1_555
H44 C32 1_555 1_555
C33 C32 1_555 1_555
C34 C33 1_555 1_555
H45 C34 1_555 1_555
C35 N6 1_555 1_555
H46 C35 1_555 1_555
C36 O11 1_555 1_555
C37 H47 1_555 1_555
C38 C37 1_555 1_555
H48 C38 1_555 1_555
C39 C38 1_555 1_555
C40 C39 1_555 1_555
H49 C40 1_555 1_555
C41 N7 1_555 1_555
H50 C41 1_555 1_555
C42 O13 1_555 1_555
C43 H51 1_555 1_555
C44 C43 1_555 1_555
H52 C44 1_555 1_555
C45 C44 1_555 1_555
C46 C45 1_555 1_555
H53 C46 1_555 1_555
C47 N8 1_555 1_555
H54 C47 1_555 1_555
C48 O15 1_555 1_555
C49 H55 1_555 1_555
C50 C49 1_555 1_555
H56 C50 1_555 1_555
C51 C50 1_555 1_555
C52 C51 1_555 1_555
H57 C52 1_555 1_555
C53 N9 1_555 1_555
H58 C53 1_555 1_555
C54 O17 1_555 1_555
C55 N10 1_555 1_555
H59 C55 1_555 1_555
C56 C55 1_555 1_555
H60 C56 1_555 1_555
C57 C56 1_555 1_555
C58 C57 1_555 1_555
H61 C58 1_555 1_555
C59 N10 1_555 1_555
H62 C59 1_555 1_555
C60 C57 1_555 1_555
Sm3_2 O4 1_555 1_555
Ag1A N3 1_555 1_555
Ag2A N2 1_555 1_555
Ag3A N9 1_555 1_555
Ag4A N7 1_555 1_555
O4_2 Sm3 1_555 1_555
O6_2 Sm3 1_555 1_555
O14_2 Sm3 1_555 1_555
O16_2 Sm3 1_555 1_555
N2A Ag2 1_555 1_555
N3A Ag1 1_555 1_555
N7A Ag4 1_555 1_555
N9A Ag3 1_555 1_555
O6 Sm3_2 1_555 1_555
O12 C36 1_555 1_555
O14 Sm3_2 1_555 1_555
O16 Sm3_2 1_555 1_555
O18 C54 1_555 1_555
C4 C5 1_555 1_555
C9 C12 1_555 1_555
C10 C11 1_555 1_555
C15 C18 1_555 1_555
C16 C17 1_555 1_555
C21 C24 1_555 1_555
C22 C23 1_555 1_555
C27 C30 1_555 1_555
C28 C29 1_555 1_555
C33 C36 1_555 1_555
C34 C35 1_555 1_555
C39 C42 1_555 1_555
C40 C41 1_555 1_555
C45 C48 1_555 1_555
C46 C47 1_555 1_555
C51 C54 1_555 1_555
C52 C53 1_555 1_555
C58 C59 1_555 1_555

#END
