
#######################################################################
#
#                 Cambridge Crystallographic Data Centre
#                                CCDC 
#
#######################################################################
#
# If this CIF has been generated from an entry in the Cambridge 
# Structural Database, then it will include bibliographic, chemical, 
# crystal, experimental, refinement or atomic coordinate data resulting 
# from the CCDC's data processing and validation procedures.
#
#######################################################################

data_OPUXIH
_symmetry_cell_setting           triclinic
_symmetry_space_group_name_H-M   'P -1'
_symmetry_Int_Tables_number      2
_space_group_name_Hall           '-P 1'
loop_
_symmetry_equiv_pos_site_id
_symmetry_equiv_pos_as_xyz
1 x,y,z
2 -x,-y,-z
_cell_length_a                   9.7616(13)
_cell_length_b                   9.9673(13)
_cell_length_c                   11.530(3)
_cell_angle_alpha                104.062(3)
_cell_angle_beta                 99.128(3)
_cell_angle_gamma                115.917(2)
_cell_volume                     932.589
loop_
_atom_site_label
_atom_site_type_symbol
_atom_site_fract_x
_atom_site_fract_y
_atom_site_fract_z
Ag1 Ag 0.87270(3) 0.62322(3) 0.72744(3)
C1 C 0.8446(4) 0.8786(3) 0.6148(3)
C2 C 0.6822(4) 0.7804(4) 0.5460(3)
H1 H 0.6259 0.6746 0.5402
C3 C 0.6113(4) 0.8478(4) 0.4883(3)
H2 H 0.5038 0.7864 0.4416
C4 C 0.6963(5) 1.0079(4) 0.4973(3)
H3 H 0.6424 1.0486 0.4564
C5 C 0.8545(4) 1.1062(4) 0.5636(3)
H4 H 0.9096 1.2120 0.5692
C6 C 0.9283(4) 1.0367(3) 0.6228(3)
C7 C 1.2153(4) 1.2543(4) 0.7482(3)
H5 H 1.2128 1.3089 0.6894
H6 H 1.3134 1.2494 0.7596
C8 C 1.2142(3) 1.3473(4) 0.8722(3)
H7 H 1.2177 1.2930 0.9310
H8 H 1.3092 1.4519 0.9058
C9 C 0.8410(3) 1.3489(3) 0.8513(3)
C10 C 0.6876(4) 1.2936(4) 0.8641(3)
H9 H 0.6249 1.3374 0.8426
C11 C 0.6346(4) 1.1720(4) 0.9098(3)
H10 H 0.5338 1.1334 0.9209
C12 C 0.7278(5) 1.1030(4) 0.9408(3)
H11 H 0.6855 1.0186 0.9697
C13 C 0.8782(4) 1.1562(3) 0.9297(3)
H12 H 0.9396 1.1109 0.9507
C14 C 0.9345(3) 1.2823(3) 0.8851(2)
C15 C 0.6872(5) 0.2441(5) 0.2809(4)
H13 H 0.5772 0.1661 0.2632
H14 H 0.7510 0.1932 0.2807
H15 H 0.6974 0.2926 0.2180
C16 C 0.7405(5) 0.3636(5) 0.4015(4)
N1 N 0.9492(3) 0.8479(3) 0.6831(2)
N2 N 1.0892(3) 0.9774(3) 0.7329(2)
N3 N 1.0784(3) 1.0926(3) 0.6961(2)
N4 N 0.9288(3) 1.4668(3) 0.8085(2)
N5 N 1.0672(3) 1.4750(3) 0.8141(2)
N6 N 1.0731(3) 1.3657(3) 0.8608(2)
N7 N 0.6197(3) 0.6565(4) 0.8421(3)
N8 N 0.7791(7) 0.4539(6) 0.4955(4)
O1 O 0.7636(3) 0.7580(3) 0.8777(3)
O2 O 0.5688(4) 0.5392(4) 0.7485(3)
O3 O 0.5359(3) 0.6787(4) 0.9063(3)
Ag1_2 Ag 0.87270(3) 1.62322(3) 0.72744(3)
N4_2 N 0.9288(3) 0.4668(3) 0.8085(2)
loop_
_geom_bond_atom_site_label_1
_geom_bond_atom_site_label_2
_geom_bond_site_symmetry_1
_geom_bond_site_symmetry_2
Ag1 N1 1_555 1_555
C1 C2 1_555 1_555
C2 H1 1_555 1_555
C3 C2 1_555 1_555
H2 C3 1_555 1_555
C4 C3 1_555 1_555
H3 C4 1_555 1_555
C5 C4 1_555 1_555
H4 C5 1_555 1_555
C6 C1 1_555 1_555
C7 H5 1_555 1_555
H6 C7 1_555 1_555
C8 C7 1_555 1_555
H7 C8 1_555 1_555
H8 C8 1_555 1_555
C9 C10 1_555 1_555
C10 H9 1_555 1_555
C11 C10 1_555 1_555
H10 C11 1_555 1_555
C12 C11 1_555 1_555
H11 C12 1_555 1_555
C13 C12 1_555 1_555
H12 C13 1_555 1_555
C14 C9 1_555 1_555
C15 H13 1_555 1_555
H14 C15 1_555 1_555
H15 C15 1_555 1_555
C16 C15 1_555 1_555
N1 C1 1_555 1_555
N2 N1 1_555 1_555
N3 C6 1_555 1_555
N4 C9 1_555 1_555
N5 N4 1_555 1_555
N6 C8 1_555 1_555
N7 O1 1_555 1_555
N8 Ag1 1_555 1_555
O1 Ag1 1_555 1_555
O2 N7 1_555 1_555
O3 N7 1_555 1_555
Ag1_2 N4 1_555 1_555
N4_2 Ag1 1_555 1_555
C5 C6 1_555 1_555
C7 N3 1_555 1_555
C13 C14 1_555 1_555
C14 N6 1_555 1_555
C16 N8 1_555 1_555
N2 N3 1_555 1_555
N5 N6 1_555 1_555

#END
