
#######################################################################
#
#                 Cambridge Crystallographic Data Centre
#                                CCDC 
#
#######################################################################
#
# If this CIF has been generated from an entry in the Cambridge 
# Structural Database, then it will include bibliographic, chemical, 
# crystal, experimental, refinement or atomic coordinate data resulting 
# from the CCDC's data processing and validation procedures.
#
#######################################################################

data_OPUYAA
_symmetry_cell_setting           triclinic
_symmetry_space_group_name_H-M   'P -1'
_symmetry_Int_Tables_number      2
_space_group_name_Hall           '-P 1'
loop_
_symmetry_equiv_pos_site_id
_symmetry_equiv_pos_as_xyz
1 x,y,z
2 -x,-y,-z
_cell_length_a                   7.7004(14)
_cell_length_b                   9.5195(18)
_cell_length_c                   11.112(2)
_cell_angle_alpha                79.404(3)
_cell_angle_beta                 86.652(3)
_cell_angle_gamma                80.058(3)
_cell_volume                     788.342
loop_
_atom_site_label
_atom_site_type_symbol
_atom_site_fract_x
_atom_site_fract_y
_atom_site_fract_z
Cu1 Cu 0.19701(7) 1.25800(5) 0.22442(4)
C1 C 0.0392(5) 0.9918(4) 0.1984(3)
C2 C -0.0938(6) 0.9933(5) 0.2884(4)
H1 H -0.1225 1.0696 0.3314
C3 C -0.1802(6) 0.8766(5) 0.3104(4)
H2 H -0.2682 0.8722 0.3713
C4 C -0.1387(6) 0.7627(5) 0.2427(4)
H3 H -0.2015 0.6859 0.2605
C5 C -0.0117(5) 0.7602(4) 0.1532(4)
H4 H 0.0127 0.6854 0.1083
C6 C 0.0807(5) 0.8779(4) 0.1324(3)
C7 C 0.3374(6) 0.8192(4) -0.0150(3)
H5 H 0.3886 0.8800 -0.0827
H6 H 0.2694 0.7595 -0.0486
C8 C 0.4829(6) 0.7232(4) 0.0613(4)
H7 H 0.5635 0.6695 0.0091
H8 H 0.5486 0.7830 0.0967
C9 C 0.3732(5) 0.6330(4) 0.2789(3)
C10 C 0.3892(5) 0.7387(4) 0.3480(4)
H9 H 0.4379 0.8209 0.3154
C11 C 0.3282(6) 0.7128(5) 0.4665(4)
H10 H 0.3356 0.7799 0.5164
C12 C 0.2546(6) 0.5886(5) 0.5160(4)
H11 H 0.2183 0.5747 0.5980
C13 C 0.2349(6) 0.4869(5) 0.4465(4)
H12 H 0.1829 0.4062 0.4785
C14 C 0.2970(5) 0.5116(4) 0.3262(3)
Cl1 Cl -0.06787(15) 1.38102(11) 0.16815(11)
Cl2 Cl 0.3950(2) 1.12340(13) 0.35137(14)
N1 N 0.1583(4) 1.0847(3) 0.1601(3)
N2 N 0.2679(4) 1.0345(3) 0.0769(3)
N3 N 0.2214(4) 0.9102(3) 0.0585(3)
N4 N 0.2938(4) 0.4363(3) 0.2319(3)
N5 N 0.3625(4) 0.5032(3) 0.1321(3)
N6 N 0.4132(4) 0.6220(3) 0.1589(3)
Cu1_2 Cu 0.19701(7) 0.25800(5) 0.22442(4)
N4_2 N 0.2938(4) 1.4363(3) 0.2319(3)
loop_
_geom_bond_atom_site_label_1
_geom_bond_atom_site_label_2
_geom_bond_site_symmetry_1
_geom_bond_site_symmetry_2
Cu1 Cl1 1_555 1_555
C1 C2 1_555 1_555
C2 H1 1_555 1_555
C3 C2 1_555 1_555
H2 C3 1_555 1_555
C4 C3 1_555 1_555
H3 C4 1_555 1_555
C5 C4 1_555 1_555
H4 C5 1_555 1_555
C6 C1 1_555 1_555
C7 H5 1_555 1_555
H6 C7 1_555 1_555
C8 C7 1_555 1_555
H7 C8 1_555 1_555
H8 C8 1_555 1_555
C9 C10 1_555 1_555
C10 H9 1_555 1_555
C11 C10 1_555 1_555
H10 C11 1_555 1_555
C12 C11 1_555 1_555
H11 C12 1_555 1_555
C13 C12 1_555 1_555
H12 C13 1_555 1_555
C14 C9 1_555 1_555
Cl2 Cu1 1_555 1_555
N1 Cu1 1_555 1_555
N2 N1 1_555 1_555
N3 C6 1_555 1_555
N4 C14 1_555 1_555
N5 N4 1_555 1_555
N6 C8 1_555 1_555
Cu1_2 N4 1_555 1_555
N4_2 Cu1 1_555 1_555
C1 N1 1_555 1_555
C5 C6 1_555 1_555
C7 N3 1_555 1_555
C9 N6 1_555 1_555
C13 C14 1_555 1_555
N2 N3 1_555 1_555
N5 N6 1_555 1_555

#END
