
#######################################################################
#
#                 Cambridge Crystallographic Data Centre
#                                CCDC 
#
#######################################################################
#
# If this CIF has been generated from an entry in the Cambridge 
# Structural Database, then it will include bibliographic, chemical, 
# crystal, experimental, refinement or atomic coordinate data resulting 
# from the CCDC's data processing and validation procedures.
#
#######################################################################

data_OQEFEW
_symmetry_cell_setting           triclinic
_symmetry_space_group_name_H-M   'P -1'
_symmetry_Int_Tables_number      2
_space_group_name_Hall           '-P 1'
loop_
_symmetry_equiv_pos_site_id
_symmetry_equiv_pos_as_xyz
1 x,y,z
2 -x,-y,-z
_cell_length_a                   8.7640(13)
_cell_length_b                   10.0391(15)
_cell_length_c                   11.6049(17)
_cell_angle_alpha                89.360(2)
_cell_angle_beta                 84.394(2)
_cell_angle_gamma                67.727(2)
_cell_volume                     939.96
loop_
_atom_site_label
_atom_site_type_symbol
_atom_site_fract_x
_atom_site_fract_y
_atom_site_fract_z
N1 N -0.2566(3) 0.1318(3) 0.9763(2)
C1 C -0.2426(5) 0.2443(4) 0.9193(3)
H1 H -0.3053 0.3365 0.9494
C2 C -0.1607(4) 0.0007(4) 0.9323(3)
H2 H -0.1662 -0.0790 0.9713
C3 C -0.0542(4) -0.0227(4) 0.8321(3)
H3 H 0.0105 -0.1159 0.8050
C4 C -0.1406(5) 0.2303(4) 0.8189(3)
H4 H -0.1357 0.3117 0.7822
C5 C -0.0452(4) 0.0947(4) 0.7727(3)
C6 C 0.0550(4) 0.0825(4) 0.6610(3)
Ni1 Ni -0.45741(5) 0.16795(4) 1.10608(3)
O1 O -0.4996(3) 0.3900(2) 1.10866(18)
O2 O -0.3825(3) 0.9682(2) 1.16774(18)
O3 O -0.3983(3) 0.8349(2) 1.02065(17)
O4 O -0.3533(3) 0.2524(2) 1.23752(19)
C7 C -0.3879(4) 0.5197(3) 1.3584(3)
H5 H -0.3865 0.4462 1.4083
N2 N 0.3234(3) 0.2270(3) 0.2197(2)
C8 C -0.3898(4) 0.8557(3) 1.1257(3)
N3 N 0.2515(4) -0.0057(3) 0.5162(2)
C9 C -0.4182(4) 0.3747(3) 1.1943(3)
N4 N 0.1880(4) -0.0325(3) 0.6210(2)
C10 C -0.3791(4) 0.7539(4) 1.3263(3)
H6 H -0.3747 0.8383 1.3553
C11 C -0.3983(4) 0.5041(3) 1.2414(3)
C12 C -0.3947(4) 0.6121(3) 1.1677(3)
H7 H -0.3990 0.6004 1.0888
C13 C 0.1492(4) 0.1276(4) 0.4987(3)
C14 C -0.3849(4) 0.7379(3) 1.2087(3)
C15 C 0.3069(4) 0.1589(3) 0.3166(3)
H8 H 0.3943 0.0753 0.3330
C16 C 0.1640(4) 0.2077(4) 0.3946(3)
C17 C 0.1942(5) 0.3471(4) 0.1963(3)
H9 H 0.2025 0.3937 0.1276
N5 N 0.0261(3) 0.1869(3) 0.5856(2)
C18 C 0.0519(5) 0.4026(5) 0.2695(3)
H10 H -0.0340 0.4865 0.2516
C19 C 0.0372(5) 0.3321(4) 0.3710(3)
H11 H -0.0581 0.3692 0.4225
C20 C -0.3796(5) 0.6457(4) 1.4015(3)
H12 H -0.3744 0.6571 1.4802
H13 H 0.243(5) -0.118(5) 0.657(3)
Ni1_2 Ni -0.45741(5) 1.16795(4) 1.10608(3)
Ni1A Ni -0.54259(5) 0.83205(4) 0.89392(3)
Ni1_3 Ni 0.54259(5) 0.16795(4) 0.10608(3)
O2_2 O -0.3825(3) -0.0318(2) 1.16774(18)
O3A O -0.6017(3) 0.1651(2) 0.97935(17)
N2_2 N -0.6766(3) 0.2270(3) 1.2197(2)
loop_
_geom_bond_atom_site_label_1
_geom_bond_atom_site_label_2
_geom_bond_site_symmetry_1
_geom_bond_site_symmetry_2
N1 C1 1_555 1_555
C1 H1 1_555 1_555
C2 N1 1_555 1_555
H2 C2 1_555 1_555
C3 C2 1_555 1_555
H3 C3 1_555 1_555
C4 C1 1_555 1_555
H4 C4 1_555 1_555
C5 C3 1_555 1_555
C6 C5 1_555 1_555
Ni1 N1 1_555 1_555
O1 Ni1 1_555 1_555
O2 C8 1_555 1_555
O3 C8 1_555 1_555
O4 Ni1 1_555 1_555
C7 H5 1_555 1_555
N2 C15 1_555 1_555
C8 C14 1_555 1_555
N3 N4 1_555 1_555
C9 O1 1_555 1_555
N4 C6 1_555 1_555
C10 H6 1_555 1_555
C11 C7 1_555 1_555
C12 C11 1_555 1_555
H7 C12 1_555 1_555
C13 N3 1_555 1_555
C14 C10 1_555 1_555
C15 H8 1_555 1_555
C16 C13 1_555 1_555
C17 N2 1_555 1_555
H9 C17 1_555 1_555
N5 C6 1_555 1_555
C18 C17 1_555 1_555
H10 C18 1_555 1_555
C19 C16 1_555 1_555
H11 C19 1_555 1_555
C20 C7 1_555 1_555
H12 C20 1_555 1_555
H13 N4 1_555 1_555
Ni1_2 O2 1_555 1_555
Ni1A O3 1_555 1_555
Ni1_3 N2 1_555 1_555
O2_2 Ni1 1_555 1_555
O3A Ni1 1_555 1_555
N2_2 Ni1 1_555 1_555
C4 C5 1_555 1_555
O4 C9 1_555 1_555
C9 C11 1_555 1_555
C10 C20 1_555 1_555
C12 C14 1_555 1_555
C13 N5 1_555 1_555
C15 C16 1_555 1_555
C18 C19 1_555 1_555

#END
