
#######################################################################
#
#                 Cambridge Crystallographic Data Centre
#                                CCDC 
#
#######################################################################
#
# If this CIF has been generated from an entry in the Cambridge 
# Structural Database, then it will include bibliographic, chemical, 
# crystal, experimental, refinement or atomic coordinate data resulting 
# from the CCDC's data processing and validation procedures.
#
#######################################################################

data_OQEFAS
_symmetry_cell_setting           monoclinic
_symmetry_space_group_name_H-M   'P 21/n'
_symmetry_Int_Tables_number      14
_space_group_name_Hall           '-P 2yn'
loop_
_symmetry_equiv_pos_site_id
_symmetry_equiv_pos_as_xyz
1 x,y,z
2 1/2-x,1/2+y,1/2-z
3 -x,-y,-z
4 1/2+x,1/2-y,1/2+z
_cell_length_a                   7.3216(10)
_cell_length_b                   19.394(3)
_cell_length_c                   13.9235(18)
_cell_angle_alpha                90
_cell_angle_beta                 97.519(2)
_cell_angle_gamma                90
_cell_volume                     1960.07
loop_
_atom_site_label
_atom_site_type_symbol
_atom_site_fract_x
_atom_site_fract_y
_atom_site_fract_z
O1 O 0.8567(13) 0.3711(5) 0.2092(7)
H1 H 0.7351 0.3745 0.2005
H2 H 0.8181 0.3882 0.2617
N1 N 0.9000(6) 0.6773(2) 0.2150(3)
C1 C 0.8742(7) 0.6097(3) 0.2144(4)
H3 H 0.8784 0.5860 0.1567
C2 C 0.9028(8) 0.7103(3) 0.3005(4)
H4 H 0.9248 0.7576 0.3025
Ni1 Ni 0.59522(9) 0.23430(3) 0.41259(5)
O2 O 0.3836(5) 0.29776(18) 0.3420(3)
H5 H 0.4203 0.3156 0.2922
H6 H 0.3983 0.2544 0.3387
O3 O 0.4019(5) 0.17068(19) 0.4627(3)
H7 H 0.4355 0.1777 0.4074
H8 H 0.3033 0.1933 0.4653
O4 O 0.7703(5) 0.16544(17) 0.4899(2)
O5 O 0.8210(5) 0.2893(2) 0.3695(3)
H9 H 0.7588 0.2970 0.4159
O6 O 1.0387(5) 0.18372(19) 0.4359(3)
N2 N 0.8011(6) 0.5967(2) 0.5556(3)
N3 N 0.7587(6) 0.5417(2) 0.6093(3)
N4 N 0.7597(6) 0.5005(2) 0.4632(3)
N5 N 0.6108(6) 0.3014(2) 0.5309(3)
C3 C 0.9747(7) 0.0717(3) 0.4928(4)
C4 C 0.6847(7) 0.4166(3) 0.5848(4)
C5 C 0.7336(7) 0.4856(3) 0.5534(4)
C6 C 0.9269(7) 0.1468(3) 0.4732(3)
C7 C 0.8395(7) 0.6068(3) 0.3830(4)
C8 C 0.6491(7) 0.3672(3) 0.5136(4)
H10 H 0.6520 0.3805 0.4497
C9 C 0.6374(8) 0.3294(3) 0.6990(4)
H11 H 0.6301 0.3153 0.7622
O7 O 0.7396(7) 0.0504(2) 0.6959(3)
C10 C 0.8008(7) 0.5684(3) 0.4684(4)
C11 C 0.9321(7) 0.0370(3) 0.5745(4)
C12 C 1.0429(7) 0.0340(3) 0.4199(4)
H12 H 1.0728 0.0572 0.3656
C13 C 0.8742(10) 0.0737(3) 0.6618(4)
C14 C 0.6067(7) 0.2828(3) 0.6237(4)
H13 H 0.5824 0.2371 0.6375
C15 C 0.8746(7) 0.6772(3) 0.3850(4)
H14 H 0.8789 0.7018 0.4426
C16 C 0.6786(8) 0.3966(3) 0.6800(4)
H15 H 0.7021 0.4282 0.7302
O8 O 0.9732(8) 0.1218(2) 0.6969(3)
C17 C 0.8414(7) 0.5727(3) 0.2956(4)
H16 H 0.8208 0.5254 0.2914
H19 H 0.756(8) 0.547(3) 0.669(4)
H20 H 0.907(6) 0.260(2) 0.376(4)
N1B N 1.1000(6) -0.6773(2) 0.7850(3)
N1A N 0.6000(6) 0.1773(2) 0.2850(3)
N1C N 1.4000(6) -0.1773(2) 0.7150(3)
C1B C 1.1258(7) -0.6097(3) 0.7856(4)
H3B H 1.1216 -0.5860 0.8433
C2B C 1.0972(8) -0.7103(3) 0.6995(4)
H4B H 1.0752 -0.7576 0.6975
Ni1B Ni 1.40478(9) -0.23430(3) 0.58741(5)
Ni1A Ni 0.90478(9) 0.73430(3) 0.08741(5)
Ni1C Ni 1.09522(9) -0.73430(3) 0.91259(5)
O2B O 1.6164(5) -0.29776(18) 0.6580(3)
H5B H 1.5797 -0.3156 0.7078
H6B H 1.6017 -0.2544 0.6613
O3B O 1.5981(5) -0.17068(19) 0.5373(3)
H7B H 1.5645 -0.1777 0.5926
H8B H 1.6967 -0.1933 0.5347
O4B O 1.2297(5) -0.16544(17) 0.5101(2)
O5B O 1.1790(5) -0.2893(2) 0.6305(3)
H9B H 1.2412 -0.2970 0.5841
O6B O 0.9613(5) -0.18372(19) 0.5641(3)
N2B N 1.1989(6) -0.5967(2) 0.4444(3)
N3B N 1.2413(6) -0.5417(2) 0.3907(3)
N4B N 1.2403(6) -0.5005(2) 0.5368(3)
N5B N 1.3892(6) -0.3014(2) 0.4691(3)
C3B C 1.0253(7) -0.0717(3) 0.5072(4)
C4B C 1.3153(7) -0.4166(3) 0.4152(4)
C5B C 1.2664(7) -0.4856(3) 0.4466(4)
C6B C 1.0731(7) -0.1468(3) 0.5268(3)
C7B C 1.1605(7) -0.6068(3) 0.6170(4)
C8B C 1.3509(7) -0.3672(3) 0.4864(4)
H10B H 1.3480 -0.3805 0.5503
C9B C 1.3626(8) -0.3294(3) 0.3010(4)
H11B H 1.3699 -0.3153 0.2378
O7B O 1.2604(7) -0.0504(2) 0.3041(3)
C10B C 1.1992(7) -0.5684(3) 0.5316(4)
C11B C 1.0679(7) -0.0370(3) 0.4255(4)
C12B C 0.9571(7) -0.0340(3) 0.5801(4)
H12B H 0.9272 -0.0572 0.6344
C13B C 1.1258(10) -0.0737(3) 0.3382(4)
C14B C 1.3933(7) -0.2828(3) 0.3763(4)
H13B H 1.4176 -0.2371 0.3625
C15B C 1.1254(7) -0.6772(3) 0.6150(4)
H14B H 1.1211 -0.7018 0.5574
C16B C 1.3214(8) -0.3966(3) 0.3200(4)
H15B H 1.2979 -0.4282 0.2698
O8B O 1.0268(8) -0.1218(2) 0.3031(3)
C17B C 1.1586(7) -0.5727(3) 0.7044(4)
H16B H 1.1792 -0.5254 0.7086
H19B H 1.244(8) -0.547(3) 0.331(4)
H20B H 1.093(6) -0.260(2) 0.624(4)
O9 O 0.4627(15) 0.0450(5) 0.5496(11)
H17 H 0.4321 0.0675 0.5948
H18 H 0.5548 0.0468 0.5966
loop_
_geom_bond_atom_site_label_1
_geom_bond_atom_site_label_2
_geom_bond_site_symmetry_1
_geom_bond_site_symmetry_2
O1 H1 1_555 1_555
H2 O1 1_555 1_555
N1 C1 1_555 1_555
C1 H3 1_555 1_555
C2 N1 1_555 1_555
H4 C2 1_555 1_555
Ni1 O2 1_555 1_555
O2 H5 1_555 1_555
H6 O2 1_555 1_555
O3 Ni1 1_555 1_555
H7 O3 1_555 1_555
H8 O3 1_555 1_555
O4 Ni1 1_555 1_555
O5 Ni1 1_555 1_555
H9 O5 1_555 1_555
O6 C6 1_555 1_555
N2 N3 1_555 1_555
N3 C5 1_555 1_555
N4 C5 1_555 1_555
N5 Ni1 1_555 1_555
C3 C6 1_555 1_555
C4 C5 1_555 1_555
C6 O4 1_555 1_555
C7 C10 1_555 1_555
C8 N5 1_555 1_555
H10 C8 1_555 1_555
C9 H11 1_555 1_555
O7 C13 1_555 1_555
C10 N2 1_555 1_555
C11 C3 1_555 1_555
C12 C3 1_555 1_555
H12 C12 1_555 1_555
C13 C11 1_555 1_555
C14 N5 1_555 1_555
H13 C14 1_555 1_555
C15 C2 1_555 1_555
H14 C15 1_555 1_555
C16 C4 1_555 1_555
H15 C16 1_555 1_555
O8 C13 1_555 1_555
C17 C1 1_555 1_555
H16 C17 1_555 1_555
O9 H17 1_555 1_555
H18 O9 1_555 1_555
H19 N3 1_555 1_555
H20 O5 1_555 1_555
N1B C1B 1_555 1_555
N1A Ni1 1_555 1_555
N1C Ni1B 1_555 1_555
C1B H3B 1_555 1_555
C2B N1B 1_555 1_555
H4B C2B 1_555 1_555
Ni1B O2B 1_555 1_555
Ni1A N1 1_555 1_555
Ni1C N1B 1_555 1_555
O2B H5B 1_555 1_555
H6B O2B 1_555 1_555
O3B Ni1B 1_555 1_555
H7B O3B 1_555 1_555
H8B O3B 1_555 1_555
O4B Ni1B 1_555 1_555
O5B Ni1B 1_555 1_555
H9B O5B 1_555 1_555
O6B C6B 1_555 1_555
N2B N3B 1_555 1_555
N3B C5B 1_555 1_555
N4B C5B 1_555 1_555
N5B Ni1B 1_555 1_555
C3B C6B 1_555 1_555
C4B C5B 1_555 1_555
C6B O4B 1_555 1_555
C7B C10B 1_555 1_555
C8B N5B 1_555 1_555
H10B C8B 1_555 1_555
C9B H11B 1_555 1_555
O7B C13B 1_555 1_555
C10B N2B 1_555 1_555
C11B C12 1_555 1_555
C12B C11 1_555 1_555
H12B C12B 1_555 1_555
C13B C11B 1_555 1_555
C14B N5B 1_555 1_555
H13B C14B 1_555 1_555
C15B C2B 1_555 1_555
H14B C15B 1_555 1_555
C16B C4B 1_555 1_555
H15B C16B 1_555 1_555
O8B C13B 1_555 1_555
C17B C1B 1_555 1_555
H16B C17B 1_555 1_555
H19B N3B 1_555 1_555
H20B O5B 1_555 1_555
N4 C10 1_555 1_555
C4 C8 1_555 1_555
C7 C15 1_555 1_555
C7 C17 1_555 1_555
C9 C14 1_555 1_555
C9 C16 1_555 1_555
N4B C10B 1_555 1_555
C3B C11B 1_555 1_555
C3B C12B 1_555 1_555
C4B C8B 1_555 1_555
C7B C15B 1_555 1_555
C7B C17B 1_555 1_555
C9B C14B 1_555 1_555
C9B C16B 1_555 1_555

#END
