
#######################################################################
#
#                 Cambridge Crystallographic Data Centre
#                                CCDC 
#
#######################################################################
#
# If this CIF has been generated from an entry in the Cambridge 
# Structural Database, then it will include bibliographic, chemical, 
# crystal, experimental, refinement or atomic coordinate data resulting 
# from the CCDC's data processing and validation procedures.
#
#######################################################################

data_OQEPEG
_symmetry_cell_setting           triclinic
_symmetry_space_group_name_H-M   'P -1'
_symmetry_Int_Tables_number      2
_space_group_name_Hall           '-P 1'
loop_
_symmetry_equiv_pos_site_id
_symmetry_equiv_pos_as_xyz
1 x,y,z
2 -x,-y,-z
_cell_length_a                   11.2644(5)
_cell_length_b                   12.7025(5)
_cell_length_c                   13.2365(5)
_cell_angle_alpha                97.9220(10)
_cell_angle_beta                 112.9390(10)
_cell_angle_gamma                109.0880(10)
_cell_volume                     1569.84
loop_
_atom_site_label
_atom_site_type_symbol
_atom_site_fract_x
_atom_site_fract_y
_atom_site_fract_z
Mn1 Mn 0.0000 1.0000 0.0000
Mn2 Mn -0.10502(6) 1.06990(5) 0.22334(5)
C1 C -0.0289(5) 1.2288(4) 0.1267(5)
C2 C -0.0193(6) 1.3180(4) 0.0625(5)
C3 C 0.0057(6) 1.4283(4) 0.1152(5)
H1 H 0.0215 1.4482 0.1910
C4 C 0.0082(6) 1.5134(4) 0.0561(5)
C5 C 0.0313(7) 1.6300(4) 0.1052(5)
C6 C -0.0398(6) 1.2869(4) -0.0505(5)
H2 H -0.0588 1.2111 -0.0874
C7 C 0.1656(5) 1.0314(5) 0.2669(8)
C8 C 0.2939(13) 1.0066(11) 0.3336(11)
C9 C 0.3457(12) 1.0403(10) 0.4516(11)
H3 H 0.3006 1.0728 0.4837
C10 C 0.5262(9) 1.0608(8) 0.6463(8)
C11 C 0.4643(12) 1.0262(12) 0.5229(12)
C12 C 0.3602(9) 0.9555(9) 0.2838(10)
H4 H 0.3265 0.9335 0.2044
C18 C -0.2184(4) 0.8232(3) 0.0582(4)
C19 C -0.3186(4) 0.6957(3) 0.0240(4)
C20 C -0.3925(5) 0.6592(4) 0.0803(4)
H7 H -0.3798 0.7129 0.1432
C21 C -0.4897(5) 0.5410(4) 0.0469(4)
C22 C -0.3400(9) 0.6165(5) -0.0711(7)
H8 H -0.2889 0.6404 -0.1108
C23 C -0.5641(9) 0.4964(5) 0.1065(7)
C24 C -0.3115(10) 1.2945(10) 0.1559(12)
H9 H -0.2109 1.3410 0.1958
H10 H -0.3586 1.3380 0.1763
H11 H -0.3435 1.2751 0.0743
C25 C -0.5345(10) 1.1015(10) 0.1148(11)
H12 H -0.5726 1.0289 0.1289
H13 H -0.5604 1.0873 0.0344
H14 H -0.5720 1.1534 0.1368
O1 O -0.0056(5) 1.2602(3) 0.2279(4)
O2 O -0.0686(3) 1.1225(3) 0.0724(3)
O3 O 0.0986(4) 1.0708(4) 0.3104(4)
O4 O 0.1384(4) 1.0041(4) 0.1680(5)
O5 O -0.2004(3) 0.8893(2) 0.1463(3)
O6 O -0.1663(3) 0.8499(2) -0.0072(3)
N1 N 0.0456(8) 1.6651(5) 0.2210(6)
O7 O -0.0495(10) 1.5926(6) 0.2391(7)
O8 O 0.1289(15) 1.7550(9) 0.2837(10)
N2 N 0.4736(6) 1.1300(5) 0.7026(4)
O9 O 0.4221(10) 1.1888(9) 0.6666(9)
O10 O 0.4677(12) 1.0992(9) 0.7893(10)
N3 N -0.5071(9) 0.5679(6) 0.2340(6)
O13 O -0.3820(8) 0.6337(6) 0.2972(5)
O14 O -0.6005(13) 0.5539(9) 0.2624(9)
S1 S -0.0799(4) 1.1779(3) 0.4930(2)
O15 O -0.1359(10) 1.0933(9) 0.3783(8)
C26 C -0.009(3) 1.3213(19) 0.4839(15)
H15 H -0.0835 1.3349 0.4283
H16 H 0.0632 1.3291 0.4607
H17 H 0.0307 1.3774 0.5578
C27 C 0.074(4) 1.176(2) 0.600(3)
H18 H 0.0511 1.1015 0.6136
H19 H 0.1110 1.2368 0.6696
H20 H 0.1449 1.1886 0.5734
S2 S -0.35081(16) 1.16512(16) 0.19504(14)
O16 O -0.3015(4) 1.0857(4) 0.1436(3)
Mn1_2 Mn 0.0000 2.0000 0.0000
Mn1_3 Mn 1.0000 1.0000 1.0000
Mn1_4 Mn -1.0000 0.0000 0.0000
Mn2A Mn 0.10502(6) 1.93010(5) -0.22334(5)
Mn2A_2 Mn 1.10502(6) 0.93010(5) 0.77666(5)
Mn2A_3 Mn -0.89498(6) -0.06990(5) -0.22334(5)
C1A C 0.0289(5) 1.7712(4) -0.1267(5)
C2A C 0.0193(6) 1.6820(4) -0.0625(5)
C3A C -0.0057(6) 1.5717(4) -0.1152(5)
H1A H -0.0215 1.5518 -0.1910
C4A C -0.0082(6) 1.4866(4) -0.0561(5)
C5A C -0.0313(7) 1.3700(4) -0.1052(5)
C6A C 0.0398(6) 1.7131(4) 0.0505(5)
H2A H 0.0588 1.7889 0.0874
C7A C 0.8344(5) 0.9686(5) 0.7331(8)
C8A C 0.7061(13) 0.9934(11) 0.6664(11)
C9A C 0.6543(12) 0.9597(10) 0.5484(11)
H3A H 0.6994 0.9272 0.5163
C10A C 0.4738(9) 0.9392(8) 0.3537(8)
C11A C 0.5357(12) 0.9738(12) 0.4771(12)
C12A C 0.6398(9) 1.0445(9) 0.7162(10)
H4A H 0.6735 1.0665 0.7956
C18A C -0.7816(4) 0.1768(3) -0.0582(4)
C19A C -0.6814(4) 0.3043(3) -0.0240(4)
C20A C -0.6075(5) 0.3408(4) -0.0803(4)
H7A H -0.6202 0.2871 -0.1432
C21A C -0.5103(5) 0.4590(4) -0.0469(4)
C22A C -0.6600(9) 0.3835(5) 0.0711(7)
H8A H -0.7111 0.3596 0.1108
C23A C -0.4359(9) 0.5036(5) -0.1065(7)
C24A C 0.3115(10) 1.7055(10) -0.1559(12)
H9A H 0.2109 1.6590 -0.1958
H10A H 0.3586 1.6620 -0.1763
H11A H 0.3435 1.7249 -0.0743
C25A C 0.5345(10) 1.8985(10) -0.1148(11)
H12A H 0.5726 1.9711 -0.1289
H13A H 0.5604 1.9127 -0.0344
H14A H 0.5720 1.8466 -0.1368
O1A O 0.0056(5) 1.7398(3) -0.2279(4)
O2A O 0.0686(3) 1.8775(3) -0.0724(3)
O2A_2 O 0.0686(3) 0.8775(3) -0.0724(3)
O3A O 0.9014(4) 0.9292(4) 0.6896(4)
O3A_2 O -0.0986(4) 1.9292(4) -0.3104(4)
O4A O 0.8616(4) 0.9959(4) 0.8320(5)
O4A_2 O -0.1384(4) 0.9959(4) -0.1680(5)
O5A O -0.7996(3) 0.1107(2) -0.1463(3)
O5A_2 O 0.2004(3) 2.1107(2) -0.1463(3)
O6A O -0.8337(3) 0.1501(2) 0.0072(3)
O6A_2 O 0.1663(3) 1.1501(2) 0.0072(3)
N1A N -0.0456(8) 1.3349(5) -0.2210(6)
O7A O 0.0495(10) 1.4074(6) -0.2391(7)
O8A O -0.1289(15) 1.2450(9) -0.2837(10)
N2A N 0.5264(6) 0.8700(5) 0.2974(4)
O9A O 0.5779(10) 0.8112(9) 0.3334(9)
O10A O 0.5323(12) 0.9008(9) 0.2107(10)
N3A N -0.4929(9) 0.4321(6) -0.2340(6)
O13A O -0.6180(8) 0.3663(6) -0.2972(5)
O14A O -0.3995(13) 0.4461(9) -0.2624(9)
S1A S 0.0799(4) 1.8221(3) -0.4930(2)
O15A O 0.1359(10) 1.9067(9) -0.3783(8)
C26A C 0.009(3) 1.6787(19) -0.4839(15)
H15A H 0.0835 1.6651 -0.4283
H16A H -0.0632 1.6709 -0.4607
H17A H -0.0307 1.6226 -0.5578
C27A C -0.074(4) 1.824(2) -0.600(3)
H18A H -0.0511 1.8985 -0.6136
H19A H -0.1110 1.7632 -0.6696
H20A H -0.1449 1.8114 -0.5734
S2A S 0.35081(16) 1.83488(16) -0.19504(14)
O16A O 0.3015(4) 1.9143(4) -0.1436(3)
C28 C -0.653(3) 0.666(3) -0.5183(18)
S3 S -0.5685(5) 0.5879(4) -0.4252(5)
O17 O -0.5902(11) 0.6117(11) -0.3209(8)
C29 C -0.3945(15) 0.6711(10) -0.3796(17)
C13? C 0.2911(16) 1.0391(14) 0.3831(16)
C14? C 0.3285(11) 1.0892(9) 0.4971(9)
H5? H 0.2758 1.1243 0.5154
C15? C 0.4446(12) 1.0860(11) 0.5826(9)
C16? C 0.5192(13) 1.0258(13) 0.5566(13)
C17? C 0.3594(14) 0.9816(11) 0.3529(11)
H6? H 0.3300 0.9470 0.2756
O11? O 0.3760(15) 1.1246(16) 0.7135(14)
O12? O 0.6023(12) 1.2035(10) 0.7739(9)
C30? C 0.058(3) 1.324(2) 0.5066(17)
C31? C 0.059(5) 1.149(2) 0.595(3)
C32? C -0.704(4) 0.554(4) -0.508(5)
H21? H 0.0512 1.3550 0.4435
H22? H 0.1394 1.3787 0.5761
H23? H -0.0262 1.3101 0.5153
H24? H 0.1401 1.1960 0.6677
H25? H 0.0578 1.0723 0.5754
H26? H -0.0258 1.1418 0.5987
N4? N -0.3537(11) 0.4193(9) -0.1339(10)
O18? O -0.3404(10) 0.3353(8) -0.1021(9)
O19? O -0.332(2) 0.4411(14) -0.2100(16)
O20? O -0.0656(12) 1.1231(11) 0.3891(11)
O21? O 0.024(3) 1.7439(16) 0.2499(16)
O22? O 0.144(2) 1.6473(13) 0.3087(13)
S4? S 0.0714(4) 1.2164(3) 0.4842(3)
S5? S -0.5605(12) 0.6903(7) -0.4062(10)
loop_
_geom_bond_atom_site_label_1
_geom_bond_atom_site_label_2
_geom_bond_site_symmetry_1
_geom_bond_site_symmetry_2
Mn1 O2 1_555 1_555
Mn2 O1 1_555 1_555
C1 C2 1_555 1_555
C2 C3 1_555 1_555
C3 H1 1_555 1_555
C4 C3 1_555 1_555
C5 C4 1_555 1_555
C6 C2 1_555 1_555
H2 C6 1_555 1_555
C7 C8 1_555 1_555
C8 C9 1_555 1_555
C9 H3 1_555 1_555
C10 C11 1_555 1_555
C11 C9 1_555 1_555
C12 C8 1_555 1_555
H4 C12 1_555 1_555
C18 C19 1_555 1_555
C19 C20 1_555 1_555
C20 H7 1_555 1_555
C21 C20 1_555 1_555
C22 C19 1_555 1_555
H8 C22 1_555 1_555
C23 C21 1_555 1_555
C24 H9 1_555 1_555
H10 C24 1_555 1_555
H11 C24 1_555 1_555
C25 H12 1_555 1_555
H13 C25 1_555 1_555
H14 C25 1_555 1_555
O1 C1 1_555 1_555
O2 Mn2 1_555 1_555
O3 Mn2 1_555 1_555
O4 Mn1 1_555 1_555
O5 Mn2 1_555 1_555
O6 Mn1 1_555 1_555
N1 C5 1_555 1_555
O7 N1 1_555 1_555
O8 N1 1_555 1_555
N2 C10 1_555 1_555
O9 N2 1_555 1_555
O10 N2 1_555 1_555
N3 C23 1_555 1_555
O13 N3 1_555 1_555
O14 N3 1_555 1_555
S1 O15 1_555 1_555
O15 Mn2 1_555 1_555
C26 S1 1_555 1_555
H15 C26 1_555 1_555
H16 C26 1_555 1_555
H17 C26 1_555 1_555
C27 S1 1_555 1_555
H18 C27 1_555 1_555
H19 C27 1_555 1_555
H20 C27 1_555 1_555
S2 C24 1_555 1_555
O16 Mn2 1_555 1_555
C28 S3 1_555 1_555
S3 O17 1_555 1_555
C29 S3 1_555 1_555
Mn1_2 O2A 1_555 1_555
Mn1_3 O4A 1_555 1_555
Mn1_4 O6A 1_555 1_555
Mn2A O1A 1_555 1_555
Mn2A_2 O3A 1_555 1_555
Mn2A_3 O5A 1_555 1_555
C1A C2A 1_555 1_555
C2A C3A 1_555 1_555
C3A H1A 1_555 1_555
C4A C4 1_555 1_555
C5A C6 1_555 1_555
C6A C5 1_555 1_555
H2A C6A 1_555 1_555
C7A C8A 1_555 1_555
C8A C9A 1_555 1_555
C9A H3A 1_555 1_555
C10A C12 1_555 1_555
C11A C11 1_555 1_555
C12A C10 1_555 1_555
H4A C12A 1_555 1_555
C18A C19A 1_555 1_555
C19A C20A 1_555 1_555
C20A H7A 1_555 1_555
C21A C21 1_555 1_555
C22A C23 1_555 1_555
H8A C22A 1_555 1_555
C23A C22 1_555 1_555
C24A H9A 1_555 1_555
H10A C24A 1_555 1_555
H11A C24A 1_555 1_555
C25A H12A 1_555 1_555
H13A C25A 1_555 1_555
H14A C25A 1_555 1_555
O1A C1A 1_555 1_555
O2A Mn2A 1_555 1_555
O2A_2 Mn1 1_555 1_555
O3A C7A 1_555 1_555
O3A_2 Mn2A 1_555 1_555
O4A C7A 1_555 1_555
O4A_2 Mn1 1_555 1_555
O5A C18A 1_555 1_555
O5A_2 Mn2A 1_555 1_555
O6A C18A 1_555 1_555
O6A_2 Mn1 1_555 1_555
N1A C5A 1_555 1_555
O7A N1A 1_555 1_555
O8A N1A 1_555 1_555
N2A C10A 1_555 1_555
O9A N2A 1_555 1_555
O10A N2A 1_555 1_555
N3A C23A 1_555 1_555
O13A N3A 1_555 1_555
O14A N3A 1_555 1_555
S1A O15A 1_555 1_555
O15A Mn2A 1_555 1_555
C26A S1A 1_555 1_555
H15A C26A 1_555 1_555
H16A C26A 1_555 1_555
H17A C26A 1_555 1_555
C27A S1A 1_555 1_555
H18A C27A 1_555 1_555
H19A C27A 1_555 1_555
H20A C27A 1_555 1_555
S2A C24A 1_555 1_555
O16A Mn2A 1_555 1_555
C1 O2 1_555 1_555
C7 O3 1_555 1_555
C7 O4 1_555 1_555
C18 O5 1_555 1_555
C18 O6 1_555 1_555
C25 S2 1_555 1_555
S2 O16 1_555 1_555
C1A O2A 1_555 1_555
C2A C6A 1_555 1_555
C3A C4A 1_555 1_555
C4A C5A 1_555 1_555
C8A C12A 1_555 1_555
C9A C11A 1_555 1_555
C10A C11A 1_555 1_555
C19A C22A 1_555 1_555
C20A C21A 1_555 1_555
C21A C23A 1_555 1_555
C25A S2A 1_555 1_555
S2A O16A 1_555 1_555

#END
