
#######################################################################
#
#                 Cambridge Crystallographic Data Centre
#                                CCDC 
#
#######################################################################
#
# If this CIF has been generated from an entry in the Cambridge 
# Structural Database, then it will include bibliographic, chemical, 
# crystal, experimental, refinement or atomic coordinate data resulting 
# from the CCDC's data processing and validation procedures.
#
#######################################################################

data_OQEQIL
_symmetry_cell_setting           monoclinic
_symmetry_space_group_name_H-M   'P 21/n'
_symmetry_Int_Tables_number      14
_space_group_name_Hall           '-P 2yn'
loop_
_symmetry_equiv_pos_site_id
_symmetry_equiv_pos_as_xyz
1 x,y,z
2 1/2-x,1/2+y,1/2-z
3 -x,-y,-z
4 1/2+x,1/2-y,1/2+z
_cell_length_a                   12.8718(11)
_cell_length_b                   19.2117(17)
_cell_length_c                   16.0401(14)
_cell_angle_alpha                90
_cell_angle_beta                 100.6120(10)
_cell_angle_gamma                90
_cell_volume                     3898.7
loop_
_atom_site_label
_atom_site_type_symbol
_atom_site_fract_x
_atom_site_fract_y
_atom_site_fract_z
C1 C -0.21796(18) 0.09773(12) 0.45244(15)
H1 H -0.2042 0.1063 0.5105
C2 C -0.7027(2) 0.27263(14) 0.56330(18)
H2 H -0.7721 0.2605 0.5407
C3 C -0.62435(19) 0.26708(13) 0.51527(17)
H3 H -0.6432 0.2527 0.4592
C4 C -0.3117(2) 0.41373(13) 0.51467(15)
H4 H -0.2649 0.3884 0.5544
C5 C -0.4495(2) 0.41653(13) 0.40178(17)
H5 H -0.5000 0.3933 0.3627
C6 C -0.4458(2) 0.48828(14) 0.39880(19)
H6 H -0.4921 0.5127 0.3577
C7 C -0.3724(2) 0.52323(13) 0.45760(18)
H7 H -0.3692 0.5716 0.4575
C8 C -0.3041(2) 0.48531(13) 0.51622(17)
H8 H -0.2535 0.5075 0.5563
C9 C -0.42814(19) 0.11115(12) 0.59120(15)
H9 H -0.3653 0.1294 0.6212
C10 C -0.4804(2) 0.06167(13) 0.62994(16)
H10 H -0.4525 0.0465 0.6845
C11 C -0.5742(2) 0.03495(13) 0.58696(19)
H11 H -0.6113 0.0020 0.6123
C12 C -0.6122(2) 0.05778(13) 0.50585(19)
H12 H -0.6754 0.0405 0.4754
C13 C -0.55463(18) 0.10689(12) 0.47031(16)
H13 H -0.5799 0.1215 0.4150
C14 C -0.1647(2) 0.04378(13) 0.42128(16)
H14 H -0.1170 0.0165 0.4579
C15 C -0.1835(2) 0.03120(13) 0.33550(17)
H15 H -0.1489 -0.0047 0.3130
C16 C -0.2547(2) 0.07301(13) 0.28352(16)
H16 H -0.2683 0.0661 0.2251
C17 C -0.30542(19) 0.12493(12) 0.31896(15)
H17 H -0.3540 0.1524 0.2833
C18 C -0.25640(19) 0.32365(12) 0.30832(15)
H18 H -0.3270 0.3325 0.2858
C19 C -0.1804(2) 0.34687(13) 0.26454(16)
H19 H -0.1995 0.3710 0.2138
C20 C -0.0756(2) 0.33371(13) 0.29738(17)
H20 H -0.0228 0.3483 0.2688
C21 C -0.05010(19) 0.29850(13) 0.37346(17)
H21 H 0.0201 0.2896 0.3974
C22 C -0.13055(19) 0.27676(13) 0.41335(16)
H22 H -0.1131 0.2527 0.4643
C23 C -0.6758(2) 0.29640(14) 0.64510(18)
H23 H -0.7268 0.3007 0.6790
C24 C -0.5718(2) 0.31377(14) 0.67641(17)
H24 H -0.5521 0.3313 0.7311
C25 C -0.4981(2) 0.30467(13) 0.62534(15)
H25 H -0.4279 0.3152 0.6472
C26 C -0.7904(2) 0.06038(15) 0.26163(18)
H26 H -0.7600 0.0388 0.2201
C27 C -0.8159(2) 0.15761(14) 0.33523(17)
H27 H -0.8038 0.2047 0.3466
C28 C -0.4606(2) 0.14340(13) 0.09289(16)
H28 H -0.4489 0.1884 0.0755
C29 C -0.8796(2) 0.12136(16) 0.38131(18)
H29 H -0.9099 0.1439 0.4222
C30 C -0.8970(2) 0.05169(16) 0.36554(18)
H30 H -0.9391 0.0261 0.3957
C31 C -0.8513(2) 0.02062(14) 0.30452(18)
H31 H -0.8614 -0.0265 0.2925
C32 C -0.4091(2) 0.08938(14) 0.06114(16)
H32 H -0.3634 0.0981 0.0236
C33 C -0.4263(2) 0.02226(14) 0.08591(17)
H33 H -0.3923 -0.0151 0.0656
C34 C -0.4947(2) 0.01155(14) 0.14108(19)
H34 H -0.5089 -0.0331 0.1583
C35 C -0.5419(2) 0.06878(15) 0.17023(18)
H35 H -0.5873 0.0613 0.2082
I1 I -0.769950(12) 0.365410(8) 0.321730(10)
I2 I -0.471120(13) 0.353400(8) 0.110050(10)
K1 K -0.63448(4) 0.24828(2) 0.21134(3)
N1 N -0.52294(15) 0.28132(10) 0.54537(12)
N2 N -0.46382(15) 0.13428(9) 0.51222(12)
N3 N -0.28844(14) 0.13808(9) 0.40256(12)
N4 N -0.23305(15) 0.28884(10) 0.38192(12)
N5 N -0.38332(15) 0.37895(10) 0.45874(12)
N6 N -0.77153(18) 0.12800(12) 0.27540(14)
N7 N -0.52627(17) 0.13450(11) 0.14725(14)
Np1 Np -0.379840(6) 0.244260(4) 0.459070(5)
O1 O -0.47757(13) 0.24221(8) 0.36178(10)
O2 O -0.28321(13) 0.24568(8) 0.55722(10)
K1C K -0.13448(4) 0.25172(2) 0.71134(3)
O2C O -0.78321(13) 0.25432(8) 0.05722(10)
loop_
_geom_bond_atom_site_label_1
_geom_bond_atom_site_label_2
_geom_bond_site_symmetry_1
_geom_bond_site_symmetry_2
C1 H1 1_555 1_555
C2 H2 1_555 1_555
C3 C2 1_555 1_555
H3 C3 1_555 1_555
C4 H4 1_555 1_555
C5 H5 1_555 1_555
C6 C5 1_555 1_555
H6 C6 1_555 1_555
C7 C6 1_555 1_555
H7 C7 1_555 1_555
C8 C4 1_555 1_555
H8 C8 1_555 1_555
C9 H9 1_555 1_555
C10 C9 1_555 1_555
H10 C10 1_555 1_555
C11 C10 1_555 1_555
H11 C11 1_555 1_555
C12 C11 1_555 1_555
H12 C12 1_555 1_555
C13 C12 1_555 1_555
H13 C13 1_555 1_555
C14 C1 1_555 1_555
H14 C14 1_555 1_555
C15 C14 1_555 1_555
H15 C15 1_555 1_555
C16 C15 1_555 1_555
H16 C16 1_555 1_555
C17 C16 1_555 1_555
H17 C17 1_555 1_555
C18 H18 1_555 1_555
C19 C18 1_555 1_555
H19 C19 1_555 1_555
C20 C19 1_555 1_555
H20 C20 1_555 1_555
C21 C20 1_555 1_555
H21 C21 1_555 1_555
C22 C21 1_555 1_555
H22 C22 1_555 1_555
C23 C2 1_555 1_555
H23 C23 1_555 1_555
C24 C23 1_555 1_555
H24 C24 1_555 1_555
C25 C24 1_555 1_555
H25 C25 1_555 1_555
C26 H26 1_555 1_555
C27 H27 1_555 1_555
C28 H28 1_555 1_555
C29 C27 1_555 1_555
H29 C29 1_555 1_555
C30 C29 1_555 1_555
H30 C30 1_555 1_555
C31 C26 1_555 1_555
H31 C31 1_555 1_555
C32 C28 1_555 1_555
H32 C32 1_555 1_555
C33 C32 1_555 1_555
H33 C33 1_555 1_555
C34 C33 1_555 1_555
H34 C34 1_555 1_555
C35 C34 1_555 1_555
H35 C35 1_555 1_555
I1 K1 1_555 1_555
I2 K1 1_555 1_555
K1 N6 1_555 1_555
N1 C3 1_555 1_555
N2 C9 1_555 1_555
N3 C1 1_555 1_555
N4 C18 1_555 1_555
N5 C4 1_555 1_555
N6 C26 1_555 1_555
N7 C28 1_555 1_555
Np1 N1 1_555 1_555
O1 K1 1_555 1_555
O2 Np1 1_555 1_555
K1C O2 1_555 1_555
O2C K1 1_555 1_555
C5 N5 1_555 1_555
C7 C8 1_555 1_555
C13 N2 1_555 1_555
C17 N3 1_555 1_555
C22 N4 1_555 1_555
C25 N1 1_555 1_555
C27 N6 1_555 1_555
C30 C31 1_555 1_555
C35 N7 1_555 1_555
K1 N7 1_555 1_555
N2 Np1 1_555 1_555
N3 Np1 1_555 1_555
N4 Np1 1_555 1_555
N5 Np1 1_555 1_555
Np1 O1 1_555 1_555

#END
