
#######################################################################
#
#                 Cambridge Crystallographic Data Centre
#                                CCDC 
#
#######################################################################
#
# If this CIF has been generated from an entry in the Cambridge 
# Structural Database, then it will include bibliographic, chemical, 
# crystal, experimental, refinement or atomic coordinate data resulting 
# from the CCDC's data processing and validation procedures.
#
#######################################################################

data_OQEROS
_symmetry_cell_setting           monoclinic
_symmetry_space_group_name_H-M   'C 2/c'
_symmetry_Int_Tables_number      15
_space_group_name_Hall           '-C 2yn'
loop_
_symmetry_equiv_pos_site_id
_symmetry_equiv_pos_as_xyz
1 x,y,z
2 -x,y,1/2-z
3 1/2+x,1/2+y,z
4 1/2-x,1/2+y,1/2-z
5 -x,-y,-z
6 x,-y,1/2+z
7 1/2-x,1/2-y,-z
8 1/2+x,1/2-y,1/2+z
_cell_length_a                   7.29530(10)
_cell_length_b                   25.5761(7)
_cell_length_c                   30.7597(6)
_cell_angle_alpha                90
_cell_angle_beta                 96.361(2)
_cell_angle_gamma                90
_cell_volume                     5703.97
loop_
_atom_site_label
_atom_site_type_symbol
_atom_site_fract_x
_atom_site_fract_y
_atom_site_fract_z
Cd2 Cd 1.0000 0.2909(2) 0.2500
O5 O 0.991(5) 0.2418(15) 0.3074(9)
Cd1 Cd 0.5000 0.34476(3) 0.2500
Pd1 Pd 1.5000 0.5000 0.0000
O1 O 0.7851(8) 0.3686(3) 0.22808(18)
O2 O 0.5485(9) 0.4081(3) 0.1943(2)
O3 O 2.087(4) 0.7640(7) 0.2022(6)
O4 O 1.803(4) 0.7973(5) 0.1961(4)
N1 N 1.4447(9) 0.5295(3) 0.05850(19)
N2 N 1.2867(9) 0.4502(3) -0.0003(2)
C1 C 1.5364(13) 0.5692(4) 0.0816(3)
C2 C 1.4591(16) 0.5756(5) 0.1223(3)
H1 H 1.4974 0.5994 0.1443
C3 C 1.3246(14) 0.5417(5) 0.1224(3)
H2 H 1.2499 0.5379 0.1448
C4 C 1.3093(12) 0.5114(4) 0.0832(3)
C5 C 1.1839(11) 0.4725(4) 0.0713(3)
C6 C 1.1709(12) 0.4447(4) 0.0320(3)
C7 C 1.0463(18) 0.4047(5) 0.0203(4)
H3 H 0.9528 0.3936 0.0364
C8 C 1.0835(18) 0.3845(5) -0.0182(4)
H4 H 1.0233 0.3568 -0.0333
C9 C 1.2316(14) 0.4137(4) -0.0309(3)
C10 C 1.6826(14) 0.5967(4) 0.0695(3)
C11 C 1.0624(11) 0.4553(4) 0.1050(3)
C12 C 1.1363(12) 0.4282(4) 0.1417(3)
H5 H 1.2621 0.4213 0.1458
C13 C 1.0252(12) 0.4116(4) 0.1719(3)
H6 H 1.0773 0.3939 0.1966
C14 C 0.8373(11) 0.4204(4) 0.1664(2)
C15 C 0.7642(12) 0.4481(4) 0.1305(3)
H7 H 0.6387 0.4556 0.1267
C16 C 0.8749(12) 0.4646(4) 0.1002(3)
H8 H 0.8225 0.4826 0.0756
C17 C 0.7153(12) 0.3975(4) 0.1987(3)
C18 C 1.7530(14) 0.6408(3) 0.0981(2)
C19 C 1.9269(13) 0.6381(3) 0.1216(3)
H9 H 2.0028 0.6095 0.1181
C20 C 1.9874(14) 0.6782(5) 0.1502(3)
H10 H 2.1038 0.6764 0.1659
C21 C 1.874(2) 0.7209(4) 0.1554(3)
C22 C 1.700(2) 0.7235(3) 0.1319(4)
H11 H 1.6242 0.7521 0.1354
C23 C 1.6396(15) 0.6835(4) 0.1033(3)
H12 H 1.5233 0.6853 0.0876
C24 C 1.928(4) 0.7637(8) 0.1888(6)
Cd1B Cd 2.0000 0.84476(3) 0.2500
Cd1F Cd 1.0000 0.15524(3) -0.2500
Cd1D Cd 2.5000 0.65524(3) -0.2500
O1D O 2.2149(8) 0.6314(3) -0.22808(18)
O1A O 0.2149(8) 0.3686(3) 0.27192(18)
O2D O 2.4515(9) 0.5919(3) -0.1943(2)
O2A O 0.4515(9) 0.4081(3) 0.3057(2)
O3D O 0.913(4) 0.2360(7) -0.2022(6)
O3B O 0.587(4) 0.2640(7) 0.2022(6)
O3C O 0.413(4) 0.2640(7) 0.2978(6)
O4D O 1.197(4) 0.2027(5) -0.1961(4)
O4B O 0.303(4) 0.2973(5) 0.1961(4)
O4C O 0.697(4) 0.2973(5) 0.3039(4)
N1D N 1.5553(9) 0.4705(3) -0.05850(19)
N2D N 1.7133(9) 0.5498(3) 0.0003(2)
C1D C 1.4636(13) 0.4308(4) -0.0816(3)
C2D C 1.5409(16) 0.4244(5) -0.1223(3)
H1D H 1.5026 0.4006 -0.1443
C3D C 1.6754(14) 0.4583(5) -0.1224(3)
H2D H 1.7501 0.4621 -0.1448
C4D C 1.6907(12) 0.4886(4) -0.0832(3)
C5D C 1.8161(11) 0.5275(4) -0.0713(3)
C6D C 1.8291(12) 0.5553(4) -0.0320(3)
C7D C 1.9537(18) 0.5953(5) -0.0203(4)
H3D H 2.0472 0.6064 -0.0364
C8D C 1.9165(18) 0.6155(5) 0.0182(4)
H4D H 1.9767 0.6432 0.0333
C9D C 1.7684(14) 0.5863(4) 0.0309(3)
C10D C 1.3174(14) 0.4033(4) -0.0695(3)
C11D C 1.9376(11) 0.5447(4) -0.1050(3)
C12D C 1.8637(12) 0.5718(4) -0.1417(3)
H5D H 1.7379 0.5787 -0.1458
C13D C 1.9748(12) 0.5884(4) -0.1719(3)
H6D H 1.9227 0.6061 -0.1966
C14D C 2.1627(11) 0.5796(4) -0.1664(2)
C15D C 2.2358(12) 0.5519(4) -0.1305(3)
H7D H 2.3613 0.5444 -0.1267
C16D C 2.1251(12) 0.5354(4) -0.1002(3)
H8D H 2.1775 0.5174 -0.0756
C17D C 2.2847(12) 0.6025(4) -0.1987(3)
C18D C 1.2470(14) 0.3592(3) -0.0981(2)
C19D C 1.0731(13) 0.3619(3) -0.1216(3)
H9D H 0.9972 0.3905 -0.1181
C20D C 1.0126(14) 0.3218(5) -0.1502(3)
H10D H 0.8962 0.3236 -0.1659
C21D C 1.126(2) 0.2791(4) -0.1554(3)
C22D C 1.300(2) 0.2765(3) -0.1319(4)
H11D H 1.3758 0.2479 -0.1354
C23D C 1.3604(15) 0.3165(4) -0.1033(3)
H12D H 1.4767 0.3147 -0.0876
C24D C 1.072(4) 0.2363(8) -0.1888(6)
loop_
_geom_bond_atom_site_label_1
_geom_bond_atom_site_label_2
_geom_bond_site_symmetry_1
_geom_bond_site_symmetry_2
Cd1 O1 1_555 1_555
Pd1 N1 1_555 1_555
O1 C17 1_555 1_555
O2 Cd1 1_555 1_555
O3 C24 1_555 1_555
O4 C24 1_555 1_555
N1 C1 1_555 1_555
N2 Pd1 1_555 1_555
C1 C2 1_555 1_555
C2 H1 1_555 1_555
C3 C2 1_555 1_555
H2 C3 1_555 1_555
C4 N1 1_555 1_555
C5 C4 1_555 1_555
C6 N2 1_555 1_555
C7 C6 1_555 1_555
H3 C7 1_555 1_555
C8 C7 1_555 1_555
H4 C8 1_555 1_555
C9 N2 1_555 1_555
C10 C1 1_555 1_555
C11 C5 1_555 1_555
C12 C11 1_555 1_555
H5 C12 1_555 1_555
C13 C12 1_555 1_555
H6 C13 1_555 1_555
C14 C13 1_555 1_555
C15 C14 1_555 1_555
H7 C15 1_555 1_555
C16 C11 1_555 1_555
H8 C16 1_555 1_555
C17 O2 1_555 1_555
C18 C10 1_555 1_555
C19 C18 1_555 1_555
H9 C19 1_555 1_555
C20 C19 1_555 1_555
H10 C20 1_555 1_555
C21 C20 1_555 1_555
C22 C21 1_555 1_555
H11 C22 1_555 1_555
C23 C18 1_555 1_555
H12 C23 1_555 1_555
C24 C21 1_555 1_555
Cd1B O3 1_555 1_555
Cd1F O3D 1_555 1_555
Cd1D O1D 1_555 1_555
O1D C17D 1_555 1_555
O1A Cd1 1_555 1_555
O2D Cd1D 1_555 1_555
O2A Cd1 1_555 1_555
O3D C24D 1_555 1_555
O3B Cd1 1_555 1_555
O3C Cd1 1_555 1_555
O4D Cd1F 1_555 1_555
O4B Cd1 1_555 1_555
O4C Cd1 1_555 1_555
N1D Pd1 1_555 1_555
N2D Pd1 1_555 1_555
C1D N1D 1_555 1_555
C2D C1D 1_555 1_555
H1D C2D 1_555 1_555
C3D C2D 1_555 1_555
H2D C3D 1_555 1_555
C4D N1D 1_555 1_555
C5D C4D 1_555 1_555
C6D N2D 1_555 1_555
C7D C6D 1_555 1_555
H3D C7D 1_555 1_555
C8D C7D 1_555 1_555
H4D C8D 1_555 1_555
C9D C10 1_555 1_555
C10D C9 1_555 1_555
C11D C5D 1_555 1_555
C12D C11D 1_555 1_555
H5D C12D 1_555 1_555
C13D C12D 1_555 1_555
H6D C13D 1_555 1_555
C14D C13D 1_555 1_555
C15D C14D 1_555 1_555
H7D C15D 1_555 1_555
C16D C11D 1_555 1_555
H8D C16D 1_555 1_555
C17D O2D 1_555 1_555
C18D C10D 1_555 1_555
C19D C18D 1_555 1_555
H9D C19D 1_555 1_555
C20D C19D 1_555 1_555
H10D C20D 1_555 1_555
C21D C20D 1_555 1_555
C22D C21D 1_555 1_555
H11D C22D 1_555 1_555
C23D C18D 1_555 1_555
H12D C23D 1_555 1_555
C24D O4D 1_555 1_555
O4 Cd1B 1_555 1_555
C3 C4 1_555 1_555
C5 C6 1_555 1_555
C8 C9 1_555 1_555
C14 C17 1_555 1_555
C15 C16 1_555 1_555
C22 C23 1_555 1_555
N2D C9D 1_555 1_555
C1D C10D 1_555 1_555
C3D C4D 1_555 1_555
C5D C6D 1_555 1_555
C8D C9D 1_555 1_555
C14D C17D 1_555 1_555
C15D C16D 1_555 1_555
C21D C24D 1_555 1_555
C22D C23D 1_555 1_555

#END
