
#######################################################################
#
#                 Cambridge Crystallographic Data Centre
#                                CCDC 
#
#######################################################################
#
# If this CIF has been generated from an entry in the Cambridge 
# Structural Database, then it will include bibliographic, chemical, 
# crystal, experimental, refinement or atomic coordinate data resulting 
# from the CCDC's data processing and validation procedures.
#
#######################################################################

data_OQIJII
_symmetry_cell_setting           monoclinic
_symmetry_space_group_name_H-M   'C 2/c'
_symmetry_Int_Tables_number      15
_space_group_name_Hall           '-C 2yn'
loop_
_symmetry_equiv_pos_site_id
_symmetry_equiv_pos_as_xyz
1 x,y,z
2 -x,y,1/2-z
3 1/2+x,1/2+y,z
4 1/2-x,1/2+y,1/2-z
5 -x,-y,-z
6 x,-y,1/2+z
7 1/2-x,1/2-y,-z
8 1/2+x,1/2-y,1/2+z
_cell_length_a                   13.775(3)
_cell_length_b                   7.3943(15)
_cell_length_c                   13.088(3)
_cell_angle_alpha                90
_cell_angle_beta                 90.29(3)
_cell_angle_gamma                90
_cell_volume                     1333.08
loop_
_atom_site_label
_atom_site_type_symbol
_atom_site_fract_x
_atom_site_fract_y
_atom_site_fract_z
N1 N 0.8884(3) -0.4132(5) 0.9537(2)
N2 N 0.9233(2) -0.4080(4) 1.1338(2)
N3 N 0.6170(2) -0.6662(4) 1.0478(2)
N4 N 0.5612(2) -0.6672(4) 0.9617(2)
N5 N 0.6019(2) -0.5631(5) 0.8940(2)
N6 N 0.6841(2) -0.4913(4) 0.9327(2)
N7 N 0.8737(2) -0.4493(4) 1.2220(2)
C1 C 0.7867(3) -0.5082(5) 1.1990(3)
C2 C 0.6916(2) -0.5569(5) 1.0276(3)
C3 C 0.7735(2) -0.5085(5) 1.0933(3)
C4 C 0.8622(2) -0.4408(5) 1.0569(3)
H1 H 0.842(3) -0.389(6) 0.931(3)
H2 H 0.925(3) -0.341(6) 0.946(3)
H3 H 0.747(3) -0.538(6) 1.248(4)
Zn1 Zn 0.93278(3) -0.64598(6) 0.85394(3)
O1 O 1.0000 -0.8751(6) 0.7500
H4 H 1.032(4) -0.934(8) 0.787(4)
N1D N 1.1116(3) -0.5868(5) 1.0463(2)
N2D N 1.0767(2) -0.5920(4) 0.8662(2)
N3D N 1.3830(2) -0.3338(4) 0.9522(2)
N3F N 0.8830(2) -0.8338(4) 0.9522(2)
N3B N 1.1170(2) -0.1662(4) 1.0478(2)
N4D N 1.4388(2) -0.3328(4) 1.0383(2)
N5D N 1.3981(2) -0.4369(5) 1.1060(2)
N6D N 1.3159(2) -0.5087(4) 1.0673(2)
N7D N 1.1263(2) -0.5507(4) 0.7780(2)
N7E N 0.8737(2) -0.5507(4) 0.7220(2)
N7A N 1.1263(2) -0.4493(4) 1.2780(2)
C1D C 1.2133(3) -0.4918(5) 0.8010(3)
C2D C 1.3084(2) -0.4431(5) 0.9724(3)
C3D C 1.2265(2) -0.4915(5) 0.9067(3)
C4D C 1.1378(2) -0.5592(5) 0.9431(3)
H1D H 1.158(3) -0.611(6) 1.069(3)
H2D H 1.075(3) -0.659(6) 1.054(3)
H3D H 1.253(3) -0.462(6) 0.752(4)
Zn1D Zn 1.06722(3) -0.35402(6) 1.14606(3)
Zn1F Zn 0.56722(3) -0.85402(6) 1.14606(3)
Zn1E Zn 0.93278(3) -0.35402(6) 1.35394(3)
Zn1A Zn 1.06722(3) -0.64598(6) 0.64606(3)
Zn1B Zn 1.43278(3) -0.14598(6) 0.85394(3)
O1D O 1.0000 -0.1249(6) 1.2500
H4A H 0.968(4) -0.934(8) 0.713(4)
H4D H 0.968(4) -0.066(8) 1.213(4)
H4E H 1.032(4) -0.066(8) 1.287(4)
loop_
_geom_bond_atom_site_label_1
_geom_bond_atom_site_label_2
_geom_bond_site_symmetry_1
_geom_bond_site_symmetry_2
N1 C4 1_555 1_555
N2 N7 1_555 1_555
N3 N4 1_555 1_555
N4 N5 1_555 1_555
N5 N6 1_555 1_555
N6 C2 1_555 1_555
N7 C1 1_555 1_555
C1 C3 1_555 1_555
C2 N3 1_555 1_555
C3 C2 1_555 1_555
C4 N2 1_555 1_555
H1 N1 1_555 1_555
H2 N1 1_555 1_555
H3 C1 1_555 1_555
Zn1 N1 1_555 1_555
O1 Zn1 1_555 1_555
H4 O1 1_555 1_555
N1D C4D 1_555 1_555
N2D Zn1 1_555 1_555
N3D N4D 1_555 1_555
N3F Zn1 1_555 1_555
N3B Zn1D 1_555 1_555
N4D N5D 1_555 1_555
N5D N6D 1_555 1_555
N6D C2D 1_555 1_555
N7D N2D 1_555 1_555
N7E Zn1 1_555 1_555
N7A Zn1D 1_555 1_555
C1D N7D 1_555 1_555
C2D N3D 1_555 1_555
C3D C1D 1_555 1_555
C4D N2D 1_555 1_555
H1D N1D 1_555 1_555
H2D N1D 1_555 1_555
H3D C1D 1_555 1_555
Zn1D N2 1_555 1_555
Zn1F N3 1_555 1_555
Zn1E N7 1_555 1_555
Zn1A O1 1_555 1_555
Zn1B N3D 1_555 1_555
O1D Zn1D 1_555 1_555
H4A O1 1_555 1_555
H4D O1D 1_555 1_555
H4E O1D 1_555 1_555
C3 C4 1_555 1_555
N1D Zn1D 1_555 1_555
N7D Zn1A 1_555 1_555
C2D C3D 1_555 1_555
C3D C4D 1_555 1_555
Zn1E O1D 1_555 1_555

#END
