
#######################################################################
#
#                 Cambridge Crystallographic Data Centre
#                                CCDC 
#
#######################################################################
#
# If this CIF has been generated from an entry in the Cambridge 
# Structural Database, then it will include bibliographic, chemical, 
# crystal, experimental, refinement or atomic coordinate data resulting 
# from the CCDC's data processing and validation procedures.
#
#######################################################################

data_OQILIK
_symmetry_cell_setting           monoclinic
_symmetry_space_group_name_H-M   'P 21'
_symmetry_Int_Tables_number      4
_space_group_name_Hall           'P 2yb'
loop_
_symmetry_equiv_pos_site_id
_symmetry_equiv_pos_as_xyz
1 x,y,z
2 -x,1/2+y,-z
_cell_length_a                   11.285(2)
_cell_length_b                   9.0216(19)
_cell_length_c                   16.173(4)
_cell_angle_alpha                90
_cell_angle_beta                 99.770(4)
_cell_angle_gamma                90
_cell_volume                     1622.67
loop_
_atom_site_label
_atom_site_type_symbol
_atom_site_fract_x
_atom_site_fract_y
_atom_site_fract_z
Ag1 Ag 0.74653(2) 0.74920(2) 0.914590(15)
Ag2 Ag 0.76995(2) 0.72411(2) 1.101742(15)
N1 N 0.5734(3) 0.8571(3) 0.90339(19)
H1 H 0.5152 0.7850 0.8999
H2 H 0.5715 0.9098 0.9519
N2 N 0.3986(3) 1.1112(3) 0.89932(19)
H3 H 0.4584 1.1815 0.9047
H4 H 0.4128 1.0527 0.9466
C1 C 0.5409(3) 0.9595(4) 0.8308(2)
H5 H 0.5965 1.0467 0.8393
C2 C 0.4107(3) 1.0163(4) 0.8258(2)
H6 H 0.3565 0.9286 0.8259
C3 C 0.3703(3) 1.1031(4) 0.7454(2)
H7 H 0.4180 1.1956 0.7470
H8 H 0.2847 1.1310 0.7417
C4 C 0.3856(3) 1.0135(5) 0.6679(2)
H9 H 0.3353 0.9231 0.6646
H10 H 0.3588 1.0732 0.6168
C5 C 0.5157(4) 0.9708(4) 0.6724(2)
H11 H 0.5654 1.0612 0.6726
H12 H 0.5249 0.9114 0.6224
C6 C 0.5588(3) 0.8809(4) 0.7516(2)
H13 H 0.5148 0.7855 0.7478
H14 H 0.6453 0.8585 0.7548
N3 N 0.9099(3) 0.6224(3) 0.92161(18)
H15 H 0.9735 0.6825 0.9433
H16 H 0.9075 0.5460 0.9590
N4 N 1.0787(3) 0.3656(3) 0.90495(18)
H17 H 1.0100 0.3092 0.8928
H18 H 1.0843 0.3974 0.9595
C7 C 0.9344(3) 0.5584(4) 0.8416(2)
H19 H 0.8783 0.4729 0.8271
C8 C 1.0632(3) 0.4987(4) 0.8494(2)
H20 H 1.1195 0.5773 0.8760
C9 C 1.0979(3) 0.4589(4) 0.7653(2)
H21 H 1.0533 0.3692 0.7427
H22 H 1.1849 0.4360 0.7734
C10 C 1.0698(4) 0.5865(4) 0.7023(3)
H23 H 1.1170 0.6753 0.7236
H24 H 1.0928 0.5579 0.6481
C11 C 0.9371(3) 0.6220(4) 0.6896(2)
H25 H 0.8898 0.5328 0.6694
H26 H 0.9181 0.7010 0.6470
C12 C 0.9047(3) 0.6730(4) 0.7725(2)
H27 H 0.9487 0.7657 0.7901
H28 H 0.8176 0.6952 0.7643
O3 O 0.9034(2) 0.5340(3) 1.19551(17)
O4 O 1.0822(2) 0.6444(3) 1.20242(15)
C21 C 1.0057(3) 0.5712(4) 1.2331(2)
C22 C 1.0421(3) 0.5188(4) 1.3226(2)
C23 C 1.1621(3) 0.5139(4) 1.3594(2)
H36 H 1.2218 0.5531 1.3305
C24 C 1.1951(4) 0.4519(5) 1.4382(3)
H37 H 1.2778 0.4496 1.4627
C25 C 1.1114(4) 0.3931(4) 1.4826(2)
C26 C 1.1500(5) 0.3099(5) 1.5632(3)
H38 H 1.0788 0.2783 1.5858
H39 H 1.1996 0.3745 1.6038
H40 H 1.1968 0.2226 1.5524
C27 C 0.9917(4) 0.4039(5) 1.4469(3)
H41 H 0.9320 0.3695 1.4773
C28 C 0.9568(4) 0.4638(4) 1.3678(3)
H42 H 0.8739 0.4676 1.3441
O5 O 0.8422(2) 1.0237(3) 0.93501(16)
H43 H 0.8649 1.0596 0.8938
H44 H 0.7968 1.0805 0.9540
Ag2A Ag 0.23005(2) 1.22411(2) 0.898258(15)
Ag2A_2 Ag 1.23005(2) 0.22411(2) 0.898258(15)
N2A N 0.6014(3) 0.6112(3) 1.10068(19)
H3A H 0.5416 0.6815 1.0953
H4A H 0.5872 0.5527 1.0534
N4A N 0.9213(3) 0.8656(3) 1.09505(18)
H17A H 0.9900 0.8092 1.1072
H18A H 0.9157 0.8974 1.0405
O1 O 0.4791(2) 0.9305(3) 1.05949(16)
O2 O 0.6008(2) 1.1000(3) 1.12799(17)
C13 C 0.5237(3) 0.9996(4) 1.1254(2)
C14 C 0.4796(3) 0.9628(4) 1.2054(2)
C15 C 0.3703(3) 0.8889(4) 1.2046(2)
H29 H 0.3237 0.8599 1.1526
C16 C 0.3292(4) 0.8574(4) 1.2787(2)
H30 H 0.2547 0.8074 1.2769
C17 C 0.3959(4) 0.8983(4) 1.3556(2)
C18 C 0.3515(5) 0.8635(6) 1.4362(3)
H31 H 0.2641 0.8500 1.4248
H32 H 0.3717 0.9456 1.4758
H33 H 0.3899 0.7724 1.4606
C19 C 0.5052(4) 0.9718(5) 1.3564(2)
H34 H 0.5520 1.0002 1.4085
C20 C 0.5461(3) 1.0037(4) 1.2826(2)
H35 H 0.6204 1.0541 1.2845
O6 O 0.3121(2) 0.7190(3) 1.00020(14)
H45 H 0.3401 0.6686 0.9588
H46 H 0.3620 0.7824 1.0180
O7 O 0.9018(2) 0.3760(3) 1.04696(16)
H47 H 0.9025 0.4227 1.0905
H48 H 0.8390 0.3297 1.0331
loop_
_geom_bond_atom_site_label_1
_geom_bond_atom_site_label_2
_geom_bond_site_symmetry_1
_geom_bond_site_symmetry_2
Ag1 Ag2 1_555 1_555
Ag2 O3 1_555 1_555
N1 Ag1 1_555 1_555
H1 N1 1_555 1_555
H2 N1 1_555 1_555
N2 H3 1_555 1_555
H4 N2 1_555 1_555
C1 N1 1_555 1_555
H5 C1 1_555 1_555
C2 N2 1_555 1_555
H6 C2 1_555 1_555
C3 C2 1_555 1_555
H7 C3 1_555 1_555
H8 C3 1_555 1_555
C4 C3 1_555 1_555
H9 C4 1_555 1_555
H10 C4 1_555 1_555
C5 C4 1_555 1_555
H11 C5 1_555 1_555
H12 C5 1_555 1_555
C6 C1 1_555 1_555
H13 C6 1_555 1_555
H14 C6 1_555 1_555
N3 Ag1 1_555 1_555
H15 N3 1_555 1_555
H16 N3 1_555 1_555
N4 H17 1_555 1_555
H18 N4 1_555 1_555
C7 N3 1_555 1_555
H19 C7 1_555 1_555
C8 N4 1_555 1_555
H20 C8 1_555 1_555
C9 C8 1_555 1_555
H21 C9 1_555 1_555
H22 C9 1_555 1_555
C10 C9 1_555 1_555
H23 C10 1_555 1_555
H24 C10 1_555 1_555
C11 C10 1_555 1_555
H25 C11 1_555 1_555
H26 C11 1_555 1_555
C12 C7 1_555 1_555
H27 C12 1_555 1_555
H28 C12 1_555 1_555
O1 C13 1_555 1_555
O2 C13 1_555 1_555
C13 C14 1_555 1_555
C14 C15 1_555 1_555
C15 H29 1_555 1_555
C16 C15 1_555 1_555
H30 C16 1_555 1_555
C17 C16 1_555 1_555
C18 C17 1_555 1_555
H31 C18 1_555 1_555
H32 C18 1_555 1_555
H33 C18 1_555 1_555
C19 C17 1_555 1_555
H34 C19 1_555 1_555
C20 C14 1_555 1_555
H35 C20 1_555 1_555
O3 C21 1_555 1_555
O4 C21 1_555 1_555
C21 C22 1_555 1_555
C22 C23 1_555 1_555
C23 H36 1_555 1_555
C24 C23 1_555 1_555
H37 C24 1_555 1_555
C25 C24 1_555 1_555
C26 C25 1_555 1_555
H38 C26 1_555 1_555
H39 C26 1_555 1_555
H40 C26 1_555 1_555
C27 C25 1_555 1_555
H41 C27 1_555 1_555
C28 C22 1_555 1_555
H42 C28 1_555 1_555
O5 Ag1 1_555 1_555
H43 O5 1_555 1_555
H44 O5 1_555 1_555
O6 H45 1_555 1_555
H46 O6 1_555 1_555
O7 H47 1_555 1_555
H48 O7 1_555 1_555
Ag2A N2 1_555 1_555
Ag2A_2 N4 1_555 1_555
N2A Ag2 1_555 1_555
H3A N2A 1_555 1_555
H4A N2A 1_555 1_555
N4A Ag2 1_555 1_555
H17A N4A 1_555 1_555
H18A N4A 1_555 1_555
C1 C2 1_555 1_555
C5 C6 1_555 1_555
C7 C8 1_555 1_555
C11 C12 1_555 1_555
C19 C20 1_555 1_555
C27 C28 1_555 1_555

#END
