
#######################################################################
#
#                 Cambridge Crystallographic Data Centre
#                                CCDC 
#
#######################################################################
#
# If this CIF has been generated from an entry in the Cambridge 
# Structural Database, then it will include bibliographic, chemical, 
# crystal, experimental, refinement or atomic coordinate data resulting 
# from the CCDC's data processing and validation procedures.
#
#######################################################################

data_OQILEG
_symmetry_cell_setting           triclinic
_symmetry_space_group_name_H-M   'P -1'
_symmetry_Int_Tables_number      2
_space_group_name_Hall           '-P 1'
loop_
_symmetry_equiv_pos_site_id
_symmetry_equiv_pos_as_xyz
1 x,y,z
2 -x,-y,-z
_cell_length_a                   9.3753(18)
_cell_length_b                   11.469(2)
_cell_length_c                   16.015(3)
_cell_angle_alpha                86.021(4)
_cell_angle_beta                 79.302(3)
_cell_angle_gamma                66.681(3)
_cell_volume                     1553.85
loop_
_atom_site_label
_atom_site_type_symbol
_atom_site_fract_x
_atom_site_fract_y
_atom_site_fract_z
Ag1 Ag 0.73005(5) 0.74329(4) 0.61161(2)
Ag2 Ag 0.71051(5) 1.25142(4) 0.58468(3)
N1 N 0.8509(5) 1.0493(4) 0.5963(3)
H1 H 0.8392 1.0079 0.5524
H2 H 0.9552 1.0384 0.5882
N2 N 0.6058(6) 0.9425(4) 0.6300(3)
H3 H 0.4999 0.9586 0.6429
H4 H 0.6220 0.9812 0.5789
C1 C 0.8171(5) 0.9849(5) 0.6767(3)
H5 H 0.8829 0.8918 0.6708
C2 C 0.6434(6) 1.0054(5) 0.6958(3)
H6 H 0.5779 1.0986 0.6954
C3 C 0.6033(7) 0.9526(6) 0.7825(4)
H7 H 0.6628 0.8594 0.7821
H8 H 0.4894 0.9694 0.7943
C4 C 0.6430(6) 1.0117(5) 0.8531(3)
H9 H 0.5791 1.1042 0.8563
H10 H 0.6178 0.9739 0.9085
C5 C 0.8173(6) 0.9877(5) 0.8347(3)
H11 H 0.8806 0.8954 0.8367
H12 H 0.8419 1.0295 0.8790
C6 C 0.8615(6) 1.0389(5) 0.7476(3)
H13 H 0.9766 1.0174 0.7360
H14 H 0.8074 1.1326 0.7482
N3 N 0.8495(5) 1.5426(4) 0.6024(2)
H15 H 0.9562 1.5228 0.5950
H16 H 0.8296 1.5157 0.5547
N4 N 0.5897(5) 1.4522(4) 0.6182(3)
H17 H 0.6071 1.4980 0.5707
H18 H 0.4833 1.4702 0.6299
C7 C 0.8063(5) 1.4701(4) 0.6768(3)
H19 H 0.8648 1.3771 0.6649
C8 C 0.6301(5) 1.5013(5) 0.6904(3)
H20 H 0.5724 1.5956 0.6933
C9 C 0.5749(6) 1.4440(5) 0.7726(3)
H21 H 0.6201 1.3504 0.7672
H22 H 0.4586 1.4735 0.7821
C10 C 0.6240(6) 1.4809(5) 0.8489(3)
H23 H 0.5912 1.4385 0.9004
H24 H 0.5704 1.5738 0.8581
C11 C 0.8012(6) 1.4428(5) 0.8348(3)
H25 H 0.8548 1.3493 0.8296
H26 H 0.8306 1.4698 0.8841
C12 C 0.8542(6) 1.5038(5) 0.7547(3)
H27 H 0.8075 1.5972 0.7622
H28 H 0.9704 1.4757 0.7454
O7 O 0.4767(6) 1.3036(5) 0.4955(3)
H47 H 0.5302 1.2587 0.4543
H48 H 0.4134 1.2855 0.5309
Ag1_2 Ag 0.73005(5) 1.74329(4) 0.61161(2)
N3_2 N 0.8495(5) 0.5426(4) 0.6024(2)
H15_2 H 0.9562 0.5228 0.5950
H16_2 H 0.8296 0.5157 0.5547
O1 O 0.8119(5) 0.2315(3) 0.4001(2)
O2 O 0.6575(4) 0.1511(3) 0.3565(2)
C13 C 0.7485(5) 0.2100(4) 0.3443(3)
C14 C 0.7820(5) 0.2559(4) 0.2554(3)
C15 C 0.7306(5) 0.2195(4) 0.1899(3)
H29 H 0.6716 0.1677 0.2022
C16 C 0.7634(5) 0.2571(4) 0.1062(3)
C17 C 0.7086(7) 0.2156(5) 0.0354(3)
H30 H 0.6508 0.1623 0.0585
H31 H 0.8001 0.1669 -0.0067
H32 H 0.6392 0.2905 0.0083
C18 C 0.8475(6) 0.3351(4) 0.0899(3)
H33 H 0.8700 0.3628 0.0336
C19 C 0.8987(6) 0.3726(4) 0.1553(3)
H34 H 0.9551 0.4265 0.1435
C20 C 0.8683(5) 0.3325(4) 0.2375(3)
H35 H 0.9061 0.3568 0.2816
O3 O 0.6920(4) -0.3840(3) 0.3230(2)
O4 O 0.7433(8) -0.2408(5) 0.3817(2)
C21 C 0.7311(6) -0.2927(4) 0.3188(3)
C22 C 0.7658(5) -0.2406(4) 0.2315(3)
C23 C 0.7378(5) -0.2891(4) 0.1625(3)
H36 H 0.6961 -0.3530 0.1711
C24 C 0.7700(5) -0.2456(4) 0.0805(3)
C25 C 0.7336(7) -0.2976(6) 0.0066(3)
H37 H 0.6926 -0.3627 0.0270
H38 H 0.8301 -0.3350 -0.0353
H39 H 0.6545 -0.2286 -0.0198
C26 C 0.8305(6) -0.1520(5) 0.0694(3)
H40 H 0.8522 -0.1207 0.0141
C27 C 0.8593(6) -0.1040(4) 0.1381(3)
H41 H 0.9023 -0.0408 0.1296
C28 C 0.8263(6) -0.1469(4) 0.2193(3)
H42 H 0.8449 -0.1124 0.2665
O5 O 0.8283(5) 0.4517(4) 0.4423(2)
H43 H 0.8234 0.3854 0.4296
H44 H 0.7870 0.5013 0.4061
O6 O 0.8186(5) 0.9377(3) 0.4425(2)
H45 H 0.7954 0.8837 0.4243
H46 H 0.7710 1.0015 0.4167
H49? H 0.4277 0.1890 0.5592
H50? H 0.5565 0.1626 0.4788
O8? O 0.5149(12) 0.1630(11) 0.5289(6)
loop_
_geom_bond_atom_site_label_1
_geom_bond_atom_site_label_2
_geom_bond_site_symmetry_1
_geom_bond_site_symmetry_2
Ag1 N2 1_555 1_555
Ag2 N1 1_555 1_555
N1 H1 1_555 1_555
H2 N1 1_555 1_555
N2 H3 1_555 1_555
H4 N2 1_555 1_555
C1 N1 1_555 1_555
H5 C1 1_555 1_555
C2 N2 1_555 1_555
H6 C2 1_555 1_555
C3 C2 1_555 1_555
H7 C3 1_555 1_555
H8 C3 1_555 1_555
C4 C3 1_555 1_555
H9 C4 1_555 1_555
H10 C4 1_555 1_555
C5 C4 1_555 1_555
H11 C5 1_555 1_555
H12 C5 1_555 1_555
C6 C1 1_555 1_555
H13 C6 1_555 1_555
H14 C6 1_555 1_555
N3 H15 1_555 1_555
H16 N3 1_555 1_555
N4 Ag2 1_555 1_555
H17 N4 1_555 1_555
H18 N4 1_555 1_555
C7 N3 1_555 1_555
H19 C7 1_555 1_555
C8 N4 1_555 1_555
H20 C8 1_555 1_555
C9 C8 1_555 1_555
H21 C9 1_555 1_555
H22 C9 1_555 1_555
C10 C9 1_555 1_555
H23 C10 1_555 1_555
H24 C10 1_555 1_555
C11 C10 1_555 1_555
H25 C11 1_555 1_555
H26 C11 1_555 1_555
C12 C7 1_555 1_555
H27 C12 1_555 1_555
H28 C12 1_555 1_555
O1 C13 1_555 1_555
O2 C13 1_555 1_555
C13 C14 1_555 1_555
C14 C15 1_555 1_555
C15 H29 1_555 1_555
C16 C15 1_555 1_555
C17 C16 1_555 1_555
H30 C17 1_555 1_555
H31 C17 1_555 1_555
H32 C17 1_555 1_555
C18 C16 1_555 1_555
H33 C18 1_555 1_555
C19 C18 1_555 1_555
H34 C19 1_555 1_555
C20 C14 1_555 1_555
H35 C20 1_555 1_555
O3 C21 1_555 1_555
O4 C21 1_555 1_555
C21 C22 1_555 1_555
C22 C23 1_555 1_555
C23 H36 1_555 1_555
C24 C23 1_555 1_555
C25 C24 1_555 1_555
H37 C25 1_555 1_555
H38 C25 1_555 1_555
H39 C25 1_555 1_555
C26 C24 1_555 1_555
H40 C26 1_555 1_555
C27 C26 1_555 1_555
H41 C27 1_555 1_555
C28 C22 1_555 1_555
H42 C28 1_555 1_555
O5 H43 1_555 1_555
H44 O5 1_555 1_555
O6 H45 1_555 1_555
H46 O6 1_555 1_555
O7 Ag2 1_555 1_555
H47 O7 1_555 1_555
H48 O7 1_555 1_555
Ag1_2 N3 1_555 1_555
N3_2 Ag1 1_555 1_555
H15_2 N3_2 1_555 1_555
H16_2 N3_2 1_555 1_555
C1 C2 1_555 1_555
C5 C6 1_555 1_555
C7 C8 1_555 1_555
C11 C12 1_555 1_555
C19 C20 1_555 1_555
C27 C28 1_555 1_555

#END
