
#######################################################################
#
#                 Cambridge Crystallographic Data Centre
#                                CCDC 
#
#######################################################################
#
# If this CIF has been generated from an entry in the Cambridge 
# Structural Database, then it will include bibliographic, chemical, 
# crystal, experimental, refinement or atomic coordinate data resulting 
# from the CCDC's data processing and validation procedures.
#
#######################################################################

data_OQOHIM
_symmetry_cell_setting           triclinic
_symmetry_space_group_name_H-M   'P -1'
_symmetry_Int_Tables_number      2
_space_group_name_Hall           '-P 1'
loop_
_symmetry_equiv_pos_site_id
_symmetry_equiv_pos_as_xyz
1 x,y,z
2 -x,-y,-z
_cell_length_a                   12.796(14)
_cell_length_b                   13.264(14)
_cell_length_c                   14.697(16)
_cell_angle_alpha                76.467(14)
_cell_angle_beta                 72.415(13)
_cell_angle_gamma                62.123(13)
_cell_volume                     2089.18
loop_
_atom_site_label
_atom_site_type_symbol
_atom_site_fract_x
_atom_site_fract_y
_atom_site_fract_z
C1 C 1.1147(9) 0.7157(8) 0.5327(8)
H1 H 1.1746 0.6456 0.5124
C2 C 1.1124(10) 0.7471(9) 0.6153(9)
H2 H 1.1718 0.6993 0.6496
C3 C 1.0241(11) 0.8478(11) 0.6484(8)
C4 C 1.0200(11) 0.8847(10) 0.7384(8)
H3 H 1.0071 0.9635 0.7270
H4 H 1.0954 0.8377 0.7578
H5 H 0.9547 0.8767 0.7882
C5 C 0.9410(10) 0.9159(9) 0.5938(10)
H6 H 0.8805 0.9854 0.6147
C6 C 0.9424(9) 0.8864(8) 0.5089(8)
H7 H 0.8846 0.9344 0.4732
C7 C 1.0321(9) 0.7838(8) 0.4796(7)
C8 C 0.8459(7) 0.7021(7) 0.4476(5)
H8 H 0.8052 0.7848 0.4287
C9 C 0.7899(7) 0.6421(8) 0.4160(6)
H9 H 0.8365 0.5599 0.4276
H10 H 0.7951 0.6616 0.3474
C10 C 0.6571(7) 0.6729(8) 0.4673(6)
H11 H 0.6523 0.6477 0.5353
H12 H 0.6114 0.7557 0.4601
C11 C 0.6017(10) 0.6210(11) 0.4303(7)
C12 C 0.4243(14) 0.6505(14) 0.3917(12)
H13 H 0.4654 0.6375 0.3261
H14 H 0.3424 0.7075 0.3942
H15 H 0.4239 0.5802 0.4277
C13 C 0.8309(7) 0.6818(8) 0.5555(6)
C14 C 0.2757(9) 1.0347(9) 0.8312(7)
H16 H 0.2253 1.0540 0.8911
C15 C 0.2731(10) 0.9560(10) 0.7876(9)
H17 H 0.2179 0.9246 0.8171
C16 C 0.3506(11) 0.9221(10) 0.7007(9)
C17 C 0.3477(12) 0.8317(12) 0.6552(10)
H18 H 0.2919 0.8686 0.6136
H19 H 0.3222 0.7810 0.7047
H20 H 0.4273 0.7886 0.6187
C18 C 0.4262(10) 0.9722(9) 0.6586(7)
H21 H 0.4787 0.9510 0.5998
C19 C 0.4280(9) 1.0534(8) 0.7000(7)
H22 H 0.4808 1.0870 0.6688
C20 C 0.3534(8) 1.0853(7) 0.7860(6)
C21 C 0.5882(7) 1.0687(7) 0.8366(7)
H23 H 0.5996 1.1056 0.7707
C22 C 0.6179(7) 0.9457(7) 0.8356(7)
C23 C 0.6850(9) 1.0651(9) 0.8890(10)
H24 H 0.6605 1.0465 0.9576
H25 H 0.7640 1.0046 0.8660
C24 C 0.6949(13) 1.1680(12) 0.8725(10)
H26 H 0.6203 1.2268 0.9042
H27 H 0.7092 1.1928 0.8042
C25 C 0.8023(15) 1.1494(16) 0.9127(11)
C26 C 0.9239(12) 1.2140(14) 0.9239(12)
H28 H 0.9193 1.1934 0.9917
H29 H 0.9451 1.2775 0.9030
H30 H 0.9845 1.1497 0.8902
C27 C 0.8799(6) 0.6923(6) 0.8790(6)
H31 H 0.8087 0.7514 0.9064
C28 C 0.9755(7) 0.6438(7) 0.9233(6)
H32 H 0.9678 0.6703 0.9793
C29 C 1.0826(6) 0.5564(6) 0.8854(6)
C30 C 1.0845(7) 0.5215(7) 0.8050(6)
H33 H 1.1543 0.4616 0.7769
C31 C 0.9863(7) 0.5722(7) 0.7641(6)
H34 H 0.9914 0.5447 0.7095
C32 C 1.1913(6) 0.5064(7) 0.9267(6)
H35 H 1.2297 0.4238 0.9264
H36 H 1.1665 0.5228 0.9928
C33 C 1.2830(6) 0.5548(7) 0.8701(6)
H37 H 1.3034 0.5436 0.8029
H38 H 1.2469 0.6366 0.8745
C34 C 1.3963(7) 0.4968(7) 0.9082(7)
H39 H 1.3737 0.4946 0.9776
H40 H 1.4396 0.4181 0.8927
C35 C 1.4791(7) 0.5543(7) 0.8692(6)
C36 C 1.5877(7) 0.5056(7) 0.8064(6)
H41 H 1.6127 0.4341 0.7873
C37 C 1.6599(7) 0.5637(8) 0.7715(6)
H42 H 1.7338 0.5292 0.7291
C38 C 1.5246(7) 0.7122(8) 0.8550(7)
H43 H 1.5005 0.7841 0.8726
C39 C 1.4494(8) 0.6589(8) 0.8923(7)
H44 H 1.3760 0.6953 0.9346
N1 N 1.6300(5) 0.6657(6) 0.7950(5)
N2 N 0.8840(5) 0.6589(5) 0.7990(4)
N3 N 0.9714(6) 0.6605(5) 0.3984(4)
H45 H 1.0100 0.5916 0.3829
N4 N 0.4665(6) 1.1322(5) 0.8896(5)
H46 H 0.4544 1.1393 0.9490
O1 O 0.6865(5) 0.9005(4) 0.7591(4)
O2 O 0.5801(5) 0.8932(5) 0.9071(4)
O3 O 0.8778(11) 1.0614(11) 0.9323(8)
O4 O 0.7995(10) 1.2483(10) 0.9029(8)
O5 O 0.2489(5) 1.2250(5) 0.9152(4)
O6 O 0.3713(6) 1.2716(5) 0.7646(4)
O7 O 0.7548(5) 0.7658(5) 0.6021(4)
O8 O 0.8876(5) 0.5857(5) 0.5941(4)
O9 O 1.1631(6) 0.6713(6) 0.3336(5)
O10 O 0.9749(7) 0.8431(6) 0.3176(5)
O11 O 0.4873(6) 0.6904(7) 0.4329(5)
O12 O 0.6529(8) 0.5298(7) 0.3994(6)
S1 S 1.0403(2) 0.7420(2) 0.37233(18)
S2 S 0.3545(2) 1.18910(19) 0.83957(16)
Zn1 Zn 0.74190(7) 0.74423(8) 0.73807(6)
N1_2 N 0.6300(5) 0.6657(6) 0.7950(5)
Zn1_2 Zn 1.74190(7) 0.74423(8) 0.73807(6)
loop_
_geom_bond_atom_site_label_1
_geom_bond_atom_site_label_2
_geom_bond_site_symmetry_1
_geom_bond_site_symmetry_2
C1 H1 1_555 1_555
C2 C1 1_555 1_555
H2 C2 1_555 1_555
C3 C2 1_555 1_555
C4 C3 1_555 1_555
H3 C4 1_555 1_555
H4 C4 1_555 1_555
H5 C4 1_555 1_555
C5 C3 1_555 1_555
H6 C5 1_555 1_555
C6 C5 1_555 1_555
H7 C6 1_555 1_555
C7 C1 1_555 1_555
C8 H8 1_555 1_555
C9 C8 1_555 1_555
H9 C9 1_555 1_555
H10 C9 1_555 1_555
C10 C9 1_555 1_555
H11 C10 1_555 1_555
H12 C10 1_555 1_555
C11 C10 1_555 1_555
C12 H13 1_555 1_555
H14 C12 1_555 1_555
H15 C12 1_555 1_555
C13 C8 1_555 1_555
C14 H16 1_555 1_555
C15 C14 1_555 1_555
H17 C15 1_555 1_555
C16 C15 1_555 1_555
C17 C16 1_555 1_555
H18 C17 1_555 1_555
H19 C17 1_555 1_555
H20 C17 1_555 1_555
C18 C16 1_555 1_555
H21 C18 1_555 1_555
C19 C18 1_555 1_555
H22 C19 1_555 1_555
C20 C14 1_555 1_555
C21 H23 1_555 1_555
C22 C21 1_555 1_555
C23 C21 1_555 1_555
H24 C23 1_555 1_555
H25 C23 1_555 1_555
C24 C23 1_555 1_555
H26 C24 1_555 1_555
H27 C24 1_555 1_555
C25 C24 1_555 1_555
C26 H28 1_555 1_555
H29 C26 1_555 1_555
H30 C26 1_555 1_555
C27 H31 1_555 1_555
C28 C27 1_555 1_555
H32 C28 1_555 1_555
C29 C28 1_555 1_555
C30 C29 1_555 1_555
H33 C30 1_555 1_555
C31 C30 1_555 1_555
H34 C31 1_555 1_555
C32 C29 1_555 1_555
H35 C32 1_555 1_555
H36 C32 1_555 1_555
C33 C32 1_555 1_555
H37 C33 1_555 1_555
H38 C33 1_555 1_555
C34 C33 1_555 1_555
H39 C34 1_555 1_555
H40 C34 1_555 1_555
C35 C34 1_555 1_555
C36 C35 1_555 1_555
H41 C36 1_555 1_555
C37 C36 1_555 1_555
H42 C37 1_555 1_555
C38 H43 1_555 1_555
C39 C35 1_555 1_555
H44 C39 1_555 1_555
N1 C37 1_555 1_555
N2 C27 1_555 1_555
N3 C8 1_555 1_555
H45 N3 1_555 1_555
N4 C21 1_555 1_555
H46 N4 1_555 1_555
O1 C22 1_555 1_555
O2 C22 1_555 1_555
O3 C25 1_555 1_555
O4 C25 1_555 1_555
O5 S2 1_555 1_555
O6 S2 1_555 1_555
O7 C13 1_555 1_555
O8 C13 1_555 1_555
O9 S1 1_555 1_555
O10 S1 1_555 1_555
O11 C11 1_555 1_555
O12 C11 1_555 1_555
S1 C7 1_555 1_555
S2 C20 1_555 1_555
Zn1 N2 1_555 1_555
N1_2 Zn1 1_555 1_555
Zn1_2 N1 1_555 1_555
C6 C7 1_555 1_555
C12 O11 1_555 1_555
C19 C20 1_555 1_555
C26 O4 1_555 1_555
C31 N2 1_555 1_555
C38 C39 1_555 1_555
C38 N1 1_555 1_555
N3 S1 1_555 1_555
N4 S2 1_555 1_555
O1 Zn1 1_555 1_555
O7 Zn1 1_555 1_555

#END
