
#######################################################################
#
#                 Cambridge Crystallographic Data Centre
#                                CCDC 
#
#######################################################################
#
# If this CIF has been generated from an entry in the Cambridge 
# Structural Database, then it will include bibliographic, chemical, 
# crystal, experimental, refinement or atomic coordinate data resulting 
# from the CCDC's data processing and validation procedures.
#
#######################################################################

data_OQUKOB
_symmetry_cell_setting           monoclinic
_symmetry_space_group_name_H-M   'P 21/c'
_symmetry_Int_Tables_number      14
_space_group_name_Hall           '-P 2ybc'
loop_
_symmetry_equiv_pos_site_id
_symmetry_equiv_pos_as_xyz
1 x,y,z
2 -x,1/2+y,1/2-z
3 -x,-y,-z
4 x,1/2-y,1/2+z
_cell_length_a                   9.8072(5)
_cell_length_b                   17.1235(9)
_cell_length_c                   14.6837(6)
_cell_angle_alpha                90
_cell_angle_beta                 129.866(2)
_cell_angle_gamma                90
_cell_volume                     1892.68
loop_
_atom_site_label
_atom_site_type_symbol
_atom_site_fract_x
_atom_site_fract_y
_atom_site_fract_z
N1 N 0.7533(3) 0.40203(12) 0.97579(19)
C1 C 0.9193(4) 0.39807(18) 1.0123(3)
H1 H 1.0191 0.3910 1.0914
N2 N 0.9295(3) 0.40501(15) 0.9278(2)
C2 C 0.6561(4) 0.41168(15) 0.8605(3)
N3 N 0.7559(3) 0.41408(11) 0.82959(19)
C3 C 0.7063(4) 0.43112(16) 0.7140(2)
Cd1 Cd 0.672990(19) 0.413550(9) 1.093610(13)
O1 O 0.9121(2) 0.31542(10) 1.22481(15)
O2 O 0.9654(2) 0.44107(10) 1.25622(15)
O3 O 1.4234(2) 0.32343(10) 1.95406(15)
O4 O 1.3812(2) 0.44795(10) 1.92418(15)
N4 N 0.5945(3) 0.38750(13) 0.21005(18)
N5 N 0.4250(3) 0.37661(13) 0.26298(19)
N6 N 0.5930(3) 0.34905(11) 0.35077(17)
C4 C 0.4337(4) 0.39860(15) 0.1806(2)
H2 H 0.3374 0.4199 0.1084
C5 C 0.6891(3) 0.35636(15) 0.3173(2)
H3 H 0.8076 0.3416 0.3629
C6 C 0.6424(3) 0.31997(14) 0.4616(2)
H4 H 0.7525 0.2908 0.5042
H5 H 0.5510 0.2849 0.4445
C7 C 0.6657(3) 0.38653(15) 0.5381(2)
H6 H 0.5630 0.4206 0.4903
H7 H 0.7692 0.4167 0.5647
C8 C 0.6885(3) 0.35974(14) 0.6472(2)
H8 H 0.5862 0.3293 0.6223
H9 H 0.7936 0.3273 0.6979
H10 H 0.7956 0.4654 0.7263
H11 H 0.5944 0.4591 0.6664
C9 C 1.0126(3) 0.37081(14) 1.2853(2)
C10 C 1.1984(3) 0.35538(15) 1.4023(2)
H12 H 1.2402 0.3047 1.3998
H13 H 1.2802 0.3949 1.4153
C11 C 1.1911(3) 0.35738(14) 1.5017(2)
C12 C 1.1880(4) 0.28948(15) 1.5520(2)
H14 H 1.1967 0.2414 1.5265
C13 C 1.1724(4) 0.29185(15) 1.6388(2)
H15 H 1.1726 0.2453 1.6717
C14 C 1.1564(3) 0.36186(13) 1.67815(19)
C15 C 1.1600(4) 0.43003(14) 1.6287(2)
H16 H 1.1505 0.4780 1.6539
C16 C 1.1776(4) 0.42781(14) 1.5424(2)
H17 H 1.1804 0.4744 1.5110
C17 C 1.1427(3) 0.36511(14) 1.7745(2)
H18 H 1.0947 0.3164 1.7769
H19 H 1.0634 0.4070 1.7585
C18 C 1.3254(3) 0.37895(15) 1.89228(19)
H20 H 0.533(4) 0.4153(14) 0.804(3)
O3_2 O 0.4234(2) 0.32343(10) 0.95406(15)
O4B O 0.6188(2) 0.55205(10) 1.07582(15)
N4_2 N 0.5945(3) 0.38750(13) 1.21005(18)
O4_2 O 0.3812(2) 0.44795(10) 0.92418(15)
Cd1_2 Cd 1.672990(19) 0.413550(9) 2.093610(13)
Cd1B Cd 1.327010(19) 0.586450(9) 1.906390(13)
Cd1_3 Cd 0.672990(19) 0.413550(9) 0.093610(13)
loop_
_geom_bond_atom_site_label_1
_geom_bond_atom_site_label_2
_geom_bond_site_symmetry_1
_geom_bond_site_symmetry_2
N1 C1 1_555 1_555
C1 H1 1_555 1_555
N2 C1 1_555 1_555
C2 N1 1_555 1_555
N3 N2 1_555 1_555
C3 N3 1_555 1_555
Cd1 N1 1_555 1_555
O1 Cd1 1_555 1_555
O2 Cd1 1_555 1_555
O3 C18 1_555 1_555
O4 C18 1_555 1_555
N4 C4 1_555 1_555
N5 N6 1_555 1_555
N6 C5 1_555 1_555
C4 N5 1_555 1_555
H2 C4 1_555 1_555
C5 N4 1_555 1_555
H3 C5 1_555 1_555
C6 N6 1_555 1_555
H4 C6 1_555 1_555
H5 C6 1_555 1_555
C7 C6 1_555 1_555
H6 C7 1_555 1_555
H7 C7 1_555 1_555
C8 C3 1_555 1_555
H8 C8 1_555 1_555
H9 C8 1_555 1_555
H10 C3 1_555 1_555
H11 C3 1_555 1_555
C9 O1 1_555 1_555
C10 C9 1_555 1_555
H12 C10 1_555 1_555
H13 C10 1_555 1_555
C11 C10 1_555 1_555
C12 C11 1_555 1_555
H14 C12 1_555 1_555
C13 C12 1_555 1_555
H15 C13 1_555 1_555
C14 C13 1_555 1_555
C15 C14 1_555 1_555
H16 C15 1_555 1_555
C16 C11 1_555 1_555
H17 C16 1_555 1_555
C17 C14 1_555 1_555
H18 C17 1_555 1_555
H19 C17 1_555 1_555
C18 C17 1_555 1_555
H20 C2 1_555 1_555
O3_2 Cd1 1_555 1_555
O4B Cd1 1_555 1_555
N4_2 Cd1 1_555 1_555
O4_2 Cd1 1_555 1_555
Cd1_2 O3 1_555 1_555
Cd1B O4 1_555 1_555
Cd1_3 N4 1_555 1_555
C2 N3 1_555 1_555
O2 C9 1_555 1_555
O4 Cd1_2 1_555 1_555
C7 C8 1_555 1_555
C15 C16 1_555 1_555

#END
