
#######################################################################
#
#                 Cambridge Crystallographic Data Centre
#                                CCDC 
#
#######################################################################
#
# If this CIF has been generated from an entry in the Cambridge 
# Structural Database, then it will include bibliographic, chemical, 
# crystal, experimental, refinement or atomic coordinate data resulting 
# from the CCDC's data processing and validation procedures.
#
#######################################################################

data_OQULAO
_symmetry_cell_setting           orthorhombic
_symmetry_space_group_name_H-M   'P 21 21 21'
_symmetry_Int_Tables_number      19
_space_group_name_Hall           'P 2ac 2ab'
loop_
_symmetry_equiv_pos_site_id
_symmetry_equiv_pos_as_xyz
1 x,y,z
2 1/2-x,-y,1/2+z
3 -x,1/2+y,1/2-z
4 1/2+x,1/2-y,-z
_cell_length_a                   9.4744(12)
_cell_length_b                   9.5803(12)
_cell_length_c                   19.145(2)
_cell_angle_alpha                90
_cell_angle_beta                 90
_cell_angle_gamma                90
_cell_volume                     1737.75
loop_
_atom_site_label
_atom_site_type_symbol
_atom_site_fract_x
_atom_site_fract_y
_atom_site_fract_z
In1 In 0.74771(3) 0.528992(19) 0.160204(9)
Na1 Na 0.2434(2) 0.48419(11) 0.39058(6)
C1 C 0.5051(4) 0.4774(5) 0.2605(2)
C2 C 0.4461(4) 0.6048(4) 0.22333(18)
H1 H 0.4251 0.6776 0.2578
C3 C 0.3134(5) 0.5677(6) 0.1845(3)
H2 H 0.2771 0.6493 0.1616
H3 H 0.2444 0.5329 0.2168
H4 H 0.3340 0.4973 0.1503
C4 C 0.9811(4) 0.4819(5) 0.26467(19)
C5 C 0.9469(4) 0.6319(3) 0.28158(16)
H5 H 1.0317 0.6886 0.2742
C6 C 0.9000(5) 0.6482(5) 0.35579(17)
H6 H 0.8789 0.7446 0.3648
H7 H 0.9739 0.6178 0.3865
H8 H 0.8170 0.5928 0.3636
C7 C 0.8894(4) 0.6863(3) 0.06632(17)
C8 C 0.9838(4) 0.7789(4) 0.02157(17)
H9 H 0.9957 0.7364 -0.0246
C9 C 1.1264(4) 0.7923(4) 0.05664(19)
H10 H 1.1866 0.8505 0.0288
H11 H 1.1682 0.7015 0.0614
H12 H 1.1147 0.8334 0.1020
C10 C 0.6526(4) 0.2970(3) 0.07842(16)
C11 C 0.5578(4) 0.2150(3) 0.02921(17)
H13 H 0.5508 0.2644 -0.0155
C12 C 0.4134(4) 0.2011(5) 0.0607(2)
H14 H 0.3534 0.1503 0.0294
H15 H 0.3745 0.2923 0.0687
H16 H 0.4200 0.1520 0.1043
O1 O 0.6229(3) 0.4288(3) 0.24191(13)
O2 O 0.4306(3) 0.4265(3) 0.30834(13)
O3 O 0.5494(3) 0.6559(2) 0.17475(12)
H17 H 0.553(4) 0.745(4) 0.1792(18)
O4 O 0.9176(3) 0.4232(2) 0.21391(12)
O5 O 1.0742(3) 0.4246(3) 0.30051(13)
O6 O 0.8383(3) 0.6802(2) 0.23555(12)
H18 H 0.856(4) 0.760(4) 0.2242(19)
O7 O 0.9266(3) 0.5612(2) 0.07629(12)
O8 O 0.7802(2) 0.7326(2) 0.09477(11)
O9 O 0.9175(3) 0.9112(3) 0.01432(14)
H19 H 0.971(5) 0.961(5) -0.009(2)
O10 O 0.6278(3) 0.4302(2) 0.07989(12)
O11 O 0.7416(4) 0.2405(2) 0.11515(11)
O12 O 0.6205(3) 0.0815(3) 0.01805(14)
H20 H 0.566(5) 0.043(5) -0.013(2)
Na1_2 Na 1.2434(2) 0.48419(11) 0.39058(6)
Na1B Na 0.7566(2) -0.01581(11) 0.10942(6)
Na1B_2 Na 0.7566(2) 0.98419(11) 0.10942(6)
O5_2 O 0.0742(3) 0.4246(3) 0.30051(13)
O8B O 0.2198(2) 0.2326(2) 0.40523(11)
O9B O 0.0825(3) 0.4112(3) 0.48568(14)
O11B O 0.2584(4) 0.7405(2) 0.38485(11)
O12B O 0.3795(3) 0.5815(3) 0.48195(14)
loop_
_geom_bond_atom_site_label_1
_geom_bond_atom_site_label_2
_geom_bond_site_symmetry_1
_geom_bond_site_symmetry_2
In1 O1 1_555 1_555
Na1 O2 1_555 1_555
C1 C2 1_555 1_555
C2 H1 1_555 1_555
C3 C2 1_555 1_555
H2 C3 1_555 1_555
H3 C3 1_555 1_555
H4 C3 1_555 1_555
C4 C5 1_555 1_555
C5 H5 1_555 1_555
C6 C5 1_555 1_555
H6 C6 1_555 1_555
H7 C6 1_555 1_555
H8 C6 1_555 1_555
C7 C8 1_555 1_555
C8 H9 1_555 1_555
C9 C8 1_555 1_555
H10 C9 1_555 1_555
H11 C9 1_555 1_555
H12 C9 1_555 1_555
C10 C11 1_555 1_555
C11 H13 1_555 1_555
C12 C11 1_555 1_555
H14 C12 1_555 1_555
H15 C12 1_555 1_555
H16 C12 1_555 1_555
O1 C1 1_555 1_555
O2 C1 1_555 1_555
O3 In1 1_555 1_555
H17 O3 1_555 1_555
O4 In1 1_555 1_555
O5 C4 1_555 1_555
O6 In1 1_555 1_555
H18 O6 1_555 1_555
O7 In1 1_555 1_555
O8 In1 1_555 1_555
O9 C8 1_555 1_555
H19 O9 1_555 1_555
O10 In1 1_555 1_555
O11 C10 1_555 1_555
O12 C11 1_555 1_555
H20 O12 1_555 1_555
Na1_2 O5 1_555 1_555
Na1B O11 1_555 1_555
Na1B_2 O8 1_555 1_555
O5_2 Na1 1_555 1_555
O8B Na1 1_555 1_555
O9B Na1 1_555 1_555
O11B Na1 1_555 1_555
O12B Na1 1_555 1_555
C2 O3 1_555 1_555
C4 O4 1_555 1_555
C5 O6 1_555 1_555
C7 O7 1_555 1_555
C7 O8 1_555 1_555
C10 O10 1_555 1_555
O9 Na1B_2 1_555 1_555
O12 Na1B 1_555 1_555

#END
