
#######################################################################
#
#                 Cambridge Crystallographic Data Centre
#                                CCDC 
#
#######################################################################
#
# If this CIF has been generated from an entry in the Cambridge 
# Structural Database, then it will include bibliographic, chemical, 
# crystal, experimental, refinement or atomic coordinate data resulting 
# from the CCDC's data processing and validation procedures.
#
#######################################################################

data_OQUVOM
_symmetry_cell_setting           monoclinic
_symmetry_space_group_name_H-M   'P 21/n'
_symmetry_Int_Tables_number      14
_space_group_name_Hall           '-P 2yn'
loop_
_symmetry_equiv_pos_site_id
_symmetry_equiv_pos_as_xyz
1 x,y,z
2 1/2-x,1/2+y,1/2-z
3 -x,-y,-z
4 1/2+x,1/2-y,1/2+z
_cell_length_a                   11.9835(3)
_cell_length_b                   17.4682(3)
_cell_length_c                   15.3010(4)
_cell_angle_alpha                90
_cell_angle_beta                 98.8560(10)
_cell_angle_gamma                90
_cell_volume                     3164.78
loop_
_atom_site_label
_atom_site_type_symbol
_atom_site_fract_x
_atom_site_fract_y
_atom_site_fract_z
C1 C 0.6222(2) 0.25026(14) 0.28055(19)
H1 H 0.6984 0.2411 0.3125
H2 H 0.5801 0.2822 0.3168
H3 H 0.6273 0.2765 0.2247
C2 C 0.5205(2) 0.03971(13) 0.20568(16)
C3 C 0.4686(2) 0.01667(14) 0.12238(16)
H4 H 0.4906 0.0397 0.0715
C4 C 0.3853(2) -0.03920(14) 0.11178(16)
H5 H 0.3507 -0.0542 0.0543
C5 C 0.3532(2) -0.07298(14) 0.18620(17)
C6 C 0.4052(2) -0.05104(14) 0.27036(17)
H6 H 0.3839 -0.0746 0.3212
C7 C 0.4875(2) 0.00472(14) 0.27997(16)
H7 H 0.5221 0.0196 0.3375
C8 C 0.2233(3) -0.15815(17) 0.10025(19)
H8 H 0.1877 -0.1167 0.0628
H9 H 0.1664 -0.1967 0.1084
H10 H 0.2827 -0.1818 0.0719
C9 C 1.2703(2) 0.15161(16) 0.25030(19)
H11 H 1.2607 0.1585 0.3123
H12 H 1.3460 0.1685 0.2423
H13 H 1.2608 0.0974 0.2343
C10 C 0.9955(2) 0.25705(13) 0.12694(15)
C11 C 1.0372(2) 0.26906(16) 0.04827(19)
H14 H 1.0970 0.2378 0.0346
C12 C 0.9938(3) 0.32547(16) -0.01064(19)
H15 H 1.0247 0.3337 -0.0634
C13 C 0.9043(2) 0.36996(13) 0.00822(16)
C14 C 0.8579(2) 0.35642(15) 0.08372(16)
H16 H 0.7945 0.3852 0.0953
C15 C 0.9045(2) 0.30019(15) 0.14316(17)
H17 H 0.8731 0.2915 0.1956
C16 C 0.7696(3) 0.46682(16) -0.04321(19)
H18 H 0.7066 0.4312 -0.0423
H19 H 0.7511 0.5026 -0.0926
H20 H 0.7829 0.4954 0.0125
C17 C 0.9552(2) -0.05485(14) 0.39802(16)
H21 H 0.8955 -0.0264 0.4167
C18 C 1.0106(2) -0.10801(15) 0.45512(17)
H22 H 0.9890 -0.1155 0.5117
C19 C 1.0981(2) -0.15082(13) 0.43015(16)
C20 C 1.1247(2) -0.13696(13) 0.34597(16)
H23 H 1.1833 -0.1652 0.3255
C21 C 1.0659(2) -0.08222(13) 0.29251(16)
H24 H 1.0861 -0.0731 0.2358
C22 C 1.1593(2) -0.20968(14) 0.49065(17)
H25 H 1.1547 -0.1957 0.5527
H26 H 1.2400 -0.2101 0.4834
C23 C 1.1100(2) -0.28914(14) 0.47178(17)
H27 H 1.0300 -0.2894 0.4810
H28 H 1.1126 -0.3028 0.4093
C24 C 1.2166(2) -0.41192(13) 0.67088(16)
H29 H 1.2001 -0.4195 0.7290
C25 C 1.1521(2) -0.36028(13) 0.61684(16)
H30 H 1.0921 -0.3336 0.6375
C26 C 1.1755(2) -0.34756(13) 0.53175(16)
C27 C 1.2633(2) -0.38888(14) 0.50510(16)
H31 H 1.2818 -0.3818 0.4475
C28 C 1.3239(2) -0.44032(13) 0.56250(15)
H32 H 1.3833 -0.4684 0.5430
N1 N 0.98103(16) -0.04110(11) 0.31728(12)
N2 N 1.30176(16) -0.45210(10) 0.64529(12)
O1 O 0.56492(14) 0.17833(9) 0.26263(11)
O2 O 0.27175(15) -0.12780(10) 0.18462(12)
O3 O 1.18663(13) 0.19654(9) 0.19424(11)
O4 O 0.86901(16) 0.42479(10) -0.05377(11)
P1 P 0.63015(5) 0.11105(3) 0.21851(4)
P2 P 1.05570(5) 0.18382(3) 0.20256(4)
S1 S 0.75574(5) 0.07651(3) 0.31623(4)
S2 S 0.68315(5) 0.14144(4) 0.10982(4)
S3 S 1.01479(5) 0.08043(3) 0.14382(4)
S4 S 1.02287(6) 0.19458(4) 0.32280(4)
Zn1 Zn 0.88564(2) 0.035111(14) 0.228697(17)
N2C N 0.80176(16) -0.04790(10) 0.14529(12)
Zn1C Zn 1.38564(2) -0.535111(14) 0.728697(17)
loop_
_geom_bond_atom_site_label_1
_geom_bond_atom_site_label_2
_geom_bond_site_symmetry_1
_geom_bond_site_symmetry_2
C1 H1 1_555 1_555
H2 C1 1_555 1_555
H3 C1 1_555 1_555
C2 C3 1_555 1_555
C3 H4 1_555 1_555
C4 C3 1_555 1_555
H5 C4 1_555 1_555
C5 C4 1_555 1_555
C6 C5 1_555 1_555
H6 C6 1_555 1_555
C7 C2 1_555 1_555
H7 C7 1_555 1_555
C8 H8 1_555 1_555
H9 C8 1_555 1_555
H10 C8 1_555 1_555
C9 H11 1_555 1_555
H12 C9 1_555 1_555
H13 C9 1_555 1_555
C10 C11 1_555 1_555
C11 H14 1_555 1_555
C12 C11 1_555 1_555
H15 C12 1_555 1_555
C13 C12 1_555 1_555
C14 C13 1_555 1_555
H16 C14 1_555 1_555
C15 C10 1_555 1_555
H17 C15 1_555 1_555
C16 H18 1_555 1_555
H19 C16 1_555 1_555
H20 C16 1_555 1_555
C17 H21 1_555 1_555
C18 C17 1_555 1_555
H22 C18 1_555 1_555
C19 C18 1_555 1_555
C20 C19 1_555 1_555
H23 C20 1_555 1_555
C21 C20 1_555 1_555
H24 C21 1_555 1_555
C22 C19 1_555 1_555
H25 C22 1_555 1_555
H26 C22 1_555 1_555
C23 C22 1_555 1_555
H27 C23 1_555 1_555
H28 C23 1_555 1_555
C24 H29 1_555 1_555
C25 C24 1_555 1_555
H30 C25 1_555 1_555
C26 C23 1_555 1_555
C27 C26 1_555 1_555
H31 C27 1_555 1_555
C28 C27 1_555 1_555
H32 C28 1_555 1_555
N1 C17 1_555 1_555
N2 C24 1_555 1_555
O1 C1 1_555 1_555
O2 C5 1_555 1_555
O3 C9 1_555 1_555
O4 C13 1_555 1_555
P1 C2 1_555 1_555
P2 C10 1_555 1_555
S1 P1 1_555 1_555
S2 P1 1_555 1_555
S3 P2 1_555 1_555
S4 P2 1_555 1_555
Zn1 N1 1_555 1_555
N2C Zn1 1_555 1_555
Zn1C N2 1_555 1_555
C6 C7 1_555 1_555
C8 O2 1_555 1_555
C14 C15 1_555 1_555
C16 O4 1_555 1_555
C21 N1 1_555 1_555
C25 C26 1_555 1_555
C28 N2 1_555 1_555
O1 P1 1_555 1_555
O3 P2 1_555 1_555
S1 Zn1 1_555 1_555
S3 Zn1 1_555 1_555

#END
