
#######################################################################
#
#                 Cambridge Crystallographic Data Centre
#                                CCDC 
#
#######################################################################
#
# If this CIF has been generated from an entry in the Cambridge 
# Structural Database, then it will include bibliographic, chemical, 
# crystal, experimental, refinement or atomic coordinate data resulting 
# from the CCDC's data processing and validation procedures.
#
#######################################################################

data_OREJEB
_symmetry_cell_setting           monoclinic
_symmetry_space_group_name_H-M   'P 21/c'
_symmetry_Int_Tables_number      14
_space_group_name_Hall           '-P 2ybc'
loop_
_symmetry_equiv_pos_site_id
_symmetry_equiv_pos_as_xyz
1 x,y,z
2 -x,1/2+y,1/2-z
3 -x,-y,-z
4 x,1/2-y,1/2+z
_cell_length_a                   7.5215(3)
_cell_length_b                   18.9245(6)
_cell_length_c                   18.8994(4)
_cell_angle_alpha                90
_cell_angle_beta                 97.361(3)
_cell_angle_gamma                90
_cell_volume                     2667.98
loop_
_atom_site_label
_atom_site_type_symbol
_atom_site_fract_x
_atom_site_fract_y
_atom_site_fract_z
Cu1 Cu 0.47528(8) 0.72061(3) 0.45476(2)
Cu2 Cu 0.75239(7) 0.49156(3) 0.24695(2)
O1 O 0.7415(5) 0.51295(16) 0.34484(15)
O2 O 0.5410(4) 0.59855(17) 0.31984(15)
O3 O 0.3954(4) 0.82037(15) 0.44812(14)
O4 O 0.3152(6) 0.83107(18) 0.33118(16)
O5 O 0.4732(4) 0.46606(16) 0.22601(15)
O6 O 0.4498(4) 0.55586(17) 0.15243(16)
O7 O 0.2127(4) 0.49961(19) 0.17488(19)
O11 O 0.7525(5) 0.7477(2) 0.4142(2)
H1 H 0.838(5) 0.735(3) 0.444(3)
H2 H 0.797(7) 0.780(2) 0.393(3)
O12 O 0.3588(5) 0.69774(18) 0.36100(16)
H3 H 0.330(7) 0.7330(19) 0.338(2)
H4 H 0.441(5) 0.680(3) 0.344(3)
O13 O 0.8412(4) 0.39308(16) 0.28173(15)
H5 H 0.822(6) 0.382(3) 0.3214(12)
H6 H 0.786(6) 0.369(2) 0.2525(18)
N1 N 0.3772(5) 0.5083(2) 0.18380(18)
N3 N 0.5356(4) 0.72691(18) 0.55960(16)
N4 N 0.5799(4) 0.62386(17) 0.47461(15)
N5 N 0.1312(4) 1.08207(18) 0.27585(18)
N6 N 0.2176(4) 0.97367(18) 0.35543(17)
C1 C 0.5000(6) 0.7829(2) 0.5995(2)
H9 H 0.4583 0.8253 0.5760
C2 C 0.5215(6) 0.7812(2) 0.6732(2)
H10 H 0.4974 0.8217 0.7002
C3 C 0.5788(6) 0.7193(3) 0.7062(2)
H11 H 0.5954 0.7168 0.7568
C4 C 0.6129(6) 0.6603(2) 0.6666(2)
H12 H 0.6489 0.6167 0.6889
C5 C 0.5920(5) 0.6677(2) 0.5928(2)
N7 N 0.6251(4) 0.61181(18) 0.54623(15)
C6 C 0.7170(5) 0.5494(2) 0.5579(2)
C7 C 0.7906(7) 0.5195(3) 0.6288(2)
H13 H 0.8581 0.4763 0.6219
H14 H 0.6917 0.5084 0.6561
H15 H 0.8703 0.5542 0.6551
C8 C 0.7309(5) 0.5216(2) 0.4921(2)
H16 H 0.7868 0.4783 0.4824
C9 C 0.6471(5) 0.5689(2) 0.4420(2)
C10 C 0.6381(6) 0.5611(2) 0.3625(2)
C11 C 0.0700(6) 1.1329(3) 0.2288(3)
H17 H 0.0782 1.1259 0.1795
C12 C -0.0039(7) 1.1946(3) 0.2500(3)
H18 H -0.0423 1.2305 0.2163
C13 C -0.0209(7) 1.2032(3) 0.3205(3)
H19 H -0.0737 1.2451 0.3360
C14 C 0.0382(6) 1.1514(3) 0.3696(3)
H20 H 0.0270 1.1568 0.4188
C15 C 0.1130(5) 1.0923(2) 0.3445(2)
N8 N 0.1783(4) 1.03473(18) 0.38881(17)
C16 C 0.2166(6) 1.0281(2) 0.4615(2)
C17 C 0.2019(7) 1.0863(3) 0.5137(2)
H21 H 0.2501 1.0703 0.5616
H22 H 0.0757 1.0995 0.5130
H23 H 0.2702 1.1274 0.5007
C18 C 0.2795(6) 0.9611(2) 0.4736(2)
H24 H 0.3169 0.9404 0.5189
C19 C 0.2787(5) 0.9286(2) 0.40730(19)
C20 C 0.3310(6) 0.8543(2) 0.3936(2)
Cu2A Cu 0.24761(7) 0.99156(3) 0.25305(2)
N5A N 0.8688(4) 0.58207(18) 0.22415(18)
N6A N 0.7824(4) 0.47367(18) 0.14457(17)
O8 O 0.2014(4) 0.6403(2) 0.57969(16)
O9 O -0.0525(14) 0.6880(13) 0.5446(6)
O10 O 0.1561(17) 0.6906(17) 0.4776(8)
N2 N 0.1010(4) 0.6723(2) 0.53361(15)
O14 O 0.8779(5) 0.85409(19) 0.3256(2)
H7 H 0.848(7) 0.8964(14) 0.319(3)
H8 H 0.954(6) 0.850(3) 0.298(3)
O15? O -0.030(3) 0.7047(15) 0.5503(4)
O16? O 0.123(3) 0.6673(16) 0.4702(3)
loop_
_geom_bond_atom_site_label_1
_geom_bond_atom_site_label_2
_geom_bond_site_symmetry_1
_geom_bond_site_symmetry_2
Cu1 O3 1_555 1_555
Cu2 O1 1_555 1_555
O1 C10 1_555 1_555
O2 C10 1_555 1_555
O3 C20 1_555 1_555
O4 C20 1_555 1_555
O5 Cu2 1_555 1_555
O6 N1 1_555 1_555
O7 N1 1_555 1_555
O8 N2 1_555 1_555
O9 N2 1_555 1_555
O10 N2 1_555 1_555
O11 Cu1 1_555 1_555
H1 O11 1_555 1_555
H2 O11 1_555 1_555
O12 Cu1 1_555 1_555
H3 O12 1_555 1_555
H4 O12 1_555 1_555
O13 Cu2 1_555 1_555
H5 O13 1_555 1_555
H6 O13 1_555 1_555
O14 H7 1_555 1_555
H8 O14 1_555 1_555
N1 O5 1_555 1_555
N3 Cu1 1_555 1_555
N4 Cu1 1_555 1_555
N5 C11 1_555 1_555
N6 N8 1_555 1_555
C1 N3 1_555 1_555
H9 C1 1_555 1_555
C2 C1 1_555 1_555
H10 C2 1_555 1_555
C3 C2 1_555 1_555
H11 C3 1_555 1_555
C4 C3 1_555 1_555
H12 C4 1_555 1_555
C5 N3 1_555 1_555
N7 N4 1_555 1_555
C6 N7 1_555 1_555
C7 C6 1_555 1_555
H13 C7 1_555 1_555
H14 C7 1_555 1_555
H15 C7 1_555 1_555
C8 C6 1_555 1_555
H16 C8 1_555 1_555
C9 N4 1_555 1_555
C10 C9 1_555 1_555
C11 H17 1_555 1_555
C12 C11 1_555 1_555
H18 C12 1_555 1_555
C13 C12 1_555 1_555
H19 C13 1_555 1_555
C14 C13 1_555 1_555
H20 C14 1_555 1_555
C15 N5 1_555 1_555
N8 C15 1_555 1_555
C16 N8 1_555 1_555
C17 C16 1_555 1_555
H21 C17 1_555 1_555
H22 C17 1_555 1_555
H23 C17 1_555 1_555
C18 C16 1_555 1_555
H24 C18 1_555 1_555
C19 N6 1_555 1_555
C20 C19 1_555 1_555
Cu2A N5 1_555 1_555
N5A Cu2 1_555 1_555
N6A Cu2 1_555 1_555
N6 Cu2A 1_555 1_555
C4 C5 1_555 1_555
C5 N7 1_555 1_555
C8 C9 1_555 1_555
C14 C15 1_555 1_555
C18 C19 1_555 1_555

#END
