
#######################################################################
#
#                 Cambridge Crystallographic Data Centre
#                                CCDC 
#
#######################################################################
#
# If this CIF has been generated from an entry in the Cambridge 
# Structural Database, then it will include bibliographic, chemical, 
# crystal, experimental, refinement or atomic coordinate data resulting 
# from the CCDC's data processing and validation procedures.
#
#######################################################################

data_OREMOO
_symmetry_cell_setting           monoclinic
_symmetry_space_group_name_H-M   'P 21/c'
_symmetry_Int_Tables_number      14
_space_group_name_Hall           '-P 2ybc'
loop_
_symmetry_equiv_pos_site_id
_symmetry_equiv_pos_as_xyz
1 x,y,z
2 -x,1/2+y,1/2-z
3 -x,-y,-z
4 x,1/2-y,1/2+z
_cell_length_a                   8.5285(3)
_cell_length_b                   9.3445(3)
_cell_length_c                   16.6446(6)
_cell_angle_alpha                90
_cell_angle_beta                 91.580(2)
_cell_angle_gamma                90
_cell_volume                     1325.98
loop_
_atom_site_label
_atom_site_type_symbol
_atom_site_fract_x
_atom_site_fract_y
_atom_site_fract_z
Cu1 Cu -0.08236(3) 0.23453(3) 0.279850(16)
O1 O -0.54210(16) 0.41919(16) 0.07968(8)
O2 O -0.32374(19) 0.57748(17) 0.50009(9)
N1 N 0.01479(19) -0.07714(18) 0.26084(9)
C1 C -0.0152(2) 0.0417(2) 0.26976(11)
N2 N -0.3260(2) 0.25038(17) 0.24106(10)
N3 N -0.1173(2) 0.29708(18) 0.40167(10)
C2 C -0.3675(2) 0.3271(2) 0.17630(11)
H1 H -0.2886 0.3793 0.1497
C3 C -0.5213(2) 0.3342(2) 0.14593(11)
C4 C -0.6386(3) 0.2606(2) 0.18420(14)
H2 H -0.7448 0.2652 0.1656
C5 C -0.5942(2) 0.1798(2) 0.25118(12)
H3 H -0.6706 0.1265 0.2789
C6 C -0.4396(2) 0.1766(2) 0.27746(12)
H4 H -0.4120 0.1201 0.3231
C7 C -0.6998(2) 0.4339(3) 0.04884(13)
H5 H -0.7388 0.3405 0.0305
H6 H -0.7018 0.5012 0.0036
H7 H -0.7665 0.4703 0.0913
C8 C -0.2051(2) 0.4108(2) 0.41719(12)
H8 H -0.2537 0.4603 0.3733
C9 C -0.2292(2) 0.4610(2) 0.49505(12)
C10 C -0.1566(2) 0.3907(2) 0.55906(12)
H9 H -0.1687 0.4228 0.6127
C11 C -0.0657(3) 0.2724(2) 0.54263(14)
H10 H -0.0152 0.2212 0.5853
C12 C -0.0483(3) 0.2283(2) 0.46407(13)
H11 H 0.0145 0.1467 0.4539
C13 C -0.3620(3) 0.6236(3) 0.57945(14)
H12 H -0.4118 0.5447 0.6080
H13 H -0.4344 0.7049 0.5757
H14 H -0.2660 0.6526 0.6088
Cu1A Cu 0.08236(3) -0.26547(3) 0.220150(16)
N1A N -0.01479(19) 0.42286(18) 0.23916(9)
loop_
_geom_bond_atom_site_label_1
_geom_bond_atom_site_label_2
_geom_bond_site_symmetry_1
_geom_bond_site_symmetry_2
Cu1 C1 1_555 1_555
O1 C3 1_555 1_555
O2 C9 1_555 1_555
N1 C1 1_555 1_555
N2 Cu1 1_555 1_555
N3 Cu1 1_555 1_555
C2 N2 1_555 1_555
H1 C2 1_555 1_555
C3 C2 1_555 1_555
C4 C3 1_555 1_555
H2 C4 1_555 1_555
C5 C4 1_555 1_555
H3 C5 1_555 1_555
C6 N2 1_555 1_555
H4 C6 1_555 1_555
C7 O1 1_555 1_555
H5 C7 1_555 1_555
H6 C7 1_555 1_555
H7 C7 1_555 1_555
C8 N3 1_555 1_555
H8 C8 1_555 1_555
C9 C8 1_555 1_555
C10 C9 1_555 1_555
H9 C10 1_555 1_555
C11 C10 1_555 1_555
H10 C11 1_555 1_555
C12 N3 1_555 1_555
H11 C12 1_555 1_555
C13 O2 1_555 1_555
H12 C13 1_555 1_555
H13 C13 1_555 1_555
H14 C13 1_555 1_555
Cu1A N1 1_555 1_555
N1A Cu1 1_555 1_555
C5 C6 1_555 1_555
C11 C12 1_555 1_555

#END
