
#######################################################################
#
#                 Cambridge Crystallographic Data Centre
#                                CCDC 
#
#######################################################################
#
# If this CIF has been generated from an entry in the Cambridge 
# Structural Database, then it will include bibliographic, chemical, 
# crystal, experimental, refinement or atomic coordinate data resulting 
# from the CCDC's data processing and validation procedures.
#
#######################################################################

data_ORENUV
_symmetry_cell_setting           monoclinic
_symmetry_space_group_name_H-M   'P 2/n'
_symmetry_Int_Tables_number      13
_space_group_name_Hall           '-P 2yac'
loop_
_symmetry_equiv_pos_site_id
_symmetry_equiv_pos_as_xyz
1 x,y,z
2 1/2-x,y,1/2-z
3 -x,-y,-z
4 1/2+x,-y,1/2+z
_cell_length_a                   10.015(3)
_cell_length_b                   20.943(5)
_cell_length_c                   13.889(3)
_cell_angle_alpha                90
_cell_angle_beta                 91.473(6)
_cell_angle_gamma                90
_cell_volume                     2912.17
loop_
_atom_site_label
_atom_site_type_symbol
_atom_site_fract_x
_atom_site_fract_y
_atom_site_fract_z
Mo1 Mo 0.7500 0.17741(2) 0.2500
Cu1 Cu 0.39682(5) 0.14288(2) 0.31069(4)
P1 P 0.47780(11) 0.20835(5) 0.11508(8)
P2 P 0.42158(12) 0.71873(6) 0.16734(8)
P3 P 0.55322(10) 0.25572(5) 0.39740(8)
O1 O 0.4427(3) 0.18369(14) 0.0134(2)
H1 H 0.4549 0.2129 -0.0268
O2 O 0.3818(3) 0.17908(13) 0.1845(2)
O3 O 0.6248(3) 0.19019(13) 0.1381(2)
O4 O 0.5462(3) 0.74900(15) 0.1292(2)
O5 O 0.2898(3) 0.74083(15) 0.1244(2)
O6 O 0.4289(3) 0.73193(16) 0.2789(2)
O7 O 0.4211(3) 0.22262(13) 0.3774(2)
O8 O 0.6481(3) 0.25532(13) 0.3140(2)
O9 O 0.6159(4) 0.22267(16) 0.4887(2)
O10 O 0.6450(3) 0.12550(13) 0.3081(2)
N1 N 0.4098(3) 0.05359(17) 0.2558(3)
N2 N 0.3536(3) 0.09545(17) 0.4290(2)
C1 C 0.4673(4) 0.2939(2) 0.1178(3)
C2 C 0.3481(4) 0.3241(2) 0.1392(4)
H2 H 0.2712 0.2993 0.1522
C3 C 0.3410(4) 0.3904(2) 0.1416(4)
H3 H 0.2587 0.4102 0.1560
C4 C 0.4519(4) 0.4284(2) 0.1233(3)
C5 C 0.5701(4) 0.3972(2) 0.0999(3)
H4 H 0.6468 0.4218 0.0856
C6 C 0.5778(4) 0.3316(2) 0.0973(3)
H5 H 0.6595 0.3117 0.0812
C7 C 0.4453(4) 0.4990(2) 0.1320(3)
C8 C 0.3247(5) 0.5314(2) 0.1258(3)
H6 H 0.2445 0.5081 0.1141
C9 C 0.3187(5) 0.5974(2) 0.1364(3)
H7 H 0.2345 0.6182 0.1323
C10 C 0.4326(4) 0.6334(2) 0.1528(3)
C11 C 0.5553(5) 0.6014(2) 0.1571(4)
H8 H 0.6354 0.6250 0.1667
C12 C 0.5613(5) 0.5355(2) 0.1474(4)
H9 H 0.6456 0.5147 0.1512
C13 C 0.5278(4) 0.33728(19) 0.4292(3)
C14 C 0.4788(5) 0.3532(2) 0.5187(4)
H10 H 0.4524 0.3205 0.5616
C15 C 0.4682(5) 0.4166(2) 0.5456(3)
H11 H 0.4355 0.4267 0.6074
C16 C 0.5043(4) 0.46592(19) 0.4845(3)
C17 C 0.5492(5) 0.4491(2) 0.3944(3)
H12 H 0.5723 0.4818 0.3504
C18 C 0.5614(5) 0.3862(2) 0.3669(3)
H13 H 0.5931 0.3762 0.3049
C19 C 0.4453(4) 0.0342(2) 0.1683(3)
H14 H 0.4600 0.0652 0.1199
C20 C 0.4615(4) -0.0303(2) 0.1461(3)
H15 H 0.4887 -0.0424 0.0837
C21 C 0.4383(4) -0.0764(2) 0.2137(3)
H16 H 0.4485 -0.1203 0.1983
C22 C 0.3991(4) -0.0578(2) 0.3064(3)
C23 C 0.3889(4) 0.0079(2) 0.3236(3)
C24 C 0.3696(4) -0.1015(2) 0.3825(3)
H17 H 0.3753 -0.1462 0.3716
C25 C 0.3337(5) -0.0796(2) 0.4693(3)
H18 H 0.3133 -0.1095 0.5183
C26 C 0.3255(4) -0.0123(2) 0.4904(3)
C27 C 0.3543(4) 0.0309(2) 0.4165(3)
C28 C 0.2934(4) 0.0140(2) 0.5795(3)
H19 H 0.2733 -0.0132 0.6318
C29 C 0.2910(4) 0.0787(2) 0.5916(3)
H20 H 0.2682 0.0965 0.6518
C30 C 0.3225(4) 0.1186(2) 0.5142(3)
H21 H 0.3214 0.1635 0.5233
H22 H 0.353(5) 0.735(2) 0.298(3)
H23 H 0.665(5) 0.235(2) 0.511(4)
Mo1B Mo 0.2500 0.82259(2) 0.7500
Cu1A Cu 1.10318(5) 0.14288(2) 0.18931(4)
Cu1B Cu 0.60318(5) 0.85712(2) 0.68931(4)
P1A P 1.02220(11) 0.20835(5) 0.38492(8)
P2A P 1.07842(12) 0.71873(6) 0.33266(8)
P3B P 0.44678(10) 0.74428(5) 0.60260(8)
O1A O 1.0573(3) 0.18369(14) 0.4866(2)
H1A H 1.0451 0.2129 0.5268
O2A O 1.1182(3) 0.17908(13) 0.3155(2)
O3A O 0.8752(3) 0.19019(13) 0.3619(2)
O4A O 0.9538(3) 0.74900(15) 0.3708(2)
O5A O 1.2102(3) 0.74083(15) 0.3756(2)
O6A O 1.0711(3) 0.73193(16) 0.2211(2)
O7B O 0.5789(3) 0.77738(13) 0.6226(2)
O7A O 1.0789(3) 0.22262(13) 0.1226(2)
O8B O 0.3519(3) 0.74468(13) 0.6860(2)
O8A O 0.8519(3) 0.25532(13) 0.1860(2)
O9B O 0.3841(4) 0.77733(16) 0.5113(2)
O10A O 0.8550(3) 0.12550(13) 0.1919(2)
N1A N 1.0902(3) 0.05359(17) 0.2442(3)
N2A N 1.1464(3) 0.09545(17) 0.0710(2)
C1A C 1.0327(4) 0.2939(2) 0.3822(3)
C2A C 1.1519(4) 0.3241(2) 0.3608(4)
H2A H 1.2288 0.2993 0.3478
C3A C 1.1590(4) 0.3904(2) 0.3584(4)
H3A H 1.2413 0.4102 0.3440
C4A C 1.0481(4) 0.4284(2) 0.3767(3)
C5A C 0.9299(4) 0.3972(2) 0.4001(3)
H4A H 0.8532 0.4218 0.4144
C6A C 0.9222(4) 0.3316(2) 0.4027(3)
H5A H 0.8405 0.3117 0.4188
C7A C 1.0547(4) 0.4990(2) 0.3680(3)
C8A C 1.1753(5) 0.5314(2) 0.3742(3)
H6A H 1.2555 0.5081 0.3859
C9A C 1.1813(5) 0.5974(2) 0.3636(3)
H7A H 1.2655 0.6182 0.3677
C10A C 1.0674(4) 0.6334(2) 0.3472(3)
C11A C 0.9447(5) 0.6014(2) 0.3429(4)
H8A H 0.8646 0.6250 0.3333
C12A C 0.9387(5) 0.5355(2) 0.3526(4)
H9A H 0.8544 0.5147 0.3488
C13B C 0.4722(4) 0.66272(19) 0.5708(3)
C14B C 0.5212(5) 0.6468(2) 0.4813(4)
H10B H 0.5476 0.6795 0.4384
C15B C 0.5318(5) 0.5834(2) 0.4544(3)
H11B H 0.5645 0.5733 0.3926
C16B C 0.4957(4) 0.53408(19) 0.5155(3)
C17B C 0.4508(5) 0.5509(2) 0.6056(3)
H12B H 0.4277 0.5182 0.6496
C18B C 0.4386(5) 0.6138(2) 0.6331(3)
H13B H 0.4069 0.6238 0.6951
C19A C 1.0547(4) 0.0342(2) 0.3317(3)
H14A H 1.0400 0.0652 0.3801
C20A C 1.0385(4) -0.0303(2) 0.3539(3)
H15A H 1.0113 -0.0424 0.4163
C21A C 1.0617(4) -0.0764(2) 0.2863(3)
H16A H 1.0515 -0.1203 0.3017
C22A C 1.1009(4) -0.0578(2) 0.1936(3)
C23A C 1.1111(4) 0.0079(2) 0.1764(3)
C24A C 1.1304(4) -0.1015(2) 0.1175(3)
H17A H 1.1247 -0.1462 0.1284
C25A C 1.1663(5) -0.0796(2) 0.0307(3)
H18A H 1.1867 -0.1095 -0.0183
C26A C 1.1745(4) -0.0123(2) 0.0096(3)
C27A C 1.1457(4) 0.0309(2) 0.0835(3)
C28A C 1.2066(4) 0.0140(2) -0.0795(3)
H19A H 1.2267 -0.0132 -0.1318
C29A C 1.2090(4) 0.0787(2) -0.0916(3)
H20A H 1.2318 0.0965 -0.1518
C30A C 1.1775(4) 0.1186(2) -0.0142(3)
H21A H 1.1786 0.1635 -0.0233
H22A H 1.147(5) 0.735(2) 0.202(3)
H23B H 0.335(5) 0.765(2) 0.489(4)
O11 O 0.2500 0.1903(2) 0.7500
loop_
_geom_bond_atom_site_label_1
_geom_bond_atom_site_label_2
_geom_bond_site_symmetry_1
_geom_bond_site_symmetry_2
Mo1 O3 1_555 1_555
Cu1 O2 1_555 1_555
P1 O1 1_555 1_555
P2 O4 1_555 1_555
P3 O7 1_555 1_555
O1 H1 1_555 1_555
O2 P1 1_555 1_555
O3 P1 1_555 1_555
O5 P2 1_555 1_555
O6 P2 1_555 1_555
O7 Cu1 1_555 1_555
O8 Mo1 1_555 1_555
O9 P3 1_555 1_555
O10 Mo1 1_555 1_555
N1 Cu1 1_555 1_555
N2 Cu1 1_555 1_555
C1 P1 1_555 1_555
C2 C1 1_555 1_555
H2 C2 1_555 1_555
C3 C2 1_555 1_555
H3 C3 1_555 1_555
C4 C3 1_555 1_555
C5 C4 1_555 1_555
H4 C5 1_555 1_555
C6 C1 1_555 1_555
H5 C6 1_555 1_555
C7 C4 1_555 1_555
C8 C7 1_555 1_555
H6 C8 1_555 1_555
C9 C8 1_555 1_555
H7 C9 1_555 1_555
C10 P2 1_555 1_555
C11 C10 1_555 1_555
H8 C11 1_555 1_555
C12 C7 1_555 1_555
H9 C12 1_555 1_555
C13 P3 1_555 1_555
C14 C13 1_555 1_555
H10 C14 1_555 1_555
C15 C14 1_555 1_555
H11 C15 1_555 1_555
C16 C15 1_555 1_555
C17 C16 1_555 1_555
H12 C17 1_555 1_555
C18 C13 1_555 1_555
H13 C18 1_555 1_555
C19 N1 1_555 1_555
H14 C19 1_555 1_555
C20 C19 1_555 1_555
H15 C20 1_555 1_555
C21 C20 1_555 1_555
H16 C21 1_555 1_555
C22 C21 1_555 1_555
C23 N1 1_555 1_555
C24 C22 1_555 1_555
H17 C24 1_555 1_555
C25 C24 1_555 1_555
H18 C25 1_555 1_555
C26 C25 1_555 1_555
C27 N2 1_555 1_555
C28 C26 1_555 1_555
H19 C28 1_555 1_555
C29 C28 1_555 1_555
H20 C29 1_555 1_555
C30 N2 1_555 1_555
H21 C30 1_555 1_555
H22 O6 1_555 1_555
H23 O9 1_555 1_555
Mo1B O8B 1_555 1_555
Cu1A O2A 1_555 1_555
Cu1B O7B 1_555 1_555
P1A O1A 1_555 1_555
P2A O4A 1_555 1_555
P3B O7B 1_555 1_555
O1A H1A 1_555 1_555
O2A P1A 1_555 1_555
O3A Mo1 1_555 1_555
O5A P2A 1_555 1_555
O6A P2A 1_555 1_555
O7A Cu1A 1_555 1_555
O8B P3B 1_555 1_555
O8A Mo1 1_555 1_555
O9B P3B 1_555 1_555
O10A Mo1 1_555 1_555
N1A Cu1A 1_555 1_555
N2A Cu1A 1_555 1_555
C1A P1A 1_555 1_555
C2A C1A 1_555 1_555
H2A C2A 1_555 1_555
C3A C2A 1_555 1_555
H3A C3A 1_555 1_555
C4A C3A 1_555 1_555
C5A C4A 1_555 1_555
H4A C5A 1_555 1_555
C6A C1A 1_555 1_555
H5A C6A 1_555 1_555
C7A C4A 1_555 1_555
C8A C7A 1_555 1_555
H6A C8A 1_555 1_555
C9A C8A 1_555 1_555
H7A C9A 1_555 1_555
C10A P2A 1_555 1_555
C11A C10A 1_555 1_555
H8A C11A 1_555 1_555
C12A C7A 1_555 1_555
H9A C12A 1_555 1_555
C13B P3B 1_555 1_555
C14B C13B 1_555 1_555
H10B C14B 1_555 1_555
C15B C14B 1_555 1_555
H11B C15B 1_555 1_555
C16B C16 1_555 1_555
C17B C16B 1_555 1_555
H12B C17B 1_555 1_555
C18B C13B 1_555 1_555
H13B C18B 1_555 1_555
C19A N1A 1_555 1_555
H14A C19A 1_555 1_555
C20A C19A 1_555 1_555
H15A C20A 1_555 1_555
C21A C20A 1_555 1_555
H16A C21A 1_555 1_555
C22A C21A 1_555 1_555
C23A N1A 1_555 1_555
C24A C22A 1_555 1_555
H17A C24A 1_555 1_555
C25A C24A 1_555 1_555
H18A C25A 1_555 1_555
C26A C25A 1_555 1_555
C27A N2A 1_555 1_555
C28A C26A 1_555 1_555
H19A C28A 1_555 1_555
C29A C28A 1_555 1_555
H20A C29A 1_555 1_555
C30A N2A 1_555 1_555
H21A C30A 1_555 1_555
H22A O6A 1_555 1_555
H23B O9B 1_555 1_555
Cu1 O10 1_555 1_555
P3 O8 1_555 1_555
C5 C6 1_555 1_555
C9 C10 1_555 1_555
C11 C12 1_555 1_555
C17 C18 1_555 1_555
C22 C23 1_555 1_555
C23 C27 1_555 1_555
C26 C27 1_555 1_555
C29 C30 1_555 1_555
Cu1A O10A 1_555 1_555
P1A O3A 1_555 1_555
C5A C6A 1_555 1_555
C9A C10A 1_555 1_555
C11A C12A 1_555 1_555
C15B C16B 1_555 1_555
C17B C18B 1_555 1_555
C22A C23A 1_555 1_555
C23A C27A 1_555 1_555
C26A C27A 1_555 1_555
C29A C30A 1_555 1_555

#END
