
#######################################################################
#
#                 Cambridge Crystallographic Data Centre
#                                CCDC 
#
#######################################################################
#
# If this CIF has been generated from an entry in the Cambridge 
# Structural Database, then it will include bibliographic, chemical, 
# crystal, experimental, refinement or atomic coordinate data resulting 
# from the CCDC's data processing and validation procedures.
#
#######################################################################

data_ORIBIB
_symmetry_cell_setting           triclinic
_symmetry_space_group_name_H-M   'P -1'
_symmetry_Int_Tables_number      2
_space_group_name_Hall           '-P 1'
loop_
_symmetry_equiv_pos_site_id
_symmetry_equiv_pos_as_xyz
1 x,y,z
2 -x,-y,-z
_cell_length_a                   9.209(5)
_cell_length_b                   10.169(6)
_cell_length_c                   12.785(7)
_cell_angle_alpha                76.94(2)
_cell_angle_beta                 69.44(2)
_cell_angle_gamma                67.81(2)
_cell_volume                     1031.95
loop_
_atom_site_label
_atom_site_type_symbol
_atom_site_fract_x
_atom_site_fract_y
_atom_site_fract_z
Ag1 Ag 0.28531(3) 0.08807(3) 0.82579(2)
C1 C 0.5813(4) 0.0684(4) 0.5997(3)
C2 C 0.6921(5) -0.1571(5) 0.5612(3)
C3 C 0.7851(6) -0.2878(5) 0.5198(4)
H1 H 0.8776 -0.2969 0.4576
C4 C 0.7361(8) -0.4022(6) 0.5735(5)
H2 H 0.7986 -0.4920 0.5495
C5 C 0.5892(8) -0.3869(6) 0.6668(5)
H3 H 0.5554 -0.4659 0.7003
C6 C 0.4975(6) -0.2554(5) 0.7074(4)
H4 H 0.4031 -0.2449 0.7683
C7 C 0.5510(5) -0.1403(4) 0.6542(3)
C8 C 0.8347(5) 0.0144(5) 0.4313(3)
H5 H 0.8013 0.1171 0.4119
H6 H 0.8472 -0.0292 0.3672
C9 C 1.0005(5) -0.0367(6) 0.4557(4)
H7 H 1.0306 -0.1386 0.4787
H8 H 1.0837 -0.0208 0.3870
C10 C 0.5566(5) 0.2226(5) 0.5908(4)
H9 H 0.4641 0.2648 0.6514
H10 H 0.5365 0.2683 0.5204
H11 H 0.6530 0.2346 0.5946
C11 C 0.2880(4) 0.3069(4) 0.9771(4)
C12 C 0.1772(4) 0.5278(4) 0.9086(3)
C13 C 0.1097(5) 0.6756(5) 0.8849(4)
H12 H 0.1058 0.7392 0.9287
C14 C 0.0499(6) 0.7221(6) 0.7948(4)
H13 H 0.0045 0.8197 0.7765
C15 C 0.0554(7) 0.6256(7) 0.7286(4)
H14 H 0.0133 0.6609 0.6678
C16 C 0.1221(6) 0.4792(6) 0.7524(4)
H15 H 0.1257 0.4158 0.7086
C17 C 0.1833(5) 0.4307(5) 0.8440(3)
C18 C 0.2737(5) 0.5035(5) 1.0754(3)
H16 H 0.2926 0.4299 1.1369
H17 H 0.1766 0.5817 1.1057
C19 C 0.4210(4) 0.5572(4) 1.0247(3)
H18 H 0.3987 0.6349 0.9664
H19 H 0.4347 0.5949 1.0826
C20 C 0.3640(6) 0.1841(5) 1.0506(5)
H20 H 0.3231 0.2083 1.1264
H21 H 0.4810 0.1621 1.0247
H22 H 0.3370 0.1025 1.0484
C21 C -0.0556(4) 0.0416(4) 0.9602(3)
N1 N 0.4856(4) 0.0015(4) 0.6763(2)
N2 N 0.7065(4) -0.0218(4) 0.5277(2)
N3 N 0.2531(4) 0.2920(4) 0.8893(3)
N4 N 0.2450(4) 0.4456(3) 0.9924(3)
O1 O 0.0125(4) 0.0879(4) 0.8644(3)
O2 O -0.2034(3) 0.0554(3) 0.9975(3)
Ag1A Ag 1.71469(3) -0.08807(3) 0.17421(2)
Ag1A_2 Ag -0.28531(3) -0.08807(3) 1.17421(2)
Ag1A_3 Ag 0.71469(3) 0.91193(3) 1.17421(2)
C1A C 1.4187(4) -0.0684(4) 0.4003(3)
C2A C 1.3079(5) 0.1571(5) 0.4388(3)
C3A C 1.2149(6) 0.2878(5) 0.4802(4)
H1A H 1.1224 0.2969 0.5424
C4A C 1.2639(8) 0.4022(6) 0.4265(5)
H2A H 1.2014 0.4920 0.4505
C5A C 1.4108(8) 0.3869(6) 0.3332(5)
H3A H 1.4446 0.4659 0.2997
C6A C 1.5025(6) 0.2554(5) 0.2926(4)
H4A H 1.5969 0.2449 0.2317
C7A C 1.4490(5) 0.1403(4) 0.3458(3)
C8A C 1.1653(5) -0.0144(5) 0.5687(3)
H5A H 1.1987 -0.1171 0.5881
H6A H 1.1528 0.0292 0.6328
C9A C 0.9995(5) 0.0367(6) 0.5443(4)
H7A H 0.9694 0.1386 0.5213
H8A H 0.9163 0.0208 0.6130
C10A C 1.4434(5) -0.2226(5) 0.4092(4)
H9A H 1.5359 -0.2648 0.3486
H10A H 1.4635 -0.2683 0.4796
H11A H 1.3470 -0.2346 0.4054
C11A C 0.7120(4) 0.6931(4) 1.0229(4)
C12A C 0.8228(4) 0.4722(4) 1.0914(3)
C13A C 0.8903(5) 0.3244(5) 1.1151(4)
H12A H 0.8942 0.2608 1.0713
C14A C 0.9501(6) 0.2779(6) 1.2052(4)
H13A H 0.9955 0.1803 1.2235
C15A C 0.9446(7) 0.3744(7) 1.2714(4)
H14A H 0.9867 0.3391 1.3322
C16A C 0.8779(6) 0.5208(6) 1.2476(4)
H15A H 0.8743 0.5842 1.2914
C17A C 0.8167(5) 0.5693(5) 1.1560(3)
C18A C 0.7263(5) 0.4965(5) 0.9246(3)
H16A H 0.7074 0.5701 0.8631
H17A H 0.8234 0.4183 0.8943
C19A C 0.5790(4) 0.4428(4) 0.9753(3)
H18A H 0.6013 0.3651 1.0336
H19A H 0.5653 0.4051 0.9174
C20A C 0.6360(6) 0.8159(5) 0.9494(5)
H20A H 0.6769 0.7917 0.8736
H21A H 0.5190 0.8379 0.9753
H22A H 0.6630 0.8975 0.9516
C21A C 0.0556(4) -0.0416(4) 1.0398(3)
N1A N 1.5144(4) -0.0015(4) 0.3237(2)
N2A N 1.2935(4) 0.0218(4) 0.4723(2)
N3A N 0.7469(4) 0.7080(4) 1.1107(3)
N3A_2 N 1.7469(4) -0.2920(4) 0.1107(3)
N4A N 0.7550(4) 0.5544(3) 1.0076(3)
O1A O -0.0125(4) -0.0879(4) 1.1356(3)
O1A_2 O 1.9875(4) -0.0879(4) 0.1356(3)
O2A O 0.2034(3) -0.0554(3) 1.0025(3)
O2_2 O 1.7966(3) 0.0554(3) -0.0025(3)
C22 C 1.256(3) -0.258(3) 0.213(2)
C23 C 1.3088(17) -0.1435(15) 0.1997(12)
O3 O 1.1246(13) -0.2813(11) 0.2875(9)
loop_
_geom_bond_atom_site_label_1
_geom_bond_atom_site_label_2
_geom_bond_site_symmetry_1
_geom_bond_site_symmetry_2
Ag1 N1 1_555 1_555
C1 C10 1_555 1_555
C2 C3 1_555 1_555
C3 H1 1_555 1_555
C4 C3 1_555 1_555
H2 C4 1_555 1_555
C5 C4 1_555 1_555
H3 C5 1_555 1_555
C6 C5 1_555 1_555
H4 C6 1_555 1_555
C7 C2 1_555 1_555
C8 H5 1_555 1_555
H6 C8 1_555 1_555
C9 C8 1_555 1_555
H7 C9 1_555 1_555
H8 C9 1_555 1_555
C10 H9 1_555 1_555
H10 C10 1_555 1_555
H11 C10 1_555 1_555
C11 C20 1_555 1_555
C12 C13 1_555 1_555
C13 H12 1_555 1_555
C14 C13 1_555 1_555
H13 C14 1_555 1_555
C15 C14 1_555 1_555
H14 C15 1_555 1_555
C16 C15 1_555 1_555
H15 C16 1_555 1_555
C17 C12 1_555 1_555
C18 H16 1_555 1_555
H17 C18 1_555 1_555
C19 C18 1_555 1_555
H18 C19 1_555 1_555
H19 C19 1_555 1_555
C20 H20 1_555 1_555
H21 C20 1_555 1_555
H22 C20 1_555 1_555
C21 O1 1_555 1_555
C22 C23 1_555 1_555
N1 C1 1_555 1_555
N2 C1 1_555 1_555
N3 Ag1 1_555 1_555
N4 C11 1_555 1_555
O1 Ag1 1_555 1_555
O2 C21 1_555 1_555
O3 C22 1_555 1_555
Ag1A N1A 1_555 1_555
Ag1A_2 O2 1_555 1_555
Ag1A_3 N3A 1_555 1_555
C1A C10A 1_555 1_555
C2A C3A 1_555 1_555
C3A H1A 1_555 1_555
C4A C3A 1_555 1_555
H2A C4A 1_555 1_555
C5A C4A 1_555 1_555
H3A C5A 1_555 1_555
C6A C5A 1_555 1_555
H4A C6A 1_555 1_555
C7A C2A 1_555 1_555
C8A H5A 1_555 1_555
H6A C8A 1_555 1_555
C9A C9 1_555 1_555
H7A C9A 1_555 1_555
H8A C9A 1_555 1_555
C10A H9A 1_555 1_555
H10A C10A 1_555 1_555
H11A C10A 1_555 1_555
C11A C20A 1_555 1_555
C12A C13A 1_555 1_555
C13A H12A 1_555 1_555
C14A C13A 1_555 1_555
H13A C14A 1_555 1_555
C15A C14A 1_555 1_555
H14A C15A 1_555 1_555
C16A C15A 1_555 1_555
H15A C16A 1_555 1_555
C17A C12A 1_555 1_555
C18A H16A 1_555 1_555
H17A C18A 1_555 1_555
C19A C19 1_555 1_555
H18A C19A 1_555 1_555
H19A C19A 1_555 1_555
C20A H20A 1_555 1_555
H21A C20A 1_555 1_555
H22A C20A 1_555 1_555
C21A C21 1_555 1_555
N1A C1A 1_555 1_555
N2A C1A 1_555 1_555
N3A C11A 1_555 1_555
N3A_2 Ag1A 1_555 1_555
N4A C11A 1_555 1_555
O1A Ag1A_2 1_555 1_555
O1A_2 Ag1A 1_555 1_555
O2A Ag1 1_555 1_555
O2_2 Ag1A 1_555 1_555
C2 N2 1_555 1_555
C6 C7 1_555 1_555
C7 N1 1_555 1_555
C8 N2 1_555 1_555
C11 N3 1_555 1_555
C12 N4 1_555 1_555
C16 C17 1_555 1_555
C17 N3 1_555 1_555
C18 N4 1_555 1_555
C2A N2A 1_555 1_555
C6A C7A 1_555 1_555
C7A N1A 1_555 1_555
C8A C9A 1_555 1_555
C8A N2A 1_555 1_555
C12A N4A 1_555 1_555
C16A C17A 1_555 1_555
C17A N3A 1_555 1_555
C18A C19A 1_555 1_555
C18A N4A 1_555 1_555
C21A O1A 1_555 1_555
C21A O2A 1_555 1_555

#END
