
#######################################################################
#
#                 Cambridge Crystallographic Data Centre
#                                CCDC 
#
#######################################################################
#
# If this CIF has been generated from an entry in the Cambridge 
# Structural Database, then it will include bibliographic, chemical, 
# crystal, experimental, refinement or atomic coordinate data resulting 
# from the CCDC's data processing and validation procedures.
#
#######################################################################

data_ORIBOH
_symmetry_cell_setting           triclinic
_symmetry_space_group_name_H-M   'P -1'
_symmetry_Int_Tables_number      2
_space_group_name_Hall           '-P 1'
loop_
_symmetry_equiv_pos_site_id
_symmetry_equiv_pos_as_xyz
1 x,y,z
2 -x,-y,-z
_cell_length_a                   8.6602(17)
_cell_length_b                   10.551(2)
_cell_length_c                   17.926(4)
_cell_angle_alpha                84.91(3)
_cell_angle_beta                 80.37(3)
_cell_angle_gamma                83.83(3)
_cell_volume                     1601.34
loop_
_atom_site_label
_atom_site_type_symbol
_atom_site_fract_x
_atom_site_fract_y
_atom_site_fract_z
Ag1 Ag 0.76250(5) -0.01076(4) 0.26079(2)
O1 O 1.1498(8) 0.6536(6) 0.3567(5)
O2 O 0.8807(5) 0.1313(4) 0.3287(3)
O3 O 0.8077(6) 0.2314(4) 0.2273(3)
N1 N 0.5639(4) -0.0602(4) 0.3499(3)
N2 N 0.3626(4) -0.0342(4) 0.4434(2)
N3 N 0.9277(5) -0.2324(4) 0.0653(2)
N4 N 0.8830(5) -0.1112(4) 0.1628(2)
C1 C 0.5689(5) -0.1655(5) 0.4015(3)
C2 C 0.4439(5) -0.1506(5) 0.4609(3)
C3 C 0.4207(7) -0.2395(6) 0.5221(3)
H1 H 0.3363 -0.2291 0.5613
C4 C 0.6548(8) -0.3621(7) 0.4619(5)
H2 H 0.7239 -0.4358 0.4630
C5 C 0.5298(9) -0.3444(6) 0.5217(4)
H3 H 0.5203 -0.4056 0.5625
C6 C 0.6770(6) -0.2732(6) 0.4020(4)
H4 H 0.7613 -0.2840 0.3628
C7 C 0.3871(7) 0.1375(6) 0.3363(3)
H5 H 0.3147 0.1883 0.3718
H6 H 0.4775 0.1851 0.3182
C8 C 0.3095(9) 0.1184(7) 0.2718(4)
H7 H 0.3821 0.0715 0.2353
H8 H 0.2759 0.2000 0.2486
H9 H 0.2198 0.0714 0.2894
C9 C 1.0490(5) -0.1536(5) 0.0547(3)
C10 C 1.0185(5) -0.0774(5) 0.1162(3)
C11 C 1.1176(6) 0.0146(5) 0.1220(3)
H10 H 1.0981 0.0672 0.1622
C12 C 1.2477(6) 0.0252(6) 0.0654(4)
H11 H 1.3175 0.0851 0.0682
C13 C 1.2750(6) -0.0510(6) 0.0053(4)
H12 H 1.3623 -0.0404 -0.0319
C14 C 1.1781(6) -0.1419(5) -0.0017(3)
H13 H 1.1979 -0.1934 -0.0423
C15 C 0.6887(6) -0.2684(6) 0.1626(4)
H14 H 0.6730 -0.2698 0.2175
H15 H 0.7046 -0.3562 0.1488
C16 C 0.5436(7) -0.2047(7) 0.1349(5)
H16 H 0.5309 -0.1162 0.1452
H17 H 0.4536 -0.2456 0.1604
H18 H 0.5534 -0.2116 0.0812
C17 C 0.9402(6) 0.3444(5) 0.3023(3)
C18 C 0.8704(6) 0.2266(6) 0.2848(3)
C19 C 0.9949(7) 0.3472(6) 0.3695(4)
H19 H 0.9844 0.2775 0.4049
C20 C 1.0648(9) 0.4500(8) 0.3860(5)
H20 H 1.1016 0.4493 0.4319
C21 C 1.0800(8) 0.5521(8) 0.3352(5)
C22 C 1.0223(9) 0.5556(7) 0.2675(4)
H21 H 1.0299 0.6266 0.2328
C23 C 0.8331(6) -0.2034(5) 0.1310(3)
C24 C 0.4397(5) 0.0157(5) 0.3766(3)
C25 C 0.9521(8) 0.4490(6) 0.2527(4)
H22 H 0.9125 0.4498 0.2075
C26 C 1.1847(15) 0.7505(12) 0.3099(7)
H23 H 1.2313 0.7212 0.2613
H24 H 1.2579 0.7967 0.3289
H25 H 1.0909 0.8057 0.3049
C27 C 0.2205(5) 0.0212(5) 0.4906(3)
H26 H 0.2140 0.1135 0.4822
H27 H 0.2283 -0.0006 0.5436
C28 C 0.0718(5) -0.0257(5) 0.4736(3)
H28 H 0.0806 -0.1184 0.4788
H29 H 0.0596 0.0013 0.4215
C29 C 0.9102(6) -0.3287(5) 0.0148(3)
H30 H 0.9364 -0.2944 -0.0373
H31 H 0.8011 -0.3470 0.0229
C30 C 1.0120(6) -0.4510(5) 0.0263(3)
H32 H 0.9872 -0.4852 0.0785
H33 H 1.1216 -0.4336 0.0171
Ag1A Ag -0.76250(5) 0.01076(4) 0.73921(2)
Ag1A_2 Ag 1.23750(5) -0.98924(4) -0.26079(2)
O1A O -1.1498(8) -0.6536(6) 0.6433(5)
O2A O -0.8807(5) -0.1313(4) 0.6713(3)
O3A O -0.8077(6) -0.2314(4) 0.7727(3)
N1A N -0.5639(4) 0.0602(4) 0.6501(3)
N2A N -0.3626(4) 0.0342(4) 0.5566(2)
N3A N 1.0723(5) -0.7676(4) -0.0653(2)
N4A N 1.1170(5) -0.8888(4) -0.1628(2)
N4A_2 N -0.8830(5) 0.1112(4) 0.8372(2)
C1A C -0.5689(5) 0.1655(5) 0.5985(3)
C2A C -0.4439(5) 0.1506(5) 0.5391(3)
C3A C -0.4207(7) 0.2395(6) 0.4779(3)
H1A H -0.3363 0.2291 0.4387
C4A C -0.6548(8) 0.3621(7) 0.5381(5)
H2A H -0.7239 0.4358 0.5370
C5A C -0.5298(9) 0.3444(6) 0.4783(4)
H3A H -0.5203 0.4056 0.4375
C6A C -0.6770(6) 0.2732(6) 0.5980(4)
H4A H -0.7613 0.2840 0.6372
C7A C -0.3871(7) -0.1375(6) 0.6637(3)
H5A H -0.3147 -0.1883 0.6282
H6A H -0.4775 -0.1851 0.6818
C8A C -0.3095(9) -0.1184(7) 0.7282(4)
H7A H -0.3821 -0.0715 0.7647
H8A H -0.2759 -0.2000 0.7514
H9A H -0.2198 -0.0714 0.7106
C9A C 0.9510(5) -0.8464(5) -0.0547(3)
C10A C 0.9815(5) -0.9226(5) -0.1162(3)
C11A C 0.8824(6) -1.0146(5) -0.1220(3)
H10A H 0.9019 -1.0672 -0.1622
C12A C 0.7523(6) -1.0252(6) -0.0654(4)
H11A H 0.6825 -1.0851 -0.0682
C13A C 0.7250(6) -0.9490(6) -0.0053(4)
H12A H 0.6377 -0.9596 0.0319
C14A C 0.8219(6) -0.8581(5) 0.0017(3)
H13A H 0.8021 -0.8066 0.0423
C15A C 1.3113(6) -0.7316(6) -0.1626(4)
H14A H 1.3270 -0.7302 -0.2175
H15A H 1.2954 -0.6438 -0.1488
C16A C 1.4564(7) -0.7953(7) -0.1349(5)
H16A H 1.4691 -0.8838 -0.1452
H17A H 1.5464 -0.7544 -0.1604
H18A H 1.4466 -0.7884 -0.0812
C17A C -0.9402(6) -0.3444(5) 0.6977(3)
C18A C -0.8704(6) -0.2266(6) 0.7152(3)
C19A C -0.9949(7) -0.3472(6) 0.6305(4)
H19A H -0.9844 -0.2775 0.5951
C20A C -1.0648(9) -0.4500(8) 0.6140(5)
H20A H -1.1016 -0.4493 0.5681
C21A C -1.0800(8) -0.5521(8) 0.6648(5)
C22A C -1.0223(9) -0.5556(7) 0.7325(4)
H21A H -1.0299 -0.6266 0.7672
C23A C 1.1669(6) -0.7966(5) -0.1310(3)
C24A C -0.4397(5) -0.0157(5) 0.6234(3)
C25A C -0.9521(8) -0.4490(6) 0.7473(4)
H22A H -0.9125 -0.4498 0.7925
C26A C -1.1847(15) -0.7505(12) 0.6901(7)
H23A H -1.2313 -0.7212 0.7387
H24A H -1.2579 -0.7967 0.6711
H25A H -1.0909 -0.8057 0.6951
C27A C -0.2205(5) -0.0212(5) 0.5094(3)
H26A H -0.2140 -0.1135 0.5178
H27A H -0.2283 0.0006 0.4564
C28A C -0.0718(5) 0.0257(5) 0.5264(3)
H28A H -0.0806 0.1184 0.5212
H29A H -0.0596 -0.0013 0.5785
C29A C 1.0898(6) -0.6713(5) -0.0148(3)
H30A H 1.0636 -0.7056 0.0373
H31A H 1.1989 -0.6530 -0.0229
C30A C 0.9880(6) -0.5490(5) -0.0263(3)
H32A H 1.0128 -0.5148 -0.0785
H33A H 0.8784 -0.5664 -0.0171
O4 O 0.6841(6) 0.4012(5) 0.1259(3)
H34 H 0.7293 0.3594 0.1580
C31 C 0.5267(12) 0.3836(15) 0.1455(9)
H35 H 0.5194 0.2924 0.1552
H36 H 0.4901 0.4215 0.1935
C32 C 0.426(2) 0.426(2) 0.1003(13)
H37 H 0.3323 0.4650 0.1292
H38 H 0.4001 0.3564 0.0752
H39 H 0.4717 0.4884 0.0631
loop_
_geom_bond_atom_site_label_1
_geom_bond_atom_site_label_2
_geom_bond_site_symmetry_1
_geom_bond_site_symmetry_2
Ag1 O2 1_555 1_555
O1 C21 1_555 1_555
O2 C18 1_555 1_555
O3 Ag1 1_555 1_555
N1 Ag1 1_555 1_555
N2 C2 1_555 1_555
N3 C9 1_555 1_555
N4 Ag1 1_555 1_555
C1 N1 1_555 1_555
C2 C1 1_555 1_555
C3 C2 1_555 1_555
H1 C3 1_555 1_555
C4 H2 1_555 1_555
C5 C3 1_555 1_555
H3 C5 1_555 1_555
C6 C1 1_555 1_555
H4 C6 1_555 1_555
C7 H5 1_555 1_555
H6 C7 1_555 1_555
C8 C7 1_555 1_555
H7 C8 1_555 1_555
H8 C8 1_555 1_555
H9 C8 1_555 1_555
C9 C10 1_555 1_555
C10 N4 1_555 1_555
C11 C10 1_555 1_555
H10 C11 1_555 1_555
C12 C11 1_555 1_555
H11 C12 1_555 1_555
C13 C12 1_555 1_555
H12 C13 1_555 1_555
C14 C9 1_555 1_555
H13 C14 1_555 1_555
C15 H14 1_555 1_555
H15 C15 1_555 1_555
C16 C15 1_555 1_555
H16 C16 1_555 1_555
H17 C16 1_555 1_555
H18 C16 1_555 1_555
C17 C18 1_555 1_555
C18 O3 1_555 1_555
C19 C17 1_555 1_555
H19 C19 1_555 1_555
C20 C19 1_555 1_555
H20 C20 1_555 1_555
C21 C20 1_555 1_555
C22 C21 1_555 1_555
H21 C22 1_555 1_555
C23 N3 1_555 1_555
C24 N1 1_555 1_555
C25 C17 1_555 1_555
H22 C25 1_555 1_555
C26 O1 1_555 1_555
H23 C26 1_555 1_555
H24 C26 1_555 1_555
H25 C26 1_555 1_555
C27 N2 1_555 1_555
H26 C27 1_555 1_555
H27 C27 1_555 1_555
C28 C27 1_555 1_555
H28 C28 1_555 1_555
H29 C28 1_555 1_555
C29 N3 1_555 1_555
H30 C29 1_555 1_555
H31 C29 1_555 1_555
C30 C29 1_555 1_555
H32 C30 1_555 1_555
H33 C30 1_555 1_555
O4 H34 1_555 1_555
C31 O4 1_555 1_555
H35 C31 1_555 1_555
H36 C31 1_555 1_555
C32 C31 1_555 1_555
H37 C32 1_555 1_555
H38 C32 1_555 1_555
H39 C32 1_555 1_555
Ag1A O2A 1_555 1_555
Ag1A_2 N4A 1_555 1_555
O1A C21A 1_555 1_555
O2A C18A 1_555 1_555
O3A Ag1A 1_555 1_555
N1A Ag1A 1_555 1_555
N2A C2A 1_555 1_555
N3A C9A 1_555 1_555
N4A C10A 1_555 1_555
N4A_2 Ag1A 1_555 1_555
C1A N1A 1_555 1_555
C2A C1A 1_555 1_555
C3A C2A 1_555 1_555
H1A C3A 1_555 1_555
C4A H2A 1_555 1_555
C5A C3A 1_555 1_555
H3A C5A 1_555 1_555
C6A C1A 1_555 1_555
H4A C6A 1_555 1_555
C7A H5A 1_555 1_555
H6A C7A 1_555 1_555
C8A C7A 1_555 1_555
H7A C8A 1_555 1_555
H8A C8A 1_555 1_555
H9A C8A 1_555 1_555
C9A C10A 1_555 1_555
C10A C11A 1_555 1_555
C11A H10A 1_555 1_555
C12A C11A 1_555 1_555
H11A C12A 1_555 1_555
C13A C12A 1_555 1_555
H12A C13A 1_555 1_555
C14A C9A 1_555 1_555
H13A C14A 1_555 1_555
C15A H14A 1_555 1_555
H15A C15A 1_555 1_555
C16A C15A 1_555 1_555
H16A C16A 1_555 1_555
H17A C16A 1_555 1_555
H18A C16A 1_555 1_555
C17A C18A 1_555 1_555
C18A O3A 1_555 1_555
C19A C17A 1_555 1_555
H19A C19A 1_555 1_555
C20A C19A 1_555 1_555
H20A C20A 1_555 1_555
C21A C20A 1_555 1_555
C22A C21A 1_555 1_555
H21A C22A 1_555 1_555
C23A N3A 1_555 1_555
C24A N1A 1_555 1_555
C25A C17A 1_555 1_555
H22A C25A 1_555 1_555
C26A O1A 1_555 1_555
H23A C26A 1_555 1_555
H24A C26A 1_555 1_555
H25A C26A 1_555 1_555
C27A N2A 1_555 1_555
H26A C27A 1_555 1_555
H27A C27A 1_555 1_555
C28A C28 1_555 1_555
H28A C28A 1_555 1_555
H29A C28A 1_555 1_555
C29A N3A 1_555 1_555
H30A C29A 1_555 1_555
H31A C29A 1_555 1_555
C30A C30 1_555 1_555
H32A C30A 1_555 1_555
H33A C30A 1_555 1_555
N2 C24 1_555 1_555
N4 C23 1_555 1_555
C4 C5 1_555 1_555
C4 C6 1_555 1_555
C7 C24 1_555 1_555
C13 C14 1_555 1_555
C15 C23 1_555 1_555
C22 C25 1_555 1_555
N2A C24A 1_555 1_555
N4A C23A 1_555 1_555
C4A C5A 1_555 1_555
C4A C6A 1_555 1_555
C7A C24A 1_555 1_555
C13A C14A 1_555 1_555
C15A C23A 1_555 1_555
C22A C25A 1_555 1_555
C27A C28A 1_555 1_555
C29A C30A 1_555 1_555

#END
