
#######################################################################
#
#                 Cambridge Crystallographic Data Centre
#                                CCDC 
#
#######################################################################
#
# If this CIF has been generated from an entry in the Cambridge 
# Structural Database, then it will include bibliographic, chemical, 
# crystal, experimental, refinement or atomic coordinate data resulting 
# from the CCDC's data processing and validation procedures.
#
#######################################################################

data_ORILIL
_symmetry_cell_setting           triclinic
_symmetry_space_group_name_H-M   'P -1'
_symmetry_Int_Tables_number      2
_space_group_name_Hall           '-P 1'
loop_
_symmetry_equiv_pos_site_id
_symmetry_equiv_pos_as_xyz
1 x,y,z
2 -x,-y,-z
_cell_length_a                   12.5326(11)
_cell_length_b                   13.1476(12)
_cell_length_c                   14.7948(13)
_cell_angle_alpha                75.6240(10)
_cell_angle_beta                 70.8980(10)
_cell_angle_gamma                87.1140(10)
_cell_volume                     2230.16
loop_
_atom_site_label
_atom_site_type_symbol
_atom_site_fract_x
_atom_site_fract_y
_atom_site_fract_z
Cd1 Cd 0.65669(2) 0.85893(2) 0.01737(2)
O1 O 0.5524(2) 0.7898(3) 0.1819(2)
O2 O 0.4401(3) 0.8221(2) 0.0931(2)
O3 O 0.3726(2) 1.0468(2) 0.14896(19)
O4 O 0.2096(3) 1.0461(3) 0.1257(2)
O5 O 0.6056(2) 1.0227(2) 0.0529(2)
H1 H 0.5395 1.0158 0.0949
H2 H 0.5993 1.0690 0.0035
N1 N 0.8169(2) 0.8228(2) 0.0701(2)
N2 N 1.3310(2) 0.3011(2) 0.0280(2)
C1 C 0.3513(3) 0.8287(3) 0.3409(3)
C2 C 0.2860(3) 0.9174(3) 0.3467(3)
C3 C 0.2871(4) 0.9727(4) 0.4144(3)
H5 H 0.2425 1.0311 0.4188
C4 C 0.3508(5) 0.9453(5) 0.4749(3)
H6 H 0.3506 0.9854 0.5185
C5 C 0.4149(4) 0.8587(5) 0.4713(3)
H7 H 0.4585 0.8392 0.5126
C6 C 0.4146(3) 0.7997(4) 0.4051(3)
H8 H 0.4573 0.7398 0.4035
C7 C 0.2130(4) 0.9537(4) 0.2823(3)
H9 H 0.1530 0.9944 0.3154
H10 H 0.1779 0.8921 0.2775
C8 C 0.2711(4) 1.0194(3) 0.1779(3)
C9 C 0.3557(3) 0.7627(4) 0.2701(3)
H11 H 0.2858 0.7693 0.2547
H12 H 0.3617 0.6896 0.3016
C10 C 0.4547(4) 0.7942(3) 0.1744(3)
C11 C 0.8156(3) 0.7437(3) 0.1465(3)
H13 H 0.7475 0.7068 0.1829
C12 C 0.9086(3) 0.7128(3) 0.1753(3)
H14 H 0.9023 0.6567 0.2296
C13 C 1.0112(3) 0.7655(3) 0.1231(3)
C14 C 1.0120(3) 0.8492(3) 0.0464(3)
H15 H 1.0784 0.8891 0.0107
C15 C 0.9161(3) 0.8750(3) 0.0218(3)
H16 H 0.9203 0.9319 -0.0314
C16 C 1.1159(3) 0.7282(3) 0.1467(3)
H17 H 1.0999 0.7108 0.2176
H18 H 1.1740 0.7838 0.1172
C17 C 1.1578(3) 0.6322(3) 0.1075(3)
H19 H 1.1661 0.6491 0.0378
H20 H 1.1005 0.5762 0.1407
C18 C 1.2693(3) 0.5911(3) 0.1199(3)
H21 H 1.3297 0.6429 0.0805
H22 H 1.2647 0.5791 0.1885
C19 C 1.2647(4) 0.3059(3) 0.1176(3)
H23 H 1.2297 0.2439 0.1614
C20 C 1.2449(4) 0.3959(3) 0.1494(3)
H24 H 1.1975 0.3939 0.2131
C21 C 1.2946(3) 0.4900(3) 0.0876(3)
C22 C 1.3649(3) 0.4855(3) -0.0050(3)
H25 H 1.4015 0.5464 -0.0497
C23 C 1.3812(3) 0.3914(3) -0.0318(3)
H26 H 1.4294 0.3908 -0.0946
Cd1A Cd 0.34331(2) 1.14107(2) -0.01737(2)
Cd1_2 Cd -0.34331(2) 1.85893(2) 0.01737(2)
Cd1A_2 Cd 1.34331(2) 0.14107(2) -0.01737(2)
O1A O 0.4476(2) 1.2102(3) -0.1819(2)
O2A O 0.5599(3) 1.1779(2) -0.0931(2)
O3A O 0.6274(2) 0.9532(2) -0.14896(19)
O4A O 0.7904(3) 0.9539(3) -0.1257(2)
O5A O 0.3944(2) 0.9773(2) -0.0529(2)
H1A H 0.4605 0.9842 -0.0949
H2A H 0.4007 0.9310 -0.0035
N1A N 0.1831(2) 1.1772(2) -0.0701(2)
N2A N -0.3310(2) 1.6989(2) -0.0280(2)
N2_2 N 0.3310(2) 1.3011(2) 0.0280(2)
N2A_2 N 0.6690(2) 0.6989(2) -0.0280(2)
C1A C 0.6487(3) 1.1713(3) -0.3409(3)
C2A C 0.7140(3) 1.0826(3) -0.3467(3)
C3A C 0.7129(4) 1.0273(4) -0.4144(3)
H5A H 0.7575 0.9689 -0.4188
C4A C 0.6492(5) 1.0547(5) -0.4749(3)
H6A H 0.6494 1.0146 -0.5185
C5A C 0.5851(4) 1.1413(5) -0.4713(3)
H7A H 0.5415 1.1608 -0.5126
C6A C 0.5854(3) 1.2003(4) -0.4051(3)
H8A H 0.5427 1.2602 -0.4035
C7A C 0.7870(4) 1.0463(4) -0.2823(3)
H9A H 0.8470 1.0056 -0.3154
H10A H 0.8221 1.1079 -0.2775
C8A C 0.7289(4) 0.9806(3) -0.1779(3)
C9A C 0.6443(3) 1.2373(4) -0.2701(3)
H11A H 0.7142 1.2307 -0.2547
H12A H 0.6383 1.3104 -0.3016
C10A C 0.5453(4) 1.2058(3) -0.1744(3)
C11A C 0.1844(3) 1.2563(3) -0.1465(3)
H13A H 0.2525 1.2932 -0.1829
C12A C 0.0914(3) 1.2872(3) -0.1753(3)
H14A H 0.0977 1.3433 -0.2296
C13A C -0.0112(3) 1.2345(3) -0.1231(3)
C14A C -0.0120(3) 1.1508(3) -0.0464(3)
H15A H -0.0784 1.1109 -0.0107
C15A C 0.0839(3) 1.1250(3) -0.0218(3)
H16A H 0.0797 1.0681 0.0314
C16A C -0.1159(3) 1.2718(3) -0.1467(3)
H17A H -0.0999 1.2892 -0.2176
H18A H -0.1740 1.2162 -0.1172
C17A C -0.1578(3) 1.3678(3) -0.1075(3)
H19A H -0.1661 1.3509 -0.0378
H20A H -0.1005 1.4238 -0.1407
C18A C -0.2693(3) 1.4089(3) -0.1199(3)
H21A H -0.3297 1.3571 -0.0805
H22A H -0.2647 1.4209 -0.1885
C19A C -0.2647(4) 1.6941(3) -0.1176(3)
H23A H -0.2297 1.7561 -0.1614
C20A C -0.2449(4) 1.6041(3) -0.1494(3)
H24A H -0.1975 1.6061 -0.2131
C21A C -0.2946(3) 1.5100(3) -0.0876(3)
C22A C -0.3649(3) 1.5145(3) 0.0050(3)
H25A H -0.4015 1.4536 0.0497
C23A C -0.3812(3) 1.6086(3) 0.0318(3)
H26A H -0.4294 1.6092 0.0946
Cd2 Cd 0.16759(2) 0.37184(2) 0.47319(2)
O6 O 0.2866(3) 0.4764(3) 0.5095(3)
O7 O 0.1119(2) 0.4698(2) 0.60743(19)
O8 O 0.0426(3) 0.6847(2) 0.4739(3)
O9 O -0.0814(2) 0.7103(3) 0.6074(2)
O10 O 0.1174(2) 0.5255(2) 0.38021(19)
H3 H 0.1008 0.5756 0.4088
H4 H 0.0529 0.5284 0.3725
N3 N 0.3365(2) 0.3357(2) 0.3579(2)
N4 N 0.8160(2) -0.2204(2) 0.4105(2)
C24 C 0.1654(3) 0.6111(3) 0.7104(3)
C25 C 0.1023(3) 0.6989(3) 0.6881(3)
C26 C 0.0302(4) 0.7331(5) 0.7685(5)
H27 H -0.0129 0.7915 0.7569
C27 C 0.0211(6) 0.6830(8) 0.8639(6)
H28 H -0.0267 0.7083 0.9158
C28 C 0.0819(7) 0.5966(8) 0.8827(5)
H29 H 0.0738 0.5616 0.9475
C29 C 0.1536(5) 0.5614(4) 0.8079(4)
H30 H 0.1960 0.5029 0.8216
C30 C 0.2510(4) 0.5702(5) 0.6322(4)
H31 H 0.3038 0.5306 0.6616
H32 H 0.2930 0.6302 0.5824
C31 C 0.2119(4) 0.5016(3) 0.5797(3)
C32 C 0.1101(4) 0.7502(4) 0.5841(4)
H33 H 0.1830 0.7363 0.5405
H34 H 0.1057 0.8256 0.5763
C33 C 0.0177(4) 0.7125(3) 0.5533(4)
C34 C 0.3372(3) 0.2485(3) 0.3277(4)
H35 H 0.2691 0.2115 0.3459
C35 C 0.4330(3) 0.2096(3) 0.2710(4)
H36 H 0.4284 0.1478 0.2524
C36 C 0.5355(3) 0.2626(3) 0.2418(3)
C37 C 0.5332(3) 0.3550(3) 0.2700(3)
H37 H 0.5995 0.3954 0.2502
C38 C 0.4336(3) 0.3888(3) 0.3273(3)
H38 H 0.4352 0.4517 0.3451
C39 C 0.6429(3) 0.2170(3) 0.1857(3)
H39 H 0.7043 0.2692 0.1604
H40 H 0.6324 0.1972 0.1301
C40 C 0.6724(3) 0.1205(3) 0.2543(3)
H41 H 0.6918 0.1430 0.3049
H42 H 0.6060 0.0740 0.2869
C41 C 0.7697(3) 0.0590(3) 0.2028(3)
H43 H 0.7534 0.0404 0.1491
H44 H 0.8382 0.1031 0.1749
C42 C 0.7235(3) -0.2068(3) 0.3821(3)
H45 H 0.6673 -0.2596 0.4095
C43 C 0.7075(3) -0.1200(3) 0.3155(3)
H46 H 0.6417 -0.1151 0.2990
C44 C 0.7886(3) -0.0389(3) 0.2724(3)
C45 C 0.8838(3) -0.0525(3) 0.3004(3)
H47 H 0.9410 -0.0006 0.2740
C46 C 0.8947(3) -0.1432(3) 0.3678(3)
H48 H 0.9607 -0.1508 0.3842
Cd2A Cd -0.16759(2) 0.62816(2) 0.52681(2)
Cd2_2 Cd -0.83241(2) 1.37184(2) 0.47319(2)
Cd2A_2 Cd 0.83241(2) -0.37184(2) 0.52681(2)
O6A O -0.2866(3) 0.5236(3) 0.4905(3)
O7A O -0.1119(2) 0.5302(2) 0.39257(19)
O8A O -0.0426(3) 0.3153(2) 0.5261(3)
O9A O 0.0814(2) 0.2897(3) 0.3926(2)
O10A O -0.1174(2) 0.4745(2) 0.61979(19)
H3A H -0.1008 0.4244 0.5912
H4A H -0.0529 0.4716 0.6275
N3A N -0.3365(2) 0.6643(2) 0.6421(2)
N4A N -0.8160(2) 1.2204(2) 0.5895(2)
N4_2 N -0.1840(2) 0.7796(2) 0.4105(2)
N4A_2 N 0.1840(2) 0.2204(2) 0.5895(2)
C24A C -0.1654(3) 0.3889(3) 0.2896(3)
C25A C -0.1023(3) 0.3011(3) 0.3119(3)
C26A C -0.0302(4) 0.2669(5) 0.2315(5)
H27A H 0.0129 0.2085 0.2431
C27A C -0.0211(6) 0.3170(8) 0.1361(6)
H28A H 0.0267 0.2917 0.0842
C28A C -0.0819(7) 0.4034(8) 0.1173(5)
H29A H -0.0738 0.4384 0.0525
C29A C -0.1536(5) 0.4386(4) 0.1921(4)
H30A H -0.1960 0.4971 0.1784
C30A C -0.2510(4) 0.4298(5) 0.3678(4)
H31A H -0.3038 0.4694 0.3384
H32A H -0.2930 0.3698 0.4176
C31A C -0.2119(4) 0.4984(3) 0.4203(3)
C32A C -0.1101(4) 0.2498(4) 0.4159(4)
H33A H -0.1830 0.2637 0.4595
H34A H -0.1057 0.1744 0.4237
C33A C -0.0177(4) 0.2875(3) 0.4467(4)
C34A C -0.3372(3) 0.7515(3) 0.6723(4)
H35A H -0.2691 0.7885 0.6541
C35A C -0.4330(3) 0.7904(3) 0.7290(4)
H36A H -0.4284 0.8522 0.7476
C36A C -0.5355(3) 0.7374(3) 0.7582(3)
C37A C -0.5332(3) 0.6450(3) 0.7300(3)
H37A H -0.5995 0.6046 0.7498
C38A C -0.4336(3) 0.6112(3) 0.6727(3)
H38A H -0.4352 0.5483 0.6549
C39A C -0.6429(3) 0.7830(3) 0.8143(3)
H39A H -0.7043 0.7308 0.8396
H40A H -0.6324 0.8028 0.8699
C40A C -0.6724(3) 0.8795(3) 0.7457(3)
H41A H -0.6918 0.8570 0.6951
H42A H -0.6060 0.9260 0.7131
C41A C -0.7697(3) 0.9410(3) 0.7972(3)
H43A H -0.7534 0.9596 0.8509
H44A H -0.8382 0.8969 0.8251
C42A C -0.7235(3) 1.2068(3) 0.6179(3)
H45A H -0.6673 1.2596 0.5905
C43A C -0.7075(3) 1.1200(3) 0.6845(3)
H46A H -0.6417 1.1151 0.7010
C44A C -0.7886(3) 1.0389(3) 0.7276(3)
C45A C -0.8838(3) 1.0525(3) 0.6996(3)
H47A H -0.9410 1.0006 0.7260
C46A C -0.8947(3) 1.1432(3) 0.6322(3)
H48A H -0.9607 1.1508 0.6158
loop_
_geom_bond_atom_site_label_1
_geom_bond_atom_site_label_2
_geom_bond_site_symmetry_1
_geom_bond_site_symmetry_2
Cd1 O1 1_555 1_555
Cd2 O6 1_555 1_555
O1 C10 1_555 1_555
O2 Cd1 1_555 1_555
O3 C8 1_555 1_555
O4 C8 1_555 1_555
O5 Cd1 1_555 1_555
H1 O5 1_555 1_555
H2 O5 1_555 1_555
O6 C31 1_555 1_555
O7 Cd2 1_555 1_555
O8 C33 1_555 1_555
O9 C33 1_555 1_555
O10 Cd2 1_555 1_555
H3 O10 1_555 1_555
H4 O10 1_555 1_555
N1 Cd1 1_555 1_555
N2 C19 1_555 1_555
N3 Cd2 1_555 1_555
N4 C42 1_555 1_555
C1 C2 1_555 1_555
C2 C3 1_555 1_555
C3 H5 1_555 1_555
C4 C3 1_555 1_555
H6 C4 1_555 1_555
C5 C4 1_555 1_555
H7 C5 1_555 1_555
C6 C1 1_555 1_555
H8 C6 1_555 1_555
C7 C2 1_555 1_555
H9 C7 1_555 1_555
H10 C7 1_555 1_555
C8 C7 1_555 1_555
C9 C1 1_555 1_555
H11 C9 1_555 1_555
H12 C9 1_555 1_555
C10 O2 1_555 1_555
C11 N1 1_555 1_555
H13 C11 1_555 1_555
C12 C11 1_555 1_555
H14 C12 1_555 1_555
C13 C12 1_555 1_555
C14 C13 1_555 1_555
H15 C14 1_555 1_555
C15 N1 1_555 1_555
H16 C15 1_555 1_555
C16 C13 1_555 1_555
H17 C16 1_555 1_555
H18 C16 1_555 1_555
C17 C16 1_555 1_555
H19 C17 1_555 1_555
H20 C17 1_555 1_555
C18 C17 1_555 1_555
H21 C18 1_555 1_555
H22 C18 1_555 1_555
C19 H23 1_555 1_555
C20 C19 1_555 1_555
H24 C20 1_555 1_555
C21 C18 1_555 1_555
C22 C21 1_555 1_555
H25 C22 1_555 1_555
C23 N2 1_555 1_555
H26 C23 1_555 1_555
C24 C25 1_555 1_555
C25 C26 1_555 1_555
C26 H27 1_555 1_555
C27 C26 1_555 1_555
H28 C27 1_555 1_555
C28 C27 1_555 1_555
H29 C28 1_555 1_555
C29 C24 1_555 1_555
H30 C29 1_555 1_555
C30 C24 1_555 1_555
H31 C30 1_555 1_555
H32 C30 1_555 1_555
C31 O7 1_555 1_555
C32 C25 1_555 1_555
H33 C32 1_555 1_555
H34 C32 1_555 1_555
C33 C32 1_555 1_555
C34 N3 1_555 1_555
H35 C34 1_555 1_555
C35 C34 1_555 1_555
H36 C35 1_555 1_555
C36 C35 1_555 1_555
C37 C36 1_555 1_555
H37 C37 1_555 1_555
C38 N3 1_555 1_555
H38 C38 1_555 1_555
C39 C36 1_555 1_555
H39 C39 1_555 1_555
H40 C39 1_555 1_555
C40 C39 1_555 1_555
H41 C40 1_555 1_555
H42 C40 1_555 1_555
C41 C40 1_555 1_555
H43 C41 1_555 1_555
H44 C41 1_555 1_555
C42 H45 1_555 1_555
C43 C42 1_555 1_555
H46 C43 1_555 1_555
C44 C41 1_555 1_555
C45 C44 1_555 1_555
H47 C45 1_555 1_555
C46 N4 1_555 1_555
H48 C46 1_555 1_555
Cd1A O3 1_555 1_555
Cd1_2 N2A 1_555 1_555
Cd1A_2 N2 1_555 1_555
Cd2A O8 1_555 1_555
Cd2_2 N4A 1_555 1_555
Cd2A_2 N4 1_555 1_555
O1A Cd1A 1_555 1_555
O2A Cd1A 1_555 1_555
O3A Cd1 1_555 1_555
O4A Cd1 1_555 1_555
O5A Cd1A 1_555 1_555
H1A O5A 1_555 1_555
H2A O5A 1_555 1_555
O6A Cd2A 1_555 1_555
O7A Cd2A 1_555 1_555
O8A Cd2 1_555 1_555
O9A Cd2 1_555 1_555
O10A Cd2A 1_555 1_555
H3A O10A 1_555 1_555
H4A O10A 1_555 1_555
N1A Cd1A 1_555 1_555
N2A C19A 1_555 1_555
N2_2 Cd1A 1_555 1_555
N2A_2 Cd1 1_555 1_555
N3A Cd2A 1_555 1_555
N4A C42A 1_555 1_555
N4_2 Cd2A 1_555 1_555
N4A_2 Cd2 1_555 1_555
C1A C2A 1_555 1_555
C2A C3A 1_555 1_555
C3A H5A 1_555 1_555
C4A C3A 1_555 1_555
H6A C4A 1_555 1_555
C5A C4A 1_555 1_555
H7A C5A 1_555 1_555
C6A C1A 1_555 1_555
H8A C6A 1_555 1_555
C7A C2A 1_555 1_555
H9A C7A 1_555 1_555
H10A C7A 1_555 1_555
C8A O3A 1_555 1_555
C9A C1A 1_555 1_555
H11A C9A 1_555 1_555
H12A C9A 1_555 1_555
C10A O1A 1_555 1_555
C11A N1A 1_555 1_555
H13A C11A 1_555 1_555
C12A C11A 1_555 1_555
H14A C12A 1_555 1_555
C13A C12A 1_555 1_555
C14A C13A 1_555 1_555
H15A C14A 1_555 1_555
C15A N1A 1_555 1_555
H16A C15A 1_555 1_555
C16A C13A 1_555 1_555
H17A C16A 1_555 1_555
H18A C16A 1_555 1_555
C17A C16A 1_555 1_555
H19A C17A 1_555 1_555
H20A C17A 1_555 1_555
C18A C17A 1_555 1_555
H21A C18A 1_555 1_555
H22A C18A 1_555 1_555
C19A H23A 1_555 1_555
C20A C19A 1_555 1_555
H24A C20A 1_555 1_555
C21A C18A 1_555 1_555
C22A C21A 1_555 1_555
H25A C22A 1_555 1_555
C23A N2A 1_555 1_555
H26A C23A 1_555 1_555
C24A C25A 1_555 1_555
C25A C26A 1_555 1_555
C26A H27A 1_555 1_555
C27A C26A 1_555 1_555
H28A C27A 1_555 1_555
C28A C27A 1_555 1_555
H29A C28A 1_555 1_555
C29A C24A 1_555 1_555
H30A C29A 1_555 1_555
C30A C24A 1_555 1_555
H31A C30A 1_555 1_555
H32A C30A 1_555 1_555
C31A O6A 1_555 1_555
C32A C25A 1_555 1_555
H33A C32A 1_555 1_555
H34A C32A 1_555 1_555
C33A O8A 1_555 1_555
C34A N3A 1_555 1_555
H35A C34A 1_555 1_555
C35A C34A 1_555 1_555
H36A C35A 1_555 1_555
C36A C35A 1_555 1_555
C37A C36A 1_555 1_555
H37A C37A 1_555 1_555
C38A N3A 1_555 1_555
H38A C38A 1_555 1_555
C39A C36A 1_555 1_555
H39A C39A 1_555 1_555
H40A C39A 1_555 1_555
C40A C39A 1_555 1_555
H41A C40A 1_555 1_555
H42A C40A 1_555 1_555
C41A C40A 1_555 1_555
H43A C41A 1_555 1_555
H44A C41A 1_555 1_555
C42A H45A 1_555 1_555
C43A C42A 1_555 1_555
H46A C43A 1_555 1_555
C44A C41A 1_555 1_555
C45A C44A 1_555 1_555
H47A C45A 1_555 1_555
C46A N4A 1_555 1_555
H48A C46A 1_555 1_555
O4 Cd1A 1_555 1_555
O9 Cd2A 1_555 1_555
C5 C6 1_555 1_555
C9 C10 1_555 1_555
C14 C15 1_555 1_555
C20 C21 1_555 1_555
C22 C23 1_555 1_555
C28 C29 1_555 1_555
C30 C31 1_555 1_555
C37 C38 1_555 1_555
C43 C44 1_555 1_555
C45 C46 1_555 1_555
O2A C10A 1_555 1_555
O4A C8A 1_555 1_555
O7A C31A 1_555 1_555
O9A C33A 1_555 1_555
C5A C6A 1_555 1_555
C7A C8A 1_555 1_555
C9A C10A 1_555 1_555
C14A C15A 1_555 1_555
C20A C21A 1_555 1_555
C22A C23A 1_555 1_555
C28A C29A 1_555 1_555
C30A C31A 1_555 1_555
C32A C33A 1_555 1_555
C37A C38A 1_555 1_555
C43A C44A 1_555 1_555
C45A C46A 1_555 1_555

#END
