
#######################################################################
#
#                 Cambridge Crystallographic Data Centre
#                                CCDC 
#
#######################################################################
#
# If this CIF has been generated from an entry in the Cambridge 
# Structural Database, then it will include bibliographic, chemical, 
# crystal, experimental, refinement or atomic coordinate data resulting 
# from the CCDC's data processing and validation procedures.
#
#######################################################################

data_ORISAK
_symmetry_cell_setting           monoclinic
_symmetry_space_group_name_H-M   'P 21/n'
_symmetry_Int_Tables_number      14
_space_group_name_Hall           '-P 2yn'
loop_
_symmetry_equiv_pos_site_id
_symmetry_equiv_pos_as_xyz
1 x,y,z
2 1/2-x,1/2+y,1/2-z
3 -x,-y,-z
4 1/2+x,1/2-y,1/2+z
_cell_length_a                   13.701(5)
_cell_length_b                   13.799(5)
_cell_length_c                   16.071(5)
_cell_angle_alpha                90
_cell_angle_beta                 98.169(2)
_cell_angle_gamma                90
_cell_volume                     3007.56
loop_
_atom_site_label
_atom_site_type_symbol
_atom_site_fract_x
_atom_site_fract_y
_atom_site_fract_z
Cu1 Cu 0.80059(3) 0.17047(3) 0.52008(3)
N1 N 0.9068(2) 0.0940(3) 0.6588(2)
C1 C 0.8564(3) 0.0400(3) 0.7127(2)
C2 C 0.8456(3) -0.0597(3) 0.7028(2)
C3 C 0.7888(3) -0.1111(3) 0.7519(2)
C4 C 0.7437(3) -0.0643(3) 0.8129(2)
C5 C 0.7561(3) 0.0347(3) 0.8245(2)
C6 C 0.8114(3) 0.0865(3) 0.7748(2)
S1 S 0.66668(7) -0.13016(7) 0.87166(6)
O1 O 0.6118(2) -0.1978(2) 0.8145(2)
O2 O 0.6089(2) -0.0608(2) 0.9106(2)
N2 N 0.7323(3) -0.1959(2) 0.9406(2)
C7 C 0.7894(3) -0.1544(3) 1.0095(3)
N3 N 0.8227(3) -0.0637(3) 1.0077(3)
C8 C 0.8809(4) -0.0334(4) 1.0768(3)
C9 C 0.9226(7) 0.0680(5) 1.0737(5)
C10 C 0.9018(3) -0.0905(4) 1.1464(3)
C11 C 0.8643(3) -0.1839(3) 1.1429(3)
C12 C 0.8836(4) -0.2533(4) 1.2152(3)
N4 N 0.8075(2) -0.2159(2) 1.0739(2)
N5 N 0.5103(4) -0.1221(4) 0.1415(3)
C13 C 0.5900(3) -0.1040(4) 0.2043(3)
C14 C 0.6341(4) -0.0138(5) 0.2084(3)
C15 C 0.7122(4) 0.0051(4) 0.2696(3)
C16 C 0.7476(3) -0.0655(3) 0.3279(3)
C17 C 0.7041(3) -0.1552(3) 0.3234(3)
C18 C 0.6253(3) -0.1749(4) 0.2590(3)
S2 S 0.84230(7) -0.03489(8) 0.40779(7)
O3 O 0.8811(2) -0.1233(3) 0.4456(2)
O4 O 0.9118(2) 0.0257(3) 0.3727(2)
N6 N 0.7956(2) 0.0333(2) 0.4718(2)
C19 C 0.7188(3) 0.0057(3) 0.5136(2)
N7 N 0.6826(2) -0.0822(2) 0.5166(2)
C20 C 0.6091(3) -0.0914(3) 0.5642(3)
C21 C 0.5678(5) -0.1922(4) 0.5700(4)
C22 C 0.5756(3) -0.0146(4) 0.6055(3)
C23 C 0.6179(3) 0.0764(3) 0.5998(2)
C24 C 0.5872(4) 0.1642(4) 0.6427(3)
N8 N 0.6910(2) 0.0853(2) 0.55304(19)
O5 O 0.9230(2) 0.2104(3) 0.4769(2)
H1 H 0.8770 -0.0929 0.6617
H2 H 0.7792 -0.1782 0.7440
H3 H 0.7274 0.0663 0.8662
H4 H 0.8200 0.1539 0.7833
H5 H 0.9843 0.0709 1.1098
H6 H 0.8767 0.1125 1.0924
H7 H 0.9311 0.0829 1.0165
H8 H 0.9416 -0.0675 1.1953
H9 H 0.8228 -0.2813 1.2260
H10 H 0.9139 -0.2202 1.2648
H11 H 0.9261 -0.3042 1.2016
H12 H 0.6102 0.0350 0.1702
H13 H 0.7428 0.0671 0.2719
H14 H 0.7274 -0.2027 0.3637
H15 H 0.5974 -0.2374 0.2533
H16 H 0.5760 -0.2123 0.6274
H17 H 0.6031 -0.2359 0.5380
H18 H 0.4993 -0.1924 0.5475
H19 H 0.5243 -0.0238 0.6389
H20 H 0.6166 0.2202 0.6209
H21 H 0.6075 0.1579 0.7016
H22 H 0.5169 0.1695 0.6320
H24 H 0.9557 0.0583 0.6424
H25 H 0.9377 0.1434 0.6875
H26 H 0.4744 -0.1736 0.1438
H28 H 0.9191 0.1671 0.4390
H29 H 0.9678 0.1822 0.5091
H30 H 0.4799 -0.0747 0.1131
Cu1A Cu 0.69941(3) -0.32953(3) 0.97992(3)
N2A N 0.7677(3) 0.3041(2) 0.5594(2)
N4A N 0.6925(2) 0.2841(2) 0.4261(2)
O6 O 0.3250(5) 0.7743(4) 0.0580(4)
H23 H 0.3625 0.7335 0.0773
H27 H 0.2739 0.7728 0.0765
loop_
_geom_bond_atom_site_label_1
_geom_bond_atom_site_label_2
_geom_bond_site_symmetry_1
_geom_bond_site_symmetry_2
Cu1 N1 1_555 1_555
N1 C1 1_555 1_555
C1 C2 1_555 1_555
C2 C3 1_555 1_555
C3 C4 1_555 1_555
C4 C5 1_555 1_555
C5 C6 1_555 1_555
C6 C1 1_555 1_555
S1 C4 1_555 1_555
O1 S1 1_555 1_555
O2 S1 1_555 1_555
N2 S1 1_555 1_555
C7 N2 1_555 1_555
N3 C7 1_555 1_555
C8 N3 1_555 1_555
C9 C8 1_555 1_555
C10 C8 1_555 1_555
C11 C10 1_555 1_555
C12 C11 1_555 1_555
N4 C7 1_555 1_555
N5 C13 1_555 1_555
C13 C14 1_555 1_555
C14 C15 1_555 1_555
C15 C16 1_555 1_555
C16 C17 1_555 1_555
C17 C18 1_555 1_555
C18 C13 1_555 1_555
S2 C16 1_555 1_555
O3 S2 1_555 1_555
O4 S2 1_555 1_555
N6 Cu1 1_555 1_555
C19 N6 1_555 1_555
N7 C19 1_555 1_555
C20 N7 1_555 1_555
C21 C20 1_555 1_555
C22 C20 1_555 1_555
C23 C22 1_555 1_555
C24 C23 1_555 1_555
N8 Cu1 1_555 1_555
O5 Cu1 1_555 1_555
O6 H23 1_555 1_555
H1 C2 1_555 1_555
H2 C3 1_555 1_555
H3 C5 1_555 1_555
H4 C6 1_555 1_555
H5 C9 1_555 1_555
H6 C9 1_555 1_555
H7 C9 1_555 1_555
H8 C10 1_555 1_555
H9 C12 1_555 1_555
H10 C12 1_555 1_555
H11 C12 1_555 1_555
H12 C14 1_555 1_555
H13 C15 1_555 1_555
H14 C17 1_555 1_555
H15 C18 1_555 1_555
H16 C21 1_555 1_555
H17 C21 1_555 1_555
H18 C21 1_555 1_555
H19 C22 1_555 1_555
H20 C24 1_555 1_555
H21 C24 1_555 1_555
H22 C24 1_555 1_555
H24 N1 1_555 1_555
H25 N1 1_555 1_555
H26 N5 1_555 1_555
H27 O6 1_555 1_555
H28 O5 1_555 1_555
H29 O5 1_555 1_555
H30 N5 1_555 1_555
Cu1A N2 1_555 1_555
N2A Cu1 1_555 1_555
N4A Cu1 1_555 1_555
C11 N4 1_555 1_555
N4 Cu1A 1_555 1_555
S2 N6 1_555 1_555
C19 N8 1_555 1_555
C23 N8 1_555 1_555

#END
