
#######################################################################
#
#                 Cambridge Crystallographic Data Centre
#                                CCDC 
#
#######################################################################
#
# If this CIF has been generated from an entry in the Cambridge 
# Structural Database, then it will include bibliographic, chemical, 
# crystal, experimental, refinement or atomic coordinate data resulting 
# from the CCDC's data processing and validation procedures.
#
#######################################################################

data_OROJEL
_symmetry_cell_setting           triclinic
_symmetry_space_group_name_H-M   'P -1'
_symmetry_Int_Tables_number      2
_space_group_name_Hall           '-P 1'
loop_
_symmetry_equiv_pos_site_id
_symmetry_equiv_pos_as_xyz
1 x,y,z
2 -x,-y,-z
_cell_length_a                   8.5254(17)
_cell_length_b                   9.5699(19)
_cell_length_c                   17.395(4)
_cell_angle_alpha                98.71(3)
_cell_angle_beta                 97.85(3)
_cell_angle_gamma                108.07(3)
_cell_volume                     1307.96
loop_
_atom_site_label
_atom_site_type_symbol
_atom_site_fract_x
_atom_site_fract_y
_atom_site_fract_z
C1 C 1.2038(5) 0.4941(5) 0.6627(3)
H1 H 1.1216 0.4787 0.6181
C2 C 1.4396(5) 0.5340(5) 0.7377(3)
C3 C 1.6080(6) 0.5634(6) 0.7698(4)
H2 H 1.6881 0.5712 0.7379
C4 C 1.6513(6) 0.5805(7) 0.8508(4)
H3 H 1.7628 0.5982 0.8734
C5 C 1.5356(6) 0.5723(7) 0.8994(4)
H4 H 1.5715 0.5863 0.9538
C6 C 1.3668(6) 0.5439(6) 0.8695(3)
H5 H 1.2882 0.5389 0.9021
C7 C 1.3230(5) 0.5234(5) 0.7878(3)
C8 C 1.0124(5) 0.4928(5) 0.7601(3)
H6 H 0.9343 0.4940 0.7143
H7 H 1.0313 0.5824 0.7997
C9 C 0.9351(5) 0.3577(5) 0.7929(3)
C10 C 0.8959(6) 0.2573(6) 0.9036(3)
C11 C 0.9189(9) 0.2739(8) 0.9870(4)
H8 H 0.9724 0.3684 1.0195
C12 C 0.8639(10) 0.1535(9) 1.0189(4)
H9 H 0.8784 0.1658 1.0738
C13 C 0.7842(11) 0.0083(9) 0.9714(5)
H10 H 0.7495 -0.0746 0.9946
C14 C 0.7589(8) -0.0088(7) 0.8911(4)
H11 H 0.7057 -0.1041 0.8593
C15 C 0.8118(6) 0.1149(6) 0.8557(3)
C16 C 0.8423(5) 0.2137(5) 0.7445(3)
C17 C 0.8116(5) 0.1886(5) 0.6542(3)
H12 H 0.7916 0.2750 0.6377
H13 H 0.9110 0.1788 0.6359
C18 C 0.5014(5) 0.0457(5) 0.6022(3)
C19 C 0.4264(6) 0.1535(6) 0.6020(3)
H14 H 0.4889 0.2554 0.6153
C20 C 0.2550(6) 0.1030(6) 0.5812(4)
H15 H 0.1993 0.1724 0.5803
C21 C 0.1608(6) -0.0507(6) 0.5612(4)
H16 H 0.0442 -0.0804 0.5473
C22 C 0.2357(6) -0.1585(6) 0.5616(3)
H17 H 0.1725 -0.2603 0.5487
C23 C 0.4097(5) -0.1091(5) 0.5821(3)
C24 C 0.6685(5) -0.0878(5) 0.6090(3)
H18 H 0.7667 -0.1112 0.6176
Cu1 Cu 1.47046(6) 0.58393(6) 0.56639(4)
I1 I 1.76967(3) 0.55630(3) 0.56040(2)
N1 N 1.3626(4) 0.5157(4) 0.6597(3)
N2 N 1.1713(4) 0.4964(4) 0.7369(2)
N3 N 0.9570(5) 0.3788(5) 0.8709(3)
N4 N 0.7839(5) 0.0955(5) 0.7747(3)
N5 N 0.6681(4) 0.0545(4) 0.6184(2)
N6 N 0.5198(4) -0.1897(4) 0.5868(3)
C1A C 1.7962(5) 0.5059(5) 0.3373(3)
H1A H 1.8784 0.5213 0.3819
C2A C 1.5604(5) 0.4660(5) 0.2623(3)
C3A C 1.3920(6) 0.4366(6) 0.2302(4)
H2A H 1.3119 0.4288 0.2621
C4A C 1.3487(6) 0.4195(7) 0.1492(4)
H3A H 1.2372 0.4018 0.1266
C5A C 1.4644(6) 0.4277(7) 0.1006(4)
H4A H 1.4285 0.4137 0.0462
C6A C 1.6332(6) 0.4561(6) 0.1305(3)
H5A H 1.7118 0.4611 0.0979
C7A C 1.6770(5) 0.4766(5) 0.2122(3)
C8A C 1.9876(5) 0.5072(5) 0.2399(3)
H6A H 2.0657 0.5060 0.2857
H7A H 1.9687 0.4176 0.2003
C9A C 2.0649(5) 0.6423(5) 0.2071(3)
C10A C 2.1041(6) 0.7427(6) 0.0964(3)
C11A C 2.0811(9) 0.7261(8) 0.0130(4)
H8A H 2.0276 0.6316 -0.0195
C12A C 2.1361(10) 0.8465(9) -0.0189(4)
H9A H 2.1216 0.8342 -0.0738
C13A C 2.2158(11) 0.9917(9) 0.0286(5)
H10A H 2.2505 1.0746 0.0054
C14A C 2.2411(8) 1.0088(7) 0.1089(4)
H11A H 2.2943 1.1041 0.1407
C15A C 2.1882(6) 0.8851(6) 0.1443(3)
C16A C 2.1577(5) 0.7863(5) 0.2555(3)
C17A C 2.1884(5) 0.8114(5) 0.3458(3)
H12A H 2.2084 0.7250 0.3623
H13A H 2.0890 0.8212 0.3641
C18A C 2.4986(5) 0.9543(5) 0.3978(3)
C19A C 2.5736(6) 0.8465(6) 0.3980(3)
H14A H 2.5111 0.7446 0.3847
C20A C 2.7450(6) 0.8970(6) 0.4188(4)
H15A H 2.8007 0.8276 0.4197
C21A C 2.8392(6) 1.0507(6) 0.4388(4)
H16A H 2.9558 1.0804 0.4527
C22A C 2.7643(6) 1.1585(6) 0.4384(3)
H17A H 2.8275 1.2603 0.4513
C23A C 2.5903(5) 1.1091(5) 0.4179(3)
C24A C 2.3315(5) 1.0878(5) 0.3910(3)
H18A H 2.2333 1.1112 0.3824
Cu1A Cu 1.52954(6) 0.41607(6) 0.43361(4)
Cu1_2 Cu 0.47046(6) -0.41607(6) 0.56639(4)
Cu1A_2 Cu 2.52954(6) 1.41607(6) 0.43361(4)
I1A I 1.23033(3) 0.44370(3) 0.43960(2)
N1A N 1.6374(4) 0.4843(4) 0.3403(3)
N2A N 1.8287(4) 0.5036(4) 0.2631(2)
N3A N 2.0430(5) 0.6212(5) 0.1291(3)
N4A N 2.2161(5) 0.9045(5) 0.2253(3)
N5A N 2.3319(4) 0.9455(4) 0.3816(2)
N6_2 N 1.5198(4) 0.8103(4) 0.5868(3)
N6A N 1.4802(4) 0.1897(4) 0.4132(3)
N6A_2 N 2.4802(4) 1.1897(4) 0.4132(3)
C25 C 0.2690(12) 0.0025(9) 0.7690(5)
Cl1 Cl 0.2812(11) 0.1636(6) 0.8225(5)
Cl2 Cl 0.3511(3) -0.1232(3) 0.7983(2)
Cl3 Cl 0.0315(6) -0.1145(6) 0.7533(4)
Cl4? Cl 0.4234(9) 0.1787(6) 0.8423(5)
Cl5? Cl 0.0909(8) -0.0034(10) 0.7747(5)
loop_
_geom_bond_atom_site_label_1
_geom_bond_atom_site_label_2
_geom_bond_site_symmetry_1
_geom_bond_site_symmetry_2
C1 H1 1_555 1_555
C2 C3 1_555 1_555
C3 H2 1_555 1_555
C4 C3 1_555 1_555
H3 C4 1_555 1_555
C5 C4 1_555 1_555
H4 C5 1_555 1_555
C6 C5 1_555 1_555
H5 C6 1_555 1_555
C7 C2 1_555 1_555
C8 H6 1_555 1_555
H7 C8 1_555 1_555
C9 C8 1_555 1_555
C10 C11 1_555 1_555
C11 H8 1_555 1_555
C12 C11 1_555 1_555
H9 C12 1_555 1_555
C13 C12 1_555 1_555
H10 C13 1_555 1_555
C14 C13 1_555 1_555
H11 C14 1_555 1_555
C15 C10 1_555 1_555
C16 C9 1_555 1_555
C17 C16 1_555 1_555
H12 C17 1_555 1_555
H13 C17 1_555 1_555
C18 C19 1_555 1_555
C19 H14 1_555 1_555
C20 C19 1_555 1_555
H15 C20 1_555 1_555
C21 C20 1_555 1_555
H16 C21 1_555 1_555
C22 C21 1_555 1_555
H17 C22 1_555 1_555
C23 C18 1_555 1_555
C24 H18 1_555 1_555
C25 Cl1 1_555 1_555
Cl2 C25 1_555 1_555
Cl3 C25 1_555 1_555
Cu1 I1 1_555 1_555
I1 Cu1A 1_555 1_555
N1 C1 1_555 1_555
N2 C1 1_555 1_555
N3 C9 1_555 1_555
N4 C15 1_555 1_555
N5 C17 1_555 1_555
N6 C23 1_555 1_555
C1A H1A 1_555 1_555
C2A C3A 1_555 1_555
C3A H2A 1_555 1_555
C4A C3A 1_555 1_555
H3A C4A 1_555 1_555
C5A C4A 1_555 1_555
H4A C5A 1_555 1_555
C6A C5A 1_555 1_555
H5A C6A 1_555 1_555
C7A C2A 1_555 1_555
C8A H6A 1_555 1_555
H7A C8A 1_555 1_555
C9A C8A 1_555 1_555
C10A C11A 1_555 1_555
C11A H8A 1_555 1_555
C12A C11A 1_555 1_555
H9A C12A 1_555 1_555
C13A C12A 1_555 1_555
H10A C13A 1_555 1_555
C14A C13A 1_555 1_555
H11A C14A 1_555 1_555
C15A C10A 1_555 1_555
C16A C9A 1_555 1_555
C17A C16A 1_555 1_555
H12A C17A 1_555 1_555
H13A C17A 1_555 1_555
C18A C19A 1_555 1_555
C19A H14A 1_555 1_555
C20A C19A 1_555 1_555
H15A C20A 1_555 1_555
C21A C20A 1_555 1_555
H16A C21A 1_555 1_555
C22A C21A 1_555 1_555
H17A C22A 1_555 1_555
C23A C18A 1_555 1_555
C24A H18A 1_555 1_555
Cu1A I1A 1_555 1_555
Cu1_2 N6 1_555 1_555
Cu1A_2 N6A_2 1_555 1_555
I1A Cu1 1_555 1_555
N1A C1A 1_555 1_555
N2A C1A 1_555 1_555
N3A C9A 1_555 1_555
N4A C15A 1_555 1_555
N5A C17A 1_555 1_555
N6_2 Cu1 1_555 1_555
N6A Cu1A 1_555 1_555
N6A_2 C23A 1_555 1_555
C2 N1 1_555 1_555
C6 C7 1_555 1_555
C7 N2 1_555 1_555
C8 N2 1_555 1_555
C10 N3 1_555 1_555
C14 C15 1_555 1_555
C16 N4 1_555 1_555
C18 N5 1_555 1_555
C22 C23 1_555 1_555
C24 N5 1_555 1_555
C24 N6 1_555 1_555
Cu1 N1 1_555 1_555
C2A N1A 1_555 1_555
C6A C7A 1_555 1_555
C7A N2A 1_555 1_555
C8A N2A 1_555 1_555
C10A N3A 1_555 1_555
C14A C15A 1_555 1_555
C16A N4A 1_555 1_555
C18A N5A 1_555 1_555
C22A C23A 1_555 1_555
C24A N5A 1_555 1_555
C24A N6A_2 1_555 1_555
Cu1A N1A 1_555 1_555

#END
