
#######################################################################
#
#                 Cambridge Crystallographic Data Centre
#                                CCDC 
#
#######################################################################
#
# If this CIF has been generated from an entry in the Cambridge 
# Structural Database, then it will include bibliographic, chemical, 
# crystal, experimental, refinement or atomic coordinate data resulting 
# from the CCDC's data processing and validation procedures.
#
#######################################################################

data_OROLEN01
_symmetry_cell_setting           monoclinic
_symmetry_space_group_name_H-M   'C c'
_symmetry_Int_Tables_number      9
_space_group_name_Hall           'C -2yc'
loop_
_symmetry_equiv_pos_site_id
_symmetry_equiv_pos_as_xyz
1 x,y,z
2 x,-y,1/2+z
3 1/2+x,1/2+y,z
4 1/2+x,1/2-y,1/2+z
_cell_length_a                   8.4634(3)
_cell_length_b                   13.0284(5)
_cell_length_c                   11.8917(6)
_cell_angle_alpha                90
_cell_angle_beta                 96.8210(10)
_cell_angle_gamma                90
_cell_volume                     1301.95
loop_
_atom_site_label
_atom_site_type_symbol
_atom_site_fract_x
_atom_site_fract_y
_atom_site_fract_z
U1 U 0.27936(8) 0.07960(2) 0.21203(7)
C1 C 0.4099(10) -0.0390(7) 0.4496(7)
C2 C 0.5532(10) -0.0567(7) 0.3878(7)
C3 C 0.6609(11) -0.0340(7) 0.2225(7)
H1 H 0.6498 -0.0135 0.1471
C4 C 0.8042(12) -0.0773(8) 0.2701(8)
H2 H 0.8902 -0.0817 0.2283
C5 C 0.8171(12) -0.1140(8) 0.3808(8)
H3 H 0.9103 -0.1449 0.4137
C6 C 0.6879(12) -0.1032(8) 0.4401(9)
H4 H 0.6919 -0.1269 0.5141
C7 C 0.0135(13) 0.1382(9) 0.4120(8)
H5 H 0.0867 0.1016 0.4609
C8 C -0.1234(11) 0.1711(8) 0.4517(8)
H6 H -0.1402 0.1595 0.5266
C9 C -0.2366(12) 0.2222(8) 0.3776(9)
H7 H -0.3341 0.2413 0.3999
C10 C -0.2006(12) 0.2431(8) 0.2725(8)
H8 H -0.2746 0.2777 0.2222
C11 C -0.0573(11) 0.2146(8) 0.2373(8)
C12 C -0.0072(11) 0.2365(7) 0.1229(8)
N1 N 0.5389(8) -0.0216(6) 0.2835(6)
N2 N 0.0476(8) 0.1560(6) 0.3069(6)
O1 O 0.3988(8) 0.1845(5) 0.2632(6)
O2 O 0.1590(8) -0.0252(5) 0.1646(5)
O3 O 0.2931(8) 0.0034(5) 0.3958(5)
O4 O 0.4161(8) -0.0734(5) 0.5500(5)
O5 O 0.1128(8) 0.1865(6) 0.0984(6)
O6 O -0.0821(10) 0.2993(6) 0.0614(6)
U1A U 0.27936(8) -0.07960(2) 0.71203(7)
O4A O 0.4161(8) 0.0734(5) 0.0500(5)
loop_
_geom_bond_atom_site_label_1
_geom_bond_atom_site_label_2
_geom_bond_site_symmetry_1
_geom_bond_site_symmetry_2
U1 N1 1_555 1_555
C1 C2 1_555 1_555
C2 C6 1_555 1_555
C3 H1 1_555 1_555
C4 C3 1_555 1_555
H2 C4 1_555 1_555
C5 C4 1_555 1_555
H3 C5 1_555 1_555
C6 C5 1_555 1_555
H4 C6 1_555 1_555
C7 H5 1_555 1_555
C8 C7 1_555 1_555
H6 C8 1_555 1_555
C9 C8 1_555 1_555
H7 C9 1_555 1_555
C10 C9 1_555 1_555
H8 C10 1_555 1_555
C11 C10 1_555 1_555
C12 C11 1_555 1_555
N1 C2 1_555 1_555
N2 U1 1_555 1_555
O1 U1 1_555 1_555
O2 U1 1_555 1_555
O3 U1 1_555 1_555
O4 C1 1_555 1_555
O5 U1 1_555 1_555
O6 C12 1_555 1_555
U1A O4 1_555 1_555
O4A U1 1_555 1_555
C1 O3 1_555 1_555
C3 N1 1_555 1_555
C7 N2 1_555 1_555
C11 N2 1_555 1_555
C12 O5 1_555 1_555

#END
