
#######################################################################
#
#                 Cambridge Crystallographic Data Centre
#                                CCDC 
#
#######################################################################
#
# If this CIF has been generated from an entry in the Cambridge 
# Structural Database, then it will include bibliographic, chemical, 
# crystal, experimental, refinement or atomic coordinate data resulting 
# from the CCDC's data processing and validation procedures.
#
#######################################################################

data_OROMOY
_symmetry_cell_setting           orthorhombic
_symmetry_space_group_name_H-M   'P c a 21'
_symmetry_Int_Tables_number      29
_space_group_name_Hall           'P 2c -2ac'
loop_
_symmetry_equiv_pos_site_id
_symmetry_equiv_pos_as_xyz
1 x,y,z
2 -x,-y,1/2+z
3 1/2-x,y,1/2+z
4 1/2+x,-y,z
_cell_length_a                   19.496(2)
_cell_length_b                   9.986(6)
_cell_length_c                   21.702(1)
_cell_angle_alpha                90
_cell_angle_beta                 90
_cell_angle_gamma                90
_cell_volume                     4225.1
loop_
_atom_site_label
_atom_site_type_symbol
_atom_site_fract_x
_atom_site_fract_y
_atom_site_fract_z
Cd1 Cd 0.58318(3) 0.45080(8) 1.40226(2)
Cd2 Cd 0.40719(3) 0.74041(9) 1.60888(7)
Cd3 Cd 0.42825(3) -0.05019(8) 1.31793(3)
O1 O 0.4797(3) 0.3290(7) 1.3973(4)
C1 C 0.4707(5) 0.2539(9) 1.3517(6)
N1 N 0.4133(4) 0.8964(9) 1.4708(4)
N2 N 0.5715(4) 0.3057(9) 1.2091(4)
O2 O 0.4583(4) 0.0317(8) 1.2265(3)
O3 O 0.4275(3) 0.1658(8) 1.3494(4)
N3 N 0.3098(3) -0.0390(8) 1.3091(5)
N4 N 0.4350(4) 0.8020(10) 1.5090(4)
N5 N 0.5622(4) 0.3845(8) 1.3021(4)
O4 O 0.4890(4) 0.5926(8) 1.5717(4)
C2 C 0.5243(4) 0.2293(10) 1.2378(5)
N6 N 0.4478(4) 0.8839(8) 1.4179(4)
C3 C 0.5168(4) 0.2777(10) 1.2978(4)
O5 O 0.5547(4) 0.5323(8) 1.4928(3)
N7 N 0.5951(4) 0.3985(9) 1.2486(5)
C4 C 0.2752(5) -0.1471(11) 1.2910(5)
N8 N 0.6305(4) 0.2466(8) 1.4409(5)
C5 C 0.2053(5) -0.1486(11) 1.2871(6)
H1 H 0.1820 -0.2262 1.2761
C6 C 0.7296(6) 0.1172(11) 1.4591(6)
H2 H 0.7772 0.1106 1.4582
C7 C 0.4928(4) 0.7812(10) 1.4241(6)
N9 N 0.7023(3) 0.4607(8) 1.4035(5)
C8 C 0.6980(5) 0.2367(11) 1.4427(7)
C9 C 0.3161(6) -0.2671(10) 1.2742(5)
N10 N 0.3852(5) -0.2552(7) 1.2769(5)
C10 C 0.2040(4) 0.0822(11) 1.3173(8)
H3 H 0.1819 0.1620 1.3270
C11 C 0.4971(4) 0.1149(11) 1.2014(6)
C12 C 0.2741(5) 0.0702(12) 1.3194(8)
H4 H 0.2988 0.1471 1.3292
C13 C 0.3988(7) -0.4739(15) 1.2355(7)
H5 H 0.4278 -0.5400 1.2202
C14 C 0.7380(4) 0.3550(10) 1.4241(5)
C15 C 0.4834(5) 0.7292(10) 1.4816(5)
C16 C 0.4233(6) -0.3553(14) 1.2582(7)
H6 H 0.4706 -0.3451 1.2607
C17 C 0.8086(4) 0.3646(11) 1.4297(5)
H7 H 0.8333 0.2904 1.4431
C18 C 0.5129(5) 0.6084(10) 1.5163(5)
C19 C 0.3286(8) -0.4893(14) 1.2366(8)
H8 H 0.3093 -0.5709 1.2253
C20 C 0.6911(7) 0.0094(13) 1.4765(7)
H9 H 0.7122 -0.0699 1.4887
C21 C 0.5917(6) 0.1416(13) 1.4578(8)
H10 H 0.5442 0.1500 1.4576
C22 C 0.8416(5) 0.4755(12) 1.4167(6)
H11 H 0.8888 0.4800 1.4224
C23 C 0.1689(5) -0.0287(13) 1.3005(7)
H12 H 0.1213 -0.0266 1.2976
O6 O 0.5151(4) 0.1078(9) 1.1470(4)
C24 C 0.8072(5) 0.5838(12) 1.3947(8)
H13 H 0.8302 0.6624 1.3847
C25 C 0.6213(6) 0.0193(13) 1.4759(7)
H14 H 0.5940 -0.0530 1.4872
C26 C 0.2869(6) -0.3855(12) 1.2540(7)
H15 H 0.2394 -0.3946 1.2522
O7 O 0.5852(3) 0.6688(7) 1.3720(4)
C27 C 0.5398(5) 0.7591(10) 1.3692(6)
C28 C 0.7359(5) 0.5731(12) 1.3878(6)
H16 H 0.7113 0.6452 1.3721
N11 N 0.3030(4) 0.8568(9) 1.6166(5)
N12 N 0.3163(4) 0.5951(9) 1.5930(4)
C29 C 0.2453(5) 0.7826(11) 1.6105(8)
O8 O 0.5317(3) 0.8383(7) 1.3242(4)
C30 C 0.1977(6) 0.5607(15) 1.5765(6)
H17 H 0.1532 0.5946 1.5761
C31 C 0.1810(9) 0.9779(19) 1.6409(7)
H18 H 0.1391 1.0189 1.6489
C32 C 0.3260(6) 0.4669(12) 1.5749(6)
H19 H 0.3708 0.4354 1.5720
C33 C 0.2533(5) 0.6429(11) 1.5934(4)
C34 C 0.3007(7) 0.9857(13) 1.6327(5)
H20 H 0.3415 1.0337 1.6357
C35 C 0.2390(10) 1.0502(17) 1.6450(7)
H21 H 0.2379 1.1403 1.6557
C36 C 0.1823(6) 0.8444(14) 1.6251(5)
H22 H 0.1419 0.7952 1.6241
C37 C 0.2098(7) 0.4314(16) 1.5607(7)
H23 H 0.1729 0.3772 1.5499
C38 C 0.2729(7) 0.3794(13) 1.5603(6)
H24 H 0.2809 0.2899 1.5507
Cd2A Cd 0.59281(3) 0.25959(9) 1.10888(7)
Cd3_2 Cd 0.42825(3) 0.94981(8) 1.31793(3)
N2A N 0.4285(4) 0.6943(9) 1.7091(4)
N6_2 N 0.4478(4) -0.1161(8) 1.4179(4)
O6A O 0.4849(4) 0.8922(9) 1.6470(4)
O8_2 O 0.5317(3) -0.1617(7) 1.3242(4)
O9 O 0.4003(7) 0.1827(12) 1.4983(5)
O10 O 0.5775(7) 0.8074(18) 1.1907(10)
O11 O 0.5149(7) 0.3231(14) 1.6104(9)
O12 O 0.6757(6) 0.6484(11) 1.2239(6)
loop_
_geom_bond_atom_site_label_1
_geom_bond_atom_site_label_2
_geom_bond_site_symmetry_1
_geom_bond_site_symmetry_2
Cd1 O1 1_555 1_555
Cd2 N4 1_555 1_555
Cd3 O2 1_555 1_555
O1 C1 1_555 1_555
C1 O3 1_555 1_555
N1 N4 1_555 1_555
N2 C2 1_555 1_555
O2 C11 1_555 1_555
O3 Cd3 1_555 1_555
N3 Cd3 1_555 1_555
N4 C15 1_555 1_555
N5 Cd1 1_555 1_555
O4 Cd2 1_555 1_555
C2 C3 1_555 1_555
N6 N1 1_555 1_555
C3 C1 1_555 1_555
O5 Cd1 1_555 1_555
N7 N2 1_555 1_555
C4 N3 1_555 1_555
N8 Cd1 1_555 1_555
C5 C4 1_555 1_555
H1 C5 1_555 1_555
C6 H2 1_555 1_555
C7 N6 1_555 1_555
N9 Cd1 1_555 1_555
C8 N8 1_555 1_555
C9 C4 1_555 1_555
N10 Cd3 1_555 1_555
C10 H3 1_555 1_555
C11 C2 1_555 1_555
C12 N3 1_555 1_555
H4 C12 1_555 1_555
C13 H5 1_555 1_555
C14 N9 1_555 1_555
C15 C7 1_555 1_555
C16 N10 1_555 1_555
H6 C16 1_555 1_555
C17 C14 1_555 1_555
H7 C17 1_555 1_555
C18 O4 1_555 1_555
C19 C13 1_555 1_555
H8 C19 1_555 1_555
C20 C6 1_555 1_555
H9 C20 1_555 1_555
C21 N8 1_555 1_555
H10 C21 1_555 1_555
C22 C17 1_555 1_555
H11 C22 1_555 1_555
C23 C5 1_555 1_555
H12 C23 1_555 1_555
O6 C11 1_555 1_555
C24 C22 1_555 1_555
H13 C24 1_555 1_555
C25 C20 1_555 1_555
H14 C25 1_555 1_555
C26 C9 1_555 1_555
H15 C26 1_555 1_555
O7 Cd1 1_555 1_555
C27 C7 1_555 1_555
C28 N9 1_555 1_555
H16 C28 1_555 1_555
N11 Cd2 1_555 1_555
N12 Cd2 1_555 1_555
C29 N11 1_555 1_555
O8 C27 1_555 1_555
C30 H17 1_555 1_555
C31 H18 1_555 1_555
C32 N12 1_555 1_555
H19 C32 1_555 1_555
C33 N12 1_555 1_555
C34 N11 1_555 1_555
H20 C34 1_555 1_555
C35 C31 1_555 1_555
H21 C35 1_555 1_555
C36 C29 1_555 1_555
H22 C36 1_555 1_555
C37 C30 1_555 1_555
H23 C37 1_555 1_555
C38 C32 1_555 1_555
H24 C38 1_555 1_555
Cd2A N2 1_555 1_555
Cd3_2 N6 1_555 1_555
N2A Cd2 1_555 1_555
N6_2 Cd3 1_555 1_555
O6A Cd2 1_555 1_555
O8_2 Cd3 1_555 1_555
N5 C3 1_555 1_555
N5 N7 1_555 1_555
O5 C18 1_555 1_555
C6 C8 1_555 1_555
C8 C14 1_555 1_555
C9 N10 1_555 1_555
C10 C12 1_555 1_555
C10 C23 1_555 1_555
C13 C16 1_555 1_555
C15 C18 1_555 1_555
C19 C26 1_555 1_555
C21 C25 1_555 1_555
O6 Cd2A 1_555 1_555
C24 C28 1_555 1_555
O7 C27 1_555 1_555
C29 C33 1_555 1_555
O8 Cd3_2 1_555 1_555
C30 C33 1_555 1_555
C31 C36 1_555 1_555
C34 C35 1_555 1_555
C37 C38 1_555 1_555

#END
