
#######################################################################
#
#                 Cambridge Crystallographic Data Centre
#                                CCDC 
#
#######################################################################
#
# If this CIF has been generated from an entry in the Cambridge 
# Structural Database, then it will include bibliographic, chemical, 
# crystal, experimental, refinement or atomic coordinate data resulting 
# from the CCDC's data processing and validation procedures.
#
#######################################################################

data_OROZOL
_symmetry_cell_setting           triclinic
_symmetry_space_group_name_H-M   'P -1'
_symmetry_Int_Tables_number      2
_space_group_name_Hall           '-P 1'
loop_
_symmetry_equiv_pos_site_id
_symmetry_equiv_pos_as_xyz
1 x,y,z
2 -x,-y,-z
_cell_length_a                   7.9322(16)
_cell_length_b                   8.9899(18)
_cell_length_c                   10.539(2)
_cell_angle_alpha                95.22(3)
_cell_angle_beta                 104.31(3)
_cell_angle_gamma                98.12(3)
_cell_volume                     714.679
loop_
_atom_site_label
_atom_site_type_symbol
_atom_site_fract_x
_atom_site_fract_y
_atom_site_fract_z
Mn1 Mn 0.5000 0.5000 0.0000
Mn2 Mn 0.54665(11) 0.68271(11) -0.31601(9)
C1 C 0.8024(8) 0.7129(8) -0.0398(6)
N1 N 0.7564(6) 0.5531(6) 0.2858(5)
O1 O 0.6835(5) 0.7669(5) -0.1152(4)
C2 C 1.0639(7) 0.6038(7) 0.3806(5)
O2 O 1.4230(5) 0.6892(6) 0.0924(4)
O3 O 0.6839(5) 0.8942(5) -0.3730(4)
O4 O 0.6118(5) 0.4546(5) 0.2125(4)
O5 O 1.2500(5) 0.4424(5) 0.3257(4)
O6 O 0.7761(5) 0.6143(5) 0.0324(4)
O7 O 0.4444(6) 0.9137(5) -0.3132(4)
O8 O 1.3544(5) 0.6089(5) 0.5058(4)
C3 C 0.9908(7) 0.7689(7) -0.0409(6)
N2 N 1.2940(6) 0.7516(6) 0.0240(5)
C4 C 0.9158(7) 0.5115(7) 0.3051(5)
H1 H 0.9251 0.4173 0.2657
O9 O 0.6033(7) 1.1142(6) -0.3508(5)
C5 C 1.0465(8) 0.7450(7) 0.4384(6)
H2 H 1.1452 0.8099 0.4920
C6 C 0.7367(8) 0.6893(8) 0.3390(6)
H3 H 0.6253 0.7165 0.3239
N3 N 0.5762(7) 0.9787(7) -0.3461(5)
C7 C 1.1268(7) 0.7096(7) 0.0323(6)
H4 H 1.1041 0.6396 0.0884
C8 C 1.2379(7) 0.5504(7) 0.4067(6)
C9 C 0.8818(8) 0.7881(8) 0.4158(7)
H5 H 0.8696 0.8830 0.4521
C10 C 1.3294(8) 0.8540(7) -0.0567(7)
H6 H 1.4443 0.8800 -0.0633
C11 C 1.0270(8) 0.8765(7) -0.1217(6)
H7 H 0.9364 0.9195 -0.1709
C12 C 1.1990(8) 0.9192(8) -0.1282(7)
H8 H 1.2251 0.9918 -0.1811
Mn1_2 Mn 1.5000 0.5000 0.0000
Mn2A Mn 1.45335(11) 0.31729(11) 0.31601(9)
Mn2A_2 Mn 0.45335(11) 0.31729(11) 0.31601(9)
Mn2_2 Mn 1.54665(11) 0.68271(11) 0.68399(9)
Mn2_3 Mn -0.45335(11) 0.68271(11) -0.31601(9)
Mn2A_3 Mn -0.54665(11) 0.31729(11) -0.68399(9)
C1A C 1.1976(8) 0.2871(8) 0.0398(6)
N1A N 0.2436(6) 0.4469(6) -0.2858(5)
O1A O 1.3165(5) 0.2331(5) 0.1152(4)
C2A C -0.0639(7) 0.3962(7) -0.3806(5)
O2A O 0.5770(5) 0.3108(6) -0.0924(4)
O2_2 O 0.4230(5) 0.6892(6) 0.0924(4)
O3A O 1.3161(5) 0.1058(5) 0.3730(4)
O4A O 0.3882(5) 0.5454(5) -0.2125(4)
O4_2 O 1.6118(5) 0.4546(5) 0.2125(4)
O5A O -0.2500(5) 0.5576(5) -0.3257(4)
O5A_2 O 0.7500(5) 0.5576(5) -0.3257(4)
O6A O 1.2239(5) 0.3857(5) -0.0324(4)
O6A_2 O 0.2239(5) 0.3857(5) -0.0324(4)
O7A O 1.5556(6) 0.0863(5) 0.3132(4)
O8A O -0.3544(5) 0.3911(5) -0.5058(4)
O8_2 O 0.3544(5) 0.6089(5) -0.4942(4)
O8A_2 O 1.6456(5) 0.3911(5) 0.4942(4)
C3A C 1.0092(7) 0.2311(7) 0.0409(6)
N2A N 0.7060(6) 0.2484(6) -0.0240(5)
C4A C 0.0842(7) 0.4885(7) -0.3051(5)
H1A H 0.0749 0.5827 -0.2657
O9A O 1.3967(7) -0.1142(6) 0.3508(5)
C5A C -0.0465(8) 0.2550(7) -0.4384(6)
H2A H -0.1452 0.1901 -0.4920
C6A C 0.2633(8) 0.3107(8) -0.3390(6)
H3A H 0.3747 0.2835 -0.3239
N3A N 1.4238(7) 0.0213(7) 0.3461(5)
C7A C 0.8732(7) 0.2904(7) -0.0323(6)
H4A H 0.8959 0.3604 -0.0884
C8A C -0.2379(7) 0.4496(7) -0.4067(6)
C9A C 0.1182(8) 0.2119(8) -0.4158(7)
H5A H 0.1304 0.1170 -0.4521
C10A C 0.6706(8) 0.1460(7) 0.0567(7)
H6A H 0.5557 0.1200 0.0633
C11A C 0.9730(8) 0.1235(7) 0.1217(6)
H7A H 1.0636 0.0805 0.1709
C12A C 0.8010(8) 0.0808(8) 0.1282(7)
H8A H 0.7749 0.0082 0.1811
loop_
_geom_bond_atom_site_label_1
_geom_bond_atom_site_label_2
_geom_bond_site_symmetry_1
_geom_bond_site_symmetry_2
Mn1 O4 1_555 1_555
Mn2 O1 1_555 1_555
C1 O1 1_555 1_555
N1 O4 1_555 1_555
C2 C4 1_555 1_555
O2 N2 1_555 1_555
O3 Mn2 1_555 1_555
O4 Mn2A_2 1_555 1_555
O5 C8 1_555 1_555
O6 Mn1 1_555 1_555
O7 Mn2 1_555 1_555
O8 C8 1_555 1_555
C3 C1 1_555 1_555
N2 C7 1_555 1_555
C4 N1 1_555 1_555
H1 C4 1_555 1_555
O9 N3 1_555 1_555
C5 C2 1_555 1_555
H2 C5 1_555 1_555
C6 N1 1_555 1_555
H3 C6 1_555 1_555
N3 O3 1_555 1_555
C7 C3 1_555 1_555
H4 C7 1_555 1_555
C8 C2 1_555 1_555
C9 C5 1_555 1_555
H5 C9 1_555 1_555
C10 N2 1_555 1_555
H6 C10 1_555 1_555
C11 C3 1_555 1_555
H7 C11 1_555 1_555
C12 C10 1_555 1_555
H8 C12 1_555 1_555
Mn1_2 O2 1_555 1_555
Mn2A O5 1_555 1_555
Mn2_2 O8 1_555 1_555
Mn2_3 O5A 1_555 1_555
Mn2A_3 O8A 1_555 1_555
C1A O1A 1_555 1_555
N1A O4A 1_555 1_555
O1A Mn2A 1_555 1_555
C2A C4A 1_555 1_555
O2A Mn1 1_555 1_555
O2_2 Mn1 1_555 1_555
O3A Mn2A 1_555 1_555
O4A Mn1 1_555 1_555
O4_2 Mn1_2 1_555 1_555
O5A C8A 1_555 1_555
O5A_2 Mn2 1_555 1_555
O6A Mn1_2 1_555 1_555
O6A_2 Mn1 1_555 1_555
O7A Mn2A 1_555 1_555
O8A C8A 1_555 1_555
O8_2 Mn2 1_555 1_555
O8A_2 Mn2A 1_555 1_555
C3A C1A 1_555 1_555
N2A O2A 1_555 1_555
C4A N1A 1_555 1_555
H1A C4A 1_555 1_555
O9A N3A 1_555 1_555
C5A C2A 1_555 1_555
H2A C5A 1_555 1_555
C6A N1A 1_555 1_555
H3A C6A 1_555 1_555
N3A O3A 1_555 1_555
C7A C3A 1_555 1_555
H4A C7A 1_555 1_555
C8A C2A 1_555 1_555
C9A C5A 1_555 1_555
H5A C9A 1_555 1_555
C10A N2A 1_555 1_555
H6A C10A 1_555 1_555
C11A C3A 1_555 1_555
H7A C11A 1_555 1_555
C12A C10A 1_555 1_555
H8A C12A 1_555 1_555
Mn2 O4A 1_555 1_555
C1 O6 1_555 1_555
O7 N3 1_555 1_555
C6 C9 1_555 1_555
C11 C12 1_555 1_555
Mn2A O4_2 1_555 1_555
C1A O6A 1_555 1_555
O7A N3A 1_555 1_555
N2A C7A 1_555 1_555
C6A C9A 1_555 1_555
C11A C12A 1_555 1_555

#END
