
#######################################################################
#
#                 Cambridge Crystallographic Data Centre
#                                CCDC 
#
#######################################################################
#
# If this CIF has been generated from an entry in the Cambridge 
# Structural Database, then it will include bibliographic, chemical, 
# crystal, experimental, refinement or atomic coordinate data resulting 
# from the CCDC's data processing and validation procedures.
#
#######################################################################

data_OSAQOP
_symmetry_cell_setting           monoclinic
_symmetry_space_group_name_H-M   'P 21/c'
_symmetry_Int_Tables_number      14
_space_group_name_Hall           '-P 2ybc'
loop_
_symmetry_equiv_pos_site_id
_symmetry_equiv_pos_as_xyz
1 x,y,z
2 -x,1/2+y,1/2-z
3 -x,-y,-z
4 x,1/2-y,1/2+z
_cell_length_a                   12.249(2)
_cell_length_b                   9.3940(19)
_cell_length_c                   15.429(3)
_cell_angle_alpha                90
_cell_angle_beta                 109.29(3)
_cell_angle_gamma                90
_cell_volume                     1675.7
loop_
_atom_site_label
_atom_site_type_symbol
_atom_site_fract_x
_atom_site_fract_y
_atom_site_fract_z
Ni1 Ni 0.40576(14) 0.43546(17) 0.07455(10)
Ni2 Ni 0.22793(15) 0.68239(19) -0.05219(11)
N1 N 0.0891(9) 0.7810(11) -0.0667(7)
N2 N -0.1239(10) 0.8936(13) -0.0698(8)
N3 N 0.1879(9) 0.5790(11) 0.0363(7)
N4 N 0.0609(11) 0.5623(13) 0.1211(8)
H1 H 0.0992 0.4931 0.1536
H2 H 0.0000 0.5941 0.1305
N5 N 0.4466(8) 0.2821(10) 0.1773(6)
N6 N 0.5309(9) 0.0893(12) 0.3186(7)
N7 N 0.7216(9) 0.2219(13) 0.1365(8)
H3 H 0.7585 0.1547 0.1721
N8 N 0.5696(9) 0.3778(11) 0.0808(7)
O1 O 0.2468(7) 0.4675(9) 0.0833(6)
O2 O 0.6369(7) 0.4192(9) 0.0288(5)
O6 O 0.3434(8) 0.2768(10) -0.0242(6)
C1 C 0.0389(13) 0.8828(15) -0.1243(9)
H4 H 0.0753 0.9186 -0.1639
C2 C -0.0678(12) 0.9383(14) -0.1274(9)
H5 H -0.1017 1.0084 -0.1704
C3 C -0.0711(10) 0.7892(14) -0.0120(8)
H6 H -0.1081 0.7518 0.0267
C4 C 0.0371(11) 0.7335(14) -0.0067(8)
C5 C 0.0970(12) 0.6219(16) 0.0541(9)
C6 C 0.5534(10) 0.2259(13) 0.1949(7)
C7 C 0.4257(13) 0.1434(13) 0.2996(9)
H7 H 0.3795 0.1166 0.3341
C8 C 0.3847(11) 0.2396(14) 0.2284(9)
H8 H 0.3106 0.2761 0.2160
C9 C 0.5931(12) 0.1288(15) 0.2653(9)
H9 H 0.6660 0.0890 0.2764
C10 C 0.6164(10) 0.2745(14) 0.1333(8)
Ni1A Ni 0.59424(14) -0.06454(17) 0.42545(10)
Ni1B Ni 0.59424(14) 0.56454(17) -0.07455(10)
Ni2B Ni 0.77207(15) 0.31761(19) 0.05219(11)
N6A N 0.4691(9) 0.5893(12) 0.1814(7)
N7B N 0.2784(9) 0.7781(13) -0.1365(8)
H3B H 0.2415 0.8453 -0.1721
O2B O 0.3631(7) 0.5808(9) -0.0288(5)
N9 N -0.1163(13) 0.8026(15) 0.2036(8)
O3 O -0.0149(10) 0.8357(13) 0.2345(9)
O4 O -0.1912(10) 0.8914(12) 0.2088(7)
O5 O -0.1463(9) 0.6841(12) 0.1670(7)
O7 O 0.3373(17) 0.001(2) 0.0502(15)
loop_
_geom_bond_atom_site_label_1
_geom_bond_atom_site_label_2
_geom_bond_site_symmetry_1
_geom_bond_site_symmetry_2
Ni1 N5 1_555 1_555
Ni2 N1 1_555 1_555
N1 C1 1_555 1_555
N2 C2 1_555 1_555
N3 Ni2 1_555 1_555
N4 H1 1_555 1_555
H2 N4 1_555 1_555
N5 C6 1_555 1_555
N6 C7 1_555 1_555
N7 H3 1_555 1_555
N8 Ni1 1_555 1_555
N9 O3 1_555 1_555
O1 Ni1 1_555 1_555
O2 N8 1_555 1_555
O4 N9 1_555 1_555
O5 N9 1_555 1_555
O6 Ni1 1_555 1_555
C1 H4 1_555 1_555
C2 C1 1_555 1_555
H5 C2 1_555 1_555
C3 N2 1_555 1_555
H6 C3 1_555 1_555
C4 N1 1_555 1_555
C5 N3 1_555 1_555
C6 C9 1_555 1_555
C7 H7 1_555 1_555
C8 N5 1_555 1_555
H8 C8 1_555 1_555
C9 N6 1_555 1_555
H9 C9 1_555 1_555
C10 N7 1_555 1_555
Ni1A N6 1_555 1_555
Ni1B O2 1_555 1_555
Ni2B N7 1_555 1_555
N6A Ni1 1_555 1_555
N7B Ni2 1_555 1_555
H3B N7B 1_555 1_555
O2B Ni1 1_555 1_555
Ni2 O2B 1_555 1_555
N3 O1 1_555 1_555
N4 C5 1_555 1_555
N8 C10 1_555 1_555
O2 Ni2B 1_555 1_555
C3 C4 1_555 1_555
C4 C5 1_555 1_555
C6 C10 1_555 1_555
C7 C8 1_555 1_555

#END
