
#######################################################################
#
#                 Cambridge Crystallographic Data Centre
#                                CCDC 
#
#######################################################################
#
# If this CIF has been generated from an entry in the Cambridge 
# Structural Database, then it will include bibliographic, chemical, 
# crystal, experimental, refinement or atomic coordinate data resulting 
# from the CCDC's data processing and validation procedures.
#
#######################################################################

data_OSASAD
_symmetry_cell_setting           orthorhombic
_symmetry_space_group_name_H-M   'P b c a'
_symmetry_Int_Tables_number      61
_space_group_name_Hall           '-P 2ac 2ab'
loop_
_symmetry_equiv_pos_site_id
_symmetry_equiv_pos_as_xyz
1 x,y,z
2 1/2-x,-y,1/2+z
3 1/2+x,1/2-y,-z
4 -x,1/2+y,1/2-z
5 -x,-y,-z
6 1/2+x,y,1/2-z
7 1/2-x,1/2+y,z
8 x,1/2-y,1/2+z
_cell_length_a                   14.4471(10)
_cell_length_b                   13.9583(11)
_cell_length_c                   16.5272(13)
_cell_angle_alpha                90
_cell_angle_beta                 90
_cell_angle_gamma                90
_cell_volume                     3332.82
loop_
_atom_site_label
_atom_site_type_symbol
_atom_site_fract_x
_atom_site_fract_y
_atom_site_fract_z
C1 C -0.42157(11) 0.34349(11) 0.30230(9)
H1 H -0.4821 0.3381 0.2803
C2 C -0.34658(11) 0.33577(11) 0.25066(10)
H2 H -0.3558 0.3251 0.1945
C3 C -0.25804(11) 0.34380(11) 0.28182(9)
H3 H -0.2055 0.3393 0.2474
C4 C -0.32690(10) 0.36579(10) 0.41323(9)
H4 H -0.3200 0.3762 0.4697
C5 C -0.24745(10) 0.35873(10) 0.36499(9)
C6 C -0.15742(11) 0.36331(11) 0.40080(10)
C7 C -0.08064(11) 0.36285(11) 0.42914(10)
C8 C 0.00551(11) 0.36201(11) 0.46403(10)
C9 C 0.08102(11) 0.36375(11) 0.49556(10)
C10 C 0.16793(10) 0.36982(11) 0.53624(9)
C11 C 0.25118(10) 0.36191(11) 0.49354(9)
H5 H 0.2489 0.3509 0.4369
C12 C 0.17168(11) 0.38498(11) 0.61978(10)
H6 H 0.1165 0.3910 0.6506
C13 C 0.25743(11) 0.39108(11) 0.65654(10)
H7 H 0.2618 0.4006 0.7133
C14 C 0.33680(11) 0.38331(11) 0.61012(9)
H8 H 0.3953 0.3881 0.6360
N1 N -0.41236(9) 0.35838(9) 0.38228(8)
N2 N 0.33407(9) 0.36924(9) 0.52942(8)
Ag1 Ag -0.539230(7) 0.364630(8) 0.455920(7)
O1 O -0.44439(8) 0.44464(9) 0.57740(7)
O2 O -0.45340(9) 0.37861(12) 0.70811(8)
O3 O -0.32191(9) 0.35163(10) 0.62799(9)
O4 O -0.34912(11) 0.50479(11) 0.68057(10)
Cl1 Cl -0.39211(2) 0.41986(3) 0.64910(2)
N3 N -0.61503(10) 0.24090(10) 0.35416(9)
C15 C -0.61253(11) 0.15932(12) 0.35273(9)
C16 C -0.60909(13) 0.05517(12) 0.35096(12)
H9 H -0.6720 0.0296 0.3459
H10 H -0.5810 0.0315 0.4011
H11 H -0.5719 0.0342 0.3046
N2_2 N -0.66593(9) 0.36924(9) 0.52942(8)
Ag1_2 Ag 0.460770(7) 0.364630(8) 0.455920(7)
loop_
_geom_bond_atom_site_label_1
_geom_bond_atom_site_label_2
_geom_bond_site_symmetry_1
_geom_bond_site_symmetry_2
C1 H1 1_555 1_555
C2 C1 1_555 1_555
H2 C2 1_555 1_555
C3 C2 1_555 1_555
H3 C3 1_555 1_555
C4 H4 1_555 1_555
C5 C3 1_555 1_555
C6 C5 1_555 1_555
C7 C6 1_555 1_555
C8 C7 1_555 1_555
C9 C8 1_555 1_555
C10 C9 1_555 1_555
C11 C10 1_555 1_555
H5 C11 1_555 1_555
C12 C10 1_555 1_555
H6 C12 1_555 1_555
C13 C12 1_555 1_555
H7 C13 1_555 1_555
C14 C13 1_555 1_555
H8 C14 1_555 1_555
N1 C1 1_555 1_555
N2 C11 1_555 1_555
Ag1 N1 1_555 1_555
O1 Ag1 1_555 1_555
O2 Cl1 1_555 1_555
O3 Cl1 1_555 1_555
O4 Cl1 1_555 1_555
Cl1 O1 1_555 1_555
N3 Ag1 1_555 1_555
C15 N3 1_555 1_555
C16 C15 1_555 1_555
H9 C16 1_555 1_555
H10 C16 1_555 1_555
H11 C16 1_555 1_555
N2_2 Ag1 1_555 1_555
Ag1_2 N2 1_555 1_555
C4 C5 1_555 1_555
C4 N1 1_555 1_555
C14 N2 1_555 1_555

#END
