
#######################################################################
#
#                 Cambridge Crystallographic Data Centre
#                                CCDC 
#
#######################################################################
#
# If this CIF has been generated from an entry in the Cambridge 
# Structural Database, then it will include bibliographic, chemical, 
# crystal, experimental, refinement or atomic coordinate data resulting 
# from the CCDC's data processing and validation procedures.
#
#######################################################################

data_OSAVUA
_symmetry_cell_setting           monoclinic
_symmetry_space_group_name_H-M   'C 2/c'
_symmetry_Int_Tables_number      15
_space_group_name_Hall           '-C 2yn'
loop_
_symmetry_equiv_pos_site_id
_symmetry_equiv_pos_as_xyz
1 x,y,z
2 -x,y,1/2-z
3 1/2+x,1/2+y,z
4 1/2-x,1/2+y,1/2-z
5 -x,-y,-z
6 x,-y,1/2+z
7 1/2-x,1/2-y,-z
8 1/2+x,1/2-y,1/2+z
_cell_length_a                   17.9698(6)
_cell_length_b                   10.2569(3)
_cell_length_c                   9.6650(3)
_cell_angle_alpha                90
_cell_angle_beta                 95.204(2)
_cell_angle_gamma                90
_cell_volume                     1774.06
loop_
_atom_site_label
_atom_site_type_symbol
_atom_site_fract_x
_atom_site_fract_y
_atom_site_fract_z
Ca1 Ca 0.0000 0.07825(5) 0.2500
O1 O -0.08529(11) -0.0728(2) 0.1510(2)
C1 C -0.11017(11) -0.1057(2) 0.0292(2)
C2 C -0.18301(10) -0.1796(2) 0.0158(2)
O2 O -0.20284(12) -0.1530(3) 0.25930(18)
H1 H -0.1621 -0.1170 0.2587
C3 C -0.22426(12) -0.2005(2) 0.1306(2)
C4 C -0.20965(12) -0.2289(2) -0.1127(2)
H2 H -0.1826 -0.2143 -0.1889
O3 O -0.07068(18) 0.2422(3) 0.1301(3)
N1 N -0.1113(2) 0.3799(3) -0.0393(3)
C5 C -0.1011(6) 0.4381(8) -0.1769(9)
H3 H -0.0529 0.4142 -0.2044
H4 H -0.1044 0.5313 -0.1709
H5 H -0.1393 0.4064 -0.2444
C6 C -0.0644(3) 0.2949(6) 0.0194(6)
H6 H -0.0231 0.2730 -0.0272
O4 O -0.07808(10) -0.0843(2) -0.07584(19)
C7 C -0.1783(4) 0.4103(6) 0.0053(8)
H7 H -0.1827 0.3703 0.0940
H8 H -0.2175 0.3789 -0.0604
H9 H -0.1824 0.5032 0.0140
Ca1D Ca 0.0000 -0.07825(5) -0.2500
Ca1F Ca -0.5000 -0.57825(5) -0.2500
Ca1B Ca -0.5000 -0.42175(5) 0.2500
O1F O -0.41471(11) -0.4272(2) -0.1510(2)
O1A O 0.08529(11) -0.0728(2) 0.3490(2)
C1F C -0.38983(11) -0.3943(2) -0.0292(2)
C2F C -0.31699(10) -0.3204(2) -0.0158(2)
O2F O -0.29716(12) -0.3470(3) -0.25930(18)
H1F H -0.3379 -0.3830 -0.2587
C3F C -0.27574(12) -0.2995(2) -0.1306(2)
C4F C -0.29035(12) -0.2711(2) 0.1127(2)
H2F H -0.3174 -0.2857 0.1889
O3A O 0.07068(18) 0.2422(3) 0.3699(3)
N1A N 0.1113(2) 0.3799(3) 0.5393(3)
C5A C 0.1011(6) 0.4381(8) 0.6769(9)
H3A H 0.0529 0.4142 0.7044
H4A H 0.1044 0.5313 0.6709
H5A H 0.1393 0.4064 0.7444
C6A C 0.0644(3) 0.2949(6) 0.4806(6)
H6A H 0.0231 0.2730 0.5272
O4F O -0.42192(10) -0.4157(2) 0.07584(19)
O4D O 0.07808(10) 0.0843(2) 0.07584(19)
O4E O -0.07808(10) 0.0843(2) 0.42416(19)
C7A C 0.1783(4) 0.4103(6) 0.4947(8)
H7A H 0.1827 0.3703 0.4060
H8A H 0.2175 0.3789 0.5604
H9A H 0.1824 0.5032 0.4860
loop_
_geom_bond_atom_site_label_1
_geom_bond_atom_site_label_2
_geom_bond_site_symmetry_1
_geom_bond_site_symmetry_2
Ca1 O1 1_555 1_555
O1 C1 1_555 1_555
C1 C2 1_555 1_555
C2 C3 1_555 1_555
O2 H1 1_555 1_555
C3 O2 1_555 1_555
C4 C2 1_555 1_555
H2 C4 1_555 1_555
O3 Ca1 1_555 1_555
N1 C5 1_555 1_555
C5 H3 1_555 1_555
H4 C5 1_555 1_555
H5 C5 1_555 1_555
C6 O3 1_555 1_555
H6 C6 1_555 1_555
O4 C1 1_555 1_555
C7 N1 1_555 1_555
H7 C7 1_555 1_555
H8 C7 1_555 1_555
H9 C7 1_555 1_555
Ca1D O4 1_555 1_555
Ca1F O1F 1_555 1_555
Ca1B O4F 1_555 1_555
O1F C1F 1_555 1_555
O1A Ca1 1_555 1_555
C1F C2F 1_555 1_555
C2F C3F 1_555 1_555
O2F H1F 1_555 1_555
C3F C4 1_555 1_555
C4F C3 1_555 1_555
H2F C4F 1_555 1_555
O3A Ca1 1_555 1_555
N1A C5A 1_555 1_555
C5A H3A 1_555 1_555
H4A C5A 1_555 1_555
H5A C5A 1_555 1_555
C6A O3A 1_555 1_555
H6A C6A 1_555 1_555
O4F C1F 1_555 1_555
O4D Ca1 1_555 1_555
O4E Ca1 1_555 1_555
C7A N1A 1_555 1_555
H7A C7A 1_555 1_555
H8A C7A 1_555 1_555
H9A C7A 1_555 1_555
N1 C6 1_555 1_555
C2F C4F 1_555 1_555
O2F C3F 1_555 1_555
N1A C6A 1_555 1_555

#END
