
#######################################################################
#
#                 Cambridge Crystallographic Data Centre
#                                CCDC 
#
#######################################################################
#
# If this CIF has been generated from an entry in the Cambridge 
# Structural Database, then it will include bibliographic, chemical, 
# crystal, experimental, refinement or atomic coordinate data resulting 
# from the CCDC's data processing and validation procedures.
#
#######################################################################

data_OSAVEK
_symmetry_cell_setting           orthorhombic
_symmetry_space_group_name_H-M   'P n m a'
_symmetry_Int_Tables_number      62
_space_group_name_Hall           '-P 2ac 2n'
loop_
_symmetry_equiv_pos_site_id
_symmetry_equiv_pos_as_xyz
1 x,y,z
2 1/2-x,-y,1/2+z
3 1/2+x,1/2-y,1/2-z
4 -x,1/2+y,-z
5 -x,-y,-z
6 1/2+x,y,1/2-z
7 1/2-x,1/2+y,1/2+z
8 x,1/2-y,z
_cell_length_a                   10.9375(14)
_cell_length_b                   6.7299(9)
_cell_length_c                   18.584(2)
_cell_angle_alpha                90
_cell_angle_beta                 90
_cell_angle_gamma                90
_cell_volume                     1367.94
loop_
_atom_site_label
_atom_site_type_symbol
_atom_site_fract_x
_atom_site_fract_y
_atom_site_fract_z
Ca1 Ca 0.40953(9) 0.7500 -0.01348(5)
O1 O 0.3216(3) 0.9119(4) 0.09707(14)
O2 O 0.0902(3) 0.9123(3) 0.44891(12)
O3 O 0.2058(4) 0.7500 -0.0563(2)
O4 O 0.5391(4) 0.7500 -0.11731(19)
H1 H 0.6159 0.7500 -0.1112
H2 H 0.5116 0.7500 -0.1565
N1 N -0.0017(8) 0.7500 -0.0601(6)
C1 C 0.3063(5) 0.7500 0.1286(3)
C2 C 0.1060(10) 0.7500 -0.0297(7)
H3 H 0.1051 0.7500 0.0203
C3 C 0.2634(5) 0.7500 0.2063(3)
C4 C 0.0008(14) 0.7500 -0.1382(8)
H4 H 0.0866 0.7500 -0.1564
H5 H -0.0374 0.6337 -0.1591
C5 C 0.2414(5) 0.5760(6) 0.2413(2)
H6 H 0.2562 0.4563 0.2178
C6 C -0.1204(11) 0.7500 -0.0225(11)
H7 H -0.1083 0.7500 0.0308
H8 H -0.1663 0.8663 -0.0337
C7 C 0.1977(6) 0.5743(6) 0.3108(2)
H9 H 0.1850 0.4537 0.3341
C8 C 0.1726(5) 0.7500 0.3464(3)
C9 C 0.1169(4) 0.7500 0.4193(3)
Ca1A Ca 0.09047(9) 1.2500 0.48652(5)
Ca1B Ca -0.09047(9) 0.7500 0.51348(5)
Ca1A_2 Ca 0.09047(9) 0.2500 0.48652(5)
O1G O 0.3216(3) 0.5881(4) 0.09707(14)
O2G O 0.0902(3) 0.5877(3) 0.44891(12)
O2A O 0.4098(3) 1.0877(3) -0.05109(12)
O2B O 0.5902(3) 0.5877(3) 0.05109(12)
O2E O 0.5902(3) 0.9123(3) 0.05109(12)
O2F O 0.4098(3) 0.4123(3) -0.05109(12)
H5G H -0.0374 0.8663 -0.1591
C5G C 0.2414(5) 0.9240(6) 0.2413(2)
H6G H 0.2562 1.0437 0.2178
H8G H -0.1663 0.6337 -0.0337
C7G C 0.1977(6) 0.9257(6) 0.3108(2)
H9G H 0.1850 1.0463 0.3341
loop_
_geom_bond_atom_site_label_1
_geom_bond_atom_site_label_2
_geom_bond_site_symmetry_1
_geom_bond_site_symmetry_2
Ca1 O1 1_555 1_555
O1 C1 1_555 1_555
O2 C9 1_555 1_555
O3 Ca1 1_555 1_555
O4 Ca1 1_555 1_555
H1 O4 1_555 1_555
H2 O4 1_555 1_555
N1 C2 1_555 1_555
C1 C3 1_555 1_555
C2 O3 1_555 1_555
H3 C2 1_555 1_555
C3 C5 1_555 1_555
C4 N1 1_555 1_555
H4 C4 1_555 1_555
H5 C4 1_555 1_555
C5 H6 1_555 1_555
C6 N1 1_555 1_555
H7 C6 1_555 1_555
H8 C6 1_555 1_555
C7 C5 1_555 1_555
H9 C7 1_555 1_555
C8 C7 1_555 1_555
C9 C8 1_555 1_555
Ca1A O2 1_555 1_555
Ca1B O2 1_555 1_555
Ca1A_2 O2G 1_555 1_555
O1G Ca1 1_555 1_555
O2G C9 1_555 1_555
O2A Ca1 1_555 1_555
O2B Ca1 1_555 1_555
O2E Ca1 1_555 1_555
O2F Ca1 1_555 1_555
H5G C4 1_555 1_555
C5G C3 1_555 1_555
H6G C5G 1_555 1_555
H8G C6 1_555 1_555
C7G C8 1_555 1_555
H9G C7G 1_555 1_555
C1 O1G 1_555 1_555
Ca1B O2G 1_555 1_555
C5G C7G 1_555 1_555

#END
