
#######################################################################
#
#                 Cambridge Crystallographic Data Centre
#                                CCDC 
#
#######################################################################
#
# If this CIF has been generated from an entry in the Cambridge 
# Structural Database, then it will include bibliographic, chemical, 
# crystal, experimental, refinement or atomic coordinate data resulting 
# from the CCDC's data processing and validation procedures.
#
#######################################################################

data_OSAXOW01
_symmetry_cell_setting           monoclinic
_symmetry_space_group_name_H-M   'P 21/c'
_symmetry_Int_Tables_number      14
_space_group_name_Hall           '-P 2ybc'
loop_
_symmetry_equiv_pos_site_id
_symmetry_equiv_pos_as_xyz
1 x,y,z
2 -x,1/2+y,1/2-z
3 -x,-y,-z
4 x,1/2-y,1/2+z
_cell_length_a                   12.153(2)
_cell_length_b                   4.928(1)
_cell_length_c                   8.9050(18)
_cell_angle_alpha                90
_cell_angle_beta                 91.58(3)
_cell_angle_gamma                90
_cell_volume                     533.118
loop_
_atom_site_label
_atom_site_type_symbol
_atom_site_fract_x
_atom_site_fract_y
_atom_site_fract_z
C1 C 0.8838(2) -0.0868(5) 0.0737(2)
C2 C 0.7922(3) 0.0452(6) -0.0141(4)
H1 H 0.7528 0.1597 0.0548
H2 H 0.8253 0.1644 -0.0868
C3 C 0.7132(4) -0.1156(9) -0.0926(7)
H3 H 0.6826 -0.2429 -0.0219
H4 H 0.7512 -0.2210 -0.1672
C4 C 0.6204(4) 0.0277(11) -0.1696(6)
H5 H 0.5731 -0.1023 -0.2191
H6 H 0.6487 0.1511 -0.2425
H7 H 0.5795 0.1269 -0.0971
Li1 Li 1.0016(4) -0.0996(7) 0.3556(4)
O1 O 0.92964(15) 0.0469(3) 0.17827(17)
O2 O 0.91293(15) -0.3233(3) 0.03922(18)
Li1A Li 0.9984(4) 0.4004(7) 0.1444(4)
Li1A_2 Li 0.9984(4) -0.5996(7) 0.1444(4)
Li1C Li 1.0016(4) -0.4004(7) -0.1444(4)
O1A O 1.07036(15) -0.4531(3) 0.32173(17)
O2A O 1.08707(15) 0.1767(3) 0.46078(18)
O2C O 0.91293(15) -0.1767(3) 0.53922(18)
loop_
_geom_bond_atom_site_label_1
_geom_bond_atom_site_label_2
_geom_bond_site_symmetry_1
_geom_bond_site_symmetry_2
C1 C2 1_555 1_555
C2 H1 1_555 1_555
H2 C2 1_555 1_555
C3 C2 1_555 1_555
H3 C3 1_555 1_555
H4 C3 1_555 1_555
C4 C3 1_555 1_555
H5 C4 1_555 1_555
H6 C4 1_555 1_555
H7 C4 1_555 1_555
Li1 O1 1_555 1_555
O1 C1 1_555 1_555
O2 C1 1_555 1_555
Li1A O1 1_555 1_555
Li1A_2 O2 1_555 1_555
Li1C O2 1_555 1_555
O1A Li1 1_555 1_555
O2A Li1 1_555 1_555
O2C Li1 1_555 1_555
Li1A_2 O1A 1_555 1_555

#END
