
#######################################################################
#
#                 Cambridge Crystallographic Data Centre
#                                CCDC 
#
#######################################################################
#
# If this CIF has been generated from an entry in the Cambridge 
# Structural Database, then it will include bibliographic, chemical, 
# crystal, experimental, refinement or atomic coordinate data resulting 
# from the CCDC's data processing and validation procedures.
#
#######################################################################

data_OSEMOP
_symmetry_cell_setting           monoclinic
_symmetry_space_group_name_H-M   'P 21/c'
_symmetry_Int_Tables_number      14
_space_group_name_Hall           '-P 2ybc'
loop_
_symmetry_equiv_pos_site_id
_symmetry_equiv_pos_as_xyz
1 x,y,z
2 -x,1/2+y,1/2-z
3 -x,-y,-z
4 x,1/2-y,1/2+z
_cell_length_a                   10.073(2)
_cell_length_b                   7.5990(15)
_cell_length_c                   21.057(4)
_cell_angle_alpha                90
_cell_angle_beta                 97.85(3)
_cell_angle_gamma                90
_cell_volume                     1596.7
loop_
_atom_site_label
_atom_site_type_symbol
_atom_site_fract_x
_atom_site_fract_y
_atom_site_fract_z
Zn1 Zn 0.37348(3) 0.72808(5) 0.198243(16)
O1 O 0.4665(2) 0.5433(3) 0.25069(9)
N1 N 0.1917(2) 1.0282(3) 0.32835(12)
O2 O 0.2605(2) 0.5954(3) 0.13151(11)
C1 C 0.4367(3) 0.5104(4) 0.30618(13)
C2 C 0.2230(2) 0.9935(4) 0.26855(14)
N2 N 0.2797(2) 0.8337(3) 0.26778(11)
C3 C 0.2879(3) 0.7668(3) 0.32885(15)
C4 C 0.1791(3) 0.6890(4) 0.09573(14)
O3 O 0.1688(3) 0.8493(4) 0.09976(12)
C5 C 0.0839(3) 0.4085(4) 0.04583(14)
H1 H 0.1404 0.3468 0.0767
C6 C 0.0876(3) 0.5913(4) 0.04525(13)
C7 C 0.2330(3) 0.8860(4) 0.36694(15)
H2 H 0.2252 0.8734 0.4102
C8 C -0.0031(3) 0.3175(4) 0.00099(15)
C9 C 0.1334(3) 1.1840(4) 0.34260(18)
H3 H 0.1130 1.2050 0.3837
C10 C 0.1386(4) 1.2750(4) 0.2355(2)
H4 H 0.1206 1.3612 0.2042
C11 C 0.1963(3) 1.1211(4) 0.22080(16)
H5 H 0.2176 1.1013 0.1798
C12 C 0.1062(3) 1.3054(5) 0.29654(19)
H6 H 0.0654 1.4106 0.3055
N3 N 0.3578(2) 0.5040(3) 0.39984(11)
N4 N 0.4898(2) 0.3656(3) 0.33939(11)
C13 C 0.3540(3) 0.6008(3) 0.34353(13)
C14 C 0.4413(3) 0.3613(4) 0.39528(13)
C15 C 0.2934(3) 0.5248(4) 0.45281(16)
H7 H 0.2357 0.6195 0.4550
C16 C 0.4616(4) 0.2387(4) 0.44537(18)
H8 H 0.5171 0.1419 0.4429
C17 C 0.3974(4) 0.2648(4) 0.4982(2)
H9 H 0.4104 0.1852 0.5321
C18 C 0.3134(4) 0.4088(5) 0.50173(17)
H10 H 0.2710 0.4251 0.5378
H11 H -0.011(3) 0.205(4) 0.0025(15)
Zn1B Zn -0.37348(3) 0.27192(5) -0.198243(16)
Zn1A Zn 0.62652(3) 0.22808(5) 0.301757(16)
Zn1C Zn -0.62652(3) 0.77192(5) -0.301757(16)
O1B O -0.4665(2) 0.4567(3) -0.25069(9)
N1B N -0.1917(2) -0.0282(3) -0.32835(12)
O2B O -0.2605(2) 0.4046(3) -0.13151(11)
C1B C -0.4367(3) 0.4896(4) -0.30618(13)
C2B C -0.2230(2) 0.0065(4) -0.26855(14)
N2B N -0.2797(2) 0.1663(3) -0.26778(11)
C3B C -0.2879(3) 0.2332(3) -0.32885(15)
C4B C -0.1791(3) 0.3110(4) -0.09573(14)
O3B O -0.1688(3) 0.1507(4) -0.09976(12)
C5B C -0.0839(3) 0.5915(4) -0.04583(14)
H1B H -0.1404 0.6532 -0.0767
C6B C -0.0876(3) 0.4087(4) -0.04525(13)
C7B C -0.2330(3) 0.1140(4) -0.36694(15)
H2B H -0.2252 0.1266 -0.4102
C8B C 0.0031(3) 0.6825(4) -0.00099(15)
C9B C -0.1334(3) -0.1840(4) -0.34260(18)
H3B H -0.1130 -0.2050 -0.3837
C10B C -0.1386(4) -0.2750(4) -0.2355(2)
H4B H -0.1206 -0.3612 -0.2042
C11B C -0.1963(3) -0.1211(4) -0.22080(16)
H5B H -0.2176 -0.1013 -0.1798
C12B C -0.1062(3) -0.3054(5) -0.29654(19)
H6B H -0.0654 -0.4106 -0.3055
N3B N -0.3578(2) 0.4960(3) -0.39984(11)
N4B N -0.4898(2) 0.6344(3) -0.33939(11)
N4A N 0.5102(2) 0.8656(3) 0.16061(11)
N4C N -0.5102(2) 0.1344(3) -0.16061(11)
C13B C -0.3540(3) 0.3992(3) -0.34353(13)
C14B C -0.4413(3) 0.6387(4) -0.39528(13)
C15B C -0.2934(3) 0.4752(4) -0.45281(16)
H7B H -0.2357 0.3805 -0.4550
C16B C -0.4616(4) 0.7613(4) -0.44537(18)
H8B H -0.5171 0.8581 -0.4429
C17B C -0.3974(4) 0.7352(4) -0.4982(2)
H9B H -0.4104 0.8148 -0.5321
C18B C -0.3134(4) 0.5912(5) -0.50173(17)
H10B H -0.2710 0.5749 -0.5378
H11B H 0.011(3) 0.795(4) -0.0025(15)
loop_
_geom_bond_atom_site_label_1
_geom_bond_atom_site_label_2
_geom_bond_site_symmetry_1
_geom_bond_site_symmetry_2
Zn1 O1 1_555 1_555
O1 C1 1_555 1_555
N1 C2 1_555 1_555
O2 Zn1 1_555 1_555
C1 N4 1_555 1_555
C2 N2 1_555 1_555
N2 Zn1 1_555 1_555
C3 N2 1_555 1_555
C4 O2 1_555 1_555
O3 C4 1_555 1_555
C5 H1 1_555 1_555
C6 C4 1_555 1_555
C7 N1 1_555 1_555
H2 C7 1_555 1_555
C8 C5 1_555 1_555
C9 N1 1_555 1_555
H3 C9 1_555 1_555
C10 H4 1_555 1_555
C11 C2 1_555 1_555
H5 C11 1_555 1_555
C12 C9 1_555 1_555
H6 C12 1_555 1_555
N3 C13 1_555 1_555
N4 C14 1_555 1_555
C13 C1 1_555 1_555
C14 N3 1_555 1_555
C15 N3 1_555 1_555
H7 C15 1_555 1_555
C16 C14 1_555 1_555
H8 C16 1_555 1_555
C17 C16 1_555 1_555
H9 C17 1_555 1_555
C18 C15 1_555 1_555
H10 C18 1_555 1_555
H11 C8 1_555 1_555
Zn1B O1B 1_555 1_555
Zn1A N4 1_555 1_555
Zn1C N4B 1_555 1_555
O1B C1B 1_555 1_555
N1B C2B 1_555 1_555
O2B Zn1B 1_555 1_555
C1B N4B 1_555 1_555
C2B N2B 1_555 1_555
N2B Zn1B 1_555 1_555
C3B N2B 1_555 1_555
C4B O2B 1_555 1_555
O3B C4B 1_555 1_555
C5B H1B 1_555 1_555
C6B C8 1_555 1_555
C7B N1B 1_555 1_555
H2B C7B 1_555 1_555
C8B C6 1_555 1_555
C9B N1B 1_555 1_555
H3B C9B 1_555 1_555
C10B H4B 1_555 1_555
C11B C2B 1_555 1_555
H5B C11B 1_555 1_555
C12B C9B 1_555 1_555
H6B C12B 1_555 1_555
N3B C13B 1_555 1_555
N4B C14B 1_555 1_555
N4A Zn1 1_555 1_555
N4C Zn1B 1_555 1_555
C13B C1B 1_555 1_555
C14B N3B 1_555 1_555
C15B N3B 1_555 1_555
H7B C15B 1_555 1_555
C16B C14B 1_555 1_555
H8B C16B 1_555 1_555
C17B C16B 1_555 1_555
H9B C17B 1_555 1_555
C18B C15B 1_555 1_555
H10B C18B 1_555 1_555
H11B C8B 1_555 1_555
C3 C7 1_555 1_555
C3 C13 1_555 1_555
C5 C6 1_555 1_555
C10 C11 1_555 1_555
C10 C12 1_555 1_555
C17 C18 1_555 1_555
C3B C7B 1_555 1_555
C3B C13B 1_555 1_555
C4B C6B 1_555 1_555
C5B C6B 1_555 1_555
C5B C8B 1_555 1_555
C10B C11B 1_555 1_555
C10B C12B 1_555 1_555
C17B C18B 1_555 1_555

#END
