
#######################################################################
#
#                 Cambridge Crystallographic Data Centre
#                                CCDC 
#
#######################################################################
#
# If this CIF has been generated from an entry in the Cambridge 
# Structural Database, then it will include bibliographic, chemical, 
# crystal, experimental, refinement or atomic coordinate data resulting 
# from the CCDC's data processing and validation procedures.
#
#######################################################################

data_OSEVUE
_symmetry_cell_setting           monoclinic
_symmetry_space_group_name_H-M   'P 21/c'
_symmetry_Int_Tables_number      14
_space_group_name_Hall           '-P 2ybc'
loop_
_symmetry_equiv_pos_site_id
_symmetry_equiv_pos_as_xyz
1 x,y,z
2 -x,1/2+y,1/2-z
3 -x,-y,-z
4 x,1/2-y,1/2+z
_cell_length_a                   13.366(3)
_cell_length_b                   10.790(2)
_cell_length_c                   12.769(2)
_cell_angle_alpha                90
_cell_angle_beta                 93.432(4)
_cell_angle_gamma                90
_cell_volume                     1838.23
loop_
_atom_site_label
_atom_site_type_symbol
_atom_site_fract_x
_atom_site_fract_y
_atom_site_fract_z
Ag1 Ag -0.96528(3) 0.63953(5) 0.56714(4)
C1 C -1.1493(3) 0.7416(5) 0.4338(3)
H1 H -1.1049 0.7428 0.3805
C2 C -1.2470(3) 0.7770(5) 0.4114(3)
H2 H -1.2673 0.8034 0.3441
C3 C -1.3154(3) 0.7734(3) 0.4888(3)
C4 C -1.2808(3) 0.7373(4) 0.5879(3)
H3 H -1.3237 0.7349 0.6426
C5 C -1.1817(3) 0.7050(4) 0.6045(3)
H4 H -1.1592 0.6812 0.6719
N1 N -1.1158(3) 0.7053(4) 0.5308(3)
C6 C -1.4235(3) 0.7963(4) 0.4560(3)
O1 O -1.4526(3) 0.7798(4) 0.3653(3)
C7 C -1.4965(3) 0.8369(3) 0.5340(3)
C8 C -1.5984(3) 0.8202(4) 0.5090(4)
H5 H -1.6206 0.7823 0.4464
C9 C -1.6653(3) 0.8607(4) 0.5785(5)
H6 H -1.7339 0.8516 0.5637
C10 C -1.6294(3) 0.9153(5) 0.6707(4)
H7 H -1.6732 0.9416 0.7201
C11 C -1.5259(3) 0.9303(4) 0.6888(3)
N2 N -1.4603(2) 0.8913(3) 0.6221(3)
C12 C -1.4887(3) 0.9919(4) 0.7884(3)
O2 O -1.5488(3) 1.0232(5) 0.8518(3)
C13 C -1.2103(3) 1.0663(5) 0.7822(4)
H8 H -1.1622 1.0804 0.7339
C14 C -1.3067(3) 1.0350(5) 0.7453(3)
H9 H -1.3223 1.0267 0.6736
C15 C -1.3793(3) 1.0163(4) 0.8163(3)
C16 C -1.3508(3) 1.0276(4) 0.9222(3)
H10 H -1.3975 1.0155 0.9722
C17 C -1.2535(3) 1.0565(4) 0.9528(3)
H11 H -1.2355 1.0621 1.0242
N3 N -1.1838(3) 1.0770(4) 0.8846(3)
Ag1A Ag -1.03472(3) 1.13953(5) 0.93286(4)
N3A N -0.8162(3) 0.5770(4) 0.6154(3)
B1 B -1.0845(6) 0.3757(8) 0.7186(6)
F1 F -1.0224(6) 0.3015(8) 0.7594(6)
F2 F -1.0524(7) 0.4306(7) 0.6454(6)
F3 F -1.1510(12) 0.3058(15) 0.6540(12)
F5 F -1.1438(7) 0.4057(14) 0.7810(11)
O3 O -1.0397(9) 0.4745(11) 1.0194(9)
F4? F -1.0591(17) 0.4940(17) 0.7630(17)
O4? O -1.0996(15) 0.4115(18) 1.0360(15)
loop_
_geom_bond_atom_site_label_1
_geom_bond_atom_site_label_2
_geom_bond_site_symmetry_1
_geom_bond_site_symmetry_2
Ag1 N1 1_555 1_555
C1 H1 1_555 1_555
C2 C1 1_555 1_555
H2 C2 1_555 1_555
C3 C2 1_555 1_555
C4 C3 1_555 1_555
H3 C4 1_555 1_555
C5 C4 1_555 1_555
H4 C5 1_555 1_555
N1 C1 1_555 1_555
C6 C3 1_555 1_555
O1 C6 1_555 1_555
C7 C6 1_555 1_555
C8 C7 1_555 1_555
H5 C8 1_555 1_555
C9 C8 1_555 1_555
H6 C9 1_555 1_555
C10 C9 1_555 1_555
H7 C10 1_555 1_555
C11 C10 1_555 1_555
N2 C7 1_555 1_555
C12 C11 1_555 1_555
O2 C12 1_555 1_555
C13 H8 1_555 1_555
C14 C13 1_555 1_555
H9 C14 1_555 1_555
C15 C12 1_555 1_555
C16 C15 1_555 1_555
H10 C16 1_555 1_555
C17 C16 1_555 1_555
H11 C17 1_555 1_555
N3 C13 1_555 1_555
B1 F1 1_555 1_555
F2 B1 1_555 1_555
F3 B1 1_555 1_555
F5 B1 1_555 1_555
Ag1A N3 1_555 1_555
N3A Ag1 1_555 1_555
C5 N1 1_555 1_555
C11 N2 1_555 1_555
C14 C15 1_555 1_555
C17 N3 1_555 1_555

#END
