
#######################################################################
#
#                 Cambridge Crystallographic Data Centre
#                                CCDC 
#
#######################################################################
#
# If this CIF has been generated from an entry in the Cambridge 
# Structural Database, then it will include bibliographic, chemical, 
# crystal, experimental, refinement or atomic coordinate data resulting 
# from the CCDC's data processing and validation procedures.
#
#######################################################################

data_OSIBOI03
_symmetry_cell_setting           monoclinic
_symmetry_space_group_name_H-M   'P 21/c'
_symmetry_Int_Tables_number      14
_space_group_name_Hall           '-P 2ybc'
loop_
_symmetry_equiv_pos_site_id
_symmetry_equiv_pos_as_xyz
1 x,y,z
2 -x,1/2+y,1/2-z
3 -x,-y,-z
4 x,1/2-y,1/2+z
_cell_length_a                   11.4295(14)
_cell_length_b                   5.1454(6)
_cell_length_c                   16.0003(19)
_cell_angle_alpha                90
_cell_angle_beta                 108.084(3)
_cell_angle_gamma                90
_cell_volume                     894.486
loop_
_atom_site_label
_atom_site_type_symbol
_atom_site_fract_x
_atom_site_fract_y
_atom_site_fract_z
V1 V -0.0401(2) 0.2691(4) 0.54427(14)
C1 C 0.1726(13) 0.624(3) 0.6471(8)
C2 C 0.3405(13) 0.887(3) 0.7251(12)
H1 H 0.3930 1.0238 0.7239
C3 C 0.2825(14) 0.560(3) 0.8043(9)
H2 H 0.2924 0.4699 0.8566
C4 C 0.2511(13) 0.826(3) 0.6497(9)
C5 C 0.1849(13) 0.480(3) 0.7270(10)
C6 C 0.3589(13) 0.755(3) 0.8046(13)
C7 C 0.1066(17) 0.269(3) 0.7333(11)
H3 H 0.1049 0.2266 0.7894
C8 C 0.2363(13) 1.007(3) 0.5693(9)
H4 H 0.2725 1.1742 0.5902
H5 H 0.2821 0.9327 0.5331
O1 O 0.0793(8) 0.5590(14) 0.5750(5)
O2 O 0.0406(9) 0.136(2) 0.6717(7)
O3 O 0.1128(8) 1.0451(16) 0.5164(6)
O4 O -0.1557(8) 0.392(2) 0.5697(6)
C9 C 0.4509(13) 0.834(4) 0.8930(11)
H6 H 0.4159 0.9700 0.9189
H7 H 0.5253 0.8958 0.8838
H8 H 0.4691 0.6868 0.9316
V1B V 0.0401(2) 0.7309(4) 0.45573(14)
V1_2 V -0.0401(2) 1.2691(4) 0.54427(14)
O1B O -0.0793(8) 0.4410(14) 0.4250(5)
O3_2 O 0.1128(8) 0.0451(16) 0.5164(6)
O3B O -0.1128(8) -0.0451(16) 0.4836(6)
loop_
_geom_bond_atom_site_label_1
_geom_bond_atom_site_label_2
_geom_bond_site_symmetry_1
_geom_bond_site_symmetry_2
V1 O1 1_555 1_555
C1 C4 1_555 1_555
C2 H1 1_555 1_555
C3 H2 1_555 1_555
C4 C2 1_555 1_555
C5 C1 1_555 1_555
C6 C2 1_555 1_555
C7 C5 1_555 1_555
H3 C7 1_555 1_555
C8 C4 1_555 1_555
H4 C8 1_555 1_555
H5 C8 1_555 1_555
O1 C1 1_555 1_555
O2 V1 1_555 1_555
O3 C8 1_555 1_555
O4 V1 1_555 1_555
C9 C6 1_555 1_555
H6 C9 1_555 1_555
H7 C9 1_555 1_555
H8 C9 1_555 1_555
V1B O1 1_555 1_555
V1_2 O3 1_555 1_555
O1B V1 1_555 1_555
O3_2 V1 1_555 1_555
O3B V1 1_555 1_555
C3 C5 1_555 1_555
C3 C6 1_555 1_555
C7 O2 1_555 1_555
O3 V1B 1_555 1_555
V1B O1B 1_555 1_555

#END
