
#######################################################################
#
#                 Cambridge Crystallographic Data Centre
#                                CCDC 
#
#######################################################################
#
# If this CIF has been generated from an entry in the Cambridge 
# Structural Database, then it will include bibliographic, chemical, 
# crystal, experimental, refinement or atomic coordinate data resulting 
# from the CCDC's data processing and validation procedures.
#
#######################################################################

data_OSIKOR
_symmetry_cell_setting           orthorhombic
_symmetry_space_group_name_H-M   'P c c n'
_symmetry_Int_Tables_number      56
_space_group_name_Hall           '-P 2ab 2ac'
loop_
_symmetry_equiv_pos_site_id
_symmetry_equiv_pos_as_xyz
1 x,y,z
2 1/2-x,1/2-y,z
3 -x,1/2+y,1/2-z
4 1/2+x,-y,1/2-z
5 -x,-y,-z
6 1/2+x,1/2+y,-z
7 x,1/2-y,1/2+z
8 1/2-x,y,1/2+z
_cell_length_a                   22.941(2)
_cell_length_b                   10.7465(12)
_cell_length_c                   22.010(2)
_cell_angle_alpha                90
_cell_angle_beta                 90
_cell_angle_gamma                90
_cell_volume                     5426.25
loop_
_atom_site_label
_atom_site_type_symbol
_atom_site_fract_x
_atom_site_fract_y
_atom_site_fract_z
C10 C 0.96906(16) 0.4473(4) 0.45996(18)
H7 H 0.9399 0.4434 0.4294
C11 C 1.0004(4) 0.3410(10) 0.4768(3)
H8 H 0.9918 0.2629 0.4587
C12 C 0.9464(4) 0.5390(17) 0.4508(4)
H9 H 0.9182 0.5384 0.4192
H10 H 0.9672 0.3568 0.4475
C13 C 0.9819(3) 0.5580(8) 0.4890(3)
N1 N 1.0528(8) 0.3303(16) 0.5308(8)
O1 O 1.0414(5) 0.2345(6) 0.4999(4)
O2 O 0.9148(3) 0.6601(7) 0.4294(5)
C10D C 1.03094(16) 0.5527(4) 0.54004(18)
H7D H 1.0601 0.5566 0.5706
C11D C 0.9996(4) 0.6590(10) 0.5232(3)
H8D H 1.0082 0.7371 0.5413
C12D C 1.0536(4) 0.4610(17) 0.5492(4)
H9D H 1.0818 0.4616 0.5808
H10D H 1.0328 0.6432 0.5525
C13D C 1.0181(3) 0.4420(8) 0.5110(3)
N1D N 0.9472(8) 0.6697(16) 0.4692(8)
O1D O 0.9586(5) 0.7655(6) 0.5001(4)
O2D O 1.0852(3) 0.3399(7) 0.5706(5)
Zn1 Zn 0.012035(12) 0.78904(3) 0.268249(13)
Br1 Br -0.021063(13) 0.90830(3) 0.351880(13)
Br2 Br 0.074483(12) 0.88492(3) 0.196790(14)
C14 C 0.34320(10) 0.3395(2) 0.34514(11)
C15 C 0.29146(9) 0.3753(2) 0.38178(10)
C16 C 0.20072(9) 0.4522(2) 0.38723(10)
C17 C 0.14900(9) 0.5077(2) 0.35706(10)
C18 C 0.25066(10) 0.4127(2) 0.47313(10)
C19 C 0.25505(10) 0.4161(2) 0.54018(10)
C20 C 0.44268(10) 0.2782(3) 0.33923(11)
H11 H 0.4782 0.2581 0.3592
C21 C 0.39506(10) 0.3102(2) 0.37417(11)
H12 H 0.3977 0.3121 0.4172
C22 C 0.39108(10) 0.3047(2) 0.25078(11)
H13 H 0.3899 0.3044 0.2076
C23 C 0.21030(10) 0.4649(2) 0.57551(11)
H14 H 0.1756 0.4948 0.5571
C24 C 0.30503(10) 0.3748(2) 0.56983(11)
H15 H 0.3368 0.3411 0.5475
C25 C 0.14539(10) 0.5151(2) 0.29389(11)
H16 H 0.1729 0.4735 0.2688
C26 C 0.21712(11) 0.4692(3) 0.63764(11)
H17 H 0.1862 0.5030 0.6611
C27 C 0.34118(10) 0.3367(2) 0.28236(11)
H18 H 0.3062 0.3564 0.2613
C28 C 0.10611(10) 0.5639(2) 0.39175(11)
H19 H 0.1061 0.5554 0.4347
C29 C 0.30749(11) 0.3837(3) 0.63248(12)
H20 H 0.3420 0.3560 0.6522
C30 C 0.10069(10) 0.5844(2) 0.26868(11)
H21 H 0.0979 0.5893 0.2257
C31 C 0.06338(10) 0.6325(2) 0.36298(11)
H22 H 0.0344 0.6723 0.3870
N2 N 0.06119(8) 0.64511(19) 0.30244(9)
N3 N 0.24391(8) 0.41225(18) 0.35169(9)
N4 N 0.29707(8) 0.37171(18) 0.44208(9)
N5 N 0.20134(8) 0.45420(18) 0.44789(9)
N6 N 0.26459(10) 0.4288(2) 0.66710(10)
N7 N 0.44108(8) 0.27415(19) 0.27859(9)
Zn1C Zn 0.512035(12) 0.21096(3) 0.231751(13)
N7C N -0.05892(8) 0.72585(19) 0.22141(9)
C1 C 0.10766(18) 0.8756(4) 0.5025(3)
H1 H 0.0701 0.9129 0.5027
C2 C 0.13398(18) 0.8396(4) 0.5571(2)
H2 H 0.1136 0.8496 0.5943
C3 C 0.18864(17) 0.7903(3) 0.55711(19)
H3 H 0.2058 0.7663 0.5946
C4 C 0.19709(16) 0.8103(3) 0.33372(18)
H4 H 0.1606 0.8522 0.3330
C5 C 0.22249(13) 0.7793(3) 0.39038(15)
C6 C 0.19300(13) 0.8052(3) 0.44727(17)
C7 C 0.22030(14) 0.7739(3) 0.50299(15)
C8 C 0.13629(15) 0.8568(3) 0.4489(2)
H5 H 0.1177 0.8789 0.4119
C9 C 0.22373(16) 0.7813(4) 0.28010(18)
H6 H 0.2061 0.8044 0.2427
C1A C 0.39234(18) 0.6244(4) 0.5025(3)
H1A H 0.4299 0.5871 0.5027
C2A C 0.36602(18) 0.6604(4) 0.5571(2)
H2A H 0.3864 0.6504 0.5943
C3A C 0.31136(17) 0.7097(3) 0.55711(19)
H3A H 0.2942 0.7337 0.5946
C4A C 0.30291(16) 0.6897(3) 0.33372(18)
H4A H 0.3394 0.6478 0.3330
C5A C 0.27751(13) 0.7207(3) 0.39038(15)
C6A C 0.30700(13) 0.6948(3) 0.44727(17)
C7A C 0.27970(14) 0.7261(3) 0.50299(15)
C8A C 0.36371(15) 0.6432(3) 0.4489(2)
H5A H 0.3823 0.6211 0.4119
C9A C 0.27627(16) 0.7187(4) 0.28010(18)
H6A H 0.2939 0.6956 0.2427
C32? C 1.0404(9) 0.350(3) 0.5165(10)
H23? H 1.0629 0.2775 0.5250
C33? C 1.0243(6) 0.5660(18) 0.5334(6)
loop_
_geom_bond_atom_site_label_1
_geom_bond_atom_site_label_2
_geom_bond_site_symmetry_1
_geom_bond_site_symmetry_2
C1 H1 1_555 1_555
C2 C1 1_555 1_555
H2 C2 1_555 1_555
C3 C2 1_555 1_555
H3 C3 1_555 1_555
C4 H4 1_555 1_555
C5 C4 1_555 1_555
C6 C5 1_555 1_555
C7 C3 1_555 1_555
C8 C1 1_555 1_555
H5 C8 1_555 1_555
C9 C4 1_555 1_555
H6 C9 1_555 1_555
C10 H7 1_555 1_555
H7 C12 1_555 1_555
C11 C10 1_555 1_555
H8 C11 1_555 1_555
C12 C10 1_555 1_555
H9 C12 1_555 1_555
H10 C10 1_555 1_555
C13 C10 1_555 1_555
N1 C11 1_555 1_555
O1 C11 1_555 1_555
O2 C12 1_555 1_555
Zn1 Br1 1_555 1_555
Br2 Zn1 1_555 1_555
C14 C15 1_555 1_555
C15 N3 1_555 1_555
C16 C17 1_555 1_555
C17 C25 1_555 1_555
C18 C19 1_555 1_555
C19 C23 1_555 1_555
C20 H11 1_555 1_555
C21 C14 1_555 1_555
H12 C21 1_555 1_555
C22 H13 1_555 1_555
C23 H14 1_555 1_555
C24 C19 1_555 1_555
H15 C24 1_555 1_555
C25 H16 1_555 1_555
C26 C23 1_555 1_555
H17 C26 1_555 1_555
C27 C14 1_555 1_555
H18 C27 1_555 1_555
C28 C17 1_555 1_555
H19 C28 1_555 1_555
C29 C24 1_555 1_555
H20 C29 1_555 1_555
C30 C25 1_555 1_555
H21 C30 1_555 1_555
C31 C28 1_555 1_555
H22 C31 1_555 1_555
N2 Zn1 1_555 1_555
N3 C16 1_555 1_555
N4 C15 1_555 1_555
N5 C16 1_555 1_555
N6 C26 1_555 1_555
N7 C20 1_555 1_555
C1A H1A 1_555 1_555
C2A C1A 1_555 1_555
H2A C2A 1_555 1_555
C3A C2A 1_555 1_555
H3A C3A 1_555 1_555
C4A H4A 1_555 1_555
C5A C5 1_555 1_555
C6A C5A 1_555 1_555
C7A C7 1_555 1_555
C8A C1A 1_555 1_555
H5A C8A 1_555 1_555
C9A C9 1_555 1_555
H6A C9A 1_555 1_555
C10D C13 1_555 1_555
H7D C10D 1_555 1_555
C11D C13 1_555 1_555
H8D C11D 1_555 1_555
C12D N1 1_555 1_555
H9D C12D 1_555 1_555
H10D C10D 1_555 1_555
C13D C10 1_555 1_555
N1D C12 1_555 1_555
O1D C11D 1_555 1_555
O2D N1 1_555 1_555
Zn1C N7 1_555 1_555
N7C Zn1 1_555 1_555
C6 C7 1_555 1_555
C6 C8 1_555 1_555
C11 H10 1_555 1_555
C11 C13D 1_555 1_555
C12 C13 1_555 1_555
C13 C13D 1_555 1_555
C13 N1D 1_555 1_555
N1 O1 1_555 1_555
N1 C13D 1_555 1_555
O2 N1D 1_555 1_555
C18 N4 1_555 1_555
C18 N5 1_555 1_555
C20 C21 1_555 1_555
C22 C27 1_555 1_555
C22 N7 1_555 1_555
C29 N6 1_555 1_555
C30 N2 1_555 1_555
C31 N2 1_555 1_555
C3A C7A 1_555 1_555
C4A C5A 1_555 1_555
C4A C9A 1_555 1_555
C6A C7A 1_555 1_555
C6A C8A 1_555 1_555
C10D C11D 1_555 1_555
C10D C12D 1_555 1_555
C10D C13D 1_555 1_555
H7D C12D 1_555 1_555
C11D H10D 1_555 1_555
C11D N1D 1_555 1_555
C12D C13D 1_555 1_555
C12D O2D 1_555 1_555
N1D O1D 1_555 1_555

#END
