
#######################################################################
#
#                 Cambridge Crystallographic Data Centre
#                                CCDC 
#
#######################################################################
#
# If this CIF has been generated from an entry in the Cambridge 
# Structural Database, then it will include bibliographic, chemical, 
# crystal, experimental, refinement or atomic coordinate data resulting 
# from the CCDC's data processing and validation procedures.
#
#######################################################################

data_OSIWAP
_symmetry_cell_setting           monoclinic
_symmetry_space_group_name_H-M   'C 2/c'
_symmetry_Int_Tables_number      15
_space_group_name_Hall           '-C 2yn'
loop_
_symmetry_equiv_pos_site_id
_symmetry_equiv_pos_as_xyz
1 x,y,z
2 -x,y,1/2-z
3 1/2+x,1/2+y,z
4 1/2-x,1/2+y,1/2-z
5 -x,-y,-z
6 x,-y,1/2+z
7 1/2-x,1/2-y,-z
8 1/2+x,1/2-y,1/2+z
_cell_length_a                   17.271(3)
_cell_length_b                   14.611(3)
_cell_length_c                   28.685(6)
_cell_angle_alpha                90
_cell_angle_beta                 101.700(4)
_cell_angle_gamma                90
_cell_volume                     7088.16
loop_
_atom_site_label
_atom_site_type_symbol
_atom_site_fract_x
_atom_site_fract_y
_atom_site_fract_z
Mo1 Mo -0.57340(3) -0.01371(4) -0.056631(19)
Mo2 Mo -0.46259(5) -0.22585(6) -0.00063(3)
Mo3 Mo -0.36051(4) -0.07434(6) -0.05522(3)
Mo4 Mo -0.39670(4) 0.14938(6) -0.05385(2)
O1 O -0.9403(3) 0.0811(4) -0.1075(2)
O2 O -0.9085(3) -0.1161(4) -0.13430(19)
O3 O -0.8532(3) 0.2071(4) -0.17388(19)
N1 N -0.9834(3) -0.2112(4) -0.1907(2)
O4 O -0.4762(3) 0.0125(4) -0.0652(2)
O5 O -1.1968(3) -0.1154(4) -0.28959(17)
O6 O -0.5007(4) -0.1999(4) 0.05471(19)
N2 N -1.0445(3) 0.1729(4) -0.1433(2)
C1 C -1.0517(4) -0.0610(5) -0.1075(2)
H1 H -1.0018 -0.0595 -0.0834
H2 H -1.0941 -0.0820 -0.0914
C2 C -0.9726(4) -0.1484(5) -0.1543(2)
C3 C -1.0114(4) 0.0937(5) -0.1242(2)
O7 O -1.2332(4) 0.0855(4) -0.26504(18)
N3 N -0.9798(4) 0.2674(4) -0.1927(2)
N4 N -1.1858(4) 0.0307(4) -0.1890(2)
N5 N -1.1611(3) -0.1265(4) -0.20752(19)
N6 N -0.9030(4) 0.2763(4) -0.2461(2)
C4 C -1.2182(4) -0.0593(5) -0.1985(3)
H3 H -1.2402 -0.0797 -0.1710
H4 H -1.2623 -0.0564 -0.2266
N7 N -1.0435(4) -0.1270(4) -0.1443(2)
N8 N -1.0697(3) 0.0298(4) -0.1250(2)
C5 C -0.9065(5) 0.2457(5) -0.2016(3)
N9 N -1.1023(4) -0.2166(4) -0.2518(2)
O8 O -0.3954(4) 0.1517(6) -0.1123(3)
N10 N -1.1625(4) 0.1756(5) -0.2053(2)
C6 C -1.0644(4) -0.2436(5) -0.2032(2)
C7 C -1.1087(4) -0.1810(5) -0.1722(2)
C8 C -1.1559(4) -0.1488(5) -0.2530(2)
O9 O -0.4354(4) -0.1688(5) -0.0542(2)
C9 C -1.1971(4) 0.0964(5) -0.2245(3)
O10 O -0.6064(3) 0.0765(4) -0.0248(2)
O11 O -0.6364(3) -0.0263(4) -0.11118(19)
O12 O -0.2730(4) -0.1252(6) -0.0308(3)
C10 C -0.9151(4) -0.2529(5) -0.2050(2)
H5 H -0.9245 -0.3195 -0.2090
H6 H -0.8682 -0.2442 -0.1791
O13 O -0.5708(4) -0.1171(4) -0.0229(2)
C11 C -0.9969(4) 0.2525(5) -0.1458(2)
H7 H -1.0246 0.3069 -0.1368
H8 H -0.9464 0.2462 -0.1225
C12 C -1.1484(4) 0.0679(6) -0.1422(2)
C13 C -1.1558(5) -0.2321(7) -0.1404(3)
H9 H -1.1983 -0.2673 -0.1603
H10 H -1.1206 -0.2737 -0.1192
H11 H -1.1787 -0.1878 -0.1214
C14 C -1.0709(5) -0.3472(5) -0.1969(3)
H12 H -1.0533 -0.3629 -0.1632
H13 H -1.1261 -0.3662 -0.2077
H14 H -1.0376 -0.3787 -0.2157
O14 O -0.5258(6) -0.3102(5) -0.0277(3)
C15 C -1.1306(4) 0.1702(5) -0.1545(3)
C16 C -1.2010(5) 0.0541(8) -0.1064(3)
H15 H -1.1763 0.0825 -0.0761
H16 H -1.2526 0.0825 -0.1184
H17 H -1.2080 -0.0115 -0.1016
O15 O -0.3290(3) 0.0468(5) -0.0345(2)
O16 O -0.3379(5) 0.2360(6) -0.0299(4)
Na1 Na -0.8450(3) 0.0837(3) -0.03014(13)
K1 K -0.80087(11) 0.02118(13) -0.14693(6)
O17 O -0.7734(4) 0.1684(5) -0.0779(2)
O18 O -0.7913(5) -0.0656(7) -0.0514(3)
O19 O -0.3624(5) -0.0733(6) -0.1144(2)
C17 C -1.1674(4) 0.2575(5) -0.2342(2)
H18 H -1.2136 0.2520 -0.2609
H19 H -1.1769 0.3105 -0.2146
O20 O -0.3776(5) -0.2835(7) 0.0236(3)
C18 C -1.1671(5) 0.2417(6) -0.1273(3)
H20 H -1.2246 0.2425 -0.1389
H21 H -1.1551 0.2270 -0.0933
H22 H -1.1453 0.3021 -0.1323
C19 C -1.0262(4) 0.3225(5) -0.2302(3)
C20 C -1.0441(7) 0.4178(6) -0.2125(4)
H23 H -0.9950 0.4531 -0.2044
H24 H -1.0815 0.4496 -0.2375
H25 H -1.0674 0.4115 -0.1842
O21 O -0.9319(11) -0.0171(13) 0.0008(7)
Mo1D Mo -0.42660(3) 0.01371(4) 0.056631(19)
Mo2D Mo -0.53741(5) 0.22585(6) 0.00063(3)
Mo2B Mo -0.96259(5) 0.27415(6) -0.00063(3)
Mo3D Mo -0.63949(4) 0.07434(6) 0.05522(3)
Mo4D Mo -0.60330(4) -0.14938(6) 0.05385(2)
O1A O -1.0597(3) 0.0811(4) -0.3925(2)
O2A O -1.0915(3) -0.1161(4) -0.36570(19)
O3A O -1.1468(3) 0.2071(4) -0.32612(19)
N1A N -1.0166(3) -0.2112(4) -0.3093(2)
O4D O -0.5238(3) -0.0125(4) 0.0652(2)
O5A O -0.8032(3) -0.1154(4) -0.21041(17)
O6D O -0.4993(4) 0.1999(4) -0.05471(19)
N2A N -0.9555(3) 0.1729(4) -0.3567(2)
C1A C -0.9483(4) -0.0610(5) -0.3925(2)
H1A H -0.9982 -0.0595 -0.4166
H2A H -0.9059 -0.0820 -0.4086
C2A C -1.0274(4) -0.1484(5) -0.3457(2)
C3A C -0.9886(4) 0.0937(5) -0.3758(2)
O7A O -0.7668(4) 0.0855(4) -0.23496(18)
N3A N -1.0202(4) 0.2674(4) -0.3073(2)
N4A N -0.8142(4) 0.0307(4) -0.3110(2)
N5A N -0.8389(3) -0.1265(4) -0.29248(19)
N6A N -1.0970(4) 0.2763(4) -0.2539(2)
C4A C -0.7818(4) -0.0593(5) -0.3015(3)
H3A H -0.7598 -0.0797 -0.3290
H4A H -0.7377 -0.0564 -0.2734
N7A N -0.9565(4) -0.1270(4) -0.3557(2)
N8A N -0.9303(3) 0.0298(4) -0.3750(2)
C5A C -1.0935(5) 0.2457(5) -0.2984(3)
N9A N -0.8977(4) -0.2166(4) -0.2482(2)
O8D O -0.6046(4) -0.1517(6) 0.1123(3)
N10A N -0.8375(4) 0.1756(5) -0.2947(2)
C6A C -0.9356(4) -0.2436(5) -0.2968(2)
C7A C -0.8913(4) -0.1810(5) -0.3278(2)
C8A C -0.8441(4) -0.1488(5) -0.2470(2)
O9D O -0.5646(4) 0.1688(5) 0.0542(2)
C9A C -0.8029(4) 0.0964(5) -0.2755(3)
O10D O -0.3936(3) -0.0765(4) 0.0248(2)
O11D O -0.3636(3) 0.0263(4) 0.11118(19)
O11A O -1.3636(3) -0.0263(4) -0.38882(19)
O12D O -0.7270(4) 0.1252(6) 0.0308(3)
O12E O -1.2730(4) 0.1252(6) -0.5308(3)
C10A C -1.0849(4) -0.2529(5) -0.2950(2)
H5A H -1.0755 -0.3195 -0.2910
H6A H -1.1318 -0.2442 -0.3209
O13D O -0.4292(4) 0.1171(4) 0.0229(2)
C11A C -1.0031(4) 0.2525(5) -0.3542(2)
H7A H -0.9754 0.3069 -0.3632
H8A H -1.0536 0.2462 -0.3775
C12A C -0.8516(4) 0.0679(6) -0.3578(2)
C13A C -0.8442(5) -0.2321(7) -0.3596(3)
H9A H -0.8017 -0.2673 -0.3397
H10A H -0.8794 -0.2737 -0.3808
H11A H -0.8213 -0.1878 -0.3786
C14A C -0.9291(5) -0.3472(5) -0.3031(3)
H12A H -0.9467 -0.3629 -0.3368
H13A H -0.8739 -0.3662 -0.2923
H14A H -0.9624 -0.3787 -0.2843
O14D O -0.4742(6) 0.3102(5) 0.0277(3)
C15A C -0.8694(4) 0.1702(5) -0.3455(3)
C16A C -0.7990(5) 0.0541(8) -0.3936(3)
H15A H -0.8237 0.0825 -0.4239
H16A H -0.7474 0.0825 -0.3816
H17A H -0.7920 -0.0115 -0.3984
O15D O -0.6710(3) -0.0468(5) 0.0345(2)
O16D O -0.6621(5) -0.2360(6) 0.0299(4)
Na1A Na -1.1550(3) 0.0837(3) -0.46986(13)
Na1D Na -0.1550(3) -0.0837(3) 0.03014(13)
Na1B Na -0.3450(3) -0.4163(3) -0.03014(13)
K1A K -1.19913(11) 0.02118(13) -0.35307(6)
K1D K -0.19913(11) -0.02118(13) 0.14693(6)
O17A O -1.2266(4) 0.1684(5) -0.4221(2)
O18A O -1.2087(5) -0.0656(7) -0.4486(3)
O19D O -0.6376(5) 0.0733(6) 0.1144(2)
C17A C -0.8326(4) 0.2575(5) -0.2658(2)
H18A H -0.7864 0.2520 -0.2391
H19A H -0.8231 0.3105 -0.2854
O20B O -0.8776(5) 0.2165(7) 0.0236(3)
O20D O -0.6224(5) 0.2835(7) -0.0236(3)
O20C O -1.1224(5) 0.2165(7) -0.5236(3)
C18A C -0.8329(5) 0.2417(6) -0.3727(3)
H20A H -0.7754 0.2425 -0.3611
H21A H -0.8449 0.2270 -0.4067
H22A H -0.8547 0.3021 -0.3677
C19A C -0.9738(4) 0.3225(5) -0.2698(3)
C20A C -0.9559(7) 0.4178(6) -0.2875(4)
H23A H -1.0050 0.4531 -0.2956
H24A H -0.9185 0.4496 -0.2625
H25A H -0.9326 0.4115 -0.3158
O21A O -1.0681(11) -0.0171(13) -0.5008(7)
loop_
_geom_bond_atom_site_label_1
_geom_bond_atom_site_label_2
_geom_bond_site_symmetry_1
_geom_bond_site_symmetry_2
Mo1 O4 1_555 1_555
Mo2 O6 1_555 1_555
Mo3 O4 1_555 1_555
Mo4 O4 1_555 1_555
O1 C3 1_555 1_555
O2 C2 1_555 1_555
O3 C5 1_555 1_555
N1 C2 1_555 1_555
O5 C8 1_555 1_555
O6 Mo4D 1_555 1_555
N2 C3 1_555 1_555
C1 H1 1_555 1_555
H2 C1 1_555 1_555
C2 N7 1_555 1_555
C3 N8 1_555 1_555
O7 C9 1_555 1_555
N3 C5 1_555 1_555
N4 C4 1_555 1_555
N5 C4 1_555 1_555
N6 C5 1_555 1_555
C4 H3 1_555 1_555
H4 C4 1_555 1_555
N7 C1 1_555 1_555
N8 C1 1_555 1_555
N9 C6 1_555 1_555
O8 Mo4 1_555 1_555
N10 C9 1_555 1_555
C6 N1 1_555 1_555
C7 N5 1_555 1_555
C8 N5 1_555 1_555
O9 Mo2 1_555 1_555
C9 N4 1_555 1_555
O10 Mo1 1_555 1_555
O11 Mo1 1_555 1_555
O12 Mo3 1_555 1_555
C10 N1 1_555 1_555
H5 C10 1_555 1_555
H6 C10 1_555 1_555
O13 Mo1 1_555 1_555
C11 N2 1_555 1_555
H7 C11 1_555 1_555
H8 C11 1_555 1_555
C12 N4 1_555 1_555
C13 C7 1_555 1_555
H9 C13 1_555 1_555
H10 C13 1_555 1_555
H11 C13 1_555 1_555
C14 C6 1_555 1_555
H12 C14 1_555 1_555
H13 C14 1_555 1_555
H14 C14 1_555 1_555
O14 Mo2 1_555 1_555
C15 N2 1_555 1_555
C16 C12 1_555 1_555
H15 C16 1_555 1_555
H16 C16 1_555 1_555
H17 C16 1_555 1_555
O15 Mo3 1_555 1_555
O16 Mo4 1_555 1_555
Na1 O1 1_555 1_555
K1 O1 1_555 1_555
O17 Na1 1_555 1_555
O18 Na1 1_555 1_555
O19 Mo3 1_555 1_555
C17 N10 1_555 1_555
H18 C17 1_555 1_555
H19 C17 1_555 1_555
O20 Mo2 1_555 1_555
C18 C15 1_555 1_555
H20 C18 1_555 1_555
H21 C18 1_555 1_555
H22 C18 1_555 1_555
C19 N3 1_555 1_555
C20 C19 1_555 1_555
H23 C20 1_555 1_555
H24 C20 1_555 1_555
H25 C20 1_555 1_555
O21 Na1 1_555 1_555
Mo1D O4D 1_555 1_555
Mo2D O6D 1_555 1_555
Mo2B O20B 1_555 1_555
Mo3D O10 1_555 1_555
Mo4D O13 1_555 1_555
O1A C3A 1_555 1_555
O2A C2A 1_555 1_555
O3A C5A 1_555 1_555
N1A C2A 1_555 1_555
O4D Mo3D 1_555 1_555
O5A K1 1_555 1_555
O6D Mo4 1_555 1_555
N2A C3A 1_555 1_555
C1A H1A 1_555 1_555
H2A C1A 1_555 1_555
C2A N7A 1_555 1_555
C3A N8A 1_555 1_555
O7A K1 1_555 1_555
N3A C5A 1_555 1_555
N4A C4A 1_555 1_555
N5A C4A 1_555 1_555
N6A C17 1_555 1_555
C4A H3A 1_555 1_555
H4A C4A 1_555 1_555
N7A C1A 1_555 1_555
N8A C1A 1_555 1_555
C5A N6A 1_555 1_555
N9A C10 1_555 1_555
O8D Mo4D 1_555 1_555
N10A C9A 1_555 1_555
C6A N1A 1_555 1_555
C7A N5A 1_555 1_555
C8A O5A 1_555 1_555
O9D Mo2D 1_555 1_555
C9A O7A 1_555 1_555
O10D Mo3 1_555 1_555
O11D Mo1D 1_555 1_555
O11A K1A 1_555 1_555
O12D Na1 1_555 1_555
O12E Na1A 1_555 1_555
C10A N9 1_555 1_555
H5A C10A 1_555 1_555
H6A C10A 1_555 1_555
O13D Mo4 1_555 1_555
C11A N2A 1_555 1_555
H7A C11A 1_555 1_555
H8A C11A 1_555 1_555
C12A N4A 1_555 1_555
C13A C7A 1_555 1_555
H9A C13A 1_555 1_555
H10A C13A 1_555 1_555
H11A C13A 1_555 1_555
C14A C6A 1_555 1_555
H12A C14A 1_555 1_555
H13A C14A 1_555 1_555
H14A C14A 1_555 1_555
O14D Mo2D 1_555 1_555
C15A N2A 1_555 1_555
C16A C12A 1_555 1_555
H15A C16A 1_555 1_555
H16A C16A 1_555 1_555
H17A C16A 1_555 1_555
O15D Mo3D 1_555 1_555
O16D Mo4D 1_555 1_555
Na1A O1A 1_555 1_555
Na1D O12 1_555 1_555
Na1B O20 1_555 1_555
K1A O5 1_555 1_555
K1D O11D 1_555 1_555
O17A Na1A 1_555 1_555
O18A Na1A 1_555 1_555
O19D Mo3D 1_555 1_555
C17A N6 1_555 1_555
H18A C17A 1_555 1_555
H19A C17A 1_555 1_555
O20B Na1 1_555 1_555
O20D Mo2D 1_555 1_555
O20C Na1A 1_555 1_555
C18A C15A 1_555 1_555
H20A C18A 1_555 1_555
H21A C18A 1_555 1_555
H22A C18A 1_555 1_555
C19A N6 1_555 1_555
C20A C19A 1_555 1_555
H23A C20A 1_555 1_555
H24A C20A 1_555 1_555
H25A C20A 1_555 1_555
O21A Na1A 1_555 1_555
Mo2 O13 1_555 1_555
Mo3 O9 1_555 1_555
Mo4 O15 1_555 1_555
O2 K1 1_555 1_555
O3 K1 1_555 1_555
O7 K1A 1_555 1_555
N3 C11 1_555 1_555
N7 C7 1_555 1_555
N8 C12 1_555 1_555
N9 C8 1_555 1_555
N10 C15 1_555 1_555
C6 C7 1_555 1_555
O11 K1 1_555 1_555
C12 C15 1_555 1_555
K1 O17 1_555 1_555
K1 O18 1_555 1_555
C19 N6A 1_555 1_555
C19 C19A 1_555 1_555
Mo1D O10D 1_555 1_555
Mo1D O13D 1_555 1_555
Mo2D O13D 1_555 1_555
Mo3D O9D 1_555 1_555
Mo3D O12D 1_555 1_555
Mo4D O4D 1_555 1_555
Mo4D O15D 1_555 1_555
O1A K1A 1_555 1_555
O2A K1A 1_555 1_555
O3A K1A 1_555 1_555
N1A C10A 1_555 1_555
N3A C11A 1_555 1_555
N3A C19A 1_555 1_555
N4A C9A 1_555 1_555
N5A C8A 1_555 1_555
N7A C7A 1_555 1_555
N8A C12A 1_555 1_555
N9A C6A 1_555 1_555
N9A C8A 1_555 1_555
N10A C15A 1_555 1_555
N10A C17A 1_555 1_555
C6A C7A 1_555 1_555
C12A C15A 1_555 1_555
K1A O17A 1_555 1_555
K1A O18A 1_555 1_555

#END
