
#######################################################################
#
#                 Cambridge Crystallographic Data Centre
#                                CCDC 
#
#######################################################################
#
# If this CIF has been generated from an entry in the Cambridge 
# Structural Database, then it will include bibliographic, chemical, 
# crystal, experimental, refinement or atomic coordinate data resulting 
# from the CCDC's data processing and validation procedures.
#
#######################################################################

data_OSIXUK
_symmetry_cell_setting           orthorhombic
_symmetry_space_group_name_H-M   'P b c a'
_symmetry_Int_Tables_number      61
_space_group_name_Hall           '-P 2ac 2ab'
loop_
_symmetry_equiv_pos_site_id
_symmetry_equiv_pos_as_xyz
1 x,y,z
2 1/2-x,-y,1/2+z
3 -x,1/2+y,1/2-z
4 1/2+x,1/2-y,-z
5 -x,-y,-z
6 1/2+x,y,1/2-z
7 x,1/2-y,1/2+z
8 1/2-x,1/2+y,z
_cell_length_a                   14.7990(3)
_cell_length_b                   15.7385(3)
_cell_length_c                   19.0145(5)
_cell_angle_alpha                90
_cell_angle_beta                 90
_cell_angle_gamma                90
_cell_volume                     4428.74
loop_
_atom_site_label
_atom_site_type_symbol
_atom_site_fract_x
_atom_site_fract_y
_atom_site_fract_z
Dy1 Dy 0.44661(2) 1.027520(16) 0.218136(16)
Dy2 Dy 0.44027(2) 0.754717(18) 0.520102(16)
C1 C 0.8159(4) 0.8909(4) 0.3821(4)
C2 C 0.7141(4) 0.8916(4) 0.3778(4)
C3 C 0.6721(4) 0.9649(4) 0.3540(3)
H1 H 0.7057 1.0129 0.3427
C4 C 0.5776(4) 0.9649(4) 0.3473(3)
C5 C 0.5708(4) 0.8216(4) 0.3938(3)
C6 C 0.6651(4) 0.8206(4) 0.3963(3)
H2 H 0.6951 0.7716 0.4106
C7 C 0.7048(5) 0.6700(4) 0.2357(4)
C8 C 0.7103(4) 0.7642(4) 0.2202(3)
C9 C 0.7902(4) 0.8078(4) 0.2204(4)
H3 H 0.8437 0.7785 0.2284
C10 C 0.7932(4) 0.8941(4) 0.2089(3)
C11 C 0.6305(5) 0.8938(4) 0.1949(3)
C12 C 0.6279(4) 0.8055(4) 0.2069(3)
H4 H 0.5737 0.7756 0.2061
C13 C 0.2160(5) 0.3993(5) 0.4732(4)
C14 C 0.2147(5) 0.4950(4) 0.4602(3)
C15 C 0.1334(4) 0.5365(4) 0.4577(3)
H5 H 0.0798 0.5060 0.4622
C16 C 0.1309(5) 0.6245(4) 0.4486(4)
C17 C 0.2965(5) 0.6252(4) 0.4453(4)
C18 C 0.2964(4) 0.5380(4) 0.4546(3)
H6 H 0.3507 0.5084 0.4572
O1 O 0.5312(3) 1.0276(3) 0.3204(2)
O2 O 0.5196(3) 0.7616(2) 0.4139(2)
O3 O 0.8596(3) 0.9512(3) 0.3583(2)
O4 O 0.8498(3) 0.8267(3) 0.4115(2)
O5 O 0.5584(3) 0.9390(3) 0.1814(2)
O6 O 0.8653(3) 0.9395(3) 0.2085(2)
O7 O 0.7756(3) 0.6327(3) 0.2519(4)
O8 O 0.6294(3) 0.6347(3) 0.2314(3)
O9 O 0.3661(3) 0.6714(3) 0.4394(2)
O10 O 0.0605(3) 0.6706(3) 0.4474(2)
O11 O 0.2867(3) 0.3614(3) 0.4822(3)
O12 O 0.1381(3) 0.3638(3) 0.4750(3)
O13 O 0.5582(3) 1.1325(2) 0.1954(2)
H7 H 0.6088 1.1316 0.2164
H8 H 0.5621 1.1556 0.1551
O14 O 0.4080(3) 1.1078(3) 0.1170(3)
H9 H 0.4349 1.1548 0.1100
H10 H 0.3760 1.0930 0.0820
O15 O 0.5337(3) 0.6364(3) 0.5455(2)
H11 H 0.5174 0.6103 0.5825
H12 H 0.5885 0.6524 0.5476
O16 O 0.4050(4) 0.8248(3) 0.6270(3)
H13 H 0.4263 0.8642 0.6526
H14 H 0.3540 0.8074 0.6418
N1 N 0.5328(3) 0.8945(3) 0.3683(3)
H15 H 0.4749 0.8956 0.3653
N2 N 0.7122(4) 0.9321(3) 0.1953(3)
H16 H 0.7132 0.9855 0.1861
N3 N 0.2134(4) 0.6634(3) 0.4412(3)
H17 H 0.2130 0.7172 0.4333
Dy1B Dy 0.55339(2) 0.527520(16) 0.281864(16)
Dy1E Dy 0.94661(2) 1.027520(16) 0.281864(16)
Dy2C Dy -0.05973(2) 0.745283(18) 0.479898(16)
Dy2C_2 Dy 0.94027(2) 0.745283(18) 0.479898(16)
Dy2G Dy 0.05973(2) 0.254717(18) 0.520102(16)
O3E O 0.3596(3) 0.9512(3) 0.1417(2)
O4C O 0.3498(3) 0.6733(3) 0.5885(2)
O6E O 0.3653(3) 0.9395(3) 0.2915(2)
O8B O 0.3706(3) 1.1347(3) 0.2686(3)
O10C O 0.5605(3) 0.8294(3) 0.5526(2)
O12G O 0.3619(3) 0.8638(3) 0.4750(3)
loop_
_geom_bond_atom_site_label_1
_geom_bond_atom_site_label_2
_geom_bond_site_symmetry_1
_geom_bond_site_symmetry_2
Dy1 O1 1_555 1_555
Dy2 O2 1_555 1_555
C1 C2 1_555 1_555
C2 C3 1_555 1_555
C3 H1 1_555 1_555
C4 C3 1_555 1_555
C5 C6 1_555 1_555
C6 C2 1_555 1_555
H2 C6 1_555 1_555
C7 C8 1_555 1_555
C8 C9 1_555 1_555
C9 H3 1_555 1_555
C10 C9 1_555 1_555
C11 C12 1_555 1_555
C12 C8 1_555 1_555
H4 C12 1_555 1_555
C13 C14 1_555 1_555
C14 C15 1_555 1_555
C15 H5 1_555 1_555
C16 C15 1_555 1_555
C17 C18 1_555 1_555
C18 C14 1_555 1_555
H6 C18 1_555 1_555
O1 C4 1_555 1_555
O2 C5 1_555 1_555
O3 C1 1_555 1_555
O4 C1 1_555 1_555
O5 Dy1 1_555 1_555
O6 C10 1_555 1_555
O7 C7 1_555 1_555
O8 C7 1_555 1_555
O9 Dy2 1_555 1_555
O10 C16 1_555 1_555
O11 C13 1_555 1_555
O12 C13 1_555 1_555
O13 Dy1 1_555 1_555
H7 O13 1_555 1_555
H8 O13 1_555 1_555
O14 Dy1 1_555 1_555
H9 O14 1_555 1_555
H10 O14 1_555 1_555
O15 Dy2 1_555 1_555
H11 O15 1_555 1_555
H12 O15 1_555 1_555
O16 Dy2 1_555 1_555
H13 O16 1_555 1_555
H14 O16 1_555 1_555
N1 C4 1_555 1_555
H15 N1 1_555 1_555
N2 C10 1_555 1_555
H16 N2 1_555 1_555
N3 C16 1_555 1_555
H17 N3 1_555 1_555
Dy1B O8 1_555 1_555
Dy1E O3 1_555 1_555
Dy2C O10 1_555 1_555
Dy2C_2 O4 1_555 1_555
Dy2G O12 1_555 1_555
O3E Dy1 1_555 1_555
O4C Dy2 1_555 1_555
O6E Dy1 1_555 1_555
O8B Dy1 1_555 1_555
O10C Dy2 1_555 1_555
O12G Dy2 1_555 1_555
C5 N1 1_555 1_555
C11 O5 1_555 1_555
C11 N2 1_555 1_555
C17 O9 1_555 1_555
C17 N3 1_555 1_555
O6 Dy1E 1_555 1_555

#END
