
#######################################################################
#
#                 Cambridge Crystallographic Data Centre
#                                CCDC 
#
#######################################################################
#
# If this CIF has been generated from an entry in the Cambridge 
# Structural Database, then it will include bibliographic, chemical, 
# crystal, experimental, refinement or atomic coordinate data resulting 
# from the CCDC's data processing and validation procedures.
#
#######################################################################

data_OSIYIZ
_symmetry_cell_setting           orthorhombic
_symmetry_space_group_name_H-M   'P b c a'
_symmetry_Int_Tables_number      61
_space_group_name_Hall           '-P 2ac 2ab'
loop_
_symmetry_equiv_pos_site_id
_symmetry_equiv_pos_as_xyz
1 x,y,z
2 1/2-x,-y,1/2+z
3 -x,1/2+y,1/2-z
4 1/2+x,1/2-y,-z
5 -x,-y,-z
6 1/2+x,y,1/2-z
7 x,1/2-y,1/2+z
8 1/2-x,1/2+y,z
_cell_length_a                   14.8656(16)
_cell_length_b                   15.9425(18)
_cell_length_c                   19.175(2)
_cell_angle_alpha                90
_cell_angle_beta                 90
_cell_angle_gamma                90
_cell_volume                     4544.38
loop_
_atom_site_label
_atom_site_type_symbol
_atom_site_fract_x
_atom_site_fract_y
_atom_site_fract_z
Eu1 Eu 0.44623(3) 1.02817(3) 0.21821(2)
Eu2 Eu 0.43981(3) 0.75532(3) 0.52043(2)
C1 C 0.8144(6) 0.8904(7) 0.3829(5)
C2 C 0.7136(6) 0.8929(6) 0.3767(4)
C3 C 0.6715(6) 0.9656(6) 0.3540(4)
H1 H 0.7050 1.0131 0.3433
C4 C 0.5791(6) 0.9660(6) 0.3475(4)
C5 C 0.5715(6) 0.8237(6) 0.3933(4)
C6 C 0.6657(6) 0.8210(6) 0.3967(4)
H2 H 0.6955 0.7730 0.4117
C7 C 0.7060(7) 0.6723(6) 0.2358(5)
C8 C 0.7114(6) 0.7662(6) 0.2201(4)
C9 C 0.7901(6) 0.8096(6) 0.2203(4)
H3 H 0.8434 0.7808 0.2291
C10 C 0.7938(6) 0.8943(6) 0.2081(4)
C11 C 0.6304(7) 0.8929(7) 0.1950(4)
C12 C 0.6288(6) 0.8079(7) 0.2072(4)
H4 H 0.5748 0.7785 0.2071
C13 C 0.2165(7) 0.4021(6) 0.4737(5)
C14 C 0.2162(6) 0.4952(6) 0.4616(4)
C15 C 0.1333(6) 0.5371(6) 0.4575(4)
H5 H 0.0796 0.5075 0.4609
C16 C 0.1329(7) 0.6239(6) 0.4483(5)
C17 C 0.2953(6) 0.6253(6) 0.4439(4)
C18 C 0.2955(6) 0.5380(6) 0.4548(4)
H6 H 0.3498 0.5092 0.4573
O1 O 0.5314(3) 1.0280(4) 0.3213(3)
O2 O 0.5199(4) 0.7620(4) 0.4138(3)
O3 O 0.8576(4) 0.9515(4) 0.3587(3)
O4 O 0.8492(4) 0.8263(4) 0.4108(3)
O5 O 0.5603(5) 0.9386(4) 0.1815(3)
O6 O 0.8650(4) 0.9385(4) 0.2089(3)
O7 O 0.7753(5) 0.6351(5) 0.2547(4)
O8 O 0.6300(4) 0.6364(4) 0.2304(3)
O9 O 0.3662(4) 0.6720(4) 0.4392(3)
O10 O 0.0619(5) 0.6691(4) 0.4469(3)
O11 O 0.2874(5) 0.3633(4) 0.4829(4)
O12 O 0.1403(5) 0.3655(4) 0.4736(4)
O13 O 0.5611(5) 1.1335(4) 0.1945(3)
H7 H 0.6118 1.1327 0.2156
H8 H 0.5650 1.1567 0.1543
O14 O 0.4078(5) 1.1108(4) 0.1158(3)
H9 H 0.4347 1.1577 0.1088
H10 H 0.3758 1.0960 0.0808
O15 O 0.5349(4) 0.6351(4) 0.5465(3)
H11 H 0.5187 0.6090 0.5835
H12 H 0.5897 0.6511 0.5486
O16 O 0.4041(5) 0.8257(4) 0.6275(3)
H13 H 0.4254 0.8651 0.6531
H14 H 0.3532 0.8083 0.6423
N1 N 0.5328(4) 0.8953(4) 0.3685(3)
H15 H 0.4751 0.8965 0.3658
N2 N 0.7123(5) 0.9321(5) 0.1962(3)
H16 H 0.7127 0.9853 0.1889
N3 N 0.2137(5) 0.6636(5) 0.4404(3)
H17 H 0.2129 0.7167 0.4326
Eu1B Eu 0.55377(3) 0.52817(3) 0.28179(2)
Eu1E Eu 0.94623(3) 1.02817(3) 0.28179(2)
Eu2C Eu -0.06019(3) 0.74468(3) 0.47957(2)
Eu2C_2 Eu 0.93981(3) 0.74468(3) 0.47957(2)
Eu2G Eu 0.06019(3) 0.25532(3) 0.52043(2)
O3E O 0.3576(4) 0.9515(4) 0.1413(3)
O4C O 0.3492(4) 0.6737(4) 0.5892(3)
O6E O 0.3650(4) 0.9385(4) 0.2911(3)
O8B O 0.3700(4) 1.1364(4) 0.2696(3)
O10C O 0.5619(5) 0.8309(4) 0.5531(3)
O12G O 0.3597(5) 0.8655(4) 0.4736(4)
loop_
_geom_bond_atom_site_label_1
_geom_bond_atom_site_label_2
_geom_bond_site_symmetry_1
_geom_bond_site_symmetry_2
Eu1 O1 1_555 1_555
Eu2 O2 1_555 1_555
C1 C2 1_555 1_555
C2 C3 1_555 1_555
C3 H1 1_555 1_555
C4 C3 1_555 1_555
C5 C6 1_555 1_555
C6 C2 1_555 1_555
H2 C6 1_555 1_555
C7 C8 1_555 1_555
C8 C9 1_555 1_555
C9 H3 1_555 1_555
C10 C9 1_555 1_555
C11 C12 1_555 1_555
C12 C8 1_555 1_555
H4 C12 1_555 1_555
C13 C14 1_555 1_555
C14 C15 1_555 1_555
C15 H5 1_555 1_555
C16 C15 1_555 1_555
C17 C18 1_555 1_555
C18 C14 1_555 1_555
H6 C18 1_555 1_555
O1 C4 1_555 1_555
O2 C5 1_555 1_555
O3 C1 1_555 1_555
O4 C1 1_555 1_555
O5 Eu1 1_555 1_555
O6 C10 1_555 1_555
O7 C7 1_555 1_555
O8 C7 1_555 1_555
O9 Eu2 1_555 1_555
O10 C16 1_555 1_555
O11 C13 1_555 1_555
O12 C13 1_555 1_555
O13 Eu1 1_555 1_555
H7 O13 1_555 1_555
H8 O13 1_555 1_555
O14 Eu1 1_555 1_555
H9 O14 1_555 1_555
H10 O14 1_555 1_555
O15 Eu2 1_555 1_555
H11 O15 1_555 1_555
H12 O15 1_555 1_555
O16 Eu2 1_555 1_555
H13 O16 1_555 1_555
H14 O16 1_555 1_555
N1 C4 1_555 1_555
H15 N1 1_555 1_555
N2 C10 1_555 1_555
H16 N2 1_555 1_555
N3 C16 1_555 1_555
H17 N3 1_555 1_555
Eu1B O8 1_555 1_555
Eu1E O3 1_555 1_555
Eu2C O10 1_555 1_555
Eu2C_2 O4 1_555 1_555
Eu2G O12 1_555 1_555
O3E Eu1 1_555 1_555
O4C Eu2 1_555 1_555
O6E Eu1 1_555 1_555
O8B Eu1 1_555 1_555
O10C Eu2 1_555 1_555
O12G Eu2 1_555 1_555
C5 N1 1_555 1_555
C11 O5 1_555 1_555
C11 N2 1_555 1_555
C17 O9 1_555 1_555
C17 N3 1_555 1_555
O6 Eu1E 1_555 1_555

#END
