
#######################################################################
#
#                 Cambridge Crystallographic Data Centre
#                                CCDC 
#
#######################################################################
#
# If this CIF has been generated from an entry in the Cambridge 
# Structural Database, then it will include bibliographic, chemical, 
# crystal, experimental, refinement or atomic coordinate data resulting 
# from the CCDC's data processing and validation procedures.
#
#######################################################################

data_OSOHEK
_symmetry_cell_setting           monoclinic
_symmetry_space_group_name_H-M   'C 2/c'
_symmetry_Int_Tables_number      15
_space_group_name_Hall           '-C 2yn'
loop_
_symmetry_equiv_pos_site_id
_symmetry_equiv_pos_as_xyz
1 x,y,z
2 -x,y,1/2-z
3 1/2+x,1/2+y,z
4 1/2-x,1/2+y,1/2-z
5 -x,-y,-z
6 x,-y,1/2+z
7 1/2-x,1/2-y,-z
8 1/2+x,1/2-y,1/2+z
_cell_length_a                   24.597(5)
_cell_length_b                   8.1312(17)
_cell_length_c                   17.749(4)
_cell_angle_alpha                90
_cell_angle_beta                 95.387(3)
_cell_angle_gamma                90
_cell_volume                     3534.18
loop_
_atom_site_label
_atom_site_type_symbol
_atom_site_fract_x
_atom_site_fract_y
_atom_site_fract_z
Cu1 Cu 0.23414(2) 0.44993(7) 0.13989(3)
O1 O 0.25233(13) 0.2198(4) 0.16083(19)
O2 O 0.23333(13) 0.0206(4) 0.24148(19)
O3 O 0.20096(13) 0.6652(4) 0.12200(18)
O4 O 0.12889(13) 0.8104(4) 0.14934(19)
N1 N 0.43436(17) 0.3620(6) 0.1611(2)
N2 N 0.51239(17) 0.3861(6) 0.0998(3)
H1 H 0.5301 0.3429 0.1390
H2 H 0.5293 0.4135 0.0614
N3 N 0.43354(16) 0.4790(5) 0.0350(2)
N4 N 0.29670(15) 0.4967(5) 0.0826(2)
N5 N 0.34374(15) 0.5607(5) -0.0153(2)
H3 H 0.3481 0.6077 -0.0655
N6 N 0.16257(15) 0.3849(5) 0.1760(2)
C1 C 0.4582(2) 0.4109(6) 0.0986(3)
C2 C 0.3800(2) 0.4984(6) 0.0390(3)
C3 C 0.35145(19) 0.4584(6) 0.1000(3)
C4 C 0.3808(2) 0.3878(6) 0.1618(3)
H4 H 0.3632 0.3582 0.2040
C5 C 0.29438(19) 0.5592(6) 0.0139(3)
H5 H 0.2624 0.5982 -0.0121
C6 C 0.1781(2) 0.2627(6) 0.2360(3)
H6 H 0.1469 0.1945 0.2444
H7 H 0.1899 0.3187 0.2830
C7 C 0.2245(2) 0.1556(6) 0.2114(3)
C8 C 0.14001(19) 0.5417(6) 0.2033(3)
H8 H 0.1537 0.5603 0.2556
H9 H 0.1005 0.5349 0.2006
C9 C 0.1567(2) 0.6836(6) 0.1545(3)
C10 C 0.1249(2) 0.3085(6) 0.1155(3)
H10 H 0.0893 0.2948 0.1341
H11 H 0.1385 0.2000 0.1045
C11 C 0.1182(2) 0.4062(6) 0.0434(3)
C12 C 0.0738(2) 0.5100(6) 0.0275(3)
H12 H 0.0474 0.5184 0.0615
C13 C 0.0689(2) 0.6000(7) -0.0379(3)
H13 H 0.0392 0.6700 -0.0480
C14 C 0.1077(2) 0.5882(7) -0.0893(3)
H14 H 0.1038 0.6495 -0.1337
C15 C 0.1525(2) 0.4848(7) -0.0747(3)
H15 H 0.1789 0.4762 -0.1087
C16 C 0.1567(2) 0.3951(6) -0.0083(3)
H16 H 0.1863 0.3250 0.0020
Cu1C Cu 0.26586(2) -0.05007(7) 0.36011(3)
O2C O 0.26667(13) 0.5206(4) 0.25852(19)
O5 O 0.0000 0.6263(7) 0.2500
H17 H 0.0233 0.6940 0.2693
H17A H -0.0233 0.6940 0.2307
loop_
_geom_bond_atom_site_label_1
_geom_bond_atom_site_label_2
_geom_bond_site_symmetry_1
_geom_bond_site_symmetry_2
Cu1 O1 1_555 1_555
O1 C7 1_555 1_555
O2 C7 1_555 1_555
O3 Cu1 1_555 1_555
O4 C9 1_555 1_555
N1 C1 1_555 1_555
N2 H1 1_555 1_555
H2 N2 1_555 1_555
N3 C1 1_555 1_555
N4 Cu1 1_555 1_555
N5 H3 1_555 1_555
N6 Cu1 1_555 1_555
C1 N2 1_555 1_555
C2 N3 1_555 1_555
C3 N4 1_555 1_555
C4 N1 1_555 1_555
H4 C4 1_555 1_555
C5 N4 1_555 1_555
H5 C5 1_555 1_555
C6 N6 1_555 1_555
H6 C6 1_555 1_555
H7 C6 1_555 1_555
C7 C6 1_555 1_555
C8 N6 1_555 1_555
H8 C8 1_555 1_555
H9 C8 1_555 1_555
C9 O3 1_555 1_555
C10 N6 1_555 1_555
H10 C10 1_555 1_555
H11 C10 1_555 1_555
C11 C10 1_555 1_555
C12 C11 1_555 1_555
H12 C12 1_555 1_555
C13 C12 1_555 1_555
H13 C13 1_555 1_555
C14 C13 1_555 1_555
H14 C14 1_555 1_555
C15 C14 1_555 1_555
H15 C15 1_555 1_555
C16 C11 1_555 1_555
H16 C16 1_555 1_555
O5 H17 1_555 1_555
Cu1C O2 1_555 1_555
O2C Cu1 1_555 1_555
H17A O5 1_555 1_555
N5 C2 1_555 1_555
N5 C5 1_555 1_555
C2 C3 1_555 1_555
C3 C4 1_555 1_555
C8 C9 1_555 1_555
C15 C16 1_555 1_555

#END
