
#######################################################################
#
#                 Cambridge Crystallographic Data Centre
#                                CCDC 
#
#######################################################################
#
# If this CIF has been generated from an entry in the Cambridge 
# Structural Database, then it will include bibliographic, chemical, 
# crystal, experimental, refinement or atomic coordinate data resulting 
# from the CCDC's data processing and validation procedures.
#
#######################################################################

data_OSOMIT
_symmetry_cell_setting           triclinic
_symmetry_space_group_name_H-M   'P -1'
_symmetry_Int_Tables_number      2
_space_group_name_Hall           '-P 1'
loop_
_symmetry_equiv_pos_site_id
_symmetry_equiv_pos_as_xyz
1 x,y,z
2 -x,-y,-z
_cell_length_a                   10.721(12)
_cell_length_b                   13.018(14)
_cell_length_c                   15.183(16)
_cell_angle_alpha                95.599(9)
_cell_angle_beta                 108.010(8)
_cell_angle_gamma                104.702(12)
_cell_volume                     1913.2
loop_
_atom_site_label
_atom_site_type_symbol
_atom_site_fract_x
_atom_site_fract_y
_atom_site_fract_z
Zn1 Zn 0.41772(8) -0.07958(6) 0.34379(5)
Zn2 Zn 0.25183(9) -0.36797(7) 0.08392(6)
Zn3 Zn -0.41831(13) -0.54113(9) 0.16268(8)
O1 O 0.3406(5) -0.0723(4) 0.4508(3)
O2 O 0.2162(6) -0.4055(4) 0.1972(4)
O3 O 0.2635(5) -0.2314(4) 0.2528(3)
N1 N -0.0123(5) -0.3077(4) 0.2986(4)
N2 N 0.1914(5) -0.2902(5) 0.4165(4)
N3 N -0.1703(6) -0.2226(5) 0.3312(4)
N4 N 0.0416(6) -0.2080(4) 0.4542(4)
N5 N -0.1167(6) -0.1310(5) 0.4831(4)
C1 C 0.2207(7) -0.3637(5) 0.3528(5)
H1 H 0.1477 -0.4318 0.3342
H2 H 0.3053 -0.3778 0.3873
C2 C 0.2351(7) -0.3258(6) 0.2638(5)
C3 C -0.1282(7) -0.2786(5) 0.2730(5)
C4 C -0.0811(7) -0.1906(5) 0.4205(5)
C5 C 0.0692(7) -0.2676(5) 0.3884(4)
N6 N -0.2125(6) -0.3102(5) 0.1798(4)
C6 C -0.1561(7) -0.3445(6) 0.1097(5)
H3 H -0.0585 -0.3326 0.1410
H4 H -0.1659 -0.2983 0.0632
C7 C 0.2924(7) -0.2382(5) 0.5104(5)
H5 H 0.3632 -0.2742 0.5246
H6 H 0.2470 -0.2486 0.5565
C8 C -0.0252(8) -0.0968(6) 0.5802(5)
H7 H -0.0511 -0.0403 0.6102
H8 H 0.0672 -0.0649 0.5807
C9 C -0.2470(7) -0.1068(6) 0.4525(5)
H9 H -0.2630 -0.0895 0.3900
H10 H -0.2397 -0.0430 0.4948
O4 O 0.4311(5) -0.0695(4) 0.6046(3)
C10 C 0.3610(6) -0.1174(5) 0.5217(4)
O5 O -0.5545(5) -0.2782(5) 0.1145(4)
C11 C -0.4634(8) -0.3250(6) 0.1371(5)
C12 C -0.3239(7) -0.2609(6) 0.1477(5)
H11 H -0.3004 -0.1940 0.1918
H12 H -0.3258 -0.2417 0.0872
O6 O -0.4943(6) -0.4208(5) 0.1488(6)
C13 C -0.2203(8) -0.4610(6) 0.0584(5)
O7 O -0.1752(6) -0.4842(5) -0.0066(4)
O8 O -0.3059(7) -0.5309(5) 0.0792(5)
O9 O -0.3508(6) -0.2727(6) 0.4932(5)
C14 C -0.3693(8) -0.1969(7) 0.4496(6)
O10 O -0.4879(5) -0.1918(5) 0.4065(4)
O11 O -0.1342(7) -0.2646(5) 0.6184(5)
O12 O 0.0812(7) -0.1776(6) 0.7062(5)
C15 C -0.0218(9) -0.1839(7) 0.6397(6)
O13 O -0.5610(5) -0.6985(5) 0.0990(3)
H13 H -0.5669 -0.7649 0.0879
H14 H -0.6420 -0.6929 0.0770
N7 N -0.1471(6) 0.2795(5) -0.0034(5)
O14 O 0.4983(7) -0.0845(5) 0.2349(4)
H15 H 0.4659 -0.1427 0.1940
H16 H 0.5757 -0.0411 0.2408
N8 N -0.2749(7) -0.5319(5) 0.2884(4)
C16 C 0.0408(8) 0.2771(7) 0.1316(6)
H17 H 0.1166 0.3157 0.1843
C17 C -0.0584(8) -0.5079(6) 0.4551(5)
C18 C -0.0387(8) 0.3307(6) 0.0739(6)
H18 H -0.0151 0.4056 0.0900
C19 C -0.1616(9) -0.4604(7) 0.4525(6)
H19 H -0.1597 -0.4202 0.5072
C20 C -0.1779(9) -0.5807(7) 0.2912(6)
H20 H -0.1841 -0.6228 0.2360
C21 C 0.0956(7) 0.1055(6) 0.1664(5)
C22 C 0.0439(8) 0.0019(7) 0.1819(6)
H21 H -0.0502 -0.0330 0.1594
C23 C -0.1834(9) 0.1711(6) -0.0248(6)
H22 H -0.2602 0.1350 -0.0777
C24 C -0.2674(8) -0.4733(7) 0.3677(5)
H23 H -0.3350 -0.4400 0.3664
C25 C -0.1108(9) 0.1109(7) 0.0288(6)
H24 H -0.1385 0.0359 0.0117
C26 C 0.0051(7) 0.1645(6) 0.1092(5)
C27 C -0.0698(8) -0.5712(6) 0.3724(6)
H25 H -0.0049 -0.6068 0.3718
C28 C 0.2348(9) 0.1554(8) 0.2040(7)
H26 H 0.2719 0.2252 0.1963
C29 C 0.1357(8) -0.0477(6) 0.2316(5)
H33 H 0.1007 -0.1177 0.2400
C30 C 0.3198(9) 0.0997(7) 0.2539(7)
H34 H 0.4142 0.1335 0.2786
N9 N 0.2705(6) -0.0016(5) 0.2678(4)
Zn1A Zn 0.58228(8) 0.07958(6) 0.65621(5)
Zn1_2 Zn -0.58228(8) -0.07958(6) 0.34379(5)
Zn1A_2 Zn 1.58228(8) 0.07958(6) 0.65621(5)
Zn1A_3 Zn -0.41772(8) 0.07958(6) -0.34379(5)
Zn2A Zn 0.74817(9) 0.36797(7) 0.91608(6)
Zn2_2 Zn -0.74817(9) -0.36797(7) 0.08392(6)
Zn2A_2 Zn -0.25183(9) -0.63203(7) -0.08392(6)
Zn2A_3 Zn -0.25183(9) 0.36797(7) -0.08392(6)
Zn2A_4 Zn 1.74817(9) 0.36797(7) 0.91608(6)
Zn2_3 Zn 1.25183(9) 0.63203(7) 1.08392(6)
Zn3A Zn 1.41831(13) 0.54113(9) 0.83732(8)
Zn3A_2 Zn 0.41831(13) -0.45887(9) 0.83732(8)
O1A O 0.6594(5) 0.0723(4) 0.5492(3)
O2A O 0.7838(6) 0.4055(4) 0.8028(4)
O3A O 0.7365(5) 0.2314(4) 0.7472(3)
N1A N 1.0123(5) 0.3077(4) 0.7014(4)
N2A N 0.8086(5) 0.2902(5) 0.5835(4)
N3A N 1.1703(6) 0.2226(5) 0.6688(4)
N4A N 0.9584(6) 0.2080(4) 0.5458(4)
N5A N 1.1167(6) 0.1310(5) 0.5169(4)
C1A C 0.7793(7) 0.3637(5) 0.6472(5)
H1A H 0.8523 0.4318 0.6658
H2A H 0.6947 0.3778 0.6127
C2A C 0.7649(7) 0.3258(6) 0.7362(5)
C3A C 1.1282(7) 0.2786(5) 0.7270(5)
C4A C 1.0811(7) 0.1906(5) 0.5795(5)
C5A C 0.9308(7) 0.2676(5) 0.6116(4)
N6A N 1.2125(6) 0.3102(5) 0.8202(4)
C6A C 1.1561(7) 0.3445(6) 0.8903(5)
H3A H 1.0585 0.3326 0.8590
H4A H 1.1659 0.2983 0.9368
C7A C 0.7076(7) 0.2382(5) 0.4896(5)
H5A H 0.6368 0.2742 0.4754
H6A H 0.7530 0.2486 0.4435
C8A C 1.0252(8) 0.0968(6) 0.4198(5)
H7A H 1.0511 0.0403 0.3898
H8A H 0.9328 0.0649 0.4193
C9A C 1.2470(7) 0.1068(6) 0.5475(5)
H9A H 1.2630 0.0895 0.6100
H10A H 1.2397 0.0430 0.5052
O4A O 0.5689(5) 0.0695(4) 0.3954(3)
C10A C 0.6390(6) 0.1174(5) 0.4783(4)
O5A O 1.5545(5) 0.2782(5) 0.8855(4)
O5_2 O 0.4455(5) -0.2782(5) 0.1145(4)
O5A_2 O 0.5545(5) 0.2782(5) 0.8855(4)
C11A C 1.4634(8) 0.3250(6) 0.8629(5)
C12A C 1.3239(7) 0.2609(6) 0.8523(5)
H11A H 1.3004 0.1940 0.8082
H12A H 1.3258 0.2417 0.9128
O6A O 1.4943(6) 0.4208(5) 0.8512(6)
C13A C 1.2203(8) 0.4610(6) 0.9416(5)
O7A O 1.1752(6) 0.4842(5) 1.0066(4)
O7A_2 O 0.1752(6) -0.5158(5) 0.0066(4)
O7_2 O 0.8248(6) 0.5158(5) 0.9934(4)
O8A O 1.3059(7) 0.5309(5) 0.9208(5)
O9A O 1.3508(6) 0.2727(6) 0.5068(5)
C14A C 1.3693(8) 0.1969(7) 0.5504(6)
O10A O 1.4879(5) 0.1918(5) 0.5935(4)
O10_2 O 0.5121(5) -0.1918(5) 0.4065(4)
O10A_2 O 0.4879(5) 0.1918(5) 0.5935(4)
O11A O 1.1342(7) 0.2646(5) 0.3816(5)
O12A O 0.9188(7) 0.1776(6) 0.2938(5)
C15A C 1.0218(9) 0.1839(7) 0.3603(6)
O13A O 1.5610(5) 0.6985(5) 0.9010(3)
H13A H 1.5669 0.7649 0.9121
H14A H 1.6420 0.6929 0.9230
N7A N 0.1471(6) -0.2795(5) 0.0034(5)
N7_2 N 0.8529(6) 0.2795(5) 0.9966(5)
O14A O 0.5017(7) 0.0845(5) 0.7651(4)
H15A H 0.5341 0.1427 0.8060
H16A H 0.4243 0.0411 0.7592
N8A N 0.2749(7) -0.4681(5) 0.7116(4)
N8A_2 N 1.2749(7) 0.5319(5) 0.7116(4)
C16A C -0.0408(8) -0.2771(7) -0.1316(6)
H17A H -0.1166 -0.3157 -0.1843
C17A C 0.0584(8) -0.4921(6) 0.5449(5)
C18A C 0.0387(8) -0.3307(6) -0.0739(6)
H18A H 0.0151 -0.4056 -0.0900
C19A C 0.1616(9) -0.5396(7) 0.5475(6)
H19A H 0.1597 -0.5798 0.4928
C20A C 0.1779(9) -0.4193(7) 0.7088(6)
H20A H 0.1841 -0.3772 0.7640
C21A C -0.0956(7) -0.1055(6) -0.1664(5)
C22A C -0.0439(8) -0.0019(7) -0.1819(6)
H21A H 0.0502 0.0330 -0.1594
C23A C 0.1834(9) -0.1711(6) 0.0248(6)
H22A H 0.2602 -0.1350 0.0777
C24A C 0.2674(8) -0.5267(7) 0.6323(5)
H23A H 0.3350 -0.5600 0.6336
C25A C 0.1108(9) -0.1109(7) -0.0288(6)
H24A H 0.1385 -0.0359 -0.0117
C26A C -0.0051(7) -0.1645(6) -0.1092(5)
C27A C 0.0698(8) -0.4288(6) 0.6276(6)
H25A H 0.0049 -0.3932 0.6282
C28A C -0.2348(9) -0.1554(8) -0.2040(7)
H26A H -0.2719 -0.2252 -0.1963
C29A C -0.1357(8) 0.0477(6) -0.2316(5)
H33A H -0.1007 0.1177 -0.2400
C30A C -0.3198(9) -0.0997(7) -0.2539(7)
H34A H -0.4142 -0.1335 -0.2786
N9A N -0.2705(6) 0.0016(5) -0.2678(4)
N9A_2 N 0.7295(6) 0.0016(5) 0.7322(4)
O15 O -0.6030(14) -0.5592(9) 0.2576(9)
H27 H -0.6315 -0.5064 0.2425
H28 H -0.5489 -0.5407 0.3148
O16 O 0.6608(14) 0.0607(14) 0.1778(9)
H29 H 0.6450 0.1007 0.1390
H30 H 0.7473 0.0678 0.1975
O17 O -0.4802(16) -0.4257(14) 0.5672(12)
H31 H -0.4022 -0.3857 0.5716
H32 H -0.5302 -0.4414 0.5078
loop_
_geom_bond_atom_site_label_1
_geom_bond_atom_site_label_2
_geom_bond_site_symmetry_1
_geom_bond_site_symmetry_2
Zn1 O1 1_555 1_555
Zn2 O2 1_555 1_555
Zn3 O6 1_555 1_555
O1 C10 1_555 1_555
O2 C2 1_555 1_555
O3 Zn1 1_555 1_555
N1 C3 1_555 1_555
N2 C1 1_555 1_555
N3 C3 1_555 1_555
N4 C4 1_555 1_555
N5 C4 1_555 1_555
C1 H1 1_555 1_555
H2 C1 1_555 1_555
C2 O3 1_555 1_555
C3 N6 1_555 1_555
C4 N3 1_555 1_555
C5 N1 1_555 1_555
N6 C6 1_555 1_555
C6 H3 1_555 1_555
H4 C6 1_555 1_555
C7 N2 1_555 1_555
H5 C7 1_555 1_555
H6 C7 1_555 1_555
C8 N5 1_555 1_555
H7 C8 1_555 1_555
H8 C8 1_555 1_555
C9 N5 1_555 1_555
H9 C9 1_555 1_555
H10 C9 1_555 1_555
O4 C10 1_555 1_555
C10 C7 1_555 1_555
O5 C11 1_555 1_555
C11 C12 1_555 1_555
C12 N6 1_555 1_555
H11 C12 1_555 1_555
H12 C12 1_555 1_555
O6 C11 1_555 1_555
C13 C6 1_555 1_555
O7 C13 1_555 1_555
O8 Zn3 1_555 1_555
O9 C14 1_555 1_555
C14 C9 1_555 1_555
O10 C14 1_555 1_555
O11 C15 1_555 1_555
O12 C15 1_555 1_555
C15 C8 1_555 1_555
O13 Zn3 1_555 1_555
H13 O13 1_555 1_555
H14 O13 1_555 1_555
N7 C18 1_555 1_555
O14 Zn1 1_555 1_555
H15 O14 1_555 1_555
H16 O14 1_555 1_555
N8 Zn3 1_555 1_555
C16 H17 1_555 1_555
C17 C19 1_555 1_555
C18 C16 1_555 1_555
H18 C18 1_555 1_555
C19 H19 1_555 1_555
C20 N8 1_555 1_555
H20 C20 1_555 1_555
C21 C22 1_555 1_555
C22 H21 1_555 1_555
C23 N7 1_555 1_555
H22 C23 1_555 1_555
C24 N8 1_555 1_555
H23 C24 1_555 1_555
C25 C23 1_555 1_555
H24 C25 1_555 1_555
C26 C16 1_555 1_555
C27 C17 1_555 1_555
H25 C27 1_555 1_555
C28 C21 1_555 1_555
H26 C28 1_555 1_555
O15 H27 1_555 1_555
H28 O15 1_555 1_555
O16 H29 1_555 1_555
H30 O16 1_555 1_555
O17 H31 1_555 1_555
H32 O17 1_555 1_555
C29 C22 1_555 1_555
H33 C29 1_555 1_555
C30 C28 1_555 1_555
H34 C30 1_555 1_555
N9 Zn1 1_555 1_555
Zn1A O4 1_555 1_555
Zn1_2 O10 1_555 1_555
Zn1A_2 O10A 1_555 1_555
Zn1A_3 N9A 1_555 1_555
Zn2A O2A 1_555 1_555
Zn2_2 O5 1_555 1_555
Zn2A_2 O7 1_555 1_555
Zn2A_3 N7 1_555 1_555
Zn2A_4 O5A 1_555 1_555
Zn2_3 O7A 1_555 1_555
Zn3A O6A 1_555 1_555
Zn3A_2 N8A 1_555 1_555
O1A Zn1A 1_555 1_555
O2A C2A 1_555 1_555
O3A Zn1A 1_555 1_555
N1A C3A 1_555 1_555
N2A C1A 1_555 1_555
N3A C3A 1_555 1_555
N4A C4A 1_555 1_555
N5A C4A 1_555 1_555
C1A H1A 1_555 1_555
H2A C1A 1_555 1_555
C2A O3A 1_555 1_555
C3A N6A 1_555 1_555
C4A N3A 1_555 1_555
C5A N1A 1_555 1_555
N6A C6A 1_555 1_555
C6A H3A 1_555 1_555
H4A C6A 1_555 1_555
C7A N2A 1_555 1_555
H5A C7A 1_555 1_555
H6A C7A 1_555 1_555
C8A N5A 1_555 1_555
H7A C8A 1_555 1_555
H8A C8A 1_555 1_555
C9A N5A 1_555 1_555
H9A C9A 1_555 1_555
H10A C9A 1_555 1_555
O4A Zn1 1_555 1_555
C10A O1A 1_555 1_555
O5A C11A 1_555 1_555
O5_2 Zn2 1_555 1_555
O5A_2 Zn2A 1_555 1_555
C11A C12A 1_555 1_555
C12A N6A 1_555 1_555
H11A C12A 1_555 1_555
H12A C12A 1_555 1_555
O6A C11A 1_555 1_555
C13A C6A 1_555 1_555
O7A C13A 1_555 1_555
O7A_2 Zn2 1_555 1_555
O7_2 Zn2A 1_555 1_555
O8A Zn3A 1_555 1_555
O9A C14A 1_555 1_555
C14A C9A 1_555 1_555
O10A C14A 1_555 1_555
O10_2 Zn1 1_555 1_555
O10A_2 Zn1A 1_555 1_555
O11A C15A 1_555 1_555
O12A C15A 1_555 1_555
C15A C8A 1_555 1_555
O13A Zn3A 1_555 1_555
H13A O13A 1_555 1_555
H14A O13A 1_555 1_555
N7A Zn2 1_555 1_555
N7_2 Zn2A 1_555 1_555
O14A Zn1A 1_555 1_555
H15A O14A 1_555 1_555
H16A O14A 1_555 1_555
N8A C20A 1_555 1_555
N8A_2 Zn3A 1_555 1_555
C16A H17A 1_555 1_555
C17A C17 1_555 1_555
C18A N7A 1_555 1_555
H18A C18A 1_555 1_555
C19A C17A 1_555 1_555
H19A C19A 1_555 1_555
C20A H20A 1_555 1_555
C21A C22A 1_555 1_555
C22A H21A 1_555 1_555
C23A N7A 1_555 1_555
H22A C23A 1_555 1_555
C24A N8A 1_555 1_555
H23A C24A 1_555 1_555
C25A C23A 1_555 1_555
H24A C25A 1_555 1_555
C26A C16A 1_555 1_555
C27A C17A 1_555 1_555
H25A C27A 1_555 1_555
C28A C21A 1_555 1_555
H26A C28A 1_555 1_555
C29A C22A 1_555 1_555
H33A C29A 1_555 1_555
C30A C28A 1_555 1_555
H34A C30A 1_555 1_555
N9A C29A 1_555 1_555
N9A_2 Zn1A 1_555 1_555
N2 C5 1_555 1_555
N4 C5 1_555 1_555
C1 C2 1_555 1_555
C13 O8 1_555 1_555
C19 C24 1_555 1_555
C20 C27 1_555 1_555
C21 C26 1_555 1_555
C25 C26 1_555 1_555
C29 N9 1_555 1_555
C30 N9 1_555 1_555
N2A C5A 1_555 1_555
N4A C5A 1_555 1_555
C1A C2A 1_555 1_555
C7A C10A 1_555 1_555
O4A C10A 1_555 1_555
C13A O8A 1_555 1_555
C16A C18A 1_555 1_555
C19A C24A 1_555 1_555
C20A C27A 1_555 1_555
C21A C26A 1_555 1_555
C25A C26A 1_555 1_555
C30A N9A 1_555 1_555

#END
