
#######################################################################
#
#                 Cambridge Crystallographic Data Centre
#                                CCDC 
#
#######################################################################
#
# If this CIF has been generated from an entry in the Cambridge 
# Structural Database, then it will include bibliographic, chemical, 
# crystal, experimental, refinement or atomic coordinate data resulting 
# from the CCDC's data processing and validation procedures.
#
#######################################################################

data_OTAJAV
_symmetry_cell_setting           monoclinic
_symmetry_space_group_name_H-M   'P 21/c'
_symmetry_Int_Tables_number      14
_space_group_name_Hall           '-P 2ybc'
loop_
_symmetry_equiv_pos_site_id
_symmetry_equiv_pos_as_xyz
1 x,y,z
2 -x,1/2+y,1/2-z
3 -x,-y,-z
4 x,1/2-y,1/2+z
_cell_length_a                   9.0233(3)
_cell_length_b                   29.1407(9)
_cell_length_c                   11.0744(3)
_cell_angle_alpha                90
_cell_angle_beta                 91.8300(10)
_cell_angle_gamma                90
_cell_volume                     2910.48
loop_
_atom_site_label
_atom_site_type_symbol
_atom_site_fract_x
_atom_site_fract_y
_atom_site_fract_z
C1 C 0.3458(4) 0.60969(10) 0.6577(3)
C2 C 0.4531(4) 0.63740(10) 0.5879(3)
C3 C 0.5964(4) 0.64411(13) 0.6334(4)
H1 H 0.6294 0.6284 0.7023
C4 C 0.6905(4) 0.67413(13) 0.5766(4)
H2 H 0.7857 0.6789 0.6090
C5 C 0.6456(4) 0.69719(10) 0.4723(3)
C6 C 0.5045(4) 0.68796(11) 0.4239(3)
C7 C 0.4081(4) 0.65900(11) 0.4817(3)
H3 H 0.3131 0.6541 0.4493
C8 C 0.7436(4) 0.73505(11) 0.4303(3)
C9 C 0.7129(5) 0.77831(12) 0.4743(4)
H4 H 0.6290 0.7827 0.5196
C10 C 0.8048(4) 0.81514(12) 0.4522(4)
H5 H 0.7799 0.8442 0.4795
C11 C 0.9328(4) 0.80897(10) 0.3898(3)
C12 C 0.9647(4) 0.76624(11) 0.3423(3)
H6 H 1.0497 0.7618 0.2985
C13 C 0.8682(4) 0.73026(11) 0.3610(3)
C14 C 1.0353(4) 0.84855(10) 0.3714(3)
C15 C -0.0436(3) 0.51314(11) 0.6859(3)
C16 C -0.0829(4) 0.54871(13) 0.6055(3)
H7 H -0.0326 0.5765 0.6094
C17 C -0.1948(4) 0.54238(17) 0.5216(4)
H8 H -0.2218 0.5662 0.4694
C18 C -0.2700(5) 0.50014(18) 0.5134(4)
H9 H -0.3464 0.4964 0.4559
C19 C -0.2332(4) 0.46508(16) 0.5874(3)
H10 H -0.2835 0.4373 0.5801
C20 C -0.1185(4) 0.47021(12) 0.6760(3)
C21 C -0.0776(4) 0.43538(12) 0.7578(4)
H11 H -0.1222 0.4067 0.7513
C22 C 0.0264(4) 0.44336(11) 0.8460(3)
H12 H 0.0526 0.4204 0.9011
C23 C 0.0949(3) 0.48708(9) 0.8536(3)
C24 C 0.2029(3) 0.49878(9) 0.9523(3)
C25 C 0.2493(3) 0.46619(10) 1.0400(3)
H13 H 0.2092 0.4368 1.0391
C26 C 0.3530(4) 0.47823(11) 1.1255(3)
H14 H 0.3857 0.4569 1.1827
C27 C 0.4110(3) 0.52293(12) 1.1277(3)
C28 C 0.5200(4) 0.53770(14) 1.2136(3)
H15 H 0.5579 0.5171 1.2708
C29 C 0.5693(4) 0.58133(14) 1.2134(4)
H16 H 0.6411 0.5906 1.2704
C30 C 0.5134(4) 0.61273(13) 1.1281(3)
H17 H 0.5478 0.6428 1.1299
C31 C 0.4093(4) 0.60009(11) 1.0424(3)
H18 H 0.3737 0.6213 0.9859
C32 C 0.3562(3) 0.55452(10) 1.0401(3)
N1 N 0.0642(3) 0.52005(8) 0.7741(2)
N2 N 0.2525(3) 0.54162(8) 0.9535(2)
N3 N 0.4519(4) 0.70875(11) 0.3097(3)
N4 N 0.9003(4) 0.68644(10) 0.3028(4)
O1 O 0.3910(3) 0.58665(8) 0.7463(2)
O3 O 0.2092(2) 0.61181(8) 0.6308(2)
O5 O 1.1709(3) 0.84240(8) 0.3633(2)
O6 O 0.9798(3) 0.88821(7) 0.3635(3)
O7 O 0.3262(3) 0.70099(14) 0.2744(3)
O8 O 0.5378(4) 0.73047(13) 0.2509(3)
O9 O 0.8143(4) 0.65573(11) 0.3094(4)
O10 O 1.0102(4) 0.68308(12) 0.2442(5)
Co1 Co 0.17487(4) 0.581707(12) 0.80978(4)
O5C O 0.1709(3) 0.65760(8) 0.8633(2)
O6C O -0.0202(3) 0.61179(7) 0.8635(3)
Co1C Co 1.17487(4) 0.918293(12) 0.30978(4)
O2 O 0.0603(4) 0.69482(17) 0.5666(4)
H19 H 0.058(7) 0.684(3) 0.493(3)
H20 H 0.145(5) 0.710(2) 0.572(6)
O4 O 1.2857(5) 0.76673(14) 0.5120(4)
H21 H 1.305(7) 0.776(2) 0.587(2)
H22 H 1.352(6) 0.780(3) 0.468(5)
loop_
_geom_bond_atom_site_label_1
_geom_bond_atom_site_label_2
_geom_bond_site_symmetry_1
_geom_bond_site_symmetry_2
C1 C2 1_555 1_555
C2 C3 1_555 1_555
C3 H1 1_555 1_555
C4 C3 1_555 1_555
H2 C4 1_555 1_555
C5 C4 1_555 1_555
C6 C5 1_555 1_555
C7 C2 1_555 1_555
H3 C7 1_555 1_555
C8 C5 1_555 1_555
C9 C8 1_555 1_555
H4 C9 1_555 1_555
C10 C9 1_555 1_555
H5 C10 1_555 1_555
C11 C10 1_555 1_555
C12 C11 1_555 1_555
H6 C12 1_555 1_555
C13 C8 1_555 1_555
C14 C11 1_555 1_555
C15 C16 1_555 1_555
C16 H7 1_555 1_555
C17 C16 1_555 1_555
H8 C17 1_555 1_555
C18 C17 1_555 1_555
H9 C18 1_555 1_555
C19 C18 1_555 1_555
H10 C19 1_555 1_555
C20 C15 1_555 1_555
C21 C20 1_555 1_555
H11 C21 1_555 1_555
C22 C21 1_555 1_555
H12 C22 1_555 1_555
C23 C22 1_555 1_555
C24 C23 1_555 1_555
C25 C24 1_555 1_555
H13 C25 1_555 1_555
C26 C25 1_555 1_555
H14 C26 1_555 1_555
C27 C26 1_555 1_555
C28 C27 1_555 1_555
H15 C28 1_555 1_555
C29 C28 1_555 1_555
H16 C29 1_555 1_555
C30 C29 1_555 1_555
H17 C30 1_555 1_555
C31 C30 1_555 1_555
H18 C31 1_555 1_555
C32 C27 1_555 1_555
N1 C15 1_555 1_555
N2 C24 1_555 1_555
N3 C6 1_555 1_555
N4 C13 1_555 1_555
O1 C1 1_555 1_555
O2 H19 1_555 1_555
H20 O2 1_555 1_555
O3 C1 1_555 1_555
O4 H21 1_555 1_555
H22 O4 1_555 1_555
O5 C14 1_555 1_555
O6 C14 1_555 1_555
O7 N3 1_555 1_555
O8 N3 1_555 1_555
O9 N4 1_555 1_555
O10 N4 1_555 1_555
Co1 N1 1_555 1_555
O5C Co1 1_555 1_555
O6C Co1 1_555 1_555
Co1C O5 1_555 1_555
C6 C7 1_555 1_555
C12 C13 1_555 1_555
C19 C20 1_555 1_555
C23 N1 1_555 1_555
C31 C32 1_555 1_555
C32 N2 1_555 1_555
N2 Co1 1_555 1_555
O1 Co1 1_555 1_555
O3 Co1 1_555 1_555
O6 Co1C 1_555 1_555

#END
