
#######################################################################
#
#                 Cambridge Crystallographic Data Centre
#                                CCDC 
#
#######################################################################
#
# If this CIF has been generated from an entry in the Cambridge 
# Structural Database, then it will include bibliographic, chemical, 
# crystal, experimental, refinement or atomic coordinate data resulting 
# from the CCDC's data processing and validation procedures.
#
#######################################################################

data_OTAJID
_symmetry_cell_setting           orthorhombic
_symmetry_space_group_name_H-M   'P n n a'
_symmetry_Int_Tables_number      52
_space_group_name_Hall           '-P 2a 2bc'
loop_
_symmetry_equiv_pos_site_id
_symmetry_equiv_pos_as_xyz
1 x,y,z
2 1/2-x,-y,z
3 1/2-x,1/2+y,1/2-z
4 x,1/2-y,1/2-z
5 -x,-y,-z
6 1/2+x,y,-z
7 1/2+x,1/2-y,1/2+z
8 -x,1/2+y,1/2+z
_cell_length_a                   7.818(3)
_cell_length_b                   25.901(11)
_cell_length_c                   11.164(5)
_cell_angle_alpha                90
_cell_angle_beta                 90
_cell_angle_gamma                90
_cell_volume                     2260.64
loop_
_atom_site_label
_atom_site_type_symbol
_atom_site_fract_x
_atom_site_fract_y
_atom_site_fract_z
C1 C -0.0918(4) 0.43247(12) 0.5817(3)
C2 C -0.0977(4) 0.37779(12) 0.6311(3)
C3 C 0.0241(5) 0.36074(13) 0.7113(4)
H1 H 0.1107 0.3830 0.7356
C4 C 0.0191(5) 0.31081(15) 0.7561(4)
H2 H 0.1038 0.3000 0.8090
C5 C -0.1084(5) 0.27686(12) 0.7240(3)
C6 C -0.2272(5) 0.29496(15) 0.6433(4)
C7 C -0.2251(5) 0.34401(15) 0.5971(4)
H3 H -0.3090 0.3544 0.5433
C8 C 0.2030(5) 0.52382(19) 0.8741(4)
C9 C 0.1599(6) 0.5474(2) 0.9828(4)
C10 C 0.0692(8) 0.5943(2) 0.9743(6)
H4 H 0.0389 0.6119 1.0437
C11 C 0.0265(7) 0.6135(2) 0.8680(6)
H5 H -0.0335 0.6444 0.8629
C12 C 0.0720(6) 0.58712(17) 0.7653(5)
H6 H 0.0390 0.6007 0.6917
C13 C 0.2093(8) 0.5219(3) 1.0924(4)
H7 H 0.1823 0.5373 1.1653
N1 N 0.1602(4) 0.54361(11) 0.7664(3)
N2 N -0.3638(8) 0.26097(17) 0.6013(5)
O1 O 0.0051(3) 0.46351(9) 0.6311(2)
O2 O -0.1905(4) 0.44067(9) 0.4958(3)
O3 O -0.5036(9) 0.2783(2) 0.5914(8)
O4 O -0.3245(9) 0.21749(19) 0.5691(5)
Co1 Co 0.2500 0.5000 0.61624(6)
C1C C -0.0918(4) 0.06753(12) 0.9183(3)
C2C C -0.0977(4) 0.12221(12) 0.8689(3)
C3C C 0.0241(5) 0.13926(13) 0.7887(4)
H1C H 0.1107 0.1170 0.7644
C4C C 0.0191(5) 0.18919(15) 0.7439(4)
H2C H 0.1038 0.2000 0.6910
C5C C -0.1084(5) 0.22314(12) 0.7760(3)
C6C C -0.2272(5) 0.20504(15) 0.8567(4)
C7C C -0.2251(5) 0.15599(15) 0.9029(4)
H3C H -0.3090 0.1456 0.9567
C8A C 0.2970(5) 0.47618(19) 0.8741(4)
C9A C 0.3401(6) 0.4526(2) 0.9828(4)
C10A C 0.4308(8) 0.4057(2) 0.9743(6)
H4A H 0.4611 0.3881 1.0437
C11A C 0.4735(7) 0.3865(2) 0.8680(6)
H5A H 0.5335 0.3556 0.8629
C12A C 0.4280(6) 0.41288(17) 0.7653(5)
H6A H 0.4610 0.3993 0.6917
C13A C 0.2907(8) 0.4781(3) 1.0924(4)
H7A H 0.3177 0.4627 1.1653
N1A N 0.3398(4) 0.45639(11) 0.7664(3)
N2C N -0.3638(8) 0.23903(17) 0.8987(5)
O1C O 0.0051(3) 0.03649(9) 0.8689(2)
O1A O 0.4949(3) 0.53649(9) 0.6311(2)
O2C O -0.1905(4) 0.05933(9) 1.0042(3)
O2D O 0.1905(4) 0.55933(9) 0.5042(3)
O2E O 0.3095(4) 0.44067(9) 0.5042(3)
O3C O -0.5036(9) 0.2217(2) 0.9086(8)
O4C O -0.3245(9) 0.28251(19) 0.9309(5)
Co1B Co 0.2500 0.0000 0.88376(6)
Co1D Co -0.2500 0.5000 0.38376(6)
Co1F Co -0.2500 0.0000 1.11624(6)
loop_
_geom_bond_atom_site_label_1
_geom_bond_atom_site_label_2
_geom_bond_site_symmetry_1
_geom_bond_site_symmetry_2
C1 C2 1_555 1_555
C2 C3 1_555 1_555
C3 H1 1_555 1_555
C4 C3 1_555 1_555
H2 C4 1_555 1_555
C5 C4 1_555 1_555
C6 C5 1_555 1_555
C7 C2 1_555 1_555
H3 C7 1_555 1_555
C8 C9 1_555 1_555
C9 C10 1_555 1_555
C10 H4 1_555 1_555
C11 C10 1_555 1_555
H5 C11 1_555 1_555
C12 C11 1_555 1_555
H6 C12 1_555 1_555
C13 C9 1_555 1_555
H7 C13 1_555 1_555
N1 C8 1_555 1_555
N2 C6 1_555 1_555
O1 C1 1_555 1_555
O2 C1 1_555 1_555
O3 N2 1_555 1_555
O4 N2 1_555 1_555
Co1 N1 1_555 1_555
C1C C2C 1_555 1_555
C2C C3C 1_555 1_555
C3C H1C 1_555 1_555
C4C C3C 1_555 1_555
H2C C4C 1_555 1_555
C5C C5 1_555 1_555
C6C C5C 1_555 1_555
C7C C2C 1_555 1_555
H3C C7C 1_555 1_555
C8A C8 1_555 1_555
C9A C8A 1_555 1_555
C10A C9A 1_555 1_555
H4A C10A 1_555 1_555
C11A C10A 1_555 1_555
H5A C11A 1_555 1_555
C12A C11A 1_555 1_555
H6A C12A 1_555 1_555
C13A C13 1_555 1_555
H7A C13A 1_555 1_555
N1A Co1 1_555 1_555
N2C C6C 1_555 1_555
O1C C1C 1_555 1_555
O1A Co1 1_555 1_555
O2C C1C 1_555 1_555
O2D Co1 1_555 1_555
O2E Co1 1_555 1_555
O3C N2C 1_555 1_555
O4C N2C 1_555 1_555
Co1B O1C 1_555 1_555
Co1D O2 1_555 1_555
Co1F O2C 1_555 1_555
C6 C7 1_555 1_555
C12 N1 1_555 1_555
O1 Co1 1_555 1_555
C4C C5C 1_555 1_555
C6C C7C 1_555 1_555
C8A N1A 1_555 1_555
C9A C13A 1_555 1_555
C12A N1A 1_555 1_555

#END
