
#######################################################################
#
#                 Cambridge Crystallographic Data Centre
#                                CCDC 
#
#######################################################################
#
# If this CIF has been generated from an entry in the Cambridge 
# Structural Database, then it will include bibliographic, chemical, 
# crystal, experimental, refinement or atomic coordinate data resulting 
# from the CCDC's data processing and validation procedures.
#
#######################################################################

data_OTAREH
_symmetry_cell_setting           monoclinic
_symmetry_space_group_name_H-M   'P 21/c'
_symmetry_Int_Tables_number      14
_space_group_name_Hall           '-P 2ybc'
loop_
_symmetry_equiv_pos_site_id
_symmetry_equiv_pos_as_xyz
1 x,y,z
2 -x,1/2+y,1/2-z
3 -x,-y,-z
4 x,1/2-y,1/2+z
_cell_length_a                   14.253(2)
_cell_length_b                   29.965(5)
_cell_length_c                   18.340(3)
_cell_angle_alpha                90
_cell_angle_beta                 112.87
_cell_angle_gamma                90
_cell_volume                     7217.1
loop_
_atom_site_label
_atom_site_type_symbol
_atom_site_fract_x
_atom_site_fract_y
_atom_site_fract_z
C1 C -0.0594(3) 0.46731(11) 0.86059(17)
H1 H 0.0044 0.4793 0.8902
C2 C -0.2001(3) 0.43067(11) 0.8258(2)
H2 H -0.2506 0.4116 0.8277
C3 C -0.2057(3) 0.45365(13) 0.7632(2)
H3 H -0.2604 0.4545 0.7145
C4 C -0.0826(3) 0.50788(11) 0.7345(2)
H4 H -0.0170 0.5208 0.7664
H5 H -0.1318 0.5319 0.7159
C5 C -0.0752(2) 0.48364(10) 0.66395(19)
C6 C -0.1312(3) 0.49778(12) 0.5900(2)
H6 H -0.1745 0.5221 0.5823
C7 C -0.1248(3) 0.47647(12) 0.5260(2)
H7 H -0.1700 0.4851 0.4759
C8 C -0.0543(3) 0.44241(11) 0.53077(19)
C9 C 0.0032(3) 0.42843(11) 0.60869(19)
H8 H 0.0495 0.4051 0.6178
C10 C -0.0088(3) 0.44924(12) 0.6720(2)
H9 H 0.0304 0.4393 0.7228
C11 C -0.0417(3) 0.42246(11) 0.46292(18)
C12 C -0.1049(3) 0.43421(12) 0.3829(2)
H10 H -0.1560 0.4552 0.3751
C13 C -0.0954(3) 0.41718(11) 0.3194(2)
H11 H -0.1394 0.4262 0.2692
C14 C -0.0204(3) 0.38601(11) 0.3274(2)
C15 C 0.0411(3) 0.37312(11) 0.4029(2)
H12 H 0.0909 0.3517 0.4094
C16 C 0.0320(3) 0.39080(12) 0.4693(2)
H13 H 0.0759 0.3813 0.5192
C17 C -0.0196(3) 0.36727(12) 0.2498(2)
H14 H -0.0868 0.3558 0.2181
H15 H -0.0052 0.3913 0.2203
C18 C 0.0343(3) 0.28863(10) 0.24259(18)
H16 H -0.0308 0.2764 0.2241
C19 C 0.1979(3) 0.29581(12) 0.2832(2)
H17 H 0.2665 0.2889 0.2981
C20 C 0.1595(3) 0.33729(13) 0.2873(2)
H18 H 0.1959 0.3637 0.3038
C21 C -0.0545(3) 0.32312(11) 0.93198(19)
H19 H -0.0631 0.3332 0.8818
C22 C -0.0391(3) 0.27751(12) 1.0299(2)
H20 H -0.0348 0.2519 1.0597
C23 C -0.0374(3) 0.32116(12) 1.0537(2)
H21 H -0.0311 0.3306 1.1037
C24 C -0.0474(3) 0.24010(12) 0.9023(2)
H22 H -0.0101 0.2480 0.8698
H23 H -0.0119 0.2156 0.9364
C25 C -0.1520(3) 0.22515(12) 0.8501(2)
C26 C -0.1939(3) 0.24598(12) 0.7787(2)
H24 H -0.1577 0.2679 0.7649
C27 C -0.2908(3) 0.23415(11) 0.7270(2)
H25 H -0.3198 0.2485 0.6784
C28 C -0.3487(3) 0.19930(12) 0.7476(2)
C29 C -0.2915(3) 0.17630(13) 0.8105(2)
H26 H -0.3188 0.1499 0.8205
C30 C -0.1960(3) 0.18765(12) 0.8622(2)
H27 H -0.1615 0.1696 0.9056
C31 C -0.4512(3) 0.18769(11) 0.6910(2)
C32 C -0.4788(3) 0.18638(12) 0.6095(2)
H28 H -0.4299 0.1910 0.5883
C33 C -0.5794(3) 0.17818(12) 0.5597(2)
H29 H -0.5978 0.1773 0.5052
C34 C -0.6524(3) 0.17130(11) 0.5914(2)
C35 C -0.6248(3) 0.17261(12) 0.6728(2)
H30 H -0.6737 0.1680 0.6940
C36 C -0.5242(3) 0.18080(13) 0.7226(2)
H31 H -0.5058 0.1817 0.7772
C37 C -0.7682(3) 0.16613(12) 0.5385(2)
H32 H -0.7955 0.1412 0.5576
H33 H -0.8039 0.1928 0.5430
C38 C -0.8115(3) 0.18900(12) 0.3981(2)
H34 H -0.8230 0.2190 0.4048
C39 C -0.7924(3) 0.12725(13) 0.3435(2)
H35 H -0.7860 0.1069 0.3075
C40 C -0.7775(3) 0.11879(13) 0.4201(2)
H36 H -0.7638 0.0910 0.4446
C41 C -0.8621(2) 0.43337(10) 1.10443(18)
C42 C -0.7561(2) 0.45141(11) 1.13161(18)
C43 C -0.6906(3) 0.44638(11) 1.21023(19)
H37 H -0.7130 0.4323 1.2457
C44 C -0.5935(2) 0.46201(11) 1.23535(18)
H38 H -0.5496 0.4574 1.2877
C45 C -0.5572(2) 0.48520(11) 1.18395(18)
C46 C -0.6238(2) 0.48964(10) 1.10583(17)
H39 H -0.6018 0.5034 1.0698
C47 C -0.7215(2) 0.47410(11) 1.08083(18)
H40 H -0.7657 0.4788 1.0286
C48 C -0.4500(2) 0.50528(11) 1.21029(18)
C49 C -0.3843(2) 0.49591(11) 1.29790(18)
C50 C -0.4672(3) 0.55636(11) 1.1995(2)
C51 C -0.3885(2) 0.48615(10) 1.16327(18)
C52 C -0.3085(3) 0.50922(12) 1.1574(2)
H41 H -0.2943 0.5379 1.1780
C53 C -0.2489(3) 0.49056(11) 1.12163(19)
H42 H -0.1937 0.5063 1.1197
C54 C -0.2712(2) 0.44817(11) 1.08837(17)
C55 C -0.3558(3) 0.42535(12) 1.08983(19)
H43 H -0.3735 0.3977 1.0651
C56 C -0.4139(3) 0.44395(11) 1.1284(2)
H44 H -0.4691 0.4284 1.1308
C57 C -0.2086(3) 0.42670(12) 1.0470(2)
C58 C 0.9267(3) 0.17750(13) 0.1889(2)
C59 C 0.8187(3) 0.16373(13) 0.1390(2)
C60 C 0.7858(3) 0.16115(11) 0.0571(2)
H45 H 0.8302 0.1682 0.0327
C61 C 0.6866(3) 0.14802(11) 0.0117(2)
H46 H 0.6647 0.1463 -0.0430
C62 C 0.6203(3) 0.13746(11) 0.04817(19)
C63 C 0.6532(3) 0.14004(12) 0.1300(2)
H47 H 0.6088 0.1330 0.1544
C64 C 0.7523(3) 0.15317(12) 0.1754(2)
H48 H 0.7743 0.1549 0.2302
C65 C 0.5120(2) 0.11808(11) 0.00366(19)
C66 C 0.4698(3) 0.13048(12) -0.0834(2)
C67 C 0.5265(3) 0.06781(11) 0.0089(2)
C68 C 0.4355(3) 0.13569(11) 0.0373(2)
C69 C 0.3701(3) 0.10705(12) 0.0547(2)
H49 H 0.3699 0.0766 0.0452
C70 C 0.3043(2) 0.12576(11) 0.0874(2)
H50 H 0.2634 0.1066 0.1022
C71 C 0.2973(3) 0.17012(12) 0.09837(19)
C72 C 0.3610(3) 0.19718(11) 0.0762(2)
H51 H 0.3560 0.2279 0.0805
C73 C 0.4304(3) 0.18113(11) 0.0485(2)
H52 H 0.4739 0.2005 0.0373
C74 C 0.2274(3) 0.18766(13) 0.1346(2)
F1 F -0.37277(14) 0.45147(6) 1.31115(11)
F2 F -0.29149(15) 0.51269(6) 1.31950(11)
F3 F -0.42397(15) 0.51225(6) 1.34730(11)
F4 F -0.38097(15) 0.57986(6) 1.23867(11)
F5 F -0.49757(15) 0.56874(7) 1.12544(11)
F6 F -0.53418(15) 0.57086(6) 1.22914(12)
F7 F 0.47381(15) 0.17448(7) -0.09395(11)
F8 F 0.37263(16) 0.11887(7) -0.11944(11)
F9 F 0.51919(16) 0.11080(7) -0.12591(11)
F10 F 0.44224(16) 0.04602(6) -0.03845(11)
F11 F 0.59865(15) 0.05318(6) -0.01300(12)
F12 F 0.54649(15) 0.05300(6) 0.08184(11)
N1 N -0.1098(2) 0.43878(9) 0.88785(15)
N2 N -0.1145(2) 0.47619(9) 0.78390(15)
N3 N 0.0555(2) 0.33163(9) 0.26176(18)
N4 N 0.1177(2) 0.26584(9) 0.25336(18)
N5 N -0.0466(2) 0.34867(9) 0.99094(16)
N6 N -0.0484(2) 0.28008(10) 0.95354(17)
N7 N -0.7862(2) 0.15881(10) 0.45575(17)
N8 N -0.8185(2) 0.17124(10) 0.32939(18)
O1 O -0.89134(18) 0.41347(7) 1.15100(14)
O2 O -0.91786(17) 0.43967(7) 1.03159(13)
O3 O -0.12251(16) 0.44448(7) 1.06144(12)
O4 O -0.24394(19) 0.39765(8) 0.99912(14)
O5 O 0.95374(18) 0.18132(8) 0.25916(14)
O6 O 0.98166(18) 0.18749(7) 0.15153(13)
O7 O 0.19498(19) 0.16275(8) 0.16934(14)
O8 O 0.2034(2) 0.22623(9) 0.12229(16)
Zn1 Zn -0.05527(3) 0.415527(12) 0.99903(2)
Zn2 Zn 0.12149(3) 0.200668(14) 0.22297(2)
N8_2 N 0.1815(2) 0.17124(10) 0.32939(18)
O2_2 O 0.08214(17) 0.43967(7) 1.03159(13)
O6_2 O -0.01834(18) 0.18749(7) 0.15153(13)
Zn1_2 Zn -1.05527(3) 0.415527(12) 0.99903(2)
Zn2_2 Zn -0.87851(3) 0.200668(14) 0.22297(2)
Zn2_3 Zn 1.12149(3) 0.200668(14) 0.22297(2)
C75 C 0.6349(3) 0.32513(12) 0.8443(2)
H53 H 0.6649 0.3476 0.8839
H54 H 0.6026 0.3391 0.7935
H55 H 0.6870 0.3052 0.8431
C76 C 0.4430(3) 0.30056(13) 0.8177(2)
H56 H 0.4094 0.2866 0.8481
H57 H 0.4262 0.2849 0.7686
H58 H 0.4209 0.3310 0.8072
C77 C 0.5921(3) 0.27852(12) 0.9381(2)
H59 H 0.5505 0.2614 0.9556
N9 N 0.5566(2) 0.29924(10) 0.86372(18)
O9 O 0.6864(2) 0.28507(8) 0.97964(14)
loop_
_geom_bond_atom_site_label_1
_geom_bond_atom_site_label_2
_geom_bond_site_symmetry_1
_geom_bond_site_symmetry_2
C1 H1 1_555 1_555
C2 H2 1_555 1_555
C3 C2 1_555 1_555
H3 C3 1_555 1_555
C4 H4 1_555 1_555
H5 C4 1_555 1_555
C5 C4 1_555 1_555
C6 C5 1_555 1_555
H6 C6 1_555 1_555
C7 C6 1_555 1_555
H7 C7 1_555 1_555
C8 C7 1_555 1_555
C9 C8 1_555 1_555
H8 C9 1_555 1_555
C10 C5 1_555 1_555
H9 C10 1_555 1_555
C11 C8 1_555 1_555
C12 C11 1_555 1_555
H10 C12 1_555 1_555
C13 C12 1_555 1_555
H11 C13 1_555 1_555
C14 C13 1_555 1_555
C15 C14 1_555 1_555
H12 C15 1_555 1_555
C16 C11 1_555 1_555
H13 C16 1_555 1_555
C17 C14 1_555 1_555
H14 C17 1_555 1_555
H15 C17 1_555 1_555
C18 H16 1_555 1_555
C19 H17 1_555 1_555
C20 C19 1_555 1_555
H18 C20 1_555 1_555
C21 H19 1_555 1_555
C22 H20 1_555 1_555
C23 C22 1_555 1_555
H21 C23 1_555 1_555
C24 H22 1_555 1_555
H23 C24 1_555 1_555
C25 C24 1_555 1_555
C26 C25 1_555 1_555
H24 C26 1_555 1_555
C27 C26 1_555 1_555
H25 C27 1_555 1_555
C28 C27 1_555 1_555
C29 C28 1_555 1_555
H26 C29 1_555 1_555
C30 C25 1_555 1_555
H27 C30 1_555 1_555
C31 C28 1_555 1_555
C32 C31 1_555 1_555
H28 C32 1_555 1_555
C33 C32 1_555 1_555
H29 C33 1_555 1_555
C34 C33 1_555 1_555
C35 C34 1_555 1_555
H30 C35 1_555 1_555
C36 C31 1_555 1_555
H31 C36 1_555 1_555
C37 C34 1_555 1_555
H32 C37 1_555 1_555
H33 C37 1_555 1_555
C38 H34 1_555 1_555
C39 H35 1_555 1_555
C40 C39 1_555 1_555
H36 C40 1_555 1_555
C41 C42 1_555 1_555
C42 C43 1_555 1_555
C43 H37 1_555 1_555
C44 C43 1_555 1_555
H38 C44 1_555 1_555
C45 C44 1_555 1_555
C46 C45 1_555 1_555
H39 C46 1_555 1_555
C47 C42 1_555 1_555
H40 C47 1_555 1_555
C48 C45 1_555 1_555
C49 C48 1_555 1_555
C50 C48 1_555 1_555
C51 C48 1_555 1_555
C52 C51 1_555 1_555
H41 C52 1_555 1_555
C53 C52 1_555 1_555
H42 C53 1_555 1_555
C54 C53 1_555 1_555
C55 C54 1_555 1_555
H43 C55 1_555 1_555
C56 C51 1_555 1_555
H44 C56 1_555 1_555
C57 C54 1_555 1_555
C58 C59 1_555 1_555
C59 C60 1_555 1_555
C60 H45 1_555 1_555
C61 C60 1_555 1_555
H46 C61 1_555 1_555
C62 C61 1_555 1_555
C63 C62 1_555 1_555
H47 C63 1_555 1_555
C64 C59 1_555 1_555
H48 C64 1_555 1_555
C65 C62 1_555 1_555
C66 C65 1_555 1_555
C67 C65 1_555 1_555
C68 C65 1_555 1_555
C69 C68 1_555 1_555
H49 C69 1_555 1_555
C70 C69 1_555 1_555
H50 C70 1_555 1_555
C71 C70 1_555 1_555
C72 C71 1_555 1_555
H51 C72 1_555 1_555
C73 C68 1_555 1_555
H52 C73 1_555 1_555
C74 C71 1_555 1_555
C75 H53 1_555 1_555
H54 C75 1_555 1_555
H55 C75 1_555 1_555
C76 H56 1_555 1_555
H57 C76 1_555 1_555
H58 C76 1_555 1_555
C77 H59 1_555 1_555
F1 C49 1_555 1_555
F2 C49 1_555 1_555
F3 C49 1_555 1_555
F4 C50 1_555 1_555
F5 C50 1_555 1_555
F6 C50 1_555 1_555
F7 C66 1_555 1_555
F8 C66 1_555 1_555
F9 C66 1_555 1_555
F10 C67 1_555 1_555
F11 C67 1_555 1_555
F12 C67 1_555 1_555
N1 C1 1_555 1_555
N2 C1 1_555 1_555
N3 C17 1_555 1_555
N4 C18 1_555 1_555
N5 C21 1_555 1_555
N6 C21 1_555 1_555
N7 C37 1_555 1_555
N8 C38 1_555 1_555
N9 C75 1_555 1_555
O1 C41 1_555 1_555
O2 C41 1_555 1_555
O3 C57 1_555 1_555
O4 C57 1_555 1_555
O5 C58 1_555 1_555
O6 C58 1_555 1_555
O7 C74 1_555 1_555
O8 C74 1_555 1_555
O9 C77 1_555 1_555
Zn1 N1 1_555 1_555
Zn2 N4 1_555 1_555
N8_2 Zn2 1_555 1_555
O2_2 Zn1 1_555 1_555
O6_2 Zn2 1_555 1_555
Zn1_2 O2 1_555 1_555
Zn2_2 N8 1_555 1_555
Zn2_3 O6 1_555 1_555
C2 N1 1_555 1_555
C3 N2 1_555 1_555
C4 N2 1_555 1_555
C9 C10 1_555 1_555
C15 C16 1_555 1_555
C18 N3 1_555 1_555
C19 N4 1_555 1_555
C20 N3 1_555 1_555
C22 N6 1_555 1_555
C23 N5 1_555 1_555
C24 N6 1_555 1_555
C29 C30 1_555 1_555
C35 C36 1_555 1_555
C38 N7 1_555 1_555
C39 N8 1_555 1_555
C40 N7 1_555 1_555
C46 C47 1_555 1_555
C55 C56 1_555 1_555
C63 C64 1_555 1_555
C72 C73 1_555 1_555
C76 N9 1_555 1_555
C77 N9 1_555 1_555
N5 Zn1 1_555 1_555
O3 Zn1 1_555 1_555
O7 Zn2 1_555 1_555

#END
