
#######################################################################
#
#                 Cambridge Crystallographic Data Centre
#                                CCDC 
#
#######################################################################
#
# If this CIF has been generated from an entry in the Cambridge 
# Structural Database, then it will include bibliographic, chemical, 
# crystal, experimental, refinement or atomic coordinate data resulting 
# from the CCDC's data processing and validation procedures.
#
#######################################################################

data_OTATUZ
_symmetry_cell_setting           monoclinic
_symmetry_space_group_name_H-M   'P 21/n'
_symmetry_Int_Tables_number      14
_space_group_name_Hall           '-P 2yn'
loop_
_symmetry_equiv_pos_site_id
_symmetry_equiv_pos_as_xyz
1 x,y,z
2 1/2-x,1/2+y,1/2-z
3 -x,-y,-z
4 1/2+x,1/2-y,1/2+z
_cell_length_a                   12.9343(7)
_cell_length_b                   8.2555(4)
_cell_length_c                   24.1694(13)
_cell_angle_alpha                90
_cell_angle_beta                 102.5180(10)
_cell_angle_gamma                90
_cell_volume                     2519.44
loop_
_atom_site_label
_atom_site_type_symbol
_atom_site_fract_x
_atom_site_fract_y
_atom_site_fract_z
H1 H 0.967(7) 0.379(12) -0.041(4)
Tb1 Tb 0.975410(15) 0.19187(2) 0.062472(8)
O1 O 0.8764(2) 0.4232(4) 0.06504(14)
N1 N 0.7736(3) 0.4463(4) 0.04849(15)
C1 C 0.5574(3) 0.4913(6) 0.01071(19)
C2 C 0.6319(4) 0.5740(7) -0.0121(2)
H2 H 0.6085 0.6469 -0.0415
C3 C 0.7059(4) 0.3648(7) 0.0729(2)
H3 H 0.7316 0.2930 0.1023
C4 C 0.7376(4) 0.5524(7) 0.0070(2)
H4 H 0.7852 0.6114 -0.0089
C5 C 0.5996(4) 0.3865(6) 0.0548(2)
H5 H 0.5538 0.3295 0.0725
C6 C 1.1304(3) 0.3834(6) 0.13101(18)
C7 C 1.2248(4) 0.4625(6) 0.16654(18)
C8 C 1.2603(4) 0.4154(7) 0.2223(2)
H6 H 1.2219 0.3412 0.2386
C9 C 1.3543(5) 0.4802(7) 0.2538(2)
H7 H 1.3786 0.4476 0.2912
C10 C 1.2825(5) 0.5771(7) 0.1439(2)
H8 H 1.2578 0.6126 0.1069
C11 C 1.4109(5) 0.5904(8) 0.2308(2)
H9 H 1.4733 0.6328 0.2524
C12 C 1.3759(5) 0.6391(8) 0.1755(3)
H10 H 1.4149 0.7133 0.1595
C13 C 0.8027(3) 0.0126(5) -0.03047(18)
C14 C 0.6976(3) -0.0109(5) -0.06976(18)
C15 C 0.6060(4) 0.0374(7) -0.0543(2)
H11 H 0.6103 0.0869 -0.0193
C16 C 0.5017(5) -0.0582(7) -0.1423(3)
H12 H 0.4361 -0.0734 -0.1666
C17 C 0.6900(4) -0.0827(7) -0.1224(2)
H13 H 0.7511 -0.1150 -0.1338
C18 C 0.5074(4) 0.0139(8) -0.0897(2)
H14 H 0.4461 0.0459 -0.0785
C19 C 0.5912(5) -0.1068(8) -0.1584(2)
H15 H 0.5866 -0.1560 -0.1935
O2 O 1.1019(2) 0.4182(4) 0.07843(11)
O3 O 1.0817(3) 0.2768(4) 0.15196(12)
O4 O 0.8067(2) 0.1073(4) 0.01078(13)
O5 O 0.9727(3) 0.2908(4) -0.03005(14)
H16 H 1.0084 0.2381 -0.0478
O6 O 0.9796(3) -0.0717(4) 0.10476(12)
O7 O 0.8705(3) 0.0950(4) 0.13272(13)
C20 C 0.8645(5) -0.1832(6) 0.1577(2)
C21 C 0.9068(4) -0.0452(5) 0.13073(17)
O8 O 0.8825(2) -0.0592(4) -0.03944(13)
C22 C 0.9181(5) -0.3262(6) 0.1691(2)
H17 H 0.9847 -0.3374 0.1609
C23 C 0.7643(5) -0.1704(8) 0.1709(3)
H18 H 0.7270 -0.0735 0.1644
C24 C 0.8739(8) -0.4549(8) 0.1930(3)
H19 H 0.9113 -0.5515 0.2006
C25 C 0.7208(8) -0.3010(11) 0.1936(4)
H20 H 0.6532 -0.2924 0.2008
C26 C 0.7750(8) -0.4408(11) 0.2054(3)
H21 H 0.7461 -0.5269 0.2217
H1B H 0.033(7) 0.621(12) 0.041(4)
Tb1B Tb 0.024590(15) 0.80813(2) -0.062472(8)
Tb1B_2 Tb 1.024590(15) -0.19187(2) -0.062472(8)
Tb1_2 Tb -0.024590(15) 1.19187(2) 0.062472(8)
O1B O 0.1236(2) 0.5768(4) -0.06504(14)
N1B N 0.2264(3) 0.5537(4) -0.04849(15)
C1B C 0.4426(3) 0.5087(6) -0.01071(19)
C2B C 0.3681(4) 0.4260(7) 0.0121(2)
H2B H 0.3915 0.3531 0.0415
C3B C 0.2941(4) 0.6352(7) -0.0729(2)
H3B H 0.2684 0.7070 -0.1023
C4B C 0.2624(4) 0.4476(7) -0.0070(2)
H4B H 0.2148 0.3886 0.0089
C5B C 0.4004(4) 0.6135(6) -0.0548(2)
H5B H 0.4462 0.6705 -0.0725
C6B C -0.1304(3) 0.6166(6) -0.13101(18)
C7B C -0.2248(4) 0.5375(6) -0.16654(18)
C8B C -0.2603(4) 0.5846(7) -0.2223(2)
H6B H -0.2219 0.6588 -0.2386
C9B C -0.3543(5) 0.5198(7) -0.2538(2)
H7B H -0.3786 0.5524 -0.2912
C10B C -0.2825(5) 0.4229(7) -0.1439(2)
H8B H -0.2578 0.3874 -0.1069
C11B C -0.4109(5) 0.4096(8) -0.2308(2)
H9B H -0.4733 0.3672 -0.2524
C12B C -0.3759(5) 0.3609(8) -0.1755(3)
H10B H -0.4149 0.2867 -0.1595
C13B C 0.1973(3) 0.9874(5) 0.03047(18)
C14B C 0.3024(3) 1.0109(5) 0.06976(18)
C15B C 0.3940(4) 0.9626(7) 0.0543(2)
H11B H 0.3897 0.9131 0.0193
C16B C 0.4983(5) 1.0582(7) 0.1423(3)
H12B H 0.5639 1.0734 0.1666
C17B C 0.3100(4) 1.0827(7) 0.1224(2)
H13B H 0.2489 1.1150 0.1338
C18B C 0.4926(4) 0.9861(8) 0.0897(2)
H14B H 0.5539 0.9541 0.0785
C19B C 0.4088(5) 1.1068(8) 0.1584(2)
H15B H 0.4134 1.1560 0.1935
O2B O -0.1019(2) 0.5818(4) -0.07843(11)
O3B O -0.0817(3) 0.7232(4) -0.15196(12)
O4B O 0.1933(2) 0.8927(4) -0.01078(13)
O5B O 0.0273(3) 0.7092(4) 0.03005(14)
H16B H -0.0084 0.7619 0.0478
O6B O 0.0204(3) 1.0717(4) -0.10476(12)
O7B O 0.1295(3) 0.9050(4) -0.13272(13)
C20B C 0.1355(5) 1.1832(6) -0.1577(2)
C21B C 0.0932(4) 1.0452(5) -0.13073(17)
O8B O 1.1175(2) 0.0592(4) 0.03944(13)
O8_2 O -0.1175(2) 0.9408(4) -0.03944(13)
O8B_2 O 0.1175(2) 1.0592(4) 0.03944(13)
C22B C 0.0819(5) 1.3262(6) -0.1691(2)
H17B H 0.0153 1.3374 -0.1609
C23B C 0.2357(5) 1.1704(8) -0.1709(3)
H18B H 0.2730 1.0735 -0.1644
C24B C 0.1261(8) 1.4549(8) -0.1930(3)
H19B H 0.0887 1.5515 -0.2006
C25B C 0.2792(8) 1.3010(11) -0.1936(4)
H20B H 0.3468 1.2924 -0.2008
C26B C 0.2250(8) 1.4408(11) -0.2054(3)
H21B H 0.2539 1.5269 -0.2217
loop_
_geom_bond_atom_site_label_1
_geom_bond_atom_site_label_2
_geom_bond_site_symmetry_1
_geom_bond_site_symmetry_2
H1 O5 1_555 1_555
Tb1 O1 1_555 1_555
O1 N1 1_555 1_555
N1 C3 1_555 1_555
C1 C2 1_555 1_555
C2 H2 1_555 1_555
C3 H3 1_555 1_555
C4 N1 1_555 1_555
H4 C4 1_555 1_555
C5 C1 1_555 1_555
H5 C5 1_555 1_555
C6 C7 1_555 1_555
C7 C8 1_555 1_555
C8 H6 1_555 1_555
C9 C8 1_555 1_555
H7 C9 1_555 1_555
C10 C7 1_555 1_555
H8 C10 1_555 1_555
C11 C9 1_555 1_555
H9 C11 1_555 1_555
C12 C10 1_555 1_555
H10 C12 1_555 1_555
C13 C14 1_555 1_555
C14 C15 1_555 1_555
C15 H11 1_555 1_555
C16 H12 1_555 1_555
C17 C14 1_555 1_555
H13 C17 1_555 1_555
C18 C15 1_555 1_555
H14 C18 1_555 1_555
C19 C16 1_555 1_555
H15 C19 1_555 1_555
O2 Tb1 1_555 1_555
O3 Tb1 1_555 1_555
O4 Tb1 1_555 1_555
O5 Tb1 1_555 1_555
H16 O5 1_555 1_555
O6 Tb1 1_555 1_555
O7 Tb1 1_555 1_555
C20 C21 1_555 1_555
C21 O6 1_555 1_555
O8 C13 1_555 1_555
C22 C20 1_555 1_555
H17 C22 1_555 1_555
C23 C20 1_555 1_555
H18 C23 1_555 1_555
C24 C22 1_555 1_555
H19 C24 1_555 1_555
C25 C23 1_555 1_555
H20 C25 1_555 1_555
C26 C24 1_555 1_555
H21 C26 1_555 1_555
H1B O5B 1_555 1_555
Tb1B O1B 1_555 1_555
Tb1B_2 O8 1_555 1_555
Tb1_2 O8B_2 1_555 1_555
O1B N1B 1_555 1_555
N1B C3B 1_555 1_555
C1B C1 1_555 1_555
C2B C1B 1_555 1_555
H2B C2B 1_555 1_555
C3B H3B 1_555 1_555
C4B N1B 1_555 1_555
H4B C4B 1_555 1_555
C5B C1B 1_555 1_555
H5B C5B 1_555 1_555
C6B C7B 1_555 1_555
C7B C8B 1_555 1_555
C8B H6B 1_555 1_555
C9B C8B 1_555 1_555
H7B C9B 1_555 1_555
C10B C7B 1_555 1_555
H8B C10B 1_555 1_555
C11B C9B 1_555 1_555
H9B C11B 1_555 1_555
C12B C10B 1_555 1_555
H10B C12B 1_555 1_555
C13B C14B 1_555 1_555
C14B C15B 1_555 1_555
C15B H11B 1_555 1_555
C16B H12B 1_555 1_555
C17B C14B 1_555 1_555
H13B C17B 1_555 1_555
C18B C15B 1_555 1_555
H14B C18B 1_555 1_555
C19B C16B 1_555 1_555
H15B C19B 1_555 1_555
O2B Tb1B 1_555 1_555
O3B Tb1B 1_555 1_555
O4B Tb1B 1_555 1_555
O5B Tb1B 1_555 1_555
H16B O5B 1_555 1_555
O6B Tb1B 1_555 1_555
O7B Tb1B 1_555 1_555
C20B C21B 1_555 1_555
C21B O6B 1_555 1_555
O8B Tb1 1_555 1_555
O8_2 Tb1B 1_555 1_555
O8B_2 C13B 1_555 1_555
C22B C20B 1_555 1_555
H17B C22B 1_555 1_555
C23B C20B 1_555 1_555
H18B C23B 1_555 1_555
C24B C22B 1_555 1_555
H19B C24B 1_555 1_555
C25B C23B 1_555 1_555
H20B C25B 1_555 1_555
C26B C24B 1_555 1_555
H21B C26B 1_555 1_555
C2 C4 1_555 1_555
C3 C5 1_555 1_555
C6 O2 1_555 1_555
C6 O3 1_555 1_555
C11 C12 1_555 1_555
C13 O4 1_555 1_555
C16 C18 1_555 1_555
C17 C19 1_555 1_555
O7 C21 1_555 1_555
C25 C26 1_555 1_555
C2B C4B 1_555 1_555
C3B C5B 1_555 1_555
C6B O2B 1_555 1_555
C6B O3B 1_555 1_555
C11B C12B 1_555 1_555
C13B O4B 1_555 1_555
C16B C18B 1_555 1_555
C17B C19B 1_555 1_555
O7B C21B 1_555 1_555
C25B C26B 1_555 1_555

#END
