
#######################################################################
#
#                 Cambridge Crystallographic Data Centre
#                                CCDC 
#
#######################################################################
#
# If this CIF has been generated from an entry in the Cambridge 
# Structural Database, then it will include bibliographic, chemical, 
# crystal, experimental, refinement or atomic coordinate data resulting 
# from the CCDC's data processing and validation procedures.
#
#######################################################################

data_OTAVEL
_symmetry_cell_setting           triclinic
_symmetry_space_group_name_H-M   'P -1'
_symmetry_Int_Tables_number      2
_space_group_name_Hall           '-P 1'
loop_
_symmetry_equiv_pos_site_id
_symmetry_equiv_pos_as_xyz
1 x,y,z
2 -x,-y,-z
_cell_length_a                   9.5174(3)
_cell_length_b                   12.5384(3)
_cell_length_c                   16.3714(4)
_cell_angle_alpha                80.0080(10)
_cell_angle_beta                 81.4190(10)
_cell_angle_gamma                69.0050(10)
_cell_volume                     1788.22
loop_
_atom_site_label
_atom_site_type_symbol
_atom_site_fract_x
_atom_site_fract_y
_atom_site_fract_z
La1 La 0.191884(11) 0.040573(9) 0.510983(7)
O1 O 0.37472(16) -0.04010(13) 0.62007(9)
O2 O 0.61287(15) -0.11868(12) 0.56853(9)
O3 O 0.03439(16) 0.23807(13) 0.44806(10)
O4 O 0.17985(17) 0.00612(15) 0.36556(9)
O5 O 0.00244(18) -0.07268(14) 0.36898(10)
O6 O -0.10344(16) 0.12789(12) 0.45409(9)
O7 O 0.42100(17) -0.13253(13) 0.46400(11)
O8 O 0.2128(2) 0.20410(16) 0.58594(12)
C1 C -0.3008(3) 0.2977(2) 0.34360(16)
H1 H -0.3190 0.2286 0.3598
C2 C -0.3979(3) 0.3859(2) 0.29377(18)
H2 H -0.4808 0.3758 0.2768
C3 C -0.3720(3) 0.4877(2) 0.26961(19)
H3 H -0.4379 0.5470 0.2367
C4 C -0.2478(3) 0.5029(2) 0.29407(19)
H4 H -0.2296 0.5718 0.2769
C5 C -0.1511(3) 0.4151(2) 0.34404(16)
H5 H -0.0682 0.4254 0.3608
C6 C -0.1774(2) 0.31139(18) 0.36940(13)
C7 C 0.0990(2) -0.02965(18) 0.33144(13)
C8 C 0.2135(4) 0.0316(3) 0.19153(17)
H6 H 0.2622 0.0668 0.2177
C9 C 0.1207(3) -0.0237(2) 0.23848(14)
C10 C 0.5105(2) -0.10208(17) 0.62808(13)
C11 C 0.5519(2) -0.16357(18) 0.71260(13)
C12 C 0.6951(3) -0.2445(2) 0.72227(15)
H7 H 0.7665 -0.2586 0.6764
C13 C 0.7319(4) -0.3043(2) 0.80000(18)
H8 H 0.8274 -0.3591 0.8062
C14 C 0.6275(4) -0.2825(3) 0.86737(19)
H9 H 0.6527 -0.3223 0.9196
C15 C 0.4866(4) -0.2029(3) 0.85887(17)
H10 H 0.4166 -0.1888 0.9054
C16 C 0.4468(3) -0.1428(2) 0.78130(15)
H11 H 0.3504 -0.0891 0.7756
C17 C 0.2345(5) 0.0349(4) 0.1057(2)
H12 H 0.2954 0.0738 0.0743
C18 C 0.0744(5) -0.0761(4) 0.1136(2)
H13 H 0.0280 -0.1130 0.0875
C19 C 0.0518(4) -0.0782(3) 0.19847(18)
H14 H -0.0101 -0.1164 0.2295
C20 C -0.0762(2) 0.22048(17) 0.42713(13)
C21 C 0.1655(5) -0.0194(4) 0.0669(2)
H15 H 0.1803 -0.0178 0.0093
H33 H 0.443(3) -0.139(2) 0.4157(17)
H34 H 0.504(4) -0.139(2) 0.4870(18)
H35 H 0.258(3) 0.187(3) 0.6235(19)
H36 H 0.143(4) 0.262(3) 0.5944(18)
La1A La 0.808116(11) -0.040573(9) 0.489017(7)
La1A_2 La -0.191884(11) -0.040573(9) 0.489017(7)
O1A O 0.62528(16) 0.04010(13) 0.37993(9)
O2A O 0.38713(15) 0.11868(12) 0.43147(9)
O3A O -0.03439(16) -0.23807(13) 0.55194(10)
O3A_2 O 0.96561(16) -0.23807(13) 0.55194(10)
O4A O -0.17985(17) -0.00612(15) 0.63444(9)
O4A_2 O 0.82015(17) -0.00612(15) 0.63444(9)
O5A O -0.00244(18) 0.07268(14) 0.63102(10)
O5_2 O 1.00244(18) -0.07268(14) 0.36898(10)
O6A O 0.10344(16) -0.12789(12) 0.54591(9)
O6A_2 O 1.10344(16) -0.12789(12) 0.54591(9)
O6_2 O 0.89656(16) 0.12789(12) 0.45409(9)
O7A O 0.57900(17) 0.13253(13) 0.53600(11)
O8A O 0.7872(2) -0.20410(16) 0.41406(12)
C1A C 0.3008(3) -0.2977(2) 0.65640(16)
H1A H 0.3190 -0.2286 0.6402
C2A C 0.3979(3) -0.3859(2) 0.70623(18)
H2A H 0.4808 -0.3758 0.7232
C3A C 0.3720(3) -0.4877(2) 0.73039(19)
H3A H 0.4379 -0.5470 0.7633
C4A C 0.2478(3) -0.5029(2) 0.70593(19)
H4A H 0.2296 -0.5718 0.7231
C5A C 0.1511(3) -0.4151(2) 0.65596(16)
H5A H 0.0682 -0.4254 0.6392
C6A C 0.1774(2) -0.31139(18) 0.63060(13)
C7A C -0.0990(2) 0.02965(18) 0.66856(13)
C8A C -0.2135(4) -0.0316(3) 0.80847(17)
H6A H -0.2622 -0.0668 0.7823
C9A C -0.1207(3) 0.0237(2) 0.76152(14)
C10A C 0.4895(2) 0.10208(17) 0.37192(13)
C11A C 0.4481(2) 0.16357(18) 0.28740(13)
C12A C 0.3049(3) 0.2445(2) 0.27773(15)
H7A H 0.2335 0.2586 0.3236
C13A C 0.2681(4) 0.3043(2) 0.20000(18)
H8A H 0.1726 0.3591 0.1938
C14A C 0.3725(4) 0.2825(3) 0.13263(19)
H9A H 0.3473 0.3223 0.0804
C15A C 0.5134(4) 0.2029(3) 0.14113(17)
H10A H 0.5834 0.1888 0.0946
C16A C 0.5532(3) 0.1428(2) 0.21870(15)
H11A H 0.6496 0.0891 0.2244
C17A C -0.2345(5) -0.0349(4) 0.8943(2)
H12A H -0.2954 -0.0738 0.9257
C18A C -0.0744(5) 0.0761(4) 0.8864(2)
H13A H -0.0280 0.1130 0.9125
C19A C -0.0518(4) 0.0782(3) 0.80153(18)
H14A H 0.0101 0.1164 0.7705
C20A C 0.0762(2) -0.22048(17) 0.57287(13)
C21A C -0.1655(5) 0.0194(4) 0.9331(2)
H15A H -0.1803 0.0178 0.9907
H33A H 0.557(3) 0.139(2) 0.5843(17)
H34A H 0.496(4) 0.139(2) 0.5130(18)
H35A H 0.742(3) -0.187(3) 0.3765(19)
H36A H 0.857(4) -0.262(3) 0.4056(18)
O9 O 0.02887(18) 0.59523(15) 0.37834(12)
N1 N 0.1592(2) 0.56861(16) 0.41138(12)
C22 C 0.2227(3) 0.6493(2) 0.40771(16)
H16 H 0.1759 0.7235 0.3819
C23 C 0.3553(3) 0.62357(19) 0.44154(16)
H17 H 0.3977 0.6807 0.4381
C24 C 0.2247(3) 0.4619(2) 0.44875(17)
H18 H 0.1794 0.4067 0.4513
C25 C 0.4285(2) 0.51422(18) 0.48106(14)
C26 C 0.3581(3) 0.4332(2) 0.48340(17)
H19 H 0.4025 0.3584 0.5089
O9A O 0.97113(18) 0.40477(15) 0.62166(12)
N1A N 0.8408(2) 0.43139(16) 0.58862(12)
C22A C 0.7773(3) 0.3507(2) 0.59229(16)
H16A H 0.8241 0.2765 0.6181
C23A C 0.6447(3) 0.37643(19) 0.55846(16)
H17A H 0.6023 0.3193 0.5619
C24A C 0.7753(3) 0.5381(2) 0.55125(17)
H18A H 0.8206 0.5933 0.5487
C25A C 0.5715(2) 0.48578(18) 0.51894(14)
C26A C 0.6419(3) 0.5668(2) 0.51660(17)
H19A H 0.5975 0.6416 0.4911
O10 O 0.0435(2) 0.6117(2) 0.21927(14)
H20 H 0.0541 0.6083 0.2686
O11 O 0.2818(3) 0.6008(3) 0.20373(16)
C27 C 0.1612(4) 0.6132(3) 0.0839(2)
C28 C 0.1698(3) 0.6080(3) 0.1746(2)
C29 C 0.2792(9) 0.6091(6) -0.0559(3)
H21 H 0.3667 0.5982 -0.0923
C30 C 0.2850(7) 0.6027(5) 0.0299(3)
H22 H 0.3765 0.5910 0.0499
C31 C 0.0325(5) 0.6246(7) 0.0543(3)
H23 H -0.0525 0.6259 0.0910
C32 C 0.1460(11) 0.6312(7) -0.0845(4)
H24 H 0.1379 0.6442 -0.1415
C33 C 0.0248(8) 0.6346(9) -0.0309(4)
H25 H -0.0659 0.6437 -0.0508
O12 O 0.5528(3) 0.8257(2) 0.30566(13)
N2 N 0.5800(3) 0.7998(2) 0.17163(15)
C34 C 0.5144(3) 0.7977(3) 0.24781(19)
H26 H 0.4317 0.7727 0.2583
C35 C 0.7017(6) 0.8452(4) 0.1520(3)
H27 H 0.7239 0.8644 0.2018
H28 H 0.6727 0.9131 0.1120
H29 H 0.7899 0.7884 0.1291
C36 C 0.5360(6) 0.7569(4) 0.1067(2)
H30 H 0.4535 0.7301 0.1285
H31 H 0.6202 0.6945 0.0868
H32 H 0.5051 0.8177 0.0616
loop_
_geom_bond_atom_site_label_1
_geom_bond_atom_site_label_2
_geom_bond_site_symmetry_1
_geom_bond_site_symmetry_2
La1 O1 1_555 1_555
O1 C10 1_555 1_555
O2 C10 1_555 1_555
O3 La1 1_555 1_555
O4 La1 1_555 1_555
O5 C7 1_555 1_555
O6 La1 1_555 1_555
O7 La1 1_555 1_555
O8 La1 1_555 1_555
C1 H1 1_555 1_555
C2 C1 1_555 1_555
H2 C2 1_555 1_555
C3 C2 1_555 1_555
H3 C3 1_555 1_555
C4 C3 1_555 1_555
H4 C4 1_555 1_555
C5 C4 1_555 1_555
H5 C5 1_555 1_555
C6 C1 1_555 1_555
C7 O4 1_555 1_555
C8 H6 1_555 1_555
C9 C7 1_555 1_555
C10 C11 1_555 1_555
C11 C12 1_555 1_555
C12 H7 1_555 1_555
C13 C12 1_555 1_555
H8 C13 1_555 1_555
C14 C13 1_555 1_555
H9 C14 1_555 1_555
C15 C14 1_555 1_555
H10 C15 1_555 1_555
C16 C11 1_555 1_555
H11 C16 1_555 1_555
C17 C8 1_555 1_555
H12 C17 1_555 1_555
C18 H13 1_555 1_555
C19 C9 1_555 1_555
H14 C19 1_555 1_555
C20 O3 1_555 1_555
C21 C17 1_555 1_555
H15 C21 1_555 1_555
O9 N1 1_555 1_555
N1 C22 1_555 1_555
C22 H16 1_555 1_555
C23 C22 1_555 1_555
H17 C23 1_555 1_555
C24 N1 1_555 1_555
H18 C24 1_555 1_555
C25 C23 1_555 1_555
C26 C24 1_555 1_555
H19 C26 1_555 1_555
O10 H20 1_555 1_555
O11 C28 1_555 1_555
C27 C28 1_555 1_555
C28 O10 1_555 1_555
C29 H21 1_555 1_555
C30 C27 1_555 1_555
H22 C30 1_555 1_555
C31 C27 1_555 1_555
H23 C31 1_555 1_555
C32 C29 1_555 1_555
H24 C32 1_555 1_555
C33 C31 1_555 1_555
H25 C33 1_555 1_555
O12 C34 1_555 1_555
N2 C34 1_555 1_555
C34 H26 1_555 1_555
C35 N2 1_555 1_555
H27 C35 1_555 1_555
H28 C35 1_555 1_555
H29 C35 1_555 1_555
C36 N2 1_555 1_555
H30 C36 1_555 1_555
H31 C36 1_555 1_555
H32 C36 1_555 1_555
H33 O7 1_555 1_555
H34 O7 1_555 1_555
H35 O8 1_555 1_555
H36 O8 1_555 1_555
La1A O2 1_555 1_555
La1A_2 O5 1_555 1_555
O1A La1A 1_555 1_555
O2A La1 1_555 1_555
O3A La1A_2 1_555 1_555
O3A_2 La1A 1_555 1_555
O4A La1A_2 1_555 1_555
O4A_2 La1A 1_555 1_555
O5A La1 1_555 1_555
O5_2 La1A 1_555 1_555
O6A La1 1_555 1_555
O6A_2 La1A 1_555 1_555
O6_2 La1A 1_555 1_555
O7A La1A 1_555 1_555
O8A La1A 1_555 1_555
C1A H1A 1_555 1_555
C2A C1A 1_555 1_555
H2A C2A 1_555 1_555
C3A C2A 1_555 1_555
H3A C3A 1_555 1_555
C4A C3A 1_555 1_555
H4A C4A 1_555 1_555
C5A C4A 1_555 1_555
H5A C5A 1_555 1_555
C6A C1A 1_555 1_555
C7A O4A 1_555 1_555
C8A H6A 1_555 1_555
C9A C7A 1_555 1_555
C10A O1A 1_555 1_555
C11A C10A 1_555 1_555
C12A C11A 1_555 1_555
H7A C12A 1_555 1_555
C13A C12A 1_555 1_555
H8A C13A 1_555 1_555
C14A C13A 1_555 1_555
H9A C14A 1_555 1_555
C15A C14A 1_555 1_555
H10A C15A 1_555 1_555
C16A C11A 1_555 1_555
H11A C16A 1_555 1_555
C17A C8A 1_555 1_555
H12A C17A 1_555 1_555
C18A H13A 1_555 1_555
C19A C9A 1_555 1_555
H14A C19A 1_555 1_555
C20A O3A 1_555 1_555
C21A C17A 1_555 1_555
H15A C21A 1_555 1_555
O9A N1A 1_555 1_555
N1A C22A 1_555 1_555
C22A H16A 1_555 1_555
C23A C22A 1_555 1_555
H17A C23A 1_555 1_555
C24A N1A 1_555 1_555
H18A C24A 1_555 1_555
C25A C25 1_555 1_555
C26A C24A 1_555 1_555
H19A C26A 1_555 1_555
H33A O7A 1_555 1_555
H34A O7A 1_555 1_555
H35A O8A 1_555 1_555
H36A O8A 1_555 1_555
O6 C20 1_555 1_555
O6 La1A_2 1_555 1_555
C5 C6 1_555 1_555
C6 C20 1_555 1_555
C8 C9 1_555 1_555
C15 C16 1_555 1_555
C18 C19 1_555 1_555
C18 C21 1_555 1_555
C25 C26 1_555 1_555
C29 C30 1_555 1_555
C32 C33 1_555 1_555
La1A_2 O6A 1_555 1_555
O2A C10A 1_555 1_555
O5A C7A 1_555 1_555
O6A C20A 1_555 1_555
C5A C6A 1_555 1_555
C6A C20A 1_555 1_555
C8A C9A 1_555 1_555
C15A C16A 1_555 1_555
C18A C19A 1_555 1_555
C18A C21A 1_555 1_555
C23A C25A 1_555 1_555
C25A C26A 1_555 1_555

#END
