
#######################################################################
#
#                 Cambridge Crystallographic Data Centre
#                                CCDC 
#
#######################################################################
#
# If this CIF has been generated from an entry in the Cambridge 
# Structural Database, then it will include bibliographic, chemical, 
# crystal, experimental, refinement or atomic coordinate data resulting 
# from the CCDC's data processing and validation procedures.
#
#######################################################################

data_OTAVIP
_symmetry_cell_setting           monoclinic
_symmetry_space_group_name_H-M   'P 21/c'
_symmetry_Int_Tables_number      14
_space_group_name_Hall           '-P 2ybc'
loop_
_symmetry_equiv_pos_site_id
_symmetry_equiv_pos_as_xyz
1 x,y,z
2 -x,1/2+y,1/2-z
3 -x,-y,-z
4 x,1/2-y,1/2+z
_cell_length_a                   12.8612(12)
_cell_length_b                   10.2716(9)
_cell_length_c                   28.254(2)
_cell_angle_alpha                90
_cell_angle_beta                 112.500(4)
_cell_angle_gamma                90
_cell_volume                     3448.38
loop_
_atom_site_label
_atom_site_type_symbol
_atom_site_fract_x
_atom_site_fract_y
_atom_site_fract_z
C1 C -0.0631(3) -0.0414(3) 0.08436(14)
C2 C -0.1611(3) -0.0949(3) 0.03955(13)
C3 C -0.1608(3) -0.0928(3) -0.00925(13)
H1 H -0.0999 -0.0572 -0.0148
C4 C -0.2498(4) -0.1430(4) -0.04959(15)
H2 H -0.2483 -0.1426 -0.0822
C5 C -0.3407(4) -0.1937(4) -0.0423(2)
H3 H -0.4011 -0.2273 -0.0699
C6 C -0.3420(4) -0.1946(4) 0.0062(2)
H4 H -0.4038 -0.2286 0.0113
C7 C -0.2527(3) -0.1458(4) 0.04690(16)
H5 H -0.2542 -0.1471 0.0796
C8 C -0.1530(3) 0.2714(3) 0.17284(12)
C9 C -0.2389(3) 0.2915(3) 0.11985(12)
C10 C -0.2637(3) 0.1943(4) 0.08387(13)
H6 H -0.2320 0.1122 0.0934
C11 C -0.3339(3) 0.2160(5) 0.03439(15)
H7 H -0.3501 0.1485 0.0108
C12 C -0.3805(3) 0.3346(5) 0.01914(17)
H8 H -0.4261 0.3495 -0.0150
C13 C -0.3598(3) 0.4324(5) 0.05456(19)
H9 H -0.3932 0.5135 0.0445
C14 C -0.2897(3) 0.4113(4) 0.10509(15)
H10 H -0.2768 0.4777 0.1291
C15 C 0.1908(3) 0.2517(3) 0.29350(12)
C16 C 0.3100(3) 0.2898(3) 0.32530(12)
C17 C 0.3359(3) 0.4136(4) 0.34486(15)
H11 H 0.2794 0.4757 0.3377
C18 C 0.4440(5) 0.4455(6) 0.3747(2)
H12 H 0.4600 0.5292 0.3881
C19 C 0.5278(5) 0.3587(7) 0.3851(2)
H13 H 0.6012 0.3829 0.4052
C20 C 0.5057(4) 0.2363(6) 0.3665(2)
H14 H 0.5638 0.1762 0.3741
C21 C 0.3953(3) 0.1997(4) 0.33586(17)
H15 H 0.3799 0.1156 0.3228
C22 C 0.0458(3) 0.1049(3) 0.37203(14)
H16 H 0.0623 0.1872 0.3631
C23 C 0.0864(3) 0.0682(3) 0.42223(14)
H17 H 0.1297 0.1269 0.4470
C24 C 0.0654(3) -0.0535(3) 0.43754(13)
C25 C -0.0023(3) -0.1354(3) 0.39860(13)
H18 H -0.0197 -0.2180 0.4069
C26 C -0.0437(3) -0.0968(4) 0.34822(14)
H19 H -0.0894 -0.1529 0.3230
C27 C 0.1108(3) -0.0943(3) 0.49141(13)
C28 C 0.1691(3) -0.0080(3) 0.53087(16)
H20 H 0.1807 0.0770 0.5226
C29 C 0.2094(3) -0.0443(4) 0.58098(15)
H21 H 0.2475 0.0161 0.6062
C30 C 0.1405(3) -0.2533(4) 0.55789(15)
H22 H 0.1311 -0.3382 0.5670
C31 C 0.0987(3) -0.2191(3) 0.50725(14)
H23 H 0.0612 -0.2814 0.4828
H31 H 0.1735 -0.2114 0.1890
H32 H 0.1237 -0.2689 0.2208
H33 H 0.1820 0.1472 0.1749
H34 H 0.0985 0.0611 0.1358
Ce1 Ce 0.027838(16) -0.008190(17) 0.221114(7)
N1 N -0.0185(3) 0.0222(3) 0.33507(12)
N2 N 0.1948(2) -0.1668(3) 0.59467(12)
O1 O -0.0564(2) 0.0590(3) 0.28644(9)
O2 O -0.1257(2) 0.3694(2) 0.20141(9)
O3 O 0.11520(19) 0.3336(2) 0.28777(10)
O4 O 0.1418(2) -0.1963(2) 0.20707(9)
O5 O -0.0616(2) -0.0652(3) 0.12835(9)
O6 O 0.1381(2) 0.0889(2) 0.17188(9)
O7 O -0.1098(2) 0.1607(2) 0.18519(9)
O8 O 0.17345(19) 0.1398(2) 0.27533(10)
O9 O 0.0106(2) 0.0219(2) 0.07582(10)
O10 O 0.2338(2) -0.1983(3) 0.64298(10)
Ce1A Ce -0.027838(16) 0.491810(17) 0.278886(7)
O2A O 0.1257(2) -0.1306(2) 0.29859(9)
O3A O -0.11520(19) -0.1664(2) 0.21223(10)
C32 C 0.5605(7) 0.4158(11) 0.2615(3)
H24 H 0.5332 0.5033 0.2600
H25 H 0.6334 0.4172 0.2595
H26 H 0.5661 0.3760 0.2931
C33 C 0.5502(9) 0.2893(13) 0.1938(5)
H27 H 0.5255 0.2018 0.1837
H28 H 0.6283 0.2887 0.2161
H29 H 0.5402 0.3406 0.1640
C34 C 0.3876(6) 0.3089(8) 0.2103(3)
H30 H 0.3621 0.3368 0.2353
N3 N 0.4857(5) 0.3440(6) 0.22022(18)
O11 O 0.3194(4) 0.2512(5) 0.17863(17)
loop_
_geom_bond_atom_site_label_1
_geom_bond_atom_site_label_2
_geom_bond_site_symmetry_1
_geom_bond_site_symmetry_2
C1 C2 1_555 1_555
C2 C3 1_555 1_555
C3 H1 1_555 1_555
C4 C3 1_555 1_555
H2 C4 1_555 1_555
C5 C4 1_555 1_555
H3 C5 1_555 1_555
C6 C5 1_555 1_555
H4 C6 1_555 1_555
C7 C2 1_555 1_555
H5 C7 1_555 1_555
C8 C9 1_555 1_555
C9 C10 1_555 1_555
C10 H6 1_555 1_555
C11 C10 1_555 1_555
H7 C11 1_555 1_555
C12 C11 1_555 1_555
H8 C12 1_555 1_555
C13 C12 1_555 1_555
H9 C13 1_555 1_555
C14 C9 1_555 1_555
H10 C14 1_555 1_555
C15 C16 1_555 1_555
C16 C17 1_555 1_555
C17 H11 1_555 1_555
C18 C17 1_555 1_555
H12 C18 1_555 1_555
C19 C18 1_555 1_555
H13 C19 1_555 1_555
C20 C19 1_555 1_555
H14 C20 1_555 1_555
C21 C16 1_555 1_555
H15 C21 1_555 1_555
C22 H16 1_555 1_555
C23 C22 1_555 1_555
H17 C23 1_555 1_555
C24 C23 1_555 1_555
C25 C24 1_555 1_555
H18 C25 1_555 1_555
C26 C25 1_555 1_555
H19 C26 1_555 1_555
C27 C24 1_555 1_555
C28 C27 1_555 1_555
H20 C28 1_555 1_555
C29 C28 1_555 1_555
H21 C29 1_555 1_555
C30 H22 1_555 1_555
C31 C27 1_555 1_555
H23 C31 1_555 1_555
C32 H24 1_555 1_555
H25 C32 1_555 1_555
H26 C32 1_555 1_555
C33 H27 1_555 1_555
H28 C33 1_555 1_555
H29 C33 1_555 1_555
C34 H30 1_555 1_555
H31 O4 1_555 1_555
H32 O4 1_555 1_555
H33 O6 1_555 1_555
H34 O6 1_555 1_555
Ce1 O1 1_555 1_555
N1 C22 1_555 1_555
N2 C29 1_555 1_555
N3 C32 1_555 1_555
O1 N1 1_555 1_555
O2 C8 1_555 1_555
O3 C15 1_555 1_555
O4 Ce1 1_555 1_555
O5 C1 1_555 1_555
O6 Ce1 1_555 1_555
O7 C8 1_555 1_555
O8 C15 1_555 1_555
O9 C1 1_555 1_555
O10 N2 1_555 1_555
O11 C34 1_555 1_555
Ce1A O2 1_555 1_555
O2A Ce1 1_555 1_555
O3A Ce1 1_555 1_555
C6 C7 1_555 1_555
C13 C14 1_555 1_555
C20 C21 1_555 1_555
C26 N1 1_555 1_555
C30 C31 1_555 1_555
C30 N2 1_555 1_555
C33 N3 1_555 1_555
C34 N3 1_555 1_555
Ce1 O5 1_555 1_555
Ce1 O7 1_555 1_555
Ce1 O8 1_555 1_555
O3 Ce1A 1_555 1_555

#END
