
#######################################################################
#
#                 Cambridge Crystallographic Data Centre
#                                CCDC 
#
#######################################################################
#
# If this CIF has been generated from an entry in the Cambridge 
# Structural Database, then it will include bibliographic, chemical, 
# crystal, experimental, refinement or atomic coordinate data resulting 
# from the CCDC's data processing and validation procedures.
#
#######################################################################

data_OTOZUT
_symmetry_cell_setting           orthorhombic
_symmetry_space_group_name_H-M   'P b c a'
_symmetry_Int_Tables_number      61
_space_group_name_Hall           '-P 2ac 2ab'
loop_
_symmetry_equiv_pos_site_id
_symmetry_equiv_pos_as_xyz
1 x,y,z
2 1/2-x,-y,1/2+z
3 1/2+x,1/2-y,-z
4 -x,1/2+y,1/2-z
5 -x,-y,-z
6 1/2+x,y,1/2-z
7 1/2-x,1/2+y,z
8 x,1/2-y,1/2+z
_cell_length_a                   8.2439(3)
_cell_length_b                   21.1076(9)
_cell_length_c                   22.4715(8)
_cell_angle_alpha                90
_cell_angle_beta                 90
_cell_angle_gamma                90
_cell_volume                     3910.24
loop_
_atom_site_label
_atom_site_type_symbol
_atom_site_fract_x
_atom_site_fract_y
_atom_site_fract_z
C1 C 0.3111(3) 0.23495(11) 0.67824(11)
C2 C 0.4389(3) 0.27768(12) 0.67213(12)
C3 C 0.4630(3) 0.30919(13) 0.61883(12)
C4 C 0.3599(3) 0.30039(12) 0.56980(11)
C5 C 0.2340(3) 0.25638(12) 0.57663(11)
C6 C 0.2102(3) 0.22471(12) 0.62954(11)
C7 C 0.3827(3) 0.33661(11) 0.51390(11)
C8 C 0.4675(3) 0.39421(13) 0.51310(12)
C9 C 0.4937(3) 0.42710(12) 0.46090(12)
C10 C 0.4349(3) 0.40490(12) 0.40640(11)
C11 C 0.3454(3) 0.34851(12) 0.40716(11)
C12 C 0.3211(3) 0.31509(12) 0.45951(11)
C13 C 0.4445(3) 0.08521(14) 0.62553(12)
C14 C 0.4439(4) 0.03656(13) 0.57579(12)
C15 C 0.3845(3) -0.02880(13) 0.59563(12)
C16 C 0.4152(4) -0.10879(14) 0.67345(13)
C17 C 0.3139(5) -0.08096(18) 0.72349(15)
C18 C 0.6414(3) -0.08474(13) 0.60709(14)
C19 C 0.6138(4) -0.14214(14) 0.56701(14)
N1 N 0.5569(3) 0.06920(11) 0.67510(10)
N2 N 0.4960(3) -0.05985(10) 0.63763(10)
S1 S 0.28043(7) 0.19691(3) 0.74799(3)
S2 S 0.47169(8) 0.45026(3) 0.34144(3)
Cd1 Cd 0.53060(2) 0.125182(8) 0.759660(8)
H1 H 0.546(3) 0.0289(16) 0.6837(13)
H2 H 0.657(4) 0.0734(14) 0.6635(14)
H3 H 0.507(3) 0.2852(13) 0.7045(14)
H4 H 0.550(4) 0.3402(15) 0.6145(14)
H5 H 0.337(4) 0.0868(13) 0.6424(13)
H6 H 0.158(4) 0.2475(13) 0.5450(13)
H7 H 0.121(3) 0.1965(12) 0.6322(11)
H8 H 0.508(3) 0.4124(14) 0.5488(14)
H9 H 0.555(3) 0.4675(13) 0.4637(12)
H10 H 0.303(3) 0.3306(12) 0.3732(12)
H11 H 0.262(4) 0.2786(14) 0.4570(12)
H12 H 0.473(4) 0.1289(15) 0.6114(17)
H13 H 0.371(4) 0.0506(13) 0.5434(13)
H14 H 0.554(4) 0.0333(13) 0.5562(13)
H15 H 0.283(3) -0.0234(12) 0.6165(12)
H16 H 0.365(3) -0.0565(13) 0.5616(12)
H17 H 0.498(4) -0.1353(15) 0.6883(16)
H18 H 0.348(4) -0.1380(14) 0.6486(14)
H19 H 0.265(5) -0.111(2) 0.7455(15)
H20 H 0.372(5) -0.0558(18) 0.7505(16)
H21 H 0.228(4) -0.0517(17) 0.7090(15)
H22 H 0.690(3) -0.0489(14) 0.5841(12)
H23 H 0.716(4) -0.0942(14) 0.6374(13)
H24 H 0.586(4) -0.1798(15) 0.5893(14)
H25 H 0.714(4) -0.1511(16) 0.5440(15)
H26 H 0.529(5) -0.1335(16) 0.5369(18)
S1E S 0.78043(7) 0.19691(3) 0.75201(3)
S2G S 0.47169(8) 0.04974(3) 0.84144(3)
Cd1E Cd 0.03060(2) 0.125182(8) 0.740340(8)
Cd1G Cd 0.53060(2) 0.374818(8) 0.259660(8)
loop_
_geom_bond_atom_site_label_1
_geom_bond_atom_site_label_2
_geom_bond_site_symmetry_1
_geom_bond_site_symmetry_2
C1 C2 1_555 1_555
C2 C3 1_555 1_555
C3 C4 1_555 1_555
C4 C5 1_555 1_555
C5 C6 1_555 1_555
C6 C1 1_555 1_555
C7 C4 1_555 1_555
C8 C7 1_555 1_555
C9 C8 1_555 1_555
C10 C9 1_555 1_555
C11 C10 1_555 1_555
C12 C7 1_555 1_555
C13 C14 1_555 1_555
C14 C15 1_555 1_555
C15 N2 1_555 1_555
C16 C17 1_555 1_555
C17 H19 1_555 1_555
C18 C19 1_555 1_555
C19 H24 1_555 1_555
N1 C13 1_555 1_555
N2 C16 1_555 1_555
S1 C1 1_555 1_555
S2 C10 1_555 1_555
Cd1 N1 1_555 1_555
H1 N1 1_555 1_555
H2 N1 1_555 1_555
H3 C2 1_555 1_555
H4 C3 1_555 1_555
H5 C13 1_555 1_555
H6 C5 1_555 1_555
H7 C6 1_555 1_555
H8 C8 1_555 1_555
H9 C9 1_555 1_555
H10 C11 1_555 1_555
H11 C12 1_555 1_555
H12 C13 1_555 1_555
H13 C14 1_555 1_555
H14 C14 1_555 1_555
H15 C15 1_555 1_555
H16 C15 1_555 1_555
H17 C16 1_555 1_555
H18 C16 1_555 1_555
H20 C17 1_555 1_555
H21 C17 1_555 1_555
H22 C18 1_555 1_555
H23 C18 1_555 1_555
H25 C19 1_555 1_555
H26 C19 1_555 1_555
S1E Cd1 1_555 1_555
S2G Cd1 1_555 1_555
Cd1E S1 1_555 1_555
Cd1G S2 1_555 1_555
C11 C12 1_555 1_555
C18 N2 1_555 1_555
S1 Cd1 1_555 1_555

#END
