
#######################################################################
#
#                 Cambridge Crystallographic Data Centre
#                                CCDC 
#
#######################################################################
#
# If this CIF has been generated from an entry in the Cambridge 
# Structural Database, then it will include bibliographic, chemical, 
# crystal, experimental, refinement or atomic coordinate data resulting 
# from the CCDC's data processing and validation procedures.
#
#######################################################################

data_OTUFOZ
_symmetry_cell_setting           rhombohedral
_symmetry_space_group_name_H-M   'R -3'
_symmetry_Int_Tables_number      148
_space_group_name_Hall           '-R 3'
loop_
_symmetry_equiv_pos_site_id
_symmetry_equiv_pos_as_xyz
1 x,y,z
2 -y,x-y,z
3 -x+y,-x,z
4 2/3+x,1/3+y,1/3+z
5 2/3-y,1/3+x-y,1/3+z
6 2/3-x+y,1/3-x,1/3+z
7 1/3+x,2/3+y,2/3+z
8 1/3-y,2/3+x-y,2/3+z
9 1/3-x+y,2/3-x,2/3+z
10 -x,-y,-z
11 y,-x+y,-z
12 x-y,x,-z
13 1/3-x,2/3-y,2/3-z
14 1/3+y,2/3-x+y,2/3-z
15 1/3+x-y,2/3+x,2/3-z
16 2/3-x,1/3-y,1/3-z
17 2/3+y,1/3-x+y,1/3-z
18 2/3+x-y,1/3+x,1/3-z
_cell_length_a                   30.5385(7)
_cell_length_b                   30.5385(7)
_cell_length_c                   5.8489(2)
_cell_angle_alpha                90
_cell_angle_beta                 90
_cell_angle_gamma                120
_cell_volume                     4723.89
loop_
_atom_site_label
_atom_site_type_symbol
_atom_site_fract_x
_atom_site_fract_y
_atom_site_fract_z
U1 U 0.838678(7) 0.458475(5) 0.97126(2)
O1 O 0.78404(11) 0.41875(11) 0.8086(5)
O2 O 0.89309(13) 0.49820(13) 1.1315(6)
O3 O 0.86365(12) 0.52589(11) 0.6985(5)
O4 O 0.78904(10) 0.50975(12) 0.5670(5)
O5 O 0.80129(16) 0.50534(11) 0.0998(5)
O6 O 0.77680(17) 0.55776(12) -0.0329(5)
O7 O 0.78520(19) 0.4194(2) 1.3152(8)
H1 H 0.776(3) 0.429(3) 1.357(15)
H2 H 0.788(3) 0.405(3) 1.401(13)
C1 C 0.83666(13) 0.53680(14) 0.5744(6)
C2 C 0.80466(14) 0.54845(14) 0.0912(6)
C3 C 0.84507(14) 0.59106(14) 0.2258(6)
C4 C 0.86262(14) 0.58464(14) 0.4395(6)
C5 C 0.90338(16) 0.62607(16) 0.5441(8)
H3 H 0.9153 0.6220 0.6839
C6 C 0.86854(17) 0.63901(16) 0.1243(8)
H4 H 0.8568 0.6436 -0.0153
C7 C 0.9091(2) 0.6797(2) 0.2300(10)
H5 H 0.9249 0.7113 0.1599
C8 C 0.9262(2) 0.6733(2) 0.4415(10)
H6 H 0.9530 0.7009 0.5139
U1N U 0.713536(9) 0.505345(7) 0.69541(2)
U1_2 U 0.838678(7) 0.458475(5) -0.02874(2)
U1N_2 U 0.713536(9) 0.505345(7) -0.30459(2)
O4M O 0.84308(12) 0.38738(16) 1.0997(5)
O5_2 O 0.80129(16) 0.50534(11) 1.0998(5)
O6M O 0.89109(12) 0.44763(21) 0.6996(5)
O8 O 0.6668(2) 0.3334(2) 0.6704(10)
O9? O 0.6668(2) 0.3334(2) 0.3963(10)
loop_
_geom_bond_atom_site_label_1
_geom_bond_atom_site_label_2
_geom_bond_site_symmetry_1
_geom_bond_site_symmetry_2
U1 O1 1_555 1_555
O2 U1 1_555 1_555
O3 U1 1_555 1_555
O4 C1 1_555 1_555
O5 C2 1_555 1_555
O6 C2 1_555 1_555
O7 U1 1_555 1_555
H1 O7 1_555 1_555
H2 O7 1_555 1_555
C1 O3 1_555 1_555
C2 C3 1_555 1_555
C3 C4 1_555 1_555
C4 C1 1_555 1_555
C5 C4 1_555 1_555
H3 C5 1_555 1_555
C6 C3 1_555 1_555
H4 C6 1_555 1_555
C7 C6 1_555 1_555
H5 C7 1_555 1_555
C8 C5 1_555 1_555
H6 C8 1_555 1_555
U1N O4 1_555 1_555
U1_2 O5 1_555 1_555
U1N_2 O6 1_555 1_555
O4M U1 1_555 1_555
O5_2 U1 1_555 1_555
O6M U1 1_555 1_555
C7 C8 1_555 1_555

#END
