
#######################################################################
#
#                 Cambridge Crystallographic Data Centre
#                                CCDC 
#
#######################################################################
#
# If this CIF has been generated from an entry in the Cambridge 
# Structural Database, then it will include bibliographic, chemical, 
# crystal, experimental, refinement or atomic coordinate data resulting 
# from the CCDC's data processing and validation procedures.
#
#######################################################################

data_OTUYEI
_symmetry_cell_setting           monoclinic
_symmetry_space_group_name_H-M   'P 21/c'
_symmetry_Int_Tables_number      14
_space_group_name_Hall           '-P 2ybc'
loop_
_symmetry_equiv_pos_site_id
_symmetry_equiv_pos_as_xyz
1 x,y,z
2 -x,1/2+y,1/2-z
3 -x,-y,-z
4 x,1/2-y,1/2+z
_cell_length_a                   16.323(2)
_cell_length_b                   11.165(2)
_cell_length_c                   14.709(5)
_cell_angle_alpha                90
_cell_angle_beta                 92.29(2)
_cell_angle_gamma                90
_cell_volume                     2678.52
loop_
_atom_site_label
_atom_site_type_symbol
_atom_site_fract_x
_atom_site_fract_y
_atom_site_fract_z
Cu1 Cu 0.83822(2) 0.00554(3) 0.23356(2)
C1 C 0.72564(19) 0.2937(3) -0.0321(2)
H1 H 0.6784 0.3105 0.0015
C2 C 0.7427(2) 0.3602(3) -0.1076(2)
H2 H 0.7067 0.4242 -0.1240
N1 N 0.80673(16) 0.3407(2) -0.15946(17)
C3 C 0.8565(2) 0.2515(3) -0.1340(2)
H3 H 0.9024 0.2356 -0.1698
C4 C 0.84537(19) 0.1804(3) -0.0582(2)
H4 H 0.8830 0.1181 -0.0426
C5 C 0.77851(18) 0.2017(3) -0.00557(19)
C6 C 0.76672(18) 0.1284(2) 0.07874(19)
O1 O 0.83187(12) 0.11104(17) 0.12750(13)
C7 C 0.68855(19) 0.0843(3) 0.0939(2)
H5 H 0.6448 0.1102 0.0541
C8 C 0.67008(19) 0.0046(2) 0.1636(2)
O2 O 0.72148(12) -0.03234(19) 0.22378(14)
C9 C 0.58563(19) -0.0458(3) 0.1687(2)
C10 C 0.5745(2) -0.1472(4) 0.2202(3)
H6 H 0.6199 -0.1831 0.2522
C11 C 0.4967(3) -0.1969(4) 0.2253(4)
H7 H 0.4897 -0.2686 0.2590
C12 C 0.4308(3) -0.1450(5) 0.1833(3)
H8 H 0.3777 -0.1780 0.1895
C13 C 0.4409(2) -0.0458(5) 0.1320(3)
H9 H 0.3945 -0.0106 0.1015
C14 C 0.5170(2) 0.0055(4) 0.1232(3)
H10 H 0.5229 0.0749 0.0866
C15 C 0.9472(2) -0.2863(3) 0.4985(2)
H11 H 0.9976 -0.2948 0.4690
C16 C 0.9298(2) -0.3584(3) 0.5713(2)
H12 H 0.9694 -0.4166 0.5903
N2 N 0.86056(18) -0.3516(3) 0.61675(18)
C17 C 0.8062(2) -0.2700(3) 0.5870(2)
H13 H 0.7565 -0.2632 0.6180
C18 C 0.8175(2) -0.1940(3) 0.5134(2)
H14 H 0.7761 -0.1386 0.4943
C19 C 0.89045(19) -0.2011(3) 0.4688(2)
C20 C 0.90476(18) -0.1231(3) 0.38919(19)
O3 O 0.84100(12) -0.09838(17) 0.33987(13)
C21 C 0.98386(19) -0.0853(3) 0.3738(2)
H15 H 1.0259 -0.1083 0.4168
C22 C 1.00664(18) -0.0154(2) 0.2994(2)
O4 O 0.95656(12) 0.03184(19) 0.24120(13)
C23 C 1.0956(2) 0.0058(2) 0.2852(2)
C24 C 1.1567(2) -0.0692(3) 0.3227(2)
H16 H 1.1421 -0.1345 0.3602
C25 C 1.2374(2) -0.0489(4) 0.3054(3)
H17 H 1.2783 -0.1011 0.3305
C26 C 1.2602(2) 0.0458(4) 0.2524(3)
H18 H 1.3164 0.0604 0.2420
C27 C 1.2006(2) 0.1188(3) 0.2146(3)
H19 H 1.2157 0.1834 0.1767
C28 C 1.1193(2) 0.0998(3) 0.2309(2)
H20 H 1.0789 0.1518 0.2046
Cu1C Cu 0.83822(2) -0.50554(3) 0.73356(2)
Cu1C_2 Cu 0.83822(2) 0.49446(3) -0.26644(2)
N1C N 0.80673(16) 0.1593(2) 0.34054(17)
N2C N 0.86056(18) -0.1484(3) 0.11675(18)
loop_
_geom_bond_atom_site_label_1
_geom_bond_atom_site_label_2
_geom_bond_site_symmetry_1
_geom_bond_site_symmetry_2
Cu1 O1 1_555 1_555
C1 H1 1_555 1_555
C2 C1 1_555 1_555
H2 C2 1_555 1_555
N1 C2 1_555 1_555
C3 N1 1_555 1_555
H3 C3 1_555 1_555
C4 C3 1_555 1_555
H4 C4 1_555 1_555
C5 C1 1_555 1_555
C6 C5 1_555 1_555
O1 C6 1_555 1_555
C7 C6 1_555 1_555
H5 C7 1_555 1_555
C8 C7 1_555 1_555
O2 Cu1 1_555 1_555
C9 C8 1_555 1_555
C10 C9 1_555 1_555
H6 C10 1_555 1_555
C11 C10 1_555 1_555
H7 C11 1_555 1_555
C12 C11 1_555 1_555
H8 C12 1_555 1_555
C13 C12 1_555 1_555
H9 C13 1_555 1_555
C14 C9 1_555 1_555
H10 C14 1_555 1_555
C15 H11 1_555 1_555
C16 C15 1_555 1_555
H12 C16 1_555 1_555
N2 C16 1_555 1_555
C17 N2 1_555 1_555
H13 C17 1_555 1_555
C18 C17 1_555 1_555
H14 C18 1_555 1_555
C19 C15 1_555 1_555
C20 C19 1_555 1_555
O3 Cu1 1_555 1_555
C21 C20 1_555 1_555
H15 C21 1_555 1_555
C22 C21 1_555 1_555
O4 Cu1 1_555 1_555
C23 C22 1_555 1_555
C24 C23 1_555 1_555
H16 C24 1_555 1_555
C25 C24 1_555 1_555
H17 C25 1_555 1_555
C26 C25 1_555 1_555
H18 C26 1_555 1_555
C27 C26 1_555 1_555
H19 C27 1_555 1_555
C28 C23 1_555 1_555
H20 C28 1_555 1_555
Cu1C N2 1_555 1_555
Cu1C_2 N1 1_555 1_555
N1C Cu1 1_555 1_555
N2C Cu1 1_555 1_555
C4 C5 1_555 1_555
C8 O2 1_555 1_555
C13 C14 1_555 1_555
C18 C19 1_555 1_555
C20 O3 1_555 1_555
C22 O4 1_555 1_555
C27 C28 1_555 1_555

#END
