
#######################################################################
#
#                 Cambridge Crystallographic Data Centre
#                                CCDC 
#
#######################################################################
#
# If this CIF has been generated from an entry in the Cambridge 
# Structural Database, then it will include bibliographic, chemical, 
# crystal, experimental, refinement or atomic coordinate data resulting 
# from the CCDC's data processing and validation procedures.
#
#######################################################################

data_OVABIX
_symmetry_cell_setting           monoclinic
_symmetry_space_group_name_H-M   'P 21/a'
_symmetry_Int_Tables_number      14
_space_group_name_Hall           '-P 2yab'
loop_
_symmetry_equiv_pos_site_id
_symmetry_equiv_pos_as_xyz
1 x,y,z
2 1/2-x,1/2+y,-z
3 -x,-y,-z
4 1/2+x,1/2-y,z
_cell_length_a                   10.11879(25)
_cell_length_b                   8.59360(19)
_cell_length_c                   6.07574(16)
_cell_angle_alpha                90
_cell_angle_beta                 92.4396(16)
_cell_angle_gamma                90
_cell_volume                     527.848
loop_
_atom_site_label
_atom_site_type_symbol
_atom_site_fract_x
_atom_site_fract_y
_atom_site_fract_z
Ca1 Ca 0.31977(25) 0.05174(30) 0.8234(5)
P1 P 0.56403(31) 0.2484(4) 0.5208(5)
O1 O 0.4413(5) 0.2404(8) 0.6586(10)
O2 O 0.6469(6) 0.3952(6) 0.5655(10)
O3 O 0.6449(6) 0.0985(6) 0.5389(11)
C1 C 0.5039(6) 0.2606(7) 0.2329(7)
O4 O 0.4570(7) 0.1114(7) 0.1691(10)
C2 C 0.6164(8) 0.3101(7) 0.0959(17)
O5 O 0.6922(6) 0.2065(7) 0.0186(12)
O6 O 0.6510(6) 0.4522(6) 0.0887(11)
Li1 Li 0.3293(9) 0.4286(10) 0.6433(16)
Ca1C Ca 0.81977(25) 0.44826(30) 0.8234(5)
Ca1B Ca 0.68023(25) -0.05174(30) 0.1766(5)
Ca1_2 Ca 0.31977(25) 0.05174(30) -0.1766(5)
Ca1C_2 Ca 0.81977(25) 0.44826(30) -0.1766(5)
O2C O 0.1469(6) 0.1048(6) 0.5655(10)
O2B O 0.3531(6) 0.6048(6) 0.4345(10)
O3B O 0.3551(6) -0.0985(6) 0.4611(11)
O3C O 0.1449(6) 0.4015(6) 0.5389(11)
O4_2 O 0.4570(7) 0.1114(7) 1.1691(10)
O4B O 0.5430(7) -0.1114(7) 0.8309(10)
O5C O 0.1922(6) 0.2935(7) 1.0186(12)
O5B O 0.3078(6) -0.2065(7) 0.9814(12)
O6C O 0.1510(6) 0.0478(6) 1.0887(11)
O6B O 0.3490(6) 0.5478(6) 0.9113(11)
Li1B Li 0.6707(9) 0.5714(10) 0.3567(16)
Li1C Li 0.8293(9) 0.0714(10) 0.6433(16)
loop_
_geom_bond_atom_site_label_1
_geom_bond_atom_site_label_2
_geom_bond_site_symmetry_1
_geom_bond_site_symmetry_2
Ca1 O1 1_555 1_555
P1 O1 1_555 1_555
O1 Li1 1_555 1_555
O2 P1 1_555 1_555
O3 P1 1_555 1_555
C1 P1 1_555 1_555
O4 C1 1_555 1_555
C2 C1 1_555 1_555
O5 C2 1_555 1_555
O6 C2 1_555 1_555
Li1 O2B 1_555 1_555
Ca1C O2 1_555 1_555
Ca1B O3 1_555 1_555
Ca1_2 O4 1_555 1_555
Ca1C_2 O5 1_555 1_555
O2C Ca1 1_555 1_555
O3B Ca1 1_555 1_555
O3C Li1 1_555 1_555
O4_2 Ca1 1_555 1_555
O4B Ca1 1_555 1_555
O5C Ca1 1_555 1_555
O5B Ca1 1_555 1_555
O6C Ca1 1_555 1_555
O6B Li1 1_555 1_555
Li1B O2 1_555 1_555
Li1C O3 1_555 1_555
O4 Ca1B 1_555 1_555
O5 Ca1B 1_555 1_555
O6 Ca1C_2 1_555 1_555
O6 Li1B 1_555 1_555

#END
