
#######################################################################
#
#                 Cambridge Crystallographic Data Centre
#                                CCDC 
#
#######################################################################
#
# If this CIF has been generated from an entry in the Cambridge 
# Structural Database, then it will include bibliographic, chemical, 
# crystal, experimental, refinement or atomic coordinate data resulting 
# from the CCDC's data processing and validation procedures.
#
#######################################################################

data_OVACOE
_symmetry_cell_setting           monoclinic
_symmetry_space_group_name_H-M   'C 2/c'
_symmetry_Int_Tables_number      15
_space_group_name_Hall           '-C 2yn'
loop_
_symmetry_equiv_pos_site_id
_symmetry_equiv_pos_as_xyz
1 x,y,z
2 -x,y,1/2-z
3 1/2+x,1/2+y,z
4 1/2-x,1/2+y,1/2-z
5 -x,-y,-z
6 x,-y,1/2+z
7 1/2-x,1/2-y,-z
8 1/2+x,1/2-y,1/2+z
_cell_length_a                   30.181(6)
_cell_length_b                   9.0918(18)
_cell_length_c                   17.920(4)
_cell_angle_alpha                90
_cell_angle_beta                 125.66(3)
_cell_angle_gamma                90
_cell_volume                     3995.21
loop_
_atom_site_label
_atom_site_type_symbol
_atom_site_fract_x
_atom_site_fract_y
_atom_site_fract_z
Ag1 Ag 0.006566(9) 0.252775(18) 0.432028(15)
N1 N 0.06949(9) 0.4176(2) 0.50925(13)
N2 N 0.44363(9) 0.4045(2) 0.89750(13)
C1 C 0.10076(12) 0.4682(3) 0.48450(17)
H1 H 0.0931 0.4369 0.4275
C2 C 0.14398(12) 0.5644(3) 0.53838(17)
H2 H 0.1655 0.5970 0.5186
C3 C 0.15551(10) 0.6129(2) 0.62208(15)
C4 C 0.12241(11) 0.5615(3) 0.64619(16)
H3 H 0.1287 0.5930 0.7022
C5 C 0.08023(11) 0.4647(3) 0.58999(16)
H4 H 0.0583 0.4305 0.6085
C6 C 0.20472(11) 0.7069(3) 0.68586(18)
H5 H 0.1997 0.7601 0.7287
H6 H 0.2091 0.7805 0.6499
C7 C 0.25541(11) 0.6102(3) 0.74001(18)
H7 H 0.2593 0.5560 0.6963
H8 H 0.2503 0.5368 0.7751
C8 C 0.30834(11) 0.6962(3) 0.80710(18)
H9 H 0.3102 0.7827 0.7755
H10 H 0.3085 0.7318 0.8595
C9 C 0.35698(10) 0.5985(2) 0.84175(15)
C10 C 0.38509(11) 0.5292(3) 0.92648(16)
H11 H 0.3751 0.5468 0.9672
C11 C 0.42770(11) 0.4344(3) 0.95197(16)
H12 H 0.4465 0.3885 1.0105
C12 C 0.41681(13) 0.4721(3) 0.81490(19)
H13 H 0.4278 0.4534 0.7757
C13 C 0.37396(13) 0.5674(3) 0.78567(19)
H14 H 0.3559 0.6122 0.7269
Ag1G Ag 0.506566(9) 0.247225(18) 0.932028(15)
N2G N -0.05637(9) 0.0955(2) 0.39750(13)
O1 O 0.14929(8) 0.61615(19) 0.85867(12)
O2 O 0.14852(8) 0.8370(2) 0.91135(13)
C14 C 0.17243(12) 0.7329(3) 0.90264(19)
C15 C 0.23374(13) 0.7494(2) 0.94829(19)
H15 H 0.2463 0.6671 0.9288
H16 H 0.2404 0.8423 0.9274
O1F O 0.35071(8) 0.88385(19) 1.14133(12)
O2F O 0.35148(8) 0.6630(2) 1.08865(13)
C14F C 0.32757(12) 0.7671(3) 1.09736(19)
C15F C 0.26626(13) 0.7506(2) 1.05171(19)
H15F H 0.2537 0.8329 1.0712
H16F H 0.2596 0.6577 1.0726
O3 O -0.03755(8) 0.39944(19) 0.27298(12)
H17 H -0.0720 0.3910 0.2365
H18 H -0.0149 0.3995 0.2593
O4 O -0.01803(10) 0.6925(2) 0.32704(16)
H20 H -0.0445 0.7421 0.2836
H21 H -0.0217 0.6067 0.3053
O5 O 0.04283(8) 0.11218(18) 0.34351(12)
H23 H 0.0736 0.1405 0.3573
H24 H 0.0173 0.1548 0.2947
O6 O 0.20896(9) 0.3638(2) 0.88629(14)
H25 H 0.1979 0.2910 0.9010
H26 H 0.1891 0.4384 0.8758
O7 O 0.18465(9) 0.11997(19) 0.95924(15)
H27 H 0.1757 0.0300 0.9463
H28 H 0.2161 0.1236 1.0101
O8 O 0.07241(9) 0.18030(19) 0.85108(14)
H29 H 0.1070 0.1776 0.8874
H30 H 0.0630 0.0905 0.8395
H19? H -0.0342 0.4920 0.2814
H22? H 0.0142 0.7101 0.3439
H31? H 0.0571 0.2598 0.8495
H32? H 0.0457 0.0200 0.3394
loop_
_geom_bond_atom_site_label_1
_geom_bond_atom_site_label_2
_geom_bond_site_symmetry_1
_geom_bond_site_symmetry_2
Ag1 N1 1_555 1_555
N1 C1 1_555 1_555
N2 C11 1_555 1_555
C1 H1 1_555 1_555
C2 C1 1_555 1_555
H2 C2 1_555 1_555
C3 C2 1_555 1_555
C4 C3 1_555 1_555
H3 C4 1_555 1_555
C5 N1 1_555 1_555
H4 C5 1_555 1_555
C6 C3 1_555 1_555
H5 C6 1_555 1_555
H6 C6 1_555 1_555
C7 C6 1_555 1_555
H7 C7 1_555 1_555
H8 C7 1_555 1_555
C8 C7 1_555 1_555
H9 C8 1_555 1_555
H10 C8 1_555 1_555
C9 C8 1_555 1_555
C10 C9 1_555 1_555
H11 C10 1_555 1_555
C11 C10 1_555 1_555
H12 C11 1_555 1_555
C12 N2 1_555 1_555
H13 C12 1_555 1_555
C13 C9 1_555 1_555
H14 C13 1_555 1_555
O1 C14 1_555 1_555
O2 C14 1_555 1_555
C14 C15 1_555 1_555
C15 H15 1_555 1_555
H16 C15 1_555 1_555
O3 H17 1_555 1_555
H18 O3 1_555 1_555
O4 H20 1_555 1_555
H21 O4 1_555 1_555
O5 H23 1_555 1_555
H24 O5 1_555 1_555
O6 H25 1_555 1_555
H26 O6 1_555 1_555
O7 H27 1_555 1_555
H28 O7 1_555 1_555
O8 H29 1_555 1_555
H30 O8 1_555 1_555
Ag1G N2 1_555 1_555
N2G Ag1 1_555 1_555
O1F C14F 1_555 1_555
O2F C14F 1_555 1_555
C14F C15F 1_555 1_555
C15F C15 1_555 1_555
H15F C15F 1_555 1_555
H16F C15F 1_555 1_555
C4 C5 1_555 1_555
C12 C13 1_555 1_555

#END
