
#######################################################################
#
#                 Cambridge Crystallographic Data Centre
#                                CCDC 
#
#######################################################################
#
# If this CIF has been generated from an entry in the Cambridge 
# Structural Database, then it will include bibliographic, chemical, 
# crystal, experimental, refinement or atomic coordinate data resulting 
# from the CCDC's data processing and validation procedures.
#
#######################################################################

data_OVAGEY
_symmetry_cell_setting           monoclinic
_symmetry_space_group_name_H-M   'P 21/c'
_symmetry_Int_Tables_number      14
_space_group_name_Hall           '-P 2ybc'
loop_
_symmetry_equiv_pos_site_id
_symmetry_equiv_pos_as_xyz
1 x,y,z
2 -x,1/2+y,1/2-z
3 -x,-y,-z
4 x,1/2-y,1/2+z
_cell_length_a                   9.211(3)
_cell_length_b                   16.057(6)
_cell_length_c                   15.507(6)
_cell_angle_alpha                90
_cell_angle_beta                 91.309(6)
_cell_angle_gamma                90
_cell_volume                     2292.9
loop_
_atom_site_label
_atom_site_type_symbol
_atom_site_fract_x
_atom_site_fract_y
_atom_site_fract_z
C1 C 1.0168(4) 0.0220(2) 0.8701(3)
C2 C 0.8989(4) 0.0858(3) 0.7403(3)
H1 H 0.8179 0.0975 0.7729
C3 C 0.3803(4) 0.1704(2) 0.8397(3)
C4 C 1.1362(5) 0.0272(3) 0.7290(3)
H2 H 1.2163 0.0011 0.7546
C5 C 0.4123(5) 0.1833(3) 0.7554(3)
H3 H 0.4996 0.1639 0.7342
C6 C 1.0192(5) 0.0876(3) 0.6083(3)
C7 C 0.5152(4) 0.1016(3) 1.2444(3)
C8 C 0.6295(5) 0.1482(3) 1.2756(3)
H4 H 0.6992 0.1677 1.2381
C9 C 1.0171(4) 0.0460(2) 0.7776(2)
C10 C 0.2531(5) 0.2009(3) 0.8717(3)
H5 H 0.2308 0.1915 0.9291
C11 C 0.4832(4) 0.1217(3) 0.8949(3)
C12 C 1.1370(5) 0.0470(3) 0.6431(3)
H6 H 1.2156 0.0332 0.6093
C13 C 0.4156(5) 0.0707(3) 1.2996(3)
H7 H 0.3377 0.0394 1.2783
C14 C 0.5014(4) 0.0817(3) 1.1507(3)
C15 C 0.1926(5) 0.2548(3) 0.7351(3)
C16 C 0.3163(5) 0.2251(3) 0.7013(3)
H8 H 0.3361 0.2326 0.6433
C17 C 0.5429(6) 0.1338(3) 1.4148(3)
C18 C 0.1583(5) 0.2454(3) 0.8193(3)
H9 H 0.0737 0.2681 0.8408
C19 C 0.6413(5) 0.1662(3) 1.3612(3)
H10 H 0.7158 0.2001 1.3823
C20 C 0.9009(5) 0.1081(3) 0.6550(3)
H11 H 0.8232 0.1365 0.6296
C21 C 0.4299(6) 0.0859(4) 1.3868(3)
H12 H 0.3641 0.0640 1.4253
Dy1 Dy 0.705680(17) 0.028927(12) 0.987569(11)
H13 H 0.898(6) 0.157(4) 1.051(3)
N1 N 0.5528(6) 0.1522(4) 1.5078(3)
N2 N 0.0886(5) 0.2988(3) 0.6774(3)
N3 N 1.0215(6) 0.1104(3) 0.5170(3)
O1 O 0.6093(3) 0.0946(2) 1.10515(19)
O2 O 0.4345(3) 0.07405(19) 0.95196(18)
O3 O 0.8463(4) 0.1542(2) 1.0055(2)
O4 O 1.1354(3) 0.0131(2) 0.90750(19)
O5 O 0.8980(3) 0.0106(2) 0.90405(19)
O6 O 0.6164(3) 0.1290(2) 0.8844(2)
O7 O 0.3810(3) 0.0531(2) 1.1249(2)
O8 O 0.9257(6) 0.1535(4) 0.4881(3)
O9 O 1.1158(6) 0.0840(4) 0.4735(3)
O10 O 0.4919(7) 0.1072(4) 1.5563(3)
O11 O 0.6238(6) 0.2101(3) 1.5323(3)
O12 O 0.1122(5) 0.2989(3) 0.6009(3)
O13 O -0.0150(5) 0.3312(3) 0.7083(3)
H14 H 0.793(6) 0.196(3) 1.017(4)
Dy1B Dy 0.294320(17) -0.028927(12) 1.012431(11)
Dy1B_2 Dy 1.294320(17) -0.028927(12) 1.012431(11)
O2B O 0.5655(3) -0.07405(19) 1.04804(18)
O4B O 0.8646(3) -0.0131(2) 1.09250(19)
O7B O 0.6190(3) -0.0531(2) 0.8751(2)
loop_
_geom_bond_atom_site_label_1
_geom_bond_atom_site_label_2
_geom_bond_site_symmetry_1
_geom_bond_site_symmetry_2
C1 C9 1_555 1_555
C2 H1 1_555 1_555
C3 C5 1_555 1_555
C4 H2 1_555 1_555
C5 H3 1_555 1_555
C6 C12 1_555 1_555
C7 C8 1_555 1_555
C8 H4 1_555 1_555
C9 C2 1_555 1_555
C10 C3 1_555 1_555
H5 C10 1_555 1_555
C11 C3 1_555 1_555
C12 C4 1_555 1_555
H6 C12 1_555 1_555
C13 C7 1_555 1_555
H7 C13 1_555 1_555
C14 C7 1_555 1_555
C15 C16 1_555 1_555
C16 C5 1_555 1_555
H8 C16 1_555 1_555
C17 C19 1_555 1_555
C18 C10 1_555 1_555
H9 C18 1_555 1_555
C19 C8 1_555 1_555
H10 C19 1_555 1_555
C20 C2 1_555 1_555
H11 C20 1_555 1_555
C21 C13 1_555 1_555
H12 C21 1_555 1_555
Dy1 O1 1_555 1_555
H13 O3 1_555 1_555
N1 C17 1_555 1_555
N2 C15 1_555 1_555
N3 C6 1_555 1_555
O1 C14 1_555 1_555
O2 C11 1_555 1_555
O3 Dy1 1_555 1_555
O4 C1 1_555 1_555
O5 C1 1_555 1_555
O6 C11 1_555 1_555
O7 C14 1_555 1_555
O8 N3 1_555 1_555
O9 N3 1_555 1_555
O10 N1 1_555 1_555
O11 N1 1_555 1_555
O12 N2 1_555 1_555
O13 N2 1_555 1_555
H14 O3 1_555 1_555
Dy1B O2 1_555 1_555
Dy1B_2 O4 1_555 1_555
O2B Dy1 1_555 1_555
O4B Dy1 1_555 1_555
O7B Dy1 1_555 1_555
C4 C9 1_555 1_555
C6 C20 1_555 1_555
C15 C18 1_555 1_555
C17 C21 1_555 1_555
Dy1 O2 1_555 1_555
Dy1 O5 1_555 1_555
Dy1 O6 1_555 1_555
O7 Dy1B 1_555 1_555
Dy1B O2B 1_555 1_555

#END
