
#######################################################################
#
#                 Cambridge Crystallographic Data Centre
#                                CCDC 
#
#######################################################################
#
# If this CIF has been generated from an entry in the Cambridge 
# Structural Database, then it will include bibliographic, chemical, 
# crystal, experimental, refinement or atomic coordinate data resulting 
# from the CCDC's data processing and validation procedures.
#
#######################################################################

data_OVAJIF
_symmetry_cell_setting           monoclinic
_symmetry_space_group_name_H-M   'C 2/c'
_symmetry_Int_Tables_number      15
_space_group_name_Hall           '-C 2yn'
loop_
_symmetry_equiv_pos_site_id
_symmetry_equiv_pos_as_xyz
1 x,y,z
2 -x,y,1/2-z
3 1/2+x,1/2+y,z
4 1/2-x,1/2+y,1/2-z
5 -x,-y,-z
6 x,-y,1/2+z
7 1/2-x,1/2-y,-z
8 1/2+x,1/2-y,1/2+z
_cell_length_a                   9.2668(19)
_cell_length_b                   18.828(4)
_cell_length_c                   17.267(3)
_cell_angle_alpha                90
_cell_angle_beta                 101.49(3)
_cell_angle_gamma                90
_cell_volume                     2952.29
loop_
_atom_site_label
_atom_site_type_symbol
_atom_site_fract_x
_atom_site_fract_y
_atom_site_fract_z
C1 C 0.2385(7) 0.2141(2) -0.0682(3)
H1 H 0.2322 0.1902 -0.1159
Cd1 Cd 0.0000 -0.042977(17) 0.2500
C2 C 0.0964(4) 0.04552(17) 0.1033(2)
C3 C 0.2509(4) 0.0213(2) 0.1230(3)
H2 H 0.2692 -0.0010 0.1740
H3 H 0.3154 0.0613 0.1239
H4 H 0.2685 -0.0121 0.0839
N1 N -0.0059(3) 0.03298(14) 0.14581(18)
C4 C -0.1316(4) 0.06853(17) 0.1075(2)
C5 C -0.1010(4) 0.10294(18) 0.0409(2)
N2 N 0.0435(3) 0.08642(15) 0.03913(17)
C6 C -0.2699(5) 0.0746(2) 0.1263(3)
H5 H -0.2930 0.0514 0.1698
C7 C -0.2028(5) 0.1450(2) -0.0077(3)
H6 H -0.1804 0.1680 -0.0514
C8 C 0.1875(4) 0.18251(16) -0.00886(19)
C9 C 0.1218(5) 0.10941(19) -0.0225(2)
H7 H 0.0539 0.1087 -0.0731
H8 H 0.1999 0.0757 -0.0252
C10 C 0.2003(7) 0.2190(2) 0.0594(3)
H9 H 0.1670 0.1985 0.1016
C11 C 0.2273(3) -0.13338(18) 0.2373(2)
O1 O 0.2337(2) -0.07824(13) 0.27988(16)
O2 O 0.1119(3) -0.15299(16) 0.19320(16)
C12 C 0.3678(3) -0.17417(16) 0.24196(18)
C13 C 0.5000 -0.1379(2) 0.2500
H10 H 0.5000 -0.0885 0.2500
C14 C 0.3683(4) -0.24743(18) 0.2391(2)
H11 H 0.2798 -0.2722 0.2298
C15 C 0.5000 -0.2840(3) 0.2500
H12 H 0.5000 -0.3334 0.2500
C16 C -0.3386(6) 0.1512(3) 0.0119(4)
H13 H -0.4104 0.1790 -0.0193
C17 C -0.3712(5) 0.1165(3) 0.0777(4)
H14 H -0.4645 0.1219 0.0891
C1F C 0.2615(7) 0.2859(2) 0.0682(3)
H1F H 0.2678 0.3098 0.1159
Cd1_2 Cd 1.0000 -0.042977(17) 0.2500
Cd1F Cd 0.5000 0.542977(17) -0.2500
C2F C 0.4036(4) 0.45448(17) -0.1033(2)
C3F C 0.2491(4) 0.4787(2) -0.1230(3)
H2F H 0.2308 0.5010 -0.1740
H3F H 0.1846 0.4387 -0.1239
H4F H 0.2315 0.5121 -0.0839
N1F N 0.5059(3) 0.46702(14) -0.14581(18)
N1A N 0.0059(3) 0.03298(14) 0.35419(18)
C4F C 0.6316(4) 0.43147(17) -0.1075(2)
C5F C 0.6010(4) 0.39706(18) -0.0409(2)
N2F N 0.4565(3) 0.41358(15) -0.03913(17)
C6F C 0.7699(5) 0.4254(2) -0.1263(3)
H5F H 0.7930 0.4486 -0.1698
C7F C 0.7028(5) 0.3550(2) 0.0077(3)
H6F H 0.6804 0.3320 0.0514
C8F C 0.3125(4) 0.31749(16) 0.00886(19)
C9F C 0.3782(5) 0.39059(19) 0.0225(2)
H7F H 0.4461 0.3913 0.0731
H8F H 0.3001 0.4243 0.0252
C10F C 0.2997(7) 0.2810(2) -0.0594(3)
H9F H 0.3330 0.3015 -0.1016
C11A C 0.7727(3) -0.13338(18) 0.2627(2)
O1A O 0.7663(2) -0.07824(13) 0.22012(16)
O1A_2 O -0.2337(2) -0.07824(13) 0.22012(16)
O2A O 0.8881(3) -0.15299(16) 0.30680(16)
O2A_2 O -0.1119(3) -0.15299(16) 0.30680(16)
C12A C 0.6322(3) -0.17417(16) 0.25804(18)
C14A C 0.6317(4) -0.24743(18) 0.2609(2)
H11A H 0.7202 -0.2722 0.2702
C16F C 0.8386(6) 0.3488(3) -0.0119(4)
H13F H 0.9104 0.3210 0.0193
C17F C 0.8712(5) 0.3835(3) -0.0777(4)
H14F H 0.9645 0.3781 -0.0891
O3 O 0.5000 0.2021(4) 0.2500
loop_
_geom_bond_atom_site_label_1
_geom_bond_atom_site_label_2
_geom_bond_site_symmetry_1
_geom_bond_site_symmetry_2
C1 H1 1_555 1_555
Cd1 N1 1_555 1_555
C2 C3 1_555 1_555
C3 H2 1_555 1_555
H3 C3 1_555 1_555
H4 C3 1_555 1_555
N1 C2 1_555 1_555
C4 N1 1_555 1_555
C5 C4 1_555 1_555
N2 C2 1_555 1_555
C6 C4 1_555 1_555
H5 C6 1_555 1_555
C7 C5 1_555 1_555
H6 C7 1_555 1_555
C8 C1 1_555 1_555
C9 N2 1_555 1_555
H7 C9 1_555 1_555
H8 C9 1_555 1_555
C10 C8 1_555 1_555
H9 C10 1_555 1_555
C11 O1 1_555 1_555
O1 Cd1 1_555 1_555
O2 Cd1 1_555 1_555
C12 C11 1_555 1_555
C13 C12 1_555 1_555
H10 C13 1_555 1_555
C14 C12 1_555 1_555
H11 C14 1_555 1_555
C15 C14 1_555 1_555
H12 C15 1_555 1_555
C16 C7 1_555 1_555
H13 C16 1_555 1_555
C17 C6 1_555 1_555
H14 C17 1_555 1_555
C1F C10 1_555 1_555
H1F C1F 1_555 1_555
Cd1_2 O1A 1_555 1_555
Cd1F N1F 1_555 1_555
C2F C3F 1_555 1_555
C3F H2F 1_555 1_555
H3F C3F 1_555 1_555
H4F C3F 1_555 1_555
N1F C2F 1_555 1_555
N1A Cd1 1_555 1_555
C4F N1F 1_555 1_555
C5F C4F 1_555 1_555
N2F C2F 1_555 1_555
C6F C4F 1_555 1_555
H5F C6F 1_555 1_555
C7F C5F 1_555 1_555
H6F C7F 1_555 1_555
C8F C1F 1_555 1_555
C9F N2F 1_555 1_555
H7F C9F 1_555 1_555
H8F C9F 1_555 1_555
C10F C1 1_555 1_555
H9F C10F 1_555 1_555
C11A O1A 1_555 1_555
O1A_2 Cd1 1_555 1_555
O2A Cd1_2 1_555 1_555
O2A_2 Cd1 1_555 1_555
C12A C13 1_555 1_555
C14A C15 1_555 1_555
H11A C14A 1_555 1_555
C16F C7F 1_555 1_555
H13F C16F 1_555 1_555
C17F C6F 1_555 1_555
H14F C17F 1_555 1_555
C5 N2 1_555 1_555
C8 C9 1_555 1_555
C11 O2 1_555 1_555
C16 C17 1_555 1_555
C5F N2F 1_555 1_555
C8F C9F 1_555 1_555
C8F C10F 1_555 1_555
C11A O2A 1_555 1_555
C11A C12A 1_555 1_555
C12A C14A 1_555 1_555
C16F C17F 1_555 1_555

#END
