
#######################################################################
#
#                 Cambridge Crystallographic Data Centre
#                                CCDC 
#
#######################################################################
#
# If this CIF has been generated from an entry in the Cambridge 
# Structural Database, then it will include bibliographic, chemical, 
# crystal, experimental, refinement or atomic coordinate data resulting 
# from the CCDC's data processing and validation procedures.
#
#######################################################################

data_OVEFAX
_symmetry_cell_setting           monoclinic
_symmetry_space_group_name_H-M   'P 21/c'
_symmetry_Int_Tables_number      14
_space_group_name_Hall           '-P 2ybc'
loop_
_symmetry_equiv_pos_site_id
_symmetry_equiv_pos_as_xyz
1 x,y,z
2 -x,1/2+y,1/2-z
3 -x,-y,-z
4 x,1/2-y,1/2+z
_cell_length_a                   14.4764(17)
_cell_length_b                   9.0436(11)
_cell_length_c                   16.3060(19)
_cell_angle_alpha                90
_cell_angle_beta                 113.000(2)
_cell_angle_gamma                90
_cell_volume                     1965.06
loop_
_atom_site_label
_atom_site_type_symbol
_atom_site_fract_x
_atom_site_fract_y
_atom_site_fract_z
Zn1 Zn 0.30359(2) -0.05702(3) 1.186954(18)
Zn2 Zn 0.0000 0.0000 1.0000
Cl1 Cl 0.13887(5) -0.12618(8) 1.13694(5)
Cl2 Cl 0.35769(5) 0.01390(7) 1.08226(4)
Cl3 Cl 0.39192(5) -0.22101(8) 1.28840(5)
N1 N 0.02983(14) 0.2034(2) 1.07488(13)
N2 N 0.10029(14) 0.1048(2) 0.95796(12)
N3 N 0.14325(15) 0.0733(2) 0.89810(13)
N4 N 0.19710(13) 0.2907(2) 0.96112(12)
N5 N 0.31233(14) 0.3564(2) 0.75359(13)
N6 N 0.21864(17) 0.5474(2) 0.95693(17)
C1 C -0.00952(18) 0.2454(3) 1.13250(16)
H1 H -0.0548 0.1825 1.1425
C2 C 0.01355(19) 0.3776(3) 1.17798(17)
H2 H -0.0154 0.4032 1.2178
C3 C 0.0803(2) 0.4704(3) 1.16305(19)
H3 H 0.0974 0.5602 1.1931
C4 C 0.1220(2) 0.4301(3) 1.10317(18)
H4 H 0.1669 0.4922 1.0919
C5 C 0.09558(16) 0.2953(3) 1.06042(15)
C6 C 0.13220(16) 0.2341(2) 0.99526(15)
C7 C 0.20128(17) 0.1863(3) 0.90144(15)
C8 C 0.26272(16) 0.2033(3) 0.84876(15)
C9 C 0.25693(17) 0.3328(3) 0.80137(15)
H5 H 0.2127 0.4062 0.8029
C10 C 0.37589(18) 0.2499(3) 0.75215(17)
H6 H 0.4164 0.2665 0.7207
C11 C 0.3838(2) 0.1167(3) 0.79548(18)
H7 H 0.4274 0.0439 0.7916
C12 C 0.32626(19) 0.0926(3) 0.84469(17)
H8 H 0.3303 0.0035 0.8744
C13 C 0.26200(17) 0.4200(2) 0.98839(15)
C14 C 0.2791(2) 0.6652(3) 0.9789(2)
H9 H 0.2509 0.7576 0.9594
C15 C 0.3801(2) 0.6580(3) 1.0283(2)
H10 H 0.4195 0.7429 1.0405
C16 C 0.4217(2) 0.5240(3) 1.0593(2)
H11 H 0.4900 0.5162 1.0938
C17 C 0.36154(18) 0.3994(3) 1.03913(17)
H12 H 0.3876 0.3061 1.0591
Zn1B Zn -0.30359(2) 0.05702(3) 0.813046(18)
Zn1C Zn 0.30359(2) 0.55702(3) 0.686954(18)
Zn1A Zn -0.30359(2) -0.55702(3) 1.313046(18)
Cl1B Cl -0.13887(5) 0.12618(8) 0.86306(5)
Cl2B Cl -0.35769(5) -0.01390(7) 0.91774(4)
Cl3B Cl -0.39192(5) 0.22101(8) 0.71160(5)
N1B N -0.02983(14) -0.2034(2) 0.92512(13)
N2B N -0.10029(14) -0.1048(2) 1.04204(12)
N3B N -0.14325(15) -0.0733(2) 1.10190(13)
N4B N -0.19710(13) -0.2907(2) 1.03888(12)
N5B N -0.31233(14) -0.3564(2) 1.24641(13)
N5C N 0.31233(14) 0.1436(2) 1.25359(13)
N5A N -0.31233(14) -0.1436(2) 0.74641(13)
N6B N -0.21864(17) -0.5474(2) 1.04307(17)
C1B C 0.00952(18) -0.2454(3) 0.86750(16)
H1B H 0.0548 -0.1825 0.8575
C2B C -0.01355(19) -0.3776(3) 0.82202(17)
H2B H 0.0154 -0.4032 0.7822
C3B C -0.0803(2) -0.4704(3) 0.83695(19)
H3B H -0.0974 -0.5602 0.8069
C4B C -0.1220(2) -0.4301(3) 0.89683(18)
H4B H -0.1669 -0.4922 0.9081
C5B C -0.09558(16) -0.2953(3) 0.93958(15)
C6B C -0.13220(16) -0.2341(2) 1.00474(15)
C7B C -0.20128(17) -0.1863(3) 1.09856(15)
C8B C -0.26272(16) -0.2033(3) 1.15124(15)
C9B C -0.25693(17) -0.3328(3) 1.19863(15)
H5B H -0.2127 -0.4062 1.1971
C10B C -0.37589(18) -0.2499(3) 1.24785(17)
H6B H -0.4164 -0.2665 1.2793
C11B C -0.3838(2) -0.1167(3) 1.20452(18)
H7B H -0.4274 -0.0439 1.2084
C12B C -0.32626(19) -0.0926(3) 1.15531(17)
H8B H -0.3303 -0.0035 1.1256
C13B C -0.26200(17) -0.4200(2) 1.01161(15)
C14B C -0.2791(2) -0.6652(3) 1.0211(2)
H9B H -0.2509 -0.7576 1.0406
C15B C -0.3801(2) -0.6580(3) 0.9717(2)
H10B H -0.4195 -0.7429 0.9595
C16B C -0.4217(2) -0.5240(3) 0.9407(2)
H11B H -0.4900 -0.5162 0.9062
C17B C -0.36154(18) -0.3994(3) 0.96087(17)
H12B H -0.3876 -0.3061 0.9409
loop_
_geom_bond_atom_site_label_1
_geom_bond_atom_site_label_2
_geom_bond_site_symmetry_1
_geom_bond_site_symmetry_2
Zn1 Cl1 1_555 1_555
Zn2 Cl1 1_555 1_555
Cl2 Zn1 1_555 1_555
Cl3 Zn1 1_555 1_555
N1 Zn2 1_555 1_555
N2 Zn2 1_555 1_555
N3 N2 1_555 1_555
N4 C6 1_555 1_555
N5 C9 1_555 1_555
N6 C13 1_555 1_555
C1 N1 1_555 1_555
H1 C1 1_555 1_555
C2 C1 1_555 1_555
H2 C2 1_555 1_555
C3 C2 1_555 1_555
H3 C3 1_555 1_555
C4 C3 1_555 1_555
H4 C4 1_555 1_555
C5 N1 1_555 1_555
C6 N2 1_555 1_555
C7 N3 1_555 1_555
C8 C7 1_555 1_555
C9 C8 1_555 1_555
H5 C9 1_555 1_555
C10 N5 1_555 1_555
H6 C10 1_555 1_555
C11 C10 1_555 1_555
H7 C11 1_555 1_555
C12 C8 1_555 1_555
H8 C12 1_555 1_555
C13 N4 1_555 1_555
C14 N6 1_555 1_555
H9 C14 1_555 1_555
C15 C14 1_555 1_555
H10 C15 1_555 1_555
C16 C15 1_555 1_555
H11 C16 1_555 1_555
C17 C13 1_555 1_555
H12 C17 1_555 1_555
Zn1B Cl1B 1_555 1_555
Zn1C N5 1_555 1_555
Zn1A N5B 1_555 1_555
Cl1B Zn2 1_555 1_555
Cl2B Zn1B 1_555 1_555
Cl3B Zn1B 1_555 1_555
N1B Zn2 1_555 1_555
N2B Zn2 1_555 1_555
N3B N2B 1_555 1_555
N4B C6B 1_555 1_555
N5B C9B 1_555 1_555
N5C Zn1 1_555 1_555
N5A Zn1B 1_555 1_555
N6B C13B 1_555 1_555
C1B N1B 1_555 1_555
H1B C1B 1_555 1_555
C2B C1B 1_555 1_555
H2B C2B 1_555 1_555
C3B C2B 1_555 1_555
H3B C3B 1_555 1_555
C4B C3B 1_555 1_555
H4B C4B 1_555 1_555
C5B N1B 1_555 1_555
C6B N2B 1_555 1_555
C7B N3B 1_555 1_555
C8B C7B 1_555 1_555
C9B C8B 1_555 1_555
H5B C9B 1_555 1_555
C10B N5B 1_555 1_555
H6B C10B 1_555 1_555
C11B C10B 1_555 1_555
H7B C11B 1_555 1_555
C12B C8B 1_555 1_555
H8B C12B 1_555 1_555
C13B N4B 1_555 1_555
C14B N6B 1_555 1_555
H9B C14B 1_555 1_555
C15B C14B 1_555 1_555
H10B C15B 1_555 1_555
C16B C15B 1_555 1_555
H11B C16B 1_555 1_555
C17B C13B 1_555 1_555
H12B C17B 1_555 1_555
N4 C7 1_555 1_555
C4 C5 1_555 1_555
C5 C6 1_555 1_555
C11 C12 1_555 1_555
C16 C17 1_555 1_555
N4B C7B 1_555 1_555
C4B C5B 1_555 1_555
C5B C6B 1_555 1_555
C11B C12B 1_555 1_555
C16B C17B 1_555 1_555

#END
