
#######################################################################
#
#                 Cambridge Crystallographic Data Centre
#                                CCDC 
#
#######################################################################
#
# If this CIF has been generated from an entry in the Cambridge 
# Structural Database, then it will include bibliographic, chemical, 
# crystal, experimental, refinement or atomic coordinate data resulting 
# from the CCDC's data processing and validation procedures.
#
#######################################################################

data_OVEFEB
_symmetry_cell_setting           monoclinic
_symmetry_space_group_name_H-M   'P 21/c'
_symmetry_Int_Tables_number      14
_space_group_name_Hall           '-P 2ybc'
loop_
_symmetry_equiv_pos_site_id
_symmetry_equiv_pos_as_xyz
1 x,y,z
2 -x,1/2+y,1/2-z
3 -x,-y,-z
4 x,1/2-y,1/2+z
_cell_length_a                   9.6082(3)
_cell_length_b                   15.3996(5)
_cell_length_c                   14.5850(4)
_cell_angle_alpha                90
_cell_angle_beta                 117.837(2)
_cell_angle_gamma                90
_cell_volume                     1908.3
loop_
_atom_site_label
_atom_site_type_symbol
_atom_site_fract_x
_atom_site_fract_y
_atom_site_fract_z
Cd1 Cd 0.498198(19) 0.970250(10) 0.635449(14)
Cl1 Cl 0.70335(7) 1.03726(4) 0.59289(5)
Cl2 Cl 0.63988(9) 0.97683(4) 0.82804(5)
N1 N 0.5674(2) 0.82552(12) 0.61467(15)
N2 N 0.2845(2) 0.87361(12) 0.60342(15)
N3 N 0.1253(2) 0.88948(12) 0.56343(15)
N4 N 0.1574(2) 0.76450(11) 0.50256(14)
N5 N -0.3604(2) 0.90132(12) 0.38459(15)
N6 N 0.0976(2) 0.61699(12) 0.47077(16)
C1 C 0.7137(3) 0.80030(17) 0.6406(2)
H1 H 0.7913 0.8425 0.6587
C2 C 0.7553(3) 0.71443(18) 0.6418(2)
H2 H 0.8579 0.6991 0.6582
C3 C 0.6414(3) 0.65220(18) 0.6182(2)
H3 H 0.6668 0.5937 0.6199
C4 C 0.4898(3) 0.67641(16) 0.5920(2)
H4 H 0.4116 0.6349 0.5763
C5 C 0.4561(3) 0.76396(15) 0.58963(18)
C6 C 0.3017(2) 0.79926(14) 0.56586(17)
C7 C 0.0504(3) 0.82399(13) 0.50330(17)
C8 C -0.1221(2) 0.81864(14) 0.44700(17)
C9 C -0.2084(3) 0.74273(15) 0.41368(19)
H5 H -0.1582 0.6893 0.4239
C10 C -0.3713(3) 0.74798(16) 0.3647(2)
H6 H -0.4321 0.6980 0.3408
C11 C -0.4413(3) 0.82718(15) 0.3521(2)
H7 H -0.5507 0.8298 0.3192
C12 C -0.2033(3) 0.89660(15) 0.43082(18)
H8 H -0.1457 0.9478 0.4532
C13 C 0.1298(2) 0.68955(14) 0.43620(17)
C14 C 0.0765(3) 0.54642(17) 0.4131(2)
H9 H 0.0533 0.4944 0.4354
C15 C 0.0870(3) 0.5464(2) 0.3240(3)
H10 H 0.0705 0.4955 0.2859
C16 C 0.1218(4) 0.6214(3) 0.2908(2)
H11 H 0.1305 0.6224 0.2299
C17 C 0.1447(3) 0.6974(2) 0.3488(2)
H12 H 0.1686 0.7502 0.3285
Cd1B Cd 0.501802(19) 1.029750(10) 0.364551(14)
Cd1B_2 Cd -0.498198(19) 1.029750(10) 0.364551(14)
Cl1B Cl 0.29665(7) 0.96274(4) 0.40711(5)
N5B N 0.3604(2) 1.09868(12) 0.61541(15)
O1 O 0.1273(2) 0.64886(12) 0.68317(15)
H13 H 0.1703 0.6135 0.7335
H14 H 0.1262 0.6337 0.6268
loop_
_geom_bond_atom_site_label_1
_geom_bond_atom_site_label_2
_geom_bond_site_symmetry_1
_geom_bond_site_symmetry_2
Cd1 Cl1 1_555 1_555
Cl1 Cd1B 1_555 1_555
Cl2 Cd1 1_555 1_555
N1 Cd1 1_555 1_555
N2 Cd1 1_555 1_555
N3 N2 1_555 1_555
N4 C6 1_555 1_555
N5 C11 1_555 1_555
N6 C13 1_555 1_555
C1 N1 1_555 1_555
H1 C1 1_555 1_555
C2 C1 1_555 1_555
H2 C2 1_555 1_555
C3 C2 1_555 1_555
H3 C3 1_555 1_555
C4 C3 1_555 1_555
H4 C4 1_555 1_555
C5 N1 1_555 1_555
C6 N2 1_555 1_555
C7 N3 1_555 1_555
C8 C7 1_555 1_555
C9 C8 1_555 1_555
H5 C9 1_555 1_555
C10 C9 1_555 1_555
H6 C10 1_555 1_555
C11 C10 1_555 1_555
H7 C11 1_555 1_555
C12 N5 1_555 1_555
H8 C12 1_555 1_555
C13 N4 1_555 1_555
C14 N6 1_555 1_555
H9 C14 1_555 1_555
C15 C14 1_555 1_555
H10 C15 1_555 1_555
C16 C15 1_555 1_555
H11 C16 1_555 1_555
C17 C13 1_555 1_555
H12 C17 1_555 1_555
O1 H13 1_555 1_555
H14 O1 1_555 1_555
Cd1B Cl1B 1_555 1_555
Cd1B_2 N5 1_555 1_555
Cl1B Cd1 1_555 1_555
N5B Cd1 1_555 1_555
N4 C7 1_555 1_555
C4 C5 1_555 1_555
C5 C6 1_555 1_555
C8 C12 1_555 1_555
C16 C17 1_555 1_555

#END
