
#######################################################################
#
#                 Cambridge Crystallographic Data Centre
#                                CCDC 
#
#######################################################################
#
# If this CIF has been generated from an entry in the Cambridge 
# Structural Database, then it will include bibliographic, chemical, 
# crystal, experimental, refinement or atomic coordinate data resulting 
# from the CCDC's data processing and validation procedures.
#
#######################################################################

data_OVEFUR
_symmetry_cell_setting           monoclinic
_symmetry_space_group_name_H-M   'P 21/c'
_symmetry_Int_Tables_number      14
_space_group_name_Hall           '-P 2ybc'
loop_
_symmetry_equiv_pos_site_id
_symmetry_equiv_pos_as_xyz
1 x,y,z
2 -x,1/2+y,1/2-z
3 -x,-y,-z
4 x,1/2-y,1/2+z
_cell_length_a                   10.327(4)
_cell_length_b                   11.613(4)
_cell_length_c                   22.455(9)
_cell_angle_alpha                90
_cell_angle_beta                 97.026(5)
_cell_angle_gamma                90
_cell_volume                     2672.75
loop_
_atom_site_label
_atom_site_type_symbol
_atom_site_fract_x
_atom_site_fract_y
_atom_site_fract_z
Co1 Co 0.23969(4) 0.45000(4) 0.22798(2)
O1 O 0.0341(2) 0.4362(2) 0.22072(12)
O2 O 0.1219(2) 0.5746(2) 0.27888(13)
C1 C -0.1114(3) 0.5546(3) 0.26869(17)
C2 C 0.0220(3) 0.5204(3) 0.25581(17)
C3 C -0.1268(3) 0.6576(3) 0.29888(16)
N1 N 0.0839(3) 0.9007(3) 0.00833(15)
N2 N 0.2222(3) 0.5803(3) 0.15823(14)
N3 N 0.2576(3) 0.3526(3) 0.31076(15)
C4 C -0.2517(3) 0.6962(3) 0.30605(15)
C5 C -0.3600(3) 0.6308(3) 0.28421(17)
C6 C -0.2198(3) 0.4895(3) 0.24642(17)
C7 C 0.2136(4) 0.7555(3) 0.07169(19)
C8 C 0.0432(5) 0.9634(4) 0.0596(2)
C9 C 0.1609(4) 0.2917(4) 0.3284(2)
C10 C 0.1596(4) 0.5667(4) 0.1026(2)
N4 N 0.4233(4) 0.0998(4) 0.48533(17)
C11 C 0.2136(5) 0.8484(4) 0.0242(3)
C12 C 0.1542(5) 0.6505(4) 0.0586(2)
C13 C 0.2769(5) 0.6837(3) 0.1707(2)
C14 C 0.3029(7) 0.1649(8) 0.4784(3)
C15 C 0.1708(5) 0.2293(4) 0.3820(2)
C16 C 0.0898(5) 0.9813(4) -0.0423(2)
C17 C 0.2738(5) 0.7707(4) 0.1287(2)
C18 C 0.4596(6) 0.0625(5) 0.5475(2)
H1 H 0.3923 0.0125 0.5597
H2 H 0.4670 0.1291 0.5738
C19 C 0.2846(5) 0.2302(5) 0.4198(2)
C20 C 0.4135(6) 0.0004(6) 0.4470(3)
C21 C 0.3857(6) 0.2975(9) 0.4027(3)
C22 C 0.3671(5) 0.3569(7) 0.3491(3)
O3 O -0.5717(2) 0.4990(2) 0.24460(12)
O4 O -0.4529(2) 0.3687(2) 0.20241(15)
N5 N -0.2674(3) 0.8073(3) 0.33190(15)
C23 C -0.4642(3) 0.4576(3) 0.23126(17)
C24 C -0.3449(3) 0.5275(3) 0.25474(17)
H3 H -0.056(4) 0.704(3) 0.3124(17)
H4 H -0.449(4) 0.656(3) 0.2905(16)
H5 H -0.216(5) 0.427(4) 0.221(2)
H6 H 0.317(5) 0.675(4) 0.212(2)
H7 H 0.029(5) 0.911(4) 0.094(2)
H8 H 0.111(6) 1.030(5) 0.076(2)
H9 H 0.127(4) 0.496(4) 0.0970(19)
H10 H 0.147(5) 1.048(4) -0.028(2)
H11 H 0.120(5) 0.626(4) 0.018(2)
H12 H 0.127(5) 0.927(4) -0.076(2)
H13 H -0.348(5) 0.823(4) 0.340(2)
H14 H -0.220(5) 0.816(4) 0.366(2)
H15 H 0.095(6) 0.192(5) 0.393(3)
H16 H 0.309(4) 0.823(4) 0.1398(19)
H17 H 0.068(6) 0.290(5) 0.296(3)
H18 H 0.433(6) 0.403(5) 0.334(2)
H19 H 0.339(7) -0.041(6) 0.462(3)
H20 H 0.386(6) 0.031(5) 0.403(3)
H21 H 0.270(6) 0.907(6) 0.039(3)
H22 H 0.236(7) 0.827(6) -0.014(3)
H23 H 0.213(8) 0.107(7) 0.466(3)
H24 H 0.320(6) 0.222(6) 0.512(3)
H25 H 0.482(10) 0.284(9) 0.428(5)
Co1_2 Co 1.23969(4) 0.45000(4) 0.22798(2)
Co1_3 Co -0.76031(4) 0.45000(4) 0.22798(2)
Co1A Co -0.23969(4) 0.95000(4) 0.27202(2)
Co1B Co -0.23969(4) 1.55000(4) -0.22798(2)
Co1B_2 Co 0.76031(4) -0.45000(4) 0.77202(2)
Co1A_2 Co 0.76031(4) 0.95000(4) 0.27202(2)
O1_2 O 1.0341(2) 0.4362(2) 0.22072(12)
O2_2 O 1.1219(2) 0.5746(2) 0.27888(13)
C1_2 C 0.8886(3) 0.5546(3) 0.26869(17)
C2_2 C 1.0220(3) 0.5204(3) 0.25581(17)
C3_2 C 0.8732(3) 0.6576(3) 0.29888(16)
N1B N -0.0839(3) 1.0993(3) -0.00833(15)
N2B N -0.2222(3) 1.4197(3) -0.15823(14)
N2_2 N 1.2222(3) 0.5803(3) 0.15823(14)
N3B N 0.7424(3) -0.3526(3) 0.68924(15)
N3_2 N 1.2576(3) 0.3526(3) 0.31076(15)
C4_2 C 0.7483(3) 0.6962(3) 0.30605(15)
C5_2 C 0.6400(3) 0.6308(3) 0.28421(17)
C6_2 C 0.7802(3) 0.4895(3) 0.24642(17)
C7B C -0.2136(4) 1.2445(3) -0.07169(19)
C8B C -0.0432(5) 1.0366(4) -0.0596(2)
C9B C 0.8391(4) -0.2917(4) 0.6716(2)
C10B C -0.1596(4) 1.4333(4) -0.1026(2)
N4B N 0.5767(4) -0.0998(4) 0.51467(17)
C11B C -0.2136(5) 1.1516(4) -0.0242(3)
C12B C -0.1542(5) 1.3495(4) -0.0586(2)
C13B C -0.2769(5) 1.3163(3) -0.1707(2)
C14B C 0.6971(7) -0.1649(8) 0.5216(3)
C15B C 0.8292(5) -0.2293(4) 0.6180(2)
C16B C -0.0898(5) 1.0187(4) 0.0423(2)
C17B C -0.2738(5) 1.2293(4) -0.1287(2)
C18B C 0.5404(6) -0.0625(5) 0.4525(2)
H1B H 0.6077 -0.0125 0.4403
H2B H 0.5330 -0.1291 0.4262
C19B C 0.7154(5) -0.2302(5) 0.5802(2)
C20B C 0.5865(6) -0.0004(6) 0.5530(3)
C21B C 0.6143(6) -0.2975(9) 0.5973(3)
C22B C 0.6329(5) -0.3569(7) 0.6509(3)
O3_2 O 0.4283(2) 0.4990(2) 0.24460(12)
O3_3 O 1.4283(2) 0.4990(2) 0.24460(12)
O4_2 O 0.5471(2) 0.3687(2) 0.20241(15)
N5_2 N 0.7326(3) 0.8073(3) 0.33190(15)
N5A N 0.2674(3) 0.3073(3) 0.16810(15)
N5A_2 N 1.2674(3) 0.3073(3) 0.16810(15)
C23_2 C 0.5358(3) 0.4576(3) 0.23126(17)
C24_2 C 0.6551(3) 0.5275(3) 0.25474(17)
H3_2 H 0.944(4) 0.704(3) 0.3124(17)
H4_2 H 0.551(4) 0.656(3) 0.2905(16)
H5_2 H 0.784(5) 0.427(4) 0.221(2)
H6B H -0.317(5) 1.325(4) -0.212(2)
H7B H -0.029(5) 1.089(4) -0.094(2)
H8B H -0.111(6) 0.970(5) -0.076(2)
H9B H -0.127(4) 1.504(4) -0.0970(19)
H10B H -0.147(5) 0.952(4) 0.028(2)
H11B H -0.120(5) 1.374(4) -0.018(2)
H12B H -0.127(5) 1.073(4) 0.076(2)
H13_2 H 0.652(5) 0.823(4) 0.340(2)
H13A H 0.348(5) 0.323(4) 0.160(2)
H13A_2 H 1.348(5) 0.323(4) 0.160(2)
H14_2 H 0.780(5) 0.816(4) 0.366(2)
H14A H 0.220(5) 0.316(4) 0.134(2)
H14A_2 H 1.220(5) 0.316(4) 0.134(2)
H15B H 0.905(6) -0.192(5) 0.607(3)
H16B H -0.309(4) 1.177(4) -0.1398(19)
H17B H 0.932(6) -0.290(5) 0.704(3)
H18B H 0.567(6) -0.403(5) 0.666(2)
H19B H 0.661(7) 0.041(6) 0.538(3)
H20B H 0.614(6) -0.031(5) 0.597(3)
H21B H -0.270(6) 1.093(6) -0.039(3)
H22B H -0.236(7) 1.173(6) 0.014(3)
H23B H 0.787(8) -0.107(7) 0.534(3)
H24B H 0.680(6) -0.222(6) 0.488(3)
H25B H 0.518(10) -0.284(9) 0.572(5)
O5 O -0.0730(4) 0.7211(3) -0.05975(17)
O6 O -0.2938(4) 0.2237(4) 0.14382(19)
O7 O -0.1151(5) 0.3814(4) 0.1124(2)
loop_
_geom_bond_atom_site_label_1
_geom_bond_atom_site_label_2
_geom_bond_site_symmetry_1
_geom_bond_site_symmetry_2
Co1 O1 1_555 1_555
O1 C2 1_555 1_555
O2 Co1 1_555 1_555
C1 C2 1_555 1_555
C2 O2 1_555 1_555
C3 C1 1_555 1_555
N1 C8 1_555 1_555
N2 Co1 1_555 1_555
N3 Co1 1_555 1_555
C4 C3 1_555 1_555
C5 C4 1_555 1_555
C6 C1 1_555 1_555
C7 C11 1_555 1_555
C8 H7 1_555 1_555
C9 N3 1_555 1_555
C10 N2 1_555 1_555
N4 C14 1_555 1_555
C11 N1 1_555 1_555
C12 C7 1_555 1_555
C13 N2 1_555 1_555
C14 C19 1_555 1_555
C15 C9 1_555 1_555
C16 N1 1_555 1_555
C17 C7 1_555 1_555
C18 N4 1_555 1_555
H1 C18 1_555 1_555
H2 C18 1_555 1_555
C19 C15 1_555 1_555
C20 N4 1_555 1_555
C21 C19 1_555 1_555
C22 N3 1_555 1_555
O3 C23 1_555 1_555
O4 C23 1_555 1_555
N5 C4 1_555 1_555
C23 C24 1_555 1_555
C24 C5 1_555 1_555
H3 C3 1_555 1_555
H4 C5 1_555 1_555
H5 C6 1_555 1_555
H6 C13 1_555 1_555
H8 C8 1_555 1_555
H9 C10 1_555 1_555
H10 C16 1_555 1_555
H11 C12 1_555 1_555
H12 C16 1_555 1_555
H13 N5 1_555 1_555
H14 N5 1_555 1_555
H15 C15 1_555 1_555
H16 C17 1_555 1_555
H17 C9 1_555 1_555
H18 C22 1_555 1_555
H19 C20 1_555 1_555
H20 C20 1_555 1_555
H21 C11 1_555 1_555
H22 C11 1_555 1_555
H23 C14 1_555 1_555
H24 C14 1_555 1_555
H25 C21 1_555 1_555
Co1_2 O1_2 1_555 1_555
Co1_3 O3 1_555 1_555
Co1A N5 1_555 1_555
Co1B N2B 1_555 1_555
Co1B_2 N3B 1_555 1_555
Co1A_2 N5_2 1_555 1_555
O1_2 C2_2 1_555 1_555
O2_2 Co1_2 1_555 1_555
C1_2 C2_2 1_555 1_555
C2_2 O2_2 1_555 1_555
C3_2 C1_2 1_555 1_555
N1B C8B 1_555 1_555
N2B C10B 1_555 1_555
N2_2 Co1_2 1_555 1_555
N3B C9B 1_555 1_555
N3_2 Co1_2 1_555 1_555
C4_2 C3_2 1_555 1_555
C5_2 C4_2 1_555 1_555
C6_2 C1_2 1_555 1_555
C7B C11B 1_555 1_555
C8B C16 1_555 1_555
C9B C15B 1_555 1_555
C10B C12B 1_555 1_555
N4B C14B 1_555 1_555
C11B N1B 1_555 1_555
C12B C7B 1_555 1_555
C13B N2B 1_555 1_555
C14B C19B 1_555 1_555
C15B C19B 1_555 1_555
C16B C8 1_555 1_555
C17B C7B 1_555 1_555
C18B C20 1_555 1_555
H1B C18B 1_555 1_555
H2B C18B 1_555 1_555
C19B C21B 1_555 1_555
C20B C18 1_555 1_555
C21B C22B 1_555 1_555
C22B N3B 1_555 1_555
O3_2 Co1 1_555 1_555
O3_3 Co1_2 1_555 1_555
O4_2 C23_2 1_555 1_555
N5_2 C4_2 1_555 1_555
N5A Co1 1_555 1_555
N5A_2 Co1_2 1_555 1_555
C23_2 O3_2 1_555 1_555
C24_2 C5_2 1_555 1_555
H3_2 C3_2 1_555 1_555
H4_2 C5_2 1_555 1_555
H5_2 C6_2 1_555 1_555
H6B C13B 1_555 1_555
H7B C8B 1_555 1_555
H8B C8B 1_555 1_555
H9B C10B 1_555 1_555
H10B C16B 1_555 1_555
H11B C12B 1_555 1_555
H12B C16B 1_555 1_555
H13_2 N5_2 1_555 1_555
H13A N5A 1_555 1_555
H13A_2 N5A_2 1_555 1_555
H14_2 N5_2 1_555 1_555
H14A N5A 1_555 1_555
H14A_2 N5A_2 1_555 1_555
H15B C15B 1_555 1_555
H16B C17B 1_555 1_555
H17B C9B 1_555 1_555
H18B C22B 1_555 1_555
H19B C20B 1_555 1_555
H20B C20B 1_555 1_555
H21B C11B 1_555 1_555
H22B C11B 1_555 1_555
H23B C14B 1_555 1_555
H24B C14B 1_555 1_555
H25B C21B 1_555 1_555
C6 C24 1_555 1_555
C10 C12 1_555 1_555
C13 C17 1_555 1_555
C21 C22 1_555 1_555
N1B C16B 1_555 1_555
C6_2 C24_2 1_555 1_555
N4B C18B 1_555 1_555
N4B C20B 1_555 1_555
C13B C17B 1_555 1_555
C23_2 C24_2 1_555 1_555

#END
