
#######################################################################
#
#                 Cambridge Crystallographic Data Centre
#                                CCDC 
#
#######################################################################
#
# If this CIF has been generated from an entry in the Cambridge 
# Structural Database, then it will include bibliographic, chemical, 
# crystal, experimental, refinement or atomic coordinate data resulting 
# from the CCDC's data processing and validation procedures.
#
#######################################################################

data_OVEGIG
_symmetry_cell_setting           monoclinic
_symmetry_space_group_name_H-M   'C 2/c'
_symmetry_Int_Tables_number      15
_space_group_name_Hall           '-C 2yn'
loop_
_symmetry_equiv_pos_site_id
_symmetry_equiv_pos_as_xyz
1 x,y,z
2 -x,y,1/2-z
3 1/2+x,1/2+y,z
4 1/2-x,1/2+y,1/2-z
5 -x,-y,-z
6 x,-y,1/2+z
7 1/2-x,1/2-y,-z
8 1/2+x,1/2-y,1/2+z
_cell_length_a                   11.538(2)
_cell_length_b                   17.009(3)
_cell_length_c                   6.6606(13)
_cell_angle_alpha                90
_cell_angle_beta                 123.39(3)
_cell_angle_gamma                90
_cell_volume                     1091.39
loop_
_atom_site_label
_atom_site_type_symbol
_atom_site_fract_x
_atom_site_fract_y
_atom_site_fract_z
Ba1 Ba 0.5000 0.735150(16) 0.7500
K1 K 0.5000 0.44945(7) 0.7500
O1 O 0.2318(3) 0.67645(16) 0.3777(5)
O2 O 0.3539(3) 0.56644(17) 0.4585(5)
O3 O -0.0827(3) 0.30703(16) 0.2882(5)
N1 N 0.0000 0.5950(2) 0.2500
C1 C 0.2437(4) 0.6033(2) 0.3879(6)
C2 C 0.1146(4) 0.5543(2) 0.3108(6)
C3 C 0.1180(4) 0.4730(2) 0.3085(6)
H1 H 0.1999 0.4461 0.3465
C4 C 0.0000 0.4314(3) 0.2500
C5 C 0.0000 0.3414(3) 0.2500
O4 O 0.6357(3) 0.67747(17) 0.5297(5)
H2 H 0.7227(15) 0.675(3) 0.634(8)
H3 H 0.609(5) 0.713(2) 0.423(7)
Ba1F Ba 0.0000 0.764850(16) 0.2500
Ba1B Ba 0.0000 0.235150(16) 0.7500
Ba1_2 Ba -0.5000 0.735150(16) -0.2500
Ba1B_2 Ba 0.0000 0.235150(16) -0.2500
K1D K 0.5000 0.55055(7) 0.2500
K1_2 K -0.5000 0.44945(7) -0.2500
K1D_2 K -0.5000 0.55055(7) 0.2500
K1D_3 K 0.5000 0.55055(7) 1.2500
O1A O -0.2318(3) 0.67645(16) 0.1223(5)
O1A_2 O 0.7682(3) 0.67645(16) 1.1223(5)
O1F O 0.2682(3) 0.82355(16) 0.6223(5)
O1G O 0.7318(3) 0.82355(16) 0.8777(5)
O2A O -0.3539(3) 0.56644(17) 0.0415(5)
O2A_2 O 0.6461(3) 0.56644(17) 1.0415(5)
O2D O 0.6461(3) 0.43356(17) 0.5415(5)
O2E O 0.3539(3) 0.43356(17) 0.9585(5)
O3A O 0.0827(3) 0.30703(16) 0.2118(5)
O3B O 0.4173(3) 0.80703(16) 0.2882(5)
O3C O 0.5827(3) 0.80703(16) 1.2118(5)
N1F N 0.5000 0.9050(2) 0.7500
C1A C -0.2437(4) 0.6033(2) 0.1121(6)
C2A C -0.1146(4) 0.5543(2) 0.1892(6)
C3A C -0.1180(4) 0.4730(2) 0.1915(6)
H1A H -0.1999 0.4461 0.1535
O4A O 0.3643(3) 0.67747(17) 0.9703(5)
O4D O 0.3643(3) 0.32253(17) 0.4703(5)
O4E O 0.6357(3) 0.32253(17) 1.0297(5)
H2A H 0.2773(15) 0.675(3) 0.866(8)
H2D H 0.2773(15) 0.325(3) 0.366(8)
H2E H 0.7227(15) 0.325(3) 1.134(8)
H3A H 0.391(5) 0.713(2) 1.077(7)
H3D H 0.391(5) 0.287(2) 0.577(7)
H3E H 0.609(5) 0.287(2) 0.923(7)
loop_
_geom_bond_atom_site_label_1
_geom_bond_atom_site_label_2
_geom_bond_site_symmetry_1
_geom_bond_site_symmetry_2
Ba1 O1 1_555 1_555
K1 O2 1_555 1_555
O1 C1 1_555 1_555
O2 C1 1_555 1_555
O3 C5 1_555 1_555
N1 C2 1_555 1_555
C1 C2 1_555 1_555
C2 C3 1_555 1_555
C3 H1 1_555 1_555
C4 C3 1_555 1_555
C5 C4 1_555 1_555
O4 Ba1 1_555 1_555
H2 O4 1_555 1_555
H3 O4 1_555 1_555
Ba1F O1 1_555 1_555
Ba1B O3 1_555 1_555
Ba1_2 O1A 1_555 1_555
Ba1B_2 O3A 1_555 1_555
K1D O2 1_555 1_555
K1_2 O2A 1_555 1_555
K1D_2 O2A 1_555 1_555
K1D_3 O2A_2 1_555 1_555
O1A Ba1F 1_555 1_555
O1A_2 Ba1 1_555 1_555
O1F Ba1 1_555 1_555
O1G Ba1 1_555 1_555
O2A C1A 1_555 1_555
O2A_2 K1 1_555 1_555
O2D K1 1_555 1_555
O2E K1 1_555 1_555
O3A C5 1_555 1_555
O3B Ba1 1_555 1_555
O3C Ba1 1_555 1_555
N1F Ba1 1_555 1_555
C1A O1A 1_555 1_555
C2A N1 1_555 1_555
C3A C4 1_555 1_555
H1A C3A 1_555 1_555
O4A Ba1 1_555 1_555
O4D K1 1_555 1_555
O4E K1 1_555 1_555
H2A O4A 1_555 1_555
H2D O4D 1_555 1_555
H2E O4E 1_555 1_555
H3A O4A 1_555 1_555
H3D O4D 1_555 1_555
H3E O4E 1_555 1_555
N1 Ba1F 1_555 1_555
O4 K1D 1_555 1_555
Ba1F O1F 1_555 1_555
K1D O2D 1_555 1_555
K1D_3 O2E 1_555 1_555
K1D_3 O4A 1_555 1_555
C1A C2A 1_555 1_555
C2A C3A 1_555 1_555

#END
