
#######################################################################
#
#                 Cambridge Crystallographic Data Centre
#                                CCDC 
#
#######################################################################
#
# If this CIF has been generated from an entry in the Cambridge 
# Structural Database, then it will include bibliographic, chemical, 
# crystal, experimental, refinement or atomic coordinate data resulting 
# from the CCDC's data processing and validation procedures.
#
#######################################################################

data_OVEHAZ
_symmetry_cell_setting           monoclinic
_symmetry_space_group_name_H-M   'P 21/c'
_symmetry_Int_Tables_number      14
_space_group_name_Hall           '-P 2ybc'
loop_
_symmetry_equiv_pos_site_id
_symmetry_equiv_pos_as_xyz
1 x,y,z
2 -x,1/2+y,1/2-z
3 -x,-y,-z
4 x,1/2-y,1/2+z
_cell_length_a                   8.722(4)
_cell_length_b                   8.835(4)
_cell_length_c                   15.099(8)
_cell_angle_alpha                90
_cell_angle_beta                 103.589(6)
_cell_angle_gamma                90
_cell_volume                     1130.94
loop_
_atom_site_label
_atom_site_type_symbol
_atom_site_fract_x
_atom_site_fract_y
_atom_site_fract_z
Zn1 Zn 1.0000 1.0000 0.0000
C1 C 0.9000(2) 0.7014(2) -0.10555(12)
H1 H 0.9387 0.7584 -0.1473
C2 C 0.7821(2) 0.48740(19) -0.07318(12)
H2 H 0.7384 0.3929 -0.0907
C3 C 0.7873(2) 0.5372(2) 0.01535(11)
C4 C 0.8565(2) 0.67871(19) 0.03696(11)
H3 H 0.8635 0.7175 0.0950
C5 C 0.71652(19) 0.44800(19) 0.07902(10)
C6 C 0.5945(2) 0.34568(19) 0.04493(11)
H4 H 0.5589 0.3336 -0.0177
C7 C 0.5258(2) 0.2620(2) 0.10294(12)
H5 H 0.4477 0.1916 0.0792
C8 C 0.5732(2) 0.28300(19) 0.19597(12)
H6 H 0.5245 0.2294 0.2348
C9 C 0.69459(19) 0.38480(19) 0.23184(11)
C10 C 0.7673(2) 0.4646(2) 0.17352(11)
H7 H 0.8504 0.5297 0.1976
C11 C 0.7446(2) 0.40833(18) 0.33343(10)
O1 O 1.19121(17) 0.94084(18) -0.04917(10)
H8 H 1.267(4) 0.926(4) -0.004(2)
H9 H 1.221(4) 0.995(3) -0.084(2)
O2 O 0.88534(15) 0.44947(16) 0.36561(8)
O4 O 0.64381(16) 0.38440(17) 0.37898(8)
N1 N 0.91341(17) 0.76102(16) -0.02267(9)
N2 N 0.83625(19) 0.56805(18) -0.13370(9)
Zn1A Zn 1.0000 0.5000 0.5000
Zn1A_2 Zn 1.0000 1.5000 -0.5000
C1B C 1.1000(2) 1.2986(2) 0.10555(12)
H1B H 1.0613 1.2416 0.1473
C2B C 1.2179(2) 1.51260(19) 0.07318(12)
H2B H 1.2616 1.6071 0.0907
C3B C 1.2127(2) 1.4628(2) -0.01535(11)
C4B C 1.1435(2) 1.32129(19) -0.03696(11)
H3B H 1.1365 1.2825 -0.0950
C5B C 1.28348(19) 1.55200(19) -0.07902(10)
C6B C 1.4055(2) 1.65432(19) -0.04493(11)
H4B H 1.4411 1.6664 0.0177
C7B C 1.4742(2) 1.7380(2) -0.10294(12)
H5B H 1.5523 1.8084 -0.0792
C8B C 1.4268(2) 1.71700(19) -0.19597(12)
H6B H 1.4755 1.7706 -0.2348
C9B C 1.30541(19) 1.61520(19) -0.23184(11)
C10B C 1.2327(2) 1.5354(2) -0.17352(11)
H7B H 1.1496 1.4703 -0.1976
C11B C 1.2554(2) 1.59167(18) -0.33343(10)
O1B O 0.80879(17) 1.05916(18) 0.04917(10)
H8B H 0.733(4) 1.074(4) 0.004(2)
H9B H 0.779(4) 1.005(3) 0.084(2)
O2B O 1.11466(15) 1.55053(16) -0.36561(8)
O2A O 1.11466(15) 0.94947(16) 0.13439(8)
O2C O 0.88534(15) 1.05053(16) -0.13439(8)
O4B O 1.35619(16) 1.61560(17) -0.37898(8)
N1B N 1.08659(17) 1.23898(16) 0.02267(9)
N2B N 1.16375(19) 1.43195(18) 0.13370(9)
O3 O 1.3095(2) 1.1066(2) -0.16903(11)
H10 H 1.409(4) 1.104(3) -0.1599(19)
H11 H 1.275(4) 1.088(4) -0.220(2)
loop_
_geom_bond_atom_site_label_1
_geom_bond_atom_site_label_2
_geom_bond_site_symmetry_1
_geom_bond_site_symmetry_2
Zn1 O1 1_555 1_555
C1 H1 1_555 1_555
C2 H2 1_555 1_555
C3 C2 1_555 1_555
C4 C3 1_555 1_555
H3 C4 1_555 1_555
C5 C3 1_555 1_555
C6 C5 1_555 1_555
H4 C6 1_555 1_555
C7 C6 1_555 1_555
H5 C7 1_555 1_555
C8 C7 1_555 1_555
H6 C8 1_555 1_555
C9 C8 1_555 1_555
C10 C5 1_555 1_555
H7 C10 1_555 1_555
C11 C9 1_555 1_555
O1 H8 1_555 1_555
H9 O1 1_555 1_555
O2 C11 1_555 1_555
O3 H10 1_555 1_555
H11 O3 1_555 1_555
O4 C11 1_555 1_555
N1 Zn1 1_555 1_555
N2 C1 1_555 1_555
Zn1A O2 1_555 1_555
Zn1A_2 O2B 1_555 1_555
C1B H1B 1_555 1_555
C2B H2B 1_555 1_555
C3B C2B 1_555 1_555
C4B C3B 1_555 1_555
H3B C4B 1_555 1_555
C5B C3B 1_555 1_555
C6B C5B 1_555 1_555
H4B C6B 1_555 1_555
C7B C6B 1_555 1_555
H5B C7B 1_555 1_555
C8B C7B 1_555 1_555
H6B C8B 1_555 1_555
C9B C8B 1_555 1_555
C10B C5B 1_555 1_555
H7B C10B 1_555 1_555
C11B C9B 1_555 1_555
O1B Zn1 1_555 1_555
H8B O1B 1_555 1_555
H9B O1B 1_555 1_555
O2B C11B 1_555 1_555
O2A Zn1 1_555 1_555
O2C Zn1 1_555 1_555
O4B C11B 1_555 1_555
N1B Zn1 1_555 1_555
N2B C1B 1_555 1_555
C1 N1 1_555 1_555
C2 N2 1_555 1_555
C4 N1 1_555 1_555
C9 C10 1_555 1_555
C1B N1B 1_555 1_555
C2B N2B 1_555 1_555
C4B N1B 1_555 1_555
C9B C10B 1_555 1_555

#END
