
#######################################################################
#
#                 Cambridge Crystallographic Data Centre
#                                CCDC 
#
#######################################################################
#
# If this CIF has been generated from an entry in the Cambridge 
# Structural Database, then it will include bibliographic, chemical, 
# crystal, experimental, refinement or atomic coordinate data resulting 
# from the CCDC's data processing and validation procedures.
#
#######################################################################

data_OVEYIY
_symmetry_cell_setting           monoclinic
_symmetry_space_group_name_H-M   'C 2/c'
_symmetry_Int_Tables_number      15
_space_group_name_Hall           '-C 2yn'
loop_
_symmetry_equiv_pos_site_id
_symmetry_equiv_pos_as_xyz
1 x,y,z
2 -x,y,1/2-z
3 1/2+x,1/2+y,z
4 1/2-x,1/2+y,1/2-z
5 -x,-y,-z
6 x,-y,1/2+z
7 1/2-x,1/2-y,-z
8 1/2+x,1/2-y,1/2+z
_cell_length_a                   23.987(5)
_cell_length_b                   16.740(3)
_cell_length_c                   16.896(3)
_cell_angle_alpha                90
_cell_angle_beta                 95.55(3)
_cell_angle_gamma                90
_cell_volume                     6752.66
loop_
_atom_site_label
_atom_site_type_symbol
_atom_site_fract_x
_atom_site_fract_y
_atom_site_fract_z
N6 N 0.6734(6) 0.1539(7) 1.1213(9)
O5 O 0.6468(10) 0.1867(10) 1.2403(13)
C22 C 0.6506(8) 0.2028(8) 1.1697(11)
H13 H 0.6367 0.2515 1.1500
C23 C 0.7007(10) 0.0798(10) 1.1476(13)
H14 H 0.6956 0.0708 1.2026
H15 H 0.7400 0.0833 1.1415
H16 H 0.6847 0.0363 1.1162
C24 C 0.6812(6) 0.1781(9) 1.0368(9)
H17 H 0.6653 0.2301 1.0264
H18 H 0.6628 0.1401 1.0005
H19 H 0.7204 0.1795 1.0299
Zn1 Zn 1.147264(17) -0.05030(2) 1.03383(2)
N1 N 1.14018(13) -0.0900(2) 0.91922(17)
N2 N 1.16489(15) -0.1621(2) 0.90094(17)
N3 N 1.12923(11) -0.10438(16) 0.79112(15)
N4 N 1.11319(14) -0.09156(18) 0.70918(16)
H1 H 1.0759(8) -0.095(2) 0.700(2)
H2 H 1.1318(13) -0.0516(18) 0.689(2)
N5 N 1.18311(15) 0.0631(2) 1.0242(2)
O1 O 0.92528(10) 0.01987(17) 0.92725(14)
O2 O 0.92322(15) 0.1509(2) 0.9261(2)
O3 O 1.29176(11) -0.38894(16) 0.91063(15)
O4 O 1.30085(13) -0.46507(17) 0.80522(17)
C1 C 1.15793(15) -0.1695(2) 0.8232(2)
C2 C 1.11838(14) -0.05678(19) 0.8526(2)
C3 C 1.17780(16) -0.2395(2) 0.7816(2)
C4 C 1.21658(15) -0.2891(2) 0.8248(2)
H3 H 1.2284 -0.2766 0.8774
C5 C 1.23786(16) -0.3566(2) 0.7905(2)
C6 C 1.2198(2) -0.3756(3) 0.7125(2)
H4 H 1.2342 -0.4201 0.6886
C7 C 1.1798(3) -0.3277(3) 0.6695(3)
H5 H 1.1669 -0.3414 0.6176
C8 C 1.1594(2) -0.2604(3) 0.7038(2)
H6 H 1.1330 -0.2287 0.6746
C9 C 1.27987(14) -0.4085(2) 0.8371(2)
C10 C 1.08532(13) 0.0175(2) 0.84723(18)
C11 C 1.03416(13) 0.0180(2) 0.87973(18)
H7 H 1.0210 -0.0286 0.9013
C12 C 1.00281(14) 0.0873(2) 0.88019(19)
C13 C 1.0241(2) 0.1567(2) 0.8495(2)
H8 H 1.0042 0.2042 0.8519
C14 C 1.0737(2) 0.1563(3) 0.8160(3)
H9 H 1.0866 0.2029 0.7939
C15 C 1.10479(18) 0.0866(2) 0.8148(2)
H10 H 1.1386 0.0863 0.7922
C16 C 0.94689(16) 0.0874(2) 0.9137(2)
C17 C 1.15409(18) 0.1289(3) 1.0055(3)
H11 H 1.1152 0.1256 1.0004
C18 C 1.17830(18) 0.2019(3) 0.9931(3)
H12 H 1.1560 0.2454 0.9765
C19 C 1.23557(18) 0.2105(3) 1.0054(3)
C20 C 1.2629(5) 0.1346(9) 1.0156(11)
C21 C 1.2355(8) 0.0606(10) 1.0209(12)
Zn1D Zn 0.852736(17) 0.05030(2) 0.96617(2)
Zn1F Zn 1.352736(17) -0.44970(2) 0.96617(2)
Zn1F_2 Zn 1.352736(17) 0.55030(2) 0.96617(2)
Zn1B Zn 0.647264(17) 0.44970(2) 1.03383(2)
N1D N 0.85982(13) 0.0900(2) 1.08078(17)
N2D N 0.83511(15) 0.1621(2) 1.09906(17)
N3D N 0.87077(11) 0.10438(16) 1.20888(15)
N4D N 0.88681(14) 0.09156(18) 1.29082(16)
H1D H 0.9241(8) 0.095(2) 1.300(2)
H2D H 0.8682(13) 0.0516(18) 1.311(2)
N5F N 1.31689(15) 0.4369(2) 0.9758(2)
N5D N 0.81689(15) -0.0631(2) 0.9758(2)
O1D O 1.07472(10) -0.01987(17) 1.07275(14)
O2D O 1.07678(15) -0.1509(2) 1.0739(2)
O3D O 0.70824(11) 0.38894(16) 1.08937(15)
O3F O 1.20824(11) -0.11106(16) 1.08937(15)
O3B O 0.79176(11) 0.11106(16) 0.91063(15)
O4D O 0.69915(13) 0.46507(17) 1.19478(17)
C1D C 0.84207(15) 0.1695(2) 1.1768(2)
C2D C 0.88162(14) 0.05678(19) 1.1474(2)
C3D C 0.82220(16) 0.2395(2) 1.2184(2)
C4D C 0.78342(15) 0.2891(2) 1.1752(2)
H3D H 0.7716 0.2766 1.1226
C5D C 0.76214(16) 0.3566(2) 1.2095(2)
C6D C 0.7802(2) 0.3756(3) 1.2875(2)
H4D H 0.7658 0.4201 1.3114
C7D C 0.8202(3) 0.3277(3) 1.3305(3)
H5D H 0.8331 0.3414 1.3824
C8D C 0.8406(2) 0.2604(3) 1.2962(2)
H6D H 0.8670 0.2287 1.3254
C9D C 0.72013(14) 0.4085(2) 1.1629(2)
C10D C 0.91468(13) -0.0175(2) 1.15277(18)
C11D C 0.96584(13) -0.0180(2) 1.12027(18)
H7D H 0.9790 0.0286 1.0987
C12D C 0.99719(14) -0.0873(2) 1.11981(19)
C13D C 0.9759(2) -0.1567(2) 1.1505(2)
H8D H 0.9958 -0.2042 1.1481
C14D C 0.9263(2) -0.1563(3) 1.1840(3)
H9D H 0.9134 -0.2029 1.2061
C15D C 0.89521(18) -0.0866(2) 1.1852(2)
H10D H 0.8614 -0.0863 1.2078
C16D C 1.05311(16) -0.0874(2) 1.0863(2)
C17F C 1.34591(18) 0.3711(3) 0.9945(3)
H11F H 1.3848 0.3744 0.9996
C18F C 1.32170(18) 0.2981(3) 1.0069(3)
H12F H 1.3440 0.2546 1.0235
C19F C 1.26443(18) 0.2895(3) 0.9946(3)
C20F C 1.2371(5) 0.3654(9) 0.9844(11)
C21F C 1.2645(8) 0.4394(10) 0.9791(12)
O6? O 1.0000(9) 0.1472(7) 1.2711(9)
C25? C 0.7311(8) -0.1581(12) 0.9520(15)
C26? C 0.7407(7) -0.4174(9) 1.0494(12)
loop_
_geom_bond_atom_site_label_1
_geom_bond_atom_site_label_2
_geom_bond_site_symmetry_1
_geom_bond_site_symmetry_2
Zn1 N1 1_555 1_555
N1 N2 1_555 1_555
N2 C1 1_555 1_555
N3 N4 1_555 1_555
N4 H1 1_555 1_555
H2 N4 1_555 1_555
N5 Zn1 1_555 1_555
N6 C22 1_555 1_555
O1 C16 1_555 1_555
O2 C16 1_555 1_555
O3 C9 1_555 1_555
O4 C9 1_555 1_555
O5 C22 1_555 1_555
C1 N3 1_555 1_555
C2 N1 1_555 1_555
C3 C1 1_555 1_555
C4 C3 1_555 1_555
H3 C4 1_555 1_555
C5 C4 1_555 1_555
C6 C5 1_555 1_555
H4 C6 1_555 1_555
C7 C6 1_555 1_555
H5 C7 1_555 1_555
C8 C3 1_555 1_555
H6 C8 1_555 1_555
C9 C5 1_555 1_555
C10 C2 1_555 1_555
C11 C10 1_555 1_555
H7 C11 1_555 1_555
C12 C11 1_555 1_555
C13 C12 1_555 1_555
H8 C13 1_555 1_555
C14 C13 1_555 1_555
H9 C14 1_555 1_555
C15 C10 1_555 1_555
H10 C15 1_555 1_555
C16 C12 1_555 1_555
C17 N5 1_555 1_555
H11 C17 1_555 1_555
C18 C17 1_555 1_555
H12 C18 1_555 1_555
C19 C18 1_555 1_555
C20 C19 1_555 1_555
C21 N5 1_555 1_555
C22 H13 1_555 1_555
C23 N6 1_555 1_555
H14 C23 1_555 1_555
H15 C23 1_555 1_555
H16 C23 1_555 1_555
C24 N6 1_555 1_555
H17 C24 1_555 1_555
H18 C24 1_555 1_555
H19 C24 1_555 1_555
Zn1D O1 1_555 1_555
Zn1F O3 1_555 1_555
Zn1F_2 N5F 1_555 1_555
Zn1B O3D 1_555 1_555
N1D Zn1D 1_555 1_555
N2D N1D 1_555 1_555
N3D N4D 1_555 1_555
N4D H1D 1_555 1_555
H2D N4D 1_555 1_555
N5F C17F 1_555 1_555
N5D Zn1D 1_555 1_555
O1D Zn1 1_555 1_555
O2D C16D 1_555 1_555
O3D C9D 1_555 1_555
O3F Zn1 1_555 1_555
O3B Zn1D 1_555 1_555
O4D C9D 1_555 1_555
C1D N2D 1_555 1_555
C2D N1D 1_555 1_555
C3D C1D 1_555 1_555
C4D C3D 1_555 1_555
H3D C4D 1_555 1_555
C5D C4D 1_555 1_555
C6D C5D 1_555 1_555
H4D C6D 1_555 1_555
C7D C6D 1_555 1_555
H5D C7D 1_555 1_555
C8D C3D 1_555 1_555
H6D C8D 1_555 1_555
C9D C5D 1_555 1_555
C10D C2D 1_555 1_555
C11D C10D 1_555 1_555
H7D C11D 1_555 1_555
C12D C11D 1_555 1_555
C13D C12D 1_555 1_555
H8D C13D 1_555 1_555
C14D C13D 1_555 1_555
H9D C14D 1_555 1_555
C15D C10D 1_555 1_555
H10D C15D 1_555 1_555
C16D O1D 1_555 1_555
C17F H11F 1_555 1_555
C18F C17F 1_555 1_555
H12F C18F 1_555 1_555
C19F C19 1_555 1_555
C20F C19F 1_555 1_555
C21F N5F 1_555 1_555
N3 C2 1_555 1_555
C7 C8 1_555 1_555
C14 C15 1_555 1_555
C20 C21 1_555 1_555
N3D C1D 1_555 1_555
N3D C2D 1_555 1_555
C7D C8D 1_555 1_555
C12D C16D 1_555 1_555
C14D C15D 1_555 1_555
C18F C19F 1_555 1_555
C20F C21F 1_555 1_555

#END
