
#######################################################################
#
#                 Cambridge Crystallographic Data Centre
#                                CCDC 
#
#######################################################################
#
# If this CIF has been generated from an entry in the Cambridge 
# Structural Database, then it will include bibliographic, chemical, 
# crystal, experimental, refinement or atomic coordinate data resulting 
# from the CCDC's data processing and validation procedures.
#
#######################################################################

data_OVEYEU
_symmetry_cell_setting           monoclinic
_symmetry_space_group_name_H-M   'P 21/c'
_symmetry_Int_Tables_number      14
_space_group_name_Hall           '-P 2ybc'
loop_
_symmetry_equiv_pos_site_id
_symmetry_equiv_pos_as_xyz
1 x,y,z
2 -x,1/2+y,1/2-z
3 -x,-y,-z
4 x,1/2-y,1/2+z
_cell_length_a                   15.241(3)
_cell_length_b                   9.853(2)
_cell_length_c                   15.122(3)
_cell_angle_alpha                90
_cell_angle_beta                 96.02(3)
_cell_angle_gamma                90
_cell_volume                     2258.34
loop_
_atom_site_label
_atom_site_type_symbol
_atom_site_fract_x
_atom_site_fract_y
_atom_site_fract_z
C20 C 1.1377(13) -0.016(5) 0.436(2)
C21 C 1.0000 0.0000 0.5000
N6 N 1.0514(14) -0.003(4) 0.4286(15)
H18 H 1.0246 0.0051 0.3759
C20B C 0.8623(13) 0.016(5) 0.564(2)
N6B N 0.9486(14) 0.003(4) 0.5714(15)
H18B H 0.9754 -0.0051 0.6241
Zn1 Zn 0.72871(4) 0.58546(8) 0.53547(5)
O1 O 0.6150(2) 0.5523(5) 0.5790(3)
O2 O 0.6814(3) 0.3639(5) 0.6295(3)
O3 O -0.1539(3) 0.6111(5) 0.5923(4)
O4 O -0.2129(12) 0.747(2) 0.6851(16)
O5 O 0.7025(4) 0.7605(6) 0.4677(4)
N1 N 0.2564(3) 0.5271(6) 0.5747(4)
N2 N 0.1800(3) 0.6042(6) 0.5788(4)
N3 N 0.2493(3) 0.5805(5) 0.7128(4)
N4 N 0.2720(4) 0.5815(6) 0.8047(4)
H1 H 0.316(3) 0.528(6) 0.8164(12)
H2 H 0.228(2) 0.552(8) 0.8296(11)
N5 N 0.6830(12) 0.9833(19) 0.4354(12)
C1 C 0.2976(3) 0.5141(6) 0.6555(5)
C2 C 0.1768(3) 0.6334(7) 0.6630(5)
C3 C 0.3796(4) 0.4403(6) 0.6792(4)
C4 C 0.4548(3) 0.4703(6) 0.6366(4)
H3 H 0.4524 0.5380 0.5935
C5 C 0.5325(3) 0.3993(6) 0.6584(4)
C6 C 0.5345(4) 0.2960(7) 0.7208(5)
H4 H 0.5857 0.2453 0.7340
C7 C 0.4602(5) 0.2681(8) 0.7638(6)
H5 H 0.4626 0.1998 0.8065
C8 C 0.3835(4) 0.3396(7) 0.7443(5)
H6 H 0.3346 0.3212 0.7741
C9 C 0.6161(3) 0.4376(6) 0.6187(4)
C10 C 0.1031(4) 0.7058(7) 0.6976(6)
C11 C 0.0179(4) 0.6782(7) 0.6577(5)
H7 H 0.0098 0.6195 0.6094
C12 C -0.0546(4) 0.7388(9) 0.6906(6)
C13 C -0.0416(7) 0.8212(11) 0.7643(7)
H8 H -0.0905 0.8586 0.7872
C14 C 0.0420(7) 0.8503(11) 0.8057(7)
H9 H 0.0493 0.9055 0.8559
C15 C 0.1147(4) 0.7942(8) 0.7698(7)
H10 H 0.1714 0.8161 0.7943
C16 C -0.1459(4) 0.7073(11) 0.6485(6)
C17 C 0.6719(8) 0.8617(11) 0.4941(7)
H11 H 0.6439 0.8657 0.5458
C18 C 0.6688(15) 1.1120(19) 0.4645(14)
H12 H 0.6481 1.1080 0.5222
H13 H 0.6253 1.1560 0.4237
H14 H 0.7229 1.1624 0.4680
C19 C 0.7145(15) 0.966(2) 0.3539(13)
H15 H 0.7254 0.8717 0.3445
H16 H 0.7685 1.0163 0.3528
H17 H 0.6716 0.9992 0.3079
Zn1B Zn 0.27129(4) 0.41454(8) 0.46453(5)
Zn1_2 Zn -0.27129(4) 0.58546(8) 0.53547(5)
Zn1B_2 Zn 1.27129(4) 0.41454(8) 0.46453(5)
O1B O 0.3850(2) 0.4477(5) 0.4210(3)
O2B O 0.3186(3) 0.6361(5) 0.3705(3)
O3B O 1.1539(3) 0.3889(5) 0.4077(4)
O3_2 O 0.8461(3) 0.6111(5) 0.5923(4)
O3B_2 O 0.1539(3) 0.3889(5) 0.4077(4)
O4B O 1.2129(12) 0.253(2) 0.3149(16)
O5B O 0.2975(4) 0.2395(6) 0.5323(4)
N1B N 0.7436(3) 0.4729(6) 0.4253(4)
N2B N 0.8200(3) 0.3958(6) 0.4212(4)
N3B N 0.7507(3) 0.4195(5) 0.2872(4)
N4B N 0.7280(4) 0.4185(6) 0.1953(4)
H1B H 0.684(3) 0.472(6) 0.1836(12)
H2B H 0.772(2) 0.448(8) 0.1704(11)
N5B N 0.3170(12) 0.0167(19) 0.5646(12)
C1B C 0.7024(3) 0.4859(6) 0.3445(5)
C2B C 0.8232(3) 0.3666(7) 0.3370(5)
C3B C 0.6204(4) 0.5597(6) 0.3208(4)
C4B C 0.5452(3) 0.5297(6) 0.3634(4)
H3B H 0.5476 0.4620 0.4065
C5B C 0.4675(3) 0.6007(6) 0.3416(4)
C6B C 0.4655(4) 0.7040(7) 0.2792(5)
H4B H 0.4143 0.7547 0.2660
C7B C 0.5398(5) 0.7319(8) 0.2362(6)
H5B H 0.5374 0.8002 0.1935
C8B C 0.6165(4) 0.6604(7) 0.2557(5)
H6B H 0.6654 0.6788 0.2259
C9B C 0.3839(3) 0.5624(6) 0.3813(4)
C10B C 0.8969(4) 0.2942(7) 0.3024(6)
C11B C 0.9821(4) 0.3218(7) 0.3423(5)
H7B H 0.9902 0.3805 0.3906
C12B C 1.0546(4) 0.2612(9) 0.3094(6)
C13B C 1.0416(7) 0.1788(11) 0.2357(7)
H8B H 1.0905 0.1414 0.2128
C14B C 0.9580(7) 0.1497(11) 0.1943(7)
H9B H 0.9507 0.0945 0.1441
C15B C 0.8853(4) 0.2058(8) 0.2302(7)
H10B H 0.8286 0.1839 0.2057
C16B C 1.1459(4) 0.2927(11) 0.3515(6)
C17B C 0.3281(8) 0.1383(11) 0.5059(7)
H11B H 0.3561 0.1343 0.4542
C18B C 0.3312(15) -0.1120(19) 0.5355(14)
H12B H 0.3519 -0.1080 0.4778
H13B H 0.3747 -0.1560 0.5763
H14B H 0.2771 -0.1624 0.5320
C19B C 0.2855(15) 0.034(2) 0.6461(13)
H15B H 0.2746 0.1283 0.6555
H16B H 0.2315 -0.0163 0.6472
H17B H 0.3284 0.0008 0.6921
C22? C 0.6133(15) 1.090(2) 0.4860(14)
C23? C 0.6791(15) 1.010(2) 0.3658(12)
H19? H 0.6045 1.1595 0.4414
H20? H 0.6514 1.1236 0.5357
H21? H 0.5575 1.0650 0.5053
H22? H 0.6531 1.0945 0.3444
H23? H 0.6610 0.9390 0.3247
H24? H 0.7423 1.0184 0.3712
N7? N 0.6508(12) 0.9796(19) 0.4513(11)
O6? O 1.2030(12) 0.191(2) 0.3472(15)
loop_
_geom_bond_atom_site_label_1
_geom_bond_atom_site_label_2
_geom_bond_site_symmetry_1
_geom_bond_site_symmetry_2
Zn1 O1 1_555 1_555
O1 C9 1_555 1_555
O2 C9 1_555 1_555
O3 C16 1_555 1_555
O4 C16 1_555 1_555
O5 Zn1 1_555 1_555
N1 N2 1_555 1_555
N2 C2 1_555 1_555
N3 N4 1_555 1_555
N4 H1 1_555 1_555
H2 N4 1_555 1_555
N5 C17 1_555 1_555
C1 N1 1_555 1_555
C2 N3 1_555 1_555
C3 C1 1_555 1_555
C4 C3 1_555 1_555
H3 C4 1_555 1_555
C5 C4 1_555 1_555
C6 C5 1_555 1_555
H4 C6 1_555 1_555
C7 C6 1_555 1_555
H5 C7 1_555 1_555
C8 C3 1_555 1_555
H6 C8 1_555 1_555
C9 C5 1_555 1_555
C10 C2 1_555 1_555
C11 C10 1_555 1_555
H7 C11 1_555 1_555
C12 C11 1_555 1_555
C13 C12 1_555 1_555
H8 C13 1_555 1_555
C14 C13 1_555 1_555
H9 C14 1_555 1_555
C15 C10 1_555 1_555
H10 C15 1_555 1_555
C16 C12 1_555 1_555
C17 O5 1_555 1_555
H11 C17 1_555 1_555
C18 N5 1_555 1_555
H12 C18 1_555 1_555
H13 C18 1_555 1_555
H14 C18 1_555 1_555
C19 N5 1_555 1_555
H15 C19 1_555 1_555
H16 C19 1_555 1_555
H17 C19 1_555 1_555
C20 N6 1_555 1_555
C21 N6 1_555 1_555
N6 H18 1_555 1_555
Zn1B N1 1_555 1_555
Zn1_2 O3 1_555 1_555
Zn1B_2 O3B 1_555 1_555
O1B Zn1B 1_555 1_555
O2B C9B 1_555 1_555
O3B C16B 1_555 1_555
O3_2 Zn1 1_555 1_555
O3B_2 Zn1B 1_555 1_555
O4B C16B 1_555 1_555
O5B Zn1B 1_555 1_555
N1B Zn1 1_555 1_555
N2B N1B 1_555 1_555
N3B N4B 1_555 1_555
N4B H1B 1_555 1_555
H2B N4B 1_555 1_555
N5B C17B 1_555 1_555
C1B N1B 1_555 1_555
C2B N2B 1_555 1_555
C3B C1B 1_555 1_555
C4B C3B 1_555 1_555
H3B C4B 1_555 1_555
C5B C4B 1_555 1_555
C6B C5B 1_555 1_555
H4B C6B 1_555 1_555
C7B C6B 1_555 1_555
H5B C7B 1_555 1_555
C8B C3B 1_555 1_555
H6B C8B 1_555 1_555
C9B O1B 1_555 1_555
C10B C2B 1_555 1_555
C11B C10B 1_555 1_555
H7B C11B 1_555 1_555
C12B C11B 1_555 1_555
C13B C12B 1_555 1_555
H8B C13B 1_555 1_555
C14B C13B 1_555 1_555
H9B C14B 1_555 1_555
C15B C10B 1_555 1_555
H10B C15B 1_555 1_555
C16B C12B 1_555 1_555
C17B O5B 1_555 1_555
H11B C17B 1_555 1_555
C18B N5B 1_555 1_555
H12B C18B 1_555 1_555
H13B C18B 1_555 1_555
H14B C18B 1_555 1_555
C19B N5B 1_555 1_555
H15B C19B 1_555 1_555
H16B C19B 1_555 1_555
H17B C19B 1_555 1_555
C20B N6B 1_555 1_555
N6B C21 1_555 1_555
H18B N6B 1_555 1_555
N3 C1 1_555 1_555
C7 C8 1_555 1_555
C14 C15 1_555 1_555
N3B C1B 1_555 1_555
N3B C2B 1_555 1_555
C5B C9B 1_555 1_555
C7B C8B 1_555 1_555
C14B C15B 1_555 1_555

#END
