
#######################################################################
#
#                 Cambridge Crystallographic Data Centre
#                                CCDC 
#
#######################################################################
#
# If this CIF has been generated from an entry in the Cambridge 
# Structural Database, then it will include bibliographic, chemical, 
# crystal, experimental, refinement or atomic coordinate data resulting 
# from the CCDC's data processing and validation procedures.
#
#######################################################################

data_OVEYAQ
_symmetry_cell_setting           monoclinic
_symmetry_space_group_name_H-M   'C 2/c'
_symmetry_Int_Tables_number      15
_space_group_name_Hall           '-C 2yn'
loop_
_symmetry_equiv_pos_site_id
_symmetry_equiv_pos_as_xyz
1 x,y,z
2 -x,y,1/2-z
3 1/2+x,1/2+y,z
4 1/2-x,1/2+y,1/2-z
5 -x,-y,-z
6 x,-y,1/2+z
7 1/2-x,1/2-y,-z
8 1/2+x,1/2-y,1/2+z
_cell_length_a                   23.817(5)
_cell_length_b                   10.971(2)
_cell_length_c                   17.866(4)
_cell_angle_alpha                90
_cell_angle_beta                 127.26(3)
_cell_angle_gamma                90
_cell_volume                     3715.5
loop_
_atom_site_label
_atom_site_type_symbol
_atom_site_fract_x
_atom_site_fract_y
_atom_site_fract_z
Cu1 Cu -0.04231(3) 0.08578(4) 0.43731(3)
O1 O 0.01913(18) 0.0562(3) 0.3997(2)
O2 O 0.08930(18) -0.0897(3) 0.5017(2)
O3 O 0.02757(17) 0.7945(3) 0.0305(2)
O4 O 0.09918(18) 0.9404(3) 0.1326(2)
N1 N 0.10298(18) 0.2198(3) 0.1723(2)
N2 N 0.10763(19) 0.3384(3) 0.1486(2)
N3 N 0.1654(2) 0.3279(3) 0.2998(2)
N4 N 0.1996(4) 0.3638(4) 0.3944(3)
H1 H 0.2096 0.4392 0.4100
H2 H 0.2104 0.3100 0.4362
C1 C 0.1383(2) 0.2149(4) 0.2634(3)
C2 C 0.1450(2) 0.4015(4) 0.2259(3)
C3 C 0.1495(2) 0.1105(4) 0.3228(3)
C4 C 0.1037(2) 0.0905(4) 0.3456(3)
H3 H 0.0643 0.1399 0.3200
C5 C 0.1169(2) -0.0032(4) 0.4066(3)
C6 C 0.1752(3) -0.0785(4) 0.4429(3)
H4 H 0.1833 -0.1428 0.4822
C7 C 0.2207(3) -0.0589(5) 0.4215(4)
H5 H 0.2596 -0.1094 0.4467
C8 C 0.2089(3) 0.0369(5) 0.3617(4)
H6 H 0.2404 0.0514 0.3481
C9 C 0.0711(2) -0.0145(4) 0.4378(3)
C10 C 0.1646(2) 0.5304(4) 0.2337(3)
C11 C 0.1156(2) 0.6147(4) 0.1672(3)
H7 H 0.0703 0.5897 0.1181
C12 C 0.1351(2) 0.7367(4) 0.1750(3)
C13 C 0.2037(2) 0.7723(4) 0.2482(3)
H8 H 0.2166 0.8537 0.2535
C14 C 0.2528(2) 0.6892(4) 0.3126(3)
H9 H 0.2986 0.7139 0.3604
C15 C 0.2332(2) 0.5683(4) 0.3058(3)
H10 H 0.2660 0.5119 0.3496
C16 C 0.0832(2) 0.8302(4) 0.1075(3)
Cu1D Cu 0.04231(3) -0.08578(4) 0.56269(3)
Cu1E Cu -0.04231(3) 0.91422(4) -0.06269(3)
Cu1A Cu 0.04231(3) 1.08578(4) 0.06269(3)
Cu1A_2 Cu 0.04231(3) 0.08578(4) 0.06269(3)
Cu1A_3 Cu 0.04231(3) -0.91422(4) 1.06269(3)
Cu1E_2 Cu -0.04231(3) -1.08578(4) 0.93731(3)
Cu1E_3 Cu -0.04231(3) -0.08578(4) 0.93731(3)
O1D O -0.01913(18) -0.0562(3) 0.6003(2)
O2D O -0.08930(18) 0.0897(3) 0.4983(2)
O3D O -0.02757(17) -0.7945(3) 0.9695(2)
O3E O 0.02757(17) 0.2055(3) 0.5305(2)
O3A O -0.02757(17) -0.2055(3) 0.4695(2)
O4D O -0.09918(18) -0.9404(3) 0.8674(2)
O4A O -0.09918(18) -0.0596(3) 0.3674(2)
O4E O 0.09918(18) 0.0596(3) 0.6326(2)
N1D N -0.10298(18) -0.2198(3) 0.8277(2)
N1A N -0.10298(18) 0.2198(3) 0.3277(2)
N1E N 0.10298(18) -0.2198(3) 0.6723(2)
N2D N -0.10763(19) -0.3384(3) 0.8514(2)
N3D N -0.1654(2) -0.3279(3) 0.7002(2)
N4D N -0.1996(4) -0.3638(4) 0.6056(3)
H1D H -0.2096 -0.4392 0.5900
H2D H -0.2104 -0.3100 0.5638
C1D C -0.1383(2) -0.2149(4) 0.7366(3)
C2D C -0.1450(2) -0.4015(4) 0.7741(3)
C3D C -0.1495(2) -0.1105(4) 0.6772(3)
C4D C -0.1037(2) -0.0905(4) 0.6544(3)
H3D H -0.0643 -0.1399 0.6800
C5D C -0.1169(2) 0.0032(4) 0.5934(3)
C6D C -0.1752(3) 0.0785(4) 0.5571(3)
H4D H -0.1833 0.1428 0.5178
C7D C -0.2207(3) 0.0589(5) 0.5785(4)
H5D H -0.2596 0.1094 0.5533
C8D C -0.2089(3) -0.0369(5) 0.6383(4)
H6D H -0.2404 -0.0514 0.6519
C9D C -0.0711(2) 0.0145(4) 0.5622(3)
C10D C -0.1646(2) -0.5304(4) 0.7663(3)
C11D C -0.1156(2) -0.6147(4) 0.8328(3)
H7D H -0.0703 -0.5897 0.8819
C12D C -0.1351(2) -0.7367(4) 0.8250(3)
C13D C -0.2037(2) -0.7723(4) 0.7518(3)
H8D H -0.2166 -0.8537 0.7465
C14D C -0.2528(2) -0.6892(4) 0.6874(3)
H9D H -0.2986 -0.7139 0.6396
C15D C -0.2332(2) -0.5683(4) 0.6942(3)
H10D H -0.2660 -0.5119 0.6504
C16D C -0.0832(2) -0.8302(4) 0.8925(3)
O5 O 0.0933(7) 0.4035(13) -0.0211(9)
O7 O 0.0782(6) 0.3541(7) 0.4325(7)
H11 H 0.0678 0.3134 0.4712
H12 H 0.1143 0.4120 0.4606
O8 O 0.0000 0.402(3) 0.2500
H13 H 0.0383 0.3514 0.3003
H13A H -0.0383 0.3514 0.1997
O6? O 0.079(2) 0.390(5) -0.0127(17)
loop_
_geom_bond_atom_site_label_1
_geom_bond_atom_site_label_2
_geom_bond_site_symmetry_1
_geom_bond_site_symmetry_2
Cu1 O1 1_555 1_555
O1 C9 1_555 1_555
O2 C9 1_555 1_555
O3 C16 1_555 1_555
O4 C16 1_555 1_555
N1 N2 1_555 1_555
N2 C2 1_555 1_555
N3 N4 1_555 1_555
N4 H1 1_555 1_555
H2 N4 1_555 1_555
C1 N1 1_555 1_555
C2 N3 1_555 1_555
C3 C1 1_555 1_555
C4 C3 1_555 1_555
H3 C4 1_555 1_555
C5 C4 1_555 1_555
C6 C5 1_555 1_555
H4 C6 1_555 1_555
C7 C6 1_555 1_555
H5 C7 1_555 1_555
C8 C3 1_555 1_555
H6 C8 1_555 1_555
C9 C5 1_555 1_555
C10 C2 1_555 1_555
C11 C10 1_555 1_555
H7 C11 1_555 1_555
C12 C11 1_555 1_555
C13 C12 1_555 1_555
H8 C13 1_555 1_555
C14 C13 1_555 1_555
H9 C14 1_555 1_555
C15 C10 1_555 1_555
H10 C15 1_555 1_555
C16 C12 1_555 1_555
O7 H11 1_555 1_555
H12 O7 1_555 1_555
O8 H13 1_555 1_555
Cu1D Cu1 1_555 1_555
Cu1E O3 1_555 1_555
Cu1A O4 1_555 1_555
Cu1A_2 N1 1_555 1_555
Cu1A_3 Cu1E_2 1_555 1_555
Cu1E_2 O4D 1_555 1_555
Cu1E_3 N1D 1_555 1_555
O1D Cu1D 1_555 1_555
O2D Cu1 1_555 1_555
O3D Cu1A_3 1_555 1_555
O3E Cu1 1_555 1_555
O3A Cu1D 1_555 1_555
O4D C16D 1_555 1_555
O4A Cu1 1_555 1_555
O4E Cu1D 1_555 1_555
N1D N2D 1_555 1_555
N1A Cu1 1_555 1_555
N1E Cu1D 1_555 1_555
N2D C2D 1_555 1_555
N3D N4D 1_555 1_555
N4D H1D 1_555 1_555
H2D N4D 1_555 1_555
C1D N1D 1_555 1_555
C2D N3D 1_555 1_555
C3D C1D 1_555 1_555
C4D C3D 1_555 1_555
H3D C4D 1_555 1_555
C5D C4D 1_555 1_555
C6D C5D 1_555 1_555
H4D C6D 1_555 1_555
C7D C6D 1_555 1_555
H5D C7D 1_555 1_555
C8D C3D 1_555 1_555
H6D C8D 1_555 1_555
C9D O1D 1_555 1_555
C10D C2D 1_555 1_555
C11D C10D 1_555 1_555
H7D C11D 1_555 1_555
C12D C11D 1_555 1_555
C13D C12D 1_555 1_555
H8D C13D 1_555 1_555
C14D C13D 1_555 1_555
H9D C14D 1_555 1_555
C15D C10D 1_555 1_555
H10D C15D 1_555 1_555
C16D O3D 1_555 1_555
H13A O8 1_555 1_555
O2 Cu1D 1_555 1_555
N3 C1 1_555 1_555
C7 C8 1_555 1_555
C14 C15 1_555 1_555
Cu1E Cu1A 1_555 1_555
O2D C9D 1_555 1_555
N3D C1D 1_555 1_555
C5D C9D 1_555 1_555
C7D C8D 1_555 1_555
C12D C16D 1_555 1_555
C14D C15D 1_555 1_555

#END
