
#######################################################################
#
#                 Cambridge Crystallographic Data Centre
#                                CCDC 
#
#######################################################################
#
# If this CIF has been generated from an entry in the Cambridge 
# Structural Database, then it will include bibliographic, chemical, 
# crystal, experimental, refinement or atomic coordinate data resulting 
# from the CCDC's data processing and validation procedures.
#
#######################################################################

data_OVIBUR
_symmetry_cell_setting           triclinic
_symmetry_space_group_name_H-M   'P -1'
_symmetry_Int_Tables_number      2
_space_group_name_Hall           '-P 1'
loop_
_symmetry_equiv_pos_site_id
_symmetry_equiv_pos_as_xyz
1 x,y,z
2 -x,-y,-z
_cell_length_a                   8.661(5)
_cell_length_b                   14.334(5)
_cell_length_c                   15.004(5)
_cell_angle_alpha                61.642(5)
_cell_angle_beta                 78.645(5)
_cell_angle_gamma                78.346(5)
_cell_volume                     1594.33
loop_
_atom_site_label
_atom_site_type_symbol
_atom_site_fract_x
_atom_site_fract_y
_atom_site_fract_z
C1 C -0.0576(7) 0.9844(5) 0.2215(5)
C2 C 0.1851(7) 0.9199(5) 0.1630(4)
C3 C -0.3222(10) 1.0493(8) 0.2773(8)
H1 H -0.2688 1.1019 0.2772
H2 H -0.3551 1.0002 0.3463
H3 H -0.4137 1.0841 0.2412
C4 C -0.2862(10) 0.9350(9) 0.1878(8)
H4 H -0.2190 0.9349 0.1288
H5 H -0.3899 0.9704 0.1694
H6 H -0.2942 0.8627 0.2392
C5 C 0.4324(10) 0.8429(7) 0.1012(7)
H7 H 0.4769 0.9036 0.0916
H8 H 0.4682 0.8293 0.0432
H9 H 0.4659 0.7815 0.1615
C6 C 0.1707(13) 0.8227(9) 0.0692(8)
H10 H 0.1718 0.7470 0.1107
H11 H 0.2177 0.8369 0.0011
H12 H 0.0631 0.8568 0.0675
C7 C 0.2241(7) 0.8850(4) 0.4487(4)
C8 C 0.1666(8) 0.8831(5) 0.5412(4)
H13 H 0.1319 0.9463 0.5464
C9 C 0.1612(8) 0.7858(5) 0.6263(5)
H14 H 0.1186 0.7843 0.6888
C10 C 0.2674(9) 0.6982(5) 0.5319(5)
H15 H 0.3023 0.6344 0.5279
C11 C 0.2739(9) 0.7902(5) 0.4442(4)
H16 H 0.3114 0.7892 0.3821
C12 C 0.1622(8) 1.3067(5) -0.0485(5)
H17 H 0.0955 1.3148 -0.0940
C13 C 0.1534(7) 1.2197(5) 0.0469(4)
H18 H 0.0846 1.1697 0.0650
C14 C 0.2514(6) 1.2099(4) 0.1145(4)
C15 C 0.3567(7) 1.2834(4) 0.0820(4)
H19 H 0.4255 1.2776 0.1254
C16 C 0.3582(8) 1.3651(5) -0.0152(4)
H20 H 0.4319 1.4129 -0.0372
C17 C -0.1510(11) 0.5277(10) 0.8386(8)
H21 H -0.1177 0.5157 0.9010
H22 H -0.2256 0.4795 0.8535
H23 H -0.2003 0.6000 0.8048
N1 N 0.2772(5) 0.9561(4) 0.2008(4)
N2 N -0.0022(6) 1.0306(4) 0.2675(4)
N3 N 0.0268(6) 0.9311(5) 0.1715(4)
N4 N 0.2613(7) 0.8644(5) 0.1121(5)
N5 N -0.2170(7) 0.9925(6) 0.2285(5)
N6 N 0.2148(6) 0.6928(4) 0.6229(3)
N7 N 0.2605(6) 1.3798(4) -0.0795(3)
N8 N 0.4636(10) 0.4272(5) 0.6776(5)
N9 N 0.2505(8) 0.6465(4) 0.8824(4)
O1 O 0.2410(5) 0.9837(3) 0.3665(3)
O2 O 0.2471(5) 1.1341(3) 0.2143(3)
O3 O 0.1238(6) 0.6270(4) 0.8735(4)
O4 O 0.3777(6) 0.6182(4) 0.8364(4)
O5 O 0.2551(9) 0.6916(6) 0.9322(5)
O6 O 0.3168(8) 0.4311(5) 0.6772(4)
O7 O 0.5059(7) 0.4778(5) 0.7145(5)
O8 O 0.5629(10) 0.3765(6) 0.6410(6)
O9 O -0.0191(6) 0.5101(5) 0.7754(4)
P1 P 0.18311(17) 1.02157(11) 0.25792(10)
Cd1 Cd 0.23737(5) 0.53565(3) 0.77089(3)
H24 H -0.023(11) 0.468(6) 0.755(7)
N7_2 N 0.2605(6) 0.3798(4) 0.9205(3)
Cd1_2 Cd 0.23737(5) 1.53565(3) -0.22911(3)
C18 C 0.9517(17) 0.3708(13) 0.6358(11)
H25 H 1.0598 0.3607 0.6484
H26 H 0.9470 0.4021 0.5638
H27 H 0.9116 0.3029 0.6689
O10 O 0.8584(11) 0.4393(11) 0.6749(11)
H28 H 0.7839 0.4723 0.6413
C19 C 0.273(3) 0.279(2) 0.4350(14)
H29 H 0.2244 0.3436 0.3803
Cl1 Cl 0.4205(7) 0.2245(8) 0.3885(6)
Cl2 Cl 0.1332(6) 0.1995(6) 0.5129(6)
Cl3 Cl 0.3386(6) 0.3159(6) 0.5260(4)
loop_
_geom_bond_atom_site_label_1
_geom_bond_atom_site_label_2
_geom_bond_site_symmetry_1
_geom_bond_site_symmetry_2
C1 N2 1_555 1_555
C2 N1 1_555 1_555
C3 H1 1_555 1_555
H2 C3 1_555 1_555
H3 C3 1_555 1_555
C4 H4 1_555 1_555
H5 C4 1_555 1_555
H6 C4 1_555 1_555
C5 H7 1_555 1_555
H8 C5 1_555 1_555
H9 C5 1_555 1_555
C6 H10 1_555 1_555
H11 C6 1_555 1_555
H12 C6 1_555 1_555
C7 C8 1_555 1_555
C8 H13 1_555 1_555
C9 C8 1_555 1_555
H14 C9 1_555 1_555
C10 H15 1_555 1_555
C11 C7 1_555 1_555
H16 C11 1_555 1_555
C12 H17 1_555 1_555
C13 C12 1_555 1_555
H18 C13 1_555 1_555
C14 C13 1_555 1_555
C15 C14 1_555 1_555
H19 C15 1_555 1_555
C16 C15 1_555 1_555
H20 C16 1_555 1_555
C17 H21 1_555 1_555
H22 C17 1_555 1_555
H23 C17 1_555 1_555
N1 P1 1_555 1_555
N2 P1 1_555 1_555
N3 C1 1_555 1_555
N4 C2 1_555 1_555
N5 C1 1_555 1_555
N6 C9 1_555 1_555
N7 C12 1_555 1_555
N8 O6 1_555 1_555
N9 O3 1_555 1_555
O1 C7 1_555 1_555
O2 C14 1_555 1_555
O3 Cd1 1_555 1_555
O4 N9 1_555 1_555
O5 N9 1_555 1_555
O6 Cd1 1_555 1_555
O7 N8 1_555 1_555
O8 N8 1_555 1_555
O9 C17 1_555 1_555
P1 O1 1_555 1_555
Cd1 N6 1_555 1_555
H24 O9 1_555 1_555
C18 H25 1_555 1_555
H26 C18 1_555 1_555
H27 C18 1_555 1_555
O10 C18 1_555 1_555
H28 O10 1_555 1_555
C19 H29 1_555 1_555
Cl1 C19 1_555 1_555
Cl2 C19 1_555 1_555
Cl3 C19 1_555 1_555
N7_2 Cd1 1_555 1_555
Cd1_2 N7 1_555 1_555
C2 N3 1_555 1_555
C3 N5 1_555 1_555
C4 N5 1_555 1_555
C5 N4 1_555 1_555
C6 N4 1_555 1_555
C10 C11 1_555 1_555
C10 N6 1_555 1_555
C16 N7 1_555 1_555
O2 P1 1_555 1_555
O4 Cd1 1_555 1_555
O7 Cd1 1_555 1_555
O9 Cd1 1_555 1_555

#END
