
#######################################################################
#
#                 Cambridge Crystallographic Data Centre
#                                CCDC 
#
#######################################################################
#
# If this CIF has been generated from an entry in the Cambridge 
# Structural Database, then it will include bibliographic, chemical, 
# crystal, experimental, refinement or atomic coordinate data resulting 
# from the CCDC's data processing and validation procedures.
#
#######################################################################

data_OVICIG
_symmetry_cell_setting           monoclinic
_symmetry_space_group_name_H-M   'P 21/c'
_symmetry_Int_Tables_number      14
_space_group_name_Hall           '-P 2ybc'
loop_
_symmetry_equiv_pos_site_id
_symmetry_equiv_pos_as_xyz
1 x,y,z
2 -x,1/2+y,1/2-z
3 -x,-y,-z
4 x,1/2-y,1/2+z
_cell_length_a                   17.251(5)
_cell_length_b                   20.112(5)
_cell_length_c                   11.419(5)
_cell_angle_alpha                90
_cell_angle_beta                 97.786(5)
_cell_angle_gamma                90
_cell_volume                     3925.32
loop_
_atom_site_label
_atom_site_type_symbol
_atom_site_fract_x
_atom_site_fract_y
_atom_site_fract_z
C1 C 0.61506(19) 0.15677(17) 1.4558(3)
C2 C 0.55388(19) 0.24703(16) 1.5284(3)
C3 C 0.7135(2) 0.18489(19) 1.3313(3)
H1 H 0.6806 0.2046 1.2659
H2 H 0.7568 0.1630 1.3031
H3 H 0.7327 0.2189 1.3866
C4 C 0.6827(2) 0.06688(18) 1.3661(3)
H4 H 0.6471 0.0399 1.4032
H5 H 0.7355 0.0556 1.3974
H6 H 0.6747 0.0591 1.2824
C5 C 0.6111(2) 0.35670(17) 1.5021(3)
H7 H 0.6516 0.3668 1.5659
H8 H 0.5865 0.3972 1.4720
H9 H 0.6335 0.3345 1.4403
C6 C 0.5036(2) 0.34376(18) 1.6220(3)
H10 H 0.4554 0.3194 1.6168
H11 H 0.4928 0.3890 1.5986
H12 H 0.5294 0.3427 1.7019
C7 C 0.38938(19) 0.10204(16) 1.4175(3)
C8 C 0.4000(2) 0.05316(16) 1.3368(3)
H13 H 0.4350 0.0185 1.3560
C9 C 0.3566(2) 0.05761(16) 1.2265(3)
H14 H 0.3628 0.0245 1.1717
C10 C 0.2984(2) 0.15358(16) 1.2745(3)
H15 H 0.2644 0.1887 1.2532
C11 C 0.3381(2) 0.15274(17) 1.3887(3)
H16 H 0.3300 0.1855 1.4433
C12 C 0.3827(2) 0.05180(16) 1.9005(3)
H17 H 0.3714 0.0129 1.9389
C13 C 0.4422(2) 0.05047(16) 1.8323(3)
H18 H 0.4706 0.0117 1.8251
C14 C 0.4590(2) 0.10743(16) 1.7747(3)
C15 C 0.4168(2) 0.16446(17) 1.7887(3)
H19 H 0.4276 0.2040 1.7520
C16 C 0.3579(2) 0.16066(17) 1.8590(3)
H20 H 0.3290 0.1990 1.8677
C17 C 0.1728(2) 0.06271(16) 0.7473(3)
H21 H 0.2118 0.0315 0.7691
C18 C 0.1336(2) 0.06000(16) 0.6347(3)
H22 H 0.1460 0.0280 0.5815
C19 C 0.0757(2) 0.10561(15) 0.6025(3)
C20 C 0.0577(2) 0.15256(17) 0.6835(3)
H23 H 0.0177 0.1833 0.6641
C21 C 0.1014(2) 0.15186(17) 0.7941(3)
H24 H 0.0908 0.1839 0.8483
C22 C -0.11241(18) 0.22431(15) 0.5149(3)
C23 C -0.15131(19) 0.12340(16) 0.5866(3)
C24 C -0.0822(2) 0.33302(16) 0.4376(3)
H25 H -0.0279 0.3361 0.4694
H26 H -0.1051 0.3766 0.4340
H27 H -0.0870 0.3144 0.3596
C25 C -0.1707(2) 0.32039(16) 0.5950(3)
H28 H -0.2226 0.3023 0.5807
H29 H -0.1729 0.3676 0.5830
H30 H -0.1482 0.3110 0.6748
C26 C -0.1997(2) 0.01998(17) 0.6621(3)
H31 H -0.2436 0.0040 0.6088
H32 H -0.2050 0.0064 0.7412
H33 H -0.1523 0.0018 0.6399
C27 C -0.2516(2) 0.12861(19) 0.7183(3)
H34 H -0.2449 0.1755 0.7075
H35 H -0.2420 0.1182 0.8011
H36 H -0.3041 0.1162 0.6874
C28 C -0.00232(19) 0.09744(16) 0.2471(3)
C29 C 0.0383(2) 0.15587(17) 0.2395(3)
H37 H 0.0277 0.1930 0.2831
C30 C 0.0118(2) 0.04385(16) 0.1770(3)
H38 H -0.0174 0.0050 0.1771
C31 C 0.0952(2) 0.15777(16) 0.1651(3)
H39 H 0.1219 0.1975 0.1590
C32 C 0.0710(2) 0.05016(16) 0.1065(3)
H40 H 0.0815 0.0140 0.0604
N1 N 0.49820(16) 0.21236(13) 1.5752(2)
N2 N 0.57499(16) 0.10827(12) 1.5057(2)
N3 N 0.60815(16) 0.22309(13) 1.4671(2)
N4 N 0.55345(17) 0.31393(14) 1.5448(3)
N5 N 0.66861(16) 0.13674(14) 1.3892(2)
N6 N 0.30599(16) 0.10710(12) 1.1934(2)
N7 N 0.33957(16) 0.10653(12) 1.9151(2)
N8 N 0.15806(16) 0.10794(13) 0.8278(2)
N9 N -0.06194(15) 0.19981(13) 0.4446(2)
N10 N -0.10865(16) 0.08358(13) 0.5233(2)
N11 N -0.15363(16) 0.19041(13) 0.5872(2)
N12 N -0.19691(17) 0.09232(13) 0.6563(2)
N13 N -0.12259(16) 0.29044(13) 0.5134(2)
N14 N 0.11404(15) 0.10572(13) 0.1013(2)
O1 O 0.42741(13) 0.09696(11) 1.53298(18)
O2 O 0.51908(13) 0.10458(10) 1.70475(18)
O3 O 0.03770(13) 0.10063(10) 0.48861(18)
O4 O -0.05914(13) 0.08983(10) 0.32097(18)
P1 P 0.50780(5) 0.13441(4) 1.57412(7)
P2 P -0.05164(5) 0.12176(4) 0.44952(7)
Cl1 Cl 0.22410(5) 0.23094(4) 1.01515(7)
Cl2 Cl 0.23089(5) -0.01543(4) 1.00968(7)
Mn1 Mn 0.22839(3) 0.10827(2) 1.01185(4)
N7_2 N 0.33957(16) 0.10653(12) 0.9151(2)
N14_2 N 0.11404(15) 0.10572(13) 1.1013(2)
Mn1_2 Mn 0.22839(3) 0.10827(2) 0.01185(4)
Mn1_3 Mn 0.22839(3) 0.10827(2) 2.01185(4)
loop_
_geom_bond_atom_site_label_1
_geom_bond_atom_site_label_2
_geom_bond_site_symmetry_1
_geom_bond_site_symmetry_2
C1 N2 1_555 1_555
C2 N1 1_555 1_555
C3 H1 1_555 1_555
H2 C3 1_555 1_555
H3 C3 1_555 1_555
C4 H4 1_555 1_555
H5 C4 1_555 1_555
H6 C4 1_555 1_555
C5 H7 1_555 1_555
H8 C5 1_555 1_555
H9 C5 1_555 1_555
C6 H10 1_555 1_555
H11 C6 1_555 1_555
H12 C6 1_555 1_555
C7 C8 1_555 1_555
C8 H13 1_555 1_555
C9 C8 1_555 1_555
H14 C9 1_555 1_555
C10 H15 1_555 1_555
C11 C7 1_555 1_555
H16 C11 1_555 1_555
C12 H17 1_555 1_555
C13 C12 1_555 1_555
H18 C13 1_555 1_555
C14 C13 1_555 1_555
C15 C14 1_555 1_555
H19 C15 1_555 1_555
C16 C15 1_555 1_555
H20 C16 1_555 1_555
C17 H21 1_555 1_555
C18 C17 1_555 1_555
H22 C18 1_555 1_555
C19 C18 1_555 1_555
C20 C19 1_555 1_555
H23 C20 1_555 1_555
C21 C20 1_555 1_555
H24 C21 1_555 1_555
C22 N9 1_555 1_555
C23 N10 1_555 1_555
C24 H25 1_555 1_555
H26 C24 1_555 1_555
H27 C24 1_555 1_555
C25 H28 1_555 1_555
H29 C25 1_555 1_555
H30 C25 1_555 1_555
C26 H31 1_555 1_555
H32 C26 1_555 1_555
H33 C26 1_555 1_555
C27 H34 1_555 1_555
H35 C27 1_555 1_555
H36 C27 1_555 1_555
C28 C29 1_555 1_555
C29 H37 1_555 1_555
C30 C28 1_555 1_555
H38 C30 1_555 1_555
C31 C29 1_555 1_555
H39 C31 1_555 1_555
C32 C30 1_555 1_555
H40 C32 1_555 1_555
N1 P1 1_555 1_555
N2 P1 1_555 1_555
N3 C1 1_555 1_555
N4 C2 1_555 1_555
N5 C1 1_555 1_555
N6 C9 1_555 1_555
N7 C12 1_555 1_555
N8 C17 1_555 1_555
N9 P2 1_555 1_555
N10 P2 1_555 1_555
N11 C22 1_555 1_555
N12 C23 1_555 1_555
N13 C22 1_555 1_555
N14 C31 1_555 1_555
O1 C7 1_555 1_555
O2 C14 1_555 1_555
O3 C19 1_555 1_555
O4 C28 1_555 1_555
P1 O1 1_555 1_555
P2 O3 1_555 1_555
Cl1 Mn1 1_555 1_555
Cl2 Mn1 1_555 1_555
Mn1 N6 1_555 1_555
N7_2 Mn1 1_555 1_555
N14_2 Mn1 1_555 1_555
Mn1_2 N14 1_555 1_555
Mn1_3 N7 1_555 1_555
C2 N3 1_555 1_555
C3 N5 1_555 1_555
C4 N5 1_555 1_555
C5 N4 1_555 1_555
C6 N4 1_555 1_555
C10 C11 1_555 1_555
C10 N6 1_555 1_555
C16 N7 1_555 1_555
C21 N8 1_555 1_555
C23 N11 1_555 1_555
C24 N13 1_555 1_555
C25 N13 1_555 1_555
C26 N12 1_555 1_555
C27 N12 1_555 1_555
C32 N14 1_555 1_555
N8 Mn1 1_555 1_555
O2 P1 1_555 1_555
O4 P2 1_555 1_555

#END
