
#######################################################################
#
#                 Cambridge Crystallographic Data Centre
#                                CCDC 
#
#######################################################################
#
# If this CIF has been generated from an entry in the Cambridge 
# Structural Database, then it will include bibliographic, chemical, 
# crystal, experimental, refinement or atomic coordinate data resulting 
# from the CCDC's data processing and validation procedures.
#
#######################################################################

data_OVIDON
_symmetry_cell_setting           monoclinic
_symmetry_space_group_name_H-M   'P 21/c'
_symmetry_Int_Tables_number      14
_space_group_name_Hall           '-P 2ybc'
loop_
_symmetry_equiv_pos_site_id
_symmetry_equiv_pos_as_xyz
1 x,y,z
2 -x,1/2+y,1/2-z
3 -x,-y,-z
4 x,1/2-y,1/2+z
_cell_length_a                   16.2439(11)
_cell_length_b                   12.9649(9)
_cell_length_c                   22.5736(15)
_cell_angle_alpha                90
_cell_angle_beta                 106.4040(10)
_cell_angle_gamma                90
_cell_volume                     4560.5
loop_
_atom_site_label
_atom_site_type_symbol
_atom_site_fract_x
_atom_site_fract_y
_atom_site_fract_z
Cd1 Cd 0.801985(14) 0.352607(19) 0.860027(10)
Cd2 Cd 0.579000(15) 0.43460(2) 0.786490(11)
O1 O 0.65170(17) 0.5692(2) 0.83770(13)
O2 O 0.77745(19) 0.5106(2) 0.89511(14)
O3 O 0.64845(19) 1.0599(3) 1.21150(13)
O4 O 0.7796(2) 1.0579(3) 1.27369(13)
O5 O 0.80225(16) 0.1997(2) 0.80925(13)
O6 O 0.67117(16) 0.1336(2) 0.79342(13)
O7 O 1.16926(15) -0.2822(2) 1.04552(11)
O8 O 1.29365(15) -0.2900(2) 1.02237(11)
O9 O 0.65831(14) 0.30710(19) 0.85377(11)
H1 H 0.6685 0.3010 0.8913
H2 H 0.6544 0.2506 0.8369
O10 O 0.48015(17) 0.5341(2) 0.71700(13)
H3 H 0.4358 0.5654 0.7157
H4 H 0.4733 0.5256 0.6799
O11 O 0.5128(2) 0.2884(3) 0.73565(14)
H5 H 0.4822 0.2533 0.7510
H6 H 0.5379 0.2911 0.7089
N1 N 0.7160(2) 0.8636(2) 0.90830(14)
N2 N 0.89222(18) 1.0237(2) 1.13720(13)
N3 N 0.76005(18) -0.1518(2) 0.75028(14)
N4 N 1.02277(18) -0.2890(2) 0.86750(13)
N5 N 0.94734(18) 0.3593(2) 0.87779(13)
N6 N 1.49347(18) 0.4403(2) 0.85332(13)
C1 C 0.7262(2) 0.5800(3) 0.87271(16)
C2 C 0.7537(2) 0.6897(3) 0.89125(15)
C3 C 0.8393(2) 0.7174(3) 0.90802(17)
H15 H 0.8813 0.6682 0.9091
C4 C 0.8620(2) 0.8181(3) 0.92303(18)
H16 H 0.9192 0.8385 0.9328
C5 C 0.7985(2) 0.8882(3) 0.92335(15)
C6 C 0.6948(2) 0.7662(3) 0.89145(17)
H17 H 0.6369 0.7490 0.8791
C7 C 0.8432(2) 1.0117(3) 1.07942(15)
C8 C 0.7551(2) 1.0014(3) 1.06337(16)
H18 H 0.7236 0.9885 1.0228
C9 C 0.7153(2) 1.0109(3) 1.10944(16)
H19 H 0.6560 1.0049 1.1003
C10 C 0.7641(2) 1.0294(3) 1.16960(15)
C11 C 0.8521(2) 1.0327(3) 1.18043(16)
H20 H 0.8855 1.0419 1.2210
C12 C 0.7262(2) 1.0516(3) 1.22167(16)
C13 C 0.7495(2) 0.1271(3) 0.79613(15)
C14 C 0.7839(2) 0.0250(3) 0.78241(14)
C15 C 0.7317(2) -0.0590(3) 0.76123(17)
H21 H 0.6729 -0.0505 0.7541
C16 C 0.8451(2) -0.1625(3) 0.76167(15)
C17 C 0.9033(2) -0.0842(3) 0.78385(16)
H22 H 0.9620 -0.0950 0.7916
C18 C 0.8717(2) 0.0101(3) 0.79406(15)
H23 H 0.9092 0.0644 0.8089
C19 C 1.0609(2) -0.2854(3) 0.82269(15)
C20 C 1.1492(2) -0.2813(3) 0.83264(16)
H24 H 1.1731 -0.2795 0.7997
C21 C 1.2003(2) -0.2800(3) 0.89276(15)
H25 H 1.2597 -0.2764 0.9011
C22 C 1.1628(2) -0.2840(3) 0.94096(15)
C23 C 1.0743(2) -0.2886(3) 0.92525(16)
H26 H 1.0487 -0.2917 0.9572
C24 C 1.2134(2) -0.2859(3) 1.00809(16)
C25 C 0.9945(2) 0.2781(3) 0.90497(17)
H27 H 0.9665 0.2211 0.9151
C26 C 1.0822(2) 0.2758(3) 0.91830(17)
H28 H 1.1120 0.2177 0.9370
C27 C 1.1268(2) 0.3586(3) 0.90440(16)
C28 C 1.0773(2) 0.4416(3) 0.87458(18)
H29 H 1.1037 0.4985 0.8627
C29 C 0.9890(2) 0.4390(3) 0.86285(17)
H30 H 0.9573 0.4956 0.8436
C30 C 1.2228(2) 0.3611(3) 0.92170(19)
H31 H 1.2413 0.3619 0.8844
H32 H 1.2453 0.2990 0.9445
C31 C 1.2591(2) 0.4543(3) 0.96058(17)
H33 H 1.2309 0.4608 0.9930
H34 H 1.2453 0.5153 0.9348
C32 C 1.3562(2) 0.4517(4) 0.99046(17)
H35 H 1.3731 0.5125 1.0161
H36 H 1.3706 0.3916 1.0169
C33 C 1.4054(2) 0.4484(3) 0.94343(16)
C34 C 1.4365(2) 0.3566(3) 0.92712(18)
H37 H 1.4284 0.2954 0.9462
C35 C 1.4796(2) 0.3559(3) 0.88263(18)
H38 H 1.5001 0.2932 0.8725
C36 C 1.4641(2) 0.5296(3) 0.86939(17)
H39 H 1.4739 0.5899 0.8501
C37 C 1.4203(2) 0.5356(3) 0.91321(18)
H40 H 1.4004 0.5991 0.9225
S1 S 0.90784(6) 1.01233(8) 1.02724(4)
S2 S 0.82275(7) 1.02084(8) 0.94177(4)
S3 S 0.99622(6) -0.28133(8) 0.74421(4)
S4 S 0.87309(6) -0.29111(8) 0.74751(5)
Cd1C Cd 0.801985(14) 1.147393(19) 1.360027(10)
Cd1B Cd 1.198015(14) -0.352607(19) 1.139973(10)
Cd2C Cd 0.579000(15) 1.06540(2) 1.286490(11)
Cd2_2 Cd 1.579000(15) 0.43460(2) 0.786490(11)
O3C O 0.64845(19) 0.4401(3) 0.71150(13)
O4C O 0.7796(2) 0.4421(3) 0.77369(13)
O7B O 0.83074(15) 0.2822(2) 0.95448(11)
N6_2 N 0.49347(18) 0.4403(2) 0.85332(13)
O12 O 0.3831(2) 0.2109(3) 0.77263(18)
H7 H 0.3371 0.2408 0.7670
H8 H 0.3629 0.1578 0.7546
O13 O 0.5678(2) 0.5150(3) 0.40950(16)
H9 H 0.6164 0.5362 0.4126
H10 H 0.5584 0.4618 0.4261
O14 O 0.4238(2) 0.6542(3) 0.51087(17)
H11 H 0.4267 0.6900 0.4816
H12 H 0.3885 0.6972 0.5146
O15 O 0.4584(3) 0.6833(4) 0.3952(2)
H13 H 0.4427 0.7232 0.3660
H14 H 0.4995 0.6438 0.4045
loop_
_geom_bond_atom_site_label_1
_geom_bond_atom_site_label_2
_geom_bond_site_symmetry_1
_geom_bond_site_symmetry_2
Cd1 O2 1_555 1_555
Cd2 O1 1_555 1_555
O1 C1 1_555 1_555
O2 C1 1_555 1_555
O3 C12 1_555 1_555
O4 C12 1_555 1_555
O5 Cd1 1_555 1_555
O6 C13 1_555 1_555
O7 C24 1_555 1_555
O8 C24 1_555 1_555
O9 Cd1 1_555 1_555
H1 O9 1_555 1_555
H2 O9 1_555 1_555
O10 Cd2 1_555 1_555
H3 O10 1_555 1_555
H4 O10 1_555 1_555
O11 Cd2 1_555 1_555
H5 O11 1_555 1_555
H6 O11 1_555 1_555
O12 H7 1_555 1_555
H8 O12 1_555 1_555
O13 H9 1_555 1_555
H10 O13 1_555 1_555
O14 H11 1_555 1_555
H12 O14 1_555 1_555
O15 H13 1_555 1_555
H14 O15 1_555 1_555
N1 C5 1_555 1_555
N2 C7 1_555 1_555
N3 C15 1_555 1_555
N4 C19 1_555 1_555
N5 Cd1 1_555 1_555
N6 C35 1_555 1_555
C1 C2 1_555 1_555
C2 C3 1_555 1_555
C3 H15 1_555 1_555
C4 C3 1_555 1_555
H16 C4 1_555 1_555
C5 C4 1_555 1_555
C6 N1 1_555 1_555
H17 C6 1_555 1_555
C7 C8 1_555 1_555
C8 H18 1_555 1_555
C9 C8 1_555 1_555
H19 C9 1_555 1_555
C10 C9 1_555 1_555
C11 N2 1_555 1_555
H20 C11 1_555 1_555
C12 C10 1_555 1_555
C13 O5 1_555 1_555
C14 C13 1_555 1_555
C15 C14 1_555 1_555
H21 C15 1_555 1_555
C16 N3 1_555 1_555
C17 C16 1_555 1_555
H22 C17 1_555 1_555
C18 C14 1_555 1_555
H23 C18 1_555 1_555
C19 C20 1_555 1_555
C20 H24 1_555 1_555
C21 C20 1_555 1_555
H25 C21 1_555 1_555
C22 C21 1_555 1_555
C23 N4 1_555 1_555
H26 C23 1_555 1_555
C24 C22 1_555 1_555
C25 N5 1_555 1_555
H27 C25 1_555 1_555
C26 C25 1_555 1_555
H28 C26 1_555 1_555
C27 C26 1_555 1_555
C28 C27 1_555 1_555
H29 C28 1_555 1_555
C29 N5 1_555 1_555
H30 C29 1_555 1_555
C30 C27 1_555 1_555
H31 C30 1_555 1_555
H32 C30 1_555 1_555
C31 C30 1_555 1_555
H33 C31 1_555 1_555
H34 C31 1_555 1_555
C32 C31 1_555 1_555
H35 C32 1_555 1_555
H36 C32 1_555 1_555
C33 C32 1_555 1_555
C34 C33 1_555 1_555
H37 C34 1_555 1_555
C35 C34 1_555 1_555
H38 C35 1_555 1_555
C36 N6 1_555 1_555
H39 C36 1_555 1_555
C37 C33 1_555 1_555
H40 C37 1_555 1_555
S1 C7 1_555 1_555
S2 C5 1_555 1_555
S3 C19 1_555 1_555
S4 C16 1_555 1_555
Cd1C O4 1_555 1_555
Cd1B O7 1_555 1_555
Cd2C O3 1_555 1_555
Cd2_2 N6 1_555 1_555
O3C Cd2 1_555 1_555
O4C Cd1 1_555 1_555
O7B Cd1 1_555 1_555
N6_2 Cd2 1_555 1_555
Cd2 O9 1_555 1_555
C2 C6 1_555 1_555
C10 C11 1_555 1_555
C17 C18 1_555 1_555
C22 C23 1_555 1_555
C28 C29 1_555 1_555
C36 C37 1_555 1_555
S1 S2 1_555 1_555
S3 S4 1_555 1_555

#END
