
#######################################################################
#
#                 Cambridge Crystallographic Data Centre
#                                CCDC 
#
#######################################################################
#
# If this CIF has been generated from an entry in the Cambridge 
# Structural Database, then it will include bibliographic, chemical, 
# crystal, experimental, refinement or atomic coordinate data resulting 
# from the CCDC's data processing and validation procedures.
#
#######################################################################

data_OVIYEY
_symmetry_cell_setting           orthorhombic
_symmetry_space_group_name_H-M   'P 21 21 21'
_symmetry_Int_Tables_number      19
_space_group_name_Hall           'P 2ac 2ab'
loop_
_symmetry_equiv_pos_site_id
_symmetry_equiv_pos_as_xyz
1 x,y,z
2 1/2-x,-y,1/2+z
3 1/2+x,1/2-y,-z
4 -x,1/2+y,1/2-z
_cell_length_a                   8.4837(2)
_cell_length_b                   12.7231(2)
_cell_length_c                   15.5816(3)
_cell_angle_alpha                90
_cell_angle_beta                 90
_cell_angle_gamma                90
_cell_volume                     1681.86
loop_
_atom_site_label
_atom_site_type_symbol
_atom_site_fract_x
_atom_site_fract_y
_atom_site_fract_z
Co1 Co 0.69906(3) 0.583822(18) 0.805574(14)
O1 O 0.57098(18) 0.44815(11) 0.85959(10)
N1 N 0.47359(18) 0.64329(12) 0.84058(9)
C1 C 0.4126(2) 0.73552(16) 0.81698(12)
H1 H 0.4748 0.7815 0.7853
C2 C 0.2604(2) 0.76554(18) 0.83777(14)
H2 H 0.2209 0.8300 0.8196
C3 C 0.1692(3) 0.69891(19) 0.88544(16)
H3 H 0.0668 0.7175 0.9003
C4 C 0.2316(2) 0.60320(18) 0.91134(15)
H4 H 0.1718 0.5565 0.9437
C5 C 0.3842(2) 0.57868(17) 0.88804(11)
C6 C 0.4582(2) 0.47407(15) 0.90458(13)
C7 C 0.4010(2) 0.40372(16) 0.97318(12)
C8 C 0.4045(4) 0.29661(18) 0.96034(16)
H5 H 0.4378 0.2696 0.9079
C9 C 0.3588(5) 0.2294(2) 1.0249(2)
H6 H 0.3600 0.1572 1.0157
C10 C 0.3114(4) 0.2684(2) 1.10281(17)
H7 H 0.2810 0.2225 1.1462
C11 C 0.3086(4) 0.3742(2) 1.11698(15)
H8 H 0.2782 0.4003 1.1702
C12 C 0.3513(3) 0.44268(18) 1.05177(14)
H9 H 0.3465 0.5149 1.0607
N2 N 0.7222(2) 0.39810(16) 0.43506(10)
N3 N 0.5488(2) 0.45406(18) 0.55112(11)
N4 N 0.6153(2) 0.54382(15) 0.68452(11)
N5 N 1.0972(2) 0.99656(14) 0.71564(12)
N6 N 0.8455(2) 0.90673(18) 0.7250(2)
N7 N 0.7876(2) 0.72751(14) 0.76845(12)
C13 C 0.6489(2) 0.42681(18) 0.49218(12)
C14 C 0.5921(2) 0.50224(17) 0.62053(12)
C15 C 0.9837(3) 0.94993(17) 0.72129(15)
C16 C 0.8233(2) 0.81016(18) 0.74942(15)
Co1A Co 0.80094(3) 0.416178(18) 0.305574(14)
Co1C Co 1.30094(3) 1.083822(18) 0.694426(14)
N2A N 0.7778(2) 0.60190(16) 0.93506(10)
N5C N 0.9028(2) 0.49656(14) 0.78436(12)
loop_
_geom_bond_atom_site_label_1
_geom_bond_atom_site_label_2
_geom_bond_site_symmetry_1
_geom_bond_site_symmetry_2
Co1 O1 1_555 1_555
O1 C6 1_555 1_555
N1 Co1 1_555 1_555
C1 N1 1_555 1_555
H1 C1 1_555 1_555
C2 C1 1_555 1_555
H2 C2 1_555 1_555
C3 C2 1_555 1_555
H3 C3 1_555 1_555
C4 C3 1_555 1_555
H4 C4 1_555 1_555
C5 N1 1_555 1_555
C6 C5 1_555 1_555
C7 C6 1_555 1_555
C8 C7 1_555 1_555
H5 C8 1_555 1_555
C9 C8 1_555 1_555
H6 C9 1_555 1_555
C10 C9 1_555 1_555
H7 C10 1_555 1_555
C11 C10 1_555 1_555
H8 C11 1_555 1_555
C12 C7 1_555 1_555
H9 C12 1_555 1_555
N2 C13 1_555 1_555
N3 C13 1_555 1_555
N4 Co1 1_555 1_555
N5 C15 1_555 1_555
N6 C15 1_555 1_555
N7 Co1 1_555 1_555
C14 N3 1_555 1_555
C16 N6 1_555 1_555
Co1A N2 1_555 1_555
Co1C N5 1_555 1_555
N2A Co1 1_555 1_555
N5C Co1 1_555 1_555
C4 C5 1_555 1_555
C11 C12 1_555 1_555
N4 C14 1_555 1_555
N7 C16 1_555 1_555

#END
