
#######################################################################
#
#                 Cambridge Crystallographic Data Centre
#                                CCDC 
#
#######################################################################
#
# If this CIF has been generated from an entry in the Cambridge 
# Structural Database, then it will include bibliographic, chemical, 
# crystal, experimental, refinement or atomic coordinate data resulting 
# from the CCDC's data processing and validation procedures.
#
#######################################################################

data_OVOZUV
_symmetry_cell_setting           rhombohedral
_symmetry_space_group_name_H-M   'R -3'
_symmetry_Int_Tables_number      148
_space_group_name_Hall           '-P 3*'
loop_
_symmetry_equiv_pos_site_id
_symmetry_equiv_pos_as_xyz
1 x,y,z
2 z,x,y
3 y,z,x
4 -x,-y,-z
5 -z,-x,-y
6 -y,-z,-x
_cell_length_a                   12.8387(7)
_cell_length_b                   12.8387(7)
_cell_length_c                   12.8387(7)
_cell_angle_alpha                103.93
_cell_angle_beta                 103.93
_cell_angle_gamma                103.93
_cell_volume                     1890.73
loop_
_atom_site_label
_atom_site_type_symbol
_atom_site_fract_x
_atom_site_fract_y
_atom_site_fract_z
Cd1 Cd 0.5000 0.5000 1.0000
O1 O 0.49200(11) 0.31706(10) 0.97933(10)
O2 O 0.55949(11) 0.17990(10) 0.63272(10)
N1 N 0.63502(12) 0.48396(12) 0.91670(12)
C1 C 0.63102(14) 0.39553(14) 0.83664(14)
C2 C 0.72462(16) 0.42459(15) 0.78263(16)
C3 C 0.78994(16) 0.54409(16) 0.85943(16)
C4 C 0.88870(19) 0.61964(18) 0.86338(19)
H1 H 0.9279 0.5999 0.8115
C5 C 0.9293(2) 0.72540(19) 0.9453(2)
H2 H 0.9978 0.7782 0.9502
C6 C 0.87140(18) 0.75530(18) 1.02033(19)
H3 H 0.9011 0.8280 1.0759
C7 C 0.77101(17) 0.68057(16) 1.01517(16)
H4 H 0.7306 0.7010 1.0656
C8 C 0.73190(15) 0.57527(15) 0.93396(15)
C9 C 0.55139(14) 0.28414(14) 0.81275(14)
C10 C 0.49491(15) 0.25597(15) 0.88937(15)
H5 H 0.4527 0.1783 0.8688
C11 C 0.52550(15) 0.18807(15) 0.71635(15)
H6 H 0.4749 0.1203 0.7159
C12 C 0.79924(17) 0.34740(18) 0.78615(19)
H7 H 0.8636 0.3765 0.7612
H8 H 0.7546 0.2706 0.7358
H9 H 0.8271 0.3458 0.8637
C13 C 0.67540(19) 0.42820(17) 0.66183(17)
H10 H 0.6283 0.4780 0.6632
H11 H 0.6292 0.3518 0.6118
H12 H 0.7374 0.4571 0.6338
Cd1B Cd 0.5000 0.0000 0.5000
Cd1B_2 Cd 0.5000 1.0000 1.5000
O1C O 0.50800(11) 0.68294(10) 1.02067(10)
O2C O 0.44051(11) 0.82010(10) 1.36728(10)
O2A O 0.63272(10) 0.55949(11) 1.17990(10)
O2D O 0.36728(10) 0.44051(11) 0.82010(10)
N1C N 0.36498(12) 0.51604(12) 1.08330(12)
C1C C 0.36898(14) 0.60447(14) 1.16336(14)
C2C C 0.27538(16) 0.57541(15) 1.21737(16)
C3C C 0.21006(16) 0.45591(16) 1.14057(16)
C4C C 0.11130(19) 0.38036(18) 1.13662(19)
H1C H 0.0721 0.4001 1.1885
C5C C 0.0707(2) 0.27460(19) 1.0547(2)
H2C H 0.0022 0.2218 1.0498
C6C C 0.12860(18) 0.24470(18) 0.97967(19)
H3C H 0.0989 0.1720 0.9241
C7C C 0.22899(17) 0.31943(16) 0.98483(16)
H4C H 0.2694 0.2990 0.9344
C8C C 0.26810(15) 0.42473(15) 1.06604(15)
C9C C 0.44861(14) 0.71586(14) 1.18725(14)
C10C C 0.50509(15) 0.74403(15) 1.11063(15)
H5C H 0.5473 0.8217 1.1312
C11C C 0.47450(15) 0.81193(15) 1.28365(15)
H6C H 0.5251 0.8797 1.2841
C12C C 0.20076(17) 0.65260(18) 1.21385(19)
H7C H 0.1364 0.6235 1.2388
H8C H 0.2454 0.7294 1.2642
H9C H 0.1729 0.6542 1.1363
C13C C 0.32460(19) 0.57180(17) 1.33817(17)
H10C H 0.3717 0.5220 1.3368
H11C H 0.3708 0.6482 1.3882
H12C H 0.2626 0.5429 1.3662
loop_
_geom_bond_atom_site_label_1
_geom_bond_atom_site_label_2
_geom_bond_site_symmetry_1
_geom_bond_site_symmetry_2
Cd1 O1 1_555 1_555
O1 C10 1_555 1_555
O2 C11 1_555 1_555
N1 Cd1 1_555 1_555
C1 N1 1_555 1_555
C2 C1 1_555 1_555
C3 C2 1_555 1_555
C4 C3 1_555 1_555
H1 C4 1_555 1_555
C5 C4 1_555 1_555
H2 C5 1_555 1_555
C6 C5 1_555 1_555
H3 C6 1_555 1_555
C7 C6 1_555 1_555
H4 C7 1_555 1_555
C8 N1 1_555 1_555
C9 C1 1_555 1_555
C10 C9 1_555 1_555
H5 C10 1_555 1_555
C11 C9 1_555 1_555
H6 C11 1_555 1_555
C12 C2 1_555 1_555
H7 C12 1_555 1_555
H8 C12 1_555 1_555
H9 C12 1_555 1_555
C13 C2 1_555 1_555
H10 C13 1_555 1_555
H11 C13 1_555 1_555
H12 C13 1_555 1_555
Cd1B O2 1_555 1_555
Cd1B_2 O2C 1_555 1_555
O1C Cd1 1_555 1_555
O2C C11C 1_555 1_555
O2A Cd1 1_555 1_555
O2D Cd1 1_555 1_555
N1C Cd1 1_555 1_555
C1C N1C 1_555 1_555
C2C C1C 1_555 1_555
C3C C2C 1_555 1_555
C4C C3C 1_555 1_555
H1C C4C 1_555 1_555
C5C C4C 1_555 1_555
H2C C5C 1_555 1_555
C6C C5C 1_555 1_555
H3C C6C 1_555 1_555
C7C C6C 1_555 1_555
H4C C7C 1_555 1_555
C8C N1C 1_555 1_555
C9C C1C 1_555 1_555
C10C O1C 1_555 1_555
H5C C10C 1_555 1_555
C11C C9C 1_555 1_555
H6C C11C 1_555 1_555
C12C C2C 1_555 1_555
H7C C12C 1_555 1_555
H8C C12C 1_555 1_555
H9C C12C 1_555 1_555
C13C C2C 1_555 1_555
H10C C13C 1_555 1_555
H11C C13C 1_555 1_555
H12C C13C 1_555 1_555
C3 C8 1_555 1_555
C7 C8 1_555 1_555
C3C C8C 1_555 1_555
C7C C8C 1_555 1_555
C9C C10C 1_555 1_555

#END
