
#######################################################################
#
#                 Cambridge Crystallographic Data Centre
#                                CCDC 
#
#######################################################################
#
# If this CIF has been generated from an entry in the Cambridge 
# Structural Database, then it will include bibliographic, chemical, 
# crystal, experimental, refinement or atomic coordinate data resulting 
# from the CCDC's data processing and validation procedures.
#
#######################################################################

data_OVUKIA
_symmetry_cell_setting           triclinic
_symmetry_space_group_name_H-M   'P -1'
_symmetry_Int_Tables_number      2
_space_group_name_Hall           '-P 1'
loop_
_symmetry_equiv_pos_site_id
_symmetry_equiv_pos_as_xyz
1 x,y,z
2 -x,-y,-z
_cell_length_a                   5.008(1)
_cell_length_b                   6.6578(13)
_cell_length_c                   8.5790(17)
_cell_angle_alpha                89.28(3)
_cell_angle_beta                 75.76(3)
_cell_angle_gamma                78.80(3)
_cell_volume                     271.787
loop_
_atom_site_label
_atom_site_type_symbol
_atom_site_fract_x
_atom_site_fract_y
_atom_site_fract_z
Cd1 Cd 0.0000 0.5000 0.0000
Cd2 Cd 0.5000 1.0000 0.5000
O1 O 0.2208(6) 0.5724(5) 0.1952(5)
O2 O 0.3382(6) 0.7516(5) 0.3832(5)
O3 O -0.1994(6) 1.2930(5) 0.1761(5)
O4 O -0.1420(6) 0.9876(4) 0.2847(5)
O5 O 0.7976(6) 0.7395(5) 0.5821(5)
H1 H 0.7969 0.6159 0.5589
H2 H 0.9091 0.7660 0.6359
N1 N 0.6667(6) 0.8145(5) 0.0182(6)
C1 C -0.0609(8) 1.1208(6) 0.1981(7)
C2 C 0.2440(8) 1.0600(6) 0.0919(7)
C3 C 0.4042(9) 0.8669(7) 0.1124(7)
C4 C 0.3160(10) 0.7226(7) 0.2421(7)
Cd1_2 Cd 0.0000 1.5000 0.0000
Cd1_3 Cd 1.0000 0.5000 0.0000
Cd1_4 Cd 1.0000 1.5000 0.0000
Cd2_2 Cd -0.5000 1.0000 0.5000
Cd2_3 Cd 1.5000 1.0000 -0.5000
Cd2_4 Cd 0.5000 1.0000 -0.5000
O1A O 0.7792(6) 1.4276(5) -0.1952(5)
O1A_2 O -0.2208(6) 0.4276(5) -0.1952(5)
O2A O 0.6618(6) 1.2484(5) -0.3832(5)
O2A_2 O 0.6618(6) 1.2484(5) 0.6168(5)
O3A O 1.1994(6) 0.7070(5) -0.1761(5)
O3_2 O -0.1994(6) 0.2930(5) 0.1761(5)
O3A_2 O 0.1994(6) 0.7070(5) -0.1761(5)
O4A O 1.1420(6) 1.0124(4) -0.2847(5)
O4_2 O 0.8580(6) 0.9876(4) 0.2847(5)
O4A_2 O 0.1420(6) 1.0124(4) 0.7153(5)
O5A O 0.2024(6) 1.2605(5) 0.4179(5)
H1A H 0.2031 1.3841 0.4411
H2A H 0.0909 1.2340 0.3641
N1A N 0.3333(6) 1.1855(5) -0.0182(6)
N1_2 N -0.3333(6) 0.8145(5) 0.0182(6)
N1A_2 N 0.3333(6) 0.1855(5) -0.0182(6)
C1A C 1.0609(8) 0.8792(6) -0.1981(7)
C2A C 0.7560(8) 0.9400(6) -0.0919(7)
C3A C 0.5958(9) 1.1331(7) -0.1124(7)
C4A C 0.6840(10) 1.2774(7) -0.2421(7)
loop_
_geom_bond_atom_site_label_1
_geom_bond_atom_site_label_2
_geom_bond_site_symmetry_1
_geom_bond_site_symmetry_2
Cd1 O1 1_555 1_555
Cd2 O2 1_555 1_555
O1 C4 1_555 1_555
O2 C4 1_555 1_555
O3 C1 1_555 1_555
O4 C1 1_555 1_555
O5 Cd2 1_555 1_555
H1 O5 1_555 1_555
H2 O5 1_555 1_555
N1 C3 1_555 1_555
C1 C2 1_555 1_555
C2 C3 1_555 1_555
C3 C4 1_555 1_555
Cd1_2 O3 1_555 1_555
Cd1_3 N1 1_555 1_555
Cd1_4 O1A 1_555 1_555
Cd2_2 O4 1_555 1_555
Cd2_3 O4A 1_555 1_555
Cd2_4 O2A 1_555 1_555
O1A C4A 1_555 1_555
O1A_2 Cd1 1_555 1_555
O2A C4A 1_555 1_555
O2A_2 Cd2 1_555 1_555
O3A Cd1_3 1_555 1_555
O3_2 Cd1 1_555 1_555
O3A_2 Cd1 1_555 1_555
O4A C1A 1_555 1_555
O4_2 Cd2 1_555 1_555
O4A_2 Cd2 1_555 1_555
O5A Cd2 1_555 1_555
H1A O5A 1_555 1_555
H2A O5A 1_555 1_555
N1A C2 1_555 1_555
N1_2 Cd1 1_555 1_555
N1A_2 Cd1 1_555 1_555
C1A O3A 1_555 1_555
C2A N1 1_555 1_555
C3A N1A 1_555 1_555
C4A C3A 1_555 1_555
Cd1_2 N1A 1_555 1_555
C1A C2A 1_555 1_555
C2A C3A 1_555 1_555

#END
