
#######################################################################
#
#                 Cambridge Crystallographic Data Centre
#                                CCDC 
#
#######################################################################
#
# If this CIF has been generated from an entry in the Cambridge 
# Structural Database, then it will include bibliographic, chemical, 
# crystal, experimental, refinement or atomic coordinate data resulting 
# from the CCDC's data processing and validation procedures.
#
#######################################################################

data_OVUSAA
_symmetry_cell_setting           tetragonal
_symmetry_space_group_name_H-M   'P 43 21 2'
_symmetry_Int_Tables_number      96
_space_group_name_Hall           'P 4nw 2abw'
loop_
_symmetry_equiv_pos_site_id
_symmetry_equiv_pos_as_xyz
1 x,y,z
2 -x,-y,1/2+z
3 1/2-y,1/2+x,3/4+z
4 1/2+y,1/2-x,1/4+z
5 1/2-x,1/2+y,3/4-z
6 1/2+x,1/2-y,1/4-z
7 y,x,-z
8 -y,-x,1/2-z
_cell_length_a                   9.8163(4)
_cell_length_b                   9.8163(4)
_cell_length_c                   28.0099(15)
_cell_angle_alpha                90
_cell_angle_beta                 90
_cell_angle_gamma                90
_cell_volume                     2699.03
loop_
_atom_site_label
_atom_site_type_symbol
_atom_site_fract_x
_atom_site_fract_y
_atom_site_fract_z
Co1 Co 0.59400(3) -0.06577(3) 0.115200(9)
O1 O 0.52050(15) 0.03331(14) 0.17200(5)
O2 O 0.68572(18) 0.04929(19) 0.22673(6)
O3 O 0.63196(17) 0.33109(17) 0.36398(6)
H1 H 0.6581 0.3653 0.3899
O4 O 0.48216(17) 0.50331(16) 0.36657(5)
O5 O 0.19966(15) 0.57869(16) 0.21710(6)
O6 O 0.17027(15) 0.40544(16) 0.16842(5)
N1 N 0.74474(16) -0.18617(17) 0.13931(6)
N2 N 0.80455(17) -0.15622(17) 0.18315(6)
H4 H 0.7749 -0.0946 0.2035
N3 N 0.92878(17) -0.31862(16) 0.15160(6)
N4 N 0.99464(18) -0.22770(19) 0.22764(6)
H5 H 0.9783 -0.1683 0.2505
H6 H 1.0651 -0.2828 0.2298
N5 N 0.80113(19) -0.34372(19) 0.07931(6)
H7 H 0.7312 -0.3186 0.0617
H8 H 0.8563 -0.4081 0.0691
C1 C 0.4981(2) 0.1987(2) 0.23283(7)
C2 C 0.5425(2) 0.2431(2) 0.27749(7)
H9 H 0.6156 0.1976 0.2930
C3 C 0.4803(2) 0.3536(2) 0.29937(7)
C4 C 0.37551(19) 0.4228(2) 0.27625(7)
H10 H 0.3348 0.5002 0.2908
C5 C 0.3305(2) 0.3781(2) 0.23180(7)
C6 C 0.3909(2) 0.2651(2) 0.21027(7)
H11 H 0.3588 0.2335 0.1802
C7 C 0.5745(2) 0.0849(2) 0.20914(7)
C8 C 0.5311(2) 0.4033(3) 0.34673(7)
C9 C 0.2258(2) 0.4593(2) 0.20495(8)
C10 C 0.9124(2) -0.23424(19) 0.18963(7)
C11 C 0.8238(2) -0.28356(19) 0.12191(7)
Co1E Co 0.09400(3) 0.56577(3) 0.134800(9)
Co1E_2 Co 1.09400(3) -0.43423(3) 0.134800(9)
O6E O 0.67027(15) 0.09456(16) 0.08158(5)
N3E N 0.42878(17) -0.18138(16) 0.09840(6)
O7 O 0.53422(17) 0.36918(17) 0.04816(6)
H2 H 0.4997 0.3043 0.0321
H3 H 0.4816 0.4113 0.0673
loop_
_geom_bond_atom_site_label_1
_geom_bond_atom_site_label_2
_geom_bond_site_symmetry_1
_geom_bond_site_symmetry_2
Co1 O1 1_555 1_555
O1 C7 1_555 1_555
O2 C7 1_555 1_555
O3 H1 1_555 1_555
O4 C8 1_555 1_555
O5 C9 1_555 1_555
O6 C9 1_555 1_555
O7 H2 1_555 1_555
H3 O7 1_555 1_555
N1 Co1 1_555 1_555
N2 N1 1_555 1_555
H4 N2 1_555 1_555
N3 C10 1_555 1_555
N4 H5 1_555 1_555
H6 N4 1_555 1_555
N5 H7 1_555 1_555
H8 N5 1_555 1_555
C1 C2 1_555 1_555
C2 H9 1_555 1_555
C3 C2 1_555 1_555
C4 C3 1_555 1_555
H10 C4 1_555 1_555
C5 C4 1_555 1_555
C6 C1 1_555 1_555
H11 C6 1_555 1_555
C7 C1 1_555 1_555
C8 O3 1_555 1_555
C9 C5 1_555 1_555
C10 N2 1_555 1_555
C11 N1 1_555 1_555
Co1E O6 1_555 1_555
Co1E_2 N3 1_555 1_555
O6E Co1 1_555 1_555
N3E Co1 1_555 1_555
N3 C11 1_555 1_555
N4 C10 1_555 1_555
N5 C11 1_555 1_555
C3 C8 1_555 1_555
C5 C6 1_555 1_555

#END
