
#######################################################################
#
#                 Cambridge Crystallographic Data Centre
#                                CCDC 
#
#######################################################################
#
# If this CIF has been generated from an entry in the Cambridge 
# Structural Database, then it will include bibliographic, chemical, 
# crystal, experimental, refinement or atomic coordinate data resulting 
# from the CCDC's data processing and validation procedures.
#
#######################################################################

data_OVUTOP
_symmetry_cell_setting           monoclinic
_symmetry_space_group_name_H-M   'P 21/c'
_symmetry_Int_Tables_number      14
_space_group_name_Hall           '-P 2ybc'
loop_
_symmetry_equiv_pos_site_id
_symmetry_equiv_pos_as_xyz
1 x,y,z
2 -x,1/2+y,1/2-z
3 -x,-y,-z
4 x,1/2-y,1/2+z
_cell_length_a                   6.9436(10)
_cell_length_b                   18.777(3)
_cell_length_c                   8.8705(13)
_cell_angle_alpha                90
_cell_angle_beta                 100.082(2)
_cell_angle_gamma                90
_cell_volume                     1138.68
loop_
_atom_site_label
_atom_site_type_symbol
_atom_site_fract_x
_atom_site_fract_y
_atom_site_fract_z
Eu1 Eu 0.22798(3) 0.452122(11) 0.40096(2)
S1 S -0.15633(15) 0.56319(6) 0.20117(12)
O1 O 0.5953(5) 0.44092(17) 0.4888(4)
O2 O 0.8935(4) 0.42812(18) 0.4364(3)
O3 O 0.3300(4) 0.33303(17) 0.4026(4)
O4 O 0.3975(5) 0.4712(2) 0.1920(4)
H1 H 0.5216 0.4690 0.2067
H2 H 0.3339 0.4797 0.1029
O5 O 0.0391(4) 0.39607(19) 0.1655(3)
H3 H 0.0979 0.3712 0.1076
H4 H -0.0840 0.4018 0.1433
O6 O 0.0541(5) 0.54712(15) 0.2500(4)
O7 O -0.1805(5) 0.62799(19) 0.1053(4)
O8 O -0.2513(5) 0.57537(19) 0.3362(4)
O9 O -0.2515(4) 0.5017(2) 0.1126(3)
N1 N 0.4598(6) 0.2299(2) 0.3401(5)
H5 H 0.3469 0.2110 0.3396
C1 C 0.7249(5) 0.4029(2) 0.4380(5)
C2 C 0.6744(6) 0.3294(3) 0.3847(5)
C3 C 0.8200(7) 0.2853(3) 0.3468(6)
H6 H 0.9454 0.3035 0.3516
C4 C 0.7836(8) 0.2145(3) 0.3018(8)
H7 H 0.8808 0.1866 0.2716
C5 C 0.6023(7) 0.1874(3) 0.3032(8)
H8 H 0.5762 0.1398 0.2789
C6 C 0.4808(6) 0.3003(2) 0.3779(5)
Eu1B Eu 0.77202(3) 0.547878(11) 0.59904(2)
Eu1_2 Eu 1.22798(3) 0.452122(11) 0.40096(2)
Eu1B_2 Eu -0.22798(3) 0.547878(11) 0.59904(2)
O1B O 0.4047(5) 0.55908(17) 0.5112(4)
O2_2 O -0.1065(4) 0.42812(18) 0.4364(3)
O2B O 0.1065(4) 0.57188(18) 0.5636(3)
O8B O 0.2513(5) 0.42463(19) 0.6638(4)
loop_
_geom_bond_atom_site_label_1
_geom_bond_atom_site_label_2
_geom_bond_site_symmetry_1
_geom_bond_site_symmetry_2
Eu1 O1 1_555 1_555
S1 O6 1_555 1_555
O1 C1 1_555 1_555
O2 C1 1_555 1_555
O3 Eu1 1_555 1_555
O4 Eu1 1_555 1_555
H1 O4 1_555 1_555
H2 O4 1_555 1_555
O5 Eu1 1_555 1_555
H3 O5 1_555 1_555
H4 O5 1_555 1_555
O6 Eu1 1_555 1_555
O7 S1 1_555 1_555
O8 S1 1_555 1_555
O9 S1 1_555 1_555
N1 H5 1_555 1_555
C1 C2 1_555 1_555
C2 C3 1_555 1_555
C3 H6 1_555 1_555
C4 C3 1_555 1_555
H7 C4 1_555 1_555
C5 N1 1_555 1_555
H8 C5 1_555 1_555
C6 O3 1_555 1_555
Eu1B O1 1_555 1_555
Eu1_2 O2 1_555 1_555
Eu1B_2 O8 1_555 1_555
O1B Eu1 1_555 1_555
O2_2 Eu1 1_555 1_555
O2B Eu1 1_555 1_555
O8B Eu1 1_555 1_555
O2 Eu1B 1_555 1_555
N1 C6 1_555 1_555
C2 C6 1_555 1_555
C4 C5 1_555 1_555
Eu1B O1B 1_555 1_555
Eu1B_2 O2_2 1_555 1_555
Eu1B_2 O2B 1_555 1_555

#END
