
#######################################################################
#
#                 Cambridge Crystallographic Data Centre
#                                CCDC 
#
#######################################################################
#
# If this CIF has been generated from an entry in the Cambridge 
# Structural Database, then it will include bibliographic, chemical, 
# crystal, experimental, refinement or atomic coordinate data resulting 
# from the CCDC's data processing and validation procedures.
#
#######################################################################

data_OVUZUB
_symmetry_cell_setting           rhombohedral
_symmetry_space_group_name_H-M   'R -3'
_symmetry_Int_Tables_number      148
_space_group_name_Hall           '-R 3'
loop_
_symmetry_equiv_pos_site_id
_symmetry_equiv_pos_as_xyz
1 x,y,z
2 -y,x-y,z
3 -x+y,-x,z
4 2/3+x,1/3+y,1/3+z
5 2/3-y,1/3+x-y,1/3+z
6 2/3-x+y,1/3-x,1/3+z
7 1/3+x,2/3+y,2/3+z
8 1/3-y,2/3+x-y,2/3+z
9 1/3-x+y,2/3-x,2/3+z
10 -x,-y,-z
11 y,-x+y,-z
12 x-y,x,-z
13 1/3-x,2/3-y,2/3-z
14 1/3+y,2/3-x+y,2/3-z
15 1/3+x-y,2/3+x,2/3-z
16 2/3-x,1/3-y,1/3-z
17 2/3+y,1/3-x+y,1/3-z
18 2/3+x-y,1/3+x,1/3-z
_cell_length_a                   14.433(2)
_cell_length_b                   14.433(2)
_cell_length_c                   21.418(7)
_cell_angle_alpha                90
_cell_angle_beta                 90
_cell_angle_gamma                120
_cell_volume                     3863.87
loop_
_atom_site_label
_atom_site_type_symbol
_atom_site_fract_x
_atom_site_fract_y
_atom_site_fract_z
Cu1 Cu 1.0000 1.5000 0.5000
Cl1 Cl 1.10452(8) 1.42213(11) 0.47769(5)
N1 N 0.9461(3) 1.4227(2) 0.68555(12)
N2 N 0.9923(3) 1.4583(2) 0.58861(13)
N3 N 1.0507(3) 1.4491(2) 0.68315(14)
C1 C 0.7753(4) 1.3660(3) 0.74081(13)
C2 C 0.8924(4) 1.4017(3) 0.74642(14)
H1 H 0.9001 1.3468 0.7679
H2 H 0.9271 1.4662 0.7715
C3 C 1.0748(4) 1.4694(3) 0.62378(16)
H3 H 1.1421 1.4896 0.6076
C4 C 0.9136(4) 1.4294(3) 0.62914(15)
H4 H 0.8452 1.4158 0.6193
C5 C 0.7432(4) 1.4426(3) 0.73990(13)
C6 C 0.8269(4) 1.5610(3) 0.73623(18)
H5 H 0.8601 1.5851 0.7763
H6 H 0.8802 1.5712 0.7059
H7 H 0.7931 1.6010 0.7242
O3 O 1.1635(3) 1.6631(4) 0.53098(17)
H12 H 1.2026 1.7246 0.5149
H13 H 1.1506 1.6829 0.5657
Cu1A Cu 0.5000 1.5000 0.5000
Cu1B Cu 0.5000 1.0000 0.5000
Cu1A_2 Cu 1.5000 1.5000 0.5000
Cu1B_2 Cu 1.5000 2.0000 0.5000
Cl1I Cl 0.89548(8) 1.57787(11) 0.52231(5)
Cl1A Cl 0.57787(11) 1.68239(14) 0.47769(5)
Cl1J Cl 0.42213(11) 1.31761(14) 0.52231(5)
Cl1B Cl 0.31761(14) 0.89548(8) 0.47769(5)
Cl1K Cl 0.68239(14) 1.10452(8) 0.52231(5)
N1A N 0.5773(2) 1.5234(4) 0.68555(12)
N1B N 0.4766(4) 1.0539(3) 0.68555(12)
N1I N 1.0539(3) 1.5773(2) 0.31445(12)
N1J N 1.4227(2) 1.4766(4) 0.31445(12)
N1K N 1.5234(4) 1.9461(3) 0.31445(12)
N2A N 0.5417(2) 1.5340(4) 0.58861(13)
N2B N 0.4660(4) 1.0077(3) 0.58861(13)
N2I N 1.0077(3) 1.5417(2) 0.41139(13)
N2J N 1.4583(2) 1.4660(4) 0.41139(13)
N2K N 1.5340(4) 1.9923(3) 0.41139(13)
N2J_2 N 0.4583(2) 1.4660(4) 0.41139(13)
N2K_2 N 0.5340(4) 0.9923(3) 0.41139(13)
N3A N 0.5509(2) 1.6016(4) 0.68315(14)
N3B N 0.3984(4) 0.9493(3) 0.68315(14)
N3I N 0.9493(3) 1.5509(2) 0.31685(14)
N3J N 1.4491(2) 1.3984(4) 0.31685(14)
N3K N 1.6016(4) 2.0507(3) 0.31685(14)
C1A C 0.6340(3) 1.4093(5) 0.74081(13)
C1B C 0.5907(5) 1.2247(4) 0.74081(13)
C1I C 1.2247(4) 1.6340(3) 0.25919(13)
C1J C 1.3660(3) 1.5907(5) 0.25919(13)
C1K C 1.4093(5) 1.7753(4) 0.25919(13)
C2A C 0.5983(3) 1.4907(5) 0.74642(14)
C2B C 0.5093(5) 1.1076(4) 0.74642(14)
C2I C 1.1076(4) 1.5983(3) 0.25358(14)
C2J C 1.4017(3) 1.5093(5) 0.25358(14)
C2K C 1.4907(5) 1.8924(4) 0.25358(14)
H1A H 0.6532 1.5533 0.7679
H1B H 0.4467 1.0999 0.7679
H1I H 1.0999 1.6532 0.2321
H1J H 1.3468 1.4467 0.2321
H1K H 1.5533 1.9001 0.2321
H2A H 0.5338 1.4609 0.7715
H2B H 0.5391 1.0729 0.7715
H2I H 1.0729 1.5338 0.2285
H2J H 1.4662 1.5391 0.2285
H2K H 1.4609 1.9271 0.2285
C3A C 0.5306(3) 1.6054(5) 0.62378(16)
C3B C 0.3946(5) 0.9252(4) 0.62378(16)
C3I C 0.9252(4) 1.5306(3) 0.37622(16)
C3J C 1.4694(3) 1.3946(5) 0.37622(16)
C3K C 1.6054(5) 2.0748(4) 0.37622(16)
H3A H 0.5104 1.6525 0.6076
H3B H 0.3475 0.8579 0.6076
H3I H 0.8579 1.5104 0.3924
H3J H 1.4896 1.3475 0.3924
H3K H 1.6525 2.1421 0.3924
C4A C 0.5706(3) 1.4842(5) 0.62914(15)
C4B C 0.5158(5) 1.0864(4) 0.62914(15)
C4I C 1.0864(4) 1.5706(3) 0.37086(15)
C4J C 1.4294(3) 1.5158(5) 0.37086(15)
C4K C 1.4842(5) 1.9136(4) 0.37086(15)
H4A H 0.5842 1.4294 0.6193
H4B H 0.5706 1.1548 0.6193
H4I H 1.1548 1.5842 0.3807
H4J H 1.4158 1.5706 0.3807
H4K H 1.4294 1.8452 0.3807
C5A C 0.5574(3) 1.3006(5) 0.73990(13)
C5B C 0.6994(5) 1.2568(4) 0.73990(13)
C5I C 1.2568(4) 1.5574(3) 0.26010(13)
C5J C 1.4426(3) 1.6994(5) 0.26010(13)
C5K C 1.3006(5) 1.7432(4) 0.26010(13)
C6B C 0.7341(5) 1.1731(4) 0.73623(18)
C6A C 0.4390(3) 1.2659(5) 0.73623(18)
C6I C 1.1731(4) 1.4390(3) 0.26377(18)
C6K C 1.2659(5) 1.8269(4) 0.26377(18)
C6J C 1.5610(3) 1.7341(5) 0.26377(18)
H5B H 0.7250 1.1399 0.7763
H5A H 0.4149 1.2750 0.7763
H5I H 1.1399 1.4149 0.2237
H5K H 1.2750 1.8601 0.2237
H5J H 1.5851 1.7250 0.2237
H6B H 0.6910 1.1198 0.7059
H6A H 0.4288 1.3090 0.7059
H6I H 1.1198 1.4288 0.2941
H6K H 1.3090 1.8802 0.2941
H6J H 1.5712 1.6910 0.2941
H7B H 0.8079 1.2069 0.7242
H7A H 0.3990 1.1921 0.7242
H7I H 1.2069 1.3990 0.2758
H7K H 1.1921 1.7931 0.2758
H7J H 1.6010 1.8079 0.2758
O3I O 0.8365(3) 1.3369(4) 0.46902(17)
O3A O 0.3369(4) 1.5004(5) 0.53098(17)
O3J O 0.6631(4) 1.4996(5) 0.46902(17)
O3B O 0.4996(5) 0.8365(3) 0.53098(17)
O3K O 0.5004(5) 1.1635(3) 0.46902(17)
H12I H 0.7974 1.2754 0.4851
H12A H 0.2754 1.4780 0.5149
H12J H 0.7246 1.5220 0.4851
H12B H 0.5220 0.7974 0.5149
H12K H 0.4780 1.2026 0.4851
H13I H 0.8494 1.3171 0.4343
H13A H 0.3171 1.4677 0.5657
H13J H 0.6829 1.5323 0.4343
H13B H 0.5323 0.8494 0.5657
H13K H 0.4677 1.1506 0.4343
O1 O 0.6667 0.3333 0.3989(8)
O2 O 0.3333 0.6667 0.4311(3)
H8? H 0.7077 0.3107 0.4114
H9? H 0.6426 0.3647 0.3761
H10? H 0.3691 0.7223 0.4533
H11? H 0.2963 0.6096 0.4518
loop_
_geom_bond_atom_site_label_1
_geom_bond_atom_site_label_2
_geom_bond_site_symmetry_1
_geom_bond_site_symmetry_2
Cu1 Cl1 1_555 1_555
N1 N3 1_555 1_555
N2 Cu1 1_555 1_555
N3 C3 1_555 1_555
C1 C2 1_555 1_555
C2 N1 1_555 1_555
H1 C2 1_555 1_555
H2 C2 1_555 1_555
C3 N2 1_555 1_555
H3 C3 1_555 1_555
C4 N1 1_555 1_555
H4 C4 1_555 1_555
C5 C1 1_555 1_555
C6 C5 1_555 1_555
H5 C6 1_555 1_555
H6 C6 1_555 1_555
H7 C6 1_555 1_555
O3 Cu1 1_555 1_555
H12 O3 1_555 1_555
H13 O3 1_555 1_555
Cu1A Cl1A 1_555 1_555
Cu1B Cl1B 1_555 1_555
Cu1A_2 N2J 1_555 1_555
Cu1B_2 N2K 1_555 1_555
Cl1I Cu1 1_555 1_555
Cl1J Cu1A 1_555 1_555
Cl1K Cu1B 1_555 1_555
N1A N3A 1_555 1_555
N1B N3B 1_555 1_555
N1I N3I 1_555 1_555
N1J N3J 1_555 1_555
N1K N3K 1_555 1_555
N2A Cu1A 1_555 1_555
N2B Cu1B 1_555 1_555
N2I Cu1 1_555 1_555
N2J C3J 1_555 1_555
N2K C3K 1_555 1_555
N2J_2 Cu1A 1_555 1_555
N2K_2 Cu1B 1_555 1_555
N3A C3A 1_555 1_555
N3B C3B 1_555 1_555
N3I C3I 1_555 1_555
N3J C3J 1_555 1_555
N3K C3K 1_555 1_555
C1A C5 1_555 1_555
C1B C2B 1_555 1_555
C1I C2I 1_555 1_555
C1J C2J 1_555 1_555
C1K C2K 1_555 1_555
C2A N1A 1_555 1_555
C2B N1B 1_555 1_555
C2I N1I 1_555 1_555
C2J N1J 1_555 1_555
C2K N1K 1_555 1_555
H1A C2A 1_555 1_555
H1B C2B 1_555 1_555
H1I C2I 1_555 1_555
H1J C2J 1_555 1_555
H1K C2K 1_555 1_555
H2A C2A 1_555 1_555
H2B C2B 1_555 1_555
H2I C2I 1_555 1_555
H2J C2J 1_555 1_555
H2K C2K 1_555 1_555
C3A N2A 1_555 1_555
C3B N2B 1_555 1_555
C3I N2I 1_555 1_555
C3J H3J 1_555 1_555
C3K H3K 1_555 1_555
H3A C3A 1_555 1_555
H3B C3B 1_555 1_555
H3I C3I 1_555 1_555
C4A N1A 1_555 1_555
C4B N1B 1_555 1_555
C4I N1I 1_555 1_555
C4J N1J 1_555 1_555
C4K N1K 1_555 1_555
H4A C4A 1_555 1_555
H4B C4B 1_555 1_555
H4I C4I 1_555 1_555
H4J C4J 1_555 1_555
H4K C4K 1_555 1_555
C5A C1A 1_555 1_555
C5B C1 1_555 1_555
C5I C1I 1_555 1_555
C5J C1J 1_555 1_555
C5K C1I 1_555 1_555
C6B C5B 1_555 1_555
C6A C5A 1_555 1_555
C6I C5I 1_555 1_555
C6K C5K 1_555 1_555
C6J C5J 1_555 1_555
H5B C6B 1_555 1_555
H5A C6A 1_555 1_555
H5I C6I 1_555 1_555
H5K C6K 1_555 1_555
H5J C6J 1_555 1_555
H6B C6B 1_555 1_555
H6A C6A 1_555 1_555
H6I C6I 1_555 1_555
H6K C6K 1_555 1_555
H6J C6J 1_555 1_555
H7B C6B 1_555 1_555
H7A C6A 1_555 1_555
H7I C6I 1_555 1_555
H7K C6K 1_555 1_555
H7J C6J 1_555 1_555
O3I Cu1 1_555 1_555
O3A Cu1A 1_555 1_555
O3J Cu1A 1_555 1_555
O3B Cu1B 1_555 1_555
O3K Cu1B 1_555 1_555
H12I O3I 1_555 1_555
H12A O3A 1_555 1_555
H12J O3J 1_555 1_555
H12B O3B 1_555 1_555
H12K O3K 1_555 1_555
H13I O3I 1_555 1_555
H13A O3A 1_555 1_555
H13J O3J 1_555 1_555
H13B O3B 1_555 1_555
H13K O3K 1_555 1_555
N2 C4 1_555 1_555
N2A C4A 1_555 1_555
N2B C4B 1_555 1_555
N2I C4I 1_555 1_555
N2J C4J 1_555 1_555
N2K C4K 1_555 1_555
C1A C2A 1_555 1_555
C1B C5A 1_555 1_555
C1B C5B 1_555 1_555
C1J C5I 1_555 1_555
C1K C5J 1_555 1_555
C1K C5K 1_555 1_555

#END
