
#######################################################################
#
#                 Cambridge Crystallographic Data Centre
#                                CCDC 
#
#######################################################################
#
# If this CIF has been generated from an entry in the Cambridge 
# Structural Database, then it will include bibliographic, chemical, 
# crystal, experimental, refinement or atomic coordinate data resulting 
# from the CCDC's data processing and validation procedures.
#
#######################################################################

data_OWABIY
_symmetry_cell_setting           monoclinic
_symmetry_space_group_name_H-M   'P 21/n'
_symmetry_Int_Tables_number      14
_space_group_name_Hall           '-P 2yn'
loop_
_symmetry_equiv_pos_site_id
_symmetry_equiv_pos_as_xyz
1 x,y,z
2 1/2-x,1/2+y,1/2-z
3 -x,-y,-z
4 1/2+x,1/2-y,1/2+z
_cell_length_a                   11.5300(15)
_cell_length_b                   14.555(2)
_cell_length_c                   16.181(2)
_cell_angle_alpha                90
_cell_angle_beta                 101.440(2)
_cell_angle_gamma                90
_cell_volume                     2661.53
loop_
_atom_site_label
_atom_site_type_symbol
_atom_site_fract_x
_atom_site_fract_y
_atom_site_fract_z
Zn1 Zn 0.5000 0.5000 0.0000
C1 C 0.5603(5) 0.5161(4) 0.1966(3)
H1 H 0.6191 0.4715 0.2022
C2 C 0.4322(7) 0.6121(5) 0.1477(4)
H2 H 0.3815 0.6482 0.1090
C3 C 0.5545(5) 0.5354(5) 0.3510(3)
H3 H 0.6160 0.5785 0.3755
H4 H 0.5865 0.4738 0.3603
C4 C 0.4496(5) 0.5456(4) 0.3943(3)
C5 C 0.4368(5) 0.6266(4) 0.4377(3)
C6 C 0.5197(5) 0.7073(4) 0.4346(4)
H5 H 0.5863 0.7028 0.4807
H6 H 0.4783 0.7637 0.4390
H7 H 0.5469 0.7061 0.3822
C7 C 0.3434(5) 0.6339(4) 0.4807(3)
C8 C 0.3362(6) 0.7165(4) 0.5365(3)
H8 H 0.3137 0.6960 0.5882
H9 H 0.4140 0.7444 0.5515
C9 C 0.1696(7) 0.8820(6) 0.4083(4)
H10 H 0.1492 0.9161 0.3589
C10 C 0.1772(6) 0.8363(5) 0.5299(4)
H11 H 0.1654 0.8291 0.5847
C11 C 0.2604(5) 0.5636(4) 0.4761(4)
C12 C 0.1541(6) 0.5741(6) 0.5177(5)
H12 H 0.1719 0.5478 0.5732
H13 H 0.0873 0.5431 0.4846
H14 H 0.1360 0.6381 0.5217
C13 C 0.2741(5) 0.4832(4) 0.4318(4)
C14 C 0.1877(7) 0.4048(5) 0.4305(5)
H15 H 0.2309 0.3473 0.4359
H16 H 0.1500 0.4104 0.4788
C15 C -0.0098(7) 0.4210(6) 0.2283(6)
H17 H -0.0412 0.4424 0.1744
C16 C 0.0171(7) 0.3357(6) 0.3439(6)
H18 H 0.0072 0.2894 0.3815
C17 C 0.3690(5) 0.4742(4) 0.3904(3)
C18 C 0.3813(7) 0.3880(4) 0.3404(4)
H19 H 0.4416 0.3971 0.3079
H20 H 0.3073 0.3750 0.3031
H21 H 0.4026 0.3374 0.3783
N1 N 0.5067(4) 0.5514(3) 0.1249(3)
N2 N 0.5194(4) 0.5526(3) 0.2601(3)
N3 N 0.4368(6) 0.6164(4) 0.2298(3)
N4 N 0.2469(6) 0.8145(5) 0.4176(4)
N5 N 0.2512(4) 0.7860(3) 0.4963(3)
N6 N 0.1226(4) 0.8973(3) 0.4772(3)
N7 N 0.0969(6) 0.4022(5) 0.3543(4)
N8 N 0.0813(6) 0.4534(5) 0.2844(4)
N9 N -0.0440(6) 0.3507(5) 0.2688(4)
O1 O 0.6461(4) 0.4103(3) 0.0476(3)
H22 H 0.6209 0.3605 0.0596
H23 H 0.7085 0.4421 0.0633
Zn1A Zn 0.0000 1.0000 0.5000
Zn1A_2 Zn 1.0000 0.0000 -0.5000
C1B C 0.4397(5) 0.4839(4) -0.1966(3)
H1B H 0.3809 0.5285 -0.2022
C2B C 0.5678(7) 0.3879(5) -0.1477(4)
H2B H 0.6185 0.3518 -0.1090
C3B C 0.4455(5) 0.4646(5) -0.3510(3)
H3B H 0.3840 0.4215 -0.3755
H4B H 0.4135 0.5262 -0.3603
C4B C 0.5504(5) 0.4544(4) -0.3943(3)
C5B C 0.5632(5) 0.3734(4) -0.4377(3)
C6B C 0.4803(5) 0.2927(4) -0.4346(4)
H5B H 0.4137 0.2972 -0.4807
H6B H 0.5217 0.2363 -0.4390
H7B H 0.4531 0.2939 -0.3822
C7B C 0.6566(5) 0.3661(4) -0.4807(3)
C8B C 0.6638(6) 0.2835(4) -0.5365(3)
H8B H 0.6863 0.3040 -0.5882
H9B H 0.5860 0.2556 -0.5515
C9B C 0.8304(7) 0.1180(6) -0.4083(4)
H10B H 0.8508 0.0839 -0.3589
C10B C 0.8228(6) 0.1637(5) -0.5299(4)
H11B H 0.8346 0.1709 -0.5847
C11B C 0.7396(5) 0.4364(4) -0.4761(4)
C12B C 0.8459(6) 0.4259(6) -0.5177(5)
H12B H 0.8281 0.4522 -0.5732
H13B H 0.9127 0.4569 -0.4846
H14B H 0.8640 0.3619 -0.5217
C13B C 0.7259(5) 0.5168(4) -0.4318(4)
C14B C 0.8123(7) 0.5952(5) -0.4305(5)
H15B H 0.7691 0.6527 -0.4359
H16B H 0.8500 0.5896 -0.4788
C15B C 1.0098(7) 0.5790(6) -0.2283(6)
H17B H 1.0412 0.5576 -0.1744
C16B C 0.9829(7) 0.6643(6) -0.3439(6)
H18B H 0.9928 0.7106 -0.3815
C17B C 0.6310(5) 0.5258(4) -0.3904(3)
C18B C 0.6187(7) 0.6120(4) -0.3404(4)
H19B H 0.5584 0.6029 -0.3079
H20B H 0.6927 0.6250 -0.3031
H21B H 0.5974 0.6626 -0.3783
N1B N 0.4933(4) 0.4486(3) -0.1249(3)
N2B N 0.4806(4) 0.4474(3) -0.2601(3)
N3B N 0.5632(6) 0.3836(4) -0.2298(3)
N4B N 0.7531(6) 0.1855(5) -0.4176(4)
N5B N 0.7488(4) 0.2140(3) -0.4963(3)
N6B N 0.8774(4) 0.1027(3) -0.4772(3)
N6A N 0.3774(4) 0.3973(3) 0.0228(3)
N6C N 0.6226(4) 0.6027(3) -0.0228(3)
N7B N 0.9031(6) 0.5978(5) -0.3543(4)
N8B N 0.9187(6) 0.5466(5) -0.2844(4)
N9B N 1.0440(6) 0.6493(5) -0.2688(4)
O1B O 0.3539(4) 0.5897(3) -0.0476(3)
H22B H 0.3791 0.6395 -0.0596
H23B H 0.2915 0.5579 -0.0633
P1 P 0.63562(17) 0.19475(13) 0.19811(12)
F1 F 0.7571(6) 0.1800(6) 0.2549(5)
F2 F 0.6977(10) 0.2288(5) 0.1290(5)
F3 F 0.6374(7) 0.2959(4) 0.2309(4)
F4 F 0.5193(8) 0.2085(10) 0.1448(8)
F5 F 0.5839(9) 0.1640(6) 0.2730(5)
F6 F 0.6408(9) 0.0964(4) 0.1655(5)
O2 O 0.8709(5) 0.4613(5) 0.0637(4)
H24 H 0.9161 0.4755 0.0291
H25 H 0.8763 0.4373 0.0167
O3 O 0.4417(7) 0.1130(5) 0.4152(5)
H26 H 0.3994 0.1409 0.3731
H27 H 0.4948 0.0720 0.4239
O4 O 0.1992(6) 0.6649(6) 0.2458(4)
H28 H 0.2468 0.7098 0.2570
H29 H 0.1834 0.6999 0.2842
loop_
_geom_bond_atom_site_label_1
_geom_bond_atom_site_label_2
_geom_bond_site_symmetry_1
_geom_bond_site_symmetry_2
Zn1 N1 1_555 1_555
P1 F1 1_555 1_555
C1 H1 1_555 1_555
C2 H2 1_555 1_555
C3 H3 1_555 1_555
H4 C3 1_555 1_555
C4 C3 1_555 1_555
C5 C4 1_555 1_555
C6 C5 1_555 1_555
H5 C6 1_555 1_555
H6 C6 1_555 1_555
H7 C6 1_555 1_555
C7 C5 1_555 1_555
C8 C7 1_555 1_555
H8 C8 1_555 1_555
H9 C8 1_555 1_555
C9 H10 1_555 1_555
C10 H11 1_555 1_555
C11 C7 1_555 1_555
C12 C11 1_555 1_555
H12 C12 1_555 1_555
H13 C12 1_555 1_555
H14 C12 1_555 1_555
C13 C11 1_555 1_555
C14 C13 1_555 1_555
H15 C14 1_555 1_555
H16 C14 1_555 1_555
C15 H17 1_555 1_555
C16 H18 1_555 1_555
C17 C4 1_555 1_555
C18 C17 1_555 1_555
H19 C18 1_555 1_555
H20 C18 1_555 1_555
H21 C18 1_555 1_555
F2 P1 1_555 1_555
F3 P1 1_555 1_555
F4 P1 1_555 1_555
F5 P1 1_555 1_555
F6 P1 1_555 1_555
N1 C1 1_555 1_555
N2 C1 1_555 1_555
N3 C2 1_555 1_555
N4 C9 1_555 1_555
N5 C8 1_555 1_555
N6 C9 1_555 1_555
N7 C14 1_555 1_555
N8 C15 1_555 1_555
N9 C15 1_555 1_555
O1 Zn1 1_555 1_555
H22 O1 1_555 1_555
H23 O1 1_555 1_555
O2 H24 1_555 1_555
O3 H26 1_555 1_555
O4 H28 1_555 1_555
H25 O2 1_555 1_555
H27 O3 1_555 1_555
H29 O4 1_555 1_555
Zn1A N6 1_555 1_555
Zn1A_2 N6B 1_555 1_555
C1B H1B 1_555 1_555
C2B H2B 1_555 1_555
C3B H3B 1_555 1_555
H4B C3B 1_555 1_555
C4B C3B 1_555 1_555
C5B C4B 1_555 1_555
C6B C5B 1_555 1_555
H5B C6B 1_555 1_555
H6B C6B 1_555 1_555
H7B C6B 1_555 1_555
C7B C5B 1_555 1_555
C8B C7B 1_555 1_555
H8B C8B 1_555 1_555
H9B C8B 1_555 1_555
C9B H10B 1_555 1_555
C10B H11B 1_555 1_555
C11B C7B 1_555 1_555
C12B C11B 1_555 1_555
H12B C12B 1_555 1_555
H13B C12B 1_555 1_555
H14B C12B 1_555 1_555
C13B C11B 1_555 1_555
C14B C13B 1_555 1_555
H15B C14B 1_555 1_555
H16B C14B 1_555 1_555
C15B H17B 1_555 1_555
C16B H18B 1_555 1_555
C17B C4B 1_555 1_555
C18B C17B 1_555 1_555
H19B C18B 1_555 1_555
H20B C18B 1_555 1_555
H21B C18B 1_555 1_555
N1B Zn1 1_555 1_555
N2B C1B 1_555 1_555
N3B C2B 1_555 1_555
N4B C9B 1_555 1_555
N5B C8B 1_555 1_555
N6B C9B 1_555 1_555
N6A Zn1 1_555 1_555
N6C Zn1 1_555 1_555
N7B C14B 1_555 1_555
N8B C15B 1_555 1_555
N9B C15B 1_555 1_555
O1B Zn1 1_555 1_555
H22B O1B 1_555 1_555
H23B O1B 1_555 1_555
C2 N1 1_555 1_555
C3 N2 1_555 1_555
C10 N5 1_555 1_555
C10 N6 1_555 1_555
C13 C17 1_555 1_555
C16 N7 1_555 1_555
C16 N9 1_555 1_555
N2 N3 1_555 1_555
N4 N5 1_555 1_555
N7 N8 1_555 1_555
C1B N1B 1_555 1_555
C2B N1B 1_555 1_555
C3B N2B 1_555 1_555
C10B N5B 1_555 1_555
C10B N6B 1_555 1_555
C13B C17B 1_555 1_555
C16B N7B 1_555 1_555
C16B N9B 1_555 1_555
N2B N3B 1_555 1_555
N4B N5B 1_555 1_555
N7B N8B 1_555 1_555

#END
