
#######################################################################
#
#                 Cambridge Crystallographic Data Centre
#                                CCDC 
#
#######################################################################
#
# If this CIF has been generated from an entry in the Cambridge 
# Structural Database, then it will include bibliographic, chemical, 
# crystal, experimental, refinement or atomic coordinate data resulting 
# from the CCDC's data processing and validation procedures.
#
#######################################################################

data_OWAXIU
_symmetry_cell_setting           triclinic
_symmetry_space_group_name_H-M   'P -1'
_symmetry_Int_Tables_number      2
_space_group_name_Hall           '-P 1'
loop_
_symmetry_equiv_pos_site_id
_symmetry_equiv_pos_as_xyz
1 x,y,z
2 -x,-y,-z
_cell_length_a                   10.5480(13)
_cell_length_b                   10.903(2)
_cell_length_c                   11.9109(14)
_cell_angle_alpha                109.110(3)
_cell_angle_beta                 114.815(2)
_cell_angle_gamma                94.368(3)
_cell_volume                     1137.81
loop_
_atom_site_label
_atom_site_type_symbol
_atom_site_fract_x
_atom_site_fract_y
_atom_site_fract_z
Mn1 Mn 0.5000 0.5000 0.5000
Mn2 Mn 0.23114(3) 0.64274(3) 0.54802(3)
O1 O 0.06202(16) 0.50492(17) 0.33311(15)
O2 O 0.28989(16) 0.53901(16) 0.38376(15)
O3 O 0.42260(17) 0.29160(16) 0.36631(16)
O4 O 0.57318(17) 0.24198(18) 0.28124(17)
O5 O 0.43477(18) 0.44596(18) -0.37191(17)
O6 O 0.22367(16) 0.47939(17) -0.38894(16)
O7 O 0.05024(19) 0.67546(18) 0.59042(19)
H1 H 0.0466 0.6350 0.6385
N1 N 0.2325(2) 0.8281(2) 0.4995(2)
C1 C 0.1577(2) 0.4879(2) 0.2965(2)
C2 C 0.1150(2) 0.4155(2) 0.1516(2)
C3 C -0.0311(2) 0.3629(3) 0.0601(2)
H2 H -0.1009 0.3702 0.0912
C4 C -0.0742(3) 0.3000(3) -0.0758(2)
H3 H -0.1736 0.2618 -0.1382
C5 C 0.0268(3) 0.2925(3) -0.1212(2)
H4 H -0.0042 0.2500 -0.2150
C6 C 0.1739(2) 0.3463(2) -0.0318(2)
C7 C 0.2167(2) 0.4056(2) 0.1056(2)
H5 H 0.3165 0.4396 0.1685
C8 C 0.4512(2) 0.2237(2) 0.2773(2)
C9 C 0.3321(2) 0.1119(2) 0.1535(2)
C10 C 0.1903(2) 0.1002(2) 0.1309(2)
H6 H 0.1709 0.1576 0.1981
C11 C 0.0754(2) 0.0055(2) 0.0111(2)
C12 C 0.1099(3) -0.0749(3) -0.0842(3)
H7 H 0.0341 -0.1374 -0.1681
C13 C 0.2503(3) -0.0671(3) -0.0614(3)
H8 H 0.2701 -0.1255 -0.1276
C14 C 0.3624(3) 0.0264(3) 0.0588(3)
H9 H 0.4594 0.0314 0.0757
C15 C 0.3369(2) 0.4392(2) -0.3406(2)
C16 C 0.3554(2) 0.3839(2) -0.2367(2)
C17 C 0.2553(2) 0.3831(2) -0.1895(2)
H10 H 0.1696 0.4104 -0.2293
C18 C 0.2796(2) 0.3426(2) -0.0839(2)
C19 C 0.4056(3) 0.3029(3) -0.0276(2)
H11 H 0.4253 0.2780 0.0462
C20 C 0.5025(3) 0.2993(3) -0.0777(3)
H12 H 0.5868 0.2695 -0.0399
C21 C 0.4779(3) 0.3387(3) -0.1822(2)
H13 H 0.5444 0.3351 -0.2169
C22 C 0.2998(3) 0.8489(3) 0.4321(3)
H14 H 0.3390 0.7800 0.3963
C23 C 0.3156(4) 0.9658(4) 0.4116(3)
H15 H 0.3618 0.9755 0.3604
C24 C 0.2635(5) 1.0670(4) 0.4663(4)
H16 H 0.2744 1.1491 0.4555
C25 C 0.1961(5) 1.0477(4) 0.5361(5)
H17 H 0.1577 1.1159 0.5743
C26 C 0.1835(4) 0.9282(3) 0.5513(4)
H18 H 0.1370 0.9170 0.6018
H19 H -0.031(5) 0.644(4) 0.520(4)
Mn1_2 Mn -0.5000 -0.5000 -0.5000
Mn1_3 Mn 0.5000 0.5000 -0.5000
Mn1_4 Mn 0.5000 0.5000 1.5000
Mn2A Mn 0.76886(3) 0.35726(3) 0.45198(3)
Mn2_2 Mn -0.76886(3) -0.35726(3) -0.45198(3)
Mn2_3 Mn 0.23114(3) 0.64274(3) -0.45198(3)
Mn2A_2 Mn 0.76886(3) 0.35726(3) 1.45198(3)
O1A O 0.93798(16) 0.49508(17) 0.66689(15)
O2A O 0.71011(16) 0.46099(16) 0.61624(15)
O3A O -0.42260(17) -0.29160(16) -0.36631(16)
O3A_2 O 0.57740(17) 0.70840(16) 0.63369(16)
O4A O -0.57318(17) -0.24198(18) -0.28124(17)
O4A_2 O 0.42682(17) 0.75802(18) 0.71876(17)
O5A O 0.56523(18) 0.55404(18) 1.37191(17)
O5_2 O 0.43477(18) 0.44596(18) 0.62809(17)
O5A_2 O 0.56523(18) 0.55404(18) 0.37191(17)
O6A O 0.77633(16) 0.52061(17) 1.38894(16)
O6_2 O 0.22367(16) 0.47939(17) 0.61106(16)
O6A_2 O 0.77633(16) 0.52061(17) 0.38894(16)
O7A O 0.94976(19) 0.32454(18) 0.40958(19)
H1A H 0.9534 0.3650 0.3615
N1A N 0.7675(2) 0.1719(2) 0.5005(2)
C1A C 0.8423(2) 0.5121(2) 0.7035(2)
C2A C 0.8850(2) 0.5845(2) 0.8484(2)
C3A C 1.0311(2) 0.6371(3) 0.9399(2)
H2A H 1.1009 0.6298 0.9088
C4A C 1.0742(3) 0.7000(3) 1.0758(2)
H3A H 1.1736 0.7382 1.1382
C5A C 0.9732(3) 0.7075(3) 1.1212(2)
H4A H 1.0042 0.7500 1.2150
C6A C 0.8261(2) 0.6537(2) 1.0318(2)
C7A C 0.7833(2) 0.5944(2) 0.8944(2)
H5A H 0.6835 0.5604 0.8315
C8A C -0.4512(2) -0.2237(2) -0.2773(2)
C9A C -0.3321(2) -0.1119(2) -0.1535(2)
C10A C -0.1903(2) -0.1002(2) -0.1309(2)
H6A H -0.1709 -0.1576 -0.1981
C11A C -0.0754(2) -0.0055(2) -0.0111(2)
C12A C -0.1099(3) 0.0749(3) 0.0842(3)
H7A H -0.0341 0.1374 0.1681
C13A C -0.2503(3) 0.0671(3) 0.0614(3)
H8A H -0.2701 0.1255 0.1276
C14A C -0.3624(3) -0.0264(3) -0.0588(3)
H9A H -0.4594 -0.0314 -0.0757
C15A C 0.6631(2) 0.5608(2) 1.3406(2)
C16A C 0.6446(2) 0.6161(2) 1.2367(2)
C17A C 0.7447(2) 0.6169(2) 1.1895(2)
H10A H 0.8304 0.5896 1.2293
C18A C 0.7204(2) 0.6574(2) 1.0839(2)
C19A C 0.5944(3) 0.6971(3) 1.0276(2)
H11A H 0.5747 0.7220 0.9538
C20A C 0.4975(3) 0.7007(3) 1.0777(3)
H12A H 0.4132 0.7305 1.0399
C21A C 0.5221(3) 0.6613(3) 1.1822(2)
H13A H 0.4556 0.6649 1.2169
C22A C 0.7002(3) 0.1511(3) 0.5679(3)
H14A H 0.6610 0.2200 0.6037
C23A C 0.6844(4) 0.0342(4) 0.5884(3)
H15A H 0.6382 0.0245 0.6396
C24A C 0.7365(5) -0.0670(4) 0.5337(4)
H16A H 0.7256 -0.1491 0.5445
C25A C 0.8039(5) -0.0477(4) 0.4639(5)
H17A H 0.8423 -0.1159 0.4257
C26A C 0.8165(4) 0.0718(3) 0.4487(4)
H18A H 0.8630 0.0830 0.3982
H19A H 1.031(5) 0.356(4) 0.480(4)
loop_
_geom_bond_atom_site_label_1
_geom_bond_atom_site_label_2
_geom_bond_site_symmetry_1
_geom_bond_site_symmetry_2
Mn1 O2 1_555 1_555
Mn2 O1 1_555 1_555
O1 C1 1_555 1_555
O2 Mn2 1_555 1_555
O3 Mn1 1_555 1_555
O4 C8 1_555 1_555
O5 C15 1_555 1_555
O6 C15 1_555 1_555
O7 Mn2 1_555 1_555
H1 O7 1_555 1_555
N1 Mn2 1_555 1_555
C1 O2 1_555 1_555
C2 C1 1_555 1_555
C3 C2 1_555 1_555
H2 C3 1_555 1_555
C4 C3 1_555 1_555
H3 C4 1_555 1_555
C5 C4 1_555 1_555
H4 C5 1_555 1_555
C6 C5 1_555 1_555
C7 C2 1_555 1_555
H5 C7 1_555 1_555
C8 O3 1_555 1_555
C9 C8 1_555 1_555
C10 C9 1_555 1_555
H6 C10 1_555 1_555
C11 C10 1_555 1_555
C12 C11 1_555 1_555
H7 C12 1_555 1_555
C13 C12 1_555 1_555
H8 C13 1_555 1_555
C14 C9 1_555 1_555
H9 C14 1_555 1_555
C15 C16 1_555 1_555
C16 C17 1_555 1_555
C17 H10 1_555 1_555
C18 C6 1_555 1_555
C19 C18 1_555 1_555
H11 C19 1_555 1_555
C20 C19 1_555 1_555
H12 C20 1_555 1_555
C21 C16 1_555 1_555
H13 C21 1_555 1_555
C22 N1 1_555 1_555
H14 C22 1_555 1_555
C23 C22 1_555 1_555
H15 C23 1_555 1_555
C24 C23 1_555 1_555
H16 C24 1_555 1_555
C25 C24 1_555 1_555
H17 C25 1_555 1_555
C26 N1 1_555 1_555
H18 C26 1_555 1_555
H19 O7 1_555 1_555
Mn1_2 O3A 1_555 1_555
Mn1_3 O5 1_555 1_555
Mn1_4 O5A 1_555 1_555
Mn2A O4 1_555 1_555
Mn2_2 O4A 1_555 1_555
Mn2_3 O6 1_555 1_555
Mn2A_2 O6A 1_555 1_555
O1A Mn2A 1_555 1_555
O2A Mn1 1_555 1_555
O3A C8A 1_555 1_555
O3A_2 Mn1 1_555 1_555
O4A C8A 1_555 1_555
O4A_2 Mn2 1_555 1_555
O5A C15A 1_555 1_555
O5_2 Mn1 1_555 1_555
O5A_2 Mn1 1_555 1_555
O6A C15A 1_555 1_555
O6_2 Mn2 1_555 1_555
O6A_2 Mn2A 1_555 1_555
O7A Mn2A 1_555 1_555
H1A O7A 1_555 1_555
N1A Mn2A 1_555 1_555
C1A O1A 1_555 1_555
C2A C1A 1_555 1_555
C3A C2A 1_555 1_555
H2A C3A 1_555 1_555
C4A C3A 1_555 1_555
H3A C4A 1_555 1_555
C5A C4A 1_555 1_555
H4A C5A 1_555 1_555
C6A C5A 1_555 1_555
C7A C2A 1_555 1_555
H5A C7A 1_555 1_555
C8A C9A 1_555 1_555
C9A C10A 1_555 1_555
C10A H6A 1_555 1_555
C11A C11 1_555 1_555
C12A C11A 1_555 1_555
H7A C12A 1_555 1_555
C13A C12A 1_555 1_555
H8A C13A 1_555 1_555
C14A C9A 1_555 1_555
H9A C14A 1_555 1_555
C15A C16A 1_555 1_555
C16A C17A 1_555 1_555
C17A H10A 1_555 1_555
C18A C6A 1_555 1_555
C19A C18A 1_555 1_555
H11A C19A 1_555 1_555
C20A C19A 1_555 1_555
H12A C20A 1_555 1_555
C21A C16A 1_555 1_555
H13A C21A 1_555 1_555
C22A N1A 1_555 1_555
H14A C22A 1_555 1_555
C23A C22A 1_555 1_555
H15A C23A 1_555 1_555
C24A C23A 1_555 1_555
H16A C24A 1_555 1_555
C25A C24A 1_555 1_555
H17A C25A 1_555 1_555
C26A N1A 1_555 1_555
H18A C26A 1_555 1_555
H19A O7A 1_555 1_555
C6 C7 1_555 1_555
C13 C14 1_555 1_555
C17 C18 1_555 1_555
C20 C21 1_555 1_555
C25 C26 1_555 1_555
Mn2A O2A 1_555 1_555
O2A C1A 1_555 1_555
C6A C7A 1_555 1_555
C10A C11A 1_555 1_555
C13A C14A 1_555 1_555
C17A C18A 1_555 1_555
C20A C21A 1_555 1_555
C25A C26A 1_555 1_555

#END
