
#######################################################################
#
#                 Cambridge Crystallographic Data Centre
#                                CCDC 
#
#######################################################################
#
# If this CIF has been generated from an entry in the Cambridge 
# Structural Database, then it will include bibliographic, chemical, 
# crystal, experimental, refinement or atomic coordinate data resulting 
# from the CCDC's data processing and validation procedures.
#
#######################################################################

data_OWAYAN
_symmetry_cell_setting           monoclinic
_symmetry_space_group_name_H-M   'P 21/c'
_symmetry_Int_Tables_number      14
_space_group_name_Hall           '-P 2ybc'
loop_
_symmetry_equiv_pos_site_id
_symmetry_equiv_pos_as_xyz
1 x,y,z
2 -x,1/2+y,1/2-z
3 -x,-y,-z
4 x,1/2-y,1/2+z
_cell_length_a                   8.5649(4)
_cell_length_b                   18.7825(9)
_cell_length_c                   10.4707(4)
_cell_angle_alpha                90
_cell_angle_beta                 91.522(4)
_cell_angle_gamma                90
_cell_volume                     1683.83
loop_
_atom_site_label
_atom_site_type_symbol
_atom_site_fract_x
_atom_site_fract_y
_atom_site_fract_z
Mn1 Mn 1.14557(4) 0.491896(16) 0.08665(3)
N1 N 1.3318(2) 0.46352(10) 0.22157(16)
O1 O 1.01612(18) 0.56714(8) 0.19271(14)
O2 O 0.79973(18) 0.57454(8) 0.06983(14)
O3 O 0.0296(2) 0.91669(9) 0.36847(16)
O4 O 0.24871(19) 0.92179(8) 0.48832(14)
C1 C 0.1336(3) 0.79751(12) 0.2388(2)
H1 H 0.0316 0.8127 0.2229
C2 C 0.2271(3) 0.83300(11) 0.32726(19)
C3 C 0.3796(3) 0.80965(11) 0.34778(19)
H2 H 0.4432 0.8338 0.4067
C4 C 0.4405(3) 0.75194(11) 0.28418(19)
C5 C 0.3414(3) 0.71693(13) 0.1970(2)
H3 H 0.3778 0.6774 0.1534
C6 C 0.1904(3) 0.73993(14) 0.1743(2)
H4 H 0.1267 0.7163 0.1149
C7 C 0.6042(3) 0.72627(11) 0.30669(19)
C8 C 0.6983(3) 0.75303(13) 0.4062(2)
H5 H 0.6610 0.7897 0.4566
C9 C 0.8450(3) 0.72610(14) 0.4310(2)
H6 H 0.9046 0.7442 0.4990
C10 C 0.9054(3) 0.67270(13) 0.3570(2)
H7 H 1.0041 0.6543 0.3756
C11 C 0.8176(3) 0.64686(11) 0.25466(19)
C12 C 0.6687(2) 0.67356(11) 0.23191(18)
H8 H 0.6096 0.6554 0.1637
C13 C 0.8826(3) 0.59191(11) 0.1654(2)
C14 C 1.4763(3) 0.49016(12) 0.2156(2)
H9 H 1.4991 0.5205 0.1485
C15 C 1.5917(3) 0.47480(13) 0.3034(2)
H10 H 1.6903 0.4946 0.2946
C16 C 1.5642(3) 0.43042(13) 0.4047(2)
C17 C 1.4155(3) 0.40355(15) 0.4110(2)
H11 H 1.3902 0.3735 0.4780
C18 C 1.3043(3) 0.42049(14) 0.3200(2)
H12 H 1.2049 0.4012 0.3269
C19 C 1.6892(4) 0.41021(17) 0.5021(3)
H13 H 1.6486 0.4143 0.5864
H14 H 1.7772 0.4414 0.4944
H15 H 1.7215 0.3620 0.4877
C20 C 0.1642(3) 0.89485(12) 0.4001(2)
Mn1B Mn 0.85443(4) 0.508104(16) -0.08665(3)
Mn1A Mn -0.14557(4) 0.991896(16) 0.41335(3)
Mn1C Mn 0.14557(4) 1.008104(16) 0.58665(3)
O2B O 1.20027(18) 0.42546(8) -0.06983(14)
O3A O 0.9704(2) 0.41669(9) 0.13153(16)
O4C O 1.24871(19) 0.57821(8) -0.01168(14)
loop_
_geom_bond_atom_site_label_1
_geom_bond_atom_site_label_2
_geom_bond_site_symmetry_1
_geom_bond_site_symmetry_2
Mn1 N1 1_555 1_555
N1 C14 1_555 1_555
O1 Mn1 1_555 1_555
O2 C13 1_555 1_555
O3 C20 1_555 1_555
O4 C20 1_555 1_555
C1 H1 1_555 1_555
C2 C1 1_555 1_555
C3 C2 1_555 1_555
H2 C3 1_555 1_555
C4 C3 1_555 1_555
C5 C4 1_555 1_555
H3 C5 1_555 1_555
C6 C1 1_555 1_555
H4 C6 1_555 1_555
C7 C4 1_555 1_555
C8 C7 1_555 1_555
H5 C8 1_555 1_555
C9 C8 1_555 1_555
H6 C9 1_555 1_555
C10 C9 1_555 1_555
H7 C10 1_555 1_555
C11 C10 1_555 1_555
C12 C7 1_555 1_555
H8 C12 1_555 1_555
C13 O1 1_555 1_555
C14 H9 1_555 1_555
C15 C14 1_555 1_555
H10 C15 1_555 1_555
C16 C15 1_555 1_555
C17 C16 1_555 1_555
H11 C17 1_555 1_555
C18 N1 1_555 1_555
H12 C18 1_555 1_555
C19 C16 1_555 1_555
H13 C19 1_555 1_555
H14 C19 1_555 1_555
H15 C19 1_555 1_555
C20 C2 1_555 1_555
Mn1B O2 1_555 1_555
Mn1A O3 1_555 1_555
Mn1C O4 1_555 1_555
O2B Mn1 1_555 1_555
O3A Mn1 1_555 1_555
O4C Mn1 1_555 1_555
C5 C6 1_555 1_555
C11 C12 1_555 1_555
C11 C13 1_555 1_555
C17 C18 1_555 1_555

#END
