
#######################################################################
#
#                 Cambridge Crystallographic Data Centre
#                                CCDC 
#
#######################################################################
#
# If this CIF has been generated from an entry in the Cambridge 
# Structural Database, then it will include bibliographic, chemical, 
# crystal, experimental, refinement or atomic coordinate data resulting 
# from the CCDC's data processing and validation procedures.
#
#######################################################################

data_OWAYOB
_symmetry_cell_setting           monoclinic
_symmetry_space_group_name_H-M   'C 2/c'
_symmetry_Int_Tables_number      15
_space_group_name_Hall           '-C 2yn'
loop_
_symmetry_equiv_pos_site_id
_symmetry_equiv_pos_as_xyz
1 x,y,z
2 -x,y,1/2-z
3 1/2+x,1/2+y,z
4 1/2-x,1/2+y,1/2-z
5 -x,-y,-z
6 x,-y,1/2+z
7 1/2-x,1/2-y,-z
8 1/2+x,1/2-y,1/2+z
_cell_length_a                   34.166(4)
_cell_length_b                   9.5744(11)
_cell_length_c                   26.353(3)
_cell_angle_alpha                90
_cell_angle_beta                 126.406(2)
_cell_angle_gamma                90
_cell_volume                     6938.1
loop_
_atom_site_label
_atom_site_type_symbol
_atom_site_fract_x
_atom_site_fract_y
_atom_site_fract_z
Co1 Co 0.96769(2) -0.10398(6) 0.03238(3)
N1 N 0.90483(15) 0.0222(4) 0.00119(19)
N2 N 0.78389(16) 0.3699(4) -0.0181(2)
N3 N 0.73698(18) 0.2562(4) -0.1087(3)
H1 H 0.7284 0.1971 -0.1381
N4 N 1.03007(14) -0.2310(3) 0.06063(18)
N5 N 1.15326(13) -0.5713(4) 0.07616(17)
H2 H 1.1276 -0.6027 0.0417
N6 N 1.19982(16) -0.4384(5) 0.1615(2)
O1 O 1.00813(12) 0.0657(3) 0.07913(15)
O2 O 1.06050(11) 0.1284(3) 0.05896(14)
O3 O 1.13459(14) 0.5176(4) 0.29200(19)
O4 O 1.02716(12) 0.8341(3) 0.38667(14)
O5 O 1.07503(11) 0.7052(3) 0.47017(14)
C1 C 0.9055(2) 0.1156(5) 0.0392(3)
H3 H 0.9342 0.1251 0.0797
C2 C 0.8675(2) 0.1974(5) 0.0230(3)
H4 H 0.8706 0.2614 0.0517
C3 C 0.8235(2) 0.1857(5) -0.0369(3)
C4 C 0.8224(2) 0.0886(5) -0.0764(3)
H5 H 0.7941 0.0758 -0.1169
C5 C 0.8630(2) 0.0108(5) -0.0560(3)
H6 H 0.8612 -0.0535 -0.0838
C6 C 0.7817(2) 0.2718(5) -0.0541(3)
C7 C 0.7372(2) 0.4213(5) -0.0514(3)
C8 C 0.7192(2) 0.5309(6) -0.0352(3)
H7 H 0.7391 0.5795 0.0026
C9 C 0.6709(3) 0.5626(7) -0.0776(4)
H8 H 0.6575 0.6337 -0.0684
C10 C 0.6419(3) 0.4920(8) -0.1335(5)
H9 H 0.6093 0.5172 -0.1609
C11 C 0.6588(3) 0.3847(7) -0.1510(4)
H10 H 0.6387 0.3372 -0.1890
C12 C 1.07422(19) -0.2111(5) 0.1153(2)
H11 H 1.0772 -0.1443 0.1430
C13 C 1.11513(18) -0.2829(5) 0.1328(2)
H12 H 1.1448 -0.2636 0.1711
C14 C 1.11228(16) -0.3836(4) 0.0934(2)
C15 C 1.06690(17) -0.4059(4) 0.0372(2)
H13 H 1.0631 -0.4724 0.0089
C16 C 1.02762(17) -0.3301(4) 0.0233(2)
H14 H 0.9975 -0.3490 -0.0144
C17 C 1.15533(17) -0.4616(5) 0.1105(2)
C18 C 1.22787(19) -0.5382(6) 0.1592(3)
C19 C 1.2783(2) -0.5629(7) 0.2013(3)
H15 H 1.2986 -0.5077 0.2368
C20 C 1.2957(2) -0.6742(9) 0.1867(4)
H16 H 1.3288 -0.6941 0.2137
C21 C 1.2667(3) -0.7574(7) 0.1341(4)
H17 H 1.2805 -0.8321 0.1273
C22 C 1.2183(2) -0.7317(6) 0.0921(3)
H18 H 1.1987 -0.7846 0.0556
C23 C 1.19919(18) -0.6222(5) 0.1062(2)
C24 C 1.04378(18) 0.1340(4) 0.0908(2)
C25 C 1.06752(16) 0.2329(4) 0.14468(19)
C26 C 1.11081(18) 0.2978(5) 0.1660(2)
H19 H 1.1260 0.2769 0.1471
C27 C 1.13203(18) 0.3930(5) 0.2148(2)
H20 H 1.1612 0.4356 0.2285
C28 C 1.11016(19) 0.4246(5) 0.2430(2)
C29 C 1.0664(2) 0.3614(6) 0.2223(3)
H21 H 1.0512 0.3828 0.2411
C30 C 1.04615(19) 0.2675(5) 0.1739(2)
H22 H 1.0169 0.2253 0.1602
C31 C 1.1128(2) 0.5655(6) 0.3197(3)
C32 C 1.1320(2) 0.5189(5) 0.3796(3)
H23 H 1.1568 0.4526 0.3990
C33 C 1.11363(18) 0.5733(5) 0.4104(2)
H24 H 1.1263 0.5436 0.4510
C34 C 1.07689(17) 0.6709(5) 0.3813(2)
C35 C 1.05833(18) 0.7158(6) 0.3209(2)
H25 H 1.0336 0.7821 0.3010
C36 C 1.0766(2) 0.6619(7) 0.2902(3)
H26 H 1.0643 0.6915 0.2497
C37 C 1.05848(16) 0.7393(5) 0.4144(2)
C38 C 0.7077(2) 0.3529(6) -0.1079(3)
Co1D Co 1.03231(2) 0.10398(6) -0.03238(3)
Co1A Co 1.03231(2) 0.89602(6) 0.46762(3)
O2D O 0.93950(11) -0.1284(3) -0.05896(14)
O4A O 0.97284(12) -0.1659(3) 0.11333(14)
O5A O 0.92497(11) -0.2948(3) 0.02983(14)
O6 O 0.2408(2) 0.2893(7) 0.2778(3)
loop_
_geom_bond_atom_site_label_1
_geom_bond_atom_site_label_2
_geom_bond_site_symmetry_1
_geom_bond_site_symmetry_2
Co1 N1 1_555 1_555
N1 C1 1_555 1_555
N2 C6 1_555 1_555
N3 H1 1_555 1_555
N4 Co1 1_555 1_555
N5 H2 1_555 1_555
N6 C17 1_555 1_555
O1 Co1 1_555 1_555
O2 C24 1_555 1_555
O3 C28 1_555 1_555
O4 C37 1_555 1_555
O5 C37 1_555 1_555
C1 H3 1_555 1_555
C2 C1 1_555 1_555
H4 C2 1_555 1_555
C3 C2 1_555 1_555
C4 C3 1_555 1_555
H5 C4 1_555 1_555
C5 N1 1_555 1_555
H6 C5 1_555 1_555
C6 N3 1_555 1_555
C7 N2 1_555 1_555
C8 C7 1_555 1_555
H7 C8 1_555 1_555
C9 C8 1_555 1_555
H8 C9 1_555 1_555
C10 C9 1_555 1_555
H9 C10 1_555 1_555
C11 C10 1_555 1_555
H10 C11 1_555 1_555
C12 N4 1_555 1_555
H11 C12 1_555 1_555
C13 C12 1_555 1_555
H12 C13 1_555 1_555
C14 C13 1_555 1_555
C15 C14 1_555 1_555
H13 C15 1_555 1_555
C16 N4 1_555 1_555
H14 C16 1_555 1_555
C17 N5 1_555 1_555
C18 N6 1_555 1_555
C19 C18 1_555 1_555
H15 C19 1_555 1_555
C20 C19 1_555 1_555
H16 C20 1_555 1_555
C21 C20 1_555 1_555
H17 C21 1_555 1_555
C22 C21 1_555 1_555
H18 C22 1_555 1_555
C23 N5 1_555 1_555
C24 O1 1_555 1_555
C25 C24 1_555 1_555
C26 C25 1_555 1_555
H19 C26 1_555 1_555
C27 C26 1_555 1_555
H20 C27 1_555 1_555
C28 C27 1_555 1_555
C29 C28 1_555 1_555
H21 C29 1_555 1_555
C30 C25 1_555 1_555
H22 C30 1_555 1_555
C31 O3 1_555 1_555
C32 C31 1_555 1_555
H23 C32 1_555 1_555
C33 C32 1_555 1_555
H24 C33 1_555 1_555
C34 C33 1_555 1_555
C35 C34 1_555 1_555
H25 C35 1_555 1_555
C36 C31 1_555 1_555
H26 C36 1_555 1_555
C37 C34 1_555 1_555
C38 N3 1_555 1_555
Co1D O2 1_555 1_555
Co1A O4 1_555 1_555
O2D Co1 1_555 1_555
O4A Co1 1_555 1_555
O5A Co1 1_555 1_555
O5 Co1A 1_555 1_555
C3 C6 1_555 1_555
C4 C5 1_555 1_555
C7 C38 1_555 1_555
C11 C38 1_555 1_555
C14 C17 1_555 1_555
C15 C16 1_555 1_555
C18 C23 1_555 1_555
C22 C23 1_555 1_555
C29 C30 1_555 1_555
C35 C36 1_555 1_555

#END
