
#######################################################################
#
#                 Cambridge Crystallographic Data Centre
#                                CCDC 
#
#######################################################################
#
# If this CIF has been generated from an entry in the Cambridge 
# Structural Database, then it will include bibliographic, chemical, 
# crystal, experimental, refinement or atomic coordinate data resulting 
# from the CCDC's data processing and validation procedures.
#
#######################################################################

data_OWAYIV
_symmetry_cell_setting           triclinic
_symmetry_space_group_name_H-M   'P -1'
_symmetry_Int_Tables_number      2
_space_group_name_Hall           '-P 1'
loop_
_symmetry_equiv_pos_site_id
_symmetry_equiv_pos_as_xyz
1 x,y,z
2 -x,-y,-z
_cell_length_a                   9.9725(14)
_cell_length_b                   12.8079(17)
_cell_length_c                   15.325(2)
_cell_angle_alpha                112.239(2)
_cell_angle_beta                 101.588(2)
_cell_angle_gamma                94.459(2)
_cell_volume                     1749.17
loop_
_atom_site_label
_atom_site_type_symbol
_atom_site_fract_x
_atom_site_fract_y
_atom_site_fract_z
Cd1 Cd 0.91138(5) 0.07224(4) 0.60592(3)
N1 N 1.1132(6) 0.2057(5) 0.6812(4)
N2 N 1.5787(7) 0.4455(5) 0.8961(4)
N3 N 1.5223(6) 0.5395(5) 0.7997(5)
H1 H 1.4754 0.5560 0.7544
N4 N 0.7197(5) -0.0812(5) 0.5256(4)
N5 N 0.3325(7) -0.4135(5) 0.4473(5)
N6 N 0.2632(6) -0.3577(5) 0.3263(4)
H2 H 0.2637 -0.3210 0.2896
O1 O 0.7964(5) 0.1501(4) 0.5060(3)
O2 O 0.9625(5) 0.0725(4) 0.4442(3)
O3 O 0.5910(6) 0.1440(6) 0.0865(4)
O4 O 0.8958(5) 0.0390(4) -0.2557(3)
O5 O 0.7982(5) 0.1822(4) -0.2666(3)
C1 C 1.2023(8) 0.2080(7) 0.7602(5)
H3 H 1.1806 0.1544 0.7848
C2 C 1.3242(8) 0.2853(7) 0.8070(6)
H4 H 1.3839 0.2824 0.8608
C3 C 1.3564(7) 0.3673(6) 0.7728(5)
C4 C 1.2644(7) 0.3642(6) 0.6920(5)
H5 H 1.2832 0.4174 0.6663
C5 C 1.1462(7) 0.2853(6) 0.6487(5)
H6 H 1.0859 0.2866 0.5944
C6 C 1.4855(8) 0.4508(6) 0.8243(5)
C7 C 1.6828(9) 0.5396(8) 0.9202(7)
C8 C 1.8112(10) 0.5762(10) 0.9910(7)
H7 H 1.8373 0.5375 1.0306
C9 C 1.8940(12) 0.6691(11) 0.9990(10)
H8 H 1.9778 0.6958 1.0463
C10 C 1.8594(14) 0.7264(11) 0.9397(12)
H9 H 1.9209 0.7896 0.9477
C11 C 1.7367(11) 0.6927(9) 0.8694(10)
H10 H 1.7128 0.7309 0.8291
C12 C 1.6499(9) 0.5969(7) 0.8623(7)
C13 C 0.7051(7) -0.1630(7) 0.5585(5)
H11 H 0.7758 -0.1612 0.6092
C14 C 0.5923(7) -0.2503(6) 0.5223(5)
H12 H 0.5870 -0.3041 0.5491
C15 C 0.4874(7) -0.2559(6) 0.4455(5)
C16 C 0.5034(7) -0.1711(6) 0.4099(5)
H13 H 0.4360 -0.1712 0.3582
C17 C 0.6178(7) -0.0891(6) 0.4514(5)
H14 H 0.6259 -0.0340 0.4261
C18 C 0.3641(8) -0.3419(6) 0.4062(5)
C19 C 0.1590(8) -0.4441(7) 0.3146(6)
C20 C 0.0346(9) -0.4906(7) 0.2466(7)
H15 H 0.0070 -0.4674 0.1961
C21 C -0.0472(11) -0.5745(9) 0.2580(10)
H16 H -0.1311 -0.6108 0.2123
C22 C -0.0081(13) -0.6066(10) 0.3359(10)
H17 H -0.0693 -0.6603 0.3422
C23 C 0.1168(11) -0.5619(8) 0.4030(9)
H18 H 0.1441 -0.5853 0.4534
C24 C 0.2034(8) -0.4761(6) 0.3902(6)
C25 C 0.8528(7) 0.1137(5) 0.4361(5)
C26 C 0.7879(7) 0.1215(5) 0.3426(4)
C27 C 0.8566(7) 0.1061(6) 0.2716(5)
H19 H 0.9461 0.0895 0.2812
C28 C 0.7957(7) 0.1146(6) 0.1848(5)
H20 H 0.8461 0.1080 0.1386
C29 C 0.6625(7) 0.1326(7) 0.1684(5)
C30 C 0.5882(8) 0.1438(8) 0.2368(5)
H21 H 0.4962 0.1547 0.2247
C31 C 0.6513(7) 0.1388(7) 0.3243(5)
H22 H 0.6014 0.1471 0.3710
C32 C 0.6541(8) 0.1346(8) 0.0110(5)
C33 C 0.7076(9) 0.0394(7) -0.0350(5)
H23 H 0.7059 -0.0204 -0.0147
C34 C 0.7642(8) 0.0327(6) -0.1115(5)
H24 H 0.8028 -0.0309 -0.1421
C35 C 0.7633(7) 0.1223(6) -0.1431(4)
C36 C 0.7051(7) 0.2162(7) -0.0974(5)
H25 H 0.7032 0.2759 -0.1179
C37 C 0.6485(8) 0.2199(7) -0.0189(5)
H26 H 0.6074 0.2818 0.0119
C38 C 0.8244(7) 0.1149(6) -0.2265(4)
Cd1A Cd 1.08862(5) -0.07224(4) 0.39408(3)
Cd1_2 Cd 0.91138(5) 0.07224(4) -0.39408(3)
O2A O 1.0375(5) -0.0725(4) 0.5558(3)
O4_2 O 0.8958(5) 0.0390(4) 0.7443(3)
O5_2 O 0.7982(5) 0.1822(4) 0.7334(3)
O6 O 0.5734(10) 0.4285(7) 0.3740(6)
loop_
_geom_bond_atom_site_label_1
_geom_bond_atom_site_label_2
_geom_bond_site_symmetry_1
_geom_bond_site_symmetry_2
Cd1 N1 1_555 1_555
N1 C1 1_555 1_555
N2 C6 1_555 1_555
N3 H1 1_555 1_555
N4 Cd1 1_555 1_555
N5 C18 1_555 1_555
N6 H2 1_555 1_555
O1 Cd1 1_555 1_555
O2 Cd1 1_555 1_555
O3 C29 1_555 1_555
O4 C38 1_555 1_555
O5 C38 1_555 1_555
C1 H3 1_555 1_555
C2 C1 1_555 1_555
H4 C2 1_555 1_555
C3 C2 1_555 1_555
C4 C3 1_555 1_555
H5 C4 1_555 1_555
C5 N1 1_555 1_555
H6 C5 1_555 1_555
C6 N3 1_555 1_555
C7 N2 1_555 1_555
C8 C7 1_555 1_555
H7 C8 1_555 1_555
C9 C8 1_555 1_555
H8 C9 1_555 1_555
C10 C9 1_555 1_555
H9 C10 1_555 1_555
C11 C10 1_555 1_555
H10 C11 1_555 1_555
C12 N3 1_555 1_555
C13 N4 1_555 1_555
H11 C13 1_555 1_555
C14 C13 1_555 1_555
H12 C14 1_555 1_555
C15 C14 1_555 1_555
C16 C15 1_555 1_555
H13 C16 1_555 1_555
C17 N4 1_555 1_555
H14 C17 1_555 1_555
C18 N6 1_555 1_555
C19 N6 1_555 1_555
C20 C19 1_555 1_555
H15 C20 1_555 1_555
C21 C20 1_555 1_555
H16 C21 1_555 1_555
C22 C21 1_555 1_555
H17 C22 1_555 1_555
C23 C22 1_555 1_555
H18 C23 1_555 1_555
C24 N5 1_555 1_555
C25 O1 1_555 1_555
C26 C25 1_555 1_555
C27 C26 1_555 1_555
H19 C27 1_555 1_555
C28 C27 1_555 1_555
H20 C28 1_555 1_555
C29 C28 1_555 1_555
C30 C29 1_555 1_555
H21 C30 1_555 1_555
C31 C26 1_555 1_555
H22 C31 1_555 1_555
C32 O3 1_555 1_555
C33 C32 1_555 1_555
H23 C33 1_555 1_555
C34 C33 1_555 1_555
H24 C34 1_555 1_555
C35 C34 1_555 1_555
C36 C35 1_555 1_555
H25 C36 1_555 1_555
C37 C32 1_555 1_555
H26 C37 1_555 1_555
C38 C35 1_555 1_555
Cd1A O2 1_555 1_555
Cd1_2 O4 1_555 1_555
O2A Cd1 1_555 1_555
O4_2 Cd1 1_555 1_555
O5_2 Cd1 1_555 1_555
O2 C25 1_555 1_555
O5 Cd1_2 1_555 1_555
C3 C6 1_555 1_555
C4 C5 1_555 1_555
C7 C12 1_555 1_555
C11 C12 1_555 1_555
C15 C18 1_555 1_555
C16 C17 1_555 1_555
C19 C24 1_555 1_555
C23 C24 1_555 1_555
C30 C31 1_555 1_555
C36 C37 1_555 1_555
Cd1A O2A 1_555 1_555

#END
