
#######################################################################
#
#                 Cambridge Crystallographic Data Centre
#                                CCDC 
#
#######################################################################
#
# If this CIF has been generated from an entry in the Cambridge 
# Structural Database, then it will include bibliographic, chemical, 
# crystal, experimental, refinement or atomic coordinate data resulting 
# from the CCDC's data processing and validation procedures.
#
#######################################################################

data_OWAYER
_symmetry_cell_setting           triclinic
_symmetry_space_group_name_H-M   'P -1'
_symmetry_Int_Tables_number      2
_space_group_name_Hall           '-P 1'
loop_
_symmetry_equiv_pos_site_id
_symmetry_equiv_pos_as_xyz
1 x,y,z
2 -x,-y,-z
_cell_length_a                   8.958(2)
_cell_length_b                   9.173(2)
_cell_length_c                   14.113(3)
_cell_angle_alpha                81.269(3)
_cell_angle_beta                 74.201(3)
_cell_angle_gamma                74.646(3)
_cell_volume                     1072.07
loop_
_atom_site_label
_atom_site_type_symbol
_atom_site_fract_x
_atom_site_fract_y
_atom_site_fract_z
Zn1 Zn 0.27799(7) 0.79813(7) 0.29566(4)
N1 N 0.2976(5) 0.6423(4) 0.4199(3)
N2 N 0.2126(5) 0.4844(4) 0.5473(3)
H1 H 0.1602 0.4533 0.6040
N3 N -0.1038(5) 1.0089(4) 0.6593(3)
O1 O 0.5167(7) 0.8285(6) 0.2844(4)
O2 O 0.4015(7) 0.9223(7) 0.1668(5)
O3 O 1.0027(4) 1.2115(4) 0.0215(3)
O4 O 0.9977(4) 1.6613(4) 0.3224(3)
O5 O 1.2269(4) 1.6750(4) 0.2125(2)
C1 C 0.3738(6) 0.4932(5) 0.3986(4)
C2 C 0.4841(7) 0.4384(6) 0.3138(4)
H2 H 0.5215 0.5036 0.2607
C3 C 0.5359(7) 0.2825(6) 0.3120(4)
H3 H 0.6074 0.2419 0.2558
C4 C 0.4831(6) 0.1853(6) 0.3925(4)
H4 H 0.5212 0.0811 0.3888
C5 C 0.3766(6) 0.2379(6) 0.4771(4)
H5 H 0.3427 0.1725 0.5311
C6 C 0.3219(6) 0.3954(5) 0.4777(4)
C7 C 0.2029(6) 0.6305(5) 0.5096(4)
C8 C 0.0985(6) 0.7587(5) 0.5643(3)
C9 C -0.0507(6) 0.7521(5) 0.6229(4)
H6 H -0.0854 0.6628 0.6317
C10 C -0.1482(6) 0.8784(6) 0.6684(4)
H7 H -0.2491 0.8726 0.7069
C11 C 0.0441(6) 1.0125(5) 0.6060(3)
H8 H 0.0786 1.1011 0.6012
C12 C 0.1471(6) 0.8913(5) 0.5582(3)
H9 H 0.2488 0.8986 0.5219
C13 C 0.5178(10) 0.9015(8) 0.2042(6)
C14 C 0.6510(7) 0.9771(6) 0.1533(4)
C15 C 0.6413(7) 1.0744(7) 0.0694(4)
H10 H 0.5555 1.0862 0.0414
C16 C 0.7567(7) 1.1544(6) 0.0262(4)
H11 H 0.7483 1.2211 -0.0297
C17 C 0.8841(6) 1.1340(6) 0.0670(4)
C18 C 0.8993(6) 1.0339(6) 0.1476(4)
H12 H 0.9880 1.0188 0.1733
C19 C 0.7829(7) 0.9550(6) 0.1911(4)
H13 H 0.7933 0.8867 0.2461
C20 C 1.0231(7) 1.3144(6) 0.0769(4)
C21 C 1.1771(7) 1.3247(6) 0.0687(4)
H14 H 1.2633 1.2619 0.0293
C22 C 1.2012(7) 1.4298(6) 0.1199(4)
H15 H 1.3043 1.4399 0.1133
C23 C 1.0731(6) 1.5210(5) 0.1815(4)
C24 C 0.9215(6) 1.5092(6) 0.1883(4)
H16 H 0.8356 1.5701 0.2292
C25 C 0.8940(7) 1.4076(6) 0.1352(4)
H17 H 0.7904 1.4022 0.1387
C26 C 1.0993(6) 1.6264(5) 0.2436(4)
Zn1A Zn -0.27799(7) 1.20187(7) 0.70434(4)
Zn1_2 Zn 1.27799(7) 1.79813(7) 0.29566(4)
N3A N 0.1038(5) 0.9911(4) 0.3407(3)
O5_2 O 0.2269(4) 0.6750(4) 0.2125(2)
loop_
_geom_bond_atom_site_label_1
_geom_bond_atom_site_label_2
_geom_bond_site_symmetry_1
_geom_bond_site_symmetry_2
Zn1 N1 1_555 1_555
N1 C1 1_555 1_555
N2 H1 1_555 1_555
N3 C10 1_555 1_555
O1 Zn1 1_555 1_555
O2 Zn1 1_555 1_555
O3 C17 1_555 1_555
O4 C26 1_555 1_555
O5 C26 1_555 1_555
C1 C2 1_555 1_555
C2 H2 1_555 1_555
C3 C2 1_555 1_555
H3 C3 1_555 1_555
C4 C3 1_555 1_555
H4 C4 1_555 1_555
C5 C4 1_555 1_555
H5 C5 1_555 1_555
C6 N2 1_555 1_555
C7 N1 1_555 1_555
C8 C7 1_555 1_555
C9 C8 1_555 1_555
H6 C9 1_555 1_555
C10 C9 1_555 1_555
H7 C10 1_555 1_555
C11 N3 1_555 1_555
H8 C11 1_555 1_555
C12 C8 1_555 1_555
H9 C12 1_555 1_555
C13 O1 1_555 1_555
C14 C13 1_555 1_555
C15 C14 1_555 1_555
H10 C15 1_555 1_555
C16 C15 1_555 1_555
H11 C16 1_555 1_555
C17 C16 1_555 1_555
C18 C17 1_555 1_555
H12 C18 1_555 1_555
C19 C14 1_555 1_555
H13 C19 1_555 1_555
C20 O3 1_555 1_555
C21 C20 1_555 1_555
H14 C21 1_555 1_555
C22 C21 1_555 1_555
H15 C22 1_555 1_555
C23 C22 1_555 1_555
C24 C23 1_555 1_555
H16 C24 1_555 1_555
C25 C20 1_555 1_555
H17 C25 1_555 1_555
C26 C23 1_555 1_555
Zn1A N3 1_555 1_555
Zn1_2 O5 1_555 1_555
N3A Zn1 1_555 1_555
O5_2 Zn1 1_555 1_555
N2 C7 1_555 1_555
O2 C13 1_555 1_555
C1 C6 1_555 1_555
C5 C6 1_555 1_555
C11 C12 1_555 1_555
C18 C19 1_555 1_555
C24 C25 1_555 1_555

#END
