
#######################################################################
#
#                 Cambridge Crystallographic Data Centre
#                                CCDC 
#
#######################################################################
#
# If this CIF has been generated from an entry in the Cambridge 
# Structural Database, then it will include bibliographic, chemical, 
# crystal, experimental, refinement or atomic coordinate data resulting 
# from the CCDC's data processing and validation procedures.
#
#######################################################################

data_OWAYUH
_symmetry_cell_setting           triclinic
_symmetry_space_group_name_H-M   'P -1'
_symmetry_Int_Tables_number      2
_space_group_name_Hall           '-P 1'
loop_
_symmetry_equiv_pos_site_id
_symmetry_equiv_pos_as_xyz
1 x,y,z
2 -x,-y,-z
_cell_length_a                   10.6811(15)
_cell_length_b                   10.8171(16)
_cell_length_c                   13.0102(19)
_cell_angle_alpha                86.779(2)
_cell_angle_beta                 67.108(2)
_cell_angle_gamma                61.486(2)
_cell_volume                     1201.14
loop_
_atom_site_label
_atom_site_type_symbol
_atom_site_fract_x
_atom_site_fract_y
_atom_site_fract_z
Zn1 Zn 0.51045(5) 0.82083(5) 0.37873(4)
N1 N 0.7308(4) 0.7278(3) 0.3858(3)
N2 N 0.7288(3) 0.7904(3) 0.7019(3)
N3 N 0.9881(3) 0.6888(3) 0.6344(3)
H1 H 1.0845 0.6488 0.5868
O1 O 0.5322(3) 0.9860(3) 0.3095(2)
O2 O 0.2624(3) 0.9131(3) 0.4645(2)
O3 O 0.3894(3) 0.8951(3) 0.5647(2)
O4 O -0.3059(3) 1.1731(3) 0.9516(2)
O5 O -0.4737(3) 1.5980(3) 1.3643(2)
O6 O -0.4340(3) 1.7180(3) 1.2269(2)
C1 C 0.8665(5) 0.6663(4) 0.2937(3)
H2 H 0.8647 0.6554 0.2239
C2 C 1.0080(5) 0.6189(5) 0.2987(4)
H3 H 1.1005 0.5735 0.2338
C3 C 1.0118(5) 0.6393(4) 0.4013(4)
H4 H 1.1068 0.6099 0.4052
C4 C 0.8746(4) 0.7032(4) 0.4976(3)
C5 C 0.7388(4) 0.7408(4) 0.4839(3)
H5 H 0.6457 0.7782 0.5487
C6 C 0.8629(4) 0.7293(4) 0.6101(3)
C7 C 0.7709(4) 0.7856(4) 0.7912(3)
C8 C 0.6787(5) 0.8310(5) 0.9065(4)
H6 H 0.5704 0.8730 0.9354
C9 C 0.7535(6) 0.8116(5) 0.9762(4)
H7 H 0.6948 0.8405 1.0538
C10 C 0.9152(6) 0.7494(5) 0.9331(4)
H8 H 0.9617 0.7382 0.9829
C11 C 1.0081(5) 0.7043(5) 0.8207(4)
H9 H 1.1163 0.6627 0.7927
C12 C 0.9322(5) 0.7239(4) 0.7494(4)
C13 C 0.2612(4) 0.9303(4) 0.5593(3)
C14 C 0.1131(4) 0.9919(4) 0.6636(3)
C15 C -0.0272(4) 1.0288(4) 0.6587(3)
H10 H -0.0280 1.0119 0.5898
C16 C -0.1668(4) 1.0908(4) 0.7547(3)
H11 H -0.2605 1.1149 0.7504
C17 C -0.1647(4) 1.1160(4) 0.8566(3)
C18 C -0.0273(5) 1.0788(4) 0.8646(3)
H12 H -0.0270 1.0949 0.9340
C19 C 0.1116(4) 1.0167(4) 0.7675(3)
H13 H 0.2052 0.9913 0.7724
C20 C -0.3379(4) 1.2816(4) 1.0260(3)
C21 C -0.3141(6) 1.3923(5) 0.9888(3)
H14 H -0.2734 1.3951 0.9117
C22 C -0.3507(5) 1.5004(4) 1.0657(3)
H15 H -0.3351 1.5761 1.0401
C23 C -0.4098(4) 1.4969(4) 1.1795(3)
C24 C -0.4354(5) 1.3854(4) 1.2160(3)
H16 H -0.4764 1.3824 1.2930
C25 C -0.4007(5) 1.2778(4) 1.1391(3)
H17 H -0.4200 1.2039 1.1642
C26 C -0.4417(4) 1.6105(4) 1.2610(3)
H18 H 0.566(5) 1.019(4) 0.341(3)
H19 H 0.449(3) 1.050(3) 0.311(4)
Zn1_2 Zn -0.48955(5) 1.82083(5) 1.37873(4)
O5_2 O 0.5263(3) 0.5980(3) 0.3643(2)
O6_2 O 0.5660(3) 0.7180(3) 0.2269(2)
O7 O 0.3041(4) 0.5417(3) 0.5074(3)
loop_
_geom_bond_atom_site_label_1
_geom_bond_atom_site_label_2
_geom_bond_site_symmetry_1
_geom_bond_site_symmetry_2
Zn1 N1 1_555 1_555
N1 C1 1_555 1_555
N2 C6 1_555 1_555
N3 H1 1_555 1_555
O1 Zn1 1_555 1_555
O2 Zn1 1_555 1_555
O3 Zn1 1_555 1_555
O4 C17 1_555 1_555
O5 C26 1_555 1_555
O6 C26 1_555 1_555
C1 H2 1_555 1_555
C2 C1 1_555 1_555
H3 C2 1_555 1_555
C3 C2 1_555 1_555
H4 C3 1_555 1_555
C4 C3 1_555 1_555
C5 N1 1_555 1_555
H5 C5 1_555 1_555
C6 N3 1_555 1_555
C7 N2 1_555 1_555
C8 C7 1_555 1_555
H6 C8 1_555 1_555
C9 C8 1_555 1_555
H7 C9 1_555 1_555
C10 C9 1_555 1_555
H8 C10 1_555 1_555
C11 C10 1_555 1_555
H9 C11 1_555 1_555
C12 N3 1_555 1_555
C13 O2 1_555 1_555
C14 C13 1_555 1_555
C15 C14 1_555 1_555
H10 C15 1_555 1_555
C16 C15 1_555 1_555
H11 C16 1_555 1_555
C17 C16 1_555 1_555
C18 C17 1_555 1_555
H12 C18 1_555 1_555
C19 C14 1_555 1_555
H13 C19 1_555 1_555
C20 O4 1_555 1_555
C21 C20 1_555 1_555
H14 C21 1_555 1_555
C22 C21 1_555 1_555
H15 C22 1_555 1_555
C23 C22 1_555 1_555
C24 C23 1_555 1_555
H16 C24 1_555 1_555
C25 C20 1_555 1_555
H17 C25 1_555 1_555
C26 C23 1_555 1_555
H18 O1 1_555 1_555
H19 O1 1_555 1_555
Zn1_2 O5 1_555 1_555
O5_2 Zn1 1_555 1_555
O6_2 Zn1 1_555 1_555
O3 C13 1_555 1_555
O6 Zn1_2 1_555 1_555
C4 C5 1_555 1_555
C4 C6 1_555 1_555
C7 C12 1_555 1_555
C11 C12 1_555 1_555
C18 C19 1_555 1_555
C24 C25 1_555 1_555

#END
