
#######################################################################
#
#                 Cambridge Crystallographic Data Centre
#                                CCDC 
#
#######################################################################
#
# If this CIF has been generated from an entry in the Cambridge 
# Structural Database, then it will include bibliographic, chemical, 
# crystal, experimental, refinement or atomic coordinate data resulting 
# from the CCDC's data processing and validation procedures.
#
#######################################################################

data_OWEBIC
_symmetry_cell_setting           monoclinic
_symmetry_space_group_name_H-M   'C 2/c'
_symmetry_Int_Tables_number      15
_space_group_name_Hall           '-C 2yn'
loop_
_symmetry_equiv_pos_site_id
_symmetry_equiv_pos_as_xyz
1 x,y,z
2 -x,y,1/2-z
3 1/2+x,1/2+y,z
4 1/2-x,1/2+y,1/2-z
5 -x,-y,-z
6 x,-y,1/2+z
7 1/2-x,1/2-y,-z
8 1/2+x,1/2-y,1/2+z
_cell_length_a                   17.501(2)
_cell_length_b                   11.5021(13)
_cell_length_c                   22.139(3)
_cell_angle_alpha                90
_cell_angle_beta                 96.8270(10)
_cell_angle_gamma                90
_cell_volume                     4424.94
loop_
_atom_site_label
_atom_site_type_symbol
_atom_site_fract_x
_atom_site_fract_y
_atom_site_fract_z
Zn1 Zn 1.0000 0.11292(5) 0.7500
N1 N 1.00275(19) 0.0884(3) 0.65391(15)
N2 N 1.0000 0.3002(4) 0.7500
N3 N 1.0000 0.9158(4) 0.7500
O4 O 1.12608(15) 0.1317(2) 0.76396(13)
H3 H 1.1382 0.1768 0.7922
H4 H 1.1620 0.0891 0.7568
C1 C 1.0649(3) 0.0531(6) 0.6306(2)
H7 H 1.1110 0.0513 0.6563
C2 C 1.0664(3) 0.0192(6) 0.5720(2)
H8 H 1.1127 -0.0039 0.5590
C3 C 1.0009(2) 0.0189(3) 0.53210(17)
C4 C 0.9363(3) 0.0566(5) 0.5551(2)
H9 H 0.8897 0.0597 0.5302
C5 C 0.9401(3) 0.0899(5) 0.6147(2)
H10 H 0.8949 0.1155 0.6286
C6 C 0.9482(2) 0.3611(3) 0.7769(2)
H11 H 0.9119 0.3205 0.7960
C7 C 0.9461(2) 0.4804(3) 0.7778(2)
H12 H 0.9088 0.5188 0.7969
C8 C 1.0000 0.5436(4) 0.7500
C9 C 1.0000 0.6727(5) 0.7500
C10 C 0.9341(3) 0.7349(4) 0.7366(3)
H13 H 0.8873 0.6967 0.7275
C11 C 0.9367(3) 0.8542(4) 0.7366(3)
H14 H 0.8908 0.8943 0.7263
Zn1_2 Zn 1.0000 1.11292(5) 0.7500
Zn1D Zn 1.0000 -0.11292(5) 0.2500
N1D N 0.99725(19) -0.0884(3) 0.34609(15)
N1A N 0.99725(19) 0.0884(3) 0.84609(15)
N3_2 N 1.0000 -0.0842(4) 0.7500
O4A O 0.87392(15) 0.1317(2) 0.73604(13)
H3A H 0.8618 0.1768 0.7078
H4A H 0.8380 0.0891 0.7432
C1D C 0.9351(3) -0.0531(6) 0.3694(2)
H7D H 0.8890 -0.0513 0.3437
C2D C 0.9336(3) -0.0192(6) 0.4280(2)
H8D H 0.8873 0.0039 0.4410
C3D C 0.9991(2) -0.0189(3) 0.46790(17)
C4D C 1.0637(3) -0.0566(5) 0.4449(2)
H9D H 1.1103 -0.0597 0.4698
C5D C 1.0599(3) -0.0899(5) 0.3853(2)
H10D H 1.1051 -0.1155 0.3714
C6A C 1.0518(2) 0.3611(3) 0.7231(2)
H11A H 1.0881 0.3205 0.7040
C7A C 1.0539(2) 0.4804(3) 0.7222(2)
H12A H 1.0912 0.5188 0.7031
C10A C 1.0659(3) 0.7349(4) 0.7634(3)
H13A H 1.1127 0.6967 0.7725
C11A C 1.0633(3) 0.8542(4) 0.7634(3)
H14A H 1.1092 0.8943 0.7737
N4 N 0.2674(3) 0.8686(4) 0.85348(19)
C12 C 0.2612(3) 0.7558(5) 0.8629(2)
H15 H 0.2615 0.7064 0.8296
C13 C 0.2544(3) 0.7063(4) 0.9185(2)
H16 H 0.2502 0.6260 0.9218
C14 C 0.2536(2) 0.7745(4) 0.9694(2)
C15 C 0.2599(4) 0.8930(4) 0.9603(2)
H17 H 0.2596 0.9441 0.9928
C16 C 0.2666(4) 0.9350(5) 0.9026(2)
H18 H 0.2708 1.0150 0.8979
N4F N 0.2326(3) 0.6314(4) 1.14652(19)
C12F C 0.2388(3) 0.7442(5) 1.1371(2)
H15F H 0.2385 0.7936 1.1704
C13F C 0.2456(3) 0.7937(4) 1.0815(2)
H16F H 0.2498 0.8740 1.0782
C14F C 0.2464(2) 0.7255(4) 1.0306(2)
C15F C 0.2401(4) 0.6070(4) 1.0397(2)
H17F H 0.2404 0.5559 1.0072
C16F C 0.2334(4) 0.5650(5) 1.0974(2)
H18F H 0.2292 0.4850 1.1021
N5 N 0.1169(3) 0.2908(4) 0.1054(2)
H1 H 0.1651 0.2857 0.1182
H2 H 0.0832 0.2814 0.1303
O1 O 0.2006(2) 0.2589(3) -0.13560(18)
O2 O 0.26498(18) 0.4051(3) -0.07204(16)
O3 O 0.1668(2) 0.4641(4) -0.15027(17)
S1 S 0.19457(7) 0.37367(11) -0.10748(5)
Cl1 Cl -0.05268(10) 0.30549(18) 0.07176(9)
C17 C 0.1239(3) 0.3607(4) -0.0557(2)
C18 C 0.1475(3) 0.3295(4) 0.0042(2)
H19 H 0.1996 0.3189 0.0172
C19 C 0.0935(3) 0.3141(4) 0.0449(2)
C20 C 0.0163(3) 0.3279(5) 0.0220(3)
C21 C -0.0066(3) 0.3602(6) -0.0368(3)
H20 H -0.0585 0.3715 -0.0501
C22 C 0.0482(3) 0.3761(5) -0.0766(3)
H21 H 0.0334 0.3970 -0.1168
O5 O 0.2428(2) 0.9966(4) 0.74449(17)
H5 H 0.2698 0.9838 0.7169
H6 H 0.2540 0.9512 0.7734
loop_
_geom_bond_atom_site_label_1
_geom_bond_atom_site_label_2
_geom_bond_site_symmetry_1
_geom_bond_site_symmetry_2
Zn1 N1 1_555 1_555
N1 C1 1_555 1_555
N2 Zn1 1_555 1_555
N3 C11 1_555 1_555
N4 C12 1_555 1_555
N5 H1 1_555 1_555
H2 N5 1_555 1_555
O1 S1 1_555 1_555
O2 S1 1_555 1_555
O3 S1 1_555 1_555
O4 Zn1 1_555 1_555
H3 O4 1_555 1_555
H4 O4 1_555 1_555
O5 H5 1_555 1_555
H6 O5 1_555 1_555
S1 C17 1_555 1_555
Cl1 C20 1_555 1_555
C1 H7 1_555 1_555
C2 C1 1_555 1_555
H8 C2 1_555 1_555
C3 C2 1_555 1_555
C4 C3 1_555 1_555
H9 C4 1_555 1_555
C5 N1 1_555 1_555
H10 C5 1_555 1_555
C6 N2 1_555 1_555
H11 C6 1_555 1_555
C7 C6 1_555 1_555
H12 C7 1_555 1_555
C8 C7 1_555 1_555
C9 C8 1_555 1_555
C10 C9 1_555 1_555
H13 C10 1_555 1_555
C11 C10 1_555 1_555
H14 C11 1_555 1_555
C12 H15 1_555 1_555
C13 C12 1_555 1_555
H16 C13 1_555 1_555
C14 C13 1_555 1_555
C15 C14 1_555 1_555
H17 C15 1_555 1_555
C16 N4 1_555 1_555
H18 C16 1_555 1_555
C17 C18 1_555 1_555
C18 H19 1_555 1_555
C19 N5 1_555 1_555
C20 C19 1_555 1_555
C21 C20 1_555 1_555
H20 C21 1_555 1_555
C22 C17 1_555 1_555
H21 C22 1_555 1_555
Zn1_2 N3 1_555 1_555
Zn1D N1D 1_555 1_555
N1D C1D 1_555 1_555
N1A Zn1 1_555 1_555
N3_2 Zn1 1_555 1_555
N4F C12F 1_555 1_555
O4A Zn1 1_555 1_555
H3A O4A 1_555 1_555
H4A O4A 1_555 1_555
C1D H7D 1_555 1_555
C2D C1D 1_555 1_555
H8D C2D 1_555 1_555
C3D C3 1_555 1_555
C4D C3D 1_555 1_555
H9D C4D 1_555 1_555
C5D N1D 1_555 1_555
H10D C5D 1_555 1_555
C6A N2 1_555 1_555
H11A C6A 1_555 1_555
C7A C8 1_555 1_555
H12A C7A 1_555 1_555
C10A C9 1_555 1_555
H13A C10A 1_555 1_555
C11A N3 1_555 1_555
H14A C11A 1_555 1_555
C12F H15F 1_555 1_555
C13F C12F 1_555 1_555
H16F C13F 1_555 1_555
C14F C14 1_555 1_555
C15F C14F 1_555 1_555
H17F C15F 1_555 1_555
C16F N4F 1_555 1_555
H18F C16F 1_555 1_555
C4 C5 1_555 1_555
C15 C16 1_555 1_555
C18 C19 1_555 1_555
C21 C22 1_555 1_555
C2D C3D 1_555 1_555
C4D C5D 1_555 1_555
C6A C7A 1_555 1_555
C10A C11A 1_555 1_555
C13F C14F 1_555 1_555
C15F C16F 1_555 1_555

#END
