
#######################################################################
#
#                 Cambridge Crystallographic Data Centre
#                                CCDC 
#
#######################################################################
#
# If this CIF has been generated from an entry in the Cambridge 
# Structural Database, then it will include bibliographic, chemical, 
# crystal, experimental, refinement or atomic coordinate data resulting 
# from the CCDC's data processing and validation procedures.
#
#######################################################################

data_OWEXUK
_symmetry_cell_setting           monoclinic
_symmetry_space_group_name_H-M   'C 2/c'
_symmetry_Int_Tables_number      15
_space_group_name_Hall           '-C 2yn'
loop_
_symmetry_equiv_pos_site_id
_symmetry_equiv_pos_as_xyz
1 x,y,z
2 -x,y,1/2-z
3 1/2+x,1/2+y,z
4 1/2-x,1/2+y,1/2-z
5 -x,-y,-z
6 x,-y,1/2+z
7 1/2-x,1/2-y,-z
8 1/2+x,1/2-y,1/2+z
_cell_length_a                   28.6655(9)
_cell_length_b                   13.4822(5)
_cell_length_c                   15.6206(6)
_cell_angle_alpha                90
_cell_angle_beta                 104.564(4)
_cell_angle_gamma                90
_cell_volume                     5842.97
loop_
_atom_site_label
_atom_site_type_symbol
_atom_site_fract_x
_atom_site_fract_y
_atom_site_fract_z
Mn1 Mn 1.0000 0.22966(10) 0.7500
S1 S 1.16675(6) 0.27509(14) 0.76341(12)
O1 O 0.68319(16) 0.3285(3) -0.0080(3)
O2 O 0.83345(17) 0.6009(4) 0.4634(3)
N1 N 0.97015(16) 0.3420(4) 0.6400(3)
O3 O 0.90804(15) 0.4366(4) 0.2834(3)
O4 O 0.60790(15) 0.4897(4) 0.1735(3)
C1 C 0.7349(2) 0.4464(4) 0.2024(3)
N2 N 0.64552(17) 0.4015(4) 0.0872(3)
N3 N 0.87043(17) 0.5184(4) 0.3726(3)
C2 C 0.7805(2) 0.4704(5) 0.2605(4)
C3 C 0.5087(2) 0.5309(5) -0.1359(4)
H1 H 0.4761 0.5273 -0.1643
N4 N 0.53431(17) 0.6075(4) -0.1528(3)
C4 C 0.9362(2) 0.4764(5) 0.5041(4)
C5 C 0.9326(2) 0.4945(5) 0.5876(4)
H2 H 0.9185 0.5531 0.6003
C6 C 0.7337(2) 0.3906(4) 0.1263(4)
N5 N 1.06765(19) 0.2433(4) 0.7090(3)
C7 C 0.7821(2) 0.5264(5) 0.3369(4)
C8 C 0.5983(2) 0.3764(5) 0.0280(4)
H3 H 0.5763 0.3589 0.0637
H4 H 0.6020 0.3186 -0.0067
C9 C 0.6930(2) 0.4821(5) 0.2226(4)
C10 C 0.9579(2) 0.3887(5) 0.4897(4)
H5 H 0.9613 0.3737 0.4334
C11 C 0.6868(2) 0.3696(5) 0.0629(4)
C12 C 0.5287(2) 0.4575(5) -0.0782(4)
H6 H 0.5095 0.4051 -0.0688
C13 C 0.8202(2) 0.3805(5) 0.1662(4)
H7 H 0.8485 0.3581 0.1537
C14 C 0.9497(2) 0.4263(5) 0.6536(4)
H8 H 0.9467 0.4402 0.7103
C15 C 0.9740(2) 0.3249(5) 0.5567(4)
H9 H 0.9885 0.2663 0.5453
C16 C 0.6033(2) 0.5377(5) -0.0528(4)
H10 H 0.6362 0.5414 -0.0262
C17 C 0.5764(2) 0.4592(5) -0.0339(4)
C18 C 0.6456(2) 0.4578(5) 0.1620(4)
C19 C 0.5813(2) 0.6102(5) -0.1109(4)
H11 H 0.5997 0.6633 -0.1216
C20 C 0.8707(2) 0.4631(5) 0.2994(4)
C21 C 0.9181(2) 0.5501(5) 0.4299(4)
H12 H 0.9149 0.6149 0.4547
H13 H 0.9413 0.5553 0.3944
C22 C 1.1087(2) 0.2568(4) 0.7303(4)
C23 C 0.7755(2) 0.3566(5) 0.1086(4)
H14 H 0.7742 0.3178 0.0588
C24 C 0.8291(2) 0.5522(5) 0.3967(4)
C25 C 0.8227(2) 0.4356(5) 0.2394(4)
C26 C 0.7398(2) 0.5583(6) 0.3552(4)
H15 H 0.7411 0.5947 0.4063
C27 C 0.6958(2) 0.5367(6) 0.2985(4)
H16 H 0.6677 0.5591 0.3115
Mn1B Mn 0.5000 0.72966(10) -0.2500
Mn1B_2 Mn 1.5000 0.72966(10) 1.7500
S1A S 0.83325(6) 0.27509(14) 0.73659(12)
O1A O 1.31681(16) 0.3285(3) 1.5080(3)
O2A O 1.16655(17) 0.6009(4) 1.0366(3)
N1A N 1.02985(16) 0.3420(4) 0.8600(3)
O3A O 1.09196(15) 0.4366(4) 1.2166(3)
O4A O 1.39210(15) 0.4897(4) 1.3265(3)
C1A C 1.2651(2) 0.4464(4) 1.2976(3)
N2A N 1.35448(17) 0.4015(4) 1.4128(3)
N3A N 1.12957(17) 0.5184(4) 1.1274(3)
C2A C 1.2195(2) 0.4704(5) 1.2395(4)
C3A C 1.4913(2) 0.5309(5) 1.6359(4)
H1A H 1.5239 0.5273 1.6643
N4A N 1.46569(17) 0.6075(4) 1.6528(3)
N4B N 1.03431(17) 0.1075(4) 0.8472(3)
N4C N 0.96569(17) 0.1075(4) 0.6528(3)
C4A C 1.0638(2) 0.4764(5) 0.9959(4)
C5A C 1.0674(2) 0.4945(5) 0.9124(4)
H2A H 1.0815 0.5531 0.8997
C6A C 1.2663(2) 0.3906(4) 1.3737(4)
N5A N 0.93235(19) 0.2433(4) 0.7910(3)
C7A C 1.2179(2) 0.5264(5) 1.1631(4)
C8A C 1.4017(2) 0.3764(5) 1.4720(4)
H3A H 1.4237 0.3589 1.4363
H4A H 1.3980 0.3186 1.5067
C9A C 1.3070(2) 0.4821(5) 1.2774(4)
C10A C 1.0421(2) 0.3887(5) 1.0103(4)
H5A H 1.0387 0.3737 1.0666
C11A C 1.3132(2) 0.3696(5) 1.4371(4)
C12A C 1.4713(2) 0.4575(5) 1.5782(4)
H6A H 1.4905 0.4051 1.5688
C13A C 1.1798(2) 0.3805(5) 1.3338(4)
H7A H 1.1515 0.3581 1.3463
C14A C 1.0503(2) 0.4263(5) 0.8464(4)
H8A H 1.0533 0.4402 0.7897
C15A C 1.0260(2) 0.3249(5) 0.9433(4)
H9A H 1.0115 0.2663 0.9547
C16A C 1.3967(2) 0.5377(5) 1.5528(4)
H10A H 1.3638 0.5414 1.5262
C17A C 1.4236(2) 0.4592(5) 1.5339(4)
C18A C 1.3544(2) 0.4578(5) 1.3380(4)
C19A C 1.4187(2) 0.6102(5) 1.6109(4)
H11A H 1.4003 0.6633 1.6216
C20A C 1.1293(2) 0.4631(5) 1.2006(4)
C21A C 1.0819(2) 0.5501(5) 1.0701(4)
H12A H 1.0851 0.6149 1.0453
H13A H 1.0587 0.5553 1.1056
C22A C 0.8913(2) 0.2568(4) 0.7697(4)
C23A C 1.2245(2) 0.3566(5) 1.3914(4)
H14A H 1.2258 0.3178 1.4412
C24A C 1.1709(2) 0.5522(5) 1.1033(4)
C25A C 1.1773(2) 0.4356(5) 1.2606(4)
C26A C 1.2602(2) 0.5583(6) 1.1448(4)
H15A H 1.2589 0.5947 1.0937
C27A C 1.3042(2) 0.5367(6) 1.2015(4)
H16A H 1.3323 0.5591 1.1885
O5 O 1.2021(7) 0.2286(13) 1.1340(18)
C28 C 1.1586(4) 0.2760(11) 1.0925(9)
O6 O 1.0516(7) 0.2631(11) 1.303(2)
C29 C 1.0806(12) 0.200(2) 1.284(3)
O7 O 1.1907(8) 0.3664(17) 0.9687(13)
O8 O 1.0808(8) 0.1937(16) 1.1437(13)
loop_
_geom_bond_atom_site_label_1
_geom_bond_atom_site_label_2
_geom_bond_site_symmetry_1
_geom_bond_site_symmetry_2
Mn1 N1 1_555 1_555
S1 C22 1_555 1_555
O1 C11 1_555 1_555
O2 C24 1_555 1_555
N1 C14 1_555 1_555
O3 C20 1_555 1_555
O4 C18 1_555 1_555
C1 C2 1_555 1_555
N2 C8 1_555 1_555
N3 C20 1_555 1_555
C2 C7 1_555 1_555
C3 H1 1_555 1_555
N4 C3 1_555 1_555
C4 C5 1_555 1_555
C5 H2 1_555 1_555
C6 C1 1_555 1_555
N5 Mn1 1_555 1_555
C7 C24 1_555 1_555
C8 H3 1_555 1_555
H4 C8 1_555 1_555
C9 C1 1_555 1_555
C10 C4 1_555 1_555
H5 C10 1_555 1_555
C11 N2 1_555 1_555
C12 C3 1_555 1_555
H6 C12 1_555 1_555
C13 H7 1_555 1_555
C14 C5 1_555 1_555
H8 C14 1_555 1_555
C15 N1 1_555 1_555
H9 C15 1_555 1_555
C16 H10 1_555 1_555
C17 C8 1_555 1_555
C18 N2 1_555 1_555
C19 N4 1_555 1_555
H11 C19 1_555 1_555
C20 C25 1_555 1_555
C21 N3 1_555 1_555
H12 C21 1_555 1_555
H13 C21 1_555 1_555
C22 N5 1_555 1_555
C23 C6 1_555 1_555
H14 C23 1_555 1_555
C24 N3 1_555 1_555
C25 C2 1_555 1_555
C26 C7 1_555 1_555
H15 C26 1_555 1_555
C27 C9 1_555 1_555
H16 C27 1_555 1_555
O5 C28 1_555 1_555
O6 C29 1_555 1_555
Mn1B N4 1_555 1_555
Mn1B_2 N4A 1_555 1_555
S1A C22A 1_555 1_555
O1A C11A 1_555 1_555
O2A C24A 1_555 1_555
N1A Mn1 1_555 1_555
O3A C20A 1_555 1_555
O4A C18A 1_555 1_555
C1A C2A 1_555 1_555
N2A C8A 1_555 1_555
N3A C20A 1_555 1_555
C2A C7A 1_555 1_555
C3A H1A 1_555 1_555
N4A C3A 1_555 1_555
N4B Mn1 1_555 1_555
N4C Mn1 1_555 1_555
C4A C5A 1_555 1_555
C5A H2A 1_555 1_555
C6A C1A 1_555 1_555
N5A Mn1 1_555 1_555
C7A C24A 1_555 1_555
C8A H3A 1_555 1_555
H4A C8A 1_555 1_555
C9A C1A 1_555 1_555
C10A C4A 1_555 1_555
H5A C10A 1_555 1_555
C11A N2A 1_555 1_555
C12A C3A 1_555 1_555
H6A C12A 1_555 1_555
C13A H7A 1_555 1_555
C14A N1A 1_555 1_555
H8A C14A 1_555 1_555
C15A N1A 1_555 1_555
H9A C15A 1_555 1_555
C16A H10A 1_555 1_555
C17A C8A 1_555 1_555
C18A N2A 1_555 1_555
C19A N4A 1_555 1_555
H11A C19A 1_555 1_555
C20A C25A 1_555 1_555
C21A N3A 1_555 1_555
H12A C21A 1_555 1_555
H13A C21A 1_555 1_555
C22A N5A 1_555 1_555
C23A C6A 1_555 1_555
H14A C23A 1_555 1_555
C24A N3A 1_555 1_555
C25A C2A 1_555 1_555
C26A C7A 1_555 1_555
H15A C26A 1_555 1_555
C27A C9A 1_555 1_555
H16A C27A 1_555 1_555
C4 C21 1_555 1_555
C6 C11 1_555 1_555
C9 C18 1_555 1_555
C10 C15 1_555 1_555
C12 C17 1_555 1_555
C13 C23 1_555 1_555
C13 C25 1_555 1_555
C16 C17 1_555 1_555
C16 C19 1_555 1_555
C26 C27 1_555 1_555
C4A C21A 1_555 1_555
C5A C14A 1_555 1_555
C6A C11A 1_555 1_555
C9A C18A 1_555 1_555
C10A C15A 1_555 1_555
C12A C17A 1_555 1_555
C13A C23A 1_555 1_555
C13A C25A 1_555 1_555
C16A C17A 1_555 1_555
C16A C19A 1_555 1_555
C26A C27A 1_555 1_555

#END
