
#######################################################################
#
#                 Cambridge Crystallographic Data Centre
#                                CCDC 
#
#######################################################################
#
# If this CIF has been generated from an entry in the Cambridge 
# Structural Database, then it will include bibliographic, chemical, 
# crystal, experimental, refinement or atomic coordinate data resulting 
# from the CCDC's data processing and validation procedures.
#
#######################################################################

data_OWEYAR
_symmetry_cell_setting           monoclinic
_symmetry_space_group_name_H-M   'C 2/c'
_symmetry_Int_Tables_number      15
_space_group_name_Hall           '-C 2yn'
loop_
_symmetry_equiv_pos_site_id
_symmetry_equiv_pos_as_xyz
1 x,y,z
2 -x,y,1/2-z
3 1/2+x,1/2+y,z
4 1/2-x,1/2+y,1/2-z
5 -x,-y,-z
6 x,-y,1/2+z
7 1/2-x,1/2-y,-z
8 1/2+x,1/2-y,1/2+z
_cell_length_a                   16.677(5)
_cell_length_b                   17.547(5)
_cell_length_c                   12.196(5)
_cell_angle_alpha                90
_cell_angle_beta                 126.616(5)
_cell_angle_gamma                90
_cell_volume                     2864.61
loop_
_atom_site_label
_atom_site_type_symbol
_atom_site_fract_x
_atom_site_fract_y
_atom_site_fract_z
C1 C 0.3105(7) 0.1453(5) 0.0275(9)
H1 H 0.3206 0.1683 -0.0319
C2 C 0.2357(7) 0.0921(6) -0.0230(9)
H2 H 0.1976 0.0785 -0.1147
C3 C 0.2172(6) 0.0588(4) 0.0633(8)
C4 C 0.2770(7) 0.0808(5) 0.1981(8)
H3 H 0.2670 0.0606 0.2596
C5 C 0.3518(7) 0.1332(5) 0.2409(9)
H4 H 0.3922 0.1469 0.3327
C6 C 0.1361(6) -0.0004(4) 0.0121(9)
H5 H 0.1159 -0.0019 0.0719
H6 H 0.0783 0.0134 -0.0787
C7 C 0.2280(6) -0.1225(5) 0.1221(8)
C8 C 0.2449(6) -0.1946(4) 0.0720(8)
C9 C 0.2011(6) -0.1852(4) -0.0673(8)
C10 C 0.1544(6) -0.1086(5) -0.1094(8)
C11 C 0.2940(7) -0.2606(5) 0.1427(8)
H7 H 0.3214 -0.2674 0.2345
O1 O 0.2586(5) -0.1059(4) 0.2364(6)
O2 O 0.1111(5) -0.0775(3) -0.2185(6)
N1 N 0.3693(5) 0.1649(4) 0.1602(7)
N2 N 0.1718(5) -0.0755(4) 0.0079(6)
Cd1 Cd 0.5000 0.24856(4) 0.2500
I1 I 0.49444(4) 0.31179(4) 0.04454(7)
C1F C 0.1895(7) -0.6453(5) -0.0275(9)
H1F H 0.1794 -0.6683 0.0319
C2F C 0.2643(7) -0.5921(6) 0.0230(9)
H2F H 0.3024 -0.5785 0.1147
C3F C 0.2828(6) -0.5588(4) -0.0633(8)
C4F C 0.2230(7) -0.5808(5) -0.1981(8)
H3F H 0.2330 -0.5606 -0.2596
C5F C 0.1482(7) -0.6332(5) -0.2409(9)
H4F H 0.1078 -0.6469 -0.3327
C6F C 0.3639(6) -0.4996(4) -0.0121(9)
H5F H 0.3841 -0.4981 -0.0719
H6F H 0.4217 -0.5134 0.0787
C7F C 0.2720(6) -0.3775(5) -0.1221(8)
C8F C 0.2551(6) -0.3054(4) -0.0720(8)
C9F C 0.2989(6) -0.3148(4) 0.0673(8)
C10F C 0.3456(6) -0.3914(5) 0.1094(8)
C11F C 0.2060(7) -0.2394(5) -0.1427(8)
H7F H 0.1786 -0.2326 -0.2345
O1F O 0.2414(5) -0.3941(4) -0.2364(6)
O2F O 0.3889(5) -0.4225(3) 0.2185(6)
N1F N 0.1307(5) -0.6649(4) -0.1602(7)
N1A N 0.6307(5) 0.1649(4) 0.3398(7)
N2F N 0.3282(5) -0.4245(4) -0.0079(6)
Cd1F Cd 0.0000 -0.74856(4) -0.2500
I1A I 0.50556(4) 0.31179(4) 0.45546(7)
O3 O 0.4874(7) 0.1577(6) 0.6293(10)
O4 O 0.5515(13) 0.0420(11) 0.854(2)
O5? O 0.5769(11) 0.0047(9) 0.9314(16)
loop_
_geom_bond_atom_site_label_1
_geom_bond_atom_site_label_2
_geom_bond_site_symmetry_1
_geom_bond_site_symmetry_2
C1 H1 1_555 1_555
C2 C1 1_555 1_555
H2 C2 1_555 1_555
C3 C2 1_555 1_555
C4 C3 1_555 1_555
H3 C4 1_555 1_555
C5 C4 1_555 1_555
H4 C5 1_555 1_555
C6 C3 1_555 1_555
H5 C6 1_555 1_555
H6 C6 1_555 1_555
C7 C8 1_555 1_555
C8 C9 1_555 1_555
C9 C10 1_555 1_555
C10 O2 1_555 1_555
C11 C8 1_555 1_555
H7 C11 1_555 1_555
O1 C7 1_555 1_555
N1 C1 1_555 1_555
N2 C6 1_555 1_555
Cd1 N1 1_555 1_555
I1 Cd1 1_555 1_555
C1F H1F 1_555 1_555
C2F C1F 1_555 1_555
H2F C2F 1_555 1_555
C3F C2F 1_555 1_555
C4F C3F 1_555 1_555
H3F C4F 1_555 1_555
C5F C4F 1_555 1_555
H4F C5F 1_555 1_555
C6F C3F 1_555 1_555
H5F C6F 1_555 1_555
H6F C6F 1_555 1_555
C7F C8F 1_555 1_555
C8F C9F 1_555 1_555
C9F C11 1_555 1_555
C10F C9F 1_555 1_555
C11F C9 1_555 1_555
H7F C11F 1_555 1_555
O1F C7F 1_555 1_555
O2F C10F 1_555 1_555
N1F C1F 1_555 1_555
N1A Cd1 1_555 1_555
N2F C6F 1_555 1_555
Cd1F N1F 1_555 1_555
I1A Cd1 1_555 1_555
C5 N1 1_555 1_555
C7 N2 1_555 1_555
C10 N2 1_555 1_555
C5F N1F 1_555 1_555
C7F N2F 1_555 1_555
C8F C11F 1_555 1_555
C10F N2F 1_555 1_555

#END
