
#######################################################################
#
#                 Cambridge Crystallographic Data Centre
#                                CCDC 
#
#######################################################################
#
# If this CIF has been generated from an entry in the Cambridge 
# Structural Database, then it will include bibliographic, chemical, 
# crystal, experimental, refinement or atomic coordinate data resulting 
# from the CCDC's data processing and validation procedures.
#
#######################################################################

data_OWEYUL
_symmetry_cell_setting           triclinic
_symmetry_space_group_name_H-M   'P -1'
_symmetry_Int_Tables_number      2
_space_group_name_Hall           '-P 1'
loop_
_symmetry_equiv_pos_site_id
_symmetry_equiv_pos_as_xyz
1 x,y,z
2 -x,-y,-z
_cell_length_a                   7.932(5)
_cell_length_b                   11.356(5)
_cell_length_c                   14.605(5)
_cell_angle_alpha                78.961(5)
_cell_angle_beta                 80.467(5)
_cell_angle_gamma                79.776(5)
_cell_volume                     1258.86
loop_
_atom_site_label
_atom_site_type_symbol
_atom_site_fract_x
_atom_site_fract_y
_atom_site_fract_z
Co1 Co 1.0000 0.0000 0.5000
C1 C 1.0891(3) -0.0858(2) 0.05943(15)
C2 C 1.2969(3) -0.0610(2) 0.33250(15)
H1 H 1.2234 -0.1129 0.3253
C3 C 1.4421(3) -0.0487(2) 0.26584(16)
C4 C 1.4570(3) -0.6202(2) 1.00848(17)
C5 C 1.2988(3) 0.0289(2) 0.07004(16)
C6 C 1.4751(3) -0.1152(2) 0.18268(15)
H2 H 1.5808 -0.0955 0.1433
H3 H 1.4911 -0.2020 0.2053
C7 C 1.2157(3) -0.1613(2) 0.12049(16)
C8 C 1.3553(3) -0.5164(2) 0.96919(15)
C9 C 1.1141(3) 0.1648(2) 0.62829(16)
C10 C 1.0302(3) -0.1965(2) 0.68122(16)
H4 H 0.9690 -0.1331 0.7107
C11 C 1.3968(3) -0.4014(2) 0.96070(15)
C12 C 1.1420(3) 0.0269(2) 0.02731(16)
C13 C 1.1611(3) -0.4013(2) 0.69175(17)
H5 H 1.1890 -0.4781 0.7263
C14 C 0.9451(3) -0.1173(2) 0.03362(17)
C15 C 1.5525(3) 0.0269(2) 0.27729(17)
H6 H 1.6513 0.0374 0.2343
C16 C 1.0049(3) -0.3314(2) 0.84044(15)
H7 H 0.9491 -0.2554 0.8601
H8 H 0.9203 -0.3866 0.8537
C17 C 1.2647(3) -0.3133(2) 0.91138(15)
C18 C 1.0659(3) -0.3094(2) 0.73612(16)
C19 C 1.2150(3) -0.3795(2) 0.59605(18)
H9 H 1.2800 -0.4406 0.5653
C20 C 1.5135(3) 0.0868(2) 0.35404(17)
H10 H 1.5863 0.1380 0.3632
C21 C 1.1940(3) -0.5064(2) 0.92680(16)
C22 C 1.1700(3) -0.2646(2) 0.54721(17)
H11 H 1.2051 -0.2501 0.4826
C23 C 1.3655(3) 0.0699(2) 0.41694(16)
H12 H 1.3413 0.1105 0.4683
N1 N 1.2557(2) -0.00232(18) 0.40726(13)
N2 N 1.3327(2) -0.08334(18) 0.12660(12)
N3 N 1.1479(2) -0.38262(18) 0.89385(12)
N4 N 1.0799(2) 0.09350(19) 0.58984(13)
N5 N 1.0789(2) -0.17343(18) 0.58773(13)
O1 O 1.1139(2) -0.58522(16) 0.92036(11)
O2 O 1.25271(19) -0.20473(15) 0.88940(11)
O3 O 1.3861(2) 0.10898(16) 0.05952(12)
O4 O 1.2248(2) -0.26570(16) 0.15705(12)
S1 S 1.16026(9) 0.26608(7) 0.68212(5)
H14 H 1.430(3) -0.687(2) 1.0133(15)
H15 H 0.912(2) -0.189(2) 0.0530(15)
Co1_2 Co 1.0000 0.0000 -0.5000
Co1_3 Co 2.0000 -1.0000 1.5000
C1A C 0.9109(3) 0.0858(2) -0.05943(15)
C2A C 0.7031(3) 0.0610(2) -0.33250(15)
H1A H 0.7766 0.1129 -0.3253
C3A C 0.5579(3) 0.0487(2) -0.26584(16)
C4A C 1.5430(3) -0.3798(2) 0.99152(17)
C5A C 0.7012(3) -0.0289(2) -0.07004(16)
C6A C 0.5249(3) 0.1152(2) -0.18268(15)
H2A H 0.4192 0.0955 -0.1433
H3A H 0.5089 0.2020 -0.2053
C7A C 0.7843(3) 0.1613(2) -0.12049(16)
C8A C 1.6447(3) -0.4836(2) 1.03081(15)
C9A C 0.8859(3) -0.1648(2) 0.37171(16)
C10A C 1.9698(3) -0.8035(2) 1.31878(16)
H4A H 2.0310 -0.8669 1.2893
C11A C 1.6032(3) -0.5986(2) 1.03930(15)
C12A C 0.8580(3) -0.0269(2) -0.02731(16)
C13A C 1.8389(3) -0.5987(2) 1.30825(17)
H5A H 1.8110 -0.5219 1.2737
C14A C 1.0549(3) 0.1173(2) -0.03362(17)
C15A C 0.4475(3) -0.0269(2) -0.27729(17)
H6A H 0.3487 -0.0374 -0.2343
C16A C 1.9951(3) -0.6686(2) 1.15956(15)
H7A H 2.0509 -0.7446 1.1399
H8A H 2.0797 -0.6134 1.1463
C17A C 1.7353(3) -0.6867(2) 1.08862(15)
C18A C 1.9341(3) -0.6906(2) 1.26388(16)
C19A C 1.7850(3) -0.6205(2) 1.40395(18)
H9A H 1.7200 -0.5594 1.4347
C20A C 0.4865(3) -0.0868(2) -0.35404(17)
H10A H 0.4137 -0.1380 -0.3632
C21A C 1.8060(3) -0.4936(2) 1.07320(16)
C22A C 1.8300(3) -0.7354(2) 1.45279(17)
H11A H 1.7949 -0.7499 1.5174
C23A C 0.6345(3) -0.0699(2) -0.41694(16)
H12A H 0.6587 -0.1105 -0.4683
N1A N 0.7443(2) 0.00232(18) -0.40726(13)
N1A_2 N 0.7443(2) 0.00232(18) 0.59274(13)
N2A N 0.6673(2) 0.08334(18) -0.12660(12)
N3A N 1.8521(2) -0.61738(18) 1.10615(12)
N4A N 0.9201(2) -0.09350(19) 0.41016(13)
N5A N 1.9211(2) -0.82657(18) 1.41227(13)
N5A_2 N 0.9211(2) 0.17343(18) 0.41227(13)
O1A O 1.8861(2) -0.41478(16) 1.07964(11)
O2A O 1.74729(19) -0.79527(15) 1.11060(11)
O3A O 0.6139(2) -0.10898(16) -0.05952(12)
O4A O 0.7752(2) 0.26570(16) -0.15705(12)
S1A S 0.83974(9) -0.26608(7) 0.31788(5)
H14A H 1.570(3) -0.313(2) 0.9867(15)
H15A H 1.088(2) 0.189(2) -0.0530(15)
C24 C 1.2728(3) -0.4869(2) 0.33204(16)
H13 H 1.1677 -0.4326 0.3154
Cl1 Cl 1.42349(8) -0.39887(6) 0.35032(4)
Cl2 Cl 1.21954(10) -0.58785(7) 0.43510(5)
Cl3 Cl 1.36065(9) -0.56744(7) 0.23881(5)
loop_
_geom_bond_atom_site_label_1
_geom_bond_atom_site_label_2
_geom_bond_site_symmetry_1
_geom_bond_site_symmetry_2
Co1 N1 1_555 1_555
C1 C7 1_555 1_555
C2 H1 1_555 1_555
C3 C2 1_555 1_555
C4 C8 1_555 1_555
C5 C12 1_555 1_555
C6 C3 1_555 1_555
H2 C6 1_555 1_555
H3 C6 1_555 1_555
C7 N2 1_555 1_555
C8 C11 1_555 1_555
C9 N4 1_555 1_555
C10 H4 1_555 1_555
C11 C17 1_555 1_555
C12 C1 1_555 1_555
C13 H5 1_555 1_555
C14 C1 1_555 1_555
C15 C3 1_555 1_555
H6 C15 1_555 1_555
C16 H7 1_555 1_555
H8 C16 1_555 1_555
C17 N3 1_555 1_555
C18 C10 1_555 1_555
C19 C13 1_555 1_555
H9 C19 1_555 1_555
C20 C15 1_555 1_555
H10 C20 1_555 1_555
C21 C8 1_555 1_555
C22 C19 1_555 1_555
H11 C22 1_555 1_555
C23 C20 1_555 1_555
H12 C23 1_555 1_555
C24 H13 1_555 1_555
N1 C2 1_555 1_555
N2 C5 1_555 1_555
N3 C16 1_555 1_555
N4 Co1 1_555 1_555
N5 Co1 1_555 1_555
O1 C21 1_555 1_555
O2 C17 1_555 1_555
O3 C5 1_555 1_555
O4 C7 1_555 1_555
S1 C9 1_555 1_555
Cl1 C24 1_555 1_555
Cl2 C24 1_555 1_555
Cl3 C24 1_555 1_555
H14 C4 1_555 1_555
H15 C14 1_555 1_555
Co1_2 N1A 1_555 1_555
Co1_3 N5A 1_555 1_555
C1A C7A 1_555 1_555
C2A H1A 1_555 1_555
C3A C2A 1_555 1_555
C4A C11 1_555 1_555
C5A C12A 1_555 1_555
C6A C3A 1_555 1_555
H2A C6A 1_555 1_555
H3A C6A 1_555 1_555
C7A N2A 1_555 1_555
C8A C4A 1_555 1_555
C9A N4A 1_555 1_555
C10A H4A 1_555 1_555
C11A C4 1_555 1_555
C12A C14 1_555 1_555
C13A H5A 1_555 1_555
C14A C12 1_555 1_555
C15A C3A 1_555 1_555
H6A C15A 1_555 1_555
C16A H7A 1_555 1_555
H8A C16A 1_555 1_555
C17A C11A 1_555 1_555
C18A C10A 1_555 1_555
C19A C13A 1_555 1_555
H9A C19A 1_555 1_555
C20A C15A 1_555 1_555
H10A C20A 1_555 1_555
C21A C8A 1_555 1_555
C22A C19A 1_555 1_555
H11A C22A 1_555 1_555
C23A C20A 1_555 1_555
H12A C23A 1_555 1_555
N1A C2A 1_555 1_555
N1A_2 Co1 1_555 1_555
N2A C5A 1_555 1_555
N3A C16A 1_555 1_555
N4A Co1 1_555 1_555
N5A C10A 1_555 1_555
N5A_2 Co1 1_555 1_555
O1A C21A 1_555 1_555
O2A C17A 1_555 1_555
O3A C5A 1_555 1_555
O4A C7A 1_555 1_555
S1A C9A 1_555 1_555
H14A C4A 1_555 1_555
H15A C14A 1_555 1_555
C6 N2 1_555 1_555
C10 N5 1_555 1_555
C13 C18 1_555 1_555
C16 C18 1_555 1_555
C21 N3 1_555 1_555
C22 N5 1_555 1_555
C23 N1 1_555 1_555
C1A C12A 1_555 1_555
C1A C14A 1_555 1_555
C6A N2A 1_555 1_555
C8A C11A 1_555 1_555
C13A C18A 1_555 1_555
C16A C18A 1_555 1_555
C17A N3A 1_555 1_555
C21A N3A 1_555 1_555
C22A N5A 1_555 1_555
C23A N1A 1_555 1_555

#END
