
#######################################################################
#
#                 Cambridge Crystallographic Data Centre
#                                CCDC 
#
#######################################################################
#
# If this CIF has been generated from an entry in the Cambridge 
# Structural Database, then it will include bibliographic, chemical, 
# crystal, experimental, refinement or atomic coordinate data resulting 
# from the CCDC's data processing and validation procedures.
#
#######################################################################

data_OWIGOR
_symmetry_cell_setting           triclinic
_symmetry_space_group_name_H-M   'P -1'
_symmetry_Int_Tables_number      2
_space_group_name_Hall           '-P 1'
loop_
_symmetry_equiv_pos_site_id
_symmetry_equiv_pos_as_xyz
1 x,y,z
2 -x,-y,-z
_cell_length_a                   9.840(2)
_cell_length_b                   13.250(3)
_cell_length_c                   15.059(3)
_cell_angle_alpha                99.63(3)
_cell_angle_beta                 90.40(3)
_cell_angle_gamma                108.38(3)
_cell_volume                     1833.23
loop_
_atom_site_label
_atom_site_type_symbol
_atom_site_fract_x
_atom_site_fract_y
_atom_site_fract_z
Co1 Co 1.1950(4) 0.3554(3) 0.0047(2)
N1 N 0.998(2) 0.2445(19) 0.0065(16)
C1 C 0.941(2) 0.2035(19) 0.0792(15)
H1 H 0.9863 0.2242 0.1384
Co2 Co 0.6926(3) 0.0486(3) 0.1463(2)
N2 N 0.8138(19) 0.1305(17) 0.0561(12)
C2 C 0.791(4) 0.118(3) -0.0354(19)
H2 H 0.7128 0.0642 -0.0703
Co3 Co 0.1997(3) 0.0585(3) 0.3706(2)
N3 N 1.356(2) 0.106(2) -0.1006(15)
C3 C 0.896(3) 0.192(2) -0.0697(16)
H3 H 0.9009 0.2059 -0.1296
Co4 Co 1.3128(4) 0.6445(3) 0.3798(2)
N4 N 1.316(2) 0.2656(18) -0.0399(13)
C4 C 1.265(2) 0.153(2) -0.0611(19)
H4 H 1.1706 0.1125 -0.0483
N5 N 0.527(2) 0.0890(16) 0.1868(14)
C5 C 1.455(3) 0.288(2) -0.078(2)
H5 H 1.5186 0.3582 -0.0804
N6 N 0.330(2) 0.0900(19) 0.2702(14)
C6 C 1.481(2) 0.196(2) -0.1093(17)
H6 H 1.5682 0.1905 -0.1334
N7 N 1.691(3) 0.862(2) 0.5140(15)
C7 C 0.440(2) 0.051(2) 0.2516(15)
H7 H 0.4553 -0.0016 0.2828
N8 N 1.513(3) 0.743(2) 0.4193(16)
C8 C 0.346(3) 0.160(2) 0.2091(17)
H8 H 0.2838 0.2006 0.2026
N9 N 1.021(2) 0.0887(17) 0.3418(14)
C9 C 0.463(2) 0.164(2) 0.1591(19)
H9 H 0.4963 0.2079 0.1147
N10 N 0.824(2) 0.0824(18) 0.2563(15)
C10 C 1.564(3) 0.782(2) 0.5041(19)
H10 H 1.5139 0.7564 0.5539
N11 N 1.322(2) 0.5545(19) 0.2652(13)
C11 C 1.610(2) 0.808(2) 0.3654(14)
H11 H 1.6046 0.8025 0.3017
N12 N 1.275(3) 0.441(2) 0.1271(16)
C12 C 1.714(2) 0.883(2) 0.4284(15)
H12 H 1.7907 0.9413 0.4137
N13 N 1.194(3) 0.7385(18) 0.3691(15)
C13 C 0.942(3) 0.047(2) 0.2590(16)
H13 H 0.9666 0.0006 0.2110
N14 N 1.156(3) 0.900(2) 0.3695(19)
C14 C 0.830(3) 0.149(2) 0.340(2)
H14 H 0.7631 0.1851 0.3586
N15 N 1.197(2) 0.4522(18) -0.0863(17)
C15 C 0.948(2) 0.153(2) 0.3904(15)
H15 H 0.9759 0.1929 0.4497
N16 N 1.209(2) 0.502(2) -0.2164(16)
C16 C 1.230(3) 0.500(3) 0.1827(15)
H16 H 1.1401 0.5097 0.1727
N17 N 1.257(3) 0.553(2) 0.4764(18)
C17 C 1.407(4) 0.439(3) 0.164(2)
H17 H 1.4656 0.3991 0.1368
N18 N 1.226(3) 0.491(3) 0.5984(19)
C18 C 1.436(2) 0.505(2) 0.2478(16)
H18 H 1.5164 0.5171 0.2878
C19 C 1.246(3) 0.849(2) 0.3916(15)
H19 H 1.3385 0.8866 0.4206
C20 C 1.036(2) 0.817(3) 0.3307(17)
H20 H 0.9483 0.8246 0.3108
C21 C 1.068(3) 0.720(3) 0.326(3)
H21 H 1.0074 0.6514 0.2964
C22 C 1.220(3) 0.432(3) -0.166(2)
H22 H 1.2448 0.3698 -0.1903
C23 C 1.196(3) 0.585(3) -0.1538(19)
H23 H 1.1970 0.6535 -0.1659
C24 C 1.182(3) 0.553(2) -0.066(2)
H24 H 1.1657 0.5914 -0.0104
C25 C 1.226(4) 0.563(3) 0.553(3)
H25 H 1.2021 0.6247 0.5796
C26 C 1.245(6) 0.411(4) 0.538(3)
H26 H 1.2455 0.3430 0.5496
C27 C 1.262(4) 0.442(3) 0.463(2)
H27 H 1.2765 0.4013 0.4083
H28 H 1.2182 0.4847 0.6719
Co2A Co 1.3074(3) -0.0486(3) -0.1463(2)
Co3A Co 1.8003(3) 0.9415(3) 0.6294(2)
Co3_2 Co 1.1997(3) 0.0585(3) 0.3706(2)
Co3_3 Co 1.1997(3) 1.0585(3) 0.3706(2)
N3A N 0.644(2) -0.106(2) 0.1006(15)
N7A N 0.309(3) 0.138(2) 0.4860(15)
N9_2 N 0.021(2) 0.0887(17) 0.3418(14)
N14_2 N 0.156(3) -0.100(2) 0.3695(19)
loop_
_geom_bond_atom_site_label_1
_geom_bond_atom_site_label_2
_geom_bond_site_symmetry_1
_geom_bond_site_symmetry_2
Co1 N1 1_555 1_555
N1 C1 1_555 1_555
C1 H1 1_555 1_555
Co2 N2 1_555 1_555
N2 C1 1_555 1_555
C2 N2 1_555 1_555
H2 C2 1_555 1_555
Co3 N6 1_555 1_555
N3 C4 1_555 1_555
C3 N1 1_555 1_555
H3 C3 1_555 1_555
Co4 N8 1_555 1_555
N4 Co1 1_555 1_555
C4 N4 1_555 1_555
H4 C4 1_555 1_555
N5 Co2 1_555 1_555
C5 N4 1_555 1_555
H5 C5 1_555 1_555
N6 C7 1_555 1_555
C6 N3 1_555 1_555
H6 C6 1_555 1_555
N7 C10 1_555 1_555
C7 N5 1_555 1_555
H7 C7 1_555 1_555
N8 C10 1_555 1_555
C8 N6 1_555 1_555
H8 C8 1_555 1_555
N9 C13 1_555 1_555
C9 N5 1_555 1_555
H9 C9 1_555 1_555
N10 Co2 1_555 1_555
C10 H10 1_555 1_555
N11 Co4 1_555 1_555
C11 N8 1_555 1_555
H11 C11 1_555 1_555
N12 Co1 1_555 1_555
C12 N7 1_555 1_555
H12 C12 1_555 1_555
N13 Co4 1_555 1_555
C13 N10 1_555 1_555
H13 C13 1_555 1_555
N14 C19 1_555 1_555
C14 N10 1_555 1_555
H14 C14 1_555 1_555
N15 Co1 1_555 1_555
C15 N9 1_555 1_555
H15 C15 1_555 1_555
N16 C22 1_555 1_555
C16 N11 1_555 1_555
H16 C16 1_555 1_555
N17 Co4 1_555 1_555
C17 N12 1_555 1_555
H17 C17 1_555 1_555
N18 C25 1_555 1_555
C18 N11 1_555 1_555
H18 C18 1_555 1_555
C19 N13 1_555 1_555
H19 C19 1_555 1_555
C20 N14 1_555 1_555
H20 C20 1_555 1_555
C21 N13 1_555 1_555
H21 C21 1_555 1_555
C22 N15 1_555 1_555
H22 C22 1_555 1_555
C23 N16 1_555 1_555
H23 C23 1_555 1_555
C24 N15 1_555 1_555
H24 C24 1_555 1_555
C25 N17 1_555 1_555
H25 C25 1_555 1_555
C26 N18 1_555 1_555
H26 C26 1_555 1_555
C27 N17 1_555 1_555
H27 C27 1_555 1_555
H28 N18 1_555 1_555
Co2A N3 1_555 1_555
Co3A N7 1_555 1_555
Co3_2 N9 1_555 1_555
Co3_3 N14 1_555 1_555
N3A Co2 1_555 1_555
N7A Co3 1_555 1_555
N9_2 Co3 1_555 1_555
N14_2 Co3 1_555 1_555
C2 C3 1_555 1_555
C5 C6 1_555 1_555
C8 C9 1_555 1_555
C11 C12 1_555 1_555
N12 C16 1_555 1_555
C14 C15 1_555 1_555
C17 C18 1_555 1_555
C20 C21 1_555 1_555
C23 C24 1_555 1_555
C26 C27 1_555 1_555

#END
