
#######################################################################
#
#                 Cambridge Crystallographic Data Centre
#                                CCDC 
#
#######################################################################
#
# If this CIF has been generated from an entry in the Cambridge 
# Structural Database, then it will include bibliographic, chemical, 
# crystal, experimental, refinement or atomic coordinate data resulting 
# from the CCDC's data processing and validation procedures.
#
#######################################################################

data_OWOKOB
_symmetry_cell_setting           monoclinic
_symmetry_space_group_name_H-M   'P 21/n'
_symmetry_Int_Tables_number      14
_space_group_name_Hall           '-P 2yn'
loop_
_symmetry_equiv_pos_site_id
_symmetry_equiv_pos_as_xyz
1 x,y,z
2 1/2-x,1/2+y,1/2-z
3 -x,-y,-z
4 1/2+x,1/2-y,1/2+z
_cell_length_a                   6.1788(12)
_cell_length_b                   9.6876(19)
_cell_length_c                   16.990(3)
_cell_angle_alpha                90
_cell_angle_beta                 91.98(3)
_cell_angle_gamma                90
_cell_volume                     1016.38
loop_
_atom_site_label
_atom_site_type_symbol
_atom_site_fract_x
_atom_site_fract_y
_atom_site_fract_z
Eu1 Eu 0.111234(17) -0.180014(11) 0.566117(7)
O1 O 0.3316(3) 0.00137(17) 0.62935(11)
O2 O 0.4967(3) -0.2104(2) 0.56779(12)
O3 O 0.7961(3) -0.21247(19) 0.64379(11)
O4 O 0.3102(3) -0.2673(2) 0.82533(12)
O5 O 0.2194(3) -0.2528(2) 0.69866(12)
O6 O 0.7356(3) 0.23777(19) 0.57085(12)
O7 O 0.8699(3) 0.03121(18) 0.55509(11)
O8 O -0.1692(3) -0.2837(2) 0.47967(12)
O9 O 0.1728(4) -0.4273(2) 0.56790(14)
C1 C 0.5253(4) -0.0428(2) 0.67125(14)
C2 C 0.6132(4) -0.1640(2) 0.62377(16)
C3 C 0.4744(4) -0.0892(3) 0.75442(15)
H1 H 0.4116 -0.0120 0.7820
H2 H 0.6092 -0.1131 0.7821
C4 C 0.3212(4) -0.2113(3) 0.75853(16)
C5 C 0.6933(4) 0.0750(2) 0.67661(15)
H3 H 0.8172 0.0448 0.7087
H4 H 0.6298 0.1537 0.7025
C6 C 0.7692(4) 0.1194(2) 0.59709(15)
H5 H 0.295(5) 0.0754(18) 0.6506(17)
H6 H -0.294(3) -0.262(3) 0.4951(14)
H7 H -0.170(4) -0.281(3) 0.4296(6)
H8 H 0.290(3) -0.449(3) 0.5929(14)
H9 H 0.151(4) -0.483(2) 0.5304(12)
Eu1_2 Eu 1.111234(17) -0.180014(11) 0.566117(7)
Eu1B Eu 0.888766(17) 0.180014(11) 0.433883(7)
O3_2 O -0.2039(3) -0.21247(19) 0.64379(11)
O6B O 0.2644(3) -0.23777(19) 0.42915(12)
O7B O 0.1301(3) -0.03121(18) 0.44491(11)
O7_2 O -0.1301(3) 0.03121(18) 0.55509(11)
O10 O 0.5616(5) -0.5123(3) 0.6300(2)
H10 H 0.634(4) -0.473(2) 0.5933(15)
H11 H 0.597(4) -0.5981(11) 0.6268(17)
loop_
_geom_bond_atom_site_label_1
_geom_bond_atom_site_label_2
_geom_bond_site_symmetry_1
_geom_bond_site_symmetry_2
Eu1 O1 1_555 1_555
O1 C1 1_555 1_555
O2 Eu1 1_555 1_555
O3 C2 1_555 1_555
O4 C4 1_555 1_555
O5 Eu1 1_555 1_555
O6 C6 1_555 1_555
O7 C6 1_555 1_555
O8 Eu1 1_555 1_555
O9 Eu1 1_555 1_555
O10 H10 1_555 1_555
C1 C2 1_555 1_555
C2 O2 1_555 1_555
C3 C1 1_555 1_555
H1 C3 1_555 1_555
H2 C3 1_555 1_555
C4 O5 1_555 1_555
C5 C1 1_555 1_555
H3 C5 1_555 1_555
H4 C5 1_555 1_555
C6 C5 1_555 1_555
H5 O1 1_555 1_555
H6 O8 1_555 1_555
H7 O8 1_555 1_555
H8 O9 1_555 1_555
H9 O9 1_555 1_555
H11 O10 1_555 1_555
Eu1_2 O3 1_555 1_555
Eu1B O6 1_555 1_555
O3_2 Eu1 1_555 1_555
O6B Eu1 1_555 1_555
O7B Eu1 1_555 1_555
O7_2 Eu1 1_555 1_555
O7 Eu1_2 1_555 1_555
O7 Eu1B 1_555 1_555
C3 C4 1_555 1_555

#END
