
#######################################################################
#
#                 Cambridge Crystallographic Data Centre
#                                CCDC 
#
#######################################################################
#
# If this CIF has been generated from an entry in the Cambridge 
# Structural Database, then it will include bibliographic, chemical, 
# crystal, experimental, refinement or atomic coordinate data resulting 
# from the CCDC's data processing and validation procedures.
#
#######################################################################

data_OWOKUH
_symmetry_cell_setting           monoclinic
_symmetry_space_group_name_H-M   'P 21/c'
_symmetry_Int_Tables_number      14
_space_group_name_Hall           '-P 2ybc'
loop_
_symmetry_equiv_pos_site_id
_symmetry_equiv_pos_as_xyz
1 x,y,z
2 -x,1/2+y,1/2-z
3 -x,-y,-z
4 x,1/2-y,1/2+z
_cell_length_a                   9.8799(4)
_cell_length_b                   12.0430(6)
_cell_length_c                   15.4269(9)
_cell_angle_alpha                90
_cell_angle_beta                 95.424(5)
_cell_angle_gamma                90
_cell_volume                     1827.33
loop_
_atom_site_label
_atom_site_type_symbol
_atom_site_fract_x
_atom_site_fract_y
_atom_site_fract_z
N1 N 0.7677(3) 0.0893(2) 0.05345(19)
C1 C 0.8898(4) 0.1307(3) 0.0398(3)
H1 H 0.9663 0.1013 0.0713
C2 C 0.6613(4) 0.1333(3) 0.0060(3)
H2 H 0.5752 0.1061 0.0136
C3 C 0.9073(4) 0.2148(3) -0.0186(3)
H3 H 0.9943 0.2408 -0.0254
C4 C 0.6722(4) 0.2173(3) -0.0539(3)
H4 H 0.5945 0.2445 -0.0856
C5 C 0.7968(4) 0.2607(3) -0.0670(3)
O1 O 1.6172(2) 0.9425(3) 0.22804(19)
C6 C 1.5067(4) 0.9900(4) 0.2032(3)
Zn1 Zn 0.75295(4) 0.96747(3) 0.14563(3)
S1 S 1.22811(9) 1.00062(8) 0.20059(6)
O2 O 0.9375(2) 0.9782(2) 0.19760(18)
N2 N 0.7275(3) 0.8213(2) 0.07756(19)
C7 C 0.9925(3) 0.8990(3) 0.2447(2)
C8 C 1.1425(3) 0.9041(3) 0.2565(2)
C9 C 1.3823(3) 0.9453(3) 0.2378(2)
O3 O 0.9322(3) 0.8239(2) 0.2768(2)
C10 C 1.3675(4) 0.8570(3) 0.2911(3)
H5 H 1.4401 0.8163 0.3173
C11 C 0.7231(4) 0.7268(3) 0.1218(3)
H6 H 0.7303 0.7302 0.1823
C12 C 0.7172(4) 0.8130(3) -0.0092(3)
H7 H 0.7196 0.8780 -0.0416
O4 O 1.4965(3) 1.0648(4) 0.1507(3)
C13 C 0.7032(4) 0.7130(3) -0.0535(2)
H8 H 0.6974 0.7115 -0.1140
C14 C 0.6980(4) 0.6153(3) -0.0069(2)
C15 C 0.8207(4) 0.4677(3) -0.0810(3)
H9 H 0.8882 0.4636 -0.0312
H10 H 0.8504 0.5238 -0.1202
C16 C 1.2305(4) 0.8339(3) 0.3021(3)
H11 H 1.2030 0.7767 0.3370
C17 C 0.7083(4) 0.6245(3) 0.0829(3)
H12 H 0.7053 0.5611 0.1171
C18 C 0.6860(4) 0.5039(3) -0.0500(3)
H13 H 0.6174 0.5071 -0.0993
H14 H 0.6570 0.4496 -0.0091
C19 C 0.8147(5) 0.3557(3) -0.1277(3)
H15 H 0.7396 0.3562 -0.1730
H16 H 0.8979 0.3450 -0.1553
N1_2 N 0.7677(3) 1.0893(2) 0.05345(19)
O1_2 O 0.6172(2) 0.9425(3) 0.22804(19)
Zn1_2 Zn 0.75295(4) -0.03253(3) 0.14563(3)
Zn1_3 Zn 1.75295(4) 0.96747(3) 0.14563(3)
loop_
_geom_bond_atom_site_label_1
_geom_bond_atom_site_label_2
_geom_bond_site_symmetry_1
_geom_bond_site_symmetry_2
N1 C1 1_555 1_555
C1 H1 1_555 1_555
C2 N1 1_555 1_555
H2 C2 1_555 1_555
C3 C1 1_555 1_555
H3 C3 1_555 1_555
C4 C2 1_555 1_555
H4 C4 1_555 1_555
C5 C3 1_555 1_555
O1 C6 1_555 1_555
C6 C9 1_555 1_555
Zn1 O2 1_555 1_555
S1 C8 1_555 1_555
O2 C7 1_555 1_555
N2 Zn1 1_555 1_555
C7 C8 1_555 1_555
C8 C16 1_555 1_555
C9 S1 1_555 1_555
O3 C7 1_555 1_555
C10 C9 1_555 1_555
H5 C10 1_555 1_555
C11 N2 1_555 1_555
H6 C11 1_555 1_555
C12 N2 1_555 1_555
H7 C12 1_555 1_555
O4 C6 1_555 1_555
C13 C12 1_555 1_555
H8 C13 1_555 1_555
C14 C13 1_555 1_555
C15 H9 1_555 1_555
H10 C15 1_555 1_555
C16 C10 1_555 1_555
H11 C16 1_555 1_555
C17 C11 1_555 1_555
H12 C17 1_555 1_555
C18 C14 1_555 1_555
H13 C18 1_555 1_555
H14 C18 1_555 1_555
C19 C5 1_555 1_555
H15 C19 1_555 1_555
H16 C19 1_555 1_555
N1_2 Zn1 1_555 1_555
O1_2 Zn1 1_555 1_555
Zn1_2 N1 1_555 1_555
Zn1_3 O1 1_555 1_555
C4 C5 1_555 1_555
C14 C17 1_555 1_555
C15 C18 1_555 1_555
C15 C19 1_555 1_555

#END
