
#######################################################################
#
#                 Cambridge Crystallographic Data Centre
#                                CCDC 
#
#######################################################################
#
# If this CIF has been generated from an entry in the Cambridge 
# Structural Database, then it will include bibliographic, chemical, 
# crystal, experimental, refinement or atomic coordinate data resulting 
# from the CCDC's data processing and validation procedures.
#
#######################################################################

data_OWUFUI
_symmetry_cell_setting           monoclinic
_symmetry_space_group_name_H-M   'P 21/c'
_symmetry_Int_Tables_number      14
_space_group_name_Hall           '-P 2ybc'
loop_
_symmetry_equiv_pos_site_id
_symmetry_equiv_pos_as_xyz
1 x,y,z
2 -x,1/2+y,1/2-z
3 -x,-y,-z
4 x,1/2-y,1/2+z
_cell_length_a                   9.795(2)
_cell_length_b                   12.732(3)
_cell_length_c                   14.262(3)
_cell_angle_alpha                90
_cell_angle_beta                 95.68(3)
_cell_angle_gamma                90
_cell_volume                     1769.88
loop_
_atom_site_label
_atom_site_type_symbol
_atom_site_fract_x
_atom_site_fract_y
_atom_site_fract_z
Cu1 Cu 0.57919(3) 0.27623(3) 0.36067(2)
C1 C 0.5522(3) -0.1876(2) 0.41543(17)
C2 C 0.5370(3) -0.0801(2) 0.40039(17)
H1 H 0.4502 -0.0518 0.3847
C3 C 0.6510(3) -0.0151(2) 0.40880(17)
C4 C 0.7805(3) -0.0568(2) 0.43225(17)
H2 H 0.8568 -0.0130 0.4379
C5 C 0.7963(3) -0.1651(2) 0.44748(17)
C6 C 0.6818(3) -0.2298(2) 0.43931(17)
H3 H 0.6919 -0.3016 0.4498
C7 C 0.6297(3) 0.1000(2) 0.39190(17)
C8 C 0.9349(3) -0.2145(2) 0.46969(19)
C9 C -0.1902(3) 0.3880(2) 0.28766(19)
H4 H -0.1413 0.3266 0.2797
C10 C -0.3396(3) 0.4975(2) 0.3182(2)
H5 H -0.4196 0.5258 0.3377
C11 C 0.2809(3) 0.2918(2) 0.30287(19)
H6 H 0.2835 0.2272 0.2727
C12 C 0.3473(3) 0.4286(2) 0.37790(18)
H7 H 0.4005 0.4797 0.4107
C13 C 0.1183(3) 0.5161(2) 0.38110(19)
H8 H 0.1652 0.5627 0.4274
H9 H 0.0403 0.4860 0.4084
C14 C 0.0675(3) 0.5789(2) 0.29412(19)
H10 H 0.1461 0.6023 0.2633
H11 H 0.0202 0.6409 0.3136
C15 C -0.0284(3) 0.5183(2) 0.2235(2)
H12 H -0.0549 0.5626 0.1695
H13 H 0.0194 0.4576 0.2018
N1 N 0.3948(2) 0.34121(17) 0.34233(15)
N2 N 0.2116(2) 0.43183(17) 0.35935(15)
N3 N 0.1665(2) 0.34328(18) 0.31102(16)
N4 N -0.3100(2) 0.39358(17) 0.32375(15)
N5 N -0.1514(2) 0.48338(18) 0.26489(15)
N6 N -0.2468(3) 0.5540(2) 0.2835(2)
O1 O 0.41980(18) -0.34404(14) 0.47978(12)
O2 O 0.4137(2) -0.32310(15) 0.31097(12)
O3 O 0.28727(19) -0.20194(14) 0.40227(13)
O4 O 0.50810(18) 0.13500(14) 0.38340(12)
O5 O 0.72823(18) 0.16296(14) 0.38567(12)
O6 O 1.0348(2) -0.14531(16) 0.46496(17)
H14 H 1.1087 -0.1733 0.4812
O7 O 0.9525(2) -0.30641(15) 0.48545(15)
S1 S 0.40557(7) -0.27045(5) 0.40082(4)
Cu1_2 Cu -0.42081(3) 0.27623(3) 0.36067(2)
Cu1B Cu 0.42081(3) -0.27623(3) 0.63933(2)
Cu1A Cu 0.42081(3) -0.22377(3) 0.13933(2)
N4_2 N 0.6900(2) 0.39358(17) 0.32375(15)
O1B O 0.58020(18) 0.34404(14) 0.52022(12)
O2A O 0.5863(2) 0.17690(15) 0.18903(12)
loop_
_geom_bond_atom_site_label_1
_geom_bond_atom_site_label_2
_geom_bond_site_symmetry_1
_geom_bond_site_symmetry_2
Cu1 N1 1_555 1_555
C1 C2 1_555 1_555
C2 H1 1_555 1_555
C3 C2 1_555 1_555
C4 C3 1_555 1_555
H2 C4 1_555 1_555
C5 C4 1_555 1_555
C6 C1 1_555 1_555
H3 C6 1_555 1_555
C7 C3 1_555 1_555
C8 C5 1_555 1_555
C9 H4 1_555 1_555
C10 H5 1_555 1_555
C11 H6 1_555 1_555
C12 H7 1_555 1_555
C13 H8 1_555 1_555
H9 C13 1_555 1_555
C14 C13 1_555 1_555
H10 C14 1_555 1_555
H11 C14 1_555 1_555
C15 C14 1_555 1_555
H12 C15 1_555 1_555
H13 C15 1_555 1_555
N1 C11 1_555 1_555
N2 C12 1_555 1_555
N3 C11 1_555 1_555
N4 C9 1_555 1_555
N5 C9 1_555 1_555
N6 C10 1_555 1_555
O1 S1 1_555 1_555
O2 S1 1_555 1_555
O3 S1 1_555 1_555
O4 Cu1 1_555 1_555
O5 Cu1 1_555 1_555
O6 C8 1_555 1_555
H14 O6 1_555 1_555
O7 C8 1_555 1_555
S1 C1 1_555 1_555
Cu1_2 N4 1_555 1_555
Cu1B O1 1_555 1_555
Cu1A O2 1_555 1_555
N4_2 Cu1 1_555 1_555
O1B Cu1 1_555 1_555
O2A Cu1 1_555 1_555
C5 C6 1_555 1_555
C7 O4 1_555 1_555
C7 O5 1_555 1_555
C10 N4 1_555 1_555
C12 N1 1_555 1_555
C13 N2 1_555 1_555
C15 N5 1_555 1_555
N2 N3 1_555 1_555
N5 N6 1_555 1_555

#END
