
#######################################################################
#
#                 Cambridge Crystallographic Data Centre
#                                CCDC 
#
#######################################################################
#
# If this CIF has been generated from an entry in the Cambridge 
# Structural Database, then it will include bibliographic, chemical, 
# crystal, experimental, refinement or atomic coordinate data resulting 
# from the CCDC's data processing and validation procedures.
#
#######################################################################

data_OXALUV
_symmetry_cell_setting           monoclinic
_symmetry_space_group_name_H-M   'C 2/c'
_symmetry_Int_Tables_number      15
_space_group_name_Hall           '-C 2yn'
loop_
_symmetry_equiv_pos_site_id
_symmetry_equiv_pos_as_xyz
1 x,y,z
2 -x,y,1/2-z
3 1/2+x,1/2+y,z
4 1/2-x,1/2+y,1/2-z
5 -x,-y,-z
6 x,-y,1/2+z
7 1/2-x,1/2-y,-z
8 1/2+x,1/2-y,1/2+z
_cell_length_a                   19.651(5)
_cell_length_b                   38.598(8)
_cell_length_c                   21.519(5)
_cell_angle_alpha                90
_cell_angle_beta                 117.068(4)
_cell_angle_gamma                90
_cell_volume                     14534.1
loop_
_atom_site_label
_atom_site_type_symbol
_atom_site_fract_x
_atom_site_fract_y
_atom_site_fract_z
In1 In 0.5000 0.108707(11) 0.7500
O1 O -0.0611(4) 0.20189(12) 0.3953(3)
C1 C -0.0956(2) 0.15045(12) 0.4334(2)
In2 In 0.478785(19) 0.079582(8) 0.581629(16)
O2 O -0.1885(4) 0.14770(19) 0.4722(4)
C2 C -0.0773(4) 0.1914(2) 0.4469(3)
H1 H -0.1221 0.2040 0.4448
H2 H -0.0331 0.1953 0.4931
In3 In -0.5000 0.0000 0.5000
O3 O -0.1846(3) 0.11298(14) 0.3465(2)
C3 C -0.0504(5) 0.23754(16) 0.3929(5)
O4 O 0.0288(3) 0.13493(16) 0.5126(3)
C4 C -0.0470(7) 0.2471(2) 0.3364(5)
H3 H -0.0520 0.2305 0.3019
O5 O 0.0098(2) 0.36455(9) 0.41303(19)
C5 C -0.0360(6) 0.28253(17) 0.3269(4)
H4 H -0.0361 0.2898 0.2847
O6 O -0.0244(3) 0.34950(10) 0.3024(2)
C6 C -0.0251(4) 0.30665(13) 0.3776(3)
O7 O -0.4159(2) 0.08301(10) 0.5723(2)
C7 C -0.0278(5) 0.29686(16) 0.4355(4)
H5 H -0.0203 0.3133 0.4710
O8 O -0.4099(2) 0.03695(10) 0.5142(2)
C8 C -0.0425(5) 0.26081(19) 0.4441(4)
H6 H -0.0466 0.2534 0.4843
O9 O -0.4186(2) 0.03291(9) 0.08041(18)
C9 C -0.0121(3) 0.34285(12) 0.3643(3)
O10 O -0.4198(3) 0.08412(10) 0.03021(19)
C10 C -0.1228(5) 0.1342(2) 0.4840(5)
H7 H -0.1281 0.1088 0.4769
H8 H -0.0847 0.1387 0.5329
O11 O 0.3649(2) 0.08603(10) 0.5724(2)
C11 C -0.2241(7) 0.1172(4) 0.4966(6)
O12 O 0.3820(2) 0.11090(12) 0.6717(2)
C12 C -0.2628(8) 0.1348(3) 0.5211(6)
H9 H -0.2525 0.1589 0.5299
O13 O 0.52821(19) 0.07402(9) 0.69066(16)
C13 C -0.3195(6) 0.1194(2) 0.5351(6)
H10 H -0.3477 0.1329 0.5524
O14 O 0.47772(19) 0.02453(8) 0.57464(17)
C14 C -0.3327(4) 0.08560(18) 0.5235(4)
C15 C -0.2909(5) 0.0679(3) 0.4970(6)
H11 H -0.2994 0.0438 0.4878
C16 C -0.2370(7) 0.0843(4) 0.4835(6)
H12 H -0.2092 0.0717 0.4647
C17 C -0.3912(3) 0.06689(14) 0.5384(3)
C18 C -0.1581(4) 0.14603(18) 0.3570(4)
H13 H -0.2007 0.1623 0.3475
H14 H -0.1365 0.1515 0.3246
C19 C -0.2382(4) 0.10449(18) 0.2806(3)
C20 C -0.2612(5) 0.12391(19) 0.2224(4)
H15 H -0.2409 0.1465 0.2252
C21 C -0.3154(5) 0.11077(18) 0.1574(4)
H16 H -0.3331 0.1253 0.1174
C22 C -0.3427(3) 0.07801(13) 0.1506(3)
C23 C -0.3184(4) 0.05825(17) 0.2101(3)
H17 H -0.3379 0.0354 0.2070
C24 C -0.2650(4) 0.07117(19) 0.2757(3)
H18 H -0.2478 0.0570 0.3161
C25 C -0.3978(3) 0.06386(13) 0.0818(2)
C26 C -0.0160(5) 0.13192(17) 0.4444(3)
H19 H -0.0245 0.1073 0.4301
H20 H 0.0064 0.1440 0.4174
C27 C 0.1273(5) 0.1126(2) 0.4881(4)
H21 H 0.0905 0.1099 0.4407
C28 C 0.2101(4) 0.1025(2) 0.5124(4)
H22 H 0.2269 0.0925 0.4814
C29 C 0.2589(3) 0.10843(15) 0.5803(3)
C30 C 0.2293(4) 0.1223(2) 0.6232(5)
H23 H 0.2626 0.1254 0.6714
C31 C 0.1538(4) 0.1316(3) 0.5980(5)
H24 H 0.1359 0.1427 0.6273
C32 C 0.1081(4) 0.12491(18) 0.5339(4)
C33 C 0.3418(3) 0.10136(14) 0.6107(3)
In1F In 0.0000 0.391293(11) 0.2500
In1F_2 In 1.0000 0.391293(11) 1.2500
O1A O 1.0611(4) 0.20189(12) 1.1047(3)
C1A C 1.0956(2) 0.15045(12) 1.0666(2)
In2A In 0.521215(19) 0.079582(8) 0.918371(16)
In2F In 0.021215(19) 0.420418(8) 0.418371(16)
In2_2 In -0.521215(19) 0.079582(8) 0.581629(16)
In2A_2 In -0.478785(19) 0.079582(8) -0.081629(16)
In2G In 0.978785(19) 0.420418(8) 1.081629(16)
In2A_3 In 1.521215(19) 0.079582(8) 0.918371(16)
In2_3 In 1.478785(19) 0.079582(8) 1.581629(16)
O2A O 1.1885(4) 0.14770(19) 1.0278(4)
C2A C 1.0773(4) 0.1914(2) 1.0531(3)
H1A H 1.1221 0.2040 1.0552
H2A H 1.0331 0.1953 1.0069
In3A In -0.5000 0.0000 0.0000
In3_2 In 0.5000 0.0000 0.5000
In3A_2 In 1.5000 0.0000 1.0000
In3_3 In 1.5000 0.0000 1.5000
O3A O 1.1846(3) 0.11298(14) 1.1535(2)
C3A C 1.0504(5) 0.23754(16) 1.1071(5)
O4A O 0.9712(3) 0.13493(16) 0.9874(3)
C4A C 1.0470(7) 0.2471(2) 1.1636(5)
H3A H 1.0520 0.2305 1.1981
O5A O 0.9902(2) 0.36455(9) 1.08697(19)
O5F O 0.4902(2) 0.13545(9) 0.58697(19)
O5G O 0.5098(2) 0.13545(9) 0.91303(19)
C5A C 1.0360(6) 0.28253(17) 1.1731(4)
H4A H 1.0361 0.2898 1.2153
O6A O 1.0244(3) 0.34950(10) 1.1976(2)
O6F O 0.5244(3) 0.15050(10) 0.6976(2)
O6G O 0.4756(3) 0.15050(10) 0.8024(2)
C6A C 1.0251(4) 0.30665(13) 1.1224(3)
O7A O 1.4159(2) 0.08301(10) 0.9277(2)
O7_2 O 0.5841(2) 0.08301(10) 0.5723(2)
O7A_2 O 0.4159(2) 0.08301(10) 0.9277(2)
C7A C 1.0278(5) 0.29686(16) 1.0645(4)
H5A H 1.0203 0.3133 1.0290
O8A O 1.4099(2) 0.03695(10) 0.9858(2)
O8D O -0.5901(2) -0.03695(10) 0.4858(2)
C8A C 1.0425(5) 0.26081(19) 1.0559(4)
H6A H 1.0466 0.2534 1.0157
O9A O 1.4186(2) 0.03291(9) 1.41959(18)
O9A_2 O -0.5814(2) 0.03291(9) 0.41959(18)
O9E O -0.4186(2) -0.03291(9) 0.58041(18)
C9A C 1.0121(3) 0.34285(12) 1.1357(3)
O10A O 1.4198(3) 0.08412(10) 1.46979(19)
O10A_2 O 0.4198(3) 0.08412(10) 0.46979(19)
O10_2 O 0.5802(3) 0.08412(10) 1.03021(19)
C10A C 1.1228(5) 0.1342(2) 1.0160(5)
H7A H 1.1281 0.1088 1.0231
H8A H 1.0847 0.1387 0.9671
O11A O 0.6351(2) 0.08603(10) 0.9276(2)
C11A C 1.2241(7) 0.1172(4) 1.0034(6)
O12A O 0.6180(2) 0.11090(12) 0.8283(2)
C12A C 1.2628(8) 0.1348(3) 0.9789(6)
H9A H 1.2525 0.1589 0.9701
O13A O 0.47179(19) 0.07402(9) 0.80934(16)
C13A C 1.3195(6) 0.1194(2) 0.9649(6)
H10A H 1.3477 0.1329 0.9476
O14_2 O -0.52228(19) 0.02453(8) 0.57464(17)
O14D O -0.47772(19) -0.02453(8) 0.42536(17)
O14A O 0.52228(19) 0.02453(8) 0.92536(17)
C14A C 1.3327(4) 0.08560(18) 0.9765(4)
C15A C 1.2909(5) 0.0679(3) 1.0030(6)
H11A H 1.2994 0.0438 1.0122
C16A C 1.2370(7) 0.0843(4) 1.0165(6)
H12A H 1.2092 0.0717 1.0353
C17A C 1.3912(3) 0.06689(14) 0.9616(3)
C18A C 1.1581(4) 0.14603(18) 1.1430(4)
H13A H 1.2007 0.1623 1.1525
H14A H 1.1365 0.1515 1.1754
C19A C 1.2382(4) 0.10449(18) 1.2194(3)
C20A C 1.2612(5) 0.12391(19) 1.2776(4)
H15A H 1.2409 0.1465 1.2748
C21A C 1.3154(5) 0.11077(18) 1.3426(4)
H16A H 1.3331 0.1253 1.3826
C22A C 1.3427(3) 0.07801(13) 1.3494(3)
C23A C 1.3184(4) 0.05825(17) 1.2899(3)
H17A H 1.3379 0.0354 1.2930
C24A C 1.2650(4) 0.07117(19) 1.2243(3)
H18A H 1.2478 0.0570 1.1839
C25A C 1.3978(3) 0.06386(13) 1.4182(2)
C26A C 1.0160(5) 0.13192(17) 1.0556(3)
H19A H 1.0245 0.1073 1.0699
H20A H 0.9936 0.1440 1.0826
C27A C 0.8727(5) 0.1126(2) 1.0119(4)
H21A H 0.9095 0.1099 1.0593
C28A C 0.7899(4) 0.1025(2) 0.9876(4)
H22A H 0.7731 0.0925 1.0186
C29A C 0.7411(3) 0.10843(15) 0.9197(3)
C30A C 0.7707(4) 0.1223(2) 0.8768(5)
H23A H 0.7374 0.1254 0.8286
C31A C 0.8462(4) 0.1316(3) 0.9020(5)
H24A H 0.8641 0.1427 0.8727
C32A C 0.8919(4) 0.12491(18) 0.9661(4)
C33A C 0.6582(3) 0.10136(14) 0.8893(3)
loop_
_geom_bond_atom_site_label_1
_geom_bond_atom_site_label_2
_geom_bond_site_symmetry_1
_geom_bond_site_symmetry_2
In1 O12 1_555 1_555
O1 C2 1_555 1_555
C1 C2 1_555 1_555
In2 O11 1_555 1_555
O2 C10 1_555 1_555
C2 H1 1_555 1_555
H2 C2 1_555 1_555
In3 O8 1_555 1_555
O3 C18 1_555 1_555
C3 O1 1_555 1_555
O4 C26 1_555 1_555
C4 C3 1_555 1_555
H3 C4 1_555 1_555
O5 C9 1_555 1_555
C5 C4 1_555 1_555
H4 C5 1_555 1_555
O6 C9 1_555 1_555
C6 C5 1_555 1_555
O7 C17 1_555 1_555
C7 C6 1_555 1_555
H5 C7 1_555 1_555
O8 C17 1_555 1_555
C8 C3 1_555 1_555
H6 C8 1_555 1_555
O9 C25 1_555 1_555
C9 C6 1_555 1_555
O10 C25 1_555 1_555
C10 C1 1_555 1_555
H7 C10 1_555 1_555
H8 C10 1_555 1_555
O11 C33 1_555 1_555
C11 O2 1_555 1_555
O12 C33 1_555 1_555
C12 C11 1_555 1_555
H9 C12 1_555 1_555
O13 In1 1_555 1_555
C13 C12 1_555 1_555
H10 C13 1_555 1_555
O14 In2 1_555 1_555
C14 C13 1_555 1_555
C15 C14 1_555 1_555
H11 C15 1_555 1_555
C16 C11 1_555 1_555
H12 C16 1_555 1_555
C17 C14 1_555 1_555
C18 C1 1_555 1_555
H13 C18 1_555 1_555
H14 C18 1_555 1_555
C19 O3 1_555 1_555
C20 C19 1_555 1_555
H15 C20 1_555 1_555
C21 C20 1_555 1_555
H16 C21 1_555 1_555
C22 C21 1_555 1_555
C23 C22 1_555 1_555
H17 C23 1_555 1_555
C24 C19 1_555 1_555
H18 C24 1_555 1_555
C25 C22 1_555 1_555
C26 C1 1_555 1_555
H19 C26 1_555 1_555
H20 C26 1_555 1_555
C27 H21 1_555 1_555
C28 C27 1_555 1_555
H22 C28 1_555 1_555
C29 C28 1_555 1_555
C30 C29 1_555 1_555
H23 C30 1_555 1_555
C31 C30 1_555 1_555
H24 C31 1_555 1_555
C32 O4 1_555 1_555
C33 C29 1_555 1_555
In1F O6 1_555 1_555
In1F_2 O6A 1_555 1_555
O1A C2A 1_555 1_555
C1A C2A 1_555 1_555
In2A O5G 1_555 1_555
In2F O5 1_555 1_555
In2_2 O7 1_555 1_555
In2A_2 O10 1_555 1_555
In2G O5A 1_555 1_555
In2A_3 O7A 1_555 1_555
In2_3 O10A 1_555 1_555
O2A C10A 1_555 1_555
C2A H1A 1_555 1_555
H2A C2A 1_555 1_555
In3A O9 1_555 1_555
In3_2 O14 1_555 1_555
In3A_2 O8A 1_555 1_555
In3_3 O9A 1_555 1_555
O3A C18A 1_555 1_555
C3A O1A 1_555 1_555
O4A C26A 1_555 1_555
C4A C3A 1_555 1_555
H3A C4A 1_555 1_555
O5A C9A 1_555 1_555
O5F In2 1_555 1_555
C5A C4A 1_555 1_555
H4A C5A 1_555 1_555
O6A C9A 1_555 1_555
O6F In1 1_555 1_555
O6G In1 1_555 1_555
C6A C5A 1_555 1_555
O7A C17A 1_555 1_555
O7_2 In2 1_555 1_555
O7A_2 In2A 1_555 1_555
C7A C6A 1_555 1_555
H5A C7A 1_555 1_555
O8A C17A 1_555 1_555
O8D In3 1_555 1_555
C8A C3A 1_555 1_555
H6A C8A 1_555 1_555
O9A C25A 1_555 1_555
O9A_2 In3 1_555 1_555
O9E In3 1_555 1_555
C9A C6A 1_555 1_555
O10A C25A 1_555 1_555
O10A_2 In2 1_555 1_555
O10_2 In2A 1_555 1_555
C10A C1A 1_555 1_555
H7A C10A 1_555 1_555
H8A C10A 1_555 1_555
O11A In2A 1_555 1_555
C11A O2A 1_555 1_555
O12A In1 1_555 1_555
C12A C11A 1_555 1_555
H9A C12A 1_555 1_555
O13A In1 1_555 1_555
C13A C12A 1_555 1_555
H10A C13A 1_555 1_555
O14_2 In3 1_555 1_555
O14D In3 1_555 1_555
O14A In2A 1_555 1_555
C14A C13A 1_555 1_555
C15A C14A 1_555 1_555
H11A C15A 1_555 1_555
C16A C11A 1_555 1_555
H12A C16A 1_555 1_555
C17A C14A 1_555 1_555
C18A C1A 1_555 1_555
H13A C18A 1_555 1_555
H14A C18A 1_555 1_555
C19A O3A 1_555 1_555
C20A C19A 1_555 1_555
H15A C20A 1_555 1_555
C21A C20A 1_555 1_555
H16A C21A 1_555 1_555
C22A C21A 1_555 1_555
C23A C22A 1_555 1_555
H17A C23A 1_555 1_555
C24A C19A 1_555 1_555
H18A C24A 1_555 1_555
C25A C22A 1_555 1_555
C26A C1A 1_555 1_555
H19A C26A 1_555 1_555
H20A C26A 1_555 1_555
C27A H21A 1_555 1_555
C28A C27A 1_555 1_555
H22A C28A 1_555 1_555
C29A C28A 1_555 1_555
C30A C29A 1_555 1_555
H23A C30A 1_555 1_555
C31A C30A 1_555 1_555
H24A C31A 1_555 1_555
C32A O4A 1_555 1_555
C33A O11A 1_555 1_555
In2 O13 1_555 1_555
C7 C8 1_555 1_555
C15 C16 1_555 1_555
C23 C24 1_555 1_555
C27 C32 1_555 1_555
C31 C32 1_555 1_555
In2A O13A 1_555 1_555
In2_2 O14_2 1_555 1_555
C7A C8A 1_555 1_555
O12A C33A 1_555 1_555
C15A C16A 1_555 1_555
C23A C24A 1_555 1_555
C27A C32A 1_555 1_555
C29A C33A 1_555 1_555
C31A C32A 1_555 1_555

#END
