
#######################################################################
#
#                 Cambridge Crystallographic Data Centre
#                                CCDC 
#
#######################################################################
#
# If this CIF has been generated from an entry in the Cambridge 
# Structural Database, then it will include bibliographic, chemical, 
# crystal, experimental, refinement or atomic coordinate data resulting 
# from the CCDC's data processing and validation procedures.
#
#######################################################################

data_OXALFE07
_symmetry_cell_setting           monoclinic
_symmetry_space_group_name_H-M   'C 2/c'
_symmetry_Int_Tables_number      15
_space_group_name_Hall           '-C 2yn'
loop_
_symmetry_equiv_pos_site_id
_symmetry_equiv_pos_as_xyz
1 x,y,z
2 1/2+x,1/2+y,z
3 -x,y,1/2-z
4 1/2-x,1/2+y,1/2-z
5 -x,-y,-z
6 1/2-x,1/2-y,-z
7 x,-y,1/2+z
8 1/2+x,1/2-y,1/2+z
_cell_length_a                   11.98
_cell_length_b                   5.55
_cell_length_c                   9.991
_cell_angle_alpha                90
_cell_angle_beta                 128.47
_cell_angle_gamma                90
_cell_volume                     520.096
loop_
_atom_site_label
_atom_site_type_symbol
_atom_site_fract_x
_atom_site_fract_y
_atom_site_fract_z
Fe1 Fe 0.0000 0.1735(8) 0.2500
C1 C 0.0448(12) 0.6735(8) 0.3443(11)
O1 O 0.0879(8) 0.4795(18) 0.4238(8)
O2 O 0.0879(8) 0.8673(17) 0.4238(8)
O3 O 0.1748(4) 0.1737(8) 0.2500
D1 D 0.2572(4) 0.0850(8) 0.3423(8)
D2 D 0.1682(4) 0.1365(8) 0.1483(8)
O1B O -0.0879(8) 0.4795(18) 0.0762(8)
O2B O -0.0879(8) -0.1327(17) 0.0762(8)
O3B O -0.1748(4) 0.1737(8) 0.2500
C1B C -0.0448(12) 0.6735(8) 0.1557(11)
O2_2 O 0.0879(8) -0.1327(17) 0.4238(8)
D1B D -0.2572(4) 0.0850(8) 0.1577(8)
D2B D -0.1682(4) 0.1365(8) 0.3517(8)
O2B_2 O -0.0879(8) 0.8673(17) 0.0762(8)
Fe1_2 Fe 0.0000 1.1735(8) 0.2500
loop_
_geom_bond_atom_site_label_1
_geom_bond_atom_site_label_2
_geom_bond_site_symmetry_1
_geom_bond_site_symmetry_2
Fe1 O1 1_555 1_555
C1 O1 1_555 1_555
O2 C1 1_555 1_555
O3 Fe1 1_555 1_555
D1 O3 1_555 1_555
D2 O3 1_555 1_555
O1B Fe1 1_555 1_555
O2B Fe1 1_555 1_555
O3B Fe1 1_555 1_555
C1B C1 1_555 1_555
O2_2 Fe1 1_555 1_555
D1B O3B 1_555 1_555
D2B O3B 1_555 1_555
O2B_2 C1B 1_555 1_555
Fe1_2 O2 1_555 1_555
O1B C1B 1_555 1_555
O2B_2 Fe1_2 1_555 1_555

#END
