
#######################################################################
#
#                 Cambridge Crystallographic Data Centre
#                                CCDC 
#
#######################################################################
#
# If this CIF has been generated from an entry in the Cambridge 
# Structural Database, then it will include bibliographic, chemical, 
# crystal, experimental, refinement or atomic coordinate data resulting 
# from the CCDC's data processing and validation procedures.
#
#######################################################################

data_OXAPUZ
_symmetry_cell_setting           monoclinic
_symmetry_space_group_name_H-M   'P 21/c'
_symmetry_Int_Tables_number      14
_space_group_name_Hall           '-P 2ybc'
loop_
_symmetry_equiv_pos_site_id
_symmetry_equiv_pos_as_xyz
1 x,y,z
2 -x,1/2+y,1/2-z
3 -x,-y,-z
4 x,1/2-y,1/2+z
_cell_length_a                   14.631(6)
_cell_length_b                   15.371(6)
_cell_length_c                   17.709(7)
_cell_angle_alpha                90
_cell_angle_beta                 98.187(7)
_cell_angle_gamma                90
_cell_volume                     3942.04
loop_
_atom_site_label
_atom_site_type_symbol
_atom_site_fract_x
_atom_site_fract_y
_atom_site_fract_z
Cu1 Cu 0.23226(11) 0.23689(10) 0.09550(8)
S1 S 0.1875(3) 0.4325(2) 0.04633(18)
S2 S 0.1257(3) 0.1048(3) -0.0097(2)
S3 S 0.3302(3) 0.1023(2) 0.22096(19)
O1 O 0.1343(7) 0.3534(6) 0.0568(6)
O2 O 0.1426(8) 0.5103(7) 0.0666(6)
O3 O 0.2236(8) 0.4368(7) -0.0258(5)
O4 O 0.0506(10) 0.1256(11) -0.0657(7)
O5 O 0.1390(11) 0.0129(9) 0.0012(8)
O6 O 0.1286(7) 0.1531(7) 0.0617(5)
O7 O 0.3348(7) 0.1322(6) 0.1425(5)
O8 O 0.3064(9) 0.0104(6) 0.2275(6)
O9 O 0.4086(8) 0.1306(7) 0.2752(6)
N1 N 0.3202(8) 0.3398(7) 0.1299(6)
N2 N 0.2717(8) 0.2109(7) -0.0070(6)
N3 N 0.1967(8) 0.2258(7) 0.2019(5)
C1 C 0.2900(10) 0.4208(9) 0.1154(7)
C2 C 0.3352(11) 0.4936(10) 0.1488(8)
H1 H 0.3090 0.5500 0.1403
C3 C 0.4188(11) 0.4825(10) 0.1945(8)
H2 H 0.4525 0.5314 0.2161
C4 C 0.4532(11) 0.3986(11) 0.2087(9)
H3 H 0.5096 0.3896 0.2416
C5 C 0.4047(10) 0.3287(11) 0.1746(9)
H4 H 0.4299 0.2719 0.1819
C6 C 0.2249(11) 0.1454(10) -0.0458(8)
C7 C 0.2524(13) 0.1095(11) -0.1119(9)
H5 H 0.2186 0.0626 -0.1373
C8 C 0.3288(14) 0.1425(12) -0.1397(9)
H6 H 0.3476 0.1205 -0.1851
C9 C 0.3776(12) 0.2098(10) -0.0982(9)
H7 H 0.4316 0.2324 -0.1151
C10 C 0.3492(10) 0.2434(10) -0.0341(7)
H8 H 0.3829 0.2897 -0.0078
C11 C 0.1257(11) 0.2684(9) 0.2216(8)
H9 H 0.0984 0.3126 0.1882
C12 C 0.0879(11) 0.2529(10) 0.2884(9)
H10 H 0.0359 0.2845 0.3001
C13 C 0.1303(11) 0.1884(9) 0.3377(8)
H11 H 0.1090 0.1771 0.3849
C14 C 0.2030(11) 0.1419(10) 0.3168(7)
H12 H 0.2320 0.0976 0.3491
C15 C 0.2333(9) 0.1606(9) 0.2479(7)
Cu2 Cu 0.24315(15) 0.74996(11) 0.38562(16)
N4 N 0.1541(8) 0.6587(7) 0.3384(7)
N5 N 0.3337(8) 0.8407(6) 0.4293(6)
N6 N 0.3332(9) 0.6558(7) 0.4257(8)
N7 N -0.1571(8) 0.3422(7) 0.1631(7)
N8 N 0.3457(9) 0.7571(8) 0.1934(6)
O10 O 0.3433(8) 0.7687(7) 0.2634(6)
O11 O 0.2785(10) 0.7245(10) 0.1533(8)
O12 O 0.4089(10) 0.7847(11) 0.1602(8)
C16 C 0.1669(10) 0.6237(9) 0.2725(9)
H13 H 0.2187 0.6408 0.2493
C17 C 0.1060(10) 0.5623(9) 0.2367(8)
H14 H 0.1172 0.5378 0.1897
C18 C 0.0293(8) 0.5363(8) 0.2682(6)
C19 C 0.0174(10) 0.5734(9) 0.3373(7)
H15 H -0.0335 0.5568 0.3620
C20 C 0.0795(11) 0.6345(9) 0.3702(8)
H16 H 0.0695 0.6605 0.4169
C21 C -0.0362(8) 0.4688(8) 0.2315(7)
C22 C -0.0475(9) 0.4570(8) 0.1519(7)
H17 H -0.0148 0.4921 0.1205
C23 C -0.1074(11) 0.3930(9) 0.1207(9)
H18 H -0.1144 0.3838 0.0671
C24 C -0.1472(10) 0.3547(9) 0.2380(9)
H19 H -0.1814 0.3194 0.2680
C25 C -0.0877(10) 0.4182(8) 0.2740(8)
H20 H -0.0829 0.4265 0.3276
C26 C 0.3486(9) 0.9105(8) 0.3879(7)
H21 H 0.3143 0.9161 0.3383
C27 C 0.4117(9) 0.9754(8) 0.4135(8)
H22 H 0.4192 1.0246 0.3825
C28 C 0.4648(8) 0.9666(7) 0.4869(6)
C29 C 0.4471(9) 0.8940(8) 0.5280(7)
H23 H 0.4824 0.8845 0.5766
C30 C 0.3806(9) 0.8352(8) 0.5012(7)
H24 H 0.3665 0.7893 0.5335
C31 C 0.3187(12) 0.6056(10) 0.4829(10)
H25 H 0.2631 0.6127 0.5041
C32 C 0.3815(12) 0.5422(9) 0.5141(10)
H26 H 0.3676 0.5062 0.5545
C33 C 0.4642(9) 0.5326(8) 0.4854(7)
C34 C 0.4771(11) 0.5856(11) 0.4225(9)
H27 H 0.5300 0.5793 0.3974
C35 C 0.4088(12) 0.6479(11) 0.3985(10)
H28 H 0.4198 0.6869 0.3592
O13 O 0.1676(16) 0.7501(15) 0.5116(14)
H29 H 0.1173 0.7287 0.5220
H30 H 0.1989 0.7584 0.5547
Cu2A Cu -0.24315(15) 1.24996(11) 0.11438(16)
Cu2A_2 Cu -0.24315(15) 0.24996(11) 0.11438(16)
Cu2B Cu 0.75685(15) 1.25004(11) 0.61438(16)
Cu2B_2 Cu 0.75685(15) 0.25004(11) 0.61438(16)
N4A N -0.1541(8) 1.1587(7) 0.1616(7)
N5B N 0.6663(8) 1.1593(6) 0.5707(6)
N5A N -0.3337(8) 1.3407(6) 0.0707(6)
N6B N 0.6668(9) 0.3442(7) 0.5743(8)
N6A N -0.3332(9) 1.1558(7) 0.0743(8)
N7A N 0.1571(8) 0.8422(7) 0.3369(7)
N7_2 N -0.1571(8) 1.3422(7) 0.1631(7)
N8A N -0.3457(9) 1.2571(8) 0.3066(6)
O10A O -0.3433(8) 1.2687(7) 0.2366(6)
O11A O -0.2785(10) 1.2245(10) 0.3467(8)
O12A O -0.4089(10) 1.2847(11) 0.3398(8)
C16A C -0.1669(10) 1.1237(9) 0.2275(9)
H13A H -0.2187 1.1408 0.2507
C17A C -0.1060(10) 1.0623(9) 0.2633(8)
H14A H -0.1172 1.0378 0.3103
C18A C -0.0293(8) 1.0363(8) 0.2318(6)
C19A C -0.0174(10) 1.0734(9) 0.1627(7)
H15A H 0.0335 1.0568 0.1380
C20A C -0.0795(11) 1.1345(9) 0.1298(8)
H16A H -0.0695 1.1605 0.0831
C21A C 0.0362(8) 0.9688(8) 0.2685(7)
C22A C 0.0475(9) 0.9570(8) 0.3481(7)
H17A H 0.0148 0.9921 0.3795
C23A C 0.1074(11) 0.8930(9) 0.3793(9)
H18A H 0.1144 0.8838 0.4329
C24A C 0.1472(10) 0.8547(9) 0.2620(9)
H19A H 0.1814 0.8194 0.2320
C25A C 0.0877(10) 0.9182(8) 0.2260(8)
H20A H 0.0829 0.9265 0.1724
C26B C 0.6514(9) 1.0895(8) 0.6121(7)
H21B H 0.6857 1.0839 0.6617
C27B C 0.5883(9) 1.0246(8) 0.5865(8)
H22B H 0.5808 0.9754 0.6175
C28B C 0.5352(8) 1.0334(7) 0.5131(6)
C29B C 0.5529(9) 1.1060(8) 0.4720(7)
H23B H 0.5176 1.1155 0.4234
C30B C 0.6194(9) 1.1648(8) 0.4988(7)
H24B H 0.6335 1.2107 0.4665
C31B C 0.6813(12) 0.3944(10) 0.5171(10)
H25B H 0.7369 0.3873 0.4959
C32B C 0.6185(12) 0.4578(9) 0.4859(10)
H26B H 0.6324 0.4938 0.4455
C33B C 0.5358(9) 0.4674(8) 0.5146(7)
C34B C 0.5229(11) 0.4144(11) 0.5775(9)
H27B H 0.4700 0.4207 0.6026
C35B C 0.5912(12) 0.3521(11) 0.6015(10)
H28B H 0.5802 0.3131 0.6408
O13A O -0.1676(16) 1.2501(15) -0.0116(14)
H29A H -0.1173 1.2287 -0.0220
H30A H -0.1989 1.2584 -0.0547
loop_
_geom_bond_atom_site_label_1
_geom_bond_atom_site_label_2
_geom_bond_site_symmetry_1
_geom_bond_site_symmetry_2
Cu1 O1 1_555 1_555
Cu2 N4 1_555 1_555
S1 O1 1_555 1_555
S2 O4 1_555 1_555
S3 O7 1_555 1_555
O2 S1 1_555 1_555
O3 S1 1_555 1_555
O5 S2 1_555 1_555
O6 Cu1 1_555 1_555
O7 Cu1 1_555 1_555
O8 S3 1_555 1_555
O9 S3 1_555 1_555
N1 Cu1 1_555 1_555
N2 Cu1 1_555 1_555
N3 Cu1 1_555 1_555
N4 C16 1_555 1_555
N5 Cu2 1_555 1_555
N6 Cu2 1_555 1_555
N7 C23 1_555 1_555
N8 O10 1_555 1_555
O10 Cu2 1_555 1_555
O11 N8 1_555 1_555
O12 N8 1_555 1_555
C1 S1 1_555 1_555
C2 C1 1_555 1_555
H1 C2 1_555 1_555
C3 C2 1_555 1_555
H2 C3 1_555 1_555
C4 C3 1_555 1_555
H3 C4 1_555 1_555
C5 N1 1_555 1_555
H4 C5 1_555 1_555
C6 S2 1_555 1_555
C7 C6 1_555 1_555
H5 C7 1_555 1_555
C8 C7 1_555 1_555
H6 C8 1_555 1_555
C9 C8 1_555 1_555
H7 C9 1_555 1_555
C10 N2 1_555 1_555
H8 C10 1_555 1_555
C11 N3 1_555 1_555
H9 C11 1_555 1_555
C12 C11 1_555 1_555
H10 C12 1_555 1_555
C13 C12 1_555 1_555
H11 C13 1_555 1_555
C14 C13 1_555 1_555
H12 C14 1_555 1_555
C15 S3 1_555 1_555
C16 H13 1_555 1_555
C17 C16 1_555 1_555
H14 C17 1_555 1_555
C18 C17 1_555 1_555
C19 C18 1_555 1_555
H15 C19 1_555 1_555
C20 N4 1_555 1_555
H16 C20 1_555 1_555
C21 C18 1_555 1_555
C22 C21 1_555 1_555
H17 C22 1_555 1_555
C23 C22 1_555 1_555
H18 C23 1_555 1_555
C24 N7 1_555 1_555
H19 C24 1_555 1_555
C25 C21 1_555 1_555
H20 C25 1_555 1_555
C26 N5 1_555 1_555
H21 C26 1_555 1_555
C27 C26 1_555 1_555
H22 C27 1_555 1_555
C28 C27 1_555 1_555
C29 C28 1_555 1_555
H23 C29 1_555 1_555
C30 N5 1_555 1_555
H24 C30 1_555 1_555
C31 N6 1_555 1_555
H25 C31 1_555 1_555
C32 C31 1_555 1_555
H26 C32 1_555 1_555
C33 C32 1_555 1_555
C34 C33 1_555 1_555
H27 C34 1_555 1_555
C35 N6 1_555 1_555
H28 C35 1_555 1_555
O13 Cu2 1_555 1_555
H29 O13 1_555 1_555
H30 O13 1_555 1_555
Cu2A N4A 1_555 1_555
Cu2A_2 N7 1_555 1_555
Cu2B N5B 1_555 1_555
Cu2B_2 N6B 1_555 1_555
N4A C16A 1_555 1_555
N5B C26B 1_555 1_555
N5A Cu2A 1_555 1_555
N6B C31B 1_555 1_555
N6A Cu2A 1_555 1_555
N7A Cu2 1_555 1_555
N7_2 Cu2A 1_555 1_555
N8A O10A 1_555 1_555
O10A Cu2A 1_555 1_555
O11A N8A 1_555 1_555
O12A N8A 1_555 1_555
C16A H13A 1_555 1_555
C17A C16A 1_555 1_555
H14A C17A 1_555 1_555
C18A C17A 1_555 1_555
C19A C18A 1_555 1_555
H15A C19A 1_555 1_555
C20A N4A 1_555 1_555
H16A C20A 1_555 1_555
C21A C18A 1_555 1_555
C22A C21A 1_555 1_555
H17A C22A 1_555 1_555
C23A N7A 1_555 1_555
H18A C23A 1_555 1_555
C24A N7A 1_555 1_555
H19A C24A 1_555 1_555
C25A C21A 1_555 1_555
H20A C25A 1_555 1_555
C26B H21B 1_555 1_555
C27B C26B 1_555 1_555
H22B C27B 1_555 1_555
C28B C28 1_555 1_555
C29B C28B 1_555 1_555
H23B C29B 1_555 1_555
C30B N5B 1_555 1_555
H24B C30B 1_555 1_555
C31B H25B 1_555 1_555
C32B C31B 1_555 1_555
H26B C32B 1_555 1_555
C33B C33 1_555 1_555
C34B C33B 1_555 1_555
H27B C34B 1_555 1_555
C35B N6B 1_555 1_555
H28B C35B 1_555 1_555
O13A Cu2A 1_555 1_555
H29A O13A 1_555 1_555
H30A O13A 1_555 1_555
S2 O6 1_555 1_555
N1 C1 1_555 1_555
N2 C6 1_555 1_555
N3 C15 1_555 1_555
C4 C5 1_555 1_555
C9 C10 1_555 1_555
C14 C15 1_555 1_555
C19 C20 1_555 1_555
C24 C25 1_555 1_555
C29 C30 1_555 1_555
C34 C35 1_555 1_555
C19A C20A 1_555 1_555
C22A C23A 1_555 1_555
C24A C25A 1_555 1_555
C27B C28B 1_555 1_555
C29B C30B 1_555 1_555
C32B C33B 1_555 1_555
C34B C35B 1_555 1_555

#END
