
#######################################################################
#
#                 Cambridge Crystallographic Data Centre
#                                CCDC 
#
#######################################################################
#
# If this CIF has been generated from an entry in the Cambridge 
# Structural Database, then it will include bibliographic, chemical, 
# crystal, experimental, refinement or atomic coordinate data resulting 
# from the CCDC's data processing and validation procedures.
#
#######################################################################

data_OXITEV
_symmetry_cell_setting           monoclinic
_symmetry_space_group_name_H-M   'P 21/n'
_symmetry_Int_Tables_number      14
_space_group_name_Hall           '-P 2yn'
loop_
_symmetry_equiv_pos_site_id
_symmetry_equiv_pos_as_xyz
1 x,y,z
2 1/2-x,1/2+y,1/2-z
3 -x,-y,-z
4 1/2+x,1/2-y,1/2+z
_cell_length_a                   5.9447(11)
_cell_length_b                   19.526(4)
_cell_length_c                   10.2012(19)
_cell_angle_alpha                90
_cell_angle_beta                 91.232(3)
_cell_angle_gamma                90
_cell_volume                     1183.84
loop_
_atom_site_label
_atom_site_type_symbol
_atom_site_fract_x
_atom_site_fract_y
_atom_site_fract_z
C1 C 0.3991(8) 0.8988(2) 0.3071(4)
C2 C 0.2187(8) 0.9071(2) 0.2227(5)
H1 H 0.1834 0.8733 0.1613
C3 C 0.0898(8) 0.9656(2) 0.2291(5)
H2 H -0.0336 0.9700 0.1722
C4 C 0.1372(7) 1.0184(2) 0.3177(4)
C5 C 0.3156(7) 1.0086(2) 0.4072(4)
C6 C 0.4518(7) 0.9491(2) 0.3990(4)
C7 C 0.3560(7) 1.0586(2) 0.5114(4)
C8 C 0.5277(8) 0.8318(2) 0.2937(4)
C9 C 0.0039(8) 1.0822(2) 0.3046(4)
Cd1 Cd 0.70362(5) 0.706466(17) 0.22835(3)
O1 O 0.4789(6) 0.78337(15) 0.3672(3)
O2 O 0.6651(5) 0.82666(17) 0.2017(3)
O3 O 0.1036(5) 1.13511(15) 0.2595(3)
O4 O -0.1985(5) 1.08242(17) 0.3333(3)
O5 O 0.2208(5) 1.10564(15) 0.5304(3)
O6 O 1.0594(5) 0.71993(16) 0.1507(3)
H3 H 1.1136 0.6810 0.1308
H4 H 1.0566 0.7453 0.0830
O7 O 0.5888(6) 0.71268(16) 0.0019(3)
H5 H 0.6302 0.6765 -0.0377
H6 H 0.6507 0.7473 -0.0336
O8 O 0.8426(6) 0.67416(19) 0.4230(4)
H7 H 0.8351 0.6972 0.4935
H8 H 0.9030 0.6349 0.4151
C1B C 0.6009(8) 1.1012(2) 0.6929(4)
C2B C 0.7813(8) 1.0929(2) 0.7773(5)
H1B H 0.8166 1.1267 0.8387
C3B C 0.9102(8) 1.0344(2) 0.7709(5)
H2B H 1.0336 1.0300 0.8278
C4B C 0.8628(7) 0.9816(2) 0.6823(4)
C5B C 0.6844(7) 0.9914(2) 0.5928(4)
C6B C 0.5482(7) 1.0509(2) 0.6010(4)
C7B C 0.6440(7) 0.9414(2) 0.4886(4)
C8B C 0.4723(8) 1.1682(2) 0.7063(4)
C9B C 0.9961(8) 0.9178(2) 0.6954(4)
Cd1B Cd 0.29638(5) 1.293534(17) 0.77165(3)
Cd1A Cd -0.20362(5) 1.206466(17) 0.27165(3)
Cd1C Cd 1.20362(5) 0.793534(17) 0.72835(3)
O1B O 0.5211(6) 1.21663(15) 0.6328(3)
O2B O 0.3349(5) 1.17334(17) 0.7983(3)
O3B O 0.8964(5) 0.86489(15) 0.7405(3)
O3A O 0.3964(5) 0.63511(15) 0.2405(3)
O3C O 0.6036(5) 1.36489(15) 0.7595(3)
O4B O 1.1985(5) 0.91758(17) 0.6667(3)
O4A O 0.6985(5) 0.58242(17) 0.1667(3)
O4C O 0.3015(5) 1.41758(17) 0.8333(3)
O5B O 0.7792(5) 0.89436(15) 0.4696(3)
O6B O -0.0594(5) 1.28007(16) 0.8493(3)
H3B H -0.1136 1.3190 0.8692
H4B H -0.0566 1.2547 0.9170
O7B O 0.4112(6) 1.28732(16) 0.9981(3)
H5B H 0.3698 1.3235 1.0377
H6B H 0.3493 1.2527 1.0336
O8B O 0.1574(6) 1.32584(19) 0.5770(4)
H7B H 0.1649 1.3028 0.5065
H8B H 0.0970 1.3651 0.5849
O9 O 0.1521(7) 0.57581(18) 0.4787(4)
H9 H 0.1712 0.5739 0.5612
H10 H 0.2749 0.5871 0.4419
loop_
_geom_bond_atom_site_label_1
_geom_bond_atom_site_label_2
_geom_bond_site_symmetry_1
_geom_bond_site_symmetry_2
C1 C2 1_555 1_555
C2 H1 1_555 1_555
C3 C2 1_555 1_555
H2 C3 1_555 1_555
C4 C3 1_555 1_555
C5 C4 1_555 1_555
C6 C1 1_555 1_555
C7 C5 1_555 1_555
C8 C1 1_555 1_555
C9 C4 1_555 1_555
Cd1 O1 1_555 1_555
O1 C8 1_555 1_555
O2 C8 1_555 1_555
O3 C9 1_555 1_555
O4 C9 1_555 1_555
O5 C7 1_555 1_555
O6 Cd1 1_555 1_555
H3 O6 1_555 1_555
H4 O6 1_555 1_555
O7 Cd1 1_555 1_555
H5 O7 1_555 1_555
H6 O7 1_555 1_555
O8 Cd1 1_555 1_555
H7 O8 1_555 1_555
H8 O8 1_555 1_555
O9 H9 1_555 1_555
H10 O9 1_555 1_555
C1B C2B 1_555 1_555
C2B H1B 1_555 1_555
C3B C2B 1_555 1_555
H2B C3B 1_555 1_555
C4B C3B 1_555 1_555
C5B C4B 1_555 1_555
C6B C7 1_555 1_555
C7B C6 1_555 1_555
C8B C1B 1_555 1_555
C9B C4B 1_555 1_555
Cd1B O1B 1_555 1_555
Cd1A O3 1_555 1_555
Cd1C O3B 1_555 1_555
O1B C8B 1_555 1_555
O2B C8B 1_555 1_555
O3B C9B 1_555 1_555
O3A Cd1 1_555 1_555
O3C Cd1B 1_555 1_555
O4B C9B 1_555 1_555
O4A Cd1 1_555 1_555
O4C Cd1B 1_555 1_555
O5B C7B 1_555 1_555
O6B Cd1B 1_555 1_555
H3B O6B 1_555 1_555
H4B O6B 1_555 1_555
O7B Cd1B 1_555 1_555
H5B O7B 1_555 1_555
H6B O7B 1_555 1_555
O8B Cd1B 1_555 1_555
H7B O8B 1_555 1_555
H8B O8B 1_555 1_555
C5 C6 1_555 1_555
Cd1 O2 1_555 1_555
O4 Cd1A 1_555 1_555
C1B C6B 1_555 1_555
C5B C6B 1_555 1_555
C5B C7B 1_555 1_555
Cd1B O2B 1_555 1_555
Cd1C O4B 1_555 1_555

#END
