
#######################################################################
#
#                 Cambridge Crystallographic Data Centre
#                                CCDC 
#
#######################################################################
#
# If this CIF has been generated from an entry in the Cambridge 
# Structural Database, then it will include bibliographic, chemical, 
# crystal, experimental, refinement or atomic coordinate data resulting 
# from the CCDC's data processing and validation procedures.
#
#######################################################################

data_OXOREZ
_symmetry_cell_setting           triclinic
_symmetry_space_group_name_H-M   'P -1'
_symmetry_Int_Tables_number      2
_space_group_name_Hall           '-P 1'
loop_
_symmetry_equiv_pos_site_id
_symmetry_equiv_pos_as_xyz
1 x,y,z
2 -x,-y,-z
_cell_length_a                   9.6694(4)
_cell_length_b                   10.7012(5)
_cell_length_c                   13.1471(6)
_cell_angle_alpha                69.2950(10)
_cell_angle_beta                 76.4790(10)
_cell_angle_gamma                63.8420(10)
_cell_volume                     1137.26
loop_
_atom_site_label
_atom_site_type_symbol
_atom_site_fract_x
_atom_site_fract_y
_atom_site_fract_z
Eu1 Eu 0.229981(15) 1.035470(15) 1.008263(11)
C1 C 0.1185(3) 0.7382(3) 1.0694(2)
C2 C 0.2502(3) 0.5925(3) 1.0973(2)
C3 C 0.2516(3) 0.4743(3) 1.0743(2)
H1 H 0.1655 0.4825 1.0484
C4 C 0.3813(3) 0.3446(3) 1.0900(2)
C5 C 0.5088(4) 0.3301(3) 1.1321(3)
H2 H 0.5971 0.2443 1.1417
C6 C 0.5001(4) 0.4465(4) 1.1591(3)
C7 C 0.3769(4) 0.5779(3) 1.1411(3)
H3 H 0.3775 0.6554 1.1576
C8 C 0.3898(4) 0.2217(3) 1.0544(2)
C9 C 0.2825(4) 1.1104(3) 0.7757(3)
C10 C 0.3135(4) 1.1485(4) 0.6540(3)
C11 C 0.2790(4) 1.0812(4) 0.5963(3)
H4 H 0.2378 1.0115 0.6334
C12 C 0.3059(4) 1.1177(4) 0.4829(3)
C13 C 0.3665(5) 1.2209(5) 0.4273(3)
H5 H 0.3841 1.2462 0.3515
C14 C 0.4005(5) 1.2861(5) 0.4870(3)
C15 C 0.3760(5) 1.2521(4) 0.5985(3)
H6 H 0.4005 1.2973 0.6364
C16 C 0.2738(5) 1.0408(4) 0.4208(3)
C17 C -0.0342(7) 1.1745(6) 1.2138(5)
H7 H -0.1307 1.2441 1.1850
H8 H 0.0361 1.2212 1.1993
H9 H -0.0517 1.1349 1.2912
F1 F 0.6223(2) 0.4324(2) 1.2028(2)
F2 F 0.4593(4) 1.3877(4) 0.4329(2)
O1 O 0.1440(3) 0.8494(2) 1.0557(2)
O2 O -0.0100(3) 0.7440(2) 1.0593(2)
O3 O 0.2647(3) 0.2167(2) 1.0493(2)
O4 O 0.5210(3) 0.1316(3) 1.0318(2)
O5 O 0.2102(3) 1.0279(3) 0.82481(19)
O6 O 0.3292(3) 1.1606(3) 0.82833(19)
O7 O 0.2167(5) 0.9483(4) 0.4825(3)
H14 H 0.2098 0.8996 0.4493
O8 O 0.3027(4) 1.0647(4) 0.3225(2)
O9 O 0.0299(3) 1.0612(3) 1.1636(2)
H15 H -0.0375 1.0334 1.1658
O10 O 0.3555(3) 0.9049(3) 1.18015(19)
H16 H 0.3102 0.9348 1.2332
H17 H 0.4500 0.8626 1.1741
Eu1A Eu -0.229981(15) 0.964530(15) 0.991737(11)
Eu1_2 Eu -0.770019(15) 2.035470(15) 1.008263(11)
Eu1_3 Eu 0.229981(15) 0.035470(15) 1.008263(11)
Eu1A_2 Eu -0.229981(15) 1.964530(15) 0.991737(11)
Eu1A_3 Eu 0.770019(15) -0.035470(15) 0.991737(11)
C1A C -0.1185(3) 1.2618(3) 0.9306(2)
C2A C -0.2502(3) 1.4075(3) 0.9027(2)
C3A C -0.2516(3) 1.5257(3) 0.9257(2)
H1A H -0.1655 1.5175 0.9516
C4A C -0.3813(3) 1.6554(3) 0.9100(2)
C5A C -0.5088(4) 1.6699(3) 0.8679(3)
H2A H -0.5971 1.7557 0.8583
C6A C -0.5001(4) 1.5535(4) 0.8409(3)
C7A C -0.3769(4) 1.4221(3) 0.8589(3)
H3A H -0.3775 1.3446 0.8424
C8A C -0.3898(4) 1.7783(3) 0.9456(2)
C9A C -0.2825(4) 0.8896(3) 1.2243(3)
C10A C -0.3135(4) 0.8515(4) 1.3460(3)
C11A C -0.2790(4) 0.9188(4) 1.4037(3)
H4A H -0.2378 0.9885 1.3666
C12A C -0.3059(4) 0.8823(4) 1.5171(3)
C13A C -0.3665(5) 0.7791(5) 1.5727(3)
H5A H -0.3841 0.7538 1.6485
C14A C -0.4005(5) 0.7139(5) 1.5130(3)
C15A C -0.3760(5) 0.7479(4) 1.4015(3)
H6A H -0.4005 0.7027 1.3636
C16A C -0.2738(5) 0.9592(4) 1.5792(3)
C17A C 0.0342(7) 0.8255(6) 0.7862(5)
H7A H 0.1307 0.7559 0.8150
H8A H -0.0361 0.7788 0.8007
H9A H 0.0517 0.8651 0.7088
F1A F -0.6223(2) 1.5676(2) 0.7972(2)
F2A F -0.4593(4) 0.6123(4) 1.5671(2)
O1A O -0.1440(3) 1.1506(2) 0.9443(2)
O2A O 0.0100(3) 1.2560(2) 0.9407(2)
O3A O -0.2647(3) 1.7833(2) 0.9507(2)
O3_2 O 0.2647(3) 1.2167(2) 1.0493(2)
O3A_2 O -0.2647(3) 0.7833(2) 0.9507(2)
O4A O -0.5210(3) 1.8684(3) 0.9682(2)
O4_2 O -0.4790(3) 1.1316(3) 1.0318(2)
O4A_2 O 0.4790(3) 0.8684(3) 0.9682(2)
O5A O -0.2102(3) 0.9721(3) 1.17519(19)
O6A O -0.3292(3) 0.8394(3) 1.17167(19)
O7A O -0.2167(5) 1.0517(4) 1.5175(3)
H14A H -0.2098 1.1004 1.5507
O8A O -0.3027(4) 0.9353(4) 1.6775(2)
O9A O -0.0299(3) 0.9388(3) 0.8364(2)
H15A H 0.0375 0.9666 0.8342
O10A O -0.3555(3) 1.0951(3) 0.81985(19)
H16A H -0.3102 1.0652 0.7668
H17A H -0.4500 1.1374 0.8259
C18 C 0.1291(5) 0.7303(5) 0.3615(4)
H10 H 0.1507 0.7790 0.2895
C19 C 0.0686(5) 0.6280(5) 0.3819(4)
H11 H 0.0506 0.6087 0.3237
C20 C 0.0342(5) 0.5538(4) 0.4873(3)
C21 C 0.0652(8) 0.5872(6) 0.5707(4)
H12 H 0.0444 0.5408 0.6435
C22 C 0.1266(8) 0.6894(7) 0.5439(5)
H13 H 0.1478 0.7094 0.6005
N1 N 0.1578(5) 0.7617(4) 0.4424(3)
C18A C -0.1291(5) 0.2697(5) 0.6385(4)
H10A H -0.1507 0.2210 0.7105
C19A C -0.0686(5) 0.3720(5) 0.6181(4)
H11A H -0.0506 0.3913 0.6763
C20A C -0.0342(5) 0.4462(4) 0.5127(3)
C21A C -0.0652(8) 0.4128(6) 0.4293(4)
H12A H -0.0444 0.4592 0.3565
C22A C -0.1266(8) 0.3106(7) 0.4561(5)
H13A H -0.1478 0.2906 0.3995
N1A N -0.1578(5) 0.2383(4) 0.5576(3)
O11 O 0.8794(9) 0.5205(9) 0.1779(7)
H18 H 0.9147 0.5703 0.1249
H19 H 0.8045 0.5577 0.2177
loop_
_geom_bond_atom_site_label_1
_geom_bond_atom_site_label_2
_geom_bond_site_symmetry_1
_geom_bond_site_symmetry_2
Eu1 O1 1_555 1_555
C1 C2 1_555 1_555
C2 C3 1_555 1_555
C3 H1 1_555 1_555
C4 C3 1_555 1_555
C5 C4 1_555 1_555
H2 C5 1_555 1_555
C6 C5 1_555 1_555
C7 C2 1_555 1_555
H3 C7 1_555 1_555
C8 C4 1_555 1_555
C9 C10 1_555 1_555
C10 C11 1_555 1_555
C11 H4 1_555 1_555
C12 C11 1_555 1_555
C13 C12 1_555 1_555
H5 C13 1_555 1_555
C14 C13 1_555 1_555
C15 C10 1_555 1_555
H6 C15 1_555 1_555
C16 C12 1_555 1_555
C17 H7 1_555 1_555
H8 C17 1_555 1_555
H9 C17 1_555 1_555
C18 H10 1_555 1_555
C19 C18 1_555 1_555
H11 C19 1_555 1_555
C20 C19 1_555 1_555
C21 C20 1_555 1_555
H12 C21 1_555 1_555
C22 C21 1_555 1_555
H13 C22 1_555 1_555
F1 C6 1_555 1_555
F2 C14 1_555 1_555
N1 C18 1_555 1_555
O1 C1 1_555 1_555
O2 C1 1_555 1_555
O3 C8 1_555 1_555
O4 C8 1_555 1_555
O5 Eu1 1_555 1_555
O6 Eu1 1_555 1_555
O7 C16 1_555 1_555
H14 O7 1_555 1_555
O8 C16 1_555 1_555
O9 Eu1 1_555 1_555
H15 O9 1_555 1_555
O10 Eu1 1_555 1_555
H16 O10 1_555 1_555
H17 O10 1_555 1_555
O11 H18 1_555 1_555
H19 O11 1_555 1_555
Eu1A O2 1_555 1_555
Eu1_2 O4A 1_555 1_555
Eu1_3 O3 1_555 1_555
Eu1A_2 O3A 1_555 1_555
Eu1A_3 O4 1_555 1_555
C1A C2A 1_555 1_555
C2A C3A 1_555 1_555
C3A H1A 1_555 1_555
C4A C3A 1_555 1_555
C5A C4A 1_555 1_555
H2A C5A 1_555 1_555
C6A C5A 1_555 1_555
C7A C2A 1_555 1_555
H3A C7A 1_555 1_555
C8A C4A 1_555 1_555
C9A C10A 1_555 1_555
C10A C11A 1_555 1_555
C11A H4A 1_555 1_555
C12A C11A 1_555 1_555
C13A C12A 1_555 1_555
H5A C13A 1_555 1_555
C14A C13A 1_555 1_555
C15A C10A 1_555 1_555
H6A C15A 1_555 1_555
C16A C12A 1_555 1_555
C17A H7A 1_555 1_555
H8A C17A 1_555 1_555
H9A C17A 1_555 1_555
C18A H10A 1_555 1_555
C19A C18A 1_555 1_555
H11A C19A 1_555 1_555
C20A C20 1_555 1_555
C21A C20A 1_555 1_555
H12A C21A 1_555 1_555
C22A C21A 1_555 1_555
H13A C22A 1_555 1_555
F1A C6A 1_555 1_555
F2A C14A 1_555 1_555
N1A C18A 1_555 1_555
O1A Eu1A 1_555 1_555
O2A Eu1 1_555 1_555
O3A C8A 1_555 1_555
O3_2 Eu1 1_555 1_555
O3A_2 Eu1A 1_555 1_555
O4A C8A 1_555 1_555
O4_2 Eu1A 1_555 1_555
O4A_2 Eu1 1_555 1_555
O5A Eu1A 1_555 1_555
O6A Eu1A 1_555 1_555
O7A C16A 1_555 1_555
H14A O7A 1_555 1_555
O8A C16A 1_555 1_555
O9A Eu1A 1_555 1_555
H15A O9A 1_555 1_555
O10A Eu1A 1_555 1_555
H16A O10A 1_555 1_555
H17A O10A 1_555 1_555
C6 C7 1_555 1_555
C9 O5 1_555 1_555
C9 O6 1_555 1_555
C14 C15 1_555 1_555
C17 O9 1_555 1_555
C22 N1 1_555 1_555
C1A O1A 1_555 1_555
C1A O2A 1_555 1_555
C6A C7A 1_555 1_555
C9A O5A 1_555 1_555
C9A O6A 1_555 1_555
C14A C15A 1_555 1_555
C17A O9A 1_555 1_555
C19A C20A 1_555 1_555
C22A N1A 1_555 1_555

#END
