
#######################################################################
#
#                 Cambridge Crystallographic Data Centre
#                                CCDC 
#
#######################################################################
#
# If this CIF has been generated from an entry in the Cambridge 
# Structural Database, then it will include bibliographic, chemical, 
# crystal, experimental, refinement or atomic coordinate data resulting 
# from the CCDC's data processing and validation procedures.
#
#######################################################################

data_OXPTCC
_symmetry_cell_setting           tetragonal
_symmetry_space_group_name_H-M   'I 4/m'
_symmetry_Int_Tables_number      87
_space_group_name_Hall           '-I 4'
loop_
_symmetry_equiv_pos_site_id
_symmetry_equiv_pos_as_xyz
1 x,y,z
2 1/2+x,1/2+y,1/2+z
3 -y,x,z
4 1/2-y,1/2+x,1/2+z
5 -x,-y,z
6 1/2-x,1/2-y,1/2+z
7 y,-x,z
8 1/2+y,1/2-x,1/2+z
9 -x,-y,-z
10 1/2-x,1/2-y,1/2-z
11 y,-x,-z
12 1/2+y,1/2-x,1/2-z
13 x,y,-z
14 1/2+x,1/2+y,1/2-z
15 -y,x,-z
16 1/2-y,1/2+x,1/2-z
_cell_length_a                   11.793(3)
_cell_length_b                   11.793(3)
_cell_length_c                   7.454(1)
_cell_angle_alpha                90
_cell_angle_beta                 90
_cell_angle_gamma                90
_cell_volume                     1036.66
loop_
_atom_site_label
_atom_site_type_symbol
_atom_site_fract_x
_atom_site_fract_y
_atom_site_fract_z
Tc1 Tc 0.00000 0.00000 0.14054
Cl1 Cl 0.00000 0.00000 0.50000
N1 N 0.06440 0.16450 0.15550
C1 C 0.08580 0.21950 0.00000
C2 C 0.15690 0.38630 0.12000
C3 C 0.14430 0.33590 0.28700
C4 C 0.09760 0.22620 0.29600
Tc1H Tc 0.00000 0.00000 -0.14054
N1B N -0.16450 0.06440 0.15550
N1D N -0.06440 -0.16450 0.15550
N1F N 0.16450 -0.06440 0.15550
Tc1H_2 Tc 0.00000 0.00000 0.85946
N1L N 0.06440 0.16450 -0.15550
loop_
_geom_bond_atom_site_label_1
_geom_bond_atom_site_label_2
_geom_bond_site_symmetry_1
_geom_bond_site_symmetry_2
Tc1 Cl1 1_555 1_555
Cl1 Tc1H_2 1_555 1_555
N1 Tc1 1_555 1_555
C1 N1 1_555 1_555
C2 C3 1_555 1_555
C3 C4 1_555 1_555
C4 N1 1_555 1_555
Tc1H Tc1 1_555 1_555
N1B Tc1 1_555 1_555
N1D Tc1 1_555 1_555
N1F Tc1 1_555 1_555
N1L C1 1_555 1_555
Tc1H N1L 1_555 1_555

#END
