
#######################################################################
#
#                 Cambridge Crystallographic Data Centre
#                                CCDC 
#
#######################################################################
#
# If this CIF has been generated from an entry in the Cambridge 
# Structural Database, then it will include bibliographic, chemical, 
# crystal, experimental, refinement or atomic coordinate data resulting 
# from the CCDC's data processing and validation procedures.
#
#######################################################################

data_OXUPED
_symmetry_cell_setting           monoclinic
_symmetry_space_group_name_H-M   'P 2/c'
_symmetry_Int_Tables_number      13
_space_group_name_Hall           '-P 2yc'
loop_
_symmetry_equiv_pos_site_id
_symmetry_equiv_pos_as_xyz
1 x,y,z
2 -x,y,1/2-z
3 -x,-y,-z
4 x,-y,1/2+z
_cell_length_a                   17.702(6)
_cell_length_b                   9.792(3)
_cell_length_c                   32.088(11)
_cell_angle_alpha                90
_cell_angle_beta                 103.477(7)
_cell_angle_gamma                90
_cell_volume                     5408.91
loop_
_atom_site_label
_atom_site_type_symbol
_atom_site_fract_x
_atom_site_fract_y
_atom_site_fract_z
Gd1 Gd 0.0000 1.38815(4) 0.2500
Gd2 Gd 0.0000 0.85147(4) 0.2500
Gd3 Gd 0.987370(19) 1.31218(3) 0.442450(12)
Cu1 Cu 0.49024(7) 1.0168(2) 0.33006(5)
Cu2 Cu -0.46413(7) 1.51347(15) 0.29781(7)
Cu3 Cu 0.45685(7) 1.60884(13) 0.42466(5)
Cu4 Cu 0.49777(6) 1.23921(12) 0.47939(4)
Cu5 Cu 0.54924(7) 0.69394(17) 0.37474(5)
Br1 Br 0.47954(6) 0.74451(12) 0.30353(4)
Br2 Br -0.5000 1.31730(12) 0.2500
Br3 Br -0.49353(5) 1.42969(10) 0.37932(4)
Br4 Br 0.5000 1.5000 0.5000
Br5 Br 0.50272(5) 1.85031(9) 0.42848(3)
O1 O 0.1129(3) 1.2479(5) 0.26491(17)
O2 O 0.0915(3) 1.0241(5) 0.26408(18)
O3 O 0.0822(3) 1.7311(5) 0.30752(18)
O4 O 0.0858(3) 1.5042(6) 0.3060(2)
O5 O 1.1216(3) 1.1199(6) 0.3645(2)
O6 O 1.0929(3) 1.2332(6) 0.41844(19)
O7 O 0.9346(3) 1.5174(5) 0.45645(17)
O8 O 0.9352(3) 1.7201(5) 0.48788(17)
O9 O 0.8750(3) 1.1312(6) 0.3317(2)
O10 O 0.8739(3) 1.2333(6) 0.39359(19)
O11 O -0.1009(3) 1.7464(5) 0.27734(19)
O12 O -0.0779(3) 1.5234(6) 0.2822(2)
O13 O 0.8925(3) 1.2670(5) 0.48617(19)
O14 O 0.8795(3) 1.0462(6) 0.4980(2)
O15 O 0.0034(3) 1.2727(5) 0.18339(16)
H1 H 0.0455 1.2334 0.1820
H2 H -0.0427 1.2453 0.1731
O16 O 0.0048(3) 0.9453(5) 0.17663(17)
H3 H -0.0401 0.9594 0.1607
H4 H 0.0413 0.9870 0.1687
O17 O 0.9795(4) 1.4590(7) 0.38019(19)
H5 H 1.0008 1.4383 0.3599
H6 H 0.9507 1.5123 0.3906
O18 O 1.0980(3) 1.4979(6) 0.45689(19)
H7 H 1.0842 1.5765 0.4638
H8 H 1.1473 1.4977 0.4616
O19 O 0.9884(3) 1.0645(6) 0.44820(19)
H9 H 1.0317 1.0430 0.4647
H10 H 0.9536 1.0327 0.4598
N1 N 0.3787(4) 1.0490(9) 0.3146(3)
N2 N 0.3401(4) 1.6110(7) 0.4027(2)
N3 N 1.3864(4) 1.2133(7) 0.4570(2)
N4 N 0.6643(4) 1.6828(8) 0.3980(2)
N5 N 0.5983(4) 1.0693(8) 0.3402(3)
N6 N -0.3519(4) 1.5506(7) 0.2955(2)
N7 N 0.6100(4) 1.2168(7) 0.4861(2)
C1 C 0.3526(5) 1.1779(10) 0.3063(3)
H13 H 0.3883 1.2492 0.3103
C2 C 0.2729(5) 1.2076(9) 0.2918(3)
H14 H 0.2562 1.2973 0.2864
C3 C 0.2204(4) 1.1024(7) 0.2857(2)
C4 C 0.2488(4) 0.9699(8) 0.2943(3)
H15 H 0.2147 0.8963 0.2901
C5 C 0.3271(5) 0.9484(10) 0.3092(3)
H16 H 0.3447 0.8597 0.3157
C6 C 0.1343(4) 1.1263(6) 0.2703(2)
C7 C 0.2975(5) 1.7245(9) 0.3983(3)
H17 H 0.3194 1.8023 0.4129
C8 C 0.2223(4) 1.7333(8) 0.3733(3)
H18 H 0.1951 1.8152 0.3710
C9 C 0.1881(4) 1.6168(6) 0.3516(2)
C10 C 0.2306(5) 1.4977(8) 0.3583(3)
H19 H 0.2086 1.4166 0.3461
C11 C 0.3056(5) 1.4981(8) 0.3831(3)
H20 H 0.3336 1.4168 0.3865
C12 C 0.1113(4) 1.6189(7) 0.3193(2)
C13 C 1.3588(4) 1.1393(8) 0.4211(3)
H21 H 1.3942 1.0954 0.4084
C14 C 1.2807(5) 1.1255(7) 0.4025(3)
H22 H 1.2645 1.0726 0.3780
C15 C 1.2258(4) 1.1909(7) 0.4205(2)
C16 C 1.2536(4) 1.2678(8) 0.4571(3)
H23 H 1.2193 1.3135 0.4702
C17 C 1.3325(4) 1.2758(8) 0.4740(3)
H24 H 1.3498 1.3276 0.4987
C18 C 1.1401(4) 1.1789(7) 0.3997(2)
C19 C 0.7012(5) 1.5638(9) 0.3960(3)
H25 H 0.6729 1.4907 0.3819
C20 C 0.7793(4) 1.5455(8) 0.4141(3)
H26 H 0.8031 1.4623 0.4114
C21 C 0.8222(4) 1.6526(8) 0.4365(2)
C22 C 0.7848(5) 1.7762(8) 0.4371(3)
H27 H 0.8120 1.8513 0.4507
C23 C 0.7064(5) 1.7878(9) 0.4176(3)
H28 H 0.6822 1.8719 0.4180
C24 C 0.9033(4) 1.6300(7) 0.4616(2)
C25 C 0.6398(5) 1.0382(9) 0.3114(3)
H29 H 0.6146 0.9944 0.2863
C26 C 0.7176(4) 1.0677(8) 0.3170(2)
H30 H 0.7439 1.0421 0.2963
C27 C 0.7563(4) 1.1353(7) 0.3534(3)
C28 C 0.7144(5) 1.1703(9) 0.3825(3)
H31 H 0.7385 1.2163 0.4074
C29 C 0.6372(5) 1.1385(10) 0.3754(3)
H32 H 0.6101 1.1654 0.3956
C30 C 0.8429(4) 1.1693(8) 0.3602(3)
C31 C -0.3244(5) 1.6773(8) 0.2953(3)
H33 H -0.3573 1.7500 0.2971
C32 C -0.2490(5) 1.7056(8) 0.2925(3)
H34 H -0.2316 1.7953 0.2933
C33 C -0.2004(4) 1.5999(7) 0.2887(2)
C34 C -0.2276(4) 1.4676(7) 0.2901(3)
H35 H -0.1953 1.3931 0.2896
C35 C -0.3032(5) 1.4496(8) 0.2923(3)
H36 H -0.3219 1.3607 0.2914
C36 C -0.1193(4) 1.6252(7) 0.2830(2)
C37 C 0.6568(5) 1.3244(8) 0.4842(3)
H37 H 0.6345 1.4106 0.4791
C38 C 0.7356(4) 1.3128(7) 0.4894(3)
H38 H 0.7656 1.3906 0.4890
C39 C 0.7707(4) 1.1858(7) 0.4952(2)
C40 C 0.7229(4) 1.0762(8) 0.4981(3)
H39 H 0.7441 0.9893 0.5033
C41 C 0.6443(5) 1.0947(8) 0.4933(3)
H40 H 0.6137 1.0188 0.4951
C42 C 0.8545(4) 1.1655(8) 0.4939(3)
Gd2_2 Gd 0.0000 1.85147(4) 0.2500
Gd3A Gd -0.987370(19) 1.31218(3) 0.057550(12)
Gd3B Gd 1.012630(19) 1.68782(3) 0.557550(12)
Gd3_2 Gd -0.012630(19) 1.31218(3) 0.442450(12)
Cu1A Cu -0.49024(7) 1.0168(2) 0.16994(5)
Cu1_2 Cu -0.50976(7) 2.0168(2) 0.33006(5)
Cu2A Cu 0.46413(7) 1.51347(15) 0.20219(7)
Cu2_2 Cu 0.53587(7) 0.51347(15) 0.29781(7)
Cu2A_2 Cu -0.53587(7) 1.51347(15) 0.20219(7)
Cu2_3 Cu 0.53587(7) 1.51347(15) 0.29781(7)
Cu3A Cu -0.45685(7) 1.60884(13) 0.07534(5)
Cu3_2 Cu -0.54315(7) 1.60884(13) 0.42466(5)
Cu3B Cu 0.54315(7) 1.39116(13) 0.57534(5)
Cu4B Cu 0.50223(6) 1.76079(12) 0.52061(4)
Cu4_2 Cu 1.49777(6) 1.23921(12) 0.47939(4)
Cu4A Cu -0.49777(6) 1.23921(12) 0.02061(4)
Cu5_2 Cu -0.45076(7) 1.69394(17) 0.37474(5)
Cu5_3 Cu 0.54924(7) 1.69394(17) 0.37474(5)
Cu5A Cu -0.54924(7) 1.69394(17) 0.12526(5)
Cu5B Cu 1.45076(7) 1.30606(17) 0.62526(5)
Br1_2 Br -0.52046(6) 1.74451(12) 0.30353(4)
Br1A Br -0.47954(6) 0.74451(12) 0.19647(4)
Br1A_2 Br 0.52046(6) 1.74451(12) 0.19647(4)
Br2_2 Br 0.5000 1.31730(12) 0.2500
Br3_2 Br 0.50647(5) 1.42969(10) 0.37932(4)
Br3_3 Br 0.50647(5) 0.42969(10) 0.37932(4)
Br3A Br 0.49353(5) 1.42969(10) 0.12068(4)
Br3A_2 Br -0.50647(5) 1.42969(10) 0.12068(4)
Br4A Br -0.5000 1.5000 0.0000
Br5A Br -0.50272(5) 1.85031(9) 0.07152(3)
Br5_2 Br 0.50272(5) 0.85031(9) 0.42848(3)
Br5_3 Br -0.49728(5) 1.85031(9) 0.42848(3)
O1A O -0.1129(3) 1.2479(5) 0.23509(17)
O2A O -0.0915(3) 1.0241(5) 0.23592(18)
O3A O -0.0822(3) 1.7311(5) 0.19248(18)
O3_2 O 0.0822(3) 0.7311(5) 0.30752(18)
O3A_2 O -0.0822(3) 0.7311(5) 0.19248(18)
O4A O -0.0858(3) 1.5042(6) 0.1940(2)
O5_2 O 0.1216(3) 1.1199(6) 0.3645(2)
O6_2 O 0.0929(3) 1.2332(6) 0.41844(19)
O6A O -1.0929(3) 1.2332(6) 0.08156(19)
O7B O 1.0654(3) 1.4826(5) 0.54355(17)
O7A O -0.9346(3) 1.5174(5) 0.04355(17)
O8B O 1.0648(3) 1.2799(5) 0.51212(17)
O8C O -1.0648(3) 1.2799(5) -0.01212(17)
O9A O -0.8750(3) 1.1312(6) 0.1683(2)
O10A O -0.8739(3) 1.2333(6) 0.10641(19)
O11A O 0.1009(3) 1.7464(5) 0.22266(19)
O11_2 O -0.1009(3) 0.7464(5) 0.27734(19)
O11A_2 O 0.1009(3) 0.7464(5) 0.22266(19)
O12A O 0.0779(3) 1.5234(6) 0.2178(2)
O13A O -0.8925(3) 1.2670(5) 0.01383(19)
O14A O -0.8795(3) 1.0462(6) 0.0020(2)
O15A O -0.0034(3) 1.2727(5) 0.31661(16)
H1A H -0.0455 1.2334 0.3180
H2A H 0.0427 1.2453 0.3269
O16A O -0.0048(3) 0.9453(5) 0.32337(17)
H3A H 0.0401 0.9594 0.3393
H4A H -0.0413 0.9870 0.3313
O17A O -0.9795(4) 1.4590(7) 0.11981(19)
H5A H -1.0008 1.4383 0.1401
H6A H -0.9507 1.5123 0.1094
O18A O -1.0980(3) 1.4979(6) 0.04311(19)
H7A H -1.0842 1.5765 0.0362
H8A H -1.1473 1.4977 0.0384
O19A O -0.9884(3) 1.0645(6) 0.05180(19)
H9A H -1.0317 1.0430 0.0353
H10A H -0.9536 1.0327 0.0402
N1A N -0.3787(4) 1.0490(9) 0.1854(3)
N2A N -0.3401(4) 1.6110(7) 0.0973(2)
N3_2 N 0.3864(4) 1.2133(7) 0.4570(2)
N3B N 0.6136(4) 1.7867(7) 0.5430(2)
N4B N 1.3357(4) 1.3172(8) 0.6020(2)
N4_2 N 0.6643(4) 0.6828(8) 0.3980(2)
N4_3 N -0.3357(4) 1.6828(8) 0.3980(2)
N5A N -0.5983(4) 1.0693(8) 0.1598(3)
N6A N 0.3519(4) 1.5506(7) 0.2045(2)
N7A N -0.6100(4) 1.2168(7) 0.0139(2)
N7B N 0.3900(4) 1.7832(7) 0.5139(2)
C1A C -0.3526(5) 1.1779(10) 0.1937(3)
H13A H -0.3883 1.2492 0.1897
C2A C -0.2729(5) 1.2076(9) 0.2082(3)
H14A H -0.2562 1.2973 0.2136
C3A C -0.2204(4) 1.1024(7) 0.2143(2)
C4A C -0.2488(4) 0.9699(8) 0.2057(3)
H15A H -0.2147 0.8963 0.2099
C5A C -0.3271(5) 0.9484(10) 0.1908(3)
H16A H -0.3447 0.8597 0.1843
C6A C -0.1343(4) 1.1263(6) 0.2297(2)
C7A C -0.2975(5) 1.7245(9) 0.1017(3)
H17A H -0.3194 1.8023 0.0871
C8A C -0.2223(4) 1.7333(8) 0.1267(3)
H18A H -0.1951 1.8152 0.1290
C9A C -0.1881(4) 1.6168(6) 0.1484(2)
C10A C -0.2306(5) 1.4977(8) 0.1417(3)
H19A H -0.2086 1.4166 0.1539
C11A C -0.3056(5) 1.4981(8) 0.1169(3)
H20A H -0.3336 1.4168 0.1135
C12A C -0.1113(4) 1.6189(7) 0.1807(2)
C13_2 C 0.3588(4) 1.1393(8) 0.4211(3)
H21_2 H 0.3942 1.0954 0.4084
C14_2 C 0.2807(5) 1.1255(7) 0.4025(3)
H22_2 H 0.2645 1.0726 0.3780
C15_2 C 0.2258(4) 1.1909(7) 0.4205(2)
C16_2 C 0.2536(4) 1.2678(8) 0.4571(3)
H23_2 H 0.2193 1.3135 0.4702
C17_2 C 0.3325(4) 1.2758(8) 0.4740(3)
H24_2 H 0.3498 1.3276 0.4987
C18_2 C 0.1401(4) 1.1789(7) 0.3997(2)
C19B C 1.2988(5) 1.4362(9) 0.6040(3)
H25B H 1.3271 1.5093 0.6181
C20B C 1.2207(4) 1.4545(8) 0.5859(3)
H26B H 1.1969 1.5377 0.5886
C21B C 1.1778(4) 1.3474(8) 0.5635(2)
C22B C 1.2152(5) 1.2238(8) 0.5629(3)
H27B H 1.1880 1.1487 0.5493
C23B C 1.2936(5) 1.2122(9) 0.5824(3)
H28B H 1.3178 1.1281 0.5820
C24B C 1.0967(4) 1.3700(7) 0.5384(2)
C25A C -0.6398(5) 1.0382(9) 0.1886(3)
H29A H -0.6146 0.9944 0.2137
C26A C -0.7176(4) 1.0677(8) 0.1830(2)
H30A H -0.7439 1.0421 0.2037
C27A C -0.7563(4) 1.1353(7) 0.1466(3)
C28A C -0.7144(5) 1.1703(9) 0.1175(3)
H31A H -0.7385 1.2163 0.0926
C29A C -0.6372(5) 1.1385(10) 0.1246(3)
H32A H -0.6101 1.1654 0.1044
C30A C -0.8429(4) 1.1693(8) 0.1398(3)
C31A C 0.3244(5) 1.6773(8) 0.2047(3)
H33A H 0.3573 1.7500 0.2029
C32A C 0.2490(5) 1.7056(8) 0.2075(3)
H34A H 0.2316 1.7953 0.2067
C33A C 0.2004(4) 1.5999(7) 0.2113(2)
C34A C 0.2276(4) 1.4676(7) 0.2099(3)
H35A H 0.1953 1.3931 0.2104
C35A C 0.3032(5) 1.4496(8) 0.2077(3)
H36A H 0.3219 1.3607 0.2086
C36A C 0.1193(4) 1.6252(7) 0.2170(2)
C37A C -0.6568(5) 1.3244(8) 0.0158(3)
H37A H -0.6345 1.4106 0.0209
C38A C -0.7356(4) 1.3128(7) 0.0106(3)
H38A H -0.7656 1.3906 0.0110
C39A C -0.7707(4) 1.1858(7) 0.0048(2)
C40A C -0.7229(4) 1.0762(8) 0.0019(3)
H39A H -0.7441 0.9893 -0.0033
C41A C -0.6443(5) 1.0947(8) 0.0067(3)
H40A H -0.6137 1.0188 0.0049
C42A C -0.8545(4) 1.1655(8) 0.0061(3)
O20 O 1.0010(7) 0.7403(9) 0.3906(3)
H11 H 1.0211 0.7357 0.3690
H12 H 1.0045 0.6565 0.3976
loop_
_geom_bond_atom_site_label_1
_geom_bond_atom_site_label_2
_geom_bond_site_symmetry_1
_geom_bond_site_symmetry_2
Gd1 O1 1_555 1_555
Gd2 O2 1_555 1_555
Gd3 O6 1_555 1_555
Cu1 Br1 1_555 1_555
Cu2 Br2 1_555 1_555
Cu3 Br4 1_555 1_555
Cu4 Br4 1_555 1_555
Cu5 Br1 1_555 1_555
Br1 Cu2_2 1_555 1_555
Br2 Cu2A_2 1_555 1_555
Br3 Cu2 1_555 1_555
Br4 Cu3B 1_555 1_555
Br5 Cu3 1_555 1_555
O1 C6 1_555 1_555
O2 C6 1_555 1_555
O3 C12 1_555 1_555
O4 Gd1 1_555 1_555
O5 C18 1_555 1_555
O6 C18 1_555 1_555
O7 Gd3 1_555 1_555
O8 C24 1_555 1_555
O9 C30 1_555 1_555
O10 Gd3 1_555 1_555
O11 C36 1_555 1_555
O12 Gd1 1_555 1_555
O13 Gd3 1_555 1_555
O14 C42 1_555 1_555
O15 Gd1 1_555 1_555
H1 O15 1_555 1_555
H2 O15 1_555 1_555
O16 Gd2 1_555 1_555
H3 O16 1_555 1_555
H4 O16 1_555 1_555
O17 Gd3 1_555 1_555
H5 O17 1_555 1_555
H6 O17 1_555 1_555
O18 Gd3 1_555 1_555
H7 O18 1_555 1_555
H8 O18 1_555 1_555
O19 Gd3 1_555 1_555
H9 O19 1_555 1_555
H10 O19 1_555 1_555
O20 H11 1_555 1_555
H12 O20 1_555 1_555
N1 Cu1 1_555 1_555
N2 Cu3 1_555 1_555
N3 C13 1_555 1_555
N4 C19 1_555 1_555
N5 Cu1 1_555 1_555
N6 Cu2 1_555 1_555
N7 Cu4 1_555 1_555
C1 N1 1_555 1_555
H13 C1 1_555 1_555
C2 C1 1_555 1_555
H14 C2 1_555 1_555
C3 C2 1_555 1_555
C4 C3 1_555 1_555
H15 C4 1_555 1_555
C5 N1 1_555 1_555
H16 C5 1_555 1_555
C6 C3 1_555 1_555
C7 N2 1_555 1_555
H17 C7 1_555 1_555
C8 C7 1_555 1_555
H18 C8 1_555 1_555
C9 C8 1_555 1_555
C10 C9 1_555 1_555
H19 C10 1_555 1_555
C11 N2 1_555 1_555
H20 C11 1_555 1_555
C12 O4 1_555 1_555
C13 H21 1_555 1_555
C14 C13 1_555 1_555
H22 C14 1_555 1_555
C15 C14 1_555 1_555
C16 C15 1_555 1_555
H23 C16 1_555 1_555
C17 N3 1_555 1_555
H24 C17 1_555 1_555
C18 C15 1_555 1_555
C19 H25 1_555 1_555
C20 C19 1_555 1_555
H26 C20 1_555 1_555
C21 C20 1_555 1_555
C22 C21 1_555 1_555
H27 C22 1_555 1_555
C23 N4 1_555 1_555
H28 C23 1_555 1_555
C24 O7 1_555 1_555
C25 N5 1_555 1_555
H29 C25 1_555 1_555
C26 C25 1_555 1_555
H30 C26 1_555 1_555
C27 C26 1_555 1_555
C28 C27 1_555 1_555
H31 C28 1_555 1_555
C29 N5 1_555 1_555
H32 C29 1_555 1_555
C30 O10 1_555 1_555
C31 N6 1_555 1_555
H33 C31 1_555 1_555
C32 C31 1_555 1_555
H34 C32 1_555 1_555
C33 C32 1_555 1_555
C34 C33 1_555 1_555
H35 C34 1_555 1_555
C35 N6 1_555 1_555
H36 C35 1_555 1_555
C36 O12 1_555 1_555
C37 N7 1_555 1_555
H37 C37 1_555 1_555
C38 C37 1_555 1_555
H38 C38 1_555 1_555
C39 C38 1_555 1_555
C40 C39 1_555 1_555
H39 C40 1_555 1_555
C41 N7 1_555 1_555
H40 C41 1_555 1_555
C42 O13 1_555 1_555
Gd2_2 O3 1_555 1_555
Gd3A O6A 1_555 1_555
Gd3B O8 1_555 1_555
Gd3_2 O6_2 1_555 1_555
Cu1A Br1A 1_555 1_555
Cu1_2 Br1_2 1_555 1_555
Cu2A Br1A_2 1_555 1_555
Cu2_2 Br3_3 1_555 1_555
Cu2A_2 Br3A_2 1_555 1_555
Cu2_3 Br2_2 1_555 1_555
Cu3A Br3A_2 1_555 1_555
Cu3_2 Br3 1_555 1_555
Cu4B Br4 1_555 1_555
Cu4_2 N3 1_555 1_555
Cu4A Br4A 1_555 1_555
Cu5_2 Br3 1_555 1_555
Cu5_3 Br5 1_555 1_555
Cu5A Br3A_2 1_555 1_555
Cu5B N4B 1_555 1_555
Br1_2 Cu2 1_555 1_555
Br2_2 Cu2A 1_555 1_555
Br3_2 Cu3 1_555 1_555
Br3_3 Cu5 1_555 1_555
Br3A Cu2A 1_555 1_555
Br4A Cu3A 1_555 1_555
Br5A Cu3A 1_555 1_555
Br5_2 Cu5 1_555 1_555
Br5_3 Cu3_2 1_555 1_555
O1A Gd1 1_555 1_555
O2A Gd2 1_555 1_555
O3A Gd2_2 1_555 1_555
O3_2 Gd2 1_555 1_555
O3A_2 Gd2 1_555 1_555
O4A Gd1 1_555 1_555
O5_2 C18_2 1_555 1_555
O6_2 C18_2 1_555 1_555
O7B Gd3B 1_555 1_555
O7A Gd3A 1_555 1_555
O8B Gd3 1_555 1_555
O8C Gd3A 1_555 1_555
O9A C30A 1_555 1_555
O10A Gd3A 1_555 1_555
O11A Gd2_2 1_555 1_555
O11_2 Gd2 1_555 1_555
O11A_2 Gd2 1_555 1_555
O12A Gd1 1_555 1_555
O13A Gd3A 1_555 1_555
O14A C42A 1_555 1_555
O15A Gd1 1_555 1_555
H1A O15A 1_555 1_555
H2A O15A 1_555 1_555
O16A Gd2 1_555 1_555
H3A O16A 1_555 1_555
H4A O16A 1_555 1_555
O17A Gd3A 1_555 1_555
H5A O17A 1_555 1_555
H6A O17A 1_555 1_555
O18A Gd3A 1_555 1_555
H7A O18A 1_555 1_555
H8A O18A 1_555 1_555
O19A Gd3A 1_555 1_555
H9A O19A 1_555 1_555
H10A O19A 1_555 1_555
N1A Cu1A 1_555 1_555
N2A Cu3A 1_555 1_555
N3_2 Cu4 1_555 1_555
N3B Cu4B 1_555 1_555
N4B C19B 1_555 1_555
N4_2 Cu5 1_555 1_555
N4_3 Cu5_2 1_555 1_555
N5A Cu1A 1_555 1_555
N6A Cu2A 1_555 1_555
N7A Cu4A 1_555 1_555
N7B Cu4B 1_555 1_555
C1A N1A 1_555 1_555
H13A C1A 1_555 1_555
C2A C1A 1_555 1_555
H14A C2A 1_555 1_555
C3A C2A 1_555 1_555
C4A C3A 1_555 1_555
H15A C4A 1_555 1_555
C5A N1A 1_555 1_555
H16A C5A 1_555 1_555
C6A O1A 1_555 1_555
C7A N2A 1_555 1_555
H17A C7A 1_555 1_555
C8A C7A 1_555 1_555
H18A C8A 1_555 1_555
C9A C8A 1_555 1_555
C10A C9A 1_555 1_555
H19A C10A 1_555 1_555
C11A N2A 1_555 1_555
H20A C11A 1_555 1_555
C12A O3A 1_555 1_555
C13_2 N3_2 1_555 1_555
H21_2 C13_2 1_555 1_555
C14_2 C13_2 1_555 1_555
H22_2 C14_2 1_555 1_555
C15_2 C14_2 1_555 1_555
C16_2 C15_2 1_555 1_555
H23_2 C16_2 1_555 1_555
C17_2 N3_2 1_555 1_555
H24_2 C17_2 1_555 1_555
C18_2 C15_2 1_555 1_555
C19B H25B 1_555 1_555
C20B C19B 1_555 1_555
H26B C20B 1_555 1_555
C21B C20B 1_555 1_555
C22B C21B 1_555 1_555
H27B C22B 1_555 1_555
C23B N4B 1_555 1_555
H28B C23B 1_555 1_555
C24B O7B 1_555 1_555
C25A N5A 1_555 1_555
H29A C25A 1_555 1_555
C26A C25A 1_555 1_555
H30A C26A 1_555 1_555
C27A C26A 1_555 1_555
C28A C27A 1_555 1_555
H31A C28A 1_555 1_555
C29A N5A 1_555 1_555
H32A C29A 1_555 1_555
C30A O10A 1_555 1_555
C31A N6A 1_555 1_555
H33A C31A 1_555 1_555
C32A C31A 1_555 1_555
H34A C32A 1_555 1_555
C33A C32A 1_555 1_555
C34A C33A 1_555 1_555
H35A C34A 1_555 1_555
C35A N6A 1_555 1_555
H36A C35A 1_555 1_555
C36A O11A 1_555 1_555
C37A N7A 1_555 1_555
H37A C37A 1_555 1_555
C38A C37A 1_555 1_555
H38A C38A 1_555 1_555
C39A C38A 1_555 1_555
C40A C39A 1_555 1_555
H39A C40A 1_555 1_555
C41A N7A 1_555 1_555
H40A C41A 1_555 1_555
C42A O13A 1_555 1_555
O11 Gd2_2 1_555 1_555
N4 Cu5_3 1_555 1_555
C4 C5 1_555 1_555
C9 C12 1_555 1_555
C10 C11 1_555 1_555
C16 C17 1_555 1_555
C21 C24 1_555 1_555
C22 C23 1_555 1_555
C27 C30 1_555 1_555
C28 C29 1_555 1_555
C33 C36 1_555 1_555
C34 C35 1_555 1_555
C39 C42 1_555 1_555
C40 C41 1_555 1_555
Cu2_3 Br3_2 1_555 1_555
Cu5_2 Br1_2 1_555 1_555
Cu5_2 Br5_3 1_555 1_555
Cu5_3 Br3_2 1_555 1_555
Cu5A Br5A 1_555 1_555
O2A C6A 1_555 1_555
O4A C12A 1_555 1_555
O8B C24B 1_555 1_555
O12A C36A 1_555 1_555
C3A C6A 1_555 1_555
C4A C5A 1_555 1_555
C9A C12A 1_555 1_555
C10A C11A 1_555 1_555
C16_2 C17_2 1_555 1_555
C21B C24B 1_555 1_555
C22B C23B 1_555 1_555
C27A C30A 1_555 1_555
C28A C29A 1_555 1_555
C33A C36A 1_555 1_555
C34A C35A 1_555 1_555
C39A C42A 1_555 1_555
C40A C41A 1_555 1_555

#END
