
#######################################################################
#
#                 Cambridge Crystallographic Data Centre
#                                CCDC 
#
#######################################################################
#
# If this CIF has been generated from an entry in the Cambridge 
# Structural Database, then it will include bibliographic, chemical, 
# crystal, experimental, refinement or atomic coordinate data resulting 
# from the CCDC's data processing and validation procedures.
#
#######################################################################

data_OXUQEE
_symmetry_cell_setting           triclinic
_symmetry_space_group_name_H-M   'P -1'
_symmetry_Int_Tables_number      2
_space_group_name_Hall           '-P 1'
loop_
_symmetry_equiv_pos_site_id
_symmetry_equiv_pos_as_xyz
1 x,y,z
2 -x,-y,-z
_cell_length_a                   9.165(4)
_cell_length_b                   12.917(6)
_cell_length_c                   13.188(6)
_cell_angle_alpha                96.506(9)
_cell_angle_beta                 91.320(8)
_cell_angle_gamma                93.958(8)
_cell_volume                     1546.75
loop_
_atom_site_label
_atom_site_type_symbol
_atom_site_fract_x
_atom_site_fract_y
_atom_site_fract_z
Cd1 Cd -0.27323(12) -0.12165(9) 0.08019(9)
N1 N -0.1610(14) 0.0009(11) 0.1950(9)
N2 N 0.0003(13) 0.1270(9) 0.2669(9)
N3 N 0.4802(15) 0.3267(11) 0.1887(10)
N4 N 0.4076(13) 0.2207(10) 0.0496(10)
O1 O -0.2449(11) -0.0032(9) -0.0411(9)
O2 O -0.1365(11) -0.2658(9) 0.0885(10)
O3 O 0.0119(12) -0.1400(8) 0.0435(9)
O4 O 0.5851(10) -0.1655(8) 0.2282(8)
O5 O 0.4857(11) -0.0662(9) 0.1266(8)
C1 C -0.0411(16) 0.0563(15) 0.1879(11)
H1 H 0.0149 0.0476 0.1300
C2 C -0.2094(17) 0.0443(14) 0.2935(12)
H2 H -0.2976 0.0255 0.3225
C3 C -0.1058(17) 0.1163(14) 0.3366(11)
H3 H -0.1067 0.1521 0.4019
C4 C 0.1326(17) 0.1944(12) 0.2778(14)
H4 H 0.1876 0.1837 0.2159
H5 H 0.1923 0.1761 0.3338
C5 C 0.1001(16) 0.3127(12) 0.2986(11)
C6 C -0.0229(19) 0.3476(14) 0.2542(15)
H6 H -0.0841 0.3005 0.2113
C7 C -0.057(2) 0.450(2) 0.272(2)
H7 H -0.1383 0.4736 0.2409
C8 C 0.033(3) 0.5127(17) 0.3362(17)
H8 H 0.0121 0.5823 0.3486
C9 C 0.155(2) 0.4832(15) 0.3858(16)
H9 H 0.2103 0.5306 0.4322
C10 C 0.1937(19) 0.3787(13) 0.3641(12)
C11 C 0.3273(17) 0.3439(13) 0.4154(12)
C12 C 0.322(2) 0.2963(16) 0.5009(13)
H10 H 0.2320 0.2839 0.5296
C13 C 0.446(3) 0.265(2) 0.5485(15)
H11 H 0.4389 0.2292 0.6059
C14 C 0.576(2) 0.2874(19) 0.5085(15)
H12 H 0.6607 0.2694 0.5400
C15 C 0.586(2) 0.3356(16) 0.4240(13)
H13 H 0.6779 0.3508 0.3991
C16 C 0.4649(17) 0.3635(13) 0.3726(10)
C17 C 0.4818(18) 0.4113(13) 0.2730(11)
H14 H 0.4022 0.4553 0.2633
H15 H 0.5732 0.4541 0.2748
C18 C 0.5780(17) 0.2500(15) 0.1755(14)
H16 H 0.6596 0.2433 0.2169
C19 C 0.533(2) 0.1871(17) 0.0916(13)
H17 H 0.5791 0.1287 0.0651
C20 C 0.3824(17) 0.3039(11) 0.1101(11)
H18 H 0.3040 0.3440 0.1001
C21 C -0.0137(15) -0.2287(12) 0.0712(10)
C22 C 0.1138(14) -0.2964(10) 0.0789(11)
C23 C 0.1198(18) -0.3833(12) 0.0080(12)
H19 H 0.0432 -0.4003 -0.0398
C24 C 0.2377(18) -0.4463(12) 0.0064(13)
H20 H 0.2409 -0.5032 -0.0433
C25 C 0.3475(18) -0.4238(13) 0.0778(14)
H21 H 0.4266 -0.4653 0.0767
C26 C 0.3429(15) -0.3420(12) 0.1502(12)
H22 H 0.4174 -0.3296 0.2001
C27 C 0.2255(13) -0.2729(10) 0.1526(9)
C28 C 0.2249(14) -0.1846(11) 0.2387(11)
C29 C 0.1012(17) -0.1790(13) 0.2956(11)
H23 H 0.0212 -0.2266 0.2788
C30 C 0.0954(17) -0.1021(14) 0.3783(11)
H24 H 0.0099 -0.0966 0.4146
C31 C 0.2154(19) -0.0343(14) 0.4063(12)
H25 H 0.2145 0.0150 0.4634
C32 C 0.3383(17) -0.0415(14) 0.3468(11)
H26 H 0.4191 0.0055 0.3634
C33 C 0.3441(15) -0.1172(11) 0.2630(10)
C34 C 0.4784(15) -0.1176(11) 0.2002(10)
Cd1A Cd 0.27323(12) 0.12165(9) -0.08019(9)
Cd1_2 Cd 0.72677(12) -0.12165(9) 0.08019(9)
N4A N -0.4076(13) -0.2207(10) -0.0496(10)
O4_2 O -0.4149(10) -0.1655(8) 0.2282(8)
O5_2 O -0.5143(11) -0.0662(9) 0.1266(8)
O6 O -0.2746(18) -0.3674(15) 0.2354(13)
loop_
_geom_bond_atom_site_label_1
_geom_bond_atom_site_label_2
_geom_bond_site_symmetry_1
_geom_bond_site_symmetry_2
Cd1 N1 1_555 1_555
N1 C1 1_555 1_555
N2 C1 1_555 1_555
N3 C17 1_555 1_555
N4 C19 1_555 1_555
O1 Cd1 1_555 1_555
O2 Cd1 1_555 1_555
O3 C21 1_555 1_555
O4 C34 1_555 1_555
O5 C34 1_555 1_555
C1 H1 1_555 1_555
C2 N1 1_555 1_555
H2 C2 1_555 1_555
C3 N2 1_555 1_555
H3 C3 1_555 1_555
C4 N2 1_555 1_555
H4 C4 1_555 1_555
H5 C4 1_555 1_555
C5 C4 1_555 1_555
C6 C5 1_555 1_555
H6 C6 1_555 1_555
C7 C6 1_555 1_555
H7 C7 1_555 1_555
C8 C7 1_555 1_555
H8 C8 1_555 1_555
C9 C8 1_555 1_555
H9 C9 1_555 1_555
C10 C5 1_555 1_555
C11 C10 1_555 1_555
C12 C11 1_555 1_555
H10 C12 1_555 1_555
C13 C12 1_555 1_555
H11 C13 1_555 1_555
C14 C13 1_555 1_555
H12 C14 1_555 1_555
C15 C14 1_555 1_555
H13 C15 1_555 1_555
C16 C11 1_555 1_555
C17 C16 1_555 1_555
H14 C17 1_555 1_555
H15 C17 1_555 1_555
C18 N3 1_555 1_555
H16 C18 1_555 1_555
C19 C18 1_555 1_555
H17 C19 1_555 1_555
C20 N3 1_555 1_555
H18 C20 1_555 1_555
C21 O2 1_555 1_555
C22 C21 1_555 1_555
C23 C22 1_555 1_555
H19 C23 1_555 1_555
C24 C23 1_555 1_555
H20 C24 1_555 1_555
C25 C24 1_555 1_555
H21 C25 1_555 1_555
C26 C25 1_555 1_555
H22 C26 1_555 1_555
C27 C22 1_555 1_555
C28 C27 1_555 1_555
C29 C28 1_555 1_555
H23 C29 1_555 1_555
C30 C29 1_555 1_555
H24 C30 1_555 1_555
C31 C30 1_555 1_555
H25 C31 1_555 1_555
C32 C31 1_555 1_555
H26 C32 1_555 1_555
C33 C28 1_555 1_555
C34 C33 1_555 1_555
Cd1A N4 1_555 1_555
Cd1_2 O4 1_555 1_555
N4A Cd1 1_555 1_555
O4_2 Cd1 1_555 1_555
O5_2 Cd1 1_555 1_555
N4 C20 1_555 1_555
O5 Cd1_2 1_555 1_555
C2 C3 1_555 1_555
C9 C10 1_555 1_555
C15 C16 1_555 1_555
C26 C27 1_555 1_555
C32 C33 1_555 1_555

#END
