
#######################################################################
#
#                 Cambridge Crystallographic Data Centre
#                                CCDC 
#
#######################################################################
#
# If this CIF has been generated from an entry in the Cambridge 
# Structural Database, then it will include bibliographic, chemical, 
# crystal, experimental, refinement or atomic coordinate data resulting 
# from the CCDC's data processing and validation procedures.
#
#######################################################################

data_OXUSUW
_symmetry_cell_setting           triclinic
_symmetry_space_group_name_H-M   'P -1'
_symmetry_Int_Tables_number      2
_space_group_name_Hall           '-P 1'
loop_
_symmetry_equiv_pos_site_id
_symmetry_equiv_pos_as_xyz
1 x,y,z
2 -x,-y,-z
_cell_length_a                   9.4494(17)
_cell_length_b                   9.6079(18)
_cell_length_c                   21.179(4)
_cell_angle_alpha                77.339(6)
_cell_angle_beta                 84.574(8)
_cell_angle_gamma                86.536(6)
_cell_volume                     1866.1
loop_
_atom_site_label
_atom_site_type_symbol
_atom_site_fract_x
_atom_site_fract_y
_atom_site_fract_z
C1 C 0.8330(7) 1.0539(7) 0.3239(3)
C2 C 0.8005(6) 1.1401(7) 0.2586(3)
C3 C 0.6756(8) 1.1241(8) 0.2333(3)
H1 H 0.6115 1.0577 0.2562
C4 C 0.6457(7) 1.2066(8) 0.1741(3)
H2 H 0.5606 1.1954 0.1573
C5 C 0.7377(8) 1.3044(8) 0.1394(3)
H3 H 0.7154 1.3615 0.0999
C6 C 0.8659(8) 1.3164(7) 0.1646(3)
C7 C 0.8985(7) 1.2368(6) 0.2243(3)
H4 H 0.9837 1.2476 0.2411
C8 C 1.0693(8) 1.4556(7) 0.1549(3)
C9 C 1.0451(10) 1.5571(8) 0.1913(4)
H5 H 0.9534 1.5938 0.1991
C10 C 1.1594(15) 1.6051(10) 0.2166(5)
H6 H 1.1435 1.6740 0.2415
C11 C 1.2919(13) 1.5527(10) 0.2053(5)
H7 H 1.3672 1.5842 0.2230
C12 C 1.3167(10) 1.4522(8) 0.1676(4)
H8 H 1.4095 1.4190 0.1591
C13 C 1.2074(8) 1.3995(7) 0.1420(3)
C14 C 1.2349(8) 1.2830(7) 0.1072(3)
C15 C 0.2330(8) 0.9640(7) 0.2318(3)
H9 H 0.1478 1.0141 0.2217
C16 C 0.2521(8) 0.9061(8) 0.2945(3)
H10 H 0.1823 0.9193 0.3269
C17 C 0.3747(8) 0.8277(8) 0.3105(3)
H11 H 0.3869 0.7827 0.3533
C18 C 0.4781(7) 0.8171(7) 0.2622(3)
H12 H 0.5641 0.7684 0.2718
C19 C 0.4539(6) 0.8794(6) 0.1987(3)
C20 C 0.5613(6) 0.8757(6) 0.1442(3)
C21 C 0.7509(6) 0.8536(6) 0.0876(3)
C22 C 0.9005(6) 0.8251(6) 0.0673(3)
C23 C 1.0074(6) 0.9061(6) 0.0802(3)
H13 H 0.9825 0.9784 0.1025
C24 C 1.1793(7) 0.7781(7) 0.0300(3)
H14 H 1.2744 0.7604 0.0173
C25 C 1.0787(7) 0.6952(7) 0.0161(3)
H15 H 1.1061 0.6225 -0.0057
C26 C 0.9375(7) 0.7190(7) 0.0341(3)
H16 H 0.8684 0.6644 0.0239
C27 C 0.6800(6) 0.8252(7) 0.5822(3)
H17 H 0.7668 0.8366 0.5974
C28 C 0.5652(7) 0.7951(8) 0.6255(3)
H18 H 0.5740 0.7846 0.6697
C29 C 0.4351(7) 0.7802(8) 0.6036(3)
H19 H 0.3553 0.7598 0.6327
C30 C 0.4253(6) 0.7957(6) 0.5389(3)
C31 C 0.5457(6) 0.8233(6) 0.4974(3)
H20 H 0.5394 0.8315 0.4531
C32 C 0.2879(6) 0.7819(6) 0.5115(3)
C33 C 0.1309(6) 0.7138(6) 0.4643(3)
C34 C 0.0495(6) 0.6346(6) 0.4282(3)
C35 C 0.1017(8) 0.5104(7) 0.4106(3)
H21 H 0.1916 0.4720 0.4206
C36 C 0.0149(9) 0.4436(8) 0.3769(4)
H22 H 0.0464 0.3587 0.3649
C37 C -0.1131(8) 0.5019(8) 0.3621(4)
H23 H -0.1710 0.4598 0.3391
C38 C -0.1569(8) 0.6263(9) 0.3819(4)
H24 H -0.2466 0.6657 0.3721
Cd1 Cd 0.86482(4) 0.91828(5) 0.44568(2)
Cd2 Cd 1.31785(4) 1.04116(5) 0.06523(2)
N1 N 1.1452(5) 0.8837(5) 0.0614(2)
N2 N 0.6551(5) 0.9062(5) 0.0456(2)
N3 N 0.5294(5) 0.9216(5) 0.0829(2)
N4 N 0.6965(5) 0.8324(5) 0.1501(2)
N5 N 0.3332(6) 0.9520(5) 0.1831(2)
N6 N 0.6729(5) 0.8390(5) 0.5186(2)
N7 N 0.2646(5) 0.6803(5) 0.4796(2)
N8 N 0.1753(5) 0.8719(5) 0.5153(2)
N9 N 0.0735(5) 0.8265(5) 0.4839(2)
N10 N -0.0787(5) 0.6935(6) 0.4142(3)
O1 O 0.9508(5) 1.0664(5) 0.3455(2)
O2 O 0.7403(4) 0.9715(5) 0.3554(2)
O3 O 1.1459(5) 1.1926(5) 0.1083(2)
O4 O 1.3602(5) 1.2727(5) 0.0788(2)
O5 O 0.9553(5) 1.4174(5) 0.1267(2)
Cd1A Cd 0.13518(4) 1.08172(5) 0.55432(2)
Cd1_2 Cd -0.13518(4) 0.91828(5) 0.44568(2)
Cd2A Cd 0.68215(4) 0.95884(5) -0.06523(2)
Cd2_2 Cd 0.31785(4) 1.04116(5) 0.06523(2)
N2A N 1.3449(5) 1.0938(5) -0.0456(2)
N3_2 N 1.5294(5) 0.9216(5) 0.0829(2)
N5_2 N 1.3332(6) 0.9520(5) 0.1831(2)
N8A N 0.8247(5) 1.1281(5) 0.4847(2)
N9_2 N 1.0735(5) 0.8265(5) 0.4839(2)
N10_2 N 0.9213(5) 0.6935(6) 0.4142(3)
O6 O 0.526(2) 0.5327(14) 0.4406(9)
H25 H 0.494(6) 0.602(5) 0.455(3)
H26 H 0.568(8) 0.553(7) 0.4040(16)
O7 O 0.5912(18) 0.461(3) 0.0170(11)
H27 H 0.586(8) 0.477(8) -0.0223(12)
H28 H 0.538(10) 0.511(6) 0.036(3)
loop_
_geom_bond_atom_site_label_1
_geom_bond_atom_site_label_2
_geom_bond_site_symmetry_1
_geom_bond_site_symmetry_2
C1 C2 1_555 1_555
C2 C3 1_555 1_555
C3 H1 1_555 1_555
C4 C3 1_555 1_555
H2 C4 1_555 1_555
C5 C4 1_555 1_555
H3 C5 1_555 1_555
C6 C5 1_555 1_555
C7 C2 1_555 1_555
H4 C7 1_555 1_555
C8 C9 1_555 1_555
C9 H5 1_555 1_555
C10 C9 1_555 1_555
H6 C10 1_555 1_555
C11 C10 1_555 1_555
H7 C11 1_555 1_555
C12 C11 1_555 1_555
H8 C12 1_555 1_555
C13 C8 1_555 1_555
C14 C13 1_555 1_555
C15 H9 1_555 1_555
C16 C15 1_555 1_555
H10 C16 1_555 1_555
C17 C16 1_555 1_555
H11 C17 1_555 1_555
C18 C17 1_555 1_555
H12 C18 1_555 1_555
C19 C18 1_555 1_555
C20 C19 1_555 1_555
C21 C22 1_555 1_555
C22 C23 1_555 1_555
C23 H13 1_555 1_555
C24 H14 1_555 1_555
C25 C24 1_555 1_555
H15 C25 1_555 1_555
C26 C22 1_555 1_555
H16 C26 1_555 1_555
C27 H17 1_555 1_555
C28 C27 1_555 1_555
H18 C28 1_555 1_555
C29 C28 1_555 1_555
H19 C29 1_555 1_555
C30 C29 1_555 1_555
C31 C30 1_555 1_555
H20 C31 1_555 1_555
C32 C30 1_555 1_555
C33 C34 1_555 1_555
C34 C35 1_555 1_555
C35 H21 1_555 1_555
C36 C35 1_555 1_555
H22 C36 1_555 1_555
C37 C36 1_555 1_555
H23 C37 1_555 1_555
C38 C37 1_555 1_555
H24 C38 1_555 1_555
Cd1 N6 1_555 1_555
Cd2 N1 1_555 1_555
N1 C23 1_555 1_555
N2 C21 1_555 1_555
N3 C20 1_555 1_555
N4 C20 1_555 1_555
N5 C15 1_555 1_555
N6 C27 1_555 1_555
N7 C32 1_555 1_555
N8 C32 1_555 1_555
N9 C33 1_555 1_555
N10 C34 1_555 1_555
O1 C1 1_555 1_555
O2 C1 1_555 1_555
O3 C14 1_555 1_555
O4 C14 1_555 1_555
O5 C6 1_555 1_555
O6 H25 1_555 1_555
O7 H27 1_555 1_555
H26 O6 1_555 1_555
H28 O7 1_555 1_555
Cd1A N8 1_555 1_555
Cd1_2 N9 1_555 1_555
Cd2A N2 1_555 1_555
Cd2_2 N3 1_555 1_555
N2A Cd2 1_555 1_555
N3_2 Cd2 1_555 1_555
N5_2 Cd2 1_555 1_555
N8A Cd1 1_555 1_555
N9_2 Cd1 1_555 1_555
N10_2 Cd1 1_555 1_555
C6 C7 1_555 1_555
C8 O5 1_555 1_555
C12 C13 1_555 1_555
C19 N5 1_555 1_555
C21 N4 1_555 1_555
C24 N1 1_555 1_555
C25 C26 1_555 1_555
C31 N6 1_555 1_555
C33 N7 1_555 1_555
C38 N10 1_555 1_555
Cd1 O1 1_555 1_555
Cd1 O2 1_555 1_555
Cd2 O3 1_555 1_555
Cd2 O4 1_555 1_555
N2 N3 1_555 1_555
N5 Cd2_2 1_555 1_555
N8 N9 1_555 1_555
N10 Cd1_2 1_555 1_555

#END
