
#######################################################################
#
#                 Cambridge Crystallographic Data Centre
#                                CCDC 
#
#######################################################################
#
# If this CIF has been generated from an entry in the Cambridge 
# Structural Database, then it will include bibliographic, chemical, 
# crystal, experimental, refinement or atomic coordinate data resulting 
# from the CCDC's data processing and validation procedures.
#
#######################################################################

data_OXUVEJ
_symmetry_cell_setting           orthorhombic
_symmetry_space_group_name_H-M   'P n a 21'
_symmetry_Int_Tables_number      33
_space_group_name_Hall           'P 2c -2n'
loop_
_symmetry_equiv_pos_site_id
_symmetry_equiv_pos_as_xyz
1 x,y,z
2 -x,-y,1/2+z
3 1/2+x,1/2-y,z
4 1/2-x,1/2+y,1/2+z
_cell_length_a                   16.486(4)
_cell_length_b                   8.3687(17)
_cell_length_c                   18.599(4)
_cell_angle_alpha                90
_cell_angle_beta                 90
_cell_angle_gamma                90
_cell_volume                     2566.04
loop_
_atom_site_label
_atom_site_type_symbol
_atom_site_fract_x
_atom_site_fract_y
_atom_site_fract_z
N1 N -0.01695(13) 0.6774(2) 0.80812(12)
C1 C -0.07794(16) 0.5827(4) 0.78724(16)
C2 C 0.05795(15) 0.6468(3) 0.78349(14)
C3 C -0.06613(17) 0.4531(4) 0.74392(18)
C4 C 0.01072(17) 0.4193(4) 0.71955(17)
C5 C 0.07515(15) 0.5196(3) 0.73812(14)
Cu1 Cu -0.040810(14) 0.83121(3) 0.889640(19)
C6 C -0.48726(15) 0.9028(3) 0.97677(14)
C7 C -0.42667(16) 1.0017(3) 1.01966(13)
C8 C -0.45345(15) 1.1240(4) 1.06284(15)
H1 H -0.5085 1.1476 1.0653
C9 C -0.39848(18) 1.2116(4) 1.10254(16)
H2 H -0.4167 1.2944 1.1317
C10 C -0.31658(17) 1.1774(3) 1.09930(15)
H3 H -0.2802 1.2366 1.1266
C11 C -0.28813(14) 1.0545(3) 1.05524(13)
C12 C -0.34430(14) 0.9667(3) 1.01618(13)
H4 H -0.3266 0.8832 0.9872
C13 C -0.19980(15) 1.0200(3) 1.05122(13)
C14 C -0.14873(16) 1.0381(3) 1.11045(13)
H5 H -0.1695 1.0730 1.1542
C15 C -0.06743(17) 1.0041(4) 1.10357(14)
H6 H -0.0326 1.0166 1.1425
C16 C -0.03837(15) 0.9515(4) 1.03862(15)
H7 H 0.0166 0.9285 1.0346
C17 C -0.16458(14) 0.9669(3) 0.98795(13)
H8 H -0.1977 0.9549 0.9478
C18 C 0.37910(15) 0.5121(3) 0.77301(12)
C19 C 0.30400(16) 0.4794(3) 0.72894(13)
C20 C 0.22734(14) 0.5180(3) 0.75294(13)
H9 H 0.2213 0.5664 0.7976
C21 C 0.15838(15) 0.4860(3) 0.71155(13)
C22 C 0.16976(16) 0.4171(3) 0.64397(14)
H10 H 0.1250 0.3980 0.6147
C23 C 0.24576(17) 0.3772(4) 0.61995(14)
H11 H 0.2519 0.3303 0.5749
C24 C 0.31324(15) 0.4058(3) 0.66194(13)
H12 H 0.3645 0.3764 0.6458
H13 H 0.1002 0.7140 0.7974
H14 H 0.0198 0.3306 0.6908
H15 H -0.1096 0.3884 0.7312
H16 H -0.1301 0.6064 0.8028
C25 C 0.0439(2) 1.1862(4) 0.8920(4)
H17 H -0.0095 1.2303 0.8873
H18 H 0.0571 1.1751 0.9421
H19 H 0.0825 1.2560 0.8694
N2 N -0.08552(11) 0.9318(2) 0.98104(10)
O1 O -0.55880(11) 0.9447(3) 0.97406(13)
O2 O -0.45810(9) 0.7810(2) 0.94481(10)
O3 O 0.44589(11) 0.4736(3) 0.74716(11)
O4 O 0.36829(9) 0.5772(2) 0.83378(9)
O5 O 0.04656(11) 1.0354(3) 0.85879(12)
H27 H 0.0261(19) 1.044(4) 0.8166(12)
Cu1B Cu -0.540810(14) 0.66879(3) 0.889640(19)
Cu1B_2 Cu 0.459190(14) 0.66879(3) 0.889640(19)
O2B O 0.04190(9) 0.7190(2) 0.94481(10)
O4B O -0.13171(9) 0.9228(2) 0.83378(9)
C26 C 0.77340(19) 0.9616(4) 0.30124(18)
H20 H 0.7722 0.8685 0.2740
C27 C 0.7605(2) 1.0910(5) 0.41557(18)
H21 H 0.8072 1.0806 0.4460
H22 H 0.7127 1.1016 0.4447
H23 H 0.7663 1.1840 0.3858
C28 C 0.7242(3) 0.8051(5) 0.4027(3)
H24 H 0.6681 0.8171 0.4154
H25 H 0.7553 0.7819 0.4450
H26 H 0.7299 0.7191 0.3689
N3 N 0.75326(14) 0.9509(3) 0.37072(12)
O6 O 0.79284(16) 1.0830(3) 0.27176(13)
loop_
_geom_bond_atom_site_label_1
_geom_bond_atom_site_label_2
_geom_bond_site_symmetry_1
_geom_bond_site_symmetry_2
N1 C1 1_555 1_555
C1 C3 1_555 1_555
C2 N1 1_555 1_555
C3 C4 1_555 1_555
C4 C5 1_555 1_555
C5 C2 1_555 1_555
Cu1 N1 1_555 1_555
C6 C7 1_555 1_555
C7 C8 1_555 1_555
C8 H1 1_555 1_555
C9 C8 1_555 1_555
H2 C9 1_555 1_555
C10 C9 1_555 1_555
H3 C10 1_555 1_555
C11 C10 1_555 1_555
C12 C7 1_555 1_555
H4 C12 1_555 1_555
C13 C11 1_555 1_555
C14 C13 1_555 1_555
H5 C14 1_555 1_555
C15 C14 1_555 1_555
H6 C15 1_555 1_555
C16 C15 1_555 1_555
H7 C16 1_555 1_555
C17 C13 1_555 1_555
H8 C17 1_555 1_555
C18 C19 1_555 1_555
C19 C20 1_555 1_555
C20 H9 1_555 1_555
C21 C5 1_555 1_555
C22 C21 1_555 1_555
H10 C22 1_555 1_555
C23 C22 1_555 1_555
H11 C23 1_555 1_555
C24 C19 1_555 1_555
H12 C24 1_555 1_555
H13 C2 1_555 1_555
H14 C4 1_555 1_555
H15 C3 1_555 1_555
H16 C1 1_555 1_555
C25 H17 1_555 1_555
H18 C25 1_555 1_555
H19 C25 1_555 1_555
C26 H20 1_555 1_555
C27 H21 1_555 1_555
H22 C27 1_555 1_555
H23 C27 1_555 1_555
C28 H24 1_555 1_555
H25 C28 1_555 1_555
H26 C28 1_555 1_555
N2 Cu1 1_555 1_555
N3 C26 1_555 1_555
O1 C6 1_555 1_555
O2 C6 1_555 1_555
O3 C18 1_555 1_555
O4 C18 1_555 1_555
O5 Cu1 1_555 1_555
O6 C26 1_555 1_555
H27 O5 1_555 1_555
Cu1B O2 1_555 1_555
Cu1B_2 O4 1_555 1_555
O2B Cu1 1_555 1_555
O4B Cu1 1_555 1_555
C11 C12 1_555 1_555
C16 N2 1_555 1_555
C17 N2 1_555 1_555
C20 C21 1_555 1_555
C23 C24 1_555 1_555
C25 O5 1_555 1_555
C27 N3 1_555 1_555
C28 N3 1_555 1_555

#END
