
#######################################################################
#
#                 Cambridge Crystallographic Data Centre
#                                CCDC 
#
#######################################################################
#
# If this CIF has been generated from an entry in the Cambridge 
# Structural Database, then it will include bibliographic, chemical, 
# crystal, experimental, refinement or atomic coordinate data resulting 
# from the CCDC's data processing and validation procedures.
#
#######################################################################

data_OXUVIN
_symmetry_cell_setting           monoclinic
_symmetry_space_group_name_H-M   'P 21/c'
_symmetry_Int_Tables_number      14
_space_group_name_Hall           '-P 2ybc'
loop_
_symmetry_equiv_pos_site_id
_symmetry_equiv_pos_as_xyz
1 x,y,z
2 -x,1/2+y,1/2-z
3 -x,-y,-z
4 x,1/2-y,1/2+z
_cell_length_a                   10.4720(7)
_cell_length_b                   12.8992(9)
_cell_length_c                   16.0309(11)
_cell_angle_alpha                90
_cell_angle_beta                 95.958(1)
_cell_angle_gamma                90
_cell_volume                     2153.76
loop_
_atom_site_label
_atom_site_type_symbol
_atom_site_fract_x
_atom_site_fract_y
_atom_site_fract_z
Ni1 Ni 0.35371(2) 0.160370(19) 0.958654(16)
O1 O 0.38073(13) 0.03372(11) 0.87232(9)
O2 O 0.19574(13) 0.06311(11) 0.92000(9)
O3 O 0.68377(15) 0.13260(12) 0.97256(13)
O4 O 0.51889(13) 0.23863(11) 0.98076(10)
O5 O 0.40006(13) 0.06033(11) 1.05711(9)
H1 H 0.4780 0.0493 1.0753
H2 H 0.3657 0.0007 1.0515
N1 N -0.29760(16) -0.24299(13) 0.64449(11)
N2 N 1.26825(15) 0.25820(13) 1.04108(11)
C1 C 0.26430(19) 0.01075(16) 0.87532(13)
C2 C 0.20749(19) -0.07859(16) 0.82454(13)
C3 C 0.2861(2) -0.15184(19) 0.79367(16)
H3 H 0.3749 -0.1456 0.8037
C4 C 0.2329(2) -0.2341(2) 0.74799(19)
H4 H 0.2857 -0.2847 0.7286
C5 C 0.1014(2) -0.2419(2) 0.73080(17)
H5 H 0.0666 -0.2981 0.7000
C6 C 0.0199(2) -0.16753(17) 0.75865(14)
C7 C 0.0752(2) -0.08658(16) 0.80717(12)
H6 H 0.0226 -0.0370 0.8283
C8 C -0.1219(2) -0.17193(16) 0.73619(13)
C9 C -0.1729(2) -0.23646(16) 0.67206(13)
H7 H -0.1162 -0.2783 0.6463
C10 C -0.3792(2) -0.18419(18) 0.68259(14)
H8 H -0.4664 -0.1875 0.6645
C11 C -0.3380(2) -0.1188(2) 0.74784(15)
H9 H -0.3968 -0.0788 0.7734
C12 C -0.2087(2) -0.11295(19) 0.77502(15)
H10 H -0.1801 -0.0695 0.8193
C13 C 0.63680(19) 0.21746(16) 0.98714(13)
C14 C 0.72594(18) 0.30500(16) 1.01690(13)
C15 C 0.6787(2) 0.40382(17) 1.02792(15)
H11 H 0.5915 0.4172 1.0157
C16 C 0.7608(2) 0.48220(17) 1.05697(16)
H12 H 0.7286 0.5483 1.0646
C17 C 0.8905(2) 0.46337(17) 1.07490(14)
H13 H 0.9451 0.5170 1.0941
C18 C 0.94021(19) 0.36480(16) 1.06441(13)
C19 C 0.85645(18) 0.28630(15) 1.03517(13)
H14 H 0.8883 0.2200 1.0277
C20 C 1.08048(19) 0.34550(15) 1.08113(13)
C21 C 1.14117(18) 0.27458(16) 1.03404(13)
H15 H 1.0903 0.2355 0.9947
C22 C 1.33982(19) 0.31123(17) 1.10090(14)
H16 H 1.4280 0.3001 1.1078
C23 C 1.2879(2) 0.38116(19) 1.15230(15)
H17 H 1.3402 0.4159 1.1937
C24 C 1.1576(2) 0.39952(18) 1.14217(14)
H18 H 1.1216 0.4477 1.1759
Ni1A Ni -0.35371(2) -0.339630(19) 0.541346(16)
Ni1_2 Ni 1.35371(2) 0.160370(19) 0.958654(16)
N1A N 0.29760(16) 0.25701(13) 0.85551(11)
N2_2 N 0.26825(15) 0.25820(13) 1.04108(11)
O6 O 0.9137(2) 0.0608(2) 0.92610(19)
loop_
_geom_bond_atom_site_label_1
_geom_bond_atom_site_label_2
_geom_bond_site_symmetry_1
_geom_bond_site_symmetry_2
Ni1 O1 1_555 1_555
O1 C1 1_555 1_555
O2 Ni1 1_555 1_555
O3 C13 1_555 1_555
O4 Ni1 1_555 1_555
O5 Ni1 1_555 1_555
H1 O5 1_555 1_555
H2 O5 1_555 1_555
N1 C9 1_555 1_555
N2 C21 1_555 1_555
C1 O2 1_555 1_555
C2 C1 1_555 1_555
C3 C2 1_555 1_555
H3 C3 1_555 1_555
C4 C3 1_555 1_555
H4 C4 1_555 1_555
C5 C4 1_555 1_555
H5 C5 1_555 1_555
C6 C5 1_555 1_555
C7 C2 1_555 1_555
H6 C7 1_555 1_555
C8 C6 1_555 1_555
C9 C8 1_555 1_555
H7 C9 1_555 1_555
C10 N1 1_555 1_555
H8 C10 1_555 1_555
C11 C10 1_555 1_555
H9 C11 1_555 1_555
C12 C8 1_555 1_555
H10 C12 1_555 1_555
C13 O4 1_555 1_555
C14 C13 1_555 1_555
C15 C14 1_555 1_555
H11 C15 1_555 1_555
C16 C15 1_555 1_555
H12 C16 1_555 1_555
C17 C16 1_555 1_555
H13 C17 1_555 1_555
C18 C17 1_555 1_555
C19 C14 1_555 1_555
H14 C19 1_555 1_555
C20 C18 1_555 1_555
C21 C20 1_555 1_555
H15 C21 1_555 1_555
C22 N2 1_555 1_555
H16 C22 1_555 1_555
C23 C22 1_555 1_555
H17 C23 1_555 1_555
C24 C20 1_555 1_555
H18 C24 1_555 1_555
Ni1A N1 1_555 1_555
Ni1_2 N2 1_555 1_555
N1A Ni1 1_555 1_555
N2_2 Ni1 1_555 1_555
C6 C7 1_555 1_555
C11 C12 1_555 1_555
C18 C19 1_555 1_555
C23 C24 1_555 1_555

#END
