
#######################################################################
#
#                 Cambridge Crystallographic Data Centre
#                                CCDC 
#
#######################################################################
#
# If this CIF has been generated from an entry in the Cambridge 
# Structural Database, then it will include bibliographic, chemical, 
# crystal, experimental, refinement or atomic coordinate data resulting 
# from the CCDC's data processing and validation procedures.
#
#######################################################################

data_OYEJUY
_symmetry_cell_setting           trigonal
_symmetry_space_group_name_H-M   'P 31 2 1'
_symmetry_Int_Tables_number      152
_space_group_name_Hall           'P 31 2"'
loop_
_symmetry_equiv_pos_site_id
_symmetry_equiv_pos_as_xyz
1 x,y,z
2 -y,x-y,1/3+z
3 -x+y,-x,2/3+z
4 y,x,-z
5 x-y,-y,2/3-z
6 -x,-x+y,1/3-z
_cell_length_a                   11.1597(9)
_cell_length_b                   11.1597(9)
_cell_length_c                   14.198(2)
_cell_angle_alpha                90
_cell_angle_beta                 90
_cell_angle_gamma                120
_cell_volume                     1531.31
loop_
_atom_site_label
_atom_site_type_symbol
_atom_site_fract_x
_atom_site_fract_y
_atom_site_fract_z
Ni1 Ni 0.0000 0.46980(6) 0.1667
S1 S 0.19823(12) 0.47333(13) 0.00052(7)
O1 O 0.1222(3) 0.5340(3) 0.04430(17)
O2 O 0.1029(4) 0.3341(3) -0.0309(2)
O3 O 0.2914(4) 0.5613(5) -0.0711(2)
N1 N 0.1372(4) 0.4123(4) 0.2268(2)
H1 H 0.2039 0.4876 0.2563
H2 H 0.0898 0.3494 0.2718
N2 N -0.1218(4) 0.5439(3) 0.1040(2)
C1 C 0.2960(5) 0.4569(6) 0.0930(3)
H3 H 0.3568 0.4268 0.0667
H4 H 0.3534 0.5470 0.1215
C2 C 0.2071(5) 0.3554(5) 0.1688(3)
H5 H 0.1382 0.2698 0.1396
H6 H 0.2647 0.3345 0.2089
C3 C -0.1319(4) 0.5521(4) 0.0102(3)
H7 H -0.0884 0.5174 -0.0279
C4 C -0.2025(4) 0.6087(4) -0.0327(2)
H8 H -0.2037 0.6136 -0.0981
C5 C -0.2721(3) 0.6585(3) 0.0212(2)
C6 C -0.2666(4) 0.6442(4) 0.1183(3)
H9 H -0.3135 0.6729 0.1582
C7 C -0.1921(4) 0.5878(4) 0.1553(3)
H10 H -0.1908 0.5797 0.2204
Ni1C Ni -0.53020(6) 1.0000 -0.1667
S1E S -0.19823(12) 0.27510(18) 0.33281(7)
O1E O -0.1222(3) 0.4118(4) 0.28903(17)
O2E O -0.1029(4) 0.2312(5) 0.3642(2)
O3E O -0.2914(4) 0.2699(6) 0.4044(2)
N1E N -0.1372(4) 0.2751(6) 0.1065(2)
H1E H -0.2039 0.2837 0.0770
H2E H -0.0898 0.2596 0.0615
N2C N -0.4561(3) 0.8782(4) -0.1040(2)
N2E N 0.1218(4) 0.6657(5) 0.2293(2)
C1E C -0.2960(5) 0.1609(8) 0.2403(3)
H3E H -0.3568 0.0700 0.2666
H4E H -0.3534 0.1936 0.2118
C2E C -0.2071(5) 0.1483(7) 0.1645(3)
H5E H -0.1382 0.1316 0.1937
H6E H -0.2647 0.0698 0.1244
C3C C -0.4479(4) 0.8681(4) -0.0102(3)
H7C H -0.4826 0.9116 0.0279
C4C C -0.3913(4) 0.7975(4) 0.0327(2)
H8C H -0.3864 0.7963 0.0981
C5C C -0.3415(3) 0.7279(3) -0.0212(2)
C6C C -0.3558(4) 0.7334(4) -0.1183(3)
H9C H -0.3271 0.6865 -0.1582
C7C C -0.4122(4) 0.8079(4) -0.1553(3)
H10C H -0.4203 0.8092 -0.2204
O4 O 0.9507(5) 0.9175(7) 0.2597(5)
H11 H 0.9365 0.9560 0.2136
H12 H 0.8765 0.8503 0.2776
loop_
_geom_bond_atom_site_label_1
_geom_bond_atom_site_label_2
_geom_bond_site_symmetry_1
_geom_bond_site_symmetry_2
Ni1 O1 1_555 1_555
S1 O1 1_555 1_555
O2 S1 1_555 1_555
O3 S1 1_555 1_555
N1 Ni1 1_555 1_555
H1 N1 1_555 1_555
H2 N1 1_555 1_555
N2 Ni1 1_555 1_555
C1 S1 1_555 1_555
H3 C1 1_555 1_555
H4 C1 1_555 1_555
C2 N1 1_555 1_555
H5 C2 1_555 1_555
H6 C2 1_555 1_555
C3 N2 1_555 1_555
H7 C3 1_555 1_555
C4 C3 1_555 1_555
H8 C4 1_555 1_555
C5 C4 1_555 1_555
C6 C5 1_555 1_555
H9 C6 1_555 1_555
C7 N2 1_555 1_555
H10 C7 1_555 1_555
O4 H11 1_555 1_555
H12 O4 1_555 1_555
Ni1C N2C 1_555 1_555
S1E O1E 1_555 1_555
O1E Ni1 1_555 1_555
O2E S1E 1_555 1_555
O3E S1E 1_555 1_555
N1E Ni1 1_555 1_555
H1E N1E 1_555 1_555
H2E N1E 1_555 1_555
N2C C3C 1_555 1_555
N2E Ni1 1_555 1_555
C1E S1E 1_555 1_555
H3E C1E 1_555 1_555
H4E C1E 1_555 1_555
C2E N1E 1_555 1_555
H5E C2E 1_555 1_555
H6E C2E 1_555 1_555
C3C H7C 1_555 1_555
C4C C3C 1_555 1_555
H8C C4C 1_555 1_555
C5C C5 1_555 1_555
C6C C5C 1_555 1_555
H9C C6C 1_555 1_555
C7C N2C 1_555 1_555
H10C C7C 1_555 1_555
C1 C2 1_555 1_555
C6 C7 1_555 1_555
C1E C2E 1_555 1_555
C4C C5C 1_555 1_555
C6C C7C 1_555 1_555

#END
