
#######################################################################
#
#                 Cambridge Crystallographic Data Centre
#                                CCDC 
#
#######################################################################
#
# If this CIF has been generated from an entry in the Cambridge 
# Structural Database, then it will include bibliographic, chemical, 
# crystal, experimental, refinement or atomic coordinate data resulting 
# from the CCDC's data processing and validation procedures.
#
#######################################################################

data_OYEJOS
_symmetry_cell_setting           monoclinic
_symmetry_space_group_name_H-M   'P 21/n'
_symmetry_Int_Tables_number      14
_space_group_name_Hall           '-P 2yn'
loop_
_symmetry_equiv_pos_site_id
_symmetry_equiv_pos_as_xyz
1 x,y,z
2 1/2-x,1/2+y,1/2-z
3 -x,-y,-z
4 1/2+x,1/2-y,1/2+z
_cell_length_a                   18.4920(13)
_cell_length_b                   15.5970(15)
_cell_length_c                   23.2950(19)
_cell_angle_alpha                90
_cell_angle_beta                 91.8220(11)
_cell_angle_gamma                90
_cell_volume                     6715.34
loop_
_atom_site_label
_atom_site_type_symbol
_atom_site_fract_x
_atom_site_fract_y
_atom_site_fract_z
Cu1 Cu 0.20246(6) 0.65698(6) -0.02977(4)
Cu2 Cu 0.0000 0.5000 0.5000
Mo1 Mo 0.34907(4) 0.58992(5) 0.08397(3)
Mo2 Mo 0.47361(4) 0.77111(4) 0.11105(3)
Mo3 Mo 0.33444(5) 0.42814(5) 0.18093(3)
Mo4 Mo 0.48099(4) 0.43913(5) 0.09441(3)
Mo5 Mo 0.31630(5) 0.73926(5) 0.20454(3)
Mo6 Mo 0.31867(4) 0.57701(5) 0.30296(3)
Mo7 Mo 0.60880(5) 0.62079(5) 0.10959(4)
Mo8 Mo 0.46573(5) 0.41601(5) 0.30326(3)
Mo9 Mo 0.59638(5) 0.75822(5) 0.22381(4)
Mo10 Mo 0.58327(5) 0.58140(5) 0.32951(3)
Mo11 Mo 0.43849(5) 0.74317(5) 0.31722(4)
Mo12 Mo 0.61127(4) 0.44628(5) 0.21746(3)
C1 C 0.1393(5) 0.6240(6) 0.0815(3)
H1 H 0.1461 0.6806 0.0930
C2 C 0.1302(7) 0.5113(6) 0.0303(4)
H2 H 0.1296 0.4744 -0.0011
C3 C 0.1153(7) 0.4893(6) 0.0837(4)
H3 H 0.1031 0.4347 0.0962
C4 C 0.1104(5) 0.5694(5) 0.1764(3)
C5 C 0.0877(7) 0.6479(6) 0.1973(4)
H4 H 0.0806 0.6939 0.1723
C6 C 0.0759(7) 0.6577(6) 0.2545(4)
H5 H 0.0607 0.7103 0.2686
C7 C 0.0864(5) 0.5898(5) 0.2910(3)
C8 C 0.1102(5) 0.5122(5) 0.2716(4)
H6 H 0.1189 0.4671 0.2970
C9 C 0.1212(5) 0.5023(6) 0.2133(3)
H7 H 0.1359 0.4495 0.1993
C10 C 0.0781(5) 0.6752(6) 0.3817(4)
H8 H 0.0961 0.7276 0.3695
C11 C 0.0531(5) 0.6565(6) 0.4343(4)
H9 H 0.0517 0.6946 0.4650
C12 C 0.0413(5) 0.5407(5) 0.3840(4)
H10 H 0.0303 0.4849 0.3727
C13 C 0.2612(5) 0.7549(5) -0.1271(3)
H11 H 0.2160 0.7640 -0.1446
C14 C 0.3473(5) 0.7113(6) -0.0697(4)
H12 H 0.3718 0.6845 -0.0392
C15 C 0.3790(5) 0.7595(5) -0.1100(3)
H13 H 0.4281 0.7712 -0.1130
C16 C 0.3330(5) 0.8431(5) -0.1941(3)
C17 C 0.2971(6) 0.8253(6) -0.2449(4)
H14 H 0.2670 0.7777 -0.2487
C18 C 0.3073(6) 0.8810(7) -0.2912(4)
H15 H 0.2839 0.8708 -0.3265
C19 C 0.3516(5) 0.9501(5) -0.2842(4)
C20 C 0.3846(8) 0.9683(7) -0.2345(5)
H16 H 0.4148 1.0158 -0.2309
C21 C 0.3730(7) 0.9146(7) -0.1872(5)
H17 H 0.3930 0.9284 -0.1512
C22 C 0.3111(5) 1.0362(5) -0.3697(3)
H18 H 0.2620 1.0239 -0.3684
C23 C 0.4134(6) 1.0890(6) -0.3938(4)
H19 H 0.4477 1.1208 -0.4129
C24 C 0.4274(5) 1.0394(6) -0.3473(4)
H20 H 0.4723 1.0297 -0.3294
C25 C 0.2137(6) 0.8205(6) 0.0484(4)
H21 H 0.2579 0.8083 0.0668
C26 C 0.1722(7) 0.8904(6) 0.0579(4)
H22 H 0.1821 0.9346 0.0838
C27 C 0.1198(5) 0.8100(5) -0.0076(4)
H23 H 0.0861 0.7902 -0.0350
C28 C 0.0553(6) 0.9435(6) 0.0123(4)
C29 C -0.0113(7) 0.9135(6) -0.0032(5)
H24 H -0.0195 0.8547 -0.0048
C30 C 0.0677(7) 1.0297(7) 0.0169(5)
H25 H 0.1130 1.0502 0.0290
C31 C -0.1341(6) 0.4138(6) 0.4524(4)
H26 H -0.1124 0.3603 0.4491
C32 C -0.1510(6) 0.5480(6) 0.4646(4)
H27 H -0.1417 0.6056 0.4721
C33 C -0.2163(6) 0.5158(6) 0.4517(4)
H28 H -0.2599 0.5456 0.4484
C34 C -0.2621(6) 0.3646(6) 0.4394(5)
C35 C -0.3058(7) 0.3592(8) 0.3915(5)
H29 H -0.2978 0.3947 0.3603
C36 C -0.3623(7) 0.3007(7) 0.3893(5)
H30 H -0.3941 0.2986 0.3576
C37 C -0.3703(7) 0.2466(7) 0.4340(5)
C38 C -0.3274(8) 0.2506(8) 0.4824(6)
H31 H -0.3354 0.2143 0.5132
C39 C -0.2712(8) 0.3100(9) 0.4847(6)
H32 H -0.2401 0.3127 0.5169
N1 N 0.1465(4) 0.5960(4) 0.0286(3)
N2 N 0.1209(4) 0.5601(4) 0.1165(3)
N3 N 0.0715(4) 0.6008(4) 0.3498(3)
N4 N 0.0298(4) 0.5726(4) 0.4355(3)
N5 N 0.2740(4) 0.7075(4) -0.0799(3)
N6 N 0.3239(4) 0.7873(4) -0.1453(3)
N7 N 0.3627(4) 1.0063(4) -0.3319(3)
N8 N 0.3411(4) 1.0854(4) -0.4085(3)
N9 N 0.1795(4) 0.7703(4) 0.0067(3)
N10 N 0.1130(5) 0.8827(5) 0.0219(3)
N11 N -0.0996(4) 0.4850(5) 0.4654(3)
N12 N -0.2056(5) 0.4290(5) 0.4444(3)
O1 O 0.2936(3) 0.6107(4) 0.0274(2)
O2 O 0.4098(3) 0.5097(3) 0.0520(2)
O3 O 0.3080(3) 0.6627(4) 0.1432(2)
O4 O 0.2977(3) 0.4968(3) 0.1192(2)
O5 O 0.4180(3) 0.6783(3) 0.0784(2)
O6 O 0.2741(4) 0.3483(4) 0.1806(3)
O7 O 0.5054(4) 0.3705(4) 0.0435(2)
O8 O 0.4250(3) 0.5391(3) 0.1617(2)
O9 O 0.2520(4) 0.8113(4) 0.1884(3)
O10 O 0.6804(4) 0.6118(4) 0.0675(3)
O11 O 0.4028(3) 0.3812(3) 0.1261(2)
O12 O 0.5578(3) 0.7132(4) 0.0774(2)
O13 O 0.2714(3) 0.6660(3) 0.2557(2)
O14 O 0.3984(3) 0.7868(3) 0.1597(2)
O15 O 0.5461(3) 0.5376(3) 0.0830(2)
O16 O 0.3017(3) 0.5040(3) 0.2357(2)
O17 O 0.5137(3) 0.6576(3) 0.1766(2)
O18 O 0.3654(3) 0.7934(3) 0.2695(2)
O19 O 0.5107(3) 0.5358(3) 0.2462(2)
O20 O 0.5439(3) 0.4127(3) 0.1563(2)
O21 O 0.4062(3) 0.3918(3) 0.2392(2)
O22 O 0.4103(3) 0.6417(3) 0.2421(2)
O23 O 0.3922(3) 0.4992(3) 0.3235(2)
O24 O 0.6483(3) 0.7058(4) 0.1668(3)
O25 O 0.5488(3) 0.3770(3) 0.2671(2)
O26 O 0.5305(3) 0.4848(3) 0.3523(2)
O27 O 0.4493(4) 0.3353(4) 0.3490(3)
O28 O 0.6537(4) 0.8344(4) 0.2473(3)
O29 O 0.5116(3) 0.7802(3) 0.2706(3)
O30 O 0.6391(4) 0.5973(4) 0.3867(2)
O31 O 0.5059(3) 0.6552(3) 0.3438(2)
O32 O 0.6419(3) 0.5038(3) 0.2857(2)
O33 O 0.6360(3) 0.5371(3) 0.1705(2)
O34 O 0.5410(3) 0.8209(3) 0.1633(2)
O35 O 0.2517(4) 0.5491(4) 0.3458(3)
O36 O 0.3633(3) 0.6655(3) 0.3449(2)
O37 O 0.6792(3) 0.3777(4) 0.2090(2)
O38 O 0.4432(4) 0.8118(4) 0.3723(3)
O39 O 0.6154(3) 0.6698(3) 0.2773(2)
O40 O 0.4629(4) 0.8513(3) 0.0628(3)
P1 P 0.46498(11) 0.59375(12) 0.20648(8)
Br1 Br -0.44746(10) 0.16766(10) 0.43252(10)
Cu1B Cu -0.20246(6) 0.34302(6) 1.02977(4)
Cu1A Cu 0.29754(6) 1.15698(6) -0.47023(4)
Cu1B_2 Cu -0.20246(6) 1.34302(6) 0.02977(4)
Cu1A_2 Cu 0.29754(6) 0.15698(6) -0.47023(4)
Mo1B Mo -0.34907(4) 0.41008(5) 0.91603(3)
Mo2B Mo -0.47361(4) 0.22889(4) 0.88895(3)
Mo3B Mo -0.33444(5) 0.57186(5) 0.81907(3)
Mo4B Mo -0.48099(4) 0.56087(5) 0.90559(3)
Mo5B Mo -0.31630(5) 0.26074(5) 0.79546(3)
Mo6B Mo -0.31867(4) 0.42299(5) 0.69704(3)
Mo7B Mo -0.60880(5) 0.37921(5) 0.89041(4)
Mo8B Mo -0.46573(5) 0.58399(5) 0.69674(3)
Mo9B Mo -0.59638(5) 0.24178(5) 0.77619(4)
Mo10B Mo -0.58327(5) 0.41860(5) 0.67049(3)
Mo11B Mo -0.43849(5) 0.25683(5) 0.68278(4)
Mo12B Mo -0.61127(4) 0.55372(5) 0.78254(3)
C1B C -0.1393(5) 0.3760(6) 0.9185(3)
H1B H -0.1461 0.3194 0.9070
C2B C -0.1302(7) 0.4887(6) 0.9697(4)
H2B H -0.1296 0.5256 1.0011
C3B C -0.1153(7) 0.5107(6) 0.9163(4)
H3B H -0.1031 0.5653 0.9038
C4B C -0.1104(5) 0.4306(5) 0.8236(3)
C5B C -0.0877(7) 0.3521(6) 0.8027(4)
H4B H -0.0806 0.3061 0.8277
C6B C -0.0759(7) 0.3423(6) 0.7455(4)
H5B H -0.0607 0.2897 0.7314
C7B C -0.0864(5) 0.4102(5) 0.7090(3)
C8B C -0.1102(5) 0.4878(5) 0.7284(4)
H6B H -0.1189 0.5329 0.7030
C9B C -0.1212(5) 0.4977(6) 0.7867(3)
H7B H -0.1359 0.5505 0.8007
C10B C -0.0781(5) 0.3248(6) 0.6183(4)
H8B H -0.0961 0.2724 0.6305
C11B C -0.0531(5) 0.3435(6) 0.5657(4)
H9B H -0.0517 0.3054 0.5350
C12B C -0.0413(5) 0.4593(5) 0.6160(4)
H10B H -0.0303 0.5151 0.6273
C13A C 0.2388(5) 0.2549(5) -0.3729(3)
H11A H 0.2840 0.2640 -0.3554
C14A C 0.1527(5) 0.2113(6) -0.4303(4)
H12A H 0.1282 0.1845 -0.4608
C15A C 0.1210(5) 0.2595(5) -0.3900(3)
H13A H 0.0719 0.2712 -0.3870
C16A C 0.1670(5) 0.3431(5) -0.3059(3)
C17A C 0.2029(6) 0.3253(6) -0.2551(4)
H14A H 0.2330 0.2777 -0.2513
C18A C 0.1927(6) 0.3810(7) -0.2088(4)
H15A H 0.2161 0.3708 -0.1735
C19A C 0.1484(5) 0.4501(5) -0.2158(4)
C20A C 0.1154(8) 0.4683(7) -0.2655(5)
H16A H 0.0852 0.5158 -0.2691
C21A C 0.1270(7) 0.4146(7) -0.3128(5)
H17A H 0.1070 0.4284 -0.3488
C22A C 0.1889(5) 0.5362(5) -0.1303(3)
H18A H 0.2380 0.5239 -0.1316
C23A C 0.0866(6) 0.5890(6) -0.1062(4)
H19A H 0.0523 0.6208 -0.0871
C24A C 0.0726(5) 0.5394(6) -0.1527(4)
H20A H 0.0277 0.5297 -0.1706
C25B C -0.2137(6) 1.1795(6) -0.0484(4)
H21B H -0.2579 1.1917 -0.0668
C26B C -0.1722(7) 1.1096(6) -0.0579(4)
H22B H -0.1821 1.0654 -0.0838
C27B C -0.1198(5) 1.1900(5) 0.0076(4)
H23B H -0.0861 1.2098 0.0350
C28B C -0.0553(6) 1.0565(6) -0.0123(4)
C29B C 0.0113(7) 1.0865(6) 0.0032(5)
H24B H 0.0195 1.1453 0.0048
C30B C -0.0677(7) 0.9703(7) -0.0169(5)
H25B H -0.1130 0.9498 -0.0290
C31B C 0.1341(6) 0.5862(6) 0.5476(4)
H26B H 0.1124 0.6397 0.5509
C32B C 0.1510(6) 0.4520(6) 0.5354(4)
H27B H 0.1417 0.3944 0.5279
C33B C 0.2163(6) 0.4842(6) 0.5483(4)
H28B H 0.2599 0.4544 0.5516
C34B C 0.2621(6) 0.6354(6) 0.5606(5)
C35B C 0.3058(7) 0.6408(8) 0.6085(5)
H29B H 0.2978 0.6053 0.6397
C36B C 0.3623(7) 0.6993(7) 0.6107(5)
H30B H 0.3941 0.7014 0.6424
C37B C 0.3703(7) 0.7534(7) 0.5660(5)
C38B C 0.3274(8) 0.7494(8) 0.5176(6)
H31B H 0.3354 0.7857 0.4868
C39B C 0.2712(8) 0.6900(9) 0.5153(6)
H32B H 0.2401 0.6873 0.4831
N1B N -0.1465(4) 0.4040(4) 0.9714(3)
N2B N -0.1209(4) 0.4399(4) 0.8835(3)
N3B N -0.0715(4) 0.3992(4) 0.6502(3)
N4B N -0.0298(4) 0.4274(4) 0.5645(3)
N5A N 0.2260(4) 0.2075(4) -0.4201(3)
N5B N -0.2740(4) 0.2925(4) 1.0799(3)
N6A N 0.1761(4) 0.2873(4) -0.3547(3)
N7A N 0.1373(4) 0.5063(4) -0.1681(3)
N8A N 0.1589(4) 0.5854(4) -0.0915(3)
N8C N -0.1589(4) 0.4146(4) 1.0915(3)
N9B N -0.1795(4) 1.2297(4) -0.0067(3)
N9B_2 N -0.1795(4) 0.2297(4) 0.9933(3)
N10B N -0.1130(5) 1.1173(5) -0.0219(3)
N11B N 0.0996(4) 0.5150(5) 0.5346(3)
N12B N 0.2056(5) 0.5710(5) 0.5556(3)
O1B O -0.2936(3) 0.3893(4) 0.9726(2)
O2B O -0.4098(3) 0.4903(3) 0.9480(2)
O3B O -0.3080(3) 0.3373(4) 0.8568(2)
O4B O -0.2977(3) 0.5032(3) 0.8808(2)
O5B O -0.4180(3) 0.3217(3) 0.9216(2)
O6B O -0.2741(4) 0.6517(4) 0.8194(3)
O7B O -0.5054(4) 0.6295(4) 0.9565(2)
O8B O -0.4250(3) 0.4609(3) 0.8383(2)
O9B O -0.2520(4) 0.1887(4) 0.8116(3)
O10B O -0.6804(4) 0.3882(4) 0.9325(3)
O11B O -0.4028(3) 0.6188(3) 0.8739(2)
O12B O -0.5578(3) 0.2868(4) 0.9226(2)
O13B O -0.2714(3) 0.3340(3) 0.7443(2)
O14B O -0.3984(3) 0.2132(3) 0.8403(2)
O15B O -0.5461(3) 0.4624(3) 0.9170(2)
O16B O -0.3017(3) 0.4960(3) 0.7643(2)
O17B O -0.5137(3) 0.3424(3) 0.8234(2)
O18B O -0.3654(3) 0.2066(3) 0.7305(2)
O19B O -0.5107(3) 0.4642(3) 0.7538(2)
O20B O -0.5439(3) 0.5873(3) 0.8437(2)
O21B O -0.4062(3) 0.6082(3) 0.7608(2)
O22B O -0.4103(3) 0.3583(3) 0.7579(2)
O23B O -0.3922(3) 0.5008(3) 0.6765(2)
O24B O -0.6483(3) 0.2942(4) 0.8332(3)
O25B O -0.5488(3) 0.6230(3) 0.7329(2)
O26B O -0.5305(3) 0.5152(3) 0.6477(2)
O27B O -0.4493(4) 0.6647(4) 0.6510(3)
O28B O -0.6537(4) 0.1656(4) 0.7527(3)
O29B O -0.5116(3) 0.2198(3) 0.7294(3)
O30B O -0.6391(4) 0.4027(4) 0.6133(2)
O31B O -0.5059(3) 0.3448(3) 0.6562(2)
O32B O -0.6419(3) 0.4962(3) 0.7143(2)
O33B O -0.6360(3) 0.4629(3) 0.8295(2)
O34B O -0.5410(3) 0.1791(3) 0.8367(2)
O35B O -0.2517(4) 0.4509(4) 0.6542(3)
O36B O -0.3633(3) 0.3345(3) 0.6551(2)
O37B O -0.6792(3) 0.6223(4) 0.7910(2)
O38B O -0.4432(4) 0.1882(4) 0.6277(3)
O39B O -0.6154(3) 0.3302(3) 0.7227(2)
O40B O -0.4629(4) 0.1487(3) 0.9372(3)
P1B P -0.46498(11) 0.40625(12) 0.79352(8)
Br1B Br 0.44746(10) 0.83234(10) 0.56748(10)
loop_
_geom_bond_atom_site_label_1
_geom_bond_atom_site_label_2
_geom_bond_site_symmetry_1
_geom_bond_site_symmetry_2
Cu1 N1 1_555 1_555
Cu2 N4 1_555 1_555
Mo1 O1 1_555 1_555
Mo2 O5 1_555 1_555
Mo3 O4 1_555 1_555
Mo4 O2 1_555 1_555
Mo5 O3 1_555 1_555
Mo6 O13 1_555 1_555
Mo7 O10 1_555 1_555
Mo8 O19 1_555 1_555
Mo9 O17 1_555 1_555
Mo10 O19 1_555 1_555
Mo11 O18 1_555 1_555
Mo12 O19 1_555 1_555
C1 H1 1_555 1_555
C2 H2 1_555 1_555
C3 C2 1_555 1_555
H3 C3 1_555 1_555
C4 C5 1_555 1_555
C5 H4 1_555 1_555
C6 C5 1_555 1_555
H5 C6 1_555 1_555
C7 C6 1_555 1_555
C8 C7 1_555 1_555
H6 C8 1_555 1_555
C9 C4 1_555 1_555
H7 C9 1_555 1_555
C10 H8 1_555 1_555
C11 C10 1_555 1_555
H9 C11 1_555 1_555
C12 H10 1_555 1_555
C13 H11 1_555 1_555
C14 H12 1_555 1_555
C15 C14 1_555 1_555
H13 C15 1_555 1_555
C16 C17 1_555 1_555
C17 H14 1_555 1_555
C18 C17 1_555 1_555
H15 C18 1_555 1_555
C19 C18 1_555 1_555
C20 C19 1_555 1_555
H16 C20 1_555 1_555
C21 C16 1_555 1_555
H17 C21 1_555 1_555
C22 H18 1_555 1_555
C23 H19 1_555 1_555
C24 C23 1_555 1_555
H20 C24 1_555 1_555
C25 H21 1_555 1_555
C26 C25 1_555 1_555
H22 C26 1_555 1_555
C27 H23 1_555 1_555
C28 C29 1_555 1_555
C29 H24 1_555 1_555
C30 C28 1_555 1_555
H25 C30 1_555 1_555
C31 H26 1_555 1_555
C32 H27 1_555 1_555
C33 C32 1_555 1_555
H28 C33 1_555 1_555
C34 C35 1_555 1_555
C35 H29 1_555 1_555
C36 C35 1_555 1_555
H30 C36 1_555 1_555
C37 C36 1_555 1_555
C38 C37 1_555 1_555
H31 C38 1_555 1_555
C39 C34 1_555 1_555
H32 C39 1_555 1_555
N1 C1 1_555 1_555
N2 C1 1_555 1_555
N3 C7 1_555 1_555
N4 C11 1_555 1_555
N5 Cu1 1_555 1_555
N6 C13 1_555 1_555
N7 C19 1_555 1_555
N8 C22 1_555 1_555
N9 Cu1 1_555 1_555
N10 C26 1_555 1_555
N11 Cu2 1_555 1_555
N12 C31 1_555 1_555
O1 Cu1 1_555 1_555
O2 Mo1 1_555 1_555
O3 Mo1 1_555 1_555
O4 Mo1 1_555 1_555
O5 Mo1 1_555 1_555
O6 Mo3 1_555 1_555
O7 Mo4 1_555 1_555
O8 Mo1 1_555 1_555
O9 Mo5 1_555 1_555
O11 Mo3 1_555 1_555
O12 Mo2 1_555 1_555
O13 Mo5 1_555 1_555
O14 Mo2 1_555 1_555
O15 Mo4 1_555 1_555
O16 Mo3 1_555 1_555
O17 Mo2 1_555 1_555
O18 Mo5 1_555 1_555
O19 P1 1_555 1_555
O20 Mo4 1_555 1_555
O21 Mo3 1_555 1_555
O22 Mo5 1_555 1_555
O23 Mo6 1_555 1_555
O24 Mo7 1_555 1_555
O25 Mo8 1_555 1_555
O26 Mo8 1_555 1_555
O27 Mo8 1_555 1_555
O28 Mo9 1_555 1_555
O29 Mo9 1_555 1_555
O30 Mo10 1_555 1_555
O31 Mo10 1_555 1_555
O32 Mo10 1_555 1_555
O33 Mo7 1_555 1_555
O34 Mo2 1_555 1_555
O35 Mo6 1_555 1_555
O36 Mo6 1_555 1_555
O37 Mo12 1_555 1_555
O38 Mo11 1_555 1_555
O39 Mo9 1_555 1_555
O40 Mo2 1_555 1_555
P1 O8 1_555 1_555
Br1 C37 1_555 1_555
Cu1B N1B 1_555 1_555
Cu1A N8 1_555 1_555
Cu1B_2 N9B 1_555 1_555
Cu1A_2 N5A 1_555 1_555
Mo1B O1B 1_555 1_555
Mo2B O5B 1_555 1_555
Mo3B O4B 1_555 1_555
Mo4B O2B 1_555 1_555
Mo5B O3B 1_555 1_555
Mo6B O13B 1_555 1_555
Mo7B O10B 1_555 1_555
Mo8B O19B 1_555 1_555
Mo9B O17B 1_555 1_555
Mo10B O19B 1_555 1_555
Mo11B O18B 1_555 1_555
Mo12B O19B 1_555 1_555
C1B H1B 1_555 1_555
C2B H2B 1_555 1_555
C3B C2B 1_555 1_555
H3B C3B 1_555 1_555
C4B C5B 1_555 1_555
C5B H4B 1_555 1_555
C6B C5B 1_555 1_555
H5B C6B 1_555 1_555
C7B C6B 1_555 1_555
C8B C7B 1_555 1_555
H6B C8B 1_555 1_555
C9B C4B 1_555 1_555
H7B C9B 1_555 1_555
C10B H8B 1_555 1_555
C11B C10B 1_555 1_555
H9B C11B 1_555 1_555
C12B H10B 1_555 1_555
C13A H11A 1_555 1_555
C14A H12A 1_555 1_555
C15A C14A 1_555 1_555
H13A C15A 1_555 1_555
C16A C17A 1_555 1_555
C17A H14A 1_555 1_555
C18A C17A 1_555 1_555
H15A C18A 1_555 1_555
C19A C18A 1_555 1_555
C20A C19A 1_555 1_555
H16A C20A 1_555 1_555
C21A C16A 1_555 1_555
H17A C21A 1_555 1_555
C22A H18A 1_555 1_555
C23A H19A 1_555 1_555
C24A C23A 1_555 1_555
H20A C24A 1_555 1_555
C25B H21B 1_555 1_555
C26B C25B 1_555 1_555
H22B C26B 1_555 1_555
C27B H23B 1_555 1_555
C28B C29B 1_555 1_555
C29B C30 1_555 1_555
H24B C29B 1_555 1_555
C30B C29 1_555 1_555
H25B C30B 1_555 1_555
C31B H26B 1_555 1_555
C32B H27B 1_555 1_555
C33B C32B 1_555 1_555
H28B C33B 1_555 1_555
C34B C35B 1_555 1_555
C35B H29B 1_555 1_555
C36B C35B 1_555 1_555
H30B C36B 1_555 1_555
C37B C36B 1_555 1_555
C38B C37B 1_555 1_555
H31B C38B 1_555 1_555
C39B C34B 1_555 1_555
H32B C39B 1_555 1_555
N1B C1B 1_555 1_555
N2B C1B 1_555 1_555
N3B C7B 1_555 1_555
N4B Cu2 1_555 1_555
N5A C13A 1_555 1_555
N5B Cu1B 1_555 1_555
N6A C13A 1_555 1_555
N7A C19A 1_555 1_555
N8A Cu1 1_555 1_555
N8C Cu1B 1_555 1_555
N9B C25B 1_555 1_555
N9B_2 Cu1B 1_555 1_555
N10B C26B 1_555 1_555
N11B Cu2 1_555 1_555
N12B C31B 1_555 1_555
O1B Cu1B 1_555 1_555
O2B Mo1B 1_555 1_555
O3B Mo1B 1_555 1_555
O4B Mo1B 1_555 1_555
O5B Mo1B 1_555 1_555
O6B Mo3B 1_555 1_555
O7B Mo4B 1_555 1_555
O8B Mo1B 1_555 1_555
O9B Mo5B 1_555 1_555
O11B Mo3B 1_555 1_555
O12B Mo2B 1_555 1_555
O13B Mo5B 1_555 1_555
O14B Mo2B 1_555 1_555
O15B Mo4B 1_555 1_555
O16B Mo3B 1_555 1_555
O17B Mo2B 1_555 1_555
O18B Mo5B 1_555 1_555
O19B P1B 1_555 1_555
O20B Mo4B 1_555 1_555
O21B Mo3B 1_555 1_555
O22B Mo5B 1_555 1_555
O23B Mo6B 1_555 1_555
O24B Mo7B 1_555 1_555
O25B Mo8B 1_555 1_555
O26B Mo8B 1_555 1_555
O27B Mo8B 1_555 1_555
O28B Mo9B 1_555 1_555
O29B Mo9B 1_555 1_555
O30B Mo10B 1_555 1_555
O31B Mo10B 1_555 1_555
O32B Mo10B 1_555 1_555
O33B Mo7B 1_555 1_555
O34B Mo2B 1_555 1_555
O35B Mo6B 1_555 1_555
O36B Mo6B 1_555 1_555
O37B Mo12B 1_555 1_555
O38B Mo11B 1_555 1_555
O39B Mo9B 1_555 1_555
O40B Mo2B 1_555 1_555
P1B O8B 1_555 1_555
Br1B C37B 1_555 1_555
Mo3 O8 1_555 1_555
Mo4 O8 1_555 1_555
Mo4 O11 1_555 1_555
Mo5 O14 1_555 1_555
Mo6 O16 1_555 1_555
Mo6 O22 1_555 1_555
Mo7 O12 1_555 1_555
Mo7 O15 1_555 1_555
Mo7 O17 1_555 1_555
Mo8 O21 1_555 1_555
Mo8 O23 1_555 1_555
Mo9 O24 1_555 1_555
Mo9 O34 1_555 1_555
Mo10 O26 1_555 1_555
Mo10 O39 1_555 1_555
Mo11 O22 1_555 1_555
Mo11 O29 1_555 1_555
Mo11 O31 1_555 1_555
Mo11 O36 1_555 1_555
Mo12 O20 1_555 1_555
Mo12 O25 1_555 1_555
Mo12 O32 1_555 1_555
Mo12 O33 1_555 1_555
C2 N1 1_555 1_555
C3 N2 1_555 1_555
C4 N2 1_555 1_555
C8 C9 1_555 1_555
C10 N3 1_555 1_555
C12 N3 1_555 1_555
C12 N4 1_555 1_555
C13 N5 1_555 1_555
C14 N5 1_555 1_555
C15 N6 1_555 1_555
C16 N6 1_555 1_555
C20 C21 1_555 1_555
C22 N7 1_555 1_555
C23 N8 1_555 1_555
C24 N7 1_555 1_555
C25 N9 1_555 1_555
C27 N9 1_555 1_555
C27 N10 1_555 1_555
C28 N10 1_555 1_555
C31 N11 1_555 1_555
C32 N11 1_555 1_555
C33 N12 1_555 1_555
C34 N12 1_555 1_555
C38 C39 1_555 1_555
O17 P1 1_555 1_555
O22 P1 1_555 1_555
Mo3B O8B 1_555 1_555
Mo4B O8B 1_555 1_555
Mo4B O11B 1_555 1_555
Mo5B O14B 1_555 1_555
Mo6B O16B 1_555 1_555
Mo6B O22B 1_555 1_555
Mo7B O12B 1_555 1_555
Mo7B O15B 1_555 1_555
Mo7B O17B 1_555 1_555
Mo8B O21B 1_555 1_555
Mo8B O23B 1_555 1_555
Mo9B O24B 1_555 1_555
Mo9B O34B 1_555 1_555
Mo10B O26B 1_555 1_555
Mo10B O39B 1_555 1_555
Mo11B O22B 1_555 1_555
Mo11B O29B 1_555 1_555
Mo11B O31B 1_555 1_555
Mo11B O36B 1_555 1_555
Mo12B O20B 1_555 1_555
Mo12B O25B 1_555 1_555
Mo12B O32B 1_555 1_555
Mo12B O33B 1_555 1_555
C2B N1B 1_555 1_555
C3B N2B 1_555 1_555
C4B N2B 1_555 1_555
C8B C9B 1_555 1_555
C10B N3B 1_555 1_555
C11B N4B 1_555 1_555
C12B N3B 1_555 1_555
C12B N4B 1_555 1_555
C14A N5A 1_555 1_555
C15A N6A 1_555 1_555
C16A N6A 1_555 1_555
C20A C21A 1_555 1_555
C22A N7A 1_555 1_555
C22A N8A 1_555 1_555
C23A N8A 1_555 1_555
C24A N7A 1_555 1_555
C27B N9B 1_555 1_555
C27B N10B 1_555 1_555
C28B C30B 1_555 1_555
C28B N10B 1_555 1_555
C31B N11B 1_555 1_555
C32B N11B 1_555 1_555
C33B N12B 1_555 1_555
C34B N12B 1_555 1_555
C38B C39B 1_555 1_555
O17B P1B 1_555 1_555
O22B P1B 1_555 1_555

#END
