
#######################################################################
#
#                 Cambridge Crystallographic Data Centre
#                                CCDC 
#
#######################################################################
#
# If this CIF has been generated from an entry in the Cambridge 
# Structural Database, then it will include bibliographic, chemical, 
# crystal, experimental, refinement or atomic coordinate data resulting 
# from the CCDC's data processing and validation procedures.
#
#######################################################################

data_OYEKEJ
_symmetry_cell_setting           triclinic
_symmetry_space_group_name_H-M   'P -1'
_symmetry_Int_Tables_number      2
_space_group_name_Hall           '-P 1'
loop_
_symmetry_equiv_pos_site_id
_symmetry_equiv_pos_as_xyz
1 x,y,z
2 -x,-y,-z
_cell_length_a                   8.6084(10)
_cell_length_b                   9.3674(10)
_cell_length_c                   11.9119(13)
_cell_angle_alpha                77.141(2)
_cell_angle_beta                 77.497(2)
_cell_angle_gamma                87.558(2)
_cell_volume                     914.241
loop_
_atom_site_label
_atom_site_type_symbol
_atom_site_fract_x
_atom_site_fract_y
_atom_site_fract_z
Cd1 Cd 0.5000 0.5000 1.0000
Cl1 Cl 0.76082(11) 0.63659(11) 0.97951(8)
N1 N 0.3850(4) 0.7326(4) 0.9205(3)
N2 N 0.2444(4) 0.8788(3) 0.6534(3)
H1 H 0.1880 0.8037 0.6511
N3 N 0.1155(3) 0.8471(3) 0.4777(3)
N4 N -0.1109(4) 0.6416(3) 0.5406(3)
H2 H -0.0517 0.6676 0.5845
N5 N -0.4148(4) 0.4576(3) 0.7976(3)
O1 O 0.3578(3) 1.1014(3) 0.5402(3)
O2 O -0.1190(3) 0.6630(3) 0.3458(2)
C1 C 0.3399(4) 0.7445(4) 0.8191(4)
H3 H 0.3416 0.6604 0.7865
C2 C 0.2894(4) 0.8796(4) 0.7587(3)
C3 C 0.2820(5) 1.0085(4) 0.8062(4)
H4 H 0.2483 1.0996 0.7657
C4 C 0.3254(5) 0.9951(4) 0.9124(4)
H5 H 0.3207 1.0764 0.9485
C5 C 0.3774(5) 0.8562(4) 0.9665(4)
H6 H 0.4092 0.8476 1.0393
C6 C 0.2820(4) 0.9875(4) 0.5522(3)
C7 C 0.2218(4) 0.9572(4) 0.4508(3)
C8 C 0.2759(5) 1.0439(4) 0.3366(4)
H7 H 0.3497 1.1216 0.3232
C9 C 0.2190(5) 1.0132(5) 0.2452(4)
H8 H 0.2525 1.0687 0.1669
C10 C 0.1103(5) 0.8979(5) 0.2709(3)
H9 H 0.0700 0.8725 0.2097
C11 C 0.0605(4) 0.8192(4) 0.3886(3)
C12 C -0.0653(4) 0.6986(4) 0.4226(3)
C13 C -0.2399(4) 0.5468(4) 0.6027(3)
C14 C -0.2931(4) 0.5430(4) 0.7246(3)
H10 H -0.2401 0.6046 0.7580
C15 C -0.4904(5) 0.3746(4) 0.7477(4)
H11 H -0.5782 0.3162 0.7952
C16 C -0.4445(5) 0.3706(4) 0.6272(4)
H12 H -0.4998 0.3081 0.5961
C17 C -0.3177(4) 0.4580(4) 0.5524(3)
H13 H -0.2866 0.4564 0.4712
Cd1_2 Cd -0.5000 0.5000 1.0000
Cd1_3 Cd 1.5000 0.5000 1.0000
Cl1A Cl 0.23918(11) 0.36341(11) 1.02049(8)
N1_2 N 1.3850(4) 0.7326(4) 0.9205(3)
N1A N 0.6150(4) 0.2674(4) 1.0795(3)
N2_2 N 1.2444(4) 0.8788(3) 0.6534(3)
H1_2 H 1.1880 0.8037 0.6511
N3_2 N 1.1155(3) 0.8471(3) 0.4777(3)
N4_2 N 0.8891(4) 0.6416(3) 0.5406(3)
H2_2 H 0.9483 0.6676 0.5845
N5_2 N 0.5852(4) 0.4576(3) 0.7976(3)
N5A N 0.4148(4) 0.5424(3) 1.2024(3)
O1_2 O 1.3578(3) 1.1014(3) 0.5402(3)
O2_2 O 0.8810(3) 0.6630(3) 0.3458(2)
C1_2 C 1.3399(4) 0.7445(4) 0.8191(4)
H3_2 H 1.3416 0.6604 0.7865
C2_2 C 1.2894(4) 0.8796(4) 0.7587(3)
C3_2 C 1.2820(5) 1.0085(4) 0.8062(4)
H4_2 H 1.2483 1.0996 0.7657
C4_2 C 1.3254(5) 0.9951(4) 0.9124(4)
H5_2 H 1.3207 1.0764 0.9485
C5_2 C 1.3774(5) 0.8562(4) 0.9665(4)
H6_2 H 1.4092 0.8476 1.0393
C6_2 C 1.2820(4) 0.9875(4) 0.5522(3)
C7_2 C 1.2218(4) 0.9572(4) 0.4508(3)
C8_2 C 1.2759(5) 1.0439(4) 0.3366(4)
H7_2 H 1.3497 1.1216 0.3232
C9_2 C 1.2190(5) 1.0132(5) 0.2452(4)
H8_2 H 1.2525 1.0687 0.1669
C10_2 C 1.1103(5) 0.8979(5) 0.2709(3)
H9_2 H 1.0700 0.8725 0.2097
C11_2 C 1.0605(4) 0.8192(4) 0.3886(3)
C12_2 C 0.9347(4) 0.6986(4) 0.4226(3)
C13_2 C 0.7601(4) 0.5468(4) 0.6027(3)
C14_2 C 0.7069(4) 0.5430(4) 0.7246(3)
H10_2 H 0.7599 0.6046 0.7580
C15_2 C 0.5096(5) 0.3746(4) 0.7477(4)
H11_2 H 0.4218 0.3162 0.7952
C16_2 C 0.5555(5) 0.3706(4) 0.6272(4)
H12_2 H 0.5002 0.3081 0.5961
C17_2 C 0.6823(4) 0.4580(4) 0.5524(3)
H13_2 H 0.7134 0.4564 0.4712
O3 O 0.9415(4) 0.3936(3) 0.2561(3)
H14 H 1.023(5) 0.386(7) 0.192(3)
H15 H 0.927(7) 0.490(2) 0.264(6)
loop_
_geom_bond_atom_site_label_1
_geom_bond_atom_site_label_2
_geom_bond_site_symmetry_1
_geom_bond_site_symmetry_2
Cd1 Cl1 1_555 1_555
N1 Cd1 1_555 1_555
N2 H1 1_555 1_555
N3 C7 1_555 1_555
N4 H2 1_555 1_555
N5 C14 1_555 1_555
O1 C6 1_555 1_555
O2 C12 1_555 1_555
C1 N1 1_555 1_555
H3 C1 1_555 1_555
C2 N2 1_555 1_555
C3 C2 1_555 1_555
H4 C3 1_555 1_555
C4 C3 1_555 1_555
H5 C4 1_555 1_555
C5 N1 1_555 1_555
H6 C5 1_555 1_555
C6 N2 1_555 1_555
C7 C6 1_555 1_555
C8 C7 1_555 1_555
H7 C8 1_555 1_555
C9 C8 1_555 1_555
H8 C9 1_555 1_555
C10 C9 1_555 1_555
H9 C10 1_555 1_555
C11 N3 1_555 1_555
C12 N4 1_555 1_555
C13 N4 1_555 1_555
C14 C13 1_555 1_555
H10 C14 1_555 1_555
C15 N5 1_555 1_555
H11 C15 1_555 1_555
C16 C15 1_555 1_555
H12 C16 1_555 1_555
C17 C13 1_555 1_555
H13 C17 1_555 1_555
O3 H14 1_555 1_555
H15 O3 1_555 1_555
Cd1_2 N5 1_555 1_555
Cd1_3 N1_2 1_555 1_555
Cl1A Cd1 1_555 1_555
N1_2 C1_2 1_555 1_555
N1A Cd1 1_555 1_555
N2_2 H1_2 1_555 1_555
N3_2 C7_2 1_555 1_555
N4_2 H2_2 1_555 1_555
N5_2 Cd1 1_555 1_555
N5A Cd1 1_555 1_555
O1_2 C6_2 1_555 1_555
O2_2 C12_2 1_555 1_555
C1_2 H3_2 1_555 1_555
C2_2 N2_2 1_555 1_555
C3_2 C2_2 1_555 1_555
H4_2 C3_2 1_555 1_555
C4_2 C3_2 1_555 1_555
H5_2 C4_2 1_555 1_555
C5_2 N1_2 1_555 1_555
H6_2 C5_2 1_555 1_555
C6_2 N2_2 1_555 1_555
C7_2 C6_2 1_555 1_555
C8_2 C7_2 1_555 1_555
H7_2 C8_2 1_555 1_555
C9_2 C8_2 1_555 1_555
H8_2 C9_2 1_555 1_555
C10_2 C9_2 1_555 1_555
H9_2 C10_2 1_555 1_555
C11_2 N3_2 1_555 1_555
C12_2 N4_2 1_555 1_555
C13_2 N4_2 1_555 1_555
C14_2 N5_2 1_555 1_555
H10_2 C14_2 1_555 1_555
C15_2 N5_2 1_555 1_555
H11_2 C15_2 1_555 1_555
C16_2 C15_2 1_555 1_555
H12_2 C16_2 1_555 1_555
C17_2 C13_2 1_555 1_555
H13_2 C17_2 1_555 1_555
C1 C2 1_555 1_555
C4 C5 1_555 1_555
C10 C11 1_555 1_555
C11 C12 1_555 1_555
C16 C17 1_555 1_555
C1_2 C2_2 1_555 1_555
C4_2 C5_2 1_555 1_555
C10_2 C11_2 1_555 1_555
C11_2 C12_2 1_555 1_555
C13_2 C14_2 1_555 1_555
C16_2 C17_2 1_555 1_555

#END
