
#######################################################################
#
#                 Cambridge Crystallographic Data Centre
#                                CCDC 
#
#######################################################################
#
# If this CIF has been generated from an entry in the Cambridge 
# Structural Database, then it will include bibliographic, chemical, 
# crystal, experimental, refinement or atomic coordinate data resulting 
# from the CCDC's data processing and validation procedures.
#
#######################################################################

data_OYENIQ
_symmetry_cell_setting           triclinic
_symmetry_space_group_name_H-M   'P -1'
_symmetry_Int_Tables_number      2
_space_group_name_Hall           '-P 1'
loop_
_symmetry_equiv_pos_site_id
_symmetry_equiv_pos_as_xyz
1 x,y,z
2 -x,-y,-z
_cell_length_a                   7.0737(9)
_cell_length_b                   8.7886(11)
_cell_length_c                   9.4561(12)
_cell_angle_alpha                105.3580(10)
_cell_angle_beta                 94.981(2)
_cell_angle_gamma                96.879(2)
_cell_volume                     558.461
loop_
_atom_site_label
_atom_site_type_symbol
_atom_site_fract_x
_atom_site_fract_y
_atom_site_fract_z
Cd1 Cd 0.23263(7) 0.40615(5) 0.95617(5)
Cl1 Cl 0.4376(3) 0.6490(2) 0.9155(2)
Cl2 Cl 0.0936(3) 0.5398(2) 1.19034(19)
C1 C 0.0170(10) -0.1321(8) 0.8976(7)
H1 H 0.0311 -0.2225 0.8239
C2 C 0.0861(8) 0.0182(7) 0.8832(6)
C3 C 0.1713(9) 0.0483(8) 0.7554(7)
C4 C 0.2850(9) 0.1779(8) 0.6108(7)
C5 C 0.3555(12) 0.2939(10) 0.5453(9)
H2 H 0.3801 0.4013 0.5979
C6 C 0.3871(13) 0.2442(11) 0.4009(9)
H3 H 0.4326 0.3198 0.3545
C7 C 0.3539(11) 0.0866(12) 0.3222(9)
H4 H 0.3779 0.0585 0.2242
C8 C 0.2841(9) -0.0349(9) 0.3852(7)
H5 H 0.2632 -0.1424 0.3329
C9 C 0.2492(9) 0.0183(9) 0.5303(7)
N1 N 0.2340(8) 0.1939(7) 0.7509(6)
N2 N 0.1792(8) -0.0647(6) 0.6269(6)
H6 H 0.150(11) -0.1730(10) 0.601(9)
N3 N -0.0670(8) -0.1495(6) 1.0116(6)
Cd1A Cd 0.76737(7) 0.59385(5) 1.04383(5)
Cd1A_2 Cd -0.23263(7) 0.59385(5) 1.04383(5)
Cd1A_3 Cd -0.23263(7) -0.40615(5) 1.04383(5)
Cl1A Cl 0.5624(3) 0.3510(2) 1.0845(2)
Cl2A Cl -0.0936(3) 0.4602(2) 0.80966(19)
Cl2A_2 Cl 0.9064(3) 0.4602(2) 0.80966(19)
Cl2_2 Cl 1.0936(3) 0.5398(2) 1.19034(19)
C1A C -0.0170(10) 0.1321(8) 1.1024(7)
H1A H -0.0311 0.2225 1.1761
C2A C -0.0861(8) -0.0182(7) 1.1168(6)
C3A C -0.1713(9) -0.0483(8) 1.2446(7)
C4A C -0.2850(9) -0.1779(8) 1.3892(7)
C5A C -0.3555(12) -0.2939(10) 1.4547(9)
H2A H -0.3801 -0.4013 1.4021
C6A C -0.3871(13) -0.2442(11) 1.5991(9)
H3A H -0.4326 -0.3198 1.6455
C7A C -0.3539(11) -0.0866(12) 1.6778(9)
H4A H -0.3779 -0.0585 1.7758
C8A C -0.2841(9) 0.0349(9) 1.6148(7)
H5A H -0.2632 0.1424 1.6671
C9A C -0.2492(9) -0.0183(9) 1.4697(7)
N1A N -0.2340(8) -0.1939(7) 1.2491(6)
N1A_2 N 0.7660(8) 0.8061(7) 1.2491(6)
N2A N -0.1792(8) 0.0647(6) 1.3731(6)
H6A H -0.150(11) 0.1730(10) 1.399(9)
N3A N 0.0670(8) 0.1495(6) 0.9884(6)
N3_2 N 0.9330(8) 0.8505(6) 1.0116(6)
O1 O 0.121(3) -0.353(2) 0.564(2)
H7 H 0.0689 -0.3948 0.4755
H8 H 0.0460 -0.3793 0.6218
loop_
_geom_bond_atom_site_label_1
_geom_bond_atom_site_label_2
_geom_bond_site_symmetry_1
_geom_bond_site_symmetry_2
Cd1 Cl1 1_555 1_555
Cl1 Cd1A 1_555 1_555
Cl2 Cd1 1_555 1_555
C1 H1 1_555 1_555
C2 C1 1_555 1_555
C3 C2 1_555 1_555
C4 C5 1_555 1_555
C5 H2 1_555 1_555
C6 C5 1_555 1_555
H3 C6 1_555 1_555
C7 C6 1_555 1_555
H4 C7 1_555 1_555
C8 C7 1_555 1_555
H5 C8 1_555 1_555
C9 C4 1_555 1_555
N1 Cd1 1_555 1_555
N2 C3 1_555 1_555
H6 N2 1_555 1_555
N3 C1 1_555 1_555
O1 H7 1_555 1_555
H8 O1 1_555 1_555
Cd1A Cl1A 1_555 1_555
Cd1A_2 Cl2 1_555 1_555
Cd1A_3 N3 1_555 1_555
Cl1A Cd1 1_555 1_555
Cl2A Cd1 1_555 1_555
Cl2A_2 Cd1A 1_555 1_555
Cl2_2 Cd1A 1_555 1_555
C1A H1A 1_555 1_555
C2A N3 1_555 1_555
C3A C2A 1_555 1_555
C4A C5A 1_555 1_555
C5A H2A 1_555 1_555
C6A C5A 1_555 1_555
H3A C6A 1_555 1_555
C7A C6A 1_555 1_555
H4A C7A 1_555 1_555
C8A C7A 1_555 1_555
H5A C8A 1_555 1_555
C9A C4A 1_555 1_555
N1A Cd1A_3 1_555 1_555
N1A_2 Cd1A 1_555 1_555
N2A C3A 1_555 1_555
H6A N2A 1_555 1_555
N3A Cd1 1_555 1_555
N3_2 Cd1A 1_555 1_555
C2 N3A 1_555 1_555
C3 N1 1_555 1_555
C4 N1 1_555 1_555
C8 C9 1_555 1_555
C9 N2 1_555 1_555
Cd1A_2 Cl2A 1_555 1_555
C1A C2A 1_555 1_555
C1A N3A 1_555 1_555
C3A N1A 1_555 1_555
C4A N1A 1_555 1_555
C8A C9A 1_555 1_555
C9A N2A 1_555 1_555

#END
