
#######################################################################
#
#                 Cambridge Crystallographic Data Centre
#                                CCDC 
#
#######################################################################
#
# If this CIF has been generated from an entry in the Cambridge 
# Structural Database, then it will include bibliographic, chemical, 
# crystal, experimental, refinement or atomic coordinate data resulting 
# from the CCDC's data processing and validation procedures.
#
#######################################################################

data_OYEPAK
_symmetry_cell_setting           orthorhombic
_symmetry_space_group_name_H-M   'P b c a'
_symmetry_Int_Tables_number      61
_space_group_name_Hall           '-P 2ac 2ab'
loop_
_symmetry_equiv_pos_site_id
_symmetry_equiv_pos_as_xyz
1 x,y,z
2 1/2-x,-y,1/2+z
3 -x,1/2+y,1/2-z
4 1/2+x,1/2-y,-z
5 -x,-y,-z
6 1/2+x,y,1/2-z
7 x,1/2-y,1/2+z
8 1/2-x,1/2+y,z
_cell_length_a                   19.465(3)
_cell_length_b                   12.034(4)
_cell_length_c                   19.842(4)
_cell_angle_alpha                90
_cell_angle_beta                 90
_cell_angle_gamma                90
_cell_volume                     4647.83
loop_
_atom_site_label
_atom_site_type_symbol
_atom_site_fract_x
_atom_site_fract_y
_atom_site_fract_z
Sm1 Sm 0.182208(4) 0.786807(6) 0.456587(4)
O1 O 0.11287(5) 0.75781(9) 0.35754(6)
O2 O 0.02121(7) 0.79162(9) 0.29117(7)
O3 O 0.23461(5) 0.94847(8) 0.40906(6)
O4 O 0.30146(6) 1.09174(9) 0.43772(6)
O5 O 0.17492(6) 0.90841(10) 0.55114(5)
O6 O 0.16136(6) 0.95240(9) 0.65965(6)
O7 O 0.07496(6) 0.70098(9) 0.49329(6)
H1 H 0.0473 0.7014 0.4621
O8 O 0.30040(6) 0.76862(11) 0.49760(6)
H2 H 0.3003 0.7366 0.5341
N1 N 0.08737(7) 0.93687(11) 0.43197(7)
N2 N -0.00400(7) 1.10000(12) 0.38671(7)
N3 N 0.12623(7) 1.14207(11) 0.27344(7)
N4 N 0.22706(7) 1.23065(10) 0.35862(7)
N5 N 0.18743(6) 0.69346(11) 0.57778(8)
N6 N 0.18345(7) 0.61500(13) 0.71021(8)
C1 C 0.06007(8) 0.81448(13) 0.33795(9)
C2 C 0.04790(8) 0.92064(13) 0.37763(8)
C3 C 0.00147(8) 1.00115(14) 0.35616(9)
H3 H -0.0266 0.9858 0.3194
C4 C 0.03644(9) 1.11510(14) 0.44032(9)
H4 H 0.0347 1.1829 0.4628
C5 C 0.08090(9) 1.03384(13) 0.46388(8)
H5 H 0.1066 1.0472 0.5025
C6 C 0.25274(8) 1.04767(12) 0.40458(8)
C7 C 0.21400(8) 1.12124(12) 0.35620(8)
C8 C 0.16564(8) 1.07734(13) 0.31244(8)
H6 H 0.1604 1.0006 0.3101
C9 C 0.13721(9) 1.25127(14) 0.27797(9)
H7 H 0.1099 1.2995 0.2530
C10 C 0.18841(8) 1.29475(13) 0.31895(9)
H8 H 0.1960 1.3710 0.3187
C11 C 0.17093(8) 0.88452(13) 0.61311(8)
C12 C 0.17929(7) 0.76340(14) 0.63054(8)
C13 C 0.17821(9) 0.72395(15) 0.69569(10)
H9 H 0.1737 0.7744 0.7309
C14 C 0.19047(8) 0.54702(14) 0.65773(9)
H10 H 0.1934 0.4709 0.6655
C15 C 0.19353(8) 0.58559(13) 0.59193(9)
H11 H 0.2000 0.5352 0.5570
H18 H 0.3295(10) 0.8028(16) 0.4851(11)
H20 H 0.0689(11) 0.6844(19) 0.5312(11)
Sm1G Sm 0.317792(4) 1.286807(6) 0.456587(4)
O4G O 0.19854(6) 0.59174(9) 0.43772(6)
N4G N 0.27294(7) 0.73065(10) 0.35862(7)
O9 O -0.04331(6) 0.66792(10) 0.42431(6)
H14 H -0.0396(11) 0.625(2) 0.3884(12)
H15 H -0.0582(10) 0.6307(18) 0.4530(10)
O10 O 0.34913(6) 0.67584(11) 0.61243(7)
H16 H 0.3849(12) 0.6976(19) 0.6138(12)
H24 H 0.3486(12) 0.613(2) 0.6267(12)
O11 O 0.11357(6) 0.54696(9) 0.29490(6)
H12 H 0.1179(11) 0.6062(18) 0.3127(11)
H17 H 0.1266(10) 0.5507(17) 0.2591(11)
O12 O 0.01768(6) 0.65607(9) 0.62027(6)
H19 H 0.0273(12) 0.608(2) 0.6508(12)
H22 H 0.0201(12) 0.7122(18) 0.6381(12)
O13 O 0.02793(6) 1.03876(9) 0.18695(6)
H21 H 0.0548(10) 1.0693(17) 0.2170(10)
H23 H -0.0107(11) 1.0463(18) 0.2001(11)
O14 O 0.40123(6) 0.91622(10) 0.45631(6)
H13 H 0.4297(10) 0.9019(18) 0.4253(10)
H25 H 0.3815(12) 0.969(2) 0.4496(11)
loop_
_geom_bond_atom_site_label_1
_geom_bond_atom_site_label_2
_geom_bond_site_symmetry_1
_geom_bond_site_symmetry_2
Sm1 O1 1_555 1_555
O1 C1 1_555 1_555
O2 C1 1_555 1_555
O3 Sm1 1_555 1_555
O4 C6 1_555 1_555
O5 Sm1 1_555 1_555
O6 C11 1_555 1_555
O7 Sm1 1_555 1_555
H1 O7 1_555 1_555
O8 Sm1 1_555 1_555
H2 O8 1_555 1_555
O9 H14 1_555 1_555
O10 H16 1_555 1_555
O11 H12 1_555 1_555
O12 H19 1_555 1_555
O13 H21 1_555 1_555
O14 H13 1_555 1_555
N1 Sm1 1_555 1_555
N2 C3 1_555 1_555
N3 C8 1_555 1_555
N4 C7 1_555 1_555
N5 Sm1 1_555 1_555
N6 C13 1_555 1_555
C1 C2 1_555 1_555
C2 N1 1_555 1_555
C3 C2 1_555 1_555
H3 C3 1_555 1_555
C4 N2 1_555 1_555
H4 C4 1_555 1_555
C5 N1 1_555 1_555
H5 C5 1_555 1_555
C6 O3 1_555 1_555
C7 C6 1_555 1_555
C8 C7 1_555 1_555
H6 C8 1_555 1_555
C9 N3 1_555 1_555
H7 C9 1_555 1_555
C10 N4 1_555 1_555
H8 C10 1_555 1_555
C11 O5 1_555 1_555
C12 N5 1_555 1_555
C13 C12 1_555 1_555
H9 C13 1_555 1_555
C14 N6 1_555 1_555
H10 C14 1_555 1_555
C15 N5 1_555 1_555
H11 C15 1_555 1_555
H15 O9 1_555 1_555
H17 O11 1_555 1_555
H18 O8 1_555 1_555
H20 O7 1_555 1_555
H22 O12 1_555 1_555
H23 O13 1_555 1_555
H24 O10 1_555 1_555
H25 O14 1_555 1_555
Sm1G O4 1_555 1_555
O4G Sm1 1_555 1_555
N4G Sm1 1_555 1_555
N4 Sm1G 1_555 1_555
C4 C5 1_555 1_555
C9 C10 1_555 1_555
C11 C12 1_555 1_555
C14 C15 1_555 1_555

#END
