
#######################################################################
#
#                 Cambridge Crystallographic Data Centre
#                                CCDC 
#
#######################################################################
#
# If this CIF has been generated from an entry in the Cambridge 
# Structural Database, then it will include bibliographic, chemical, 
# crystal, experimental, refinement or atomic coordinate data resulting 
# from the CCDC's data processing and validation procedures.
#
#######################################################################

data_OYODAI
_symmetry_cell_setting           rhombohedral
_symmetry_space_group_name_H-M   'R -3 c'
_symmetry_Int_Tables_number      167
_space_group_name_Hall           '-R 3 2"c'
loop_
_symmetry_equiv_pos_site_id
_symmetry_equiv_pos_as_xyz
1 x,y,z
2 -y,x-y,z
3 -x+y,-x,z
4 y,x,1/2-z
5 -x,-x+y,1/2-z
6 x-y,-y,1/2-z
7 2/3+x,1/3+y,1/3+z
8 2/3-y,1/3+x-y,1/3+z
9 2/3-x+y,1/3-x,1/3+z
10 2/3+y,1/3+x,5/6-z
11 2/3-x,1/3-x+y,5/6-z
12 2/3+x-y,1/3-y,5/6-z
13 1/3+x,2/3+y,2/3+z
14 1/3-y,2/3+x-y,2/3+z
15 1/3-x+y,2/3-x,2/3+z
16 1/3+y,2/3+x,1/6-z
17 1/3-x,2/3-x+y,1/6-z
18 1/3+x-y,2/3-y,1/6-z
19 -x,-y,-z
20 y,-x+y,-z
21 x-y,x,-z
22 -y,-x,1/2+z
23 x,x-y,1/2+z
24 -x+y,y,1/2+z
25 1/3-x,2/3-y,2/3-z
26 1/3+y,2/3-x+y,2/3-z
27 1/3+x-y,2/3+x,2/3-z
28 1/3-y,2/3-x,1/6+z
29 1/3+x,2/3+x-y,1/6+z
30 1/3-x+y,2/3+y,1/6+z
31 2/3-x,1/3-y,1/3-z
32 2/3+y,1/3-x+y,1/3-z
33 2/3+x-y,1/3+x,1/3-z
34 2/3-y,1/3-x,5/6+z
35 2/3+x,1/3+x-y,5/6+z
36 2/3-x+y,1/3+y,5/6+z
_cell_length_a                   27.2749(18)
_cell_length_b                   27.2749(18)
_cell_length_c                   87.561(5)
_cell_angle_alpha                90
_cell_angle_beta                 90
_cell_angle_gamma                120
_cell_volume                     56411.5
loop_
_atom_site_label
_atom_site_type_symbol
_atom_site_fract_x
_atom_site_fract_y
_atom_site_fract_z
Zn1 Zn 0.01260(2) 0.200552(19) 0.093218(5)
Zn2 Zn 0.355920(18) 0.362572(19) 0.136864(5)
O1 O 0.00032(10) 0.25272(9) 0.08014(3)
O2 O -0.01941(16) 0.60474(16) 0.03322(4)
O3 O -0.03520(14) 0.17993(12) 0.06398(4)
O4 O -0.1049(2) 0.56242(19) 0.04243(6)
O5 O -0.0745(2) 0.35086(17) 0.02497(5)
N1 N 0.08899(14) 0.28420(12) 0.13343(4)
N2 N 0.03520(14) 0.23567(15) 0.11413(4)
N3 N 0.18689(13) 0.31830(12) 0.14264(4)
N4 N 0.15614(16) 0.19420(14) 0.08003(3)
N5 N 0.27415(15) 0.33156(16) 0.14105(4)
N6 N 0.07551(19) 0.19184(18) 0.08415(3)
N7 N 0.1943(3) 0.0617(3) 0.09753(5)
N8 N 0.29140(15) 0.24734(14) 0.04664(3)
N9 N 0.24544(18) 0.20670(17) 0.06800(4)
N10 N 0.21520(19) 0.15257(19) 0.09205(4)
N11 N 0.11766(15) 0.32290(13) 0.15984(3)
N12 N 0.07331(16) 0.32572(16) 0.18078(4)
C1 C -0.02269(15) 0.22958(14) 0.06754(4)
C2 C 0.07907(17) 0.28071(18) 0.11902(5)
C3 C -0.03763(13) 0.26277(14) 0.05677(4)
C4 C 0.2435(2) 0.3551(2) 0.14170(5)
C5 C -0.06941(15) 0.23762(15) 0.04398(4)
H1 H -0.0826 0.1994 0.0422
C6 C -0.01837(15) 0.31968(15) 0.05934(5)
H2 H 0.0032 0.3372 0.0680
C7 C 0.12029(19) 0.19363(18) 0.09066(4)
C8 C 0.11611(18) 0.32292(19) 0.10759(5)
H3 H 0.1468 0.3545 0.1127
H4 H 0.0946 0.3357 0.1019
H5 H 0.1309 0.3059 0.1008
C9 C 0.10211(19) 0.29306(19) 0.18392(5)
H6 H 0.1016 0.2758 0.1931
C10 C 0.08573(17) 0.34014(19) 0.16669(5)
C11 C 0.2339(2) 0.26958(17) 0.14111(5)
H7 H 0.2429 0.2409 0.1408
C12 C 0.04189(19) 0.2331(2) 0.14009(5)
H8 H 0.0350 0.2244 0.1504
C13 C -0.0306(2) 0.34995(16) 0.04937(5)
H9 H -0.0178 0.3881 0.0512
C14 C -0.08222(17) 0.26715(17) 0.03374(5)
H10 H -0.1038 0.2493 0.0251
C15 C 0.26786(18) 0.41639(16) 0.14306(5)
H11 H 0.3083 0.4346 0.1421
H12 H 0.2582 0.4252 0.1528
H13 H 0.2531 0.4296 0.1351
C16 C 0.1308(2) 0.1945(2) 0.10735(4)
H14 H 0.1003 0.1945 0.1128
H15 H 0.1657 0.2280 0.1099
H16 H 0.1330 0.1617 0.1101
C17 C 0.0615(3) 0.3713(3) 0.15873(6)
H17 H 0.0400 0.3797 0.1658
H18 H 0.0373 0.3483 0.1506
H19 H 0.0916 0.4059 0.1546
C18 C 0.1861(2) 0.1000(2) 0.09012(6)
C19 C 0.01102(18) 0.20190(19) 0.12843(5)
H20 H -0.0201 0.1655 0.1290
C20 C -0.0249(3) 0.4508(3) 0.02227(9)
H21 H 0.0029 0.4498 0.0164
C21 C 0.2742(5) 0.3099(3) 0.06394(7)
H22 H 0.2949 0.3381 0.0563
H23 H 0.2931 0.3225 0.0736
H24 H 0.2366 0.3042 0.0647
C22 C -0.1070(5) 0.4065(3) 0.03773(10)
H25 H -0.1341 0.3731 0.0423
C23 C -0.0245(3) 0.5061(2) 0.02562(8)
H26 H 0.0027 0.5397 0.0212
C24 C -0.0613(3) 0.5634(3) 0.03698(7)
C25 C 0.2582(2) 0.1610(2) 0.10257(6)
H27 H 0.2841 0.1945 0.1074
C26 C -0.0640(3) 0.5059(3) 0.03513(7)
C27 C -0.0672(3) 0.4047(3) 0.02830(8)
C28 C 0.2507(3) 0.1684(2) 0.05930(6)
H28 H 0.2377 0.1308 0.0620
C29 C 0.2532(2) 0.1124(3) 0.10398(8)
H29 H 0.2810 0.1067 0.1083
C30 C 0.2775(3) 0.1931(2) 0.04633(6)
H30 H 0.2852 0.1753 0.0384
C31 C 0.0820(2) 0.1899(2) 0.06840(4)
H31 H 0.0568 0.1879 0.0610
C32 C 0.1307(2) 0.1913(2) 0.06600(4)
H32 H 0.1455 0.1905 0.0565
C33 C -0.0629(2) 0.32335(19) 0.03628(5)
C34 C 0.2712(2) 0.2549(2) 0.05952(5)
C35 C 0.12939(18) 0.0729(2) 0.08132(5)
H33 H 0.1255 0.1019 0.0762
H34 H 0.0986 0.0532 0.0884
H35 H 0.1288 0.0467 0.0739
C36 C 0.1283(2) 0.29280(19) 0.17149(5)
H36 H 0.1504 0.2758 0.1704
C37 C 0.1830(2) 0.26334(18) 0.14165(5)
H37 H 0.1493 0.2288 0.1414
C38 C -0.1083(4) 0.4578(3) 0.04075(8)
H38 H -0.1375 0.4579 0.0462
B1 B 0.1371(2) 0.3291(3) 0.14339(6)
B2 B 0.2155(3) 0.1997(3) 0.08346(5)
Zn1B Zn 0.187952(28) -0.01260(2) 0.093218(5)
Zn2P Zn -0.022587(18) 0.673319(26) 0.029803(5)
Zn2Q Zn 0.326681(26) 0.304095(19) 0.029803(5)
Zn2EA Zn 0.029239(19) 0.339985(26) 0.196469(5)
O2P O 0.35274(16) 0.29082(23) 0.13345(4)
N7A N -0.0617(3) 0.1326(4) 0.09753(5)
N8Q N 0.37739(21) 0.41933(14) 0.12003(3)
N12FA N 0.41426(23) 0.40664(16) 0.15255(4)
loop_
_geom_bond_atom_site_label_1
_geom_bond_atom_site_label_2
_geom_bond_site_symmetry_1
_geom_bond_site_symmetry_2
Zn1 O1 1_555 1_555
Zn2 N5 1_555 1_555
O1 C1 1_555 1_555
O2 C24 1_555 1_555
O3 C1 1_555 1_555
O4 C24 1_555 1_555
O5 C27 1_555 1_555
N1 C2 1_555 1_555
N2 Zn1 1_555 1_555
N3 C4 1_555 1_555
N4 C7 1_555 1_555
N5 C4 1_555 1_555
N6 Zn1 1_555 1_555
N7 C18 1_555 1_555
N8 C30 1_555 1_555
N9 C28 1_555 1_555
N10 C18 1_555 1_555
N11 C10 1_555 1_555
N12 C9 1_555 1_555
C1 C3 1_555 1_555
C2 N2 1_555 1_555
C3 C5 1_555 1_555
C4 C15 1_555 1_555
C5 H1 1_555 1_555
C6 C3 1_555 1_555
H2 C6 1_555 1_555
C7 N6 1_555 1_555
C8 C2 1_555 1_555
H3 C8 1_555 1_555
H4 C8 1_555 1_555
H5 C8 1_555 1_555
C9 H6 1_555 1_555
C10 N12 1_555 1_555
C11 N5 1_555 1_555
H7 C11 1_555 1_555
C12 N1 1_555 1_555
H8 C12 1_555 1_555
C13 C6 1_555 1_555
H9 C13 1_555 1_555
C14 C5 1_555 1_555
H10 C14 1_555 1_555
C15 H11 1_555 1_555
H12 C15 1_555 1_555
H13 C15 1_555 1_555
C16 C7 1_555 1_555
H14 C16 1_555 1_555
H15 C16 1_555 1_555
H16 C16 1_555 1_555
C17 C10 1_555 1_555
H17 C17 1_555 1_555
H18 C17 1_555 1_555
H19 C17 1_555 1_555
C18 C35 1_555 1_555
C19 N2 1_555 1_555
H20 C19 1_555 1_555
C20 H21 1_555 1_555
C21 H22 1_555 1_555
H23 C21 1_555 1_555
H24 C21 1_555 1_555
C22 H25 1_555 1_555
C23 C20 1_555 1_555
H26 C23 1_555 1_555
C24 C26 1_555 1_555
C25 N10 1_555 1_555
H27 C25 1_555 1_555
C26 C23 1_555 1_555
C27 C20 1_555 1_555
C28 H28 1_555 1_555
C29 N7 1_555 1_555
H29 C29 1_555 1_555
C30 C28 1_555 1_555
H30 C30 1_555 1_555
C31 N6 1_555 1_555
H31 C31 1_555 1_555
C32 N4 1_555 1_555
H32 C32 1_555 1_555
C33 O5 1_555 1_555
C34 N8 1_555 1_555
C35 H33 1_555 1_555
H34 C35 1_555 1_555
H35 C35 1_555 1_555
C36 N11 1_555 1_555
H36 C36 1_555 1_555
C37 N3 1_555 1_555
H37 C37 1_555 1_555
C38 C22 1_555 1_555
H38 C38 1_555 1_555
B1 N1 1_555 1_555
B2 N4 1_555 1_555
Zn1B N7 1_555 1_555
Zn2P O2 1_555 1_555
Zn2Q N8 1_555 1_555
Zn2EA N12 1_555 1_555
O2P Zn2 1_555 1_555
N7A Zn1 1_555 1_555
N8Q Zn2 1_555 1_555
N12FA Zn2 1_555 1_555
N3 B1 1_555 1_555
N9 C34 1_555 1_555
N9 B2 1_555 1_555
N10 B2 1_555 1_555
N11 B1 1_555 1_555
C9 C36 1_555 1_555
C11 C37 1_555 1_555
C12 C19 1_555 1_555
C13 C33 1_555 1_555
C14 C33 1_555 1_555
C21 C34 1_555 1_555
C22 C27 1_555 1_555
C25 C29 1_555 1_555
C26 C38 1_555 1_555
C31 C32 1_555 1_555

#END
