
#######################################################################
#
#                 Cambridge Crystallographic Data Centre
#                                CCDC 
#
#######################################################################
#
# If this CIF has been generated from an entry in the Cambridge 
# Structural Database, then it will include bibliographic, chemical, 
# crystal, experimental, refinement or atomic coordinate data resulting 
# from the CCDC's data processing and validation procedures.
#
#######################################################################

data_OYOHOA
_symmetry_cell_setting           monoclinic
_symmetry_space_group_name_H-M   'C 2/c'
_symmetry_Int_Tables_number      15
_space_group_name_Hall           '-C 2yn'
loop_
_symmetry_equiv_pos_site_id
_symmetry_equiv_pos_as_xyz
1 x,y,z
2 -x,y,1/2-z
3 1/2+x,1/2+y,z
4 1/2-x,1/2+y,1/2-z
5 -x,-y,-z
6 x,-y,1/2+z
7 1/2-x,1/2-y,-z
8 1/2+x,1/2-y,1/2+z
_cell_length_a                   10.513(2)
_cell_length_b                   15.638(1)
_cell_length_c                   7.496(1)
_cell_angle_alpha                90
_cell_angle_beta                 104.450(5)
_cell_angle_gamma                90
_cell_volume                     1193.37
loop_
_atom_site_label
_atom_site_type_symbol
_atom_site_fract_x
_atom_site_fract_y
_atom_site_fract_z
C1 C 0.7621(3) 0.0783(2) 0.5795(5)
C2 C 0.8858(3) 0.0324(2) 0.6646(4)
C3 C 1.0000 0.0765(3) 0.7500
H1 H 1.0000 0.1360 0.7500
C4 C 0.8871(3) -0.0567(2) 0.6622(4)
H2 H 0.8123 -0.0866 0.6017
C5 C 1.0000 -0.1012(3) 0.7500
H3 H 1.0000 -0.1606 0.7500
N1 N 0.7442(3) 0.1550(2) 0.6396(5)
S1 S 0.65010(8) 0.02956(6) 0.40817(12)
Cl1 Cl 0.42778(10) 0.21351(6) 0.44759(13)
Co1 Co 0.5000 0.12853(4) 0.2500
H4 H 0.672(4) 0.186(3) 0.605(5)
H5 H 0.788(5) 0.183(4) 0.746(8)
C1A C 1.2379(3) 0.0783(2) 0.9205(5)
C2A C 1.1142(3) 0.0324(2) 0.8354(4)
C4A C 1.1129(3) -0.0567(2) 0.8378(4)
H2A H 1.1877 -0.0866 0.8983
N1A N 1.2558(3) 0.1550(2) 0.8604(5)
S1A S 1.34990(8) 0.02956(6) 1.09183(12)
S1A_2 S 0.34990(8) 0.02956(6) 0.09183(12)
Cl1A Cl 0.57222(10) 0.21351(6) 0.05241(13)
Co1_2 Co 1.5000 0.12853(4) 1.2500
H4A H 1.328(4) 0.186(3) 0.895(5)
H5A H 1.212(5) 0.183(4) 0.754(8)
loop_
_geom_bond_atom_site_label_1
_geom_bond_atom_site_label_2
_geom_bond_site_symmetry_1
_geom_bond_site_symmetry_2
C1 C2 1_555 1_555
C2 C3 1_555 1_555
C3 H1 1_555 1_555
C4 C2 1_555 1_555
H2 C4 1_555 1_555
C5 C4 1_555 1_555
H3 C5 1_555 1_555
N1 C1 1_555 1_555
S1 C1 1_555 1_555
Cl1 Co1 1_555 1_555
Co1 S1 1_555 1_555
H4 N1 1_555 1_555
H5 N1 1_555 1_555
C1A C2A 1_555 1_555
C2A C3 1_555 1_555
C4A C5 1_555 1_555
H2A C4A 1_555 1_555
N1A C1A 1_555 1_555
S1A C1A 1_555 1_555
S1A_2 Co1 1_555 1_555
Cl1A Co1 1_555 1_555
Co1_2 S1A 1_555 1_555
H4A N1A 1_555 1_555
H5A N1A 1_555 1_555
C2A C4A 1_555 1_555

#END
