
#######################################################################
#
#                 Cambridge Crystallographic Data Centre
#                                CCDC 
#
#######################################################################
#
# If this CIF has been generated from an entry in the Cambridge 
# Structural Database, then it will include bibliographic, chemical, 
# crystal, experimental, refinement or atomic coordinate data resulting 
# from the CCDC's data processing and validation procedures.
#
#######################################################################

data_OYOYUX
_symmetry_cell_setting           monoclinic
_symmetry_space_group_name_H-M   'P 21/c'
_symmetry_Int_Tables_number      14
_space_group_name_Hall           '-P 2ybc'
loop_
_symmetry_equiv_pos_site_id
_symmetry_equiv_pos_as_xyz
1 x,y,z
2 -x,1/2+y,1/2-z
3 -x,-y,-z
4 x,1/2-y,1/2+z
_cell_length_a                   10.842(5)
_cell_length_b                   9.320(5)
_cell_length_c                   18.308(5)
_cell_angle_alpha                90
_cell_angle_beta                 92.452(5)
_cell_angle_gamma                90
_cell_volume                     1848.28
loop_
_atom_site_label
_atom_site_type_symbol
_atom_site_fract_x
_atom_site_fract_y
_atom_site_fract_z
Mn1 Mn 1.0000 0.0000 1.0000
O1 O 0.8303(3) -0.0636(4) 1.05181(16)
O2 O 0.8927(3) 0.1407(4) 0.92855(17)
N1 N 0.9723(4) 0.8193(4) 0.9185(2)
O3 O 0.7015(3) 0.0916(5) 0.9550(2)
N2 N 0.8296(4) 0.4857(4) 0.7125(2)
C1 C 0.8568(4) 0.7041(5) 0.8216(2)
H1 H 0.7818 0.6945 0.7955
C2 C 0.7341(4) 0.2145(5) 0.8443(2)
C3 C 0.8687(4) 0.7986(5) 0.8795(3)
H2 H 0.7995 0.8509 0.8917
C4 C 0.7655(4) 0.3794(5) 0.7461(2)
C5 C 0.9571(4) 0.6245(5) 0.8030(2)
C6 C 0.5880(4) 0.2216(5) 0.7428(3)
C7 C 0.8038(4) 0.3205(5) 0.8134(2)
H3 H 0.8760 0.3526 0.8374
C8 C 0.9522(5) 0.5260(5) 0.7378(3)
H4 H 0.9929 0.5727 0.6981
H5 H 0.9984 0.4396 0.7503
C9 C 0.7800(5) 0.1452(5) 0.9150(2)
C10 C 1.0645(5) 0.6413(5) 0.8441(3)
H6 H 1.1342 0.5880 0.8339
N3 N 0.4775(4) 0.1727(5) 0.7086(2)
C11 C 0.6566(5) 0.3284(5) 0.7119(3)
H7 H 0.6297 0.3674 0.6672
C12 C 1.0678(5) 0.7385(5) 0.9010(3)
H8 H 1.1412 0.7482 0.9287
N4 N 0.7433(5) -0.1579(6) 0.5622(3)
C13 C 0.4757(5) 0.1498(7) 0.6300(3)
H9 H 0.4886 0.2411 0.6060
H10 H 0.3947 0.1148 0.6139
C14 C 0.5722(5) 0.0445(6) 0.6060(3)
C15 C 0.5997(7) -0.0762(7) 0.6461(4)
H11 H 0.5620 -0.0917 0.6901
C16 C 0.6377(5) 0.0638(7) 0.5439(3)
H12 H 0.6259 0.1453 0.5152
C17 C 0.6268(4) 0.1668(5) 0.8103(3)
H13 H 0.5798 0.0972 0.8326
C18 C 0.7206(5) -0.0394(7) 0.5253(3)
H14 H 0.7642 -0.0243 0.4833
C19 C 0.6814(8) -0.1729(7) 0.6219(4)
H15 H 0.6947 -0.2558 0.6494
H16 H 0.8143 0.4985 0.6642
H17 H 0.8064 -0.1567 1.0538
H20 H 0.7691 -0.0299 1.0266
H21 H 0.4445 0.1024 0.7321
Mn1_2 Mn 1.0000 1.0000 1.0000
Mn1_3 Mn 1.0000 -1.0000 1.0000
O1B O 1.1697(3) 0.0636(4) 0.94819(16)
O2B O 1.1073(3) -0.1407(4) 1.07145(17)
N1B N 1.0277(4) -0.8193(4) 1.0815(2)
N1_2 N 0.9723(4) -0.1807(4) 0.9185(2)
N1B_2 N 1.0277(4) 0.1807(4) 1.0815(2)
O3B O 1.2985(3) -0.0916(5) 1.0450(2)
N2B N 1.1704(4) -0.4857(4) 1.2875(2)
C1B C 1.1432(4) -0.7041(5) 1.1784(2)
H1B H 1.2182 -0.6945 1.2045
C2B C 1.2659(4) -0.2145(5) 1.1557(2)
C3B C 1.1313(4) -0.7986(5) 1.1205(3)
H2B H 1.2005 -0.8509 1.1083
C4B C 1.2345(4) -0.3794(5) 1.2539(2)
C5B C 1.0429(4) -0.6245(5) 1.1970(2)
C6B C 1.4120(4) -0.2216(5) 1.2572(3)
C7B C 1.1962(4) -0.3205(5) 1.1866(2)
H3B H 1.1240 -0.3526 1.1626
C8B C 1.0478(5) -0.5260(5) 1.2622(3)
H4B H 1.0071 -0.5727 1.3019
H5B H 1.0016 -0.4396 1.2497
C9B C 1.2200(5) -0.1452(5) 1.0850(2)
C10B C 0.9355(5) -0.6413(5) 1.1559(3)
H6B H 0.8658 -0.5880 1.1661
N3B N 1.5225(4) -0.1727(5) 1.2914(2)
C11B C 1.3434(5) -0.3284(5) 1.2881(3)
H7B H 1.3703 -0.3674 1.3328
C12B C 0.9322(5) -0.7385(5) 1.0990(3)
H8B H 0.8588 -0.7482 1.0713
N4B N 1.2567(5) 0.1579(6) 1.4378(3)
C13B C 1.5243(5) -0.1498(7) 1.3700(3)
H9B H 1.5114 -0.2411 1.3940
H10B H 1.6053 -0.1148 1.3861
C14B C 1.4278(5) -0.0445(6) 1.3940(3)
C15B C 1.4003(7) 0.0762(7) 1.3539(4)
H11B H 1.4380 0.0917 1.3099
C16B C 1.3623(5) -0.0638(7) 1.4561(3)
H12B H 1.3741 -0.1453 1.4848
C17B C 1.3732(4) -0.1668(5) 1.1897(3)
H13B H 1.4202 -0.0972 1.1674
C18B C 1.2794(5) 0.0394(7) 1.4747(3)
H14B H 1.2358 0.0243 1.5167
C19B C 1.3186(8) 0.1729(7) 1.3781(4)
H15B H 1.3053 0.2558 1.3506
H16B H 1.1857 -0.4985 1.3358
H17B H 1.1936 0.1567 0.9462
H20B H 1.2309 0.0299 0.9734
H21B H 1.5555 -0.1024 1.2679
O4 O 0.5275(8) 0.4796(13) 0.5513(6)
H18 H 0.4149 0.4906 0.5383
H19 H 0.5625 0.4260 0.5063
loop_
_geom_bond_atom_site_label_1
_geom_bond_atom_site_label_2
_geom_bond_site_symmetry_1
_geom_bond_site_symmetry_2
Mn1 O1 1_555 1_555
O1 H17 1_555 1_555
O2 Mn1 1_555 1_555
N1 C3 1_555 1_555
O3 C9 1_555 1_555
N2 C4 1_555 1_555
C1 H1 1_555 1_555
C2 C7 1_555 1_555
C3 C1 1_555 1_555
H2 C3 1_555 1_555
C4 C7 1_555 1_555
C5 C1 1_555 1_555
C6 N3 1_555 1_555
C7 H3 1_555 1_555
C8 N2 1_555 1_555
H4 C8 1_555 1_555
H5 C8 1_555 1_555
C9 O2 1_555 1_555
C10 C5 1_555 1_555
H6 C10 1_555 1_555
N3 C13 1_555 1_555
C11 C4 1_555 1_555
H7 C11 1_555 1_555
C12 N1 1_555 1_555
H8 C12 1_555 1_555
N4 C18 1_555 1_555
C13 H9 1_555 1_555
H10 C13 1_555 1_555
C14 C13 1_555 1_555
C15 C14 1_555 1_555
H11 C15 1_555 1_555
C16 C14 1_555 1_555
H12 C16 1_555 1_555
C17 C2 1_555 1_555
H13 C17 1_555 1_555
C18 C16 1_555 1_555
H14 C18 1_555 1_555
C19 N4 1_555 1_555
H15 C19 1_555 1_555
O4 H18 1_555 1_555
H16 N2 1_555 1_555
H19 O4 1_555 1_555
H20 O1 1_555 1_555
H21 N3 1_555 1_555
Mn1_2 N1 1_555 1_555
Mn1_3 N1B 1_555 1_555
O1B Mn1 1_555 1_555
O2B Mn1 1_555 1_555
N1B C3B 1_555 1_555
N1_2 Mn1 1_555 1_555
N1B_2 Mn1 1_555 1_555
O3B C9B 1_555 1_555
N2B C4B 1_555 1_555
C1B H1B 1_555 1_555
C2B C7B 1_555 1_555
C3B C1B 1_555 1_555
H2B C3B 1_555 1_555
C4B C7B 1_555 1_555
C5B C1B 1_555 1_555
C6B N3B 1_555 1_555
C7B H3B 1_555 1_555
C8B N2B 1_555 1_555
H4B C8B 1_555 1_555
H5B C8B 1_555 1_555
C9B O2B 1_555 1_555
C10B C5B 1_555 1_555
H6B C10B 1_555 1_555
N3B C13B 1_555 1_555
C11B C4B 1_555 1_555
H7B C11B 1_555 1_555
C12B N1B 1_555 1_555
H8B C12B 1_555 1_555
N4B C18B 1_555 1_555
C13B H9B 1_555 1_555
H10B C13B 1_555 1_555
C14B C13B 1_555 1_555
C15B C14B 1_555 1_555
H11B C15B 1_555 1_555
C16B C14B 1_555 1_555
H12B C16B 1_555 1_555
C17B C2B 1_555 1_555
H13B C17B 1_555 1_555
C18B C16B 1_555 1_555
H14B C18B 1_555 1_555
C19B N4B 1_555 1_555
H15B C19B 1_555 1_555
H16B N2B 1_555 1_555
H17B O1B 1_555 1_555
H20B O1B 1_555 1_555
H21B N3B 1_555 1_555
C2 C9 1_555 1_555
C5 C8 1_555 1_555
C6 C11 1_555 1_555
C6 C17 1_555 1_555
C10 C12 1_555 1_555
C15 C19 1_555 1_555
C2B C9B 1_555 1_555
C5B C8B 1_555 1_555
C6B C11B 1_555 1_555
C6B C17B 1_555 1_555
C10B C12B 1_555 1_555
C15B C19B 1_555 1_555

#END
