
#######################################################################
#
#                 Cambridge Crystallographic Data Centre
#                                CCDC 
#
#######################################################################
#
# If this CIF has been generated from an entry in the Cambridge 
# Structural Database, then it will include bibliographic, chemical, 
# crystal, experimental, refinement or atomic coordinate data resulting 
# from the CCDC's data processing and validation procedures.
#
#######################################################################

data_OZAXET
_symmetry_cell_setting           monoclinic
_symmetry_space_group_name_H-M   'P 21'
_symmetry_Int_Tables_number      4
_space_group_name_Hall           'P 2yb'
loop_
_symmetry_equiv_pos_site_id
_symmetry_equiv_pos_as_xyz
1 x,y,z
2 -x,1/2+y,-z
_cell_length_a                   5.0587(7)
_cell_length_b                   9.4288(12)
_cell_length_c                   12.3403(16)
_cell_angle_alpha                90
_cell_angle_beta                 95.015(9)
_cell_angle_gamma                90
_cell_volume                     586.348
loop_
_atom_site_label
_atom_site_type_symbol
_atom_site_fract_x
_atom_site_fract_y
_atom_site_fract_z
Co1 Co 1.27045(5) 0.31869(3) 0.05033(2)
C1 C 0.8036(4) 0.3814(3) 0.17213(19)
C2 C 0.7448(4) 0.3054(4) 0.27416(17)
C3 C 0.9003(4) 0.3378(3) 0.36810(18)
H1 H 1.0417 0.4000 0.3638
C4 C 0.8550(5) 0.2813(3) 0.47001(19)
C5 C 0.9595(6) 0.2613(4) 0.6650(2)
H2 H 1.0643 0.2860 0.7279
C6 C 0.7469(6) 0.1670(4) 0.6703(2)
H3 H 0.7091 0.1310 0.7374
C7 C 0.5947(6) 0.1272(4) 0.5789(2)
H4 H 0.4565 0.0632 0.5840
C8 C 0.6453(5) 0.1825(3) 0.4761(2)
C9 C 0.4942(5) 0.1432(3) 0.3787(2)
H5 H 0.3613 0.0754 0.3813
C10 C 0.5390(4) 0.2023(3) 0.28116(19)
C11 C 0.2408(6) 0.0406(3) 0.1802(2)
H6 H 0.1573 0.0320 0.2477
H7 H 0.3539 -0.0415 0.1737
C12 C 0.0302(4) 0.0429(3) 0.08628(19)
O1 O 1.0396(3) 0.4126(2) 0.16263(13)
O2 O 0.3989(3) 0.16599(18) 0.18343(13)
O3 O 0.0020(3) 0.15248(19) 0.02905(14)
O4 O -0.1060(3) -0.06643(19) 0.07709(14)
O5 O 1.4909(2) 0.20812(12) -0.06104(9)
H8 H 1.6404 0.2044 -0.0452
H9 H 1.4357 0.1252 -0.0721
O6 O 0.6139(2) 0.41707(12) 0.10287(9)
C13 C 1.0114(2) 0.31645(12) 0.56736(9)
H10 H 1.1530 0.3788 0.5643
Co1_2 Co 0.27045(5) 0.31869(3) 0.05033(2)
Co1A Co -0.27045(5) -0.18131(3) -0.05033(2)
O2_2 O 1.3989(3) 0.16599(18) 0.18343(13)
O3_2 O 1.0020(3) 0.15248(19) 0.02905(14)
O4A O 1.1060(3) 0.43357(19) -0.07709(14)
O6_2 O 1.6139(2) 0.41707(12) 0.10287(9)
loop_
_geom_bond_atom_site_label_1
_geom_bond_atom_site_label_2
_geom_bond_site_symmetry_1
_geom_bond_site_symmetry_2
Co1 O1 1_555 1_555
C1 C2 1_555 1_555
C2 C3 1_555 1_555
C3 H1 1_555 1_555
C4 C3 1_555 1_555
C5 H2 1_555 1_555
C6 C5 1_555 1_555
H3 C6 1_555 1_555
C7 C6 1_555 1_555
H4 C7 1_555 1_555
C8 C4 1_555 1_555
C9 C8 1_555 1_555
H5 C9 1_555 1_555
C10 C2 1_555 1_555
C11 H6 1_555 1_555
H7 C11 1_555 1_555
C12 C11 1_555 1_555
O1 C1 1_555 1_555
O2 C10 1_555 1_555
O3 C12 1_555 1_555
O4 C12 1_555 1_555
O5 Co1 1_555 1_555
H8 O5 1_555 1_555
H9 O5 1_555 1_555
O6 C1 1_555 1_555
C13 C4 1_555 1_555
H10 C13 1_555 1_555
Co1_2 O2 1_555 1_555
Co1A O4 1_555 1_555
O2_2 Co1 1_555 1_555
O3_2 Co1 1_555 1_555
O4A Co1 1_555 1_555
O6_2 Co1 1_555 1_555
C5 C13 1_555 1_555
C7 C8 1_555 1_555
C9 C10 1_555 1_555
C11 O2 1_555 1_555
O3 Co1_2 1_555 1_555
O6 Co1_2 1_555 1_555

#END
