
#######################################################################
#
#                 Cambridge Crystallographic Data Centre
#                                CCDC 
#
#######################################################################
#
# If this CIF has been generated from an entry in the Cambridge 
# Structural Database, then it will include bibliographic, chemical, 
# crystal, experimental, refinement or atomic coordinate data resulting 
# from the CCDC's data processing and validation procedures.
#
#######################################################################

data_OZAXIX01
_symmetry_cell_setting           orthorhombic
_symmetry_space_group_name_H-M   'P b c a'
_symmetry_Int_Tables_number      61
_space_group_name_Hall           '-P 2ac 2ab'
loop_
_symmetry_equiv_pos_site_id
_symmetry_equiv_pos_as_xyz
1 x,y,z
2 1/2-x,-y,1/2+z
3 1/2+x,1/2-y,-z
4 -x,1/2+y,1/2-z
5 -x,-y,-z
6 1/2+x,y,1/2-z
7 1/2-x,1/2+y,z
8 x,1/2-y,1/2+z
_cell_length_a                   16.2492(12)
_cell_length_b                   9.4795(8)
_cell_length_c                   19.0259(15)
_cell_angle_alpha                90
_cell_angle_beta                 90
_cell_angle_gamma                90
_cell_volume                     2930.64
loop_
_atom_site_label
_atom_site_type_symbol
_atom_site_fract_x
_atom_site_fract_y
_atom_site_fract_z
Na1 Na 1.12445(3) 0.11838(6) 0.77752(3)
O1 O 1.01465(6) 0.09198(11) 0.70238(6)
O2 O 1.03192(6) 0.24346(11) 0.85029(6)
H1 H 0.9900(9) 0.242(2) 0.8242(10)
H2 H 1.0496(12) 0.3275(13) 0.8507(11)
N1 N 0.77066(7) 0.11979(12) 0.71090(6)
N2 N 0.90151(7) 0.18999(12) 0.75438(6)
N3 N 0.89101(7) 0.01145(13) 0.66553(6)
N4 N 0.67686(7) -0.06173(13) 0.63563(7)
N5 N 0.69450(8) 0.29013(13) 0.80131(7)
C1 C 0.81991(9) 0.19577(14) 0.75270(7)
C2 C 0.93790(9) 0.09779(15) 0.70747(7)
C3 C 0.81032(9) 0.02842(14) 0.66934(7)
C4 C 0.77757(9) 0.29623(14) 0.80136(7)
C5 C 0.82089(10) 0.38999(15) 0.84348(8)
H3 H 0.8793 0.3923 0.8422
C6 C 0.77767(10) 0.48044(16) 0.88761(8)
H4 H 0.8061 0.5455 0.9168
C7 C 0.69284(10) 0.47417(16) 0.88821(8)
H5 H 0.6616 0.5343 0.9179
C8 C 0.65435(10) 0.37747(16) 0.84418(8)
H6 H 0.5959 0.3734 0.8447
C9 C 0.75844(9) -0.06251(14) 0.62303(7)
C10 C 0.79426(9) -0.14275(15) 0.57030(8)
H7 H 0.8518 -0.1381 0.5620
C11 C 0.74459(11) -0.22996(16) 0.52990(8)
H8 H 0.7677 -0.2877 0.4942
C12 C 0.66092(10) -0.23122(16) 0.54263(8)
H9 H 0.6253 -0.2899 0.5160
C13 C 0.63021(9) -0.14494(16) 0.59522(8)
H10 H 0.5725 -0.1449 0.6031
Na1E Na 0.62445(3) 0.11838(6) 0.72248(3)
N1E N 1.27066(7) 0.11979(12) 0.78910(6)
N4E N 1.17686(7) -0.06173(13) 0.86437(7)
N5E N 1.19450(8) 0.29013(13) 0.69869(7)
O3 O 1.03798(9) 0.13267(15) 0.98837(7)
H11 H 1.0338(14) 0.156(2) 0.9459(6)
H12 H 1.009(2) 0.061(3) 0.9943(15)
O4 O 1.03949(9) 0.09584(16) 0.54743(7)
H14 H 1.0274(14) 0.086(2) 0.5897(5)
H15 H 1.011(2) 0.040(4) 0.5240(12)
H13? H 1.028(3) 0.204(3) 1.0127(12)
H16? H 1.029(3) 0.179(2) 0.5357(16)
loop_
_geom_bond_atom_site_label_1
_geom_bond_atom_site_label_2
_geom_bond_site_symmetry_1
_geom_bond_site_symmetry_2
Na1 O1 1_555 1_555
O1 C2 1_555 1_555
O2 Na1 1_555 1_555
H1 O2 1_555 1_555
H2 O2 1_555 1_555
N1 C1 1_555 1_555
N2 C1 1_555 1_555
N3 C2 1_555 1_555
N4 C9 1_555 1_555
N5 C4 1_555 1_555
C1 C4 1_555 1_555
C2 N2 1_555 1_555
C3 N1 1_555 1_555
C4 C5 1_555 1_555
C5 H3 1_555 1_555
C6 C5 1_555 1_555
H4 C6 1_555 1_555
C7 C6 1_555 1_555
H5 C7 1_555 1_555
C8 N5 1_555 1_555
H6 C8 1_555 1_555
C9 C3 1_555 1_555
C10 C9 1_555 1_555
H7 C10 1_555 1_555
C11 C10 1_555 1_555
H8 C11 1_555 1_555
C12 C11 1_555 1_555
H9 C12 1_555 1_555
C13 N4 1_555 1_555
H10 C13 1_555 1_555
O3 H11 1_555 1_555
H12 O3 1_555 1_555
O4 H14 1_555 1_555
H15 O4 1_555 1_555
Na1E N1 1_555 1_555
N1E Na1 1_555 1_555
N4E Na1 1_555 1_555
N5E Na1 1_555 1_555
N3 C3 1_555 1_555
N4 Na1E 1_555 1_555
N5 Na1E 1_555 1_555
C7 C8 1_555 1_555
C12 C13 1_555 1_555

#END
