
#######################################################################
#
#                 Cambridge Crystallographic Data Centre
#                                CCDC 
#
#######################################################################
#
# If this CIF has been generated from an entry in the Cambridge 
# Structural Database, then it will include bibliographic, chemical, 
# crystal, experimental, refinement or atomic coordinate data resulting 
# from the CCDC's data processing and validation procedures.
#
#######################################################################

data_OZEPEP
_symmetry_cell_setting           orthorhombic
_symmetry_space_group_name_H-M   'P n a 21'
_symmetry_Int_Tables_number      33
_space_group_name_Hall           'P 2c -2n'
loop_
_symmetry_equiv_pos_site_id
_symmetry_equiv_pos_as_xyz
1 x,y,z
2 -x,-y,1/2+z
3 1/2+x,1/2-y,z
4 1/2-x,1/2+y,1/2+z
_cell_length_a                   26.194(13)
_cell_length_b                   10.524(5)
_cell_length_c                   8.243(4)
_cell_angle_alpha                90
_cell_angle_beta                 90
_cell_angle_gamma                90
_cell_volume                     2272.31
loop_
_atom_site_label
_atom_site_type_symbol
_atom_site_fract_x
_atom_site_fract_y
_atom_site_fract_z
C1 C 0.92732(13) 0.4206(3) 0.2036(5)
C2 C 0.88036(13) 0.3665(3) 0.2861(4)
C3 C 0.85991(13) 0.2503(3) 0.2423(5)
H1 H 0.8740 0.2048 0.1566
C4 C 0.81846(14) 0.2015(4) 0.3259(5)
H2 H 0.8044 0.1244 0.2934
C5 C 0.79747(13) 0.2656(3) 0.4575(4)
C6 C 0.81682(14) 0.3842(4) 0.4951(5)
H3 H 0.8026 0.4300 0.5803
C7 C 0.85692(13) 0.4359(3) 0.4081(5)
H4 H 0.8682 0.5177 0.4316
C8 C 0.75641(14) 0.1980(4) 0.5588(5)
C9 C 0.72962(16) 0.2863(5) 0.6813(6)
C10 C 0.78538(18) 0.0947(5) 0.6578(6)
C11 C 0.71307(12) 0.1444(3) 0.4551(4)
C12 C 0.68861(13) 0.0298(4) 0.4899(5)
H5 H 0.7016 -0.0231 0.5703
C13 C 0.64533(13) -0.0054(3) 0.4060(4)
H6 H 0.6295 -0.0823 0.4300
C14 C 0.62503(13) 0.0721(3) 0.2866(4)
C15 C 0.65044(13) 0.1831(3) 0.2457(5)
H7 H 0.6379 0.2342 0.1627
C16 C 0.69445(15) 0.2182(4) 0.3281(5)
H8 H 0.7117 0.2918 0.2981
C17 C 0.97620(17) 0.1399(4) -0.1543(5)
H9 H 0.9432 0.1692 -0.1353
C18 C 0.98269(19) 0.0124(4) -0.1901(7)
C19 C 1.0314(2) -0.0302(5) -0.2143(9)
H10 H 1.0377 -0.1151 -0.2381
C20 C 1.0708(2) 0.0550(5) -0.2029(9)
H11 H 1.1042 0.0276 -0.2183
C21 C 1.06128(18) 0.1800(4) -0.1689(7)
H12 H 1.0886 0.2363 -0.1619
C22 C 0.9378(2) -0.0752(5) -0.1974(11)
H13 H 0.9212 -0.0771 -0.0936
H14 H 0.9492 -0.1591 -0.2253
H15 H 0.9142 -0.0454 -0.2781
C23 C 0.57586(13) 0.0348(3) 0.2026(4)
Co1 Co 1.002784(16) 0.41514(4) -0.07486(8)
F1 F 0.76106(11) 0.3231(3) 0.8016(3)
F2 F 0.69015(10) 0.2294(3) 0.7534(4)
F3 F 0.71199(11) 0.3906(3) 0.6107(4)
F4 F 0.82801(10) 0.1409(3) 0.7221(4)
F5 F 0.79903(9) -0.0023(3) 0.5628(4)
F6 F 0.75839(10) 0.0457(3) 0.7783(3)
N1 N 1.01436(12) 0.2232(3) -0.1456(4)
O1 O 0.94711(9) 0.3567(2) 0.0927(3)
O2 O 0.55432(10) -0.0663(2) 0.2494(3)
O3 O 0.94208(9) 0.5292(3) 0.2517(3)
O4 O 0.56070(10) 0.1070(2) 0.0938(3)
O5 O 0.99339(12) 0.6153(3) -0.0198(4)
H16 H 1.0166(15) 0.636(5) 0.013(7)
H17 H 0.9705(15) 0.635(5) 0.024(7)
Co1A Co 0.997216(16) 0.58486(4) 0.42514(8)
Co1B Co 0.502784(16) 0.08486(4) -0.07486(8)
Co1C Co 0.497216(16) -0.08486(4) 0.42514(8)
O2C O 0.94568(10) 0.4337(2) -0.2506(3)
O3A O 1.05792(9) 0.4708(3) -0.2483(3)
O4B O 1.06070(10) 0.3930(2) 0.0938(3)
loop_
_geom_bond_atom_site_label_1
_geom_bond_atom_site_label_2
_geom_bond_site_symmetry_1
_geom_bond_site_symmetry_2
C1 C2 1_555 1_555
C2 C3 1_555 1_555
C3 H1 1_555 1_555
C4 C3 1_555 1_555
H2 C4 1_555 1_555
C5 C4 1_555 1_555
C6 C5 1_555 1_555
H3 C6 1_555 1_555
C7 C2 1_555 1_555
H4 C7 1_555 1_555
C8 C5 1_555 1_555
C9 C8 1_555 1_555
C10 C8 1_555 1_555
C11 C8 1_555 1_555
C12 C11 1_555 1_555
H5 C12 1_555 1_555
C13 C12 1_555 1_555
H6 C13 1_555 1_555
C14 C13 1_555 1_555
C15 C14 1_555 1_555
H7 C15 1_555 1_555
C16 C11 1_555 1_555
H8 C16 1_555 1_555
C17 H9 1_555 1_555
C18 C17 1_555 1_555
C19 C18 1_555 1_555
H10 C19 1_555 1_555
C20 C19 1_555 1_555
H11 C20 1_555 1_555
C21 C20 1_555 1_555
H12 C21 1_555 1_555
C22 C18 1_555 1_555
H13 C22 1_555 1_555
H14 C22 1_555 1_555
H15 C22 1_555 1_555
C23 C14 1_555 1_555
Co1 N1 1_555 1_555
F1 C9 1_555 1_555
F2 C9 1_555 1_555
F3 C9 1_555 1_555
F4 C10 1_555 1_555
F5 C10 1_555 1_555
F6 C10 1_555 1_555
N1 C17 1_555 1_555
O1 C1 1_555 1_555
O2 C23 1_555 1_555
O3 C1 1_555 1_555
O4 C23 1_555 1_555
O5 Co1 1_555 1_555
H16 O5 1_555 1_555
H17 O5 1_555 1_555
Co1A O3 1_555 1_555
Co1B O4 1_555 1_555
Co1C O2 1_555 1_555
O2C Co1 1_555 1_555
O3A Co1 1_555 1_555
O4B Co1 1_555 1_555
C6 C7 1_555 1_555
C15 C16 1_555 1_555
C21 N1 1_555 1_555
Co1 O1 1_555 1_555

#END
