
#######################################################################
#
#                 Cambridge Crystallographic Data Centre
#                                CCDC 
#
#######################################################################
#
# If this CIF has been generated from an entry in the Cambridge 
# Structural Database, then it will include bibliographic, chemical, 
# crystal, experimental, refinement or atomic coordinate data resulting 
# from the CCDC's data processing and validation procedures.
#
#######################################################################

data_OZEPOZ
_symmetry_cell_setting           orthorhombic
_symmetry_space_group_name_H-M   'P n a 21'
_symmetry_Int_Tables_number      33
_space_group_name_Hall           'P 2c -2n'
loop_
_symmetry_equiv_pos_site_id
_symmetry_equiv_pos_as_xyz
1 x,y,z
2 -x,-y,1/2+z
3 1/2+x,1/2-y,z
4 1/2-x,1/2+y,1/2+z
_cell_length_a                   26.406(8)
_cell_length_b                   10.626(3)
_cell_length_c                   8.473(3)
_cell_angle_alpha                90
_cell_angle_beta                 90
_cell_angle_gamma                90
_cell_volume                     2377.44
loop_
_atom_site_label
_atom_site_type_symbol
_atom_site_fract_x
_atom_site_fract_y
_atom_site_fract_z
C1 C 1.07820(11) 0.5369(3) 0.6917(4)
C2 C 1.12683(11) 0.5735(3) 0.6085(4)
C3 C 1.15235(11) 0.6835(3) 0.6489(4)
H1 H 1.1404 0.7333 0.7313
C4 C 1.19524(12) 0.7190(3) 0.5671(4)
H2 H 1.2124 0.7918 0.5966
C5 C 1.21325(10) 0.6481(3) 0.4418(4)
C6 C 1.18891(11) 0.5350(3) 0.4058(4)
H3 H 1.2014 0.4839 0.3257
C7 C 1.14620(11) 0.4987(3) 0.4890(4)
H4 H 1.1303 0.4231 0.4643
C8 C 1.25608(12) 0.7026(4) 0.3392(4)
C9 C 1.28408(15) 0.6014(5) 0.2415(5)
C10 C 1.22963(15) 0.7922(5) 0.2210(5)
C11 C 1.29686(10) 0.7694(3) 0.4384(4)
C12 C 1.42518(11) 0.9214(3) 0.6914(4)
C13 C 1.37881(11) 0.8688(3) 0.6089(4)
C14 C 1.35795(11) 0.7528(3) 0.6507(4)
H5 H 1.3714 0.7075 0.7347
C15 C 1.31737(12) 0.7055(3) 0.5672(4)
H6 H 1.3033 0.6290 0.5976
C16 C 1.31618(12) 0.8878(3) 0.4035(4)
H7 H 1.3019 0.9344 0.3218
C17 C 1.35617(11) 0.9374(3) 0.4880(4)
H8 H 1.3681 1.0175 0.4640
C18 C 0.97664(15) 0.8686(4) 1.0536(5)
H9 H 0.9440 0.8386 1.0361
C19 C 0.98204(19) 0.9949(4) 1.0878(7)
C20 C 1.0310(2) 1.0364(5) 1.1104(8)
H10 H 1.0372 1.1206 1.1330
C21 C 1.0702(2) 0.9539(4) 1.0995(10)
H11 H 1.1033 0.9815 1.1148
C22 C 1.06075(17) 0.8307(4) 1.0661(7)
H12 H 1.0880 0.7755 1.0586
C23 C 0.9365(2) 1.0801(4) 1.0945(11)
H13 H 0.9437 1.1567 1.0388
H14 H 0.9287 1.0990 1.2026
H15 H 0.9081 1.0388 1.0464
F1 F 1.29834(8) 0.5041(2) 0.3330(3)
F2 F 1.25743(9) 0.5533(3) 0.1238(3)
F3 F 1.32648(9) 0.6477(3) 0.1777(3)
F4 F 1.21176(9) 0.8950(2) 0.2931(3)
F5 F 1.18987(9) 0.7365(3) 0.1516(3)
F6 F 1.25991(10) 0.8312(3) 0.1051(3)
H16 H 1.0193(13) 0.366(4) 0.856(7)
H17 H 0.9734(13) 0.370(5) 0.861(6)
Mn1 Mn 1.002516(15) 0.58596(4) 0.96825(8)
N1 N 1.01461(11) 0.7865(3) 1.0440(4)
O1 O 1.06253(8) 0.6078(2) 0.7989(3)
O2 O 1.44087(8) 1.0288(2) 0.6469(3)
O3 O 1.44466(8) 0.8564(2) 0.7997(3)
O4 O 1.05665(8) 0.4359(2) 0.6468(3)
O5 O 0.99441(16) 0.3795(3) 0.9087(3)
Mn1C Mn 1.497484(15) 1.08596(4) 0.46825(8)
Mn1B Mn 1.502516(15) 0.91404(4) 0.96825(8)
Mn1A Mn 0.997484(15) 0.41404(4) 0.46825(8)
O2C O 1.05913(8) 0.5288(2) 1.1469(3)
O3B O 0.94466(8) 0.6436(2) 0.7997(3)
O4A O 0.94335(8) 0.5641(2) 1.1468(3)
loop_
_geom_bond_atom_site_label_1
_geom_bond_atom_site_label_2
_geom_bond_site_symmetry_1
_geom_bond_site_symmetry_2
C1 C2 1_555 1_555
C2 C3 1_555 1_555
C3 H1 1_555 1_555
C4 C3 1_555 1_555
H2 C4 1_555 1_555
C5 C4 1_555 1_555
C6 C5 1_555 1_555
H3 C6 1_555 1_555
C7 C2 1_555 1_555
H4 C7 1_555 1_555
C8 C5 1_555 1_555
C9 C8 1_555 1_555
C10 C8 1_555 1_555
C11 C8 1_555 1_555
C12 C13 1_555 1_555
C13 C14 1_555 1_555
C14 H5 1_555 1_555
C15 C11 1_555 1_555
H6 C15 1_555 1_555
C16 C11 1_555 1_555
H7 C16 1_555 1_555
C17 C13 1_555 1_555
H8 C17 1_555 1_555
C18 H9 1_555 1_555
C19 C18 1_555 1_555
C20 C19 1_555 1_555
H10 C20 1_555 1_555
C21 C20 1_555 1_555
H11 C21 1_555 1_555
C22 C21 1_555 1_555
H12 C22 1_555 1_555
C23 C19 1_555 1_555
H13 C23 1_555 1_555
H14 C23 1_555 1_555
H15 C23 1_555 1_555
F1 C9 1_555 1_555
F2 C9 1_555 1_555
F3 C9 1_555 1_555
F4 C10 1_555 1_555
F5 C10 1_555 1_555
F6 C10 1_555 1_555
H16 O5 1_555 1_555
H17 O5 1_555 1_555
Mn1 N1 1_555 1_555
N1 C18 1_555 1_555
O1 C1 1_555 1_555
O2 C12 1_555 1_555
O3 C12 1_555 1_555
O4 C1 1_555 1_555
O5 Mn1 1_555 1_555
Mn1C O2 1_555 1_555
Mn1B O3 1_555 1_555
Mn1A O4 1_555 1_555
O2C Mn1 1_555 1_555
O3B Mn1 1_555 1_555
O4A Mn1 1_555 1_555
C6 C7 1_555 1_555
C14 C15 1_555 1_555
C16 C17 1_555 1_555
C22 N1 1_555 1_555
Mn1 O1 1_555 1_555

#END
