
#######################################################################
#
#                 Cambridge Crystallographic Data Centre
#                                CCDC 
#
#######################################################################
#
# If this CIF has been generated from an entry in the Cambridge 
# Structural Database, then it will include bibliographic, chemical, 
# crystal, experimental, refinement or atomic coordinate data resulting 
# from the CCDC's data processing and validation procedures.
#
#######################################################################

data_OZUKEA
_symmetry_cell_setting           triclinic
_symmetry_space_group_name_H-M   'P -1'
_symmetry_Int_Tables_number      2
_space_group_name_Hall           '-P 1'
loop_
_symmetry_equiv_pos_site_id
_symmetry_equiv_pos_as_xyz
1 x,y,z
2 -x,-y,-z
_cell_length_a                   9.6842(5)
_cell_length_b                   13.2636(6)
_cell_length_c                   14.0701(7)
_cell_angle_alpha                66.352(5)
_cell_angle_beta                 83.362(4)
_cell_angle_gamma                89.380(4)
_cell_volume                     1643.15
loop_
_atom_site_label
_atom_site_type_symbol
_atom_site_fract_x
_atom_site_fract_y
_atom_site_fract_z
Br1 Br 0.74398(2) 0.06816(2) 0.08272(2)
Br2 Br 0.75042(2) 0.23477(2) 0.25316(2)
Cu1 Cu 0.87137(3) 0.22604(3) 0.08990(2)
Cu2 Cu 0.61832(3) 0.08299(3) 0.23817(2)
S1 S 1.21746(6) 0.18919(5) 0.20372(5)
S2 S 1.10441(6) -0.02176(5) 0.17282(5)
S3 S 1.20627(6) 0.19749(5) -0.02839(4)
P1 P 0.58292(5) -0.07020(4) 0.38604(4)
P2 P 0.87293(5) 0.39072(4) -0.04749(4)
P3 P 1.08289(5) 0.14933(5) 0.11570(5)
P4 P 1.39934(5) 0.11390(5) 0.17323(4)
P5 P 1.32098(6) -0.03395(5) 0.15313(5)
P6 P 1.39184(6) 0.11828(6) 0.01314(5)
C1 C 0.4703(2) -0.04699(19) 0.48913(17)
C2 C 0.7364(2) -0.13276(19) 0.44748(16)
C3 C 0.7369(3) -0.2431(2) 0.51481(19)
C4 C 0.8562(3) -0.2882(3) 0.5589(2)
C5 C 0.9750(3) -0.2231(3) 0.5371(2)
C6 C 0.9761(3) -0.1145(3) 0.4691(3)
C7 C 0.8576(3) -0.0696(2) 0.4237(2)
C8 C 0.4969(2) -0.18349(18) 0.37200(16)
C9 C 0.3646(3) -0.2251(2) 0.4193(2)
C10 C 0.3017(4) -0.3064(3) 0.3984(3)
C11 C 0.3720(4) -0.3475(3) 0.3314(3)
C12 C 0.5040(3) -0.3072(2) 0.2845(2)
C13 C 0.5654(3) -0.2246(2) 0.3031(2)
C14 C 0.92921(19) 0.50763(18) -0.02111(16)
C15 C 0.70393(19) 0.43538(17) -0.09065(16)
C16 C 0.5843(2) 0.37691(19) -0.03113(19)
C17 C 0.4545(2) 0.4134(2) -0.0599(2)
C18 C 0.4438(2) 0.5069(2) -0.1481(2)
C19 C 0.5617(3) 0.5666(2) -0.2076(2)
C20 C 0.6916(2) 0.5312(2) -0.17895(18)
C21 C 0.9788(2) 0.40366(17) -0.16814(15)
C22 C 0.9666(3) 0.3187(2) -0.20129(19)
C23 C 1.0437(3) 0.3228(3) -0.2921(2)
C24 C 1.1342(3) 0.4108(3) -0.3498(2)
C25 C 1.1484(3) 0.4946(2) -0.3175(2)
C26 C 1.0704(2) 0.4919(2) -0.22749(18)
H1 H 0.46160 -0.11390 0.55260
H2 H 0.37820 -0.02920 0.46780
H3 H 0.65650 -0.28720 0.53060
H4 H 0.85570 -0.36240 0.60320
H5 H 1.05420 -0.25240 0.56820
H6 H 1.05680 -0.07070 0.45330
H7 H 0.86010 0.00380 0.37680
H8 H 0.31750 -0.19850 0.46540
H9 H 0.21210 -0.33310 0.42950
H10 H 0.33010 -0.40240 0.31800
H11 H 0.55190 -0.33570 0.24010
H12 H 0.65340 -0.19600 0.26930
H13 H 0.93480 0.57380 -0.08520
H14 H 0.85980 0.51800 0.02930
H15 H 0.59100 0.31300 0.02830
H16 H 0.37450 0.37440 -0.01920
H17 H 0.35660 0.53010 -0.16790
H18 H 0.55410 0.63050 -0.26680
H19 H 0.77120 0.57170 -0.21900
H20 H 0.90600 0.25870 -0.16210
H21 H 1.03420 0.26600 -0.31390
H22 H 1.18590 0.41360 -0.41090
H23 H 1.21090 0.55350 -0.35620
H24 H 1.07950 0.54960 -0.20680
Br1A Br 1.25602(2) 0.93184(2) -0.08272(2)
Br1_2 Br 1.74398(2) 0.06816(2) 0.08272(2)
Br2A Br 1.24958(2) 0.76523(2) -0.25316(2)
Br2_2 Br 1.75042(2) 0.23477(2) 0.25316(2)
Cu1A Cu 1.12863(3) 0.77396(3) -0.08990(2)
Cu1_2 Cu -0.12863(3) 0.22604(3) 0.08990(2)
Cu2_2 Cu 1.61832(3) 0.08299(3) 0.23817(2)
Cu2A Cu 0.38168(3) -0.08299(3) 0.76183(2)
Cu2A_2 Cu 1.38168(3) 0.91701(3) -0.23817(2)
S1_2 S 0.21746(6) 0.18919(5) 0.20372(5)
S2_2 S 0.10441(6) -0.02176(5) 0.17282(5)
S3_2 S 0.20627(6) 0.19749(5) -0.02839(4)
P1A P 0.41708(5) 0.07020(4) 0.61396(4)
P1_2 P 1.58292(5) -0.07020(4) 0.38604(4)
P2A P 1.12707(5) 0.60928(4) 0.04749(4)
P3_2 P 0.08289(5) 0.14933(5) 0.11570(5)
P3A P 0.91711(5) 0.85067(5) -0.11570(5)
P4_2 P 0.39934(5) 0.11390(5) 0.17323(4)
P5_2 P 0.32098(6) -0.03395(5) 0.15313(5)
P6_2 P 0.39184(6) 0.11828(6) 0.01314(5)
C1A C 0.5297(2) 0.04699(19) 0.51087(17)
C2A C 0.2636(2) 0.13276(19) 0.55252(16)
C3A C 0.2631(3) 0.2431(2) 0.48519(19)
C4A C 0.1438(3) 0.2882(3) 0.4411(2)
C5A C 0.0250(3) 0.2231(3) 0.4629(2)
C6A C 0.0239(3) 0.1145(3) 0.5309(3)
C7A C 0.1424(3) 0.0696(2) 0.5763(2)
C8A C 0.5031(2) 0.18349(18) 0.62800(16)
C9A C 0.6354(3) 0.2251(2) 0.5807(2)
C10A C 0.6983(4) 0.3064(3) 0.6016(3)
C11A C 0.6280(4) 0.3475(3) 0.6686(3)
C12A C 0.4960(3) 0.3072(2) 0.7155(2)
C13A C 0.4346(3) 0.2246(2) 0.6969(2)
C14A C 1.07079(19) 0.49237(18) 0.02111(16)
C15A C 1.29607(19) 0.56462(17) 0.09065(16)
C16A C 1.4157(2) 0.62309(19) 0.03113(19)
C17A C 1.5455(2) 0.5866(2) 0.0599(2)
C18A C 1.5562(2) 0.4931(2) 0.1481(2)
C19A C 1.4383(3) 0.4334(2) 0.2076(2)
C20A C 1.3084(2) 0.4688(2) 0.17895(18)
C21A C 1.0212(2) 0.59634(17) 0.16814(15)
C22A C 1.0334(3) 0.6813(2) 0.20129(19)
C23A C 0.9563(3) 0.6772(3) 0.2921(2)
C24A C 0.8658(3) 0.5892(3) 0.3498(2)
C25A C 0.8516(3) 0.5054(2) 0.3175(2)
C26A C 0.9296(2) 0.5081(2) 0.22749(18)
H1A H 0.53840 0.11390 0.44740
H2A H 0.62180 0.02920 0.53220
H3A H 0.34350 0.28720 0.46940
H4A H 0.14430 0.36240 0.39680
H5A H -0.05420 0.25240 0.43180
H6A H -0.05680 0.07070 0.54670
H7A H 0.13990 -0.00380 0.62320
H8A H 0.68250 0.19850 0.53460
H9A H 0.78790 0.33310 0.57050
H10A H 0.66990 0.40240 0.68200
H11A H 0.44810 0.33570 0.75990
H12A H 0.34660 0.19600 0.73070
H13A H 1.06520 0.42620 0.08520
H14A H 1.14020 0.48200 -0.02930
H15A H 1.40900 0.68700 -0.02830
H16A H 1.62550 0.62560 0.01920
H17A H 1.64340 0.46990 0.16790
H18A H 1.44590 0.36950 0.26680
H19A H 1.22880 0.42830 0.21900
H20A H 1.09400 0.74130 0.16210
H21A H 0.96580 0.73400 0.31390
H22A H 0.81410 0.58640 0.41090
H23A H 0.78910 0.44650 0.35620
H24A H 0.92050 0.45040 0.20680
loop_
_geom_bond_atom_site_label_1
_geom_bond_atom_site_label_2
_geom_bond_site_symmetry_1
_geom_bond_site_symmetry_2
Br1 Cu1 1_555 1_555
Br2 Cu1 1_555 1_555
Cu1 P2 1_555 1_555
Cu2 Br1 1_555 1_555
S1 P3 1_555 1_555
S2 P3 1_555 1_555
S3 P3 1_555 1_555
P1 Cu2 1_555 1_555
P2 C14 1_555 1_555
P3 Cu1 1_555 1_555
P4 S1 1_555 1_555
P5 S2 1_555 1_555
P6 S3 1_555 1_555
C1 P1 1_555 1_555
C2 P1 1_555 1_555
C3 C2 1_555 1_555
C4 C3 1_555 1_555
C5 C4 1_555 1_555
C6 C5 1_555 1_555
C7 C2 1_555 1_555
C8 P1 1_555 1_555
C9 C8 1_555 1_555
C10 C9 1_555 1_555
C11 C10 1_555 1_555
C12 C11 1_555 1_555
C13 C8 1_555 1_555
C14 H13 1_555 1_555
C15 P2 1_555 1_555
C16 C15 1_555 1_555
C17 C16 1_555 1_555
C18 C17 1_555 1_555
C19 C18 1_555 1_555
C20 C15 1_555 1_555
C21 P2 1_555 1_555
C22 C21 1_555 1_555
C23 C22 1_555 1_555
C24 C23 1_555 1_555
C25 C24 1_555 1_555
C26 C21 1_555 1_555
H1 C1 1_555 1_555
H2 C1 1_555 1_555
H3 C3 1_555 1_555
H4 C4 1_555 1_555
H5 C5 1_555 1_555
H6 C6 1_555 1_555
H7 C7 1_555 1_555
H8 C9 1_555 1_555
H9 C10 1_555 1_555
H10 C11 1_555 1_555
H11 C12 1_555 1_555
H12 C13 1_555 1_555
H14 C14 1_555 1_555
H15 C16 1_555 1_555
H16 C17 1_555 1_555
H17 C18 1_555 1_555
H18 C19 1_555 1_555
H19 C20 1_555 1_555
H20 C22 1_555 1_555
H21 C23 1_555 1_555
H22 C24 1_555 1_555
H23 C25 1_555 1_555
H24 C26 1_555 1_555
Br1A Cu1A 1_555 1_555
Br1_2 Cu2_2 1_555 1_555
Br2A Cu1A 1_555 1_555
Br2_2 Cu2_2 1_555 1_555
Cu1A P2A 1_555 1_555
Cu1_2 P3_2 1_555 1_555
Cu2_2 P4 1_555 1_555
Cu2A P1A 1_555 1_555
Cu2A_2 Br1A 1_555 1_555
S1_2 P3_2 1_555 1_555
S2_2 P3_2 1_555 1_555
S3_2 P3_2 1_555 1_555
P1A C1A 1_555 1_555
P1_2 Cu2_2 1_555 1_555
P2A C14A 1_555 1_555
P3A Cu1A 1_555 1_555
P4_2 Cu2 1_555 1_555
P5_2 S2_2 1_555 1_555
P6_2 S3_2 1_555 1_555
C1A C1 1_555 1_555
C2A P1A 1_555 1_555
C3A C2A 1_555 1_555
C4A C3A 1_555 1_555
C5A C4A 1_555 1_555
C6A C5A 1_555 1_555
C7A C2A 1_555 1_555
C8A P1A 1_555 1_555
C9A C8A 1_555 1_555
C10A C9A 1_555 1_555
C11A C10A 1_555 1_555
C12A C11A 1_555 1_555
C13A C8A 1_555 1_555
C14A C14 1_555 1_555
C15A P2A 1_555 1_555
C16A C15A 1_555 1_555
C17A C16A 1_555 1_555
C18A C17A 1_555 1_555
C19A C18A 1_555 1_555
C20A C15A 1_555 1_555
C21A P2A 1_555 1_555
C22A C21A 1_555 1_555
C23A C22A 1_555 1_555
C24A C23A 1_555 1_555
C25A C24A 1_555 1_555
C26A C21A 1_555 1_555
H1A C1A 1_555 1_555
H2A C1A 1_555 1_555
H3A C3A 1_555 1_555
H4A C4A 1_555 1_555
H5A C5A 1_555 1_555
H6A C6A 1_555 1_555
H7A C7A 1_555 1_555
H8A C9A 1_555 1_555
H9A C10A 1_555 1_555
H10A C11A 1_555 1_555
H11A C12A 1_555 1_555
H12A C13A 1_555 1_555
H13A C14A 1_555 1_555
H14A C14A 1_555 1_555
H15A C16A 1_555 1_555
H16A C17A 1_555 1_555
H17A C18A 1_555 1_555
H18A C19A 1_555 1_555
H19A C20A 1_555 1_555
H20A C22A 1_555 1_555
H21A C23A 1_555 1_555
H22A C24A 1_555 1_555
H23A C25A 1_555 1_555
H24A C26A 1_555 1_555
Br2 Cu2 1_555 1_555
P4 P5 1_555 1_555
P4 P6 1_555 1_555
P5 P6 1_555 1_555
C6 C7 1_555 1_555
C12 C13 1_555 1_555
C19 C20 1_555 1_555
C25 C26 1_555 1_555
Br2A Cu2A_2 1_555 1_555
S1_2 P4_2 1_555 1_555
P4_2 P5_2 1_555 1_555
P4_2 P6_2 1_555 1_555
P5_2 P6_2 1_555 1_555
C6A C7A 1_555 1_555
C12A C13A 1_555 1_555
C19A C20A 1_555 1_555
C25A C26A 1_555 1_555

#END
