
#######################################################################
#
#                 Cambridge Crystallographic Data Centre
#                                CCDC 
#
#######################################################################
#
# If this CIF has been generated from an entry in the Cambridge 
# Structural Database, then it will include bibliographic, chemical, 
# crystal, experimental, refinement or atomic coordinate data resulting 
# from the CCDC's data processing and validation procedures.
#
#######################################################################

data_OZUQAC
_symmetry_cell_setting           tetragonal
_symmetry_space_group_name_H-M   'I -4 2 d'
_symmetry_Int_Tables_number      122
_space_group_name_Hall           'I -4 2bw'
loop_
_symmetry_equiv_pos_site_id
_symmetry_equiv_pos_as_xyz
1 x,y,z
2 -x,-y,z
3 y,-x,-z
4 -y,x,-z
5 1/2-x,y,3/4-z
6 1/2+x,-y,3/4-z
7 1/2-y,-x,3/4+z
8 1/2+y,x,3/4+z
9 1/2+x,1/2+y,1/2+z
10 1/2-x,1/2-y,1/2+z
11 1/2+y,1/2-x,1/2-z
12 1/2-y,1/2+x,1/2-z
13 -x,1/2+y,1/4-z
14 x,1/2-y,1/4-z
15 -y,1/2-x,1/4+z
16 y,1/2+x,1/4+z
_cell_length_a                   22.5486(8)
_cell_length_b                   22.5486(8)
_cell_length_c                   13.2686(9)
_cell_angle_alpha                90
_cell_angle_beta                 90
_cell_angle_gamma                90
_cell_volume                     6746.28
loop_
_atom_site_label
_atom_site_type_symbol
_atom_site_fract_x
_atom_site_fract_y
_atom_site_fract_z
Ni1 Ni 0.439309(15) 0.2500 0.1250
Ni2 Ni 0.250000(16) 0.0617 -0.1250
O1 O 0.43839(6) 0.15880(7) 0.09839(12)
O2 O 0.45304(9) 0.15199(8) -0.06725(14)
O3 O 0.32684(7) 0.06121(7) -0.03877(11)
O4 O 0.29031(8) 0.03753(8) 0.11188(14)
O5 O 0.43802(8) 0.26702(8) -0.03003(12)
H1 H 0.4404(14) 0.2314(13) -0.047(2)
H2 H 0.4654(13) 0.2807(13) -0.050(2)
O6 O 0.19577(7) 0.06473(7) 0.00352(14)
H3 H 0.2207(13) 0.0529(13) 0.048(2)
H4 H 0.1717(13) 0.0455(13) 0.005(2)
N1 N 0.34640(10) 0.2500 0.1250
N2 N 0.03151(10) 0.2500 0.1250
N3 N 0.53288(10) 0.2500 0.1250
N4 N 0.84711(10) 0.2500 0.1250
C1 C 0.31496(8) 0.19958(9) 0.12671(18)
H7 H 0.3355 0.1638 0.1287
C2 C 0.25390(9) 0.19775(9) 0.1256(2)
H8 H 0.2343 0.1614 0.1253
C3 C 0.22167(12) 0.2500 0.1250
C4 C 0.15591(13) 0.2500 0.1250
C5 C 0.12334(9) 0.30201(10) 0.1316(3)
H9 H 0.1429 0.3382 0.1370
C6 C 0.06247(9) 0.30062(11) 0.1303(2)
H10 H 0.0419 0.3363 0.1332
C7 C 0.56372(10) 0.29933(11) 0.1071(2)
H11 H 0.5431 0.3343 0.0944
C8 C 0.62491(10) 0.30073(11) 0.1065(2)
H12 H 0.6444 0.3363 0.0936
C9 C 0.65769(12) 0.2500 0.1250
C10 C 0.72296(12) 0.2500 0.1250
C11 C 0.75534(9) 0.30257(9) 0.1254(2)
H13 H 0.7358 0.3389 0.1254
C12 C 0.81658(9) 0.30077(10) 0.12573(18)
H14 H 0.8374 0.3364 0.1265
C13 C 0.44519(8) 0.12980(10) 0.01813(19)
C14 C 0.44410(10) 0.06265(10) 0.0273(2)
H15 H 0.4397 0.0457 -0.0395
H16 H 0.4818 0.0494 0.0542
C15 C 0.39474(11) 0.03946(10) 0.0940(2)
H17 H 0.3969 0.0596 0.1584
H18 H 0.4016 -0.0024 0.1063
C16 C 0.33243(9) 0.04691(11) 0.05203(18)
Ni2C Ni -0.0617 0.250000(16) 0.1250
Ni2C_2 Ni 0.9383 0.250000(16) 0.1250
Ni2I Ni 0.250000(16) 0.4383 0.3750
O1M O 0.43839(6) 0.34120(7) 0.15161(12)
O2M O 0.45304(9) 0.34801(8) 0.31725(14)
O3M O 0.32684(7) 0.43879(7) 0.28877(11)
O3D O 0.17316(7) 0.06121(7) -0.21123(11)
O4M O 0.29031(8) 0.46247(8) 0.13812(14)
O5M O 0.43802(8) 0.23298(8) 0.28003(12)
H1M H 0.4404(14) 0.2686(13) 0.297(2)
H2M H 0.4654(13) 0.2193(13) 0.300(2)
O6D O 0.30423(7) 0.06473(7) -0.25352(14)
H3D H 0.2793(13) 0.0529(13) -0.298(2)
H4D H 0.3283(13) 0.0455(13) -0.255(2)
N2B N 0.2500 -0.03151(10) -0.1250
N4B N 0.2500 0.15289(10) -0.1250
C1M C 0.31496(8) 0.30042(9) 0.12329(18)
H7M H 0.3355 0.3362 0.1213
C2M C 0.25390(9) 0.30225(9) 0.1244(2)
H8M H 0.2343 0.3386 0.1247
C5M C 0.12334(9) 0.19799(10) 0.1184(3)
H9M H 0.1429 0.1618 0.1130
C6M C 0.06247(9) 0.19938(11) 0.1197(2)
H10M H 0.0419 0.1637 0.1168
C7M C 0.56372(10) 0.20067(11) 0.1429(2)
H11M H 0.5431 0.1657 0.1556
C8M C 0.62491(10) 0.19927(11) 0.1435(2)
H12M H 0.6444 0.1637 0.1564
C11M C 0.75534(9) 0.19743(9) 0.1246(2)
H13M H 0.7358 0.1611 0.1246
C12M C 0.81658(9) 0.19923(10) 0.12427(18)
H14M H 0.8374 0.1636 0.1235
C13M C 0.44519(8) 0.37020(10) 0.23187(19)
C14M C 0.44410(10) 0.43735(10) 0.2227(2)
H15M H 0.4397 0.4543 0.2895
H16M H 0.4818 0.4506 0.1958
C15M C 0.39474(11) 0.46054(10) 0.1560(2)
H17M H 0.3969 0.4404 0.0916
H18M H 0.4016 0.5024 0.1437
C16M C 0.33243(9) 0.45309(11) 0.19797(18)
O7 O 1.00490(9) 0.08803(9) -0.02424(17)
H5 H 1.0289(17) 0.0679(16) -0.003(3)
H6 H 1.0187(16) 0.1069(16) -0.077(3)
loop_
_geom_bond_atom_site_label_1
_geom_bond_atom_site_label_2
_geom_bond_site_symmetry_1
_geom_bond_site_symmetry_2
Ni1 O1 1_555 1_555
Ni2 O3 1_555 1_555
O1 C13 1_555 1_555
O2 C13 1_555 1_555
O3 C16 1_555 1_555
O4 C16 1_555 1_555
O5 Ni1 1_555 1_555
H1 O5 1_555 1_555
H2 O5 1_555 1_555
O6 Ni2 1_555 1_555
H3 O6 1_555 1_555
H4 O6 1_555 1_555
O7 H5 1_555 1_555
H6 O7 1_555 1_555
N1 Ni1 1_555 1_555
N2 C6 1_555 1_555
N3 Ni1 1_555 1_555
N4 C12 1_555 1_555
C1 N1 1_555 1_555
H7 C1 1_555 1_555
C2 C1 1_555 1_555
H8 C2 1_555 1_555
C3 C2 1_555 1_555
C4 C3 1_555 1_555
C5 C4 1_555 1_555
H9 C5 1_555 1_555
C6 C5 1_555 1_555
H10 C6 1_555 1_555
C7 N3 1_555 1_555
H11 C7 1_555 1_555
C8 C7 1_555 1_555
H12 C8 1_555 1_555
C9 C8 1_555 1_555
C10 C9 1_555 1_555
C11 C10 1_555 1_555
H13 C11 1_555 1_555
C12 C11 1_555 1_555
H14 C12 1_555 1_555
C13 C14 1_555 1_555
C14 H15 1_555 1_555
H16 C14 1_555 1_555
C15 C14 1_555 1_555
H17 C15 1_555 1_555
H18 C15 1_555 1_555
C16 C15 1_555 1_555
Ni2C N2 1_555 1_555
Ni2C_2 N4 1_555 1_555
Ni2I O3M 1_555 1_555
O1M Ni1 1_555 1_555
O2M C13M 1_555 1_555
O3M C16M 1_555 1_555
O3D Ni2 1_555 1_555
O4M C16M 1_555 1_555
O5M Ni1 1_555 1_555
H1M O5M 1_555 1_555
H2M O5M 1_555 1_555
O6D Ni2 1_555 1_555
H3D O6D 1_555 1_555
H4D O6D 1_555 1_555
N2B Ni2 1_555 1_555
N4B Ni2 1_555 1_555
C1M N1 1_555 1_555
H7M C1M 1_555 1_555
C2M C3 1_555 1_555
H8M C2M 1_555 1_555
C5M C4 1_555 1_555
H9M C5M 1_555 1_555
C6M N2 1_555 1_555
H10M C6M 1_555 1_555
C7M N3 1_555 1_555
H11M C7M 1_555 1_555
C8M C9 1_555 1_555
H12M C8M 1_555 1_555
C11M C10 1_555 1_555
H13M C11M 1_555 1_555
C12M N4 1_555 1_555
H14M C12M 1_555 1_555
C13M O1M 1_555 1_555
C14M C13M 1_555 1_555
H15M C14M 1_555 1_555
H16M C14M 1_555 1_555
C15M C14M 1_555 1_555
H17M C15M 1_555 1_555
H18M C15M 1_555 1_555
C16M C15M 1_555 1_555
C1M C2M 1_555 1_555
C5M C6M 1_555 1_555
C7M C8M 1_555 1_555
C11M C12M 1_555 1_555

#END
