
#######################################################################
#
#                 Cambridge Crystallographic Data Centre
#                                CCDC 
#
#######################################################################
#
# If this CIF has been generated from an entry in the Cambridge 
# Structural Database, then it will include bibliographic, chemical, 
# crystal, experimental, refinement or atomic coordinate data resulting 
# from the CCDC's data processing and validation procedures.
#
#######################################################################

data_PABRIU
_symmetry_cell_setting           orthorhombic
_symmetry_space_group_name_H-M   'F d d 2'
_symmetry_Int_Tables_number      43
_space_group_name_Hall           'F 2 -2d'
loop_
_symmetry_equiv_pos_site_id
_symmetry_equiv_pos_as_xyz
1 x,y,z
2 -x,-y,z
3 1/4+x,1/4-y,1/4+z
4 1/4-x,1/4+y,1/4+z
5 x,1/2+y,1/2+z
6 -x,1/2-y,1/2+z
7 1/4+x,3/4-y,3/4+z
8 1/4-x,3/4+y,3/4+z
9 1/2+x,y,1/2+z
10 1/2-x,-y,1/2+z
11 3/4+x,1/4-y,3/4+z
12 3/4-x,1/4+y,3/4+z
13 1/2+x,1/2+y,z
14 1/2-x,1/2-y,z
15 3/4+x,3/4-y,1/4+z
16 3/4-x,3/4+y,1/4+z
_cell_length_a                   12.5561(8)
_cell_length_b                   20.0993(20)
_cell_length_c                   9.2120(8)
_cell_angle_alpha                90
_cell_angle_beta                 90
_cell_angle_gamma                90
_cell_volume                     2324.82
loop_
_atom_site_label
_atom_site_type_symbol
_atom_site_fract_x
_atom_site_fract_y
_atom_site_fract_z
Zn1 Zn 0.0000 0.0000 0.45422(8)
O1 O -0.10841(14) 0.07122(10) 0.5036(3)
O2 O -0.13030(16) -0.01664(12) 0.6445(3)
N1 N -0.40922(16) 0.06040(11) 0.8174(3)
C1 C -0.32201(19) 0.03461(13) 0.7528(3)
H1 H -0.3064 -0.0107 0.7668
C2 C -0.25443(18) 0.07242(16) 0.6664(3)
C3 C -0.2764(2) 0.13958(14) 0.6466(4)
H2 H -0.2329 0.1661 0.5871
C4 C -0.3646(2) 0.16663(13) 0.7171(4)
H3 H -0.3800 0.2122 0.7089
C5 C -0.42893(19) 0.12560(13) 0.7989(3)
H4 H -0.4893 0.1440 0.8438
C6 C -0.1573(2) 0.03966(14) 0.6020(3)
O1A O 0.10841(14) -0.07122(10) 0.5036(3)
O2A O 0.13030(16) 0.01664(12) 0.6445(3)
N1A N 0.40922(16) -0.06040(11) 0.8174(3)
C1A C 0.32201(19) -0.03461(13) 0.7528(3)
H1A H 0.3064 0.0107 0.7668
C2A C 0.25443(18) -0.07242(16) 0.6664(3)
C3A C 0.2764(2) -0.13958(14) 0.6466(4)
H2A H 0.2329 -0.1661 0.5871
C4A C 0.3646(2) -0.16663(13) 0.7171(4)
H3A H 0.3800 -0.2122 0.7089
C5A C 0.42893(19) -0.12560(13) 0.7989(3)
H4A H 0.4893 -0.1440 0.8438
C6A C 0.1573(2) -0.03966(14) 0.6020(3)
N1H N 0.09078(16) 0.06040(11) 0.3174(3)
N1I N -0.09078(16) -0.06040(11) 0.3174(3)
Zn1H Zn -0.5000 0.0000 0.95422(8)
Zn1H_2 Zn 0.5000 0.0000 0.95422(8)
loop_
_geom_bond_atom_site_label_1
_geom_bond_atom_site_label_2
_geom_bond_site_symmetry_1
_geom_bond_site_symmetry_2
Zn1 O1 1_555 1_555
O1 C6 1_555 1_555
O2 C6 1_555 1_555
N1 C1 1_555 1_555
C1 H1 1_555 1_555
C2 C1 1_555 1_555
C3 C2 1_555 1_555
H2 C3 1_555 1_555
C4 C3 1_555 1_555
H3 C4 1_555 1_555
C5 N1 1_555 1_555
H4 C5 1_555 1_555
C6 C2 1_555 1_555
O1A Zn1 1_555 1_555
O2A C6A 1_555 1_555
N1A C1A 1_555 1_555
C1A H1A 1_555 1_555
C2A C1A 1_555 1_555
C3A C2A 1_555 1_555
H2A C3A 1_555 1_555
C4A C3A 1_555 1_555
H3A C4A 1_555 1_555
C5A N1A 1_555 1_555
H4A C5A 1_555 1_555
C6A O1A 1_555 1_555
N1H Zn1 1_555 1_555
N1I Zn1 1_555 1_555
Zn1H N1 1_555 1_555
Zn1H_2 N1A 1_555 1_555
C4 C5 1_555 1_555
C2A C6A 1_555 1_555
C4A C5A 1_555 1_555

#END
