
#######################################################################
#
#                 Cambridge Crystallographic Data Centre
#                                CCDC 
#
#######################################################################
#
# If this CIF has been generated from an entry in the Cambridge 
# Structural Database, then it will include bibliographic, chemical, 
# crystal, experimental, refinement or atomic coordinate data resulting 
# from the CCDC's data processing and validation procedures.
#
#######################################################################

data_PACCAY
_symmetry_cell_setting           tetragonal
_symmetry_space_group_name_H-M   'P 4/n'
_symmetry_Int_Tables_number      85
_space_group_name_Hall           '-P 4a'
loop_
_symmetry_equiv_pos_site_id
_symmetry_equiv_pos_as_xyz
1 x,y,z
2 1/2-y,x,z
3 y,1/2-x,z
4 1/2+x,1/2+y,-z
5 -x,-y,-z
6 1/2+y,-x,-z
7 -y,1/2+x,-z
8 1/2-x,1/2-y,z
_cell_length_a                   13.419(5)
_cell_length_b                   13.419(5)
_cell_length_c                   17.072(10)
_cell_angle_alpha                90
_cell_angle_beta                 90
_cell_angle_gamma                90
_cell_volume                     3074.15
loop_
_atom_site_label
_atom_site_type_symbol
_atom_site_fract_x
_atom_site_fract_y
_atom_site_fract_z
Pt1 Pt 0.2500 0.2500 0.05297(2)
Pt2 Pt 0.2500 0.2500 0.20967(2)
Pt3 Pt 0.2500 0.2500 0.54908(2)
Pt4 Pt 0.2500 0.2500 -0.29410(2)
I1 I 0.2500 0.2500 0.37888(3)
I2 I 0.2500 0.2500 -0.11915(3)
S1 S 0.34392(9) 0.10458(8) 0.04722(6)
S2 S 0.39133(8) 0.14900(8) 0.21661(6)
S3 S 0.37170(9) 0.12636(9) -0.45652(6)
S4 S 0.41167(8) 0.18708(9) -0.28896(6)
C1 C 0.4044(3) 0.0857(3) 0.1322(2)
C2 C 0.4784(4) 0.0007(3) 0.1324(2)
C3 C 0.5850(3) 0.0301(3) 0.1532(3)
C4 C 0.6306(4) 0.1069(4) 0.0992(3)
C5 C 0.7436(4) 0.1128(5) 0.1109(4)
C6 C 0.4370(3) 0.1265(3) -0.3722(2)
C7 C 0.5308(4) 0.0643(4) -0.3737(3)
C8 C 0.6236(5) 0.1216(5) -0.3736(4)
C9 C 0.7166(6) 0.0565(6) -0.3769(5)
C10 C 0.8060(7) 0.1075(8) -0.3713(7)
H1 H 0.4787 -0.0290 0.0811
H2 H 0.4559 -0.0487 0.1688
H3 H 0.6261 -0.0282 0.1517
H4 H 0.5852 0.0559 0.2051
H5 H 0.6167 0.0896 0.0460
H6 H 0.6015 0.1706 0.1097
H7 H 0.7717 0.1618 0.0768
H8 H 0.7732 0.0500 0.1001
H9 H 0.7581 0.1311 0.1638
H10 H 0.5294 0.0233 -0.4190
H11 H 0.5297 0.0218 -0.3281
H12 H 0.6240 0.1678 -0.4148
H13 H 0.6325 0.1633 -0.3322
H14 H 0.7156 0.0178 -0.4238
H15 H 0.7129 0.0076 -0.3333
H16 H 0.8135 0.1552 -0.4123
H17 H 0.8640 0.0644 -0.3726
H18 H 0.8112 0.1445 -0.3219
S1A S 0.39542(8) 0.34392(9) 0.04722(6)
S2A S 0.35100(8) 0.39133(8) 0.21661(6)
C1A C 0.4143(3) 0.4044(3) 0.1322(2)
C2A C 0.4993(3) 0.4784(4) 0.1324(2)
C3A C 0.4699(3) 0.5850(3) 0.1532(3)
C4A C 0.3931(4) 0.6306(4) 0.0992(3)
C5A C 0.3872(5) 0.7436(4) 0.1109(4)
H1A H 0.5290 0.4787 0.0811
H2A H 0.5487 0.4559 0.1688
H3A H 0.5282 0.6261 0.1517
H4A H 0.4441 0.5852 0.2051
H5A H 0.4104 0.6167 0.0460
H6A H 0.3294 0.6015 0.1097
H7A H 0.3382 0.7717 0.0768
H8A H 0.4500 0.7732 0.1001
H9A H 0.3689 0.7581 0.1638
S1B S 0.10458(8) 0.15608(9) 0.04722(6)
S2B S 0.14900(8) 0.10867(8) 0.21661(6)
C1B C 0.0857(3) 0.0956(3) 0.1322(2)
C2B C 0.0007(3) 0.0216(4) 0.1324(2)
C3B C 0.0301(3) -0.0850(3) 0.1532(3)
C4B C 0.1069(4) -0.1306(4) 0.0992(3)
C5B C 0.1128(5) -0.2436(4) 0.1109(4)
H1B H -0.0290 0.0213 0.0811
H2B H -0.0487 0.0441 0.1688
H3B H -0.0282 -0.1261 0.1517
H4B H 0.0559 -0.0852 0.2051
H5B H 0.0896 -0.1167 0.0460
H6B H 0.1706 -0.1015 0.1097
H7B H 0.1618 -0.2717 0.0768
H8B H 0.0500 -0.2732 0.1001
H9B H 0.1311 -0.2581 0.1638
S1G S 0.15608(9) 0.39542(8) 0.04722(6)
S2G S 0.10867(8) 0.35100(8) 0.21661(6)
C1G C 0.0956(3) 0.4143(3) 0.1322(2)
C2G C 0.0216(4) 0.4993(3) 0.1324(2)
C3G C -0.0850(3) 0.4699(3) 0.1532(3)
C4G C -0.1306(4) 0.3931(4) 0.0992(3)
C5G C -0.2436(4) 0.3872(5) 0.1109(4)
H1G H 0.0213 0.5290 0.0811
H2G H 0.0441 0.5487 0.1688
H3G H -0.1261 0.5282 0.1517
H4G H -0.0852 0.4441 0.2051
H5G H -0.1167 0.4104 0.0460
H6G H -0.1015 0.3294 0.1097
H7G H -0.2717 0.3382 0.0768
H8G H -0.2732 0.4500 0.1001
H9G H -0.2581 0.3689 0.1638
S3A S 0.37364(9) 0.37170(9) -0.45652(6)
S4A S 0.31292(9) 0.41167(8) -0.28896(6)
C6A C 0.3735(3) 0.4370(3) -0.3722(2)
C7A C 0.4357(4) 0.5308(4) -0.3737(3)
C8A C 0.3784(5) 0.6236(5) -0.3736(4)
C9A C 0.4435(6) 0.7166(6) -0.3769(5)
C10A C 0.3925(8) 0.8060(7) -0.3713(7)
H10A H 0.4767 0.5294 -0.4190
H11A H 0.4782 0.5297 -0.3281
H12A H 0.3322 0.6240 -0.4148
H13A H 0.3367 0.6325 -0.3322
H14A H 0.4822 0.7156 -0.4238
H15A H 0.4924 0.7129 -0.3333
H16A H 0.3448 0.8135 -0.4123
H17A H 0.4356 0.8640 -0.3726
H18A H 0.3555 0.8112 -0.3219
S3B S 0.12636(9) 0.12830(9) -0.45652(6)
S4B S 0.18708(9) 0.08833(8) -0.28896(6)
C6B C 0.1265(3) 0.0630(3) -0.3722(2)
C7B C 0.0643(4) -0.0308(4) -0.3737(3)
C8B C 0.1216(5) -0.1236(5) -0.3736(4)
C9B C 0.0565(6) -0.2166(6) -0.3769(5)
C10B C 0.1075(8) -0.3060(7) -0.3713(7)
H10B H 0.0233 -0.0294 -0.4190
H11B H 0.0218 -0.0297 -0.3281
H12B H 0.1678 -0.1240 -0.4148
H13B H 0.1633 -0.1325 -0.3322
H14B H 0.0178 -0.2156 -0.4238
H15B H 0.0076 -0.2129 -0.3333
H16B H 0.1552 -0.3135 -0.4123
H17B H 0.0644 -0.3640 -0.3726
H18B H 0.1445 -0.3112 -0.3219
S3G S 0.12830(9) 0.37364(9) -0.45652(6)
S4G S 0.08833(8) 0.31292(9) -0.28896(6)
C6G C 0.0630(3) 0.3735(3) -0.3722(2)
C7G C -0.0308(4) 0.4357(4) -0.3737(3)
C8G C -0.1236(5) 0.3784(5) -0.3736(4)
C9G C -0.2166(6) 0.4435(6) -0.3769(5)
C10G C -0.3060(7) 0.3925(8) -0.3713(7)
H10G H -0.0294 0.4767 -0.4190
H11G H -0.0297 0.4782 -0.3281
H12G H -0.1240 0.3322 -0.4148
H13G H -0.1325 0.3367 -0.3322
H14G H -0.2156 0.4822 -0.4238
H15G H -0.2129 0.4924 -0.3333
H16G H -0.3135 0.3448 -0.4123
H17G H -0.3640 0.4356 -0.3726
H18G H -0.3112 0.3555 -0.3219
Pt4_2 Pt 0.2500 0.2500 0.70590(2)
S3_2 S 0.37170(9) 0.12636(9) 0.54348(6)
S3A_2 S 0.37364(9) 0.37170(9) 0.54348(6)
S3B_2 S 0.12636(9) 0.12830(9) 0.54348(6)
S3G_2 S 0.12830(9) 0.37364(9) 0.54348(6)
Pt3_2 Pt 0.2500 0.2500 -0.45092(2)
loop_
_geom_bond_atom_site_label_1
_geom_bond_atom_site_label_2
_geom_bond_site_symmetry_1
_geom_bond_site_symmetry_2
Pt1 Pt2 1_555 1_555
Pt2 I1 1_555 1_555
Pt3 I1 1_555 1_555
Pt4 I2 1_555 1_555
I2 Pt1 1_555 1_555
S1 Pt1 1_555 1_555
S2 Pt2 1_555 1_555
S3 C6 1_555 1_555
S4 Pt4 1_555 1_555
C1 S1 1_555 1_555
C2 C1 1_555 1_555
C3 C2 1_555 1_555
C4 C3 1_555 1_555
C5 C4 1_555 1_555
C6 S4 1_555 1_555
C7 C6 1_555 1_555
C8 C7 1_555 1_555
C9 C8 1_555 1_555
C10 C9 1_555 1_555
H1 C2 1_555 1_555
H2 C2 1_555 1_555
H3 C3 1_555 1_555
H4 C3 1_555 1_555
H5 C4 1_555 1_555
H6 C4 1_555 1_555
H7 C5 1_555 1_555
H8 C5 1_555 1_555
H9 C5 1_555 1_555
H10 C7 1_555 1_555
H11 C7 1_555 1_555
H12 C8 1_555 1_555
H13 C8 1_555 1_555
H14 C9 1_555 1_555
H15 C9 1_555 1_555
H16 C10 1_555 1_555
H17 C10 1_555 1_555
H18 C10 1_555 1_555
S1A Pt1 1_555 1_555
S2A Pt2 1_555 1_555
C1A S1A 1_555 1_555
C2A C1A 1_555 1_555
C3A C2A 1_555 1_555
C4A C3A 1_555 1_555
C5A C4A 1_555 1_555
H1A C2A 1_555 1_555
H2A C2A 1_555 1_555
H3A C3A 1_555 1_555
H4A C3A 1_555 1_555
H5A C4A 1_555 1_555
H6A C4A 1_555 1_555
H7A C5A 1_555 1_555
H8A C5A 1_555 1_555
H9A C5A 1_555 1_555
S1B Pt1 1_555 1_555
S2B Pt2 1_555 1_555
C1B S1B 1_555 1_555
C2B C1B 1_555 1_555
C3B C2B 1_555 1_555
C4B C3B 1_555 1_555
C5B C4B 1_555 1_555
H1B C2B 1_555 1_555
H2B C2B 1_555 1_555
H3B C3B 1_555 1_555
H4B C3B 1_555 1_555
H5B C4B 1_555 1_555
H6B C4B 1_555 1_555
H7B C5B 1_555 1_555
H8B C5B 1_555 1_555
H9B C5B 1_555 1_555
S1G Pt1 1_555 1_555
S2G Pt2 1_555 1_555
C1G S1G 1_555 1_555
C2G C1G 1_555 1_555
C3G C2G 1_555 1_555
C4G C3G 1_555 1_555
C5G C4G 1_555 1_555
H1G C2G 1_555 1_555
H2G C2G 1_555 1_555
H3G C3G 1_555 1_555
H4G C3G 1_555 1_555
H5G C4G 1_555 1_555
H6G C4G 1_555 1_555
H7G C5G 1_555 1_555
H8G C5G 1_555 1_555
H9G C5G 1_555 1_555
S3A C6A 1_555 1_555
S4A Pt4 1_555 1_555
C6A S4A 1_555 1_555
C7A C6A 1_555 1_555
C8A C7A 1_555 1_555
C9A C8A 1_555 1_555
C10A C9A 1_555 1_555
H10A C7A 1_555 1_555
H11A C7A 1_555 1_555
H12A C8A 1_555 1_555
H13A C8A 1_555 1_555
H14A C9A 1_555 1_555
H15A C9A 1_555 1_555
H16A C10A 1_555 1_555
H17A C10A 1_555 1_555
H18A C10A 1_555 1_555
S3B C6B 1_555 1_555
S4B Pt4 1_555 1_555
C6B S4B 1_555 1_555
C7B C6B 1_555 1_555
C8B C7B 1_555 1_555
C9B C8B 1_555 1_555
C10B C9B 1_555 1_555
H10B C7B 1_555 1_555
H11B C7B 1_555 1_555
H12B C8B 1_555 1_555
H13B C8B 1_555 1_555
H14B C9B 1_555 1_555
H15B C9B 1_555 1_555
H16B C10B 1_555 1_555
H17B C10B 1_555 1_555
H18B C10B 1_555 1_555
S3G C6G 1_555 1_555
S4G Pt4 1_555 1_555
C6G S4G 1_555 1_555
C7G C6G 1_555 1_555
C8G C7G 1_555 1_555
C9G C8G 1_555 1_555
C10G C9G 1_555 1_555
H10G C7G 1_555 1_555
H11G C7G 1_555 1_555
H12G C8G 1_555 1_555
H13G C8G 1_555 1_555
H14G C9G 1_555 1_555
H15G C9G 1_555 1_555
H16G C10G 1_555 1_555
H17G C10G 1_555 1_555
H18G C10G 1_555 1_555
Pt4_2 Pt3 1_555 1_555
S3_2 Pt3 1_555 1_555
S3A_2 Pt3 1_555 1_555
S3B_2 Pt3 1_555 1_555
S3G_2 Pt3 1_555 1_555
Pt3_2 Pt4 1_555 1_555
S2 C1 1_555 1_555
S3 Pt3_2 1_555 1_555
S2A C1A 1_555 1_555
S2B C1B 1_555 1_555
S2G C1G 1_555 1_555
S3A Pt3_2 1_555 1_555
S3B Pt3_2 1_555 1_555
S3G Pt3_2 1_555 1_555

#END
