
#######################################################################
#
#                 Cambridge Crystallographic Data Centre
#                                CCDC 
#
#######################################################################
#
# If this CIF has been generated from an entry in the Cambridge 
# Structural Database, then it will include bibliographic, chemical, 
# crystal, experimental, refinement or atomic coordinate data resulting 
# from the CCDC's data processing and validation procedures.
#
#######################################################################

data_PACLIP01
_symmetry_cell_setting           orthorhombic
_symmetry_space_group_name_H-M   'P n a 21'
_symmetry_Int_Tables_number      33
_space_group_name_Hall           'P 2c -2n'
loop_
_symmetry_equiv_pos_site_id
_symmetry_equiv_pos_as_xyz
1 x,y,z
2 -x,-y,1/2+z
3 1/2+x,1/2-y,z
4 1/2-x,1/2+y,1/2+z
_cell_length_a                   9.5900(19)
_cell_length_b                   19.965(4)
_cell_length_c                   8.1961(16)
_cell_angle_alpha                90
_cell_angle_beta                 90
_cell_angle_gamma                90
_cell_volume                     1569.26
loop_
_atom_site_label
_atom_site_type_symbol
_atom_site_fract_x
_atom_site_fract_y
_atom_site_fract_z
Zn1 Zn 0.78794(2) 0.656270(10) 0.35951(4)
O1 O 0.6899(2) 0.74236(9) 0.4334(2)
O2 O 0.62149(18) 0.80876(8) 0.6364(2)
O3 O 0.8485(2) 0.66720(9) 0.6232(2)
H1 H 0.925(4) 0.6756(15) 0.624(4)
O4 O 0.72368(18) 0.66024(9) 1.1209(2)
O5 O 0.8861(2) 0.72693(10) 1.01199(19)
O6 O 0.9818(2) 0.69148(12) 0.2887(2)
N1 N 0.6063(2) 0.59592(10) 0.4373(2)
N2 N 0.86987(18) 0.55668(8) 0.3715(3)
C1 C 0.6884(2) 0.76059(11) 0.5827(3)
C2 C 0.7798(3) 0.72226(14) 0.7020(3)
H2 H 0.850(3) 0.7543(14) 0.747(3)
C3 C 0.7754(2) 0.69472(11) 1.0055(3)
C4 C 0.6948(2) 0.69707(12) 0.8463(4)
H3 H 0.613(3) 0.7235(11) 0.867(4)
H4 H 0.653(4) 0.6568(15) 0.840(6)
C5 C 0.4771(3) 0.61481(15) 0.4674(3)
H5 H 0.453(3) 0.6659(13) 0.448(3)
C6 C 0.3740(3) 0.57059(18) 0.5221(4)
H6 H 0.297(3) 0.5870(15) 0.542(4)
C7 C 0.4053(3) 0.50494(17) 0.5439(3)
H7 H 0.338(4) 0.4712(17) 0.577(4)
C8 C 0.5416(3) 0.48237(14) 0.5136(3)
C9 C 0.5838(4) 0.41415(14) 0.5321(3)
H8 H 0.523(3) 0.3805(16) 0.564(3)
C10 C 0.7148(4) 0.39465(15) 0.4970(4)
H9 H 0.741(4) 0.3505(16) 0.516(5)
C11 C 0.8169(3) 0.44155(13) 0.4401(3)
C12 C 0.9540(3) 0.42384(15) 0.3978(3)
H10 H 0.979(3) 0.3795(19) 0.409(4)
C13 C 1.0434(3) 0.47137(15) 0.3461(5)
H11 H 1.129(4) 0.4628(16) 0.314(4)
C14 C 0.9993(3) 0.53809(14) 0.3338(3)
H12 H 1.058(3) 0.5707(12) 0.304(3)
C15 C 0.7794(2) 0.50969(11) 0.4228(3)
C16 C 0.6389(2) 0.53008(11) 0.4593(2)
H13 H 1.034(4) 0.718(2) 0.346(7)
H14 H 0.961(4) 0.7133(18) 0.202(5)
Zn1_2 Zn 0.78794(2) 0.656270(10) 1.35951(4)
O4_2 O 0.72368(18) 0.66024(9) 0.1209(2)
loop_
_geom_bond_atom_site_label_1
_geom_bond_atom_site_label_2
_geom_bond_site_symmetry_1
_geom_bond_site_symmetry_2
Zn1 O1 1_555 1_555
O1 C1 1_555 1_555
O2 C1 1_555 1_555
O3 Zn1 1_555 1_555
H1 O3 1_555 1_555
O4 C3 1_555 1_555
O5 C3 1_555 1_555
O6 Zn1 1_555 1_555
N1 Zn1 1_555 1_555
N2 Zn1 1_555 1_555
C1 C2 1_555 1_555
C2 O3 1_555 1_555
H2 C2 1_555 1_555
C3 C4 1_555 1_555
C4 C2 1_555 1_555
H3 C4 1_555 1_555
H4 C4 1_555 1_555
C5 N1 1_555 1_555
H5 C5 1_555 1_555
C6 C5 1_555 1_555
H6 C6 1_555 1_555
C7 C6 1_555 1_555
H7 C7 1_555 1_555
C8 C7 1_555 1_555
C9 C8 1_555 1_555
H8 C9 1_555 1_555
C10 C9 1_555 1_555
H9 C10 1_555 1_555
C11 C10 1_555 1_555
C12 C11 1_555 1_555
H10 C12 1_555 1_555
C13 C12 1_555 1_555
H11 C13 1_555 1_555
C14 N2 1_555 1_555
H12 C14 1_555 1_555
C15 N2 1_555 1_555
C16 N1 1_555 1_555
H13 O6 1_555 1_555
H14 O6 1_555 1_555
Zn1_2 O4 1_555 1_555
O4_2 Zn1 1_555 1_555
C8 C16 1_555 1_555
C11 C15 1_555 1_555
C13 C14 1_555 1_555
C15 C16 1_555 1_555

#END
