
#######################################################################
#
#                 Cambridge Crystallographic Data Centre
#                                CCDC 
#
#######################################################################
#
# If this CIF has been generated from an entry in the Cambridge 
# Structural Database, then it will include bibliographic, chemical, 
# crystal, experimental, refinement or atomic coordinate data resulting 
# from the CCDC's data processing and validation procedures.
#
#######################################################################

data_PACLOV02
_symmetry_cell_setting           monoclinic
_symmetry_space_group_name_H-M   'P 21/c'
_symmetry_Int_Tables_number      14
_space_group_name_Hall           '-P 2ybc'
loop_
_symmetry_equiv_pos_site_id
_symmetry_equiv_pos_as_xyz
1 x,y,z
2 -x,1/2+y,1/2-z
3 -x,-y,-z
4 x,1/2-y,1/2+z
_cell_length_a                   7.0132(10)
_cell_length_b                   19.730(3)
_cell_length_c                   11.8998(16)
_cell_angle_alpha                90
_cell_angle_beta                 94.551(3)
_cell_angle_gamma                90
_cell_volume                     1641.39
loop_
_atom_site_label
_atom_site_type_symbol
_atom_site_fract_x
_atom_site_fract_y
_atom_site_fract_z
H1 H 0.878(14) 0.374(4) -0.297(4)
O8 O 0.8552(6) 0.3958(2) -0.3661(4)
H16 H 0.889(17) 0.420(5) -0.431(5)
Cu1 Cu 0.25459(7) 0.34718(2) -0.09324(4)
O1 O 0.3582(4) 0.31597(12) -0.23076(19)
O2 O 0.5590(4) 0.24660(13) -0.3091(2)
O3 O 0.5104(4) 0.29054(13) -0.0259(2)
O4 O 0.8585(4) 0.33694(13) -0.1490(2)
O5 O 1.0853(4) 0.26704(12) -0.0792(2)
N1 N 0.2023(4) 0.38549(15) 0.0554(2)
N2 N 0.2880(4) 0.44566(15) -0.1267(2)
C1 C 0.1702(5) 0.3494(2) 0.1477(3)
C2 C 0.1502(6) 0.3785(2) 0.2496(4)
C3 C 0.1577(6) 0.4474(3) 0.2580(4)
C4 C 0.1890(6) 0.4858(2) 0.1645(3)
C5 C 0.2147(5) 0.45324(19) 0.0642(3)
C6 C 0.2596(5) 0.48766(18) -0.0402(3)
C7 C 0.2740(5) 0.5575(2) -0.0514(4)
C8 C 0.3179(6) 0.5841(2) -0.1543(4)
C9 C 0.3416(6) 0.5415(2) -0.2420(4)
C10 C 0.3281(6) 0.4723(2) -0.2257(4)
C11 C 0.4916(5) 0.27095(18) -0.2261(3)
C12 C 0.5601(5) 0.24335(19) -0.1104(3)
C13 C 0.7703(5) 0.22471(19) -0.0969(4)
C14 C 0.9098(5) 0.28162(19) -0.1115(3)
H2 H 0.167(4) 0.3020(16) 0.132(2)
H3 H 0.138(5) 0.3505(17) 0.309(3)
H4 H 0.155(5) 0.4658(18) 0.324(3)
H5 H 0.194(5) 0.5301(17) 0.171(3)
H6 H 0.263(4) 0.5864(16) 0.010(3)
H7 H 0.336(5) 0.6340(18) -0.161(3)
H8 H 0.371(5) 0.5534(16) -0.312(3)
H9 H 0.336(5) 0.4396(18) -0.286(3)
H10 H 0.486(4) 0.2021(15) -0.106(2)
H11 H 0.786(4) 0.2018(17) -0.019(3)
H12 H 0.789(4) 0.1884(16) -0.148(3)
H13 H 0.530(6) 0.279(2) 0.042(3)
Cu1_2 Cu 1.25459(7) 0.34718(2) -0.09324(4)
O5_2 O 0.0853(4) 0.26704(12) -0.0792(2)
O6 O 0.2016(7) 0.3514(3) -0.4524(4)
H14 H 0.121(10) 0.388(3) -0.460(6)
H15 H 0.182(7) 0.3143(16) -0.492(4)
O7 O 0.5208(7) 0.0699(2) -0.9932(3)
H17 H 0.626(5) 0.083(2) -0.951(3)
H18 H 0.395(4) 0.070(5) -1.014(8)
loop_
_geom_bond_atom_site_label_1
_geom_bond_atom_site_label_2
_geom_bond_site_symmetry_1
_geom_bond_site_symmetry_2
H1 O8 1_555 1_555
Cu1 O1 1_555 1_555
O1 C11 1_555 1_555
O2 C11 1_555 1_555
O3 Cu1 1_555 1_555
O4 C14 1_555 1_555
O5 C14 1_555 1_555
O6 H14 1_555 1_555
O7 H17 1_555 1_555
O8 H16 1_555 1_555
N1 Cu1 1_555 1_555
N2 Cu1 1_555 1_555
C1 N1 1_555 1_555
C2 C1 1_555 1_555
C3 C2 1_555 1_555
C4 C3 1_555 1_555
C5 N1 1_555 1_555
C6 N2 1_555 1_555
C7 C6 1_555 1_555
C8 C7 1_555 1_555
C9 C8 1_555 1_555
C10 N2 1_555 1_555
C11 C12 1_555 1_555
C12 O3 1_555 1_555
C13 C12 1_555 1_555
C14 C13 1_555 1_555
H2 C1 1_555 1_555
H3 C2 1_555 1_555
H4 C3 1_555 1_555
H5 C4 1_555 1_555
H6 C7 1_555 1_555
H7 C8 1_555 1_555
H8 C9 1_555 1_555
H9 C10 1_555 1_555
H10 C12 1_555 1_555
H11 C13 1_555 1_555
H12 C13 1_555 1_555
H13 O3 1_555 1_555
H15 O6 1_555 1_555
H18 O7 1_555 1_555
Cu1_2 O5 1_555 1_555
O5_2 Cu1 1_555 1_555
C4 C5 1_555 1_555
C5 C6 1_555 1_555
C9 C10 1_555 1_555

#END
