
#######################################################################
#
#                 Cambridge Crystallographic Data Centre
#                                CCDC 
#
#######################################################################
#
# If this CIF has been generated from an entry in the Cambridge 
# Structural Database, then it will include bibliographic, chemical, 
# crystal, experimental, refinement or atomic coordinate data resulting 
# from the CCDC's data processing and validation procedures.
#
#######################################################################

data_PADBAZ
_symmetry_cell_setting           rhombohedral
_symmetry_space_group_name_H-M   'R -3'
_symmetry_Int_Tables_number      148
_space_group_name_Hall           '-R 3'
loop_
_symmetry_equiv_pos_site_id
_symmetry_equiv_pos_as_xyz
1 x,y,z
2 -y,x-y,z
3 -x+y,-x,z
4 2/3+x,1/3+y,1/3+z
5 2/3-y,1/3+x-y,1/3+z
6 2/3-x+y,1/3-x,1/3+z
7 1/3+x,2/3+y,2/3+z
8 1/3-y,2/3+x-y,2/3+z
9 1/3-x+y,2/3-x,2/3+z
10 -x,-y,-z
11 y,-x+y,-z
12 x-y,x,-z
13 1/3-x,2/3-y,2/3-z
14 1/3+y,2/3-x+y,2/3-z
15 1/3+x-y,2/3+x,2/3-z
16 2/3-x,1/3-y,1/3-z
17 2/3+y,1/3-x+y,1/3-z
18 2/3+x-y,1/3+x,1/3-z
_cell_length_a                   27.022(6)
_cell_length_b                   27.022(6)
_cell_length_c                   12.681(5)
_cell_angle_alpha                90
_cell_angle_beta                 90
_cell_angle_gamma                120
_cell_volume                     8018.98
loop_
_atom_site_label
_atom_site_type_symbol
_atom_site_fract_x
_atom_site_fract_y
_atom_site_fract_z
O1 O 1.0000 1.0000 0.5000
Nd1 Nd 0.31145(3) 0.08754(3) 0.22195(5)
C1 C 0.3554(6) 0.1892(6) 0.3600(10)
C2 C 0.3853(8) 0.2421(6) 0.4167(11)
H1 H 0.3618 0.2599 0.4162
H2 H 0.4201 0.2671 0.3785
C3 C 0.3457(5) 0.3320(5) 0.6413(9)
C4 C 0.3580(6) 0.2914(7) 0.7009(12)
H3 H 0.3300 0.2529 0.6799
H4 H 0.3519 0.2950 0.7753
C5 C 0.4154(6) 0.2977(8) 0.6891(11)
C6 C 0.4946(7) 0.3140(7) 0.570(2)
H5 H 0.4989 0.2962 0.5067
H6 H 0.5035 0.2971 0.6290
C7 C 0.4006(7) 0.2386(8) 0.5270(12)
H7 H 0.3660 0.2150 0.5669
H8 H 0.4237 0.2204 0.5288
C8 C 0.5270(6) 0.4136(6) 0.5038(13)
C9 C 0.5355(9) 0.3693(8) 0.567(3)
H9 H 0.5696 0.3706 0.5386
H10 H 0.5438 0.3826 0.6385
O2 O 0.3529(5) 0.1449(4) 0.3967(7)
O3 O 0.4812(4) 0.3975(4) 0.4593(7)
O4 O 0.3051(4) 0.3378(4) 0.6657(7)
O5 O 0.3780(4) 0.3588(4) 0.5641(7)
O6 O 0.3321(4) 0.1872(4) 0.2709(6)
O7 O 0.2339(5) -0.0032(4) 0.1469(9)
O8 O 0.5688(4) 0.4628(4) 0.5041(10)
O9 O 0.2380(5) 0.0491(6) 0.3690(9)
N1 N 0.4328(4) 0.2958(4) 0.5783(8)
Nd1N Nd 0.55724(4) -0.02188(3) 0.44472(5)
Nd1J Nd 0.08754(3) -0.22391(4) 0.77805(5)
Nd1O Nd 0.35522(3) 0.24579(3) 0.11138(5)
Nd1H Nd 0.10942(4) 0.35522(3) -0.11138(5)
Nd1M Nd 0.42087(3) 0.44276(4) 0.44472(5)
Nd1K Nd 0.22391(4) 0.31145(3) 0.77805(5)
Nd1D Nd 0.57913(3) 0.55724(4) 0.55528(5)
Nd1G Nd 0.24579(3) -0.10942(4) -0.11138(5)
Nd1E Nd 0.44276(4) 0.02188(3) 0.55528(5)
Nd1G_2 Nd 0.24579(3) -0.10942(4) 0.88862(5)
Nd1E_2 Nd 0.44276(4) 0.02188(3) -0.44472(5)
Nd1J_2 Nd 0.08754(3) -0.22391(4) -0.22195(5)
Nd1K_2 Nd 0.22391(4) 0.31145(3) -0.22195(5)
Nd1A Nd 0.91246(3) 0.22391(4) 0.22195(5)
Nd1I Nd 0.68855(3) -0.08754(3) 0.77805(5)
Nd1P Nd 0.75421(3) 0.10942(4) 0.11138(5)
C1N C 0.4995(8) 0.0221(6) 0.3067(10)
C1J C 0.1892(6) -0.1662(8) 0.6400(10)
C1O C 0.3113(6) 0.1441(6) -0.0267(10)
C1H C 0.1671(8) 0.3113(6) 0.0267(10)
C1A C 0.8108(6) 0.1662(8) 0.3600(10)
C2N C 0.4765(10) 0.0520(8) 0.2500(11)
C2J C 0.2421(6) -0.1432(10) 0.5833(11)
C2O C 0.2814(8) 0.0912(6) -0.0834(11)
C2H C 0.1901(10) 0.2814(8) 0.0834(11)
C2A C 0.7579(6) 0.1432(10) 0.4167(11)
H1N H 0.4352 0.0285 0.2505
H1J H 0.2599 -0.1019 0.5838
H1O H 0.3049 0.0734 -0.0829
H1H H 0.2314 0.3049 0.0829
H1A H 0.7401 0.1019 0.4162
H2N H 0.4863 0.0868 0.2882
H2J H 0.2671 -0.1530 0.6215
H2O H 0.2466 0.0662 -0.0452
H2H H 0.1803 0.2466 0.0452
H2A H 0.7329 0.1530 0.3785
C3N C 0.3470(7) 0.0124(5) 0.0254(9)
C3J C 0.3320(5) -0.0137(7) 0.3587(9)
C3O C 0.3210(5) 0.0013(5) -0.3080(9)
C3H C 0.3196(7) 0.3210(5) 0.3080(9)
C3A C 0.6680(5) 0.0137(7) 0.6413(9)
C4N C 0.3999(9) 0.0247(6) -0.0342(12)
C4J C 0.2914(7) -0.0666(9) 0.2991(12)
C4O C 0.3087(6) 0.0419(7) -0.3676(12)
C4H C 0.2667(9) 0.3087(6) 0.3676(12)
C4A C 0.7086(7) 0.0666(9) 0.7009(12)
H3N H 0.4104 -0.0033 -0.0132
H3J H 0.2529 -0.0771 0.3201
H3O H 0.3367 0.0804 -0.3466
H3H H 0.2562 0.3367 0.3466
H3A H 0.7471 0.0771 0.6799
H4N H 0.3902 0.0186 -0.1086
H4J H 0.2950 -0.0569 0.2247
H4O H 0.3148 0.0383 -0.4420
H4H H 0.2764 0.3148 0.4420
H4A H 0.7050 0.0569 0.7753
C5N C 0.4510(10) 0.0821(6) -0.0224(11)
C5J C 0.2977(8) -0.1177(10) 0.3109(11)
C5O C 0.2513(6) 0.0356(8) -0.3558(11)
C5H C 0.2156(10) 0.2513(6) 0.3558(11)
C5A C 0.7023(8) 0.1177(10) 0.6891(11)
C6N C 0.5139(10) 0.1613(7) 0.097(2)
C6J C 0.3140(7) -0.1806(10) 0.430(2)
C6O C 0.1721(7) 0.0193(7) -0.237(2)
C6H C 0.1527(10) 0.1721(7) 0.237(2)
C6A C 0.6860(7) 0.1806(10) 0.570(2)
H5N H 0.5360 0.1656 0.1600
H5J H 0.2962 -0.2027 0.4933
H5O H 0.1678 0.0371 -0.1734
H5H H 0.1306 0.1678 0.1734
H5A H 0.7038 0.2027 0.5067
H6N H 0.5397 0.1702 0.0377
H6J H 0.2971 -0.2064 0.3710
H6O H 0.1632 0.0362 -0.2957
H6H H 0.1269 0.1632 0.2957
H6A H 0.7029 0.2064 0.6290
C7N C 0.4953(11) 0.0673(7) 0.1397(12)
C7J C 0.2386(8) -0.1620(11) 0.4730(12)
C7O C 0.2661(7) 0.0947(8) -0.1937(12)
C7H C 0.1713(11) 0.2661(7) 0.1937(12)
C7A C 0.7614(8) 0.1620(11) 0.5270(12)
H7N H 0.4843 0.0327 0.0998
H7J H 0.2150 -0.1510 0.4331
H7O H 0.3007 0.1183 -0.2336
H7H H 0.1823 0.3007 0.2336
H7A H 0.7850 0.1510 0.5669
H8N H 0.5366 0.0904 0.1379
H8J H 0.2204 -0.2033 0.4712
H8O H 0.2430 0.1129 -0.1955
H8H H 0.1300 0.2430 0.1955
H8A H 0.7796 0.2033 0.5288
C8N C 0.4467(8) 0.1937(6) 0.1629(13)
C8J C 0.4136(6) -0.1134(8) 0.4962(13)
C8O C 0.1397(6) -0.0803(6) -0.1705(13)
C8H C 0.2199(8) 0.1397(6) 0.1705(13)
C8A C 0.5864(6) 0.1134(8) 0.5038(13)
C9N C 0.4995(12) 0.2022(9) 0.100(3)
C9J C 0.3693(8) -0.1662(12) 0.433(3)
C9O C 0.1312(9) -0.0360(8) -0.234(3)
C9H C 0.1671(12) 0.1312(9) 0.234(3)
C9A C 0.6307(8) 0.1662(12) 0.567(3)
H9N H 0.5323 0.2363 0.1281
H9J H 0.3706 -0.1990 0.4614
H9O H 0.0971 -0.0373 -0.2053
H9H H 0.1343 0.0971 0.2053
H9A H 0.6294 0.1990 0.5386
H10N H 0.4945 0.2105 0.0282
H10J H 0.3826 -0.1612 0.3615
H10O H 0.1229 -0.0493 -0.3052
H10H H 0.1721 0.1229 0.3052
H10A H 0.6174 0.1612 0.6385
O2N O 0.5413(6) 0.0196(5) 0.2700(7)
O2J O 0.1449(4) -0.2080(6) 0.6033(7)
O2O O 0.3138(5) 0.1884(4) -0.0634(7)
O2H O 0.1253(6) 0.3138(5) 0.0634(7)
O2A O 0.8551(4) 0.2080(6) 0.3967(7)
O2M O 0.4782(4) 0.4587(6) 0.2700(7)
O3N O 0.4170(6) 0.1479(4) 0.2074(7)
O3J O 0.3975(4) -0.0837(6) 0.5407(7)
O3O O 0.1855(4) -0.0642(4) -0.1260(7)
O3H O 0.2496(6) 0.1855(4) 0.1260(7)
O3A O 0.6025(4) 0.0837(6) 0.4593(7)
O3C O 0.1479(4) -0.2692(4) 0.7926(7)
O3P O 0.0642(4) 0.2496(6) -0.1260(7)
O4N O 0.3006(6) -0.0282(4) 0.0010(7)
O4J O 0.3378(4) 0.0327(6) 0.3343(7)
O4O O 0.3616(4) -0.0045(4) -0.3324(7)
O4H O 0.3660(6) 0.3616(4) 0.3324(7)
O4A O 0.6622(4) -0.0327(6) 0.6657(7)
O4F O 0.6384(4) 0.0045(4) 0.3324(7)
O4B O 0.0327(6) -0.3051(4) 0.6657(7)
O4D O 0.3289(4) 0.3006(6) -0.0010(7)
O4L O 0.0282(4) 0.3289(4) 0.0010(7)
O5N O 0.3525(6) 0.0447(4) 0.1026(7)
O5J O 0.3588(4) -0.0192(6) 0.4359(7)
O5O O 0.2887(4) -0.0255(4) -0.2308(7)
O5H O 0.3141(6) 0.2887(4) 0.2308(7)
O5A O 0.6412(4) 0.0192(6) 0.5641(7)
O5C O 0.0447(4) -0.3079(4) 0.8974(7)
O5P O 0.0255(4) 0.3141(6) -0.2308(7)
O6N O 0.4782(6) -0.0012(4) 0.3958(6)
O6J O 0.1872(4) -0.1449(6) 0.7291(6)
O6O O 0.3346(4) 0.1461(4) 0.0624(6)
O6H O 0.1884(6) 0.3346(4) -0.0624(6)
O6A O 0.8128(4) 0.1449(6) 0.2709(6)
O6E O 0.5218(6) 0.0012(4) 0.6042(6)
O6G O 0.1461(4) -0.1884(6) 0.9376(6)
O6K O 0.1449(6) 0.3321(4) -0.2709(6)
O6D O 0.4795(4) 0.4782(6) 0.6042(6)
O6M O 0.5205(4) 0.5218(6) 0.3958(6)
O7N O 0.5704(6) -0.0994(5) 0.5198(9)
O7J O -0.0032(4) -0.2371(6) 0.8531(9)
O7O O 0.4328(5) 0.3365(4) 0.1864(9)
O7H O 0.0962(6) 0.4328(5) -0.1864(9)
O7M O 0.3301(4) 0.4296(6) 0.5198(9)
O8N O 0.4393(6) 0.2355(4) 0.1626(10)
O8J O 0.4628(4) -0.1060(6) 0.4959(10)
O8O O 0.0979(4) -0.1295(4) -0.1708(10)
O8H O 0.2273(6) 0.0979(4) 0.1708(10)
O8A O 0.5372(4) 0.1060(6) 0.5041(10)
O8O_2 O 0.0979(4) -0.1295(4) 0.8292(10)
O8D O 0.2039(4) 0.4393(6) -0.1626(10)
O8I O 0.4312(4) 0.5372(4) 0.4959(10)
O9N O 0.5222(8) -0.0953(5) 0.2977(9)
O9J O 0.0491(6) -0.1889(8) 0.6310(9)
O9O O 0.4287(5) 0.2842(6) -0.0357(9)
O9H O 0.1444(8) 0.4287(5) 0.0357(9)
O9M O 0.3824(6) 0.4778(8) 0.2977(9)
N1N N 0.4703(6) 0.0995(4) 0.0884(8)
N1J N 0.2958(4) -0.1370(6) 0.4217(8)
N1O N 0.2339(4) 0.0375(4) -0.2450(8)
N1H N 0.1963(6) 0.2339(4) 0.2450(8)
N1A N 0.7042(4) 0.1370(6) 0.5783(8)
O10 O 0.973(4) 1.031(5) 0.918(8)
Br1 Br 0.91941(11) 0.76903(15) 0.5393(2)
loop_
_geom_bond_atom_site_label_1
_geom_bond_atom_site_label_2
_geom_bond_site_symmetry_1
_geom_bond_site_symmetry_2
Nd1 O2 1_555 1_555
C1 C2 1_555 1_555
C2 H1 1_555 1_555
H2 C2 1_555 1_555
C3 C4 1_555 1_555
C4 H3 1_555 1_555
H4 C4 1_555 1_555
C5 C4 1_555 1_555
C6 H5 1_555 1_555
H6 C6 1_555 1_555
C7 C2 1_555 1_555
H7 C7 1_555 1_555
H8 C7 1_555 1_555
C8 C9 1_555 1_555
C9 C6 1_555 1_555
H9 C9 1_555 1_555
H10 C9 1_555 1_555
O2 C1 1_555 1_555
O3 C8 1_555 1_555
O4 C3 1_555 1_555
O5 C3 1_555 1_555
O6 Nd1 1_555 1_555
O7 Nd1 1_555 1_555
O8 C8 1_555 1_555
O9 Nd1 1_555 1_555
N1 C5 1_555 1_555
Nd1N O2N 1_555 1_555
Nd1J O2J 1_555 1_555
Nd1O O6 1_555 1_555
Nd1H O2H 1_555 1_555
Nd1M O3 1_555 1_555
Nd1K O4 1_555 1_555
Nd1D O8 1_555 1_555
Nd1G O3O 1_555 1_555
Nd1E O3J 1_555 1_555
Nd1G_2 O6J 1_555 1_555
Nd1E_2 O4O 1_555 1_555
Nd1J_2 O8O 1_555 1_555
Nd1K_2 O6H 1_555 1_555
Nd1A O2A 1_555 1_555
Nd1I O4A 1_555 1_555
Nd1P O6A 1_555 1_555
C1N C2N 1_555 1_555
C1J C2J 1_555 1_555
C1O C2O 1_555 1_555
C1H C2H 1_555 1_555
C1A C2A 1_555 1_555
C2N H1N 1_555 1_555
C2J H1J 1_555 1_555
C2O H1O 1_555 1_555
C2H H1H 1_555 1_555
C2A H1A 1_555 1_555
H2N C2N 1_555 1_555
H2J C2J 1_555 1_555
H2O C2O 1_555 1_555
H2H C2H 1_555 1_555
H2A C2A 1_555 1_555
C3N C4N 1_555 1_555
C3J C4J 1_555 1_555
C3O C4O 1_555 1_555
C3H C4H 1_555 1_555
C3A C4A 1_555 1_555
C4N H3N 1_555 1_555
C4J H3J 1_555 1_555
C4O H3O 1_555 1_555
C4H H3H 1_555 1_555
C4A H3A 1_555 1_555
H4N C4N 1_555 1_555
H4J C4J 1_555 1_555
H4O C4O 1_555 1_555
H4H C4H 1_555 1_555
H4A C4A 1_555 1_555
C5N C4N 1_555 1_555
C5J C4J 1_555 1_555
C5O C4O 1_555 1_555
C5H C4H 1_555 1_555
C5A C4A 1_555 1_555
C6N H5N 1_555 1_555
C6J H5J 1_555 1_555
C6O H5O 1_555 1_555
C6H H5H 1_555 1_555
C6A H5A 1_555 1_555
H6N C6N 1_555 1_555
H6J C6J 1_555 1_555
H6O C6O 1_555 1_555
H6H C6H 1_555 1_555
H6A C6A 1_555 1_555
C7N C2N 1_555 1_555
C7J C2J 1_555 1_555
C7O C2O 1_555 1_555
C7H C2H 1_555 1_555
C7A C2A 1_555 1_555
H7N C7N 1_555 1_555
H7J C7J 1_555 1_555
H7O C7O 1_555 1_555
H7H C7H 1_555 1_555
H7A C7A 1_555 1_555
H8N C7N 1_555 1_555
H8J C7J 1_555 1_555
H8O C7O 1_555 1_555
H8H C7H 1_555 1_555
H8A C7A 1_555 1_555
C8N C9N 1_555 1_555
C8J C9J 1_555 1_555
C8O C9O 1_555 1_555
C8H C9H 1_555 1_555
C8A C9A 1_555 1_555
C9N C6N 1_555 1_555
C9J C6J 1_555 1_555
C9O C6O 1_555 1_555
C9H C6H 1_555 1_555
C9A C6A 1_555 1_555
H9N C9N 1_555 1_555
H9J C9J 1_555 1_555
H9O C9O 1_555 1_555
H9H C9H 1_555 1_555
H9A C9A 1_555 1_555
H10N C9N 1_555 1_555
H10J C9J 1_555 1_555
H10O C9O 1_555 1_555
H10H C9H 1_555 1_555
H10A C9A 1_555 1_555
O2N C1N 1_555 1_555
O2J C1J 1_555 1_555
O2O Nd1O 1_555 1_555
O2H C1H 1_555 1_555
O2A C1A 1_555 1_555
O2M Nd1M 1_555 1_555
O3N Nd1 1_555 1_555
O3J C8J 1_555 1_555
O3O C8O 1_555 1_555
O3H Nd1O 1_555 1_555
O3A Nd1N 1_555 1_555
O3C Nd1J 1_555 1_555
O3P Nd1H 1_555 1_555
O4N Nd1G 1_555 1_555
O4J Nd1 1_555 1_555
O4O C3O 1_555 1_555
O4H Nd1M 1_555 1_555
O4A C3A 1_555 1_555
O4F Nd1N 1_555 1_555
O4B Nd1J 1_555 1_555
O4D Nd1O 1_555 1_555
O4L Nd1H 1_555 1_555
O5N Nd1 1_555 1_555
O5J Nd1E 1_555 1_555
O5O Nd1G 1_555 1_555
O5H Nd1O 1_555 1_555
O5A Nd1N 1_555 1_555
O5C Nd1J 1_555 1_555
O5P Nd1H 1_555 1_555
O6N Nd1N 1_555 1_555
O6J Nd1J 1_555 1_555
O6O Nd1 1_555 1_555
O6H Nd1H 1_555 1_555
O6A Nd1A 1_555 1_555
O6E Nd1N 1_555 1_555
O6G Nd1J 1_555 1_555
O6K Nd1H 1_555 1_555
O6D Nd1M 1_555 1_555
O6M Nd1M 1_555 1_555
O7N Nd1N 1_555 1_555
O7J Nd1J 1_555 1_555
O7O Nd1O 1_555 1_555
O7H Nd1H 1_555 1_555
O7M Nd1M 1_555 1_555
O8N Nd1O 1_555 1_555
O8J Nd1N 1_555 1_555
O8O C8O 1_555 1_555
O8H Nd1 1_555 1_555
O8A Nd1E 1_555 1_555
O8O_2 Nd1J 1_555 1_555
O8D Nd1H 1_555 1_555
O8I Nd1M 1_555 1_555
O9N Nd1N 1_555 1_555
O9J Nd1J 1_555 1_555
O9O Nd1O 1_555 1_555
O9H Nd1H 1_555 1_555
O9M Nd1M 1_555 1_555
N1N C5N 1_555 1_555
N1J C5J 1_555 1_555
N1O C5O 1_555 1_555
N1H C5H 1_555 1_555
N1A C5A 1_555 1_555
C1 O6 1_555 1_555
C6 N1 1_555 1_555
C7 N1 1_555 1_555
O5 Nd1M 1_555 1_555
Nd1O O6O 1_555 1_555
Nd1D O6D 1_555 1_555
Nd1D O6M 1_555 1_555
Nd1E O6N 1_555 1_555
Nd1E O6E 1_555 1_555
Nd1G_2 O6G 1_555 1_555
Nd1K_2 O6K 1_555 1_555
C1N O6N 1_555 1_555
C1J O6J 1_555 1_555
C1O O2O 1_555 1_555
C1O O6O 1_555 1_555
C1H O6H 1_555 1_555
C1A O6A 1_555 1_555
C3N O4N 1_555 1_555
C3N O5N 1_555 1_555
C3J O4J 1_555 1_555
C3J O5J 1_555 1_555
C3O O5O 1_555 1_555
C3H O4H 1_555 1_555
C3H O5H 1_555 1_555
C3A O5A 1_555 1_555
C6N N1N 1_555 1_555
C6J N1J 1_555 1_555
C6O N1O 1_555 1_555
C6H N1H 1_555 1_555
C6A N1A 1_555 1_555
C7N N1N 1_555 1_555
C7J N1J 1_555 1_555
C7O N1O 1_555 1_555
C7H N1H 1_555 1_555
C7A N1A 1_555 1_555
C8N O3N 1_555 1_555
C8N O8N 1_555 1_555
C8J O8J 1_555 1_555
C8H O3H 1_555 1_555
C8H O8H 1_555 1_555
C8A O3A 1_555 1_555
C8A O8A 1_555 1_555

#END
