
#######################################################################
#
#                 Cambridge Crystallographic Data Centre
#                                CCDC 
#
#######################################################################
#
# If this CIF has been generated from an entry in the Cambridge 
# Structural Database, then it will include bibliographic, chemical, 
# crystal, experimental, refinement or atomic coordinate data resulting 
# from the CCDC's data processing and validation procedures.
#
#######################################################################

data_PADCAA
_symmetry_cell_setting           monoclinic
_symmetry_space_group_name_H-M   'P 21/c'
_symmetry_Int_Tables_number      14
_space_group_name_Hall           '-P 2ybc'
loop_
_symmetry_equiv_pos_site_id
_symmetry_equiv_pos_as_xyz
1 x,y,z
2 -x,1/2+y,1/2-z
3 -x,-y,-z
4 x,1/2-y,1/2+z
_cell_length_a                   11.7826(11)
_cell_length_b                   18.0047(16)
_cell_length_c                   13.6844(12)
_cell_angle_alpha                90
_cell_angle_beta                 104.7100(10)
_cell_angle_gamma                90
_cell_volume                     2807.89
loop_
_atom_site_label
_atom_site_type_symbol
_atom_site_fract_x
_atom_site_fract_y
_atom_site_fract_z
Zn1 Zn 0.90231(2) 0.135584(14) 0.021938(19)
O1 O 0.75205(13) 0.19655(9) -0.00935(12)
O2 O 0.62907(15) 0.10117(10) -0.05427(17)
O3 O 0.40669(16) 0.47013(10) -0.13998(18)
H1 H 0.4282 0.5133 -0.1417
O4 O 0.59920(16) 0.45209(10) -0.08493(16)
O5 O 0.22799(14) 0.22155(10) -0.17595(14)
O6 O 1.09951(13) 0.09338(9) 0.05174(12)
O7 O 1.04448(13) 0.21009(9) 0.03968(12)
O8 O 1.33825(17) 0.40916(10) 0.09462(19)
H2 H 1.3628 0.4514 0.0906
O9 O 1.52951(17) 0.38458(10) 0.14355(16)
O10 O 1.54858(15) 0.10864(10) 0.17278(15)
O11 O 0.82370(14) 0.03059(9) 0.02435(12)
H3 H 0.8362 -0.0087 -0.0034
H4 H 0.7589 0.0480 -0.0045
N1 N 0.92163(17) 0.13698(11) 0.18554(14)
N2 N 0.89077(17) 0.12104(11) 0.86182(14)
C1 C 0.6511(2) 0.16866(13) -0.04610(17)
C2 C 0.55075(19) 0.22251(13) -0.08110(17)
C3 C 0.43650(19) 0.19431(13) -0.11406(17)
H5 H 0.4237 0.1433 -0.1160
C4 C 0.34269(19) 0.24277(14) -0.14372(17)
C5 C 0.3619(2) 0.31915(13) -0.14126(17)
H6 H 0.2987 0.3516 -0.1603
C6 C 0.4753(2) 0.34663(13) -0.11030(17)
C7 C 0.56983(19) 0.29801(13) -0.07987(17)
H7 H 0.6458 0.3166 -0.0587
C8 C 0.4971(2) 0.42768(14) -0.11076(19)
C9 C 0.2022(2) 0.14452(15) -0.1891(2)
H8 H 0.2405 0.1243 -0.2373
H9 H 0.1189 0.1378 -0.2133
H10 H 0.2297 0.1194 -0.1256
C10 C 1.12407(19) 0.16161(13) 0.05616(16)
C11 C 1.25025(19) 0.18610(13) 0.08533(16)
C12 C 1.2779(2) 0.26130(13) 0.08934(17)
H11 H 1.2186 0.2966 0.0720
C13 C 1.3951(2) 0.28356(13) 0.11955(17)
C14 C 1.4840(2) 0.23092(13) 0.14633(17)
H12 H 1.5620 0.2459 0.1667
C15 C 1.4559(2) 0.15596(13) 0.14247(18)
C16 C 1.3395(2) 0.13347(13) 0.11166(17)
H13 H 1.3210 0.0832 0.1086
C17 C 1.4265(2) 0.36344(14) 0.12076(19)
C18 C 1.5292(2) 0.03201(15) 0.1479(2)
H14 H 1.4746 0.0120 0.1824
H15 H 1.6022 0.0056 0.1683
H16 H 1.4979 0.0269 0.0763
C19 C 1.0159(2) 0.16139(15) 0.25451(18)
H17 H 1.0761 0.1832 0.2320
C20 C 1.0286(2) 0.15604(16) 0.35694(18)
H18 H 1.0967 0.1737 0.4012
C21 C 0.9417(2) 0.12471(16) 0.39512(19)
C22 C 0.8416(3) 0.10252(19) 0.3231(2)
H19 H 0.7783 0.0830 0.3435
C23 C 0.8356(2) 0.10933(18) 0.2216(2)
H20 H 0.7674 0.0937 0.1756
C24 C 0.9565(3) 0.1207(2) 0.5077(2)
H21 H 1.0293 0.0946 0.5369
H22 H 0.9657 0.1710 0.5339
C25 C 0.9253(2) 0.05799(14) 0.82686(18)
H23 H 0.9561 0.0207 0.8730
C26 C 0.9178(2) 0.04507(15) 0.72623(19)
H24 H 0.9429 -0.0001 0.7062
C27 C 0.8737(2) 0.09832(17) 0.65558(19)
C28 C 0.8383(3) 0.16417(18) 0.6909(2)
H25 H 0.8079 0.2023 0.6460
C29 C 0.8482(2) 0.17328(15) 0.7933(2)
H26 H 0.8240 0.2180 0.8153
C30 C 0.8635(3) 0.0849(2) 0.5445(2)
H27 H 0.8656 0.0318 0.5328
H28 H 0.7880 0.1032 0.5057
Zn1_2 Zn 0.90231(2) 0.135584(14) 1.021938(19)
N2_2 N 0.89077(17) 0.12104(11) -0.13818(14)
loop_
_geom_bond_atom_site_label_1
_geom_bond_atom_site_label_2
_geom_bond_site_symmetry_1
_geom_bond_site_symmetry_2
Zn1 O1 1_555 1_555
O1 C1 1_555 1_555
O2 C1 1_555 1_555
O3 H1 1_555 1_555
O4 C8 1_555 1_555
O5 C4 1_555 1_555
O6 Zn1 1_555 1_555
O7 Zn1 1_555 1_555
O8 H2 1_555 1_555
O9 C17 1_555 1_555
O10 C15 1_555 1_555
O11 Zn1 1_555 1_555
H3 O11 1_555 1_555
H4 O11 1_555 1_555
N1 Zn1 1_555 1_555
N2 C25 1_555 1_555
C1 C2 1_555 1_555
C2 C3 1_555 1_555
C3 H5 1_555 1_555
C4 C3 1_555 1_555
C5 C4 1_555 1_555
H6 C5 1_555 1_555
C6 C5 1_555 1_555
C7 C2 1_555 1_555
H7 C7 1_555 1_555
C8 O3 1_555 1_555
C9 O5 1_555 1_555
H8 C9 1_555 1_555
H9 C9 1_555 1_555
H10 C9 1_555 1_555
C10 O6 1_555 1_555
C11 C10 1_555 1_555
C12 C11 1_555 1_555
H11 C12 1_555 1_555
C13 C12 1_555 1_555
C14 C13 1_555 1_555
H12 C14 1_555 1_555
C15 C14 1_555 1_555
C16 C11 1_555 1_555
H13 C16 1_555 1_555
C17 O8 1_555 1_555
C18 O10 1_555 1_555
H14 C18 1_555 1_555
H15 C18 1_555 1_555
H16 C18 1_555 1_555
C19 N1 1_555 1_555
H17 C19 1_555 1_555
C20 C19 1_555 1_555
H18 C20 1_555 1_555
C21 C20 1_555 1_555
C22 C21 1_555 1_555
H19 C22 1_555 1_555
C23 N1 1_555 1_555
H20 C23 1_555 1_555
C24 C21 1_555 1_555
H21 C24 1_555 1_555
H22 C24 1_555 1_555
C25 H23 1_555 1_555
C26 C25 1_555 1_555
H24 C26 1_555 1_555
C27 C26 1_555 1_555
C28 C27 1_555 1_555
H25 C28 1_555 1_555
C29 N2 1_555 1_555
H26 C29 1_555 1_555
C30 C24 1_555 1_555
H27 C30 1_555 1_555
H28 C30 1_555 1_555
Zn1_2 N2 1_555 1_555
N2_2 Zn1 1_555 1_555
O7 C10 1_555 1_555
C6 C7 1_555 1_555
C6 C8 1_555 1_555
C13 C17 1_555 1_555
C15 C16 1_555 1_555
C22 C23 1_555 1_555
C27 C30 1_555 1_555
C28 C29 1_555 1_555

#END
