
#######################################################################
#
#                 Cambridge Crystallographic Data Centre
#                                CCDC 
#
#######################################################################
#
# If this CIF has been generated from an entry in the Cambridge 
# Structural Database, then it will include bibliographic, chemical, 
# crystal, experimental, refinement or atomic coordinate data resulting 
# from the CCDC's data processing and validation procedures.
#
#######################################################################

data_PADHOT
_symmetry_cell_setting           triclinic
_symmetry_space_group_name_H-M   'P -1'
_symmetry_Int_Tables_number      2
_space_group_name_Hall           '-P 1'
loop_
_symmetry_equiv_pos_site_id
_symmetry_equiv_pos_as_xyz
1 x,y,z
2 -x,-y,-z
_cell_length_a                   11.5156(8)
_cell_length_b                   12.2250(9)
_cell_length_c                   15.9359(11)
_cell_angle_alpha                67.966(1)
_cell_angle_beta                 79.174(1)
_cell_angle_gamma                76.612(1)
_cell_volume                     2010.34
loop_
_atom_site_label
_atom_site_type_symbol
_atom_site_fract_x
_atom_site_fract_y
_atom_site_fract_z
Cd1 Cd 0.68253(2) 0.65810(2) 0.594759(15)
N1 N 0.8431(3) 0.4987(2) 0.59752(18)
N2 N 0.5165(3) 0.8127(2) 0.59977(17)
O1 O 0.8034(3) 0.7263(2) 0.67791(17)
O2 O 0.5508(3) 0.5973(3) 0.5211(2)
N3 N 0.8367(3) 0.8038(3) 0.6051(2)
O3 O 0.8036(2) 0.8077(2) 0.53291(16)
C1 C 0.5310(3) 0.9102(3) 0.6140(2)
H1 H 0.6083 0.9189 0.6164
C2 C 0.8476(4) 0.4308(3) 0.5470(2)
H2 H 0.7900 0.4526 0.5071
C3 C 0.4363(3) 0.9977(3) 0.6251(2)
H3 H 0.4497 1.0644 0.6342
C4 C 0.1797(3) 0.8691(3) 0.6017(2)
H4 H 0.1359 0.9454 0.5659
H5 H 0.1874 0.8134 0.5699
C5 C 0.3040(3) 0.8854(3) 0.6077(2)
C6 C 0.9345(4) 0.3296(3) 0.5520(2)
H6 H 0.9357 0.2853 0.5153
C7 C 1.0166(3) 0.3636(3) 0.6644(2)
C8 C 0.3218(3) 0.9850(3) 0.6225(2)
H7 H 0.2566 1.0427 0.6307
C9 C 0.4042(3) 0.8023(3) 0.5967(2)
H8 H 0.3932 0.7354 0.5867
O4 O 0.8978(3) 0.8738(3) 0.6038(2)
O5 O 0.6840(3) 0.6968(3) 0.43736(18)
C10 C 1.0184(3) 0.2958(3) 0.6116(2)
H9 H 1.0765 0.2274 0.6164
N4 N 1.0774(2) 0.2278(2) 0.81371(17)
O6 O 0.9218(2) 0.3351(2) 0.88122(16)
O7 O 0.0374(2) 1.0053(2) 0.71268(18)
C11 C 1.0736(3) 0.0397(3) 0.9212(2)
C12 C 1.1062(3) 0.3286(3) 0.7318(2)
H10 H 1.1860 0.3065 0.7035
H11 H 1.1065 0.3968 0.7489
C13 C 0.9046(3) 0.0818(3) 1.0287(2)
H12 H 0.8429 0.1351 1.0470
C14 C 0.9840(3) 0.2411(3) 0.8809(2)
C15 C 0.0388(3) 0.9000(3) 0.7353(2)
C16 C 0.9814(3) 0.1183(3) 0.9491(2)
N5 N 0.1105(2) 0.8244(3) 0.69051(18)
C17 C 1.1389(3) 0.1097(3) 0.8337(2)
C18 C 0.9275(3) 0.4640(3) 0.6542(2)
H13 H 0.9261 0.5106 0.6891
N6 N 0.5996(4) 0.6464(3) 0.4423(2)
O8 O 1.2248(2) 0.0756(2) 0.78882(15)
O9 O 0.1289(3) 0.6277(2) 0.70123(18)
C19 C -0.0319(3) 0.8223(3) 0.8144(2)
C20 C -0.1121(3) 0.8519(3) 0.8817(2)
H14 H -0.1320 0.9295 0.8830
O10 O 0.5701(4) 0.6418(4) 0.3738(2)
C21 C -0.0037(3) 0.7065(3) 0.8112(2)
C22 C 0.0860(3) 0.7084(3) 0.7294(2)
O11 O -0.1988(2) 0.4579(2) 1.05179(17)
O12 O -0.2876(2) 0.8387(2) 1.05815(17)
N7 N -0.2640(3) 0.6387(3) 1.07440(18)
C23 C -0.1608(3) 0.7578(3) 0.9471(2)
C24 C -0.1340(3) 0.6427(3) 0.9446(2)
C25 C -0.0551(3) 0.6129(3) 0.8757(2)
H15 H -0.0381 0.5360 0.8732
C26 C -0.2457(3) 0.7576(3) 1.0306(2)
C27 C -0.1998(3) 0.5639(3) 1.0269(2)
C30 C -0.3284(3) 0.5951(3) 1.1652(2)
H18 H -0.3449 0.6577 1.1915
H19 H -0.2767 0.5272 1.2033
C31 C -0.4447(3) 0.5576(3) 1.1677(2)
C32 C -0.5009(3) 0.4959(3) 1.2517(2)
H20 H -0.4640 0.4795 1.3034
C33 C -0.5012(3) 0.5814(3) 1.0920(2)
H21 H -0.4662 0.6213 1.0342
N8 N -0.6045(3) 0.4589(2) 1.26266(18)
C34 C -0.6590(3) 0.4845(3) 1.1890(2)
H22 H -0.7322 0.4604 1.1961
C35 C -0.6104(3) 0.5456(3) 1.1027(2)
H23 H -0.6501 0.5625 1.0524
Cd1A Cd 1.31747(2) -0.65810(2) 1.405241(15)
Cd1A_2 Cd -0.68253(2) 0.34190(2) 1.405241(15)
N1A N 1.1569(3) -0.4987(2) 1.40248(18)
N2A N -0.5165(3) 0.1873(2) 1.40023(17)
N2A_2 N 1.4835(3) -0.8127(2) 1.40023(17)
O1A O 1.1966(3) -0.7263(2) 1.32209(17)
O2A O 1.4492(3) -0.5973(3) 1.4789(2)
N3A N 1.1633(3) -0.8038(3) 1.3949(2)
O3A O 1.1964(2) -0.8077(2) 1.46709(16)
C1A C -0.5310(3) 0.0898(3) 1.3860(2)
H1A H -0.6083 0.0811 1.3836
C2A C 1.1524(4) -0.4308(3) 1.4530(2)
H2A H 1.2100 -0.4526 1.4929
C3A C -0.4363(3) 0.0023(3) 1.3749(2)
H3A H -0.4497 -0.0644 1.3658
C4A C -0.1797(3) 0.1309(3) 1.3983(2)
H4A H -0.1359 0.0546 1.4341
H5A H -0.1874 0.1866 1.4301
C5A C -0.3040(3) 0.1146(3) 1.3923(2)
C6A C 1.0655(4) -0.3296(3) 1.4480(2)
H6A H 1.0643 -0.2853 1.4847
C7A C 0.9834(3) -0.3636(3) 1.3356(2)
C8A C -0.3218(3) 0.0150(3) 1.3775(2)
H7A H -0.2566 -0.0427 1.3693
C9A C -0.4042(3) 0.1977(3) 1.4033(2)
H8A H -0.3932 0.2646 1.4133
O4A O 1.1022(3) -0.8738(3) 1.3962(2)
O5A O 1.3160(3) -0.6968(3) 1.56264(18)
C10A C 0.9816(3) -0.2958(3) 1.3884(2)
H9A H 0.9235 -0.2274 1.3836
N4A N 0.9226(2) -0.2278(2) 1.18629(17)
O6A O 1.0782(2) -0.3351(2) 1.11878(16)
O7A O -0.0374(2) -0.0053(2) 1.28732(18)
C11A C 0.9264(3) -0.0397(3) 1.0788(2)
C12A C 0.8938(3) -0.3286(3) 1.2682(2)
H10A H 0.8140 -0.3065 1.2965
H11A H 0.8935 -0.3968 1.2511
C13A C 1.0954(3) -0.0818(3) 0.9713(2)
H12A H 1.1571 -0.1351 0.9530
C14A C 1.0160(3) -0.2411(3) 1.1191(2)
C15A C -0.0388(3) 0.1000(3) 1.2647(2)
C16A C 1.0186(3) -0.1183(3) 1.0509(2)
N5A N -0.1105(2) 0.1756(3) 1.30949(18)
C17A C 0.8611(3) -0.1097(3) 1.1663(2)
C18A C 1.0725(3) -0.4640(3) 1.3458(2)
H13A H 1.0739 -0.5106 1.3109
N6A N 1.4004(4) -0.6464(3) 1.5577(2)
O8A O 0.7752(2) -0.0756(2) 1.21118(15)
O9A O -0.1289(3) 0.3723(2) 1.29877(18)
C19A C 0.0319(3) 0.1777(3) 1.1856(2)
C20A C 0.1121(3) 0.1481(3) 1.1183(2)
H14A H 0.1320 0.0705 1.1170
O10A O 1.4299(4) -0.6418(4) 1.6262(2)
C21A C 0.0037(3) 0.2935(3) 1.1888(2)
C22A C -0.0860(3) 0.2916(3) 1.2706(2)
O11A O 0.1988(2) 0.5421(2) 0.94821(17)
O12A O 0.2876(2) 0.1613(2) 0.94185(17)
N7A N 0.2640(3) 0.3613(3) 0.92560(18)
C23A C 0.1608(3) 0.2422(3) 1.0529(2)
C24A C 0.1340(3) 0.3573(3) 1.0554(2)
C25A C 0.0551(3) 0.3871(3) 1.1243(2)
H15A H 0.0381 0.4640 1.1268
C26A C 0.2457(3) 0.2424(3) 0.9694(2)
C27A C 0.1998(3) 0.4361(3) 0.9731(2)
C30A C 0.3284(3) 0.4049(3) 0.8348(2)
H18A H 0.3449 0.3423 0.8085
H19A H 0.2767 0.4728 0.7967
C31A C 0.4447(3) 0.4424(3) 0.8323(2)
C32A C 0.5009(3) 0.5041(3) 0.7483(2)
H20A H 0.4640 0.5205 0.6966
C33A C 0.5012(3) 0.4186(3) 0.9080(2)
H21A H 0.4662 0.3787 0.9658
N8A N 0.6045(3) 0.5411(2) 0.73734(18)
N8_2 N 1.3955(3) -0.5411(2) 1.26266(18)
C34A C 0.6590(3) 0.5155(3) 0.8110(2)
H22A H 0.7322 0.5396 0.8039
C35A C 0.6104(3) 0.4544(3) 0.8973(2)
H23A H 0.6501 0.4375 0.9476
Cl1 Cl -0.36021(10) 0.25109(9) 1.13859(7)
Cl2 Cl -0.41485(11) 0.12038(10) 1.03687(7)
Cl3 Cl -0.59717(10) 0.19629(10) 1.16458(7)
C28 C -0.4431(3) 0.1464(3) 1.1403(2)
H16 H -0.4186 0.0706 1.1889
Cl4 Cl 0.75507(12) 0.22189(13) 0.78130(9)
Cl5 Cl 0.54011(13) 0.12904(13) 0.80873(10)
Cl6 Cl 0.72686(15) 0.09781(15) 0.66707(11)
C29 C 0.6533(4) 0.1913(4) 0.7286(3)
H17 H 0.6166 0.2673 0.6856
loop_
_geom_bond_atom_site_label_1
_geom_bond_atom_site_label_2
_geom_bond_site_symmetry_1
_geom_bond_site_symmetry_2
Cd1 N1 1_555 1_555
N1 C2 1_555 1_555
N2 Cd1 1_555 1_555
O1 Cd1 1_555 1_555
O2 Cd1 1_555 1_555
N3 O1 1_555 1_555
O3 Cd1 1_555 1_555
C1 N2 1_555 1_555
H1 C1 1_555 1_555
C2 H2 1_555 1_555
C3 C1 1_555 1_555
H3 C3 1_555 1_555
C4 H4 1_555 1_555
H5 C4 1_555 1_555
C5 C4 1_555 1_555
C6 C2 1_555 1_555
H6 C6 1_555 1_555
C7 C10 1_555 1_555
C8 C3 1_555 1_555
H7 C8 1_555 1_555
C9 N2 1_555 1_555
H8 C9 1_555 1_555
O4 N3 1_555 1_555
O5 Cd1 1_555 1_555
C10 C6 1_555 1_555
H9 C10 1_555 1_555
N4 C12 1_555 1_555
O6 C14 1_555 1_555
O7 C15 1_555 1_555
C11 C16 1_555 1_555
C12 C7 1_555 1_555
H10 C12 1_555 1_555
H11 C12 1_555 1_555
C13 H12 1_555 1_555
C14 N4 1_555 1_555
C15 N5 1_555 1_555
C16 C13 1_555 1_555
N5 C4 1_555 1_555
C17 N4 1_555 1_555
C18 N1 1_555 1_555
H13 C18 1_555 1_555
N6 O2 1_555 1_555
O8 C17 1_555 1_555
O9 C22 1_555 1_555
C19 C15 1_555 1_555
C20 C19 1_555 1_555
H14 C20 1_555 1_555
O10 N6 1_555 1_555
C21 C19 1_555 1_555
C22 N5 1_555 1_555
O11 C27 1_555 1_555
O12 C26 1_555 1_555
N7 C26 1_555 1_555
C23 C20 1_555 1_555
C24 C23 1_555 1_555
C25 C21 1_555 1_555
H15 C25 1_555 1_555
C26 C23 1_555 1_555
C27 N7 1_555 1_555
Cl1 C28 1_555 1_555
Cl2 C28 1_555 1_555
Cl3 C28 1_555 1_555
C28 H16 1_555 1_555
Cl4 C29 1_555 1_555
Cl5 C29 1_555 1_555
Cl6 C29 1_555 1_555
C29 H17 1_555 1_555
C30 N7 1_555 1_555
H18 C30 1_555 1_555
H19 C30 1_555 1_555
C31 C30 1_555 1_555
C32 C31 1_555 1_555
H20 C32 1_555 1_555
C33 C31 1_555 1_555
H21 C33 1_555 1_555
N8 C32 1_555 1_555
C34 N8 1_555 1_555
H22 C34 1_555 1_555
C35 C33 1_555 1_555
H23 C35 1_555 1_555
Cd1A N1A 1_555 1_555
Cd1A_2 N8 1_555 1_555
N1A C2A 1_555 1_555
N2A Cd1A_2 1_555 1_555
N2A_2 Cd1A 1_555 1_555
O1A Cd1A 1_555 1_555
O2A Cd1A 1_555 1_555
N3A O1A 1_555 1_555
O3A Cd1A 1_555 1_555
C1A N2A 1_555 1_555
H1A C1A 1_555 1_555
C2A H2A 1_555 1_555
C3A C1A 1_555 1_555
H3A C3A 1_555 1_555
C4A H4A 1_555 1_555
H5A C4A 1_555 1_555
C5A C4A 1_555 1_555
C6A C2A 1_555 1_555
H6A C6A 1_555 1_555
C7A C10A 1_555 1_555
C8A C3A 1_555 1_555
H7A C8A 1_555 1_555
C9A N2A 1_555 1_555
H8A C9A 1_555 1_555
O4A N3A 1_555 1_555
O5A Cd1A 1_555 1_555
C10A C6A 1_555 1_555
H9A C10A 1_555 1_555
N4A C12A 1_555 1_555
O6A C14A 1_555 1_555
O7A C15A 1_555 1_555
C11A C13 1_555 1_555
C12A C7A 1_555 1_555
H10A C12A 1_555 1_555
H11A C12A 1_555 1_555
C13A C11 1_555 1_555
H12A C13A 1_555 1_555
C14A N4A 1_555 1_555
C15A N5A 1_555 1_555
C16A C11A 1_555 1_555
N5A C4A 1_555 1_555
C17A N4A 1_555 1_555
C18A N1A 1_555 1_555
H13A C18A 1_555 1_555
N6A O2A 1_555 1_555
O8A C17A 1_555 1_555
O9A C22A 1_555 1_555
C19A C15A 1_555 1_555
C20A C19A 1_555 1_555
H14A C20A 1_555 1_555
O10A N6A 1_555 1_555
C21A C19A 1_555 1_555
C22A N5A 1_555 1_555
O11A C27A 1_555 1_555
O12A C26A 1_555 1_555
N7A C26A 1_555 1_555
C23A C20A 1_555 1_555
C24A C23A 1_555 1_555
C25A C21A 1_555 1_555
H15A C25A 1_555 1_555
C26A C23A 1_555 1_555
C27A N7A 1_555 1_555
C30A N7A 1_555 1_555
H18A C30A 1_555 1_555
H19A C30A 1_555 1_555
C31A C30A 1_555 1_555
C32A C31A 1_555 1_555
H20A C32A 1_555 1_555
C33A C31A 1_555 1_555
H21A C33A 1_555 1_555
N8A Cd1 1_555 1_555
N8_2 Cd1A 1_555 1_555
C34A N8A 1_555 1_555
H22A C34A 1_555 1_555
C35A C33A 1_555 1_555
H23A C35A 1_555 1_555
N3 O3 1_555 1_555
C5 C8 1_555 1_555
C5 C9 1_555 1_555
C7 C18 1_555 1_555
O5 N6 1_555 1_555
C11 C17 1_555 1_555
C14 C16 1_555 1_555
C21 C22 1_555 1_555
C24 C25 1_555 1_555
C24 C27 1_555 1_555
C34 C35 1_555 1_555
N3A O3A 1_555 1_555
C5A C8A 1_555 1_555
C5A C9A 1_555 1_555
C7A C18A 1_555 1_555
O5A N6A 1_555 1_555
C11A C17A 1_555 1_555
C13A C16A 1_555 1_555
C14A C16A 1_555 1_555
C21A C22A 1_555 1_555
C24A C25A 1_555 1_555
C24A C27A 1_555 1_555
C32A N8A 1_555 1_555
C34A C35A 1_555 1_555

#END
