
#######################################################################
#
#                 Cambridge Crystallographic Data Centre
#                                CCDC 
#
#######################################################################
#
# If this CIF has been generated from an entry in the Cambridge 
# Structural Database, then it will include bibliographic, chemical, 
# crystal, experimental, refinement or atomic coordinate data resulting 
# from the CCDC's data processing and validation procedures.
#
#######################################################################

data_PADKOV
_symmetry_cell_setting           triclinic
_symmetry_space_group_name_H-M   'P -1'
_symmetry_Int_Tables_number      2
_space_group_name_Hall           '-P 1'
loop_
_symmetry_equiv_pos_site_id
_symmetry_equiv_pos_as_xyz
1 x,y,z
2 -x,-y,-z
_cell_length_a                   8.7519(5)
_cell_length_b                   9.1527(5)
_cell_length_c                   11.5268(7)
_cell_angle_alpha                74.4660(10)
_cell_angle_beta                 82.9640(10)
_cell_angle_gamma                83.0400(10)
_cell_volume                     879.131
loop_
_atom_site_label
_atom_site_type_symbol
_atom_site_fract_x
_atom_site_fract_y
_atom_site_fract_z
Fe1 Fe 0.16327(5) 0.29707(5) 0.06290(4)
O1 O 0.1674(3) 0.0608(3) 0.1269(3)
O2 O 0.3063(4) -0.1512(4) 0.2121(4)
O3 O 0.9248(3) 0.3022(3) 0.0887(2)
O4 O 0.7672(3) 0.4854(3) -0.0163(2)
N1 N 0.4110(3) 0.2140(3) 0.0642(3)
N2 N 0.1542(4) 0.3126(4) -0.1293(3)
N3 N 0.1552(4) 0.3153(4) -0.7466(3)
C1 C 0.4341(4) 0.0701(4) 0.1277(4)
C2 C 0.5775(5) 0.0057(5) 0.1635(5)
H1 H 0.5927 -0.1000 0.2042
C3 C 0.6984(5) 0.0977(5) 0.1373(5)
H2 H 0.7971 0.0581 0.1653
C4 C 0.6760(4) 0.2457(4) 0.0718(3)
C5 C 0.5316(4) 0.2974(4) 0.0337(3)
H3 H 0.5171 0.3984 -0.0169
C6 C 0.2913(5) -0.0162(4) 0.1595(4)
C7 C 0.8002(4) 0.3524(4) 0.0453(3)
C8 C 0.0548(5) 0.2360(5) -0.1645(3)
H4 H -0.0133 0.1764 -0.1038
C9 C 0.0476(5) 0.2386(5) -0.2845(3)
H5 H -0.0267 0.1836 -0.3056
C10 C 0.1457(5) 0.3213(4) -0.3744(3)
C11 C 0.2469(5) 0.4014(5) -0.3378(4)
H6 H 0.3165 0.4618 -0.3965
C12 C 0.2477(5) 0.3925(5) -0.2158(4)
H7 H 0.3203 0.4474 -0.1925
C13 C 0.0675(9) 0.2257(9) -0.5388(5)
H8 H 0.0065 0.1558 -0.4801
C14 C 0.0763(9) 0.2231(8) -0.6598(5)
H9 H 0.0195 0.1524 -0.6814
C15 C 0.2258(8) 0.4151(7) -0.7134(4)
H10 H 0.2788 0.4889 -0.7750
C16 C 0.2252(8) 0.4197(7) -0.5941(4)
H11 H 0.2800 0.4937 -0.5751
C17 C 0.1455(5) 0.3224(5) -0.5029(3)
N3_2 N 0.1552(4) 0.3153(4) 0.2534(3)
Fe1_2 Fe 0.16327(5) 0.29707(5) -0.93710(4)
Fe1A Fe 0.83673(5) 0.70293(5) -0.06290(4)
O3_2 O -0.0752(3) 0.3022(3) 0.0887(2)
O4A O 0.2328(3) 0.5146(3) 0.0163(2)
Fe1_3 Fe 1.16327(5) 0.29707(5) 0.06290(4)
O5 O 0.3788(11) -0.2766(8) 0.4505(7)
H12 H 0.3566 -0.2386 0.3782
H13 H 0.3905 -0.1955 0.4697
loop_
_geom_bond_atom_site_label_1
_geom_bond_atom_site_label_2
_geom_bond_site_symmetry_1
_geom_bond_site_symmetry_2
Fe1 O1 1_555 1_555
O1 C6 1_555 1_555
O2 C6 1_555 1_555
O3 C7 1_555 1_555
O4 C7 1_555 1_555
N1 Fe1 1_555 1_555
N2 Fe1 1_555 1_555
N3 C14 1_555 1_555
C1 N1 1_555 1_555
C2 C1 1_555 1_555
H1 C2 1_555 1_555
C3 C2 1_555 1_555
H2 C3 1_555 1_555
C4 C3 1_555 1_555
C5 N1 1_555 1_555
H3 C5 1_555 1_555
C6 C1 1_555 1_555
C7 C4 1_555 1_555
C8 N2 1_555 1_555
H4 C8 1_555 1_555
C9 C8 1_555 1_555
H5 C9 1_555 1_555
C10 C9 1_555 1_555
C11 C10 1_555 1_555
H6 C11 1_555 1_555
C12 N2 1_555 1_555
H7 C12 1_555 1_555
C13 H8 1_555 1_555
C14 C13 1_555 1_555
H9 C14 1_555 1_555
C15 N3 1_555 1_555
H10 C15 1_555 1_555
C16 C15 1_555 1_555
H11 C16 1_555 1_555
C17 C10 1_555 1_555
O5 H12 1_555 1_555
H13 O5 1_555 1_555
N3_2 Fe1 1_555 1_555
Fe1_2 N3 1_555 1_555
Fe1A O4 1_555 1_555
O3_2 Fe1 1_555 1_555
O4A Fe1 1_555 1_555
Fe1_3 O3 1_555 1_555
C4 C5 1_555 1_555
C11 C12 1_555 1_555
C13 C17 1_555 1_555
C16 C17 1_555 1_555

#END
