
#######################################################################
#
#                 Cambridge Crystallographic Data Centre
#                                CCDC 
#
#######################################################################
#
# If this CIF has been generated from an entry in the Cambridge 
# Structural Database, then it will include bibliographic, chemical, 
# crystal, experimental, refinement or atomic coordinate data resulting 
# from the CCDC's data processing and validation procedures.
#
#######################################################################

data_PADMAJ01
_symmetry_cell_setting           triclinic
_symmetry_space_group_name_H-M   'P -1'
_symmetry_Int_Tables_number      2
_space_group_name_Hall           '-P 1'
loop_
_symmetry_equiv_pos_site_id
_symmetry_equiv_pos_as_xyz
1 x,y,z
2 -x,-y,-z
_cell_length_a                   8.7799(6)
_cell_length_b                   9.3842(6)
_cell_length_c                   11.5424(8)
_cell_angle_alpha                73.6690(10)
_cell_angle_beta                 83.9070(10)
_cell_angle_gamma                83.6930(10)
_cell_volume                     904.284
loop_
_atom_site_label
_atom_site_type_symbol
_atom_site_fract_x
_atom_site_fract_y
_atom_site_fract_z
Fe1 Fe 0.16474(4) 0.29785(5) 0.06107(4)
O1 O 0.1687(2) 0.0644(2) 0.1226(2)
O2 O 0.3114(3) -0.1488(3) 0.1967(3)
O3 O 0.9273(2) 0.3034(3) 0.0852(2)
O4 O 0.7659(2) 0.4879(2) -0.01223(19)
N1 N 0.4113(3) 0.2185(3) 0.0628(2)
N2 N 0.1527(3) 0.3104(3) -0.1308(2)
N3 N 0.1577(3) 0.3101(3) -0.7470(2)
C1 C 0.4366(3) 0.0738(4) 0.1219(3)
C2 C 0.5811(4) 0.0102(4) 0.1542(3)
H1 H 0.5969 -0.0944 0.1936
C3 C 0.7025(4) 0.1002(4) 0.1283(3)
H2 H 0.8030 0.0592 0.1522
C4 C 0.6777(3) 0.2492(3) 0.0694(3)
C5 C 0.5312(3) 0.3012(3) 0.0334(3)
H3 H 0.5153 0.4022 -0.0153
C6 C 0.2940(4) -0.0122(4) 0.1505(3)
C7 C 0.8013(3) 0.3551(3) 0.0444(3)
C8 C 0.2451(4) 0.3907(4) -0.2183(3)
H4 H 0.3158 0.4474 -0.1955
C9 C 0.2458(4) 0.3972(4) -0.3396(3)
H5 H 0.3153 0.4567 -0.3987
C10 C 0.1454(4) 0.3156(4) -0.3751(3)
C11 C 0.0489(4) 0.2332(4) -0.2849(3)
H6 H -0.0223 0.1749 -0.3051
C12 C 0.0545(4) 0.2324(4) -0.1653(3)
H7 H -0.0144 0.1746 -0.1043
C13 C 0.1454(4) 0.3165(4) -0.5035(3)
C14 C 0.2107(6) 0.4237(5) -0.5965(4)
H8 H 0.2526 0.5048 -0.5789
C15 C 0.2110(5) 0.4187(5) -0.7144(3)
H9 H 0.2533 0.4985 -0.7772
C16 C 0.0925(6) 0.2107(6) -0.6593(4)
H10 H 0.0478 0.1330 -0.6798
C17 C 0.0839(6) 0.2085(6) -0.5377(4)
H11 H 0.0351 0.1306 -0.4774
O3_2 O -0.0727(2) 0.3034(3) 0.0852(2)
O4A O 0.2341(2) 0.5121(2) 0.01223(19)
N3_2 N 0.1577(3) 0.3101(3) 0.2530(2)
Fe1_2 Fe 1.16474(4) 0.29785(5) 0.06107(4)
Fe1A Fe 0.83526(4) 0.70215(5) -0.06107(4)
Fe1_3 Fe 0.16474(4) 0.29785(5) -0.93893(4)
O5 O 0.3910(12) 0.7004(7) 0.4348(5)
H12 H 0.3655 0.7454 0.3639
C18 C 0.4073(10) 0.8302(6) 0.4723(5)
H14 H 0.3449 0.9207 0.4404
H15 H 0.5126 0.8471 0.4450
C19 C 0.3847(12) 0.7936(10) 0.6097(5)
H16 H 0.4150 0.8720 0.6385
H17 H 0.2791 0.7777 0.6365
H18 H 0.4481 0.7036 0.6411
O6? O 0.3215(12) 0.7360(10) 0.4309(5)
H13? H 0.3151 0.7748 0.3554
loop_
_geom_bond_atom_site_label_1
_geom_bond_atom_site_label_2
_geom_bond_site_symmetry_1
_geom_bond_site_symmetry_2
Fe1 O1 1_555 1_555
O1 C6 1_555 1_555
O2 C6 1_555 1_555
O3 C7 1_555 1_555
O4 C7 1_555 1_555
N1 Fe1 1_555 1_555
N2 Fe1 1_555 1_555
N3 C15 1_555 1_555
C1 N1 1_555 1_555
C2 C1 1_555 1_555
H1 C2 1_555 1_555
C3 C2 1_555 1_555
H2 C3 1_555 1_555
C4 C3 1_555 1_555
C5 N1 1_555 1_555
H3 C5 1_555 1_555
C6 C1 1_555 1_555
C7 C4 1_555 1_555
C8 N2 1_555 1_555
H4 C8 1_555 1_555
C9 C8 1_555 1_555
H5 C9 1_555 1_555
C10 C9 1_555 1_555
C11 C10 1_555 1_555
H6 C11 1_555 1_555
C12 N2 1_555 1_555
H7 C12 1_555 1_555
C13 C10 1_555 1_555
C14 C13 1_555 1_555
H8 C14 1_555 1_555
C15 C14 1_555 1_555
H9 C15 1_555 1_555
C16 N3 1_555 1_555
H10 C16 1_555 1_555
C17 C13 1_555 1_555
H11 C17 1_555 1_555
O5 H12 1_555 1_555
C18 O5 1_555 1_555
H14 C18 1_555 1_555
H15 C18 1_555 1_555
C19 C18 1_555 1_555
H16 C19 1_555 1_555
H17 C19 1_555 1_555
H18 C19 1_555 1_555
O3_2 Fe1 1_555 1_555
O4A Fe1 1_555 1_555
N3_2 Fe1 1_555 1_555
Fe1_2 O3 1_555 1_555
Fe1A O4 1_555 1_555
Fe1_3 N3 1_555 1_555
C4 C5 1_555 1_555
C11 C12 1_555 1_555
C16 C17 1_555 1_555

#END
