
#######################################################################
#
#                 Cambridge Crystallographic Data Centre
#                                CCDC 
#
#######################################################################
#
# If this CIF has been generated from an entry in the Cambridge 
# Structural Database, then it will include bibliographic, chemical, 
# crystal, experimental, refinement or atomic coordinate data resulting 
# from the CCDC's data processing and validation procedures.
#
#######################################################################

data_PADNUE
_symmetry_cell_setting           triclinic
_symmetry_space_group_name_H-M   'P -1'
_symmetry_Int_Tables_number      2
_space_group_name_Hall           '-P 1'
loop_
_symmetry_equiv_pos_site_id
_symmetry_equiv_pos_as_xyz
1 x,y,z
2 -x,-y,-z
_cell_length_a                   10.325(3)
_cell_length_b                   10.372(3)
_cell_length_c                   12.344(3)
_cell_angle_alpha                67.148(4)
_cell_angle_beta                 72.038(4)
_cell_angle_gamma                74.932(5)
_cell_volume                     1143.88
loop_
_atom_site_label
_atom_site_type_symbol
_atom_site_fract_x
_atom_site_fract_y
_atom_site_fract_z
Cd1 Cd 0.68039(5) 0.98870(5) -0.10858(4)
O1 O 0.6952(5) 0.9030(6) -0.2687(4)
O2 O 0.5519(5) 1.1012(6) -0.2632(4)
O3 O 0.6979(5) 1.2148(5) -0.1189(4)
O4 O 0.5049(5) 1.1417(5) -0.0010(4)
N1 N 0.7300(6) 0.8330(6) 0.1785(5)
H1 H 0.6441 0.8394 0.2151
N2 N 0.7769(5) 0.8737(6) 0.0569(5)
N3 N 0.9255(6) 0.9313(7) -0.1723(5)
C1 C 0.6047(7) 1.0015(8) -0.3073(5)
C2 C 0.5513(6) 1.0011(7) -0.4082(5)
C3 C 0.4757(7) 1.1209(8) -0.4723(6)
H2 H 0.4593 1.2035 -0.4540
C4 C 0.5772(7) 0.8780(7) -0.4357(6)
H3 H 0.6289 0.7962 -0.3939
C5 C 0.5840(6) 1.2351(6) -0.0491(6)
C6 C 0.5402(6) 1.3707(6) -0.0225(6)
C7 C 0.4214(7) 1.3942(7) 0.0613(7)
H4 H 0.3676 1.3228 0.1042
C8 C 0.6205(7) 1.4766(7) -0.0833(7)
H5 H 0.7025 1.4621 -0.1389
C9 C 0.8357(9) 0.7808(8) 0.2356(8)
H6 H 0.8277 0.7475 0.3187
C10 C 0.9556(9) 0.7864(8) 0.1485(8)
H7 H 1.0451 0.7579 0.1597
C11 C 0.9149(6) 0.8444(7) 0.0377(7)
C12 C 0.9971(6) 0.8740(7) -0.0867(7)
C13 C 1.1391(8) 0.8397(9) -0.1127(9)
H8 H 1.1858 0.7995 -0.0509
C14 C 1.2109(10) 0.8661(12) -0.2321(12)
H9 H 1.3065 0.8442 -0.2518
C15 C 1.1384(11) 0.9251(13) -0.3210(10)
H10 H 1.1846 0.9434 -0.4018
C16 C 0.9960(9) 0.9572(11) -0.2894(8)
H11 H 0.9474 0.9976 -0.3500
C4A C 0.4228(7) 1.1220(7) -0.5643(6)
C2A C 0.4487(6) 0.9989(7) -0.5918(5)
C1A C 0.3953(7) 0.9985(8) -0.6927(5)
O1A O 0.3048(5) 1.0970(6) -0.7313(4)
O2A O 0.4481(5) 0.8988(6) -0.7368(4)
C3A C 0.5243(7) 0.8791(8) -0.5277(6)
H2A H 0.5407 0.7965 -0.5460
H3A H 0.3711 1.2038 -0.6061
C8A C 0.3795(7) 1.5234(7) 0.0833(7)
C6A C 0.4598(6) 1.6293(6) 0.0225(6)
C5A C 0.4160(6) 1.7649(6) 0.0491(6)
O3A O 0.3021(5) 1.7852(5) 0.1189(4)
O4A O 0.4951(5) 1.8583(5) 0.0010(4)
C7A C 0.5786(7) 1.6058(7) -0.0613(7)
H4A H 0.6324 1.6772 -0.1042
H5A H 0.2975 1.5379 0.1389
Cd1A Cd 0.31961(5) 1.01130(5) -0.89142(4)
N1A N 0.2700(6) 1.1670(6) -1.1785(5)
H1A H 0.3559 1.1606 -1.2151
N2A N 0.2231(5) 1.1263(6) -1.0569(5)
N3A N 0.0745(6) 1.0687(7) -0.8277(5)
C9A C 0.1643(9) 1.2192(8) -1.2356(8)
H6A H 0.1723 1.2525 -1.3187
C10A C 0.0444(9) 1.2136(8) -1.1485(8)
H7A H -0.0451 1.2421 -1.1597
C11A C 0.0851(6) 1.1556(7) -1.0377(7)
C12A C 0.0029(6) 1.1260(7) -0.9133(7)
C13A C -0.1391(8) 1.1603(9) -0.8873(9)
H8A H -0.1858 1.2005 -0.9491
C14A C -0.2109(10) 1.1339(12) -0.7679(12)
H9A H -0.3065 1.1558 -0.7482
C15A C -0.1384(11) 1.0749(13) -0.6790(10)
H10A H -0.1846 1.0566 -0.5982
C16A C 0.0040(9) 1.0428(11) -0.7106(8)
H11A H 0.0526 1.0024 -0.6500
O4A_2 O 0.4951(5) 0.8583(5) 0.0010(4)
Cd1A_2 Cd 0.31961(5) 1.01130(5) 0.10858(4)
Cd1A_3 Cd 0.31961(5) 2.01130(5) 0.10858(4)
Cd1_2 Cd 0.68039(5) 1.98870(5) -0.10858(4)
O3A_2 O 0.3021(5) 0.7852(5) -0.8811(4)
O4_2 O 0.5049(5) 1.1417(5) -1.0010(4)
O4A_3 O 0.4951(5) 0.8583(5) -0.9990(4)
C17 C 0.754(2) 0.4200(17) 0.3957(15)
H12 H 0.6846 0.4114 0.4662
C18 C 0.7195(16) 0.4761(14) 0.284(2)
C19 C 0.823(3) 0.4890(16) 0.1787(15)
H13 H 0.7998 0.5265 0.1040
C20 C 0.960(2) 0.4458(18) 0.185(2)
C21 C 0.9945(16) 0.3897(17) 0.296(3)
H14 H 1.0865 0.3608 0.3005
C22 C 0.891(3) 0.3768(17) 0.4018(19)
C23 C 1.032(5) 0.331(4) 0.459(5)
C24 C 0.5609(14) 0.5043(13) 0.3251(11)
H15 H 0.5219 0.5438 0.2555
H16 H 0.5341 0.5698 0.3686
H17 H 0.5280 0.4169 0.3766
C25 C 1.064 0.4589 0.079
O5 O 0.7891(14) 0.3671(13) 0.5746(11)
loop_
_geom_bond_atom_site_label_1
_geom_bond_atom_site_label_2
_geom_bond_site_symmetry_1
_geom_bond_site_symmetry_2
Cd1 O1 1_555 1_555
O1 C1 1_555 1_555
O2 Cd1 1_555 1_555
O3 Cd1 1_555 1_555
O4 Cd1 1_555 1_555
N1 H1 1_555 1_555
N2 Cd1 1_555 1_555
N3 Cd1 1_555 1_555
C1 O2 1_555 1_555
C2 C1 1_555 1_555
C3 C2 1_555 1_555
H2 C3 1_555 1_555
C4 C2 1_555 1_555
H3 C4 1_555 1_555
C5 O3 1_555 1_555
C6 C5 1_555 1_555
C7 C6 1_555 1_555
H4 C7 1_555 1_555
C8 C6 1_555 1_555
H5 C8 1_555 1_555
C9 N1 1_555 1_555
H6 C9 1_555 1_555
C10 C9 1_555 1_555
H7 C10 1_555 1_555
C11 N2 1_555 1_555
C12 N3 1_555 1_555
C13 C12 1_555 1_555
H8 C13 1_555 1_555
C14 C13 1_555 1_555
H9 C14 1_555 1_555
C15 C14 1_555 1_555
H10 C15 1_555 1_555
C16 N3 1_555 1_555
H11 C16 1_555 1_555
C17 H12 1_555 1_555
C18 C17 1_555 1_555
C19 C18 1_555 1_555
H13 C19 1_555 1_555
C20 C19 1_555 1_555
C21 C20 1_555 1_555
H14 C21 1_555 1_555
C22 C17 1_555 1_555
C23 C22 1_555 1_555
C24 C18 1_555 1_555
H15 C24 1_555 1_555
H16 C24 1_555 1_555
H17 C24 1_555 1_555
C25 C20 1_555 1_555
C4A C3 1_555 1_555
C2A C4A 1_555 1_555
C1A C2A 1_555 1_555
O1A C1A 1_555 1_555
O2A C1A 1_555 1_555
C3A C4 1_555 1_555
H2A C3A 1_555 1_555
H3A C4A 1_555 1_555
C8A C7 1_555 1_555
C6A C8A 1_555 1_555
C5A C6A 1_555 1_555
O3A C5A 1_555 1_555
O4A C5A 1_555 1_555
C7A C8 1_555 1_555
H4A C7A 1_555 1_555
H5A C8A 1_555 1_555
Cd1A O1A 1_555 1_555
N1A H1A 1_555 1_555
N2A Cd1A 1_555 1_555
N3A Cd1A 1_555 1_555
C9A N1A 1_555 1_555
H6A C9A 1_555 1_555
C10A C9A 1_555 1_555
H7A C10A 1_555 1_555
C11A N2A 1_555 1_555
C12A N3A 1_555 1_555
C13A C12A 1_555 1_555
H8A C13A 1_555 1_555
C14A C13A 1_555 1_555
H9A C14A 1_555 1_555
C15A C14A 1_555 1_555
H10A C15A 1_555 1_555
C16A N3A 1_555 1_555
H11A C16A 1_555 1_555
O4A_2 Cd1 1_555 1_555
Cd1A_2 O4 1_555 1_555
Cd1A_3 O3A 1_555 1_555
Cd1_2 O4A 1_555 1_555
O3A_2 Cd1A 1_555 1_555
O4_2 Cd1A 1_555 1_555
O4A_3 Cd1A 1_555 1_555
O4 C5 1_555 1_555
N1 N2 1_555 1_555
C10 C11 1_555 1_555
C11 C12 1_555 1_555
C15 C16 1_555 1_555
C21 C22 1_555 1_555
C2A C3A 1_555 1_555
O2A Cd1A 1_555 1_555
C6A C7A 1_555 1_555
O4A Cd1A_3 1_555 1_555
N1A N2A 1_555 1_555
C10A C11A 1_555 1_555
C11A C12A 1_555 1_555
C15A C16A 1_555 1_555
O4A_2 Cd1A_2 1_555 1_555

#END
