
#######################################################################
#
#                 Cambridge Crystallographic Data Centre
#                                CCDC 
#
#######################################################################
#
# If this CIF has been generated from an entry in the Cambridge 
# Structural Database, then it will include bibliographic, chemical, 
# crystal, experimental, refinement or atomic coordinate data resulting 
# from the CCDC's data processing and validation procedures.
#
#######################################################################

data_PADNIS
_symmetry_cell_setting           triclinic
_symmetry_space_group_name_H-M   'P -1'
_symmetry_Int_Tables_number      2
_space_group_name_Hall           '-P 1'
loop_
_symmetry_equiv_pos_site_id
_symmetry_equiv_pos_as_xyz
1 x,y,z
2 -x,-y,-z
_cell_length_a                   10.347(4)
_cell_length_b                   10.390(4)
_cell_length_c                   21.833(8)
_cell_angle_alpha                77.937(5)
_cell_angle_beta                 88.261(5)
_cell_angle_gamma                72.257(5)
_cell_volume                     2184.75
loop_
_atom_site_label
_atom_site_type_symbol
_atom_site_fract_x
_atom_site_fract_y
_atom_site_fract_z
Cd1 Cd 0.841891(19) 0.307183(19) 0.302019(9)
Cd2 Cd -0.289640(18) 0.669570(19) 0.192950(9)
C1 C -0.3970(4) 0.9831(4) 0.09786(18)
H1 H -0.3761 0.9328 0.0664
C2 C 0.9516(3) -0.0064(4) 0.39448(17)
H2 H 0.9364 0.0432 0.4262
O1 O -0.06697(18) 0.6752(2) 0.18046(10)
O2 O 0.61735(18) 0.29666(19) 0.31441(9)
N1 N 0.8700(2) 0.2074(2) 0.21532(11)
C3 C 0.5611(3) 0.4111(3) 0.27779(12)
O3 O 0.62910(18) 0.4869(2) 0.25122(10)
O4 O -0.2705(2) 0.5351(2) 0.11559(9)
N2 N -0.3262(2) 0.7709(2) 0.27781(11)
O5 O 0.7959(2) 0.4436(2) 0.37984(10)
C4 C -0.0144(3) 0.5643(3) 0.21846(13)
O6 O -0.08475(18) 0.4893(2) 0.24438(10)
O7 O -0.4617(2) 0.7019(2) 0.11343(10)
O8 O 0.9977(2) 0.2888(2) 0.38506(10)
C5 C -0.3895(3) 0.5980(3) 0.09427(12)
N3 N 0.8473(2) 0.2519(3) 0.15332(12)
H3 H 0.8187 0.3375 0.1346
C6 C -0.4468(3) 0.5477(3) 0.04516(12)
C7 C 0.1355(3) 0.5221(3) 0.23461(13)
N4 N -0.3021(2) 0.7274(3) 0.33995(12)
H4 H -0.2747 0.6420 0.3590
C8 C 0.4113(2) 0.4519(3) 0.26400(12)
C9 C -0.5863(3) 0.5808(3) 0.03629(13)
H5 H -0.6443 0.6353 0.0607
N5 N 0.9234(2) 0.0627(2) 0.33498(12)
C10 C 0.9153(3) 0.3877(3) 0.40327(13)
N6 N -0.3690(2) 0.9146(2) 0.15792(12)
C11 C 0.3333(3) 0.3748(3) 0.29626(15)
H6 H 0.3736 0.2990 0.3281
C12 C 0.9588(3) 0.4448(3) 0.45424(13)
C13 C -0.3606(3) 0.4666(3) 0.00856(13)
H7 H -0.2670 0.4441 0.0143
C14 C 0.8632(3) 0.5220(3) 0.48859(14)
H8 H 0.7714 0.5362 0.4813
C15 C 0.2127(3) 0.6001(3) 0.20263(15)
H9 H 0.1723 0.6764 0.1710
C16 C 0.3499(3) 0.5653(3) 0.21738(15)
H10 H 0.4011 0.6186 0.1958
C17 C 0.1964(3) 0.4092(3) 0.28176(16)
H11 H 0.1450 0.3564 0.3037
C19 C -0.3660(3) 0.9097(3) 0.26692(15)
C20 C 0.9129(3) 0.0697(3) 0.22522(15)
C21 C 0.9176(3) 0.0268(3) 0.16848(17)
H13 H 0.9441 -0.0633 0.1623
C22 C -0.3982(3) 0.9883(3) 0.20258(16)
C23 C 0.9964(3) -0.1533(3) 0.30310(19)
H14 H 1.0110 -0.2022 0.2711
C24 C 0.8751(3) 0.1457(3) 0.12428(16)
H15 H 0.8667 0.1521 0.0814
C25 C -0.3264(3) 0.8342(4) 0.36842(17)
H16 H -0.3171 0.8286 0.4112
C26 C -0.4570(4) 1.1308(3) 0.1887(2)
H17 H -0.4774 1.1803 0.2205
C27 C 0.9448(3) -0.0102(3) 0.28931(15)
C28 C -0.3674(3) 0.9526(3) 0.32356(17)
H18 H -0.3912 1.0429 0.3294
C29 C 1.0957(3) 0.4215(3) 0.46582(14)
H19 H 1.1602 0.3682 0.4432
C30 C 1.0024(4) -0.1482(4) 0.4103(2)
H20 H 1.0207 -0.1933 0.4520
C35 C -0.4847(4) 1.1974(4) 0.1267(3)
H22 H -0.5239 1.2928 0.1162
C38 C 1.0255(4) -0.2220(4) 0.3641(2)
H25 H 1.0607 -0.3178 0.3740
C44 C -0.4542(4) 1.1227(4) 0.0812(2)
H28 H -0.4722 1.1662 0.0392
C13A C -0.6394(3) 0.5334(3) -0.00856(13)
C6A C -0.5532(3) 0.4523(3) -0.04516(12)
C5A C -0.6105(3) 0.4020(3) -0.09427(12)
O4A O -0.7295(2) 0.4649(2) -0.11559(9)
O7A O -0.5383(2) 0.2981(2) -0.11343(10)
C9A C -0.4137(3) 0.4192(3) -0.03629(13)
H5A H -0.3557 0.3647 -0.0607
H7A H -0.7330 0.5559 -0.0143
C29A C 0.9043(3) 0.5785(3) 0.53418(14)
C12A C 1.0412(3) 0.5552(3) 0.54576(13)
C10A C 1.0847(3) 0.6123(3) 0.59673(13)
O5A O 1.2041(2) 0.5564(2) 0.62016(10)
O8A O 1.0023(2) 0.7112(2) 0.61494(10)
C14A C 1.1368(3) 0.4780(3) 0.51141(14)
H8A H 1.2286 0.4638 0.5187
H19A H 0.8398 0.6318 0.5568
O1_2 O 0.93303(18) 0.6752(2) 0.18046(10)
O2_2 O 1.61735(18) 0.29666(19) 0.31441(9)
C3_2 C 1.5611(3) 0.4111(3) 0.27779(12)
O3_2 O 1.62910(18) 0.4869(2) 0.25122(10)
C4_2 C 0.9856(3) 0.5643(3) 0.21846(13)
O6_2 O 0.91525(18) 0.4893(2) 0.24438(10)
C7_2 C 1.1355(3) 0.5221(3) 0.23461(13)
C8_2 C 1.4113(2) 0.4519(3) 0.26400(12)
C11_2 C 1.3333(3) 0.3748(3) 0.29626(15)
H6_2 H 1.3736 0.2990 0.3281
C15_2 C 1.2127(3) 0.6001(3) 0.20263(15)
H9_2 H 1.1723 0.6764 0.1710
C16_2 C 1.3499(3) 0.5653(3) 0.21738(15)
H10_2 H 1.4011 0.6186 0.1958
C17_2 C 1.1964(3) 0.4092(3) 0.28176(16)
H11_2 H 1.1450 0.3564 0.3037
Cd1_2 Cd 1.841891(19) 0.307183(19) 0.302019(9)
Cd2_2 Cd 0.710360(18) 0.669570(19) 0.192950(9)
C2_2 C 1.9516(3) -0.0064(4) 0.39448(17)
H2_2 H 1.9364 0.0432 0.4262
N1_2 N 1.8700(2) 0.2074(2) 0.21532(11)
N3_2 N 1.8473(2) 0.2519(3) 0.15332(12)
H3_2 H 1.8187 0.3375 0.1346
N5_2 N 1.9234(2) 0.0627(2) 0.33498(12)
C20_2 C 1.9129(3) 0.0697(3) 0.22522(15)
C21_2 C 1.9176(3) 0.0268(3) 0.16848(17)
H13_2 H 1.9441 -0.0633 0.1623
C23_2 C 1.9964(3) -0.1533(3) 0.30310(19)
H14_2 H 2.0110 -0.2022 0.2711
C24_2 C 1.8751(3) 0.1457(3) 0.12428(16)
H15_2 H 1.8667 0.1521 0.0814
C27_2 C 1.9448(3) -0.0102(3) 0.28931(15)
C30_2 C 2.0024(4) -0.1482(4) 0.4103(2)
H20_2 H 2.0207 -0.1933 0.4520
C38_2 C 2.0255(4) -0.2220(4) 0.3641(2)
H25_2 H 2.0607 -0.3178 0.3740
C1_2 C 0.6030(4) 0.9831(4) 0.09786(18)
H1_2 H 0.6239 0.9328 0.0664
N2_2 N 0.6738(2) 0.7709(2) 0.27781(11)
N4_2 N 0.6979(2) 0.7274(3) 0.33995(12)
H4_2 H 0.7253 0.6420 0.3590
N6_2 N 0.6310(2) 0.9146(2) 0.15792(12)
C19_2 C 0.6340(3) 0.9097(3) 0.26692(15)
C22_2 C 0.6018(3) 0.9883(3) 0.20258(16)
C25_2 C 0.6736(3) 0.8342(4) 0.36842(17)
H16_2 H 0.6829 0.8286 0.4112
C26_2 C 0.5430(4) 1.1308(3) 0.1887(2)
H17_2 H 0.5226 1.1803 0.2205
C28_2 C 0.6326(3) 0.9526(3) 0.32356(17)
H18_2 H 0.6088 1.0429 0.3294
C35_2 C 0.5153(4) 1.1974(4) 0.1267(3)
H22_2 H 0.4761 1.2928 0.1162
C44_2 C 0.5458(4) 1.1227(4) 0.0812(2)
H28_2 H 0.5278 1.1662 0.0392
O3_3 O -0.37090(18) 0.4869(2) 0.25122(10)
Cd1_3 Cd -0.158109(19) 0.307183(19) 0.302019(9)
Cd2A Cd -0.710360(18) 0.330430(19) -0.192950(9)
Cd1A Cd 1.158109(19) 0.692817(19) 0.697981(9)
Cd2_3 Cd 1.710360(18) 0.669570(19) 0.192950(9)
O5_2 O 1.7959(2) 0.4436(2) 0.37984(10)
O6_3 O 1.91525(18) 0.4893(2) 0.24438(10)
O8_2 O 1.9977(2) 0.2888(2) 0.38506(10)
O4_2 O 0.7295(2) 0.5351(2) 0.11559(9)
O7_2 O 0.5383(2) 0.7019(2) 0.11343(10)
C18 C 0.3684(3) 0.7728(3) 0.35426(16)
H12 H 0.3851 0.7141 0.3262
O9 O 0.2995(3) 0.8919(3) 0.22753(12)
O10 O 0.2250(3) 1.1013(3) 0.24827(13)
O11 O 0.3612(3) 0.8204(3) 0.56461(13)
C31 C 0.4047(4) 0.7190(4) 0.41692(17)
H21 H 0.4471 0.6248 0.4307
C32 C 0.3076(3) 0.9131(3) 0.33288(14)
C33 C 0.2778(3) 0.9657(3) 0.26465(15)
C34 C 0.3780(3) 0.8052(4) 0.45898(16)
C36 C 0.3138(3) 0.9453(4) 0.43795(16)
H23 H 0.2939 1.0033 0.4664
C37 C 0.2788(3) 1.0001(3) 0.37487(15)
H24 H 0.2363 1.0943 0.3610
O12 O 0.5110(4) 0.6351(3) 0.54293(14)
C39 C 0.4241(4) 0.7430(4) 0.52644(19)
H31 H 0.213(4) 1.125(4) 0.2096(19)
H33 H 0.380(6) 0.762(6) 0.603(3)
O13 O 0.1811(3) 0.2090(3) 0.12349(12)
O14 O 0.1917(3) 0.1363(3) 0.03388(14)
C40 C 0.1547(3) 0.2300(4) 0.06788(17)
C41 C 0.0352(3) 0.3898(4) -0.03056(15)
H26 H 0.0586 0.3163 -0.0510
C42 C 0.0393(3) 0.4794(4) 0.06198(15)
H27 H 0.0659 0.4652 0.1038
C43 C 0.0747(3) 0.3696(3) 0.03182(15)
H32 H 0.225(5) 0.052(6) 0.059(2)
C42A C -0.0393(3) 0.5206(4) -0.06198(15)
H27A H -0.0659 0.5348 -0.1038
C43A C -0.0747(3) 0.6304(3) -0.03182(15)
C40A C -0.1547(3) 0.7700(4) -0.06788(17)
O13A O -0.1811(3) 0.7910(3) -0.12349(12)
O14A O -0.1917(3) 0.8637(3) -0.03388(14)
H32A H -0.225(5) 0.948(6) -0.059(2)
C41A C -0.0352(3) 0.6102(4) 0.03056(15)
H26A H -0.0586 0.6837 0.0510
O15 O 0.2858(3) 0.8932(3) 0.10237(15)
H29 H 0.282(4) 0.901(4) 0.136(2)
H30 H 0.365(4) 0.846(4) 0.098(2)
loop_
_geom_bond_atom_site_label_1
_geom_bond_atom_site_label_2
_geom_bond_site_symmetry_1
_geom_bond_site_symmetry_2
Cd1 O2 1_555 1_555
Cd2 O1 1_555 1_555
C1 H1 1_555 1_555
C2 H2 1_555 1_555
O1 C4 1_555 1_555
O2 C3 1_555 1_555
N1 Cd1 1_555 1_555
C3 O3 1_555 1_555
O3 Cd1 1_555 1_555
O4 Cd2 1_555 1_555
N2 Cd2 1_555 1_555
O5 Cd1 1_555 1_555
C4 O6 1_555 1_555
O6 Cd2 1_555 1_555
O7 Cd2 1_555 1_555
O8 Cd1 1_555 1_555
C5 O4 1_555 1_555
N3 N1 1_555 1_555
H3 N3 1_555 1_555
C6 C5 1_555 1_555
C7 C4 1_555 1_555
N4 N2 1_555 1_555
H4 N4 1_555 1_555
C8 C3 1_555 1_555
C9 C6 1_555 1_555
H5 C9 1_555 1_555
N5 Cd1 1_555 1_555
C10 O5 1_555 1_555
N6 Cd2 1_555 1_555
C11 C8 1_555 1_555
H6 C11 1_555 1_555
C12 C10 1_555 1_555
C13 C6 1_555 1_555
H7 C13 1_555 1_555
C14 C12 1_555 1_555
H8 C14 1_555 1_555
C15 C7 1_555 1_555
H9 C15 1_555 1_555
C16 C8 1_555 1_555
H10 C16 1_555 1_555
C17 C7 1_555 1_555
H11 C17 1_555 1_555
C18 H12 1_555 1_555
C19 N2 1_555 1_555
C20 N1 1_555 1_555
O9 C33 1_555 1_555
C21 C20 1_555 1_555
H13 C21 1_555 1_555
C22 N6 1_555 1_555
C23 H14 1_555 1_555
C24 N3 1_555 1_555
H15 C24 1_555 1_555
C25 N4 1_555 1_555
H16 C25 1_555 1_555
O10 C33 1_555 1_555
C26 C22 1_555 1_555
H17 C26 1_555 1_555
C27 N5 1_555 1_555
C28 C19 1_555 1_555
H18 C28 1_555 1_555
O11 C39 1_555 1_555
C29 C12 1_555 1_555
H19 C29 1_555 1_555
C30 C2 1_555 1_555
H20 C30 1_555 1_555
C31 C18 1_555 1_555
H21 C31 1_555 1_555
C32 C18 1_555 1_555
C33 C32 1_555 1_555
C34 C31 1_555 1_555
C35 C26 1_555 1_555
H22 C35 1_555 1_555
C36 C34 1_555 1_555
H23 C36 1_555 1_555
C37 C32 1_555 1_555
H24 C37 1_555 1_555
O12 C39 1_555 1_555
C38 C23 1_555 1_555
H25 C38 1_555 1_555
C39 C34 1_555 1_555
O13 C40 1_555 1_555
O14 C40 1_555 1_555
C40 C43 1_555 1_555
C41 H26 1_555 1_555
C42 H27 1_555 1_555
C43 C41 1_555 1_555
C44 C1 1_555 1_555
H28 C44 1_555 1_555
O15 H29 1_555 1_555
H30 O15 1_555 1_555
H31 O10 1_555 1_555
H32 O14 1_555 1_555
H33 O11 1_555 1_555
C13A C9 1_555 1_555
C6A C13A 1_555 1_555
C5A C6A 1_555 1_555
O4A C5A 1_555 1_555
O7A C5A 1_555 1_555
C9A C13 1_555 1_555
H5A C9A 1_555 1_555
H7A C13A 1_555 1_555
C29A C14 1_555 1_555
C12A C29A 1_555 1_555
C10A C12A 1_555 1_555
O5A C10A 1_555 1_555
O8A C10A 1_555 1_555
C14A C29 1_555 1_555
H8A C14A 1_555 1_555
H19A C29A 1_555 1_555
C42A C41 1_555 1_555
H27A C42A 1_555 1_555
C43A C42A 1_555 1_555
C40A C43A 1_555 1_555
O13A C40A 1_555 1_555
O14A C40A 1_555 1_555
H32A O14A 1_555 1_555
C41A C42 1_555 1_555
H26A C41A 1_555 1_555
O1_2 C4_2 1_555 1_555
O2_2 C3_2 1_555 1_555
C3_2 O3_2 1_555 1_555
O3_2 Cd1_2 1_555 1_555
C4_2 O6_2 1_555 1_555
O6_2 Cd1 1_555 1_555
C7_2 C4_2 1_555 1_555
C8_2 C3_2 1_555 1_555
C11_2 C8_2 1_555 1_555
H6_2 C11_2 1_555 1_555
C15_2 C7_2 1_555 1_555
H9_2 C15_2 1_555 1_555
C16_2 C8_2 1_555 1_555
H10_2 C16_2 1_555 1_555
C17_2 C7_2 1_555 1_555
H11_2 C17_2 1_555 1_555
Cd1_2 O2_2 1_555 1_555
Cd2_2 O3 1_555 1_555
C2_2 H2_2 1_555 1_555
N1_2 Cd1_2 1_555 1_555
N3_2 N1_2 1_555 1_555
H3_2 N3_2 1_555 1_555
N5_2 Cd1_2 1_555 1_555
C20_2 N1_2 1_555 1_555
C21_2 C20_2 1_555 1_555
H13_2 C21_2 1_555 1_555
C23_2 H14_2 1_555 1_555
C24_2 N3_2 1_555 1_555
H15_2 C24_2 1_555 1_555
C27_2 N5_2 1_555 1_555
C30_2 C2_2 1_555 1_555
H20_2 C30_2 1_555 1_555
C38_2 C23_2 1_555 1_555
H25_2 C38_2 1_555 1_555
C1_2 H1_2 1_555 1_555
N2_2 Cd2_2 1_555 1_555
N4_2 N2_2 1_555 1_555
H4_2 N4_2 1_555 1_555
N6_2 Cd2_2 1_555 1_555
C19_2 N2_2 1_555 1_555
C22_2 N6_2 1_555 1_555
C25_2 N4_2 1_555 1_555
H16_2 C25_2 1_555 1_555
C26_2 C22_2 1_555 1_555
H17_2 C26_2 1_555 1_555
C28_2 C19_2 1_555 1_555
H18_2 C28_2 1_555 1_555
C35_2 C26_2 1_555 1_555
H22_2 C35_2 1_555 1_555
C44_2 C1_2 1_555 1_555
H28_2 C44_2 1_555 1_555
O3_3 Cd2 1_555 1_555
Cd1_3 O6 1_555 1_555
Cd2A O4A 1_555 1_555
Cd1A O5A 1_555 1_555
Cd2_3 O3_2 1_555 1_555
O5_2 Cd1_2 1_555 1_555
O6_3 Cd1_2 1_555 1_555
O8_2 Cd1_2 1_555 1_555
O4_2 Cd2_2 1_555 1_555
O7_2 Cd2_2 1_555 1_555
C1 N6 1_555 1_555
C2 N5 1_555 1_555
O7 C5 1_555 1_555
O8 C10 1_555 1_555
C11 C17 1_555 1_555
C15 C16 1_555 1_555
C19 C22 1_555 1_555
C20 C27 1_555 1_555
C21 C24 1_555 1_555
C23 C27 1_555 1_555
C25 C28 1_555 1_555
C30 C38 1_555 1_555
C35 C44 1_555 1_555
C36 C37 1_555 1_555
C42 C43 1_555 1_555
C6A C9A 1_555 1_555
O7A Cd2A 1_555 1_555
C12A C14A 1_555 1_555
O8A Cd1A 1_555 1_555
C43A C41A 1_555 1_555
O1_2 Cd2_2 1_555 1_555
O6_2 Cd2_2 1_555 1_555
C11_2 C17_2 1_555 1_555
C15_2 C16_2 1_555 1_555
C2_2 N5_2 1_555 1_555
C20_2 C27_2 1_555 1_555
C21_2 C24_2 1_555 1_555
C23_2 C27_2 1_555 1_555
C30_2 C38_2 1_555 1_555
C1_2 N6_2 1_555 1_555
C19_2 C22_2 1_555 1_555
C25_2 C28_2 1_555 1_555
C35_2 C44_2 1_555 1_555
O3_3 Cd1_3 1_555 1_555
Cd2_3 O6_3 1_555 1_555

#END
