
#######################################################################
#
#                 Cambridge Crystallographic Data Centre
#                                CCDC 
#
#######################################################################
#
# If this CIF has been generated from an entry in the Cambridge 
# Structural Database, then it will include bibliographic, chemical, 
# crystal, experimental, refinement or atomic coordinate data resulting 
# from the CCDC's data processing and validation procedures.
#
#######################################################################

data_PADROD01
_symmetry_cell_setting           monoclinic
_symmetry_space_group_name_H-M   'P 21/c'
_symmetry_Int_Tables_number      14
_space_group_name_Hall           '-P 2ybc'
loop_
_symmetry_equiv_pos_site_id
_symmetry_equiv_pos_as_xyz
1 x,y,z
2 -x,1/2+y,1/2-z
3 -x,-y,-z
4 x,1/2-y,1/2+z
_cell_length_a                   9.9372(11)
_cell_length_b                   5.5719(5)
_cell_length_c                   11.1973(12)
_cell_angle_alpha                90
_cell_angle_beta                 93.044(10)
_cell_angle_gamma                90
_cell_volume                     619.109
loop_
_atom_site_label
_atom_site_type_symbol
_atom_site_fract_x
_atom_site_fract_y
_atom_site_fract_z
Ag1 Ag -0.05811(3) 0.51630(6) 0.13372(3)
Ag2 Ag 0.42219(3) 1.29368(6) -0.02981(3)
O1 O 0.1657(3) 0.7263(6) 0.1873(3)
O2 O 0.1761(3) 1.2322(6) -0.0073(3)
O3 O 0.3335(3) 0.9507(6) 0.3407(3)
O4 O 0.4544(3) 0.6179(6) 0.3843(3)
O5 O 0.0429(3) 1.1464(6) 0.1435(3)
C1 C 0.2671(4) 0.5840(7) 0.2469(4)
H1 H 0.3209 0.5034 0.1868
H2 H 0.2238 0.4581 0.2941
C2 C 0.2176(4) 0.8740(8) 0.0958(4)
H3 H 0.2162 0.7827 0.0199
H4 H 0.3124 0.9161 0.1181
C3 C 0.1363(4) 1.1021(8) 0.0771(4)
C4 C 0.3603(4) 0.7334(8) 0.3298(4)
Ag1B Ag 0.05811(3) 1.48370(6) -0.13372(3)
Ag1_2 Ag -0.05811(3) 1.51630(6) 0.13372(3)
Ag1A Ag 0.05811(3) 1.01630(6) 0.36628(3)
Ag2C Ag 0.42219(3) 1.20632(6) 0.47019(3)
Ag2A Ag 0.57781(3) 0.79368(6) 0.52981(3)
Ag2C_2 Ag 0.42219(3) 0.20632(6) 0.47019(3)
O2B O -0.1761(3) 0.7678(6) 0.0073(3)
O3C O 0.3335(3) 1.5493(6) -0.1593(3)
O4A O 0.5456(3) 1.1179(6) 0.1157(3)
O4C O 0.4544(3) 0.8821(6) -0.1157(3)
O5_2 O 0.0429(3) 0.1464(6) 0.1435(3)
O5A O -0.0429(3) 0.6464(6) 0.3565(3)
loop_
_geom_bond_atom_site_label_1
_geom_bond_atom_site_label_2
_geom_bond_site_symmetry_1
_geom_bond_site_symmetry_2
Ag1 O1 1_555 1_555
Ag2 O2 1_555 1_555
O1 C1 1_555 1_555
O2 C3 1_555 1_555
O3 C4 1_555 1_555
O4 C4 1_555 1_555
O5 C3 1_555 1_555
C1 H1 1_555 1_555
H2 C1 1_555 1_555
C2 O1 1_555 1_555
H3 C2 1_555 1_555
H4 C2 1_555 1_555
C3 C2 1_555 1_555
C4 C1 1_555 1_555
Ag1B O2 1_555 1_555
Ag1_2 O5 1_555 1_555
Ag1A O5 1_555 1_555
Ag2C O3 1_555 1_555
Ag2A O4 1_555 1_555
Ag2C_2 O4 1_555 1_555
O2B Ag1 1_555 1_555
O3C Ag2 1_555 1_555
O4A Ag2 1_555 1_555
O4C Ag2 1_555 1_555
O5_2 Ag1 1_555 1_555
O5A Ag1 1_555 1_555
Ag1A O5A 1_555 1_555

#END
