
#######################################################################
#
#                 Cambridge Crystallographic Data Centre
#                                CCDC 
#
#######################################################################
#
# If this CIF has been generated from an entry in the Cambridge 
# Structural Database, then it will include bibliographic, chemical, 
# crystal, experimental, refinement or atomic coordinate data resulting 
# from the CCDC's data processing and validation procedures.
#
#######################################################################

data_PADXAV
_symmetry_cell_setting           monoclinic
_symmetry_space_group_name_H-M   'P 21/c'
_symmetry_Int_Tables_number      14
_space_group_name_Hall           '-P 2ybc'
loop_
_symmetry_equiv_pos_site_id
_symmetry_equiv_pos_as_xyz
1 x,y,z
2 -x,1/2+y,1/2-z
3 -x,-y,-z
4 x,1/2-y,1/2+z
_cell_length_a                   11.330(2)
_cell_length_b                   16.370(3)
_cell_length_c                   9.3800(19)
_cell_angle_alpha                90
_cell_angle_beta                 111.79(3)
_cell_angle_gamma                90
_cell_volume                     1615.43
loop_
_atom_site_label
_atom_site_type_symbol
_atom_site_fract_x
_atom_site_fract_y
_atom_site_fract_z
Cd1 Cd 0.0000 1.0000 0.5000
C1 C 0.28509(19) 0.94473(13) 0.7069(2)
H1 H 0.2637 0.9035 0.6334
C2 C 0.23632(18) 1.06286(13) 0.7977(2)
H2 H 0.1802 1.1057 0.7893
C3 C 0.35181(18) 1.06349(12) 0.9183(2)
H3 H 0.3718 1.1061 0.9889
C4 C 0.4380(2) 1.00130(10) 0.9351(3)
C5 C 0.40104(18) 0.94144(13) 0.8239(2)
H4 H 0.4558 0.8983 0.8286
C6 C 0.11526(18) 0.96007(14) 0.2482(2)
C7 C 0.1826(2) 0.97860(14) 0.1393(3)
H5 H 0.1233 1.0051 0.0486
H6 H 0.2513 1.0167 0.1887
C8 C 0.23630(18) 0.90400(12) 0.0905(2)
C9 C 0.1679(2) 0.86554(14) -0.0426(2)
H7 H 0.0899 0.8872 -0.1049
C10 C 0.2114(2) 0.79424(15) -0.0888(3)
H8 H 0.1621 0.7688 -0.1802
C11 C 0.3247(2) 0.76232(13) -0.0013(3)
H9 H 0.3528 0.7146 -0.0322
C12 C 0.4011(2) 0.80061(12) 0.1369(2)
C13 C 0.35589(18) 0.87232(11) 0.1837(2)
C14 C 0.4354(2) 0.90956(14) 0.3226(2)
H10 H 0.4080 0.9565 0.3570
C15 C 0.5515(2) 0.87730(18) 0.4061(3)
H11 H 0.6028 0.9029 0.4964
C16 C 0.5940(2) 0.80672(18) 0.3581(3)
H12 H 0.6732 0.7851 0.4167
C17 C 0.5215(2) 0.76976(16) 0.2279(3)
H13 H 0.5512 0.7227 0.1968
N1 N 0.20117(19) 1.00407(9) 0.6930(2)
O1 O -0.02173(16) 1.13959(11) 0.50287(16)
O2 O 0.10221(17) 1.01759(10) 0.32868(19)
O3 O 0.07404(16) 0.88968(10) 0.24901(18)
H18 H 0.008(2) 1.1812(13) 0.481(3)
H19 H -0.033(3) 1.1433(18) 0.5833(19)
Cd1_2 Cd 1.0000 1.0000 1.5000
C1B C 0.71491(19) 1.05527(13) 1.2931(2)
H1B H 0.7363 1.0965 1.3666
C2B C 0.76368(18) 0.93714(13) 1.2023(2)
H2B H 0.8198 0.8943 1.2107
C3B C 0.64819(18) 0.93651(12) 1.0817(2)
H3B H 0.6282 0.8939 1.0111
C4B C 0.5620(2) 0.99870(10) 1.0649(3)
C5B C 0.59896(18) 1.05856(13) 1.1761(2)
H4B H 0.5442 1.1017 1.1714
C6B C -0.11526(18) 1.03993(14) 0.7518(2)
C7B C -0.1826(2) 1.02140(14) 0.8607(3)
H5B H -0.1233 0.9949 0.9514
H6B H -0.2513 0.9833 0.8113
C8B C -0.23630(18) 1.09600(12) 0.9095(2)
C9B C -0.1679(2) 1.13446(14) 1.0426(2)
H7B H -0.0899 1.1128 1.1049
C10B C -0.2114(2) 1.20576(15) 1.0888(3)
H8B H -0.1621 1.2312 1.1802
C11B C -0.3247(2) 1.23768(13) 1.0013(3)
H9B H -0.3528 1.2854 1.0322
C12B C -0.4011(2) 1.19939(12) 0.8631(2)
C13B C -0.35589(18) 1.12768(11) 0.8163(2)
C14B C -0.4354(2) 1.09044(14) 0.6774(2)
H10B H -0.4080 1.0435 0.6430
C15B C -0.5515(2) 1.12270(18) 0.5939(3)
H11B H -0.6028 1.0971 0.5036
C16B C -0.5940(2) 1.19328(18) 0.6419(3)
H12B H -0.6732 1.2149 0.5833
C17B C -0.5215(2) 1.23024(16) 0.7721(3)
H13B H -0.5512 1.2773 0.8032
N1B N 0.79883(19) 0.99593(9) 1.3070(2)
N1B_2 N -0.20117(19) 0.99593(9) 0.3070(2)
O1B O 0.02173(16) 0.86041(11) 0.49713(16)
O2B O -0.10221(17) 0.98241(10) 0.67132(19)
O3B O -0.07404(16) 1.11032(10) 0.75099(18)
H18B H -0.008(2) 0.8188(13) 0.519(3)
H19B H 0.033(3) 0.8567(18) 0.4167(19)
O4 O 0.08810(17) 0.21788(10) 0.95630(18)
H16 H 0.035(2) 0.1872(14) 0.899(2)
H17 H 0.116(2) 0.2026(15) 1.0467(13)
O5 O 0.17010(18) 0.17464(11) 0.26247(19)
H14 H 0.146(3) 0.1303(9) 0.282(3)
H15 H 0.156(3) 0.2120(11) 0.313(3)
loop_
_geom_bond_atom_site_label_1
_geom_bond_atom_site_label_2
_geom_bond_site_symmetry_1
_geom_bond_site_symmetry_2
Cd1 N1 1_555 1_555
C1 H1 1_555 1_555
C2 H2 1_555 1_555
C3 C2 1_555 1_555
H3 C3 1_555 1_555
C4 C3 1_555 1_555
C5 C1 1_555 1_555
H4 C5 1_555 1_555
C6 C7 1_555 1_555
C7 H5 1_555 1_555
H6 C7 1_555 1_555
C8 C7 1_555 1_555
C9 C8 1_555 1_555
H7 C9 1_555 1_555
C10 C9 1_555 1_555
H8 C10 1_555 1_555
C11 C10 1_555 1_555
H9 C11 1_555 1_555
C12 C11 1_555 1_555
C13 C8 1_555 1_555
C14 C13 1_555 1_555
H10 C14 1_555 1_555
C15 C14 1_555 1_555
H11 C15 1_555 1_555
C16 C15 1_555 1_555
H12 C16 1_555 1_555
C17 C12 1_555 1_555
H13 C17 1_555 1_555
N1 C1 1_555 1_555
O1 Cd1 1_555 1_555
O2 Cd1 1_555 1_555
O3 C6 1_555 1_555
O4 H16 1_555 1_555
O5 H14 1_555 1_555
H15 O5 1_555 1_555
H17 O4 1_555 1_555
H18 O1 1_555 1_555
H19 O1 1_555 1_555
Cd1_2 N1B 1_555 1_555
C1B H1B 1_555 1_555
C2B H2B 1_555 1_555
C3B C2B 1_555 1_555
H3B C3B 1_555 1_555
C4B C4 1_555 1_555
C5B C1B 1_555 1_555
H4B C5B 1_555 1_555
C6B C7B 1_555 1_555
C7B H5B 1_555 1_555
H6B C7B 1_555 1_555
C8B C7B 1_555 1_555
C9B C8B 1_555 1_555
H7B C9B 1_555 1_555
C10B C9B 1_555 1_555
H8B C10B 1_555 1_555
C11B C10B 1_555 1_555
H9B C11B 1_555 1_555
C12B C11B 1_555 1_555
C13B C8B 1_555 1_555
C14B C13B 1_555 1_555
H10B C14B 1_555 1_555
C15B C14B 1_555 1_555
H11B C15B 1_555 1_555
C16B C15B 1_555 1_555
H12B C16B 1_555 1_555
C17B C12B 1_555 1_555
H13B C17B 1_555 1_555
N1B C1B 1_555 1_555
N1B_2 Cd1 1_555 1_555
O1B Cd1 1_555 1_555
O2B Cd1 1_555 1_555
O3B C6B 1_555 1_555
H18B O1B 1_555 1_555
H19B O1B 1_555 1_555
C2 N1 1_555 1_555
C4 C5 1_555 1_555
C6 O2 1_555 1_555
C12 C13 1_555 1_555
C16 C17 1_555 1_555
C2B N1B 1_555 1_555
C3B C4B 1_555 1_555
C4B C5B 1_555 1_555
C6B O2B 1_555 1_555
C12B C13B 1_555 1_555
C16B C17B 1_555 1_555

#END
