
#######################################################################
#
#                 Cambridge Crystallographic Data Centre
#                                CCDC 
#
#######################################################################
#
# If this CIF has been generated from an entry in the Cambridge 
# Structural Database, then it will include bibliographic, chemical, 
# crystal, experimental, refinement or atomic coordinate data resulting 
# from the CCDC's data processing and validation procedures.
#
#######################################################################

data_PAFDOP
_symmetry_cell_setting           monoclinic
_symmetry_space_group_name_H-M   'P 21/n'
_symmetry_Int_Tables_number      14
_space_group_name_Hall           '-P 2yn'
loop_
_symmetry_equiv_pos_site_id
_symmetry_equiv_pos_as_xyz
1 x,y,z
2 1/2-x,1/2+y,1/2-z
3 -x,-y,-z
4 1/2+x,1/2-y,1/2+z
_cell_length_a                   13.237(3)
_cell_length_b                   7.715(3)
_cell_length_c                   7.161(3)
_cell_angle_alpha                90
_cell_angle_beta                 94.02(1)
_cell_angle_gamma                90
_cell_volume                     729.507
loop_
_atom_site_label
_atom_site_type_symbol
_atom_site_fract_x
_atom_site_fract_y
_atom_site_fract_z
Cu1 Cu -0.07972(4) 0.02922(8) -0.34392(8)
O1 O -0.0023(3) -0.1463(4) -0.1891(4)
O2 O -0.1558(4) -0.3314(7) -0.7809(7)
N1 N -0.0758(3) 0.1612(5) -0.1103(5)
N2 N -0.1465(3) 0.2159(6) -0.5007(6)
N3 N -0.0953(3) -0.1353(6) -0.5497(6)
C1 C 0.0202(3) -0.0876(6) -0.0235(6)
C2 C -0.1169(4) 0.3339(7) -0.0764(8)
C3 C -0.1413(9) 0.430(1) -0.252(1)
C4 C -0.1837(9) 0.371(1) -0.411(1)
C5 C -0.1265(4) -0.2305(7) -0.6619(8)
N3B N 0.0953(3) 0.1353(6) -0.4503(6)
C1B C -0.0202(3) 0.0876(6) 0.0235(6)
Cu1B Cu 0.07972(4) -0.02922(8) -0.65608(8)
N1B N 0.0758(3) -0.1612(5) 0.1103(5)
C5B C 0.1265(4) 0.2305(7) -0.3381(8)
O1B O 0.0023(3) 0.1463(4) 0.1891(4)
Cu1B_2 Cu 0.07972(4) -0.02922(8) 0.34392(8)
C2B C 0.1169(4) -0.3339(7) 0.0764(8)
O2B O 0.1558(4) 0.3314(7) -0.2191(7)
C3B C 0.1413(9) -0.430(1) 0.252(1)
C4B C 0.1837(9) -0.371(1) 0.411(1)
N2B N 0.1465(3) -0.2159(6) 0.5007(6)
N3_2 N -0.0953(3) -0.1353(6) 0.4503(6)
N3B_2 N 0.0953(3) 0.1353(6) 0.5497(6)
loop_
_geom_bond_atom_site_label_1
_geom_bond_atom_site_label_2
_geom_bond_site_symmetry_1
_geom_bond_site_symmetry_2
Cu1 O1 1_555 1_555
O1 C1 1_555 1_555
O2 C5 1_555 1_555
N1 Cu1 1_555 1_555
N2 Cu1 1_555 1_555
N3 Cu1 1_555 1_555
C1 C1B 1_555 1_555
C2 N1 1_555 1_555
C3 C2 1_555 1_555
C4 N2 1_555 1_555
C5 N3 1_555 1_555
N3B Cu1 1_555 1_555
C1B N1 1_555 1_555
Cu1B N3 1_555 1_555
N1B C1 1_555 1_555
C5B N3B 1_555 1_555
O1B C1B 1_555 1_555
Cu1B_2 N1B 1_555 1_555
C2B N1B 1_555 1_555
O2B C5B 1_555 1_555
C3B C2B 1_555 1_555
C4B C3B 1_555 1_555
N2B Cu1B_2 1_555 1_555
N3_2 Cu1B_2 1_555 1_555
N3B_2 Cu1B_2 1_555 1_555
C3 C4 1_555 1_555
N3B Cu1B 1_555 1_555
O1B Cu1B_2 1_555 1_555
C4B N2B 1_555 1_555

#END
