
#######################################################################
#
#                 Cambridge Crystallographic Data Centre
#                                CCDC 
#
#######################################################################
#
# If this CIF has been generated from an entry in the Cambridge 
# Structural Database, then it will include bibliographic, chemical, 
# crystal, experimental, refinement or atomic coordinate data resulting 
# from the CCDC's data processing and validation procedures.
#
#######################################################################

data_PAFNUF10
_symmetry_cell_setting           monoclinic
_symmetry_space_group_name_H-M   'P 21/n'
_symmetry_Int_Tables_number      14
_space_group_name_Hall           '-P 2yn'
loop_
_symmetry_equiv_pos_site_id
_symmetry_equiv_pos_as_xyz
1 x,y,z
2 1/2-x,1/2+y,1/2-z
3 -x,-y,-z
4 1/2+x,1/2-y,1/2+z
_cell_length_a                   12.990
_cell_length_b                   18.977
_cell_length_c                   18.594
_cell_angle_alpha                90
_cell_angle_beta                 93.94
_cell_angle_gamma                90
_cell_volume                     4572.8
loop_
_atom_site_label
_atom_site_type_symbol
_atom_site_fract_x
_atom_site_fract_y
_atom_site_fract_z
Nd1 Nd -0.36390(4) 0.20231(3) -0.22107(3)
O1 O -0.2566(5) 0.2599(4) -0.2865(4)
C1 C -0.1718(7) 0.2923(6) -0.3076(6)
C2 C -0.0832(8) 0.2917(6) -0.2595(5)
C3 C 0.0052(8) 0.3261(6) -0.2814(6)
C4 C 0.0055(7) 0.3593(5) -0.3465(6)
C5 C -0.0831(8) 0.3579(6) -0.3936(6)
C6 C -0.1708(8) 0.3239(6) -0.3746(6)
C7 C -0.0839(8) 0.2523(5) -0.1882(6)
C8 C -0.1403(8) 0.2958(8) -0.1331(6)
C9 C 0.0207(9) 0.2292(6) -0.1554(7)
C10 C -0.2676(8) 0.3188(6) -0.4264(6)
C11 C -0.3446(10) 0.3763(9) -0.4117(9)
C12 C -0.2449(11) 0.3155(11) -0.5043(8)
O2 O -0.4939(5) 0.1564(4) -0.2896(4)
C13 C -0.5123(8) 0.0925(6) -0.3128(6)
C14 C -0.5872(8) 0.0500(6) -0.2800(6)
C15 C -0.6059(8) -0.0186(6) -0.3039(6)
C16 C -0.5526(9) -0.0462(6) -0.3585(6)
C17 C -0.4816(8) -0.0056(6) -0.3925(6)
C18 C -0.4627(8) 0.0634(6) -0.3709(6)
C19 C -0.6441(9) 0.0822(6) -0.2196(7)
C20 C -0.7534(10) 0.0523(9) -0.2109(9)
C21 C -0.5814(10) 0.0757(7) -0.1473(7)
C22 C -0.3939(8) 0.1116(6) -0.4123(6)
C23 C -0.4605(8) 0.1653(6) -0.4576(6)
C24 C -0.3188(8) 0.0746(7) -0.4589(6)
O3 O -0.4157(5) 0.2635(4) -0.1310(4)
C25 C -0.4736(8) 0.3159(5) -0.1047(6)
C26 C -0.4409(8) 0.3491(7) -0.0399(6)
C27 C -0.5035(8) 0.4045(6) -0.0168(6)
C28 C -0.5894(9) 0.4266(6) -0.0561(7)
C29 C -0.6210(9) 0.3919(6) -0.1196(7)
C30 C -0.5646(8) 0.3370(6) -0.1443(6)
C31 C -0.3478(8) 0.3247(6) 0.0058(6)
C32 C -0.2637(9) 0.3816(7) 0.0144(8)
C33 C -0.3769(11) 0.3008(9) 0.0792(7)
C34 C -0.5961(8) 0.2992(7) -0.2151(7)
C35 C -0.7121(10) 0.3004(9) -0.2351(8)
C36 C -0.5386(10) 0.3274(6) -0.2781(7)
O4 O -0.2961(5) 0.0985(4) -0.1855(4)
C37 C -0.2013(7) 0.0775(5) -0.1592(5)
C38 C -0.1292(8) 0.0499(6) -0.2045(6)
C39 C -0.0316(8) 0.0308(6) -0.1750(6)
C40 C -0.0047(8) 0.0387(6) -0.1033(6)
C41 C -0.0741(8) 0.0655(6) -0.0577(6)
C42 C -0.1731(8) 0.0863(6) -0.0832(6)
C43 C -0.1565(7) 0.0423(5) -0.2849(5)
C44 C -0.0937(8) 0.0961(7) -0.3270(6)
C45 C -0.1391(9) -0.0323(7) -0.3127(7)
C46 C -0.2526(9) 0.1142(7) -0.0337(6)
C47 C -0.3297(9) 0.0558(7) -0.0176(6)
C48 C -0.2038(10) 0.1432(7) 0.0357(6)
K1 K -0.3746(2) -0.0307(1) -0.2298(1)
H1 H 0.066 0.326 -0.250
H2 H 0.066 0.383 -0.360
H3 H -0.083 0.381 -0.439
H4 H -0.123 0.211 -0.197
H5 H -0.101 0.336 -0.120
H6 H -0.206 0.309 -0.154
H7 H -0.149 0.268 -0.091
H8 H 0.012 0.201 -0.114
H9 H 0.055 0.203 -0.190
H10 H 0.061 0.269 -0.141
H11 H -0.300 0.275 -0.416
H12 H -0.316 0.421 -0.423
H13 H -0.406 0.369 -0.441
H14 H -0.359 0.375 -0.363
H15 H -0.199 0.278 -0.511
H16 H -0.307 0.309 -0.533
H17 H -0.214 0.359 -0.518
H18 H -0.656 -0.046 -0.283
H19 H -0.564 -0.094 -0.373
H20 H -0.446 -0.025 -0.431
H21 H -0.652 0.131 -0.230
H22 H -0.785 0.078 -0.174
H23 H -0.794 0.057 -0.255
H24 H -0.748 0.004 -0.198
H25 H -0.576 0.028 -0.134
H26 H -0.514 0.095 -0.152
H27 H -0.615 0.102 -0.112
H28 H -0.353 0.138 -0.377
H29 H -0.417 0.199 -0.478
H30 H -0.499 0.141 -0.495
H31 H -0.506 0.188 -0.428
H32 H -0.278 0.042 -0.430
H33 H -0.356 0.050 -0.497
H34 H -0.275 0.109 -0.479
H35 H -0.485 0.427 0.028
H36 H -0.629 0.465 -0.040
H37 H -0.682 0.407 -0.147
H38 H -0.320 0.285 -0.018
H39 H -0.205 0.363 0.042
H40 H -0.244 0.396 -0.032
H41 H -0.289 0.421 0.039
H42 H -0.403 0.340 0.104
H43 H -0.428 0.265 0.074
H44 H -0.317 0.283 0.106
H45 H -0.577 0.251 -0.209
H46 H -0.734 0.347 -0.245
H47 H -0.727 0.272 -0.277
H48 H -0.748 0.282 -0.196
H49 H -0.466 0.325 -0.266
H50 H -0.555 0.299 -0.320
H51 H -0.559 0.375 -0.288
H52 H 0.017 0.012 -0.205
H53 H 0.062 0.026 -0.084
H54 H -0.054 0.070 -0.008
H55 H -0.228 0.053 -0.294
H56 H -0.023 0.085 -0.321
H57 H -0.116 0.094 -0.377
H58 H -0.105 0.142 -0.309
H59 H -0.178 -0.065 -0.287
H60 H -0.162 -0.034 -0.363
H61 H -0.068 -0.044 -0.307
H62 H -0.290 0.151 -0.058
H63 H -0.381 0.074 0.011
H64 H -0.362 0.039 -0.062
H65 H -0.294 0.018 0.007
H66 H -0.167 0.107 0.061
H67 H -0.157 0.180 0.025
H68 H -0.256 0.161 0.064
K1A K -0.1254(2) 0.4693(1) -0.2702(1)
C1A C -0.3282(7) -0.2077(6) -0.1924(6)
C2A C -0.4168(8) -0.2083(6) -0.2405(5)
C3A C -0.5052(8) -0.1739(6) -0.2186(6)
C4A C -0.5055(7) -0.1407(5) -0.1535(6)
C5A C -0.4169(8) -0.1421(6) -0.1064(6)
C6A C -0.3292(8) -0.1761(6) -0.1254(6)
H3A H -0.417 -0.119 -0.061
H1A H -0.566 -0.174 -0.250
H2A H -0.566 -0.117 -0.140
loop_
_geom_bond_atom_site_label_1
_geom_bond_atom_site_label_2
_geom_bond_site_symmetry_1
_geom_bond_site_symmetry_2
Nd1 O1 1_555 1_555
O1 C1 1_555 1_555
C1 C2 1_555 1_555
C2 C3 1_555 1_555
C3 C4 1_555 1_555
C4 C5 1_555 1_555
C5 C6 1_555 1_555
C6 C1 1_555 1_555
C7 C2 1_555 1_555
C8 C7 1_555 1_555
C9 C7 1_555 1_555
C10 C6 1_555 1_555
C11 C10 1_555 1_555
C12 C10 1_555 1_555
O2 Nd1 1_555 1_555
C13 O2 1_555 1_555
C14 C13 1_555 1_555
C15 C14 1_555 1_555
C16 C15 1_555 1_555
C17 C16 1_555 1_555
C18 C13 1_555 1_555
C19 C14 1_555 1_555
C20 C19 1_555 1_555
C21 C19 1_555 1_555
C22 C18 1_555 1_555
C23 C22 1_555 1_555
C24 C22 1_555 1_555
O3 Nd1 1_555 1_555
C25 O3 1_555 1_555
C26 C25 1_555 1_555
C27 C26 1_555 1_555
C28 C27 1_555 1_555
C29 C28 1_555 1_555
C30 C25 1_555 1_555
C31 C26 1_555 1_555
C32 C31 1_555 1_555
C33 C31 1_555 1_555
C34 C30 1_555 1_555
C35 C34 1_555 1_555
C36 C34 1_555 1_555
O4 Nd1 1_555 1_555
C37 O4 1_555 1_555
C38 C37 1_555 1_555
C39 C38 1_555 1_555
C40 C39 1_555 1_555
C41 C40 1_555 1_555
C42 C37 1_555 1_555
C43 C38 1_555 1_555
C44 C43 1_555 1_555
C45 C43 1_555 1_555
C46 C42 1_555 1_555
C47 C46 1_555 1_555
C48 C46 1_555 1_555
K1 C13 1_555 1_555
H1 C3 1_555 1_555
H2 C4 1_555 1_555
H3 C5 1_555 1_555
H4 C7 1_555 1_555
H5 C8 1_555 1_555
H6 C8 1_555 1_555
H7 C8 1_555 1_555
H8 C9 1_555 1_555
H9 C9 1_555 1_555
H10 C9 1_555 1_555
H11 C10 1_555 1_555
H12 C11 1_555 1_555
H13 C11 1_555 1_555
H14 C11 1_555 1_555
H15 C12 1_555 1_555
H16 C12 1_555 1_555
H17 C12 1_555 1_555
H18 C15 1_555 1_555
H19 C16 1_555 1_555
H20 C17 1_555 1_555
H21 C19 1_555 1_555
H22 C20 1_555 1_555
H23 C20 1_555 1_555
H24 C20 1_555 1_555
H25 C21 1_555 1_555
H26 C21 1_555 1_555
H27 C21 1_555 1_555
H28 C22 1_555 1_555
H29 C23 1_555 1_555
H30 C23 1_555 1_555
H31 C23 1_555 1_555
H32 C24 1_555 1_555
H33 C24 1_555 1_555
H34 C24 1_555 1_555
H35 C27 1_555 1_555
H36 C28 1_555 1_555
H37 C29 1_555 1_555
H38 C31 1_555 1_555
H39 C32 1_555 1_555
H40 C32 1_555 1_555
H41 C32 1_555 1_555
H42 C33 1_555 1_555
H43 C33 1_555 1_555
H44 C33 1_555 1_555
H45 C34 1_555 1_555
H46 C35 1_555 1_555
H47 C35 1_555 1_555
H48 C35 1_555 1_555
H49 C36 1_555 1_555
H50 C36 1_555 1_555
H51 C36 1_555 1_555
H52 C39 1_555 1_555
H53 C40 1_555 1_555
H54 C41 1_555 1_555
H55 C43 1_555 1_555
H56 C44 1_555 1_555
H57 C44 1_555 1_555
H58 C44 1_555 1_555
H59 C45 1_555 1_555
H60 C45 1_555 1_555
H61 C45 1_555 1_555
H62 C46 1_555 1_555
H63 C47 1_555 1_555
H64 C47 1_555 1_555
H65 C47 1_555 1_555
H66 C48 1_555 1_555
H67 C48 1_555 1_555
H68 C48 1_555 1_555
K1A C1 1_555 1_555
C1A K1 1_555 1_555
C2A K1 1_555 1_555
C3A K1 1_555 1_555
C4A K1 1_555 1_555
C5A K1 1_555 1_555
C6A K1 1_555 1_555
H3A C5A 1_555 1_555
H1A C3A 1_555 1_555
H2A C4A 1_555 1_555
C2 K1A 1_555 1_555
C3 K1A 1_555 1_555
C4 K1A 1_555 1_555
C5 K1A 1_555 1_555
C6 K1A 1_555 1_555
C14 K1 1_555 1_555
C15 K1 1_555 1_555
C16 K1 1_555 1_555
C17 C18 1_555 1_555
C17 K1 1_555 1_555
C18 K1 1_555 1_555
C29 C30 1_555 1_555
O4 K1 1_555 1_555
C41 C42 1_555 1_555
C1A C2A 1_555 1_555
C1A C6A 1_555 1_555
C2A C3A 1_555 1_555
C3A C4A 1_555 1_555
C4A C5A 1_555 1_555
C5A C6A 1_555 1_555

#END
