
#######################################################################
#
#                 Cambridge Crystallographic Data Centre
#                                CCDC 
#
#######################################################################
#
# If this CIF has been generated from an entry in the Cambridge 
# Structural Database, then it will include bibliographic, chemical, 
# crystal, experimental, refinement or atomic coordinate data resulting 
# from the CCDC's data processing and validation procedures.
#
#######################################################################

data_PAGQEU
_symmetry_cell_setting           monoclinic
_symmetry_space_group_name_H-M   'P 21/n'
_symmetry_Int_Tables_number      14
_space_group_name_Hall           '-P 2yn'
loop_
_symmetry_equiv_pos_site_id
_symmetry_equiv_pos_as_xyz
1 x,y,z
2 1/2+x,1/2-y,1/2+z
3 -x,-y,-z
4 1/2-x,1/2+y,1/2-z
_cell_length_a                   9.444(3)
_cell_length_b                   9.162(3)
_cell_length_c                   14.979(2)
_cell_angle_alpha                90
_cell_angle_beta                 94.724(5)
_cell_angle_gamma                90
_cell_volume                     1291.67
loop_
_atom_site_label
_atom_site_type_symbol
_atom_site_fract_x
_atom_site_fract_y
_atom_site_fract_z
Zn1 Zn 0.24998(3) 0.15236(3) -0.004751(19)
O1 O 0.0699(2) 0.1420(2) 0.06856(13)
O2 O -0.1320(2) 0.0166(2) 0.07486(13)
O3 O 0.3637(2) -0.0123(2) 0.07210(13)
O4 O 0.5689(2) -0.1338(2) 0.07443(13)
N1 N 0.3290(2) 0.3148(3) 0.08958(16)
N2 N 0.1639(2) 0.3078(3) -0.10158(15)
C1 C 0.2239(3) 0.3348(3) -0.17824(19)
H1 H 0.3051 0.2829 -0.1896
C2 C 0.1709(3) 0.4355(4) -0.2410(2)
H2 H 0.2150 0.4503 -0.2935
C3 C 0.0505(3) 0.5142(3) -0.22406(19)
H3 H 0.0124 0.5832 -0.2648
C4 C -0.0120(3) 0.4876(3) -0.14499(19)
H4 H -0.0925 0.5390 -0.1317
C5 C 0.0471(3) 0.3836(3) -0.08609(18)
H5 H 0.0039 0.3656 -0.0336
C6 C 0.3634(3) 0.4515(3) 0.06676(19)
H6 H 0.3579 0.4758 0.0063
C7 C 0.4063(3) 0.5572(4) 0.1286(2)
H7 H 0.4290 0.6506 0.1101
C8 C 0.4149(3) 0.5220(4) 0.2187(2)
H8 H 0.4439 0.5912 0.2618
C9 C 0.3794(3) 0.3814(4) 0.2434(2)
H9 H 0.3835 0.3550 0.3035
C10 C 0.3378(3) 0.2811(3) 0.17723(18)
H10 H 0.3150 0.1869 0.1941
C11 C 0.4799(3) -0.0420(3) 0.04234(17)
C12 C -0.0181(3) 0.0462(3) 0.04154(16)
C12B C 0.0181(3) -0.0462(3) -0.04154(16)
O1B O -0.0699(2) -0.1420(2) -0.06856(13)
O2B O 0.1320(2) -0.0166(2) -0.07486(13)
C11B C 0.5201(3) 0.0420(3) -0.04234(17)
O3B O 0.6363(2) 0.0123(2) -0.07210(13)
O4B O 0.4311(2) 0.1338(2) -0.07443(13)
Zn1B Zn -0.24998(3) -0.15236(3) 0.004751(19)
N1B N -0.3290(2) -0.3148(3) -0.08958(16)
C6B C -0.3634(3) -0.4515(3) -0.06676(19)
H6B H -0.3579 -0.4758 -0.0063
C7B C -0.4063(3) -0.5572(4) -0.1286(2)
H7B H -0.4290 -0.6506 -0.1101
C8B C -0.4149(3) -0.5220(4) -0.2187(2)
H8B H -0.4439 -0.5912 -0.2618
C9B C -0.3794(3) -0.3814(4) -0.2434(2)
H9B H -0.3835 -0.3550 -0.3035
C10B C -0.3378(3) -0.2811(3) -0.17723(18)
H10B H -0.3150 -0.1869 -0.1941
N2B N -0.1639(2) -0.3078(3) 0.10158(15)
C1B C -0.2239(3) -0.3348(3) 0.17824(19)
H1B H -0.3051 -0.2829 0.1896
C2B C -0.1709(3) -0.4355(4) 0.2410(2)
H2B H -0.2150 -0.4503 0.2935
C3B C -0.0505(3) -0.5142(3) 0.22406(19)
H3B H -0.0124 -0.5832 0.2648
C4B C 0.0120(3) -0.4876(3) 0.14499(19)
H4B H 0.0925 -0.5390 0.1317
C5B C -0.0471(3) -0.3836(3) 0.08609(18)
H5B H -0.0039 -0.3656 0.0336
Zn1B_2 Zn 0.75002(3) -0.15236(3) 0.004751(19)
O3B_2 O -0.3637(2) 0.0123(2) -0.07210(13)
O4_2 O -0.4311(2) -0.1338(2) 0.07443(13)
O5 O 0.6921(12) 0.2851(14) 0.0795(8)
loop_
_geom_bond_atom_site_label_1
_geom_bond_atom_site_label_2
_geom_bond_site_symmetry_1
_geom_bond_site_symmetry_2
Zn1 O1 1_555 1_555
O1 C12 1_555 1_555
O2 C12 1_555 1_555
O3 Zn1 1_555 1_555
O4 C11 1_555 1_555
N1 Zn1 1_555 1_555
N2 Zn1 1_555 1_555
C1 N2 1_555 1_555
H1 C1 1_555 1_555
C2 C1 1_555 1_555
H2 C2 1_555 1_555
C3 C2 1_555 1_555
H3 C3 1_555 1_555
C4 C3 1_555 1_555
H4 C4 1_555 1_555
C5 N2 1_555 1_555
H5 C5 1_555 1_555
C6 N1 1_555 1_555
H6 C6 1_555 1_555
C7 C6 1_555 1_555
H7 C7 1_555 1_555
C8 C7 1_555 1_555
H8 C8 1_555 1_555
C9 C8 1_555 1_555
H9 C9 1_555 1_555
C10 N1 1_555 1_555
H10 C10 1_555 1_555
C11 O3 1_555 1_555
C12 C12B 1_555 1_555
C12B O1B 1_555 1_555
O1B Zn1B 1_555 1_555
O2B Zn1 1_555 1_555
C11B C11 1_555 1_555
O3B C11B 1_555 1_555
O4B Zn1 1_555 1_555
Zn1B O2 1_555 1_555
N1B Zn1B 1_555 1_555
C6B N1B 1_555 1_555
H6B C6B 1_555 1_555
C7B C6B 1_555 1_555
H7B C7B 1_555 1_555
C8B C7B 1_555 1_555
H8B C8B 1_555 1_555
C9B C8B 1_555 1_555
H9B C9B 1_555 1_555
C10B N1B 1_555 1_555
H10B C10B 1_555 1_555
N2B Zn1B 1_555 1_555
C1B N2B 1_555 1_555
H1B C1B 1_555 1_555
C2B C1B 1_555 1_555
H2B C2B 1_555 1_555
C3B C2B 1_555 1_555
H3B C3B 1_555 1_555
C4B C3B 1_555 1_555
H4B C4B 1_555 1_555
C5B N2B 1_555 1_555
H5B C5B 1_555 1_555
Zn1B_2 O4 1_555 1_555
O3B_2 Zn1B 1_555 1_555
O4_2 Zn1B 1_555 1_555
C4 C5 1_555 1_555
C9 C10 1_555 1_555
C12B O2B 1_555 1_555
C11B O4B 1_555 1_555
O3B Zn1B_2 1_555 1_555
C9B C10B 1_555 1_555
C4B C5B 1_555 1_555

#END
