
#######################################################################
#
#                 Cambridge Crystallographic Data Centre
#                                CCDC 
#
#######################################################################
#
# If this CIF has been generated from an entry in the Cambridge 
# Structural Database, then it will include bibliographic, chemical, 
# crystal, experimental, refinement or atomic coordinate data resulting 
# from the CCDC's data processing and validation procedures.
#
#######################################################################

data_PAHSOI05
_symmetry_cell_setting           monoclinic
_symmetry_space_group_name_H-M   'P 21/c'
_symmetry_Int_Tables_number      14
_space_group_name_Hall           '-P 2ybc'
loop_
_symmetry_equiv_pos_site_id
_symmetry_equiv_pos_as_xyz
1 x,y,z
2 -x,1/2+y,1/2-z
3 -x,-y,-z
4 x,1/2-y,1/2+z
_cell_length_a                   11.3950(7)
_cell_length_b                   16.6424(10)
_cell_length_c                   17.5290(11)
_cell_angle_alpha                90
_cell_angle_beta                 97.527(1)
_cell_angle_gamma                90
_cell_volume                     3295.56
loop_
_atom_site_label
_atom_site_type_symbol
_atom_site_fract_x
_atom_site_fract_y
_atom_site_fract_z
Pd1 Pd 0.130926(17) 0.506050(13) 0.002459(12)
Pd2 Pd 0.368595(17) 0.507866(13) -0.004540(12)
O1 O 0.31040(18) 0.59836(12) -0.08760(13)
C1 C 0.4423(3) 0.2749(2) 0.0746(2)
C2 C 0.4159(2) 0.42128(18) 0.07057(17)
N1 N 0.3650(2) 0.41728(14) -0.08088(14)
C3 C 0.3877(2) 0.34361(17) -0.04664(18)
O2 O 0.19605(17) 0.56218(13) 0.11100(12)
C4 C 0.2186(3) 0.63818(19) -0.08267(18)
C5 C 0.3396(2) 0.42093(19) -0.15659(17)
H1 H 0.3246 0.4711 -0.1804
N2 N 0.12631(19) 0.39330(15) 0.04409(14)
C6 C 0.4157(2) 0.34589(17) 0.03430(17)
C7 C 0.0975(2) 0.33724(18) -0.01210(18)
C8 C 0.3851(3) 0.27238(19) -0.0883(2)
C9 C 0.0724(2) 0.36772(18) -0.08739(18)
C10 C 0.0412(3) 0.3159(2) -0.1495(2)
C11 C 0.4720(3) 0.2821(2) 0.1560(2)
H2 H 0.4916 0.2358 0.1857
C12 C 0.0570(3) 0.4838(2) -0.16937(18)
H3 H 0.0612 0.5396 -0.1768
C13 C 0.2886(3) 0.60296(19) 0.11715(19)
C14 C 0.0346(3) 0.2323(2) -0.1319(2)
H4 H 0.0131 0.1962 -0.1726
C15 C 0.1499(2) 0.3694(2) 0.11702(18)
H5 H 0.1689 0.4078 0.1560
C16 C 0.4429(2) 0.4258(2) 0.14868(18)
H6 H 0.4419 0.4755 0.1741
C17 C 0.3347(3) 0.3512(2) -0.2021(2)
H7 H 0.3162 0.3550 -0.2558
C18 C 0.2061(3) 0.7190(2) -0.1214(3)
H8 H 0.2414 0.7599 -0.0862
H9 H 0.1229 0.7310 -0.1361
H10 H 0.2461 0.7183 -0.1670
O3 O 0.13323(17) 0.61637(12) -0.04658(13)
C19 C 0.0188(3) 0.3512(3) -0.2229(2)
H11 H -0.0027 0.3186 -0.2662
C20 C 0.0796(2) 0.45153(18) -0.09632(17)
C21 C 0.4724(3) 0.3543(2) 0.1909(2)
H12 H 0.4927 0.3574 0.2446
C22 C 0.3564(3) 0.2789(2) -0.1686(2)
H13 H 0.3524 0.2323 -0.1992
C23 C 0.4128(3) 0.1995(2) -0.0459(2)
H14 H 0.4128 0.1503 -0.0722
C24 C 0.4394(3) 0.2015(2) 0.0323(3)
H15 H 0.4562 0.1530 0.0590
C25 C 0.3049(4) 0.6679(3) 0.1772(3)
H16 H 0.2322 0.6985 0.1758
H17 H 0.3685 0.7034 0.1668
H18 H 0.3246 0.6439 0.2276
C26 C 0.0574(3) 0.2029(2) -0.0606(3)
H19 H 0.0517 0.1472 -0.0526
C27 C 0.1466(3) 0.2883(2) 0.1365(2)
H20 H 0.1655 0.2726 0.1882
C28 C 0.0904(3) 0.25476(19) 0.0039(2)
C29 C 0.1164(3) 0.2314(2) 0.0812(2)
H21 H 0.1130 0.1769 0.0949
C30 C 0.0278(3) 0.4327(2) -0.23188(19)
H22 H 0.0139 0.4547 -0.2816
O4 O 0.37243(17) 0.59459(13) 0.07730(12)
Pd1B Pd -0.130926(17) 0.493950(13) -0.002459(12)
Pd2B Pd 0.631405(17) 0.492134(13) 0.004540(12)
loop_
_geom_bond_atom_site_label_1
_geom_bond_atom_site_label_2
_geom_bond_site_symmetry_1
_geom_bond_site_symmetry_2
Pd1 Pd2 1_555 1_555
Pd2 O1 1_555 1_555
O1 C4 1_555 1_555
C1 C6 1_555 1_555
C2 Pd2 1_555 1_555
N1 Pd2 1_555 1_555
C3 N1 1_555 1_555
O2 Pd1 1_555 1_555
C4 C18 1_555 1_555
C5 N1 1_555 1_555
H1 C5 1_555 1_555
N2 Pd1 1_555 1_555
C6 C2 1_555 1_555
C7 N2 1_555 1_555
C8 C3 1_555 1_555
C9 C7 1_555 1_555
C10 C9 1_555 1_555
C11 C1 1_555 1_555
H2 C11 1_555 1_555
C12 H3 1_555 1_555
C13 O2 1_555 1_555
C14 C10 1_555 1_555
H4 C14 1_555 1_555
C15 N2 1_555 1_555
H5 C15 1_555 1_555
C16 C2 1_555 1_555
H6 C16 1_555 1_555
C17 C5 1_555 1_555
H7 C17 1_555 1_555
C18 H8 1_555 1_555
H9 C18 1_555 1_555
H10 C18 1_555 1_555
O3 Pd1 1_555 1_555
C19 C10 1_555 1_555
H11 C19 1_555 1_555
C20 Pd1 1_555 1_555
C21 C11 1_555 1_555
H12 C21 1_555 1_555
C22 C8 1_555 1_555
H13 C22 1_555 1_555
C23 C8 1_555 1_555
H14 C23 1_555 1_555
C24 C1 1_555 1_555
H15 C24 1_555 1_555
C25 C13 1_555 1_555
H16 C25 1_555 1_555
H17 C25 1_555 1_555
H18 C25 1_555 1_555
C26 C14 1_555 1_555
H19 C26 1_555 1_555
C27 C15 1_555 1_555
H20 C27 1_555 1_555
C28 C7 1_555 1_555
C29 C27 1_555 1_555
H21 C29 1_555 1_555
C30 C12 1_555 1_555
H22 C30 1_555 1_555
O4 Pd2 1_555 1_555
Pd1B Pd1 1_555 1_555
Pd2B Pd2 1_555 1_555
C3 C6 1_555 1_555
C4 O3 1_555 1_555
C9 C20 1_555 1_555
C12 C20 1_555 1_555
C13 O4 1_555 1_555
C16 C21 1_555 1_555
C17 C22 1_555 1_555
C19 C30 1_555 1_555
C23 C24 1_555 1_555
C26 C28 1_555 1_555
C28 C29 1_555 1_555

#END
