
#######################################################################
#
#                 Cambridge Crystallographic Data Centre
#                                CCDC 
#
#######################################################################
#
# If this CIF has been generated from an entry in the Cambridge 
# Structural Database, then it will include bibliographic, chemical, 
# crystal, experimental, refinement or atomic coordinate data resulting 
# from the CCDC's data processing and validation procedures.
#
#######################################################################

data_PAHSOI02
_symmetry_cell_setting           monoclinic
_symmetry_space_group_name_H-M   'P 21/c'
_symmetry_Int_Tables_number      14
_space_group_name_Hall           '-P 2ybc'
loop_
_symmetry_equiv_pos_site_id
_symmetry_equiv_pos_as_xyz
1 x,y,z
2 -x,1/2+y,1/2-z
3 -x,-y,-z
4 x,1/2-y,1/2+z
_cell_length_a                   11.3423(14)
_cell_length_b                   16.545(2)
_cell_length_c                   17.388(2)
_cell_angle_alpha                90
_cell_angle_beta                 97.364(2)
_cell_angle_gamma                90
_cell_volume                     3236.09
loop_
_atom_site_label
_atom_site_type_symbol
_atom_site_fract_x
_atom_site_fract_y
_atom_site_fract_z
Pd1 Pd 0.36897(2) 0.506993(15) -0.002709(13)
Pd2 Pd 0.13131(2) 0.508871(15) 0.005732(14)
O1 O 0.3672(2) 0.61900(14) 0.04607(14)
O2 O 0.1892(2) 0.59974(14) 0.08954(14)
O3 O 0.3031(2) 0.56317(15) -0.11231(13)
O4 O 0.1272(2) 0.59687(15) -0.07617(15)
N1 N 0.3737(2) 0.39298(17) -0.04396(16)
N2 N 0.1368(2) 0.41786(16) 0.08262(16)
C1 C 0.3495(3) 0.3684(2) -0.1170(2)
H1 H 0.3282 0.4072 -0.1567
C2 C 0.3548(3) 0.2869(2) -0.1366(2)
H2 H 0.3376 0.2709 -0.1893
C3 C 0.3846(3) 0.2295(2) -0.0805(2)
H3 H 0.3884 0.1741 -0.0944
C4 C 0.4094(3) 0.2530(2) -0.0026(2)
C5 C 0.4437(3) 0.2019(2) 0.0622(2)
H4 H 0.4505 0.1454 0.0541
C6 C 0.4670(3) 0.2316(2) 0.1352(2)
H5 H 0.4885 0.1951 0.1768
C7 C 0.4605(3) 0.3167(2) 0.1520(2)
C8 C 0.4832(3) 0.3530(2) 0.2264(2)
H6 H 0.5057 0.3202 0.2707
C9 C 0.4731(3) 0.4341(2) 0.2346(2)
H7 H 0.4865 0.4567 0.2851
C10 C 0.4435(3) 0.4860(2) 0.1706(2)
H8 H 0.4393 0.5428 0.1780
C11 C 0.4209(3) 0.4533(2) 0.09777(19)
C12 C 0.4284(3) 0.3678(2) 0.0888(2)
C13 C 0.4037(3) 0.3371(2) 0.01347(19)
C14 C 0.1610(3) 0.4215(2) 0.15919(19)
H9 H 0.1740 0.4728 0.1834
C15 C 0.1679(3) 0.3518(2) 0.2053(2)
H10 H 0.1879 0.3559 0.2599
C16 C 0.1456(3) 0.2775(2) 0.1709(2)
H11 H 0.1504 0.2300 0.2019
C17 C 0.1156(3) 0.2719(2) 0.0900(2)
C18 C 0.0876(3) 0.1984(2) 0.0482(2)
H12 H 0.0882 0.1484 0.0752
C19 C 0.0595(4) 0.2001(2) -0.0320(2)
H13 H 0.0415 0.1509 -0.0591
C20 C 0.0569(3) 0.2734(2) -0.0745(2)
C21 C 0.0283(3) 0.2811(3) -0.1563(2)
H14 H 0.0089 0.2341 -0.1867
C22 C 0.0280(3) 0.3539(2) -0.1916(2)
H15 H 0.0079 0.3570 -0.2463
C23 C 0.0572(3) 0.4260(2) -0.1487(2)
H16 H 0.0575 0.4766 -0.1745
C24 C 0.0845(3) 0.4219(2) -0.07032(19)
C25 C 0.0851(3) 0.3457(2) -0.03335(19)
C26 C 0.1138(3) 0.3429(2) 0.04842(19)
C27 C 0.2821(3) 0.6408(2) 0.0831(2)
C28 C 0.2949(4) 0.7214(2) 0.1221(3)
H17 H 0.3311 0.7144 0.1760
H18 H 0.2163 0.7463 0.1212
H19 H 0.3456 0.7562 0.0947
C29 C 0.2119(3) 0.6048(2) -0.1170(2)
C30 C 0.1950(4) 0.6712(3) -0.1765(3)
H20 H 0.2711 0.6985 -0.1792
H21 H 0.1370 0.7104 -0.1617
H22 H 0.1659 0.6482 -0.2273
Pd1B Pd 0.63103(2) 0.493007(15) 0.002709(13)
Pd2B Pd -0.13131(2) 0.491129(15) -0.005732(14)
loop_
_geom_bond_atom_site_label_1
_geom_bond_atom_site_label_2
_geom_bond_site_symmetry_1
_geom_bond_site_symmetry_2
Pd1 Pd2 1_555 1_555
Pd2 O2 1_555 1_555
O1 Pd1 1_555 1_555
O2 C27 1_555 1_555
O3 Pd1 1_555 1_555
O4 Pd2 1_555 1_555
N1 Pd1 1_555 1_555
N2 Pd2 1_555 1_555
C1 N1 1_555 1_555
H1 C1 1_555 1_555
C2 C1 1_555 1_555
H2 C2 1_555 1_555
C3 C2 1_555 1_555
H3 C3 1_555 1_555
C4 C3 1_555 1_555
C5 C4 1_555 1_555
H4 C5 1_555 1_555
C6 C5 1_555 1_555
H5 C6 1_555 1_555
C7 C6 1_555 1_555
C8 C7 1_555 1_555
H6 C8 1_555 1_555
C9 C8 1_555 1_555
H7 C9 1_555 1_555
C10 C9 1_555 1_555
H8 C10 1_555 1_555
C11 Pd1 1_555 1_555
C12 C7 1_555 1_555
C13 N1 1_555 1_555
C14 N2 1_555 1_555
H9 C14 1_555 1_555
C15 C14 1_555 1_555
H10 C15 1_555 1_555
C16 C15 1_555 1_555
H11 C16 1_555 1_555
C17 C16 1_555 1_555
C18 C17 1_555 1_555
H12 C18 1_555 1_555
C19 C18 1_555 1_555
H13 C19 1_555 1_555
C20 C19 1_555 1_555
C21 C20 1_555 1_555
H14 C21 1_555 1_555
C22 C21 1_555 1_555
H15 C22 1_555 1_555
C23 C22 1_555 1_555
H16 C23 1_555 1_555
C24 Pd2 1_555 1_555
C25 C20 1_555 1_555
C26 N2 1_555 1_555
C27 O1 1_555 1_555
C28 C27 1_555 1_555
H17 C28 1_555 1_555
H18 C28 1_555 1_555
H19 C28 1_555 1_555
C29 O3 1_555 1_555
C30 C29 1_555 1_555
H20 C30 1_555 1_555
H21 C30 1_555 1_555
H22 C30 1_555 1_555
Pd1B Pd1 1_555 1_555
Pd2B Pd2 1_555 1_555
O4 C29 1_555 1_555
C4 C13 1_555 1_555
C10 C11 1_555 1_555
C11 C12 1_555 1_555
C12 C13 1_555 1_555
C17 C26 1_555 1_555
C23 C24 1_555 1_555
C24 C25 1_555 1_555
C25 C26 1_555 1_555

#END
