
#######################################################################
#
#                 Cambridge Crystallographic Data Centre
#                                CCDC 
#
#######################################################################
#
# If this CIF has been generated from an entry in the Cambridge 
# Structural Database, then it will include bibliographic, chemical, 
# crystal, experimental, refinement or atomic coordinate data resulting 
# from the CCDC's data processing and validation procedures.
#
#######################################################################

data_PAHTOI
_symmetry_cell_setting           monoclinic
_symmetry_space_group_name_H-M   'P 21/n'
_symmetry_Int_Tables_number      14
_space_group_name_Hall           '-P 2yn'
loop_
_symmetry_equiv_pos_site_id
_symmetry_equiv_pos_as_xyz
1 x,y,z
2 1/2+x,1/2-y,1/2+z
3 -x,-y,-z
4 1/2-x,1/2+y,1/2-z
_cell_length_a                   7.8752(6)
_cell_length_b                   4.7971(2)
_cell_length_c                   14.0735(6)
_cell_angle_alpha                90
_cell_angle_beta                 95.835(7)
_cell_angle_gamma                90
_cell_volume                     528.916
loop_
_atom_site_label
_atom_site_type_symbol
_atom_site_fract_x
_atom_site_fract_y
_atom_site_fract_z
Zn1 Zn 0.59286(5) 0.02674(8) 0.69456(3)
Zn2 Zn 0.29578(5) 0.02375(8) 0.86606(3)
P1 P 0.49638(11) -0.52273(17) 0.80332(6)
O1 O 0.4934(3) -0.2032(5) 0.80199(15)
O2 O 0.3795(3) -0.6567(5) 0.72028(16)
O3 O 0.6741(3) -0.6401(5) 0.78817(15)
O4 O 0.4363(3) -0.6357(5) 0.89588(16)
O5 O 0.6375(3) 0.2265(5) 0.56664(16)
O6 O 0.5693(3) 0.2002(5) 0.40820(16)
C1 C 0.5599(4) 0.1228(7) 0.4932(2)
O7 O 0.2942(3) -0.1580(6) 0.99234(17)
H1 H 0.377(6) -0.254(10) 1.022(3)
H2 H 0.278(8) -0.025(10) 1.030(5)
C1B C 0.4401(4) -0.1228(7) 0.5068(2)
O5B O 0.3625(3) -0.2265(5) 0.43336(16)
O6B O 0.4307(3) -0.2002(5) 0.59180(16)
P1_2 P 0.49638(11) 0.47727(17) 0.80332(6)
O1_2 O 0.4934(3) 0.7968(5) 0.80199(15)
O2_2 O 0.3795(3) 0.3433(5) 0.72028(16)
O3_2 O 0.6741(3) 0.3599(5) 0.78817(15)
O4_2 O 0.4363(3) 0.3643(5) 0.89588(16)
Zn1_2 Zn 0.59286(5) 1.02674(8) 0.69456(3)
Zn2_2 Zn 0.29578(5) 1.02375(8) 0.86606(3)
O7_2 O 0.2942(3) 0.8420(6) 0.99234(17)
H1_2 H 0.377(6) 0.746(10) 1.022(3)
H2_2 H 0.278(8) 0.975(10) 1.030(5)
O3C O 0.8259(3) -0.1401(5) 0.71183(15)
O2C O 0.1205(3) -0.1567(5) 0.77972(16)
O6A O 0.0693(3) 0.2998(5) 0.90820(16)
Zn1_3 Zn 0.59286(5) -0.97326(8) 0.69456(3)
Zn2C Zn 0.20422(5) -0.47625(8) 0.63394(3)
Zn1C Zn 0.90714(5) -0.47326(8) 0.80544(3)
Zn2_3 Zn 0.29578(5) -0.97625(8) 0.86606(3)
Zn1B Zn 0.40714(5) -0.02674(8) 0.30544(3)
Zn2A Zn 0.79578(5) 0.47625(8) 0.36606(3)
Zn2C_2 Zn 0.20422(5) 0.52375(8) 0.63394(3)
Zn1C_2 Zn 0.90714(5) 0.52674(8) 0.80544(3)
O2_3 O 0.3795(3) 1.3433(5) 0.72028(16)
O3_3 O 0.6741(3) 1.3599(5) 0.78817(15)
O3C_2 O 0.8259(3) 0.8599(5) 0.71183(15)
O5_2 O 0.6375(3) 1.2265(5) 0.56664(16)
O6B_2 O 0.4307(3) 0.7998(5) 0.59180(16)
O2C_2 O 0.1205(3) 0.8433(5) 0.77972(16)
O4_3 O 0.4363(3) 1.3643(5) 0.89588(16)
O6A_2 O 0.0693(3) 1.2998(5) 0.90820(16)
loop_
_geom_bond_atom_site_label_1
_geom_bond_atom_site_label_2
_geom_bond_site_symmetry_1
_geom_bond_site_symmetry_2
Zn1 O1 1_555 1_555
Zn2 O1 1_555 1_555
P1 O1 1_555 1_555
O2 P1 1_555 1_555
O3 P1 1_555 1_555
O4 P1 1_555 1_555
O5 Zn1 1_555 1_555
O6 C1 1_555 1_555
C1 O5 1_555 1_555
O7 Zn2 1_555 1_555
H1 O7 1_555 1_555
H2 O7 1_555 1_555
C1B C1 1_555 1_555
O5B C1B 1_555 1_555
O6B Zn1 1_555 1_555
P1_2 O1_2 1_555 1_555
O1_2 Zn1_2 1_555 1_555
O2_2 Zn1 1_555 1_555
O3_2 Zn1 1_555 1_555
O4_2 Zn2 1_555 1_555
Zn1_2 O2_3 1_555 1_555
Zn2_2 O1_2 1_555 1_555
O7_2 Zn2_2 1_555 1_555
H1_2 O7_2 1_555 1_555
H2_2 O7_2 1_555 1_555
O3C Zn1 1_555 1_555
O2C Zn2 1_555 1_555
O6A Zn2 1_555 1_555
Zn1_3 O2 1_555 1_555
Zn2C O2 1_555 1_555
Zn1C O3 1_555 1_555
Zn2_3 O4 1_555 1_555
Zn1B O6 1_555 1_555
Zn2A O6 1_555 1_555
Zn2C_2 O2_2 1_555 1_555
Zn1C_2 O3_2 1_555 1_555
O3_3 Zn1_2 1_555 1_555
O3C_2 Zn1_2 1_555 1_555
O5_2 Zn1_2 1_555 1_555
O6B_2 Zn1_2 1_555 1_555
O2C_2 Zn2_2 1_555 1_555
O4_3 Zn2_2 1_555 1_555
O6A_2 Zn2_2 1_555 1_555
O3 Zn1_3 1_555 1_555
C1B O6B 1_555 1_555
O5B Zn1B 1_555 1_555
O6B Zn2C 1_555 1_555
P1_2 O2_2 1_555 1_555
P1_2 O3_2 1_555 1_555
P1_2 O4_2 1_555 1_555
O3C Zn1C 1_555 1_555
Zn2C_2 O6B_2 1_555 1_555
Zn1C_2 O3C_2 1_555 1_555

#END
