
#######################################################################
#
#                 Cambridge Crystallographic Data Centre
#                                CCDC 
#
#######################################################################
#
# If this CIF has been generated from an entry in the Cambridge 
# Structural Database, then it will include bibliographic, chemical, 
# crystal, experimental, refinement or atomic coordinate data resulting 
# from the CCDC's data processing and validation procedures.
#
#######################################################################

data_PAHVOK01
_symmetry_cell_setting           triclinic
_symmetry_space_group_name_H-M   'P -1'
_symmetry_Int_Tables_number      2
_space_group_name_Hall           '-P 1'
loop_
_symmetry_equiv_pos_site_id
_symmetry_equiv_pos_as_xyz
1 x,y,z
2 -x,-y,-z
_cell_length_a                   8.739(7)
_cell_length_b                   7.735(2)
_cell_length_c                   6.808(3)
_cell_angle_alpha                91.12(2)
_cell_angle_beta                 92.12(4)
_cell_angle_gamma                92.02(4)
_cell_volume                     459.494
loop_
_atom_site_label
_atom_site_type_symbol
_atom_site_fract_x
_atom_site_fract_y
_atom_site_fract_z
Ag1 Ag 0.01310(5) 1.03801(6) 0.27493(7)
C1 C -0.1533(6) 0.6940(7) 0.1072(8)
O1 O -0.1250(5) 0.8436(5) 0.0496(6)
O2 O -0.1345(5) 0.6343(6) 0.2716(6)
C2 C -0.2280(7) 0.5711(8) -0.0505(9)
F1 F -0.3734(5) 0.6016(8) -0.0791(9)
F2 F -0.1693(6) 0.5864(7) -0.2244(6)
F3 F -0.2188(9) 0.4086(6) -0.0092(8)
N1 N 0.2313(5) 0.8954(6) 0.3378(7)
C3 C 0.2411(6) 0.7800(7) 0.4790(8)
N2 N 0.1033(6) 0.7393(7) 0.5717(8)
C4 C 0.3779(7) 0.7055(8) 0.5348(9)
C5 C 0.5067(8) 0.7507(9) 0.4367(10)
C6 C 0.4990(8) 0.8667(9) 0.2866(10)
C7 C 0.3602(7) 0.9355(8) 0.2423(9)
H1 H 0.111(7) 0.669(8) 0.628(9)
H2 H 0.022(10) 0.692(11) 0.450(13)
H3 H 0.376(7) 0.618(9) 0.631(10)
H4 H 0.591(7) 0.705(8) 0.470(9)
H5 H 0.589(8) 0.898(9) 0.223(10)
H6 H 0.348(7) 1.023(8) 0.149(9)
Ag1A Ag -0.01310(5) 0.96199(6) -0.27493(7)
Ag1A_2 Ag -0.01310(5) 0.96199(6) 0.72507(7)
O1A O 0.1250(5) 1.1564(5) -0.0496(6)
N2A N -0.1033(6) 1.2607(7) 0.4283(8)
H1A H -0.111(7) 1.331(8) 0.372(9)
H2A H -0.022(10) 1.308(11) 0.550(13)
loop_
_geom_bond_atom_site_label_1
_geom_bond_atom_site_label_2
_geom_bond_site_symmetry_1
_geom_bond_site_symmetry_2
Ag1 O1 1_555 1_555
C1 O1 1_555 1_555
O1 Ag1A 1_555 1_555
O2 C1 1_555 1_555
C2 C1 1_555 1_555
F1 C2 1_555 1_555
F2 C2 1_555 1_555
F3 C2 1_555 1_555
N1 Ag1 1_555 1_555
C3 N1 1_555 1_555
N2 C3 1_555 1_555
C4 C3 1_555 1_555
C5 C4 1_555 1_555
C6 C5 1_555 1_555
C7 N1 1_555 1_555
H1 N2 1_555 1_555
H2 N2 1_555 1_555
H3 C4 1_555 1_555
H4 C5 1_555 1_555
H5 C6 1_555 1_555
H6 C7 1_555 1_555
Ag1A O1A 1_555 1_555
Ag1A_2 N2 1_555 1_555
O1A Ag1 1_555 1_555
N2A Ag1 1_555 1_555
H1A N2A 1_555 1_555
H2A N2A 1_555 1_555
C6 C7 1_555 1_555

#END
