
#######################################################################
#
#                 Cambridge Crystallographic Data Centre
#                                CCDC 
#
#######################################################################
#
# If this CIF has been generated from an entry in the Cambridge 
# Structural Database, then it will include bibliographic, chemical, 
# crystal, experimental, refinement or atomic coordinate data resulting 
# from the CCDC's data processing and validation procedures.
#
#######################################################################

data_PAHWAX
_symmetry_cell_setting           monoclinic
_symmetry_space_group_name_H-M   'C 2/c'
_symmetry_Int_Tables_number      15
_space_group_name_Hall           '-C 2yn'
loop_
_symmetry_equiv_pos_site_id
_symmetry_equiv_pos_as_xyz
1 x,y,z
2 1/2+x,1/2+y,z
3 x,-y,1/2+z
4 1/2+x,1/2-y,1/2+z
5 -x,-y,-z
6 1/2-x,1/2-y,-z
7 -x,y,1/2-z
8 1/2-x,1/2+y,1/2-z
_cell_length_a                   18.205(4)
_cell_length_b                   7.2185(16)
_cell_length_c                   14.766(3)
_cell_angle_alpha                90
_cell_angle_beta                 102.730(4)
_cell_angle_gamma                90
_cell_volume                     1892.74
loop_
_atom_site_label
_atom_site_type_symbol
_atom_site_fract_x
_atom_site_fract_y
_atom_site_fract_z
Cu1 Cu 0.0000 0.38666(6) 0.2500
N1 N 0.12330(14) 0.3819(3) 0.20479(16)
N2 N 0.25147(17) 0.3724(4) 0.12576(18)
N3 N -0.03098(15) 0.5876(3) 0.15554(18)
N4 N -0.04521(16) 0.8871(3) 0.07737(16)
N5 N -0.03213(15) 1.1869(4) 0.15542(17)
C1 C 0.19513(17) 0.3825(4) 0.25919(19)
C2 C 0.20550(18) 0.3885(4) 0.35657(19)
H1 H 0.1641 0.3892 0.3839
C3 C 0.27632(19) 0.3932(5) 0.4102(2)
H2 H 0.2831 0.3985 0.4745
C4 C 0.3390(2) 0.3902(5) 0.3707(2)
H3 H 0.3870 0.3934 0.4088
C5 C 0.3307(2) 0.3826(5) 0.2774(2)
H4 H 0.3730 0.3797 0.2517
C6 C 0.25879(18) 0.3790(4) 0.2196(2)
C7 C 0.1829(2) 0.3693(5) 0.0764(2)
H5 H 0.1757 0.3625 0.0122
C8 C 0.11951(19) 0.3756(4) 0.1152(2)
H6 H 0.0722 0.3754 0.0753
C9 C -0.03709(16) 0.7317(4) 0.12296(19)
C10 C -0.03790(16) 1.0439(4) 0.12180(19)
N1F N -0.12330(14) 0.3819(3) 0.29521(16)
N2F N -0.25147(17) 0.3724(4) 0.37424(18)
C1F C -0.19513(17) 0.3825(4) 0.24081(19)
C2F C -0.20550(18) 0.3885(4) 0.14343(19)
H1F H -0.1641 0.3892 0.1161
C3F C -0.27632(19) 0.3932(5) 0.0898(2)
H2F H -0.2831 0.3985 0.0255
C4F C -0.3390(2) 0.3902(5) 0.1293(2)
H3F H -0.3870 0.3934 0.0912
C5F C -0.3307(2) 0.3826(5) 0.2226(2)
H4F H -0.3730 0.3797 0.2483
C6F C -0.25879(18) 0.3790(4) 0.2804(2)
C7F C -0.1829(2) 0.3693(5) 0.4236(2)
H5F H -0.1757 0.3625 0.4878
C8F C -0.11951(19) 0.3756(4) 0.3848(2)
H6F H -0.0722 0.3754 0.4247
N3F N 0.03098(15) 0.5876(3) 0.34446(18)
N4F N 0.04521(16) 0.8871(3) 0.42263(16)
N5F N 0.03213(15) 1.1869(4) 0.34458(17)
C9F C 0.03709(16) 0.7317(4) 0.37704(19)
C10F C 0.03790(16) 1.0439(4) 0.37820(19)
N5_2 N -0.03213(15) 0.1869(4) 0.15542(17)
N5F_2 N 0.03213(15) 0.1869(4) 0.34458(17)
Cu1_2 Cu 0.0000 1.38666(6) 0.2500
loop_
_geom_bond_atom_site_label_1
_geom_bond_atom_site_label_2
_geom_bond_site_symmetry_1
_geom_bond_site_symmetry_2
Cu1 N1 1_555 1_555
N1 C1 1_555 1_555
N2 C6 1_555 1_555
N3 Cu1 1_555 1_555
N4 C9 1_555 1_555
N5 C10 1_555 1_555
C1 C2 1_555 1_555
C2 H1 1_555 1_555
C3 C2 1_555 1_555
H2 C3 1_555 1_555
C4 C3 1_555 1_555
H3 C4 1_555 1_555
C5 C4 1_555 1_555
H4 C5 1_555 1_555
C6 C1 1_555 1_555
C7 N2 1_555 1_555
H5 C7 1_555 1_555
C8 N1 1_555 1_555
H6 C8 1_555 1_555
C9 N3 1_555 1_555
C10 N4 1_555 1_555
N1F Cu1 1_555 1_555
N2F C6F 1_555 1_555
C1F N1F 1_555 1_555
C2F C1F 1_555 1_555
H1F C2F 1_555 1_555
C3F C2F 1_555 1_555
H2F C3F 1_555 1_555
C4F C3F 1_555 1_555
H3F C4F 1_555 1_555
C5F C4F 1_555 1_555
H4F C5F 1_555 1_555
C6F C1F 1_555 1_555
C7F N2F 1_555 1_555
H5F C7F 1_555 1_555
C8F N1F 1_555 1_555
H6F C8F 1_555 1_555
N3F Cu1 1_555 1_555
N4F C9F 1_555 1_555
N5F C10F 1_555 1_555
C9F N3F 1_555 1_555
C10F N4F 1_555 1_555
N5_2 Cu1 1_555 1_555
N5F_2 Cu1 1_555 1_555
Cu1_2 N5 1_555 1_555
C5 C6 1_555 1_555
C7 C8 1_555 1_555
C5F C6F 1_555 1_555
C7F C8F 1_555 1_555
N5F Cu1_2 1_555 1_555

#END
