
#######################################################################
#
#                 Cambridge Crystallographic Data Centre
#                                CCDC 
#
#######################################################################
#
# If this CIF has been generated from an entry in the Cambridge 
# Structural Database, then it will include bibliographic, chemical, 
# crystal, experimental, refinement or atomic coordinate data resulting 
# from the CCDC's data processing and validation procedures.
#
#######################################################################

data_PAHXOM
_symmetry_cell_setting           monoclinic
_symmetry_space_group_name_H-M   'P 21/c'
_symmetry_Int_Tables_number      14
_space_group_name_Hall           '-P 2ybc'
loop_
_symmetry_equiv_pos_site_id
_symmetry_equiv_pos_as_xyz
1 x,y,z
2 x,1/2-y,1/2+z
3 -x,-y,-z
4 -x,1/2+y,1/2-z
_cell_length_a                   15.5951(18)
_cell_length_b                   6.6087(7)
_cell_length_c                   7.3635(8)
_cell_angle_alpha                90
_cell_angle_beta                 96.979(2)
_cell_angle_gamma                90
_cell_volume                     753.284
loop_
_atom_site_label
_atom_site_type_symbol
_atom_site_fract_x
_atom_site_fract_y
_atom_site_fract_z
Co1 Co 0.5000 0.0000 0.5000
O1 O 0.40647(9) 0.0898(2) 0.2955(2)
O2 O 0.43076(9) 0.4085(2) 0.2205(2)
O3 O 0.43785(10) -0.2806(2) 0.4963(2)
N1 N -0.03135(14) 0.2769(4) -0.2059(4)
C1 C 0.38325(12) 0.2521(3) 0.2183(3)
C2 C 0.29348(12) 0.2601(3) 0.1205(3)
C3 C 0.25493(14) 0.4445(4) 0.0693(4)
H1 H 0.2860 0.5639 0.0914
C4 C 0.17131(15) 0.4512(4) -0.0136(4)
H2 H 0.1452 0.5749 -0.0450
C5 C 0.12597(13) 0.2722(4) -0.0504(3)
C6 C 0.16418(14) 0.0871(4) -0.0033(3)
H3 H 0.1339 -0.0326 -0.0297
C7 C 0.24769(14) 0.0829(4) 0.0833(3)
H4 H 0.2735 -0.0406 0.1170
C8 C 0.03780(15) 0.2767(4) -0.1383(3)
H5 H 0.4328(19) -0.364(4) 0.402(3)
H6 H 0.4553(17) -0.353(4) 0.594(3)
O1B O 0.59353(9) -0.0898(2) 0.7045(2)
O2B O 0.56924(9) -0.4085(2) 0.7795(2)
N1B N 1.03135(14) -0.2769(4) 1.2059(4)
C1B C 0.61675(12) -0.2521(3) 0.7817(3)
C2B C 0.70652(12) -0.2601(3) 0.8795(3)
C3B C 0.74507(14) -0.4445(4) 0.9307(4)
H1B H 0.7140 -0.5639 0.9086
C4B C 0.82869(15) -0.4512(4) 1.0136(4)
H2B H 0.8548 -0.5749 1.0450
C5B C 0.87403(13) -0.2722(4) 1.0504(3)
C6B C 0.83582(14) -0.0871(4) 1.0033(3)
H3B H 0.8661 0.0326 1.0297
C7B C 0.75231(14) -0.0829(4) 0.9167(3)
H4B H 0.7265 0.0406 0.8830
C8B C 0.96220(15) -0.2767(4) 1.1383(3)
O3B O 0.56215(10) 0.2806(2) 0.5037(2)
H5B H 0.5672(19) 0.364(4) 0.598(3)
H6B H 0.5447(17) 0.353(4) 0.406(3)
O2A O 0.43076(9) 0.0915(2) 0.7205(2)
O2C O 0.56924(9) -0.0915(2) 0.2795(2)
Co1A Co 0.5000 0.5000 0.0000
Co1A_2 Co 0.5000 -0.5000 1.0000
loop_
_geom_bond_atom_site_label_1
_geom_bond_atom_site_label_2
_geom_bond_site_symmetry_1
_geom_bond_site_symmetry_2
Co1 O1 1_555 1_555
O1 C1 1_555 1_555
O2 C1 1_555 1_555
O3 Co1 1_555 1_555
N1 C8 1_555 1_555
C1 C2 1_555 1_555
C2 C3 1_555 1_555
C3 H1 1_555 1_555
C4 C3 1_555 1_555
H2 C4 1_555 1_555
C5 C4 1_555 1_555
C6 C5 1_555 1_555
H3 C6 1_555 1_555
C7 C2 1_555 1_555
H4 C7 1_555 1_555
C8 C5 1_555 1_555
H5 O3 1_555 1_555
H6 O3 1_555 1_555
O1B Co1 1_555 1_555
O2B C1B 1_555 1_555
N1B C8B 1_555 1_555
C1B O1B 1_555 1_555
C2B C1B 1_555 1_555
C3B C2B 1_555 1_555
H1B C3B 1_555 1_555
C4B C3B 1_555 1_555
H2B C4B 1_555 1_555
C5B C4B 1_555 1_555
C6B C5B 1_555 1_555
H3B C6B 1_555 1_555
C7B C2B 1_555 1_555
H4B C7B 1_555 1_555
C8B C5B 1_555 1_555
O3B Co1 1_555 1_555
H5B O3B 1_555 1_555
H6B O3B 1_555 1_555
O2A Co1 1_555 1_555
O2C Co1 1_555 1_555
Co1A O2 1_555 1_555
Co1A_2 O2B 1_555 1_555
C6 C7 1_555 1_555
C6B C7B 1_555 1_555

#END
