
#######################################################################
#
#                 Cambridge Crystallographic Data Centre
#                                CCDC 
#
#######################################################################
#
# If this CIF has been generated from an entry in the Cambridge 
# Structural Database, then it will include bibliographic, chemical, 
# crystal, experimental, refinement or atomic coordinate data resulting 
# from the CCDC's data processing and validation procedures.
#
#######################################################################

data_PAJFIP
_symmetry_cell_setting           orthorhombic
_symmetry_space_group_name_H-M   'P 21 21 21'
_symmetry_Int_Tables_number      19
_space_group_name_Hall           'P 2ac 2ab'
loop_
_symmetry_equiv_pos_site_id
_symmetry_equiv_pos_as_xyz
1 x,y,z
2 1/2+x,1/2-y,-z
3 -x,1/2+y,1/2-z
4 1/2-x,-y,1/2+z
_cell_length_a                   5.276(1)
_cell_length_b                   14.667(2)
_cell_length_c                   16.764(2)
_cell_angle_alpha                90
_cell_angle_beta                 90
_cell_angle_gamma                90
_cell_volume                     1297.25
loop_
_atom_site_label
_atom_site_type_symbol
_atom_site_fract_x
_atom_site_fract_y
_atom_site_fract_z
O1 O 0.3621(4) 0.8875(1) 0.3108(1)
O2 O 0.7011(4) 0.9294(1) 0.2400(1)
O3 O 0.6549(5) 0.8809(1) -0.0114(1)
O4 O -0.3798(4) 0.8966(1) 0.43172(4)
O5 O -0.7109(4) 0.9437(1) 0.5035(1)
O6 O -0.6580(5) 0.8956(1) 0.7555(1)
N1 N 0.4138(5) 0.9070(2) 0.0988(1)
N2 N -0.4232(4) 0.9255(2) 0.6444(1)
C1 C 0.4871(7) 0.8994(2) 0.2450(2)
C2 C 0.3378(6) 0.8640(2) 0.1733(2)
C3 C 0.4061(8) 0.7632(2) 0.1585(2)
C4 C 0.6059(8) 0.7657(2) 0.0936(2)
C5 C 0.5642(6) 0.8563(2) 0.0526(2)
C6 C -0.4973(6) 0.9129(2) 0.4980(1)
C7 C -0.3452(6) 0.8826(2) 0.5702(2)
C8 C -0.4036(7) 0.7807(2) 0.5859(2)
C9 C -0.6075(8) 0.7828(2) 0.6499(2)
C10 C -0.5694(6) 0.8727(2) 0.6904(2)
K1 K -0.0052(2) 1.00272(4) 0.37345(3)
H1 H 0.357(5) 0.959(1) 0.084(1)
H2 H 0.153(5) 0.871(1) 0.183(1)
H3 H 0.447(7) 0.734(2) 0.211(2)
H4 H 0.271(6) 0.734(2) 0.143(2)
H5 H 0.784(7) 0.765(2) 0.117(2)
H6 H 0.585(6) 0.715(2) 0.055(2)
H7 H 0.459(9) 0.890(2) 0.354(2)
H8 H -0.354(5) 0.981(2) 0.664(1)
H9 H -0.169(5) 0.891(2) 0.560(1)
H10 H -0.451(5) 0.747(1) 0.534(1)
H11 H -0.257(6) 0.755(2) 0.605(1)
H12 H -0.788(7) 0.777(2) 0.629(2)
H13 H -0.607(5) 0.731(2) 0.684(1)
K1_2 K 0.9948(2) 1.00272(4) 0.37345(3)
K1C K 0.5052(2) 0.99728(4) -0.12655(3)
K1_3 K -1.0052(2) 1.00272(4) 0.37345(3)
K1C_2 K -0.4948(2) 0.99728(4) 0.87345(3)
O2_2 O -0.2989(4) 0.9294(1) 0.2400(1)
O3C O -0.1549(5) 1.1191(1) 0.4886(1)
O5_2 O 0.2891(4) 0.9437(1) 0.5035(1)
O6C O 0.1580(5) 1.1044(1) 0.2555(1)
loop_
_geom_bond_atom_site_label_1
_geom_bond_atom_site_label_2
_geom_bond_site_symmetry_1
_geom_bond_site_symmetry_2
O1 C1 1_555 1_555
O2 C1 1_555 1_555
O3 C5 1_555 1_555
O4 C6 1_555 1_555
O5 C6 1_555 1_555
O6 C10 1_555 1_555
N1 C2 1_555 1_555
N2 C7 1_555 1_555
C1 C2 1_555 1_555
C2 C3 1_555 1_555
C3 C4 1_555 1_555
C4 C5 1_555 1_555
C5 N1 1_555 1_555
C6 C7 1_555 1_555
C7 C8 1_555 1_555
C8 C9 1_555 1_555
C9 C10 1_555 1_555
C10 N2 1_555 1_555
K1 O1 1_555 1_555
H1 N1 1_555 1_555
H2 C2 1_555 1_555
H3 C3 1_555 1_555
H4 C3 1_555 1_555
H5 C4 1_555 1_555
H6 C4 1_555 1_555
H7 O1 1_555 1_555
H8 N2 1_555 1_555
H9 C7 1_555 1_555
H10 C8 1_555 1_555
H11 C8 1_555 1_555
H12 C9 1_555 1_555
H13 C9 1_555 1_555
K1_2 O2 1_555 1_555
K1C O3 1_555 1_555
K1_3 O5 1_555 1_555
K1C_2 O6 1_555 1_555
O2_2 K1 1_555 1_555
O3C K1 1_555 1_555
O5_2 K1 1_555 1_555
O6C K1 1_555 1_555
O4 K1 1_555 1_555

#END
