
#######################################################################
#
#                 Cambridge Crystallographic Data Centre
#                                CCDC 
#
#######################################################################
#
# If this CIF has been generated from an entry in the Cambridge 
# Structural Database, then it will include bibliographic, chemical, 
# crystal, experimental, refinement or atomic coordinate data resulting 
# from the CCDC's data processing and validation procedures.
#
#######################################################################

data_PAJGIR
_symmetry_cell_setting           monoclinic
_symmetry_space_group_name_H-M   'P 21/c'
_symmetry_Int_Tables_number      14
_space_group_name_Hall           '-P 2ybc'
loop_
_symmetry_equiv_pos_site_id
_symmetry_equiv_pos_as_xyz
1 x,y,z
2 x,1/2-y,1/2+z
3 -x,-y,-z
4 -x,1/2+y,1/2-z
_cell_length_a                   9.733(5)
_cell_length_b                   6.725(3)
_cell_length_c                   17.066(9)
_cell_angle_alpha                90
_cell_angle_beta                 102.922(8)
_cell_angle_gamma                90
_cell_volume                     1088.76
loop_
_atom_site_label
_atom_site_type_symbol
_atom_site_fract_x
_atom_site_fract_y
_atom_site_fract_z
Br1 Br -0.13278(7) -0.26227(11) 0.06619(4)
Cu1 Cu 0.02403(7) -0.00976(11) 0.11973(4)
O1 O 0.1444(4) 0.2347(6) 0.1493(2)
O2 O -0.1146(4) 0.3886(7) 0.2507(2)
O3 O -0.1076(4) 0.1650(6) 0.1555(3)
N1 N 0.1962(5) -0.1039(8) 0.0879(3)
C1 C 0.2157(7) -0.2693(10) 0.0492(4)
H1 H 0.1379 -0.3552 0.0301
C2 C 0.3491(8) -0.3207(11) 0.0358(5)
H2 H 0.3591 -0.4373 0.0062
C3 C 0.4628(7) -0.2051(11) 0.0648(4)
H3 H 0.5531 -0.2439 0.0578
C4 C 0.4470(6) -0.0252(10) 0.1057(4)
C5 C 0.5578(6) 0.1099(12) 0.1375(4)
H4 H 0.6508 0.0824 0.1319
C6 C 0.5318(7) 0.2773(11) 0.1757(4)
H5 H 0.6077 0.3635 0.1981
C7 C 0.3923(6) 0.3275(10) 0.1832(4)
H6 H 0.3747 0.4467 0.2092
C8 C 0.2860(6) 0.2002(9) 0.1521(3)
C9 C 0.3100(6) 0.0210(9) 0.1150(3)
C10 C 0.1023(6) 0.3534(9) 0.2097(4)
H7 H 0.1139 0.4965 0.1993
H8 H 0.1602 0.3206 0.2636
C11 C -0.0554(5) 0.3044(9) 0.2052(3)
O2C O 0.1146(4) -0.1114(7) 0.2493(2)
Cu1C Cu -0.02403(7) 0.49024(11) 0.38027(4)
loop_
_geom_bond_atom_site_label_1
_geom_bond_atom_site_label_2
_geom_bond_site_symmetry_1
_geom_bond_site_symmetry_2
Br1 Cu1 1_555 1_555
Cu1 O1 1_555 1_555
O1 C8 1_555 1_555
O2 C11 1_555 1_555
O3 Cu1 1_555 1_555
N1 Cu1 1_555 1_555
C1 N1 1_555 1_555
H1 C1 1_555 1_555
C2 C1 1_555 1_555
H2 C2 1_555 1_555
C3 C2 1_555 1_555
H3 C3 1_555 1_555
C4 C3 1_555 1_555
C5 C4 1_555 1_555
H4 C5 1_555 1_555
C6 C5 1_555 1_555
H5 C6 1_555 1_555
C7 C6 1_555 1_555
H6 C7 1_555 1_555
C8 C7 1_555 1_555
C9 N1 1_555 1_555
C10 O1 1_555 1_555
H7 C10 1_555 1_555
H8 C10 1_555 1_555
C11 O3 1_555 1_555
O2C Cu1 1_555 1_555
Cu1C O2 1_555 1_555
C4 C9 1_555 1_555
C8 C9 1_555 1_555
C10 C11 1_555 1_555

#END
