
#######################################################################
#
#                 Cambridge Crystallographic Data Centre
#                                CCDC 
#
#######################################################################
#
# If this CIF has been generated from an entry in the Cambridge 
# Structural Database, then it will include bibliographic, chemical, 
# crystal, experimental, refinement or atomic coordinate data resulting 
# from the CCDC's data processing and validation procedures.
#
#######################################################################

data_PAJGEN
_symmetry_cell_setting           monoclinic
_symmetry_space_group_name_H-M   'P 2/c'
_symmetry_Int_Tables_number      13
_space_group_name_Hall           '-P 2yc'
loop_
_symmetry_equiv_pos_site_id
_symmetry_equiv_pos_as_xyz
1 x,y,z
2 x,-y,1/2+z
3 -x,-y,-z
4 -x,y,1/2-z
_cell_length_a                   5.5805(5)
_cell_length_b                   8.9808(9)
_cell_length_c                   21.955(2)
_cell_angle_alpha                90
_cell_angle_beta                 94.976(3)
_cell_angle_gamma                90
_cell_volume                     1096.18
loop_
_atom_site_label
_atom_site_type_symbol
_atom_site_fract_x
_atom_site_fract_y
_atom_site_fract_z
Co1 Co 0.0000 0.5000 0.5000
O1 O 0.2376(2) 0.34789(14) 0.46817(6)
O2 O -0.1826(2) 0.50661(13) 0.41586(6)
N1 N 0.2241(3) 0.6936(2) 0.47784(8)
C1 C 0.4097(4) 0.1786(3) 0.40172(12)
C2 C 0.2272(3) 0.2965(2) 0.41414(9)
C3 C 0.0631(3) 0.3401(2) 0.36595(9)
C4 C -0.1228(3) 0.4435(2) 0.36828(8)
C5 C -0.2690(5) 0.4847(3) 0.30967(10)
C6 C 0.1677(3) 0.7684(2) 0.42117(8)
C7 C 0.3085(3) 0.7474(2) 0.37302(9)
C8 C 0.2490(4) 0.8169(2) 0.31764(9)
C9 C 0.0500(3) 0.9100(2) 0.30851(8)
C10 C -0.0914(3) 0.9275(2) 0.35693(9)
C11 C -0.0359(3) 0.8577(2) 0.41257(9)
C12 C 0.0000 0.9980(3) 0.2500
H1 H -0.228(4) 0.987(2) 0.3519(10)
H2 H 0.446(4) 0.687(2) 0.3799(10)
H3 H 0.368(4) 0.669(2) 0.4835(10)
H4 H -0.142(4) 0.867(2) 0.4456(10)
H5 H 0.566(5) 0.221(3) 0.3996(11)
H6 H 0.349(4) 0.803(2) 0.2844(10)
H7 H 0.191(5) 0.748(3) 0.5073(12)
H8 H 0.080(4) 0.294(3) 0.3269(11)
H9 H -0.235(5) 0.424(3) 0.2771(13)
H10 H 0.139(4) 1.064(3) 0.2445(10)
H11 H -0.431(5) 0.477(3) 0.3153(12)
H12 H 0.429(5) 0.108(3) 0.4376(13)
H13 H 0.366(5) 0.126(3) 0.3645(14)
H14 H -0.242(6) 0.588(4) 0.3000(14)
C9C C -0.0500(3) 0.9100(2) 0.19149(8)
C8C C -0.2490(4) 0.8169(2) 0.18236(9)
C7C C -0.3085(3) 0.7474(2) 0.12698(9)
C6C C -0.1677(3) 0.7684(2) 0.07883(8)
N1C N -0.2241(3) 0.6936(2) 0.02216(8)
H3C H -0.368(4) 0.669(2) 0.0165(10)
H7C H -0.191(5) 0.748(3) -0.0073(12)
C11C C 0.0359(3) 0.8577(2) 0.08743(9)
C10C C 0.0914(3) 0.9275(2) 0.14307(9)
H1C H 0.228(4) 0.987(2) 0.1481(10)
H4C H 0.142(4) 0.867(2) 0.0544(10)
H2C H -0.446(4) 0.687(2) 0.1201(10)
H6C H -0.349(4) 0.803(2) 0.2156(10)
H10C H -0.139(4) 1.064(3) 0.2555(10)
O1B O -0.2376(2) 0.65211(14) 0.53183(6)
O2B O 0.1826(2) 0.49339(13) 0.58414(6)
C1B C -0.4097(4) 0.8214(3) 0.59828(12)
C2B C -0.2272(3) 0.7035(2) 0.58586(9)
C3B C -0.0631(3) 0.6599(2) 0.63405(9)
C4B C 0.1228(3) 0.5565(2) 0.63172(8)
C5B C 0.2690(5) 0.5153(3) 0.69033(10)
H5B H -0.566(5) 0.779(3) 0.6004(11)
H8B H -0.080(4) 0.706(3) 0.6731(11)
H9B H 0.235(5) 0.576(3) 0.7229(13)
H11B H 0.431(5) 0.523(3) 0.6847(12)
H12B H -0.429(5) 0.892(3) 0.5624(13)
H13B H -0.366(5) 0.874(3) 0.6355(14)
H14B H 0.242(6) 0.412(4) 0.7000(14)
N1B N -0.2241(3) 0.3064(2) 0.52216(8)
Co1A Co 0.0000 0.5000 0.0000
H3B H -0.368(4) 0.331(2) 0.5165(10)
H7B H -0.191(5) 0.252(3) 0.4927(12)
loop_
_geom_bond_atom_site_label_1
_geom_bond_atom_site_label_2
_geom_bond_site_symmetry_1
_geom_bond_site_symmetry_2
Co1 O1 1_555 1_555
O1 C2 1_555 1_555
O2 Co1 1_555 1_555
N1 Co1 1_555 1_555
C1 C2 1_555 1_555
C2 C3 1_555 1_555
C3 C4 1_555 1_555
C4 O2 1_555 1_555
C5 C4 1_555 1_555
C6 N1 1_555 1_555
C7 C6 1_555 1_555
C8 C7 1_555 1_555
C9 C8 1_555 1_555
C10 C9 1_555 1_555
C11 C6 1_555 1_555
C12 C9 1_555 1_555
H1 C10 1_555 1_555
H2 C7 1_555 1_555
H3 N1 1_555 1_555
H4 C11 1_555 1_555
H5 C1 1_555 1_555
H6 C8 1_555 1_555
H7 N1 1_555 1_555
H8 C3 1_555 1_555
H9 C5 1_555 1_555
H10 C12 1_555 1_555
H11 C5 1_555 1_555
H12 C1 1_555 1_555
H13 C1 1_555 1_555
H14 C5 1_555 1_555
C9C C12 1_555 1_555
C8C C9C 1_555 1_555
C7C C8C 1_555 1_555
C6C C7C 1_555 1_555
N1C C6C 1_555 1_555
H3C N1C 1_555 1_555
H7C N1C 1_555 1_555
C11C C6C 1_555 1_555
C10C C9C 1_555 1_555
H1C C10C 1_555 1_555
H4C C11C 1_555 1_555
H2C C7C 1_555 1_555
H6C C8C 1_555 1_555
H10C C12 1_555 1_555
O1B Co1 1_555 1_555
O2B Co1 1_555 1_555
C1B C2B 1_555 1_555
C2B O1B 1_555 1_555
C3B C2B 1_555 1_555
C4B O2B 1_555 1_555
C5B C4B 1_555 1_555
H5B C1B 1_555 1_555
H8B C3B 1_555 1_555
H9B C5B 1_555 1_555
H11B C5B 1_555 1_555
H12B C1B 1_555 1_555
H13B C1B 1_555 1_555
H14B C5B 1_555 1_555
N1B Co1 1_555 1_555
Co1A N1C 1_555 1_555
H3B N1B 1_555 1_555
H7B N1B 1_555 1_555
C10 C11 1_555 1_555
C11C C10C 1_555 1_555
C3B C4B 1_555 1_555

#END
