
#######################################################################
#
#                 Cambridge Crystallographic Data Centre
#                                CCDC 
#
#######################################################################
#
# If this CIF has been generated from an entry in the Cambridge 
# Structural Database, then it will include bibliographic, chemical, 
# crystal, experimental, refinement or atomic coordinate data resulting 
# from the CCDC's data processing and validation procedures.
#
#######################################################################

data_PAJKER
_symmetry_cell_setting           triclinic
_symmetry_space_group_name_H-M   'P -1'
_symmetry_Int_Tables_number      2
_space_group_name_Hall           '-P 1'
loop_
_symmetry_equiv_pos_site_id
_symmetry_equiv_pos_as_xyz
1 x,y,z
2 -x,-y,-z
_cell_length_a                   13.2233(8)
_cell_length_b                   14.6535(11)
_cell_length_c                   16.7275(12)
_cell_angle_alpha                97.085(2)
_cell_angle_beta                 104.690(2)
_cell_angle_gamma                101.691(3)
_cell_volume                     3017.57
loop_
_atom_site_label
_atom_site_type_symbol
_atom_site_fract_x
_atom_site_fract_y
_atom_site_fract_z
Ag1 Ag 0.257495(19) 0.620771(17) 0.091629(15)
Ag2 Ag 0.038645(18) 1.090798(17) 0.469909(15)
N1 N -0.2560(2) 0.3264(2) 0.10425(17)
H1 H -0.279(3) 0.294(2) 0.1347(19)
N2 N 0.0904(2) 0.55083(18) 0.10172(16)
N3 N 0.18475(19) 0.92324(18) 0.44893(15)
N4 N 0.2921(2) 0.72002(19) 0.22606(16)
N5 N 0.3363(2) 0.5097(2) 0.16511(18)
N6 N -0.0668(2) 1.0881(2) 0.33601(18)
P1 P -0.32959(6) 0.29966(6) 0.00295(5)
P2 P 0.20609(6) 1.04305(6) 0.47491(5)
P3 P 0.05239(6) 0.86031(6) 0.42751(5)
C1 C -0.2115(3) 0.4262(2) 0.1442(2)
H2 H -0.2640 0.4620 0.1243
H3 H -0.1989 0.4316 0.2045
C2 C -0.1070(2) 0.4693(2) 0.12661(19)
C3 C -0.0335(2) 0.4156(2) 0.11886(19)
H4 H -0.0490 0.3514 0.1217
C4 C 0.0634(2) 0.4592(2) 0.10688(19)
H5 H 0.1123 0.4228 0.1022
C5 C 0.0187(2) 0.6019(2) 0.1085(2)
H6 H 0.0356 0.6657 0.1044
C6 C -0.0792(2) 0.5642(2) 0.12116(19)
H7 H -0.1263 0.6024 0.1260
C7 C -0.3351(2) 0.1743(2) -0.02146(19)
C8 C -0.4307(3) 0.1030(2) -0.05331(19)
H8 H -0.4969 0.1179 -0.0590
C9 C -0.4264(3) 0.0093(2) -0.0766(2)
H9 H -0.4900 -0.0380 -0.0980
C10 C -0.3284(3) -0.0138(2) -0.0681(2)
H10 H -0.3261 -0.0764 -0.0832
C11 C -0.2329(3) 0.0570(3) -0.0369(2)
H11 H -0.1669 0.0417 -0.0312
C12 C -0.2364(3) 0.1493(2) -0.01463(19)
H12 H -0.1724 0.1962 0.0054
C13 C -0.4664(2) 0.3079(2) -0.0014(2)
C14 C -0.5220(3) 0.2689(2) 0.0519(2)
H13 H -0.4899 0.2346 0.0898
C15 C -0.6235(3) 0.2804(3) 0.0492(2)
H14 H -0.6599 0.2529 0.0845
C16 C -0.6716(3) 0.3329(3) -0.0057(2)
H15 H -0.7397 0.3415 -0.0069
C17 C -0.6177(3) 0.3723(3) -0.0586(3)
H16 H -0.6496 0.4075 -0.0958
C18 C -0.5159(3) 0.3596(3) -0.0567(2)
H17 H -0.4805 0.3861 -0.0929
C19 C 0.2779(2) 0.8781(2) 0.45709(19)
H18 H 0.2738 0.8347 0.4961
H19 H 0.3440 0.9272 0.4816
C20 C 0.2849(2) 0.8246(2) 0.37623(19)
C21 C 0.3009(2) 0.8689(2) 0.3095(2)
H20 H 0.3103 0.9342 0.3142
C22 C 0.3025(2) 0.8142(2) 0.2366(2)
H21 H 0.3114 0.8443 0.1922
C23 C 0.2817(3) 0.6790(2) 0.2914(2)
H22 H 0.2764 0.6141 0.2862
C24 C 0.2783(2) 0.7282(2) 0.3664(2)
H23 H 0.2717 0.6965 0.4103
C25 C 0.2842(2) 1.0895(2) 0.40690(19)
C26 C 0.3963(2) 1.1041(2) 0.4273(2)
H24 H 0.4349 1.0976 0.4802
C27 C 0.4500(3) 1.1284(2) 0.3689(2)
H25 H 0.5245 1.1378 0.3827
C28 C 0.3931(3) 1.1386(2) 0.2899(2)
H26 H 0.4293 1.1544 0.2507
C29 C 0.2824(3) 1.1255(2) 0.2695(2)
H27 H 0.2444 1.1327 0.2166
C30 C 0.2276(2) 1.1013(2) 0.3279(2)
H28 H 0.1533 1.0929 0.3141
C31 C 0.3019(2) 1.0801(2) 0.57932(19)
C32 C 0.3178(2) 1.0172(2) 0.6351(2)
H29 H 0.2826 0.9533 0.6184
C33 C 0.3869(3) 1.0513(3) 0.7159(2)
H30 H 0.3991 1.0094 0.7528
C34 C 0.4374(3) 1.1456(3) 0.7421(2)
H31 H 0.4829 1.1673 0.7965
C35 C 0.4209(3) 1.2087(3) 0.6877(2)
H32 H 0.4554 1.2726 0.7057
C36 C 0.3526(2) 1.1766(2) 0.6060(2)
H33 H 0.3409 1.2190 0.5697
C37 C 0.0598(2) 0.7376(2) 0.4263(2)
C38 C 0.0953(2) 0.7097(2) 0.5037(2)
H34 H 0.1131 0.7533 0.5535
C39 C 0.1039(3) 0.6178(2) 0.5063(2)
H35 H 0.1293 0.6001 0.5578
C40 C 0.0750(3) 0.5517(2) 0.4326(2)
H36 H 0.0808 0.4898 0.4346
C41 C 0.0372(3) 0.5783(2) 0.3559(2)
H37 H 0.0170 0.5338 0.3065
C42 C 0.0294(2) 0.6704(2) 0.3524(2)
H38 H 0.0040 0.6877 0.3007
C43 C -0.0154(2) 0.8606(2) 0.31859(19)
C44 C 0.0384(3) 0.8844(2) 0.2596(2)
H39 H 0.1132 0.9044 0.2763
C45 C -0.0184(3) 0.8786(3) 0.1763(2)
H40 H 0.0182 0.8945 0.1373
C46 C -0.1291(3) 0.8494(3) 0.1516(2)
H41 H -0.1674 0.8451 0.0958
C47 C -0.1836(3) 0.8264(3) 0.2094(2)
H42 H -0.2584 0.8064 0.1922
C48 C -0.1279(2) 0.8328(2) 0.2927(2)
H43 H -0.1654 0.8187 0.3315
C49 C 0.3636(3) 0.4570(2) 0.2043(2)
C50 C 0.3979(3) 0.3889(3) 0.2559(2)
H44 H 0.4050 0.4125 0.3136
H45 H 0.4661 0.3802 0.2505
H46 H 0.3452 0.3293 0.2373
C51 C -0.1174(3) 1.0846(2) 0.2691(2)
C52 C -0.1806(3) 1.0812(3) 0.1834(2)
H47 H -0.2130 1.1341 0.1815
H48 H -0.2360 1.0232 0.1648
H49 H -0.1344 1.0838 0.1472
P1A P 0.32959(6) 0.70034(6) -0.00295(5)
Ag2A Ag -0.038645(18) 0.909202(17) 0.530091(15)
P3A P -0.05239(6) 1.13969(6) 0.57249(5)
Ag1A Ag -0.257495(19) 0.379229(17) -0.091629(15)
N7 N 0.3122(3) 0.4941(3) 0.4160(3)
C53 C 0.3770(4) 0.5547(3) 0.4630(3)
C54 C 0.4577(4) 0.6332(3) 0.5205(3)
H50 H 0.4727 0.6845 0.4914
H51 H 0.5225 0.6131 0.5419
H52 H 0.4314 0.6539 0.5663
N8 N 0.5739(4) 0.5756(3) 0.3770(3)
C55 C 0.6578(4) 0.5711(3) 0.3707(3)
C56 C 0.7613(4) 0.5659(4) 0.3633(3)
H53 H 0.7660 0.5010 0.3572
H54 H 0.8157 0.6024 0.4128
H55 H 0.7723 0.5909 0.3149
N9 N 0.1468(3) 0.2685(2) 0.4568(2)
C57 C 0.1200(3) 0.2906(2) 0.3921(3)
C58 C 0.0844(3) 0.3173(3) 0.3112(2)
H56 H 0.0856 0.2685 0.2678
H57 H 0.1315 0.3758 0.3097
H58 H 0.0123 0.3252 0.3024
B1 B 0.0904(3) 0.2000(3) 0.0825(3)
F1 F 0.13713(18) 0.13086(16) 0.05474(14)
F2 F 0.03382(19) 0.23233(17) 0.01449(13)
F3 F 0.17106(15) 0.27536(14) 0.13528(13)
F4 F 0.02184(19) 0.16616(19) 0.12762(15)
B2 B 0.6903(3) 0.2583(3) 0.2907(3)
F5 F 0.6432(2) 0.33251(18) 0.30028(17)
F6 F 0.68971(16) 0.20822(17) 0.35520(14)
F7 F 0.79607(15) 0.29258(15) 0.29025(12)
F8 F 0.63338(16) 0.19828(16) 0.21421(13)
loop_
_geom_bond_atom_site_label_1
_geom_bond_atom_site_label_2
_geom_bond_site_symmetry_1
_geom_bond_site_symmetry_2
Ag1 N2 1_555 1_555
Ag2 N6 1_555 1_555
N1 H1 1_555 1_555
N2 C4 1_555 1_555
N3 P2 1_555 1_555
N4 Ag1 1_555 1_555
N5 Ag1 1_555 1_555
N6 C51 1_555 1_555
N7 C53 1_555 1_555
N8 C55 1_555 1_555
N9 C57 1_555 1_555
P1 N1 1_555 1_555
P2 Ag2 1_555 1_555
P3 N3 1_555 1_555
B1 F1 1_555 1_555
B2 F5 1_555 1_555
F2 B1 1_555 1_555
F3 B1 1_555 1_555
F4 B1 1_555 1_555
F6 B2 1_555 1_555
F7 B2 1_555 1_555
F8 B2 1_555 1_555
C1 N1 1_555 1_555
H2 C1 1_555 1_555
H3 C1 1_555 1_555
C2 C1 1_555 1_555
C3 C2 1_555 1_555
H4 C3 1_555 1_555
C4 C3 1_555 1_555
H5 C4 1_555 1_555
C5 N2 1_555 1_555
H6 C5 1_555 1_555
C6 C2 1_555 1_555
H7 C6 1_555 1_555
C7 P1 1_555 1_555
C8 C7 1_555 1_555
H8 C8 1_555 1_555
C9 C8 1_555 1_555
H9 C9 1_555 1_555
C10 C9 1_555 1_555
H10 C10 1_555 1_555
C11 C10 1_555 1_555
H11 C11 1_555 1_555
C12 C7 1_555 1_555
H12 C12 1_555 1_555
C13 P1 1_555 1_555
C14 C13 1_555 1_555
H13 C14 1_555 1_555
C15 C14 1_555 1_555
H14 C15 1_555 1_555
C16 C15 1_555 1_555
H15 C16 1_555 1_555
C17 C16 1_555 1_555
H16 C17 1_555 1_555
C18 C13 1_555 1_555
H17 C18 1_555 1_555
C19 N3 1_555 1_555
H18 C19 1_555 1_555
H19 C19 1_555 1_555
C20 C19 1_555 1_555
C21 C20 1_555 1_555
H20 C21 1_555 1_555
C22 N4 1_555 1_555
H21 C22 1_555 1_555
C23 N4 1_555 1_555
H22 C23 1_555 1_555
C24 C20 1_555 1_555
H23 C24 1_555 1_555
C25 P2 1_555 1_555
C26 C25 1_555 1_555
H24 C26 1_555 1_555
C27 C26 1_555 1_555
H25 C27 1_555 1_555
C28 C27 1_555 1_555
H26 C28 1_555 1_555
C29 C28 1_555 1_555
H27 C29 1_555 1_555
C30 C25 1_555 1_555
H28 C30 1_555 1_555
C31 P2 1_555 1_555
C32 C31 1_555 1_555
H29 C32 1_555 1_555
C33 C32 1_555 1_555
H30 C33 1_555 1_555
C34 C33 1_555 1_555
H31 C34 1_555 1_555
C35 C34 1_555 1_555
H32 C35 1_555 1_555
C36 C31 1_555 1_555
H33 C36 1_555 1_555
C37 P3 1_555 1_555
C38 C37 1_555 1_555
H34 C38 1_555 1_555
C39 C38 1_555 1_555
H35 C39 1_555 1_555
C40 C39 1_555 1_555
H36 C40 1_555 1_555
C41 C40 1_555 1_555
H37 C41 1_555 1_555
C42 C37 1_555 1_555
H38 C42 1_555 1_555
C43 P3 1_555 1_555
C44 C43 1_555 1_555
H39 C44 1_555 1_555
C45 C44 1_555 1_555
H40 C45 1_555 1_555
C46 C45 1_555 1_555
H41 C46 1_555 1_555
C47 C46 1_555 1_555
H42 C47 1_555 1_555
C48 C43 1_555 1_555
H43 C48 1_555 1_555
C49 N5 1_555 1_555
C50 C49 1_555 1_555
H44 C50 1_555 1_555
H45 C50 1_555 1_555
H46 C50 1_555 1_555
C51 C52 1_555 1_555
C52 H47 1_555 1_555
H48 C52 1_555 1_555
H49 C52 1_555 1_555
C53 C54 1_555 1_555
C54 H50 1_555 1_555
H51 C54 1_555 1_555
H52 C54 1_555 1_555
C55 C56 1_555 1_555
C56 H53 1_555 1_555
H54 C56 1_555 1_555
H55 C56 1_555 1_555
C57 C58 1_555 1_555
C58 H56 1_555 1_555
H57 C58 1_555 1_555
H58 C58 1_555 1_555
P1A Ag1 1_555 1_555
Ag2A Ag2 1_555 1_555
P3A Ag2 1_555 1_555
Ag1A P1 1_555 1_555
P3 Ag2A 1_555 1_555
C5 C6 1_555 1_555
C11 C12 1_555 1_555
C17 C18 1_555 1_555
C21 C22 1_555 1_555
C23 C24 1_555 1_555
C29 C30 1_555 1_555
C35 C36 1_555 1_555
C41 C42 1_555 1_555
C47 C48 1_555 1_555

#END
