
#######################################################################
#
#                 Cambridge Crystallographic Data Centre
#                                CCDC 
#
#######################################################################
#
# If this CIF has been generated from an entry in the Cambridge 
# Structural Database, then it will include bibliographic, chemical, 
# crystal, experimental, refinement or atomic coordinate data resulting 
# from the CCDC's data processing and validation procedures.
#
#######################################################################

data_PAJTAW
_symmetry_cell_setting           monoclinic
_symmetry_space_group_name_H-M   'P 21/n'
_symmetry_Int_Tables_number      14
_space_group_name_Hall           '-P 2yn'
loop_
_symmetry_equiv_pos_site_id
_symmetry_equiv_pos_as_xyz
1 x,y,z
2 1/2+x,1/2-y,1/2+z
3 -x,-y,-z
4 1/2-x,1/2+y,1/2-z
_cell_length_a                   7.6346(8)
_cell_length_b                   22.631(2)
_cell_length_c                   14.9338(16)
_cell_angle_alpha                90
_cell_angle_beta                 91.879(2)
_cell_angle_gamma                90
_cell_volume                     2578.85
loop_
_atom_site_label
_atom_site_type_symbol
_atom_site_fract_x
_atom_site_fract_y
_atom_site_fract_z
Li1 Li -0.4731(6) 0.18159(19) -0.2127(3)
Li2 Li -0.5070(6) 0.32406(19) -0.2567(3)
B1 B -0.4825(3) 0.17901(12) -0.53350(17)
C1 C -0.4662(3) 0.14860(10) -0.38863(15)
C2 C -0.4821(3) 0.21510(10) -0.39213(15)
O1 O -0.46497(18) 0.12865(6) -0.47125(9)
O2 O -0.49170(19) 0.23203(7) -0.47605(9)
O3 O -0.45811(19) 0.12015(7) -0.32023(10)
O4 O -0.48522(19) 0.24572(7) -0.32576(10)
C3 C -0.4792(3) 0.28880(10) -0.07954(15)
C4 C -0.4940(3) 0.35533(10) -0.07637(15)
O5 O -0.46900(18) 0.26836(6) 0.00289(9)
O6 O -0.49426(18) 0.37175(6) 0.00851(9)
O7 O -0.47790(19) 0.26085(7) -0.14805(10)
O8 O -0.50373(19) 0.38634(7) -0.14160(10)
B2 B -0.4781(3) 0.31891(12) 0.06549(17)
C5 C -0.3928(3) 0.17934(10) -0.67881(15)
C6 C -0.5929(3) 0.17300(10) -0.67794(15)
O9 O -0.33552(18) 0.18354(6) -0.59382(9)
O10 O -0.63863(18) 0.17339(7) -0.59251(9)
O11 O -0.30410(19) 0.18140(7) -0.74325(10)
O12 O -0.69178(19) 0.16892(7) -0.74171(10)
C7 C -0.5678(3) 0.31248(10) 0.20998(15)
C8 C -0.3671(3) 0.31866(10) 0.20997(15)
O13 O -0.62502(18) 0.31193(7) 0.12504(9)
O14 O -0.32103(18) 0.32111(7) 0.12514(9)
O15 O -0.6565(2) 0.30791(7) 0.27424(10)
O16 O -0.26954(19) 0.31975(7) 0.27476(10)
N1 N -0.4721(3) 0.13306(9) -0.09510(14)
C9 C -0.4988(3) 0.13301(11) -0.02091(17)
C10 C -0.5366(4) 0.13395(12) 0.07412(15)
H1 H -0.5949 0.0971 0.0903
H2 H -0.6134 0.1675 0.0865
H3 H -0.4268 0.1379 0.1095
N2 N -0.5228(3) 0.37373(9) -0.37422(14)
C11 C -0.5188(3) 0.37551(11) -0.45055(17)
C12 C -0.5139(3) 0.37588(12) -0.54745(14)
H4 H -0.3948 0.3669 -0.5659
H5 H -0.5487 0.4150 -0.5700
H6 H -0.5951 0.3460 -0.5720
O12A O -0.19178(19) 0.33108(7) -0.24171(10)
Li2A Li -1.0070(6) 0.17594(19) -0.7567(3)
O11A O -0.80410(19) 0.31860(7) -0.24325(10)
O15A O -0.1565(2) 0.19209(7) -0.22576(10)
O16A O -0.76954(19) 0.18025(7) -0.22524(10)
Li2A_2 Li -0.0070(6) 0.17594(19) -0.7567(3)
Li1A Li -0.9731(6) 0.31841(19) 0.2873(3)
Li1A_2 Li 0.0269(6) 0.31841(19) 0.2873(3)
N3 N -0.4214(3) 0.05329(10) -0.65056(14)
C13 C -0.3448(3) 0.02783(11) -0.59699(18)
C14 C -0.2474(3) -0.00375(11) -0.52662(17)
H7 H -0.1538 -0.0269 -0.5531
H8 H -0.3267 -0.0303 -0.4956
H9 H -0.1962 0.0247 -0.4837
N4 N 0.0028(3) 0.06373(11) -0.30059(15)
C15 C -0.0941(3) 0.03063(12) -0.27479(17)
C16 C -0.2165(3) -0.01151(12) -0.24093(18)
H10 H -0.1711 -0.0516 -0.2491
H11 H -0.3293 -0.0074 -0.2735
H12 H -0.2324 -0.0042 -0.1770
N5 N -0.2448(3) 0.49660(10) -0.48963(17)
C17 C -0.2172(4) 0.49651(12) -0.5639(2)
C18 C -0.1806(4) 0.49573(14) -0.65812(17)
H13 H -0.2304 0.5311 -0.6869
H14 H -0.2331 0.4604 -0.6859
H15 H -0.0536 0.4951 -0.6655
loop_
_geom_bond_atom_site_label_1
_geom_bond_atom_site_label_2
_geom_bond_site_symmetry_1
_geom_bond_site_symmetry_2
Li1 O3 1_555 1_555
Li2 O4 1_555 1_555
B1 O1 1_555 1_555
C1 C2 1_555 1_555
C2 O2 1_555 1_555
O1 C1 1_555 1_555
O2 B1 1_555 1_555
O3 C1 1_555 1_555
O4 Li1 1_555 1_555
C3 C4 1_555 1_555
C4 O6 1_555 1_555
O5 C3 1_555 1_555
O6 B2 1_555 1_555
O7 Li1 1_555 1_555
O8 Li2 1_555 1_555
B2 O5 1_555 1_555
C5 C6 1_555 1_555
C6 O10 1_555 1_555
O9 B1 1_555 1_555
O10 B1 1_555 1_555
O11 C5 1_555 1_555
O12 C6 1_555 1_555
C7 C8 1_555 1_555
C8 O14 1_555 1_555
O13 B2 1_555 1_555
O14 B2 1_555 1_555
O15 C7 1_555 1_555
O16 C8 1_555 1_555
N1 Li1 1_555 1_555
C9 N1 1_555 1_555
C10 C9 1_555 1_555
H1 C10 1_555 1_555
H2 C10 1_555 1_555
H3 C10 1_555 1_555
N2 Li2 1_555 1_555
C11 N2 1_555 1_555
C12 C11 1_555 1_555
H4 C12 1_555 1_555
H5 C12 1_555 1_555
H6 C12 1_555 1_555
N3 C13 1_555 1_555
C13 C14 1_555 1_555
C14 H7 1_555 1_555
H8 C14 1_555 1_555
H9 C14 1_555 1_555
N4 C15 1_555 1_555
C15 C16 1_555 1_555
C16 H10 1_555 1_555
H11 C16 1_555 1_555
H12 C16 1_555 1_555
N5 C17 1_555 1_555
C17 C18 1_555 1_555
C18 H13 1_555 1_555
H14 C18 1_555 1_555
H15 C18 1_555 1_555
O12A Li2 1_555 1_555
Li2A O12 1_555 1_555
O11A Li2 1_555 1_555
O15A Li1 1_555 1_555
O16A Li1 1_555 1_555
Li2A_2 O11 1_555 1_555
Li1A O15 1_555 1_555
Li1A_2 O16 1_555 1_555
Li2 O7 1_555 1_555
C2 O4 1_555 1_555
C3 O7 1_555 1_555
C4 O8 1_555 1_555
C5 O9 1_555 1_555
C7 O13 1_555 1_555

#END
