
#######################################################################
#
#                 Cambridge Crystallographic Data Centre
#                                CCDC 
#
#######################################################################
#
# If this CIF has been generated from an entry in the Cambridge 
# Structural Database, then it will include bibliographic, chemical, 
# crystal, experimental, refinement or atomic coordinate data resulting 
# from the CCDC's data processing and validation procedures.
#
#######################################################################

data_PAJTOK
_symmetry_cell_setting           triclinic
_symmetry_space_group_name_H-M   'P -1'
_symmetry_Int_Tables_number      2
_space_group_name_Hall           '-P 1'
loop_
_symmetry_equiv_pos_site_id
_symmetry_equiv_pos_as_xyz
1 x,y,z
2 -x,-y,-z
_cell_length_a                   9.1327(14)
_cell_length_b                   9.6378(15)
_cell_length_c                   14.812(2)
_cell_angle_alpha                80.640(3)
_cell_angle_beta                 79.414(3)
_cell_angle_gamma                70.642(3)
_cell_volume                     1201.8
loop_
_atom_site_label
_atom_site_type_symbol
_atom_site_fract_x
_atom_site_fract_y
_atom_site_fract_z
Li1 Li -0.1028(10) 0.1773(9) 0.0353(6)
Li2 Li 0.6043(10) -0.4003(8) 0.4942(5)
B1 B 0.4728(6) 0.1107(6) -0.1303(4)
C1 C 0.2404(6) 0.0699(5) -0.0783(3)
C2 C 0.3535(5) -0.0653(5) -0.1213(3)
C3 C 0.6095(5) 0.2681(5) -0.2027(3)
C4 C 0.6704(6) 0.1952(5) -0.1118(3)
O1 O 0.3085(3) 0.1699(3) -0.08320(19)
O2 O 0.1056(4) 0.0772(3) -0.0445(2)
O3 O 0.4866(3) -0.0338(3) -0.15269(19)
O4 O 0.3272(4) -0.1783(3) -0.1245(2)
O5 O 0.4995(3) 0.2125(3) -0.21389(19)
O6 O 0.6520(4) 0.3590(3) -0.2576(2)
O7 O 0.5871(4) 0.1068(3) -0.0722(2)
O8 O 0.7737(4) 0.2170(3) -0.0820(2)
B2 B 0.0924(6) -0.0407(6) 0.3683(4)
C5 C 0.1887(6) -0.2621(5) 0.4518(3)
C6 C 0.2941(6) -0.1677(5) 0.4497(3)
C7 C 0.0118(5) 0.0917(5) 0.2326(3)
C8 C -0.1001(6) 0.1625(5) 0.3159(3)
O9 O 0.0727(3) -0.1824(3) 0.40509(19)
O10 O 0.2077(4) -0.3862(3) 0.4880(2)
O11 O 0.2304(3) -0.0361(3) 0.40495(19)
O12 O 0.4151(4) -0.2032(3) 0.4821(2)
O13 O 0.1232(3) -0.0221(3) 0.26550(19)
O14 O 0.0019(4) 0.1346(3) 0.1526(2)
O15 O -0.0493(3) 0.0832(3) 0.39216(19)
O16 O -0.2143(4) 0.2697(3) 0.3116(2)
O17 O 0.4635(3) -0.4941(3) 0.59800(19)
H1 H 0.5239 -0.5648 0.6444
H2 H 0.3740 -0.4188 0.6289
C9 C 0.8443(6) -0.3283(5) 0.5848(3)
H3 H 0.9141 -0.4252 0.5660
H4 H 0.8684 -0.2494 0.5387
C10 C 0.6033(5) -0.2434(5) 0.6685(3)
H5 H 0.5763 -0.1348 0.6531
H6 H 0.5067 -0.2695 0.6941
C11 C 0.7233(6) -0.3004(5) 0.7341(3)
H7 H 0.7224 -0.3984 0.7666
H8 H 0.7049 -0.2307 0.7803
O18 O 0.6857(4) -0.3204(3) 0.5890(2)
O19 O 0.8690(4) -0.3107(3) 0.6735(2)
C12 C -0.2452(6) 0.4767(5) 0.1015(3)
H9 H -0.1945 0.5428 0.1189
H10 H -0.2638 0.4076 0.1563
C13 C -0.1763(5) 0.5054(5) -0.0509(3)
H11 H -0.1083 0.5689 -0.0578
H12 H -0.1564 0.4576 -0.1082
C14 C -0.3479(5) 0.5948(5) -0.0303(3)
H13 H -0.4132 0.5653 -0.0653
H14 H -0.3630 0.7020 -0.0462
O20 O 0.7478(4) -0.3053(3) 0.3884(2)
O21 O 0.8163(4) -0.1345(3) 0.2758(2)
C15 C 0.7122(6) -0.1522(5) 0.3601(3)
H15 H 0.6016 -0.1097 0.3490
H16 H 0.7281 -0.1009 0.4085
C16 C 0.8277(6) -0.3795(5) 0.3081(3)
H17 H 0.8971 -0.4802 0.3254
H18 H 0.7526 -0.3861 0.2698
C17 C 0.9203(5) -0.2806(4) 0.2588(3)
H19 H 0.9449 -0.2911 0.1919
H20 H 1.0192 -0.3024 0.2846
O22 O -0.1491(4) 0.3970(3) 0.0277(2)
O23 O -0.3872(4) 0.5598(3) 0.0685(2)
Li2A Li 0.3957(10) -0.5997(8) 0.5058(5)
O10A O 0.7923(4) -0.6138(3) 0.5120(2)
O2A O -0.1056(4) -0.0772(3) 0.0445(2)
O4A O -0.3272(4) 0.1783(3) 0.1245(2)
O8_2 O -0.2263(4) 0.2170(3) -0.0820(2)
O17A O 0.5365(3) -0.5059(3) 0.40200(19)
H1A H 0.4761 -0.4352 0.3556
H2A H 0.6260 -0.5812 0.3711
Li1A Li 0.1028(10) -0.1773(9) -0.0353(6)
Li1_2 Li 0.8972(10) 0.1773(9) 0.0353(6)
loop_
_geom_bond_atom_site_label_1
_geom_bond_atom_site_label_2
_geom_bond_site_symmetry_1
_geom_bond_site_symmetry_2
Li1 O2 1_555 1_555
Li2 O12 1_555 1_555
B1 O1 1_555 1_555
C1 C2 1_555 1_555
C2 O3 1_555 1_555
C3 C4 1_555 1_555
C4 O7 1_555 1_555
O1 C1 1_555 1_555
O2 C1 1_555 1_555
O3 B1 1_555 1_555
O4 C2 1_555 1_555
O5 B1 1_555 1_555
O6 C3 1_555 1_555
O7 B1 1_555 1_555
O8 C4 1_555 1_555
B2 O9 1_555 1_555
C5 C6 1_555 1_555
C6 O11 1_555 1_555
C7 C8 1_555 1_555
C8 O15 1_555 1_555
O9 C5 1_555 1_555
O10 C5 1_555 1_555
O11 B2 1_555 1_555
O12 C6 1_555 1_555
O13 B2 1_555 1_555
O14 Li1 1_555 1_555
O15 B2 1_555 1_555
O16 C8 1_555 1_555
O17 Li2 1_555 1_555
H1 O17 1_555 1_555
H2 O17 1_555 1_555
C9 H3 1_555 1_555
H4 C9 1_555 1_555
C10 H5 1_555 1_555
H6 C10 1_555 1_555
C11 C10 1_555 1_555
H7 C11 1_555 1_555
H8 C11 1_555 1_555
O18 Li2 1_555 1_555
O19 C9 1_555 1_555
C12 H9 1_555 1_555
H10 C12 1_555 1_555
C13 H11 1_555 1_555
H12 C13 1_555 1_555
C14 C13 1_555 1_555
H13 C14 1_555 1_555
H14 C14 1_555 1_555
O20 Li2 1_555 1_555
O21 C15 1_555 1_555
C15 O20 1_555 1_555
H15 C15 1_555 1_555
H16 C15 1_555 1_555
C16 O20 1_555 1_555
H17 C16 1_555 1_555
H18 C16 1_555 1_555
C17 O21 1_555 1_555
H19 C17 1_555 1_555
H20 C17 1_555 1_555
O22 Li1 1_555 1_555
O23 C12 1_555 1_555
Li2A O10 1_555 1_555
O10A Li2 1_555 1_555
O2A Li1 1_555 1_555
O4A Li1 1_555 1_555
O8_2 Li1 1_555 1_555
O17A Li2 1_555 1_555
H1A O17A 1_555 1_555
H2A O17A 1_555 1_555
Li1A O2 1_555 1_555
Li1_2 O8 1_555 1_555
C3 O5 1_555 1_555
O4 Li1A 1_555 1_555
C7 O13 1_555 1_555
C7 O14 1_555 1_555
O17 Li2A 1_555 1_555
C9 O18 1_555 1_555
C10 O18 1_555 1_555
C11 O19 1_555 1_555
C12 O22 1_555 1_555
C13 O22 1_555 1_555
C14 O23 1_555 1_555
C16 C17 1_555 1_555
Li2A O17A 1_555 1_555
O2A Li1A 1_555 1_555

#END
