
#######################################################################
#
#                 Cambridge Crystallographic Data Centre
#                                CCDC 
#
#######################################################################
#
# If this CIF has been generated from an entry in the Cambridge 
# Structural Database, then it will include bibliographic, chemical, 
# crystal, experimental, refinement or atomic coordinate data resulting 
# from the CCDC's data processing and validation procedures.
#
#######################################################################

data_PAKKOD
_symmetry_cell_setting           monoclinic
_symmetry_space_group_name_H-M   'P 21'
_symmetry_Int_Tables_number      4
_space_group_name_Hall           'P 2yb'
loop_
_symmetry_equiv_pos_site_id
_symmetry_equiv_pos_as_xyz
1 x,y,z
2 -x,1/2+y,-z
_cell_length_a                   6.8552(3)
_cell_length_b                   13.6620(6)
_cell_length_c                   19.0362(9)
_cell_angle_alpha                90
_cell_angle_beta                 96.432(3)
_cell_angle_gamma                90
_cell_volume                     1771.63
loop_
_atom_site_label
_atom_site_type_symbol
_atom_site_fract_x
_atom_site_fract_y
_atom_site_fract_z
Cd1 Cd -0.32906(10) 0.82240(5) -0.27572(4)
Cd2 Cd 0.19603(10) 0.67842(5) 0.22041(4)
O1 O -0.2041(10) 0.8768(6) -0.1640(4)
O2 O -0.0847(12) 0.9109(8) -0.3200(5)
O3 O -0.4776(12) 0.7948(9) -0.1734(4)
O4 O 0.4356(11) 0.5858(8) 0.1739(5)
O5 O -0.5057(10) 0.9679(8) -0.2962(5)
O6 O 0.0175(11) 0.7597(8) 0.1369(5)
O7 O 0.0082(10) 0.5347(7) 0.2003(4)
O8 O -0.2380(9) 0.6588(8) 0.1323(5)
O9 O -0.6897(12) 0.6242(7) -0.6616(5)
O10 O -0.9506(11) 0.7143(8) -0.6794(5)
O11 O -0.5119(11) 0.7426(8) -0.3606(5)
O12 O -0.7538(12) 0.8508(9) -0.3700(6)
N1 N -0.1130(13) 0.6883(11) -0.2643(6)
N2 N 0.5838(13) 0.3051(10) -0.2300(6)
C1 C -0.3690(14) 0.8581(9) -0.0586(6)
C2 C -0.3150(14) 0.7623(8) -0.0139(6)
C3 C -0.2758(14) 0.8074(12) 0.0627(5)
H1 H -0.4033 0.8185 0.0800
C4 C -0.179(2) 0.9070(8) 0.0557(6)
H2 H -0.0389 0.9031 0.0703
H3 H -0.2357 0.9554 0.0845
C5 C -0.2180(15) 0.9338(7) -0.0229(5)
H4 H -0.0970 0.9312 -0.0448
H5 H -0.2709 0.9995 -0.0282
C6 C -0.5788(17) 0.8877(12) -0.0505(7)
H6 H -0.6110 0.9463 -0.0771
H7 H -0.5916 0.8992 -0.0015
H8 H -0.6664 0.8361 -0.0679
C7 C -0.4732(19) 0.6837(10) -0.0207(6)
H9 H -0.4871 0.6579 -0.0679
H10 H -0.5956 0.7116 -0.0107
H11 H -0.4366 0.6320 0.0123
C8 C -0.1279(17) 0.7171(12) -0.0361(8)
H12 H -0.1554 0.6882 -0.0821
H13 H -0.0807 0.6675 -0.0026
H14 H -0.0297 0.7669 -0.0374
C9 C -0.3508(16) 0.8433(11) -0.1352(7)
C10 C -0.1594(15) 0.7342(11) 0.1136(6)
C11 C -0.8637(18) 0.6599(13) -0.5603(7)
C12 C -0.7185(19) 0.7021(12) -0.5097(6)
C13 C -0.7877(16) 0.7061(11) -0.4396(7)
H15 H -0.7889 0.6391 -0.4211
C14 C -1.0036(19) 0.741(2) -0.4550(10)
H16 H -1.0239 0.8028 -0.4318
H17 H -1.0943 0.6928 -0.4401
C15 C -1.028(3) 0.753(2) -0.5404(9)
H18 H -0.9862 0.8172 -0.5549
H19 H -1.1609 0.7404 -0.5613
C16 C -0.939(3) 0.5634(17) -0.5453(9)
H20 H -0.8471 0.5144 -0.5565
H21 H -1.0624 0.5531 -0.5734
H22 H -0.9567 0.5592 -0.4961
C17 C -0.548(3) 0.6155(15) -0.4955(10)
H23 H -0.4875 0.6049 -0.5378
H24 H -0.6086 0.5558 -0.4822
H25 H -0.4510 0.6357 -0.4581
C18 C -0.617(2) 0.7910(11) -0.5316(7)
H26 H -0.7102 0.8431 -0.5408
H27 H -0.5567 0.7772 -0.5737
H28 H -0.5177 0.8102 -0.4945
C19 C -0.8336(16) 0.6688(14) -0.6388(6)
C20 C -0.6778(18) 0.7689(14) -0.3846(7)
C21 C 0.0675(16) 0.7049(11) -0.2318(6)
H29 H 0.0990 0.7671 -0.2142
C22 C 0.2074(16) 0.6325(10) -0.2238(7)
H30 H 0.3310 0.6455 -0.2003
C23 C 0.1656(16) 0.5444(12) -0.2495(8)
C24 C -0.0311(18) 0.5276(13) -0.2843(11)
H31 H -0.0698 0.4658 -0.3010
C25 C -0.1534(19) 0.6025(14) -0.2917(11)
H32 H -0.2750 0.5934 -0.3178
C26 C 0.6148(18) 0.3934(13) -0.1977(9)
H33 H 0.7338 0.4024 -0.1699
C27 C 0.4860(17) 0.4700(13) -0.2027(9)
H34 H 0.5190 0.5278 -0.1786
C28 C 0.3096(16) 0.4620(11) -0.2429(8)
C29 C 0.2744(16) 0.3720(12) -0.2766(8)
H35 H 0.1550 0.3621 -0.3041
C30 C 0.4092(17) 0.2979(12) -0.2706(8)
H36 H 0.3798 0.2402 -0.2955
Cd2_2 Cd -0.80397(10) 0.67842(5) -0.77959(4)
Cd2A Cd 0.80397(10) 0.17842(5) -0.22041(4)
O9_2 O 0.3103(12) 0.6242(7) 0.3384(5)
O10_2 O 0.0494(11) 0.7143(8) 0.3206(5)
N2A N 0.4162(13) 0.8051(10) 0.2300(6)
loop_
_geom_bond_atom_site_label_1
_geom_bond_atom_site_label_2
_geom_bond_site_symmetry_1
_geom_bond_site_symmetry_2
Cd1 O1 1_555 1_555
Cd2 O4 1_555 1_555
O1 C9 1_555 1_555
O2 Cd1 1_555 1_555
O3 Cd1 1_555 1_555
O5 Cd1 1_555 1_555
O6 Cd2 1_555 1_555
O7 Cd2 1_555 1_555
O8 C10 1_555 1_555
O9 C19 1_555 1_555
O10 C19 1_555 1_555
O11 Cd1 1_555 1_555
O12 C20 1_555 1_555
N1 Cd1 1_555 1_555
N2 C26 1_555 1_555
C1 C2 1_555 1_555
C2 C3 1_555 1_555
C3 H1 1_555 1_555
C4 C3 1_555 1_555
H2 C4 1_555 1_555
H3 C4 1_555 1_555
C5 C1 1_555 1_555
H4 C5 1_555 1_555
H5 C5 1_555 1_555
C6 C1 1_555 1_555
H6 C6 1_555 1_555
H7 C6 1_555 1_555
H8 C6 1_555 1_555
C7 C2 1_555 1_555
H9 C7 1_555 1_555
H10 C7 1_555 1_555
H11 C7 1_555 1_555
C8 C2 1_555 1_555
H12 C8 1_555 1_555
H13 C8 1_555 1_555
H14 C8 1_555 1_555
C9 O3 1_555 1_555
C10 O6 1_555 1_555
C11 C12 1_555 1_555
C12 C13 1_555 1_555
C13 H15 1_555 1_555
C14 C13 1_555 1_555
H16 C14 1_555 1_555
H17 C14 1_555 1_555
C15 C11 1_555 1_555
H18 C15 1_555 1_555
H19 C15 1_555 1_555
C16 C11 1_555 1_555
H20 C16 1_555 1_555
H21 C16 1_555 1_555
H22 C16 1_555 1_555
C17 C12 1_555 1_555
H23 C17 1_555 1_555
H24 C17 1_555 1_555
H25 C17 1_555 1_555
C18 C12 1_555 1_555
H26 C18 1_555 1_555
H27 C18 1_555 1_555
H28 C18 1_555 1_555
C19 C11 1_555 1_555
C20 O11 1_555 1_555
C21 N1 1_555 1_555
H29 C21 1_555 1_555
C22 C21 1_555 1_555
H30 C22 1_555 1_555
C23 C22 1_555 1_555
C24 C23 1_555 1_555
H31 C24 1_555 1_555
C25 N1 1_555 1_555
H32 C25 1_555 1_555
C26 H33 1_555 1_555
C27 C26 1_555 1_555
H34 C27 1_555 1_555
C28 C23 1_555 1_555
C29 C28 1_555 1_555
H35 C29 1_555 1_555
C30 N2 1_555 1_555
H36 C30 1_555 1_555
Cd2_2 O9 1_555 1_555
Cd2A N2 1_555 1_555
O9_2 Cd2 1_555 1_555
O10_2 Cd2 1_555 1_555
N2A Cd2 1_555 1_555
O10 Cd2_2 1_555 1_555
C1 C9 1_555 1_555
C3 C10 1_555 1_555
C4 C5 1_555 1_555
C13 C20 1_555 1_555
C14 C15 1_555 1_555
C24 C25 1_555 1_555
C27 C28 1_555 1_555
C29 C30 1_555 1_555

#END
