
#######################################################################
#
#                 Cambridge Crystallographic Data Centre
#                                CCDC 
#
#######################################################################
#
# If this CIF has been generated from an entry in the Cambridge 
# Structural Database, then it will include bibliographic, chemical, 
# crystal, experimental, refinement or atomic coordinate data resulting 
# from the CCDC's data processing and validation procedures.
#
#######################################################################

data_PAKKIX
_symmetry_cell_setting           triclinic
_symmetry_space_group_name_H-M   'P 1'
_symmetry_Int_Tables_number      1
_space_group_name_Hall           'P 1'
loop_
_symmetry_equiv_pos_site_id
_symmetry_equiv_pos_as_xyz
1 x,y,z
_cell_length_a                   12.1794(6)
_cell_length_b                   12.6404(6)
_cell_length_c                   13.7012(7)
_cell_angle_alpha                117.261(2)
_cell_angle_beta                 94.079(3)
_cell_angle_gamma                112.787(3)
_cell_volume                     1647.3
loop_
_atom_site_label
_atom_site_type_symbol
_atom_site_fract_x
_atom_site_fract_y
_atom_site_fract_z
Cd1 Cd 0.34476(2) 0.90556(2) 0.824863(19)
O1 O 0.4711(4) 0.9711(5) 0.7171(4)
O2 O 0.3164(5) 0.7566(5) 0.9003(4)
O4 O 0.4659(5) 0.7923(6) 0.8201(5)
O5 O 0.4757(6) 0.3038(5) 0.8045(5)
O6 O 0.3829(5) 0.3193(5) 0.9381(5)
O7 O -0.2979(5) 0.9055(7) 0.8816(6)
O8 O -0.2885(5) 1.0181(6) 0.7983(6)
O9 O 0.1884(6) 0.9347(6) 0.9099(5)
O10 O 0.2636(5) 1.0580(6) 0.8383(5)
N1 N 0.1833(6) 0.7419(7) 0.6557(6)
N2 N -0.4891(7) 0.0925(7) -0.0136(6)
C1 C 0.4987(8) 0.5206(8) 0.9422(7)
C2 C 0.4534(4) 0.5545(4) 0.8540(4)
C3 C 0.4780(6) 0.7016(7) 0.9389(6)
H1 H 0.5682 0.7619 0.9657
C4 C 0.4384(6) 0.6994(6) 1.0416(4)
H2 H 0.4905 0.7856 1.1125
H3 H 0.3520 0.6807 1.0318
C5 C 0.4549(7) 0.5876(6) 1.0446(5)
H4 H 0.3763 0.5215 1.0398
H5 H 0.5162 0.6249 1.1161
C6 C 0.6439(6) 0.5828(6) 0.9798(6)
H6 H 0.6812 0.6792 1.0169
H7 H 0.6707 0.5471 0.9132
H8 H 0.6692 0.5602 1.0324
C7 C 0.5226(6) 0.5463(6) 0.7661(5)
H9 H 0.6103 0.6067 0.8048
H10 H 0.4922 0.5714 0.7180
H11 H 0.5094 0.4555 0.7195
C8 C 0.3162(7) 0.4603(8) 0.7916(7)
H12 H 0.2885 0.4824 0.7396
H13 H 0.2703 0.4695 0.8465
H14 H 0.3023 0.3688 0.7489
C9 C 0.4470(6) 0.3657(6) 0.8828(5)
C10 C 0.4138(7) 0.7494(7) 0.8820(7)
C11 C -0.0980(7) 1.0715(8) 0.9161(7)
C12 C -0.0351(4) 0.9804(5) 0.8934(4)
C13 C 0.1004(7) 1.0785(8) 0.9235(7)
H15 H 0.1307 1.1371 1.0077
C14 C 0.0975(7) 1.1684(8) 0.8774(10)
H16 H 0.1636 1.2605 0.9283
H17 H 0.1080 1.1344 0.8012
C15 C -0.0305(5) 1.1622(7) 0.8729(8)
H18 H -0.0214 1.2519 0.9213
H19 H -0.0770 1.1254 0.7946
C16 C -0.0803(7) 1.1572(10) 1.0464(7)
H20 H -0.1203 1.2124 1.0583
H21 H 0.0073 1.2138 1.0876
H22 H -0.1170 1.0983 1.0741
C17 C -0.0525(6) 0.9143(9) 0.9656(7)
H23 H -0.0123 0.8585 0.9457
H24 H -0.1401 0.8598 0.9502
H25 H -0.0160 0.9833 1.0460
C18 C -0.0840(8) 0.8695(9) 0.7685(8)
H26 H -0.0437 0.8145 0.7558
H27 H -0.0671 0.9083 0.7218
H28 H -0.1726 0.8148 0.7481
C19 C -0.2368(7) 0.9960(9) 0.8587(7)
C20 C 0.1916(7) 1.0222(7) 0.8897(6)
C31 C 0.1509(8) 0.7708(9) 0.5834(7)
H43 H 0.1973 0.8567 0.5963
C32 C 0.0470(9) 0.6747(11) 0.4862(9)
H44 H 0.0281 0.6959 0.4327
C33 C -0.0272(9) 0.5510(10) 0.4677(10)
C34 C 0.0074(9) 0.5208(9) 0.5473(8)
H45 H -0.0386 0.4367 0.5381
C35 C 0.1144(8) 0.6225(8) 0.6415(7)
H46 H 0.1379 0.6054 0.6965
C36 C -0.1567(9) 0.4469(13) 0.3804(7)
H47 H -0.1814 0.3636 0.3795
H48 H -0.2156 0.4792 0.4067
C37 C -0.1662(9) 0.4190(9) 0.2729(6)
H49 H -0.0950 0.4064 0.2550
H50 H -0.1552 0.4999 0.2742
C38 C -0.2762(7) 0.3059(8) 0.1751(7)
C39 C -0.3146(8) 0.3074(9) 0.0758(8)
H51 H -0.2677 0.3830 0.0723
C40 C -0.4160(8) 0.2036(7) -0.0133(7)
H52 H -0.4362 0.2092 -0.0770
C41 C -0.3544(8) 0.1942(9) 0.1746(7)
H53 H -0.3385 0.1882 0.2388
C42 C -0.4580(7) 0.0887(8) 0.0795(7)
H54 H -0.5074 0.0123 0.0810
Cd1_2 Cd -0.65524(2) -0.09444(2) -0.175137(19)
N2_2 N 0.5109(7) 1.0925(7) 0.9864(6)
Cd2 Cd 0.51061(2) 0.14615(2) 0.47254(2)
O3 O 0.3768(5) 0.0725(5) 0.5756(4)
O11 O 1.1419(5) 0.1094(7) 0.3982(7)
O12 O 1.1201(5) -0.0065(6) 0.4818(6)
O13 O 0.6745(5) 0.1291(5) 0.3821(5)
O14 O 0.5909(5) -0.0093(5) 0.4414(5)
O15 O 0.3990(7) 0.7765(6) 0.4871(6)
O16 O 0.5008(6) 0.7310(7) 0.3602(7)
O17 O 0.5364(5) 0.3137(6) 0.4207(5)
O18 O 0.3797(5) 0.2496(5) 0.4817(5)
N3 N 0.3442(6) -0.0395(7) 0.3056(6)
N4 N -0.3281(6) -0.7017(7) -0.3584(6)
C21 C 0.9358(6) -0.0531(7) 0.3565(6)
C22 C 0.8641(4) 0.0125(5) 0.4369(4)
C23 C 0.7433(6) -0.0361(8) 0.3452(6)
H29 H 0.6904 -0.1331 0.3121
C24 C 0.7949(5) -0.0165(6) 0.2516(4)
H30 H 0.7320 -0.0802 0.1767
H31 H 0.8195 0.0744 0.2689
C25 C 0.9051(5) -0.0407(7) 0.2521(5)
H32 H 0.9763 0.0336 0.2571
H33 H 0.8869 -0.1232 0.1812
C26 C 0.8841(5) -0.2034(6) 0.3176(6)
H34 H 0.8997 -0.2103 0.3836
H35 H 0.9247 -0.2425 0.2650
H36 H 0.7957 -0.2508 0.2799
C27 C 0.9403(8) 0.1673(8) 0.5093(8)
H37 H 1.0125 0.1937 0.5656
H38 H 0.8896 0.2045 0.5476
H39 H 0.9663 0.2005 0.4599
C28 C 0.8329(6) -0.0336(7) 0.5214(5)
H40 H 0.9088 -0.0023 0.5762
H41 H 0.7876 -0.1305 0.4800
H42 H 0.7826 0.0030 0.5611
C29 C 1.0750(7) 0.0208(8) 0.4213(7)
C30 C 0.6667(6) 0.0364(7) 0.3949(6)
C43 C 0.2772(8) -0.1547(9) 0.2996(7)
H55 H 0.3031 -0.1651 0.3586
C44 C 0.1698(8) -0.2612(9) 0.2089(8)
H56 H 0.1240 -0.3405 0.2075
C45 C 0.1345(10) -0.2452(11) 0.1233(8)
C46 C 0.2063(8) -0.1261(9) 0.1258(7)
H57 H 0.1855 -0.1149 0.0658
C47 C 0.3071(8) -0.0284(9) 0.2190(7)
H58 H 0.3537 0.0523 0.2227
C48 C -0.0007(8) -0.3553(11) 0.0266(8)
H59 H -0.0540 -0.4093 0.0533
H60 H -0.0415 -0.3104 0.0101
C49 C 0.0222(8) -0.4377(10) -0.0730(8)
H61 H 0.0500 -0.4935 -0.0595
H62 H 0.0874 -0.3815 -0.0906
C50 C -0.1025(8) -0.5307(11) -0.1781(7)
C51 C -0.1421(8) -0.4928(9) -0.2442(8)
H63 H -0.0931 -0.4067 -0.2299
C52 C -0.2511(8) -0.5757(9) -0.3309(7)
H64 H -0.2739 -0.5437 -0.3736
C53 C -0.1852(8) -0.6575(8) -0.1978(7)
H65 H -0.1658 -0.6867 -0.1511
C54 C -0.2931(8) -0.7366(9) -0.2853(8)
H66 H -0.3468 -0.8199 -0.2964
C55 C 0.3644(7) 0.5469(8) 0.3732(7)
C56 C 0.4592(4) 0.4970(5) 0.3893(5)
C57 C 0.3772(7) 0.3727(7) 0.3918(6)
H67 H 0.3262 0.3027 0.3118
C58 C 0.2834(6) 0.4102(8) 0.4571(8)
H68 H 0.1993 0.3350 0.4184
H69 H 0.3085 0.4328 0.5358
C59 C 0.2887(7) 0.5296(8) 0.4553(8)
H70 H 0.3292 0.6100 0.5320
H71 H 0.2051 0.5140 0.4277
C60 C 0.2806(7) 0.4713(6) 0.2523(6)
H72 H 0.3303 0.4830 0.2031
H73 H 0.2230 0.5055 0.2509
H74 H 0.2351 0.3770 0.2254
C61 C 0.5196(7) 0.4659(8) 0.2938(7)
H75 H 0.5780 0.4374 0.3086
H76 H 0.5628 0.5456 0.2908
H77 H 0.4564 0.3952 0.2214
C62 C 0.5632(8) 0.6047(9) 0.5066(8)
H78 H 0.6203 0.5725 0.5162
H79 H 0.5261 0.6210 0.5680
H80 H 0.6075 0.6872 0.5081
C63 C 0.4296(11) 0.6963(12) 0.4099(9)
C64 C 0.4374(7) 0.3080(7) 0.4343(6)
Cd2_2 Cd -0.48939(2) -0.85385(2) -0.52746(2)
N4_2 N 0.6719(6) 0.2983(7) 0.6416(6)
loop_
_geom_bond_atom_site_label_1
_geom_bond_atom_site_label_2
_geom_bond_site_symmetry_1
_geom_bond_site_symmetry_2
Cd1 O1 1_555 1_555
Cd2 O3 1_555 1_555
O2 Cd1 1_555 1_555
O4 Cd1 1_555 1_555
O5 C9 1_555 1_555
O6 C9 1_555 1_555
O7 C19 1_555 1_555
O8 C19 1_555 1_555
O9 Cd1 1_555 1_555
O10 Cd1 1_555 1_555
O11 C29 1_555 1_555
O12 C29 1_555 1_555
O13 Cd2 1_555 1_555
O14 Cd2 1_555 1_555
O15 C63 1_555 1_555
O16 C63 1_555 1_555
O17 Cd2 1_555 1_555
O18 Cd2 1_555 1_555
N1 Cd1 1_555 1_555
N2 C40 1_555 1_555
N3 Cd2 1_555 1_555
N4 C52 1_555 1_555
C1 C2 1_555 1_555
C2 C3 1_555 1_555
C3 H1 1_555 1_555
C4 C3 1_555 1_555
H2 C4 1_555 1_555
H3 C4 1_555 1_555
C5 C1 1_555 1_555
H4 C5 1_555 1_555
H5 C5 1_555 1_555
C6 C1 1_555 1_555
H6 C6 1_555 1_555
H7 C6 1_555 1_555
H8 C6 1_555 1_555
C7 C2 1_555 1_555
H9 C7 1_555 1_555
H10 C7 1_555 1_555
H11 C7 1_555 1_555
C8 C2 1_555 1_555
H12 C8 1_555 1_555
H13 C8 1_555 1_555
H14 C8 1_555 1_555
C9 C1 1_555 1_555
C10 O2 1_555 1_555
C11 C12 1_555 1_555
C12 C13 1_555 1_555
C13 H15 1_555 1_555
C14 C13 1_555 1_555
H16 C14 1_555 1_555
H17 C14 1_555 1_555
C15 C11 1_555 1_555
H18 C15 1_555 1_555
H19 C15 1_555 1_555
C16 C11 1_555 1_555
H20 C16 1_555 1_555
H21 C16 1_555 1_555
H22 C16 1_555 1_555
C17 C12 1_555 1_555
H23 C17 1_555 1_555
H24 C17 1_555 1_555
H25 C17 1_555 1_555
C18 C12 1_555 1_555
H26 C18 1_555 1_555
H27 C18 1_555 1_555
H28 C18 1_555 1_555
C19 C11 1_555 1_555
C20 O9 1_555 1_555
C21 C22 1_555 1_555
C22 C23 1_555 1_555
C23 H29 1_555 1_555
C24 C23 1_555 1_555
H30 C24 1_555 1_555
H31 C24 1_555 1_555
C25 C21 1_555 1_555
H32 C25 1_555 1_555
H33 C25 1_555 1_555
C26 C21 1_555 1_555
H34 C26 1_555 1_555
H35 C26 1_555 1_555
H36 C26 1_555 1_555
C27 C22 1_555 1_555
H37 C27 1_555 1_555
H38 C27 1_555 1_555
H39 C27 1_555 1_555
C28 C22 1_555 1_555
H40 C28 1_555 1_555
H41 C28 1_555 1_555
H42 C28 1_555 1_555
C29 C21 1_555 1_555
C30 O13 1_555 1_555
C31 N1 1_555 1_555
H43 C31 1_555 1_555
C32 C31 1_555 1_555
H44 C32 1_555 1_555
C33 C32 1_555 1_555
C34 C33 1_555 1_555
H45 C34 1_555 1_555
C35 N1 1_555 1_555
H46 C35 1_555 1_555
C36 C33 1_555 1_555
H47 C36 1_555 1_555
H48 C36 1_555 1_555
C37 C36 1_555 1_555
H49 C37 1_555 1_555
H50 C37 1_555 1_555
C38 C37 1_555 1_555
C39 C38 1_555 1_555
H51 C39 1_555 1_555
C40 C39 1_555 1_555
H52 C40 1_555 1_555
C41 C38 1_555 1_555
H53 C41 1_555 1_555
C42 N2 1_555 1_555
H54 C42 1_555 1_555
C43 N3 1_555 1_555
H55 C43 1_555 1_555
C44 C43 1_555 1_555
H56 C44 1_555 1_555
C45 C44 1_555 1_555
C46 C45 1_555 1_555
H57 C46 1_555 1_555
C47 N3 1_555 1_555
H58 C47 1_555 1_555
C48 C45 1_555 1_555
H59 C48 1_555 1_555
H60 C48 1_555 1_555
C49 C48 1_555 1_555
H61 C49 1_555 1_555
H62 C49 1_555 1_555
C50 C49 1_555 1_555
C51 C50 1_555 1_555
H63 C51 1_555 1_555
C52 C51 1_555 1_555
H64 C52 1_555 1_555
C53 C50 1_555 1_555
H65 C53 1_555 1_555
C54 N4 1_555 1_555
H66 C54 1_555 1_555
C55 C56 1_555 1_555
C56 C57 1_555 1_555
C57 H67 1_555 1_555
C58 C57 1_555 1_555
H68 C58 1_555 1_555
H69 C58 1_555 1_555
C59 C55 1_555 1_555
H70 C59 1_555 1_555
H71 C59 1_555 1_555
C60 C55 1_555 1_555
H72 C60 1_555 1_555
H73 C60 1_555 1_555
H74 C60 1_555 1_555
C61 C56 1_555 1_555
H75 C61 1_555 1_555
H76 C61 1_555 1_555
H77 C61 1_555 1_555
C62 C56 1_555 1_555
H78 C62 1_555 1_555
H79 C62 1_555 1_555
H80 C62 1_555 1_555
C63 C55 1_555 1_555
C64 O17 1_555 1_555
Cd1_2 N2 1_555 1_555
Cd2_2 N4 1_555 1_555
N2_2 Cd1 1_555 1_555
N4_2 Cd2 1_555 1_555
O4 C10 1_555 1_555
O10 C20 1_555 1_555
O14 C30 1_555 1_555
O18 C64 1_555 1_555
C3 C10 1_555 1_555
C4 C5 1_555 1_555
C13 C20 1_555 1_555
C14 C15 1_555 1_555
C23 C30 1_555 1_555
C24 C25 1_555 1_555
C34 C35 1_555 1_555
C41 C42 1_555 1_555
C46 C47 1_555 1_555
C53 C54 1_555 1_555
C57 C64 1_555 1_555
C58 C59 1_555 1_555

#END
