
#######################################################################
#
#                 Cambridge Crystallographic Data Centre
#                                CCDC 
#
#######################################################################
#
# If this CIF has been generated from an entry in the Cambridge 
# Structural Database, then it will include bibliographic, chemical, 
# crystal, experimental, refinement or atomic coordinate data resulting 
# from the CCDC's data processing and validation procedures.
#
#######################################################################

data_PAKLAQ
_symmetry_cell_setting           monoclinic
_symmetry_space_group_name_H-M   'P 21'
_symmetry_Int_Tables_number      4
_space_group_name_Hall           'P 2yb'
loop_
_symmetry_equiv_pos_site_id
_symmetry_equiv_pos_as_xyz
1 x,y,z
2 -x,1/2+y,-z
_cell_length_a                   10.8867(6)
_cell_length_b                   11.3689(6)
_cell_length_c                   16.9278(8)
_cell_angle_alpha                90
_cell_angle_beta                 97.113(3)
_cell_angle_gamma                90
_cell_volume                     2079.03
loop_
_atom_site_label
_atom_site_type_symbol
_atom_site_fract_x
_atom_site_fract_y
_atom_site_fract_z
Zn1 Zn 0.51495(5) 0.67823(5) 0.29895(3)
Zn2 Zn 0.54478(5) 0.45131(4) -0.19429(3)
O1 O 0.4202(3) 0.4453(4) -0.12331(18)
O2 O 0.4116(3) 0.6832(4) 0.38222(19)
O3 O 0.4508(3) 0.6707(4) 0.18709(17)
O4 O 0.3388(3) 0.8273(4) 0.1492(2)
O5 O 0.5004(3) 0.4548(4) 0.69102(17)
O6 O 0.3659(3) 0.3071(4) 0.6656(2)
O7 O 0.3254(4) 0.5224(4) 0.3262(2)
O8 O 0.3469(4) 0.6089(4) -0.1821(2)
N1 N 0.6391(4) 0.5467(4) 0.3139(3)
N2 N 0.6608(4) 0.5900(4) -0.1761(3)
N3 N 1.1175(5) 1.0390(5) -0.1136(3)
N4 N 1.1010(5) 0.0986(5) 0.3834(3)
C1 C 0.4700(4) 0.6887(7) -0.0042(3)
H1 H 0.4287 0.7567 -0.0283
H2 H 0.5189 0.6530 -0.0411
H3 H 0.5227 0.7118 0.0429
C2 C 0.3759(5) 0.6024(6) 0.0174(3)
C3 C 0.2233(7) 0.4496(7) -0.0313(4)
H4 H 0.1654 0.4237 -0.0753
H5 H 0.1801 0.4651 0.0137
H6 H 0.2842 0.3895 -0.0178
C4 C 0.4569(7) 0.4930(5) 0.0577(4)
H7 H 0.5134 0.5210 0.1017
H8 H 0.5026 0.4577 0.0189
H9 H 0.4026 0.4356 0.0763
C5 C 0.2964(4) 0.6478(5) 0.0771(3)
H10 H 0.2632 0.5794 0.1026
C6 C 0.1885(6) 0.7091(6) 0.0293(4)
H11 H 0.1966 0.7939 0.0338
H12 H 0.1107 0.6854 0.0468
C7 C 0.1469(5) 0.5455(7) 0.4367(4)
H13 H 0.1347 0.4827 0.3986
H14 H 0.1090 0.6159 0.4139
H15 H 0.1098 0.5247 0.4833
C8 C 1.1362(6) 1.2131(6) -0.2258(4)
H16 H 1.1417 1.2708 -0.2641
C9 C 0.4037(5) 0.4103(5) 0.6549(3)
C10 C 0.4919(5) 0.4620(7) 0.4982(3)
H17 H 0.5328 0.3966 0.5260
H18 H 0.5254 0.5342 0.5211
H19 H 0.5045 0.4588 0.4431
C11 C 0.3664(4) 0.7199(5) 0.1415(3)
C12 C 0.6516(5) 0.6837(7) -0.2246(3)
H20 H 0.5866 0.6864 -0.2657
C13 C 0.6333(5) 0.4513(6) 0.2670(3)
H21 H 0.5665 0.4447 0.2273
C14 C 0.7351(5) 0.5501(5) 0.3707(4)
H22 H 0.7427 0.6151 0.4042
C15 C 0.7207(5) 0.3618(5) 0.2738(3)
H23 H 0.7132 0.2990 0.2384
C16 C 0.2857(4) 0.5593(5) -0.0539(3)
C17 C 0.9263(5) 0.1859(7) 0.3012(3)
H24 H 0.8681 0.1778 0.2565
C18 C 0.7338(6) 0.7760(6) -0.2162(3)
H25 H 0.7228 0.8400 -0.2506
C19 C 0.7549(5) 0.5887(5) -0.1175(3)
H26 H 0.7628 0.5242 -0.0835
C20 C 1.0222(5) 0.0940(6) 0.3160(4)
C21 C 0.8396(4) 0.6763(6) -0.1048(3)
H27 H 0.9017 0.6719 -0.0619
C22 C 1.0329(6) 1.0486(7) -0.1773(4)
C23 C 0.3517(5) 0.5379(5) -0.1262(3)
C24 C 0.2832(5) 0.5659(5) 0.4591(3)
C25 C 0.9318(5) 0.9613(7) -0.1890(4)
H28 H 0.8681 0.9733 -0.2302
C26 C 0.8241(4) 0.4634(6) 0.3831(3)
H29 H 0.8877 0.4705 0.4248
C27 C 0.3527(4) 0.4565(5) 0.5051(3)
C28 C 1.2098(6) 1.1181(6) -0.1070(4)
H30 H 1.2690 1.1139 -0.0625
C29 C 0.3286(5) 0.4837(5) 0.5926(3)
H31 H 0.2409 0.4689 0.5965
C30 C 1.1207(6) -0.0780(6) 0.2749(4)
H32 H 1.1276 -0.1369 0.2376
C31 C 0.8337(5) 0.7737(6) -0.1562(3)
C32 C 0.8193(5) 0.3670(5) 0.3342(3)
C33 C 0.3424(5) 0.5896(6) 0.3829(3)
C34 C 1.2013(5) -0.0734(6) 0.3427(4)
H33 H 1.2638 -0.1291 0.3532
C35 C 0.9278(5) 0.8678(6) -0.1441(4)
H34 H 0.9892 0.8600 -0.1011
C36 C 0.3511(5) 0.6184(4) 0.6004(3)
H35 H 0.3093 0.6505 0.6429
H36 H 0.4389 0.6351 0.6117
C37 C 0.9176(5) 0.2762(6) 0.3457(4)
H37 H 0.9783 0.2855 0.3889
C38 C 0.2996(5) 0.6697(5) 0.5223(3)
H38 H 0.3556 0.7288 0.5060
H39 H 0.2204 0.7067 0.5266
C39 C 0.3022(6) 0.3389(5) 0.4755(3)
H40 H 0.3475 0.2772 0.5048
H41 H 0.3107 0.3310 0.4199
H42 H 0.2164 0.3336 0.4828
C40 C 0.1969(6) 0.6663(8) -0.0612(4)
H43 H 0.1159 0.6437 -0.0870
H44 H 0.2292 0.7286 -0.0918
C41 C 1.2221(5) 1.2053(6) -0.1622(4)
H45 H 1.2884 1.2574 -0.1553
C42 C 1.0392(6) 1.1336(7) -0.2336(4)
H46 H 0.9783 1.1381 -0.2771
C43 C 1.0285(6) 0.0052(7) 0.2616(4)
H47 H 0.9710 0.0012 0.2163
C44 C 1.1877(6) 0.0149(8) 0.3946(5)
H48 H 1.2425 0.0176 0.4412
Zn1A Zn 0.48505(5) 0.17823(5) 0.70105(3)
Zn2A Zn 0.45522(5) 0.95131(4) 0.19429(3)
Zn2_2 Zn 0.54478(5) 0.45131(4) 0.80571(3)
O4A O 0.6612(3) 0.3273(4) -0.1492(2)
O5_2 O 0.5004(3) 0.4548(4) -0.30898(17)
O6A O 0.6341(3) 0.8071(4) 0.3344(2)
loop_
_geom_bond_atom_site_label_1
_geom_bond_atom_site_label_2
_geom_bond_site_symmetry_1
_geom_bond_site_symmetry_2
Zn1 O2 1_555 1_555
Zn2 O1 1_555 1_555
O1 C23 1_555 1_555
O2 C33 1_555 1_555
O3 Zn1 1_555 1_555
O4 C11 1_555 1_555
O5 C9 1_555 1_555
O6 C9 1_555 1_555
O7 C33 1_555 1_555
O8 C23 1_555 1_555
N1 Zn1 1_555 1_555
N2 Zn2 1_555 1_555
N3 C22 1_555 1_555
N4 C20 1_555 1_555
C1 H1 1_555 1_555
H2 C1 1_555 1_555
H3 C1 1_555 1_555
C2 C1 1_555 1_555
C3 H4 1_555 1_555
H5 C3 1_555 1_555
H6 C3 1_555 1_555
C4 C2 1_555 1_555
H7 C4 1_555 1_555
H8 C4 1_555 1_555
H9 C4 1_555 1_555
C5 C2 1_555 1_555
H10 C5 1_555 1_555
C6 C5 1_555 1_555
H11 C6 1_555 1_555
H12 C6 1_555 1_555
C7 H13 1_555 1_555
H14 C7 1_555 1_555
H15 C7 1_555 1_555
C8 H16 1_555 1_555
C9 C29 1_555 1_555
C10 H17 1_555 1_555
H18 C10 1_555 1_555
H19 C10 1_555 1_555
C11 O3 1_555 1_555
C12 N2 1_555 1_555
H20 C12 1_555 1_555
C13 N1 1_555 1_555
H21 C13 1_555 1_555
C14 N1 1_555 1_555
H22 C14 1_555 1_555
C15 C13 1_555 1_555
H23 C15 1_555 1_555
C16 C2 1_555 1_555
C17 H24 1_555 1_555
C18 C12 1_555 1_555
H25 C18 1_555 1_555
C19 N2 1_555 1_555
H26 C19 1_555 1_555
C20 C17 1_555 1_555
C21 C19 1_555 1_555
H27 C21 1_555 1_555
C22 C25 1_555 1_555
C23 C16 1_555 1_555
C24 C7 1_555 1_555
C25 H28 1_555 1_555
C26 C14 1_555 1_555
H29 C26 1_555 1_555
C27 C10 1_555 1_555
C28 N3 1_555 1_555
H30 C28 1_555 1_555
C29 C27 1_555 1_555
H31 C29 1_555 1_555
C30 H32 1_555 1_555
C31 C18 1_555 1_555
C32 C15 1_555 1_555
C33 C24 1_555 1_555
C34 C30 1_555 1_555
H33 C34 1_555 1_555
C35 C25 1_555 1_555
H34 C35 1_555 1_555
C36 C29 1_555 1_555
H35 C36 1_555 1_555
H36 C36 1_555 1_555
C37 C17 1_555 1_555
H37 C37 1_555 1_555
C38 C24 1_555 1_555
H38 C38 1_555 1_555
H39 C38 1_555 1_555
C39 C27 1_555 1_555
H40 C39 1_555 1_555
H41 C39 1_555 1_555
H42 C39 1_555 1_555
C40 C6 1_555 1_555
H43 C40 1_555 1_555
H44 C40 1_555 1_555
C41 C8 1_555 1_555
H45 C41 1_555 1_555
C42 C8 1_555 1_555
H46 C42 1_555 1_555
C43 C20 1_555 1_555
H47 C43 1_555 1_555
C44 N4 1_555 1_555
H48 C44 1_555 1_555
Zn1A O6 1_555 1_555
Zn2A O4 1_555 1_555
Zn2_2 O5 1_555 1_555
O4A Zn2 1_555 1_555
O5_2 Zn2 1_555 1_555
O6A Zn1 1_555 1_555
C3 C16 1_555 1_555
C5 C11 1_555 1_555
C16 C40 1_555 1_555
C21 C31 1_555 1_555
C22 C42 1_555 1_555
C24 C27 1_555 1_555
C26 C32 1_555 1_555
C28 C41 1_555 1_555
C30 C43 1_555 1_555
C31 C35 1_555 1_555
C32 C37 1_555 1_555
C34 C44 1_555 1_555
C36 C38 1_555 1_555

#END
