
#######################################################################
#
#                 Cambridge Crystallographic Data Centre
#                                CCDC 
#
#######################################################################
#
# If this CIF has been generated from an entry in the Cambridge 
# Structural Database, then it will include bibliographic, chemical, 
# crystal, experimental, refinement or atomic coordinate data resulting 
# from the CCDC's data processing and validation procedures.
#
#######################################################################

data_PAKLAO
_symmetry_cell_setting           monoclinic
_symmetry_space_group_name_H-M   'P 21/c'
_symmetry_Int_Tables_number      14
_space_group_name_Hall           '-P 2ybc'
loop_
_symmetry_equiv_pos_site_id
_symmetry_equiv_pos_as_xyz
1 x,y,z
2 -x,1/2+y,1/2-z
3 -x,-y,-z
4 x,1/2-y,1/2+z
_cell_length_a                   6.780(2)
_cell_length_b                   32.311(4)
_cell_length_c                   8.162(2)
_cell_angle_alpha                90
_cell_angle_beta                 111.55(2)
_cell_angle_gamma                90
_cell_volume                     1663.05
loop_
_atom_site_label
_atom_site_type_symbol
_atom_site_fract_x
_atom_site_fract_y
_atom_site_fract_z
La1 La 0.03606(3) 0.15709(1) 0.33443(2)
Cu1 Cu 0.00000 0.00000 0.00000
O1 O -0.0232(4) 0.20581(8) 0.0612(3)
O2 O 0.3833(4) 0.13637(8) 0.5803(3)
O3 O 0.2695(4) 0.13236(8) 0.1715(3)
O4 O -0.2518(4) 0.12994(8) 0.0472(3)
O5 O -0.2596(4) 0.11998(8) 0.4160(3)
O6 O 0.0549(4) 0.1871(1) 0.6328(3)
O7 O -0.2118(4) 0.03762(7) 0.0340(3)
O8 O 0.2767(4) 0.05168(8) 0.0558(3)
O10 O 0.2674(4) 0.21844(8) 0.3784(3)
O11 O 0.6790(4) 0.19657(7) 0.7251(3)
O12 O -0.2490(4) 0.20583(8) 0.3146(3)
O13 O 0.3817(4) 0.31676(7) 0.4463(3)
O14 O 0.1017(4) -0.01815(7) 0.2467(3)
O15 O 0.0721(4) 0.07893(7) 0.3444(3)
O16 O 0.3968(4) 0.05985(8) 0.7458(3)
O17 O 0.3747(4) -0.03795(7) 0.6489(3)
C1 C 0.4061(5) 0.2391(1) 0.4950(4)
C2 C 0.5867(5) 0.2295(1) 0.6533(4)
C3 C -0.3765(5) 0.2265(1) 0.1904(4)
C4 C 0.4520(5) 0.2834(1) 0.5261(4)
C5 C 0.1721(5) 0.0046(1) 0.3845(4)
C6 C 0.1651(5) 0.0477(1) 0.4286(4)
C7 C 0.3064(5) 0.0390(1) 0.6108(4)
C8 C 0.3007(5) -0.0055(1) 0.5669(4)
C3C C 0.6235(5) 0.2735(1) 0.6904(4)
C2C C -0.4133(5) 0.2705(1) 0.1533(4)
C4C C -0.5480(5) 0.2166(1) 0.0261(4)
O7B O 0.2118(4) -0.03762(7) -0.0340(3)
O8B O -0.2767(4) -0.05168(8) -0.0558(3)
O14B O -0.1017(4) 0.01815(7) -0.2467(3)
O12C O 0.7510(4) 0.29417(8) 0.8146(3)
O11C O -0.3210(4) 0.30343(7) 0.2251(3)
C1C C -0.5939(5) 0.2609(1) -0.0050(4)
O13C O -0.6183(4) 0.18324(7) -0.0537(3)
C5B C -0.1721(5) -0.0046(1) -0.3845(4)
La1C La 1.03606(3) 0.34291(1) 0.83443(2)
O10C O -0.7326(4) 0.28156(8) -0.1216(3)
C6B C -0.1651(5) -0.0477(1) -0.4286(4)
C8B C -0.3007(5) 0.0055(1) -0.5669(4)
O1C O 0.9768(4) 0.29419(8) 0.5612(3)
O2C O 1.3833(4) 0.36363(8) 1.0803(3)
O3C O 1.2695(4) 0.36764(8) 0.6715(3)
O4C O 0.7482(4) 0.37006(8) 0.5472(3)
O5C O 0.7404(4) 0.38002(8) 0.9160(3)
O6C O 1.0549(4) 0.3129(1) 1.1328(3)
O10C_2 O 1.2674(4) 0.28156(8) 0.8784(3)
O15C O 1.0721(4) 0.42107(7) 0.8444(3)
La1C_2 La -0.96394(3) 0.34291(1) -0.16557(2)
O15B O -0.0721(4) -0.07893(7) -0.3444(3)
C7B C -0.3064(5) -0.0390(1) -0.6108(4)
O17B O -0.3747(4) 0.03795(7) -0.6489(3)
La1B La -0.03606(3) -0.15709(1) -0.33443(2)
O16B O -0.3968(4) -0.05985(8) -0.7458(3)
O9 O -0.1050(5) 0.10672(9) -0.2039(4)
loop_
_geom_bond_atom_site_label_1
_geom_bond_atom_site_label_2
_geom_bond_site_symmetry_1
_geom_bond_site_symmetry_2
La1 O1 1_555 1_555
Cu1 O7 1_555 1_555
O2 La1 1_555 1_555
O3 La1 1_555 1_555
O4 La1 1_555 1_555
O5 La1 1_555 1_555
O6 La1 1_555 1_555
O8 Cu1 1_555 1_555
O10 La1 1_555 1_555
O11 C2 1_555 1_555
O12 La1 1_555 1_555
O13 C4 1_555 1_555
O14 Cu1 1_555 1_555
O15 La1 1_555 1_555
O16 C7 1_555 1_555
O17 C8 1_555 1_555
C1 O10 1_555 1_555
C2 C1 1_555 1_555
C3 O12 1_555 1_555
C4 C1 1_555 1_555
C5 O14 1_555 1_555
C6 O15 1_555 1_555
C7 C6 1_555 1_555
C8 C5 1_555 1_555
C3C C2 1_555 1_555
C2C C3 1_555 1_555
C4C C3 1_555 1_555
O7B Cu1 1_555 1_555
O8B Cu1 1_555 1_555
O14B Cu1 1_555 1_555
O12C C3C 1_555 1_555
O11C C2C 1_555 1_555
C1C C2C 1_555 1_555
O13C C4C 1_555 1_555
C5B O14B 1_555 1_555
La1C O12C 1_555 1_555
O10C C1C 1_555 1_555
C6B C5B 1_555 1_555
C8B C5B 1_555 1_555
O1C La1C 1_555 1_555
O2C La1C 1_555 1_555
O3C La1C 1_555 1_555
O4C La1C 1_555 1_555
O5C La1C 1_555 1_555
O6C La1C 1_555 1_555
O10C_2 La1C 1_555 1_555
O15C La1C 1_555 1_555
La1C_2 O10C 1_555 1_555
O15B C6B 1_555 1_555
C7B C6B 1_555 1_555
O17B C8B 1_555 1_555
La1B O15B 1_555 1_555
O16B C7B 1_555 1_555
C4 C3C 1_555 1_555
C5 C6 1_555 1_555
C7 C8 1_555 1_555
C4C C1C 1_555 1_555
C8B C7B 1_555 1_555

#END
