
#######################################################################
#
#                 Cambridge Crystallographic Data Centre
#                                CCDC 
#
#######################################################################
#
# If this CIF has been generated from an entry in the Cambridge 
# Structural Database, then it will include bibliographic, chemical, 
# crystal, experimental, refinement or atomic coordinate data resulting 
# from the CCDC's data processing and validation procedures.
#
#######################################################################

data_PALCUA10
_symmetry_cell_setting           monoclinic
_symmetry_space_group_name_H-M   'P 21/c'
_symmetry_Int_Tables_number      14
_space_group_name_Hall           '-P 2ybc'
loop_
_symmetry_equiv_pos_site_id
_symmetry_equiv_pos_as_xyz
1 x,y,z
2 -x,1/2+y,1/2-z
3 -x,-y,-z
4 x,1/2-y,1/2+z
_cell_length_a                   6.64(1)
_cell_length_b                   19.91(1)
_cell_length_c                   7.55(1)
_cell_angle_alpha                90
_cell_angle_beta                 109.9(1)
_cell_angle_gamma                90
_cell_volume                     938.528
loop_
_atom_site_label
_atom_site_type_symbol
_atom_site_fract_x
_atom_site_fract_y
_atom_site_fract_z
C1 C -0.46270 0.27520 0.43830
Cu1 Cu 0.05420 -0.00470 0.30530
C2 C -0.36140 0.14520 0.36460
C3 C -0.57380 0.16330 0.33780
C4 C -0.62180 0.22770 0.37430
C5 C -0.24790 0.25790 0.47200
C6 C -0.20100 0.19330 0.43320
C7 C -0.30610 0.08000 0.30030
C8 C -0.74530 0.11140 0.28250
H1 H -0.78330 0.23610 0.37170
H2 H -0.50000 0.32080 0.47530
H3 H -0.13330 0.29010 0.52530
H4 H -0.05210 0.18110 0.44770
N1 N -0.18300 -0.07080 0.20570
N2 N 0.25550 -0.05540 0.20940
O1 O -0.43090 0.05500 0.15310
O2 O -0.12720 0.05410 0.40200
O3 O -0.90150 0.11620 0.13290
O4 O -0.71990 0.06370 0.40100
O4_2 O 0.28010 0.06370 0.40100
Cu1_2 Cu -0.94580 -0.00470 0.30530
loop_
_geom_bond_atom_site_label_1
_geom_bond_atom_site_label_2
_geom_bond_site_symmetry_1
_geom_bond_site_symmetry_2
C1 C4 1_555 1_555
Cu1 N1 1_555 1_555
C2 C3 1_555 1_555
C3 C4 1_555 1_555
C4 H1 1_555 1_555
C5 C1 1_555 1_555
C6 C2 1_555 1_555
C7 C2 1_555 1_555
C8 C3 1_555 1_555
H2 C1 1_555 1_555
H3 C5 1_555 1_555
H4 C6 1_555 1_555
N2 Cu1 1_555 1_555
O1 C7 1_555 1_555
O2 Cu1 1_555 1_555
O3 C8 1_555 1_555
O4 C8 1_555 1_555
O4_2 Cu1 1_555 1_555
Cu1_2 O4 1_555 1_555
C5 C6 1_555 1_555
C7 O2 1_555 1_555

#END
