
#######################################################################
#
#                 Cambridge Crystallographic Data Centre
#                                CCDC 
#
#######################################################################
#
# If this CIF has been generated from an entry in the Cambridge 
# Structural Database, then it will include bibliographic, chemical, 
# crystal, experimental, refinement or atomic coordinate data resulting 
# from the CCDC's data processing and validation procedures.
#
#######################################################################

data_PALJOC
_symmetry_cell_setting           monoclinic
_symmetry_space_group_name_H-M   'P 21/c'
_symmetry_Int_Tables_number      14
_space_group_name_Hall           '-P 2ybc'
loop_
_symmetry_equiv_pos_site_id
_symmetry_equiv_pos_as_xyz
1 x,y,z
2 -x,1/2+y,1/2-z
3 -x,-y,-z
4 x,1/2-y,1/2+z
_cell_length_a                   11.5398(8)
_cell_length_b                   9.1731(6)
_cell_length_c                   15.8756(11)
_cell_angle_alpha                90
_cell_angle_beta                 97.857(2)
_cell_angle_gamma                90
_cell_volume                     1664.75
loop_
_atom_site_label
_atom_site_type_symbol
_atom_site_fract_x
_atom_site_fract_y
_atom_site_fract_z
Zn1 Zn 0.73217(8) 0.53032(9) 0.34409(5)
N1 N 0.7636(6) 0.4384(6) 0.4695(4)
N2 N 0.7381(6) -0.2438(7) 0.3633(4)
C1 C 0.7748(8) 0.5127(9) 0.5418(5)
H1 H 0.7778 0.6139 0.5393
C2 C 0.7822(8) 0.4467(10) 0.6205(5)
H2 H 0.7937 0.5020 0.6701
C3 C 0.7724(10) 0.2978(11) 0.6241(5)
H3 H 0.7732 0.2512 0.6762
C4 C 0.7611(9) 0.2171(9) 0.5492(5)
H4 H 0.7564 0.1159 0.5499
C5 C 0.7572(7) 0.2926(8) 0.4745(5)
C6 C 0.7414(7) 0.2189(8) 0.3898(5)
C7 C 0.8274(8) -0.1760(8) 0.4089(5)
H5 H 0.8904 -0.2316 0.4336
C8 C 0.8311(7) -0.0286(9) 0.4211(5)
H6 H 0.8939 0.0138 0.4554
C9 C 0.7411(7) 0.0567(7) 0.3825(5)
C10 C 0.6503(8) -0.0094(8) 0.3315(5)
H7 H 0.5902 0.0456 0.3021
C11 C 0.6503(8) -0.1605(8) 0.3250(5)
H8 H 0.5870 -0.2060 0.2929
O1 O 0.7205(5) 0.2921(6) 0.3243(3)
O8 O 0.5489(5) 0.5271(7) 0.3512(3)
H9 H 0.5208 0.5519 0.4040
H10 H 0.4893 0.4606 0.3372
O9 O 0.9103(5) 0.5220(7) 0.3377(4)
H11 H 0.9350 0.5547 0.2819
H12 H 0.9647 0.4373 0.3201
O10 O 0.6997(5) 0.5406(6) 0.2124(3)
H13 H 0.7643 0.5260 0.1841
H14 H 0.6547 0.6318 0.1861
Zn1_2 Zn 0.73217(8) -0.46968(9) 0.34409(5)
N2_2 N 0.7381(6) 0.7562(7) 0.3633(4)
N3 N 0.5574(7) 0.7367(8) 0.0495(5)
O2 O 0.6253(9) 0.6466(9) 0.0303(5)
O3 O 0.5398(7) 0.7424(7) 0.1259(4)
O4 O 0.5103(7) 0.8275(9) -0.0001(5)
N4 N 0.9552(7) 0.6881(8) 0.1477(5)
O5 O 0.9685(10) 0.7345(11) 0.2200(5)
O6 O 0.9038(7) 0.5723(8) 0.1335(5)
O7 O 1.0000(6) 0.7529(7) 0.0926(4)
loop_
_geom_bond_atom_site_label_1
_geom_bond_atom_site_label_2
_geom_bond_site_symmetry_1
_geom_bond_site_symmetry_2
Zn1 N1 1_555 1_555
N1 C1 1_555 1_555
N2 C7 1_555 1_555
N3 O2 1_555 1_555
N4 O5 1_555 1_555
C1 H1 1_555 1_555
C2 C1 1_555 1_555
H2 C2 1_555 1_555
C3 C2 1_555 1_555
H3 C3 1_555 1_555
C4 C3 1_555 1_555
H4 C4 1_555 1_555
C5 N1 1_555 1_555
C6 C5 1_555 1_555
C7 H5 1_555 1_555
C8 C7 1_555 1_555
H6 C8 1_555 1_555
C9 C6 1_555 1_555
C10 C9 1_555 1_555
H7 C10 1_555 1_555
C11 N2 1_555 1_555
H8 C11 1_555 1_555
O1 Zn1 1_555 1_555
O3 N3 1_555 1_555
O4 N3 1_555 1_555
O6 N4 1_555 1_555
O7 N4 1_555 1_555
O8 Zn1 1_555 1_555
H9 O8 1_555 1_555
H10 O8 1_555 1_555
O9 Zn1 1_555 1_555
H11 O9 1_555 1_555
H12 O9 1_555 1_555
O10 Zn1 1_555 1_555
H13 O10 1_555 1_555
H14 O10 1_555 1_555
Zn1_2 N2 1_555 1_555
N2_2 Zn1 1_555 1_555
C4 C5 1_555 1_555
C6 O1 1_555 1_555
C8 C9 1_555 1_555
C10 C11 1_555 1_555

#END
