
#######################################################################
#
#                 Cambridge Crystallographic Data Centre
#                                CCDC 
#
#######################################################################
#
# If this CIF has been generated from an entry in the Cambridge 
# Structural Database, then it will include bibliographic, chemical, 
# crystal, experimental, refinement or atomic coordinate data resulting 
# from the CCDC's data processing and validation procedures.
#
#######################################################################

data_PALTED
_symmetry_cell_setting           monoclinic
_symmetry_space_group_name_H-M   'P 21/c'
_symmetry_Int_Tables_number      14
_space_group_name_Hall           '-P 2ybc'
loop_
_symmetry_equiv_pos_site_id
_symmetry_equiv_pos_as_xyz
1 x,y,z
2 -x,1/2+y,1/2-z
3 -x,-y,-z
4 x,1/2-y,1/2+z
_cell_length_a                   8.392(4)
_cell_length_b                   12.451(6)
_cell_length_c                   29.364(14)
_cell_angle_alpha                90
_cell_angle_beta                 93.075(9)
_cell_angle_gamma                90
_cell_volume                     3063.79
loop_
_atom_site_label
_atom_site_type_symbol
_atom_site_fract_x
_atom_site_fract_y
_atom_site_fract_z
Mo1 Mo 0.32086(9) 0.42340(6) 0.48589(3)
Mo2 Mo 0.20689(9) 0.67148(6) 0.44263(3)
Mo3 Mo 0.47111(9) 0.53146(6) 0.38457(3)
Cu1 Cu 0.85842(13) 0.64399(9) 0.35920(4)
Cu2 Cu 0.67696(12) 0.37933(9) 0.44419(3)
O1 O 0.1428(8) 0.3672(6) 0.4975(2)
O2 O 0.4440(7) 0.3162(5) 0.4766(2)
O3 O 0.1780(8) 0.8012(5) 0.4568(2)
O4 O 0.3900(8) 0.6746(5) 0.4122(2)
O5 O 0.6347(8) 0.6063(5) 0.3678(2)
O6 O 0.3443(8) 0.5270(6) 0.3369(2)
O7 O 0.2879(7) 0.4815(5) 0.4273(2)
O8 O 0.0477(8) 0.6333(6) 0.4060(2)
O9 O 0.2172(7) 0.5977(5) 0.4969(2)
O10 O 0.4162(7) 0.4785(5) 0.5404(2)
O11 O 0.5534(7) 0.3986(5) 0.3877(2)
N1 N 0.8128(8) -0.2068(6) 0.3802(3)
N2 N 0.6828(10) -0.1969(7) 0.4054(3)
H1 H 0.6159 -0.2480 0.4095
N3 N 1.0351(9) 0.1924(7) 0.1998(3)
N4 N 0.8887(10) 0.1581(7) 0.2086(3)
H2 H 0.8357 0.1123 0.1919
N5 N 0.9016(10) 0.4913(6) 0.3434(2)
N6 N 1.0217(9) 0.4332(6) 0.3644(3)
H3 H 1.0703 0.4503 0.3899
N7 N 0.7805(10) 0.2491(6) 0.4293(3)
N8 N 0.9306(9) 0.2230(7) 0.4483(3)
H4 H 0.9949 0.2685 0.4615
C1 C 1.0417(12) -0.0910(8) 0.3604(4)
H5 H 1.0755 -0.1537 0.3445
H6 H 1.1224 -0.0711 0.3833
H7 H 1.0250 -0.0329 0.3392
C2 C 0.8892(11) -0.1146(8) 0.3827(3)
C3 C 0.8019(11) -0.0420(8) 0.4091(4)
C4 C 0.6709(11) -0.1006(7) 0.4229(4)
C5 C 0.5414(14) -0.0708(9) 0.4524(4)
H8 H 0.4698 -0.1305 0.4548
H9 H 0.4841 -0.0104 0.4395
H10 H 0.5859 -0.0523 0.4822
C6 C 0.6756(14) 0.1759(12) 0.2625(5)
H11 H 0.6230 0.1258 0.2419
H12 H 0.6127 0.2401 0.2639
H13 H 0.6882 0.1445 0.2923
C7 C 0.8336(11) 0.2026(8) 0.2461(3)
C8 C 0.9540(10) 0.2700(8) 0.2634(3)
C9 C 1.0773(11) 0.2594(8) 0.2334(3)
C10 C 1.2340(13) 0.3149(10) 0.2359(4)
H14 H 1.2953 0.2919 0.2110
H15 H 1.2904 0.2975 0.2643
H16 H 1.2176 0.3911 0.2341
C11 C 1.1828(13) 0.2688(8) 0.3560(4)
H17 H 1.2324 0.2937 0.3843
H18 H 1.2613 0.2641 0.3335
H19 H 1.1369 0.1992 0.3604
C12 C 1.0536(11) 0.3463(7) 0.3400(3)
C13 C 0.9495(11) 0.3457(7) 0.3019(3)
C14 C 0.8567(10) 0.4379(8) 0.3058(4)
C15 C 0.7276(14) 0.4756(10) 0.2728(4)
H20 H 0.6837 0.5414 0.2836
H21 H 0.6453 0.4221 0.2700
H22 H 0.7708 0.4874 0.2436
C16 C 1.1180(12) 0.0752(9) 0.4626(4)
H23 H 1.1803 0.1323 0.4764
H24 H 1.1751 0.0437 0.4384
H25 H 1.0986 0.0215 0.4851
C17 C 0.9631(11) 0.1187(8) 0.4436(3)
C18 C 0.8333(11) 0.0727(8) 0.4205(3)
C19 C 0.7230(11) 0.1556(7) 0.4117(3)
C20 C 0.5617(11) 0.1526(9) 0.3886(4)
H26 H 0.5169 0.2236 0.3878
H27 H 0.4945 0.1055 0.4049
H28 H 0.5691 0.1267 0.3579
Mo3B Mo 0.52889(9) 0.46854(6) 0.61543(3)
Cu1_2 Cu -0.14158(13) 0.64399(9) 0.35920(4)
Cu1_3 Cu 0.85842(13) -0.35601(9) 0.35920(4)
Cu1A Cu 1.14158(13) 0.14399(9) 0.14080(4)
Cu2B Cu 0.32304(12) 0.62067(9) 0.55581(3)
O8_2 O 1.0477(8) 0.6333(6) 0.4060(2)
O9B O 0.7828(7) 0.4023(5) 0.5031(2)
O10B O 0.5838(7) 0.5215(5) 0.4596(2)
N1_2 N 0.8128(8) 0.7932(6) 0.3802(3)
N3A N 0.9649(9) 0.6924(7) 0.3002(3)
loop_
_geom_bond_atom_site_label_1
_geom_bond_atom_site_label_2
_geom_bond_site_symmetry_1
_geom_bond_site_symmetry_2
Mo1 O1 1_555 1_555
Mo2 O3 1_555 1_555
Mo3 O4 1_555 1_555
Cu1 O5 1_555 1_555
Cu2 O2 1_555 1_555
O2 Mo1 1_555 1_555
O4 Mo2 1_555 1_555
O5 Mo3 1_555 1_555
O6 Mo3 1_555 1_555
O7 Mo1 1_555 1_555
O8 Mo2 1_555 1_555
O9 Mo1 1_555 1_555
O10 Mo1 1_555 1_555
O11 Mo3 1_555 1_555
N1 N2 1_555 1_555
N2 H1 1_555 1_555
N3 N4 1_555 1_555
N4 H2 1_555 1_555
N5 Cu1 1_555 1_555
N6 N5 1_555 1_555
H3 N6 1_555 1_555
N7 Cu2 1_555 1_555
N8 N7 1_555 1_555
H4 N8 1_555 1_555
C1 H5 1_555 1_555
H6 C1 1_555 1_555
H7 C1 1_555 1_555
C2 N1 1_555 1_555
C3 C2 1_555 1_555
C4 N2 1_555 1_555
C5 C4 1_555 1_555
H8 C5 1_555 1_555
H9 C5 1_555 1_555
H10 C5 1_555 1_555
C6 H11 1_555 1_555
H12 C6 1_555 1_555
H13 C6 1_555 1_555
C7 N4 1_555 1_555
C8 C7 1_555 1_555
C9 N3 1_555 1_555
C10 C9 1_555 1_555
H14 C10 1_555 1_555
H15 C10 1_555 1_555
H16 C10 1_555 1_555
C11 H17 1_555 1_555
H18 C11 1_555 1_555
H19 C11 1_555 1_555
C12 N6 1_555 1_555
C13 C8 1_555 1_555
C14 N5 1_555 1_555
C15 C14 1_555 1_555
H20 C15 1_555 1_555
H21 C15 1_555 1_555
H22 C15 1_555 1_555
C16 H23 1_555 1_555
H24 C16 1_555 1_555
H25 C16 1_555 1_555
C17 N8 1_555 1_555
C18 C3 1_555 1_555
C19 N7 1_555 1_555
C20 C19 1_555 1_555
H26 C20 1_555 1_555
H27 C20 1_555 1_555
H28 C20 1_555 1_555
Mo3B O10 1_555 1_555
Cu1_2 O8 1_555 1_555
Cu1_3 N1 1_555 1_555
Cu1A N3 1_555 1_555
Cu2B O9 1_555 1_555
O8_2 Cu1 1_555 1_555
O9B Cu2 1_555 1_555
O10B Mo3 1_555 1_555
N1_2 Cu1 1_555 1_555
N3A Cu1 1_555 1_555
Mo2 O7 1_555 1_555
Mo2 O9 1_555 1_555
Mo3 O7 1_555 1_555
Cu2 O11 1_555 1_555
Cu2 O10B 1_555 1_555
O10 Cu2B 1_555 1_555
C1 C2 1_555 1_555
C3 C4 1_555 1_555
C6 C7 1_555 1_555
C8 C9 1_555 1_555
C11 C12 1_555 1_555
C12 C13 1_555 1_555
C13 C14 1_555 1_555
C16 C17 1_555 1_555
C17 C18 1_555 1_555
C18 C19 1_555 1_555

#END
