
#######################################################################
#
#                 Cambridge Crystallographic Data Centre
#                                CCDC 
#
#######################################################################
#
# If this CIF has been generated from an entry in the Cambridge 
# Structural Database, then it will include bibliographic, chemical, 
# crystal, experimental, refinement or atomic coordinate data resulting 
# from the CCDC's data processing and validation procedures.
#
#######################################################################

data_PALYIL
_symmetry_cell_setting           monoclinic
_symmetry_space_group_name_H-M   'P 21/a'
_symmetry_Int_Tables_number      14
_space_group_name_Hall           '-P 2yab'
loop_
_symmetry_equiv_pos_site_id
_symmetry_equiv_pos_as_xyz
1 x,y,z
2 1/2-x,1/2+y,-z
3 -x,-y,-z
4 1/2+x,1/2-y,z
_cell_length_a                   15.361(4)
_cell_length_b                   13.388(4)
_cell_length_c                   17.105(5)
_cell_angle_alpha                90.00
_cell_angle_beta                 103.427(5)
_cell_angle_gamma                90.00
_cell_volume                     3421.55
loop_
_atom_site_label
_atom_site_type_symbol
_atom_site_fract_x
_atom_site_fract_y
_atom_site_fract_z
Zn1 Zn 0.42806(2) -0.39553(2) -0.255670(19)
C1 C 0.98235(19) 0.4102(2) -1.03654(16)
N1 N 1.09986(16) 0.05986(17) -0.85929(13)
C2 C 1.0917(2) 0.1238(2) -0.92053(16)
H1 H 1.0682 0.1867 -0.9150
O1 O 0.53648(16) -0.49646(17) -0.22985(13)
C3 C 1.11575(19) 0.1024(2) -0.99101(16)
O2 O 1.07532(17) 0.73956(18) -0.88866(15)
O3 O 0.79464(15) 0.66367(17) -1.03272(14)
C4 C 1.06745(18) 0.4334(2) -0.99203(16)
N2 N 1.07161(17) 0.27319(18) -1.03983(14)
C5 C 1.08844(19) 0.5239(2) -0.95352(17)
H2 H 0.8545 0.4609 -1.0766
C6 C 0.9842(2) 0.3069(2) -1.06886(17)
C7 C 0.8739(2) 0.6543(2) -1.00419(17)
O4 O 0.29035(17) -0.4308(2) -0.30285(15)
C8 C 1.1521(2) 0.0094(2) -0.99829(18)
H3 H 1.1704 -0.0077 -1.0447
N3 N 0.51147(19) -0.5759(2) -0.26938(15)
O5 O 0.43306(18) -0.5810(2) -0.30704(18)
C9 C 1.1337(2) -0.0300(2) -0.86799(18)
H4 H 1.1393 -0.0761 -0.8264
C10 C 1.1606(2) -0.0572(2) -0.93627(19)
H5 H 1.1845 -0.1203 -0.9403
C11 C 1.1040(3) 0.1767(2) -1.05961(19)
H6 H 0.9380 0.8505 -0.8939
H7 H 0.8391 0.8143 -0.9260
O6 O 0.56620(18) -0.6427(2) -0.26813(15)
O7 O 0.17154(15) -0.3505(2) -0.29525(15)
N4 N 0.25250(17) -0.3534(2) -0.28416(16)
O8 O 0.30209(18) -0.2844(2) -0.25442(19)
O10 O 0.50488(12) -0.02874(15) -0.40080(12)
C13 C 0.65961(18) 0.0920(2) -0.44823(16)
H8 H 0.6334 0.0550 -0.4936
N5 N 0.50458(14) -0.27035(16) -0.20743(13)
O11 O 0.72827(17) 0.6379(2) -0.42536(13)
C14 C 0.73215(17) 0.1542(2) -0.44533(15)
N6 N 0.55535(14) 0.05183(16) -0.27970(13)
C15 C 0.52333(17) -0.09233(19) -0.20345(15)
C16 C 0.66831(17) 0.14521(19) -0.31061(15)
C17 C 0.55541(17) 0.0287(2) -0.35915(15)
N7 N 0.85004(16) 0.24047(19) -0.47450(14)
C18 C 0.62912(17) 0.08928(19) -0.37845(15)
C19 C 0.74002(17) 0.2089(2) -0.30814(16)
H9 H 0.7656 0.2470 -0.2632
C20 C 0.47718(17) -0.1777(2) -0.23262(15)
H10 H 1.0757 0.3288 -0.7282
C21 C 0.91878(19) 0.2215(2) -0.84870(17)
H11 H 0.8981 0.1581 -0.8659
C22 C 0.77029(17) 0.2108(2) -0.37837(15)
C23 C 0.49166(18) 0.0081(2) -0.23821(17)
H12 H 1.0159 0.5524 -0.8046
H13 H 1.0660 0.5008 -0.7244
C24 C 0.9125(2) 0.2829(2) -0.51836(18)
H14 H 0.8791 0.3061 -0.5704
H15 H 0.9420 0.3402 -0.4890
C25 C 0.8694(2) 0.3031(2) -0.88200(18)
H16 H 0.8173 0.2949 -0.9218
C26 C 0.7168(2) 0.6725(2) -0.49194(17)
O12 O 0.60616(15) 0.82933(18) -0.64348(13)
C27 C 0.89844(19) 0.3971(2) -0.85549(17)
H17 H 0.8657 0.4531 -0.8770
C28 C 0.84611(19) 0.2691(2) -0.39683(17)
C29 C 0.98271(19) 0.2097(2) -0.53072(17)
C30 C 0.99297(19) 0.1898(2) -0.60732(17)
H18 H 0.9527 0.2188 -0.6504
C31 C 0.4598(2) 0.6632(3) -0.53284(18)
H19 H 0.4650 0.6739 -0.5853
C32 C 0.3943(2) 0.6005(3) -0.51744(19)
H20 H 0.3553 0.5678 -0.5593
C33 C 0.3876(2) 0.5872(3) -0.43902(19)
H21 H 0.3427 0.5458 -0.4292
N8 N 1.05729(16) 0.13112(19) -0.62326(14)
C34 C 0.62124(18) 0.11971(19) -0.24585(16)
O13 O 0.63723(14) 0.14784(16) -0.17706(11)
Zn1A Zn 1.07194(2) 0.10447(2) -0.744330(19)
Zn1C Zn 0.92806(2) 0.89553(2) -1.255670(19)
Zn1_2 Zn 0.42806(2) 0.60447(2) -0.255670(19)
C1B C 1.01765(19) 0.5898(2) -0.96346(16)
N1A N 0.40014(16) -0.44014(17) -0.14071(13)
N1B N 0.90014(16) 0.94014(17) -1.14071(13)
C2B C 0.9083(2) 0.8762(2) -1.07947(16)
H1B H 0.9318 0.8133 -1.0850
O1A O 0.96352(16) 0.00354(17) -0.77015(13)
C3B C 0.88425(19) 0.8976(2) -1.00899(16)
O2B O 0.92468(17) 0.26044(18) -1.11134(15)
O3B O 1.20536(15) 0.33633(17) -0.96728(14)
C4B C 0.93255(18) 0.5666(2) -1.00797(16)
N2B N 0.92839(17) 0.72681(18) -0.96017(14)
C5B C 0.91156(19) 0.4761(2) -1.04648(17)
H2B H 1.1455 0.5391 -0.9234
C6B C 1.0158(2) 0.6931(2) -0.93114(17)
C7B C 1.1261(2) 0.3457(2) -0.99581(17)
O4A O 1.20965(17) 0.0692(2) -0.69715(15)
C8B C 0.8479(2) 0.9906(2) -1.00171(18)
H3B H 0.8296 1.0077 -0.9553
N3A N 0.98853(19) -0.0759(2) -0.73062(15)
O5A O 1.06694(18) -0.0810(2) -0.69296(18)
C9B C 0.8663(2) 1.0300(2) -1.13201(18)
H4B H 0.8607 1.0761 -1.1736
C10B C 0.8394(2) 1.0572(2) -1.06373(19)
H5B H 0.8155 1.1203 -1.0597
C11B C 0.8960(3) 0.8233(2) -0.94039(19)
H6B H 1.0620 0.1495 -1.1061
H7B H 1.1609 0.1857 -1.0740
O6A O 0.93380(18) -0.1427(2) -0.73187(15)
O7A O 1.32846(15) 0.1495(2) -0.70475(15)
N4A N 1.24750(17) 0.1466(2) -0.71584(16)
O8A O 1.19791(18) 0.2156(2) -0.74558(19)
O10A O 0.99512(12) 0.47126(15) -0.59920(12)
C13A C 0.84039(18) 0.5920(2) -0.55177(16)
H8A H 0.8666 0.5550 -0.5064
N5A N 0.99542(14) 0.22965(16) -0.79257(13)
O11A O 0.77173(17) 0.1379(2) -0.57464(13)
C14A C 0.76785(17) 0.6542(2) -0.55467(15)
N6A N 0.94465(14) 0.55183(16) -0.72030(13)
C15A C 0.97667(17) 0.40767(19) -0.79655(15)
C16A C 0.83169(17) 0.64521(19) -0.68939(15)
C17A C 0.94459(17) 0.5287(2) -0.64085(15)
N7A N 0.64996(16) 0.74047(19) -0.52550(14)
C18A C 0.87088(17) 0.58928(19) -0.62155(15)
C19A C 0.75998(17) 0.7089(2) -0.69186(16)
H9A H 0.7344 0.7470 -0.7368
C20A C 1.02282(17) 0.3223(2) -0.76738(15)
H10A H 0.4243 -0.1712 -0.2718
C21A C 0.58122(19) -0.2785(2) -0.15130(17)
H11A H 0.6019 -0.3419 -0.1341
C22A C 0.72971(17) 0.7108(2) -0.62163(15)
C23A C 1.00834(18) 0.5081(2) -0.76179(17)
H12A H 0.4841 0.0524 -0.1954
H13A H 0.4340 0.0008 -0.2756
C24A C 0.5875(2) 0.7829(2) -0.48164(18)
H14A H 0.6209 0.8061 -0.4296
H15A H 0.5580 0.8402 -0.5110
C25A C 0.6306(2) -0.1969(2) -0.11800(18)
H16A H 0.6827 -0.2051 -0.0782
C26A C 0.7832(2) 0.1725(2) -0.50806(17)
O12A O 0.89384(15) 0.32933(18) -0.35652(13)
C27A C 0.60156(19) -0.1029(2) -0.14451(17)
H17A H 0.6343 -0.0469 -0.1230
C28A C 0.65389(19) 0.7691(2) -0.60317(17)
C29A C 0.51729(19) 0.7097(2) -0.46928(17)
C30A C 0.50703(19) 0.6898(2) -0.39268(17)
H18A H 0.5473 0.7188 -0.3496
C31A C 1.0402(2) 0.1632(3) -0.46716(18)
H19A H 1.0350 0.1739 -0.4147
C32A C 1.1057(2) 0.1005(3) -0.48256(19)
H20A H 1.1447 0.0678 -0.4407
C33A C 1.1124(2) 0.0872(3) -0.56098(19)
H21A H 1.1573 0.0458 -0.5708
N8A N 0.44271(16) 0.63112(19) -0.37674(14)
N8A_2 N 0.44271(16) -0.36888(19) -0.37674(14)
C34A C 0.87876(18) 0.61971(19) -0.75415(16)
O13A O 0.86277(14) 0.64784(16) -0.82294(11)
O9 O 0.2645(2) 0.5438(3) 0.1878(2)
C12 C 0.2511(3) 0.4629(5) 0.2375(4)
loop_
_geom_bond_atom_site_label_1
_geom_bond_atom_site_label_2
_geom_bond_site_symmetry_1
_geom_bond_site_symmetry_2
Zn1 O1 1_555 1_555
C1 C4 1_555 1_555
N1 C2 1_555 1_555
C2 H1 1_555 1_555
O1 N3 1_555 1_555
C3 C2 1_555 1_555
O2 C6B 1_555 1_555
O3 C7 1_555 1_555
C4 C5 1_555 1_555
N2 C6 1_555 1_555
C5 C1B 1_555 1_555
H2 C5B 1_555 1_555
C6 C1 1_555 1_555
C7 C4B 1_555 1_555
O4 Zn1 1_555 1_555
C8 C3 1_555 1_555
H3 C8 1_555 1_555
N3 O5 1_555 1_555
C9 N1 1_555 1_555
H4 C9 1_555 1_555
C10 C8 1_555 1_555
H5 C10 1_555 1_555
C11 C3 1_555 1_555
H6 C11B 1_555 1_555
H7 C11B 1_555 1_555
O6 N3 1_555 1_555
O7 N4 1_555 1_555
N4 O4 1_555 1_555
O8 Zn1 1_555 1_555
O9 C12 1_555 1_555
O10 C17 1_555 1_555
C13 H8 1_555 1_555
N5 Zn1 1_555 1_555
O11 C26 1_555 1_555
C14 C13 1_555 1_555
N6 C17 1_555 1_555
C15 C20 1_555 1_555
C16 C18 1_555 1_555
C17 C18 1_555 1_555
N7 C24 1_555 1_555
C18 C13 1_555 1_555
C19 C16 1_555 1_555
H9 C19 1_555 1_555
C20 N5 1_555 1_555
H10 C20A 1_555 1_555
C21 H11 1_555 1_555
C22 C14 1_555 1_555
C23 N6 1_555 1_555
H12 C23A 1_555 1_555
H13 C23A 1_555 1_555
C24 H14 1_555 1_555
H15 C24 1_555 1_555
C25 C21 1_555 1_555
H16 C25 1_555 1_555
C26 C14A 1_555 1_555
O12 C28A 1_555 1_555
C27 C25 1_555 1_555
H17 C27 1_555 1_555
C28 N7 1_555 1_555
C29 C24 1_555 1_555
C30 C29 1_555 1_555
H18 C30 1_555 1_555
C31 H19 1_555 1_555
C32 C31 1_555 1_555
H20 C32 1_555 1_555
C33 C32 1_555 1_555
H21 C33 1_555 1_555
N8 C30 1_555 1_555
C34 N6 1_555 1_555
O13 C34 1_555 1_555
Zn1A N1 1_555 1_555
Zn1C N1B 1_555 1_555
Zn1_2 N8A 1_555 1_555
C1B C4B 1_555 1_555
N1A Zn1 1_555 1_555
N1B C2B 1_555 1_555
C2B H1B 1_555 1_555
O1A Zn1A 1_555 1_555
C3B C2B 1_555 1_555
O2B C6 1_555 1_555
O3B C7B 1_555 1_555
C4B C5B 1_555 1_555
N2B C7 1_555 1_555
C5B C1 1_555 1_555
H2B C5 1_555 1_555
C6B C1B 1_555 1_555
C7B C4 1_555 1_555
O4A Zn1A 1_555 1_555
C8B C3B 1_555 1_555
H3B C8B 1_555 1_555
N3A O1A 1_555 1_555
O5A N3A 1_555 1_555
C9B N1B 1_555 1_555
H4B C9B 1_555 1_555
C10B C8B 1_555 1_555
H5B C10B 1_555 1_555
C11B C3B 1_555 1_555
H6B C11 1_555 1_555
H7B C11 1_555 1_555
O6A N3A 1_555 1_555
O7A N4A 1_555 1_555
N4A O4A 1_555 1_555
O8A Zn1A 1_555 1_555
O10A C17A 1_555 1_555
C13A H8A 1_555 1_555
N5A C21 1_555 1_555
O11A C26A 1_555 1_555
C14A C13A 1_555 1_555
N6A C17A 1_555 1_555
C15A C27 1_555 1_555
C16A C18A 1_555 1_555
C17A C18A 1_555 1_555
N7A C26 1_555 1_555
C18A C13A 1_555 1_555
C19A C16A 1_555 1_555
H9A C19A 1_555 1_555
C20A N5A 1_555 1_555
H10A C20 1_555 1_555
C21A N5 1_555 1_555
H11A C21A 1_555 1_555
C22A C14A 1_555 1_555
C23A N6A 1_555 1_555
H12A C23 1_555 1_555
H13A C23 1_555 1_555
C24A N7A 1_555 1_555
H14A C24A 1_555 1_555
H15A C24A 1_555 1_555
C25A C21A 1_555 1_555
H16A C25A 1_555 1_555
C26A C14 1_555 1_555
O12A C28 1_555 1_555
C27A C15 1_555 1_555
H17A C27A 1_555 1_555
C28A N7A 1_555 1_555
C29A C31 1_555 1_555
C30A C29A 1_555 1_555
H18A C30A 1_555 1_555
C31A C29 1_555 1_555
H19A C31A 1_555 1_555
C32A C31A 1_555 1_555
H20A C32A 1_555 1_555
C33A N8 1_555 1_555
H21A C33A 1_555 1_555
N8A C33 1_555 1_555
N8A_2 Zn1 1_555 1_555
C34A N6A 1_555 1_555
O13A C34A 1_555 1_555
N2 C11 1_555 1_555
N2 C7B 1_555 1_555
C9 C10 1_555 1_555
N4 O8 1_555 1_555
C15 C23 1_555 1_555
C16 C34 1_555 1_555
N7 C26A 1_555 1_555
C19 C22 1_555 1_555
C22 C28 1_555 1_555
N8 Zn1A 1_555 1_555
Zn1A N5A 1_555 1_555
N2B C6B 1_555 1_555
N2B C11B 1_555 1_555
C9B C10B 1_555 1_555
N4A O8A 1_555 1_555
C15A C20A 1_555 1_555
C15A C23A 1_555 1_555
C16A C34A 1_555 1_555
C19A C22A 1_555 1_555
C22A C28A 1_555 1_555
C24A C29A 1_555 1_555
C25A C27A 1_555 1_555
C30A N8A 1_555 1_555
C32A C33A 1_555 1_555

#END
