
#######################################################################
#
#                 Cambridge Crystallographic Data Centre
#                                CCDC 
#
#######################################################################
#
# If this CIF has been generated from an entry in the Cambridge 
# Structural Database, then it will include bibliographic, chemical, 
# crystal, experimental, refinement or atomic coordinate data resulting 
# from the CCDC's data processing and validation procedures.
#
#######################################################################

data_PAMBEL
_symmetry_cell_setting           monoclinic
_symmetry_space_group_name_H-M   'P 21/c'
_symmetry_Int_Tables_number      14
_space_group_name_Hall           '-P 2ybc'
loop_
_symmetry_equiv_pos_site_id
_symmetry_equiv_pos_as_xyz
1 x,y,z
2 -x,1/2+y,1/2-z
3 -x,-y,-z
4 x,1/2-y,1/2+z
_cell_length_a                   12.702(3)
_cell_length_b                   26.118(7)
_cell_length_c                   13.998(4)
_cell_angle_alpha                90
_cell_angle_beta                 96.063(4)
_cell_angle_gamma                90
_cell_volume                     4617.87
loop_
_atom_site_label
_atom_site_type_symbol
_atom_site_fract_x
_atom_site_fract_y
_atom_site_fract_z
Ag1 Ag 0.05766(4) 0.828699(14) 0.92435(3)
Ag2 Ag -0.00898(4) 1.065670(16) 0.65219(3)
S1 S 0.36213(14) 0.83818(8) 0.94434(17)
N1 N -0.1188(3) 0.67082(15) 0.7696(3)
H1 H -0.1692 0.6496 0.7765
C1 C -0.0173(3) 0.71504(16) 1.0022(3)
N2 N 0.0639(3) 0.74550(13) 0.9914(3)
N3 N 0.1602(3) 0.72363(14) 0.9921(3)
H2 H 0.2127 0.7438 0.9866
N4 N 0.0272(3) 1.00958(14) 0.7780(3)
C2 C -0.0053(4) 0.66123(16) 1.0097(3)
O1 O -0.1174(3) 0.79163(13) 1.0196(3)
N5 N -0.0201(3) 0.65068(15) 0.7683(3)
N6 N 0.1205(3) 1.01977(14) 0.8307(3)
H3 H 0.1607 1.0420 0.8074
O2 O 0.2858(3) 1.06620(14) 0.9312(3)
C3 C 0.0577(4) 0.68323(19) 0.7575(3)
C4 C 0.0974(4) 0.96114(16) 0.9516(3)
C5 C -0.1454(4) 0.72042(19) 0.7612(3)
C6 C 0.0993(4) 0.64029(17) 1.0075(3)
O3 O 0.1776(3) 0.61122(16) 0.7798(3)
C7 C 0.1566(4) 0.99884(17) 0.9153(3)
C8 C -0.0344(3) 0.97380(16) 0.8119(3)
C9 C -0.1194(4) 0.74017(16) 1.0047(3)
C10 C 0.1612(4) 0.6605(2) 0.7499(4)
C11 C 0.1821(4) 0.67366(18) 1.0004(3)
C12 C -0.1359(4) 0.96455(18) 0.7573(4)
C13 C 0.0443(6) 0.8221(2) 0.7457(4)
H4 H 0.0616 0.8519 0.7078
C14 C -0.0476(4) 0.90865(17) 0.9493(4)
H5 H -0.1245 0.9070 0.9509
C15 C 0.0414(4) 0.73621(19) 0.7514(3)
C16 C -0.0020(4) 0.94748(16) 0.8974(3)
O4 O 0.2633(3) 0.81281(16) 0.9496(3)
C17 C 0.0212(4) 0.90029(18) 1.0327(4)
H6 H -0.0084 0.8927 1.0930
C18 C -0.2200(4) 0.7238(2) 0.9973(4)
H7 H -0.2430 0.6902 0.9882
O5 O -0.1559(3) 0.98704(18) 0.6701(3)
C19 C -0.0592(6) 0.8091(2) 0.7498(4)
H8 H -0.1157 0.8318 0.7495
C20 C 0.0899(5) 0.58648(18) 1.0123(4)
H9 H 0.1465 0.5654 1.0449
C21 C -0.2570(5) 0.7315(2) 0.7577(4)
C22 C 0.2928(4) 0.6599(2) 1.0010(4)
C23 C -0.0653(4) 0.75568(19) 0.7545(3)
C24 C 0.2559(4) 1.01898(19) 0.9605(4)
C25 C -0.0165(5) 0.57574(19) 1.0198(4)
H10 H -0.0364 0.5463 1.0574
C26 C 0.1090(4) 0.93161(19) 1.0346(4)
H11 H 0.1655 0.9327 1.0826
F1 F 0.4441(4) 0.88470(19) 0.8071(4)
C27 C 0.3302(5) 1.0013(2) 1.0293(5)
H12 H 0.3286 0.9704 1.0622
C28 C -0.0753(4) 0.62102(18) 1.0183(4)
H13 H -0.1477 0.6237 1.0223
C29 C -0.2843(5) 0.7670(2) 1.0058(5)
H14 H -0.3578 0.7677 1.0022
C30 C 0.3810(5) 1.0766(3) 0.9832(6)
H15 H 0.4197 1.1065 0.9781
C31 C 0.3572(6) 0.8612(4) 0.8236(7)
O6 O -0.2887(4) 0.7804(2) 0.7501(5)
C32 C -0.2196(5) 0.8065(2) 1.0199(5)
H16 H -0.2413 0.8400 1.0289
C33 C 0.1076(5) 0.7784(2) 0.7464(4)
H17 H 0.1804 0.7777 0.7441
O7 O 0.3299(4) 0.6124(2) 1.0139(4)
C34 C -0.3378(6) 0.7012(3) 0.7618(6)
H18 H -0.3362 0.6658 0.7683
C35 C 0.2777(5) 0.5982(3) 0.7622(5)
H19 H 0.3103 0.5670 0.7777
C36 C -0.2204(5) 0.9380(3) 0.7759(5)
H20 H -0.2284 0.9196 0.8315
F2 F 0.3531(5) 0.8198(3) 0.7655(5)
C37 C 0.3667(5) 0.6902(3) 0.9853(6)
H21 H 0.3590 0.7250 0.9725
C38 C 0.4097(5) 1.0385(3) 1.0412(6)
H22 H 0.4718 1.0365 1.0827
C39 C -0.4294(7) 0.7333(5) 0.7545(8)
H23 H -0.4992 0.7230 0.7564
F3 F 0.2748(5) 0.8879(3) 0.7985(6)
C40 C 0.2465(5) 0.6763(3) 0.7101(6)
H24 H 0.2546 0.7079 0.6812
C41 C 0.3213(5) 0.6369(3) 0.7197(6)
H25 H 0.3890 0.6378 0.6999
C43 C -0.2554(6) 0.9724(3) 0.6340(5)
H26 H -0.2886 0.9823 0.5745
C44 C -0.2970(5) 0.9431(3) 0.6934(6)
H27 H -0.3637 0.9281 0.6846
O11 O 0.4535(4) 0.8089(3) 0.9602(6)
O12 O 0.3700(6) 0.8872(3) 0.9943(6)
C45 C 0.4397(6) 0.6173(4) 1.0078(7)
H28 H 0.4888 0.5909 1.0157
C46 C 0.4605(7) 0.6633(5) 0.9901(9)
H29 H 0.5269 0.6766 0.9818
C47 C -0.3965(8) 0.7787(4) 0.7450(9)
H30 H -0.4402 0.8072 0.7358
Ag2A Ag 0.00898(4) 0.565670(16) 0.84781(3)
N5A N 0.0201(3) 1.15068(15) 0.7317(3)
O3A O -0.1776(3) 1.11122(16) 0.7202(3)
C20A C -0.0899(5) 1.08648(18) 0.4877(4)
H9A H -0.1465 1.0654 0.4551
C25A C 0.0165(5) 1.07574(19) 0.4802(4)
H10A H 0.0364 1.0463 0.4426
S2 S 0.71075(10) 0.94236(5) 0.36293(11)
O8 O 0.7678(3) 0.91962(14) 0.2902(3)
O9 O 0.6719(3) 0.90565(18) 0.4258(3)
O10 O 0.7616(4) 0.98616(17) 0.4061(4)
F4 F 0.6193(4) 1.00189(19) 0.2316(4)
F5 F 0.5395(4) 0.9326(2) 0.2476(5)
F6 F 0.5329(4) 0.9901(3) 0.3516(5)
C42 C 0.5949(5) 0.9685(3) 0.2951(6)
loop_
_geom_bond_atom_site_label_1
_geom_bond_atom_site_label_2
_geom_bond_site_symmetry_1
_geom_bond_site_symmetry_2
Ag1 N2 1_555 1_555
Ag2 N4 1_555 1_555
S1 O4 1_555 1_555
N1 H1 1_555 1_555
C1 N2 1_555 1_555
N2 N3 1_555 1_555
N3 H2 1_555 1_555
N4 N6 1_555 1_555
C2 C1 1_555 1_555
O1 Ag1 1_555 1_555
N5 N1 1_555 1_555
N6 H3 1_555 1_555
O2 C24 1_555 1_555
C3 N5 1_555 1_555
C4 C7 1_555 1_555
C5 N1 1_555 1_555
C6 C2 1_555 1_555
O3 C10 1_555 1_555
C7 N6 1_555 1_555
C8 N4 1_555 1_555
C9 C1 1_555 1_555
C10 C3 1_555 1_555
C11 N3 1_555 1_555
C12 C8 1_555 1_555
C13 Ag1 1_555 1_555
H4 C13 1_555 1_555
C14 Ag1 1_555 1_555
H5 C14 1_555 1_555
C15 C3 1_555 1_555
C16 C4 1_555 1_555
O4 Ag1 1_555 1_555
C17 Ag1 1_555 1_555
H6 C17 1_555 1_555
C18 C9 1_555 1_555
H7 C18 1_555 1_555
O5 Ag2 1_555 1_555
C19 Ag1 1_555 1_555
H8 C19 1_555 1_555
C20 C6 1_555 1_555
H9 C20 1_555 1_555
C21 C5 1_555 1_555
C22 C11 1_555 1_555
C23 C5 1_555 1_555
C24 C7 1_555 1_555
C25 C20 1_555 1_555
H10 C25 1_555 1_555
C26 C4 1_555 1_555
H11 C26 1_555 1_555
F1 C31 1_555 1_555
C27 C24 1_555 1_555
H12 C27 1_555 1_555
C28 C2 1_555 1_555
H13 C28 1_555 1_555
C29 C18 1_555 1_555
H14 C29 1_555 1_555
C30 O2 1_555 1_555
H15 C30 1_555 1_555
C31 S1 1_555 1_555
O6 C21 1_555 1_555
C32 O1 1_555 1_555
H16 C32 1_555 1_555
C33 C13 1_555 1_555
H17 C33 1_555 1_555
O7 C22 1_555 1_555
C34 C21 1_555 1_555
H18 C34 1_555 1_555
C35 O3 1_555 1_555
H19 C35 1_555 1_555
C36 C12 1_555 1_555
H20 C36 1_555 1_555
F2 C31 1_555 1_555
C37 C22 1_555 1_555
H21 C37 1_555 1_555
C38 C27 1_555 1_555
H22 C38 1_555 1_555
C39 C34 1_555 1_555
H23 C39 1_555 1_555
F3 C31 1_555 1_555
C40 C10 1_555 1_555
H24 C40 1_555 1_555
C41 C35 1_555 1_555
H25 C41 1_555 1_555
S2 O8 1_555 1_555
O9 S2 1_555 1_555
O10 S2 1_555 1_555
F4 C42 1_555 1_555
F5 C42 1_555 1_555
F6 C42 1_555 1_555
C42 S2 1_555 1_555
C43 O5 1_555 1_555
H26 C43 1_555 1_555
C44 C36 1_555 1_555
H27 C44 1_555 1_555
O11 S1 1_555 1_555
O12 S1 1_555 1_555
C45 O7 1_555 1_555
H28 C45 1_555 1_555
C46 C37 1_555 1_555
H29 C46 1_555 1_555
C47 O6 1_555 1_555
H30 C47 1_555 1_555
Ag2A N5 1_555 1_555
N5A Ag2 1_555 1_555
O3A Ag2 1_555 1_555
C20A Ag2 1_555 1_555
H9A C20A 1_555 1_555
C25A Ag2 1_555 1_555
H10A C25A 1_555 1_555
O1 C9 1_555 1_555
C6 C11 1_555 1_555
O3 Ag2A 1_555 1_555
C8 C16 1_555 1_555
C12 O5 1_555 1_555
C13 C19 1_555 1_555
C14 C16 1_555 1_555
C14 C17 1_555 1_555
C15 C23 1_555 1_555
C15 C33 1_555 1_555
C17 C26 1_555 1_555
C19 C23 1_555 1_555
C20 Ag2A 1_555 1_555
C25 C28 1_555 1_555
C25 Ag2A 1_555 1_555
C29 C32 1_555 1_555
C30 C38 1_555 1_555
C39 C47 1_555 1_555
C40 C41 1_555 1_555
C43 C44 1_555 1_555
C45 C46 1_555 1_555
C20A C25A 1_555 1_555

#END
