
#######################################################################
#
#                 Cambridge Crystallographic Data Centre
#                                CCDC 
#
#######################################################################
#
# If this CIF has been generated from an entry in the Cambridge 
# Structural Database, then it will include bibliographic, chemical, 
# crystal, experimental, refinement or atomic coordinate data resulting 
# from the CCDC's data processing and validation procedures.
#
#######################################################################

data_PAMKEV
_symmetry_cell_setting           monoclinic
_symmetry_space_group_name_H-M   'P 21/c'
_symmetry_Int_Tables_number      14
_space_group_name_Hall           '-P 2ybc'
loop_
_symmetry_equiv_pos_site_id
_symmetry_equiv_pos_as_xyz
1 x,y,z
2 -x,1/2+y,1/2-z
3 -x,-y,-z
4 x,1/2-y,1/2+z
_cell_length_a                   11.1137(8)
_cell_length_b                   22.3436(17)
_cell_length_c                   19.1449(15)
_cell_angle_alpha                90
_cell_angle_beta                 96.8880(10)
_cell_angle_gamma                90
_cell_volume                     4719.75
loop_
_atom_site_label
_atom_site_type_symbol
_atom_site_fract_x
_atom_site_fract_y
_atom_site_fract_z
Mn1 Mn 0.15090(3) 0.038557(15) 0.053022(17)
Mn2 Mn -0.35128(3) 0.058963(16) 0.552195(18)
N1 N 0.24536(18) 0.04306(9) -0.04657(10)
N2 N -0.24593(19) 0.06089(9) 0.45558(10)
O1 O 0.32711(15) 0.05860(8) 0.11458(9)
N3 N -0.5631(3) 0.19901(13) 0.44411(17)
O2 O -0.17452(15) 0.09111(8) 0.61523(9)
O3 O -0.31492(16) 0.15511(8) 0.57206(9)
O4 O 0.18001(17) -0.05603(7) 0.06262(9)
N4 N 0.04663(18) 0.03350(8) 0.14751(10)
N5 N 0.55848(18) 0.05682(9) -0.34838(10)
O5 O 0.20750(16) 0.13624(8) 0.09791(10)
O6 O -0.51551(16) 0.06640(8) 0.48622(9)
O7 O -0.69692(17) 0.03343(8) 0.44138(9)
O8 O 0.00085(17) -0.07813(9) 0.00589(9)
C1 C 0.4401(2) 0.05385(11) -0.22722(12)
O9 O 0.36022(19) -0.13044(10) 0.02025(13)
O10 O 0.2563(2) 0.13085(12) 0.25914(11)
C2 C 0.3053(2) 0.11330(12) 0.12157(12)
O11 O -0.5488(2) 0.16426(12) 0.39711(13)
O12 O -0.2038(2) 0.12797(10) 0.75773(10)
N6 N -0.1005(3) 0.14419(11) 0.75450(11)
C3 C -0.6869(2) 0.12549(11) 0.50016(13)
C4 C 0.1170(2) -0.15750(11) 0.05816(11)
C5 C -0.1405(2) 0.19457(11) 0.63936(12)
N7 N 0.3417(2) -0.15008(11) 0.07690(15)
C6 C 0.3471(2) 0.01231(12) -0.05042(12)
H1 H 0.3754 -0.0122 -0.0128
C7 C -0.0641(2) 0.04358(10) 0.27097(12)
C8 C 0.3740(2) 0.05074(11) -0.16413(12)
C9 C 0.2284(2) -0.18305(11) 0.08006(13)
N8 N 0.3030(2) 0.17997(14) 0.25704(13)
C10 C -0.1252(2) 0.04977(11) 0.33540(12)
C11 C -0.1260(2) 0.05569(13) 0.45970(13)
H2 H -0.0819 0.0558 0.5042
C12 C 0.0487(2) 0.01800(12) 0.27125(13)
H3 H 0.0901 0.0036 0.3130
C13 C -0.0798(2) 0.19410(12) 0.70685(13)
O13 O -0.0121(2) 0.12341(11) 0.78968(13)
C14 C -0.2150(2) 0.14326(12) 0.60761(12)
C15 C -0.0633(2) 0.05673(12) 0.14756(13)
H4 H -0.1040 0.0695 0.1049
O14 O 0.4119(2) -0.14691(12) 0.13080(14)
C16 C -0.2492(2) 0.05632(14) 0.33130(14)
H5 H -0.2956 0.0572 0.2875
C17 C -0.6275(2) 0.07128(11) 0.47243(12)
C18 C 0.4030(3) 0.18699(12) 0.21514(15)
C19 C 0.4886(2) 0.10164(12) -0.33135(13)
H6 H 0.4803 0.1348 -0.3608
C20 C 0.0999(2) 0.01388(12) 0.20929(13)
H7 H 0.1761 -0.0036 0.2107
C21 C 0.4067(2) 0.15263(11) 0.15486(14)
C22 C 0.5724(2) 0.01113(12) -0.30333(12)
H8 H 0.6226 -0.0203 -0.3132
C23 C 0.0171(3) -0.19473(12) 0.05662(14)
H9 H -0.0594 -0.1799 0.0405
O15 O 0.2705(2) 0.22380(12) 0.28798(14)
C24 C -0.6517(2) 0.18391(12) 0.49208(15)
C25 C 0.4127(2) 0.01477(12) -0.10713(12)
H10 H 0.4831 -0.0078 -0.1070
C26 C 0.4281(2) 0.10184(12) -0.27290(13)
H11 H 0.3793 0.1341 -0.2641
C27 C -0.0061(2) 0.24013(14) 0.73353(15)
H12 H 0.0341 0.2381 0.7790
C28 C 0.0992(2) -0.09179(11) 0.04068(12)
C29 C 0.2075(3) 0.07693(13) -0.10247(14)
H13 H 0.1359 0.0984 -0.1019
C30 C 0.0291(3) -0.25352(14) 0.07863(17)
H14 H -0.0393 -0.2776 0.0778
C31 C 0.5166(2) 0.00796(12) -0.24333(13)
H15 H 0.5300 -0.0248 -0.2135
C32 C -0.1235(2) 0.24377(12) 0.59820(14)
H16 H -0.1620 0.2455 0.5524
C33 C 0.2423(3) -0.24171(12) 0.10250(15)
H17 H 0.3187 -0.2571 0.1178
C34 C 0.1407(3) -0.27676(13) 0.10171(16)
H18 H 0.1477 -0.3163 0.1169
C35 C 0.2679(3) 0.08194(13) -0.16053(13)
H19 H 0.2372 0.1065 -0.1977
C36 C -0.3047(2) 0.06159(14) 0.39165(14)
H20 H -0.3885 0.0659 0.3869
C37 C -0.1203(2) 0.06299(12) 0.20657(13)
H21 H -0.1968 0.0803 0.2034
C38 C -0.0631(2) 0.05012(13) 0.40256(13)
H22 H 0.0209 0.0466 0.4089
C39 C -0.7759(3) 0.11538(13) 0.54364(16)
H23 H -0.8032 0.0766 0.5497
C40 C -0.0500(3) 0.29065(13) 0.62403(16)
H24 H -0.0392 0.3234 0.5954
C41 C -0.8251(3) 0.16254(17) 0.57830(19)
H25 H -0.8848 0.1552 0.6073
O16 O -0.5091(3) 0.24548(13) 0.4535(2)
C42 C 0.4924(3) 0.22739(15) 0.23865(18)
H26 H 0.4866 0.2503 0.2787
C43 C 0.0073(3) 0.28918(14) 0.69169(17)
H27 H 0.0550 0.3213 0.7092
C44 C 0.5062(3) 0.15971(16) 0.11942(17)
H28 H 0.5130 0.1369 0.0794
C45 C -0.7003(3) 0.23125(14) 0.5259(2)
H29 H -0.6754 0.2703 0.5190
C46 C -0.7857(3) 0.21933(17) 0.5696(2)
H30 H -0.8173 0.2506 0.5938
C47 C 0.5960(4) 0.2000(2) 0.1422(2)
H31 H 0.6615 0.2047 0.1168
C48 C 0.5903(4) 0.2332(2) 0.2018(2)
H32 H 0.6526 0.2596 0.2173
Mn1B Mn -0.15090(3) -0.038557(15) -0.053022(17)
Mn2_2 Mn 0.64872(3) 0.058963(16) -0.447805(18)
Mn2B Mn -0.64872(3) -0.058963(16) 0.447805(18)
N5_2 N -0.44152(18) 0.05682(9) 0.65162(10)
O7B O -0.30308(17) -0.03343(8) 0.55862(9)
O8B O -0.00085(17) 0.07813(9) -0.00589(9)
loop_
_geom_bond_atom_site_label_1
_geom_bond_atom_site_label_2
_geom_bond_site_symmetry_1
_geom_bond_site_symmetry_2
Mn1 N1 1_555 1_555
Mn2 N2 1_555 1_555
N1 C6 1_555 1_555
N2 C11 1_555 1_555
O1 Mn1 1_555 1_555
N3 O11 1_555 1_555
O2 Mn2 1_555 1_555
O3 Mn2 1_555 1_555
O4 Mn1 1_555 1_555
N4 Mn1 1_555 1_555
N5 C19 1_555 1_555
O5 Mn1 1_555 1_555
O6 Mn2 1_555 1_555
O7 C17 1_555 1_555
O8 C28 1_555 1_555
C1 C8 1_555 1_555
O9 N7 1_555 1_555
O10 N8 1_555 1_555
C2 O1 1_555 1_555
O12 N6 1_555 1_555
N6 C13 1_555 1_555
C3 C17 1_555 1_555
C4 C9 1_555 1_555
C5 C13 1_555 1_555
N7 C9 1_555 1_555
C6 H1 1_555 1_555
C7 C10 1_555 1_555
C8 C25 1_555 1_555
C9 C33 1_555 1_555
N8 C18 1_555 1_555
C10 C16 1_555 1_555
C11 H2 1_555 1_555
C12 C7 1_555 1_555
H3 C12 1_555 1_555
C13 C27 1_555 1_555
O13 N6 1_555 1_555
C14 O2 1_555 1_555
C15 N4 1_555 1_555
H4 C15 1_555 1_555
O14 N7 1_555 1_555
C16 H5 1_555 1_555
C17 O6 1_555 1_555
C18 C21 1_555 1_555
C19 H6 1_555 1_555
C20 N4 1_555 1_555
H7 C20 1_555 1_555
C21 C2 1_555 1_555
C22 N5 1_555 1_555
H8 C22 1_555 1_555
C23 C4 1_555 1_555
H9 C23 1_555 1_555
O15 N8 1_555 1_555
C24 N3 1_555 1_555
C25 C6 1_555 1_555
H10 C25 1_555 1_555
C26 C1 1_555 1_555
H11 C26 1_555 1_555
C27 H12 1_555 1_555
C28 O4 1_555 1_555
C29 N1 1_555 1_555
H13 C29 1_555 1_555
C30 C23 1_555 1_555
H14 C30 1_555 1_555
C31 C1 1_555 1_555
H15 C31 1_555 1_555
C32 C5 1_555 1_555
H16 C32 1_555 1_555
C33 H17 1_555 1_555
C34 C30 1_555 1_555
H18 C34 1_555 1_555
C35 C8 1_555 1_555
H19 C35 1_555 1_555
C36 N2 1_555 1_555
H20 C36 1_555 1_555
C37 C7 1_555 1_555
H21 C37 1_555 1_555
C38 C10 1_555 1_555
H22 C38 1_555 1_555
C39 C3 1_555 1_555
H23 C39 1_555 1_555
C40 C32 1_555 1_555
H24 C40 1_555 1_555
C41 C39 1_555 1_555
H25 C41 1_555 1_555
O16 N3 1_555 1_555
C42 C18 1_555 1_555
H26 C42 1_555 1_555
C43 C27 1_555 1_555
H27 C43 1_555 1_555
C44 C21 1_555 1_555
H28 C44 1_555 1_555
C45 C24 1_555 1_555
H29 C45 1_555 1_555
C46 C41 1_555 1_555
H30 C46 1_555 1_555
C47 C44 1_555 1_555
H31 C47 1_555 1_555
C48 C42 1_555 1_555
H32 C48 1_555 1_555
Mn1B O8 1_555 1_555
Mn2_2 N5 1_555 1_555
Mn2B O7 1_555 1_555
N5_2 Mn2 1_555 1_555
O7B Mn2 1_555 1_555
O8B Mn1 1_555 1_555
O3 C14 1_555 1_555
O5 C2 1_555 1_555
C3 C24 1_555 1_555
C4 C28 1_555 1_555
C5 C14 1_555 1_555
C11 C38 1_555 1_555
C12 C20 1_555 1_555
C15 C37 1_555 1_555
C16 C36 1_555 1_555
C19 C26 1_555 1_555
C22 C31 1_555 1_555
C29 C35 1_555 1_555
C33 C34 1_555 1_555
C40 C43 1_555 1_555
C45 C46 1_555 1_555
C47 C48 1_555 1_555

#END
