
#######################################################################
#
#                 Cambridge Crystallographic Data Centre
#                                CCDC 
#
#######################################################################
#
# If this CIF has been generated from an entry in the Cambridge 
# Structural Database, then it will include bibliographic, chemical, 
# crystal, experimental, refinement or atomic coordinate data resulting 
# from the CCDC's data processing and validation procedures.
#
#######################################################################

data_PANVOR
_symmetry_cell_setting           monoclinic
_symmetry_space_group_name_H-M   'P 21/c'
_symmetry_Int_Tables_number      14
_space_group_name_Hall           '-P 2ybc'
loop_
_symmetry_equiv_pos_site_id
_symmetry_equiv_pos_as_xyz
1 x,y,z
2 -x,1/2+y,1/2-z
3 -x,-y,-z
4 x,1/2-y,1/2+z
_cell_length_a                   12.6755(17)
_cell_length_b                   23.900(3)
_cell_length_c                   8.7216(10)
_cell_angle_alpha                90
_cell_angle_beta                 90.871(10)
_cell_angle_gamma                90
_cell_volume                     2641.86
loop_
_atom_site_label
_atom_site_type_symbol
_atom_site_fract_x
_atom_site_fract_y
_atom_site_fract_z
Mn1 Mn -0.79938(18) -0.25601(9) 0.0521(3)
O1 O -0.7917(5) -0.2461(2) -0.1986(6)
O2 O -0.6434(4) -0.2883(2) -0.4157(7)
O3 O -0.6685(6) -0.1825(3) -0.4996(11)
O4 O -0.8688(7) -0.1602(3) -0.4093(10)
O5 O -0.9664(5) -0.2586(3) -0.4923(8)
O6 O -0.8241(4) -0.3389(2) -0.4252(7)
C1 C -0.5527(7) -0.2547(4) -0.4530(12)
H1 H -0.5370 -0.2578 -0.5612
H2 H -0.4913 -0.2666 -0.3938
C2 C -0.5813(8) -0.1959(4) -0.4137(12)
H3 H -0.5964 -0.1928 -0.3054
H4 H -0.5236 -0.1708 -0.4370
C3 C -0.7076(13) -0.1266(5) -0.472(4)
H5 H -0.6676 -0.1121 -0.3850
H6 H -0.6877 -0.1042 -0.5599
C4 C -0.7931(19) -0.1168(6) -0.450(2)
H7 H -0.8208 -0.0984 -0.5411
H8 H -0.7941 -0.0892 -0.3682
C5 C -0.9698(14) -0.1596(5) -0.4776(14)
H9 H -0.9643 -0.1575 -0.5883
H10 H -1.0090 -0.1272 -0.4428
C6 C -1.0232(9) -0.2104(5) -0.4343(13)
H11 H -1.0946 -0.2102 -0.4759
H12 H -1.0270 -0.2126 -0.3235
C7 C -1.0019(8) -0.3104(4) -0.4331(13)
H13 H -1.0723 -0.3186 -0.4719
H14 H -1.0039 -0.3089 -0.3221
C8 C -0.9265(7) -0.3544(4) -0.4834(11)
H15 H -0.9468 -0.3906 -0.4431
H16 H -0.9259 -0.3567 -0.5944
C9 C -0.7387(7) -0.3710(3) -0.4684(9)
C10 C -0.7450(9) -0.4269(4) -0.5106(11)
H17 H -0.8099 -0.4451 -0.5152
C11 C -0.6543(10) -0.4550(4) -0.5454(12)
H18 H -0.6578 -0.4926 -0.5732
C12 C -0.5604(10) -0.4290(4) -0.5398(13)
H19 H -0.4996 -0.4489 -0.5631
C13 C -0.5525(8) -0.3738(4) -0.5005(11)
H20 H -0.4871 -0.3560 -0.5005
C14 C -0.6411(6) -0.3446(3) -0.4611(10)
Mn1C Mn -0.79938(18) -0.24399(9) -0.4479(3)
Mn1C_2 Mn -0.79938(18) -0.24399(9) 0.5521(3)
O1C O -0.7917(5) -0.2539(2) -0.6986(6)
O1C_2 O -0.7917(5) -0.2539(2) 0.3014(6)
O2C O -0.6434(4) -0.2117(2) 0.0843(7)
O3C O -0.6685(6) -0.3175(3) 0.0004(11)
O4C O -0.8688(7) -0.3398(3) 0.0907(10)
O5C O -0.9664(5) -0.2414(3) 0.0077(8)
O6C O -0.8241(4) -0.1611(2) 0.0748(7)
C1C C -0.5527(7) -0.2453(4) 0.0470(12)
H1C H -0.5370 -0.2422 -0.0612
H2C H -0.4913 -0.2334 0.1062
C2C C -0.5813(8) -0.3041(4) 0.0863(12)
H3C H -0.5964 -0.3072 0.1946
H4C H -0.5236 -0.3292 0.0630
C3C C -0.7076(13) -0.3734(5) 0.028(4)
H5C H -0.6676 -0.3879 0.1150
H6C H -0.6877 -0.3958 -0.0599
C4C C -0.7931(19) -0.3832(6) 0.050(2)
H7C H -0.8208 -0.4016 -0.0411
H8C H -0.7941 -0.4108 0.1318
C5C C -0.9698(14) -0.3404(5) 0.0224(14)
H9C H -0.9643 -0.3425 -0.0883
H10C H -1.0090 -0.3728 0.0572
C6C C -1.0232(9) -0.2896(5) 0.0657(13)
H11C H -1.0946 -0.2898 0.0241
H12C H -1.0270 -0.2874 0.1765
C7C C -1.0019(8) -0.1896(4) 0.0669(13)
H13C H -1.0723 -0.1814 0.0281
H14C H -1.0039 -0.1911 0.1779
C8C C -0.9265(7) -0.1456(4) 0.0166(11)
H15C H -0.9468 -0.1094 0.0569
H16C H -0.9259 -0.1433 -0.0944
C9C C -0.7387(7) -0.1290(3) 0.0316(9)
C10C C -0.7450(9) -0.0731(4) -0.0106(11)
H17C H -0.8099 -0.0549 -0.0152
C11C C -0.6543(10) -0.0450(4) -0.0454(12)
H18C H -0.6578 -0.0074 -0.0732
C12C C -0.5604(10) -0.0710(4) -0.0398(13)
H19C H -0.4996 -0.0511 -0.0631
C13C C -0.5525(8) -0.1262(4) -0.0005(11)
H20C H -0.4871 -0.1440 -0.0005
C14C C -0.6411(6) -0.1554(3) 0.0389(10)
I1 I -0.23872(7) -0.09798(3) -0.19580(11)
I2 I -0.28232(5) -0.22117(3) -0.18972(7)
I3 I -0.32614(7) -0.33775(3) -0.17440(10)
I4 I -0.42060(7) -0.02835(3) -0.42275(11)
I5 I -0.03284(6) -0.01441(3) -0.24698(8)
I6 I 0.13502(6) 0.05787(3) -0.27932(9)
I1B I -0.76128(7) 0.09798(3) -0.80420(11)
I2B I -0.71768(5) 0.22117(3) -0.81028(7)
I3B I -0.67386(7) 0.33775(3) -0.82560(10)
I4B I -0.57940(7) 0.02835(3) -0.57725(11)
I5B I -0.96716(6) 0.01441(3) -0.75302(8)
I6B I -1.13502(6) -0.05787(3) -0.72068(9)
loop_
_geom_bond_atom_site_label_1
_geom_bond_atom_site_label_2
_geom_bond_site_symmetry_1
_geom_bond_site_symmetry_2
Mn1 O1 1_555 1_555
O1 Mn1C 1_555 1_555
O2 C1 1_555 1_555
O3 C2 1_555 1_555
O4 C4 1_555 1_555
O5 C6 1_555 1_555
O6 C8 1_555 1_555
C1 H1 1_555 1_555
H2 C1 1_555 1_555
C2 C1 1_555 1_555
H3 C2 1_555 1_555
H4 C2 1_555 1_555
C3 O3 1_555 1_555
H5 C3 1_555 1_555
H6 C3 1_555 1_555
C4 C3 1_555 1_555
H7 C4 1_555 1_555
H8 C4 1_555 1_555
C5 O4 1_555 1_555
H9 C5 1_555 1_555
H10 C5 1_555 1_555
C6 C5 1_555 1_555
H11 C6 1_555 1_555
H12 C6 1_555 1_555
C7 O5 1_555 1_555
H13 C7 1_555 1_555
H14 C7 1_555 1_555
C8 C7 1_555 1_555
H15 C8 1_555 1_555
H16 C8 1_555 1_555
C9 O6 1_555 1_555
C10 C9 1_555 1_555
H17 C10 1_555 1_555
C11 C10 1_555 1_555
H18 C11 1_555 1_555
C12 C11 1_555 1_555
H19 C12 1_555 1_555
C13 C12 1_555 1_555
H20 C13 1_555 1_555
C14 O2 1_555 1_555
I1 I2 1_555 1_555
I2 I3 1_555 1_555
I4 I1 1_555 1_555
I5 I1 1_555 1_555
I6 I5 1_555 1_555
Mn1C O2 1_555 1_555
Mn1C_2 O1C_2 1_555 1_555
O1C Mn1C 1_555 1_555
O1C_2 Mn1 1_555 1_555
O2C Mn1 1_555 1_555
O3C Mn1 1_555 1_555
O4C Mn1 1_555 1_555
O5C Mn1 1_555 1_555
O6C Mn1 1_555 1_555
C1C O2C 1_555 1_555
H1C C1C 1_555 1_555
H2C C1C 1_555 1_555
C2C O3C 1_555 1_555
H3C C2C 1_555 1_555
H4C C2C 1_555 1_555
C3C O3C 1_555 1_555
H5C C3C 1_555 1_555
H6C C3C 1_555 1_555
C4C O4C 1_555 1_555
H7C C4C 1_555 1_555
H8C C4C 1_555 1_555
C5C O4C 1_555 1_555
H9C C5C 1_555 1_555
H10C C5C 1_555 1_555
C6C O5C 1_555 1_555
H11C C6C 1_555 1_555
H12C C6C 1_555 1_555
C7C O5C 1_555 1_555
H13C C7C 1_555 1_555
H14C C7C 1_555 1_555
C8C O6C 1_555 1_555
H15C C8C 1_555 1_555
H16C C8C 1_555 1_555
C9C O6C 1_555 1_555
C10C C9C 1_555 1_555
H17C C10C 1_555 1_555
C11C C10C 1_555 1_555
H18C C11C 1_555 1_555
C12C C11C 1_555 1_555
H19C C12C 1_555 1_555
C13C C12C 1_555 1_555
H20C C13C 1_555 1_555
C14C O2C 1_555 1_555
I1B I2B 1_555 1_555
I2B I3B 1_555 1_555
I4B I4 1_555 1_555
I5B I1B 1_555 1_555
I6B I5B 1_555 1_555
O3 Mn1C 1_555 1_555
O4 Mn1C 1_555 1_555
O5 Mn1C 1_555 1_555
O6 Mn1C 1_555 1_555
C9 C14 1_555 1_555
C13 C14 1_555 1_555
C1C C2C 1_555 1_555
C3C C4C 1_555 1_555
C5C C6C 1_555 1_555
C7C C8C 1_555 1_555
C9C C14C 1_555 1_555
C13C C14C 1_555 1_555
I1B I4B 1_555 1_555

#END
