
#######################################################################
#
#                 Cambridge Crystallographic Data Centre
#                                CCDC 
#
#######################################################################
#
# If this CIF has been generated from an entry in the Cambridge 
# Structural Database, then it will include bibliographic, chemical, 
# crystal, experimental, refinement or atomic coordinate data resulting 
# from the CCDC's data processing and validation procedures.
#
#######################################################################

data_PANXOT
_symmetry_cell_setting           orthorhombic
_symmetry_space_group_name_H-M   'P 21 21 21'
_symmetry_Int_Tables_number      19
_space_group_name_Hall           'P 2ac 2ab'
loop_
_symmetry_equiv_pos_site_id
_symmetry_equiv_pos_as_xyz
1 x,y,z
2 1/2-x,-y,1/2+z
3 -x,1/2+y,1/2-z
4 1/2+x,1/2-y,-z
_cell_length_a                   12.299(2)
_cell_length_b                   15.006(3)
_cell_length_c                   15.438(3)
_cell_angle_alpha                90
_cell_angle_beta                 90
_cell_angle_gamma                90
_cell_volume                     2849.22
loop_
_atom_site_label
_atom_site_type_symbol
_atom_site_fract_x
_atom_site_fract_y
_atom_site_fract_z
Zn1 Zn 0.785360(17) 0.385795(15) 0.856408(14)
Zn2 Zn 0.850866(19) 0.740898(15) 0.791908(14)
C1 C 0.6617(2) 0.24883(17) 0.74165(14)
H1 H 0.7125 0.2629 0.6992
C2 C 0.5821(2) 0.18629(18) 0.72292(16)
H2 H 0.5798 0.1589 0.6689
C3 C 0.5066(2) 0.16533(18) 0.78549(17)
H3 H 0.4519 0.1243 0.7739
C4 C 0.51294(18) 0.20569(16) 0.86542(17)
H4 H 0.4633 0.1920 0.9089
C5 C 0.59533(16) 0.26733(14) 0.87943(13)
C6 C 0.60916(18) 0.31211(14) 0.96350(14)
H5 H 0.5599 0.3016 1.0080
C7 C 0.6959(2) 0.40707(15) 1.06201(13)
H6 H 0.7543 0.3796 1.0948
H7 H 0.6286 0.3983 1.0936
C8 C 0.71771(18) 0.50459(13) 1.05174(12)
C9 C 0.63796(17) 0.56237(15) 1.02152(13)
C10 C 0.66013(17) 0.65096(14) 1.00572(13)
C11 C 0.76313(17) 0.68660(14) 1.01857(12)
C12 C 0.84037(16) 0.62948(14) 1.05102(12)
C13 C 0.81787(17) 0.54064(14) 1.06705(12)
C14 C 0.7888(2) 0.78180(14) 0.99494(13)
H8 H 0.7448 0.8218 1.0297
H9 H 0.8647 0.7941 1.0071
C15 C 0.6956(2) 0.85465(15) 0.88279(15)
H10 H 0.6580 0.8848 0.9260
C16 C 0.67233(18) 0.87339(14) 0.79163(15)
C17 C 0.5887(2) 0.92991(19) 0.76676(18)
H11 H 0.5447 0.9568 0.8083
C18 C 0.5714(2) 0.94578(18) 0.67997(19)
H12 H 0.5144 0.9822 0.6620
C19 C 0.6380(2) 0.90789(18) 0.62158(17)
H13 H 0.6296 0.9197 0.5628
C20 C 0.7205(2) 0.85012(16) 0.65034(15)
H14 H 0.7650 0.8229 0.6094
C21 C 0.76009(14) 0.56560(12) 0.80602(12)
C22 C 0.87030(15) 0.56147(12) 0.85508(12)
C23 C 0.95112(16) 0.33347(13) 0.73812(12)
C24 C 0.97493(16) 0.28125(12) 0.82402(12)
F1 F 0.57978(11) 0.70301(10) 0.97593(10)
F2 F 0.53759(11) 0.53138(11) 1.00556(10)
F3 F 0.94238(11) 0.65869(10) 1.06526(10)
F4 F 0.89975(12) 0.48793(9) 1.09507(10)
N1 N 0.66827(14) 0.28950(11) 0.81820(11)
N2 N 0.68781(14) 0.36475(11) 0.97526(11)
N3 N 0.76677(14) 0.79747(12) 0.90279(11)
N4 N 0.73734(15) 0.83295(12) 0.73375(12)
O1 O 0.89450(11) 0.48954(9) 0.89121(9)
O2 O 0.92601(11) 0.63168(9) 0.85571(10)
O3 O 0.70081(11) 0.49802(9) 0.80915(10)
O4 O 0.73952(12) 0.63707(10) 0.76757(10)
O5 O 0.86502(12) 0.37759(10) 0.73549(8)
O6 O 1.02029(12) 0.32677(10) 0.67945(9)
O7 O 0.90922(12) 0.29133(10) 0.88567(9)
O8 O 1.05770(12) 0.23358(10) 0.82454(9)
Zn2B Zn 1.149134(19) 0.240898(15) 0.708092(14)
O6B O 0.97971(12) 0.82677(10) 0.82055(9)
O8B O 0.94230(12) 0.73358(10) 0.67546(9)
O9 O 0.2224(3) 0.6248(2) 0.57310(19)
H15 H 0.2048 0.5912 0.6127
H16 H 0.1789 0.6600 0.5520
O10 O 0.15070(19) 0.5912(2) 0.8428(2)
H17 H 0.0990 0.6232 0.8553
H18 H 0.1569 0.5693 0.7944
O11 O 0.1182(2) 0.4728(2) 0.9776(2)
H19 H 0.1601 0.4479 1.0111
H20 H 0.0536 0.4597 0.9759
O12 O 0.1176(4) 0.5154(2) 0.6771(3)
H21 H 0.1331 0.4632 0.6674
H22 H 0.0553 0.5340 0.6711
loop_
_geom_bond_atom_site_label_1
_geom_bond_atom_site_label_2
_geom_bond_site_symmetry_1
_geom_bond_site_symmetry_2
Zn1 N1 1_555 1_555
Zn2 N3 1_555 1_555
C1 H1 1_555 1_555
C2 C1 1_555 1_555
H2 C2 1_555 1_555
C3 C2 1_555 1_555
H3 C3 1_555 1_555
C4 C3 1_555 1_555
H4 C4 1_555 1_555
C5 C4 1_555 1_555
C6 C5 1_555 1_555
H5 C6 1_555 1_555
C7 H6 1_555 1_555
H7 C7 1_555 1_555
C8 C7 1_555 1_555
C9 C8 1_555 1_555
C10 C9 1_555 1_555
C11 C10 1_555 1_555
C12 C11 1_555 1_555
C13 C8 1_555 1_555
C14 C11 1_555 1_555
H8 C14 1_555 1_555
H9 C14 1_555 1_555
C15 H10 1_555 1_555
C16 C15 1_555 1_555
C17 C16 1_555 1_555
H11 C17 1_555 1_555
C18 C17 1_555 1_555
H12 C18 1_555 1_555
C19 C18 1_555 1_555
H13 C19 1_555 1_555
C20 C19 1_555 1_555
H14 C20 1_555 1_555
C21 C22 1_555 1_555
C22 O1 1_555 1_555
C23 C24 1_555 1_555
C24 O7 1_555 1_555
F1 C10 1_555 1_555
F2 C9 1_555 1_555
F3 C12 1_555 1_555
F4 C13 1_555 1_555
N1 C1 1_555 1_555
N2 Zn1 1_555 1_555
N3 C14 1_555 1_555
N4 Zn2 1_555 1_555
O1 Zn1 1_555 1_555
O2 Zn2 1_555 1_555
O3 Zn1 1_555 1_555
O4 Zn2 1_555 1_555
O5 Zn1 1_555 1_555
O6 C23 1_555 1_555
O7 Zn1 1_555 1_555
O8 C24 1_555 1_555
O9 H15 1_555 1_555
H16 O9 1_555 1_555
O10 H17 1_555 1_555
H18 O10 1_555 1_555
O11 H19 1_555 1_555
H20 O11 1_555 1_555
O12 H21 1_555 1_555
H22 O12 1_555 1_555
Zn2B O6 1_555 1_555
O6B Zn2 1_555 1_555
O8B Zn2 1_555 1_555
C5 N1 1_555 1_555
C6 N2 1_555 1_555
C7 N2 1_555 1_555
C12 C13 1_555 1_555
C15 N3 1_555 1_555
C16 N4 1_555 1_555
C20 N4 1_555 1_555
C21 O3 1_555 1_555
C21 O4 1_555 1_555
C22 O2 1_555 1_555
C23 O5 1_555 1_555
O8 Zn2B 1_555 1_555

#END
