
#######################################################################
#
#                 Cambridge Crystallographic Data Centre
#                                CCDC 
#
#######################################################################
#
# If this CIF has been generated from an entry in the Cambridge 
# Structural Database, then it will include bibliographic, chemical, 
# crystal, experimental, refinement or atomic coordinate data resulting 
# from the CCDC's data processing and validation procedures.
#
#######################################################################

data_PAPCEQ
_symmetry_cell_setting           monoclinic
_symmetry_space_group_name_H-M   'P 21/c'
_symmetry_Int_Tables_number      14
_space_group_name_Hall           '-P 2ybc'
loop_
_symmetry_equiv_pos_site_id
_symmetry_equiv_pos_as_xyz
1 x,y,z
2 -x,1/2+y,1/2-z
3 -x,-y,-z
4 x,1/2-y,1/2+z
_cell_length_a                   14.868(6)
_cell_length_b                   16.930(7)
_cell_length_c                   22.725(10)
_cell_angle_alpha                90
_cell_angle_beta                 99.218(5)
_cell_angle_gamma                90
_cell_volume                     5646.36
loop_
_atom_site_label
_atom_site_type_symbol
_atom_site_fract_x
_atom_site_fract_y
_atom_site_fract_z
Cu1 Cu 0.45869(6) 0.62435(6) 0.01948(4)
Cu2 Cu 0.55106(6) 0.52914(6) 0.10005(4)
Cu3 Cu 0.35522(6) 0.49109(5) -0.00498(4)
Cu4 Cu 0.85480(8) 0.68492(9) 0.16540(5)
Cu5 Cu 0.12658(6) 0.62459(8) -0.17869(4)
Cu6 Cu 0.19534(6) 0.70059(7) 0.14091(4)
S1 S 0.39891(12) 0.52093(11) 0.09357(7)
S2 S 0.61300(12) 0.63754(11) 0.02387(8)
S3 S 0.41299(11) 0.59948(11) -0.07968(8)
O1 O 0.2543(3) 0.7604(3) 0.0884(2)
O2 O 0.1281(4) 0.4978(4) 0.2062(3)
O3 O 0.1241(4) 0.6255(4) 0.1758(3)
O4 O 0.7922(4) 0.6130(5) 0.2064(3)
O5 O 0.9200(4) 0.7513(4) 0.1171(3)
O6 O 0.9009(6) 0.8160(5) 0.0286(4)
O7 O 0.1072(3) 0.5523(3) -0.1193(2)
O8 O 0.1599(3) 0.6847(4) -0.2435(2)
O9 O 0.2736(3) 0.7486(3) -0.2724(2)
O10 O 0.9710(4) 0.6589(6) 0.2200(3)
O11 O 0.7685(9) 0.7861(5) 0.2042(6)
O12 O 0.0086(4) 0.5976(6) -0.2247(3)
O13 O 0.0793(6) 0.7515(5) -0.1213(6)
O14 O 0.0995(3) 0.7814(3) 0.1401(2)
N1 N 0.3653(4) 0.6732(3) 0.0677(2)
N2 N 0.2780(4) 0.6153(3) 0.1349(2)
N3 N 0.6561(4) 0.5991(4) 0.1389(2)
N4 N 0.7513(4) 0.6955(4) 0.1017(3)
N5 N 0.2522(3) 0.5457(3) -0.0621(2)
N6 N 0.2507(4) 0.6377(4) -0.1425(2)
C1 C 0.3591(4) 0.8069(3) 0.0308(2)
C2 C 0.2994(4) 0.8684(4) 0.0122(3)
H1 H 0.2408 0.8680 0.0216
C3 C 0.3272(5) 0.9306(3) -0.0205(3)
H2 H 0.2873 0.9718 -0.0330
C4 C 0.4148(5) 0.9313(3) -0.0347(3)
H3 H 0.4334 0.9729 -0.0566
C5 C 0.4745(4) 0.8697(4) -0.0161(3)
H4 H 0.5331 0.8702 -0.0255
C6 C 0.4466(3) 0.8075(3) 0.0166(3)
H5 H 0.4866 0.7664 0.0291
C7 C 0.3207(5) 0.7429(5) 0.0639(3)
C8 C 0.3390(5) 0.6109(5) 0.1004(3)
C9 C 0.2561(4) 0.5476(5) 0.1708(3)
H6 H 0.2583 0.4990 0.1477
C10 C 0.1599(5) 0.5584(4) 0.1850(3)
C11 C 0.3251(5) 0.5416(5) 0.2286(3)
H7 H 0.3810 0.5195 0.2200
H8 H 0.3009 0.5082 0.2565
H9 H 0.3365 0.5933 0.2455
C12 C 0.6784(4) 0.5328(4) 0.2350(2)
C13 C 0.5862(4) 0.5233(4) 0.2373(3)
H10 H 0.5429 0.5478 0.2091
C14 C 0.5586(4) 0.4771(5) 0.2818(3)
H11 H 0.4969 0.4707 0.2833
C15 C 0.6233(6) 0.4404(5) 0.3239(3)
H12 H 0.6049 0.4095 0.3537
C16 C 0.7155(5) 0.4499(5) 0.3216(3)
H13 H 0.7588 0.4254 0.3498
C17 C 0.7431(4) 0.4961(5) 0.2772(3)
H14 H 0.8048 0.5025 0.2756
C18 C 0.7117(7) 0.5877(7) 0.1905(4)
C19 C 0.6813(5) 0.6494(5) 0.0952(3)
C20 C 0.7699(4) 0.7497(4) 0.0554(5)
H15 H 0.7558 0.7239 0.0164
C21 C 0.8690(5) 0.7726(6) 0.0668(5)
C22 C 0.7100(7) 0.8231(6) 0.0562(6)
H16 H 0.6727 0.8295 0.0179
H17 H 0.7480 0.8689 0.0650
H18 H 0.6718 0.8171 0.0862
C23 C 0.1256(5) 0.4712(4) -0.0365(3)
C24 C 0.0449(5) 0.4317(5) -0.0562(3)
H19 H 0.0147 0.4417 -0.0946
C25 C 0.0069(6) 0.3772(5) -0.0209(4)
H20 H -0.0450 0.3493 -0.0371
C26 C 0.0437(6) 0.3650(5) 0.0352(4)
H21 H 0.0173 0.3296 0.0586
C27 C 0.1244(6) 0.4068(5) 0.0593(4)
H22 H 0.1516 0.3988 0.0986
C28 C 0.1623(5) 0.4607(5) 0.0227(3)
H23 H 0.2134 0.4897 0.0389
C29 C 0.1624(5) 0.5274(4) -0.0765(3)
C30 C 0.2932(4) 0.5969(4) -0.0985(3)
C31 C 0.3008(5) 0.6914(5) -0.1771(3)
H24 H 0.3567 0.6657 -0.1850
C32 C 0.2401(5) 0.7101(5) -0.2354(3)
C33 C 0.3245(7) 0.7694(5) -0.1433(4)
H25 H 0.3524 0.7581 -0.1031
H26 H 0.3661 0.7992 -0.1628
H27 H 0.2699 0.7995 -0.1429
Cu2B Cu 0.44894(6) 0.47086(6) -0.10005(4)
Cu3B Cu 0.64478(6) 0.50891(5) 0.00498(4)
Cu6C Cu 0.19534(6) 0.79941(7) -0.35909(4)
S2B S 0.38700(12) 0.36246(11) -0.02387(8)
S3B S 0.58701(11) 0.40052(11) 0.07968(8)
O9C O 0.2736(3) 0.7514(3) 0.2276(2)
loop_
_geom_bond_atom_site_label_1
_geom_bond_atom_site_label_2
_geom_bond_site_symmetry_1
_geom_bond_site_symmetry_2
Cu1 Cu2 1_555 1_555
Cu2 S1 1_555 1_555
Cu3 Cu1 1_555 1_555
Cu4 O4 1_555 1_555
Cu5 O7 1_555 1_555
Cu6 O1 1_555 1_555
S1 Cu1 1_555 1_555
S2 Cu1 1_555 1_555
S3 Cu1 1_555 1_555
O1 C7 1_555 1_555
O2 C10 1_555 1_555
O3 Cu6 1_555 1_555
O4 C18 1_555 1_555
O5 Cu4 1_555 1_555
O6 C21 1_555 1_555
O7 C29 1_555 1_555
O8 Cu5 1_555 1_555
O9 C32 1_555 1_555
O10 Cu4 1_555 1_555
O11 Cu4 1_555 1_555
O12 Cu5 1_555 1_555
O13 Cu5 1_555 1_555
O14 Cu6 1_555 1_555
N1 Cu1 1_555 1_555
N2 Cu6 1_555 1_555
N3 Cu2 1_555 1_555
N4 Cu4 1_555 1_555
N5 Cu3 1_555 1_555
N6 Cu5 1_555 1_555
C1 C2 1_555 1_555
C2 H1 1_555 1_555
C3 C2 1_555 1_555
H2 C3 1_555 1_555
C4 C3 1_555 1_555
H3 C4 1_555 1_555
C5 C4 1_555 1_555
H4 C5 1_555 1_555
C6 C1 1_555 1_555
H5 C6 1_555 1_555
C7 N1 1_555 1_555
C8 S1 1_555 1_555
C9 N2 1_555 1_555
H6 C9 1_555 1_555
C10 O3 1_555 1_555
C11 C9 1_555 1_555
H7 C11 1_555 1_555
H8 C11 1_555 1_555
H9 C11 1_555 1_555
C12 C13 1_555 1_555
C13 H10 1_555 1_555
C14 C13 1_555 1_555
H11 C14 1_555 1_555
C15 C14 1_555 1_555
H12 C15 1_555 1_555
C16 C15 1_555 1_555
H13 C16 1_555 1_555
C17 C12 1_555 1_555
H14 C17 1_555 1_555
C18 N3 1_555 1_555
C19 S2 1_555 1_555
C20 N4 1_555 1_555
H15 C20 1_555 1_555
C21 O5 1_555 1_555
C22 C20 1_555 1_555
H16 C22 1_555 1_555
H17 C22 1_555 1_555
H18 C22 1_555 1_555
C23 C24 1_555 1_555
C24 H19 1_555 1_555
C25 C24 1_555 1_555
H20 C25 1_555 1_555
C26 C25 1_555 1_555
H21 C26 1_555 1_555
C27 C26 1_555 1_555
H22 C27 1_555 1_555
C28 C23 1_555 1_555
H23 C28 1_555 1_555
C29 N5 1_555 1_555
C30 S3 1_555 1_555
C31 N6 1_555 1_555
H24 C31 1_555 1_555
C32 O8 1_555 1_555
C33 C31 1_555 1_555
H25 C33 1_555 1_555
H26 C33 1_555 1_555
H27 C33 1_555 1_555
Cu2B Cu3 1_555 1_555
Cu3B Cu2 1_555 1_555
Cu6C O9 1_555 1_555
S2B Cu3 1_555 1_555
S3B Cu2 1_555 1_555
O9C Cu6 1_555 1_555
Cu2 S2 1_555 1_555
Cu3 S1 1_555 1_555
Cu3 S3 1_555 1_555
S2 Cu3B 1_555 1_555
S3 Cu2B 1_555 1_555
N1 C8 1_555 1_555
N2 C8 1_555 1_555
N3 C19 1_555 1_555
N4 C19 1_555 1_555
N5 C30 1_555 1_555
N6 C30 1_555 1_555
C1 C7 1_555 1_555
C5 C6 1_555 1_555
C9 C10 1_555 1_555
C12 C18 1_555 1_555
C16 C17 1_555 1_555
C20 C21 1_555 1_555
C23 C29 1_555 1_555
C27 C28 1_555 1_555
C31 C32 1_555 1_555
Cu2B S2B 1_555 1_555
Cu3B S3B 1_555 1_555

#END
