
#######################################################################
#
#                 Cambridge Crystallographic Data Centre
#                                CCDC 
#
#######################################################################
#
# If this CIF has been generated from an entry in the Cambridge 
# Structural Database, then it will include bibliographic, chemical, 
# crystal, experimental, refinement or atomic coordinate data resulting 
# from the CCDC's data processing and validation procedures.
#
#######################################################################

data_PAPJAT
_symmetry_cell_setting           orthorhombic
_symmetry_space_group_name_H-M   'P c a 21'
_symmetry_Int_Tables_number      29
_space_group_name_Hall           'P 2c -2ac'
loop_
_symmetry_equiv_pos_site_id
_symmetry_equiv_pos_as_xyz
1 x,y,z
2 -x,-y,1/2+z
3 1/2-x,y,1/2+z
4 1/2+x,-y,z
_cell_length_a                   14.9735(6)
_cell_length_b                   9.3372(3)
_cell_length_c                   14.3187(6)
_cell_angle_alpha                90
_cell_angle_beta                 90
_cell_angle_gamma                90
_cell_volume                     2001.91
loop_
_atom_site_label
_atom_site_type_symbol
_atom_site_fract_x
_atom_site_fract_y
_atom_site_fract_z
Zn1 Zn 0.411304(19) 0.11072(3) 0.14332(13)
C1 C 0.4790(6) -0.0998(9) 0.0089(5)
H1 H 0.5298 -0.1131 0.0452
C2 C 0.3763(8) -0.1328(13) -0.0961(6)
H2 H 0.3426 -0.1706 -0.1448
C3 C 0.3512(6) -0.0230(10) -0.0386(6)
H3 H 0.2988 0.0301 -0.0427
C4 C 0.5121(6) -0.2971(11) -0.1068(6)
H4 H 0.5723 -0.2902 -0.0820
H5 H 0.5160 -0.2883 -0.1742
C5 C 0.4749(7) -0.4424(11) -0.0832(7)
H6 H 0.4136 -0.4479 -0.1048
H7 H 0.4746 -0.4541 -0.0159
C6 C 0.5282(6) -0.5638(11) -0.1267(7)
H8 H 0.5306 -0.5503 -0.1938
H9 H 0.5889 -0.5609 -0.1031
C7 C 0.4884(7) -0.7068(10) -0.1058(6)
H10 H 0.4857 -0.7207 -0.0387
H11 H 0.4279 -0.7107 -0.1300
C8 C 0.5189(7) -0.8985(10) -0.2181(6)
H12 H 0.4645 -0.8906 -0.2491
C9 C 0.6477(6) -0.9727(11) -0.1726(6)
H13 H 0.7009 -1.0237 -0.1685
C10 C 0.6229(8) -0.8702(12) -0.1132(7)
H14 H 0.6530 -0.8385 -0.0604
C11 C 0.65399(18) 0.3093(3) 0.1447(7)
C12 C 0.73792(19) 0.2413(3) 0.1433(8)
C13 C 0.8155(2) 0.3227(3) 0.1458(9)
H15 H 0.8707 0.2773 0.1487
C14 C 0.81135(19) 0.4696(3) 0.1438(10)
H16 H 0.8637 0.5232 0.1429
C15 C 0.72896(18) 0.5379(3) 0.1433(8)
C16 C 0.65079(18) 0.4584(3) 0.1457(8)
H17 H 0.5959 0.5048 0.1480
C17 C 0.57154(18) 0.2229(3) 0.1438(8)
N1 N 0.4171(4) -0.0059(9) 0.0258(5)
N2 N 0.4587(5) -0.1770(9) -0.0702(4)
N3 N 0.5418(5) -0.8211(8) -0.1481(5)
N4 N 0.5834(4) -0.9930(8) -0.2413(5)
O1 O 0.49522(12) 0.2834(2) 0.1432(6)
O2 O 0.57771(13) 0.0888(2) 0.1447(8)
O3 O 0.74627(15) 0.0983(2) 0.1452(8)
H18 H 0.6966 0.0614 0.1436
O4 O 0.8018(7) 0.7799(12) 0.1135(10)
O5 O 0.7010(7) 0.7727(9) 0.2463(6)
O6 O 0.6490(7) 0.7668(11) 0.0888(6)
S1 S 0.72247(6) 0.72645(9) 0.1429(4)
Zn1A Zn 0.588696(19) -1.11072(3) -0.35668(13)
Zn1C Zn 0.911304(19) 0.88928(3) 0.14332(13)
N4A N 0.4166(4) -0.0070(8) 0.2587(5)
O4C O 0.3018(7) 0.2201(12) 0.1135(10)
O7 O 0.748(3) 0.5749(13) -0.113(2)
O8? O 0.3028(9) 0.2244(15) 0.1792(10)
O9? O 0.7438(6) 0.7518(10) 0.0230(6)
O10? O 0.6398(5) 0.7704(8) 0.1581(7)
loop_
_geom_bond_atom_site_label_1
_geom_bond_atom_site_label_2
_geom_bond_site_symmetry_1
_geom_bond_site_symmetry_2
Zn1 N1 1_555 1_555
C1 H1 1_555 1_555
C2 H2 1_555 1_555
C3 C2 1_555 1_555
H3 C3 1_555 1_555
C4 H4 1_555 1_555
H5 C4 1_555 1_555
C5 C4 1_555 1_555
H6 C5 1_555 1_555
H7 C5 1_555 1_555
C6 C5 1_555 1_555
H8 C6 1_555 1_555
H9 C6 1_555 1_555
C7 C6 1_555 1_555
H10 C7 1_555 1_555
H11 C7 1_555 1_555
C8 H12 1_555 1_555
C9 H13 1_555 1_555
C10 C9 1_555 1_555
H14 C10 1_555 1_555
C11 C12 1_555 1_555
C12 C13 1_555 1_555
C13 H15 1_555 1_555
C14 C13 1_555 1_555
H16 C14 1_555 1_555
C15 C14 1_555 1_555
C16 C11 1_555 1_555
H17 C16 1_555 1_555
C17 C11 1_555 1_555
N1 C1 1_555 1_555
N2 C1 1_555 1_555
N3 C7 1_555 1_555
N4 C8 1_555 1_555
O1 Zn1 1_555 1_555
O2 C17 1_555 1_555
O3 C12 1_555 1_555
H18 O3 1_555 1_555
O4 S1 1_555 1_555
O5 S1 1_555 1_555
O6 S1 1_555 1_555
S1 C15 1_555 1_555
Zn1A N4 1_555 1_555
Zn1C O4 1_555 1_555
N4A Zn1 1_555 1_555
O4C Zn1 1_555 1_555
C2 N2 1_555 1_555
C3 N1 1_555 1_555
C4 N2 1_555 1_555
C8 N3 1_555 1_555
C9 N4 1_555 1_555
C10 N3 1_555 1_555
C15 C16 1_555 1_555
C17 O1 1_555 1_555

#END
