
#######################################################################
#
#                 Cambridge Crystallographic Data Centre
#                                CCDC 
#
#######################################################################
#
# If this CIF has been generated from an entry in the Cambridge 
# Structural Database, then it will include bibliographic, chemical, 
# crystal, experimental, refinement or atomic coordinate data resulting 
# from the CCDC's data processing and validation procedures.
#
#######################################################################

data_PAPKEY
_symmetry_cell_setting           triclinic
_symmetry_space_group_name_H-M   'P -1'
_symmetry_Int_Tables_number      2
_space_group_name_Hall           '-P 1'
loop_
_symmetry_equiv_pos_site_id
_symmetry_equiv_pos_as_xyz
1 x,y,z
2 -x,-y,-z
_cell_length_a                   10.1695(3)
_cell_length_b                   11.7943(3)
_cell_length_c                   16.2736(4)
_cell_angle_alpha                81.6600(7)
_cell_angle_beta                 82.6040(8)
_cell_angle_gamma                64.6160(7)
_cell_volume                     1739.95
loop_
_atom_site_label
_atom_site_type_symbol
_atom_site_fract_x
_atom_site_fract_y
_atom_site_fract_z
W1 W 0.22761(2) 0.596052(18) 0.297077(11)
Br1 Br 0.27878(9) 0.89853(9) 0.52955(6)
Br2 Br -0.10381(10) 0.70700(10) -0.08173(6)
Br3 Br 0.85706(13) 0.08912(9) 0.19084(6)
Br4 Br 0.53506(11) 0.99334(9) -0.14870(5)
Cu1 Cu 0.75276(7) 0.51233(6) 0.36814(4)
Cu2 Cu 0.5000 0.5000 0.0000
N1 N 0.3922(5) 0.5109(4) 0.1116(2)
N2 N 0.5695(5) 0.5161(4) 0.3345(3)
N3 N -0.0084(6) 0.7503(5) 0.1543(3)
N4 N -0.0168(7) 0.8439(5) 0.3869(4)
N5 N 0.3558(8) 0.2847(5) 0.3254(5)
N6 N 0.2512(5) 0.5354(5) 0.5003(2)
N7 N -0.0627(5) 0.5359(4) 0.3438(3)
N8 N 0.3932(6) 0.7321(5) -0.0218(3)
N9 N 0.3316(6) 0.4902(5) -0.0556(2)
N10 N 0.6412(5) 0.6987(4) 0.3826(3)
N11 N 0.8662(5) 0.3331(4) 0.3422(3)
N12 N 0.3275(7) 0.8267(5) 0.2272(4)
C1 C 0.1137(9) 0.4784(8) -0.1349(4)
C2 C 0.0865(8) 0.5727(7) -0.0886(4)
C3 C 0.1950(7) 0.5770(6) -0.0491(3)
C4 C 0.2185(9) 0.9379(8) 0.0142(5)
C5 C 0.3621(8) 0.3951(6) -0.1031(3)
C6 C 0.2564(9) 0.3853(7) -0.1419(4)
C7 C 1.0434(9) 0.0896(7) 0.3056(6)
C8 C 0.9163(7) 0.1575(5) 0.2670(4)
C9 C 0.8302(7) 0.2798(6) 0.2876(3)
C10 C 0.9894(8) 0.2637(6) 0.3820(5)
C11 C 0.4429(6) 0.8586(6) 0.4512(3)
C12 C 0.4806(7) 0.9493(6) 0.4089(4)
C13 C 0.5216(6) 0.7339(6) 0.4370(4)
C14 C 0.6803(6) 0.7874(6) 0.3413(3)
C15 C 0.3347(5) 0.5361(5) 0.1771(3)
C16 C 0.4530(5) 0.5387(5) 0.3197(3)
C17 C 0.0734(6) 0.6989(5) 0.2038(3)
C18 C 0.0702(6) 0.7570(5) 0.3547(3)
C19 C 0.3113(6) 0.3934(5) 0.3150(3)
C20 C 0.0397(6) 0.5524(5) 0.3298(3)
C21 C 0.2406(5) 0.5580(5) 0.4306(3)
C22 C 0.2907(6) 0.7494(5) 0.2506(3)
C23 C 0.2918(9) 0.9989(7) -0.0386(4)
C24 C 0.4643(8) 0.7918(7) -0.0720(4)
C25 C 0.2695(9) 0.8107(7) 0.0215(4)
C26 C 1.0820(9) 0.1446(7) 0.3616(6)
C27 C 0.5995(8) 0.9152(6) 0.3536(4)
C28 C 0.4219(8) 0.9196(7) -0.0818(4)
H1 H 0.0398 0.4753 -0.1614
H2 H 0.1724 0.6427 -0.0168
H3 H 0.1333 0.9850 0.0449
H4 H 0.4578 0.3349 -0.1095
H5 H 0.2791 0.3177 -0.1725
H6 H 1.1028 0.0072 0.2940
H7 H 0.7437 0.3263 0.2618
H8 H 1.0118 0.2971 0.4239
H9 H 0.4259 1.0336 0.4177
H10 H 0.4921 0.6732 0.4651
H11 H 0.7624 0.7641 0.3038
H12 H 0.2577 1.0863 -0.0452
H13 H 0.5487 0.7426 -0.1024
H14 H 0.2177 0.7738 0.0583
H15 H 1.1706 0.1013 0.3857
H16 H 0.6271 0.9761 0.3240
W1A W 0.77239(2) 0.403948(18) -0.297077(11)
Br1A Br 0.72122(9) 0.10147(9) -0.52955(6)
Br2A Br 1.10381(10) 0.29300(10) 0.08173(6)
Br3A Br 0.14294(13) 0.91088(9) -0.19084(6)
Br4A Br 0.46494(11) 0.00666(9) 0.14870(5)
Cu1A Cu 0.24724(7) 0.48767(6) -0.36814(4)
Cu1A_2 Cu 0.24724(7) 0.48767(6) 0.63186(4)
Cu1_2 Cu -0.24724(7) 0.51233(6) 0.36814(4)
Cu1A_3 Cu 1.24724(7) 0.48767(6) -0.36814(4)
Cu1_3 Cu 0.75276(7) 0.51233(6) -0.63186(4)
N1A N 0.6078(5) 0.4891(4) -0.1116(2)
N2A N 0.4305(5) 0.4839(4) -0.3345(3)
N3A N 1.0084(6) 0.2497(5) -0.1543(3)
N4A N 1.0168(7) 0.1561(5) -0.3869(4)
N5A N 0.6442(8) 0.7153(5) -0.3254(5)
N6A N 0.7488(5) 0.4646(5) -0.5003(2)
N6A_2 N 0.7488(5) 0.4646(5) 0.4997(2)
N6_2 N 0.2512(5) 0.5354(5) -0.4997(2)
N7A N 1.0627(5) 0.4641(4) -0.3438(3)
N7_2 N 0.9373(5) 0.5359(4) 0.3438(3)
N7A_2 N 0.0627(5) 0.4641(4) -0.3438(3)
N8A N 0.6068(6) 0.2679(5) 0.0218(3)
N9A N 0.6684(6) 0.5098(5) 0.0556(2)
N10A N 0.3588(5) 0.3013(4) -0.3826(3)
N11A N 0.1338(5) 0.6669(4) -0.3422(3)
N12A N 0.6725(7) 0.1733(5) -0.2272(4)
C1A C 0.8863(9) 0.5216(8) 0.1349(4)
C2A C 0.9135(8) 0.4273(7) 0.0886(4)
C3A C 0.8050(7) 0.4230(6) 0.0491(3)
C4A C 0.7815(9) 0.0621(8) -0.0142(5)
C5A C 0.6379(8) 0.6049(6) 0.1031(3)
C6A C 0.7436(9) 0.6147(7) 0.1419(4)
C7A C -0.0434(9) 0.9104(7) -0.3056(6)
C8A C 0.0837(7) 0.8425(5) -0.2670(4)
C9A C 0.1698(7) 0.7202(6) -0.2876(3)
C10A C 0.0106(8) 0.7363(6) -0.3820(5)
C11A C 0.5571(6) 0.1414(6) -0.4512(3)
C12A C 0.5194(7) 0.0507(6) -0.4089(4)
C13A C 0.4784(6) 0.2661(6) -0.4370(4)
C14A C 0.3197(6) 0.2126(6) -0.3413(3)
C15A C 0.6653(5) 0.4639(5) -0.1771(3)
C16A C 0.5470(5) 0.4613(5) -0.3197(3)
C17A C 0.9266(6) 0.3011(5) -0.2038(3)
C18A C 0.9298(6) 0.2430(5) -0.3547(3)
C19A C 0.6887(6) 0.6066(5) -0.3150(3)
C20A C 0.9603(6) 0.4476(5) -0.3298(3)
C21A C 0.7594(5) 0.4420(5) -0.4306(3)
C22A C 0.7093(6) 0.2506(5) -0.2506(3)
C23A C 0.7082(9) 0.0011(7) 0.0386(4)
C24A C 0.5357(8) 0.2082(7) 0.0720(4)
C25A C 0.7305(9) 0.1893(7) -0.0215(4)
C26A C -0.0820(9) 0.8554(7) -0.3616(6)
C27A C 0.4005(8) 0.0848(6) -0.3536(4)
C28A C 0.5781(8) 0.0804(7) 0.0818(4)
H1A H 0.9602 0.5247 0.1614
H2A H 0.8276 0.3573 0.0168
H3A H 0.8667 0.0150 -0.0449
H4A H 0.5422 0.6651 0.1095
H5A H 0.7209 0.6823 0.1725
H6A H -0.1028 0.9928 -0.2940
H7A H 0.2563 0.6737 -0.2618
H8A H -0.0118 0.7029 -0.4239
H9A H 0.5741 -0.0336 -0.4177
H10A H 0.5079 0.3268 -0.4651
H11A H 0.2376 0.2359 -0.3038
H12A H 0.7423 -0.0863 0.0452
H13A H 0.4513 0.2574 0.1024
H14A H 0.7823 0.2262 -0.0583
H15A H -0.1706 0.8987 -0.3857
H16A H 0.3729 0.0239 -0.3240
loop_
_geom_bond_atom_site_label_1
_geom_bond_atom_site_label_2
_geom_bond_site_symmetry_1
_geom_bond_site_symmetry_2
W1 C15 1_555 1_555
Br1 C11 1_555 1_555
Br2 C2 1_555 1_555
Br3 C8 1_555 1_555
Br4 C28 1_555 1_555
Cu1 N2 1_555 1_555
Cu2 N1 1_555 1_555
N1 C15 1_555 1_555
N2 C16 1_555 1_555
N3 C17 1_555 1_555
N4 C18 1_555 1_555
N5 C19 1_555 1_555
N6 C21 1_555 1_555
N7 C20 1_555 1_555
N8 Cu2 1_555 1_555
N9 Cu2 1_555 1_555
N10 Cu1 1_555 1_555
N11 Cu1 1_555 1_555
N12 C22 1_555 1_555
C1 C2 1_555 1_555
C2 C3 1_555 1_555
C3 N9 1_555 1_555
C4 C23 1_555 1_555
C5 N9 1_555 1_555
C6 C1 1_555 1_555
C7 C8 1_555 1_555
C8 C9 1_555 1_555
C9 N11 1_555 1_555
C10 N11 1_555 1_555
C11 C12 1_555 1_555
C12 C27 1_555 1_555
C13 N10 1_555 1_555
C14 N10 1_555 1_555
C16 W1 1_555 1_555
C17 W1 1_555 1_555
C18 W1 1_555 1_555
C19 W1 1_555 1_555
C20 W1 1_555 1_555
C21 W1 1_555 1_555
C22 W1 1_555 1_555
C23 C28 1_555 1_555
C24 N8 1_555 1_555
C25 N8 1_555 1_555
C26 C7 1_555 1_555
C27 C14 1_555 1_555
C28 C24 1_555 1_555
H1 C1 1_555 1_555
H2 C3 1_555 1_555
H3 C4 1_555 1_555
H4 C5 1_555 1_555
H5 C6 1_555 1_555
H6 C7 1_555 1_555
H7 C9 1_555 1_555
H8 C10 1_555 1_555
H9 C12 1_555 1_555
H10 C13 1_555 1_555
H11 C14 1_555 1_555
H12 C23 1_555 1_555
H13 C24 1_555 1_555
H14 C25 1_555 1_555
H15 C26 1_555 1_555
H16 C27 1_555 1_555
W1A C15A 1_555 1_555
Br1A C11A 1_555 1_555
Br2A C2A 1_555 1_555
Br3A C8A 1_555 1_555
Br4A C28A 1_555 1_555
Cu1A N2A 1_555 1_555
Cu1A_2 N6 1_555 1_555
Cu1_2 N7 1_555 1_555
Cu1A_3 N7A 1_555 1_555
Cu1_3 N6A 1_555 1_555
N1A Cu2 1_555 1_555
N2A C16A 1_555 1_555
N3A C17A 1_555 1_555
N4A C18A 1_555 1_555
N5A C19A 1_555 1_555
N6A C21A 1_555 1_555
N6A_2 Cu1 1_555 1_555
N6_2 Cu1A 1_555 1_555
N7A C20A 1_555 1_555
N7_2 Cu1 1_555 1_555
N7A_2 Cu1A 1_555 1_555
N8A Cu2 1_555 1_555
N9A Cu2 1_555 1_555
N10A Cu1A 1_555 1_555
N11A Cu1A 1_555 1_555
N12A C22A 1_555 1_555
C1A C2A 1_555 1_555
C2A C3A 1_555 1_555
C3A N9A 1_555 1_555
C4A C23A 1_555 1_555
C5A N9A 1_555 1_555
C6A C1A 1_555 1_555
C7A C8A 1_555 1_555
C8A C9A 1_555 1_555
C9A N11A 1_555 1_555
C10A N11A 1_555 1_555
C11A C12A 1_555 1_555
C12A C27A 1_555 1_555
C13A N10A 1_555 1_555
C14A N10A 1_555 1_555
C15A N1A 1_555 1_555
C16A W1A 1_555 1_555
C17A W1A 1_555 1_555
C18A W1A 1_555 1_555
C19A W1A 1_555 1_555
C20A W1A 1_555 1_555
C21A W1A 1_555 1_555
C22A W1A 1_555 1_555
C23A C28A 1_555 1_555
C24A N8A 1_555 1_555
C25A N8A 1_555 1_555
C26A C7A 1_555 1_555
C27A C14A 1_555 1_555
C28A C24A 1_555 1_555
H1A C1A 1_555 1_555
H2A C3A 1_555 1_555
H3A C4A 1_555 1_555
H4A C5A 1_555 1_555
H5A C6A 1_555 1_555
H6A C7A 1_555 1_555
H7A C9A 1_555 1_555
H8A C10A 1_555 1_555
H9A C12A 1_555 1_555
H10A C13A 1_555 1_555
H11A C14A 1_555 1_555
H12A C23A 1_555 1_555
H13A C24A 1_555 1_555
H14A C25A 1_555 1_555
H15A C26A 1_555 1_555
H16A C27A 1_555 1_555
C4 C25 1_555 1_555
C5 C6 1_555 1_555
C10 C26 1_555 1_555
C11 C13 1_555 1_555
C4A C25A 1_555 1_555
C5A C6A 1_555 1_555
C10A C26A 1_555 1_555
C11A C13A 1_555 1_555

#END
