
#######################################################################
#
#                 Cambridge Crystallographic Data Centre
#                                CCDC 
#
#######################################################################
#
# If this CIF has been generated from an entry in the Cambridge 
# Structural Database, then it will include bibliographic, chemical, 
# crystal, experimental, refinement or atomic coordinate data resulting 
# from the CCDC's data processing and validation procedures.
#
#######################################################################

data_PAPLEZ
_symmetry_cell_setting           triclinic
_symmetry_space_group_name_H-M   'P -1'
_symmetry_Int_Tables_number      2
_space_group_name_Hall           '-P 1'
loop_
_symmetry_equiv_pos_site_id
_symmetry_equiv_pos_as_xyz
1 x,y,z
2 -x,-y,-z
_cell_length_a                   7.914(4)
_cell_length_b                   10.998(7)
_cell_length_c                   25.259(10)
_cell_angle_alpha                94.67(3)
_cell_angle_beta                 47.86(2)
_cell_angle_gamma                109.29(3)
_cell_volume                     1507.48
loop_
_atom_site_label
_atom_site_type_symbol
_atom_site_fract_x
_atom_site_fract_y
_atom_site_fract_z
C15 C -0.2881(11) 0.4364(6) 0.0581(4)
C16 C 0.2910(10) 0.0645(6) -0.0588(3)
C17 C 0.1645(12) 0.2344(6) 0.0647(4)
H11 H 0.3204 0.259 0.0161
C18 C 0.1503(11) 0.2127(7) 0.1211(4)
H12 H 0.2954 0.2216 0.1099
C19 C -0.0702(11) 0.1785(7) 0.1934(3)
C20 C -0.2778(13) 0.1670(10) 0.2050(4)
H13 H -0.4352 0.1451 0.2529
C21 C -0.2470(12) 0.1878(9) 0.1458(4)
H14 H -0.3887 0.1773 0.1547
C22 C -0.0919(12) 0.1586(7) 0.2557(4)
C23 C 0.0805(11) 0.1228(7) 0.2452(3)
H15 H 0.2042 0.1053 0.1994
C24 C 0.0730(12) 0.1122(7) 0.3014(3)
H16 H 0.1949 0.0903 0.293
C25 C -0.1083(11) 0.1332(6) 0.3691(3)
C26 C -0.2867(12) 0.1648(8) 0.3815(4)
H17 H -0.4129 0.1795 0.428
C27 C -0.2792(13) 0.1749(8) 0.3255(4)
H18 H -0.4053 0.1934 0.3349
C28 C -0.1014(12) 0.1319(6) 0.4268(3)
C29 C 0.1224(12) 0.1848(7) -0.1548(4)
H19 H 0.2052 0.1393 -0.1545
C30 C 0.1320(12) 0.1801(7) -0.2116(4)
H20 H 0.2208 0.1343 -0.2489
C31 C 0.0092(11) 0.2436(6) -0.2132(3)
C32 C -0.1158(12) 0.3093(8) -0.1561(3)
H21 H -0.2059 0.3523 -0.154
C33 C -0.1080(12) 0.3116(7) -0.1033(3)
H22 H -0.1876 0.3607 -0.0669
C34 C 0.0048(11) 0.2328(7) -0.2720(3)
C35 C 0.2027(12) 0.2322(7) -0.3430(3)
H23 H 0.352 0.2437 -0.3563
C36 C 0.1914(12) 0.2155(6) -0.3959(3)
H24 H 0.3308 0.2154 -0.4443
C37 C -0.0278(12) 0.1988(7) -0.3771(3)
C38 C -0.2224(13) 0.2035(9) -0.3067(4)
H25 H -0.3709 0.1937 -0.2936
C39 C -0.2106(13) 0.2219(10) -0.2542(4)
H26 H -0.3471 0.2271 -0.2066
C40 C -0.0498(12) 0.1756(7) -0.4313(4)
N1 N -0.2173(9) 0.3520(5) 0.0389(3)
N2 N 0.2154(8) 0.1359(5) -0.0618(3)
N3 N -0.0283(9) 0.2224(6) 0.0752(3)
N4 N 0.0059(8) 0.2482(5) -0.1000(3)
O1 O 0.0787(8) 0.1196(5) 0.4116(2)
O2 O -0.2846(8) 0.1454(5) 0.4904(2)
H27 H -0.2636 0.1433 0.5187
O3 O 0.1404(8) 0.1751(5) -0.4968(2)
H28 H 0.1056 0.1611 -0.5222
O4 O -0.2518(9) 0.1579(6) -0.4116(3)
S1 S -0.3911(3) 0.55904(18) 0.08502(10)
S2 S 0.3935(3) -0.03385(17) -0.05116(9)
Ni1 Ni -0.00861(15) 0.24057(9) -0.01303(5)
C15A C 0.2881(11) 0.5636(6) -0.0581(4)
C16A C -0.2910(10) -0.0645(6) 0.0588(3)
C17A C -0.1645(12) 0.7656(6) -0.0647(4)
H11A H -0.3204 0.741 -0.0161
C18A C -0.1503(11) 0.7873(7) -0.1211(4)
H12A H -0.2954 0.7784 -0.1099
C19A C 0.0702(11) 0.8215(7) -0.1934(3)
C20A C 0.2778(13) 0.8330(10) -0.2050(4)
H13A H 0.4352 0.8549 -0.2529
C21A C 0.2470(12) 0.8122(9) -0.1458(4)
H14A H 0.3887 0.8227 -0.1547
C22A C 0.0919(12) 0.8414(7) -0.2557(4)
C23A C -0.0805(11) 0.8772(7) -0.2452(3)
H15A H -0.2042 0.8947 -0.1994
C24A C -0.0730(12) 0.8878(7) -0.3014(3)
H16A H -0.1949 0.9097 -0.293
C25A C 0.1083(11) 0.8668(6) -0.3691(3)
C26A C 0.2867(12) 0.8352(8) -0.3815(4)
H17A H 0.4129 0.8205 -0.428
C27A C 0.2792(13) 0.8251(8) -0.3255(4)
H18A H 0.4053 0.8066 -0.3349
C28A C 0.1014(12) 0.8681(6) -0.4268(3)
C29A C -0.1224(12) 0.8152(7) 0.1548(4)
H19A H -0.2052 0.8607 0.1545
C30A C -0.1320(12) 0.8199(7) 0.2116(4)
H20A H -0.2208 0.8657 0.2489
C31A C -0.0092(11) 0.7564(6) 0.2132(3)
C32A C 0.1158(12) 0.6907(8) 0.1561(3)
H21A H 0.2059 0.6477 0.154
C33A C 0.1080(12) 0.6884(7) 0.1033(3)
H22A H 0.1876 0.6393 0.0669
C34A C -0.0048(11) 0.7672(7) 0.2720(3)
C35A C -0.2027(12) 0.7678(7) 0.3430(3)
H23A H -0.352 0.7563 0.3563
C36A C -0.1914(12) 0.7845(6) 0.3959(3)
H24A H -0.3308 0.7846 0.4443
C37A C 0.0278(12) 0.8012(7) 0.3771(3)
C38A C 0.2224(13) 0.7965(9) 0.3067(4)
H25A H 0.3709 0.8063 0.2936
C39A C 0.2106(13) 0.7781(10) 0.2542(4)
H26A H 0.3471 0.7729 0.2066
C40A C 0.0498(12) 0.8244(7) 0.4313(4)
N1A N 0.2173(9) 0.6480(5) -0.0389(3)
N2A N -0.2154(8) -0.1359(5) 0.0618(3)
N2A_2 N -0.2154(8) 0.8641(5) 0.0618(3)
N3A N 0.0283(9) 0.7776(6) -0.0752(3)
N4A N -0.0059(8) 0.7518(5) 0.1000(3)
O1A O -0.0787(8) 0.8804(5) -0.4116(2)
O2A O 0.2846(8) 0.8546(5) -0.4904(2)
H27A H 0.2636 0.8567 -0.5187
O3A O -0.1404(8) 0.8249(5) 0.4968(2)
H28A H -0.1056 0.8389 0.5222
O4A O 0.2518(9) 0.8421(6) 0.4116(3)
S1A S 0.3911(3) 0.44096(18) -0.08502(10)
S2A S -0.3935(3) 0.03385(17) 0.05116(9)
S2_2 S 0.3935(3) 0.96615(17) -0.05116(9)
Ni1A Ni 0.00861(15) 0.75943(9) 0.01303(5)
Ni1A_2 Ni 0.00861(15) -0.24057(9) 0.01303(5)
C1 C -0.276(4) 0.534(2) 0.6070(9)
C2 C -0.496(3) 0.5583(15) 0.6464(8)
H1 H -0.5514 0.5638 0.6233
C3 C -0.629(3) 0.5740(16) 0.7176(9)
H2 H -0.7728 0.5929 0.7432
C4 C -0.549(3) 0.5615(16) 0.7514(10)
H3 H -0.6413 0.5722 0.8005
C5 C -0.345(4) 0.5348(17) 0.7172(10)
H4 H -0.2952 0.5256 0.7415
C6 C -0.206(4) 0.5209(16) 0.6425(9)
H5 H -0.0626 0.5022 0.6172
C7 C -0.147(3) 0.5175(15) 0.5343(9)
C8 C -0.130(3) 0.5168(16) 0.6024(9)
C9 C -0.345(4) 0.5365(19) 0.6344(9)
H6 H -0.3854 0.5392 0.6067
C10 C -0.507(4) 0.5527(16) 0.7099(10)
H7 H -0.6508 0.5681 0.7311
C11 C -0.449(4) 0.5454(17) 0.7504(11)
H8 H -0.5528 0.5559 0.7997
C12 C -0.229(3) 0.5215(16) 0.7166(9)
H9 H -0.1874 0.5155 0.7437
C13 C -0.078(3) 0.5074(15) 0.6440(8)
H10 H 0.065 0.4908 0.6225
C14 C -0.017(3) 0.5021(16) 0.4720(9)
C1A C 0.276(4) 0.466(2) 0.3930(9)
C2A C 0.496(3) 0.4417(15) 0.3536(8)
H1A H 0.5514 0.4362 0.3767
C3A C 0.629(3) 0.4260(16) 0.2824(9)
H2A H 0.7728 0.4071 0.2568
C4A C 0.549(3) 0.4385(16) 0.2486(10)
H3A H 0.6413 0.4278 0.1995
C5A C 0.345(4) 0.4652(17) 0.2828(10)
H4A H 0.2952 0.4744 0.2585
C6A C 0.206(4) 0.4791(16) 0.3575(9)
H5A H 0.0626 0.4978 0.3828
C7A C 0.147(3) 0.4825(15) 0.4657(9)
C8A C 0.130(3) 0.4832(16) 0.3976(9)
C9A C 0.345(4) 0.4635(19) 0.3656(9)
H6A H 0.3854 0.4608 0.3933
C10A C 0.507(4) 0.4473(16) 0.2901(10)
H7A H 0.6508 0.4319 0.2689
C11A C 0.449(4) 0.4546(17) 0.2496(11)
H8A H 0.5528 0.4441 0.2003
C12A C 0.229(3) 0.4785(16) 0.2834(9)
H9A H 0.1874 0.4845 0.2563
C13A C 0.078(3) 0.4926(15) 0.3560(8)
H10A H -0.065 0.5092 0.3775
C14A C 0.017(3) 0.4979(16) 0.5280(9)
loop_
_geom_bond_atom_site_label_1
_geom_bond_atom_site_label_2
_geom_bond_site_symmetry_1
_geom_bond_site_symmetry_2
C1 C2 1_555 1_555
C2 H1 1_555 1_555
C3 C2 1_555 1_555
H2 C3 1_555 1_555
C4 C3 1_555 1_555
H3 C4 1_555 1_555
C5 C4 1_555 1_555
H4 C5 1_555 1_555
C6 C1 1_555 1_555
H5 C6 1_555 1_555
C7 C1 1_555 1_555
C8 C1 1_555 1_555
C9 C1 1_555 1_555
H6 C1 1_555 1_555
C10 C2 1_555 1_555
H7 C3 1_555 1_555
C11 C4 1_555 1_555
H8 C4 1_555 1_555
C12 C5 1_555 1_555
H9 C12 1_555 1_555
C13 C5 1_555 1_555
H10 C13 1_555 1_555
C14 C7 1_555 1_555
C15 N1 1_555 1_555
C16 N2 1_555 1_555
C17 H11 1_555 1_555
C18 C17 1_555 1_555
H12 C18 1_555 1_555
C19 C18 1_555 1_555
C20 C19 1_555 1_555
H13 C20 1_555 1_555
C21 C20 1_555 1_555
H14 C21 1_555 1_555
C22 C19 1_555 1_555
C23 C22 1_555 1_555
H15 C23 1_555 1_555
C24 C23 1_555 1_555
H16 C24 1_555 1_555
C25 C24 1_555 1_555
C26 C25 1_555 1_555
H17 C26 1_555 1_555
C27 C22 1_555 1_555
H18 C27 1_555 1_555
C28 C25 1_555 1_555
C29 H19 1_555 1_555
C30 C29 1_555 1_555
H20 C30 1_555 1_555
C31 C30 1_555 1_555
C32 C31 1_555 1_555
H21 C32 1_555 1_555
C33 C32 1_555 1_555
H22 C33 1_555 1_555
C34 C31 1_555 1_555
C35 C34 1_555 1_555
H23 C35 1_555 1_555
C36 C35 1_555 1_555
H24 C36 1_555 1_555
C37 C36 1_555 1_555
C38 C37 1_555 1_555
H25 C38 1_555 1_555
C39 C34 1_555 1_555
H26 C39 1_555 1_555
C40 C37 1_555 1_555
N1 Ni1 1_555 1_555
N2 Ni1 1_555 1_555
N3 C17 1_555 1_555
N4 C29 1_555 1_555
O1 C28 1_555 1_555
O2 C28 1_555 1_555
H27 O2 1_555 1_555
O3 C40 1_555 1_555
H28 O3 1_555 1_555
O4 C40 1_555 1_555
S1 C15 1_555 1_555
S2 C16 1_555 1_555
Ni1 N3 1_555 1_555
C1A C2A 1_555 1_555
C2A H1A 1_555 1_555
C3A C2A 1_555 1_555
H2A C3A 1_555 1_555
C4A C3A 1_555 1_555
H3A C4A 1_555 1_555
C5A C4A 1_555 1_555
H4A C5A 1_555 1_555
C6A C1A 1_555 1_555
H5A C6A 1_555 1_555
C7A C14 1_555 1_555
C8A C14 1_555 1_555
C9A C1A 1_555 1_555
H6A C1A 1_555 1_555
C10A C2A 1_555 1_555
H7A C3A 1_555 1_555
C11A C4A 1_555 1_555
H8A C4A 1_555 1_555
C12A C5A 1_555 1_555
H9A C12A 1_555 1_555
C13A C5A 1_555 1_555
H10A C13A 1_555 1_555
C14A C7 1_555 1_555
C15A N1A 1_555 1_555
C16A N2A 1_555 1_555
C17A H11A 1_555 1_555
C18A C17A 1_555 1_555
H12A C18A 1_555 1_555
C19A C18A 1_555 1_555
C20A C19A 1_555 1_555
H13A C20A 1_555 1_555
C21A C20A 1_555 1_555
H14A C21A 1_555 1_555
C22A C19A 1_555 1_555
C23A C22A 1_555 1_555
H15A C23A 1_555 1_555
C24A C23A 1_555 1_555
H16A C24A 1_555 1_555
C25A C24A 1_555 1_555
C26A C25A 1_555 1_555
H17A C26A 1_555 1_555
C27A C22A 1_555 1_555
H18A C27A 1_555 1_555
C28A C25A 1_555 1_555
C29A H19A 1_555 1_555
C30A C29A 1_555 1_555
H20A C30A 1_555 1_555
C31A C30A 1_555 1_555
C32A C31A 1_555 1_555
H21A C32A 1_555 1_555
C33A C32A 1_555 1_555
H22A C33A 1_555 1_555
C34A C31A 1_555 1_555
C35A C34A 1_555 1_555
H23A C35A 1_555 1_555
C36A C35A 1_555 1_555
H24A C36A 1_555 1_555
C37A C36A 1_555 1_555
C38A C37A 1_555 1_555
H25A C38A 1_555 1_555
C39A C34A 1_555 1_555
H26A C39A 1_555 1_555
C40A C37A 1_555 1_555
N1A Ni1A 1_555 1_555
N2A Ni1A_2 1_555 1_555
N2A_2 Ni1A 1_555 1_555
N3A C17A 1_555 1_555
N4A C29A 1_555 1_555
O1A C28A 1_555 1_555
O2A C28A 1_555 1_555
H27A O2A 1_555 1_555
O3A C40A 1_555 1_555
H28A O3A 1_555 1_555
O4A C40A 1_555 1_555
S1A Ni1 1_555 1_555
S2A Ni1 1_555 1_555
S2_2 Ni1A 1_555 1_555
Ni1A S1 1_555 1_555
Ni1A_2 S2 1_555 1_555
C2 C9 1_555 1_555
C2 H6 1_555 1_555
C3 C10 1_555 1_555
C4 C10 1_555 1_555
C4 H7 1_555 1_555
H3 C11 1_555 1_555
H3 H8 1_555 1_555
C5 C6 1_555 1_555
C5 C10 1_555 1_555
C5 C11 1_555 1_555
H4 C11 1_555 1_555
H4 C12 1_555 1_555
C6 C8 1_555 1_555
C6 C9 1_555 1_555
C6 C12 1_555 1_555
C6 C13 1_555 1_555
H5 C8 1_555 1_555
H5 C13 1_555 1_555
C8 C9 1_555 1_555
C8 C13 1_555 1_555
C8 C14A 1_555 1_555
C9 H6 1_555 1_555
C9 C10 1_555 1_555
C10 H7 1_555 1_555
C10 C11 1_555 1_555
C11 H8 1_555 1_555
C11 C12 1_555 1_555
C12 C13 1_555 1_555
C14 C14A 1_555 1_555
C21 N3 1_555 1_555
C26 C27 1_555 1_555
C33 N4 1_555 1_555
C38 C39 1_555 1_555
N4 Ni1 1_555 1_555
C1A C7A 1_555 1_555
C1A C8A 1_555 1_555
C2A C9A 1_555 1_555
C2A H6A 1_555 1_555
C3A C10A 1_555 1_555
C4A C10A 1_555 1_555
C4A H7A 1_555 1_555
H3A C11A 1_555 1_555
H3A H8A 1_555 1_555
C5A C6A 1_555 1_555
C5A C10A 1_555 1_555
C5A C11A 1_555 1_555
H4A C11A 1_555 1_555
H4A C12A 1_555 1_555
C6A C8A 1_555 1_555
C6A C9A 1_555 1_555
C6A C12A 1_555 1_555
C6A C13A 1_555 1_555
H5A C8A 1_555 1_555
H5A C13A 1_555 1_555
C7A C14A 1_555 1_555
C8A C9A 1_555 1_555
C8A C13A 1_555 1_555
C9A H6A 1_555 1_555
C9A C10A 1_555 1_555
C10A H7A 1_555 1_555
C10A C11A 1_555 1_555
C11A H8A 1_555 1_555
C11A C12A 1_555 1_555
C12A C13A 1_555 1_555
C15A S1A 1_555 1_555
C16A S2A 1_555 1_555
C21A N3A 1_555 1_555
C26A C27A 1_555 1_555
C33A N4A 1_555 1_555
C38A C39A 1_555 1_555
N3A Ni1A 1_555 1_555
N4A Ni1A 1_555 1_555

#END
