
#######################################################################
#
#                 Cambridge Crystallographic Data Centre
#                                CCDC 
#
#######################################################################
#
# If this CIF has been generated from an entry in the Cambridge 
# Structural Database, then it will include bibliographic, chemical, 
# crystal, experimental, refinement or atomic coordinate data resulting 
# from the CCDC's data processing and validation procedures.
#
#######################################################################

data_PAPLUP
_symmetry_cell_setting           triclinic
_symmetry_space_group_name_H-M   'P -1'
_symmetry_Int_Tables_number      2
_space_group_name_Hall           '-P 1'
loop_
_symmetry_equiv_pos_site_id
_symmetry_equiv_pos_as_xyz
1 x,y,z
2 -x,-y,-z
_cell_length_a                   7.890(6)
_cell_length_b                   10.494(8)
_cell_length_c                   24.94(2)
_cell_angle_alpha                88.86(5)
_cell_angle_beta                 46.97(5)
_cell_angle_gamma                104.38(4)
_cell_volume                     1408.94
loop_
_atom_site_label
_atom_site_type_symbol
_atom_site_fract_x
_atom_site_fract_y
_atom_site_fract_z
Ni1 Ni 0.00307(8) 0.75021(4) 0.02846(2)
S1 S -0.38820(15) 1.04226(9) 0.04836(5)
S2 S 0.38604(16) 0.45601(8) -0.11165(5)
N1 N 0.2155(5) 0.6324(3) -0.01859(15)
N2 N 0.0227(5) 0.7603(3) -0.06085(15)
O1 O -0.0902(5) 0.8692(3) -0.40080(14)
N3 N -0.0100(5) 0.7472(3) 0.11544(15)
N4 N -0.2177(5) 0.8634(3) 0.07006(15)
O2 O 0.2558(5) 0.8502(3) 0.41983(14)
C1 C 0.2878(6) 0.5594(3) -0.05723(18)
O3 O -0.1356(5) 0.8380(3) 0.50533(13)
H1 H -0.1057 0.8517 0.5317
C2 C 0.0606(6) 0.8363(3) 0.43878(19)
C3 C 0.0945(6) 0.8631(3) -0.41688(18)
O4 O 0.2901(5) 0.8622(3) -0.48322(14)
H2 H 0.2726 0.8682 -0.5127
C4 C -0.2893(6) 0.9382(3) 0.06199(17)
C5 C 0.0967(6) 0.8532(3) -0.35827(19)
C6 C -0.1102(6) 0.8252(3) 0.16228(19)
H3 H -0.1833 0.8775 0.1572
C7 C -0.1049(6) 0.8515(4) -0.23131(19)
H4 H -0.2375 0.8633 -0.1834
C8 C 0.1032(7) 0.6813(4) 0.1762(2)
H5 H 0.1805 0.6295 0.1794
C9 C 0.0376(6) 0.8132(3) 0.38539(18)
C10 C -0.1131(6) 0.8340(4) 0.21786(19)
H6 H -0.1923 0.8887 0.2514
C11 C 0.0719(6) 0.8155(3) -0.24189(18)
C12 C 0.0076(6) 0.7753(4) 0.28190(18)
C13 C -0.1915(7) 0.7816(4) 0.35320(19)
H7 H -0.3405 0.7735 0.3671
C14 C 0.2233(7) 0.7864(4) 0.2630(2)
H8 H 0.3618 0.7802 0.2142
C15 C -0.1671(6) 0.7608(4) -0.10458(19)
H9 H -0.3151 0.7492 -0.0919
C16 C -0.0001(6) 0.7628(3) 0.22472(18)
C17 C 0.0543(6) 0.7937(4) -0.17939(19)
C18 C 0.2376(7) 0.8063(4) 0.31432(19)
H10 H 0.3868 0.8152 0.3005
C19 C -0.1779(6) 0.7994(4) 0.40502(19)
H11 H -0.3182 0.8023 0.4545
C20 C 0.0935(6) 0.6756(3) 0.12334(19)
H12 H 0.1635 0.6179 0.0908
C21 C 0.2777(7) 0.8210(4) -0.3702(2)
H13 H 0.4124 0.8118 -0.4187
C22 C -0.1763(6) 0.7443(4) -0.04748(19)
H14 H -0.3327 0.7204 0.0039
C23 C 0.2651(7) 0.8018(4) -0.3126(2)
H15 H 0.3905 0.779 -0.3216
C24 C 0.2350(7) 0.7902(4) -0.13262(19)
H16 H 0.3797 0.8003 -0.1436
C25 C -0.0917(6) 0.8705(4) -0.28893(19)
H17 H -0.2143 0.8958 -0.2805
C26 C 0.2595(7) 0.8077(4) -0.1927(2)
H18 H 0.4179 0.8295 -0.2434
Ni1A Ni -0.00307(8) 0.24979(4) -0.02846(2)
Ni1A_2 Ni -0.00307(8) 1.24979(4) -0.02846(2)
S1A S 0.38820(15) 0.95774(9) -0.04836(5)
S1_2 S -0.38820(15) 0.04226(9) 0.04836(5)
S2A S -0.38604(16) 0.54399(8) 0.11165(5)
N1A N -0.2155(5) 0.3676(3) 0.01859(15)
N2A N -0.0227(5) 0.2397(3) 0.06085(15)
O1A O 0.0902(5) 0.1308(3) 0.40080(14)
N3A N 0.0100(5) 0.2528(3) -0.11544(15)
N4A N 0.2177(5) 1.1366(3) -0.07006(15)
N4A_2 N 0.2177(5) 0.1366(3) -0.07006(15)
O2A O -0.2558(5) 0.1498(3) -0.41983(14)
C1A C -0.2878(6) 0.4406(3) 0.05723(18)
O3A O 0.1356(5) 0.1620(3) -0.50533(13)
H1A H 0.1057 0.1483 -0.5317
C2A C -0.0606(6) 0.1637(3) -0.43878(19)
C3A C -0.0945(6) 0.1369(3) 0.41688(18)
O4A O -0.2901(5) 0.1378(3) 0.48322(14)
H2A H -0.2726 0.1318 0.5127
C4A C 0.2893(6) 1.0618(3) -0.06199(17)
C5A C -0.0967(6) 0.1468(3) 0.35827(19)
C6A C 0.1102(6) 0.1748(3) -0.16228(19)
H3A H 0.1833 0.1225 -0.1572
C7A C 0.1049(6) 0.1485(4) 0.23131(19)
H4A H 0.2375 0.1367 0.1834
C8A C -0.1032(7) 0.3187(4) -0.1762(2)
H5A H -0.1805 0.3705 -0.1794
C9A C -0.0376(6) 0.1868(3) -0.38539(18)
C10A C 0.1131(6) 0.1660(4) -0.21786(19)
H6A H 0.1923 0.1113 -0.2514
C11A C -0.0719(6) 0.1845(3) 0.24189(18)
C12A C -0.0076(6) 0.2247(4) -0.28190(18)
C13A C 0.1915(7) 0.2184(4) -0.35320(19)
H7A H 0.3405 0.2265 -0.3671
C14A C -0.2233(7) 0.2136(4) -0.2630(2)
H8A H -0.3618 0.2198 -0.2142
C15A C 0.1671(6) 0.2392(4) 0.10458(19)
H9A H 0.3151 0.2508 0.0919
C16A C 0.0001(6) 0.2372(3) -0.22472(18)
C17A C -0.0543(6) 0.2063(4) 0.17939(19)
C18A C -0.2376(7) 0.1937(4) -0.31432(19)
H10A H -0.3868 0.1848 -0.3005
C19A C 0.1779(6) 0.2006(4) -0.40502(19)
H11A H 0.3182 0.1977 -0.4545
C20A C -0.0935(6) 0.3244(3) -0.12334(19)
H12A H -0.1635 0.3821 -0.0908
C21A C -0.2777(7) 0.1790(4) 0.3702(2)
H13A H -0.4124 0.1882 0.4187
C22A C 0.1763(6) 0.2557(4) 0.04748(19)
H14A H 0.3327 0.2796 -0.0039
C23A C -0.2651(7) 0.1982(4) 0.3126(2)
H15A H -0.3905 0.221 0.3216
C24A C -0.2350(7) 0.2098(4) 0.13262(19)
H16A H -0.3797 0.1997 0.1436
C25A C 0.0917(6) 0.1295(4) 0.28893(19)
H17A H 0.2143 0.1042 0.2805
C26A C -0.2595(7) 0.1923(4) 0.1927(2)
H18A H -0.4179 0.1705 0.2434
C27 C -0.2199(12) 0.5342(5) 0.6828(3)
H19 H -0.2255 0.5425 0.7218
C28 C 0.2034(8) 0.5058(4) 0.4869(2)
H20 H 0.3439 0.5103 0.4774
C29 C -0.0151(10) 0.5278(4) 0.6153(3)
H21 H 0.1241 0.5327 0.6066
C30 C -0.4232(11) 0.5287(5) 0.6962(3)
H22 H -0.5661 0.5338 0.7444
C31 C -0.0047(9) 0.5138(4) 0.5566(2)
C32 C -0.4250(9) 0.5163(4) 0.6422(3)
H23 H -0.567 0.5125 0.6527
C33 C -0.2097(9) 0.5090(4) 0.5697(2)
C27A C 0.2199(12) 0.4658(5) 0.3172(3)
H19A H 0.2255 0.4575 0.2782
C28A C -0.2034(8) 0.4942(4) 0.5131(2)
H20A H -0.3439 0.4897 0.5226
C29A C 0.0151(10) 0.4722(4) 0.3847(3)
H21A H -0.1241 0.4673 0.3934
C30A C 0.4232(11) 0.4713(5) 0.3038(3)
H22A H 0.5661 0.4662 0.2556
C31A C 0.0047(9) 0.4862(4) 0.4434(2)
C32A C 0.4250(9) 0.4837(4) 0.3578(3)
H23A H 0.567 0.4875 0.3473
C33A C 0.2097(9) 0.4910(4) 0.4303(2)
loop_
_geom_bond_atom_site_label_1
_geom_bond_atom_site_label_2
_geom_bond_site_symmetry_1
_geom_bond_site_symmetry_2
Ni1 N1 1_555 1_555
S1 C4 1_555 1_555
S2 C1 1_555 1_555
N1 C1 1_555 1_555
N2 Ni1 1_555 1_555
O1 C3 1_555 1_555
N3 Ni1 1_555 1_555
N4 Ni1 1_555 1_555
O2 C2 1_555 1_555
O3 H1 1_555 1_555
C2 O3 1_555 1_555
C3 O4 1_555 1_555
O4 H2 1_555 1_555
C4 N4 1_555 1_555
C5 C3 1_555 1_555
C6 N3 1_555 1_555
H3 C6 1_555 1_555
C7 H4 1_555 1_555
C8 H5 1_555 1_555
C9 C2 1_555 1_555
C10 C6 1_555 1_555
H6 C10 1_555 1_555
C11 C7 1_555 1_555
C12 C13 1_555 1_555
C13 H7 1_555 1_555
C14 C12 1_555 1_555
H8 C14 1_555 1_555
C15 H9 1_555 1_555
C16 C8 1_555 1_555
C17 C11 1_555 1_555
C18 C9 1_555 1_555
H10 C18 1_555 1_555
C19 C9 1_555 1_555
H11 C19 1_555 1_555
C20 N3 1_555 1_555
H12 C20 1_555 1_555
C21 C5 1_555 1_555
H13 C21 1_555 1_555
C22 N2 1_555 1_555
H14 C22 1_555 1_555
C23 C11 1_555 1_555
H15 C23 1_555 1_555
C24 N2 1_555 1_555
H16 C24 1_555 1_555
C25 C5 1_555 1_555
H17 C25 1_555 1_555
C26 C17 1_555 1_555
H18 C26 1_555 1_555
C27 H19 1_555 1_555
C28 H20 1_555 1_555
C29 C27 1_555 1_555
H21 C29 1_555 1_555
C30 C27 1_555 1_555
H22 C30 1_555 1_555
C31 C28 1_555 1_555
C32 C30 1_555 1_555
H23 C32 1_555 1_555
C33 C31 1_555 1_555
Ni1A S2 1_555 1_555
Ni1A_2 S1 1_555 1_555
S1A Ni1 1_555 1_555
S1_2 Ni1A 1_555 1_555
S2A Ni1 1_555 1_555
N1A Ni1A 1_555 1_555
N2A Ni1A 1_555 1_555
O1A C3A 1_555 1_555
N3A Ni1A 1_555 1_555
N4A Ni1A_2 1_555 1_555
N4A_2 Ni1A 1_555 1_555
O2A C2A 1_555 1_555
C1A S2A 1_555 1_555
O3A H1A 1_555 1_555
C2A O3A 1_555 1_555
C3A O4A 1_555 1_555
O4A H2A 1_555 1_555
C4A S1A 1_555 1_555
C5A C3A 1_555 1_555
C6A N3A 1_555 1_555
H3A C6A 1_555 1_555
C7A H4A 1_555 1_555
C8A H5A 1_555 1_555
C9A C2A 1_555 1_555
C10A C6A 1_555 1_555
H6A C10A 1_555 1_555
C11A C7A 1_555 1_555
C12A C13A 1_555 1_555
C13A H7A 1_555 1_555
C14A C12A 1_555 1_555
H8A C14A 1_555 1_555
C15A H9A 1_555 1_555
C16A C8A 1_555 1_555
C17A C11A 1_555 1_555
C18A C9A 1_555 1_555
H10A C18A 1_555 1_555
C19A C9A 1_555 1_555
H11A C19A 1_555 1_555
C20A N3A 1_555 1_555
H12A C20A 1_555 1_555
C21A C5A 1_555 1_555
H13A C21A 1_555 1_555
C22A N2A 1_555 1_555
H14A C22A 1_555 1_555
C23A C11A 1_555 1_555
H15A C23A 1_555 1_555
C24A N2A 1_555 1_555
H16A C24A 1_555 1_555
C25A C5A 1_555 1_555
H17A C25A 1_555 1_555
C26A C17A 1_555 1_555
H18A C26A 1_555 1_555
C27A H19A 1_555 1_555
C28A C33 1_555 1_555
H20A C28A 1_555 1_555
C29A C27A 1_555 1_555
H21A C29A 1_555 1_555
C30A C27A 1_555 1_555
H22A C30A 1_555 1_555
C31A C28A 1_555 1_555
C32A C30A 1_555 1_555
H23A C32A 1_555 1_555
C33A C28 1_555 1_555
C7 C25 1_555 1_555
C8 C20 1_555 1_555
C10 C16 1_555 1_555
C12 C16 1_555 1_555
C13 C19 1_555 1_555
C14 C18 1_555 1_555
C15 C17 1_555 1_555
C15 C22 1_555 1_555
C21 C23 1_555 1_555
C24 C26 1_555 1_555
C29 C31 1_555 1_555
C32 C33 1_555 1_555
N1A C1A 1_555 1_555
N4A C4A 1_555 1_555
C7A C25A 1_555 1_555
C8A C20A 1_555 1_555
C10A C16A 1_555 1_555
C12A C16A 1_555 1_555
C13A C19A 1_555 1_555
C14A C18A 1_555 1_555
C15A C17A 1_555 1_555
C15A C22A 1_555 1_555
C21A C23A 1_555 1_555
C24A C26A 1_555 1_555
C29A C31A 1_555 1_555
C31A C33A 1_555 1_555
C32A C33A 1_555 1_555

#END
