
#######################################################################
#
#                 Cambridge Crystallographic Data Centre
#                                CCDC 
#
#######################################################################
#
# If this CIF has been generated from an entry in the Cambridge 
# Structural Database, then it will include bibliographic, chemical, 
# crystal, experimental, refinement or atomic coordinate data resulting 
# from the CCDC's data processing and validation procedures.
#
#######################################################################

data_PAPNUQ
_symmetry_cell_setting           triclinic
_symmetry_space_group_name_H-M   'P 1'
_symmetry_Int_Tables_number      1
_space_group_name_Hall           'P 1'
loop_
_symmetry_equiv_pos_site_id
_symmetry_equiv_pos_as_xyz
1 x,y,z
_cell_length_a                   11.034(2)
_cell_length_b                   13.766(2)
_cell_length_c                   14.834(2)
_cell_angle_alpha                110.62(10)
_cell_angle_beta                 88.65(10)
_cell_angle_gamma                97.94(10)
_cell_volume                     2087.87
loop_
_atom_site_label
_atom_site_type_symbol
_atom_site_fract_x
_atom_site_fract_y
_atom_site_fract_z
Ru1 Ru 0.0936 0.4181 0.2965
O1 O 0.1129(12) 0.2956(10) 0.1640(9)
N1 N 0.0766(12) 0.5300(11) 0.4103(10)
N2 N 0.0612(12) 0.5933(11) 0.4814(10)
N3 N 0.1136(14) 0.5134(12) 0.2132(12)
C1 C 0.0300(16) 0.5263(14) 0.1533(13)
C2 C 0.0838(15) 0.5650(13) 0.0875(12)
H1 H 0.0440 0.5820 0.0416
C3 C 0.206(2) 0.5741(18) 0.1009(17)
H2 H 0.2649 0.5933 0.0620
C4 C 0.2324(14) 0.5494(13) 0.1857(11)
C5 C 0.3488(14) 0.5794(12) 0.2524(11)
C6 C 0.3385(15) 0.6661(14) 0.3469(12)
H3 H 0.3363 0.7305 0.3358
H4 H 0.4079 0.6737 0.3878
H5 H 0.2648 0.6497 0.3774
C7 C 0.4530(15) 0.6028(15) 0.1828(13)
H6 H 0.4352 0.6593 0.1639
H7 H 0.4552 0.5412 0.1266
H8 H 0.5309 0.6219 0.2163
N4 N 0.2799(12) 0.4232(11) 0.3018(10)
C8 C 0.3706(15) 0.4833(14) 0.2778(11)
C9 C 0.4872(18) 0.4550(15) 0.2781(13)
H9 H 0.5595 0.4853 0.2595
C10 C 0.4718(15) 0.3663(14) 0.3144(11)
H10 H 0.5330 0.3357 0.3320
C11 C 0.3418(13) 0.3380(12) 0.3163(11)
C12 C 0.3117(15) 0.3395(13) 0.4214(12)
C13 C 0.3191(18) 0.4430(16) 0.5092(14)
H11 H 0.2925 0.4279 0.5655
H12 H 0.2673 0.4880 0.4970
H13 H 0.4021 0.4774 0.5193
C14 C 0.394(2) 0.2672(19) 0.4412(18)
H14 H 0.3648 0.2497 0.4958
H15 H 0.4765 0.3025 0.4544
H16 H 0.3923 0.2042 0.3858
N5 N 0.0751(15) 0.3055(11) 0.3666(9)
C15 C 0.1734(16) 0.2855(15) 0.4103(13)
C16 C 0.1172(14) 0.2032(12) 0.4527(11)
H17 H 0.1593 0.1704 0.4848
C17 C 0.0014(19) 0.1879(18) 0.4356(16)
H18 H -0.0562 0.1433 0.4544
C18 C -0.0217(16) 0.2487(15) 0.3850(13)
C19 C -0.1548(14) 0.2653(13) 0.3625(11)
C20 C -0.2019(17) 0.3571(15) 0.4448(13)
H19 H -0.2808 0.3672 0.4265
H20 H -0.1455 0.4201 0.4560
H21 H -0.2085 0.3406 0.5026
C21 C -0.2447(16) 0.1646(14) 0.3513(12)
H22 H -0.2276 0.1095 0.2934
H23 H -0.3272 0.1781 0.3477
H24 H -0.2351 0.1439 0.4058
N6 N -0.0968(14) 0.3779(12) 0.2591(10)
C22 C -0.1696(12) 0.2960(12) 0.2669(10)
C23 C -0.2626(13) 0.2617(13) 0.2052(10)
H25 H -0.3225 0.2047 0.1977
C24 C -0.2522(16) 0.3287(15) 0.1536(13)
H26 H -0.3049 0.3244 0.1039
C25 C -0.1442(12) 0.4080(11) 0.1905(10)
C26 C -0.1092(19) 0.5023(17) 0.1708(15)
C27 C -0.1390(15) 0.5932(13) 0.2612(11)
H27 H -0.1107 0.6588 0.2533
H28 H -0.0989 0.5902 0.3167
H29 H -0.2259 0.5870 0.2697
C28 C -0.183(3) 0.515(2) 0.090(2)
H30 H -0.1525 0.5805 0.0827
H31 H -0.2676 0.5140 0.1064
H32 H -0.1743 0.4585 0.0309
Ru2 Ru 0.00096(7) 1.00137(7) 0.99966(6)
N7 N 0.0306(16) 0.8280(14) 0.8170(13)
N8 N 0.0196(13) 0.8981(13) 0.8867(11)
O2 O -0.0142(9) 0.1255(10) 0.1346(9)
N9 N 0.1876(11) 0.0339(11) 0.0326(10)
C29 C 0.2610(16) 0.1250(15) 0.0221(13)
C30 C 0.3578(16) 0.1592(15) 0.1039(12)
H33 H 0.4166 0.2182 0.1185
C31 C 0.3449(14) 0.0880(13) 0.1535(12)
H34 H 0.3932 0.0896 0.2047
C32 C 0.2499(17) 0.0189(16) 0.1121(14)
C33 C 0.2016(16) -0.0917(15) 0.1237(13)
C34 C 0.2821(14) -0.0948(12) 0.2075(11)
H35 H 0.3669 -0.0869 0.1918
H36 H 0.2606 -0.1608 0.2165
H37 H 0.2683 -0.0388 0.2658
C35 C 0.2217(15) -0.1835(13) 0.0254(11)
H38 H 0.3036 -0.1715 0.0045
H39 H 0.1643 -0.1850 -0.0229
H40 H 0.2092 -0.2494 0.0353
N10 N -0.0242(14) -0.0998(13) 0.0803(11)
C36 C 0.0713(15) -0.1010(14) 0.1452(13)
C37 C 0.0137(16) -0.1317(14) 0.2194(14)
H41 H 0.0518 -0.1353 0.2731
C38 C -0.1205(15) -0.1569(13) 0.1940(12)
H42 H -0.1838 -0.1824 0.2257
C39 C -0.1261(16) -0.1340(15) 0.1158(13)
C40 C -0.2467(17) -0.1495(16) 0.0619(14)
C41 C -0.3592(16) -0.1973(16) 0.0985(14)
H43 H -0.4253 -0.2149 0.0520
H44 H -0.3815 -0.1479 0.1583
H45 H -0.3427 -0.2595 0.1084
C42 C -0.2325(18) -0.2495(17) -0.0371(14)
H46 H -0.1672 -0.2301 -0.0740
H47 H -0.3076 -0.2693 -0.0746
H48 H -0.2145 -0.3076 -0.0206
N11 N -0.1901(13) -0.0103(12) -0.0079(10)
C43 C -0.2735(18) -0.0640(17) 0.0304(14)
C44 C -0.3986(16) -0.0265(14) 0.0243(12)
H49 H -0.4729 -0.0511 0.0449
C45 C -0.3838(14) 0.0365(13) -0.0099(11)
H50 H -0.4465 0.0703 -0.0203
C46 C -0.2489(13) 0.0604(12) -0.0373(10)
C47 C -0.2022(17) 0.0846(15) -0.1306(14)
C48 C -0.2913(15) 0.1507(14) -0.1523(13)
H51 H -0.3724 0.1123 -0.1632
H52 H -0.2660 0.1661 -0.2088
H53 H -0.2911 0.2150 -0.0986
C49 C -0.2316(18) -0.0286(16) -0.2029(14)
H54 H -0.3127 -0.0577 -0.1928
H55 H -0.1737 -0.0704 -0.1935
H56 H -0.2266 -0.0281 -0.2675
N12 N 0.0168(12) 0.1035(12) -0.0772(11)
C50 C -0.0761(14) 0.1363(13) -0.1207(11)
C51 C -0.0388(15) 0.2058(13) -0.1588(12)
H57 H -0.0852 0.2342 -0.1922
C52 C 0.1005(16) 0.2312(16) -0.1363(13)
H58 H 0.1546 0.2799 -0.1528
C53 C 0.1314(12) 0.1664(11) -0.0856(9)
C54 C 0.2587(16) 0.1557(15) -0.0559(13)
C55 C 0.3435(16) 0.2596(14) -0.0389(12)
H59 H 0.3453 0.2764 -0.0965
H60 H 0.4246 0.2525 -0.0225
H61 H 0.3133 0.3145 0.0129
C56 C 0.2969(18) 0.0722(16) -0.1472(15)
H62 H 0.2924 0.0952 -0.2009
H63 H 0.2428 0.0077 -0.1593
H64 H 0.3792 0.0613 -0.1387
O3 O -0.1620(10) 0.6833(12) 0.6244(9)
C57 C -0.2502(16) 0.6319(17) 0.6699(13)
H65 H -0.2732 0.6806 0.7309
H66 H -0.2185 0.5748 0.6813
C58 C -0.3603(16) 0.5902(17) 0.5982(13)
H67 H -0.3742 0.5142 0.5754
H68 H -0.4335 0.6161 0.6296
C59 C -0.3323(15) 0.6273(15) 0.5151(12)
H69 H -0.4010 0.6557 0.4989
H70 H -0.3107 0.5713 0.4586
C60 C -0.2240(14) 0.7118(13) 0.5550(12)
H71 H -0.1696 0.7157 0.5037
H72 H -0.2516 0.7795 0.5856
O4 O 0.2584(10) 0.7298(15) 0.6722(10)
C61 C 0.3199(18) 0.7291(18) 0.7544(15)
H73 H 0.3391 0.6595 0.7447
H74 H 0.2698 0.7508 0.8107
C62 C 0.4378(16) 0.8072(16) 0.7671(12)
H75 H 0.4355 0.8671 0.8261
H76 H 0.5085 0.7740 0.7710
C63 C 0.4462(15) 0.8414(14) 0.6835(11)
H77 H 0.5274 0.8392 0.6569
H78 H 0.4250 0.9116 0.6998
C64 C 0.3507(13) 0.7591(13) 0.6139(10)
H79 H 0.3156 0.7883 0.5714
H80 H 0.3880 0.6987 0.5749
O5 O 0.0293(14) 0.5682(9) 0.7091(8)
C65 C 0.0011(15) 0.5698(11) 0.8065(9)
H81 H -0.0864 0.5654 0.8163
H82 H 0.0416 0.6333 0.8545
C66 C 0.0495(19) 0.4732(13) 0.8126(11)
H83 H 0.1276 0.4932 0.8474
H84 H -0.0078 0.4379 0.8455
C67 C 0.0637(19) 0.4027(13) 0.7103(11)
H85 H 0.0216 0.3325 0.6983
H86 H 0.1492 0.3993 0.6948
C68 C 0.0018(17) 0.4592(11) 0.6523(10)
H87 H 0.0357 0.4445 0.5887
H88 H -0.0859 0.4372 0.6457
O6 O 0.0640(12) 0.8534(9) 0.5867(7)
C69 C 0.0373(13) 0.9556(9) 0.6431(8)
H89 H 0.0667 0.9757 0.7092
H90 H -0.0501 0.9584 0.6428
C70 C 0.1054(17) 1.0266(11) 0.5937(10)
H91 H 0.0591 1.0823 0.5957
H92 H 0.1853 1.0575 0.6241
C71 C 0.1171(15) 0.9537(11) 0.4915(9)
H93 H 0.2025 0.9502 0.4755
H94 H 0.0783 0.9774 0.4464
C72 C 0.0528(15) 0.8473(11) 0.4879(9)
H95 H -0.0323 0.8369 0.4675
H96 H 0.0931 0.7909 0.4447
Na1 Na 0.0454(8) 0.7114(8) 0.6486(6)
Na2 Na 0.0761(6) 0.0929(6) 0.2567(5)
Na3 Na 0.0221(8) 0.3253(7) 0.0390(6)
Ru2_2 Ru 0.00096(7) 0.00137(7) -0.00034(6)
O2_2 O -0.0142(9) 1.1255(10) 1.1346(9)
N9_2 N 0.1876(11) 1.0339(11) 1.0326(10)
N10_2 N -0.0242(14) 0.9002(13) 1.0803(11)
N11_2 N -0.1901(13) 0.9897(12) 0.9921(10)
N12_2 N 0.0168(12) 1.1035(12) 0.9228(11)
O7 O 0.543(3) -0.047(3) 0.413(2)
C73 C 0.517(3) 0.024(4) 0.509(3)
H97 H 0.4506 -0.0077 0.5377
H98 H 0.4979 0.0895 0.5066
C74 C 0.638(4) 0.039(3) 0.562(2)
H99 H 0.6908 0.0992 0.5577
H100 H 0.6241 0.0492 0.6293
C75 C 0.695(4) -0.057(3) 0.516(3)
H101 H 0.6744 -0.1071 0.5484
H102 H 0.7836 -0.0410 0.5156
C76 C 0.641(4) -0.099(3) 0.416(2)
H103 H 0.7025 -0.0872 0.3714
H104 H 0.6144 -0.1732 0.3969
O8 O 0.596(2) 0.434(2) -0.165(2)
C77 C 0.515(4) 0.405(3) -0.244(2)
H105 H 0.4549 0.3464 -0.2446
H106 H 0.5593 0.3849 -0.3038
C78 C 0.455(3) 0.501(2) -0.231(2)
H107 H 0.5095 0.5523 -0.2498
H108 H 0.3799 0.4827 -0.2696
C79 C 0.430(4) 0.543(3) -0.127(2)
H109 H 0.3472 0.5183 -0.1143
H110 H 0.4442 0.6187 -0.1017
C80 C 0.524(4) 0.496(3) -0.0872(19)
H111 H 0.5776 0.5520 -0.0407
H112 H 0.4819 0.4519 -0.0543
loop_
_geom_bond_atom_site_label_1
_geom_bond_atom_site_label_2
_geom_bond_site_symmetry_1
_geom_bond_site_symmetry_2
Ru1 O1 1_555 1_555
O1 Na3 1_555 1_555
N1 Ru1 1_555 1_555
N2 N1 1_555 1_555
N3 Ru1 1_555 1_555
C1 N3 1_555 1_555
C2 C1 1_555 1_555
H1 C2 1_555 1_555
C3 C2 1_555 1_555
H2 C3 1_555 1_555
C4 N3 1_555 1_555
C5 C4 1_555 1_555
C6 C5 1_555 1_555
H3 C6 1_555 1_555
H4 C6 1_555 1_555
H5 C6 1_555 1_555
C7 C5 1_555 1_555
H6 C7 1_555 1_555
H7 C7 1_555 1_555
H8 C7 1_555 1_555
N4 Ru1 1_555 1_555
C8 C5 1_555 1_555
C9 C8 1_555 1_555
H9 C9 1_555 1_555
C10 C9 1_555 1_555
H10 C10 1_555 1_555
C11 N4 1_555 1_555
C12 C11 1_555 1_555
C13 C12 1_555 1_555
H11 C13 1_555 1_555
H12 C13 1_555 1_555
H13 C13 1_555 1_555
C14 C12 1_555 1_555
H14 C14 1_555 1_555
H15 C14 1_555 1_555
H16 C14 1_555 1_555
N5 Ru1 1_555 1_555
C15 C12 1_555 1_555
C16 C15 1_555 1_555
H17 C16 1_555 1_555
C17 C16 1_555 1_555
H18 C17 1_555 1_555
C18 N5 1_555 1_555
C19 C18 1_555 1_555
C20 C19 1_555 1_555
H19 C20 1_555 1_555
H20 C20 1_555 1_555
H21 C20 1_555 1_555
C21 C19 1_555 1_555
H22 C21 1_555 1_555
H23 C21 1_555 1_555
H24 C21 1_555 1_555
N6 Ru1 1_555 1_555
C22 C19 1_555 1_555
C23 C22 1_555 1_555
H25 C23 1_555 1_555
C24 C23 1_555 1_555
H26 C24 1_555 1_555
C25 N6 1_555 1_555
C26 C1 1_555 1_555
C27 C26 1_555 1_555
H27 C27 1_555 1_555
H28 C27 1_555 1_555
H29 C27 1_555 1_555
C28 C26 1_555 1_555
H30 C28 1_555 1_555
H31 C28 1_555 1_555
H32 C28 1_555 1_555
Ru2 N8 1_555 1_555
N7 N8 1_555 1_555
O2 Na2 1_555 1_555
N9 C29 1_555 1_555
C29 C30 1_555 1_555
C30 H33 1_555 1_555
C31 C30 1_555 1_555
H34 C31 1_555 1_555
C32 N9 1_555 1_555
C33 C32 1_555 1_555
C34 C33 1_555 1_555
H35 C34 1_555 1_555
H36 C34 1_555 1_555
H37 C34 1_555 1_555
C35 C33 1_555 1_555
H38 C35 1_555 1_555
H39 C35 1_555 1_555
H40 C35 1_555 1_555
N10 C36 1_555 1_555
C36 C33 1_555 1_555
C37 C36 1_555 1_555
H41 C37 1_555 1_555
C38 C37 1_555 1_555
H42 C38 1_555 1_555
C39 N10 1_555 1_555
C40 C39 1_555 1_555
C41 C40 1_555 1_555
H43 C41 1_555 1_555
H44 C41 1_555 1_555
H45 C41 1_555 1_555
C42 C40 1_555 1_555
H46 C42 1_555 1_555
H47 C42 1_555 1_555
H48 C42 1_555 1_555
N11 C43 1_555 1_555
C43 C40 1_555 1_555
C44 C43 1_555 1_555
H49 C44 1_555 1_555
C45 C44 1_555 1_555
H50 C45 1_555 1_555
C46 N11 1_555 1_555
C47 C46 1_555 1_555
C48 C47 1_555 1_555
H51 C48 1_555 1_555
H52 C48 1_555 1_555
H53 C48 1_555 1_555
C49 C47 1_555 1_555
H54 C49 1_555 1_555
H55 C49 1_555 1_555
H56 C49 1_555 1_555
N12 C50 1_555 1_555
C50 C47 1_555 1_555
C51 C50 1_555 1_555
H57 C51 1_555 1_555
C52 C51 1_555 1_555
H58 C52 1_555 1_555
C53 N12 1_555 1_555
C54 C29 1_555 1_555
C55 C54 1_555 1_555
H59 C55 1_555 1_555
H60 C55 1_555 1_555
H61 C55 1_555 1_555
C56 C54 1_555 1_555
H62 C56 1_555 1_555
H63 C56 1_555 1_555
H64 C56 1_555 1_555
O3 C57 1_555 1_555
C57 H65 1_555 1_555
H66 C57 1_555 1_555
C58 C57 1_555 1_555
H67 C58 1_555 1_555
H68 C58 1_555 1_555
C59 C58 1_555 1_555
H69 C59 1_555 1_555
H70 C59 1_555 1_555
C60 O3 1_555 1_555
H71 C60 1_555 1_555
H72 C60 1_555 1_555
O4 C61 1_555 1_555
C61 H73 1_555 1_555
H74 C61 1_555 1_555
C62 C61 1_555 1_555
H75 C62 1_555 1_555
H76 C62 1_555 1_555
C63 C62 1_555 1_555
H77 C63 1_555 1_555
H78 C63 1_555 1_555
C64 O4 1_555 1_555
H79 C64 1_555 1_555
H80 C64 1_555 1_555
O5 C65 1_555 1_555
C65 H81 1_555 1_555
H82 C65 1_555 1_555
C66 C65 1_555 1_555
H83 C66 1_555 1_555
H84 C66 1_555 1_555
C67 C66 1_555 1_555
H85 C67 1_555 1_555
H86 C67 1_555 1_555
C68 O5 1_555 1_555
H87 C68 1_555 1_555
H88 C68 1_555 1_555
O6 C69 1_555 1_555
C69 H89 1_555 1_555
H90 C69 1_555 1_555
C70 C69 1_555 1_555
H91 C70 1_555 1_555
H92 C70 1_555 1_555
C71 C70 1_555 1_555
H93 C71 1_555 1_555
H94 C71 1_555 1_555
C72 O6 1_555 1_555
H95 C72 1_555 1_555
H96 C72 1_555 1_555
O7 C73 1_555 1_555
C73 H97 1_555 1_555
H98 C73 1_555 1_555
C74 C73 1_555 1_555
H99 C74 1_555 1_555
H100 C74 1_555 1_555
C75 C74 1_555 1_555
H101 C75 1_555 1_555
H102 C75 1_555 1_555
C76 O7 1_555 1_555
H103 C76 1_555 1_555
H104 C76 1_555 1_555
O8 C77 1_555 1_555
C77 H105 1_555 1_555
H106 C77 1_555 1_555
C78 C77 1_555 1_555
H107 C78 1_555 1_555
H108 C78 1_555 1_555
C79 C78 1_555 1_555
H109 C79 1_555 1_555
H110 C79 1_555 1_555
C80 O8 1_555 1_555
H111 C80 1_555 1_555
H112 C80 1_555 1_555
Na1 N2 1_555 1_555
Na2 N5 1_555 1_555
Na3 C1 1_555 1_555
Ru2_2 O2 1_555 1_555
O2_2 Ru2 1_555 1_555
N9_2 Ru2 1_555 1_555
N10_2 Ru2 1_555 1_555
N11_2 Ru2 1_555 1_555
N12_2 Ru2 1_555 1_555
C3 C4 1_555 1_555
N4 C8 1_555 1_555
C10 C11 1_555 1_555
N5 C15 1_555 1_555
C15 Na2 1_555 1_555
C16 Na2 1_555 1_555
C17 C18 1_555 1_555
C17 Na2 1_555 1_555
C18 Na2 1_555 1_555
N6 C22 1_555 1_555
C24 C25 1_555 1_555
C25 C26 1_555 1_555
C25 Na3 1_555 1_555
N7 Na1 1_555 1_555
N9 Ru2_2 1_555 1_555
C31 C32 1_555 1_555
C32 Na2 1_555 1_555
N10 Ru2_2 1_555 1_555
C36 Na2 1_555 1_555
C37 Na2 1_555 1_555
C38 C39 1_555 1_555
N11 Ru2_2 1_555 1_555
C45 C46 1_555 1_555
N12 Na3 1_555 1_555
N12 Ru2_2 1_555 1_555
C50 Na3 1_555 1_555
C51 Na3 1_555 1_555
C52 C53 1_555 1_555
C52 Na3 1_555 1_555
C53 C54 1_555 1_555
C53 Na3 1_555 1_555
O3 Na1 1_555 1_555
C59 C60 1_555 1_555
O4 Na1 1_555 1_555
C63 C64 1_555 1_555
O5 Na1 1_555 1_555
C67 C68 1_555 1_555
O6 Na1 1_555 1_555
C71 C72 1_555 1_555
C75 C76 1_555 1_555
C79 C80 1_555 1_555

#END
