
#######################################################################
#
#                 Cambridge Crystallographic Data Centre
#                                CCDC 
#
#######################################################################
#
# If this CIF has been generated from an entry in the Cambridge 
# Structural Database, then it will include bibliographic, chemical, 
# crystal, experimental, refinement or atomic coordinate data resulting 
# from the CCDC's data processing and validation procedures.
#
#######################################################################

data_PAPVIN
_symmetry_cell_setting           monoclinic
_symmetry_space_group_name_H-M   'P 21/c'
_symmetry_Int_Tables_number      14
_space_group_name_Hall           '-P 2ybc'
loop_
_symmetry_equiv_pos_site_id
_symmetry_equiv_pos_as_xyz
1 x,y,z
2 -x,1/2+y,1/2-z
3 -x,-y,-z
4 x,1/2-y,1/2+z
_cell_length_a                   9.0246(18)
_cell_length_b                   23.061(4)
_cell_length_c                   16.967(3)
_cell_angle_alpha                90
_cell_angle_beta                 119.318(8)
_cell_angle_gamma                90
_cell_volume                     3078.83
loop_
_atom_site_label
_atom_site_type_symbol
_atom_site_fract_x
_atom_site_fract_y
_atom_site_fract_z
Tm1 Tm -0.79393(2) -0.018430(10) -0.003840(13)
S1 S 0.06556(15) 0.36293(6) -0.24034(9)
S2 S -0.51995(16) 0.12164(6) -0.22274(9)
O1 O 0.2649(4) 0.47039(17) -0.3731(2)
O2 O 0.0304(4) 0.45325(16) -0.3623(2)
O3 O -0.4826(4) 0.03946(16) -0.0995(2)
O4 O -0.6884(4) -0.01290(16) -0.0990(2)
O5 O -0.7940(6) 0.0880(2) -0.0392(4)
O6 O -1.0254(4) 0.05552(16) -0.0445(2)
O7 O -0.7665(5) -0.11652(18) -0.0158(3)
C1 C 0.1892(5) 0.4565(2) -0.3304(3)
C2 C 0.2982(5) 0.4437(2) -0.2309(3)
C3 C 0.4495(6) 0.4746(2) -0.1860(4)
C4 C 0.5569(7) 0.4692(2) -0.0949(4)
C5 C 0.5137(7) 0.4309(3) -0.0479(4)
C6 C 0.3647(7) 0.3992(2) -0.0904(3)
C7 C 0.2551(5) 0.40428(19) -0.1823(3)
C8 C 0.0702(7) 0.3169(3) -0.1518(4)
C9 C -0.0851(7) 0.2784(2) -0.1936(4)
C10 C -0.2389(7) 0.2984(2) -0.2029(4)
C11 C -0.0746(6) 0.2228(2) -0.2235(3)
C12 C 0.0871(7) 0.2018(2) -0.2204(4)
H1 H 0.1729 0.2313 -0.1940
H2 H 0.1257 0.1671 -0.1847
H3 H 0.0652 0.1938 -0.2807
C13 C -0.2174(6) 0.1861(2) -0.2594(3)
C14 C -0.2030(7) 0.1256(2) -0.2881(4)
H4 H -0.3106 0.1063 -0.3115
H5 H -0.1706 0.1273 -0.3342
H6 H -0.1186 0.1045 -0.2370
C15 C -0.6325(5) 0.0205(2) -0.1373(3)
C16 C -0.7493(5) 0.03773(19) -0.2343(3)
C17 C -0.9011(6) 0.0070(2) -0.2801(3)
H7 H -0.9278 -0.0206 -0.2490
C18 C -1.0132(7) 0.0165(2) -0.3709(3)
C19 C -0.9749(6) 0.0581(3) -0.4168(3)
C20 C -0.8256(7) 0.0897(2) -0.3717(3)
C21 C -0.7106(5) 0.08115(19) -0.2804(3)
C22 C -0.5274(7) 0.1684(2) -0.3110(4)
H8 H -0.6293 0.1921 -0.3365
H9 H -0.5283 0.1453 -0.3590
C23 C -0.3704(7) 0.2066(2) -0.2678(4)
C24 C -0.3803(7) 0.2624(2) -0.2385(4)
C25 C -0.2524(10) 0.3603(3) -0.1732(6)
H10 H -0.3662 0.3670 -0.1845
H11 H -0.1743 0.3647 -0.1098
H12 H -0.2253 0.3877 -0.2068
C26 C -0.5468(9) 0.2843(3) -0.2463(7)
H13 H -0.5312 0.3232 -0.2232
H14 H -0.6338 0.2841 -0.3086
H15 H -0.5798 0.2596 -0.2121
C27 C -0.9369(8) 0.0978(3) -0.0464(4)
N1 N -0.6453(10) -0.2012(3) -0.0196(4)
C28 C -0.6524(9) -0.1439(3) -0.0162(4)
H16 H -0.5623 -0.1230 -0.0139
C29 C -0.4977(13) -0.2291(5) -0.0166(7)
H17 H -0.4186 -0.1999 -0.0131
H18 H -0.5331 -0.2518 -0.0703
H19 H -0.4441 -0.2538 0.0355
C30 C -0.7893(15) -0.2339(4) -0.0248(7)
H20 H -0.8717 -0.2074 -0.0252
H21 H -0.7500 -0.2591 0.0266
H22 H -0.8406 -0.2566 -0.0792
H23 H 0.167(6) 0.293(2) -0.129(3)
H24 H 0.656(7) 0.492(2) -0.064(4)
H25 H -0.815(6) 0.115(2) -0.407(3)
H26 H 0.068(6) 0.341(2) -0.107(3)
H27 H -1.110(7) -0.006(2) -0.395(3)
H28 H 0.481(8) 0.502(3) -0.214(4)
H29 H -1.054(7) 0.065(2) -0.480(4)
H30 H 0.574(6) 0.428(2) 0.010(3)
H31 H 0.346(7) 0.374(2) -0.063(3)
Tm1B Tm -1.20607(2) 0.018430(10) 0.003840(13)
Tm1B_2 Tm -0.20607(2) 0.018430(10) 0.003840(13)
Tm1C Tm 0.20607(2) 0.518430(10) -0.503840(13)
Tm1A Tm -0.20607(2) 0.481570(10) -0.496160(13)
O1C O -0.7351(4) 0.02961(17) 0.1269(2)
O2A O -1.0304(4) -0.04675(16) -0.1377(2)
O3B O -0.5174(4) -0.03946(16) 0.0995(2)
O6B O -0.9746(4) -0.05552(16) 0.0445(2)
loop_
_geom_bond_atom_site_label_1
_geom_bond_atom_site_label_2
_geom_bond_site_symmetry_1
_geom_bond_site_symmetry_2
Tm1 O4 1_555 1_555
S1 C7 1_555 1_555
S2 C21 1_555 1_555
O1 C1 1_555 1_555
O2 C1 1_555 1_555
O3 C15 1_555 1_555
O4 C15 1_555 1_555
O5 Tm1 1_555 1_555
O6 Tm1 1_555 1_555
O7 Tm1 1_555 1_555
C1 C2 1_555 1_555
C2 C3 1_555 1_555
C3 C4 1_555 1_555
C4 C5 1_555 1_555
C5 C6 1_555 1_555
C6 C7 1_555 1_555
C7 C2 1_555 1_555
C8 S1 1_555 1_555
C9 C8 1_555 1_555
C10 C9 1_555 1_555
C11 C9 1_555 1_555
C12 C11 1_555 1_555
H1 C12 1_555 1_555
H2 C12 1_555 1_555
H3 C12 1_555 1_555
C13 C11 1_555 1_555
C14 C13 1_555 1_555
H4 C14 1_555 1_555
H5 C14 1_555 1_555
H6 C14 1_555 1_555
C15 C16 1_555 1_555
C16 C17 1_555 1_555
C17 H7 1_555 1_555
C18 C17 1_555 1_555
C19 C18 1_555 1_555
C20 C19 1_555 1_555
C21 C16 1_555 1_555
C22 S2 1_555 1_555
H8 C22 1_555 1_555
H9 C22 1_555 1_555
C23 C13 1_555 1_555
C24 C10 1_555 1_555
C25 C10 1_555 1_555
H10 C25 1_555 1_555
H11 C25 1_555 1_555
H12 C25 1_555 1_555
C26 C24 1_555 1_555
H13 C26 1_555 1_555
H14 C26 1_555 1_555
H15 C26 1_555 1_555
C27 O5 1_555 1_555
N1 C28 1_555 1_555
C28 O7 1_555 1_555
H16 C28 1_555 1_555
C29 N1 1_555 1_555
H17 C29 1_555 1_555
H18 C29 1_555 1_555
H19 C29 1_555 1_555
C30 N1 1_555 1_555
H20 C30 1_555 1_555
H21 C30 1_555 1_555
H22 C30 1_555 1_555
H23 C8 1_555 1_555
H24 C4 1_555 1_555
H25 C20 1_555 1_555
H26 C8 1_555 1_555
H27 C18 1_555 1_555
H28 C3 1_555 1_555
H29 C19 1_555 1_555
H30 C5 1_555 1_555
H31 C6 1_555 1_555
Tm1B O6 1_555 1_555
Tm1B_2 O3 1_555 1_555
Tm1C O1 1_555 1_555
Tm1A O2 1_555 1_555
O1C Tm1 1_555 1_555
O2A Tm1 1_555 1_555
O3B Tm1 1_555 1_555
O6B Tm1 1_555 1_555
O6 C27 1_555 1_555
C20 C21 1_555 1_555
C22 C23 1_555 1_555
C23 C24 1_555 1_555
Tm1B O6B 1_555 1_555

#END
