
#######################################################################
#
#                 Cambridge Crystallographic Data Centre
#                                CCDC 
#
#######################################################################
#
# If this CIF has been generated from an entry in the Cambridge 
# Structural Database, then it will include bibliographic, chemical, 
# crystal, experimental, refinement or atomic coordinate data resulting 
# from the CCDC's data processing and validation procedures.
#
#######################################################################

data_PAPXEL
_symmetry_cell_setting           monoclinic
_symmetry_space_group_name_H-M   'P 21/c'
_symmetry_Int_Tables_number      14
_space_group_name_Hall           '-P 2ybc'
loop_
_symmetry_equiv_pos_site_id
_symmetry_equiv_pos_as_xyz
1 x,y,z
2 -x,1/2+y,1/2-z
3 -x,-y,-z
4 x,1/2-y,1/2+z
_cell_length_a                   15.552(4)
_cell_length_b                   5.1737(13)
_cell_length_c                   18.305(5)
_cell_angle_alpha                90
_cell_angle_beta                 114.020(9)
_cell_angle_gamma                90
_cell_volume                     1345.3
loop_
_atom_site_label
_atom_site_type_symbol
_atom_site_fract_x
_atom_site_fract_y
_atom_site_fract_z
C1 C 0.2396(2) -0.4422(6) 0.33817(18)
H1 H 0.2869 -0.4354 0.3171
H2 H 0.1786 -0.4214 0.2954
H3 H 0.2427 -0.6061 0.3637
C2 C 0.25629(17) -0.2290(5) 0.39810(14)
C3 C 0.19175(16) -0.2080(5) 0.43694(14)
H4 H 0.1362 -0.3028 0.4157
C4 C 0.20744(17) -0.0546(5) 0.50428(15)
C5 C 0.1430(2) -0.0848(7) 0.5461(2)
H5 H 0.1768 -0.1625 0.5976
H6 H 0.0909 -0.1932 0.5148
H7 H 0.1201 0.0818 0.5528
C6 C 0.31470(16) 0.2813(5) 0.59618(13)
C7 C 0.2885(2) 0.2930(6) 0.65998(16)
H8 H 0.2426 0.1809 0.6617
C8 C 0.3300(3) 0.4705(6) 0.7214(2)
H9 H 0.3122 0.4752 0.7641
C9 C 0.3965(2) 0.6374(6) 0.71927(17)
H10 H 0.4229 0.7579 0.7601
C10 C 0.42532(18) 0.6300(6) 0.65725(15)
H11 H 0.4710 0.7442 0.6563
C11 C 0.38554(17) 0.4506(5) 0.59630(15)
C12 C 0.49250(19) 0.5508(6) 0.53545(17)
H12 H 0.5463 0.5125 0.5848
H13 H 0.4827 0.7363 0.5314
N1 N 0.28024(14) 0.1089(4) 0.53097(12)
H14 H 0.3127 0.1089 0.5026
N2 N -0.04059(18) 0.5025(5) 0.33748(16)
O1 O 0.32377(13) -0.0777(4) 0.41291(11)
O2 O 0.41012(13) 0.4198(4) 0.53289(11)
O3 O -0.08337(19) 0.7050(5) 0.31525(19)
O4 O -0.02730(19) 0.3560(5) 0.28762(13)
O5 O -0.0040(2) 0.4377(6) 0.40766(15)
Ag1 Ag 0.075078(15) 0.03403(5) 0.346883(13)
C1B C 0.7604(2) 1.4422(6) 0.66183(18)
H1B H 0.7131 1.4354 0.6829
H2B H 0.8214 1.4214 0.7046
H3B H 0.7573 1.6061 0.6363
C2B C 0.74371(17) 1.2290(5) 0.60190(14)
C3B C 0.80825(16) 1.2080(5) 0.56306(14)
H4B H 0.8638 1.3028 0.5843
C4B C 0.79256(17) 1.0546(5) 0.49572(15)
C5B C 0.8570(2) 1.0848(7) 0.4539(2)
H5B H 0.8232 1.1625 0.4024
H6B H 0.9091 1.1932 0.4852
H7B H 0.8799 0.9182 0.4472
C6B C 0.68530(16) 0.7187(5) 0.40382(13)
C7B C 0.7115(2) 0.7070(6) 0.34002(16)
H8B H 0.7574 0.8191 0.3383
C8B C 0.6700(3) 0.5295(6) 0.2786(2)
H9B H 0.6878 0.5248 0.2359
C9B C 0.6035(2) 0.3626(6) 0.28073(17)
H10B H 0.5771 0.2421 0.2399
C10B C 0.57468(18) 0.3700(6) 0.34275(15)
H11B H 0.5290 0.2558 0.3437
C11B C 0.61446(17) 0.5494(5) 0.40370(15)
C12B C 0.50750(19) 0.4492(6) 0.46455(17)
H12B H 0.4537 0.4875 0.4152
H13B H 0.5173 0.2637 0.4686
N1B N 0.71976(14) 0.8911(4) 0.46903(12)
H14B H 0.6873 0.8911 0.4974
N2B N 1.04059(18) 0.4975(5) 0.66252(16)
O1B O 0.67623(13) 1.0777(4) 0.58709(11)
O2B O 0.58988(13) 0.5802(4) 0.46711(11)
O3B O 1.08337(19) 0.2950(5) 0.68475(19)
O4B O 1.02730(19) 0.6440(5) 0.71238(13)
O4A O 0.02730(19) -0.1440(5) 0.21238(13)
O4C O 0.97270(19) 1.1440(5) 0.78762(13)
O5B O 1.0040(2) 0.5623(6) 0.59234(15)
Ag1B Ag 0.924922(15) 0.96597(5) 0.653117(13)
Ag1A Ag -0.075078(15) 0.53403(5) 0.153117(13)
Ag1C Ag 1.075078(15) 0.46597(5) 0.846883(13)
loop_
_geom_bond_atom_site_label_1
_geom_bond_atom_site_label_2
_geom_bond_site_symmetry_1
_geom_bond_site_symmetry_2
C1 H1 1_555 1_555
H2 C1 1_555 1_555
H3 C1 1_555 1_555
C2 C1 1_555 1_555
C3 C2 1_555 1_555
H4 C3 1_555 1_555
C4 C3 1_555 1_555
C5 C4 1_555 1_555
H5 C5 1_555 1_555
H6 C5 1_555 1_555
H7 C5 1_555 1_555
C6 C7 1_555 1_555
C7 H8 1_555 1_555
C8 C7 1_555 1_555
H9 C8 1_555 1_555
C9 C8 1_555 1_555
H10 C9 1_555 1_555
C10 C9 1_555 1_555
H11 C10 1_555 1_555
C11 C6 1_555 1_555
C12 H12 1_555 1_555
H13 C12 1_555 1_555
N1 C4 1_555 1_555
H14 N1 1_555 1_555
N2 O3 1_555 1_555
O1 C2 1_555 1_555
O2 C11 1_555 1_555
O4 N2 1_555 1_555
O5 N2 1_555 1_555
Ag1 C3 1_555 1_555
C1B H1B 1_555 1_555
H2B C1B 1_555 1_555
H3B C1B 1_555 1_555
C2B C1B 1_555 1_555
C3B C2B 1_555 1_555
H4B C3B 1_555 1_555
C4B C3B 1_555 1_555
C5B C4B 1_555 1_555
H5B C5B 1_555 1_555
H6B C5B 1_555 1_555
H7B C5B 1_555 1_555
C6B C7B 1_555 1_555
C7B H8B 1_555 1_555
C8B C7B 1_555 1_555
H9B C8B 1_555 1_555
C9B C8B 1_555 1_555
H10B C9B 1_555 1_555
C10B C9B 1_555 1_555
H11B C10B 1_555 1_555
C11B C6B 1_555 1_555
C12B C12 1_555 1_555
H12B C12B 1_555 1_555
H13B C12B 1_555 1_555
N1B C4B 1_555 1_555
H14B N1B 1_555 1_555
N2B O3B 1_555 1_555
O1B C2B 1_555 1_555
O2B C11B 1_555 1_555
O4B N2B 1_555 1_555
O4A Ag1 1_555 1_555
O4C Ag1B 1_555 1_555
O5B N2B 1_555 1_555
Ag1B C3B 1_555 1_555
Ag1A O4 1_555 1_555
Ag1C O4B 1_555 1_555
C6 N1 1_555 1_555
C10 C11 1_555 1_555
C12 O2 1_555 1_555
O4 Ag1 1_555 1_555
C6B N1B 1_555 1_555
C10B C11B 1_555 1_555
C12B O2B 1_555 1_555
O4B Ag1B 1_555 1_555

#END
