
#######################################################################
#
#                 Cambridge Crystallographic Data Centre
#                                CCDC 
#
#######################################################################
#
# If this CIF has been generated from an entry in the Cambridge 
# Structural Database, then it will include bibliographic, chemical, 
# crystal, experimental, refinement or atomic coordinate data resulting 
# from the CCDC's data processing and validation procedures.
#
#######################################################################

data_PAPZAJ
_symmetry_cell_setting           triclinic
_symmetry_space_group_name_H-M   'P -1'
_symmetry_Int_Tables_number      2
_space_group_name_Hall           '-P 1'
loop_
_symmetry_equiv_pos_site_id
_symmetry_equiv_pos_as_xyz
1 x,y,z
2 -x,-y,-z
_cell_length_a                   12.0599(5)
_cell_length_b                   12.2791(5)
_cell_length_c                   12.9380(6)
_cell_angle_alpha                68.730(2)
_cell_angle_beta                 78.639(3)
_cell_angle_gamma                75.692(3)
_cell_volume                     1717.76
loop_
_atom_site_label
_atom_site_type_symbol
_atom_site_fract_x
_atom_site_fract_y
_atom_site_fract_z
U1 U 0.043410(12) 0.008647(13) 0.846531(12)
U2 U -0.041577(13) 0.349892(12) 0.594057(13)
S1 S 0.12325(9) 0.06863(9) 0.54694(9)
O1 O -0.0545(3) -0.0846(3) 0.8595(3)
O2 O 0.1456(3) 0.1019(3) 0.8232(3)
O3 O -0.1134(3) 0.3415(3) 0.4895(3)
O4 O 0.0285(3) 0.3587(3) 0.6986(3)
O5 O 0.1160(3) -0.0128(3) 0.6632(3)
O6 O 0.1132(3) 0.1918(3) 0.5417(3)
O7 O 0.2233(3) 0.0270(3) 0.4794(3)
O8 O -0.0703(2) 0.1628(3) 0.7230(3)
H1 H -0.1437 0.1487 0.7221
O9 O 0.0804(3) -0.0920(3) 1.0306(3)
H2 H 0.0953 -0.1729 1.0631
O10 O -0.1020(3) 0.5587(3) 0.5360(3)
H3 H -0.1200 0.5820 0.5899
O11 O -0.2302(3) 0.3816(3) 0.6970(3)
H4 H -0.2795 0.4393 0.6775
H5 H -0.2058 0.3604 0.7661
O12 O 0.2065(2) -0.1680(3) 0.8547(3)
O13 O 0.6017(3) -0.4421(3) 0.6038(3)
O14 O 0.1033(3) -0.4139(3) 0.9952(3)
O15 O 0.4933(3) -0.6883(3) 0.7668(3)
O16 O 0.1937(3) -0.6145(3) 1.2656(3)
O17 O 0.5852(3) -0.8806(3) 1.0149(3)
N1 N 0.3658(3) -0.1492(3) 0.7218(3)
N2 N 0.2520(3) -0.2695(3) 0.7286(3)
N3 N 0.4054(3) -0.3706(3) 0.6205(3)
N4 N 0.5220(3) -0.2603(3) 0.6273(3)
N5 N 0.1565(3) -0.4386(3) 0.8223(3)
N6 N 0.1730(3) -0.5988(3) 0.9730(3)
N7 N 0.3191(3) -0.7151(3) 0.8759(3)
N8 N 0.3279(3) -0.5449(3) 0.7369(3)
N9 N 0.2321(3) -0.7316(3) 1.1534(3)
N10 N 0.3369(3) -0.7832(3) 1.2919(3)
N11 N 0.4935(3) -0.8894(3) 1.1918(3)
N12 N 0.3859(3) -0.8425(3) 1.0541(3)
C1 C -0.0007(4) 0.0640(4) 0.4956(4)
H14 H -0.0696 0.0928 0.5387
H15 H -0.0017 0.1153 0.4183
C2 C 0.2695(4) -0.1934(4) 0.7755(4)
C3 C 0.4116(3) -0.1822(4) 0.6197(4)
H16 H 0.4109 -0.1123 0.5519
C4 C 0.3288(3) -0.2615(3) 0.6222(4)
H17 H 0.2852 -0.2265 0.5575
C5 C 0.5180(4) -0.3655(4) 0.6168(4)
C6 C 0.1457(4) -0.3145(4) 0.7550(4)
H18 H 0.0884 -0.2678 0.7943
H19 H 0.1177 -0.3030 0.6858
C7 C 0.3692(4) -0.4760(4) 0.6246(4)
H20 H 0.4335 -0.5257 0.5949
H21 H 0.3083 -0.4526 0.5773
C8 C 0.1419(4) -0.4775(4) 0.9365(4)
C9 C 0.2047(4) -0.5349(4) 0.7770(4)
H22 H 0.1595 -0.5336 0.7212
C10 C 0.2026(4) -0.6482(4) 0.8822(4)
H23 H 0.1458 -0.6933 0.8824
C11 C 0.3910(4) -0.6526(4) 0.7915(4)
C12 C 0.1377(4) -0.6690(4) 1.0875(4)
H24 H 0.0849 -0.6166 1.1238
H25 H 0.0963 -0.7266 1.0858
C13 C 0.3579(5) -0.8346(4) 0.9481(4)
H26 H 0.2983 -0.8802 0.9617
H27 H 0.4256 -0.8713 0.9094
C14 C 0.2486(4) -0.7002(4) 1.2390(4)
C15 C 0.3019(4) -0.8465(4) 1.1517(4)
H28 H 0.2539 -0.9052 1.1654
C16 C 0.3762(3) -0.8809(4) 1.2477(4)
H29 H 0.3643 -0.9568 1.3048
C17 C 0.4973(4) -0.8705(4) 1.0799(4)
C18 C 0.6288(4) -0.2175(4) 0.6069(4)
H30 H 0.6895 -0.2678 0.5741
H31 H 0.6196 -0.1373 0.5536
C19 C 0.4055(4) -0.0621(4) 0.7501(4)
H32 H 0.3438 -0.0281 0.7965
H33 H 0.4225 0.0018 0.6820
U1A U -0.043410(12) -0.008647(13) 0.153469(12)
U1A_2 U -0.043410(12) -0.008647(13) 1.153469(12)
U1A_3 U 0.956590(12) -1.008647(13) 1.153469(12)
U2A U 0.041577(13) -0.349892(12) 0.405943(13)
U2A_2 U 0.041577(13) 0.650108(12) 0.405943(13)
S1A S -0.12325(9) -0.06863(9) 0.45306(9)
O1A O 0.0545(3) 0.0846(3) 0.1405(3)
O2A O -0.1456(3) -0.1019(3) 0.1768(3)
O3A O 0.1134(3) -0.3415(3) 0.5105(3)
O4A O -0.0285(3) -0.3587(3) 0.3014(3)
O5A O -0.1160(3) 0.0128(3) 0.3368(3)
O6A O -0.1132(3) -0.1918(3) 0.4583(3)
O7A O -0.2233(3) -0.0270(3) 0.5206(3)
O8A O 0.0703(2) -0.1628(3) 0.2770(3)
H1A H 0.1437 -0.1487 0.2779
O9A O -0.0804(3) 0.0920(3) 0.9694(3)
O9A_2 O -0.0804(3) 0.0920(3) -0.0306(3)
O9_2 O 0.0804(3) -0.0920(3) 0.0306(3)
H2A H -0.0953 0.1729 0.9369
H2A_2 H -0.0953 0.1729 -0.0631
H2_2 H 0.0953 -0.1729 0.0631
O10A O 0.1020(3) 0.4413(3) 0.4640(3)
O10A_2 O 0.1020(3) -0.5587(3) 0.4640(3)
O10_2 O -0.1020(3) -0.4413(3) 0.5360(3)
H3A H 0.1200 0.4180 0.4101
H3A_2 H 0.1200 -0.5820 0.4101
H3_2 H -0.1200 -0.4180 0.5899
O11A O 0.2302(3) -0.3816(3) 0.3030(3)
H4A H 0.2795 -0.4393 0.3225
H5A H 0.2058 -0.3604 0.2339
O12A O 0.7935(2) -0.8320(3) 1.1453(3)
O12A_2 O -0.2065(2) 0.1680(3) 0.1453(3)
O13A O 0.3983(3) -0.5579(3) 1.3962(3)
O14A O 0.8967(3) -0.5861(3) 1.0048(3)
O15A O 0.5067(3) -0.3117(3) 1.2332(3)
O16A O 0.8063(3) -0.3855(3) 0.7344(3)
O17A O 0.4148(3) -0.1194(3) 0.9851(3)
N1A N 0.6342(3) -0.8508(3) 1.2782(3)
N2A N 0.7480(3) -0.7305(3) 1.2714(3)
N3A N 0.5946(3) -0.6294(3) 1.3795(3)
N4A N 0.4780(3) -0.7397(3) 1.3727(3)
N5A N 0.8435(3) -0.5614(3) 1.1777(3)
N6A N 0.8270(3) -0.4012(3) 1.0270(3)
N7A N 0.6809(3) -0.2849(3) 1.1241(3)
N8A N 0.6721(3) -0.4551(3) 1.2631(3)
N9A N 0.7679(3) -0.2684(3) 0.8466(3)
N10A N 0.6631(3) -0.2168(3) 0.7081(3)
N11A N 0.5065(3) -0.1106(3) 0.8082(3)
N12A N 0.6141(3) -0.1575(3) 0.9459(3)
C1A C 0.0007(4) -0.0640(4) 0.5044(4)
H14A H 0.0696 -0.0928 0.4613
H15A H 0.0017 -0.1153 0.5817
C2A C 0.7305(4) -0.8066(4) 1.2245(4)
C3A C 0.5884(3) -0.8178(4) 1.3803(4)
H16A H 0.5891 -0.8877 1.4481
C4A C 0.6712(3) -0.7385(3) 1.3778(4)
H17A H 0.7148 -0.7735 1.4425
C5A C 0.4820(4) -0.6345(4) 1.3832(4)
C6A C 0.8543(4) -0.6855(4) 1.2450(4)
H18A H 0.9116 -0.7322 1.2057
H19A H 0.8823 -0.6970 1.3142
C7A C 0.6308(4) -0.5240(4) 1.3754(4)
H20A H 0.5665 -0.4743 1.4051
H21A H 0.6917 -0.5474 1.4227
C8A C 0.8581(4) -0.5225(4) 1.0635(4)
C9A C 0.7953(4) -0.4651(4) 1.2230(4)
H22A H 0.8405 -0.4664 1.2788
C10A C 0.7974(4) -0.3518(4) 1.1178(4)
H23A H 0.8542 -0.3067 1.1176
C11A C 0.6090(4) -0.3474(4) 1.2085(4)
C12A C 0.8623(4) -0.3310(4) 0.9125(4)
H24A H 0.9151 -0.3834 0.8762
H25A H 0.9037 -0.2734 0.9142
C13A C 0.6421(5) -0.1654(4) 1.0519(4)
H26A H 0.7017 -0.1198 1.0383
H27A H 0.5744 -0.1287 1.0906
C14A C 0.7514(4) -0.2998(4) 0.7610(4)
C15A C 0.6981(4) -0.1535(4) 0.8483(4)
H28A H 0.7461 -0.0948 0.8346
C16A C 0.6238(3) -0.1191(4) 0.7523(4)
H29A H 0.6357 -0.0432 0.6952
C17A C 0.5027(4) -0.1295(4) 0.9201(4)
C18A C 0.3712(4) -0.7825(4) 1.3931(4)
H30A H 0.3105 -0.7322 1.4259
H31A H 0.3804 -0.8627 1.4464
C19A C 0.5945(4) -0.9379(4) 1.2499(4)
H32A H 0.6562 -0.9719 1.2035
H33A H 0.5775 -1.0018 1.3180
O18 O -0.3021(3) 0.1347(3) 0.7934(3)
H6 H -0.3351 0.2101 0.7542
H7 H -0.3322 0.1146 0.8635
O19 O 0.2297(4) -0.3198(4) 1.0858(3)
H8 H 0.2979 -0.3022 1.0396
H9 H 0.1747 -0.3590 1.0752
O20 O -0.4807(4) 0.1701(3) 0.6175(3)
H10 H -0.4322 0.1677 0.6603
H11 H -0.5349 0.2418 0.6195
O21 O -0.7129(3) 0.2828(4) 0.6321(3)
H12 H -0.7572 0.2352 0.6705
H13 H -0.7626 0.3323 0.5727
loop_
_geom_bond_atom_site_label_1
_geom_bond_atom_site_label_2
_geom_bond_site_symmetry_1
_geom_bond_site_symmetry_2
U1 O1 1_555 1_555
U2 O3 1_555 1_555
S1 O5 1_555 1_555
O2 U1 1_555 1_555
O4 U2 1_555 1_555
O5 U1 1_555 1_555
O6 U2 1_555 1_555
O7 S1 1_555 1_555
O8 U1 1_555 1_555
H1 O8 1_555 1_555
O9 U1 1_555 1_555
H2 O9 1_555 1_555
O10 U2 1_555 1_555
H3 O10 1_555 1_555
O11 U2 1_555 1_555
H4 O11 1_555 1_555
H5 O11 1_555 1_555
O12 U1 1_555 1_555
O13 C5 1_555 1_555
O14 C8 1_555 1_555
O15 C11 1_555 1_555
O16 C14 1_555 1_555
O17 C17 1_555 1_555
O18 H6 1_555 1_555
H7 O18 1_555 1_555
O19 H8 1_555 1_555
H9 O19 1_555 1_555
O20 H10 1_555 1_555
H11 O20 1_555 1_555
O21 H12 1_555 1_555
H13 O21 1_555 1_555
N1 C2 1_555 1_555
N2 C2 1_555 1_555
N3 C4 1_555 1_555
N4 C3 1_555 1_555
N5 C6 1_555 1_555
N6 C8 1_555 1_555
N7 C10 1_555 1_555
N8 C7 1_555 1_555
N9 C12 1_555 1_555
N10 C14 1_555 1_555
N11 C16 1_555 1_555
N12 C13 1_555 1_555
C1 S1 1_555 1_555
H14 C1 1_555 1_555
H15 C1 1_555 1_555
C2 O12 1_555 1_555
C3 N1 1_555 1_555
H16 C3 1_555 1_555
C4 N2 1_555 1_555
H17 C4 1_555 1_555
C5 N3 1_555 1_555
C6 N2 1_555 1_555
H18 C6 1_555 1_555
H19 C6 1_555 1_555
C7 N3 1_555 1_555
H20 C7 1_555 1_555
H21 C7 1_555 1_555
C8 N5 1_555 1_555
C9 N5 1_555 1_555
H22 C9 1_555 1_555
C10 N6 1_555 1_555
H23 C10 1_555 1_555
C11 N7 1_555 1_555
C12 N6 1_555 1_555
H24 C12 1_555 1_555
H25 C12 1_555 1_555
C13 N7 1_555 1_555
H26 C13 1_555 1_555
H27 C13 1_555 1_555
C14 N9 1_555 1_555
C15 N9 1_555 1_555
H28 C15 1_555 1_555
C16 N10 1_555 1_555
H29 C16 1_555 1_555
C17 N11 1_555 1_555
C18 N4 1_555 1_555
H30 C18 1_555 1_555
H31 C18 1_555 1_555
C19 N1 1_555 1_555
H32 C19 1_555 1_555
H33 C19 1_555 1_555
U1A O1A 1_555 1_555
U1A_2 O9 1_555 1_555
U1A_3 O12A 1_555 1_555
U2A O3A 1_555 1_555
U2A_2 O10 1_555 1_555
S1A O5A 1_555 1_555
O2A U1A 1_555 1_555
O4A U2A 1_555 1_555
O5A U1A 1_555 1_555
O6A U2A 1_555 1_555
O7A S1A 1_555 1_555
O8A U1A 1_555 1_555
H1A O8A 1_555 1_555
O9A U1 1_555 1_555
O9A_2 U1A 1_555 1_555
O9_2 U1A 1_555 1_555
H2A O9A 1_555 1_555
H2A_2 O9A_2 1_555 1_555
H2_2 O9_2 1_555 1_555
O10A U2 1_555 1_555
O10A_2 U2A 1_555 1_555
O10_2 U2A 1_555 1_555
H3A O10A 1_555 1_555
H3A_2 O10A_2 1_555 1_555
H3_2 O10_2 1_555 1_555
O11A U2A 1_555 1_555
H4A O11A 1_555 1_555
H5A O11A 1_555 1_555
O12A C2A 1_555 1_555
O12A_2 U1A 1_555 1_555
O13A C5A 1_555 1_555
O14A C8A 1_555 1_555
O15A C11A 1_555 1_555
O16A C14A 1_555 1_555
O17A C17A 1_555 1_555
N1A C2A 1_555 1_555
N2A C2A 1_555 1_555
N3A C4A 1_555 1_555
N4A C3A 1_555 1_555
N5A C6A 1_555 1_555
N6A C8A 1_555 1_555
N7A C10A 1_555 1_555
N8A C7A 1_555 1_555
N9A C12A 1_555 1_555
N10A C18 1_555 1_555
N11A C19 1_555 1_555
N12A C13A 1_555 1_555
C1A C1 1_555 1_555
H14A C1A 1_555 1_555
H15A C1A 1_555 1_555
C3A N1A 1_555 1_555
H16A C3A 1_555 1_555
C4A N2A 1_555 1_555
H17A C4A 1_555 1_555
C5A N3A 1_555 1_555
C6A N2A 1_555 1_555
H18A C6A 1_555 1_555
H19A C6A 1_555 1_555
C7A N3A 1_555 1_555
H20A C7A 1_555 1_555
H21A C7A 1_555 1_555
C8A N5A 1_555 1_555
C9A N5A 1_555 1_555
H22A C9A 1_555 1_555
C10A N6A 1_555 1_555
H23A C10A 1_555 1_555
C11A N7A 1_555 1_555
C12A N6A 1_555 1_555
H24A C12A 1_555 1_555
H25A C12A 1_555 1_555
C13A N7A 1_555 1_555
H26A C13A 1_555 1_555
H27A C13A 1_555 1_555
C14A N9A 1_555 1_555
C15A N9A 1_555 1_555
H28A C15A 1_555 1_555
C16A N10A 1_555 1_555
H29A C16A 1_555 1_555
C17A N11A 1_555 1_555
C18A N10 1_555 1_555
H30A C18A 1_555 1_555
H31A C18A 1_555 1_555
C19A N11 1_555 1_555
H32A C19A 1_555 1_555
H33A C19A 1_555 1_555
U2 O8 1_555 1_555
S1 O6 1_555 1_555
N4 C5 1_555 1_555
N8 C9 1_555 1_555
N8 C11 1_555 1_555
N12 C15 1_555 1_555
N12 C17 1_555 1_555
C3 C4 1_555 1_555
C9 C10 1_555 1_555
C15 C16 1_555 1_555
U1A_2 O9A 1_555 1_555
U2A O8A 1_555 1_555
U2A_2 O10A 1_555 1_555
S1A O6A 1_555 1_555
S1A C1A 1_555 1_555
N1A C19A 1_555 1_555
N4A C5A 1_555 1_555
N4A C18A 1_555 1_555
N8A C9A 1_555 1_555
N8A C11A 1_555 1_555
N10A C14A 1_555 1_555
N11A C16A 1_555 1_555
N12A C15A 1_555 1_555
N12A C17A 1_555 1_555
C3A C4A 1_555 1_555
C9A C10A 1_555 1_555
C15A C16A 1_555 1_555

#END
