
#######################################################################
#
#                 Cambridge Crystallographic Data Centre
#                                CCDC 
#
#######################################################################
#
# If this CIF has been generated from an entry in the Cambridge 
# Structural Database, then it will include bibliographic, chemical, 
# crystal, experimental, refinement or atomic coordinate data resulting 
# from the CCDC's data processing and validation procedures.
#
#######################################################################

data_PAQDES
_symmetry_cell_setting           triclinic
_symmetry_space_group_name_H-M   'P -1'
_symmetry_Int_Tables_number      2
_space_group_name_Hall           '-P 1'
loop_
_symmetry_equiv_pos_site_id
_symmetry_equiv_pos_as_xyz
1 x,y,z
2 -x,-y,-z
_cell_length_a                   9.452(2)
_cell_length_b                   10.3711(11)
_cell_length_c                   10.9010(12)
_cell_angle_alpha                112.507(6)
_cell_angle_beta                 104.459(9)
_cell_angle_gamma                97.657(9)
_cell_volume                     924.137
loop_
_atom_site_label
_atom_site_type_symbol
_atom_site_fract_x
_atom_site_fract_y
_atom_site_fract_z
Cd1 Cd 0.92281(5) 0.29233(4) 0.89664(5)
Cd2 Cd 1.0000 0.0000 1.0000
Cl1 Cl 1.02886(19) 0.05969(17) 0.79395(16)
Cl2 Cl 1.1888(2) -0.1671(2) 0.9800(2)
Cl3 Cl 1.1711(2) 0.46719(18) 0.9763(2)
O1 O 0.7996(6) -0.1973(5) 0.8523(5)
N1 N 0.5745(7) -0.3416(6) 0.8134(6)
C1 C 0.6926(9) -0.2330(8) 0.8907(8)
H1 H 0.6980 -0.1770 0.9826
C2 C 0.4603(11) -0.3848(11) 0.8684(11)
H2 H 0.3834 -0.4670 0.7944
H3 H 0.4158 -0.3063 0.9044
H4 H 0.5065 -0.4094 0.9425
C3 C 0.5634(13) -0.4366(11) 0.6741(10)
H5 H 0.4702 -0.5103 0.6316
H6 H 0.6467 -0.4805 0.6774
H7 H 0.5660 -0.3829 0.6195
N2 N 0.7627(6) 0.2434(5) 0.6852(5)
N3 N 0.6634(6) 0.1736(6) 0.4563(5)
C4 C 0.7905(8) 0.2170(6) 0.5660(6)
C5 C 0.6064(7) 0.2137(6) 0.6503(7)
C6 C 0.5421(7) 0.1706(7) 0.5068(7)
C7 C 0.3869(9) 0.1349(8) 0.4424(8)
H8 H 0.3441 0.1042 0.3461
C8 C 0.2997(9) 0.1468(8) 0.5271(9)
H9 H 0.1954 0.1254 0.4873
C9 C 0.3627(9) 0.1904(9) 0.6730(9)
H10 H 0.2994 0.1957 0.7269
C10 C 0.5167(8) 0.2253(7) 0.7364(8)
H11 H 0.5593 0.2553 0.8326
C11 C 0.6519(10) 0.1361(9) 0.3106(8)
H12 H 0.5474 0.1092 0.2544
H13 H 0.6957 0.0566 0.2771
H14 H 0.7049 0.2177 0.3043
C12 C 0.9453(8) 0.2455(7) 0.5533(7)
H15 H 0.9525 0.1627 0.4762
H16 H 1.0208 0.2592 0.6390
C13 C 0.9771(8) 0.3805(7) 0.5272(7)
C14 C 0.9610(9) 0.5092(8) 0.6146(8)
H17 H 0.9347 0.5159 0.6931
C15 C 1.0171(9) 0.3703(8) 0.4107(8)
H18 H 1.0290 0.2836 0.3504
Cd1A Cd 1.07719(5) -0.29233(4) 1.10336(5)
Cd1A_2 Cd 1.07719(5) 0.70767(4) 1.10336(5)
Cd1A_3 Cd 1.07719(5) 0.70767(4) 0.10336(5)
Cl1A Cl 0.97114(19) -0.05969(17) 1.20605(16)
Cl2A Cl 0.8112(2) 0.1671(2) 1.0200(2)
Cl3A Cl 0.8289(2) 0.53281(18) 1.0237(2)
Cl3A_2 Cl 0.8289(2) -0.46719(18) 1.0237(2)
Cl3_2 Cl 1.1711(2) -0.53281(18) 0.9763(2)
O1A O 1.2004(6) 0.1973(5) 1.1477(5)
N1A N 1.4255(7) 0.3416(6) 1.1866(6)
C1A C 1.3074(9) 0.2330(8) 1.1093(8)
H1A H 1.3020 0.1770 1.0174
C2A C 1.5397(11) 0.3848(11) 1.1316(11)
H2A H 1.6166 0.4670 1.2056
H3A H 1.5842 0.3063 1.0956
H4A H 1.4935 0.4094 1.0575
C3A C 1.4366(13) 0.4366(11) 1.3259(10)
H5A H 1.5298 0.5103 1.3684
H6A H 1.3533 0.4805 1.3226
H7A H 1.4340 0.3829 1.3805
N2A N 1.2373(6) 0.7566(5) 0.3148(5)
N2A_2 N 1.2373(6) -0.2434(5) 1.3148(5)
N3A N 1.3366(6) 0.8264(6) 0.5437(5)
C4A C 1.2095(8) 0.7830(6) 0.4340(6)
C5A C 1.3936(7) 0.7863(6) 0.3497(7)
C6A C 1.4579(7) 0.8294(7) 0.4932(7)
C7A C 1.6131(9) 0.8651(8) 0.5576(8)
H8A H 1.6559 0.8958 0.6539
C8A C 1.7003(9) 0.8532(8) 0.4729(9)
H9A H 1.8046 0.8746 0.5127
C9A C 1.6373(9) 0.8096(9) 0.3270(9)
H10A H 1.7006 0.8043 0.2731
C10A C 1.4833(8) 0.7747(7) 0.2636(8)
H11A H 1.4407 0.7447 0.1674
C11A C 1.3481(10) 0.8639(9) 0.6894(8)
H12A H 1.4526 0.8908 0.7456
H13A H 1.3043 0.9434 0.7229
H14A H 1.2951 0.7823 0.6957
C12A C 1.0547(8) 0.7545(7) 0.4467(7)
H15A H 1.0475 0.8373 0.5238
H16A H 0.9792 0.7408 0.3610
C13A C 1.0229(8) 0.6195(7) 0.4728(7)
C14A C 1.0390(9) 0.4908(8) 0.3854(8)
H17A H 1.0653 0.4841 0.3069
C15A C 0.9829(9) 0.6297(8) 0.5893(8)
H18A H 0.9710 0.7164 0.6496
loop_
_geom_bond_atom_site_label_1
_geom_bond_atom_site_label_2
_geom_bond_site_symmetry_1
_geom_bond_site_symmetry_2
Cd1 Cl1 1_555 1_555
Cd2 Cl1 1_555 1_555
Cl2 Cd2 1_555 1_555
Cl3 Cd1 1_555 1_555
O1 Cd2 1_555 1_555
N1 C1 1_555 1_555
C1 O1 1_555 1_555
H1 C1 1_555 1_555
C2 N1 1_555 1_555
H2 C2 1_555 1_555
H3 C2 1_555 1_555
H4 C2 1_555 1_555
C3 N1 1_555 1_555
H5 C3 1_555 1_555
H6 C3 1_555 1_555
H7 C3 1_555 1_555
N2 Cd1 1_555 1_555
N3 C4 1_555 1_555
C4 N2 1_555 1_555
C5 N2 1_555 1_555
C6 N3 1_555 1_555
C7 C6 1_555 1_555
H8 C7 1_555 1_555
C8 C7 1_555 1_555
H9 C8 1_555 1_555
C9 C8 1_555 1_555
H10 C9 1_555 1_555
C10 C5 1_555 1_555
H11 C10 1_555 1_555
C11 N3 1_555 1_555
H12 C11 1_555 1_555
H13 C11 1_555 1_555
H14 C11 1_555 1_555
C12 C4 1_555 1_555
H15 C12 1_555 1_555
H16 C12 1_555 1_555
C13 C12 1_555 1_555
C14 C13 1_555 1_555
H17 C14 1_555 1_555
C15 C13 1_555 1_555
H18 C15 1_555 1_555
Cd1A Cl2 1_555 1_555
Cd1A_2 Cl3 1_555 1_555
Cd1A_3 N2A 1_555 1_555
Cl1A Cd2 1_555 1_555
Cl2A Cd1 1_555 1_555
Cl3A Cd1 1_555 1_555
Cl3A_2 Cd1A 1_555 1_555
Cl3_2 Cd1A 1_555 1_555
O1A Cd2 1_555 1_555
N1A C1A 1_555 1_555
C1A O1A 1_555 1_555
H1A C1A 1_555 1_555
C2A N1A 1_555 1_555
H2A C2A 1_555 1_555
H3A C2A 1_555 1_555
H4A C2A 1_555 1_555
C3A N1A 1_555 1_555
H5A C3A 1_555 1_555
H6A C3A 1_555 1_555
H7A C3A 1_555 1_555
N2A C4A 1_555 1_555
N2A_2 Cd1A 1_555 1_555
N3A C4A 1_555 1_555
C4A C12A 1_555 1_555
C5A N2A 1_555 1_555
C6A N3A 1_555 1_555
C7A C6A 1_555 1_555
H8A C7A 1_555 1_555
C8A C7A 1_555 1_555
H9A C8A 1_555 1_555
C9A C8A 1_555 1_555
H10A C9A 1_555 1_555
C10A C5A 1_555 1_555
H11A C10A 1_555 1_555
C11A N3A 1_555 1_555
H12A C11A 1_555 1_555
H13A C11A 1_555 1_555
H14A C11A 1_555 1_555
C12A H15A 1_555 1_555
H16A C12A 1_555 1_555
C13A C12A 1_555 1_555
C14A C15 1_555 1_555
H17A C14A 1_555 1_555
C15A C14 1_555 1_555
H18A C15A 1_555 1_555
Cd2 Cl2A 1_555 1_555
C5 C6 1_555 1_555
C9 C10 1_555 1_555
Cd1A Cl1A 1_555 1_555
Cd1A_2 Cl3A 1_555 1_555
C5A C6A 1_555 1_555
C9A C10A 1_555 1_555
C13A C14A 1_555 1_555
C13A C15A 1_555 1_555

#END
