
#######################################################################
#
#                 Cambridge Crystallographic Data Centre
#                                CCDC 
#
#######################################################################
#
# If this CIF has been generated from an entry in the Cambridge 
# Structural Database, then it will include bibliographic, chemical, 
# crystal, experimental, refinement or atomic coordinate data resulting 
# from the CCDC's data processing and validation procedures.
#
#######################################################################

data_PAQHEV
_symmetry_cell_setting           triclinic
_symmetry_space_group_name_H-M   'P -1'
_symmetry_Int_Tables_number      2
_space_group_name_Hall           '-P 1'
loop_
_symmetry_equiv_pos_site_id
_symmetry_equiv_pos_as_xyz
1 x,y,z
2 -x,-y,-z
_cell_length_a                   10.8669(3)
_cell_length_b                   11.2217(3)
_cell_length_c                   13.4627(3)
_cell_angle_alpha                100.2770(10)
_cell_angle_beta                 90.8150(10)
_cell_angle_gamma                107.7020(10)
_cell_volume                     1534.77
loop_
_atom_site_label
_atom_site_type_symbol
_atom_site_fract_x
_atom_site_fract_y
_atom_site_fract_z
C2 C 1.0000 0.0000 0.0000
O1 O 1.0376(6) 0.1163(9) 0.0507(5)
O1A O 0.9624(6) -0.1163(9) -0.0507(5)
Cd1 Cd 0.715616(15) 0.350074(14) -0.001173(10)
Be1 Be 0.6936(2) 0.7989(2) -0.53532(19)
O2 O 0.69710(14) 0.85123(13) -0.41592(11)
O3 O 0.67915(14) 0.64980(13) -0.54794(10)
O4 O 0.57525(14) -0.17732(15) 0.40704(11)
O5 O 0.82331(13) -0.12783(13) 0.41647(11)
O6 O 0.77420(16) 0.19227(15) -0.12457(12)
O7 O 0.93453(16) 0.35673(15) -0.05480(12)
O8 O 0.9704(2) 0.20767(19) -0.16530(16)
O9 O 0.49856(17) 0.22032(16) -0.05537(13)
O10 O 0.51765(19) 0.36911(19) 0.07535(14)
O11 O 0.32714(18) 0.2432(2) 0.01660(15)
O12 O 0.81349(17) 0.53302(16) 0.11554(12)
N1 N 0.71164(17) 0.45864(16) -0.12844(12)
N2 N 0.72668(19) 0.22717(17) 0.11574(13)
N3 N 0.89369(19) 0.25019(18) -0.11620(14)
N4 N 0.4448(2) 0.2773(2) 0.01256(15)
C3 C 0.7010(2) 0.8547(2) -0.24086(16)
H2 H 0.6942 0.7979 -0.1941
H3 H 0.6306 0.8899 -0.2367
H4 H 0.7800 0.9246 -0.2262
C4 C 0.69955(18) 0.78621(18) -0.34783(14)
C5 C 0.69656(18) 0.65698(18) -0.37126(14)
C6 C 0.68500(18) 0.59463(18) -0.47265(14)
C7 C 0.6792(2) 0.4572(2) -0.50263(16)
H5 H 0.7189 0.4456 -0.5654
H6 H 0.5908 0.4030 -0.5110
H7 H 0.7243 0.4332 -0.4516
C8 C 0.6088(2) 0.4206(2) -0.19588(15)
H8 H 0.5377 0.3477 -0.1887
C9 C 0.60061(19) 0.48194(19) -0.27530(15)
H9 H 0.5250 0.4515 -0.3218
C10 C 0.70271(18) 0.58790(18) -0.28768(14)
C11 C 0.80994(19) 0.62563(19) -0.21776(15)
H10 H 0.8835 0.6970 -0.2236
C12 C 0.8104(2) 0.56027(19) -0.13979(15)
H11 H 0.8844 0.5888 -0.0917
C13 C 0.4694(2) -0.0795(2) 0.30818(19)
H12 H 0.4794 -0.0663 0.2399
H13 H 0.4529 -0.0070 0.3484
H14 H 0.3964 -0.1536 0.3087
C14 C 0.59118(19) -0.0968(2) 0.34896(15)
C15 C 0.71394(19) -0.02642(19) 0.32315(14)
C16 C 0.82640(19) -0.04811(18) 0.35805(14)
C17 C 0.9581(2) 0.0187(2) 0.32849(17)
H15 H 0.9536 0.0873 0.2965
H16 H 0.9891 -0.0397 0.2824
H17 H 1.0179 0.0522 0.3873
C18 C 0.7150(3) 0.2621(2) 0.21396(18)
H18 H 0.7088 0.3459 0.2375
C19 C 0.7104(3) 0.1843(2) 0.28382(17)
H19 H 0.6999 0.2138 0.3536
C20 C 0.7221(2) 0.06438(19) 0.25297(15)
C21 C 0.7334(3) 0.0273(2) 0.15118(18)
H20 H 0.7413 -0.0554 0.1258
C22 C 0.7335(3) 0.1093(2) 0.08552(18)
H21 H 0.7385 0.0801 0.0147
C23 C 0.7480(3) 0.6122(3) 0.1742(2)
H22 H 0.7890 0.6425 0.2414
H23 H 0.6589 0.5642 0.1772
H24 H 0.7508 0.6834 0.1429
H25 H 0.8944 0.5882 0.1031
Cd1_2 Cd 0.715616(15) -0.649926(14) 0.998827(10)
Cd1_3 Cd 0.715616(15) 1.350074(14) -1.001173(10)
Be1_2 Be 0.6936(2) -0.2011(2) 0.46468(19)
O2_2 O 0.69710(14) -0.14877(13) 0.58408(11)
O3_2 O 0.67915(14) -0.35020(13) 0.45206(10)
O4_2 O 0.57525(14) 0.82268(15) -0.59296(11)
O5_2 O 0.82331(13) 0.87217(13) -0.58353(11)
O6_2 O 0.77420(16) -0.80773(15) 0.87543(12)
O7_2 O 0.93453(16) -0.64327(15) 0.94520(12)
O8_2 O 0.9704(2) -0.79233(19) 0.83470(16)
O9_2 O 0.49856(17) -0.77968(16) 0.94463(13)
O10_2 O 0.51765(19) -0.63089(19) 1.07535(14)
O11_2 O 0.32714(18) -0.7568(2) 1.01660(15)
O12_2 O 0.81349(17) -0.46698(16) 1.11554(12)
N1_2 N 0.71164(17) -0.54136(16) 0.87156(12)
N2_2 N 0.72668(19) 1.22717(17) -0.88426(13)
N2_3 N 0.72668(19) -0.77283(17) 1.11574(13)
N3_2 N 0.89369(19) -0.74981(18) 0.88380(14)
N4_2 N 0.4448(2) -0.7227(2) 1.01256(15)
C3_2 C 0.7010(2) -0.1453(2) 0.75914(16)
H2_2 H 0.6942 -0.2021 0.8059
H3_2 H 0.6306 -0.1101 0.7633
H4_2 H 0.7800 -0.0754 0.7738
C4_2 C 0.69955(18) -0.21379(18) 0.65217(14)
C5_2 C 0.69656(18) -0.34302(18) 0.62874(14)
C6_2 C 0.68500(18) -0.40537(18) 0.52735(14)
C7_2 C 0.6792(2) -0.5428(2) 0.49737(16)
H5_2 H 0.7189 -0.5544 0.4346
H6_2 H 0.5908 -0.5970 0.4890
H7_2 H 0.7243 -0.5668 0.5484
C8_2 C 0.6088(2) -0.5794(2) 0.80412(15)
H8_2 H 0.5377 -0.6523 0.8113
C9_2 C 0.60061(19) -0.51806(19) 0.72470(15)
H9_2 H 0.5250 -0.5485 0.6782
C10_2 C 0.70271(18) -0.41210(18) 0.71232(14)
C11_2 C 0.80994(19) -0.37437(19) 0.78224(15)
H10_2 H 0.8835 -0.3030 0.7764
C12_2 C 0.8104(2) -0.43973(19) 0.86021(15)
H11_2 H 0.8844 -0.4112 0.9083
C13_2 C 0.4694(2) 0.9205(2) -0.69182(19)
H12_2 H 0.4794 0.9337 -0.7601
H13_2 H 0.4529 0.9930 -0.6516
H14_2 H 0.3964 0.8464 -0.6913
C14_2 C 0.59118(19) 0.9032(2) -0.65104(15)
C15_2 C 0.71394(19) 0.97358(19) -0.67685(14)
C16_2 C 0.82640(19) 0.95189(18) -0.64195(14)
C17_2 C 0.9581(2) 1.0187(2) -0.67151(17)
H15_2 H 0.9536 1.0873 -0.7035
H16_2 H 0.9891 0.9603 -0.7176
H17_2 H 1.0179 1.0522 -0.6127
C18_2 C 0.7150(3) 1.2621(2) -0.78604(18)
H18_2 H 0.7088 1.3459 -0.7625
C19_2 C 0.7104(3) 1.1843(2) -0.71618(17)
H19_2 H 0.6999 1.2138 -0.6464
C20_2 C 0.7221(2) 1.06438(19) -0.74703(15)
C21_2 C 0.7334(3) 1.0273(2) -0.84882(18)
H20_2 H 0.7413 0.9446 -0.8742
C22_2 C 0.7335(3) 1.1093(2) -0.91448(18)
H21_2 H 0.7385 1.0801 -0.9853
C23_2 C 0.7480(3) -0.3878(3) 1.1742(2)
H22_2 H 0.7890 -0.3575 1.2414
H23_2 H 0.6589 -0.4358 1.1772
H24_2 H 0.7508 -0.3166 1.1429
H25_2 H 0.8944 -0.4118 1.1031
Cl1 Cl 0.98940(7) 0.33463(6) -0.53272(5)
Cl2 Cl 0.96513(10) 0.41550(7) -0.32002(5)
Cl3 Cl 0.83223(7) 0.15694(8) -0.41894(6)
C1 C 0.9716(2) 0.2869(2) -0.4148(2)
H1 H 1.0455 0.2623 -0.3984
loop_
_geom_bond_atom_site_label_1
_geom_bond_atom_site_label_2
_geom_bond_site_symmetry_1
_geom_bond_site_symmetry_2
Cl1 C1 1_555 1_555
Cl2 C1 1_555 1_555
Cl3 C1 1_555 1_555
C1 H1 1_555 1_555
C2 O1 1_555 1_555
Cd1 O6 1_555 1_555
Be1 O2 1_555 1_555
O2 C4 1_555 1_555
O3 Be1 1_555 1_555
O4 C14 1_555 1_555
O5 C16 1_555 1_555
O6 N3 1_555 1_555
O7 Cd1 1_555 1_555
O8 N3 1_555 1_555
O9 Cd1 1_555 1_555
O10 Cd1 1_555 1_555
O11 N4 1_555 1_555
O12 Cd1 1_555 1_555
N1 Cd1 1_555 1_555
N2 Cd1 1_555 1_555
N3 O7 1_555 1_555
N4 O9 1_555 1_555
C3 H2 1_555 1_555
H3 C3 1_555 1_555
H4 C3 1_555 1_555
C4 C3 1_555 1_555
C5 C4 1_555 1_555
C6 O3 1_555 1_555
C7 C6 1_555 1_555
H5 C7 1_555 1_555
H6 C7 1_555 1_555
H7 C7 1_555 1_555
C8 N1 1_555 1_555
H8 C8 1_555 1_555
C9 C8 1_555 1_555
H9 C9 1_555 1_555
C10 C5 1_555 1_555
C11 C10 1_555 1_555
H10 C11 1_555 1_555
C12 N1 1_555 1_555
H11 C12 1_555 1_555
C13 H12 1_555 1_555
H13 C13 1_555 1_555
H14 C13 1_555 1_555
C14 C13 1_555 1_555
C15 C14 1_555 1_555
C16 C15 1_555 1_555
C17 C16 1_555 1_555
H15 C17 1_555 1_555
H16 C17 1_555 1_555
H17 C17 1_555 1_555
C18 N2 1_555 1_555
H18 C18 1_555 1_555
C19 C18 1_555 1_555
H19 C19 1_555 1_555
C20 C15 1_555 1_555
C21 C20 1_555 1_555
H20 C21 1_555 1_555
C22 N2 1_555 1_555
H21 C22 1_555 1_555
C23 O12 1_555 1_555
H22 C23 1_555 1_555
H23 C23 1_555 1_555
H24 C23 1_555 1_555
H25 O12 1_555 1_555
O1A C2 1_555 1_555
Cd1_2 O6_2 1_555 1_555
Cd1_3 N2_2 1_555 1_555
Be1_2 O4 1_555 1_555
O2_2 Be1_2 1_555 1_555
O3_2 Be1_2 1_555 1_555
O4_2 Be1 1_555 1_555
O5_2 Be1 1_555 1_555
O6_2 N3_2 1_555 1_555
O7_2 Cd1_2 1_555 1_555
O8_2 N3_2 1_555 1_555
O9_2 Cd1_2 1_555 1_555
O10_2 Cd1_2 1_555 1_555
O11_2 N4_2 1_555 1_555
O12_2 Cd1_2 1_555 1_555
N1_2 Cd1_2 1_555 1_555
N2_2 C18_2 1_555 1_555
N2_3 Cd1_2 1_555 1_555
N3_2 O7_2 1_555 1_555
N4_2 O9_2 1_555 1_555
C3_2 H2_2 1_555 1_555
H3_2 C3_2 1_555 1_555
H4_2 C3_2 1_555 1_555
C4_2 O2_2 1_555 1_555
C5_2 C4_2 1_555 1_555
C6_2 O3_2 1_555 1_555
C7_2 C6_2 1_555 1_555
H5_2 C7_2 1_555 1_555
H6_2 C7_2 1_555 1_555
H7_2 C7_2 1_555 1_555
C8_2 N1_2 1_555 1_555
H8_2 C8_2 1_555 1_555
C9_2 C8_2 1_555 1_555
H9_2 C9_2 1_555 1_555
C10_2 C5_2 1_555 1_555
C11_2 C10_2 1_555 1_555
H10_2 C11_2 1_555 1_555
C12_2 N1_2 1_555 1_555
H11_2 C12_2 1_555 1_555
C13_2 H12_2 1_555 1_555
H13_2 C13_2 1_555 1_555
H14_2 C13_2 1_555 1_555
C14_2 O4_2 1_555 1_555
C15_2 C14_2 1_555 1_555
C16_2 O5_2 1_555 1_555
C17_2 C16_2 1_555 1_555
H15_2 C17_2 1_555 1_555
H16_2 C17_2 1_555 1_555
H17_2 C17_2 1_555 1_555
C18_2 H18_2 1_555 1_555
C19_2 C18_2 1_555 1_555
H19_2 C19_2 1_555 1_555
C20_2 C15_2 1_555 1_555
C21_2 C20_2 1_555 1_555
H20_2 C21_2 1_555 1_555
C22_2 N2_2 1_555 1_555
H21_2 C22_2 1_555 1_555
C23_2 O12_2 1_555 1_555
H22_2 C23_2 1_555 1_555
H23_2 C23_2 1_555 1_555
H24_2 C23_2 1_555 1_555
H25_2 O12_2 1_555 1_555
O5 Be1_2 1_555 1_555
O10 N4 1_555 1_555
C5 C6 1_555 1_555
C9 C10 1_555 1_555
C11 C12 1_555 1_555
C19 C20 1_555 1_555
C21 C22 1_555 1_555
O10_2 N4_2 1_555 1_555
C3_2 C4_2 1_555 1_555
C5_2 C6_2 1_555 1_555
C9_2 C10_2 1_555 1_555
C11_2 C12_2 1_555 1_555
C13_2 C14_2 1_555 1_555
C15_2 C16_2 1_555 1_555
C19_2 C20_2 1_555 1_555
C21_2 C22_2 1_555 1_555

#END
