
#######################################################################
#
#                 Cambridge Crystallographic Data Centre
#                                CCDC 
#
#######################################################################
#
# If this CIF has been generated from an entry in the Cambridge 
# Structural Database, then it will include bibliographic, chemical, 
# crystal, experimental, refinement or atomic coordinate data resulting 
# from the CCDC's data processing and validation procedures.
#
#######################################################################

data_PAQLUO
_symmetry_cell_setting           monoclinic
_symmetry_space_group_name_H-M   'P 21/n'
_symmetry_Int_Tables_number      14
_space_group_name_Hall           '-P 2yn'
loop_
_symmetry_equiv_pos_site_id
_symmetry_equiv_pos_as_xyz
1 x,y,z
2 1/2-x,1/2+y,1/2-z
3 -x,-y,-z
4 1/2+x,1/2-y,1/2+z
_cell_length_a                   12.197(4)
_cell_length_b                   7.061(3)
_cell_length_c                   13.300(4)
_cell_angle_alpha                90
_cell_angle_beta                 98.83(2)
_cell_angle_gamma                90
_cell_volume                     1131.86
loop_
_atom_site_label
_atom_site_type_symbol
_atom_site_fract_x
_atom_site_fract_y
_atom_site_fract_z
Cu1 Cu 0.9000(1) 0.1328(4) 0.5060(1)
O1 O 0.9516(3) -0.0128(4) 0.4025(2)
N1 N 0.9235(3) 0.3789(5) 0.4333(3)
C1 C 1.0391(4) 0.4134(6) 0.4160(3)
C2 C 0.8861(3) 0.5465(6) 0.4856(3)
C3 C 0.8480(4) 0.3524(7) 0.3348(4)
C4 C 0.8866(4) 0.2042(7) 0.2669(3)
C5 C 0.9342(4) 0.0308(6) 0.3027(3)
C6 C 0.9651(4) -0.0977(7) 0.2334(4)
C7 C 0.9479(4) -0.0602(9) 0.1297(4)
C8 C 0.9012(4) 0.1084(9) 0.0946(4)
C9 C 0.8713(4) 0.2387(8) 0.1622(4)
O2 O 0.8116(3) 0.2321(5) 0.6052(3)
O3 O 0.7836(3) -0.0579(5) 0.5578(3)
C10 C 0.7609(4) 0.0772(7) 0.6110(4)
C11 C 0.6771(6) 0.0616(10) 0.6825(6)
Cu1B Cu 1.1000(1) -0.1328(4) 0.4940(1)
O1B O 1.0484(3) 0.0128(4) 0.5975(2)
C2B C 1.1139(3) 0.4535(6) 0.5144(3)
N1B N 1.0765(3) 0.6211(5) 0.5667(3)
Cu1B_2 Cu 1.1000(1) 0.8672(4) 0.4940(1)
O1B_2 O 1.0484(3) 1.0128(4) 0.5975(2)
O1_2 O 0.9516(3) 0.9872(4) 0.4025(2)
O2B O 1.1884(3) 0.7679(5) 0.3948(3)
C10B C 1.2391(4) 0.9228(7) 0.3890(4)
O3B O 1.2164(3) 1.0579(5) 0.4422(3)
C11B C 1.3229(6) 0.9384(10) 0.3175(6)
C1B C 0.9609(4) 0.5866(6) 0.5840(3)
C3B C 1.1520(4) 0.6476(7) 0.6652(4)
C4B C 1.1134(4) 0.7958(7) 0.7331(3)
C5B C 1.0658(4) 0.9692(6) 0.6973(3)
Cu1_2 Cu 0.9000(1) 1.1328(4) 0.5060(1)
C6B C 1.0349(4) 1.0977(7) 0.7666(4)
C7B C 1.0521(4) 1.0602(9) 0.8703(4)
C8B C 1.0988(4) 0.8916(9) 0.9054(4)
C9B C 1.1287(4) 0.7613(8) 0.8378(4)
loop_
_geom_bond_atom_site_label_1
_geom_bond_atom_site_label_2
_geom_bond_site_symmetry_1
_geom_bond_site_symmetry_2
Cu1 O1 1_555 1_555
O1 C5 1_555 1_555
N1 Cu1 1_555 1_555
C1 N1 1_555 1_555
C2 N1 1_555 1_555
C3 N1 1_555 1_555
C4 C3 1_555 1_555
C5 C4 1_555 1_555
C6 C5 1_555 1_555
C7 C6 1_555 1_555
C8 C7 1_555 1_555
C9 C4 1_555 1_555
O2 Cu1 1_555 1_555
O3 Cu1 1_555 1_555
C10 O2 1_555 1_555
C11 C10 1_555 1_555
Cu1B O1 1_555 1_555
O1B Cu1 1_555 1_555
C2B C1 1_555 1_555
N1B C2B 1_555 1_555
Cu1B_2 N1B 1_555 1_555
O1B_2 Cu1B_2 1_555 1_555
O1_2 Cu1B_2 1_555 1_555
O2B Cu1B_2 1_555 1_555
C10B O2B 1_555 1_555
O3B Cu1B_2 1_555 1_555
C11B C10B 1_555 1_555
C1B C2 1_555 1_555
C3B N1B 1_555 1_555
C4B C3B 1_555 1_555
C5B O1B_2 1_555 1_555
Cu1_2 O1B_2 1_555 1_555
C6B C5B 1_555 1_555
C7B C6B 1_555 1_555
C8B C7B 1_555 1_555
C9B C4B 1_555 1_555
C8 C9 1_555 1_555
O3 C10 1_555 1_555
Cu1B O1B 1_555 1_555
N1B C1B 1_555 1_555
O1_2 Cu1_2 1_555 1_555
C10B O3B 1_555 1_555
C4B C5B 1_555 1_555
C8B C9B 1_555 1_555

#END
