
#######################################################################
#
#                 Cambridge Crystallographic Data Centre
#                                CCDC 
#
#######################################################################
#
# If this CIF has been generated from an entry in the Cambridge 
# Structural Database, then it will include bibliographic, chemical, 
# crystal, experimental, refinement or atomic coordinate data resulting 
# from the CCDC's data processing and validation procedures.
#
#######################################################################

data_PAQYEN
_symmetry_cell_setting           hexagonal
_symmetry_space_group_name_H-M   'P 65'
_symmetry_Int_Tables_number      170
_space_group_name_Hall           'P 65'
loop_
_symmetry_equiv_pos_site_id
_symmetry_equiv_pos_as_xyz
1 x,y,z
2 -y,x-y,2/3+z
3 -x+y,-x,1/3+z
4 -x,-y,1/2+z
5 y,-x+y,1/6+z
6 x-y,x,5/6+z
_cell_length_a                   10.2531(2)
_cell_length_b                   10.2531(2)
_cell_length_c                   20.2456(6)
_cell_angle_alpha                90
_cell_angle_beta                 90
_cell_angle_gamma                120
_cell_volume                     1843.2
loop_
_atom_site_label
_atom_site_type_symbol
_atom_site_fract_x
_atom_site_fract_y
_atom_site_fract_z
Zn1 Zn -0.44345(5) -0.20703(5) -0.08731(2)
O1 O 0.1922(3) -0.4407(3) 0.05829(12)
N1 N 0.6003(3) 0.2503(3) 0.05675(14)
C1 C -0.0582(4) -0.1853(4) -0.02241(16)
C2 C -0.0559(4) -0.3158(4) -0.00447(16)
H1 H -0.1408 -0.4120 -0.0129
C3 C 0.4663(4) 0.3848(4) 0.0492(2)
H2 H 0.4681 0.4783 0.0505
C4 C 0.3346(4) 0.1172(4) 0.03116(16)
C5 C 0.4723(4) 0.1237(4) 0.04106(17)
H3 H 0.4758 0.0333 0.0364
C6 C 0.5951(4) 0.3787(4) 0.06098(17)
H4 H 0.6843 0.4689 0.0726
C7 C 0.3323(4) 0.2513(4) 0.03528(18)
H5 H 0.2411 0.2524 0.0287
C8 C 0.1979(4) -0.0315(4) 0.01741(16)
C9 C 0.0671(4) -0.0440(4) -0.01108(17)
H6 H 0.0641 0.0443 -0.0227
C10 C 0.0713(4) -0.3040(4) 0.02570(16)
O2 O -0.0561(3) -0.5451(3) 0.06973(13)
O3 O -0.2183(3) -0.0882(3) -0.05310(12)
O4 O -0.3665(3) -0.1787(3) -0.18403(13)
H7 H -0.2849 -0.1789 -0.1913
H8 H -0.4289 -0.2272 -0.2146
O5 O -0.3047(3) -0.3294(3) -0.06846(12)
O6 O -0.5127(3) -0.2539(3) 0.01395(12)
H9 H -0.4613 -0.1785 0.0388
H10 H -0.6051 -0.2972 0.0249
C11 C -0.2017(4) -0.2025(4) -0.05034(16)
C12 C 0.0694(4) -0.4418(4) 0.05225(17)
C13 C 0.1967(4) -0.1630(4) 0.03544(17)
H11 H 0.2843 -0.1560 0.0549
Zn1D Zn -0.20703(5) -0.76358(7) 0.07936(2)
Zn1D_2 Zn 0.79297(5) 0.23642(7) 0.07936(2)
N1E N -0.6500(4) -0.3997(3) -0.10992(14)
O2E O -0.5110(4) -0.0561(3) -0.09694(13)
loop_
_geom_bond_atom_site_label_1
_geom_bond_atom_site_label_2
_geom_bond_site_symmetry_1
_geom_bond_site_symmetry_2
Zn1 O3 1_555 1_555
O1 C12 1_555 1_555
N1 C5 1_555 1_555
C1 C2 1_555 1_555
C2 H1 1_555 1_555
C3 H2 1_555 1_555
C4 C5 1_555 1_555
C5 H3 1_555 1_555
C6 N1 1_555 1_555
H4 C6 1_555 1_555
C7 C3 1_555 1_555
H5 C7 1_555 1_555
C8 C4 1_555 1_555
C9 C1 1_555 1_555
H6 C9 1_555 1_555
C10 C2 1_555 1_555
O2 C12 1_555 1_555
O3 C11 1_555 1_555
O4 Zn1 1_555 1_555
H7 O4 1_555 1_555
H8 O4 1_555 1_555
O5 Zn1 1_555 1_555
O6 Zn1 1_555 1_555
H9 O6 1_555 1_555
H10 O6 1_555 1_555
C11 C1 1_555 1_555
C12 C10 1_555 1_555
C13 C8 1_555 1_555
H11 C13 1_555 1_555
Zn1D O2 1_555 1_555
Zn1D_2 N1 1_555 1_555
N1E Zn1 1_555 1_555
O2E Zn1 1_555 1_555
C3 C6 1_555 1_555
C4 C7 1_555 1_555
C8 C9 1_555 1_555
C10 C13 1_555 1_555
O5 C11 1_555 1_555

#END
