
#######################################################################
#
#                 Cambridge Crystallographic Data Centre
#                                CCDC 
#
#######################################################################
#
# If this CIF has been generated from an entry in the Cambridge 
# Structural Database, then it will include bibliographic, chemical, 
# crystal, experimental, refinement or atomic coordinate data resulting 
# from the CCDC's data processing and validation procedures.
#
#######################################################################

data_PARFOF
_symmetry_cell_setting           monoclinic
_symmetry_space_group_name_H-M   'C 2/c'
_symmetry_Int_Tables_number      15
_space_group_name_Hall           '-C 2yn'
loop_
_symmetry_equiv_pos_site_id
_symmetry_equiv_pos_as_xyz
1 x,y,z
2 -x,y,1/2-z
3 1/2+x,1/2+y,z
4 1/2-x,1/2+y,1/2-z
5 -x,-y,-z
6 x,-y,1/2+z
7 1/2-x,1/2-y,-z
8 1/2+x,1/2-y,1/2+z
_cell_length_a                   24.985(4)
_cell_length_b                   7.5077(6)
_cell_length_c                   6.7797(8)
_cell_angle_alpha                90
_cell_angle_beta                 107.68(2)
_cell_angle_gamma                90
_cell_volume                     1211.67
loop_
_atom_site_label
_atom_site_type_symbol
_atom_site_fract_x
_atom_site_fract_y
_atom_site_fract_z
V1 V 0.0000 0.000 0.0000
O1 O 0.0000 -0.121(3) -0.25
O2 O -0.0431(5) 0.195(2) -0.180(2)
O3 O -0.0717(7) 0.140(2) -0.479(4)
C1 C -0.1461(8) 0.234(3) -0.375(7)
C2 C -0.1869(8) 0.187(3) -0.575(4)
C3 C -0.2808(10) 0.176(3) -0.779(4)
C4 C -0.0886(4) 0.182(2) -0.330(2)
C5 C -0.2430(3) 0.210(4) -0.5804(10)
C6 C -0.1609(8) 0.293(3) -0.194(4)
V1A V 0.0000 0.000 -0.5000
V1B V -0.5000 0.500 -1.0000
V1C V -0.5000 0.500 -0.5000
O1D O 0.0000 0.121(3) 0.25
O2F O -0.4569(5) 0.305(2) -0.820(2)
O2D O 0.0431(5) -0.195(2) 0.180(2)
O3F O -0.4283(7) 0.360(2) -0.521(4)
O3E O -0.0717(7) -0.140(2) 0.021(4)
O3A O 0.0717(7) 0.140(2) -0.021(4)
C1F C -0.3539(8) 0.266(3) -0.625(7)
C2F C -0.3131(8) 0.313(3) -0.425(4)
C3F C -0.2192(10) 0.324(3) -0.221(4)
C4F C -0.4114(4) 0.318(2) -0.670(2)
C5F C -0.2570(3) 0.290(4) -0.4196(10)
C6F C -0.3391(8) 0.207(3) -0.806(4)
O4 O 0.0000 -0.463(3) 0.7500
loop_
_geom_bond_atom_site_label_1
_geom_bond_atom_site_label_2
_geom_bond_site_symmetry_1
_geom_bond_site_symmetry_2
V1 O1 1_555 1_555
O1 V1A 1_555 1_555
O2 V1 1_555 1_555
O3 C4 1_555 1_555
C1 C2 1_555 1_555
C2 C5 1_555 1_555
C3 C5 1_555 1_555
C4 O2 1_555 1_555
C5 C5F 1_555 1_555
C6 C1 1_555 1_555
V1A O3 1_555 1_555
V1B O2F 1_555 1_555
V1C O3F 1_555 1_555
O1D V1 1_555 1_555
O2F C4F 1_555 1_555
O2D V1 1_555 1_555
O3F C4F 1_555 1_555
O3E V1 1_555 1_555
O3A V1 1_555 1_555
C1F C2F 1_555 1_555
C2F C5F 1_555 1_555
C3F C6 1_555 1_555
C4F C1F 1_555 1_555
C5F C3F 1_555 1_555
C6F C3 1_555 1_555
C1 C4 1_555 1_555
C1F C6F 1_555 1_555

#END
