
#######################################################################
#
#                 Cambridge Crystallographic Data Centre
#                                CCDC 
#
#######################################################################
#
# If this CIF has been generated from an entry in the Cambridge 
# Structural Database, then it will include bibliographic, chemical, 
# crystal, experimental, refinement or atomic coordinate data resulting 
# from the CCDC's data processing and validation procedures.
#
#######################################################################

data_PARQAC
_symmetry_cell_setting           monoclinic
_symmetry_space_group_name_H-M   'P 21'
_symmetry_Int_Tables_number      4
_space_group_name_Hall           'P 2yb'
loop_
_symmetry_equiv_pos_site_id
_symmetry_equiv_pos_as_xyz
1 x,y,z
2 -x,1/2+y,-z
_cell_length_a                   8.8921(12)
_cell_length_b                   5.7750(8)
_cell_length_c                   26.920(4)
_cell_angle_alpha                90
_cell_angle_beta                 95.899(3)
_cell_angle_gamma                90
_cell_volume                     1375.07
loop_
_atom_site_label
_atom_site_type_symbol
_atom_site_fract_x
_atom_site_fract_y
_atom_site_fract_z
Na1 Na 0.74622(10) 0.80134(16) 0.24858(3)
C1 C 0.76794(19) 0.5387(3) 0.47887(6)
O1 O 0.94108(14) 0.5004(2) 0.60998(4)
O2 O 0.67303(16) 0.3938(2) 0.27712(5)
C2 C 0.67982(19) 0.3328(3) 0.47657(6)
C3 C 0.6766(2) 0.6178(3) 0.39264(7)
C4 C 0.59278(19) 0.2725(3) 0.43124(6)
C5 C 0.6821(2) 0.1962(3) 0.52026(7)
C6 C 0.59110(18) 0.4104(3) 0.38957(6)
C7 C 0.7623(2) 0.6792(3) 0.43554(7)
C8 C 0.85814(18) 0.4600(3) 0.56490(6)
C9 C 0.85838(19) 0.5989(3) 0.52370(7)
O3 O 0.63735(16) 0.0381(2) 0.30426(5)
C10 C 0.61173(19) 0.2469(3) 0.30475(6)
C11 C 0.7683(2) 0.2573(3) 0.56313(7)
C12 C 0.5025(2) 0.3488(3) 0.33996(6)
C13 C 1.0269(2) 0.7110(4) 0.61481(8)
C14 C 0.3719(2) 0.1837(4) 0.34440(7)
O4 O 0.83393(16) 1.2056(2) 0.21895(5)
C15 C 0.8275(2) 1.2238(3) 0.01917(6)
C16 C 0.9141(2) 1.1884(3) 0.10754(6)
C17 C 0.7536(2) 0.8914(3) 0.06632(7)
C18 C 0.9104(2) 1.3069(3) 0.06324(6)
C19 C 0.6572(2) 0.9339(3) -0.02336(7)
O5 O 0.57566(16) 0.9961(3) -0.11137(5)
C20 C 0.8356(2) 0.9754(3) 0.10807(6)
C21 C 0.7420(2) 1.2608(4) -0.06876(7)
O6 O 0.84738(18) 1.5658(2) 0.19225(5)
C22 C 0.6564(2) 1.0566(4) -0.06666(7)
C23 C 0.8844(2) 1.3626(3) 0.19092(6)
C24 C 0.9975(2) 1.2866(4) 0.15500(7)
C25 C 0.8241(2) 1.3437(3) -0.02732(7)
C26 C 0.7450(2) 1.0148(3) 0.02043(7)
C27 C 1.1154(2) 1.1210(5) 0.18041(8)
C28 C 0.4837(3) 0.7938(4) -0.11199(9)
O7 O 0.51701(18) 0.7996(3) 0.19391(6)
O8 O 0.96468(18) 0.7349(4) 0.30430(6)
C29 C 1.0999(3) 0.6523(6) 0.29100(9)
H1 H 1.1725 0.6393 0.3208
H2 H 1.1394 0.7592 0.2672
H3 H 1.0842 0.4996 0.2755
C30 C 0.3967(3) 0.7123(5) 0.21805(8)
H4 H 0.3042 0.7134 0.1949
H5 H 0.3822 0.8092 0.2471
H6 H 0.4195 0.5533 0.2291
H7 H 0.598(2) 0.798(4) -0.0210(7)
H8 H 0.5381(19) 0.124(4) 0.4297(6)
H9 H 0.883(2) 1.479(4) -0.0268(7)
H10 H 0.9196(19) 0.734(4) 0.5243(6)
H11 H 0.7662(19) 0.167(3) 0.5921(7)
H12 H 0.964(2) 1.451(4) 0.0604(7)
H13 H 0.673(2) 0.721(4) 0.3639(7)
H14 H 0.698(2) 0.743(4) 0.0675(6)
H15 H 0.626(2) 0.064(4) 0.5212(7)
H16 H 0.745(2) 1.344(4) -0.1016(8)
H17 H 0.837(2) 0.885(4) 0.1393(7)
H18 H 0.823(2) 0.819(4) 0.4372(7)
H19 H 1.071(2) 0.713(4) 0.6482(8)
H20 H 1.106(2) 0.702(4) 0.5909(8)
H21 H 0.409(3) 0.813(5) -0.0884(9)
H22 H 0.550(3) 0.664(5) -0.1017(9)
H23 H 0.439(2) 0.781(4) -0.1465(9)
H24 H 0.311(2) 0.160(4) 0.3115(7)
H25 H 0.467(2) 0.488(4) 0.3230(7)
H26 H 1.053(2) 1.436(4) 0.1469(7)
H27 H 0.408(3) 0.043(5) 0.3531(8)
H28 H 0.304(2) 0.252(4) 0.3681(8)
H29 H 1.065(2) 0.954(5) 0.1843(8)
H30 H 0.958(3) 0.845(5) 0.6094(8)
H31 H 1.160(2) 1.183(4) 0.2149(8)
H32 H 0.507(3) 0.732(6) 0.1647(10)
H33 H 1.191(3) 1.101(5) 0.1580(8)
H34 H 0.987(4) 0.823(8) 0.3359(13)
H35 H 0.755(3) 1.296(7) 0.2457(11)
Na1_2 Na 0.74622(10) -0.19866(16) 0.24858(3)
Na1_3 Na 0.74622(10) 1.80134(16) 0.24858(3)
O3_2 O 0.63735(16) 1.0381(2) 0.30426(5)
O6_2 O 0.84738(18) 0.5658(2) 0.19225(5)
loop_
_geom_bond_atom_site_label_1
_geom_bond_atom_site_label_2
_geom_bond_site_symmetry_1
_geom_bond_site_symmetry_2
Na1 O2 1_555 1_555
C1 C2 1_555 1_555
O1 C8 1_555 1_555
O2 C10 1_555 1_555
C2 C4 1_555 1_555
C3 C6 1_555 1_555
C4 C6 1_555 1_555
C5 C2 1_555 1_555
C6 C12 1_555 1_555
C7 C1 1_555 1_555
C8 C9 1_555 1_555
C9 C1 1_555 1_555
O3 C10 1_555 1_555
C10 C12 1_555 1_555
C11 C5 1_555 1_555
C12 C14 1_555 1_555
C13 O1 1_555 1_555
C14 H24 1_555 1_555
O4 Na1 1_555 1_555
C15 C18 1_555 1_555
C16 C18 1_555 1_555
C17 C20 1_555 1_555
C18 H12 1_555 1_555
C19 C22 1_555 1_555
O5 C22 1_555 1_555
C20 C16 1_555 1_555
C21 C22 1_555 1_555
O6 C23 1_555 1_555
C23 O4 1_555 1_555
C24 C16 1_555 1_555
C25 C15 1_555 1_555
C26 C15 1_555 1_555
C27 C24 1_555 1_555
C28 O5 1_555 1_555
O7 Na1 1_555 1_555
O8 Na1 1_555 1_555
C29 O8 1_555 1_555
H1 C29 1_555 1_555
H2 C29 1_555 1_555
H3 C29 1_555 1_555
C30 O7 1_555 1_555
H4 C30 1_555 1_555
H5 C30 1_555 1_555
H6 C30 1_555 1_555
H7 C19 1_555 1_555
H8 C4 1_555 1_555
H9 C25 1_555 1_555
H10 C9 1_555 1_555
H11 C11 1_555 1_555
H13 C3 1_555 1_555
H14 C17 1_555 1_555
H15 C5 1_555 1_555
H16 C21 1_555 1_555
H17 C20 1_555 1_555
H18 C7 1_555 1_555
H19 C13 1_555 1_555
H20 C13 1_555 1_555
H21 C28 1_555 1_555
H22 C28 1_555 1_555
H23 C28 1_555 1_555
H25 C12 1_555 1_555
H26 C24 1_555 1_555
H27 C14 1_555 1_555
H28 C14 1_555 1_555
H29 C27 1_555 1_555
H30 C13 1_555 1_555
H31 C27 1_555 1_555
H32 O7 1_555 1_555
H33 C27 1_555 1_555
H34 O8 1_555 1_555
H35 O4 1_555 1_555
Na1_2 O3 1_555 1_555
Na1_3 O6 1_555 1_555
O3_2 Na1 1_555 1_555
O6_2 Na1 1_555 1_555
C3 C7 1_555 1_555
C8 C11 1_555 1_555
C17 C26 1_555 1_555
C19 C26 1_555 1_555
C21 C25 1_555 1_555
C23 C24 1_555 1_555

#END
