
#######################################################################
#
#                 Cambridge Crystallographic Data Centre
#                                CCDC 
#
#######################################################################
#
# If this CIF has been generated from an entry in the Cambridge 
# Structural Database, then it will include bibliographic, chemical, 
# crystal, experimental, refinement or atomic coordinate data resulting 
# from the CCDC's data processing and validation procedures.
#
#######################################################################

data_PARSOS
_symmetry_cell_setting           hexagonal
_symmetry_space_group_name_H-M   'P 61 2 2'
_symmetry_Int_Tables_number      178
_space_group_name_Hall           "P 61 2' (0,0,5)"
loop_
_symmetry_equiv_pos_site_id
_symmetry_equiv_pos_as_xyz
1 x,y,z
2 -y,x-y,1/3+z
3 -x+y,-x,2/3+z
4 -x,-y,1/2+z
5 y,-x+y,5/6+z
6 x-y,x,1/6+z
7 y,x,1/3-z
8 x-y,-y,-z
9 -x,-x+y,2/3-z
10 -y,-x,5/6-z
11 -x+y,y,1/2-z
12 x,x-y,1/6-z
_cell_length_a                   13.9773(8)
_cell_length_b                   13.9773(8)
_cell_length_c                   18.263(2)
_cell_angle_alpha                90
_cell_angle_beta                 90
_cell_angle_gamma                120
_cell_volume                     3089.93
loop_
_atom_site_label
_atom_site_type_symbol
_atom_site_fract_x
_atom_site_fract_y
_atom_site_fract_z
Cu1 Cu -0.67469(3) 0.0000 0.0000
N1 N -0.82884(17) -0.12692(19) 0.02955(12)
N2 N -0.97090(17) -0.42465(15) -0.09030(11)
H1 H -0.8973 -0.3969 -0.0925
C1 C -0.8678(2) -0.2301(2) 0.00465(15)
H2 H -0.8208 -0.2446 -0.0232
C2 C -0.8968(2) -0.1081(3) 0.07200(15)
H3 H -0.8716 -0.0369 0.0895
C3 C -1.0019(2) -0.1897(3) 0.09062(16)
H4 H -1.0456 -0.1742 0.1212
C4 C -1.0413(2) -0.2953(3) 0.06299(15)
H5 H -1.1123 -0.3512 0.0747
C5 C -0.9752(2) -0.3174(2) 0.01804(14)
C6 C -1.0169(3) -0.4314(2) -0.01564(15)
H6 H -0.9964 -0.4742 0.0158
H7 H -1.0969 -0.4695 -0.0184
C7 C -1.0198(2) -0.53536(19) -0.12622(14)
H8 H -1.1004 -0.5691 -0.1258
C8 C -0.9892(3) -0.6139(2) -0.08628(18)
H9 H -0.9097 -0.5771 -0.0800
H10 H -1.0227 -0.6308 -0.0380
C9 C -1.0281(3) -0.7217(3) -0.1289(2)
H11 H -1.1077 -0.7599 -0.1346
H12 H -1.0086 -0.7697 -0.1023
Cu1B Cu -1.32531(3) -0.32531(3) -0.3333
Cu1D Cu -1.0000 -0.32531(3) -0.1667
N1H N -1.17116(17) -0.29808(25) -0.36288(12)
N1G N -0.70192(25) 0.12692(19) -0.02955(12)
N2H N -1.02910(17) -0.45375(23) -0.24303(11)
N2E N -0.54625(23) 0.02910(17) 0.07637(11)
N2I N -0.57535(15) -0.02910(17) -0.07637(11)
H1H H -1.1027 -0.4996 -0.2408
C1H C -1.1322(2) -0.3623(3) -0.33798(15)
H2H H -1.1792 -0.4238 -0.3101
C2H C -1.1032(2) -0.2113(4) -0.40533(15)
H3H H -1.1284 -0.1653 -0.4228
C3H C -0.9981(2) -0.1878(4) -0.42395(16)
H4H H -0.9544 -0.1286 -0.4545
C4H C -0.9587(2) -0.2540(4) -0.39632(15)
H5H H -0.8877 -0.2389 -0.4080
C5H C -1.0248(2) -0.3422(3) -0.35137(14)
C6H C -0.9831(3) -0.4145(4) -0.31769(15)
H6H H -1.0036 -0.4778 -0.3491
H7H H -0.9031 -0.3726 -0.3149
C7H C -0.9802(2) -0.51556(28) -0.20711(14)
H8H H -0.8996 -0.4687 -0.2075
C8H C -1.0108(3) -0.6247(4) -0.24705(18)
H9H H -1.0903 -0.6674 -0.2533
H10H H -0.9773 -0.6081 -0.2953
C9H C -0.9719(3) -0.6936(4) -0.2044(2)
H11H H -0.8923 -0.6522 -0.1987
H12H H -0.9914 -0.7611 -0.2310
N3 N -0.65354(19) -0.34646(19) -0.0833
O1 O -0.70106(16) -0.29894(16) -0.0833
O2 O -0.6825(5) -0.4305(4) -0.1191(4)
O2I O -0.5695(4) -0.3175(5) -0.0476(4)
O3 O -0.7661(17) -0.3830(8) 0.0833
H13 H -0.7490 -0.3608 0.0394
H13K H -0.7490 -0.3882 0.1273
loop_
_geom_bond_atom_site_label_1
_geom_bond_atom_site_label_2
_geom_bond_site_symmetry_1
_geom_bond_site_symmetry_2
Cu1 N1 1_555 1_555
N1 C1 1_555 1_555
N2 H1 1_555 1_555
C1 H2 1_555 1_555
C2 N1 1_555 1_555
H3 C2 1_555 1_555
C3 C2 1_555 1_555
H4 C3 1_555 1_555
C4 C3 1_555 1_555
H5 C4 1_555 1_555
C5 C1 1_555 1_555
C6 N2 1_555 1_555
H6 C6 1_555 1_555
H7 C6 1_555 1_555
C7 N2 1_555 1_555
H8 C7 1_555 1_555
C8 C7 1_555 1_555
H9 C8 1_555 1_555
H10 C8 1_555 1_555
C9 C8 1_555 1_555
H11 C9 1_555 1_555
H12 C9 1_555 1_555
N3 O1 1_555 1_555
O2 N3 1_555 1_555
O3 H13 1_555 1_555
Cu1B N1H 1_555 1_555
Cu1D N2 1_555 1_555
N1H C1H 1_555 1_555
N1G Cu1 1_555 1_555
N2H Cu1D 1_555 1_555
N2E Cu1 1_555 1_555
N2I Cu1 1_555 1_555
H1H N2H 1_555 1_555
C1H H2H 1_555 1_555
C2H N1H 1_555 1_555
H3H C2H 1_555 1_555
C3H C2H 1_555 1_555
H4H C3H 1_555 1_555
C4H C3H 1_555 1_555
H5H C4H 1_555 1_555
C5H C1H 1_555 1_555
C6H N2H 1_555 1_555
H6H C6H 1_555 1_555
H7H C6H 1_555 1_555
C7H C7 1_555 1_555
H8H C7H 1_555 1_555
C8H C7H 1_555 1_555
H9H C8H 1_555 1_555
H10H C8H 1_555 1_555
C9H C9 1_555 1_555
H11H C9H 1_555 1_555
H12H C9H 1_555 1_555
O2I N3 1_555 1_555
H13K O3 1_555 1_555
C4 C5 1_555 1_555
C5 C6 1_555 1_555
N2H C7H 1_555 1_555
C4H C5H 1_555 1_555
C5H C6H 1_555 1_555
C8H C9H 1_555 1_555

#END
