
#######################################################################
#
#                 Cambridge Crystallographic Data Centre
#                                CCDC 
#
#######################################################################
#
# If this CIF has been generated from an entry in the Cambridge 
# Structural Database, then it will include bibliographic, chemical, 
# crystal, experimental, refinement or atomic coordinate data resulting 
# from the CCDC's data processing and validation procedures.
#
#######################################################################

data_PARTIM
_symmetry_cell_setting           monoclinic
_symmetry_space_group_name_H-M   'C 2/c'
_symmetry_Int_Tables_number      15
_space_group_name_Hall           '-C 2yn'
loop_
_symmetry_equiv_pos_site_id
_symmetry_equiv_pos_as_xyz
1 x,y,z
2 1/2+x,1/2+y,z
3 -x,y,1/2-z
4 1/2-x,1/2+y,1/2-z
5 -x,-y,-z
6 1/2-x,1/2-y,-z
7 x,-y,1/2+z
8 1/2+x,1/2-y,1/2+z
_cell_length_a                   23.3806(8)
_cell_length_b                   11.1291(5)
_cell_length_c                   16.7895(5)
_cell_angle_alpha                90
_cell_angle_beta                 122.808(2)
_cell_angle_gamma                90
_cell_volume                     3671.86
loop_
_atom_site_label
_atom_site_type_symbol
_atom_site_fract_x
_atom_site_fract_y
_atom_site_fract_z
Cu1 Cu 0.69121(3) 0.26455(5) 0.35362(4)
N1 N 0.6937(2) 0.0826(4) 0.3591(3)
C1 C 0.8377(2) 0.2714(4) 0.4693(4)
O1 O 0.78566(17) 0.2788(3) 0.3861(3)
C2 C 0.6428(3) 0.0231(5) 0.3559(4)
H1 H 0.6082 0.0671 0.3538
O2 O 0.83810(18) 0.2393(3) 0.5405(3)
C3 C 0.6900(3) -0.1690(4) 0.3575(4)
C4 C 0.6393(3) -0.1011(5) 0.3555(4)
H2 H 0.6033 -0.1390 0.3538
C5 C 0.9652(3) 0.2786(5) 0.5678(4)
H3 H 0.9630 0.2523 0.6187
C6 C 0.7425(3) -0.1062(5) 0.3603(4)
H4 H 0.7775 -0.1475 0.3614
C7 C 0.9053(3) 0.3009(5) 0.4814(4)
C8 C 1.0283(3) 0.2948(5) 0.5796(4)
C9 C 0.7425(3) 0.0175(4) 0.3614(4)
H5 H 0.7783 0.0577 0.3639
C10 C 1.0303(3) 0.3379(6) 0.5028(4)
H6 H 1.0720 0.3494 0.5091
C11 C 0.9709(3) 0.3635(7) 0.4179(4)
H7 H 0.9729 0.3944 0.3679
C12 C 0.9086(3) 0.3438(6) 0.4063(4)
H8 H 0.8687 0.3593 0.3481
N2 N 0.6876(2) -0.5541(4) 0.3538(3)
C13 C 0.6883(3) -0.3023(4) 0.3554(4)
C14 C 0.6561(3) -0.3674(5) 0.3909(4)
H9 H 0.6342 -0.3276 0.4157
C15 C 0.6567(3) -0.4918(5) 0.3891(4)
H10 H 0.6350 -0.5340 0.4132
C16 C 0.7174(3) -0.4909(5) 0.3181(5)
H11 H 0.7381 -0.5326 0.2923
C17 C 0.7190(3) -0.3673(5) 0.3176(5)
H12 H 0.7404 -0.3274 0.2920
O3 O 1.09148(17) 0.2472(3) 0.7448(2)
O4 O 1.14667(19) 0.2543(4) 0.6720(3)
C18 C 1.0932(3) 0.2642(5) 0.6705(4)
Cu1_2 Cu 0.69121(3) 1.26455(5) 0.35362(4)
Cu1E Cu 0.80879(3) 0.23545(5) 0.64638(4)
Cu1_3 Cu 0.69121(3) -0.73545(5) 0.35362(4)
Cu1G Cu 1.19121(3) 0.23545(5) 0.85362(4)
Cu1B Cu 0.30879(3) 0.26455(5) 0.14638(4)
N1_2 N 0.6937(2) 1.0826(4) 0.3591(3)
C1E C 0.6623(2) 0.2286(4) 0.5307(4)
O1E O 0.71434(17) 0.2212(3) 0.6139(3)
O1_2 O 0.78566(17) 1.2788(3) 0.3861(3)
C2_2 C 0.6428(3) 1.0231(5) 0.3559(4)
H1_2 H 0.6082 1.0671 0.3538
O2E O 0.66190(18) 0.2607(3) 0.4595(3)
O2E_2 O 0.66190(18) 1.2607(3) 0.4595(3)
C3_2 C 0.6900(3) 0.8310(4) 0.3575(4)
C4_2 C 0.6393(3) 0.8989(5) 0.3555(4)
H2_2 H 0.6033 0.8610 0.3538
C5E C 0.5348(3) 0.2214(5) 0.4322(4)
H3E H 0.5370 0.2477 0.3813
C6_2 C 0.7425(3) 0.8938(5) 0.3603(4)
H4_2 H 0.7775 0.8525 0.3614
C7E C 0.5947(3) 0.1991(5) 0.5186(4)
C8E C 0.4717(3) 0.2052(5) 0.4204(4)
C9_2 C 0.7425(3) 1.0175(4) 0.3614(4)
H5_2 H 0.7783 1.0577 0.3639
C10E C 0.4697(3) 0.1621(6) 0.4972(4)
H6E H 0.4280 0.1506 0.4909
C11E C 0.5291(3) 0.1365(7) 0.5821(4)
H7E H 0.5271 0.1056 0.6321
C12E C 0.5914(3) 0.1562(6) 0.5937(4)
H8E H 0.6313 0.1407 0.6519
N2_2 N 0.6876(2) 0.4459(4) 0.3538(3)
N2_3 N 0.6876(2) 1.4459(4) 0.3538(3)
C13_2 C 0.6883(3) 0.6977(4) 0.3554(4)
C14_2 C 0.6561(3) 0.6326(5) 0.3909(4)
H9_2 H 0.6342 0.6724 0.4157
C15_2 C 0.6567(3) 0.5082(5) 0.3891(4)
H10_2 H 0.6350 0.4660 0.4132
C16_2 C 0.7174(3) 0.5091(5) 0.3181(5)
H11_2 H 0.7381 0.4674 0.2923
C17_2 C 0.7190(3) 0.6327(5) 0.3176(5)
H12_2 H 0.7404 0.6726 0.2920
O3E O 0.40852(17) 0.2528(3) 0.2552(2)
O3G O 0.59148(17) 0.2528(3) 0.2448(2)
O3G_2 O 0.59148(17) 1.2528(3) 0.2448(2)
O4E O 0.35333(19) 0.2457(4) 0.3280(3)
C18E C 0.4068(3) 0.2358(5) 0.3295(4)
O5 O 1.0000 0.0919(6) 0.7500
H14 H 0.969(5) 0.135(9) 0.744(11)
H14B H 1.031(5) 0.135(9) 0.756(11)
O6 O 0.5000 -0.2662(11) 0.2500
H13 H 0.499(8) -0.298(12) 0.204(7)
H13B H 0.501(8) -0.298(12) 0.296(7)
O7 O 1.0973(5) 0.0107(10) 0.5698(7)
H16 H 1.048(4) 0.014(14) 0.554(13)
H18 H 1.082(8) 0.043(14) 0.515(6)
O8 O 0.9989(6) 0.0595(10) 0.3779(8)
H15 H 1.010(10) 0.001(17) 0.428(8)
H17 H 0.963(6) 0.078(16) 0.396(12)
loop_
_geom_bond_atom_site_label_1
_geom_bond_atom_site_label_2
_geom_bond_site_symmetry_1
_geom_bond_site_symmetry_2
Cu1 N1 1_555 1_555
N1 C2 1_555 1_555
C1 O1 1_555 1_555
O1 Cu1 1_555 1_555
C2 H1 1_555 1_555
O2 C1 1_555 1_555
C3 C4 1_555 1_555
C4 C2 1_555 1_555
H2 C4 1_555 1_555
C5 H3 1_555 1_555
C6 C3 1_555 1_555
H4 C6 1_555 1_555
C7 C1 1_555 1_555
C8 C5 1_555 1_555
C9 N1 1_555 1_555
H5 C9 1_555 1_555
C10 C8 1_555 1_555
H6 C10 1_555 1_555
C11 C10 1_555 1_555
H7 C11 1_555 1_555
C12 C7 1_555 1_555
H8 C12 1_555 1_555
N2 C15 1_555 1_555
C13 C3 1_555 1_555
C14 C13 1_555 1_555
H9 C14 1_555 1_555
C15 C14 1_555 1_555
H10 C15 1_555 1_555
C16 N2 1_555 1_555
H11 C16 1_555 1_555
C17 C13 1_555 1_555
H12 C17 1_555 1_555
O3 C18 1_555 1_555
O4 C18 1_555 1_555
C18 C8 1_555 1_555
O5 H14 1_555 1_555
O6 H13 1_555 1_555
O7 H16 1_555 1_555
O8 H15 1_555 1_555
H17 O8 1_555 1_555
H18 O7 1_555 1_555
Cu1_2 N1_2 1_555 1_555
Cu1E O2 1_555 1_555
Cu1_3 N2 1_555 1_555
Cu1G O3 1_555 1_555
Cu1B O3E 1_555 1_555
N1_2 C2_2 1_555 1_555
C1E O1E 1_555 1_555
O1E Cu1E 1_555 1_555
O1_2 Cu1_2 1_555 1_555
C2_2 H1_2 1_555 1_555
O2E Cu1 1_555 1_555
O2E_2 Cu1_2 1_555 1_555
C3_2 C4_2 1_555 1_555
C4_2 C2_2 1_555 1_555
H2_2 C4_2 1_555 1_555
C5E H3E 1_555 1_555
C6_2 C3_2 1_555 1_555
H4_2 C6_2 1_555 1_555
C7E C1E 1_555 1_555
C8E C5E 1_555 1_555
C9_2 N1_2 1_555 1_555
H5_2 C9_2 1_555 1_555
C10E C8E 1_555 1_555
H6E C10E 1_555 1_555
C11E C10E 1_555 1_555
H7E C11E 1_555 1_555
C12E C7E 1_555 1_555
H8E C12E 1_555 1_555
N2_2 Cu1 1_555 1_555
N2_3 Cu1_2 1_555 1_555
C13_2 C3_2 1_555 1_555
C14_2 C13_2 1_555 1_555
H9_2 C14_2 1_555 1_555
C15_2 N2_2 1_555 1_555
H10_2 C15_2 1_555 1_555
C16_2 N2_2 1_555 1_555
H11_2 C16_2 1_555 1_555
C17_2 C13_2 1_555 1_555
H12_2 C17_2 1_555 1_555
O3E C18E 1_555 1_555
O3G Cu1 1_555 1_555
O3G_2 Cu1_2 1_555 1_555
O4E C18E 1_555 1_555
C18E C8E 1_555 1_555
H13B O6 1_555 1_555
H14B O5 1_555 1_555
C5 C7 1_555 1_555
C6 C9 1_555 1_555
C11 C12 1_555 1_555
C16 C17 1_555 1_555
C1E O2E 1_555 1_555
C5E C7E 1_555 1_555
C6_2 C9_2 1_555 1_555
C11E C12E 1_555 1_555
C14_2 C15_2 1_555 1_555
C16_2 C17_2 1_555 1_555

#END
