
#######################################################################
#
#                 Cambridge Crystallographic Data Centre
#                                CCDC 
#
#######################################################################
#
# If this CIF has been generated from an entry in the Cambridge 
# Structural Database, then it will include bibliographic, chemical, 
# crystal, experimental, refinement or atomic coordinate data resulting 
# from the CCDC's data processing and validation procedures.
#
#######################################################################

data_PARWIQ
_symmetry_cell_setting           monoclinic
_symmetry_space_group_name_H-M   'C 2/c'
_symmetry_Int_Tables_number      15
_space_group_name_Hall           '-C 2yn'
loop_
_symmetry_equiv_pos_site_id
_symmetry_equiv_pos_as_xyz
1 x,y,z
2 -x,y,1/2-z
3 1/2+x,1/2+y,z
4 1/2-x,1/2+y,1/2-z
5 -x,-y,-z
6 x,-y,1/2+z
7 1/2-x,1/2-y,-z
8 1/2+x,1/2-y,1/2+z
_cell_length_a                   25.804(4)
_cell_length_b                   9.7779(6)
_cell_length_c                   18.861(10)
_cell_angle_alpha                90
_cell_angle_beta                 136.399(12)
_cell_angle_gamma                90
_cell_volume                     3281.82
loop_
_atom_site_label
_atom_site_type_symbol
_atom_site_fract_x
_atom_site_fract_y
_atom_site_fract_z
Zn1 Zn 0.0000 0.15565(8) -0.2500
O1 O 0.04813(19) 0.3188(3) -0.2717(3)
H1 H 0.0355 0.3147 -0.3273
H2 H 0.0429 0.3993 -0.2617
O2 O 0.3917(2) 0.1761(4) 0.5702(3)
O3 O 0.43887(19) 0.1111(4) 0.5135(3)
N1 N 0.2147(2) 0.2578(4) 0.0703(3)
N2 N 0.1125(2) 0.1737(4) -0.0819(3)
C1 C 0.3903(2) 0.1702(4) 0.5028(3)
C2 C 0.2000(2) 0.3470(4) 0.2098(3)
H3 H 0.1586 0.3867 0.1468
C3 C 0.2654(2) 0.3243(4) 0.2351(3)
C4 C 0.2585(2) 0.2583(4) 0.3724(3)
H4 H 0.2562 0.2380 0.4182
C5 C 0.3246(2) 0.2348(4) 0.4005(3)
C6 C 0.1492(2) 0.2848(5) -0.0268(3)
H5 H 0.1315 0.3729 -0.0525
C7 C 0.1953(2) 0.3125(4) 0.2753(3)
C8 C 0.3276(2) 0.2661(4) 0.3310(3)
H6 H 0.3711 0.2482 0.3486
C9 C 0.2666(3) 0.3509(5) 0.1573(4)
H7 H 0.2520 0.4448 0.1335
H8 H 0.3170 0.3373 0.1891
C10 C 0.1220(2) 0.3258(4) 0.2435(4)
H9 H 0.1320 0.3604 0.3007
H10 H 0.0890 0.3899 0.1869
C11 C 0.2196(4) 0.1168(7) 0.0773(4)
H11 H 0.2586 0.0649 0.1348
C12 C 0.1554(4) 0.0692(6) -0.0174(4)
H12 H 0.1432 -0.0228 -0.0347
N3 N 0.08554(19) 0.1912(4) 0.2120(3)
C13 C 0.0687(2) 0.1234(5) 0.2549(3)
H16 H 0.0782 0.1564 0.3097
C14 C 0.0639(3) 0.1106(5) 0.1348(3)
H17 H 0.0688 0.1300 0.0916
N4 N 0.0372(2) 0.0051(4) 0.2104(3)
C15 C 0.0338(3) -0.0039(5) 0.1345(4)
H18 H 0.0139 -0.0772 0.0897
Zn1D Zn 0.0000 -0.15565(8) -0.7500
Zn1D_2 Zn 0.0000 -0.15565(8) 0.2500
O1A O -0.04813(19) 0.3188(3) -0.2283(3)
H1A H -0.0355 0.3147 -0.1727
H2A H -0.0429 0.3993 -0.2383
O2A O -0.3917(2) 0.1761(4) -1.0702(3)
O3A O -0.43887(19) 0.1111(4) -1.0135(3)
N1A N -0.2147(2) 0.2578(4) -0.5703(3)
N2A N -0.1125(2) 0.1737(4) -0.4181(3)
C1A C -0.3903(2) 0.1702(4) -1.0028(3)
C2A C -0.2000(2) 0.3470(4) -0.7098(3)
H3A H -0.1586 0.3867 -0.6468
C3A C -0.2654(2) 0.3243(4) -0.7351(3)
C4A C -0.2585(2) 0.2583(4) -0.8724(3)
H4A H -0.2562 0.2380 -0.9182
C5A C -0.3246(2) 0.2348(4) -0.9005(3)
C6A C -0.1492(2) 0.2848(5) -0.4732(3)
H5A H -0.1315 0.3729 -0.4475
C7A C -0.1953(2) 0.3125(4) -0.7753(3)
C8A C -0.3276(2) 0.2661(4) -0.8310(3)
H6A H -0.3711 0.2482 -0.8486
C9A C -0.2666(3) 0.3509(5) -0.6573(4)
H7A H -0.2520 0.4448 -0.6335
H8A H -0.3170 0.3373 -0.6891
C10A C -0.1220(2) 0.3258(4) -0.7435(4)
H9A H -0.1320 0.3604 -0.8007
H10A H -0.0890 0.3899 -0.6869
C11A C -0.2196(4) 0.1168(7) -0.5773(4)
H11A H -0.2586 0.0649 -0.6348
C12A C -0.1554(4) 0.0692(6) -0.4826(4)
H12A H -0.1432 -0.0228 -0.4653
N3A N -0.08554(19) 0.1912(4) -0.7120(3)
C13A C -0.0687(2) 0.1234(5) -0.7549(3)
H16A H -0.0782 0.1564 -0.8097
C14A C -0.0639(3) 0.1106(5) -0.6348(3)
H17A H -0.0688 0.1300 -0.5916
N4A N -0.0372(2) 0.0051(4) -0.7104(3)
N4D N -0.0372(2) -0.0051(4) -0.2104(3)
N4E N 0.0372(2) -0.0051(4) -0.2896(3)
C15A C -0.0338(3) -0.0039(5) -0.6345(4)
H18A H -0.0139 -0.0772 -0.5897
O4 O 0.0000 0.4545(4) 0.2500
H13 H 0.0273 0.4051 0.3024
H13A H -0.0273 0.4051 0.1976
O5 O 0.5122(2) 0.1503(3) 0.4614(3)
H14 H 0.4864 0.1461 0.4739
H15 H 0.5328 0.0733 0.4755
loop_
_geom_bond_atom_site_label_1
_geom_bond_atom_site_label_2
_geom_bond_site_symmetry_1
_geom_bond_site_symmetry_2
Zn1 O1 1_555 1_555
O1 H1 1_555 1_555
H2 O1 1_555 1_555
O2 C1 1_555 1_555
O3 C1 1_555 1_555
N1 C6 1_555 1_555
N2 Zn1 1_555 1_555
C1 C5 1_555 1_555
C2 H3 1_555 1_555
C3 C2 1_555 1_555
C4 H4 1_555 1_555
C5 C4 1_555 1_555
C6 N2 1_555 1_555
H5 C6 1_555 1_555
C7 C2 1_555 1_555
C8 C3 1_555 1_555
H6 C8 1_555 1_555
C9 N1 1_555 1_555
H7 C9 1_555 1_555
H8 C9 1_555 1_555
C10 C7 1_555 1_555
H9 C10 1_555 1_555
H10 C10 1_555 1_555
C11 N1 1_555 1_555
H11 C11 1_555 1_555
C12 N2 1_555 1_555
H12 C12 1_555 1_555
O4 H13 1_555 1_555
O5 H14 1_555 1_555
H15 O5 1_555 1_555
N3 C10 1_555 1_555
C13 N3 1_555 1_555
H16 C13 1_555 1_555
C14 N3 1_555 1_555
H17 C14 1_555 1_555
N4 C13 1_555 1_555
C15 C14 1_555 1_555
H18 C15 1_555 1_555
Zn1D N4A 1_555 1_555
Zn1D_2 N4 1_555 1_555
O1A Zn1 1_555 1_555
H1A O1A 1_555 1_555
H2A O1A 1_555 1_555
O2A C1A 1_555 1_555
O3A C1A 1_555 1_555
N1A C6A 1_555 1_555
N2A Zn1 1_555 1_555
C1A C5A 1_555 1_555
C2A H3A 1_555 1_555
C3A C2A 1_555 1_555
C4A H4A 1_555 1_555
C5A C4A 1_555 1_555
C6A N2A 1_555 1_555
H5A C6A 1_555 1_555
C7A C2A 1_555 1_555
C8A C3A 1_555 1_555
H6A C8A 1_555 1_555
C9A N1A 1_555 1_555
H7A C9A 1_555 1_555
H8A C9A 1_555 1_555
C10A C7A 1_555 1_555
H9A C10A 1_555 1_555
H10A C10A 1_555 1_555
C11A N1A 1_555 1_555
H11A C11A 1_555 1_555
C12A N2A 1_555 1_555
H12A C12A 1_555 1_555
H13A O4 1_555 1_555
N3A C10A 1_555 1_555
C13A N3A 1_555 1_555
H16A C13A 1_555 1_555
C14A N3A 1_555 1_555
H17A C14A 1_555 1_555
N4A C13A 1_555 1_555
N4D Zn1 1_555 1_555
N4E Zn1 1_555 1_555
C15A C14A 1_555 1_555
H18A C15A 1_555 1_555
C3 C9 1_555 1_555
C4 C7 1_555 1_555
C5 C8 1_555 1_555
C11 C12 1_555 1_555
N4 C15 1_555 1_555
C3A C9A 1_555 1_555
C4A C7A 1_555 1_555
C5A C8A 1_555 1_555
C11A C12A 1_555 1_555
N4A C15A 1_555 1_555

#END
