
#######################################################################
#
#                 Cambridge Crystallographic Data Centre
#                                CCDC 
#
#######################################################################
#
# If this CIF has been generated from an entry in the Cambridge 
# Structural Database, then it will include bibliographic, chemical, 
# crystal, experimental, refinement or atomic coordinate data resulting 
# from the CCDC's data processing and validation procedures.
#
#######################################################################

data_PARWUC
_symmetry_cell_setting           monoclinic
_symmetry_space_group_name_H-M   'P 21/c'
_symmetry_Int_Tables_number      14
_space_group_name_Hall           '-P 2ybc'
loop_
_symmetry_equiv_pos_site_id
_symmetry_equiv_pos_as_xyz
1 x,y,z
2 -x,1/2+y,1/2-z
3 -x,-y,-z
4 x,1/2-y,1/2+z
_cell_length_a                   12.5528(6)
_cell_length_b                   10.2544(4)
_cell_length_c                   15.8665(11)
_cell_angle_alpha                90
_cell_angle_beta                 120.961(4)
_cell_angle_gamma                90
_cell_volume                     1751.36
loop_
_atom_site_label
_atom_site_type_symbol
_atom_site_fract_x
_atom_site_fract_y
_atom_site_fract_z
C1 C -0.3698(3) 0.2598(3) 0.4648(2)
N1 N -0.3888(2) 0.7655(2) 0.36423(17)
Zn1 Zn -1.26295(3) 0.45229(3) 0.08106(2)
Cl1 Cl -1.29716(8) 0.52579(9) 0.20166(7)
O1 O -0.3894(2) 0.1817(2) 0.51744(16)
C2 C -0.4398(3) 0.4695(3) 0.37018(19)
H1 H -0.3666 0.4698 0.3689
C3 C -0.5758(3) 0.3654(3) 0.4136(2)
H2 H -0.5931 0.2962 0.4425
O2 O -0.2787(2) 0.2525(3) 0.45557(19)
N2 N -0.2918(2) 0.9066(2) 0.48375(19)
N3 N -1.0809(2) 0.4134(3) 0.15797(19)
N4 N -0.8876(2) 0.4266(2) 0.27961(18)
C4 C -0.6607(3) 0.4656(3) 0.3705(2)
C5 C -0.6330(3) 0.5693(3) 0.3280(2)
H3 H -0.6894 0.6374 0.2992
C6 C -0.5229(3) 0.5724(3) 0.32792(19)
C7 C -1.0014(3) 0.4722(3) 0.2409(3)
H4 H -1.0233 0.5386 0.2690
C8 C -0.4644(3) 0.3669(3) 0.41414(19)
C9 C -0.7788(3) 0.4652(4) 0.3737(2)
H5 H -0.7925 0.5518 0.3910
H6 H -0.7694 0.4055 0.4246
C10 C -0.4007(3) 0.8648(3) 0.4134(2)
H7 H -0.4764 0.8998 0.3996
C11 C -0.2639(3) 0.7409(4) 0.4072(3)
H8 H -0.2270 0.6763 0.3896
C12 C -0.4909(3) 0.6889(3) 0.2864(2)
H9 H -0.5637 0.7439 0.2508
H10 H -0.4673 0.6589 0.2403
C13 C -0.2053(3) 0.8292(3) 0.4803(3)
H11 H -0.1197 0.8362 0.5218
C14 C -0.8935(4) 0.3283(5) 0.2203(3)
H12 H -0.8283 0.2751 0.2298
C15 C -1.0122(3) 0.3223(4) 0.1450(3)
H13 H -1.0423 0.2647 0.0923
Zn1C Zn -0.26295(3) 0.04771(3) 0.58106(2)
Zn1C_2 Zn -0.26295(3) 1.04771(3) 0.58106(2)
O1C O -1.3894(2) 0.3183(2) 0.01744(16)
N2C N -1.2918(2) 0.5934(2) -0.01625(19)
O3 O 0.1258(5) -0.1932(6) 0.1233(4)
H14 H 0.1845 -0.1453 0.1652
H15 H 0.1885 -0.2116 0.1186
O4? O 0.9765(14) -0.5216(16) 0.5370(11)
H16? H 0.9384 -0.5673 0.4850
H17? H 0.9609 -0.4414 0.5225
loop_
_geom_bond_atom_site_label_1
_geom_bond_atom_site_label_2
_geom_bond_site_symmetry_1
_geom_bond_site_symmetry_2
C1 O1 1_555 1_555
N1 C10 1_555 1_555
Zn1 Cl1 1_555 1_555
O1 Zn1C 1_555 1_555
C2 H1 1_555 1_555
C3 H2 1_555 1_555
O2 C1 1_555 1_555
N2 C10 1_555 1_555
N3 Zn1 1_555 1_555
N4 C7 1_555 1_555
C4 C3 1_555 1_555
C5 C4 1_555 1_555
H3 C5 1_555 1_555
C6 C2 1_555 1_555
C7 N3 1_555 1_555
H4 C7 1_555 1_555
C8 C1 1_555 1_555
C9 N4 1_555 1_555
H5 C9 1_555 1_555
H6 C9 1_555 1_555
C10 H7 1_555 1_555
C11 N1 1_555 1_555
H8 C11 1_555 1_555
C12 N1 1_555 1_555
H9 C12 1_555 1_555
H10 C12 1_555 1_555
C13 N2 1_555 1_555
H11 C13 1_555 1_555
C14 N4 1_555 1_555
H12 C14 1_555 1_555
C15 N3 1_555 1_555
H13 C15 1_555 1_555
O3 H14 1_555 1_555
H15 O3 1_555 1_555
Zn1C_2 N2 1_555 1_555
O1C Zn1 1_555 1_555
N2C Zn1 1_555 1_555
C2 C8 1_555 1_555
C3 C8 1_555 1_555
C4 C9 1_555 1_555
C5 C6 1_555 1_555
C6 C12 1_555 1_555
C11 C13 1_555 1_555
C14 C15 1_555 1_555

#END
