
#######################################################################
#
#                 Cambridge Crystallographic Data Centre
#                                CCDC 
#
#######################################################################
#
# If this CIF has been generated from an entry in the Cambridge 
# Structural Database, then it will include bibliographic, chemical, 
# crystal, experimental, refinement or atomic coordinate data resulting 
# from the CCDC's data processing and validation procedures.
#
#######################################################################

data_PASBOA
_symmetry_cell_setting           monoclinic
_symmetry_space_group_name_H-M   'C 2/c'
_symmetry_Int_Tables_number      15
_space_group_name_Hall           '-C 2yn'
loop_
_symmetry_equiv_pos_site_id
_symmetry_equiv_pos_as_xyz
1 x,y,z
2 1/2+x,1/2+y,z
3 -x,y,1/2-z
4 1/2-x,1/2+y,1/2-z
5 -x,-y,-z
6 1/2-x,1/2-y,-z
7 x,-y,1/2+z
8 1/2+x,1/2-y,1/2+z
_cell_length_a                   19.958(6)
_cell_length_b                   9.103(2)
_cell_length_c                   13.180(1)
_cell_angle_alpha                90
_cell_angle_beta                 120.00(2)
_cell_angle_gamma                90
_cell_volume                     2073.71
loop_
_atom_site_label
_atom_site_type_symbol
_atom_site_fract_x
_atom_site_fract_y
_atom_site_fract_z
Cu1 Cu 0.0000 0.0000 0.0000
Cu2 Cu 0.0000 0.1081(1) -0.2500
N1 N -0.0268(2) -0.0406(3) -0.1640(3)
N2 N -0.0591(2) -0.1552(4) -0.2094(3)
N3 N -0.0905(3) -0.2632(5) -0.2521(4)
N4 N 0.1643(2) 0.0831(4) 0.0121(3)
O1 O 0.1244(2) 0.1110(4) 0.0583(3)
O2 O 0.1347(2) 0.0790(7) -0.0946(3)
O3 O 0.2341(2) 0.0585(5) 0.0734(3)
O4 O -0.0541(2) 0.1957(3) -0.0450(2)
O5 O -0.0423(2) 0.2689(3) -0.1986(3)
C1 C -0.0696(2) 0.2765(4) -0.1309(3)
C2 C -0.1276(3) 0.4020(5) -0.1663(3)
N5 N -0.1599(2) 0.4417(3) -0.0880(3)
C3 C -0.0975(3) 0.4988(5) 0.0279(4)
C4 C -0.2011(3) 0.3165(5) -0.0705(5)
C5 C -0.2173(3) 0.5647(5) -0.1479(4)
H1 H -0.1708 0.3766 -0.2414
H2 H -0.1030 0.4895 -0.1737
H3 H -0.0601 0.4220 0.0680
H4 H -0.1199 0.5286 0.0745
H5 H -0.0727 0.5824 0.0155
H6 H -0.1656 0.2364 -0.0322
H7 H -0.2423 0.2834 -0.1450
H8 H -0.2222 0.3486 -0.0228
H9 H -0.1920 0.6474 -0.1604
H10 H -0.2383 0.5953 -0.0997
H11 H -0.2584 0.5300 -0.2220
N1D N 0.0268(2) 0.0406(3) 0.1640(3)
N2D N 0.0591(2) 0.1552(4) 0.2094(3)
N3D N 0.0905(3) 0.2632(5) 0.2521(4)
N4D N -0.1643(2) -0.0831(4) -0.0121(3)
O1D O -0.1244(2) -0.1110(4) -0.0583(3)
O2D O -0.1347(2) -0.0790(7) 0.0946(3)
O3D O -0.2341(2) -0.0585(5) -0.0734(3)
O4D O 0.0541(2) -0.1957(3) 0.0450(2)
O5D O 0.0423(2) -0.2689(3) 0.1986(3)
C1D C 0.0696(2) -0.2765(4) 0.1309(3)
C2D C 0.1276(3) -0.4020(5) 0.1663(3)
N5D N 0.1599(2) -0.4417(3) 0.0880(3)
C3D C 0.0975(3) -0.4988(5) -0.0279(4)
C4D C 0.2011(3) -0.3165(5) 0.0705(5)
C5D C 0.2173(3) -0.5647(5) 0.1479(4)
H1D H 0.1708 -0.3766 0.2414
H2D H 0.1030 -0.4895 0.1737
H3D H 0.0601 -0.4220 -0.0680
H4D H 0.1199 -0.5286 -0.0745
H5D H 0.0727 -0.5824 -0.0155
H6D H 0.1656 -0.2364 0.0322
H7D H 0.2423 -0.2834 0.1450
H8D H 0.2222 -0.3486 0.0228
H9D H 0.1920 -0.6474 0.1604
H10D H 0.2383 -0.5953 0.0997
H11D H 0.2584 -0.5300 0.2220
N1B N 0.0268(2) -0.0406(3) -0.3360(3)
O2B O -0.1347(2) 0.0790(7) -0.4054(3)
O5B O 0.0423(2) 0.2689(3) -0.3014(3)
Cu2D Cu 0.0000 -0.1081(1) 0.2500
loop_
_geom_bond_atom_site_label_1
_geom_bond_atom_site_label_2
_geom_bond_site_symmetry_1
_geom_bond_site_symmetry_2
Cu1 N1 1_555 1_555
Cu2 N1 1_555 1_555
N1 N2 1_555 1_555
N2 N3 1_555 1_555
N4 O1 1_555 1_555
O1 Cu1 1_555 1_555
O2 Cu2 1_555 1_555
O3 N4 1_555 1_555
O4 Cu1 1_555 1_555
O5 Cu2 1_555 1_555
C1 O4 1_555 1_555
C2 C1 1_555 1_555
N5 C2 1_555 1_555
C3 N5 1_555 1_555
C4 N5 1_555 1_555
C5 N5 1_555 1_555
H1 C2 1_555 1_555
H2 C2 1_555 1_555
H3 C3 1_555 1_555
H4 C3 1_555 1_555
H5 C3 1_555 1_555
H6 C4 1_555 1_555
H7 C4 1_555 1_555
H8 C4 1_555 1_555
H9 C5 1_555 1_555
H10 C5 1_555 1_555
H11 C5 1_555 1_555
N1D Cu1 1_555 1_555
N2D N1D 1_555 1_555
N3D N2D 1_555 1_555
N4D O1D 1_555 1_555
O1D Cu1 1_555 1_555
O2D N4D 1_555 1_555
O3D N4D 1_555 1_555
O4D Cu1 1_555 1_555
O5D C1D 1_555 1_555
C1D O4D 1_555 1_555
C2D C1D 1_555 1_555
N5D C2D 1_555 1_555
C3D N5D 1_555 1_555
C4D N5D 1_555 1_555
C5D N5D 1_555 1_555
H1D C2D 1_555 1_555
H2D C2D 1_555 1_555
H3D C3D 1_555 1_555
H4D C3D 1_555 1_555
H5D C3D 1_555 1_555
H6D C4D 1_555 1_555
H7D C4D 1_555 1_555
H8D C4D 1_555 1_555
H9D C5D 1_555 1_555
H10D C5D 1_555 1_555
H11D C5D 1_555 1_555
N1B Cu2 1_555 1_555
O2B Cu2 1_555 1_555
O5B Cu2 1_555 1_555
Cu2D N1D 1_555 1_555
N4 O2 1_555 1_555
O5 C1 1_555 1_555
O2D Cu2D 1_555 1_555
O5D Cu2D 1_555 1_555

#END
