
#######################################################################
#
#                 Cambridge Crystallographic Data Centre
#                                CCDC 
#
#######################################################################
#
# If this CIF has been generated from an entry in the Cambridge 
# Structural Database, then it will include bibliographic, chemical, 
# crystal, experimental, refinement or atomic coordinate data resulting 
# from the CCDC's data processing and validation procedures.
#
#######################################################################

data_PASCAP
_symmetry_cell_setting           monoclinic
_symmetry_space_group_name_H-M   'P 21/c'
_symmetry_Int_Tables_number      14
_space_group_name_Hall           '-P 2ybc'
loop_
_symmetry_equiv_pos_site_id
_symmetry_equiv_pos_as_xyz
1 x,y,z
2 -x,1/2+y,1/2-z
3 -x,-y,-z
4 x,1/2-y,1/2+z
_cell_length_a                   13.164(3)
_cell_length_b                   15.320(3)
_cell_length_c                   16.399(3)
_cell_angle_alpha                90
_cell_angle_beta                 105.41(3)
_cell_angle_gamma                90
_cell_volume                     3188.33
loop_
_atom_site_label
_atom_site_type_symbol
_atom_site_fract_x
_atom_site_fract_y
_atom_site_fract_z
W1 W 0.37193(3) 1.29449(3) -0.05279(3)
Cu1 Cu 0.16707(12) 1.26010(12) -0.11508(11)
S1 S 0.2778(2) 1.29437(19) -0.19303(19)
N1 N 0.4316(7) 1.1618(6) -0.0769(6)
B1 B 0.6208(11) 1.2077(9) -0.0107(9)
C1 C 0.6603(10) 1.0205(10) -0.0717(9)
H1 H 0.6982 1.0532 -0.1049
H2 H 0.6525 0.9604 -0.0909
H3 H 0.6994 1.0222 -0.0125
Cu2 Cu 0.26127(13) 1.42494(10) -0.13788(10)
S2 S 0.3736(2) 1.43842(18) -0.0114(2)
N2 N 0.5366(8) 1.1433(6) -0.0592(6)
C2 C 0.5516(10) 1.0610(7) -0.0822(7)
Cu3 Cu 0.24563(12) 1.36913(10) 0.02763(11)
S3 S 0.2620(2) 1.22511(19) 0.0153(2)
N3 N 0.5165(7) 1.3328(6) -0.0987(6)
C3 C 0.4546(10) 1.0252(8) -0.1172(7)
H4 H 0.4407 0.9682 -0.1385
N4 N 0.6109(7) 1.2918(6) -0.0640(6)
C4 C 0.3803(9) 1.0897(7) -0.1152(7)
N5 N 0.4984(7) 1.2739(6) 0.0711(5)
C5 C 0.2664(10) 1.0770(8) -0.1493(8)
H5 H 0.2311 1.0902 -0.1058
H6 H 0.2525 1.0168 -0.1673
H7 H 0.2403 1.1155 -0.1972
N6 N 0.5940(7) 1.2336(7) 0.0717(6)
C6 C 0.8023(9) 1.3082(9) -0.0600(10)
H8 H 0.8458 1.3521 -0.0768
H9 H 0.8117 1.2527 -0.0854
H10 H 0.8227 1.3025 0.0011
C7 C 0.6897(10) 1.3348(8) -0.0889(7)
N7 N 0.0833(11) 1.3947(8) -0.1093(9)
N8 N -0.0514(13) 1.5019(12) -0.1643(10)
C8 C 0.6436(9) 1.4014(7) -0.1410(8)
H11 H 0.6780 1.4422 -0.1672
C9 C 0.5345(10) 1.3975(8) -0.1480(7)
N9 N -0.1635(8) 1.5780(7) -0.0934(7)
N10 N -0.2090(9) 1.0201(8) -0.2904(9)
C10 C 0.4542(11) 1.4574(9) -0.1995(9)
H12 H 0.3995 1.4237 -0.2379
H13 H 0.4872 1.4961 -0.2317
H14 H 0.4233 1.4917 -0.1625
N11 N -0.1376(10) 1.1326(8) -0.1864(9)
C11 C 0.7637(11) 1.1923(10) 0.1719(9)
H15 H 0.7641 1.1407 0.1376
H16 H 0.7855 1.1765 0.2313
H17 H 0.8122 1.2352 0.1601
C12 C 0.6567(9) 1.2292(8) 0.1514(8)
N12 N 0.0382(9) 1.2010(8) -0.1570(9)
C13 C 0.5989(11) 1.2659(9) 0.2028(8)
H18 H 0.6213 1.2710 0.2620
C14 C 0.5052(9) 1.2926(7) 0.1530(7)
C15 C 0.4201(11) 1.3305(10) 0.1839(8)
H19 H 0.3575 1.2945 0.1658
H20 H 0.4047 1.3889 0.1613
H21 H 0.4418 1.3331 0.2452
C16 C 0.0243(13) 1.4432(11) -0.1295(10)
C17 C -0.1092(12) 1.5429(12) -0.1219(10)
C18 C -0.1713(10) 1.0703(9) -0.2453(9)
C19 C -0.0405(11) 1.1666(8) -0.1721(9)
H24 H 0.694(10) 1.178(8) 0.001(7)
Cu2A Cu -0.26127(13) 0.92494(10) -0.36212(10)
Cu3B Cu -0.24563(12) 1.63087(10) -0.02763(11)
N9B N 0.1635(8) 1.4220(7) 0.0934(7)
N10A N 0.2090(9) 1.5201(8) -0.2096(9)
Cl1 Cl -0.0336(7) 1.7788(7) -0.1123(8)
Cl2 Cl 0.0489(9) 1.9531(7) -0.0928(10)
C20 C -0.055(2) 1.872(3) -0.107(3)
H22 H -0.0878 1.8792 -0.0604
H23 H -0.1088 1.8872 -0.1591
loop_
_geom_bond_atom_site_label_1
_geom_bond_atom_site_label_2
_geom_bond_site_symmetry_1
_geom_bond_site_symmetry_2
W1 S1 1_555 1_555
Cu1 S1 1_555 1_555
S1 Cu2 1_555 1_555
N1 W1 1_555 1_555
B1 N2 1_555 1_555
C1 H1 1_555 1_555
H2 C1 1_555 1_555
H3 C1 1_555 1_555
Cu2 S2 1_555 1_555
S2 W1 1_555 1_555
N2 N1 1_555 1_555
C2 C1 1_555 1_555
Cu3 S2 1_555 1_555
S3 W1 1_555 1_555
N3 W1 1_555 1_555
C3 C2 1_555 1_555
H4 C3 1_555 1_555
N4 B1 1_555 1_555
C4 N1 1_555 1_555
N5 W1 1_555 1_555
C5 C4 1_555 1_555
H5 C5 1_555 1_555
H6 C5 1_555 1_555
H7 C5 1_555 1_555
N6 B1 1_555 1_555
C6 H8 1_555 1_555
H9 C6 1_555 1_555
H10 C6 1_555 1_555
C7 N4 1_555 1_555
N7 Cu1 1_555 1_555
N8 C16 1_555 1_555
C8 C7 1_555 1_555
H11 C8 1_555 1_555
C9 N3 1_555 1_555
N9 C17 1_555 1_555
N10 C18 1_555 1_555
C10 C9 1_555 1_555
H12 C10 1_555 1_555
H13 C10 1_555 1_555
H14 C10 1_555 1_555
N11 C18 1_555 1_555
C11 H15 1_555 1_555
H16 C11 1_555 1_555
H17 C11 1_555 1_555
C12 N6 1_555 1_555
N12 Cu1 1_555 1_555
C13 C12 1_555 1_555
H18 C13 1_555 1_555
C14 N5 1_555 1_555
C15 C14 1_555 1_555
H19 C15 1_555 1_555
H20 C15 1_555 1_555
H21 C15 1_555 1_555
C16 N7 1_555 1_555
C17 N8 1_555 1_555
C19 N11 1_555 1_555
Cl1 C20 1_555 1_555
Cl2 C20 1_555 1_555
C20 H22 1_555 1_555
H23 C20 1_555 1_555
H24 B1 1_555 1_555
Cu2A N10 1_555 1_555
Cu3B N9 1_555 1_555
N9B Cu3 1_555 1_555
N10A Cu2 1_555 1_555
Cu1 S3 1_555 1_555
N2 C2 1_555 1_555
Cu3 S3 1_555 1_555
N3 N4 1_555 1_555
C3 C4 1_555 1_555
N5 N6 1_555 1_555
C6 C7 1_555 1_555
C8 C9 1_555 1_555
C11 C12 1_555 1_555
N12 C19 1_555 1_555
C13 C14 1_555 1_555

#END
