
#######################################################################
#
#                 Cambridge Crystallographic Data Centre
#                                CCDC 
#
#######################################################################
#
# If this CIF has been generated from an entry in the Cambridge 
# Structural Database, then it will include bibliographic, chemical, 
# crystal, experimental, refinement or atomic coordinate data resulting 
# from the CCDC's data processing and validation procedures.
#
#######################################################################

data_PASDOE
_symmetry_cell_setting           monoclinic
_symmetry_space_group_name_H-M   'P 21/n'
_symmetry_Int_Tables_number      14
_space_group_name_Hall           '-P 2yn'
loop_
_symmetry_equiv_pos_site_id
_symmetry_equiv_pos_as_xyz
1 x,y,z
2 1/2-x,1/2+y,1/2-z
3 -x,-y,-z
4 1/2+x,1/2-y,1/2+z
_cell_length_a                   9.7414(11)
_cell_length_b                   16.0486(18)
_cell_length_c                   11.0596(12)
_cell_angle_alpha                90
_cell_angle_beta                 95.4460(10)
_cell_angle_gamma                90
_cell_volume                     1721.21
loop_
_atom_site_label
_atom_site_type_symbol
_atom_site_fract_x
_atom_site_fract_y
_atom_site_fract_z
Zn1 Zn 0.65794(4) 0.41742(2) -0.08300(3)
C1 C 0.6684(4) 0.2045(2) 0.1288(3)
C2 C 0.5329(4) 0.1954(2) 0.1557(3)
H1 H 0.4644 0.2326 0.1205
C3 C 0.4958(3) 0.1329(2) 0.2331(3)
C4 C 0.5964(3) 0.0775(2) 0.2822(3)
H2 H 0.5716 0.0340 0.3342
C5 C 0.7334(3) 0.0853(2) 0.2558(3)
C6 C 0.7686(4) 0.1494(2) 0.1802(3)
H3 H 0.8618 0.1559 0.1634
C7 C 0.7086(4) 0.2757(2) 0.0508(3)
O1 O 0.8310(3) 0.29599(16) 0.0497(2)
O2 O 0.6081(2) 0.31211(14) -0.0108(2)
C8 C 0.3515(3) 0.1279(2) 0.2697(3)
O3 O 0.3257(2) 0.06594(14) 0.3364(2)
O4 O 0.2674(2) 0.18351(16) 0.2370(2)
P1 P 0.86118(9) 0.01479(6) 0.32493(7)
O5 O 0.9995(2) 0.05024(15) 0.30541(19)
O6 O 0.8270(2) -0.00003(15) 0.4519(2)
O7 O 0.8400(3) -0.07086(15) 0.2542(2)
C9 C 0.8795(4) -0.0783(3) 0.1297(3)
C10 C 0.7729(7) -0.1340(5) 0.0659(5)
H6 H 0.7665 -0.1856 0.1124
H7 H 0.7989 -0.1472 -0.0154
H8 H 0.6833 -0.1057 0.0589
C11 C 1.0220(6) -0.1149(4) 0.1342(5)
H9 H 1.0872 -0.0783 0.1816
H10 H 1.0491 -0.1203 0.0515
H11 H 1.0225 -0.1700 0.1725
H18 H 0.875(5) -0.025(3) 0.087(4)
Zn1A Zn 0.84206(4) -0.08258(2) 0.58300(3)
Zn1C Zn 0.15794(4) 0.08258(2) 0.41700(3)
Zn1C_2 Zn 1.15794(4) 0.08258(2) 0.41700(3)
O3C O 0.8257(2) 0.43406(14) -0.1636(2)
O5C O 0.4995(2) 0.44976(15) -0.19459(19)
O6A O 0.6730(2) 0.49997(15) 0.0481(2)
H4 H 0.002(5) 0.295(3) 0.143(4)
H5 H 0.129(5) 0.263(3) 0.192(4)
N1 N 0.0820(4) 0.3080(2) 0.1773(3)
C12 C 0.1559(5) 0.3591(3) 0.0922(4)
H12 H 0.2495 0.3709 0.1287
H13 H 0.1063 0.4116 0.0756
H14 H 0.1606 0.3285 0.0160
C13 C 0.0648(6) 0.3507(3) 0.2925(4)
H15 H 0.0063 0.4000 0.2766
H16 H 0.1552 0.3679 0.3307
H17 H 0.0213 0.3128 0.3469
loop_
_geom_bond_atom_site_label_1
_geom_bond_atom_site_label_2
_geom_bond_site_symmetry_1
_geom_bond_site_symmetry_2
Zn1 O2 1_555 1_555
C1 C2 1_555 1_555
C2 H1 1_555 1_555
C3 C2 1_555 1_555
C4 C3 1_555 1_555
H2 C4 1_555 1_555
C5 C4 1_555 1_555
C6 C1 1_555 1_555
H3 C6 1_555 1_555
C7 C1 1_555 1_555
O1 C7 1_555 1_555
O2 C7 1_555 1_555
C8 C3 1_555 1_555
O3 C8 1_555 1_555
O4 C8 1_555 1_555
P1 C5 1_555 1_555
O5 P1 1_555 1_555
O6 P1 1_555 1_555
O7 P1 1_555 1_555
C9 O7 1_555 1_555
H4 N1 1_555 1_555
H5 N1 1_555 1_555
C10 C9 1_555 1_555
H6 C10 1_555 1_555
H7 C10 1_555 1_555
H8 C10 1_555 1_555
C11 C9 1_555 1_555
H9 C11 1_555 1_555
H10 C11 1_555 1_555
H11 C11 1_555 1_555
N1 C12 1_555 1_555
C12 H12 1_555 1_555
H13 C12 1_555 1_555
H14 C12 1_555 1_555
C13 N1 1_555 1_555
H15 C13 1_555 1_555
H16 C13 1_555 1_555
H17 C13 1_555 1_555
H18 C9 1_555 1_555
Zn1A O6 1_555 1_555
Zn1C O3 1_555 1_555
Zn1C_2 O5 1_555 1_555
O3C Zn1 1_555 1_555
O5C Zn1 1_555 1_555
O6A Zn1 1_555 1_555
C5 C6 1_555 1_555

#END
