
#######################################################################
#
#                 Cambridge Crystallographic Data Centre
#                                CCDC 
#
#######################################################################
#
# If this CIF has been generated from an entry in the Cambridge 
# Structural Database, then it will include bibliographic, chemical, 
# crystal, experimental, refinement or atomic coordinate data resulting 
# from the CCDC's data processing and validation procedures.
#
#######################################################################

data_PASDEU
_symmetry_cell_setting           triclinic
_symmetry_space_group_name_H-M   'P -1'
_symmetry_Int_Tables_number      2
_space_group_name_Hall           '-P 1'
loop_
_symmetry_equiv_pos_site_id
_symmetry_equiv_pos_as_xyz
1 x,y,z
2 -x,-y,-z
_cell_length_a                   9.5545(12)
_cell_length_b                   10.3457(13)
_cell_length_c                   13.7876(17)
_cell_angle_alpha                81.6150(10)
_cell_angle_beta                 82.8130(10)
_cell_angle_gamma                70.7230(10)
_cell_volume                     1268.38
loop_
_atom_site_label
_atom_site_type_symbol
_atom_site_fract_x
_atom_site_fract_y
_atom_site_fract_z
H10 H 0.401(8) 0.127(7) 0.086(5)
H11 H 0.481(14) 0.066(10) 0.008(10)
O11 O 0.4614(5) 0.1180(4) 0.0468(4)
Zn1 Zn -1.23805(6) 0.55597(6) -0.13999(5)
O1 O -1.4237(4) 0.6740(4) -0.1911(3)
C1 C -1.5362(5) 0.6324(5) -0.1693(3)
O2 O -1.5302(4) 0.5174(3) -0.1262(3)
C2 C -1.6830(5) 0.7341(5) -0.1981(3)
C3 C -1.8131(5) 0.6999(5) -0.1783(3)
H1 H -1.812(6) 0.616(5) -0.157(4)
O3 O -2.0741(3) 0.6319(3) -0.1639(3)
C4 C -2.0914(5) 0.7604(5) -0.1762(3)
O4 O -2.2106(4) 0.8558(4) -0.1694(3)
C5 C -1.9499(5) 0.7967(5) -0.2006(3)
C6 C -1.9542(6) 0.9292(5) -0.2427(3)
H2 H -2.049(6) 0.997(6) -0.255(4)
P1 P -1.82869(18) 1.12810(13) -0.32718(10)
O5 O -1.7162(8) 1.1002(7) -0.4226(5)
O6 O -1.7044(8) 1.1577(7) -0.2590(6)
C7 C -1.8234(5) 0.9619(5) -0.2659(3)
C8 C -1.6878(5) 0.8651(5) -0.2428(3)
H3 H -1.594(6) 0.890(5) -0.256(4)
C9 C -1.7783(18) 1.0970(16) -0.5145(12)
C10 C -1.752(3) 0.941(3) -0.5234(19)
C11 C -1.673(2) 1.1452(18) -0.5965(13)
C12 C -1.709(2) 1.3892(18) -0.2790(13)
O7 O -1.9642(11) 1.2249(9) -0.3317(7)
N1 N -1.1542(4) 0.3535(4) -0.0879(3)
C13 C -1.2369(6) 0.2694(5) -0.0716(5)
H4 H -1.341(7) 0.310(6) -0.085(4)
C14 C -1.1806(6) 0.1312(5) -0.0388(5)
H5 H -1.247(7) 0.088(7) -0.023(5)
C15 C -1.0317(5) 0.0742(4) -0.0191(3)
C16 C -0.9465(5) 0.1612(5) -0.0373(4)
H6 H -0.842(6) 0.134(5) -0.025(4)
C17 C -1.0093(5) 0.2988(5) -0.0699(4)
H7 H -0.952(6) 0.358(5) -0.083(4)
O8 O -1.2992(4) 0.6115(4) 0.0074(3)
O9 O -1.1830(6) 0.4800(5) -0.2873(4)
H8 H -1.350(6) 0.683(6) 0.004(4)
H9 H -1.344(6) 0.562(6) 0.039(4)
C18 C -1.6146(13) 1.2497(11) -0.2977(9)
C22 C -1.4883(19) 1.2058(17) -0.2368(12)
Zn1_2 Zn -0.23805(6) 0.55597(6) -0.13999(5)
Zn1_3 Zn -2.23805(6) 0.55597(6) -0.13999(5)
Zn1A Zn -0.76195(6) -0.55597(6) 0.13999(5)
O1_2 O -0.4237(4) 0.6740(4) -0.1911(3)
C1_2 C -0.5362(5) 0.6324(5) -0.1693(3)
O2_2 O -0.5302(4) 0.5174(3) -0.1262(3)
C2_2 C -0.6830(5) 0.7341(5) -0.1981(3)
C3_2 C -0.8131(5) 0.6999(5) -0.1783(3)
H1_2 H -0.812(6) 0.616(5) -0.157(4)
O3_2 O -1.0741(3) 0.6319(3) -0.1639(3)
O3_3 O -0.0741(3) 0.6319(3) -0.1639(3)
C4_2 C -1.0914(5) 0.7604(5) -0.1762(3)
O4_2 O -1.2106(4) 0.8558(4) -0.1694(3)
C5_2 C -0.9499(5) 0.7967(5) -0.2006(3)
C6_2 C -0.9542(6) 0.9292(5) -0.2427(3)
H2_2 H -1.049(6) 0.997(6) -0.255(4)
P1_2 P -0.82869(18) 1.12810(13) -0.32718(10)
O5_2 O -0.7162(8) 1.1002(7) -0.4226(5)
O6_2 O -0.7044(8) 1.1577(7) -0.2590(6)
C7_2 C -0.8234(5) 0.9619(5) -0.2659(3)
C8_2 C -0.6878(5) 0.8651(5) -0.2428(3)
H3_2 H -0.594(6) 0.890(5) -0.256(4)
C9_2 C -0.7783(18) 1.0970(16) -0.5145(12)
C10_2 C -0.752(3) 0.941(3) -0.5234(19)
C11_2 C -0.673(2) 1.1452(18) -0.5965(13)
C12_2 C -0.709(2) 1.3892(18) -0.2790(13)
O7_2 O -0.9642(11) 1.2249(9) -0.3317(7)
N1A N -0.8458(4) -0.3535(4) 0.0879(3)
N1_2 N -0.1542(4) 0.3535(4) -0.0879(3)
C13A C -0.7631(6) -0.2694(5) 0.0716(5)
H4A H -0.659(7) -0.310(6) 0.085(4)
C14A C -0.8194(6) -0.1312(5) 0.0388(5)
H5A H -0.753(7) -0.088(7) 0.023(5)
C15A C -0.9683(5) -0.0742(4) 0.0191(3)
C16A C -1.0535(5) -0.1612(5) 0.0373(4)
H6A H -1.158(6) -0.134(5) 0.025(4)
C17A C -0.9907(5) -0.2988(5) 0.0699(4)
H7A H -1.048(6) -0.358(5) 0.083(4)
O8_2 O -0.2992(4) 0.6115(4) 0.0074(3)
O9_2 O -0.1830(6) 0.4800(5) -0.2873(4)
H8_2 H -0.350(6) 0.683(6) 0.004(4)
H9_2 H -0.344(6) 0.562(6) 0.039(4)
C18_2 C -0.6146(13) 1.2497(11) -0.2977(9)
C22_2 C -0.4883(19) 1.2058(17) -0.2368(12)
O10? O 0.088(3) 0.503(2) 0.341(2)
O12? O 0.003(3) 0.525(3) 0.4681(19)
N2? N 0.3884(10) 0.6216(10) 0.5070(7)
O13? O 0.6104(13) 0.5328(13) 0.5721(8)
C19? C 0.4925(14) 0.6250(14) 0.5613(9)
C20? C 0.406(2) 0.503(2) 0.4576(14)
H12? H 0.3972 0.5308 0.3885
H13? H 0.5026 0.4370 0.4673
H14? H 0.3307 0.4622 0.4841
C21? C 0.2444(14) 0.7300(15) 0.5028(11)
H15? H 0.2487 0.8085 0.5304
H16? H 0.2209 0.7562 0.4356
H17? H 0.1690 0.6964 0.5398
C23? C 0.6588(14) -0.2330(12) 0.2599(9)
C24? C 0.4831(18) -0.1762(16) 0.2539(11)
C25? C 0.7201(18) -0.1436(15) 0.5990(11)
C26? C 0.9857(14) -0.2868(12) 0.5600(9)
C27? C 0.8319(12) -0.2152(10) 0.5244(8)
C28? C 0.719(2) -0.3935(19) 0.3000(14)
O14? O 0.8453(8) -0.1084(7) 0.4425(5)
O15? O 0.9717(8) -0.2403(7) 0.2931(6)
O16? O 0.6894(8) -0.1541(6) 0.3309(5)
loop_
_geom_bond_atom_site_label_1
_geom_bond_atom_site_label_2
_geom_bond_site_symmetry_1
_geom_bond_site_symmetry_2
Zn1 O1 1_555 1_555
O1 C1 1_555 1_555
C1 O2 1_555 1_555
C2 C1 1_555 1_555
C3 C2 1_555 1_555
H1 C3 1_555 1_555
O3 C4 1_555 1_555
C4 O4 1_555 1_555
C5 C3 1_555 1_555
C6 C5 1_555 1_555
H2 C6 1_555 1_555
P1 O5 1_555 1_555
O5 C9 1_555 1_555
O6 P1 1_555 1_555
C7 C6 1_555 1_555
C8 C2 1_555 1_555
H3 C8 1_555 1_555
C9 C10 1_555 1_555
C11 C9 1_555 1_555
C12 C18 1_555 1_555
O7 P1 1_555 1_555
N1 Zn1 1_555 1_555
C13 N1 1_555 1_555
H4 C13 1_555 1_555
C14 C13 1_555 1_555
H5 C14 1_555 1_555
C15 C14 1_555 1_555
C16 C15 1_555 1_555
H6 C16 1_555 1_555
C17 N1 1_555 1_555
H7 C17 1_555 1_555
O8 Zn1 1_555 1_555
O9 Zn1 1_555 1_555
H8 O8 1_555 1_555
H9 O8 1_555 1_555
H10 O11 1_555 1_555
H11 O11 1_555 1_555
C18 O6 1_555 1_555
C22 C18 1_555 1_555
Zn1_2 O1_2 1_555 1_555
Zn1_3 O3 1_555 1_555
Zn1A N1A 1_555 1_555
O1_2 C1_2 1_555 1_555
C1_2 O2_2 1_555 1_555
C2_2 C1_2 1_555 1_555
C3_2 C2_2 1_555 1_555
H1_2 C3_2 1_555 1_555
O3_2 Zn1 1_555 1_555
O3_3 Zn1_2 1_555 1_555
C4_2 O3_2 1_555 1_555
O4_2 C4_2 1_555 1_555
C5_2 C3_2 1_555 1_555
C6_2 C5_2 1_555 1_555
H2_2 C6_2 1_555 1_555
P1_2 O5_2 1_555 1_555
O5_2 C9_2 1_555 1_555
O6_2 P1_2 1_555 1_555
C7_2 C6_2 1_555 1_555
C8_2 C2_2 1_555 1_555
H3_2 C8_2 1_555 1_555
C9_2 C10_2 1_555 1_555
C11_2 C9_2 1_555 1_555
C12_2 C18_2 1_555 1_555
O7_2 P1_2 1_555 1_555
N1A C13A 1_555 1_555
N1_2 Zn1_2 1_555 1_555
C13A H4A 1_555 1_555
C14A C13A 1_555 1_555
H5A C14A 1_555 1_555
C15A C15 1_555 1_555
C16A C15A 1_555 1_555
H6A C16A 1_555 1_555
C17A N1A 1_555 1_555
H7A C17A 1_555 1_555
O8_2 Zn1_2 1_555 1_555
O9_2 Zn1_2 1_555 1_555
H8_2 O8_2 1_555 1_555
H9_2 O8_2 1_555 1_555
C18_2 O6_2 1_555 1_555
C22_2 C18_2 1_555 1_555
C4 C5 1_555 1_555
P1 C7 1_555 1_555
C7 C8 1_555 1_555
C16 C17 1_555 1_555
C4_2 C5_2 1_555 1_555
P1_2 C7_2 1_555 1_555
C7_2 C8_2 1_555 1_555
C14A C15A 1_555 1_555
C16A C17A 1_555 1_555

#END
