
#######################################################################
#
#                 Cambridge Crystallographic Data Centre
#                                CCDC 
#
#######################################################################
#
# If this CIF has been generated from an entry in the Cambridge 
# Structural Database, then it will include bibliographic, chemical, 
# crystal, experimental, refinement or atomic coordinate data resulting 
# from the CCDC's data processing and validation procedures.
#
#######################################################################

data_PASFOG
_symmetry_cell_setting           triclinic
_symmetry_space_group_name_H-M   'P -1'
_symmetry_Int_Tables_number      2
_space_group_name_Hall           '-P 1'
loop_
_symmetry_equiv_pos_site_id
_symmetry_equiv_pos_as_xyz
1 x,y,z
2 -x,-y,-z
_cell_length_a                   11.1502(3)
_cell_length_b                   13.5449(2)
_cell_length_c                   14.6921(2)
_cell_angle_alpha                113.8080(10)
_cell_angle_beta                 101.5050(10)
_cell_angle_gamma                100.2380(10)
_cell_volume                     1904.99
loop_
_atom_site_label
_atom_site_type_symbol
_atom_site_fract_x
_atom_site_fract_y
_atom_site_fract_z
C1 C 0.6711(4) 0.3796(3) -0.0783(3)
H1 H 0.7123 0.3971 -0.1228
C2 C 0.6956(8) 0.2997(6) -0.0546(6)
H2 H 0.7340 0.2473 -0.0944
C3 C 0.6630(6) 0.2943(5) 0.0323(5)
H3 H 0.6941 0.2477 0.0594
C4 C 0.5873(5) 0.3555(5) 0.0772(4)
H4 H 0.5570 0.3429 0.1287
C5 C 0.5520(3) 0.4390(3) 0.0486(2)
C6 C 0.5854(3) 0.4410(2) -0.0400(2)
C7 C 0.4677(2) 0.4989(2) 0.08585(18)
C8 C 0.5114(2) 0.5652(3) 0.2775(2)
H5 H 0.5983 0.6082 0.3005
C9 C 0.3198(2) 0.45321(19) 0.17917(17)
H6 H 0.2493 0.4036 0.1193
C10 C 0.4377(2) 0.5559(3) 0.3381(2)
H7 H 0.4647 0.5925 0.4122
C11 C 0.23359(19) 0.65487(16) 0.54669(16)
C12 C 0.34269(19) 0.71114(17) 0.64643(16)
C13 C 0.4545(2) 0.67854(18) 0.64942(18)
H8 H 0.4626 0.6229 0.5878
C14 C 0.3326(2) 0.79463(19) 0.73686(17)
H9 H 0.2565 0.8171 0.7355
C15 C 0.4332(3) 0.8450(2) 0.82884(19)
H10 H 0.4273 0.9032 0.8900
C16 C 0.5419(2) 0.8095(2) 0.83035(19)
C17 C 0.5543(2) 0.7269(2) 0.74197(19)
H11 H 0.6299 0.7036 0.7444
C18 C 0.2076(2) 0.38575(18) 0.49616(17)
H12 H 0.2300 0.4595 0.5522
C19 C 0.1900(2) 0.28910(18) 0.50621(17)
H13 H 0.1969 0.2824 0.5688
C20 C 0.1603(2) 0.25040(17) 0.34168(17)
H14 H 0.1427 0.2090 0.2683
C21 C 0.1389(2) 0.08510(17) 0.37699(17)
C22 C 0.2443(2) 0.04254(18) 0.37417(17)
C23 C 0.3718(2) 0.1132(2) 0.4052(2)
H15 H 0.3870 0.1922 0.4297
C24 C 0.4711(3) 0.0680(2) 0.3996(3)
H16 H 0.5554 0.1158 0.4212
C25 C 0.4504(3) -0.0496(2) 0.3620(3)
H17 H 0.5209 -0.0799 0.3580
C26 C 0.3306(2) -0.1200(2) 0.3314(2)
H18 H 0.3183 -0.1988 0.3057
C27 C 0.2234(2) -0.07635(18) 0.33784(17)
C28 C 0.0986(2) -0.14466(17) 0.30805(17)
C29 C -0.0064(2) -0.10179(19) 0.31412(18)
C30 C -0.1332(2) -0.1717(2) 0.2851(2)
H19 H -0.1485 -0.2505 0.2613
C31 C -0.2324(3) -0.1261(2) 0.2914(3)
H20 H -0.3166 -0.1736 0.2712
C32 C -0.2111(3) -0.0082(2) 0.3279(3)
H21 H -0.2815 0.0222 0.3323
C33 C -0.0922(2) 0.0618(2) 0.3566(2)
H22 H -0.0799 0.1405 0.3810
C34 C 0.0145(2) 0.01729(18) 0.35020(18)
C35 C 0.1167(2) -0.31622(17) 0.32581(17)
H23 H 0.1503 -0.2803 0.3997
C36 C 0.0501(2) -0.44085(18) 0.16449(17)
H24 H 0.0279 -0.5110 0.1039
C37 C 0.0360(2) -0.34304(18) 0.16466(17)
H25 H 0.0038 -0.3316 0.1059
C38 C 1.0148(2) 1.26773(17) 1.09254(16)
C39 C 0.9178(2) 1.15320(18) 1.04547(16)
C40 C 0.8832(2) 1.1064(2) 1.10863(17)
H26 H 0.9239 1.1455 1.1818
C41 C 0.7907(2) 1.0043(2) 1.06664(19)
H27 H 0.7698 0.9721 1.1102
C42 C 0.7288(2) 0.94914(19) 0.96026(18)
C43 C 0.7617(2) 0.9927(2) 0.89510(18)
H28 H 0.7192 0.9543 0.8222
C44 C 0.8581(2) 1.09382(19) 0.93828(17)
H29 H 0.8836 1.1228 0.8939
N1 N 0.10138(16) -0.42307(14) 0.26553(14)
N2 N 0.07828(18) -0.26391(15) 0.26840(14)
N3 N 0.16009(18) 0.20331(15) 0.40714(14)
N4 N 0.18818(16) 0.36097(14) 0.39254(14)
N5 N 0.31768(17) 0.48533(16) 0.27607(14)
N6 N 0.43557(18) 0.50015(19) 0.17614(16)
Ni1 Ni 0.15301(2) 0.46608(2) 0.320145(19)
O1 O 1.04869(16) 1.30266(13) 1.03264(12)
O2 O 1.05174(16) 1.31882(13) 1.19144(12)
O3 O -0.01501(14) 0.47202(13) 0.36873(12)
H30 H -0.0374 0.4170 0.3807
O4 O 0.26078(14) 0.60094(12) 0.46484(11)
O5 O 0.12373(14) 0.66365(12) 0.55080(12)
O6 O 0.63563(18) 0.84899(16) 0.92528(14)
H31 H 0.0114 0.5377 0.4222
C1A C 0.3289(4) 0.6204(3) 0.0783(3)
H1A H 0.2877 0.6029 0.1228
C2A C 0.3044(8) 0.7003(6) 0.0546(6)
H2A H 0.2660 0.7527 0.0944
C3A C 0.3370(6) 0.7057(5) -0.0323(5)
H3A H 0.3059 0.7523 -0.0594
C4A C 0.4127(5) 0.6445(5) -0.0772(4)
H4A H 0.4430 0.6571 -0.1287
C5A C 0.4480(3) 0.5610(3) -0.0486(2)
C6A C 0.4146(3) 0.5590(2) 0.0400(2)
C7A C 0.5323(2) 0.5011(2) -0.08585(18)
C8A C 0.4886(2) 0.4348(3) -0.2775(2)
H5A H 0.4017 0.3918 -0.3005
C9A C 0.6802(2) 0.54679(19) -0.17917(17)
H6A H 0.7507 0.5964 -0.1193
C10A C 0.5623(2) 0.4441(3) -0.3381(2)
H7A H 0.5353 0.4075 -0.4122
C11A C 0.76641(19) 0.34513(16) -0.54669(16)
C12A C 0.65731(19) 0.28886(17) -0.64643(16)
C13A C 0.5455(2) 0.32146(18) -0.64942(18)
H8A H 0.5374 0.3771 -0.5878
C14A C 0.6674(2) 0.20537(19) -0.73686(17)
H9A H 0.7435 0.1829 -0.7355
C15A C 0.5668(3) 0.1550(2) -0.82884(19)
H10A H 0.5727 0.0968 -0.8900
C16A C 0.4581(2) 0.1905(2) -0.83035(19)
C17A C 0.4457(2) 0.2731(2) -0.74197(19)
H11A H 0.3701 0.2964 -0.7444
C18A C 0.7924(2) 0.61425(18) -0.49616(17)
H12A H 0.7700 0.5405 -0.5522
C19A C 0.8100(2) 0.71090(18) -0.50621(17)
H13A H 0.8031 0.7176 -0.5688
C20A C 0.8397(2) 0.74960(17) -0.34168(17)
H14A H 0.8573 0.7910 -0.2683
C21A C 0.8611(2) 0.91490(17) -0.37699(17)
C22A C 0.7557(2) 0.95746(18) -0.37417(17)
C23A C 0.6282(2) 0.8868(2) -0.4052(2)
H15A H 0.6130 0.8078 -0.4297
C24A C 0.5289(3) 0.9320(2) -0.3996(3)
H16A H 0.4446 0.8842 -0.4212
C25A C 0.5496(3) 1.0496(2) -0.3620(3)
H17A H 0.4791 1.0799 -0.3580
C26A C 0.6694(2) 1.1200(2) -0.3314(2)
H18A H 0.6817 1.1988 -0.3057
C27A C 0.7766(2) 1.07635(18) -0.33784(17)
C28A C 0.9014(2) 1.14466(17) -0.30805(17)
C29A C 1.0064(2) 1.10179(19) -0.31412(18)
C30A C 1.1332(2) 1.1717(2) -0.2851(2)
H19A H 1.1485 1.2505 -0.2613
C31A C 1.2324(3) 1.1261(2) -0.2914(3)
H20A H 1.3166 1.1736 -0.2712
C32A C 1.2111(3) 1.0082(2) -0.3279(3)
H21A H 1.2815 0.9778 -0.3323
C33A C 1.0922(2) 0.9382(2) -0.3566(2)
H22A H 1.0799 0.8595 -0.3810
C34A C 0.9855(2) 0.98271(18) -0.35020(18)
C35A C 0.8833(2) 1.31622(17) -0.32581(17)
H23A H 0.8497 1.2803 -0.3997
C36A C 0.9499(2) 1.44085(18) -0.16449(17)
H24A H 0.9721 1.5110 -0.1039
C37A C 0.9640(2) 1.34304(18) -0.16466(17)
H25A H 0.9962 1.3316 -0.1059
C38A C -0.0148(2) -0.26773(17) -1.09254(16)
C39A C 0.0822(2) -0.15320(18) -1.04547(16)
C40A C 0.1168(2) -0.1064(2) -1.10863(17)
H26A H 0.0761 -0.1455 -1.1818
C41A C 0.2093(2) -0.0043(2) -1.06664(19)
H27A H 0.2302 0.0279 -1.1102
C42A C 0.2712(2) 0.05086(19) -0.96026(18)
C43A C 0.2383(2) 0.0073(2) -0.89510(18)
H28A H 0.2808 0.0457 -0.8222
C44A C 0.1419(2) -0.09382(19) -0.93828(17)
H29A H 0.1164 -0.1228 -0.8939
N1A N 0.89862(16) 1.42307(14) -0.26553(14)
N1_2 N 0.10138(16) 0.57693(14) 0.26553(14)
N1A_2 N 0.89862(16) 0.42307(14) -0.26553(14)
N2A N 0.92172(18) 1.26391(15) -0.26840(14)
N3A N 0.83991(18) 0.79669(15) -0.40714(14)
N4A N 0.81182(16) 0.63903(14) -0.39254(14)
N5A N 0.68232(17) 0.51467(16) -0.27607(14)
N6A N 0.56443(18) 0.49985(19) -0.17614(16)
Ni1A Ni 0.84699(2) 0.53392(2) -0.320145(19)
Ni1_2 Ni 0.15301(2) -0.53392(2) 0.320145(19)
Ni1_3 Ni 1.15301(2) 1.46608(2) 1.320145(19)
Ni1A_2 Ni -0.15301(2) -0.46608(2) -1.320145(19)
Ni1A_3 Ni 0.84699(2) 1.53392(2) -0.320145(19)
O1A O -0.04869(16) -0.30266(13) -1.03264(12)
O2A O -0.05174(16) -0.31882(13) -1.19144(12)
O2_2 O 0.05174(16) 0.31882(13) 0.19144(12)
O2A_2 O 0.94826(16) 0.68118(13) -0.19144(12)
O3A O 1.01501(14) 0.52798(13) -0.36873(12)
H30A H 1.0374 0.5830 -0.3807
O4A O 0.73922(14) 0.39906(12) -0.46484(11)
O5A O 0.87627(14) 0.33635(12) -0.55080(12)
O6A O 0.36437(18) 0.15101(16) -0.92528(14)
H31A H 0.9886 0.4623 -0.4222
O7 O 0.8100(3) 0.5600(3) 0.2681(3)
C45? C 0.6320(7) 0.4083(8) 0.1205(6)
C46? C 0.7222(7) 0.3604(8) 0.0900(7)
C47? C 0.7499(8) 0.3508(7) -0.0027(7)
H32? H 0.6199 0.4220 0.1862
H33? H 0.7681 0.3326 0.1314
H34? H 0.8210 0.3252 -0.0174
loop_
_geom_bond_atom_site_label_1
_geom_bond_atom_site_label_2
_geom_bond_site_symmetry_1
_geom_bond_site_symmetry_2
C1 H1 1_555 1_555
C2 C1 1_555 1_555
H2 C2 1_555 1_555
C3 C2 1_555 1_555
H3 C3 1_555 1_555
C4 C3 1_555 1_555
H4 C4 1_555 1_555
C5 C4 1_555 1_555
C6 C1 1_555 1_555
C7 C5 1_555 1_555
C8 H5 1_555 1_555
C9 H6 1_555 1_555
C10 C8 1_555 1_555
H7 C10 1_555 1_555
C11 C12 1_555 1_555
C12 C13 1_555 1_555
C13 H8 1_555 1_555
C14 C12 1_555 1_555
H9 C14 1_555 1_555
C15 C14 1_555 1_555
H10 C15 1_555 1_555
C16 C15 1_555 1_555
C17 C13 1_555 1_555
H11 C17 1_555 1_555
C18 H12 1_555 1_555
C19 C18 1_555 1_555
H13 C19 1_555 1_555
C20 H14 1_555 1_555
C21 C22 1_555 1_555
C22 C23 1_555 1_555
C23 H15 1_555 1_555
C24 C23 1_555 1_555
H16 C24 1_555 1_555
C25 C24 1_555 1_555
H17 C25 1_555 1_555
C26 C25 1_555 1_555
H18 C26 1_555 1_555
C27 C22 1_555 1_555
C28 C27 1_555 1_555
C29 C28 1_555 1_555
C30 C29 1_555 1_555
H19 C30 1_555 1_555
C31 C30 1_555 1_555
H20 C31 1_555 1_555
C32 C31 1_555 1_555
H21 C32 1_555 1_555
C33 C32 1_555 1_555
H22 C33 1_555 1_555
C34 C21 1_555 1_555
C35 H23 1_555 1_555
C36 H24 1_555 1_555
C37 C36 1_555 1_555
H25 C37 1_555 1_555
C38 C39 1_555 1_555
C39 C40 1_555 1_555
C40 H26 1_555 1_555
C41 C40 1_555 1_555
H27 C41 1_555 1_555
C42 C41 1_555 1_555
C43 C42 1_555 1_555
H28 C43 1_555 1_555
C44 C39 1_555 1_555
H29 C44 1_555 1_555
N1 C35 1_555 1_555
N2 C28 1_555 1_555
N3 C19 1_555 1_555
N4 C18 1_555 1_555
N5 C9 1_555 1_555
N6 C7 1_555 1_555
Ni1 N4 1_555 1_555
O1 C38 1_555 1_555
O2 C38 1_555 1_555
O3 Ni1 1_555 1_555
H30 O3 1_555 1_555
O4 C11 1_555 1_555
O5 C11 1_555 1_555
O6 C16 1_555 1_555
H31 O3 1_555 1_555
C1A H1A 1_555 1_555
C2A C1A 1_555 1_555
H2A C2A 1_555 1_555
C3A C2A 1_555 1_555
H3A C3A 1_555 1_555
C4A C3A 1_555 1_555
H4A C4A 1_555 1_555
C5A C4A 1_555 1_555
C6A C7 1_555 1_555
C7A C6 1_555 1_555
C8A H5A 1_555 1_555
C9A H6A 1_555 1_555
C10A C8A 1_555 1_555
H7A C10A 1_555 1_555
C11A C12A 1_555 1_555
C12A C13A 1_555 1_555
C13A H8A 1_555 1_555
C14A C12A 1_555 1_555
H9A C14A 1_555 1_555
C15A C14A 1_555 1_555
H10A C15A 1_555 1_555
C16A C15A 1_555 1_555
C17A C13A 1_555 1_555
H11A C17A 1_555 1_555
C18A H12A 1_555 1_555
C19A C18A 1_555 1_555
H13A C19A 1_555 1_555
C20A H14A 1_555 1_555
C21A C22A 1_555 1_555
C22A C23A 1_555 1_555
C23A H15A 1_555 1_555
C24A C23A 1_555 1_555
H16A C24A 1_555 1_555
C25A C24A 1_555 1_555
H17A C25A 1_555 1_555
C26A C25A 1_555 1_555
H18A C26A 1_555 1_555
C27A C22A 1_555 1_555
C28A C27A 1_555 1_555
C29A C28A 1_555 1_555
C30A C29A 1_555 1_555
H19A C30A 1_555 1_555
C31A C30A 1_555 1_555
H20A C31A 1_555 1_555
C32A C31A 1_555 1_555
H21A C32A 1_555 1_555
C33A C32A 1_555 1_555
H22A C33A 1_555 1_555
C34A C21A 1_555 1_555
C35A H23A 1_555 1_555
C36A H24A 1_555 1_555
C37A C36A 1_555 1_555
H25A C37A 1_555 1_555
C38A C39A 1_555 1_555
C39A C40A 1_555 1_555
C40A H26A 1_555 1_555
C41A C40A 1_555 1_555
H27A C41A 1_555 1_555
C42A C41A 1_555 1_555
C43A C42A 1_555 1_555
H28A C43A 1_555 1_555
C44A C39A 1_555 1_555
H29A C44A 1_555 1_555
N1A C35A 1_555 1_555
N1_2 Ni1 1_555 1_555
N1A_2 Ni1A 1_555 1_555
N2A C28A 1_555 1_555
N3A C19A 1_555 1_555
N4A C18A 1_555 1_555
N5A C9A 1_555 1_555
N6A C7A 1_555 1_555
Ni1A N4A 1_555 1_555
Ni1_2 N1 1_555 1_555
Ni1_3 O2 1_555 1_555
Ni1A_2 O2A 1_555 1_555
Ni1A_3 N1A 1_555 1_555
O1A C38A 1_555 1_555
O2A C38A 1_555 1_555
O2_2 Ni1 1_555 1_555
O2A_2 Ni1A 1_555 1_555
O3A Ni1A 1_555 1_555
H30A O3A 1_555 1_555
O4A C11A 1_555 1_555
O5A C11A 1_555 1_555
O6A C16A 1_555 1_555
H31A O3A 1_555 1_555
C5 C6 1_555 1_555
C8 N6 1_555 1_555
C9 N6 1_555 1_555
C10 N5 1_555 1_555
C16 C17 1_555 1_555
C20 N3 1_555 1_555
C20 N4 1_555 1_555
C21 N3 1_555 1_555
C26 C27 1_555 1_555
C29 C34 1_555 1_555
C33 C34 1_555 1_555
C35 N2 1_555 1_555
C36 N1 1_555 1_555
C37 N2 1_555 1_555
C42 O6 1_555 1_555
C43 C44 1_555 1_555
N5 Ni1 1_555 1_555
Ni1 O4 1_555 1_555
C1A C6A 1_555 1_555
C5A C6A 1_555 1_555
C5A C7A 1_555 1_555
C8A N6A 1_555 1_555
C9A N6A 1_555 1_555
C10A N5A 1_555 1_555
C16A C17A 1_555 1_555
C20A N3A 1_555 1_555
C20A N4A 1_555 1_555
C21A N3A 1_555 1_555
C26A C27A 1_555 1_555
C29A C34A 1_555 1_555
C33A C34A 1_555 1_555
C35A N2A 1_555 1_555
C36A N1A 1_555 1_555
C37A N2A 1_555 1_555
C42A O6A 1_555 1_555
C43A C44A 1_555 1_555
N5A Ni1A 1_555 1_555
Ni1A O4A 1_555 1_555

#END
