
#######################################################################
#
#                 Cambridge Crystallographic Data Centre
#                                CCDC 
#
#######################################################################
#
# If this CIF has been generated from an entry in the Cambridge 
# Structural Database, then it will include bibliographic, chemical, 
# crystal, experimental, refinement or atomic coordinate data resulting 
# from the CCDC's data processing and validation procedures.
#
#######################################################################

data_PASGIB03
_symmetry_cell_setting           trigonal
_symmetry_space_group_name_H-M   'P 32 2 1'
_symmetry_Int_Tables_number      154
_space_group_name_Hall           'P 32 2"'
loop_
_symmetry_equiv_pos_site_id
_symmetry_equiv_pos_as_xyz
1 x,y,z
2 -y,x-y,2/3+z
3 -x+y,-x,1/3+z
4 x-y,-y,1/3-z
5 -x,-x+y,2/3-z
6 y,x,-z
_cell_length_a                   11.9118(4)
_cell_length_b                   11.9118(4)
_cell_length_c                   8.3260(5)
_cell_angle_alpha                90
_cell_angle_beta                 90
_cell_angle_gamma                120
_cell_volume                     1023.11
loop_
_atom_site_label
_atom_site_type_symbol
_atom_site_fract_x
_atom_site_fract_y
_atom_site_fract_z
Zn1 Zn 0.71209(3) 0.0000 0.1667
N1 N 0.60338(16) 0.06381(17) 0.0263(2)
C1 C 0.5536(3) 0.1489(3) -0.2067(3)
H1 H 0.5791 0.1893 -0.3062
C2 C 0.4337(2) 0.1165(2) -0.1442(3)
C3 C 0.48724(19) 0.03210(19) 0.0867(2)
C4 C 0.6357(2) 0.1204(2) -0.1194(3)
H2 H 0.7157 0.1412 -0.1631
C5 C 0.4010(2) 0.0575(2) 0.0048(2)
H3 H 0.3211 0.0349 0.0502
O1 O 0.87085(13) 0.08473(19) 0.01226(16)
O2 O 0.37713(18) 0.2041(2) -0.36264(18)
O3 O 0.22946(14) 0.10344(17) -0.16934(19)
C6 C 0.3388(2) 0.1434(2) -0.2330(3)
H4 H 0.9466 0.1210 0.0510
H5 H 0.8704 0.0248 -0.0425
Zn1A Zn 0.0000 -0.28791(3) 0.8334
Zn1B Zn 0.28791(3) 0.28791(3) -0.5000
N1C N 0.53957(23) -0.06381(17) 0.3070(2)
C1C C 0.4047(4) -0.1489(3) 0.5400(3)
H1C H 0.3898 -0.1893 0.6395
C2C C 0.3172(3) -0.1165(2) 0.4775(3)
C3C C 0.45514(27) -0.03210(19) 0.2466(2)
C4C C 0.5153(3) -0.1204(2) 0.4527(3)
H2C H 0.5745 -0.1412 0.4964
C5C C 0.3435(3) -0.0575(2) 0.3285(2)
H3C H 0.2862 -0.0349 0.2831
O1C O 0.78612(23) -0.08473(19) 0.32107(16)
O2C O 0.17303(27) -0.2041(2) 0.69597(18)
O2A O 0.7959(2) 0.17303(27) 0.30403(18)
O2D O 0.62287(18) -0.17303(27) 0.02931(18)
O3C O 0.12602(22) -0.10344(17) 0.50267(19)
C6C C 0.1954(3) -0.1434(2) 0.5663(3)
H4C H 0.8256 -0.1210 0.2823
H5C H 0.8456 -0.0248 0.3758
loop_
_geom_bond_atom_site_label_1
_geom_bond_atom_site_label_2
_geom_bond_site_symmetry_1
_geom_bond_site_symmetry_2
Zn1 N1 1_555 1_555
N1 C3 1_555 1_555
C1 H1 1_555 1_555
C2 C1 1_555 1_555
C3 C5 1_555 1_555
C4 N1 1_555 1_555
H2 C4 1_555 1_555
C5 C2 1_555 1_555
H3 C5 1_555 1_555
O1 Zn1 1_555 1_555
O2 C6 1_555 1_555
O3 C6 1_555 1_555
C6 C2 1_555 1_555
H4 O1 1_555 1_555
H5 O1 1_555 1_555
Zn1A O2C 1_555 1_555
Zn1B O2 1_555 1_555
N1C Zn1 1_555 1_555
C1C H1C 1_555 1_555
C2C C1C 1_555 1_555
C3C C3 1_555 1_555
C4C N1C 1_555 1_555
H2C C4C 1_555 1_555
C5C C2C 1_555 1_555
H3C C5C 1_555 1_555
O1C Zn1 1_555 1_555
O2C C6C 1_555 1_555
O2A Zn1 1_555 1_555
O2D Zn1 1_555 1_555
O3C C6C 1_555 1_555
C6C C2C 1_555 1_555
H4C O1C 1_555 1_555
H5C O1C 1_555 1_555
C1 C4 1_555 1_555
N1C C3C 1_555 1_555
C1C C4C 1_555 1_555
C3C C5C 1_555 1_555

#END
