
#######################################################################
#
#                 Cambridge Crystallographic Data Centre
#                                CCDC 
#
#######################################################################
#
# If this CIF has been generated from an entry in the Cambridge 
# Structural Database, then it will include bibliographic, chemical, 
# crystal, experimental, refinement or atomic coordinate data resulting 
# from the CCDC's data processing and validation procedures.
#
#######################################################################

data_PASGEX04
_symmetry_cell_setting           trigonal
_symmetry_space_group_name_H-M   'P 31 2 1'
_symmetry_Int_Tables_number      152
_space_group_name_Hall           'P 31 2"'
loop_
_symmetry_equiv_pos_site_id
_symmetry_equiv_pos_as_xyz
1 x,y,z
2 -y,x-y,1/3+z
3 -x+y,-x,2/3+z
4 y,x,-z
5 x-y,-y,2/3-z
6 -x,-x+y,1/3-z
_cell_length_a                   11.9329(13)
_cell_length_b                   11.9329(13)
_cell_length_c                   8.3384(18)
_cell_angle_alpha                90
_cell_angle_beta                 90
_cell_angle_gamma                120
_cell_volume                     1028.27
loop_
_atom_site_label
_atom_site_type_symbol
_atom_site_fract_x
_atom_site_fract_y
_atom_site_fract_z
Zn1 Zn 0.28790(4) 0.0000 0.8333
O1 O 0.2120(3) 0.0834(3) 0.6796(2)
H1 H 0.2566 0.1266 0.5918
H2 H 0.1348 0.0764 0.7010
O2 O 0.8271(2) 0.2047(3) 0.3037(2)
N1 N 0.4598(2) 0.0638(2) 0.6922(3)
C1 C 0.5950(3) 0.1483(4) 0.4599(4)
H3 H 0.6099 0.1907 0.3579
C2 C 0.4854(3) 0.1206(3) 0.5473(4)
H4 H 0.4203 0.1328 0.4958
C3 C 0.6829(3) 0.1163(3) 0.5219(3)
O3 O 0.8741(2) 0.1035(2) 0.4966(2)
C4 C 0.8055(3) 0.1438(3) 0.4334(4)
C5 C 0.6565(3) 0.0569(3) 0.6710(3)
H5 H 0.7141 0.0306 0.7152
C6 C 0.5449(3) 0.0318(3) 0.7533(3)
Zn1A Zn 1.0000 0.28790(4) 0.1666
Zn1B Zn 0.71210(4) -0.28790(4) 1.5000
O1D O 0.1286(4) -0.0834(3) 0.9871(2)
H1D H 0.1300 -0.1266 1.0749
H2D H 0.0584 -0.0764 0.9657
O2D O 0.6224(4) -0.2047(3) 1.3630(2)
O2B O 0.3776(4) 0.1729(2) 0.9704(2)
O2C O 0.2047(3) -0.1729(2) 0.6963(2)
N1D N 0.3960(3) -0.0638(2) 0.9745(3)
C1D C 0.4467(5) -0.1483(4) 1.2068(4)
H3D H 0.4192 -0.1907 1.3088
C2D C 0.3648(4) -0.1206(3) 1.1194(4)
H4D H 0.2875 -0.1328 1.1709
C3D C 0.5666(4) -0.1163(3) 1.1448(3)
O3D O 0.7706(3) -0.1035(2) 1.1701(2)
C4D C 0.6617(4) -0.1438(3) 1.2333(4)
C5D C 0.5996(4) -0.0569(3) 0.9957(3)
H5D H 0.6835 -0.0306 0.9515
C6D C 0.5131(4) -0.0318(3) 0.9134(3)
loop_
_geom_bond_atom_site_label_1
_geom_bond_atom_site_label_2
_geom_bond_site_symmetry_1
_geom_bond_site_symmetry_2
Zn1 O1 1_555 1_555
O1 H1 1_555 1_555
H2 O1 1_555 1_555
O2 C4 1_555 1_555
N1 Zn1 1_555 1_555
C1 H3 1_555 1_555
C2 N1 1_555 1_555
H4 C2 1_555 1_555
C3 C1 1_555 1_555
O3 C4 1_555 1_555
C4 C3 1_555 1_555
C5 C3 1_555 1_555
H5 C5 1_555 1_555
C6 N1 1_555 1_555
Zn1A O2 1_555 1_555
Zn1B O2D 1_555 1_555
O1D Zn1 1_555 1_555
H1D O1D 1_555 1_555
H2D O1D 1_555 1_555
O2D C4D 1_555 1_555
O2B Zn1 1_555 1_555
O2C Zn1 1_555 1_555
N1D Zn1 1_555 1_555
C1D H3D 1_555 1_555
C2D N1D 1_555 1_555
H4D C2D 1_555 1_555
C3D C1D 1_555 1_555
O3D C4D 1_555 1_555
C4D C3D 1_555 1_555
C5D C3D 1_555 1_555
H5D C5D 1_555 1_555
C6D C6 1_555 1_555
C1 C2 1_555 1_555
C5 C6 1_555 1_555
N1D C6D 1_555 1_555
C1D C2D 1_555 1_555
C5D C6D 1_555 1_555

#END
