
#######################################################################
#
#                 Cambridge Crystallographic Data Centre
#                                CCDC 
#
#######################################################################
#
# If this CIF has been generated from an entry in the Cambridge 
# Structural Database, then it will include bibliographic, chemical, 
# crystal, experimental, refinement or atomic coordinate data resulting 
# from the CCDC's data processing and validation procedures.
#
#######################################################################

data_PASGEX05
_symmetry_cell_setting           trigonal
_symmetry_space_group_name_H-M   'P 31 2 1'
_symmetry_Int_Tables_number      152
_space_group_name_Hall           'P 31 2"'
loop_
_symmetry_equiv_pos_site_id
_symmetry_equiv_pos_as_xyz
1 x,y,z
2 -y,x-y,1/3+z
3 -x+y,-x,2/3+z
4 y,x,-z
5 x-y,-y,2/3-z
6 -x,-x+y,1/3-z
_cell_length_a                   11.9072(5)
_cell_length_b                   11.9072(5)
_cell_length_c                   8.3161(6)
_cell_angle_alpha                90
_cell_angle_beta                 90
_cell_angle_gamma                120
_cell_volume                     1021.1
loop_
_atom_site_label
_atom_site_type_symbol
_atom_site_fract_x
_atom_site_fract_y
_atom_site_fract_z
Zn1 Zn 1.0000 0.28792(4) 0.1667
O1 O 0.9167(3) 0.12841(18) 0.0127(2)
H1 H 0.8735 0.1305 -0.0750
H2 H 0.9234 0.0578 0.0334
O2 O 0.7960(3) 0.6228(3) -0.3630(2)
N1 N 0.9360(3) 0.3964(2) 0.0257(3)
C1 C 0.8517(4) 0.4468(4) -0.2069(4)
H3 H 0.8100 0.4204 -0.3098
C2 C 0.8841(3) 0.5665(3) -0.1451(4)
C3 C 0.9686(3) 0.5129(3) 0.0864(3)
C4 C 0.9429(3) 0.5989(3) 0.0041(3)
H4 H 0.9655 0.6810 0.0514
C5 C 0.8798(3) 0.3654(3) -0.1201(4)
H5 H 0.8574 0.2823 -0.1647
O3 O 0.8965(2) 0.7706(2) -0.1699(3)
C6 C 0.8561(3) 0.6616(3) -0.2336(4)
Zn1A Zn 0.71208(4) 0.71208(4) -0.5000
Zn1B Zn 1.28792(4) 1.0000 0.8334
O1E O 1.0833(3) 0.21171(35) 0.3206(2)
H1E H 1.1265 0.2570 0.4083
H2E H 1.0766 0.1344 0.2999
O2E O 1.2040(3) 0.8268(4) 0.6963(2)
O2B O 0.8268(4) 0.2040(3) 0.3037(2)
O2D O 1.1732(4) 0.3772(3) 0.0297(2)
N1E N 1.0640(3) 0.4604(4) 0.3076(3)
C1E C 1.1483(4) 0.5951(6) 0.5402(4)
H3E H 1.1900 0.6104 0.6431
C2E C 1.1159(3) 0.6824(4) 0.4784(4)
C3E C 1.0314(3) 0.5443(4) 0.2469(3)
C4E C 1.0571(3) 0.6560(4) 0.3292(3)
H4E H 1.0345 0.7155 0.2819
C5E C 1.1202(3) 0.4856(4) 0.4534(4)
H5E H 1.1426 0.4249 0.4980
O3E O 1.1035(2) 0.8741(3) 0.5032(3)
C6E C 1.1439(3) 0.8055(4) 0.5669(4)
loop_
_geom_bond_atom_site_label_1
_geom_bond_atom_site_label_2
_geom_bond_site_symmetry_1
_geom_bond_site_symmetry_2
Zn1 O1 1_555 1_555
O1 H1 1_555 1_555
H2 O1 1_555 1_555
O2 C6 1_555 1_555
N1 Zn1 1_555 1_555
C1 H3 1_555 1_555
C2 C1 1_555 1_555
C3 N1 1_555 1_555
C4 C2 1_555 1_555
H4 C4 1_555 1_555
C5 N1 1_555 1_555
H5 C5 1_555 1_555
O3 C6 1_555 1_555
C6 C2 1_555 1_555
Zn1A O2 1_555 1_555
Zn1B O2E 1_555 1_555
O1E Zn1 1_555 1_555
H1E O1E 1_555 1_555
H2E O1E 1_555 1_555
O2E C6E 1_555 1_555
O2B Zn1 1_555 1_555
O2D Zn1 1_555 1_555
N1E Zn1 1_555 1_555
C1E H3E 1_555 1_555
C2E C1E 1_555 1_555
C3E C3 1_555 1_555
C4E C2E 1_555 1_555
H4E C4E 1_555 1_555
C5E N1E 1_555 1_555
H5E C5E 1_555 1_555
O3E C6E 1_555 1_555
C6E C2E 1_555 1_555
C1 C5 1_555 1_555
C3 C4 1_555 1_555
N1E C3E 1_555 1_555
C1E C5E 1_555 1_555
C3E C4E 1_555 1_555

#END
