
#######################################################################
#
#                 Cambridge Crystallographic Data Centre
#                                CCDC 
#
#######################################################################
#
# If this CIF has been generated from an entry in the Cambridge 
# Structural Database, then it will include bibliographic, chemical, 
# crystal, experimental, refinement or atomic coordinate data resulting 
# from the CCDC's data processing and validation procedures.
#
#######################################################################

data_PASJEA
_symmetry_cell_setting           triclinic
_symmetry_space_group_name_H-M   'P -1'
_symmetry_Int_Tables_number      2
_space_group_name_Hall           '-P 1'
loop_
_symmetry_equiv_pos_site_id
_symmetry_equiv_pos_as_xyz
1 x,y,z
2 -x,-y,-z
_cell_length_a                   7.778(4)
_cell_length_b                   13.275(7)
_cell_length_c                   16.678(8)
_cell_angle_alpha                81.622(10)
_cell_angle_beta                 86.283(12)
_cell_angle_gamma                88.301(14)
_cell_volume                     1699.74
loop_
_atom_site_label
_atom_site_type_symbol
_atom_site_fract_x
_atom_site_fract_y
_atom_site_fract_z
Cu1 Cu 0.11922(5) 0.23477(3) 0.22757(2)
O1 O 0.9173(4) 0.1014(3) 0.3965(2)
N1 N 0.3415(4) 0.3155(2) 0.20093(16)
C1 C 0.6817(4) 0.1986(3) 0.3397(2)
Cu2 Cu -0.12568(6) 0.39589(3) 0.46825(2)
O2 O 0.9277(3) 0.1488(2) 0.26259(17)
N2 N -0.0895(4) 0.3163(2) 0.57214(17)
C2 C 0.5985(4) 0.2343(2) 0.2689(2)
H1 H 0.6522 0.2253 0.2175
Cu3 Cu 0.29782(6) -0.00739(3) 0.04137(3)
O3 O 0.4533(3) 0.12238(19) 0.07449(14)
N3 N 0.1841(4) 0.0596(2) 0.94888(17)
C3 C 0.4379(4) 0.2828(2) 0.27308(19)
O4 O 0.2281(3) 0.14042(18) 0.16022(15)
N4 N -0.2541(4) 0.4884(2) 0.39368(17)
C4 C 0.3593(4) 0.2956(2) 0.35028(19)
O5 O 0.0317(4) 0.3691(2) 0.14164(17)
N5 N -0.6299(4) 0.8820(2) 0.12010(17)
C5 C 0.4469(5) 0.2612(3) 0.4190(2)
H2 H 0.3957 0.2712 0.4706
O6 O 0.0740(5) 0.5367(2) 0.12895(18)
C6 C 0.6069(5) 0.2124(3) 0.4151(2)
H3 H 0.6640 0.1889 0.4631
O7 O 0.0631(3) 0.31435(18) 0.31653(15)
C7 C 0.8548(5) 0.1451(3) 0.3343(3)
O8 O 0.1441(3) 0.3848(2) 0.42073(14)
C8 C 0.1768(4) 0.3354(2) 0.36269(19)
C9 C 0.4143(5) 0.2816(3) 0.1244(2)
H4 H 0.5414 0.2864 0.1215
H5 H 0.3706 0.3272 0.0774
C10 C 0.3655(5) 0.1726(3) 0.1198(2)
C11 C 0.2940(5) 0.4263(2) 0.1858(2)
H6 H 0.3834 0.4627 0.1485
H7 H 0.2907 0.4545 0.2377
C12 C 0.1184(6) 0.4450(3) 0.1488(2)
C13 C -0.1082(5) 0.3603(3) 0.6409(2)
H8 H -0.1539 0.4279 0.6372
C14 C -0.0260(6) 0.2204(3) 0.5803(2)
H9 H -0.0105 0.1879 0.5331
C15 C -0.0646(4) 0.3124(3) 0.7152(2)
H10 H -0.0787 0.3473 0.7611
C16 C 0.0181(5) 0.1664(3) 0.6540(2)
H11 H 0.0602 0.0982 0.6564
C17 C 0.0009(4) 0.2118(2) 0.7242(2)
C18 C 0.0558(4) 0.1592(2) 0.80309(19)
C19 C 0.0900(5) 0.2123(3) 0.8664(2)
H12 H 0.0706 0.2839 0.8611
C20 C 0.0815(5) 0.0529(3) 0.8175(2)
H13 H 0.0549 0.0125 0.7776
C21 C 0.1520(5) 0.1605(3) 0.9368(2)
H14 H 0.1731 0.1984 0.9792
C22 C 0.1450(5) 0.0076(3) 0.8894(2)
H15 H 0.1621 -0.0643 0.8973
C23 C -0.3412(5) 0.5673(3) 0.4204(2)
H16 H -0.3470 0.5711 0.4770
C24 C -0.2512(5) 0.4839(3) 0.3137(2)
H17 H -0.1919 0.4282 0.2936
C25 C -0.4229(5) 0.6432(3) 0.3698(2)
H18 H -0.4824 0.6976 0.3916
C26 C -0.3303(4) 0.5564(3) 0.2590(2)
H19 H -0.3254 0.5496 0.2029
C27 C -0.4174(4) 0.6395(2) 0.28651(19)
C28 C -0.4956(4) 0.7232(2) 0.22980(19)
C29 C -0.5154(5) 0.8209(3) 0.2490(2)
H20 H -0.4837 0.8355 0.3001
C30 C -0.5461(4) 0.7064(3) 0.1538(2)
H21 H -0.5347 0.6405 0.1381
C31 C -0.5814(5) 0.8970(3) 0.1933(2)
H22 H -0.5932 0.9638 0.2075
C32 C -0.6129(5) 0.7867(3) 0.1018(2)
H23 H -0.6484 0.7739 0.0508
Cu1_2 Cu 1.11922(5) 0.23477(3) 0.22757(2)
O2_2 O -0.0723(3) 0.1488(2) 0.26259(17)
Cu3_2 Cu -0.70218(6) 0.99261(3) 0.04137(3)
Cu3_3 Cu 0.29782(6) -0.00739(3) 1.04137(3)
N3_2 N 0.1841(4) 0.0596(2) -0.05112(17)
N5_2 N 0.3701(4) -0.1180(2) 0.12010(17)
O9 O 0.5504(5) -0.0747(3) 0.4091(2)
O10 O 0.2280(5) 0.0208(3) 0.4641(3)
O11 O -0.1910(5) 0.3426(3) 0.0212(2)
O12 O -0.2699(8) 0.5521(4) 0.0536(3)
loop_
_geom_bond_atom_site_label_1
_geom_bond_atom_site_label_2
_geom_bond_site_symmetry_1
_geom_bond_site_symmetry_2
Cu1 N1 1_555 1_555
O1 C7 1_555 1_555
N1 C3 1_555 1_555
C1 C2 1_555 1_555
Cu2 N2 1_555 1_555
O2 C7 1_555 1_555
N2 C13 1_555 1_555
C2 H1 1_555 1_555
Cu3 O3 1_555 1_555
O3 C10 1_555 1_555
N3 C21 1_555 1_555
C3 C2 1_555 1_555
O4 Cu1 1_555 1_555
N4 Cu2 1_555 1_555
C4 C3 1_555 1_555
O5 Cu1 1_555 1_555
N5 C31 1_555 1_555
C5 C4 1_555 1_555
H2 C5 1_555 1_555
O6 C12 1_555 1_555
C6 C1 1_555 1_555
H3 C6 1_555 1_555
O7 Cu1 1_555 1_555
C7 C1 1_555 1_555
O8 Cu2 1_555 1_555
C8 C4 1_555 1_555
C9 N1 1_555 1_555
H4 C9 1_555 1_555
H5 C9 1_555 1_555
C10 O4 1_555 1_555
C11 N1 1_555 1_555
H6 C11 1_555 1_555
H7 C11 1_555 1_555
C12 O5 1_555 1_555
C13 H8 1_555 1_555
C14 N2 1_555 1_555
H9 C14 1_555 1_555
C15 C13 1_555 1_555
H10 C15 1_555 1_555
C16 C14 1_555 1_555
H11 C16 1_555 1_555
C17 C15 1_555 1_555
C18 C17 1_555 1_555
C19 C18 1_555 1_555
H12 C19 1_555 1_555
C20 C18 1_555 1_555
H13 C20 1_555 1_555
C21 C19 1_555 1_555
H14 C21 1_555 1_555
C22 N3 1_555 1_555
H15 C22 1_555 1_555
C23 N4 1_555 1_555
H16 C23 1_555 1_555
C24 N4 1_555 1_555
H17 C24 1_555 1_555
C25 C23 1_555 1_555
H18 C25 1_555 1_555
C26 C24 1_555 1_555
H19 C26 1_555 1_555
C27 C25 1_555 1_555
C28 C27 1_555 1_555
C29 C28 1_555 1_555
H20 C29 1_555 1_555
C30 C28 1_555 1_555
H21 C30 1_555 1_555
C31 C29 1_555 1_555
H22 C31 1_555 1_555
C32 N5 1_555 1_555
H23 C32 1_555 1_555
Cu1_2 O2 1_555 1_555
O2_2 Cu1 1_555 1_555
Cu3_2 N5 1_555 1_555
Cu3_3 N3 1_555 1_555
N3_2 Cu3 1_555 1_555
N5_2 Cu3 1_555 1_555
C5 C6 1_555 1_555
O7 C8 1_555 1_555
O8 C8 1_555 1_555
C9 C10 1_555 1_555
C11 C12 1_555 1_555
C16 C17 1_555 1_555
C20 C22 1_555 1_555
C26 C27 1_555 1_555
C30 C32 1_555 1_555

#END
