
#######################################################################
#
#                 Cambridge Crystallographic Data Centre
#                                CCDC 
#
#######################################################################
#
# If this CIF has been generated from an entry in the Cambridge 
# Structural Database, then it will include bibliographic, chemical, 
# crystal, experimental, refinement or atomic coordinate data resulting 
# from the CCDC's data processing and validation procedures.
#
#######################################################################

data_PASKIF
_symmetry_cell_setting           monoclinic
_symmetry_space_group_name_H-M   'P 21/n'
_symmetry_Int_Tables_number      14
_space_group_name_Hall           '-P 2yn'
loop_
_symmetry_equiv_pos_site_id
_symmetry_equiv_pos_as_xyz
1 x,y,z
2 1/2-x,1/2+y,1/2-z
3 -x,-y,-z
4 1/2+x,1/2-y,1/2+z
_cell_length_a                   15.0607(12)
_cell_length_b                   12.1512(10)
_cell_length_c                   16.2654(13)
_cell_angle_alpha                90
_cell_angle_beta                 113.3370(10)
_cell_angle_gamma                90
_cell_volume                     2733.14
loop_
_atom_site_label
_atom_site_type_symbol
_atom_site_fract_x
_atom_site_fract_y
_atom_site_fract_z
C1 C 0.6608(3) -0.1472(4) 0.8740(2)
H1 H 0.6140 -0.0877 0.8579
H2 H 0.6252 -0.2157 0.8575
C2 C 0.9452(2) -0.3082(3) 1.4353(2)
C3 C 0.9701(2) -0.3582(3) 1.5179(2)
H3 H 0.9456 -0.4277 1.5208
O1 O 0.85994(17) -0.13770(19) 1.29921(15)
C4 C 0.9510(3) -0.1429(3) 1.3419(2)
C5 C 0.9814(2) -0.2033(3) 1.4301(2)
Cu1 Cu 0.78626(3) -0.02044(3) 1.22106(3)
Cu2 Cu 0.87223(3) -0.48618(3) 1.19364(3)
O2 O 0.90905(17) -0.37659(18) 1.28918(15)
O3 O 1.18561(17) -0.07120(19) 1.67241(15)
O4 O 1.14043(16) -0.39784(18) 1.72701(14)
O5 O 0.80852(16) -0.41419(18) 1.35801(14)
O6 O 1.10098(18) -0.1499(2) 1.74202(16)
O7 O 0.98503(18) -0.4013(2) 1.70212(17)
N1 N 0.9386(2) -0.3939(2) 1.13367(19)
N2 N 0.7719(2) -0.0991(2) 1.11042(18)
C6 C 1.1219(2) -0.1395(3) 1.6764(2)
C7 C 0.8805(2) -0.3702(2) 1.3532(2)
N3 N 0.7001(2) -0.0743(2) 0.41308(19)
N4 N 0.7602(2) -0.2199(3) 0.5021(2)
N5 N 1.0334(2) -0.2739(2) 1.1106(2)
C8 C 1.0662(2) -0.2026(3) 1.5921(2)
O8 O 1.0134(2) -0.1053(2) 1.31848(18)
C9 C 1.0304(2) -0.3075(3) 1.5962(2)
N6 N 0.7147(2) -0.1459(3) 0.97085(19)
N7 N 0.7441(2) -0.2423(3) 1.0175(2)
C10 C 1.0519(2) -0.3710(3) 1.6814(2)
C11 C 0.9584(3) -0.4197(3) 1.0621(3)
H4 H 0.9336 -0.4820 1.0274
C12 C 0.7031(3) -0.1859(3) 0.4224(2)
H5 H 0.6677 -0.2335 0.3763
C13 C 0.9882(3) -0.3013(3) 1.1627(2)
H6 H 0.9907 -0.2616 1.2125
C14 C 1.0420(2) -0.1528(3) 1.5088(2)
H7 H 1.0672 -0.0838 1.5059
N8 N 0.7986(2) -0.1245(3) 0.54570(19)
C15 C 1.0515(3) -0.0762(3) 0.9750(3)
H8 H 1.0862 -0.1279 0.9577
N9 N 1.0156(3) -0.3498(3) 1.0452(2)
C16 C 0.7626(3) -0.0388(3) 0.4932(2)
H9 H 0.7780 0.0344 0.5092
C17 C 0.7217(3) -0.1355(3) 0.8199(2)
C18 C 1.0459(3) -0.0858(3) 1.0569(3)
C19 C 0.7317(3) -0.0629(3) 1.0266(2)
H10 H 0.7176 0.0103 1.0099
C20 C 0.8173(3) -0.1269(3) 0.7039(2)
C21 C 0.8678(3) -0.1254(4) 0.6403(2)
H11 H 0.9087 -0.0608 0.6519
H12 H 0.9089 -0.1898 0.6509
C22 C 0.7771(3) -0.2087(3) 1.1009(2)
H13 H 0.8021 -0.2564 1.1494
C23 C 0.7021(3) -0.0530(4) 0.7574(3)
H14 H 0.6564 0.0004 0.7534
C24 C 0.7921(3) -0.2115(4) 0.8260(3)
H15 H 0.8079 -0.2663 0.8693
C25 C 1.0973(3) -0.1792(3) 1.1193(3)
H16 H 1.1520 -0.2027 1.1064
H17 H 1.1221 -0.1528 1.1806
C26 C 0.8396(3) -0.2075(3) 0.7684(3)
H18 H 0.8867 -0.2595 0.7735
C27 C 0.7502(3) -0.0488(4) 0.7002(3)
H19 H 0.7366 0.0080 0.6586
C28 C 0.9940(3) -0.0097(3) 1.0822(3)
H20 H 0.9895 -0.0159 1.1374
C1A C 0.8392(3) -0.6472(4) 0.6260(2)
H1A H 0.8860 -0.5877 0.6421
H2A H 0.8748 -0.7157 0.6425
C2B C 1.0548(2) 0.3082(3) 1.5647(2)
C3B C 1.0299(2) 0.3582(3) 1.4821(2)
H3B H 1.0544 0.4277 1.4792
O1B O 1.14006(17) 0.13770(19) 1.70079(15)
C4B C 1.0490(3) 0.1429(3) 1.6581(2)
C5B C 1.0186(2) 0.2033(3) 1.5699(2)
Cu1B Cu 1.21374(3) 0.02044(3) 1.77894(3)
Cu1C Cu 1.28626(3) -0.47956(3) 1.72106(3)
Cu1A Cu 0.71374(3) -0.52044(3) 1.27894(3)
Cu1A_2 Cu 0.71374(3) 0.47956(3) 1.27894(3)
Cu1C_2 Cu 1.28626(3) 0.52044(3) 1.72106(3)
Cu1A_3 Cu 0.71374(3) -0.52044(3) 0.27894(3)
Cu2B Cu 1.12777(3) 0.48618(3) 1.80636(3)
Cu2B_2 Cu 1.12777(3) -0.51382(3) 1.80636(3)
Cu2A Cu 0.62777(3) 0.01382(3) 0.30636(3)
Cu2B_3 Cu 1.12777(3) 0.48618(3) 0.80636(3)
Cu2_2 Cu 0.87223(3) 0.51382(3) 1.19364(3)
O2B O 1.09095(17) 0.37659(18) 1.71082(15)
O3B O 0.81439(17) 0.07120(19) 1.32759(15)
O4B O 0.85957(16) 0.39784(18) 1.27299(14)
O4C O 0.64043(16) -0.10216(18) 1.22701(14)
O4B_2 O 0.85957(16) -0.60216(18) 1.27299(14)
O4A O 1.35957(16) 0.10216(18) 1.77299(14)
O4_2 O 1.14043(16) 0.60216(18) 1.72701(14)
O5B O 1.19148(16) 0.41419(18) 1.64199(14)
O5A O 0.69148(16) 0.08581(18) 1.14199(14)
O5C O 1.30852(16) -0.08581(18) 1.85801(14)
O6B O 0.89902(18) 0.1499(2) 1.25798(16)
O7B O 1.01497(18) 0.4013(2) 1.29788(17)
N1B N 1.0614(2) 0.3939(2) 0.86633(19)
N1B_2 N 1.0614(2) 0.3939(2) 1.86633(19)
N2A N 0.7281(2) -0.5991(2) 0.38958(18)
N2B N 1.2281(2) 0.0991(2) 1.88958(18)
C6B C 0.8781(2) 0.1395(3) 1.3236(2)
C7B C 1.1195(2) 0.3702(2) 1.6468(2)
N3A N 0.7999(2) -0.5743(2) 1.08692(19)
N3C N 1.2001(2) 0.5743(2) 1.91308(19)
N4A N 0.7398(2) -0.7199(3) 0.9979(2)
N5B N 0.9666(2) 0.2739(2) 0.8894(2)
C8B C 0.9338(2) 0.2026(3) 1.4079(2)
O8B O 0.9866(2) 0.1053(2) 1.68152(18)
C9B C 0.9696(2) 0.3075(3) 1.4038(2)
N6A N 0.7853(2) -0.6459(3) 0.52915(19)
N7A N 0.7559(2) -0.7423(3) 0.4825(2)
C10B C 0.9481(2) 0.3710(3) 1.3186(2)
C11B C 1.0416(3) 0.4197(3) 0.9379(3)
H4B H 1.0664 0.4820 0.9726
C12A C 0.7969(3) -0.6859(3) 1.0776(2)
H5A H 0.8323 -0.7335 1.1237
C13B C 1.0118(3) 0.3013(3) 0.8373(2)
H6B H 1.0093 0.2616 0.7875
C14B C 0.9580(2) 0.1528(3) 1.4912(2)
H7B H 0.9328 0.0838 1.4941
N8A N 0.7014(2) -0.6245(3) 0.95430(19)
C15B C 0.9485(3) 0.0762(3) 1.0250(3)
H8B H 0.9138 0.1279 1.0423
N9B N 0.9844(3) 0.3498(3) 0.9548(2)
C16A C 0.7374(3) -0.5388(3) 1.0068(2)
H9A H 0.7220 -0.4656 0.9908
C17A C 0.7783(3) -0.6355(3) 0.6801(2)
C18B C 0.9541(3) 0.0858(3) 0.9431(3)
C19A C 0.7683(3) -0.5629(3) 0.4734(2)
H10A H 0.7824 -0.4897 0.4901
C20A C 0.6827(3) -0.6269(3) 0.7961(2)
C21A C 0.6322(3) -0.6254(4) 0.8597(2)
H11A H 0.5913 -0.5608 0.8481
H12A H 0.5911 -0.6898 0.8491
C22A C 0.7229(3) -0.7087(3) 0.3991(2)
H13A H 0.6979 -0.7564 0.3506
C23A C 0.7979(3) -0.5530(4) 0.7426(3)
H14A H 0.8436 -0.4996 0.7466
C24A C 0.7079(3) -0.7115(4) 0.6740(3)
H15A H 0.6921 -0.7663 0.6307
C25B C 0.9027(3) 0.1792(3) 0.8807(3)
H16B H 0.8480 0.2027 0.8936
H17B H 0.8779 0.1528 0.8194
C26A C 0.6604(3) -0.7075(3) 0.7316(3)
H18A H 0.6133 -0.7595 0.7265
C27A C 0.7498(3) -0.5488(4) 0.7998(3)
H19A H 0.7634 -0.4920 0.8414
C28B C 1.0060(3) 0.0097(3) 0.9178(3)
H20B H 1.0105 0.0159 0.8626
loop_
_geom_bond_atom_site_label_1
_geom_bond_atom_site_label_2
_geom_bond_site_symmetry_1
_geom_bond_site_symmetry_2
C1 H1 1_555 1_555
H2 C1 1_555 1_555
C2 C3 1_555 1_555
C3 H3 1_555 1_555
O1 C4 1_555 1_555
C4 C5 1_555 1_555
C5 C2 1_555 1_555
Cu1 O1 1_555 1_555
Cu2 O2 1_555 1_555
O2 C7 1_555 1_555
O3 C6 1_555 1_555
O4 C10 1_555 1_555
O5 C7 1_555 1_555
O6 C6 1_555 1_555
O7 C10 1_555 1_555
N1 Cu2 1_555 1_555
N2 Cu1 1_555 1_555
C6 C8 1_555 1_555
C7 C2 1_555 1_555
N3 C12 1_555 1_555
N4 C12 1_555 1_555
N5 C13 1_555 1_555
C8 C9 1_555 1_555
O8 C4 1_555 1_555
C9 C3 1_555 1_555
N6 C1 1_555 1_555
N7 N6 1_555 1_555
C10 C9 1_555 1_555
C11 N1 1_555 1_555
H4 C11 1_555 1_555
C12 H5 1_555 1_555
C13 N1 1_555 1_555
H6 C13 1_555 1_555
C14 C5 1_555 1_555
H7 C14 1_555 1_555
N8 N4 1_555 1_555
C15 H8 1_555 1_555
N9 N5 1_555 1_555
C16 N3 1_555 1_555
H9 C16 1_555 1_555
C17 C1 1_555 1_555
C18 C15 1_555 1_555
C19 N2 1_555 1_555
H10 C19 1_555 1_555
C20 C21 1_555 1_555
C21 N8 1_555 1_555
H11 C21 1_555 1_555
H12 C21 1_555 1_555
C22 N2 1_555 1_555
H13 C22 1_555 1_555
C23 C17 1_555 1_555
H14 C23 1_555 1_555
C24 C17 1_555 1_555
H15 C24 1_555 1_555
C25 N5 1_555 1_555
H16 C25 1_555 1_555
H17 C25 1_555 1_555
C26 C20 1_555 1_555
H18 C26 1_555 1_555
C27 C20 1_555 1_555
H19 C27 1_555 1_555
C28 C18 1_555 1_555
H20 C28 1_555 1_555
C1A H1A 1_555 1_555
H2A C1A 1_555 1_555
C2B C3B 1_555 1_555
C3B H3B 1_555 1_555
O1B C4B 1_555 1_555
C4B C5B 1_555 1_555
C5B C2B 1_555 1_555
Cu1B O3 1_555 1_555
Cu1C O4 1_555 1_555
Cu1A O5 1_555 1_555
Cu1A_2 O4B 1_555 1_555
Cu1C_2 O4_2 1_555 1_555
Cu1A_3 N2A 1_555 1_555
Cu2B O2B 1_555 1_555
Cu2B_2 O4 1_555 1_555
Cu2A N3 1_555 1_555
Cu2B_3 N1B 1_555 1_555
Cu2_2 O4B 1_555 1_555
O2B C7B 1_555 1_555
O3B Cu1 1_555 1_555
O4B C10B 1_555 1_555
O4C Cu1 1_555 1_555
O4B_2 Cu2 1_555 1_555
O4A Cu1B 1_555 1_555
O4_2 Cu2B 1_555 1_555
O5B Cu1C_2 1_555 1_555
O5A Cu1 1_555 1_555
O5C Cu1B 1_555 1_555
O6B C6B 1_555 1_555
O7B C10B 1_555 1_555
N1B C11B 1_555 1_555
N1B_2 Cu2B 1_555 1_555
N2A C19A 1_555 1_555
N2B Cu1B 1_555 1_555
C6B O3B 1_555 1_555
C7B C2B 1_555 1_555
N3A Cu2 1_555 1_555
N3C Cu2B 1_555 1_555
N4A C12A 1_555 1_555
N5B C13B 1_555 1_555
C8B C6B 1_555 1_555
O8B C4B 1_555 1_555
C9B C3B 1_555 1_555
N6A C1A 1_555 1_555
N7A N6A 1_555 1_555
C10B C9B 1_555 1_555
C11B H4B 1_555 1_555
C12A N3A 1_555 1_555
H5A C12A 1_555 1_555
C13B N1B 1_555 1_555
H6B C13B 1_555 1_555
C14B C5B 1_555 1_555
H7B C14B 1_555 1_555
N8A N4A 1_555 1_555
C15B C28 1_555 1_555
H8B C15B 1_555 1_555
N9B N5B 1_555 1_555
C16A N3A 1_555 1_555
H9A C16A 1_555 1_555
C17A C1A 1_555 1_555
C18B C15B 1_555 1_555
C19A N6A 1_555 1_555
H10A C19A 1_555 1_555
C20A C21A 1_555 1_555
C21A N8A 1_555 1_555
H11A C21A 1_555 1_555
H12A C21A 1_555 1_555
C22A N2A 1_555 1_555
H13A C22A 1_555 1_555
C23A C17A 1_555 1_555
H14A C23A 1_555 1_555
C24A C17A 1_555 1_555
H15A C24A 1_555 1_555
C25B N5B 1_555 1_555
H16B C25B 1_555 1_555
H17B C25B 1_555 1_555
C26A C20A 1_555 1_555
H18A C26A 1_555 1_555
C27A C20A 1_555 1_555
H19A C27A 1_555 1_555
C28B C15 1_555 1_555
H20B C28B 1_555 1_555
C8 C14 1_555 1_555
N6 C19 1_555 1_555
N7 C22 1_555 1_555
C11 N9 1_555 1_555
N8 C16 1_555 1_555
C18 C25 1_555 1_555
C23 C27 1_555 1_555
C24 C26 1_555 1_555
O1B Cu1B 1_555 1_555
Cu1A O4B_2 1_555 1_555
O5B C7B 1_555 1_555
C8B C9B 1_555 1_555
C8B C14B 1_555 1_555
N7A C22A 1_555 1_555
C11B N9B 1_555 1_555
N8A C16A 1_555 1_555
C18B C25B 1_555 1_555
C18B C28B 1_555 1_555
C23A C27A 1_555 1_555
C24A C26A 1_555 1_555

#END
