
#######################################################################
#
#                 Cambridge Crystallographic Data Centre
#                                CCDC 
#
#######################################################################
#
# If this CIF has been generated from an entry in the Cambridge 
# Structural Database, then it will include bibliographic, chemical, 
# crystal, experimental, refinement or atomic coordinate data resulting 
# from the CCDC's data processing and validation procedures.
#
#######################################################################

data_PASLUS
_symmetry_cell_setting           monoclinic
_symmetry_space_group_name_H-M   'P 21'
_symmetry_Int_Tables_number      4
_space_group_name_Hall           'P 2yb'
loop_
_symmetry_equiv_pos_site_id
_symmetry_equiv_pos_as_xyz
1 x,y,z
2 -x,1/2+y,-z
_cell_length_a                   8.3238(5)
_cell_length_b                   20.5408(11)
_cell_length_c                   9.6118(5)
_cell_angle_alpha                90
_cell_angle_beta                 102.496(5)
_cell_angle_gamma                90
_cell_volume                     1604.47
loop_
_atom_site_label
_atom_site_type_symbol
_atom_site_fract_x
_atom_site_fract_y
_atom_site_fract_z
C1 C 0.7054(8) -0.0558(3) 0.2871(7)
C2 C 0.6140(7) -0.0817(3) 0.4020(6)
C3 C 0.7268(7) -0.1238(3) 0.5173(6)
C4 C 0.3114(8) -0.3037(3) 0.2142(7)
C5 C 0.1320(8) -0.3292(3) 0.1815(8)
C6 C -0.0975(7) -0.1080(3) -0.0088(7)
C7 C 0.0616(7) -0.0698(3) 0.0528(6)
C8 C 0.1399(7) -0.0403(3) -0.0651(6)
C9 C 0.4272(8) -0.3374(3) 0.3415(7)
Cu1 Cu 0.10516(9) -0.19852(4) 0.14652(10)
Cu2 Cu 0.50681(10) -0.20959(4) 0.36949(9)
Cu3 Cu 0.39474(9) -0.08085(4) 0.14500(8)
La1 La 0.25013(4) -0.492460(16) 0.26756(3)
O1 O 0.4784(5) -0.1162(2) 0.3339(4)
O2 O 0.3115(5) -0.2371(2) 0.2353(5)
O3 O 0.1039(7) -0.4511(3) 0.4575(6)
O4 O 0.1734(5) -0.1097(2) 0.1389(5)
O5 O 0.5417(6) -0.5364(3) 0.2651(6)
O6 O 0.7126(7) -0.1849(2) 0.4984(6)
O7 O 0.3434(7) -0.4553(2) 0.0435(5)
O8 O 0.8211(5) -0.0972(2) 0.6178(5)
O10 O 0.5728(5) -0.0267(2) 0.4773(4)
O12 O 0.6146(6) -0.0434(3) 0.1688(5)
O13 O 0.0295(12) -0.1867(5) 0.3708(11)
O14 O 0.5297(7) -0.3014(2) 0.4196(6)
O15 O 0.5050(10) -0.1566(4) -0.0090(9)
O16 O 0.0242(6) -0.2867(2) 0.1412(7)
O18 O 0.3759(6) -0.3207(2) 0.0913(5)
O20 O 0.1020(5) -0.3882(2) 0.1851(6)
O22 O -0.0998(6) -0.1664(2) 0.0305(7)
O24 O 0.0208(6) -0.0138(2) 0.1242(5)
O26 O 0.2953(5) -0.0388(2) -0.0364(5)
O28 O 0.8568(6) -0.0479(3) 0.3178(6)
O30 O 0.0525(5) -0.0168(2) -0.1752(5)
O32 O -0.2163(5) -0.0821(2) -0.0861(5)
O34 O 0.4263(6) -0.3975(2) 0.3556(6)
La1A La 0.74987(4) 0.007540(16) 0.73244(3)
La1A_2 La -0.25013(4) 0.007540(16) -0.26756(3)
O8A O 0.1789(5) -0.5972(2) 0.3822(5)
O10A O 0.4272(5) -0.5267(2) 0.5227(4)
O30A O -0.0525(5) -0.5168(2) 0.1752(5)
O32A O 0.2163(5) -0.5821(2) 0.0861(5)
O9 O 0.6748(9) -0.2436(4) 0.1820(9)
O11 O 0.198(2) -0.2190(10) -0.119(2)
O17 O 0.2675(10) 0.1145(5) -0.1401(15)
O19 O 0.3367(10) 0.0344(4) 0.3001(9)
O21 O 0.1853(13) -0.0695(7) 0.5179(14)
O23 O 0.376(2) -0.1973(7) 0.5865(17)
O25 O -0.016(3) 0.1323(8) 0.1728(17)
O27 O 0.406(2) 0.1385(7) 0.1550(19)
O29 O 1.163(2) 0.1216(12) 0.526(2)
O31 O -0.229(3) -0.2527(7) -0.2170(15)
O33 O -0.260(2) 0.1279(15) 0.304(2)
loop_
_geom_bond_atom_site_label_1
_geom_bond_atom_site_label_2
_geom_bond_site_symmetry_1
_geom_bond_site_symmetry_2
C1 C2 1_555 1_555
C2 C3 1_555 1_555
C3 O6 1_555 1_555
C4 C5 1_555 1_555
C5 O16 1_555 1_555
C6 C7 1_555 1_555
C7 C8 1_555 1_555
C8 O26 1_555 1_555
C9 C4 1_555 1_555
Cu1 O2 1_555 1_555
Cu2 O1 1_555 1_555
Cu3 O1 1_555 1_555
La1 O3 1_555 1_555
O1 C2 1_555 1_555
O2 C4 1_555 1_555
O4 C7 1_555 1_555
O5 La1 1_555 1_555
O6 Cu2 1_555 1_555
O7 La1 1_555 1_555
O8 C3 1_555 1_555
O10 C2 1_555 1_555
O12 C1 1_555 1_555
O13 Cu1 1_555 1_555
O14 C9 1_555 1_555
O15 Cu3 1_555 1_555
O16 Cu1 1_555 1_555
O18 C4 1_555 1_555
O20 C5 1_555 1_555
O22 C6 1_555 1_555
O24 C7 1_555 1_555
O26 Cu3 1_555 1_555
O28 C1 1_555 1_555
O30 C8 1_555 1_555
O32 C6 1_555 1_555
O34 C9 1_555 1_555
La1A O8 1_555 1_555
La1A_2 O30 1_555 1_555
O8A La1 1_555 1_555
O10A La1 1_555 1_555
O30A La1 1_555 1_555
O32A La1 1_555 1_555
Cu1 O4 1_555 1_555
Cu1 O22 1_555 1_555
Cu2 O2 1_555 1_555
Cu2 O14 1_555 1_555
Cu3 O4 1_555 1_555
Cu3 O12 1_555 1_555
La1 O20 1_555 1_555
La1 O34 1_555 1_555
O10 La1A 1_555 1_555
O32 La1A_2 1_555 1_555

#END
