
#######################################################################
#
#                 Cambridge Crystallographic Data Centre
#                                CCDC 
#
#######################################################################
#
# If this CIF has been generated from an entry in the Cambridge 
# Structural Database, then it will include bibliographic, chemical, 
# crystal, experimental, refinement or atomic coordinate data resulting 
# from the CCDC's data processing and validation procedures.
#
#######################################################################

data_PASNUU
_symmetry_cell_setting           monoclinic
_symmetry_space_group_name_H-M   'C 2/c'
_symmetry_Int_Tables_number      15
_space_group_name_Hall           '-C 2yn'
loop_
_symmetry_equiv_pos_site_id
_symmetry_equiv_pos_as_xyz
1 x,y,z
2 -x,y,1/2-z
3 1/2+x,1/2+y,z
4 1/2-x,1/2+y,1/2-z
5 -x,-y,-z
6 x,-y,1/2+z
7 1/2-x,1/2-y,-z
8 1/2+x,1/2-y,1/2+z
_cell_length_a                   38.326(3)
_cell_length_b                   11.3340(10)
_cell_length_c                   26.909(4)
_cell_angle_alpha                90
_cell_angle_beta                 131.0310(10)
_cell_angle_gamma                90
_cell_volume                     8817.59
loop_
_atom_site_label
_atom_site_type_symbol
_atom_site_fract_x
_atom_site_fract_y
_atom_site_fract_z
Zn1 Zn 0.156163(12) 0.40365(3) 0.289462(17)
Zn2 Zn 0.083055(12) 0.02728(4) -0.034559(17)
C1 C 0.17432(13) 0.5746(3) 0.3933(2)
H1 H 0.1682 0.6347 0.3650
C2 C 0.18425(16) 0.6038(4) 0.4512(2)
H2 H 0.1846 0.6826 0.4610
C3 C 0.19344(15) 0.5201(5) 0.4934(2)
H3 H 0.2003 0.5406 0.5325
C4 C 0.19260(12) 0.4011(4) 0.47821(17)
C5 C 0.20277(14) 0.3053(5) 0.5197(2)
H4 H 0.2102 0.3203 0.5597
C6 C 0.20200(13) 0.1941(5) 0.5029(2)
H5 H 0.2092 0.1337 0.5317
C7 C 0.19040(12) 0.1647(4) 0.4416(2)
C8 C 0.19001(15) 0.0512(4) 0.4214(3)
H6 H 0.1959 -0.0132 0.4474
C9 C 0.18099(16) 0.0341(3) 0.3639(3)
H7 H 0.1814 -0.0415 0.3508
C10 C 0.17114(14) 0.1318(3) 0.3245(2)
H8 H 0.1646 0.1195 0.2849
C11 C 0.18074(11) 0.2575(3) 0.39959(16)
C12 C 0.18196(10) 0.3769(3) 0.41833(15)
C13 C 0.22337(11) 0.3155(3) 0.28047(15)
C14 C 0.23221(9) 0.2350(2) 0.24421(13)
H9 H 0.2362 0.1569 0.2629
C15 C 0.19146(9) 0.2182(2) 0.17028(13)
H10 H 0.1660 0.1879 0.1668
C16 C 0.20331(9) 0.1187(2) 0.14446(13)
H11 H 0.2077 0.0495 0.1699
C17 C 0.24993(9) 0.1308(2) 0.16077(13)
H12 H 0.2565 0.0521 0.1535
C18 C 0.28866(9) 0.1546(2) 0.23507(13)
H13 H 0.2881 0.0847 0.2560
C19 C 0.27861(10) 0.2579(2) 0.26194(13)
H14 H 0.3021 0.2519 0.3100
C20 C 0.28177(11) 0.3841(3) 0.24536(16)
C21 C 0.33691(10) 0.1526(3) 0.25751(15)
C22 C 0.25295(11) 0.2136(3) 0.11938(16)
C23 C 0.16138(10) 0.0867(3) 0.07395(14)
C24 C 0.17203(10) 0.3254(3) 0.12480(15)
C25 C 0.07266(15) 0.3023(4) -0.0601(2)
H15 H 0.0765 0.3087 -0.0224
C26 C 0.06660(19) 0.4058(5) -0.0930(3)
H16 H 0.0652 0.4787 -0.0785
C27 C 0.0628(2) 0.3975(6) -0.1461(3)
H17 H 0.0592 0.4656 -0.1683
C28 C 0.06398(17) 0.2893(6) -0.1684(2)
C29 C 0.06895(12) 0.1876(4) -0.13286(19)
C30 C 0.0620(3) 0.2677(9) -0.2221(4)
H18 H 0.0618 0.3320 -0.2437
C31 C 0.0604(2) 0.1592(9) -0.2433(3)
H19 H 0.0575 0.1509 -0.2802
C32 C 0.06289(17) 0.0546(7) -0.2103(2)
C33 C 0.0598(2) -0.0616(8) -0.2307(3)
H20 H 0.0555 -0.0755 -0.2685
C34 C 0.06317(19) -0.1542(7) -0.1956(3)
H21 H 0.0609 -0.2312 -0.2094
C35 C 0.07006(14) -0.1322(5) -0.1386(2)
H22 H 0.0729 -0.1955 -0.1142
C36 C 0.06843(13) 0.0715(5) -0.15414(18)
C37 C 0.12292(12) -0.2219(3) 0.03660(18)
H23 H 0.1513 -0.1977 0.0504
C38 C 0.11966(13) -0.3330(4) 0.0547(2)
H24 H 0.1453 -0.3825 0.0796
C39 C 0.07841(15) -0.3692(4) 0.0357(2)
H25 H 0.0757 -0.4436 0.0474
C40 C 0.04035(12) -0.2929(3) -0.00141(18)
C41 C -0.00445(15) -0.3199(4) -0.0233(2)
H26 H -0.0094 -0.3936 -0.0137
C42 C -0.03951(14) -0.2416(4) -0.0573(2)
H27 H -0.0680 -0.2623 -0.0705
C43 C -0.03374(11) -0.1288(3) -0.07324(17)
C44 C -0.06818(12) -0.0413(4) -0.10515(18)
H28 H -0.0974 -0.0580 -0.1200
C45 C -0.05853(12) 0.0674(4) -0.11413(18)
H29 H -0.0809 0.1262 -0.1345
C46 C -0.01482(11) 0.0906(3) -0.09271(16)
H30 H -0.0084 0.1659 -0.0986
C47 C 0.00896(10) -0.0988(3) -0.05357(15)
C48 C 0.04644(10) -0.1828(3) -0.01805(15)
N1 N 0.17089(9) 0.2411(2) 0.34181(14)
N2 N 0.17318(9) 0.4630(2) 0.37662(13)
N3 N 0.05843(16) 0.3657(5) 0.2057(2)
N4 N 0.01787(8) 0.0093(2) -0.06437(12)
N5 N 0.08698(9) -0.1483(2) 0.00008(13)
N6 N 0.07271(10) -0.0227(3) -0.11833(15)
N7 N 0.07334(10) 0.1956(3) -0.07938(14)
O1 O 0.18039(8) 0.3442(2) 0.24779(11)
O2 O 0.25492(8) 0.3426(2) 0.33775(11)
O3 O 0.24935(8) 0.45064(18) 0.21596(12)
O4 O 0.32283(8) 0.4215(2) 0.26963(15)
H31 H 0.3406 0.3654 0.2845
O5 O 0.36627(8) 0.2268(2) 0.29929(13)
O6 O 0.34668(8) 0.07345(19) 0.23624(12)
O7 O 0.27986(9) 0.2943(2) 0.14233(13)
O8 O 0.22735(8) 0.1857(2) 0.05629(11)
H32 H 0.2073 0.1384 0.0459
O9 O 0.16555(7) 0.0445(2) 0.03501(10)
O10 O 0.12241(7) 0.0979(2) 0.05754(10)
O11 O 0.17313(8) 0.33664(19) 0.08167(10)
O12 O 0.14857(8) 0.4023(2) 0.13082(12)
H33 H 0.1529 0.3875 0.1644
O13 O 0.09034(13) 0.3511(5) 0.20899(19)
O14 O 0.01895(12) 0.3358(5) 0.16483(18)
O15 O 0.0701(2) 0.4265(6) 0.2526(3)
Zn1C Zn 0.343837(12) -0.09635(3) 0.210538(17)
O6C O 0.15332(8) 0.57345(19) 0.26376(12)
O16 O 0.45695(12) 0.1289(4) 0.3663(2)
H34 H 0.4286 0.1440 0.3455
H35 H 0.4547 0.0679 0.3460
loop_
_geom_bond_atom_site_label_1
_geom_bond_atom_site_label_2
_geom_bond_site_symmetry_1
_geom_bond_site_symmetry_2
Zn1 N1 1_555 1_555
Zn2 N4 1_555 1_555
C1 H1 1_555 1_555
C2 C1 1_555 1_555
H2 C2 1_555 1_555
C3 C2 1_555 1_555
H3 C3 1_555 1_555
C4 C3 1_555 1_555
C5 C4 1_555 1_555
H4 C5 1_555 1_555
C6 C5 1_555 1_555
H5 C6 1_555 1_555
C7 C6 1_555 1_555
C8 C7 1_555 1_555
H6 C8 1_555 1_555
C9 C8 1_555 1_555
H7 C9 1_555 1_555
C10 C9 1_555 1_555
H8 C10 1_555 1_555
C11 C7 1_555 1_555
C12 C4 1_555 1_555
C13 C14 1_555 1_555
C14 H9 1_555 1_555
C15 C14 1_555 1_555
H10 C15 1_555 1_555
C16 C15 1_555 1_555
H11 C16 1_555 1_555
C17 C16 1_555 1_555
H12 C17 1_555 1_555
C18 C17 1_555 1_555
H13 C18 1_555 1_555
C19 C14 1_555 1_555
H14 C19 1_555 1_555
C20 C19 1_555 1_555
C21 C18 1_555 1_555
C22 C17 1_555 1_555
C23 C16 1_555 1_555
C24 C15 1_555 1_555
C25 H15 1_555 1_555
C26 C25 1_555 1_555
H16 C26 1_555 1_555
C27 C26 1_555 1_555
H17 C27 1_555 1_555
C28 C27 1_555 1_555
C29 C28 1_555 1_555
C30 C28 1_555 1_555
H18 C30 1_555 1_555
C31 C30 1_555 1_555
H19 C31 1_555 1_555
C32 C31 1_555 1_555
C33 C32 1_555 1_555
H20 C33 1_555 1_555
C34 C33 1_555 1_555
H21 C34 1_555 1_555
C35 C34 1_555 1_555
H22 C35 1_555 1_555
C36 C29 1_555 1_555
C37 H23 1_555 1_555
C38 C37 1_555 1_555
H24 C38 1_555 1_555
C39 C38 1_555 1_555
H25 C39 1_555 1_555
C40 C39 1_555 1_555
C41 C40 1_555 1_555
H26 C41 1_555 1_555
C42 C41 1_555 1_555
H27 C42 1_555 1_555
C43 C42 1_555 1_555
C44 C43 1_555 1_555
H28 C44 1_555 1_555
C45 C44 1_555 1_555
H29 C45 1_555 1_555
C46 C45 1_555 1_555
H30 C46 1_555 1_555
C47 C43 1_555 1_555
C48 C40 1_555 1_555
N1 C10 1_555 1_555
N2 Zn1 1_555 1_555
N3 O13 1_555 1_555
N4 C46 1_555 1_555
N5 Zn2 1_555 1_555
N6 Zn2 1_555 1_555
N7 Zn2 1_555 1_555
O1 Zn1 1_555 1_555
O2 C13 1_555 1_555
O3 C20 1_555 1_555
O4 C20 1_555 1_555
H31 O4 1_555 1_555
O5 C21 1_555 1_555
O6 C21 1_555 1_555
O7 C22 1_555 1_555
O8 C22 1_555 1_555
H32 O8 1_555 1_555
O9 Zn2 1_555 1_555
O10 Zn2 1_555 1_555
O11 C24 1_555 1_555
O12 C24 1_555 1_555
H33 O12 1_555 1_555
O13 Zn1 1_555 1_555
O14 N3 1_555 1_555
O15 N3 1_555 1_555
O16 H34 1_555 1_555
H35 O16 1_555 1_555
Zn1C O6 1_555 1_555
O6C Zn1 1_555 1_555
C1 N2 1_555 1_555
C11 C12 1_555 1_555
C11 N1 1_555 1_555
C12 N2 1_555 1_555
C13 O1 1_555 1_555
C18 C19 1_555 1_555
C23 O9 1_555 1_555
C23 O10 1_555 1_555
C25 N7 1_555 1_555
C29 N7 1_555 1_555
C32 C36 1_555 1_555
C35 N6 1_555 1_555
C36 N6 1_555 1_555
C37 N5 1_555 1_555
C47 C48 1_555 1_555
C47 N4 1_555 1_555
C48 N5 1_555 1_555

#END
