
#######################################################################
#
#                 Cambridge Crystallographic Data Centre
#                                CCDC 
#
#######################################################################
#
# If this CIF has been generated from an entry in the Cambridge 
# Structural Database, then it will include bibliographic, chemical, 
# crystal, experimental, refinement or atomic coordinate data resulting 
# from the CCDC's data processing and validation procedures.
#
#######################################################################

data_PASROS
_symmetry_cell_setting           triclinic
_symmetry_space_group_name_H-M   'P -1'
_symmetry_Int_Tables_number      2
_space_group_name_Hall           '-P 1'
loop_
_symmetry_equiv_pos_site_id
_symmetry_equiv_pos_as_xyz
1 x,y,z
2 -x,-y,-z
_cell_length_a                   9.0336(8)
_cell_length_b                   10.1550(9)
_cell_length_c                   15.4904(13)
_cell_angle_alpha                107.6520(10)
_cell_angle_beta                 97.1680(10)
_cell_angle_gamma                105.2960(10)
_cell_volume                     1273.33
loop_
_atom_site_label
_atom_site_type_symbol
_atom_site_fract_x
_atom_site_fract_y
_atom_site_fract_z
Cd1 Cd 0.5000 0.0000 0.5000
Cd2 Cd -0.11754(2) 0.55711(2) 0.587752(14)
N1 N 0.8672(3) 0.5663(2) 0.73546(15)
N2 N 0.9221(3) 0.5692(3) 0.87790(16)
H1 H 0.9610 0.6001 0.9367
N3 N 0.3515(2) 0.1362(2) 0.47158(15)
N4 N 0.2457(2) 0.3086(2) 0.45934(15)
O1 O 0.6338(2) 0.1868(2) 0.65067(13)
O2 O 0.7026(2) 0.3376(2) 0.57362(13)
O3 O 0.6939(4) 0.1910(3) 0.81591(17)
H2 H 0.6859 0.1843 0.7613
O4 O 0.8411(4) 0.3490(3) 0.95091(16)
O5 O 1.2097(3) 1.2592(2) 0.95000(18)
O6 O 0.2943(2) -0.0372(2) 0.58039(14)
O7 O 0.1203(3) 0.0615(3) 0.63639(17)
H3 H 0.0860 0.1277 0.6339
O8 O 0.0147(3) 0.2617(2) 0.62711(15)
O9 O 0.0460(2) 0.4205(2) 0.55279(14)
O10 O 0.6666(3) 0.3522(3) 0.15931(16)
O11 O 0.1217(3) 0.7492(3) 0.64888(18)
H4 H 0.1794 0.7816 0.6157
H5 H 0.0766 0.8142 0.6601
C1 C 0.7059(3) 0.3099(3) 0.64653(18)
C2 C 0.7987(3) 0.4293(3) 0.73612(18)
C3 C 0.8316(4) 0.4294(3) 0.8246(2)
C4 C 0.7894(5) 0.3194(4) 0.8689(2)
C5 C 0.9403(3) 0.6505(3) 0.82292(19)
C6 C 1.0179(4) 0.8089(3) 0.85686(19)
C7 C 1.1426(4) 0.8779(3) 0.9338(2)
H6 H 1.1807 0.8229 0.9638
C8 C 1.2111(4) 1.0283(3) 0.9665(2)
H7 H 1.2955 1.0742 1.0178
C9 C 1.1523(4) 1.1090(3) 0.9219(2)
C10 C 1.0285(4) 1.0415(3) 0.8453(2)
H8 H 0.9908 1.0968 0.8154
C11 C 0.9608(4) 0.8929(3) 0.8131(2)
H9 H 0.8764 0.8478 0.7619
C12 C 1.3527(5) 1.3300(4) 1.0193(3)
H10 H 1.3815 1.4334 1.0331
H11 H 1.4347 1.2954 0.9967
H12 H 1.3382 1.3089 1.0746
C13 C 0.2216(3) 0.0517(3) 0.5846(2)
C14 C 0.2484(3) 0.1472(3) 0.52934(18)
C15 C 0.1844(3) 0.2530(3) 0.52195(18)
C16 C 0.0732(3) 0.3151(3) 0.57084(19)
C17 C 0.3468(3) 0.2353(3) 0.43081(18)
C18 C 0.4365(3) 0.2669(3) 0.36257(18)
C19 C 0.4860(3) 0.4084(3) 0.3616(2)
H13 H 0.4664 0.4827 0.4063
C20 C 0.5635(3) 0.4403(3) 0.2954(2)
H14 H 0.5971 0.5359 0.2966
C21 C 0.5914(4) 0.3318(4) 0.2277(2)
C22 C 0.5438(4) 0.1901(4) 0.2275(2)
H15 H 0.5629 0.1162 0.1822
C23 C 0.4678(4) 0.1583(3) 0.2950(2)
H16 H 0.4375 0.0633 0.2948
C24 C 0.7276(5) 0.4969(5) 0.1601(3)
H17 H 0.7778 0.4957 0.1089
H18 H 0.8031 0.5559 0.2173
H19 H 0.6432 0.5369 0.1546
Cd1_2 Cd -0.5000 1.0000 0.5000
Cd2A Cd 0.11754(2) 0.44289(2) 0.412248(14)
Cd2_2 Cd 0.88246(2) 0.55711(2) 0.587752(14)
Cd2A_2 Cd 0.11754(2) -0.55711(2) 0.412248(14)
N1A N 0.1328(3) -0.5663(2) 0.26454(15)
N1_2 N -0.1328(3) 0.5663(2) 0.73546(15)
N1A_2 N 0.1328(3) 0.4337(2) 0.26454(15)
N2A N 0.0779(3) -0.5692(3) 0.12210(16)
H1A H 0.0390 -0.6001 0.0633
N3A N -0.3515(2) 0.8638(2) 0.52842(15)
N3A_2 N 0.6485(2) -0.1362(2) 0.52842(15)
N4A N -0.2457(2) 0.6914(2) 0.54066(15)
O1A O 0.3662(2) -0.1868(2) 0.34933(13)
O2A O 0.2974(2) -0.3376(2) 0.42638(13)
O2_2 O -0.2974(2) 0.3376(2) 0.57362(13)
O2A_2 O 0.2974(2) 0.6624(2) 0.42638(13)
O3A O 0.3061(4) -0.1910(3) 0.18409(17)
H2A H 0.3141 -0.1843 0.2387
O4A O 0.1589(4) -0.3490(3) 0.04909(16)
O5A O -0.2097(3) -1.2592(2) 0.05000(18)
O6A O -0.2943(2) 1.0372(2) 0.41961(14)
O6A_2 O 0.7057(2) 0.0372(2) 0.41961(14)
O7A O -0.1203(3) 0.9385(3) 0.36361(17)
H3A H -0.0860 0.8723 0.3661
O8A O -0.0147(3) 0.7383(2) 0.37289(15)
O9A O -0.0460(2) 0.5795(2) 0.44721(14)
O10A O -0.6666(3) 0.6478(3) 0.84069(16)
O11A O -0.1217(3) 0.2508(3) 0.35112(18)
H4A H -0.1794 0.2184 0.3843
H5A H -0.0766 0.1858 0.3399
C1A C 0.2941(3) -0.3099(3) 0.35347(18)
C2A C 0.2013(3) -0.4293(3) 0.26388(18)
C3A C 0.1684(4) -0.4294(3) 0.1754(2)
C4A C 0.2106(5) -0.3194(4) 0.1311(2)
C5A C 0.0597(3) -0.6505(3) 0.17708(19)
C6A C -0.0179(4) -0.8089(3) 0.14314(19)
C7A C -0.1426(4) -0.8779(3) 0.0662(2)
H6A H -0.1807 -0.8229 0.0362
C8A C -0.2111(4) -1.0283(3) 0.0335(2)
H7A H -0.2955 -1.0742 -0.0178
C9A C -0.1523(4) -1.1090(3) 0.0781(2)
C10A C -0.0285(4) -1.0415(3) 0.1547(2)
H8A H 0.0092 -1.0968 0.1846
C11A C 0.0392(4) -0.8929(3) 0.1869(2)
H9A H 0.1236 -0.8478 0.2381
C12A C -0.3527(5) -1.3300(4) -0.0193(3)
H10A H -0.3815 -1.4334 -0.0331
H11A H -0.4347 -1.2954 0.0033
H12A H -0.3382 -1.3089 -0.0746
C13A C -0.2216(3) 0.9483(3) 0.4154(2)
C14A C -0.2484(3) 0.8528(3) 0.47066(18)
C15A C -0.1844(3) 0.7470(3) 0.47805(18)
C16A C -0.0732(3) 0.6849(3) 0.42916(19)
C17A C -0.3468(3) 0.7647(3) 0.56919(18)
C18A C -0.4365(3) 0.7331(3) 0.63743(18)
C19A C -0.4860(3) 0.5916(3) 0.6384(2)
H13A H -0.4664 0.5173 0.5937
C20A C -0.5635(3) 0.5597(3) 0.7046(2)
H14A H -0.5971 0.4641 0.7034
C21A C -0.5914(4) 0.6682(4) 0.7723(2)
C22A C -0.5438(4) 0.8099(4) 0.7725(2)
H15A H -0.5629 0.8838 0.8178
C23A C -0.4678(4) 0.8417(3) 0.7050(2)
H16A H -0.4375 0.9367 0.7052
C24A C -0.7276(5) 0.5031(5) 0.8399(3)
H17A H -0.7778 0.5043 0.8911
H18A H -0.8031 0.4441 0.7827
H19A H -0.6432 0.4631 0.8454
loop_
_geom_bond_atom_site_label_1
_geom_bond_atom_site_label_2
_geom_bond_site_symmetry_1
_geom_bond_site_symmetry_2
Cd1 N3 1_555 1_555
Cd2 O9 1_555 1_555
N1 C2 1_555 1_555
N2 H1 1_555 1_555
N3 C14 1_555 1_555
N4 C15 1_555 1_555
O1 Cd1 1_555 1_555
O2 C1 1_555 1_555
O3 H2 1_555 1_555
O4 C4 1_555 1_555
O5 C9 1_555 1_555
O6 Cd1 1_555 1_555
O7 H3 1_555 1_555
O8 C16 1_555 1_555
O9 C16 1_555 1_555
O10 C21 1_555 1_555
O11 Cd2 1_555 1_555
H4 O11 1_555 1_555
H5 O11 1_555 1_555
C1 O1 1_555 1_555
C2 C1 1_555 1_555
C3 N2 1_555 1_555
C4 O3 1_555 1_555
C5 N1 1_555 1_555
C6 C5 1_555 1_555
C7 C6 1_555 1_555
H6 C7 1_555 1_555
C8 C7 1_555 1_555
H7 C8 1_555 1_555
C9 C8 1_555 1_555
C10 C9 1_555 1_555
H8 C10 1_555 1_555
C11 C6 1_555 1_555
H9 C11 1_555 1_555
C12 O5 1_555 1_555
H10 C12 1_555 1_555
H11 C12 1_555 1_555
H12 C12 1_555 1_555
C13 O6 1_555 1_555
C14 C13 1_555 1_555
C15 C14 1_555 1_555
C16 C15 1_555 1_555
C17 N3 1_555 1_555
C18 C17 1_555 1_555
C19 C18 1_555 1_555
H13 C19 1_555 1_555
C20 C19 1_555 1_555
H14 C20 1_555 1_555
C21 C20 1_555 1_555
C22 C21 1_555 1_555
H15 C22 1_555 1_555
C23 C18 1_555 1_555
H16 C23 1_555 1_555
C24 O10 1_555 1_555
H17 C24 1_555 1_555
H18 C24 1_555 1_555
H19 C24 1_555 1_555
Cd1_2 N3A 1_555 1_555
Cd2A N4 1_555 1_555
Cd2_2 N1 1_555 1_555
Cd2A_2 N1A 1_555 1_555
N1A C2A 1_555 1_555
N1_2 Cd2 1_555 1_555
N1A_2 Cd2A 1_555 1_555
N2A H1A 1_555 1_555
N3A C14A 1_555 1_555
N3A_2 Cd1 1_555 1_555
N4A Cd2 1_555 1_555
O1A Cd1 1_555 1_555
O2A Cd2A_2 1_555 1_555
O2_2 Cd2 1_555 1_555
O2A_2 Cd2A 1_555 1_555
O3A H2A 1_555 1_555
O4A C4A 1_555 1_555
O5A C9A 1_555 1_555
O6A Cd1_2 1_555 1_555
O6A_2 Cd1 1_555 1_555
O7A H3A 1_555 1_555
O8A C16A 1_555 1_555
O9A Cd2 1_555 1_555
O10A C21A 1_555 1_555
O11A Cd2A 1_555 1_555
H4A O11A 1_555 1_555
H5A O11A 1_555 1_555
C1A O1A 1_555 1_555
C2A C1A 1_555 1_555
C3A N2A 1_555 1_555
C4A O3A 1_555 1_555
C5A N1A 1_555 1_555
C6A C5A 1_555 1_555
C7A C6A 1_555 1_555
H6A C7A 1_555 1_555
C8A C7A 1_555 1_555
H7A C8A 1_555 1_555
C9A C8A 1_555 1_555
C10A C9A 1_555 1_555
H8A C10A 1_555 1_555
C11A C6A 1_555 1_555
H9A C11A 1_555 1_555
C12A O5A 1_555 1_555
H10A C12A 1_555 1_555
H11A C12A 1_555 1_555
H12A C12A 1_555 1_555
C13A O6A 1_555 1_555
C14A C13A 1_555 1_555
C15A N4A 1_555 1_555
C16A O9A 1_555 1_555
C17A N3A 1_555 1_555
C18A C17A 1_555 1_555
C19A C18A 1_555 1_555
H13A C19A 1_555 1_555
C20A C19A 1_555 1_555
H14A C20A 1_555 1_555
C21A C20A 1_555 1_555
C22A C21A 1_555 1_555
H15A C22A 1_555 1_555
C23A C18A 1_555 1_555
H16A C23A 1_555 1_555
C24A O10A 1_555 1_555
H17A C24A 1_555 1_555
H18A C24A 1_555 1_555
H19A C24A 1_555 1_555
N2 C5 1_555 1_555
N4 C17 1_555 1_555
O2 Cd2_2 1_555 1_555
O7 C13 1_555 1_555
O9 Cd2A 1_555 1_555
C2 C3 1_555 1_555
C3 C4 1_555 1_555
C10 C11 1_555 1_555
C22 C23 1_555 1_555
Cd2A O9A 1_555 1_555
N2A C5A 1_555 1_555
N4A C17A 1_555 1_555
O2A C1A 1_555 1_555
O7A C13A 1_555 1_555
C2A C3A 1_555 1_555
C3A C4A 1_555 1_555
C10A C11A 1_555 1_555
C14A C15A 1_555 1_555
C15A C16A 1_555 1_555
C22A C23A 1_555 1_555

#END
