
#######################################################################
#
#                 Cambridge Crystallographic Data Centre
#                                CCDC 
#
#######################################################################
#
# If this CIF has been generated from an entry in the Cambridge 
# Structural Database, then it will include bibliographic, chemical, 
# crystal, experimental, refinement or atomic coordinate data resulting 
# from the CCDC's data processing and validation procedures.
#
#######################################################################

data_PASTOU
_symmetry_cell_setting           rhombohedral
_symmetry_space_group_name_H-M   'R -3'
_symmetry_Int_Tables_number      148
_space_group_name_Hall           '-R 3'
loop_
_symmetry_equiv_pos_site_id
_symmetry_equiv_pos_as_xyz
1 x,y,z
2 -y,x-y,z
3 -x+y,-x,z
4 2/3+x,1/3+y,1/3+z
5 2/3-y,1/3+x-y,1/3+z
6 2/3-x+y,1/3-x,1/3+z
7 1/3+x,2/3+y,2/3+z
8 1/3-y,2/3+x-y,2/3+z
9 1/3-x+y,2/3-x,2/3+z
10 -x,-y,-z
11 y,-x+y,-z
12 x-y,x,-z
13 1/3-x,2/3-y,2/3-z
14 1/3+y,2/3-x+y,2/3-z
15 1/3+x-y,2/3+x,2/3-z
16 2/3-x,1/3-y,1/3-z
17 2/3+y,1/3-x+y,1/3-z
18 2/3+x-y,1/3+x,1/3-z
_cell_length_a                   22.496(3)
_cell_length_b                   22.496(3)
_cell_length_c                   14.870(3)
_cell_angle_alpha                90
_cell_angle_beta                 90
_cell_angle_gamma                120
_cell_volume                     6517.07
loop_
_atom_site_label
_atom_site_type_symbol
_atom_site_fract_x
_atom_site_fract_y
_atom_site_fract_z
Cd1 Cd 0.388250(19) 0.263120(19) 0.64700(2)
N1 N 0.4673(3) 0.2335(3) 0.9271(4)
N2 N 0.4257(3) 0.2552(2) 0.8015(3)
N3 N 0.4031(2) 0.2732(2) 0.8759(3)
N4 N 0.3894(2) 0.3549(2) 0.7177(3)
N5 N 0.3987(2) 0.4230(2) 0.8362(3)
C1 C 0.4639(4) 0.2321(3) 0.8368(5)
H1 H 0.4869 0.2159 0.8017
C2 C 0.4276(4) 0.2596(3) 0.9491(4)
H2 H 0.4184 0.2672 1.0076
C3 C 0.3555(3) 0.2993(3) 0.8680(3)
H3 H 0.3476 0.3122 0.9272
H4 H 0.3119 0.2631 0.8453
C4 C 0.3821(3) 0.3602(2) 0.8065(3)
C5 C 0.4131(3) 0.4212(3) 0.6862(3)
C6 C 0.4301(3) 0.4478(3) 0.5992(4)
H5 H 0.4262 0.4199 0.5507
C7 C 0.4526(4) 0.5163(3) 0.5877(4)
H6 H 0.4645 0.5353 0.5304
C8 C 0.4580(4) 0.5578(3) 0.6601(4)
H7 H 0.4730 0.6040 0.6500
C9 C 0.4418(3) 0.5325(3) 0.7457(4)
H8 H 0.4459 0.5607 0.7939
C10 C 0.4190(3) 0.4634(2) 0.7582(4)
C11 C 0.5572(5) 0.3220(6) 0.5825(10)
H9 H 0.5391 0.2738 0.5734
H10 H 0.5942 0.3388 0.6251
H11 H 0.5740 0.3458 0.5264
Cl1 Cl 0.40519(7) 0.15604(7) 0.63066(9)
H12 H 0.524(3) 0.367(2) 0.651(4)
O1 O 0.5059(2) 0.3333(2) 0.6152(3)
Cd1D Cd 0.403547(19) 0.458463(27) 0.98033(2)
Cd1O Cd 0.278417(19) 0.070213(19) 0.68633(2)
N5H N 0.3576(3) 0.2680(2) 0.5029(3)
Cl1O Cl 0.26148(7) 0.17729(7) 0.70267(9)
loop_
_geom_bond_atom_site_label_1
_geom_bond_atom_site_label_2
_geom_bond_site_symmetry_1
_geom_bond_site_symmetry_2
Cd1 N2 1_555 1_555
N1 C1 1_555 1_555
N2 N3 1_555 1_555
N3 C2 1_555 1_555
N4 Cd1 1_555 1_555
N5 C4 1_555 1_555
C1 N2 1_555 1_555
H1 C1 1_555 1_555
C2 N1 1_555 1_555
H2 C2 1_555 1_555
C3 N3 1_555 1_555
H3 C3 1_555 1_555
H4 C3 1_555 1_555
C4 N4 1_555 1_555
C5 N4 1_555 1_555
C6 C5 1_555 1_555
H5 C6 1_555 1_555
C7 C6 1_555 1_555
H6 C7 1_555 1_555
C8 C7 1_555 1_555
H7 C8 1_555 1_555
C9 C8 1_555 1_555
H8 C9 1_555 1_555
C10 N5 1_555 1_555
C11 H9 1_555 1_555
H10 C11 1_555 1_555
H11 C11 1_555 1_555
Cl1 Cd1 1_555 1_555
H12 O1 1_555 1_555
O1 Cd1 1_555 1_555
Cd1D N5 1_555 1_555
Cd1O Cl1 1_555 1_555
N5H Cd1 1_555 1_555
Cl1O Cd1 1_555 1_555
C3 C4 1_555 1_555
C5 C10 1_555 1_555
C9 C10 1_555 1_555
C11 O1 1_555 1_555
Cd1O Cl1O 1_555 1_555

#END
