
#######################################################################
#
#                 Cambridge Crystallographic Data Centre
#                                CCDC 
#
#######################################################################
#
# If this CIF has been generated from an entry in the Cambridge 
# Structural Database, then it will include bibliographic, chemical, 
# crystal, experimental, refinement or atomic coordinate data resulting 
# from the CCDC's data processing and validation procedures.
#
#######################################################################

data_PASWIR
_symmetry_cell_setting           rhombohedral
_symmetry_space_group_name_H-M   'R 3'
_symmetry_Int_Tables_number      146
_space_group_name_Hall           'R 3'
loop_
_symmetry_equiv_pos_site_id
_symmetry_equiv_pos_as_xyz
1 x,y,z
2 -y,x-y,z
3 -x+y,-x,z
4 2/3+x,1/3+y,1/3+z
5 2/3-y,1/3+x-y,1/3+z
6 2/3-x+y,1/3-x,1/3+z
7 1/3+x,2/3+y,2/3+z
8 1/3-y,2/3+x-y,2/3+z
9 1/3-x+y,2/3-x,2/3+z
_cell_length_a                   24.2284(10)
_cell_length_b                   24.2284(10)
_cell_length_c                   20.6629(16)
_cell_angle_alpha                90
_cell_angle_beta                 90
_cell_angle_gamma                120
_cell_volume                     10504.4
loop_
_atom_site_label
_atom_site_type_symbol
_atom_site_fract_x
_atom_site_fract_y
_atom_site_fract_z
Ag1 Ag -0.07670(5) 0.29080(3) 0.44735(3)
Ag2 Ag -0.25556(6) 0.03366(4) 0.55580(4)
Ag3 Ag -0.3333 0.3333 0.33800(8)
Ag4 Ag 0.0000 0.0000 0.63378(9)
C1 C -0.1479(7) 0.4073(5) 0.4434(5)
H1 H -0.1355 0.4262 0.4850
C2 C -0.2091(8) 0.3836(6) 0.4227(6)
H2 H -0.2386 0.3850 0.4520
C3 C -0.1897(7) 0.3547(5) 0.3254(6)
H3 H -0.2040 0.3370 0.2836
C4 C -0.1256(7) 0.3753(5) 0.3425(5)
H4 H -0.0977 0.3703 0.3139
C5 C -0.1046(6) 0.4040(4) 0.4046(5)
C6 C -0.0370(6) 0.4326(4) 0.4247(5)
H5 H -0.0117 0.4737 0.4018
H6 H -0.0339 0.4417 0.4716
C7 C 0.0572(6) 0.4179(4) 0.4396(5)
H7 H 0.0567 0.4347 0.4837
C8 C 0.1074(7) 0.4730(5) 0.3999(6)
H8 H 0.0970 0.5076 0.3984
H9 H 0.1067 0.4584 0.3550
C9 C 0.1746(7) 0.4992(5) 0.4281(6)
H10 H 0.1774 0.5207 0.4697
H11 H 0.2060 0.5314 0.3981
C10 C 0.1918(7) 0.4464(5) 0.4395(5)
H12 H 0.1975 0.4305 0.3973
H13 H 0.2325 0.4643 0.4635
C11 C 0.1395(8) 0.3917(5) 0.4777(6)
H14 H 0.1497 0.3570 0.4812
H15 H 0.1385 0.4066 0.5221
C12 C 0.0737(6) 0.3651(4) 0.4478(4)
H16 H 0.0753 0.3491 0.4036
C13 C 0.0294(7) 0.2552(5) 0.4901(7)
H17 H 0.0637 0.2636 0.5214
H18 H 0.0417 0.2458 0.4476
C14 C -0.0327(7) 0.1977(5) 0.5126(6)
C15 C -0.0596(7) 0.1404(5) 0.4814(6)
H19 H -0.0372 0.1340 0.4472
C16 C -0.1197(8) 0.0911(5) 0.4990(6)
H20 H -0.1370 0.0514 0.4771
C17 C -0.1274(7) 0.1538(5) 0.5770(5)
H21 H -0.1509 0.1595 0.6105
C18 C -0.0669(7) 0.2036(5) 0.5620(5)
H22 H -0.0492 0.2420 0.5863
C19 C -0.2515(8) 0.1085(5) 0.4254(6)
H23 H -0.2614 0.0696 0.4047
C20 C -0.1928(7) 0.1622(5) 0.4167(5)
H24 H -0.1631 0.1602 0.3883
C21 C -0.2201(7) 0.2215(5) 0.4811(6)
H25 H -0.2109 0.2614 0.4988
C22 C -0.2808(8) 0.1676(6) 0.4920(6)
H26 H -0.3109 0.1710 0.5187
C23 C -0.2957(8) 0.1120(5) 0.4647(6)
C24 C -0.3609(9) 0.0525(6) 0.4789(7)
H27 H -0.3937 0.0650 0.4846
H28 H -0.3737 0.0223 0.4422
C25 C -0.4067(6) -0.0439(4) 0.5434(5)
H29 H -0.4072 -0.0666 0.5028
C26 C -0.4738(8) -0.0519(6) 0.5511(7)
H30 H -0.4742 -0.0276 0.5894
H31 H -0.4837 -0.0341 0.5126
C27 C -0.5251(8) -0.1215(5) 0.5590(6)
H32 H -0.5670 -0.1246 0.5655
H33 H -0.5275 -0.1454 0.5192
C28 C -0.5100(8) -0.1504(5) 0.6160(5)
H34 H -0.5432 -0.1958 0.6201
H35 H -0.5104 -0.1282 0.6561
C29 C -0.4455(8) -0.1453(5) 0.6084(6)
H36 H -0.4466 -0.1709 0.5706
H37 H -0.4364 -0.1633 0.6473
C30 C -0.3912(6) -0.0757(4) 0.5990(5)
H38 H -0.3884 -0.0519 0.6395
C31 C -0.3036(8) -0.0908(6) 0.6419(6)
H39 H -0.3254 -0.1379 0.6416
H40 H -0.3140 -0.0776 0.6834
C32 C -0.2330(7) -0.0650(5) 0.6391(6)
C33 C -0.2048(8) -0.0709(5) 0.5840(6)
H41 H -0.2303 -0.0888 0.5465
C34 C -0.1411(8) -0.0520(6) 0.5807(7)
H42 H -0.1233 -0.0578 0.5420
C35 C -0.1310(7) -0.0146(5) 0.6863(6)
H43 H -0.1048 0.0081 0.7221
C36 C -0.1950(7) -0.0358(5) 0.6898(6)
H44 H -0.2126 -0.0298 0.7285
N1 N -0.2305(6) 0.3588(4) 0.3645(5)
N2 N -0.0085(5) 0.3917(3) 0.4114(4)
H45 H -0.0050 0.3897 0.3667
N3 N 0.0227(6) 0.3106(4) 0.4847(4)
H46 H 0.0259 0.3255 0.5268
N4 N -0.1535(6) 0.0980(4) 0.5455(4)
N5 N -0.1761(6) 0.2182(4) 0.4477(4)
N6 N -0.3558(6) 0.0232(4) 0.5358(5)
H47 H -0.3620 0.0449 0.5695
N7 N -0.3290(6) -0.0698(4) 0.5885(4)
H48 H -0.3338 -0.0960 0.5535
N8 N -0.1034(6) -0.0245(4) 0.6342(5)
Ag1A Ag -0.29080(3) -0.36750(6) 0.44735(3)
Ag1B Ag 0.36750(6) 0.07670(5) 0.44735(3)
Ag2A Ag -0.03366(4) -0.28922(7) 0.55580(4)
Ag2B Ag 0.28922(7) 0.25556(6) 0.55580(4)
Ag3A Ag -0.3333 -0.6666 0.33800(8)
Ag3B Ag 0.6666 0.3333 0.33800(8)
C1A C -0.4073(5) -0.5552(9) 0.4434(5)
C1B C 0.5552(9) 0.1479(7) 0.4434(5)
H1A H -0.4262 -0.5617 0.4850
H1B H 0.5617 0.1355 0.4850
C2A C -0.3836(6) -0.5927(10) 0.4227(6)
C2B C 0.5927(10) 0.2091(8) 0.4227(6)
H2A H -0.3850 -0.6236 0.4520
H2B H 0.6236 0.2386 0.4520
C3A C -0.3547(5) -0.5444(9) 0.3254(6)
C3B C 0.5444(9) 0.1897(7) 0.3254(6)
H3A H -0.3370 -0.5410 0.2836
H3B H 0.5410 0.2040 0.2836
C4A C -0.3753(5) -0.5009(9) 0.3425(5)
C4B C 0.5009(9) 0.1256(7) 0.3425(5)
H4A H -0.3703 -0.4680 0.3139
H4B H 0.4680 0.0977 0.3139
C5A C -0.4040(4) -0.5086(7) 0.4046(5)
C5B C 0.5086(7) 0.1046(6) 0.4046(5)
C6A C -0.4326(4) -0.4696(7) 0.4247(5)
C6B C 0.4696(7) 0.0370(6) 0.4247(5)
H5A H -0.4737 -0.4854 0.4018
H5B H 0.4854 0.0117 0.4018
H6A H -0.4417 -0.4756 0.4716
H6B H 0.4756 0.0339 0.4716
C7A C -0.4179(4) -0.3607(7) 0.4396(5)
C7B C 0.3607(7) -0.0572(6) 0.4396(5)
H7A H -0.4347 -0.3780 0.4837
H7B H 0.3780 -0.0567 0.4837
C8A C -0.4730(5) -0.3656(9) 0.3999(6)
C8B C 0.3656(9) -0.1074(7) 0.3999(6)
H8A H -0.5076 -0.4106 0.3984
H8B H 0.4106 -0.0970 0.3984
H9A H -0.4584 -0.3517 0.3550
H9B H 0.3517 -0.1067 0.3550
C9A C -0.4992(5) -0.3246(9) 0.4281(6)
C9B C 0.3246(9) -0.1746(7) 0.4281(6)
H10A H -0.5207 -0.3433 0.4697
H10B H 0.3433 -0.1774 0.4697
H11A H -0.5314 -0.3254 0.3981
H11B H 0.3254 -0.2060 0.3981
C10A C -0.4464(5) -0.2546(9) 0.4395(5)
C10B C 0.2546(9) -0.1918(7) 0.4395(5)
H12A H -0.4305 -0.2330 0.3973
H12B H 0.2330 -0.1975 0.3973
H13A H -0.4643 -0.2318 0.4635
H13B H 0.2318 -0.2325 0.4635
C11A C -0.3917(5) -0.2522(9) 0.4777(6)
C11B C 0.2522(9) -0.1395(8) 0.4777(6)
H14A H -0.3570 -0.2073 0.4812
H14B H 0.2073 -0.1497 0.4812
H15A H -0.4066 -0.2681 0.5221
H15B H 0.2681 -0.1385 0.5221
C12A C -0.3651(4) -0.2914(7) 0.4478(4)
C12B C 0.2914(7) -0.0737(6) 0.4478(4)
H16A H -0.3491 -0.2738 0.4036
H16B H 0.2738 -0.0753 0.4036
C13A C -0.2552(5) -0.2258(9) 0.4901(7)
C13B C 0.2258(9) -0.0294(7) 0.4901(7)
H17A H -0.2636 -0.1999 0.5214
H17B H 0.1999 -0.0637 0.5214
H18A H -0.2458 -0.2041 0.4476
H18B H 0.2041 -0.0417 0.4476
C14A C -0.1977(5) -0.2304(9) 0.5126(6)
C14B C 0.2304(9) 0.0327(7) 0.5126(6)
C15A C -0.1404(5) -0.2000(9) 0.4814(6)
C15B C 0.2000(9) 0.0596(7) 0.4814(6)
H19A H -0.1340 -0.1712 0.4472
H19B H 0.1712 0.0372 0.4472
C16A C -0.0911(5) -0.2108(9) 0.4990(6)
C16B C 0.2108(9) 0.1197(8) 0.4990(6)
H20A H -0.0514 -0.1884 0.4771
H20B H 0.1884 0.1370 0.4771
C17A C -0.1538(5) -0.2812(9) 0.5770(5)
C17B C 0.2812(9) 0.1274(7) 0.5770(5)
H21A H -0.1595 -0.3104 0.6105
H21B H 0.3104 0.1509 0.6105
C18A C -0.2036(5) -0.2705(9) 0.5620(5)
C18B C 0.2705(9) 0.0669(7) 0.5620(5)
H22A H -0.2420 -0.2912 0.5863
H22B H 0.2912 0.0492 0.5863
C19A C -0.1085(5) -0.3600(9) 0.4254(6)
C19B C 0.3600(9) 0.2515(8) 0.4254(6)
H23A H -0.0696 -0.3310 0.4047
H23B H 0.3310 0.2614 0.4047
C20A C -0.1622(5) -0.3550(9) 0.4167(5)
C20B C 0.3550(9) 0.1928(7) 0.4167(5)
H24A H -0.1602 -0.3233 0.3883
H24B H 0.3233 0.1631 0.3883
C21A C -0.2215(5) -0.4416(9) 0.4811(6)
C21B C 0.4416(9) 0.2201(7) 0.4811(6)
H25A H -0.2614 -0.4723 0.4988
H25B H 0.4723 0.2109 0.4988
C22A C -0.1676(6) -0.4484(10) 0.4920(6)
C22B C 0.4484(10) 0.2808(8) 0.4920(6)
H26A H -0.1710 -0.4819 0.5187
H26B H 0.4819 0.3109 0.5187
C23A C -0.1120(5) -0.4077(9) 0.4647(6)
C23B C 0.4077(9) 0.2957(8) 0.4647(6)
C24A C -0.0525(6) -0.4134(11) 0.4789(7)
C24B C 0.4134(11) 0.3609(9) 0.4789(7)
H27A H -0.0650 -0.4587 0.4846
H27B H 0.4587 0.3937 0.4846
H28A H -0.0223 -0.3960 0.4422
H28B H 0.3960 0.3737 0.4422
C25A C 0.0439(4) -0.3628(7) 0.5434(5)
C25B C 0.3628(7) 0.4067(6) 0.5434(5)
H29A H 0.0666 -0.3406 0.5028
H29B H 0.3406 0.4072 0.5028
C26A C 0.0519(6) -0.4219(10) 0.5511(7)
C26B C 0.4219(10) 0.4738(8) 0.5511(7)
H30A H 0.0276 -0.4466 0.5894
H30B H 0.4466 0.4742 0.5894
H31A H 0.0341 -0.4496 0.5126
H31B H 0.4496 0.4837 0.5126
C27A C 0.1215(5) -0.4036(9) 0.5590(6)
C27B C 0.4036(9) 0.5251(8) 0.5590(6)
H32A H 0.1246 -0.4424 0.5655
H32B H 0.4424 0.5670 0.5655
H33A H 0.1454 -0.3821 0.5192
H33B H 0.3821 0.5275 0.5192
C28A C 0.1504(5) -0.3596(9) 0.6160(5)
C28B C 0.3596(9) 0.5100(8) 0.6160(5)
H34A H 0.1958 -0.3474 0.6201
H34B H 0.3474 0.5432 0.6201
H35A H 0.1282 -0.3822 0.6561
H35B H 0.3822 0.5104 0.6561
C29A C 0.1453(5) -0.3002(9) 0.6084(6)
C29B C 0.3002(9) 0.4455(8) 0.6084(6)
H36A H 0.1709 -0.2757 0.5706
H36B H 0.2757 0.4466 0.5706
H37A H 0.1633 -0.2731 0.6473
H37B H 0.2731 0.4364 0.6473
C30A C 0.0757(4) -0.3155(7) 0.5990(5)
C30B C 0.3155(7) 0.3912(6) 0.5990(5)
H38A H 0.0519 -0.3365 0.6395
H38B H 0.3365 0.3884 0.6395
C31A C 0.0908(6) -0.2128(10) 0.6419(6)
C31B C 0.2128(10) 0.3036(8) 0.6419(6)
H39A H 0.1379 -0.1875 0.6416
H39B H 0.1875 0.3254 0.6416
H40A H 0.0776 -0.2364 0.6834
H40B H 0.2364 0.3140 0.6834
C32A C 0.0650(5) -0.1680(9) 0.6391(6)
C32B C 0.1680(9) 0.2330(7) 0.6391(6)
C33A C 0.0709(5) -0.1339(9) 0.5840(6)
C33B C 0.1339(9) 0.2048(8) 0.5840(6)
H41A H 0.0888 -0.1415 0.5465
H41B H 0.1415 0.2303 0.5465
C34A C 0.0520(6) -0.0891(10) 0.5807(7)
C34B C 0.0891(10) 0.1411(8) 0.5807(7)
H42A H 0.0578 -0.0655 0.5420
H42B H 0.0655 0.1233 0.5420
C35A C 0.0146(5) -0.1164(9) 0.6863(6)
C35B C 0.1164(9) 0.1310(7) 0.6863(6)
H43A H -0.0081 -0.1129 0.7221
H43B H 0.1129 0.1048 0.7221
C36A C 0.0358(5) -0.1592(9) 0.6898(6)
C36B C 0.1592(9) 0.1950(7) 0.6898(6)
H44A H 0.0298 -0.1828 0.7285
H44B H 0.1828 0.2126 0.7285
N1A N -0.3588(4) -0.5893(7) 0.3645(5)
N1B N 0.5893(7) 0.2305(6) 0.3645(5)
N1A_2 N -0.3588(4) 0.4107(7) 0.3645(5)
N1B_2 N -0.4107(7) 0.2305(6) 0.3645(5)
N2A N -0.3917(3) -0.4002(6) 0.4114(4)
N2B N 0.4002(6) 0.0085(5) 0.4114(4)
H45A H -0.3897 -0.3947 0.3667
H45B H 0.3947 0.0050 0.3667
N3A N -0.3106(4) -0.2879(7) 0.4847(4)
N3B N 0.2879(7) -0.0227(6) 0.4847(4)
H46A H -0.3255 -0.2996 0.5268
H46B H 0.2996 -0.0259 0.5268
N4A N -0.0980(4) -0.2515(7) 0.5455(4)
N4B N 0.2515(7) 0.1535(6) 0.5455(4)
N5A N -0.2182(4) -0.3943(7) 0.4477(4)
N5B N 0.3943(7) 0.1761(6) 0.4477(4)
N6A N -0.0232(4) -0.3790(7) 0.5358(5)
N6B N 0.3790(7) 0.3558(6) 0.5358(5)
H47A H -0.0449 -0.4069 0.5695
H47B H 0.4069 0.3620 0.5695
N7A N 0.0698(4) -0.2592(7) 0.5885(4)
N7B N 0.2592(7) 0.3290(6) 0.5885(4)
H48A H 0.0960 -0.2378 0.5535
H48B H 0.2378 0.3338 0.5535
N8A N 0.0245(4) -0.0789(7) 0.6342(5)
N8B N 0.0789(7) 0.1034(6) 0.6342(5)
Cl1 Cl -0.25752(17) 0.69729(18) 0.28572(15)
O1 O -0.2296(7) 0.6583(7) 0.2682(8)
O2 O -0.2384(5) 0.7424(5) 0.2366(4)
O3 O -0.2330(4) 0.7220(4) 0.3463(3)
O4 O -0.3238(3) 0.6533(3) 0.2864(3)
Cl2 Cl -0.11015(17) 0.63186(16) 0.72708(17)
O5 O -0.1206(6) 0.5857(7) 0.7737(6)
O6 O -0.0748(10) 0.6284(13) 0.6766(6)
O7 O -0.1691(4) 0.6259(5) 0.7026(5)
O8 O -0.0757(10) 0.6918(6) 0.7601(11)
Cl3 Cl 0.3333 0.6667 0.5091(2)
O9 O 0.3172(11) 0.6043(6) 0.5283(8)
O10 O 0.3333 0.6667 0.4397(4)
O9A O 0.3957(6) 0.7129(13) 0.5283(8)
O9B O 0.2871(13) 0.6828(11) 0.5283(8)
Cl4 Cl 0.0000 1.0000 0.2269(12)
O11 O 0.0000 1.0000 0.2974(12)
O12 O -0.0682(21) 0.9645(15) 0.2116(11)
O12A O 0.0355(15) 0.9673(26) 0.2116(11)
O12B O 0.0327(26) 1.0682(21) 0.2116(11)
O14 O -0.1365(14) 0.4618(13) 0.6308(15)
H51 H -0.1740 0.4351 0.6182
H52 H -0.1012 0.4775 0.6108
O13? O 0.0000 1.0000 0.4436(4)
H49? H 0.0000 1.0000 0.4848
H50? H 0.0346 1.0315 0.4302
loop_
_geom_bond_atom_site_label_1
_geom_bond_atom_site_label_2
_geom_bond_site_symmetry_1
_geom_bond_site_symmetry_2
Ag1 N2 1_555 1_555
Ag2 N4 1_555 1_555
Ag3 N1 1_555 1_555
Ag4 N8 1_555 1_555
Cl1 O1 1_555 1_555
Cl2 O5 1_555 1_555
Cl3 O9 1_555 1_555
Cl4 O11 1_555 1_555
C1 H1 1_555 1_555
C2 C1 1_555 1_555
H2 C2 1_555 1_555
C3 H3 1_555 1_555
C4 C3 1_555 1_555
H4 C4 1_555 1_555
C5 C1 1_555 1_555
C6 C5 1_555 1_555
H5 C6 1_555 1_555
H6 C6 1_555 1_555
C7 H7 1_555 1_555
C8 C7 1_555 1_555
H8 C8 1_555 1_555
H9 C8 1_555 1_555
C9 C8 1_555 1_555
H10 C9 1_555 1_555
H11 C9 1_555 1_555
C10 C9 1_555 1_555
H12 C10 1_555 1_555
H13 C10 1_555 1_555
C11 C10 1_555 1_555
H14 C11 1_555 1_555
H15 C11 1_555 1_555
C12 C7 1_555 1_555
H16 C12 1_555 1_555
C13 H17 1_555 1_555
H18 C13 1_555 1_555
C14 C13 1_555 1_555
C15 C14 1_555 1_555
H19 C15 1_555 1_555
C16 C15 1_555 1_555
H20 C16 1_555 1_555
C17 H21 1_555 1_555
C18 C14 1_555 1_555
H22 C18 1_555 1_555
C19 H23 1_555 1_555
C20 C19 1_555 1_555
H24 C20 1_555 1_555
C21 H25 1_555 1_555
C22 C21 1_555 1_555
H26 C22 1_555 1_555
C23 C19 1_555 1_555
C24 C23 1_555 1_555
H27 C24 1_555 1_555
H28 C24 1_555 1_555
C25 H29 1_555 1_555
C26 C25 1_555 1_555
H30 C26 1_555 1_555
H31 C26 1_555 1_555
C27 C26 1_555 1_555
H32 C27 1_555 1_555
H33 C27 1_555 1_555
C28 C27 1_555 1_555
H34 C28 1_555 1_555
H35 C28 1_555 1_555
C29 C28 1_555 1_555
H36 C29 1_555 1_555
H37 C29 1_555 1_555
C30 C25 1_555 1_555
H38 C30 1_555 1_555
C31 H39 1_555 1_555
H40 C31 1_555 1_555
C32 C31 1_555 1_555
C33 C32 1_555 1_555
H41 C33 1_555 1_555
C34 C33 1_555 1_555
H42 C34 1_555 1_555
C35 H43 1_555 1_555
C36 C32 1_555 1_555
H44 C36 1_555 1_555
N1 C2 1_555 1_555
N2 C6 1_555 1_555
H45 N2 1_555 1_555
N3 Ag1 1_555 1_555
H46 N3 1_555 1_555
N4 C16 1_555 1_555
N5 Ag1 1_555 1_555
N6 Ag2 1_555 1_555
H47 N6 1_555 1_555
N7 Ag2 1_555 1_555
H48 N7 1_555 1_555
N8 C34 1_555 1_555
O2 Cl1 1_555 1_555
O3 Cl1 1_555 1_555
O4 Cl1 1_555 1_555
O6 Cl2 1_555 1_555
O7 Cl2 1_555 1_555
O8 Cl2 1_555 1_555
O10 Cl3 1_555 1_555
O12 Cl4 1_555 1_555
O14 H51 1_555 1_555
H52 O14 1_555 1_555
Ag1A N2A 1_555 1_555
Ag1B N2B 1_555 1_555
Ag2A N4A 1_555 1_555
Ag2B N4B 1_555 1_555
Ag3A N1A 1_555 1_555
Ag3B N1B 1_555 1_555
C1A H1A 1_555 1_555
C1B H1B 1_555 1_555
C2A C1A 1_555 1_555
C2B C1B 1_555 1_555
H2A C2A 1_555 1_555
H2B C2B 1_555 1_555
C3A H3A 1_555 1_555
C3B H3B 1_555 1_555
C4A C3A 1_555 1_555
C4B C3B 1_555 1_555
H4A C4A 1_555 1_555
H4B C4B 1_555 1_555
C5A C1A 1_555 1_555
C5B C1B 1_555 1_555
C6A C5A 1_555 1_555
C6B C5B 1_555 1_555
H5A C6A 1_555 1_555
H5B C6B 1_555 1_555
H6A C6A 1_555 1_555
H6B C6B 1_555 1_555
C7A H7A 1_555 1_555
C7B H7B 1_555 1_555
C8A C7A 1_555 1_555
C8B C7B 1_555 1_555
H8A C8A 1_555 1_555
H8B C8B 1_555 1_555
H9A C8A 1_555 1_555
H9B C8B 1_555 1_555
C9A C8A 1_555 1_555
C9B C8B 1_555 1_555
H10A C9A 1_555 1_555
H10B C9B 1_555 1_555
H11A C9A 1_555 1_555
H11B C9B 1_555 1_555
C10A C9A 1_555 1_555
C10B C9B 1_555 1_555
H12A C10A 1_555 1_555
H12B C10B 1_555 1_555
H13A C10A 1_555 1_555
H13B C10B 1_555 1_555
C11A C10A 1_555 1_555
C11B C10B 1_555 1_555
H14A C11A 1_555 1_555
H14B C11B 1_555 1_555
H15A C11A 1_555 1_555
H15B C11B 1_555 1_555
C12A C7A 1_555 1_555
C12B C7B 1_555 1_555
H16A C12A 1_555 1_555
H16B C12B 1_555 1_555
C13A H17A 1_555 1_555
C13B H17B 1_555 1_555
H18A C13A 1_555 1_555
H18B C13B 1_555 1_555
C14A C13A 1_555 1_555
C14B C13B 1_555 1_555
C15A C14A 1_555 1_555
C15B C14B 1_555 1_555
H19A C15A 1_555 1_555
H19B C15B 1_555 1_555
C16A C15A 1_555 1_555
C16B C15B 1_555 1_555
H20A C16A 1_555 1_555
H20B C16B 1_555 1_555
C17A H21A 1_555 1_555
C17B H21B 1_555 1_555
C18A C14A 1_555 1_555
C18B C14B 1_555 1_555
H22A C18A 1_555 1_555
H22B C18B 1_555 1_555
C19A H23A 1_555 1_555
C19B H23B 1_555 1_555
C20A C19A 1_555 1_555
C20B C19B 1_555 1_555
H24A C20A 1_555 1_555
H24B C20B 1_555 1_555
C21A H25A 1_555 1_555
C21B H25B 1_555 1_555
C22A C21A 1_555 1_555
C22B C21B 1_555 1_555
H26A C22A 1_555 1_555
H26B C22B 1_555 1_555
C23A C19A 1_555 1_555
C23B C19B 1_555 1_555
C24A C23A 1_555 1_555
C24B C23B 1_555 1_555
H27A C24A 1_555 1_555
H27B C24B 1_555 1_555
H28A C24A 1_555 1_555
H28B C24B 1_555 1_555
C25A H29A 1_555 1_555
C25B H29B 1_555 1_555
C26A C25A 1_555 1_555
C26B C25B 1_555 1_555
H30A C26A 1_555 1_555
H30B C26B 1_555 1_555
H31A C26A 1_555 1_555
H31B C26B 1_555 1_555
C27A C26A 1_555 1_555
C27B C26B 1_555 1_555
H32A C27A 1_555 1_555
H32B C27B 1_555 1_555
H33A C27A 1_555 1_555
H33B C27B 1_555 1_555
C28A C27A 1_555 1_555
C28B C27B 1_555 1_555
H34A C28A 1_555 1_555
H34B C28B 1_555 1_555
H35A C28A 1_555 1_555
H35B C28B 1_555 1_555
C29A C28A 1_555 1_555
C29B C28B 1_555 1_555
H36A C29A 1_555 1_555
H36B C29B 1_555 1_555
H37A C29A 1_555 1_555
H37B C29B 1_555 1_555
C30A C25A 1_555 1_555
C30B C25B 1_555 1_555
H38A C30A 1_555 1_555
H38B C30B 1_555 1_555
C31A H39A 1_555 1_555
C31B H39B 1_555 1_555
H40A C31A 1_555 1_555
H40B C31B 1_555 1_555
C32A C31A 1_555 1_555
C32B C31B 1_555 1_555
C33A C32A 1_555 1_555
C33B C32B 1_555 1_555
H41A C33A 1_555 1_555
H41B C33B 1_555 1_555
C34A C33A 1_555 1_555
C34B C33B 1_555 1_555
H42A C34A 1_555 1_555
H42B C34B 1_555 1_555
C35A H43A 1_555 1_555
C35B H43B 1_555 1_555
C36A C32A 1_555 1_555
C36B C32B 1_555 1_555
H44A C36A 1_555 1_555
H44B C36B 1_555 1_555
N1A C2A 1_555 1_555
N1B C2B 1_555 1_555
N1A_2 Ag3 1_555 1_555
N1B_2 Ag3 1_555 1_555
N2A C6A 1_555 1_555
N2B C6B 1_555 1_555
H45A N2A 1_555 1_555
H45B N2B 1_555 1_555
N3A Ag1A 1_555 1_555
N3B Ag1B 1_555 1_555
H46A N3A 1_555 1_555
H46B N3B 1_555 1_555
N4A C16A 1_555 1_555
N4B C16B 1_555 1_555
N5A Ag1A 1_555 1_555
N5B Ag1B 1_555 1_555
N6A Ag2A 1_555 1_555
N6B Ag2B 1_555 1_555
H47A N6A 1_555 1_555
H47B N6B 1_555 1_555
N7A Ag2A 1_555 1_555
N7B Ag2B 1_555 1_555
H48A N7A 1_555 1_555
H48B N7B 1_555 1_555
N8A Ag4 1_555 1_555
N8B Ag4 1_555 1_555
O9A Cl3 1_555 1_555
O9B Cl3 1_555 1_555
O12A Cl4 1_555 1_555
O12B Cl4 1_555 1_555
C3 N1 1_555 1_555
C4 C5 1_555 1_555
C7 N2 1_555 1_555
C11 C12 1_555 1_555
C12 N3 1_555 1_555
C13 N3 1_555 1_555
C17 C18 1_555 1_555
C17 N4 1_555 1_555
C20 N5 1_555 1_555
C21 N5 1_555 1_555
C22 C23 1_555 1_555
C24 N6 1_555 1_555
C25 N6 1_555 1_555
C29 C30 1_555 1_555
C30 N7 1_555 1_555
C31 N7 1_555 1_555
C35 C36 1_555 1_555
C35 N8 1_555 1_555
C3A N1A 1_555 1_555
C3B N1B 1_555 1_555
C4A C5A 1_555 1_555
C4B C5B 1_555 1_555
C7A N2A 1_555 1_555
C7B N2B 1_555 1_555
C11A C12A 1_555 1_555
C11B C12B 1_555 1_555
C12A N3A 1_555 1_555
C12B N3B 1_555 1_555
C13A N3A 1_555 1_555
C13B N3B 1_555 1_555
C17A C18A 1_555 1_555
C17A N4A 1_555 1_555
C17B C18B 1_555 1_555
C17B N4B 1_555 1_555
C20A N5A 1_555 1_555
C20B N5B 1_555 1_555
C21A N5A 1_555 1_555
C21B N5B 1_555 1_555
C22A C23A 1_555 1_555
C22B C23B 1_555 1_555
C24A N6A 1_555 1_555
C24B N6B 1_555 1_555
C25A N6A 1_555 1_555
C25B N6B 1_555 1_555
C29A C30A 1_555 1_555
C29B C30B 1_555 1_555
C30A N7A 1_555 1_555
C30B N7B 1_555 1_555
C31A N7A 1_555 1_555
C31B N7B 1_555 1_555
C34A N8A 1_555 1_555
C34B N8B 1_555 1_555
C35A C36A 1_555 1_555
C35A N8A 1_555 1_555
C35B C36B 1_555 1_555
C35B N8B 1_555 1_555

#END
