
#######################################################################
#
#                 Cambridge Crystallographic Data Centre
#                                CCDC 
#
#######################################################################
#
# If this CIF has been generated from an entry in the Cambridge 
# Structural Database, then it will include bibliographic, chemical, 
# crystal, experimental, refinement or atomic coordinate data resulting 
# from the CCDC's data processing and validation procedures.
#
#######################################################################

data_PATBES
_symmetry_cell_setting           orthorhombic
_symmetry_space_group_name_H-M   'P b c a'
_symmetry_Int_Tables_number      61
_space_group_name_Hall           '-P 2ac 2ab'
loop_
_symmetry_equiv_pos_site_id
_symmetry_equiv_pos_as_xyz
1 x,y,z
2 1/2-x,-y,1/2+z
3 -x,1/2+y,1/2-z
4 1/2+x,1/2-y,-z
5 -x,-y,-z
6 1/2+x,y,1/2-z
7 x,1/2-y,1/2+z
8 1/2-x,1/2+y,z
_cell_length_a                   13.3838(7)
_cell_length_b                   21.7325(14)
_cell_length_c                   26.2802(17)
_cell_angle_alpha                90
_cell_angle_beta                 90
_cell_angle_gamma                90
_cell_volume                     7643.95
loop_
_atom_site_label
_atom_site_type_symbol
_atom_site_fract_x
_atom_site_fract_y
_atom_site_fract_z
Ag1 Ag 0.38631(3) 0.346396(18) 0.200917(18)
S1 S 0.27817(10) 0.31711(8) 0.11759(7)
S2 S 0.45235(10) 0.42777(7) 0.13031(6)
P1 P 0.38738(11) 0.36547(6) 0.08436(6)
C1 C 0.4820(4) 0.3128(3) 0.0589(3)
C2 C 0.5816(4) 0.3305(3) 0.0566(3)
H1 H 0.6015 0.3697 0.0690
C3 C 0.6523(5) 0.2905(3) 0.0362(4)
H2 H 0.7202 0.3031 0.0342
C4 C 0.6252(5) 0.2333(3) 0.0189(4)
H3 H 0.6741 0.2063 0.0051
C5 C 0.5263(5) 0.2152(3) 0.0216(3)
H4 H 0.5076 0.1755 0.0100
C6 C 0.4539(5) 0.2545(3) 0.0413(3)
H5 H 0.3860 0.2419 0.0428
C7 C 0.3411(4) 0.4042(3) 0.0273(3)
C8 C 0.4078(4) 0.4289(3) -0.0079(3)
H6 H 0.4775 0.4237 -0.0026
C9 C 0.3748(5) 0.4611(3) -0.0505(3)
H7 H 0.4212 0.4771 -0.0744
C10 C 0.2720(5) 0.4693(3) -0.0575(3)
H8 H 0.2484 0.4915 -0.0863
C11 C 0.2041(5) 0.4452(3) -0.0227(3)
H9 H 0.1343 0.4506 -0.0277
C12 C 0.2389(4) 0.4132(3) 0.0196(3)
H10 H 0.1925 0.3972 0.0435
P2 P 0.28308(9) 0.38897(7) 0.27115(7)
P3 P 0.00721(9) 0.27754(6) 0.25693(6)
C13 C 0.3526(4) 0.4022(2) 0.3298(3)
C14 C 0.4441(4) 0.4334(3) 0.3264(3)
H11 H 0.4683 0.4472 0.2943
C15 C 0.4994(4) 0.4441(3) 0.3707(3)
H12 H 0.5608 0.4658 0.3683
C16 C 0.4676(4) 0.4240(3) 0.4177(3)
H13 H 0.5065 0.4315 0.4473
C17 C 0.3771(4) 0.3924(3) 0.4211(3)
H14 H 0.3540 0.3783 0.4533
C18 C 0.3205(4) 0.3815(3) 0.3777(3)
H15 H 0.2592 0.3596 0.3805
C19 C 0.2176(3) 0.4621(2) 0.2602(2)
C20 C 0.2224(4) 0.4883(3) 0.2119(3)
H16 H 0.2607 0.4694 0.1858
C21 C 0.1696(4) 0.5432(3) 0.2024(3)
H17 H 0.1720 0.5613 0.1695
C22 C 0.1145(4) 0.5708(2) 0.2402(3)
H18 H 0.0799 0.6081 0.2334
C23 C 0.1096(4) 0.5441(3) 0.2884(3)
H19 H 0.0714 0.5634 0.3144
C24 C 0.1600(4) 0.4898(3) 0.2987(3)
H20 H 0.1557 0.4714 0.3314
C25 C 0.1791(4) 0.3378(2) 0.2896(2)
H21 H 0.2051 0.3015 0.3081
H22 H 0.1321 0.3600 0.3122
C26 C 0.1248(4) 0.3170(2) 0.2404(2)
H23 H 0.1684 0.2888 0.2209
H24 H 0.1102 0.3533 0.2189
C27 C -0.0396(4) 0.2505(2) 0.1951(2)
C28 C 0.0118(4) 0.2576(3) 0.1493(3)
H25 H 0.0749 0.2776 0.1491
C29 C -0.0281(5) 0.2359(3) 0.1040(3)
H26 H 0.0074 0.2413 0.0730
C30 C -0.1208(5) 0.2061(3) 0.1040(3)
H27 H -0.1486 0.1910 0.0731
C31 C -0.1714(4) 0.1987(3) 0.1497(3)
H28 H -0.2339 0.1780 0.1501
C32 C -0.1327(4) 0.2209(3) 0.1944(3)
H29 H -0.1692 0.2162 0.2251
C33 C 0.0501(4) 0.2063(3) 0.2871(3)
C34 C 0.1085(4) 0.1636(2) 0.2598(3)
H30 H 0.1287 0.1721 0.2258
C35 C 0.1362(4) 0.1084(3) 0.2834(3)
H31 H 0.1754 0.0791 0.2654
C36 C 0.1066(4) 0.0965(3) 0.3328(3)
H32 H 0.1258 0.0590 0.3486
C37 C 0.0501(4) 0.1379(3) 0.3592(3)
H33 H 0.0309 0.1291 0.3932
C38 C 0.0200(4) 0.1933(3) 0.3366(3)
H34 H -0.0205 0.2217 0.3548
Ag1E Ag -0.11369(3) 0.346396(18) 0.299083(18)
P3E P 0.50721(9) 0.27754(6) 0.24307(6)
Cl1 Cl 0.12906(19) 0.11519(12) 0.09630(14)
Cl2 Cl 0.32959(17) 0.08259(14) 0.06215(11)
C39 C 0.2044(5) 0.0586(3) 0.0661(4)
H35 H 0.2006 0.0197 0.0855
H36 H 0.1784 0.0507 0.0314
loop_
_geom_bond_atom_site_label_1
_geom_bond_atom_site_label_2
_geom_bond_site_symmetry_1
_geom_bond_site_symmetry_2
Ag1 S1 1_555 1_555
S1 P1 1_555 1_555
S2 Ag1 1_555 1_555
P1 S2 1_555 1_555
C1 P1 1_555 1_555
C2 C1 1_555 1_555
H1 C2 1_555 1_555
C3 C2 1_555 1_555
H2 C3 1_555 1_555
C4 C3 1_555 1_555
H3 C4 1_555 1_555
C5 C4 1_555 1_555
H4 C5 1_555 1_555
C6 C1 1_555 1_555
H5 C6 1_555 1_555
C7 P1 1_555 1_555
C8 C7 1_555 1_555
H6 C8 1_555 1_555
C9 C8 1_555 1_555
H7 C9 1_555 1_555
C10 C9 1_555 1_555
H8 C10 1_555 1_555
C11 C10 1_555 1_555
H9 C11 1_555 1_555
C12 C7 1_555 1_555
H10 C12 1_555 1_555
P2 Ag1 1_555 1_555
P3 C26 1_555 1_555
C13 P2 1_555 1_555
C14 C13 1_555 1_555
H11 C14 1_555 1_555
C15 C14 1_555 1_555
H12 C15 1_555 1_555
C16 C15 1_555 1_555
H13 C16 1_555 1_555
C17 C16 1_555 1_555
H14 C17 1_555 1_555
C18 C13 1_555 1_555
H15 C18 1_555 1_555
C19 P2 1_555 1_555
C20 C19 1_555 1_555
H16 C20 1_555 1_555
C21 C20 1_555 1_555
H17 C21 1_555 1_555
C22 C21 1_555 1_555
H18 C22 1_555 1_555
C23 C22 1_555 1_555
H19 C23 1_555 1_555
C24 C19 1_555 1_555
H20 C24 1_555 1_555
C25 P2 1_555 1_555
H21 C25 1_555 1_555
H22 C25 1_555 1_555
C26 C25 1_555 1_555
H23 C26 1_555 1_555
H24 C26 1_555 1_555
C27 P3 1_555 1_555
C28 C27 1_555 1_555
H25 C28 1_555 1_555
C29 C28 1_555 1_555
H26 C29 1_555 1_555
C30 C29 1_555 1_555
H27 C30 1_555 1_555
C31 C30 1_555 1_555
H28 C31 1_555 1_555
C32 C27 1_555 1_555
H29 C32 1_555 1_555
C33 P3 1_555 1_555
C34 C33 1_555 1_555
H30 C34 1_555 1_555
C35 C34 1_555 1_555
H31 C35 1_555 1_555
C36 C35 1_555 1_555
H32 C36 1_555 1_555
C37 C36 1_555 1_555
H33 C37 1_555 1_555
C38 C33 1_555 1_555
H34 C38 1_555 1_555
Cl1 C39 1_555 1_555
Cl2 C39 1_555 1_555
C39 H35 1_555 1_555
H36 C39 1_555 1_555
Ag1E P3 1_555 1_555
P3E Ag1 1_555 1_555
C5 C6 1_555 1_555
C11 C12 1_555 1_555
C17 C18 1_555 1_555
C23 C24 1_555 1_555
C31 C32 1_555 1_555
C37 C38 1_555 1_555

#END
