
#######################################################################
#
#                 Cambridge Crystallographic Data Centre
#                                CCDC 
#
#######################################################################
#
# If this CIF has been generated from an entry in the Cambridge 
# Structural Database, then it will include bibliographic, chemical, 
# crystal, experimental, refinement or atomic coordinate data resulting 
# from the CCDC's data processing and validation procedures.
#
#######################################################################

data_PATCET
_symmetry_cell_setting           triclinic
_symmetry_space_group_name_H-M   'P -1'
_symmetry_Int_Tables_number      2
_space_group_name_Hall           '-P 1'
loop_
_symmetry_equiv_pos_site_id
_symmetry_equiv_pos_as_xyz
1 x,y,z
2 -x,-y,-z
_cell_length_a                   8.8819(5)
_cell_length_b                   11.3639(7)
_cell_length_c                   18.4757(11)
_cell_angle_alpha                98.9510(10)
_cell_angle_beta                 98.0030(10)
_cell_angle_gamma                105.1140(10)
_cell_volume                     1746.49
loop_
_atom_site_label
_atom_site_type_symbol
_atom_site_fract_x
_atom_site_fract_y
_atom_site_fract_z
O1 O 0.85664(12) 0.81520(10) 0.19569(6)
Cu1 Cu 0.43799(2) 0.620592(16) 0.062798(10)
V1 V 0.36578(3) 0.79372(2) 0.222059(13)
V2 V 1.05764(3) 0.93297(2) 0.199440(13)
P1 P 0.70241(4) 0.73315(3) 0.20949(2)
P2 P 0.39668(4) 1.08355(3) 0.29799(2)
P3 P 0.87812(4) 1.12265(3) 0.27986(2)
O2 O 0.61318(12) 0.63753(10) 0.13951(6)
O3 O 0.60091(12) 0.81432(9) 0.23902(6)
O4 O 0.31674(13) 0.67394(11) 0.26016(7)
O5 O 0.33380(12) 0.74617(11) 0.13090(6)
O6 O 0.45031(12) 0.96885(10) 0.27365(6)
O7 O 0.16302(12) 0.83629(10) 0.22486(6)
O8 O 0.50954(13) 1.20064(10) 0.28232(6)
O9 O 0.22889(12) 1.07258(10) 0.25845(6)
O10 O 1.07196(13) 0.93530(10) 0.11448(6)
O11 O 0.93927(12) 1.05870(10) 0.21658(6)
O12 O 0.80363(14) 1.02707(11) 0.32725(6)
N1 N 0.30973(15) 0.45268(11) 0.07705(7)
N2 N 0.27697(14) 0.57204(11) -0.02689(7)
N3 N 0.52627(14) 0.75920(12) 0.00893(7)
C1 C 0.34024(18) 0.39744(14) 0.13418(8)
H1 H 0.4349 0.4353 0.1702
C2 C 0.23829(19) 0.28682(14) 0.14249(9)
H2 H 0.2624 0.2495 0.1835
C3 C 0.10013(19) 0.23197(14) 0.08934(9)
H3 H 0.0276 0.1569 0.0940
C4 C 0.06875(18) 0.28768(14) 0.02929(9)
H4 H -0.0246 0.2510 -0.0077
C5 C 0.17637(17) 0.39783(13) 0.02449(8)
C6 C 0.15991(17) 0.46580(13) -0.03680(8)
C7 C 0.04087(17) 0.42918(14) -0.10000(8)
H5 H -0.0438 0.3550 -0.1069
C8 C 0.04914(17) 0.50432(14) -0.15300(8)
H6 H -0.0312 0.4813 -0.1966
C9 C 0.17405(17) 0.61301(14) -0.14279(8)
H7 H 0.1815 0.6635 -0.1793
C10 C 0.28755(17) 0.64529(13) -0.07740(8)
C11 C 0.42777(16) 0.75673(13) -0.05501(8)
C12 C 0.45825(17) 0.85124(14) -0.09508(8)
H8 H 0.3863 0.8489 -0.1388
C13 C 0.59677(18) 0.94965(14) -0.06975(9)
H9 H 0.6210 1.0153 -0.0962
C14 C 0.69832(18) 0.95063(14) -0.00577(9)
H10 H 0.7943 1.0162 0.0117
C15 C 0.65880(17) 0.85465(14) 0.03299(8)
H11 H 0.7277 0.8569 0.0777
C16 C 0.75401(17) 0.64997(13) 0.27934(8)
C17 C 0.63375(18) 0.56679(14) 0.30302(8)
H12 H 0.5260 0.5631 0.2870
C18 C 0.6706(2) 0.48957(14) 0.34962(9)
H13 H 0.5882 0.4320 0.3645
C19 C 0.8283(2) 0.49656(16) 0.37443(10)
H14 H 0.8537 0.4422 0.4052
C20 C 0.9487(2) 0.58294(16) 0.35420(9)
H15 H 1.0565 0.5901 0.3730
C21 C 0.91233(18) 0.65923(15) 0.30651(9)
H16 H 0.9952 0.7176 0.2924
C22 C 0.40299(18) 1.10590(14) 0.39635(8)
C23 C 0.2909(2) 1.02549(16) 0.42564(10)
H17 H 0.2083 0.9606 0.3930
C24 C 0.2993(2) 1.0397(2) 0.50230(11)
H18 H 0.2227 0.9845 0.5218
C25 C 0.4190(3) 1.1339(2) 0.55013(10)
H19 H 0.4238 1.1441 0.6025
C26 C 0.5319(2) 1.21342(18) 0.52198(10)
H20 H 0.6147 1.2774 0.5551
C27 C 0.5249(2) 1.20022(15) 0.44544(9)
H21 H 0.6027 1.2552 0.4264
C28 C 1.03717(17) 1.23331(14) 0.34608(8)
C29 C 1.07118(19) 1.22380(15) 0.42036(9)
H22 H 1.0124 1.1539 0.4370
C30 C 1.1913(2) 1.31657(16) 0.47052(10)
H23 H 1.2140 1.3099 0.5213
C31 C 1.27776(19) 1.41864(16) 0.44645(10)
H24 H 1.3589 1.4821 0.4808
C32 C 1.24595(19) 1.42830(15) 0.37221(10)
H25 H 1.3062 1.4978 0.3557
C33 C 1.12563(18) 1.33607(15) 0.32200(9)
H26 H 1.1035 1.3429 0.2713
O13 O 0.76441(12) 1.18944(10) 0.25024(6)
H27 H 0.597(4) 1.200(3) 0.2746(16)
H28 H 0.743(3) 0.981(2) 0.3057(15)
V2_2 V 0.05764(3) 0.93297(2) 0.199440(13)
O7_2 O 1.16302(12) 0.83629(10) 0.22486(6)
O9_2 O 1.22889(12) 1.07258(10) 0.25845(6)
loop_
_geom_bond_atom_site_label_1
_geom_bond_atom_site_label_2
_geom_bond_site_symmetry_1
_geom_bond_site_symmetry_2
O1 V2 1_555 1_555
Cu1 O2 1_555 1_555
V1 O3 1_555 1_555
V2 O10 1_555 1_555
P1 O1 1_555 1_555
P2 O6 1_555 1_555
P3 O11 1_555 1_555
O2 P1 1_555 1_555
O3 P1 1_555 1_555
O4 V1 1_555 1_555
O5 Cu1 1_555 1_555
O6 V1 1_555 1_555
O7 V1 1_555 1_555
O8 P2 1_555 1_555
O9 P2 1_555 1_555
O11 V2 1_555 1_555
O12 P3 1_555 1_555
N1 Cu1 1_555 1_555
N2 Cu1 1_555 1_555
N3 Cu1 1_555 1_555
C1 N1 1_555 1_555
H1 C1 1_555 1_555
C2 C1 1_555 1_555
H2 C2 1_555 1_555
C3 C2 1_555 1_555
H3 C3 1_555 1_555
C4 C3 1_555 1_555
H4 C4 1_555 1_555
C5 N1 1_555 1_555
C6 N2 1_555 1_555
C7 C6 1_555 1_555
H5 C7 1_555 1_555
C8 C7 1_555 1_555
H6 C8 1_555 1_555
C9 C8 1_555 1_555
H7 C9 1_555 1_555
C10 N2 1_555 1_555
C11 N3 1_555 1_555
C12 C11 1_555 1_555
H8 C12 1_555 1_555
C13 C12 1_555 1_555
H9 C13 1_555 1_555
C14 C13 1_555 1_555
H10 C14 1_555 1_555
C15 N3 1_555 1_555
H11 C15 1_555 1_555
C16 P1 1_555 1_555
C17 C16 1_555 1_555
H12 C17 1_555 1_555
C18 C17 1_555 1_555
H13 C18 1_555 1_555
C19 C18 1_555 1_555
H14 C19 1_555 1_555
C20 C19 1_555 1_555
H15 C20 1_555 1_555
C21 C16 1_555 1_555
H16 C21 1_555 1_555
C22 P2 1_555 1_555
C23 C22 1_555 1_555
H17 C23 1_555 1_555
C24 C23 1_555 1_555
H18 C24 1_555 1_555
C25 C24 1_555 1_555
H19 C25 1_555 1_555
C26 C25 1_555 1_555
H20 C26 1_555 1_555
C27 C22 1_555 1_555
H21 C27 1_555 1_555
C28 P3 1_555 1_555
C29 C28 1_555 1_555
H22 C29 1_555 1_555
C30 C29 1_555 1_555
H23 C30 1_555 1_555
C31 C30 1_555 1_555
H24 C31 1_555 1_555
C32 C31 1_555 1_555
H25 C32 1_555 1_555
C33 C28 1_555 1_555
H26 C33 1_555 1_555
O13 P3 1_555 1_555
H27 O8 1_555 1_555
H28 O12 1_555 1_555
V2_2 O7 1_555 1_555
O7_2 V2 1_555 1_555
O9_2 V2 1_555 1_555
V1 O5 1_555 1_555
O9 V2_2 1_555 1_555
C4 C5 1_555 1_555
C5 C6 1_555 1_555
C9 C10 1_555 1_555
C10 C11 1_555 1_555
C14 C15 1_555 1_555
C20 C21 1_555 1_555
C26 C27 1_555 1_555
C32 C33 1_555 1_555

#END
