
#######################################################################
#
#                 Cambridge Crystallographic Data Centre
#                                CCDC 
#
#######################################################################
#
# If this CIF has been generated from an entry in the Cambridge 
# Structural Database, then it will include bibliographic, chemical, 
# crystal, experimental, refinement or atomic coordinate data resulting 
# from the CCDC's data processing and validation procedures.
#
#######################################################################

data_PATDIY
_symmetry_cell_setting           triclinic
_symmetry_space_group_name_H-M   'P -1'
_symmetry_Int_Tables_number      2
_space_group_name_Hall           '-P 1'
loop_
_symmetry_equiv_pos_site_id
_symmetry_equiv_pos_as_xyz
1 x,y,z
2 -x,-y,-z
_cell_length_a                   8.8569(6)
_cell_length_b                   10.7058(7)
_cell_length_c                   20.4918(14)
_cell_angle_alpha                99.3440(10)
_cell_angle_beta                 98.7790(10)
_cell_angle_gamma                94.0670(10)
_cell_volume                     1885.65
loop_
_atom_site_label
_atom_site_type_symbol
_atom_site_fract_x
_atom_site_fract_y
_atom_site_fract_z
Cu1 Cu 0.85867(3) 0.78224(2) 1.075179(12)
Cu2 Cu 0.84267(3) 0.27856(2) 0.567659(12)
V1 V 0.65937(4) 1.17167(3) 1.273692(17)
V2 V 0.77492(4) 1.09236(3) 1.126301(18)
V3 V 0.91090(4) 0.76407(3) 0.926020(17)
V4 V 0.67312(4) 0.69824(4) 0.776386(17)
V5 V 0.78093(4) 0.59224(3) 0.634966(17)
V6 V 0.90460(4) 1.26629(3) 1.419900(17)
O1 O 0.6515(2) 1.02541(15) 1.28335(8)
O2 O 0.75908(19) 1.26823(16) 1.34637(8)
O3 O 0.7491(2) 1.18841(16) 1.20638(9)
O4 O 0.90578(18) 1.18452(17) 1.08976(8)
O5 O 0.6111(2) 1.06494(19) 1.07735(9)
O6 O 0.8350(2) 0.95612(15) 1.14081(8)
O7 O 0.86883(18) 0.85302(15) 0.99517(7)
O8 O 0.9108(2) 0.61858(16) 0.93661(9)
O9 O 0.7662(2) 0.77761(18) 0.85481(8)
O10 O 0.5962(2) 0.56239(18) 0.78241(9)
O11 O 0.4650(2) 1.20603(18) 1.25664(9)
O12 O 0.80622(19) 0.67793(15) 0.72266(8)
O13 O 0.6087(2) 0.60178(19) 0.59891(9)
O14 O 0.8054(2) 0.44237(16) 0.63783(8)
O15 O 0.84964(18) 1.34933(15) 1.48769(7)
O16 O 0.9208(2) 1.12261(17) 1.43154(9)
O17 O 0.9168(2) 0.66604(19) 0.59274(8)
N1 N 0.6381(2) 0.70872(17) 1.05542(9)
N2 N 0.8684(2) 0.65630(16) 1.13326(8)
N3 N 1.0860(2) 0.80490(17) 1.11140(9)
N4 N 0.6226(2) 0.20361(17) 0.54852(9)
N5 N 0.8529(2) 0.15832(17) 0.62878(9)
N6 N 1.0692(2) 0.30621(17) 0.60486(9)
C1 C 0.5253(2) 0.7466(2) 1.01391(10)
H1 H 0.5486 0.8132 0.9904
C2 C 0.3746(2) 0.6908(2) 1.00429(11)
H2 H 0.2963 0.7185 0.9744
C3 C 0.3409(2) 0.5943(2) 1.03899(11)
H3 H 0.2391 0.5546 1.0329
C4 C 0.4574(2) 0.5562(2) 1.08287(10)
H4 H 0.4362 0.4913 1.1077
C5 C 0.6053(2) 0.61467(19) 1.08960(10)
C6 C 0.7409(2) 0.58210(19) 1.13357(10)
C7 C 0.7460(3) 0.4862(2) 1.17211(11)
H5 H 0.6565 0.4319 1.1723
C8 C 0.8857(3) 0.4720(2) 1.21029(11)
H6 H 0.8915 0.4078 1.2374
C9 C 1.0174(3) 0.5506(2) 1.20933(11)
H7 H 1.1128 0.5418 1.2356
C10 C 1.0043(2) 0.6428(2) 1.16845(10)
C11 C 1.1290(2) 0.7336(2) 1.15858(11)
C12 C 1.2772(3) 0.7477(2) 1.19415(12)
H8 H 1.3063 0.6955 1.2263
C13 C 1.3823(3) 0.8402(2) 1.18164(13)
H9 H 1.4842 0.8525 1.2058
C14 C 1.3381(3) 0.9139(2) 1.13403(12)
H10 H 1.4085 0.9775 1.1250
C15 C 1.1878(3) 0.8929(2) 1.09949(11)
H11 H 1.1568 0.9428 1.0664
C16 C 0.5095(2) 0.2391(2) 0.50615(11)
H12 H 0.5332 0.3023 0.4807
C17 C 0.3582(3) 0.1861(2) 0.49840(11)
H13 H 0.2797 0.2124 0.4680
C18 C 0.3245(3) 0.0940(2) 0.53589(11)
H14 H 0.2224 0.0558 0.5312
C19 C 0.4417(2) 0.0583(2) 0.58049(11)
H15 H 0.4205 -0.0038 0.6070
C20 C 0.5891(2) 0.1145(2) 0.58556(10)
C21 C 0.7251(2) 0.0858(2) 0.63109(10)
C22 C 0.7298(3) -0.0035(2) 0.67325(11)
H16 H 0.6406 -0.0569 0.6748
C23 C 0.8693(3) -0.0124(2) 0.71324(11)
H17 H 0.8749 -0.0723 0.7428
C24 C 1.0004(3) 0.0649(2) 0.71069(11)
H18 H 1.0952 0.0596 0.7385
C25 C 0.9884(2) 0.1501(2) 0.66618(10)
C26 C 1.1118(2) 0.2399(2) 0.65458(11)
C27 C 1.2593(3) 0.2595(2) 0.69159(12)
H19 H 1.2882 0.2116 0.7259
C28 C 1.3634(3) 0.3505(2) 0.67735(13)
H20 H 1.4647 0.3656 0.7021
C29 C 1.3197(3) 0.4189(2) 0.62718(12)
H21 H 1.3895 0.4820 0.6173
C30 C 1.1705(3) 0.3933(2) 0.59136(11)
H22 H 1.1399 0.4390 0.5563
Cu2_2 Cu 0.84267(3) 1.27856(2) 1.567659(12)
V3A V 1.08910(4) 1.23593(3) 1.073980(17)
V4A V 0.32688(4) 1.30176(4) 1.223614(17)
V6A V 1.09540(4) 0.73371(3) 0.580100(17)
O4A O 1.09422(18) 0.81548(17) 0.91024(8)
O11A O 0.5350(2) 0.79397(18) 0.74336(9)
O15_2 O 0.84964(18) 0.34933(15) 0.48769(7)
O17A O 1.0832(2) 1.33396(19) 1.40726(8)
loop_
_geom_bond_atom_site_label_1
_geom_bond_atom_site_label_2
_geom_bond_site_symmetry_1
_geom_bond_site_symmetry_2
Cu1 O6 1_555 1_555
Cu2 O14 1_555 1_555
V1 O1 1_555 1_555
V2 O3 1_555 1_555
V3 O7 1_555 1_555
V4 O9 1_555 1_555
V5 O12 1_555 1_555
V6 O2 1_555 1_555
O2 V1 1_555 1_555
O3 V1 1_555 1_555
O4 V2 1_555 1_555
O5 V2 1_555 1_555
O6 V2 1_555 1_555
O7 Cu1 1_555 1_555
O8 V3 1_555 1_555
O9 V3 1_555 1_555
O10 V4 1_555 1_555
O11 V1 1_555 1_555
O12 V4 1_555 1_555
O13 V5 1_555 1_555
O14 V5 1_555 1_555
O15 V6 1_555 1_555
O16 V6 1_555 1_555
O17 V5 1_555 1_555
N1 Cu1 1_555 1_555
N2 Cu1 1_555 1_555
N3 Cu1 1_555 1_555
N4 Cu2 1_555 1_555
N5 Cu2 1_555 1_555
N6 Cu2 1_555 1_555
C1 N1 1_555 1_555
H1 C1 1_555 1_555
C2 C1 1_555 1_555
H2 C2 1_555 1_555
C3 C2 1_555 1_555
H3 C3 1_555 1_555
C4 C3 1_555 1_555
H4 C4 1_555 1_555
C5 N1 1_555 1_555
C6 N2 1_555 1_555
C7 C6 1_555 1_555
H5 C7 1_555 1_555
C8 C7 1_555 1_555
H6 C8 1_555 1_555
C9 C8 1_555 1_555
H7 C9 1_555 1_555
C10 N2 1_555 1_555
C11 N3 1_555 1_555
C12 C11 1_555 1_555
H8 C12 1_555 1_555
C13 C12 1_555 1_555
H9 C13 1_555 1_555
C14 C13 1_555 1_555
H10 C14 1_555 1_555
C15 N3 1_555 1_555
H11 C15 1_555 1_555
C16 N4 1_555 1_555
H12 C16 1_555 1_555
C17 C16 1_555 1_555
H13 C17 1_555 1_555
C18 C17 1_555 1_555
H14 C18 1_555 1_555
C19 C18 1_555 1_555
H15 C19 1_555 1_555
C20 N4 1_555 1_555
C21 N5 1_555 1_555
C22 C21 1_555 1_555
H16 C22 1_555 1_555
C23 C22 1_555 1_555
H17 C23 1_555 1_555
C24 C23 1_555 1_555
H18 C24 1_555 1_555
C25 N5 1_555 1_555
C26 N6 1_555 1_555
C27 C26 1_555 1_555
H19 C27 1_555 1_555
C28 C27 1_555 1_555
H20 C28 1_555 1_555
C29 C28 1_555 1_555
H21 C29 1_555 1_555
C30 N6 1_555 1_555
H22 C30 1_555 1_555
Cu2_2 O15 1_555 1_555
V3A O4 1_555 1_555
V4A O11 1_555 1_555
V6A O17 1_555 1_555
O4A V3 1_555 1_555
O11A V4 1_555 1_555
O15_2 Cu2 1_555 1_555
O17A V6 1_555 1_555
C4 C5 1_555 1_555
C5 C6 1_555 1_555
C9 C10 1_555 1_555
C10 C11 1_555 1_555
C14 C15 1_555 1_555
C19 C20 1_555 1_555
C20 C21 1_555 1_555
C24 C25 1_555 1_555
C25 C26 1_555 1_555
C29 C30 1_555 1_555

#END
