
#######################################################################
#
#                 Cambridge Crystallographic Data Centre
#                                CCDC 
#
#######################################################################
#
# If this CIF has been generated from an entry in the Cambridge 
# Structural Database, then it will include bibliographic, chemical, 
# crystal, experimental, refinement or atomic coordinate data resulting 
# from the CCDC's data processing and validation procedures.
#
#######################################################################

data_PATLOL
_symmetry_cell_setting           triclinic
_symmetry_space_group_name_H-M   'P -1'
_symmetry_Int_Tables_number      2
_space_group_name_Hall           '-P 1'
loop_
_symmetry_equiv_pos_site_id
_symmetry_equiv_pos_as_xyz
1 x,y,z
2 -x,-y,-z
_cell_length_a                   9.862(4)
_cell_length_b                   11.745(6)
_cell_length_c                   15.162(8)
_cell_angle_alpha                110.26(3)
_cell_angle_beta                 101.52(3)
_cell_angle_gamma                98.91(3)
_cell_volume                     1565.68
loop_
_atom_site_label
_atom_site_type_symbol
_atom_site_fract_x
_atom_site_fract_y
_atom_site_fract_z
Rh1 Rh -0.02374(3) 0.09230(3) 0.05387(2)
Rh2 Rh 0.40449(4) 0.43588(3) 0.42978(2)
O1 O -0.1550(5) 0.3975(4) 0.0348(3)
O2 O 0.1686(3) 0.1854(3) 0.0572(2)
O3 O -0.2143(3) -0.0141(3) 0.0432(2)
O4 O 0.0637(4) 0.0444(3) 0.1642(2)
O5 O -0.1109(4) 0.1256(3) -0.0650(2)
O6 O 0.1995(4) 0.3187(3) 0.3089(2)
O7 O 0.4914(4) 0.5272(3) 0.3549(2)
O8 O 0.3283(4) 0.3516(3) 0.5121(2)
O9 O 0.5294(4) 0.3119(3) 0.3967(2)
O10 O 0.2924(4) 0.5664(3) 0.4694(2)
C1 C -0.0714(6) 0.3768(5) 0.0950(4)
C2 C 0.0772(6) 0.4518(5) 0.1394(4)
C3 C 0.1648(5) 0.4358(4) 0.2103(4)
C4 C 0.1212(5) 0.3390(4) 0.2454(3)
C5 C -0.0284(5) 0.2612(4) 0.2012(3)
C6 C -0.1170(5) 0.2771(4) 0.1287(4)
C7 C 0.2456(5) 0.1298(4) 0.0079(3)
C8 C 0.3864(5) 0.2111(5) 0.0148(4)
C9 C 0.4606(6) 0.1389(6) -0.0586(5)
C10 C 0.3574(7) 0.3262(6) -0.0033(5)
C11 C 0.4806(6) 0.2502(7) 0.1187(5)
C12 C 0.1085(5) -0.0530(4) 0.1481(3)
C13 C 0.1613(6) -0.0855(5) 0.2352(3)
C14 C 0.300(1) -0.093(1) 0.2444(7)
C15 C 0.085(2) -0.2044(9) 0.2178(6)
C16 C 0.150(2) -0.0015(9) 0.3214(6)
C17 C 0.6047(5) 0.6135(4) 0.3989(3)
C18 C 0.6699(6) 0.6756(5) 0.3392(4)
C19 C 0.760(1) 0.8041(7) 0.4018(5)
C20 C 0.556(1) 0.6709(8) 0.2557(5)
C21 C 0.7696(9) 0.5956(9) 0.2955(6)
C22 C 0.6532(5) 0.3370(4) 0.4534(3)
C23 C 0.7456(6) 0.2448(5) 0.4296(4)
C24 C 0.8984(8) 0.3189(8) 0.4423(7)
C25 C 0.6908(7) 0.1514(7) 0.3250(5)
C26 C 0.751(1) 0.1817(7) 0.4998(6)
H1 H 0.111 0.515 0.117
H2 H 0.260 0.489 0.239
H3 H -0.062 0.199 0.225
H4 H -0.212 0.222 0.098
H5 H 0.549 0.190 -0.054
H6 H 0.479 0.067 -0.046
H7 H 0.400 0.109 -0.124
H8 H 0.444 0.379 0.000
H9 H 0.293 0.301 -0.068
H10 H 0.314 0.373 0.043
H11 H 0.572 0.301 0.128
H12 H 0.436 0.294 0.166
H13 H 0.495 0.176 0.131
H14 H 0.335 -0.114 0.299
H15 H 0.307 -0.157 0.186
H16 H 0.359 -0.016 0.252
H17 H 0.119 -0.229 0.271
H18 H -0.013 -0.212 0.206
H19 H 0.103 -0.265 0.160
H20 H 0.185 -0.026 0.374
H21 H 0.206 0.080 0.335
H22 H 0.053 0.001 0.317
H23 H 0.801 0.842 0.364
H24 H 0.704 0.855 0.434
H25 H 0.836 0.800 0.451
H26 H 0.594 0.708 0.216
H27 H 0.508 0.584 0.214
H28 H 0.486 0.711 0.278
H29 H 0.815 0.629 0.257
H30 H 0.843 0.593 0.347
H31 H 0.717 0.511 0.256
H32 H 0.961 0.266 0.428
H33 H 0.895 0.364 0.399
H34 H 0.939 0.380 0.508
H35 H 0.750 0.095 0.311
H36 H 0.596 0.105 0.313
H37 H 0.689 0.194 0.281
H38 H 0.809 0.122 0.488
H39 H 0.790 0.242 0.566
H40 H 0.657 0.138 0.494
Rh1A Rh 0.02374(3) -0.09230(3) -0.05387(2)
O2A O -0.1686(3) -0.1854(3) -0.0572(2)
C7A C -0.2456(5) -0.1298(4) -0.0079(3)
O3A O 0.2143(3) 0.0141(3) -0.0432(2)
O4A O -0.0637(4) -0.0444(3) -0.1642(2)
C12A C -0.1085(5) 0.0530(4) -0.1481(3)
O5A O 0.1109(4) -0.1256(3) 0.0650(2)
C5A C 0.0284(5) -0.2612(4) -0.2012(3)
C6A C 0.1170(5) -0.2771(4) -0.1287(4)
H3A H 0.062 -0.199 -0.225
H4A H 0.212 -0.222 -0.098
C13A C -0.1613(6) 0.0855(5) -0.2352(3)
C14A C -0.300(1) 0.093(1) -0.2444(7)
H14A H -0.335 0.114 -0.299
H15A H -0.307 0.157 -0.186
H16A H -0.359 0.016 -0.252
C15A C -0.085(2) 0.2044(9) -0.2178(6)
H17A H -0.119 0.229 -0.271
H18A H 0.013 0.212 -0.206
H19A H -0.103 0.265 -0.160
C16A C -0.150(2) 0.0015(9) -0.3214(6)
H20A H -0.185 0.026 -0.374
H21A H -0.206 -0.080 -0.335
H22A H -0.053 -0.001 -0.317
C8A C -0.3864(5) -0.2111(5) -0.0148(4)
C9A C -0.4606(6) -0.1389(6) 0.0586(5)
H5A H -0.549 -0.190 0.054
H6A H -0.479 -0.067 0.046
H7A H -0.400 -0.109 0.124
C10A C -0.3574(7) -0.3262(6) 0.0033(5)
H8A H -0.444 -0.379 0.000
H9A H -0.293 -0.301 0.068
H10A H -0.314 -0.373 -0.043
C11A C -0.4806(6) -0.2502(7) -0.1187(5)
H11A H -0.572 -0.301 -0.128
H12A H -0.436 -0.294 -0.166
H13A H -0.495 -0.176 -0.131
Rh2A Rh 0.59551(4) 0.56412(3) 0.57022(2)
O6A O 0.8005(4) 0.6813(3) 0.6911(2)
C4A C 0.8788(5) 0.6610(4) 0.7546(3)
C3A C 0.8352(5) 0.5642(4) 0.7897(4)
C2A C 0.9228(6) 0.5482(5) 0.8606(4)
C1A C 1.0714(6) 0.6232(5) 0.9050(4)
O1A O 1.1550(5) 0.6025(4) 0.9652(3)
C6A_2 C 1.1170(5) 0.7229(4) 0.8713(4)
Rh1A_2 Rh 1.02374(3) 0.90770(3) 0.94613(2)
C5A_2 C 1.0284(5) 0.7388(4) 0.7988(3)
H3A_2 H 1.062 0.801 0.775
H4A_2 H 1.212 0.778 0.902
H1A H 0.889 0.485 0.883
H2A H 0.740 0.511 0.761
O7A O 0.5086(4) 0.4728(3) 0.6451(2)
C17A C 0.3953(5) 0.3865(4) 0.6011(3)
C18A C 0.3301(6) 0.3244(5) 0.6608(4)
C19A C 0.240(1) 0.1959(7) 0.5982(5)
H23A H 0.199 0.158 0.636
H24A H 0.296 0.145 0.566
H25A H 0.164 0.200 0.549
C20A C 0.444(1) 0.3291(8) 0.7443(5)
H26A H 0.406 0.292 0.784
H27A H 0.492 0.416 0.786
H28A H 0.514 0.289 0.722
C21A C 0.2304(9) 0.4044(9) 0.7045(6)
H29A H 0.185 0.371 0.743
H30A H 0.157 0.407 0.653
H31A H 0.283 0.489 0.744
O8A O 0.6717(4) 0.6484(3) 0.4879(2)
O9A O 0.4706(4) 0.6881(3) 0.6033(2)
C22A C 0.3468(5) 0.6630(4) 0.5466(3)
C23A C 0.2544(6) 0.7552(5) 0.5704(4)
C24A C 0.1016(8) 0.6811(8) 0.5577(7)
H32A H 0.039 0.734 0.572
H33A H 0.105 0.636 0.601
H34A H 0.061 0.620 0.492
C25A C 0.3092(7) 0.8486(7) 0.6750(5)
H35A H 0.250 0.905 0.689
H36A H 0.404 0.895 0.687
H37A H 0.311 0.806 0.719
C26A C 0.249(1) 0.8183(7) 0.5002(6)
H38A H 0.191 0.878 0.512
H39A H 0.210 0.758 0.434
H40A H 0.343 0.862 0.506
O10A O 0.7076(4) 0.4336(3) 0.5306(2)
loop_
_geom_bond_atom_site_label_1
_geom_bond_atom_site_label_2
_geom_bond_site_symmetry_1
_geom_bond_site_symmetry_2
Rh1 O2 1_555 1_555
Rh2 O6 1_555 1_555
O1 C1 1_555 1_555
O2 C7 1_555 1_555
O3 Rh1 1_555 1_555
O4 Rh1 1_555 1_555
O5 Rh1 1_555 1_555
O6 C4 1_555 1_555
O7 Rh2 1_555 1_555
O8 Rh2 1_555 1_555
O9 Rh2 1_555 1_555
O10 Rh2 1_555 1_555
C1 C2 1_555 1_555
C2 C3 1_555 1_555
C3 C4 1_555 1_555
C4 C5 1_555 1_555
C5 Rh1 1_555 1_555
C6 Rh1 1_555 1_555
C7 C8 1_555 1_555
C8 C9 1_555 1_555
C9 H5 1_555 1_555
C10 C8 1_555 1_555
C11 C8 1_555 1_555
C12 O4 1_555 1_555
C13 C12 1_555 1_555
C14 C13 1_555 1_555
C15 C13 1_555 1_555
C16 C13 1_555 1_555
C17 O7 1_555 1_555
C18 C17 1_555 1_555
C19 C18 1_555 1_555
C20 C18 1_555 1_555
C21 C18 1_555 1_555
C22 O9 1_555 1_555
C23 C22 1_555 1_555
C24 C23 1_555 1_555
C25 C23 1_555 1_555
C26 C23 1_555 1_555
H1 C2 1_555 1_555
H2 C3 1_555 1_555
H3 C5 1_555 1_555
H4 C6 1_555 1_555
H6 C9 1_555 1_555
H7 C9 1_555 1_555
H8 C10 1_555 1_555
H9 C10 1_555 1_555
H10 C10 1_555 1_555
H11 C11 1_555 1_555
H12 C11 1_555 1_555
H13 C11 1_555 1_555
H14 C14 1_555 1_555
H15 C14 1_555 1_555
H16 C14 1_555 1_555
H17 C15 1_555 1_555
H18 C15 1_555 1_555
H19 C15 1_555 1_555
H20 C16 1_555 1_555
H21 C16 1_555 1_555
H22 C16 1_555 1_555
H23 C19 1_555 1_555
H24 C19 1_555 1_555
H25 C19 1_555 1_555
H26 C20 1_555 1_555
H27 C20 1_555 1_555
H28 C20 1_555 1_555
H29 C21 1_555 1_555
H30 C21 1_555 1_555
H31 C21 1_555 1_555
H32 C24 1_555 1_555
H33 C24 1_555 1_555
H34 C24 1_555 1_555
H35 C25 1_555 1_555
H36 C25 1_555 1_555
H37 C25 1_555 1_555
H38 C26 1_555 1_555
H39 C26 1_555 1_555
H40 C26 1_555 1_555
Rh1A Rh1 1_555 1_555
O2A Rh1A 1_555 1_555
C7A O3 1_555 1_555
O3A C7 1_555 1_555
O4A Rh1A 1_555 1_555
C12A O5 1_555 1_555
O5A C12 1_555 1_555
C5A Rh1A 1_555 1_555
C6A Rh1A 1_555 1_555
H3A C5A 1_555 1_555
H4A C6A 1_555 1_555
C13A C12A 1_555 1_555
C14A C13A 1_555 1_555
H14A C14A 1_555 1_555
H15A C14A 1_555 1_555
H16A C14A 1_555 1_555
C15A C13A 1_555 1_555
H17A C15A 1_555 1_555
H18A C15A 1_555 1_555
H19A C15A 1_555 1_555
C16A C13A 1_555 1_555
H20A C16A 1_555 1_555
H21A C16A 1_555 1_555
H22A C16A 1_555 1_555
C8A C7A 1_555 1_555
C9A C8A 1_555 1_555
H5A C9A 1_555 1_555
H6A C9A 1_555 1_555
H7A C9A 1_555 1_555
C10A C8A 1_555 1_555
H8A C10A 1_555 1_555
H9A C10A 1_555 1_555
H10A C10A 1_555 1_555
C11A C8A 1_555 1_555
H11A C11A 1_555 1_555
H12A C11A 1_555 1_555
H13A C11A 1_555 1_555
Rh2A Rh2 1_555 1_555
O6A Rh2A 1_555 1_555
C4A O6A 1_555 1_555
C3A C4A 1_555 1_555
C2A C3A 1_555 1_555
C1A C2A 1_555 1_555
O1A C1A 1_555 1_555
C6A_2 C1A 1_555 1_555
Rh1A_2 C6A_2 1_555 1_555
C5A_2 C4A 1_555 1_555
H3A_2 C5A_2 1_555 1_555
H4A_2 C6A_2 1_555 1_555
H1A C2A 1_555 1_555
H2A C3A 1_555 1_555
O7A Rh2A 1_555 1_555
C17A O8 1_555 1_555
C18A C17A 1_555 1_555
C19A C18A 1_555 1_555
H23A C19A 1_555 1_555
H24A C19A 1_555 1_555
H25A C19A 1_555 1_555
C20A C18A 1_555 1_555
H26A C20A 1_555 1_555
H27A C20A 1_555 1_555
H28A C20A 1_555 1_555
C21A C18A 1_555 1_555
H29A C21A 1_555 1_555
H30A C21A 1_555 1_555
H31A C21A 1_555 1_555
O8A C17 1_555 1_555
O9A Rh2A 1_555 1_555
C22A O10 1_555 1_555
C23A C22A 1_555 1_555
C24A C23A 1_555 1_555
H32A C24A 1_555 1_555
H33A C24A 1_555 1_555
H34A C24A 1_555 1_555
C25A C23A 1_555 1_555
H35A C25A 1_555 1_555
H36A C25A 1_555 1_555
H37A C25A 1_555 1_555
C26A C23A 1_555 1_555
H38A C26A 1_555 1_555
H39A C26A 1_555 1_555
H40A C26A 1_555 1_555
O10A C22 1_555 1_555
C1 C6 1_555 1_555
C5 C6 1_555 1_555
Rh1A O3A 1_555 1_555
Rh1A O5A 1_555 1_555
O2A C7A 1_555 1_555
O4A C12A 1_555 1_555
C5A C6A 1_555 1_555
Rh2A O8A 1_555 1_555
Rh2A O10A 1_555 1_555
C6A_2 C5A_2 1_555 1_555
Rh1A_2 C5A_2 1_555 1_555
O7A C17A 1_555 1_555
O9A C22A 1_555 1_555

#END
