
#######################################################################
#
#                 Cambridge Crystallographic Data Centre
#                                CCDC 
#
#######################################################################
#
# If this CIF has been generated from an entry in the Cambridge 
# Structural Database, then it will include bibliographic, chemical, 
# crystal, experimental, refinement or atomic coordinate data resulting 
# from the CCDC's data processing and validation procedures.
#
#######################################################################

data_PATPIL
_symmetry_cell_setting           orthorhombic
_symmetry_space_group_name_H-M   'P 21 21 21'
_symmetry_Int_Tables_number      19
_space_group_name_Hall           'P 2ac 2ab'
loop_
_symmetry_equiv_pos_site_id
_symmetry_equiv_pos_as_xyz
1 x,y,z
2 1/2-x,-y,1/2+z
3 -x,1/2+y,1/2-z
4 1/2+x,1/2-y,-z
_cell_length_a                   6.7642(10)
_cell_length_b                   9.5430(14)
_cell_length_c                   16.524(2)
_cell_angle_alpha                90
_cell_angle_beta                 90
_cell_angle_gamma                90
_cell_volume                     1066.64
loop_
_atom_site_label
_atom_site_type_symbol
_atom_site_fract_x
_atom_site_fract_y
_atom_site_fract_z
Ca1 Ca 0.23464(7) 1.12706(5) -0.16623(3)
O1 O 0.1746(3) 1.3541(2) -0.19917(10)
O2 O 0.0580(2) 1.5287(2) -0.27446(10)
O3 O 0.5819(3) 1.1096(2) -0.17368(12)
O4 O -0.0266(3) 1.17156(18) -0.06874(9)
O5 O -0.1111(3) 1.3051(2) 0.03594(10)
C1 C -0.4056(3) 1.5524(3) -0.12499(13)
C2 C -0.5802(3) 1.6408(3) -0.11413(13)
C3 C -0.1360(3) 1.4533(3) -0.16608(13)
C4 C 0.0454(3) 1.4424(3) -0.21666(14)
C5 C -0.0981(3) 1.2807(3) -0.03831(14)
C6 C -0.1843(3) 1.3904(2) -0.09298(13)
C7 C -0.7415(4) 1.5952(3) -0.06831(13)
H1 H -0.7411 1.5063 -0.0452
N1 N -0.2749(3) 1.5551(2) -0.18453(11)
N2 N -0.7407(3) 1.8645(2) -0.13374(12)
N3 N -0.3542(3) 1.4554(2) -0.06855(11)
H2 H -0.4180 1.4378 -0.0247
C8 C -0.8958(4) 1.8144(3) -0.09199(15)
H3 H -1.0058 1.8719 -0.0860
C9 C -0.5868(4) 1.7777(3) -0.14521(15)
H4 H -0.4795 1.8099 -0.1751
C10 C -0.9016(4) 1.6830(3) -0.05756(15)
H5 H -1.0109 1.6540 -0.0278
H6 H 0.6309 1.1373 -0.1290
H7 H 0.6834 1.0719 -0.1959
Ca1B Ca -0.23464(7) 1.62706(5) -0.33377(3)
Ca1C Ca -0.26536(7) 1.37294(5) 0.16623(3)
Ca1_2 Ca -0.76536(7) 2.12706(5) -0.16623(3)
O2B O -0.0580(2) 1.0287(2) -0.22554(10)
O5C O 0.3889(3) 1.1949(2) -0.03594(10)
N1B N 0.2749(3) 1.0551(2) -0.31547(11)
N2_2 N 0.2593(3) 0.8645(2) -0.13374(12)
loop_
_geom_bond_atom_site_label_1
_geom_bond_atom_site_label_2
_geom_bond_site_symmetry_1
_geom_bond_site_symmetry_2
Ca1 O1 1_555 1_555
O1 C4 1_555 1_555
O2 C4 1_555 1_555
O3 Ca1 1_555 1_555
O4 Ca1 1_555 1_555
O5 C5 1_555 1_555
C1 C2 1_555 1_555
C2 C7 1_555 1_555
C3 C4 1_555 1_555
C5 O4 1_555 1_555
C6 C3 1_555 1_555
C7 H1 1_555 1_555
N1 C1 1_555 1_555
N2 C8 1_555 1_555
N3 C1 1_555 1_555
H2 N3 1_555 1_555
C8 H3 1_555 1_555
C9 C2 1_555 1_555
H4 C9 1_555 1_555
C10 C7 1_555 1_555
H5 C10 1_555 1_555
H6 O3 1_555 1_555
H7 O3 1_555 1_555
Ca1B O2 1_555 1_555
Ca1C O5 1_555 1_555
Ca1_2 N2 1_555 1_555
O2B Ca1 1_555 1_555
O5C Ca1 1_555 1_555
N1B Ca1 1_555 1_555
N2_2 Ca1 1_555 1_555
C3 N1 1_555 1_555
C5 C6 1_555 1_555
C6 N3 1_555 1_555
N1 Ca1B 1_555 1_555
N2 C9 1_555 1_555
C8 C10 1_555 1_555

#END
