
#######################################################################
#
#                 Cambridge Crystallographic Data Centre
#                                CCDC 
#
#######################################################################
#
# If this CIF has been generated from an entry in the Cambridge 
# Structural Database, then it will include bibliographic, chemical, 
# crystal, experimental, refinement or atomic coordinate data resulting 
# from the CCDC's data processing and validation procedures.
#
#######################################################################

data_PATPEH
_symmetry_cell_setting           monoclinic
_symmetry_space_group_name_H-M   'P 21/c'
_symmetry_Int_Tables_number      14
_space_group_name_Hall           '-P 2ybc'
loop_
_symmetry_equiv_pos_site_id
_symmetry_equiv_pos_as_xyz
1 x,y,z
2 -x,1/2+y,1/2-z
3 -x,-y,-z
4 x,1/2-y,1/2+z
_cell_length_a                   6.7085(7)
_cell_length_b                   8.6142(9)
_cell_length_c                   22.1516(19)
_cell_angle_alpha                90
_cell_angle_beta                 102.106(3)
_cell_angle_gamma                90
_cell_volume                     1251.64
loop_
_atom_site_label
_atom_site_type_symbol
_atom_site_fract_x
_atom_site_fract_y
_atom_site_fract_z
Cd1 Cd 0.27618(5) 1.24211(3) 0.794783(14)
Cd2 Cd 1.0000 1.0000 1.0000
O1 O 0.6968(5) 1.1138(5) 0.96610(15)
O2 O -0.0383(5) 1.2031(4) 0.81752(16)
H1 H -0.0164 1.1189 0.8378
H2 H -0.1654 1.2215 0.8111
O3 O 0.4325(5) 1.1549(4) 0.89014(14)
O4 O 0.2740(4) 0.9825(3) 0.77946(14)
O5 O 0.4097(5) 0.8121(4) 0.72607(14)
N1 N 0.7706(5) 0.8067(4) 0.80668(16)
N2 N 0.8789(5) 0.9127(4) 0.90047(15)
N3 N 1.2693(6) 0.4835(4) 0.84231(17)
C1 C 0.5996(7) 1.0878(5) 0.9125(2)
C2 C 0.6875(6) 0.9719(5) 0.87503(19)
C3 C 0.6205(7) 0.9053(5) 0.81706(19)
C4 C 0.4217(7) 0.9036(5) 0.77177(19)
C5 C 0.9218(6) 0.8138(5) 0.85792(19)
C6 C 1.1061(7) 0.7182(5) 0.86653(19)
C7 C 1.2868(7) 0.7621(5) 0.9061(2)
H3 H 1.2941 0.8561 0.9271
C8 C 1.4544(7) 0.6666(5) 0.9141(2)
H4 H 1.5751 0.6942 0.9410
C9 C 1.4405(7) 0.5286(5) 0.8814(2)
H5 H 1.5544 0.4645 0.8867
C10 C 1.1057(7) 0.5761(5) 0.8358(2)
H6 H 0.9857 0.5443 0.8095
O7 O 1.1435(7) 1.2199(4) 0.9574(2)
H9 H 1.251(6) 1.203(6) 0.945(3)
H10 H 1.126(8) 1.314(3) 0.959(3)
Cd1B Cd 1.72382(5) 0.75789(3) 1.205217(14)
Cd1A Cd 0.72382(5) 0.74211(3) 0.705217(14)
Cd1_2 Cd 1.27618(5) 0.24211(3) 0.794783(14)
Cd1C Cd 1.27618(5) 1.25789(3) 1.294783(14)
Cd1B_2 Cd 0.72382(5) 1.75789(3) 1.205217(14)
O1B O 1.3032(5) 0.8862(5) 1.03390(15)
O2B O 2.0383(5) 0.7969(4) 1.18248(16)
H1B H 2.0164 0.8811 1.1622
H2B H 2.1654 0.7785 1.1889
O3B O 1.5675(5) 0.8451(4) 1.10986(14)
O4B O 1.7260(4) 1.0175(3) 1.22054(14)
O5B O 1.5903(5) 1.1879(4) 1.27393(14)
O5A O 0.5903(5) 1.3121(4) 0.77393(14)
O5C O 1.4097(5) 0.6879(4) 1.22607(14)
N1B N 1.2294(5) 1.1933(4) 1.19332(16)
N1A N 0.2294(5) 1.3067(4) 0.69332(16)
N1C N 1.7706(5) 0.6933(4) 1.30668(16)
N2B N 1.1211(5) 1.0873(4) 1.09953(15)
N3B N 0.7307(6) 1.5165(4) 1.15769(17)
N3_2 N 0.2693(6) 1.4835(4) 0.84231(17)
N3B_2 N 1.7307(6) 0.5165(4) 1.15769(17)
C1B C 1.4004(7) 0.9122(5) 1.0875(2)
C2B C 1.3125(6) 1.0281(5) 1.12497(19)
C3B C 1.3795(7) 1.0947(5) 1.18294(19)
C4B C 1.5783(7) 1.0964(5) 1.22823(19)
C5B C 1.0782(6) 1.1862(5) 1.14208(19)
C6B C 0.8939(7) 1.2818(5) 1.13347(19)
C7B C 0.7132(7) 1.2379(5) 1.0939(2)
H3B H 0.7059 1.1439 1.0729
C8B C 0.5456(7) 1.3334(5) 1.0859(2)
H4B H 0.4249 1.3058 1.0590
C9B C 0.5595(7) 1.4714(5) 1.1186(2)
H5B H 0.4456 1.5355 1.1133
C10B C 0.8943(7) 1.4239(5) 1.1642(2)
H6B H 1.0143 1.4557 1.1905
O7B O 0.8565(7) 0.7801(4) 1.0426(2)
H9B H 0.749(6) 0.797(6) 1.055(3)
H10B H 0.874(8) 0.686(3) 1.041(3)
O6 O 0.0000 0.5000 0.0000
H8 H 0.0671 0.4728 0.0353
H8B H -0.0671 0.5272 -0.0353
H7? H -0.0825 0.4300 -0.0168
loop_
_geom_bond_atom_site_label_1
_geom_bond_atom_site_label_2
_geom_bond_site_symmetry_1
_geom_bond_site_symmetry_2
Cd1 O2 1_555 1_555
Cd2 O1 1_555 1_555
O1 C1 1_555 1_555
O2 H1 1_555 1_555
H2 O2 1_555 1_555
O3 Cd1 1_555 1_555
O4 Cd1 1_555 1_555
O5 C4 1_555 1_555
N1 C3 1_555 1_555
N2 Cd2 1_555 1_555
N3 C9 1_555 1_555
C1 O3 1_555 1_555
C2 N2 1_555 1_555
C3 C2 1_555 1_555
C4 O4 1_555 1_555
C5 N1 1_555 1_555
C6 C5 1_555 1_555
C7 C6 1_555 1_555
H3 C7 1_555 1_555
C8 C7 1_555 1_555
H4 C8 1_555 1_555
C9 C8 1_555 1_555
H5 C9 1_555 1_555
C10 N3 1_555 1_555
H6 C10 1_555 1_555
O6 H8 1_555 1_555
O7 Cd2 1_555 1_555
H9 O7 1_555 1_555
H10 O7 1_555 1_555
Cd1B O2B 1_555 1_555
Cd1A O5 1_555 1_555
Cd1_2 N3 1_555 1_555
Cd1C O5B 1_555 1_555
Cd1B_2 N3B 1_555 1_555
O1B Cd2 1_555 1_555
O2B H1B 1_555 1_555
H2B O2B 1_555 1_555
O3B Cd1B 1_555 1_555
O4B Cd1B 1_555 1_555
O5B C4B 1_555 1_555
O5A Cd1 1_555 1_555
O5C Cd1B 1_555 1_555
N1B Cd1C 1_555 1_555
N1A Cd1 1_555 1_555
N1C Cd1B 1_555 1_555
N2B Cd2 1_555 1_555
N3B C9B 1_555 1_555
N3_2 Cd1 1_555 1_555
N3B_2 Cd1B 1_555 1_555
C1B O1B 1_555 1_555
C2B N2B 1_555 1_555
C3B N1B 1_555 1_555
C4B O4B 1_555 1_555
C5B N1B 1_555 1_555
C6B C5B 1_555 1_555
C7B C6B 1_555 1_555
H3B C7B 1_555 1_555
C8B C7B 1_555 1_555
H4B C8B 1_555 1_555
C9B C8B 1_555 1_555
H5B C9B 1_555 1_555
C10B N3B 1_555 1_555
H6B C10B 1_555 1_555
H8B O6 1_555 1_555
O7B Cd2 1_555 1_555
H9B O7B 1_555 1_555
H10B O7B 1_555 1_555
N1 Cd1A 1_555 1_555
N2 C5 1_555 1_555
C1 C2 1_555 1_555
C3 C4 1_555 1_555
C6 C10 1_555 1_555
O3B C1B 1_555 1_555
N2B C5B 1_555 1_555
C1B C2B 1_555 1_555
C2B C3B 1_555 1_555
C3B C4B 1_555 1_555
C6B C10B 1_555 1_555

#END
