
#######################################################################
#
#                 Cambridge Crystallographic Data Centre
#                                CCDC 
#
#######################################################################
#
# If this CIF has been generated from an entry in the Cambridge 
# Structural Database, then it will include bibliographic, chemical, 
# crystal, experimental, refinement or atomic coordinate data resulting 
# from the CCDC's data processing and validation procedures.
#
#######################################################################

data_PATQOS
_symmetry_cell_setting           triclinic
_symmetry_space_group_name_H-M   'P -1'
_symmetry_Int_Tables_number      2
_space_group_name_Hall           '-P 1'
loop_
_symmetry_equiv_pos_site_id
_symmetry_equiv_pos_as_xyz
1 x,y,z
2 -x,-y,-z
_cell_length_a                   6.8091(4)
_cell_length_b                   10.9815(7)
_cell_length_c                   15.5769(10)
_cell_angle_alpha                98.267(5)
_cell_angle_beta                 102.055(5)
_cell_angle_gamma                96.478(5)
_cell_volume                     1114.88
loop_
_atom_site_label
_atom_site_type_symbol
_atom_site_fract_x
_atom_site_fract_y
_atom_site_fract_z
Cd1 Cd 0.5000 0.0000 0.5000
S1 S 0.20426(12) 0.29823(7) 0.68615(5)
O1 O 0.3512(3) 0.2371(2) 0.20739(13)
O2 O 1.0059(3) 0.43424(19) 0.28720(12)
O3 O 0.4610(3) 0.09508(18) -0.14992(12)
O4 O 1.0910(3) 0.32567(17) -0.07596(12)
N1 N 0.6347(4) 0.1923(2) 0.46409(15)
N2 N 0.6766(3) 0.3394(2) 0.26915(14)
N3 N 0.7832(3) 0.1984(2) -0.13288(14)
N4 N 0.7333(3) 0.0325(2) -0.35960(14)
N5 N 0.2851(4) 0.1109(2) 0.56433(16)
C1 C 0.6971(5) 0.2925(3) 0.52887(19)
H1 H 0.7034 0.2817 0.5875
C2 C 0.7519(5) 0.4096(3) 0.51325(19)
H2 H 0.7925 0.4764 0.5602
C3 C 0.7460(5) 0.4273(3) 0.42668(19)
H3 H 0.7814 0.5060 0.4140
C4 C 0.6858(4) 0.3247(3) 0.35952(18)
C5 C 0.6299(4) 0.2095(3) 0.38021(18)
H4 H 0.5873 0.1415 0.3343
C6 C 0.8372(4) 0.3995(2) 0.24069(18)
C7 C 0.7648(4) 0.4093(2) 0.14365(17)
H5 H 0.7654 0.4968 0.1372
C8 C 0.5464(4) 0.3399(2) 0.11584(17)
H6 H 0.4523 0.3966 0.0954
C9 C 0.5028(4) 0.2980(3) 0.19931(18)
C10 C 0.8980(4) 0.3479(2) 0.08592(17)
H7 H 1.0393 0.3889 0.1038
C11 C 0.8811(4) 0.2120(2) 0.09427(17)
H8 H 0.9938 0.1740 0.1135
C12 C 0.6931(4) 0.1506(2) 0.07206(17)
H9 H 0.6640 0.0670 0.0757
C13 C 0.5300(4) 0.2275(2) 0.04029(17)
H10 H 0.3944 0.1782 0.0240
C14 C 0.7996(4) 0.3569(2) -0.01143(17)
H11 H 0.7953 0.4442 -0.0175
C15 C 0.9139(4) 0.2970(2) -0.07541(17)
C16 C 0.5911(4) 0.1807(2) -0.11360(17)
C17 C 0.5835(4) 0.2834(2) -0.03885(17)
H12 H 0.4846 0.3370 -0.0600
C18 C 0.8318(4) 0.1212(2) -0.20489(17)
C19 C 1.0007(4) 0.0616(3) -0.19293(18)
H13 H 1.0897 0.0713 -0.1375
C20 C 1.0324(4) -0.0135(3) -0.26684(19)
H14 H 1.1443 -0.0555 -0.2617
C21 C 0.8984(4) -0.0254(2) -0.34739(18)
H15 H 0.9225 -0.0762 -0.3961
C22 C 0.7043(4) 0.1056(2) -0.28788(17)
H16 H 0.5924 0.1478 -0.2947
C23 C 0.2518(4) 0.1887(3) 0.61351(19)
Cd1_2 Cd 0.5000 0.0000 -0.5000
Cd1_3 Cd 0.5000 0.0000 1.5000
S1A S 0.79574(12) -0.29823(7) 0.31385(5)
O1_2 O 0.3512(3) 0.2371(2) 1.20739(13)
O2_2 O 1.0059(3) 0.43424(19) 1.28720(12)
O3_2 O 0.4610(3) 0.09508(18) 0.85008(12)
O4_2 O 1.0910(3) 0.32567(17) 0.92404(12)
N1_2 N 0.6347(4) 0.1923(2) 1.46409(15)
N1A N 0.3653(4) -0.1923(2) 0.53591(15)
N2_2 N 0.6766(3) 0.3394(2) 1.26915(14)
N3_2 N 0.7832(3) 0.1984(2) 0.86712(14)
N4_2 N 0.7333(3) 0.0325(2) 0.64040(14)
N4A N 0.2667(3) -0.0325(2) 0.35960(14)
N5A N 0.7149(4) -0.1109(2) 0.43567(16)
C1_2 C 0.6971(5) 0.2925(3) 1.52887(19)
H1_2 H 0.7034 0.2817 1.5875
C2_2 C 0.7519(5) 0.4096(3) 1.51325(19)
H2_2 H 0.7925 0.4764 1.5602
C3_2 C 0.7460(5) 0.4273(3) 1.42668(19)
H3_2 H 0.7814 0.5060 1.4140
C4_2 C 0.6858(4) 0.3247(3) 1.35952(18)
C5_2 C 0.6299(4) 0.2095(3) 1.38021(18)
H4_2 H 0.5873 0.1415 1.3343
C6_2 C 0.8372(4) 0.3995(2) 1.24069(18)
C7_2 C 0.7648(4) 0.4093(2) 1.14365(17)
H5_2 H 0.7654 0.4968 1.1372
C8_2 C 0.5464(4) 0.3399(2) 1.11584(17)
H6_2 H 0.4523 0.3966 1.0954
C9_2 C 0.5028(4) 0.2980(3) 1.19931(18)
C10_2 C 0.8980(4) 0.3479(2) 1.08592(17)
H7_2 H 1.0393 0.3889 1.1038
C11_2 C 0.8811(4) 0.2120(2) 1.09427(17)
H8_2 H 0.9938 0.1740 1.1135
C12_2 C 0.6931(4) 0.1506(2) 1.07206(17)
H9_2 H 0.6640 0.0670 1.0757
C13_2 C 0.5300(4) 0.2275(2) 1.04029(17)
H10_2 H 0.3944 0.1782 1.0240
C14_2 C 0.7996(4) 0.3569(2) 0.98857(17)
H11_2 H 0.7953 0.4442 0.9825
C15_2 C 0.9139(4) 0.2970(2) 0.92459(17)
C16_2 C 0.5911(4) 0.1807(2) 0.88640(17)
C17_2 C 0.5835(4) 0.2834(2) 0.96115(17)
H12_2 H 0.4846 0.3370 0.9400
C18_2 C 0.8318(4) 0.1212(2) 0.79511(17)
C19_2 C 1.0007(4) 0.0616(3) 0.80707(18)
H13_2 H 1.0897 0.0713 0.8625
C20_2 C 1.0324(4) -0.0135(3) 0.73316(19)
H14_2 H 1.1443 -0.0555 0.7383
C21_2 C 0.8984(4) -0.0254(2) 0.65261(18)
H15_2 H 0.9225 -0.0762 0.6039
C22_2 C 0.7043(4) 0.1056(2) 0.71212(17)
H16_2 H 0.5924 0.1478 0.7053
C23A C 0.7482(4) -0.1887(3) 0.38649(19)
O5 O 0.3240(3) 0.5573(2) 0.21012(14)
H17 H 0.4345 0.5828 0.2436
H18 H 0.2504 0.5364 0.2417
loop_
_geom_bond_atom_site_label_1
_geom_bond_atom_site_label_2
_geom_bond_site_symmetry_1
_geom_bond_site_symmetry_2
Cd1 N1 1_555 1_555
S1 C23 1_555 1_555
O1 C9 1_555 1_555
O2 C6 1_555 1_555
O3 C16 1_555 1_555
O4 C15 1_555 1_555
N1 C1 1_555 1_555
N2 C4 1_555 1_555
N3 C15 1_555 1_555
N4 C21 1_555 1_555
N5 Cd1 1_555 1_555
C1 H1 1_555 1_555
C2 C1 1_555 1_555
H2 C2 1_555 1_555
C3 C2 1_555 1_555
H3 C3 1_555 1_555
C4 C3 1_555 1_555
C5 N1 1_555 1_555
H4 C5 1_555 1_555
C6 N2 1_555 1_555
C7 C6 1_555 1_555
H5 C7 1_555 1_555
C8 C7 1_555 1_555
H6 C8 1_555 1_555
C9 N2 1_555 1_555
C10 C7 1_555 1_555
H7 C10 1_555 1_555
C11 C10 1_555 1_555
H8 C11 1_555 1_555
C12 C11 1_555 1_555
H9 C12 1_555 1_555
C13 C8 1_555 1_555
H10 C13 1_555 1_555
C14 C10 1_555 1_555
H11 C14 1_555 1_555
C15 C14 1_555 1_555
C16 N3 1_555 1_555
C17 C13 1_555 1_555
H12 C17 1_555 1_555
C18 N3 1_555 1_555
C19 C18 1_555 1_555
H13 C19 1_555 1_555
C20 C19 1_555 1_555
H14 C20 1_555 1_555
C21 C20 1_555 1_555
H15 C21 1_555 1_555
C22 N4 1_555 1_555
H16 C22 1_555 1_555
C23 N5 1_555 1_555
O5 H17 1_555 1_555
H18 O5 1_555 1_555
Cd1_2 N4 1_555 1_555
Cd1_3 N1_2 1_555 1_555
S1A C23A 1_555 1_555
O1_2 C9_2 1_555 1_555
O2_2 C6_2 1_555 1_555
O3_2 C16_2 1_555 1_555
O4_2 C15_2 1_555 1_555
N1_2 C1_2 1_555 1_555
N1A Cd1 1_555 1_555
N2_2 C4_2 1_555 1_555
N3_2 C15_2 1_555 1_555
N4_2 Cd1 1_555 1_555
N4A Cd1 1_555 1_555
N5A Cd1 1_555 1_555
C1_2 H1_2 1_555 1_555
C2_2 C1_2 1_555 1_555
H2_2 C2_2 1_555 1_555
C3_2 C2_2 1_555 1_555
H3_2 C3_2 1_555 1_555
C4_2 C3_2 1_555 1_555
C5_2 N1_2 1_555 1_555
H4_2 C5_2 1_555 1_555
C6_2 N2_2 1_555 1_555
C7_2 C6_2 1_555 1_555
H5_2 C7_2 1_555 1_555
C8_2 C7_2 1_555 1_555
H6_2 C8_2 1_555 1_555
C9_2 N2_2 1_555 1_555
C10_2 C7_2 1_555 1_555
H7_2 C10_2 1_555 1_555
C11_2 C10_2 1_555 1_555
H8_2 C11_2 1_555 1_555
C12_2 C11_2 1_555 1_555
H9_2 C12_2 1_555 1_555
C13_2 C8_2 1_555 1_555
H10_2 C13_2 1_555 1_555
C14_2 C10_2 1_555 1_555
H11_2 C14_2 1_555 1_555
C15_2 C14_2 1_555 1_555
C16_2 N3_2 1_555 1_555
C17_2 C13_2 1_555 1_555
H12_2 C17_2 1_555 1_555
C18_2 N3_2 1_555 1_555
C19_2 C18_2 1_555 1_555
H13_2 C19_2 1_555 1_555
C20_2 C19_2 1_555 1_555
H14_2 C20_2 1_555 1_555
C21_2 N4_2 1_555 1_555
H15_2 C21_2 1_555 1_555
C22_2 N4_2 1_555 1_555
H16_2 C22_2 1_555 1_555
C23A N5A 1_555 1_555
C4 C5 1_555 1_555
C8 C9 1_555 1_555
C12 C13 1_555 1_555
C14 C17 1_555 1_555
C16 C17 1_555 1_555
C18 C22 1_555 1_555
C4_2 C5_2 1_555 1_555
C8_2 C9_2 1_555 1_555
C12_2 C13_2 1_555 1_555
C14_2 C17_2 1_555 1_555
C16_2 C17_2 1_555 1_555
C18_2 C22_2 1_555 1_555
C20_2 C21_2 1_555 1_555

#END
