
#######################################################################
#
#                 Cambridge Crystallographic Data Centre
#                                CCDC 
#
#######################################################################
#
# If this CIF has been generated from an entry in the Cambridge 
# Structural Database, then it will include bibliographic, chemical, 
# crystal, experimental, refinement or atomic coordinate data resulting 
# from the CCDC's data processing and validation procedures.
#
#######################################################################

data_PATROT
_symmetry_cell_setting           triclinic
_symmetry_space_group_name_H-M   'P -1'
_symmetry_Int_Tables_number      2
_space_group_name_Hall           '-P 1'
loop_
_symmetry_equiv_pos_site_id
_symmetry_equiv_pos_as_xyz
1 x,y,z
2 -x,-y,-z
_cell_length_a                   6.5428(6)
_cell_length_b                   13.4439(13)
_cell_length_c                   22.2129(16)
_cell_angle_alpha                101.771(7)
_cell_angle_beta                 92.372(7)
_cell_angle_gamma                100.630(8)
_cell_volume                     1873.6
loop_
_atom_site_label
_atom_site_type_symbol
_atom_site_fract_x
_atom_site_fract_y
_atom_site_fract_z
Cd1 Cd 0.71526(5) 0.04112(3) 0.752541(15)
Na1 Na 1.0941(2) -0.03973(14) 0.67112(7)
Na2 Na 1.1986(2) 0.08196(18) 0.82769(8)
C1 C 1.0210(7) 0.1964(4) 0.71729(18)
C2 C 1.1357(6) 0.2860(3) 0.69326(18)
C3 C 1.3523(6) 0.3058(4) 0.69344(19)
H1 H 1.4301 0.2626 0.7075
C4 C 1.4490(6) 0.3907(4) 0.6723(2)
H2 H 1.5939 0.4054 0.6736
C5 C 1.3386(6) 0.4544(4) 0.6494(2)
H3 H 1.4072 0.5105 0.6347
C6 C 1.1232(6) 0.4331(4) 0.64862(19)
C7 C 1.0265(6) 0.3510(4) 0.67162(18)
H4 H 0.8821 0.3390 0.6726
C8 C 1.0945(6) 0.5791(4) 0.6046(2)
H5 H 1.1741 0.5578 0.5701
H6 H 1.1902 0.6252 0.6374
C9 C 0.9331(6) 0.6350(4) 0.5850(2)
C10 C 0.9392(7) 0.6639(4) 0.5286(2)
H7 H 1.0370 0.6439 0.5019
C11 C 0.8015(7) 0.7224(4) 0.5114(2)
H8 H 0.8091 0.7414 0.4735
C12 C 0.6546(6) 0.7524(3) 0.54966(19)
C13 C 0.6475(6) 0.7217(3) 0.60613(19)
H9 H 0.5496 0.7414 0.6330
C14 C 0.7826(6) 0.6629(4) 0.6227(2)
H10 H 0.7719 0.6417 0.6600
C15 C 0.5079(6) 0.8157(4) 0.53069(19)
C16 C 0.4164(7) 0.7858(4) 0.4701(2)
H11 H 0.4475 0.7284 0.4437
C17 C 0.2791(7) 0.8413(4) 0.4490(2)
H12 H 0.2226 0.8219 0.4082
C18 C 0.2271(6) 0.9235(4) 0.4873(2)
H13 H 0.1337 0.9596 0.4730
C19 C 0.3129(5) 0.9534(4) 0.54736(18)
H14 H 0.2765 1.0095 0.5737
C20 C 0.4558(5) 0.8996(4) 0.56929(18)
C21 C 0.5608(6) 0.9469(3) 0.63255(18)
C22 C 0.8287(8) -0.1396(4) 0.7739(2)
C23 C 0.8617(6) -0.2426(4) 0.78567(18)
C24 C 1.0468(7) -0.2747(4) 0.77411(19)
H15 H 1.1574 -0.2317 0.7614
C25 C 1.0645(7) -0.3708(5) 0.7817(2)
H16 H 1.1876 -0.3939 0.7727
C26 C 0.9052(7) -0.4354(4) 0.8023(2)
H17 H 0.9212 -0.5006 0.8073
C27 C 0.6997(6) -0.3055(4) 0.8064(2)
H18 H 0.5753 -0.2830 0.8142
C28 C 0.7228(7) -0.4013(4) 0.8153(2)
C29 C 0.5837(7) -0.5487(4) 0.8552(2)
H19 H 0.7071 -0.5346 0.8837
H20 H 0.6034 -0.5993 0.8191
C30 C 0.3968(7) -0.5913(4) 0.8852(2)
C31 C 0.4139(7) -0.6089(4) 0.9442(2)
H21 H 0.5440 -0.5911 0.9663
C32 C 0.2439(7) -0.6519(4) 0.9710(2)
H22 H 0.2613 -0.6627 1.0108
C33 C 0.0453(6) -0.6796(4) 0.93970(19)
C34 C 0.0282(7) -0.6612(4) 0.8806(2)
H23 H -0.1019 -0.6784 0.8585
C35 C 0.1987(7) -0.6183(4) 0.8539(2)
H24 H 0.1818 -0.6070 0.8142
C36 C -0.1364(7) -0.7258(4) 0.9700(2)
C37 C -0.1558(8) -0.6821(5) 1.0311(2)
H25 H -0.0574 -0.6246 1.0515
C38 C -0.3183(9) -0.7222(6) 1.0623(2)
H26 H -0.3284 -0.6913 1.1033
C39 C -0.4647(8) -0.8069(5) 1.0337(2)
H27 H -0.5717 -0.8347 1.0553
C40 C -0.4521(7) -0.8510(5) 0.9721(2)
H28 H -0.5533 -0.9074 0.9521
C41 C -0.2904(6) -0.8116(4) 0.94042(19)
C42 C -0.2826(6) -0.8645(4) 0.87432(19)
O1 O 0.6522(5) -0.1176(3) 0.77882(15)
O2 O 0.9827(5) -0.0783(3) 0.75972(14)
O4 O 0.5560(5) -0.4563(3) 0.83772(16)
O5 O -0.1170(4) -0.8920(3) 0.85666(13)
O6 O -0.4462(4) -0.8836(3) 0.83812(12)
O7 O 0.8293(4) 0.1915(2) 0.72385(13)
O8 O 1.1195(4) 0.1301(2) 0.73071(13)
O9 O 0.9951(4) 0.4906(3) 0.62570(14)
O10 O 0.4475(4) 0.9761(2) 0.67472(12)
O11 O 0.7548(4) 0.9591(2) 0.64182(12)
Cd1_2 Cd -0.28474(5) -0.95888(3) 0.752541(15)
Cd1_3 Cd 0.71526(5) 1.04112(3) 0.752541(15)
Na1_2 Na 0.0941(2) 0.96027(14) 0.67112(7)
Na1_3 Na 1.0941(2) 0.96027(14) 0.67112(7)
Na2_2 Na 0.1986(2) -0.91804(18) 0.82769(8)
Na2_3 Na -0.8014(2) -0.91804(18) 0.82769(8)
O5_2 O 0.8830(4) 0.1080(3) 0.85666(13)
O6_2 O 0.5538(4) 0.1164(3) 0.83812(12)
O6_3 O 1.5538(4) 0.1164(3) 0.83812(12)
O10_2 O 0.4475(4) -0.0239(2) 0.67472(12)
O10_3 O 1.4475(4) -0.0239(2) 0.67472(12)
O11_2 O 0.7548(4) -0.0409(2) 0.64182(12)
O3 O 0.1142(16) -1.0441(9) 0.9116(5)
O12? O 0.2776(16) -1.0587(10) 0.8687(5)
loop_
_geom_bond_atom_site_label_1
_geom_bond_atom_site_label_2
_geom_bond_site_symmetry_1
_geom_bond_site_symmetry_2
Cd1 O1 1_555 1_555
Na1 O2 1_555 1_555
Na2 O2 1_555 1_555
C1 C2 1_555 1_555
C2 C3 1_555 1_555
C3 H1 1_555 1_555
C4 C3 1_555 1_555
H2 C4 1_555 1_555
C5 C4 1_555 1_555
H3 C5 1_555 1_555
C6 C5 1_555 1_555
C7 C2 1_555 1_555
H4 C7 1_555 1_555
C8 H5 1_555 1_555
H6 C8 1_555 1_555
C9 C8 1_555 1_555
C10 C9 1_555 1_555
H7 C10 1_555 1_555
C11 C10 1_555 1_555
H8 C11 1_555 1_555
C12 C11 1_555 1_555
C13 C12 1_555 1_555
H9 C13 1_555 1_555
C14 C9 1_555 1_555
H10 C14 1_555 1_555
C15 C12 1_555 1_555
C16 C15 1_555 1_555
H11 C16 1_555 1_555
C17 C16 1_555 1_555
H12 C17 1_555 1_555
C18 C17 1_555 1_555
H13 C18 1_555 1_555
C19 C18 1_555 1_555
H14 C19 1_555 1_555
C20 C15 1_555 1_555
C21 C20 1_555 1_555
C22 C23 1_555 1_555
C23 C24 1_555 1_555
C24 H15 1_555 1_555
C25 C24 1_555 1_555
H16 C25 1_555 1_555
C26 C25 1_555 1_555
H17 C26 1_555 1_555
C27 C23 1_555 1_555
H18 C27 1_555 1_555
C28 C26 1_555 1_555
C29 H19 1_555 1_555
H20 C29 1_555 1_555
C30 C29 1_555 1_555
C31 C30 1_555 1_555
H21 C31 1_555 1_555
C32 C31 1_555 1_555
H22 C32 1_555 1_555
C33 C32 1_555 1_555
C34 C33 1_555 1_555
H23 C34 1_555 1_555
C35 C30 1_555 1_555
H24 C35 1_555 1_555
C36 C33 1_555 1_555
C37 C36 1_555 1_555
H25 C37 1_555 1_555
C38 C37 1_555 1_555
H26 C38 1_555 1_555
C39 C38 1_555 1_555
H27 C39 1_555 1_555
C40 C39 1_555 1_555
H28 C40 1_555 1_555
C41 C36 1_555 1_555
C42 C41 1_555 1_555
O1 C22 1_555 1_555
O2 Cd1 1_555 1_555
O4 C28 1_555 1_555
O5 C42 1_555 1_555
O6 C42 1_555 1_555
O7 Cd1 1_555 1_555
O8 Na1 1_555 1_555
O9 C6 1_555 1_555
O10 C21 1_555 1_555
O11 C21 1_555 1_555
Cd1_2 O5 1_555 1_555
Cd1_3 O10 1_555 1_555
Na1_2 O10 1_555 1_555
Na1_3 O11 1_555 1_555
Na2_2 O5 1_555 1_555
Na2_3 O6 1_555 1_555
O5_2 Cd1 1_555 1_555
O6_2 Cd1 1_555 1_555
O6_3 Na2 1_555 1_555
O10_2 Cd1 1_555 1_555
O10_3 Na1 1_555 1_555
O11_2 Cd1 1_555 1_555
Na1 O11_2 1_555 1_555
Na2 O8 1_555 1_555
Na2 O5_2 1_555 1_555
C1 O7 1_555 1_555
C1 O8 1_555 1_555
C6 C7 1_555 1_555
C8 O9 1_555 1_555
C13 C14 1_555 1_555
C19 C20 1_555 1_555
C22 O2 1_555 1_555
C27 C28 1_555 1_555
C29 O4 1_555 1_555
C34 C35 1_555 1_555
C40 C41 1_555 1_555
O6 Cd1_2 1_555 1_555
O11 Cd1_3 1_555 1_555

#END
