
#######################################################################
#
#                 Cambridge Crystallographic Data Centre
#                                CCDC 
#
#######################################################################
#
# If this CIF has been generated from an entry in the Cambridge 
# Structural Database, then it will include bibliographic, chemical, 
# crystal, experimental, refinement or atomic coordinate data resulting 
# from the CCDC's data processing and validation procedures.
#
#######################################################################

data_PATRAF
_symmetry_cell_setting           triclinic
_symmetry_space_group_name_H-M   'P -1'
_symmetry_Int_Tables_number      2
_space_group_name_Hall           '-P 1'
loop_
_symmetry_equiv_pos_site_id
_symmetry_equiv_pos_as_xyz
1 x,y,z
2 -x,-y,-z
_cell_length_a                   9.7329(5)
_cell_length_b                   12.0003(6)
_cell_length_c                   25.0949(13)
_cell_angle_alpha                77.713(4)
_cell_angle_beta                 83.216(4)
_cell_angle_gamma                72.719(4)
_cell_volume                     2729.87
loop_
_atom_site_label
_atom_site_type_symbol
_atom_site_fract_x
_atom_site_fract_y
_atom_site_fract_z
Cd1 Cd 0.5000 0.0000 1.0000
Cd2 Cd 0.5000 -0.5000 0.5000
C1 C 0.3470(7) -0.3977(7) 0.6655(2)
C2 C 0.4117(6) -0.4515(6) 0.6209(2)
H1 H 0.4856 -0.5221 0.6260
C3 C 0.2582(7) -0.2998(6) 0.5637(2)
H2 H 0.2263 -0.2672 0.5287
C4 C 0.1900(7) -0.2407(7) 0.6065(2)
H3 H 0.1167 -0.1698 0.6008
C5 C 0.2402(7) -0.2960(7) 0.6584(2)
H4 H 0.1987 -0.2616 0.6884
C6 C 0.3197(8) -0.4789(6) 0.7653(3)
C7 C 0.4234(6) -0.5395(6) 0.8104(2)
H5 H 0.4088 -0.6165 0.8280
C8 C 0.5747(7) -0.5555(6) 0.7825(2)
H6 H 0.6250 -0.6402 0.7854
C9 C 0.5522(8) -0.4983(6) 0.7239(2)
C10 C 0.4044(7) -0.4563(6) 0.8541(2)
H7 H 0.3056 -0.4369 0.8703
C11 C 0.4444(7) -0.3474(6) 0.8260(2)
H8 H 0.3813 -0.2717 0.8249
C12 C 0.5746(7) -0.3656(6) 0.80299(19)
H9 H 0.6110 -0.3038 0.7843
C13 C 0.6620(6) -0.4941(6) 0.8089(2)
H10 H 0.7587 -0.5021 0.7911
C14 C 0.5115(6) -0.5228(6) 0.8968(2)
H11 H 0.4899 -0.5966 0.9156
C15 C 0.7521(8) -0.4966(6) 0.9000(2)
C16 C 0.6682(6) -0.5499(6) 0.8697(2)
H12 H 0.7115 -0.6359 0.8741
C17 C 0.6908(7) -0.3771(7) 0.9734(2)
C18 C 0.6171(7) -0.2609(7) 0.9740(2)
H13 H 0.5488 -0.2218 0.9483
C19 C 0.7395(7) -0.2557(6) 1.0457(2)
H14 H 0.7568 -0.2147 1.0706
C20 C 0.8198(7) -0.3736(7) 1.0469(2)
H15 H 0.8888 -0.4104 1.0725
C21 C 0.7969(6) -0.4346(6) 1.0104(2)
H16 H 0.8509 -0.5128 1.0102
C22 C 0.1346(7) -0.0389(6) 0.9118(2)
C23 C 0.2540(7) -0.0170(5) 0.9262(2)
H17 H 0.3013 0.0286 0.9002
C24 C 0.2367(7) -0.1261(6) 1.0119(2)
H18 H 0.2684 -0.1530 1.0471
C25 C 0.1208(7) -0.1584(6) 0.9995(2)
H19 H 0.0801 -0.2095 1.0252
C26 C 0.0655(6) -0.1132(6) 0.9477(2)
H20 H -0.0130 -0.1320 0.9380
C27 C 0.0798(7) -0.0430(6) 0.8175(2)
C28 C 0.0079(6) 0.0458(5) 0.77027(18)
H21 H -0.0820 0.0301 0.7646
C29 C -0.0258(6) 0.1653(6) 0.7875(2)
H22 H -0.1302 0.2020 0.7882
C30 C 0.0243(7) 0.1386(8) 0.8452(2)
C31 C 0.1037(6) 0.0466(6) 0.71693(19)
H23 H 0.1296 -0.0306 0.7056
C32 C 0.2322(7) 0.0792(7) 0.7247(2)
H24 H 0.3246 0.0309 0.7185
C33 C 0.2092(7) 0.1826(6) 0.74135(19)
H25 H 0.2831 0.2107 0.7486
C34 C 0.0506(6) 0.2495(6) 0.7472(2)
H26 H 0.0360 0.3251 0.7591
C35 C 0.0091(6) 0.1453(6) 0.67482(19)
H27 H -0.0831 0.1287 0.6736
C36 C 0.0824(7) 0.1588(7) 0.6175(2)
C37 C 0.0504(8) 0.3398(7) 0.6464(3)
C38 C -0.0179(6) 0.2663(6) 0.6916(2)
H28 H -0.1218 0.3043 0.6951
C39 C 0.1390(7) 0.3286(6) 0.5497(2)
C40 C 0.0738(7) 0.3306(6) 0.5046(2)
H29 H 0.0006 0.2942 0.5071
C41 C 0.1183(7) 0.3877(6) 0.4552(2)
H30 H 0.0755 0.3916 0.4234
C42 C 0.2285(7) 0.4394(6) 0.4539(2)
H31 H 0.2569 0.4786 0.4202
C43 C 0.2522(7) 0.3788(6) 0.5444(2)
H32 H 0.3002 0.3716 0.5754
C44 C 0.6440(8) -0.8770(7) 0.5886(2)
C45 C 0.5123(8) -0.8998(7) 0.6048(3)
H33 H 0.4438 -0.8482 0.6239
C46 C 0.4785(9) -0.9970(8) 0.5936(3)
H34 H 0.3890 -1.0096 0.6051
C47 C 0.5769(10) -1.0730(8) 0.5658(3)
C48 C 0.7088(10) -1.0526(8) 0.5485(3)
H35 H 0.7741 -1.1025 0.5277
C49 C 0.7464(9) -0.9585(7) 0.5618(3)
H36 H 0.8388 -0.9503 0.5528
C50 C 0.5391(8) -1.1792(7) 0.5516(3)
H37 H 0.4432 -1.1792 0.5660
H38 H 0.6061 -1.2520 0.5675
H39 H 0.5445 -1.1725 0.5127
C51 C 0.3330(6) 0.0124(6) 1.1862(2)
C52 C 0.3614(7) -0.0185(7) 1.2414(3)
H40 H 0.4249 -0.0914 1.2550
C53 C 0.2945(8) 0.0604(8) 1.2757(3)
H41 H 0.3144 0.0396 1.3125
C54 C 0.1987(7) 0.1692(7) 1.2571(3)
C55 C 0.1735(6) 0.1994(6) 1.2029(3)
H42 H 0.1094 0.2722 1.1896
C56 C 0.2410(7) 0.1245(7) 1.1675(2)
H43 H 0.2253 0.1488 1.1305
C57 C 0.1366(7) 0.2595(6) 1.2955(2)
H44 H 0.0770 0.3315 1.2755
H45 H 0.2143 0.2764 1.3096
H46 H 0.0800 0.2267 1.3253
N1 N 0.3653(6) -0.3995(6) 0.57007(17)
N2 N 0.4059(6) -0.4580(5) 0.71668(18)
N3 N 0.6518(6) -0.4381(5) 0.93683(18)
N4 N 0.6397(5) -0.2006(5) 1.01035(19)
N5 N 0.3064(5) -0.0579(5) 0.97584(19)
N6 N 0.0814(5) 0.0146(5) 0.85983(17)
N7 N 0.0950(5) 0.2740(5) 0.60353(18)
N8 N 0.2962(6) 0.4374(5) 0.4967(2)
O1 O 0.6450(4) -0.4852(4) 0.68877(14)
O2 O 0.1925(5) -0.4503(4) 0.76919(14)
O3 O 0.4087(4) -0.3919(4) 0.96227(12)
O4 O 0.8753(4) -0.4952(4) 0.89268(15)
O5 O 0.0196(5) 0.2095(4) 0.87338(14)
O6 O 0.1300(4) -0.1495(4) 0.82063(13)
O7 O 0.1213(5) 0.0859(4) 0.58849(15)
O8 O 0.0628(5) 0.4357(4) 0.64419(16)
O9 O 0.6523(5) -0.7442(4) 0.65729(13)
O10 O 0.5612(4) -0.6533(4) 0.56873(13)
O11 O 0.8142(4) -0.7442(4) 0.57576(14)
O12 O 0.3151(4) -0.1595(4) 1.14351(13)
O13 O 0.4158(4) -0.0096(4) 1.08815(13)
O14 O 0.5549(4) -0.1512(4) 1.15983(13)
S1 S 0.6735(2) -0.74560(19) 0.59840(7)
S2 S 0.4119(2) -0.08708(18) 1.14169(6)
C58 C 0.5092(8) -0.4441(6) 0.9376(2)
Cd2_2 Cd 0.5000 0.5000 0.5000
Cd2_3 Cd 0.5000 0.5000 1.5000
Cd2_4 Cd 0.5000 -0.5000 1.5000
C1A C 0.6530(7) 0.3977(7) 1.3345(2)
C2A C 0.5883(6) 0.4515(6) 1.3791(2)
H1A H 0.5144 0.5221 1.3740
C3A C 0.7418(7) 0.2998(6) 1.4363(2)
H2A H 0.7737 0.2672 1.4713
C4A C 0.8100(7) 0.2407(7) 1.3935(2)
H3A H 0.8833 0.1698 1.3992
C5A C 0.7598(7) 0.2960(7) 1.3416(2)
H4A H 0.8013 0.2616 1.3116
C6A C 0.6803(8) 0.4789(6) 1.2347(3)
C7A C 0.5766(6) 0.5395(6) 1.1896(2)
H5A H 0.5912 0.6165 1.1720
C8A C 0.4253(7) 0.5555(6) 1.2175(2)
H6A H 0.3750 0.6402 1.2146
C9A C 0.4478(8) 0.4983(6) 1.2761(2)
C10A C 0.5956(7) 0.4563(6) 1.1459(2)
H7A H 0.6944 0.4369 1.1297
C11A C 0.5556(7) 0.3474(6) 1.1740(2)
H8A H 0.6187 0.2717 1.1751
C12A C 0.4254(7) 0.3656(6) 1.19701(19)
H9A H 0.3890 0.3038 1.2157
C13A C 0.3380(6) 0.4941(6) 1.1911(2)
H10A H 0.2413 0.5021 1.2089
C14A C 0.4885(6) 0.5228(6) 1.1032(2)
H11A H 0.5101 0.5966 1.0844
C15A C 0.2479(8) 0.4966(6) 1.1000(2)
C16A C 0.3318(6) 0.5499(6) 1.1303(2)
H12A H 0.2885 0.6359 1.1259
C17A C 0.3092(7) 0.3771(7) 1.0266(2)
C18A C 0.3829(7) 0.2609(7) 1.0260(2)
H13A H 0.4512 0.2218 1.0517
C19A C 0.2605(7) 0.2557(6) 0.9543(2)
H14A H 0.2432 0.2147 0.9294
C20A C 0.1802(7) 0.3736(7) 0.9531(2)
H15A H 0.1112 0.4104 0.9275
C21A C 0.2031(6) 0.4346(6) 0.9896(2)
H16A H 0.1491 0.5128 0.9898
C22A C 0.8654(7) 0.0389(6) 1.0882(2)
C23A C 0.7460(7) 0.0170(5) 1.0738(2)
H17A H 0.6987 -0.0286 1.0998
C24A C 0.7633(7) 0.1261(6) 0.9881(2)
H18A H 0.7316 0.1530 0.9529
C25A C 0.8792(7) 0.1584(6) 1.0005(2)
H19A H 0.9199 0.2095 0.9748
C26A C 0.9345(6) 0.1132(6) 1.0523(2)
H20A H 1.0130 0.1320 1.0620
C27A C 0.9202(7) 0.0430(6) 1.1825(2)
C28A C 0.9921(6) -0.0458(5) 1.22973(18)
H21A H 1.0820 -0.0301 1.2354
C29A C 1.0258(6) -0.1653(6) 1.2125(2)
H22A H 1.1302 -0.2020 1.2118
C30A C 0.9757(7) -0.1386(8) 1.1548(2)
C31A C 0.8963(6) -0.0466(6) 1.28307(19)
H23A H 0.8704 0.0306 1.2944
C32A C 0.7678(7) -0.0792(7) 1.2753(2)
H24A H 0.6754 -0.0309 1.2815
C33A C 0.7908(7) -0.1826(6) 1.25865(19)
H25A H 0.7169 -0.2107 1.2514
C34A C 0.9494(6) -0.2495(6) 1.2528(2)
H26A H 0.9640 -0.3251 1.2409
C35A C 0.9909(6) -0.1453(6) 1.32518(19)
H27A H 1.0831 -0.1287 1.3264
C36A C 0.9176(7) -0.1588(7) 1.3825(2)
C37A C 0.9496(8) -0.3398(7) 1.3536(3)
C38A C 1.0179(6) -0.2663(6) 1.3084(2)
H28A H 1.1218 -0.3043 1.3049
C39A C 0.8610(7) -0.3286(6) 1.4503(2)
C40A C 0.9262(7) -0.3306(6) 1.4954(2)
H29A H 0.9994 -0.2942 1.4929
C41A C 0.8817(7) -0.3877(6) 1.5448(2)
H30A H 0.9245 -0.3916 1.5766
C42A C 0.7715(7) -0.4394(6) 1.5461(2)
H31A H 0.7431 -0.4786 1.5798
C43A C 0.7478(7) -0.3788(6) 1.4556(2)
H32A H 0.6998 -0.3716 1.4246
C44A C 0.3560(8) -0.1230(7) 0.4114(2)
C45A C 0.4877(8) -0.1002(7) 0.3952(3)
H33A H 0.5562 -0.1518 0.3761
C46A C 0.5215(9) -0.0030(8) 0.4064(3)
H34A H 0.6110 0.0096 0.3949
C47A C 0.4231(10) 0.0730(8) 0.4342(3)
C48A C 0.2912(10) 0.0526(8) 0.4515(3)
H35A H 0.2259 0.1025 0.4723
C49A C 0.2536(9) -0.0415(7) 0.4382(3)
H36A H 0.1612 -0.0497 0.4472
C50A C 0.4609(8) 0.1792(7) 0.4484(3)
H37A H 0.5568 0.1792 0.4340
H38A H 0.3939 0.2520 0.4325
H39A H 0.4555 0.1725 0.4873
C51A C 0.6670(6) -0.0124(6) 0.8138(2)
C52A C 0.6386(7) 0.0185(7) 0.7586(3)
H40A H 0.5751 0.0914 0.7450
C53A C 0.7055(8) -0.0604(8) 0.7243(3)
H41A H 0.6856 -0.0396 0.6875
C54A C 0.8013(7) -0.1692(7) 0.7429(3)
C55A C 0.8265(6) -0.1994(6) 0.7971(3)
H42A H 0.8906 -0.2722 0.8104
C56A C 0.7590(7) -0.1245(7) 0.8325(2)
H43A H 0.7747 -0.1488 0.8695
C57A C 0.8634(7) -0.2595(6) 0.7045(2)
H44A H 0.9230 -0.3315 0.7245
H45A H 0.7857 -0.2764 0.6904
H46A H 0.9200 -0.2267 0.6747
N1A N 0.6347(6) 0.3995(6) 1.42993(17)
N1A_2 N 0.6347(6) -0.6005(6) 0.42993(17)
N2A N 0.5941(6) 0.4580(5) 1.28332(18)
N3A N 0.3482(6) 0.4381(5) 1.06317(18)
N4A N 0.3603(5) 0.2006(5) 0.98965(19)
N5A N 0.6936(5) 0.0579(5) 1.02416(19)
N6A N 0.9186(5) -0.0146(5) 1.14017(17)
N7A N 0.9050(5) -0.2740(5) 1.39647(18)
N8A N 0.7038(6) -0.4374(5) 1.5033(2)
N8_2 N 0.2962(6) -0.5626(5) 0.4967(2)
N8A_2 N 0.7038(6) -0.4374(5) 0.5033(2)
O1A O 0.3550(4) 0.4852(4) 1.31123(14)
O2A O 0.8075(5) 0.4503(4) 1.23081(14)
O3A O 0.5913(4) 0.3919(4) 1.03773(12)
O4A O 0.1247(4) 0.4952(4) 1.10732(15)
O5A O 0.9804(5) -0.2095(4) 1.12662(14)
O6A O 0.8700(4) 0.1495(4) 1.17937(13)
O7A O 0.8787(5) -0.0859(4) 1.41151(15)
O8A O 0.9372(5) -0.4357(4) 1.35581(16)
O9A O 0.3477(5) -0.2558(4) 0.34271(13)
O10A O 0.4388(4) -0.3467(4) 0.43127(13)
O11A O 0.1858(4) -0.2558(4) 0.42424(14)
O12A O 0.6849(4) 0.1595(4) 0.85649(13)
O13A O 0.5842(4) 0.0096(4) 0.91185(13)
O14A O 0.4451(4) 0.1512(4) 0.84017(13)
S1A S 0.3265(2) -0.25440(19) 0.40160(7)
S2A S 0.5881(2) 0.08708(18) 0.85831(6)
C58A C 0.4908(8) 0.4441(6) 1.0624(2)
loop_
_geom_bond_atom_site_label_1
_geom_bond_atom_site_label_2
_geom_bond_site_symmetry_1
_geom_bond_site_symmetry_2
Cd1 N4 1_555 1_555
Cd2 N1 1_555 1_555
C1 C2 1_555 1_555
C2 H1 1_555 1_555
C3 H2 1_555 1_555
C4 C3 1_555 1_555
H3 C4 1_555 1_555
C5 C1 1_555 1_555
H4 C5 1_555 1_555
C6 C7 1_555 1_555
C7 H5 1_555 1_555
C8 C7 1_555 1_555
H6 C8 1_555 1_555
C9 C8 1_555 1_555
C10 C7 1_555 1_555
H7 C10 1_555 1_555
C11 C10 1_555 1_555
H8 C11 1_555 1_555
C12 C11 1_555 1_555
H9 C12 1_555 1_555
C13 C8 1_555 1_555
H10 C13 1_555 1_555
C14 C10 1_555 1_555
H11 C14 1_555 1_555
C15 C16 1_555 1_555
C16 C13 1_555 1_555
H12 C16 1_555 1_555
C17 C18 1_555 1_555
C18 H13 1_555 1_555
C19 H14 1_555 1_555
C20 C19 1_555 1_555
H15 C20 1_555 1_555
C21 C17 1_555 1_555
H16 C21 1_555 1_555
C22 C23 1_555 1_555
C23 H17 1_555 1_555
C24 H18 1_555 1_555
C25 C24 1_555 1_555
H19 C25 1_555 1_555
C26 C22 1_555 1_555
H20 C26 1_555 1_555
C27 C28 1_555 1_555
C28 H21 1_555 1_555
C29 C28 1_555 1_555
H22 C29 1_555 1_555
C30 C29 1_555 1_555
C31 C28 1_555 1_555
H23 C31 1_555 1_555
C32 C31 1_555 1_555
H24 C32 1_555 1_555
C33 C32 1_555 1_555
H25 C33 1_555 1_555
C34 C29 1_555 1_555
H26 C34 1_555 1_555
C35 C31 1_555 1_555
H27 C35 1_555 1_555
C36 C35 1_555 1_555
C37 C38 1_555 1_555
C38 C34 1_555 1_555
H28 C38 1_555 1_555
C39 C40 1_555 1_555
C40 H29 1_555 1_555
C41 C40 1_555 1_555
H30 C41 1_555 1_555
C42 C41 1_555 1_555
H31 C42 1_555 1_555
C43 C39 1_555 1_555
H32 C43 1_555 1_555
C44 C45 1_555 1_555
C45 H33 1_555 1_555
C46 C45 1_555 1_555
H34 C46 1_555 1_555
C47 C46 1_555 1_555
C48 C47 1_555 1_555
H35 C48 1_555 1_555
C49 C44 1_555 1_555
H36 C49 1_555 1_555
C50 C47 1_555 1_555
H37 C50 1_555 1_555
H38 C50 1_555 1_555
H39 C50 1_555 1_555
C51 C52 1_555 1_555
C52 H40 1_555 1_555
C53 C52 1_555 1_555
H41 C53 1_555 1_555
C54 C53 1_555 1_555
C55 C54 1_555 1_555
H42 C55 1_555 1_555
C56 C51 1_555 1_555
H43 C56 1_555 1_555
C57 C54 1_555 1_555
H44 C57 1_555 1_555
H45 C57 1_555 1_555
H46 C57 1_555 1_555
N1 C2 1_555 1_555
N2 C1 1_555 1_555
N3 C15 1_555 1_555
N4 C18 1_555 1_555
N5 Cd1 1_555 1_555
N6 C22 1_555 1_555
N7 C36 1_555 1_555
N8 C42 1_555 1_555
O1 C9 1_555 1_555
O2 C6 1_555 1_555
O3 C58 1_555 1_555
O4 C15 1_555 1_555
O5 C30 1_555 1_555
O6 C27 1_555 1_555
O7 C36 1_555 1_555
O8 C37 1_555 1_555
O9 S1 1_555 1_555
O10 Cd2 1_555 1_555
O11 S1 1_555 1_555
O12 S2 1_555 1_555
O13 Cd1 1_555 1_555
O14 S2 1_555 1_555
S1 C44 1_555 1_555
S2 C51 1_555 1_555
C58 C14 1_555 1_555
Cd2_2 N8 1_555 1_555
Cd2_3 N1A 1_555 1_555
Cd2_4 N8A 1_555 1_555
C1A C2A 1_555 1_555
C2A H1A 1_555 1_555
C3A H2A 1_555 1_555
C4A C3A 1_555 1_555
H3A C4A 1_555 1_555
C5A C1A 1_555 1_555
H4A C5A 1_555 1_555
C6A C7A 1_555 1_555
C7A H5A 1_555 1_555
C8A C7A 1_555 1_555
H6A C8A 1_555 1_555
C9A C8A 1_555 1_555
C10A C7A 1_555 1_555
H7A C10A 1_555 1_555
C11A C10A 1_555 1_555
H8A C11A 1_555 1_555
C12A C11A 1_555 1_555
H9A C12A 1_555 1_555
C13A C8A 1_555 1_555
H10A C13A 1_555 1_555
C14A C10A 1_555 1_555
H11A C14A 1_555 1_555
C15A C16A 1_555 1_555
C16A C13A 1_555 1_555
H12A C16A 1_555 1_555
C17A C18A 1_555 1_555
C18A H13A 1_555 1_555
C19A H14A 1_555 1_555
C20A C19A 1_555 1_555
H15A C20A 1_555 1_555
C21A C17A 1_555 1_555
H16A C21A 1_555 1_555
C22A C23A 1_555 1_555
C23A H17A 1_555 1_555
C24A H18A 1_555 1_555
C25A C24A 1_555 1_555
H19A C25A 1_555 1_555
C26A C22A 1_555 1_555
H20A C26A 1_555 1_555
C27A C28A 1_555 1_555
C28A H21A 1_555 1_555
C29A C28A 1_555 1_555
H22A C29A 1_555 1_555
C30A C29A 1_555 1_555
C31A C28A 1_555 1_555
H23A C31A 1_555 1_555
C32A C31A 1_555 1_555
H24A C32A 1_555 1_555
C33A C32A 1_555 1_555
H25A C33A 1_555 1_555
C34A C29A 1_555 1_555
H26A C34A 1_555 1_555
C35A C31A 1_555 1_555
H27A C35A 1_555 1_555
C36A C35A 1_555 1_555
C37A C38A 1_555 1_555
C38A C34A 1_555 1_555
H28A C38A 1_555 1_555
C39A C40A 1_555 1_555
C40A H29A 1_555 1_555
C41A C40A 1_555 1_555
H30A C41A 1_555 1_555
C42A C41A 1_555 1_555
H31A C42A 1_555 1_555
C43A C39A 1_555 1_555
H32A C43A 1_555 1_555
C44A C45A 1_555 1_555
C45A H33A 1_555 1_555
C46A C45A 1_555 1_555
H34A C46A 1_555 1_555
C47A C46A 1_555 1_555
C48A C47A 1_555 1_555
H35A C48A 1_555 1_555
C49A C44A 1_555 1_555
H36A C49A 1_555 1_555
C50A C47A 1_555 1_555
H37A C50A 1_555 1_555
H38A C50A 1_555 1_555
H39A C50A 1_555 1_555
C51A C52A 1_555 1_555
C52A H40A 1_555 1_555
C53A C52A 1_555 1_555
H41A C53A 1_555 1_555
C54A C53A 1_555 1_555
C55A C54A 1_555 1_555
H42A C55A 1_555 1_555
C56A C51A 1_555 1_555
H43A C56A 1_555 1_555
C57A C54A 1_555 1_555
H44A C57A 1_555 1_555
H45A C57A 1_555 1_555
H46A C57A 1_555 1_555
N1A C2A 1_555 1_555
N1A_2 Cd2 1_555 1_555
N2A C1A 1_555 1_555
N3A C15A 1_555 1_555
N4A Cd1 1_555 1_555
N5A Cd1 1_555 1_555
N6A C22A 1_555 1_555
N7A C36A 1_555 1_555
N8A C42A 1_555 1_555
N8_2 Cd2 1_555 1_555
N8A_2 Cd2 1_555 1_555
O1A C9A 1_555 1_555
O2A C6A 1_555 1_555
O3A C58A 1_555 1_555
O4A C15A 1_555 1_555
O5A C30A 1_555 1_555
O6A C27A 1_555 1_555
O7A C36A 1_555 1_555
O8A C37A 1_555 1_555
O9A S1A 1_555 1_555
O10A Cd2 1_555 1_555
O11A S1A 1_555 1_555
O12A S2A 1_555 1_555
O13A Cd1 1_555 1_555
O14A S2A 1_555 1_555
S1A C44A 1_555 1_555
S2A C51A 1_555 1_555
C58A C14A 1_555 1_555
C3 N1 1_555 1_555
C4 C5 1_555 1_555
C6 N2 1_555 1_555
C9 N2 1_555 1_555
C12 C13 1_555 1_555
C14 C16 1_555 1_555
C17 N3 1_555 1_555
C19 N4 1_555 1_555
C20 C21 1_555 1_555
C23 N5 1_555 1_555
C24 N5 1_555 1_555
C25 C26 1_555 1_555
C27 N6 1_555 1_555
C30 N6 1_555 1_555
C33 C34 1_555 1_555
C35 C38 1_555 1_555
C37 N7 1_555 1_555
C39 N7 1_555 1_555
C43 N8 1_555 1_555
C48 C49 1_555 1_555
C55 C56 1_555 1_555
N3 C58 1_555 1_555
O10 S1 1_555 1_555
O13 S2 1_555 1_555
C3A N1A 1_555 1_555
C4A C5A 1_555 1_555
C6A N2A 1_555 1_555
C9A N2A 1_555 1_555
C12A C13A 1_555 1_555
C14A C16A 1_555 1_555
C17A N3A 1_555 1_555
C18A N4A 1_555 1_555
C19A N4A 1_555 1_555
C20A C21A 1_555 1_555
C23A N5A 1_555 1_555
C24A N5A 1_555 1_555
C25A C26A 1_555 1_555
C27A N6A 1_555 1_555
C30A N6A 1_555 1_555
C33A C34A 1_555 1_555
C35A C38A 1_555 1_555
C37A N7A 1_555 1_555
C39A N7A 1_555 1_555
C43A N8A 1_555 1_555
C48A C49A 1_555 1_555
C55A C56A 1_555 1_555
N3A C58A 1_555 1_555
O10A S1A 1_555 1_555
O13A S2A 1_555 1_555

#END
