
#######################################################################
#
#                 Cambridge Crystallographic Data Centre
#                                CCDC 
#
#######################################################################
#
# If this CIF has been generated from an entry in the Cambridge 
# Structural Database, then it will include bibliographic, chemical, 
# crystal, experimental, refinement or atomic coordinate data resulting 
# from the CCDC's data processing and validation procedures.
#
#######################################################################

data_PATRIN
_symmetry_cell_setting           orthorhombic
_symmetry_space_group_name_H-M   'P b c a'
_symmetry_Int_Tables_number      61
_space_group_name_Hall           '-P 2ac 2ab'
loop_
_symmetry_equiv_pos_site_id
_symmetry_equiv_pos_as_xyz
1 x,y,z
2 1/2-x,-y,1/2+z
3 1/2+x,1/2-y,-z
4 -x,1/2+y,1/2-z
5 -x,-y,-z
6 1/2+x,y,1/2-z
7 1/2-x,1/2+y,z
8 x,1/2-y,1/2+z
_cell_length_a                   12.701(5)
_cell_length_b                   7.340(5)
_cell_length_c                   39.243(5)
_cell_angle_alpha                90
_cell_angle_beta                 90
_cell_angle_gamma                90
_cell_volume                     3658.44
loop_
_atom_site_label
_atom_site_type_symbol
_atom_site_fract_x
_atom_site_fract_y
_atom_site_fract_z
Cd1 Cd 0.28993(2) -0.29908(4) 0.627749(7)
C1 C -0.1508(3) 0.0160(6) 0.42429(11)
C2 C -0.1338(3) 0.1410(6) 0.45353(10)
C3 C -0.1232(3) 0.3287(6) 0.44928(11)
H1 H -0.1204 0.3790 0.4275
C4 C -0.1172(3) 0.4377(6) 0.47737(11)
H2 H -0.1093 0.5627 0.4745
C5 C -0.1226(3) 0.3667(7) 0.51002(12)
H3 H -0.1201 0.4433 0.5289
C6 C -0.1317(3) 0.1801(6) 0.51415(11)
C7 C -0.1349(3) 0.0691(6) 0.48599(11)
H4 H -0.1378 -0.0566 0.4889
C8 C -0.1281(4) 0.1919(7) 0.57545(10)
H5 H -0.1875 0.2730 0.5788
H6 H -0.0644 0.2646 0.5746
C9 C -0.1216(3) 0.0565(6) 0.60426(11)
C10 C -0.1374(4) 0.1138(7) 0.63736(11)
H7 H -0.1560 0.2342 0.6417
C11 C -0.1258(3) -0.0067(6) 0.66415(11)
H8 H -0.1372 0.0336 0.6863
C12 C -0.0972(3) -0.1885(6) 0.65847(10)
C13 C -0.0846(3) -0.2438(6) 0.62497(11)
H9 H -0.0675 -0.3646 0.6204
C14 C -0.0968(3) -0.1238(6) 0.59820(11)
H10 H -0.0882 -0.1646 0.5759
C15 C -0.0843(3) -0.3162(6) 0.68727(10)
C16 C -0.1584(3) -0.3211(7) 0.71346(11)
H11 H -0.2149 -0.2408 0.7127
C17 C -0.1507(4) -0.4401(7) 0.74022(12)
H12 H -0.2009 -0.4383 0.7575
C18 C -0.0688(4) -0.5622(7) 0.74153(12)
H13 H -0.0634 -0.6439 0.7596
C19 C 0.0053(4) -0.5624(6) 0.71586(12)
H14 H 0.0602 -0.6460 0.7165
C20 C -0.0011(3) -0.4395(6) 0.68904(10)
C21 C 0.0887(4) -0.4442(7) 0.66372(12)
O1 O 0.1470(2) -0.3066(5) 0.66227(8)
O2 O 0.1017(3) -0.5847(5) 0.64688(10)
O3 O -0.1405(3) 0.0932(4) 0.54477(8)
O4 O -0.1953(2) 0.0791(4) 0.39730(7)
O5 O -0.1266(2) -0.1475(4) 0.42543(7)
O6 O 0.3751(3) -0.4437(5) 0.67276(9)
H15 H 0.385(4) -0.563(7) 0.6707(14)
H16 H 0.433(4) -0.416(8) 0.6719(15)
Cd1F Cd 0.21007(2) -0.79908(4) 0.627749(7)
Cd1B Cd -0.21007(2) -0.20092(4) 0.372251(7)
Cd1D Cd -0.28993(2) 0.29908(4) 0.372251(7)
O2F O 0.3983(3) -0.0847(5) 0.64688(10)
O4B O 0.3047(2) -0.5791(4) 0.60270(7)
O4D O 0.1953(2) -0.0791(4) 0.60270(7)
O5B O 0.3734(2) -0.3525(4) 0.57457(7)
loop_
_geom_bond_atom_site_label_1
_geom_bond_atom_site_label_2
_geom_bond_site_symmetry_1
_geom_bond_site_symmetry_2
Cd1 O1 1_555 1_555
C1 C2 1_555 1_555
C2 C3 1_555 1_555
C3 H1 1_555 1_555
C4 C3 1_555 1_555
H2 C4 1_555 1_555
C5 C4 1_555 1_555
H3 C5 1_555 1_555
C6 C5 1_555 1_555
C7 C2 1_555 1_555
H4 C7 1_555 1_555
C8 H5 1_555 1_555
H6 C8 1_555 1_555
C9 C8 1_555 1_555
C10 C9 1_555 1_555
H7 C10 1_555 1_555
C11 C10 1_555 1_555
H8 C11 1_555 1_555
C12 C11 1_555 1_555
C13 C12 1_555 1_555
H9 C13 1_555 1_555
C14 C9 1_555 1_555
H10 C14 1_555 1_555
C15 C12 1_555 1_555
C16 C15 1_555 1_555
H11 C16 1_555 1_555
C17 C16 1_555 1_555
H12 C17 1_555 1_555
C18 C17 1_555 1_555
H13 C18 1_555 1_555
C19 C18 1_555 1_555
H14 C19 1_555 1_555
C20 C15 1_555 1_555
C21 C20 1_555 1_555
O1 C21 1_555 1_555
O2 C21 1_555 1_555
O3 C6 1_555 1_555
O4 C1 1_555 1_555
O5 C1 1_555 1_555
O6 Cd1 1_555 1_555
H15 O6 1_555 1_555
H16 O6 1_555 1_555
Cd1F O2 1_555 1_555
Cd1B O4 1_555 1_555
Cd1D O4 1_555 1_555
O2F Cd1 1_555 1_555
O4B Cd1 1_555 1_555
O4D Cd1 1_555 1_555
O5B Cd1 1_555 1_555
C6 C7 1_555 1_555
C8 O3 1_555 1_555
C13 C14 1_555 1_555
C19 C20 1_555 1_555
O5 Cd1B 1_555 1_555
Cd1F O4B 1_555 1_555

#END
