
#######################################################################
#
#                 Cambridge Crystallographic Data Centre
#                                CCDC 
#
#######################################################################
#
# If this CIF has been generated from an entry in the Cambridge 
# Structural Database, then it will include bibliographic, chemical, 
# crystal, experimental, refinement or atomic coordinate data resulting 
# from the CCDC's data processing and validation procedures.
#
#######################################################################

data_PATRIM
_symmetry_cell_setting           orthorhombic
_symmetry_space_group_name_H-M   'P b c a'
_symmetry_Int_Tables_number      61
_space_group_name_Hall           '-P 2ac 2ab'
loop_
_symmetry_equiv_pos_site_id
_symmetry_equiv_pos_as_xyz
1 x,y,z
2 1/2-x,-y,1/2+z
3 -x,1/2+y,1/2-z
4 1/2+x,1/2-y,-z
5 -x,-y,-z
6 1/2+x,y,1/2-z
7 x,1/2-y,1/2+z
8 1/2-x,1/2+y,z
_cell_length_a                   12.715(3)
_cell_length_b                   11.765(2)
_cell_length_c                   24.747(5)
_cell_angle_alpha                90
_cell_angle_beta                 90
_cell_angle_gamma                90
_cell_volume                     3701.95
loop_
_atom_site_label
_atom_site_type_symbol
_atom_site_fract_x
_atom_site_fract_y
_atom_site_fract_z
Cu1 Cu -0.5000 0.0000 0.5000
S1 S -0.62205(10) 0.12502(13) 0.41065(5)
S2 S -0.78166(12) 0.46174(13) 0.55334(6)
O1 O -0.5149(2) 0.0871(3) 0.43347(12)
O2 O -0.8546(2) 0.5274(3) 0.51705(12)
C1 C -0.4510(8) 0.0139(8) 0.2235(3)
H1 H -0.4608 -0.0349 0.1928
H2 H -0.3868 -0.0060 0.2416
H3 H -0.4474 0.0915 0.2117
C2 C -0.5380(7) 0.0005(7) 0.2602(3)
H4 H -0.5419 -0.0788 0.2706
H5 H -0.6023 0.0185 0.2409
C3 C -0.5344(5) 0.0703(6) 0.3098(2)
H6 H -0.5251 0.1492 0.2995
H7 H -0.4732 0.0479 0.3307
C4 C -0.6295(5) 0.0617(5) 0.3453(2)
H8 H -0.6458 -0.0182 0.3500
H9 H -0.6881 0.0960 0.3263
C5 C -0.5993(4) 0.2676(5) 0.3914(2)
H10 H -0.5384 0.2704 0.3679
H11 H -0.6594 0.2948 0.3710
C6 C -0.5816(5) 0.3443(5) 0.4379(3)
H12 H -0.5558 0.4167 0.4246
H13 H -0.5277 0.3118 0.4610
C7 C -0.6824(5) 0.3647(7) 0.4717(3)
H14 H -0.7383 0.3906 0.4481
H15 H -0.7045 0.2935 0.4879
C8 C -0.6650(4) 0.4509(6) 0.5153(3)
H16 H -0.1073 0.0725 0.4616
H17 H -0.1477 -0.0240 0.5005
C9 C -0.2272(8) -0.0885(14) 0.4042(3)
H18 H -0.2391 -0.1583 0.4241
H19 H -0.1518 -0.0791 0.4002
C10 C -0.2630(10) -0.0974(13) 0.3630(5)
H20 H -0.3381 -0.1099 0.3666
H21 H -0.2527 -0.0274 0.3429
C11 C -0.2100(10) -0.2044(8) 0.3292(4)
H22 H -0.2013 -0.2687 0.3534
H23 H -0.1408 -0.1822 0.3165
C12 C -0.2705(9) -0.2369(11) 0.2858(5)
H24 H -0.2374 -0.2995 0.2677
H25 H -0.3388 -0.2596 0.2983
H26 H -0.2774 -0.1742 0.2612
Cu1G Cu -1.0000 0.5000 0.5000
Cu1G_2 Cu 0.0000 0.5000 0.5000
S1C S -0.12205(10) 0.37498(13) 0.58935(5)
S2C S -0.28166(12) 0.03826(13) 0.44666(6)
O1C O -0.0149(2) 0.4129(3) 0.56653(12)
O1D O -0.4851(2) -0.0871(3) 0.56653(12)
O2G O -0.6454(2) 0.0274(3) 0.51705(12)
O2C O -0.3546(2) -0.0274(3) 0.48295(12)
C1C C 0.0490(8) 0.4861(8) 0.7765(3)
H1C H 0.0392 0.5349 0.8072
H2C H 0.1132 0.5060 0.7584
H3C H 0.0526 0.4085 0.7883
C2C C -0.0380(7) 0.4995(7) 0.7398(3)
H4C H -0.0419 0.5788 0.7294
H5C H -0.1023 0.4815 0.7591
C3C C -0.0344(5) 0.4297(6) 0.6902(2)
H6C H -0.0251 0.3508 0.7005
H7C H 0.0268 0.4521 0.6693
C4C C -0.1295(5) 0.4383(5) 0.6547(2)
H8C H -0.1458 0.5182 0.6500
H9C H -0.1881 0.4040 0.6737
C5C C -0.0993(4) 0.2324(5) 0.6086(2)
H10C H -0.0384 0.2296 0.6321
H11C H -0.1594 0.2052 0.6290
C6C C -0.0816(5) 0.1557(5) 0.5621(3)
H12C H -0.0558 0.0833 0.5754
H13C H -0.0277 0.1882 0.5390
C7C C -0.1824(5) 0.1353(7) 0.5283(3)
H14C H -0.2383 0.1094 0.5519
H15C H -0.2045 0.2065 0.5121
C8C C -0.1650(4) 0.0491(6) 0.4847(3)
H16C H -0.6073 0.4275 0.5384
H17C H -0.6477 0.5240 0.4995
C9C C -0.7272(8) 0.5885(14) 0.5958(3)
H18C H -0.7391 0.6583 0.5759
H19C H -0.6518 0.5791 0.5998
C10C C -0.7630(10) 0.5974(13) 0.6370(5)
H20C H -0.8381 0.6099 0.6334
H21C H -0.7527 0.5274 0.6571
C11C C -0.7100(10) 0.7044(8) 0.6708(4)
H22C H -0.7013 0.7687 0.6466
H23C H -0.6408 0.6822 0.6835
C12C C -0.7705(9) 0.7369(11) 0.7142(5)
H24C H -0.7374 0.7995 0.7323
H25C H -0.8388 0.7596 0.7017
H26C H -0.7774 0.6742 0.7388
Cl1 Cl -0.43679(12) 0.26449(13) 0.59597(7)
O3 O -0.5272(4) 0.3125(8) 0.6136(3)
O4 O -0.3601(5) 0.2408(6) 0.6326(2)
O5 O -0.3982(6) 0.3526(7) 0.5711(4)
O6 O -0.4438(5) 0.1838(6) 0.5573(3)
loop_
_geom_bond_atom_site_label_1
_geom_bond_atom_site_label_2
_geom_bond_site_symmetry_1
_geom_bond_site_symmetry_2
Cu1 O1 1_555 1_555
S1 O1 1_555 1_555
S2 O2 1_555 1_555
Cl1 O3 1_555 1_555
O2 Cu1G 1_555 1_555
O4 Cl1 1_555 1_555
O5 Cl1 1_555 1_555
O6 Cl1 1_555 1_555
C1 H1 1_555 1_555
H2 C1 1_555 1_555
H3 C1 1_555 1_555
C2 C1 1_555 1_555
H4 C2 1_555 1_555
H5 C2 1_555 1_555
C3 C2 1_555 1_555
H6 C3 1_555 1_555
H7 C3 1_555 1_555
C4 S1 1_555 1_555
H8 C4 1_555 1_555
H9 C4 1_555 1_555
C5 S1 1_555 1_555
H10 C5 1_555 1_555
H11 C5 1_555 1_555
C6 C5 1_555 1_555
H12 C6 1_555 1_555
H13 C6 1_555 1_555
C7 C6 1_555 1_555
H14 C7 1_555 1_555
H15 C7 1_555 1_555
C8 S2 1_555 1_555
H16 C8C 1_555 1_555
H17 C8C 1_555 1_555
C9 H18 1_555 1_555
H19 C9 1_555 1_555
C10 C9 1_555 1_555
H20 C10 1_555 1_555
H21 C10 1_555 1_555
C11 C10 1_555 1_555
H22 C11 1_555 1_555
H23 C11 1_555 1_555
C12 C11 1_555 1_555
H24 C12 1_555 1_555
H25 C12 1_555 1_555
H26 C12 1_555 1_555
Cu1G_2 O1C 1_555 1_555
S1C O1C 1_555 1_555
S2C C9 1_555 1_555
O1D Cu1 1_555 1_555
O2G Cu1 1_555 1_555
O2C Cu1 1_555 1_555
C1C H1C 1_555 1_555
H2C C1C 1_555 1_555
H3C C1C 1_555 1_555
C2C C1C 1_555 1_555
H4C C2C 1_555 1_555
H5C C2C 1_555 1_555
C3C C2C 1_555 1_555
H6C C3C 1_555 1_555
H7C C3C 1_555 1_555
C4C S1C 1_555 1_555
H8C C4C 1_555 1_555
H9C C4C 1_555 1_555
C5C S1C 1_555 1_555
H10C C5C 1_555 1_555
H11C C5C 1_555 1_555
C6C C5C 1_555 1_555
H12C C6C 1_555 1_555
H13C C6C 1_555 1_555
C7C C6C 1_555 1_555
H14C C7C 1_555 1_555
H15C C7C 1_555 1_555
C8C S2C 1_555 1_555
H16C C8 1_555 1_555
H17C C8 1_555 1_555
C9C S2 1_555 1_555
H18C C9C 1_555 1_555
H19C C9C 1_555 1_555
C10C C9C 1_555 1_555
H20C C10C 1_555 1_555
H21C C10C 1_555 1_555
C11C C10C 1_555 1_555
H22C C11C 1_555 1_555
H23C C11C 1_555 1_555
C12C C11C 1_555 1_555
H24C C12C 1_555 1_555
H25C C12C 1_555 1_555
H26C C12C 1_555 1_555
C3 C4 1_555 1_555
C7 C8 1_555 1_555
S2C O2C 1_555 1_555
C3C C4C 1_555 1_555
C7C C8C 1_555 1_555

#END
