
#######################################################################
#
#                 Cambridge Crystallographic Data Centre
#                                CCDC 
#
#######################################################################
#
# If this CIF has been generated from an entry in the Cambridge 
# Structural Database, then it will include bibliographic, chemical, 
# crystal, experimental, refinement or atomic coordinate data resulting 
# from the CCDC's data processing and validation procedures.
#
#######################################################################

data_PATRUZ
_symmetry_cell_setting           triclinic
_symmetry_space_group_name_H-M   'P -1'
_symmetry_Int_Tables_number      2
_space_group_name_Hall           '-P 1'
loop_
_symmetry_equiv_pos_site_id
_symmetry_equiv_pos_as_xyz
1 x,y,z
2 -x,-y,-z
_cell_length_a                   10.1491(7)
_cell_length_b                   11.2091(7)
_cell_length_c                   12.6834(7)
_cell_angle_alpha                103.803(5)
_cell_angle_beta                 105.730(6)
_cell_angle_gamma                95.165(6)
_cell_volume                     1330.15
loop_
_atom_site_label
_atom_site_type_symbol
_atom_site_fract_x
_atom_site_fract_y
_atom_site_fract_z
Cd1 Cd 0.57766(2) -0.13346(3) 0.51121(2)
C1 C 0.3165(3) -0.1205(3) 0.2950(3)
C2 C 0.2193(3) -0.2026(3) 0.1831(2)
C3 C 0.2623(3) -0.3052(3) 0.1253(2)
H1 H 0.3505 -0.3227 0.1546
C4 C 0.1728(3) -0.3822(3) 0.0226(3)
H2 H 0.2020 -0.4498 -0.0180
C5 C 0.0418(3) -0.3578(3) -0.0181(2)
H3 H -0.0182 -0.4100 -0.0859
C6 C -0.0022(3) -0.2571(3) 0.0399(2)
C7 C 0.0872(3) -0.1775(3) 0.1408(2)
H4 H 0.0585 -0.1082 0.1793
C8 C -0.1824(3) -0.1331(3) 0.0399(3)
H5 H -0.1221 -0.0610 0.0398
H6 H -0.1793 -0.1279 0.1180
C9 C -0.3285(3) -0.1356(3) -0.0304(2)
C10 C -0.3604(3) -0.0444(3) -0.0838(2)
H7 H -0.2904 0.0193 -0.0766
C11 C -0.4946(3) -0.0449(3) -0.1482(2)
H8 H -0.5140 0.0195 -0.1815
C12 C -0.6001(3) -0.1407(3) -0.1634(2)
C13 C -0.5688(3) -0.2316(3) -0.1090(3)
H9 H -0.6385 -0.2957 -0.1168
C14 C -0.4340(3) -0.2289(3) -0.0425(2)
H10 H -0.4150 -0.2907 -0.0057
C15 C -0.7461(3) -0.1411(3) -0.2313(2)
C16 C -0.8529(3) -0.1731(3) -0.1886(2)
H11 H -0.8313 -0.1966 -0.1212
C17 C -0.9896(3) -0.1708(3) -0.2429(3)
H12 H -1.0591 -0.1929 -0.2127
C18 C -1.0221(3) -0.1357(3) -0.3419(3)
H13 H -1.1140 -0.1336 -0.3792
C19 C -0.9191(3) -0.1036(3) -0.3866(3)
H14 H -0.9418 -0.0787 -0.4532
C20 C -0.7810(3) -0.1081(3) -0.3328(2)
C21 C -0.6781(3) -0.0807(3) -0.3963(2)
C22 C 0.7270(4) -0.2587(3) 0.3094(3)
H15 H 0.7017 -0.1908 0.2832
C23 C 0.7979(4) -0.3384(4) 0.2519(3)
H16 H 0.8198 -0.3234 0.1891
C24 C 0.8348(4) -0.4386(4) 0.2887(3)
H17 H 0.8826 -0.4923 0.2513
C25 C 0.8012(3) -0.4609(3) 0.3819(3)
C26 C 0.8347(3) -0.5644(3) 0.4244(3)
H18 H 0.8838 -0.6197 0.3902
C27 C 0.7963(3) -0.5836(3) 0.5135(3)
H19 H 0.8165 -0.6534 0.5383
C28 C 0.7253(3) -0.4986(3) 0.5701(3)
C29 C 0.6840(3) -0.5151(3) 0.6621(3)
H20 H 0.7007 -0.5849 0.6880
C30 C 0.6192(4) -0.4294(3) 0.7141(3)
H21 H 0.5920 -0.4394 0.7762
C31 C 0.5937(3) -0.3256(3) 0.6733(3)
H22 H 0.5502 -0.2670 0.7103
C32 C 0.6933(3) -0.3936(3) 0.5325(3)
C33 C 0.7293(3) -0.3756(3) 0.4344(3)
N1 N 0.6286(2) -0.3069(2) 0.5844(2)
N2 N 0.6938(3) -0.2748(2) 0.3998(2)
O1 O 0.4096(2) -0.1696(2) 0.34607(17)
O2 O 0.29616(19) -0.0103(2) 0.32532(16)
O3 O -0.13693(19) -0.2439(2) -0.00753(17)
O4 O -0.59250(19) -0.1510(2) -0.40561(17)
O5 O -0.6934(2) 0.0099(2) -0.4358(2)
Cd1A Cd 0.42234(2) 0.13346(3) 0.48879(2)
Cd1_2 Cd -0.42234(2) -0.13346(3) -0.48879(2)
Cd1A_2 Cd -0.57766(2) 0.13346(3) -0.51121(2)
O2A O 0.70384(19) 0.0103(2) 0.67468(16)
O4_2 O 0.40750(19) -0.1510(2) 0.59439(17)
O5A O 0.6934(2) -0.0099(2) 0.4358(2)
loop_
_geom_bond_atom_site_label_1
_geom_bond_atom_site_label_2
_geom_bond_site_symmetry_1
_geom_bond_site_symmetry_2
Cd1 N1 1_555 1_555
C1 C2 1_555 1_555
C2 C3 1_555 1_555
C3 H1 1_555 1_555
C4 C3 1_555 1_555
H2 C4 1_555 1_555
C5 C4 1_555 1_555
H3 C5 1_555 1_555
C6 C5 1_555 1_555
C7 C2 1_555 1_555
H4 C7 1_555 1_555
C8 H5 1_555 1_555
H6 C8 1_555 1_555
C9 C8 1_555 1_555
C10 C9 1_555 1_555
H7 C10 1_555 1_555
C11 C10 1_555 1_555
H8 C11 1_555 1_555
C12 C11 1_555 1_555
C13 C12 1_555 1_555
H9 C13 1_555 1_555
C14 C9 1_555 1_555
H10 C14 1_555 1_555
C15 C12 1_555 1_555
C16 C15 1_555 1_555
H11 C16 1_555 1_555
C17 C16 1_555 1_555
H12 C17 1_555 1_555
C18 C17 1_555 1_555
H13 C18 1_555 1_555
C19 C18 1_555 1_555
H14 C19 1_555 1_555
C20 C15 1_555 1_555
C21 C20 1_555 1_555
C22 H15 1_555 1_555
C23 C22 1_555 1_555
H16 C23 1_555 1_555
C24 C23 1_555 1_555
H17 C24 1_555 1_555
C25 C24 1_555 1_555
C26 C25 1_555 1_555
H18 C26 1_555 1_555
C27 C26 1_555 1_555
H19 C27 1_555 1_555
C28 C27 1_555 1_555
C29 C28 1_555 1_555
H20 C29 1_555 1_555
C30 C29 1_555 1_555
H21 C30 1_555 1_555
C31 C30 1_555 1_555
H22 C31 1_555 1_555
C32 C28 1_555 1_555
C33 C25 1_555 1_555
N1 C31 1_555 1_555
N2 Cd1 1_555 1_555
O1 Cd1 1_555 1_555
O2 C1 1_555 1_555
O3 C6 1_555 1_555
O4 C21 1_555 1_555
O5 C21 1_555 1_555
Cd1A O2 1_555 1_555
Cd1_2 O4 1_555 1_555
Cd1A_2 O5 1_555 1_555
O2A Cd1 1_555 1_555
O4_2 Cd1 1_555 1_555
O5A Cd1 1_555 1_555
C1 O1 1_555 1_555
C6 C7 1_555 1_555
C8 O3 1_555 1_555
C13 C14 1_555 1_555
C19 C20 1_555 1_555
C22 N2 1_555 1_555
C32 C33 1_555 1_555
C32 N1 1_555 1_555
C33 N2 1_555 1_555

#END
