
#######################################################################
#
#                 Cambridge Crystallographic Data Centre
#                                CCDC 
#
#######################################################################
#
# If this CIF has been generated from an entry in the Cambridge 
# Structural Database, then it will include bibliographic, chemical, 
# crystal, experimental, refinement or atomic coordinate data resulting 
# from the CCDC's data processing and validation procedures.
#
#######################################################################

data_PATSOU
_symmetry_cell_setting           triclinic
_symmetry_space_group_name_H-M   'P -1'
_symmetry_Int_Tables_number      2
_space_group_name_Hall           '-P 1'
loop_
_symmetry_equiv_pos_site_id
_symmetry_equiv_pos_as_xyz
1 x,y,z
2 -x,-y,-z
_cell_length_a                   9.255
_cell_length_b                   12.368
_cell_length_c                   13.274
_cell_angle_alpha                75.18
_cell_angle_beta                 85.89
_cell_angle_gamma                75.42
_cell_volume                     1421.53
loop_
_atom_site_label
_atom_site_type_symbol
_atom_site_fract_x
_atom_site_fract_y
_atom_site_fract_z
Co1 Co 0.93239(6) 0.23158(5) 0.23370(5)
C1 C 0.8240(5) 0.3985(4) 0.3255(4)
C2 C 0.7257(5) 0.4914(3) 0.3704(4)
C3 C 0.7762(5) 0.5242(4) 0.4512(4)
H1 H 0.8732 0.4912 0.4754
C4 C 0.6830(6) 0.6054(4) 0.4957(4)
H2 H 0.7162 0.6263 0.5507
C5 C 0.5409(5) 0.6554(4) 0.4584(4)
H3 H 0.4780 0.7098 0.4890
C6 C 0.4896(5) 0.6264(3) 0.3762(4)
C7 C 0.5814(5) 0.5431(3) 0.3325(4)
H4 H 0.5470 0.5217 0.2781
C8 C 0.2884(5) 0.6563(4) 0.2592(4)
H5 H 0.2850 0.5759 0.2777
H6 H 0.3509 0.6696 0.1977
C9 C 0.1327(5) 0.7329(4) 0.2380(4)
C10 C 0.1015(5) 0.8234(4) 0.1508(4)
H7 H 0.1777 0.8386 0.1039
C11 C -0.0410(5) 0.8915(4) 0.1323(3)
H8 H -0.0591 0.9517 0.0726
C12 C -0.1568(4) 0.8732(3) 0.1991(3)
C13 C -0.1250(5) 0.7817(4) 0.2870(4)
H9 H -0.2011 0.7665 0.3341
C14 C 0.0174(6) 0.7134(4) 0.3052(5)
H10 H 0.0359 0.6526 0.3644
C15 C -0.3134(5) 0.9419(3) 0.1779(3)
C16 C -0.4253(5) 0.8819(4) 0.1913(5)
H11 H -0.3996 0.8020 0.2147
C17 C -0.5713(6) 0.9371(5) 0.1710(6)
H12 H -0.6445 0.8955 0.1851
C18 C -0.6103(6) 1.0538(5) 0.1299(6)
H13 H -0.7090 1.0915 0.1126
C19 C -0.5027(5) 1.1141(4) 0.1148(4)
H14 H -0.5298 1.1933 0.0867
C20 C -0.3536(4) 1.0616(3) 0.1397(3)
C21 C -0.2519(5) 1.1400(3) 0.1322(4)
C22 C 1.1407(5) 0.1205(4) 0.4194(4)
H15 H 1.1433 0.1905 0.4322
C23 C 1.0907(5) -0.0068(4) 0.3529(4)
H16 H 1.0517 -0.0411 0.3100
C24 C 1.1815(5) -0.0631(4) 0.4338(4)
H17 H 1.2162 -0.1426 0.4572
C25 C 1.3080(6) -0.0038(6) 0.5658(4)
H18 H 1.2638 0.0515 0.6064
H19 H 1.3088 -0.0800 0.6093
C26 C 1.4579(6) 0.0030(9) 0.5413(4)
H20 H 1.4618 0.0758 0.5544
H21 H 1.5152 -0.0559 0.5967
C27 C 1.0680(5) 0.3101(4) 0.0188(4)
H22 H 1.0209 0.2690 -0.0123
C28 C 1.1582(5) 0.3777(4) -0.0310(4)
H23 H 1.1851 0.3913 -0.1012
C29 C 1.1391(5) 0.3794(4) 0.1317(4)
H24 H 1.1522 0.3960 0.1944
C30 C 1.2959(5) 0.5042(4) 0.0252(6)
H25 H 1.2570 0.5676 -0.0338
H26 H 1.2879 0.5354 0.0859
C31 C 1.4520(5) 0.4578(4) 0.0059(5)
H27 H 1.4609 0.4305 -0.0571
H28 H 1.4900 0.3919 0.0630
N1 N 1.0643(4) 0.1100(3) 0.3435(3)
N2 N 1.2132(4) 0.0181(4) 0.4752(3)
N3 N 1.0560(3) 0.3110(3) 0.1207(3)
N4 N 1.2016(4) 0.4217(3) 0.0423(4)
O1 O -0.1611(4) 1.1168(3) 0.2032(3)
O2 O -0.2689(4) 1.2275(3) 0.0596(3)
O3 O 0.3478(3) 0.6843(3) 0.3443(3)
O4 O 0.9604(4) 0.3735(3) 0.3387(3)
O5 O 0.7629(4) 0.3469(3) 0.2756(3)
Co1A Co 2.06761(6) -0.23158(5) 0.76630(5)
Co1_2 Co -0.06761(6) 1.23158(5) 0.23370(5)
Co1A_2 Co 2.06761(6) 0.76842(5) -0.23370(5)
Co1_3 Co 1.93239(6) -0.76842(5) 0.23370(5)
C1_2 C 1.8240(5) -0.6015(4) 0.3255(4)
C2_2 C 1.7257(5) -0.5086(3) 0.3704(4)
C3_2 C 1.7762(5) -0.4758(4) 0.4512(4)
H1_2 H 1.8732 -0.5088 0.4754
C4_2 C 1.6830(6) -0.3946(4) 0.4957(4)
H2_2 H 1.7162 -0.3737 0.5507
C5_2 C 1.5409(5) -0.3446(4) 0.4584(4)
H3_2 H 1.4780 -0.2902 0.4890
C6_2 C 1.4896(5) -0.3736(3) 0.3762(4)
C7_2 C 1.5814(5) -0.4569(3) 0.3325(4)
H4_2 H 1.5470 -0.4783 0.2781
C8_2 C 1.2884(5) -0.3437(4) 0.2592(4)
H5_2 H 1.2850 -0.4241 0.2777
H6_2 H 1.3509 -0.3304 0.1977
C9_2 C 1.1327(5) -0.2671(4) 0.2380(4)
C10_2 C 1.1015(5) -0.1766(4) 0.1508(4)
H7_2 H 1.1777 -0.1614 0.1039
C11_2 C 0.9590(5) -0.1085(4) 0.1323(3)
H8_2 H 0.9409 -0.0483 0.0726
C12_2 C 0.8432(4) -0.1268(3) 0.1991(3)
C13_2 C 0.8750(5) -0.2183(4) 0.2870(4)
H9_2 H 0.7989 -0.2335 0.3341
C14_2 C 1.0174(6) -0.2866(4) 0.3052(5)
H10_2 H 1.0359 -0.3474 0.3644
C15_2 C 0.6866(5) -0.0581(3) 0.1779(3)
C16_2 C 0.5747(5) -0.1181(4) 0.1913(5)
H11_2 H 0.6004 -0.1980 0.2147
C17_2 C 0.4287(6) -0.0629(5) 0.1710(6)
H12_2 H 0.3555 -0.1045 0.1851
C18_2 C 0.3897(6) 0.0538(5) 0.1299(6)
H13_2 H 0.2910 0.0915 0.1126
C19_2 C 0.4973(5) 0.1141(4) 0.1148(4)
H14_2 H 0.4702 0.1933 0.0867
C20_2 C 0.6464(4) 0.0616(3) 0.1397(3)
C21_2 C 0.7481(5) 0.1400(3) 0.1322(4)
C22A C 1.8593(5) -0.1205(4) 0.5806(4)
H15A H 1.8567 -0.1905 0.5678
C23A C 1.9093(5) 0.0068(4) 0.6471(4)
H16A H 1.9483 0.0411 0.6900
C24A C 1.8185(5) 0.0631(4) 0.5662(4)
H17A H 1.7838 0.1426 0.5428
C25A C 1.6920(6) 0.0038(6) 0.4342(4)
H18A H 1.7362 -0.0515 0.3936
H19A H 1.6912 0.0800 0.3907
C26A C 1.5421(6) -0.0030(9) 0.4587(4)
H20A H 1.5382 -0.0758 0.4456
H21A H 1.4848 0.0559 0.4033
C27A C 1.9320(5) 0.6899(4) -0.0188(4)
H22A H 1.9791 0.7310 0.0123
C28A C 1.8418(5) 0.6223(4) 0.0310(4)
H23A H 1.8149 0.6087 0.1012
C29A C 1.8609(5) 0.6206(4) -0.1317(4)
H24A H 1.8478 0.6040 -0.1944
C30A C 1.7041(5) 0.4958(4) -0.0252(6)
H25A H 1.7430 0.4324 0.0338
H26A H 1.7121 0.4646 -0.0859
C31A C 1.5480(5) 0.5422(4) -0.0059(5)
H27A H 1.5391 0.5695 0.0571
H28A H 1.5100 0.6081 -0.0630
N1A N 1.9357(4) -0.1100(3) 0.6565(3)
N2A N 1.7868(4) -0.0181(4) 0.5248(3)
N3A N 1.9440(3) 0.6890(3) -0.1207(3)
N3A_2 N 1.9440(3) -0.3110(3) 0.8793(3)
N4A N 1.7984(4) 0.5783(3) -0.0423(4)
O1_2 O 0.8389(4) 0.1168(3) 0.2032(3)
O1A O 2.1611(4) -0.1168(3) 0.7968(3)
O2_2 O 0.7311(4) 0.2275(3) 0.0596(3)
O3_2 O 1.3478(3) -0.3157(3) 0.3443(3)
O4_2 O 1.9604(4) -0.6265(3) 0.3387(3)
O5_2 O 1.7629(4) -0.6531(3) 0.2756(3)
O5A O 2.2371(4) -0.3469(3) 0.7244(3)
O6 O 1.4681(6) -0.6967(6) 0.2861(5)
H29 H 1.566(2) -0.703(5) 0.296(5)
H30 H 1.466(5) -0.747(4) 0.248(4)
loop_
_geom_bond_atom_site_label_1
_geom_bond_atom_site_label_2
_geom_bond_site_symmetry_1
_geom_bond_site_symmetry_2
Co1 N1 1_555 1_555
C1 C2 1_555 1_555
C2 C3 1_555 1_555
C3 H1 1_555 1_555
C4 C3 1_555 1_555
H2 C4 1_555 1_555
C5 C4 1_555 1_555
H3 C5 1_555 1_555
C6 C5 1_555 1_555
C7 C2 1_555 1_555
H4 C7 1_555 1_555
C8 H5 1_555 1_555
H6 C8 1_555 1_555
C9 C8 1_555 1_555
C10 C9 1_555 1_555
H7 C10 1_555 1_555
C11 C10 1_555 1_555
H8 C11 1_555 1_555
C12 C11 1_555 1_555
C13 C12 1_555 1_555
H9 C13 1_555 1_555
C14 C9 1_555 1_555
H10 C14 1_555 1_555
C15 C12 1_555 1_555
C16 C15 1_555 1_555
H11 C16 1_555 1_555
C17 C16 1_555 1_555
H12 C17 1_555 1_555
C18 C17 1_555 1_555
H13 C18 1_555 1_555
C19 C18 1_555 1_555
H14 C19 1_555 1_555
C20 C15 1_555 1_555
C21 C20 1_555 1_555
C22 H15 1_555 1_555
C23 H16 1_555 1_555
C24 C23 1_555 1_555
H17 C24 1_555 1_555
C25 H18 1_555 1_555
H19 C25 1_555 1_555
C26 C25 1_555 1_555
H20 C26 1_555 1_555
H21 C26 1_555 1_555
C27 H22 1_555 1_555
C28 C27 1_555 1_555
H23 C28 1_555 1_555
C29 H24 1_555 1_555
C30 H25 1_555 1_555
H26 C30 1_555 1_555
C31 C30 1_555 1_555
H27 C31 1_555 1_555
H28 C31 1_555 1_555
N1 C22 1_555 1_555
N2 C22 1_555 1_555
N3 Co1 1_555 1_555
N4 C28 1_555 1_555
O1 C21 1_555 1_555
O2 C21 1_555 1_555
O3 C6 1_555 1_555
O4 C1 1_555 1_555
O5 Co1 1_555 1_555
O6 H29 1_555 1_555
H30 O6 1_555 1_555
Co1A N1A 1_555 1_555
Co1_2 O1 1_555 1_555
Co1A_2 N3A 1_555 1_555
Co1_3 O5_2 1_555 1_555
C1_2 C2_2 1_555 1_555
C2_2 C3_2 1_555 1_555
C3_2 H1_2 1_555 1_555
C4_2 C3_2 1_555 1_555
H2_2 C4_2 1_555 1_555
C5_2 C4_2 1_555 1_555
H3_2 C5_2 1_555 1_555
C6_2 C5_2 1_555 1_555
C7_2 C2_2 1_555 1_555
H4_2 C7_2 1_555 1_555
C8_2 H5_2 1_555 1_555
H6_2 C8_2 1_555 1_555
C9_2 C8_2 1_555 1_555
C10_2 C9_2 1_555 1_555
H7_2 C10_2 1_555 1_555
C11_2 C10_2 1_555 1_555
H8_2 C11_2 1_555 1_555
C12_2 C11_2 1_555 1_555
C13_2 C12_2 1_555 1_555
H9_2 C13_2 1_555 1_555
C14_2 C9_2 1_555 1_555
H10_2 C14_2 1_555 1_555
C15_2 C12_2 1_555 1_555
C16_2 C15_2 1_555 1_555
H11_2 C16_2 1_555 1_555
C17_2 C16_2 1_555 1_555
H12_2 C17_2 1_555 1_555
C18_2 C17_2 1_555 1_555
H13_2 C18_2 1_555 1_555
C19_2 C18_2 1_555 1_555
H14_2 C19_2 1_555 1_555
C20_2 C15_2 1_555 1_555
C21_2 C20_2 1_555 1_555
C22A H15A 1_555 1_555
C23A H16A 1_555 1_555
C24A C23A 1_555 1_555
H17A C24A 1_555 1_555
C25A H18A 1_555 1_555
H19A C25A 1_555 1_555
C26A C26 1_555 1_555
H20A C26A 1_555 1_555
H21A C26A 1_555 1_555
C27A H22A 1_555 1_555
C28A C27A 1_555 1_555
H23A C28A 1_555 1_555
C29A H24A 1_555 1_555
C30A H25A 1_555 1_555
H26A C30A 1_555 1_555
C31A C31 1_555 1_555
H27A C31A 1_555 1_555
H28A C31A 1_555 1_555
N1A C22A 1_555 1_555
N2A C22A 1_555 1_555
N3A C27A 1_555 1_555
N3A_2 Co1A 1_555 1_555
N4A C28A 1_555 1_555
O1_2 Co1 1_555 1_555
O1A Co1A 1_555 1_555
O2_2 C21_2 1_555 1_555
O3_2 C6_2 1_555 1_555
O4_2 C1_2 1_555 1_555
O5_2 C1_2 1_555 1_555
O5A Co1A 1_555 1_555
C1 O5 1_555 1_555
C6 C7 1_555 1_555
C8 O3 1_555 1_555
C13 C14 1_555 1_555
C19 C20 1_555 1_555
C23 N1 1_555 1_555
C24 N2 1_555 1_555
C25 N2 1_555 1_555
C27 N3 1_555 1_555
C29 N3 1_555 1_555
C29 N4 1_555 1_555
C30 N4 1_555 1_555
C6_2 C7_2 1_555 1_555
C8_2 O3_2 1_555 1_555
C13_2 C14_2 1_555 1_555
C19_2 C20_2 1_555 1_555
C21_2 O1_2 1_555 1_555
C23A N1A 1_555 1_555
C24A N2A 1_555 1_555
C25A C26A 1_555 1_555
C25A N2A 1_555 1_555
C29A N3A 1_555 1_555
C29A N4A 1_555 1_555
C30A C31A 1_555 1_555
C30A N4A 1_555 1_555

#END
