
#######################################################################
#
#                 Cambridge Crystallographic Data Centre
#                                CCDC 
#
#######################################################################
#
# If this CIF has been generated from an entry in the Cambridge 
# Structural Database, then it will include bibliographic, chemical, 
# crystal, experimental, refinement or atomic coordinate data resulting 
# from the CCDC's data processing and validation procedures.
#
#######################################################################

data_PATSIO
_symmetry_cell_setting           triclinic
_symmetry_space_group_name_H-M   'P -1'
_symmetry_Int_Tables_number      2
_space_group_name_Hall           '-P 1'
loop_
_symmetry_equiv_pos_site_id
_symmetry_equiv_pos_as_xyz
1 x,y,z
2 -x,-y,-z
_cell_length_a                   9.282(5)
_cell_length_b                   13.083(5)
_cell_length_c                   13.145(5)
_cell_angle_alpha                78.899(5)
_cell_angle_beta                 76.087(5)
_cell_angle_gamma                74.571(5)
_cell_volume                     1479.44
loop_
_atom_site_label
_atom_site_type_symbol
_atom_site_fract_x
_atom_site_fract_y
_atom_site_fract_z
Cd1 Cd 0.36181(3) 0.26076(2) -0.27128(2)
C1 C 0.2067(4) 0.4458(3) -0.1877(3)
C2 C 0.1066(4) 0.5430(3) -0.1422(3)
C3 C -0.0280(4) 0.5928(3) -0.1792(3)
H1 H -0.0496 0.5686 -0.2347
C4 C -0.1286(4) 0.6777(3) -0.1335(3)
C5 C -0.0958(5) 0.7121(3) -0.0509(3)
H2 H -0.1647 0.7680 -0.0185
C6 C 0.0373(5) 0.6649(3) -0.0159(3)
H3 H 0.0592 0.6901 0.0388
C7 C 0.1401(5) 0.5794(3) -0.0618(3)
H4 H 0.2305 0.5474 -0.0380
C8 C -0.3004(5) 0.6965(4) -0.2500(4)
H5 H -0.3097 0.6228 -0.2306
H6 H -0.2205 0.7004 -0.3127
C9 C -0.4485(5) 0.7676(3) -0.2719(3)
C10 C -0.4519(4) 0.8531(3) -0.3515(3)
H7 H -0.3611 0.8658 -0.3943
C11 C -0.5892(4) 0.9201(3) -0.3685(3)
H8 H -0.5888 0.9787 -0.4213
C12 C -0.7266(4) 0.9025(3) -0.3091(3)
C13 C -0.7219(5) 0.8135(3) -0.2328(3)
H9 H -0.8128 0.7974 -0.1937
C14 C -0.5859(5) 0.7483(3) -0.2132(4)
H10 H -0.5863 0.6904 -0.1597
C15 C -0.8730(4) 0.9701(3) -0.3315(3)
C16 C -0.9845(5) 0.9220(3) -0.3426(4)
H11 H -0.9661 0.8477 -0.3327
C17 C -1.1197(6) 0.9808(5) -0.3675(5)
H12 H -1.1917 0.9461 -0.3740
C18 C -1.1504(6) 1.0904(5) -0.3831(5)
H13 H -1.2420 1.1305 -0.4010
C19 C -1.0431(5) 1.1400(4) -0.3718(4)
H14 H -1.0633 1.2144 -0.3820
C20 C -0.9058(4) 1.0823(3) -0.3457(3)
C21 C -0.8015(5) 1.1432(3) -0.3254(4)
C22 C 0.5811(4) 0.3182(3) -0.5035(3)
H15 H 0.5511 0.2735 -0.5374
C23 C 0.6824(4) 0.3790(3) -0.5494(3)
H16 H 0.7344 0.3839 -0.6194
C24 C 0.6005(4) 0.4016(3) -0.3852(3)
H17 H 0.5870 0.4263 -0.3210
C25 C 0.7871(4) 0.5097(3) -0.4839(3)
H18 H 0.7540 0.5470 -0.4223
H19 H 0.7709 0.5623 -0.5455
C26 C 0.9534(4) 0.4587(3) -0.4953(3)
H20 H 0.9876 0.4227 -0.5577
H21 H 0.9700 0.4054 -0.4343
C27 C 0.6025(5) 0.1636(3) -0.1120(4)
H22 H 0.6046 0.2309 -0.0999
C28 C 0.5450(5) 0.0399(3) -0.1657(4)
H23 H 0.4989 0.0037 -0.1983
C29 C 0.6514(6) -0.0062(4) -0.1088(5)
H24 H 0.6932 -0.0792 -0.0952
C30 C 0.7917(6) 0.0611(5) -0.0005(5)
H25 H 0.7914 0.1315 0.0131
H26 H 0.7520 0.0218 0.0663
C31 C 0.9472(5) 0.0063(4) -0.0378(4)
H27 H 0.9870 0.0455 -0.1045
H28 H 0.9476 -0.0641 -0.0512
N1 N 0.5295(3) 0.3326(2) -0.4001(2)
N2 N 0.6933(3) 0.4318(2) -0.4728(2)
N3 N 0.5134(4) 0.1479(2) -0.1691(3)
N4 N 0.6882(4) 0.0739(3) -0.0738(3)
O1 O 0.1562(3) 0.4030(2) -0.2453(2)
O2 O 0.3367(3) 0.4077(2) -0.1676(2)
O3 O -0.2633(3) 0.7320(2) -0.1648(2)
O4 O -0.7409(4) 1.2023(3) -0.3957(3)
O5 O -0.7863(4) 1.1361(3) -0.2334(3)
Cd1A Cd 1.63819(3) 0.73924(2) -0.72872(2)
Cd1_2 Cd -0.63819(3) 1.26076(2) -0.27128(2)
Cd1A_2 Cd 1.63819(3) -0.26076(2) 0.27128(2)
Cd1_3 Cd 1.36181(3) -0.73924(2) -0.27128(2)
C1_2 C 1.2067(4) -0.5542(3) -0.1877(3)
C2_2 C 1.1066(4) -0.4570(3) -0.1422(3)
C3_2 C 0.9720(4) -0.4072(3) -0.1792(3)
H1_2 H 0.9504 -0.4314 -0.2347
C4_2 C 0.8714(4) -0.3223(3) -0.1335(3)
C5_2 C 0.9042(5) -0.2879(3) -0.0509(3)
H2_2 H 0.8353 -0.2320 -0.0185
C6_2 C 1.0373(5) -0.3351(3) -0.0159(3)
H3_2 H 1.0592 -0.3099 0.0388
C7_2 C 1.1401(5) -0.4206(3) -0.0618(3)
H4_2 H 1.2305 -0.4526 -0.0380
C8_2 C 0.6996(5) -0.3035(4) -0.2500(4)
H5_2 H 0.6903 -0.3772 -0.2306
H6_2 H 0.7795 -0.2996 -0.3127
C9_2 C 0.5515(5) -0.2324(3) -0.2719(3)
C10_2 C 0.5481(4) -0.1469(3) -0.3515(3)
H7_2 H 0.6389 -0.1342 -0.3943
C11_2 C 0.4108(4) -0.0799(3) -0.3685(3)
H8_2 H 0.4112 -0.0213 -0.4213
C12_2 C 0.2734(4) -0.0975(3) -0.3091(3)
C13_2 C 0.2781(5) -0.1865(3) -0.2328(3)
H9_2 H 0.1872 -0.2026 -0.1937
C14_2 C 0.4141(5) -0.2517(3) -0.2132(4)
H10_2 H 0.4137 -0.3096 -0.1597
C15_2 C 0.1270(4) -0.0299(3) -0.3315(3)
C16_2 C 0.0155(5) -0.0780(3) -0.3426(4)
H11_2 H 0.0339 -0.1523 -0.3327
C17_2 C -0.1197(6) -0.0192(5) -0.3675(5)
H12_2 H -0.1917 -0.0539 -0.3740
C18_2 C -0.1504(6) 0.0904(5) -0.3831(5)
H13_2 H -0.2420 0.1305 -0.4010
C19_2 C -0.0431(5) 0.1400(4) -0.3718(4)
H14_2 H -0.0633 0.2144 -0.3820
C20_2 C 0.0942(4) 0.0823(3) -0.3457(3)
C21_2 C 0.1985(5) 0.1432(3) -0.3254(4)
C22A C 1.4189(4) 0.6818(3) -0.4965(3)
H15A H 1.4489 0.7265 -0.4626
C23A C 1.3176(4) 0.6210(3) -0.4506(3)
H16A H 1.2656 0.6161 -0.3806
C24A C 1.3995(4) 0.5984(3) -0.6148(3)
H17A H 1.4130 0.5737 -0.6790
C25A C 1.2129(4) 0.4903(3) -0.5161(3)
H18A H 1.2460 0.4530 -0.5777
H19A H 1.2291 0.4377 -0.4545
C26A C 1.0466(4) 0.5413(3) -0.5047(3)
H20A H 1.0124 0.5773 -0.4423
H21A H 1.0300 0.5946 -0.5657
C27A C 1.3975(5) -0.1636(3) 0.1120(4)
H22A H 1.3954 -0.2309 0.0999
C28A C 1.4550(5) -0.0399(3) 0.1657(4)
H23A H 1.5011 -0.0037 0.1983
C29A C 1.3486(6) 0.0062(4) 0.1088(5)
H24A H 1.3068 0.0792 0.0952
C30A C 1.2083(6) -0.0611(5) 0.0005(5)
H25A H 1.2086 -0.1315 -0.0131
H26A H 1.2480 -0.0218 -0.0663
C31A C 1.0528(5) -0.0063(4) 0.0378(4)
H27A H 1.0130 -0.0455 0.1045
H28A H 1.0524 0.0641 0.0512
N1A N 1.4705(3) 0.6674(2) -0.5999(2)
N2A N 1.3067(3) 0.5682(2) -0.5272(2)
N3A N 1.4866(4) -0.1479(2) 0.1691(3)
N3A_2 N 1.4866(4) 0.8521(2) -0.8309(3)
N4A N 1.3118(4) -0.0739(3) 0.0738(3)
O1_2 O 1.1562(3) -0.5970(2) -0.2453(2)
O1A O 1.8438(3) 0.5970(2) -0.7547(2)
O2_2 O 1.3367(3) -0.5923(2) -0.1676(2)
O2A O 1.6633(3) 0.5923(2) -0.8324(2)
O3_2 O 0.7367(3) -0.2680(2) -0.1648(2)
O4_2 O 0.2591(4) 0.2023(3) -0.3957(3)
O4A O 1.7409(4) 0.7977(3) -0.6043(3)
O5_2 O 0.2137(4) 0.1361(3) -0.2334(3)
O5A O 1.7863(4) 0.8639(3) -0.7666(3)
O6 O 0.5670(5) 0.4429(4) -0.0883(4)
H29 H 0.524(8) 0.422(6) -0.0204(17)
H30 H 0.499(6) 0.440(6) -0.127(4)
O7 O 0.1482(5) 0.6301(4) 0.2254(4)
loop_
_geom_bond_atom_site_label_1
_geom_bond_atom_site_label_2
_geom_bond_site_symmetry_1
_geom_bond_site_symmetry_2
Cd1 N1 1_555 1_555
C1 C2 1_555 1_555
C2 C3 1_555 1_555
C3 H1 1_555 1_555
C4 C3 1_555 1_555
C5 C4 1_555 1_555
H2 C5 1_555 1_555
C6 C5 1_555 1_555
H3 C6 1_555 1_555
C7 C2 1_555 1_555
H4 C7 1_555 1_555
C8 H5 1_555 1_555
H6 C8 1_555 1_555
C9 C8 1_555 1_555
C10 C9 1_555 1_555
H7 C10 1_555 1_555
C11 C10 1_555 1_555
H8 C11 1_555 1_555
C12 C11 1_555 1_555
C13 C12 1_555 1_555
H9 C13 1_555 1_555
C14 C9 1_555 1_555
H10 C14 1_555 1_555
C15 C12 1_555 1_555
C16 C15 1_555 1_555
H11 C16 1_555 1_555
C17 C16 1_555 1_555
H12 C17 1_555 1_555
C18 C17 1_555 1_555
H13 C18 1_555 1_555
C19 C18 1_555 1_555
H14 C19 1_555 1_555
C20 C15 1_555 1_555
C21 C20 1_555 1_555
C22 H15 1_555 1_555
C23 C22 1_555 1_555
H16 C23 1_555 1_555
C24 H17 1_555 1_555
C25 H18 1_555 1_555
H19 C25 1_555 1_555
C26 C25 1_555 1_555
H20 C26 1_555 1_555
H21 C26 1_555 1_555
C27 H22 1_555 1_555
C28 H23 1_555 1_555
C29 C28 1_555 1_555
H24 C29 1_555 1_555
C30 H25 1_555 1_555
H26 C30 1_555 1_555
C31 C30 1_555 1_555
H27 C31 1_555 1_555
H28 C31 1_555 1_555
N1 C22 1_555 1_555
N2 C23 1_555 1_555
N3 Cd1 1_555 1_555
N4 C27 1_555 1_555
O1 Cd1 1_555 1_555
O2 Cd1 1_555 1_555
O3 C4 1_555 1_555
O4 C21 1_555 1_555
O5 C21 1_555 1_555
O6 H29 1_555 1_555
H30 O6 1_555 1_555
Cd1A N1A 1_555 1_555
Cd1_2 O4 1_555 1_555
Cd1A_2 N3A 1_555 1_555
Cd1_3 O1_2 1_555 1_555
C1_2 C2_2 1_555 1_555
C2_2 C3_2 1_555 1_555
C3_2 H1_2 1_555 1_555
C4_2 C3_2 1_555 1_555
C5_2 C4_2 1_555 1_555
H2_2 C5_2 1_555 1_555
C6_2 C5_2 1_555 1_555
H3_2 C6_2 1_555 1_555
C7_2 C2_2 1_555 1_555
H4_2 C7_2 1_555 1_555
C8_2 H5_2 1_555 1_555
H6_2 C8_2 1_555 1_555
C9_2 C8_2 1_555 1_555
C10_2 C9_2 1_555 1_555
H7_2 C10_2 1_555 1_555
C11_2 C10_2 1_555 1_555
H8_2 C11_2 1_555 1_555
C12_2 C11_2 1_555 1_555
C13_2 C12_2 1_555 1_555
H9_2 C13_2 1_555 1_555
C14_2 C9_2 1_555 1_555
H10_2 C14_2 1_555 1_555
C15_2 C12_2 1_555 1_555
C16_2 C15_2 1_555 1_555
H11_2 C16_2 1_555 1_555
C17_2 C16_2 1_555 1_555
H12_2 C17_2 1_555 1_555
C18_2 C17_2 1_555 1_555
H13_2 C18_2 1_555 1_555
C19_2 C18_2 1_555 1_555
H14_2 C19_2 1_555 1_555
C20_2 C15_2 1_555 1_555
C21_2 C20_2 1_555 1_555
C22A H15A 1_555 1_555
C23A C22A 1_555 1_555
H16A C23A 1_555 1_555
C24A H17A 1_555 1_555
C25A H18A 1_555 1_555
H19A C25A 1_555 1_555
C26A C26 1_555 1_555
H20A C26A 1_555 1_555
H21A C26A 1_555 1_555
C27A H22A 1_555 1_555
C28A H23A 1_555 1_555
C29A C28A 1_555 1_555
H24A C29A 1_555 1_555
C30A H25A 1_555 1_555
H26A C30A 1_555 1_555
C31A C31 1_555 1_555
H27A C31A 1_555 1_555
H28A C31A 1_555 1_555
N1A C22A 1_555 1_555
N2A C23A 1_555 1_555
N3A C27A 1_555 1_555
N3A_2 Cd1A 1_555 1_555
N4A C27A 1_555 1_555
O1_2 C1_2 1_555 1_555
O1A Cd1A 1_555 1_555
O2_2 Cd1_3 1_555 1_555
O2A Cd1A 1_555 1_555
O3_2 C4_2 1_555 1_555
O4_2 Cd1 1_555 1_555
O4A Cd1A 1_555 1_555
O5_2 Cd1 1_555 1_555
O5A Cd1A 1_555 1_555
C1 O1 1_555 1_555
C1 O2 1_555 1_555
C6 C7 1_555 1_555
C8 O3 1_555 1_555
C13 C14 1_555 1_555
C19 C20 1_555 1_555
C24 N1 1_555 1_555
C24 N2 1_555 1_555
C25 N2 1_555 1_555
C27 N3 1_555 1_555
C28 N3 1_555 1_555
C29 N4 1_555 1_555
C30 N4 1_555 1_555
O5 Cd1_2 1_555 1_555
C1_2 O2_2 1_555 1_555
C6_2 C7_2 1_555 1_555
C8_2 O3_2 1_555 1_555
C13_2 C14_2 1_555 1_555
C19_2 C20_2 1_555 1_555
C21_2 O4_2 1_555 1_555
C21_2 O5_2 1_555 1_555
C24A N1A 1_555 1_555
C24A N2A 1_555 1_555
C25A C26A 1_555 1_555
C25A N2A 1_555 1_555
C28A N3A 1_555 1_555
C29A N4A 1_555 1_555
C30A C31A 1_555 1_555
C30A N4A 1_555 1_555

#END
