
#######################################################################
#
#                 Cambridge Crystallographic Data Centre
#                                CCDC 
#
#######################################################################
#
# If this CIF has been generated from an entry in the Cambridge 
# Structural Database, then it will include bibliographic, chemical, 
# crystal, experimental, refinement or atomic coordinate data resulting 
# from the CCDC's data processing and validation procedures.
#
#######################################################################

data_PATTIP
_symmetry_cell_setting           triclinic
_symmetry_space_group_name_H-M   'P -1'
_symmetry_Int_Tables_number      2
_space_group_name_Hall           '-P 1'
loop_
_symmetry_equiv_pos_site_id
_symmetry_equiv_pos_as_xyz
1 x,y,z
2 -x,-y,-z
_cell_length_a                   9.4457(5)
_cell_length_b                   9.8630(4)
_cell_length_c                   14.2574(6)
_cell_angle_alpha                71.897(4)
_cell_angle_beta                 73.467(4)
_cell_angle_gamma                85.931(4)
_cell_volume                     1210.09
loop_
_atom_site_label
_atom_site_type_symbol
_atom_site_fract_x
_atom_site_fract_y
_atom_site_fract_z
Co1 Co 0.5000 0.0000 0.0000
C1 C 1.2412(4) 0.9116(3) -0.3269(3)
C2 C 1.1823(3) 0.8822(3) -0.4048(2)
C3 C 1.2571(4) 0.9257(3) -0.5085(2)
H1 H 1.3478 0.9734 -0.5310
C4 C 1.1973(4) 0.8984(4) -0.5772(2)
H2 H 1.2479 0.9281 -0.6466
C5 C 1.0625(4) 0.8273(3) -0.5458(2)
H3 H 1.0224 0.8102 -0.5937
C6 C 0.9885(4) 0.7822(3) -0.4422(2)
C7 C 1.0486(4) 0.8089(3) -0.3719(2)
H4 H 0.9992 0.7776 -0.3023
C8 C 0.7937(4) 0.6733(4) -0.4717(3)
H5 H 0.8642 0.6182 -0.5085
H6 H 0.7735 0.7595 -0.5214
C9 C 0.6538(4) 0.5879(3) -0.4138(2)
C10 C 0.5294(4) 0.6458(4) -0.3630(3)
H7 H 0.5339 0.7387 -0.3609
C11 C 0.3994(4) 0.5689(3) -0.3156(3)
H8 H 0.3176 0.6107 -0.2818
C12 C 0.3868(3) 0.4297(3) -0.3168(2)
C13 C 0.5118(4) 0.3722(3) -0.3682(2)
H9 H 0.5075 0.2796 -0.3709
C14 C 0.6431(4) 0.4501(3) -0.4155(3)
H10 H 0.7255 0.4086 -0.4489
C15 C 0.2418(3) 0.3532(3) -0.2715(2)
C16 C 0.1169(4) 0.4235(4) -0.2958(2)
H11 H 0.1270 0.5175 -0.3382
C17 C -0.0201(4) 0.3583(4) -0.2591(3)
H12 H -0.1004 0.4075 -0.2779
C18 C -0.0386(4) 0.2209(4) -0.1950(3)
H13 H -0.1309 0.1759 -0.1707
C19 C 0.0817(4) 0.1498(4) -0.1666(3)
H14 H 0.0689 0.0574 -0.1217
C20 C 0.2210(3) 0.2139(3) -0.2040(2)
C21 C 0.3450(3) 0.1285(3) -0.1680(2)
C22 C 0.3309(4) -0.2340(3) -0.0382(2)
H15 H 0.3079 -0.1693 -0.0948
C23 C 0.4102(4) -0.3285(3) 0.0891(3)
H16 H 0.4568 -0.3399 0.1403
C24 C 0.2042(4) -0.4493(4) -0.0387(3)
H17 H 0.2448 -0.5435 -0.0345
H18 H 0.2107 -0.4000 -0.1102
C25 C 0.0461(4) -0.4645(4) 0.0218(3)
H19 H 0.0073 -0.3709 0.0222
H20 H 0.0387 -0.5208 0.0923
N1 N 0.2936(3) -0.3706(3) -0.0029(2)
N2 N 0.3439(3) -0.4341(3) 0.0803(2)
N3 N 0.4057(3) -0.2016(3) 0.01804(18)
O1 O 1.3497(3) 1.0070(3) -0.36582(18)
O2 O 1.1929(3) 0.8529(3) -0.23528(19)
O3 O 0.3497(2) 0.0109(2) 0.13835(16)
O4 O 0.8540(3) 0.7095(2) -0.40158(16)
H21 H 0.422(3) -0.012(3) 0.170(3)
H22 H 0.319(4) 0.097(2) 0.143(3)
O6 O 0.3540(2) 0.1219(2) -0.08123(16)
O7 O 0.4295(2) 0.0644(2) -0.22512(16)
Co1_2 Co -0.5000 -1.0000 0.0000
C1A C -0.2412(4) -0.9116(3) 0.3269(3)
C2A C -0.1823(3) -0.8822(3) 0.4048(2)
C3A C -0.2571(4) -0.9257(3) 0.5085(2)
H1A H -0.3478 -0.9734 0.5310
C4A C -0.1973(4) -0.8984(4) 0.5772(2)
H2A H -0.2479 -0.9281 0.6466
C5A C -0.0625(4) -0.8273(3) 0.5458(2)
H3A H -0.0224 -0.8102 0.5937
C6A C 0.0115(4) -0.7822(3) 0.4422(2)
C7A C -0.0486(4) -0.8089(3) 0.3719(2)
H4A H 0.0008 -0.7776 0.3023
C8A C 0.2063(4) -0.6733(4) 0.4717(3)
H5A H 0.1358 -0.6182 0.5085
H6A H 0.2265 -0.7595 0.5214
C9A C 0.3462(4) -0.5879(3) 0.4138(2)
C10A C 0.4706(4) -0.6458(4) 0.3630(3)
H7A H 0.4661 -0.7387 0.3609
C11A C 0.6006(4) -0.5689(3) 0.3156(3)
H8A H 0.6824 -0.6107 0.2818
C12A C 0.6132(3) -0.4297(3) 0.3168(2)
C13A C 0.4882(4) -0.3722(3) 0.3682(2)
H9A H 0.4925 -0.2796 0.3709
C14A C 0.3569(4) -0.4501(3) 0.4155(3)
H10A H 0.2745 -0.4086 0.4489
C15A C 0.7582(3) -0.3532(3) 0.2715(2)
C16A C 0.8831(4) -0.4235(4) 0.2958(2)
H11A H 0.8730 -0.5175 0.3382
C17A C 1.0201(4) -0.3583(4) 0.2591(3)
H12A H 1.1004 -0.4075 0.2779
C18A C 1.0386(4) -0.2209(4) 0.1950(3)
H13A H 1.1309 -0.1759 0.1707
C19A C 0.9183(4) -0.1498(4) 0.1666(3)
H14A H 0.9311 -0.0574 0.1217
C20A C 0.7790(3) -0.2139(3) 0.2040(2)
C21A C 0.6550(3) -0.1285(3) 0.1680(2)
C22A C -0.3309(4) -0.7660(3) 0.0382(2)
H15A H -0.3079 -0.8307 0.0948
C23A C -0.4102(4) -0.6715(3) -0.0891(3)
H16A H -0.4568 -0.6601 -0.1403
C24A C -0.2042(4) -0.5507(4) 0.0387(3)
H17A H -0.2448 -0.4565 0.0345
H18A H -0.2107 -0.6000 0.1102
C25A C -0.0461(4) -0.5355(4) -0.0218(3)
H19A H -0.0073 -0.6291 -0.0222
H20A H -0.0387 -0.4792 -0.0923
N1A N -0.2936(3) -0.6294(3) 0.0029(2)
N2A N -0.3439(3) -0.5659(3) -0.0803(2)
N3A N -0.4057(3) -0.7984(3) -0.01804(18)
N3A_2 N 0.5943(3) 0.2016(3) -0.01804(18)
O1A O -0.3497(3) -1.0070(3) 0.36582(18)
O2A O -0.1929(3) -0.8529(3) 0.23528(19)
O3A O 0.6503(2) -0.0109(2) -0.13835(16)
O4A O 0.1460(3) -0.7095(2) 0.40158(16)
H21A H 0.578(3) 0.012(3) -0.170(3)
H22A H 0.681(4) -0.097(2) -0.143(3)
O6A O 0.6460(2) -0.1219(2) 0.08123(16)
O7A O 0.5705(2) -0.0644(2) 0.22512(16)
O5 O 0.2967(4) 0.2652(4) 0.1911(3)
H23 H 0.383(2) 0.265(3) 0.204(3)
H24 H 0.282(3) 0.351(2) 0.150(2)
loop_
_geom_bond_atom_site_label_1
_geom_bond_atom_site_label_2
_geom_bond_site_symmetry_1
_geom_bond_site_symmetry_2
Co1 N3 1_555 1_555
C1 C2 1_555 1_555
C2 C3 1_555 1_555
C3 H1 1_555 1_555
C4 C3 1_555 1_555
H2 C4 1_555 1_555
C5 C4 1_555 1_555
H3 C5 1_555 1_555
C6 C5 1_555 1_555
C7 C2 1_555 1_555
H4 C7 1_555 1_555
C8 H5 1_555 1_555
H6 C8 1_555 1_555
C9 C8 1_555 1_555
C10 C9 1_555 1_555
H7 C10 1_555 1_555
C11 C10 1_555 1_555
H8 C11 1_555 1_555
C12 C11 1_555 1_555
C13 C12 1_555 1_555
H9 C13 1_555 1_555
C14 C9 1_555 1_555
H10 C14 1_555 1_555
C15 C12 1_555 1_555
C16 C15 1_555 1_555
H11 C16 1_555 1_555
C17 C16 1_555 1_555
H12 C17 1_555 1_555
C18 C17 1_555 1_555
H13 C18 1_555 1_555
C19 C18 1_555 1_555
H14 C19 1_555 1_555
C20 C15 1_555 1_555
C21 C20 1_555 1_555
C22 H15 1_555 1_555
C23 H16 1_555 1_555
C24 H17 1_555 1_555
H18 C24 1_555 1_555
C25 C24 1_555 1_555
H19 C25 1_555 1_555
H20 C25 1_555 1_555
N1 C22 1_555 1_555
N2 C23 1_555 1_555
N3 C22 1_555 1_555
O1 C1 1_555 1_555
O2 C1 1_555 1_555
O3 Co1 1_555 1_555
O4 C6 1_555 1_555
H21 O3 1_555 1_555
H22 O3 1_555 1_555
O5 H23 1_555 1_555
O6 Co1 1_555 1_555
O7 C21 1_555 1_555
H24 O5 1_555 1_555
Co1_2 N3A 1_555 1_555
C1A C2A 1_555 1_555
C2A C3A 1_555 1_555
C3A H1A 1_555 1_555
C4A C3A 1_555 1_555
H2A C4A 1_555 1_555
C5A C4A 1_555 1_555
H3A C5A 1_555 1_555
C6A C5A 1_555 1_555
C7A C2A 1_555 1_555
H4A C7A 1_555 1_555
C8A H5A 1_555 1_555
H6A C8A 1_555 1_555
C9A C8A 1_555 1_555
C10A C9A 1_555 1_555
H7A C10A 1_555 1_555
C11A C10A 1_555 1_555
H8A C11A 1_555 1_555
C12A C11A 1_555 1_555
C13A C12A 1_555 1_555
H9A C13A 1_555 1_555
C14A C9A 1_555 1_555
H10A C14A 1_555 1_555
C15A C12A 1_555 1_555
C16A C15A 1_555 1_555
H11A C16A 1_555 1_555
C17A C16A 1_555 1_555
H12A C17A 1_555 1_555
C18A C17A 1_555 1_555
H13A C18A 1_555 1_555
C19A C18A 1_555 1_555
H14A C19A 1_555 1_555
C20A C15A 1_555 1_555
C21A C20A 1_555 1_555
C22A H15A 1_555 1_555
C23A H16A 1_555 1_555
C24A H17A 1_555 1_555
H18A C24A 1_555 1_555
C25A C25 1_555 1_555
H19A C25A 1_555 1_555
H20A C25A 1_555 1_555
N1A C22A 1_555 1_555
N2A C23A 1_555 1_555
N3A C22A 1_555 1_555
N3A_2 Co1 1_555 1_555
O1A C1A 1_555 1_555
O2A C1A 1_555 1_555
O3A Co1 1_555 1_555
O4A C6A 1_555 1_555
H21A O3A 1_555 1_555
H22A O3A 1_555 1_555
O6A Co1 1_555 1_555
O7A C21A 1_555 1_555
C6 C7 1_555 1_555
C8 O4 1_555 1_555
C13 C14 1_555 1_555
C19 C20 1_555 1_555
C21 O6 1_555 1_555
C23 N3 1_555 1_555
C24 N1 1_555 1_555
N1 N2 1_555 1_555
C6A C7A 1_555 1_555
C8A O4A 1_555 1_555
C13A C14A 1_555 1_555
C19A C20A 1_555 1_555
C21A O6A 1_555 1_555
C23A N3A 1_555 1_555
C24A C25A 1_555 1_555
C24A N1A 1_555 1_555
N1A N2A 1_555 1_555

#END
