
#######################################################################
#
#                 Cambridge Crystallographic Data Centre
#                                CCDC 
#
#######################################################################
#
# If this CIF has been generated from an entry in the Cambridge 
# Structural Database, then it will include bibliographic, chemical, 
# crystal, experimental, refinement or atomic coordinate data resulting 
# from the CCDC's data processing and validation procedures.
#
#######################################################################

data_PAVDAS
_symmetry_cell_setting           monoclinic
_symmetry_space_group_name_H-M   'C c'
_symmetry_Int_Tables_number      9
_space_group_name_Hall           'C -2yc'
loop_
_symmetry_equiv_pos_site_id
_symmetry_equiv_pos_as_xyz
1 x,y,z
2 x,-y,1/2+z
3 1/2+x,1/2+y,z
4 1/2+x,1/2-y,1/2+z
_cell_length_a                   21.663(4)
_cell_length_b                   29.499(6)
_cell_length_c                   13.710(3)
_cell_angle_alpha                90
_cell_angle_beta                 91.58(3)
_cell_angle_gamma                90
_cell_volume                     8757.86
loop_
_atom_site_label
_atom_site_type_symbol
_atom_site_fract_x
_atom_site_fract_y
_atom_site_fract_z
Cu1 Cu -0.05692(5) 0.49821(6) -0.49820(12)
Cu2 Cu -0.55721(5) 0.47317(6) -0.50901(10)
C1 C -0.1742(4) 0.4563(3) -0.4631(6)
H1 H -0.1508 0.4316 -0.4418
C2 C -0.2355(4) 0.4528(3) -0.4639(7)
H2 H -0.2538 0.4256 -0.4466
C3 C -0.2730(4) 0.4902(3) -0.4910(6)
C4 C -0.2426(4) 0.5297(3) -0.5169(6)
H3 H -0.2654 0.5552 -0.5353
C5 C -0.1797(3) 0.5314(3) -0.5158(6)
H4 H -0.1608 0.5586 -0.5316
C6 C -0.3406(3) 0.4874(3) -0.4952(6)
C7 C -0.3723(3) 0.4606(3) -0.4282(6)
H5 H -0.3513 0.4441 -0.3799
C8 C -0.4360(4) 0.4596(3) -0.4367(7)
H6 H -0.4568 0.4427 -0.3907
C9 C -0.4390(4) 0.5069(3) -0.5678(7)
H7 H -0.4616 0.5225 -0.6159
C10 C -0.3770(4) 0.5114(3) -0.5636(6)
H8 H -0.3580 0.5309 -0.6070
C11 C 0.3202(4) 0.4399(3) -0.4816(7)
H9 H 0.3400 0.4129 -0.4647
C12 C 0.2580(4) 0.4415(3) -0.4763(7)
H10 H 0.2363 0.4155 -0.4604
C13 C 0.2263(3) 0.4817(3) -0.4945(6)
C14 C 0.2630(4) 0.5186(3) -0.5222(7)
H11 H 0.2441 0.5461 -0.5373
C15 C 0.3248(4) 0.5152(4) -0.5276(6)
H12 H 0.3473 0.5409 -0.5438
C16 C 0.1586(3) 0.4856(3) -0.4915(6)
C17 C 0.1251(4) 0.4635(3) -0.4205(7)
H13 H 0.1445 0.4458 -0.3725
C18 C 0.0607(3) 0.4691(3) -0.4249(7)
H14 H 0.0378 0.4540 -0.3786
C19 C 0.0644(4) 0.5162(4) -0.5579(7)
H15 H 0.0438 0.5337 -0.6049
C20 C 0.1260(4) 0.5133(3) -0.5590(6)
H16 H 0.1475 0.5298 -0.6048
N1 N -0.1434(3) 0.4955(3) -0.4928(5)
N2 N -0.4698(3) 0.4801(3) -0.5036(6)
N3 N 0.0305(3) 0.4939(3) -0.4887(6)
N4 N 0.3558(3) 0.4753(3) -0.5101(5)
Cu2_2 Cu 0.44279(5) 0.47317(6) -0.50901(10)
N4_2 N -0.6442(3) 0.4753(3) -0.5101(5)
Cu3 Cu -0.20572(5) 0.27043(6) -0.13310(11)
Cu4 Cu -0.70559(5) 0.26164(5) -0.11150(10)
Cu5 Cu -0.06192(5) 0.06456(5) -0.23617(11)
Cu6 Cu -0.56004(5) 0.08657(6) -0.14933(12)
Cu7 Cu -0.70007(5) -0.18774(4) 0.09763(10)
Cu8 Cu -0.20134(4) -0.15832(4) 0.03657(10)
V1 V -0.18562(6) -0.18870(5) -0.39007(10)
V2 V -0.21897(5) -0.10569(5) -0.22103(9)
V3 V -0.07799(6) -0.05704(5) -0.24563(10)
V4 V -0.04154(5) -0.14291(5) -0.40079(10)
V5 V -0.72213(5) 0.10676(5) 0.26759(10)
V6 V -0.57881(6) 0.06015(5) 0.27204(11)
V7 V -0.54230(5) 0.14303(5) 0.10650(9)
V8 V -0.68242(6) 0.19252(5) 0.11989(11)
C21 C -0.3234(4) 0.2407(3) -0.0686(7)
H17 H -0.3005 0.2235 -0.0237
C22 C -0.3880(3) 0.2394(3) -0.0648(7)
H18 H -0.4074 0.2231 -0.0163
C23 C -0.4219(3) 0.2627(3) -0.1340(6)
C24 C -0.3898(4) 0.2875(3) -0.2025(6)
H19 H -0.4118 0.3035 -0.2503
C25 C -0.3276(4) 0.2888(3) -0.2014(7)
H20 H -0.3074 0.3059 -0.2477
C26 C -0.4906(3) 0.2631(3) -0.1324(6)
C27 C -0.5216(4) 0.2247(3) -0.1010(7)
H21 H -0.5007 0.1983 -0.0838
C28 C -0.5855(4) 0.2279(4) -0.0965(7)
H22 H -0.6071 0.2032 -0.0727
C29 C -0.5882(4) 0.2998(4) -0.1525(7)
H23 H -0.6108 0.3257 -0.1681
C30 C -0.5233(3) 0.3011(3) -0.1604(6)
H24 H -0.5035 0.3267 -0.1837
C31 C 0.1742(4) 0.2380(3) -0.0595(7)
H25 H 0.1954 0.2197 -0.0145
C32 C 0.1098(3) 0.2384(3) -0.0608(7)
H26 H 0.0884 0.2213 -0.0157
C33 C 0.0781(3) 0.2641(3) -0.1289(6)
C34 C 0.1122(4) 0.2896(3) -0.1929(7)
H27 H 0.0919 0.3075 -0.2394
C35 C 0.1745(4) 0.2888(3) -0.1888(7)
H28 H 0.1964 0.3061 -0.2328
C36 C 0.0093(3) 0.2644(3) -0.1295(6)
C37 C -0.0246(4) 0.2260(3) -0.1071(7)
H29 H -0.0053 0.1984 -0.0948
C38 C -0.0880(4) 0.2304(3) -0.1037(7)
H30 H -0.1112 0.2048 -0.0892
C39 C -0.0859(4) 0.3057(4) -0.1390(7)
H31 H -0.1067 0.3330 -0.1476
C40 C -0.0211(4) 0.3049(3) -0.1469(7)
H32 H 0.0005 0.3309 -0.1634
C41 C -0.1891(4) 0.0421(3) -0.2673(8)
H33 H -0.1725 0.0157 -0.2929
C42 C -0.2510(4) 0.0451(3) -0.2615(7)
H34 H -0.2760 0.0212 -0.2823
C43 C -0.2772(3) 0.0839(3) -0.2247(6)
C44 C -0.2385(4) 0.1189(3) -0.1902(7)
H35 H -0.2545 0.1446 -0.1608
C45 C -0.1755(4) 0.1134(4) -0.2020(7)
H36 H -0.1494 0.1373 -0.1843
C46 C -0.3457(3) 0.0880(3) -0.2073(6)
C47 C -0.3873(4) 0.0624(3) -0.2694(7)
H37 H -0.3731 0.0458 -0.3218
C48 C -0.4485(4) 0.0635(3) -0.2480(7)
H38 H -0.4757 0.0467 -0.2872
C49 C -0.4340(4) 0.1097(3) -0.1182(7)
H39 H -0.4499 0.1259 -0.0664
C50 C -0.3695(4) 0.1109(3) -0.1318(7)
H40 H -0.3438 0.1272 -0.0892
C51 C -0.6776(4) 0.0518(4) -0.2245(8)
H41 H -0.6545 0.0276 -0.2471
C52 C -0.7398(4) 0.0505(3) -0.2388(7)
H42 H -0.7578 0.0259 -0.2710
C53 C -0.7766(3) 0.0851(3) -0.2066(6)
C54 C -0.7461(4) 0.1205(3) -0.1597(7)
H43 H -0.7687 0.1450 -0.1374
C55 C -0.6835(4) 0.1201(3) -0.1456(8)
H44 H -0.6647 0.1439 -0.1117
C56 C -0.8451(3) 0.0845(3) -0.2151(6)
C57 C -0.8765(4) 0.0598(3) -0.2878(6)
H45 H -0.8540 0.0448 -0.3348
C58 C -0.9386(4) 0.0570(3) -0.2915(7)
H46 H -0.9573 0.0403 -0.3417
C59 C -0.9468(3) 0.1009(3) -0.1582(7)
H47 H -0.9716 0.1155 -0.1138
C60 C -0.8829(4) 0.1056(3) -0.1478(7)
H48 H -0.8657 0.1227 -0.0968
C61 C 0.1823(4) -0.1507(3) 0.0205(7)
H49 H 0.2050 -0.1373 -0.0283
C62 C 0.1194(3) -0.1456(3) 0.0182(6)
H50 H 0.1005 -0.1280 -0.0303
C63 C 0.0831(3) -0.1669(3) 0.0888(6)
C64 C 0.1140(4) -0.1888(3) 0.1625(7)
H51 H 0.0922 -0.2012 0.2136
C65 C 0.1787(4) -0.1928(4) 0.1618(7)
H52 H 0.1985 -0.2086 0.2123
C66 C -0.4825(4) -0.1662(3) 0.0983(6)
C67 C -0.5238(4) -0.1311(3) 0.0768(7)
H53 H -0.5085 -0.1028 0.0592
C68 C -0.5867(4) -0.1373(3) 0.0809(9)
H54 H -0.6128 -0.1135 0.0632
C69 C -0.5745(4) -0.2105(3) 0.1348(6)
H55 H -0.5915 -0.2375 0.1566
C70 C -0.5107(4) -0.2069(3) 0.1299(7)
H56 H -0.4860 -0.2316 0.1476
C71 C -0.3123(4) -0.1850(4) 0.1324(7)
H57 H -0.2860 -0.2014 0.1738
C72 C -0.3751(4) -0.1866(3) 0.1478(8)
H58 H -0.3895 -0.2038 0.1993
C73 C -0.4166(4) -0.1636(3) 0.0898(6)
C74 C -0.3908(4) -0.1377(3) 0.0148(6)
H59 H -0.4164 -0.1208 -0.0268
C75 C -0.3282(3) -0.1372(3) 0.0031(6)
H60 H -0.3126 -0.1197 -0.0469
C76 C 0.0156(4) -0.1625(3) 0.0818(6)
C77 C -0.0213(4) -0.1974(3) 0.1220(7)
H61 H -0.0030 -0.2221 0.1535
C78 C -0.0852(4) -0.1937(3) 0.1134(7)
H62 H -0.1091 -0.2163 0.1409
C79 C -0.0802(4) -0.1271(4) 0.0314(7)
H63 H -0.1001 -0.1030 -0.0001
C80 C -0.0155(4) -0.1267(3) 0.0376(7)
H64 H 0.0064 -0.1025 0.0121
N5 N -0.2938(3) 0.2650(3) -0.1324(6)
N6 N -0.6173(3) 0.2643(3) -0.1245(6)
N7 N -0.1176(3) 0.2694(3) -0.1201(6)
N8 N 0.2059(3) 0.2630(3) -0.1209(6)
N9 N -0.4719(3) 0.0871(3) -0.1747(6)
N10 N -0.1500(3) 0.0753(3) -0.2377(6)
N11 N -0.9739(3) 0.0765(3) -0.2283(6)
N12 N -0.6478(3) 0.0858(3) -0.1798(6)
N13 N 0.2131(3) -0.1748(3) 0.0918(6)
N14 N -0.6119(3) -0.1768(3) 0.1097(6)
N15 N -0.2879(3) -0.1610(3) 0.0607(6)
N16 N -0.1144(3) -0.1593(3) 0.0673(6)
O1 O -0.7013(3) 0.2027(3) 0.0062(5)
O2 O -0.7004(3) 0.2375(2) 0.1874(5)
O3 O -0.6001(3) 0.1845(2) 0.1304(5)
O4 O -0.7233(3) 0.1428(2) 0.1627(5)
O5 O -0.7892(2) 0.0816(3) 0.2711(5)
O6 O -0.7111(3) 0.1372(2) 0.3670(5)
O7 O -0.6604(3) 0.0663(2) 0.2555(5)
O8 O -0.5589(3) 0.0659(3) 0.3859(5)
O9 O -0.5576(3) 0.0105(2) 0.2370(8)
O10 O -0.5399(3) 0.1024(2) 0.2039(5)
O11 O -0.5585(3) 0.1184(3) 0.0008(5)
O12 O -0.4744(3) 0.1674(3) 0.1013(5)
O13 O -0.2045(3) -0.1258(3) -0.1117(5)
O14 O -0.2862(2) -0.0809(2) -0.2210(5)
O15 O -0.2236(3) -0.1499(3) -0.3071(5)
O16 O -0.1595(3) -0.0663(2) -0.2561(5)
O17 O -0.0579(3) -0.0562(3) -0.1304(5)
O18 O -0.0599(3) -0.0077(3) -0.2899(7)
O19 O -0.0379(3) -0.1016(2) -0.3010(5)
O20 O -0.0542(3) -0.1173(3) -0.5055(6)
O21 O 0.0248(3) -0.1696(2) -0.4036(5)
O22 O -0.1032(3) -0.1820(2) -0.3801(5)
O23 O -0.2076(3) -0.1775(3) -0.5024(5)
O24 O -0.2033(3) -0.2410(2) -0.3626(6)
Cu4_2 Cu 0.29441(5) 0.26164(5) -0.11150(10)
Cu5_2 Cu -1.06192(5) 0.06456(5) -0.23617(11)
Cu7C Cu -0.20007(5) -0.31226(4) -0.40237(10)
Cu7_2 Cu 0.29993(5) -0.18774(4) 0.09763(10)
N8_2 N -0.7941(3) 0.2630(3) -0.1209(6)
N11_2 N 0.0261(3) 0.0765(3) -0.2283(6)
N13_2 N -0.7869(3) -0.1748(3) 0.0918(6)
O24C O -0.7033(3) -0.2590(2) 0.1374(6)
O25 O 0.6501(6) 0.1488(5) -0.9160(9)
O26 O 0.0842(3) 0.4024(3) -0.2047(6)
O27 O 0.5835(3) 0.4004(3) -0.1945(6)
O28 O 0.1525(5) 0.1495(3) -0.9319(6)
loop_
_geom_bond_atom_site_label_1
_geom_bond_atom_site_label_2
_geom_bond_site_symmetry_1
_geom_bond_site_symmetry_2
Cu1 N1 1_555 1_555
Cu2 N2 1_555 1_555
Cu3 N5 1_555 1_555
Cu4 N6 1_555 1_555
Cu5 N10 1_555 1_555
Cu6 N9 1_555 1_555
Cu7 N14 1_555 1_555
Cu8 N15 1_555 1_555
V1 O15 1_555 1_555
V2 O13 1_555 1_555
V3 O16 1_555 1_555
V4 O19 1_555 1_555
V5 O4 1_555 1_555
V6 O7 1_555 1_555
V7 O3 1_555 1_555
V8 O1 1_555 1_555
C1 H1 1_555 1_555
C2 C1 1_555 1_555
H2 C2 1_555 1_555
C3 C2 1_555 1_555
C4 C3 1_555 1_555
H3 C4 1_555 1_555
C5 C4 1_555 1_555
H4 C5 1_555 1_555
C6 C3 1_555 1_555
C7 C6 1_555 1_555
H5 C7 1_555 1_555
C8 C7 1_555 1_555
H6 C8 1_555 1_555
C9 H7 1_555 1_555
C10 C6 1_555 1_555
H8 C10 1_555 1_555
C11 H9 1_555 1_555
C12 C11 1_555 1_555
H10 C12 1_555 1_555
C13 C12 1_555 1_555
C14 C13 1_555 1_555
H11 C14 1_555 1_555
C15 C14 1_555 1_555
H12 C15 1_555 1_555
C16 C13 1_555 1_555
C17 C16 1_555 1_555
H13 C17 1_555 1_555
C18 C17 1_555 1_555
H14 C18 1_555 1_555
C19 H15 1_555 1_555
C20 C16 1_555 1_555
H16 C20 1_555 1_555
C21 H17 1_555 1_555
C22 C21 1_555 1_555
H18 C22 1_555 1_555
C23 C22 1_555 1_555
C24 C23 1_555 1_555
H19 C24 1_555 1_555
C25 C24 1_555 1_555
H20 C25 1_555 1_555
C26 C23 1_555 1_555
C27 C26 1_555 1_555
H21 C27 1_555 1_555
C28 C27 1_555 1_555
H22 C28 1_555 1_555
C29 H23 1_555 1_555
C30 C26 1_555 1_555
H24 C30 1_555 1_555
C31 H25 1_555 1_555
C32 C31 1_555 1_555
H26 C32 1_555 1_555
C33 C32 1_555 1_555
C34 C33 1_555 1_555
H27 C34 1_555 1_555
C35 C34 1_555 1_555
H28 C35 1_555 1_555
C36 C33 1_555 1_555
C37 C36 1_555 1_555
H29 C37 1_555 1_555
C38 C37 1_555 1_555
H30 C38 1_555 1_555
C39 H31 1_555 1_555
C40 C36 1_555 1_555
H32 C40 1_555 1_555
C41 H33 1_555 1_555
C42 C41 1_555 1_555
H34 C42 1_555 1_555
C43 C42 1_555 1_555
C44 C43 1_555 1_555
H35 C44 1_555 1_555
C45 C44 1_555 1_555
H36 C45 1_555 1_555
C46 C43 1_555 1_555
C47 C46 1_555 1_555
H37 C47 1_555 1_555
C48 C47 1_555 1_555
H38 C48 1_555 1_555
C49 H39 1_555 1_555
C50 C46 1_555 1_555
H40 C50 1_555 1_555
C51 H41 1_555 1_555
C52 C51 1_555 1_555
H42 C52 1_555 1_555
C53 C52 1_555 1_555
C54 C53 1_555 1_555
H43 C54 1_555 1_555
C55 C54 1_555 1_555
H44 C55 1_555 1_555
C56 C53 1_555 1_555
C57 C56 1_555 1_555
H45 C57 1_555 1_555
C58 C57 1_555 1_555
H46 C58 1_555 1_555
C59 H47 1_555 1_555
C60 C56 1_555 1_555
H48 C60 1_555 1_555
C61 H49 1_555 1_555
C62 C61 1_555 1_555
H50 C62 1_555 1_555
C63 C62 1_555 1_555
C64 C63 1_555 1_555
H51 C64 1_555 1_555
C65 C64 1_555 1_555
H52 C65 1_555 1_555
C66 C67 1_555 1_555
C67 H53 1_555 1_555
C68 C67 1_555 1_555
H54 C68 1_555 1_555
C69 H55 1_555 1_555
C70 C66 1_555 1_555
H56 C70 1_555 1_555
C71 H57 1_555 1_555
C72 C71 1_555 1_555
H58 C72 1_555 1_555
C73 C66 1_555 1_555
C74 C73 1_555 1_555
H59 C74 1_555 1_555
C75 C74 1_555 1_555
H60 C75 1_555 1_555
C76 C63 1_555 1_555
C77 C76 1_555 1_555
H61 C77 1_555 1_555
C78 C77 1_555 1_555
H62 C78 1_555 1_555
C79 H63 1_555 1_555
C80 C76 1_555 1_555
H64 C80 1_555 1_555
N1 C1 1_555 1_555
N2 C8 1_555 1_555
N3 Cu1 1_555 1_555
N4 C11 1_555 1_555
N5 C21 1_555 1_555
N6 C28 1_555 1_555
N7 Cu3 1_555 1_555
N8 C31 1_555 1_555
N9 C48 1_555 1_555
N10 C41 1_555 1_555
N11 C58 1_555 1_555
N12 Cu6 1_555 1_555
N13 C61 1_555 1_555
N14 C68 1_555 1_555
N15 C71 1_555 1_555
N16 Cu8 1_555 1_555
O1 Cu4 1_555 1_555
O2 V8 1_555 1_555
O3 V8 1_555 1_555
O4 V8 1_555 1_555
O5 V5 1_555 1_555
O6 V5 1_555 1_555
O7 V5 1_555 1_555
O8 V6 1_555 1_555
O9 V6 1_555 1_555
O10 V6 1_555 1_555
O11 Cu6 1_555 1_555
O12 V7 1_555 1_555
O13 Cu8 1_555 1_555
O14 V2 1_555 1_555
O15 V2 1_555 1_555
O16 V2 1_555 1_555
O17 V3 1_555 1_555
O18 Cu5 1_555 1_555
O19 V3 1_555 1_555
O20 V4 1_555 1_555
O21 V4 1_555 1_555
O22 V1 1_555 1_555
O23 V1 1_555 1_555
O24 V1 1_555 1_555
Cu2_2 N4 1_555 1_555
Cu4_2 N8 1_555 1_555
Cu5_2 N11 1_555 1_555
Cu7C O24 1_555 1_555
Cu7_2 N13 1_555 1_555
N4_2 Cu2 1_555 1_555
N8_2 Cu4 1_555 1_555
N11_2 Cu5 1_555 1_555
N13_2 Cu7 1_555 1_555
O24C Cu7 1_555 1_555
V3 O18 1_555 1_555
V4 O22 1_555 1_555
V7 O10 1_555 1_555
V7 O11 1_555 1_555
C5 N1 1_555 1_555
C9 C10 1_555 1_555
C9 N2 1_555 1_555
C15 N4 1_555 1_555
C18 N3 1_555 1_555
C19 C20 1_555 1_555
C19 N3 1_555 1_555
C25 N5 1_555 1_555
C29 C30 1_555 1_555
C29 N6 1_555 1_555
C35 N8 1_555 1_555
C38 N7 1_555 1_555
C39 C40 1_555 1_555
C39 N7 1_555 1_555
C45 N10 1_555 1_555
C49 C50 1_555 1_555
C49 N9 1_555 1_555
C51 N12 1_555 1_555
C55 N12 1_555 1_555
C59 C60 1_555 1_555
C59 N11 1_555 1_555
C65 N13 1_555 1_555
C69 C70 1_555 1_555
C69 N14 1_555 1_555
C72 C73 1_555 1_555
C75 N15 1_555 1_555
C78 N16 1_555 1_555
C79 C80 1_555 1_555
C79 N16 1_555 1_555

#END
