
#######################################################################
#
#                 Cambridge Crystallographic Data Centre
#                                CCDC 
#
#######################################################################
#
# If this CIF has been generated from an entry in the Cambridge 
# Structural Database, then it will include bibliographic, chemical, 
# crystal, experimental, refinement or atomic coordinate data resulting 
# from the CCDC's data processing and validation procedures.
#
#######################################################################

data_PAVKED
_symmetry_cell_setting           monoclinic
_symmetry_space_group_name_H-M   'P 21/c'
_symmetry_Int_Tables_number      14
_space_group_name_Hall           '-P 2ybc'
loop_
_symmetry_equiv_pos_site_id
_symmetry_equiv_pos_as_xyz
1 x,y,z
2 -x,1/2+y,1/2-z
3 -x,-y,-z
4 x,1/2-y,1/2+z
_cell_length_a                   13.0047(7)
_cell_length_b                   15.8034(8)
_cell_length_c                   12.9509(5)
_cell_angle_alpha                90
_cell_angle_beta                 103.229(3)
_cell_angle_gamma                90
_cell_volume                     2591.02
loop_
_atom_site_label
_atom_site_type_symbol
_atom_site_fract_x
_atom_site_fract_y
_atom_site_fract_z
B1 B 0.2272(5) 0.0280(4) 1.1578(5)
F1 F 0.3027(3) 0.0901(3) 1.1903(3)
F2 F 0.1290(3) 0.0605(2) 1.1542(3)
F3 F 0.2323(3) 0.0022(2) 1.0556(3)
F4 F 0.2469(3) -0.0402(2) 1.2256(3)
O3 O -0.0805(8) 0.0559(7) 0.4555(8)
C20 C -0.0569(9) 0.0459(7) 0.5617(8)
H18 H -0.1220 0.0411 0.5886
H19 H -0.0148 0.0944 0.5970
C21 C -0.0086(9) 0.0374(8) 0.4181(8)
H20 H 0.0342 0.0831 0.3965
H21 H -0.0725 0.0289 0.3605
O3B O 0.0805(8) -0.0559(7) 0.5445(8)
C20B C 0.0569(9) -0.0459(7) 0.4383(8)
H18B H 0.1220 -0.0411 0.4114
H19B H 0.0148 -0.0944 0.4030
C21B C 0.0086(9) -0.0374(8) 0.5819(8)
H20B H -0.0342 -0.0831 0.6035
H21B H 0.0725 -0.0289 0.6395
C24 C 0.9114(4) 0.1484(3) 0.1119(4)
H26 H 0.9607 0.1097 0.0874
H27 H 0.8600 0.1134 0.1389
Cl1 Cl 0.84409(13) 0.20983(11) 0.00527(12)
Cl2 Cl 0.98249(11) 0.21240(11) 0.21519(11)
Ag1 Ag 0.29278(3) 0.49221(2) 1.11831(3)
N1 N 0.2472(3) 0.3754(2) 1.0243(3)
C1 C 0.2714(4) 0.3556(3) 0.9322(4)
H1 H 0.3059 0.3967 0.8986
C2 C 0.2481(4) 0.2775(3) 0.8838(4)
H2 H 0.2671 0.2657 0.8186
C3 C 0.1973(3) 0.2167(3) 0.9307(3)
C4 C 0.1714(4) 0.2368(3) 1.0258(3)
H3 H 0.1362 0.1968 1.0605
C5 C 0.1974(4) 0.3158(3) 1.0693(4)
H4 H 0.1793 0.3289 1.1345
N2 N 0.1664(3) 0.1368(2) 0.8824(3)
C6 C 0.0584(4) 0.1072(3) 0.8792(4)
H5 H 0.0194 0.1514 0.9070
H6 H 0.0615 0.0561 0.9227
H7 H 0.0225 0.0942 0.8058
C7 C 0.2302(4) 0.0841(3) 0.8435(3)
O1 O 0.1959(3) 0.0205(2) 0.7934(3)
C8 C 0.3473(4) 0.1022(3) 0.8641(3)
N3 N 0.3848(3) 0.0969(2) 0.7762(3)
C9 C 0.4890(4) 0.1037(3) 0.7858(3)
C10 C 0.5598(4) 0.1130(3) 0.8834(3)
H8 H 0.6336 0.1174 0.8878
C11 C 0.5204(4) 0.1158(3) 0.9734(4)
H9 H 0.5671 0.1208 1.0413
C12 C 0.4124(4) 0.1114(3) 0.9645(3)
H10 H 0.3836 0.1145 1.0255
C13 C 0.5241(4) 0.0921(3) 0.6835(3)
O2 O 0.4962(3) 0.0280(2) 0.6299(2)
N4 N 0.5853(3) 0.1512(2) 0.6528(3)
C14 C 0.6336(4) 0.1317(3) 0.5638(4)
H11 H 0.6082 0.0766 0.5337
H12 H 0.7106 0.1301 0.5889
H13 H 0.6141 0.1755 0.5092
C15 C 0.6120(4) 0.2288(3) 0.7082(3)
C16 C 0.5336(4) 0.2829(3) 0.7268(3)
H14 H 0.4610 0.2688 0.7031
C17 C 0.5640(4) 0.3574(3) 0.7805(3)
H15 H 0.5106 0.3938 0.7943
N5 N 0.6654(3) 0.3812(2) 0.8145(3)
C18 C 0.7394(4) 0.3283(3) 0.7937(3)
H16 H 0.8115 0.3443 0.8163
C19 C 0.7167(4) 0.2531(3) 0.7419(3)
H17 H 0.7717 0.2179 0.7292
Ag1C Ag 0.29278(3) 0.00779(2) 1.61831(3)
Ag1C_2 Ag 0.29278(3) 0.00779(2) 0.61831(3)
Ag1B Ag 0.70722(3) 0.50779(2) 0.88169(3)
Ag1A Ag 0.70722(3) -0.00779(2) 1.38169(3)
N1C N 0.2472(3) 0.1246(2) 1.5243(3)
C1C C 0.2714(4) 0.1444(3) 1.4322(4)
H1C H 0.3059 0.1033 1.3986
C2C C 0.2481(4) 0.2225(3) 1.3838(4)
H2C H 0.2671 0.2343 1.3186
C3C C 0.1973(3) 0.2833(3) 1.4307(3)
C4C C 0.1714(4) 0.2632(3) 1.5258(3)
H3C H 0.1362 0.3032 1.5605
C5C C 0.1974(4) 0.1842(3) 1.5693(4)
H4C H 0.1793 0.1711 1.6345
N2C N 0.1664(3) 0.3632(2) 1.3824(3)
C6C C 0.0584(4) 0.3928(3) 1.3792(4)
H5C H 0.0194 0.3486 1.4070
H6C H 0.0615 0.4439 1.4227
H7C H 0.0225 0.4058 1.3058
C7C C 0.2302(4) 0.4159(3) 1.3435(3)
O1C O 0.1959(3) 0.4795(2) 1.2934(3)
C8C C 0.3473(4) 0.3978(3) 1.3641(3)
N3C N 0.3848(3) 0.4031(2) 1.2762(3)
N3_2 N 0.3848(3) 0.0969(2) 1.7762(3)
C9C C 0.4890(4) 0.3963(3) 1.2858(3)
C10C C 0.5598(4) 0.3870(3) 1.3834(3)
H8C H 0.6336 0.3826 1.3878
C11C C 0.5204(4) 0.3842(3) 1.4734(4)
H9C H 0.5671 0.3792 1.5413
C12C C 0.4124(4) 0.3886(3) 1.4645(3)
H10C H 0.3836 0.3855 1.5255
C13C C 0.5241(4) 0.4079(3) 1.1835(3)
O2C O 0.4962(3) 0.4720(2) 1.1299(2)
N4C N 0.5853(3) 0.3488(2) 1.1528(3)
C14C C 0.6336(4) 0.3683(3) 1.0638(4)
H11C H 0.6082 0.4234 1.0337
H12C H 0.7106 0.3699 1.0889
H13C H 0.6141 0.3245 1.0092
C15C C 0.6120(4) 0.2712(3) 1.2082(3)
C16C C 0.5336(4) 0.2171(3) 1.2268(3)
H14C H 0.4610 0.2312 1.2031
C17C C 0.5640(4) 0.1426(3) 1.2805(3)
H15C H 0.5106 0.1062 1.2943
N5C N 0.6654(3) 0.1188(2) 1.3145(3)
N5B N 0.3346(3) 0.6188(2) 1.1855(3)
N5A N 0.3346(3) -0.1188(2) 1.6855(3)
C18C C 0.7394(4) 0.1717(3) 1.2937(3)
H16C H 0.8115 0.1557 1.3163
C19C C 0.7167(4) 0.2469(3) 1.2419(3)
H17C H 0.7717 0.2821 1.2292
C22? C 0.0413(11) -0.0626(8) 0.4755(11)
H22? H 0.1183 -0.0713 0.4856
H23? H 0.0024 -0.1127 0.4408
C23? C 0.0051(4) 0.0165(3) 0.4195(4)
H24? H 0.0651 0.0566 0.4296
H25? H -0.0183 0.0047 0.3427
loop_
_geom_bond_atom_site_label_1
_geom_bond_atom_site_label_2
_geom_bond_site_symmetry_1
_geom_bond_site_symmetry_2
Ag1 N1 1_555 1_555
N1 C1 1_555 1_555
C1 H1 1_555 1_555
C2 C1 1_555 1_555
H2 C2 1_555 1_555
C3 C2 1_555 1_555
C4 C3 1_555 1_555
H3 C4 1_555 1_555
C5 N1 1_555 1_555
H4 C5 1_555 1_555
N2 C3 1_555 1_555
C6 N2 1_555 1_555
H5 C6 1_555 1_555
H6 C6 1_555 1_555
H7 C6 1_555 1_555
C7 N2 1_555 1_555
O1 C7 1_555 1_555
C8 C7 1_555 1_555
N3 C8 1_555 1_555
C9 N3 1_555 1_555
C10 C9 1_555 1_555
H8 C10 1_555 1_555
C11 C10 1_555 1_555
H9 C11 1_555 1_555
C12 C8 1_555 1_555
H10 C12 1_555 1_555
C13 C9 1_555 1_555
O2 C13 1_555 1_555
N4 C13 1_555 1_555
C14 N4 1_555 1_555
H11 C14 1_555 1_555
H12 C14 1_555 1_555
H13 C14 1_555 1_555
C15 N4 1_555 1_555
C16 C15 1_555 1_555
H14 C16 1_555 1_555
C17 C16 1_555 1_555
H15 C17 1_555 1_555
N5 C17 1_555 1_555
C18 N5 1_555 1_555
H16 C18 1_555 1_555
C19 C15 1_555 1_555
H17 C19 1_555 1_555
B1 F1 1_555 1_555
F2 B1 1_555 1_555
F3 B1 1_555 1_555
F4 B1 1_555 1_555
O3 C20 1_555 1_555
C20 H18 1_555 1_555
H19 C20 1_555 1_555
C21 O3 1_555 1_555
H20 C21 1_555 1_555
H21 C21 1_555 1_555
C24 H26 1_555 1_555
H27 C24 1_555 1_555
Cl1 C24 1_555 1_555
Cl2 C24 1_555 1_555
Ag1C N1C 1_555 1_555
Ag1C_2 N3 1_555 1_555
Ag1B N5 1_555 1_555
Ag1A N5C 1_555 1_555
N1C C1C 1_555 1_555
C1C H1C 1_555 1_555
C2C C1C 1_555 1_555
H2C C2C 1_555 1_555
C3C C2C 1_555 1_555
C4C C3C 1_555 1_555
H3C C4C 1_555 1_555
C5C N1C 1_555 1_555
H4C C5C 1_555 1_555
N2C C3C 1_555 1_555
C6C N2C 1_555 1_555
H5C C6C 1_555 1_555
H6C C6C 1_555 1_555
H7C C6C 1_555 1_555
C7C N2C 1_555 1_555
O1C C7C 1_555 1_555
C8C C7C 1_555 1_555
N3C Ag1 1_555 1_555
N3_2 Ag1C 1_555 1_555
C9C N3C 1_555 1_555
C10C C9C 1_555 1_555
H8C C10C 1_555 1_555
C11C C10C 1_555 1_555
H9C C11C 1_555 1_555
C12C C8C 1_555 1_555
H10C C12C 1_555 1_555
C13C C9C 1_555 1_555
O2C C13C 1_555 1_555
N4C C13C 1_555 1_555
C14C N4C 1_555 1_555
H11C C14C 1_555 1_555
H12C C14C 1_555 1_555
H13C C14C 1_555 1_555
C15C N4C 1_555 1_555
C16C C15C 1_555 1_555
H14C C16C 1_555 1_555
C17C C16C 1_555 1_555
H15C C17C 1_555 1_555
N5C C17C 1_555 1_555
N5B Ag1 1_555 1_555
N5A Ag1C 1_555 1_555
C18C N5C 1_555 1_555
H16C C18C 1_555 1_555
C19C C15C 1_555 1_555
H17C C19C 1_555 1_555
O3B C20B 1_555 1_555
C20B C21 1_555 1_555
H18B C20B 1_555 1_555
H19B C20B 1_555 1_555
C21B C20 1_555 1_555
H20B C21B 1_555 1_555
H21B C21B 1_555 1_555
C4 C5 1_555 1_555
C11 C12 1_555 1_555
C18 C19 1_555 1_555
C4C C5C 1_555 1_555
C8C N3C 1_555 1_555
C11C C12C 1_555 1_555
C18C C19C 1_555 1_555
O3B C21B 1_555 1_555

#END
