
#######################################################################
#
#                 Cambridge Crystallographic Data Centre
#                                CCDC 
#
#######################################################################
#
# If this CIF has been generated from an entry in the Cambridge 
# Structural Database, then it will include bibliographic, chemical, 
# crystal, experimental, refinement or atomic coordinate data resulting 
# from the CCDC's data processing and validation procedures.
#
#######################################################################

data_PAVREK
_symmetry_cell_setting           orthorhombic
_symmetry_space_group_name_H-M   'P n n a'
_symmetry_Int_Tables_number      52
_space_group_name_Hall           '-P 2a 2bc'
loop_
_symmetry_equiv_pos_site_id
_symmetry_equiv_pos_as_xyz
1 x,y,z
2 1/2-x,-y,z
3 1/2-x,1/2+y,1/2-z
4 x,1/2-y,1/2-z
5 -x,-y,-z
6 1/2+x,y,-z
7 1/2+x,1/2-y,1/2+z
8 -x,1/2+y,1/2+z
_cell_length_a                   7.5852(11)
_cell_length_b                   12.1545(17)
_cell_length_c                   22.829(3)
_cell_angle_alpha                90
_cell_angle_beta                 90
_cell_angle_gamma                90
_cell_volume                     2104.7
loop_
_atom_site_label
_atom_site_type_symbol
_atom_site_fract_x
_atom_site_fract_y
_atom_site_fract_z
Zn1 Zn 0.2500 0.5000 0.248954(16)
Br1 Br 0.02124(5) 0.59037(3) 0.300248(14)
O1 O 0.6136(3) 0.88584(17) -0.02644(9)
N1 N 0.3796(3) 0.60995(17) 0.19662(9)
N2 N 0.5544(3) 0.93471(19) 0.06700(10)
H1 H 0.4943 0.9788 0.0887
C1 C 0.2935(4) 0.6755(2) 0.15959(13)
H2 H 0.1719 0.6680 0.1566
C2 C 0.3754(4) 0.7538(2) 0.12553(13)
H3 H 0.3098 0.7972 0.1000
C3 C 0.5544(4) 0.7672(2) 0.12954(11)
C4 C 0.6424(4) 0.7012(3) 0.16871(15)
H4 H 0.7636 0.7088 0.1733
C5 C 0.5527(4) 0.6244(3) 0.20106(15)
H5 H 0.6156 0.5807 0.2272
C6 C 0.6573(4) 0.8499(3) 0.09470(14)
H6 H 0.7424 0.8846 0.1205
H7 H 0.7229 0.8111 0.0646
C7 C 0.5484(3) 0.9477(2) 0.00928(11)
Zn1E Zn 0.7500 1.5000 -0.248954(16)
Br1A Br 0.47876(5) 0.40963(3) 0.300248(14)
O1D O 0.3864(3) 1.11416(17) 0.02644(9)
N1D N 0.6204(3) 1.39005(17) -0.19662(9)
N1A N 0.1204(3) 0.39005(17) 0.19662(9)
N2D N 0.4456(3) 1.06529(19) -0.06700(10)
H1D H 0.5057 1.0212 -0.0887
C1D C 0.7065(4) 1.3245(2) -0.15959(13)
H2D H 0.8281 1.3320 -0.1566
C2D C 0.6246(4) 1.2462(2) -0.12553(13)
H3D H 0.6902 1.2028 -0.1000
C3D C 0.4456(4) 1.2328(2) -0.12954(11)
C4D C 0.3576(4) 1.2988(3) -0.16871(15)
H4D H 0.2364 1.2912 -0.1733
C5D C 0.4473(4) 1.3756(3) -0.20106(15)
H5D H 0.3844 1.4193 -0.2272
C6D C 0.3427(4) 1.1501(3) -0.09470(14)
H6D H 0.2576 1.1154 -0.1205
H7D H 0.2771 1.1889 -0.0646
C7D C 0.4516(3) 1.0523(2) -0.00928(11)
C8 C 0.919(6) 0.578(5) 0.0445(14)
H8 H 0.9372 0.6260 0.0773
H9 H 0.8639 0.5114 0.0574
H10 H 0.8453 0.6138 0.0162
O2 O 1.105(7) 0.5497(15) 0.0153(15)
H11 H 1.1683 0.5194 0.0395
loop_
_geom_bond_atom_site_label_1
_geom_bond_atom_site_label_2
_geom_bond_site_symmetry_1
_geom_bond_site_symmetry_2
Zn1 Br1 1_555 1_555
O1 C7 1_555 1_555
N1 Zn1 1_555 1_555
N2 H1 1_555 1_555
C1 N1 1_555 1_555
H2 C1 1_555 1_555
C2 C1 1_555 1_555
H3 C2 1_555 1_555
C3 C2 1_555 1_555
C4 C3 1_555 1_555
H4 C4 1_555 1_555
C5 N1 1_555 1_555
H5 C5 1_555 1_555
C6 N2 1_555 1_555
H6 C6 1_555 1_555
H7 C6 1_555 1_555
C7 N2 1_555 1_555
C8 H8 1_555 1_555
H9 C8 1_555 1_555
H10 C8 1_555 1_555
O2 C8 1_555 1_555
H11 O2 1_555 1_555
Zn1E N1D 1_555 1_555
Br1A Zn1 1_555 1_555
O1D C7D 1_555 1_555
N1D C1D 1_555 1_555
N1A Zn1 1_555 1_555
N2D H1D 1_555 1_555
C1D H2D 1_555 1_555
C2D C1D 1_555 1_555
H3D C2D 1_555 1_555
C3D C2D 1_555 1_555
C4D C3D 1_555 1_555
H4D C4D 1_555 1_555
C5D N1D 1_555 1_555
H5D C5D 1_555 1_555
C6D N2D 1_555 1_555
H6D C6D 1_555 1_555
H7D C6D 1_555 1_555
C7D C7 1_555 1_555
C3 C6 1_555 1_555
C4 C5 1_555 1_555
N2D C7D 1_555 1_555
C3D C6D 1_555 1_555
C4D C5D 1_555 1_555

#END
