
#######################################################################
#
#                 Cambridge Crystallographic Data Centre
#                                CCDC 
#
#######################################################################
#
# If this CIF has been generated from an entry in the Cambridge 
# Structural Database, then it will include bibliographic, chemical, 
# crystal, experimental, refinement or atomic coordinate data resulting 
# from the CCDC's data processing and validation procedures.
#
#######################################################################

data_PAVRIO
_symmetry_cell_setting           orthorhombic
_symmetry_space_group_name_H-M   'P n n a'
_symmetry_Int_Tables_number      52
_space_group_name_Hall           '-P 2a 2bc'
loop_
_symmetry_equiv_pos_site_id
_symmetry_equiv_pos_as_xyz
1 x,y,z
2 1/2-x,-y,z
3 1/2-x,1/2+y,1/2-z
4 x,1/2-y,1/2-z
5 -x,-y,-z
6 1/2+x,y,-z
7 1/2+x,1/2-y,1/2+z
8 -x,1/2+y,1/2+z
_cell_length_a                   7.4152(2)
_cell_length_b                   11.8222(3)
_cell_length_c                   22.7057(7)
_cell_angle_alpha                90
_cell_angle_beta                 90
_cell_angle_gamma                90
_cell_volume                     1990.47
loop_
_atom_site_label
_atom_site_type_symbol
_atom_site_fract_x
_atom_site_fract_y
_atom_site_fract_z
Zn1 Zn 0.2500 0.0000 -0.25884(2)
Cl1 Cl 0.02555(14) 0.08538(9) -0.30692(4)
O1 O 0.6127(4) 0.3824(2) 0.02765(11)
N1 N 0.3811(4) 0.1099(2) -0.20436(12)
N2 N 0.5590(4) 0.4325(3) -0.06677(12)
H1 H 0.4994 0.4794 -0.0897
C1 C 0.5589(5) 0.1224(4) -0.20683(18)
H2 H 0.6254 0.0780 -0.2341
C2 C 0.6493(5) 0.1964(4) -0.1716(2)
H3 H 0.7767 0.2025 -0.1748
C3 C 0.5596(5) 0.2623(3) -0.13161(16)
C4 C 0.3764(5) 0.2508(3) -0.12922(16)
H4 H 0.3075 0.2949 -0.1024
C5 C 0.2927(5) 0.1747(3) -0.16607(18)
H5 H 0.1652 0.1681 -0.1641
C6 C 0.6639(5) 0.3431(4) -0.09331(19)
H6 H 0.7228 0.2993 -0.0615
H7 H 0.7605 0.3779 -0.1174
C7 C 0.5496(4) 0.4463(3) -0.00870(15)
Zn1E Zn 0.7500 1.0000 0.25884(2)
Cl1A Cl 0.47445(14) -0.08538(9) -0.30692(4)
O1D O 0.3873(4) 0.6176(2) -0.02765(11)
N1D N 0.6189(4) 0.8901(2) 0.20436(12)
N1A N 0.1189(4) -0.1099(2) -0.20436(12)
N2D N 0.4410(4) 0.5675(3) 0.06677(12)
H1D H 0.5006 0.5206 0.0897
C1D C 0.4411(5) 0.8776(4) 0.20683(18)
H2D H 0.3746 0.9220 0.2341
C2D C 0.3507(5) 0.8036(4) 0.1716(2)
H3D H 0.2233 0.7975 0.1748
C3D C 0.4404(5) 0.7377(3) 0.13161(16)
C4D C 0.6236(5) 0.7492(3) 0.12922(16)
H4D H 0.6925 0.7051 0.1024
C5D C 0.7073(5) 0.8253(3) 0.16607(18)
H5D H 0.8348 0.8319 0.1641
C6D C 0.3361(5) 0.6569(4) 0.09331(19)
H6D H 0.2772 0.7007 0.0615
H7D H 0.2395 0.6221 0.1174
C7D C 0.4504(4) 0.5537(3) 0.00870(15)
O2 O 0.948(4) 0.060(3) -0.0681(11)
H8 H 0.9025 0.0720 -0.1012
C8 C 0.824(5) 0.0948(17) -0.019(2)
H9 H 0.6857 0.0587 -0.0449
H10 H 0.8060 0.1363 -0.0041
H11 H 0.8134 0.0062 0.0037
O3? O 1.119(4) 0.036(3) -0.0046(14)
H12? H 1.2079 0.0399 -0.0192
C9? C 1.011(6) 0.124(3) -0.037(2)
H13? H 1.0866 0.1892 -0.0526
H14? H 0.9296 0.1759 -0.0048
H15? H 0.9198 0.1068 -0.0653
loop_
_geom_bond_atom_site_label_1
_geom_bond_atom_site_label_2
_geom_bond_site_symmetry_1
_geom_bond_site_symmetry_2
Zn1 Cl1 1_555 1_555
O1 C7 1_555 1_555
N1 Zn1 1_555 1_555
N2 H1 1_555 1_555
C1 N1 1_555 1_555
H2 C1 1_555 1_555
C2 C1 1_555 1_555
H3 C2 1_555 1_555
C3 C2 1_555 1_555
C4 C3 1_555 1_555
H4 C4 1_555 1_555
C5 N1 1_555 1_555
H5 C5 1_555 1_555
C6 N2 1_555 1_555
H6 C6 1_555 1_555
H7 C6 1_555 1_555
C7 N2 1_555 1_555
O2 H8 1_555 1_555
C8 O2 1_555 1_555
H9 C8 1_555 1_555
H10 C8 1_555 1_555
H11 C8 1_555 1_555
Zn1E N1D 1_555 1_555
Cl1A Zn1 1_555 1_555
O1D C7D 1_555 1_555
N1D C1D 1_555 1_555
N1A Zn1 1_555 1_555
N2D H1D 1_555 1_555
C1D H2D 1_555 1_555
C2D C1D 1_555 1_555
H3D C2D 1_555 1_555
C3D C2D 1_555 1_555
C4D C3D 1_555 1_555
H4D C4D 1_555 1_555
C5D N1D 1_555 1_555
H5D C5D 1_555 1_555
C6D N2D 1_555 1_555
H6D C6D 1_555 1_555
H7D C6D 1_555 1_555
C7D C7 1_555 1_555
C3 C6 1_555 1_555
C4 C5 1_555 1_555
N2D C7D 1_555 1_555
C3D C6D 1_555 1_555
C4D C5D 1_555 1_555

#END
