
#######################################################################
#
#                 Cambridge Crystallographic Data Centre
#                                CCDC 
#
#######################################################################
#
# If this CIF has been generated from an entry in the Cambridge 
# Structural Database, then it will include bibliographic, chemical, 
# crystal, experimental, refinement or atomic coordinate data resulting 
# from the CCDC's data processing and validation procedures.
#
#######################################################################

data_PAWMOQ
_symmetry_cell_setting           triclinic
_symmetry_space_group_name_H-M   'P -1'
_symmetry_Int_Tables_number      2
_space_group_name_Hall           '-P 1'
loop_
_symmetry_equiv_pos_site_id
_symmetry_equiv_pos_as_xyz
1 x,y,z
2 -x,-y,-z
_cell_length_a                   7.9210(3)
_cell_length_b                   10.2870(4)
_cell_length_c                   11.7979(6)
_cell_angle_alpha                82.241(2)
_cell_angle_beta                 83.221(2)
_cell_angle_gamma                70.992(2)
_cell_volume                     897.773
loop_
_atom_site_label
_atom_site_type_symbol
_atom_site_fract_x
_atom_site_fract_y
_atom_site_fract_z
K1 K 0.3084(1) -0.0640(1) -0.0467(1)
S1 S 0.5145(1) -0.1626(1) 0.1926(1)
S2 S 0.5514(1) 0.2952(1) 0.2163(1)
S3 S -0.0023(1) 0.2179(1) -0.0153(1)
N1 N 0.1746(3) 0.0154(3) 0.2360(2)
N2 N 0.1912(3) -0.2028(3) 0.2612(2)
N3 N 0.3144(3) 0.1615(3) 0.3217(2)
N4 N 0.4666(4) 0.2193(3) 0.4384(2)
N5 N 0.0648(3) 0.2768(3) 0.1937(2)
N6 N -0.1427(3) 0.4424(3) 0.1044(2)
C1 C 0.2897(4) -0.1154(3) 0.2315(3)
C2 C 0.0142(4) -0.1272(4) 0.2834(3)
C3 C 0.0032(4) 0.0073(4) 0.2689(3)
C4 C 0.2588(5) -0.3526(4) 0.2631(3)
C5 C 0.4424(4) 0.2226(3) 0.3249(3)
C6 C 0.3537(4) 0.1560(4) 0.5058(3)
C7 C 0.2594(4) 0.1213(4) 0.4337(3)
C8 C 0.5936(5) 0.2730(5) 0.4818(3)
C9 C -0.0258(4) 0.3128(3) 0.0962(3)
C10 C -0.1281(4) 0.4881(4) 0.2066(3)
C11 C -0.0004(4) 0.3863(3) 0.2617(3)
C12 C -0.2674(4) 0.5193(4) 0.0187(3)
B1 B 0.2316(5) 0.1473(4) 0.2129(3)
K1A K 0.6916(1) 0.0640(1) 0.0467(1)
K1A_2 K -0.3084(1) 0.0640(1) 0.0467(1)
S1A S 0.4855(1) 0.1626(1) -0.1926(1)
S2A S 0.4486(1) -0.2952(1) -0.2163(1)
S3A S 0.0023(1) -0.2179(1) 0.0153(1)
loop_
_geom_bond_atom_site_label_1
_geom_bond_atom_site_label_2
_geom_bond_site_symmetry_1
_geom_bond_site_symmetry_2
K1 S1 1_555 1_555
S1 C1 1_555 1_555
S2 C5 1_555 1_555
S3 K1 1_555 1_555
N1 C1 1_555 1_555
N2 C1 1_555 1_555
N3 C5 1_555 1_555
N4 C5 1_555 1_555
N5 C9 1_555 1_555
N6 C9 1_555 1_555
C2 N2 1_555 1_555
C3 N1 1_555 1_555
C4 N2 1_555 1_555
C6 N4 1_555 1_555
C7 N3 1_555 1_555
C8 N4 1_555 1_555
C9 S3 1_555 1_555
C10 N6 1_555 1_555
C11 N5 1_555 1_555
C12 N6 1_555 1_555
B1 N1 1_555 1_555
K1A S1 1_555 1_555
K1A_2 S3 1_555 1_555
S1A K1 1_555 1_555
S2A K1 1_555 1_555
S3A K1 1_555 1_555
S2 K1A 1_555 1_555
N3 B1 1_555 1_555
N5 B1 1_555 1_555
C2 C3 1_555 1_555
C6 C7 1_555 1_555
C10 C11 1_555 1_555
K1A S1A 1_555 1_555
K1A_2 S3A 1_555 1_555

#END
