
#######################################################################
#
#                 Cambridge Crystallographic Data Centre
#                                CCDC 
#
#######################################################################
#
# If this CIF has been generated from an entry in the Cambridge 
# Structural Database, then it will include bibliographic, chemical, 
# crystal, experimental, refinement or atomic coordinate data resulting 
# from the CCDC's data processing and validation procedures.
#
#######################################################################

data_PAWSAI
_symmetry_cell_setting           monoclinic
_symmetry_space_group_name_H-M   'P 21/c'
_symmetry_Int_Tables_number      14
_space_group_name_Hall           '-P 2ybc'
loop_
_symmetry_equiv_pos_site_id
_symmetry_equiv_pos_as_xyz
1 x,y,z
2 -x,1/2+y,1/2-z
3 -x,-y,-z
4 x,1/2-y,1/2+z
_cell_length_a                   9.5782(1)
_cell_length_b                   15.7608(2)
_cell_length_c                   22.0905(3)
_cell_angle_alpha                90
_cell_angle_beta                 98.8889(7)
_cell_angle_gamma                90
_cell_volume                     3294.73
loop_
_atom_site_label
_atom_site_type_symbol
_atom_site_fract_x
_atom_site_fract_y
_atom_site_fract_z
Sn1 Sn 0.632889(19) 0.177210(11) 0.256931(8)
O1 O 0.7352(2) 0.14853(12) 0.17906(8)
O2 O 0.6276(2) 0.26000(12) 0.13074(9)
O3 O 0.4447(2) -0.29765(12) 0.14734(8)
N1 N 0.7043(3) 0.03963(14) 0.07413(11)
N2 N 0.6854(3) -0.02560(14) 0.04195(10)
N3 N 0.3914(3) -0.36332(15) 0.03806(12)
H1 H 0.388(3) -0.3619(18) 0.0738(14)
C1 C 0.7088(3) 0.19923(17) 0.13330(12)
C2 C 0.7862(3) 0.18291(16) 0.08042(12)
C3 C 0.7825(3) 0.10532(18) 0.05013(13)
C4 C 0.8535(5) 0.0946(2) 0.00069(17)
H2 H 0.8507 0.0427 -0.0195
C5 C 0.9285(6) 0.1616(3) -0.0184(2)
H3 H 0.9771 0.1547 -0.0514
C6 C 0.9319(5) 0.2383(3) 0.0111(2)
H4 H 0.9826 0.2832 -0.0021
C7 C 0.8614(4) 0.2491(2) 0.05933(16)
H5 H 0.8636 0.3017 0.0786
C8 C 0.6187(3) -0.09183(17) 0.07005(12)
C9 C 0.5679(3) -0.15948(18) 0.03430(13)
H6 H 0.5755 -0.1594 -0.0072
C10 C 0.5043(3) -0.22915(17) 0.05933(12)
C11 C 0.4957(3) -0.23116(17) 0.12346(12)
C12 C 0.5497(4) -0.16027(18) 0.15878(13)
H7 H 0.5452 -0.1595 0.2005
C13 C 0.6080(3) -0.09305(18) 0.13301(12)
H8 H 0.6415 -0.0471 0.1574
C14 C 0.4511(3) -0.29582(18) 0.01969(13)
H9 H 0.4592 -0.2913 -0.0216
C15 C 0.3339(3) -0.43243(17) 0.00206(12)
C16 C 0.3568(4) -0.4449(2) -0.05700(15)
H10 H 0.4107 -0.4065 -0.0754
C17 C 0.2991(4) -0.5152(2) -0.08890(15)
H11 H 0.3143 -0.5230 -0.1291
C18 C 0.2210(4) -0.5734(2) -0.06361(14)
C19 C 0.1982(5) -0.5590(3) -0.00508(16)
H12 H 0.1440 -0.5974 0.0132
C20 C 0.2534(4) -0.4888(2) 0.02784(15)
H13 H 0.2353 -0.4802 0.0676
C21 C 0.1610(5) -0.6504(3) -0.09940(18)
H14 H 0.1846 -0.6482 -0.1401
H15 H 0.0601 -0.6511 -0.1016
H16 H 0.2001 -0.7010 -0.0792
C22 C 0.7650(3) 0.28546(17) 0.27714(12)
C23 C 0.8969(4) 0.2744(2) 0.30909(18)
H17 H 0.9243 0.2204 0.3230
C24 C 0.9919(4) 0.3408(3) 0.3217(2)
H18 H 1.0820 0.3303 0.3429
C25 C 0.9552(4) 0.4195(2) 0.30371(17)
H19 H 1.0177 0.4644 0.3132
C26 C 0.8243(5) 0.4328(2) 0.2712(3)
H20 H 0.7968 0.4874 0.2586
C27 C 0.7317(4) 0.3658(2) 0.2569(2)
H21 H 0.6446 0.3758 0.2329
C28 C 0.7032(3) 0.05756(17) 0.29621(11)
C29 C 0.8425(4) 0.0312(2) 0.30509(16)
H22 H 0.9117 0.0685 0.2961
C30 C 0.8819(5) -0.0491(2) 0.32697(19)
H23 H 0.9768 -0.0645 0.3335
C31 C 0.7819(5) -0.1054(2) 0.33888(16)
H24 H 0.8082 -0.1591 0.3538
C32 C 0.6434(5) -0.0826(2) 0.32881(16)
H25 H 0.5745 -0.1213 0.3360
C33 C 0.6046(4) -0.0015(2) 0.30766(14)
H26 H 0.5095 0.0132 0.3011
C34 C 0.4195(3) 0.16189(17) 0.21211(12)
C35 C 0.3990(4) 0.1222(2) 0.15533(15)
H27 H 0.4769 0.1055 0.1378
C36 C 0.2648(4) 0.1073(3) 0.12467(18)
H28 H 0.2527 0.0808 0.0866
C37 C 0.1486(4) 0.1313(3) 0.1502(2)
H29 H 0.0583 0.1216 0.1291
C38 C 0.1653(4) 0.1694(2) 0.2064(2)
H30 H 0.0870 0.1856 0.2239
C39 C 0.3017(4) 0.18366(19) 0.23730(16)
H31 H 0.3134 0.2085 0.2759
Sn1A Sn 0.367111(19) -0.322790(11) 0.243069(8)
O3A O 0.5553(2) 0.20235(12) 0.35266(8)
loop_
_geom_bond_atom_site_label_1
_geom_bond_atom_site_label_2
_geom_bond_site_symmetry_1
_geom_bond_site_symmetry_2
Sn1 O1 1_555 1_555
O1 C1 1_555 1_555
O2 C1 1_555 1_555
O3 C11 1_555 1_555
N1 N2 1_555 1_555
N2 C8 1_555 1_555
N3 H1 1_555 1_555
C1 C2 1_555 1_555
C2 C3 1_555 1_555
C3 N1 1_555 1_555
C4 C3 1_555 1_555
H2 C4 1_555 1_555
C5 C4 1_555 1_555
H3 C5 1_555 1_555
C6 C5 1_555 1_555
H4 C6 1_555 1_555
C7 C2 1_555 1_555
H5 C7 1_555 1_555
C8 C9 1_555 1_555
C9 H6 1_555 1_555
C10 C9 1_555 1_555
C11 C10 1_555 1_555
C12 C11 1_555 1_555
H7 C12 1_555 1_555
C13 C8 1_555 1_555
H8 C13 1_555 1_555
C14 N3 1_555 1_555
H9 C14 1_555 1_555
C15 N3 1_555 1_555
C16 C15 1_555 1_555
H10 C16 1_555 1_555
C17 C16 1_555 1_555
H11 C17 1_555 1_555
C18 C17 1_555 1_555
C19 C18 1_555 1_555
H12 C19 1_555 1_555
C20 C15 1_555 1_555
H13 C20 1_555 1_555
C21 C18 1_555 1_555
H14 C21 1_555 1_555
H15 C21 1_555 1_555
H16 C21 1_555 1_555
C22 Sn1 1_555 1_555
C23 C22 1_555 1_555
H17 C23 1_555 1_555
C24 C23 1_555 1_555
H18 C24 1_555 1_555
C25 C24 1_555 1_555
H19 C25 1_555 1_555
C26 C25 1_555 1_555
H20 C26 1_555 1_555
C27 C22 1_555 1_555
H21 C27 1_555 1_555
C28 Sn1 1_555 1_555
C29 C28 1_555 1_555
H22 C29 1_555 1_555
C30 C29 1_555 1_555
H23 C30 1_555 1_555
C31 C30 1_555 1_555
H24 C31 1_555 1_555
C32 C31 1_555 1_555
H25 C32 1_555 1_555
C33 C28 1_555 1_555
H26 C33 1_555 1_555
C34 Sn1 1_555 1_555
C35 C34 1_555 1_555
H27 C35 1_555 1_555
C36 C35 1_555 1_555
H28 C36 1_555 1_555
C37 C36 1_555 1_555
H29 C37 1_555 1_555
C38 C37 1_555 1_555
H30 C38 1_555 1_555
C39 C34 1_555 1_555
H31 C39 1_555 1_555
Sn1A O3 1_555 1_555
O3A Sn1 1_555 1_555
C6 C7 1_555 1_555
C10 C14 1_555 1_555
C12 C13 1_555 1_555
C19 C20 1_555 1_555
C26 C27 1_555 1_555
C32 C33 1_555 1_555
C38 C39 1_555 1_555

#END
