
#######################################################################
#
#                 Cambridge Crystallographic Data Centre
#                                CCDC 
#
#######################################################################
#
# If this CIF has been generated from an entry in the Cambridge 
# Structural Database, then it will include bibliographic, chemical, 
# crystal, experimental, refinement or atomic coordinate data resulting 
# from the CCDC's data processing and validation procedures.
#
#######################################################################

data_PAXBIA
_symmetry_cell_setting           monoclinic
_symmetry_space_group_name_H-M   'C 2/c'
_symmetry_Int_Tables_number      15
_space_group_name_Hall           '-C 2yn'
loop_
_symmetry_equiv_pos_site_id
_symmetry_equiv_pos_as_xyz
1 x,y,z
2 1/2+x,1/2+y,z
3 -x,y,1/2-z
4 1/2-x,1/2+y,1/2-z
5 -x,-y,-z
6 1/2-x,1/2-y,-z
7 x,-y,1/2+z
8 1/2+x,1/2-y,1/2+z
_cell_length_a                   13.946(3)
_cell_length_b                   10.181(2)
_cell_length_c                   17.369(3)
_cell_angle_alpha                90.00
_cell_angle_beta                 90.433(3)
_cell_angle_gamma                90.00
_cell_volume                     2466.05
loop_
_atom_site_label
_atom_site_type_symbol
_atom_site_fract_x
_atom_site_fract_y
_atom_site_fract_z
Ni1 Ni 0.77083(2) 1.21347(3) 0.571560(16)
N1 N 0.79515(15) 1.1242(2) 0.67127(11)
N2 N 0.7781(2) 0.9989(3) 0.77134(14)
H1 H 0.7524 0.9454 0.8035
O1 O 0.70413(13) 1.05703(17) 0.52232(10)
O2 O 0.67459(13) 1.10938(16) 0.40028(10)
O3 O 0.39779(12) 0.66874(16) 0.52443(9)
O4 O 0.35929(12) 0.71579(18) 0.40278(10)
C1 C 0.64333(17) 0.8887(2) 0.44033(14)
H2 H 0.6998 0.8426 0.4208
C2 C 0.61298(18) 0.8149(2) 0.51227(14)
H3 H 0.5552 0.8543 0.5327
H4 H 0.6630 0.8219 0.5512
C3 C 0.59433(18) 0.6703(2) 0.49438(15)
H5 H 0.5714 0.6270 0.5404
H6 H 0.6541 0.6288 0.4798
C4 C 0.52082(16) 0.6519(2) 0.42955(14)
H7 H 0.5225 0.5590 0.4149
C5 C 0.54942(18) 0.7312(2) 0.35850(14)
H8 H 0.6075 0.6943 0.3370
H9 H 0.4991 0.7244 0.3198
C6 C 0.56627(18) 0.8758(2) 0.37790(14)
H10 H 0.5863 0.9224 0.3321
H11 H 0.5070 0.9149 0.3957
C7 C 0.67529(16) 1.0294(2) 0.45595(15)
C8 C 0.41823(16) 0.6822(2) 0.45443(14)
C9 C 0.7387(2) 1.0424(3) 0.70705(17)
H12 H 0.6782 1.0179 0.6893
C10 C 0.8642(3) 1.0523(4) 0.77744(19)
H13 H 0.9086 1.0388 0.8169
C11 C 0.8751(2) 1.1301(4) 0.71538(18)
H14 H 0.9293 1.1800 0.7046
Ni1E Ni 0.72917(2) 1.28653(3) 0.428440(16)
Ni1A Ni 0.27083(2) 0.71347(3) 0.571560(16)
Ni1D Ni 0.22917(2) 0.78653(3) 0.428440(16)
O2E O 0.82541(13) 1.39062(16) 0.59972(10)
O3A O 0.89779(12) 1.16874(16) 0.52443(9)
O4D O 0.64071(12) 1.28421(18) 0.59722(10)
loop_
_geom_bond_atom_site_label_1
_geom_bond_atom_site_label_2
_geom_bond_site_symmetry_1
_geom_bond_site_symmetry_2
Ni1 N1 1_555 1_555
N1 C9 1_555 1_555
N2 H1 1_555 1_555
O1 Ni1 1_555 1_555
O2 C7 1_555 1_555
O3 C8 1_555 1_555
O4 C8 1_555 1_555
C1 H2 1_555 1_555
C2 C1 1_555 1_555
H3 C2 1_555 1_555
H4 C2 1_555 1_555
C3 C2 1_555 1_555
H5 C3 1_555 1_555
H6 C3 1_555 1_555
C4 C3 1_555 1_555
H7 C4 1_555 1_555
C5 C4 1_555 1_555
H8 C5 1_555 1_555
H9 C5 1_555 1_555
C6 C1 1_555 1_555
H10 C6 1_555 1_555
H11 C6 1_555 1_555
C7 O1 1_555 1_555
C8 C4 1_555 1_555
C9 N2 1_555 1_555
H12 C9 1_555 1_555
C10 N2 1_555 1_555
H13 C10 1_555 1_555
C11 N1 1_555 1_555
H14 C11 1_555 1_555
Ni1E O2 1_555 1_555
Ni1A O3 1_555 1_555
Ni1D O4 1_555 1_555
O2E Ni1 1_555 1_555
O3A Ni1 1_555 1_555
O4D Ni1 1_555 1_555
C1 C7 1_555 1_555
C5 C6 1_555 1_555
C10 C11 1_555 1_555

#END
