
#######################################################################
#
#                 Cambridge Crystallographic Data Centre
#                                CCDC 
#
#######################################################################
#
# If this CIF has been generated from an entry in the Cambridge 
# Structural Database, then it will include bibliographic, chemical, 
# crystal, experimental, refinement or atomic coordinate data resulting 
# from the CCDC's data processing and validation procedures.
#
#######################################################################

data_PAXCAT
_symmetry_cell_setting           monoclinic
_symmetry_space_group_name_H-M   'C 2/c'
_symmetry_Int_Tables_number      15
_space_group_name_Hall           '-C 2yn'
loop_
_symmetry_equiv_pos_site_id
_symmetry_equiv_pos_as_xyz
1 x,y,z
2 1/2+x,1/2+y,z
3 -x,y,1/2-z
4 1/2-x,1/2+y,1/2-z
5 -x,-y,-z
6 1/2-x,1/2-y,-z
7 x,-y,1/2+z
8 1/2+x,1/2-y,1/2+z
_cell_length_a                   13.930(4)
_cell_length_b                   10.181(3)
_cell_length_c                   17.458(5)
_cell_angle_alpha                90
_cell_angle_beta                 91.249(5)
_cell_angle_gamma                90
_cell_volume                     2475.33
loop_
_atom_site_label
_atom_site_type_symbol
_atom_site_fract_x
_atom_site_fract_y
_atom_site_fract_z
Zn1 Zn 0.26931(3) 0.29106(3) 0.92995(2)
O1 O 0.13983(17) 0.2228(3) 0.90229(14)
O2 O -0.20639(17) 0.5492(2) 1.02840(14)
C1 C -0.1781(2) 0.5286(3) 0.96160(19)
N1 N 0.2977(2) 0.3745(3) 0.82327(16)
O3 O -0.17951(18) 0.6126(2) 0.90846(14)
C2 C 0.0824(2) 0.1843(3) 0.95279(19)
C3 C -0.1118(2) 0.3113(3) 1.0124(2)
H1 H -0.0534 0.3500 1.0336
H2 H -0.1604 0.3147 1.0513
C4 C -0.0514(3) 0.2409(4) 0.8575(2)
H3 H -0.0016 0.2384 0.8196
H4 H -0.1096 0.2049 0.8342
C5 C -0.0210(2) 0.1559(3) 0.92602(19)
H5 H -0.0227 0.0643 0.9086
C6 C -0.0694(2) 0.3830(3) 0.88032(19)
H6 H -0.0101 0.4222 0.8993
H7 H -0.0914 0.4326 0.8359
C7 C -0.1453(2) 0.3892(3) 0.94267(19)
H8 H -0.2020 0.3434 0.9219
N2 N 0.2883(4) 0.5035(4) 0.7241(2)
H9 H 0.2666 0.5618 0.6926
C8 C 0.2489(4) 0.4670(5) 0.7884(3)
H10 H 0.1925 0.5029 0.8069
C9 C 0.3735(4) 0.3536(7) 0.7790(3)
H11 H 0.4225 0.2935 0.7890
C10 C 0.3672(5) 0.4342(8) 0.7172(3)
H12 H 0.4105 0.4394 0.6775
O4 O 0.10456(16) 0.1655(2) 1.02141(13)
C11 C -0.0929(2) 0.1678(3) 0.9905(2)
H13 H -0.1529 0.1269 0.9745
H14 H -0.0683 0.1208 1.0352
Zn1D Zn -0.26931(3) 0.70894(3) 1.07005(2)
Zn1A Zn -0.23069(3) 0.79106(3) 0.92995(2)
Zn1E Zn 0.23069(3) 0.20894(3) 1.07005(2)
O2D O 0.20639(17) 0.4508(2) 0.97160(14)
O3A O 0.32049(18) 0.1126(2) 0.90846(14)
O4E O 0.39544(16) 0.3345(2) 0.97859(13)
loop_
_geom_bond_atom_site_label_1
_geom_bond_atom_site_label_2
_geom_bond_site_symmetry_1
_geom_bond_site_symmetry_2
Zn1 O1 1_555 1_555
O1 C2 1_555 1_555
O2 C1 1_555 1_555
C1 O3 1_555 1_555
N1 Zn1 1_555 1_555
O3 Zn1A 1_555 1_555
C2 C5 1_555 1_555
C3 H1 1_555 1_555
H2 C3 1_555 1_555
C4 H3 1_555 1_555
H4 C4 1_555 1_555
C5 C4 1_555 1_555
H5 C5 1_555 1_555
C6 C4 1_555 1_555
H6 C6 1_555 1_555
H7 C6 1_555 1_555
C7 C1 1_555 1_555
H8 C7 1_555 1_555
N2 H9 1_555 1_555
C8 N1 1_555 1_555
H10 C8 1_555 1_555
C9 N1 1_555 1_555
H11 C9 1_555 1_555
C10 N2 1_555 1_555
H12 C10 1_555 1_555
O4 C2 1_555 1_555
C11 C3 1_555 1_555
H13 C11 1_555 1_555
H14 C11 1_555 1_555
Zn1D O2 1_555 1_555
Zn1E O4 1_555 1_555
O2D Zn1 1_555 1_555
O3A Zn1 1_555 1_555
O4E Zn1 1_555 1_555
C3 C7 1_555 1_555
C5 C11 1_555 1_555
C6 C7 1_555 1_555
N2 C8 1_555 1_555
C9 C10 1_555 1_555

#END
