
#######################################################################
#
#                 Cambridge Crystallographic Data Centre
#                                CCDC 
#
#######################################################################
#
# If this CIF has been generated from an entry in the Cambridge 
# Structural Database, then it will include bibliographic, chemical, 
# crystal, experimental, refinement or atomic coordinate data resulting 
# from the CCDC's data processing and validation procedures.
#
#######################################################################

data_PAXSEM
_symmetry_cell_setting           orthorhombic
_symmetry_space_group_name_H-M   'P m n a'
_symmetry_Int_Tables_number      53
_space_group_name_Hall           '-P 2ac 2'
loop_
_symmetry_equiv_pos_site_id
_symmetry_equiv_pos_as_xyz
1 x,y,z
2 1/2-x,-y,1/2+z
3 x,-y,-z
4 1/2-x,y,1/2-z
5 -x,-y,-z
6 1/2+x,y,1/2-z
7 -x,y,z
8 1/2+x,-y,1/2+z
_cell_length_a                   7.6791(3)
_cell_length_b                   5.3837(2)
_cell_length_c                   10.6230(4)
_cell_angle_alpha                90
_cell_angle_beta                 90
_cell_angle_gamma                90
_cell_volume                     439.176
loop_
_atom_site_label
_atom_site_type_symbol
_atom_site_fract_x
_atom_site_fract_y
_atom_site_fract_z
N1 N 0.2162(1) 0.2246(2) 0.4201(1)
C1 C 0.3433(2) 0.3124(2) 0.3839(1)
N2 N 0.5000 0.7678(3) 0.1786(2)
C2 C 0.5000 0.6118(3) 0.2524(2)
C3 C 0.5000 0.4176(3) 0.3417(2)
Mn1 Mn 0.0000 0.0000 0.5000
C1F C 0.6567(2) 0.3124(2) 0.3839(1)
N1F N 0.7838(1) 0.2246(2) 0.4201(1)
Mn1F Mn 1.0000 0.0000 0.5000
N1B N 0.2162(1) -0.2246(2) 0.5799(1)
N1D N -0.2162(1) -0.2246(2) 0.5799(1)
N1F_2 N -0.2162(1) 0.2246(2) 0.4201(1)
N2A N 0.0000 0.2322(3) 0.6786(2)
C2A C 0.0000 0.3882(3) 0.7524(2)
C3A C 0.0000 0.5824(3) 0.8417(2)
C1A C 0.1567(2) 0.6876(2) 0.8839(1)
N1A N 0.2838(1) 0.7754(2) 0.9201(1)
Mn1A Mn 0.5000 1.0000 1.0000
Mn1E Mn -0.5000 1.0000 1.0000
N1G N -0.2838(1) 0.7754(2) 0.9201(1)
C1G C -0.1567(2) 0.6876(2) 0.8839(1)
N2C N 0.0000 -0.2322(3) 0.3214(2)
Mn1A_2 Mn 0.5000 1.0000 0.0000
loop_
_geom_bond_atom_site_label_1
_geom_bond_atom_site_label_2
_geom_bond_site_symmetry_1
_geom_bond_site_symmetry_2
N1 C1 1_555 1_555
C1 C3 1_555 1_555
N2 C2 1_555 1_555
C2 C3 1_555 1_555
C3 C1F 1_555 1_555
Mn1 N1 1_555 1_555
C1F N1F 1_555 1_555
N1F Mn1F 1_555 1_555
N1B Mn1 1_555 1_555
N1D Mn1 1_555 1_555
N1F_2 Mn1 1_555 1_555
N2A Mn1 1_555 1_555
C2A N2A 1_555 1_555
C3A C2A 1_555 1_555
C1A C3A 1_555 1_555
N1A C1A 1_555 1_555
Mn1A N1A 1_555 1_555
Mn1E N1G 1_555 1_555
N1G C1G 1_555 1_555
C1G C3A 1_555 1_555
N2C Mn1 1_555 1_555
Mn1A_2 N2 1_555 1_555

#END
