
#######################################################################
#
#                 Cambridge Crystallographic Data Centre
#                                CCDC 
#
#######################################################################
#
# If this CIF has been generated from an entry in the Cambridge 
# Structural Database, then it will include bibliographic, chemical, 
# crystal, experimental, refinement or atomic coordinate data resulting 
# from the CCDC's data processing and validation procedures.
#
#######################################################################

data_PAYCID
_symmetry_cell_setting           orthorhombic
_symmetry_space_group_name_H-M   'P b c n'
_symmetry_Int_Tables_number      60
_space_group_name_Hall           '-P 2n 2ab'
loop_
_symmetry_equiv_pos_site_id
_symmetry_equiv_pos_as_xyz
1 x,y,z
2 1/2-x,1/2-y,1/2+z
3 1/2+x,1/2-y,-z
4 -x,y,1/2-z
5 -x,-y,-z
6 1/2+x,1/2+y,1/2-z
7 1/2-x,1/2+y,z
8 x,-y,1/2+z
_cell_length_a                   16.3246(10)
_cell_length_b                   15.3063(11)
_cell_length_c                   16.5084(10)
_cell_angle_alpha                90
_cell_angle_beta                 90
_cell_angle_gamma                90
_cell_volume                     4124.94
loop_
_atom_site_label
_atom_site_type_symbol
_atom_site_fract_x
_atom_site_fract_y
_atom_site_fract_z
Cd1 Cd 0.5000 0.440537(18) 0.7500
Cd2 Cd 1.0000 0.521170(18) 1.2500
O7 O 0.57110(17) 0.34037(17) 0.67867(17)
H2 H 0.613(2) 0.322(3) 0.702(3)
H3 H 0.544(3) 0.296(2) 0.665(3)
O8 O 0.43176(16) 0.55653(16) 0.81748(14)
H4 H 0.398(2) 0.590(2) 0.794(3)
H5 H 0.469(2) 0.589(3) 0.835(3)
O9 O 1.06793(15) 0.62827(16) 1.17301(14)
H6 H 1.0408(19) 0.650(2) 1.1351(15)
H7 H 1.090(2) 0.668(2) 1.201(2)
O10 O 0.91413(15) 0.41573(15) 1.30228(15)
H8 H 0.934(2) 0.376(2) 1.331(2)
H9 H 0.880(2) 0.396(3) 1.270(2)
N1 N 0.59742(14) 0.45225(15) 0.85125(13)
N2 N 0.90277(14) 0.52540(14) 1.14842(13)
C1 C 0.58037(17) 0.44761(19) 0.93036(17)
H12 H 0.5280 0.4308 0.9461
C2 C 0.63744(18) 0.46683(19) 0.98969(17)
H13 H 0.6228 0.4640 1.0441
C3 C 0.71664(17) 0.49032(17) 0.96802(16)
C4 C 0.73372(18) 0.4948(2) 0.88558(17)
H14 H 0.7857 0.5106 0.8679
C5 C 0.67325(18) 0.47571(19) 0.83037(17)
H15 H 0.6859 0.4794 0.7755
C6 C 0.82516(17) 0.54887(18) 1.16227(16)
H16 H 0.8120 0.5719 1.2127
C7 C 0.76329(17) 0.54064(17) 1.10549(17)
H17 H 0.7102 0.5577 1.1182
C8 C 0.78081(16) 0.50689(17) 1.02957(16)
C9 C 0.86225(18) 0.48489(19) 1.01436(17)
H18 H 0.8775 0.4641 0.9636
C10 C 0.92024(17) 0.4940(2) 1.07458(17)
H19 H 0.9739 0.4777 1.0634
Cd2_2 Cd 0.0000 0.521170(18) 0.2500
O7C O 0.42890(17) 0.34037(17) 0.82133(17)
H2C H 0.387(2) 0.322(3) 0.798(3)
H3C H 0.456(3) 0.296(2) 0.835(3)
O8C O 0.56824(16) 0.55653(16) 0.68252(14)
H4C H 0.602(2) 0.590(2) 0.706(3)
H5C H 0.531(2) 0.589(3) 0.665(3)
O9C O 0.93207(15) 0.62827(16) 1.32699(14)
H6C H 0.9592(19) 0.650(2) 1.3649(15)
H7C H 0.910(2) 0.668(2) 1.299(2)
O10C O 1.08587(15) 0.41573(15) 1.19772(15)
H8C H 1.066(2) 0.376(2) 1.169(2)
H9C H 1.120(2) 0.396(3) 1.230(2)
N1C N 0.40258(14) 0.45225(15) 0.64875(13)
N2C N 0.09723(14) 0.52540(14) 0.35158(13)
N2C_2 N 1.09723(14) 0.52540(14) 1.35158(13)
C1C C 0.41963(17) 0.44761(19) 0.56964(17)
H12C H 0.4720 0.4308 0.5539
C2C C 0.36256(18) 0.46683(19) 0.51031(17)
H13C H 0.3772 0.4640 0.4559
C3C C 0.28336(17) 0.49032(17) 0.53198(16)
C4C C 0.26628(18) 0.4948(2) 0.61442(17)
H14C H 0.2143 0.5106 0.6321
C5C C 0.32675(18) 0.47571(19) 0.66963(17)
H15C H 0.3141 0.4794 0.7245
C6C C 0.17484(17) 0.54887(18) 0.33773(16)
H16C H 0.1880 0.5719 0.2873
C7C C 0.23671(17) 0.54064(17) 0.39451(17)
H17C H 0.2898 0.5577 0.3818
C8C C 0.21919(16) 0.50689(17) 0.47043(16)
C9C C 0.13775(18) 0.48489(19) 0.48564(17)
H18C H 0.1225 0.4641 0.5364
C10C C 0.07976(17) 0.4940(2) 0.42542(17)
H19C H 0.0261 0.4777 0.4366
S1 S 0.27334(4) 0.28183(4) 0.28084(4)
O1 O 0.47567(13) 0.21091(14) 0.60407(12)
O2 O 0.52506(13) 0.20519(13) 0.47897(12)
O3 O 0.15128(12) 0.29724(14) 0.41107(13)
H1 H 0.1118(15) 0.299(2) 0.4435(18)
O4 O 0.23985(15) 0.36795(13) 0.26880(13)
O5 O 0.21871(16) 0.21217(13) 0.25558(11)
O6 O 0.35463(14) 0.27325(16) 0.24423(11)
C11 C 0.46607(17) 0.21484(17) 0.52932(17)
C12 C 0.38208(16) 0.23377(16) 0.49698(15)
C13 C 0.31673(17) 0.24312(19) 0.55095(16)
H20 H 0.3255 0.2352 0.6061
C14 C 0.23932(17) 0.26394(19) 0.52330(18)
H21 H 0.1963 0.2694 0.5599
C15 C 0.22524(16) 0.27683(17) 0.44052(16)
C16 C 0.29036(16) 0.26767(17) 0.38635(15)
C17 C 0.36795(15) 0.24627(17) 0.41485(15)
H22 H 0.4110 0.2402 0.3784
O11 O 0.55474(18) 0.35179(16) 0.38410(18)
H10 H 0.549(3) 0.313(2) 0.420(2)
H11 H 0.592(2) 0.338(4) 0.351(3)
loop_
_geom_bond_atom_site_label_1
_geom_bond_atom_site_label_2
_geom_bond_site_symmetry_1
_geom_bond_site_symmetry_2
Cd1 O7 1_555 1_555
Cd2 O9 1_555 1_555
S1 O4 1_555 1_555
O1 C11 1_555 1_555
O2 C11 1_555 1_555
O3 H1 1_555 1_555
O5 S1 1_555 1_555
O6 S1 1_555 1_555
O7 H2 1_555 1_555
H3 O7 1_555 1_555
O8 Cd1 1_555 1_555
H4 O8 1_555 1_555
H5 O8 1_555 1_555
O9 H6 1_555 1_555
H7 O9 1_555 1_555
O10 Cd2 1_555 1_555
H8 O10 1_555 1_555
H9 O10 1_555 1_555
O11 H10 1_555 1_555
H11 O11 1_555 1_555
N1 Cd1 1_555 1_555
N2 Cd2 1_555 1_555
C1 N1 1_555 1_555
H12 C1 1_555 1_555
C2 C1 1_555 1_555
H13 C2 1_555 1_555
C3 C2 1_555 1_555
C4 C3 1_555 1_555
H14 C4 1_555 1_555
C5 N1 1_555 1_555
H15 C5 1_555 1_555
C6 N2 1_555 1_555
H16 C6 1_555 1_555
C7 C6 1_555 1_555
H17 C7 1_555 1_555
C8 C3 1_555 1_555
C9 C8 1_555 1_555
H18 C9 1_555 1_555
C10 N2 1_555 1_555
H19 C10 1_555 1_555
C11 C12 1_555 1_555
C12 C13 1_555 1_555
C13 H20 1_555 1_555
C14 C13 1_555 1_555
H21 C14 1_555 1_555
C15 O3 1_555 1_555
C16 S1 1_555 1_555
C17 C12 1_555 1_555
H22 C17 1_555 1_555
Cd2_2 N2C 1_555 1_555
O7C Cd1 1_555 1_555
H2C O7C 1_555 1_555
H3C O7C 1_555 1_555
O8C Cd1 1_555 1_555
H4C O8C 1_555 1_555
H5C O8C 1_555 1_555
O9C Cd2 1_555 1_555
H6C O9C 1_555 1_555
H7C O9C 1_555 1_555
O10C Cd2 1_555 1_555
H8C O10C 1_555 1_555
H9C O10C 1_555 1_555
N1C Cd1 1_555 1_555
N2C C6C 1_555 1_555
N2C_2 Cd2 1_555 1_555
C1C N1C 1_555 1_555
H12C C1C 1_555 1_555
C2C C1C 1_555 1_555
H13C C2C 1_555 1_555
C3C C2C 1_555 1_555
C4C C3C 1_555 1_555
H14C C4C 1_555 1_555
C5C N1C 1_555 1_555
H15C C5C 1_555 1_555
C6C H16C 1_555 1_555
C7C C6C 1_555 1_555
H17C C7C 1_555 1_555
C8C C3C 1_555 1_555
C9C C8C 1_555 1_555
H18C C9C 1_555 1_555
C10C N2C 1_555 1_555
H19C C10C 1_555 1_555
C4 C5 1_555 1_555
C7 C8 1_555 1_555
C9 C10 1_555 1_555
C14 C15 1_555 1_555
C15 C16 1_555 1_555
C16 C17 1_555 1_555
C4C C5C 1_555 1_555
C7C C8C 1_555 1_555
C9C C10C 1_555 1_555

#END
