
#######################################################################
#
#                 Cambridge Crystallographic Data Centre
#                                CCDC 
#
#######################################################################
#
# If this CIF has been generated from an entry in the Cambridge 
# Structural Database, then it will include bibliographic, chemical, 
# crystal, experimental, refinement or atomic coordinate data resulting 
# from the CCDC's data processing and validation procedures.
#
#######################################################################

data_PAYHIH
_symmetry_cell_setting           monoclinic
_symmetry_space_group_name_H-M   'C 2/c'
_symmetry_Int_Tables_number      15
_space_group_name_Hall           '-C 2yn'
loop_
_symmetry_equiv_pos_site_id
_symmetry_equiv_pos_as_xyz
1 x,y,z
2 1/2+x,1/2+y,z
3 -x,y,1/2-z
4 1/2-x,1/2+y,1/2-z
5 -x,-y,-z
6 1/2-x,1/2-y,-z
7 x,-y,1/2+z
8 1/2+x,1/2-y,1/2+z
_cell_length_a                   33.2770(16)
_cell_length_b                   9.9276(4)
_cell_length_c                   16.2019(2)
_cell_angle_alpha                90
_cell_angle_beta                 118.459(2)
_cell_angle_gamma                90
_cell_volume                     4705.67
loop_
_atom_site_label
_atom_site_type_symbol
_atom_site_fract_x
_atom_site_fract_y
_atom_site_fract_z
C1 C 0.71874(10) -0.2488(3) 0.1632(2)
C2 C 0.77901(10) 0.3732(3) 0.08534(19)
C3 C 0.82466(11) -0.1227(3) 0.1165(3)
H1 H 0.8032 -0.1864 0.1118
C4 C 0.86209(11) -0.1648(3) 0.1073(3)
H2 H 0.8658 -0.2554 0.0978
C5 C 0.89351(10) -0.0719(3) 0.1124(2)
C6 C 0.88606(14) 0.0608(4) 0.1239(4)
H3 H 0.9059 0.1273 0.1243
C7 C 0.84882(14) 0.0940(4) 0.1349(4)
H4 H 0.8447 0.1839 0.145
C8 C 0.93569(10) -0.1096(4) 0.1057(2)
C9 C 0.67015(11) 0.0862(3) 0.1975(2)
H5 H 0.6847 0.0098 0.2321
C10 C 0.63005(11) 0.1278(3) 0.1952(2)
H6 H 0.6178 0.0801 0.2274
C11 C 0.60832(9) 0.2413(3) 0.14416(19)
C12 C 0.62849(10) 0.3112(3) 0.0995(2)
H7 H 0.6153 0.3898 0.0663
C13 C 0.66857(10) 0.2617(3) 0.1053(2)
H8 H 0.6819 0.3084 0.0748
C14 C 0.56334(10) 0.2815(3) 0.1377(2)
N1 N 0.73548(11) -0.1473(3) 0.1616(2)
N2 N 0.76587(10) 0.2878(3) 0.11465(19)
N3 N 0.81833(8) 0.0045(3) 0.13189(19)
O1 O 0.94963(10) -0.0372(3) 0.0634(2)
N4 N 0.68895(8) 0.1511(2) 0.15229(17)
N5 N 0.54150(11) 0.3846(4) 0.0833(3)
H9 H 0.5155 0.4092 0.0773
H10 H 0.5533 0.4272 0.0538
N6 N 0.95564(11) -0.2224(4) 0.1470(2)
H11 H 0.9798 -0.249 0.1454
H12 H 0.9445 -0.2697 0.1758
O2 O 0.54798(8) 0.2168(3) 0.18150(17)
S1 S 0.69538(4) -0.39309(10) 0.16494(6)
S2 S 0.79799(4) 0.49218(10) 0.04330(6)
Cd1 Cd 0.754014(6) 0.070119(19) 0.147398(14)
C1C C 0.78126(10) 0.2512(3) 0.3368(2)
C2E C 0.72099(10) 0.1268(3) -0.08534(19)
C3C C 0.67534(11) 0.3773(3) 0.3835(3)
H1C H 0.6968 0.3136 0.3882
C4C C 0.63791(11) 0.3352(3) 0.3927(3)
H2C H 0.6342 0.2446 0.4022
C5C C 0.60649(10) 0.4281(3) 0.3876(2)
C6C C 0.61394(14) 0.5608(4) 0.3761(4)
H3C H 0.5941 0.6273 0.3757
C7C C 0.65118(14) 0.5940(4) 0.3651(4)
H4C H 0.6553 0.6839 0.355
C8C C 0.56431(10) 0.3904(4) 0.3943(2)
C9C C 0.82985(11) 0.5862(3) 0.3025(2)
H5C H 0.8153 0.5098 0.2679
C10C C 0.86995(11) 0.6278(3) 0.3048(2)
H6C H 0.8822 0.5801 0.2726
C11C C 0.89168(9) 0.7413(3) 0.35584(19)
C12C C 0.87151(10) 0.8112(3) 0.4005(2)
H7C H 0.8847 0.8898 0.4337
C13C C 0.83143(10) 0.7617(3) 0.3947(2)
H8C H 0.8181 0.8084 0.4252
C14C C 0.93666(10) 0.7815(3) 0.3623(2)
N1C N 0.76452(11) 0.3527(3) 0.3384(2)
N2E N 0.73413(10) 0.2122(3) -0.11465(19)
N2C N 0.73413(10) 0.7878(3) 0.38535(19)
N3C N 0.68167(8) 0.5045(3) 0.36811(19)
O1C O 0.55037(10) 0.4628(3) 0.4366(2)
N4C N 0.81105(8) 0.6511(2) 0.34771(17)
N5C N 0.95850(11) 0.8846(4) 0.4167(3)
H9C H 0.9845 0.9092 0.4227
H10C H 0.9467 0.9272 0.4462
N6C N 0.54436(11) 0.2776(4) 0.3530(2)
H11C H 0.5202 0.251 0.3546
H12C H 0.5555 0.2303 0.3242
O2C O 0.95202(8) 0.7168(3) 0.31850(17)
S1C S 0.80462(4) 0.10691(10) 0.33506(6)
S1_2 S 0.69538(4) 0.60691(10) 0.16494(6)
S2E S 0.70201(4) 0.00782(10) -0.04330(6)
S2F S 0.79799(4) 0.50782(10) 0.54330(6)
Cd1C Cd 0.745986(6) 0.570119(19) 0.352602(14)
Cd1C_2 Cd 0.745986(6) -0.429881(19) 0.352602(14)
Cd1E Cd 0.745986(6) 0.429881(19) -0.147398(14)
C15 C 0.4612(2) 0.9097(6) 0.4580(4)
C16 C 0.42439(18) 0.8212(7) 0.4192(4)
H13 H 0.4007 0.8293 0.434
C17 C 0.4230(2) 0.7206(6) 0.3582(4)
H14 H 0.3984 0.6613 0.3323
C18 C 0.4584(3) 0.7084(6) 0.3361(4)
H15 H 0.4575 0.6411 0.2953
C19 C 0.4952(2) 0.7969(7) 0.3749(4)
H16 H 0.5188 0.7888 0.3601
C20 C 0.49655(19) 0.8976(6) 0.4359(4)
C21 C 0.4660(3) 1.0148(11) 0.5236(6)
Cl1 Cl 0.42148(9) 1.0304(3) 0.55190(19)
C15D C 0.5388(2) 1.0903(6) 0.5420(4)
C16D C 0.57561(18) 1.1788(7) 0.5808(4)
H13D H 0.5993 1.1707 0.566
C17D C 0.5770(2) 1.2794(6) 0.6418(4)
H14D H 0.6016 1.3387 0.6677
C18D C 0.5416(3) 1.2916(6) 0.6639(4)
H15D H 0.5425 1.3589 0.7047
C19D C 0.5048(2) 1.2031(7) 0.6251(4)
H16D H 0.4812 1.2112 0.6399
C20D C 0.50345(19) 1.1024(6) 0.5641(4)
C21D C 0.5340(3) 0.9852(11) 0.4764(6)
Cl1D Cl 0.57852(9) 0.9696(3) 0.44810(19)
C22? C 0.4568(3) 0.9534(12) 0.4840(8)
C23? C 0.4134(3) 0.9083(11) 0.4634(9)
H17? H 0.3982 0.8471 0.4148
C24? C 0.3929(3) 0.9548(14) 0.5153(11)
H18? H 0.3639 0.9246 0.5015
C25? C 0.4158(4) 1.0463(15) 0.5878(10)
H19? H 0.402 1.0773 0.6225
C26? C 0.4591(4) 1.0913(13) 0.6084(8)
H20? H 0.4744 1.1525 0.6569
C27? C 0.4796(3) 1.0449(12) 0.5565(8)
C28? C 0.4761(6) 0.9097(18) 0.4329(14)
Cl2? Cl 0.4495(2) 0.7900(8) 0.3418(5)
loop_
_geom_bond_atom_site_label_1
_geom_bond_atom_site_label_2
_geom_bond_site_symmetry_1
_geom_bond_site_symmetry_2
C1 N1 1_555 1_555
C2 N2 1_555 1_555
C3 H1 1_555 1_555
C4 C3 1_555 1_555
H2 C4 1_555 1_555
C5 C4 1_555 1_555
C6 C5 1_555 1_555
H3 C6 1_555 1_555
C7 C6 1_555 1_555
H4 C7 1_555 1_555
C8 C5 1_555 1_555
C9 H5 1_555 1_555
C10 C9 1_555 1_555
H6 C10 1_555 1_555
C11 C10 1_555 1_555
C12 C11 1_555 1_555
H7 C12 1_555 1_555
C13 C12 1_555 1_555
H8 C13 1_555 1_555
C14 C11 1_555 1_555
N1 Cd1 1_555 1_555
N2 Cd1 1_555 1_555
N3 C3 1_555 1_555
O1 C8 1_555 1_555
N4 C9 1_555 1_555
N5 C14 1_555 1_555
H9 N5 1_555 1_555
H10 N5 1_555 1_555
N6 C8 1_555 1_555
H11 N6 1_555 1_555
H12 N6 1_555 1_555
O2 C14 1_555 1_555
S1 C1 1_555 1_555
S2 C2 1_555 1_555
Cd1 N3 1_555 1_555
C15 C16 1_555 1_555
C16 H13 1_555 1_555
C17 C16 1_555 1_555
H14 C17 1_555 1_555
C18 C17 1_555 1_555
H15 C18 1_555 1_555
C19 C18 1_555 1_555
H16 C19 1_555 1_555
C20 C15 1_555 1_555
C21 C15 1_555 1_555
Cl1 C21 1_555 1_555
C1C N1C 1_555 1_555
C2E N2E 1_555 1_555
C3C H1C 1_555 1_555
C4C C3C 1_555 1_555
H2C C4C 1_555 1_555
C5C C4C 1_555 1_555
C6C C5C 1_555 1_555
H3C C6C 1_555 1_555
C7C C6C 1_555 1_555
H4C C7C 1_555 1_555
C8C C5C 1_555 1_555
C9C H5C 1_555 1_555
C10C C9C 1_555 1_555
H6C C10C 1_555 1_555
C11C C10C 1_555 1_555
C12C C11C 1_555 1_555
H7C C12C 1_555 1_555
C13C C12C 1_555 1_555
H8C C13C 1_555 1_555
C14C C11C 1_555 1_555
N1C Cd1C 1_555 1_555
N2E Cd1E 1_555 1_555
N2C Cd1C 1_555 1_555
N3C C3C 1_555 1_555
O1C C8C 1_555 1_555
N4C C9C 1_555 1_555
N5C C14C 1_555 1_555
H9C N5C 1_555 1_555
H10C N5C 1_555 1_555
N6C C8C 1_555 1_555
H11C N6C 1_555 1_555
H12C N6C 1_555 1_555
O2C C14C 1_555 1_555
S1C Cd1 1_555 1_555
S1_2 Cd1C 1_555 1_555
S2E Cd1 1_555 1_555
S2F Cd1C 1_555 1_555
Cd1C N3C 1_555 1_555
Cd1C_2 S1 1_555 1_555
Cd1E S2 1_555 1_555
C15D C16D 1_555 1_555
C16D H13D 1_555 1_555
C17D C16D 1_555 1_555
H14D C17D 1_555 1_555
C18D C17D 1_555 1_555
H15D C18D 1_555 1_555
C19D C18D 1_555 1_555
H16D C19D 1_555 1_555
C20D C21 1_555 1_555
C21D C20 1_555 1_555
Cl1D C21D 1_555 1_555
C7 N3 1_555 1_555
C13 N4 1_555 1_555
N4 Cd1 1_555 1_555
C19 C20 1_555 1_555
C1C S1C 1_555 1_555
C2E S2E 1_555 1_555
C7C N3C 1_555 1_555
C13C N4C 1_555 1_555
N4C Cd1C 1_555 1_555
C15D C20D 1_555 1_555
C15D C21D 1_555 1_555
C19D C20D 1_555 1_555

#END
