
#######################################################################
#
#                 Cambridge Crystallographic Data Centre
#                                CCDC 
#
#######################################################################
#
# If this CIF has been generated from an entry in the Cambridge 
# Structural Database, then it will include bibliographic, chemical, 
# crystal, experimental, refinement or atomic coordinate data resulting 
# from the CCDC's data processing and validation procedures.
#
#######################################################################

data_PAYJUU
_symmetry_cell_setting           monoclinic
_symmetry_space_group_name_H-M   'P 21/c'
_symmetry_Int_Tables_number      14
_space_group_name_Hall           '-P 2ybc'
loop_
_symmetry_equiv_pos_site_id
_symmetry_equiv_pos_as_xyz
1 x,y,z
2 -x,1/2+y,1/2-z
3 -x,-y,-z
4 x,1/2-y,1/2+z
_cell_length_a                   13.024(1)
_cell_length_b                   10.131(1)
_cell_length_c                   17.887(1)
_cell_angle_alpha                90
_cell_angle_beta                 95.80(1)
_cell_angle_gamma                90
_cell_volume                     2348.04
loop_
_atom_site_label
_atom_site_type_symbol
_atom_site_fract_x
_atom_site_fract_y
_atom_site_fract_z
C22 C 0.0279(5) -0.1243(9) 0.0196(4)
C23 C -0.0504(6) -0.060(1) 0.0509(5)
C24 C 0.0803(6) -0.059(1) -0.0326(5)
C25 C 0.0613(8) -0.234(1) 0.0343(6)
H22 H -0.084(3) -0.093(3) 0.080(2)
H23 H 0.134(4) -0.095(5) -0.060(3)
H24 H 0.1170(8) -0.254(1) 0.0030(6)
H25 H 0.0059(8) -0.299(1) 0.0243(6)
H26 H 0.0881(8) -0.238(1) 0.0874(6)
C24B C -0.0803(6) 0.059(1) 0.0326(5)
C22B C -0.0279(5) 0.1243(9) -0.0196(4)
C23B C 0.0504(6) 0.060(1) -0.0509(5)
H22B H 0.084(3) 0.093(3) -0.080(2)
C25B C -0.0613(8) 0.234(1) -0.0343(6)
H24B H -0.1170(8) 0.254(1) -0.0030(6)
H25B H -0.0059(8) 0.299(1) -0.0243(6)
H26B H -0.0881(8) 0.238(1) -0.0874(6)
H23B H -0.134(4) 0.095(5) 0.060(3)
N1 N 0.1402(2) -0.1610(3) 0.2210(2)
N2 N 0.0574(2) -0.2059(3) 0.2297(2)
N3 N -0.0235(3) -0.2481(3) 0.2357(2)
C1 C 0.3881(3) -0.2030(4) 0.2305(3)
C2 C 0.2308(4) 0.5568(4) 0.2784(3)
C3 C 0.2585(3) -0.1613(3) 0.3827(2)
C4 C 0.3847(2) -0.1006(3) 0.1701(2)
C5 C 0.4254(3) 0.0243(3) 0.1844(2)
C6 C 0.4299(3) 0.1155(4) 0.1276(3)
C7 C 0.3915(3) 0.0852(5) 0.0549(3)
C8 C 0.3488(3) -0.0368(4) 0.0402(3)
C9 C 0.3444(3) -0.1288(4) 0.0971(2)
C10 C 0.2138(3) 0.5049(3) 0.2015(2)
C11 C 0.1149(3) 0.4959(4) 0.1640(3)
C12 C 0.0961(5) 0.4570(4) 0.0906(3)
C13 C 0.1753(6) 0.4255(5) 0.0502(3)
C14 C 0.2750(6) 0.4315(5) 0.0847(4)
C15 C 0.2943(3) 0.4692(4) 0.1598(3)
C16 C 0.3000(3) -0.0246(3) 0.3816(2)
C17 C 0.2385(3) 0.0807(3) 0.3538(2)
C18 C 0.2782(3) 0.2074(3) 0.3484(2)
C19 C 0.3810(3) 0.2322(3) 0.3715(2)
C20 C 0.4426(3) 0.1306(4) 0.4005(2)
C21 C 0.4031(3) 0.0036(4) 0.4058(2)
H1 H 0.436(3) -0.171(4) 0.272(3)
H2 H 0.401(3) -0.287(4) 0.211(2)
H3 H 0.290(4) 0.521(4) 0.301(3)
H4 H 0.177(3) 0.542(3) 0.301(2)
H5 H 0.190(4) -0.154(4) 0.395(3)
H6 H 0.306(3) -0.213(4) 0.415(2)
H7 H 0.447(2) 0.046(3) 0.233(2)
H8 H 0.453(3) 0.192(4) 0.140(2)
H9 H 0.395(3) 0.141(4) 0.020(3)
H10 H 0.323(3) -0.055(4) -0.008(3)
H11 H 0.312(3) -0.216(4) 0.087(2)
H12 H 0.061(3) 0.522(5) 0.194(3)
H13 H 0.025(5) 0.448(6) 0.060(4)
H14 H 0.165(5) 0.397(6) 0.002(4)
H15 H 0.314(4) 0.417(5) 0.061(3)
H16 H 0.363(4) 0.467(5) 0.186(3)
H17 H 0.166(3) 0.061(3) 0.341(2)
H18 H 0.236(3) 0.272(4) 0.329(2)
H19 H 0.407(3) 0.324(4) 0.371(2)
H20 H 0.511(3) 0.144(3) 0.414(2)
H21 H 0.440(3) -0.063(4) 0.423(2)
Cs1 Cs 0.16803(2) 0.12638(2) 0.15176(1)
Ga1 Ga 0.26246(3) -0.24714(3) 0.28158(2)
Cs1A Cs -0.16803(2) -0.37362(2) 0.34824(1)
C2_2 C 0.2308(4) -0.4432(4) 0.2784(3)
H3_2 H 0.290(4) -0.479(4) 0.301(3)
H4_2 H 0.177(3) -0.458(3) 0.301(2)
N3A N 0.0235(3) 0.2519(3) 0.2643(2)
Ga1_2 Ga 0.26246(3) 0.75286(3) 0.28158(2)
loop_
_geom_bond_atom_site_label_1
_geom_bond_atom_site_label_2
_geom_bond_site_symmetry_1
_geom_bond_site_symmetry_2
N1 N2 1_555 1_555
N2 N3 1_555 1_555
N3 Cs1A 1_555 1_555
C1 C4 1_555 1_555
C2 C10 1_555 1_555
C3 C16 1_555 1_555
C4 C5 1_555 1_555
C5 C6 1_555 1_555
C6 C7 1_555 1_555
C7 C8 1_555 1_555
C8 C9 1_555 1_555
C9 C4 1_555 1_555
C10 C11 1_555 1_555
C11 C12 1_555 1_555
C12 C13 1_555 1_555
C13 C14 1_555 1_555
C14 C15 1_555 1_555
C15 C10 1_555 1_555
C16 C17 1_555 1_555
C17 C18 1_555 1_555
C18 C19 1_555 1_555
C19 C20 1_555 1_555
C20 C21 1_555 1_555
C21 C16 1_555 1_555
H1 C1 1_555 1_555
H2 C1 1_555 1_555
H3 C2 1_555 1_555
H4 C2 1_555 1_555
H5 C3 1_555 1_555
H6 C3 1_555 1_555
H7 C5 1_555 1_555
H8 C6 1_555 1_555
H9 C7 1_555 1_555
H10 C8 1_555 1_555
H11 C9 1_555 1_555
H12 C11 1_555 1_555
H13 C12 1_555 1_555
H14 C13 1_555 1_555
H15 C14 1_555 1_555
H16 C15 1_555 1_555
H17 C17 1_555 1_555
H18 C18 1_555 1_555
H19 C19 1_555 1_555
H20 C20 1_555 1_555
H21 C21 1_555 1_555
C22 C23 1_555 1_555
C23 H22 1_555 1_555
C24 C22 1_555 1_555
C25 C22 1_555 1_555
H23 C24 1_555 1_555
H24 C25 1_555 1_555
H25 C25 1_555 1_555
H26 C25 1_555 1_555
Cs1 N1 1_555 1_555
Ga1 N1 1_555 1_555
C2_2 Ga1 1_555 1_555
H3_2 C2_2 1_555 1_555
H4_2 C2_2 1_555 1_555
N3A Cs1 1_555 1_555
Ga1_2 C2 1_555 1_555
C24B C23 1_555 1_555
C22B C24B 1_555 1_555
C23B C24 1_555 1_555
H22B C23B 1_555 1_555
C25B C22B 1_555 1_555
H24B C25B 1_555 1_555
H25B C25B 1_555 1_555
H26B C25B 1_555 1_555
H23B C24B 1_555 1_555
C1 Ga1 1_555 1_555
C3 Ga1 1_555 1_555
C4 Cs1 1_555 1_555
C5 Cs1 1_555 1_555
C6 Cs1 1_555 1_555
C7 Cs1 1_555 1_555
C8 Cs1 1_555 1_555
C9 Cs1 1_555 1_555
C12 Cs1 1_555 1_555
C13 Cs1 1_555 1_555
C14 Cs1 1_555 1_555
C22B C23B 1_555 1_555

#END
