
#######################################################################
#
#                 Cambridge Crystallographic Data Centre
#                                CCDC 
#
#######################################################################
#
# If this CIF has been generated from an entry in the Cambridge 
# Structural Database, then it will include bibliographic, chemical, 
# crystal, experimental, refinement or atomic coordinate data resulting 
# from the CCDC's data processing and validation procedures.
#
#######################################################################

data_PAYKAB
_symmetry_cell_setting           orthorhombic
_symmetry_space_group_name_H-M   'P n a 21'
_symmetry_Int_Tables_number      33
_space_group_name_Hall           'P 2c -2n'
loop_
_symmetry_equiv_pos_site_id
_symmetry_equiv_pos_as_xyz
1 x,y,z
2 -x,-y,1/2+z
3 1/2-x,1/2+y,1/2+z
4 1/2+x,1/2-y,z
_cell_length_a                   12.359(1)
_cell_length_b                   17.474(1)
_cell_length_c                   9.841(1)
_cell_angle_alpha                90
_cell_angle_beta                 90
_cell_angle_gamma                90
_cell_volume                     2125.27
loop_
_atom_site_label
_atom_site_type_symbol
_atom_site_fract_x
_atom_site_fract_y
_atom_site_fract_z
N1 N 0.2207(4) 0.2459(2) -0.2413(4)
N2 N 0.1689(3) 0.2163(2) -0.3220(5)
N3 N 0.1108(5) 0.1846(3) -0.4004(5)
C1 C 0.4610(5) 0.3145(3) -0.1147(5)
C2 C 0.1520(5) -0.1239(3) 0.0564(5)
C3 C 0.4363(7) 0.1641(3) -0.3919(5)
C4 C 0.4095(4) 0.2902(2) 0.0131(5)
C5 C 0.3125(5) 0.3202(3) 0.0598(6)
C6 C 0.2674(5) 0.2980(3) 0.1836(6)
C7 C 0.3186(7) 0.2454(4) 0.2647(6)
C8 C 0.4144(6) 0.2152(4) 0.2213(4)
C9 C 0.4592(6) 0.2377(3) 0.0985(5)
C10 C 0.1404(4) -0.0537(2) 0.1385(4)
C11 C 0.2222(5) -0.0295(3) 0.2243(4)
C12 C 0.2117(6) 0.0329(3) 0.3088(5)
C13 C 0.1169(7) 0.0739(3) 0.3090(5)
C14 C 0.0335(6) 0.0528(3) 0.2241(5)
C15 C 0.0445(5) -0.0100(3) 0.1386(5)
C16 C 0.4232(4) 0.1015(2) -0.2929(5)
C17 C 0.3382(5) 0.0492(3) -0.3007(7)
C18 C 0.3284(7) -0.0107(3) -0.2105(8)
C19 C 0.4014(8) -0.0193(4) -0.1063(8)
C20 C 0.4841(6) 0.0315(4) -0.0937(6)
C21 C 0.4949(5) 0.0913(3) -0.1848(6)
H1 H 0.533(5) 0.294(3) -0.125(5)
H2 H 0.459(4) 0.370(3) -0.112(5)
H3 H 0.110(3) -0.121(2) -0.020(4)
H4 H 0.230(4) -0.133(2) 0.035(4)
H5 H 0.387(4) 0.153(2) -0.467(5)
H6 H 0.512(5) 0.165(3) -0.408(5)
H7 H 0.280(4) 0.348(2) 0.019(5)
H8 H 0.204(4) 0.318(2) 0.209(5)
H9 H 0.291(5) 0.235(3) 0.343(7)
H10 H 0.455(5) 0.179(3) 0.273(6)
H11 H 0.514(5) 0.214(3) 0.074(5)
H12 H 0.290(4) -0.050(2) 0.216(5)
H13 H 0.266(5) 0.043(3) 0.374(5)
H14 H 0.115(4) 0.115(3) 0.357(5)
H15 H -0.026(4) 0.077(2) 0.223(4)
H16 H -0.008(4) -0.026(2) 0.078(4)
H17 H 0.297(4) 0.062(2) -0.366(4)
H18 H 0.267(5) -0.043(3) -0.228(5)
H19 H 0.402(5) -0.051(3) -0.055(6)
H20 H 0.533(5) 0.026(3) -0.009(8)
H21 H 0.549(5) 0.121(3) -0.166(6)
Cs1 Cs 0.23162(2) 0.12723(1) 0.00000
In1 In 0.39321(3) 0.27822(1) -0.31176(4)
In1B In 0.10679(3) -0.22178(1) 0.18824(4)
C2B C 0.3480(5) 0.3761(3) -0.4436(5)
loop_
_geom_bond_atom_site_label_1
_geom_bond_atom_site_label_2
_geom_bond_site_symmetry_1
_geom_bond_site_symmetry_2
N1 N2 1_555 1_555
N2 N3 1_555 1_555
C1 C4 1_555 1_555
C2 C10 1_555 1_555
C3 C16 1_555 1_555
C4 C5 1_555 1_555
C5 C6 1_555 1_555
C6 C7 1_555 1_555
C7 C8 1_555 1_555
C8 C9 1_555 1_555
C9 C4 1_555 1_555
C10 C11 1_555 1_555
C11 C12 1_555 1_555
C12 C13 1_555 1_555
C13 C14 1_555 1_555
C14 C15 1_555 1_555
C15 C10 1_555 1_555
C16 C17 1_555 1_555
C17 C18 1_555 1_555
C18 C19 1_555 1_555
C19 C20 1_555 1_555
C20 C21 1_555 1_555
C21 C16 1_555 1_555
H1 C1 1_555 1_555
H2 C1 1_555 1_555
H3 C2 1_555 1_555
H4 C2 1_555 1_555
H5 C3 1_555 1_555
H6 C3 1_555 1_555
H7 C5 1_555 1_555
H8 C6 1_555 1_555
H9 C7 1_555 1_555
H10 C8 1_555 1_555
H11 C9 1_555 1_555
H12 C11 1_555 1_555
H13 C12 1_555 1_555
H14 C13 1_555 1_555
H15 C14 1_555 1_555
H16 C15 1_555 1_555
H17 C17 1_555 1_555
H18 C18 1_555 1_555
H19 C19 1_555 1_555
H20 C20 1_555 1_555
H21 C21 1_555 1_555
Cs1 N1 1_555 1_555
In1 N1 1_555 1_555
In1B C2 1_555 1_555
C2B In1 1_555 1_555
N2 Cs1 1_555 1_555
C1 In1 1_555 1_555
C3 In1 1_555 1_555
C4 Cs1 1_555 1_555
C5 Cs1 1_555 1_555
C6 Cs1 1_555 1_555
C7 Cs1 1_555 1_555
C8 Cs1 1_555 1_555
C9 Cs1 1_555 1_555
C10 Cs1 1_555 1_555
C11 Cs1 1_555 1_555
C12 Cs1 1_555 1_555
C13 Cs1 1_555 1_555
C14 Cs1 1_555 1_555
C15 Cs1 1_555 1_555
C17 Cs1 1_555 1_555
C18 Cs1 1_555 1_555
C19 Cs1 1_555 1_555
C20 Cs1 1_555 1_555

#END
