
#######################################################################
#
#                 Cambridge Crystallographic Data Centre
#                                CCDC 
#
#######################################################################
#
# If this CIF has been generated from an entry in the Cambridge 
# Structural Database, then it will include bibliographic, chemical, 
# crystal, experimental, refinement or atomic coordinate data resulting 
# from the CCDC's data processing and validation procedures.
#
#######################################################################

data_PAYQEL
_symmetry_cell_setting           monoclinic
_symmetry_space_group_name_H-M   'C 2/c'
_symmetry_Int_Tables_number      15
_space_group_name_Hall           '-C 2yn'
loop_
_symmetry_equiv_pos_site_id
_symmetry_equiv_pos_as_xyz
1 x,y,z
2 -x,y,1/2-z
3 1/2+x,1/2+y,z
4 1/2-x,1/2+y,1/2-z
5 -x,-y,-z
6 x,-y,1/2+z
7 1/2-x,1/2-y,-z
8 1/2+x,1/2-y,1/2+z
_cell_length_a                   28.535(10)
_cell_length_b                   10.212(2)
_cell_length_c                   19.015(6)
_cell_angle_alpha                90
_cell_angle_beta                 120.23(2)
_cell_angle_gamma                90
_cell_volume                     4787.45
loop_
_atom_site_label
_atom_site_type_symbol
_atom_site_fract_x
_atom_site_fract_y
_atom_site_fract_z
Sn1 Sn 0.6108(1) 0.5490(1) 0.2688(1)
Sn2 Sn 0.5000 0.4000(1) 0.2500
K1 K 0.7500 0.7500 0.5000
F1 F 0.5417(2) 0.4054(4) 0.1821(2)
F2 F 0.6671(2) 0.6760(4) 0.3477(2)
O1 O 0.7646(3) 0.4989(7) 0.5632(4)
O2 O 0.6692(3) 0.6364(7) 0.5189(4)
O3 O 0.6644(3) 0.9095(7) 0.4903(4)
C1 C 0.6521(5) 1.0082(12) 0.4319(7)
C2 C 0.7989(5) 0.4177(10) 0.5478(6)
C3 C 0.7153(6) 0.4383(10) 0.5391(6)
C4 C 0.6833(5) 0.5214(12) 0.5655(6)
C5 C 0.6345(5) 0.7200(13) 0.5301(6)
C6 C 0.6198(4) 0.8324(12) 0.4738(7)
C7 C 0.5679(3) 0.5129(8) 0.3310(4)
C8 C 0.5000 0.1908(10) 0.2500
C9 C 0.5118(3) 0.1221(9) 0.1988(5)
C10 C 0.5106(4) -0.0134(11) 0.1985(6)
C11 C 0.5000 -0.0782(14) 0.2500
C12 C 0.6686(3) 0.4098(8) 0.2780(4)
C13 C 0.6558(4) 0.2824(10) 0.2486(5)
C14 C 0.6952(5) 0.1993(12) 0.2526(6)
C15 C 0.7460(5) 0.2391(13) 0.2816(7)
C16 C 0.7600(4) 0.3615(13) 0.3120(7)
C17 C 0.7219(3) 0.4479(9) 0.3108(5)
C18 C 0.5825(3) 0.6767(8) 0.1666(5)
C19 C 0.5418(4) 0.6422(9) 0.0895(5)
C20 C 0.5272(4) 0.7248(11) 0.0240(6)
C21 C 0.5520(4) 0.8418(11) 0.0347(6)
C22 C 0.5913(4) 0.8788(10) 0.1088(7)
C23 C 0.6068(3) 0.7973(10) 0.1750(5)
F1A F 0.4583(2) 0.4054(4) 0.3179(2)
Sn1A Sn 0.3892(1) 0.5490(1) 0.2312(1)
F2A F 0.3329(2) 0.6760(4) 0.1523(2)
K1A K 0.2500 0.7500 0.0000
C7A C 0.4321(3) 0.5129(8) 0.1690(4)
C12A C 0.3314(3) 0.4098(8) 0.2220(4)
C13A C 0.3442(4) 0.2824(10) 0.2514(5)
C14A C 0.3048(5) 0.1993(12) 0.2474(6)
C15A C 0.2540(5) 0.2391(13) 0.2184(7)
C16A C 0.2400(4) 0.3615(13) 0.1880(7)
C17A C 0.2781(3) 0.4479(9) 0.1892(5)
C18A C 0.4175(3) 0.6767(8) 0.3334(5)
C19A C 0.4582(4) 0.6422(9) 0.4105(5)
C20A C 0.4728(4) 0.7248(11) 0.4760(6)
C21A C 0.4480(4) 0.8418(11) 0.4653(6)
C22A C 0.4087(4) 0.8788(10) 0.3912(7)
C23A C 0.3932(3) 0.7973(10) 0.3250(5)
F2F F 0.8329(2) 0.8240(4) 0.6523(2)
O1F O 0.7354(3) 1.0011(7) 0.4368(4)
C2F C 0.7011(5) 1.0823(10) 0.4522(6)
C3F C 0.7847(6) 1.0617(10) 0.4609(6)
C4F C 0.8167(5) 0.9786(12) 0.4345(6)
O2F O 0.8308(3) 0.8636(7) 0.4811(4)
C5F C 0.8655(5) 0.7800(13) 0.4699(6)
C6F C 0.8802(4) 0.6676(12) 0.5262(7)
O3F O 0.8356(3) 0.5905(7) 0.5097(4)
C1F C 0.8479(5) 0.4918(12) 0.5681(7)
C9A C 0.4882(3) 0.1221(9) 0.3012(5)
C10A C 0.4894(4) -0.0134(11) 0.3015(6)
loop_
_geom_bond_atom_site_label_1
_geom_bond_atom_site_label_2
_geom_bond_site_symmetry_1
_geom_bond_site_symmetry_2
Sn1 F1 1_555 1_555
Sn2 F1 1_555 1_555
K1 F2 1_555 1_555
F2 Sn1 1_555 1_555
O1 K1 1_555 1_555
O2 K1 1_555 1_555
O3 K1 1_555 1_555
C1 O3 1_555 1_555
C2 O1 1_555 1_555
C3 O1 1_555 1_555
C4 O2 1_555 1_555
C5 O2 1_555 1_555
C6 O3 1_555 1_555
C7 Sn1 1_555 1_555
C8 Sn2 1_555 1_555
C9 C8 1_555 1_555
C10 C9 1_555 1_555
C11 C10 1_555 1_555
C12 Sn1 1_555 1_555
C13 C12 1_555 1_555
C14 C13 1_555 1_555
C15 C14 1_555 1_555
C16 C15 1_555 1_555
C17 C12 1_555 1_555
C18 Sn1 1_555 1_555
C19 C18 1_555 1_555
C20 C19 1_555 1_555
C21 C20 1_555 1_555
C22 C21 1_555 1_555
C23 C18 1_555 1_555
F1A Sn2 1_555 1_555
Sn1A F1A 1_555 1_555
F2A Sn1A 1_555 1_555
K1A F2A 1_555 1_555
C7A Sn2 1_555 1_555
C12A Sn1A 1_555 1_555
C13A C12A 1_555 1_555
C14A C13A 1_555 1_555
C15A C14A 1_555 1_555
C16A C15A 1_555 1_555
C17A C12A 1_555 1_555
C18A Sn1A 1_555 1_555
C19A C18A 1_555 1_555
C20A C19A 1_555 1_555
C21A C20A 1_555 1_555
C22A C21A 1_555 1_555
C23A C18A 1_555 1_555
F2F K1 1_555 1_555
O1F K1 1_555 1_555
C2F C1 1_555 1_555
C3F O1F 1_555 1_555
C4F C3F 1_555 1_555
O2F K1 1_555 1_555
C5F O2F 1_555 1_555
C6F C5F 1_555 1_555
O3F K1 1_555 1_555
C1F C2 1_555 1_555
C9A C8 1_555 1_555
C10A C11 1_555 1_555
Sn2 C7 1_555 1_555
C3 C4 1_555 1_555
C5 C6 1_555 1_555
C16 C17 1_555 1_555
C22 C23 1_555 1_555
Sn1A C7A 1_555 1_555
C16A C17A 1_555 1_555
C22A C23A 1_555 1_555
O1F C2F 1_555 1_555
C4F O2F 1_555 1_555
C6F O3F 1_555 1_555
O3F C1F 1_555 1_555
C9A C10A 1_555 1_555

#END
