
#######################################################################
#
#                 Cambridge Crystallographic Data Centre
#                                CCDC 
#
#######################################################################
#
# If this CIF has been generated from an entry in the Cambridge 
# Structural Database, then it will include bibliographic, chemical, 
# crystal, experimental, refinement or atomic coordinate data resulting 
# from the CCDC's data processing and validation procedures.
#
#######################################################################

data_PAYQIQ02
_symmetry_cell_setting           monoclinic
_symmetry_space_group_name_H-M   'P 21/c'
_symmetry_Int_Tables_number      14
_space_group_name_Hall           '-P 2ybc'
loop_
_symmetry_equiv_pos_site_id
_symmetry_equiv_pos_as_xyz
1 x,y,z
2 -x,1/2+y,1/2-z
3 -x,-y,-z
4 x,1/2-y,1/2+z
_cell_length_a                   11.0145(14)
_cell_length_b                   15.872(2)
_cell_length_c                   8.4443(11)
_cell_angle_alpha                90
_cell_angle_beta                 109.085(3)
_cell_angle_gamma                90
_cell_volume                     1395.11
loop_
_atom_site_label
_atom_site_type_symbol
_atom_site_fract_x
_atom_site_fract_y
_atom_site_fract_z
Fe1 Fe 0.82918(7) 0.11328(5) 0.95117(9)
P1 P 0.93270(13) 0.21491(9) 0.68300(17)
P2 P 0.85627(12) -0.08373(9) 0.87187(18)
O1 O 1.0012(4) 0.1602(2) 0.5820(5)
O2 O 0.8569(3) 0.1532(2) 0.7515(4)
O3 O 1.0379(3) 0.2558(2) 0.8286(4)
O4 O 0.8465(3) 0.2765(2) 0.5641(4)
O5 O 0.8208(4) -0.1330(3) 1.0088(6)
O6 O 0.7999(4) -0.1338(3) 0.7064(5)
O7 O 0.7874(3) -0.0016(2) 0.8478(4)
O8 O 1.0000(3) -0.0799(2) 0.9148(4)
N1 N 0.6274(4) 0.1413(3) 0.8466(6)
N2 N 0.7488(4) 0.0715(3) 1.1397(6)
C1 C 0.5713(6) 0.1713(4) 0.6951(8)
H1 H 0.6222 0.1845 0.6298
C2 C 0.4406(7) 0.1841(4) 0.6284(10)
H2 H 0.4040 0.2052 0.5205
C3 C 0.3663(7) 0.1649(5) 0.7253(12)
H3 H 0.2778 0.1728 0.6838
C4 C 0.4229(6) 0.1338(5) 0.8841(11)
H4 H 0.3729 0.1207 0.9506
C5 C 0.5543(5) 0.1221(4) 0.9451(8)
C6 C 0.6239(6) 0.0887(4) 1.1099(8)
C7 C 0.5687(7) 0.0740(5) 1.2352(11)
H5 H 0.4821 0.0851 1.2151
C8 C 0.6424(10) 0.0435(5) 1.3859(11)
H6 H 0.6062 0.0350 1.4698
C9 C 0.7679(9) 0.0253(5) 1.4159(9)
H7 H 0.8188 0.0036 1.5184
C10 C 0.8173(6) 0.0403(4) 1.2872(8)
H8 H 0.9033 0.0279 1.3055
H9 H 1.0009 0.1832 0.4779
H10 H 0.8757 -0.1803 1.0717
H11 H 0.8642 -0.1854 0.6833
Fe1C Fe 0.82918(7) 0.38672(5) 0.45117(9)
Fe1B Fe 1.17082(7) -0.11328(5) 1.04883(9)
O4C O 0.8465(3) 0.2235(2) 1.0641(4)
O8B O 1.0000(3) 0.0799(2) 1.0852(4)
loop_
_geom_bond_atom_site_label_1
_geom_bond_atom_site_label_2
_geom_bond_site_symmetry_1
_geom_bond_site_symmetry_2
Fe1 O2 1_555 1_555
P1 O1 1_555 1_555
P2 O5 1_555 1_555
O1 H9 1_555 1_555
O2 P1 1_555 1_555
O3 P1 1_555 1_555
O4 P1 1_555 1_555
O5 H10 1_555 1_555
O6 P2 1_555 1_555
O7 Fe1 1_555 1_555
O8 P2 1_555 1_555
N1 Fe1 1_555 1_555
N2 Fe1 1_555 1_555
C1 N1 1_555 1_555
H1 C1 1_555 1_555
C2 C1 1_555 1_555
H2 C2 1_555 1_555
C3 C2 1_555 1_555
H3 C3 1_555 1_555
C4 C3 1_555 1_555
H4 C4 1_555 1_555
C5 N1 1_555 1_555
C6 N2 1_555 1_555
C7 C6 1_555 1_555
H5 C7 1_555 1_555
C8 C7 1_555 1_555
H6 C8 1_555 1_555
C9 C8 1_555 1_555
H7 C9 1_555 1_555
C10 N2 1_555 1_555
H8 C10 1_555 1_555
H11 O6 1_555 1_555
Fe1C O4 1_555 1_555
Fe1B O8 1_555 1_555
O4C Fe1 1_555 1_555
O8B Fe1 1_555 1_555
P2 O7 1_555 1_555
C4 C5 1_555 1_555
C5 C6 1_555 1_555
C9 C10 1_555 1_555

#END
