
#######################################################################
#
#                 Cambridge Crystallographic Data Centre
#                                CCDC 
#
#######################################################################
#
# If this CIF has been generated from an entry in the Cambridge 
# Structural Database, then it will include bibliographic, chemical, 
# crystal, experimental, refinement or atomic coordinate data resulting 
# from the CCDC's data processing and validation procedures.
#
#######################################################################

data_PAYQIQ01
_symmetry_cell_setting           monoclinic
_symmetry_space_group_name_H-M   'P 21/n'
_symmetry_Int_Tables_number      14
_space_group_name_Hall           '-P 2yn'
loop_
_symmetry_equiv_pos_site_id
_symmetry_equiv_pos_as_xyz
1 x,y,z
2 1/2-x,1/2+y,1/2-z
3 -x,-y,-z
4 1/2+x,1/2-y,1/2+z
_cell_length_a                   10.9036(18)
_cell_length_b                   6.4226(11)
_cell_length_c                   19.314(3)
_cell_angle_alpha                90
_cell_angle_beta                 101.161(3)
_cell_angle_gamma                90
_cell_volume                     1326.97
loop_
_atom_site_label
_atom_site_type_symbol
_atom_site_fract_x
_atom_site_fract_y
_atom_site_fract_z
Fe1 Fe 0.36532(6) 0.25056(9) 0.03559(3)
P1 P 0.57800(10) 0.24553(18) -0.06173(5)
P2 P 0.63098(11) 0.29980(19) 0.15964(6)
O1 O 0.5609(3) 0.2755(5) -0.14388(16)
O2 O 0.4487(3) 0.2282(5) -0.04361(16)
O3 O 0.6492(3) 0.4328(5) -0.02333(15)
O4 O 0.6579(3) 0.0527(4) -0.04411(16)
O5 O 0.6355(3) 0.4937(5) 0.20377(17)
O6 O 0.6640(3) 0.1034(5) 0.20582(18)
O7 O 0.5031(3) 0.2650(5) 0.11483(16)
O8 O 0.7302(3) 0.3084(6) 0.11101(17)
N1 N 0.1845(3) 0.2420(6) -0.03322(18)
N2 N 0.2310(4) 0.2862(5) 0.10524(19)
C1 C 0.1659(5) 0.2106(7) -0.1039(2)
H1 H 0.2353 0.2015 -0.1252
C2 C 0.0494(5) 0.1918(8) -0.1454(3)
H2 H 0.0405 0.1722 -0.1938
C3 C -0.0534(5) 0.2021(8) -0.1149(3)
H3 H -0.1332 0.1883 -0.1423
C4 C -0.0376(4) 0.2334(7) -0.0423(3)
H4 H -0.1064 0.2415 -0.0205
C5 C 0.0827(4) 0.2524(7) -0.0032(2)
C6 C 0.1093(4) 0.2801(7) 0.0750(2)
C7 C 0.0165(5) 0.2956(8) 0.1141(3)
H5 H -0.0671 0.2920 0.0919
C8 C 0.0485(5) 0.3166(8) 0.1865(3)
H6 H -0.0128 0.3267 0.2138
C9 C 0.1726(5) 0.3221(9) 0.2173(3)
H7 H 0.1968 0.3356 0.2659
C10 C 0.2617(5) 0.3076(8) 0.1752(3)
H8 H 0.3458 0.3128 0.1965
H9 H 0.4933 0.3456 -0.1677
H10 H 0.7367 0.0485 0.2393
H11 H 0.7164 0.3784 0.0658
Fe1B Fe 0.63468(6) 0.74944(9) -0.03559(3)
Fe1B_2 Fe 0.63468(6) -0.25056(9) -0.03559(3)
O3B O 0.3508(3) 0.5672(5) 0.02333(15)
O4B O 0.3421(3) -0.0527(4) 0.04411(16)
loop_
_geom_bond_atom_site_label_1
_geom_bond_atom_site_label_2
_geom_bond_site_symmetry_1
_geom_bond_site_symmetry_2
Fe1 O2 1_555 1_555
P1 O1 1_555 1_555
P2 O5 1_555 1_555
O1 H9 1_555 1_555
O2 P1 1_555 1_555
O3 P1 1_555 1_555
O4 P1 1_555 1_555
O6 P2 1_555 1_555
O7 Fe1 1_555 1_555
O8 P2 1_555 1_555
N1 Fe1 1_555 1_555
N2 Fe1 1_555 1_555
C1 N1 1_555 1_555
H1 C1 1_555 1_555
C2 C1 1_555 1_555
H2 C2 1_555 1_555
C3 C2 1_555 1_555
H3 C3 1_555 1_555
C4 C3 1_555 1_555
H4 C4 1_555 1_555
C5 N1 1_555 1_555
C6 N2 1_555 1_555
C7 C6 1_555 1_555
H5 C7 1_555 1_555
C8 C7 1_555 1_555
H6 C8 1_555 1_555
C9 C8 1_555 1_555
H7 C9 1_555 1_555
C10 N2 1_555 1_555
H8 C10 1_555 1_555
H10 O6 1_555 1_555
H11 O8 1_555 1_555
Fe1B O3 1_555 1_555
Fe1B_2 O4 1_555 1_555
O3B Fe1 1_555 1_555
O4B Fe1 1_555 1_555
P2 O7 1_555 1_555
C4 C5 1_555 1_555
C5 C6 1_555 1_555
C9 C10 1_555 1_555

#END
