
#######################################################################
#
#                 Cambridge Crystallographic Data Centre
#                                CCDC 
#
#######################################################################
#
# If this CIF has been generated from an entry in the Cambridge 
# Structural Database, then it will include bibliographic, chemical, 
# crystal, experimental, refinement or atomic coordinate data resulting 
# from the CCDC's data processing and validation procedures.
#
#######################################################################

data_PAYQIQ
_symmetry_cell_setting           monoclinic
_symmetry_space_group_name_H-M   'P 21/n'
_symmetry_Int_Tables_number      14
_space_group_name_Hall           '-P 2yn'
loop_
_symmetry_equiv_pos_site_id
_symmetry_equiv_pos_as_xyz
1 x,y,z
2 1/2-x,1/2+y,1/2-z
3 -x,-y,-z
4 1/2+x,1/2-y,1/2+z
_cell_length_a                   10.904(4)
_cell_length_b                   6.4210(19)
_cell_length_c                   19.294(9)
_cell_angle_alpha                90
_cell_angle_beta                 101.24(4)
_cell_angle_gamma                90
_cell_volume                     1324.95
loop_
_atom_site_label
_atom_site_type_symbol
_atom_site_fract_x
_atom_site_fract_y
_atom_site_fract_z
Fe1 Fe 0.36545(4) 0.75056(7) 0.03566(2)
P1 P 0.57800(7) 0.74542(13) -0.06180(4)
P2 P 0.63111(9) 0.80009(13) 0.15961(5)
O1 O 0.44900(19) 0.7275(3) -0.04354(11)
O2 O 0.50316(19) 0.7651(3) 0.11517(11)
O3 O 0.6579(2) 0.5523(3) -0.04399(12)
O4 O 0.6490(2) 0.9332(3) -0.02330(11)
O5 O 0.5610(2) 0.7750(3) -0.14369(11)
H1 H 0.5182 0.8785 -0.1558
O6 O 0.6357(2) 0.9942(4) 0.20349(13)
O7 O 0.7303(2) 0.8080(4) 0.11085(13)
H2 H 0.7140 0.9049 0.0829
O8 O 0.6630(2) 0.6023(4) 0.20593(13)
H3 H 0.7326 0.6150 0.2308
N1 N 0.2307(2) 0.7858(4) 0.10541(13)
N2 N 0.1841(2) 0.7422(4) -0.03349(13)
C1 C 0.2619(3) 0.8069(5) 0.17593(18)
H4 H 0.3460 0.8106 0.1974
C2 C 0.1727(4) 0.8234(6) 0.21739(19)
H5 H 0.1969 0.8375 0.2661
C3 C 0.0482(4) 0.8188(6) 0.1868(2)
H6 H -0.0130 0.8300 0.2141
C4 C 0.0163(3) 0.7972(5) 0.11428(19)
H7 H -0.0674 0.7934 0.0920
C5 C 0.1093(3) 0.7810(4) 0.07478(17)
C6 C 0.0829(3) 0.7519(5) -0.00282(16)
C7 C -0.0367(3) 0.7328(5) -0.04186(19)
H8 H -0.1054 0.7414 -0.0201
C8 C -0.0528(4) 0.7005(6) -0.1141(2)
H9 H -0.1329 0.6859 -0.1412
C9 C 0.0499(4) 0.6900(6) -0.14571(19)
H10 H 0.0404 0.6689 -0.1941
C10 C 0.1678(3) 0.7116(5) -0.10360(17)
H11 H 0.2376 0.7047 -0.1245
Fe1B Fe 0.63455(4) 0.24944(7) -0.03566(2)
Fe1B_2 Fe 0.63455(4) 1.24944(7) -0.03566(2)
O3B O 0.3421(2) 0.4477(3) 0.04399(12)
O4B O 0.3510(2) 1.0668(3) 0.02330(11)
loop_
_geom_bond_atom_site_label_1
_geom_bond_atom_site_label_2
_geom_bond_site_symmetry_1
_geom_bond_site_symmetry_2
Fe1 O1 1_555 1_555
P1 O1 1_555 1_555
P2 O2 1_555 1_555
O2 Fe1 1_555 1_555
O3 P1 1_555 1_555
O4 P1 1_555 1_555
O5 P1 1_555 1_555
H1 O5 1_555 1_555
O6 P2 1_555 1_555
O7 P2 1_555 1_555
H2 O7 1_555 1_555
O8 P2 1_555 1_555
H3 O8 1_555 1_555
N1 Fe1 1_555 1_555
N2 Fe1 1_555 1_555
C1 N1 1_555 1_555
H4 C1 1_555 1_555
C2 C1 1_555 1_555
H5 C2 1_555 1_555
C3 C2 1_555 1_555
H6 C3 1_555 1_555
C4 C3 1_555 1_555
H7 C4 1_555 1_555
C5 N1 1_555 1_555
C6 N2 1_555 1_555
C7 C6 1_555 1_555
H8 C7 1_555 1_555
C8 C7 1_555 1_555
H9 C8 1_555 1_555
C9 C8 1_555 1_555
H10 C9 1_555 1_555
C10 N2 1_555 1_555
H11 C10 1_555 1_555
Fe1B O3 1_555 1_555
Fe1B_2 O4 1_555 1_555
O3B Fe1 1_555 1_555
O4B Fe1 1_555 1_555
C4 C5 1_555 1_555
C5 C6 1_555 1_555
C9 C10 1_555 1_555

#END
