
#######################################################################
#
#                 Cambridge Crystallographic Data Centre
#                                CCDC 
#
#######################################################################
#
# If this CIF has been generated from an entry in the Cambridge 
# Structural Database, then it will include bibliographic, chemical, 
# crystal, experimental, refinement or atomic coordinate data resulting 
# from the CCDC's data processing and validation procedures.
#
#######################################################################

data_PAYWUI
_symmetry_cell_setting           monoclinic
_symmetry_space_group_name_H-M   'C 2/c'
_symmetry_Int_Tables_number      15
_space_group_name_Hall           '-C 2yn'
loop_
_symmetry_equiv_pos_site_id
_symmetry_equiv_pos_as_xyz
1 x,y,z
2 1/2+x,1/2+y,z
3 -x,y,1/2-z
4 1/2-x,1/2+y,1/2-z
5 -x,-y,-z
6 1/2-x,1/2-y,-z
7 x,-y,1/2+z
8 1/2+x,1/2-y,1/2+z
_cell_length_a                   24.3862(6)
_cell_length_b                   12.0792(3)
_cell_length_c                   22.9120(5)
_cell_angle_alpha                90
_cell_angle_beta                 115.1600(10)
_cell_angle_gamma                90
_cell_volume                     6108.77
loop_
_atom_site_label
_atom_site_type_symbol
_atom_site_fract_x
_atom_site_fract_y
_atom_site_fract_z
Eu1 Eu 0.036120(17) 0.67241(3) 0.399278(18)
O1 O 0.0775(3) 0.5822(5) 0.5027(3)
O2 O 0.1241(3) 0.5406(5) 0.4432(3)
O3 O 0.0569(3) 0.4017(5) 0.6046(3)
O4 O 0.0104(3) 0.5028(5) 0.6491(3)
O5 O -0.0470(3) 0.7307(5) 0.2892(3)
O6 O 0.0120(3) 0.8591(5) 0.3517(3)
O7 O 0.0873(3) 0.6590(6) 0.3297(3)
H1 H 0.1199 0.6912 0.3463
H2 H 0.1099 0.6051 0.3402
N1 N 0.1214(3) 0.8052(6) 0.4660(4)
N2 N 0.0163(3) 0.7895(6) 0.4821(3)
C1 C 0.1708(4) 0.8162(8) 0.4562(5)
H3 H 0.1745 0.7737 0.4242
C2 C 0.2177(4) 0.8890(9) 0.4919(6)
H4 H 0.2517 0.8947 0.4836
C3 C 0.2128(5) 0.9506(9) 0.5383(5)
H5 H 0.2441 0.9982 0.5630
C4 C 0.1605(4) 0.9432(8) 0.5497(5)
C5 C 0.1518(5) 1.0072(8) 0.5971(5)
H6 H 0.1820 1.0557 0.6228
C6 C 0.1002(5) 0.9988(8) 0.6054(5)
H7 H 0.0953 1.0424 0.6364
C7 C 0.0539(5) 0.9250(7) 0.5680(4)
C8 C -0.0004(5) 0.9139(8) 0.5762(5)
H8 H -0.0069 0.9566 0.6065
C9 C -0.0428(5) 0.8393(8) 0.5388(5)
H9 H -0.0780 0.8286 0.5444
C10 C -0.0331(4) 0.7790(8) 0.4919(5)
H10 H -0.0628 0.7293 0.4665
C11 C 0.0603(4) 0.8603(7) 0.5205(4)
C12 C 0.1151(4) 0.8695(7) 0.5112(4)
C13 C 0.1173(4) 0.5291(7) 0.4941(4)
C14 C 0.1564(4) 0.4486(7) 0.5449(4)
C15 C 0.1801(4) 0.3591(8) 0.5256(6)
H11 H 0.1738 0.3530 0.4827
C16 C 0.2130(5) 0.2790(8) 0.5693(6)
H12 H 0.2282 0.2183 0.5560
C17 C 0.2230(4) 0.2899(8) 0.6330(6)
H13 H 0.2454 0.2364 0.6628
C18 C 0.2002(4) 0.3783(8) 0.6529(5)
H14 H 0.2071 0.3841 0.6959
C19 C 0.1670(3) 0.4595(6) 0.6093(4)
C20 C 0.0542(4) 0.4887(7) 0.6333(4)
C21 C 0.1017(4) 0.5755(6) 0.6496(4)
C22 C 0.0945(5) 0.6723(8) 0.6769(4)
H15 H 0.0607 0.6816 0.6853
C23 C 0.1380(6) 0.7582(8) 0.6925(5)
H16 H 0.1337 0.8226 0.7124
C24 C 0.1861(5) 0.7450(9) 0.6779(5)
H17 H 0.2149 0.8010 0.6876
C25 C 0.1924(5) 0.6506(8) 0.6494(5)
H18 H 0.2250 0.6444 0.6386
C26 C 0.1518(4) 0.5623(7) 0.6356(4)
C27 C -0.0310(4) 0.8309(6) 0.2997(4)
C28 C -0.0641(4) 0.9181(7) 0.2506(4)
C29 C -0.1270(4) 0.9162(8) 0.2203(5)
H19 H -0.1478 0.8575 0.2278
C30 C -0.1586(4) 0.9996(8) 0.1795(5)
H20 H -0.2007 0.9979 0.1601
C31 C -0.1283(5) 1.0865(8) 0.1669(5)
H21 H -0.1498 1.1434 0.1393
C32 C -0.0671(4) 1.0879(8) 0.1951(5)
H22 H -0.0469 1.1463 0.1864
C33 C -0.0336(4) 1.0044(7) 0.2367(4)
Eu1D Eu -0.036120(17) 0.32759(3) 0.600722(18)
Eu1B Eu -0.036120(17) 0.67241(3) 0.100722(18)
O1D O -0.0775(3) 0.4178(5) 0.4973(3)
O2D O -0.1241(3) 0.4594(5) 0.5568(3)
O3D O -0.0569(3) 0.5983(5) 0.3954(3)
O4D O -0.0104(3) 0.4972(5) 0.3509(3)
O5B O 0.0470(3) 0.7307(5) 0.2108(3)
O5D O 0.0470(3) 0.2693(5) 0.7108(3)
O6B O -0.0120(3) 0.8591(5) 0.1483(3)
O6D O -0.0120(3) 0.1409(5) 0.6483(3)
O7D O -0.0873(3) 0.3410(6) 0.6703(3)
H1D H -0.1199 0.3088 0.6537
H2D H -0.1099 0.3949 0.6598
N1D N -0.1214(3) 0.1948(6) 0.5340(4)
N2D N -0.0163(3) 0.2105(6) 0.5179(3)
C1D C -0.1708(4) 0.1838(8) 0.5438(5)
H3D H -0.1745 0.2263 0.5758
C2D C -0.2177(4) 0.1110(9) 0.5081(6)
H4D H -0.2517 0.1053 0.5164
C3D C -0.2128(5) 0.0494(9) 0.4617(5)
H5D H -0.2441 0.0018 0.4370
C4D C -0.1605(4) 0.0568(8) 0.4503(5)
C5D C -0.1518(5) -0.0072(8) 0.4029(5)
H6D H -0.1820 -0.0557 0.3772
C6D C -0.1002(5) 0.0012(8) 0.3946(5)
H7D H -0.0953 -0.0424 0.3636
C7D C -0.0539(5) 0.0750(7) 0.4320(4)
C8D C 0.0004(5) 0.0861(8) 0.4238(5)
H8D H 0.0069 0.0434 0.3935
C9D C 0.0428(5) 0.1607(8) 0.4612(5)
H9D H 0.0780 0.1714 0.4556
C10D C 0.0331(4) 0.2210(8) 0.5081(5)
H10D H 0.0628 0.2707 0.5335
C11D C -0.0603(4) 0.1397(7) 0.4795(4)
C12D C -0.1151(4) 0.1305(7) 0.4888(4)
C13D C -0.1173(4) 0.4709(7) 0.5059(4)
C14D C -0.1564(4) 0.5514(7) 0.4551(4)
C15D C -0.1801(4) 0.6409(8) 0.4744(6)
H11D H -0.1738 0.6470 0.5173
C16D C -0.2130(5) 0.7210(8) 0.4307(6)
H12D H -0.2282 0.7817 0.4440
C17D C -0.2230(4) 0.7101(8) 0.3670(6)
H13D H -0.2454 0.7636 0.3372
C18D C -0.2002(4) 0.6217(8) 0.3471(5)
H14D H -0.2071 0.6159 0.3041
C19D C -0.1670(3) 0.5405(6) 0.3907(4)
C20D C -0.0542(4) 0.5113(7) 0.3667(4)
C21D C -0.1017(4) 0.4245(6) 0.3504(4)
C22D C -0.0945(5) 0.3277(8) 0.3231(4)
H15D H -0.0607 0.3184 0.3147
C23D C -0.1380(6) 0.2418(8) 0.3075(5)
H16D H -0.1337 0.1774 0.2876
C24D C -0.1861(5) 0.2550(9) 0.3221(5)
H17D H -0.2149 0.1990 0.3124
C25D C -0.1924(5) 0.3494(8) 0.3506(5)
H18D H -0.2250 0.3556 0.3614
C26D C -0.1518(4) 0.4377(7) 0.3644(4)
C27B C 0.0310(4) 0.8309(6) 0.2003(4)
C28B C 0.0641(4) 0.9181(7) 0.2494(4)
C29B C 0.1270(4) 0.9162(8) 0.2797(5)
H19B H 0.1478 0.8575 0.2722
C30B C 0.1586(4) 0.9996(8) 0.3205(5)
H20B H 0.2007 0.9979 0.3399
C31B C 0.1283(5) 1.0865(8) 0.3331(5)
H21B H 0.1498 1.1434 0.3607
C32B C 0.0671(4) 1.0879(8) 0.3049(5)
H22B H 0.0469 1.1463 0.3136
C33B C 0.0336(4) 1.0044(7) 0.2633(4)
O8 O 1.0000 0.3898(11) 0.2500
H23 H 0.997(9) 0.422(16) 0.213(9)
H23B H 1.003(9) 0.422(16) 0.287(9)
loop_
_geom_bond_atom_site_label_1
_geom_bond_atom_site_label_2
_geom_bond_site_symmetry_1
_geom_bond_site_symmetry_2
Eu1 O1 1_555 1_555
O1 C13 1_555 1_555
O2 Eu1 1_555 1_555
O3 C20 1_555 1_555
O4 C20 1_555 1_555
O5 Eu1 1_555 1_555
O6 Eu1 1_555 1_555
O7 Eu1 1_555 1_555
H1 O7 1_555 1_555
H2 O7 1_555 1_555
N1 Eu1 1_555 1_555
N2 Eu1 1_555 1_555
C1 N1 1_555 1_555
H3 C1 1_555 1_555
C2 C1 1_555 1_555
H4 C2 1_555 1_555
C3 C2 1_555 1_555
H5 C3 1_555 1_555
C4 C3 1_555 1_555
C5 C4 1_555 1_555
H6 C5 1_555 1_555
C6 C5 1_555 1_555
H7 C6 1_555 1_555
C7 C6 1_555 1_555
C8 C7 1_555 1_555
H8 C8 1_555 1_555
C9 C8 1_555 1_555
H9 C9 1_555 1_555
C10 N2 1_555 1_555
H10 C10 1_555 1_555
C11 N2 1_555 1_555
C12 N1 1_555 1_555
C13 O2 1_555 1_555
C14 C13 1_555 1_555
C15 C14 1_555 1_555
H11 C15 1_555 1_555
C16 C15 1_555 1_555
H12 C16 1_555 1_555
C17 C16 1_555 1_555
H13 C17 1_555 1_555
C18 C17 1_555 1_555
H14 C18 1_555 1_555
C19 C14 1_555 1_555
C20 C21 1_555 1_555
C21 C22 1_555 1_555
C22 H15 1_555 1_555
C23 C22 1_555 1_555
H16 C23 1_555 1_555
C24 C23 1_555 1_555
H17 C24 1_555 1_555
C25 C24 1_555 1_555
H18 C25 1_555 1_555
C26 C19 1_555 1_555
C27 O5 1_555 1_555
C28 C27 1_555 1_555
C29 C28 1_555 1_555
H19 C29 1_555 1_555
C30 C29 1_555 1_555
H20 C30 1_555 1_555
C31 C30 1_555 1_555
H21 C31 1_555 1_555
C32 C31 1_555 1_555
H22 C32 1_555 1_555
C33 C28 1_555 1_555
O8 H23 1_555 1_555
Eu1D O3 1_555 1_555
Eu1B O5B 1_555 1_555
O1D Eu1D 1_555 1_555
O2D Eu1D 1_555 1_555
O3D Eu1 1_555 1_555
O4D Eu1 1_555 1_555
O5B C27B 1_555 1_555
O5D Eu1D 1_555 1_555
O6B Eu1B 1_555 1_555
O6D Eu1D 1_555 1_555
O7D Eu1D 1_555 1_555
H1D O7D 1_555 1_555
H2D O7D 1_555 1_555
N1D Eu1D 1_555 1_555
N2D Eu1D 1_555 1_555
C1D N1D 1_555 1_555
H3D C1D 1_555 1_555
C2D C1D 1_555 1_555
H4D C2D 1_555 1_555
C3D C2D 1_555 1_555
H5D C3D 1_555 1_555
C4D C3D 1_555 1_555
C5D C4D 1_555 1_555
H6D C5D 1_555 1_555
C6D C5D 1_555 1_555
H7D C6D 1_555 1_555
C7D C6D 1_555 1_555
C8D C7D 1_555 1_555
H8D C8D 1_555 1_555
C9D C8D 1_555 1_555
H9D C9D 1_555 1_555
C10D N2D 1_555 1_555
H10D C10D 1_555 1_555
C11D N2D 1_555 1_555
C12D N1D 1_555 1_555
C13D O1D 1_555 1_555
C14D C13D 1_555 1_555
C15D C14D 1_555 1_555
H11D C15D 1_555 1_555
C16D C15D 1_555 1_555
H12D C16D 1_555 1_555
C17D C16D 1_555 1_555
H13D C17D 1_555 1_555
C18D C17D 1_555 1_555
H14D C18D 1_555 1_555
C19D C14D 1_555 1_555
C20D O3D 1_555 1_555
C21D C20D 1_555 1_555
C22D C21D 1_555 1_555
H15D C22D 1_555 1_555
C23D C22D 1_555 1_555
H16D C23D 1_555 1_555
C24D C23D 1_555 1_555
H17D C24D 1_555 1_555
C25D C24D 1_555 1_555
H18D C25D 1_555 1_555
C26D C19D 1_555 1_555
C27B O6B 1_555 1_555
C28B C27B 1_555 1_555
C29B C28B 1_555 1_555
H19B C29B 1_555 1_555
C30B C29B 1_555 1_555
H20B C30B 1_555 1_555
C31B C30B 1_555 1_555
H21B C31B 1_555 1_555
C32B C31B 1_555 1_555
H22B C32B 1_555 1_555
C33B C33 1_555 1_555
H23B O8 1_555 1_555
O4 Eu1D 1_555 1_555
O6 C27 1_555 1_555
C4 C12 1_555 1_555
C7 C11 1_555 1_555
C9 C10 1_555 1_555
C11 C12 1_555 1_555
C18 C19 1_555 1_555
C21 C26 1_555 1_555
C25 C26 1_555 1_555
C32 C33 1_555 1_555
O2D C13D 1_555 1_555
O4D C20D 1_555 1_555
C4D C12D 1_555 1_555
C7D C11D 1_555 1_555
C9D C10D 1_555 1_555
C11D C12D 1_555 1_555
C18D C19D 1_555 1_555
C21D C26D 1_555 1_555
C25D C26D 1_555 1_555
C28B C33B 1_555 1_555
C32B C33B 1_555 1_555

#END
