
#######################################################################
#
#                 Cambridge Crystallographic Data Centre
#                                CCDC 
#
#######################################################################
#
# If this CIF has been generated from an entry in the Cambridge 
# Structural Database, then it will include bibliographic, chemical, 
# crystal, experimental, refinement or atomic coordinate data resulting 
# from the CCDC's data processing and validation procedures.
#
#######################################################################

data_PAZHGN
_symmetry_cell_setting           orthorhombic
_symmetry_space_group_name_H-M   'C m c a'
_symmetry_Int_Tables_number      64
_space_group_name_Hall           '-C 2ac 2a'
loop_
_symmetry_equiv_pos_site_id
_symmetry_equiv_pos_as_xyz
1 x,y,z
2 1/2-x,-y,1/2+z
3 x,1/2-y,-z
4 1/2+x,1/2+y,z
5 -x,1/2-y,1/2+z
6 1/2+x,-y,-z
7 1/2-x,1/2+y,1/2-z
8 -x,y,1/2-z
9 -x,-y,-z
10 1/2+x,y,1/2-z
11 -x,1/2+y,z
12 1/2-x,1/2-y,-z
13 x,1/2+y,1/2-z
14 1/2-x,y,z
15 1/2+x,1/2-y,1/2+z
16 x,-y,1/2+z
_cell_length_a                   19.361(17)
_cell_length_b                   15.405(13)
_cell_length_c                   6.860(8)
_cell_angle_alpha                90
_cell_angle_beta                 90
_cell_angle_gamma                90
_cell_volume                     2046.04
loop_
_atom_site_label
_atom_site_type_symbol
_atom_site_fract_x
_atom_site_fract_y
_atom_site_fract_z
C1 C 0.21362(76) 0.0555(14) 0.1155(34)
C2 C 0.2170(11) 0.1969(17) 0.2495(25)
Hg1 Hg 0.06238(4) 0.12284(6) 0.20094(13)
N1 N 0.17905(84) 0.1249(11) 0.1827(25)
C1M C 0.28638(76) 0.0555(14) 0.1155(34)
N1M N 0.32095(84) 0.1249(11) 0.1827(25)
C2M C 0.2830(11) 0.1969(17) 0.2495(25)
Hg1M Hg 0.43762(4) 0.12284(6) 0.20094(13)
Hg1G Hg -0.06238(4) 0.12284(6) 0.29906(13)
Hg1I Hg 0.56238(4) 0.12284(6) 0.29906(13)
N2 N 0.1035(11) 0.3764(14) 0.2467(29)
O1 O 0.13067(98) 0.3707(11) 0.4031(28)
O2 O 0.0887(10) 0.3104(12) 0.1569(25)
O3 O 0.0920(10) 0.4500(11) 0.16984(23)
loop_
_geom_bond_atom_site_label_1
_geom_bond_atom_site_label_2
_geom_bond_site_symmetry_1
_geom_bond_site_symmetry_2
C1 N1 1_555 1_555
C2 N1 1_555 1_555
Hg1 N1 1_555 1_555
N2 O1 1_555 1_555
O2 N2 1_555 1_555
O3 N2 1_555 1_555
C1M C1 1_555 1_555
N1M C1M 1_555 1_555
C2M C2 1_555 1_555
Hg1M N1M 1_555 1_555
Hg1G Hg1 1_555 1_555
Hg1I Hg1M 1_555 1_555
N1M C2M 1_555 1_555

#END
