
#######################################################################
#
#                 Cambridge Crystallographic Data Centre
#                                CCDC 
#
#######################################################################
#
# If this CIF has been generated from an entry in the Cambridge 
# Structural Database, then it will include bibliographic, chemical, 
# crystal, experimental, refinement or atomic coordinate data resulting 
# from the CCDC's data processing and validation procedures.
#
#######################################################################

data_PAZSIT
_symmetry_cell_setting           triclinic
_symmetry_space_group_name_H-M   'P -1'
_symmetry_Int_Tables_number      2
_space_group_name_Hall           '-P 1'
loop_
_symmetry_equiv_pos_site_id
_symmetry_equiv_pos_as_xyz
1 x,y,z
2 -x,-y,-z
_cell_length_a                   10.864(4)
_cell_length_b                   11.559(5)
_cell_length_c                   12.902(5)
_cell_angle_alpha                101.470(5)
_cell_angle_beta                 110.695(5)
_cell_angle_gamma                99.415(5)
_cell_volume                     1436.24
loop_
_atom_site_label
_atom_site_type_symbol
_atom_site_fract_x
_atom_site_fract_y
_atom_site_fract_z
Pd1 Pd 0.0000 0.0000 1.0000
K1 K 0.52986(8) 0.28864(8) 0.75230(7)
N1 N 0.3474(4) 0.2918(3) 0.8605(4)
N2 N 0.4222(4) 0.4375(4) 1.1971(4)
O1 O 0.2825(3) 0.1439(2) 0.5614(2)
O2 O 0.4600(3) 0.3269(3) 0.5385(2)
O3 O 0.7108(3) 0.2749(3) 0.6411(3)
O4 O 0.8059(3) 0.3634(3) 0.8849(2)
O5 O 0.6521(3) 0.1809(3) 0.9324(3)
O6 O 0.4392(3) 0.0339(3) 0.7200(3)
S1 S 0.08400(10) 0.06017(9) 0.87298(9)
S2 S 0.15065(10) 0.16830(9) 1.14452(9)
C1 C 0.2374(4) 0.1785(4) 0.4562(3)
H1 H 0.2579 0.1253 0.3986
C2 C 0.0853(4) 0.1686(4) 0.4094(4)
H2 H 0.0568 0.1819 0.3334
H3 H 0.0373 0.0865 0.4011
C3 C 0.0459(4) 0.2584(5) 0.4853(4)
H4 H 0.0631 0.2388 0.5581
H5 H -0.0506 0.2522 0.4485
C4 C 0.1260(5) 0.3883(5) 0.5081(4)
H6 H 0.1021 0.4111 0.4364
H7 H 0.1030 0.4441 0.5609
C5 C 0.2777(4) 0.3980(4) 0.5597(4)
H8 H 0.3276 0.4805 0.5717
H9 H 0.3024 0.3812 0.6341
C6 C 0.3169(4) 0.3095(4) 0.4819(3)
H10 H 0.2976 0.3310 0.4090
C7 C 0.5239(4) 0.2709(5) 0.4727(4)
H11 H 0.4995 0.2914 0.3999
H12 H 0.4965 0.1828 0.4567
C8 C 0.6745(5) 0.3176(5) 0.5425(4)
H13 H 0.7232 0.2899 0.4963
H14 H 0.6994 0.4062 0.5654
C9 C 0.8486(4) 0.3249(5) 0.7155(4)
H15 H 0.8716 0.4126 0.7280
H16 H 0.9056 0.2910 0.6809
C10 C 0.8742(4) 0.2963(5) 0.8289(4)
H17 H 0.8400 0.2095 0.8162
H18 H 0.9711 0.3193 0.8763
C11 C 0.8337(4) 0.3607(4) 1.0019(4)
H19 H 0.9318 0.3928 1.0475
C12 C 0.7610(5) 0.4464(4) 1.0464(4)
H20 H 0.6647 0.4201 0.9970
H21 H 0.7959 0.5279 1.0434
C13 C 0.7795(5) 0.4500(4) 1.1691(4)
H22 H 0.7266 0.5014 1.1929
H23 H 0.8746 0.4853 1.2202
C14 C 0.7344(5) 0.3228(4) 1.1790(4)
H24 H 0.7525 0.3266 1.2589
H25 H 0.6372 0.2910 1.1344
C15 C 0.8087(5) 0.2380(4) 1.1354(4)
H26 H 0.7751 0.1566 1.1396
H27 H 0.9049 0.2656 1.1850
C16 C 0.7903(4) 0.2323(4) 1.0118(4)
H28 H 0.8472 0.1827 0.9903
C17 C 0.6198(5) 0.0505(4) 0.8945(5)
H29 H 0.6715 0.0259 0.8500
H30 H 0.6455 0.0186 0.9610
C18 C 0.4788(5) 0.0006(5) 0.8258(5)
H31 H 0.4270 0.0297 0.8685
H32 H 0.4581 -0.0876 0.8090
C19 C 0.2997(5) -0.0110(4) 0.6575(4)
H33 H 0.2519 0.0265 0.7002
H34 H 0.2742 -0.0985 0.6459
C20 C 0.2603(5) 0.0158(4) 0.5444(4)
H35 H 0.3139 -0.0153 0.5045
H36 H 0.1650 -0.0241 0.4972
C21 C 0.2889(4) 0.2498(4) 0.9068(4)
C22 C 0.2109(4) 0.1916(3) 0.9615(3)
C23 C 0.2392(4) 0.2380(3) 1.0742(3)
C24 C 0.3430(4) 0.3491(4) 1.1434(4)
K1A K -0.52986(8) -0.28864(8) 1.24770(7)
K1A_2 K 0.47014(8) 0.71136(8) 1.24770(7)
K1_2 K -0.47014(8) -0.71136(8) 0.75230(7)
N1A N -0.3474(4) -0.2918(3) 1.1395(4)
N2A N -0.4222(4) -0.4375(4) 0.8029(4)
N2A_2 N 0.5778(4) 0.5625(4) 0.8029(4)
N2_2 N -0.5778(4) -0.5625(4) 1.1971(4)
O1A O -0.2825(3) -0.1439(2) 1.4386(2)
O2A O -0.4600(3) -0.3269(3) 1.4615(2)
O3A O -0.7108(3) -0.2749(3) 1.3589(3)
O4A O -0.8059(3) -0.3634(3) 1.1151(2)
O5A O -0.6521(3) -0.1809(3) 1.0676(3)
O6A O -0.4392(3) -0.0339(3) 1.2800(3)
S1A S -0.08400(10) -0.06017(9) 1.12702(9)
S2A S -0.15065(10) -0.16830(9) 0.85548(9)
C1A C -0.2374(4) -0.1785(4) 1.5438(3)
H1A H -0.2579 -0.1253 1.6014
C2A C -0.0853(4) -0.1686(4) 1.5906(4)
H2A H -0.0568 -0.1819 1.6666
H3A H -0.0373 -0.0865 1.5989
C3A C -0.0459(4) -0.2584(5) 1.5147(4)
H4A H -0.0631 -0.2388 1.4419
H5A H 0.0506 -0.2522 1.5515
C4A C -0.1260(5) -0.3883(5) 1.4919(4)
H6A H -0.1021 -0.4111 1.5636
H7A H -0.1030 -0.4441 1.4391
C5A C -0.2777(4) -0.3980(4) 1.4403(4)
H8A H -0.3276 -0.4805 1.4283
H9A H -0.3024 -0.3812 1.3659
C6A C -0.3169(4) -0.3095(4) 1.5181(3)
H10A H -0.2976 -0.3310 1.5910
C7A C -0.5239(4) -0.2709(5) 1.5273(4)
H11A H -0.4995 -0.2914 1.6001
H12A H -0.4965 -0.1828 1.5433
C8A C -0.6745(5) -0.3176(5) 1.4575(4)
H13A H -0.7232 -0.2899 1.5037
H14A H -0.6994 -0.4062 1.4346
C9A C -0.8486(4) -0.3249(5) 1.2845(4)
H15A H -0.8716 -0.4126 1.2720
H16A H -0.9056 -0.2910 1.3191
C10A C -0.8742(4) -0.2963(5) 1.1711(4)
H17A H -0.8400 -0.2095 1.1838
H18A H -0.9711 -0.3193 1.1237
C11A C -0.8337(4) -0.3607(4) 0.9981(4)
H19A H -0.9318 -0.3928 0.9525
C12A C -0.7610(5) -0.4464(4) 0.9536(4)
H20A H -0.6647 -0.4201 1.0030
H21A H -0.7959 -0.5279 0.9566
C13A C -0.7795(5) -0.4500(4) 0.8309(4)
H22A H -0.7266 -0.5014 0.8071
H23A H -0.8746 -0.4853 0.7798
C14A C -0.7344(5) -0.3228(4) 0.8210(4)
H24A H -0.7525 -0.3266 0.7411
H25A H -0.6372 -0.2910 0.8656
C15A C -0.8087(5) -0.2380(4) 0.8646(4)
H26A H -0.7751 -0.1566 0.8604
H27A H -0.9049 -0.2656 0.8150
C16A C -0.7903(4) -0.2323(4) 0.9882(4)
H28A H -0.8472 -0.1827 1.0097
C17A C -0.6198(5) -0.0505(4) 1.1055(5)
H29A H -0.6715 -0.0259 1.1500
H30A H -0.6455 -0.0186 1.0390
C18A C -0.4788(5) -0.0006(5) 1.1742(5)
H31A H -0.4270 -0.0297 1.1315
H32A H -0.4581 0.0876 1.1910
C19A C -0.2997(5) 0.0110(4) 1.3425(4)
H33A H -0.2519 -0.0265 1.2998
H34A H -0.2742 0.0985 1.3541
C20A C -0.2603(5) -0.0158(4) 1.4556(4)
H35A H -0.3139 0.0153 1.4955
H36A H -0.1650 0.0241 1.5028
C21A C -0.2889(4) -0.2498(4) 1.0932(4)
C22A C -0.2109(4) -0.1916(3) 1.0385(3)
C23A C -0.2392(4) -0.2380(3) 0.9258(3)
C24A C -0.3430(4) -0.3491(4) 0.8566(4)
loop_
_geom_bond_atom_site_label_1
_geom_bond_atom_site_label_2
_geom_bond_site_symmetry_1
_geom_bond_site_symmetry_2
Pd1 S1 1_555 1_555
K1 N1 1_555 1_555
N1 C21 1_555 1_555
N2 C24 1_555 1_555
O1 K1 1_555 1_555
O2 K1 1_555 1_555
O3 K1 1_555 1_555
O4 K1 1_555 1_555
O5 K1 1_555 1_555
O6 K1 1_555 1_555
S1 C22 1_555 1_555
S2 Pd1 1_555 1_555
C1 O1 1_555 1_555
H1 C1 1_555 1_555
C2 C1 1_555 1_555
H2 C2 1_555 1_555
H3 C2 1_555 1_555
C3 C2 1_555 1_555
H4 C3 1_555 1_555
H5 C3 1_555 1_555
C4 C3 1_555 1_555
H6 C4 1_555 1_555
H7 C4 1_555 1_555
C5 C4 1_555 1_555
H8 C5 1_555 1_555
H9 C5 1_555 1_555
C6 O2 1_555 1_555
H10 C6 1_555 1_555
C7 O2 1_555 1_555
H11 C7 1_555 1_555
H12 C7 1_555 1_555
C8 O3 1_555 1_555
H13 C8 1_555 1_555
H14 C8 1_555 1_555
C9 O3 1_555 1_555
H15 C9 1_555 1_555
H16 C9 1_555 1_555
C10 O4 1_555 1_555
H17 C10 1_555 1_555
H18 C10 1_555 1_555
C11 O4 1_555 1_555
H19 C11 1_555 1_555
C12 C11 1_555 1_555
H20 C12 1_555 1_555
H21 C12 1_555 1_555
C13 C12 1_555 1_555
H22 C13 1_555 1_555
H23 C13 1_555 1_555
C14 C13 1_555 1_555
H24 C14 1_555 1_555
H25 C14 1_555 1_555
C15 C14 1_555 1_555
H26 C15 1_555 1_555
H27 C15 1_555 1_555
C16 O5 1_555 1_555
H28 C16 1_555 1_555
C17 O5 1_555 1_555
H29 C17 1_555 1_555
H30 C17 1_555 1_555
C18 O6 1_555 1_555
H31 C18 1_555 1_555
H32 C18 1_555 1_555
C19 O6 1_555 1_555
H33 C19 1_555 1_555
H34 C19 1_555 1_555
C20 O1 1_555 1_555
H35 C20 1_555 1_555
H36 C20 1_555 1_555
C21 C22 1_555 1_555
C22 C23 1_555 1_555
C23 S2 1_555 1_555
C24 C23 1_555 1_555
K1A N1A 1_555 1_555
K1A_2 N2 1_555 1_555
K1_2 N2A 1_555 1_555
N1A C21A 1_555 1_555
N2A C24A 1_555 1_555
N2A_2 K1 1_555 1_555
N2_2 K1A 1_555 1_555
O1A K1A 1_555 1_555
O2A K1A 1_555 1_555
O3A K1A 1_555 1_555
O4A K1A 1_555 1_555
O5A K1A 1_555 1_555
O6A K1A 1_555 1_555
S1A Pd1 1_555 1_555
S2A Pd1 1_555 1_555
C1A O1A 1_555 1_555
H1A C1A 1_555 1_555
C2A C1A 1_555 1_555
H2A C2A 1_555 1_555
H3A C2A 1_555 1_555
C3A C2A 1_555 1_555
H4A C3A 1_555 1_555
H5A C3A 1_555 1_555
C4A C3A 1_555 1_555
H6A C4A 1_555 1_555
H7A C4A 1_555 1_555
C5A C4A 1_555 1_555
H8A C5A 1_555 1_555
H9A C5A 1_555 1_555
C6A O2A 1_555 1_555
H10A C6A 1_555 1_555
C7A O2A 1_555 1_555
H11A C7A 1_555 1_555
H12A C7A 1_555 1_555
C8A O3A 1_555 1_555
H13A C8A 1_555 1_555
H14A C8A 1_555 1_555
C9A O3A 1_555 1_555
H15A C9A 1_555 1_555
H16A C9A 1_555 1_555
C10A O4A 1_555 1_555
H17A C10A 1_555 1_555
H18A C10A 1_555 1_555
C11A O4A 1_555 1_555
H19A C11A 1_555 1_555
C12A C11A 1_555 1_555
H20A C12A 1_555 1_555
H21A C12A 1_555 1_555
C13A C12A 1_555 1_555
H22A C13A 1_555 1_555
H23A C13A 1_555 1_555
C14A C13A 1_555 1_555
H24A C14A 1_555 1_555
H25A C14A 1_555 1_555
C15A C14A 1_555 1_555
H26A C15A 1_555 1_555
H27A C15A 1_555 1_555
C16A O5A 1_555 1_555
H28A C16A 1_555 1_555
C17A O5A 1_555 1_555
H29A C17A 1_555 1_555
H30A C17A 1_555 1_555
C18A O6A 1_555 1_555
H31A C18A 1_555 1_555
H32A C18A 1_555 1_555
C19A O6A 1_555 1_555
H33A C19A 1_555 1_555
H34A C19A 1_555 1_555
C20A O1A 1_555 1_555
H35A C20A 1_555 1_555
H36A C20A 1_555 1_555
C21A C22A 1_555 1_555
C22A S1A 1_555 1_555
C23A S2A 1_555 1_555
C24A C23A 1_555 1_555
C1 C6 1_555 1_555
C5 C6 1_555 1_555
C7 C8 1_555 1_555
C9 C10 1_555 1_555
C11 C16 1_555 1_555
C15 C16 1_555 1_555
C17 C18 1_555 1_555
C19 C20 1_555 1_555
C1A C6A 1_555 1_555
C5A C6A 1_555 1_555
C7A C8A 1_555 1_555
C9A C10A 1_555 1_555
C11A C16A 1_555 1_555
C15A C16A 1_555 1_555
C17A C18A 1_555 1_555
C19A C20A 1_555 1_555
C22A C23A 1_555 1_555

#END
