
#######################################################################
#
#                 Cambridge Crystallographic Data Centre
#                                CCDC 
#
#######################################################################
#
# If this CIF has been generated from an entry in the Cambridge 
# Structural Database, then it will include bibliographic, chemical, 
# crystal, experimental, refinement or atomic coordinate data resulting 
# from the CCDC's data processing and validation procedures.
#
#######################################################################

data_PAZSUF
_symmetry_cell_setting           orthorhombic
_symmetry_space_group_name_H-M   'P n m a'
_symmetry_Int_Tables_number      62
_space_group_name_Hall           '-P 2ac 2n'
loop_
_symmetry_equiv_pos_site_id
_symmetry_equiv_pos_as_xyz
1 x,y,z
2 1/2-x,-y,1/2+z
3 1/2+x,1/2-y,1/2-z
4 -x,1/2+y,-z
5 -x,-y,-z
6 1/2+x,y,1/2-z
7 1/2-x,1/2+y,1/2+z
8 x,1/2-y,z
_cell_length_a                   14.125(5)
_cell_length_b                   15.722(6)
_cell_length_c                   8.510(3)
_cell_angle_alpha                90
_cell_angle_beta                 90
_cell_angle_gamma                90
_cell_volume                     1889.84
loop_
_atom_site_label
_atom_site_type_symbol
_atom_site_fract_x
_atom_site_fract_y
_atom_site_fract_z
C1 C 0.4611(11) 0.2500 0.8732(19)
C2 C 0.5596(11) 0.2500 0.852(2)
H1 H 0.5982 0.2500 0.9405
C3 C 0.6007(11) 0.2500 0.710(2)
H2 H 0.6664 0.2500 0.7023
C4 C 0.5458(12) 0.2500 0.575(2)
C5 C 0.4483(12) 0.2500 0.592(2)
H3 H 0.4098 0.2500 0.5033
C6 C 0.4073(11) 0.2500 0.740(2)
H4 H 0.3417 0.2500 0.7488
N1 N 0.5880(13) 0.2500 0.434(2)
O1 O 0.3103(8) 0.2500 1.0449(15)
O2 O 0.4455(7) 0.3262(6) 1.1426(11)
S1 S 0.4116(3) 0.2500 1.0648(5)
H12 H 0.642(12) 0.2500 0.39(4)
H13 H 0.56(3) 0.2500 0.36(4)
O2G O 0.4455(7) 0.1738(6) 1.1426(11)
C7 C 0.2885(10) 0.0281(10) 0.942(2)
H5 H 0.2909 0.0825 0.9849
C8 C 0.3278(10) -0.0945(9) 0.8588(17)
H6 H 0.3642 -0.1417 0.8324
C9 C 0.2345(9) -0.0878(8) 0.8385(17)
H7 H 0.1942 -0.1287 0.7964
C10 C 0.1153(9) 0.0277(10) 0.897(2)
H8 H 0.0906 0.0312 0.7911
H9 H 0.1198 0.0852 0.9378
C11 C 0.0484(11) -0.0202(9) 0.9942(17)
H10 H 0.0745 -0.0259 1.0991
H11 H 0.0417 -0.0769 0.9507
N2 N 0.3619(8) -0.0213(9) 0.9244(16)
N3 N 0.2100(7) -0.0091(6) 0.8916(15)
Ag1 Ag 0.5000 0.0000 1.0000
C7D C -0.2885(10) -0.0281(10) 1.058(2)
H5D H -0.2909 -0.0825 1.0151
C8D C -0.3278(10) 0.0945(9) 1.1412(17)
H6D H -0.3642 0.1417 1.1676
C9D C -0.2345(9) 0.0878(8) 1.1615(17)
H7D H -0.1942 0.1287 1.2036
C10D C -0.1153(9) -0.0277(10) 1.103(2)
H8D H -0.0906 -0.0312 1.2089
H9D H -0.1198 -0.0852 1.0622
C11D C -0.0484(11) 0.0202(9) 1.0058(17)
H10D H -0.0745 0.0259 0.9009
H11D H -0.0417 0.0769 1.0493
N2D N -0.3619(8) 0.0213(9) 1.0756(16)
N2D_2 N 0.6381(8) 0.0213(9) 1.0756(16)
N3D N -0.2100(7) 0.0091(6) 1.1084(15)
Ag1_2 Ag -0.5000 0.0000 1.0000
loop_
_geom_bond_atom_site_label_1
_geom_bond_atom_site_label_2
_geom_bond_site_symmetry_1
_geom_bond_site_symmetry_2
C1 C2 1_555 1_555
C2 H1 1_555 1_555
C3 C2 1_555 1_555
H2 C3 1_555 1_555
C4 C3 1_555 1_555
C5 C4 1_555 1_555
H3 C5 1_555 1_555
C6 C1 1_555 1_555
H4 C6 1_555 1_555
C7 H5 1_555 1_555
C8 H6 1_555 1_555
C9 C8 1_555 1_555
H7 C9 1_555 1_555
C10 H8 1_555 1_555
H9 C10 1_555 1_555
C11 C10 1_555 1_555
H10 C11 1_555 1_555
H11 C11 1_555 1_555
N1 C4 1_555 1_555
N2 C7 1_555 1_555
N3 C7 1_555 1_555
O1 S1 1_555 1_555
O2 S1 1_555 1_555
S1 C1 1_555 1_555
Ag1 N2 1_555 1_555
H12 N1 1_555 1_555
H13 N1 1_555 1_555
C7D H5D 1_555 1_555
C8D H6D 1_555 1_555
C9D C8D 1_555 1_555
H7D C9D 1_555 1_555
C10D H8D 1_555 1_555
H9D C10D 1_555 1_555
C11D C11 1_555 1_555
H10D C11D 1_555 1_555
H11D C11D 1_555 1_555
N2D C7D 1_555 1_555
N2D_2 Ag1 1_555 1_555
N3D C7D 1_555 1_555
O2G S1 1_555 1_555
Ag1_2 N2D 1_555 1_555
C5 C6 1_555 1_555
C8 N2 1_555 1_555
C9 N3 1_555 1_555
C10 N3 1_555 1_555
C8D N2D 1_555 1_555
C9D N3D 1_555 1_555
C10D C11D 1_555 1_555
C10D N3D 1_555 1_555

#END
