
#######################################################################
#
#                 Cambridge Crystallographic Data Centre
#                                CCDC 
#
#######################################################################
#
# If this CIF has been generated from an entry in the Cambridge 
# Structural Database, then it will include bibliographic, chemical, 
# crystal, experimental, refinement or atomic coordinate data resulting 
# from the CCDC's data processing and validation procedures.
#
#######################################################################

data_PAZWIX
_symmetry_cell_setting           triclinic
_symmetry_space_group_name_H-M   'P -1'
_symmetry_Int_Tables_number      2
_space_group_name_Hall           '-P 1'
loop_
_symmetry_equiv_pos_site_id
_symmetry_equiv_pos_as_xyz
1 x,y,z
2 -x,-y,-z
_cell_length_a                   7.0653(14)
_cell_length_b                   7.6635(15)
_cell_length_c                   22.729(5)
_cell_angle_alpha                84.43(3)
_cell_angle_beta                 88.13(3)
_cell_angle_gamma                75.13(3)
_cell_volume                     1183.79
loop_
_atom_site_label
_atom_site_type_symbol
_atom_site_fract_x
_atom_site_fract_y
_atom_site_fract_z
La1 La 0.58932(4) 0.44360(4) 0.293489(12)
La2 La 0.14383(4) 0.27673(4) 0.206750(12)
C1 C 0.7435(9) 0.6798(9) 0.0440(3)
H1 H 0.8747 0.6583 0.0538
C2 C 0.6146(8) 0.6365(8) 0.0871(2)
C3 C 0.4191(8) 0.6677(7) 0.0728(2)
C4 C 0.3610(10) 0.7403(10) 0.0157(3)
H2 H 0.2306 0.7643 0.0047
C5 C 0.5013(11) 0.7759(10) -0.0241(3)
H3 H 0.4621 0.8200 -0.0625
C6 C 0.6920(8) 0.5559(8) 0.1468(2)
C7 C 0.2687(8) 0.6275(8) 0.1174(2)
C8 C 0.2504(8) 0.8753(8) 0.5258(2)
H4 H 0.2250 0.8239 0.5630
C9 C 0.3134(9) 0.7735(9) 0.4817(2)
H5 H 0.3335 0.6487 0.4892
C10 C 0.3518(8) 0.8423(8) 0.4244(2)
C11 C 0.3180(8) 1.0314(8) 0.4133(2)
C12 C 0.2551(10) 1.1382(9) 0.4601(3)
H6 H 0.2341 1.2635 0.4544
C13 C 0.4291(8) 0.7127(8) 0.3793(2)
C14 C 0.3429(8) 1.1289(7) 0.3538(2)
N1 N 0.6891(9) 0.7509(8) -0.0109(2)
N2 N 0.2244(10) 1.0550(10) 0.5150(3)
N3 N 0.0468(8) 0.5862(8) 0.2886(2)
N4 N 0.6863(8) 0.1378(7) 0.2151(2)
O1 O 0.2760(6) 0.4639(6) 0.13143(18)
O2 O 0.1498(7) 0.7610(6) 0.1359(2)
O3 O 0.5812(6) 0.5907(6) 0.19148(17)
O4 O 0.8625(7) 0.4567(7) 0.1481(2)
O5 O 0.4808(6) 0.7711(5) 0.32886(17)
O6 O 0.4416(9) 0.5482(6) 0.3932(2)
O7 O 0.2024(6) 1.1605(6) 0.31825(17)
O8 O 0.4950(7) 1.1821(7) 0.3472(2)
O9 O 0.2671(7) -0.0619(6) 0.22640(19)
H7 H 0.2555 -0.1100 0.1965
H8 H 0.3770 -0.1362 0.2517
O10 O 0.1569(8) 0.1188(6) 0.11410(19)
H9 H 0.1160 0.0280 0.1213
H10 H 0.1640 0.1649 0.0780
O11 O -0.0145(11) 0.7376(11) 0.3284(4)
O12 O 0.8406(7) 0.3025(8) 0.37088(19)
H11 H 0.9251 0.3587 0.3696
H12 H 0.8442 0.1681 0.3890
O13 O 0.2240(6) 0.5340(6) 0.27197(18)
O14 O 0.8245(6) 0.1829(6) 0.24000(18)
O15 O 0.7338(11) -0.0195(11) 0.1778(4)
O16 O 0.5119(6) 0.2244(6) 0.22200(18)
O17 O -0.0790(6) 0.5127(5) 0.27166(17)
La1_2 La 0.58932(4) 1.44360(4) 0.293489(12)
La1_3 La -0.41068(4) 0.44360(4) 0.293489(12)
La2_2 La 1.14383(4) 0.27673(4) 0.206750(12)
La2_3 La 0.14383(4) 1.27673(4) 0.206750(12)
O4_2 O -0.1375(7) 0.4567(7) 0.1481(2)
O7_2 O 0.2024(6) 0.1605(6) 0.31825(17)
O8_2 O 0.4950(7) 0.1821(7) 0.3472(2)
O14_2 O -0.1755(6) 0.1829(6) 0.24000(18)
O17_2 O 0.9210(6) 0.5127(5) 0.27166(17)
loop_
_geom_bond_atom_site_label_1
_geom_bond_atom_site_label_2
_geom_bond_site_symmetry_1
_geom_bond_site_symmetry_2
La1 O3 1_555 1_555
La2 O1 1_555 1_555
C1 H1 1_555 1_555
C2 C1 1_555 1_555
C3 C2 1_555 1_555
C4 C3 1_555 1_555
H2 C4 1_555 1_555
C5 C4 1_555 1_555
H3 C5 1_555 1_555
C6 C2 1_555 1_555
C7 C3 1_555 1_555
C8 H4 1_555 1_555
C9 C8 1_555 1_555
H5 C9 1_555 1_555
C10 C9 1_555 1_555
C11 C10 1_555 1_555
C12 C11 1_555 1_555
H6 C12 1_555 1_555
C13 C10 1_555 1_555
C14 C11 1_555 1_555
N1 C1 1_555 1_555
N2 C8 1_555 1_555
N3 O11 1_555 1_555
N4 O14 1_555 1_555
O1 C7 1_555 1_555
O2 C7 1_555 1_555
O3 C6 1_555 1_555
O4 C6 1_555 1_555
O5 La1 1_555 1_555
O6 La1 1_555 1_555
O7 C14 1_555 1_555
O8 C14 1_555 1_555
O9 La2 1_555 1_555
H7 O9 1_555 1_555
H8 O9 1_555 1_555
O10 La2 1_555 1_555
H9 O10 1_555 1_555
H10 O10 1_555 1_555
O12 La1 1_555 1_555
H11 O12 1_555 1_555
H12 O12 1_555 1_555
O13 La1 1_555 1_555
O14 La1 1_555 1_555
O15 N4 1_555 1_555
O16 La1 1_555 1_555
O17 La2 1_555 1_555
La1_2 O8 1_555 1_555
La1_3 O17 1_555 1_555
La2_2 O4 1_555 1_555
La2_3 O7 1_555 1_555
O4_2 La2 1_555 1_555
O7_2 La2 1_555 1_555
O8_2 La1 1_555 1_555
O14_2 La2 1_555 1_555
O17_2 La1 1_555 1_555
La2 O13 1_555 1_555
La2 O16 1_555 1_555
C5 N1 1_555 1_555
C12 N2 1_555 1_555
C13 O5 1_555 1_555
C13 O6 1_555 1_555
N3 O13 1_555 1_555
N3 O17 1_555 1_555
N4 O16 1_555 1_555
O14 La2_2 1_555 1_555
La1_3 O14_2 1_555 1_555
La2_2 O17_2 1_555 1_555

#END
