
#######################################################################
#
#                 Cambridge Crystallographic Data Centre
#                                CCDC 
#
#######################################################################
#
# If this CIF has been generated from an entry in the Cambridge 
# Structural Database, then it will include bibliographic, chemical, 
# crystal, experimental, refinement or atomic coordinate data resulting 
# from the CCDC's data processing and validation procedures.
#
#######################################################################

data_PAZXIX
_symmetry_cell_setting           monoclinic
_symmetry_space_group_name_H-M   'C c'
_symmetry_Int_Tables_number      9
_space_group_name_Hall           'C -2yc'
loop_
_symmetry_equiv_pos_site_id
_symmetry_equiv_pos_as_xyz
1 x,y,z
2 1/2+x,1/2+y,z
3 x,-y,1/2+z
4 1/2+x,1/2-y,1/2+z
_cell_length_a                   10.073(2)
_cell_length_b                   16.372(3)
_cell_length_c                   9.746(2)
_cell_angle_alpha                90
_cell_angle_beta                 110.08(2)
_cell_angle_gamma                90
_cell_volume                     1509.56
loop_
_atom_site_label
_atom_site_type_symbol
_atom_site_fract_x
_atom_site_fract_y
_atom_site_fract_z
O1 O -0.1656(6) 0.1767(3) -0.1444(5)
O2 O 0.1050(6) 0.1820(3) 0.1078(6)
N1 N -0.1050(7) -0.0027(4) -0.1396(6)
C1 C -0.2233(8) -0.0432(4) -0.1469(8)
C2 C -0.2851(8) -0.0982(4) -0.2559(8)
C3 C -0.2231(9) -0.1114(5) -0.3596(9)
N2 N -0.1047(7) -0.0697(4) -0.3554(7)
C4 C -0.0500(7) -0.0195(4) -0.2445(7)
C5 C 0.0836(8) 0.0238(4) -0.2308(7)
N3 N 0.1464(7) 0.0066(4) -0.3235(7)
C6 C 0.2434(8) 0.1194(5) -0.1087(9)
C7 C 0.318(1) 0.1049(5) -0.201(1)
C8 C 0.2655(8) 0.0468(4) -0.3084(8)
N4 N 0.1261(8) 0.0792(3) -0.1225(7)
Cu1 Cu 0.0000 0.08709(4) 0.0000
H1 H -0.241(6) 0.147(4) -0.213(6)
H2 H -0.129(8) 0.209(4) -0.206(6)
H3 H 0.060(8) 0.234(2) 0.095(8)
H4 H 0.155(8) 0.180(5) 0.211(2)
H5 H -0.2622(8) -0.0295(4) -0.0742(8)
H6 H -0.3648(8) -0.1253(4) -0.2686(8)
H7 H -0.2451(9) -0.1580(5) -0.4308(9)
H8 H 0.2719(8) 0.1545(5) -0.0313(9)
H9 H 0.402(1) 0.1482(5) -0.206(1)
H10 H 0.3117(8) 0.0302(4) -0.3772(8)
N2B N -0.1047(7) 0.0697(4) 0.1446(7)
N3B N 0.1464(7) -0.0066(4) 0.1765(7)
Cu1B Cu 0.0000 -0.08709(4) -0.5000
N5 N -0.0165(7) 0.2275(4) -0.4045(7)
O3 O -0.0352(8) 0.2682(4) -0.3041(8)
O4 O -0.0493(8) 0.1552(3) -0.4183(8)
O5 O 0.0383(7) 0.2604(4) -0.4857(9)
N6 N 0.0326(7) 0.3954(4) 0.0421(7)
O6 O 0.1567(8) 0.4064(5) 0.1135(9)
O7 O -0.0287(9) 0.4482(5) -0.0442(9)
O8 O -0.0310(6) 0.3326(3) 0.0546(8)
O9 O 0.1733(6) 0.1496(3) 0.3857(5)
H11 H 0.140(7) 0.181(5) 0.450(7)
H12 H 0.273(2) 0.151(5) 0.435(7)
loop_
_geom_bond_atom_site_label_1
_geom_bond_atom_site_label_2
_geom_bond_site_symmetry_1
_geom_bond_site_symmetry_2
O1 Cu1 1_555 1_555
O2 Cu1 1_555 1_555
N1 C1 1_555 1_555
C1 C2 1_555 1_555
C2 C3 1_555 1_555
C3 N2 1_555 1_555
N2 C4 1_555 1_555
C4 N1 1_555 1_555
C5 C4 1_555 1_555
N3 C5 1_555 1_555
C6 C7 1_555 1_555
C7 C8 1_555 1_555
C8 N3 1_555 1_555
N4 C5 1_555 1_555
Cu1 N1 1_555 1_555
H1 O1 1_555 1_555
H2 O1 1_555 1_555
H3 O2 1_555 1_555
H4 O2 1_555 1_555
H5 C1 1_555 1_555
H6 C2 1_555 1_555
H7 C3 1_555 1_555
H8 C6 1_555 1_555
H9 C7 1_555 1_555
H10 C8 1_555 1_555
N5 O3 1_555 1_555
O4 N5 1_555 1_555
O5 N5 1_555 1_555
N6 O6 1_555 1_555
O7 N6 1_555 1_555
O8 N6 1_555 1_555
O9 H11 1_555 1_555
H12 O9 1_555 1_555
N2B Cu1 1_555 1_555
N3B Cu1 1_555 1_555
Cu1B N2 1_555 1_555
N3 Cu1B 1_555 1_555
C6 N4 1_555 1_555
N4 Cu1 1_555 1_555

#END
