
#######################################################################
#
#                 Cambridge Crystallographic Data Centre
#                                CCDC 
#
#######################################################################
#
# If this CIF has been generated from an entry in the Cambridge 
# Structural Database, then it will include bibliographic, chemical, 
# crystal, experimental, refinement or atomic coordinate data resulting 
# from the CCDC's data processing and validation procedures.
#
#######################################################################

data_PAZXUJ
_symmetry_cell_setting           monoclinic
_symmetry_space_group_name_H-M   'P n'
_symmetry_Int_Tables_number      7
_space_group_name_Hall           'P -2yac'
loop_
_symmetry_equiv_pos_site_id
_symmetry_equiv_pos_as_xyz
1 x,y,z
2 1/2+x,-y,1/2+z
_cell_length_a                   8.868(2)
_cell_length_b                   13.752(3)
_cell_length_c                   9.848(2)
_cell_angle_alpha                90
_cell_angle_beta                 116.35(1)
_cell_angle_gamma                90
_cell_volume                     1076.21
loop_
_atom_site_label
_atom_site_type_symbol
_atom_site_fract_x
_atom_site_fract_y
_atom_site_fract_z
Cu1 Cu 0.08198(8) 0.35163(4) 0.52887(7)
Cu2 Cu 0.0000 0.15103(4) 0.00000
N1 N -0.1213(6) 0.1665(3) 0.1247(6)
N2 N -0.0976(6) 0.2332(3) 0.3561(6)
N3 N 0.1661(6) 0.2431(3) 0.1684(6)
N4 N 0.2014(6) 0.3156(3) 0.3969(5)
N5 N 0.1339(6) 0.1556(3) 0.8730(6)
N6 N 0.1769(6) 0.2349(3) 0.6796(5)
N7 N -0.0997(6) 0.2965(3) 0.8429(6)
N8 N -0.0538(7) 0.3668(3) 0.6447(6)
S1 S -0.2280(2) -0.0208(1) -0.2015(2)
O1 O -0.1872(5) 0.0852(3) -0.1644(5)
O2 O -0.3459(6) -0.0237(3) -0.3620(5)
O3 O -0.3054(7) -0.0584(3) -0.1086(6)
O4 O -0.0743(6) -0.0725(3) -0.1728(6)
S2 S -0.1524(2) 0.4698(1) 0.2441(2)
O5 O -0.0137(5) 0.4662(3) 0.4056(4)
O6 O -0.1795(6) 0.5743(3) 0.2060(5)
O7 O -0.0945(6) 0.4222(3) 0.1445(5)
O8 O -0.3029(6) 0.4252(3) 0.2393(6)
C1 C -0.0443(7) 0.2178(3) 0.2516(6)
C2 C 0.3316(7) 0.0926(4) 0.7910(6)
C3 C 0.1174(6) 0.2613(3) 0.2745(6)
C4 C 0.2919(7) 0.1684(4) 0.6892(6)
C5 C 0.3481(8) 0.3544(4) 0.4162(7)
C6 C -0.2448(7) 0.1919(4) 0.3299(6)
C7 C 0.1019(6) 0.2258(3) 0.7701(6)
C8 C -0.0253(6) 0.3004(4) 0.7520(6)
C9 C 0.3102(7) 0.2837(4) 0.1847(6)
C10 C -0.2184(7) 0.3629(4) 0.8181(6)
C11 C 0.2481(7) 0.0880(4) 0.8834(6)
C12 C -0.2566(7) 0.4337(4) 0.7075(6)
C13 C 0.4052(8) 0.3408(4) 0.3063(6)
C14 C -0.1699(7) 0.4346(4) 0.6243(6)
C15 C -0.3340(8) 0.1375(4) 0.2029(7)
C16 C -0.2676(8) 0.1248(4) 0.1022(6)
H5 H -0.3266(8) 0.0861(4) 0.0129(6)
H6 H -0.4390(8) 0.1081(4) 0.1863(7)
H7 H -0.2885(7) 0.2013(4) 0.4023(6)
H8 H 0.3477(7) 0.2724(4) 0.1083(6)
H9 H 0.5080(8) 0.3704(4) 0.3171(6)
H10 H 0.4128(8) 0.3923(4) 0.5051(7)
H11 H 0.2714(7) 0.0352(4) 0.9538(6)
H12 H 0.4147(7) 0.0450(4) 0.7999(6)
H13 H 0.3280(7) 0.1881(4) 0.6148(6)
H14 H -0.2768(7) 0.3622(4) 0.8801(6)
H15 H -0.3425(7) 0.4810(4) 0.6915(6)
H16 H -0.1702(7) 0.4742(4) 0.5439(6)
N5_2 N 0.1339(6) 0.1556(3) -0.1270(6)
Cu2_2 Cu 0.0000 0.15103(4) 1.00000
N7_2 N -0.0997(6) 0.2965(3) -0.1571(6)
O6A O 0.3205(6) 0.4257(3) 0.7060(5)
Cu1A Cu -0.41802(8) 0.64837(4) 0.02887(7)
O2A O 0.1541(6) 0.0237(3) 0.1380(5)
Cu2A Cu -0.5000 -0.15103(4) -0.50000
O9 O -0.0090(7) 0.6876(3) 0.4732(6)
H1 H 0.093(5) 0.652(5) 0.530(6)
H2 H -0.047(8) 0.658(5) 0.376(3)
O10 O 0.0929(7) -0.1954(3) 0.0787(6)
H3 H 0.184(6) -0.154(4) 0.144(6)
H4 H 0.049(9) -0.156(4) -0.011(5)
loop_
_geom_bond_atom_site_label_1
_geom_bond_atom_site_label_2
_geom_bond_site_symmetry_1
_geom_bond_site_symmetry_2
Cu1 N2 1_555 1_555
Cu2 N1 1_555 1_555
N1 C1 1_555 1_555
N2 C1 1_555 1_555
N3 Cu2 1_555 1_555
N4 Cu1 1_555 1_555
N5 C7 1_555 1_555
N6 Cu1 1_555 1_555
N7 C8 1_555 1_555
N8 Cu1 1_555 1_555
S1 O1 1_555 1_555
O1 Cu2 1_555 1_555
O2 S1 1_555 1_555
O3 S1 1_555 1_555
O4 S1 1_555 1_555
S2 O5 1_555 1_555
O5 Cu1 1_555 1_555
O6 S2 1_555 1_555
O7 S2 1_555 1_555
O8 S2 1_555 1_555
O9 H1 1_555 1_555
O10 H3 1_555 1_555
C1 C3 1_555 1_555
C2 C4 1_555 1_555
C3 N3 1_555 1_555
C4 N6 1_555 1_555
C5 N4 1_555 1_555
C6 N2 1_555 1_555
C7 N6 1_555 1_555
C8 N8 1_555 1_555
C9 N3 1_555 1_555
C10 N7 1_555 1_555
C11 N5 1_555 1_555
C12 C10 1_555 1_555
C13 C5 1_555 1_555
C14 N8 1_555 1_555
C15 C6 1_555 1_555
C16 N1 1_555 1_555
H2 O9 1_555 1_555
H4 O10 1_555 1_555
H5 C16 1_555 1_555
H6 C15 1_555 1_555
H7 C6 1_555 1_555
H8 C9 1_555 1_555
H9 C13 1_555 1_555
H10 C5 1_555 1_555
H11 C11 1_555 1_555
H12 C2 1_555 1_555
H13 C4 1_555 1_555
H14 C10 1_555 1_555
H15 C12 1_555 1_555
H16 C14 1_555 1_555
N5_2 Cu2 1_555 1_555
Cu2_2 N5 1_555 1_555
N7_2 Cu2 1_555 1_555
O6A Cu1 1_555 1_555
Cu1A O6 1_555 1_555
O2A Cu2 1_555 1_555
Cu2A O2 1_555 1_555
N4 C3 1_555 1_555
N7 Cu2_2 1_555 1_555
C2 C11 1_555 1_555
C7 C8 1_555 1_555
C9 C13 1_555 1_555
C12 C14 1_555 1_555
C15 C16 1_555 1_555

#END
