
#######################################################################
#
#                 Cambridge Crystallographic Data Centre
#                                CCDC 
#
#######################################################################
#
# If this CIF has been generated from an entry in the Cambridge 
# Structural Database, then it will include bibliographic, chemical, 
# crystal, experimental, refinement or atomic coordinate data resulting 
# from the CCDC's data processing and validation procedures.
#
#######################################################################

data_PAZYAR
_symmetry_cell_setting           triclinic
_symmetry_space_group_name_H-M   'P -1'
_symmetry_Int_Tables_number      2
_space_group_name_Hall           '-P 1'
loop_
_symmetry_equiv_pos_site_id
_symmetry_equiv_pos_as_xyz
1 x,y,z
2 -x,-y,-z
_cell_length_a                   5.3994(6)
_cell_length_b                   14.8387(19)
_cell_length_c                   15.525(3)
_cell_angle_alpha                62.340(10)
_cell_angle_beta                 89.907(11)
_cell_angle_gamma                88.698(10)
_cell_volume                     1101.37
loop_
_atom_site_label
_atom_site_type_symbol
_atom_site_fract_x
_atom_site_fract_y
_atom_site_fract_z
Zn1 Zn 0.27417(10) 0.75088(5) 0.24175(4)
O1 O 0.3284(8) 0.7925(4) 0.0913(3)
O2 O 0.6221(10) 0.8538(4) -0.0074(4)
O3 O 0.6075(11) 0.8587(8) 0.1273(7)
O4 O 0.5800(8) 0.6909(5) 0.3220(4)
O5 O 0.3077(8) 0.6891(4) 0.4186(3)
O6 O 0.6683(11) 0.6377(4) 0.4771(4)
N1 N 0.0782(7) 0.8707(3) 0.2374(3)
N2 N -0.5971(8) 0.9614(3) 0.3818(3)
N3 N -0.5971(8) 0.5388(3) 0.1167(3)
N4 N 0.0707(7) 0.6318(3) 0.2567(3)
N5 N 0.5215(9) 0.8374(4) 0.0693(4)
N6 N 0.5223(9) 0.6669(4) 0.4136(4)
C1 C 0.0716(11) 0.9611(4) 0.1567(4)
C2 C -0.0881(12) 1.0391(5) 0.1476(5)
C3 C -0.2469(12) 1.0247(5) 0.2209(4)
C4 C -0.2378(9) 0.9320(4) 0.3061(4)
C5 C -0.0712(8) 0.8587(4) 0.3109(4)
C6 C -0.4012(10) 0.9093(5) 0.3895(4)
C7 C -0.7567(9) 0.9333(4) 0.4623(3)
C8 C -0.7793(11) 0.8353(5) 0.5351(4)
C9 C -0.9140(9) 1.0124(4) 0.4617(3)
C10 C -0.9004(11) 1.1143(4) 0.3876(4)
C11 C -0.9481(13) 0.8125(5) 0.6093(4)
C12 C -1.0445(12) 0.3145(5) 0.1154(4)
C13 C -0.8984(10) 0.3871(4) 0.1155(4)
C14 C -0.9128(8) 0.4886(4) 0.0381(3)
C15 C -0.7587(9) 0.5657(4) 0.0352(3)
C16 C -0.7819(11) 0.6626(4) -0.0401(4)
C17 C -0.4040(9) 0.5894(4) 0.1067(4)
C18 C -0.0763(9) 0.6405(4) 0.1830(4)
C19 C -0.2440(9) 0.5691(4) 0.1906(3)
C20 C -0.2566(11) 0.4814(4) 0.2786(4)
C21 C -0.1000(13) 0.4683(5) 0.3531(5)
C22 C 0.0592(11) 0.5448(4) 0.3403(4)
H1 H 0.190(9) 0.966(4) 0.107(4)
H2 H -0.125(13) 1.101(6) 0.076(5)
H3 H -0.359(11) 1.075(5) 0.210(4)
H4 H -0.055(11) 0.791(5) 0.365(4)
H5 H -0.376(11) 0.847(5) 0.459(5)
H6 H -0.693(11) 0.782(5) 0.537(4)
H7 H -0.787(11) 1.128(4) 0.339(4)
H8 H -0.973(13) 0.741(6) 0.655(5)
H9 H -1.054(13) 0.237(6) 0.173(5)
H10 H -0.776(10) 0.375(4) 0.166(4)
H11 H -0.682(9) 0.713(4) -0.041(4)
H12 H -0.343(9) 0.650(4) 0.038(4)
H13 H -0.066(9) 0.701(4) 0.118(4)
H14 H -0.379(11) 0.433(5) 0.290(4)
H15 H 0.169(10) 0.541(4) 0.395(4)
H16 H -0.113(12) 0.407(5) 0.421(5)
Zn1A Zn -2.27417(10) 1.24912(5) 0.75825(4)
Zn1A_2 Zn -2.27417(10) 0.24912(5) -0.24175(4)
O1A O -2.3284(8) 1.2075(4) 0.9087(3)
O2A O -2.6221(10) 1.1462(4) 1.0074(4)
O3A O -2.6075(11) 1.1413(8) 0.8727(7)
O4A O -2.5800(8) 1.3091(5) 0.6780(4)
O5A O -2.3077(8) 1.3109(4) 0.5814(3)
O6A O -2.6683(11) 1.3623(4) 0.5229(4)
N1A N -2.0782(7) 1.1293(3) 0.7626(3)
N2A N -1.4029(8) 1.0386(3) 0.6182(3)
N3A N -1.4029(8) 0.4612(3) -0.1167(3)
N4A N -2.0707(7) 0.3682(3) -0.2567(3)
N4A_2 N -2.0707(7) 1.3682(3) 0.7433(3)
N5A N -2.5215(9) 1.1626(4) 0.9307(4)
N6A N -2.5223(9) 1.3331(4) 0.5864(4)
C1A C -2.0716(11) 1.0389(4) 0.8433(4)
C2A C -1.9119(12) 0.9609(5) 0.8524(5)
C3A C -1.7531(12) 0.9753(5) 0.7791(4)
C4A C -1.7622(9) 1.0680(4) 0.6939(4)
C5A C -1.9288(8) 1.1413(4) 0.6891(4)
C6A C -1.5988(10) 1.0907(5) 0.6105(4)
C7A C -1.2433(9) 1.0667(4) 0.5377(3)
C8A C -1.2207(11) 1.1647(5) 0.4649(4)
C9A C -1.0860(9) 0.9876(4) 0.5383(3)
C10A C -1.0996(11) 0.8857(4) 0.6124(4)
C11A C -1.0519(13) 1.1875(5) 0.3907(4)
C12A C -0.9555(12) 0.6855(5) -0.1154(4)
C13A C -1.1016(10) 0.6129(4) -0.1155(4)
C14A C -1.0872(8) 0.5114(4) -0.0381(3)
C15A C -1.2413(9) 0.4343(4) -0.0352(3)
C16A C -1.2181(11) 0.3374(4) 0.0401(4)
C17A C -1.5960(9) 0.4106(4) -0.1067(4)
C18A C -1.9237(9) 0.3595(4) -0.1830(4)
C19A C -1.7560(9) 0.4309(4) -0.1906(3)
C20A C -1.7434(11) 0.5186(4) -0.2786(4)
C21A C -1.9000(13) 0.5317(5) -0.3531(5)
C22A C -2.0592(11) 0.4552(4) -0.3403(4)
H1A H -2.190(9) 1.034(4) 0.893(4)
H2A H -1.875(13) 0.899(6) 0.924(5)
H3A H -1.641(11) 0.925(5) 0.790(4)
H4A H -1.945(11) 1.209(5) 0.635(4)
H5A H -1.624(11) 1.153(5) 0.541(5)
H6A H -1.307(11) 1.218(5) 0.463(4)
H7A H -1.213(11) 0.872(4) 0.661(4)
H8A H -1.027(13) 1.259(6) 0.345(5)
H9A H -0.946(13) 0.763(6) -0.173(5)
H10A H -1.224(10) 0.625(4) -0.166(4)
H11A H -1.318(9) 0.287(4) 0.041(4)
H12A H -1.657(9) 0.350(4) -0.038(4)
H13A H -1.934(9) 0.299(4) -0.118(4)
H14A H -1.621(11) 0.567(5) -0.290(4)
H15A H -2.169(10) 0.459(4) -0.395(4)
H16A H -1.887(12) 0.593(5) -0.421(5)
loop_
_geom_bond_atom_site_label_1
_geom_bond_atom_site_label_2
_geom_bond_site_symmetry_1
_geom_bond_site_symmetry_2
Zn1 O1 1_555 1_555
O1 N5 1_555 1_555
O2 N5 1_555 1_555
O3 N5 1_555 1_555
O4 Zn1 1_555 1_555
O5 N6 1_555 1_555
O6 N6 1_555 1_555
N1 Zn1 1_555 1_555
N2 C6 1_555 1_555
N3 C15 1_555 1_555
N4 Zn1 1_555 1_555
N6 O4 1_555 1_555
C1 N1 1_555 1_555
C2 C1 1_555 1_555
C3 C2 1_555 1_555
C4 C3 1_555 1_555
C5 N1 1_555 1_555
C6 C4 1_555 1_555
C7 N2 1_555 1_555
C8 C7 1_555 1_555
C9 C7 1_555 1_555
C10 C9 1_555 1_555
C11 C8 1_555 1_555
C12 C13 1_555 1_555
C13 C14 1_555 1_555
C14 C15 1_555 1_555
C15 C16 1_555 1_555
C16 H11 1_555 1_555
C17 N3 1_555 1_555
C18 N4 1_555 1_555
C19 C17 1_555 1_555
C20 C19 1_555 1_555
C21 C20 1_555 1_555
C22 N4 1_555 1_555
H1 C1 1_555 1_555
H2 C2 1_555 1_555
H3 C3 1_555 1_555
H4 C5 1_555 1_555
H5 C6 1_555 1_555
H6 C8 1_555 1_555
H7 C10 1_555 1_555
H8 C11 1_555 1_555
H9 C12 1_555 1_555
H10 C13 1_555 1_555
H12 C17 1_555 1_555
H13 C18 1_555 1_555
H14 C20 1_555 1_555
H15 C22 1_555 1_555
H16 C21 1_555 1_555
Zn1A O1A 1_555 1_555
Zn1A_2 N4A 1_555 1_555
O1A N5A 1_555 1_555
O2A N5A 1_555 1_555
O3A N5A 1_555 1_555
O4A Zn1A 1_555 1_555
O5A N6A 1_555 1_555
O6A N6A 1_555 1_555
N1A Zn1A 1_555 1_555
N2A C6A 1_555 1_555
N3A C15A 1_555 1_555
N4A C18A 1_555 1_555
N4A_2 Zn1A 1_555 1_555
N6A O4A 1_555 1_555
C1A N1A 1_555 1_555
C2A C1A 1_555 1_555
C3A C2A 1_555 1_555
C4A C3A 1_555 1_555
C5A N1A 1_555 1_555
C6A C4A 1_555 1_555
C7A N2A 1_555 1_555
C8A C7A 1_555 1_555
C9A C9 1_555 1_555
C10A C11 1_555 1_555
C11A C10 1_555 1_555
C12A C16 1_555 1_555
C13A C12A 1_555 1_555
C14A C14 1_555 1_555
C15A C14A 1_555 1_555
C16A C12 1_555 1_555
C17A N3A 1_555 1_555
C18A C19A 1_555 1_555
C19A C17A 1_555 1_555
C20A C19A 1_555 1_555
C21A C20A 1_555 1_555
C22A N4A 1_555 1_555
H1A C1A 1_555 1_555
H2A C2A 1_555 1_555
H3A C3A 1_555 1_555
H4A C5A 1_555 1_555
H5A C6A 1_555 1_555
H6A C8A 1_555 1_555
H7A C10A 1_555 1_555
H8A C11A 1_555 1_555
H9A C12A 1_555 1_555
H10A C13A 1_555 1_555
H11A C16A 1_555 1_555
H12A C17A 1_555 1_555
H13A C18A 1_555 1_555
H14A C20A 1_555 1_555
H15A C22A 1_555 1_555
H16A C21A 1_555 1_555
C4 C5 1_555 1_555
C18 C19 1_555 1_555
C21 C22 1_555 1_555
C4A C5A 1_555 1_555
C7A C9A 1_555 1_555
C8A C11A 1_555 1_555
C9A C10A 1_555 1_555
C13A C14A 1_555 1_555
C15A C16A 1_555 1_555
C21A C22A 1_555 1_555

#END
