
#######################################################################
#
#                 Cambridge Crystallographic Data Centre
#                                CCDC 
#
#######################################################################
#
# If this CIF has been generated from an entry in the Cambridge 
# Structural Database, then it will include bibliographic, chemical, 
# crystal, experimental, refinement or atomic coordinate data resulting 
# from the CCDC's data processing and validation procedures.
#
#######################################################################

data_PEBNER
_symmetry_cell_setting           monoclinic
_symmetry_space_group_name_H-M   'P 21/n'
_symmetry_Int_Tables_number      14
_space_group_name_Hall           '-P 2yn'
loop_
_symmetry_equiv_pos_site_id
_symmetry_equiv_pos_as_xyz
1 x,y,z
2 1/2-x,1/2+y,1/2-z
3 -x,-y,-z
4 1/2+x,1/2-y,1/2+z
_cell_length_a                   11.7054(11)
_cell_length_b                   8.8571(5)
_cell_length_c                   12.0400(11)
_cell_angle_alpha                90
_cell_angle_beta                 96.276(7)
_cell_angle_gamma                90
_cell_volume                     1240.78
loop_
_atom_site_label
_atom_site_type_symbol
_atom_site_fract_x
_atom_site_fract_y
_atom_site_fract_z
I1 I 0.67548(2) -0.45760(3) 1.00990(2)
I2 I 1.02495(3) -0.25840(3) 1.01155(3)
Cu1 Cu 0.81285(5) -0.28853(6) 0.90183(5)
Cu2 Cu 0.62998(6) -0.62945(7) 0.83554(5)
Cu3 Cu 0.90426(7) -0.48487(8) 1.07527(5)
N1 N 0.6636(3) 0.1476(4) 0.8440(3)
N2 N 0.7442(3) -0.0752(4) 0.8712(3)
N3 N 0.6991(3) 0.0991(4) 0.7484(3)
N4 N 0.7478(3) -0.0347(4) 0.7653(3)
N5 N 0.6087(3) 0.0158(5) 1.2556(3)
C1 C 0.5829(4) 0.1316(5) 1.0742(4)
H1 H 0.5453 0.2031 1.0269
C2 C 0.5576(4) 0.1183(5) 1.1822(4)
H2 H 0.5027 0.1827 1.2066
C3 C 0.6908(4) 0.0381(5) 0.9187(3)
O1 O 0.4826(4) -0.5512(7) 0.7498(4)
C4 C 0.6649(4) 0.0377(5) 1.0357(4)
C5 C 0.7185(4) -0.0667(5) 1.1101(4)
H3 H 0.7745 -0.1311 1.0880
C6 C 0.6873(4) -0.0735(5) 1.2174(4)
H4 H 0.7233 -0.1448 1.2659
I2B I 0.97505(3) -0.74160(3) 0.98845(3)
Cu1A Cu 0.68715(5) 0.21147(6) 0.59817(5)
Cu2_2 Cu 0.62998(6) 0.37055(7) 0.83554(5)
Cu2A Cu 0.87002(6) -0.12945(7) 0.66446(5)
Cu3B Cu 1.09574(7) -0.51513(8) 0.92473(5)
Cu3A Cu 0.59574(7) 0.01513(8) 1.42473(5)
N1_2 N 0.6636(3) -0.8524(4) 0.8440(3)
N3A N 0.8009(3) -0.4009(4) 0.7516(3)
N4A N 0.7522(3) -0.5347(4) 0.7347(3)
N5A N 0.8913(3) -0.4842(5) 1.2444(3)
loop_
_geom_bond_atom_site_label_1
_geom_bond_atom_site_label_2
_geom_bond_site_symmetry_1
_geom_bond_site_symmetry_2
I1 Cu1 1_555 1_555
I2 Cu1 1_555 1_555
Cu1 N2 1_555 1_555
Cu2 I1 1_555 1_555
Cu3 I1 1_555 1_555
N1 N3 1_555 1_555
N2 N4 1_555 1_555
N3 N4 1_555 1_555
N4 Cu2A 1_555 1_555
N5 C2 1_555 1_555
C1 H1 1_555 1_555
C2 C1 1_555 1_555
H2 C2 1_555 1_555
C3 N1 1_555 1_555
O1 Cu2 1_555 1_555
C4 C1 1_555 1_555
C5 C4 1_555 1_555
H3 C5 1_555 1_555
C6 N5 1_555 1_555
H4 C6 1_555 1_555
I2B Cu3 1_555 1_555
Cu1A N3 1_555 1_555
Cu2_2 N1 1_555 1_555
Cu3B I2 1_555 1_555
Cu3A N5 1_555 1_555
N1_2 Cu2 1_555 1_555
N3A Cu1 1_555 1_555
N4A Cu2 1_555 1_555
N5A Cu3 1_555 1_555
I2 Cu3 1_555 1_555
N2 C3 1_555 1_555
C3 C4 1_555 1_555
C5 C6 1_555 1_555
I2B Cu3B 1_555 1_555
N3A N4A 1_555 1_555

#END
