
#######################################################################
#
#                 Cambridge Crystallographic Data Centre
#                                CCDC 
#
#######################################################################
#
# If this CIF has been generated from an entry in the Cambridge 
# Structural Database, then it will include bibliographic, chemical, 
# crystal, experimental, refinement or atomic coordinate data resulting 
# from the CCDC's data processing and validation procedures.
#
#######################################################################

data_PEBWIE
_symmetry_cell_setting           monoclinic
_symmetry_space_group_name_H-M   'P 21'
_symmetry_Int_Tables_number      4
_space_group_name_Hall           'P 2yb'
loop_
_symmetry_equiv_pos_site_id
_symmetry_equiv_pos_as_xyz
1 x,y,z
2 -x,1/2+y,-z
_cell_length_a                   10.893(7)
_cell_length_b                   8.554(5)
_cell_length_c                   15.626(9)
_cell_angle_alpha                90
_cell_angle_beta                 96.187(11)
_cell_angle_gamma                90
_cell_volume                     1447.53
loop_
_atom_site_label
_atom_site_type_symbol
_atom_site_fract_x
_atom_site_fract_y
_atom_site_fract_z
Cu1 Cu -0.00650(7) -0.08632(9) 0.07604(5)
N1 N -0.0045(5) 0.0992(7) 0.1556(3)
C1 C -0.1028(6) 0.1685(10) 0.1835(5)
H1 H -0.1811 0.1315 0.1639
C2 C -0.0929(7) 0.2928(10) 0.2402(5)
H2 H -0.1627 0.3410 0.2574
C3 C 0.0225(7) 0.3422(10) 0.2702(5)
C4 C 0.1253(7) 0.2763(9) 0.2425(4)
H3 H 0.2040 0.3121 0.2619
C5 C 0.1077(6) 0.1533(8) 0.1840(4)
C6 C 0.2085(5) 0.0761(8) 0.1444(4)
C7 C 0.3312(6) 0.1216(8) 0.1608(4)
H4 H 0.3566 0.1930 0.2040
C8 C 0.4134(6) 0.0563(9) 0.1103(4)
C9 C 0.3794(6) -0.0547(9) 0.0484(4)
H5 H 0.4351 -0.0953 0.0131
C10 C 0.2562(6) -0.1023(9) 0.0420(5)
H6 H 0.2306 -0.1828 0.0042
N2 N 0.1750(5) -0.0371(7) 0.0876(3)
N3 N 0.0397(7) 0.4777(8) 0.3307(4)
O1 O -0.0526(7) 0.5322(10) 0.3540(4)
O2 O 0.1425(6) 0.5228(7) 0.3501(3)
N4 N 0.5421(5) 0.1076(8) 0.1229(4)
O3 O 0.5901(5) 0.1216(9) 0.1967(4)
O4 O 0.5944(6) 0.1346(8) 0.0590(4)
O5 O -0.1852(6) -0.0962(9) 0.0525(5)
N5 N -0.2444(6) -0.1968(10) 0.0904(5)
O6 O -0.1857(8) -0.2674(17) 0.1493(6)
O7 O -0.3531(6) -0.2161(9) 0.0711(5)
O8 O 0.0132(5) -0.2993(6) 0.0311(3)
N6 N 0.0351(5) -0.4014(8) 0.0907(3)
O9 O 0.0210(6) -0.5401(7) 0.0712(3)
O10 O 0.0651(6) -0.3557(8) 0.1642(3)
Cu1A Cu 0.00650(7) -0.58632(9) -0.07604(5)
O9A O -0.0210(6) -0.0401(7) -0.0712(3)
Cu2 Cu 0.47858(7) 1.07584(9) 0.42054(5)
N7 N 0.6573(5) 1.0380(7) 0.4103(3)
C11 C 0.7523(7) 1.1151(9) 0.4527(4)
H7 H 0.7372 1.2003 0.4870
C12 C 0.8714(6) 1.0694(11) 0.4460(4)
H8 H 0.9372 1.1182 0.4783
C13 C 0.8913(6) 0.9500(8) 0.3905(4)
C14 C 0.7972(6) 0.8742(8) 0.3439(4)
H9 H 0.8118 0.7953 0.3053
C15 C 0.6780(6) 0.9195(8) 0.3564(4)
C16 C 0.5655(6) 0.8396(8) 0.3181(4)
C17 C 0.5688(7) 0.7175(9) 0.2596(4)
H10 H 0.6428 0.6805 0.2428
C18 C 0.4565(8) 0.6537(9) 0.2276(4)
C19 C 0.3453(7) 0.7080(9) 0.2516(4)
H11 H 0.2702 0.6645 0.2295
C20 C 0.3515(7) 0.8301(9) 0.3101(5)
H12 H 0.2790 0.8683 0.3287
N8 N 0.4602(5) 0.8948(7) 0.3408(3)
N9 N 1.0179(5) 0.8993(8) 0.3794(4)
O11 O 1.0863(5) 0.8794(7) 0.4464(4)
O12 O 1.0444(6) 0.8800(9) 0.3071(4)
N10 N 0.4526(8) 0.5245(9) 0.1654(4)
O13 O 0.5527(8) 0.4630(9) 0.1554(4)
O14 O 0.3552(8) 0.4825(10) 0.1314(5)
O15 O 0.5016(5) 1.2938(7) 0.4680(3)
N11 N 0.4731(5) 1.3940(7) 0.4061(4)
O16 O 0.4574(5) 1.5304(6) 0.4271(3)
O17 O 0.4603(7) 1.3477(7) 0.3319(3)
O18 O 0.3007(5) 1.1135(8) 0.4032(3)
N12 N 0.2431(6) 1.1462(9) 0.4715(5)
O19 O 0.2867(6) 1.0985(11) 0.5420(4)
O20 O 0.1458(5) 1.2177(8) 0.4574(4)
Cu2A Cu 0.52142(7) 1.57584(9) 0.57946(5)
O16A O 0.5426(5) 1.0304(6) 0.5729(3)
loop_
_geom_bond_atom_site_label_1
_geom_bond_atom_site_label_2
_geom_bond_site_symmetry_1
_geom_bond_site_symmetry_2
Cu1 N1 1_555 1_555
N1 C1 1_555 1_555
C1 H1 1_555 1_555
C2 C1 1_555 1_555
H2 C2 1_555 1_555
C3 C2 1_555 1_555
C4 C3 1_555 1_555
H3 C4 1_555 1_555
C5 N1 1_555 1_555
C6 C5 1_555 1_555
C7 C6 1_555 1_555
H4 C7 1_555 1_555
C8 C7 1_555 1_555
C9 C8 1_555 1_555
H5 C9 1_555 1_555
C10 C9 1_555 1_555
H6 C10 1_555 1_555
N2 Cu1 1_555 1_555
N3 C3 1_555 1_555
O1 N3 1_555 1_555
O2 N3 1_555 1_555
N4 C8 1_555 1_555
O3 N4 1_555 1_555
O4 N4 1_555 1_555
O5 Cu1 1_555 1_555
N5 O5 1_555 1_555
O6 N5 1_555 1_555
O7 N5 1_555 1_555
O8 Cu1 1_555 1_555
N6 O8 1_555 1_555
O9 N6 1_555 1_555
O10 Cu1 1_555 1_555
Cu2 N7 1_555 1_555
N7 C11 1_555 1_555
C11 H7 1_555 1_555
C12 C11 1_555 1_555
H8 C12 1_555 1_555
C13 C12 1_555 1_555
C14 C13 1_555 1_555
H9 C14 1_555 1_555
C15 N7 1_555 1_555
C16 C15 1_555 1_555
C17 C16 1_555 1_555
H10 C17 1_555 1_555
C18 C17 1_555 1_555
C19 C18 1_555 1_555
H11 C19 1_555 1_555
C20 C19 1_555 1_555
H12 C20 1_555 1_555
N8 Cu2 1_555 1_555
N9 C13 1_555 1_555
O11 N9 1_555 1_555
O12 N9 1_555 1_555
N10 C18 1_555 1_555
O13 N10 1_555 1_555
O14 N10 1_555 1_555
O15 Cu2 1_555 1_555
N11 O15 1_555 1_555
O16 N11 1_555 1_555
O17 Cu2 1_555 1_555
O18 Cu2 1_555 1_555
N12 O18 1_555 1_555
O19 N12 1_555 1_555
O20 N12 1_555 1_555
Cu1A O9 1_555 1_555
O9A Cu1 1_555 1_555
Cu2A O16 1_555 1_555
O16A Cu2 1_555 1_555
C4 C5 1_555 1_555
C6 N2 1_555 1_555
C10 N2 1_555 1_555
N6 O10 1_555 1_555
C14 C15 1_555 1_555
C16 N8 1_555 1_555
C20 N8 1_555 1_555
N11 O17 1_555 1_555

#END
