
#######################################################################
#
#                 Cambridge Crystallographic Data Centre
#                                CCDC 
#
#######################################################################
#
# If this CIF has been generated from an entry in the Cambridge 
# Structural Database, then it will include bibliographic, chemical, 
# crystal, experimental, refinement or atomic coordinate data resulting 
# from the CCDC's data processing and validation procedures.
#
#######################################################################

data_PECBOQ
_symmetry_cell_setting           orthorhombic
_symmetry_space_group_name_H-M   'P n m a'
_symmetry_Int_Tables_number      62
_space_group_name_Hall           '-P 2ac 2n'
loop_
_symmetry_equiv_pos_site_id
_symmetry_equiv_pos_as_xyz
1 x,y,z
2 1/2-x,-y,1/2+z
3 -x,1/2+y,-z
4 1/2+x,1/2-y,1/2-z
5 -x,-y,-z
6 1/2+x,y,1/2-z
7 x,1/2-y,z
8 1/2-x,1/2+y,1/2+z
_cell_length_a                   19.113(3)
_cell_length_b                   18.617(3)
_cell_length_c                   15.959(2)
_cell_angle_alpha                90
_cell_angle_beta                 90
_cell_angle_gamma                90
_cell_volume                     5678.64
loop_
_atom_site_label
_atom_site_type_symbol
_atom_site_fract_x
_atom_site_fract_y
_atom_site_fract_z
Mo1 Mo 0.42039(4) 0.90974(4) 0.14083(5)
Mo2 Mo 0.46992(4) 0.83938(5) 0.32244(5)
Mo3 Mo 0.49130(5) 0.83691(4) -0.05626(5)
Cu1 Cu 0.55773(6) 1.02130(6) 0.21896(7)
P1 P 0.52772(16) 0.7500 0.1402(2)
P2 P 0.84509(16) 0.7500 0.3019(2)
O1 O 0.4888(3) 0.9708(3) 0.1494(4)
O2 O 0.4090(3) 0.8980(4) 0.2597(4)
O3 O 0.3945(5) 0.7500 -0.0383(6)
O4 O 0.8946(4) 0.7500 0.2247(5)
O5 O 0.5188(4) 0.7500 0.3354(5)
O6 O 0.4503(5) 0.8800(4) -0.1370(4)
O7 O 0.5416(4) 0.8947(4) 0.3301(5)
O8 O 0.5157(5) 0.7500 -0.1127(6)
O9 O 0.4981(3) 0.8178(3) 0.1796(4)
O10 O 0.3502(3) 0.9628(4) 0.1229(5)
O11 O 0.4402(4) 0.8768(4) 0.0328(4)
O12 O 0.4282(4) 0.8467(4) 0.4173(4)
O13 O 0.5707(5) 0.8775(5) -0.0485(5)
O14 O 0.5153(4) 0.7500 0.0447(5)
O15 O 0.8527(5) 0.6843(5) 0.3563(6)
N1 N 0.6404(4) 0.9857(5) 0.1594(5)
N2 N 0.4892(4) 1.0545(5) 0.3005(5)
N3 N 0.6279(4) 1.0462(4) 0.3107(5)
C1 C 0.6470(5) 0.9751(6) 0.0773(7)
H1 H 0.6080 0.9832 0.0416
C2 C 0.6956(5) 0.9776(6) 0.2104(7)
C3 C 0.7612(6) 0.9570(7) 0.1796(8)
H2 H 0.8005 0.9523 0.2157
C4 C 0.6832(5) 0.9896(6) 0.3020(6)
H3 H 0.7269 1.0055 0.3296
H4 H 0.6676 0.9444 0.3289
C5 C 0.6602(5) 1.1182(5) 0.2989(6)
H5 H 0.6984 1.1234 0.3404
H6 H 0.6817 1.1196 0.2426
C6 C 0.6132(5) 1.1811(5) 0.3071(6)
H7 H 0.5943 1.1838 0.3648
H8 H 0.5734 1.1766 0.2677
C7 C 0.4226(6) 1.0718(6) 0.2844(8)
H9 H 0.4066 1.0705 0.2280
C8 C 0.3771(6) 1.0912(8) 0.3458(9)
H10 H 0.3293 1.1005 0.3333
C9 C 0.7665(6) 0.9438(8) 0.0946(9)
H11 H 0.8099 0.9285 0.0718
C10 C 0.7100(6) 0.9525(8) 0.0430(8)
H12 H 0.7138 0.9432 -0.0154
C11 C 0.5143(6) 1.0602(6) 0.3791(7)
C12 C 0.5896(5) 1.0423(6) 0.3913(6)
H13 H 0.6107 1.0763 0.4317
H14 H 0.5938 0.9933 0.4148
C13 C 0.4714(6) 1.0813(7) 0.4431(7)
H15 H 0.4895 1.0851 0.4983
C14 C 0.4023(7) 1.0971(8) 0.4283(9)
H16 H 0.3723 1.1116 0.4726
C15 C 0.6561(10) 1.2500 0.2869(12)
C16 C 0.6179(8) 0.7500 0.1577(13)
C17 C 0.7570(9) 0.7500 0.2639(11)
C18 C 0.7435(11) 0.7836(14) 0.1849(19)
C19 C 0.6587(11) 0.7970(17) 0.174(3)
Mo1F Mo 0.42039(4) 0.59026(4) 0.14083(5)
Mo1C Mo 0.92039(4) 0.59026(4) 0.35917(5)
Mo1E Mo 0.92039(4) 0.90974(4) 0.35917(5)
Mo2C Mo 0.96992(4) 0.66062(5) 0.17756(5)
Mo2E Mo 0.96992(4) 0.83938(5) 0.17756(5)
Mo2F Mo 0.46992(4) 0.66062(5) 0.32244(5)
Mo3F Mo 0.49130(5) 0.66309(4) -0.05626(5)
Mo3D Mo 0.50870(5) 1.16309(4) 0.05626(5)
Cu1F Cu 0.55773(6) 0.47870(6) 0.21896(7)
Cu1D Cu 0.44227(6) 0.97870(6) -0.21896(7)
Cu1F_2 Cu 0.55773(6) 1.47870(6) 0.21896(7)
O1F O 0.4888(3) 0.5292(3) 0.1494(4)
O2F O 0.4090(3) 0.6020(4) 0.2597(4)
O2C O 0.9090(3) 0.6020(4) 0.2403(4)
O4C O 0.3946(4) 0.7500 0.2753(5)
O5C O 1.0188(4) 0.7500 0.1646(5)
O6D O 0.5497(5) 1.1200(4) 0.1370(4)
O6F O 0.4503(5) 0.6200(4) -0.1370(4)
O6B O 0.5497(5) 0.3800(4) 0.1370(4)
O7C O 1.0416(4) 0.6053(4) 0.1699(5)
O9F O 0.4981(3) 0.6822(3) 0.1796(4)
O9C O 0.9981(3) 0.6822(3) 0.3204(4)
O10F O 0.3502(3) 0.5372(4) 0.1229(5)
O11F O 0.4402(4) 0.6232(4) 0.0328(4)
O12C O 0.9282(4) 0.6533(4) 0.0827(4)
O13F O 0.5707(5) 0.6225(5) -0.0485(5)
O15F O 0.8527(5) 0.8157(5) 0.3563(6)
O15C O 0.3527(5) 0.8157(5) 0.1437(6)
O15E O 0.3527(5) 0.6843(5) 0.1437(6)
N1F N 0.6404(4) 1.5143(5) 0.1594(5)
N1F_2 N 0.6404(4) 0.5143(5) 0.1594(5)
N2F N 0.4892(4) 1.4455(5) 0.3005(5)
N2F_2 N 0.4892(4) 0.4455(5) 0.3005(5)
N3F N 0.6279(4) 1.4538(4) 0.3107(5)
N3F_2 N 0.6279(4) 0.4538(4) 0.3107(5)
C1F C 0.6470(5) 1.5249(6) 0.0773(7)
H1F H 0.6080 1.5168 0.0416
C2F C 0.6956(5) 1.5224(6) 0.2104(7)
C3F C 0.7612(6) 1.5430(7) 0.1796(8)
H2F H 0.8005 1.5477 0.2157
C4F C 0.6832(5) 1.5104(6) 0.3020(6)
H3F H 0.7269 1.4945 0.3296
H4F H 0.6676 1.5556 0.3289
C5F C 0.6602(5) 1.3818(5) 0.2989(6)
H5F H 0.6984 1.3766 0.3404
H6F H 0.6817 1.3804 0.2426
C6F C 0.6132(5) 1.3189(5) 0.3071(6)
H7F H 0.5943 1.3162 0.3648
H8F H 0.5734 1.3234 0.2677
C7F C 0.4226(6) 1.4282(6) 0.2844(8)
H9F H 0.4066 1.4295 0.2280
C8F C 0.3771(6) 1.4088(8) 0.3458(9)
H10F H 0.3293 1.3995 0.3333
C9F C 0.7665(6) 1.5562(8) 0.0946(9)
H11F H 0.8099 1.5715 0.0718
C10F C 0.7100(6) 1.5475(8) 0.0430(8)
H12F H 0.7138 1.5568 -0.0154
C11F C 0.5143(6) 1.4398(6) 0.3791(7)
C12F C 0.5896(5) 1.4577(6) 0.3913(6)
H13F H 0.6107 1.4237 0.4317
H14F H 0.5938 1.5067 0.4148
C13F C 0.4714(6) 1.4187(7) 0.4431(7)
H15F H 0.4895 1.4149 0.4983
C14F C 0.4023(7) 1.4029(8) 0.4283(9)
H16F H 0.3723 1.3884 0.4726
C18F C 0.7435(11) 0.7164(14) 0.1849(19)
C19F C 0.6587(11) 0.7030(17) 0.174(3)
loop_
_geom_bond_atom_site_label_1
_geom_bond_atom_site_label_2
_geom_bond_site_symmetry_1
_geom_bond_site_symmetry_2
Mo1 O1 1_555 1_555
Mo2 O2 1_555 1_555
Mo3 O3 1_555 1_555
Cu1 O1 1_555 1_555
P1 O9 1_555 1_555
P2 O4 1_555 1_555
O2 Mo1 1_555 1_555
O3 Mo3F 1_555 1_555
O4 Mo2C 1_555 1_555
O5 Mo2 1_555 1_555
O6 Mo3 1_555 1_555
O7 Mo2 1_555 1_555
O8 Mo3 1_555 1_555
O9 Mo1 1_555 1_555
O10 Mo1 1_555 1_555
O11 Mo1 1_555 1_555
O12 Mo2 1_555 1_555
O13 Mo3 1_555 1_555
O14 Mo3 1_555 1_555
O15 P2 1_555 1_555
N1 Cu1 1_555 1_555
N2 Cu1 1_555 1_555
N3 Cu1 1_555 1_555
C1 N1 1_555 1_555
H1 C1 1_555 1_555
C2 N1 1_555 1_555
C3 C2 1_555 1_555
H2 C3 1_555 1_555
C4 N3 1_555 1_555
H3 C4 1_555 1_555
H4 C4 1_555 1_555
C5 N3 1_555 1_555
H5 C5 1_555 1_555
H6 C5 1_555 1_555
C6 C5 1_555 1_555
H7 C6 1_555 1_555
H8 C6 1_555 1_555
C7 N2 1_555 1_555
H9 C7 1_555 1_555
C8 C7 1_555 1_555
H10 C8 1_555 1_555
C9 C3 1_555 1_555
H11 C9 1_555 1_555
C10 C1 1_555 1_555
H12 C10 1_555 1_555
C11 N2 1_555 1_555
C12 N3 1_555 1_555
H13 C12 1_555 1_555
H14 C12 1_555 1_555
C13 C11 1_555 1_555
H15 C13 1_555 1_555
C14 C8 1_555 1_555
H16 C14 1_555 1_555
C15 C6 1_555 1_555
C16 P1 1_555 1_555
C17 P2 1_555 1_555
C18 C17 1_555 1_555
C19 C16 1_555 1_555
Mo1F O1F 1_555 1_555
Mo1C O15 1_555 1_555
Mo1E O15F 1_555 1_555
Mo2C O2C 1_555 1_555
Mo2E O4 1_555 1_555
Mo2F O5 1_555 1_555
Mo3F O8 1_555 1_555
Mo3D O6D 1_555 1_555
Cu1F O1F 1_555 1_555
Cu1D O6 1_555 1_555
Cu1F_2 N1F 1_555 1_555
O2F Mo1F 1_555 1_555
O2C Mo1C 1_555 1_555
O4C Mo2 1_555 1_555
O5C Mo2C 1_555 1_555
O6D Cu1 1_555 1_555
O6F Mo3F 1_555 1_555
O6B Cu1F 1_555 1_555
O7C Mo2C 1_555 1_555
O9F P1 1_555 1_555
O9C Mo1C 1_555 1_555
O10F Mo1F 1_555 1_555
O11F Mo1F 1_555 1_555
O12C Mo2C 1_555 1_555
O13F Mo3F 1_555 1_555
O15F P2 1_555 1_555
O15C Mo1 1_555 1_555
O15E Mo1F 1_555 1_555
N1F C1F 1_555 1_555
N1F_2 Cu1F 1_555 1_555
N2F Cu1F_2 1_555 1_555
N2F_2 Cu1F 1_555 1_555
N3F Cu1F_2 1_555 1_555
N3F_2 Cu1F 1_555 1_555
C1F H1F 1_555 1_555
C2F N1F 1_555 1_555
C3F C2F 1_555 1_555
H2F C3F 1_555 1_555
C4F N3F 1_555 1_555
H3F C4F 1_555 1_555
H4F C4F 1_555 1_555
C5F N3F 1_555 1_555
H5F C5F 1_555 1_555
H6F C5F 1_555 1_555
C6F C15 1_555 1_555
H7F C6F 1_555 1_555
H8F C6F 1_555 1_555
C7F N2F 1_555 1_555
H9F C7F 1_555 1_555
C8F C7F 1_555 1_555
H10F C8F 1_555 1_555
C9F C3F 1_555 1_555
H11F C9F 1_555 1_555
C10F C1F 1_555 1_555
H12F C10F 1_555 1_555
C11F N2F 1_555 1_555
C12F N3F 1_555 1_555
H13F C12F 1_555 1_555
H14F C12F 1_555 1_555
C13F C11F 1_555 1_555
H15F C13F 1_555 1_555
C14F C8F 1_555 1_555
H16F C14F 1_555 1_555
C18F C17 1_555 1_555
C19F C16 1_555 1_555
Mo2 O9 1_555 1_555
Mo3 O11 1_555 1_555
P1 O14 1_555 1_555
O14 Mo3F 1_555 1_555
C2 C4 1_555 1_555
C9 C10 1_555 1_555
C11 C12 1_555 1_555
C13 C14 1_555 1_555
C18 C19 1_555 1_555
C18 C18F 1_555 1_555
C19 C19F 1_555 1_555
Mo1F O9F 1_555 1_555
Mo2C O9C 1_555 1_555
Mo2E O5C 1_555 1_555
Mo2F O2F 1_555 1_555
Mo2F O4C 1_555 1_555
Mo2F O9F 1_555 1_555
Mo3F O11F 1_555 1_555
C2F C4F 1_555 1_555
C5F C6F 1_555 1_555
C9F C10F 1_555 1_555
C11F C12F 1_555 1_555
C13F C14F 1_555 1_555
C18F C19F 1_555 1_555

#END
