
#######################################################################
#
#                 Cambridge Crystallographic Data Centre
#                                CCDC 
#
#######################################################################
#
# If this CIF has been generated from an entry in the Cambridge 
# Structural Database, then it will include bibliographic, chemical, 
# crystal, experimental, refinement or atomic coordinate data resulting 
# from the CCDC's data processing and validation procedures.
#
#######################################################################

data_PECJEO
_symmetry_cell_setting           monoclinic
_symmetry_space_group_name_H-M   'P 21/c'
_symmetry_Int_Tables_number      14
_space_group_name_Hall           '-P 2ybc'
loop_
_symmetry_equiv_pos_site_id
_symmetry_equiv_pos_as_xyz
1 x,y,z
2 -x,1/2+y,1/2-z
3 -x,-y,-z
4 x,1/2-y,1/2+z
_cell_length_a                   12.1059(6)
_cell_length_b                   11.6068(6)
_cell_length_c                   17.7819(9)
_cell_angle_alpha                90
_cell_angle_beta                 109.81(2)
_cell_angle_gamma                90
_cell_volume                     2350.69
loop_
_atom_site_label
_atom_site_type_symbol
_atom_site_fract_x
_atom_site_fract_y
_atom_site_fract_z
Cd1 Cd 0.457247(16) 0.856369(16) 0.129014(10)
O1 O 0.97313(19) 0.5060(2) 0.28042(14)
O3 O 1.0037(2) 0.2697(2) -0.05357(13)
O5 O 0.59285(17) 0.99408(17) 0.11237(12)
O6 O 0.59851(19) 0.97614(18) 0.23654(12)
O7 O 0.61977(18) 1.28343(18) 0.26585(12)
O8 O 0.67865(18) 1.20648(19) 0.38577(12)
O9 O 0.4055(2) 0.83278(19) -0.00776(13)
H5 H 0.428(3) 0.775(2) -0.028(2)
H6 H 0.409(3) 0.893(2) -0.0349(19)
N1 N 0.6081(2) 0.7232(2) 0.15466(14)
N2 N 0.8916(2) 0.3888(2) 0.17324(15)
N3 N 1.0115(2) 0.3178(2) 0.07139(15)
N4 N 1.3130(2) -0.0013(2) 0.09676(15)
C1 C 0.6366(2) 1.0196(2) 0.18572(17)
C2 C 0.7390(2) 1.1023(3) 0.21008(16)
H7 H 0.7182 1.1701 0.1742
H8 H 0.8070 1.0642 0.2016
C3 C 0.7765(3) 1.1444(2) 0.29629(18)
H9 H 0.7969 1.0767 0.3322
H10 H 0.8484 1.1917 0.3073
C4 C 0.6849(2) 1.2149(2) 0.31630(16)
C5 C 0.6957(2) 0.5449(3) 0.21194(17)
H11 H 0.6907 0.4763 0.2398
C6 C 0.6072(3) 0.6257(3) 0.19426(18)
H12 H 0.5420 0.6113 0.2112
C7 C 0.7008(3) 0.7411(2) 0.13011(17)
H13 H 0.7018 0.8090 0.1005
C8 C 0.7944(3) 0.6656(3) 0.14595(18)
H14 H 0.8585 0.6819 0.1283
C9 C 0.7925(2) 0.5653(2) 0.18839(16)
C10 C 0.8951(2) 0.4848(3) 0.21700(17)
C11 C 0.8277(3) 0.3793(3) 0.08753(19)
H15 H 0.7641 0.4374 0.0711
H16 H 0.7918 0.3019 0.0751
C12 C 0.9123(3) 0.3986(3) 0.04228(17)
H17 H 0.8711 0.3865 -0.0156
H18 H 0.9417 0.4789 0.0503
C13 C 0.9882(3) 0.3052(3) 0.20231(19)
H19 H 0.9562 0.2259 0.1943
H20 H 1.0295 0.3168 0.2602
C14 C 1.0737(3) 0.3204(3) 0.15766(17)
H21 H 1.1153 0.3948 0.1727
H22 H 1.1329 0.2579 0.1726
C15 C 1.0465(2) 0.2579(3) 0.01887(18)
C16 C 1.1417(3) 0.1699(3) 0.05154(18)
C17 C 1.1151(3) 0.0607(3) 0.07186(18)
H23 H 1.0385 0.0432 0.0718
C18 C 1.2023(3) -0.0227(3) 0.09223(18)
H24 H 1.1825 -0.0984 0.1035
C19 C 1.3385(3) 0.1053(3) 0.08006(19)
H25 H 1.4173 0.1222 0.0845
C20 C 1.2560(3) 0.1930(3) 0.05654(19)
H26 H 1.2776 0.2674 0.0441
Cd1A Cd 0.542753(16) 1.356369(16) 0.370986(10)
Cd1_2 Cd 1.457247(16) -0.143631(16) 0.129014(10)
O7A O 0.38023(18) 0.78343(18) 0.23415(12)
O8A O 0.32135(18) 0.70648(19) 0.11423(12)
N4_2 N 0.3130(2) 0.9987(2) 0.09676(15)
C4A C 0.3151(2) 0.7149(2) 0.18370(16)
O2 O 0.6563(2) 0.9647(2) 0.40500(14)
H1 H 0.662(4) 1.0354(19) 0.419(2)
H2 H 0.643(4) 0.959(3) 0.3560(12)
O4 O 0.4605(2) 0.6702(2) -0.09942(15)
H3 H 0.433(3) 0.680(4) -0.1491(12)
H4 H 0.513(3) 0.620(3) -0.091(2)
loop_
_geom_bond_atom_site_label_1
_geom_bond_atom_site_label_2
_geom_bond_site_symmetry_1
_geom_bond_site_symmetry_2
Cd1 O5 1_555 1_555
O1 C10 1_555 1_555
O2 H1 1_555 1_555
H2 O2 1_555 1_555
O3 C15 1_555 1_555
O4 H3 1_555 1_555
H4 O4 1_555 1_555
O5 C1 1_555 1_555
O6 Cd1 1_555 1_555
O7 C4 1_555 1_555
O8 C4 1_555 1_555
O9 Cd1 1_555 1_555
H5 O9 1_555 1_555
H6 O9 1_555 1_555
N1 Cd1 1_555 1_555
N2 C10 1_555 1_555
N3 C12 1_555 1_555
N4 C18 1_555 1_555
C1 O6 1_555 1_555
C2 C1 1_555 1_555
H7 C2 1_555 1_555
H8 C2 1_555 1_555
C3 C2 1_555 1_555
H9 C3 1_555 1_555
H10 C3 1_555 1_555
C4 C3 1_555 1_555
C5 H11 1_555 1_555
C6 N1 1_555 1_555
H12 C6 1_555 1_555
C7 N1 1_555 1_555
H13 C7 1_555 1_555
C8 C7 1_555 1_555
H14 C8 1_555 1_555
C9 C5 1_555 1_555
C10 C9 1_555 1_555
C11 N2 1_555 1_555
H15 C11 1_555 1_555
H16 C11 1_555 1_555
C12 C11 1_555 1_555
H17 C12 1_555 1_555
H18 C12 1_555 1_555
C13 N2 1_555 1_555
H19 C13 1_555 1_555
H20 C13 1_555 1_555
C14 N3 1_555 1_555
H21 C14 1_555 1_555
H22 C14 1_555 1_555
C15 N3 1_555 1_555
C16 C15 1_555 1_555
C17 C16 1_555 1_555
H23 C17 1_555 1_555
C18 C17 1_555 1_555
H24 C18 1_555 1_555
C19 N4 1_555 1_555
H25 C19 1_555 1_555
C20 C16 1_555 1_555
H26 C20 1_555 1_555
Cd1A O7 1_555 1_555
Cd1_2 N4 1_555 1_555
O7A Cd1 1_555 1_555
O8A Cd1 1_555 1_555
N4_2 Cd1 1_555 1_555
C4A O7A 1_555 1_555
O8 Cd1A 1_555 1_555
C5 C6 1_555 1_555
C8 C9 1_555 1_555
C13 C14 1_555 1_555
C19 C20 1_555 1_555
O8A C4A 1_555 1_555

#END
