
#######################################################################
#
#                 Cambridge Crystallographic Data Centre
#                                CCDC 
#
#######################################################################
#
# If this CIF has been generated from an entry in the Cambridge 
# Structural Database, then it will include bibliographic, chemical, 
# crystal, experimental, refinement or atomic coordinate data resulting 
# from the CCDC's data processing and validation procedures.
#
#######################################################################

data_PECMOB
_symmetry_cell_setting           triclinic
_symmetry_space_group_name_H-M   'P -1'
_symmetry_Int_Tables_number      2
_space_group_name_Hall           '-P 1'
loop_
_symmetry_equiv_pos_site_id
_symmetry_equiv_pos_as_xyz
1 x,y,z
2 -x,-y,-z
_cell_length_a                   10.122(5)
_cell_length_b                   10.806(4)
_cell_length_c                   13.723(5)
_cell_angle_alpha                79.153(2)
_cell_angle_beta                 78.796(4)
_cell_angle_gamma                86.392(2)
_cell_volume                     1445.54
loop_
_atom_site_label
_atom_site_type_symbol
_atom_site_fract_x
_atom_site_fract_y
_atom_site_fract_z
Co1 Co 0.0000 0.5000 0.5000
Sm1 Sm -0.31899(2) 0.07748(2) 0.703130(18)
C1 C -0.2984(5) 0.4723(5) 0.7268(4)
C2 C -0.3217(5) 0.4174(5) 0.8286(4)
H1 H -0.3274 0.3303 0.8470
C3 C -0.3364(5) 0.4904(5) 0.9025(4)
C4 C -0.3348(5) 0.6208(5) 0.8743(4)
H2 H -0.3465 0.6713 0.9234
C5 C -0.3159(5) 0.6751(5) 0.7737(4)
C6 C -0.2962(5) 0.6019(5) 0.6996(4)
H3 H -0.2815 0.6396 0.6319
C7 C -0.3127(5) 0.8151(5) 0.7472(4)
C8 C -0.2674(5) 0.3941(5) 0.6463(4)
C9 C -0.3339(6) 0.4822(6) 1.0819(4)
C10 C -0.3479(5) 0.4003(5) 1.1839(4)
C11 C -0.3486(6) 0.2699(6) 1.2018(4)
H4 H -0.3457 0.2262 1.1491
C12 C -0.3538(6) 0.2063(6) 1.2991(5)
H5 H -0.3534 0.1187 1.3101
C13 C -0.3606(7) 0.3870(7) 1.3606(5)
H6 H -0.3653 0.4283 1.4149
C14 C -0.3554(6) 0.4582(6) 1.2659(5)
H7 H -0.3569 0.5457 1.2573
C15 C 0.2625(5) 0.1142(5) -0.1681(4)
C16 C 0.1586(5) 0.1039(5) -0.2164(4)
H8 H 0.1766 0.0862 -0.2815
C17 C 0.0259(5) 0.1200(5) -0.1683(4)
C18 C -0.0008(5) 0.1496(5) -0.0727(4)
H9 H -0.0894 0.1612 -0.0408
C19 C 0.1042(5) 0.1622(5) -0.0242(4)
C20 C 0.2346(5) 0.1419(5) -0.0702(4)
H10 H 0.3048 0.1466 -0.0363
C21 C 0.4071(5) 0.0981(5) -0.2150(4)
C22 C -0.0911(5) 0.1094(5) -0.2176(4)
C23 C -0.0059(5) 0.2950(5) 0.0922(4)
C24 C -0.0095(5) 0.3383(5) 0.1903(4)
C25 C -0.0170(5) 0.2574(6) 0.2811(4)
H11 H -0.0171 0.1707 0.2841
C26 C -0.0246(6) 0.3064(6) 0.3673(4)
H12 H -0.0328 0.2508 0.4287
C27 C -0.0150(6) 0.5066(6) 0.2786(4)
H13 H -0.0140 0.5929 0.2770
C28 C -0.0106(6) 0.4656(6) 0.1892(4)
H14 H -0.0084 0.5228 0.1292
N1 N -0.3537(4) 0.4308(4) 1.0040(3)
H15 H -0.3795 0.3541 1.0178
N2 N -0.3593(6) 0.2616(5) 1.3782(4)
N3 N 0.0789(4) 0.1982(4) 0.0726(3)
H16 H 0.1186 0.1572 0.1193
N4 N -0.0207(4) 0.4296(4) 0.3679(3)
O1 O -0.1929(4) 0.4356(4) 0.5649(3)
O2 O -0.3201(4) 0.2874(3) 0.6644(3)
O3 O -0.3293(5) 0.8710(4) 0.6612(3)
O4 O -0.2939(5) 0.8772(4) 0.8105(3)
O5 O -0.3079(6) 0.5917(4) 1.0740(4)
O6 O 0.4410(4) 0.0989(4) -0.3093(3)
O7 O 0.4963(4) 0.0840(5) -0.1625(3)
O8 O -0.0732(4) 0.0948(4) -0.3092(3)
O9 O -0.2082(3) 0.1146(4) -0.1674(3)
O10 O -0.0754(4) 0.3513(4) 0.0331(3)
O11 O 0.0742(4) 0.3168(4) 0.5669(3)
H17 H 0.1355 0.2799 0.5299
H18 H 0.0109 0.2749 0.6003
O12 O -0.2806(4) 0.0946(4) 0.5281(3)
H19 H -0.3042 0.0257 0.5162
H20 H -0.3308 0.1525 0.5021
Sm1A Sm -0.68101(2) 0.92252(2) 1.296870(18)
Sm1_2 Sm 0.68101(2) 0.07748(2) -0.296870(18)
Sm1_3 Sm -0.31899(2) 1.07748(2) 0.703130(18)
Sm1_4 Sm -0.31899(2) 0.07748(2) -0.296870(18)
Sm1A_2 Sm 0.31899(2) 0.92252(2) 1.296870(18)
Sm1A_3 Sm 0.31899(2) 0.92252(2) 0.296870(18)
Sm1A_4 Sm 0.31899(2) -0.07748(2) 0.296870(18)
C1A C 0.2984(5) 0.5277(5) 0.2732(4)
C2A C 0.3217(5) 0.5826(5) 0.1714(4)
H1A H 0.3274 0.6697 0.1530
C3A C 0.3364(5) 0.5096(5) 0.0975(4)
C4A C 0.3348(5) 0.3792(5) 0.1257(4)
H2A H 0.3465 0.3287 0.0766
C5A C 0.3159(5) 0.3249(5) 0.2263(4)
C6A C 0.2962(5) 0.3981(5) 0.3004(4)
H3A H 0.2815 0.3604 0.3681
C7A C 0.3127(5) 0.1849(5) 0.2528(4)
C8A C 0.2674(5) 0.6059(5) 0.3537(4)
C9A C 0.3339(6) 0.5178(6) -0.0819(4)
C10A C 0.3479(5) 0.5997(5) -0.1839(4)
C11A C 0.3486(6) 0.7301(6) -0.2018(4)
H4A H 0.3457 0.7738 -0.1491
C12A C 0.3538(6) 0.7937(6) -0.2991(5)
H5A H 0.3534 0.8813 -0.3101
C13A C 0.3606(7) 0.6130(7) -0.3606(5)
H6A H 0.3653 0.5717 -0.4149
C14A C 0.3554(6) 0.5418(6) -0.2659(5)
H7A H 0.3569 0.4543 -0.2573
C15A C -0.2625(5) 0.8858(5) 1.1681(4)
C16A C -0.1586(5) 0.8961(5) 1.2164(4)
H8A H -0.1766 0.9138 1.2815
C17A C -0.0259(5) 0.8800(5) 1.1683(4)
C18A C 0.0008(5) 0.8504(5) 1.0727(4)
H9A H 0.0894 0.8388 1.0408
C19A C -0.1042(5) 0.8378(5) 1.0242(4)
C20A C -0.2346(5) 0.8581(5) 1.0702(4)
H10A H -0.3048 0.8534 1.0363
C21A C -0.4071(5) 0.9019(5) 1.2150(4)
C22A C 0.0911(5) 0.8906(5) 1.2176(4)
C23A C 0.0059(5) 0.7050(5) 0.9078(4)
C24A C 0.0095(5) 0.6617(5) 0.8097(4)
C25A C 0.0170(5) 0.7426(6) 0.7189(4)
H11A H 0.0171 0.8293 0.7159
C26A C 0.0246(6) 0.6936(6) 0.6327(4)
H12A H 0.0328 0.7492 0.5713
C27A C 0.0150(6) 0.4934(6) 0.7214(4)
H13A H 0.0140 0.4071 0.7230
C28A C 0.0106(6) 0.5344(6) 0.8108(4)
H14A H 0.0084 0.4772 0.8708
N1A N 0.3537(4) 0.5692(4) -0.0040(3)
H15A H 0.3795 0.6459 -0.0178
N2A N 0.3593(6) 0.7384(5) -0.3782(4)
N3A N -0.0789(4) 0.8018(4) 0.9274(3)
H16A H -0.1186 0.8428 0.8807
N4A N 0.0207(4) 0.5704(4) 0.6321(3)
O1A O 0.1929(4) 0.5644(4) 0.4351(3)
O2A O 0.3201(4) 0.7126(3) 0.3356(3)
O3A O 0.3293(5) 0.1290(4) 0.3388(3)
O3_2 O -0.3293(5) -0.1290(4) 0.6612(3)
O3A_2 O 0.3293(5) 1.1290(4) 0.3388(3)
O4A O 0.2939(5) 0.1228(4) 0.1895(3)
O4_2 O -0.2939(5) -0.1228(4) 0.8105(3)
O4A_2 O 0.2939(5) 1.1228(4) 0.1895(3)
O5A O 0.3079(6) 0.4083(4) -0.0740(4)
O6A O -0.4410(4) 0.9011(4) 1.3093(3)
O6_2 O -0.5590(4) 0.0989(4) 0.6907(3)
O6A_2 O 0.5590(4) 0.9011(4) 0.3093(3)
O7A O -0.4963(4) 0.9160(5) 1.1625(3)
O7_2 O -0.5037(4) 0.0840(5) 0.8375(3)
O7A_2 O 0.5037(4) 0.9160(5) 0.1625(3)
O8A O 0.0732(4) 0.9052(4) 1.3092(3)
O8_2 O -0.0732(4) 0.0948(4) 0.6908(3)
O8A_2 O 0.0732(4) 0.9052(4) 0.3092(3)
O9A O 0.2082(3) 0.8854(4) 1.1674(3)
O9_2 O -0.2082(3) 0.1146(4) 0.8326(3)
O9A_2 O 0.2082(3) 0.8854(4) 0.1674(3)
O10A O 0.0754(4) 0.6487(4) 0.9669(3)
O11A O -0.0742(4) 0.6832(4) 0.4331(3)
H17A H -0.1355 0.7201 0.4701
H18A H -0.0109 0.7251 0.3997
O12A O 0.2806(4) 0.9054(4) 0.4719(3)
H19A H 0.3042 0.9743 0.4838
H20A H 0.3308 0.8475 0.4979
O13 O -0.3012(5) 0.8364(6) 0.4664(4)
H21 H -0.3279 0.8571 0.5239
H22 H -0.3577 0.8652 0.4288
O14 O -0.4153(7) 0.1603(5) 0.0157(4)
H23 H -0.4363 0.0908 0.0547
H24 H -0.3729 0.1472 -0.0415
loop_
_geom_bond_atom_site_label_1
_geom_bond_atom_site_label_2
_geom_bond_site_symmetry_1
_geom_bond_site_symmetry_2
Co1 N4 1_555 1_555
Sm1 O2 1_555 1_555
C1 C2 1_555 1_555
C2 H1 1_555 1_555
C3 C2 1_555 1_555
C4 C3 1_555 1_555
H2 C4 1_555 1_555
C5 C4 1_555 1_555
C6 C1 1_555 1_555
H3 C6 1_555 1_555
C7 C5 1_555 1_555
C8 C1 1_555 1_555
C9 C10 1_555 1_555
C10 C11 1_555 1_555
C11 H4 1_555 1_555
C12 C11 1_555 1_555
H5 C12 1_555 1_555
C13 H6 1_555 1_555
C14 C10 1_555 1_555
H7 C14 1_555 1_555
C15 C16 1_555 1_555
C16 H8 1_555 1_555
C17 C16 1_555 1_555
C18 C17 1_555 1_555
H9 C18 1_555 1_555
C19 C18 1_555 1_555
C20 C15 1_555 1_555
H10 C20 1_555 1_555
C21 C15 1_555 1_555
C22 C17 1_555 1_555
C23 C24 1_555 1_555
C24 C25 1_555 1_555
C25 H11 1_555 1_555
C26 C25 1_555 1_555
H12 C26 1_555 1_555
C27 H13 1_555 1_555
C28 C24 1_555 1_555
H14 C28 1_555 1_555
N1 C3 1_555 1_555
H15 N1 1_555 1_555
N2 C12 1_555 1_555
N3 C19 1_555 1_555
H16 N3 1_555 1_555
N4 C26 1_555 1_555
O1 Co1 1_555 1_555
O2 C8 1_555 1_555
O3 C7 1_555 1_555
O4 C7 1_555 1_555
O5 C9 1_555 1_555
O6 C21 1_555 1_555
O7 C21 1_555 1_555
O8 C22 1_555 1_555
O9 C22 1_555 1_555
O10 C23 1_555 1_555
O11 Co1 1_555 1_555
H17 O11 1_555 1_555
H18 O11 1_555 1_555
O12 Sm1 1_555 1_555
H19 O12 1_555 1_555
H20 O12 1_555 1_555
O13 H21 1_555 1_555
H22 O13 1_555 1_555
O14 H23 1_555 1_555
H24 O14 1_555 1_555
Sm1A O6A 1_555 1_555
Sm1_2 O6 1_555 1_555
Sm1_3 O3 1_555 1_555
Sm1_4 O8 1_555 1_555
Sm1A_2 O8A 1_555 1_555
Sm1A_3 O2A 1_555 1_555
Sm1A_4 O3A 1_555 1_555
C1A C2A 1_555 1_555
C2A H1A 1_555 1_555
C3A C2A 1_555 1_555
C4A C3A 1_555 1_555
H2A C4A 1_555 1_555
C5A C4A 1_555 1_555
C6A C1A 1_555 1_555
H3A C6A 1_555 1_555
C7A C5A 1_555 1_555
C8A C1A 1_555 1_555
C9A C10A 1_555 1_555
C10A C11A 1_555 1_555
C11A H4A 1_555 1_555
C12A C11A 1_555 1_555
H5A C12A 1_555 1_555
C13A H6A 1_555 1_555
C14A C10A 1_555 1_555
H7A C14A 1_555 1_555
C15A C16A 1_555 1_555
C16A H8A 1_555 1_555
C17A C16A 1_555 1_555
C18A C17A 1_555 1_555
H9A C18A 1_555 1_555
C19A C18A 1_555 1_555
C20A C15A 1_555 1_555
H10A C20A 1_555 1_555
C21A C15A 1_555 1_555
C22A C17A 1_555 1_555
C23A C24A 1_555 1_555
C24A C25A 1_555 1_555
C25A H11A 1_555 1_555
C26A C25A 1_555 1_555
H12A C26A 1_555 1_555
C27A H13A 1_555 1_555
C28A C24A 1_555 1_555
H14A C28A 1_555 1_555
N1A C3A 1_555 1_555
H15A N1A 1_555 1_555
N2A C12A 1_555 1_555
N3A C19A 1_555 1_555
H16A N3A 1_555 1_555
N4A Co1 1_555 1_555
O1A Co1 1_555 1_555
O2A C8A 1_555 1_555
O3A C7A 1_555 1_555
O3_2 Sm1 1_555 1_555
O3A_2 Sm1A_3 1_555 1_555
O4A Sm1A_4 1_555 1_555
O4_2 Sm1 1_555 1_555
O4A_2 Sm1A_3 1_555 1_555
O5A C9A 1_555 1_555
O6A C21A 1_555 1_555
O6_2 Sm1 1_555 1_555
O6A_2 Sm1A_3 1_555 1_555
O7A Sm1A 1_555 1_555
O7_2 Sm1 1_555 1_555
O7A_2 Sm1A_3 1_555 1_555
O8A C22A 1_555 1_555
O8_2 Sm1 1_555 1_555
O8A_2 Sm1A_3 1_555 1_555
O9A Sm1A_2 1_555 1_555
O9_2 Sm1 1_555 1_555
O9A_2 Sm1A_3 1_555 1_555
O10A C23A 1_555 1_555
O11A Co1 1_555 1_555
H17A O11A 1_555 1_555
H18A O11A 1_555 1_555
O12A Sm1A_3 1_555 1_555
H19A O12A 1_555 1_555
H20A O12A 1_555 1_555
C5 C6 1_555 1_555
C8 O1 1_555 1_555
C9 N1 1_555 1_555
C13 C14 1_555 1_555
C13 N2 1_555 1_555
C19 C20 1_555 1_555
C23 N3 1_555 1_555
C27 C28 1_555 1_555
C27 N4 1_555 1_555
O4 Sm1_3 1_555 1_555
O7 Sm1_2 1_555 1_555
O9 Sm1_4 1_555 1_555
C5A C6A 1_555 1_555
C7A O4A 1_555 1_555
C8A O1A 1_555 1_555
C9A N1A 1_555 1_555
C13A C14A 1_555 1_555
C13A N2A 1_555 1_555
C19A C20A 1_555 1_555
C21A O7A 1_555 1_555
C22A O9A 1_555 1_555
C23A N3A 1_555 1_555
C26A N4A 1_555 1_555
C27A C28A 1_555 1_555
C27A N4A 1_555 1_555

#END
