
#######################################################################
#
#                 Cambridge Crystallographic Data Centre
#                                CCDC 
#
#######################################################################
#
# If this CIF has been generated from an entry in the Cambridge 
# Structural Database, then it will include bibliographic, chemical, 
# crystal, experimental, refinement or atomic coordinate data resulting 
# from the CCDC's data processing and validation procedures.
#
#######################################################################

data_PECNES
_symmetry_cell_setting           orthorhombic
_symmetry_space_group_name_H-M   'P c c n'
_symmetry_Int_Tables_number      56
_space_group_name_Hall           '-P 2ab 2ac'
loop_
_symmetry_equiv_pos_site_id
_symmetry_equiv_pos_as_xyz
1 x,y,z
2 1/2-x,1/2-y,z
3 1/2+x,-y,1/2-z
4 -x,1/2+y,1/2-z
5 -x,-y,-z
6 1/2+x,1/2+y,-z
7 1/2-x,y,1/2+z
8 x,1/2-y,1/2+z
_cell_length_a                   21.6590(4)
_cell_length_b                   11.0123(3)
_cell_length_c                   16.9230(6)
_cell_angle_alpha                90
_cell_angle_beta                 90
_cell_angle_gamma                90
_cell_volume                     4036.4
loop_
_atom_site_label
_atom_site_type_symbol
_atom_site_fract_x
_atom_site_fract_y
_atom_site_fract_z
Cu1 Cu 0.148966(9) 0.020979(18) 0.234776(15)
O1 O 0.38197(5) -0.33463(11) 0.35312(9)
H1 H 0.4139 -0.3749 0.3493
O2 O 0.23512(5) -0.03442(10) 0.24983(8)
O3 O 0.52014(5) 0.03737(12) 0.16916(10)
O4 O 0.55988(5) -0.06169(11) 0.27281(9)
N1 N 0.14887(8) 0.27567(15) 0.41187(13)
O5 O 0.28897(6) 0.08265(13) 0.16750(11)
O6 O 0.02808(7) 0.31347(16) 0.46009(11)
C1 C 0.40036(7) -0.01897(16) 0.22380(12)
H2 H 0.4037 0.0491 0.1916
C2 C 0.28468(7) 0.00187(16) 0.21869(14)
C3 C 0.34241(7) -0.06157(14) 0.24577(12)
C4 C 0.39004(8) -0.22856(16) 0.31352(13)
C5 C 0.44787(7) -0.18267(16) 0.29411(12)
H3 H 0.4833 -0.2228 0.3110
C6 C 0.45302(7) -0.07778(15) 0.24979(12)
C7 C 0.51603(7) -0.02961(17) 0.22804(14)
N2 N 0.15728(7) 0.12202(14) 0.32988(11)
C8 C 0.13680(9) 0.23340(19) 0.34053(16)
H4 H 0.1161 0.2776 0.3019
C9 C 0.33782(7) -0.16569(16) 0.29021(12)
H5 H 0.2991 -0.1943 0.3048
C10 C -0.05549(12) 0.1765(2) 0.46255(16)
H6 H -0.0349 0.1323 0.4206
H7 H -0.0769 0.1181 0.4955
C11 C 0.07591(12) 0.3765(3) 0.50044(17)
H8 H 0.0892 0.3305 0.5463
H9 H 0.0612 0.4551 0.5181
C12 C 0.12863(12) 0.3921(2) 0.44387(17)
H10 H 0.1159 0.4447 0.4009
H11 H 0.1629 0.4308 0.4709
C13 C 0.18341(11) 0.0915(2) 0.40117(17)
H12 H 0.2020 0.0173 0.4124
C14 C -0.00883(12) 0.2417(3) 0.51059(18)
H13 H -0.0293 0.2929 0.5492
H14 H 0.0168 0.1838 0.5386
C15 C 0.17821(11) 0.1842(2) 0.45224(17)
H15 H 0.1917 0.1860 0.5044
N3 N -0.10055(8) 0.26100(15) 0.42799(12)
C16 C -0.09046(9) 0.33870(18) 0.36920(14)
H16 H -0.0530 0.3466 0.3430
C17 C -0.16003(10) 0.2776(2) 0.45200(16)
H17 H -0.1802 0.2370 0.4926
N4 N -0.14011(7) 0.40313(13) 0.35270(10)
C18 C -0.18331(10) 0.3636(2) 0.40567(16)
H18 H -0.2235 0.3928 0.4088
O7 O 0.17622(6) 0.17722(11) 0.14228(9)
H19 H 0.1779 0.2519 0.1561
H20 H 0.2130 0.1465 0.1420
Cu1B Cu 0.648966(9) -0.020979(18) 0.265224(15)
Cu1C Cu -0.148966(9) 0.520979(18) 0.265224(15)
O4B O 0.05988(5) 0.06169(11) 0.22719(9)
N4C N 0.14011(7) -0.09687(13) 0.14730(10)
loop_
_geom_bond_atom_site_label_1
_geom_bond_atom_site_label_2
_geom_bond_site_symmetry_1
_geom_bond_site_symmetry_2
Cu1 O2 1_555 1_555
O1 H1 1_555 1_555
O2 C2 1_555 1_555
O3 C7 1_555 1_555
O4 C7 1_555 1_555
N1 C8 1_555 1_555
O5 C2 1_555 1_555
O6 C11 1_555 1_555
C1 H2 1_555 1_555
C2 C3 1_555 1_555
C3 C1 1_555 1_555
C4 O1 1_555 1_555
C5 C4 1_555 1_555
H3 C5 1_555 1_555
C6 C1 1_555 1_555
C7 C6 1_555 1_555
N2 Cu1 1_555 1_555
C8 N2 1_555 1_555
H4 C8 1_555 1_555
C9 C3 1_555 1_555
H5 C9 1_555 1_555
C10 H6 1_555 1_555
H7 C10 1_555 1_555
C11 H8 1_555 1_555
H9 C11 1_555 1_555
C12 N1 1_555 1_555
H10 C12 1_555 1_555
H11 C12 1_555 1_555
C13 N2 1_555 1_555
H12 C13 1_555 1_555
C14 O6 1_555 1_555
H13 C14 1_555 1_555
H14 C14 1_555 1_555
C15 N1 1_555 1_555
H15 C15 1_555 1_555
N3 C10 1_555 1_555
C16 N3 1_555 1_555
H16 C16 1_555 1_555
C17 N3 1_555 1_555
H17 C17 1_555 1_555
N4 C16 1_555 1_555
C18 C17 1_555 1_555
H18 C18 1_555 1_555
O7 Cu1 1_555 1_555
H19 O7 1_555 1_555
H20 O7 1_555 1_555
Cu1B O4 1_555 1_555
Cu1C N4 1_555 1_555
O4B Cu1 1_555 1_555
N4C Cu1 1_555 1_555
C4 C9 1_555 1_555
C5 C6 1_555 1_555
C10 C14 1_555 1_555
C11 C12 1_555 1_555
C13 C15 1_555 1_555
N4 C18 1_555 1_555

#END
