
#######################################################################
#
#                 Cambridge Crystallographic Data Centre
#                                CCDC 
#
#######################################################################
#
# If this CIF has been generated from an entry in the Cambridge 
# Structural Database, then it will include bibliographic, chemical, 
# crystal, experimental, refinement or atomic coordinate data resulting 
# from the CCDC's data processing and validation procedures.
#
#######################################################################

data_PECPIX
_symmetry_cell_setting           trigonal
_symmetry_space_group_name_H-M   'P 31 2 1'
_symmetry_Int_Tables_number      152
_space_group_name_Hall           'P 31 2"'
loop_
_symmetry_equiv_pos_site_id
_symmetry_equiv_pos_as_xyz
1 x,y,z
2 -y,x-y,1/3+z
3 y,x,-z
4 -x+y,-x,2/3+z
5 -x,-x+y,1/3-z
6 x-y,-y,2/3-z
_cell_length_a                   25.164(4)
_cell_length_b                   25.164(4)
_cell_length_c                   29.389(6)
_cell_angle_alpha                90
_cell_angle_beta                 90
_cell_angle_gamma                120
_cell_volume                     16116.7
loop_
_atom_site_label
_atom_site_type_symbol
_atom_site_fract_x
_atom_site_fract_y
_atom_site_fract_z
C1 C 0.27403(18) -0.30680(18) 0.00980(14)
C2 C 0.30855(19) -0.3225(2) -0.02015(14)
H1 H 0.2879 -0.3565 -0.0401
C3 C 0.3710(2) -0.2889(2) -0.02031(15)
H2 H 0.3933 -0.2998 -0.0407
C4 C 0.4030(2) -0.2393(2) 0.00848(16)
H3 H 0.4466 -0.2174 0.0083
C5 C 0.3715(2) -0.2220(2) 0.03714(17)
H4 H 0.3932 -0.1873 0.0563
C6 C 0.3071(2) -0.2557(2) 0.03811(15)
H5 H 0.2856 -0.2437 0.0583
C7 C 0.16698(18) -0.3464(2) 0.06428(14)
C8 C 0.16224(19) -0.2953(2) 0.07699(17)
H6 H 0.1741 -0.2623 0.0563
C9 C 0.1398(2) -0.2927(3) 0.12059(19)
H7 H 0.1369 -0.2579 0.1292
C10 C 0.1223(2) -0.3406(3) 0.15056(19)
H8 H 0.1068 -0.3393 0.1797
C11 C 0.1273(2) -0.3894(2) 0.13828(17)
H9 H 0.1153 -0.4222 0.1592
C12 C 0.14958(19) -0.3931(2) 0.09573(14)
H10 H 0.1529 -0.4281 0.0882
C13 C 0.12841(18) -0.53238(19) 0.03156(12)
C14 C 0.1341(2) -0.5824(2) 0.04357(17)
H11 H 0.1730 -0.5797 0.0413
C15 C 0.0836(3) -0.6369(3) 0.0591(2)
H12 H 0.0878 -0.6710 0.0674
C16 C 0.0280(3) -0.6396(3) 0.06200(17)
H13 H -0.0069 -0.6764 0.0720
C17 C 0.0218(2) -0.5893(3) 0.05051(15)
H14 H -0.0170 -0.5915 0.0530
C18 C 0.07265(19) -0.5359(2) 0.03549(15)
H15 H 0.0687 -0.5013 0.0278
C19 C 0.21270(19) -0.4955(2) -0.03964(15)
C20 C 0.1665(2) -0.5238(2) -0.07303(14)
H16 H 0.1290 -0.5238 -0.0699
C21 C 0.1761(3) -0.5520(3) -0.11090(19)
H17 H 0.1463 -0.5693 -0.1344
C22 C 0.2276(3) -0.5540(3) -0.1132(2)
H18 H 0.2341 -0.5728 -0.1390
C23 C 0.2716(3) -0.5303(3) -0.0803(2)
H19 H 0.3075 -0.5335 -0.0825
C24 C 0.2624(2) -0.5012(3) -0.0435(2)
H20 H 0.2927 -0.4848 -0.0203
C25 C -0.01889(18) -0.5465(2) -0.18874(14)
C26 C -0.0679(2) -0.5412(2) -0.20196(17)
H21 H -0.0913 -0.5345 -0.1797
C27 C -0.0846(2) -0.5456(3) -0.24884(16)
H22 H -0.1177 -0.5400 -0.2582
C28 C -0.0513(2) -0.5582(3) -0.28047(16)
H23 H -0.0623 -0.5621 -0.3117
C29 C -0.0035(2) -0.5651(3) -0.26739(16)
H24 H 0.0188 -0.5735 -0.2896
C30 C 0.0131(2) -0.5602(2) -0.22256(17)
H25 H 0.0462 -0.5660 -0.2139
C31 C -0.04789(18) -0.6122(2) -0.10626(16)
C32 C -0.0881(2) -0.6623(2) -0.1323(2)
H26 H -0.0897 -0.6579 -0.1643
C33 C -0.1259(3) -0.7185(3) -0.1122(2)
H27 H -0.1534 -0.7524 -0.1304
C34 C -0.1240(3) -0.7258(2) -0.0661(2)
H28 H -0.1499 -0.7644 -0.0521
C35 C -0.0854(3) -0.6780(3) -0.0414(2)
H29 H -0.0839 -0.6831 -0.0095
C36 C -0.0476(3) -0.6218(2) -0.05990(18)
H30 H -0.0207 -0.5887 -0.0408
C37 C -0.0733(2) -0.4297(2) -0.11086(15)
C38 C -0.1124(2) -0.4112(3) -0.09241(18)
H31 H -0.1353 -0.4314 -0.0659
C39 C -0.1191(2) -0.3648(3) -0.1111(2)
H32 H -0.1469 -0.3538 -0.0983
C40 C -0.0833(3) -0.3336(3) -0.1503(2)
H33 H -0.0862 -0.3006 -0.1634
C41 C -0.0464(2) -0.3509(3) -0.1681(2)
H34 H -0.0231 -0.3305 -0.1944
C42 C -0.0408(2) -0.3983(2) -0.14904(17)
H35 H -0.0137 -0.4096 -0.1627
C43 C -0.04535(18) -0.4617(2) -0.02690(15)
C44 C -0.0044(2) -0.4001(2) -0.02007(18)
H36 H 0.0090 -0.3728 -0.0452
C45 C 0.0182(3) -0.3770(3) 0.0246(2)
H37 H 0.0473 -0.3349 0.0291
C46 C -0.0031(3) -0.4169(3) 0.06072(19)
H38 H 0.0105 -0.4025 0.0907
C47 C -0.0443(2) -0.4779(3) 0.05322(17)
H39 H -0.0587 -0.5052 0.0784
C48 C -0.0658(2) -0.5010(2) 0.00946(16)
H40 H -0.0941 -0.5434 0.0051
C49 C 0.32272(19) -0.3259(2) -0.14755(13)
C50 C 0.3104(2) -0.3859(2) -0.14500(17)
H41 H 0.2712 -0.4171 -0.1349
C51 C 0.3554(2) -0.4016(3) -0.1572(2)
H42 H 0.3459 -0.4432 -0.1571
C52 C 0.4144(2) -0.3543(2) -0.1694(2)
H43 H 0.4454 -0.3639 -0.1770
C53 C 0.4274(2) -0.2954(2) -0.17046(18)
H44 H 0.4673 -0.2638 -0.1788
C54 C 0.38165(18) -0.2805(2) -0.15922(15)
H45 H 0.3914 -0.2388 -0.1597
C55 C 0.29760(19) -0.22845(18) -0.13806(14)
C56 C 0.3220(3) -0.2005(2) -0.09713(13)
H46 H 0.3169 -0.2249 -0.0710
C57 C 0.3536(3) -0.1380(3) -0.09357(17)
H47 H 0.3705 -0.1195 -0.0650
C58 C 0.3613(3) -0.1010(2) -0.13088(16)
H48 H 0.3835 -0.0576 -0.1282
C59 C 0.3359(2) -0.1288(2) -0.17224(16)
H49 H 0.3395 -0.1046 -0.1981
C60 C 0.30560(18) -0.19164(19) -0.17525(13)
H50 H 0.2896 -0.2104 -0.2039
C61 C 0.11838(19) -0.3539(2) -0.23624(14)
C62 C 0.1478(2) -0.2910(2) -0.24841(19)
H51 H 0.1893 -0.2642 -0.2399
C63 C 0.1161(2) -0.2683(3) -0.2728(2)
H52 H 0.1358 -0.2259 -0.2803
C64 C 0.0564(3) -0.3066(3) -0.2862(2)
H53 H 0.0346 -0.2910 -0.3027
C65 C 0.0291(2) -0.3670(3) -0.27550(19)
H54 H -0.0117 -0.3937 -0.2856
C66 C 0.0585(2) -0.3913(3) -0.25034(17)
H55 H 0.0375 -0.4337 -0.2428
C67 C 0.16542(18) -0.43428(18) -0.23898(14)
C68 C 0.1652(2) -0.4313(2) -0.28618(14)
H56 H 0.1545 -0.4041 -0.3006
C69 C 0.1802(2) -0.4675(3) -0.31226(17)
H57 H 0.1815 -0.4636 -0.3445
C70 C 0.1932(2) -0.5080(3) -0.2929(2)
H58 H 0.2022 -0.5333 -0.3116
C71 C 0.1937(3) -0.5134(3) -0.2465(2)
H59 H 0.2027 -0.5422 -0.2328
C72 C 0.1803(2) -0.4750(2) -0.21964(18)
H60 H 0.1815 -0.4773 -0.1874
C73 C 0.1602(4) -0.2373(4) -0.0619(3)
H61 H 0.1954 -0.2380 -0.0474
H62 H 0.1335 -0.2354 -0.0380
C74 C 0.1818(4) -0.1839(4) -0.0951(3)
H63 H 0.1755 -0.1511 -0.0824
H64 H 0.2258 -0.1666 -0.1027
C75 C 0.1424(7) -0.2124(7) -0.1361(5)
H65 H 0.1145 -0.1957 -0.1401
H66 H 0.1686 -0.2019 -0.1635
C76 C 0.1100(5) -0.2721(5) -0.1319(4)
H67 H 0.1174 -0.2916 -0.1586
H68 H 0.0659 -0.2850 -0.1314
N1 N 0.16850(14) -0.42043(15) -0.01062(11)
N2 N -0.00242(15) -0.48418(16) -0.10445(12)
N3 N 0.22885(14) -0.32515(15) -0.19486(10)
O1 O 0.12501(18) -0.29188(17) -0.09261(13)
P1 P 0.19009(5) -0.34927(5) 0.00516(4)
P2 P 0.19738(5) -0.46178(5) 0.01155(3)
P3 P 0.00946(5) -0.53683(5) -0.12997(4)
P4 P -0.06823(5) -0.49315(6) -0.08507(4)
P5 P 0.25670(5) -0.31231(5) -0.14169(3)
P6 P 0.15718(5) -0.38269(5) -0.19951(3)
K1 K 0.32957(5) -0.36229(5) 0.07836(3)
Ba1 Ba 0.116074(10) -0.404528(11) -0.086729(8)
C49A C 0.3259(2) -0.35138(28) 0.18578(13)
C54A C 0.2805(2) -0.33785(27) 0.17411(15)
H45A H 0.2388 -0.3698 0.1736
C67A C 0.43428(18) -0.40030(25) 0.09435(14)
C68A C 0.4313(2) -0.4035(3) 0.04715(14)
H56A H 0.4041 -0.4414 0.0327
N3A N 0.32515(15) -0.44600(21) 0.13847(10)
K1C K 0.30814(7) -0.32957(5) -0.25497(3)
C77 C 0.0893(2) 0.2705(3) -0.0519(3)
C78 C 0.0706(3) 0.2099(3) -0.0628(4)
H69 H 0.0282 0.1810 -0.0664
C79 C 0.1139(5) 0.1916(4) -0.0684(5)
H70 H 0.1012 0.1502 -0.0759
C80 C 0.1760(5) 0.2339(6) -0.0632(4)
H71 H 0.2056 0.2214 -0.0670
C81 C 0.1947(3) 0.2945(5) -0.0523(4)
H72 H 0.2371 0.3234 -0.0487
C82 C 0.1513(2) 0.3128(3) -0.0467(3)
H73 H 0.1641 0.3542 -0.0393
C83 C 0.0415(3) 0.2884(4) -0.0492(8)
H74 H 0.0224 0.2835 -0.0791
H75 H 0.0602 0.3313 -0.0395
H76 H 0.0101 0.2621 -0.0270
C84 C 0.10275(19) -0.1320(2) -0.00621(17)
H77 H 0.1402 -0.1001 0.0060
C85 C 0.08244(19) -0.1245(2) -0.04843(17)
H78 H 0.1060 -0.0876 -0.0651
C86 C 0.02770(19) -0.1710(2) -0.06631(17)
H79 H 0.0138 -0.1659 -0.0952
C87 C -0.00673(19) -0.2250(2) -0.04197(18)
H80 H -0.0441 -0.2569 -0.0542
C88 C 0.01357(19) -0.2325(2) 0.00025(18)
H81 H -0.0100 -0.2694 0.0169
C89 C 0.06831(19) -0.1860(2) 0.01813(18)
C90 C 0.0994(2) -0.1601(2) 0.06461(17)
H82 H 0.0830 -0.1931 0.0873
H83 H 0.0912 -0.1277 0.0743
H84 H 0.1438 -0.1432 0.0617
C91 C -0.1495(3) 0.2064(3) -0.2900(2)
C92 C -0.1443(3) 0.2540(3) -0.2629(2)
H85 H -0.1048 0.2868 -0.2549
C93 C -0.1953(3) 0.2541(3) -0.2478(2)
H86 H -0.1915 0.2870 -0.2295
C94 C -0.2530(3) 0.2058(3) -0.2592(2)
H87 H -0.2888 0.2054 -0.2485
C95 C -0.2582(3) 0.1582(3) -0.2863(2)
H88 H -0.2976 0.1252 -0.2941
C96 C -0.2058(3) 0.1588(3) -0.3020(2)
H89 H -0.2091 0.1266 -0.3207
C97 C -0.0897(4) 0.2161(5) -0.3067(4)
H90 H -0.0889 0.2181 -0.3400
H91 H -0.0843 0.1819 -0.2969
H92 H -0.0565 0.2546 -0.2943
loop_
_geom_bond_atom_site_label_1
_geom_bond_atom_site_label_2
_geom_bond_site_symmetry_1
_geom_bond_site_symmetry_2
C1 C2 1_555 1_555
C2 H1 1_555 1_555
C3 C2 1_555 1_555
H2 C3 1_555 1_555
C4 C3 1_555 1_555
H3 C4 1_555 1_555
C5 C4 1_555 1_555
H4 C5 1_555 1_555
C6 C1 1_555 1_555
H5 C6 1_555 1_555
C7 C8 1_555 1_555
C8 H6 1_555 1_555
C9 C8 1_555 1_555
H7 C9 1_555 1_555
C10 C9 1_555 1_555
H8 C10 1_555 1_555
C11 C10 1_555 1_555
H9 C11 1_555 1_555
C12 C7 1_555 1_555
H10 C12 1_555 1_555
C13 C14 1_555 1_555
C14 H11 1_555 1_555
C15 C14 1_555 1_555
H12 C15 1_555 1_555
C16 C15 1_555 1_555
H13 C16 1_555 1_555
C17 C16 1_555 1_555
H14 C17 1_555 1_555
C18 C13 1_555 1_555
H15 C18 1_555 1_555
C19 C20 1_555 1_555
C20 H16 1_555 1_555
C21 C20 1_555 1_555
H17 C21 1_555 1_555
C22 C21 1_555 1_555
H18 C22 1_555 1_555
C23 C22 1_555 1_555
H19 C23 1_555 1_555
C24 C19 1_555 1_555
H20 C24 1_555 1_555
C25 C26 1_555 1_555
C26 H21 1_555 1_555
C27 C26 1_555 1_555
H22 C27 1_555 1_555
C28 C27 1_555 1_555
H23 C28 1_555 1_555
C29 C28 1_555 1_555
H24 C29 1_555 1_555
C30 C25 1_555 1_555
H25 C30 1_555 1_555
C31 C32 1_555 1_555
C32 H26 1_555 1_555
C33 C32 1_555 1_555
H27 C33 1_555 1_555
C34 C33 1_555 1_555
H28 C34 1_555 1_555
C35 C34 1_555 1_555
H29 C35 1_555 1_555
C36 C31 1_555 1_555
H30 C36 1_555 1_555
C37 C38 1_555 1_555
C38 H31 1_555 1_555
C39 C38 1_555 1_555
H32 C39 1_555 1_555
C40 C39 1_555 1_555
H33 C40 1_555 1_555
C41 C40 1_555 1_555
H34 C41 1_555 1_555
C42 C37 1_555 1_555
H35 C42 1_555 1_555
C43 C44 1_555 1_555
C44 H36 1_555 1_555
C45 C44 1_555 1_555
H37 C45 1_555 1_555
C46 C45 1_555 1_555
H38 C46 1_555 1_555
C47 C46 1_555 1_555
H39 C47 1_555 1_555
C48 C43 1_555 1_555
H40 C48 1_555 1_555
C49 C50 1_555 1_555
C50 H41 1_555 1_555
C51 C50 1_555 1_555
H42 C51 1_555 1_555
C52 C51 1_555 1_555
H43 C52 1_555 1_555
C53 C52 1_555 1_555
H44 C53 1_555 1_555
C54 C49 1_555 1_555
H45 C54 1_555 1_555
C55 C56 1_555 1_555
C56 H46 1_555 1_555
C57 C56 1_555 1_555
H47 C57 1_555 1_555
C58 C57 1_555 1_555
H48 C58 1_555 1_555
C59 C58 1_555 1_555
H49 C59 1_555 1_555
C60 C55 1_555 1_555
H50 C60 1_555 1_555
C61 C62 1_555 1_555
C62 H51 1_555 1_555
C63 C62 1_555 1_555
H52 C63 1_555 1_555
C64 C63 1_555 1_555
H53 C64 1_555 1_555
C65 C64 1_555 1_555
H54 C65 1_555 1_555
C66 C61 1_555 1_555
H55 C66 1_555 1_555
C67 C68 1_555 1_555
C68 H56 1_555 1_555
C69 C68 1_555 1_555
H57 C69 1_555 1_555
C70 C69 1_555 1_555
H58 C70 1_555 1_555
C71 C70 1_555 1_555
H59 C71 1_555 1_555
C72 C67 1_555 1_555
H60 C72 1_555 1_555
C73 H61 1_555 1_555
H62 C73 1_555 1_555
C74 C73 1_555 1_555
H63 C74 1_555 1_555
H64 C74 1_555 1_555
C75 C74 1_555 1_555
H65 C75 1_555 1_555
H66 C75 1_555 1_555
C76 C75 1_555 1_555
H67 C76 1_555 1_555
H68 C76 1_555 1_555
C77 C78 1_555 1_555
C78 H69 1_555 1_555
C79 C78 1_555 1_555
H70 C79 1_555 1_555
C80 C79 1_555 1_555
H71 C80 1_555 1_555
C81 C80 1_555 1_555
H72 C81 1_555 1_555
C82 C77 1_555 1_555
H73 C82 1_555 1_555
C83 C77 1_555 1_555
H74 C83 1_555 1_555
H75 C83 1_555 1_555
H76 C83 1_555 1_555
C84 H77 1_555 1_555
C85 C84 1_555 1_555
H78 C85 1_555 1_555
C86 C85 1_555 1_555
H79 C86 1_555 1_555
C87 C86 1_555 1_555
H80 C87 1_555 1_555
C88 C87 1_555 1_555
H81 C88 1_555 1_555
C89 C84 1_555 1_555
C90 C89 1_555 1_555
H82 C90 1_555 1_555
H83 C90 1_555 1_555
H84 C90 1_555 1_555
C91 C92 1_555 1_555
C92 H85 1_555 1_555
C93 C92 1_555 1_555
H86 C93 1_555 1_555
C94 C93 1_555 1_555
H87 C94 1_555 1_555
C95 C94 1_555 1_555
H88 C95 1_555 1_555
C96 C91 1_555 1_555
H89 C96 1_555 1_555
C97 C91 1_555 1_555
H90 C97 1_555 1_555
H91 C97 1_555 1_555
H92 C97 1_555 1_555
N1 P1 1_555 1_555
N2 P3 1_555 1_555
N3 P5 1_555 1_555
O1 C73 1_555 1_555
P1 C1 1_555 1_555
P2 C13 1_555 1_555
P3 C25 1_555 1_555
P4 C37 1_555 1_555
P5 C49 1_555 1_555
P6 C61 1_555 1_555
K1 C1 1_555 1_555
Ba1 N1 1_555 1_555
C49A K1 1_555 1_555
C54A K1 1_555 1_555
H45A C54A 1_555 1_555
C67A K1 1_555 1_555
C68A K1 1_555 1_555
H56A C68A 1_555 1_555
N3A K1 1_555 1_555
K1C C49 1_555 1_555
C2 K1 1_555 1_555
C3 K1 1_555 1_555
C4 K1 1_555 1_555
C5 C6 1_555 1_555
C5 K1 1_555 1_555
C6 K1 1_555 1_555
C7 P1 1_555 1_555
C11 C12 1_555 1_555
C17 C18 1_555 1_555
C19 P2 1_555 1_555
C23 C24 1_555 1_555
C29 C30 1_555 1_555
C31 P3 1_555 1_555
C35 C36 1_555 1_555
C41 C42 1_555 1_555
C43 P4 1_555 1_555
C47 C48 1_555 1_555
C53 C54 1_555 1_555
C54 K1C 1_555 1_555
C55 P5 1_555 1_555
C59 C60 1_555 1_555
C65 C66 1_555 1_555
C67 P6 1_555 1_555
C67 K1C 1_555 1_555
C68 K1C 1_555 1_555
C71 C72 1_555 1_555
C76 O1 1_555 1_555
C81 C82 1_555 1_555
C88 C89 1_555 1_555
C95 C96 1_555 1_555
N1 P2 1_555 1_555
N2 P4 1_555 1_555
N2 Ba1 1_555 1_555
N3 P6 1_555 1_555
N3 K1C 1_555 1_555
O1 Ba1 1_555 1_555
P1 Ba1 1_555 1_555
P3 Ba1 1_555 1_555
P5 Ba1 1_555 1_555
P6 Ba1 1_555 1_555
C49A C54A 1_555 1_555
C67A C68A 1_555 1_555

#END
