
#######################################################################
#
#                 Cambridge Crystallographic Data Centre
#                                CCDC 
#
#######################################################################
#
# If this CIF has been generated from an entry in the Cambridge 
# Structural Database, then it will include bibliographic, chemical, 
# crystal, experimental, refinement or atomic coordinate data resulting 
# from the CCDC's data processing and validation procedures.
#
#######################################################################

data_PECZUT
_symmetry_cell_setting           triclinic
_symmetry_space_group_name_H-M   'P -1'
_symmetry_Int_Tables_number      2
_space_group_name_Hall           '-P 1'
loop_
_symmetry_equiv_pos_site_id
_symmetry_equiv_pos_as_xyz
1 x,y,z
2 -x,-y,-z
_cell_length_a                   6.0675(5)
_cell_length_b                   8.2808(7)
_cell_length_c                   10.7982(9)
_cell_angle_alpha                74.445(1)
_cell_angle_beta                 87.369(1)
_cell_angle_gamma                80.934(1)
_cell_volume                     516.137
loop_
_atom_site_label
_atom_site_type_symbol
_atom_site_fract_x
_atom_site_fract_y
_atom_site_fract_z
Pb1 Pb 0.67610(3) 0.72895(2) 0.52348(2)
S1 S 1.1471(2) 0.7390(2) 1.2851(1)
O1 O 0.6430(6) 0.7707(6) 0.7354(4)
O2 O 0.9910(6) 0.7492(5) 0.6687(4)
O3 O 1.1126(7) 0.5707(5) 1.3600(4)
O4 O 1.0067(7) 0.8701(5) 1.3310(4)
O5 O 1.3807(6) 0.7604(5) 1.2767(4)
O6 O 0.3739(7) 0.5478(5) 0.6209(5)
O7 O 0.2891(6) 0.9361(5) 0.5149(4)
C1 C 0.8479(9) 0.7611(6) 0.7564(5)
C2 C 0.9235(9) 0.7612(7) 0.8858(5)
C3 C 0.7711(9) 0.8231(8) 0.9694(5)
C4 C 0.8406(9) 0.8205(7) 1.0901(5)
C5 C 1.0591(8) 0.7549(6) 1.1273(5)
C6 C 1.2109(9) 0.6962(8) 1.0445(6)
C7 C 1.142(1) 0.7009(8) 0.9217(6)
H1 H 0.442(9) 0.462(6) 0.675(4)
H2 H 0.251(6) 0.583(7) 0.653(5)
H3 H 0.218(8) 0.904(8) 0.584(3)
H4 H 0.223(8) 0.922(8) 0.452(3)
H5 H 0.6243 0.8656 0.9440
H6 H 0.7411 0.8627 1.1460
H7 H 1.3578 0.6539 1.0700
H8 H 1.2428 0.6633 0.8644
Pb1A Pb 1.32390(3) 0.27105(2) 1.47652(2)
Pb1A_2 Pb 0.32390(3) 1.27105(2) 0.47652(2)
O3A O 0.8874(7) 0.4293(5) 0.6400(4)
O7A O 0.7109(6) 1.0639(5) 0.4851(4)
H3A H 0.782(8) 1.096(8) 0.416(3)
H4A H 0.777(8) 1.078(8) 0.548(3)
loop_
_geom_bond_atom_site_label_1
_geom_bond_atom_site_label_2
_geom_bond_site_symmetry_1
_geom_bond_site_symmetry_2
Pb1 O1 1_555 1_555
S1 O3 1_555 1_555
O1 C1 1_555 1_555
O2 Pb1 1_555 1_555
O3 Pb1A 1_555 1_555
O4 S1 1_555 1_555
O5 S1 1_555 1_555
O6 Pb1 1_555 1_555
O7 Pb1 1_555 1_555
C1 O2 1_555 1_555
C2 C1 1_555 1_555
C3 C2 1_555 1_555
C4 C3 1_555 1_555
C5 S1 1_555 1_555
C6 C5 1_555 1_555
C7 C2 1_555 1_555
H1 O6 1_555 1_555
H2 O6 1_555 1_555
H3 O7 1_555 1_555
H4 O7 1_555 1_555
H5 C3 1_555 1_555
H6 C4 1_555 1_555
H7 C6 1_555 1_555
H8 C7 1_555 1_555
Pb1A_2 O7 1_555 1_555
O3A Pb1 1_555 1_555
O7A Pb1 1_555 1_555
H3A O7A 1_555 1_555
H4A O7A 1_555 1_555
C4 C5 1_555 1_555
C6 C7 1_555 1_555
Pb1A_2 O7A 1_555 1_555

#END
