
#######################################################################
#
#                 Cambridge Crystallographic Data Centre
#                                CCDC 
#
#######################################################################
#
# If this CIF has been generated from an entry in the Cambridge 
# Structural Database, then it will include bibliographic, chemical, 
# crystal, experimental, refinement or atomic coordinate data resulting 
# from the CCDC's data processing and validation procedures.
#
#######################################################################

data_PEDBIK
_symmetry_cell_setting           triclinic
_symmetry_space_group_name_H-M   'P -1'
_symmetry_Int_Tables_number      2
_space_group_name_Hall           '-P 1'
loop_
_symmetry_equiv_pos_site_id
_symmetry_equiv_pos_as_xyz
1 x,y,z
2 -x,-y,-z
_cell_length_a                   10.190(4)
_cell_length_b                   11.922(4)
_cell_length_c                   12.583(5)
_cell_angle_alpha                102.211(6)
_cell_angle_beta                 108.891(6)
_cell_angle_gamma                99.695(6)
_cell_volume                     1366.42
loop_
_atom_site_label
_atom_site_type_symbol
_atom_site_fract_x
_atom_site_fract_y
_atom_site_fract_z
Ni1 Ni 0.0000 0.0000 1.0000
Na1 Na 0.54040(17) 0.28529(15) 0.73853(14)
N1 N 0.3629(4) 0.2962(3) 0.8344(3)
N2 N 0.4052(4) 0.4695(4) 1.1909(4)
O1 O 0.7950(3) 0.3445(3) 0.8959(3)
O2 O 0.6192(3) 0.1737(3) 0.9422(3)
O3 O 0.4962(3) 0.0495(3) 0.6934(3)
O4 O 0.2986(3) 0.1451(2) 0.5541(2)
O5 O 0.4731(3) 0.3368(3) 0.5451(2)
O6 O 0.7353(3) 0.2940(3) 0.6568(3)
S1 S 0.10510(12) 0.06757(9) 0.88897(9)
S2 S 0.14420(12) 0.17121(10) 1.12208(9)
C1 C 0.8224(5) 0.3391(4) 1.0142(4)
C2 C 0.7481(5) 0.4254(4) 1.0649(4)
H1 H 0.7895 0.5050 1.0653
H2 H 0.6470 0.4035 1.0158
C3 C 0.7649(6) 0.4237(4) 1.1894(4)
H3 H 0.8653 0.4546 1.2402
H4 H 0.7117 0.4751 1.2177
C4 C 0.7123(5) 0.3017(4) 1.1950(4)
H5 H 0.6095 0.2743 1.1517
H6 H 0.7305 0.3032 1.2759
C5 C 0.7859(5) 0.2163(4) 1.1438(4)
H7 H 0.7462 0.1370 1.1454
H8 H 0.8874 0.2392 1.1923
C6 C 0.7683(5) 0.2139(4) 1.0173(4)
C7 C 0.5691(6) 0.0486(4) 0.8971(4)
H9 H 0.4700 0.0247 0.8898
H10 H 0.6252 0.0125 0.9519
C8 C 0.5786(6) 0.0048(4) 0.7829(4)
H11 H 0.6784 0.0263 0.7915
H12 H 0.5464 -0.0812 0.7579
C9 C 0.3471(6) 0.0004(4) 0.6520(5)
H13 H 0.3082 0.0376 0.7071
H14 H 0.3272 -0.0840 0.6444
C10 C 0.2794(5) 0.0202(4) 0.5368(4)
H15 H 0.3236 -0.0112 0.4834
H16 H 0.1779 -0.0198 0.5032
C11 C 0.2538(5) 0.1761(4) 0.4466(3)
C12 C 0.0907(5) 0.1526(4) 0.3926(4)
H17 H 0.0643 0.1668 0.3162
H18 H 0.0478 0.0697 0.3810
C13 C 0.0295(5) 0.2291(5) 0.4667(4)
H19 H -0.0733 0.2132 0.4257
H20 H 0.0459 0.2089 0.5399
C14 C 0.0974(5) 0.3578(4) 0.4920(4)
H21 H 0.0600 0.4050 0.5423
H22 H 0.0742 0.3798 0.4194
C15 C 0.2586(5) 0.3831(4) 0.5514(4)
H23 H 0.2815 0.3665 0.6266
H24 H 0.3016 0.4665 0.5655
C16 C 0.3214(4) 0.3081(4) 0.4770(3)
C17 C 0.5571(5) 0.2968(5) 0.4834(4)
H25 H 0.5397 0.3246 0.4143
H26 H 0.5324 0.2107 0.4587
C18 C 0.7111(5) 0.3441(5) 0.5627(4)
H27 H 0.7720 0.3237 0.5201
H28 H 0.7340 0.4299 0.5919
C19 C 0.8770(5) 0.3427(5) 0.7415(4)
H29 H 0.8992 0.4287 0.7619
H30 H 0.9448 0.3169 0.7090
C20 C 0.8901(5) 0.3040(5) 0.8467(4)
H31 H 0.8682 0.2180 0.8265
H32 H 0.9878 0.3354 0.9034
C21 C 0.1963(4) 0.1903(3) 1.0085(3)
C22 C 0.2920(4) 0.2864(3) 1.0114(3)
C23 C 0.3307(4) 0.2922(3) 0.9131(4)
C24 C 0.3561(4) 0.3870(4) 1.1132(4)
Na1A Na -0.54040(17) -0.28529(15) 1.26147(14)
Na1A_2 Na 0.45960(17) 0.71471(15) 1.26147(14)
Na1_2 Na -0.45960(17) -0.71471(15) 0.73853(14)
N1A N -0.3629(4) -0.2962(3) 1.1656(3)
N2A N -0.4052(4) -0.4695(4) 0.8091(4)
N2A_2 N 0.5948(4) 0.5305(4) 0.8091(4)
N2_2 N -0.5948(4) -0.5305(4) 1.1909(4)
O1A O -0.7950(3) -0.3445(3) 1.1041(3)
O2A O -0.6192(3) -0.1737(3) 1.0578(3)
O3A O -0.4962(3) -0.0495(3) 1.3066(3)
O4A O -0.2986(3) -0.1451(2) 1.4459(2)
O5A O -0.4731(3) -0.3368(3) 1.4549(2)
O6A O -0.7353(3) -0.2940(3) 1.3432(3)
S1A S -0.10510(12) -0.06757(9) 1.11103(9)
S2A S -0.14420(12) -0.17121(10) 0.87792(9)
C1A C -0.8224(5) -0.3391(4) 0.9858(4)
C2A C -0.7481(5) -0.4254(4) 0.9351(4)
H1A H -0.7895 -0.5050 0.9347
H2A H -0.6470 -0.4035 0.9842
C3A C -0.7649(6) -0.4237(4) 0.8106(4)
H3A H -0.8653 -0.4546 0.7598
H4A H -0.7117 -0.4751 0.7823
C4A C -0.7123(5) -0.3017(4) 0.8050(4)
H5A H -0.6095 -0.2743 0.8483
H6A H -0.7305 -0.3032 0.7241
C5A C -0.7859(5) -0.2163(4) 0.8562(4)
H7A H -0.7462 -0.1370 0.8546
H8A H -0.8874 -0.2392 0.8077
C6A C -0.7683(5) -0.2139(4) 0.9827(4)
C7A C -0.5691(6) -0.0486(4) 1.1029(4)
H9A H -0.4700 -0.0247 1.1102
H10A H -0.6252 -0.0125 1.0481
C8A C -0.5786(6) -0.0048(4) 1.2171(4)
H11A H -0.6784 -0.0263 1.2085
H12A H -0.5464 0.0812 1.2421
C9A C -0.3471(6) -0.0004(4) 1.3480(5)
H13A H -0.3082 -0.0376 1.2929
H14A H -0.3272 0.0840 1.3556
C10A C -0.2794(5) -0.0202(4) 1.4632(4)
H15A H -0.3236 0.0112 1.5166
H16A H -0.1779 0.0198 1.4968
C11A C -0.2538(5) -0.1761(4) 1.5534(3)
C12A C -0.0907(5) -0.1526(4) 1.6074(4)
H17A H -0.0643 -0.1668 1.6838
H18A H -0.0478 -0.0697 1.6190
C13A C -0.0295(5) -0.2291(5) 1.5333(4)
H19A H 0.0733 -0.2132 1.5743
H20A H -0.0459 -0.2089 1.4601
C14A C -0.0974(5) -0.3578(4) 1.5080(4)
H21A H -0.0600 -0.4050 1.4577
H22A H -0.0742 -0.3798 1.5806
C15A C -0.2586(5) -0.3831(4) 1.4486(4)
H23A H -0.2815 -0.3665 1.3734
H24A H -0.3016 -0.4665 1.4345
C16A C -0.3214(4) -0.3081(4) 1.5230(3)
C17A C -0.5571(5) -0.2968(5) 1.5166(4)
H25A H -0.5397 -0.3246 1.5857
H26A H -0.5324 -0.2107 1.5413
C18A C -0.7111(5) -0.3441(5) 1.4373(4)
H27A H -0.7720 -0.3237 1.4799
H28A H -0.7340 -0.4299 1.4081
C19A C -0.8770(5) -0.3427(5) 1.2585(4)
H29A H -0.8992 -0.4287 1.2381
H30A H -0.9448 -0.3169 1.2910
C20A C -0.8901(5) -0.3040(5) 1.1533(4)
H31A H -0.8682 -0.2180 1.1735
H32A H -0.9878 -0.3354 1.0966
C21A C -0.1963(4) -0.1903(3) 0.9915(3)
C22A C -0.2920(4) -0.2864(3) 0.9886(3)
C23A C -0.3307(4) -0.2922(3) 1.0869(4)
C24A C -0.3561(4) -0.3870(4) 0.8868(4)
loop_
_geom_bond_atom_site_label_1
_geom_bond_atom_site_label_2
_geom_bond_site_symmetry_1
_geom_bond_site_symmetry_2
Ni1 S1 1_555 1_555
Na1 N1 1_555 1_555
N1 C23 1_555 1_555
N2 C24 1_555 1_555
O1 Na1 1_555 1_555
O2 Na1 1_555 1_555
O3 Na1 1_555 1_555
O4 Na1 1_555 1_555
O5 Na1 1_555 1_555
O6 Na1 1_555 1_555
S1 C21 1_555 1_555
S2 Ni1 1_555 1_555
C1 O1 1_555 1_555
C2 C1 1_555 1_555
H1 C2 1_555 1_555
H2 C2 1_555 1_555
C3 C2 1_555 1_555
H3 C3 1_555 1_555
H4 C3 1_555 1_555
C4 C3 1_555 1_555
H5 C4 1_555 1_555
H6 C4 1_555 1_555
C5 C4 1_555 1_555
H7 C5 1_555 1_555
H8 C5 1_555 1_555
C6 O2 1_555 1_555
C7 O2 1_555 1_555
H9 C7 1_555 1_555
H10 C7 1_555 1_555
C8 O3 1_555 1_555
H11 C8 1_555 1_555
H12 C8 1_555 1_555
C9 O3 1_555 1_555
H13 C9 1_555 1_555
H14 C9 1_555 1_555
C10 O4 1_555 1_555
H15 C10 1_555 1_555
H16 C10 1_555 1_555
C11 O4 1_555 1_555
C12 C11 1_555 1_555
H17 C12 1_555 1_555
H18 C12 1_555 1_555
C13 C12 1_555 1_555
H19 C13 1_555 1_555
H20 C13 1_555 1_555
C14 C13 1_555 1_555
H21 C14 1_555 1_555
H22 C14 1_555 1_555
C15 C14 1_555 1_555
H23 C15 1_555 1_555
H24 C15 1_555 1_555
C16 O5 1_555 1_555
C17 O5 1_555 1_555
H25 C17 1_555 1_555
H26 C17 1_555 1_555
C18 O6 1_555 1_555
H27 C18 1_555 1_555
H28 C18 1_555 1_555
C19 O6 1_555 1_555
H29 C19 1_555 1_555
H30 C19 1_555 1_555
C20 O1 1_555 1_555
H31 C20 1_555 1_555
H32 C20 1_555 1_555
C21 S2 1_555 1_555
C22 C21 1_555 1_555
C23 C22 1_555 1_555
C24 C22 1_555 1_555
Na1A N1A 1_555 1_555
Na1A_2 N2 1_555 1_555
Na1_2 N2A 1_555 1_555
N1A C23A 1_555 1_555
N2A C24A 1_555 1_555
N2A_2 Na1 1_555 1_555
N2_2 Na1A 1_555 1_555
O1A Na1A 1_555 1_555
O2A Na1A 1_555 1_555
O3A Na1A 1_555 1_555
O4A Na1A 1_555 1_555
O5A Na1A 1_555 1_555
O6A Na1A 1_555 1_555
S1A Ni1 1_555 1_555
S2A Ni1 1_555 1_555
C1A O1A 1_555 1_555
C2A C1A 1_555 1_555
H1A C2A 1_555 1_555
H2A C2A 1_555 1_555
C3A C2A 1_555 1_555
H3A C3A 1_555 1_555
H4A C3A 1_555 1_555
C4A C3A 1_555 1_555
H5A C4A 1_555 1_555
H6A C4A 1_555 1_555
C5A C4A 1_555 1_555
H7A C5A 1_555 1_555
H8A C5A 1_555 1_555
C6A O2A 1_555 1_555
C7A O2A 1_555 1_555
H9A C7A 1_555 1_555
H10A C7A 1_555 1_555
C8A O3A 1_555 1_555
H11A C8A 1_555 1_555
H12A C8A 1_555 1_555
C9A O3A 1_555 1_555
H13A C9A 1_555 1_555
H14A C9A 1_555 1_555
C10A O4A 1_555 1_555
H15A C10A 1_555 1_555
H16A C10A 1_555 1_555
C11A O4A 1_555 1_555
C12A C11A 1_555 1_555
H17A C12A 1_555 1_555
H18A C12A 1_555 1_555
C13A C12A 1_555 1_555
H19A C13A 1_555 1_555
H20A C13A 1_555 1_555
C14A C13A 1_555 1_555
H21A C14A 1_555 1_555
H22A C14A 1_555 1_555
C15A C14A 1_555 1_555
H23A C15A 1_555 1_555
H24A C15A 1_555 1_555
C16A O5A 1_555 1_555
C17A O5A 1_555 1_555
H25A C17A 1_555 1_555
H26A C17A 1_555 1_555
C18A O6A 1_555 1_555
H27A C18A 1_555 1_555
H28A C18A 1_555 1_555
C19A O6A 1_555 1_555
H29A C19A 1_555 1_555
H30A C19A 1_555 1_555
C20A O1A 1_555 1_555
H31A C20A 1_555 1_555
H32A C20A 1_555 1_555
C21A S1A 1_555 1_555
C22A C21A 1_555 1_555
C23A C22A 1_555 1_555
C24A C22A 1_555 1_555
C1 C6 1_555 1_555
C5 C6 1_555 1_555
C7 C8 1_555 1_555
C9 C10 1_555 1_555
C11 C16 1_555 1_555
C15 C16 1_555 1_555
C17 C18 1_555 1_555
C19 C20 1_555 1_555
S2A C21A 1_555 1_555
C1A C6A 1_555 1_555
C5A C6A 1_555 1_555
C7A C8A 1_555 1_555
C9A C10A 1_555 1_555
C11A C16A 1_555 1_555
C15A C16A 1_555 1_555
C17A C18A 1_555 1_555
C19A C20A 1_555 1_555

#END
