
#######################################################################
#
#                 Cambridge Crystallographic Data Centre
#                                CCDC 
#
#######################################################################
#
# If this CIF has been generated from an entry in the Cambridge 
# Structural Database, then it will include bibliographic, chemical, 
# crystal, experimental, refinement or atomic coordinate data resulting 
# from the CCDC's data processing and validation procedures.
#
#######################################################################

data_PEDLAM
_symmetry_cell_setting           tetragonal
_symmetry_space_group_name_H-M   'I -4'
_symmetry_Int_Tables_number      82
_space_group_name_Hall           'I -4'
loop_
_symmetry_equiv_pos_site_id
_symmetry_equiv_pos_as_xyz
1 x,y,z
2 -x,-y,z
3 y,-x,-z
4 -y,x,-z
5 1/2+x,1/2+y,1/2+z
6 1/2-x,1/2-y,1/2+z
7 1/2+y,1/2-x,1/2-z
8 1/2-y,1/2+x,1/2-z
_cell_length_a                   20.1972(3)
_cell_length_b                   20.1972(3)
_cell_length_c                   25.0091(7)
_cell_angle_alpha                90
_cell_angle_beta                 90
_cell_angle_gamma                90
_cell_volume                     10201.9
loop_
_atom_site_label
_atom_site_type_symbol
_atom_site_fract_x
_atom_site_fract_y
_atom_site_fract_z
S8 S 0.1025(3) 0.9804(3) 0.8003(4)
O4 O 0.1372(4) 1.0415(4) 0.7982(4)
O5 O 0.1325(5) 0.9257(4) 0.8227(4)
O6 O 0.0354(5) 0.9926(7) 0.8209(6)
C56 C 0.0901(4) 0.9591(4) 0.7401(6)
F4 F 0.0608(6) 1.0039(7) 0.7153(5)
F5 F 0.0537(7) 0.9076(6) 0.7399(7)
F6 F 0.1440(7) 0.9480(8) 0.7178(6)
S8A S -0.1025(3) 1.0196(3) 0.8003(4)
O4A O -0.1372(4) 0.9585(4) 0.7982(4)
O5A O -0.1325(5) 1.0743(4) 0.8227(4)
O6A O -0.0354(5) 1.0074(7) 0.8209(6)
C56A C -0.0901(4) 1.0409(4) 0.7401(6)
F4A F -0.0608(6) 0.9961(7) 0.7153(5)
F5A F -0.0537(7) 1.0924(6) 0.7399(7)
F6A F -0.1440(7) 1.0520(8) 0.7178(6)
Ag1 Ag 0.233553(7) 0.755396(10) 0.875586(7)
S1 S 0.13848(3) 0.76325(3) 0.80124(2)
S2 S 0.13348(3) 0.73989(4) 0.93734(3)
S3 S -0.18177(3) 0.67627(3) 1.06679(2)
S4 S -0.31377(4) 0.69077(3) 1.00828(2)
S5 S -0.17567(3) 0.82584(3) 0.657950(19)
S6 S -0.31337(3) 0.81209(3) 0.72068(2)
C1 C 0.12686(12) 0.68831(13) 0.76517(12)
C2 C 0.12550(18) 0.62729(17) 0.79119(18)
H1 H 0.1312 0.6247 0.8288
C3 C 0.11555(18) 0.57008(18) 0.7609(2)
H2 H 0.1148 0.5284 0.7785
C4 C 0.10675(17) 0.5723(2) 0.7063(2)
H3 H 0.1004 0.5326 0.6865
C5 C 0.10730(17) 0.6327(2) 0.68076(17)
H4 H 0.1004 0.6353 0.6432
C6 C 0.11822(14) 0.69105(16) 0.71092(13)
H5 H 0.1196 0.7327 0.6933
C7 C 0.06434(10) 0.76194(12) 0.84016(10)
C8 C 0.00544(11) 0.77218(12) 0.81318(9)
H6 H 0.0067 0.7841 0.7764
C9 C -0.05613(10) 0.76548(11) 0.83865(9)
C10 C -0.05762(10) 0.74869(12) 0.89304(9)
C11 C 0.00196(11) 0.74134(14) 0.91995(9)
H7 H 0.0010 0.7313 0.9571
C12 C 0.06266(10) 0.74802(13) 0.89516(10)
C13 C 0.12219(12) 0.81166(14) 0.97832(11)
C14 C 0.12368(17) 0.87544(18) 0.95806(16)
H8 H 0.1320 0.8828 0.9211
C15 C 0.1130(2) 0.9285(2) 0.9922(3)
H9 H 0.1132 0.9722 0.9781
C16 C 0.10218(18) 0.9193(2) 1.0453(2)
H10 H 0.0958 0.9565 1.0680
C17 C 0.10051(17) 0.8569(2) 1.06604(16)
H11 H 0.0924 0.8507 1.1031
C18 C 0.11078(14) 0.80176(17) 1.03275(12)
H12 H 0.1100 0.7582 1.0472
C19 C -0.09620(15) 0.67271(13) 1.08357(11)
C20 C -0.06892(16) 0.72238(16) 1.11478(12)
H13 H -0.0951 0.7595 1.1245
C21 C -0.0037(3) 0.71850(19) 1.13203(16)
H14 H 0.0154 0.7527 1.1530
C22 C 0.0337(3) 0.6618(2) 1.11735(19)
H15 H 0.0779 0.6569 1.1298
C23 C 0.0060(3) 0.6140(2) 1.08506(18)
H16 H 0.0328 0.5779 1.0737
C24 C -0.06060(18) 0.61668(17) 1.06820(13)
H17 H -0.0801 0.5823 1.0476
C25 C -0.18062(10) 0.70343(11) 0.99924(8)
C26 C -0.12255(12) 0.71616(11) 0.97240(9)
H18 H -0.0818 0.7107 0.9908
C27 C -0.12135(10) 0.73663(11) 0.91959(8)
C28 C -0.18099(10) 0.74597(11) 0.89234(8)
C29 C -0.17974(10) 0.76936(11) 0.83669(8)
C30 C -0.11802(11) 0.77659(11) 0.80979(9)
C31 C -0.24109(9) 0.73280(11) 0.91857(8)
H19 H -0.2819 0.7388 0.9002
C32 C -0.24099(11) 0.71073(11) 0.97184(9)
C33 C -0.38069(16) 0.72130(12) 0.96901(11)
C34 C -0.4184(3) 0.67700(19) 0.9411(2)
H20 H -0.4053 0.6319 0.9392
C35 C -0.4771(3) 0.6982(3) 0.9147(3)
H21 H -0.5045 0.6673 0.8965
C36 C -0.4932(3) 0.76310(18) 0.91621(17)
H22 H -0.5313 0.7785 0.8978
C37 C -0.4539(2) 0.8073(2) 0.9449(2)
H23 H -0.4658 0.8528 0.9459
C38 C -0.39920(18) 0.7870(2) 0.97119(15)
H24 H -0.3735 0.8178 0.9911
C39 C -0.09208(15) 0.81056(12) 0.63769(9)
C40 C -0.07544(18) 0.75266(15) 0.61264(13)
H25 H -0.1072 0.7185 0.6079
C41 C -0.0094(3) 0.74500(19) 0.59391(17)
H26 H 0.0026 0.7055 0.5758
C42 C 0.0339(3) 0.7898(2) 0.6009(2)
H27 H 0.0776 0.7827 0.5880
C43 C 0.0195(3) 0.84770(19) 0.6264(2)
H28 H 0.0533 0.8796 0.6321
C44 C -0.0462(2) 0.86020(17) 0.64430(18)
H29 H -0.0579 0.9012 0.6603
C45 C -0.17560(10) 0.80572(10) 0.72756(8)
C46 C -0.11734(11) 0.79447(11) 0.75561(9)
H30 H -0.0761 0.7990 0.7377
C47 C -0.23646(10) 0.80177(11) 0.75411(8)
C48 C -0.23799(11) 0.78385(10) 0.80757(8)
H31 H -0.2795 0.7812 0.8253
C49 C -0.32202(12) 0.89969(12) 0.71445(9)
C50 C -0.38326(15) 0.92054(13) 0.69536(11)
H32 H -0.4164 0.8890 0.6865
C51 C -0.39592(14) 0.98854(15) 0.68921(12)
H33 H -0.4373 1.0032 0.6756
C52 C -0.34757(15) 1.03393(18) 0.70323(13)
H34 H -0.3557 1.0800 0.6992
C53 C -0.28790(14) 1.01249(17) 0.72288(14)
H35 H -0.2551 1.0441 0.7325
C54 C -0.27430(13) 0.94446(14) 0.72913(12)
H36 H -0.2331 0.9300 0.7432
Ag1C Ag 0.244604(10) 1.233553(7) 1.124414(7)
Ag1B Ag -0.244604(10) 0.766447(7) 1.124414(7)
Ag1G Ag -0.255396(10) 0.733553(7) 0.624414(7)
Ag1E Ag 0.266447(7) 0.744604(10) 1.375586(7)
S1C S 0.23675(3) 1.13848(3) 1.19876(2)
S2C S 0.26011(4) 1.13348(3) 1.06266(3)
S3C S 0.32373(3) 0.81823(3) 0.93321(2)
S3A S 0.18177(3) 1.32373(3) 1.06679(2)
S4C S 0.30923(3) 0.68623(4) 0.99172(2)
S4A S 0.31377(4) 1.30923(3) 1.00828(2)
S5C S 0.17416(3) 0.82433(3) 1.342050(19)
S5F S 0.32584(3) 0.67567(3) 0.842050(19)
S5D S 0.32433(3) 1.32584(3) 1.157950(19)
S6C S 0.18791(3) 0.68663(3) 1.27932(2)
S6F S 0.31209(3) 0.81337(3) 0.77932(2)
S6D S 0.18663(3) 1.31209(3) 1.22068(2)
C1C C 0.31169(13) 1.12686(12) 1.23483(12)
C2C C 0.37271(17) 1.12550(18) 1.20881(18)
H1C H 0.3753 1.1312 1.1712
C3C C 0.42992(18) 1.11555(18) 1.2391(2)
H2C H 0.4716 1.1148 1.2215
C4C C 0.4277(2) 1.10675(17) 1.2937(2)
H3C H 0.4674 1.1004 1.3135
C5C C 0.3673(2) 1.10730(17) 1.31924(17)
H4C H 0.3647 1.1004 1.3568
C6C C 0.30895(16) 1.11822(14) 1.28908(13)
H5C H 0.2673 1.1196 1.3067
C7C C 0.23806(12) 1.06434(10) 1.15984(10)
C8C C 0.22782(12) 1.00544(11) 1.18682(9)
H6C H 0.2159 1.0067 1.2236
C9C C 0.23452(11) 0.94387(10) 1.16135(9)
C10C C 0.25131(12) 0.94238(10) 1.10696(9)
C11C C 0.25866(14) 1.00196(11) 1.08005(9)
H7C H 0.2687 1.0010 1.0429
C12C C 0.25198(13) 1.06266(10) 1.10484(10)
C13C C 0.18834(14) 1.12219(12) 1.02168(11)
C14C C 0.12456(18) 1.12368(17) 1.04194(16)
H8C H 0.1172 1.1320 1.0789
C15C C 0.0715(2) 1.1130(2) 1.0078(3)
H9C H 0.0278 1.1132 1.0219
C16C C 0.0807(2) 1.10218(18) 0.9547(2)
H10C H 0.0435 1.0958 0.9320
C17C C 0.1431(2) 1.10051(17) 0.93396(16)
H11C H 0.1493 1.0924 0.8969
C18C C 0.19824(17) 1.11078(14) 0.96725(12)
H12C H 0.2418 1.1100 0.9528
C19C C 0.32729(13) 0.90380(15) 0.91643(11)
C20C C 0.27762(16) 0.93108(16) 0.88522(12)
H13C H 0.2405 0.9049 0.8755
C21C C 0.28150(19) 0.9963(3) 0.86797(16)
H14C H 0.2473 1.0154 0.8470
C22C C 0.3382(2) 1.0337(3) 0.88265(19)
H15C H 0.3431 1.0779 0.8702
C23C C 0.3860(2) 1.0060(3) 0.91494(18)
H16C H 0.4221 1.0328 0.9263
C24C C 0.38332(17) 0.93940(18) 0.93180(13)
H17C H 0.4177 0.9199 0.9524
C25C C 0.29657(11) 0.81938(10) 1.00076(8)
C26C C 0.28384(11) 0.87745(12) 1.02760(9)
H18C H 0.2893 0.9182 1.0092
C27C C 0.26337(11) 0.87865(10) 1.08041(8)
C28C C 0.25403(11) 0.81901(10) 1.10766(8)
C29C C 0.23064(11) 0.82026(10) 1.16331(8)
C30C C 0.22341(11) 0.88198(11) 1.19021(9)
C31C C 0.26720(11) 0.75891(9) 1.08143(8)
H19C H 0.2612 0.7181 1.0998
C32C C 0.28927(11) 0.75901(11) 1.02816(9)
C33C C 0.27870(12) 0.61931(16) 1.03099(11)
C34C C 0.32300(19) 0.5816(3) 1.0589(2)
H20C H 0.3681 0.5947 1.0608
C35C C 0.3018(3) 0.5229(3) 1.0853(3)
H21C H 0.3327 0.4955 1.1035
C36C C 0.23690(18) 0.5068(3) 1.08379(17)
H22C H 0.2215 0.4687 1.1022
C37C C 0.1927(2) 0.5461(2) 1.0551(2)
H23C H 0.1472 0.5342 1.0541
C38C C 0.2130(2) 0.60080(18) 1.02881(15)
H24C H 0.1822 0.6265 1.0089
C39C C 0.18944(12) 0.90792(15) 1.36231(9)
C40C C 0.24734(15) 0.92456(18) 1.38736(13)
H25C H 0.2815 0.8928 1.3921
C41C C 0.25500(19) 0.9906(3) 1.40609(17)
H26C H 0.2945 1.0026 1.4242
C42C C 0.2102(2) 1.0339(3) 1.3991(2)
H27C H 0.2173 1.0776 1.4120
C43C C 0.15230(19) 1.0195(3) 1.3736(2)
H28C H 0.1204 1.0533 1.3679
C44C C 0.13980(17) 0.9538(2) 1.35570(18)
H29C H 0.0988 0.9421 1.3397
C45C C 0.19428(10) 0.82440(10) 1.27244(8)
C46C C 0.20553(11) 0.88266(11) 1.24439(9)
H30C H 0.2010 0.9239 1.2623
C47C C 0.19823(11) 0.76354(10) 1.24589(8)
C48C C 0.21615(10) 0.76201(11) 1.19243(8)
H31C H 0.2188 0.7205 1.1747
C49C C 0.10031(12) 0.67798(12) 1.28555(9)
C50C C 0.07946(13) 0.61674(15) 1.30464(11)
H32C H 0.1110 0.5836 1.3135
C51C C 0.01146(15) 0.60408(14) 1.31079(12)
H33C H -0.0032 0.5627 1.3244
C52C C -0.03393(18) 0.65243(15) 1.29677(13)
H34C H -0.0800 0.6443 1.3008
C53C C -0.01249(17) 0.71210(14) 1.27712(14)
H35C H -0.0441 0.7449 1.2675
C54C C 0.05554(14) 0.72570(13) 1.27087(12)
H36C H 0.0700 0.7669 1.2568
C55? C 0.01752(13) 0.53932(10) 0.94235(10)
O1? O -0.0283(3) 0.58474(19) 0.9316(3)
O2? O 0.0525(4) 0.5427(4) 0.9778(4)
O3? O 0.0517(3) 0.5422(3) 0.8857(3)
S7? S 0.01752(13) 0.53932(10) 0.94235(10)
F1? F -0.0283(3) 0.58474(19) 0.9316(3)
F2? F 0.0525(4) 0.5427(4) 0.9778(4)
F3? F 0.0517(3) 0.5422(3) 0.8857(3)
loop_
_geom_bond_atom_site_label_1
_geom_bond_atom_site_label_2
_geom_bond_site_symmetry_1
_geom_bond_site_symmetry_2
Ag1 S1 1_555 1_555
S1 C1 1_555 1_555
S2 Ag1 1_555 1_555
S3 C19 1_555 1_555
S4 C32 1_555 1_555
S5 C39 1_555 1_555
S6 C47 1_555 1_555
C1 C2 1_555 1_555
C2 H1 1_555 1_555
C3 C2 1_555 1_555
H2 C3 1_555 1_555
C4 C3 1_555 1_555
H3 C4 1_555 1_555
C5 C4 1_555 1_555
H4 C5 1_555 1_555
C6 C1 1_555 1_555
H5 C6 1_555 1_555
C7 S1 1_555 1_555
C8 C7 1_555 1_555
H6 C8 1_555 1_555
C9 C8 1_555 1_555
C10 C9 1_555 1_555
C11 C10 1_555 1_555
H7 C11 1_555 1_555
C12 S2 1_555 1_555
C13 S2 1_555 1_555
C14 C13 1_555 1_555
H8 C14 1_555 1_555
C15 C14 1_555 1_555
H9 C15 1_555 1_555
C16 C15 1_555 1_555
H10 C16 1_555 1_555
C17 C16 1_555 1_555
H11 C17 1_555 1_555
C18 C13 1_555 1_555
H12 C18 1_555 1_555
C19 C20 1_555 1_555
C20 H13 1_555 1_555
C21 C20 1_555 1_555
H14 C21 1_555 1_555
C22 C21 1_555 1_555
H15 C22 1_555 1_555
C23 C22 1_555 1_555
H16 C23 1_555 1_555
C24 C19 1_555 1_555
H17 C24 1_555 1_555
C25 S3 1_555 1_555
C26 C25 1_555 1_555
H18 C26 1_555 1_555
C27 C10 1_555 1_555
C28 C27 1_555 1_555
C29 C28 1_555 1_555
C30 C9 1_555 1_555
C31 C28 1_555 1_555
H19 C31 1_555 1_555
C32 C25 1_555 1_555
C33 S4 1_555 1_555
C34 C33 1_555 1_555
H20 C34 1_555 1_555
C35 C34 1_555 1_555
H21 C35 1_555 1_555
C36 C35 1_555 1_555
H22 C36 1_555 1_555
C37 C36 1_555 1_555
H23 C37 1_555 1_555
C38 C33 1_555 1_555
H24 C38 1_555 1_555
C39 C40 1_555 1_555
C40 H25 1_555 1_555
C41 C40 1_555 1_555
H26 C41 1_555 1_555
C42 C41 1_555 1_555
H27 C42 1_555 1_555
C43 C42 1_555 1_555
H28 C43 1_555 1_555
C44 C39 1_555 1_555
H29 C44 1_555 1_555
C45 S5 1_555 1_555
C46 C30 1_555 1_555
H30 C46 1_555 1_555
C47 C45 1_555 1_555
C48 C29 1_555 1_555
H31 C48 1_555 1_555
C49 S6 1_555 1_555
C50 C49 1_555 1_555
H32 C50 1_555 1_555
C51 C50 1_555 1_555
H33 C51 1_555 1_555
C52 C51 1_555 1_555
H34 C52 1_555 1_555
C53 C52 1_555 1_555
H35 C53 1_555 1_555
C54 C49 1_555 1_555
H36 C54 1_555 1_555
S8 O4 1_555 1_555
O5 S8 1_555 1_555
O6 S8 1_555 1_555
C56 S8 1_555 1_555
F4 C56 1_555 1_555
F5 C56 1_555 1_555
F6 C56 1_555 1_555
Ag1C S1C 1_555 1_555
Ag1B S3 1_555 1_555
Ag1G S5 1_555 1_555
Ag1E S5C 1_555 1_555
S1C C1C 1_555 1_555
S2C Ag1C 1_555 1_555
S3C Ag1 1_555 1_555
S3A Ag1C 1_555 1_555
S4C Ag1 1_555 1_555
S4A Ag1C 1_555 1_555
S5C C39C 1_555 1_555
S5F Ag1 1_555 1_555
S5D Ag1C 1_555 1_555
S6C Ag1E 1_555 1_555
S6F Ag1 1_555 1_555
S6D Ag1C 1_555 1_555
C1C C2C 1_555 1_555
C2C H1C 1_555 1_555
C3C C2C 1_555 1_555
H2C C3C 1_555 1_555
C4C C3C 1_555 1_555
H3C C4C 1_555 1_555
C5C C4C 1_555 1_555
H4C C5C 1_555 1_555
C6C C1C 1_555 1_555
H5C C6C 1_555 1_555
C7C S1C 1_555 1_555
C8C C7C 1_555 1_555
H6C C8C 1_555 1_555
C9C C8C 1_555 1_555
C10C C9C 1_555 1_555
C11C C10C 1_555 1_555
H7C C11C 1_555 1_555
C12C S2C 1_555 1_555
C13C S2C 1_555 1_555
C14C C13C 1_555 1_555
H8C C14C 1_555 1_555
C15C C14C 1_555 1_555
H9C C15C 1_555 1_555
C16C C15C 1_555 1_555
H10C C16C 1_555 1_555
C17C C16C 1_555 1_555
H11C C17C 1_555 1_555
C18C C13C 1_555 1_555
H12C C18C 1_555 1_555
C19C S3C 1_555 1_555
C20C C19C 1_555 1_555
H13C C20C 1_555 1_555
C21C C20C 1_555 1_555
H14C C21C 1_555 1_555
C22C C21C 1_555 1_555
H15C C22C 1_555 1_555
C23C C22C 1_555 1_555
H16C C23C 1_555 1_555
C24C C19C 1_555 1_555
H17C C24C 1_555 1_555
C25C S3C 1_555 1_555
C26C C25C 1_555 1_555
H18C C26C 1_555 1_555
C27C C10C 1_555 1_555
C28C C27C 1_555 1_555
C29C C28C 1_555 1_555
C30C C9C 1_555 1_555
C31C C28C 1_555 1_555
H19C C31C 1_555 1_555
C32C S4C 1_555 1_555
C33C S4C 1_555 1_555
C34C C33C 1_555 1_555
H20C C34C 1_555 1_555
C35C C34C 1_555 1_555
H21C C35C 1_555 1_555
C36C C35C 1_555 1_555
H22C C36C 1_555 1_555
C37C C36C 1_555 1_555
H23C C37C 1_555 1_555
C38C C33C 1_555 1_555
H24C C38C 1_555 1_555
C39C C40C 1_555 1_555
C40C H25C 1_555 1_555
C41C C40C 1_555 1_555
H26C C41C 1_555 1_555
C42C C41C 1_555 1_555
H27C C42C 1_555 1_555
C43C C42C 1_555 1_555
H28C C43C 1_555 1_555
C44C C39C 1_555 1_555
H29C C44C 1_555 1_555
C45C S5C 1_555 1_555
C46C C30C 1_555 1_555
H30C C46C 1_555 1_555
C47C S6C 1_555 1_555
C48C C29C 1_555 1_555
H31C C48C 1_555 1_555
C49C S6C 1_555 1_555
C50C C49C 1_555 1_555
H32C C50C 1_555 1_555
C51C C50C 1_555 1_555
H33C C51C 1_555 1_555
C52C C51C 1_555 1_555
H34C C52C 1_555 1_555
C53C C52C 1_555 1_555
H35C C53C 1_555 1_555
C54C C49C 1_555 1_555
H36C C54C 1_555 1_555
S8A O4A 1_555 1_555
O5A S8A 1_555 1_555
O6A O6 1_555 1_555
C56A S8A 1_555 1_555
F4A C56A 1_555 1_555
F5A C56A 1_555 1_555
F6A C56A 1_555 1_555
S4 Ag1B 1_555 1_555
S6 Ag1G 1_555 1_555
C5 C6 1_555 1_555
C7 C12 1_555 1_555
C11 C12 1_555 1_555
C17 C18 1_555 1_555
C23 C24 1_555 1_555
C26 C27 1_555 1_555
C29 C30 1_555 1_555
C31 C32 1_555 1_555
C37 C38 1_555 1_555
C43 C44 1_555 1_555
C45 C46 1_555 1_555
C47 C48 1_555 1_555
C53 C54 1_555 1_555
C5C C6C 1_555 1_555
C7C C12C 1_555 1_555
C11C C12C 1_555 1_555
C17C C18C 1_555 1_555
C23C C24C 1_555 1_555
C25C C32C 1_555 1_555
C26C C27C 1_555 1_555
C29C C30C 1_555 1_555
C31C C32C 1_555 1_555
C37C C38C 1_555 1_555
C43C C44C 1_555 1_555
C45C C46C 1_555 1_555
C45C C47C 1_555 1_555
C47C C48C 1_555 1_555
C53C C54C 1_555 1_555
S8A O6A 1_555 1_555

#END
