
#######################################################################
#
#                 Cambridge Crystallographic Data Centre
#                                CCDC 
#
#######################################################################
#
# If this CIF has been generated from an entry in the Cambridge 
# Structural Database, then it will include bibliographic, chemical, 
# crystal, experimental, refinement or atomic coordinate data resulting 
# from the CCDC's data processing and validation procedures.
#
#######################################################################

data_PEDMIV
_symmetry_cell_setting           triclinic
_symmetry_space_group_name_H-M   'P -1'
_symmetry_Int_Tables_number      2
_space_group_name_Hall           '-P 1'
loop_
_symmetry_equiv_pos_site_id
_symmetry_equiv_pos_as_xyz
1 x,y,z
2 -x,-y,-z
_cell_length_a                   8.1224(11)
_cell_length_b                   8.4351(12)
_cell_length_c                   16.413(2)
_cell_angle_alpha                102.345(2)
_cell_angle_beta                 94.634(2)
_cell_angle_gamma                113.694(2)
_cell_volume                     988.286
loop_
_atom_site_label
_atom_site_type_symbol
_atom_site_fract_x
_atom_site_fract_y
_atom_site_fract_z
Cu1 Cu 0.78597(4) 0.77693(4) 0.753064(19)
P1 P 0.93859(9) 0.55003(8) 0.62194(4)
P2 P 1.53446(9) 0.86255(8) 0.88073(4)
P3 P 1.20544(9) 0.11816(8) 0.74372(4)
N1 N 0.6796(3) 0.8522(3) 0.65914(14)
N2 N 0.8604(3) 0.6759(3) 0.84323(13)
C1 C 0.6498(4) 1.0003(4) 0.67852(17)
C2 C 0.5800(4) 1.0609(4) 0.61900(17)
H1 H 0.576(4) 1.164(4) 0.6366(18)
C3 C 0.5381(3) 0.9697(3) 0.53306(16)
C4 C 0.5723(4) 0.8181(4) 0.51305(18)
H2 H 0.549(5) 0.740(5) 0.454(2)
C5 C 0.6394(4) 0.7637(4) 0.57667(18)
H3 H 0.664(5) 0.661(5) 0.564(2)
C6 C 0.8007(4) 0.4988(4) 0.83229(17)
H4 H 0.719(4) 0.425(4) 0.7820(19)
C7 C 0.8518(4) 0.4251(4) 0.89194(18)
H5 H 0.805(4) 0.298(5) 0.880(2)
C8 C 0.9706(3) 0.5370(3) 0.96719(16)
C9 C 1.0297(4) 0.7210(4) 0.97870(18)
H6 H 1.106(4) 0.802(4) 1.025(2)
C10 C 0.9733(4) 0.7850(4) 0.91595(17)
H7 H 1.022(4) 0.914(4) 0.9249(17)
C11 C 1.0971(3) 0.5214(3) 0.69402(16)
C12 C 1.0933(4) 0.3538(3) 0.69126(17)
H8 H 1.007(4) 0.251(4) 0.6497(19)
C13 C 1.3537(3) 0.6595(3) 0.81258(16)
C14 C 1.3453(3) 0.4890(3) 0.81041(16)
H9 H 1.428(4) 0.477(4) 0.850(2)
C15 C 1.2165(3) 0.3367(3) 0.74989(16)
C16 C 1.2288(4) 0.6730(3) 0.75471(17)
H10 H 1.236(4) 0.787(4) 0.7565(19)
O1 O 0.8375(3) 0.3668(3) 0.55367(12)
O2 O 0.7968(2) 0.5806(2) 0.66815(11)
O3 O 1.0470(2) 0.6997(2) 0.58329(11)
O4 O 1.6985(2) 0.9114(2) 0.83810(11)
O5 O 1.5807(3) 0.8173(3) 0.96429(12)
H11 H 1.566(5) 0.867(5) 1.004(2)
O6 O 1.4666(2) 1.0078(2) 0.89738(11)
O7 O 1.0580(2) 0.0032(2) 0.78129(11)
O8 O 1.1857(3) 0.0413(3) 0.64648(12)
H12 H 1.139(5) -0.067(5) 0.628(2)
O9 O 1.4012(2) 0.1589(2) 0.78747(12)
H13 H 1.411(6) 0.110(6) 0.828(3)
H14 H 0.681(4) 1.064(4) 0.736(2)
H15 H 0.878(5) 0.358(5) 0.520(2)
Cu1A Cu 0.21403(4) 1.22307(4) 0.246936(19)
Cu1_2 Cu 1.78597(4) 0.77693(4) 0.753064(19)
Cu1_3 Cu 0.78597(4) -0.22307(4) 0.753064(19)
Cu1A_2 Cu 1.21403(4) 0.22307(4) 1.246936(19)
Cu1_4 Cu -0.21403(4) 0.77693(4) 0.753064(19)
Cu1_5 Cu -0.21403(4) -0.22307(4) 0.753064(19)
P1_2 P -0.06141(9) 0.55003(8) 0.62194(4)
P2_2 P 0.53446(9) 0.86255(8) 0.88073(4)
P3_2 P 0.20544(9) 0.11816(8) 0.74372(4)
N1A N 0.3204(3) 1.1478(3) 0.34086(14)
N2A N 1.1396(3) 0.3241(3) 1.15677(13)
N2A_2 N 0.1396(3) 1.3241(3) 0.15677(13)
C1A C 0.3502(4) 0.9997(4) 0.32148(17)
C2A C 0.4200(4) 0.9391(4) 0.38100(17)
H1A H 0.424(4) 0.836(4) 0.3634(18)
C3A C 0.4619(3) 1.0303(3) 0.46694(16)
C4A C 0.4277(4) 1.1819(4) 0.48695(18)
H2A H 0.451(5) 1.260(5) 0.546(2)
C5A C 0.3606(4) 1.2363(4) 0.42333(18)
H3A H 0.336(5) 1.339(5) 0.436(2)
C6A C 1.1993(4) 0.5012(4) 1.16771(17)
H4A H 1.281(4) 0.575(4) 1.2180(19)
C7A C 1.1482(4) 0.5749(4) 1.10806(18)
H5A H 1.195(4) 0.702(5) 1.120(2)
C8A C 1.0294(3) 0.4630(3) 1.03281(16)
C9A C 0.9703(4) 0.2790(4) 1.02130(18)
H6A H 0.894(4) 0.198(4) 0.975(2)
C10A C 1.0267(4) 0.2150(4) 1.08405(17)
H7A H 0.978(4) 0.086(4) 1.0751(17)
C11_2 C 0.0971(3) 0.5214(3) 0.69402(16)
C12_2 C 0.0933(4) 0.3538(3) 0.69126(17)
H8_2 H 0.007(4) 0.251(4) 0.6497(19)
C13_2 C 0.3537(3) 0.6595(3) 0.81258(16)
C14_2 C 0.3453(3) 0.4890(3) 0.81041(16)
H9_2 H 0.428(4) 0.477(4) 0.850(2)
C15_2 C 0.2165(3) 0.3367(3) 0.74989(16)
C16_2 C 0.2288(4) 0.6730(3) 0.75471(17)
H10_2 H 0.236(4) 0.787(4) 0.7565(19)
O1_2 O -0.1625(3) 0.3668(3) 0.55367(12)
O2_2 O -0.2032(2) 0.5806(2) 0.66815(11)
O2A O 0.2032(2) 1.4194(2) 0.33185(11)
O3_2 O 0.0470(2) 0.6997(2) 0.58329(11)
O4_2 O 0.6985(2) 0.9114(2) 0.83810(11)
O4A O 0.3015(2) 1.0886(2) 0.16190(11)
O5_2 O 0.5807(3) 0.8173(3) 0.96429(12)
H11_2 H 0.566(5) 0.867(5) 1.004(2)
O6_2 O 0.4666(2) 1.0078(2) 0.89738(11)
O7_2 O 0.0580(2) 0.0032(2) 0.78129(11)
O7_3 O 1.0580(2) 1.0032(2) 0.78129(11)
O7A O -0.0580(2) 0.9968(2) 0.21871(11)
O8_2 O 0.1857(3) 0.0413(3) 0.64648(12)
H12_2 H 0.139(5) -0.067(5) 0.628(2)
O9_2 O 0.4012(2) 0.1589(2) 0.78747(12)
H13_2 H 0.411(6) 0.110(6) 0.828(3)
H14A H 0.319(4) 0.936(4) 0.264(2)
H15_2 H -0.122(5) 0.358(5) 0.520(2)
loop_
_geom_bond_atom_site_label_1
_geom_bond_atom_site_label_2
_geom_bond_site_symmetry_1
_geom_bond_site_symmetry_2
Cu1 N1 1_555 1_555
P1 C11 1_555 1_555
P2 C13 1_555 1_555
P3 C15 1_555 1_555
N1 C1 1_555 1_555
N2 Cu1 1_555 1_555
C1 C2 1_555 1_555
C2 H1 1_555 1_555
C3 C2 1_555 1_555
C4 C3 1_555 1_555
H2 C4 1_555 1_555
C5 N1 1_555 1_555
H3 C5 1_555 1_555
C6 N2 1_555 1_555
H4 C6 1_555 1_555
C7 C6 1_555 1_555
H5 C7 1_555 1_555
C8 C7 1_555 1_555
C9 C8 1_555 1_555
H6 C9 1_555 1_555
C10 N2 1_555 1_555
H7 C10 1_555 1_555
C11 C12 1_555 1_555
C12 H8 1_555 1_555
C13 C14 1_555 1_555
C14 H9 1_555 1_555
C15 C12 1_555 1_555
C16 C11 1_555 1_555
H10 C16 1_555 1_555
O1 P1 1_555 1_555
O2 Cu1 1_555 1_555
O3 P1 1_555 1_555
O4 P2 1_555 1_555
O5 P2 1_555 1_555
H11 O5 1_555 1_555
O6 P2 1_555 1_555
O7 P3 1_555 1_555
O8 P3 1_555 1_555
H12 O8 1_555 1_555
O9 P3 1_555 1_555
H13 O9 1_555 1_555
H14 C1 1_555 1_555
H15 O1 1_555 1_555
Cu1A N1A 1_555 1_555
Cu1_2 O4 1_555 1_555
Cu1_3 O7 1_555 1_555
Cu1A_2 N2A 1_555 1_555
Cu1_4 O2_2 1_555 1_555
Cu1_5 O7_2 1_555 1_555
P1_2 C11_2 1_555 1_555
P2_2 C13_2 1_555 1_555
P3_2 C15_2 1_555 1_555
N1A C1A 1_555 1_555
N2A C6A 1_555 1_555
N2A_2 Cu1A 1_555 1_555
C1A C2A 1_555 1_555
C2A H1A 1_555 1_555
C3A C3 1_555 1_555
C4A C3A 1_555 1_555
H2A C4A 1_555 1_555
C5A N1A 1_555 1_555
H3A C5A 1_555 1_555
C6A H4A 1_555 1_555
C7A C6A 1_555 1_555
H5A C7A 1_555 1_555
C8A C8 1_555 1_555
C9A C8A 1_555 1_555
H6A C9A 1_555 1_555
C10A N2A 1_555 1_555
H7A C10A 1_555 1_555
C11_2 C12_2 1_555 1_555
C12_2 H8_2 1_555 1_555
C13_2 C14_2 1_555 1_555
C14_2 H9_2 1_555 1_555
C15_2 C12_2 1_555 1_555
C16_2 C11_2 1_555 1_555
H10_2 C16_2 1_555 1_555
O1_2 P1_2 1_555 1_555
O2_2 P1_2 1_555 1_555
O2A Cu1A 1_555 1_555
O3_2 P1_2 1_555 1_555
O4_2 Cu1 1_555 1_555
O4A Cu1A 1_555 1_555
O5_2 P2_2 1_555 1_555
H11_2 O5_2 1_555 1_555
O6_2 P2_2 1_555 1_555
O7_2 P3_2 1_555 1_555
O7_3 Cu1 1_555 1_555
O7A Cu1A 1_555 1_555
O8_2 P3_2 1_555 1_555
H12_2 O8_2 1_555 1_555
O9_2 P3_2 1_555 1_555
H13_2 O9_2 1_555 1_555
H14A C1A 1_555 1_555
H15_2 O1_2 1_555 1_555
P1 O2 1_555 1_555
C4 C5 1_555 1_555
C9 C10 1_555 1_555
C13 C16 1_555 1_555
C14 C15 1_555 1_555
P2_2 O4_2 1_555 1_555
C2A C3A 1_555 1_555
C4A C5A 1_555 1_555
C7A C8A 1_555 1_555
C9A C10A 1_555 1_555
C13_2 C16_2 1_555 1_555
C14_2 C15_2 1_555 1_555

#END
