
#######################################################################
#
#                 Cambridge Crystallographic Data Centre
#                                CCDC 
#
#######################################################################
#
# If this CIF has been generated from an entry in the Cambridge 
# Structural Database, then it will include bibliographic, chemical, 
# crystal, experimental, refinement or atomic coordinate data resulting 
# from the CCDC's data processing and validation procedures.
#
#######################################################################

data_PEDPIZ
_symmetry_cell_setting           monoclinic
_symmetry_space_group_name_H-M   'P 21/c'
_symmetry_Int_Tables_number      14
_space_group_name_Hall           '-P 2ybc'
loop_
_symmetry_equiv_pos_site_id
_symmetry_equiv_pos_as_xyz
1 x,y,z
2 -x,1/2+y,1/2-z
3 -x,-y,-z
4 x,1/2-y,1/2+z
_cell_length_a                   10.9354(14)
_cell_length_b                   10.2046(13)
_cell_length_c                   14.285(2)
_cell_angle_alpha                90
_cell_angle_beta                 110.908(3)
_cell_angle_gamma                90
_cell_volume                     1489.12
loop_
_atom_site_label
_atom_site_type_symbol
_atom_site_fract_x
_atom_site_fract_y
_atom_site_fract_z
Hg1 Hg 0.69362(2) 0.56843(3) 0.03637(2)
Br1 Br 0.57878(7) 0.36998(8) -0.06474(6)
Br2 Br 0.71501(7) 0.79032(7) -0.02941(6)
N1 N 0.9315(4) 0.5255(5) 0.0997(4)
N2 N 0.7703(5) 0.4948(5) 0.2055(4)
C1 C 0.7354(8) 0.4110(7) 0.3493(6)
H1 H 0.6771 0.3888 0.3807
C2 C 0.9506(7) 0.4238(6) 0.3474(5)
H2 H 1.0402 0.4102 0.3782
C3 C 0.9004(6) 0.4762(6) 0.2510(4)
C4 C 0.8665(8) 0.3922(7) 0.3970(5)
H3 H 0.8989 0.3587 0.4617
C5 C 0.6906(7) 0.4630(7) 0.2546(6)
H4 H 0.6012 0.4768 0.2231
C6 C 0.9861(6) 0.5046(6) 0.1931(5)
C7 C 1.1291(5) 0.5054(6) 0.2483(4)
C8 C 1.2059(6) 0.4031(7) 0.2351(5)
H5 H 1.1666 0.3346 0.1919
C9 C 1.3394(7) 0.4023(9) 0.2852(6)
H6 H 1.3896 0.3324 0.2775
C10 C 1.3257(8) 0.6042(9) 0.3599(6)
H7 H 1.3668 0.6731 0.4019
C11 C 1.1903(8) 0.6049(7) 0.3114(6)
H8 H 1.1412 0.6739 0.3221
C12 C 1.3969(7) 0.5038(11) 0.3458(6)
H9 H 1.4873 0.5041 0.3783
C13 C 1.0075(6) 0.5548(6) 0.0362(4)
H10 H 1.0990 0.5655 0.0774
H11 H 0.9768 0.6359 0.0001
Hg1B Hg 0.30638(2) 0.43157(3) -0.03637(2)
Hg1B_2 Hg 1.30638(2) 0.43157(3) -0.03637(2)
Br1B Br 0.42122(7) 0.63002(8) 0.06474(6)
Br2B Br 0.28499(7) 0.20968(7) 0.02941(6)
N1B N 1.0685(4) 0.4745(5) -0.0997(4)
N1B_2 N 0.0685(4) 0.4745(5) -0.0997(4)
N2B N 1.2297(5) 0.5052(5) -0.2055(4)
N2B_2 N 0.2297(5) 0.5052(5) -0.2055(4)
C1B C 1.2646(8) 0.5890(7) -0.3493(6)
H1B H 1.3229 0.6112 -0.3807
C2B C 1.0494(7) 0.5762(6) -0.3474(5)
H2B H 0.9598 0.5898 -0.3782
C3B C 1.0996(6) 0.5238(6) -0.2510(4)
C4B C 1.1335(8) 0.6078(7) -0.3970(5)
H3B H 1.1011 0.6413 -0.4617
C5B C 1.3094(7) 0.5370(7) -0.2546(6)
H4B H 1.3988 0.5232 -0.2231
C6B C 1.0139(6) 0.4954(6) -0.1931(5)
C7B C 0.8709(5) 0.4946(6) -0.2483(4)
C8B C 0.7941(6) 0.5969(7) -0.2351(5)
H5B H 0.8334 0.6654 -0.1919
C9B C 0.6606(7) 0.5977(9) -0.2852(6)
H6B H 0.6104 0.6676 -0.2775
C10B C 0.6743(8) 0.3958(9) -0.3599(6)
H7B H 0.6332 0.3269 -0.4019
C11B C 0.8097(8) 0.3951(7) -0.3114(6)
H8B H 0.8588 0.3261 -0.3221
C12B C 0.6031(7) 0.4962(11) -0.3458(6)
H9B H 0.5127 0.4959 -0.3783
C13B C 0.9925(6) 0.4452(6) -0.0362(4)
H10B H 0.9010 0.4345 -0.0774
H11B H 1.0232 0.3641 -0.0001
loop_
_geom_bond_atom_site_label_1
_geom_bond_atom_site_label_2
_geom_bond_site_symmetry_1
_geom_bond_site_symmetry_2
Hg1 Br1 1_555 1_555
Br1 Hg1B 1_555 1_555
Br2 Hg1 1_555 1_555
N1 Hg1 1_555 1_555
N2 Hg1 1_555 1_555
C1 H1 1_555 1_555
C2 H2 1_555 1_555
C3 N2 1_555 1_555
C4 C1 1_555 1_555
H3 C4 1_555 1_555
C5 N2 1_555 1_555
H4 C5 1_555 1_555
C6 N1 1_555 1_555
C7 C6 1_555 1_555
C8 C7 1_555 1_555
H5 C8 1_555 1_555
C9 C8 1_555 1_555
H6 C9 1_555 1_555
C10 H7 1_555 1_555
C11 C7 1_555 1_555
H8 C11 1_555 1_555
C12 C9 1_555 1_555
H9 C12 1_555 1_555
C13 N1 1_555 1_555
H10 C13 1_555 1_555
H11 C13 1_555 1_555
Hg1B Br1B 1_555 1_555
Hg1B_2 N1B 1_555 1_555
Br1B Hg1 1_555 1_555
Br2B Hg1B 1_555 1_555
N1B C6B 1_555 1_555
N1B_2 Hg1B 1_555 1_555
N2B Hg1B_2 1_555 1_555
N2B_2 Hg1B 1_555 1_555
C1B H1B 1_555 1_555
C2B H2B 1_555 1_555
C3B N2B 1_555 1_555
C4B C1B 1_555 1_555
H3B C4B 1_555 1_555
C5B N2B 1_555 1_555
H4B C5B 1_555 1_555
C6B C3B 1_555 1_555
C7B C6B 1_555 1_555
C8B C7B 1_555 1_555
H5B C8B 1_555 1_555
C9B C8B 1_555 1_555
H6B C9B 1_555 1_555
C10B H7B 1_555 1_555
C11B C7B 1_555 1_555
H8B C11B 1_555 1_555
C12B C9B 1_555 1_555
H9B C12B 1_555 1_555
C13B C13 1_555 1_555
H10B C13B 1_555 1_555
H11B C13B 1_555 1_555
C1 C5 1_555 1_555
C2 C3 1_555 1_555
C2 C4 1_555 1_555
C3 C6 1_555 1_555
C10 C11 1_555 1_555
C10 C12 1_555 1_555
N1B C13B 1_555 1_555
C1B C5B 1_555 1_555
C2B C3B 1_555 1_555
C2B C4B 1_555 1_555
C10B C11B 1_555 1_555
C10B C12B 1_555 1_555

#END
