
#######################################################################
#
#                 Cambridge Crystallographic Data Centre
#                                CCDC 
#
#######################################################################
#
# If this CIF has been generated from an entry in the Cambridge 
# Structural Database, then it will include bibliographic, chemical, 
# crystal, experimental, refinement or atomic coordinate data resulting 
# from the CCDC's data processing and validation procedures.
#
#######################################################################

data_PEFBIN
_symmetry_cell_setting           monoclinic
_symmetry_space_group_name_H-M   'C 2/c'
_symmetry_Int_Tables_number      15
_space_group_name_Hall           '-C 2yn'
loop_
_symmetry_equiv_pos_site_id
_symmetry_equiv_pos_as_xyz
1 x,y,z
2 -x,y,1/2-z
3 1/2+x,1/2+y,z
4 1/2-x,1/2+y,1/2-z
5 -x,-y,-z
6 x,-y,1/2+z
7 1/2-x,1/2-y,-z
8 1/2+x,1/2-y,1/2+z
_cell_length_a                   16.4887(10)
_cell_length_b                   10.4995(6)
_cell_length_c                   11.0471(7)
_cell_angle_alpha                90
_cell_angle_beta                 92.9530(10)
_cell_angle_gamma                90
_cell_volume                     1909.97
loop_
_atom_site_label
_atom_site_type_symbol
_atom_site_fract_x
_atom_site_fract_y
_atom_site_fract_z
Pb1 Pb 0.009622(7) 0.314714(11) 0.057580(10)
O1 O 0.07986(14) 0.4908(2) -0.0029(2)
O2 O 0.0000 0.1549(4) 0.2500
O3 O -0.0255(3) -0.0288(6) 0.3306(5)
N1 N 0.15480(16) 0.2999(2) 0.1258(2)
N2 N 0.0000 0.4181(3) 0.2500
N3 N 0.0000 0.5330(4) 0.2500
N4 N 0.0000 0.6411(5) 0.2500
N5 N 0.0000 0.0391(4) 0.2500
C1 C 0.1903(2) 0.2064(3) 0.1884(3)
H1 H 0.1585 0.1405 0.2160
C2 C 0.2736(2) 0.2031(3) 0.2144(3)
H2 H 0.2965 0.1370 0.2606
C3 C 0.3218(2) 0.2972(3) 0.1721(3)
H3 H 0.3776 0.2956 0.1894
C4 C 0.2864(2) 0.3966(3) 0.1021(3)
C5 C 0.3320(2) 0.4940(3) 0.0473(3)
H4 H 0.3882 0.4965 0.0592
C6 C 0.2926(2) 0.5835(3) -0.0229(3)
H5 H 0.3226 0.6463 -0.0594
C7 C 0.2083(2) 0.5834(3) -0.0413(3)
H6 H 0.1836 0.6459 -0.0901
C8 C 0.16052(19) 0.4927(3) 0.0111(3)
C9 C 0.20121(18) 0.3949(3) 0.0819(2)
Pb1D Pb -0.009622(7) 0.685286(11) -0.057580(10)
Pb1A Pb -0.009622(7) 0.314714(11) 0.442420(10)
O1D O -0.07986(14) 0.5092(2) 0.0029(2)
O2D O 0.0000 0.8451(4) -0.2500
O3A O 0.0255(3) -0.0288(6) 0.1694(5)
N1D N -0.15480(16) 0.7001(2) -0.1258(2)
N2D N 0.0000 0.5819(3) -0.2500
C1D C -0.1903(2) 0.7936(3) -0.1884(3)
H1D H -0.1585 0.8595 -0.2160
C2D C -0.2736(2) 0.7969(3) -0.2144(3)
H2D H -0.2965 0.8630 -0.2606
C3D C -0.3218(2) 0.7028(3) -0.1721(3)
H3D H -0.3776 0.7044 -0.1894
C4D C -0.2864(2) 0.6034(3) -0.1021(3)
C5D C -0.3320(2) 0.5060(3) -0.0473(3)
H4D H -0.3882 0.5035 -0.0592
C6D C -0.2926(2) 0.4165(3) 0.0229(3)
H5D H -0.3226 0.3537 0.0594
C7D C -0.2083(2) 0.4166(3) 0.0413(3)
H6D H -0.1836 0.3541 0.0901
C8D C -0.16052(19) 0.5073(3) -0.0111(3)
C9D C -0.20121(18) 0.6051(3) -0.0819(2)
loop_
_geom_bond_atom_site_label_1
_geom_bond_atom_site_label_2
_geom_bond_site_symmetry_1
_geom_bond_site_symmetry_2
Pb1 O1 1_555 1_555
O1 C8 1_555 1_555
O2 Pb1 1_555 1_555
O3 N5 1_555 1_555
N1 Pb1 1_555 1_555
N2 Pb1 1_555 1_555
N3 N2 1_555 1_555
N4 N3 1_555 1_555
N5 O2 1_555 1_555
C1 N1 1_555 1_555
H1 C1 1_555 1_555
C2 C1 1_555 1_555
H2 C2 1_555 1_555
C3 C2 1_555 1_555
H3 C3 1_555 1_555
C4 C3 1_555 1_555
C5 C4 1_555 1_555
H4 C5 1_555 1_555
C6 C5 1_555 1_555
H5 C6 1_555 1_555
C7 C6 1_555 1_555
H6 C7 1_555 1_555
C8 C7 1_555 1_555
C9 N1 1_555 1_555
Pb1D O1 1_555 1_555
Pb1A O2 1_555 1_555
O1D Pb1 1_555 1_555
O2D Pb1D 1_555 1_555
O3A N5 1_555 1_555
N1D Pb1D 1_555 1_555
N2D Pb1D 1_555 1_555
C1D N1D 1_555 1_555
H1D C1D 1_555 1_555
C2D C1D 1_555 1_555
H2D C2D 1_555 1_555
C3D C2D 1_555 1_555
H3D C3D 1_555 1_555
C4D C3D 1_555 1_555
C5D C4D 1_555 1_555
H4D C5D 1_555 1_555
C6D C5D 1_555 1_555
H5D C6D 1_555 1_555
C7D C6D 1_555 1_555
H6D C7D 1_555 1_555
C8D O1D 1_555 1_555
C9D N1D 1_555 1_555
N2 Pb1A 1_555 1_555
C4 C9 1_555 1_555
C8 C9 1_555 1_555
Pb1D O1D 1_555 1_555
C4D C9D 1_555 1_555
C7D C8D 1_555 1_555
C8D C9D 1_555 1_555

#END
