
#######################################################################
#
#                 Cambridge Crystallographic Data Centre
#                                CCDC 
#
#######################################################################
#
# If this CIF has been generated from an entry in the Cambridge 
# Structural Database, then it will include bibliographic, chemical, 
# crystal, experimental, refinement or atomic coordinate data resulting 
# from the CCDC's data processing and validation procedures.
#
#######################################################################

data_PEFJAM
_symmetry_cell_setting           monoclinic
_symmetry_space_group_name_H-M   'C c'
_symmetry_Int_Tables_number      9
_space_group_name_Hall           'C -2yc'
loop_
_symmetry_equiv_pos_site_id
_symmetry_equiv_pos_as_xyz
1 x,y,z
2 x,-y,1/2+z
3 1/2+x,1/2+y,z
4 1/2+x,1/2-y,1/2+z
_cell_length_a                   18.6418(17)
_cell_length_b                   16.8069(15)
_cell_length_c                   13.1229(12)
_cell_angle_alpha                90
_cell_angle_beta                 133.038(2)
_cell_angle_gamma                90
_cell_volume                     3005.13
loop_
_atom_site_label
_atom_site_type_symbol
_atom_site_fract_x
_atom_site_fract_y
_atom_site_fract_z
Ag1 Ag 0.872920(10) 0.683833(9) 0.938101(11)
S1 S 1.07860(4) 0.72298(3) 1.25119(6)
C1 C 0.66030(15) 0.17695(11) 0.9860(2)
C2 C 0.66402(16) 0.31981(11) 1.0305(2)
C3 C 0.67443(16) 0.18398(11) 0.8947(2)
H1 H 0.6715 0.2347 0.8601
C4 C 0.67468(15) 0.45213(11) 1.1221(2)
C5 C 0.92595(16) 0.68389(12) 0.5679(2)
H2 H 0.9125 0.7364 0.5777
C6 C 0.70988(15) 0.49323(12) 1.0711(2)
H3 H 0.7212 0.4660 1.0198
N1 N 0.64275(15) 0.24205(10) 1.0331(2)
H4 H 0.6160 0.2324 1.0669
C7 C 0.94630(16) 0.66899(12) 0.4853(2)
C8 C 0.92570(16) 0.62032(13) 0.6357(2)
N2 N 0.65535(14) 0.37016(10) 1.10419(19)
H5 H 0.6360 0.3491 1.1435
O1 O 0.68894(13) 0.34168(9) 0.96996(17)
C9 C 0.66024(17) 0.49417(13) 1.1988(2)
H6 H 0.6381 0.4665 1.2362
C10 C 0.96157(19) 0.52812(13) 0.5377(3)
H7 H 0.9731 0.4753 0.5260
C11 C 0.90949(17) 0.63698(13) 0.7271(2)
C12 C 0.72812(15) 0.57432(12) 1.0964(2)
N3 N 0.71114(18) 0.13503(15) 0.6783(2)
C13 C 0.6824(2) 0.03471(13) 0.9929(2)
H8 H 0.6852 -0.0161 1.0272
C14 C 0.69282(15) 0.11617(12) 0.8549(2)
N4 N 0.89826(17) 0.64907(14) 0.8005(2)
C15 C 0.70409(18) 0.12598(14) 0.7571(2)
C16 C 0.96336(17) 0.59001(12) 0.4709(2)
H9 H 0.9764 0.5792 0.4137
C17 C 0.66294(17) 0.10148(13) 1.0326(2)
H10 H 0.6513 0.0957 1.0922
C18 C 0.94306(18) 0.54237(13) 0.6221(3)
H11 H 0.9423 0.5000 0.6693
C19 C 0.67752(17) 0.57547(13) 1.2215(2)
H12 H 0.6659 0.6028 1.2724
C20 C 0.69787(19) 0.04109(13) 0.9038(2)
H13 H 0.7115 -0.0046 0.8769
O2 O 0.93253(13) 0.84162(9) 0.49087(17)
C21 C 0.94325(16) 0.80898(11) 0.4196(2)
N5 N 0.94963(15) 0.72739(10) 0.4128(2)
H14 H 0.9566 0.7104 0.3565
C22 C 0.76864(15) 0.61159(11) 1.0462(2)
C23 C 0.71180(17) 0.61721(12) 1.1702(2)
H15 H 0.7236 0.6729 1.1849
N6 N 0.95059(15) 0.84750(10) 0.3345(2)
H16 H 0.9592 0.8168 0.2893
C24 C 0.91975(16) 0.98577(12) 0.3572(2)
H17 H 0.9038 0.9708 0.4095
N7 N 0.8685(2) 1.17714(12) 0.4027(3)
C25 C 0.96616(18) 1.03242(13) 0.2030(3)
H18 H 0.9819 1.0476 0.1505
N8 N 0.80288(16) 0.63625(11) 1.0065(2)
C26 C 0.96898(17) 0.95308(13) 0.2335(2)
H19 H 0.9867 0.9142 0.2014
C27 C 0.94609(15) 0.92898(12) 0.3107(2)
C28 C 0.88980(18) 1.12636(13) 0.3702(3)
C29 C 0.91740(16) 1.06599(12) 0.3246(2)
C30 C 0.94040(18) 1.08980(13) 0.2488(2)
H20 H 0.9385 1.1445 0.2286
O3 O 1.09979(14) 0.80495(9) 1.24374(18)
O4 O 1.06146(14) 0.67298(10) 1.14508(19)
O5 O 0.99759(15) 0.71769(11) 1.2448(2)
C31 C 1.1834(2) 0.68541(14) 1.4135(3)
H21 H 1.2385 0.6852 1.4190
H22 H 1.1706 0.6310 1.4244
H23 H 1.1996 0.7190 1.4879
Ag1A Ag 0.872920(10) 1.316167(9) 0.438101(11)
N7A N 0.8685(2) 0.82286(12) 0.9027(3)
loop_
_geom_bond_atom_site_label_1
_geom_bond_atom_site_label_2
_geom_bond_site_symmetry_1
_geom_bond_site_symmetry_2
Ag1 N4 1_555 1_555
S1 O3 1_555 1_555
C1 C3 1_555 1_555
C2 N1 1_555 1_555
C3 H1 1_555 1_555
C4 C6 1_555 1_555
C5 H2 1_555 1_555
C6 H3 1_555 1_555
N1 C1 1_555 1_555
H4 N1 1_555 1_555
C7 C5 1_555 1_555
C8 C5 1_555 1_555
N2 C2 1_555 1_555
H5 N2 1_555 1_555
O1 C2 1_555 1_555
C9 C4 1_555 1_555
H6 C9 1_555 1_555
C10 H7 1_555 1_555
C11 C8 1_555 1_555
C12 C6 1_555 1_555
N3 C15 1_555 1_555
C13 H8 1_555 1_555
C14 C3 1_555 1_555
N4 C11 1_555 1_555
C15 C14 1_555 1_555
C16 C7 1_555 1_555
H9 C16 1_555 1_555
C17 C1 1_555 1_555
H10 C17 1_555 1_555
C18 C8 1_555 1_555
H11 C18 1_555 1_555
C19 C9 1_555 1_555
H12 C19 1_555 1_555
C20 C13 1_555 1_555
H13 C20 1_555 1_555
O2 C21 1_555 1_555
C21 N5 1_555 1_555
N5 C7 1_555 1_555
H14 N5 1_555 1_555
C22 C12 1_555 1_555
C23 C12 1_555 1_555
H15 C23 1_555 1_555
N6 C21 1_555 1_555
H16 N6 1_555 1_555
C24 H17 1_555 1_555
N7 C28 1_555 1_555
C25 H18 1_555 1_555
N8 Ag1 1_555 1_555
C26 C25 1_555 1_555
H19 C26 1_555 1_555
C27 N6 1_555 1_555
C28 C29 1_555 1_555
C29 C24 1_555 1_555
C30 C25 1_555 1_555
H20 C30 1_555 1_555
O4 Ag1 1_555 1_555
O5 S1 1_555 1_555
C31 S1 1_555 1_555
H21 C31 1_555 1_555
H22 C31 1_555 1_555
H23 C31 1_555 1_555
Ag1A N7 1_555 1_555
N7A Ag1 1_555 1_555
S1 O4 1_555 1_555
C4 N2 1_555 1_555
C10 C16 1_555 1_555
C10 C18 1_555 1_555
C13 C17 1_555 1_555
C14 C20 1_555 1_555
C19 C23 1_555 1_555
C22 N8 1_555 1_555
C24 C27 1_555 1_555
C26 C27 1_555 1_555
C29 C30 1_555 1_555

#END
