
#######################################################################
#
#                 Cambridge Crystallographic Data Centre
#                                CCDC 
#
#######################################################################
#
# If this CIF has been generated from an entry in the Cambridge 
# Structural Database, then it will include bibliographic, chemical, 
# crystal, experimental, refinement or atomic coordinate data resulting 
# from the CCDC's data processing and validation procedures.
#
#######################################################################

data_PEFPIA
_symmetry_cell_setting           monoclinic
_symmetry_space_group_name_H-M   'P 21/n'
_symmetry_Int_Tables_number      14
_space_group_name_Hall           '-P 2yn'
loop_
_symmetry_equiv_pos_site_id
_symmetry_equiv_pos_as_xyz
1 x,y,z
2 1/2-x,1/2+y,1/2-z
3 -x,-y,-z
4 1/2+x,1/2-y,1/2+z
_cell_length_a                   9.9721(2)
_cell_length_b                   19.5588(4)
_cell_length_c                   12.58780(10)
_cell_angle_alpha                90.00
_cell_angle_beta                 110.4790(10)
_cell_angle_gamma                90.00
_cell_volume                     2299.99
loop_
_atom_site_label
_atom_site_type_symbol
_atom_site_fract_x
_atom_site_fract_y
_atom_site_fract_z
Cd1 Cd 0.24008(5) 0.01602(2) 0.47803(4)
O1 O 0.4235(4) -0.0609(2) 0.5195(3)
O2 O 0.1207(5) -0.0346(2) 0.5839(4)
O3 O 0.6519(5) -0.0765(3) 0.6280(4)
O4 O -0.0649(5) -0.1002(3) 0.5770(5)
C1 C 0.2740(6) -0.1650(3) 0.5992(5)
C2 C 0.4776(6) -0.0888(3) 0.7136(5)
C3 C 0.1289(6) -0.1515(3) 0.5405(6)
C4 C 0.5594(8) -0.0601(4) 0.8171(6)
H1 H 0.6429 -0.0364 0.8240
N1 N 0.1394(7) -0.0444(4) 0.3066(5)
C5 C 0.3556(6) -0.1264(3) 0.7040(5)
C6 C 0.3389(7) -0.2180(3) 0.5625(6)
H2 H 0.4353 -0.2272 0.6011
C7 C 0.5200(6) -0.0742(3) 0.6122(5)
C8 C 0.3153(8) -0.1331(4) 0.7999(6)
H3 H 0.2345 -0.1584 0.7954
C9 C 0.2639(9) -0.2576(4) 0.4701(7)
H4 H 0.3100 -0.2924 0.4459
C10 C 0.0541(8) -0.1937(4) 0.4497(7)
H5 H -0.0434 -0.1865 0.4124
C11 C 0.0274(11) -0.0203(8) 0.2229(8)
H6 H -0.0206 0.0181 0.2346
C12 C 0.3959(10) -0.1021(5) 0.9012(7)
H7 H 0.3674 -0.1054 0.9639
C13 C 0.5167(10) -0.0668(5) 0.9089(7)
H8 H 0.5711 -0.0469 0.9776
C14 C 0.1210(9) -0.2454(4) 0.4141(7)
H9 H 0.0696 -0.2722 0.3521
N2 N 0.3343(7) 0.0892(3) 0.6325(6)
C15 C 0.0569(7) -0.0909(3) 0.5691(6)
C16 C 0.2951(12) 0.0880(5) 0.7198(8)
H10 H 0.2394 0.0514 0.7270
C17 C 0.2037(14) -0.0972(6) 0.2819(9)
H11 H 0.2811 -0.1156 0.3400
C18 C 0.3305(16) 0.1377(7) 0.8034(8)
H12 H 0.3003 0.1336 0.8651
C19 C 0.4073(13) 0.1907(7) 0.7947(12)
H13 H 0.4339 0.2241 0.8510
C20 C 0.1657(19) -0.1280(7) 0.1764(11)
H14 H 0.2180 -0.1647 0.1643
C21 C 0.4063(14) 0.1443(7) 0.6203(13)
H15 H 0.4300 0.1483 0.5553
C22 C -0.0192(13) -0.0528(12) 0.1169(10)
H16 H -0.1033 -0.0380 0.0614
C23 C 0.0538(18) -0.1041(10) 0.0935(12)
H17 H 0.0266 -0.1225 0.0209
C24 C 0.4473(16) 0.1960(8) 0.7013(16)
H18 H 0.5005 0.2332 0.6922
Cd1B Cd 0.75992(5) -0.01602(2) 0.52197(4)
Cd1B_2 Cd -0.24008(5) -0.01602(2) 0.52197(4)
O3B O 0.3481(5) 0.0765(3) 0.3720(4)
O4B O 0.0649(5) 0.1002(3) 0.4230(5)
O5 O 0.1251(14) 0.1561(8) 0.2312(14)
loop_
_geom_bond_atom_site_label_1
_geom_bond_atom_site_label_2
_geom_bond_site_symmetry_1
_geom_bond_site_symmetry_2
Cd1 O1 1_555 1_555
O1 C7 1_555 1_555
O2 Cd1 1_555 1_555
O3 C7 1_555 1_555
O4 C15 1_555 1_555
C1 C3 1_555 1_555
C2 C4 1_555 1_555
C3 C10 1_555 1_555
C4 H1 1_555 1_555
N1 Cd1 1_555 1_555
C5 C1 1_555 1_555
C6 C1 1_555 1_555
H2 C6 1_555 1_555
C7 C2 1_555 1_555
C8 C5 1_555 1_555
H3 C8 1_555 1_555
C9 C6 1_555 1_555
H4 C9 1_555 1_555
C10 H5 1_555 1_555
C11 N1 1_555 1_555
H6 C11 1_555 1_555
C12 C8 1_555 1_555
H7 C12 1_555 1_555
C13 C4 1_555 1_555
H8 C13 1_555 1_555
C14 C9 1_555 1_555
H9 C14 1_555 1_555
N2 Cd1 1_555 1_555
C15 O2 1_555 1_555
C16 N2 1_555 1_555
H10 C16 1_555 1_555
C17 N1 1_555 1_555
H11 C17 1_555 1_555
C18 C16 1_555 1_555
H12 C18 1_555 1_555
C19 C18 1_555 1_555
H13 C19 1_555 1_555
C20 C17 1_555 1_555
H14 C20 1_555 1_555
C21 N2 1_555 1_555
H15 C21 1_555 1_555
C22 C11 1_555 1_555
H16 C22 1_555 1_555
C23 C20 1_555 1_555
H17 C23 1_555 1_555
C24 C19 1_555 1_555
H18 C24 1_555 1_555
Cd1B O3 1_555 1_555
Cd1B_2 O4 1_555 1_555
O3B Cd1 1_555 1_555
O4B Cd1 1_555 1_555
C2 C5 1_555 1_555
C3 C15 1_555 1_555
C10 C14 1_555 1_555
C12 C13 1_555 1_555
C21 C24 1_555 1_555
C22 C23 1_555 1_555

#END
