
#######################################################################
#
#                 Cambridge Crystallographic Data Centre
#                                CCDC 
#
#######################################################################
#
# If this CIF has been generated from an entry in the Cambridge 
# Structural Database, then it will include bibliographic, chemical, 
# crystal, experimental, refinement or atomic coordinate data resulting 
# from the CCDC's data processing and validation procedures.
#
#######################################################################

data_PEFREZ
_symmetry_cell_setting           orthorhombic
_symmetry_space_group_name_H-M   'P n a 21'
_symmetry_Int_Tables_number      33
_space_group_name_Hall           'P 2c -2n'
loop_
_symmetry_equiv_pos_site_id
_symmetry_equiv_pos_as_xyz
1 x,y,z
2 -x,-y,1/2+z
3 1/2-x,1/2+y,1/2+z
4 1/2+x,1/2-y,z
_cell_length_a                   13.2308(5)
_cell_length_b                   10.2126(6)
_cell_length_c                   17.5940(6)
_cell_angle_alpha                90
_cell_angle_beta                 90
_cell_angle_gamma                90
_cell_volume                     2377.32
loop_
_atom_site_label
_atom_site_type_symbol
_atom_site_fract_x
_atom_site_fract_y
_atom_site_fract_z
Ba1 Ba -1.06223(6) 0.40652(10) -0.23089(10)
Ba2 Ba -0.97598(8) 0.75657(9) -0.37224(5)
Ba3 Ba -1.27270(7) 0.25069(9) -0.04389(5)
C1 C -1.0705(13) 0.371(2) -0.4960(10)
C2 C -1.0608(15) 0.2484(19) -0.4607(11)
H1 H -1.0500 0.2422 -0.4086
C3 C -1.0677(13) 0.135(2) -0.5059(10)
C4 C -1.0825(12) 0.144(2) -0.5813(9)
H2 H -1.0915 0.0677 -0.6097
C5 C -1.0845(15) 0.2640(18) -0.6173(10)
C6 C -1.0809(12) 0.377(2) -0.5750(10)
H3 H -1.0856 0.4576 -0.5991
C7 C -1.0686(12) 0.496(2) -0.4485(11)
C8 C -1.0629(14) 0.004(2) -0.4657(12)
C9 C -1.0855(17) 0.274(2) -0.7033(10)
C10 C -0.8189(8) 0.1305(8) -0.4264(5)
C11 C -0.8217(10) 0.2483(9) -0.4660(4)
H4 H -0.8228 0.2482 -0.5188
C12 C -0.8229(8) 0.3662(8) -0.4265(5)
C13 C -0.8212(9) 0.3663(8) -0.3475(5)
H5 H -0.8220 0.4452 -0.3211
C14 C -0.8184(10) 0.2485(10) -0.3080(4)
C15 C -0.8172(9) 0.1306(8) -0.3475(5)
H6 H -0.8154 0.0518 -0.3210
C16 C -0.8157(10) 0.001(2) -0.4664(9)
C17 C -0.8217(13) 0.492(2) -0.4673(10)
C18 C -0.8167(12) 0.2505(13) -0.2225(11)
O1 O -1.0584(10) 0.4864(15) -0.3769(7)
O2 O -1.0658(10) 0.2682(13) -0.0853(8)
H7 H -1.0376 0.3048 -0.0439
H8 H -1.0951 0.1888 -0.0820
O3 O -1.0678(9) 0.6064(13) -0.4839(8)
O4 O -1.1785(18) 0.773(2) -0.3373(14)
H9 H -1.2079 0.7100 -0.3091
H10 H -1.2154 0.8411 -0.3542
O5 O -1.0485(11) 0.0072(15) -0.3953(8)
O6 O -1.1805(12) 0.6176(14) -0.1763(9)
H11 H -1.1742 0.6973 -0.1976
H12 H -1.2243 0.6052 -0.1378
O7 O -1.0682(10) -0.0979(14) -0.5067(8)
O8 O -1.0685(10) 0.1437(17) -0.2632(10)
H13 H -1.0511 0.1147 -0.3096
H14 H -1.0881 0.0866 -0.2271
O9 O -1.1312(9) 0.1822(13) -0.7389(8)
O10 O -1.0496(7) 0.3769(12) -0.7333(10)
O11 O -0.8204(11) -0.1023(13) -0.4302(7)
O12 O -0.8094(11) 0.0023(15) -0.5393(8)
O13 O -0.8706(9) 0.3280(14) -0.1860(7)
O14 O -0.7524(8) 0.1723(14) -0.1907(7)
O15 O -0.8262(11) 0.5982(13) -0.4310(8)
O16 O -0.8143(11) 0.4925(15) -0.5390(8)
Ba1A Ba -0.93777(6) 0.59348(10) -0.73089(10)
Ba1C Ba -0.56223(6) 0.09348(10) -0.23089(10)
Ba2_2 Ba -0.97598(8) -0.24343(9) -0.37224(5)
Ba2A Ba -1.02402(8) 0.24343(9) -0.87224(5)
Ba3B Ba -1.22730(7) 0.75069(9) -0.54389(5)
Ba3B_2 Ba -1.22730(7) -0.24931(9) -0.54389(5)
Ba3A Ba -0.72730(7) -0.25069(9) -0.54389(5)
Ba3C Ba -0.77270(7) 0.24931(9) -0.04389(5)
Ba3A_2 Ba -0.72730(7) 0.74931(9) -0.54389(5)
O3B O -1.4322(9) 0.1064(13) 0.0161(8)
O5_2 O -1.0485(11) 1.0072(15) -0.3953(8)
O7B O -1.4318(10) 0.4021(14) -0.0067(8)
O9A O -0.8688(9) 0.8178(13) -0.2389(8)
O10A O -0.9504(7) 0.6231(12) -0.2333(10)
O11_2 O -0.8204(11) 0.8977(13) -0.4302(7)
O11A O -1.1796(11) 0.1023(13) 0.0698(7)
O12A O -1.1906(11) -0.0023(15) -0.0393(8)
O13C O -1.3706(9) 0.1720(14) -0.1860(7)
O14C O -1.2524(8) 0.3277(14) -0.1907(7)
O15A O -1.1738(11) 0.4018(13) 0.0690(8)
O16A O -1.1857(11) 0.5075(15) -0.0390(8)
loop_
_geom_bond_atom_site_label_1
_geom_bond_atom_site_label_2
_geom_bond_site_symmetry_1
_geom_bond_site_symmetry_2
Ba1 O1 1_555 1_555
Ba2 O1 1_555 1_555
Ba3 O2 1_555 1_555
C1 C2 1_555 1_555
C2 H1 1_555 1_555
C3 C2 1_555 1_555
C4 C3 1_555 1_555
H2 C4 1_555 1_555
C5 C4 1_555 1_555
C6 C1 1_555 1_555
H3 C6 1_555 1_555
C7 C1 1_555 1_555
C8 C3 1_555 1_555
C9 C5 1_555 1_555
C10 C11 1_555 1_555
C11 H4 1_555 1_555
C12 C11 1_555 1_555
C13 C12 1_555 1_555
H5 C13 1_555 1_555
C14 C13 1_555 1_555
C15 C10 1_555 1_555
H6 C15 1_555 1_555
C16 C10 1_555 1_555
C17 C12 1_555 1_555
C18 C14 1_555 1_555
O1 C7 1_555 1_555
O2 Ba1 1_555 1_555
H7 O2 1_555 1_555
H8 O2 1_555 1_555
O3 Ba2 1_555 1_555
O4 Ba2 1_555 1_555
H9 O4 1_555 1_555
H10 O4 1_555 1_555
O5 C8 1_555 1_555
O6 Ba1 1_555 1_555
H11 O6 1_555 1_555
H12 O6 1_555 1_555
O7 C8 1_555 1_555
O8 Ba1 1_555 1_555
H13 O8 1_555 1_555
H14 O8 1_555 1_555
O9 C9 1_555 1_555
O10 C9 1_555 1_555
O11 C16 1_555 1_555
O12 C16 1_555 1_555
O13 Ba1 1_555 1_555
O14 C18 1_555 1_555
O15 Ba2 1_555 1_555
O16 C17 1_555 1_555
Ba1A O10 1_555 1_555
Ba1C O14 1_555 1_555
Ba2_2 O5 1_555 1_555
Ba2A O9 1_555 1_555
Ba3B O3 1_555 1_555
Ba3B_2 O7 1_555 1_555
Ba3A O11 1_555 1_555
Ba3C O13 1_555 1_555
Ba3A_2 O15 1_555 1_555
O3B Ba3 1_555 1_555
O5_2 Ba2 1_555 1_555
O7B Ba3 1_555 1_555
O9A Ba2 1_555 1_555
O10A Ba1 1_555 1_555
O11_2 Ba2 1_555 1_555
O11A Ba3 1_555 1_555
O12A Ba3 1_555 1_555
O13C Ba3 1_555 1_555
O14C Ba1 1_555 1_555
O15A Ba3 1_555 1_555
O16A Ba3 1_555 1_555
Ba2 O10A 1_555 1_555
Ba3 O14C 1_555 1_555
C5 C6 1_555 1_555
C7 O3 1_555 1_555
C14 C15 1_555 1_555
C17 O15 1_555 1_555
C18 O13 1_555 1_555
O10 Ba2A 1_555 1_555
O11 Ba2_2 1_555 1_555
O12 Ba3A 1_555 1_555
O14 Ba3C 1_555 1_555
O16 Ba3A_2 1_555 1_555
Ba3A_2 O11_2 1_555 1_555

#END
