
#######################################################################
#
#                 Cambridge Crystallographic Data Centre
#                                CCDC 
#
#######################################################################
#
# If this CIF has been generated from an entry in the Cambridge 
# Structural Database, then it will include bibliographic, chemical, 
# crystal, experimental, refinement or atomic coordinate data resulting 
# from the CCDC's data processing and validation procedures.
#
#######################################################################

data_PEFSIE
_symmetry_cell_setting           orthorhombic
_symmetry_space_group_name_H-M   'P 21 21 2'
_symmetry_Int_Tables_number      18
_space_group_name_Hall           'P 2 2ab'
loop_
_symmetry_equiv_pos_site_id
_symmetry_equiv_pos_as_xyz
1 x,y,z
2 -x,-y,z
3 1/2+x,1/2-y,-z
4 1/2-x,1/2+y,-z
_cell_length_a                   11.821(5)
_cell_length_b                   26.001(11)
_cell_length_c                   9.892(4)
_cell_angle_alpha                90
_cell_angle_beta                 90
_cell_angle_gamma                90
_cell_volume                     3040.38
loop_
_atom_site_label
_atom_site_type_symbol
_atom_site_fract_x
_atom_site_fract_y
_atom_site_fract_z
Cu1 Cu -0.62353(6) -0.16745(3) -0.20602(6)
Cu2 Cu -0.38132(6) -0.33098(3) -0.30093(7)
C1 C -0.5295(9) -0.3156(4) 0.1364(10)
H1 H -0.4710 -0.3245 0.2026
H2 H -0.5108 -0.3311 0.0489
H3 H -0.6028 -0.3286 0.1674
C2 C -0.5357(7) -0.2546(3) 0.1206(7)
H4 H -0.5636 -0.2416 0.2097
C3 C -0.4286(8) -0.2278(5) 0.0970(9)
H5 H -0.4429 -0.1908 0.0875
H6 H -0.3936 -0.2408 0.0140
H7 H -0.3776 -0.2337 0.1735
C4 C -0.6250(6) -0.2388(3) 0.0189(6)
H8 H -0.6827 -0.2669 0.0153
C5 C -0.6870(6) -0.1888(3) 0.0586(7)
C6 C -0.5229(6) -0.2612(2) -0.1918(7)
C7 C -0.4855(6) -0.2373(2) -0.3239(6)
C8 C -0.3665(6) -0.2577(2) -0.5181(7)
H9 H -0.4315 -0.2502 -0.5799
C9 C -0.3139(6) -0.3086(3) -0.5642(7)
C10 C -0.2802(7) -0.2149(3) -0.5373(9)
H10 H -0.2414 -0.2213 -0.6255
C11 C -0.1932(9) -0.2177(4) -0.4311(11)
H11 H -0.1609 -0.2524 -0.4291
H12 H -0.2275 -0.2100 -0.3432
H13 H -0.1333 -0.1927 -0.4502
C12 C -0.3339(11) -0.1614(4) -0.5456(14)
H14 H -0.2745 -0.1355 -0.5567
H15 H -0.3761 -0.1545 -0.4623
H16 H -0.3855 -0.1601 -0.6230
C13 C -0.6604(9) -0.0135(4) -0.5620(10)
H17 H -0.7169 -0.0361 -0.6036
H18 H -0.5984 -0.0076 -0.6259
H19 H -0.6956 0.0194 -0.5385
C14 C -0.6164(7) -0.0376(3) -0.4409(8)
C15 C -0.5359(6) -0.0231(2) -0.3470(7)
C16 C -0.5362(6) -0.0622(3) -0.2530(7)
C17 C -0.4628(8) -0.0678(3) -0.1287(10)
H20 H -0.4849 -0.0989 -0.0792
H21 H -0.4726 -0.0377 -0.0704
H22 H -0.3833 -0.0705 -0.1560
C18 C -0.5389(8) -0.4316(3) -0.3829(10)
H23 H -0.5221 -0.3988 -0.4272
H24 H -0.6186 -0.4323 -0.3557
H25 H -0.5241 -0.4599 -0.4459
C19 C -0.4665(6) -0.4375(2) -0.2621(7)
C20 C -0.4642(6) -0.4765(3) -0.1636(7)
C21 C -0.3847(7) -0.4615(2) -0.0704(7)
C22 C -0.3472(11) -0.4859(4) 0.0623(11)
H26 H -0.2892 -0.4643 0.1047
H27 H -0.3160 -0.5202 0.0446
H28 H -0.4124 -0.4889 0.1231
N1 N -0.4129(4) -0.26641(18) -0.3847(5)
N2 N -0.5845(5) -0.2305(2) -0.1179(5)
N3 N -0.6619(5) -0.0818(2) -0.3939(6)
H29 H -0.7174 -0.0983 -0.4342
N4 N -0.6137(5) -0.09755(18) -0.2807(6)
N5 N -0.3909(5) -0.40173(19) -0.2298(5)
N6 N -0.3432(5) -0.4158(2) -0.1118(6)
H30 H -0.2922 -0.3977 -0.0678
O1 O -0.7287(4) -0.1870(2) 0.1730(5)
O2 O -0.6928(4) -0.15246(17) -0.0271(5)
O3 O -0.5255(4) -0.19403(17) -0.3584(4)
O4 O -0.4905(5) -0.30664(18) -0.1643(5)
O5 O -0.3104(4) -0.34565(17) -0.4777(4)
O6 O -0.2781(4) -0.3120(2) -0.6810(5)
Cu1A Cu -0.37647(6) -0.83255(3) -0.20602(6)
Cu1A_2 Cu -0.37647(6) 0.16745(3) -0.20602(6)
Cu1B Cu -0.12353(6) -0.33255(3) -0.79398(6)
Cu1C Cu -0.87647(6) -0.66745(3) -0.79398(6)
Cu2A Cu -0.61868(6) -0.66902(3) -0.30093(7)
Cu2B Cu -0.88132(6) -0.16902(3) 0.30093(7)
Cu2C Cu -0.11868(6) -0.83098(3) 0.30093(7)
C1A C -0.4705(9) -0.6844(4) 0.1364(10)
H1A H -0.5290 -0.6755 0.2026
H2A H -0.4892 -0.6689 0.0489
H3A H -0.3972 -0.6714 0.1674
C2A C -0.4643(7) -0.7454(3) 0.1206(7)
H4A H -0.4364 -0.7584 0.2097
C3A C -0.5714(8) -0.7722(5) 0.0970(9)
H5A H -0.5571 -0.8092 0.0875
H6A H -0.6064 -0.7592 0.0140
H7A H -0.6224 -0.7663 0.1735
C4A C -0.3750(6) -0.7612(3) 0.0189(6)
H8A H -0.3173 -0.7331 0.0153
C5A C -0.3130(6) -0.8112(3) 0.0586(7)
C6A C -0.4771(6) -0.7388(2) -0.1918(7)
C7A C -0.5145(6) -0.7627(2) -0.3239(6)
C8A C -0.6335(6) -0.7423(2) -0.5181(7)
H9A H -0.5685 -0.7498 -0.5799
C9A C -0.6861(6) -0.6914(3) -0.5642(7)
C10A C -0.7198(7) -0.7851(3) -0.5373(9)
H10A H -0.7586 -0.7787 -0.6255
C11A C -0.8068(9) -0.7823(4) -0.4311(11)
H11A H -0.8391 -0.7476 -0.4291
H12A H -0.7725 -0.7900 -0.3432
H13A H -0.8667 -0.8073 -0.4502
C12A C -0.6661(11) -0.8386(4) -0.5456(14)
H14A H -0.7255 -0.8645 -0.5567
H15A H -0.6239 -0.8455 -0.4623
H16A H -0.6145 -0.8399 -0.6230
C13A C -0.3396(9) 0.0135(4) -0.5620(10)
H17A H -0.2831 0.0361 -0.6036
H18A H -0.4016 0.0076 -0.6259
H19A H -0.3044 -0.0194 -0.5385
C14A C -0.3836(7) 0.0376(3) -0.4409(8)
C15A C -0.4641(6) 0.0231(2) -0.3470(7)
C16A C -0.4638(6) 0.0622(3) -0.2530(7)
C17A C -0.5372(8) 0.0678(3) -0.1287(10)
H20A H -0.5151 0.0989 -0.0792
H21A H -0.5274 0.0377 -0.0704
H22A H -0.6167 0.0705 -0.1560
C18A C -0.4611(8) -0.5684(3) -0.3829(10)
H23A H -0.4779 -0.6012 -0.4272
H24A H -0.3814 -0.5677 -0.3557
H25A H -0.4759 -0.5401 -0.4459
C19A C -0.5335(6) -0.5625(2) -0.2621(7)
C20A C -0.5358(6) -0.5235(3) -0.1636(7)
C21A C -0.6153(7) -0.5385(2) -0.0704(7)
C22A C -0.6528(11) -0.5141(4) 0.0623(11)
H26A H -0.7108 -0.5357 0.1047
H27A H -0.6840 -0.4798 0.0446
H28A H -0.5876 -0.5111 0.1231
N1A N -0.5871(4) -0.73359(18) -0.3847(5)
N2A N -0.4155(5) -0.7695(2) -0.1179(5)
N3A N -0.3381(5) 0.0818(2) -0.3939(6)
H29A H -0.2826 0.0983 -0.4342
N4A N -0.3863(5) 0.09755(18) -0.2807(6)
N4A_2 N -0.3863(5) -0.90245(18) -0.2807(6)
N5A N -0.6091(5) -0.59827(19) -0.2298(5)
N6A N -0.6568(5) -0.5842(2) -0.1118(6)
H30A H -0.7078 -0.6023 -0.0678
O1A O -0.2713(4) -0.8130(2) 0.1730(5)
O1B O -0.2287(4) -0.3130(2) -0.1730(5)
O1C O -0.7713(4) -0.6870(2) -0.1730(5)
O2A O -0.3072(4) -0.84754(17) -0.0271(5)
O3A O -0.4745(4) -0.80597(17) -0.3584(4)
O4A O -0.5095(5) -0.69336(18) -0.1643(5)
O5A O -0.6896(4) -0.65435(17) -0.4777(4)
O6A O -0.7219(4) -0.6880(2) -0.6810(5)
O6B O -0.7781(4) -0.1880(2) -0.3190(5)
O6C O -0.2219(4) -0.8120(2) -0.3190(5)
loop_
_geom_bond_atom_site_label_1
_geom_bond_atom_site_label_2
_geom_bond_site_symmetry_1
_geom_bond_site_symmetry_2
Cu1 N2 1_555 1_555
Cu2 N1 1_555 1_555
C1 H1 1_555 1_555
H2 C1 1_555 1_555
H3 C1 1_555 1_555
C2 C1 1_555 1_555
H4 C2 1_555 1_555
C3 C2 1_555 1_555
H5 C3 1_555 1_555
H6 C3 1_555 1_555
H7 C3 1_555 1_555
C4 C2 1_555 1_555
H8 C4 1_555 1_555
C5 C4 1_555 1_555
C6 C7 1_555 1_555
C7 N1 1_555 1_555
C8 H9 1_555 1_555
C9 C8 1_555 1_555
C10 C8 1_555 1_555
H10 C10 1_555 1_555
C11 C10 1_555 1_555
H11 C11 1_555 1_555
H12 C11 1_555 1_555
H13 C11 1_555 1_555
C12 C10 1_555 1_555
H14 C12 1_555 1_555
H15 C12 1_555 1_555
H16 C12 1_555 1_555
C13 H17 1_555 1_555
H18 C13 1_555 1_555
H19 C13 1_555 1_555
C14 C13 1_555 1_555
C15 C14 1_555 1_555
C16 C15 1_555 1_555
C17 C16 1_555 1_555
H20 C17 1_555 1_555
H21 C17 1_555 1_555
H22 C17 1_555 1_555
C18 H23 1_555 1_555
H24 C18 1_555 1_555
H25 C18 1_555 1_555
C19 C18 1_555 1_555
C20 C19 1_555 1_555
C21 C20 1_555 1_555
C22 C21 1_555 1_555
H26 C22 1_555 1_555
H27 C22 1_555 1_555
H28 C22 1_555 1_555
N1 C8 1_555 1_555
N2 C4 1_555 1_555
N3 C14 1_555 1_555
H29 N3 1_555 1_555
N4 Cu1 1_555 1_555
N5 Cu2 1_555 1_555
N6 C21 1_555 1_555
H30 N6 1_555 1_555
O1 C5 1_555 1_555
O2 Cu1 1_555 1_555
O3 Cu1 1_555 1_555
O4 Cu2 1_555 1_555
O5 Cu2 1_555 1_555
O6 C9 1_555 1_555
Cu1A N2A 1_555 1_555
Cu1A_2 N4A 1_555 1_555
Cu1B O6 1_555 1_555
Cu1C O6A 1_555 1_555
Cu2A N1A 1_555 1_555
Cu2B O1 1_555 1_555
Cu2C O1A 1_555 1_555
C1A H1A 1_555 1_555
H2A C1A 1_555 1_555
H3A C1A 1_555 1_555
C2A C1A 1_555 1_555
H4A C2A 1_555 1_555
C3A C2A 1_555 1_555
H5A C3A 1_555 1_555
H6A C3A 1_555 1_555
H7A C3A 1_555 1_555
C4A C2A 1_555 1_555
H8A C4A 1_555 1_555
C5A C4A 1_555 1_555
C6A C7A 1_555 1_555
C7A N1A 1_555 1_555
C8A H9A 1_555 1_555
C9A C8A 1_555 1_555
C10A C8A 1_555 1_555
H10A C10A 1_555 1_555
C11A C10A 1_555 1_555
H11A C11A 1_555 1_555
H12A C11A 1_555 1_555
H13A C11A 1_555 1_555
C12A C10A 1_555 1_555
H14A C12A 1_555 1_555
H15A C12A 1_555 1_555
H16A C12A 1_555 1_555
C13A H17A 1_555 1_555
H18A C13A 1_555 1_555
H19A C13A 1_555 1_555
C14A C13A 1_555 1_555
C15A C15 1_555 1_555
C16A C15A 1_555 1_555
C17A C16A 1_555 1_555
H20A C17A 1_555 1_555
H21A C17A 1_555 1_555
H22A C17A 1_555 1_555
C18A H23A 1_555 1_555
H24A C18A 1_555 1_555
H25A C18A 1_555 1_555
C19A C18A 1_555 1_555
C20A C20 1_555 1_555
C21A C20A 1_555 1_555
C22A C21A 1_555 1_555
H26A C22A 1_555 1_555
H27A C22A 1_555 1_555
H28A C22A 1_555 1_555
N1A C8A 1_555 1_555
N2A C4A 1_555 1_555
N3A C14A 1_555 1_555
H29A N3A 1_555 1_555
N4A C16A 1_555 1_555
N4A_2 Cu1A 1_555 1_555
N5A Cu2A 1_555 1_555
N6A C21A 1_555 1_555
H30A N6A 1_555 1_555
O1A C5A 1_555 1_555
O1B Cu2 1_555 1_555
O1C Cu2A 1_555 1_555
O2A Cu1A 1_555 1_555
O3A Cu1A 1_555 1_555
O4A Cu2A 1_555 1_555
O5A Cu2A 1_555 1_555
O6A C9A 1_555 1_555
O6B Cu1 1_555 1_555
O6C Cu1A 1_555 1_555
C5 O2 1_555 1_555
C6 N2 1_555 1_555
C6 O4 1_555 1_555
C7 O3 1_555 1_555
C9 O5 1_555 1_555
C16 N4 1_555 1_555
C19 N5 1_555 1_555
N3 N4 1_555 1_555
N5 N6 1_555 1_555
C5A O2A 1_555 1_555
C6A N2A 1_555 1_555
C6A O4A 1_555 1_555
C7A O3A 1_555 1_555
C9A O5A 1_555 1_555
C14A C15A 1_555 1_555
C19A C20A 1_555 1_555
C19A N5A 1_555 1_555
N3A N4A 1_555 1_555
N5A N6A 1_555 1_555

#END
