
#######################################################################
#
#                 Cambridge Crystallographic Data Centre
#                                CCDC 
#
#######################################################################
#
# If this CIF has been generated from an entry in the Cambridge 
# Structural Database, then it will include bibliographic, chemical, 
# crystal, experimental, refinement or atomic coordinate data resulting 
# from the CCDC's data processing and validation procedures.
#
#######################################################################

data_PEFTUR
_symmetry_cell_setting           triclinic
_symmetry_space_group_name_H-M   'P -1'
_symmetry_Int_Tables_number      2
_space_group_name_Hall           '-P 1'
loop_
_symmetry_equiv_pos_site_id
_symmetry_equiv_pos_as_xyz
1 x,y,z
2 -x,-y,-z
_cell_length_a                   9.141(3)
_cell_length_b                   13.712(4)
_cell_length_c                   14.123(5)
_cell_angle_alpha                97.311(3)
_cell_angle_beta                 96.607(3)
_cell_angle_gamma                105.351(3)
_cell_volume                     1672.56
loop_
_atom_site_label
_atom_site_type_symbol
_atom_site_fract_x
_atom_site_fract_y
_atom_site_fract_z
Gd1 Gd 0.87262(2) 0.860239(16) 0.012067(15)
O1 O 0.7265(3) 0.8690(3) -0.1362(2)
O2 O 0.9062(3) 1.0149(3) -0.0977(2)
O3 O 0.8316(3) 0.7907(3) 0.1618(2)
O4 O 1.0180(4) 0.7562(3) 0.0921(2)
O5 O 0.0605(3) 0.8537(2) -0.0924(2)
O6 O 0.2182(3) 1.0094(2) -0.0923(2)
O7 O 0.6290(6) 0.4262(4) 0.4475(5)
O8 O 0.8274(6) 0.4816(4) 0.3736(4)
N1 N 0.5820(4) 0.7699(3) 0.0023(3)
N2 N 0.7734(4) 0.6733(3) -0.0757(3)
C1 C 0.7191(7) 0.9833(5) -0.4536(4)
H1 H 0.7050 0.9855 -0.5194
C2 C 0.7948(6) 0.5920(4) 0.5073(4)
C3 C 0.8808(8) 0.7602(5) 0.6537(4)
H2 H 0.9118 0.8164 0.7032
C4 C 0.3094(7) 0.5170(5) -0.0985(5)
H3 H 0.2065 0.4817 -0.1016
C5 C 0.5218(5) 0.6717(4) -0.0439(3)
C6 C 0.7618(5) 0.9722(3) -0.2581(3)
C7 C 0.8656(6) 0.6247(4) -0.1128(4)
H4 H 0.9699 0.6588 -0.1039
C8 C 0.4756(5) 0.8757(4) -0.2734(3)
C9 C 0.2653(5) 0.8670(3) -0.1836(3)
C10 C 0.6137(5) 0.9307(4) -0.3127(3)
C11 C 0.9495(5) 0.7589(3) 0.1641(3)
C12 C 0.7979(5) 0.9515(3) -0.1576(3)
C13 C 0.7216(7) 0.5938(5) 0.5883(4)
H5 H 0.6429 0.5369 0.5939
C14 C 0.3972(5) 0.9240(4) -0.2129(3)
H6 H 0.4330 0.9944 -0.1920
C15 C 0.6216(5) 0.6218(4) -0.0865(3)
C16 C 0.9263(6) 0.7091(4) 0.3286(4)
H7 H 0.8246 0.7108 0.3215
C17 C 0.1748(5) 0.9144(4) -0.1177(3)
C18 C 0.4887(5) 0.8166(4) 0.0400(4)
H8 H 0.5287 0.8850 0.0687
C19 C 1.0107(5) 0.7271(4) 0.2542(4)
N3 N 0.2881(5) 0.7145(3) -0.2774(3)
C20 C 0.8827(5) 1.0186(4) -0.3022(4)
H9 H 0.9798 1.0461 -0.2656
C21 C 0.3647(5) 0.6188(4) -0.0489(4)
N4 N 1.2295(5) 0.7039(4) 0.3491(4)
C22 C 0.6641(7) 0.4735(4) -0.1772(4)
H10 H 0.6286 0.4075 -0.2124
C23 C 0.4152(5) 0.7709(4) -0.3036(4)
H11 H 0.4662 0.7379 -0.3447
C24 C 0.2170(5) 0.7628(4) -0.2182(4)
H12 H 0.1292 0.7239 -0.1988
C25 C 0.4024(7) 0.4693(5) -0.1419(5)
H13 H 0.3622 0.4027 -0.1752
C26 C 0.9121(6) 0.6782(4) 0.4996(4)
C27 C 0.9943(6) 0.6888(4) 0.4136(4)
C28 C 1.1606(6) 0.7230(4) 0.2680(4)
H14 H 1.2170 0.7343 0.2177
C29 C 1.1457(7) 0.6881(5) 0.4199(4)
H15 H 1.1925 0.6757 0.4774
C30 C 0.9534(7) 0.7599(4) 0.5739(4)
H16 H 1.0332 0.8169 0.5701
C31 C 0.7409(7) 0.4949(5) 0.4370(5)
C32 C 0.8637(6) 1.0253(4) -0.3981(4)
H17 H 0.9467 1.0576 -0.4262
C33 C 0.5972(6) 0.9385(5) -0.4098(4)
H18 H 0.5003 0.9125 -0.4468
C34 C 0.8159(7) 0.5254(4) -0.1645(4)
H19 H 0.8855 0.4949 -0.1900
C35 C 0.5615(6) 0.5208(4) -0.1366(4)
C36 C 0.7630(7) 0.6775(5) 0.6596(4)
H20 H 0.7106 0.6780 0.7123
C37 C 0.2742(6) 0.6706(5) -0.0034(4)
H21 H 0.1718 0.6370 -0.0025
C38 C 0.3329(6) 0.7695(5) 0.0397(4)
H22 H 0.2715 0.8052 0.0683
H27 H 0.796(10) 0.430(7) 0.345(7)
Gd1A Gd 1.12738(2) 1.139761(16) -0.012067(15)
Gd1_2 Gd -0.12738(2) 0.860239(16) 0.012067(15)
Gd1A_2 Gd 0.12738(2) 1.139761(16) -0.012067(15)
O2A O 1.0938(3) 0.9851(3) 0.0977(2)
O5_2 O 1.0605(3) 0.8537(2) -0.0924(2)
O6A O 0.7818(3) 0.9906(2) 0.0923(2)
O9 O 0.4591(6) 0.3008(5) 0.6092(4)
H23 H 0.5519 0.2999 0.6213
H24 H 0.4443 0.2501 0.6372
O10 O 0.3464(14) 0.1278(7) 0.7052(8)
H25 H 0.2952 0.1514 0.7443
H26 H 0.2939 0.1496 0.6720
loop_
_geom_bond_atom_site_label_1
_geom_bond_atom_site_label_2
_geom_bond_site_symmetry_1
_geom_bond_site_symmetry_2
Gd1 O1 1_555 1_555
O1 C12 1_555 1_555
O2 Gd1 1_555 1_555
O3 Gd1 1_555 1_555
O4 Gd1 1_555 1_555
O5 C17 1_555 1_555
O6 C17 1_555 1_555
O7 C31 1_555 1_555
O8 C31 1_555 1_555
N1 Gd1 1_555 1_555
N2 Gd1 1_555 1_555
C1 H1 1_555 1_555
C2 C13 1_555 1_555
C3 H2 1_555 1_555
C4 H3 1_555 1_555
C5 N1 1_555 1_555
C6 C10 1_555 1_555
C7 N2 1_555 1_555
H4 C7 1_555 1_555
C8 C10 1_555 1_555
C9 C14 1_555 1_555
C10 C33 1_555 1_555
C11 O3 1_555 1_555
C12 O2 1_555 1_555
C13 H5 1_555 1_555
C14 C8 1_555 1_555
H6 C14 1_555 1_555
C15 N2 1_555 1_555
C16 H7 1_555 1_555
C17 C9 1_555 1_555
C18 N1 1_555 1_555
H8 C18 1_555 1_555
C19 C11 1_555 1_555
N3 C23 1_555 1_555
C20 C6 1_555 1_555
H9 C20 1_555 1_555
C21 C4 1_555 1_555
N4 C28 1_555 1_555
C22 H10 1_555 1_555
C23 C8 1_555 1_555
H11 C23 1_555 1_555
C24 C9 1_555 1_555
H12 C24 1_555 1_555
C25 C4 1_555 1_555
H13 C25 1_555 1_555
C26 C2 1_555 1_555
C27 C16 1_555 1_555
C28 C19 1_555 1_555
H14 C28 1_555 1_555
C29 N4 1_555 1_555
H15 C29 1_555 1_555
C30 C3 1_555 1_555
H16 C30 1_555 1_555
C31 C2 1_555 1_555
C32 C1 1_555 1_555
H17 C32 1_555 1_555
C33 C1 1_555 1_555
H18 C33 1_555 1_555
C34 C7 1_555 1_555
H19 C34 1_555 1_555
C35 C15 1_555 1_555
C36 C3 1_555 1_555
H20 C36 1_555 1_555
C37 C21 1_555 1_555
H21 C37 1_555 1_555
C38 C18 1_555 1_555
H22 C38 1_555 1_555
O9 H23 1_555 1_555
H24 O9 1_555 1_555
O10 H25 1_555 1_555
H26 O10 1_555 1_555
H27 O8 1_555 1_555
Gd1A O2 1_555 1_555
Gd1_2 O5 1_555 1_555
Gd1A_2 O6 1_555 1_555
O2A Gd1 1_555 1_555
O5_2 Gd1 1_555 1_555
O6A Gd1 1_555 1_555
O4 C11 1_555 1_555
C5 C15 1_555 1_555
C5 C21 1_555 1_555
C6 C12 1_555 1_555
C13 C36 1_555 1_555
C16 C19 1_555 1_555
N3 C24 1_555 1_555
C20 C32 1_555 1_555
C22 C34 1_555 1_555
C22 C35 1_555 1_555
C25 C35 1_555 1_555
C26 C27 1_555 1_555
C26 C30 1_555 1_555
C27 C29 1_555 1_555
C37 C38 1_555 1_555
Gd1A O2A 1_555 1_555

#END
