
#######################################################################
#
#                 Cambridge Crystallographic Data Centre
#                                CCDC 
#
#######################################################################
#
# If this CIF has been generated from an entry in the Cambridge 
# Structural Database, then it will include bibliographic, chemical, 
# crystal, experimental, refinement or atomic coordinate data resulting 
# from the CCDC's data processing and validation procedures.
#
#######################################################################

data_PEFVON
_symmetry_cell_setting           triclinic
_symmetry_space_group_name_H-M   'P -1'
_symmetry_Int_Tables_number      2
_space_group_name_Hall           '-P 1'
loop_
_symmetry_equiv_pos_site_id
_symmetry_equiv_pos_as_xyz
1 x,y,z
2 -x,-y,-z
_cell_length_a                   9.173(5)
_cell_length_b                   13.657(7)
_cell_length_c                   14.292(7)
_cell_angle_alpha                97.179(4)
_cell_angle_beta                 96.766(5)
_cell_angle_gamma                104.724(4)
_cell_volume                     1697.07
loop_
_atom_site_label
_atom_site_type_symbol
_atom_site_fract_x
_atom_site_fract_y
_atom_site_fract_z
N1 N -0.7114(5) -0.2914(3) -0.7786(3)
C1 C -0.6034(5) -0.0821(4) -0.7143(3)
H1 H -0.5690 -0.0116 -0.6938
C2 C -0.7806(6) -0.2427(4) -0.7185(3)
H2 H -0.8673 -0.2813 -0.6989
C3 C -0.8229(5) -0.0909(4) -0.6181(3)
C4 C -0.7322(5) -0.1392(3) -0.6837(3)
O1 O -0.9343(4) -0.1501(2) -0.5924(2)
O2 O -0.7795(4) 0.0053(2) -0.5937(2)
Pr1 Pr -0.12701(3) -0.14068(2) -0.486170(19)
O3 O -0.1665(4) -0.2105(3) -0.3323(2)
N2 N -0.2335(4) -0.3326(3) -0.5759(3)
O4 O -0.2806(4) -0.1328(3) -0.6365(2)
O5 O 0.0163(4) -0.2498(3) -0.4026(2)
N3 N -0.4211(4) -0.2333(3) -0.4947(3)
C5 C -0.3844(6) -0.3818(4) -0.5871(3)
O6 O -0.0993(4) 0.0120(3) -0.6007(2)
C6 C -0.4829(5) -0.3301(4) -0.5424(3)
C7 C -0.0691(6) -0.2902(4) -0.1664(4)
H3 H -0.1707 -0.2891 -0.1739
C8 C -0.2085(5) -0.0511(4) -0.6596(3)
C9 C -0.0504(6) -0.2445(4) -0.3313(4)
C10 C -0.2440(5) -0.0316(3) -0.7591(3)
C11 C -0.3894(5) -0.0738(4) -0.8139(3)
C12 C -0.5259(5) -0.1295(4) -0.7749(3)
C13 C -0.6384(6) -0.3814(4) -0.5474(4)
O7 O -0.1703(5) -0.5156(3) -0.1233(3)
H4 H -0.2076 -0.5745 -0.1571
C14 C 0.0129(6) -0.2735(4) -0.2403(3)
C15 C -0.1241(6) 0.0167(4) -0.8028(4)
H5 H -0.0283 0.0460 -0.7664
C16 C -0.1433(6) -0.3814(4) -0.6145(4)
H6 H -0.0395 -0.3486 -0.6058
C17 C -0.5858(6) -0.2339(4) -0.8049(4)
H7 H -0.5355 -0.2666 -0.8463
C18 C -0.5126(6) -0.1867(4) -0.4546(4)
H8 H -0.4714 -0.1194 -0.4238
C19 C -0.4456(7) -0.4821(4) -0.6385(4)
C20 C -0.0012(6) -0.3087(4) -0.0811(3)
C21 C -0.0835(6) -0.3203(4) 0.0031(3)
C22 C -0.2763(7) -0.4031(5) 0.0892(4)
H9 H -0.3559 -0.4593 0.0935
C23 C 0.1632(6) -0.2767(4) -0.2260(4)
H10 H 0.2189 -0.2666 -0.2760
N4 N 0.2327(5) -0.2935(4) -0.1450(4)
C24 C -0.2846(7) -0.0202(5) -0.9531(4)
H11 H -0.2985 -0.0180 -1.0182
C25 C -0.2023(6) -0.4035(4) 0.0092(4)
C26 C -0.1444(7) 0.0221(4) -0.8992(4)
H12 H -0.0627 0.0545 -0.9273
C27 C -0.4070(6) -0.0668(4) -0.9099(4)
H13 H -0.5030 -0.0938 -0.9467
O8 O -0.3715(6) -0.5662(4) -0.0543(5)
C28 C -0.7274(6) -0.3284(5) -0.5009(4)
H14 H -0.8300 -0.3605 -0.5014
C29 C 0.1503(7) -0.3094(5) -0.0749(4)
H15 H 0.1976 -0.3217 -0.0181
C30 C -0.2580(8) -0.4999(5) -0.0630(5)
C31 C -0.6670(6) -0.2316(5) -0.4552(4)
H16 H -0.7266 -0.1958 -0.4249
C32 C -0.0405(7) -0.2400(4) 0.0768(4)
H17 H 0.0393 -0.1835 0.0734
C33 C -0.1950(8) -0.4800(4) -0.6678(4)
H18 H -0.1272 -0.5110 -0.6948
C34 C -0.6950(7) -0.4827(5) -0.5992(5)
H19 H -0.7977 -0.5166 -0.6029
C35 C -0.6056(7) -0.5309(5) -0.6427(5)
H20 H -0.6474 -0.5970 -0.6763
C36 C -0.1123(8) -0.2403(5) 0.1563(4)
H21 H -0.0782 -0.1856 0.2066
C37 C -0.2327(8) -0.3205(6) 0.1614(4)
H22 H -0.2850 -0.3193 0.2134
C38 C -0.3456(8) -0.5295(5) -0.6797(4)
H23 H -0.3822 -0.5950 -0.7152
O1_2 O 0.0657(4) -0.1501(2) -0.5924(2)
O2A O -0.2205(4) -0.0053(2) -0.4063(2)
Pr1A Pr 0.12701(3) 0.14068(2) -0.513830(19)
Pr1_2 Pr -1.12701(3) -0.14068(2) -0.486170(19)
Pr1A_2 Pr -0.87299(3) 0.14068(2) -0.513830(19)
O6A O 0.0993(4) -0.0120(3) -0.3993(2)
O9 O 0.5451(5) -0.2953(5) -0.1081(4)
H24 H 0.4524 -0.2945 -0.1195
H25 H 0.5417 -0.3332 -0.0657
O10 O 0.6590(10) -0.1237(6) -0.2024(5)
H26 H 0.7104 -0.1481 -0.2403
H27 H 0.6246 -0.1738 -0.1740
loop_
_geom_bond_atom_site_label_1
_geom_bond_atom_site_label_2
_geom_bond_site_symmetry_1
_geom_bond_site_symmetry_2
N1 C2 1_555 1_555
C1 H1 1_555 1_555
C2 H2 1_555 1_555
C3 C4 1_555 1_555
C4 C1 1_555 1_555
O1 C3 1_555 1_555
O2 C3 1_555 1_555
Pr1 O3 1_555 1_555
O3 C9 1_555 1_555
N2 Pr1 1_555 1_555
O4 Pr1 1_555 1_555
O5 Pr1 1_555 1_555
N3 Pr1 1_555 1_555
C5 N2 1_555 1_555
O6 Pr1 1_555 1_555
C6 N3 1_555 1_555
C7 H3 1_555 1_555
C8 O4 1_555 1_555
C9 O5 1_555 1_555
C10 C8 1_555 1_555
C11 C10 1_555 1_555
C12 C1 1_555 1_555
C13 C6 1_555 1_555
O7 H4 1_555 1_555
C14 C7 1_555 1_555
C15 C10 1_555 1_555
H5 C15 1_555 1_555
C16 N2 1_555 1_555
H6 C16 1_555 1_555
C17 N1 1_555 1_555
H7 C17 1_555 1_555
C18 N3 1_555 1_555
H8 C18 1_555 1_555
C19 C5 1_555 1_555
C20 C7 1_555 1_555
C21 C20 1_555 1_555
C22 H9 1_555 1_555
C23 C14 1_555 1_555
H10 C23 1_555 1_555
N4 C23 1_555 1_555
C24 H11 1_555 1_555
C25 C21 1_555 1_555
C26 C15 1_555 1_555
H12 C26 1_555 1_555
C27 C11 1_555 1_555
H13 C27 1_555 1_555
O8 C30 1_555 1_555
C28 C13 1_555 1_555
H14 C28 1_555 1_555
C29 C20 1_555 1_555
H15 C29 1_555 1_555
C30 O7 1_555 1_555
C31 C18 1_555 1_555
H16 C31 1_555 1_555
C32 C21 1_555 1_555
H17 C32 1_555 1_555
C33 C16 1_555 1_555
H18 C33 1_555 1_555
C34 C13 1_555 1_555
H19 C34 1_555 1_555
C35 C19 1_555 1_555
H20 C35 1_555 1_555
C36 C32 1_555 1_555
H21 C36 1_555 1_555
C37 C22 1_555 1_555
H22 C37 1_555 1_555
C38 C19 1_555 1_555
H23 C38 1_555 1_555
O9 H24 1_555 1_555
H25 O9 1_555 1_555
O10 H26 1_555 1_555
H27 O10 1_555 1_555
O1_2 Pr1 1_555 1_555
O2A Pr1 1_555 1_555
Pr1A O6 1_555 1_555
Pr1_2 O1 1_555 1_555
Pr1A_2 O2 1_555 1_555
O6A Pr1 1_555 1_555
C2 C4 1_555 1_555
C5 C6 1_555 1_555
O6 C8 1_555 1_555
C9 C14 1_555 1_555
C11 C12 1_555 1_555
C12 C17 1_555 1_555
C22 C25 1_555 1_555
N4 C29 1_555 1_555
C24 C26 1_555 1_555
C24 C27 1_555 1_555
C25 C30 1_555 1_555
C28 C31 1_555 1_555
C33 C38 1_555 1_555
C34 C35 1_555 1_555
C36 C37 1_555 1_555
Pr1A O6A 1_555 1_555

#END
