
#######################################################################
#
#                 Cambridge Crystallographic Data Centre
#                                CCDC 
#
#######################################################################
#
# If this CIF has been generated from an entry in the Cambridge 
# Structural Database, then it will include bibliographic, chemical, 
# crystal, experimental, refinement or atomic coordinate data resulting 
# from the CCDC's data processing and validation procedures.
#
#######################################################################

data_PEFVIF
_symmetry_cell_setting           tetragonal
_symmetry_space_group_name_H-M   'P -4 21 c'
_symmetry_Int_Tables_number      114
_space_group_name_Hall           'P -4 2n'
loop_
_symmetry_equiv_pos_site_id
_symmetry_equiv_pos_as_xyz
1 x,y,z
2 -y,x,-z
3 -x,-y,z
4 y,-x,-z
5 1/2-x,1/2+y,1/2-z
6 1/2+y,1/2+x,1/2+z
7 1/2+x,1/2-y,1/2-z
8 1/2-y,1/2-x,1/2+z
_cell_length_a                   15.845(3)
_cell_length_b                   15.845(3)
_cell_length_c                   22.789(1)
_cell_angle_alpha                90
_cell_angle_beta                 90
_cell_angle_gamma                90
_cell_volume                     5721.5
loop_
_atom_site_label
_atom_site_type_symbol
_atom_site_fract_x
_atom_site_fract_y
_atom_site_fract_z
Cu1 Cu 0.3614(2) -0.0042(3) 0.6292(1)
Cu2 Cu 0.4174(3) 0.0732(3) 0.3790(1)
Cu3 Cu 0.4288(3) 0.2391(3) 0.6434(1)
O1 O 0.226(1) 0.028(1) 0.627(1)
N1 N 0.3989(16) 0.0621(17) 0.5597(10)
N2 N 0.4068(16) 0.1443(16) 0.5467(9)
C1 C 0.4180(15) 0.1383(16) 0.4892(9)
N3 N 0.4011(13) 0.0739(14) 0.4641(7)
C2 C 0.397(2) 0.020(2) 0.510(1)
C3 C 0.372(2) -0.072(2) 0.513(1)
O2 O 0.3606(15) -0.0964(15) 0.5679(9)
O3 O 0.3777(15) -0.1184(15) 0.4752(8)
C4 C 0.425(2) 0.224(2) 0.453(1)
O4 O 0.4278(10) 0.1965(12) 0.3932(7)
O5 O 0.4383(13) 0.2916(13) 0.4704(7)
O6 O 0.5715(11) 0.0521(9) 0.3779(8)
N4 N 0.3964(12) 0.0674(13) 0.6923(7)
N5 N 0.4209(14) 0.1450(14) 0.7023(7)
C5 C 0.431(2) 0.159(2) 0.763(1)
N6 N 0.4186(15) 0.0725(15) 0.7901(8)
C6 C 0.394(2) 0.026(2) 0.743(1)
C7 C 0.376(2) -0.060(2) 0.745(2)
O7 O 0.3471(10) -0.0855(10) 0.6902(6)
O8 O 0.3641(12) -0.1106(11) 0.7880(7)
C8 C 0.458(2) 0.226(3) 0.801(2)
O9 O 0.4510(14) 0.2277(14) 0.8492(9)
O10 O 0.468(1) 0.289(2) 0.763(1)
N7 N 0.307(2) 0.273(2) 0.653(1)
C9 C 0.581(2) 0.305(2) 0.594(2)
C10 C 0.528(2) 0.370(2) 0.596(1)
N8 N 0.4401(15) 0.3403(15) 0.5917(10)
C11 C 0.377(2) 0.397(2) 0.608(1)
C12 C 0.302(2) 0.344(2) 0.617(2)
N9 N 0.5516(14) 0.2389(14) 0.6413(10)
H1 H 0.622(2) 0.305(2) 0.624(2)
H2 H 0.596(2) 0.280(2) 0.558(2)
H3 H 0.533(2) 0.402(2) 0.631(1)
H4 H 0.539(2) 0.404(2) 0.562(1)
H5 H 0.390(2) 0.423(2) 0.645(1)
H6 H 0.369(2) 0.439(2) 0.579(1)
H7 H 0.268(2) 0.352(2) 0.651(2)
H8 H 0.274(2) 0.328(2) 0.582(2)
O6B O 0.4285(11) -0.0521(9) 0.3779(8)
N6G N 0.4275(15) 0.0814(15) 0.2901(8)
O9G O 0.2723(14) 0.0490(14) 0.3492(9)
Cu2B Cu 0.5826(3) -0.0732(3) 0.3790(1)
Cu2G Cu 0.4268(3) 0.0826(3) 0.8790(1)
O11 O 0.209(3) 0.208(3) 0.449(2)
O12 O 0.251(3) 0.249(3) 0.287(2)
O13 O 0.432(2) 0.309(2) 0.299(1)
O14 O 0.049(3) 0.135(3) 0.274(2)
O15 O 0.348(4) 0.331(4) 0.207(3)
loop_
_geom_bond_atom_site_label_1
_geom_bond_atom_site_label_2
_geom_bond_site_symmetry_1
_geom_bond_site_symmetry_2
Cu1 O1 1_555 1_555
Cu2 N3 1_555 1_555
Cu3 N5 1_555 1_555
N1 Cu1 1_555 1_555
N2 N1 1_555 1_555
C1 N2 1_555 1_555
N3 C1 1_555 1_555
C2 N1 1_555 1_555
C3 C2 1_555 1_555
O2 Cu1 1_555 1_555
O3 C3 1_555 1_555
C4 C1 1_555 1_555
O4 Cu2 1_555 1_555
O5 C4 1_555 1_555
O6 Cu2 1_555 1_555
N4 Cu1 1_555 1_555
N5 N4 1_555 1_555
C5 N5 1_555 1_555
N6 C5 1_555 1_555
C6 N4 1_555 1_555
C7 C6 1_555 1_555
O7 Cu1 1_555 1_555
O8 C7 1_555 1_555
C8 C5 1_555 1_555
O9 C8 1_555 1_555
O10 C8 1_555 1_555
N7 Cu3 1_555 1_555
C9 C10 1_555 1_555
C10 N8 1_555 1_555
N8 Cu3 1_555 1_555
C11 N8 1_555 1_555
C12 N7 1_555 1_555
N9 Cu3 1_555 1_555
H1 C9 1_555 1_555
H2 C9 1_555 1_555
H3 C10 1_555 1_555
H4 C10 1_555 1_555
H5 C11 1_555 1_555
H6 C11 1_555 1_555
H7 C12 1_555 1_555
H8 C12 1_555 1_555
O6B Cu2 1_555 1_555
N6G Cu2 1_555 1_555
O9G Cu2 1_555 1_555
Cu2B O6 1_555 1_555
Cu2G N6 1_555 1_555
N3 C2 1_555 1_555
C3 O2 1_555 1_555
C4 O4 1_555 1_555
N6 C6 1_555 1_555
C7 O7 1_555 1_555
O9 Cu2G 1_555 1_555
C9 N9 1_555 1_555
C11 C12 1_555 1_555
O6B Cu2B 1_555 1_555

#END
