
#######################################################################
#
#                 Cambridge Crystallographic Data Centre
#                                CCDC 
#
#######################################################################
#
# If this CIF has been generated from an entry in the Cambridge 
# Structural Database, then it will include bibliographic, chemical, 
# crystal, experimental, refinement or atomic coordinate data resulting 
# from the CCDC's data processing and validation procedures.
#
#######################################################################

data_PEFVAZ
_symmetry_cell_setting           monoclinic
_symmetry_space_group_name_H-M   'P 21/c'
_symmetry_Int_Tables_number      14
_space_group_name_Hall           '-P 2ybc'
loop_
_symmetry_equiv_pos_site_id
_symmetry_equiv_pos_as_xyz
1 x,y,z
2 -x,1/2+y,1/2-z
3 -x,-y,-z
4 x,1/2-y,1/2+z
_cell_length_a                   16.567(4)
_cell_length_b                   9.838(2)
_cell_length_c                   13.030(3)
_cell_angle_alpha                90
_cell_angle_beta                 105.955(2)
_cell_angle_gamma                90
_cell_volume                     2041.9
loop_
_atom_site_label
_atom_site_type_symbol
_atom_site_fract_x
_atom_site_fract_y
_atom_site_fract_z
Mn1 Mn 0.73036(4) 0.53256(6) 0.37358(4)
N1 N 0.78353(19) 0.4716(3) 0.5456(2)
N2 N 0.6704(2) 0.7260(3) 0.4182(2)
C1 C 0.5449(2) 0.5898(4) 0.3823(3)
C2 C 0.8363(2) 0.3958(4) 0.7584(3)
H1 H 0.8543 0.3701 0.8297
C3 C 0.8462(2) 0.5360(4) 0.6151(3)
H2 H 0.8726 0.6070 0.5899
C4 C 0.8743(2) 0.5037(4) 0.7221(3)
C5 C 0.9456(2) 0.5772(4) 0.7976(3)
C6 C 0.5869(2) 0.7245(4) 0.4062(3)
O1 O 0.66847(18) 0.6044(3) 0.2069(2)
H3 H 0.7149 0.6397 0.2027
H4 H 0.6626 0.5402 0.1653
N3 N 0.59488(19) 0.4836(3) 0.3753(2)
C7 C 0.7474(2) 0.3680(4) 0.5839(3)
H5 H 0.7036 0.3220 0.5369
C8 C 0.7716(2) 0.3262(4) 0.6888(3)
C9 C 0.9363(2) 0.7062(4) 0.8388(3)
C10 C 0.4776(3) 0.3346(4) 0.3478(3)
H6 H 0.4567 0.2464 0.3378
C11 C 1.0801(3) 0.6952(5) 0.9465(3)
H7 H 1.1253 0.7351 0.9959
C12 C 0.5860(3) 0.9635(4) 0.4321(3)
H8 H 0.5577 1.0436 0.4378
C13 C 0.5602(3) 0.3611(4) 0.3577(3)
H9 H 0.5945 0.2884 0.3516
C14 C 1.0197(3) 0.5124(4) 0.8312(4)
H10 H 1.0252 0.4268 0.8036
C15 C 0.6702(3) 0.9661(4) 0.4431(4)
H11 H 0.7000 1.0474 0.4547
C16 C 0.4260(3) 0.4436(4) 0.3532(3)
H12 H 0.3690 0.4305 0.3449
C17 C 0.4604(2) 0.5715(4) 0.3709(3)
H13 H 0.4267 0.6457 0.3752
C18 C 1.0047(3) 0.7621(4) 0.9140(3)
H14 H 0.9991 0.8468 0.9430
C19 C 0.5430(3) 0.8429(4) 0.4127(3)
H15 H 0.4854 0.8405 0.4040
C20 C 0.7097(3) 0.8452(4) 0.4365(3)
H16 H 0.7674 0.8466 0.4452
C21 C 1.0884(3) 0.5687(5) 0.9055(4)
H17 H 1.1389 0.5217 0.9271
C22 C 0.7272(2) 0.2068(4) 0.7209(3)
O2 O 0.66770(16) 0.1561(3) 0.6507(2)
C23 C 0.8565(3) 0.7867(4) 0.8065(3)
O3 O 0.8111(2) 0.7735(3) 0.7137(2)
O4 O 0.75261(17) 0.1662(3) 0.8171(2)
O5 O 0.84105(17) 0.8614(3) 0.8759(2)
Mn1C Mn 0.73036(4) -0.03256(6) 0.87358(4)
Mn1C_2 Mn 0.73036(4) 0.96744(6) 0.87358(4)
O4C O 0.75261(17) 0.3338(3) 0.3171(2)
O5C O 0.84105(17) 0.6386(3) 0.3759(2)
loop_
_geom_bond_atom_site_label_1
_geom_bond_atom_site_label_2
_geom_bond_site_symmetry_1
_geom_bond_site_symmetry_2
Mn1 N1 1_555 1_555
N1 C3 1_555 1_555
N2 Mn1 1_555 1_555
C1 C6 1_555 1_555
C2 H1 1_555 1_555
C3 H2 1_555 1_555
C4 C2 1_555 1_555
C5 C4 1_555 1_555
C6 N2 1_555 1_555
O1 Mn1 1_555 1_555
H3 O1 1_555 1_555
H4 O1 1_555 1_555
N3 Mn1 1_555 1_555
C7 N1 1_555 1_555
H5 C7 1_555 1_555
C8 C2 1_555 1_555
C9 C5 1_555 1_555
C10 H6 1_555 1_555
C11 H7 1_555 1_555
C12 H8 1_555 1_555
C13 N3 1_555 1_555
H9 C13 1_555 1_555
C14 C5 1_555 1_555
H10 C14 1_555 1_555
C15 C12 1_555 1_555
H11 C15 1_555 1_555
C16 C10 1_555 1_555
H12 C16 1_555 1_555
C17 C1 1_555 1_555
H13 C17 1_555 1_555
C18 C9 1_555 1_555
H14 C18 1_555 1_555
C19 C6 1_555 1_555
H15 C19 1_555 1_555
C20 N2 1_555 1_555
H16 C20 1_555 1_555
C21 C11 1_555 1_555
H17 C21 1_555 1_555
C22 C8 1_555 1_555
O2 C22 1_555 1_555
C23 C9 1_555 1_555
O3 C23 1_555 1_555
O4 C22 1_555 1_555
O5 C23 1_555 1_555
Mn1C O4 1_555 1_555
Mn1C_2 O5 1_555 1_555
O4C Mn1 1_555 1_555
O5C Mn1 1_555 1_555
C1 N3 1_555 1_555
C3 C4 1_555 1_555
C7 C8 1_555 1_555
C10 C13 1_555 1_555
C11 C18 1_555 1_555
C12 C19 1_555 1_555
C14 C21 1_555 1_555
C15 C20 1_555 1_555
C16 C17 1_555 1_555

#END
