
#######################################################################
#
#                 Cambridge Crystallographic Data Centre
#                                CCDC 
#
#######################################################################
#
# If this CIF has been generated from an entry in the Cambridge 
# Structural Database, then it will include bibliographic, chemical, 
# crystal, experimental, refinement or atomic coordinate data resulting 
# from the CCDC's data processing and validation procedures.
#
#######################################################################

data_PEGGOY
_symmetry_cell_setting           monoclinic
_symmetry_space_group_name_H-M   'C c'
_symmetry_Int_Tables_number      9
_space_group_name_Hall           'C -2yc'
loop_
_symmetry_equiv_pos_site_id
_symmetry_equiv_pos_as_xyz
1 x,y,z
2 x,-y,1/2+z
3 1/2+x,1/2+y,z
4 1/2+x,1/2-y,1/2+z
_cell_length_a                   8.0131(16)
_cell_length_b                   29.833(6)
_cell_length_c                   8.4860(17)
_cell_angle_alpha                90
_cell_angle_beta                 110.914(3)
_cell_angle_gamma                90
_cell_volume                     1894.97
loop_
_atom_site_label
_atom_site_type_symbol
_atom_site_fract_x
_atom_site_fract_y
_atom_site_fract_z
Cd1 Cd 0.99991(12) 0.89549(2) 1.00019(12)
S1 S 0.6015(3) 0.85651(10) 1.0146(3)
N1 N 1.0050(11) 0.8467(3) 0.7988(11)
N2 N 0.8037(11) 0.9204(3) 0.7436(11)
O1 O 0.7942(9) 0.8504(3) 1.0665(9)
O2 O 0.5252(10) 0.8281(3) 1.1038(9)
O3 O 0.5544(9) 0.9035(2) 1.0163(11)
O4 O 0.1414(11) 0.9107(3) 0.4155(10)
O5 O 0.1874(10) 0.8655(3) 0.2284(9)
O6 O 1.2295(12) 0.9411(3) 0.9788(11)
O7 O 0.9106(11) 0.9497(3) 1.1435(10)
C1 C 0.5164(14) 0.8385(3) 0.8033(13)
C2 C 0.5728(16) 0.7978(4) 0.7641(15)
H1 H 0.6526 0.7803 0.8483
C3 C 0.5098(15) 0.7830(4) 0.5985(15)
H2 H 0.5466 0.7555 0.5711
C4 C 0.3948(14) 0.8088(4) 0.4768(13)
H3 H 0.3537 0.7987 0.3657
C5 C 0.3371(12) 0.8495(4) 0.5136(12)
C6 C 0.3993(13) 0.8650(4) 0.6805(12)
H4 H 0.3624 0.8926 0.7076
C7 C 0.2122(15) 0.8784(5) 0.3774(16)
C8 C 1.0985(14) 0.8090(4) 0.8283(14)
H5 H 1.1781 0.8040 0.9375
C9 C 1.0868(14) 0.7776(4) 0.7130(17)
H6 H 1.1525 0.7513 0.7440
C10 C 0.9807(16) 0.7841(4) 0.5531(16)
H7 H 0.9739 0.7629 0.4707
C11 C 0.8796(15) 0.8237(4) 0.5119(15)
H8 H 0.8032 0.8291 0.4019
C12 C 0.8959(14) 0.8538(3) 0.6362(13)
C13 C 0.785(2) 0.8957(4) 0.6109(18)
C14 C 0.6671(16) 0.9082(4) 0.4518(14)
H9 H 0.6582 0.8909 0.3581
C15 C 0.5671(15) 0.9448(4) 0.4335(15)
H10 H 0.4860 0.9527 0.3279
C16 C 0.5843(16) 0.9703(4) 0.5697(16)
H11 H 0.5163 0.9962 0.5594
C17 C 0.7050(16) 0.9573(3) 0.7242(14)
H12 H 0.7180 0.9750 0.8182
H13 H 1.213(12) 0.946(4) 0.876(4)
H14 H 1.323(7) 0.925(3) 1.023(13)
H15 H 0.965(15) 0.944(3) 1.247(3)
H16 H 0.909(17) 0.9776(7) 1.125(11)
Cd1_2 Cd -0.00009(12) 0.89549(2) 0.00019(12)
O5_2 O 1.1874(10) 0.8655(3) 1.2284(9)
O8 O 0.1668(17) 0.9718(3) 0.6675(13)
H17 H 0.19(2) 0.950(2) 0.614(16)
H18 H 0.197(19) 0.9960(18) 0.632(16)
loop_
_geom_bond_atom_site_label_1
_geom_bond_atom_site_label_2
_geom_bond_site_symmetry_1
_geom_bond_site_symmetry_2
Cd1 N1 1_555 1_555
S1 O1 1_555 1_555
N1 C8 1_555 1_555
N2 Cd1 1_555 1_555
O1 Cd1 1_555 1_555
O2 S1 1_555 1_555
O3 S1 1_555 1_555
O4 C7 1_555 1_555
O5 C7 1_555 1_555
O6 Cd1 1_555 1_555
O7 Cd1 1_555 1_555
O8 H17 1_555 1_555
C1 S1 1_555 1_555
C2 C1 1_555 1_555
H1 C2 1_555 1_555
C3 C2 1_555 1_555
H2 C3 1_555 1_555
C4 C3 1_555 1_555
H3 C4 1_555 1_555
C5 C4 1_555 1_555
C6 C1 1_555 1_555
H4 C6 1_555 1_555
C7 C5 1_555 1_555
C8 H5 1_555 1_555
C9 C8 1_555 1_555
H6 C9 1_555 1_555
C10 C9 1_555 1_555
H7 C10 1_555 1_555
C11 C10 1_555 1_555
H8 C11 1_555 1_555
C12 N1 1_555 1_555
C13 N2 1_555 1_555
C14 C13 1_555 1_555
H9 C14 1_555 1_555
C15 C14 1_555 1_555
H10 C15 1_555 1_555
C16 C15 1_555 1_555
H11 C16 1_555 1_555
C17 N2 1_555 1_555
H12 C17 1_555 1_555
H13 O6 1_555 1_555
H14 O6 1_555 1_555
H15 O7 1_555 1_555
H16 O7 1_555 1_555
H18 O8 1_555 1_555
Cd1_2 O5 1_555 1_555
O5_2 Cd1 1_555 1_555
C5 C6 1_555 1_555
C11 C12 1_555 1_555
C12 C13 1_555 1_555
C16 C17 1_555 1_555

#END
