
#######################################################################
#
#                 Cambridge Crystallographic Data Centre
#                                CCDC 
#
#######################################################################
#
# If this CIF has been generated from an entry in the Cambridge 
# Structural Database, then it will include bibliographic, chemical, 
# crystal, experimental, refinement or atomic coordinate data resulting 
# from the CCDC's data processing and validation procedures.
#
#######################################################################

data_PEGRAW01
_symmetry_cell_setting           monoclinic
_symmetry_space_group_name_H-M   'P 21/c'
_symmetry_Int_Tables_number      14
_space_group_name_Hall           '-P 2ybc'
loop_
_symmetry_equiv_pos_site_id
_symmetry_equiv_pos_as_xyz
1 x,y,z
2 -x,1/2+y,1/2-z
3 -x,-y,-z
4 x,1/2-y,1/2+z
_cell_length_a                   15.0954(6)
_cell_length_b                   11.5689(4)
_cell_length_c                   10.6232(4)
_cell_angle_alpha                90
_cell_angle_beta                 110.192(4)
_cell_angle_gamma                90
_cell_volume                     1741.19
loop_
_atom_site_label
_atom_site_type_symbol
_atom_site_fract_x
_atom_site_fract_y
_atom_site_fract_z
Co1 Co 0.40523(3) 0.30861(3) 0.19775(4)
Co2 Co 0.59740(3) 0.35517(3) 0.15040(4)
P1 P 0.37287(5) 0.37308(6) -0.09034(7)
P2 P -0.38221(5) 0.20544(7) -0.05196(7)
O1 O 0.45015(14) 0.37355(17) 0.0487(2)
O2 O 0.38019(14) 0.47381(17) -0.1787(2)
O3 O 0.36364(14) 0.25782(18) -0.1603(2)
O4 O -0.44888(14) 0.18721(19) -0.1964(2)
O5 O -0.41018(18) 0.1516(3) 0.0571(3)
O6 O -0.36499(17) 0.3343(2) -0.0169(3)
O7 O 0.38940(16) 0.4886(2) 0.2407(2)
O8 O 0.42438(15) 0.14131(18) 0.1234(2)
N1 N 0.25751(16) 0.3163(2) 0.0538(2)
N2 N -0.25639(16) 0.1748(2) -0.1824(2)
C1 C 0.19286(19) 0.3641(3) 0.1189(3)
H1 H 0.2121 0.4445 0.1471
H2 H 0.2001 0.3185 0.2008
C2 C 0.08828(19) 0.3639(2) 0.0297(3)
H3 H 0.0500 0.3970 0.0800
H4 H 0.0794 0.4128 -0.0502
C3 C 0.05464(19) 0.2405(2) -0.0150(3)
H5 H 0.0617 0.1937 0.0670
C4 C 0.12081(19) 0.1897(3) -0.0825(3)
H6 H 0.1041 0.1076 -0.1045
H7 H 0.1110 0.2313 -0.1677
C5 C 0.22504(19) 0.1975(2) 0.0048(3)
H8 H 0.2366 0.1459 0.0832
H9 H 0.2635 0.1686 -0.0475
C6 C 0.26383(19) 0.3938(2) -0.0546(3)
H10 H 0.2602 0.4751 -0.0279
H11 H 0.2092 0.3790 -0.1373
C7 C -0.2197(2) 0.2952(2) -0.1703(3)
H12 H -0.2620 0.3456 -0.1411
H13 H -0.2224 0.3219 -0.2600
C8 C -0.1185(2) 0.3102(3) -0.0721(3)
H14 H -0.0991 0.3919 -0.0728
H15 H -0.1164 0.2914 0.0198
C9 C -0.04940(19) 0.2324(3) -0.1090(3)
H16 H -0.0516 0.2553 -0.2008
C10 C -0.0860(2) 0.1081(3) -0.1180(3)
H17 H -0.0455 0.0571 -0.1500
H18 H -0.0817 0.0816 -0.0274
C11 C -0.18785(19) 0.0976(3) -0.2125(3)
H19 H -0.1898 0.1139 -0.3049
H20 H -0.2086 0.0167 -0.2104
C12 C -0.2742(2) 0.1387(3) -0.0592(3)
H21 H -0.2201 0.1617 0.0208
H22 H -0.2801 0.0535 -0.0582
H23 H 0.400(4) 0.538(3) 0.189(3)
H24 H 0.400(3) 0.521(3) 0.315(2)
H25 H 0.430(3) 0.090(2) 0.181(3)
H26 H 0.462(3) 0.126(4) 0.083(4)
Co1C Co -0.59477(3) 0.19139(3) -0.30225(4)
Co1C_2 Co 0.40523(3) 0.19139(3) -0.30225(4)
Co2_2 Co -0.40260(3) 0.35517(3) 0.15040(4)
Co2B Co 0.40260(3) 0.64483(3) -0.15040(4)
Co2C Co -0.40260(3) 0.14483(3) -0.34960(4)
O2B O 0.61981(14) 0.52619(17) 0.1787(2)
O3C O 0.36364(14) 0.24218(18) 0.3397(2)
O4C O 0.55112(14) 0.31279(19) 0.3036(2)
O6_2 O 0.63501(17) 0.3343(2) -0.0169(3)
N2C N 0.74361(16) 0.3252(2) 0.3176(2)
loop_
_geom_bond_atom_site_label_1
_geom_bond_atom_site_label_2
_geom_bond_site_symmetry_1
_geom_bond_site_symmetry_2
Co1 O1 1_555 1_555
Co2 O1 1_555 1_555
P1 O1 1_555 1_555
P2 O4 1_555 1_555
O2 P1 1_555 1_555
O3 P1 1_555 1_555
O4 Co1C 1_555 1_555
O5 P2 1_555 1_555
O6 P2 1_555 1_555
O7 Co1 1_555 1_555
O8 Co1 1_555 1_555
N1 Co1 1_555 1_555
N2 C7 1_555 1_555
C1 N1 1_555 1_555
H1 C1 1_555 1_555
H2 C1 1_555 1_555
C2 C1 1_555 1_555
H3 C2 1_555 1_555
H4 C2 1_555 1_555
C3 C2 1_555 1_555
H5 C3 1_555 1_555
C4 C3 1_555 1_555
H6 C4 1_555 1_555
H7 C4 1_555 1_555
C5 N1 1_555 1_555
H8 C5 1_555 1_555
H9 C5 1_555 1_555
C6 P1 1_555 1_555
H10 C6 1_555 1_555
H11 C6 1_555 1_555
C7 H12 1_555 1_555
H13 C7 1_555 1_555
C8 C7 1_555 1_555
H14 C8 1_555 1_555
H15 C8 1_555 1_555
C9 C3 1_555 1_555
H16 C9 1_555 1_555
C10 C9 1_555 1_555
H17 C10 1_555 1_555
H18 C10 1_555 1_555
C11 N2 1_555 1_555
H19 C11 1_555 1_555
H20 C11 1_555 1_555
C12 P2 1_555 1_555
H21 C12 1_555 1_555
H22 C12 1_555 1_555
H23 O7 1_555 1_555
H24 O7 1_555 1_555
H25 O8 1_555 1_555
H26 O8 1_555 1_555
Co1C_2 O3 1_555 1_555
Co2_2 O6 1_555 1_555
Co2B O2 1_555 1_555
Co2C O4 1_555 1_555
O2B Co2 1_555 1_555
O3C Co1 1_555 1_555
O4C Co1 1_555 1_555
O6_2 Co2 1_555 1_555
N2C Co2 1_555 1_555
Co2 O4C 1_555 1_555
N1 C6 1_555 1_555
N2 C12 1_555 1_555
N2 Co2C 1_555 1_555
C4 C5 1_555 1_555
C8 C9 1_555 1_555
C10 C11 1_555 1_555

#END
