
#######################################################################
#
#                 Cambridge Crystallographic Data Centre
#                                CCDC 
#
#######################################################################
#
# If this CIF has been generated from an entry in the Cambridge 
# Structural Database, then it will include bibliographic, chemical, 
# crystal, experimental, refinement or atomic coordinate data resulting 
# from the CCDC's data processing and validation procedures.
#
#######################################################################

data_PEGTUS01
_symmetry_cell_setting           triclinic
_symmetry_space_group_name_H-M   'P -1'
_symmetry_Int_Tables_number      2
_space_group_name_Hall           '-P 1'
loop_
_symmetry_equiv_pos_site_id
_symmetry_equiv_pos_as_xyz
1 x,y,z
2 -x,-y,-z
_cell_length_a                   9.7005(11)
_cell_length_b                   9.8815(11)
_cell_length_c                   10.2554(18)
_cell_angle_alpha                80.103(8)
_cell_angle_beta                 74.147(5)
_cell_angle_gamma                87.824(6)
_cell_volume                     931.533
loop_
_atom_site_label
_atom_site_type_symbol
_atom_site_fract_x
_atom_site_fract_y
_atom_site_fract_z
Cu1 Cu 0.25584(5) 0.84260(4) 0.01413(5)
P1 P 0.35077(11) 1.01936(10) 0.69162(10)
P2 P 0.14314(12) 1.13311(10) 0.07615(10)
P3 P 0.67754(11) 1.40478(10) 0.17214(10)
O1 O 0.2064(3) 0.9966(3) 0.1159(3)
N1 N 0.1651(4) 0.7189(3) 0.1892(3)
O2 O 0.2591(3) 1.2330(3) -0.0268(3)
H1 H 0.2222 1.3069 -0.0469
O3 O 0.3451(3) 0.9162(3) 0.5998(3)
O4 O 0.0169(3) 1.1231(3) 0.0155(3)
H2 H -0.0469 1.0756 0.0722
O5 O 0.3096(4) 0.9667(3) 0.8423(3)
O6 O 0.5062(3) 1.0816(3) 0.6525(3)
H3 H 0.5315 1.1118 0.5699
C1 C 0.1852(4) 1.2452(4) 0.2975(4)
C2 C 0.2946(4) 1.3419(4) 0.2342(4)
H4 H 0.3055 1.3829 0.1432
C3 C -0.0037(4) 0.5429(4) 0.3145(4)
H5 H -0.0756 0.4833 0.3144
C4 C 0.0344(4) 0.5463(4) 0.4349(4)
C5 C 0.3877(4) 1.3782(4) 0.3049(4)
C6 C 0.0765(4) 1.2147(4) 0.2251(4)
H6 H 0.0321 1.3004 0.1974
H7 H 0.0021 1.1563 0.2909
C7 C 0.2357(5) 1.1603(4) 0.6580(4)
H8 H 0.1370 1.1289 0.6942
H9 H 0.2490 1.2319 0.7075
C8 C 0.1397(5) 0.6410(5) 0.4288(4)
H10 H 0.1691 0.6470 0.5067
C9 C 0.0655(4) 0.6283(4) 0.1950(4)
H11 H 0.0411 0.6220 0.1146
C10 C 0.1999(5) 0.7257(5) 0.3059(4)
H12 H 0.2679 0.7905 0.3038
O7 O 0.7235(3) 1.3281(3) 0.2985(3)
H13 H 0.6651 1.2670 0.3400
O8 O 0.6678(4) 1.3167(3) 0.0705(3)
O9 O 0.7904(3) 1.5220(3) 0.1125(4)
C11 C 0.5063(4) 1.4822(4) 0.2333(4)
H14 H 0.5141 1.5421 0.2966
H15 H 0.4810 1.5385 0.1560
C12 C 0.2605(4) 1.2220(4) 0.5076(4)
C13 C 0.1715(4) 1.1850(4) 0.4338(4)
H16 H 0.1009 1.1184 0.4764
C14 C 0.3689(4) 1.3182(4) 0.4423(4)
H17 H 0.4296 1.3429 0.4907
O10 O 0.4794(4) 0.8684(4) 0.0743(4)
H18 H 0.474(7) 0.885(7) 0.154(8)
H19 H 0.567(8) 0.834(7) 0.053(7)
Cu1_2 Cu 0.25584(5) 0.84260(4) 1.01413(5)
Cu1A Cu 0.74416(5) 1.15740(4) -0.01413(5)
Cu1A_2 Cu -0.25584(5) 0.15740(4) 0.98587(5)
Cu1A_3 Cu 0.74416(5) 1.15740(4) -1.01413(5)
P1A P 0.64923(11) 0.98064(10) -0.69162(10)
P2A P 0.85686(12) 0.86689(10) -0.07615(10)
P3A P 0.32246(11) 0.59522(10) -0.17214(10)
O1A O 0.7936(3) 1.0034(3) -0.1159(3)
N1A N -0.1651(4) 0.2811(3) 0.8108(3)
N1A_2 N 0.8349(4) 1.2811(3) -0.1892(3)
O2A O 0.7409(3) 0.7670(3) 0.0268(3)
H1A H 0.7778 0.6931 0.0469
O3A O 0.6549(3) 1.0838(3) -0.5998(3)
O4A O 0.9831(3) 0.8769(3) -0.0155(3)
H2A H 1.0469 0.9244 -0.0722
O5_2 O 0.3096(4) 0.9667(3) -0.1577(3)
O5A O 0.6904(4) 1.0333(3) 0.1577(3)
O5A_2 O 0.6904(4) 1.0333(3) -0.8423(3)
O6A O 0.4938(3) 0.9184(3) -0.6525(3)
H3A H 0.4685 0.8882 -0.5699
C1A C 0.8148(4) 0.7548(4) -0.2975(4)
C2A C 0.7054(4) 0.6581(4) -0.2342(4)
H4A H 0.6945 0.6171 -0.1432
C3A C 0.0037(4) 0.4571(4) 0.6855(4)
H5A H 0.0756 0.5167 0.6856
C4A C -0.0344(4) 0.4537(4) 0.5651(4)
C5A C 0.6123(4) 0.6218(4) -0.3049(4)
C6A C 0.9235(4) 0.7853(4) -0.2251(4)
H6A H 0.9679 0.6996 -0.1974
H7A H 0.9979 0.8437 -0.2909
C7A C 0.7643(5) 0.8397(4) -0.6580(4)
H8A H 0.8630 0.8711 -0.6942
H9A H 0.7510 0.7681 -0.7075
C8A C -0.1397(5) 0.3590(5) 0.5712(4)
H10A H -0.1691 0.3530 0.4933
C9A C -0.0655(4) 0.3717(4) 0.8050(4)
H11A H -0.0411 0.3780 0.8854
C10A C -0.1999(5) 0.2743(5) 0.6941(4)
H12A H -0.2679 0.2095 0.6962
O7A O 0.2765(3) 0.6719(3) -0.2985(3)
H13A H 0.3349 0.7330 -0.3400
O8A O 0.3322(4) 0.6833(3) -0.0705(3)
O9A O 0.2096(3) 0.4780(3) -0.1125(4)
C11A C 0.4937(4) 0.5178(4) -0.2333(4)
H14A H 0.4859 0.4579 -0.2966
H15A H 0.5190 0.4615 -0.1560
C12A C 0.7395(4) 0.7780(4) -0.5076(4)
C13A C 0.8285(4) 0.8150(4) -0.4338(4)
H16A H 0.8991 0.8816 -0.4764
C14A C 0.6311(4) 0.6818(4) -0.4423(4)
H17A H 0.5704 0.6571 -0.4907
O10A O 0.5206(4) 1.1316(4) -0.0743(4)
H18A H 0.526(7) 1.115(7) -0.154(8)
H19A H 0.433(8) 1.166(7) -0.053(7)
loop_
_geom_bond_atom_site_label_1
_geom_bond_atom_site_label_2
_geom_bond_site_symmetry_1
_geom_bond_site_symmetry_2
Cu1 O1 1_555 1_555
P1 O3 1_555 1_555
P2 O1 1_555 1_555
P3 O7 1_555 1_555
N1 Cu1 1_555 1_555
O2 P2 1_555 1_555
H1 O2 1_555 1_555
O4 P2 1_555 1_555
H2 O4 1_555 1_555
O5 P1 1_555 1_555
O6 P1 1_555 1_555
H3 O6 1_555 1_555
C1 C2 1_555 1_555
C2 H4 1_555 1_555
C3 H5 1_555 1_555
C4 C3 1_555 1_555
C5 C2 1_555 1_555
C6 P2 1_555 1_555
H6 C6 1_555 1_555
H7 C6 1_555 1_555
C7 P1 1_555 1_555
H8 C7 1_555 1_555
H9 C7 1_555 1_555
C8 C4 1_555 1_555
H10 C8 1_555 1_555
C9 N1 1_555 1_555
H11 C9 1_555 1_555
C10 N1 1_555 1_555
H12 C10 1_555 1_555
O7 H13 1_555 1_555
O8 P3 1_555 1_555
O9 P3 1_555 1_555
C11 P3 1_555 1_555
H14 C11 1_555 1_555
H15 C11 1_555 1_555
C12 C7 1_555 1_555
C13 C1 1_555 1_555
H16 C13 1_555 1_555
C14 C5 1_555 1_555
H17 C14 1_555 1_555
O10 Cu1 1_555 1_555
H18 O10 1_555 1_555
H19 O10 1_555 1_555
Cu1_2 O5 1_555 1_555
Cu1A O8 1_555 1_555
Cu1A_2 N1A 1_555 1_555
Cu1A_3 O5A_2 1_555 1_555
P1A O3A 1_555 1_555
P2A O1A 1_555 1_555
P3A O7A 1_555 1_555
O1A Cu1A 1_555 1_555
N1A C9A 1_555 1_555
N1A_2 Cu1A 1_555 1_555
O2A P2A 1_555 1_555
H1A O2A 1_555 1_555
O4A P2A 1_555 1_555
H2A O4A 1_555 1_555
O5_2 Cu1 1_555 1_555
O5A Cu1A 1_555 1_555
O5A_2 P1A 1_555 1_555
O6A P1A 1_555 1_555
H3A O6A 1_555 1_555
C1A C2A 1_555 1_555
C2A H4A 1_555 1_555
C3A H5A 1_555 1_555
C4A C4 1_555 1_555
C5A C2A 1_555 1_555
C6A P2A 1_555 1_555
H6A C6A 1_555 1_555
H7A C6A 1_555 1_555
C7A P1A 1_555 1_555
H8A C7A 1_555 1_555
H9A C7A 1_555 1_555
C8A C4A 1_555 1_555
H10A C8A 1_555 1_555
C9A C3A 1_555 1_555
H11A C9A 1_555 1_555
C10A N1A 1_555 1_555
H12A C10A 1_555 1_555
O7A H13A 1_555 1_555
O8A Cu1 1_555 1_555
O9A P3A 1_555 1_555
C11A P3A 1_555 1_555
H14A C11A 1_555 1_555
H15A C11A 1_555 1_555
C12A C7A 1_555 1_555
C13A C1A 1_555 1_555
H16A C13A 1_555 1_555
C14A C5A 1_555 1_555
H17A C14A 1_555 1_555
O10A Cu1A 1_555 1_555
H18A O10A 1_555 1_555
H19A O10A 1_555 1_555
C1 C6 1_555 1_555
C3 C9 1_555 1_555
C5 C11 1_555 1_555
C8 C10 1_555 1_555
C12 C13 1_555 1_555
C12 C14 1_555 1_555
P3A O8A 1_555 1_555
C1A C6A 1_555 1_555
C3A C4A 1_555 1_555
C5A C11A 1_555 1_555
C8A C10A 1_555 1_555
C12A C13A 1_555 1_555
C12A C14A 1_555 1_555

#END
