
#######################################################################
#
#                 Cambridge Crystallographic Data Centre
#                                CCDC 
#
#######################################################################
#
# If this CIF has been generated from an entry in the Cambridge 
# Structural Database, then it will include bibliographic, chemical, 
# crystal, experimental, refinement or atomic coordinate data resulting 
# from the CCDC's data processing and validation procedures.
#
#######################################################################

data_PEGTIG
_symmetry_cell_setting           monoclinic
_symmetry_space_group_name_H-M   'P 21/c'
_symmetry_Int_Tables_number      14
_space_group_name_Hall           '-P 2ybc'
loop_
_symmetry_equiv_pos_site_id
_symmetry_equiv_pos_as_xyz
1 x,y,z
2 -x,1/2+y,1/2-z
3 -x,-y,-z
4 x,1/2-y,1/2+z
_cell_length_a                   16.268(5)
_cell_length_b                   8.678(3)
_cell_length_c                   14.730(4)
_cell_angle_alpha                90
_cell_angle_beta                 97.952(5)
_cell_angle_gamma                90
_cell_volume                     2059.49
loop_
_atom_site_label
_atom_site_type_symbol
_atom_site_fract_x
_atom_site_fract_y
_atom_site_fract_z
O1 O 0.11174(11) -0.1905(2) 0.72045(12)
P1 P 0.18493(4) -0.16242(7) 0.66877(4)
C1 C 0.27892(17) -0.1518(3) 0.74954(18)
H1 H 0.2683 -0.0852 0.8013
H2 H 0.2919 -0.2563 0.7745
C2 C 0.35484(16) -0.0904(3) 0.71150(18)
Co1 Co 0.09836(2) 0.64255(4) 0.82593(2)
P2 P 0.20696(4) 0.38109(7) 0.71749(4)
O2 O 0.18544(11) 0.5083(2) 0.77884(12)
O3 O 0.19027(12) 0.4298(2) 0.61337(12)
H3 H 0.197(2) 0.5378(14) 0.603(2)
O4 O 0.16110(11) 0.2293(2) 0.72498(12)
O5 O 0.17466(11) -0.0003(2) 0.61958(12)
H4 H 0.1731(19) 0.083(3) 0.6618(17)
O6 O 0.19314(12) -0.2770(2) 0.59407(12)
O9 O 0.17979(12) 0.7772(2) 0.91255(12)
H9 H 0.1895(19) 0.769(4) 0.9781(7)
H10 H 0.172(2) 0.8866(13) 0.904(2)
O10 O 0.00056(11) 0.5304(2) 0.74370(13)
H11 H -0.0410(15) 0.475(3) 0.769(2)
H12 H 0.0153(19) 0.466(3) 0.6962(16)
O11 O 0.08796(12) 0.4985(2) 0.93827(13)
H13 H 0.0612(18) 0.400(2) 0.940(2)
H14 H 0.1165(18) 0.499(4) 1.0003(10)
O12 O -0.00183(11) 0.7768(2) 0.86802(12)
H15 H -0.007(2) 0.768(4) 0.9320(9)
H16 H -0.0563(10) 0.754(4) 0.8366(19)
C3 C 0.31758(16) 0.3446(3) 0.74168(18)
H17 H 0.3349 0.2810 0.6918
H18 H 0.3478 0.4438 0.7429
C4 C 0.34124(15) 0.2626(3) 0.83232(17)
C5 C 0.32653(16) 0.3349(3) 0.91379(19)
H19 H 0.3031 0.4354 0.9115
C6 C 0.34587(17) 0.2612(3) 0.99782(18)
H20 H 0.3353 0.3111 1.0525
C7 C 0.38066(18) 0.1148(3) 1.00196(19)
H21 H 0.3940 0.0642 1.0593
C8 C 0.39581(17) 0.0429(3) 0.92167(19)
H22 H 0.4195 -0.0573 0.9247
C9 C 0.37679(16) 0.1155(3) 0.83611(18)
C10 C 0.39924(16) 0.0359(3) 0.75215(17)
C11 C 0.46885(16) 0.0900(3) 0.71493(18)
H23 H 0.4983 0.1771 0.7415
C12 C 0.49531(17) 0.0181(3) 0.63993(19)
H24 H 0.5427 0.0556 0.6157
C13 C 0.45220(17) -0.1089(3) 0.60046(19)
H25 H 0.4702 -0.1593 0.5495
C14 C 0.38265(17) -0.1616(3) 0.63595(18)
H26 H 0.3532 -0.2480 0.6084
O1_2 O 0.11174(11) 0.8095(2) 0.72045(12)
Co1_2 Co 0.09836(2) -0.35745(4) 0.82593(2)
O7 O 0.15824(12) 0.4050(2) 0.39722(13)
H5 H 0.2008(15) 0.361(3) 0.4399(17)
H6 H 0.158(2) 0.356(3) 0.3390(12)
O8 O 0.01214(12) 0.2158(2) 0.94598(13)
H7 H -0.0296(15) 0.223(4) 0.8931(15)
H8 H 0.0558(15) 0.162(3) 0.921(2)
loop_
_geom_bond_atom_site_label_1
_geom_bond_atom_site_label_2
_geom_bond_site_symmetry_1
_geom_bond_site_symmetry_2
O1 P1 1_555 1_555
P1 C1 1_555 1_555
C1 H1 1_555 1_555
H2 C1 1_555 1_555
C2 C1 1_555 1_555
Co1 O2 1_555 1_555
P2 O2 1_555 1_555
O3 P2 1_555 1_555
H3 O3 1_555 1_555
O4 P2 1_555 1_555
O5 P1 1_555 1_555
H4 O5 1_555 1_555
O6 P1 1_555 1_555
O7 H5 1_555 1_555
H6 O7 1_555 1_555
O8 H7 1_555 1_555
H8 O8 1_555 1_555
O9 Co1 1_555 1_555
H9 O9 1_555 1_555
H10 O9 1_555 1_555
O10 Co1 1_555 1_555
H11 O10 1_555 1_555
H12 O10 1_555 1_555
O11 Co1 1_555 1_555
H13 O11 1_555 1_555
H14 O11 1_555 1_555
O12 Co1 1_555 1_555
H15 O12 1_555 1_555
H16 O12 1_555 1_555
C3 P2 1_555 1_555
H17 C3 1_555 1_555
H18 C3 1_555 1_555
C4 C3 1_555 1_555
C5 C4 1_555 1_555
H19 C5 1_555 1_555
C6 C5 1_555 1_555
H20 C6 1_555 1_555
C7 C6 1_555 1_555
H21 C7 1_555 1_555
C8 C7 1_555 1_555
H22 C8 1_555 1_555
C9 C4 1_555 1_555
C10 C2 1_555 1_555
C11 C10 1_555 1_555
H23 C11 1_555 1_555
C12 C11 1_555 1_555
H24 C12 1_555 1_555
C13 C12 1_555 1_555
H25 C13 1_555 1_555
C14 C2 1_555 1_555
H26 C14 1_555 1_555
O1_2 Co1 1_555 1_555
Co1_2 O1 1_555 1_555
C8 C9 1_555 1_555
C9 C10 1_555 1_555
C13 C14 1_555 1_555

#END
