
#######################################################################
#
#                 Cambridge Crystallographic Data Centre
#                                CCDC 
#
#######################################################################
#
# If this CIF has been generated from an entry in the Cambridge 
# Structural Database, then it will include bibliographic, chemical, 
# crystal, experimental, refinement or atomic coordinate data resulting 
# from the CCDC's data processing and validation procedures.
#
#######################################################################

data_PEGWOP
_symmetry_cell_setting           triclinic
_symmetry_space_group_name_H-M   'P -1'
_symmetry_Int_Tables_number      2
_space_group_name_Hall           '-P 1'
loop_
_symmetry_equiv_pos_site_id
_symmetry_equiv_pos_as_xyz
1 x,y,z
2 -x,-y,-z
_cell_length_a                   10.378(2)
_cell_length_b                   11.046(2)
_cell_length_c                   12.764(3)
_cell_angle_alpha                78.78(3)
_cell_angle_beta                 71.74(3)
_cell_angle_gamma                70.72(3)
_cell_volume                     1304.8
loop_
_atom_site_label
_atom_site_type_symbol
_atom_site_fract_x
_atom_site_fract_y
_atom_site_fract_z
Mn1 Mn 0.5000 0.5000 0.0000
Mn2 Mn 0.5000 0.5000 0.5000
O1 O 0.1521(4) 0.8236(4) 0.6510(3)
O2 O 0.3420(3) 0.6398(3) 0.5393(3)
O3 O 0.5567(4) 0.5049(3) 0.1543(2)
H1 H 0.5430 0.5868 0.1722
O4 O 0.4055(3) 0.3644(3) 0.6300(3)
O5 O 0.5120(4) 0.2792(3) 0.7622(3)
O6 O 0.9514(4) 0.4477(4) -0.1477(4)
O7 O 0.6762(3) 0.5131(3) -0.0862(3)
O8 O 0.2564(4) 0.8732(4) 0.1689(3)
H2 H 0.3258 0.8354 0.1924
N1 N 0.4106(4) 0.4557(3) 0.3949(3)
N2 N 0.4232(4) 0.6970(3) -0.0069(3)
C1 C 0.0701(8) 0.9494(6) 0.6812(6)
H3 H 0.1132 0.9768 0.7253
H4 H -0.0241 0.9479 0.7233
H5 H 0.0658 1.0083 0.6154
C2 C 0.1067(5) 0.7679(5) 0.5884(5)
C3 C -0.0296(6) 0.7991(7) 0.5828(6)
H6 H -0.0997 0.8621 0.6246
C4 C -0.0643(6) 0.7384(7) 0.5160(7)
H7 H -0.1577 0.7601 0.5132
C5 C 0.0373(6) 0.6466(6) 0.4539(6)
H8 H 0.0128 0.6090 0.4066
C6 C 0.1777(5) 0.6077(5) 0.4598(4)
C7 C 0.2135(5) 0.6675(5) 0.5285(4)
C8 C 0.2805(5) 0.5084(5) 0.3931(4)
C9 C 0.4966(5) 0.3571(5) 0.3192(4)
H9 H 0.4357 0.3362 0.2857
H10 H 0.5399 0.2795 0.3611
C10 C 0.6109(5) 0.4005(5) 0.2291(4)
H11 H 0.6680 0.4266 0.2628
H12 H 0.6722 0.3282 0.1875
C11 C 0.4616(5) 0.2709(5) 0.6881(4)
C12 C 0.4693(5) 0.1343(5) 0.6712(4)
C13 C 0.6214(7) 0.0695(6) 0.6140(6)
H13 H 0.6808 0.0654 0.6599
H14 H 0.6499 0.1181 0.5443
H15 H 0.6304 -0.0162 0.6015
C14 C 0.3743(7) 0.1384(6) 0.6030(5)
H16 H 0.3809 0.0520 0.5940
H17 H 0.4027 0.1838 0.5315
H18 H 0.2783 0.1820 0.6395
C15 C 0.4279(9) 0.0573(6) 0.7814(6)
H19 H 0.4894 0.0532 0.8255
H20 H 0.4364 -0.0283 0.7692
H21 H 0.3317 0.0982 0.8196
C16 C 1.1026(6) 0.4129(8) -0.1943(6)
H22 H 1.1361 0.3254 -0.2124
H23 H 1.1470 0.4206 -0.1413
H24 H 1.1257 0.4692 -0.2602
C17 C 0.8858(5) 0.5682(5) -0.1171(5)
C18 C 0.9518(7) 0.6565(6) -0.1161(6)
H25 H 1.0503 0.6340 -0.1363
C19 C 0.8747(8) 0.7781(7) -0.0857(6)
H26 H 0.9216 0.8357 -0.0830
C20 C 0.7319(7) 0.8148(6) -0.0599(5)
H27 H 0.6816 0.8991 -0.0444
C21 C 0.6578(6) 0.7268(5) -0.0561(4)
C22 C 0.7360(5) 0.6025(5) -0.0844(4)
C23 C 0.5069(6) 0.7691(5) -0.0279(4)
C24 C 0.2679(5) 0.7615(5) 0.0192(4)
C25 C 0.2059(6) 0.7822(5) 0.1421(5)
H28 H 0.2319 0.7009 0.1867
H29 H 0.1033 0.8125 0.1590
Mn2_2 Mn 0.5000 0.5000 -0.5000
O1A O 0.8479(4) 0.1764(4) -0.6510(3)
O2A O 0.6580(3) 0.3602(3) -0.5393(3)
O2A_2 O 0.6580(3) 0.3602(3) 0.4607(3)
O3A O 0.4433(4) 0.4951(3) -0.1543(2)
H1A H 0.4570 0.4132 -0.1722
O4A O 0.5945(3) 0.6356(3) 0.3700(3)
O5A O 0.4880(4) 0.7208(3) 0.2378(3)
O6A O 0.0486(4) 0.5523(4) 0.1477(4)
O7A O 0.3238(3) 0.4869(3) 0.0862(3)
O8A O 0.7436(4) 0.1268(4) -0.1689(3)
H2A H 0.6742 0.1646 -0.1924
N1A N 0.5894(4) 0.5443(3) -0.3949(3)
N1A_2 N 0.5894(4) 0.5443(3) 0.6051(3)
N2A N 0.5768(4) 0.3030(3) 0.0069(3)
C1A C 0.9299(8) 0.0506(6) -0.6812(6)
H3A H 0.8868 0.0232 -0.7253
H4A H 1.0241 0.0521 -0.7233
H5A H 0.9342 -0.0083 -0.6154
C2A C 0.8933(5) 0.2321(5) -0.5884(5)
C3A C 1.0296(6) 0.2009(7) -0.5828(6)
H6A H 1.0997 0.1379 -0.6246
C4A C 1.0643(6) 0.2616(7) -0.5160(7)
H7A H 1.1577 0.2399 -0.5132
C5A C 0.9627(6) 0.3534(6) -0.4539(6)
H8A H 0.9872 0.3910 -0.4066
C6A C 0.8223(5) 0.3923(5) -0.4598(4)
C7A C 0.7865(5) 0.3325(5) -0.5285(4)
C8A C 0.7195(5) 0.4916(5) -0.3931(4)
C9A C 0.5034(5) 0.6429(5) -0.3192(4)
H9A H 0.5643 0.6638 -0.2857
H10A H 0.4601 0.7205 -0.3611
C10A C 0.3891(5) 0.5995(5) -0.2291(4)
H11A H 0.3320 0.5734 -0.2628
H12A H 0.3278 0.6718 -0.1875
C11A C 0.5384(5) 0.7291(5) 0.3119(4)
C12A C 0.5307(5) 0.8657(5) 0.3288(4)
C13A C 0.3786(7) 0.9305(6) 0.3860(6)
H13A H 0.3192 0.9346 0.3401
H14A H 0.3501 0.8819 0.4557
H15A H 0.3696 1.0162 0.3985
C14A C 0.6257(7) 0.8616(6) 0.3970(5)
H16A H 0.6191 0.9480 0.4060
H17A H 0.5973 0.8162 0.4685
H18A H 0.7217 0.8180 0.3605
C15A C 0.5721(9) 0.9427(6) 0.2186(6)
H19A H 0.5106 0.9468 0.1745
H20A H 0.5636 1.0283 0.2308
H21A H 0.6683 0.9018 0.1804
C16A C -0.1026(6) 0.5871(8) 0.1943(6)
H22A H -0.1361 0.6746 0.2124
H23A H -0.1470 0.5794 0.1413
H24A H -0.1257 0.5308 0.2602
C17A C 0.1142(5) 0.4318(5) 0.1171(5)
C18A C 0.0482(7) 0.3435(6) 0.1161(6)
H25A H -0.0503 0.3660 0.1363
C19A C 0.1253(8) 0.2219(7) 0.0857(6)
H26A H 0.0784 0.1643 0.0830
C20A C 0.2681(7) 0.1852(6) 0.0599(5)
H27A H 0.3184 0.1009 0.0444
C21A C 0.3422(6) 0.2732(5) 0.0561(4)
C22A C 0.2640(5) 0.3975(5) 0.0844(4)
C23A C 0.4931(6) 0.2309(5) 0.0279(4)
C24A C 0.7321(5) 0.2385(5) -0.0192(4)
C25A C 0.7941(6) 0.2178(5) -0.1421(5)
H28A H 0.7681 0.2991 -0.1867
H29A H 0.8967 0.1875 -0.1590
loop_
_geom_bond_atom_site_label_1
_geom_bond_atom_site_label_2
_geom_bond_site_symmetry_1
_geom_bond_site_symmetry_2
Mn1 O3 1_555 1_555
Mn2 O2 1_555 1_555
O1 C1 1_555 1_555
O2 C7 1_555 1_555
O3 H1 1_555 1_555
O4 Mn2 1_555 1_555
O5 C11 1_555 1_555
O6 C16 1_555 1_555
O7 Mn1 1_555 1_555
O8 H2 1_555 1_555
N1 Mn2 1_555 1_555
N2 Mn1 1_555 1_555
C1 H3 1_555 1_555
H4 C1 1_555 1_555
H5 C1 1_555 1_555
C2 O1 1_555 1_555
C3 C2 1_555 1_555
H6 C3 1_555 1_555
C4 C3 1_555 1_555
H7 C4 1_555 1_555
C5 C4 1_555 1_555
H8 C5 1_555 1_555
C6 C5 1_555 1_555
C7 C2 1_555 1_555
C8 N1 1_555 1_555
C9 N1 1_555 1_555
H9 C9 1_555 1_555
H10 C9 1_555 1_555
C10 O3 1_555 1_555
H11 C10 1_555 1_555
H12 C10 1_555 1_555
C11 O4 1_555 1_555
C12 C11 1_555 1_555
C13 C12 1_555 1_555
H13 C13 1_555 1_555
H14 C13 1_555 1_555
H15 C13 1_555 1_555
C14 C12 1_555 1_555
H16 C14 1_555 1_555
H17 C14 1_555 1_555
H18 C14 1_555 1_555
C15 C12 1_555 1_555
H19 C15 1_555 1_555
H20 C15 1_555 1_555
H21 C15 1_555 1_555
C16 H22 1_555 1_555
H23 C16 1_555 1_555
H24 C16 1_555 1_555
C17 O6 1_555 1_555
C18 C17 1_555 1_555
H25 C18 1_555 1_555
C19 C18 1_555 1_555
H26 C19 1_555 1_555
C20 C19 1_555 1_555
H27 C20 1_555 1_555
C21 C20 1_555 1_555
C22 O7 1_555 1_555
C23 N2 1_555 1_555
C24 N2 1_555 1_555
C25 O8 1_555 1_555
H28 C25 1_555 1_555
H29 C25 1_555 1_555
Mn2_2 O2A 1_555 1_555
O1A C1A 1_555 1_555
O2A C7A 1_555 1_555
O2A_2 Mn2 1_555 1_555
O3A Mn1 1_555 1_555
H1A O3A 1_555 1_555
O4A Mn2 1_555 1_555
O5A C11A 1_555 1_555
O6A C16A 1_555 1_555
O7A Mn1 1_555 1_555
O8A H2A 1_555 1_555
N1A Mn2_2 1_555 1_555
N1A_2 Mn2 1_555 1_555
N2A Mn1 1_555 1_555
C1A H3A 1_555 1_555
H4A C1A 1_555 1_555
H5A C1A 1_555 1_555
C2A O1A 1_555 1_555
C3A C2A 1_555 1_555
H6A C3A 1_555 1_555
C4A C3A 1_555 1_555
H7A C4A 1_555 1_555
C5A C4A 1_555 1_555
H8A C5A 1_555 1_555
C6A C5A 1_555 1_555
C7A C2A 1_555 1_555
C8A N1A 1_555 1_555
C9A N1A 1_555 1_555
H9A C9A 1_555 1_555
H10A C9A 1_555 1_555
C10A O3A 1_555 1_555
H11A C10A 1_555 1_555
H12A C10A 1_555 1_555
C11A O4A 1_555 1_555
C12A C11A 1_555 1_555
C13A C12A 1_555 1_555
H13A C13A 1_555 1_555
H14A C13A 1_555 1_555
H15A C13A 1_555 1_555
C14A C12A 1_555 1_555
H16A C14A 1_555 1_555
H17A C14A 1_555 1_555
H18A C14A 1_555 1_555
C15A C12A 1_555 1_555
H19A C15A 1_555 1_555
H20A C15A 1_555 1_555
H21A C15A 1_555 1_555
C16A H22A 1_555 1_555
H23A C16A 1_555 1_555
H24A C16A 1_555 1_555
C17A O6A 1_555 1_555
C18A C17A 1_555 1_555
H25A C18A 1_555 1_555
C19A C18A 1_555 1_555
H26A C19A 1_555 1_555
C20A C19A 1_555 1_555
H27A C20A 1_555 1_555
C21A C20A 1_555 1_555
C22A O7A 1_555 1_555
C23A N2A 1_555 1_555
C24A N2A 1_555 1_555
C25A O8A 1_555 1_555
H28A C25A 1_555 1_555
H29A C25A 1_555 1_555
C6 C7 1_555 1_555
C6 C8 1_555 1_555
C9 C10 1_555 1_555
C17 C22 1_555 1_555
C21 C22 1_555 1_555
C21 C23 1_555 1_555
C24 C25 1_555 1_555
C6A C7A 1_555 1_555
C6A C8A 1_555 1_555
C9A C10A 1_555 1_555
C17A C22A 1_555 1_555
C21A C22A 1_555 1_555
C21A C23A 1_555 1_555
C24A C25A 1_555 1_555

#END
