
#######################################################################
#
#                 Cambridge Crystallographic Data Centre
#                                CCDC 
#
#######################################################################
#
# If this CIF has been generated from an entry in the Cambridge 
# Structural Database, then it will include bibliographic, chemical, 
# crystal, experimental, refinement or atomic coordinate data resulting 
# from the CCDC's data processing and validation procedures.
#
#######################################################################

data_PEGYIL
_symmetry_cell_setting           orthorhombic
_symmetry_space_group_name_H-M   'P c a 21'
_symmetry_Int_Tables_number      29
_space_group_name_Hall           'P 2c -2ac'
loop_
_symmetry_equiv_pos_site_id
_symmetry_equiv_pos_as_xyz
1 x,y,z
2 -x,-y,1/2+z
3 1/2+x,-y,z
4 1/2-x,y,1/2+z
_cell_length_a                   8.0318(8)
_cell_length_b                   12.6586(12)
_cell_length_c                   24.387(2)
_cell_angle_alpha                90
_cell_angle_beta                 90
_cell_angle_gamma                90
_cell_volume                     2479.46
loop_
_atom_site_label
_atom_site_type_symbol
_atom_site_fract_x
_atom_site_fract_y
_atom_site_fract_z
Cu1 Cu 0.36276(8) 0.27232(5) 0.28453(3)
O1 O 0.5426(5) 0.3461(3) 0.32261(16)
O2 O 0.6856(5) 0.2594(4) 0.25805(18)
N1 N 0.3271(6) 0.3680(4) 0.2200(2)
N2 N 0.2664(6) 0.1735(4) 0.2333(2)
N3 N 0.3736(6) 0.1373(4) 0.3289(2)
N4 N 1.1379(6) 0.3286(4) 0.3298(2)
C1 C 0.2555(7) 0.3221(5) 0.1751(3)
C2 C 0.2225(7) 0.3781(5) 0.1281(3)
H1 H 0.1718 0.3451 0.0984
C3 C 0.2645(9) 0.4828(5) 0.1251(3)
H2 H 0.2490 0.5208 0.0929
C4 C 0.3299(9) 0.5301(5) 0.1708(3)
H3 H 0.3514 0.6023 0.1709
C5 C 0.3632(8) 0.4702(5) 0.2162(3)
H4 H 0.4140 0.5027 0.2460
C6 C 0.2165(7) 0.2074(5) 0.1829(2)
C7 C 0.1443(8) 0.1402(4) 0.1461(2)
H5 H 0.1071 0.1653 0.1125
C8 C 0.1270(8) 0.0342(5) 0.1594(2)
C9 C 0.1796(7) 0.0006(4) 0.2109(2)
H6 H 0.1680 -0.0699 0.2209
C10 C 0.2488(8) 0.0717(5) 0.2470(3)
C11 C 0.3123(7) 0.0513(5) 0.3030(2)
C12 C 0.3102(7) -0.0471(5) 0.3270(3)
H7 H 0.2713 -0.1058 0.3080
C13 C 0.3683(9) -0.0562(6) 0.3811(3)
H8 H 0.3682 -0.1214 0.3987
C14 C 0.4247(8) 0.0313(6) 0.4072(3)
H9 H 0.4614 0.0269 0.4433
C15 C 0.4273(7) 0.1274(5) 0.3800(2)
H10 H 0.4680 0.1866 0.3981
C16 C 0.0527(7) -0.0405(5) 0.1191(2)
C17 C -0.0477(7) -0.0041(6) 0.0765(3)
H11 H -0.0731 0.0675 0.0741
C18 C -0.1093(8) -0.0723(7) 0.0381(3)
H12 H -0.1768 -0.0472 0.0100
C19 C -0.0709(10) -0.1804(7) 0.0410(4)
H13 H -0.1159 -0.2280 0.0161
C20 C 0.0322(10) -0.2131(6) 0.0807(4)
H14 H 0.0637 -0.2837 0.0815
C21 C 0.0918(8) -0.1475(5) 0.1194(3)
H15 H 0.1604 -0.1742 0.1468
C22 C 0.8390(7) 0.3389(4) 0.3295(2)
C23 C 0.9910(6) 0.3130(4) 0.3061(2)
H16 H 0.9900 0.2825 0.2714
C24 C 1.1411(8) 0.3718(5) 0.3796(3)
H17 H 1.2428 0.3825 0.3970
C25 C 0.9957(9) 0.4009(5) 0.4058(3)
H18 H 1.0007 0.4327 0.4401
C26 C 0.8437(8) 0.3833(5) 0.3815(3)
H19 H 0.7456 0.4009 0.3996
C27 C 0.6767(8) 0.3129(5) 0.3005(3)
Cu1_2 Cu 1.36276(8) 0.27232(5) 0.28453(3)
N4_2 N 0.1379(6) 0.3286(4) 0.3298(2)
Cl1 Cl 0.5840(2) 0.30127(16) 0.50517(8)
O3 O 0.6684(7) 0.2226(5) 0.4755(2)
O4 O 0.5635(15) 0.2630(9) 0.5595(6)
O5 O 0.7147(13) 0.3866(9) 0.5054(5)
O6 O 0.4505(18) 0.3472(10) 0.4784(6)
O7? O 0.6036(15) 0.2965(9) 0.5647(6)
O8? O 0.6306(14) 0.4077(9) 0.4968(5)
O9? O 0.4147(17) 0.2883(10) 0.4930(6)
loop_
_geom_bond_atom_site_label_1
_geom_bond_atom_site_label_2
_geom_bond_site_symmetry_1
_geom_bond_site_symmetry_2
Cu1 O1 1_555 1_555
Cl1 O3 1_555 1_555
O1 C27 1_555 1_555
O2 C27 1_555 1_555
N1 Cu1 1_555 1_555
N2 Cu1 1_555 1_555
N3 Cu1 1_555 1_555
N4 C23 1_555 1_555
C1 N1 1_555 1_555
C2 C1 1_555 1_555
H1 C2 1_555 1_555
C3 C2 1_555 1_555
H2 C3 1_555 1_555
C4 C3 1_555 1_555
H3 C4 1_555 1_555
C5 N1 1_555 1_555
H4 C5 1_555 1_555
C6 N2 1_555 1_555
C7 C6 1_555 1_555
H5 C7 1_555 1_555
C8 C7 1_555 1_555
C9 C8 1_555 1_555
H6 C9 1_555 1_555
C10 N2 1_555 1_555
C11 N3 1_555 1_555
C12 C11 1_555 1_555
H7 C12 1_555 1_555
C13 C12 1_555 1_555
H8 C13 1_555 1_555
C14 C13 1_555 1_555
H9 C14 1_555 1_555
C15 N3 1_555 1_555
H10 C15 1_555 1_555
C16 C8 1_555 1_555
C17 C16 1_555 1_555
H11 C17 1_555 1_555
C18 C17 1_555 1_555
H12 C18 1_555 1_555
C19 C18 1_555 1_555
H13 C19 1_555 1_555
C20 C19 1_555 1_555
H14 C20 1_555 1_555
C21 C16 1_555 1_555
H15 C21 1_555 1_555
C22 C23 1_555 1_555
C23 H16 1_555 1_555
C24 N4 1_555 1_555
H17 C24 1_555 1_555
C25 C24 1_555 1_555
H18 C25 1_555 1_555
C26 C22 1_555 1_555
H19 C26 1_555 1_555
C27 C22 1_555 1_555
O4 Cl1 1_555 1_555
O5 Cl1 1_555 1_555
O6 Cl1 1_555 1_555
Cu1_2 N4 1_555 1_555
N4_2 Cu1 1_555 1_555
C1 C6 1_555 1_555
C4 C5 1_555 1_555
C9 C10 1_555 1_555
C10 C11 1_555 1_555
C14 C15 1_555 1_555
C20 C21 1_555 1_555
C25 C26 1_555 1_555

#END
