
#######################################################################
#
#                 Cambridge Crystallographic Data Centre
#                                CCDC 
#
#######################################################################
#
# If this CIF has been generated from an entry in the Cambridge 
# Structural Database, then it will include bibliographic, chemical, 
# crystal, experimental, refinement or atomic coordinate data resulting 
# from the CCDC's data processing and validation procedures.
#
#######################################################################

data_PEHBUB
_symmetry_cell_setting           triclinic
_symmetry_space_group_name_H-M   'P -1'
_symmetry_Int_Tables_number      2
_space_group_name_Hall           '-P 1'
loop_
_symmetry_equiv_pos_site_id
_symmetry_equiv_pos_as_xyz
1 x,y,z
2 -x,-y,-z
_cell_length_a                   6.3949(5)
_cell_length_b                   11.7162(9)
_cell_length_c                   16.0279(12)
_cell_angle_alpha                70.916(2)
_cell_angle_beta                 82.940(2)
_cell_angle_gamma                81.844(2)
_cell_volume                     1119.63
loop_
_atom_site_label
_atom_site_type_symbol
_atom_site_fract_x
_atom_site_fract_y
_atom_site_fract_z
Mn1 Mn 0.85652(5) 0.29629(3) 0.177721(19)
Mn2 Mn 0.12933(5) 0.21380(3) 0.809882(19)
K1 K 0.76549(8) 0.11748(4) 0.54104(3)
K2 K 0.26248(8) 0.38019(4) 0.45189(3)
O1 O 0.5069(2) 0.20061(13) 0.39690(9)
O2 O 0.5168(3) 0.04373(13) 0.34604(9)
O3 O 0.4496(3) 0.45658(14) 0.63986(10)
O4 O 0.5180(3) 0.29070(14) 0.59809(10)
O5 O 1.1071(3) 0.49990(18) 0.08578(13)
O6 O 1.0305(3) 0.2517(2) 0.34756(12)
O7 O 1.1726(3) 0.12006(19) 0.12358(14)
O8 O 0.9634(3) 0.0920(2) 0.70247(12)
O9 O -0.1829(3) 0.13082(19) 0.96125(11)
O10 O 0.1161(3) 0.55645(18) 0.27915(14)
C1 C 0.5258(3) 0.15357(18) 0.33605(13)
C2 C 0.5592(3) 0.23696(18) 0.24215(12)
C3 C 0.6054(4) 0.2017(2) 0.16503(14)
C4 C 0.6206(4) 0.3075(2) 0.09084(15)
C5 C 0.5825(4) 0.4088(2) 0.12234(14)
C6 C 0.5455(3) 0.36623(19) 0.21534(14)
C7 C 0.4682(3) 0.34410(19) 0.65482(13)
C8 C 0.4306(3) 0.26714(18) 0.74954(13)
C9 C 0.3720(4) 0.3122(2) 0.82237(15)
C10 C 0.3513(4) 0.2125(2) 0.89933(15)
C11 C 0.3953(4) 0.1049(2) 0.87544(15)
C12 C 0.4462(3) 0.1390(2) 0.78348(14)
C13 C 1.0116(4) 0.4189(2) 0.12204(15)
C14 C 0.9651(4) 0.2695(2) 0.28080(15)
C15 C 1.0512(4) 0.1888(2) 0.14614(16)
C16 C 1.0281(4) 0.1384(2) 0.74475(14)
C17 C -0.0653(4) 0.1634(2) 0.90025(15)
C18 C 0.0257(4) 0.6474(2) 0.24269(16)
O11 O 1.1994(3) 0.08850(17) 0.52430(13)
O12 O -0.1651(3) 0.40515(19) 0.48288(15)
H1 H 1.293(5) 0.115(3) 0.4852(18)
H2 H 1.257(4) 0.060(2) 0.5645(17)
H3 H -0.225(5) 0.438(3) 0.4437(18)
H4 H -0.274(5) 0.377(3) 0.522(2)
H5 H 0.630(3) 0.122(2) 0.1602(13)
H6 H 0.648(4) 0.305(2) 0.0379(16)
H7 H 0.589(3) 0.493(2) 0.0830(14)
H8 H 0.527(4) 0.411(2) 0.2478(15)
H9 H 0.343(3) 0.390(2) 0.8199(14)
H10 H 0.313(4) 0.221(2) 0.9503(16)
H11 H 0.389(4) 0.024(2) 0.9204(15)
H12 H 0.474(4) 0.084(2) 0.7531(15)
Mn2_2 Mn 1.12933(5) 0.21380(3) 0.809882(19)
Mn2A Mn -0.12933(5) 0.78620(3) 0.190118(19)
K1A K 0.23451(8) -0.11748(4) 0.45896(3)
K1A_2 K 1.23451(8) -0.11748(4) 0.45896(3)
K2A K 0.73752(8) 0.61981(4) 0.54811(3)
K2A_2 K -0.26248(8) 0.61981(4) 0.54811(3)
O2A O 0.4832(3) -0.04373(13) 0.65396(9)
O3A O 0.5504(3) 0.54342(14) 0.36014(10)
C16_2 C 0.0281(4) 0.1384(2) 0.74475(14)
C18A C -0.0257(4) 0.3526(2) 0.75731(16)
O11A O 0.8006(3) -0.08850(17) 0.47570(13)
O12A O 0.1651(3) 0.59485(19) 0.51712(15)
H1A H 0.707(5) -0.115(3) 0.5148(18)
H2A H 0.743(4) -0.060(2) 0.4355(17)
H3A H 0.225(5) 0.562(3) 0.5563(18)
H4A H 0.274(5) 0.623(3) 0.478(2)
loop_
_geom_bond_atom_site_label_1
_geom_bond_atom_site_label_2
_geom_bond_site_symmetry_1
_geom_bond_site_symmetry_2
Mn1 C2 1_555 1_555
Mn2 C8 1_555 1_555
K1 O1 1_555 1_555
K2 O1 1_555 1_555
O1 C1 1_555 1_555
O2 C1 1_555 1_555
O3 C7 1_555 1_555
O4 K1 1_555 1_555
O5 C13 1_555 1_555
O6 C14 1_555 1_555
O7 C15 1_555 1_555
O8 K1 1_555 1_555
O9 C17 1_555 1_555
O10 K2 1_555 1_555
C1 C2 1_555 1_555
C2 C3 1_555 1_555
C3 Mn1 1_555 1_555
C4 Mn1 1_555 1_555
C5 Mn1 1_555 1_555
C6 Mn1 1_555 1_555
C7 O4 1_555 1_555
C8 C7 1_555 1_555
C9 Mn2 1_555 1_555
C10 Mn2 1_555 1_555
C11 Mn2 1_555 1_555
C12 Mn2 1_555 1_555
C13 Mn1 1_555 1_555
C14 Mn1 1_555 1_555
C15 Mn1 1_555 1_555
C16 O8 1_555 1_555
C17 Mn2 1_555 1_555
C18 O10 1_555 1_555
O11 K1 1_555 1_555
O12 K2 1_555 1_555
H1 O11 1_555 1_555
H2 O11 1_555 1_555
H3 O12 1_555 1_555
H4 O12 1_555 1_555
H5 C3 1_555 1_555
H6 C4 1_555 1_555
H7 C5 1_555 1_555
H8 C6 1_555 1_555
H9 C9 1_555 1_555
H10 C10 1_555 1_555
H11 C11 1_555 1_555
H12 C12 1_555 1_555
Mn2_2 C16 1_555 1_555
Mn2A C18 1_555 1_555
K1A O2 1_555 1_555
K1A_2 O11 1_555 1_555
K2A O3 1_555 1_555
K2A_2 O12 1_555 1_555
O2A K1 1_555 1_555
O3A K2 1_555 1_555
C16_2 Mn2 1_555 1_555
C18A Mn2 1_555 1_555
O11A K1 1_555 1_555
O12A K2 1_555 1_555
H1A O11A 1_555 1_555
H2A O11A 1_555 1_555
H3A O12A 1_555 1_555
H4A O12A 1_555 1_555
K2 O4 1_555 1_555
C2 C6 1_555 1_555
C3 C4 1_555 1_555
C4 C5 1_555 1_555
C5 C6 1_555 1_555
C8 C9 1_555 1_555
C8 C12 1_555 1_555
C9 C10 1_555 1_555
C10 C11 1_555 1_555
C11 C12 1_555 1_555
K1A_2 O11A 1_555 1_555
K2A_2 O12A 1_555 1_555

#END
