
#######################################################################
#
#                 Cambridge Crystallographic Data Centre
#                                CCDC 
#
#######################################################################
#
# If this CIF has been generated from an entry in the Cambridge 
# Structural Database, then it will include bibliographic, chemical, 
# crystal, experimental, refinement or atomic coordinate data resulting 
# from the CCDC's data processing and validation procedures.
#
#######################################################################

data_PEHNIB
_symmetry_cell_setting           tetragonal
_symmetry_space_group_name_H-M   'P 41 21 2'
_symmetry_Int_Tables_number      92
_space_group_name_Hall           'P 4abw 2nw'
loop_
_symmetry_equiv_pos_site_id
_symmetry_equiv_pos_as_xyz
1 x,y,z
2 -x,-y,1/2+z
3 1/2+x,1/2-y,3/4-z
4 1/2-x,1/2+y,1/4-z
5 -y,-x,1/2-z
6 y,x,-z
7 1/2+y,1/2-x,3/4+z
8 1/2-y,1/2+x,1/4+z
_cell_length_a                   9.5086(4)
_cell_length_b                   9.5086(4)
_cell_length_c                   41.3578(16)
_cell_angle_alpha                90
_cell_angle_beta                 90
_cell_angle_gamma                90
_cell_volume                     3739.3
loop_
_atom_site_label
_atom_site_type_symbol
_atom_site_fract_x
_atom_site_fract_y
_atom_site_fract_z
N1 N -0.0271(5) 0.9065(7) 0.28180(10)
C1 C -0.1631(6) 0.8608(6) 0.27539(9)
H1 H -0.1786 0.7914 0.26
C2 C -0.2760(5) 0.9190(8) 0.29204(9)
H2 H -0.367 0.8884 0.2878
C3 C -0.2529(5) 1.0228(6) 0.31510(9)
C4 C -0.1169(6) 1.0685(5) 0.32151(10)
H3 H -0.1014 1.1379 0.3369
C5 C -0.0040(5) 1.0103(8) 0.30486(11)
H4 H 0.0871 1.0409 0.3091
N2 N -0.2910(8) 0.8442(7) 0.46518(10)
C6 C -0.2817(7) 0.9823(7) 0.47602(9)
H5 H -0.2746 1.0009 0.498
C7 C -0.2831(8) 1.0925(6) 0.45396(10)
H6 H -0.2772 1.1847 0.4614
C8 C -0.2936(9) 1.0662(6) 0.42037(19)
C9 C -0.3038(11) 0.9273(7) 0.41023(13)
H7 H -0.3138 0.9067 0.3884
C10 C -0.2989(12) 0.8189(7) 0.4328(2)
H8 H -0.3011 0.7263 0.4255
Cl1 Cl 0.3284(3) 0.9871(3) 0.28265(6)
Co1 Co 0.16192(17) 0.83808(17) 0.25000
Te2 Te -0.43598(7) 1.11050(8) 0.338908(15)
Te3 Te -0.30059(7) 1.23918(7) 0.388035(16)
N1D N 0.0935(7) 1.0271(5) 0.21820(10)
C1D C 0.1392(6) 1.1631(6) 0.22461(9)
H1D H 0.2086 1.1786 0.24
C2D C 0.0810(8) 1.2760(5) 0.20796(9)
H2D H 0.1116 1.367 0.2122
C3D C -0.0228(6) 1.2529(5) 0.18490(9)
C4D C -0.0685(5) 1.1169(6) 0.17849(10)
H3D H -0.1379 1.1014 0.1631
C5D C -0.0103(8) 1.0040(5) 0.19514(11)
H4D H -0.0409 0.9129 0.1909
N2D N 0.1558(7) 1.2910(8) 0.03482(10)
N2F N 0.3442(7) 0.7910(8) 0.21518(10)
N2B N 0.2090(8) 0.6558(7) 0.28482(10)
C6D C 0.0177(7) 1.2817(7) 0.02398(9)
H5D H -0.0009 1.2746 0.002
C7D C -0.0925(6) 1.2831(8) 0.04604(10)
H6D H -0.1847 1.2772 0.0386
C8D C -0.0662(6) 1.2936(9) 0.07963(19)
C9D C 0.0727(7) 1.3038(11) 0.08977(13)
H7D H 0.0933 1.3138 0.1116
C10D C 0.1811(7) 1.2989(12) 0.0672(2)
H8D H 0.2737 1.3011 0.0745
Cl1D Cl 0.0129(3) 0.6716(3) 0.21735(6)
Co1B Co -0.33808(17) 0.66192(17) 0.50000
Co1C Co 0.33808(17) 1.33808(17) 0.00000
Te2D Te -0.11050(8) 1.43598(7) 0.161092(15)
Te3D Te -0.23918(7) 1.30059(7) 0.111965(16)
C11 C 0.4842(14) 1.2795(14) 0.2012(4)
C12 C 0.4478(19) 1.1688(16) 0.1799(4)
H9 H 0.4726 1.0772 0.1854
C13 C 0.382(3) 1.190(2) 0.1534(5)
H10 H 0.3515 1.1115 0.1421
N3 N 0.353(2) 1.316(2) 0.1405(4)
C14 C 0.458(2) 1.4101(14) 0.1894(4)
H11 H 0.4821 1.4883 0.2018
Te1 Te 0.56855(13) 1.23127(11) 0.24751(3)
C15 C 0.400(3) 1.428(4) 0.1604(7)
H12 H 0.3881 1.5199 0.1528
C11D C 0.7205(14) 1.5158(14) 0.2988(4)
C12D C 0.8312(16) 1.5522(19) 0.3201(4)
H9D H 0.9228 1.5274 0.3146
C13D C 0.810(2) 1.618(3) 0.3466(5)
H10D H 0.8885 1.6485 0.3579
N3D N 0.684(2) 1.647(2) 0.3595(4)
C14D C 0.5899(14) 1.542(2) 0.3106(4)
H11D H 0.5117 1.5179 0.2982
Te1D Te 0.76873(11) 1.43145(13) 0.25249(3)
C15D C 0.572(4) 1.600(3) 0.3396(7)
H12D H 0.4801 1.6119 0.3472
loop_
_geom_bond_atom_site_label_1
_geom_bond_atom_site_label_2
_geom_bond_site_symmetry_1
_geom_bond_site_symmetry_2
N1 C1 1_555 1_555
C1 H1 1_555 1_555
C2 C1 1_555 1_555
H2 C2 1_555 1_555
C3 C2 1_555 1_555
C4 C3 1_555 1_555
H3 C4 1_555 1_555
C5 N1 1_555 1_555
H4 C5 1_555 1_555
N2 C6 1_555 1_555
C6 H5 1_555 1_555
C7 C6 1_555 1_555
H6 C7 1_555 1_555
C8 C7 1_555 1_555
C9 C8 1_555 1_555
H7 C9 1_555 1_555
C10 N2 1_555 1_555
H8 C10 1_555 1_555
C11 C12 1_555 1_555
C12 H9 1_555 1_555
C13 C12 1_555 1_555
H10 C13 1_555 1_555
N3 C13 1_555 1_555
C14 C11 1_555 1_555
H11 C14 1_555 1_555
Cl1 Co1 1_555 1_555
Co1 N1 1_555 1_555
Te1 C11 1_555 1_555
Te2 C3 1_555 1_555
Te3 C8 1_555 1_555
C15 N3 1_555 1_555
H12 C15 1_555 1_555
N1D Co1 1_555 1_555
C1D N1D 1_555 1_555
H1D C1D 1_555 1_555
C2D C1D 1_555 1_555
H2D C2D 1_555 1_555
C3D C2D 1_555 1_555
C4D C3D 1_555 1_555
H3D C4D 1_555 1_555
C5D N1D 1_555 1_555
H4D C5D 1_555 1_555
N2D C6D 1_555 1_555
N2F Co1 1_555 1_555
N2B Co1 1_555 1_555
C6D H5D 1_555 1_555
C7D C6D 1_555 1_555
H6D C7D 1_555 1_555
C8D C7D 1_555 1_555
C9D C8D 1_555 1_555
H7D C9D 1_555 1_555
C10D N2D 1_555 1_555
H8D C10D 1_555 1_555
C11D C12D 1_555 1_555
C12D H9D 1_555 1_555
C13D C12D 1_555 1_555
H10D C13D 1_555 1_555
N3D C13D 1_555 1_555
C14D C11D 1_555 1_555
H11D C14D 1_555 1_555
Cl1D Co1 1_555 1_555
Co1B N2 1_555 1_555
Co1C N2D 1_555 1_555
Te1D Te1 1_555 1_555
Te2D C3D 1_555 1_555
Te3D C8D 1_555 1_555
C15D N3D 1_555 1_555
H12D C15D 1_555 1_555
C4 C5 1_555 1_555
C9 C10 1_555 1_555
C14 C15 1_555 1_555
Te2 Te3 1_555 1_555
C4D C5D 1_555 1_555
C9D C10D 1_555 1_555
C11D Te1D 1_555 1_555
C14D C15D 1_555 1_555
Te2D Te3D 1_555 1_555

#END
