
#######################################################################
#
#                 Cambridge Crystallographic Data Centre
#                                CCDC 
#
#######################################################################
#
# If this CIF has been generated from an entry in the Cambridge 
# Structural Database, then it will include bibliographic, chemical, 
# crystal, experimental, refinement or atomic coordinate data resulting 
# from the CCDC's data processing and validation procedures.
#
#######################################################################

data_PEHPAU
_symmetry_cell_setting           monoclinic
_symmetry_space_group_name_H-M   'P 21/n'
_symmetry_Int_Tables_number      14
_space_group_name_Hall           '-P 2yn'
loop_
_symmetry_equiv_pos_site_id
_symmetry_equiv_pos_as_xyz
1 x,y,z
2 1/2-x,1/2+y,1/2-z
3 -x,-y,-z
4 1/2+x,1/2-y,1/2+z
_cell_length_a                   10.906(3)
_cell_length_b                   12.804(3)
_cell_length_c                   16.987(4)
_cell_angle_alpha                90
_cell_angle_beta                 91.400(5)
_cell_angle_gamma                90
_cell_volume                     2371.36
loop_
_atom_site_label
_atom_site_type_symbol
_atom_site_fract_x
_atom_site_fract_y
_atom_site_fract_z
Ho1 Ho -0.15673(3) 0.36310(3) 0.57582(2)
O1 O -0.0997(6) 0.3691(6) 0.7212(4)
O2 O -0.1740(5) 0.5079(5) 0.6687(4)
O3 O -0.1181(8) 0.5079(7) 0.7934(5)
O4 O -0.1762(5) 0.4769(5) 0.4728(4)
O5 O -0.0384(5) 0.5681(5) 0.4090(3)
O6 O -0.6247(5) 0.5705(5) 0.4294(4)
O7 O -0.6711(5) 0.7004(5) 0.3511(4)
O8 O -0.3456(7) 0.9022(8) 0.2316(6)
O9 O -0.1681(6) 0.8334(7) 0.2217(5)
O10 O -0.2672(6) 0.2554(5) 0.4867(4)
N1 N -0.0820(6) 0.1865(6) 0.6217(4)
N2 N -0.0074(6) 0.2701(6) 0.4854(4)
N3 N -0.4617(7) 0.2421(7) 0.4375(5)
N4 N -0.1292(7) 0.4638(7) 0.7306(5)
N5 N -0.2714(8) 0.8357(7) 0.2481(5)
C1 C -0.2137(7) 0.6877(7) 0.3336(5)
H1 H -0.1330 0.6950 0.3180
C2 C -0.3048(7) 0.7516(8) 0.3034(5)
C3 C -0.4258(8) 0.7399(7) 0.3195(5)
H2 H -0.4844 0.7849 0.2978
C4 C -0.4594(7) 0.6591(6) 0.3692(5)
C5 C -0.3685(7) 0.5976(8) 0.4046(5)
H3 H -0.3902 0.5459 0.4401
C6 C -0.2458(7) 0.6123(7) 0.3877(5)
C7 C -0.1460(7) 0.5466(7) 0.4254(5)
C8 C -0.5941(7) 0.6425(8) 0.3834(5)
C9 C 0.0275(8) 0.3063(8) 0.4164(6)
H4 H -0.0072 0.3690 0.3994
C10 C 0.1121(9) 0.2591(9) 0.3666(6)
H5 H 0.1294 0.2879 0.3178
C11 C 0.1688(9) 0.1681(9) 0.3924(7)
H6 H 0.2252 0.1337 0.3614
C12 C 0.1385(8) 0.1297(8) 0.4669(6)
C13 C 0.1912(8) 0.0337(8) 0.4978(7)
H7 H 0.2511 -0.0008 0.4697
C14 C 0.1540(9) -0.0063(9) 0.5672(7)
H8 H 0.1879 -0.0686 0.5857
C15 C 0.0638(8) 0.0456(8) 0.6121(6)
C16 C 0.0187(9) 0.0056(8) 0.6823(7)
H9 H 0.0549 -0.0533 0.7049
C17 C -0.0752(8) 0.0508(8) 0.7170(6)
H10 H -0.1085 0.0207 0.7615
C18 C -0.1227(8) 0.1412(8) 0.6875(6)
H11 H -0.1862 0.1731 0.7140
C19 C 0.0093(8) 0.1359(7) 0.5845(6)
C20 C 0.0493(7) 0.1813(7) 0.5100(5)
C21 C -0.3559(8) 0.2915(8) 0.4487(6)
H12 H -0.3476 0.3575 0.4265
C22 C -0.5585(10) 0.2959(10) 0.3931(7)
H13 H -0.6225 0.3156 0.4279
H14 H -0.5913 0.2503 0.3530
H15 H -0.5255 0.3573 0.3690
C23 C -0.4850(11) 0.1416(10) 0.4693(9)
H16 H -0.4181 0.1217 0.5039
H17 H -0.4929 0.0918 0.4272
H18 H -0.5595 0.1434 0.4981
Ho1B Ho 0.15673(3) 0.63690(3) 0.42418(2)
Ho1B_2 Ho -0.84327(3) 0.63690(3) 0.42418(2)
O5B O 0.0384(5) 0.4319(5) 0.5910(3)
O6B O -0.3753(5) 0.4295(5) 0.5706(4)
O7B O -0.3289(5) 0.2996(5) 0.6489(4)
loop_
_geom_bond_atom_site_label_1
_geom_bond_atom_site_label_2
_geom_bond_site_symmetry_1
_geom_bond_site_symmetry_2
Ho1 O1 1_555 1_555
O1 N4 1_555 1_555
O2 Ho1 1_555 1_555
O3 N4 1_555 1_555
O4 Ho1 1_555 1_555
O5 C7 1_555 1_555
O6 C8 1_555 1_555
O7 C8 1_555 1_555
O8 N5 1_555 1_555
O9 N5 1_555 1_555
O10 Ho1 1_555 1_555
N1 Ho1 1_555 1_555
N2 Ho1 1_555 1_555
N3 C21 1_555 1_555
N4 O2 1_555 1_555
N5 C2 1_555 1_555
C1 H1 1_555 1_555
C2 C1 1_555 1_555
C3 C2 1_555 1_555
H2 C3 1_555 1_555
C4 C3 1_555 1_555
C5 C4 1_555 1_555
H3 C5 1_555 1_555
C6 C1 1_555 1_555
C7 O4 1_555 1_555
C8 C4 1_555 1_555
C9 N2 1_555 1_555
H4 C9 1_555 1_555
C10 C9 1_555 1_555
H5 C10 1_555 1_555
C11 C10 1_555 1_555
H6 C11 1_555 1_555
C12 C11 1_555 1_555
C13 C12 1_555 1_555
H7 C13 1_555 1_555
C14 C13 1_555 1_555
H8 C14 1_555 1_555
C15 C14 1_555 1_555
C16 C15 1_555 1_555
H9 C16 1_555 1_555
C17 C16 1_555 1_555
H10 C17 1_555 1_555
C18 N1 1_555 1_555
H11 C18 1_555 1_555
C19 N1 1_555 1_555
C20 N2 1_555 1_555
C21 O10 1_555 1_555
H12 C21 1_555 1_555
C22 N3 1_555 1_555
H13 C22 1_555 1_555
H14 C22 1_555 1_555
H15 C22 1_555 1_555
C23 N3 1_555 1_555
H16 C23 1_555 1_555
H17 C23 1_555 1_555
H18 C23 1_555 1_555
Ho1B O5 1_555 1_555
Ho1B_2 O6 1_555 1_555
O5B Ho1 1_555 1_555
O6B Ho1 1_555 1_555
O7B Ho1 1_555 1_555
O7 Ho1B_2 1_555 1_555
C5 C6 1_555 1_555
C6 C7 1_555 1_555
C12 C20 1_555 1_555
C15 C19 1_555 1_555
C17 C18 1_555 1_555
C19 C20 1_555 1_555

#END
