
#######################################################################
#
#                 Cambridge Crystallographic Data Centre
#                                CCDC 
#
#######################################################################
#
# If this CIF has been generated from an entry in the Cambridge 
# Structural Database, then it will include bibliographic, chemical, 
# crystal, experimental, refinement or atomic coordinate data resulting 
# from the CCDC's data processing and validation procedures.
#
#######################################################################

data_PEHQEA
_symmetry_cell_setting           tetragonal
_symmetry_space_group_name_H-M   'P 4/n c c'
_symmetry_Int_Tables_number      130
_space_group_name_Hall           '-P 4a 2ac'
loop_
_symmetry_equiv_pos_site_id
_symmetry_equiv_pos_as_xyz
1 x,y,z
2 1/2-y,x,z
3 1/2-x,1/2-y,z
4 y,1/2-x,z
5 1/2+x,-y,1/2-z
6 1/2+y,1/2+x,1/2-z
7 -x,1/2+y,1/2-z
8 -y,-x,1/2-z
9 -x,-y,-z
10 1/2+y,-x,-z
11 1/2+x,1/2+y,-z
12 -y,1/2+x,-z
13 1/2-x,y,1/2+z
14 1/2-y,1/2-x,1/2+z
15 x,1/2-y,1/2+z
16 y,x,1/2+z
_cell_length_a                   21.028(2)
_cell_length_b                   21.028(2)
_cell_length_c                   9.992(2)
_cell_angle_alpha                90
_cell_angle_beta                 90
_cell_angle_gamma                90
_cell_volume                     4418.23
loop_
_atom_site_label
_atom_site_type_symbol
_atom_site_fract_x
_atom_site_fract_y
_atom_site_fract_z
Eu1 Eu 0.10627(2) 0.60627(2) 0.2500
Na1 Na 0.08610(17) 0.58610(17) 0.7500
O1 O 0.0856(3) 0.5644(2) 0.4688(5)
O2 O 0.0745(3) 0.4892(3) 0.6186(6)
O3 O 0.0940(3) 0.4887(3) 0.2652(6)
O4 O 0.2075(3) 0.5930(5) 0.3432(6)
O5 O 0.3123(3) 0.5744(5) 0.3321(6)
O6 O 0.1890(3) 0.5801(4) 0.0941(6)
C1 C 0.0813(4) 0.5077(4) 0.5011(8)
C2 C 0.0809(6) 0.4583(5) 0.3905(9)
H1 H 0.0370 0.4430 0.3846
C3 C 0.2576(5) 0.5785(6) 0.2824(8)
C4 C 0.2513(5) 0.5595(5) 0.1360(8)
H2 H 0.2843 0.5802 0.0820
C5 C 0.2555(7) 0.4868(6) 0.1224(14)
H3 H 0.2569 0.4755 0.0294
H4 H 0.2190 0.4676 0.1634
H5 H 0.2934 0.4719 0.1660
C6 C 0.1155(8) 0.4011(6) 0.4121(13)
H6 H 0.1056 0.3712 0.3425
H7 H 0.1040 0.3834 0.4973
H8 H 0.1603 0.4101 0.4111
Na1K Na 0.41390(17) 0.58610(17) 0.2500
Na1_2 Na 0.08610(17) 0.58610(17) -0.2500
Na1I Na 0.08610(17) 0.91390(17) 0.2500
O1E O 0.0644(2) 0.5856(3) 0.0312(5)
O1E_2 O 0.0644(2) 0.5856(3) 1.0312(5)
O2E O -0.0108(3) 0.5745(3) -0.1186(6)
O2E_2 O -0.0108(3) 0.5745(3) 0.8814(6)
O3E O -0.0113(3) 0.5940(3) 0.2348(6)
O4E O 0.0930(5) 0.7075(3) 0.1568(6)
O5E O 0.0744(5) 0.8123(3) 0.1679(6)
O5I O 0.0744(5) 0.6877(3) 0.6679(6)
O5L O 0.1877(3) 0.5744(5) 0.8321(6)
O6E O 0.0801(4) 0.6890(3) 0.4059(6)
C1E C 0.0077(4) 0.5813(4) -0.0011(8)
C2E C -0.0417(5) 0.5809(6) 0.1095(9)
H1E H -0.0570 0.5370 0.1154
C3E C 0.0785(6) 0.7576(5) 0.2176(8)
C4E C 0.0595(5) 0.7513(5) 0.3640(8)
H2E H 0.0802 0.7843 0.4180
C5E C -0.0132(6) 0.7555(7) 0.3776(14)
H3E H -0.0245 0.7569 0.4706
H4E H -0.0324 0.7190 0.3366
H5E H -0.0281 0.7934 0.3340
C6E C -0.0989(6) 0.6155(8) 0.0879(13)
H6E H -0.1288 0.6056 0.1575
H7E H -0.1166 0.6040 0.0027
H8E H -0.0899 0.6603 0.0889
loop_
_geom_bond_atom_site_label_1
_geom_bond_atom_site_label_2
_geom_bond_site_symmetry_1
_geom_bond_site_symmetry_2
Eu1 O1 1_555 1_555
Na1 O1 1_555 1_555
O1 C1 1_555 1_555
O2 Na1 1_555 1_555
O3 Eu1 1_555 1_555
O4 Eu1 1_555 1_555
O5 C3 1_555 1_555
O6 Eu1 1_555 1_555
C1 O2 1_555 1_555
C2 O3 1_555 1_555
H1 C2 1_555 1_555
C3 O4 1_555 1_555
C4 O6 1_555 1_555
H2 C4 1_555 1_555
C5 C4 1_555 1_555
H3 C5 1_555 1_555
H4 C5 1_555 1_555
H5 C5 1_555 1_555
C6 C2 1_555 1_555
H6 C6 1_555 1_555
H7 C6 1_555 1_555
H8 C6 1_555 1_555
Na1K O5 1_555 1_555
Na1_2 O1E 1_555 1_555
Na1I O5E 1_555 1_555
O1E Eu1 1_555 1_555
O1E_2 Na1 1_555 1_555
O2E Na1_2 1_555 1_555
O2E_2 Na1 1_555 1_555
O3E Eu1 1_555 1_555
O4E Eu1 1_555 1_555
O5E C3E 1_555 1_555
O5I Na1 1_555 1_555
O5L Na1 1_555 1_555
O6E Eu1 1_555 1_555
C1E O1E 1_555 1_555
C2E O3E 1_555 1_555
H1E C2E 1_555 1_555
C3E O4E 1_555 1_555
C4E O6E 1_555 1_555
H2E C4E 1_555 1_555
C5E C4E 1_555 1_555
H3E C5E 1_555 1_555
H4E C5E 1_555 1_555
H5E C5E 1_555 1_555
C6E C2E 1_555 1_555
H6E C6E 1_555 1_555
H7E C6E 1_555 1_555
H8E C6E 1_555 1_555
C1 C2 1_555 1_555
C3 C4 1_555 1_555
O2E C1E 1_555 1_555
C1E C2E 1_555 1_555
C3E C4E 1_555 1_555

#END
