
#######################################################################
#
#                 Cambridge Crystallographic Data Centre
#                                CCDC 
#
#######################################################################
#
# If this CIF has been generated from an entry in the Cambridge 
# Structural Database, then it will include bibliographic, chemical, 
# crystal, experimental, refinement or atomic coordinate data resulting 
# from the CCDC's data processing and validation procedures.
#
#######################################################################

data_PEHROK
_symmetry_cell_setting           monoclinic
_symmetry_space_group_name_H-M   'C 2/c'
_symmetry_Int_Tables_number      15
_space_group_name_Hall           '-C 2yn'
loop_
_symmetry_equiv_pos_site_id
_symmetry_equiv_pos_as_xyz
1 x,y,z
2 1/2+x,1/2+y,z
3 -x,y,1/2-z
4 1/2-x,1/2+y,1/2-z
5 -x,-y,-z
6 1/2-x,1/2-y,-z
7 x,-y,1/2+z
8 1/2+x,1/2-y,1/2+z
_cell_length_a                   13.794(9)
_cell_length_b                   24.104(16)
_cell_length_c                   9.342(6)
_cell_angle_alpha                90
_cell_angle_beta                 100.974(9)
_cell_angle_gamma                90
_cell_volume                     3049.33
loop_
_atom_site_label
_atom_site_type_symbol
_atom_site_fract_x
_atom_site_fract_y
_atom_site_fract_z
Ba1 Ba -0.5000 0.466320(12) -0.2500
O1 O -0.3735(2) 0.23864(11) 0.1548(3)
O2 O -0.4244(2) 0.38852(11) -0.0451(3)
O3 O -0.3882(2) 0.43541(10) 0.2094(3)
H1 H -0.4064 0.4329 0.1209
O4 O -0.3277(3) 0.31396(11) 0.6212(3)
H2 H -0.3228 0.3435 0.6655
O5 O -0.4075(2) 0.47639(11) 0.4899(3)
O6 O -0.3258(2) 0.41790(11) 0.6785(3)
O7 O -0.2335(3) 0.45723(13) 0.5066(4)
S1 S -0.32604(8) 0.43761(4) 0.52981(11)
C1 C -0.3841(3) 0.24251(16) 0.0080(4)
C2 C -0.4024(3) 0.29174(16) -0.0607(4)
H3 H -0.4126 0.2927 -0.1620
C3 C -0.4066(3) 0.34234(15) 0.0174(4)
C4 C -0.3870(3) 0.33772(15) 0.1736(4)
C5 C -0.3772(3) 0.38414(15) 0.2683(4)
C6 C -0.3551(3) 0.37803(15) 0.4173(4)
C7 C -0.3469(3) 0.32384(15) 0.4769(4)
C8 C -0.3567(3) 0.27754(16) 0.3860(4)
H4 H -0.3528 0.2420 0.4252
C9 C -0.3720(3) 0.28519(14) 0.2392(4)
C10 C -0.3722(3) 0.18874(17) -0.0602(5)
C11 C -0.3553(5) 0.1414(2) 0.0240(6)
H5 H -0.3526 0.1432 0.1241
C12 C -0.3422(6) 0.0905(2) -0.0429(8)
H6 H -0.3282 0.0588 0.0140
C13 C -0.3496(5) 0.0871(2) -0.1892(7)
H7 H -0.3427 0.0529 -0.2327
C14 C -0.3673(4) 0.1336(2) -0.2725(6)
H8 H -0.3723 0.1311 -0.3730
C15 C -0.3778(3) 0.18453(19) -0.2095(5)
H9 H -0.3886 0.2161 -0.2675
Ba1F Ba -0.5000 0.533680(12) 0.2500
Ba1F_2 Ba -0.5000 0.533680(12) -0.7500
Ba1_2 Ba -0.5000 0.466320(12) 0.7500
Ba1_3 Ba -0.5000 0.466320(12) -1.2500
O1B O -0.6265(2) 0.23864(11) -0.6548(3)
O2B O -0.5756(2) 0.38852(11) -0.4549(3)
O3D O -0.6118(2) 0.56459(10) -0.2094(3)
O3F O -0.3882(2) 0.56459(10) -0.2906(3)
O3B O -0.6118(2) 0.43541(10) -0.7094(3)
H1D H -0.5936 0.5671 -0.1209
H1F H -0.4064 0.5671 -0.3791
H1B H -0.5936 0.4329 -0.6209
O4B O -0.6723(3) 0.31396(11) -1.1212(3)
H2B H -0.6772 0.3435 -1.1655
O5_2 O -0.4075(2) 0.47639(11) -0.5101(3)
O5B O -0.5925(2) 0.47639(11) 0.0101(3)
O5D O -0.5925(2) 0.52361(11) -0.4899(3)
O5F O -0.4075(2) 0.52361(11) -0.0101(3)
O5B_2 O -0.5925(2) 0.47639(11) -0.9899(3)
O6B O -0.6742(2) 0.41790(11) -0.1785(3)
O6_2 O -0.3258(2) 0.41790(11) -0.3215(3)
O6B_2 O -0.6742(2) 0.41790(11) -1.1785(3)
O7B O -0.7665(3) 0.45723(13) -1.0066(4)
S1B S -0.67396(8) 0.43761(4) -1.02981(11)
C1B C -0.6159(3) 0.24251(16) -0.5080(4)
C2B C -0.5976(3) 0.29174(16) -0.4393(4)
H3B H -0.5874 0.2927 -0.3380
C3B C -0.5934(3) 0.34234(15) -0.5174(4)
C4B C -0.6130(3) 0.33772(15) -0.6736(4)
C5B C -0.6228(3) 0.38414(15) -0.7683(4)
C6B C -0.6449(3) 0.37803(15) -0.9173(4)
C7B C -0.6531(3) 0.32384(15) -0.9769(4)
C8B C -0.6433(3) 0.27754(16) -0.8860(4)
H4B H -0.6472 0.2420 -0.9252
C9B C -0.6280(3) 0.28519(14) -0.7392(4)
C10B C -0.6278(3) 0.18874(17) -0.4398(5)
C11B C -0.6447(5) 0.1414(2) -0.5240(6)
H5B H -0.6474 0.1432 -0.6241
C12B C -0.6578(6) 0.0905(2) -0.4571(8)
H6B H -0.6718 0.0588 -0.5140
C13B C -0.6504(5) 0.0871(2) -0.3108(7)
H7B H -0.6573 0.0529 -0.2673
C14B C -0.6327(4) 0.1336(2) -0.2275(6)
H8B H -0.6277 0.1311 -0.1270
C15B C -0.6222(3) 0.18453(19) -0.2905(5)
H9B H -0.6114 0.2161 -0.2325
loop_
_geom_bond_atom_site_label_1
_geom_bond_atom_site_label_2
_geom_bond_site_symmetry_1
_geom_bond_site_symmetry_2
Ba1 O2 1_555 1_555
O1 C1 1_555 1_555
O2 C3 1_555 1_555
O3 H1 1_555 1_555
O4 H2 1_555 1_555
O5 S1 1_555 1_555
O6 S1 1_555 1_555
O7 S1 1_555 1_555
S1 C6 1_555 1_555
C1 C2 1_555 1_555
C2 H3 1_555 1_555
C3 C2 1_555 1_555
C4 C3 1_555 1_555
C5 O3 1_555 1_555
C6 C5 1_555 1_555
C7 O4 1_555 1_555
C8 C7 1_555 1_555
H4 C8 1_555 1_555
C9 O1 1_555 1_555
C10 C1 1_555 1_555
C11 C10 1_555 1_555
H5 C11 1_555 1_555
C12 C11 1_555 1_555
H6 C12 1_555 1_555
C13 C12 1_555 1_555
H7 C13 1_555 1_555
C14 C13 1_555 1_555
H8 C14 1_555 1_555
C15 C10 1_555 1_555
H9 C15 1_555 1_555
Ba1F O3 1_555 1_555
Ba1F_2 O3B 1_555 1_555
Ba1_2 O5 1_555 1_555
Ba1_3 O5B_2 1_555 1_555
O1B C1B 1_555 1_555
O2B Ba1 1_555 1_555
O3D Ba1 1_555 1_555
O3F Ba1 1_555 1_555
O3B H1B 1_555 1_555
H1D O3D 1_555 1_555
H1F O3F 1_555 1_555
O4B H2B 1_555 1_555
O5_2 Ba1 1_555 1_555
O5B Ba1 1_555 1_555
O5D Ba1 1_555 1_555
O5F Ba1 1_555 1_555
O5B_2 Ba1F_2 1_555 1_555
O6B Ba1 1_555 1_555
O6_2 Ba1 1_555 1_555
O6B_2 Ba1_3 1_555 1_555
O7B S1B 1_555 1_555
S1B O5B_2 1_555 1_555
C1B C2B 1_555 1_555
C2B H3B 1_555 1_555
C3B O2B 1_555 1_555
C4B C3B 1_555 1_555
C5B O3B 1_555 1_555
C6B S1B 1_555 1_555
C7B O4B 1_555 1_555
C8B C7B 1_555 1_555
H4B C8B 1_555 1_555
C9B O1B 1_555 1_555
C10B C1B 1_555 1_555
C11B C10B 1_555 1_555
H5B C11B 1_555 1_555
C12B C11B 1_555 1_555
H6B C12B 1_555 1_555
C13B C12B 1_555 1_555
H7B C13B 1_555 1_555
C14B C13B 1_555 1_555
H8B C14B 1_555 1_555
C15B C10B 1_555 1_555
H9B C15B 1_555 1_555
O5 Ba1F 1_555 1_555
O6 Ba1_2 1_555 1_555
C4 C5 1_555 1_555
C4 C9 1_555 1_555
C6 C7 1_555 1_555
C8 C9 1_555 1_555
C14 C15 1_555 1_555
Ba1F O5B 1_555 1_555
Ba1F O5F 1_555 1_555
Ba1F_2 O5_2 1_555 1_555
Ba1F_2 O5D 1_555 1_555
O6B_2 S1B 1_555 1_555
C2B C3B 1_555 1_555
C4B C5B 1_555 1_555
C4B C9B 1_555 1_555
C5B C6B 1_555 1_555
C6B C7B 1_555 1_555
C8B C9B 1_555 1_555
C14B C15B 1_555 1_555

#END
