
#######################################################################
#
#                 Cambridge Crystallographic Data Centre
#                                CCDC 
#
#######################################################################
#
# If this CIF has been generated from an entry in the Cambridge 
# Structural Database, then it will include bibliographic, chemical, 
# crystal, experimental, refinement or atomic coordinate data resulting 
# from the CCDC's data processing and validation procedures.
#
#######################################################################

data_PEHRUR
_symmetry_cell_setting           orthorhombic
_symmetry_space_group_name_H-M   'P 21 21 21'
_symmetry_Int_Tables_number      19
_space_group_name_Hall           'P 2ac 2ab'
loop_
_symmetry_equiv_pos_site_id
_symmetry_equiv_pos_as_xyz
1 x,y,z
2 1/2-x,-y,1/2+z
3 1/2+x,1/2-y,-z
4 -x,1/2+y,1/2-z
_cell_length_a                   6.6797(3)
_cell_length_b                   10.1047(4)
_cell_length_c                   21.7370(11)
_cell_angle_alpha                90
_cell_angle_beta                 90
_cell_angle_gamma                90
_cell_volume                     1467.17
loop_
_atom_site_label
_atom_site_type_symbol
_atom_site_fract_x
_atom_site_fract_y
_atom_site_fract_z
Sn1 Sn 0.42811(4) 0.42889(3) 0.266754(12)
F1 F 0.3239(4) 0.5493(3) 0.03900(13)
O1 O 0.4736(5) 0.2482(3) 0.19691(14)
O2 O 0.6296(5) 0.0700(3) 0.15995(14)
C1 C 0.2743(8) 0.2867(4) 0.3209(2)
H1 H 0.3620 0.2561 0.3541
H2 H 0.2361 0.2114 0.2951
H3 H 0.1539 0.3270 0.3386
C2 C 0.2524(7) 0.5377(4) 0.2025(2)
H4 H 0.1868 0.4762 0.1741
H5 H 0.3389 0.5981 0.1794
H6 H 0.1505 0.5887 0.2246
C3 C 0.7466(7) 0.4414(5) 0.2676(2)
H7 H 0.7888 0.5066 0.2984
H8 H 0.7943 0.4687 0.2269
H9 H 0.8031 0.3547 0.2780
C4 C 0.5859(7) 0.1938(4) 0.15838(17)
C5 C 0.6780(6) 0.2674(4) 0.10510(17)
C6 C 0.8423(7) 0.1976(4) 0.07088(18)
H10 H 0.8568 0.2377 0.0296
H11 H 0.8050 0.1035 0.0653
C7 C 1.0419(7) 0.2052(5) 0.1044(2)
H12 H 1.1402 0.1494 0.0833
H13 H 1.0251 0.1742 0.1468
H14 H 1.0891 0.2971 0.1047
C8 C 0.6030(6) 0.3882(4) 0.09238(18)
H15 H 0.5019 0.4197 0.1194
C9 C 0.6590(7) 0.4771(4) 0.04167(18)
C10 C 0.5116(7) 0.5575(4) 0.01570(19)
C11 C 0.5437(8) 0.6404(4) -0.03410(19)
H16 H 0.4378 0.6921 -0.0507
C12 C 0.7331(8) 0.6459(4) -0.0590(2)
H17 H 0.7584 0.7007 -0.0937
C13 C 0.8863(7) 0.5723(5) -0.0338(2)
H18 H 1.0169 0.5782 -0.0508
C14 C 0.8522(7) 0.4895(4) 0.01616(19)
H19 H 0.9603 0.4407 0.0333
Sn1C Sn 0.57189(4) -0.07111(3) 0.233246(12)
O2C O 0.3704(5) 0.5700(3) 0.34005(14)
loop_
_geom_bond_atom_site_label_1
_geom_bond_atom_site_label_2
_geom_bond_site_symmetry_1
_geom_bond_site_symmetry_2
Sn1 O1 1_555 1_555
F1 C10 1_555 1_555
O1 C4 1_555 1_555
O2 C4 1_555 1_555
C1 Sn1 1_555 1_555
H1 C1 1_555 1_555
H2 C1 1_555 1_555
H3 C1 1_555 1_555
C2 Sn1 1_555 1_555
H4 C2 1_555 1_555
H5 C2 1_555 1_555
H6 C2 1_555 1_555
C3 Sn1 1_555 1_555
H7 C3 1_555 1_555
H8 C3 1_555 1_555
H9 C3 1_555 1_555
C4 C5 1_555 1_555
C5 C6 1_555 1_555
C6 H10 1_555 1_555
H11 C6 1_555 1_555
C7 C6 1_555 1_555
H12 C7 1_555 1_555
H13 C7 1_555 1_555
H14 C7 1_555 1_555
C8 C5 1_555 1_555
H15 C8 1_555 1_555
C9 C8 1_555 1_555
C10 C9 1_555 1_555
C11 C10 1_555 1_555
H16 C11 1_555 1_555
C12 C11 1_555 1_555
H17 C12 1_555 1_555
C13 C12 1_555 1_555
H18 C13 1_555 1_555
C14 C9 1_555 1_555
H19 C14 1_555 1_555
Sn1C O2 1_555 1_555
O2C Sn1 1_555 1_555
C13 C14 1_555 1_555

#END
