
#######################################################################
#
#                 Cambridge Crystallographic Data Centre
#                                CCDC 
#
#######################################################################
#
# If this CIF has been generated from an entry in the Cambridge 
# Structural Database, then it will include bibliographic, chemical, 
# crystal, experimental, refinement or atomic coordinate data resulting 
# from the CCDC's data processing and validation procedures.
#
#######################################################################

data_PEHTIH
_symmetry_cell_setting           monoclinic
_symmetry_space_group_name_H-M   'P 21/c'
_symmetry_Int_Tables_number      14
_space_group_name_Hall           '-P 2ybc'
loop_
_symmetry_equiv_pos_site_id
_symmetry_equiv_pos_as_xyz
1 x,y,z
2 -x,1/2+y,1/2-z
3 -x,-y,-z
4 x,1/2-y,1/2+z
_cell_length_a                   29.597(2)
_cell_length_b                   12.3396(7)
_cell_length_c                   8.1299(4)
_cell_angle_alpha                90
_cell_angle_beta                 94.170(5)
_cell_angle_gamma                90
_cell_volume                     2961.3
loop_
_atom_site_label
_atom_site_type_symbol
_atom_site_fract_x
_atom_site_fract_y
_atom_site_fract_z
Cu1 Cu 0.43074(2) 0.08720(6) 0.42145(7)
Cu2 Cu 0.87548(3) 0.09219(6) 0.44323(8)
O1 O 0.94491(19) -0.1839(4) 0.5071(6)
O2 O 0.34638(16) -0.1621(3) 0.3580(5)
O3 O 0.89118(15) -0.0638(3) 0.4224(5)
O4 O 0.43563(14) 0.2349(3) 0.5305(5)
O5 O 0.87405(14) 0.2456(3) 0.5321(5)
O6 O 0.40997(14) -0.0637(3) 0.3757(4)
O7 O 0.39397(15) 0.3532(3) 0.6622(5)
O8 O 0.91263(14) 0.3564(4) 0.7108(5)
N1 N 0.92676(17) 0.0878(4) 0.5971(5)
N2 N 0.81673(16) 0.0902(4) 0.3182(5)
N3 N 0.37158(16) 0.0973(4) 0.4969(5)
N4 N 0.49017(15) 0.0816(4) 0.3334(5)
C1 C 0.7901(2) 0.1793(5) 0.3040(8)
H1 H 0.7997 0.2419 0.3601
C2 C 0.3139(2) 0.2094(6) 0.5811(7)
H2 H 0.3047 0.2735 0.6286
C3 C 0.7496(2) 0.1815(6) 0.2108(8)
H3 H 0.7325 0.2448 0.2046
C4 C 0.7619(2) 0.0007(6) 0.1409(7)
H4 H 0.7532 -0.0625 0.0850
C5 C 0.2974(2) 0.0335(6) 0.4728(7)
H5 H 0.2768 -0.0214 0.4438
C6 C 1.0000(2) 0.0797(6) 0.8119(8)
H6 H 1.0251 0.0769 0.8875
C7 C 0.9761(2) 0.1750(6) 0.7931(7)
H7 H 0.9850 0.2366 0.8530
C8 C 0.8021(2) 0.0024(5) 0.2361(7)
H8 H 0.8198 -0.0601 0.2434
C9 C 0.5043(2) -0.0076(5) 0.2581(7)
H9 H 0.4884 -0.0720 0.2686
C10 C 0.9880(2) -0.0109(6) 0.7229(8)
H10 H 1.0049 -0.0743 0.7335
C11 C 0.9384(2) 0.1763(5) 0.6823(6)
C12 C 0.9490(2) -0.0046(5) 0.6151(7)
C13 C 0.68962(19) 0.0892(6) 0.0271(7)
H11 H 0.6894 0.0305 -0.0523
H12 H 0.6859 0.1567 -0.0335
C14 C 0.5514(2) 0.1790(5) 0.2280(6)
H13 H 0.5671 0.2440 0.2214
C15 C 0.7341(2) 0.0902(5) 0.1259(7)
C16 C 0.9062(2) 0.2684(5) 0.6408(7)
C17 C 0.3989(2) 0.2685(5) 0.5867(6)
C18 C 0.60452(18) 0.0935(5) 0.0398(6)
H14 H 0.6047 0.1642 -0.0124
H15 H 0.6005 0.0395 -0.0467
C19 C 0.3429(2) 0.0189(5) 0.4545(6)
C20 C 0.3592(2) 0.1921(5) 0.5560(6)
C21 C 0.9277(2) -0.0945(6) 0.5075(7)
C22 C 0.5145(2) 0.1723(5) 0.3192(6)
H16 H 0.5058 0.2340 0.3745
C23 C 0.5415(2) -0.0067(5) 0.1658(7)
H17 H 0.5506 -0.0704 0.1168
C24 C 0.65005(19) 0.0750(5) 0.1354(6)
H18 H 0.6508 0.0023 0.1810
H19 H 0.6533 0.1258 0.2266
C25 C 0.56522(19) 0.0878(5) 0.1453(6)
C26 C 0.3675(2) -0.0796(5) 0.3908(6)
C27 C 0.2827(3) 0.1298(6) 0.5342(8)
H20 H 0.2519 0.1414 0.5442
Cu1C Cu 0.43074(2) 0.41280(6) 0.92145(7)
Cu2C Cu 0.87548(3) 0.40781(6) 0.94323(8)
O7C O 0.39397(15) 0.1468(3) 0.1622(5)
O8C O 0.91263(14) 0.1436(4) 0.2108(5)
O9 O 0.8070(5) 0.0339(12) -0.2908(15)
N5 N 0.8462(2) -0.0880(6) -0.1449(7)
C28 C 0.8205(4) -0.1923(10) -0.2029(14)
H21 H 0.7942 -0.1731 -0.2727
H22 H 0.8114 -0.2314 -0.1087
H23 H 0.8400 -0.2371 -0.2633
C29 C 0.8303(5) 0.0124(11) -0.1886(13)
C30 C 0.8861(3) -0.0849(8) -0.0357(10)
H24 H 0.8964 -0.0114 -0.0229
H25 H 0.9094 -0.1278 -0.0805
H26 H 0.8796 -0.1135 0.0698
loop_
_geom_bond_atom_site_label_1
_geom_bond_atom_site_label_2
_geom_bond_site_symmetry_1
_geom_bond_site_symmetry_2
Cu1 O4 1_555 1_555
Cu2 O3 1_555 1_555
O1 C21 1_555 1_555
O2 C26 1_555 1_555
O3 C21 1_555 1_555
O4 C17 1_555 1_555
O5 Cu2 1_555 1_555
O6 Cu1 1_555 1_555
O7 C17 1_555 1_555
O8 C16 1_555 1_555
O9 C29 1_555 1_555
N1 Cu2 1_555 1_555
N2 Cu2 1_555 1_555
N3 Cu1 1_555 1_555
N4 Cu1 1_555 1_555
N5 C28 1_555 1_555
C1 N2 1_555 1_555
H1 C1 1_555 1_555
C2 H2 1_555 1_555
C3 C1 1_555 1_555
H3 C3 1_555 1_555
C4 H4 1_555 1_555
C5 H5 1_555 1_555
C6 H6 1_555 1_555
C7 C6 1_555 1_555
H7 C7 1_555 1_555
C8 N2 1_555 1_555
H8 C8 1_555 1_555
C9 N4 1_555 1_555
H9 C9 1_555 1_555
C10 C6 1_555 1_555
H10 C10 1_555 1_555
C11 N1 1_555 1_555
C12 N1 1_555 1_555
C13 H11 1_555 1_555
H12 C13 1_555 1_555
C14 H13 1_555 1_555
C15 C3 1_555 1_555
C16 O5 1_555 1_555
C17 C20 1_555 1_555
C18 H14 1_555 1_555
H15 C18 1_555 1_555
C19 N3 1_555 1_555
C20 N3 1_555 1_555
C21 C12 1_555 1_555
C22 N4 1_555 1_555
H16 C22 1_555 1_555
C23 C9 1_555 1_555
H17 C23 1_555 1_555
C24 C13 1_555 1_555
H18 C24 1_555 1_555
H19 C24 1_555 1_555
C25 C14 1_555 1_555
C26 O6 1_555 1_555
C27 C2 1_555 1_555
H20 C27 1_555 1_555
C28 H21 1_555 1_555
H22 C28 1_555 1_555
H23 C28 1_555 1_555
C29 N5 1_555 1_555
C30 N5 1_555 1_555
H24 C30 1_555 1_555
H25 C30 1_555 1_555
H26 C30 1_555 1_555
Cu1C O7 1_555 1_555
Cu2C O8 1_555 1_555
O7C Cu1 1_555 1_555
O8C Cu2 1_555 1_555
C2 C20 1_555 1_555
C4 C8 1_555 1_555
C4 C15 1_555 1_555
C5 C19 1_555 1_555
C5 C27 1_555 1_555
C7 C11 1_555 1_555
C10 C12 1_555 1_555
C11 C16 1_555 1_555
C13 C15 1_555 1_555
C14 C22 1_555 1_555
C18 C24 1_555 1_555
C18 C25 1_555 1_555
C19 C26 1_555 1_555
C23 C25 1_555 1_555

#END
