
#######################################################################
#
#                 Cambridge Crystallographic Data Centre
#                                CCDC 
#
#######################################################################
#
# If this CIF has been generated from an entry in the Cambridge 
# Structural Database, then it will include bibliographic, chemical, 
# crystal, experimental, refinement or atomic coordinate data resulting 
# from the CCDC's data processing and validation procedures.
#
#######################################################################

data_PEHWEG
_symmetry_cell_setting           monoclinic
_symmetry_space_group_name_H-M   'P 21/c'
_symmetry_Int_Tables_number      14
_space_group_name_Hall           '-P 2ybc'
loop_
_symmetry_equiv_pos_site_id
_symmetry_equiv_pos_as_xyz
1 x,y,z
2 -x,1/2+y,1/2-z
3 -x,-y,-z
4 x,1/2-y,1/2+z
_cell_length_a                   7.4137(3)
_cell_length_b                   7.1036(3)
_cell_length_c                   23.6243(11)
_cell_angle_alpha                90
_cell_angle_beta                 95.764(5)
_cell_angle_gamma                90
_cell_volume                     1237.86
loop_
_atom_site_label
_atom_site_type_symbol
_atom_site_fract_x
_atom_site_fract_y
_atom_site_fract_z
Eu1 Eu 0.77381(10) 0.32525(11) 0.99245(3)
C1 C 0.396(2) 0.423(2) 0.9011(6)
C2 C 0.336(2) 0.412(2) 0.8390(6)
C3 C 0.196(2) 0.522(3) 0.8140(8)
H1 H 0.1360 0.6035 0.8365
C4 C 0.142(3) 0.512(3) 0.7552(8)
H2 H 0.0495 0.5889 0.7389
C5 C 0.228(3) 0.389(3) 0.7220(7)
C6 C 0.371(2) 0.281(2) 0.7450(8)
H3 H 0.4291 0.1997 0.7219
C7 C 0.428(2) 0.294(2) 0.8029(6)
H4 H 0.5280 0.2247 0.8181
C8 C 0.208(2) 0.232(2) 0.6317(6)
H5 H 0.2039 0.1140 0.6522
H6 H 0.3301 0.2505 0.6213
C9 C 0.073(2) 0.231(2) 0.5795(6)
C10 C 0.5526(19) -0.061(2) 0.9797(6)
O1 O 0.4828(10) -0.2154(11) 0.9637(3)
O2 O 0.9754(10) 0.2249(11) 0.9253(3)
H7 H 1.0304 0.1212 0.9321
H8 H 0.9360 0.2307 0.8903
O3 O 0.6950(13) 0.0116(15) 0.9646(4)
O4 O 0.5551(14) 0.3836(15) 0.9175(4)
O5 O 0.2766(14) 0.4616(16) 0.9341(4)
O6 O 0.1564(19) 0.3848(19) 0.6659(5)
O7 O 0.0930(14) 0.1007(16) 0.5434(4)
O8 O -0.0578(14) 0.3462(17) 0.5719(4)
Eu1B Eu 0.22619(10) -0.32525(11) 1.00755(3)
Eu1_2 Eu 0.77381(10) -0.67475(11) 0.99245(3)
Eu1A Eu 0.22619(10) -0.17475(11) 0.50755(3)
Eu1A_2 Eu 1.22619(10) -0.17475(11) 1.50755(3)
Eu1B_2 Eu 0.22619(10) 0.67475(11) 1.00755(3)
Eu1C Eu -0.22619(10) 0.17475(11) 0.49245(3)
Eu1C_2 Eu 0.77381(10) 0.17475(11) 1.49245(3)
C1B C 0.604(2) -0.423(2) 1.0989(6)
C2B C 0.664(2) -0.412(2) 1.1610(6)
C3B C 0.804(2) -0.522(3) 1.1860(8)
H1B H 0.8640 -0.6035 1.1635
C4B C 0.858(3) -0.512(3) 1.2448(8)
H2B H 0.9505 -0.5889 1.2611
C5B C 0.772(3) -0.389(3) 1.2780(7)
C6B C 0.629(2) -0.281(2) 1.2550(8)
H3B H 0.5709 -0.1997 1.2781
C7B C 0.572(2) -0.294(2) 1.1971(6)
H4B H 0.4720 -0.2247 1.1819
C8B C 0.792(2) -0.232(2) 1.3683(6)
H5B H 0.7961 -0.1140 1.3478
H6B H 0.6699 -0.2505 1.3787
C9B C 0.927(2) -0.231(2) 1.4205(6)
C9A C -0.073(2) -0.269(2) 0.9205(6)
C9C C 1.073(2) 0.269(2) 1.0795(6)
C10B C 0.4474(19) 0.061(2) 1.0203(6)
O1B O 0.5172(10) 0.2154(11) 1.0363(3)
O2B O 0.0246(10) -0.2249(11) 1.0747(3)
H7B H -0.0304 -0.1212 1.0679
H8B H 0.0640 -0.2307 1.1097
O3B O 0.3050(13) -0.0116(15) 1.0354(4)
O4B O 0.4449(14) -0.3836(15) 1.0825(4)
O5B O 0.7234(14) -0.4616(16) 1.0659(4)
O5_2 O 0.2766(14) -0.5384(16) 0.9341(4)
O5B_2 O 0.7234(14) 0.5384(16) 1.0659(4)
O6B O 0.8436(19) -0.3848(19) 1.3341(5)
O7B O 0.9070(14) -0.1007(16) 1.4566(4)
O7A O -0.0930(14) -0.3993(16) 0.9566(4)
O7A_2 O 0.9070(14) 0.6007(16) 0.9566(4)
O7C O 0.0930(14) -0.6007(16) 1.0434(4)
O7C_2 O 1.0930(14) 0.3993(16) 1.0434(4)
O8B O 1.0578(14) -0.3462(17) 1.4281(4)
O8A O 0.0578(14) -0.1538(17) 0.9281(4)
O8C O 0.9422(14) 0.1538(17) 1.0719(4)
loop_
_geom_bond_atom_site_label_1
_geom_bond_atom_site_label_2
_geom_bond_site_symmetry_1
_geom_bond_site_symmetry_2
Eu1 O2 1_555 1_555
C1 C2 1_555 1_555
C2 C3 1_555 1_555
C3 H1 1_555 1_555
C4 C3 1_555 1_555
H2 C4 1_555 1_555
C5 C4 1_555 1_555
C6 C5 1_555 1_555
H3 C6 1_555 1_555
C7 C2 1_555 1_555
H4 C7 1_555 1_555
C8 H5 1_555 1_555
H6 C8 1_555 1_555
C9 C8 1_555 1_555
C10 O1 1_555 1_555
O1 Eu1B 1_555 1_555
O2 H7 1_555 1_555
H8 O2 1_555 1_555
O3 Eu1 1_555 1_555
O4 Eu1 1_555 1_555
O5 C1 1_555 1_555
O6 C5 1_555 1_555
O7 C9 1_555 1_555
O8 C9 1_555 1_555
Eu1B O2B 1_555 1_555
Eu1_2 O5B 1_555 1_555
Eu1A O7 1_555 1_555
Eu1A_2 O7B 1_555 1_555
Eu1B_2 O5 1_555 1_555
Eu1C O7 1_555 1_555
Eu1C_2 O7B 1_555 1_555
C1B C2B 1_555 1_555
C2B C3B 1_555 1_555
C3B H1B 1_555 1_555
C4B C3B 1_555 1_555
H2B C4B 1_555 1_555
C5B C4B 1_555 1_555
C6B C5B 1_555 1_555
H3B C6B 1_555 1_555
C7B C2B 1_555 1_555
H4B C7B 1_555 1_555
C8B H5B 1_555 1_555
H6B C8B 1_555 1_555
C9B C8B 1_555 1_555
C9A O7A 1_555 1_555
C9C O7C_2 1_555 1_555
C10B C10 1_555 1_555
O1B Eu1 1_555 1_555
O2B H7B 1_555 1_555
H8B O2B 1_555 1_555
O3B Eu1B 1_555 1_555
O4B Eu1B 1_555 1_555
O5B C1B 1_555 1_555
O5_2 Eu1B 1_555 1_555
O5B_2 Eu1 1_555 1_555
O6B C5B 1_555 1_555
O7B C9B 1_555 1_555
O7A Eu1B 1_555 1_555
O7A_2 Eu1 1_555 1_555
O7C Eu1B 1_555 1_555
O7C_2 Eu1 1_555 1_555
O8B Eu1A_2 1_555 1_555
O8A Eu1B 1_555 1_555
O8C Eu1 1_555 1_555
C1 O4 1_555 1_555
C6 C7 1_555 1_555
C8 O6 1_555 1_555
C10 O3 1_555 1_555
O8 Eu1C 1_555 1_555
C1B O4B 1_555 1_555
C6B C7B 1_555 1_555
C8B O6B 1_555 1_555
C9B O8B 1_555 1_555
C9A O8A 1_555 1_555
C9C O8C 1_555 1_555
C10B O1B 1_555 1_555
C10B O3B 1_555 1_555

#END
