
#######################################################################
#
#                 Cambridge Crystallographic Data Centre
#                                CCDC 
#
#######################################################################
#
# If this CIF has been generated from an entry in the Cambridge 
# Structural Database, then it will include bibliographic, chemical, 
# crystal, experimental, refinement or atomic coordinate data resulting 
# from the CCDC's data processing and validation procedures.
#
#######################################################################

data_PEHWOQ
_symmetry_cell_setting           monoclinic
_symmetry_space_group_name_H-M   'P 21/c'
_symmetry_Int_Tables_number      14
_space_group_name_Hall           '-P 2ybc'
loop_
_symmetry_equiv_pos_site_id
_symmetry_equiv_pos_as_xyz
1 x,y,z
2 -x,1/2+y,1/2-z
3 -x,-y,-z
4 x,1/2-y,1/2+z
_cell_length_a                   7.3194(6)
_cell_length_b                   7.0328(6)
_cell_length_c                   23.502(2)
_cell_angle_alpha                90
_cell_angle_beta                 97.081(11)
_cell_angle_gamma                90
_cell_volume                     1200.56
loop_
_atom_site_label
_atom_site_type_symbol
_atom_site_fract_x
_atom_site_fract_y
_atom_site_fract_z
Ho1 Ho 0.77508(6) 1.17833(7) 0.493177(19)
O1 O 0.9033(9) 0.5974(10) 0.9583(3)
O2 O 1.0567(9) 0.8433(11) 0.9288(3)
O3 O 0.8399(12) 0.8833(13) 0.8337(4)
O4 O 0.4438(10) 0.8835(10) 0.5791(3)
O5 O 0.7275(9) 0.9635(10) 0.5640(3)
O6 O 0.4755(9) 1.7139(10) 0.4620(3)
O7 O 0.9701(9) 1.2764(11) 0.4272(3)
C1 C 0.9204(13) 0.7268(14) 0.9215(4)
C2 C 0.7865(15) 0.7324(16) 0.8683(5)
H1 H 0.7879 0.6126 0.8479
H2 H 0.6629 0.7539 0.8778
C3 C 0.7709(16) 0.8862(19) 0.7770(5)
C4 C 0.6260(16) 0.7751(17) 0.7530(5)
H3 H 0.5667 0.6916 0.7753
C5 C 0.5713(14) 0.7917(16) 0.6944(5)
H4 H 0.4722 0.7199 0.6777
C6 C 0.6625(15) 0.9152(16) 0.6595(5)
C7 C 0.8038(17) 1.0224(18) 0.6851(5)
H5 H 0.8665 1.1029 0.6628
C8 C 0.8569(17) 1.015(2) 0.7442(6)
H6 H 0.9489 1.0945 0.7614
C9 C 0.6056(14) 0.9232(15) 0.5966(4)
C10 C 0.5504(13) 1.5596(15) 0.4787(4)
H7 H 1.0768 1.2283 0.4298
H8 H 0.9256 1.2793 0.3919
O8 O 0.6943(9) 1.4888(10) 0.4636(3)
Ho1B Ho 0.22492(6) 0.82167(7) 0.506823(19)
Ho1C Ho 0.77508(6) 0.32167(7) 0.993177(19)
Ho1A Ho 1.22492(6) 0.67833(7) 1.006823(19)
Ho1B_2 Ho 0.22492(6) 1.82167(7) 0.506823(19)
Ho1A_2 Ho 0.22492(6) 1.67833(7) 0.006823(19)
Ho1C_2 Ho -0.22492(6) 1.32167(7) -0.006823(19)
O1B O 0.0967(9) 1.4026(10) 0.0417(3)
O1C O 0.9033(9) 0.9026(10) 0.4583(3)
O1A O 1.0967(9) 1.0974(10) 0.5417(3)
O1A_2 O 0.0967(9) 1.0974(10) 0.5417(3)
O1C_2 O -0.0967(9) 0.9026(10) 0.4583(3)
O2B O -0.0567(9) 1.1567(11) 0.0712(3)
O2A O 0.9433(9) 1.3433(11) 0.5712(3)
O2C O 0.0567(9) 0.6567(11) 0.4288(3)
O3B O 0.1601(12) 1.1167(13) 0.1663(4)
O4B O 0.5562(10) 1.1165(10) 0.4209(3)
O5B O 0.2725(9) 1.0365(10) 0.4360(3)
O6B O 0.5245(9) 1.2861(10) 0.5380(3)
O6_2 O 0.4755(9) 0.7139(10) 0.4620(3)
O7B O 0.0299(9) 0.7236(11) 0.5728(3)
C1B C 0.0796(13) 1.2732(14) 0.0785(4)
C2B C 0.2135(15) 1.2676(16) 0.1317(5)
H1B H 0.2121 1.3874 0.1521
H2B H 0.3371 1.2461 0.1222
C3B C 0.2291(16) 1.1138(19) 0.2230(5)
C4B C 0.3740(16) 1.2249(17) 0.2470(5)
H3B H 0.4333 1.3084 0.2247
C5B C 0.4287(14) 1.2083(16) 0.3056(5)
H4B H 0.5278 1.2801 0.3223
C6B C 0.3375(15) 1.0848(16) 0.3405(5)
C7B C 0.1962(17) 0.9776(18) 0.3149(5)
H5B H 0.1335 0.8971 0.3372
C8B C 0.1431(17) 0.985(2) 0.2558(6)
H6B H 0.0511 0.9055 0.2386
C9B C 0.3944(14) 1.0768(15) 0.4034(4)
C10B C 0.4496(13) 1.4404(15) 0.5213(4)
H7B H -0.0768 0.7717 0.5702
H8B H 0.0744 0.7207 0.6081
O8B O 0.3057(9) 1.5112(10) 0.5364(3)
O8B_2 O 0.3057(9) 0.5112(10) 0.5364(3)
loop_
_geom_bond_atom_site_label_1
_geom_bond_atom_site_label_2
_geom_bond_site_symmetry_1
_geom_bond_site_symmetry_2
Ho1 O5 1_555 1_555
O1 C1 1_555 1_555
O2 C1 1_555 1_555
O3 C2 1_555 1_555
O4 C9 1_555 1_555
O5 C9 1_555 1_555
O6 C10 1_555 1_555
O7 Ho1 1_555 1_555
C1 C2 1_555 1_555
C2 H1 1_555 1_555
H2 C2 1_555 1_555
C3 O3 1_555 1_555
C4 C3 1_555 1_555
H3 C4 1_555 1_555
C5 C4 1_555 1_555
H4 C5 1_555 1_555
C6 C5 1_555 1_555
C7 C6 1_555 1_555
H5 C7 1_555 1_555
C8 C3 1_555 1_555
H6 C8 1_555 1_555
C9 C6 1_555 1_555
C10 O8 1_555 1_555
H7 O7 1_555 1_555
H8 O7 1_555 1_555
O8 Ho1 1_555 1_555
Ho1B O4 1_555 1_555
Ho1C O1 1_555 1_555
Ho1A O1 1_555 1_555
Ho1B_2 O6 1_555 1_555
Ho1A_2 O1B 1_555 1_555
Ho1C_2 O1B 1_555 1_555
O1B C1B 1_555 1_555
O1C Ho1 1_555 1_555
O1A Ho1 1_555 1_555
O1A_2 Ho1B 1_555 1_555
O1C_2 Ho1B 1_555 1_555
O2B Ho1C_2 1_555 1_555
O2A Ho1 1_555 1_555
O2C Ho1B 1_555 1_555
O3B C2B 1_555 1_555
O4B Ho1 1_555 1_555
O5B Ho1B 1_555 1_555
O6B Ho1 1_555 1_555
O6_2 Ho1B 1_555 1_555
O7B Ho1B 1_555 1_555
C1B O2B 1_555 1_555
C2B C1B 1_555 1_555
H1B C2B 1_555 1_555
H2B C2B 1_555 1_555
C3B O3B 1_555 1_555
C4B C3B 1_555 1_555
H3B C4B 1_555 1_555
C5B C4B 1_555 1_555
H4B C5B 1_555 1_555
C6B C5B 1_555 1_555
C7B C6B 1_555 1_555
H5B C7B 1_555 1_555
C8B C3B 1_555 1_555
H6B C8B 1_555 1_555
C9B O4B 1_555 1_555
C10B C10 1_555 1_555
H7B O7B 1_555 1_555
H8B O7B 1_555 1_555
O8B Ho1B_2 1_555 1_555
O8B_2 Ho1B 1_555 1_555
O2 Ho1A 1_555 1_555
C7 C8 1_555 1_555
O5B C9B 1_555 1_555
O6B C10B 1_555 1_555
C6B C9B 1_555 1_555
C7B C8B 1_555 1_555
C10B O8B 1_555 1_555

#END
