
#######################################################################
#
#                 Cambridge Crystallographic Data Centre
#                                CCDC 
#
#######################################################################
#
# If this CIF has been generated from an entry in the Cambridge 
# Structural Database, then it will include bibliographic, chemical, 
# crystal, experimental, refinement or atomic coordinate data resulting 
# from the CCDC's data processing and validation procedures.
#
#######################################################################

data_PEHXAD
_symmetry_cell_setting           triclinic
_symmetry_space_group_name_H-M   'P -1'
_symmetry_Int_Tables_number      2
_space_group_name_Hall           '-P 1'
loop_
_symmetry_equiv_pos_site_id
_symmetry_equiv_pos_as_xyz
1 x,y,z
2 -x,-y,-z
_cell_length_a                   7.7172(6)
_cell_length_b                   16.6793(13)
_cell_length_c                   21.1778(18)
_cell_angle_alpha                92.602(7)
_cell_angle_beta                 91.406(6)
_cell_angle_gamma                90.705(6)
_cell_volume                     2722.08
loop_
_atom_site_label
_atom_site_type_symbol
_atom_site_fract_x
_atom_site_fract_y
_atom_site_fract_z
Dy1 Dy 0.92065(17) 0.38428(8) 0.00106(6)
Dy2 Dy 0.42236(17) 0.11612(8) 0.00822(6)
Dy3 Dy 0.44598(17) 0.19172(8) 0.54098(6)
Dy4 Dy 0.94799(18) 0.27146(8) 0.53706(7)
O1 O 0.663(2) 0.3521(10) 0.0479(10)
O2 O 1.002(3) 0.2587(9) 0.0311(9)
O3 O 0.802(3) 0.2914(12) -0.0757(9)
H1 H 0.7213 0.2631 -0.0595
H2 H 0.7576 0.3167 -0.1068
O4 O 1.191(2) 0.3615(10) -0.0489(8)
O5 O 1.193(2) 0.4888(12) -0.0255(9)
O6 O 1.059(2) 0.4255(12) 0.0976(8)
O7 O 1.134(2) 0.5552(10) 0.0958(8)
O8 O 1.482(3) 0.3664(11) -0.1150(9)
O9 O 1.025(2) 0.3335(11) -0.3643(7)
O10 O 1.134(2) 0.3827(10) 0.5159(8)
H3 H 1.2046 0.3685 0.4874
H4 H 1.0726 0.4213 0.5031
O11 O 1.178(2) 0.2297(11) 0.4661(9)
O12 O -0.041(2) 0.1238(11) -0.4567(10)
O13 O 0.842(3) 0.3281(13) 0.4360(10)
O14 O 0.678(2) 0.2330(12) 0.4737(8)
O15 O 0.620(3) 0.3535(12) 0.3435(9)
O16 O 1.250(2) 0.6203(12) 0.4406(8)
O17 O 1.533(2) 0.6610(11) 0.4540(8)
O18 O 1.335(3) 0.4859(11) 0.3788(8)
O19 O 1.373(2) 0.1417(12) 0.4392(9)
O20 O 1.058(3) 0.1450(12) 0.1658(9)
O21 O 0.724(2) 0.2267(11) -0.3891(9)
O22 O 0.532(3) 0.1335(11) -0.3652(8)
O23 O 1.221(2) 0.2422(11) -0.3933(9)
O24 O 0.631(2) 0.0753(10) 0.5137(10)
H5 H 0.6059 0.0366 0.5371
H6 H 0.6129 0.0604 0.4750
O25 O 0.979(2) 0.1319(10) -0.1120(8)
O26 O 0.695(2) 0.1432(12) -0.0401(9)
O27 O 0.686(2) 0.0135(10) -0.0240(8)
O28 O 0.320(3) 0.2068(10) -0.0671(8)
H7 H 0.2530 0.1819 -0.0953
H8 H 0.2616 0.2448 -0.0485
O29 O 1.150(2) 0.1463(10) 0.0480(9)
O30 O 0.492(2) 0.2407(11) 0.0525(8)
O31 O 0.361(2) 0.0511(11) -0.0917(9)
O32 O 0.425(3) -0.0776(13) -0.1012(9)
O33 O 0.152(2) -0.0381(11) -0.3793(8)
O34 O 0.241(2) 0.0885(12) -0.4446(11)
C1 C 1.263(3) 0.4255(14) -0.0492(11)
C2 C 1.452(4) 0.4368(18) -0.0792(14)
H9 H 1.4538 0.4828 -0.1056
H10 H 1.5402 0.4449 -0.0459
C3 C 1.402(3) 0.3527(15) -0.1710(14)
C4 C 1.284(3) 0.4064(16) -0.1966(12)
H11 H 1.2576 0.4542 -0.1748
C5 C 1.206(4) 0.3855(19) -0.2577(16)
H12 H 1.1223 0.4188 -0.2743
C6 C 1.253(3) 0.3166(17) -0.2923(13)
C7 C 1.369(4) 0.2625(17) -0.2639(11)
H13 H 1.3948 0.2141 -0.2849
C8 C 1.442(4) 0.2821(19) -0.2052(14)
H14 H 1.5209 0.2471 -0.1877
C9 C 1.169(4) 0.3004(18) -0.3530(13)
C10 C 0.710(3) 0.2879(14) 0.4352(12)
C11 C 0.565(5) 0.295(2) 0.3853(17)
H15 H 0.5439 0.2441 0.3625
H16 H 0.4581 0.3119 0.4051
C12 C 0.590(4) 0.3338(19) 0.2749(15)
C13 C 0.484(3) 0.2796(16) 0.2507(14)
H17 H 0.4149 0.2476 0.2750
C14 C 0.482(4) 0.2739(19) 0.1869(13)
H18 H 0.4060 0.2357 0.1681
C15 C 0.574(3) 0.3152(15) 0.1482(12)
C16 C 0.690(3) 0.3729(18) 0.1755(15)
H19 H 0.7607 0.4042 0.1512
C17 C 0.694(3) 0.3802(16) 0.2418(13)
H20 H 0.7687 0.4172 0.2628
C18 C 1.420(4) 0.616(2) 0.4364(15)
C19 C 1.470(4) 0.5345(19) 0.4029(13)
H21 H 1.5458 0.5458 0.3684
H22 H 1.5364 0.5042 0.4329
C20 C 1.279(4) 0.4905(17) 0.3169(15)
C21 C 1.293(4) 0.5599(16) 0.2838(14)
H23 H 1.3406 0.6061 0.3038
C22 C 1.238(4) 0.5610(16) 0.2216(14)
H24 H 1.2428 0.6082 0.1999
C23 C 1.174(3) 0.4912(16) 0.1921(12)
C24 C 1.151(4) 0.4231(18) 0.2271(16)
H25 H 1.0966 0.3772 0.2092
C25 C 1.212(3) 0.4255(17) 0.2887(13)
H26 H 1.2049 0.3791 0.3113
C26 C 1.118(3) 0.4866(19) 0.1200(14)
C27 C 0.572(4) 0.3023(19) 0.0781(12)
C28 C 0.759(3) 0.0774(15) -0.0466(11)
C29 C 0.933(3) 0.0645(16) -0.0786(14)
H27 H 1.0223 0.0549 -0.0468
H28 H 0.9250 0.0176 -0.1074
C30 C 0.895(3) 0.1418(15) -0.1678(12)
C31 C 0.761(4) 0.0912(17) -0.1936(12)
H29 H 0.7191 0.0494 -0.1705
C32 C 0.693(3) 0.1034(15) -0.2517(11)
H30 H 0.6069 0.0686 -0.2681
C33 C 0.747(4) 0.1652(18) -0.2876(13)
C34 C 0.875(3) 0.2193(16) -0.2629(11)
H31 H 0.9122 0.2624 -0.2857
C35 C 0.944(3) 0.2064(16) -0.2035(12)
H32 H 1.0268 0.2426 -0.1864
C36 C 0.665(4) 0.1742(15) -0.3515(14)
C37 C 1.244(4) 0.1813(17) 0.4261(12)
C38 C 1.169(4) 0.1730(16) 0.3571(13)
C39 C 1.058(4) 0.2249(15) 0.3325(12)
H33 H 1.0087 0.2639 0.3588
C40 C 1.016(3) 0.2212(18) 0.2668(15)
H34 H 0.9436 0.2583 0.2483
C41 C 1.088(3) 0.1587(18) 0.2327(13)
C42 C 1.199(3) 0.1027(15) 0.2559(14)
H35 H 1.2441 0.0616 0.2304
C43 C 1.238(4) 0.1119(19) 0.3204(14)
H36 H 1.3124 0.0759 0.3390
C44 C 0.982(4) 0.2052(16) 0.1326(13)
H37 H 1.0092 0.2570 0.1535
H38 H 0.8574 0.1978 0.1311
C45 C 0.021(3) 0.0116(19) -0.4008(12)
H39 H -0.0452 0.0303 -0.3647
H40 H -0.0574 -0.0204 -0.4286
C46 C 0.081(4) 0.086(2) -0.4365(12)
C47 C 0.207(4) -0.0271(19) -0.3169(13)
C48 C 0.298(4) -0.0902(15) -0.2933(12)
H41 H 0.3235 -0.1348 -0.3191
C49 C 0.350(4) -0.0859(18) -0.2305(14)
H42 H 0.4023 -0.1302 -0.2134
C50 C 0.325(3) -0.0156(15) -0.1908(14)
C51 C 0.247(4) 0.0488(19) -0.2181(14)
H43 H 0.2328 0.0960 -0.1938
C52 C 0.187(3) 0.0455(17) -0.2814(13)
H44 H 0.1362 0.0897 -0.2992
C53 C 0.371(3) -0.0145(16) -0.1247(13)
C54 C 1.053(3) 0.2023(17) 0.0643(12)
Dy1A Dy 0.07935(17) -0.38428(8) -0.00106(6)
Dy1_2 Dy -0.07935(17) -0.61572(8) 0.00106(6)
Dy1A_2 Dy 1.07935(17) 0.61572(8) -0.00106(6)
Dy2A Dy 0.57764(17) -0.11612(8) -0.00822(6)
Dy2_2 Dy 1.42236(17) 0.11612(8) 0.00822(6)
Dy2A_2 Dy -0.42236(17) -0.11612(8) -0.00822(6)
Dy3A Dy 0.55402(17) -0.19172(8) -0.54098(6)
Dy3_2 Dy -0.55402(17) -0.80828(8) -0.45902(6)
Dy3_3 Dy 0.44598(17) 0.19172(8) -0.45902(6)
Dy3_4 Dy 1.44598(17) 0.19172(8) -0.45902(6)
Dy3_5 Dy 1.44598(17) 0.19172(8) 0.54098(6)
Dy3A_2 Dy -0.44598(17) -0.19172(8) -0.54098(6)
Dy3A_3 Dy -0.44598(17) -0.19172(8) 0.45902(6)
Dy3A_4 Dy 0.55402(17) -0.19172(8) 0.45902(6)
Dy3A_5 Dy 1.55402(17) 0.80828(8) 0.45902(6)
Dy4A Dy 0.05201(18) -0.27146(8) -0.53706(7)
Dy4_2 Dy -0.05201(18) -0.72854(8) -0.46294(7)
Dy4_3 Dy -0.05201(18) 0.27146(8) -0.46294(7)
Dy4_4 Dy 0.94799(18) 0.27146(8) -0.46294(7)
Dy4A_2 Dy 0.05201(18) -0.27146(8) 0.46294(7)
Dy4A_3 Dy 1.05201(18) -0.27146(8) 0.46294(7)
Dy4A_4 Dy 1.05201(18) 0.72854(8) 0.46294(7)
O1A O 0.337(2) -0.3521(10) -0.0479(10)
O2A O -0.002(3) -0.2587(9) -0.0311(9)
O3A O 0.198(3) -0.2914(12) 0.0757(9)
H1A H 0.2787 -0.2631 0.0595
H2A H 0.2424 -0.3167 0.1068
O4A O -0.191(2) -0.3615(10) 0.0489(8)
O5A O -0.193(2) -0.4888(12) 0.0255(9)
O5_2 O 0.193(2) -0.5112(12) -0.0255(9)
O5A_2 O 0.807(2) 0.5112(12) 0.0255(9)
O6A O -0.059(2) -0.4255(12) -0.0976(8)
O7A O -0.134(2) -0.5552(10) -0.0958(8)
O7_2 O 0.134(2) -0.4448(10) 0.0958(8)
O7A_2 O 0.866(2) 0.4448(10) -0.0958(8)
O8A O -0.482(3) -0.3664(11) 0.1150(9)
O9A O -0.025(2) -0.3335(11) 0.3643(7)
O9_2 O 1.025(2) 0.3335(11) 0.6357(7)
O9A_2 O -0.025(2) -0.3335(11) -0.6357(7)
O10A O -0.134(2) -0.3827(10) -0.5159(8)
H3A H -0.2046 -0.3685 -0.4874
H4A H -0.0726 -0.4213 -0.5031
O11A O -0.178(2) -0.2297(11) -0.4661(9)
O11_2 O 0.178(2) 0.2297(11) 0.4661(9)
O11A_2 O 0.822(2) -0.2297(11) -0.4661(9)
O12A O 1.041(2) -0.1238(11) 0.4567(10)
O12_2 O 0.959(2) 0.1238(11) 0.5433(10)
O12A_2 O 0.041(2) -0.1238(11) -0.5433(10)
O13A O 0.158(3) -0.3281(13) -0.4360(10)
O14A O 0.322(2) -0.2330(12) -0.4737(8)
O15A O 0.380(3) -0.3535(12) -0.3435(9)
O16A O -0.250(2) -0.6203(12) -0.4406(8)
O16_2 O 0.250(2) -0.3797(12) -0.5594(8)
O16A_2 O 0.750(2) 0.3797(12) 0.5594(8)
O17A O -0.533(2) -0.6610(11) -0.4540(8)
O17_2 O 0.533(2) -0.3390(11) -0.5460(8)
O17A_2 O 0.467(2) 0.3390(11) 0.5460(8)
O18A O -0.335(3) -0.4859(11) -0.3788(8)
O19A O -0.373(2) -0.1417(12) -0.4392(9)
O19_2 O 0.373(2) 0.1417(12) 0.4392(9)
O19A_2 O 0.627(2) -0.1417(12) -0.4392(9)
O20A O -0.058(3) -0.1450(12) -0.1658(9)
O21A O 0.276(2) -0.2267(11) 0.3891(9)
O21_2 O 0.724(2) 0.2267(11) 0.6109(9)
O21A_2 O 0.276(2) -0.2267(11) -0.6109(9)
O22A O 0.468(3) -0.1335(11) 0.3652(8)
O22_2 O 0.532(3) 0.1335(11) 0.6348(8)
O22A_2 O 0.468(3) -0.1335(11) -0.6348(8)
O23A O -0.221(2) -0.2422(11) 0.3933(9)
O23_2 O 0.221(2) 0.2422(11) 0.6067(9)
O23_3 O 1.221(2) 0.2422(11) 0.6067(9)
O23A_2 O -0.221(2) -0.2422(11) -0.6067(9)
O23A_3 O 0.779(2) -0.2422(11) -0.6067(9)
O24A O 0.369(2) -0.0753(10) -0.5137(10)
H5A H 0.3941 -0.0366 -0.5371
H6A H 0.3871 -0.0604 -0.4750
O25A O 0.021(2) -0.1319(10) 0.1120(8)
O26A O 0.305(2) -0.1432(12) 0.0401(9)
O27A O 0.314(2) -0.0135(10) 0.0240(8)
O28A O 0.680(3) -0.2068(10) 0.0671(8)
H7A H 0.7470 -0.1819 0.0953
H8A H 0.7384 -0.2448 0.0485
O29A O -0.150(2) -0.1463(10) -0.0480(9)
O29_2 O 0.150(2) 0.1463(10) 0.0480(9)
O29A_2 O 0.850(2) -0.1463(10) -0.0480(9)
O30A O 0.508(2) -0.2407(11) -0.0525(8)
O31A O 0.639(2) -0.0511(11) 0.0917(9)
O32A O 0.575(3) 0.0776(13) 0.1012(9)
O33A O 0.848(2) 0.0381(11) 0.3793(8)
O34A O 0.759(2) -0.0885(12) 0.4446(11)
O34_2 O 0.241(2) 0.0885(12) 0.5554(11)
O34A_2 O 0.759(2) -0.0885(12) -0.5554(11)
C1A C -0.263(3) -0.4255(14) 0.0492(11)
C2A C -0.452(4) -0.4368(18) 0.0792(14)
H9A H -0.4538 -0.4828 0.1056
H10A H -0.5402 -0.4449 0.0459
C3A C -0.402(3) -0.3527(15) 0.1710(14)
C4A C -0.284(3) -0.4064(16) 0.1966(12)
H11A H -0.2576 -0.4542 0.1748
C5A C -0.206(4) -0.3855(19) 0.2577(16)
H12A H -0.1223 -0.4188 0.2743
C6A C -0.253(3) -0.3166(17) 0.2923(13)
C7A C -0.369(4) -0.2625(17) 0.2639(11)
H13A H -0.3948 -0.2141 0.2849
C8A C -0.442(4) -0.2821(19) 0.2052(14)
H14A H -0.5209 -0.2471 0.1877
C9A C -0.169(4) -0.3004(18) 0.3530(13)
C9_2 C 1.169(4) 0.3004(18) 0.6470(13)
C9A_2 C -0.169(4) -0.3004(18) -0.6470(13)
C10A C 0.290(3) -0.2879(14) -0.4352(12)
C11A C 0.435(5) -0.295(2) -0.3853(17)
H15A H 0.4561 -0.2441 -0.3625
H16A H 0.5419 -0.3119 -0.4051
C12A C 0.410(4) -0.3338(19) -0.2749(15)
C13A C 0.516(3) -0.2796(16) -0.2507(14)
H17A H 0.5851 -0.2476 -0.2750
C14A C 0.518(4) -0.2739(19) -0.1869(13)
H18A H 0.5940 -0.2357 -0.1681
C15A C 0.426(3) -0.3152(15) -0.1482(12)
C16A C 0.310(3) -0.3729(18) -0.1755(15)
H19A H 0.2393 -0.4042 -0.1512
C17A C 0.306(3) -0.3802(16) -0.2418(13)
H20A H 0.2313 -0.4172 -0.2628
C18A C -0.420(4) -0.616(2) -0.4364(15)
C19A C -0.470(4) -0.5345(19) -0.4029(13)
H21A H -0.5458 -0.5458 -0.3684
H22A H -0.5364 -0.5042 -0.4329
C20A C -0.279(4) -0.4905(17) -0.3169(15)
C21A C -0.293(4) -0.5599(16) -0.2838(14)
H23A H -0.3406 -0.6061 -0.3038
C22A C -0.238(4) -0.5610(16) -0.2216(14)
H24A H -0.2428 -0.6082 -0.1999
C23A C -0.174(3) -0.4912(16) -0.1921(12)
C24A C -0.151(4) -0.4231(18) -0.2271(16)
H25A H -0.0966 -0.3772 -0.2092
C25A C -0.212(3) -0.4255(17) -0.2887(13)
H26A H -0.2049 -0.3791 -0.3113
C26A C -0.118(3) -0.4866(19) -0.1200(14)
C27A C 0.428(4) -0.3023(19) -0.0781(12)
C28A C 0.241(3) -0.0774(15) 0.0466(11)
C29A C 0.067(3) -0.0645(16) 0.0786(14)
H27A H -0.0223 -0.0549 0.0468
H28A H 0.0750 -0.0176 0.1074
C30A C 0.105(3) -0.1418(15) 0.1678(12)
C31A C 0.239(4) -0.0912(17) 0.1936(12)
H29A H 0.2809 -0.0494 0.1705
C32A C 0.307(3) -0.1034(15) 0.2517(11)
H30A H 0.3931 -0.0686 0.2681
C33A C 0.253(4) -0.1652(18) 0.2876(13)
C34A C 0.125(3) -0.2193(16) 0.2629(11)
H31A H 0.0878 -0.2624 0.2857
C35A C 0.056(3) -0.2064(16) 0.2035(12)
H32A H -0.0268 -0.2426 0.1864
C36A C 0.335(4) -0.1742(15) 0.3515(14)
C36_2 C 0.665(4) 0.1742(15) 0.6485(14)
C36A_2 C 0.335(4) -0.1742(15) -0.6485(14)
C37A C -0.244(4) -0.1813(17) -0.4261(12)
C37_2 C 0.244(4) 0.1813(17) 0.4261(12)
C37A_2 C 0.756(4) -0.1813(17) -0.4261(12)
C38A C -0.169(4) -0.1730(16) -0.3571(13)
C39A C -0.058(4) -0.2249(15) -0.3325(12)
H33A H -0.0087 -0.2639 -0.3588
C40A C -0.016(3) -0.2212(18) -0.2668(15)
H34A H 0.0564 -0.2583 -0.2483
C41A C -0.088(3) -0.1587(18) -0.2327(13)
C42A C -0.199(3) -0.1027(15) -0.2559(14)
H35A H -0.2441 -0.0616 -0.2304
C43A C -0.238(4) -0.1119(19) -0.3204(14)
H36A H -0.3124 -0.0759 -0.3390
C44A C 0.018(4) -0.2052(16) -0.1326(13)
H37A H -0.0092 -0.2570 -0.1535
H38A H 0.1426 -0.1978 -0.1311
C45A C 0.979(3) -0.0116(19) 0.4008(12)
H39A H 1.0452 -0.0303 0.3647
H40A H 1.0574 0.0204 0.4286
C46A C 0.919(4) -0.086(2) 0.4365(12)
C47A C 0.793(4) 0.0271(19) 0.3169(13)
C48A C 0.702(4) 0.0902(15) 0.2933(12)
H41A H 0.6765 0.1348 0.3191
C49A C 0.650(4) 0.0859(18) 0.2305(14)
H42A H 0.5977 0.1302 0.2134
C50A C 0.675(3) 0.0156(15) 0.1908(14)
C51A C 0.753(4) -0.0488(19) 0.2181(14)
H43A H 0.7672 -0.0960 0.1938
C52A C 0.813(3) -0.0455(17) 0.2814(13)
H44A H 0.8638 -0.0897 0.2992
C53A C 0.629(3) 0.0145(16) 0.1247(13)
C54A C -0.053(3) -0.2023(17) -0.0643(12)
O35 O 0.941(3) 0.4845(13) 0.4085(10)
H45 H 1.0337 0.4603 0.3991
H46 H 0.9581 0.5349 0.4081
loop_
_geom_bond_atom_site_label_1
_geom_bond_atom_site_label_2
_geom_bond_site_symmetry_1
_geom_bond_site_symmetry_2
Dy1 O1 1_555 1_555
Dy2 O26 1_555 1_555
Dy3 O14 1_555 1_555
Dy4 O10 1_555 1_555
O1 C27 1_555 1_555
O2 Dy1 1_555 1_555
O3 Dy1 1_555 1_555
H1 O3 1_555 1_555
H2 O3 1_555 1_555
O4 Dy1 1_555 1_555
O5 Dy1 1_555 1_555
O6 Dy1 1_555 1_555
O7 C26 1_555 1_555
O8 C2 1_555 1_555
O9 C9 1_555 1_555
O10 H3 1_555 1_555
H4 O10 1_555 1_555
O11 Dy4 1_555 1_555
O12 C46 1_555 1_555
O13 Dy4 1_555 1_555
O14 Dy4 1_555 1_555
O15 C11 1_555 1_555
O16 C18 1_555 1_555
O17 C18 1_555 1_555
O18 C19 1_555 1_555
O19 C37 1_555 1_555
O20 C41 1_555 1_555
O21 C36 1_555 1_555
O22 C36 1_555 1_555
O23 C9 1_555 1_555
O24 Dy3 1_555 1_555
H5 O24 1_555 1_555
H6 O24 1_555 1_555
O25 C29 1_555 1_555
O26 C28 1_555 1_555
O27 Dy2 1_555 1_555
O28 Dy2 1_555 1_555
H7 O28 1_555 1_555
H8 O28 1_555 1_555
O29 C54 1_555 1_555
O30 Dy2 1_555 1_555
O31 Dy2 1_555 1_555
O32 C53 1_555 1_555
O33 C45 1_555 1_555
O34 C46 1_555 1_555
C1 O4 1_555 1_555
C2 C1 1_555 1_555
H9 C2 1_555 1_555
H10 C2 1_555 1_555
C3 O8 1_555 1_555
C4 C3 1_555 1_555
H11 C4 1_555 1_555
C5 C4 1_555 1_555
H12 C5 1_555 1_555
C6 C5 1_555 1_555
C7 C6 1_555 1_555
H13 C7 1_555 1_555
C8 C3 1_555 1_555
H14 C8 1_555 1_555
C9 C6 1_555 1_555
C10 O13 1_555 1_555
C11 C10 1_555 1_555
H15 C11 1_555 1_555
H16 C11 1_555 1_555
C12 O15 1_555 1_555
C13 C12 1_555 1_555
H17 C13 1_555 1_555
C14 C13 1_555 1_555
H18 C14 1_555 1_555
C15 C14 1_555 1_555
C16 C15 1_555 1_555
H19 C16 1_555 1_555
C17 C12 1_555 1_555
H20 C17 1_555 1_555
C18 C19 1_555 1_555
C19 H21 1_555 1_555
H22 C19 1_555 1_555
C20 O18 1_555 1_555
C21 C20 1_555 1_555
H23 C21 1_555 1_555
C22 C21 1_555 1_555
H24 C22 1_555 1_555
C23 C22 1_555 1_555
C24 C23 1_555 1_555
H25 C24 1_555 1_555
C25 C20 1_555 1_555
H26 C25 1_555 1_555
C26 O6 1_555 1_555
C27 O30 1_555 1_555
C28 O27 1_555 1_555
C29 C28 1_555 1_555
H27 C29 1_555 1_555
H28 C29 1_555 1_555
C30 O25 1_555 1_555
C31 C30 1_555 1_555
H29 C31 1_555 1_555
C32 C31 1_555 1_555
H30 C32 1_555 1_555
C33 C32 1_555 1_555
C34 C33 1_555 1_555
H31 C34 1_555 1_555
C35 C30 1_555 1_555
H32 C35 1_555 1_555
C36 C33 1_555 1_555
C37 O11 1_555 1_555
C38 C37 1_555 1_555
C39 C38 1_555 1_555
H33 C39 1_555 1_555
C40 C39 1_555 1_555
H34 C40 1_555 1_555
C41 C40 1_555 1_555
C42 C41 1_555 1_555
H35 C42 1_555 1_555
C43 C38 1_555 1_555
H36 C43 1_555 1_555
C44 O20 1_555 1_555
H37 C44 1_555 1_555
H38 C44 1_555 1_555
C45 H39 1_555 1_555
H40 C45 1_555 1_555
C46 C45 1_555 1_555
C47 O33 1_555 1_555
C48 C47 1_555 1_555
H41 C48 1_555 1_555
C49 C48 1_555 1_555
H42 C49 1_555 1_555
C50 C49 1_555 1_555
C51 C50 1_555 1_555
H43 C51 1_555 1_555
C52 C47 1_555 1_555
H44 C52 1_555 1_555
C53 O31 1_555 1_555
C54 O2 1_555 1_555
O35 H45 1_555 1_555
H46 O35 1_555 1_555
Dy1A O1A 1_555 1_555
Dy1_2 O5A 1_555 1_555
Dy1A_2 O5 1_555 1_555
Dy2A O27 1_555 1_555
Dy2_2 O29 1_555 1_555
Dy2A_2 O29A 1_555 1_555
Dy3A O11A_2 1_555 1_555
Dy3_2 O17A 1_555 1_555
Dy3_3 O21 1_555 1_555
Dy3_4 O23 1_555 1_555
Dy3_5 O11 1_555 1_555
Dy3A_2 O11A 1_555 1_555
Dy3A_3 O23A 1_555 1_555
Dy3A_4 O21A 1_555 1_555
Dy3A_5 O17 1_555 1_555
Dy4A O9A_2 1_555 1_555
Dy4_2 O16A 1_555 1_555
Dy4_3 O12 1_555 1_555
Dy4_4 O9 1_555 1_555
Dy4A_2 O9A 1_555 1_555
Dy4A_3 O12A 1_555 1_555
Dy4A_4 O16 1_555 1_555
O1A C27A 1_555 1_555
O2A Dy1A 1_555 1_555
O3A Dy1A 1_555 1_555
H1A O3A 1_555 1_555
H2A O3A 1_555 1_555
O4A Dy1A 1_555 1_555
O5A Dy1A 1_555 1_555
O5_2 Dy1A 1_555 1_555
O5A_2 Dy1 1_555 1_555
O6A Dy1A 1_555 1_555
O7A Dy1_2 1_555 1_555
O7_2 Dy1A 1_555 1_555
O7A_2 Dy1 1_555 1_555
O8A C2A 1_555 1_555
O9A C9A 1_555 1_555
O9_2 Dy4 1_555 1_555
O9A_2 C9A_2 1_555 1_555
O10A Dy4A 1_555 1_555
H3A O10A 1_555 1_555
H4A O10A 1_555 1_555
O11A Dy4A 1_555 1_555
O11_2 Dy3 1_555 1_555
O11A_2 C37A_2 1_555 1_555
O12A C46A 1_555 1_555
O12_2 Dy4 1_555 1_555
O12A_2 Dy4A 1_555 1_555
O13A Dy4A 1_555 1_555
O14A Dy3A 1_555 1_555
O15A C11A 1_555 1_555
O16A C18A 1_555 1_555
O16_2 Dy4A 1_555 1_555
O16A_2 Dy4 1_555 1_555
O17A C18A 1_555 1_555
O17_2 Dy3A 1_555 1_555
O17A_2 Dy3 1_555 1_555
O18A C19A 1_555 1_555
O19A Dy3A_2 1_555 1_555
O19_2 Dy3 1_555 1_555
O19A_2 Dy3A 1_555 1_555
O20A C41A 1_555 1_555
O21A Dy4A_2 1_555 1_555
O21_2 Dy3 1_555 1_555
O21A_2 Dy3A 1_555 1_555
O22A Dy3A_4 1_555 1_555
O22_2 Dy3 1_555 1_555
O22A_2 Dy3A 1_555 1_555
O23A Dy4A_2 1_555 1_555
O23_2 Dy3 1_555 1_555
O23_3 Dy4 1_555 1_555
O23A_2 Dy3A_2 1_555 1_555
O23A_3 Dy3A 1_555 1_555
O24A Dy3A 1_555 1_555
H5A O24A 1_555 1_555
H6A O24A 1_555 1_555
O25A C29A 1_555 1_555
O26A Dy2A 1_555 1_555
O27A Dy2 1_555 1_555
O28A Dy2A 1_555 1_555
H7A O28A 1_555 1_555
H8A O28A 1_555 1_555
O29A C54A 1_555 1_555
O29_2 Dy2 1_555 1_555
O29A_2 Dy2A 1_555 1_555
O30A Dy2A 1_555 1_555
O31A Dy2A 1_555 1_555
O32A Dy2 1_555 1_555
O33A C45A 1_555 1_555
O34A Dy3A_4 1_555 1_555
O34_2 Dy3 1_555 1_555
O34A_2 Dy3A 1_555 1_555
C1A O4A 1_555 1_555
C2A C1A 1_555 1_555
H9A C2A 1_555 1_555
H10A C2A 1_555 1_555
C3A O8A 1_555 1_555
C4A C3A 1_555 1_555
H11A C4A 1_555 1_555
C5A C4A 1_555 1_555
H12A C5A 1_555 1_555
C6A C5A 1_555 1_555
C7A C6A 1_555 1_555
H13A C7A 1_555 1_555
C8A C3A 1_555 1_555
H14A C8A 1_555 1_555
C9A O23A 1_555 1_555
C9_2 O9_2 1_555 1_555
C9A_2 O23A_2 1_555 1_555
C10A O13A 1_555 1_555
C11A C10A 1_555 1_555
H15A C11A 1_555 1_555
H16A C11A 1_555 1_555
C12A O15A 1_555 1_555
C13A C12A 1_555 1_555
H17A C13A 1_555 1_555
C14A C13A 1_555 1_555
H18A C14A 1_555 1_555
C15A C14A 1_555 1_555
C16A C15A 1_555 1_555
H19A C16A 1_555 1_555
C17A C12A 1_555 1_555
H20A C17A 1_555 1_555
C18A C19A 1_555 1_555
C19A H21A 1_555 1_555
H22A C19A 1_555 1_555
C20A O18A 1_555 1_555
C21A C20A 1_555 1_555
H23A C21A 1_555 1_555
C22A C21A 1_555 1_555
H24A C22A 1_555 1_555
C23A C22A 1_555 1_555
C24A C23A 1_555 1_555
H25A C24A 1_555 1_555
C25A C20A 1_555 1_555
H26A C25A 1_555 1_555
C26A O6A 1_555 1_555
C27A O30A 1_555 1_555
C28A O26A 1_555 1_555
C29A C28A 1_555 1_555
H27A C29A 1_555 1_555
H28A C29A 1_555 1_555
C30A O25A 1_555 1_555
C31A C30A 1_555 1_555
H29A C31A 1_555 1_555
C32A C31A 1_555 1_555
H30A C32A 1_555 1_555
C33A C32A 1_555 1_555
C34A C33A 1_555 1_555
H31A C34A 1_555 1_555
C35A C30A 1_555 1_555
H32A C35A 1_555 1_555
C36A O21A 1_555 1_555
C36_2 O21_2 1_555 1_555
C36A_2 O21A_2 1_555 1_555
C37A O11A 1_555 1_555
C37_2 O11_2 1_555 1_555
C37A_2 O19A_2 1_555 1_555
C38A C37A 1_555 1_555
C39A C38A 1_555 1_555
H33A C39A 1_555 1_555
C40A C39A 1_555 1_555
H34A C40A 1_555 1_555
C41A C40A 1_555 1_555
C42A C41A 1_555 1_555
H35A C42A 1_555 1_555
C43A C38A 1_555 1_555
H36A C43A 1_555 1_555
C44A O20A 1_555 1_555
H37A C44A 1_555 1_555
H38A C44A 1_555 1_555
C45A H39A 1_555 1_555
H40A C45A 1_555 1_555
C46A O34A 1_555 1_555
C47A O33A 1_555 1_555
C48A C47A 1_555 1_555
H41A C48A 1_555 1_555
C49A C48A 1_555 1_555
H42A C49A 1_555 1_555
C50A C49A 1_555 1_555
C51A C50A 1_555 1_555
H43A C51A 1_555 1_555
C52A C47A 1_555 1_555
H44A C52A 1_555 1_555
C53A O31A 1_555 1_555
C54A O2A 1_555 1_555
Dy4 O21_2 1_555 1_555
O5 C1 1_555 1_555
O7 Dy1A_2 1_555 1_555
O14 C10 1_555 1_555
O19 Dy3_5 1_555 1_555
O21 Dy4_4 1_555 1_555
O22 Dy3_3 1_555 1_555
O23 Dy4_4 1_555 1_555
O32 Dy2A 1_555 1_555
O34 Dy3_3 1_555 1_555
C7 C8 1_555 1_555
C15 C27 1_555 1_555
C16 C17 1_555 1_555
C23 C26 1_555 1_555
C24 C25 1_555 1_555
C34 C35 1_555 1_555
C42 C43 1_555 1_555
C44 C54 1_555 1_555
C50 C53 1_555 1_555
C51 C52 1_555 1_555
Dy1_2 O5_2 1_555 1_555
Dy1A_2 O5A_2 1_555 1_555
Dy2A O27A 1_555 1_555
Dy3_5 O23_3 1_555 1_555
Dy4A O14A 1_555 1_555
Dy4A O21A_2 1_555 1_555
Dy4A O23A_2 1_555 1_555
O5A C1A 1_555 1_555
O7A C26A 1_555 1_555
O14A C10A 1_555 1_555
O19A C37A 1_555 1_555
O19_2 C37_2 1_555 1_555
O22A C36A 1_555 1_555
O22_2 C36_2 1_555 1_555
O22A_2 C36A_2 1_555 1_555
O23_3 C9_2 1_555 1_555
O27A C28A 1_555 1_555
O32A C53A 1_555 1_555
C6A C9A 1_555 1_555
C7A C8A 1_555 1_555
C15A C27A 1_555 1_555
C16A C17A 1_555 1_555
C23A C26A 1_555 1_555
C24A C25A 1_555 1_555
C33A C36A 1_555 1_555
C34A C35A 1_555 1_555
C42A C43A 1_555 1_555
C44A C54A 1_555 1_555
C45A C46A 1_555 1_555
C50A C53A 1_555 1_555
C51A C52A 1_555 1_555

#END
