
#######################################################################
#
#                 Cambridge Crystallographic Data Centre
#                                CCDC 
#
#######################################################################
#
# If this CIF has been generated from an entry in the Cambridge 
# Structural Database, then it will include bibliographic, chemical, 
# crystal, experimental, refinement or atomic coordinate data resulting 
# from the CCDC's data processing and validation procedures.
#
#######################################################################

data_PEHYAE
_symmetry_cell_setting           orthorhombic
_symmetry_space_group_name_H-M   'P 21 21 21'
_symmetry_Int_Tables_number      19
_space_group_name_Hall           'P 2ac 2ab'
loop_
_symmetry_equiv_pos_site_id
_symmetry_equiv_pos_as_xyz
1 x,y,z
2 1/2-x,-y,1/2+z
3 -x,1/2+y,1/2-z
4 1/2+x,1/2-y,-z
_cell_length_a                   10.9574(11)
_cell_length_b                   21.610(2)
_cell_length_c                   24.121(3)
_cell_angle_alpha                90
_cell_angle_beta                 90
_cell_angle_gamma                90
_cell_volume                     5711.6
loop_
_atom_site_label
_atom_site_type_symbol
_atom_site_fract_x
_atom_site_fract_y
_atom_site_fract_z
O20 O 0.4625(18) 0.1715(8) 0.5862(7)
H5 H 0.4509 0.1804 0.5523
H6 H 0.4563 0.1325 0.5901
O21 O 0.4388(17) 0.1944(7) 0.2732(7)
H7 H 0.4285 0.2101 0.2412
H8 H 0.4064 0.1587 0.2736
Gd1 Gd 0.89898(12) 0.49920(6) 0.0866(3)
Gd2 Gd 0.60758(9) 0.49278(4) 0.27548(3)
Gd3 Gd 0.76279(8) 0.52533(4) 0.43201(4)
N1 N 1.0624(18) 0.7559(8) 0.1812(7)
H1 H 1.0569 0.7676 0.1472
N2 N 1.1156(19) 0.7549(8) 0.2714(7)
N3 N 0.3762(17) 0.2487(7) 0.0806(7)
H2 H 0.3488 0.2388 0.0483
N4 N 0.4088(19) 0.2504(8) 0.1711(7)
N5 N 1.3033(16) 0.2545(7) -0.1203(7)
H3 H 1.3198 0.2457 -0.1542
N6 N 1.3033(16) 0.2522(7) -0.0276(7)
N7 N 1.087(2) 0.7934(8) -0.1133(7)
H4 H 1.1088 0.8023 -0.1467
N8 N 1.074(2) 0.7971(9) -0.0215(7)
N9 N 1.1042(16) 0.5534(7) 0.0724(7)
N10 N 1.0413(16) 0.5056(8) 0.1711(6)
N11 N 0.4633(17) 0.4852(9) 0.1911(7)
N12 N 0.4020(18) 0.4353(8) 0.2903(7)
N13 N 1.0205(18) 0.4860(9) 0.4287(9)
O1 O 0.7903(12) 0.5588(6) 0.1493(5)
O2 O 0.6692(14) 0.5759(6) 0.2195(5)
O3 O 0.7947(13) 0.5297(6) 0.3046(5)
O4 O 0.8702(15) 0.5897(7) 0.3693(6)
O5 O 0.8353(14) 0.4165(6) 0.1391(6)
O6 O 0.7320(11) 0.4679(6) 0.2112(5)
O7 O 0.6998(17) 0.3866(7) -0.0098(6)
O8 O 0.7158(13) 0.4642(6) 0.0488(5)
O9 O 1.0134(15) 0.4352(7) -0.1789(6)
O10 O 0.8763(16) 0.4113(7) -0.1136(6)
O11 O 0.9427(15) 0.4673(7) -0.0198(6)
O12 O 1.0134(16) 0.4151(7) 0.0475(6)
O13 O 0.8388(16) 0.6080(7) -0.1847(6)
O14 O 0.8678(15) 0.5394(7) -0.1213(6)
O15 O 0.7431(16) 0.5715(7) -0.0323(6)
O16 O 0.8617(15) 0.5924(7) 0.0395(6)
O17 O 0.9459(16) 0.4628(8) 0.3946(7)
O18 O 0.9783(16) 0.5203(8) 0.4637(7)
O19 O 1.1280(19) 0.4751(12) 0.4238(10)
C1 C 0.765(2) 0.5816(9) 0.1958(8)
C2 C 0.851(2) 0.5783(10) 0.3197(8)
C3 C 0.865(2) 0.6270(9) 0.2216(8)
C4 C 0.893(2) 0.6249(9) 0.2787(8)
C5 C 0.974(2) 0.6671(9) 0.2995(9)
H9 H 0.9913 0.6682 0.3372
C6 C 1.029(2) 0.7085(10) 0.2627(8)
C7 C 1.003(2) 0.7093(10) 0.2052(9)
C8 C 0.916(2) 0.6667(9) 0.1860(8)
H10 H 0.8932 0.6663 0.1489
C9 C 1.131(2) 0.7805(10) 0.2199(8)
H11 H 1.1847 0.8127 0.2130
C10 C 0.7307(19) 0.4111(10) 0.1650(8)
H12 H 0.7582 0.3790 0.1908
C11 C 0.683(2) 0.4075(11) 0.0365(9)
C12 C 0.636(2) 0.3717(9) 0.1372(8)
C13 C 0.617(2) 0.3693(9) 0.0778(8)
C14 C 0.526(2) 0.3287(10) 0.0570(9)
H13 H 0.5096 0.3270 0.0192
C15 C 0.464(2) 0.2924(10) 0.0928(9)
C16 C 0.488(2) 0.2934(10) 0.1499(8)
C17 C 0.572(2) 0.3335(9) 0.1714(9)
H14 H 0.5848 0.3348 0.2094
C18 C 0.343(2) 0.2254(10) 0.1290(9)
H15 H 0.2818 0.1958 0.1336
C19 C 0.984(2) 0.4126(9) -0.1313(8)
C20 C 1.002(2) 0.4176(10) -0.0018(10)
C21 C 1.071(2) 0.3779(9) -0.0992(8)
C22 C 1.077(2) 0.3769(9) -0.0398(8)
C23 C 1.151(2) 0.3397(9) -0.0137(8)
H16 H 1.1544 0.3401 0.0249
C24 C 1.2250(19) 0.2991(9) -0.0440(8)
C25 C 1.226(2) 0.2998(9) -0.1021(8)
C26 C 1.147(2) 0.3401(8) -0.1284(8)
H17 H 1.1460 0.3415 -0.1669
C27 C 1.3480(19) 0.2267(8) -0.0754(8)
H18 H 1.4029 0.1939 -0.0765
C28 C 0.856(2) 0.6011(11) -0.1337(9)
C29 C 0.834(2) 0.6006(10) -0.0074(9)
C30 C 0.901(2) 0.6513(10) -0.0973(8)
C31 C 0.896(2) 0.6504(9) -0.0393(8)
C32 C 0.956(2) 0.6973(10) -0.0092(9)
H19 H 0.9536 0.6978 0.0293
C33 C 1.017(2) 0.7420(10) -0.0379(9)
C34 C 1.015(2) 0.7433(11) -0.0962(10)
C35 C 0.961(2) 0.6998(10) -0.1266(9)
H20 H 0.9623 0.7010 -0.1652
C36 C 1.117(2) 0.8249(10) -0.0661(10)
H21 H 1.1614 0.8614 -0.0654
C37 C 1.145(2) 0.5763(11) 0.0217(9)
H22 H 1.1066 0.5623 -0.0103
C38 C 1.238(3) 0.6177(11) 0.0156(10)
H23 H 1.2727 0.6260 -0.0188
C39 C 1.277(2) 0.6456(11) 0.0616(10)
H24 H 1.3308 0.6787 0.0583
C40 C 1.240(3) 0.6270(10) 0.1149(9)
C41 C 1.156(2) 0.5745(10) 0.1175(9)
C42 C 1.128(2) 0.5511(10) 0.1688(9)
C43 C 1.190(2) 0.5720(10) 0.2184(8)
C44 C 1.158(2) 0.5387(10) 0.2706(9)
H25 H 1.1975 0.5490 0.3034
C45 C 1.075(2) 0.4959(10) 0.2711(9)
H26 H 1.0557 0.4752 0.3037
C46 C 1.0141(19) 0.4810(10) 0.2197(8)
H27 H 0.9512 0.4522 0.2210
C47 C 1.298(2) 0.6464(11) 0.1681(9)
H28 H 1.3503 0.6803 0.1685
C48 C 1.279(2) 0.6193(10) 0.2098(9)
H29 H 1.3265 0.6300 0.2402
C49 C 0.491(2) 0.5133(11) 0.1431(8)
H30 H 0.5526 0.5431 0.1428
C50 C 0.430(2) 0.4985(10) 0.0926(9)
H31 H 0.4457 0.5198 0.0599
C51 C 0.340(2) 0.4485(10) 0.0948(9)
H32 H 0.3059 0.4331 0.0623
C52 C 0.308(2) 0.4251(10) 0.1441(9)
C53 C 0.373(2) 0.4439(10) 0.1932(9)
C54 C 0.343(2) 0.4151(10) 0.2458(9)
C55 C 0.241(3) 0.3705(10) 0.2484(9)
C56 C 0.214(2) 0.3516(11) 0.2996(11)
H33 H 0.1548 0.3215 0.3046
C57 C 0.270(3) 0.3747(11) 0.3430(10)
H34 H 0.2468 0.3612 0.3780
C58 C 0.362(2) 0.4183(11) 0.3390(10)
H35 H 0.3956 0.4355 0.3709
C59 C 0.214(2) 0.3776(11) 0.1503(10)
H36 H 0.1708 0.3651 0.1191
C60 C 0.188(2) 0.3509(11) 0.1998(10)
H37 H 0.1316 0.3185 0.2009
Gd2A Gd 0.89242(9) 0.50722(4) -0.22452(3)
Gd3A Gd 0.73721(8) 0.47467(4) -0.06799(4)
O7A O 0.8002(17) 0.6134(7) 0.4902(6)
O8A O 0.7842(13) 0.5358(6) 0.5488(5)
O9A O 0.4866(15) 0.5648(7) 0.3211(6)
O10A O 0.6237(16) 0.5887(7) 0.3864(6)
O11A O 0.5573(15) 0.5327(7) 0.4802(6)
O13A O 0.6612(16) 0.3920(7) 0.3153(6)
O14A O 0.6322(15) 0.4606(7) 0.3787(6)
O15A O 0.7569(16) 0.4285(7) 0.4677(6)
Gd4? Gd 0.8966(12) 0.5016(6) 0.059(3)
loop_
_geom_bond_atom_site_label_1
_geom_bond_atom_site_label_2
_geom_bond_site_symmetry_1
_geom_bond_site_symmetry_2
Gd1 N9 1_555 1_555
Gd2 N11 1_555 1_555
Gd3 O4 1_555 1_555
N1 H1 1_555 1_555
N2 C6 1_555 1_555
N3 H2 1_555 1_555
N4 C16 1_555 1_555
N5 H3 1_555 1_555
N6 C24 1_555 1_555
N7 H4 1_555 1_555
N8 C33 1_555 1_555
N9 C37 1_555 1_555
N10 Gd1 1_555 1_555
N11 C49 1_555 1_555
N12 Gd2 1_555 1_555
N13 O17 1_555 1_555
O1 Gd1 1_555 1_555
O2 Gd2 1_555 1_555
O3 Gd2 1_555 1_555
O4 C2 1_555 1_555
O5 Gd1 1_555 1_555
O6 Gd2 1_555 1_555
O7 C11 1_555 1_555
O8 Gd1 1_555 1_555
O9 C19 1_555 1_555
O10 C19 1_555 1_555
O11 Gd1 1_555 1_555
O12 Gd1 1_555 1_555
O13 C28 1_555 1_555
O14 C28 1_555 1_555
O15 C29 1_555 1_555
O16 Gd1 1_555 1_555
O17 Gd3 1_555 1_555
O18 Gd3 1_555 1_555
O19 N13 1_555 1_555
O20 H5 1_555 1_555
H6 O20 1_555 1_555
O21 H7 1_555 1_555
H8 O21 1_555 1_555
C1 O1 1_555 1_555
C2 O3 1_555 1_555
C3 C1 1_555 1_555
C4 C2 1_555 1_555
C5 C4 1_555 1_555
H9 C5 1_555 1_555
C6 C5 1_555 1_555
C7 N1 1_555 1_555
C8 C3 1_555 1_555
H10 C8 1_555 1_555
C9 N1 1_555 1_555
H11 C9 1_555 1_555
C10 O5 1_555 1_555
H12 C10 1_555 1_555
C11 O8 1_555 1_555
C12 C10 1_555 1_555
C13 C11 1_555 1_555
C14 C13 1_555 1_555
H13 C14 1_555 1_555
C15 N3 1_555 1_555
C16 C15 1_555 1_555
C17 C12 1_555 1_555
H14 C17 1_555 1_555
C18 N3 1_555 1_555
H15 C18 1_555 1_555
C19 C21 1_555 1_555
C20 O11 1_555 1_555
C21 C22 1_555 1_555
C22 C20 1_555 1_555
C23 C22 1_555 1_555
H16 C23 1_555 1_555
C24 C23 1_555 1_555
C25 N5 1_555 1_555
C26 C21 1_555 1_555
H17 C26 1_555 1_555
C27 N5 1_555 1_555
H18 C27 1_555 1_555
C28 C30 1_555 1_555
C29 O16 1_555 1_555
C30 C31 1_555 1_555
C31 C29 1_555 1_555
C32 C31 1_555 1_555
H19 C32 1_555 1_555
C33 C32 1_555 1_555
C34 N7 1_555 1_555
C35 C30 1_555 1_555
H20 C35 1_555 1_555
C36 N7 1_555 1_555
H21 C36 1_555 1_555
C37 H22 1_555 1_555
C38 C37 1_555 1_555
H23 C38 1_555 1_555
C39 C38 1_555 1_555
H24 C39 1_555 1_555
C40 C39 1_555 1_555
C41 N9 1_555 1_555
C42 N10 1_555 1_555
C43 C42 1_555 1_555
C44 C43 1_555 1_555
H25 C44 1_555 1_555
C45 C44 1_555 1_555
H26 C45 1_555 1_555
C46 N10 1_555 1_555
H27 C46 1_555 1_555
C47 C40 1_555 1_555
H28 C47 1_555 1_555
C48 C43 1_555 1_555
H29 C48 1_555 1_555
C49 H30 1_555 1_555
C50 C49 1_555 1_555
H31 C50 1_555 1_555
C51 C50 1_555 1_555
H32 C51 1_555 1_555
C52 C51 1_555 1_555
C53 N11 1_555 1_555
C54 N12 1_555 1_555
C55 C54 1_555 1_555
C56 C55 1_555 1_555
H33 C56 1_555 1_555
C57 C56 1_555 1_555
H34 C57 1_555 1_555
C58 N12 1_555 1_555
H35 C58 1_555 1_555
C59 C52 1_555 1_555
H36 C59 1_555 1_555
C60 C55 1_555 1_555
H37 C60 1_555 1_555
Gd2A O9 1_555 1_555
Gd3A O7 1_555 1_555
O7A Gd3 1_555 1_555
O8A Gd3 1_555 1_555
O9A Gd2 1_555 1_555
O10A Gd3 1_555 1_555
O11A Gd3 1_555 1_555
O13A Gd2 1_555 1_555
O14A Gd2 1_555 1_555
O15A Gd3 1_555 1_555
Gd3 O14A 1_555 1_555
N2 C9 1_555 1_555
N4 C18 1_555 1_555
N6 C27 1_555 1_555
N8 C36 1_555 1_555
N13 O18 1_555 1_555
O2 C1 1_555 1_555
O6 C10 1_555 1_555
O8 Gd3A 1_555 1_555
O10 Gd3A 1_555 1_555
O11 Gd3A 1_555 1_555
O12 C20 1_555 1_555
O13 Gd2A 1_555 1_555
O14 Gd2A 1_555 1_555
O14 Gd3A 1_555 1_555
O15 Gd3A 1_555 1_555
C3 C4 1_555 1_555
C6 C7 1_555 1_555
C7 C8 1_555 1_555
C12 C13 1_555 1_555
C14 C15 1_555 1_555
C16 C17 1_555 1_555
C24 C25 1_555 1_555
C25 C26 1_555 1_555
C33 C34 1_555 1_555
C34 C35 1_555 1_555
C40 C41 1_555 1_555
C41 C42 1_555 1_555
C45 C46 1_555 1_555
C47 C48 1_555 1_555
C52 C53 1_555 1_555
C53 C54 1_555 1_555
C57 C58 1_555 1_555
C59 C60 1_555 1_555

#END
