
#######################################################################
#
#                 Cambridge Crystallographic Data Centre
#                                CCDC 
#
#######################################################################
#
# If this CIF has been generated from an entry in the Cambridge 
# Structural Database, then it will include bibliographic, chemical, 
# crystal, experimental, refinement or atomic coordinate data resulting 
# from the CCDC's data processing and validation procedures.
#
#######################################################################

data_PEJBUD
_symmetry_cell_setting           triclinic
_symmetry_space_group_name_H-M   'P -1'
_symmetry_Int_Tables_number      2
_space_group_name_Hall           '-P 1'
loop_
_symmetry_equiv_pos_site_id
_symmetry_equiv_pos_as_xyz
1 x,y,z
2 -x,-y,-z
_cell_length_a                   7.5540(5)
_cell_length_b                   9.1794(6)
_cell_length_c                   18.2952(11)
_cell_angle_alpha                87.596(5)
_cell_angle_beta                 84.518(5)
_cell_angle_gamma                76.700(5)
_cell_volume                     1228.68
loop_
_atom_site_label
_atom_site_type_symbol
_atom_site_fract_x
_atom_site_fract_y
_atom_site_fract_z
Zn1 Zn 0.94160(5) 0.15378(5) 0.63188(2)
O1 O 0.7647(3) 0.0238(3) 0.58913(13)
O2 O 1.4104(3) 0.0791(3) 0.63967(14)
O3 O 1.1503(3) 0.2348(3) 0.67877(14)
O4 O 0.9047(4) -0.2022(3) 0.66820(15)
O5 O 0.9875(4) -0.0092(3) 0.71538(15)
O6 O 1.1570(3) 0.0351(3) 0.55731(15)
N1 N 0.8419(4) 0.3357(4) 0.55617(17)
N2 N 0.7428(4) 0.3109(4) 0.70064(17)
N3 N 1.0332(5) -0.4437(4) 0.99547(18)
C1 C 0.9503(6) -0.4355(5) 0.8673(2)
H1 H 0.9125 -0.5250 0.8744
C2 C 0.6670(5) 0.4388(5) 0.6656(2)
C3 C 1.0189(6) -0.3767(5) 0.9236(2)
C4 C 0.9380(6) -0.3612(5) 0.8005(2)
H2 H 0.8943 -0.4020 0.7621
C5 C 1.0595(5) -0.1677(5) 0.8462(2)
H3 H 1.0958 -0.0775 0.8393
C6 C 0.9901(5) -0.2258(4) 0.7897(2)
C7 C 1.4908(5) 0.0017(5) 0.7865(2)
H4 H 1.5651 -0.0563 0.7501
C8 C 1.3450(5) 0.1155(5) 0.7676(2)
C9 C 0.8234(6) 0.4717(6) 0.4415(3)
H5 H 0.8600 0.4739 0.3915
C10 C 1.0751(6) -0.2439(5) 0.9130(2)
H6 H 1.1236 -0.2056 0.9509
C11 C 0.9605(5) -0.1408(4) 0.7184(2)
C12 C 1.4150(6) 0.0604(6) 0.9137(2)
C13 C 0.5408(6) 0.5579(6) 0.7004(3)
C14 C 0.6488(5) 0.5839(5) 0.5490(3)
C15 C 0.7043(6) 0.5911(6) 0.4737(3)
H7 H 0.6601 0.6768 0.4460
N4 N 1.4354(5) 0.0477(5) 0.9937(2)
C16 C 0.7199(5) 0.4535(4) 0.5883(2)
C17 C 1.2359(6) 0.1981(5) 0.8230(2)
H8 H 1.1373 0.2738 0.8111
C18 C 1.3003(5) 0.1464(4) 0.6898(2)
C19 C 0.8893(6) 0.3462(5) 0.4849(2)
H9 H 0.9712 0.2654 0.4626
C20 C 1.5260(6) -0.0258(6) 0.8599(2)
H10 H 1.6236 -0.1018 0.8725
C21 C 0.5226(6) 0.7035(5) 0.5867(4)
H11 H 0.4767 0.7919 0.5614
C22 C 1.2697(7) 0.1713(6) 0.8958(2)
H12 H 1.1943 0.2281 0.9324
C23 C 0.6983(6) 0.2972(6) 0.7718(2)
H13 H 0.7510 0.2099 0.7967
C24 C 0.5728(7) 0.4115(7) 0.8109(3)
H14 H 0.5436 0.3995 0.8610
C25 C 0.4697(6) 0.6894(6) 0.6586(4)
H15 H 0.3846 0.7675 0.6816
C26 C 0.4955(7) 0.5380(7) 0.7754(3)
H16 H 0.4113 0.6129 0.8010
Zn1A Zn 1.05840(5) -1.15378(5) 1.36812(2)
Zn1A_2 Zn 2.05840(5) -0.15378(5) 1.36812(2)
O1A O 1.2353(3) -1.0238(3) 1.41087(13)
O2A O 1.5896(3) -0.0791(3) 1.36033(14)
O3A O 1.8497(3) -0.2348(3) 1.32123(14)
O3A_2 O 0.8497(3) -1.2348(3) 1.32123(14)
O4A O 1.0953(4) -0.7978(3) 1.33180(15)
O5A O 1.0125(4) -0.9908(3) 1.28462(15)
O6A O 0.8430(3) -1.0351(3) 1.44269(15)
N1A N 1.1581(4) -1.3357(4) 1.44383(17)
N2A N 1.2572(4) -1.3109(4) 1.29936(17)
N3A N 0.9668(5) -0.5563(4) 1.00453(18)
C1A C 1.0497(6) -0.5645(5) 1.1327(2)
H1A H 1.0875 -0.4750 1.1256
C2A C 1.3330(5) -1.4388(5) 1.3344(2)
C3A C 0.9811(6) -0.6233(5) 1.0764(2)
C4A C 1.0620(6) -0.6388(5) 1.1995(2)
H2A H 1.1057 -0.5980 1.2379
C5A C 0.9405(5) -0.8323(5) 1.1538(2)
H3A H 0.9042 -0.9225 1.1607
C6A C 1.0099(5) -0.7742(4) 1.2103(2)
C7A C 1.5092(5) -0.0017(5) 1.2135(2)
H4A H 1.4349 0.0563 1.2499
C8A C 1.6550(5) -0.1155(5) 1.2324(2)
C9A C 1.1766(6) -1.4717(6) 1.5585(3)
H5A H 1.1400 -1.4739 1.6085
C10A C 0.9249(6) -0.7561(5) 1.0870(2)
H6A H 0.8764 -0.7944 1.0491
C11A C 1.0395(5) -0.8592(4) 1.2816(2)
C12A C 1.5850(6) -0.0604(6) 1.0863(2)
C13A C 1.4592(6) -1.5579(6) 1.2996(3)
C14A C 1.3512(5) -1.5839(5) 1.4510(3)
C15A C 1.2957(6) -1.5911(6) 1.5263(3)
H7A H 1.3399 -1.6768 1.5540
N4A N 1.5646(5) -0.0477(5) 1.0063(2)
C16A C 1.2801(5) -1.4535(4) 1.4117(2)
C17A C 1.7641(6) -0.1981(5) 1.1770(2)
H8A H 1.8627 -0.2738 1.1889
C18A C 1.6997(5) -0.1464(4) 1.3102(2)
C19A C 1.1107(6) -1.3462(5) 1.5151(2)
H9A H 1.0288 -1.2654 1.5374
C20A C 1.4740(6) 0.0258(6) 1.1401(2)
H10A H 1.3764 0.1018 1.1275
C21A C 1.4774(6) -1.7035(5) 1.4133(4)
H11A H 1.5233 -1.7919 1.4386
C22A C 1.7303(7) -0.1713(6) 1.1042(2)
H12A H 1.8057 -0.2281 1.0676
C23A C 1.3017(6) -1.2972(6) 1.2282(2)
H13A H 1.2490 -1.2099 1.2033
C24A C 1.4272(7) -1.4115(7) 1.1891(3)
H14A H 1.4564 -1.3995 1.1390
C25A C 1.5303(6) -1.6894(6) 1.3414(4)
H15A H 1.6154 -1.7675 1.3184
C26A C 1.5045(7) -1.5380(7) 1.2246(3)
H16A H 1.5887 -1.6129 1.1990
loop_
_geom_bond_atom_site_label_1
_geom_bond_atom_site_label_2
_geom_bond_site_symmetry_1
_geom_bond_site_symmetry_2
Zn1 O1 1_555 1_555
O2 C18 1_555 1_555
O3 Zn1 1_555 1_555
O4 C11 1_555 1_555
O5 Zn1 1_555 1_555
O6 Zn1 1_555 1_555
N1 Zn1 1_555 1_555
N2 Zn1 1_555 1_555
N3 C3 1_555 1_555
C1 H1 1_555 1_555
C2 N2 1_555 1_555
C3 C1 1_555 1_555
C4 C1 1_555 1_555
H2 C4 1_555 1_555
C5 H3 1_555 1_555
C6 C4 1_555 1_555
C7 H4 1_555 1_555
C8 C7 1_555 1_555
C9 H5 1_555 1_555
C10 C3 1_555 1_555
H6 C10 1_555 1_555
C11 O5 1_555 1_555
C12 N4 1_555 1_555
C13 C2 1_555 1_555
C14 C15 1_555 1_555
C15 C9 1_555 1_555
H7 C15 1_555 1_555
N4 N4A 1_555 1_555
C16 N1 1_555 1_555
C17 C8 1_555 1_555
H8 C17 1_555 1_555
C18 O3 1_555 1_555
C19 N1 1_555 1_555
H9 C19 1_555 1_555
C20 C7 1_555 1_555
H10 C20 1_555 1_555
C21 C14 1_555 1_555
H11 C21 1_555 1_555
C22 C12 1_555 1_555
H12 C22 1_555 1_555
C23 N2 1_555 1_555
H13 C23 1_555 1_555
C24 C23 1_555 1_555
H14 C24 1_555 1_555
C25 C13 1_555 1_555
H15 C25 1_555 1_555
C26 C13 1_555 1_555
H16 C26 1_555 1_555
Zn1A O1A 1_555 1_555
Zn1A_2 O3A 1_555 1_555
O2A C18A 1_555 1_555
O3A C18A 1_555 1_555
O3A_2 Zn1A 1_555 1_555
O4A C11A 1_555 1_555
O5A Zn1A 1_555 1_555
O6A Zn1A 1_555 1_555
N1A Zn1A 1_555 1_555
N2A Zn1A 1_555 1_555
N3A N3 1_555 1_555
C1A H1A 1_555 1_555
C2A N2A 1_555 1_555
C3A N3A 1_555 1_555
C4A C1A 1_555 1_555
H2A C4A 1_555 1_555
C5A H3A 1_555 1_555
C6A C4A 1_555 1_555
C7A H4A 1_555 1_555
C8A C7A 1_555 1_555
C9A H5A 1_555 1_555
C10A C3A 1_555 1_555
H6A C10A 1_555 1_555
C11A O5A 1_555 1_555
C12A N4A 1_555 1_555
C13A C2A 1_555 1_555
C14A C15A 1_555 1_555
C15A C9A 1_555 1_555
H7A C15A 1_555 1_555
C16A N1A 1_555 1_555
C17A C8A 1_555 1_555
H8A C17A 1_555 1_555
C18A C8A 1_555 1_555
C19A N1A 1_555 1_555
H9A C19A 1_555 1_555
C20A C7A 1_555 1_555
H10A C20A 1_555 1_555
C21A C14A 1_555 1_555
H11A C21A 1_555 1_555
C22A C12A 1_555 1_555
H12A C22A 1_555 1_555
C23A N2A 1_555 1_555
H13A C23A 1_555 1_555
C24A C23A 1_555 1_555
H14A C24A 1_555 1_555
C25A C13A 1_555 1_555
H15A C25A 1_555 1_555
C26A C13A 1_555 1_555
H16A C26A 1_555 1_555
C2 C16 1_555 1_555
C5 C6 1_555 1_555
C5 C10 1_555 1_555
C6 C11 1_555 1_555
C8 C18 1_555 1_555
C9 C19 1_555 1_555
C12 C20 1_555 1_555
C14 C16 1_555 1_555
C17 C22 1_555 1_555
C21 C25 1_555 1_555
C24 C26 1_555 1_555
C1A C3A 1_555 1_555
C2A C16A 1_555 1_555
C5A C6A 1_555 1_555
C5A C10A 1_555 1_555
C6A C11A 1_555 1_555
C9A C19A 1_555 1_555
C12A C20A 1_555 1_555
C14A C16A 1_555 1_555
C17A C22A 1_555 1_555
C21A C25A 1_555 1_555
C24A C26A 1_555 1_555

#END
