
#######################################################################
#
#                 Cambridge Crystallographic Data Centre
#                                CCDC 
#
#######################################################################
#
# If this CIF has been generated from an entry in the Cambridge 
# Structural Database, then it will include bibliographic, chemical, 
# crystal, experimental, refinement or atomic coordinate data resulting 
# from the CCDC's data processing and validation procedures.
#
#######################################################################

data_PEJCAK
_symmetry_cell_setting           monoclinic
_symmetry_space_group_name_H-M   'C 2/c'
_symmetry_Int_Tables_number      15
_space_group_name_Hall           '-C 2yn'
loop_
_symmetry_equiv_pos_site_id
_symmetry_equiv_pos_as_xyz
1 x,y,z
2 -x,y,1/2-z
3 1/2+x,1/2+y,z
4 1/2-x,1/2+y,1/2-z
5 -x,-y,-z
6 x,-y,1/2+z
7 1/2-x,1/2-y,-z
8 1/2+x,1/2-y,1/2+z
_cell_length_a                   26.4771(11)
_cell_length_b                   19.1903(7)
_cell_length_c                   19.6020(8)
_cell_angle_alpha                90
_cell_angle_beta                 107.784(5)
_cell_angle_gamma                90
_cell_volume                     9483.91
loop_
_atom_site_label
_atom_site_type_symbol
_atom_site_fract_x
_atom_site_fract_y
_atom_site_fract_z
Cd1 Cd 0.15706(2) 0.90470(3) 0.04845(3)
Cd2 Cd -0.38630(2) 0.76066(3) 0.14620(3)
O1 O -0.3032(2) 0.8086(3) 0.1927(3)
O2 O 0.2018(2) 1.0178(3) 0.0956(3)
C1 C -0.4443(5) 0.8447(8) 0.3275(8)
H1 H -0.4518 0.8883 0.3426
O3 O 0.5446(2) 1.2438(3) 0.5444(3)
O4 O 0.2308(2) 0.9153(3) 0.1393(3)
O5 O 0.1040(2) 0.8623(3) 0.1174(3)
O6 O 0.0698(2) 0.9297(3) 0.0255(3)
N1 N 0.1905(2) 0.9225(3) -0.0453(3)
N2 N 0.1666(2) 0.7950(3) 0.0019(3)
N3 N -0.3929(2) 0.6526(3) 0.1941(3)
O7 O 0.5644(3) 1.1388(3) 0.5879(3)
C2 C -0.2369(3) 0.8103(3) 0.1337(4)
N4 N -0.4147(2) 0.7758(4) 0.2444(3)
C3 C -0.1397(3) 0.8478(4) 0.1170(4)
O8 O -0.3206(3) 0.7539(4) 0.0921(4)
C4 C 0.3662(3) 1.0699(4) 0.3053(4)
C5 C 0.3134(3) 0.9712(4) 0.2483(4)
H2 H 0.3069 0.9235 0.2475
C6 C -0.3907(5) 0.5278(5) 0.2030(7)
H3 H -0.3819 0.4855 0.1865
C7 C 0.1951(3) 0.7351(4) -0.0877(4)
C8 C 0.1972(3) 0.8638(4) -0.0811(3)
C9 C -0.1463(3) 0.8455(4) 0.1848(4)
H4 H -0.1179 0.8557 0.2250
C10 C 0.2803(3) 1.0130(4) 0.1938(4)
C11 C 0.4095(3) 1.0983(4) 0.3647(4)
C12 C -0.4239(3) 0.7180(4) 0.2772(4)
C13 C 0.0125(3) 0.8871(4) 0.0874(4)
C14 C 0.3343(4) 1.1108(4) 0.2508(4)
H5 H 0.3414 1.1582 0.2508
C15 C -0.0863(3) 0.8651(4) 0.1093(4)
C16 C -0.4131(3) 0.6524(4) 0.2497(4)
C17 C 0.1646(3) 0.6711(4) -0.0041(5)
H6 H 0.1571 0.6292 0.0145
C18 C 0.1861(3) 0.7964(4) -0.0547(3)
C19 C -0.2904(3) 0.7893(4) 0.1402(5)
C20 C -0.0330(3) 0.9134(4) 0.0401(4)
H7 H -0.0309 0.9386 0.0005
C21 C 0.5372(3) 1.1792(5) 0.5411(4)
C22 C 0.3548(3) 0.9980(4) 0.3025(4)
H8 H 0.3755 0.9686 0.3377
C23 C -0.1831(3) 0.8317(4) 0.0571(4)
H9 H -0.1795 0.8343 0.0114
C24 C 0.2341(3) 0.9799(5) 0.1387(4)
C25 C 0.2254(3) 0.8023(4) -0.1721(4)
H10 H 0.2374 0.8043 -0.2120
C26 C 0.2925(3) 1.0837(4) 0.1964(4)
H11 H 0.2722 1.1132 0.1609
C27 C 0.0652(3) 0.8926(4) 0.0765(4)
C28 C 0.2192(3) 0.8655(4) -0.1376(4)
C29 C 0.1843(3) 0.6716(4) -0.0606(5)
H12 H 0.1905 0.6299 -0.0809
C30 C -0.0826(3) 0.9031(4) 0.0500(4)
H13 H -0.1130 0.9214 0.0174
C31 C 0.4930(3) 1.1518(4) 0.4793(4)
C32 C 0.2146(3) 0.7404(4) -0.1492(4)
H14 H 0.2196 0.7002 -0.1729
C33 C -0.2300(3) 0.8125(4) 0.0653(4)
H15 H -0.2580 0.8006 0.0252
C34 C 0.4264(4) 1.1660(4) 0.3668(5)
H16 H 0.4093 1.1956 0.3292
C35 C -0.4223(4) 0.5908(6) 0.2835(5)
C36 C -0.1954(3) 0.8277(4) 0.1927(4)
H17 H -0.1999 0.8277 0.2380
C37 C -0.0414(3) 0.8391(5) 0.1573(4)
H18 H -0.0439 0.8142 0.1969
C38 C 0.0083(3) 0.8496(4) 0.1478(4)
H19 H 0.0386 0.8319 0.1810
C39 C -0.4434(3) 0.7187(6) 0.3371(4)
C40 C 0.1558(3) 0.7348(5) 0.0259(5)
H20 H 0.1420 0.7342 0.0642
C41 C 0.2252(4) 0.9894(5) -0.1229(5)
H21 H 0.2347 1.0331 -0.1354
C42 C 0.2040(3) 0.9821(4) -0.0674(5)
H22 H 0.1988 1.0223 -0.0438
C43 C 0.2318(4) 0.9315(5) -0.1590(5)
H23 H 0.2447 0.9355 -0.1979
C44 C -0.4430(4) 0.5963(8) 0.3428(7)
H24 H -0.4497 0.5555 0.3641
C45 C -0.4521(4) 0.7872(9) 0.3609(6)
H25 H -0.4636 0.7915 0.4011
C46 C -0.4528(4) 0.6538(9) 0.3677(6)
H26 H -0.4663 0.6541 0.4063
C47 C -0.3820(4) 0.5906(5) 0.1705(5)
H27 H -0.3684 0.5888 0.1320
C48 C 0.4681(4) 1.1924(5) 0.4229(5)
H28 H 0.4788 1.2383 0.4215
C49 C -0.4245(4) 0.8385(5) 0.2697(6)
H29 H -0.4178 0.8788 0.2475
C50 C 0.4729(5) 1.0858(5) 0.4829(6)
H30 H 0.4863 1.0591 0.5241
C51 C 0.4326(5) 1.0594(5) 0.4251(6)
H31 H 0.4209 1.0140 0.4274
C52 C -0.4118(5) 0.5288(6) 0.2578(7)
H32 H -0.4190 0.4873 0.2776
Cd2E Cd 0.61370(2) 1.23934(3) 0.64620(3)
O3E O -0.4554(2) 0.7562(3) 0.0444(3)
O7E O -0.4356(3) 0.8612(3) 0.0879(3)
C21E C -0.4628(3) 0.8208(5) 0.0411(4)
O9 O 0.1085(5) 0.4033(12) 0.9089(7)
loop_
_geom_bond_atom_site_label_1
_geom_bond_atom_site_label_2
_geom_bond_site_symmetry_1
_geom_bond_site_symmetry_2
Cd1 O2 1_555 1_555
Cd2 O1 1_555 1_555
O1 C19 1_555 1_555
O2 C24 1_555 1_555
C1 H1 1_555 1_555
O3 C21 1_555 1_555
O4 Cd1 1_555 1_555
O5 Cd1 1_555 1_555
O6 Cd1 1_555 1_555
N1 Cd1 1_555 1_555
N2 Cd1 1_555 1_555
N3 Cd2 1_555 1_555
O7 C21 1_555 1_555
C2 C19 1_555 1_555
N4 Cd2 1_555 1_555
C3 C9 1_555 1_555
O8 Cd2 1_555 1_555
C4 C11 1_555 1_555
C5 H2 1_555 1_555
C6 H3 1_555 1_555
C7 C18 1_555 1_555
C8 N1 1_555 1_555
C9 H4 1_555 1_555
C10 C5 1_555 1_555
C11 C34 1_555 1_555
C12 N4 1_555 1_555
C13 C20 1_555 1_555
C14 C4 1_555 1_555
H5 C14 1_555 1_555
C15 C3 1_555 1_555
C16 N3 1_555 1_555
C17 H6 1_555 1_555
C18 N2 1_555 1_555
C19 O8 1_555 1_555
C20 H7 1_555 1_555
C21 C31 1_555 1_555
C22 C4 1_555 1_555
H8 C22 1_555 1_555
C23 C3 1_555 1_555
H9 C23 1_555 1_555
C24 O4 1_555 1_555
C25 H10 1_555 1_555
C26 C10 1_555 1_555
H11 C26 1_555 1_555
C27 O5 1_555 1_555
C28 C8 1_555 1_555
C29 C7 1_555 1_555
H12 C29 1_555 1_555
C30 C15 1_555 1_555
H13 C30 1_555 1_555
C31 C48 1_555 1_555
C32 C7 1_555 1_555
H14 C32 1_555 1_555
C33 C2 1_555 1_555
H15 C33 1_555 1_555
C34 H16 1_555 1_555
C35 C16 1_555 1_555
C36 C2 1_555 1_555
H17 C36 1_555 1_555
C37 C15 1_555 1_555
H18 C37 1_555 1_555
C38 C13 1_555 1_555
H19 C38 1_555 1_555
C39 C12 1_555 1_555
C40 N2 1_555 1_555
H20 C40 1_555 1_555
C41 H21 1_555 1_555
C42 N1 1_555 1_555
H22 C42 1_555 1_555
C43 C28 1_555 1_555
H23 C43 1_555 1_555
C44 C35 1_555 1_555
H24 C44 1_555 1_555
C45 C1 1_555 1_555
H25 C45 1_555 1_555
C46 C39 1_555 1_555
H26 C46 1_555 1_555
C47 N3 1_555 1_555
H27 C47 1_555 1_555
C48 C34 1_555 1_555
H28 C48 1_555 1_555
C49 C1 1_555 1_555
H29 C49 1_555 1_555
C50 C31 1_555 1_555
H30 C50 1_555 1_555
C51 C11 1_555 1_555
H31 C51 1_555 1_555
C52 C6 1_555 1_555
H32 C52 1_555 1_555
Cd2E O3 1_555 1_555
O3E Cd2 1_555 1_555
O7E Cd2 1_555 1_555
C21E O3E 1_555 1_555
O6 C27 1_555 1_555
O7 Cd2E 1_555 1_555
N4 C49 1_555 1_555
C5 C22 1_555 1_555
C6 C47 1_555 1_555
C8 C18 1_555 1_555
C9 C36 1_555 1_555
C10 C24 1_555 1_555
C12 C16 1_555 1_555
C13 C27 1_555 1_555
C14 C26 1_555 1_555
C17 C29 1_555 1_555
C17 C40 1_555 1_555
C20 C30 1_555 1_555
C23 C33 1_555 1_555
C25 C28 1_555 1_555
C25 C32 1_555 1_555
C35 C52 1_555 1_555
C37 C38 1_555 1_555
C39 C45 1_555 1_555
C41 C42 1_555 1_555
C41 C43 1_555 1_555
C44 C46 1_555 1_555
C50 C51 1_555 1_555
O7E C21E 1_555 1_555

#END
