
#######################################################################
#
#                 Cambridge Crystallographic Data Centre
#                                CCDC 
#
#######################################################################
#
# If this CIF has been generated from an entry in the Cambridge 
# Structural Database, then it will include bibliographic, chemical, 
# crystal, experimental, refinement or atomic coordinate data resulting 
# from the CCDC's data processing and validation procedures.
#
#######################################################################

data_PEJDUF
_symmetry_cell_setting           monoclinic
_symmetry_space_group_name_H-M   'C 2/m'
_symmetry_Int_Tables_number      12
_space_group_name_Hall           '-C 2y'
loop_
_symmetry_equiv_pos_site_id
_symmetry_equiv_pos_as_xyz
1 x,y,z
2 -x,y,-z
3 1/2+x,1/2+y,z
4 1/2-x,1/2+y,-z
5 -x,-y,-z
6 x,-y,z
7 1/2-x,1/2-y,-z
8 1/2+x,1/2-y,z
_cell_length_a                   22.976(13)
_cell_length_b                   19.587(11)
_cell_length_c                   10.776(6)
_cell_angle_alpha                90
_cell_angle_beta                 101.912(7)
_cell_angle_gamma                90
_cell_volume                     4745.1
loop_
_atom_site_label
_atom_site_type_symbol
_atom_site_fract_x
_atom_site_fract_y
_atom_site_fract_z
Pb1 Pb 0.59103(2) 0.0000 0.55861(4)
Pb2 Pb 1.01515(2) 0.0000 -0.31262(5)
Pb3 Pb 1.0000 0.25179(3) 1.5000
O1 O 0.5145(3) 0.0000 0.3749(8)
O2 O 0.4816(4) 0.0000 0.1697(8)
O3 O 0.9297(5) 0.0000 -0.4809(8)
O4 O 0.8311(5) 0.0000 -0.5510(9)
O5 O 0.9662(5) 0.0959(5) 1.1558(9)
O6 O 0.9949(4) 0.1433(4) 1.3431(10)
O7 O 0.5758(4) 0.1397(3) 0.5205(7)
O8 O 0.6676(4) 0.0976(4) 0.5904(9)
N1 N 0.6279(5) 0.0000 0.3547(9)
N2 N 0.9179(6) 0.0000 -0.2446(12)
N3 N 0.9705(5) 0.2699(5) 1.2494(13)
N4 N 0.6164(5) 0.2701(4) 0.5625(10)
C1 C 0.5852(5) 0.0000 0.2457(11)
C2 C 0.5996(5) 0.0000 0.1289(12)
H1 H 0.5696 0.0000 0.0563
C3 C 0.6584(5) 0.0000 0.1176(11)
C4 C 0.7013(6) 0.0000 0.2297(13)
H2 H 0.7414 0.0000 0.2262
C5 C 0.6855(5) 0.0000 0.3415(12)
H3 H 0.7154 0.0000 0.4144
C6 C 0.5231(5) 0.0000 0.2618(12)
C7 C 0.6727(6) 0.0000 -0.0148(13)
H4 H 0.6542 -0.0399 -0.0598
C8 C 0.7365(6) 0.0000 -0.0219(13)
H5 H 0.7557 -0.0401 0.0212
C9 C 0.7439(7) 0.0000 -0.1556(14)
H6 H 0.7236 0.0399 -0.1971
C10 C 0.8692(6) 0.0000 -0.3314(13)
C11 C 0.8152(7) 0.0000 -0.3011(15)
H7 H 0.7819 0.0000 -0.3669
C12 C 0.8063(7) 0.0000 -0.1791(16)
C13 C 0.8587(9) 0.0000 -0.0873(19)
H8 H 0.8567 0.0000 -0.0020
C14 C 0.9148(8) 0.0000 -0.1209(17)
H9 H 0.9494 0.0000 -0.0583
C15 C 0.8759(7) 0.0000 -0.4669(12)
C16 C 0.9578(6) 0.2143(6) 1.1685(17)
C17 C 0.9352(6) 0.2231(7) 1.0449(16)
H10 H 0.9282 0.1850 0.9924
C18 C 0.9217(6) 0.2889(10) 0.9917(18)
C19 C 0.9376(7) 0.3421(7) 1.082(2)
H11 H 0.9322 0.3870 1.0543
C20 C 0.9593(7) 0.3318(7) 1.2017(19)
H12 H 0.9674 0.3692 1.2557
C21 C 0.9738(6) 0.1460(7) 1.2272(16)
C22 C 0.8974(6) 0.2974(9) 0.8557(19)
H13 H 0.9133 0.2623 0.8086
H14 H 0.9090 0.3415 0.8279
C23 C 0.8290(7) 0.2923(10) 0.8287(19)
H15 H 0.8171 0.2475 0.8530
H16 H 0.8130 0.3262 0.8780
C24 C 0.8066(8) 0.3030(8) 0.699(2)
H17 H 0.8278 0.2733 0.6521
H18 H 0.8154 0.3497 0.6794
C25 C 0.6554(6) 0.2167(5) 0.5928(12)
C26 C 0.7165(6) 0.2238(6) 0.6378(16)
H19 H 0.7408 0.1857 0.6572
C27 C 0.7409(8) 0.2911(8) 0.6535(18)
C28 C 0.6987(7) 0.3445(6) 0.6261(17)
H20 H 0.7117 0.3894 0.6386
C29 C 0.6399(6) 0.3323(6) 0.5819(14)
H21 H 0.6145 0.3696 0.5642
C30 C 0.6314(6) 0.1464(6) 0.5673(11)
Pb1A Pb 0.40897(2) 0.0000 0.44139(4)
Pb2A Pb 0.98485(2) 0.0000 1.31262(5)
Pb3F Pb 0.5000 0.24821(3) 0.5000
Pb3D Pb 1.0000 -0.25179(3) 1.5000
Pb3B Pb 0.5000 -0.24821(3) 0.5000
O1A O 0.4855(3) 0.0000 0.6251(8)
O5E O 0.9662(5) -0.0959(5) 1.1558(9)
O5A O 1.0338(5) 0.0959(5) -0.1558(9)
O5D O 1.0338(5) -0.0959(5) -0.1558(9)
O6E O 0.9949(4) -0.1433(4) 1.3431(10)
O6A O 1.0051(4) 0.1433(4) 1.6569(10)
O7E O 0.5758(4) -0.1397(3) 0.5205(7)
O7F O 0.9242(4) 0.3603(3) 1.4795(7)
O7G O 1.0758(4) 0.3603(3) 1.5205(7)
O8E O 0.6676(4) -0.0976(4) 0.5904(9)
N3E N 0.9705(5) -0.2699(5) 1.2494(13)
N3A N 1.0295(5) 0.2699(5) 1.7506(13)
N4E N 0.6164(5) -0.2701(4) 0.5625(10)
N4F N 0.8836(5) 0.2299(4) 1.4375(10)
N4G N 1.1164(5) 0.2299(4) 1.5625(10)
H4E H 0.6542 0.0399 -0.0598
H5E H 0.7557 0.0401 0.0212
H6E H 0.7236 -0.0399 -0.1971
C16E C 0.9578(6) -0.2143(6) 1.1685(17)
C17E C 0.9352(6) -0.2231(7) 1.0449(16)
H10E H 0.9282 -0.1850 0.9924
C18E C 0.9217(6) -0.2889(10) 0.9917(18)
C19E C 0.9376(7) -0.3421(7) 1.082(2)
H11E H 0.9322 -0.3870 1.0543
C20E C 0.9593(7) -0.3318(7) 1.2017(19)
H12E H 0.9674 -0.3692 1.2557
C21E C 0.9738(6) -0.1460(7) 1.2272(16)
C22E C 0.8974(6) -0.2974(9) 0.8557(19)
H13E H 0.9133 -0.2623 0.8086
H14E H 0.9090 -0.3415 0.8279
C23E C 0.8290(7) -0.2923(10) 0.8287(19)
H15E H 0.8171 -0.2475 0.8530
H16E H 0.8130 -0.3262 0.8780
C24E C 0.8066(8) -0.3030(8) 0.699(2)
H17E H 0.8278 -0.2733 0.6521
H18E H 0.8154 -0.3497 0.6794
C25E C 0.6554(6) -0.2167(5) 0.5928(12)
C26E C 0.7165(6) -0.2238(6) 0.6378(16)
H19E H 0.7408 -0.1857 0.6572
C27E C 0.7409(8) -0.2911(8) 0.6535(18)
C28E C 0.6987(7) -0.3445(6) 0.6261(17)
H20E H 0.7117 -0.3894 0.6386
C29E C 0.6399(6) -0.3323(6) 0.5819(14)
H21E H 0.6145 -0.3696 0.5642
C30E C 0.6314(6) -0.1464(6) 0.5673(11)
loop_
_geom_bond_atom_site_label_1
_geom_bond_atom_site_label_2
_geom_bond_site_symmetry_1
_geom_bond_site_symmetry_2
Pb1 O1 1_555 1_555
Pb2 O3 1_555 1_555
Pb3 O6 1_555 1_555
O1 C6 1_555 1_555
O2 C6 1_555 1_555
O3 C15 1_555 1_555
O4 C15 1_555 1_555
O5 C21 1_555 1_555
O6 C21 1_555 1_555
O7 C30 1_555 1_555
O8 Pb1 1_555 1_555
N1 Pb1 1_555 1_555
N2 Pb2 1_555 1_555
N3 Pb3 1_555 1_555
N4 C25 1_555 1_555
C1 N1 1_555 1_555
C2 C1 1_555 1_555
H1 C2 1_555 1_555
C3 C2 1_555 1_555
C4 C3 1_555 1_555
H2 C4 1_555 1_555
C5 N1 1_555 1_555
H3 C5 1_555 1_555
C6 C1 1_555 1_555
C7 C3 1_555 1_555
H4 C7 1_555 1_555
C8 C7 1_555 1_555
H5 C8 1_555 1_555
C9 C8 1_555 1_555
H6 C9 1_555 1_555
C10 N2 1_555 1_555
C11 C10 1_555 1_555
H7 C11 1_555 1_555
C12 C9 1_555 1_555
C13 C12 1_555 1_555
H8 C13 1_555 1_555
C14 N2 1_555 1_555
H9 C14 1_555 1_555
C15 C10 1_555 1_555
C16 N3 1_555 1_555
C17 C16 1_555 1_555
H10 C17 1_555 1_555
C18 C17 1_555 1_555
C19 C18 1_555 1_555
H11 C19 1_555 1_555
C20 N3 1_555 1_555
H12 C20 1_555 1_555
C21 C16 1_555 1_555
C22 C18 1_555 1_555
H13 C22 1_555 1_555
H14 C22 1_555 1_555
C23 C22 1_555 1_555
H15 C23 1_555 1_555
H16 C23 1_555 1_555
C24 C23 1_555 1_555
H17 C24 1_555 1_555
H18 C24 1_555 1_555
C25 C26 1_555 1_555
C26 H19 1_555 1_555
C27 C24 1_555 1_555
C28 C27 1_555 1_555
H20 C28 1_555 1_555
C29 N4 1_555 1_555
H21 C29 1_555 1_555
C30 O8 1_555 1_555
Pb1A O1 1_555 1_555
Pb2A O5 1_555 1_555
Pb3F O7 1_555 1_555
Pb3D O6E 1_555 1_555
Pb3B O7E 1_555 1_555
O1A Pb1 1_555 1_555
O5E Pb2A 1_555 1_555
O5A Pb2 1_555 1_555
O5D Pb2 1_555 1_555
O6E C21E 1_555 1_555
O6A Pb3 1_555 1_555
O7E C30E 1_555 1_555
O7F Pb3 1_555 1_555
O7G Pb3 1_555 1_555
O8E Pb1 1_555 1_555
N3E Pb3D 1_555 1_555
N3A Pb3 1_555 1_555
N4E Pb3B 1_555 1_555
N4F Pb3 1_555 1_555
N4G Pb3 1_555 1_555
H4E C7 1_555 1_555
H5E C8 1_555 1_555
H6E C9 1_555 1_555
C16E N3E 1_555 1_555
C17E C16E 1_555 1_555
H10E C17E 1_555 1_555
C18E C17E 1_555 1_555
C19E C18E 1_555 1_555
H11E C19E 1_555 1_555
C20E N3E 1_555 1_555
H12E C20E 1_555 1_555
C21E O5E 1_555 1_555
C22E C18E 1_555 1_555
H13E C22E 1_555 1_555
H14E C22E 1_555 1_555
C23E C22E 1_555 1_555
H15E C23E 1_555 1_555
H16E C23E 1_555 1_555
C24E C23E 1_555 1_555
H17E C24E 1_555 1_555
H18E C24E 1_555 1_555
C25E N4E 1_555 1_555
C26E C25E 1_555 1_555
H19E C26E 1_555 1_555
C27E C24E 1_555 1_555
C28E C27E 1_555 1_555
H20E C28E 1_555 1_555
C29E N4E 1_555 1_555
H21E C29E 1_555 1_555
C30E O8E 1_555 1_555
N4 Pb3F 1_555 1_555
C4 C5 1_555 1_555
C11 C12 1_555 1_555
C13 C14 1_555 1_555
C19 C20 1_555 1_555
C25 C30 1_555 1_555
C26 C27 1_555 1_555
C28 C29 1_555 1_555
Pb1A O1A 1_555 1_555
C16E C21E 1_555 1_555
C19E C20E 1_555 1_555
C25E C30E 1_555 1_555
C26E C27E 1_555 1_555
C28E C29E 1_555 1_555

#END
