
#######################################################################
#
#                 Cambridge Crystallographic Data Centre
#                                CCDC 
#
#######################################################################
#
# If this CIF has been generated from an entry in the Cambridge 
# Structural Database, then it will include bibliographic, chemical, 
# crystal, experimental, refinement or atomic coordinate data resulting 
# from the CCDC's data processing and validation procedures.
#
#######################################################################

data_PEJNEZ
_symmetry_cell_setting           monoclinic
_symmetry_space_group_name_H-M   'P 21/a'
_symmetry_Int_Tables_number      14
_space_group_name_Hall           '-P 2yab'
loop_
_symmetry_equiv_pos_site_id
_symmetry_equiv_pos_as_xyz
1 x,y,z
2 1/2-x,1/2+y,-z
3 -x,-y,-z
4 1/2+x,1/2-y,z
_cell_length_a                   12.8478(9)
_cell_length_b                   12.8510(5)
_cell_length_c                   6.6366(6)
_cell_angle_alpha                90
_cell_angle_beta                 90.386(9)
_cell_angle_gamma                90
_cell_volume                     1095.72
loop_
_atom_site_label
_atom_site_type_symbol
_atom_site_fract_x
_atom_site_fract_y
_atom_site_fract_z
Zr1 Zr 0.9710(4) 0.15619(26) 0.7813(11)
F1 F 0.8310(10) 0.1211(9) 0.734(4)
F2 F 1.1021(10) 0.2120(10) 0.8023(30)
P1 P 1.0157(7) 0.1146(4) 1.2427(16)
O1 O 0.9598(15) 0.1695(15) 1.0705(17)
O2 O 0.9864(11) -0.0102(6) 1.240(4)
O3 O 0.9825(14) 0.1639(16) 1.4548(17)
C1 C 1.1463(11) 0.1268(11) 1.213(4)
C2 C 1.1814(15) 0.2010(13) 1.355(5)
N1 N 1.1405(26) 0.3012(10) 1.302(4)
C3 C 1.159(4) 0.3353(16) 1.095(4)
C4 C 1.141(5) 0.4425(14) 1.047(4)
C5 C 1.121(4) 0.5202(13) 1.178(4)
C6 C 1.101(4) 0.4882(14) 1.390(4)
C7 C 1.128(4) 0.3804(16) 1.435(4)
C8 C 1.1161(20) 0.6327(9) 1.1379(27)
O4 O 1.0839(15) 0.6940(8) 1.2745(27)
O5 O 1.1273(24) 0.6672(13) 0.9545(30)
Zr1B Zr 1.0290(4) -0.15619(26) 1.2187(11)
Zr1_2 Zr 0.9710(4) 0.15619(26) 1.7813(11)
Zr1B_2 Zr 1.0290(4) 0.84381(26) 1.2187(11)
O2B O 1.0136(11) 0.0102(6) 0.760(4)
O3_2 O 0.9825(14) 0.1639(16) 0.4548(17)
O4B O 0.9161(15) 0.3060(8) 0.7255(27)
loop_
_geom_bond_atom_site_label_1
_geom_bond_atom_site_label_2
_geom_bond_site_symmetry_1
_geom_bond_site_symmetry_2
Zr1 F1 1_555 1_555
F2 Zr1 1_555 1_555
P1 O1 1_555 1_555
O1 Zr1 1_555 1_555
O2 P1 1_555 1_555
O3 P1 1_555 1_555
C1 P1 1_555 1_555
C2 C1 1_555 1_555
N1 C2 1_555 1_555
C3 N1 1_555 1_555
C4 C3 1_555 1_555
C5 C4 1_555 1_555
C6 C5 1_555 1_555
C7 N1 1_555 1_555
C8 C5 1_555 1_555
O4 C8 1_555 1_555
O5 C8 1_555 1_555
Zr1B O2 1_555 1_555
Zr1_2 O3 1_555 1_555
Zr1B_2 O4 1_555 1_555
O2B Zr1 1_555 1_555
O3_2 Zr1 1_555 1_555
O4B Zr1 1_555 1_555
C6 C7 1_555 1_555

#END
