
#######################################################################
#
#                 Cambridge Crystallographic Data Centre
#                                CCDC 
#
#######################################################################
#
# If this CIF has been generated from an entry in the Cambridge 
# Structural Database, then it will include bibliographic, chemical, 
# crystal, experimental, refinement or atomic coordinate data resulting 
# from the CCDC's data processing and validation procedures.
#
#######################################################################

data_PEJRUT
_symmetry_cell_setting           triclinic
_symmetry_space_group_name_H-M   'P -1'
_symmetry_Int_Tables_number      2
_space_group_name_Hall           '-P 1'
loop_
_symmetry_equiv_pos_site_id
_symmetry_equiv_pos_as_xyz
1 x,y,z
2 -x,-y,-z
_cell_length_a                   6.7596(6)
_cell_length_b                   9.0967(8)
_cell_length_c                   11.4061(9)
_cell_angle_alpha                113.1880(10)
_cell_angle_beta                 93.7630(10)
_cell_angle_gamma                104.3850(10)
_cell_volume                     613.879
loop_
_atom_site_label
_atom_site_type_symbol
_atom_site_fract_x
_atom_site_fract_y
_atom_site_fract_z
C1 C 0.3572(7) -0.2092(6) 1.0323(5)
C2 C 0.2896(7) -0.3887(6) 1.0161(5)
C3 C 0.2860(7) -0.4251(6) 1.1243(5)
H1 H 0.3207 -0.3391 1.2077
C4 C 0.2299(7) -0.5918(6) 1.1054(4)
C5 C 0.1792(7) -0.7235(6) 0.9819(5)
H2 H 0.1425 -0.8343 0.9708
C6 C 0.1849(7) -0.6848(6) 0.8760(4)
C7 C 0.2365(7) -0.5200(6) 0.8918(5)
H3 H 0.2358 -0.4967 0.8194
Eu1 Eu 0.33757(3) -0.17276(3) 0.73468(2)
O1 O 0.3375(6) -0.1838(4) 0.9327(3)
O2 O 0.4316(6) -0.0978(4) 1.1449(3)
O3 O 0.3362(5) -0.7641(4) 1.2184(3)
O4 O 0.3425(6) -0.4800(4) 1.3536(3)
O5 O 0.0156(5) -0.6966(5) 1.2527(4)
O6 O 0.1356(6) -0.9965(4) 0.7299(4)
O7 O 0.2907(6) -0.7908(5) 0.6500(4)
O8 O -0.0764(6) -0.8595(5) 0.6579(3)
O9 O 0.1248(5) -0.2919(4) 0.5077(3)
H4 H 0.0143 -0.2666 0.4966
H5 H 0.1638 -0.3570 0.4430
O10 O 0.5546(7) -0.1113(6) 0.5900(4)
H6 H 0.643(11) -0.039(9) 0.619(7)
H7 H 0.557(14) -0.149(12) 0.505(10)
O11 O 0.2779(5) -0.4695(4) 0.6179(3)
H8 H 0.3270 -0.5225 0.6534
H9 H 0.2079 -0.5217 0.5411
S1 S 0.23082(18) -0.63786(15) 1.24260(11)
S2 S 0.13168(18) -0.84422(14) 0.71521(11)
Eu1A Eu 0.66243(3) 0.17276(3) 1.26532(2)
Eu1A_2 Eu 0.66243(3) -0.82724(3) 1.26532(2)
Eu1A_3 Eu -0.33757(3) -0.82724(3) 1.26532(2)
Eu1_2 Eu 0.33757(3) -1.17276(3) 0.73468(2)
O2A O 0.5684(6) 0.0978(4) 0.8551(3)
O3A O 0.6638(5) -0.2359(4) 0.7816(3)
O5A O -0.0156(5) -0.3034(5) 0.7473(4)
O6_2 O 0.1356(6) 0.0035(4) 0.7299(4)
loop_
_geom_bond_atom_site_label_1
_geom_bond_atom_site_label_2
_geom_bond_site_symmetry_1
_geom_bond_site_symmetry_2
C1 C2 1_555 1_555
C2 C3 1_555 1_555
C3 H1 1_555 1_555
C4 C3 1_555 1_555
C5 C4 1_555 1_555
H2 C5 1_555 1_555
C6 C5 1_555 1_555
C7 C2 1_555 1_555
H3 C7 1_555 1_555
Eu1 O1 1_555 1_555
O1 C1 1_555 1_555
O2 C1 1_555 1_555
O3 S1 1_555 1_555
O4 S1 1_555 1_555
O5 S1 1_555 1_555
O6 S2 1_555 1_555
O7 S2 1_555 1_555
O8 S2 1_555 1_555
O9 Eu1 1_555 1_555
H4 O9 1_555 1_555
H5 O9 1_555 1_555
O10 Eu1 1_555 1_555
H6 O10 1_555 1_555
H7 O10 1_555 1_555
O11 Eu1 1_555 1_555
H8 O11 1_555 1_555
H9 O11 1_555 1_555
S1 C4 1_555 1_555
S2 C6 1_555 1_555
Eu1A O2 1_555 1_555
Eu1A_2 O3 1_555 1_555
Eu1A_3 O5 1_555 1_555
Eu1_2 O6 1_555 1_555
O2A Eu1 1_555 1_555
O3A Eu1 1_555 1_555
O5A Eu1 1_555 1_555
O6_2 Eu1 1_555 1_555
C6 C7 1_555 1_555

#END
