
#######################################################################
#
#                 Cambridge Crystallographic Data Centre
#                                CCDC 
#
#######################################################################
#
# If this CIF has been generated from an entry in the Cambridge 
# Structural Database, then it will include bibliographic, chemical, 
# crystal, experimental, refinement or atomic coordinate data resulting 
# from the CCDC's data processing and validation procedures.
#
#######################################################################

data_PEJSUU
_symmetry_cell_setting           triclinic
_symmetry_space_group_name_H-M   'P -1'
_symmetry_Int_Tables_number      2
_space_group_name_Hall           '-P 1'
loop_
_symmetry_equiv_pos_site_id
_symmetry_equiv_pos_as_xyz
1 x,y,z
2 -x,-y,-z
_cell_length_a                   6.9851(12)
_cell_length_b                   11.0348(18)
_cell_length_c                   17.554(3)
_cell_angle_alpha                77.849(3)
_cell_angle_beta                 82.221(3)
_cell_angle_gamma                75.530(3)
_cell_volume                     1275.87
loop_
_atom_site_label
_atom_site_type_symbol
_atom_site_fract_x
_atom_site_fract_y
_atom_site_fract_z
C1 C 0.884(3) 0.230(2) 0.6837(12)
C2 C 0.828(3) 0.2769(18) 0.7566(11)
C3 C 0.791(3) 0.4086(19) 0.7568(11)
H1 H 0.8054 0.4650 0.7101
C4 C 0.735(3) 0.4548(19) 0.8268(12)
C5 C 0.706(3) 0.374(2) 0.8976(13)
H2 H 0.6706 0.4058 0.9439
C6 C 0.734(3) 0.2437(18) 0.8971(11)
C7 C 0.803(3) 0.194(2) 0.8278(12)
H3 H 0.8324 0.1063 0.8295
C8 C 1.219(3) 0.2970(19) 0.8793(11)
C9 C 1.287(3) 0.3238(19) 0.7936(12)
C10 C 1.349(3) 0.2238(19) 0.7527(11)
H4 H 1.3506 0.1404 0.7778
C11 C 1.407(3) 0.252(2) 0.6731(12)
C12 C 1.409(3) 0.3709(19) 0.6349(12)
H5 H 1.4565 0.3856 0.5824
C13 C 1.338(3) 0.4724(18) 0.6754(11)
C14 C 1.275(3) 0.4509(18) 0.7545(13)
H6 H 1.2269 0.5184 0.7812
Nd1 Nd 1.00554(16) 0.17441(10) 0.51921(6)
Nd2 Nd 0.90928(17) -0.11841(10) 0.69722(6)
Nd3 Nd 0.84209(16) 0.79125(10) 0.95463(6)
O1 O 0.918(2) 0.1108(13) 0.6854(8)
O2 O 0.897(2) 0.3083(14) 0.6202(8)
O3 O 0.758(2) 0.6235(14) 0.9024(9)
O4 O 0.483(2) 0.6727(15) 0.8241(9)
O5 O 0.814(3) 0.6722(15) 0.7599(9)
O6 O 0.868(2) 0.1315(15) 1.0322(8)
O7 O 0.716(2) 0.0167(13) 0.9621(8)
O8 O 0.519(2) 0.1882(14) 1.0243(9)
O9 O 1.179(2) 0.3788(14) 0.9209(8)
O10 O 1.223(2) 0.1788(14) 0.9078(9)
O11 O 1.323(2) 0.1127(15) 0.5867(9)
O12 O 1.654(2) 0.1440(14) 0.5660(8)
O13 O 1.550(2) 0.0078(14) 0.6836(9)
O14 O 1.529(2) 0.6444(15) 0.6149(10)
O15 O 1.204(2) 0.7097(14) 0.6792(8)
O16 O 1.241(2) 0.6461(14) 0.5541(9)
O17 O 1.144(2) 0.3787(15) 0.4953(9)
H7 H 1.1468 0.4246 0.4499
H8 H 1.1864 0.3995 0.5328
O18 O 1.091(2) -0.0547(13) 0.5696(8)
H9 H 1.2091 -0.0912 0.5824
O19 O 1.199(3) -0.1098(19) 0.7681(15)
H10 H 1.2689 -0.0555 0.7504
H11 H 1.2247 -0.1608 0.8118
O20 O 1.149(3) 0.6325(16) 0.9216(10)
H12 H 1.1959 0.6308 0.8707
H13 H 1.2137 0.5743 0.9625
O21 O 0.775(3) -0.1071(15) 0.8287(9)
H14 H 0.6615 -0.0419 0.8294
O22 O 1.202(2) 0.1780(14) 0.4033(8)
H15 H 1.3225 0.2025 0.3973
S1 S 0.6931(7) 0.6197(4) 0.8267(3)
S2 S 0.7081(7) 0.1367(4) 0.9848(3)
S3 S 1.4928(7) 0.1191(5) 0.6223(3)
S4 S 1.3297(8) 0.6299(5) 0.6269(3)
Nd1_2 Nd 2.00554(16) 0.17441(10) 0.51921(6)
Nd1A Nd 0.99446(16) 0.82559(10) 0.48079(6)
Nd1A_2 Nd 0.99446(16) -0.17441(10) 0.48079(6)
Nd2_2 Nd 0.90928(17) 0.88159(10) 0.69722(6)
Nd2_3 Nd 1.90928(17) -0.11841(10) 0.69722(6)
Nd2A Nd 1.09072(17) 0.11841(10) 0.30278(6)
Nd3A Nd 1.15791(16) 0.20875(10) 1.04537(6)
Nd3_2 Nd 0.84209(16) -0.20875(10) 0.95463(6)
Nd3A_2 Nd 0.15791(16) 0.20875(10) 1.04537(6)
O5_2 O 0.814(3) -0.3278(15) 0.7599(9)
O6A O 1.132(2) 0.8685(15) 0.9678(8)
O7_2 O 0.716(2) 1.0167(13) 0.9621(8)
O8A O 0.481(2) 0.8118(14) 0.9757(9)
O9A O 0.821(2) 0.6212(14) 1.0791(8)
O10A O 0.777(2) 0.8212(14) 1.0922(9)
O12_2 O 0.654(2) 0.1440(14) 0.5660(8)
O13_2 O 0.550(2) 0.0078(14) 0.6836(9)
O15_2 O 1.204(2) -0.2903(14) 0.6792(8)
O16A O 0.759(2) 0.3539(14) 0.4459(9)
O18A O 0.909(2) 0.0547(13) 0.4304(8)
H9A H 0.7909 0.0912 0.4176
O21_2 O 0.775(3) 0.8929(15) 0.8287(9)
H14_2 H 0.6615 0.9581 0.8294
O22A O 0.798(2) -0.1780(14) 0.5967(8)
H15A H 0.6775 -0.2025 0.6027
loop_
_geom_bond_atom_site_label_1
_geom_bond_atom_site_label_2
_geom_bond_site_symmetry_1
_geom_bond_site_symmetry_2
C1 C2 1_555 1_555
C2 C3 1_555 1_555
C3 H1 1_555 1_555
C4 C3 1_555 1_555
C5 C4 1_555 1_555
H2 C5 1_555 1_555
C6 C5 1_555 1_555
C7 C2 1_555 1_555
H3 C7 1_555 1_555
C8 C9 1_555 1_555
C9 C10 1_555 1_555
C10 H4 1_555 1_555
C11 C10 1_555 1_555
C12 C11 1_555 1_555
H5 C12 1_555 1_555
C13 C12 1_555 1_555
C14 C9 1_555 1_555
H6 C14 1_555 1_555
Nd1 O2 1_555 1_555
Nd2 O1 1_555 1_555
Nd3 O3 1_555 1_555
O1 C1 1_555 1_555
O2 C1 1_555 1_555
O3 S1 1_555 1_555
O4 S1 1_555 1_555
O5 S1 1_555 1_555
O6 S2 1_555 1_555
O7 S2 1_555 1_555
O8 S2 1_555 1_555
O9 C8 1_555 1_555
O10 C8 1_555 1_555
O11 Nd1 1_555 1_555
O12 S3 1_555 1_555
O13 S3 1_555 1_555
O14 S4 1_555 1_555
O15 S4 1_555 1_555
O16 S4 1_555 1_555
O17 Nd1 1_555 1_555
H7 O17 1_555 1_555
H8 O17 1_555 1_555
O18 Nd1 1_555 1_555
H9 O18 1_555 1_555
O19 Nd2 1_555 1_555
H10 O19 1_555 1_555
H11 O19 1_555 1_555
O20 Nd3 1_555 1_555
H12 O20 1_555 1_555
H13 O20 1_555 1_555
O21 Nd2 1_555 1_555
H14 O21 1_555 1_555
O22 Nd1 1_555 1_555
H15 O22 1_555 1_555
S1 C4 1_555 1_555
S2 C6 1_555 1_555
S3 C11 1_555 1_555
S4 C13 1_555 1_555
Nd1_2 O12 1_555 1_555
Nd1A O16 1_555 1_555
Nd1A_2 O18 1_555 1_555
Nd2_2 O5 1_555 1_555
Nd2_3 O13 1_555 1_555
Nd2A O22 1_555 1_555
Nd3A O6 1_555 1_555
Nd3_2 O7 1_555 1_555
Nd3A_2 O8 1_555 1_555
O5_2 Nd2 1_555 1_555
O6A Nd3 1_555 1_555
O7_2 Nd3 1_555 1_555
O8A Nd3 1_555 1_555
O9A Nd3 1_555 1_555
O10A Nd3 1_555 1_555
O12_2 Nd1 1_555 1_555
O13_2 Nd2 1_555 1_555
O15_2 Nd2 1_555 1_555
O16A Nd1 1_555 1_555
O18A Nd1 1_555 1_555
H9A O18A 1_555 1_555
O21_2 Nd3 1_555 1_555
H14_2 O21_2 1_555 1_555
O22A Nd2 1_555 1_555
H15A O22A 1_555 1_555
C6 C7 1_555 1_555
C13 C14 1_555 1_555
Nd2 O18 1_555 1_555
O9 Nd3A 1_555 1_555
O10 Nd3A 1_555 1_555
O11 S3 1_555 1_555
O15 Nd2_2 1_555 1_555
O21 Nd3_2 1_555 1_555
Nd1A_2 O18A 1_555 1_555
Nd1A_2 O22A 1_555 1_555
Nd2_2 O21_2 1_555 1_555
Nd2A O18A 1_555 1_555

#END
