
#######################################################################
#
#                 Cambridge Crystallographic Data Centre
#                                CCDC 
#
#######################################################################
#
# If this CIF has been generated from an entry in the Cambridge 
# Structural Database, then it will include bibliographic, chemical, 
# crystal, experimental, refinement or atomic coordinate data resulting 
# from the CCDC's data processing and validation procedures.
#
#######################################################################

data_PEJSOO
_symmetry_cell_setting           triclinic
_symmetry_space_group_name_H-M   'P -1'
_symmetry_Int_Tables_number      2
_space_group_name_Hall           '-P 1'
loop_
_symmetry_equiv_pos_site_id
_symmetry_equiv_pos_as_xyz
1 x,y,z
2 -x,-y,-z
_cell_length_a                   6.8018(9)
_cell_length_b                   9.1664(13)
_cell_length_c                   11.4643(16)
_cell_angle_alpha                113.368(2)
_cell_angle_beta                 93.384(2)
_cell_angle_gamma                104.466(2)
_cell_volume                     625.213
loop_
_atom_site_label
_atom_site_type_symbol
_atom_site_fract_x
_atom_site_fract_y
_atom_site_fract_z
C1 C 0.3542(7) 0.7889(6) 0.5329(4)
C2 C 0.2866(7) 0.6103(5) 0.5158(4)
C3 C 0.2343(7) 0.4793(6) 0.3927(5)
H1 H 0.2342 0.5019 0.3205
C4 C 0.1822(7) 0.3152(6) 0.3769(5)
C5 C 0.1793(7) 0.2789(6) 0.4829(5)
H2 H 0.1430 0.1691 0.4724
C6 C 0.2317(7) 0.4095(6) 0.6051(5)
C7 C 0.2877(7) 0.5746(6) 0.6240(5)
H3 H 0.3254 0.6602 0.7070
Nd1 Nd 0.66403(4) 1.17271(3) 0.76553(2)
O1 O 0.4326(5) 0.8996(4) 0.6444(3)
O2 O 0.3315(6) 0.8146(4) 0.4343(3)
O3 O -0.0755(6) 0.1440(4) 0.1607(3)
O4 O 0.1307(6) 0.0052(4) 0.2318(3)
O5 O 0.2882(6) 0.2081(5) 0.1514(3)
O6 O 0.3398(5) 0.2387(4) 0.7174(3)
O7 O 0.3453(5) 0.5213(4) 0.8522(3)
O8 O 0.0215(5) 0.3065(5) 0.7546(4)
O9 O 0.8749(5) 1.2931(4) 0.9951(3)
H4 H 0.8034 1.3499 1.0401
H5 H 0.8868 1.2252 1.0159
O10 O 0.7254(5) 1.4737(4) 0.8850(3)
H6 H 0.6265 1.5257 0.8921
H7 H 0.8437 1.5497 0.9341
O11 O 0.4372(6) 1.1109(5) 0.9110(3)
H8 H 0.4523 1.1365 0.9947
H9 H 0.3151 1.0343 0.8845
S1 S 0.12948(19) 0.15701(14) 0.21687(11)
S2 S 0.23449(18) 0.36470(15) 0.74245(11)
Nd1A Nd 0.33597(4) 0.82729(3) 0.23447(2)
Nd1A_2 Nd 0.33597(4) -0.17271(3) 0.23447(2)
Nd1_2 Nd 0.66403(4) 0.17271(3) 0.76553(2)
Nd1_3 Nd -0.33597(4) 0.17271(3) 0.76553(2)
O2A O 0.6685(6) 1.1854(4) 0.5657(3)
O4A O 0.8693(6) 0.9948(4) 0.7682(3)
O6_2 O 0.3398(5) 1.2387(4) 0.7174(3)
O8_2 O 1.0215(5) 1.3065(5) 0.7546(4)
loop_
_geom_bond_atom_site_label_1
_geom_bond_atom_site_label_2
_geom_bond_site_symmetry_1
_geom_bond_site_symmetry_2
C1 C2 1_555 1_555
C2 C3 1_555 1_555
C3 H1 1_555 1_555
C4 C3 1_555 1_555
C5 C4 1_555 1_555
H2 C5 1_555 1_555
C6 C5 1_555 1_555
C7 C2 1_555 1_555
H3 C7 1_555 1_555
Nd1 O1 1_555 1_555
O1 C1 1_555 1_555
O2 C1 1_555 1_555
O3 S1 1_555 1_555
O4 S1 1_555 1_555
O5 S1 1_555 1_555
O6 S2 1_555 1_555
O7 S2 1_555 1_555
O8 S2 1_555 1_555
O9 Nd1 1_555 1_555
H4 O9 1_555 1_555
H5 O9 1_555 1_555
O10 Nd1 1_555 1_555
H6 O10 1_555 1_555
H7 O10 1_555 1_555
O11 Nd1 1_555 1_555
H8 O11 1_555 1_555
H9 O11 1_555 1_555
S1 C4 1_555 1_555
S2 C6 1_555 1_555
Nd1A O2 1_555 1_555
Nd1A_2 O4 1_555 1_555
Nd1_2 O6 1_555 1_555
Nd1_3 O8 1_555 1_555
O2A Nd1 1_555 1_555
O4A Nd1 1_555 1_555
O6_2 Nd1 1_555 1_555
O8_2 Nd1 1_555 1_555
C6 C7 1_555 1_555

#END
