
#######################################################################
#
#                 Cambridge Crystallographic Data Centre
#                                CCDC 
#
#######################################################################
#
# If this CIF has been generated from an entry in the Cambridge 
# Structural Database, then it will include bibliographic, chemical, 
# crystal, experimental, refinement or atomic coordinate data resulting 
# from the CCDC's data processing and validation procedures.
#
#######################################################################

data_PEJTIJ
_symmetry_cell_setting           triclinic
_symmetry_space_group_name_H-M   'P -1'
_symmetry_Int_Tables_number      2
_space_group_name_Hall           '-P 1'
loop_
_symmetry_equiv_pos_site_id
_symmetry_equiv_pos_as_xyz
1 x,y,z
2 -x,-y,-z
_cell_length_a                   7.9374(6)
_cell_length_b                   10.2921(7)
_cell_length_c                   10.6569(7)
_cell_angle_alpha                115.9690(10)
_cell_angle_beta                 93.3030(10)
_cell_angle_gamma                105.3680(10)
_cell_volume                     739.401
loop_
_atom_site_label
_atom_site_type_symbol
_atom_site_fract_x
_atom_site_fract_y
_atom_site_fract_z
C1 C 0.4241(8) 0.8017(7) 0.0495(6)
C2 C 0.3490(8) 0.6490(7) 0.0465(6)
C3 C 0.3634(8) 0.6374(7) 0.1716(6)
H1 H 0.4147 0.7242 0.2589
C4 C 0.2987(8) 0.4917(7) 0.1639(6)
C5 C 0.2133(8) 0.3632(6) 0.0375(6)
H2 H 0.1673 0.2685 0.0344
C6 C 0.1974(8) 0.3782(7) -0.0852(6)
C7 C 0.2655(8) 0.5186(7) -0.0822(6)
H3 H 0.2553 0.5255 -0.1663
Pr1 Pr 0.43637(5) 0.81110(4) -0.28594(4)
O1 O 0.4060(7) 0.8038(5) -0.0670(5)
O2 O 0.4989(7) 0.9151(5) 0.1671(5)
O3 O 0.3838(6) 0.6321(5) 0.4415(4)
O4 O 0.4618(6) 0.4039(5) 0.3121(5)
O5 O 0.1543(6) 0.3848(5) 0.3259(5)
O6 O 0.2300(7) 0.1879(6) -0.3333(5)
O7 O -0.0383(8) 0.2561(6) -0.3161(6)
O8 O 0.0125(7) 0.0908(6) -0.2221(5)
O9 O 0.2968(8) 0.8992(6) -0.4362(5)
H4 H 0.3402 0.9050 -0.5062
H5 H 0.2026 0.9242 -0.4211
O10 O 0.6898(7) 0.8723(6) -0.3988(5)
H6 H 0.7631 0.8235 -0.4120
H7 H 0.7029 0.9412 -0.4237
O11 O 0.1683(6) 0.5703(5) -0.3670(5)
H8 H 0.1797 0.4838 -0.4152
H9 H 0.0692 0.5766 -0.3453
O12 O 0.1513(7) 0.8777(6) -0.1980(6)
H10 H 0.1246 0.8787 -0.1138
H11 H 0.0777 0.9002 -0.2512
O13 O 0.7464(6) 0.9366(5) -0.1133(5)
H12 H 0.8364 0.9145 -0.1428
H13 H 0.7569 1.0007 -0.0275
S1 S 0.3265(2) 0.47894(16) 0.32352(15)
S2 S 0.0916(2) 0.21640(17) -0.25314(16)
Pr1A Pr 0.56363(5) 1.18890(4) 0.28594(4)
Pr1_2 Pr 0.43637(5) 0.81110(4) 0.71406(4)
Pr1A_2 Pr 0.56363(5) 0.18890(4) 0.28594(4)
O2A O 0.5011(7) 1.0849(5) -0.1671(5)
O3_2 O 0.3838(6) 0.6321(5) -0.5585(4)
O4A O 0.5382(6) 0.5961(5) -0.3121(5)
loop_
_geom_bond_atom_site_label_1
_geom_bond_atom_site_label_2
_geom_bond_site_symmetry_1
_geom_bond_site_symmetry_2
C1 C2 1_555 1_555
C2 C3 1_555 1_555
C3 H1 1_555 1_555
C4 C3 1_555 1_555
C5 C4 1_555 1_555
H2 C5 1_555 1_555
C6 C5 1_555 1_555
C7 C2 1_555 1_555
H3 C7 1_555 1_555
Pr1 O1 1_555 1_555
O1 C1 1_555 1_555
O2 C1 1_555 1_555
O3 S1 1_555 1_555
O4 S1 1_555 1_555
O5 S1 1_555 1_555
O6 S2 1_555 1_555
O7 S2 1_555 1_555
O8 S2 1_555 1_555
O9 Pr1 1_555 1_555
H4 O9 1_555 1_555
H5 O9 1_555 1_555
O10 Pr1 1_555 1_555
H6 O10 1_555 1_555
H7 O10 1_555 1_555
O11 Pr1 1_555 1_555
H8 O11 1_555 1_555
H9 O11 1_555 1_555
O12 Pr1 1_555 1_555
H10 O12 1_555 1_555
H11 O12 1_555 1_555
O13 Pr1 1_555 1_555
H12 O13 1_555 1_555
H13 O13 1_555 1_555
S1 C4 1_555 1_555
S2 C6 1_555 1_555
Pr1A O2 1_555 1_555
Pr1_2 O3 1_555 1_555
Pr1A_2 O4 1_555 1_555
O2A Pr1 1_555 1_555
O3_2 Pr1 1_555 1_555
O4A Pr1 1_555 1_555
C6 C7 1_555 1_555

#END
