
#######################################################################
#
#                 Cambridge Crystallographic Data Centre
#                                CCDC 
#
#######################################################################
#
# If this CIF has been generated from an entry in the Cambridge 
# Structural Database, then it will include bibliographic, chemical, 
# crystal, experimental, refinement or atomic coordinate data resulting 
# from the CCDC's data processing and validation procedures.
#
#######################################################################

data_PEJYOU
_symmetry_cell_setting           monoclinic
_symmetry_space_group_name_H-M   'C 2/c'
_symmetry_Int_Tables_number      15
_space_group_name_Hall           '-C 2yn'
loop_
_symmetry_equiv_pos_site_id
_symmetry_equiv_pos_as_xyz
1 x,y,z
2 -x,y,1/2-z
3 1/2+x,1/2+y,z
4 1/2-x,1/2+y,1/2-z
5 -x,-y,-z
6 x,-y,1/2+z
7 1/2-x,1/2-y,-z
8 1/2+x,1/2-y,1/2+z
_cell_length_a                   16.135(3)
_cell_length_b                   17.894(4)
_cell_length_c                   13.461(3)
_cell_angle_alpha                90
_cell_angle_beta                 92.118(3)
_cell_angle_gamma                90
_cell_volume                     3883.8
loop_
_atom_site_label
_atom_site_type_symbol
_atom_site_fract_x
_atom_site_fract_y
_atom_site_fract_z
Cd1 Cd 0.2500 0.2500 0.0000
Cd2 Cd -0.5000 0.503398(16) 0.2500
N1 N 0.01335(12) 0.36808(12) 0.01751(15)
O1 O -0.45281(13) 0.66406(13) 0.47028(16)
N2 N -0.25780(12) 0.44770(13) 0.12241(16)
C1 C -0.20737(15) 0.40782(14) 0.05581(18)
O2 O 0.15666(13) 0.14590(13) -0.02116(17)
H1 H 0.1186 0.1377 0.0335
H2 H 0.1191 0.1492 -0.0800
C2 C -0.07461(14) 0.36942(14) 0.00392(18)
N3 N -0.47657(14) 0.61976(15) 0.40527(17)
N4 N 0.14189(12) 0.33089(13) 0.00420(16)
C3 C -0.11008(15) 0.33176(15) -0.07708(18)
H3 H -0.0775 0.3063 -0.1215
C4 C -0.20479(16) 0.29327(16) -0.26638(19)
H4 H -0.1535 0.3117 -0.2841
N5 N -0.23426(12) 0.29710(12) -0.17379(15)
C5 C -0.12200(15) 0.40742(14) 0.07124(18)
H5 H -0.0971 0.4320 0.1254
C6 C -0.31148(16) 0.26424(16) -0.1775(2)
H6 H -0.3472 0.2588 -0.1254
C7 C 0.06374(15) 0.31374(16) -0.01322(19)
H7 H 0.0455 0.2695 -0.0431
C8 C -0.34010(16) 0.43894(17) 0.1338(2)
H8 H -0.3726 0.4040 0.0993
C9 C -0.24491(15) 0.37144(15) -0.02508(18)
H9 H -0.3022 0.3727 -0.0356
N6 N -0.36850(14) 0.48550(14) 0.19917(19)
C10 C 0.06348(17) 0.42400(17) 0.0559(2)
H10 H 0.0465 0.4693 0.0823
C11 C 0.14182(17) 0.40016(17) 0.0476(2)
H11 H 0.1890 0.4267 0.0682
O3 O -0.43325(13) 0.56431(13) 0.38475(16)
C12 C -0.19552(15) 0.33338(14) -0.08947(17)
O4 O -0.54320(15) 0.62889(17) 0.35763(19)
O5 O -0.52699(14) 0.37756(14) 0.17557(16)
N7 N -0.25780(14) 0.26021(14) -0.32776(16)
C13 C -0.32461(17) 0.24167(17) -0.2722(2)
H12 H -0.3720 0.2171 -0.2964
N8 N -0.5000 0.3412(2) 0.2500
C14 C -0.23354(19) 0.5056(2) 0.1830(3)
H13 H -0.1806 0.5258 0.1906
C15 C -0.30175(19) 0.5273(2) 0.2294(3)
H14 H -0.3032 0.5657 0.2759
O8 O -0.5000 0.2725(2) 0.2500
Cd1A Cd -0.2500 0.2500 -0.5000
Cd1A_2 Cd 0.7500 0.2500 0.5000
Cd2F Cd 1.0000 -0.003398(16) -0.2500
N1F N 0.48665(12) 0.13192(12) -0.01751(15)
O1A O -0.54719(13) 0.66406(13) 0.02972(16)
N2F N 0.75780(12) 0.05230(13) -0.12241(16)
C1F C 0.70737(15) 0.09218(14) -0.05581(18)
O2F O 0.34334(13) 0.35410(13) 0.02116(17)
H1F H 0.3814 0.3623 -0.0335
H2F H 0.3809 0.3508 0.0800
C2F C 0.57461(14) 0.13058(14) -0.00392(18)
N3A N -0.52343(14) 0.61976(15) 0.09473(17)
N4F N 0.35811(12) 0.16911(13) -0.00420(16)
C3F C 0.61008(15) 0.16824(15) 0.07708(18)
H3F H 0.5775 0.1937 0.1215
C4F C 0.70479(16) 0.20673(16) 0.26638(19)
H4F H 0.6535 0.1883 0.2841
N5F N 0.73426(12) 0.20290(12) 0.17379(15)
C5F C 0.62200(15) 0.09258(14) -0.07124(18)
H5F H 0.5971 0.0680 -0.1254
C6F C 0.81148(16) 0.23576(16) 0.1775(2)
H6F H 0.8472 0.2412 0.1254
C7F C 0.43626(15) 0.18626(16) 0.01322(19)
H7F H 0.4545 0.2305 0.0431
C8F C 0.84010(16) 0.06106(17) -0.1338(2)
H8F H 0.8726 0.0960 -0.0993
C9F C 0.74491(15) 0.12856(15) 0.02508(18)
H9F H 0.8022 0.1273 0.0356
N6F N 0.86850(14) 0.01450(14) -0.19917(19)
N6A N -0.63150(14) 0.48550(14) 0.30083(19)
C10F C 0.43652(17) 0.07600(17) -0.0559(2)
H10F H 0.4535 0.0307 -0.0823
C11F C 0.35818(17) 0.09984(17) -0.0476(2)
H11F H 0.3110 0.0733 -0.0682
O3A O -0.56675(13) 0.56431(13) 0.11525(16)
C12F C 0.69552(15) 0.16662(14) 0.08947(17)
O4A O -0.45680(15) 0.62889(17) 0.14237(19)
O5A O -0.47301(14) 0.37756(14) 0.32443(16)
N7F N 0.75780(14) 0.23979(14) 0.32776(16)
N7A N 0.25780(14) 0.26021(14) -0.17224(16)
N7G N 0.24220(14) 0.23979(14) 0.17224(16)
C13F C 0.82461(17) 0.25833(17) 0.2722(2)
H12F H 0.8720 0.2829 0.2964
C14F C 0.73354(19) -0.0056(2) -0.1830(3)
H13F H 0.6806 -0.0258 -0.1906
C15F C 0.80175(19) -0.0273(2) -0.2294(3)
H14F H 0.8032 -0.0657 -0.2759
N9 N 0.0000 0.5611(2) 0.2500
O6 O 0.0000 0.4907(2) 0.2500
O7 O -0.05147(16) 0.59180(18) 0.1979(2)
O7A O 0.05147(16) 0.59180(18) 0.3021(2)
loop_
_geom_bond_atom_site_label_1
_geom_bond_atom_site_label_2
_geom_bond_site_symmetry_1
_geom_bond_site_symmetry_2
Cd1 O2 1_555 1_555
Cd2 N6 1_555 1_555
N1 C2 1_555 1_555
O1 N3 1_555 1_555
N2 C1 1_555 1_555
C1 C5 1_555 1_555
O2 H1 1_555 1_555
H2 O2 1_555 1_555
C2 C3 1_555 1_555
N3 O3 1_555 1_555
N4 Cd1 1_555 1_555
C3 H3 1_555 1_555
C4 H4 1_555 1_555
N5 C4 1_555 1_555
C5 C2 1_555 1_555
H5 C5 1_555 1_555
C6 N5 1_555 1_555
H6 C6 1_555 1_555
C7 N1 1_555 1_555
H7 C7 1_555 1_555
C8 N2 1_555 1_555
H8 C8 1_555 1_555
C9 C1 1_555 1_555
H9 C9 1_555 1_555
N6 C8 1_555 1_555
C10 N1 1_555 1_555
H10 C10 1_555 1_555
C11 N4 1_555 1_555
H11 C11 1_555 1_555
O3 Cd2 1_555 1_555
C12 C3 1_555 1_555
O4 N3 1_555 1_555
O5 Cd2 1_555 1_555
N7 C4 1_555 1_555
C13 C6 1_555 1_555
H12 C13 1_555 1_555
N8 O5 1_555 1_555
C14 N2 1_555 1_555
H13 C14 1_555 1_555
C15 N6 1_555 1_555
H14 C15 1_555 1_555
N9 O6 1_555 1_555
O7 N9 1_555 1_555
O8 N8 1_555 1_555
Cd1A N7 1_555 1_555
Cd1A_2 N7F 1_555 1_555
Cd2F N6F 1_555 1_555
N1F C2F 1_555 1_555
O1A N3A 1_555 1_555
N2F C1F 1_555 1_555
C1F C5F 1_555 1_555
O2F Cd1 1_555 1_555
H1F O2F 1_555 1_555
H2F O2F 1_555 1_555
C2F C3F 1_555 1_555
N3A O3A 1_555 1_555
N4F Cd1 1_555 1_555
C3F H3F 1_555 1_555
C4F H4F 1_555 1_555
N5F C4F 1_555 1_555
C5F C2F 1_555 1_555
H5F C5F 1_555 1_555
C6F N5F 1_555 1_555
H6F C6F 1_555 1_555
C7F N1F 1_555 1_555
H7F C7F 1_555 1_555
C8F N2F 1_555 1_555
H8F C8F 1_555 1_555
C9F C1F 1_555 1_555
H9F C9F 1_555 1_555
N6F C8F 1_555 1_555
N6A Cd2 1_555 1_555
C10F N1F 1_555 1_555
H10F C10F 1_555 1_555
C11F N4F 1_555 1_555
H11F C11F 1_555 1_555
O3A Cd2 1_555 1_555
C12F C3F 1_555 1_555
O4A N3A 1_555 1_555
O5A Cd2 1_555 1_555
N7F C4F 1_555 1_555
N7A Cd1 1_555 1_555
N7G Cd1 1_555 1_555
C13F C6F 1_555 1_555
H12F C13F 1_555 1_555
C14F N2F 1_555 1_555
H13F C14F 1_555 1_555
C15F N6F 1_555 1_555
H14F C15F 1_555 1_555
O7A N9 1_555 1_555
N4 C7 1_555 1_555
N5 C12 1_555 1_555
C9 C12 1_555 1_555
C10 C11 1_555 1_555
N7 C13 1_555 1_555
N8 O5A 1_555 1_555
C14 C15 1_555 1_555
N4F C7F 1_555 1_555
N5F C12F 1_555 1_555
C9F C12F 1_555 1_555
C10F C11F 1_555 1_555
N7F C13F 1_555 1_555
C14F C15F 1_555 1_555

#END
