
#######################################################################
#
#                 Cambridge Crystallographic Data Centre
#                                CCDC 
#
#######################################################################
#
# If this CIF has been generated from an entry in the Cambridge 
# Structural Database, then it will include bibliographic, chemical, 
# crystal, experimental, refinement or atomic coordinate data resulting 
# from the CCDC's data processing and validation procedures.
#
#######################################################################

data_PEKCOX01
_symmetry_cell_setting           orthorhombic
_symmetry_space_group_name_H-M   'P 21 21 21'
_symmetry_Int_Tables_number      19
_space_group_name_Hall           'P 2ac 2ab'
loop_
_symmetry_equiv_pos_site_id
_symmetry_equiv_pos_as_xyz
1 x,y,z
2 1/2-x,-y,1/2+z
3 -x,1/2+y,1/2-z
4 1/2+x,1/2-y,-z
_cell_length_a                   5.2750(10)
_cell_length_b                   8.022(2)
_cell_length_c                   15.865(3)
_cell_angle_alpha                90
_cell_angle_beta                 90
_cell_angle_gamma                90
_cell_volume                     671.344
loop_
_atom_site_label
_atom_site_type_symbol
_atom_site_fract_x
_atom_site_fract_y
_atom_site_fract_z
Li1 Li 0.4597(5) -0.7112(3) -0.34499(16)
O1 O 0.2238(2) -0.52356(12) -0.33200(7)
O2 O 0.4503(2) -0.35145(13) -0.25204(7)
O3 O 0.2611(2) 0.14160(13) -0.41817(6)
N1 N 0.2297(3) -0.08407(14) -0.33121(8)
C1 C 0.2690(3) -0.38323(15) -0.30055(8)
C2 C 0.0895(3) -0.23942(16) -0.32120(9)
C3 C -0.0589(3) -0.25247(18) -0.40448(10)
C4 C -0.0584(3) -0.07592(18) -0.44049(11)
C5 C 0.1610(3) 0.00762(17) -0.39708(9)
H1 H -0.028(4) -0.232(2) -0.2727(11)
H2 H -0.232(4) -0.296(3) -0.3907(13)
H3 H 0.032(4) -0.331(2) -0.4408(14)
H4 H -0.212(4) -0.014(3) -0.4255(12)
H5 H -0.047(4) -0.066(2) -0.4985(15)
H6 H 0.344(4) -0.044(3) -0.2964(13)
O4 O 0.7612(2) -0.65239(16) -0.40323(8)
H7 H 0.905(5) -0.624(3) -0.3883(16)
H8 H 0.765(4) -0.666(3) -0.4565(15)
O2B O 0.5497(2) -0.85145(13) -0.24796(7)
O3_2 O 0.2611(2) -0.85840(13) -0.41817(6)
Li1_2 Li 0.4597(5) 0.2888(3) -0.34499(16)
Li1B Li 0.5403(5) -0.2112(3) -0.15501(16)
loop_
_geom_bond_atom_site_label_1
_geom_bond_atom_site_label_2
_geom_bond_site_symmetry_1
_geom_bond_site_symmetry_2
Li1 O1 1_555 1_555
O1 C1 1_555 1_555
O2 C1 1_555 1_555
O3 C5 1_555 1_555
N1 C2 1_555 1_555
C1 C2 1_555 1_555
C2 C3 1_555 1_555
C3 C4 1_555 1_555
C4 C5 1_555 1_555
C5 N1 1_555 1_555
H1 C2 1_555 1_555
H2 C3 1_555 1_555
H3 C3 1_555 1_555
H4 C4 1_555 1_555
H5 C4 1_555 1_555
H6 N1 1_555 1_555
O4 Li1 1_555 1_555
H7 O4 1_555 1_555
H8 O4 1_555 1_555
O2B Li1 1_555 1_555
O3_2 Li1 1_555 1_555
Li1_2 O3 1_555 1_555
Li1B O2 1_555 1_555

#END
