
#######################################################################
#
#                 Cambridge Crystallographic Data Centre
#                                CCDC 
#
#######################################################################
#
# If this CIF has been generated from an entry in the Cambridge 
# Structural Database, then it will include bibliographic, chemical, 
# crystal, experimental, refinement or atomic coordinate data resulting 
# from the CCDC's data processing and validation procedures.
#
#######################################################################

data_PEKDAM
_symmetry_cell_setting           monoclinic
_symmetry_space_group_name_H-M   'C c'
_symmetry_Int_Tables_number      9
_space_group_name_Hall           'C -2yc'
loop_
_symmetry_equiv_pos_site_id
_symmetry_equiv_pos_as_xyz
1 x,y,z
2 x,-y,1/2+z
3 1/2+x,1/2+y,z
4 1/2+x,1/2-y,1/2+z
_cell_length_a                   26.4180(14)
_cell_length_b                   10.3733(6)
_cell_length_c                   34.2804(18)
_cell_angle_alpha                90
_cell_angle_beta                 103.1380(10)
_cell_angle_gamma                90
_cell_volume                     9148.37
loop_
_atom_site_label
_atom_site_type_symbol
_atom_site_fract_x
_atom_site_fract_y
_atom_site_fract_z
Mn1 Mn 1.16762(3) 0.23200(7) 0.16207(3)
Mn2 Mn 1.10180(2) -0.07657(7) 0.14474(2)
Mn3 Mn 1.23421(3) 0.54061(7) 0.18162(2)
N1 N 1.3256(2) 0.6268(6) 0.09587(18)
N2 N 1.0140(2) -0.1736(5) 0.23306(16)
C1 C 0.9962(2) 0.5348(6) -0.11299(17)
C2 C 1.0304(2) 0.6214(6) -0.13319(17)
H1 H 1.0407 0.6984 -0.1173
H2 H 1.0113 0.6472 -0.1596
C3 C 1.0278(2) 0.4697(6) -0.07575(17)
H3 H 1.0544 0.4155 -0.0826
H4 H 1.0055 0.4163 -0.0636
C4 C 0.9540(2) 0.6188(5) -0.10266(17)
H5 H 0.9337 0.6567 -0.1268
H6 H 0.9697 0.6858 -0.0846
C5 C 0.9713(2) 0.4278(6) -0.14195(18)
H7 H 0.9508 0.3711 -0.1292
H8 H 0.9979 0.3771 -0.1502
C6 C 1.0939(2) 0.5548(5) -0.16961(16)
C7 C 1.0851(2) 0.6527(5) -0.19752(17)
H9 H 1.0637 0.7217 -0.1947
C8 C 1.1087(2) 0.6471(5) -0.23009(16)
H10 H 1.1032 0.7134 -0.2488
C9 C 1.1398(2) 0.5450(5) -0.23477(16)
C10 C 1.1489(3) 0.4491(6) -0.20625(19)
H11 H 1.1705 0.3805 -0.2091
C11 C 1.1265(2) 0.4528(6) -0.17341(18)
H12 H 1.1332 0.3880 -0.1542
C12 C 1.1645(2) 0.5356(5) -0.27054(17)
C13 C 1.0784(2) 0.5343(6) -0.01128(17)
C14 C 1.0909(3) 0.4105(6) 0.00109(18)
H13 H 1.0801 0.3414 -0.0161
C15 C 1.1203(2) 0.3900(5) 0.04029(17)
H14 H 1.1298 0.3066 0.0488
C16 C 1.1352(2) 0.4918(5) 0.06616(16)
C17 C 1.1215(2) 0.6173(5) 0.05309(15)
H15 H 1.1310 0.6866 0.0704
C18 C 1.0939(2) 0.6380(5) 0.01458(16)
H16 H 1.0855 0.7217 0.0057
C19 C 1.1666(2) 0.4721(5) 0.10794(17)
C20 C 0.9022(2) 0.4164(5) -0.20055(16)
C21 C 0.8649(2) 0.4870(5) -0.22726(16)
H17 H 0.8660 0.5767 -0.2271
C22 C 0.82585(19) 0.4224(5) -0.25425(16)
H18 H 0.8010 0.4690 -0.2724
C23 C 0.82381(19) 0.2891(5) -0.25430(16)
C24 C 0.8615(2) 0.2200(5) -0.22745(17)
H19 H 0.8607 0.1304 -0.2278
C25 C 0.9004(2) 0.2837(5) -0.20008(17)
H20 H 0.9250 0.2373 -0.1817
C26 C 0.78075(19) 0.2192(5) -0.28333(16)
C27 C 0.8429(2) 0.5074(6) -0.06303(16)
C28 C 0.8712(2) 0.3971(6) -0.03804(17)
H21 H 0.8464 0.3364 -0.0314
H22 H 0.8931 0.3518 -0.0527
C29 C 0.8095(2) 0.5794(7) -0.03947(18)
H23 H 0.8305 0.6091 -0.0141
H24 H 0.7930 0.6534 -0.0545
C30 C 0.8107(2) 0.4534(6) -0.10128(18)
H25 H 0.8329 0.4116 -0.1164
H26 H 0.7864 0.3901 -0.0955
C31 C 0.8823(2) 0.6047(6) -0.07265(19)
H27 H 0.8647 0.6680 -0.0918
H28 H 0.8998 0.6494 -0.0485
C32 C 0.9370(2) 0.3787(6) 0.02300(18)
C33 C 0.9392(2) 0.2452(6) 0.02177(19)
H29 H 0.9161 0.1990 0.0023
C34 C 0.9770(2) 0.1820(6) 0.05051(18)
H30 H 0.9780 0.0924 0.0504
C35 C 1.0126(2) 0.2477(5) 0.07895(16)
C36 C 1.0098(2) 0.3824(5) 0.07922(17)
H31 H 1.0338 0.4292 0.0980
C37 C 0.9721(2) 0.4457(6) 0.05201(18)
H32 H 0.9701 0.5351 0.0530
C38 C 1.0546(2) 0.1785(5) 0.10873(16)
C39 C 0.7482(2) 0.5006(7) -0.00074(16)
C40 C 0.7527(2) 0.6048(6) 0.02368(17)
H33 H 0.7720 0.6759 0.0190
C41 C 0.7283(2) 0.6051(5) 0.05597(17)
H34 H 0.7322 0.6753 0.0733
C42 C 0.6981(2) 0.4999(5) 0.06215(16)
C43 C 0.6936(3) 0.3978(6) 0.03614(19)
H35 H 0.6729 0.3280 0.0396
C44 C 0.7189(3) 0.3956(6) 0.00486(19)
H36 H 0.7161 0.3245 -0.0120
C45 C 0.6731(2) 0.4964(5) 0.09681(16)
C46 C 0.7565(2) 0.5357(6) -0.16251(17)
C47 C 0.7440(2) 0.4145(5) -0.17999(17)
H37 H 0.7552 0.3400 -0.1655
C48 C 0.7150(2) 0.4062(5) -0.21857(18)
H38 H 0.7054 0.3256 -0.2296
C49 C 0.69974(19) 0.5160(5) -0.24144(16)
C50 C 0.7138(2) 0.6379(5) -0.22359(16)
H39 H 0.7044 0.7125 -0.2385
C51 C 0.7414(2) 0.6473(5) -0.18422(17)
H40 H 0.7497 0.7276 -0.1725
C52 C 0.66937(19) 0.5096(5) -0.28311(16)
C53 C 1.2880(3) 0.5984(8) 0.1135(2)
H41 H 1.2545 0.6178 0.0995
C54 C 1.3193(4) 0.6826(15) 0.0569(3)
H42 H 1.2830 0.6903 0.0446
H43 H 1.3357 0.6284 0.0406
H44 H 1.3351 0.7664 0.0592
C55 C 1.3784(3) 0.6065(11) 0.1176(3)
H45 H 1.3786 0.5697 0.1433
H46 H 1.3965 0.6875 0.1211
H47 H 1.3954 0.5488 0.1027
C56 C 1.0504(2) -0.1559(6) 0.21338(19)
H48 H 1.0822 -0.1965 0.2229
C57 C 1.0230(3) -0.2583(10) 0.2675(2)
H49 H 1.0581 -0.2896 0.2728
H50 H 0.9994 -0.3297 0.2622
H51 H 1.0176 -0.2116 0.2904
C58 C 0.9643(3) -0.1182(10) 0.2199(3)
H52 H 0.9640 -0.0642 0.1971
H53 H 0.9563 -0.0674 0.2411
H54 H 0.9389 -0.1853 0.2126
O1 O 1.08607(15) -0.2823(3) 0.13609(12)
O2 O 0.91874(18) 0.5356(4) -0.08880(15)
O3 O 1.25177(14) 0.7453(3) 0.19086(12)
O4 O 1.07449(15) 0.5491(5) -0.13601(12)
O5 O 1.05121(17) 0.5694(4) -0.04851(12)
O6 O 0.93916(16) 0.4896(4) -0.17562(12)
O7 O 1.15415(14) 0.6211(3) -0.29681(12)
O8 O 1.19333(15) 0.4409(4) -0.27197(12)
O9 O 1.18705(14) 0.3648(3) 0.11849(11)
O10 O 1.17191(13) 0.5693(3) 0.13130(11)
O11 O 0.78283(15) 0.0973(4) -0.28339(13)
O12 O 0.74646(13) 0.2864(3) -0.30484(11)
O13 O 0.90201(16) 0.4538(4) -0.00233(13)
O14 O 0.77068(16) 0.4881(5) -0.03305(12)
O15 O 0.78338(17) 0.5573(4) -0.12370(13)
O16 O 1.08853(14) 0.2476(4) 0.13050(11)
O17 O 1.05173(15) 0.0577(4) 0.10964(12)
O18 O 0.68329(14) 0.5841(4) 0.12256(12)
O19 O 0.64248(16) 0.4037(4) 0.09832(12)
O20 O 0.64583(14) 0.4078(4) -0.29683(12)
O21 O 0.66493(14) 0.6114(3) -0.30455(11)
O22 O 1.29230(17) 0.5502(4) 0.14579(13)
O23 O 1.04537(15) -0.0888(4) 0.18286(13)
Mn1A Mn 1.16762(3) 0.76800(7) -0.33793(3)
Mn1B Mn 0.66762(3) 0.73200(7) 0.16207(3)
Mn1C Mn 0.66762(3) 0.26800(7) -0.33793(3)
Mn2B Mn 0.60180(2) 0.42343(7) 0.14474(2)
Mn2C Mn 0.60180(2) 0.57657(7) -0.35526(2)
Mn3A Mn 1.23421(3) 0.45939(7) -0.31838(2)
Mn3C Mn 0.73421(3) -0.04061(7) -0.31838(2)
O7A O 1.15415(14) 0.3789(3) 0.20319(12)
O8A O 1.19333(15) 0.5591(4) 0.22803(12)
O11C O 1.28283(15) 0.4027(4) 0.21661(13)
O12C O 1.24646(13) 0.2136(3) 0.19516(11)
O18B O 1.18329(14) 0.0841(4) 0.12256(12)
O19B O 1.14248(16) -0.0963(4) 0.09832(12)
O20C O 1.14583(14) 0.0922(4) 0.20317(12)
O21C O 1.16493(14) -0.1114(3) 0.19545(11)
N3 N 0.3369(2) 0.0735(5) 0.13022(17)
C59 C 0.3069(2) -0.0039(6) 0.1457(2)
H55 H 0.2805 0.0335 0.1558
C60 C 0.3790(4) 0.0273(8) 0.1122(3)
H56 H 0.3800 -0.0652 0.1129
H57 H 0.4116 0.0610 0.1270
H58 H 0.3728 0.0560 0.0849
C61 C 0.3304(3) 0.2126(6) 0.1308(2)
H59 H 0.3027 0.2332 0.1437
H60 H 0.3221 0.2448 0.1039
H61 H 0.3620 0.2516 0.1453
O24 O 0.31136(17) -0.1219(4) 0.14773(16)
N4 N 0.3847(2) 0.6407(5) 0.2760(2)
C62 C 0.4328(4) 0.6341(8) 0.3015(3)
H62 H 0.4340 0.6253 0.3287
C63 C 0.3788(3) 0.6482(7) 0.2339(3)
H63 H 0.4124 0.6449 0.2276
H64 H 0.3619 0.7276 0.2242
H65 H 0.3581 0.5770 0.2213
C64 C 0.3378(4) 0.6427(9) 0.2913(3)
H66 H 0.3469 0.6367 0.3200
H67 H 0.3161 0.5711 0.2805
H68 H 0.3193 0.7218 0.2835
O25 O 0.4735(2) 0.6389(7) 0.2914(2)
N5 N -0.00216(19) 0.3865(5) 0.19512(16)
C65 C 0.0287(2) 0.4643(6) 0.18017(18)
H69 H 0.0559 0.4263 0.1713
C66 C -0.0441(3) 0.4385(8) 0.2095(3)
H70 H -0.0442 0.5307 0.2070
H71 H -0.0403 0.4156 0.2371
H72 H -0.0763 0.4045 0.1941
C67 C 0.0053(3) 0.2484(6) 0.1966(2)
H73 H 0.0349 0.2269 0.1860
H74 H -0.0251 0.2070 0.1810
H75 H 0.0111 0.2196 0.2239
O26 O 0.02440(18) 0.5814(4) 0.17704(15)
N6 N 0.0391(6) 0.9459(14) 0.4403(5)
C68 C 0.0365(7) 0.8756(17) 0.4015(6)
H76 H 0.0650 0.8297 0.3973
C69 C 0.0823(7) 0.9454(19) 0.4781(6)
H77 H 0.0728 1.0000 0.4979
H78 H 0.1138 0.9767 0.4720
H79 H 0.0876 0.8590 0.4883
C70 C -0.0058(17) 0.997(5) 0.4416(16)
H80 H -0.0275 1.0008 0.4151
H81 H -0.0005 1.0829 0.4524
H82 H -0.0224 0.9456 0.4584
O27 O -0.0044(5) 0.8802(12) 0.3752(4)
N7 N 0.8126(4) 1.0033(9) 0.8787(3)
C71 C 0.8233(8) 0.9134(13) 0.9052(6)
H83 H 0.7996 0.8497 0.9080
C72 C 0.8496(6) 1.1162(14) 0.8785(5)
H84 H 0.8839 1.0925 0.8928
H85 H 0.8380 1.1895 0.8911
H86 H 0.8502 1.1375 0.8513
C73 C 0.7588(5) 1.0165(16) 0.8568(8)
H87 H 0.7405 0.9378 0.8588
H88 H 0.7578 1.0345 0.8292
H89 H 0.7427 1.0860 0.8680
O28 O 0.8732(7) 0.9195(14) 0.9291(4)
N8 N 0.7290(3) 0.0218(7) 0.9557(3)
C74 C 0.7707(5) 0.0867(13) 0.9572(4)
H90 H 0.8027 0.0593 0.9723
C75 C 0.7314(5) -0.0882(14) 0.9816(4)
H91 H 0.7669 -0.1044 0.9949
H92 H 0.7175 -0.1623 0.9661
H93 H 0.7114 -0.0713 1.0012
C76 C 0.6785(4) 0.0485(11) 0.9350(3)
H94 H 0.6783 0.1252 0.9192
H95 H 0.6569 0.0614 0.9537
H96 H 0.6653 -0.0225 0.9177
O29 O 0.7659(4) 0.1940(8) 0.9363(3)
N9 N 0.6436(3) 0.5093(7) 0.8740(2)
C77 C 0.6680(5) 0.6020(10) 0.8980(3)
H97 H 0.6916 0.5771 0.9212
C78 C 0.6535(3) 0.3739(9) 0.8841(3)
H98 H 0.6769 0.3671 0.9099
H99 H 0.6687 0.3336 0.8643
H100 H 0.6213 0.3317 0.8848
C79 C 0.6092(4) 0.5329(14) 0.8347(3)
H101 H 0.6052 0.6241 0.8303
H102 H 0.5758 0.4948 0.8339
H103 H 0.6240 0.4953 0.8143
O30 O 0.6617(5) 0.7173(8) 0.8915(3)
N10 N 0.9484(2) 0.8216(6) 0.0541(2)
C80 C 0.9023(4) 0.8321(8) 0.0302(3)
H104 H 0.9007 0.8337 0.0028
C81 C 0.9546(3) 0.8248(8) 0.0968(3)
H105 H 0.9211 0.8306 0.1031
H106 H 0.9752 0.8983 0.1076
H107 H 0.9718 0.7475 0.1083
C82 C 0.9954(3) 0.8110(9) 0.0393(3)
H108 H 0.9866 0.8106 0.0105
H109 H 1.0130 0.7323 0.0489
H110 H 1.0177 0.8830 0.0487
O31 O 0.8602(2) 0.8402(7) 0.0407(2)
loop_
_geom_bond_atom_site_label_1
_geom_bond_atom_site_label_2
_geom_bond_site_symmetry_1
_geom_bond_site_symmetry_2
Mn1 O9 1_555 1_555
Mn2 O1 1_555 1_555
Mn3 O3 1_555 1_555
N1 C53 1_555 1_555
N2 C56 1_555 1_555
N3 C59 1_555 1_555
N4 C62 1_555 1_555
N5 C65 1_555 1_555
N6 C68 1_555 1_555
N7 C71 1_555 1_555
N8 C74 1_555 1_555
N9 C77 1_555 1_555
N10 C80 1_555 1_555
C1 C2 1_555 1_555
C2 H1 1_555 1_555
H2 C2 1_555 1_555
C3 C1 1_555 1_555
H3 C3 1_555 1_555
H4 C3 1_555 1_555
C4 C1 1_555 1_555
H5 C4 1_555 1_555
H6 C4 1_555 1_555
C5 C1 1_555 1_555
H7 C5 1_555 1_555
H8 C5 1_555 1_555
C6 C7 1_555 1_555
C7 H9 1_555 1_555
C8 C7 1_555 1_555
H10 C8 1_555 1_555
C9 C8 1_555 1_555
C10 C9 1_555 1_555
H11 C10 1_555 1_555
C11 C6 1_555 1_555
H12 C11 1_555 1_555
C12 C9 1_555 1_555
C13 C14 1_555 1_555
C14 H13 1_555 1_555
C15 C14 1_555 1_555
H14 C15 1_555 1_555
C16 C15 1_555 1_555
C17 C16 1_555 1_555
H15 C17 1_555 1_555
C18 C13 1_555 1_555
H16 C18 1_555 1_555
C19 C16 1_555 1_555
C20 C21 1_555 1_555
C21 H17 1_555 1_555
C22 C21 1_555 1_555
H18 C22 1_555 1_555
C23 C22 1_555 1_555
C24 C23 1_555 1_555
H19 C24 1_555 1_555
C25 C20 1_555 1_555
H20 C25 1_555 1_555
C26 C23 1_555 1_555
C27 C28 1_555 1_555
C28 H21 1_555 1_555
H22 C28 1_555 1_555
C29 C27 1_555 1_555
H23 C29 1_555 1_555
H24 C29 1_555 1_555
C30 C27 1_555 1_555
H25 C30 1_555 1_555
H26 C30 1_555 1_555
C31 C27 1_555 1_555
H27 C31 1_555 1_555
H28 C31 1_555 1_555
C32 C33 1_555 1_555
C33 H29 1_555 1_555
C34 C33 1_555 1_555
H30 C34 1_555 1_555
C35 C34 1_555 1_555
C36 C35 1_555 1_555
H31 C36 1_555 1_555
C37 C32 1_555 1_555
H32 C37 1_555 1_555
C38 C35 1_555 1_555
C39 C40 1_555 1_555
C40 H33 1_555 1_555
C41 C40 1_555 1_555
H34 C41 1_555 1_555
C42 C41 1_555 1_555
C43 C42 1_555 1_555
H35 C43 1_555 1_555
C44 C39 1_555 1_555
H36 C44 1_555 1_555
C45 C42 1_555 1_555
C46 C47 1_555 1_555
C47 H37 1_555 1_555
C48 C47 1_555 1_555
H38 C48 1_555 1_555
C49 C48 1_555 1_555
C50 C49 1_555 1_555
H39 C50 1_555 1_555
C51 C46 1_555 1_555
H40 C51 1_555 1_555
C52 C49 1_555 1_555
C53 H41 1_555 1_555
C54 N1 1_555 1_555
H42 C54 1_555 1_555
H43 C54 1_555 1_555
H44 C54 1_555 1_555
C55 N1 1_555 1_555
H45 C55 1_555 1_555
H46 C55 1_555 1_555
H47 C55 1_555 1_555
C56 H48 1_555 1_555
C57 N2 1_555 1_555
H49 C57 1_555 1_555
H50 C57 1_555 1_555
H51 C57 1_555 1_555
C58 N2 1_555 1_555
H52 C58 1_555 1_555
H53 C58 1_555 1_555
H54 C58 1_555 1_555
C59 H55 1_555 1_555
C60 N3 1_555 1_555
H56 C60 1_555 1_555
H57 C60 1_555 1_555
H58 C60 1_555 1_555
C61 N3 1_555 1_555
H59 C61 1_555 1_555
H60 C61 1_555 1_555
H61 C61 1_555 1_555
C62 H62 1_555 1_555
C63 N4 1_555 1_555
H63 C63 1_555 1_555
H64 C63 1_555 1_555
H65 C63 1_555 1_555
C64 N4 1_555 1_555
H66 C64 1_555 1_555
H67 C64 1_555 1_555
H68 C64 1_555 1_555
C65 H69 1_555 1_555
C66 N5 1_555 1_555
H70 C66 1_555 1_555
H71 C66 1_555 1_555
H72 C66 1_555 1_555
C67 N5 1_555 1_555
H73 C67 1_555 1_555
H74 C67 1_555 1_555
H75 C67 1_555 1_555
C68 H76 1_555 1_555
C69 N6 1_555 1_555
H77 C69 1_555 1_555
H78 C69 1_555 1_555
H79 C69 1_555 1_555
C70 N6 1_555 1_555
H80 C70 1_555 1_555
H81 C70 1_555 1_555
H82 C70 1_555 1_555
C71 H83 1_555 1_555
C72 N7 1_555 1_555
H84 C72 1_555 1_555
H85 C72 1_555 1_555
H86 C72 1_555 1_555
C73 N7 1_555 1_555
H87 C73 1_555 1_555
H88 C73 1_555 1_555
H89 C73 1_555 1_555
C74 H90 1_555 1_555
C75 N8 1_555 1_555
H91 C75 1_555 1_555
H92 C75 1_555 1_555
H93 C75 1_555 1_555
C76 N8 1_555 1_555
H94 C76 1_555 1_555
H95 C76 1_555 1_555
H96 C76 1_555 1_555
C77 H97 1_555 1_555
C78 N9 1_555 1_555
H98 C78 1_555 1_555
H99 C78 1_555 1_555
H100 C78 1_555 1_555
C79 N9 1_555 1_555
H101 C79 1_555 1_555
H102 C79 1_555 1_555
H103 C79 1_555 1_555
C80 H104 1_555 1_555
C81 N10 1_555 1_555
H105 C81 1_555 1_555
H106 C81 1_555 1_555
H107 C81 1_555 1_555
C82 N10 1_555 1_555
H108 C82 1_555 1_555
H109 C82 1_555 1_555
H110 C82 1_555 1_555
O2 C4 1_555 1_555
O4 C2 1_555 1_555
O5 C3 1_555 1_555
O6 C5 1_555 1_555
O7 C12 1_555 1_555
O8 C12 1_555 1_555
O9 C19 1_555 1_555
O10 Mn3 1_555 1_555
O11 C26 1_555 1_555
O12 C26 1_555 1_555
O13 C28 1_555 1_555
O14 C29 1_555 1_555
O15 C30 1_555 1_555
O16 Mn1 1_555 1_555
O17 Mn2 1_555 1_555
O18 C45 1_555 1_555
O19 C45 1_555 1_555
O20 C52 1_555 1_555
O21 C52 1_555 1_555
O22 Mn3 1_555 1_555
O23 Mn2 1_555 1_555
O24 C59 1_555 1_555
O25 C62 1_555 1_555
O26 C65 1_555 1_555
O27 C68 1_555 1_555
O28 C71 1_555 1_555
O29 C74 1_555 1_555
O30 C77 1_555 1_555
O31 C80 1_555 1_555
Mn1A O7 1_555 1_555
Mn1B O18 1_555 1_555
Mn1C O12 1_555 1_555
Mn2B O19 1_555 1_555
Mn2C O21 1_555 1_555
Mn3A O8 1_555 1_555
Mn3C O11 1_555 1_555
O7A Mn1 1_555 1_555
O8A Mn3 1_555 1_555
O11C Mn3 1_555 1_555
O12C Mn1 1_555 1_555
O18B Mn1 1_555 1_555
O19B Mn2 1_555 1_555
O20C Mn1 1_555 1_555
O21C Mn2 1_555 1_555
C6 O4 1_555 1_555
C10 C11 1_555 1_555
C13 O5 1_555 1_555
C17 C18 1_555 1_555
C19 O10 1_555 1_555
C20 O6 1_555 1_555
C24 C25 1_555 1_555
C31 O2 1_555 1_555
C32 O13 1_555 1_555
C36 C37 1_555 1_555
C38 O16 1_555 1_555
C38 O17 1_555 1_555
C39 O14 1_555 1_555
C43 C44 1_555 1_555
C46 O15 1_555 1_555
C50 C51 1_555 1_555
C53 O22 1_555 1_555
C56 O23 1_555 1_555
O20 Mn1C 1_555 1_555

#END
