
#######################################################################
#
#                 Cambridge Crystallographic Data Centre
#                                CCDC 
#
#######################################################################
#
# If this CIF has been generated from an entry in the Cambridge 
# Structural Database, then it will include bibliographic, chemical, 
# crystal, experimental, refinement or atomic coordinate data resulting 
# from the CCDC's data processing and validation procedures.
#
#######################################################################

data_PEKGAO
_symmetry_cell_setting           monoclinic
_symmetry_space_group_name_H-M   'C 2/c'
_symmetry_Int_Tables_number      15
_space_group_name_Hall           '-C 2yn'
loop_
_symmetry_equiv_pos_site_id
_symmetry_equiv_pos_as_xyz
1 x,y,z
2 1/2+x,1/2+y,z
3 -x,y,1/2-z
4 1/2-x,1/2+y,1/2-z
5 -x,-y,-z
6 1/2-x,1/2-y,-z
7 x,-y,1/2+z
8 1/2+x,1/2-y,1/2+z
_cell_length_a                   28.1000(5)
_cell_length_b                   6.31010(10)
_cell_length_c                   14.8359(3)
_cell_angle_alpha                90
_cell_angle_beta                 121.5640(10)
_cell_angle_gamma                90
_cell_volume                     2241.43
loop_
_atom_site_label
_atom_site_type_symbol
_atom_site_fract_x
_atom_site_fract_y
_atom_site_fract_z
Zn1 Zn 0.802403(17) 0.15002(6) 0.50793(3)
Zn2 Zn 0.815180(16) 0.63955(6) 0.50143(3)
Zn3 Zn 1.248270(15) 0.07762(7) 0.74759(3)
O1 O 1.16624(11) 0.1454(4) 0.7027(2)
O2 O 1.17314(10) 0.4973(4) 0.72695(19)
O3 O 0.89097(11) 0.5682(4) 0.5392(2)
O4 O 0.88801(11) 0.2209(5) 0.5672(2)
O5 O 0.75605(10) 0.6698(4) 0.35376(18)
O6 O 0.78800(10) 0.1784(4) 0.36214(18)
O7 O 0.82671(10) -0.1123(4) 0.58964(19)
O8 O 0.71573(10) 0.0785(4) 0.44656(19)
C1 C 1.08564(15) 0.3390(5) 0.6657(3)
C2 C 1.06211(16) 0.5343(6) 0.6620(4)
H1 H 1.086(3) 0.668(9) 0.667(5)
C3 C 1.00641(16) 0.5505(6) 0.6302(4)
H2 H 0.990(2) 0.680(9) 0.614(4)
C4 C 0.97341(15) 0.3695(6) 0.6038(3)
C5 C 0.99696(17) 0.1742(6) 0.6080(4)
H3 H 0.973(2) 0.049(8) 0.580(4)
C6 C 1.05230(17) 0.1579(6) 0.6373(4)
H4 H 1.066(3) 0.031(11) 0.627(5)
C7 C 1.14587(14) 0.3251(5) 0.6993(3)
C8 C 0.91274(15) 0.3856(6) 0.5677(3)
Zn1E Zn 0.697597(17) 0.34998(6) 0.49207(3)
Zn2_2 Zn 0.815180(16) -0.36045(6) 0.50143(3)
Zn2E Zn 0.684820(16) -0.13955(6) 0.49857(3)
Zn3C Zn 1.251730(15) 0.57762(7) 0.75241(3)
Zn3G Zn 0.748270(15) 0.42238(7) 0.24759(3)
Zn3D Zn 0.751730(15) 0.92238(7) 0.25241(3)
Zn3D_2 Zn 0.751730(15) -0.07762(7) 0.25241(3)
O2C O 1.32686(10) -0.0027(4) 0.77305(19)
O5G O 1.25605(10) -0.1698(4) 0.85376(18)
O5D O 1.24395(10) 0.3302(4) 0.64624(18)
O6G O 1.28800(10) 0.3216(4) 0.86214(18)
O6D O 1.21200(10) -0.1784(4) 0.63786(18)
O7_2 O 0.82671(10) 0.8877(4) 0.58964(19)
O8E O 0.78427(10) 0.4215(4) 0.55344(19)
loop_
_geom_bond_atom_site_label_1
_geom_bond_atom_site_label_2
_geom_bond_site_symmetry_1
_geom_bond_site_symmetry_2
Zn1 O4 1_555 1_555
Zn2 O3 1_555 1_555
Zn3 O1 1_555 1_555
O1 C7 1_555 1_555
O2 C7 1_555 1_555
O3 C8 1_555 1_555
O4 C8 1_555 1_555
O5 Zn2 1_555 1_555
O6 Zn1 1_555 1_555
O7 Zn1 1_555 1_555
O8 Zn1 1_555 1_555
C1 C2 1_555 1_555
C2 H1 1_555 1_555
C3 C2 1_555 1_555
H2 C3 1_555 1_555
C4 C3 1_555 1_555
C5 C4 1_555 1_555
H3 C5 1_555 1_555
C6 C1 1_555 1_555
H4 C6 1_555 1_555
C7 C1 1_555 1_555
C8 C4 1_555 1_555
Zn1E O8 1_555 1_555
Zn2_2 O7 1_555 1_555
Zn2E O8 1_555 1_555
Zn3C O2 1_555 1_555
Zn3G O5 1_555 1_555
Zn3D O5 1_555 1_555
Zn3D_2 O6 1_555 1_555
O2C Zn3 1_555 1_555
O5G Zn3 1_555 1_555
O5D Zn3 1_555 1_555
O6G Zn3 1_555 1_555
O6D Zn3 1_555 1_555
O7_2 Zn2 1_555 1_555
O8E Zn1 1_555 1_555
Zn2 O8E 1_555 1_555
O6 Zn3G 1_555 1_555
C5 C6 1_555 1_555
Zn1E O8E 1_555 1_555
Zn3C O5D 1_555 1_555
Zn3C O6G 1_555 1_555

#END
