
#######################################################################
#
#                 Cambridge Crystallographic Data Centre
#                                CCDC 
#
#######################################################################
#
# If this CIF has been generated from an entry in the Cambridge 
# Structural Database, then it will include bibliographic, chemical, 
# crystal, experimental, refinement or atomic coordinate data resulting 
# from the CCDC's data processing and validation procedures.
#
#######################################################################

data_PEKGOD
_symmetry_cell_setting           monoclinic
_symmetry_space_group_name_H-M   'P 21/c'
_symmetry_Int_Tables_number      14
_space_group_name_Hall           '-P 2ybc'
loop_
_symmetry_equiv_pos_site_id
_symmetry_equiv_pos_as_xyz
1 x,y,z
2 -x,1/2+y,1/2-z
3 -x,-y,-z
4 x,1/2-y,1/2+z
_cell_length_a                   10.6989(19)
_cell_length_b                   12.978(2)
_cell_length_c                   20.804(3)
_cell_angle_alpha                90
_cell_angle_beta                 120.242(6)
_cell_angle_gamma                90
_cell_volume                     2495.51
loop_
_atom_site_label
_atom_site_type_symbol
_atom_site_fract_x
_atom_site_fract_y
_atom_site_fract_z
Eu1 Eu 0.57318(3) 0.85782(2) 1.008309(16)
Co1 Co 0.53231(9) 0.84747(6) 0.77193(4)
O1 O 0.5213(4) 0.8882(3) 0.8721(2)
O2 O 0.4537(5) 1.0115(3) 0.9204(2)
O3 O 0.4749(6) 1.2330(4) 0.9124(3)
O4 O 0.4560(5) 1.3338(3) 0.8230(2)
O5 O 0.7393(5) 0.9933(4) 1.0237(3)
O6 O 0.6914(5) 1.1487(4) 1.0530(3)
O7 O 0.8061(6) 0.8247(5) 1.1254(3)
O8 O 0.7897(5) 0.7710(4) 1.0215(3)
N1 N 0.5068(5) 1.0099(4) 0.7628(3)
N2 N 0.4713(6) 1.1802(4) 0.7429(3)
N3 N 0.5030(7) 1.1794(4) 0.5523(3)
N4 N 1.2323(6) 1.1435(4) 1.1591(3)
N5 N 1.2967(6) 0.6716(4) 1.2137(3)
C1 C 0.4842(6) 0.9815(5) 0.8719(3)
C2 C 0.4803(6) 1.0512(5) 0.8160(3)
C3 C 0.4635(7) 1.1572(5) 0.8050(3)
C4 C 0.4611(7) 1.2462(5) 0.8493(4)
C5 C 0.5007(7) 1.0902(5) 0.7211(3)
C6 C 0.5368(7) 1.0894(5) 0.6612(3)
C7 C 0.6473(8) 1.0317(5) 0.6637(4)
H1 H 0.6979 0.9843 0.7017
C8 C 0.4680(8) 1.1596(5) 0.6041(4)
H2 H 0.3909 1.1962 0.6015
C9 C 0.6816(10) 1.0460(6) 0.6076(5)
H3 H 0.7526 1.0065 0.6061
C10 C 0.6068(10) 1.1205(6) 0.5546(5)
H4 H 0.6307 1.1302 0.5178
C11 C 0.7753(7) 1.0820(5) 1.0525(4)
C12 C 0.9355(7) 1.1065(5) 1.0890(4)
C13 C 0.9943(7) 1.1979(6) 1.1258(4)
H5 H 0.9349 1.2489 1.1274
C14 C 1.0292(7) 1.0352(6) 1.0870(4)
H6 H 0.9943 0.9728 1.0624
C15 C 1.1426(8) 1.2132(6) 1.1604(4)
H7 H 1.1808 1.2748 1.1856
C16 C 1.1734(7) 1.0571(6) 1.1214(4)
H8 H 1.2344 1.0087 1.1184
C17 C 0.8600(8) 0.7807(6) 1.0907(4)
C18 C 1.0126(8) 0.7409(6) 1.1336(4)
C19 C 1.0873(8) 0.7411(6) 1.2100(4)
H9 H 1.0440 0.7653 1.2362
C20 C 1.0802(9) 0.7045(7) 1.0974(4)
H10 H 1.0321 0.7021 1.0457
C21 C 1.2269(8) 0.7052(6) 1.2472(4)
H11 H 1.2753 0.7043 1.2989
C22 C 1.2226(8) 0.6711(7) 1.1397(4)
H12 H 1.2686 0.6470 1.1148
Eu1B Eu 0.42682(3) 1.14218(2) 0.991691(16)
Eu1A Eu 0.42682(3) 1.35782(2) 0.491691(16)
Co1A Co 0.46769(9) 1.34747(6) 0.72807(4)
Co1B Co 1.46769(9) 1.15253(6) 1.22807(4)
Co1C Co 1.53231(9) 0.65253(6) 1.27193(4)
O2B O 0.5463(5) 0.9885(3) 1.0796(2)
O3B O 0.5251(6) 0.7670(4) 1.0876(3)
O4A O 0.5440(5) 0.8338(3) 0.6770(2)
O6B O 0.3086(5) 0.8513(4) 0.9470(3)
N2A N 0.5287(6) 0.6802(4) 0.7571(3)
N3A N 0.4970(7) 0.6794(4) 0.9477(3)
N4B N 0.7677(6) 0.8565(4) 0.8409(3)
N5C N 0.2967(6) 0.8284(4) 0.7137(3)
O9 O 0.0840(14) 0.4557(11) 0.2488(8)
H13 H 0.1495 0.4881 0.2485
H14 H 0.0753 0.4014 0.2259
O10 O 0.807(4) 0.546(3) 0.977(3)
H15 H 0.8280 0.6002 0.9680
H16 H 0.7732 0.5534 1.0055
O11 O 0.040(4) 0.441(3) 0.104(2)
H17 H 0.0834 0.4992 0.1175
H18 H 0.0754 0.3997 0.1359
loop_
_geom_bond_atom_site_label_1
_geom_bond_atom_site_label_2
_geom_bond_site_symmetry_1
_geom_bond_site_symmetry_2
Eu1 O1 1_555 1_555
Co1 O1 1_555 1_555
O1 C1 1_555 1_555
O2 Eu1 1_555 1_555
O3 C4 1_555 1_555
O4 C4 1_555 1_555
O5 Eu1 1_555 1_555
O6 C11 1_555 1_555
O7 Eu1 1_555 1_555
O8 Eu1 1_555 1_555
N1 Co1 1_555 1_555
N2 C3 1_555 1_555
N3 C8 1_555 1_555
N4 C15 1_555 1_555
N5 C21 1_555 1_555
C1 O2 1_555 1_555
C2 N1 1_555 1_555
C3 C2 1_555 1_555
C4 C3 1_555 1_555
C5 N1 1_555 1_555
C6 C5 1_555 1_555
C7 C6 1_555 1_555
H1 C7 1_555 1_555
C8 C6 1_555 1_555
H2 C8 1_555 1_555
C9 C7 1_555 1_555
H3 C9 1_555 1_555
C10 N3 1_555 1_555
H4 C10 1_555 1_555
C11 O5 1_555 1_555
C12 C11 1_555 1_555
C13 C12 1_555 1_555
H5 C13 1_555 1_555
C14 C12 1_555 1_555
H6 C14 1_555 1_555
C15 C13 1_555 1_555
H7 C15 1_555 1_555
C16 N4 1_555 1_555
H8 C16 1_555 1_555
C17 O7 1_555 1_555
C18 C17 1_555 1_555
C19 C18 1_555 1_555
H9 C19 1_555 1_555
C20 C18 1_555 1_555
H10 C20 1_555 1_555
C21 C19 1_555 1_555
H11 C21 1_555 1_555
C22 N5 1_555 1_555
H12 C22 1_555 1_555
O9 H13 1_555 1_555
H14 O9 1_555 1_555
O10 H15 1_555 1_555
H16 O10 1_555 1_555
O11 H17 1_555 1_555
H18 O11 1_555 1_555
Eu1B O2 1_555 1_555
Eu1A N3 1_555 1_555
Co1A O4 1_555 1_555
Co1B N4 1_555 1_555
Co1C N5 1_555 1_555
O2B Eu1 1_555 1_555
O3B Eu1 1_555 1_555
O4A Co1 1_555 1_555
O6B Eu1 1_555 1_555
N2A Co1 1_555 1_555
N3A Eu1 1_555 1_555
N4B Co1 1_555 1_555
N5C Co1 1_555 1_555
O3 Eu1B 1_555 1_555
O6 Eu1B 1_555 1_555
O8 C17 1_555 1_555
N2 C5 1_555 1_555
N2 Co1A 1_555 1_555
C1 C2 1_555 1_555
C9 C10 1_555 1_555
C14 C16 1_555 1_555
C20 C22 1_555 1_555
Eu1B O2B 1_555 1_555

#END
