
#######################################################################
#
#                 Cambridge Crystallographic Data Centre
#                                CCDC 
#
#######################################################################
#
# If this CIF has been generated from an entry in the Cambridge 
# Structural Database, then it will include bibliographic, chemical, 
# crystal, experimental, refinement or atomic coordinate data resulting 
# from the CCDC's data processing and validation procedures.
#
#######################################################################

data_PEKHEU
_symmetry_cell_setting           monoclinic
_symmetry_space_group_name_H-M   'P 21/c'
_symmetry_Int_Tables_number      14
_space_group_name_Hall           '-P 2ybc'
loop_
_symmetry_equiv_pos_site_id
_symmetry_equiv_pos_as_xyz
1 x,y,z
2 -x,1/2+y,1/2-z
3 -x,-y,-z
4 x,1/2-y,1/2+z
_cell_length_a                   10.6962(15)
_cell_length_b                   12.9763(18)
_cell_length_c                   20.7848(19)
_cell_angle_alpha                90
_cell_angle_beta                 120.299(5)
_cell_angle_gamma                90
_cell_volume                     2490.81
loop_
_atom_site_label
_atom_site_type_symbol
_atom_site_fract_x
_atom_site_fract_y
_atom_site_fract_z
Gd1 Gd 0.07210(2) 0.641968(16) 1.007980(11)
Co1 Co 0.03149(6) 0.65209(5) 0.77162(3)
O1 O 0.0208(3) 0.6113(2) 0.87254(15)
O2 O -0.0463(3) 0.4882(2) 0.92079(15)
O3 O -0.0252(4) 0.2662(3) 0.91290(18)
O4 O -0.0431(4) 0.1653(2) 0.82343(18)
O5 O 0.2875(4) 0.7301(3) 1.02113(19)
O6 O 0.3050(4) 0.6758(4) 1.1256(2)
O7 O -0.1913(3) 0.6476(3) 0.9473(2)
O8 O -0.2393(3) 0.4922(3) 0.97667(19)
N1 N 0.0049(4) 0.4900(3) 0.76313(19)
N2 N -0.0291(4) 0.3186(3) 0.7433(2)
N3 N 0.0053(5) 0.3191(3) 0.5536(2)
N4 N 0.7965(4) 0.8275(3) 1.2138(2)
N5 N -0.7328(4) 0.6427(3) 0.8407(2)
C1 C -0.0169(4) 0.5178(3) 0.8721(2)
C2 C -0.0199(5) 0.4486(3) 0.8161(2)
C3 C -0.0377(5) 0.3425(3) 0.8051(2)
C4 C -0.0397(5) 0.2534(4) 0.8501(3)
C5 C 0.0002(5) 0.4092(3) 0.7211(2)
C6 C 0.0357(5) 0.4099(4) 0.6613(2)
C7 C 0.1471(6) 0.4675(4) 0.6634(3)
H1 H 0.1977 0.5151 0.7013
C8 C 0.1816(7) 0.4530(4) 0.6081(3)
H2 H 0.2516 0.4938 0.6066
C9 C 0.1111(7) 0.3776(4) 0.5557(3)
H3 H 0.1376 0.3665 0.5200
C10 C -0.0319(5) 0.3387(4) 0.6045(2)
H4 H -0.1091 0.3019 0.6017
C11 C 0.3580(6) 0.7196(4) 1.0902(3)
C12 C 0.5106(6) 0.7591(4) 1.1332(3)
C13 C 0.5852(6) 0.7601(5) 1.2097(3)
H5 H 0.5406 0.7373 1.2356
C14 C 0.5794(6) 0.7946(5) 1.0972(3)
H6 H 0.5317 0.7964 1.0454
C15 C 0.7255(5) 0.7945(4) 1.2479(3)
H7 H 0.7737 0.7951 1.2997
C16 C 0.7227(6) 0.8282(5) 1.1397(3)
H8 H 0.7688 0.8523 1.1148
C17 C -0.2746(5) 0.5805(4) 0.9485(2)
C18 C -0.4344(5) 0.6059(4) 0.9118(3)
C19 C -0.5278(5) 0.5347(4) 0.9130(3)
H9 H -0.4930 0.4717 0.9368
C20 C -0.4935(6) 0.6975(4) 0.8752(3)
H10 H -0.4341 0.7491 0.8742
C21 C -0.6741(5) 0.5568(4) 0.8786(3)
H11 H -0.7347 0.5088 0.8824
C22 C -0.6417(5) 0.7121(4) 0.8400(3)
H12 H -0.6797 0.7736 0.8146
Gd1B Gd -0.07210(2) 0.358032(16) 0.992020(11)
Gd1A Gd -0.07210(2) 0.141968(16) 0.492020(11)
Co1A Co -0.03149(6) 0.15209(5) 0.72838(3)
Co1C Co 1.03149(6) 0.84791(5) 1.27162(3)
Co1_2 Co -0.96851(6) 0.65209(5) 0.77162(3)
O2B O 0.0463(3) 0.5118(2) 1.07921(15)
O3B O 0.0252(4) 0.7338(3) 1.08710(18)
O4A O 0.0431(4) 0.6653(2) 0.67657(18)
O8B O 0.2393(3) 0.5078(3) 1.02333(19)
N2A N 0.0291(4) 0.8186(3) 0.7567(2)
N3A N -0.0053(5) 0.8191(3) 0.9464(2)
N4C N -0.2035(4) 0.6725(3) 0.7138(2)
N5_2 N 0.2672(4) 0.6427(3) 0.8407(2)
O9 O 0.4106(10) 0.9550(8) 0.7539(5)
H13 H 0.5106 0.9611 0.7691
H14 H 0.3858 0.9062 0.7121
O10 O 0.312(3) 0.956(2) 0.9788(14)
H15 H 0.2947 0.8968 0.9902
H16 H 0.2894 0.9541 0.9333
O11 O 0.460(3) 0.9437(19) 0.8980(14)
H17 H 0.4425 0.9668 0.8560
H18 H 0.5432 0.9649 0.9307
loop_
_geom_bond_atom_site_label_1
_geom_bond_atom_site_label_2
_geom_bond_site_symmetry_1
_geom_bond_site_symmetry_2
Gd1 O1 1_555 1_555
Co1 O1 1_555 1_555
O1 C1 1_555 1_555
O2 Gd1 1_555 1_555
O3 C4 1_555 1_555
O4 C4 1_555 1_555
O5 Gd1 1_555 1_555
O6 Gd1 1_555 1_555
O7 Gd1 1_555 1_555
O8 C17 1_555 1_555
N1 Co1 1_555 1_555
N2 C3 1_555 1_555
N3 C9 1_555 1_555
N4 C15 1_555 1_555
N5 C21 1_555 1_555
C1 O2 1_555 1_555
C2 N1 1_555 1_555
C3 C2 1_555 1_555
C4 C3 1_555 1_555
C5 N1 1_555 1_555
C6 C5 1_555 1_555
C7 C6 1_555 1_555
H1 C7 1_555 1_555
C8 C7 1_555 1_555
H2 C8 1_555 1_555
C9 C8 1_555 1_555
H3 C9 1_555 1_555
C10 N3 1_555 1_555
H4 C10 1_555 1_555
C11 O5 1_555 1_555
C12 C11 1_555 1_555
C13 C12 1_555 1_555
H5 C13 1_555 1_555
C14 C12 1_555 1_555
H6 C14 1_555 1_555
C15 C13 1_555 1_555
H7 C15 1_555 1_555
C16 N4 1_555 1_555
H8 C16 1_555 1_555
C17 O7 1_555 1_555
C18 C17 1_555 1_555
C19 C18 1_555 1_555
H9 C19 1_555 1_555
C20 C18 1_555 1_555
H10 C20 1_555 1_555
C21 C19 1_555 1_555
H11 C21 1_555 1_555
C22 N5 1_555 1_555
H12 C22 1_555 1_555
O9 H13 1_555 1_555
H14 O9 1_555 1_555
O10 H15 1_555 1_555
H16 O10 1_555 1_555
O11 H17 1_555 1_555
H18 O11 1_555 1_555
Gd1B O2 1_555 1_555
Gd1A N3 1_555 1_555
Co1A O4 1_555 1_555
Co1C N4 1_555 1_555
Co1_2 N5 1_555 1_555
O2B Gd1 1_555 1_555
O3B Gd1 1_555 1_555
O4A Co1 1_555 1_555
O8B Gd1 1_555 1_555
N2A Co1 1_555 1_555
N3A Gd1 1_555 1_555
N4C Co1 1_555 1_555
N5_2 Co1 1_555 1_555
O3 Gd1B 1_555 1_555
O6 C11 1_555 1_555
O8 Gd1B 1_555 1_555
N2 C5 1_555 1_555
N2 Co1A 1_555 1_555
C1 C2 1_555 1_555
C6 C10 1_555 1_555
C14 C16 1_555 1_555
C20 C22 1_555 1_555
Gd1B O2B 1_555 1_555

#END
