
#######################################################################
#
#                 Cambridge Crystallographic Data Centre
#                                CCDC 
#
#######################################################################
#
# If this CIF has been generated from an entry in the Cambridge 
# Structural Database, then it will include bibliographic, chemical, 
# crystal, experimental, refinement or atomic coordinate data resulting 
# from the CCDC's data processing and validation procedures.
#
#######################################################################

data_PEKROM
_symmetry_cell_setting           monoclinic
_symmetry_space_group_name_H-M   'P 21/c'
_symmetry_Int_Tables_number      14
_space_group_name_Hall           '-P 2ybc'
loop_
_symmetry_equiv_pos_site_id
_symmetry_equiv_pos_as_xyz
1 x,y,z
2 -x,1/2+y,1/2-z
3 -x,-y,-z
4 x,1/2-y,1/2+z
_cell_length_a                   5.326(1)
_cell_length_b                   15.977(7)
_cell_length_c                   10.408(5)
_cell_angle_alpha                90
_cell_angle_beta                 95.22(3)
_cell_angle_gamma                90
_cell_volume                     881.98
loop_
_atom_site_label
_atom_site_type_symbol
_atom_site_fract_x
_atom_site_fract_y
_atom_site_fract_z
H1 H 0.3249 0.2137 -0.0045
Li1 Li 0.2972(7) 0.4886(3) 0.4042(4)
O1 O 0.2792(4) 0.5380(1) 0.2358(2)
O2 O 0.1987(4) 0.4402(1) -0.1093(2)
O3 O 0.4816(4) 0.3370(1) -0.1027(2)
C1 C 0.2855(5) 0.3713(2) -0.0712(2)
C2 C 0.1401(4) 0.3228(1) 0.0235(2)
C3 C 0.1891(5) 0.2390(2) 0.0497(2)
C4 C 0.0520(5) 0.1968(2) 0.1364(2)
C5 C -0.1262(5) 0.2389(2) 0.1975(2)
C6 C -0.0430(4) 0.3627(2) 0.0864(2)
N1 N -0.1695(4) 0.3212(1) 0.1729(2)
C7 C -0.3468(5) 0.3674(2) 0.2476(2)
C8 C -0.2116(4) 0.4112(2) 0.3657(2)
O4 O 0.0210(3) 0.4126(1) 0.3773(2)
O5 O -0.3587(3) 0.4428(1) 0.4399(2)
H2 H 0.1126 0.5401 0.1899
H3 H 0.3990 0.5760 0.2061
H4 H 0.0817 0.1310 0.1559
H5 H -0.2283 0.2125 0.2658
H6 H -0.0867 0.4239 0.0743
H7 H -0.4332 0.4114 0.1928
H8 H -0.4714 0.3256 0.2772
O5_2 O 0.6413(3) 0.4428(1) 0.4399(2)
O5B O 0.3587(3) 0.5572(1) 0.5601(2)
Li1_2 Li -0.7028(7) 0.4886(3) 0.4042(4)
Li1B Li -0.2972(7) 0.5114(3) 0.5958(4)
Li1B_2 Li 0.7028(7) 0.5114(3) 0.5958(4)
C8B C 0.2116(4) 0.5888(2) 0.6343(2)
O1B O -0.2792(4) 0.4620(1) 0.7642(2)
O4B O -0.0210(3) 0.5874(1) 0.6227(2)
O5B_2 O -0.6413(3) 0.5572(1) 0.5601(2)
C7B C 0.3468(5) 0.6326(2) 0.7524(2)
H2B H -0.1126 0.4599 0.8101
H3B H -0.3990 0.4240 0.7939
N1B N 0.1695(4) 0.6788(1) 0.8271(2)
H7B H 0.4332 0.5886 0.8072
H8B H 0.4714 0.6744 0.7228
C5B C 0.1262(5) 0.7611(2) 0.8025(2)
C6B C 0.0430(4) 0.6373(2) 0.9136(2)
C4B C -0.0520(5) 0.8032(2) 0.8636(2)
H5B H 0.2283 0.7875 0.7342
C2B C -0.1401(4) 0.6772(1) 0.9765(2)
H6B H 0.0867 0.5761 0.9257
C3B C -0.1891(5) 0.7610(2) 0.9503(2)
H4B H -0.0817 0.8690 0.8441
C1B C -0.2855(5) 0.6287(2) 1.0712(2)
H1B H -0.3249 0.7863 1.0045
O2B O -0.1987(4) 0.5598(1) 1.1093(2)
O3B O -0.4816(4) 0.6630(1) 1.1027(2)
loop_
_geom_bond_atom_site_label_1
_geom_bond_atom_site_label_2
_geom_bond_site_symmetry_1
_geom_bond_site_symmetry_2
H1 C3 1_555 1_555
Li1 O1 1_555 1_555
O1 H2 1_555 1_555
O2 C1 1_555 1_555
O3 C1 1_555 1_555
C1 C2 1_555 1_555
C2 C3 1_555 1_555
C3 C4 1_555 1_555
C4 C5 1_555 1_555
C5 N1 1_555 1_555
C6 C2 1_555 1_555
N1 C6 1_555 1_555
C7 N1 1_555 1_555
C8 C7 1_555 1_555
O4 Li1 1_555 1_555
O5 C8 1_555 1_555
H3 O1 1_555 1_555
H4 C4 1_555 1_555
H5 C5 1_555 1_555
H6 C6 1_555 1_555
H7 C7 1_555 1_555
H8 C7 1_555 1_555
O5_2 Li1 1_555 1_555
O5B Li1 1_555 1_555
Li1_2 O5 1_555 1_555
Li1B O5 1_555 1_555
Li1B_2 O5B 1_555 1_555
C8B O5B 1_555 1_555
O1B Li1B 1_555 1_555
O4B Li1B 1_555 1_555
O5B_2 Li1B 1_555 1_555
C7B C8B 1_555 1_555
H2B O1B 1_555 1_555
H3B O1B 1_555 1_555
N1B C7B 1_555 1_555
H7B C7B 1_555 1_555
H8B C7B 1_555 1_555
C5B N1B 1_555 1_555
C6B N1B 1_555 1_555
C4B C5B 1_555 1_555
H5B C5B 1_555 1_555
C2B C6B 1_555 1_555
H6B C6B 1_555 1_555
C3B C4B 1_555 1_555
H4B C4B 1_555 1_555
C1B C2B 1_555 1_555
H1B C3B 1_555 1_555
O2B C1B 1_555 1_555
O3B C1B 1_555 1_555
C8 O4 1_555 1_555
C8B O4B 1_555 1_555
C2B C3B 1_555 1_555

#END
