
#######################################################################
#
#                 Cambridge Crystallographic Data Centre
#                                CCDC 
#
#######################################################################
#
# If this CIF has been generated from an entry in the Cambridge 
# Structural Database, then it will include bibliographic, chemical, 
# crystal, experimental, refinement or atomic coordinate data resulting 
# from the CCDC's data processing and validation procedures.
#
#######################################################################

data_PELHEV
_symmetry_cell_setting           monoclinic
_symmetry_space_group_name_H-M   'P 21/n'
_symmetry_Int_Tables_number      14
_space_group_name_Hall           '-P 2yn'
loop_
_symmetry_equiv_pos_site_id
_symmetry_equiv_pos_as_xyz
1 x,y,z
2 1/2-x,1/2+y,1/2-z
3 -x,-y,-z
4 1/2+x,1/2-y,1/2+z
_cell_length_a                   9.1111(11)
_cell_length_b                   11.5682(9)
_cell_length_c                   19.8771(11)
_cell_angle_alpha                90
_cell_angle_beta                 98.4010(10)
_cell_angle_gamma                90
_cell_volume                     2072.55
loop_
_atom_site_label
_atom_site_type_symbol
_atom_site_fract_x
_atom_site_fract_y
_atom_site_fract_z
C1 C 0.36324(19) 0.25258(13) 0.05858(9)
C2 C 0.46320(18) 0.32440(14) 0.01837(8)
C3 C -0.08722(18) -0.14630(14) 0.19302(8)
C4 C -0.18647(19) -0.24085(14) 0.21596(9)
C5 C 0.17325(18) 0.11284(14) 0.05297(8)
C6 C 0.23975(18) 0.00955(15) 0.07850(8)
C7 C 0.15287(18) -0.07417(14) 0.10467(8)
C8 C 0.00131(18) -0.05200(14) 0.10361(8)
C9 C -0.06331(18) 0.05309(14) 0.08172(8)
C10 C 0.02403(18) 0.13736(14) 0.05603(8)
C11 C 0.40277(19) -0.01306(16) 0.07874(9)
H1 H 0.4426 0.0439 0.0513
H2 H 0.4159 -0.0887 0.0606
H3 H 0.4537 -0.0088 0.1245
C12 C 0.2219(2) -0.18425(15) 0.13484(9)
H4 H 0.2781 -0.1682 0.1786
H5 H 0.2863 -0.2156 0.1053
H6 H 0.1452 -0.2391 0.1399
C13 C -0.22382(19) 0.07504(16) 0.08745(9)
H7 H -0.2792 0.0047 0.0786
H8 H -0.2627 0.1327 0.0549
H9 H -0.2320 0.1018 0.1325
C14 C -0.0410(2) 0.25276(14) 0.03345(10)
H10 H -0.1075 0.2437 -0.0083
H11 H 0.0373 0.3050 0.0265
H12 H -0.0943 0.2833 0.0677
N1 N 0.25923(16) 0.19440(12) 0.02081(7)
N2 N -0.09101(16) -0.13874(12) 0.12724(7)
O1 O 0.39372(15) 0.25452(10) 0.12262(6)
O2 O 0.56833(14) 0.37698(11) 0.05110(6)
O3 O 0.43174(13) 0.32084(11) -0.04580(6)
O4 O -0.01211(14) -0.08542(11) 0.23828(6)
O5 O -0.18697(15) -0.25512(10) 0.27744(6)
O6 O -0.26206(14) -0.29830(11) 0.16842(6)
Mn1 Mn 0.55870(3) 0.38010(2) 0.161116(12)
Cu1 Cu 0.24177(2) 0.239970(18) -0.076410(10)
O7 O 0.76694(15) 0.46951(12) 0.17200(7)
H13 H 0.764(4) 0.547(3) 0.1796(17)
H14 H 0.477(3) 0.587(3) 0.1074(17)
O8 O 0.44494(14) 0.54926(11) 0.13833(7)
H15 H 0.848(4) 0.444(3) 0.1857(16)
H16 H 0.438(4) 0.588(3) 0.1731(18)
N2B N 0.09101(16) 0.13874(12) -0.12724(7)
O4A O 0.51211(14) 0.41458(11) 0.26172(6)
O5A O 0.68697(15) 0.24488(10) 0.22256(6)
O6B O 0.26206(14) 0.29830(11) -0.16842(6)
Mn1A Mn -0.05870(3) -0.11990(2) 0.338884(12)
Cu1B Cu -0.24177(2) -0.239970(18) 0.076410(10)
O9 O 0.41656(17) 0.65805(13) 0.25808(7)
H18 H 0.322(4) 0.644(3) 0.2593(17)
H20 H 0.453(3) 0.614(3) 0.2807(16)
H17 H 0.181(4) 0.479(3) -0.0689(19)
O10 O 0.14005(17) 0.43124(13) -0.05176(7)
H19 H 0.053(4) 0.446(3) -0.0671(17)
O11 O 1.04558(16) 0.39021(13) 0.20267(8)
H21 H 1.058(4) 0.319(3) 0.2113(17)
H22 H 1.087(4) 0.402(3) 0.1707(19)
O12 O 0.37749(17) 0.11921(13) 0.24317(8)
H23 H 0.394(4) 0.053(3) 0.2440(18)
H25 H 0.392(3) 0.139(3) 0.2004(17)
H24 H 0.334(4) -0.028(4) 0.453(2)
O13 O 0.34915(16) -0.00566(14) 0.41327(8)
H26 H 0.278(5) 0.022(4) 0.402(2)
loop_
_geom_bond_atom_site_label_1
_geom_bond_atom_site_label_2
_geom_bond_site_symmetry_1
_geom_bond_site_symmetry_2
C1 C2 1_555 1_555
C2 O2 1_555 1_555
C3 C4 1_555 1_555
C4 O5 1_555 1_555
C5 C6 1_555 1_555
C6 C7 1_555 1_555
C7 C8 1_555 1_555
C8 C9 1_555 1_555
C9 C10 1_555 1_555
C10 C5 1_555 1_555
C11 C6 1_555 1_555
H1 C11 1_555 1_555
H2 C11 1_555 1_555
H3 C11 1_555 1_555
C12 C7 1_555 1_555
H4 C12 1_555 1_555
H5 C12 1_555 1_555
H6 C12 1_555 1_555
C13 C9 1_555 1_555
H7 C13 1_555 1_555
H8 C13 1_555 1_555
H9 C13 1_555 1_555
C14 C10 1_555 1_555
H10 C14 1_555 1_555
H11 C14 1_555 1_555
H12 C14 1_555 1_555
N1 C1 1_555 1_555
N2 C3 1_555 1_555
O1 C1 1_555 1_555
O2 Mn1 1_555 1_555
O3 C2 1_555 1_555
O4 C3 1_555 1_555
O5 Mn1A 1_555 1_555
O6 C4 1_555 1_555
Mn1 O1 1_555 1_555
Cu1 N1 1_555 1_555
O7 Mn1 1_555 1_555
H13 O7 1_555 1_555
H14 O8 1_555 1_555
O8 Mn1 1_555 1_555
H15 O7 1_555 1_555
H16 O8 1_555 1_555
O9 H18 1_555 1_555
H17 O10 1_555 1_555
O10 H19 1_555 1_555
H20 O9 1_555 1_555
O11 H21 1_555 1_555
H22 O11 1_555 1_555
O12 H23 1_555 1_555
H24 O13 1_555 1_555
O13 H26 1_555 1_555
H25 O12 1_555 1_555
N2B Cu1 1_555 1_555
O4A Mn1 1_555 1_555
O5A Mn1 1_555 1_555
O6B Cu1 1_555 1_555
Mn1A O4 1_555 1_555
Cu1B N2 1_555 1_555
C5 N1 1_555 1_555
C8 N2 1_555 1_555
O3 Cu1 1_555 1_555
O6 Cu1B 1_555 1_555

#END
