
#######################################################################
#
#                 Cambridge Crystallographic Data Centre
#                                CCDC 
#
#######################################################################
#
# If this CIF has been generated from an entry in the Cambridge 
# Structural Database, then it will include bibliographic, chemical, 
# crystal, experimental, refinement or atomic coordinate data resulting 
# from the CCDC's data processing and validation procedures.
#
#######################################################################

data_PELNEA
_symmetry_cell_setting           monoclinic
_symmetry_space_group_name_H-M   'P 21/c'
_symmetry_Int_Tables_number      14
_space_group_name_Hall           '-P 2ybc'
loop_
_symmetry_equiv_pos_site_id
_symmetry_equiv_pos_as_xyz
1 x,y,z
2 -x,1/2+y,1/2-z
3 -x,-y,-z
4 x,1/2-y,1/2+z
_cell_length_a                   12.1493(8)
_cell_length_b                   16.9135(11)
_cell_length_c                   8.9264(6)
_cell_angle_alpha                90
_cell_angle_beta                 108.9180(10)
_cell_angle_gamma                90
_cell_volume                     1735.18
loop_
_atom_site_label
_atom_site_type_symbol
_atom_site_fract_x
_atom_site_fract_y
_atom_site_fract_z
La1 La 0.451355(14) 0.116293(8) 0.930015(18)
C1 C 0.1639(2) 0.20675(16) 0.7233(3)
C2 C 0.1105(3) 0.13654(17) 0.7331(4)
H1 H 0.1442 0.1021 0.8166
C3 C 0.0059(3) 0.11665(16) 0.6182(4)
H2 H -0.0301 0.0688 0.6243
C4 C -0.0444(2) 0.16832(17) 0.4950(3)
C5 C 0.0082(3) 0.24035(18) 0.4889(4)
H3 H -0.0270 0.2759 0.4080
C6 C 0.1132(3) 0.25992(18) 0.6028(4)
H4 H 0.1490 0.3081 0.5982
C7 C -0.1939(3) 0.07613(17) 0.3759(4)
H5 H -0.2153 0.0702 0.4710
H6 H -0.1347 0.0370 0.3795
C8 C -0.2995(3) 0.06066(17) 0.2327(3)
C9 C 0.2919(3) 0.30005(16) 0.8979(3)
H7 H 0.2215 0.3213 0.9114
H8 H 0.3138 0.3335 0.8240
C10 C 0.3882(3) 0.29828(16) 1.0547(3)
C11 C 0.6468(3) -0.02720(17) 0.8422(4)
C12 C 0.6977(3) 0.0134(2) 0.7295(5)
H9 H 0.6435 0.0087 0.6228
H10 H 0.7069 0.0692 0.7556
C13 C 0.9016(3) 0.0434(2) 0.9923(5)
H11 H 0.8357 0.0725 0.9881
C14 C 0.8997(3) -0.0072(2) 0.8692(4)
C15 C 0.9981(3) -0.0503(2) 0.8789(4)
H12 H 0.9970 -0.0847 0.7972
O1 O 0.27166(18) 0.22062(11) 0.8378(2)
O2 O 0.4519(2) 0.23833(13) 1.0892(3)
O3 O 0.3995(2) 0.35830(12) 1.1394(2)
O4 O -0.14704(19) 0.15269(12) 0.3739(2)
O5 O -0.3607(2) 0.11713(11) 0.1610(3)
O6 O -0.31717(18) -0.01112(12) 0.2014(3)
O7 O 0.56020(19) 0.00569(13) 0.8668(3)
O8 O 0.6858(2) -0.09145(13) 0.9033(3)
O9 O 0.8067(2) -0.01776(16) 0.7329(3)
O10 O 0.5982(2) 0.21104(16) 0.8726(3)
H13 H 0.5769 0.2571 0.8370
H14 H 0.6106 0.1837 0.9562
La1C La 0.451355(14) 0.383707(8) 0.430015(18)
La1C_2 La 0.451355(14) 0.383707(8) 1.430015(18)
La1_2 La -0.548645(14) 0.116293(8) -0.069985(18)
La1B La -0.451355(14) -0.116293(8) 0.069985(18)
La1B_2 La 0.548645(14) -0.116293(8) 1.069985(18)
La1_3 La 1.451355(14) 0.116293(8) 0.930015(18)
La1B_3 La 1.548645(14) -0.116293(8) 1.069985(18)
La1C_3 La -0.548645(14) 0.383707(8) -0.569985(18)
La1A La -0.451355(14) 0.616293(8) -0.430015(18)
C1C C 0.1639(2) 0.29325(16) 0.2233(3)
C2C C 0.1105(3) 0.36346(17) 0.2331(4)
H1C H 0.1442 0.3979 0.3166
C3C C 0.0059(3) 0.38335(16) 0.1182(4)
H2C H -0.0301 0.4312 0.1243
C4C C -0.0444(2) 0.33168(17) -0.0050(3)
C5C C 0.0082(3) 0.25965(18) -0.0111(4)
H3C H -0.0270 0.2241 -0.0920
C6C C 0.1132(3) 0.24008(18) 0.1028(4)
H4C H 0.1490 0.1919 0.0982
C7C C -0.1939(3) 0.42387(17) -0.1241(4)
H5C H -0.2153 0.4298 -0.0290
H6C H -0.1347 0.4630 -0.1205
C8C C -0.2995(3) 0.43934(17) -0.2673(3)
C9C C 0.2919(3) 0.19995(16) 0.3979(3)
H7C H 0.2215 0.1787 0.4114
H8C H 0.3138 0.1665 0.3240
C10C C 0.3882(3) 0.20172(16) 0.5547(3)
C11B C 1.3532(3) 0.02720(17) 1.1578(4)
C12B C 1.3023(3) -0.0134(2) 1.2705(5)
H9B H 1.3565 -0.0087 1.3772
H10B H 1.2931 -0.0692 1.2444
C13B C 1.0984(3) -0.0434(2) 1.0077(5)
H11B H 1.1643 -0.0725 1.0119
C14B C 1.1003(3) 0.0072(2) 1.1308(4)
C15B C 1.0019(3) 0.0503(2) 1.1211(4)
H12B H 1.0030 0.0847 1.2028
O1C O 0.27166(18) 0.27938(11) 0.3378(2)
O2C O 0.4519(2) 0.26167(13) 0.5892(3)
O3C O 0.3995(2) 0.14170(12) 0.6394(2)
O3_2 O 0.3995(2) 0.35830(12) 0.1394(2)
O4C O -0.14704(19) 0.34731(12) -0.1261(2)
O5C O -0.3607(2) 0.38287(11) -0.3390(3)
O5_2 O 0.6393(2) 0.11713(11) 1.1610(3)
O5C_2 O 0.6393(2) 0.38287(11) 0.6610(3)
O6C O -0.31717(18) 0.51112(12) -0.2986(3)
O6B O 0.31717(18) 0.01112(12) 0.7986(3)
O6A O 0.31717(18) 0.48888(12) 0.2986(3)
O7B O 1.43980(19) -0.00569(13) 1.1332(3)
O7B_2 O 0.43980(19) -0.00569(13) 1.1332(3)
O7C O 0.56020(19) 0.49431(13) 0.3668(3)
O7A O 0.43980(19) 0.50569(13) 0.6332(3)
O8B O 1.3142(2) 0.09145(13) 1.0967(3)
O8B_2 O 0.3142(2) 0.09145(13) 1.0967(3)
O8A O 0.3142(2) 0.40855(13) 0.5967(3)
O9B O 1.1933(2) 0.01776(16) 1.2671(3)
O10C O 0.5982(2) 0.28896(16) 0.3726(3)
H13C H 0.5769 0.2429 0.3370
H14C H 0.6106 0.3163 0.4562
O11 O 0.7481(3) 0.28047(18) 0.1399(4)
H15 H 0.7078 0.2828 0.2018
H16 H 0.8012 0.2864 0.0979
loop_
_geom_bond_atom_site_label_1
_geom_bond_atom_site_label_2
_geom_bond_site_symmetry_1
_geom_bond_site_symmetry_2
La1 O1 1_555 1_555
C1 C2 1_555 1_555
C2 H1 1_555 1_555
C3 C2 1_555 1_555
H2 C3 1_555 1_555
C4 C3 1_555 1_555
C5 C4 1_555 1_555
H3 C5 1_555 1_555
C6 C1 1_555 1_555
H4 C6 1_555 1_555
C7 H5 1_555 1_555
H6 C7 1_555 1_555
C8 C7 1_555 1_555
C9 H7 1_555 1_555
H8 C9 1_555 1_555
C10 C9 1_555 1_555
C11 C12 1_555 1_555
C12 H9 1_555 1_555
H10 C12 1_555 1_555
C13 H11 1_555 1_555
C14 C13 1_555 1_555
C15 C14 1_555 1_555
H12 C15 1_555 1_555
O1 C1 1_555 1_555
O2 La1 1_555 1_555
O3 C10 1_555 1_555
O4 C4 1_555 1_555
O5 C8 1_555 1_555
O6 C8 1_555 1_555
O7 La1 1_555 1_555
O8 C11 1_555 1_555
O9 C12 1_555 1_555
O10 La1 1_555 1_555
H13 O10 1_555 1_555
H14 O10 1_555 1_555
O11 H15 1_555 1_555
H16 O11 1_555 1_555
La1C O1C 1_555 1_555
La1C_2 O3 1_555 1_555
La1_2 O5 1_555 1_555
La1B O6 1_555 1_555
La1B_2 O7 1_555 1_555
La1_3 O7B 1_555 1_555
La1B_3 O7B 1_555 1_555
La1C_3 O5C 1_555 1_555
La1A O6C 1_555 1_555
C1C C2C 1_555 1_555
C2C H1C 1_555 1_555
C3C C2C 1_555 1_555
H2C C3C 1_555 1_555
C4C C3C 1_555 1_555
C5C C4C 1_555 1_555
H3C C5C 1_555 1_555
C6C C1C 1_555 1_555
H4C C6C 1_555 1_555
C7C H5C 1_555 1_555
H6C C7C 1_555 1_555
C8C C7C 1_555 1_555
C9C H7C 1_555 1_555
H8C C9C 1_555 1_555
C10C C9C 1_555 1_555
C11B C12B 1_555 1_555
C12B H9B 1_555 1_555
H10B C12B 1_555 1_555
C13B C15 1_555 1_555
H11B C13B 1_555 1_555
C14B C13B 1_555 1_555
C15B C13 1_555 1_555
H12B C15B 1_555 1_555
O1C C1C 1_555 1_555
O2C La1C 1_555 1_555
O3C La1 1_555 1_555
O3_2 La1C 1_555 1_555
O4C C4C 1_555 1_555
O5C C8C 1_555 1_555
O5_2 La1 1_555 1_555
O5C_2 La1C 1_555 1_555
O6C C8C 1_555 1_555
O6B La1 1_555 1_555
O6A La1C 1_555 1_555
O7B C11B 1_555 1_555
O7B_2 La1 1_555 1_555
O7C La1C 1_555 1_555
O7A La1C 1_555 1_555
O8B La1_3 1_555 1_555
O8B_2 La1 1_555 1_555
O8A La1C 1_555 1_555
O9B C12B 1_555 1_555
O10C La1C 1_555 1_555
H13C O10C 1_555 1_555
H14C O10C 1_555 1_555
C5 C6 1_555 1_555
C7 O4 1_555 1_555
C9 O1 1_555 1_555
C10 O2 1_555 1_555
C11 O7 1_555 1_555
C14 O9 1_555 1_555
O8 La1B_2 1_555 1_555
La1B_2 O7B_2 1_555 1_555
C5C C6C 1_555 1_555
C7C O4C 1_555 1_555
C9C O1C 1_555 1_555
C10C O2C 1_555 1_555
C10C O3C 1_555 1_555
C11B O8B 1_555 1_555
C14B C15B 1_555 1_555
C14B O9B 1_555 1_555

#END
