
#######################################################################
#
#                 Cambridge Crystallographic Data Centre
#                                CCDC 
#
#######################################################################
#
# If this CIF has been generated from an entry in the Cambridge 
# Structural Database, then it will include bibliographic, chemical, 
# crystal, experimental, refinement or atomic coordinate data resulting 
# from the CCDC's data processing and validation procedures.
#
#######################################################################

data_PELREF
_symmetry_cell_setting           monoclinic
_symmetry_space_group_name_H-M   'C 2/c'
_symmetry_Int_Tables_number      15
_space_group_name_Hall           '-C 2yn'
loop_
_symmetry_equiv_pos_site_id
_symmetry_equiv_pos_as_xyz
1 x,y,z
2 -x,y,1/2-z
3 1/2+x,1/2+y,z
4 1/2-x,1/2+y,1/2-z
5 -x,-y,-z
6 x,-y,1/2+z
7 1/2-x,1/2-y,-z
8 1/2+x,1/2-y,1/2+z
_cell_length_a                   23.571(5)
_cell_length_b                   14.997(3)
_cell_length_c                   20.221(4)
_cell_angle_alpha                90
_cell_angle_beta                 93.55(3)
_cell_angle_gamma                90
_cell_volume                     7134.29
loop_
_atom_site_label
_atom_site_type_symbol
_atom_site_fract_x
_atom_site_fract_y
_atom_site_fract_z
C1 C 0.57958(17) 0.3779(3) 0.67296(19)
C2 C 0.5684(2) 0.3032(3) 0.7089(2)
H1 H 0.5516 0.2538 0.6877
C3 C 0.5818(2) 0.3004(3) 0.7771(2)
H2 H 0.5745 0.2493 0.8011
C4 C 0.6059(2) 0.3735(3) 0.8084(2)
H3 H 0.6144 0.3720 0.8539
C5 C 0.61781(16) 0.4493(3) 0.77317(19)
C6 C 0.60456(16) 0.4512(3) 0.70502(19)
H4 H 0.6125 0.5020 0.6808
C7 C 0.64318(17) 0.5291(3) 0.8091(2)
H5 H 0.6726 0.5095 0.8416
H6 H 0.6606 0.5679 0.7778
C8 C 0.5828(2) 0.5680(4) 0.9051(2)
H7 H 0.5998 0.5316 0.9379
C9 C 0.5372(2) 0.6199(4) 0.9109(2)
H8 H 0.5168 0.6248 0.9486
C10 C 0.5638(2) 0.6362(3) 0.8138(2)
H9 H 0.5656 0.6549 0.7701
C11 C 0.5625(2) 0.3826(3) 0.5996(2)
H10 H 0.5231 0.4010 0.5938
H11 H 0.5855 0.4275 0.5793
C12 C 0.61908(17) 0.2609(4) 0.5469(2)
H12 H 0.6554 0.2846 0.5547
C13 C 0.60549(17) 0.1846(3) 0.5151(2)
H13 H 0.6312 0.1460 0.4968
C14 C 0.52776(16) 0.2414(3) 0.54499(19)
H14 H 0.4896 0.2504 0.5520
C15 C 0.25175(15) 0.7462(3) 0.66575(17)
C16 C 0.27127(16) 0.7292(3) 0.60366(18)
H15 H 0.2946 0.7705 0.5843
C17 C 0.25630(17) 0.6515(3) 0.57031(17)
H16 H 0.2693 0.6409 0.5285
C18 C 0.22211(16) 0.5898(3) 0.59887(17)
H17 H 0.2118 0.5379 0.5760
C19 C 0.20286(14) 0.6043(3) 0.66153(16)
C20 C 0.21773(15) 0.6829(3) 0.69402(17)
H18 H 0.2046 0.6935 0.7358
C21 C 0.26720(17) 0.8309(3) 0.7027(2)
H19 H 0.2565 0.8816 0.6750
H20 H 0.2458 0.8341 0.7421
C22 C 0.36862(18) 0.8827(3) 0.69018(19)
H21 H 0.3624 0.9185 0.6528
C23 C 0.41903(18) 0.8668(3) 0.7237(2)
H22 H 0.4538 0.8903 0.7131
C24 C 0.35543(18) 0.7936(3) 0.77342(18)
H23 H 0.3376 0.7574 0.8032
C25 C 0.16886(15) 0.5342(3) 0.69529(17)
H24 H 0.1880 0.4772 0.6922
H25 H 0.1681 0.5491 0.7419
C26 C 0.06274(16) 0.5657(3) 0.68920(17)
H26 H 0.0616 0.6060 0.7240
C27 C 0.01781(16) 0.5360(3) 0.65007(18)
H27 H -0.0199 0.5529 0.6536
C28 C 0.09261(16) 0.4724(3) 0.61662(17)
H28 H 0.1167 0.4372 0.5929
Cu1 Cu 0.46657(2) 0.74766(4) 0.83096(3)
Cu2 Cu 0.50362(2) 0.09125(4) 0.46095(3)
Mo1 Mo 0.245690(12) 0.81792(2) 0.924960(13)
Mo2 Mo 0.359570(12) 0.87277(2) 1.068680(14)
Mo3 Mo 0.225720(13) 0.93378(2) 1.092390(14)
Mo4 Mo 0.381550(12) 0.69198(2) 0.972356(14)
N1 N 0.52538(15) 0.6646(3) 0.85297(16)
N2 N 0.59960(13) 0.5786(2) 0.84254(15)
N3 N 0.54740(13) 0.1722(3) 0.51375(15)
N4 N 0.56950(14) 0.2972(3) 0.56556(15)
N5 N 0.41082(14) 0.8101(2) 0.77615(15)
N6 N 0.32838(13) 0.8358(2) 0.72209(14)
N7 N 0.11001(12) 0.5246(2) 0.66744(13)
N8 N 0.46311(13) 0.0230(2) 0.39578(14)
O1 O 0.24346(11) 0.88192(19) 0.85553(11)
O2 O 0.22352(10) 0.70720(18) 0.90361(11)
O3 O 0.31721(10) 0.81531(18) 0.95984(11)
O4 O 0.41018(11) 0.9293(2) 1.02935(12)
O5 O 0.38407(10) 0.75343(19) 1.05607(11)
O6 O 0.37750(11) 0.8895(2) 1.15059(11)
O7 O 0.29632(10) 0.95071(18) 1.05195(11)
O8 O 0.24471(12) 0.9521(2) 1.17366(12)
O9 O 0.19116(12) 1.0285(2) 1.06658(13)
O10 O 0.16470(10) 0.85066(18) 1.10176(10)
O11 O 0.20088(10) 0.86501(18) 0.98456(11)
O12 O 0.41943(11) 0.6004(2) 0.99628(13)
O13 O 0.42848(10) 0.7551(2) 0.93055(13)
C1F C -0.07958(17) 0.1221(3) 0.32704(19)
C2F C -0.0684(2) 0.1968(3) 0.2911(2)
H1F H -0.0516 0.2462 0.3123
C3F C -0.0818(2) 0.1996(3) 0.2229(2)
H2F H -0.0745 0.2507 0.1989
C4F C -0.1059(2) 0.1265(3) 0.1916(2)
H3F H -0.1144 0.1280 0.1461
C5F C -0.11781(16) 0.0507(3) 0.22683(19)
C6F C -0.10456(16) 0.0488(3) 0.29498(19)
H4F H -0.1125 -0.0020 0.3192
C7F C -0.14318(17) -0.0291(3) 0.1909(2)
H5F H -0.1726 -0.0095 0.1584
H6F H -0.1606 -0.0679 0.2222
C8F C -0.0828(2) -0.0680(4) 0.0949(2)
H7F H -0.0998 -0.0316 0.0621
C9F C -0.0372(2) -0.1199(4) 0.0891(2)
H8F H -0.0168 -0.1248 0.0514
C10F C -0.0638(2) -0.1362(3) 0.1862(2)
H9F H -0.0656 -0.1549 0.2299
C11F C -0.0625(2) 0.1174(3) 0.4004(2)
H10F H -0.0231 0.0990 0.4062
H11F H -0.0855 0.0725 0.4207
C12F C -0.11908(17) 0.2391(4) 0.4531(2)
H12F H -0.1554 0.2154 0.4453
C13F C -0.10549(17) 0.3154(3) 0.4849(2)
H13F H -0.1312 0.3540 0.5032
C14F C -0.02776(16) 0.2586(3) 0.45501(19)
H14F H 0.0104 0.2496 0.4480
C15F C 0.24825(15) -0.2462(3) 0.33425(17)
C16F C 0.22873(16) -0.2292(3) 0.39634(18)
H15F H 0.2054 -0.2705 0.4157
C17F C 0.24370(17) -0.1515(3) 0.42969(17)
H16F H 0.2307 -0.1409 0.4715
C18F C 0.27789(16) -0.0898(3) 0.40113(17)
H17F H 0.2882 -0.0379 0.4240
C19F C 0.29714(14) -0.1043(3) 0.33847(16)
C20F C 0.28227(15) -0.1829(3) 0.30598(17)
H18F H 0.2954 -0.1935 0.2642
C21F C 0.23280(17) -0.3309(3) 0.2973(2)
H19F H 0.2435 -0.3816 0.3250
H20F H 0.2542 -0.3341 0.2579
C22F C 0.13138(18) -0.3827(3) 0.30982(19)
H21F H 0.1376 -0.4185 0.3472
C23F C 0.08097(18) -0.3668(3) 0.2763(2)
H22F H 0.0462 -0.3903 0.2869
C24F C 0.14457(18) -0.2936(3) 0.22658(18)
H23F H 0.1624 -0.2574 0.1968
C25F C 0.33114(15) -0.0342(3) 0.30471(17)
H24F H 0.3120 0.0228 0.3078
H25F H 0.3319 -0.0491 0.2581
C26F C 0.43726(16) -0.0657(3) 0.31080(17)
H26F H 0.4384 -0.1060 0.2760
C27F C 0.48219(16) -0.0360(3) 0.34993(18)
H27F H 0.5199 -0.0529 0.3464
C28F C 0.40739(16) 0.0276(3) 0.38338(17)
H28F H 0.3833 0.0628 0.4071
Cu1F Cu 0.03343(2) -0.24766(4) 0.16904(3)
Cu2F Cu -0.00362(2) 0.40875(4) 0.53905(3)
Mo1F Mo 0.254310(12) 0.68208(2) 1.075040(13)
Mo2F Mo 0.140430(12) 0.62723(2) 0.931320(14)
Mo3F Mo 0.274280(13) 0.56622(2) 0.907610(14)
Mo4F Mo 0.118450(12) 0.80802(2) 1.027644(14)
Mo4F_2 Mo 0.118450(12) -0.19198(2) 0.027644(14)
N1F N -0.02538(15) -0.1646(3) 0.14703(16)
N2F N -0.09960(13) -0.0786(2) 0.15746(15)
N3F N -0.04740(13) 0.3278(3) 0.48625(15)
N4F N -0.06950(14) 0.2028(3) 0.43444(15)
N5F N 0.08918(14) -0.3101(2) 0.22385(15)
N6F N 0.17162(13) -0.3358(2) 0.27791(14)
N7F N 0.38999(12) -0.0246(2) 0.33256(13)
N8F N 0.03689(13) 0.4770(2) 0.60422(14)
O1F O 0.25654(11) 0.61808(19) 1.14447(11)
O2F O 0.27648(10) 0.79280(18) 1.09639(11)
O3F O 0.18279(10) 0.68469(18) 1.04016(11)
O4F O 0.08982(11) 0.5707(2) 0.97065(12)
O5F O 0.11593(10) 0.74657(19) 0.94393(11)
O6F O 0.12250(11) 0.6105(2) 0.84941(11)
O7F O 0.20368(10) 0.54929(18) 0.94805(11)
O8F O 0.25529(12) 0.5479(2) 0.82634(12)
O9F O 0.30884(12) 0.4715(2) 0.93342(13)
O10F O 0.33530(10) 0.64934(18) 0.89824(10)
O11F O 0.29912(10) 0.63499(18) 1.01544(11)
O12F O 0.08057(11) 0.8996(2) 1.00372(13)
O13F O 0.07152(10) -0.2551(2) 0.06945(13)
O13F_2 O 0.07152(10) 0.7449(2) 1.06945(13)
loop_
_geom_bond_atom_site_label_1
_geom_bond_atom_site_label_2
_geom_bond_site_symmetry_1
_geom_bond_site_symmetry_2
C1 C2 1_555 1_555
C2 H1 1_555 1_555
C3 C2 1_555 1_555
H2 C3 1_555 1_555
C4 C3 1_555 1_555
H3 C4 1_555 1_555
C5 C4 1_555 1_555
C6 C1 1_555 1_555
H4 C6 1_555 1_555
C7 C5 1_555 1_555
H5 C7 1_555 1_555
H6 C7 1_555 1_555
C8 H7 1_555 1_555
C9 C8 1_555 1_555
H8 C9 1_555 1_555
C10 H9 1_555 1_555
C11 C1 1_555 1_555
H10 C11 1_555 1_555
H11 C11 1_555 1_555
C12 H12 1_555 1_555
C13 C12 1_555 1_555
H13 C13 1_555 1_555
C14 H14 1_555 1_555
C15 C16 1_555 1_555
C16 H15 1_555 1_555
C17 C16 1_555 1_555
H16 C17 1_555 1_555
C18 C17 1_555 1_555
H17 C18 1_555 1_555
C19 C18 1_555 1_555
C20 C15 1_555 1_555
H18 C20 1_555 1_555
C21 C15 1_555 1_555
H19 C21 1_555 1_555
H20 C21 1_555 1_555
C22 H21 1_555 1_555
C23 C22 1_555 1_555
H22 C23 1_555 1_555
C24 H23 1_555 1_555
C25 C19 1_555 1_555
H24 C25 1_555 1_555
H25 C25 1_555 1_555
C26 H26 1_555 1_555
C27 C26 1_555 1_555
H27 C27 1_555 1_555
C28 H28 1_555 1_555
Cu1 N1 1_555 1_555
Cu2 N3 1_555 1_555
Mo1 O1 1_555 1_555
Mo2 O3 1_555 1_555
Mo3 O7 1_555 1_555
Mo4 O3 1_555 1_555
N1 C9 1_555 1_555
N2 C7 1_555 1_555
N3 C13 1_555 1_555
N4 C11 1_555 1_555
N5 C23 1_555 1_555
N6 C21 1_555 1_555
N7 C25 1_555 1_555
N8 Cu2 1_555 1_555
O2 Mo1 1_555 1_555
O3 Mo1 1_555 1_555
O4 Mo2 1_555 1_555
O5 Mo2 1_555 1_555
O6 Mo2 1_555 1_555
O7 Mo2 1_555 1_555
O8 Mo3 1_555 1_555
O9 Mo3 1_555 1_555
O10 Mo3 1_555 1_555
O11 Mo1 1_555 1_555
O12 Mo4 1_555 1_555
O13 Cu1 1_555 1_555
C1F C2F 1_555 1_555
C2F H1F 1_555 1_555
C3F C2F 1_555 1_555
H2F C3F 1_555 1_555
C4F C3F 1_555 1_555
H3F C4F 1_555 1_555
C5F C4F 1_555 1_555
C6F C1F 1_555 1_555
H4F C6F 1_555 1_555
C7F C5F 1_555 1_555
H5F C7F 1_555 1_555
H6F C7F 1_555 1_555
C8F H7F 1_555 1_555
C9F C8F 1_555 1_555
H8F C9F 1_555 1_555
C10F H9F 1_555 1_555
C11F C1F 1_555 1_555
H10F C11F 1_555 1_555
H11F C11F 1_555 1_555
C12F H12F 1_555 1_555
C13F C12F 1_555 1_555
H13F C13F 1_555 1_555
C14F H14F 1_555 1_555
C15F C16F 1_555 1_555
C16F H15F 1_555 1_555
C17F C16F 1_555 1_555
H16F C17F 1_555 1_555
C18F C17F 1_555 1_555
H17F C18F 1_555 1_555
C19F C18F 1_555 1_555
C20F C15F 1_555 1_555
H18F C20F 1_555 1_555
C21F C15F 1_555 1_555
H19F C21F 1_555 1_555
H20F C21F 1_555 1_555
C22F H21F 1_555 1_555
C23F C22F 1_555 1_555
H22F C23F 1_555 1_555
C24F H23F 1_555 1_555
C25F C19F 1_555 1_555
H24F C25F 1_555 1_555
H25F C25F 1_555 1_555
C26F H26F 1_555 1_555
C27F N8 1_555 1_555
H27F C27F 1_555 1_555
C28F N8 1_555 1_555
H28F C28F 1_555 1_555
Cu1F N1F 1_555 1_555
Cu2F N3F 1_555 1_555
Mo1F O1F 1_555 1_555
Mo2F O2 1_555 1_555
Mo3F O2 1_555 1_555
Mo4F O10 1_555 1_555
Mo4F_2 O13F 1_555 1_555
N1F C9F 1_555 1_555
N2F C7F 1_555 1_555
N3F C13F 1_555 1_555
N4F C11F 1_555 1_555
N5F C23F 1_555 1_555
N6F C21F 1_555 1_555
N7F C25F 1_555 1_555
N8F C27 1_555 1_555
O2F Mo2 1_555 1_555
O3F Mo1F 1_555 1_555
O4F Mo2F 1_555 1_555
O5F Mo2F 1_555 1_555
O6F Mo2F 1_555 1_555
O7F Mo2F 1_555 1_555
O8F Mo3F 1_555 1_555
O9F Mo3F 1_555 1_555
O10F Mo4 1_555 1_555
O11F Mo4 1_555 1_555
O12F Mo4F 1_555 1_555
O13F Cu1F 1_555 1_555
O13F_2 Mo4F 1_555 1_555
C5 C6 1_555 1_555
C8 N2 1_555 1_555
C10 N1 1_555 1_555
C10 N2 1_555 1_555
C12 N4 1_555 1_555
C14 N3 1_555 1_555
C14 N4 1_555 1_555
C19 C20 1_555 1_555
C22 N6 1_555 1_555
C24 N5 1_555 1_555
C24 N6 1_555 1_555
C26 N7 1_555 1_555
C28 N7 1_555 1_555
C28 N8F 1_555 1_555
Cu1 N5 1_555 1_555
Mo3 O11 1_555 1_555
Mo3 O2F 1_555 1_555
Mo4 O5 1_555 1_555
Mo4 O13 1_555 1_555
O11 Mo4F 1_555 1_555
C5F C6F 1_555 1_555
C8F N2F 1_555 1_555
C10F N1F 1_555 1_555
C10F N2F 1_555 1_555
C12F N4F 1_555 1_555
C14F N3F 1_555 1_555
C14F N4F 1_555 1_555
C19F C20F 1_555 1_555
C22F N6F 1_555 1_555
C24F N5F 1_555 1_555
C24F N6F 1_555 1_555
C26F C27F 1_555 1_555
C26F N7F 1_555 1_555
C28F N7F 1_555 1_555
Cu1F N5F 1_555 1_555
Cu2F N8F 1_555 1_555
Mo1F O2F 1_555 1_555
Mo1F O11F 1_555 1_555
Mo2F O3F 1_555 1_555
Mo3F O7F 1_555 1_555
Mo3F O10F 1_555 1_555
Mo3F O11F 1_555 1_555
Mo4F O3F 1_555 1_555
Mo4F O5F 1_555 1_555

#END
