
#######################################################################
#
#                 Cambridge Crystallographic Data Centre
#                                CCDC 
#
#######################################################################
#
# If this CIF has been generated from an entry in the Cambridge 
# Structural Database, then it will include bibliographic, chemical, 
# crystal, experimental, refinement or atomic coordinate data resulting 
# from the CCDC's data processing and validation procedures.
#
#######################################################################

data_PELSAC
_symmetry_cell_setting           monoclinic
_symmetry_space_group_name_H-M   'P 21'
_symmetry_Int_Tables_number      4
_space_group_name_Hall           'P 2yb'
loop_
_symmetry_equiv_pos_site_id
_symmetry_equiv_pos_as_xyz
1 x,y,z
2 -x,1/2+y,-z
_cell_length_a                   13.2049(9)
_cell_length_b                   14.9418(7)
_cell_length_c                   20.5766(12)
_cell_angle_alpha                90
_cell_angle_beta                 104.651(4)
_cell_angle_gamma                90
_cell_volume                     3927.86
loop_
_atom_site_label
_atom_site_type_symbol
_atom_site_fract_x
_atom_site_fract_y
_atom_site_fract_z
O2 O -0.093(3) 0.991(2) -0.3604(15)
O3 O -0.419(3) 0.170(2) -0.2640(15)
W1 W -0.33977(11) -0.15188(11) 0.33445(7)
W2 W -0.36360(11) -0.16304(11) 0.15351(8)
W3 W -0.17861(11) 0.21303(11) 0.16845(7)
W4 W -0.15600(11) 0.22264(11) 0.33570(8)
W5 W -0.24006(12) 0.03163(12) 0.42295(7)
W6 W -0.08319(13) -0.10371(11) 0.36127(7)
W7 W -0.28670(12) 0.01259(12) 0.07263(7)
W8 W -0.45919(12) 0.15931(11) 0.13859(7)
W9 W 0.00305(12) 0.08679(11) 0.27562(7)
W10 W -0.43547(13) 0.16568(11) 0.30497(7)
W11 W -0.53576(12) -0.01587(11) 0.21796(7)
W12 W -0.10980(13) -0.11162(11) 0.17893(7)
Ni1 Ni -0.5639(3) 0.3718(3) 0.35380(19)
Ni2 Ni 0.0639(3) -0.3028(3) 0.14827(19)
Cl1 Cl -0.6506(7) 0.5065(8) 0.3618(5)
Cl2 Cl 0.1565(8) -0.4353(8) 0.1413(6)
Si1 Si -0.2650(7) 0.0287(7) 0.2467(5)
O4 O -0.3809(19) 0.0672(17) 0.2351(11)
O5 O -0.2632(19) -0.0356(17) 0.1855(11)
O6 O -0.1814(17) 0.1100(16) 0.2524(10)
O7 O -0.2460(16) -0.0309(14) 0.3174(9)
O8 O -0.564(2) 0.070(2) 0.1463(14)
O9 O -0.365(2) -0.098(2) 0.0709(13)
O10 O -0.204(2) 0.117(2) 0.1117(13)
O11 O 0.133(3) 0.085(2) 0.2905(16)
O12 O -0.402(2) 0.069(2) 0.0880(15)
O13 O -0.166(2) 0.1267(19) 0.3981(15)
O14 O -0.393(3) -0.248(2) 0.3613(15)
O15 O -0.1948(18) -0.1835(17) 0.3649(11)
O16 O -0.119(3) 0.317(2) 0.3878(12)
O17 O -0.3076(16) 0.2274(16) 0.3105(10)
O18 O -0.528(2) 0.226(2) 0.0811(13)
O19 O -0.0195(18) -0.0008(17) 0.3382(11)
O20 O -0.321(2) -0.0815(17) 0.4136(11)
O21 O -0.4773(17) -0.0967(17) 0.1661(11)
O22 O -0.3381(17) -0.1899(16) 0.2473(11)
O23 O -0.659(2) -0.0602(19) 0.2049(13)
O24 O -0.168(2) -0.0569(17) 0.0874(12)
O25 O -0.455(2) -0.085(2) 0.2917(13)
O26 O -0.101(2) -0.1360(19) 0.2703(14)
O27 O -0.548(2) 0.0758(19) 0.2778(13)
O28 O -0.031(2) -0.004(2) 0.2134(14)
O29 O 0.0229(18) -0.1660(19) 0.4024(12)
O30 O -0.426(2) -0.256(2) 0.1180(13)
O31 O -0.0173(15) -0.1820(15) 0.1585(10)
O32 O -0.0349(17) 0.1653(17) 0.2055(10)
O33 O -0.023(2) 0.1788(19) 0.3358(13)
O34 O -0.4933(17) 0.2429(17) 0.3451(11)
O35 O -0.3299(17) 0.2190(17) 0.1540(11)
O36 O -0.3643(18) 0.092(2) 0.3802(13)
O37 O -0.1135(19) -0.044(2) 0.4369(14)
O38 O -0.305(3) 0.026(2) -0.0112(14)
O39 O -0.155(3) 0.296(2) 0.1183(16)
O40 O -0.160(2) 0.273(2) 0.2520(14)
O41 O -0.4834(18) 0.2062(18) 0.2161(11)
O42 O -0.2255(18) -0.1936(18) 0.1577(15)
O43 O -0.2306(18) 0.0529(17) 0.5046(12)
N1 N -0.972(3) 0.045(3) 0.5616(17)
N2 N -0.653(2) 0.3025(19) 0.4080(12)
N3 N -0.0406(18) 0.6264(17) 0.1931(11)
N4 N -0.456(2) 0.440(2) 0.3068(14)
N5 N 0.149(2) -0.2242(19) 0.0972(13)
N6 N 0.451(2) 0.028(2) -0.0746(14)
N7 N -0.160(2) 0.241(2) 0.7572(14)
N8 N -0.4526(18) 0.3810(18) 0.4440(11)
N9 N -0.960(2) 0.181(2) -0.0524(16)
N10 N -0.6672(17) 0.3315(17) 0.2652(11)
C1 C -0.903(3) -0.006(3) 0.5311(19)
H1 H -0.9022 -0.0684 0.5298
C2 C -0.835(3) 0.047(3) 0.5037(18)
H2 H -0.7774 0.0222 0.4929
C3 C -0.856(3) 0.134(4) 0.493(2)
C4 C -0.784(3) 0.192(3) 0.464(2)
C5 C -0.681(3) 0.171(3) 0.4714(19)
H3 H -0.6552 0.1174 0.4925
C6 C -0.613(3) 0.225(3) 0.4489(19)
H4 H -0.5420 0.2128 0.4599
C7 C -0.757(3) 0.321(3) 0.3970(18)
H5 H -0.7887 0.3665 0.3684
C8 C -0.816(4) 0.263(3) 0.434(2)
H6 H -0.8837 0.2820 0.4337
C9 C -0.933(3) 0.179(3) 0.522(2)
H7 H -0.9384 0.2408 0.5180
C10 C -0.995(3) 0.138(3) 0.5525(19)
H8 H -1.0477 0.1664 0.5669
C11 C -0.086(3) 0.559(2) 0.1672(17)
H9 H -0.0675 0.5361 0.1298
C12 C -0.163(3) 0.513(3) 0.190(2)
H10 H -0.1880 0.4583 0.1714
C13 C -0.203(3) 0.552(2) 0.2404(15)
C14 C -0.293(3) 0.509(3) 0.2659(16)
C15 C -0.339(3) 0.437(3) 0.2389(17)
H11 H -0.3129 0.4082 0.2065
C16 C -0.423(2) 0.400(2) 0.2550(15)
H12 H -0.4569 0.3508 0.2323
C17 C -0.404(2) 0.513(2) 0.3359(15)
H13 H -0.4235 0.5378 0.3724
C18 C -0.328(3) 0.550(2) 0.3157(16)
H14 H -0.2984 0.6027 0.3349
C19 C -0.151(3) 0.633(3) 0.271(2)
H15 H -0.1708 0.6638 0.3050
C20 C -0.067(3) 0.659(3) 0.2457(16)
H16 H -0.0257 0.7051 0.2685
C21 C 0.252(3) -0.241(3) 0.1041(19)
H17 H 0.2803 -0.2884 0.1323
C22 C 0.315(3) -0.201(3) 0.0776(15)
H18 H 0.3842 -0.2190 0.0854
C23 C 0.275(3) -0.127(2) 0.0344(16)
C24 C 0.336(2) -0.072(2) -0.0047(15)
C25 C 0.415(3) -0.108(3) -0.0297(16)
H19 H 0.4372 -0.1669 -0.0206
C26 C 0.462(4) -0.051(3) -0.071(2)
H20 H 0.5038 -0.0775 -0.0953
C27 C 0.393(3) 0.076(3) -0.0443(19)
H21 H 0.3897 0.1384 -0.0474
C28 C 0.330(3) 0.024(3) -0.003(2)
H22 H 0.2893 0.0526 0.0211
C29 C 0.165(3) -0.105(4) 0.029(2)
H23 H 0.1331 -0.0563 0.0038
C30 C 0.112(3) -0.154(2) 0.0598(16)
H24 H 0.0426 -0.1386 0.0554
C31 C -0.181(3) 0.329(3) 0.7552(17)
H25 H -0.1601 0.3644 0.7936
C32 C -0.239(3) 0.370(3) 0.6892(18)
H26 H -0.2565 0.4302 0.6852
C33 C -0.267(3) 0.309(3) 0.632(2)
C34 C -0.330(3) 0.346(3) 0.5731(16)
C35 C -0.414(2) 0.385(2) 0.5670(15)
H27 H -0.4385 0.3961 0.6047
C36 C -0.476(3) 0.414(3) 0.4997(18)
H28 H -0.5297 0.4552 0.4958
C37 C -0.362(2) 0.347(2) 0.4516(14)
H29 H -0.3377 0.3452 0.4130
C38 C -0.289(3) 0.310(3) 0.5128(18)
H30 H -0.2317 0.2739 0.5150
C39 C -0.231(2) 0.222(3) 0.6443(16)
H31 H -0.2417 0.1825 0.6082
C40 C -0.182(2) 0.191(2) 0.7063(15)
H32 H -0.1643 0.1308 0.7113
C41 C -0.864(2) 0.214(3) -0.0470(16)
H33 H -0.8390 0.2202 -0.0851
C42 C -0.800(3) 0.240(3) 0.0167(17)
H34 H -0.7315 0.2584 0.0201
C43 C -0.837(3) 0.238(2) 0.0744(14)
C44 C -0.778(2) 0.259(2) 0.1394(15)
C45 C -0.733(2) 0.348(3) 0.1481(16)
H35 H -0.7381 0.3821 0.1096
C46 C -0.681(3) 0.387(3) 0.2094(17)
H36 H -0.6571 0.4455 0.2126
C47 C -0.704(3) 0.248(3) 0.2565(18)
H37 H -0.6871 0.2109 0.2940
C48 C -0.762(3) 0.212(3) 0.1996(17)
H38 H -0.7923 0.1553 0.2003
C49 C -0.930(3) 0.198(3) 0.0689(17)
H39 H -0.9591 0.1972 0.1058
C50 C -0.989(3) 0.156(3) 0.0036(16)
H40 H -1.0429 0.1147 0.0019
Ni2_2 Ni 0.0639(3) 0.6972(3) 0.14827(19)
Ni2A Ni -0.0639(3) 0.1972(3) 0.85173(19)
Ni2A_2 Ni -1.0639(3) 0.1972(3) -0.14827(19)
N3_2 N -0.0406(18) -0.3736(17) 0.1931(11)
N7A N 0.160(2) -0.259(2) 0.2428(14)
N9A N -0.040(2) -0.319(2) 0.0524(16)
O1 O -0.421(2) 0.069(2) -0.1503(14)
loop_
_geom_bond_atom_site_label_1
_geom_bond_atom_site_label_2
_geom_bond_site_symmetry_1
_geom_bond_site_symmetry_2
W1 O7 1_555 1_555
W2 O5 1_555 1_555
W3 O6 1_555 1_555
W4 O6 1_555 1_555
W5 O7 1_555 1_555
W6 O7 1_555 1_555
W7 O5 1_555 1_555
W8 O4 1_555 1_555
W9 O6 1_555 1_555
W10 O4 1_555 1_555
W11 O4 1_555 1_555
W12 O5 1_555 1_555
Ni1 Cl1 1_555 1_555
Ni2 Cl2 1_555 1_555
Si1 O4 1_555 1_555
O5 Si1 1_555 1_555
O6 Si1 1_555 1_555
O7 Si1 1_555 1_555
O8 W8 1_555 1_555
O9 W2 1_555 1_555
O10 W3 1_555 1_555
O11 W9 1_555 1_555
O12 W7 1_555 1_555
O13 W4 1_555 1_555
O14 W1 1_555 1_555
O15 W1 1_555 1_555
O16 W4 1_555 1_555
O17 W4 1_555 1_555
O18 W8 1_555 1_555
O19 W6 1_555 1_555
O20 W1 1_555 1_555
O21 W2 1_555 1_555
O22 W1 1_555 1_555
O23 W11 1_555 1_555
O24 W7 1_555 1_555
O25 W1 1_555 1_555
O26 W6 1_555 1_555
O27 W10 1_555 1_555
O28 W9 1_555 1_555
O29 W6 1_555 1_555
O30 W2 1_555 1_555
O31 W12 1_555 1_555
O32 W3 1_555 1_555
O33 W4 1_555 1_555
O34 W10 1_555 1_555
O35 W3 1_555 1_555
O36 W5 1_555 1_555
O37 W5 1_555 1_555
O38 W7 1_555 1_555
O39 W3 1_555 1_555
O40 W3 1_555 1_555
O41 W8 1_555 1_555
O42 W2 1_555 1_555
O43 W5 1_555 1_555
N1 C1 1_555 1_555
N2 Ni1 1_555 1_555
N3 C11 1_555 1_555
N4 Ni1 1_555 1_555
N5 Ni2 1_555 1_555
N6 C26 1_555 1_555
N7 C31 1_555 1_555
N8 Ni1 1_555 1_555
N9 C41 1_555 1_555
N10 Ni1 1_555 1_555
C1 H1 1_555 1_555
C2 C1 1_555 1_555
H2 C2 1_555 1_555
C3 C2 1_555 1_555
C4 C3 1_555 1_555
C5 C4 1_555 1_555
H3 C5 1_555 1_555
C6 N2 1_555 1_555
H4 C6 1_555 1_555
C7 N2 1_555 1_555
H5 C7 1_555 1_555
C8 C4 1_555 1_555
H6 C8 1_555 1_555
C9 C3 1_555 1_555
H7 C9 1_555 1_555
C10 N1 1_555 1_555
H8 C10 1_555 1_555
C11 H9 1_555 1_555
C12 C11 1_555 1_555
H10 C12 1_555 1_555
C13 C12 1_555 1_555
C14 C13 1_555 1_555
C15 C14 1_555 1_555
H11 C15 1_555 1_555
C16 N4 1_555 1_555
H12 C16 1_555 1_555
C17 N4 1_555 1_555
H13 C17 1_555 1_555
C18 C14 1_555 1_555
H14 C18 1_555 1_555
C19 C13 1_555 1_555
H15 C19 1_555 1_555
C20 N3 1_555 1_555
H16 C20 1_555 1_555
C21 N5 1_555 1_555
H17 C21 1_555 1_555
C22 C21 1_555 1_555
H18 C22 1_555 1_555
C23 C22 1_555 1_555
C24 C23 1_555 1_555
C25 C24 1_555 1_555
H19 C25 1_555 1_555
C26 C25 1_555 1_555
H20 C26 1_555 1_555
C27 N6 1_555 1_555
H21 C27 1_555 1_555
C28 C24 1_555 1_555
H22 C28 1_555 1_555
C29 C23 1_555 1_555
H23 C29 1_555 1_555
C30 N5 1_555 1_555
H24 C30 1_555 1_555
C31 H25 1_555 1_555
C32 C31 1_555 1_555
H26 C32 1_555 1_555
C33 C32 1_555 1_555
C34 C33 1_555 1_555
C35 C34 1_555 1_555
H27 C35 1_555 1_555
C36 N8 1_555 1_555
H28 C36 1_555 1_555
C37 N8 1_555 1_555
H29 C37 1_555 1_555
C38 C34 1_555 1_555
H30 C38 1_555 1_555
C39 C33 1_555 1_555
H31 C39 1_555 1_555
C40 N7 1_555 1_555
H32 C40 1_555 1_555
C41 H33 1_555 1_555
C42 C41 1_555 1_555
H34 C42 1_555 1_555
C43 C42 1_555 1_555
C44 C43 1_555 1_555
C45 C44 1_555 1_555
H35 C45 1_555 1_555
C46 N10 1_555 1_555
H36 C46 1_555 1_555
C47 N10 1_555 1_555
H37 C47 1_555 1_555
C48 C44 1_555 1_555
H38 C48 1_555 1_555
C49 C43 1_555 1_555
H39 C49 1_555 1_555
C50 N9 1_555 1_555
H40 C50 1_555 1_555
Ni2_2 N3 1_555 1_555
Ni2A N7 1_555 1_555
Ni2A_2 N9 1_555 1_555
N3_2 Ni2 1_555 1_555
N7A Ni2 1_555 1_555
N9A Ni2 1_555 1_555
W2 O22 1_555 1_555
W4 O40 1_555 1_555
W5 O13 1_555 1_555
W5 O20 1_555 1_555
W6 O15 1_555 1_555
W6 O37 1_555 1_555
W7 O9 1_555 1_555
W7 O10 1_555 1_555
W8 O12 1_555 1_555
W8 O35 1_555 1_555
W9 O19 1_555 1_555
W9 O32 1_555 1_555
W9 O33 1_555 1_555
W10 O17 1_555 1_555
W10 O36 1_555 1_555
W10 O41 1_555 1_555
W11 O8 1_555 1_555
W11 O21 1_555 1_555
W11 O25 1_555 1_555
W11 O27 1_555 1_555
W12 O24 1_555 1_555
W12 O26 1_555 1_555
W12 O28 1_555 1_555
W12 O42 1_555 1_555
Ni1 O34 1_555 1_555
Ni2 O31 1_555 1_555
C5 C6 1_555 1_555
C7 C8 1_555 1_555
C9 C10 1_555 1_555
C15 C16 1_555 1_555
C17 C18 1_555 1_555
C19 C20 1_555 1_555
C27 C28 1_555 1_555
C29 C30 1_555 1_555
C35 C36 1_555 1_555
C37 C38 1_555 1_555
C39 C40 1_555 1_555
C45 C46 1_555 1_555
C47 C48 1_555 1_555
C49 C50 1_555 1_555

#END
