
#######################################################################
#
#                 Cambridge Crystallographic Data Centre
#                                CCDC 
#
#######################################################################
#
# If this CIF has been generated from an entry in the Cambridge 
# Structural Database, then it will include bibliographic, chemical, 
# crystal, experimental, refinement or atomic coordinate data resulting 
# from the CCDC's data processing and validation procedures.
#
#######################################################################

data_PELTIK
_symmetry_cell_setting           orthorhombic
_symmetry_space_group_name_H-M   'P 21 21 21'
_symmetry_Int_Tables_number      19
_space_group_name_Hall           'P 2ac 2ab'
loop_
_symmetry_equiv_pos_site_id
_symmetry_equiv_pos_as_xyz
1 x,y,z
2 1/2-x,-y,1/2+z
3 -x,1/2+y,1/2-z
4 1/2+x,1/2-y,-z
_cell_length_a                   6.799(2)
_cell_length_b                   15.834(5)
_cell_length_c                   16.441(5)
_cell_angle_alpha                90
_cell_angle_beta                 90
_cell_angle_gamma                90
_cell_volume                     1769.96
loop_
_atom_site_label
_atom_site_type_symbol
_atom_site_fract_x
_atom_site_fract_y
_atom_site_fract_z
Cd1 Cd 0.79697(3) 0.597549(13) 0.340650(12)
O1 O 0.7358(3) 0.46184(13) 0.35751(14)
O2 O 0.4563(4) 0.50229(15) 0.41487(13)
O3 O 0.0214(3) 0.36815(15) 0.77036(12)
O4 O -0.2507(3) 0.39258(15) 0.70274(12)
O5 O 1.1313(4) 0.56505(18) 0.33104(18)
H1 H 1.226(6) 0.597(2) 0.310(2)
H2 H 1.194(6) 0.537(2) 0.358(2)
N1 N 0.8241(4) 0.63920(15) 0.47599(14)
N2 N 0.8478(3) 0.74367(14) 0.34756(15)
C1 C 0.8248(6) 0.5843(2) 0.53766(19)
H3 H 0.8146 0.5271 0.5258
C2 C 0.8401(5) 0.6083(3) 0.61783(19)
H4 H 0.8398 0.5685 0.6594
C3 C 0.8556(5) 0.6928(2) 0.63458(19)
H5 H 0.8648 0.7111 0.6882
C4 C 0.8576(5) 0.7501(2) 0.57218(18)
H6 H 0.8685 0.8076 0.5830
C5 C 0.8433(4) 0.7215(2) 0.49240(17)
C6 C 0.8474(4) 0.7801(2) 0.42158(17)
C7 C 0.8513(5) 0.8670(2) 0.4300(2)
H7 H 0.8475 0.8916 0.4813
C8 C 0.8611(6) 0.9168(2) 0.3606(2)
H8 H 0.8651 0.9753 0.3652
C9 C 0.8647(6) 0.8797(2) 0.2862(2)
H9 H 0.8728 0.9122 0.2392
C10 C 0.8561(5) 0.7933(2) 0.2819(2)
H10 H 0.8561 0.7680 0.2308
C11 C 0.5668(5) 0.4486(2) 0.38684(18)
C12 C 0.5068(5) 0.3567(2) 0.38631(19)
H11 H 0.5417 0.3324 0.3341
H12 H 0.5812 0.3270 0.4278
O6 O 0.3036(4) 0.34298(14) 0.40022(11)
C13 C 0.2279(5) 0.35086(17) 0.47679(16)
C14 C 0.3360(5) 0.3502(2) 0.54816(18)
H13 H 0.4722 0.3450 0.5467
C15 C 0.2384(4) 0.35730(19) 0.62191(17)
H14 H 0.3108 0.3564 0.6699
C16 C 0.0369(5) 0.36572(18) 0.62600(16)
C17 C -0.0660(5) 0.3652(2) 0.55345(18)
H15 H -0.2022 0.3705 0.5545
C18 C 0.0275(5) 0.3573(2) 0.48011(19)
H16 H -0.0456 0.3562 0.4323
C19 C -0.0700(5) 0.37613(18) 0.70540(18)
Cd1A Cd -0.29697(3) 0.402451(13) 0.840650(12)
O3A O 0.4786(3) 0.63185(15) 0.27036(12)
O4A O 0.7507(3) 0.60742(15) 0.20274(12)
loop_
_geom_bond_atom_site_label_1
_geom_bond_atom_site_label_2
_geom_bond_site_symmetry_1
_geom_bond_site_symmetry_2
Cd1 O1 1_555 1_555
O1 C11 1_555 1_555
O2 C11 1_555 1_555
O3 C19 1_555 1_555
O4 C19 1_555 1_555
O5 Cd1 1_555 1_555
H1 O5 1_555 1_555
H2 O5 1_555 1_555
N1 Cd1 1_555 1_555
N2 Cd1 1_555 1_555
C1 N1 1_555 1_555
H3 C1 1_555 1_555
C2 C1 1_555 1_555
H4 C2 1_555 1_555
C3 C2 1_555 1_555
H5 C3 1_555 1_555
C4 C3 1_555 1_555
H6 C4 1_555 1_555
C5 N1 1_555 1_555
C6 N2 1_555 1_555
C7 C6 1_555 1_555
H7 C7 1_555 1_555
C8 C7 1_555 1_555
H8 C8 1_555 1_555
C9 C8 1_555 1_555
H9 C9 1_555 1_555
C10 N2 1_555 1_555
H10 C10 1_555 1_555
C11 C12 1_555 1_555
C12 H11 1_555 1_555
H12 C12 1_555 1_555
O6 C12 1_555 1_555
C13 O6 1_555 1_555
C14 C13 1_555 1_555
H13 C14 1_555 1_555
C15 C14 1_555 1_555
H14 C15 1_555 1_555
C16 C15 1_555 1_555
C17 C16 1_555 1_555
H15 C17 1_555 1_555
C18 C13 1_555 1_555
H16 C18 1_555 1_555
C19 C16 1_555 1_555
Cd1A O3 1_555 1_555
O3A Cd1 1_555 1_555
O4A Cd1 1_555 1_555
O4 Cd1A 1_555 1_555
C4 C5 1_555 1_555
C5 C6 1_555 1_555
C9 C10 1_555 1_555
C17 C18 1_555 1_555

#END
