
#######################################################################
#
#                 Cambridge Crystallographic Data Centre
#                                CCDC 
#
#######################################################################
#
# If this CIF has been generated from an entry in the Cambridge 
# Structural Database, then it will include bibliographic, chemical, 
# crystal, experimental, refinement or atomic coordinate data resulting 
# from the CCDC's data processing and validation procedures.
#
#######################################################################

data_PELVUZ
_symmetry_cell_setting           monoclinic
_symmetry_space_group_name_H-M   'P 2/c'
_symmetry_Int_Tables_number      13
_space_group_name_Hall           '-P 2yc'
loop_
_symmetry_equiv_pos_site_id
_symmetry_equiv_pos_as_xyz
1 x,y,z
2 -x,y,1/2-z
3 -x,-y,-z
4 x,-y,1/2+z
_cell_length_a                   23.4064(10)
_cell_length_b                   5.9565(2)
_cell_length_c                   33.4858(17)
_cell_angle_alpha                90
_cell_angle_beta                 121.375(3)
_cell_angle_gamma                90
_cell_volume                     3985.95
loop_
_atom_site_label
_atom_site_type_symbol
_atom_site_fract_x
_atom_site_fract_y
_atom_site_fract_z
Sm1 Sm 0.403461(16) -0.39995(5) 0.016108(10)
Sm2 Sm -0.154122(16) -0.51630(5) -0.480550(11)
O1 O -0.0962(2) -0.2025(7) -0.43491(14)
O2 O 0.3555(2) -0.4751(7) 0.06556(13)
O3 O 0.2354(3) -0.3374(9) -0.25501(14)
O4 O 0.4235(2) -0.5531(7) -0.03940(14)
O5 O 0.2042(2) -0.4661(7) -0.06670(13)
O6 O 0.3938(2) -1.1027(8) 0.23244(14)
O7 O 0.0606(2) -0.7980(8) -0.45108(15)
O8 O 0.1085(2) 0.2170(7) -0.23596(13)
O9 O 0.2590(2) -0.6612(7) 0.03295(13)
O10 O 0.5398(2) -0.7343(7) 0.44090(14)
O11 O 0.1377(2) -0.6488(8) -0.46190(15)
O12 O 0.5990(2) -1.0430(6) 0.45070(13)
O13 O 0.4819(2) -0.7045(7) -0.06696(13)
O14 O 0.2960(2) -0.2595(7) -0.04132(13)
C1 C 0.1142(3) -0.6931(11) -0.4364(2)
C2 C 0.3369(3) -0.7316(10) 0.11292(19)
C3 C 0.3172(3) -0.6130(10) 0.0681(2)
C4 C 0.5126(3) -0.9434(9) 0.3732(2)
C5 C 0.3044(3) -0.9269(10) 0.1124(2)
H1 H 0.2688 -0.9795 0.0842
C6 C 0.0113(3) -0.1015(11) -0.3458(2)
H2 H 0.0129 -0.2348 -0.3597
C7 C 0.3737(3) -0.5613(10) -0.1220(2)
C8 C 0.4304(3) -0.6097(10) -0.0727(2)
O15 O -0.1420(2) 0.1325(7) -0.44217(13)
C9 C 0.1381(3) 0.0704(10) -0.1983(2)
C10 C 0.5531(3) -0.9049(11) 0.4246(2)
C11 C 0.4242(3) -0.8381(11) 0.2961(2)
H3 H 0.3910 -0.7371 0.2764
C12 C 0.0055(3) 0.2905(11) -0.3048(2)
H4 H 0.0037 0.4232 -0.2909
C13 C 0.1110(3) -0.1285(11) -0.1960(2)
H5 H 0.0715 -0.1813 -0.2216
C14 C -0.0417(3) 0.0457(10) -0.3705(2)
C15 C -0.0439(3) 0.2426(11) -0.3499(2)
H6 H -0.0789 0.3432 -0.3666
C16 C 0.5235(3) -1.1350(11) 0.3544(2)
H7 H 0.5576 -1.2336 0.3738
C17 C 0.3757(3) -0.9628(10) 0.1945(2)
C18 C 0.2370(3) -0.3096(10) -0.07172(19)
C19 C 0.4636(3) -0.7953(11) 0.3436(2)
H8 H 0.4568 -0.6643 0.3557
C20 C 0.3166(3) -0.6221(12) -0.2051(2)
H9 H 0.3101 -0.7072 -0.2304
C21 C 0.2031(3) -0.1772(10) -0.11626(19)
C22 C 0.1413(4) -0.7143(14) -0.3540(2)
H10 H 0.1122 -0.8356 -0.3625
C23 C 0.3643(3) -0.6846(11) -0.1595(2)
H11 H 0.3902 -0.8120 -0.1544
C24 C 0.1525(3) -0.6192(11) -0.3862(2)
C25 C 0.0619(3) -0.0508(11) -0.3006(2)
H12 H 0.0983 -0.1465 -0.2843
C26 C 0.2862(3) -0.3105(12) -0.1748(2)
H13 H 0.2599 -0.1841 -0.1800
C27 C 0.3238(3) -1.0433(11) 0.1525(2)
H14 H 0.3022 -1.1759 0.1516
C28 C 0.1435(3) -0.2506(11) -0.1546(2)
H15 H 0.1249 -0.3849 -0.1526
C29 C 0.2130(4) -0.4494(13) -0.2970(2)
C30 C 0.2263(4) -0.3520(13) -0.3278(2)
H16 H 0.2548 -0.2287 -0.3192
C31 C 0.1974(3) 0.1479(10) -0.1604(2)
H17 H 0.2155 0.2836 -0.1624
C32 C 0.0574(3) 0.1441(11) -0.2802(2)
C33 C 0.2796(3) -0.4333(11) -0.2118(2)
C34 C 0.3329(3) -0.3792(11) -0.1297(2)
H18 H 0.3367 -0.3015 -0.1043
C35 C 0.3874(3) -0.6510(11) 0.1550(2)
H19 H 0.4091 -0.5187 0.1559
C36 C 0.1726(4) -0.6332(15) -0.3087(2)
H20 H 0.1662 -0.7032 -0.2865
C37 C 0.1966(4) -0.4403(13) -0.3728(2)
H21 H 0.2064 -0.3785 -0.3940
C38 C 0.4843(3) -1.1805(11) 0.3073(2)
H22 H 0.4914 -1.3106 0.2951
C39 C 0.2296(3) 0.0239(10) -0.1200(2)
H23 H 0.2697 0.0756 -0.0948
C40 C 0.4067(3) -0.7642(10) 0.1964(2)
H24 H 0.4401 -0.7063 0.2250
C41 C 0.4346(3) -1.0320(11) 0.2782(2)
O16 O -0.2305(3) -0.1867(9) -0.51317(16)
H25 H -0.2124 -0.0766 -0.4966
O17 O 0.3268(2) -0.7242(8) -0.02031(15)
H26 H 0.3426 -0.8345 -0.0033
O18 O -0.1281(2) -0.8226(8) -0.52018(15)
H27 H -0.1498 -0.8026 -0.5486
H28 H -0.0968 -0.9387 -0.5020
O19 O 0.4261(2) -0.0849(7) -0.02645(14)
H29 H 0.4036 -0.1064 -0.0548
H30 H 0.4569 0.0338 -0.0091
O20 O -0.0323(2) -0.5679(7) -0.43755(14)
H31 H -0.0227 -0.6674 -0.4500
H32 H -0.0040 -0.4773 -0.4106
C42 C -0.0970(3) -0.0131(11) -0.4197(2)
H33 H -0.265(3) -0.205(12) -0.524(2)
H36 H 0.292(3) -0.669(9) -0.0290(18)
Sm1A Sm 0.596539(16) -0.39995(5) 0.483892(10)
Sm1A_2 Sm 0.596539(16) -1.39995(5) 0.483892(10)
Sm1B Sm 0.596539(16) -0.60005(5) -0.016108(10)
Sm2A Sm 0.154122(16) -0.51630(5) -0.019450(11)
Sm2B Sm 0.154122(16) -0.48370(5) -0.519450(11)
Sm2_2 Sm -0.154122(16) 0.48370(5) -0.480550(11)
O5A O -0.2042(2) -0.4661(7) -0.43330(13)
O9A O -0.2590(2) -0.6612(7) -0.53295(13)
O10A O 0.4602(2) -0.7343(7) 0.05910(14)
O11B O -0.1377(2) -0.3512(8) -0.53810(15)
O12A O 0.4010(2) -0.0430(6) 0.04930(13)
O13B O 0.5181(2) -0.2955(7) 0.06696(13)
O15_2 O -0.1420(2) -0.8675(7) -0.44217(13)
O21 O 0.0308(3) 0.2368(10) 0.0454(2)
H34 H 0.009(4) 0.242(16) 0.023(3)
H35 H 0.042(3) 0.067(12) 0.054(2)
loop_
_geom_bond_atom_site_label_1
_geom_bond_atom_site_label_2
_geom_bond_site_symmetry_1
_geom_bond_site_symmetry_2
Sm1 O2 1_555 1_555
Sm2 O1 1_555 1_555
O1 C42 1_555 1_555
O2 C3 1_555 1_555
O3 C29 1_555 1_555
O4 Sm1 1_555 1_555
O5 C18 1_555 1_555
O6 C17 1_555 1_555
O7 C1 1_555 1_555
O8 C9 1_555 1_555
O9 C3 1_555 1_555
O10 C10 1_555 1_555
O11 C1 1_555 1_555
O12 C10 1_555 1_555
O13 C8 1_555 1_555
O14 Sm1 1_555 1_555
C1 C24 1_555 1_555
C2 C3 1_555 1_555
C4 C10 1_555 1_555
C5 C2 1_555 1_555
H1 C5 1_555 1_555
C6 H2 1_555 1_555
C7 C8 1_555 1_555
C8 O4 1_555 1_555
O15 C42 1_555 1_555
C9 C13 1_555 1_555
C11 H3 1_555 1_555
C12 H4 1_555 1_555
C13 H5 1_555 1_555
C14 C6 1_555 1_555
C15 C12 1_555 1_555
H6 C15 1_555 1_555
C16 C4 1_555 1_555
H7 C16 1_555 1_555
C17 C27 1_555 1_555
C18 O14 1_555 1_555
C19 C4 1_555 1_555
H8 C19 1_555 1_555
C20 H9 1_555 1_555
C21 C18 1_555 1_555
C22 H10 1_555 1_555
C23 C7 1_555 1_555
H11 C23 1_555 1_555
C24 C22 1_555 1_555
C25 C6 1_555 1_555
H12 C25 1_555 1_555
C26 H13 1_555 1_555
C27 C5 1_555 1_555
H14 C27 1_555 1_555
C28 C13 1_555 1_555
H15 C28 1_555 1_555
C29 C30 1_555 1_555
C30 H16 1_555 1_555
C31 C9 1_555 1_555
H17 C31 1_555 1_555
C32 O8 1_555 1_555
C33 O3 1_555 1_555
C34 C7 1_555 1_555
H18 C34 1_555 1_555
C35 C2 1_555 1_555
H19 C35 1_555 1_555
C36 C22 1_555 1_555
H20 C36 1_555 1_555
C37 C24 1_555 1_555
H21 C37 1_555 1_555
C38 C16 1_555 1_555
H22 C38 1_555 1_555
C39 C21 1_555 1_555
H23 C39 1_555 1_555
C40 C17 1_555 1_555
H24 C40 1_555 1_555
C41 O6 1_555 1_555
O16 Sm2 1_555 1_555
H25 O16 1_555 1_555
O17 Sm1 1_555 1_555
H26 O17 1_555 1_555
O18 Sm2 1_555 1_555
H27 O18 1_555 1_555
H28 O18 1_555 1_555
O19 Sm1 1_555 1_555
H29 O19 1_555 1_555
H30 O19 1_555 1_555
O20 Sm2 1_555 1_555
H31 O20 1_555 1_555
H32 O20 1_555 1_555
C42 C14 1_555 1_555
O21 H34 1_555 1_555
H33 O16 1_555 1_555
H35 O21 1_555 1_555
H36 O17 1_555 1_555
Sm1A O10 1_555 1_555
Sm1A_2 O12 1_555 1_555
Sm1B O13 1_555 1_555
Sm2A O5 1_555 1_555
Sm2B O11 1_555 1_555
Sm2_2 O15 1_555 1_555
O5A Sm2 1_555 1_555
O9A Sm2 1_555 1_555
O10A Sm1 1_555 1_555
O11B Sm2 1_555 1_555
O12A Sm1 1_555 1_555
O13B Sm1 1_555 1_555
O15_2 Sm2 1_555 1_555
O9 Sm2A 1_555 1_555
C11 C19 1_555 1_555
C11 C41 1_555 1_555
C12 C32 1_555 1_555
C14 C15 1_555 1_555
C20 C23 1_555 1_555
C20 C33 1_555 1_555
C21 C28 1_555 1_555
C25 C32 1_555 1_555
C26 C33 1_555 1_555
C26 C34 1_555 1_555
C29 C36 1_555 1_555
C30 C37 1_555 1_555
C31 C39 1_555 1_555
C35 C40 1_555 1_555
C38 C41 1_555 1_555

#END
