
#######################################################################
#
#                 Cambridge Crystallographic Data Centre
#                                CCDC 
#
#######################################################################
#
# If this CIF has been generated from an entry in the Cambridge 
# Structural Database, then it will include bibliographic, chemical, 
# crystal, experimental, refinement or atomic coordinate data resulting 
# from the CCDC's data processing and validation procedures.
#
#######################################################################

data_PELWUA
_symmetry_cell_setting           monoclinic
_symmetry_space_group_name_H-M   'C 2/c'
_symmetry_Int_Tables_number      15
_space_group_name_Hall           '-C 2yn'
loop_
_symmetry_equiv_pos_site_id
_symmetry_equiv_pos_as_xyz
1 x,y,z
2 -x,y,1/2-z
3 1/2+x,1/2+y,z
4 1/2-x,1/2+y,1/2-z
5 -x,-y,-z
6 x,-y,1/2+z
7 1/2-x,1/2-y,-z
8 1/2+x,1/2-y,1/2+z
_cell_length_a                   13.655(3)
_cell_length_b                   13.995(3)
_cell_length_c                   13.136(3)
_cell_angle_alpha                90
_cell_angle_beta                 94.14(3)
_cell_angle_gamma                90
_cell_volume                     2503.76
loop_
_atom_site_label
_atom_site_type_symbol
_atom_site_fract_x
_atom_site_fract_y
_atom_site_fract_z
Cd1 Cd 0.0000 0.49393(3) 0.2500
N1 N -0.0848(4) 0.4049(3) 0.0043(3)
H1 H -0.1083 0.4547 0.0353
H2 H -0.1125 0.3858 -0.0547
N2 N 0.0390(3) 0.3817(3) 0.1349(3)
S1 S 0.03999(12) 0.25890(11) -0.01369(11)
C1 C -0.0071(4) 0.3582(4) 0.0469(4)
C2 C 0.1165(4) 0.3180(4) 0.1593(4)
C3 C 0.1811(5) 0.3242(5) 0.2465(5)
H3 H 0.1750 0.3738 0.2951
C4 C 0.1295(4) 0.2472(4) 0.0875(4)
C5 C 0.2042(4) 0.1806(4) 0.1000(4)
H4 H 0.2133 0.1337 0.0493
C6 C 0.2548(5) 0.2552(4) 0.2603(5)
H5 H 0.2982 0.2572 0.3201
C7 C 0.3450(4) 0.1124(4) 0.2086(4)
C8 C 0.2661(4) 0.1844(4) 0.1895(4)
O1 O 0.3609(3) 0.0498(3) 0.1428(3)
O2 O 0.3942(3) 0.1130(3) 0.2930(3)
Cd1B Cd -0.5000 -0.00607(3) 0.2500
Cd1B_2 Cd 0.5000 -0.00607(3) 0.2500
N1A N 0.0848(4) 0.4049(3) 0.4957(3)
H1A H 0.1083 0.4547 0.4647
H2A H 0.1125 0.3858 0.5547
N2A N -0.0390(3) 0.3817(3) 0.3651(3)
S1A S -0.03999(12) 0.25890(11) 0.51369(11)
C1A C 0.0071(4) 0.3582(4) 0.4531(4)
C2A C -0.1165(4) 0.3180(4) 0.3407(4)
C3A C -0.1811(5) 0.3242(5) 0.2535(5)
H3A H -0.1750 0.3738 0.2049
C4A C -0.1295(4) 0.2472(4) 0.4125(4)
C5A C -0.2042(4) 0.1806(4) 0.4000(4)
H4A H -0.2133 0.1337 0.4507
C6A C -0.2548(5) 0.2552(4) 0.2397(5)
H5A H -0.2982 0.2572 0.1799
C7A C -0.3450(4) 0.1124(4) 0.2914(4)
C8A C -0.2661(4) 0.1844(4) 0.3105(4)
O1A O -0.3609(3) 0.0498(3) 0.3572(3)
O1B O -0.1391(3) 0.5498(3) 0.1428(3)
O1C O 0.1391(3) 0.5498(3) 0.3572(3)
O2A O -0.3942(3) 0.1130(3) 0.2070(3)
O2B O -0.1058(3) 0.6130(3) 0.2930(3)
O2C O 0.1058(3) 0.6130(3) 0.2070(3)
loop_
_geom_bond_atom_site_label_1
_geom_bond_atom_site_label_2
_geom_bond_site_symmetry_1
_geom_bond_site_symmetry_2
Cd1 N2 1_555 1_555
N1 H1 1_555 1_555
H2 N1 1_555 1_555
N2 C1 1_555 1_555
S1 C1 1_555 1_555
C1 N1 1_555 1_555
C2 N2 1_555 1_555
C3 C2 1_555 1_555
H3 C3 1_555 1_555
C4 S1 1_555 1_555
C5 C4 1_555 1_555
H4 C5 1_555 1_555
C6 C3 1_555 1_555
H5 C6 1_555 1_555
C7 C8 1_555 1_555
C8 C5 1_555 1_555
O1 C7 1_555 1_555
O2 C7 1_555 1_555
Cd1B O1A 1_555 1_555
Cd1B_2 O1 1_555 1_555
N1A H1A 1_555 1_555
H2A N1A 1_555 1_555
N2A Cd1 1_555 1_555
S1A C1A 1_555 1_555
C1A N1A 1_555 1_555
C2A N2A 1_555 1_555
C3A C2A 1_555 1_555
H3A C3A 1_555 1_555
C4A S1A 1_555 1_555
C5A C4A 1_555 1_555
H4A C5A 1_555 1_555
C6A C3A 1_555 1_555
H5A C6A 1_555 1_555
C7A C8A 1_555 1_555
C8A C5A 1_555 1_555
O1A C7A 1_555 1_555
O1B Cd1 1_555 1_555
O1C Cd1 1_555 1_555
O2A Cd1B 1_555 1_555
O2B Cd1 1_555 1_555
O2C Cd1 1_555 1_555
C2 C4 1_555 1_555
C6 C8 1_555 1_555
O2 Cd1B_2 1_555 1_555
N2A C1A 1_555 1_555
C2A C4A 1_555 1_555
C6A C8A 1_555 1_555
C7A O2A 1_555 1_555

#END
