
#######################################################################
#
#                 Cambridge Crystallographic Data Centre
#                                CCDC 
#
#######################################################################
#
# If this CIF has been generated from an entry in the Cambridge 
# Structural Database, then it will include bibliographic, chemical, 
# crystal, experimental, refinement or atomic coordinate data resulting 
# from the CCDC's data processing and validation procedures.
#
#######################################################################

data_PELYIQ
_symmetry_cell_setting           monoclinic
_symmetry_space_group_name_H-M   'P 21/c'
_symmetry_Int_Tables_number      14
_space_group_name_Hall           '-P 2ybc'
loop_
_symmetry_equiv_pos_site_id
_symmetry_equiv_pos_as_xyz
1 x,y,z
2 -x,1/2+y,1/2-z
3 -x,-y,-z
4 x,1/2-y,1/2+z
_cell_length_a                   10.614(2)
_cell_length_b                   12.316(3)
_cell_length_c                   20.809(4)
_cell_angle_alpha                90
_cell_angle_beta                 104.34(3)
_cell_angle_gamma                90
_cell_volume                     2635.44
loop_
_atom_site_label
_atom_site_type_symbol
_atom_site_fract_x
_atom_site_fract_y
_atom_site_fract_z
La1 La 0.081723(10) 0.020247(8) 0.242191(5)
P1 P 0.33963(5) 0.10638(4) 0.15946(2)
O1 O 0.24983(15) 0.02514(11) 0.17745(7)
O2 O 0.47935(15) 0.10851(14) 0.20374(8)
H1 H 0.519(3) 0.0549(16) 0.1960(15)
O3 O 0.29473(15) 0.22525(12) 0.16719(8)
H2 H 0.2178(9) 0.224(2) 0.1677(14)
P2 P 0.26208(5) 0.05006(4) -0.15267(2)
O4 O 0.37711(15) 0.03544(12) -0.18116(8)
O5 O 0.15239(14) -0.03127(11) -0.17234(7)
O6 O 0.20501(14) 0.16565(12) -0.17513(8)
H3 H 0.1273(8) 0.170(2) -0.1767(14)
C1 C 0.34294(19) 0.08568(17) 0.07462(10)
C2 C 0.2703(2) 0.00157(18) 0.04134(11)
H4 H 0.2315 -0.0472 0.0646
C3 C 0.2535(2) -0.01213(18) -0.02740(11)
H5 H 0.2027 -0.0692 -0.0488
C4 C 0.31050(19) 0.05701(17) -0.06342(10)
C5 C 0.39557(19) 0.14114(17) -0.02970(10)
C6 C 0.4652(2) 0.21039(19) -0.06302(11)
H6 H 0.4587 0.1998 -0.1080
C7 C 0.5418(2) 0.2924(2) -0.03039(12)
H7 H 0.5868 0.3369 -0.0532
C8 C 0.5526(2) 0.3096(2) 0.03732(12)
H8 H 0.6032 0.3666 0.0590
C9 C 0.4897(2) 0.24346(19) 0.07153(11)
H9 H 0.4990 0.2553 0.1166
C10 C 0.41011(19) 0.15682(17) 0.03974(10)
P3 P -0.08758(5) 0.22932(4) 0.33289(2)
O7 O -0.01460(15) 0.14174(12) 0.30843(7)
O8 O -0.04236(13) 0.34330(11) 0.32155(6)
O9 O -0.23496(15) 0.21306(13) 0.29720(8)
H10 H -0.293(2) 0.2551(19) 0.2997(15)
P4 P -0.03962(5) 0.21425(4) 0.64737(2)
O10 O -0.02131(14) 0.10600(11) 0.68067(6)
O11 O 0.06078(13) 0.30008(11) 0.67647(6)
O12 O -0.17747(13) 0.25949(11) 0.65077(7)
H11 H -0.172(3) 0.3251(5) 0.6566(13)
C11 C -0.07219(18) 0.21456(15) 0.42087(9)
C12 C -0.0099(2) 0.29453(16) 0.46246(9)
H12 H 0.0247 0.3536 0.4449
C13 C 0.0028(2) 0.28891(16) 0.53157(9)
H13 H 0.0465 0.3440 0.5587
C14 C -0.04816(18) 0.20354(15) 0.55956(9)
C15 C -0.11243(18) 0.11720(15) 0.51777(9)
C16 C -0.1660(2) 0.02595(16) 0.54293(10)
H14 H -0.1595 0.0211 0.5882
C17 C -0.2271(2) -0.05497(18) 0.50197(11)
H15 H -0.2626 -0.1135 0.5196
C18 C -0.2366(2) -0.05048(18) 0.43375(11)
H16 H -0.2779 -0.1062 0.4063
C19 C -0.1853(2) 0.03550(16) 0.40728(10)
H17 H -0.1913 0.0371 0.3619
C20 C -0.12322(18) 0.12244(15) 0.44785(9)
O13 O 0.29005(15) -0.08994(13) 0.30062(8)
H18 H 0.277(2) -0.1504(9) 0.3142(13)
H19 H 0.348(2) -0.0997(19) 0.2816(13)
O14 O 0.26778(18) 0.12491(15) 0.31644(11)
H20 H 0.267(3) 0.1895(8) 0.3255(16)
H21 H 0.334(2) 0.102(2) 0.3412(14)
La1B La -0.081723(10) -0.020247(8) -0.242191(5)
La1A La -0.081723(10) 0.520247(8) 0.257809(5)
La1B_2 La -0.081723(10) -0.020247(8) 0.757809(5)
La1C La 0.081723(10) 0.479753(8) 0.742191(5)
O5B O -0.15239(14) 0.03127(11) 0.17234(7)
O8A O 0.04236(13) -0.15670(11) 0.17845(6)
O10B O 0.02131(14) -0.10600(11) 0.31933(6)
O11C O 0.06078(13) 0.19992(11) 0.17647(6)
O15 O 0.46124(18) -0.17675(18) 0.22842(12)
H22 H 0.509(2) -0.132(2) 0.2169(17)
H23 H 0.512(2) -0.219(2) 0.2520(15)
loop_
_geom_bond_atom_site_label_1
_geom_bond_atom_site_label_2
_geom_bond_site_symmetry_1
_geom_bond_site_symmetry_2
La1 O1 1_555 1_555
P1 O1 1_555 1_555
O2 P1 1_555 1_555
H1 O2 1_555 1_555
O3 P1 1_555 1_555
H2 O3 1_555 1_555
P2 O4 1_555 1_555
O5 P2 1_555 1_555
O6 P2 1_555 1_555
H3 O6 1_555 1_555
C1 P1 1_555 1_555
C2 C1 1_555 1_555
H4 C2 1_555 1_555
C3 C2 1_555 1_555
H5 C3 1_555 1_555
C4 P2 1_555 1_555
C5 C4 1_555 1_555
C6 C5 1_555 1_555
H6 C6 1_555 1_555
C7 C6 1_555 1_555
H7 C7 1_555 1_555
C8 C7 1_555 1_555
H8 C8 1_555 1_555
C9 C8 1_555 1_555
H9 C9 1_555 1_555
C10 C1 1_555 1_555
P3 O7 1_555 1_555
O7 La1 1_555 1_555
O8 P3 1_555 1_555
O9 P3 1_555 1_555
H10 O9 1_555 1_555
P4 O10 1_555 1_555
O10 La1B_2 1_555 1_555
O11 P4 1_555 1_555
O12 P4 1_555 1_555
H11 O12 1_555 1_555
C11 P3 1_555 1_555
C12 C11 1_555 1_555
H12 C12 1_555 1_555
C13 C12 1_555 1_555
H13 C13 1_555 1_555
C14 P4 1_555 1_555
C15 C14 1_555 1_555
C16 C15 1_555 1_555
H14 C16 1_555 1_555
C17 C16 1_555 1_555
H15 C17 1_555 1_555
C18 C17 1_555 1_555
H16 C18 1_555 1_555
C19 C18 1_555 1_555
H17 C19 1_555 1_555
C20 C11 1_555 1_555
O13 La1 1_555 1_555
H18 O13 1_555 1_555
H19 O13 1_555 1_555
O14 La1 1_555 1_555
H20 O14 1_555 1_555
H21 O14 1_555 1_555
O15 H22 1_555 1_555
H23 O15 1_555 1_555
La1B O5 1_555 1_555
La1A O8 1_555 1_555
La1C O11 1_555 1_555
O5B La1 1_555 1_555
O8A La1 1_555 1_555
O10B La1 1_555 1_555
O11C La1 1_555 1_555
C3 C4 1_555 1_555
C5 C10 1_555 1_555
C9 C10 1_555 1_555
C13 C14 1_555 1_555
C15 C20 1_555 1_555
C19 C20 1_555 1_555

#END
