
#######################################################################
#
#                 Cambridge Crystallographic Data Centre
#                                CCDC 
#
#######################################################################
#
# If this CIF has been generated from an entry in the Cambridge 
# Structural Database, then it will include bibliographic, chemical, 
# crystal, experimental, refinement or atomic coordinate data resulting 
# from the CCDC's data processing and validation procedures.
#
#######################################################################

data_PEMGIZ
_symmetry_cell_setting           tetragonal
_symmetry_space_group_name_H-M   'I -4 2 d'
_symmetry_Int_Tables_number      122
_space_group_name_Hall           'I -4 2bw'
loop_
_symmetry_equiv_pos_site_id
_symmetry_equiv_pos_as_xyz
1 x,y,z
2 -x,-y,z
3 y,-x,-z
4 -y,x,-z
5 1/2-x,y,3/4-z
6 1/2+x,-y,3/4-z
7 1/2-y,-x,3/4+z
8 1/2+y,x,3/4+z
9 1/2+x,1/2+y,1/2+z
10 1/2-x,1/2-y,1/2+z
11 1/2+y,1/2-x,1/2-z
12 1/2-y,1/2+x,1/2-z
13 -x,1/2+y,1/4-z
14 x,1/2-y,1/4-z
15 -y,1/2-x,1/4+z
16 y,1/2+x,1/4+z
_cell_length_a                   24.1812(17)
_cell_length_b                   24.1812(17)
_cell_length_c                   13.9842(10)
_cell_angle_alpha                90
_cell_angle_beta                 90
_cell_angle_gamma                90
_cell_volume                     8176.99
loop_
_atom_site_label
_atom_site_type_symbol
_atom_site_fract_x
_atom_site_fract_y
_atom_site_fract_z
Ag1 Ag 1.05044(12) 0.7500 1.1250
S1 S 1.07199(14) 0.85495(15) 0.9834(3)
C1 C 1.0077(2) 0.8764(3) 0.9349(6)
C2 C 0.9618(3) 0.8905(4) 0.9896(4)
C3 C 1.0914(3) 0.9136(4) 1.0547(5)
C4 C 1.0874(3) 0.9113(5) 1.1538(5)
H1 H 1.0751 0.8784 1.1840
C5 C 1.1015(4) 0.9572(5) 1.2085(4)
C6 C 1.0053(3) 0.8804(4) 0.8358(5)
H2 H 1.0367 0.8707 0.7983
O1 O 0.9667(3) 0.8829(3) 1.0872(6)
C7 C 0.9463(11) 0.8329(6) 1.1112(13)
H3 H 0.9658 0.8041 1.0740
H4 H 0.9067 0.8314 1.0937
C8 C 0.9525(5) 0.8202(5) 1.2192(7)
N1 N 1.0016(4) 0.7929(4) 1.2399(8)
C9 C 1.0141(5) 0.7786(5) 1.3337(9)
H5 H 1.0477 0.7600 1.3479
C10 C 0.9775(7) 0.7916(6) 1.4069(7)
H6 H 0.9860 0.7819 1.4710
C11 C 0.9283(7) 0.8189(7) 1.3862(9)
H7 H 0.9032 0.8278 1.4362
C12 C 0.9158(5) 0.8332(7) 1.2924(10)
H8 H 0.8822 0.8518 1.2783
C13 C 1.1047(5) 0.9484(7) 1.3295(13)
C14 C 1.1516(5) 0.9092(5) 1.3549(12)
H9 H 1.1589 0.9112 1.4237
H10 H 1.1411 0.8713 1.3378
H11 H 1.1849 0.9197 1.3195
C15 C 1.1094(5) 1.0052(6) 1.3762(13)
H12 H 1.1385 1.0266 1.3443
H13 H 1.0741 1.0247 1.3703
H14 H 1.1187 1.0008 1.4440
C16 C 1.0481(6) 0.9209(5) 1.3479(12)
H15 H 1.0538 0.8838 1.3747
H16 H 1.0269 0.9434 1.3932
H17 H 1.0277 0.9179 1.2876
Ag1C Ag 1.2500 1.05044(12) 0.8750
Ag1A Ag 0.94956(12) 1.2500 1.1250
Ag1B Ag 0.7500 0.94956(12) 0.8750
S1B S 0.85495(15) 0.92801(14) 1.0166(3)
S1A S 0.92801(14) 1.14505(15) 0.9834(3)
S1C S 1.14505(15) 1.07199(14) 1.0166(3)
C1B C 0.8764(3) 0.9923(2) 1.0651(6)
C1A C 0.9923(2) 1.1236(3) 0.9349(6)
C1C C 1.1236(3) 1.0077(2) 1.0651(6)
C2B C 0.8905(4) 1.0382(3) 1.0104(4)
C2A C 1.0382(3) 1.1095(4) 0.9896(4)
C2C C 1.1095(4) 0.9618(3) 1.0104(4)
C3B C 0.9136(4) 0.9086(3) 0.9453(5)
C3A C 0.9086(3) 1.0864(4) 1.0547(5)
C3C C 1.0864(4) 1.0914(3) 0.9453(5)
C4C C 1.0887(5) 1.0874(3) 0.8462(5)
C4A C 0.9126(3) 1.0887(5) 1.1538(5)
C4B C 0.9113(5) 0.9126(3) 0.8462(5)
H1C H 1.1216 1.0751 0.8160
H1A H 0.9249 1.1216 1.1840
H1B H 0.8784 0.9249 0.8160
C5C C 1.0428(5) 1.1015(4) 0.7915(4)
C5A C 0.8985(4) 1.0428(5) 1.2085(4)
C5B C 0.9572(5) 0.8985(4) 0.7915(4)
C6C C 1.1196(4) 1.0053(3) 1.1642(5)
C6A C 0.9947(3) 1.1196(4) 0.8358(5)
C6B C 0.8804(4) 0.9947(3) 1.1642(5)
H2C H 1.1293 1.0367 1.2017
H2A H 0.9633 1.1293 0.7983
H2B H 0.8707 0.9633 1.2017
O1C O 1.1171(3) 0.9667(3) 0.9128(6)
O1A O 1.0333(3) 1.1171(3) 1.0872(6)
O1B O 0.8829(3) 1.0333(3) 0.9128(6)
C7C C 1.1671(6) 0.9463(11) 0.8888(13)
C7A C 1.0537(11) 1.1671(6) 1.1112(13)
C7B C 0.8329(6) 1.0537(11) 0.8888(13)
H3C H 1.1959 0.9658 0.9260
H3A H 1.0342 1.1959 1.0740
H3B H 0.8041 1.0342 0.9260
H4C H 1.1686 0.9067 0.9063
H4A H 1.0933 1.1686 1.0937
H4B H 0.8314 1.0933 0.9063
C8C C 1.1798(5) 0.9525(5) 0.7808(7)
C8A C 1.0475(5) 1.1798(5) 1.2192(7)
C8B C 0.8202(5) 1.0475(5) 0.7808(7)
N1C N 1.2071(4) 1.0016(4) 0.7601(8)
N1A N 0.9984(4) 1.2071(4) 1.2399(8)
N1B N 0.7929(4) 0.9984(4) 0.7601(8)
N1M N 1.0016(4) 0.7071(4) 1.0101(8)
N1G N 1.2929(4) 1.0016(4) 0.9899(8)
C9C C 1.2214(5) 1.0141(5) 0.6663(9)
C9A C 0.9859(5) 1.2214(5) 1.3337(9)
C9B C 0.7786(5) 0.9859(5) 0.6663(9)
H5C H 1.2400 1.0477 0.6521
H5A H 0.9523 1.2400 1.3479
H5B H 0.7600 0.9523 0.6521
C10C C 1.2084(6) 0.9775(7) 0.5931(7)
C10A C 1.0225(7) 1.2084(6) 1.4069(7)
C10B C 0.7916(6) 1.0225(7) 0.5931(7)
H6C H 1.2181 0.9860 0.5290
H6A H 1.0140 1.2181 1.4710
H6B H 0.7819 1.0140 0.5290
C11C C 1.1811(7) 0.9283(7) 0.6138(9)
C11A C 1.0717(7) 1.1811(7) 1.3862(9)
C11B C 0.8189(7) 1.0717(7) 0.6138(9)
H7C H 1.1722 0.9032 0.5638
H7A H 1.0968 1.1722 1.4362
H7B H 0.8278 1.0968 0.5638
C12C C 1.1668(7) 0.9158(5) 0.7076(10)
C12A C 1.0842(5) 1.1668(7) 1.2924(10)
C12B C 0.8332(7) 1.0842(5) 0.7076(10)
H8C H 1.1482 0.8822 0.7217
H8A H 1.1178 1.1482 1.2783
H8B H 0.8518 1.1178 0.7217
C13C C 1.0516(7) 1.1047(5) 0.6705(13)
C13A C 0.8953(5) 1.0516(7) 1.3295(13)
C13B C 0.9484(7) 0.8953(5) 0.6705(13)
C14C C 1.0908(5) 1.1516(5) 0.6451(12)
C14A C 0.8484(5) 1.0908(5) 1.3549(12)
C14B C 0.9092(5) 0.8484(5) 0.6451(12)
H9C H 1.0888 1.1589 0.5763
H9A H 0.8411 1.0888 1.4237
H9B H 0.9112 0.8411 0.5763
H10C H 1.1287 1.1411 0.6622
H10A H 0.8589 1.1287 1.3378
H10B H 0.8713 0.8589 0.6622
H11C H 1.0803 1.1849 0.6805
H11A H 0.8151 1.0803 1.3195
H11B H 0.9197 0.8151 0.6805
C15C C 0.9948(6) 1.1094(5) 0.6238(13)
C15A C 0.8906(5) 0.9948(6) 1.3762(13)
C15B C 1.0052(6) 0.8906(5) 0.6238(13)
H12C H 0.9734 1.1385 0.6557
H12A H 0.8615 0.9734 1.3443
H12B H 1.0266 0.8615 0.6557
H13C H 0.9753 1.0741 0.6297
H13A H 0.9259 0.9753 1.3703
H13B H 1.0247 0.9259 0.6297
H14C H 0.9992 1.1187 0.5560
H14A H 0.8813 0.9992 1.4440
H14B H 1.0008 0.8813 0.5560
C16C C 1.0791(5) 1.0481(6) 0.6521(12)
C16A C 0.9519(6) 1.0791(5) 1.3479(12)
C16B C 0.9209(5) 0.9519(6) 0.6521(12)
H15C H 1.1162 1.0538 0.6253
H15A H 0.9462 1.1162 1.3747
H15B H 0.8838 0.9462 0.6253
H16C H 1.0566 1.0269 0.6068
H16A H 0.9731 1.0566 1.3932
H16B H 0.9434 0.9731 0.6068
H17C H 1.0821 1.0277 0.7124
H17A H 0.9723 1.0821 1.2876
H17B H 0.9179 0.9723 0.7124
O2 O 1.1508(7) 0.7500 1.1250
H18 H 1.1624 0.7816 1.1104
H18M H 1.1624 0.7184 1.1396
Sb1 Sb 0.2500 0.38500(9) 0.8750
F1 F 0.2500 0.3056(8) 0.8750
F2 F 0.2068(6) 0.3925(7) 0.9854(10)
F3 F 0.2500 0.4656(8) 0.8750
F4 F 0.3159(7) 0.3819(10) 0.9483(15)
F2D F 0.2932(6) 0.3925(7) 0.7646(10)
F4D F 0.1841(7) 0.3819(10) 0.8017(15)
loop_
_geom_bond_atom_site_label_1
_geom_bond_atom_site_label_2
_geom_bond_site_symmetry_1
_geom_bond_site_symmetry_2
Ag1 N1 1_555 1_555
S1 C1 1_555 1_555
C1 C2 1_555 1_555
C2 O1 1_555 1_555
C3 S1 1_555 1_555
C4 C3 1_555 1_555
H1 C4 1_555 1_555
C5 C4 1_555 1_555
C6 C1 1_555 1_555
H2 C6 1_555 1_555
O1 C7 1_555 1_555
C7 H3 1_555 1_555
H4 C7 1_555 1_555
C8 C7 1_555 1_555
N1 C8 1_555 1_555
C9 N1 1_555 1_555
H5 C9 1_555 1_555
C10 C9 1_555 1_555
H6 C10 1_555 1_555
C11 C10 1_555 1_555
H7 C11 1_555 1_555
C12 C8 1_555 1_555
H8 C12 1_555 1_555
C13 C5 1_555 1_555
C14 C13 1_555 1_555
H9 C14 1_555 1_555
H10 C14 1_555 1_555
H11 C14 1_555 1_555
C15 C13 1_555 1_555
H12 C15 1_555 1_555
H13 C15 1_555 1_555
H14 C15 1_555 1_555
C16 C13 1_555 1_555
H15 C16 1_555 1_555
H16 C16 1_555 1_555
H17 C16 1_555 1_555
O2 H18 1_555 1_555
Sb1 F1 1_555 1_555
F2 Sb1 1_555 1_555
F3 Sb1 1_555 1_555
F4 Sb1 1_555 1_555
Ag1C N1C 1_555 1_555
Ag1A N1A 1_555 1_555
Ag1B N1B 1_555 1_555
S1B C1B 1_555 1_555
S1A C1A 1_555 1_555
S1C C1C 1_555 1_555
C1B C2B 1_555 1_555
C1A C2A 1_555 1_555
C1C C2C 1_555 1_555
C2B C3A 1_555 1_555
C2A C3C 1_555 1_555
C2C C3 1_555 1_555
C3B C2 1_555 1_555
C3A S1A 1_555 1_555
C3C S1C 1_555 1_555
C4C C3C 1_555 1_555
C4A C3A 1_555 1_555
C4B C3B 1_555 1_555
H1C C4C 1_555 1_555
H1A C4A 1_555 1_555
H1B C4B 1_555 1_555
C5C C4C 1_555 1_555
C5A C4A 1_555 1_555
C5B C6 1_555 1_555
C6C C5 1_555 1_555
C6A C1A 1_555 1_555
C6B C1B 1_555 1_555
H2C C6C 1_555 1_555
H2A C6A 1_555 1_555
H2B C6B 1_555 1_555
O1C C2C 1_555 1_555
O1A C2A 1_555 1_555
O1B C2B 1_555 1_555
C7C O1C 1_555 1_555
C7A O1A 1_555 1_555
C7B O1B 1_555 1_555
H3C C7C 1_555 1_555
H3A C7A 1_555 1_555
H3B C7B 1_555 1_555
H4C C7C 1_555 1_555
H4A C7A 1_555 1_555
H4B C7B 1_555 1_555
C8C C7C 1_555 1_555
C8A C7A 1_555 1_555
C8B C7B 1_555 1_555
N1C C8C 1_555 1_555
N1A C8A 1_555 1_555
N1B C8B 1_555 1_555
N1M Ag1 1_555 1_555
N1G Ag1C 1_555 1_555
C9C N1C 1_555 1_555
C9A N1A 1_555 1_555
C9B N1B 1_555 1_555
H5C C9C 1_555 1_555
H5A C9A 1_555 1_555
H5B C9B 1_555 1_555
C10C C9C 1_555 1_555
C10A C9A 1_555 1_555
C10B C9B 1_555 1_555
H6C C10C 1_555 1_555
H6A C10A 1_555 1_555
H6B C10B 1_555 1_555
C11C C10C 1_555 1_555
C11A C10A 1_555 1_555
C11B C10B 1_555 1_555
H7C C11C 1_555 1_555
H7A C11A 1_555 1_555
H7B C11B 1_555 1_555
C12C C8C 1_555 1_555
C12A C8A 1_555 1_555
C12B C8B 1_555 1_555
H8C C12C 1_555 1_555
H8A C12A 1_555 1_555
H8B C12B 1_555 1_555
C13C C5C 1_555 1_555
C13A C5A 1_555 1_555
C13B C5B 1_555 1_555
C14C C13C 1_555 1_555
C14A C13A 1_555 1_555
C14B C13B 1_555 1_555
H9C C14C 1_555 1_555
H9A C14A 1_555 1_555
H9B C14B 1_555 1_555
H10C C14C 1_555 1_555
H10A C14A 1_555 1_555
H10B C14B 1_555 1_555
H11C C14C 1_555 1_555
H11A C14A 1_555 1_555
H11B C14B 1_555 1_555
C15C C13C 1_555 1_555
C15A C13A 1_555 1_555
C15B C13B 1_555 1_555
H12C C15C 1_555 1_555
H12A C15A 1_555 1_555
H12B C15B 1_555 1_555
H13C C15C 1_555 1_555
H13A C15A 1_555 1_555
H13B C15B 1_555 1_555
H14C C15C 1_555 1_555
H14A C15A 1_555 1_555
H14B C15B 1_555 1_555
C16C C13C 1_555 1_555
C16A C13A 1_555 1_555
C16B C13B 1_555 1_555
H15C C16C 1_555 1_555
H15A C16A 1_555 1_555
H15B C16B 1_555 1_555
H16C C16C 1_555 1_555
H16A C16A 1_555 1_555
H16B C16B 1_555 1_555
H17C C16C 1_555 1_555
H17A C16A 1_555 1_555
H17B C16B 1_555 1_555
H18M O2 1_555 1_555
F2D Sb1 1_555 1_555
F4D Sb1 1_555 1_555
C11 C12 1_555 1_555
S1B C3B 1_555 1_555
C1C C6C 1_555 1_555
C4B C5B 1_555 1_555
C5C C6A 1_555 1_555
C5A C6B 1_555 1_555
C11C C12C 1_555 1_555
C11A C12A 1_555 1_555
C11B C12B 1_555 1_555

#END
