
#######################################################################
#
#                 Cambridge Crystallographic Data Centre
#                                CCDC 
#
#######################################################################
#
# If this CIF has been generated from an entry in the Cambridge 
# Structural Database, then it will include bibliographic, chemical, 
# crystal, experimental, refinement or atomic coordinate data resulting 
# from the CCDC's data processing and validation procedures.
#
#######################################################################

data_PEMHOG
_symmetry_cell_setting           monoclinic
_symmetry_space_group_name_H-M   'P 21/n'
_symmetry_Int_Tables_number      14
_space_group_name_Hall           '-P 2yn'
loop_
_symmetry_equiv_pos_site_id
_symmetry_equiv_pos_as_xyz
1 x,y,z
2 1/2-x,1/2+y,1/2-z
3 -x,-y,-z
4 1/2+x,1/2-y,1/2+z
_cell_length_a                   14.8181(3)
_cell_length_b                   32.1705(6)
_cell_length_c                   15.1669(3)
_cell_angle_alpha                90
_cell_angle_beta                 93.7100(10)
_cell_angle_gamma                90
_cell_volume                     7215
loop_
_atom_site_label
_atom_site_type_symbol
_atom_site_fract_x
_atom_site_fract_y
_atom_site_fract_z
Ag1 Ag 0.74758(2) 0.044020(7) 0.113481(18)
S1 S 0.94977(5) -0.20793(2) 0.34951(5)
C1 C 0.94331(19) -0.22978(8) 0.24192(18)
C2 C 0.92324(19) -0.20691(8) 0.16516(18)
C3 C 0.9346(2) -0.22597(9) 0.08356(18)
C4 C 0.9658(2) -0.26679(9) 0.07969(19)
H1 H 0.9731 -0.2792 0.0237
C5 C 0.9865(2) -0.28980(9) 0.15598(19)
C6 C 0.9742(2) -0.27077(9) 0.23678(19)
H2 H 0.9872 -0.2860 0.2898
O1 O 0.88872(14) -0.16726(6) 0.16805(14)
C7 C 0.9545(2) -0.13464(9) 0.1683(2)
H3 H 0.9947 -0.1388 0.1194
H4 H 0.9921 -0.1349 0.2247
C8 C 0.9060(2) -0.09370(9) 0.15717(19)
C9 C 0.8123(2) -0.09070(9) 0.1474(2)
H5 H 0.7754 -0.1148 0.1486
C10 C 0.7742(2) -0.05161(9) 0.1357(2)
H6 H 0.7101 -0.0499 0.1286
N1 N 0.82079(19) -0.01628(8) 0.13373(17)
C11 C 0.9104(3) -0.01953(10) 0.1450(3)
H7 H 0.9453 0.0052 0.1452
C12 C 0.9555(2) -0.05708(10) 0.1565(3)
H8 H 1.0197 -0.0578 0.1639
C13 C 1.0234(2) -0.33419(10) 0.1489(2)
C14 C 0.9676(4) -0.35852(13) 0.0758(3)
H9 H 0.9912 -0.3869 0.0722
H10 H 0.9723 -0.3445 0.0188
H11 H 0.9041 -0.3595 0.0900
C15 C 1.0142(4) -0.35856(13) 0.2328(3)
H12 H 1.0503 -0.3453 0.2814
H13 H 1.0359 -0.3870 0.2248
H14 H 0.9506 -0.3592 0.2467
C16 C 1.1190(4) -0.33133(13) 0.1170(3)
H15 H 1.1606 -0.3214 0.1654
H16 H 1.1194 -0.3119 0.0673
H17 H 1.1383 -0.3589 0.0979
S2 S 0.92616(6) -0.19950(3) -0.01895(5)
C17 C 0.8276(2) -0.16854(9) -0.02666(18)
C18 C 0.7428(2) -0.18222(8) -0.00357(16)
C19 C 0.66751(19) -0.15752(8) -0.02477(17)
C20 C 0.6771(2) -0.12003(8) -0.06976(18)
H18 H 0.6249 -0.1036 -0.0842
C21 C 0.7611(2) -0.10601(8) -0.09407(17)
C22 C 0.8359(2) -0.13069(9) -0.07075(18)
H19 H 0.8941 -0.1216 -0.0851
O2 O 0.73496(14) -0.21928(6) 0.04122(12)
C23 C 0.7157(3) -0.25411(9) -0.0155(2)
H20 H 0.7627 -0.2567 -0.0587
H21 H 0.6565 -0.2502 -0.0486
C24 C 0.7137(2) -0.29270(9) 0.03981(19)
C25 C 0.6879(3) -0.33025(11) 0.0005(2)
H22 H 0.6710 -0.3315 -0.0610
C26 C 0.6870(3) -0.36578(10) 0.0517(2)
H23 H 0.6695 -0.3912 0.0236
N2 N 0.7094(2) -0.36640(8) 0.1384(2)
C27 C 0.7344(2) -0.33003(10) 0.1750(2)
H24 H 0.7514 -0.3298 0.2365
C28 C 0.7372(2) -0.29282(9) 0.1298(2)
H25 H 0.7548 -0.2679 0.1597
C29 C 0.7711(2) -0.06563(9) -0.14688(19)
C30 C 0.8455(5) -0.03871(16) -0.1044(4)
H26 H 0.9039 -0.0526 -0.1086
H27 H 0.8345 -0.0342 -0.0421
H28 H 0.8463 -0.0119 -0.1350
C31 C 0.6843(4) -0.04010(14) -0.1515(4)
H29 H 0.6928 -0.0150 -0.1866
H30 H 0.6696 -0.0323 -0.0917
H31 H 0.6348 -0.0566 -0.1794
C32 C 0.7907(4) -0.07684(12) -0.2402(3)
H32 H 0.8001 -0.0514 -0.2740
H33 H 0.7395 -0.0924 -0.2679
H34 H 0.8453 -0.0940 -0.2394
S3 S 0.55426(5) -0.17345(2) -0.01245(5)
C33 C 0.54895(19) -0.19814(9) 0.09167(17)
C34 C 0.57084(18) -0.17760(8) 0.17143(18)
C35 C 0.55966(19) -0.19935(9) 0.25044(17)
C36 C 0.5212(2) -0.23889(9) 0.24822(18)
H35 H 0.5135 -0.2529 0.3024
C37 C 0.4934(2) -0.25875(9) 0.16895(19)
C38 C 0.5109(2) -0.23805(9) 0.09108(18)
H36 H 0.4967 -0.2514 0.0360
O3 O 0.60708(14) -0.13827(6) 0.16982(14)
C39 C 0.5541(2) -0.10510(10) 0.2053(2)
H37 H 0.5955 -0.0834 0.2306
H38 H 0.5196 -0.1163 0.2537
C40 C 0.4891(2) -0.08557(9) 0.1364(2)
C41 C 0.5176(2) -0.06996(10) 0.0574(2)
H39 H 0.5795 -0.0715 0.0451
C42 C 0.4556(2) -0.05219(10) -0.0030(2)
H40 H 0.4766 -0.0416 -0.0565
N3 N 0.3679(2) -0.04909(9) 0.0098(2)
C43 C 0.3409(3) -0.06288(13) 0.0872(3)
H41 H 0.2789 -0.0601 0.0985
C44 C 0.3988(3) -0.08107(12) 0.1515(2)
H42 H 0.3766 -0.0904 0.2055
C45 C 0.4440(2) -0.30061(9) 0.1713(2)
C46 C 0.4947(3) -0.33045(10) 0.2374(2)
H43 H 0.4660 -0.3579 0.2339
H44 H 0.4923 -0.3195 0.2974
H45 H 0.5579 -0.3329 0.2227
C47 C 0.4368(4) -0.32159(12) 0.0826(3)
H46 H 0.4023 -0.3039 0.0400
H47 H 0.4058 -0.3483 0.0874
H48 H 0.4975 -0.3262 0.0625
C48 C 0.3504(3) -0.29344(12) 0.2052(4)
H49 H 0.3150 -0.2754 0.1639
H50 H 0.3567 -0.2801 0.2634
H51 H 0.3194 -0.3202 0.2101
S4 S 0.58160(5) -0.17777(2) 0.35745(4)
C49 C 0.69589(19) -0.16169(8) 0.36077(17)
C50 C 0.7669(2) -0.18953(8) 0.35020(17)
C51 C 0.8552(2) -0.17454(8) 0.35578(17)
C52 C 0.8731(2) -0.13322(9) 0.37991(18)
H52 H 0.9338 -0.1236 0.3836
C53 C 0.8040(2) -0.10596(8) 0.39863(17)
C54 C 0.7154(2) -0.12068(8) 0.38506(17)
H53 H 0.6667 -0.1021 0.3927
O4 O 0.75076(15) -0.23169(6) 0.33821(13)
C55 C 0.7441(3) -0.25143(10) 0.4237(2)
H54 H 0.6878 -0.2424 0.4499
H55 H 0.7960 -0.2431 0.4641
C56 C 0.7435(2) -0.29783(9) 0.4121(2)
C57 C 0.6646(2) -0.32051(11) 0.4102(3)
H56 H 0.6083 -0.3069 0.4153
C58 C 0.6677(2) -0.36329(11) 0.4009(3)
H57 H 0.6124 -0.3783 0.3986
N4 N 0.74475(19) -0.38461(8) 0.39496(18)
C59 C 0.8217(2) -0.36245(9) 0.3987(2)
H58 H 0.8774 -0.3768 0.3961
C60 C 0.8234(2) -0.31942(9) 0.4063(2)
H59 H 0.8793 -0.3049 0.4075
C61 C 0.8212(2) -0.06228(8) 0.43551(19)
C62 C 0.7816(4) -0.06025(11) 0.5264(2)
H60 H 0.7972 -0.0335 0.5544
H61 H 0.8065 -0.0829 0.5636
H62 H 0.7156 -0.0630 0.5192
C63 C 0.9225(3) -0.05227(11) 0.4467(3)
H63 H 0.9490 -0.0543 0.3892
H64 H 0.9525 -0.0721 0.4879
H65 H 0.9308 -0.0240 0.4699
C64 C 0.7766(3) -0.02990(10) 0.3742(2)
H66 H 0.8039 -0.0308 0.3171
H67 H 0.7852 -0.0022 0.4004
H68 H 0.7117 -0.0358 0.3655
Ag1B Ag 0.25242(2) -0.044020(7) -0.113481(18)
Ag1A Ag 0.75242(2) -0.455980(7) 0.386519(18)
N3B N 0.6321(2) 0.04909(9) -0.0098(2)
N4A N 0.75525(19) 0.11539(8) 0.10504(18)
O5 O 0.6159(2) 0.03893(13) 0.2135(2)
C65 C 0.6294(3) 0.04504(14) 0.2924(3)
H69 H 0.6798 0.0618 0.3114
N5 N 0.5781(3) 0.02979(12) 0.3541(2)
C66 C 0.5010(4) 0.0030(2) 0.3292(4)
H70 H 0.4954 -0.0001 0.2648
H71 H 0.4457 0.0156 0.3493
H72 H 0.5103 -0.0243 0.3568
C67 C 0.6025(4) 0.03590(17) 0.4476(3)
H73 H 0.6524 0.0559 0.4547
H74 H 0.6213 0.0093 0.4744
H75 H 0.5501 0.0466 0.4767
P1 P 0.81236(7) 0.05946(3) 0.66595(6)
F1 F 0.7383(2) 0.09391(8) 0.6394(2)
F2 F 0.8890(2) 0.09358(8) 0.65683(19)
F3 F 0.8078(2) 0.07237(9) 0.76806(16)
F4 F 0.88600(19) 0.02539(8) 0.69345(18)
F5 F 0.7344(2) 0.02574(9) 0.6751(2)
F6 F 0.8179(2) 0.04710(7) 0.56472(16)
C68 C 0.7489(4) 0.17392(13) 0.7663(3)
H76 H 0.7730 0.1452 0.7587
Cl1 Cl 0.66096(8) 0.18354(4) 0.68464(10)
Cl2 Cl 0.83579(8) 0.20998(5) 0.75687(10)
Cl3 Cl 0.70045(16) 0.17772(5) 0.87022(10)
C69 C 0.9446(3) 0.05586(14) 0.3264(3)
H77 H 0.9939 0.0762 0.3306
H78 H 0.9681 0.0289 0.3083
H79 H 0.9190 0.0530 0.3840
O6 O 0.8775(3) 0.06925(10) 0.2639(2)
H80 H 0.8385 0.0830 0.2892
loop_
_geom_bond_atom_site_label_1
_geom_bond_atom_site_label_2
_geom_bond_site_symmetry_1
_geom_bond_site_symmetry_2
Ag1 N1 1_555 1_555
S1 C1 1_555 1_555
C1 C2 1_555 1_555
C2 C3 1_555 1_555
C3 C4 1_555 1_555
C4 H1 1_555 1_555
C5 C4 1_555 1_555
C6 C1 1_555 1_555
H2 C6 1_555 1_555
O1 C2 1_555 1_555
C7 O1 1_555 1_555
H3 C7 1_555 1_555
H4 C7 1_555 1_555
C8 C7 1_555 1_555
C9 C8 1_555 1_555
H5 C9 1_555 1_555
C10 C9 1_555 1_555
H6 C10 1_555 1_555
N1 C10 1_555 1_555
C11 N1 1_555 1_555
H7 C11 1_555 1_555
C12 C8 1_555 1_555
H8 C12 1_555 1_555
C13 C5 1_555 1_555
C14 C13 1_555 1_555
H9 C14 1_555 1_555
H10 C14 1_555 1_555
H11 C14 1_555 1_555
C15 C13 1_555 1_555
H12 C15 1_555 1_555
H13 C15 1_555 1_555
H14 C15 1_555 1_555
C16 C13 1_555 1_555
H15 C16 1_555 1_555
H16 C16 1_555 1_555
H17 C16 1_555 1_555
S2 C3 1_555 1_555
C17 S2 1_555 1_555
C18 C17 1_555 1_555
C19 C18 1_555 1_555
C20 C19 1_555 1_555
H18 C20 1_555 1_555
C21 C20 1_555 1_555
C22 C17 1_555 1_555
H19 C22 1_555 1_555
O2 C18 1_555 1_555
C23 O2 1_555 1_555
H20 C23 1_555 1_555
H21 C23 1_555 1_555
C24 C23 1_555 1_555
C25 C24 1_555 1_555
H22 C25 1_555 1_555
C26 C25 1_555 1_555
H23 C26 1_555 1_555
N2 C26 1_555 1_555
C27 N2 1_555 1_555
H24 C27 1_555 1_555
C28 C24 1_555 1_555
H25 C28 1_555 1_555
C29 C21 1_555 1_555
C30 C29 1_555 1_555
H26 C30 1_555 1_555
H27 C30 1_555 1_555
H28 C30 1_555 1_555
C31 C29 1_555 1_555
H29 C31 1_555 1_555
H30 C31 1_555 1_555
H31 C31 1_555 1_555
C32 C29 1_555 1_555
H32 C32 1_555 1_555
H33 C32 1_555 1_555
H34 C32 1_555 1_555
S3 C19 1_555 1_555
C33 S3 1_555 1_555
C34 C33 1_555 1_555
C35 C34 1_555 1_555
C36 C35 1_555 1_555
H35 C36 1_555 1_555
C37 C36 1_555 1_555
C38 C33 1_555 1_555
H36 C38 1_555 1_555
O3 C34 1_555 1_555
C39 O3 1_555 1_555
H37 C39 1_555 1_555
H38 C39 1_555 1_555
C40 C39 1_555 1_555
C41 C40 1_555 1_555
H39 C41 1_555 1_555
C42 C41 1_555 1_555
H40 C42 1_555 1_555
N3 C42 1_555 1_555
C43 N3 1_555 1_555
H41 C43 1_555 1_555
C44 C40 1_555 1_555
H42 C44 1_555 1_555
C45 C37 1_555 1_555
C46 C45 1_555 1_555
H43 C46 1_555 1_555
H44 C46 1_555 1_555
H45 C46 1_555 1_555
C47 C45 1_555 1_555
H46 C47 1_555 1_555
H47 C47 1_555 1_555
H48 C47 1_555 1_555
C48 C45 1_555 1_555
H49 C48 1_555 1_555
H50 C48 1_555 1_555
H51 C48 1_555 1_555
S4 C35 1_555 1_555
C49 S4 1_555 1_555
C50 C49 1_555 1_555
C51 S1 1_555 1_555
C52 C51 1_555 1_555
H52 C52 1_555 1_555
C53 C52 1_555 1_555
C54 C49 1_555 1_555
H53 C54 1_555 1_555
O4 C50 1_555 1_555
C55 O4 1_555 1_555
H54 C55 1_555 1_555
H55 C55 1_555 1_555
C56 C55 1_555 1_555
C57 C56 1_555 1_555
H56 C57 1_555 1_555
C58 C57 1_555 1_555
H57 C58 1_555 1_555
N4 C58 1_555 1_555
C59 N4 1_555 1_555
H58 C59 1_555 1_555
C60 C56 1_555 1_555
H59 C60 1_555 1_555
C61 C53 1_555 1_555
C62 C61 1_555 1_555
H60 C62 1_555 1_555
H61 C62 1_555 1_555
H62 C62 1_555 1_555
C63 C61 1_555 1_555
H63 C63 1_555 1_555
H64 C63 1_555 1_555
H65 C63 1_555 1_555
C64 C61 1_555 1_555
H66 C64 1_555 1_555
H67 C64 1_555 1_555
H68 C64 1_555 1_555
O5 C65 1_555 1_555
C65 H69 1_555 1_555
N5 C65 1_555 1_555
C66 N5 1_555 1_555
H70 C66 1_555 1_555
H71 C66 1_555 1_555
H72 C66 1_555 1_555
C67 N5 1_555 1_555
H73 C67 1_555 1_555
H74 C67 1_555 1_555
H75 C67 1_555 1_555
P1 F1 1_555 1_555
F2 P1 1_555 1_555
F3 P1 1_555 1_555
F4 P1 1_555 1_555
F5 P1 1_555 1_555
F6 P1 1_555 1_555
C68 H76 1_555 1_555
Cl1 C68 1_555 1_555
Cl2 C68 1_555 1_555
Cl3 C68 1_555 1_555
C69 H77 1_555 1_555
H78 C69 1_555 1_555
H79 C69 1_555 1_555
O6 C69 1_555 1_555
H80 O6 1_555 1_555
Ag1B N3 1_555 1_555
Ag1A N4 1_555 1_555
N3B Ag1 1_555 1_555
N4A Ag1 1_555 1_555
C5 C6 1_555 1_555
C11 C12 1_555 1_555
C21 C22 1_555 1_555
C27 C28 1_555 1_555
C37 C38 1_555 1_555
C43 C44 1_555 1_555
C50 C51 1_555 1_555
C53 C54 1_555 1_555
C59 C60 1_555 1_555

#END
