
#######################################################################
#
#                 Cambridge Crystallographic Data Centre
#                                CCDC 
#
#######################################################################
#
# If this CIF has been generated from an entry in the Cambridge 
# Structural Database, then it will include bibliographic, chemical, 
# crystal, experimental, refinement or atomic coordinate data resulting 
# from the CCDC's data processing and validation procedures.
#
#######################################################################

data_PEMPAZ
_symmetry_cell_setting           monoclinic
_symmetry_space_group_name_H-M   'P 21/n'
_symmetry_Int_Tables_number      14
_space_group_name_Hall           '-P 2yn'
loop_
_symmetry_equiv_pos_site_id
_symmetry_equiv_pos_as_xyz
1 x,y,z
2 1/2-x,1/2+y,1/2-z
3 -x,-y,-z
4 1/2+x,1/2-y,1/2+z
_cell_length_a                   10.389(2)
_cell_length_b                   14.007(3)
_cell_length_c                   15.023(3)
_cell_angle_alpha                90
_cell_angle_beta                 94.61(3)
_cell_angle_gamma                90
_cell_volume                     2179.06
loop_
_atom_site_label
_atom_site_type_symbol
_atom_site_fract_x
_atom_site_fract_y
_atom_site_fract_z
Zn1 Zn -0.43094(6) 0.13105(4) 0.15220(4)
O1 O -0.6028(4) 0.0991(3) 0.0833(3)
O2 O -0.2375(4) 0.1105(3) 0.1368(3)
O3 O -0.3411(4) 0.0628(3) 0.0119(3)
O4 O 0.4550(4) -0.2710(3) -0.1180(3)
O5 O 0.5664(5) -0.2464(3) 0.0131(3)
N1 N -0.3161(5) -0.1674(3) 0.4897(3)
N2 N -0.3167(5) 0.0104(3) 0.5782(3)
C1 C -0.4353(6) -0.0935(4) 0.1713(4)
H1 H -0.4593 -0.0947 0.1103
N3 N -0.4294(5) -0.0105(3) 0.2123(3)
C2 C 0.5013(5) -0.4037(4) -0.0217(4)
N4 N -0.4161(5) 0.1600(3) 0.2919(3)
C3 C 0.5082(6) -0.2981(4) -0.0430(4)
C4 C -0.3728(5) -0.0936(4) 0.3502(4)
C5 C -0.2868(6) -0.1610(4) 0.5784(4)
C6 C 0.5361(6) -0.4335(4) 0.0648(4)
H2 H 0.5605 -0.3887 0.1086
C7 C -0.3424(5) -0.0866(4) 0.4465(4)
C8 C -0.3410(5) 0.0032(4) 0.4888(4)
C9 C -0.3674(6) 0.0900(4) 0.4377(4)
C10 C 0.5348(6) -0.5290(4) 0.0865(4)
H3 H 0.4417 -0.4516 -0.1448
C11 C -0.2884(5) -0.0710(4) 0.6231(4)
C12 C -0.4135(6) 0.2459(4) 0.3305(4)
H4 H -0.4277 0.2994 0.2944
C13 C -0.3987(6) -0.0093(3) 0.3006(4)
C14 C -0.3771(6) -0.1795(4) 0.3035(4)
H5 H -0.3589 -0.2367 0.3333
C15 C -0.4078(6) -0.1790(4) 0.2144(4)
H6 H -0.4104 -0.2359 0.1823
C16 C -0.2530(6) -0.2440(4) 0.6285(4)
H7 H -0.2509 -0.3028 0.5999
C17 C -0.1144(5) 0.0362(4) 0.0296(4)
C18 C -0.3906(6) 0.2592(4) 0.4219(4)
H8 H -0.3918 0.3199 0.4468
C19 C -0.1066(6) 0.0108(4) -0.0603(4)
H9 H -0.1782 0.0180 -0.1009
C20 C -0.2239(6) -0.2383(5) 0.7171(4)
H10 H -0.1999 -0.2933 0.7489
C21 C -0.3940(5) 0.0832(4) 0.3452(4)
C22 C -0.2395(6) 0.0738(4) 0.0602(4)
C23 C -0.0066(6) 0.0247(4) 0.0881(4)
H11 H -0.0105 0.0413 0.1478
C24 C -0.3660(6) 0.1805(4) 0.4746(4)
H12 H -0.3483 0.1879 0.5359
C25 C -0.2586(7) -0.0684(4) 0.7162(4)
H13 H -0.2591 -0.0103 0.7462
C26 C -0.2290(7) -0.1505(5) 0.7632(4)
H14 H -0.2124 -0.1485 0.8249
H15 H -0.599(6) 0.143(3) 0.038(3)
H16 H -0.605(9) 0.047(2) 0.047(3)
Zn1B Zn 0.43094(6) -0.13105(4) -0.15220(4)
Zn1_2 Zn 0.56906(6) -0.86895(4) 0.15220(4)
O1B O 0.6028(4) -0.0991(3) -0.0833(3)
O2B O 0.2375(4) -0.1105(3) -0.1368(3)
O3B O 0.3411(4) -0.0628(3) -0.0119(3)
O4B O -0.4550(4) 0.2710(3) 0.1180(3)
O4B_2 O 0.5450(4) -0.7290(3) 0.1180(3)
O5B O 0.4336(5) -0.7536(3) -0.0131(3)
N1B N 0.3161(5) 0.1674(3) -0.4897(3)
N2B N 0.3167(5) -0.0104(3) -0.5782(3)
C1B C 0.4353(6) 0.0935(4) -0.1713(4)
H1B H 0.4593 0.0947 -0.1103
N3B N 0.4294(5) 0.0105(3) -0.2123(3)
C2B C 0.4987(5) -0.5963(4) 0.0217(4)
N4B N 0.4161(5) -0.1600(3) -0.2919(3)
C3B C 0.4918(6) -0.7019(4) 0.0430(4)
C4B C 0.3728(5) 0.0936(4) -0.3502(4)
C5B C 0.2868(6) 0.1610(4) -0.5784(4)
C6B C 0.4639(6) -0.5665(4) -0.0648(4)
H2B H 0.4395 -0.6113 -0.1086
C7B C 0.3424(5) 0.0866(4) -0.4465(4)
C8B C 0.3410(5) -0.0032(4) -0.4888(4)
C9B C 0.3674(6) -0.0900(4) -0.4377(4)
C10B C 0.4652(6) -0.4710(4) -0.0865(4)
H3B H 0.5583 -0.5484 0.1448
C11B C 0.2884(5) 0.0710(4) -0.6231(4)
C12B C 0.4135(6) -0.2459(4) -0.3305(4)
H4B H 0.4277 -0.2994 -0.2944
C13B C 0.3987(6) 0.0093(3) -0.3006(4)
C14B C 0.3771(6) 0.1795(4) -0.3035(4)
H5B H 0.3589 0.2367 -0.3333
C15B C 0.4078(6) 0.1790(4) -0.2144(4)
H6B H 0.4104 0.2359 -0.1823
C16B C 0.2530(6) 0.2440(4) -0.6285(4)
H7B H 0.2509 0.3028 -0.5999
C17B C 0.1144(5) -0.0362(4) -0.0296(4)
C18B C 0.3906(6) -0.2592(4) -0.4219(4)
H8B H 0.3918 -0.3199 -0.4468
C19B C 0.1066(6) -0.0108(4) 0.0603(4)
H9B H 0.1782 -0.0180 0.1009
C20B C 0.2239(6) 0.2383(5) -0.7171(4)
H10B H 0.1999 0.2933 -0.7489
C21B C 0.3940(5) -0.0832(4) -0.3452(4)
C22B C 0.2395(6) -0.0738(4) -0.0602(4)
C23B C 0.0066(6) -0.0247(4) -0.0881(4)
H11B H 0.0105 -0.0413 -0.1478
C24B C 0.3660(6) -0.1805(4) -0.4746(4)
H12B H 0.3483 -0.1879 -0.5359
C25B C 0.2586(7) 0.0684(4) -0.7162(4)
H13B H 0.2591 0.0103 -0.7462
C26B C 0.2290(7) 0.1505(5) -0.7632(4)
H14B H 0.2124 0.1485 -0.8249
H15B H 0.599(6) -0.143(3) -0.038(3)
H16B H 0.605(9) -0.047(2) -0.047(3)
loop_
_geom_bond_atom_site_label_1
_geom_bond_atom_site_label_2
_geom_bond_site_symmetry_1
_geom_bond_site_symmetry_2
Zn1 O1 1_555 1_555
O1 H15 1_555 1_555
O2 Zn1 1_555 1_555
O3 C22 1_555 1_555
O4 C3 1_555 1_555
O5 C3 1_555 1_555
N1 C5 1_555 1_555
N2 C8 1_555 1_555
C1 H1 1_555 1_555
N3 Zn1 1_555 1_555
C2 C3 1_555 1_555
N4 Zn1 1_555 1_555
C4 C7 1_555 1_555
C5 C11 1_555 1_555
C6 C2 1_555 1_555
H2 C6 1_555 1_555
C7 N1 1_555 1_555
C8 C7 1_555 1_555
C9 C8 1_555 1_555
C10 C6 1_555 1_555
H3 C10B 1_555 1_555
C11 N2 1_555 1_555
C12 N4 1_555 1_555
H4 C12 1_555 1_555
C13 N3 1_555 1_555
C14 C4 1_555 1_555
H5 C14 1_555 1_555
C15 C1 1_555 1_555
H6 C15 1_555 1_555
C16 C5 1_555 1_555
H7 C16 1_555 1_555
C17 C19 1_555 1_555
C18 C12 1_555 1_555
H8 C18 1_555 1_555
C19 H9 1_555 1_555
C20 C16 1_555 1_555
H10 C20 1_555 1_555
C21 N4 1_555 1_555
C22 O2 1_555 1_555
C23 C17 1_555 1_555
H11 C23 1_555 1_555
C24 C9 1_555 1_555
H12 C24 1_555 1_555
C25 C11 1_555 1_555
H13 C25 1_555 1_555
C26 C20 1_555 1_555
H14 C26 1_555 1_555
H16 O1 1_555 1_555
Zn1B O4 1_555 1_555
Zn1_2 O4B_2 1_555 1_555
O1B Zn1B 1_555 1_555
O2B Zn1B 1_555 1_555
O3B C22B 1_555 1_555
O4B Zn1 1_555 1_555
O4B_2 C3B 1_555 1_555
O5B C3B 1_555 1_555
N1B C5B 1_555 1_555
N2B C8B 1_555 1_555
C1B H1B 1_555 1_555
N3B Zn1B 1_555 1_555
C2B C10 1_555 1_555
N4B Zn1B 1_555 1_555
C3B C2B 1_555 1_555
C4B C7B 1_555 1_555
C5B C11B 1_555 1_555
C6B C2B 1_555 1_555
H2B C6B 1_555 1_555
C7B N1B 1_555 1_555
C8B C7B 1_555 1_555
C9B C8B 1_555 1_555
C10B C2 1_555 1_555
H3B C10 1_555 1_555
C11B N2B 1_555 1_555
C12B N4B 1_555 1_555
H4B C12B 1_555 1_555
C13B N3B 1_555 1_555
C14B C4B 1_555 1_555
H5B C14B 1_555 1_555
C15B C1B 1_555 1_555
H6B C15B 1_555 1_555
C16B C5B 1_555 1_555
H7B C16B 1_555 1_555
C17B C19B 1_555 1_555
C18B C12B 1_555 1_555
H8B C18B 1_555 1_555
C19B C23 1_555 1_555
H9B C19B 1_555 1_555
C20B C16B 1_555 1_555
H10B C20B 1_555 1_555
C21B N4B 1_555 1_555
C22B O2B 1_555 1_555
C23B C19 1_555 1_555
H11B C23B 1_555 1_555
C24B C9B 1_555 1_555
H12B C24B 1_555 1_555
C25B C11B 1_555 1_555
H13B C25B 1_555 1_555
C26B C20B 1_555 1_555
H14B C26B 1_555 1_555
H15B O1B 1_555 1_555
H16B O1B 1_555 1_555
C1 N3 1_555 1_555
C4 C13 1_555 1_555
C9 C21 1_555 1_555
C13 C21 1_555 1_555
C14 C15 1_555 1_555
C17 C22 1_555 1_555
C18 C24 1_555 1_555
C25 C26 1_555 1_555
C1B N3B 1_555 1_555
C4B C13B 1_555 1_555
C6B C10B 1_555 1_555
C9B C21B 1_555 1_555
C13B C21B 1_555 1_555
C14B C15B 1_555 1_555
C17B C22B 1_555 1_555
C17B C23B 1_555 1_555
C18B C24B 1_555 1_555
C25B C26B 1_555 1_555

#END
