
#######################################################################
#
#                 Cambridge Crystallographic Data Centre
#                                CCDC 
#
#######################################################################
#
# If this CIF has been generated from an entry in the Cambridge 
# Structural Database, then it will include bibliographic, chemical, 
# crystal, experimental, refinement or atomic coordinate data resulting 
# from the CCDC's data processing and validation procedures.
#
#######################################################################

data_PENKEA
_symmetry_cell_setting           triclinic
_symmetry_space_group_name_H-M   'P -1'
_symmetry_Int_Tables_number      2
_space_group_name_Hall           '-P 1'
loop_
_symmetry_equiv_pos_site_id
_symmetry_equiv_pos_as_xyz
1 x,y,z
2 -x,-y,-z
_cell_length_a                   8.069(8)
_cell_length_b                   11.557(12)
_cell_length_c                   11.752(11)
_cell_angle_alpha                78.394(17)
_cell_angle_beta                 81.902(18)
_cell_angle_gamma                86.171(17)
_cell_volume                     1061.97
loop_
_atom_site_label
_atom_site_type_symbol
_atom_site_fract_x
_atom_site_fract_y
_atom_site_fract_z
Co1 Co 0.34904(8) 1.05453(5) -0.45316(5)
O1 O 0.4981(4) 0.9223(3) -0.3399(3)
O2 O 0.7291(4) 0.8303(3) -0.4074(3)
O3 O 0.6193(5) 0.5713(3) 0.1316(3)
O4 O 1.4906(4) 0.8315(3) 0.4240(3)
O5 O 1.2550(4) 0.9135(3) 0.5089(3)
O6 O 0.9443(5) 0.5174(3) 0.3062(3)
N1 N 0.1919(5) 1.0553(3) -0.2967(3)
C1 C 1.2288(6) 0.7528(4) 0.4161(4)
C2 C 1.3337(7) 0.8383(4) 0.4511(4)
C3 C 0.6172(7) 0.8473(4) -0.3244(4)
C4 C 0.7377(6) 0.6816(4) -0.1851(4)
H1 H 0.8146 0.6659 -0.2474
C5 C 0.9629(6) 0.6632(4) 0.4276(4)
H2 H 0.8513 0.6559 0.4604
C6 C -0.0117(8) 0.9621(6) -0.1485(5)
H3 H -0.1023 0.9129 -0.1290
C7 C 0.2356(7) 1.1066(5) -0.2161(4)
H4 H 0.3222 1.1590 -0.2389
C8 C 0.6237(6) 0.7758(4) -0.2044(4)
C9 C 0.7411(7) 0.6094(4) -0.0751(4)
H5 H 0.8170 0.5452 -0.0648
C10 C 0.0399(6) 1.0125(4) -0.0626(4)
C11 C 0.6303(7) 0.6345(4) 0.0184(4)
C12 C 0.7226(7) 0.4647(4) 0.1529(4)
H6 H 0.8388 0.4808 0.1234
H7 H 0.6870 0.4058 0.1141
C13 C 0.5168(6) 0.7314(4) 0.0009(4)
H8 H 0.4432 0.7496 0.0637
C14 C 1.0615(6) 0.7417(4) 0.4602(4)
H9 H 1.0135 0.7882 0.5131
C15 C 1.0314(7) 0.5954(4) 0.3459(4)
C16 C 0.7021(7) 0.4206(4) 0.2852(4)
H10 H 0.5843 0.4100 0.3138
H11 H 0.7605 0.3443 0.3027
C17 C 0.0678(7) 0.9829(5) -0.2619(5)
H12 H 0.0324 0.9443 -0.3159
C18 C 1.2980(6) 0.6833(4) 0.3345(4)
H13 H 1.4102 0.6893 0.3031
C19 C 0.5138(7) 0.8007(4) -0.1105(4)
H14 H 0.4370 0.8643 -0.1218
C20 C 1.1989(7) 0.6058(4) 0.3008(4)
H15 H 1.2459 0.5599 0.2470
C21 C 0.1645(7) 1.0896(5) -0.1006(5)
H16 H 0.2017 1.1307 -0.0493
C22 C 0.7696(7) 0.5052(4) 0.3482(4)
H17 H 0.7104 0.5814 0.3331
H18 H 0.7543 0.4749 0.4321
Co1A Co 0.65096(8) 0.94547(5) -0.54684(5)
Co1A_2 Co 1.65096(8) 0.94547(5) 0.45316(5)
Co1_2 Co 1.34904(8) 1.05453(5) 0.54684(5)
Co1A_3 Co -0.34904(8) 0.94547(5) 0.45316(5)
Co1_3 Co -0.65096(8) 1.05453(5) -1.45316(5)
Co1A_4 Co -0.34904(8) 0.94547(5) -1.54684(5)
O1A O 0.5019(4) 1.0777(3) -0.6601(3)
O2A O 0.2709(4) 1.1697(3) -0.5926(3)
O3A O 0.3807(5) 1.4287(3) -1.1316(3)
O4A O -0.4906(4) 1.1685(3) -1.4240(3)
O4A_2 O 0.5094(4) 1.1685(3) -0.4240(3)
O4_2 O 0.4906(4) 0.8315(3) -0.5760(3)
O5A O -0.2550(4) 1.0865(3) -1.5089(3)
O5_2 O 0.2550(4) 0.9135(3) -0.4911(3)
O5A_2 O 0.7450(4) 1.0865(3) -0.5089(3)
O6A O 0.0557(5) 1.4826(3) -1.3062(3)
N1A N -0.1919(5) 0.9447(3) 0.2967(3)
N1A_2 N 0.8081(5) 0.9447(3) -0.7033(3)
C1A C -0.2288(6) 1.2472(4) -1.4161(4)
C2A C -0.3337(7) 1.1617(4) -1.4511(4)
C3A C 0.3828(7) 1.1527(4) -0.6756(4)
C4A C 0.2623(6) 1.3184(4) -0.8149(4)
H1A H 0.1854 1.3341 -0.7526
C5A C 0.0371(6) 1.3368(4) -1.4276(4)
H2A H 0.1487 1.3441 -1.4604
C6A C 0.0117(8) 1.0379(6) 0.1485(5)
H3A H 0.1023 1.0871 0.1290
C7A C -0.2356(7) 0.8934(5) 0.2161(4)
H4A H -0.3222 0.8410 0.2389
C8A C 0.3763(6) 1.2242(4) -0.7956(4)
C9A C 0.2589(7) 1.3906(4) -0.9249(4)
H5A H 0.1830 1.4548 -0.9352
C10A C -0.0399(6) 0.9875(4) 0.0626(4)
C11A C 0.3697(7) 1.3655(4) -1.0184(4)
C12A C 0.2774(7) 1.5353(4) -1.1529(4)
H6A H 0.1612 1.5192 -1.1234
H7A H 0.3130 1.5942 -1.1141
C13A C 0.4832(6) 1.2686(4) -1.0009(4)
H8A H 0.5568 1.2504 -1.0637
C14A C -0.0615(6) 1.2583(4) -1.4602(4)
H9A H -0.0135 1.2118 -1.5131
C15A C -0.0314(7) 1.4046(4) -1.3459(4)
C16A C 0.2979(7) 1.5794(4) -1.2852(4)
H10A H 0.4157 1.5900 -1.3138
H11A H 0.2395 1.6557 -1.3027
C17A C -0.0678(7) 1.0171(5) 0.2619(5)
H12A H -0.0324 1.0557 0.3159
C18A C -0.2980(6) 1.3167(4) -1.3345(4)
H13A H -0.4102 1.3107 -1.3031
C19A C 0.4862(7) 1.1993(4) -0.8895(4)
H14A H 0.5630 1.1357 -0.8782
C20A C -0.1989(7) 1.3942(4) -1.3008(4)
H15A H -0.2459 1.4401 -1.2470
C21A C -0.1645(7) 0.9104(5) 0.1006(5)
H16A H -0.2017 0.8693 0.0493
C22A C 0.2304(7) 1.4948(4) -1.3482(4)
H17A H 0.2896 1.4186 -1.3331
H18A H 0.2457 1.5251 -1.4321
loop_
_geom_bond_atom_site_label_1
_geom_bond_atom_site_label_2
_geom_bond_site_symmetry_1
_geom_bond_site_symmetry_2
Co1 O1 1_555 1_555
O1 C3 1_555 1_555
O2 C3 1_555 1_555
O3 C11 1_555 1_555
O4 C2 1_555 1_555
O5 C2 1_555 1_555
O6 C15 1_555 1_555
N1 Co1 1_555 1_555
C1 C2 1_555 1_555
C3 C8 1_555 1_555
C4 H1 1_555 1_555
C5 H2 1_555 1_555
C6 H3 1_555 1_555
C7 N1 1_555 1_555
H4 C7 1_555 1_555
C8 C4 1_555 1_555
C9 C4 1_555 1_555
H5 C9 1_555 1_555
C10 C6 1_555 1_555
C11 C9 1_555 1_555
C12 O3 1_555 1_555
H6 C12 1_555 1_555
H7 C12 1_555 1_555
C13 C11 1_555 1_555
H8 C13 1_555 1_555
C14 C1 1_555 1_555
H9 C14 1_555 1_555
C15 C5 1_555 1_555
C16 C12 1_555 1_555
H10 C16 1_555 1_555
H11 C16 1_555 1_555
C17 N1 1_555 1_555
H12 C17 1_555 1_555
C18 C1 1_555 1_555
H13 C18 1_555 1_555
C19 C8 1_555 1_555
H14 C19 1_555 1_555
C20 C15 1_555 1_555
H15 C20 1_555 1_555
C21 C7 1_555 1_555
H16 C21 1_555 1_555
C22 O6 1_555 1_555
H17 C22 1_555 1_555
H18 C22 1_555 1_555
Co1A O2 1_555 1_555
Co1A_2 O4 1_555 1_555
Co1_2 O5 1_555 1_555
Co1A_3 N1A 1_555 1_555
Co1_3 O4A 1_555 1_555
Co1A_4 O5A 1_555 1_555
O1A Co1A 1_555 1_555
O2A Co1 1_555 1_555
O3A C11A 1_555 1_555
O4A C2A 1_555 1_555
O4A_2 Co1 1_555 1_555
O4_2 Co1A 1_555 1_555
O5A C2A 1_555 1_555
O5_2 Co1 1_555 1_555
O5A_2 Co1A 1_555 1_555
O6A C15A 1_555 1_555
N1A C7A 1_555 1_555
N1A_2 Co1A 1_555 1_555
C1A C2A 1_555 1_555
C3A O1A 1_555 1_555
C4A H1A 1_555 1_555
C5A H2A 1_555 1_555
C6A H3A 1_555 1_555
C7A H4A 1_555 1_555
C8A C3A 1_555 1_555
C9A C4A 1_555 1_555
H5A C9A 1_555 1_555
C10A C10 1_555 1_555
C11A C9A 1_555 1_555
C12A O3A 1_555 1_555
H6A C12A 1_555 1_555
H7A C12A 1_555 1_555
C13A C11A 1_555 1_555
H8A C13A 1_555 1_555
C14A C1A 1_555 1_555
H9A C14A 1_555 1_555
C15A C5A 1_555 1_555
C16A C12A 1_555 1_555
H10A C16A 1_555 1_555
H11A C16A 1_555 1_555
C17A N1A 1_555 1_555
H12A C17A 1_555 1_555
C18A C1A 1_555 1_555
H13A C18A 1_555 1_555
C19A C8A 1_555 1_555
H14A C19A 1_555 1_555
C20A C15A 1_555 1_555
H15A C20A 1_555 1_555
C21A C7A 1_555 1_555
H16A C21A 1_555 1_555
C22A O6A 1_555 1_555
H17A C22A 1_555 1_555
H18A C22A 1_555 1_555
C5 C14 1_555 1_555
C6 C17 1_555 1_555
C10 C21 1_555 1_555
C13 C19 1_555 1_555
C16 C22 1_555 1_555
C18 C20 1_555 1_555
O2A C3A 1_555 1_555
C4A C8A 1_555 1_555
C5A C14A 1_555 1_555
C6A C10A 1_555 1_555
C6A C17A 1_555 1_555
C10A C21A 1_555 1_555
C13A C19A 1_555 1_555
C16A C22A 1_555 1_555
C18A C20A 1_555 1_555

#END
