
#######################################################################
#
#                 Cambridge Crystallographic Data Centre
#                                CCDC 
#
#######################################################################
#
# If this CIF has been generated from an entry in the Cambridge 
# Structural Database, then it will include bibliographic, chemical, 
# crystal, experimental, refinement or atomic coordinate data resulting 
# from the CCDC's data processing and validation procedures.
#
#######################################################################

data_PENMAY
_symmetry_cell_setting           triclinic
_symmetry_space_group_name_H-M   'P -1'
_symmetry_Int_Tables_number      2
_space_group_name_Hall           '-P 1'
loop_
_symmetry_equiv_pos_site_id
_symmetry_equiv_pos_as_xyz
1 x,y,z
2 -x,-y,-z
_cell_length_a                   6.6175(6)
_cell_length_b                   12.9808(12)
_cell_length_c                   17.0681(15)
_cell_angle_alpha                94.445(2)
_cell_angle_beta                 97.294(2)
_cell_angle_gamma                91.411(2)
_cell_volume                     1449.04
loop_
_atom_site_label
_atom_site_type_symbol
_atom_site_fract_x
_atom_site_fract_y
_atom_site_fract_z
Co1 Co 0.11499(6) 0.87865(3) 0.78498(2)
Co2 Co -0.12258(6) 0.63842(3) 0.72894(2)
N1 N 0.2161(4) 0.65390(18) 0.72956(16)
N2 N 0.2923(4) 0.75317(18) 0.74117(15)
N3 N 0.4897(4) 0.75512(18) 0.74538(16)
N4 N 0.5518(4) 0.65713(19) 0.73649(16)
N5 N 0.2739(4) -0.00069(19) 0.74244(16)
N6 N 0.3370(4) 0.15688(18) 0.70898(15)
N7 N -0.0979(4) 0.85798(18) 0.67600(15)
N8 N -0.1477(4) 0.75769(19) 0.65132(15)
N9 N -0.2510(5) 0.7517(2) 0.58033(16)
N10 N -0.2718(5) 0.8466(2) 0.55569(17)
N11 N -0.1753(4) 1.51180(19) 0.64361(15)
N12 N -0.1988(4) 1.34622(19) 0.60177(15)
O1 O -0.0919(4) 0.53410(16) 0.81449(13)
O2 O 0.1415(4) 0.62142(17) 0.90358(14)
O3 O 0.1989(5) 0.07337(19) 0.96316(16)
O4 O 0.3029(4) 0.15353(17) 1.08148(13)
O5 O -0.0500(3) 0.75603(15) 0.82489(12)
H1 H -0.1619 0.7803 0.8515
H2 H 0.0499 0.7243 0.8608
O6 O 0.2979(4) 0.88774(18) 0.89407(14)
H3 H 0.4385 0.8782 0.8914
H4 H 0.3037 0.9438 0.9319
O7 O -0.0769(4) 0.98414(17) 0.84584(13)
H5 H 0.0167 1.0216 0.8876
H6 H -0.2028 0.9598 0.8604
C1 C 0.3766(5) 0.4825(2) 0.72118(19)
C2 C 0.3166(5) 0.4257(2) 0.64943(19)
H7 H 0.2823 0.4599 0.6039
C3 C 0.3071(5) 0.3182(2) 0.6449(2)
H8 H 0.2696 0.2804 0.5964
C4 C 0.3542(5) 0.2678(2) 0.71338(19)
C5 C 0.4179(5) 0.3231(2) 0.7852(2)
H9 H 0.4533 0.2889 0.8306
C6 C 0.4284(5) 0.4309(2) 0.78879(19)
H10 H 0.4706 0.4686 0.8369
C7 C 0.3809(5) 0.5973(2) 0.72774(18)
C8 C 0.2857(5) 0.0989(2) 0.76676(19)
H11 H 0.2620 0.1255 0.8168
C9 C 0.3230(5) -0.0064(2) 0.6662(2)
H12 H 0.3300 -0.0673 0.6343
C10 C 0.3596(5) 0.0899(2) 0.64455(19)
H13 H 0.3933 0.1072 0.5958
C11 C -0.1740(5) 1.0237(2) 0.61308(18)
C12 C -0.1656(5) 1.0896(2) 0.68175(19)
H14 H -0.1551 1.0624 0.7309
C13 C -0.1728(5) 1.1951(2) 0.67736(19)
H15 H -0.1655 1.2386 0.7236
C14 C -0.1907(5) 1.2370(2) 0.60454(19)
C15 C -0.1995(6) 1.1722(2) 0.53574(19)
H16 H -0.2108 1.1995 0.4867
C16 C -0.1913(6) 1.0662(2) 0.5406(2)
H17 H -0.1975 1.0227 0.4944
C17 C -0.1774(5) 0.9105(2) 0.61572(18)
C18 C -0.1555(5) 1.4166(2) 0.6636(2)
H18 H -0.1156 1.3998 0.7152
C19 C -0.2418(6) 1.5027(3) 0.5643(2)
H19 H -0.2712 1.5575 0.5333
C20 C -0.2586(6) 1.4000(3) 0.5375(2)
H20 H -0.3019 1.3726 0.4860
C21 C 0.0826(5) 0.4420(2) 0.91429(18)
C22 C -0.0371(5) 0.3533(2) 0.8877(2)
H21 H -0.1493 0.3566 0.8493
C23 C 0.0117(5) 0.2599(2) 0.91882(19)
H22 H -0.0665 0.2005 0.9002
C24 C 0.1759(5) 0.2546(2) 0.97733(19)
C25 C 0.2901(5) 0.3445(3) 1.0060(2)
H23 H 0.3976 0.3422 1.0466
C26 C 0.2431(5) 0.4371(3) 0.9741(2)
H24 H 0.3203 0.4968 0.9931
C27 C 0.0410(5) 0.5409(2) 0.87527(19)
C28 C 0.2281(5) 0.1525(2) 1.00919(19)
Co1_2 Co 0.11499(6) -0.12135(3) 0.78498(2)
Co2_2 Co 0.87742(6) 0.63842(3) 0.72894(2)
Co2_3 Co -0.12258(6) 1.63842(3) 0.72894(2)
N4_2 N -0.4482(4) 0.65713(19) 0.73649(16)
N5_2 N 0.2739(4) 0.99931(19) 0.74244(16)
N11_2 N -0.1753(4) 0.51180(19) 0.64361(15)
loop_
_geom_bond_atom_site_label_1
_geom_bond_atom_site_label_2
_geom_bond_site_symmetry_1
_geom_bond_site_symmetry_2
Co1 N2 1_555 1_555
Co2 N1 1_555 1_555
N1 N2 1_555 1_555
N2 N3 1_555 1_555
N3 N4 1_555 1_555
N4 C7 1_555 1_555
N5 C8 1_555 1_555
N6 C4 1_555 1_555
N7 Co1 1_555 1_555
N8 Co2 1_555 1_555
N9 N8 1_555 1_555
N10 N9 1_555 1_555
N11 C18 1_555 1_555
N12 C14 1_555 1_555
O1 Co2 1_555 1_555
O2 C27 1_555 1_555
O3 C28 1_555 1_555
O4 C28 1_555 1_555
O5 Co1 1_555 1_555
H1 O5 1_555 1_555
H2 O5 1_555 1_555
O6 Co1 1_555 1_555
H3 O6 1_555 1_555
H4 O6 1_555 1_555
O7 Co1 1_555 1_555
H5 O7 1_555 1_555
H6 O7 1_555 1_555
C1 C2 1_555 1_555
C2 H7 1_555 1_555
C3 C2 1_555 1_555
H8 C3 1_555 1_555
C4 C3 1_555 1_555
C5 C4 1_555 1_555
H9 C5 1_555 1_555
C6 C1 1_555 1_555
H10 C6 1_555 1_555
C7 N1 1_555 1_555
C8 N6 1_555 1_555
H11 C8 1_555 1_555
C9 N5 1_555 1_555
H12 C9 1_555 1_555
C10 N6 1_555 1_555
H13 C10 1_555 1_555
C11 C12 1_555 1_555
C12 H14 1_555 1_555
C13 C12 1_555 1_555
H15 C13 1_555 1_555
C14 C13 1_555 1_555
C15 C14 1_555 1_555
H16 C15 1_555 1_555
C16 C11 1_555 1_555
H17 C16 1_555 1_555
C17 N7 1_555 1_555
C18 N12 1_555 1_555
H18 C18 1_555 1_555
C19 N11 1_555 1_555
H19 C19 1_555 1_555
C20 N12 1_555 1_555
H20 C20 1_555 1_555
C21 C22 1_555 1_555
C22 H21 1_555 1_555
C23 C22 1_555 1_555
H22 C23 1_555 1_555
C24 C23 1_555 1_555
C25 C24 1_555 1_555
H23 C25 1_555 1_555
C26 C21 1_555 1_555
H24 C26 1_555 1_555
C27 O1 1_555 1_555
C28 C24 1_555 1_555
Co1_2 N5 1_555 1_555
Co2_2 N4 1_555 1_555
Co2_3 N11 1_555 1_555
N4_2 Co2 1_555 1_555
N5_2 Co1 1_555 1_555
N11_2 Co2 1_555 1_555
Co2 O5 1_555 1_555
N7 N8 1_555 1_555
N10 C17 1_555 1_555
C1 C7 1_555 1_555
C5 C6 1_555 1_555
C9 C10 1_555 1_555
C11 C17 1_555 1_555
C15 C16 1_555 1_555
C19 C20 1_555 1_555
C21 C27 1_555 1_555
C25 C26 1_555 1_555

#END
