
#######################################################################
#
#                 Cambridge Crystallographic Data Centre
#                                CCDC 
#
#######################################################################
#
# If this CIF has been generated from an entry in the Cambridge 
# Structural Database, then it will include bibliographic, chemical, 
# crystal, experimental, refinement or atomic coordinate data resulting 
# from the CCDC's data processing and validation procedures.
#
#######################################################################

data_PENMOM
_symmetry_cell_setting           triclinic
_symmetry_space_group_name_H-M   'P -1'
_symmetry_Int_Tables_number      2
_space_group_name_Hall           '-P 1'
loop_
_symmetry_equiv_pos_site_id
_symmetry_equiv_pos_as_xyz
1 x,y,z
2 -x,-y,-z
_cell_length_a                   12.063(5)
_cell_length_b                   12.380(5)
_cell_length_c                   13.967(5)
_cell_angle_alpha                99.820(5)
_cell_angle_beta                 98.682(5)
_cell_angle_gamma                113.418(5)
_cell_volume                     1829.96
loop_
_atom_site_label
_atom_site_type_symbol
_atom_site_fract_x
_atom_site_fract_y
_atom_site_fract_z
Mo1 Mo 0.74949(6) 0.00617(7) 0.38954(5)
Mo2 Mo 0.74052(7) 0.28428(6) 0.50060(5)
Mo3 Mo 0.48643(7) 0.27436(7) 0.60460(6)
Mo4 Mo 0.26848(7) 0.07403(7) 0.37796(7)
Mo5 Mo 0.52283(9) 0.09093(7) 0.27305(6)
Mo6 Mo 0.29160(8) -0.19766(7) 0.26941(6)
Cu1 Cu 0.48776(9) 0.32948(9) -0.09744(9)
Cu2 Cu 0.62025(9) 0.13770(8) 0.01127(8)
Cu3 Cu -0.26332(9) -0.37476(9) -0.04341(9)
P1 P 0.5000 0.0000 0.5000
O2 O 0.5993(9) 0.0686(9) 0.4483(7)
O3 O 0.5709(9) 0.1347(8) 0.5549(8)
O4 O 0.5804(9) -0.0589(9) 0.4793(7)
O5 O 0.4175(8) -0.0057(9) 0.3922(7)
O6 O 0.3958(8) 0.1258(6) 0.3074(9)
O7 O 0.8054(6) -0.0065(6) 0.5248(5)
O8 O 0.6475(6) -0.1609(6) 0.3502(5)
O9 O 0.6218(6) 0.3376(10) 0.5477(5)
O10 O 0.6396(9) 0.2360(7) 0.3704(5)
O11 O 0.3693(6) 0.2219(6) 0.4769(5)
O12 O 0.5397(6) 0.1356(6) 0.1679(4)
O13 O 0.6563(9) 0.0381(7) 0.2914(5)
O14 O 0.8525(6) 0.4176(6) 0.5028(6)
O15 O 0.1902(6) -0.2888(6) 0.1605(4)
O16 O 0.4086(9) -0.0753(6) 0.2241(9)
O17 O 0.1625(6) 0.1097(7) 0.3215(5)
O18 O 0.2190(10) -0.0853(6) 0.2998(9)
O19 O 0.8105(9) 0.1780(7) 0.4622(5)
O20 O 0.4803(10) 0.4052(7) 0.6488(7)
O21 O 0.5954(6) 0.2665(10) 0.7125(5)
O22 O 0.8702(6) 0.0174(7) 0.3418(6)
O23 O 0.7858(6) 0.2755(9) 0.6352(5)
N1 N 0.4687(6) 0.4659(6) -0.1358(5)
N2 N 0.5655(6) 0.5766(6) -0.1082(6)
N3 N 0.5365(7) 0.6547(6) -0.1449(6)
N4 N 0.4183(7) 0.5963(6) -0.2020(6)
N5 N 0.0197(8) 0.2349(8) -0.3602(7)
N6 N 0.3913(6) 0.1651(6) -0.0840(5)
N7 N 0.4388(6) 0.0954(5) -0.0501(4)
N8 N 0.3480(5) -0.0003(5) -0.0353(5)
N9 N 0.2672(6) 0.1175(6) -0.0903(5)
N10 N -0.1081(6) -0.2339(6) -0.0350(5)
N11 N 0.6691(6) 0.3761(5) -0.0190(5)
N12 N 0.7139(5) 0.3144(5) 0.0357(5)
N13 N 0.7575(6) 0.4884(6) 0.0022(6)
N14 N 0.8584(6) 0.5032(6) 0.0687(6)
N15 N 1.0853(7) 0.3669(7) 0.3086(6)
C1 C 0.3790(8) 0.4820(7) -0.1964(6)
C2 C 0.2559(7) 0.3930(8) -0.2515(6)
C3 C 0.1949(8) 0.2785(8) -0.2349(6)
H3 H 0.2356 0.2545 -0.1869
C4 C 0.0779(9) 0.2018(9) -0.2874(9)
H4 H 0.0372 0.1267 -0.2740
C5 C 0.0759(10) 0.3470(11) -0.3785(9)
H5 H 0.0344 0.3693 -0.4275
C6 C 0.1930(9) 0.4254(10) -0.3243(7)
H6 H 0.2315 0.5017 -0.3363
C7 C 0.2457(7) 0.0170(7) -0.0594(6)
C8 C 0.1229(7) -0.0659(7) -0.0486(6)
C9 C 0.1133(7) -0.1292(7) 0.0261(6)
H7 H 0.1848 -0.1154 0.0723
C10 C -0.0011(7) -0.2118(7) 0.0318(7)
H8 H -0.0059 -0.2534 0.0817
C11 C -0.1003(7) -0.1691(7) -0.1042(7)
H9 H -0.1732 -0.1811 -0.1475
C12 C 0.8302(7) 0.3950(7) 0.0888(6)
C13 C 0.9156(7) 0.3781(7) 0.1626(6)
C14 C 0.8762(8) 0.3022(8) 0.2233(6)
H10 H 0.7918 0.2540 0.2151
C15 C 0.9631(10) 0.2980(9) 0.2968(8)
H11 H 0.9371 0.2469 0.3387
C16 C 1.1245(8) 0.4378(8) 0.2477(7)
H12 H 1.2094 0.4833 0.2558
C17 C 1.0417(7) 0.4453(8) 0.1731(7)
H13 H 1.0699 0.4945 0.1304
C18 C 0.0132(7) -0.0847(7) -0.1131(6)
H14 H 0.0157 -0.0414 -0.1616
Mo1A Mo 0.25051(6) -0.00617(7) 0.61046(5)
Mo2A Mo 0.25948(7) -0.28428(6) 0.49940(5)
Mo3A Mo 0.51357(7) -0.27436(7) 0.39540(6)
Mo4A Mo 0.73152(7) -0.07403(7) 0.62204(7)
Mo5A Mo 0.47717(9) -0.09093(7) 0.72695(6)
Mo6A Mo 0.70840(8) 0.19766(7) 0.73059(6)
Cu1A Cu 0.51224(9) -0.32948(9) 0.09744(9)
Cu1A_2 Cu 0.51224(9) -0.32948(9) 1.09744(9)
Cu1_2 Cu -0.51224(9) -0.67052(9) -0.09744(9)
Cu2A Cu 0.37975(9) -0.13770(8) 0.98873(8)
Cu2A_2 Cu 0.37975(9) -0.13770(8) -0.01127(8)
Cu3A Cu 1.26332(9) 0.37476(9) 0.04341(9)
Cu3_2 Cu 0.73668(9) 0.62524(9) -0.04341(9)
Cu3A_2 Cu 0.26332(9) -0.62524(9) 1.04341(9)
O2A O 0.4007(9) -0.0686(9) 0.5517(7)
O3A O 0.4291(9) -0.1347(8) 0.4451(8)
O4A O 0.4196(9) 0.0589(9) 0.5207(7)
O5A O 0.5825(8) 0.0057(9) 0.6078(7)
O6A O 0.6042(8) -0.1258(6) 0.6926(9)
O7A O 0.1946(6) 0.0065(6) 0.4752(5)
O8A O 0.3525(6) 0.1609(6) 0.6498(5)
O9A O 0.3782(6) -0.3376(10) 0.4523(5)
O10A O 0.3604(9) -0.2360(7) 0.6296(5)
O11A O 0.6307(6) -0.2219(6) 0.5231(5)
O12A O 0.4603(6) -0.1356(6) 0.8321(4)
O13A O 0.3437(9) -0.0381(7) 0.7086(5)
O14A O 0.1475(6) -0.4176(6) 0.4972(6)
O15A O 0.8098(6) 0.2888(6) 0.8395(4)
O16A O 0.5914(9) 0.0753(6) 0.7759(9)
O17A O 0.8375(6) -0.1097(7) 0.6785(5)
O18A O 0.7810(10) 0.0853(6) 0.7002(9)
O19A O 0.1895(9) -0.1780(7) 0.5378(5)
O20A O 0.5197(10) -0.4052(7) 0.3512(7)
O21A O 0.4046(6) -0.2665(10) 0.2875(5)
O22A O 0.1298(6) -0.0174(7) 0.6582(6)
O23A O 0.2142(6) -0.2755(9) 0.3648(5)
N1_2 N -0.5313(6) -0.5341(6) -0.1358(5)
N1A N 0.5313(6) -0.4659(6) 0.1358(5)
N2_2 N -0.4345(6) -0.4234(6) -0.1082(6)
N2A N 1.4345(6) 0.4234(6) 0.1082(6)
N3_2 N -0.4635(7) -0.3453(6) -0.1449(6)
N4_2 N -0.5817(7) -0.4037(6) -0.2020(6)
N5_2 N -0.9803(8) -0.7651(8) -0.3602(7)
N6A N 0.6087(6) -0.1651(6) 0.0840(5)
N7A N 0.5612(6) -0.0954(5) 0.0501(4)
N7A_2 N 0.5612(6) -0.0954(5) 1.0501(4)
N8A N 0.6520(5) 0.0003(5) 0.0353(5)
N8_2 N 0.3480(5) -0.0003(5) 0.9647(5)
N9A N 0.7328(6) -0.1175(6) 0.0903(5)
N10A N 1.1081(6) 0.2339(6) 0.0350(5)
N11A N 0.3309(6) -0.3761(5) 1.0190(5)
N11A_2 N 0.3309(6) -0.3761(5) 0.0190(5)
N12A N 0.2861(5) -0.3144(5) 0.9643(5)
N13A N 0.2425(6) -0.4884(6) 0.9978(6)
N13_2 N -0.2425(6) -0.5116(6) 0.0022(6)
N13A_2 N 1.2425(6) 0.5116(6) -0.0022(6)
N14A N 0.1416(6) -0.5032(6) 0.9313(6)
N15A N -0.0853(7) -0.3669(7) 0.6914(6)
C1_2 C -0.6210(8) -0.5180(7) -0.1964(6)
C2_2 C -0.7441(7) -0.6070(8) -0.2515(6)
C3_2 C -0.8051(8) -0.7215(8) -0.2349(6)
H3_2 H -0.7644 -0.7455 -0.1869
C4_2 C -0.9221(9) -0.7982(9) -0.2874(9)
H4_2 H -0.9628 -0.8733 -0.2740
C5_2 C -0.9241(10) -0.6530(11) -0.3785(9)
H5_2 H -0.9656 -0.6307 -0.4275
C6_2 C -0.8070(9) -0.5746(10) -0.3243(7)
H6_2 H -0.7685 -0.4983 -0.3363
C7A C 0.7543(7) -0.0170(7) 0.0594(6)
C8A C 0.8771(7) 0.0659(7) 0.0486(6)
C9A C 0.8867(7) 0.1292(7) -0.0261(6)
H7A H 0.8152 0.1154 -0.0723
C10A C 1.0011(7) 0.2118(7) -0.0318(7)
H8A H 1.0059 0.2534 -0.0817
C11A C 1.1003(7) 0.1691(7) 0.1042(7)
H9A H 1.1732 0.1811 0.1475
C12A C 0.1698(7) -0.3950(7) 0.9112(6)
C13A C 0.0844(7) -0.3781(7) 0.8374(6)
C14A C 0.1238(8) -0.3022(8) 0.7767(6)
H10A H 0.2082 -0.2540 0.7849
C15A C 0.0369(10) -0.2980(9) 0.7032(8)
H11A H 0.0629 -0.2469 0.6613
C16A C -0.1245(8) -0.4378(8) 0.7523(7)
H12A H -0.2094 -0.4833 0.7442
C17A C -0.0417(7) -0.4453(8) 0.8269(7)
H13A H -0.0699 -0.4945 0.8696
C18A C 0.9868(7) 0.0847(7) 0.1131(6)
H14A H 0.9843 0.0414 0.1616
O1 O 0.2716(9) 0.3938(7) 0.4470(6)
H1 H 0.3453 0.4433 0.4487
H2 H 0.2586 0.3530 0.4907
loop_
_geom_bond_atom_site_label_1
_geom_bond_atom_site_label_2
_geom_bond_site_symmetry_1
_geom_bond_site_symmetry_2
O1 H1 1_555 1_555
H2 O1 1_555 1_555
Mo1 O2 1_555 1_555
Mo2 O2 1_555 1_555
Mo3 O3 1_555 1_555
Mo4 O5 1_555 1_555
Mo5 O5 1_555 1_555
Mo6 O5 1_555 1_555
Cu1 N1 1_555 1_555
Cu2 O12 1_555 1_555
Cu3 N10 1_555 1_555
P1 O2 1_555 1_555
O2 O3 1_555 1_555
O3 Mo2 1_555 1_555
O4 Mo1 1_555 1_555
O5 P1 1_555 1_555
O6 Mo4 1_555 1_555
O7 Mo1 1_555 1_555
O8 Mo1 1_555 1_555
O9 Mo2 1_555 1_555
O10 Mo2 1_555 1_555
O11 Mo3 1_555 1_555
O12 Mo5 1_555 1_555
O13 Mo1 1_555 1_555
O14 Mo2 1_555 1_555
O15 Mo6 1_555 1_555
O16 Mo5 1_555 1_555
O17 Mo4 1_555 1_555
O18 Mo4 1_555 1_555
O19 Mo1 1_555 1_555
O20 Mo3 1_555 1_555
O21 Mo3 1_555 1_555
O22 Mo1 1_555 1_555
O23 Mo2 1_555 1_555
N1 N2 1_555 1_555
N2 N3 1_555 1_555
N3 N4 1_555 1_555
N4 C1 1_555 1_555
N5 C4 1_555 1_555
N6 Cu1 1_555 1_555
N7 Cu2 1_555 1_555
N8 N7 1_555 1_555
N9 N6 1_555 1_555
N10 C10 1_555 1_555
N11 Cu1 1_555 1_555
N12 Cu2 1_555 1_555
N13 N11 1_555 1_555
N14 N13 1_555 1_555
N15 C15 1_555 1_555
C1 N1 1_555 1_555
C2 C1 1_555 1_555
C3 C2 1_555 1_555
H3 C3 1_555 1_555
C4 C3 1_555 1_555
H4 C4 1_555 1_555
C5 N5 1_555 1_555
H5 C5 1_555 1_555
C6 C2 1_555 1_555
H6 C6 1_555 1_555
C7 N8 1_555 1_555
C8 C7 1_555 1_555
C9 C8 1_555 1_555
H7 C9 1_555 1_555
C10 C9 1_555 1_555
H8 C10 1_555 1_555
C11 N10 1_555 1_555
H9 C11 1_555 1_555
C12 N12 1_555 1_555
C13 C12 1_555 1_555
C14 C13 1_555 1_555
H10 C14 1_555 1_555
C15 C14 1_555 1_555
H11 C15 1_555 1_555
C16 N15 1_555 1_555
H12 C16 1_555 1_555
C17 C13 1_555 1_555
H13 C17 1_555 1_555
C18 C8 1_555 1_555
H14 C18 1_555 1_555
Mo1A O2A 1_555 1_555
Mo2A O2A 1_555 1_555
Mo3A O4 1_555 1_555
Mo4A O7 1_555 1_555
Mo5A O5A 1_555 1_555
Mo6A O21 1_555 1_555
Cu1A N1A 1_555 1_555
Cu1A_2 N11A 1_555 1_555
Cu1_2 N1_2 1_555 1_555
Cu2A O12A 1_555 1_555
Cu2A_2 N8 1_555 1_555
Cu3A N2A 1_555 1_555
Cu3_2 N2 1_555 1_555
Cu3A_2 N13A 1_555 1_555
O2A P1 1_555 1_555
O3A P1 1_555 1_555
O4A Mo3 1_555 1_555
O5A P1 1_555 1_555
O6A Mo4A 1_555 1_555
O7A Mo4 1_555 1_555
O8A Mo3 1_555 1_555
O9A Mo2A 1_555 1_555
O10A Mo2A 1_555 1_555
O11A Mo3A 1_555 1_555
O12A Mo5A 1_555 1_555
O13A Mo1A 1_555 1_555
O14A Mo2A 1_555 1_555
O15A Mo6A 1_555 1_555
O16A Mo5A 1_555 1_555
O17A Mo4A 1_555 1_555
O18A Mo4A 1_555 1_555
O19A Mo1A 1_555 1_555
O20A Mo3A 1_555 1_555
O21A Mo6 1_555 1_555
O22A Mo1A 1_555 1_555
O23A Mo6 1_555 1_555
N1_2 N2_2 1_555 1_555
N2_2 Cu3 1_555 1_555
N3_2 N2_2 1_555 1_555
N4_2 N3_2 1_555 1_555
N5_2 C4_2 1_555 1_555
N6A Cu1A 1_555 1_555
N7A Cu2A_2 1_555 1_555
N7A_2 Cu2A 1_555 1_555
N8A Cu2 1_555 1_555
N8_2 Cu2A 1_555 1_555
N9A N6A 1_555 1_555
N10A Cu3A 1_555 1_555
N11A N12A 1_555 1_555
N11A_2 Cu1A 1_555 1_555
N12A Cu2A 1_555 1_555
N13A N11A 1_555 1_555
N13_2 Cu3 1_555 1_555
N13A_2 Cu3A 1_555 1_555
N14A N13A 1_555 1_555
N15A C15A 1_555 1_555
C1_2 N1_2 1_555 1_555
C2_2 C1_2 1_555 1_555
C3_2 C2_2 1_555 1_555
H3_2 C3_2 1_555 1_555
C4_2 C3_2 1_555 1_555
H4_2 C4_2 1_555 1_555
C5_2 N5_2 1_555 1_555
H5_2 C5_2 1_555 1_555
C6_2 C2_2 1_555 1_555
H6_2 C6_2 1_555 1_555
C7A N8A 1_555 1_555
C8A C7A 1_555 1_555
C9A C8A 1_555 1_555
H7A C9A 1_555 1_555
C10A N10A 1_555 1_555
H8A C10A 1_555 1_555
C11A N10A 1_555 1_555
H9A C11A 1_555 1_555
C12A N12A 1_555 1_555
C13A C12A 1_555 1_555
C14A C13A 1_555 1_555
H10A C14A 1_555 1_555
C15A C14A 1_555 1_555
H11A C15A 1_555 1_555
C16A N15A 1_555 1_555
H12A C16A 1_555 1_555
C17A C13A 1_555 1_555
H13A C17A 1_555 1_555
C18A C8A 1_555 1_555
H14A C18A 1_555 1_555
Mo2 O19 1_555 1_555
Mo3 O9 1_555 1_555
Mo4 O11 1_555 1_555
Mo5 O6 1_555 1_555
Mo5 O10 1_555 1_555
Mo5 O13 1_555 1_555
Mo6 O16 1_555 1_555
Mo6 O18 1_555 1_555
P1 O3 1_555 1_555
P1 O4 1_555 1_555
P1 O4A 1_555 1_555
O2 O4 1_555 1_555
O3 O4A 1_555 1_555
O3 O5A 1_555 1_555
O4 O3A 1_555 1_555
O4 O5A 1_555 1_555
O5 O3A 1_555 1_555
O5 O4A 1_555 1_555
O8 Mo3A 1_555 1_555
O23 Mo6A 1_555 1_555
N6 N7 1_555 1_555
N9 C7 1_555 1_555
N11 N12 1_555 1_555
N13 Cu3_2 1_555 1_555
N14 C12 1_555 1_555
C5 C6 1_555 1_555
C11 C18 1_555 1_555
C16 C17 1_555 1_555
Mo1A O4A 1_555 1_555
Mo1A O7A 1_555 1_555
Mo1A O8A 1_555 1_555
Mo2A O3A 1_555 1_555
Mo2A O19A 1_555 1_555
Mo2A O23A 1_555 1_555
Mo3A O3A 1_555 1_555
Mo3A O9A 1_555 1_555
Mo3A O21A 1_555 1_555
Mo4A O5A 1_555 1_555
Mo4A O11A 1_555 1_555
Mo5A O6A 1_555 1_555
Mo5A O10A 1_555 1_555
Mo5A O13A 1_555 1_555
Mo6A O5A 1_555 1_555
Mo6A O16A 1_555 1_555
Mo6A O18A 1_555 1_555
O2A O3A 1_555 1_555
O2A O4A 1_555 1_555
N4_2 C1_2 1_555 1_555
N6A N7A 1_555 1_555
N7A N8A 1_555 1_555
N9A C7A 1_555 1_555
N14A C12A 1_555 1_555
C5_2 C6_2 1_555 1_555
C9A C10A 1_555 1_555
C11A C18A 1_555 1_555
C16A C17A 1_555 1_555

#END
