
#######################################################################
#
#                 Cambridge Crystallographic Data Centre
#                                CCDC 
#
#######################################################################
#
# If this CIF has been generated from an entry in the Cambridge 
# Structural Database, then it will include bibliographic, chemical, 
# crystal, experimental, refinement or atomic coordinate data resulting 
# from the CCDC's data processing and validation procedures.
#
#######################################################################

data_PENQIK
_symmetry_cell_setting           monoclinic
_symmetry_space_group_name_H-M   'P 21/n'
_symmetry_Int_Tables_number      14
_space_group_name_Hall           '-P 2yn'
loop_
_symmetry_equiv_pos_site_id
_symmetry_equiv_pos_as_xyz
1 x,y,z
2 1/2-x,1/2+y,1/2-z
3 -x,-y,-z
4 1/2+x,1/2-y,1/2+z
_cell_length_a                   7.6122(8)
_cell_length_b                   21.485(2)
_cell_length_c                   9.0718(10)
_cell_angle_alpha                90
_cell_angle_beta                 102.4520(10)
_cell_angle_gamma                90
_cell_volume                     1448.78
loop_
_atom_site_label
_atom_site_type_symbol
_atom_site_fract_x
_atom_site_fract_y
_atom_site_fract_z
Zn1 Zn 0.23436(4) 0.214516(14) 0.50967(3)
S1 S 0.63479(9) 0.21837(3) 0.66971(7)
N1 N 0.2679(3) 0.12676(11) 0.4138(3)
N2 N 0.1598(3) 0.15299(11) 0.6682(3)
C1 C 0.1824(4) 0.09176(12) 0.6397(3)
C2 C 0.1520(4) 0.04467(13) 0.7377(3)
C3 C 0.2630(4) 0.01588(13) 0.4573(3)
C4 C 0.1794(4) -0.01826(13) 0.6948(3)
C5 C 0.3191(4) 0.00549(14) 0.3223(3)
H1 H 0.3368 -0.0348 0.2911
C6 C 0.3477(4) 0.05551(15) 0.2365(3)
H2 H 0.3851 0.0495 0.1465
C7 C 0.2290(4) -0.03101(12) 0.5603(3)
C8 C 0.0700(4) 0.12455(15) 0.8957(3)
H3 H 0.0311 0.1369 0.9816
C9 C 0.0940(4) 0.06278(14) 0.8681(3)
H4 H 0.0718 0.0328 0.9358
C10 C 0.3202(4) 0.11543(14) 0.2857(3)
H5 H 0.3392 0.1490 0.2262
C11 C 0.2394(3) 0.07760(13) 0.5005(3)
C12 C 0.1048(4) 0.16853(14) 0.7928(3)
H6 H 0.0890 0.2104 0.8120
C13 C 0.1983(5) -0.11667(14) 0.6813(4)
H7 H 0.1961 -0.1588 0.7039
N3 N 0.2403(3) -0.09497(11) 0.5538(3)
N4 N 0.1604(4) -0.07247(12) 0.7715(3)
O1 O 0.0487(3) 0.27570(10) 0.5527(3)
H8 H 0.0636 0.3096 0.5157
O2 O 0.6107(3) 0.15114(9) 0.6837(2)
O3 O 0.4563(3) 0.24976(9) 0.6395(2)
O4 O 0.7237(3) 0.23016(11) 0.5447(2)
O5 O 0.7455(3) 0.24387(10) 0.8097(2)
H9 H -0.052(5) 0.2647(18) 0.541(4)
H10 H 0.2733(15) -0.1222(12) 0.4723(17)
Zn1C Zn 0.73436(4) 0.285484(14) 1.00967(3)
O5C O 0.2455(3) 0.25613(10) 0.3097(2)
O6 O 0.0701(4) 0.39447(12) 0.4577(3)
H11 H 0.1706 0.4062 0.5113
H12 H 0.1074 0.3816 0.3810
loop_
_geom_bond_atom_site_label_1
_geom_bond_atom_site_label_2
_geom_bond_site_symmetry_1
_geom_bond_site_symmetry_2
Zn1 N1 1_555 1_555
S1 O2 1_555 1_555
N1 C10 1_555 1_555
N2 Zn1 1_555 1_555
C1 N2 1_555 1_555
C2 C1 1_555 1_555
C3 C5 1_555 1_555
C4 C2 1_555 1_555
C5 H1 1_555 1_555
C6 C5 1_555 1_555
H2 C6 1_555 1_555
C7 C3 1_555 1_555
C8 H3 1_555 1_555
C9 C2 1_555 1_555
H4 C9 1_555 1_555
C10 C6 1_555 1_555
H5 C10 1_555 1_555
C11 N1 1_555 1_555
C12 N2 1_555 1_555
H6 C12 1_555 1_555
C13 H7 1_555 1_555
N3 C7 1_555 1_555
N4 C4 1_555 1_555
O1 Zn1 1_555 1_555
H8 O1 1_555 1_555
O3 Zn1 1_555 1_555
O4 S1 1_555 1_555
O5 S1 1_555 1_555
O6 H11 1_555 1_555
H9 O1 1_555 1_555
H10 N3 1_555 1_555
H12 O6 1_555 1_555
Zn1C O5 1_555 1_555
O5C Zn1 1_555 1_555
S1 O3 1_555 1_555
C1 C11 1_555 1_555
C3 C11 1_555 1_555
C4 C7 1_555 1_555
C8 C9 1_555 1_555
C8 C12 1_555 1_555
C13 N3 1_555 1_555
C13 N4 1_555 1_555

#END
