
#######################################################################
#
#                 Cambridge Crystallographic Data Centre
#                                CCDC 
#
#######################################################################
#
# If this CIF has been generated from an entry in the Cambridge 
# Structural Database, then it will include bibliographic, chemical, 
# crystal, experimental, refinement or atomic coordinate data resulting 
# from the CCDC's data processing and validation procedures.
#
#######################################################################

data_PEPBES
_symmetry_cell_setting           orthorhombic
_symmetry_space_group_name_H-M   'P n a 21'
_symmetry_Int_Tables_number      33
_space_group_name_Hall           'P 2c -2n'
loop_
_symmetry_equiv_pos_site_id
_symmetry_equiv_pos_as_xyz
1 x,y,z
2 -x,-y,1/2+z
3 1/2+x,1/2-y,z
4 1/2-x,1/2+y,1/2+z
_cell_length_a                   18.0264(5)
_cell_length_b                   12.4289(3)
_cell_length_c                   17.6357(5)
_cell_angle_alpha                90
_cell_angle_beta                 90
_cell_angle_gamma                90
_cell_volume                     3951.25
loop_
_atom_site_label
_atom_site_type_symbol
_atom_site_fract_x
_atom_site_fract_y
_atom_site_fract_z
Zn1 Zn 0.01653(3) 0.27886(4) 0.05188(3)
Zn2 Zn -0.23357(3) 0.22497(5) 0.15122(3)
P1 P -0.05968(8) 0.26152(10) 0.21234(9)
H1 H -0.0410 0.1711 0.2441
P2 P 0.19157(8) 0.28753(11) -0.00577(8)
H2 H 0.1978 0.1933 -0.0372
O1 O 0.00388(15) 0.2906(3) 0.15934(19)
O2 O -0.12942(19) 0.2377(2) 0.1660(2)
O3 O -0.07052(16) 0.3401(2) 0.27593(17)
O4 O 0.12275(17) 0.2824(3) 0.0428(2)
O5 O 0.25929(15) 0.3004(3) 0.0447(2)
O6 O 0.18717(17) 0.3666(2) -0.06967(19)
N1 N -0.0130(2) 0.1348(3) 0.0070(2)
N2 N -0.0354(2) -0.5984(3) 0.0011(3)
N3 N -0.2847(2) 0.3535(3) 0.1985(3)
N4 N -0.2688(2) 1.0961(3) 0.2092(3)
C1 C 0.0314(3) 0.0859(4) -0.0428(3)
H3 H 0.0739 0.1236 -0.0604
C2 C 0.0188(3) -0.0160(4) -0.0697(3)
H4 H 0.0530 -0.0478 -0.1040
C3 C -0.0432(3) -0.0725(4) -0.0474(3)
C4 C -0.0910(2) -0.0195(4) 0.0028(3)
H5 H -0.1354 -0.0537 0.0189
C5 C -0.0738(3) 0.0824(4) 0.0290(3)
H6 H -0.1064 0.1162 0.0640
C6 C -0.0580(3) -0.1847(4) -0.0754(3)
H7 H -0.0458 -0.1872 -0.1301
H8 H -0.0234 -0.2341 -0.0492
C7 C -0.1353(3) -0.2269(4) -0.0652(3)
H9 H -0.1710 -0.1729 -0.0845
H10 H -0.1450 -0.2369 -0.0104
C8 C -0.1481(3) -0.3339(4) -0.1064(3)
H11 H -0.2020 -0.3494 -0.1076
H12 H -0.1308 -0.3272 -0.1595
C9 C -0.1083(3) -0.4263(3) -0.0690(3)
C10 C -0.0371(3) -0.4547(4) -0.0892(3)
H13 H -0.0114 -0.4155 -0.1273
C11 C -0.0029(3) -0.5411(4) -0.0534(3)
H14 H 0.0459 -0.5601 -0.0685
C12 C -0.1051(3) -0.5702(4) 0.0201(3)
H15 H -0.1300 -0.6108 0.0581
C13 C -0.1416(3) -0.4859(4) -0.0125(3)
H16 H -0.1903 -0.4682 0.0038
C14 C -0.3521(3) 0.3887(4) 0.1815(3)
H17 H -0.3789 0.3534 0.1423
C15 C -0.3855(3) 0.4747(4) 0.2185(4)
H18 H -0.4336 0.4978 0.2039
C16 C -0.3487(3) 0.5261(4) 0.2759(3)
C17 C -0.2800(3) 0.4889(4) 0.2917(3)
H19 H -0.2517 0.5230 0.3303
C18 C -0.2502(3) 0.4040(4) 0.2539(4)
H20 H -0.2022 0.3798 0.2681
C19 C -0.3781(3) 0.6244(4) 0.3156(3)
H21 H -0.4326 0.6280 0.3097
H22 H -0.3666 0.6201 0.3704
C20 C -0.3427(3) 0.7248(4) 0.2819(3)
H23 H -0.3634 0.7372 0.2307
H24 H -0.2887 0.7128 0.2765
C21 C -0.3555(3) 0.8239(4) 0.3298(3)
H25 H -0.3311 0.8149 0.3797
H26 H -0.4093 0.8339 0.3385
C22 C -0.3243(3) 0.9212(4) 0.2904(3)
C23 C -0.2504(3) 0.9508(4) 0.2955(3)
H27 H -0.2170 0.9111 0.3263
C24 C -0.2263(3) 1.0382(4) 0.2554(3)
H28 H -0.1759 1.0590 0.2608
C25 C -0.3401(3) 1.0656(4) 0.2043(3)
H29 H -0.3721 1.1049 0.1717
C26 C -0.3689(3) 0.9809(4) 0.2438(3)
H30 H -0.4199 0.9633 0.2390
Zn1_2 Zn 0.01653(3) -0.72114(4) 0.05188(3)
Zn2B Zn 0.26643(3) 0.27503(5) 0.15122(3)
Zn2_2 Zn -0.23357(3) 1.22497(5) 0.15122(3)
O5B O -0.24071(15) 0.1996(3) 0.0447(2)
N2_2 N -0.0354(2) 0.4016(3) 0.0011(3)
N4_2 N -0.2688(2) 0.0961(3) 0.2092(3)
O7 O -0.10114(19) 0.5477(3) 0.2892(2)
H31 H -0.0849 0.4858 0.2795
O8 O -0.1206(2) 0.7561(3) 0.3210(3)
H32 H -0.1337 0.7008 0.3449
C27 C -0.0858(3) 0.7264(4) 0.2554(4)
C28 C -0.0748(3) 0.6185(4) 0.2370(3)
C29 C -0.0397(3) 0.5911(4) 0.1707(3)
H33 H -0.0337 0.5174 0.1577
C30 C -0.0132(3) 0.6696(4) 0.1232(3)
H34 H 0.0123 0.6498 0.0782
C31 C -0.0230(3) 0.7759(5) 0.1398(3)
H35 H -0.0049 0.8298 0.1064
C32 C -0.0599(3) 0.8046(4) 0.2066(3)
H36 H -0.0673 0.8784 0.2184
O9 O -0.1306(2) 0.2183(3) 0.3924(2)
H37 H -0.1083 0.2704 0.3724
O10 O -0.15494(18) 0.4272(3) 0.4172(2)
H38 H -0.1733 0.4881 0.4256
C33 C -0.1605(4) 0.2501(4) 0.4605(4)
C34 C -0.1747(3) 0.3586(4) 0.4738(3)
C35 C -0.2063(3) 0.3883(4) 0.5409(3)
H39 H -0.2147 0.4624 0.5512
C36 C -0.2262(3) 0.3116(4) 0.5945(3)
H40 H -0.2501 0.3328 0.6402
C37 C -0.2111(3) 0.2046(5) 0.5810(3)
H41 H -0.2235 0.1518 0.6178
C38 C -0.1776(3) 0.1740(4) 0.5130(3)
H42 H -0.1669 0.1004 0.5035
loop_
_geom_bond_atom_site_label_1
_geom_bond_atom_site_label_2
_geom_bond_site_symmetry_1
_geom_bond_site_symmetry_2
Zn1 O1 1_555 1_555
Zn2 O2 1_555 1_555
P1 H1 1_555 1_555
P2 H2 1_555 1_555
O1 P1 1_555 1_555
O2 P1 1_555 1_555
O3 P1 1_555 1_555
O4 Zn1 1_555 1_555
O5 P2 1_555 1_555
O6 P2 1_555 1_555
N1 Zn1 1_555 1_555
N2 C11 1_555 1_555
N3 Zn2 1_555 1_555
N4 C24 1_555 1_555
C1 N1 1_555 1_555
H3 C1 1_555 1_555
C2 C1 1_555 1_555
H4 C2 1_555 1_555
C3 C2 1_555 1_555
C4 C3 1_555 1_555
H5 C4 1_555 1_555
C5 N1 1_555 1_555
H6 C5 1_555 1_555
C6 C3 1_555 1_555
H7 C6 1_555 1_555
H8 C6 1_555 1_555
C7 C6 1_555 1_555
H9 C7 1_555 1_555
H10 C7 1_555 1_555
C8 C7 1_555 1_555
H11 C8 1_555 1_555
H12 C8 1_555 1_555
C9 C8 1_555 1_555
C10 C9 1_555 1_555
H13 C10 1_555 1_555
C11 C10 1_555 1_555
H14 C11 1_555 1_555
C12 N2 1_555 1_555
H15 C12 1_555 1_555
C13 C9 1_555 1_555
H16 C13 1_555 1_555
C14 N3 1_555 1_555
H17 C14 1_555 1_555
C15 C14 1_555 1_555
H18 C15 1_555 1_555
C16 C15 1_555 1_555
C17 C16 1_555 1_555
H19 C17 1_555 1_555
C18 N3 1_555 1_555
H20 C18 1_555 1_555
C19 C16 1_555 1_555
H21 C19 1_555 1_555
H22 C19 1_555 1_555
C20 C19 1_555 1_555
H23 C20 1_555 1_555
H24 C20 1_555 1_555
C21 C20 1_555 1_555
H25 C21 1_555 1_555
H26 C21 1_555 1_555
C22 C21 1_555 1_555
C23 C22 1_555 1_555
H27 C23 1_555 1_555
C24 C23 1_555 1_555
H28 C24 1_555 1_555
C25 N4 1_555 1_555
H29 C25 1_555 1_555
C26 C22 1_555 1_555
H30 C26 1_555 1_555
O7 H31 1_555 1_555
O8 H32 1_555 1_555
C27 O8 1_555 1_555
C28 O7 1_555 1_555
C29 C28 1_555 1_555
H33 C29 1_555 1_555
C30 C29 1_555 1_555
H34 C30 1_555 1_555
C31 C30 1_555 1_555
H35 C31 1_555 1_555
C32 C27 1_555 1_555
H36 C32 1_555 1_555
O9 H37 1_555 1_555
O10 H38 1_555 1_555
C33 O9 1_555 1_555
C34 O10 1_555 1_555
C35 C34 1_555 1_555
H39 C35 1_555 1_555
C36 C35 1_555 1_555
H40 C36 1_555 1_555
C37 C36 1_555 1_555
H41 C37 1_555 1_555
C38 C33 1_555 1_555
H42 C38 1_555 1_555
Zn1_2 N2 1_555 1_555
Zn2B O5 1_555 1_555
Zn2_2 N4 1_555 1_555
O5B Zn2 1_555 1_555
N2_2 Zn1 1_555 1_555
N4_2 Zn2 1_555 1_555
P2 O4 1_555 1_555
C4 C5 1_555 1_555
C12 C13 1_555 1_555
C17 C18 1_555 1_555
C25 C26 1_555 1_555
C27 C28 1_555 1_555
C31 C32 1_555 1_555
C33 C34 1_555 1_555
C37 C38 1_555 1_555

#END
