
#######################################################################
#
#                 Cambridge Crystallographic Data Centre
#                                CCDC 
#
#######################################################################
#
# If this CIF has been generated from an entry in the Cambridge 
# Structural Database, then it will include bibliographic, chemical, 
# crystal, experimental, refinement or atomic coordinate data resulting 
# from the CCDC's data processing and validation procedures.
#
#######################################################################

data_PEPBUJ
_symmetry_cell_setting           monoclinic
_symmetry_space_group_name_H-M   'C 2/c'
_symmetry_Int_Tables_number      15
_space_group_name_Hall           '-C 2yn'
loop_
_symmetry_equiv_pos_site_id
_symmetry_equiv_pos_as_xyz
1 x,y,z
2 -x,y,1/2-z
3 1/2+x,1/2+y,z
4 1/2-x,1/2+y,1/2-z
5 -x,-y,-z
6 x,-y,1/2+z
7 1/2-x,1/2-y,-z
8 1/2+x,1/2-y,1/2+z
_cell_length_a                   16.203(2)
_cell_length_b                   5.9721(9)
_cell_length_c                   22.156(3)
_cell_angle_alpha                90
_cell_angle_beta                 99.223(2)
_cell_angle_gamma                90
_cell_volume                     2116.23
loop_
_atom_site_label
_atom_site_type_symbol
_atom_site_fract_x
_atom_site_fract_y
_atom_site_fract_z
C1 C 0.92274(17) 0.2330(5) 0.84422(12)
C2 C 0.88466(17) 0.0736(5) 0.88584(12)
H1 H 0.8326 0.1359 0.8946
H2 H 0.8722 -0.0682 0.8650
C3 C 0.94374(16) 0.0341(5) 0.94545(11)
C4 C 0.98100(18) -0.1715(5) 0.95890(12)
H3 H 0.9686 -0.2892 0.9314
C5 C 1.03637(18) -0.2060(5) 1.01237(12)
H4 H 1.0607 -0.3462 1.0203
C6 C 0.83168(17) 0.6196(5) 0.72493(13)
H5 H 0.8062 0.5292 0.7508
C7 C 0.92111(17) 0.7476(5) 0.67579(12)
H6 H 0.9697 0.7714 0.6593
C8 C 0.8410(2) 1.0791(5) 0.62877(14)
H7 H 0.8947 1.1321 0.6205
H8 H 0.8180 1.1938 0.6523
C9 C 0.78353(18) 1.0482(5) 0.56910(12)
H9 H 0.7282 1.0087 0.5770
H10 H 0.8038 0.9262 0.5466
C10 C 0.77822(18) 1.2613(5) 0.53064(12)
H11 H 0.7577 1.3822 0.5534
H12 H 0.8340 1.3014 0.5237
N1 N 0.90964(12) 0.5813(4) 0.71275(9)
N2 N 0.79524(15) 0.7956(5) 0.69706(11)
N3 N 0.85408(14) 0.8749(4) 0.66562(10)
O1 O 0.95006(13) 0.1461(3) 0.79962(9)
O2 O 0.92629(16) 0.4359(4) 0.85545(9)
Zn1 Zn 1.0000 0.36383(7) 0.7500
C1D C 1.07726(17) -0.2330(5) 1.15578(12)
C2D C 1.11534(17) -0.0736(5) 1.11416(12)
H1D H 1.1674 -0.1359 1.1054
H2D H 1.1278 0.0682 1.1350
C3D C 1.05626(16) -0.0341(5) 1.05455(11)
C4D C 1.01900(18) 0.1715(5) 1.04110(12)
H3D H 1.0314 0.2892 1.0686
C5D C 0.96363(18) 0.2060(5) 0.98763(12)
H4D H 0.9393 0.3462 0.9797
C6F C 0.66832(17) 1.8804(5) 0.27507(13)
H5F H 0.6938 1.9708 0.2492
C7F C 0.57889(17) 1.7524(5) 0.32421(12)
H6F H 0.5303 1.7286 0.3407
C8F C 0.6590(2) 1.4209(5) 0.37123(14)
H7F H 0.6053 1.3679 0.3795
H8F H 0.6820 1.3062 0.3477
C9F C 0.71647(18) 1.4518(5) 0.43090(12)
H9F H 0.7718 1.4913 0.4230
H10F H 0.6962 1.5738 0.4534
C10F C 0.72178(18) 1.2387(5) 0.46936(12)
H11F H 0.7423 1.1178 0.4466
H12F H 0.6660 1.1986 0.4763
N1F N 0.59036(12) 1.9187(4) 0.28725(9)
N1A N 1.09036(12) 0.5813(4) 0.78725(9)
N2F N 0.70476(15) 1.7044(5) 0.30294(11)
N3F N 0.64592(14) 1.6251(4) 0.33438(10)
O1D O 1.04994(13) -0.1461(3) 1.20038(9)
O1A O 1.04994(13) 0.1461(3) 0.70038(9)
O2D O 1.07371(16) -0.4359(4) 1.14455(9)
Zn1D Zn 1.0000 -0.36383(7) 1.2500
Zn1F Zn 0.5000 2.13617(7) 0.2500
loop_
_geom_bond_atom_site_label_1
_geom_bond_atom_site_label_2
_geom_bond_site_symmetry_1
_geom_bond_site_symmetry_2
C1 C2 1_555 1_555
C2 H1 1_555 1_555
H2 C2 1_555 1_555
C3 C2 1_555 1_555
C4 C3 1_555 1_555
H3 C4 1_555 1_555
C5 C4 1_555 1_555
H4 C5 1_555 1_555
C6 H5 1_555 1_555
C7 H6 1_555 1_555
C8 H7 1_555 1_555
H8 C8 1_555 1_555
C9 C8 1_555 1_555
H9 C9 1_555 1_555
H10 C9 1_555 1_555
C10 C9 1_555 1_555
H11 C10 1_555 1_555
H12 C10 1_555 1_555
N1 C6 1_555 1_555
N2 C6 1_555 1_555
N3 C7 1_555 1_555
O1 C1 1_555 1_555
O2 C1 1_555 1_555
Zn1 N1 1_555 1_555
C1D C2D 1_555 1_555
C2D H1D 1_555 1_555
H2D C2D 1_555 1_555
C3D C5 1_555 1_555
C4D C3D 1_555 1_555
H3D C4D 1_555 1_555
C5D C3 1_555 1_555
H4D C5D 1_555 1_555
C6F H5F 1_555 1_555
C7F H6F 1_555 1_555
C8F H7F 1_555 1_555
H8F C8F 1_555 1_555
C9F C8F 1_555 1_555
H9F C9F 1_555 1_555
H10F C9F 1_555 1_555
C10F C10 1_555 1_555
H11F C10F 1_555 1_555
H12F C10F 1_555 1_555
N1F C6F 1_555 1_555
N1A Zn1 1_555 1_555
N2F C6F 1_555 1_555
N3F C7F 1_555 1_555
O1D C1D 1_555 1_555
O1A Zn1 1_555 1_555
O2D C1D 1_555 1_555
Zn1D O1D 1_555 1_555
Zn1F N1F 1_555 1_555
C7 N1 1_555 1_555
C8 N3 1_555 1_555
N2 N3 1_555 1_555
O1 Zn1 1_555 1_555
C2D C3D 1_555 1_555
C4D C5D 1_555 1_555
C7F N1F 1_555 1_555
C8F N3F 1_555 1_555
C9F C10F 1_555 1_555
N2F N3F 1_555 1_555

#END
