
#######################################################################
#
#                 Cambridge Crystallographic Data Centre
#                                CCDC 
#
#######################################################################
#
# If this CIF has been generated from an entry in the Cambridge 
# Structural Database, then it will include bibliographic, chemical, 
# crystal, experimental, refinement or atomic coordinate data resulting 
# from the CCDC's data processing and validation procedures.
#
#######################################################################

data_PEPHIA01
_symmetry_cell_setting           monoclinic
_symmetry_space_group_name_H-M   'P 21/c'
_symmetry_Int_Tables_number      14
_space_group_name_Hall           '-P 2ybc'
loop_
_symmetry_equiv_pos_site_id
_symmetry_equiv_pos_as_xyz
1 x,y,z
2 -x,1/2+y,1/2-z
3 -x,-y,-z
4 x,1/2-y,1/2+z
_cell_length_a                   21.341(7)
_cell_length_b                   11.688(6)
_cell_length_c                   19.004(4)
_cell_angle_alpha                90
_cell_angle_beta                 110.53(2)
_cell_angle_gamma                90
_cell_volume                     4439.18
loop_
_atom_site_label
_atom_site_type_symbol
_atom_site_fract_x
_atom_site_fract_y
_atom_site_fract_z
Sn1 Sn 0.23678(2) 0.61980(3) 0.05133(2)
Sn2 Sn 0.28216(2) 0.56953(3) -0.21160(2)
S1 S 0.14955(8) 0.2623(1) -0.1069(1)
S2 S 0.42886(7) 0.9515(1) 0.1349(1)
O1 O 0.2037(2) 0.4787(3) -0.0296(2)
O2 O 0.2413(2) 0.5495(3) -0.1139(2)
O3 O 0.2731(2) 0.7711(3) 0.1354(2)
O4 O 0.3300(2) 0.9096(3) 0.2071(2)
N1 N 0.0508(3) 0.4031(6) -0.1187(4)
N2 N 0.0657(3) 0.2436(6) -0.0400(4)
N3 N 0.3142(3) 1.0565(5) 0.0699(3)
N4 N 0.4128(3) 1.1662(5) 0.1119(4)
C1 C 0.2097(2) 0.4768(4) -0.0929(3)
C2 C 0.1746(3) 0.3834(6) -0.1467(3)
C3 C 0.3198(3) 0.8405(4) 0.1548(3)
C4 C 0.3697(3) 0.8391(5) 0.1151(3)
C5 C 0.0812(3) 0.3115(6) -0.0872(4)
C6 C -0.0028(5) 0.4310(10) -0.1003(7)
C7 C -0.0222(5) 0.3689(12) -0.0533(9)
C8 C 0.0123(5) 0.2768(11) -0.0239(6)
C9 C 0.3785(3) 1.0697(5) 0.1011(3)
C10 C 0.2795(4) 1.1517(7) 0.0477(5)
C11 C 0.3075(5) 1.2557(7) 0.0557(5)
C12 C 0.3746(5) 1.2598(6) 0.0868(5)
C13 C 0.1716(3) 0.7342(5) -0.0268(3)
C14 C 0.1826(3) 0.8509(5) -0.0243(4)
C15 C 0.1378(4) 0.9203(6) -0.0775(4)
C16 C 0.0831(4) 0.8767(8) -0.1308(4)
C17 C 0.0715(3) 0.7628(8) -0.1326(4)
C18 C 0.1161(3) 0.6921(6) -0.0805(4)
C19 C 0.1972(3) 0.5335(5) 0.1242(3)
C20 C 0.1747(4) 0.4244(6) 0.1101(4)
C21 C 0.1520(5) 0.3657(7) 0.1591(5)
C22 C 0.1518(5) 0.4167(9) 0.2227(5)
C23 C 0.1744(6) 0.5229(11) 0.2378(5)
C24 C 0.1967(5) 0.5826(8) 0.1890(4)
C25 C 0.3386(3) 0.5787(5) 0.0823(3)
C26 C 0.3758(3) 0.5853(5) 0.0369(4)
C27 C 0.4445(3) 0.5692(7) 0.0660(5)
C28 C 0.4739(4) 0.5451(8) 0.1406(6)
C29 C 0.4384(4) 0.5366(8) 0.1858(5)
C30 C 0.3704(4) 0.5527(6) 0.1574(4)
C31 C 0.3297(3) 0.4090(4) -0.1847(3)
C32 C 0.3605(4) 0.3717(7) -0.1134(4)
C33 C 0.3920(5) 0.2665(8) -0.0983(5)
C34 C 0.3918(6) 0.1991(8) -0.1543(6)
C35 C 0.3608(8) 0.2319(8) -0.2251(6)
C36 C 0.3317(6) 0.3386(7) -0.2395(5)
C37 C 0.1837(3) 0.5627(5) -0.2886(3)
C38 C 0.1305(3) 0.6122(6) -0.2740(4)
C39 C 0.0660(3) 0.5970(8) -0.3236(5)
C40 C 0.0548(3) 0.5352(8) -0.3868(4)
C41 C 0.1058(4) 0.4872(8) -0.4033(4)
C42 C 0.1701(3) 0.5026(7) -0.3536(4)
C43 C 0.3283(3) 0.7177(5) -0.1544(3)
C44 C 0.2954(3) 0.7939(5) -0.1254(3)
C45 C 0.3259(4) 0.8893(6) -0.0880(4)
C46 C 0.3910(5) 0.9089(7) -0.0780(5)
C47 C 0.4244(4) 0.8356(9) -0.1065(5)
C48 C 0.3942(3) 0.7394(7) -0.1448(4)
H1 H 0.2045 0.3571 -0.1717
H2 H 0.1347 0.4162 -0.1834
H3 H 0.3447 0.8407 0.0615
H4 H 0.3944 0.7679 0.1280
H5 H -0.0281 0.4991 -0.1223
H6 H -0.0609 0.3909 -0.0410
H7 H -0.0014 0.2313 0.0108
H8 H 0.2313 1.1460 0.0244
H9 H 0.2808 1.3244 0.0399
H10 H 0.3965 1.3336 0.0915
H11 H 0.2212 0.8837 0.0143
H12 H 0.1460 1.0021 -0.0764
H13 H 0.0522 0.9267 -0.1676
H14 H 0.0320 0.7309 -0.1704
H15 H 0.1075 0.6104 -0.0824
H16 H 0.1745 0.3870 0.0644
H17 H 0.1362 0.2876 0.1480
H18 H 0.1353 0.3759 0.2571
H19 H 0.1752 0.5590 0.2841
H20 H 0.2123 0.6606 0.2008
H21 H 0.3540 0.6014 -0.0162
H22 H 0.4711 0.5749 0.0339
H23 H 0.5220 0.5338 0.1613
H24 H 0.4606 0.5191 0.2386
H25 H 0.3445 0.5458 0.1902
H26 H 0.3605 0.4200 -0.0719
H27 H 0.4141 0.2422 -0.0467
H28 H 0.4144 0.1256 -0.1437
H29 H 0.3587 0.1811 -0.2662
H30 H 0.3120 0.3637 -0.2913
H31 H 0.1387 0.6575 -0.2289
H32 H 0.0287 0.6308 -0.3130
H33 H 0.0093 0.5250 -0.4212
H34 H 0.0972 0.4430 -0.4489
H35 H 0.2069 0.4696 -0.3654
H36 H 0.2490 0.7795 -0.1316
H37 H 0.3012 0.9428 -0.0687
H38 H 0.4134 0.9758 -0.0503
H39 H 0.4708 0.8510 -0.0997
H40 H 0.4191 0.6873 -0.1649
O4C O 0.3300(2) 0.5904(3) -0.2929(2)
Sn2C Sn 0.28216(2) 0.93047(3) 0.28840(2)
loop_
_geom_bond_atom_site_label_1
_geom_bond_atom_site_label_2
_geom_bond_site_symmetry_1
_geom_bond_site_symmetry_2
Sn1 O1 1_555 1_555
Sn2 O2 1_555 1_555
S1 C2 1_555 1_555
S2 C4 1_555 1_555
O1 C1 1_555 1_555
O2 C1 1_555 1_555
O3 Sn1 1_555 1_555
O4 C3 1_555 1_555
N1 C5 1_555 1_555
N2 C5 1_555 1_555
N3 C9 1_555 1_555
N4 C9 1_555 1_555
C1 C2 1_555 1_555
C2 H1 1_555 1_555
C3 O3 1_555 1_555
C4 C3 1_555 1_555
C5 S1 1_555 1_555
C6 N1 1_555 1_555
C7 C6 1_555 1_555
C8 N2 1_555 1_555
C9 S2 1_555 1_555
C10 N3 1_555 1_555
C11 C10 1_555 1_555
C12 N4 1_555 1_555
C13 Sn1 1_555 1_555
C14 C13 1_555 1_555
C15 C14 1_555 1_555
C16 C15 1_555 1_555
C17 C16 1_555 1_555
C18 C13 1_555 1_555
C19 Sn1 1_555 1_555
C20 C19 1_555 1_555
C21 C20 1_555 1_555
C22 C21 1_555 1_555
C23 C22 1_555 1_555
C24 C19 1_555 1_555
C25 Sn1 1_555 1_555
C26 C25 1_555 1_555
C27 C26 1_555 1_555
C28 C27 1_555 1_555
C29 C28 1_555 1_555
C30 C25 1_555 1_555
C31 Sn2 1_555 1_555
C32 C31 1_555 1_555
C33 C32 1_555 1_555
C34 C33 1_555 1_555
C35 C34 1_555 1_555
C36 C31 1_555 1_555
C37 Sn2 1_555 1_555
C38 C37 1_555 1_555
C39 C38 1_555 1_555
C40 C39 1_555 1_555
C41 C40 1_555 1_555
C42 C37 1_555 1_555
C43 Sn2 1_555 1_555
C44 C43 1_555 1_555
C45 C44 1_555 1_555
C46 C45 1_555 1_555
C47 C46 1_555 1_555
C48 C43 1_555 1_555
H2 C2 1_555 1_555
H3 C4 1_555 1_555
H4 C4 1_555 1_555
H5 C6 1_555 1_555
H6 C7 1_555 1_555
H7 C8 1_555 1_555
H8 C10 1_555 1_555
H9 C11 1_555 1_555
H10 C12 1_555 1_555
H11 C14 1_555 1_555
H12 C15 1_555 1_555
H13 C16 1_555 1_555
H14 C17 1_555 1_555
H15 C18 1_555 1_555
H16 C20 1_555 1_555
H17 C21 1_555 1_555
H18 C22 1_555 1_555
H19 C23 1_555 1_555
H20 C24 1_555 1_555
H21 C26 1_555 1_555
H22 C27 1_555 1_555
H23 C28 1_555 1_555
H24 C29 1_555 1_555
H25 C30 1_555 1_555
H26 C32 1_555 1_555
H27 C33 1_555 1_555
H28 C34 1_555 1_555
H29 C35 1_555 1_555
H30 C36 1_555 1_555
H31 C38 1_555 1_555
H32 C39 1_555 1_555
H33 C40 1_555 1_555
H34 C41 1_555 1_555
H35 C42 1_555 1_555
H36 C44 1_555 1_555
H37 C45 1_555 1_555
H38 C46 1_555 1_555
H39 C47 1_555 1_555
H40 C48 1_555 1_555
O4C Sn2 1_555 1_555
Sn2C O4 1_555 1_555
C7 C8 1_555 1_555
C11 C12 1_555 1_555
C17 C18 1_555 1_555
C23 C24 1_555 1_555
C29 C30 1_555 1_555
C35 C36 1_555 1_555
C41 C42 1_555 1_555
C47 C48 1_555 1_555

#END
