
#######################################################################
#
#                 Cambridge Crystallographic Data Centre
#                                CCDC 
#
#######################################################################
#
# If this CIF has been generated from an entry in the Cambridge 
# Structural Database, then it will include bibliographic, chemical, 
# crystal, experimental, refinement or atomic coordinate data resulting 
# from the CCDC's data processing and validation procedures.
#
#######################################################################

data_PEPLAY
_symmetry_cell_setting           orthorhombic
_symmetry_space_group_name_H-M   'P 21 21 21'
_symmetry_Int_Tables_number      19
_space_group_name_Hall           'P 2ac 2ab'
loop_
_symmetry_equiv_pos_site_id
_symmetry_equiv_pos_as_xyz
1 x,y,z
2 1/2-x,-y,1/2+z
3 -x,1/2+y,1/2-z
4 1/2+x,1/2-y,-z
_cell_length_a                   6.8094(3)
_cell_length_b                   12.4220(6)
_cell_length_c                   17.1733(8)
_cell_angle_alpha                90
_cell_angle_beta                 90
_cell_angle_gamma                90
_cell_volume                     1452.63
loop_
_atom_site_label
_atom_site_type_symbol
_atom_site_fract_x
_atom_site_fract_y
_atom_site_fract_z
V1 V 0.06055(5) 0.26567(3) 1.00084(3)
O1 O 0.2783(3) 0.31685(14) 1.00492(13)
O2 O 0.1122(4) 0.1711(2) 0.91063(13)
O3 O 0.1119(4) 0.1483(2) 1.07571(14)
O4 O -0.0606(4) 0.3446(2) 1.08929(13)
O5 O -0.0606(4) 0.3672(2) 0.92476(14)
C1 C 0.2735(5) 0.1386(3) 0.88222(17)
C2 C 0.2617(5) 0.0764(3) 0.80846(18)
C3 C 0.0801(6) 0.0522(4) 0.7761(2)
H1 H -0.0346 0.0758 0.8000
C4 C 0.0709(6) -0.0074(4) 0.7079(2)
H2 H -0.0506 -0.0236 0.6862
C5 C 0.4327(6) 0.0403(4) 0.7725(2)
H3 H 0.5546 0.0557 0.7942
C6 C 0.4203(6) -0.0185(4) 0.7045(2)
H4 H 0.5344 -0.0421 0.6801
C7 C 0.2707(5) 0.1130(3) 1.10193(17)
C8 C 0.2388(5) -0.0426(3) 0.67237(18)
V1C V 0.56055(5) 0.23433(3) 0.99916(3)
O1C O -0.2217(3) 0.18315(14) 0.99508(13)
O4C O 0.4394(4) 0.1554(2) 0.91071(13)
O5C O 0.4394(4) 0.1328(2) 1.07524(14)
C1C C -0.2265(5) 0.3614(3) 1.11778(17)
C7C C -0.2293(5) 0.3870(3) 0.89807(17)
C7A C 0.2293(5) -0.1130(3) 0.60193(17)
C8A C 0.2612(5) 0.0426(3) 1.17237(18)
C10 C 0.401(2) 0.7757(12) 0.8616(8)
C11 C 0.596(2) 0.7773(13) 0.8604(8)
O10 O 0.005(2) 0.7767(13) 0.8600(9)
C15 C 0.731(3) 0.8380(13) 0.9133(9)
C17 C 0.330(2) 0.8346(13) 0.9143(9)
C18 C 0.129(2) 0.8362(13) 0.9152(9)
C20 C 0.438(2) 0.8915(11) 0.9670(8)
C21 C 0.639(2) 0.8958(12) 0.9674(8)
O15 O 0.052(2) 0.8925(11) 0.9667(8)
C9? C 0.205(2) 0.7807(13) 0.8628(8)
O6? O 0.205(2) 0.7807(13) 0.8628(8)
O7? O 0.401(2) 0.7757(12) 0.8616(8)
O8? O 0.596(2) 0.7773(13) 0.8604(8)
C12? C 0.802(2) 0.7829(15) 0.8610(9)
O9? O 0.802(2) 0.7829(15) 0.8610(9)
C13? C 0.005(2) 0.7767(13) 0.8600(9)
C14? C 0.931(2) 0.8380(13) 0.9147(9)
C16? C 0.536(2) 0.8365(13) 0.9152(9)
C19? C 0.251(2) 0.8970(10) 0.9691(7)
O11? O 0.251(2) 0.8970(10) 0.9691(7)
O12? O 0.438(2) 0.8915(11) 0.9670(8)
O13? O 0.639(2) 0.8958(12) 0.9674(8)
C22? C 0.839(2) 0.8955(12) 0.9683(8)
O14? O 0.839(2) 0.8955(12) 0.9683(8)
C23? C 1.052(2) 0.8925(11) 0.9667(8)
loop_
_geom_bond_atom_site_label_1
_geom_bond_atom_site_label_2
_geom_bond_site_symmetry_1
_geom_bond_site_symmetry_2
V1 O1 1_555 1_555
O1 V1C 1_555 1_555
O2 V1 1_555 1_555
O3 V1 1_555 1_555
O4 V1 1_555 1_555
O5 V1 1_555 1_555
C1 O2 1_555 1_555
C2 C1 1_555 1_555
C3 C2 1_555 1_555
H1 C3 1_555 1_555
C4 C3 1_555 1_555
H2 C4 1_555 1_555
C5 C2 1_555 1_555
H3 C5 1_555 1_555
C6 C5 1_555 1_555
H4 C6 1_555 1_555
C7 O3 1_555 1_555
C8 C4 1_555 1_555
C10 C11 1_555 1_555
C11 C15 1_555 1_555
O10 C18 1_555 1_555
C15 C21 1_555 1_555
C17 C10 1_555 1_555
C18 C17 1_555 1_555
C20 C17 1_555 1_555
C21 C20 1_555 1_555
O15 C18 1_555 1_555
V1C O4C 1_555 1_555
O1C V1 1_555 1_555
O4C C1 1_555 1_555
O5C C7 1_555 1_555
C1C O4 1_555 1_555
C7C O5 1_555 1_555
C7A C8 1_555 1_555
C8A C7 1_555 1_555
C6 C8 1_555 1_555
V1C O5C 1_555 1_555

#END
