
#######################################################################
#
#                 Cambridge Crystallographic Data Centre
#                                CCDC 
#
#######################################################################
#
# If this CIF has been generated from an entry in the Cambridge 
# Structural Database, then it will include bibliographic, chemical, 
# crystal, experimental, refinement or atomic coordinate data resulting 
# from the CCDC's data processing and validation procedures.
#
#######################################################################

data_PEPTOU
_symmetry_cell_setting           monoclinic
_symmetry_space_group_name_H-M   'P 21/n'
_symmetry_Int_Tables_number      14
_space_group_name_Hall           '-P 2yn'
loop_
_symmetry_equiv_pos_site_id
_symmetry_equiv_pos_as_xyz
1 x,y,z
2 1/2-x,1/2+y,1/2-z
3 -x,-y,-z
4 1/2+x,1/2-y,1/2+z
_cell_length_a                   11.682(2)
_cell_length_b                   16.800(3)
_cell_length_c                   12.929(3)
_cell_angle_alpha                90.00
_cell_angle_beta                 105.40(3)
_cell_angle_gamma                90.00
_cell_volume                     2446.31
loop_
_atom_site_label
_atom_site_type_symbol
_atom_site_fract_x
_atom_site_fract_y
_atom_site_fract_z
Zn1 Zn 0.25465(4) 0.09672(3) 0.71361(4)
C1 C 0.1216(3) 0.2650(2) 0.8625(4)
C2 C 0.0905(4) 0.3351(3) 0.8058(4)
H1 H 0.0931 0.3384 0.7347
C3 C 0.0554(4) 0.4004(2) 0.8557(4)
H2 H 0.0333 0.4472 0.8172
C4 C 0.0530(4) 0.3967(3) 0.9631(4)
C5 C 0.0850(4) 0.3268(3) 1.0182(4)
H3 H 0.0845 0.3234 1.0899
C6 C 0.1177(4) 0.2617(3) 0.9682(4)
H4 H 0.1377 0.2145 1.0063
C7 C 0.0199(4) 0.4659(2) 1.0205(4)
H5 H 0.0288 0.4596 1.0936
C8 C 0.9799(4) 0.0343(3) 0.9773(3)
H6 H 1.0360 0.0721 0.9712
C9 C 0.8540(4) 0.0559(3) 0.9356(3)
C10 C 0.8249(4) 0.1288(3) 0.8846(4)
H7 H 0.8852 0.1644 0.8824
C11 C 0.7080(4) 0.1497(3) 0.8369(4)
H8 H 0.6907 0.1984 0.8019
C12 C 0.6169(3) 0.0981(3) 0.8413(3)
C13 C 0.6446(4) 0.0261(3) 0.8952(4)
H9 H 0.5840 -0.0086 0.8998
C14 C 0.7621(4) 0.0054(3) 0.9423(4)
H10 H 0.7793 -0.0428 0.9786
C15 C 0.1634(3) 0.1948(2) 0.8115(4)
C16 C 0.4910(4) 0.1190(3) 0.7844(4)
C17 C 0.2600(4) 0.1340(3) 0.4794(4)
H11 H 0.2961 0.1821 0.5048
C18 C 0.2392(4) 0.1163(3) 0.3704(4)
H12 H 0.2609 0.1522 0.3242
C19 C 0.1868(4) 0.0460(3) 0.3329(4)
H13 H 0.1731 0.0335 0.2606
C20 C 0.1535(4) -0.0077(3) 0.4021(4)
C21 C 0.0984(4) -0.0837(3) 0.3703(4)
H14 H 0.0806 -0.0987 0.2985
C22 C 0.0719(4) -0.1336(3) 0.4425(4)
H15 H 0.0361 -0.1822 0.4193
C23 C 0.0976(3) -0.1136(2) 0.5528(4)
C24 C 0.0756(4) -0.1630(3) 0.6326(4)
H16 H 0.0427 -0.2131 0.6144
C25 C 0.1018(4) -0.1387(3) 0.7359(4)
H17 H 0.0887 -0.1723 0.7889
C26 C 0.1489(4) -0.0624(3) 0.7624(4)
H18 H 0.1648 -0.0455 0.8333
C27 C 0.1481(3) -0.0384(2) 0.5864(3)
C28 C 0.1775(3) 0.0142(2) 0.5105(3)
N1 N 0.2298(3) 0.08438(19) 0.5483(3)
N2 N 0.1716(3) -0.0133(2) 0.6895(3)
O1 O 0.1794(2) 0.20320(17) 0.7190(3)
O2 O 0.1825(3) 0.12985(18) 0.8594(3)
O3 O 0.4134(3) 0.06744(19) 0.7934(3)
O4 O 0.4662(3) 0.18003(19) 0.7309(3)
Zn1B Zn -0.25465(4) 0.90328(3) 1.28639(4)
Zn1B_2 Zn 1.74535(4) -0.09672(3) 1.28639(4)
C1B C -0.1216(3) 0.7350(2) 1.1375(4)
C2B C -0.0905(4) 0.6649(3) 1.1942(4)
H1B H -0.0931 0.6616 1.2653
C3B C -0.0554(4) 0.5996(2) 1.1443(4)
H2B H -0.0333 0.5528 1.1828
C4B C -0.0530(4) 0.6033(3) 1.0369(4)
C5B C -0.0850(4) 0.6732(3) 0.9818(4)
H3B H -0.0845 0.6766 0.9101
C6B C -0.1177(4) 0.7383(3) 1.0318(4)
H4B H -0.1377 0.7855 0.9937
C7B C -0.0199(4) 0.5341(2) 0.9795(4)
H5B H -0.0288 0.5404 0.9064
C8B C 1.0201(4) -0.0343(3) 1.0227(3)
H6B H 0.9640 -0.0721 1.0288
C9B C 1.1460(4) -0.0559(3) 1.0644(3)
C10B C 1.1751(4) -0.1288(3) 1.1154(4)
H7B H 1.1148 -0.1644 1.1176
C11B C 1.2920(4) -0.1497(3) 1.1631(4)
H8B H 1.3093 -0.1984 1.1981
C12B C 1.3831(3) -0.0981(3) 1.1587(3)
C13B C 1.3554(4) -0.0261(3) 1.1048(4)
H9B H 1.4160 0.0086 1.1002
C14B C 1.2379(4) -0.0054(3) 1.0577(4)
H10B H 1.2207 0.0428 1.0214
C15B C -0.1634(3) 0.8052(2) 1.1885(4)
C16B C 1.5090(4) -0.1190(3) 1.2156(4)
C17B C -0.2600(4) 0.8660(3) 1.5206(4)
H11B H -0.2961 0.8179 1.4952
C18B C -0.2392(4) 0.8837(3) 1.6296(4)
H12B H -0.2609 0.8478 1.6758
C19B C -0.1868(4) 0.9540(3) 1.6671(4)
H13B H -0.1731 0.9665 1.7394
C20B C -0.1535(4) 1.0077(3) 1.5979(4)
C21B C -0.0984(4) 1.0837(3) 1.6297(4)
H14B H -0.0806 1.0987 1.7015
C22B C -0.0719(4) 1.1336(3) 1.5575(4)
H15B H -0.0361 1.1822 1.5807
C23B C -0.0976(3) 1.1136(2) 1.4472(4)
C24B C -0.0756(4) 1.1630(3) 1.3674(4)
H16B H -0.0427 1.2131 1.3856
C25B C -0.1018(4) 1.1387(3) 1.2641(4)
H17B H -0.0887 1.1723 1.2111
C26B C -0.1489(4) 1.0624(3) 1.2376(4)
H18B H -0.1648 1.0455 1.1667
C27B C -0.1481(3) 1.0384(2) 1.4136(3)
C28B C -0.1775(3) 0.9858(2) 1.4895(3)
N1B N -0.2298(3) 0.91562(19) 1.4517(3)
N2B N -0.1716(3) 1.0133(2) 1.3105(3)
O1B O -0.1794(2) 0.79680(17) 1.2810(3)
O2B O -0.1825(3) 0.87015(18) 1.1406(3)
O3B O 1.5866(3) -0.06744(19) 1.2066(3)
O3B_2 O -0.4134(3) 0.93256(19) 1.2066(3)
O4B O 1.5338(3) -0.18003(19) 1.2691(3)
loop_
_geom_bond_atom_site_label_1
_geom_bond_atom_site_label_2
_geom_bond_site_symmetry_1
_geom_bond_site_symmetry_2
Zn1 N1 1_555 1_555
C1 C2 1_555 1_555
C2 H1 1_555 1_555
C3 C2 1_555 1_555
H2 C3 1_555 1_555
C4 C3 1_555 1_555
C5 C4 1_555 1_555
H3 C5 1_555 1_555
C6 C1 1_555 1_555
H4 C6 1_555 1_555
C7 C4 1_555 1_555
H5 C7 1_555 1_555
C8 H6 1_555 1_555
C9 C8 1_555 1_555
C10 C9 1_555 1_555
H7 C10 1_555 1_555
C11 C10 1_555 1_555
H8 C11 1_555 1_555
C12 C11 1_555 1_555
C13 C12 1_555 1_555
H9 C13 1_555 1_555
C14 C9 1_555 1_555
H10 C14 1_555 1_555
C15 C1 1_555 1_555
C16 C12 1_555 1_555
C17 H11 1_555 1_555
C18 C17 1_555 1_555
H12 C18 1_555 1_555
C19 C18 1_555 1_555
H13 C19 1_555 1_555
C20 C19 1_555 1_555
C21 C20 1_555 1_555
H14 C21 1_555 1_555
C22 C21 1_555 1_555
H15 C22 1_555 1_555
C23 C22 1_555 1_555
C24 C23 1_555 1_555
H16 C24 1_555 1_555
C25 C24 1_555 1_555
H17 C25 1_555 1_555
C26 C25 1_555 1_555
H18 C26 1_555 1_555
C27 C23 1_555 1_555
C28 C20 1_555 1_555
N1 C17 1_555 1_555
N2 Zn1 1_555 1_555
O1 Zn1 1_555 1_555
O2 Zn1 1_555 1_555
O3 Zn1 1_555 1_555
O4 C16 1_555 1_555
Zn1B N1B 1_555 1_555
Zn1B_2 O3B 1_555 1_555
C1B C2B 1_555 1_555
C2B H1B 1_555 1_555
C3B C2B 1_555 1_555
H2B C3B 1_555 1_555
C4B C3B 1_555 1_555
C5B C4B 1_555 1_555
H3B C5B 1_555 1_555
C6B C1B 1_555 1_555
H4B C6B 1_555 1_555
C7B C7 1_555 1_555
H5B C7B 1_555 1_555
C8B C8 1_555 1_555
H6B C8B 1_555 1_555
C9B C8B 1_555 1_555
C10B C9B 1_555 1_555
H7B C10B 1_555 1_555
C11B C10B 1_555 1_555
H8B C11B 1_555 1_555
C12B C11B 1_555 1_555
C13B C12B 1_555 1_555
H9B C13B 1_555 1_555
C14B C9B 1_555 1_555
H10B C14B 1_555 1_555
C15B C1B 1_555 1_555
C16B C12B 1_555 1_555
C17B H11B 1_555 1_555
C18B C17B 1_555 1_555
H12B C18B 1_555 1_555
C19B C18B 1_555 1_555
H13B C19B 1_555 1_555
C20B C19B 1_555 1_555
C21B C20B 1_555 1_555
H14B C21B 1_555 1_555
C22B C21B 1_555 1_555
H15B C22B 1_555 1_555
C23B C22B 1_555 1_555
C24B C23B 1_555 1_555
H16B C24B 1_555 1_555
C25B C24B 1_555 1_555
H17B C25B 1_555 1_555
C26B C25B 1_555 1_555
H18B C26B 1_555 1_555
C27B C23B 1_555 1_555
C28B C20B 1_555 1_555
N1B C17B 1_555 1_555
N2B Zn1B 1_555 1_555
O1B Zn1B 1_555 1_555
O2B Zn1B 1_555 1_555
O3B C16B 1_555 1_555
O3B_2 Zn1B 1_555 1_555
O4B C16B 1_555 1_555
C5 C6 1_555 1_555
C13 C14 1_555 1_555
C15 O1 1_555 1_555
C15 O2 1_555 1_555
C16 O3 1_555 1_555
C26 N2 1_555 1_555
C27 C28 1_555 1_555
C27 N2 1_555 1_555
C28 N1 1_555 1_555
C4B C7B 1_555 1_555
C5B C6B 1_555 1_555
C13B C14B 1_555 1_555
C15B O1B 1_555 1_555
C15B O2B 1_555 1_555
C26B N2B 1_555 1_555
C27B C28B 1_555 1_555
C27B N2B 1_555 1_555
C28B N1B 1_555 1_555

#END
