
#######################################################################
#
#                 Cambridge Crystallographic Data Centre
#                                CCDC 
#
#######################################################################
#
# If this CIF has been generated from an entry in the Cambridge 
# Structural Database, then it will include bibliographic, chemical, 
# crystal, experimental, refinement or atomic coordinate data resulting 
# from the CCDC's data processing and validation procedures.
#
#######################################################################

data_PEPXEO
_symmetry_cell_setting           orthorhombic
_symmetry_space_group_name_H-M   'P b c a'
_symmetry_Int_Tables_number      61
_space_group_name_Hall           '-P 2ac 2ab'
loop_
_symmetry_equiv_pos_site_id
_symmetry_equiv_pos_as_xyz
1 x,y,z
2 1/2-x,-y,1/2+z
3 -x,1/2+y,1/2-z
4 1/2+x,1/2-y,-z
5 -x,-y,-z
6 1/2+x,y,1/2-z
7 x,1/2-y,1/2+z
8 1/2-x,1/2+y,z
_cell_length_a                   17.7817(8)
_cell_length_b                   9.9732(4)
_cell_length_c                   20.6967(9)
_cell_angle_alpha                90
_cell_angle_beta                 90
_cell_angle_gamma                90
_cell_volume                     3670.36
loop_
_atom_site_label
_atom_site_type_symbol
_atom_site_fract_x
_atom_site_fract_y
_atom_site_fract_z
Cd1 Cd -0.148960(14) 1.10631(3) -0.120440(12)
Cd2 Cd 0.0000 1.0000 0.0000
C1 C -0.0493(3) 1.3470(5) 0.0682(2)
H1 H -0.0653 1.3023 0.0295
H2 H -0.0304 1.4344 0.0575
H3 H -0.0911 1.3557 0.0972
C2 C 0.1459(2) 1.2056(5) 0.2272(2)
H4 H 0.1772 1.1272 0.2267
H5 H 0.1152 1.2050 0.2654
H6 H 0.1769 1.2844 0.2271
C3 C 0.0108(2) 1.2679(4) 0.09959(18)
C4 C 0.0970(2) 1.2059(4) 0.16923(17)
C5 C -0.1576(2) 1.0389(4) 0.09075(19)
C6 C -0.2409(2) 1.1081(4) 0.02041(19)
C7 C -0.3121(3) 1.1617(6) -0.0065(2)
H7 H -0.3081 1.1682 -0.0526
H8 H -0.3528 1.1027 0.0045
H9 H -0.3216 1.2490 0.0113
C8 C -0.1233(3) 1.0044(5) 0.1540(2)
H10 H -0.1588 1.0222 0.1880
H11 H -0.0790 1.0576 0.1606
H12 H -0.1101 0.9111 0.1545
N1 N -0.12716(17) 1.0290(3) 0.03359(15)
N2 N -0.1931(3) 1.1594(6) -0.3105(2)
N3 N -0.18062(18) 1.0728(4) -0.01148(15)
N4 N -0.1092(2) 1.1537(5) -0.2236(2)
N5 N -0.1521(2) 1.1571(4) -0.26641(19)
N6 N -0.22909(18) 1.0874(4) 0.08438(16)
N7 N 0.03954(17) 1.1548(3) 0.07952(15)
N8 N 0.09380(19) 1.1139(3) 0.12398(15)
N9 N -0.2817(2) 1.1173(5) 0.1325(2)
H13 H -0.3246 1.1509 0.1222
H14 H -0.2712 1.1021 0.1724
N10 N 0.04624(19) 1.3033(3) 0.15598(15)
N11 N 0.0347(2) 1.4159(4) 0.19546(18)
H15 H 0.0606 1.4258 0.2302
H16 H 0.0017 1.4750 0.1849
N12 N -0.0315(3) 0.6627(5) 0.1238(3)
N13 N -0.2637(2) 1.0233(4) -0.15382(19)
N14 N 0.03138(18) 0.8437(3) 0.07714(16)
N15 N -0.2903(2) 0.9270(4) -0.12973(18)
N16 N -0.00128(18) 0.7508(3) 0.09995(19)
N17 N -0.3183(3) 0.8362(5) -0.1054(3)
Cd1D Cd 0.148960(14) 0.89369(3) 0.120440(12)
Cd1G Cd -0.351040(14) 0.60631(3) -0.120440(12)
Cd1G_2 Cd -0.351040(14) 1.60631(3) -0.120440(12)
C1D C 0.0493(3) 0.6530(5) -0.0682(2)
H1D H 0.0653 0.6977 -0.0295
H2D H 0.0304 0.5656 -0.0575
H3D H 0.0911 0.6443 -0.0972
C2D C -0.1459(2) 0.7944(5) -0.2272(2)
H4D H -0.1772 0.8728 -0.2267
H5D H -0.1152 0.7950 -0.2654
H6D H -0.1769 0.7156 -0.2271
C3D C -0.0108(2) 0.7321(4) -0.09959(18)
C4D C -0.0970(2) 0.7941(4) -0.16923(17)
C5D C 0.1576(2) 0.9611(4) -0.09075(19)
C6D C 0.2409(2) 0.8919(4) -0.02041(19)
C7D C 0.3121(3) 0.8383(6) 0.0065(2)
H7D H 0.3081 0.8318 0.0526
H8D H 0.3528 0.8973 -0.0045
H9D H 0.3216 0.7510 -0.0113
C8D C 0.1233(3) 0.9956(5) -0.1540(2)
H10D H 0.1588 0.9778 -0.1880
H11D H 0.0790 0.9424 -0.1606
H12D H 0.1101 1.0889 -0.1545
N1D N 0.12716(17) 0.9710(3) -0.03359(15)
N2D N 0.1931(3) 0.8406(6) 0.3105(2)
N3D N 0.18062(18) 0.9272(4) 0.01148(15)
N4D N 0.1092(2) 0.8463(5) 0.2236(2)
N5D N 0.1521(2) 0.8429(4) 0.26641(19)
N6D N 0.22909(18) 0.9126(4) -0.08438(16)
N7D N -0.03954(17) 0.8452(3) -0.07952(15)
N8D N -0.09380(19) 0.8861(3) -0.12398(15)
N9D N 0.2817(2) 0.8827(5) -0.1325(2)
H13D H 0.3246 0.8491 -0.1222
H14D H 0.2712 0.8979 -0.1724
N10D N -0.04624(19) 0.6967(3) -0.15598(15)
N11D N -0.0347(2) 0.5841(4) -0.19546(18)
H15D H -0.0606 0.5742 -0.2302
H16D H -0.0017 0.5250 -0.1849
N12D N 0.0315(3) 1.3373(5) -0.1238(3)
N13G N -0.2363(2) 1.5233(4) -0.15382(19)
N13D N 0.2637(2) 0.9767(4) 0.15382(19)
N14D N -0.03138(18) 1.1563(3) -0.07714(16)
N15G N -0.2097(2) 1.4270(4) -0.12973(18)
N16D N 0.00128(18) 1.2492(3) -0.09995(19)
N17G N -0.1817(3) 1.3362(5) -0.1054(3)
N17C N 0.1817(3) 0.6638(5) 0.1054(3)
loop_
_geom_bond_atom_site_label_1
_geom_bond_atom_site_label_2
_geom_bond_site_symmetry_1
_geom_bond_site_symmetry_2
Cd1 N3 1_555 1_555
Cd2 N1 1_555 1_555
C1 H1 1_555 1_555
H2 C1 1_555 1_555
H3 C1 1_555 1_555
C2 H4 1_555 1_555
H5 C2 1_555 1_555
H6 C2 1_555 1_555
C3 C1 1_555 1_555
C4 C2 1_555 1_555
C5 C8 1_555 1_555
C6 C7 1_555 1_555
C7 H7 1_555 1_555
H8 C7 1_555 1_555
H9 C7 1_555 1_555
C8 H10 1_555 1_555
H11 C8 1_555 1_555
H12 C8 1_555 1_555
N1 C5 1_555 1_555
N2 N5 1_555 1_555
N3 C6 1_555 1_555
N4 Cd1 1_555 1_555
N5 N4 1_555 1_555
N6 C5 1_555 1_555
N7 Cd2 1_555 1_555
N8 C4 1_555 1_555
N9 N6 1_555 1_555
H13 N9 1_555 1_555
H14 N9 1_555 1_555
N10 C3 1_555 1_555
N11 N10 1_555 1_555
H15 N11 1_555 1_555
H16 N11 1_555 1_555
N12 N16 1_555 1_555
N13 Cd1 1_555 1_555
N14 Cd2 1_555 1_555
N15 N13 1_555 1_555
N16 N14 1_555 1_555
N17 N15 1_555 1_555
Cd1D N8 1_555 1_555
Cd1G N17 1_555 1_555
Cd1G_2 N13G 1_555 1_555
C1D H1D 1_555 1_555
H2D C1D 1_555 1_555
H3D C1D 1_555 1_555
C2D H4D 1_555 1_555
H5D C2D 1_555 1_555
H6D C2D 1_555 1_555
C3D C1D 1_555 1_555
C4D C2D 1_555 1_555
C5D C8D 1_555 1_555
C6D C7D 1_555 1_555
C7D H7D 1_555 1_555
H8D C7D 1_555 1_555
H9D C7D 1_555 1_555
C8D H10D 1_555 1_555
H11D C8D 1_555 1_555
H12D C8D 1_555 1_555
N1D Cd2 1_555 1_555
N2D N5D 1_555 1_555
N3D Cd1D 1_555 1_555
N4D Cd1D 1_555 1_555
N5D N4D 1_555 1_555
N6D C5D 1_555 1_555
N7D Cd2 1_555 1_555
N8D Cd1 1_555 1_555
N9D N6D 1_555 1_555
H13D N9D 1_555 1_555
H14D N9D 1_555 1_555
N10D C3D 1_555 1_555
N11D N10D 1_555 1_555
H15D N11D 1_555 1_555
H16D N11D 1_555 1_555
N12D N16D 1_555 1_555
N13G N15G 1_555 1_555
N13D Cd1D 1_555 1_555
N14D Cd1 1_555 1_555
N15G N17G 1_555 1_555
N16D N14D 1_555 1_555
N17G Cd1 1_555 1_555
N17C Cd1D 1_555 1_555
Cd2 N14D 1_555 1_555
C3 N7 1_555 1_555
C4 N10 1_555 1_555
C6 N6 1_555 1_555
N1 N3 1_555 1_555
N7 N8 1_555 1_555
N14 Cd1D 1_555 1_555
C3D N7D 1_555 1_555
C4D N8D 1_555 1_555
C4D N10D 1_555 1_555
C5D N1D 1_555 1_555
C6D N3D 1_555 1_555
C6D N6D 1_555 1_555
N1D N3D 1_555 1_555
N7D N8D 1_555 1_555

#END
