
#######################################################################
#
#                 Cambridge Crystallographic Data Centre
#                                CCDC 
#
#######################################################################
#
# If this CIF has been generated from an entry in the Cambridge 
# Structural Database, then it will include bibliographic, chemical, 
# crystal, experimental, refinement or atomic coordinate data resulting 
# from the CCDC's data processing and validation procedures.
#
#######################################################################

data_PEPXOY
_symmetry_cell_setting           monoclinic
_symmetry_space_group_name_H-M   'P 21/c'
_symmetry_Int_Tables_number      14
_space_group_name_Hall           '-P 2ybc'
loop_
_symmetry_equiv_pos_site_id
_symmetry_equiv_pos_as_xyz
1 x,y,z
2 -x,1/2+y,1/2-z
3 -x,-y,-z
4 x,1/2-y,1/2+z
_cell_length_a                   7.8756(9)
_cell_length_b                   15.9779(19)
_cell_length_c                   8.0850(10)
_cell_angle_alpha                90
_cell_angle_beta                 114.554(2)
_cell_angle_gamma                90
_cell_volume                     925.379
loop_
_atom_site_label
_atom_site_type_symbol
_atom_site_fract_x
_atom_site_fract_y
_atom_site_fract_z
Cd1 Cd 0.349657(18) 0.440733(8) 0.077938(17)
C1 C 0.4772(2) 0.39418(11) 0.4848(2)
C2 C 0.5767(2) 0.36572(11) 0.6612(2)
C3 C 0.7591(3) 0.33771(13) 0.7106(3)
C4 C 0.8330(3) 0.33822(14) 0.5834(3)
C5 C 0.7264(3) 0.36788(12) 0.4113(3)
C6 C 0.2777(2) 0.42577(11) 0.4211(2)
C7 C 0.4951(3) 0.36171(11) 0.7998(2)
N1 N 0.5519(2) 0.39579(10) 0.3629(2)
O1 O 0.2000(2) 0.45420(10) 0.25998(19)
O2 O 0.2045(2) 0.42216(11) 0.5281(2)
O3 O 0.52254(19) 0.42378(8) 0.90650(18)
O4 O 0.4169(2) 0.29594(9) 0.8096(2)
O5 O 0.1397(2) 0.48667(11) -0.1865(2)
O6 O 0.2240(2) 0.30538(10) 0.0136(3)
H1 H 0.831(4) 0.3258(16) 0.826(4)
H2 H 0.952(4) 0.3200(16) 0.613(4)
H3 H 0.775(3) 0.3679(14) 0.324(3)
H4 H 0.151(4) 0.4647(19) -0.271(4)
H5 H 0.048(4) 0.502(2) -0.207(4)
H6 H 0.266(4) 0.299(2) -0.052(5)
H7 H 0.275(4) 0.279(2) 0.105(5)
Cd1_2 Cd 0.349657(18) 0.440733(8) 1.077938(17)
Cd1B Cd 0.650343(18) 0.559267(8) 0.922062(17)
O3_2 O 0.52254(19) 0.42378(8) -0.09350(18)
O3B O 0.47746(19) 0.57622(8) 0.09350(18)
loop_
_geom_bond_atom_site_label_1
_geom_bond_atom_site_label_2
_geom_bond_site_symmetry_1
_geom_bond_site_symmetry_2
Cd1 N1 1_555 1_555
C1 C2 1_555 1_555
C2 C3 1_555 1_555
C3 C4 1_555 1_555
C4 C5 1_555 1_555
C5 N1 1_555 1_555
C6 C1 1_555 1_555
C7 C2 1_555 1_555
N1 C1 1_555 1_555
O1 Cd1 1_555 1_555
O2 C6 1_555 1_555
O3 C7 1_555 1_555
O4 C7 1_555 1_555
O5 Cd1 1_555 1_555
O6 Cd1 1_555 1_555
H1 C3 1_555 1_555
H2 C4 1_555 1_555
H3 C5 1_555 1_555
H4 O5 1_555 1_555
H5 O5 1_555 1_555
H6 O6 1_555 1_555
H7 O6 1_555 1_555
Cd1_2 O3 1_555 1_555
Cd1B O3 1_555 1_555
O3_2 Cd1 1_555 1_555
O3B Cd1 1_555 1_555
C6 O1 1_555 1_555

#END
