
#######################################################################
#
#                 Cambridge Crystallographic Data Centre
#                                CCDC 
#
#######################################################################
#
# If this CIF has been generated from an entry in the Cambridge 
# Structural Database, then it will include bibliographic, chemical, 
# crystal, experimental, refinement or atomic coordinate data resulting 
# from the CCDC's data processing and validation procedures.
#
#######################################################################

data_PEPXUE
_symmetry_cell_setting           triclinic
_symmetry_space_group_name_H-M   'P -1'
_symmetry_Int_Tables_number      2
_space_group_name_Hall           '-P 1'
loop_
_symmetry_equiv_pos_site_id
_symmetry_equiv_pos_as_xyz
1 x,y,z
2 -x,-y,-z
_cell_length_a                   7.4469(12)
_cell_length_b                   12.569(2)
_cell_length_c                   17.759(3)
_cell_angle_alpha                96.125(3)
_cell_angle_beta                 99.935(2)
_cell_angle_gamma                100.517(3)
_cell_volume                     1593.34
loop_
_atom_site_label
_atom_site_type_symbol
_atom_site_fract_x
_atom_site_fract_y
_atom_site_fract_z
La1 La 0.11955(7) 0.38730(4) 0.93100(3)
Zn1 Zn 0.5000 0.0000 1.0000
Zn2 Zn -0.11965(16) -0.46118(12) 0.72379(7)
C1 C 0.4711(12) 0.4200(7) 1.0863(5)
C2 C 0.5038(12) 0.3118(7) 1.1102(5)
C3 C 0.5725(14) 0.3133(8) 1.1876(5)
H1 H 0.6001 0.3784 1.2215
C4 C 0.6000(15) 0.2166(9) 1.2145(5)
H2 H 0.6406 0.2155 1.2669
C5 C 0.5665(15) 0.1226(8) 1.1627(6)
H3 H 0.5864 0.0580 1.1806
C6 C 0.4731(13) 0.2139(7) 1.0621(5)
C7 C 0.4049(12) 0.2018(7) 0.9731(5)
C8 C 0.0303(12) -0.3916(8) 0.8908(5)
C9 C -0.0053(13) -0.2852(8) 0.8647(6)
C10 C 0.0272(13) -0.1862(9) 0.9085(5)
C11 C -0.0084(17) -0.0971(9) 0.8702(7)
H4 H 0.0181 -0.0279 0.8990
C12 C -0.0763(19) -0.1072(10) 0.7967(8)
H5 H -0.1020 -0.0474 0.7734
C13 C -0.1086(18) -0.2097(11) 0.7547(7)
H6 H -0.1567 -0.2181 0.7020
C14 C -0.5040(16) -0.5542(12) 0.7067(7)
C15 C -0.5029(15) -0.4818(10) 0.6467(5)
C16 C -0.6675(16) -0.4605(12) 0.6049(6)
C17 C -0.6465(18) -0.3965(14) 0.5502(7)
H7 H -0.7509 -0.3781 0.5220
C18 C -0.473(2) -0.3570(14) 0.5348(7)
H8 H -0.4595 -0.3144 0.4956
C19 C -0.3172(17) -0.3828(13) 0.5797(6)
H9 H -0.1990 -0.3583 0.5699
C20 C 0.0945(13) -0.1626(8) 0.9974(6)
C21 C -0.8596(15) -0.5007(12) 0.6215(6)
N1 N 0.5063(11) 0.1217(6) 1.0878(4)
N2 N -0.0739(12) -0.2983(7) 0.7863(5)
N3 N -0.3366(12) -0.4394(8) 0.6335(5)
O1 O 0.3051(9) 0.4282(6) 1.0607(4)
O2 O -0.0140(10) -0.2084(6) 1.0372(4)
O3 O -0.2402(10) 0.3472(6) 0.8768(4)
O4 O 0.0133(9) -0.4735(6) 0.8387(4)
O5 O 0.0765(9) -0.4015(6) 0.9593(3)
O6 O 0.6102(9) 0.4952(5) 1.0965(4)
O7 O 0.3878(9) 0.2862(5) 0.9435(3)
O8 O 0.0938(18) 0.2998(10) 0.7984(5)
H10 H 0.0167 0.2421 0.7902
H11 H 0.0251 0.3134 0.7677
O9 O 0.3827(10) 0.1076(5) 0.9356(4)
O10 O -0.3503(13) -0.5443(9) 0.7563(6)
O11 O -0.137(2) -0.6404(13) 0.6770(9)
O12 O -0.6495(12) -0.6149(10) 0.7123(5)
O13 O -0.9010(11) -0.4410(9) 0.6718(5)
O14 O -0.9558(14) -0.5829(9) 0.5817(5)
O15 O 0.2368(11) -0.0931(7) 1.0242(4)
La1A La 0.88045(7) -0.38730(4) 1.06900(3)
La1A_2 La -0.11955(7) -0.38730(4) 1.06900(3)
La1_2 La 0.11955(7) -0.61270(4) 0.93100(3)
La1A_3 La 0.88045(7) 0.61270(4) 1.06900(3)
La1_3 La 1.11955(7) 0.38730(4) 0.93100(3)
Zn2A Zn 1.11965(16) 0.46118(12) 1.27621(7)
Zn2_2 Zn -1.11965(16) -0.46118(12) 0.72379(7)
Zn2_3 Zn 0.88035(16) -0.46118(12) 0.72379(7)
C1A C 0.5289(12) -0.4200(7) 0.9137(5)
C2A C 0.4962(12) -0.3118(7) 0.8898(5)
C3A C 0.4275(14) -0.3133(8) 0.8124(5)
H1A H 0.3999 -0.3784 0.7785
C4A C 0.4000(15) -0.2166(9) 0.7855(5)
H2A H 0.3594 -0.2155 0.7331
C5A C 0.4335(15) -0.1226(8) 0.8373(6)
H3A H 0.4136 -0.0580 0.8194
C6A C 0.5269(13) -0.2139(7) 0.9379(5)
C7A C 0.5951(12) -0.2018(7) 1.0269(5)
C8A C 0.9697(12) 0.3916(8) 1.1092(5)
C9A C 1.0053(13) 0.2852(8) 1.1353(6)
C10A C 0.9728(13) 0.1862(9) 1.0915(5)
C11A C 1.0084(17) 0.0971(9) 1.1298(7)
H4A H 0.9819 0.0279 1.1010
C12A C 1.0763(19) 0.1072(10) 1.2033(8)
H5A H 1.1020 0.0474 1.2266
C13A C 1.1086(18) 0.2097(11) 1.2453(7)
H6A H 1.1567 0.2181 1.2980
C14_2 C 0.4960(16) -0.5542(12) 0.7067(7)
C15_2 C 0.4971(15) -0.4818(10) 0.6467(5)
C16_2 C 0.3325(16) -0.4605(12) 0.6049(6)
C17_2 C 0.3535(18) -0.3965(14) 0.5502(7)
H7_2 H 0.2491 -0.3781 0.5220
C18_2 C 0.527(2) -0.3570(14) 0.5348(7)
H8_2 H 0.5405 -0.3144 0.4956
C19_2 C 0.6828(17) -0.3828(13) 0.5797(6)
H9_2 H 0.8010 -0.3583 0.5699
C20A C 0.9055(13) 0.1626(8) 1.0026(6)
C21_2 C 0.1404(15) -0.5007(12) 0.6215(6)
N1A N 0.4937(11) -0.1217(6) 0.9122(4)
N2A N 1.0739(12) 0.2983(7) 1.2137(5)
N3_2 N 0.6634(12) -0.4394(8) 0.6335(5)
N3A N 1.3366(12) 0.4394(8) 1.3665(5)
O1A O 0.6949(9) -0.4282(6) 0.9393(4)
O2A O 1.0140(10) 0.2084(6) 0.9628(4)
O2A_2 O 0.0140(10) 0.2084(6) 0.9628(4)
O2_2 O 0.9860(10) -0.2084(6) 1.0372(4)
O3A O 1.2402(10) -0.3472(6) 1.1232(4)
O4A O 0.9867(9) 0.4735(6) 1.1613(4)
O4_2 O 0.0133(9) 0.5265(6) 0.8387(4)
O4A_2 O 0.9867(9) -0.5265(6) 1.1613(4)
O5A O 0.9235(9) 0.4015(6) 1.0407(3)
O5_2 O 0.0765(9) 0.5985(6) 0.9593(3)
O5A_2 O -0.0765(9) 0.4015(6) 1.0407(3)
O5_3 O 1.0765(9) -0.4015(6) 0.9593(3)
O5A_3 O 0.9235(9) -0.5985(6) 1.0407(3)
O6A O 0.3898(9) -0.4952(5) 0.9035(4)
O6A_2 O 0.3898(9) 0.5048(5) 0.9035(4)
O6_2 O 0.6102(9) -0.5048(5) 1.0965(4)
O7A O 0.6122(9) -0.2862(5) 1.0565(3)
O8A O 0.9062(18) -0.2998(10) 1.2016(5)
H10A H 0.9833 -0.2421 1.2098
H11A H 0.9749 -0.3134 1.2323
O9A O 0.6173(10) -0.1076(5) 1.0644(4)
O10_2 O 0.6497(13) -0.5443(9) 0.7563(6)
O10A O 1.3503(13) 0.5443(9) 1.2437(6)
O11A O 1.137(2) 0.6404(13) 1.3230(9)
O12_2 O 0.3505(12) -0.6149(10) 0.7123(5)
O13_2 O 0.0990(11) -0.4410(9) 0.6718(5)
O13A O 0.9010(11) 0.4410(9) 1.3282(5)
O14_2 O 0.0442(14) -0.5829(9) 0.5817(5)
O15A O 0.7632(11) 0.0931(7) 0.9758(4)
O16 O 0.728(3) 0.1039(14) 0.8044(10)
O17 O 0.370(3) 0.161(2) 0.7800(8)
O18 O 0.862(4) 0.790(3) 0.4284(13)
O19 O 0.449(5) 0.811(4) 0.3725(19)
loop_
_geom_bond_atom_site_label_1
_geom_bond_atom_site_label_2
_geom_bond_site_symmetry_1
_geom_bond_site_symmetry_2
La1 O1 1_555 1_555
Zn1 N1 1_555 1_555
Zn2 N2 1_555 1_555
C1 C2 1_555 1_555
C2 C3 1_555 1_555
C3 H1 1_555 1_555
C4 C3 1_555 1_555
H2 C4 1_555 1_555
C5 C4 1_555 1_555
H3 C5 1_555 1_555
C6 C2 1_555 1_555
C7 C6 1_555 1_555
C8 C9 1_555 1_555
C9 C10 1_555 1_555
C10 C11 1_555 1_555
C11 H4 1_555 1_555
C12 C11 1_555 1_555
H5 C12 1_555 1_555
C13 C12 1_555 1_555
H6 C13 1_555 1_555
C14 C15 1_555 1_555
C15 C16 1_555 1_555
C16 C17 1_555 1_555
C17 H7 1_555 1_555
C18 C17 1_555 1_555
H8 C18 1_555 1_555
C19 C18 1_555 1_555
H9 C19 1_555 1_555
C20 C10 1_555 1_555
C21 C16 1_555 1_555
N1 C5 1_555 1_555
N2 C9 1_555 1_555
N3 Zn2 1_555 1_555
O1 C1 1_555 1_555
O2 C20 1_555 1_555
O3 La1 1_555 1_555
O4 Zn2 1_555 1_555
O5 C8 1_555 1_555
O6 C1 1_555 1_555
O7 La1 1_555 1_555
O8 La1 1_555 1_555
H10 O8 1_555 1_555
H11 O8 1_555 1_555
O9 Zn1 1_555 1_555
O10 Zn2 1_555 1_555
O11 Zn2 1_555 1_555
O12 C14 1_555 1_555
O13 C21 1_555 1_555
O14 C21 1_555 1_555
O15 Zn1 1_555 1_555
La1A O1A 1_555 1_555
La1A_2 O2 1_555 1_555
La1_2 O4 1_555 1_555
La1A_3 O6 1_555 1_555
La1_3 O2A 1_555 1_555
Zn2A N2A 1_555 1_555
Zn2_2 O13 1_555 1_555
Zn2_3 N3_2 1_555 1_555
C1A C2A 1_555 1_555
C2A C3A 1_555 1_555
C3A H1A 1_555 1_555
C4A C3A 1_555 1_555
H2A C4A 1_555 1_555
C5A C4A 1_555 1_555
H3A C5A 1_555 1_555
C6A C2A 1_555 1_555
C7A C6A 1_555 1_555
C8A C9A 1_555 1_555
C9A C10A 1_555 1_555
C10A C11A 1_555 1_555
C11A H4A 1_555 1_555
C12A C11A 1_555 1_555
H5A C12A 1_555 1_555
C13A C12A 1_555 1_555
H6A C13A 1_555 1_555
C14_2 C15_2 1_555 1_555
C15_2 C16_2 1_555 1_555
C16_2 C17_2 1_555 1_555
C17_2 H7_2 1_555 1_555
C18_2 C17_2 1_555 1_555
H8_2 C18_2 1_555 1_555
C19_2 C18_2 1_555 1_555
H9_2 C19_2 1_555 1_555
C20A C10A 1_555 1_555
C21_2 C16_2 1_555 1_555
N1A Zn1 1_555 1_555
N2A C9A 1_555 1_555
N3_2 C15_2 1_555 1_555
N3A Zn2A 1_555 1_555
O1A C1A 1_555 1_555
O2A C20A 1_555 1_555
O2A_2 La1 1_555 1_555
O2_2 La1A 1_555 1_555
O3A La1A 1_555 1_555
O4A La1A_3 1_555 1_555
O4_2 La1 1_555 1_555
O4A_2 La1A 1_555 1_555
O5A La1A_3 1_555 1_555
O5_2 La1 1_555 1_555
O5A_2 La1 1_555 1_555
O5_3 La1A 1_555 1_555
O5A_3 La1A 1_555 1_555
O6A La1_2 1_555 1_555
O6A_2 La1 1_555 1_555
O6_2 La1A 1_555 1_555
O7A La1A 1_555 1_555
O8A La1A 1_555 1_555
H10A O8A 1_555 1_555
H11A O8A 1_555 1_555
O9A Zn1 1_555 1_555
O10_2 Zn2_3 1_555 1_555
O10A Zn2A 1_555 1_555
O11A Zn2A 1_555 1_555
O12_2 C14_2 1_555 1_555
O13_2 Zn2 1_555 1_555
O13A Zn2A 1_555 1_555
O14_2 C21_2 1_555 1_555
O15A Zn1 1_555 1_555
C6 N1 1_555 1_555
C7 O7 1_555 1_555
C7 O9 1_555 1_555
C8 O4 1_555 1_555
C13 N2 1_555 1_555
C14 O10 1_555 1_555
C15 N3 1_555 1_555
C19 N3 1_555 1_555
C20 O15 1_555 1_555
O5 La1A_2 1_555 1_555
O5 La1_2 1_555 1_555
La1_3 O5A 1_555 1_555
Zn2A O4A 1_555 1_555
C1A O6A 1_555 1_555
C5A N1A 1_555 1_555
C6A N1A 1_555 1_555
C7A O7A 1_555 1_555
C7A O9A 1_555 1_555
C8A O4A 1_555 1_555
C8A O5A 1_555 1_555
C13A N2A 1_555 1_555
C14_2 O10_2 1_555 1_555
C19_2 N3_2 1_555 1_555
C20A O15A 1_555 1_555
C21_2 O13_2 1_555 1_555

#END
