
#######################################################################
#
#                 Cambridge Crystallographic Data Centre
#                                CCDC 
#
#######################################################################
#
# If this CIF has been generated from an entry in the Cambridge 
# Structural Database, then it will include bibliographic, chemical, 
# crystal, experimental, refinement or atomic coordinate data resulting 
# from the CCDC's data processing and validation procedures.
#
#######################################################################

data_PEPZOA
_symmetry_cell_setting           orthorhombic
_symmetry_space_group_name_H-M   'P b c a'
_symmetry_Int_Tables_number      61
_space_group_name_Hall           '-P 2ac 2ab'
loop_
_symmetry_equiv_pos_site_id
_symmetry_equiv_pos_as_xyz
1 x,y,z
2 1/2-x,-y,1/2+z
3 1/2+x,1/2-y,-z
4 -x,1/2+y,1/2-z
5 -x,-y,-z
6 1/2+x,y,1/2-z
7 1/2-x,1/2+y,z
8 x,1/2-y,1/2+z
_cell_length_a                   24.4696(11)
_cell_length_b                   11.7515(6)
_cell_length_c                   41.0003(19)
_cell_angle_alpha                90
_cell_angle_beta                 90
_cell_angle_gamma                90
_cell_volume                     11789.8
loop_
_atom_site_label
_atom_site_type_symbol
_atom_site_fract_x
_atom_site_fract_y
_atom_site_fract_z
C1 C 0.0956(3) -0.2897(6) 0.36948(19)
C2 C 0.1036(3) -0.3033(7) 0.27606(19)
C3 C 0.0858(3) -0.4602(7) 0.32604(18)
C4 C 0.0204(4) -0.2782(6) 0.3209(2)
C5 C 0.1167(4) -0.1339(8) 0.32061(19)
C6 C 0.1766(4) -0.3289(7) 0.3271(2)
C7 C 0.0935(3) -0.2691(6) 0.6199(2)
C8 C 0.1068(4) -0.2396(7) 0.5263(2)
C9 C 0.1118(4) -0.4175(8) 0.5690(2)
C10 C 0.0218(4) -0.2670(6) 0.5689(2)
C11 C 0.0949(4) -0.0930(8) 0.58017(19)
C12 C 0.1794(4) -0.2286(8) 0.5766(2)
C13 C 0.2123(3) -0.2257(6) 0.4205(2)
H1 H 0.1986 -0.2439 0.3984
H2 H 0.2461 -0.1799 0.4182
C14 C 0.1517(3) -0.0532(7) 0.42330(19)
H3 H 0.1423 -0.0673 0.4002
H4 H 0.1811 0.0046 0.4241
C15 C 0.1024(3) -0.0110(7) 0.4414(2)
H5 H 0.1125 0.0087 0.4640
H6 H 0.0880 0.0582 0.4306
C16 C 0.0153(4) -0.0791(8) 0.4652(2)
H7 H -0.0009 -0.0034 0.4608
H8 H 0.0303 -0.0785 0.4876
C17 C -0.0284(4) -0.1692(8) 0.4626(2)
H9 H -0.0390 -0.1762 0.4393
H10 H -0.0610 -0.1422 0.4746
C18 C -0.0137(4) -0.2893(8) 0.4753(2)
H11 H 0.0003 -0.2835 0.4979
H12 H -0.0469 -0.3374 0.4757
C19 C 0.0441(4) -0.4577(7) 0.4659(2)
H13 H 0.0138 -0.5118 0.4621
H14 H 0.0517 -0.4553 0.4896
C20 C 0.0944(3) -0.4974(7) 0.4479(2)
H15 H 0.1063 -0.5724 0.4563
H16 H 0.0866 -0.5046 0.4243
C21 C 0.1882(3) -0.4284(7) 0.4340(2)
H17 H 0.2069 -0.4988 0.4412
H18 H 0.1789 -0.4366 0.4106
C22 C 0.2537(3) -0.3223(7) 0.4670(2)
C23 C 0.2962(3) -0.4016(7) 0.5099(2)
C24 C 0.3025(3) -0.2135(7) 0.5010(2)
C25 C 0.1891(3) -0.0988(7) 0.1855(2)
H19 H 0.1793 -0.0890 0.1622
H20 H 0.2090 -0.0300 0.1928
C26 C 0.0968(4) -0.0229(7) 0.2015(2)
H21 H 0.0897 -0.0098 0.1780
H22 H 0.1105 0.0489 0.2111
C27 C 0.0452(4) -0.0595(8) 0.2183(2)
H23 H 0.0516 -0.0636 0.2421
H24 H 0.0162 -0.0024 0.2143
C28 C -0.0145(4) -0.2264(8) 0.2264(2)
H25 H -0.0464 -0.1750 0.2285
H26 H 0.0005 -0.2399 0.2484
C29 C -0.0334(4) -0.3402(9) 0.2117(2)
H27 H -0.0659 -0.3664 0.2239
H28 H -0.0451 -0.3264 0.1889
C30 C 0.0087(4) -0.4366(8) 0.2115(2)
H29 H 0.0229 -0.4469 0.2339
H30 H -0.0097 -0.5082 0.2051
C31 C 0.0943(4) -0.5075(7) 0.1892(2)
H31 H 0.0788 -0.5751 0.1781
H32 H 0.1038 -0.5292 0.2118
C32 C 0.1455(3) -0.4684(7) 0.1712(2)
H33 H 0.1735 -0.5293 0.1714
H34 H 0.1367 -0.4496 0.1483
C33 C 0.2085(3) -0.3020(6) 0.17082(19)
H35 H 0.1946 -0.2800 0.1490
H36 H 0.2412 -0.3505 0.1677
C34 C 0.2541(4) -0.2132(7) 0.2172(2)
C35 C 0.3002(3) -0.3284(7) 0.25146(19)
C36 C 0.3012(4) -0.1392(7) 0.2594(2)
Cs1 Cs 0.15791(2) -0.77428(5) 0.347680(14)
Cs2 Cs 0.33998(3) -0.26996(5) 0.598530(16)
Fe1 Fe 0.09900(5) -0.29752(9) 0.32288(3)
Fe2 Fe 0.10049(5) -0.25540(9) 0.57307(3)
N1 N 0.0930(3) -0.2829(6) 0.39780(18)
N2 N 0.1049(3) -0.3001(6) 0.24758(17)
N3 N 0.0800(3) -0.5572(6) 0.32839(18)
N4 N -0.0268(3) -0.2707(6) 0.3210(2)
N5 N 0.1291(3) -0.0409(6) 0.31966(18)
N6 N 0.2225(3) -0.3505(7) 0.3300(2)
N7 N 0.0913(3) -0.2733(6) 0.64784(18)
N8 N 0.1090(3) -0.2314(6) 0.49826(18)
N9 N 0.1207(4) -0.5144(7) 0.5682(2)
N10 N -0.0262(3) -0.2679(6) 0.5675(2)
N11 N 0.0946(3) 0.0034(6) 0.58666(18)
N12 N 0.2244(4) -0.2037(8) 0.5793(2)
N13 N 0.2244(3) -0.3317(5) 0.43838(15)
N14 N 0.1705(3) -0.1596(5) 0.43872(15)
H37 H 0.1855 -0.1405 0.4588
N15 N 0.0602(3) -0.1007(6) 0.44150(17)
H38 H 0.0446 -0.1018 0.4208
N16 N 0.0283(3) -0.3433(6) 0.45433(17)
H39 H 0.0127 -0.3526 0.4338
N17 N 0.1373(3) -0.4115(6) 0.45346(16)
H40 H 0.1473 -0.4171 0.4753
N18 N 0.2613(3) -0.4166(5) 0.48429(16)
N19 N 0.3194(3) -0.3044(5) 0.51954(17)
N20 N 0.2733(3) -0.2182(6) 0.47397(17)
N21 N 0.3099(3) -0.4953(6) 0.52661(18)
H41 H 0.3330 -0.4907 0.5430
H42 H 0.2957 -0.5615 0.5212
N22 N 0.3188(3) -0.1102(5) 0.51036(17)
H43 H 0.3100 -0.0501 0.4987
H44 H 0.3384 -0.1022 0.5282
N23 N 0.2235(3) -0.1990(5) 0.18947(16)
N24 N 0.1381(3) -0.1143(5) 0.20559(16)
H45 H 0.1487 -0.1136 0.2274
N25 N 0.0268(3) -0.1719(6) 0.20632(17)
H46 H 0.0108 -0.1592 0.1861
N26 N 0.0543(3) -0.4164(6) 0.18956(17)
H47 H 0.0399 -0.4117 0.1686
N27 N 0.1664(3) -0.3659(5) 0.18850(16)
H48 H 0.1809 -0.3888 0.2084
N28 N 0.2703(3) -0.3189(5) 0.22424(15)
N29 N 0.3201(3) -0.2402(6) 0.26929(19)
N30 N 0.2655(3) -0.1193(5) 0.23501(16)
N31 N 0.3126(3) -0.4342(5) 0.26099(16)
H49 H 0.3013 -0.4929 0.2495
H50 H 0.3322 -0.4451 0.2787
N32 N 0.3188(3) -0.0478(6) 0.27548(17)
H51 H 0.3419 -0.0555 0.2918
H52 H 0.3074 0.0204 0.2698
Ni1 Ni 0.09961(5) -0.25366(8) 0.44778(2)
Ni2 Ni 0.09667(4) -0.26697(8) 0.19770(2)
O1 O 0.3566(3) -0.2248(7) 0.66982(18)
O2 O 0.1427(4) -0.7428(7) 0.4193(2)
O4 O 0.2482(3) -0.5793(6) 0.35534(17)
O5 O 0.0461(3) -0.8647(6) 0.36994(17)
O6 O 0.2502(3) -0.4730(7) 0.6074(2)
O7 O 0.4557(4) -0.1478(8) 0.60756(19)
Cs1_2 Cs 0.15791(2) 0.22572(5) 0.347680(14)
Cs1F Cs 0.34209(2) -0.27428(5) 0.347680(14)
Cs2F Cs 0.16002(3) 0.23004(5) 0.598530(16)
Cs2F_2 Cs 0.16002(3) -0.76996(5) 0.598530(16)
N5_2 N 0.1291(3) -1.0409(6) 0.31966(18)
N6F N 0.2775(3) -0.8505(7) 0.3300(2)
N7G N 0.0913(3) -0.2267(6) 0.14784(18)
N9F N 0.3793(4) -0.0144(7) 0.5682(2)
N11F N 0.4054(3) -0.4966(6) 0.58666(18)
N29F N 0.1799(3) -0.7402(6) 0.26929(19)
Ni2G Ni 0.09667(4) -0.23303(8) 0.69770(2)
O3 O 0.4965(3) -0.4228(6) 0.62384(16)
loop_
_geom_bond_atom_site_label_1
_geom_bond_atom_site_label_2
_geom_bond_site_symmetry_1
_geom_bond_site_symmetry_2
C1 Fe1 1_555 1_555
C2 Fe1 1_555 1_555
C3 Fe1 1_555 1_555
C4 Fe1 1_555 1_555
C5 Fe1 1_555 1_555
C6 Fe1 1_555 1_555
C7 Fe2 1_555 1_555
C8 Fe2 1_555 1_555
C9 Fe2 1_555 1_555
C10 Fe2 1_555 1_555
C11 Fe2 1_555 1_555
C12 Fe2 1_555 1_555
C13 H1 1_555 1_555
H2 C13 1_555 1_555
C14 H3 1_555 1_555
H4 C14 1_555 1_555
C15 C14 1_555 1_555
H5 C15 1_555 1_555
H6 C15 1_555 1_555
C16 H7 1_555 1_555
H8 C16 1_555 1_555
C17 C16 1_555 1_555
H9 C17 1_555 1_555
H10 C17 1_555 1_555
C18 C17 1_555 1_555
H11 C18 1_555 1_555
H12 C18 1_555 1_555
C19 H13 1_555 1_555
H14 C19 1_555 1_555
C20 C19 1_555 1_555
H15 C20 1_555 1_555
H16 C20 1_555 1_555
C21 H17 1_555 1_555
H18 C21 1_555 1_555
C22 N13 1_555 1_555
C23 N18 1_555 1_555
C24 N19 1_555 1_555
C25 H19 1_555 1_555
H20 C25 1_555 1_555
C26 H21 1_555 1_555
H22 C26 1_555 1_555
C27 C26 1_555 1_555
H23 C27 1_555 1_555
H24 C27 1_555 1_555
C28 H25 1_555 1_555
H26 C28 1_555 1_555
C29 C28 1_555 1_555
H27 C29 1_555 1_555
H28 C29 1_555 1_555
C30 C29 1_555 1_555
H29 C30 1_555 1_555
H30 C30 1_555 1_555
C31 H31 1_555 1_555
H32 C31 1_555 1_555
C32 C31 1_555 1_555
H33 C32 1_555 1_555
H34 C32 1_555 1_555
C33 H35 1_555 1_555
H36 C33 1_555 1_555
C34 N23 1_555 1_555
C35 N28 1_555 1_555
C36 N29 1_555 1_555
Cs1 N3 1_555 1_555
Cs2 N12 1_555 1_555
N1 C1 1_555 1_555
N2 C2 1_555 1_555
N3 C3 1_555 1_555
N4 C4 1_555 1_555
N5 C5 1_555 1_555
N6 C6 1_555 1_555
N7 C7 1_555 1_555
N8 C8 1_555 1_555
N9 C9 1_555 1_555
N10 C10 1_555 1_555
N11 C11 1_555 1_555
N12 C12 1_555 1_555
N13 C13 1_555 1_555
N14 C13 1_555 1_555
H37 N14 1_555 1_555
N15 C15 1_555 1_555
H38 N15 1_555 1_555
N16 C18 1_555 1_555
H39 N16 1_555 1_555
N17 C20 1_555 1_555
H40 N17 1_555 1_555
N18 C22 1_555 1_555
N19 C23 1_555 1_555
N20 C22 1_555 1_555
N21 C23 1_555 1_555
H41 N21 1_555 1_555
H42 N21 1_555 1_555
N22 C24 1_555 1_555
H43 N22 1_555 1_555
H44 N22 1_555 1_555
N23 C25 1_555 1_555
N24 C25 1_555 1_555
H45 N24 1_555 1_555
N25 C27 1_555 1_555
H46 N25 1_555 1_555
N26 C30 1_555 1_555
H47 N26 1_555 1_555
N27 C32 1_555 1_555
H48 N27 1_555 1_555
N28 C34 1_555 1_555
N29 C35 1_555 1_555
N30 C34 1_555 1_555
N31 C35 1_555 1_555
H49 N31 1_555 1_555
H50 N31 1_555 1_555
N32 C36 1_555 1_555
H51 N32 1_555 1_555
H52 N32 1_555 1_555
Ni1 N1 1_555 1_555
Ni2 N2 1_555 1_555
O1 Cs2 1_555 1_555
O2 Cs1 1_555 1_555
O4 Cs1 1_555 1_555
O5 Cs1 1_555 1_555
O6 Cs2 1_555 1_555
O7 Cs2 1_555 1_555
Cs1_2 N5 1_555 1_555
Cs1F N6 1_555 1_555
Cs2F N11 1_555 1_555
Cs2F_2 N9 1_555 1_555
N5_2 Cs1 1_555 1_555
N6F Cs1 1_555 1_555
N7G Ni2 1_555 1_555
N9F Cs2 1_555 1_555
N11F Cs2 1_555 1_555
N29F Cs1 1_555 1_555
Ni2G N7 1_555 1_555
C14 N14 1_555 1_555
C16 N15 1_555 1_555
C19 N16 1_555 1_555
C21 N13 1_555 1_555
C21 N17 1_555 1_555
C24 N20 1_555 1_555
C26 N24 1_555 1_555
C28 N25 1_555 1_555
C31 N26 1_555 1_555
C33 N23 1_555 1_555
C33 N27 1_555 1_555
C36 N30 1_555 1_555
Cs2 N19 1_555 1_555
N8 Ni1 1_555 1_555
N14 Ni1 1_555 1_555
N15 Ni1 1_555 1_555
N16 Ni1 1_555 1_555
N17 Ni1 1_555 1_555
N24 Ni2 1_555 1_555
N25 Ni2 1_555 1_555
N26 Ni2 1_555 1_555
N27 Ni2 1_555 1_555
N29 Cs1F 1_555 1_555

#END
