
#######################################################################
#
#                 Cambridge Crystallographic Data Centre
#                                CCDC 
#
#######################################################################
#
# If this CIF has been generated from an entry in the Cambridge 
# Structural Database, then it will include bibliographic, chemical, 
# crystal, experimental, refinement or atomic coordinate data resulting 
# from the CCDC's data processing and validation procedures.
#
#######################################################################

data_PEQHOK
_symmetry_cell_setting           tetragonal
_symmetry_space_group_name_H-M   'P 4/n n c'
_symmetry_Int_Tables_number      126
_space_group_name_Hall           '-P 4a 2bc'
loop_
_symmetry_equiv_pos_site_id
_symmetry_equiv_pos_as_xyz
1 x,y,z
2 1/2-x,1/2-y,z
3 1/2-y,x,z
4 y,1/2-x,z
5 1/2-x,y,1/2-z
6 x,1/2-y,1/2-z
7 y,x,1/2-z
8 1/2-y,1/2-x,1/2-z
9 -x,-y,-z
10 1/2+x,1/2+y,-z
11 1/2+y,-x,-z
12 -y,1/2+x,-z
13 1/2+x,-y,1/2+z
14 -x,1/2+y,1/2+z
15 -y,-x,1/2+z
16 1/2+y,1/2+x,1/2+z
_cell_length_a                   12.5845(5)
_cell_length_b                   12.5845(5)
_cell_length_c                   25.4464(14)
_cell_angle_alpha                90
_cell_angle_beta                 90
_cell_angle_gamma                90
_cell_volume                     4029.94
loop_
_atom_site_label
_atom_site_type_symbol
_atom_site_fract_x
_atom_site_fract_y
_atom_site_fract_z
Co1 Co 0.06672(5) 0.95802(5) 0.56430(2)
O1 O 0.0487(3) 0.8414(3) 0.61459(14)
O2 O 0.0879(3) 0.9794(3) 0.66079(15)
N1 N -0.0291(3) 1.1302(3) 0.50035(14)
N2 N 0.0020(3) 1.1001(3) 0.55096(14)
N3 N 0.0318(4) 1.1945(3) 0.62992(16)
H1 H 0.0498 1.1375 0.6463
H2 H 0.0317 1.2545 0.6461
N4 N -0.0254(3) 1.2749(3) 0.55003(14)
C1 C 0.0711(5) 0.8833(5) 0.6578(2)
C2 C 0.0745(4) 0.8148(4) 0.70572(18)
C3 C 0.0730(6) 0.7059(5) 0.7005(2)
H3 H 0.0709 0.6754 0.6672
C4 C 0.0746(5) 0.6414(4) 0.7449(2)
H4 H 0.0758 0.5679 0.7411
C5 C -0.0436(4) 1.2320(3) 0.50203(16)
H5 H -0.0647 1.2718 0.4731
C6 C 0.0040(3) 1.1899(3) 0.57915(17)
O1E O 0.0487(3) 0.6586(3) 0.88541(14)
O2E O 0.0879(3) 0.5206(3) 0.83921(15)
C1E C 0.0711(5) 0.6167(5) 0.8422(2)
C2E C 0.0745(4) 0.6852(4) 0.79428(18)
C3E C 0.0730(6) 0.7941(5) 0.7995(2)
H3E H 0.0709 0.8246 0.8328
C4E C 0.0746(5) 0.8586(4) 0.7551(2)
H4E H 0.0758 0.9321 0.7589
Co1B Co 0.54198(5) 1.06672(5) 0.56430(2)
N1B N 0.3698(3) 0.9709(3) 0.50035(14)
N2B N 0.3999(3) 1.0020(3) 0.55096(14)
N3B N 0.3055(3) 1.0318(4) 0.62992(16)
H1B H 0.3625 1.0498 0.6463
H2B H 0.2455 1.0317 0.6461
N4B N 0.2251(3) 0.9746(3) 0.55003(14)
C5B C 0.2680(3) 0.9564(4) 0.50203(16)
H5B H 0.2282 0.9353 0.4731
C6B C 0.3101(3) 1.0040(3) 0.57915(17)
Co1C Co -0.04198(5) 1.43328(5) 0.56430(2)
Co1E Co 0.06672(5) 0.54198(5) 0.93570(2)
Co1H Co -0.06672(5) 1.04198(5) 0.43570(2)
Co1J Co 0.45802(5) 0.93328(5) 0.43570(2)
O1B O 0.6586(3) 1.0487(3) 0.61459(14)
N1H N 0.0291(3) 0.8698(3) 0.49965(14)
N1J N 0.6302(3) 1.0291(3) 0.49965(14)
N4A N 0.5254(3) 1.2251(3) 0.55003(14)
loop_
_geom_bond_atom_site_label_1
_geom_bond_atom_site_label_2
_geom_bond_site_symmetry_1
_geom_bond_site_symmetry_2
Co1 O1 1_555 1_555
O1 C1 1_555 1_555
O2 C1 1_555 1_555
N1 N2 1_555 1_555
N2 Co1 1_555 1_555
N3 H1 1_555 1_555
H2 N3 1_555 1_555
N4 C5 1_555 1_555
C1 C2 1_555 1_555
C2 C3 1_555 1_555
C3 H3 1_555 1_555
C4 C3 1_555 1_555
H4 C4 1_555 1_555
C5 N1 1_555 1_555
H5 C5 1_555 1_555
C6 N2 1_555 1_555
O1E C1E 1_555 1_555
O2E C1E 1_555 1_555
C1E C2E 1_555 1_555
C2E C4 1_555 1_555
C3E C2E 1_555 1_555
H3E C3E 1_555 1_555
C4E C2 1_555 1_555
H4E C4E 1_555 1_555
Co1B N2B 1_555 1_555
N1B N2B 1_555 1_555
N2B C6B 1_555 1_555
N3B H1B 1_555 1_555
H2B N3B 1_555 1_555
N4B Co1 1_555 1_555
C5B N1B 1_555 1_555
H5B C5B 1_555 1_555
C6B N3B 1_555 1_555
Co1C N4 1_555 1_555
Co1E O1E 1_555 1_555
Co1H N1 1_555 1_555
Co1J N1B 1_555 1_555
O1B Co1B 1_555 1_555
N1H Co1 1_555 1_555
N1J Co1B 1_555 1_555
N4A Co1B 1_555 1_555
N3 C6 1_555 1_555
N4 C6 1_555 1_555
C3E C4E 1_555 1_555
N4B C5B 1_555 1_555
N4B C6B 1_555 1_555

#END
