
#######################################################################
#
#                 Cambridge Crystallographic Data Centre
#                                CCDC 
#
#######################################################################
#
# If this CIF has been generated from an entry in the Cambridge 
# Structural Database, then it will include bibliographic, chemical, 
# crystal, experimental, refinement or atomic coordinate data resulting 
# from the CCDC's data processing and validation procedures.
#
#######################################################################

data_PEQLII
_symmetry_cell_setting           monoclinic
_symmetry_space_group_name_H-M   'P 21/c'
_symmetry_Int_Tables_number      14
_space_group_name_Hall           '-P 2ybc'
loop_
_symmetry_equiv_pos_site_id
_symmetry_equiv_pos_as_xyz
1 x,y,z
2 -x,1/2+y,1/2-z
3 -x,-y,-z
4 x,1/2-y,1/2+z
_cell_length_a                   9.708(5)
_cell_length_b                   25.369(5)
_cell_length_c                   17.721(5)
_cell_angle_alpha                90
_cell_angle_beta                 105.577(5)
_cell_angle_gamma                90
_cell_volume                     4204.07
loop_
_atom_site_label
_atom_site_type_symbol
_atom_site_fract_x
_atom_site_fract_y
_atom_site_fract_z
Co1 Co 1.0000 0.0000 1.0000
Cl1 Cl 1.15830(11) 0.05327(4) 1.09944(6)
P1 P 0.44340(10) 0.10509(4) 0.85638(6)
P2 P 0.35612(10) 0.19591(4) 0.91277(6)
P3 P 0.19375(10) 0.15161(4) 0.77518(5)
O1 O 0.4801(3) 0.04838(10) 0.89337(16)
O2 O 0.5696(3) 0.11306(10) 0.81594(14)
O3 O 0.2820(3) 0.20224(10) 0.98153(14)
O4 O 0.4603(3) 0.24483(10) 0.92480(15)
O5 O 0.1755(3) 0.17033(11) 0.68823(14)
O6 O 0.0381(3) 0.13317(10) 0.77445(14)
N1 N 0.4557(3) 0.14562(13) 0.92486(18)
N2 N 0.2313(3) 0.19930(12) 0.83518(17)
N3 N 0.3004(3) 0.10374(12) 0.78859(18)
N4 N 0.1760(3) -0.01462(12) 0.94182(19)
N5 N 0.9204(3) 0.07279(12) 0.93324(18)
C1 C 0.3818(4) 0.01056(15) 0.9020(2)
C2 C 0.2714(4) 0.02190(15) 0.9343(2)
H1 H 0.2624 0.0560 0.9514
C3 C 0.1933(5) -0.06318(16) 0.9173(3)
H2 H 0.1259 -0.0886 0.9202
C4 C 0.3050(6) -0.07774(18) 0.8881(3)
H3 H 0.3140 -0.1125 0.8732
C5 C 0.4040(5) -0.04022(17) 0.8810(3)
H4 H 0.4824 -0.0490 0.8627
C6 C 0.7120(4) 0.11684(14) 0.8599(2)
C7 C 0.7841(4) 0.07192(15) 0.8907(2)
H5 H 0.7365 0.0398 0.8816
C8 C 0.9871(4) 0.11989(15) 0.9427(2)
H6 H 1.0824 0.1213 0.9716
C9 C 0.9218(4) 0.16569(15) 0.9119(2)
H7 H 0.9726 0.1972 0.9192
C10 C 0.7801(4) 0.16497(15) 0.8700(2)
H8 H 0.7324 0.1957 0.8494
C11 C 0.3676(4) 0.20907(15) 1.0595(2)
C12 C 0.3762(5) 0.16818(17) 1.1104(2)
H9 H 0.3347 0.1359 1.0926
C13 C 0.4466(6) 0.1750(2) 1.1881(3)
H10 H 0.4543 0.1472 1.2233
C14 C 0.5057(5) 0.2234(2) 1.2132(3)
H11 H 0.5524 0.2284 1.2659
C15 C 0.4968(5) 0.26451(19) 1.1617(2)
H12 H 0.5377 0.2968 1.1798
C16 C 0.4269(4) 0.25828(15) 1.0822(2)
C17 C 0.4183(4) 0.30232(16) 1.0263(2)
C18 C 0.4025(5) 0.35448(18) 1.0481(3)
H13 H 0.3904 0.3611 1.0976
C19 C 0.4040(7) 0.3957(2) 0.9998(3)
H14 H 0.3957 0.4299 1.0169
C20 C 0.4179(7) 0.3872(2) 0.9257(4)
H15 H 0.4196 0.4155 0.8926
C21 C 0.4291(6) 0.33642(18) 0.9009(3)
H16 H 0.4357 0.3302 0.8503
C22 C 0.4306(4) 0.29510(15) 0.9505(2)
C23 C 0.0556(4) 0.20108(18) 0.6492(2)
C24 C 0.0780(6) 0.25278(19) 0.6355(3)
H17 H 0.1679 0.2678 0.6551
C25 C -0.0329(8) 0.2823(2) 0.5926(3)
H18 H -0.0182 0.3175 0.5824
C26 C -0.1665(7) 0.2603(3) 0.5643(3)
H19 H -0.2421 0.2806 0.5353
C27 C -0.1877(6) 0.2079(3) 0.5792(3)
H20 H -0.2778 0.1930 0.5595
C28 C -0.0763(5) 0.17702(19) 0.6231(2)
C29 C -0.1024(5) 0.1213(2) 0.6413(3)
C30 C -0.1917(6) 0.0878(3) 0.5859(3)
H21 H -0.2350 0.1002 0.5358
C31 C -0.2151(7) 0.0366(3) 0.6057(4)
H22 H -0.2730 0.0147 0.5684
C32 C -0.1543(7) 0.0176(2) 0.6797(4)
H23 H -0.1742 -0.0166 0.6926
C33 C -0.0650(5) 0.04855(18) 0.7343(3)
H24 H -0.0203 0.0353 0.7838
C34 C -0.0417(4) 0.09990(16) 0.7153(2)
P1B P 0.55660(10) -0.10509(4) 1.14362(6)
P2B P 0.64388(10) -0.19591(4) 1.08723(6)
P3B P 0.80625(10) -0.15161(4) 1.22482(5)
O1B O 0.5199(3) -0.04838(10) 1.10663(16)
O2B O 0.4304(3) -0.11306(10) 1.18406(14)
O3B O 0.7180(3) -0.20224(10) 1.01847(14)
O4B O 0.5397(3) -0.24483(10) 1.07520(15)
O5B O 0.8245(3) -0.17033(11) 1.31177(14)
O6B O 0.9619(3) -0.13317(10) 1.22555(14)
N1B N 0.5443(3) -0.14562(13) 1.07514(18)
N2B N 0.7687(3) -0.19930(12) 1.16482(17)
N3B N 0.6996(3) -0.10374(12) 1.21141(18)
N4B N 0.8240(3) 0.01462(12) 1.05818(19)
N5B N 0.0796(3) -0.07279(12) 1.06676(18)
C1B C 0.6182(4) -0.01056(15) 1.0980(2)
C2B C 0.7286(4) -0.02190(15) 1.0657(2)
H1B H 0.7376 -0.0560 1.0486
C3B C 0.8067(5) 0.06318(16) 1.0827(3)
H2B H 0.8741 0.0886 1.0798
C4B C 0.6950(6) 0.07774(18) 1.1119(3)
H3B H 0.6860 0.1125 1.1268
C5B C 0.5960(5) 0.04022(17) 1.1190(3)
H4B H 0.5176 0.0490 1.1373
C6B C 0.2880(4) -0.11684(14) 1.1401(2)
C7B C 0.2159(4) -0.07192(15) 1.1093(2)
H5B H 0.2635 -0.0398 1.1184
C8B C 0.0129(4) -0.11989(15) 1.0573(2)
H6B H -0.0824 -0.1213 1.0284
C9B C 0.0782(4) -0.16569(15) 1.0881(2)
H7B H 0.0274 -0.1972 1.0808
C10B C 0.2199(4) -0.16497(15) 1.1300(2)
H8B H 0.2676 -0.1957 1.1506
C11B C 0.6324(4) -0.20907(15) 0.9405(2)
C12B C 0.6238(5) -0.16818(17) 0.8896(2)
H9B H 0.6653 -0.1359 0.9074
C13B C 0.5534(6) -0.1750(2) 0.8119(3)
H10B H 0.5457 -0.1472 0.7767
C14B C 0.4943(5) -0.2234(2) 0.7868(3)
H11B H 0.4476 -0.2284 0.7341
C15B C 0.5032(5) -0.26451(19) 0.8383(2)
H12B H 0.4623 -0.2968 0.8202
C16B C 0.5731(4) -0.25828(15) 0.9178(2)
C17B C 0.5817(4) -0.30232(16) 0.9737(2)
C18B C 0.5975(5) -0.35448(18) 0.9519(3)
H13B H 0.6096 -0.3611 0.9024
C19B C 0.5960(7) -0.3957(2) 1.0002(3)
H14B H 0.6043 -0.4299 0.9831
C20B C 0.5821(7) -0.3872(2) 1.0743(4)
H15B H 0.5804 -0.4155 1.1074
C21B C 0.5709(6) -0.33642(18) 1.0991(3)
H16B H 0.5643 -0.3302 1.1497
C22B C 0.5694(4) -0.29510(15) 1.0495(2)
C23B C 0.9444(4) -0.20108(18) 1.3508(2)
C24B C 0.9220(6) -0.25278(19) 1.3645(3)
H17B H 0.8321 -0.2678 1.3449
C25B C 1.0329(8) -0.2823(2) 1.4074(3)
H18B H 1.0182 -0.3175 1.4176
C26B C 1.1665(7) -0.2603(3) 1.4357(3)
H19B H 1.2421 -0.2806 1.4647
C27B C 1.1877(6) -0.2079(3) 1.4208(3)
H20B H 1.2778 -0.1930 1.4405
C28B C 1.0763(5) -0.17702(19) 1.3769(2)
C29B C 1.1024(5) -0.1213(2) 1.3587(3)
C30B C 1.1917(6) -0.0878(3) 1.4141(3)
H21B H 1.2350 -0.1002 1.4642
C31B C 1.2151(7) -0.0366(3) 1.3943(4)
H22B H 1.2730 -0.0147 1.4316
C32B C 1.1543(7) -0.0176(2) 1.3203(4)
H23B H 1.1742 0.0166 1.3074
C33B C 1.0650(5) -0.04855(18) 1.2657(3)
H24B H 1.0203 -0.0353 1.2162
C34B C 1.0417(4) -0.09990(16) 1.2847(2)
Cl1B Cl 0.84170(11) -0.05327(4) 0.90056(6)
Co1_2 Co 0.0000 0.0000 1.0000
N4_2 N 1.1760(3) -0.01462(12) 0.94182(19)
N5B_2 N 1.0796(3) -0.07279(12) 1.06676(18)
Cl2 Cl -0.1430(2) 0.29107(8) 0.77359(12)
Cl3 Cl 0.0416(2) 0.32698(9) 0.91727(13)
Cl4 Cl 0.0734(2) 0.36572(7) 0.76834(13)
C35 C 0.0287(7) 0.3123(2) 0.8200(4)
H25 H 0.0951 0.2833 0.8187
Cl5 Cl 0.7584(4) 0.43069(11) 0.83320(17)
Cl6 Cl 0.8359(2) 0.52872(11) 0.91423(13)
Cl7 Cl 0.5504(2) 0.51007(8) 0.82349(12)
C36 C 0.7269(7) 0.4976(3) 0.8317(4)
H26 H 0.7498 0.5122 0.7854
loop_
_geom_bond_atom_site_label_1
_geom_bond_atom_site_label_2
_geom_bond_site_symmetry_1
_geom_bond_site_symmetry_2
Co1 Cl1 1_555 1_555
P1 O1 1_555 1_555
P2 O3 1_555 1_555
P3 O5 1_555 1_555
O1 C1 1_555 1_555
O2 P1 1_555 1_555
O3 C11 1_555 1_555
O4 P2 1_555 1_555
O5 C23 1_555 1_555
O6 P3 1_555 1_555
N1 P1 1_555 1_555
N2 P2 1_555 1_555
N3 P1 1_555 1_555
N4 C2 1_555 1_555
N5 Co1 1_555 1_555
C1 C2 1_555 1_555
C2 H1 1_555 1_555
C3 N4 1_555 1_555
H2 C3 1_555 1_555
C4 C3 1_555 1_555
H3 C4 1_555 1_555
C5 C1 1_555 1_555
H4 C5 1_555 1_555
C6 O2 1_555 1_555
C7 N5 1_555 1_555
H5 C7 1_555 1_555
C8 N5 1_555 1_555
H6 C8 1_555 1_555
C9 C8 1_555 1_555
H7 C9 1_555 1_555
C10 C6 1_555 1_555
H8 C10 1_555 1_555
C11 C12 1_555 1_555
C12 H9 1_555 1_555
C13 C12 1_555 1_555
H10 C13 1_555 1_555
C14 C13 1_555 1_555
H11 C14 1_555 1_555
C15 C14 1_555 1_555
H12 C15 1_555 1_555
C16 C11 1_555 1_555
C17 C16 1_555 1_555
C18 C17 1_555 1_555
H13 C18 1_555 1_555
C19 C18 1_555 1_555
H14 C19 1_555 1_555
C20 C19 1_555 1_555
H15 C20 1_555 1_555
C21 C20 1_555 1_555
H16 C21 1_555 1_555
C22 O4 1_555 1_555
C23 C24 1_555 1_555
C24 H17 1_555 1_555
C25 C24 1_555 1_555
H18 C25 1_555 1_555
C26 C25 1_555 1_555
H19 C26 1_555 1_555
C27 C26 1_555 1_555
H20 C27 1_555 1_555
C28 C23 1_555 1_555
C29 C28 1_555 1_555
C30 C29 1_555 1_555
H21 C30 1_555 1_555
C31 C30 1_555 1_555
H22 C31 1_555 1_555
C32 C31 1_555 1_555
H23 C32 1_555 1_555
C33 C32 1_555 1_555
H24 C33 1_555 1_555
C34 O6 1_555 1_555
Cl2 C35 1_555 1_555
Cl3 C35 1_555 1_555
Cl4 C35 1_555 1_555
C35 H25 1_555 1_555
Cl5 C36 1_555 1_555
Cl6 C36 1_555 1_555
Cl7 C36 1_555 1_555
C36 H26 1_555 1_555
P1B O1B 1_555 1_555
P2B O3B 1_555 1_555
P3B O5B 1_555 1_555
O1B C1B 1_555 1_555
O2B P1B 1_555 1_555
O3B C11B 1_555 1_555
O4B P2B 1_555 1_555
O5B C23B 1_555 1_555
O6B P3B 1_555 1_555
N1B P1B 1_555 1_555
N2B P2B 1_555 1_555
N3B P1B 1_555 1_555
N4B Co1 1_555 1_555
N5B C7B 1_555 1_555
C1B C2B 1_555 1_555
C2B N4B 1_555 1_555
H1B C2B 1_555 1_555
C3B N4B 1_555 1_555
H2B C3B 1_555 1_555
C4B C3B 1_555 1_555
H3B C4B 1_555 1_555
C5B C1B 1_555 1_555
H4B C5B 1_555 1_555
C6B O2B 1_555 1_555
C7B C6B 1_555 1_555
H5B C7B 1_555 1_555
C8B N5B 1_555 1_555
H6B C8B 1_555 1_555
C9B C8B 1_555 1_555
H7B C9B 1_555 1_555
C10B C6B 1_555 1_555
H8B C10B 1_555 1_555
C11B C12B 1_555 1_555
C12B H9B 1_555 1_555
C13B C12B 1_555 1_555
H10B C13B 1_555 1_555
C14B C13B 1_555 1_555
H11B C14B 1_555 1_555
C15B C14B 1_555 1_555
H12B C15B 1_555 1_555
C16B C11B 1_555 1_555
C17B C16B 1_555 1_555
C18B C17B 1_555 1_555
H13B C18B 1_555 1_555
C19B C18B 1_555 1_555
H14B C19B 1_555 1_555
C20B C19B 1_555 1_555
H15B C20B 1_555 1_555
C21B C20B 1_555 1_555
H16B C21B 1_555 1_555
C22B O4B 1_555 1_555
C23B C24B 1_555 1_555
C24B H17B 1_555 1_555
C25B C24B 1_555 1_555
H18B C25B 1_555 1_555
C26B C25B 1_555 1_555
H19B C26B 1_555 1_555
C27B C26B 1_555 1_555
H20B C27B 1_555 1_555
C28B C23B 1_555 1_555
C29B C28B 1_555 1_555
C30B C29B 1_555 1_555
H21B C30B 1_555 1_555
C31B C30B 1_555 1_555
H22B C31B 1_555 1_555
C32B C31B 1_555 1_555
H23B C32B 1_555 1_555
C33B C32B 1_555 1_555
H24B C33B 1_555 1_555
C34B O6B 1_555 1_555
Cl1B Co1 1_555 1_555
Co1_2 N4 1_555 1_555
N4_2 Co1 1_555 1_555
N5B_2 Co1 1_555 1_555
P2 N1 1_555 1_555
P3 N2 1_555 1_555
P3 N3 1_555 1_555
C4 C5 1_555 1_555
C6 C7 1_555 1_555
C9 C10 1_555 1_555
C15 C16 1_555 1_555
C17 C22 1_555 1_555
C21 C22 1_555 1_555
C27 C28 1_555 1_555
C29 C34 1_555 1_555
C33 C34 1_555 1_555
P2B N1B 1_555 1_555
P3B N2B 1_555 1_555
P3B N3B 1_555 1_555
N5B Co1_2 1_555 1_555
C4B C5B 1_555 1_555
C9B C10B 1_555 1_555
C15B C16B 1_555 1_555
C17B C22B 1_555 1_555
C21B C22B 1_555 1_555
C27B C28B 1_555 1_555
C29B C34B 1_555 1_555
C33B C34B 1_555 1_555

#END
