
#######################################################################
#
#                 Cambridge Crystallographic Data Centre
#                                CCDC 
#
#######################################################################
#
# If this CIF has been generated from an entry in the Cambridge 
# Structural Database, then it will include bibliographic, chemical, 
# crystal, experimental, refinement or atomic coordinate data resulting 
# from the CCDC's data processing and validation procedures.
#
#######################################################################

data_PEQSAG
_symmetry_cell_setting           triclinic
_symmetry_space_group_name_H-M   'P -1'
_symmetry_Int_Tables_number      2
_space_group_name_Hall           '-P 1'
loop_
_symmetry_equiv_pos_site_id
_symmetry_equiv_pos_as_xyz
1 x,y,z
2 -x,-y,-z
_cell_length_a                   8.234(2)
_cell_length_b                   9.245(2)
_cell_length_c                   9.574(3)
_cell_angle_alpha                81.271(3)
_cell_angle_beta                 67.963(3)
_cell_angle_gamma                76.994(3)
_cell_volume                     656.398
loop_
_atom_site_label
_atom_site_type_symbol
_atom_site_fract_x
_atom_site_fract_y
_atom_site_fract_z
Cu1 Cu 0.5000 0.5000 0.0000
O1 O 0.7308(3) 0.3893(3) -0.0053(3)
O2 O 0.5393(3) 0.6709(3) 0.0693(3)
N1 N 0.4169(4) 0.7950(3) 0.0746(3)
N2 N 0.8605(4) 0.4484(3) -0.0007(3)
C1 C 0.8736(5) 0.4583(4) 0.1340(4)
N3 N 0.1620(5) 1.0403(4) 0.0759(5)
O3 O 0.0362(5) 1.1507(4) 0.0773(5)
C2 C 0.9829(5) 0.4882(4) -0.1318(4)
H1 H 0.9701 0.4794 -0.2225
C3 C 0.2889(6) 0.9964(4) -0.0583(5)
C4 C 0.2960(5) 0.8388(4) 0.2081(4)
C5 C 0.4141(5) 0.8739(4) -0.0556(4)
H2 H 0.5009 0.8430 -0.1463
C6 C 0.7363(6) 0.4086(5) 0.2748(5)
H3 H 0.7332 0.3060 0.2716
H4 H 0.6218 0.4682 0.2834
H5 H 0.7653 0.4194 0.3605
C7 C 0.1693(6) 0.9635(5) 0.2068(5)
H6 H 0.0861 0.9964 0.2982
C8 C 0.3014(7) 0.7504(6) 0.3506(5)
H7 H 0.4107 0.7530 0.3636
H8 H 0.2946 0.6492 0.3452
H9 H 0.2023 0.7920 0.4346
C9 C 0.2776(8) 1.0839(6) -0.1994(6)
H10 H 0.3680 1.0372 -0.2853
H11 H 0.2950 1.1831 -0.1995
H12 H 0.1623 1.0878 -0.2042
Cu1_2 Cu 1.5000 0.5000 0.0000
O1A O 1.2692(3) 0.6107(3) 0.0053(3)
O1A_2 O 0.2692(3) 0.6107(3) 0.0053(3)
O2A O 0.4607(3) 0.3291(3) -0.0693(3)
N1A N 0.5831(4) 0.2050(3) -0.0746(3)
N2A N 1.1395(4) 0.5516(3) 0.0007(3)
C1A C 1.1264(5) 0.5417(4) -0.1340(4)
N3A N 0.8380(5) -0.0403(4) -0.0759(5)
O3A O 0.9638(5) -0.1507(4) -0.0773(5)
C2A C 1.0171(5) 0.5118(4) 0.1318(4)
H1A H 1.0299 0.5206 0.2225
C3A C 0.7111(6) 0.0036(4) 0.0583(5)
C4A C 0.7040(5) 0.1612(4) -0.2081(4)
C5A C 0.5859(5) 0.1261(4) 0.0556(4)
H2A H 0.4991 0.1570 0.1463
C6A C 1.2637(6) 0.5914(5) -0.2748(5)
H3A H 1.2668 0.6940 -0.2716
H4A H 1.3782 0.5318 -0.2834
H5A H 1.2347 0.5806 -0.3605
C7A C 0.8307(6) 0.0365(5) -0.2068(5)
H6A H 0.9139 0.0036 -0.2982
C8A C 0.6986(7) 0.2496(6) -0.3506(5)
H7A H 0.5893 0.2470 -0.3636
H8A H 0.7054 0.3508 -0.3452
H9A H 0.7977 0.2080 -0.4346
C9A C 0.7224(8) -0.0839(6) 0.1994(6)
H10A H 0.6320 -0.0372 0.2853
H11A H 0.7050 -0.1831 0.1995
H12A H 0.8377 -0.0878 0.2042
Cl1 Cl 0.24339(18) 0.27924(16) 0.42866(13)
O4 O 0.2969(8) 0.3775(7) 0.2969(6)
O6 O 0.1262(14) 0.3351(10) 0.5622(10)
O7 O 0.419(2) 0.2205(17) 0.4461(16)
O10 O 0.197(3) 0.146(2) 0.438(2)
O5? O 0.267(3) 0.348(2) 0.542(2)
O8? O 0.3667(19) 0.1446(15) 0.4079(14)
O9? O 0.106(2) 0.250(2) 0.3765(19)
loop_
_geom_bond_atom_site_label_1
_geom_bond_atom_site_label_2
_geom_bond_site_symmetry_1
_geom_bond_site_symmetry_2
Cu1 O1 1_555 1_555
Cl1 O4 1_555 1_555
O1 N2 1_555 1_555
O2 Cu1 1_555 1_555
N1 O2 1_555 1_555
N2 C1 1_555 1_555
C1 C6 1_555 1_555
N3 O3 1_555 1_555
C2 N2 1_555 1_555
H1 C2 1_555 1_555
C3 N3 1_555 1_555
C4 N1 1_555 1_555
C5 N1 1_555 1_555
H2 C5 1_555 1_555
C6 H3 1_555 1_555
H4 C6 1_555 1_555
H5 C6 1_555 1_555
C7 N3 1_555 1_555
H6 C7 1_555 1_555
C8 C4 1_555 1_555
H7 C8 1_555 1_555
H8 C8 1_555 1_555
H9 C8 1_555 1_555
C9 C3 1_555 1_555
H10 C9 1_555 1_555
H11 C9 1_555 1_555
H12 C9 1_555 1_555
O6 Cl1 1_555 1_555
O7 Cl1 1_555 1_555
O10 Cl1 1_555 1_555
Cu1_2 O1A 1_555 1_555
O1A N2A 1_555 1_555
O1A_2 Cu1 1_555 1_555
O2A Cu1 1_555 1_555
N1A O2A 1_555 1_555
N2A C1A 1_555 1_555
C1A C2 1_555 1_555
N3A O3A 1_555 1_555
C2A C1 1_555 1_555
H1A C2A 1_555 1_555
C3A N3A 1_555 1_555
C4A N1A 1_555 1_555
C5A N1A 1_555 1_555
H2A C5A 1_555 1_555
C6A C1A 1_555 1_555
H3A C6A 1_555 1_555
H4A C6A 1_555 1_555
H5A C6A 1_555 1_555
C7A N3A 1_555 1_555
H6A C7A 1_555 1_555
C8A C4A 1_555 1_555
H7A C8A 1_555 1_555
H8A C8A 1_555 1_555
H9A C8A 1_555 1_555
C9A C3A 1_555 1_555
H10A C9A 1_555 1_555
H11A C9A 1_555 1_555
H12A C9A 1_555 1_555
C3 C5 1_555 1_555
C4 C7 1_555 1_555
N2A C2A 1_555 1_555
C3A C5A 1_555 1_555
C4A C7A 1_555 1_555

#END
