
#######################################################################
#
#                 Cambridge Crystallographic Data Centre
#                                CCDC 
#
#######################################################################
#
# If this CIF has been generated from an entry in the Cambridge 
# Structural Database, then it will include bibliographic, chemical, 
# crystal, experimental, refinement or atomic coordinate data resulting 
# from the CCDC's data processing and validation procedures.
#
#######################################################################

data_PERRAF02
_symmetry_cell_setting           rhombohedral
_symmetry_space_group_name_H-M   'R 3 2'
_symmetry_Int_Tables_number      155
_space_group_name_Hall           'R 3 2"'
loop_
_symmetry_equiv_pos_site_id
_symmetry_equiv_pos_as_xyz
1 x,y,z
2 -y,x-y,z
3 -x+y,-x,z
4 y,x,-z
5 x-y,-y,-z
6 -x,-x+y,-z
7 2/3+x,1/3+y,1/3+z
8 2/3-y,1/3+x-y,1/3+z
9 2/3-x+y,1/3-x,1/3+z
10 2/3+y,1/3+x,1/3-z
11 2/3+x-y,1/3-y,1/3-z
12 2/3-x,1/3-x+y,1/3-z
13 1/3+x,2/3+y,2/3+z
14 1/3-y,2/3+x-y,2/3+z
15 1/3-x+y,2/3-x,2/3+z
16 1/3+y,2/3+x,2/3-z
17 1/3+x-y,2/3-y,2/3-z
18 1/3-x,2/3-x+y,2/3-z
_cell_length_a                   8.0903(11)
_cell_length_b                   8.0903(11)
_cell_length_c                   35.612(7)
_cell_angle_alpha                90
_cell_angle_beta                 90
_cell_angle_gamma                120.00
_cell_volume                     2018.63
loop_
_atom_site_label
_atom_site_type_symbol
_atom_site_fract_x
_atom_site_fract_y
_atom_site_fract_z
Bi1 Bi 0.730187(17) 1.0000 1.0000
Cl1 Cl 0.3333 0.6667 1.00044(5)
N1 N 0.6525(4) 0.9995(4) 0.92809(8)
H1 H 0.5405 0.8920 0.9214
H2 H 0.6473 1.1066 0.9214
C1 C 0.8207(4) 1.0000(4) 0.91213(8)
H3 H 0.8137 1.0000 0.8841
C2 C 0.8186(4) 0.8187(4) 0.92535(8)
H4 H 0.7066 0.7067 0.9135
O1 O 0.7969(3) 0.7968(3) 0.96504(6)
Bi1A Bi 1.0000 1.730187(17) 1.0000
Bi1B Bi 0.269813(17) 0.269813(17) 1.0000
Bi1A_2 Bi 0.0000 0.730187(17) 1.0000
Bi1A_3 Bi 1.0000 0.730187(17) 1.0000
Bi1B_2 Bi 1.269813(17) 1.269813(17) 1.0000
Bi1B_3 Bi 0.269813(17) 1.269813(17) 1.0000
Cl1C Cl 0.6667 1.3333 0.99956(5)
Cl1_2 Cl 1.3333 1.6667 1.00044(5)
Cl1C_2 Cl 0.6667 0.3333 0.99956(5)
N1A N 1.0005(4) 0.6530(6) 0.92809(8)
N1B N 1.3470(6) 1.3475(4) 0.92809(8)
N1D N 0.6530(6) 1.0005(4) 1.07191(8)
N1E N 1.3475(4) 1.3470(6) 1.07191(8)
N1C N 0.9995(4) 0.6525(4) 1.07191(8)
N1A_2 N 1.0005(4) 1.6530(6) 0.92809(8)
N1C_2 N 0.9995(4) 1.6525(4) 1.07191(8)
N1B_2 N 0.3470(6) 0.3475(4) 0.92809(8)
N1E_2 N 0.3475(4) 0.3470(6) 1.07191(8)
H1A H 1.1080 0.6485 0.9214
H1B H 1.3515 1.4595 0.9214
H1D H 0.6485 1.1080 1.0786
H1E H 1.4595 1.3515 1.0786
H1C H 0.8920 0.5405 1.0786
H1A_2 H 1.1080 1.6485 0.9214
H1C_2 H 0.8920 1.5405 1.0786
H1B_2 H 0.3515 0.4595 0.9214
H1E_2 H 0.4595 0.3515 1.0786
H2A H 0.8934 0.5407 0.9214
H2B H 1.4593 1.3527 0.9214
H2D H 0.5407 0.8934 1.0786
H2E H 1.3527 1.4593 1.0786
H2C H 1.1066 0.6473 1.0786
H2A_2 H 0.8934 1.5407 0.9214
H2C_2 H 1.1066 1.6473 1.0786
H2B_2 H 0.4593 0.3527 0.9214
H2E_2 H 0.3527 0.4593 1.0786
C1A C 1.0000(4) 0.8207(6) 0.91213(8)
C1B C 1.1793(6) 1.1793(4) 0.91213(8)
C1D C 0.8207(6) 1.0000(4) 1.08787(8)
C1E C 1.1793(4) 1.1793(6) 1.08787(8)
C1C C 1.0000(4) 0.8207(4) 1.08787(8)
H3A H 1.0000 0.8137 0.8841
H3B H 1.1863 1.1863 0.8841
H3D H 0.8137 1.0000 1.1159
H3E H 1.1863 1.1863 1.1159
H3C H 1.0000 0.8137 1.1159
C2A C 1.1813(4) 0.9999(6) 0.92535(8)
C2B C 1.0001(6) 1.1814(4) 0.92535(8)
C2D C 0.9999(6) 1.1813(4) 1.07465(8)
C2E C 1.1814(4) 1.0001(6) 1.07465(8)
C2C C 0.8187(4) 0.8186(4) 1.07465(8)
H4B H 1.0001 1.2934 0.9135
H4A H 1.2933 0.9999 0.9135
H4D H 0.9999 1.2933 1.0865
H4C H 0.7067 0.7066 1.0865
H4E H 1.2934 1.0001 1.0865
O1B O 0.9999(4) 1.2031(3) 0.96504(6)
O1A O 1.2032(3) 1.0001(4) 0.96504(6)
O1D O 1.0001(4) 1.2032(3) 1.03496(6)
O1C O 0.7968(3) 0.7969(3) 1.03496(6)
O1E O 1.2031(3) 0.9999(4) 1.03496(6)
O1_2 O 0.7969(3) 1.7968(3) 0.96504(6)
O1A_2 O 1.2032(3) 2.0001(4) 0.96504(6)
O1C_2 O 0.7968(3) 1.7969(3) 1.03496(6)
O1E_2 O 1.2031(3) 1.9999(4) 1.03496(6)
O1A_3 O 0.2032(3) 0.0001(4) 0.96504(6)
O1B_2 O -0.0001(4) 0.2031(3) 0.96504(6)
O1D_2 O 0.0001(4) 0.2032(3) 1.03496(6)
O1E_3 O 0.2031(3) -0.0001(4) 1.03496(6)
O2 O 0.6667 1.3333 0.87920(19)
O3 O 0.6667 0.6252(8) 0.8333
H6 H 0.742(11) 0.730(7) 0.822(3)
H6Q H 0.591(11) 0.655(13) 0.845(3)
Cl2 Cl 0.3333 0.6667 0.86439(5)
H5? H 0.755(11) 1.310(16) 0.873(3)
O4? O 0.3333 0.6667 0.86439(5)
loop_
_geom_bond_atom_site_label_1
_geom_bond_atom_site_label_2
_geom_bond_site_symmetry_1
_geom_bond_site_symmetry_2
Bi1 Cl1 1_555 1_555
Cl1 Bi1B 1_555 1_555
N1 Bi1 1_555 1_555
H1 N1 1_555 1_555
H2 N1 1_555 1_555
C1 N1 1_555 1_555
H3 C1 1_555 1_555
C2 C1 1_555 1_555
H4 C2 1_555 1_555
O1 Bi1 1_555 1_555
O3 H6 1_555 1_555
Bi1A Cl1C 1_555 1_555
Bi1B Cl1C_2 1_555 1_555
Bi1A_2 Cl1 1_555 1_555
Bi1A_3 O1 1_555 1_555
Bi1B_2 Cl1_2 1_555 1_555
Bi1B_3 Cl1C 1_555 1_555
Cl1C Bi1 1_555 1_555
Cl1_2 Bi1A 1_555 1_555
Cl1C_2 Bi1A_3 1_555 1_555
N1A Bi1A_3 1_555 1_555
N1B Bi1B_2 1_555 1_555
N1D Bi1 1_555 1_555
N1E Bi1B_2 1_555 1_555
N1C Bi1A_3 1_555 1_555
N1A_2 Bi1A 1_555 1_555
N1C_2 Bi1A 1_555 1_555
N1B_2 Bi1B 1_555 1_555
N1E_2 Bi1B 1_555 1_555
H1A N1A 1_555 1_555
H1B N1B 1_555 1_555
H1D N1D 1_555 1_555
H1E N1E 1_555 1_555
H1C N1C 1_555 1_555
H1A_2 N1A_2 1_555 1_555
H1C_2 N1C_2 1_555 1_555
H1B_2 N1B_2 1_555 1_555
H1E_2 N1E_2 1_555 1_555
H2A N1A 1_555 1_555
H2B N1B 1_555 1_555
H2D N1D 1_555 1_555
H2E N1E 1_555 1_555
H2C N1C 1_555 1_555
H2A_2 N1A_2 1_555 1_555
H2C_2 N1C_2 1_555 1_555
H2B_2 N1B_2 1_555 1_555
H2E_2 N1E_2 1_555 1_555
C1A C2 1_555 1_555
C1B N1B 1_555 1_555
C1D N1D 1_555 1_555
C1E N1E 1_555 1_555
C1C N1C 1_555 1_555
H3A C1A 1_555 1_555
H3B C1B 1_555 1_555
H3D C1D 1_555 1_555
H3E C1E 1_555 1_555
H3C C1C 1_555 1_555
C2A C1A 1_555 1_555
C2B C1 1_555 1_555
C2D C1D 1_555 1_555
C2E C1E 1_555 1_555
C2C C1D 1_555 1_555
H4B C2B 1_555 1_555
H4A C2A 1_555 1_555
H4D C2D 1_555 1_555
H4C C2C 1_555 1_555
H4E C2E 1_555 1_555
O1B Bi1 1_555 1_555
O1A Bi1A_3 1_555 1_555
O1D Bi1 1_555 1_555
O1C Bi1 1_555 1_555
O1E Bi1A_3 1_555 1_555
O1_2 Bi1A 1_555 1_555
O1A_2 Bi1A 1_555 1_555
O1C_2 Bi1A 1_555 1_555
O1E_2 Bi1A 1_555 1_555
O1A_3 Bi1B 1_555 1_555
O1B_2 Bi1B 1_555 1_555
O1D_2 Bi1B 1_555 1_555
O1E_3 Bi1B 1_555 1_555
H6Q O3 1_555 1_555
C2 O1 1_555 1_555
Bi1A_3 O1C 1_555 1_555
Bi1B_2 O1B 1_555 1_555
Bi1B_2 O1A 1_555 1_555
Bi1B_2 O1D 1_555 1_555
Bi1B_2 O1E 1_555 1_555
N1A C1A 1_555 1_555
C1B C2A 1_555 1_555
C1B C2B 1_555 1_555
C1E C2D 1_555 1_555
C1C C2E 1_555 1_555
C1C C2C 1_555 1_555
C2A O1A 1_555 1_555
C2B O1B 1_555 1_555
C2D O1D 1_555 1_555
C2E O1E 1_555 1_555
C2C O1C 1_555 1_555

#END
