
#######################################################################
#
#                 Cambridge Crystallographic Data Centre
#                                CCDC 
#
#######################################################################
#
# If this CIF has been generated from an entry in the Cambridge 
# Structural Database, then it will include bibliographic, chemical, 
# crystal, experimental, refinement or atomic coordinate data resulting 
# from the CCDC's data processing and validation procedures.
#
#######################################################################

data_PERSEK
_symmetry_cell_setting           monoclinic
_symmetry_space_group_name_H-M   'P 21/n'
_symmetry_Int_Tables_number      14
_space_group_name_Hall           '-P 2yn'
loop_
_symmetry_equiv_pos_site_id
_symmetry_equiv_pos_as_xyz
1 x,y,z
2 1/2-x,1/2+y,1/2-z
3 -x,-y,-z
4 1/2+x,1/2-y,1/2+z
_cell_length_a                   12.007(1)
_cell_length_b                   25.292(5)
_cell_length_c                   13.421(2)
_cell_angle_alpha                90
_cell_angle_beta                 94.92(1)
_cell_angle_gamma                90
_cell_volume                     4060.69
loop_
_atom_site_label
_atom_site_type_symbol
_atom_site_fract_x
_atom_site_fract_y
_atom_site_fract_z
Au1 Au 0.4805(1) 0.2423(1) 0.1086(1)
Au2 Au 1.2229(1) 0.2231(1) 0.1420(2)
S1 S 0.4574(2) 0.3206(1) 0.1935(2)
S2 S 1.2761(3) 0.1699(1) 0.2776(2)
P1 P 0.5224(2) 0.1692(1) 0.0218(2)
P2 P 1.1564(2) 0.2712(1) 0.0068(2)
C1 C 0.6355(7) 0.1820(4) -0.0572(7)
C2 C 0.7408(7) 0.2007(5) 0.0023(8)
C3 C 0.8382(7) 0.2083(4) -0.0610(7)
C4 C 0.9391(7) 0.2320(4) -0.0002(7)
C5 C 1.0378(7) 0.2398(4) -0.0628(7)
C6 C 0.4096(7) 0.1412(4) -0.0594(7)
C7 C 0.3121(7) 0.1275(4) -0.0166(8)
C8 C 0.2215(8) 0.1063(5) -0.0747(10)
C9 C 0.2284(10) 0.0995(5) -0.1750(10)
C10 C 0.3221(11) 0.1121(4) -0.2184(9)
C11 C 0.4149(8) 0.1328(4) -0.1599(7)
C12 C 0.5764(7) 0.1149(3) 0.1006(7)
C13 C 0.6180(9) 0.1245(4) 0.1974(7)
C14 C 0.6654(10) 0.0839(5) 0.2554(9)
C15 C 0.6701(10) 0.0346(5) 0.2178(9)
C16 C 0.6286(10) 0.0241(4) 0.1218(9)
C17 C 0.5818(8) 0.0641(4) 0.0631(8)
C18 C 1.2559(7) 0.2822(4) -0.0856(6)
C19 C 1.3363(8) 0.3212(5) -0.0702(7)
C20 C 1.4219(8) 0.3266(5) -0.1331(8)
C21 C 1.4232(9) 0.2937(5) -0.2138(8)
C22 C 1.3398(9) 0.2563(5) -0.2340(9)
C23 C 1.2574(8) 0.2501(4) -0.1692(7)
C24 C 1.1087(7) 0.3363(4) 0.0390(7)
C25 C 1.0322(9) 0.3644(4) -0.0228(9)
C26 C 0.9966(10) 0.4129(5) 0.0039(11)
C27 C 1.0397(11) 0.4354(5) 0.0931(12)
C28 C 1.1176(12) 0.4088(5) 0.1538(12)
C29 C 1.1494(9) 0.3589(5) 0.1267(9)
C30 C 0.5300(7) 0.3699(4) 0.1293(7)
C31 C 0.5029(8) 0.4219(4) 0.1428(7)
C32 C 0.5621(9) 0.4617(4) 0.1005(8)
C33 C 0.6475(8) 0.4507(5) 0.0391(8)
C34 C 0.6722(8) 0.3977(5) 0.0256(7)
C35 C 0.6158(8) 0.3578(4) 0.0674(7)
C36 C 0.7121(9) 0.4942(5) -0.0050(10)
C37 C 1.2361(10) 0.1061(4) 0.2316(8)
C38 C 1.3150(10) 0.0676(5) 0.2162(9)
C39 C 1.2851(13) 0.0193(5) 0.1777(10)
C40 C 1.1721(14) 0.0057(5) 0.1513(10)
C41 C 1.0934(11) 0.0433(6) 0.1687(10)
C42 C 1.1239(11) 0.0922(5) 0.2078(10)
C43 C 1.1438(14) -0.0465(6) 0.1022(11)
H1 H 0.6117 0.2087 -0.1052
H2 H 0.6518 0.1500 -0.0915
H3 H 0.7254 0.2338 0.0332
H4 H 0.7616 0.1750 0.0531
H5 H 0.8588 0.1746 -0.0868
H6 H 0.8158 0.2316 -0.1155
H7 H 0.9614 0.2086 0.0543
H8 H 0.9184 0.2656 0.0256
H9 H 1.0609 0.2059 -0.0857
H10 H 1.0142 0.2615 -0.1193
H11 H 0.3073 0.1328 0.0537
H12 H 0.1548 0.0964 -0.0446
H13 H 0.1653 0.0856 -0.2154
H14 H 0.3255 0.1070 -0.2890
H15 H 0.4822 0.1410 -0.1904
H16 H 0.6141 0.1594 0.2248
H17 H 0.6952 0.0908 0.3228
H18 H 0.7028 0.0066 0.2588
H19 H 0.6322 -0.0111 0.0955
H20 H 0.5528 0.0569 -0.0044
H21 H 1.3329 0.3451 -0.0149
H22 H 1.4789 0.3530 -0.1200
H23 H 1.4826 0.2966 -0.2570
H24 H 1.3395 0.2347 -0.2929
H25 H 1.2009 0.2236 -0.1822
H26 H 1.0038 0.3495 -0.0856
H27 H 0.9417 0.4315 -0.0388
H28 H 1.0149 0.4697 0.1121
H29 H 1.1497 0.4246 0.2147
H30 H 1.2018 0.3395 0.1708
H31 H 0.4423 0.4308 0.1820
H32 H 0.5440 0.4978 0.1136
H33 H 0.7316 0.3888 -0.0150
H34 H 0.6343 0.3217 0.0548
H35 H 0.7669 0.4792 -0.0447
H36 H 0.7488 0.5151 0.0477
H37 H 0.6619 0.5161 -0.0464
H38 H 1.3927 0.0752 0.2331
H39 H 1.3424 -0.0063 0.1683
H40 H 1.0157 0.0353 0.1536
H41 H 1.0667 0.1179 0.2187
H42 H 1.0642 -0.0496 0.0893
H43 H 1.1711 -0.0747 0.1456
H44 H 1.1781 -0.0488 0.0403
Au2_2 Au 0.2229(1) 0.2231(1) 0.1420(2)
Au1_2 Au 1.4805(1) 0.2423(1) 0.1086(1)
loop_
_geom_bond_atom_site_label_1
_geom_bond_atom_site_label_2
_geom_bond_site_symmetry_1
_geom_bond_site_symmetry_2
Au1 S1 1_555 1_555
Au2 S2 1_555 1_555
S1 C30 1_555 1_555
S2 C37 1_555 1_555
P1 Au1 1_555 1_555
P2 Au2 1_555 1_555
C1 P1 1_555 1_555
C2 C1 1_555 1_555
C3 C2 1_555 1_555
C4 C3 1_555 1_555
C5 P2 1_555 1_555
C6 P1 1_555 1_555
C7 C6 1_555 1_555
C8 C7 1_555 1_555
C9 C8 1_555 1_555
C10 C9 1_555 1_555
C11 C6 1_555 1_555
C12 P1 1_555 1_555
C13 C12 1_555 1_555
C14 C13 1_555 1_555
C15 C14 1_555 1_555
C16 C15 1_555 1_555
C17 C12 1_555 1_555
C18 P2 1_555 1_555
C19 C18 1_555 1_555
C20 C19 1_555 1_555
C21 C20 1_555 1_555
C22 C21 1_555 1_555
C23 C18 1_555 1_555
C24 P2 1_555 1_555
C25 C24 1_555 1_555
C26 C25 1_555 1_555
C27 C26 1_555 1_555
C28 C27 1_555 1_555
C29 C24 1_555 1_555
C30 C31 1_555 1_555
C31 C32 1_555 1_555
C32 C33 1_555 1_555
C33 C34 1_555 1_555
C34 C35 1_555 1_555
C35 C30 1_555 1_555
C36 C33 1_555 1_555
C37 C38 1_555 1_555
C38 C39 1_555 1_555
C39 C40 1_555 1_555
C40 C41 1_555 1_555
C41 C42 1_555 1_555
C42 C37 1_555 1_555
C43 C40 1_555 1_555
H1 C1 1_555 1_555
H2 C1 1_555 1_555
H3 C2 1_555 1_555
H4 C2 1_555 1_555
H5 C3 1_555 1_555
H6 C3 1_555 1_555
H7 C4 1_555 1_555
H8 C4 1_555 1_555
H9 C5 1_555 1_555
H10 C5 1_555 1_555
H11 C7 1_555 1_555
H12 C8 1_555 1_555
H13 C9 1_555 1_555
H14 C10 1_555 1_555
H15 C11 1_555 1_555
H16 C13 1_555 1_555
H17 C14 1_555 1_555
H18 C15 1_555 1_555
H19 C16 1_555 1_555
H20 C17 1_555 1_555
H21 C19 1_555 1_555
H22 C20 1_555 1_555
H23 C21 1_555 1_555
H24 C22 1_555 1_555
H25 C23 1_555 1_555
H26 C25 1_555 1_555
H27 C26 1_555 1_555
H28 C27 1_555 1_555
H29 C28 1_555 1_555
H30 C29 1_555 1_555
H31 C31 1_555 1_555
H32 C32 1_555 1_555
H33 C34 1_555 1_555
H34 C35 1_555 1_555
H35 C36 1_555 1_555
H36 C36 1_555 1_555
H37 C36 1_555 1_555
H38 C38 1_555 1_555
H39 C39 1_555 1_555
H40 C41 1_555 1_555
H41 C42 1_555 1_555
H42 C43 1_555 1_555
H43 C43 1_555 1_555
H44 C43 1_555 1_555
Au2_2 Au1 1_555 1_555
Au1_2 Au2 1_555 1_555
C4 C5 1_555 1_555
C10 C11 1_555 1_555
C16 C17 1_555 1_555
C22 C23 1_555 1_555
C28 C29 1_555 1_555

#END
