
#######################################################################
#
#                 Cambridge Crystallographic Data Centre
#                                CCDC 
#
#######################################################################
#
# If this CIF has been generated from an entry in the Cambridge 
# Structural Database, then it will include bibliographic, chemical, 
# crystal, experimental, refinement or atomic coordinate data resulting 
# from the CCDC's data processing and validation procedures.
#
#######################################################################

data_PERYES
_symmetry_cell_setting           monoclinic
_symmetry_space_group_name_H-M   'P 21/c'
_symmetry_Int_Tables_number      14
_space_group_name_Hall           '-P 2ybc'
loop_
_symmetry_equiv_pos_site_id
_symmetry_equiv_pos_as_xyz
1 x,y,z
2 -x,1/2+y,1/2-z
3 -x,-y,-z
4 x,1/2-y,1/2+z
_cell_length_a                   16.328(4)
_cell_length_b                   6.9755(17)
_cell_length_c                   27.246(6)
_cell_angle_alpha                90
_cell_angle_beta                 101.760(4)
_cell_angle_gamma                90
_cell_volume                     3038.07
loop_
_atom_site_label
_atom_site_type_symbol
_atom_site_fract_x
_atom_site_fract_y
_atom_site_fract_z
Cd1 Cd 0.42983(2) 0.62903(5) 0.777667(13)
Cd2 Cd -0.01883(2) 0.98107(5) 0.694490(13)
C1 C 0.2320(3) 0.8438(7) 0.78898(18)
H1 H 0.2556 0.8603 0.8228
C2 C 0.1493(3) 0.8948(7) 0.77170(18)
H2 H 0.1183 0.9442 0.7939
C3 C 0.1602(3) 0.8046(6) 0.69260(17)
H3 H 0.1368 0.7887 0.6588
C4 C 0.2435(3) 0.7555(6) 0.71032(17)
C5 C 0.2964(3) 0.6841(6) 0.67735(17)
C6 C 0.3438(3) 0.5738(7) 0.61818(17)
C7 C 0.3524(3) 0.4939(7) 0.56987(18)
C8 C 0.2899(3) 0.5085(8) 0.52723(19)
H4 H 0.2416 0.5769 0.5287
C9 C 0.2976(3) 0.4240(8) 0.4826(2)
H5 H 0.2550 0.4380 0.4544
C10 C 0.3676(3) 0.3194(8) 0.47947(19)
C11 C 0.4297(3) 0.2998(9) 0.5223(2)
H6 H 0.4772 0.2280 0.5210
C12 C 0.4222(3) 0.3847(9) 0.5668(2)
H7 H 0.4644 0.3686 0.5951
C13 C 0.4620(3) 0.0880(8) 0.3795(2)
H8 H 0.5153 0.0673 0.3734
C14 C 0.4552(3) 0.1848(9) 0.4225(2)
H9 H 0.5031 0.2254 0.4446
C15 C 0.3774(3) 0.2217(7) 0.43288(18)
C16 C 0.3100(3) 0.1584(8) 0.3972(2)
H10 H 0.2558 0.1814 0.4016
C17 C 0.3221(3) 0.0620(8) 0.35529(19)
H11 H 0.2753 0.0223 0.3321
C18 C -0.1016(3) 0.8417(7) 0.76762(18)
C19 C -0.1594(3) 0.7905(6) 0.80163(17)
C20 C -0.1295(3) 0.7515(7) 0.85178(17)
H12 H -0.0728 0.7684 0.8652
C21 C -0.1818(3) 0.6876(6) 0.88276(17)
C22 C -0.2664(3) 0.6638(7) 0.86148(17)
H13 H -0.3023 0.6181 0.8813
C23 C -0.2984(3) 0.7065(6) 0.81162(17)
C24 C -0.2448(3) 0.7721(6) 0.78208(17)
H14 H -0.2659 0.8043 0.7488
C25 C -0.3903(3) 0.6892(7) 0.78991(19)
C26 C -0.1498(3) 0.6503(7) 0.93720(18)
C27 C -0.0893(3) 0.7697(8) 0.96530(18)
H15 H -0.0675 0.8704 0.9496
C28 C -0.0616(3) 0.7408(8) 1.01572(19)
H16 H -0.0215 0.8223 1.0338
C29 C -0.0925(3) 0.5928(8) 1.03987(18)
C30 C -0.1511(3) 0.4707(8) 1.01217(19)
H17 H -0.1720 0.3686 1.0278
C31 C -0.1784(3) 0.5002(7) 0.96178(18)
H18 H -0.2175 0.4163 0.9437
C32 C -0.0642(3) 0.5667(8) 1.09549(19)
N1 N 0.2788(2) 0.7721(6) 0.75888(14)
N2 N 0.1135(2) 0.8735(5) 0.72305(14)
N3 N 0.3763(2) 0.6395(5) 0.69645(14)
N4 N 0.4067(2) 0.5674(6) 0.65769(14)
N5 N 0.2728(2) 0.6479(5) 0.62841(14)
N6 N 0.3973(2) 0.0224(6) 0.34612(14)
O1 O -0.02736(18) 0.7767(5) 0.77670(12)
O2 O 0.43751(19) 0.9273(5) 0.81557(12)
H19 H 0.4895 0.9521 0.8234
H20 H 0.4077 1.0175 0.8004
O3 O -0.12800(18) 0.9443(5) 0.72994(12)
O4 O -0.41796(19) 0.7628(5) 0.74733(12)
O5 O -0.43484(18) 0.6029(5) 0.81504(12)
O6 O -0.0229(2) 0.6964(6) 1.12120(13)
O7 O -0.0827(2) 0.4165(5) 1.11594(12)
Cd1_2 Cd -0.57017(2) 0.62903(5) 0.777667(13)
Cd1A Cd -0.42983(2) 1.12903(5) 0.722333(13)
Cd1C Cd 0.42983(2) -0.12903(5) 0.277667(13)
Cd2A Cd 0.01883(2) 0.48107(5) 0.805510(13)
Cd2C Cd -0.01883(2) 0.51893(5) 1.194490(13)
N6C N 0.3973(2) 0.4776(6) 0.84612(14)
O1A O 0.02736(18) 1.2767(5) 0.72330(12)
O4A O 0.41796(19) 0.2628(5) 0.75267(12)
O5_2 O 0.56516(18) 0.6029(5) 0.81504(12)
O6C O -0.0229(2) 0.8036(6) 0.62120(13)
O7C O -0.0827(2) 1.0835(5) 0.61594(12)
O8 O 0.1326(3) 0.9736(7) 0.88535(16)
H21 H 0.1245 0.8619 0.8959
H22 H 0.0943 1.0540 0.8874
loop_
_geom_bond_atom_site_label_1
_geom_bond_atom_site_label_2
_geom_bond_site_symmetry_1
_geom_bond_site_symmetry_2
Cd1 N1 1_555 1_555
Cd2 N2 1_555 1_555
C1 H1 1_555 1_555
C2 C1 1_555 1_555
H2 C2 1_555 1_555
C3 H3 1_555 1_555
C4 C3 1_555 1_555
C5 C4 1_555 1_555
C6 C7 1_555 1_555
C7 C8 1_555 1_555
C8 H4 1_555 1_555
C9 C8 1_555 1_555
H5 C9 1_555 1_555
C10 C9 1_555 1_555
C11 C10 1_555 1_555
H6 C11 1_555 1_555
C12 C7 1_555 1_555
H7 C12 1_555 1_555
C13 H8 1_555 1_555
C14 C13 1_555 1_555
H9 C14 1_555 1_555
C15 C10 1_555 1_555
C16 C15 1_555 1_555
H10 C16 1_555 1_555
C17 C16 1_555 1_555
H11 C17 1_555 1_555
C18 C19 1_555 1_555
C19 C20 1_555 1_555
C20 H12 1_555 1_555
C21 C20 1_555 1_555
C22 C21 1_555 1_555
H13 C22 1_555 1_555
C23 C22 1_555 1_555
C24 C19 1_555 1_555
H14 C24 1_555 1_555
C25 C23 1_555 1_555
C26 C21 1_555 1_555
C27 C26 1_555 1_555
H15 C27 1_555 1_555
C28 C27 1_555 1_555
H16 C28 1_555 1_555
C29 C28 1_555 1_555
C30 C29 1_555 1_555
H17 C30 1_555 1_555
C31 C26 1_555 1_555
H18 C31 1_555 1_555
C32 C29 1_555 1_555
N1 C1 1_555 1_555
N2 C2 1_555 1_555
N3 Cd1 1_555 1_555
N4 C6 1_555 1_555
N5 C5 1_555 1_555
N6 C13 1_555 1_555
O1 Cd2 1_555 1_555
O2 Cd1 1_555 1_555
H19 O2 1_555 1_555
H20 O2 1_555 1_555
O3 Cd2 1_555 1_555
O4 C25 1_555 1_555
O5 C25 1_555 1_555
O6 C32 1_555 1_555
O7 C32 1_555 1_555
O8 H21 1_555 1_555
H22 O8 1_555 1_555
Cd1_2 O5 1_555 1_555
Cd1A O4 1_555 1_555
Cd1C N6 1_555 1_555
Cd2A O1 1_555 1_555
Cd2C O6 1_555 1_555
N6C Cd1 1_555 1_555
O1A Cd2 1_555 1_555
O4A Cd1 1_555 1_555
O5_2 Cd1 1_555 1_555
O6C Cd2 1_555 1_555
O7C Cd2 1_555 1_555
C3 N2 1_555 1_555
C4 N1 1_555 1_555
C5 N3 1_555 1_555
C6 N5 1_555 1_555
C11 C12 1_555 1_555
C14 C15 1_555 1_555
C17 N6 1_555 1_555
C18 O1 1_555 1_555
C18 O3 1_555 1_555
C23 C24 1_555 1_555
C30 C31 1_555 1_555
N3 N4 1_555 1_555
O7 Cd2C 1_555 1_555

#END
