
#######################################################################
#
#                 Cambridge Crystallographic Data Centre
#                                CCDC 
#
#######################################################################
#
# If this CIF has been generated from an entry in the Cambridge 
# Structural Database, then it will include bibliographic, chemical, 
# crystal, experimental, refinement or atomic coordinate data resulting 
# from the CCDC's data processing and validation procedures.
#
#######################################################################

data_PESBAR
_symmetry_cell_setting           triclinic
_symmetry_space_group_name_H-M   'P -1'
_symmetry_Int_Tables_number      2
_space_group_name_Hall           '-P 1'
loop_
_symmetry_equiv_pos_site_id
_symmetry_equiv_pos_as_xyz
1 x,y,z
2 -x,-y,-z
_cell_length_a                   8.6090(8)
_cell_length_b                   9.9309(9)
_cell_length_c                   10.3457(9)
_cell_angle_alpha                93.616(2)
_cell_angle_beta                 113.762(2)
_cell_angle_gamma                111.153(2)
_cell_volume                     732.114
loop_
_atom_site_label
_atom_site_type_symbol
_atom_site_fract_x
_atom_site_fract_y
_atom_site_fract_z
Cu1 Cu 0.54725(5) 0.62008(4) 0.90674(4)
O1 O 0.6732(2) 0.5079(2) 1.0192(2)
O2 O 0.9322(3) 0.5134(2) 1.1959(2)
O3 O 0.6935(3) 0.7940(2) 1.0684(2)
O4 O 0.9631(3) 0.9291(3) 1.2636(3)
N1 N 0.4162(3) 0.7215(2) 0.7745(2)
N2 N 0.4315(3) 0.4711(2) 0.7171(2)
C1 C 0.4113(4) 0.8488(3) 0.8177(3)
H1 H 0.4817 0.8988 0.9157
C2 C 0.3053(5) 0.9087(4) 0.7221(4)
H2 H 0.3030 0.9970 0.7549
C3 C 0.2027(5) 0.8346(4) 0.5766(4)
H3 H 0.1313 0.8733 0.5097
C4 C 0.2068(4) 0.7029(3) 0.5310(3)
H4 H 0.1386 0.6518 0.4334
C5 C 0.3140(4) 0.6479(3) 0.6331(3)
C6 C 0.3254(4) 0.5061(3) 0.6000(3)
C7 C 0.2331(4) 0.4118(3) 0.4619(3)
H5 H 0.1598 0.4369 0.3819
C8 C 0.2515(5) 0.2803(3) 0.4449(3)
H6 H 0.1902 0.2155 0.3534
C9 C 0.3616(5) 0.2464(3) 0.5651(4)
H7 H 0.3767 0.1588 0.5557
C10 C 0.4489(5) 0.3432(3) 0.6989(3)
H8 H 0.5227 0.3195 0.7798
C11 C 0.8507(4) 0.5740(3) 1.1112(3)
C12 C 0.8679(4) 0.8285(3) 1.1528(3)
C13 C 0.9525(4) 0.7339(3) 1.1075(3)
C14 C 1.1675(4) 0.8000(4) 1.1817(4)
H9 H 1.2271 0.8919 1.2559
H10 H 1.2179 0.7296 1.2185
C15 C 1.1634(6) 0.8232(6) 1.0357(5)
H11 H 1.2146 0.9274 1.0344
H12 H 1.2218 0.7710 1.0028
C16 C 0.9528(5) 0.7481(4) 0.9566(4)
H13 H 0.9026 0.6533 0.8892
H14 H 0.8958 0.8117 0.9102
Cu1A Cu 0.45275(5) 0.37992(4) 1.09326(4)
O1A O 0.3268(2) 0.4921(2) 0.9808(2)
loop_
_geom_bond_atom_site_label_1
_geom_bond_atom_site_label_2
_geom_bond_site_symmetry_1
_geom_bond_site_symmetry_2
Cu1 O1 1_555 1_555
O1 C11 1_555 1_555
O2 C11 1_555 1_555
O3 Cu1 1_555 1_555
O4 C12 1_555 1_555
N1 Cu1 1_555 1_555
N2 Cu1 1_555 1_555
C1 N1 1_555 1_555
H1 C1 1_555 1_555
C2 C1 1_555 1_555
H2 C2 1_555 1_555
C3 C2 1_555 1_555
H3 C3 1_555 1_555
C4 C3 1_555 1_555
H4 C4 1_555 1_555
C5 N1 1_555 1_555
C6 N2 1_555 1_555
C7 C6 1_555 1_555
H5 C7 1_555 1_555
C8 C7 1_555 1_555
H6 C8 1_555 1_555
C9 C8 1_555 1_555
H7 C9 1_555 1_555
C10 N2 1_555 1_555
H8 C10 1_555 1_555
C11 C13 1_555 1_555
C12 O3 1_555 1_555
C13 C12 1_555 1_555
C14 C13 1_555 1_555
H9 C14 1_555 1_555
H10 C14 1_555 1_555
C15 C14 1_555 1_555
H11 C15 1_555 1_555
H12 C15 1_555 1_555
C16 C13 1_555 1_555
H13 C16 1_555 1_555
H14 C16 1_555 1_555
Cu1A O1 1_555 1_555
O1A Cu1 1_555 1_555
C4 C5 1_555 1_555
C5 C6 1_555 1_555
C9 C10 1_555 1_555
C15 C16 1_555 1_555
Cu1A O1A 1_555 1_555

#END
