
#######################################################################
#
#                 Cambridge Crystallographic Data Centre
#                                CCDC 
#
#######################################################################
#
# If this CIF has been generated from an entry in the Cambridge 
# Structural Database, then it will include bibliographic, chemical, 
# crystal, experimental, refinement or atomic coordinate data resulting 
# from the CCDC's data processing and validation procedures.
#
#######################################################################

data_PESGEB
_symmetry_cell_setting           triclinic
_symmetry_space_group_name_H-M   'P -1'
_symmetry_Int_Tables_number      2
_space_group_name_Hall           '-P 1'
loop_
_symmetry_equiv_pos_site_id
_symmetry_equiv_pos_as_xyz
1 x,y,z
2 -x,-y,-z
_cell_length_a                   9.3012(8)
_cell_length_b                   9.4487(10)
_cell_length_c                   10.3283(9)
_cell_angle_alpha                113.787(11)
_cell_angle_beta                 108.046(10)
_cell_angle_gamma                94.625(12)
_cell_volume                     767.366
loop_
_atom_site_label
_atom_site_type_symbol
_atom_site_fract_x
_atom_site_fract_y
_atom_site_fract_z
Fe1 Fe 0.0000 0.5000 0.0000
Fe2 Fe 0.5000 1.0000 0.5000
N1 N 0.1498(3) 0.3297(3) -0.0201(3)
C1 C 0.3017(4) 0.3751(4) 0.0693(4)
H1 H 0.3449 0.4845 0.1393
C2 C 0.3979(4) 0.2716(4) 0.0648(5)
H2 H 0.5047 0.3097 0.1303
C3 C 0.3375(4) 0.1093(4) -0.0370(4)
C4 C 0.1805(4) 0.0627(4) -0.1314(4)
H3 H 0.1343 -0.0455 -0.2036
C5 C 0.0922(4) 0.1758(4) -0.1191(4)
H4 H -0.0145 0.1419 -0.1844
C6 C 0.4285(4) -0.0111(4) -0.0488(4)
H5 H 0.3820 -0.1137 -0.1329
N2 N 0.6635(3) 0.8477(4) 0.5172(3)
C7 C 0.7125(5) 0.8181(5) 0.6388(4)
H6 H 0.6750 0.8649 0.7184
C8 C 0.8153(5) 0.7224(5) 0.6527(4)
H7 H 0.8477 0.7058 0.7411
C9 C 0.8715(4) 0.6502(4) 0.5377(4)
C10 C 0.8205(4) 0.6806(5) 0.4115(4)
H8 H 0.8550 0.6341 0.3297
C11 C 0.7187(4) 0.7793(5) 0.4072(4)
H9 H 0.6861 0.7998 0.3210
C12 C 0.9803(4) 0.5496(4) 0.5555(4)
H10 H 1.0265 0.5556 0.6540
S1 S 0.30881(10) 0.82242(11) 0.54188(9)
C13 C 0.1975(4) 0.7011(4) 0.3629(4)
N3 N 0.1191(3) 0.6156(4) 0.2376(3)
S2 S 0.80954(10) 1.31878(10) 1.03946(9)
C14 C 0.6827(4) 1.2106(4) 0.8638(4)
N4 N 0.5951(3) 1.1348(4) 0.7395(3)
N1A N 0.8502(3) -0.3297(3) 0.0201(3)
C1A C 0.6983(4) -0.3751(4) -0.0693(4)
H1A H 0.6551 -0.4845 -0.1393
C2A C 0.6021(4) -0.2716(4) -0.0648(5)
H2A H 0.4953 -0.3097 -0.1303
C3A C 0.6625(4) -0.1093(4) 0.0370(4)
C4A C 0.8195(4) -0.0627(4) 0.1314(4)
H3A H 0.8657 0.0455 0.2036
C5A C 0.9078(4) -0.1758(4) 0.1191(4)
H4A H 1.0145 -0.1419 0.1844
C6A C 0.5715(4) 0.0111(4) 0.0488(4)
H5A H 0.6180 0.1137 0.1329
N2A N 1.3365(3) 0.1523(4) 0.4828(3)
C7A C 1.2875(5) 0.1819(5) 0.3612(4)
H6A H 1.3250 0.1351 0.2816
C8A C 1.1847(5) 0.2776(5) 0.3473(4)
H7A H 1.1523 0.2942 0.2589
C9A C 1.1285(4) 0.3498(4) 0.4623(4)
C10A C 1.1795(4) 0.3194(5) 0.5885(4)
H8A H 1.1450 0.3659 0.6703
C11A C 1.2813(4) 0.2207(5) 0.5928(4)
H9A H 1.3139 0.2002 0.6790
C12A C 1.0197(4) 0.4504(4) 0.4445(4)
H10A H 0.9735 0.4444 0.3460
S1A S -0.30881(10) 0.17758(11) -0.54188(9)
C13A C -0.1975(4) 0.2989(4) -0.3629(4)
N3A N -0.1191(3) 0.3844(4) -0.2376(3)
S2A S 0.19046(10) 0.68122(10) -0.03946(9)
C14A C 0.3173(4) 0.7894(4) 0.1362(4)
N4A N 0.4049(3) 0.8652(4) 0.2605(3)
Fe1_2 Fe 1.0000 -0.5000 0.0000
Fe1_3 Fe 1.0000 1.5000 1.0000
Fe2_2 Fe -0.5000 0.0000 -0.5000
Fe2_3 Fe 1.5000 0.0000 0.5000
N1A_2 N -0.1498(3) 0.6703(3) 0.0201(3)
N2A_2 N 0.3365(3) 1.1523(4) 0.4828(3)
S1A_2 S 0.69119(10) 1.17758(11) 0.45812(9)
S2_2 S -0.19046(10) 0.31878(10) 0.03946(9)
loop_
_geom_bond_atom_site_label_1
_geom_bond_atom_site_label_2
_geom_bond_site_symmetry_1
_geom_bond_site_symmetry_2
Fe1 N1 1_555 1_555
Fe2 N2 1_555 1_555
N1 C1 1_555 1_555
C1 H1 1_555 1_555
C2 C1 1_555 1_555
H2 C2 1_555 1_555
C3 C2 1_555 1_555
C4 C3 1_555 1_555
H3 C4 1_555 1_555
C5 N1 1_555 1_555
H4 C5 1_555 1_555
C6 C3 1_555 1_555
H5 C6 1_555 1_555
N2 C7 1_555 1_555
C7 H6 1_555 1_555
C8 C7 1_555 1_555
H7 C8 1_555 1_555
C9 C8 1_555 1_555
C10 C9 1_555 1_555
H8 C10 1_555 1_555
C11 N2 1_555 1_555
H9 C11 1_555 1_555
C12 C9 1_555 1_555
H10 C12 1_555 1_555
S1 Fe2 1_555 1_555
C13 S1 1_555 1_555
N3 Fe1 1_555 1_555
S2 C14 1_555 1_555
C14 N4 1_555 1_555
N4 Fe2 1_555 1_555
N1A C1A 1_555 1_555
C1A H1A 1_555 1_555
C2A C1A 1_555 1_555
H2A C2A 1_555 1_555
C3A C2A 1_555 1_555
C4A C3A 1_555 1_555
H3A C4A 1_555 1_555
C5A N1A 1_555 1_555
H4A C5A 1_555 1_555
C6A C6 1_555 1_555
H5A C6A 1_555 1_555
N2A C7A 1_555 1_555
C7A H6A 1_555 1_555
C8A C7A 1_555 1_555
H7A C8A 1_555 1_555
C9A C8A 1_555 1_555
C10A C9A 1_555 1_555
H8A C10A 1_555 1_555
C11A N2A 1_555 1_555
H9A C11A 1_555 1_555
C12A C12 1_555 1_555
H10A C12A 1_555 1_555
S1A C13A 1_555 1_555
C13A N3A 1_555 1_555
N3A Fe1 1_555 1_555
S2A Fe1 1_555 1_555
C14A S2A 1_555 1_555
N4A Fe2 1_555 1_555
Fe1_2 N1A 1_555 1_555
Fe1_3 S2 1_555 1_555
Fe2_2 S1A 1_555 1_555
Fe2_3 N2A 1_555 1_555
N1A_2 Fe1 1_555 1_555
N2A_2 Fe2 1_555 1_555
S1A_2 Fe2 1_555 1_555
S2_2 Fe1 1_555 1_555
C4 C5 1_555 1_555
C10 C11 1_555 1_555
C13 N3 1_555 1_555
C3A C6A 1_555 1_555
C4A C5A 1_555 1_555
C9A C12A 1_555 1_555
C10A C11A 1_555 1_555
C14A N4A 1_555 1_555

#END
