
#######################################################################
#
#                 Cambridge Crystallographic Data Centre
#                                CCDC 
#
#######################################################################
#
# If this CIF has been generated from an entry in the Cambridge 
# Structural Database, then it will include bibliographic, chemical, 
# crystal, experimental, refinement or atomic coordinate data resulting 
# from the CCDC's data processing and validation procedures.
#
#######################################################################

data_PESGOL
_symmetry_cell_setting           monoclinic
_symmetry_space_group_name_H-M   'P 21/c'
_symmetry_Int_Tables_number      14
_space_group_name_Hall           '-P 2ybc'
loop_
_symmetry_equiv_pos_site_id
_symmetry_equiv_pos_as_xyz
1 x,y,z
2 -x,1/2+y,1/2-z
3 -x,-y,-z
4 x,1/2-y,1/2+z
_cell_length_a                   17.566(5)
_cell_length_b                   9.743(3)
_cell_length_c                   7.361(2)
_cell_angle_alpha                90
_cell_angle_beta                 96.875(5)
_cell_angle_gamma                90
_cell_volume                     1250.74
loop_
_atom_site_label
_atom_site_type_symbol
_atom_site_fract_x
_atom_site_fract_y
_atom_site_fract_z
O1 O 0.60774(11) 0.00094(19) 0.8852(3)
O2 O 0.67143(11) 0.1360(2) 0.7086(3)
O3 O 0.85750(11) -0.13292(19) 0.8597(3)
N1 N 0.96018(13) -0.0106(2) 0.7832(3)
H1 H 0.9811 -0.0863 0.7554
N2 N 0.86712(13) 0.3428(2) 0.9165(3)
N3 N 0.97349(12) 0.2308(2) 0.8015(3)
N4 N 0.79724(12) 0.1569(2) 0.9657(3)
N5 N 1.06538(13) 0.0993(2) 0.6867(3)
H2 H 1.0911 0.1722 0.6691
H3 H 1.0823 0.0202 0.6583
C1 C 0.99924(16) 0.1088(3) 0.7580(4)
C2 C 0.90518(15) 0.2278(3) 0.8688(3)
C3 C 0.73132(15) 0.0766(3) 1.0092(4)
H4 H 0.7123 0.1162 1.1160
H5 H 0.7482 -0.0161 1.0405
C4 C 0.66514(15) 0.0700(3) 0.8525(4)
C5 C 0.86339(15) 0.1115(3) 0.8965(3)
C6 C 0.80297(15) 0.2942(3) 0.9737(4)
H6 H 0.7658 0.3502 1.0151
C7 C 0.88989(16) -0.0189(3) 0.8496(3)
Na1 Na 0.52588(6) -0.13431(11) 0.66177(14)
O4 O 0.46352(12) -0.2840(2) 0.4192(3)
O5 O 0.41764(12) 0.0121(2) 0.5750(3)
O6 O 0.62323(12) -0.3050(2) 0.6624(3)
H7 H 0.6658(14) -0.276(4) 0.636(5)
H8 H 0.4460(18) -0.352(2) 0.468(4)
H9 H 0.387(2) -0.029(4) 0.504(5)
H10 H 0.395(2) 0.070(3) 0.628(5)
H11 H 0.4250(17) -0.236(4) 0.402(6)
H12 H 0.614(2) -0.365(3) 0.580(4)
Na1B Na 0.47412(6) 0.13431(11) 0.33823(14)
Na1C Na 0.52588(6) -0.36569(11) 0.16177(14)
O4C O 0.46352(12) -0.2160(2) 0.9192(3)
O5B O 0.58236(12) -0.0121(2) 0.4250(3)
O7 O 0.75841(13) -0.1953(3) 0.5508(3)
loop_
_geom_bond_atom_site_label_1
_geom_bond_atom_site_label_2
_geom_bond_site_symmetry_1
_geom_bond_site_symmetry_2
O1 C4 1_555 1_555
O2 C4 1_555 1_555
O3 C7 1_555 1_555
N1 H1 1_555 1_555
N2 C2 1_555 1_555
N3 C1 1_555 1_555
N4 C3 1_555 1_555
N5 H2 1_555 1_555
H3 N5 1_555 1_555
C1 N1 1_555 1_555
C2 N3 1_555 1_555
C3 H4 1_555 1_555
H5 C3 1_555 1_555
C4 C3 1_555 1_555
C5 N4 1_555 1_555
C6 N2 1_555 1_555
H6 C6 1_555 1_555
C7 N1 1_555 1_555
Na1 O1 1_555 1_555
O4 Na1 1_555 1_555
O5 Na1 1_555 1_555
O6 Na1 1_555 1_555
H7 O6 1_555 1_555
H8 O4 1_555 1_555
H9 O5 1_555 1_555
H10 O5 1_555 1_555
H11 O4 1_555 1_555
H12 O6 1_555 1_555
Na1B O5 1_555 1_555
Na1C O4 1_555 1_555
O4C Na1 1_555 1_555
O5B Na1 1_555 1_555
N4 C6 1_555 1_555
N5 C1 1_555 1_555
C2 C5 1_555 1_555
C5 C7 1_555 1_555
Na1B O5B 1_555 1_555

#END
