
#######################################################################
#
#                 Cambridge Crystallographic Data Centre
#                                CCDC 
#
#######################################################################
#
# If this CIF has been generated from an entry in the Cambridge 
# Structural Database, then it will include bibliographic, chemical, 
# crystal, experimental, refinement or atomic coordinate data resulting 
# from the CCDC's data processing and validation procedures.
#
#######################################################################

data_PESQIP
_symmetry_cell_setting           orthorhombic
_symmetry_space_group_name_H-M   'P 21 21 21'
_symmetry_Int_Tables_number      19
_space_group_name_Hall           'P 2ac 2ab'
loop_
_symmetry_equiv_pos_site_id
_symmetry_equiv_pos_as_xyz
1 x,y,z
2 1/2-x,-y,1/2+z
3 -x,1/2+y,1/2-z
4 1/2+x,1/2-y,-z
_cell_length_a                   12.547(7)
_cell_length_b                   12.979(7)
_cell_length_c                   24.368(13)
_cell_angle_alpha                90
_cell_angle_beta                 90
_cell_angle_gamma                90
_cell_volume                     3968.27
loop_
_atom_site_label
_atom_site_type_symbol
_atom_site_fract_x
_atom_site_fract_y
_atom_site_fract_z
Dy1 Dy 0.75864(7) 0.39698(6) 0.84846(3)
Mn1 Mn 0.8796(2) 0.51860(18) 0.97151(12)
O1 O 0.8813(11) 0.3119(11) 0.9026(5)
O2 O 0.9115(9) 0.3614(9) 0.9841(7)
O3 O 1.2270(10) -0.0103(8) 0.9870(5)
O4 O 1.2000(7) 0.0521(7) 1.0661(4)
C1 C 0.9068(15) 0.2898(15) 0.9498(7)
C2 C 1.1691(13) 0.0300(13) 1.0210(8)
C3 C 0.9384(15) 0.1856(13) 0.9667(9)
C4 C 1.0559(17) 0.1578(14) 0.9677(7)
C5 C 1.0582(16) 0.0600(14) 0.9992(8)
H1 H 1.0346 0.0050 0.9745
C6 C 0.9832(15) 0.0629(18) 1.0461(8)
H2 H 1.0205 0.0735 1.0805
H3 H 0.9416 0.0001 1.0484
C7 C 0.9090(14) 0.1610(14) 1.0309(9)
H4 H 0.9255 0.2194 1.0542
H5 H 0.8341 0.1441 1.0348
C8 C 0.8695(14) 0.1123(17) 0.9369(9)
H6 H 0.8826 0.1180 0.8982
H7 H 0.7961 0.1278 0.9443
H8 H 0.8850 0.0434 0.9488
C9 C 1.1204(13) 0.2409(11) 0.9934(7)
H9 H 1.0980 0.2505 1.0307
H10 H 1.1105 0.3039 0.9734
H11 H 1.1944 0.2220 0.9927
C10 C 1.0875(14) 0.1470(16) 0.9089(7)
H12 H 1.0454 0.0940 0.8920
H13 H 1.1616 0.1289 0.9067
H14 H 1.0758 0.2111 0.8902
O5 O 0.9059(9) 0.3694(10) 0.7872(5)
O6 O 0.8618(11) 0.4241(11) 0.7038(4)
O7 O 1.1463(8) 0.1612(9) 0.5747(4)
O8 O 1.1446(8) 0.0468(8) 0.6409(5)
C11 C 0.9281(16) 0.3816(17) 0.7425(10)
C12 C 1.1444(12) 0.1372(13) 0.6211(8)
C13 C 1.0356(17) 0.3442(14) 0.7205(8)
C14 C 1.038(2) 0.237(2) 0.6973(10)
C15 C 1.1450(12) 0.2220(12) 0.6669(8)
H15 H 1.2005 0.2053 0.6938
C16 C 1.1677(14) 0.3234(16) 0.6432(9)
H16 H 1.1558 0.3232 0.6039
H17 H 1.2406 0.3440 0.6504
C17 C 1.0828(15) 0.4005(15) 0.6745(9)
H18 H 1.1194 0.4614 0.6877
H19 H 1.0275 0.4221 0.6491
C18 C 1.1231(16) 0.3479(17) 0.7667(9)
H20 H 1.1897 0.3237 0.7521
H21 H 1.1018 0.3047 0.7967
H22 H 1.1312 0.4175 0.7794
C19 C 0.9423(15) 0.2181(16) 0.6606(10)
H23 H 0.9417 0.2677 0.6313
H24 H 0.8782 0.2246 0.6817
H25 H 0.9464 0.1499 0.6454
C20 C 1.032(2) 0.1494(18) 0.7461(11)
H26 H 1.0918 0.1579 0.7705
H27 H 1.0346 0.0820 0.7300
H28 H 0.9671 0.1575 0.7663
O9 O 0.3860(11) 0.7746(10) 0.6407(6)
O10 O 0.2809(11) 0.7468(11) 0.6982(6)
O11 O 0.6063(11) 0.5064(11) 0.8233(6)
O12 O 0.6973(10) 0.4620(12) 0.7589(7)
C21 C 0.3445(19) 0.7127(19) 0.6707(10)
C22 C 0.626(2) 0.497(2) 0.7721(12)
C23 C 0.5283(19) 0.5086(17) 0.7352(10)
H29 H 0.5339 0.4566 0.7062
C24 C 0.5172(14) 0.6172(17) 0.7064(8)
C25 C 0.4004(17) 0.6075(18) 0.6862(10)
C26 C 0.3381(15) 0.5582(14) 0.7329(8)
H30 H 0.3076 0.6107 0.7565
H31 H 0.2810 0.5156 0.7187
C27 C 0.4147(16) 0.4957(16) 0.7632(9)
H32 H 0.3933 0.4239 0.7625
H33 H 0.4178 0.5180 0.8012
C28 C 0.3971(17) 0.5500(15) 0.6310(10)
H34 H 0.3245 0.5432 0.6192
H35 H 0.4281 0.4829 0.6353
H36 H 0.4367 0.5881 0.6041
C29 C 0.6039(13) 0.6276(18) 0.6620(8)
H37 H 0.6723 0.6352 0.6792
H38 H 0.5895 0.6869 0.6397
H39 H 0.6041 0.5670 0.6394
C30 C 0.5352(17) 0.7051(14) 0.7468(9)
H40 H 0.4821 0.7024 0.7751
H41 H 0.5303 0.7697 0.7278
H42 H 0.6047 0.6985 0.7629
N1 N 1.0533(11) 0.5410(12) 0.9544(8)
N2 N 0.9472(16) 0.6176(16) 1.0418(8)
C31 C 1.1069(17) 0.4917(14) 0.9147(9)
H43 H 1.0714 0.4418 0.8943
C32 C 1.2129(18) 0.5116(18) 0.9026(10)
H44 H 1.2483 0.4786 0.8741
C33 C 1.2618(15) 0.5821(18) 0.9350(10)
H45 H 1.3334 0.5955 0.9283
C34 C 1.2126(15) 0.6361(15) 0.9777(9)
H46 H 1.2488 0.6838 0.9992
C35 C 1.1043(14) 0.6130(18) 0.9856(9)
C36 C 1.043(2) 0.6540(18) 1.0266(10)
C37 C 1.072(2) 0.739(2) 1.0639(12)
H47 H 1.1382 0.7709 1.0600
C38 C 1.005(3) 0.771(2) 1.1034(11)
H48 H 1.0212 0.8314 1.1227
C39 C 0.927(2) 0.725(2) 1.1142(12)
H49 H 0.8934 0.7394 1.1473
C40 C 0.882(2) 0.6516(18) 1.0810(10)
H50 H 0.8132 0.6277 1.0855
Dy1B Dy 0.24136(7) 0.89698(6) 0.65154(3)
Dy1B_2 Dy 1.24136(7) -0.10302(6) 0.65154(3)
Dy1C Dy 1.25864(7) 0.10302(6) 1.15154(3)
Mn1B Mn 1.1204(2) 0.01860(18) 0.52849(12)
Mn1C Mn 1.3796(2) -0.01860(18) 1.02849(12)
O3C O 0.7270(10) 0.5103(8) 1.0130(5)
O4C O 0.7000(7) 0.4479(7) 0.9339(4)
O7B O 0.8537(8) 0.6612(9) 0.9253(4)
O8B O 0.8554(8) 0.5468(8) 0.8591(5)
O9B O 0.6140(11) 0.2746(10) 0.8593(6)
O10B O 0.7191(11) 0.2468(11) 0.8018(6)
loop_
_geom_bond_atom_site_label_1
_geom_bond_atom_site_label_2
_geom_bond_site_symmetry_1
_geom_bond_site_symmetry_2
Dy1 O1 1_555 1_555
Mn1 O2 1_555 1_555
O1 C1 1_555 1_555
O2 C1 1_555 1_555
O3 C2 1_555 1_555
O4 C2 1_555 1_555
C1 C3 1_555 1_555
C2 C5 1_555 1_555
C3 C4 1_555 1_555
C4 C5 1_555 1_555
C5 H1 1_555 1_555
C6 C5 1_555 1_555
H2 C6 1_555 1_555
H3 C6 1_555 1_555
C7 C3 1_555 1_555
H4 C7 1_555 1_555
H5 C7 1_555 1_555
C8 C3 1_555 1_555
H6 C8 1_555 1_555
H7 C8 1_555 1_555
H8 C8 1_555 1_555
C9 C4 1_555 1_555
H9 C9 1_555 1_555
H10 C9 1_555 1_555
H11 C9 1_555 1_555
C10 C4 1_555 1_555
H12 C10 1_555 1_555
H13 C10 1_555 1_555
H14 C10 1_555 1_555
O5 Dy1 1_555 1_555
O6 C11 1_555 1_555
O7 C12 1_555 1_555
O8 C12 1_555 1_555
C11 O5 1_555 1_555
C12 C15 1_555 1_555
C13 C11 1_555 1_555
C14 C13 1_555 1_555
C15 C14 1_555 1_555
H15 C15 1_555 1_555
C16 C15 1_555 1_555
H16 C16 1_555 1_555
H17 C16 1_555 1_555
C17 C13 1_555 1_555
H18 C17 1_555 1_555
H19 C17 1_555 1_555
C18 C13 1_555 1_555
H20 C18 1_555 1_555
H21 C18 1_555 1_555
H22 C18 1_555 1_555
C19 C14 1_555 1_555
H23 C19 1_555 1_555
H24 C19 1_555 1_555
H25 C19 1_555 1_555
C20 C14 1_555 1_555
H26 C20 1_555 1_555
H27 C20 1_555 1_555
H28 C20 1_555 1_555
O9 C21 1_555 1_555
O10 C21 1_555 1_555
O11 Dy1 1_555 1_555
O12 Dy1 1_555 1_555
C21 C25 1_555 1_555
C22 O11 1_555 1_555
C23 C22 1_555 1_555
H29 C23 1_555 1_555
C24 C23 1_555 1_555
C25 C24 1_555 1_555
C26 C25 1_555 1_555
H30 C26 1_555 1_555
H31 C26 1_555 1_555
C27 C23 1_555 1_555
H32 C27 1_555 1_555
H33 C27 1_555 1_555
C28 C25 1_555 1_555
H34 C28 1_555 1_555
H35 C28 1_555 1_555
H36 C28 1_555 1_555
C29 C24 1_555 1_555
H37 C29 1_555 1_555
H38 C29 1_555 1_555
H39 C29 1_555 1_555
C30 C24 1_555 1_555
H40 C30 1_555 1_555
H41 C30 1_555 1_555
H42 C30 1_555 1_555
N1 Mn1 1_555 1_555
N2 Mn1 1_555 1_555
C31 N1 1_555 1_555
H43 C31 1_555 1_555
C32 C31 1_555 1_555
H44 C32 1_555 1_555
C33 C32 1_555 1_555
H45 C33 1_555 1_555
C34 C33 1_555 1_555
H46 C34 1_555 1_555
C35 N1 1_555 1_555
C36 N2 1_555 1_555
C37 C36 1_555 1_555
H47 C37 1_555 1_555
C38 C37 1_555 1_555
H48 C38 1_555 1_555
C39 C38 1_555 1_555
H49 C39 1_555 1_555
C40 N2 1_555 1_555
H50 C40 1_555 1_555
Dy1B O9 1_555 1_555
Dy1B_2 O8 1_555 1_555
Dy1C O4 1_555 1_555
Mn1B O7 1_555 1_555
Mn1C O3 1_555 1_555
O3C Mn1 1_555 1_555
O4C Dy1 1_555 1_555
O7B Mn1 1_555 1_555
O8B Dy1 1_555 1_555
O9B Dy1 1_555 1_555
O10B Dy1 1_555 1_555
Mn1 O4C 1_555 1_555
O4 Mn1C 1_555 1_555
C6 C7 1_555 1_555
C16 C17 1_555 1_555
O10 Dy1B 1_555 1_555
O12 C22 1_555 1_555
C26 C27 1_555 1_555
C34 C35 1_555 1_555
C35 C36 1_555 1_555
C39 C40 1_555 1_555

#END
