
#######################################################################
#
#                 Cambridge Crystallographic Data Centre
#                                CCDC 
#
#######################################################################
#
# If this CIF has been generated from an entry in the Cambridge 
# Structural Database, then it will include bibliographic, chemical, 
# crystal, experimental, refinement or atomic coordinate data resulting 
# from the CCDC's data processing and validation procedures.
#
#######################################################################

data_PESSOX01
_symmetry_cell_setting           orthorhombic
_symmetry_space_group_name_H-M   'P 21 21 21'
_symmetry_Int_Tables_number      19
_space_group_name_Hall           'P 2ac 2ab'
loop_
_symmetry_equiv_pos_site_id
_symmetry_equiv_pos_as_xyz
1 x,y,z
2 1/2-x,-y,1/2+z
3 1/2+x,1/2-y,-z
4 -x,1/2+y,1/2-z
_cell_length_a                   8.152(3)
_cell_length_b                   10.886(4)
_cell_length_c                   14.782(5)
_cell_angle_alpha                90
_cell_angle_beta                 90
_cell_angle_gamma                90
_cell_volume                     1311.79
loop_
_atom_site_label
_atom_site_type_symbol
_atom_site_fract_x
_atom_site_fract_y
_atom_site_fract_z
Dy1 Dy 0.07406(2) 0.795484(19) -0.001836(19)
O1 O 0.1447(6) 0.6000(4) 0.0280(4)
O2 O 0.4064(5) 0.5570(4) 0.0540(4)
O3 O 0.3037(6) 0.2144(5) 0.3623(3)
O4 O 0.0545(6) 0.2914(5) 0.3690(3)
O5 O 0.1979(6) 0.9814(5) 0.0555(4)
O6 O 0.3541(5) 0.8190(4) 0.0581(3)
C1 C 0.2082(8) 0.4064(5) 0.0945(4)
C2 C 0.2895(10) 0.3804(8) 0.1909(5)
C3 C 0.1777(7) 0.2690(5) 0.2232(4)
H1 H 0.2274 0.1938 0.1992
C4 C 0.0055(12) 0.2787(10) 0.1819(7)
H2 H -0.0773 0.2908 0.2282
H3 H -0.0216 0.2063 0.1468
C5 C 0.0239(11) 0.3986(11) 0.1183(6)
H4 H -0.0417 0.3900 0.0639
H5 H -0.0112 0.4719 0.1503
C6 C 0.2586(8) 0.5308(5) 0.0575(4)
C7 C 0.2601(15) 0.3125(7) 0.0236(6)
H6 H 0.2089 0.3318 -0.0331
H7 H 0.2271 0.2319 0.0426
H8 H 0.3772 0.3147 0.0166
C8 C 0.2719(14) 0.4904(10) 0.2509(6)
H9 H 0.1591 0.5156 0.2524
H10 H 0.3381 0.5562 0.2278
H11 H 0.3073 0.4698 0.3110
C9 C 0.4679(12) 0.3381(9) 0.1883(6)
H12 H 0.5364 0.4048 0.1691
H13 H 0.4787 0.2709 0.1467
H14 H 0.5008 0.3118 0.2476
C10 C 0.1784(7) 0.2577(5) 0.3257(5)
C11 C 0.3304(9) 0.9321(6) 0.0736(5)
H15 H 0.4141 0.9787 0.0990
Dy1A Dy 0.42594(2) 0.204516(19) 0.498164(19)
Dy1B Dy 0.57406(2) 0.704516(19) 0.001836(19)
Dy1C Dy -0.07406(2) 0.295484(19) 0.501836(19)
O2B O -0.0936(5) 0.9430(4) -0.0540(4)
O3A O 0.1963(6) 0.7856(5) -0.1377(3)
O4C O -0.0545(6) 0.7914(5) 0.1310(3)
O6B O -0.1459(5) 0.6810(4) -0.0581(3)
loop_
_geom_bond_atom_site_label_1
_geom_bond_atom_site_label_2
_geom_bond_site_symmetry_1
_geom_bond_site_symmetry_2
Dy1 O1 1_555 1_555
O1 C6 1_555 1_555
O2 C6 1_555 1_555
O3 C10 1_555 1_555
O4 C10 1_555 1_555
O5 Dy1 1_555 1_555
O6 Dy1 1_555 1_555
C1 C2 1_555 1_555
C2 C3 1_555 1_555
C3 H1 1_555 1_555
C4 C3 1_555 1_555
H2 C4 1_555 1_555
H3 C4 1_555 1_555
C5 C1 1_555 1_555
H4 C5 1_555 1_555
H5 C5 1_555 1_555
C6 C1 1_555 1_555
C7 C1 1_555 1_555
H6 C7 1_555 1_555
H7 C7 1_555 1_555
H8 C7 1_555 1_555
C8 C2 1_555 1_555
H9 C8 1_555 1_555
H10 C8 1_555 1_555
H11 C8 1_555 1_555
C9 C2 1_555 1_555
H12 C9 1_555 1_555
H13 C9 1_555 1_555
H14 C9 1_555 1_555
C10 C3 1_555 1_555
C11 O5 1_555 1_555
H15 C11 1_555 1_555
Dy1A O3 1_555 1_555
Dy1B O2 1_555 1_555
Dy1C O4 1_555 1_555
O2B Dy1 1_555 1_555
O3A Dy1 1_555 1_555
O4C Dy1 1_555 1_555
O6B Dy1 1_555 1_555
O6 C11 1_555 1_555
O6 Dy1B 1_555 1_555
C4 C5 1_555 1_555

#END
