
#######################################################################
#
#                 Cambridge Crystallographic Data Centre
#                                CCDC 
#
#######################################################################
#
# If this CIF has been generated from an entry in the Cambridge 
# Structural Database, then it will include bibliographic, chemical, 
# crystal, experimental, refinement or atomic coordinate data resulting 
# from the CCDC's data processing and validation procedures.
#
#######################################################################

data_PESSOX02
_symmetry_cell_setting           orthorhombic
_symmetry_space_group_name_H-M   'P 21 21 21'
_symmetry_Int_Tables_number      19
_space_group_name_Hall           'P 2ac 2ab'
loop_
_symmetry_equiv_pos_site_id
_symmetry_equiv_pos_as_xyz
1 x,y,z
2 1/2-x,-y,1/2+z
3 -x,1/2+y,1/2-z
4 1/2+x,1/2-y,-z
_cell_length_a                   8.19260(10)
_cell_length_b                   10.89340(10)
_cell_length_c                   14.78340(10)
_cell_angle_alpha                90
_cell_angle_beta                 90
_cell_angle_gamma                90
_cell_volume                     1319.35
loop_
_atom_site_label
_atom_site_type_symbol
_atom_site_fract_x
_atom_site_fract_y
_atom_site_fract_z
Dy1 Dy 0.07438(2) 0.203969(15) 0.001940(16)
O1 O 0.3539(4) 0.1804(3) -0.0591(3)
C1 C 0.3226(6) 0.2575(4) 0.1749(3)
C2 C 0.3234(6) 0.2693(4) 0.2768(3)
H1 H 0.2741 0.1940 0.3005
O2 O 0.2001(5) 0.0173(4) -0.0563(4)
C3 C 0.2302(12) 0.4888(7) 0.2494(5)
H2 H 0.1826 0.4718 0.1914
H3 H 0.3439 0.5077 0.2420
H4 H 0.1755 0.5575 0.2765
C4 C 0.3314(7) 0.0671(5) -0.0739(4)
H5 H 0.4156 0.0206 -0.0985
C5 C 0.2125(8) 0.3781(6) 0.3096(4)
C6 C 0.4758(9) 0.3968(7) 0.3827(5)
H6 H 0.5404 0.3860 0.4371
H7 H 0.5126 0.4701 0.3516
C7 C 0.4899(11) 0.2783(10) 0.3180(5)
H8 H 0.5727 0.2901 0.2720
H9 H 0.5157 0.2052 0.3527
C8 C 0.0382(12) 0.3337(11) 0.3150(7)
H10 H -0.0027 0.3194 0.2551
H11 H -0.0276 0.3947 0.3444
H12 H 0.0343 0.2586 0.3490
C9 C 0.2909(6) 0.4056(4) 0.4059(3)
O3 O 0.1971(5) 0.2136(4) 0.1379(3)
O4 O 0.0938(5) 0.5567(4) 0.4470(3)
C10 C 0.2420(6) 0.5310(4) 0.4426(3)
O5 O 0.4450(5) 0.2904(4) 0.1319(3)
O6 O 0.3533(5) 0.5999(3) 0.4714(3)
C11 C 0.2392(12) 0.3129(6) 0.4751(5)
H13 H 0.2889 0.3321 0.5322
H14 H 0.2729 0.2325 0.4561
H15 H 0.1226 0.3147 0.4814
Dy1A Dy 0.42562(2) 0.796031(15) 0.501940(16)
Dy1B Dy -0.07438(2) 0.703969(15) 0.498060(16)
Dy1C Dy 0.57438(2) 0.296031(15) -0.001940(16)
O1C O -0.1461(4) 0.3196(3) 0.0591(3)
O4B O -0.0938(5) 0.0567(4) 0.0530(3)
O5C O -0.0550(5) 0.2096(4) -0.1319(3)
O6A O 0.1467(5) 0.4001(3) -0.0286(3)
loop_
_geom_bond_atom_site_label_1
_geom_bond_atom_site_label_2
_geom_bond_site_symmetry_1
_geom_bond_site_symmetry_2
Dy1 O1 1_555 1_555
O1 C4 1_555 1_555
C1 C2 1_555 1_555
C2 H1 1_555 1_555
O2 Dy1 1_555 1_555
C3 H2 1_555 1_555
H3 C3 1_555 1_555
H4 C3 1_555 1_555
C4 O2 1_555 1_555
H5 C4 1_555 1_555
C5 C2 1_555 1_555
C6 H6 1_555 1_555
H7 C6 1_555 1_555
C7 C2 1_555 1_555
H8 C7 1_555 1_555
H9 C7 1_555 1_555
C8 C5 1_555 1_555
H10 C8 1_555 1_555
H11 C8 1_555 1_555
H12 C8 1_555 1_555
C9 C5 1_555 1_555
O3 Dy1 1_555 1_555
O4 C10 1_555 1_555
C10 C9 1_555 1_555
O5 C1 1_555 1_555
O6 C10 1_555 1_555
C11 C9 1_555 1_555
H13 C11 1_555 1_555
H14 C11 1_555 1_555
H15 C11 1_555 1_555
Dy1A O6 1_555 1_555
Dy1B O4 1_555 1_555
Dy1C O1 1_555 1_555
O1C Dy1 1_555 1_555
O4B Dy1 1_555 1_555
O5C Dy1 1_555 1_555
O6A Dy1 1_555 1_555
C1 O3 1_555 1_555
C3 C5 1_555 1_555
C6 C7 1_555 1_555
C6 C9 1_555 1_555
O5 Dy1C 1_555 1_555

#END
