
#######################################################################
#
#                 Cambridge Crystallographic Data Centre
#                                CCDC 
#
#######################################################################
#
# If this CIF has been generated from an entry in the Cambridge 
# Structural Database, then it will include bibliographic, chemical, 
# crystal, experimental, refinement or atomic coordinate data resulting 
# from the CCDC's data processing and validation procedures.
#
#######################################################################

data_PETDAV
_symmetry_cell_setting           monoclinic
_symmetry_space_group_name_H-M   'P 21/c'
_symmetry_Int_Tables_number      14
_space_group_name_Hall           '-P 2ybc'
loop_
_symmetry_equiv_pos_site_id
_symmetry_equiv_pos_as_xyz
1 x,y,z
2 -x,1/2+y,1/2-z
3 -x,-y,-z
4 x,1/2-y,1/2+z
_cell_length_a                   6.4898(6)
_cell_length_b                   16.6646(16)
_cell_length_c                   19.5263(19)
_cell_angle_alpha                90
_cell_angle_beta                 98.7810(10)
_cell_angle_gamma                90
_cell_volume                     2087.02
loop_
_atom_site_label
_atom_site_type_symbol
_atom_site_fract_x
_atom_site_fract_y
_atom_site_fract_z
Cu1 Cu 0.93038(4) 0.186838(16) 0.677522(14)
S1 S 1.02189(8) 0.05652(3) 0.69782(3)
S2 S 0.93995(8) 0.22225(4) 0.83971(3)
N1 N 0.9640(3) 0.16235(11) 0.58200(9)
C1 C 0.9209(3) 0.44441(14) 0.57173(12)
O1 O 0.8530(3) 0.21850(12) 0.76514(8)
N2 N 0.9383(3) 0.29974(11) 0.64134(10)
C2 C 0.9491(3) 0.22273(14) 0.53993(12)
C3 C 0.9341(3) 0.30121(13) 0.57172(11)
N3 N 0.9825(3) 0.08652(11) 0.55819(10)
C4 C 0.9213(3) 0.37297(14) 0.53484(12)
N4 N 1.0152(3) -0.04349(13) 0.59161(11)
C5 C 0.9341(4) 0.44296(15) 0.64304(13)
C6 C 0.9397(3) 0.36934(14) 0.67608(12)
C7 C 1.0036(3) 0.03229(14) 0.60924(11)
O2 O 1.0362(3) 0.29982(13) 0.85551(13)
O3 O 0.7624(2) 0.20988(12) 0.87762(9)
O4 O 1.0960(3) 0.15845(12) 0.85714(9)
H1 H 0.906(4) 0.4929(16) 0.5492(13)
H2 H 0.948(4) 0.2161(16) 0.4967(15)
H3 H 0.909(4) 0.3724(15) 0.4872(14)
H4 H 1.013(4) -0.0541(16) 0.5521(15)
H5 H 1.015(4) -0.0777(17) 0.6175(15)
H6 H 0.935(4) 0.4854(17) 0.6651(14)
H7 H 0.943(4) 0.3636(16) 0.7226(14)
Cu2 Cu 0.46320(4) 0.094719(16) 0.725192(14)
S3 S 0.49093(8) 0.17281(3) 0.63370(3)
C8 C 0.5369(3) -0.06464(14) 0.76788(12)
N5 N 0.5247(3) 0.00919(12) 0.79730(10)
C9 C 0.5429(4) 0.01494(15) 0.86642(12)
N6 N 0.5058(3) 0.00601(11) 0.66324(9)
O5 O 0.4127(3) 0.18291(10) 0.78719(9)
C10 C 0.5605(3) -0.13374(15) 0.80785(13)
C11 C 0.5766(3) -0.12745(14) 0.87941(12)
C12 C 0.4852(3) 0.09264(14) 0.57521(11)
N7 N 0.4988(3) 0.01542(11) 0.59402(10)
C13 C 0.5711(4) -0.05199(15) 0.90899(13)
N8 N 0.4706(3) 0.11075(13) 0.50888(11)
C14 C 0.5278(3) -0.06365(14) 0.69256(12)
H8 H 0.527(4) 0.0674(16) 0.8830(14)
H9 H 0.565(4) -0.1832(16) 0.7854(14)
H10 H 0.591(4) -0.1737(16) 0.9099(14)
H11 H 0.581(4) -0.0451(15) 0.9546(14)
H12 H 0.475(4) 0.0725(16) 0.4756(14)
H13 H 0.463(4) 0.1582(18) 0.4952(14)
H14 H 0.541(4) -0.1060(16) 0.6667(14)
H15 H 0.533(6) 0.194(2) 0.8126(19)
H16 H 0.317(5) 0.178(2) 0.8076(19)
S1_2 S 0.02189(8) 0.05652(3) 0.69782(3)
Cu2_2 Cu 1.46320(4) 0.094719(16) 0.725192(14)
O6 O 0.4422(3) 0.28007(13) 0.46402(10)
H17 H 0.341(6) 0.289(2) 0.438(2)
H18 H 0.534(6) 0.281(2) 0.4422(19)
loop_
_geom_bond_atom_site_label_1
_geom_bond_atom_site_label_2
_geom_bond_site_symmetry_1
_geom_bond_site_symmetry_2
Cu1 S1 1_555 1_555
S1 C7 1_555 1_555
S2 O1 1_555 1_555
N1 Cu1 1_555 1_555
C1 C4 1_555 1_555
O1 Cu1 1_555 1_555
N2 Cu1 1_555 1_555
C2 N1 1_555 1_555
C3 N2 1_555 1_555
N3 N1 1_555 1_555
C4 C3 1_555 1_555
N4 C7 1_555 1_555
C5 C1 1_555 1_555
C6 N2 1_555 1_555
C7 N3 1_555 1_555
O2 S2 1_555 1_555
O3 S2 1_555 1_555
O4 S2 1_555 1_555
H1 C1 1_555 1_555
H2 C2 1_555 1_555
H3 C4 1_555 1_555
H4 N4 1_555 1_555
H5 N4 1_555 1_555
H6 C5 1_555 1_555
H7 C6 1_555 1_555
Cu2 S3 1_555 1_555
S3 Cu1 1_555 1_555
C8 N5 1_555 1_555
N5 Cu2 1_555 1_555
C9 N5 1_555 1_555
N6 Cu2 1_555 1_555
O5 Cu2 1_555 1_555
C10 C8 1_555 1_555
C11 C10 1_555 1_555
C12 S3 1_555 1_555
N7 N6 1_555 1_555
C13 C9 1_555 1_555
N8 C12 1_555 1_555
C14 C8 1_555 1_555
H8 C9 1_555 1_555
H9 C10 1_555 1_555
H10 C11 1_555 1_555
H11 C13 1_555 1_555
H12 N8 1_555 1_555
H13 N8 1_555 1_555
H14 C14 1_555 1_555
H15 O5 1_555 1_555
H16 O5 1_555 1_555
O6 H17 1_555 1_555
H18 O6 1_555 1_555
S1_2 Cu2 1_555 1_555
Cu2_2 S1 1_555 1_555
C2 C3 1_555 1_555
C5 C6 1_555 1_555
N6 C14 1_555 1_555
C11 C13 1_555 1_555
C12 N7 1_555 1_555

#END
