
#######################################################################
#
#                 Cambridge Crystallographic Data Centre
#                                CCDC 
#
#######################################################################
#
# If this CIF has been generated from an entry in the Cambridge 
# Structural Database, then it will include bibliographic, chemical, 
# crystal, experimental, refinement or atomic coordinate data resulting 
# from the CCDC's data processing and validation procedures.
#
#######################################################################

data_PETQUB
_symmetry_cell_setting           triclinic
_symmetry_space_group_name_H-M   'P 1'
_symmetry_Int_Tables_number      1
_space_group_name_Hall           'P 1'
loop_
_symmetry_equiv_pos_site_id
_symmetry_equiv_pos_as_xyz
1 x,y,z
_cell_length_a                   12.0986(18)
_cell_length_b                   12.7138(18)
_cell_length_c                   13.3209(17)
_cell_angle_alpha                77.309(16)
_cell_angle_beta                 81.440(16)
_cell_angle_gamma                74.732(17)
_cell_volume                     1919.36
loop_
_atom_site_label
_atom_site_type_symbol
_atom_site_fract_x
_atom_site_fract_y
_atom_site_fract_z
Cu1 Cu 0.07788(7) -0.32969(6) -0.54659(7)
Cu2 Cu -0.02857(7) -0.68637(6) 0.04280(7)
O1 O -0.1561(5) -0.5005(5) -0.5907(5)
O2 O 0.1872(5) -0.5058(5) -0.7850(5)
O3 O -0.1537(5) -0.4879(5) -0.2282(5)
O4 O 0.2005(4) -0.5137(4) -0.1387(4)
O5 O -0.1679(6) -0.7371(5) 0.1137(5)
N1 N -0.0525(5) -0.3976(5) -0.5465(5)
N2 N 0.0155(6) -0.4929(5) -0.6887(5)
N3 N 0.1636(6) -0.4169(6) -0.6539(5)
N4 N 0.0226(6) -0.2849(5) -0.4069(5)
N5 N -0.0051(6) -0.1772(5) -0.4014(6)
N6 N -0.0168(6) -0.1742(5) -0.3022(6)
N7 N 0.0050(7) -0.1709(6) -0.6503(6)
N8 N 0.2165(7) -0.2740(7) -0.5386(7)
N9 N 0.1041(5) -0.6225(4) -0.0228(5)
N10 N 0.0292(5) -0.5215(5) -0.1829(5)
N11 N -0.1176(6) -0.5929(5) -0.0703(5)
N12 N 0.0341(5) -0.7328(5) -0.8159(5)
N13 N 0.0778(6) -0.8370(5) -0.7763(6)
N14 N 0.1049(6) -0.8409(5) -0.6844(6)
N15 N 0.0366(7) -0.8413(5) -0.0204(6)
C1 C -0.1622(7) -0.3792(7) -0.4774(7)
C2 C -0.2152(9) -0.4708(8) -0.4926(8)
C3 C -0.0616(7) -0.4595(6) -0.6056(6)
C4 C 0.1217(7) -0.4691(6) -0.7050(7)
C5 C 0.2894(8) -0.4626(7) -0.7987(7)
C6 C 0.2883(7) -0.4250(6) -0.6943(7)
C7 C -0.2346(7) -0.2582(7) -0.5072(8)
C8 C -0.3389(9) -0.2398(9) -0.4225(9)
C9 C -0.2738(8) -0.2335(8) -0.6167(8)
C10 C 0.3686(8) -0.5057(7) -0.6190(7)
C11 C 0.3570(10) -0.6209(8) -0.5935(9)
C12 C 0.4944(8) -0.5013(10) -0.6629(10)
C13 C 0.0001(7) -0.2760(6) -0.2414(7)
C14 C 0.0262(7) -0.3476(6) -0.3088(6)
C15 C -0.0488(8) -0.0624(6) -0.2684(8)
C16 C -0.1767(8) -0.0138(7) -0.2583(8)
C17 C -0.2583(9) -0.0590(8) -0.2855(9)
C18 C -0.3762(10) -0.0048(11) -0.2772(10)
C19 C -0.4096(10) 0.0948(10) -0.2476(10)
C20 C -0.3319(10) 0.1427(9) -0.2215(10)
C21 C -0.2151(10) 0.0878(7) -0.2252(9)
C22 C 0.0619(7) -0.4723(6) -0.2916(6)
C23 C -0.0811(7) -0.5375(6) -0.1564(7)
C24 C -0.2594(8) -0.5275(8) -0.1886(7)
C25 C -0.2457(7) -0.5720(7) -0.0744(7)
C26 C -0.3122(7) -0.4921(7) -0.0022(8)
C27 C -0.2937(9) -0.3720(8) -0.0373(10)
C28 C -0.4411(7) -0.4914(9) 0.0064(10)
C29 C 0.1066(6) -0.5547(6) -0.1117(6)
C30 C 0.2655(7) -0.5451(6) -0.0495(7)
C31 C 0.2164(7) -0.6396(6) 0.0208(7)
C32 C 0.2912(8) -0.7557(7) 0.0163(7)
C33 C 0.3202(8) -0.7822(7) -0.0938(9)
C34 C 0.4002(8) -0.7750(8) 0.0684(9)
C35 C -0.0207(7) -0.5442(6) -0.7620(7)
C36 C 0.0280(6) -0.6696(6) -0.7418(6)
C37 C 0.0758(7) -0.7375(7) -0.6575(7)
C38 C 0.1655(10) -0.9479(7) -0.6209(8)
C39 C 0.2816(9) -0.9396(6) -0.6014(8)
C40 C 0.3062(11) -0.9276(8) -0.5076(9)
C41 C 0.4226(17) -0.9216(10) -0.4994(14)
C42 C 0.5047(12) -0.9284(12) -0.5727(15)
C43 C 0.4809(11) -0.9457(9) -0.6622(12)
C44 C 0.3753(10) -0.9497(8) -0.6824(9)
C45 C 0.0014(9) -0.1178(7) -0.7318(8)
C46 C -0.0044(19) -0.0492(10) -0.8314(11)
C47 C 0.3008(7) -0.2485(6) -0.5382(7)
C48 C 0.4081(8) -0.2254(8) -0.5376(9)
C49 C 0.0974(8) -0.9133(7) -0.0563(7)
C50 C 0.1717(9) -1.0061(8) -0.1069(9)
H1 H -0.14420 -0.39320 -0.40400
H2 H -0.20120 -0.53550 -0.43510
H3 H -0.29920 -0.44310 -0.49710
H4 H 0.35970 -0.52090 -0.81120
H5 H 0.28540 -0.39910 -0.85750
H6 H 0.30510 -0.34990 -0.70820
H7 H -0.18570 -0.20640 -0.50540
H8 H -0.38240 -0.29620 -0.41680
H9 H -0.38920 -0.16580 -0.44190
H10 H -0.31040 -0.24600 -0.35590
H11 H -0.21600 -0.27730 -0.66080
H12 H -0.28270 -0.15430 -0.64600
H13 H -0.34760 -0.25310 -0.61300
H14 H 0.35290 -0.47690 -0.55290
H15 H 0.27650 -0.62190 -0.57030
H16 H 0.40550 -0.66280 -0.53820
H17 H 0.38140 -0.65500 -0.65490
H18 H 0.54710 -0.54320 -0.61090
H19 H 0.50050 -0.42390 -0.68020
H20 H 0.51490 -0.53410 -0.72530
H21 H -0.00500 -0.29380 -0.16810
H22 H -0.01890 -0.07140 -0.20090
H23 H -0.01130 -0.01000 -0.31930
H24 H -0.23440 -0.12710 -0.30990
H25 H -0.43180 -0.03810 -0.29240
H26 H -0.48870 0.13230 -0.24480
H27 H -0.35700 0.21290 -0.20100
H28 H -0.16150 0.11990 -0.20490
H29 H 0.02440 -0.49920 -0.33880
H30 H 0.14630 -0.49650 -0.30740
H31 H -0.26470 -0.58680 -0.22370
H32 H -0.32900 -0.46590 -0.19840
H33 H -0.26930 -0.64400 -0.05300
H34 H -0.28480 -0.52240 0.06800
H35 H -0.21240 -0.37390 -0.03620
H36 H -0.34100 -0.32480 0.00990
H37 H -0.31610 -0.34190 -0.10760
H38 H -0.46660 -0.47500 -0.06300
H39 H -0.48600 -0.43450 0.04520
H40 H -0.45240 -0.56430 0.04240
H41 H 0.34870 -0.57150 -0.06980
H42 H 0.25410 -0.48170 -0.01410
H43 H 0.20190 -0.62770 0.09390
H44 H 0.24670 -0.80960 0.05750
H45 H 0.37770 -0.74280 -0.13200
H46 H 0.25020 -0.75810 -0.12990
H47 H 0.35090 -0.86230 -0.08940
H48 H 0.44760 -0.72530 0.02870
H49 H 0.44360 -0.85230 0.07140
H50 H 0.37980 -0.75980 0.13870
H51 H 0.00600 -0.51220 -0.83320
H52 H -0.10580 -0.52790 -0.75610
H53 H 0.08670 -0.71840 -0.59520
H54 H 0.11900 -0.96400 -0.55420
H55 H 0.17460 -1.00960 -0.65810
H56 H 0.24910 -0.92340 -0.45030
H57 H 0.43940 -0.91200 -0.43500
H58 H 0.57880 -0.92150 -0.56400
H59 H 0.54240 -0.95600 -0.71530
H60 H 0.36330 -0.95890 -0.74860
H61 H -0.05880 0.02220 -0.82670
H62 H -0.03040 -0.08570 -0.87800
H63 H 0.07200 -0.03690 -0.85830
H64 H 0.45380 -0.28410 -0.48880
H65 H 0.39630 -0.15390 -0.51640
H66 H 0.44900 -0.22230 -0.60710
H67 H 0.14660 -1.07470 -0.07750
H68 H 0.25210 -1.01660 -0.09470
H69 H 0.16460 -0.98730 -0.18140
Cu2_2 Cu -0.02857(7) -0.68637(6) -0.95720(7)
N12_2 N 0.0341(5) -0.7328(5) 0.1841(5)
N16 N 0.2364(9) -0.1486(9) -0.3184(10)
C51 C 0.2866(10) -0.2053(9) -0.2548(11)
C52 C 0.3573(17) -0.2735(11) -0.1744(13)
H70 H 0.30940 -0.28200 -0.10840
H71 H 0.41810 -0.23780 -0.16850
H72 H 0.39230 -0.34670 -0.19210
N17 N -0.2614(10) 0.1080(9) 0.0530(10)
C53 C -0.2912(10) 0.0324(12) 0.0432(10)
C54 C -0.3277(10) -0.0622(10) 0.0235(11)
H73 H -0.36040 -0.04160 -0.04310
H74 H -0.38600 -0.08230 0.07870
H75 H -0.26110 -0.12560 0.02190
N18 N -0.2104(11) 0.2333(14) 0.3239(10)
C55 C -0.2326(10) 0.2331(12) 0.4090(12)
C56 C -0.2557(15) 0.2305(14) 0.5214(10)
H76 H -0.18420 0.22610 0.55010
H77 H -0.28570 0.16550 0.55470
H78 H -0.31270 0.29820 0.53420
Cl1 Cl 0.4679(2) 0.46627(17) -0.32821(19)
O6 O 0.468(4) 0.3758(18) -0.3575(19)
O7 O 0.5396(12) 0.521(3) -0.3817(15)
O8 O 0.3574(8) 0.5328(15) -0.3475(9)
O9 O 0.4928(7) 0.4388(8) -0.2257(7)
Cl2 Cl 0.3795(2) -0.15452(17) 0.1372(2)
O10 O 0.3785(7) -0.0473(6) 0.0753(7)
O11 O 0.4830(9) -0.1934(7) 0.1883(8)
O12 O 0.2849(8) -0.1482(7) 0.2146(8)
O13 O 0.3753(11) -0.2289(8) 0.0774(8)
Cl3 Cl 0.0077(2) -0.27996(15) 0.04311(18)
O14 O -0.0515(6) -0.1797(5) -0.0202(5)
O15 O 0.1225(8) -0.2735(7) 0.0377(12)
O16 O -0.0346(11) -0.2863(6) 0.1441(7)
O17 O 0.0030(6) -0.3774(4) 0.0065(5)
Cl4 Cl 0.0341(2) 0.25968(16) -0.35869(19)
O18 O 0.0538(7) 0.3496(5) -0.4407(5)
O19 O 0.0262(9) 0.1697(6) -0.4015(7)
O20 O -0.0718(9) 0.2995(7) -0.2987(9)
O21 O 0.1145(14) 0.2309(12) -0.2922(9)
loop_
_geom_bond_atom_site_label_1
_geom_bond_atom_site_label_2
_geom_bond_site_symmetry_1
_geom_bond_site_symmetry_2
Cu1 N1 1_555 1_555
Cu2 O5 1_555 1_555
O1 C2 1_555 1_555
O2 C4 1_555 1_555
O3 C23 1_555 1_555
O4 C29 1_555 1_555
N1 C1 1_555 1_555
N2 C3 1_555 1_555
N3 Cu1 1_555 1_555
N4 Cu1 1_555 1_555
N5 N4 1_555 1_555
N6 N5 1_555 1_555
N7 Cu1 1_555 1_555
N8 Cu1 1_555 1_555
N9 Cu2 1_555 1_555
N10 C22 1_555 1_555
N11 Cu2 1_555 1_555
N12 N13 1_555 1_555
N13 N14 1_555 1_555
N14 C37 1_555 1_555
N15 Cu2 1_555 1_555
C1 C2 1_555 1_555
C2 H2 1_555 1_555
C3 O1 1_555 1_555
C4 N2 1_555 1_555
C5 O2 1_555 1_555
C6 N3 1_555 1_555
C7 C1 1_555 1_555
C8 C7 1_555 1_555
C9 C7 1_555 1_555
C10 C6 1_555 1_555
C11 C10 1_555 1_555
C12 C10 1_555 1_555
C13 N6 1_555 1_555
C14 N4 1_555 1_555
C15 N6 1_555 1_555
C16 C15 1_555 1_555
C17 C16 1_555 1_555
C18 C17 1_555 1_555
C19 C18 1_555 1_555
C20 C19 1_555 1_555
C21 C16 1_555 1_555
C22 C14 1_555 1_555
C23 N10 1_555 1_555
C24 O3 1_555 1_555
C25 N11 1_555 1_555
C26 C25 1_555 1_555
C27 C26 1_555 1_555
C28 C26 1_555 1_555
C29 N9 1_555 1_555
C30 O4 1_555 1_555
C31 N9 1_555 1_555
C32 C31 1_555 1_555
C33 C32 1_555 1_555
C34 C32 1_555 1_555
C35 N2 1_555 1_555
C36 N12 1_555 1_555
C37 C36 1_555 1_555
C38 N14 1_555 1_555
C39 C38 1_555 1_555
C40 C39 1_555 1_555
C41 C40 1_555 1_555
C42 C41 1_555 1_555
C43 C42 1_555 1_555
C44 C39 1_555 1_555
C45 N7 1_555 1_555
C46 C45 1_555 1_555
C47 N8 1_555 1_555
C48 C47 1_555 1_555
C49 N15 1_555 1_555
C50 C49 1_555 1_555
H1 C1 1_555 1_555
H3 C2 1_555 1_555
H4 C5 1_555 1_555
H5 C5 1_555 1_555
H6 C6 1_555 1_555
H7 C7 1_555 1_555
H8 C8 1_555 1_555
H9 C8 1_555 1_555
H10 C8 1_555 1_555
H11 C9 1_555 1_555
H12 C9 1_555 1_555
H13 C9 1_555 1_555
H14 C10 1_555 1_555
H15 C11 1_555 1_555
H16 C11 1_555 1_555
H17 C11 1_555 1_555
H18 C12 1_555 1_555
H19 C12 1_555 1_555
H20 C12 1_555 1_555
H21 C13 1_555 1_555
H22 C15 1_555 1_555
H23 C15 1_555 1_555
H24 C17 1_555 1_555
H25 C18 1_555 1_555
H26 C19 1_555 1_555
H27 C20 1_555 1_555
H28 C21 1_555 1_555
H29 C22 1_555 1_555
H30 C22 1_555 1_555
H31 C24 1_555 1_555
H32 C24 1_555 1_555
H33 C25 1_555 1_555
H34 C26 1_555 1_555
H35 C27 1_555 1_555
H36 C27 1_555 1_555
H37 C27 1_555 1_555
H38 C28 1_555 1_555
H39 C28 1_555 1_555
H40 C28 1_555 1_555
H41 C30 1_555 1_555
H42 C30 1_555 1_555
H43 C31 1_555 1_555
H44 C32 1_555 1_555
H45 C33 1_555 1_555
H46 C33 1_555 1_555
H47 C33 1_555 1_555
H48 C34 1_555 1_555
H49 C34 1_555 1_555
H50 C34 1_555 1_555
H51 C35 1_555 1_555
H52 C35 1_555 1_555
H53 C37 1_555 1_555
H54 C38 1_555 1_555
H55 C38 1_555 1_555
H56 C40 1_555 1_555
H57 C41 1_555 1_555
H58 C42 1_555 1_555
H59 C43 1_555 1_555
H60 C44 1_555 1_555
H61 C46 1_555 1_555
H62 C46 1_555 1_555
H63 C46 1_555 1_555
H64 C48 1_555 1_555
H65 C48 1_555 1_555
H66 C48 1_555 1_555
H67 C50 1_555 1_555
H68 C50 1_555 1_555
H69 C50 1_555 1_555
N16 C51 1_555 1_555
C51 C52 1_555 1_555
C52 H70 1_555 1_555
H71 C52 1_555 1_555
H72 C52 1_555 1_555
N17 C53 1_555 1_555
C53 C54 1_555 1_555
C54 H73 1_555 1_555
H74 C54 1_555 1_555
H75 C54 1_555 1_555
N18 C55 1_555 1_555
C55 C56 1_555 1_555
C56 H76 1_555 1_555
H77 C56 1_555 1_555
H78 C56 1_555 1_555
Cl1 O6 1_555 1_555
O7 Cl1 1_555 1_555
O8 Cl1 1_555 1_555
O9 Cl1 1_555 1_555
Cl2 O10 1_555 1_555
O11 Cl2 1_555 1_555
O12 Cl2 1_555 1_555
O13 Cl2 1_555 1_555
Cl3 O14 1_555 1_555
O15 Cl3 1_555 1_555
O16 Cl3 1_555 1_555
O17 Cl3 1_555 1_555
Cl4 O18 1_555 1_555
O19 Cl4 1_555 1_555
O20 Cl4 1_555 1_555
O21 Cl4 1_555 1_555
Cu2_2 N12 1_555 1_555
N12_2 Cu2 1_555 1_555
N1 C3 1_555 1_555
N3 C4 1_555 1_555
N10 C29 1_555 1_555
N11 C23 1_555 1_555
C5 C6 1_555 1_555
C13 C14 1_555 1_555
C20 C21 1_555 1_555
C24 C25 1_555 1_555
C30 C31 1_555 1_555
C35 C36 1_555 1_555
C43 C44 1_555 1_555

#END
