
#######################################################################
#
#                 Cambridge Crystallographic Data Centre
#                                CCDC 
#
#######################################################################
#
# If this CIF has been generated from an entry in the Cambridge 
# Structural Database, then it will include bibliographic, chemical, 
# crystal, experimental, refinement or atomic coordinate data resulting 
# from the CCDC's data processing and validation procedures.
#
#######################################################################

data_PETVUH
_symmetry_cell_setting           monoclinic
_symmetry_space_group_name_H-M   'P 21/c'
_symmetry_Int_Tables_number      14
_space_group_name_Hall           '-P 2ybc'
loop_
_symmetry_equiv_pos_site_id
_symmetry_equiv_pos_as_xyz
1 x,y,z
2 -x,1/2+y,1/2-z
3 -x,-y,-z
4 x,1/2-y,1/2+z
_cell_length_a                   8.3518(14)
_cell_length_b                   15.361(3)
_cell_length_c                   16.038(3)
_cell_angle_alpha                90
_cell_angle_beta                 100.053(2)
_cell_angle_gamma                90
_cell_volume                     2025.96
loop_
_atom_site_label
_atom_site_type_symbol
_atom_site_fract_x
_atom_site_fract_y
_atom_site_fract_z
Cd1 Cd 0.54643(2) 0.144183(14) 0.193160(13)
N1 N 0.3425(3) 0.18648(15) 0.26283(15)
N2 N -0.4343(3) 0.52965(15) 0.38678(15)
O1 O 0.7952(2) 0.08307(14) 0.19686(13)
O2 O 0.6937(2) 0.06260(14) 0.31285(13)
O3 O 1.3532(2) -0.21897(13) 0.30972(13)
O4 O 1.5429(2) -0.24922(13) 0.41864(12)
C1 C 0.8055(4) 0.05358(18) 0.2704(2)
C2 C 0.9605(3) 0.00808(17) 0.30789(19)
C3 C 1.0860(4) 0.00387(19) 0.26253(19)
H1 H 1.0714 0.0262 0.2078
C4 C 1.2322(4) -0.03291(19) 0.2972(2)
H2 H 1.3154 -0.0346 0.2655
C5 C 1.2590(4) -0.06740(18) 0.37791(19)
C6 C 1.1323(4) -0.0642(2) 0.42270(19)
H3 H 1.1464 -0.0872 0.4772
C7 C 0.9839(4) -0.02722(19) 0.38755(19)
H4 H 0.8996 -0.0264 0.4185
C8 C 1.4201(4) -0.10854(18) 0.41380(19)
H5 H 1.4302 -0.1123 0.4749
H6 H 1.5070 -0.0714 0.4014
C9 C 1.4403(4) -0.19885(19) 0.3786(2)
C10 C 0.2130(4) 0.2294(2) 0.22212(19)
H7 H 0.2089 0.2421 0.1651
C11 C 0.0858(3) 0.2559(2) 0.25986(19)
H8 H -0.0014 0.2858 0.2286
C12 C 0.0877(4) 0.2381(2) 0.34374(19)
C13 C 0.2233(4) 0.1964(2) 0.38643(19)
H9 H 0.2323 0.1855 0.4441
C14 C 0.3461(3) 0.17058(19) 0.34437(19)
H10 H 0.4349 0.1409 0.3744
C15 C -0.0605(4) 0.2595(2) 0.3850(2)
H11 H -0.1244 0.3037 0.3510
H12 H -0.1273 0.2076 0.3830
C16 C -0.0259(4) 0.2894(2) 0.4709(2)
H13 H 0.0402 0.3416 0.4730
H14 H 0.0381 0.2454 0.5050
C17 C -0.1756(4) 0.3097(2) 0.5102(2)
H15 H -0.2458 0.2590 0.5050
H16 H -0.1413 0.3216 0.5701
C18 C -0.2702(4) 0.3863(2) 0.4694(2)
C19 C -0.4004(4) 0.3764(2) 0.4064(2)
H17 H -0.4372 0.3208 0.3897
C20 C -0.4783(4) 0.4483(2) 0.3670(2)
H18 H -0.5671 0.4392 0.3241
C21 C -0.3119(4) 0.5385(2) 0.4505(2)
H19 H -0.2802 0.5946 0.4681
C22 C -0.2288(4) 0.4697(2) 0.4924(2)
H20 H -0.1434 0.4802 0.5368
Cd1A Cd -0.54643(2) 0.644183(14) 0.306840(13)
Cd1A_2 Cd 1.45357(2) -0.355817(14) 0.306840(13)
N2A N 0.4343(3) 0.02965(15) 0.11322(15)
O3A O 0.6468(2) 0.28103(13) 0.19028(13)
O4A O 0.4571(2) 0.25078(13) 0.08136(12)
loop_
_geom_bond_atom_site_label_1
_geom_bond_atom_site_label_2
_geom_bond_site_symmetry_1
_geom_bond_site_symmetry_2
Cd1 N1 1_555 1_555
N1 C10 1_555 1_555
N2 C20 1_555 1_555
O1 Cd1 1_555 1_555
O2 Cd1 1_555 1_555
O3 C9 1_555 1_555
O4 C9 1_555 1_555
C1 O1 1_555 1_555
C2 C1 1_555 1_555
C3 C2 1_555 1_555
H1 C3 1_555 1_555
C4 C3 1_555 1_555
H2 C4 1_555 1_555
C5 C4 1_555 1_555
C6 C5 1_555 1_555
H3 C6 1_555 1_555
C7 C2 1_555 1_555
H4 C7 1_555 1_555
C8 C5 1_555 1_555
H5 C8 1_555 1_555
H6 C8 1_555 1_555
C9 C8 1_555 1_555
C10 H7 1_555 1_555
C11 C10 1_555 1_555
H8 C11 1_555 1_555
C12 C11 1_555 1_555
C13 C12 1_555 1_555
H9 C13 1_555 1_555
C14 N1 1_555 1_555
H10 C14 1_555 1_555
C15 C12 1_555 1_555
H11 C15 1_555 1_555
H12 C15 1_555 1_555
C16 C15 1_555 1_555
H13 C16 1_555 1_555
H14 C16 1_555 1_555
C17 C16 1_555 1_555
H15 C17 1_555 1_555
H16 C17 1_555 1_555
C18 C17 1_555 1_555
C19 C18 1_555 1_555
H17 C19 1_555 1_555
C20 C19 1_555 1_555
H18 C20 1_555 1_555
C21 N2 1_555 1_555
H19 C21 1_555 1_555
C22 C18 1_555 1_555
H20 C22 1_555 1_555
Cd1A N2 1_555 1_555
Cd1A_2 O3 1_555 1_555
N2A Cd1 1_555 1_555
O3A Cd1 1_555 1_555
O4A Cd1 1_555 1_555
O2 C1 1_555 1_555
O4 Cd1A_2 1_555 1_555
C6 C7 1_555 1_555
C13 C14 1_555 1_555
C21 C22 1_555 1_555

#END
