
#######################################################################
#
#                 Cambridge Crystallographic Data Centre
#                                CCDC 
#
#######################################################################
#
# If this CIF has been generated from an entry in the Cambridge 
# Structural Database, then it will include bibliographic, chemical, 
# crystal, experimental, refinement or atomic coordinate data resulting 
# from the CCDC's data processing and validation procedures.
#
#######################################################################

data_PETXAO
_symmetry_cell_setting           triclinic
_symmetry_space_group_name_H-M   'P -1'
_symmetry_Int_Tables_number      2
_space_group_name_Hall           '-P 1'
loop_
_symmetry_equiv_pos_site_id
_symmetry_equiv_pos_as_xyz
1 x,y,z
2 -x,-y,-z
_cell_length_a                   10.087(7)
_cell_length_b                   12.830(9)
_cell_length_c                   14.545(11)
_cell_angle_alpha                114.598(10)
_cell_angle_beta                 92.552(10)
_cell_angle_gamma                108.515(10)
_cell_volume                     1588.5
loop_
_atom_site_label
_atom_site_type_symbol
_atom_site_fract_x
_atom_site_fract_y
_atom_site_fract_z
Zn1 Zn 0.63167(11) 0.59653(10) 0.35554(8)
Zn2 Zn 0.88475(10) 0.86629(9) 0.43916(8)
O1 O 0.9876(5) 0.9851(5) 0.5836(4)
O2 O 0.7013(7) 0.6633(6) 0.6010(5)
O3 O 0.7784(6) 0.7398(5) 0.4907(4)
O4 O 0.6300(7) 1.0947(5) 0.4476(5)
H1 H 0.6809 1.0627 0.4620
O5 O 0.5585(6) 0.7093(5) 0.3147(5)
O6 O 0.7068(6) 0.9079(5) 0.4218(4)
O7 O -0.0699(6) 0.2361(6) -0.4004(5)
O8 O 0.1428(6) 0.2872(5) -0.3048(4)
O9 O 0.4452(6) 0.5546(6) 0.4093(5)
H2 H 0.3793 0.5897 0.4043
H3 H 0.4273 0.5005 0.4384
N1 N 0.9655(8) 0.9500(7) 0.9579(5)
N2 N 0.1834(8) 0.7694(8) 0.0956(6)
N3 N 0.5504(8) 0.4580(7) 0.1959(6)
N4 N 0.7111(7) 0.4546(7) 0.3472(7)
C1 C 0.9866(9) 0.9683(7) 0.6694(6)
C2 C 0.7827(9) 0.7492(8) 0.5862(8)
C3 C 1.0808(9) 1.0669(8) 0.7659(7)
H4 H 1.1473 1.1348 0.7637
C4 C 0.8909(9) 0.8606(8) 0.6742(7)
C5 C 1.0783(9) 1.0666(8) 0.8611(7)
H5 H 1.1384 1.1338 0.9210
C6 C 0.8917(9) 0.8591(8) 0.7715(7)
H6 H 0.8315 0.7891 0.7745
C7 C 0.9818(9) 0.9612(8) 0.8645(7)
C8 C 0.4348(11) 1.0532(9) 0.3238(8)
H7 H 0.4526 1.1373 0.3547
C9 C 0.5216(10) 1.0055(9) 0.3622(7)
C10 C 0.5885(9) 0.8242(9) 0.3526(7)
C11 C 0.4955(9) 0.8786(8) 0.3167(7)
C12 C 0.3814(9) 0.7958(8) 0.2292(6)
H8 H 0.3642 0.7117 0.1984
C13 C 0.0272(11) 0.3106(9) -0.3162(8)
C14 C 0.8102(11) 0.2553(10) 0.3068(10)
H9 H 0.8431 0.1916 0.2942
C15 C 0.4179(12) 0.3621(10) 0.0170(9)
H10 H 0.3613 0.3670 -0.0322
C16 C 0.8431(11) 0.3513(11) 0.4048(10)
H11 H 0.8957 0.3517 0.4592
C17 C 0.5982(12) 0.1530(10) 0.0446(9)
H12 H 0.5697 0.0870 -0.0214
C18 C 0.4657(11) 0.4578(10) 0.1193(9)
H13 H 0.4380 0.5250 0.1358
C19 C 0.6857(12) 0.1535(10) 0.1185(10)
H14 H 0.7206 0.0903 0.1021
C20 C 0.7954(10) 0.4507(11) 0.4220(8)
H15 H 0.8230 0.5168 0.4879
C21 C 0.3209(11) 0.9699(10) 0.2377(8)
H16 H 0.2629 1.0003 0.2131
C22 C 0.4568(11) 0.2613(11) -0.0087(9)
H17 H 0.4236 0.1971 -0.0755
C23 C 0.5874(9) 0.3556(10) 0.1676(8)
C24 C 0.5490(11) 0.2522(10) 0.0663(9)
C25 C 0.7249(11) 0.2536(10) 0.2240(9)
C26 C 0.2928(10) 0.8417(9) 0.1881(7)
C27 C 0.6793(9) 0.3522(10) 0.2489(9)
C28 C 0.0033(9) 0.4175(8) -0.2348(7)
C29 C -0.1074(9) 0.4590(9) -0.2560(7)
C30 C -0.1155(10) 0.5661(10) -0.1814(8)
H18 H -0.1853 0.5927 -0.1968
O10 O -0.2040(6) 0.3911(6) -0.3505(5)
H19 H -0.1860 0.3304 -0.3863
N5 N 0.1845(8) 0.6641(7) 0.0391(6)
C31 C -0.0257(11) 0.6359(9) -0.0852(8)
H20 H -0.0343 0.7079 -0.0376
C32 C 0.0811(9) 0.5946(9) -0.0607(7)
C33 C 0.0915(8) 0.4894(9) -0.1326(7)
H21 H 0.1592 0.4624 -0.1147
Zn1A Zn 1.36833(11) 1.40347(10) 1.64446(8)
Zn1A_2 Zn 0.36833(11) 0.40347(10) -0.35554(8)
Zn2A Zn 1.11525(10) 1.13371(9) 1.56084(8)
Zn2A_2 Zn 1.11525(10) 1.13371(9) 0.56084(8)
Zn2A_3 Zn 0.11525(10) 0.13371(9) -0.43916(8)
Zn2_2 Zn 0.88475(10) 0.86629(9) 1.43916(8)
O1A O 1.0124(5) 1.0149(5) 1.4164(4)
O1A_2 O 1.0124(5) 1.0149(5) 0.4164(4)
O1_2 O 0.9876(5) 0.9851(5) 1.5836(4)
O2A O 1.2987(7) 1.3367(6) 1.3990(5)
O3A O 1.2216(6) 1.2602(5) 1.5093(4)
O4A O 0.3700(7) -0.0947(5) -0.4476(5)
H1A H 0.3191 -0.0627 -0.4620
O5A O 0.4415(6) 0.2907(5) -0.3147(5)
O5A_2 O 1.4415(6) 1.2907(5) 1.6853(5)
O6A O 0.2932(6) 0.0921(5) -0.4218(4)
O6A_2 O 1.2932(6) 1.0921(5) 1.5782(4)
O7A O 1.0699(6) 0.7639(6) 0.4004(5)
O8A O 0.8572(6) 0.7128(5) 0.3048(4)
O8_2 O 1.1428(6) 1.2872(5) 1.6952(4)
O9A O 1.5548(6) 1.4454(6) 1.5907(5)
H2A H 1.6207 1.4103 1.5957
H3A H 1.5727 1.4995 1.5616
N1A N 1.0345(8) 1.0500(7) 1.0421(5)
N2A N 0.8166(8) 0.2306(8) -0.0956(6)
N3A N 1.4496(8) 1.5420(7) 1.8041(6)
N4A N 1.2889(7) 1.5454(7) 1.6528(7)
C1A C 1.0134(9) 1.0317(7) 1.3306(6)
C2A C 1.2173(9) 1.2508(8) 1.4138(8)
C3A C 0.9192(9) 0.9331(8) 1.2341(7)
H4A H 0.8527 0.8652 1.2363
C4A C 1.1091(9) 1.1394(8) 1.3258(7)
C5A C 0.9217(9) 0.9334(8) 1.1389(7)
H5A H 0.8616 0.8662 1.0790
C6A C 1.1083(9) 1.1409(8) 1.2285(7)
H6A H 1.1685 1.2109 1.2255
C7A C 1.0182(9) 1.0388(8) 1.1355(7)
C8A C 0.5652(11) -0.0532(9) -0.3238(8)
H7A H 0.5474 -0.1373 -0.3547
C9A C 0.4784(10) -0.0055(9) -0.3622(7)
C10A C 0.4115(9) 0.1758(9) -0.3526(7)
C11A C 0.5045(9) 0.1214(8) -0.3167(7)
C12A C 0.6186(9) 0.2042(8) -0.2292(6)
H8A H 0.6358 0.2883 -0.1984
C13A C 0.9728(11) 0.6894(9) 0.3162(8)
C14A C 1.1898(11) 1.7447(10) 1.6932(10)
H9A H 1.1569 1.8084 1.7058
C15A C 1.5821(12) 1.6379(10) 1.9830(9)
H10A H 1.6387 1.6330 2.0322
C16A C 1.1569(11) 1.6487(11) 1.5952(10)
H11A H 1.1043 1.6483 1.5408
C17A C 1.4018(12) 1.8470(10) 1.9554(9)
H12A H 1.4303 1.9130 2.0214
C18A C 1.5343(11) 1.5422(10) 1.8807(9)
H13A H 1.5620 1.4750 1.8642
C19A C 1.3143(12) 1.8465(10) 1.8815(10)
H14A H 1.2794 1.9097 1.8979
C20A C 1.2046(10) 1.5493(11) 1.5780(8)
H15A H 1.1770 1.4832 1.5121
C21A C 0.6791(11) 0.0301(10) -0.2377(8)
H16A H 0.7371 -0.0003 -0.2131
C22A C 1.5432(11) 1.7387(11) 2.0087(9)
H17A H 1.5764 1.8029 2.0755
C23A C 1.4126(9) 1.6444(10) 1.8324(8)
C24A C 1.4510(11) 1.7478(10) 1.9337(9)
C25A C 1.2751(11) 1.7464(10) 1.7760(9)
C26A C 0.7072(10) 0.1583(9) -0.1881(7)
C27A C 1.3207(9) 1.6478(10) 1.7511(9)
C28A C 0.9967(9) 0.5825(8) 0.2348(7)
C29A C 1.1074(9) 0.5410(9) 0.2560(7)
C30A C 1.1155(10) 0.4339(10) 0.1814(8)
H18A H 1.1853 0.4073 0.1968
O10A O 1.2040(6) 0.6089(6) 0.3505(5)
H19A H 1.1860 0.6696 0.3863
N5A N 0.8155(8) 0.3359(7) -0.0391(6)
C31A C 1.0257(11) 0.3641(9) 0.0852(8)
H20A H 1.0343 0.2921 0.0376
C32A C 0.9189(9) 0.4054(9) 0.0607(7)
C33A C 0.9085(8) 0.5106(9) 0.1326(7)
H21A H 0.8408 0.5376 0.1147
loop_
_geom_bond_atom_site_label_1
_geom_bond_atom_site_label_2
_geom_bond_site_symmetry_1
_geom_bond_site_symmetry_2
Zn1 O3 1_555 1_555
Zn2 O1 1_555 1_555
O1 C1 1_555 1_555
O2 C2 1_555 1_555
O3 Zn2 1_555 1_555
O4 H1 1_555 1_555
O5 Zn1 1_555 1_555
O6 Zn2 1_555 1_555
O7 C13 1_555 1_555
O8 C13 1_555 1_555
O9 Zn1 1_555 1_555
H2 O9 1_555 1_555
H3 O9 1_555 1_555
N1 C7 1_555 1_555
N2 C26 1_555 1_555
N3 Zn1 1_555 1_555
N4 Zn1 1_555 1_555
C1 C3 1_555 1_555
C2 O3 1_555 1_555
C3 H4 1_555 1_555
C4 C1 1_555 1_555
C5 C3 1_555 1_555
H5 C5 1_555 1_555
C6 C4 1_555 1_555
H6 C6 1_555 1_555
C7 C5 1_555 1_555
C8 H7 1_555 1_555
C9 O4 1_555 1_555
C10 O5 1_555 1_555
C11 C9 1_555 1_555
C12 C11 1_555 1_555
H8 C12 1_555 1_555
C13 C28 1_555 1_555
C14 H9 1_555 1_555
C15 H10 1_555 1_555
C16 C14 1_555 1_555
H11 C16 1_555 1_555
C17 H12 1_555 1_555
C18 N3 1_555 1_555
H13 C18 1_555 1_555
C19 C17 1_555 1_555
H14 C19 1_555 1_555
C20 N4 1_555 1_555
H15 C20 1_555 1_555
C21 C8 1_555 1_555
H16 C21 1_555 1_555
C22 C15 1_555 1_555
H17 C22 1_555 1_555
C23 N3 1_555 1_555
C24 C17 1_555 1_555
C25 C14 1_555 1_555
C26 C12 1_555 1_555
C27 N4 1_555 1_555
C28 C29 1_555 1_555
C29 C30 1_555 1_555
C30 H18 1_555 1_555
O10 C29 1_555 1_555
H19 O10 1_555 1_555
N5 N2 1_555 1_555
C31 C30 1_555 1_555
H20 C31 1_555 1_555
C32 N5 1_555 1_555
C33 C28 1_555 1_555
H21 C33 1_555 1_555
Zn1A O3A 1_555 1_555
Zn1A_2 O5A 1_555 1_555
Zn2A O1A 1_555 1_555
Zn2A_2 O1 1_555 1_555
Zn2A_3 O8 1_555 1_555
Zn2_2 O1A 1_555 1_555
O1A C1A 1_555 1_555
O1A_2 Zn2 1_555 1_555
O1_2 Zn2A 1_555 1_555
O2A C2A 1_555 1_555
O3A Zn2A 1_555 1_555
O4A H1A 1_555 1_555
O5A C10A 1_555 1_555
O5A_2 Zn1A 1_555 1_555
O6A Zn2A_3 1_555 1_555
O6A_2 Zn2A 1_555 1_555
O7A C13A 1_555 1_555
O8A Zn2 1_555 1_555
O8_2 Zn2A 1_555 1_555
O9A Zn1A 1_555 1_555
H2A O9A 1_555 1_555
H3A O9A 1_555 1_555
N1A N1 1_555 1_555
N2A C26A 1_555 1_555
N3A Zn1A 1_555 1_555
N4A Zn1A 1_555 1_555
C1A C3A 1_555 1_555
C2A O3A 1_555 1_555
C3A H4A 1_555 1_555
C4A C1A 1_555 1_555
C5A C3A 1_555 1_555
H5A C5A 1_555 1_555
C6A C4A 1_555 1_555
H6A C6A 1_555 1_555
C7A N1A 1_555 1_555
C8A H7A 1_555 1_555
C9A O4A 1_555 1_555
C10A O6A 1_555 1_555
C11A C9A 1_555 1_555
C12A C11A 1_555 1_555
H8A C12A 1_555 1_555
C13A O8A 1_555 1_555
C14A H9A 1_555 1_555
C15A H10A 1_555 1_555
C16A C14A 1_555 1_555
H11A C16A 1_555 1_555
C17A H12A 1_555 1_555
C18A N3A 1_555 1_555
H13A C18A 1_555 1_555
C19A C17A 1_555 1_555
H14A C19A 1_555 1_555
C20A N4A 1_555 1_555
H15A C20A 1_555 1_555
C21A C8A 1_555 1_555
H16A C21A 1_555 1_555
C22A C15A 1_555 1_555
H17A C22A 1_555 1_555
C23A N3A 1_555 1_555
C24A C17A 1_555 1_555
C25A C14A 1_555 1_555
C26A C12A 1_555 1_555
C27A N4A 1_555 1_555
C28A C13A 1_555 1_555
C29A C28A 1_555 1_555
C30A C29A 1_555 1_555
H18A C30A 1_555 1_555
O10A C29A 1_555 1_555
H19A O10A 1_555 1_555
N5A N2A 1_555 1_555
C31A C30A 1_555 1_555
H20A C31A 1_555 1_555
C32A N5A 1_555 1_555
C33A C28A 1_555 1_555
H21A C33A 1_555 1_555
O6 C10 1_555 1_555
C2 C4 1_555 1_555
C6 C7 1_555 1_555
C8 C9 1_555 1_555
C10 C11 1_555 1_555
C15 C18 1_555 1_555
C16 C20 1_555 1_555
C19 C25 1_555 1_555
C21 C26 1_555 1_555
C22 C24 1_555 1_555
C23 C24 1_555 1_555
C23 C27 1_555 1_555
C25 C27 1_555 1_555
C31 C32 1_555 1_555
C32 C33 1_555 1_555
Zn2A_2 O1A_2 1_555 1_555
Zn2_2 O1_2 1_555 1_555
C2A C4A 1_555 1_555
C5A C7A 1_555 1_555
C6A C7A 1_555 1_555
C8A C9A 1_555 1_555
C10A C11A 1_555 1_555
C15A C18A 1_555 1_555
C16A C20A 1_555 1_555
C19A C25A 1_555 1_555
C21A C26A 1_555 1_555
C22A C24A 1_555 1_555
C23A C24A 1_555 1_555
C23A C27A 1_555 1_555
C25A C27A 1_555 1_555
C31A C32A 1_555 1_555
C32A C33A 1_555 1_555

#END
