
#######################################################################
#
#                 Cambridge Crystallographic Data Centre
#                                CCDC 
#
#######################################################################
#
# If this CIF has been generated from an entry in the Cambridge 
# Structural Database, then it will include bibliographic, chemical, 
# crystal, experimental, refinement or atomic coordinate data resulting 
# from the CCDC's data processing and validation procedures.
#
#######################################################################

data_PETXIW01
_symmetry_cell_setting           monoclinic
_symmetry_space_group_name_H-M   'C 2/c'
_symmetry_Int_Tables_number      15
_space_group_name_Hall           '-C 2yn'
loop_
_symmetry_equiv_pos_site_id
_symmetry_equiv_pos_as_xyz
1 x,y,z
2 1/2+x,1/2+y,z
3 -x,y,1/2-z
4 1/2-x,1/2+y,1/2-z
5 -x,-y,-z
6 1/2-x,1/2-y,-z
7 x,-y,1/2+z
8 1/2+x,1/2-y,1/2+z
_cell_length_a                   23.6340(17)
_cell_length_b                   12.7986(10)
_cell_length_c                   14.2943(11)
_cell_angle_alpha                90
_cell_angle_beta                 125.7110(10)
_cell_angle_gamma                90
_cell_volume                     3510.78
loop_
_atom_site_label
_atom_site_type_symbol
_atom_site_fract_x
_atom_site_fract_y
_atom_site_fract_z
Cd1 Cd 0.035066(10) 0.669877(14) 0.157938(17)
C1 C -0.08354(16) 0.8521(2) 0.0625(3)
H1 H -0.1135 0.7954 0.0395
C2 C -0.11150(18) 0.9521(3) 0.0350(3)
H2 H -0.1594 0.9616 -0.0056
C3 C -0.0690(2) 1.0356(3) 0.0671(3)
H3 H -0.0876 1.1027 0.0485
C4 C 0.00321(19) 1.0207(2) 0.1289(3)
C5 C 0.0515(2) 1.1051(3) 0.1651(3)
H4 H 0.0352 1.1735 0.1486
C6 C 0.1198(2) 1.0871(3) 0.2224(3)
H5 H 0.1500 1.1434 0.2442
C7 C 0.14750(18) 0.9835(2) 0.2508(3)
C8 C 0.2189(2) 0.9603(3) 0.3106(3)
H6 H 0.2509 1.0138 0.3316
C9 C 0.24077(19) 0.8605(3) 0.3371(3)
H7 H 0.2879 0.8447 0.3775
C10 C 0.19207(16) 0.7812(3) 0.3035(3)
H8 H 0.2079 0.7126 0.3226
C11 C 0.10195(15) 0.8987(2) 0.2184(2)
C12 C 0.02779(15) 0.9175(2) 0.1541(2)
C13 C 0.13363(12) 0.62729(19) -0.0092(2)
C14 C 0.12586(13) 0.54686(19) -0.0820(2)
C15 C 0.16770(14) 0.5479(2) -0.1209(3)
H9 H 0.1636 0.4942 -0.1683
C16 C 0.21520(15) 0.6268(2) -0.0904(3)
H10 H 0.2419 0.6262 -0.1190
C17 C 0.22399(13) 0.7077(2) -0.0176(2)
C18 C 0.18248(13) 0.70541(19) 0.0221(2)
H11 H 0.1876 0.7581 0.0714
C19 C 0.09457(13) 0.6332(2) 0.0437(2)
C20 C 0.07377(13) 0.4616(2) -0.1179(2)
N1 N -0.01562(12) 0.83417(16) 0.1206(2)
N2 N 0.12458(12) 0.79878(17) 0.2457(2)
O1 O 0.04674(10) 0.69992(15) 0.00514(17)
O2 O 0.11540(10) 0.57887(14) 0.13138(17)
O3 O 0.02405(9) 0.47887(14) -0.11070(16)
O4 O 0.08203(9) 0.37595(14) -0.15271(16)
Cd1E Cd 0.464934(10) 0.830123(14) -0.157938(17)
Cd1D Cd -0.035066(10) 0.330123(14) -0.157938(17)
Cd1F Cd 0.035066(10) 0.330123(14) -0.342062(17)
Cd1A Cd 0.535066(10) 1.169877(14) 0.157938(17)
Cd1C Cd 0.464934(10) 1.169877(14) 0.342062(17)
C1E C 0.58354(16) 0.6479(2) -0.0625(3)
H1E H 0.6135 0.7046 -0.0395
C2E C 0.61150(18) 0.5479(3) -0.0350(3)
H2E H 0.6594 0.5384 0.0056
C3E C 0.5690(2) 0.4644(3) -0.0671(3)
H3E H 0.5876 0.3973 -0.0485
C4E C 0.49679(19) 0.4793(2) -0.1289(3)
C5E C 0.4485(2) 0.3949(3) -0.1651(3)
H4E H 0.4648 0.3265 -0.1486
C6E C 0.3802(2) 0.4129(3) -0.2224(3)
H5E H 0.3500 0.3566 -0.2442
C7E C 0.35250(18) 0.5165(2) -0.2508(3)
C8E C 0.2811(2) 0.5397(3) -0.3106(3)
H6E H 0.2491 0.4862 -0.3316
C9E C 0.25923(19) 0.6395(3) -0.3371(3)
H7E H 0.2121 0.6553 -0.3775
C10E C 0.30793(16) 0.7188(3) -0.3035(3)
H8E H 0.2921 0.7874 -0.3226
C11E C 0.39805(15) 0.6013(2) -0.2184(2)
C12E C 0.47221(15) 0.5825(2) -0.1541(2)
C13E C 0.36637(12) 0.87271(19) 0.0092(2)
C14E C 0.37414(13) 0.95314(19) 0.0820(2)
C15E C 0.33230(14) 0.9521(2) 0.1209(3)
H9E H 0.3364 1.0058 0.1683
C16E C 0.28480(15) 0.8732(2) 0.0904(3)
H10E H 0.2581 0.8738 0.1190
C17E C 0.27601(13) 0.7923(2) 0.0176(2)
C18E C 0.31752(13) 0.79459(19) -0.0221(2)
H11E H 0.3124 0.7419 -0.0714
C19E C 0.40543(13) 0.8668(2) -0.0437(2)
C20E C 0.42623(13) 1.0384(2) 0.1179(2)
N1E N 0.51562(12) 0.66583(16) -0.1206(2)
N2E N 0.37542(12) 0.70122(17) -0.2457(2)
O1E O 0.45326(10) 0.80008(15) -0.00514(17)
O2E O 0.38460(10) 0.92113(14) -0.13138(17)
O3E O 0.47595(9) 1.02113(14) 0.11070(16)
O3D O -0.02405(9) 0.52113(14) 0.11070(16)
O3A O 0.52405(9) 0.97887(14) -0.11070(16)
O4E O 0.41797(9) 1.12405(14) 0.15271(16)
O4F O 0.08203(9) 0.62405(14) 0.34729(16)
O4C O 0.41797(9) 0.87595(14) -0.34729(16)
O5 O 0.09964(17) 0.3493(2) 0.1122(3)
H12 H 0.105(2) 0.416(4) 0.126(4)
H13 H 0.061(3) 0.343(4) 0.100(5)
loop_
_geom_bond_atom_site_label_1
_geom_bond_atom_site_label_2
_geom_bond_site_symmetry_1
_geom_bond_site_symmetry_2
Cd1 N1 1_555 1_555
C1 H1 1_555 1_555
C2 C1 1_555 1_555
H2 C2 1_555 1_555
C3 C2 1_555 1_555
H3 C3 1_555 1_555
C4 C3 1_555 1_555
C5 C4 1_555 1_555
H4 C5 1_555 1_555
C6 C5 1_555 1_555
H5 C6 1_555 1_555
C7 C6 1_555 1_555
C8 C7 1_555 1_555
H6 C8 1_555 1_555
C9 C8 1_555 1_555
H7 C9 1_555 1_555
C10 C9 1_555 1_555
H8 C10 1_555 1_555
C11 C7 1_555 1_555
C12 C4 1_555 1_555
C13 C14 1_555 1_555
C14 C15 1_555 1_555
C15 H9 1_555 1_555
C16 C15 1_555 1_555
H10 C16 1_555 1_555
C17 C16 1_555 1_555
C18 C13 1_555 1_555
H11 C18 1_555 1_555
C19 C13 1_555 1_555
C20 C14 1_555 1_555
N1 C1 1_555 1_555
N2 Cd1 1_555 1_555
O1 Cd1 1_555 1_555
O2 Cd1 1_555 1_555
O3 C20 1_555 1_555
O4 C20 1_555 1_555
O5 H12 1_555 1_555
H13 O5 1_555 1_555
Cd1E N1E 1_555 1_555
Cd1D O3 1_555 1_555
Cd1F O4 1_555 1_555
Cd1A O3E 1_555 1_555
Cd1C O4E 1_555 1_555
C1E H1E 1_555 1_555
C2E C1E 1_555 1_555
H2E C2E 1_555 1_555
C3E C2E 1_555 1_555
H3E C3E 1_555 1_555
C4E C3E 1_555 1_555
C5E C4E 1_555 1_555
H4E C5E 1_555 1_555
C6E C5E 1_555 1_555
H5E C6E 1_555 1_555
C7E C6E 1_555 1_555
C8E C7E 1_555 1_555
H6E C8E 1_555 1_555
C9E C8E 1_555 1_555
H7E C9E 1_555 1_555
C10E C9E 1_555 1_555
H8E C10E 1_555 1_555
C11E C7E 1_555 1_555
C12E C4E 1_555 1_555
C13E C14E 1_555 1_555
C14E C15E 1_555 1_555
C15E H9E 1_555 1_555
C16E C15E 1_555 1_555
H10E C16E 1_555 1_555
C17E C17 1_555 1_555
C18E C13E 1_555 1_555
H11E C18E 1_555 1_555
C19E C13E 1_555 1_555
C20E C14E 1_555 1_555
N1E C1E 1_555 1_555
N2E Cd1E 1_555 1_555
O1E Cd1E 1_555 1_555
O2E Cd1E 1_555 1_555
O3E C20E 1_555 1_555
O3D Cd1 1_555 1_555
O3A Cd1E 1_555 1_555
O4E C20E 1_555 1_555
O4F Cd1 1_555 1_555
O4C Cd1E 1_555 1_555
C10 N2 1_555 1_555
C11 C12 1_555 1_555
C11 N2 1_555 1_555
C12 N1 1_555 1_555
C17 C18 1_555 1_555
C19 O1 1_555 1_555
C19 O2 1_555 1_555
C10E N2E 1_555 1_555
C11E C12E 1_555 1_555
C11E N2E 1_555 1_555
C12E N1E 1_555 1_555
C16E C17E 1_555 1_555
C17E C18E 1_555 1_555
C19E O1E 1_555 1_555
C19E O2E 1_555 1_555

#END
