
#######################################################################
#
#                 Cambridge Crystallographic Data Centre
#                                CCDC 
#
#######################################################################
#
# If this CIF has been generated from an entry in the Cambridge 
# Structural Database, then it will include bibliographic, chemical, 
# crystal, experimental, refinement or atomic coordinate data resulting 
# from the CCDC's data processing and validation procedures.
#
#######################################################################

data_PEVBIC
_symmetry_cell_setting           triclinic
_symmetry_space_group_name_H-M   'P -1'
_symmetry_Int_Tables_number      2
_space_group_name_Hall           '-P 1'
loop_
_symmetry_equiv_pos_site_id
_symmetry_equiv_pos_as_xyz
1 x,y,z
2 -x,-y,-z
_cell_length_a                   8.0205(2)
_cell_length_b                   10.7058(4)
_cell_length_c                   11.7723(3)
_cell_angle_alpha                83.606(11)
_cell_angle_beta                 71.540(9)
_cell_angle_gamma                80.642(11)
_cell_volume                     944.127
loop_
_atom_site_label
_atom_site_type_symbol
_atom_site_fract_x
_atom_site_fract_y
_atom_site_fract_z
Ag1 Ag 0.62431(3) 0.85606(2) -0.45096(2)
Ag2 Ag 0.85505(4) 0.88099(3) -0.28034(2)
S1 S 0.94635(10) 0.74984(7) -0.46331(7)
S2 S 0.41161(11) 1.05180(7) -0.33985(7)
N1 N 1.1747(4) 0.9030(3) -0.6302(3)
N2 N 0.1109(4) 0.9261(3) -0.2437(3)
N3 N 0.5069(3) 0.6724(2) -0.3684(2)
N4 N 0.3465(3) 0.5175(2) -0.3450(2)
N5 N -0.6509(3) 0.1588(2) 0.1086(2)
N6 N -0.3808(3) 0.1677(2) -0.0141(2)
C1 C 1.0792(4) 0.8427(3) -0.5606(3)
C2 C 0.2327(4) 0.9782(3) -0.2860(3)
C3 C 0.3706(4) 0.6363(3) -0.3888(3)
H1 H 0.304(5) 0.683(3) -0.428(3)
C4 C 0.4770(5) 0.4755(3) -0.2933(3)
H2 H 0.484(6) 0.407(4) -0.257(4)
C5 C 0.5739(5) 0.5708(3) -0.3077(3)
H3 H 0.675(6) 0.565(4) -0.289(3)
C6 C 0.2084(5) 0.4478(3) -0.3543(3)
H4 H 0.162(6) 0.495(4) -0.421(4)
H5 H 0.280(5) 0.362(4) -0.385(3)
C7 C 0.0601(4) 0.4356(3) -0.2384(3)
C8 C -0.0275(5) 0.5387(3) -0.1723(3)
H6 H 0.020(5) 0.614(3) -0.186(3)
C9 C -0.1681(5) 0.5252(3) -0.0706(3)
H7 H -0.221(5) 0.589(4) -0.028(4)
C10 C -0.2252(5) 0.4076(3) -0.0331(3)
H8 H -0.319(4) 0.394(2) 0.030(2)
C11 C -0.1386(4) 0.3028(3) -0.0968(3)
C12 C 0.0023(4) 0.3175(3) -0.2001(3)
H9 H 0.066(4) 0.250(3) -0.247(3)
C13 C -0.1902(4) 0.1711(3) -0.0542(3)
H10 H -0.154(5) 0.146(3) 0.017(4)
H11 H -0.139(5) 0.111(3) -0.122(3)
C14 C -0.4863(4) 0.1691(3) 0.1006(2)
H12 H -0.454(4) 0.180(3) 0.169(3)
C15 C -0.6494(5) 0.1509(3) -0.0076(3)
H13 H -0.753(5) 0.142(3) -0.024(3)
C16 C -0.4848(5) 0.1562(3) -0.0836(3)
H14 H -0.437(5) 0.151(3) -0.165(3)
Ag1A Ag 0.37569(3) 1.14394(2) -0.54904(2)
Ag2A Ag 1.14495(4) 1.11901(3) -0.71966(2)
Ag2_2 Ag -0.14495(4) 0.88099(3) -0.28034(2)
Ag2A_2 Ag -0.85505(4) 0.11901(3) 0.28034(2)
S2A S 0.58839(11) 0.94820(7) -0.66015(7)
N1A N 0.8253(4) 1.0970(3) -0.3698(3)
N2_2 N 1.1109(4) 0.9261(3) -0.2437(3)
N5A N 0.6509(3) 0.8412(2) -0.1086(2)
loop_
_geom_bond_atom_site_label_1
_geom_bond_atom_site_label_2
_geom_bond_site_symmetry_1
_geom_bond_site_symmetry_2
Ag1 S1 1_555 1_555
Ag2 S1 1_555 1_555
S1 C1 1_555 1_555
S2 Ag1 1_555 1_555
N1 C1 1_555 1_555
N2 C2 1_555 1_555
N3 Ag1 1_555 1_555
N4 C3 1_555 1_555
N5 C14 1_555 1_555
N6 C13 1_555 1_555
C2 S2 1_555 1_555
C3 N3 1_555 1_555
H1 C3 1_555 1_555
C4 N4 1_555 1_555
H2 C4 1_555 1_555
C5 N3 1_555 1_555
H3 C5 1_555 1_555
C6 N4 1_555 1_555
H4 C6 1_555 1_555
H5 C6 1_555 1_555
C7 C6 1_555 1_555
C8 C7 1_555 1_555
H6 C8 1_555 1_555
C9 C8 1_555 1_555
H7 C9 1_555 1_555
C10 C9 1_555 1_555
H8 C10 1_555 1_555
C11 C10 1_555 1_555
C12 C7 1_555 1_555
H9 C12 1_555 1_555
C13 C11 1_555 1_555
H10 C13 1_555 1_555
H11 C13 1_555 1_555
C14 N6 1_555 1_555
H12 C14 1_555 1_555
C15 N5 1_555 1_555
H13 C15 1_555 1_555
C16 N6 1_555 1_555
H14 C16 1_555 1_555
Ag1A S2 1_555 1_555
Ag2A N1 1_555 1_555
Ag2_2 N2 1_555 1_555
Ag2A_2 N5 1_555 1_555
S2A Ag1 1_555 1_555
N1A Ag2 1_555 1_555
N2_2 Ag2 1_555 1_555
N5A Ag2 1_555 1_555
C4 C5 1_555 1_555
C11 C12 1_555 1_555
C15 C16 1_555 1_555
Ag1A S2A 1_555 1_555

#END
