
#######################################################################
#
#                 Cambridge Crystallographic Data Centre
#                                CCDC 
#
#######################################################################
#
# If this CIF has been generated from an entry in the Cambridge 
# Structural Database, then it will include bibliographic, chemical, 
# crystal, experimental, refinement or atomic coordinate data resulting 
# from the CCDC's data processing and validation procedures.
#
#######################################################################

data_PEVKUY
_symmetry_cell_setting           monoclinic
_symmetry_space_group_name_H-M   'P 21/c'
_symmetry_Int_Tables_number      14
_space_group_name_Hall           '-P 2ybc'
loop_
_symmetry_equiv_pos_site_id
_symmetry_equiv_pos_as_xyz
1 x,y,z
2 -x,1/2+y,1/2-z
3 -x,-y,-z
4 x,1/2-y,1/2+z
_cell_length_a                   8.8839(5)
_cell_length_b                   15.4942(11)
_cell_length_c                   8.8941(6)
_cell_angle_alpha                90
_cell_angle_beta                 100.575(6)
_cell_angle_gamma                90
_cell_volume                     1203.47
loop_
_atom_site_label
_atom_site_type_symbol
_atom_site_fract_x
_atom_site_fract_y
_atom_site_fract_z
Yb1 Yb 1.04631(3) 0.12559(2) 0.50698(3)
C1 C 0.6834(7) 0.0888(4) 0.9871(6)
C2 C 0.6743(7) 0.1336(4) 1.1262(7)
C3 C 0.5360(7) 0.1704(4) 1.1421(7)
H1 H 0.5280 0.1973 1.2338
C4 C 0.4091(7) 0.1683(5) 1.0254(7)
H2 H 0.3184 0.1950 1.0374
C5 C 0.4195(7) 0.1252(5) 0.8886(7)
C6 C 0.5560(7) 0.0853(4) 0.8721(7)
H3 H 0.5615 0.0559 0.7822
C7 C 0.8345(8) -0.0011(4) 0.8489(7)
H4 H 0.7356 -0.0263 0.8076
H5 H 0.9053 -0.0480 0.8818
C8 C 0.8904(7) 0.0492(4) 0.7242(6)
C9 C 0.8064(7) 0.1370(4) 1.2573(7)
C10 C 0.2858(7) 0.1258(5) 0.7562(7)
O1 O 0.8204(5) 0.0512(3) 0.9800(4)
O2 O 0.9101(5) 0.1287(3) 0.7299(5)
O3 O 0.9278(4) 0.0062(3) 0.6140(4)
O4 O 0.9415(5) 0.1498(3) 1.2365(5)
O5 O 0.7827(5) 0.1301(3) 1.3936(4)
O6 O 0.2110(5) 0.1953(3) 0.7266(4)
O7 O 0.2537(5) 0.0597(3) 0.6770(5)
O8 O 1.2486(5) 0.1565(3) 0.3931(5)
H6 H 1.3388 0.1378 0.4272
H7 H 1.2410 0.2090 0.3639
O9 O 1.0057(5) 0.2706(3) 0.4897(4)
H8 H 0.9836 0.3032 0.5636
H9 H 0.9693 0.2947 0.4024
Yb1_2 Yb 0.04631(3) 0.12559(2) 0.50698(3)
Yb1_3 Yb 1.04631(3) 0.12559(2) 1.50698(3)
Yb1B Yb 0.95369(3) -0.12559(2) 0.49302(3)
O3B O 1.0722(4) -0.0062(3) 0.3860(4)
O4_2 O 0.9415(5) 0.1498(3) 0.2365(5)
O5_2 O 0.7827(5) 0.1301(3) 0.3936(4)
O6_2 O 1.2110(5) 0.1953(3) 0.7266(4)
O7_2 O 1.2537(5) 0.0597(3) 0.6770(5)
O10 O 0.5396(11) 0.1138(9) 0.5141(11)
O11? O 0.5162(14) 0.0673(8) 0.4729(12)
loop_
_geom_bond_atom_site_label_1
_geom_bond_atom_site_label_2
_geom_bond_site_symmetry_1
_geom_bond_site_symmetry_2
Yb1 O2 1_555 1_555
C1 C2 1_555 1_555
C2 C3 1_555 1_555
C3 H1 1_555 1_555
C4 C3 1_555 1_555
H2 C4 1_555 1_555
C5 C4 1_555 1_555
C6 C1 1_555 1_555
H3 C6 1_555 1_555
C7 H4 1_555 1_555
H5 C7 1_555 1_555
C8 C7 1_555 1_555
C9 C2 1_555 1_555
C10 C5 1_555 1_555
O1 C1 1_555 1_555
O2 C8 1_555 1_555
O3 Yb1 1_555 1_555
O4 C9 1_555 1_555
O5 C9 1_555 1_555
O6 C10 1_555 1_555
O7 C10 1_555 1_555
O8 Yb1 1_555 1_555
H6 O8 1_555 1_555
H7 O8 1_555 1_555
O9 Yb1 1_555 1_555
H8 O9 1_555 1_555
H9 O9 1_555 1_555
Yb1_2 O6 1_555 1_555
Yb1_3 O4 1_555 1_555
Yb1B O3 1_555 1_555
O3B Yb1 1_555 1_555
O4_2 Yb1 1_555 1_555
O5_2 Yb1 1_555 1_555
O6_2 Yb1 1_555 1_555
O7_2 Yb1 1_555 1_555
C5 C6 1_555 1_555
C7 O1 1_555 1_555
C8 O3 1_555 1_555
O5 Yb1_3 1_555 1_555
O7 Yb1_2 1_555 1_555
Yb1B O3B 1_555 1_555

#END
