
#######################################################################
#
#                 Cambridge Crystallographic Data Centre
#                                CCDC 
#
#######################################################################
#
# If this CIF has been generated from an entry in the Cambridge 
# Structural Database, then it will include bibliographic, chemical, 
# crystal, experimental, refinement or atomic coordinate data resulting 
# from the CCDC's data processing and validation procedures.
#
#######################################################################

data_PEVKOR
_symmetry_cell_setting           monoclinic
_symmetry_space_group_name_H-M   'C 2/c'
_symmetry_Int_Tables_number      15
_space_group_name_Hall           '-C 2yn'
loop_
_symmetry_equiv_pos_site_id
_symmetry_equiv_pos_as_xyz
1 x,y,z
2 1/2+x,1/2+y,z
3 -x,y,1/2-z
4 1/2-x,1/2+y,1/2-z
5 -x,-y,-z
6 1/2-x,1/2-y,-z
7 x,-y,1/2+z
8 1/2+x,1/2-y,1/2+z
_cell_length_a                   8.8140(9)
_cell_length_b                   14.4718(15)
_cell_length_c                   14.8049(17)
_cell_angle_alpha                90
_cell_angle_beta                 102.187(3)
_cell_angle_gamma                90
_cell_volume                     1845.87
loop_
_atom_site_label
_atom_site_type_symbol
_atom_site_fract_x
_atom_site_fract_y
_atom_site_fract_z
Zn1 Zn 0.25511(5) 0.17257(3) 0.06770(3)
O1 O 0.2765(5) 0.2841(2) 0.1562(2)
O2 O 0.2599(5) 0.3970(2) 0.0530(2)
O3 O 0.0271(3) 0.2015(3) 0.0317(3)
O4 O 0.0155(4) 0.3137(2) -0.0706(3)
N1 N 0.2501(4) 0.5695(2) 0.3400(2)
C1 C 0.2674(5) 0.3667(3) 0.1323(3)
C2 C 0.2624(5) 0.4370(3) 0.2065(3)
C3 C 0.3122(7) 0.4179(3) 0.2987(3)
H1 H 0.3503 0.3596 0.3176
C4 C 0.3056(7) 0.4855(3) 0.3631(3)
H2 H 0.3414 0.4718 0.4254
C5 C 0.1970(7) 0.5869(3) 0.2510(3)
H3 H 0.1551 0.6449 0.2340
C6 C 0.2012(7) 0.5228(3) 0.1825(3)
H4 H 0.1630 0.5376 0.1208
C7 C -0.0436(5) 0.2602(3) -0.0218(3)
C8 C -0.2130(5) 0.2702(3) -0.0274(3)
H5 H -0.2689 0.3080 -0.0735
Zn1E Zn 0.24489(5) 0.32743(3) -0.06770(3)
Zn1C Zn 0.24489(5) 0.67257(3) 0.43230(3)
Zn1E_2 Zn -0.75511(5) 0.32743(3) -0.06770(3)
Zn1_2 Zn -0.74489(5) 0.17257(3) 0.06770(3)
Zn1F Zn 0.25511(5) -0.17257(3) -0.43230(3)
O1E O 0.2235(5) 0.2159(2) -0.1562(2)
O2E O 0.2401(5) 0.1030(2) -0.0530(2)
O3E O -0.5271(3) 0.2985(3) -0.0317(3)
O3E_2 O 0.4729(3) 0.2985(3) -0.0317(3)
O4E O -0.5155(4) 0.1863(2) 0.0706(3)
O4E_2 O 0.4845(4) 0.1863(2) 0.0706(3)
N1E N 0.2499(4) -0.0695(2) -0.3400(2)
N1C N 0.2499(4) 0.0695(2) 0.1600(2)
N1F N 0.2501(4) 0.4305(2) -0.1600(2)
C1E C 0.2326(5) 0.1333(3) -0.1323(3)
C2E C 0.2376(5) 0.0630(3) -0.2065(3)
C3E C 0.1878(7) 0.0821(3) -0.2987(3)
H1E H 0.1497 0.1404 -0.3176
C4E C 0.1944(7) 0.0145(3) -0.3631(3)
H2E H 0.1586 0.0282 -0.4254
C5E C 0.3030(7) -0.0869(3) -0.2510(3)
H3E H 0.3449 -0.1449 -0.2340
C6E C 0.2988(7) -0.0228(3) -0.1825(3)
H4E H 0.3370 -0.0376 -0.1208
C7E C -0.4564(5) 0.2398(3) 0.0218(3)
C8E C -0.2870(5) 0.2298(3) 0.0274(3)
H5E H -0.2311 0.1920 0.0735
loop_
_geom_bond_atom_site_label_1
_geom_bond_atom_site_label_2
_geom_bond_site_symmetry_1
_geom_bond_site_symmetry_2
Zn1 O1 1_555 1_555
O1 C1 1_555 1_555
O2 C1 1_555 1_555
O3 Zn1 1_555 1_555
O4 C7 1_555 1_555
N1 C4 1_555 1_555
C1 C2 1_555 1_555
C2 C3 1_555 1_555
C3 H1 1_555 1_555
C4 C3 1_555 1_555
H2 C4 1_555 1_555
C5 N1 1_555 1_555
H3 C5 1_555 1_555
C6 C2 1_555 1_555
H4 C6 1_555 1_555
C7 O3 1_555 1_555
C8 C7 1_555 1_555
H5 C8 1_555 1_555
Zn1E O2 1_555 1_555
Zn1C N1 1_555 1_555
Zn1E_2 O3E 1_555 1_555
Zn1_2 O4E 1_555 1_555
Zn1F N1E 1_555 1_555
O1E Zn1E 1_555 1_555
O2E Zn1 1_555 1_555
O3E C7E 1_555 1_555
O3E_2 Zn1E 1_555 1_555
O4E C7E 1_555 1_555
O4E_2 Zn1 1_555 1_555
N1E C4E 1_555 1_555
N1C Zn1 1_555 1_555
N1F Zn1E 1_555 1_555
C1E O1E 1_555 1_555
C2E C1E 1_555 1_555
C3E C2E 1_555 1_555
H1E C3E 1_555 1_555
C4E C3E 1_555 1_555
H2E C4E 1_555 1_555
C5E N1E 1_555 1_555
H3E C5E 1_555 1_555
C6E C2E 1_555 1_555
H4E C6E 1_555 1_555
C7E C8E 1_555 1_555
C8E C8 1_555 1_555
H5E C8E 1_555 1_555
O4 Zn1E 1_555 1_555
C5 C6 1_555 1_555
O2E C1E 1_555 1_555
C5E C6E 1_555 1_555

#END
