
#######################################################################
#
#                 Cambridge Crystallographic Data Centre
#                                CCDC 
#
#######################################################################
#
# If this CIF has been generated from an entry in the Cambridge 
# Structural Database, then it will include bibliographic, chemical, 
# crystal, experimental, refinement or atomic coordinate data resulting 
# from the CCDC's data processing and validation procedures.
#
#######################################################################

data_PEVLUZ
_symmetry_cell_setting           monoclinic
_symmetry_space_group_name_H-M   'P 21/c'
_symmetry_Int_Tables_number      14
_space_group_name_Hall           '-P 2ybc'
loop_
_symmetry_equiv_pos_site_id
_symmetry_equiv_pos_as_xyz
1 x,y,z
2 -x,1/2+y,1/2-z
3 -x,-y,-z
4 x,1/2-y,1/2+z
_cell_length_a                   8.93845(13)
_cell_length_b                   15.6658(2)
_cell_length_c                   8.88816(16)
_cell_angle_alpha                90
_cell_angle_beta                 100.6480(15)
_cell_angle_gamma                90
_cell_volume                     1223.16
loop_
_atom_site_label
_atom_site_type_symbol
_atom_site_fract_x
_atom_site_fract_y
_atom_site_fract_z
Ho1 Ho 1.047330(19) 0.374058(12) 0.50652(2)
C1 C 0.6837(4) 0.4102(3) -0.0128(5)
C2 C 0.6753(4) 0.3671(3) 0.1237(5)
C3 C 0.5389(5) 0.3294(3) 0.1400(5)
H1 H 0.5318 0.3021 0.2313
C4 C 0.4126(5) 0.3317(3) 0.0223(5)
H2 H 0.3220 0.3055 0.0338
C5 C 0.4235(5) 0.3736(3) -0.1120(5)
C6 C 0.5591(5) 0.4136(3) -0.1288(5)
H3 H 0.5649 0.4427 -0.2188
C7 C 0.8333(5) 0.4998(3) -0.1510(5)
H4 H 0.9022 0.5468 -0.1179
H5 H 0.7344 0.5239 -0.1930
C8 C 0.8909(4) 0.4509(3) -0.2759(5)
C9 C 0.8060(4) 0.3622(3) 0.2555(5)
C10 C 0.2909(4) 0.3743(3) -0.2430(5)
O1 O 0.8200(3) 0.4490(2) -0.0217(4)
O2 O 0.9260(3) 0.49407(17) -0.3850(3)
O3 O 0.9103(4) 0.37252(18) -0.2698(4)
O4 O 0.9406(3) 0.35020(18) 0.2349(3)
O5 O 0.7814(3) 0.3690(2) 0.3896(4)
O6 O 0.2137(3) 0.30637(19) -0.2737(4)
O7 O 0.2585(3) 0.43958(19) -0.3233(4)
O8 O 1.0061(3) 0.22825(19) 0.4890(4)
H6 H 0.9822 0.2015 0.5648
H7 H 0.9722 0.2018 0.4064
O9 O 1.2506(3) 0.3418(2) 0.3882(4)
H8 H 1.2453 0.2960 0.3385
H9 H 1.3405 0.3594 0.4155
Ho1_2 Ho 0.047330(19) 0.374058(12) -0.49348(2)
Ho1_3 Ho 1.047330(19) 0.374058(12) -0.49348(2)
Ho1B Ho 0.952670(19) 0.625942(12) -0.50652(2)
O2_2 O 0.9260(3) 0.49407(17) 0.6150(3)
O2B O 1.0740(3) 0.50593(17) 0.3850(3)
O3_2 O 0.9103(4) 0.37252(18) 0.7302(4)
O6_2 O 1.2137(3) 0.30637(19) 0.7263(4)
O7_2 O 1.2585(3) 0.43958(19) 0.6767(4)
O10 O 0.5362(12) 0.3876(8) 0.5110(13)
O11? O 0.5186(14) 0.4317(7) 0.4669(15)
loop_
_geom_bond_atom_site_label_1
_geom_bond_atom_site_label_2
_geom_bond_site_symmetry_1
_geom_bond_site_symmetry_2
Ho1 O4 1_555 1_555
C1 C2 1_555 1_555
C2 C3 1_555 1_555
C3 H1 1_555 1_555
C4 C3 1_555 1_555
H2 C4 1_555 1_555
C5 C4 1_555 1_555
C6 C1 1_555 1_555
H3 C6 1_555 1_555
C7 H4 1_555 1_555
H5 C7 1_555 1_555
C8 C7 1_555 1_555
C9 C2 1_555 1_555
C10 C5 1_555 1_555
O1 C1 1_555 1_555
O2 C8 1_555 1_555
O3 C8 1_555 1_555
O4 C9 1_555 1_555
O5 Ho1 1_555 1_555
O6 C10 1_555 1_555
O7 C10 1_555 1_555
O8 Ho1 1_555 1_555
H6 O8 1_555 1_555
H7 O8 1_555 1_555
O9 Ho1 1_555 1_555
H8 O9 1_555 1_555
H9 O9 1_555 1_555
Ho1_2 O6 1_555 1_555
Ho1_3 O2 1_555 1_555
Ho1B O2 1_555 1_555
O2_2 Ho1 1_555 1_555
O2B Ho1 1_555 1_555
O3_2 Ho1 1_555 1_555
O6_2 Ho1 1_555 1_555
O7_2 Ho1 1_555 1_555
C5 C6 1_555 1_555
C7 O1 1_555 1_555
C9 O5 1_555 1_555
O3 Ho1_3 1_555 1_555
O7 Ho1_2 1_555 1_555

#END
