
#######################################################################
#
#                 Cambridge Crystallographic Data Centre
#                                CCDC 
#
#######################################################################
#
# If this CIF has been generated from an entry in the Cambridge 
# Structural Database, then it will include bibliographic, chemical, 
# crystal, experimental, refinement or atomic coordinate data resulting 
# from the CCDC's data processing and validation procedures.
#
#######################################################################

data_PEVMAG
_symmetry_cell_setting           monoclinic
_symmetry_space_group_name_H-M   'P 21/c'
_symmetry_Int_Tables_number      14
_space_group_name_Hall           '-P 2ybc'
loop_
_symmetry_equiv_pos_site_id
_symmetry_equiv_pos_as_xyz
1 x,y,z
2 -x,1/2+y,1/2-z
3 -x,-y,-z
4 x,1/2-y,1/2+z
_cell_length_a                   8.9811(3)
_cell_length_b                   15.7995(6)
_cell_length_c                   8.9343(3)
_cell_angle_alpha                90
_cell_angle_beta                 100.505(3)
_cell_angle_gamma                90
_cell_volume                     1246.5
loop_
_atom_site_label
_atom_site_type_symbol
_atom_site_fract_x
_atom_site_fract_y
_atom_site_fract_z
Gd1 Gd 0.54886(2) 0.126745(16) 1.00601(2)
C1 C 0.1852(5) 0.0895(3) 0.4858(5)
C2 C 0.1760(5) 0.1330(3) 0.6218(5)
C3 C 0.0409(5) 0.1706(3) 0.6381(5)
H1 H 0.0338 0.1976 0.7290
C4 C -0.0847(6) 0.1690(4) 0.5213(5)
H2 H -0.1741 0.1959 0.5325
C5 C -0.0741(5) 0.1263(3) 0.3872(5)
C6 C 0.0600(5) 0.0864(3) 0.3714(5)
H3 H 0.0652 0.0571 0.2822
C7 C 0.3340(5) 0.0004(3) 0.3502(5)
H4 H 0.2359 -0.0237 0.3084
H5 H 0.4030 -0.0459 0.3833
C8 C 0.3916(5) 0.0497(3) 0.2256(5)
C9 C 0.3074(5) 0.1379(3) 0.7526(5)
C10 C -0.2072(5) 0.1258(3) 0.2574(5)
O1 O 0.3203(4) 0.0513(2) 0.4782(3)
O2 O 0.4110(4) 0.1267(2) 0.2318(4)
O3 O 0.4236(3) 0.0061(2) 0.1161(3)
O4 O 0.4413(4) 0.1497(2) 0.7332(3)
O5 O 0.2805(4) 0.1319(2) 0.8864(3)
O6 O -0.2823(4) 0.1938(2) 0.2270(4)
O7 O -0.2387(4) 0.0607(2) 0.1796(4)
O8 O 0.7547(4) 0.1579(2) 0.8845(4)
H6 H 0.8444 0.1405 0.9157
H7 H 0.7541 0.2062 0.8434
O9 O 0.5081(4) 0.2740(2) 0.9880(3)
H8 H 0.4869 0.3002 1.0628
H9 H 0.4680 0.2981 0.9045
Gd1_2 Gd -0.45114(2) 0.126745(16) 0.00601(2)
Gd1_3 Gd 0.54886(2) 0.126745(16) 0.00601(2)
Gd1B Gd 0.45114(2) -0.126745(16) -0.00601(2)
O2_2 O 0.4110(4) 0.1267(2) 1.2318(4)
O3_2 O 0.4236(3) 0.0061(2) 1.1161(3)
O3B O 0.5764(3) -0.0061(2) 0.8839(3)
O6_2 O 0.7177(4) 0.1938(2) 1.2270(4)
O7_2 O 0.7613(4) 0.0607(2) 1.1796(4)
O10 O 0.0202(17) 0.4309(8) 0.4635(15)
O11? O 0.0379(14) 0.3901(8) 0.5092(13)
loop_
_geom_bond_atom_site_label_1
_geom_bond_atom_site_label_2
_geom_bond_site_symmetry_1
_geom_bond_site_symmetry_2
Gd1 O4 1_555 1_555
C1 C2 1_555 1_555
C2 C3 1_555 1_555
C3 H1 1_555 1_555
C4 C3 1_555 1_555
H2 C4 1_555 1_555
C5 C4 1_555 1_555
C6 C1 1_555 1_555
H3 C6 1_555 1_555
C7 H4 1_555 1_555
H5 C7 1_555 1_555
C8 C7 1_555 1_555
C9 C2 1_555 1_555
C10 C5 1_555 1_555
O1 C1 1_555 1_555
O2 C8 1_555 1_555
O3 C8 1_555 1_555
O4 C9 1_555 1_555
O5 Gd1 1_555 1_555
O6 C10 1_555 1_555
O7 C10 1_555 1_555
O8 Gd1 1_555 1_555
H6 O8 1_555 1_555
H7 O8 1_555 1_555
O9 Gd1 1_555 1_555
H8 O9 1_555 1_555
H9 O9 1_555 1_555
Gd1_2 O6 1_555 1_555
Gd1_3 O2 1_555 1_555
Gd1B O3 1_555 1_555
O2_2 Gd1 1_555 1_555
O3_2 Gd1 1_555 1_555
O3B Gd1 1_555 1_555
O6_2 Gd1 1_555 1_555
O7_2 Gd1 1_555 1_555
C5 C6 1_555 1_555
C7 O1 1_555 1_555
C9 O5 1_555 1_555
O3 Gd1_3 1_555 1_555
O7 Gd1_2 1_555 1_555

#END
