
#######################################################################
#
#                 Cambridge Crystallographic Data Centre
#                                CCDC 
#
#######################################################################
#
# If this CIF has been generated from an entry in the Cambridge 
# Structural Database, then it will include bibliographic, chemical, 
# crystal, experimental, refinement or atomic coordinate data resulting 
# from the CCDC's data processing and validation procedures.
#
#######################################################################

data_PEVYUL
_symmetry_cell_setting           monoclinic
_symmetry_space_group_name_H-M   'P 2/n'
_symmetry_Int_Tables_number      13
_space_group_name_Hall           '-P 2yac'
loop_
_symmetry_equiv_pos_site_id
_symmetry_equiv_pos_as_xyz
1 x,y,z
2 1/2-x,y,1/2-z
3 -x,-y,-z
4 1/2+x,-y,1/2+z
_cell_length_a                   10.812(2)
_cell_length_b                   6.2260(12)
_cell_length_c                   19.627(4)
_cell_angle_alpha                90
_cell_angle_beta                 98.11(3)
_cell_angle_gamma                90
_cell_volume                     1307.99
loop_
_atom_site_label
_atom_site_type_symbol
_atom_site_fract_x
_atom_site_fract_y
_atom_site_fract_z
O3 O 0.2500 0.1700 0.2500
H8 H 0.3249 0.2386 0.2465
C12 C 0.2894 0.1197 0.3127
H9 H 0.3065 0.2482 0.3395
H10 H 0.3645 0.0362 0.3146
H11 H 0.2267 0.0371 0.3310
H8A H 0.1751 0.2386 0.2535
C12A C 0.2106 0.1197 0.1873
H9A H 0.1935 0.2482 0.1605
H10A H 0.1355 0.0362 0.1854
H11A H 0.2733 0.0371 0.1690
Hg1 Hg 0.7500 0.25431(7) 0.2500
I1 I 0.75070(7) 0.39011(10) 0.37749(2)
O1 O 1.1560(4) 0.1239(10) 0.4909(3)
O2 O 1.3306(4) -0.4730(10) 0.4104(3)
N1 N 0.9080(5) -0.0229(12) 0.2729(3)
N2 N 1.2139(5) -0.1969(11) 0.4463(3)
C1 C 0.9398(9) -0.1418(18) 0.2225(4)
H1 H 0.9049 -0.1083 0.1777
C2 C 1.0192(9) -0.308(2) 0.2319(5)
H2 H 1.0406 -0.3852 0.1947
C3 C 1.0695(8) -0.3612(17) 0.3001(5)
H3 H 1.1247 -0.4759 0.3084
C4 C 1.0378(7) -0.2472(13) 0.3532(4)
C5 C 0.9551(6) -0.0771(13) 0.3357(4)
H4 H 0.9316 0.0042 0.3715
C6 C 1.0894(7) -0.2938(15) 0.4256(4)
H5 H 1.0955 -0.4481 0.4319
H6 H 1.0322 -0.2397 0.4554
C7 C 1.3247(7) -0.2979(13) 0.4378(3)
C8 C 1.4267(6) -0.1583(12) 0.4682(3)
C9 C 1.3759(6) 0.0267(13) 0.4934(3)
C10 C 1.2342(6) 0.0012(14) 0.4776(3)
C11 C 1.5545(6) -0.1865(13) 0.4738(3)
H7 H 1.5901 -0.3067 0.4563
Hg1C Hg 2.2500 -0.25431(7) 0.7500
I1A I 0.74930(7) 0.39011(10) 0.12251(2)
O1B O 1.8440(4) -0.1239(10) 0.5091(3)
O2B O 1.6694(4) 0.4730(10) 0.5896(3)
N1B N 2.0920(5) 0.0229(12) 0.7271(3)
N1A N 0.5920(5) -0.0229(12) 0.2271(3)
N2B N 1.7861(5) 0.1969(11) 0.5537(3)
C1B C 2.0602(9) 0.1418(18) 0.7775(4)
H1B H 2.0951 0.1083 0.8223
C2B C 1.9808(9) 0.308(2) 0.7681(5)
H2B H 1.9594 0.3852 0.8053
C3B C 1.9305(8) 0.3612(17) 0.6999(5)
H3B H 1.8753 0.4759 0.6916
C4B C 1.9622(7) 0.2472(13) 0.6468(4)
C5B C 2.0449(6) 0.0771(13) 0.6643(4)
H4B H 2.0684 -0.0042 0.6285
C6B C 1.9106(7) 0.2938(15) 0.5744(4)
H5B H 1.9045 0.4481 0.5681
H6B H 1.9678 0.2397 0.5446
C7B C 1.6753(7) 0.2979(13) 0.5622(3)
C8B C 1.5733(6) 0.1583(12) 0.5318(3)
C9B C 1.6241(6) -0.0267(13) 0.5066(3)
C10B C 1.7658(6) -0.0012(14) 0.5224(3)
C11B C 1.4455(6) 0.1865(13) 0.5262(3)
H7B H 1.4099 0.3067 0.5437
loop_
_geom_bond_atom_site_label_1
_geom_bond_atom_site_label_2
_geom_bond_site_symmetry_1
_geom_bond_site_symmetry_2
Hg1 I1 1_555 1_555
O1 C10 1_555 1_555
O2 C7 1_555 1_555
N1 Hg1 1_555 1_555
N2 C6 1_555 1_555
C1 N1 1_555 1_555
H1 C1 1_555 1_555
C2 C1 1_555 1_555
H2 C2 1_555 1_555
C3 C2 1_555 1_555
H3 C3 1_555 1_555
C4 C3 1_555 1_555
C5 N1 1_555 1_555
H4 C5 1_555 1_555
C6 C4 1_555 1_555
H5 C6 1_555 1_555
H6 C6 1_555 1_555
C7 N2 1_555 1_555
C8 C7 1_555 1_555
C9 C8 1_555 1_555
C10 N2 1_555 1_555
C11 C8 1_555 1_555
H7 C11 1_555 1_555
O3 H8 1_555 1_555
C12 O3 1_555 1_555
H9 C12 1_555 1_555
H10 C12 1_555 1_555
H11 C12 1_555 1_555
Hg1C N1B 1_555 1_555
I1A Hg1 1_555 1_555
O1B C10B 1_555 1_555
O2B C7B 1_555 1_555
N1B C1B 1_555 1_555
N1A Hg1 1_555 1_555
N2B C6B 1_555 1_555
C1B H1B 1_555 1_555
C2B C1B 1_555 1_555
H2B C2B 1_555 1_555
C3B C2B 1_555 1_555
H3B C3B 1_555 1_555
C4B C3B 1_555 1_555
C5B N1B 1_555 1_555
H4B C5B 1_555 1_555
C6B C4B 1_555 1_555
H5B C6B 1_555 1_555
H6B C6B 1_555 1_555
C7B N2B 1_555 1_555
C8B C7B 1_555 1_555
C9B C11 1_555 1_555
C10B N2B 1_555 1_555
C11B C9 1_555 1_555
H7B C11B 1_555 1_555
H8A O3 1_555 1_555
C12A O3 1_555 1_555
H9A C12A 1_555 1_555
H10A C12A 1_555 1_555
H11A C12A 1_555 1_555
C4 C5 1_555 1_555
C9 C10 1_555 1_555
C4B C5B 1_555 1_555
C8B C9B 1_555 1_555
C8B C11B 1_555 1_555
C9B C10B 1_555 1_555

#END
