
#######################################################################
#
#                 Cambridge Crystallographic Data Centre
#                                CCDC 
#
#######################################################################
#
# If this CIF has been generated from an entry in the Cambridge 
# Structural Database, then it will include bibliographic, chemical, 
# crystal, experimental, refinement or atomic coordinate data resulting 
# from the CCDC's data processing and validation procedures.
#
#######################################################################

data_PEWBOJ
_symmetry_cell_setting           monoclinic
_symmetry_space_group_name_H-M   'C 2/c'
_symmetry_Int_Tables_number      15
_space_group_name_Hall           '-C 2yn'
loop_
_symmetry_equiv_pos_site_id
_symmetry_equiv_pos_as_xyz
1 x,y,z
2 1/2+x,1/2+y,z
3 -x,y,1/2-z
4 1/2-x,1/2+y,1/2-z
5 -x,-y,-z
6 1/2-x,1/2-y,-z
7 x,-y,1/2+z
8 1/2+x,1/2-y,1/2+z
_cell_length_a                   16.372(3)
_cell_length_b                   17.534(4)
_cell_length_c                   10.867(2)
_cell_angle_alpha                90
_cell_angle_beta                 116.330(3)
_cell_angle_gamma                90
_cell_volume                     2795.91
loop_
_atom_site_label
_atom_site_type_symbol
_atom_site_fract_x
_atom_site_fract_y
_atom_site_fract_z
O3 O 0.6728(4) 0.5377(3) 0.5357(6)
O4 O 0.8291(4) 0.9009(3) 0.8357(7)
O5 O 0.5140(5) 0.6253(4) 0.3790(8)
Cu1 Cu 0.5000 0.88723(4) 0.2500
N1 N 0.4204(2) 0.88156(17) 0.3436(3)
N2 N 0.4005(2) 1.01396(17) 0.3546(4)
H1 H 0.3737 1.0471 0.3826
N3 N 0.5000 1.0031(2) 0.2500
N4 N 0.4499(2) 1.12158(17) 0.3011(3)
O1 O 0.5834(2) 0.80380(17) 0.3857(3)
O2 O 0.6809(3) 0.89065(19) 0.5205(5)
C1 C 0.4001(3) 0.8104(2) 0.3711(4)
H2 H 0.4277 0.7691 0.3508
C2 C 0.3417(3) 0.7961(3) 0.4268(5)
H3 H 0.3295 0.7464 0.4433
C3 C 0.3013(3) 0.8569(3) 0.4581(5)
H4 H 0.2608 0.8489 0.4956
C4 C 0.3212(3) 0.9295(3) 0.4332(5)
H5 H 0.2949 0.9713 0.4545
C5 C 0.3813(3) 0.9399(2) 0.3755(4)
C6 C 0.4521(2) 1.0461(2) 0.2998(4)
C7 C 0.5000 1.1577(3) 0.2500
C8 C 0.5000 1.2415(3) 0.2500
C9 C 0.5597(3) 1.2815(3) 0.2166(5)
H6 H 0.6003 1.2553 0.1934
C10 C 0.5598(4) 1.3599(3) 0.2174(6)
H7 H 0.6009 1.3864 0.1956
C11 C 0.5000 1.3994(4) 0.2500
H8 H 0.5000 1.4524 0.2500
C12 C 0.6589(3) 0.8240(2) 0.4794(5)
C13 C 0.7281(3) 0.7609(3) 0.5456(5)
H9 H 0.7739 0.7756 0.6374
O6 O 0.6818(7) 0.6929(5) 0.5499(13)
H10 H 0.6270 0.7016 0.5188
Cu1G Cu 1.0000 0.61277(4) 0.7500
N1B N 0.5796(2) 0.88156(17) 0.1564(3)
N2B N 0.5995(2) 1.01396(17) 0.1454(4)
H1B H 0.6263 1.0471 0.1174
N4B N 0.5501(2) 1.12158(17) 0.1989(3)
O1E O 0.9166(2) 0.69620(17) 0.6143(3)
O1B O 0.4166(2) 0.80380(17) 0.1143(3)
O2E O 0.8191(3) 0.60935(19) 0.4795(5)
C1B C 0.5999(3) 0.8104(2) 0.1289(4)
H2B H 0.5723 0.7691 0.1492
C2B C 0.6583(3) 0.7961(3) 0.0732(5)
H3B H 0.6705 0.7464 0.0567
C3B C 0.6987(3) 0.8569(3) 0.0419(5)
H4B H 0.7392 0.8489 0.0044
C4B C 0.6788(3) 0.9295(3) 0.0668(5)
H5B H 0.7051 0.9713 0.0455
C5B C 0.6187(3) 0.9399(2) 0.1245(4)
C6B C 0.5479(2) 1.0461(2) 0.2002(4)
C9B C 0.4403(3) 1.2815(3) 0.2834(5)
H6B H 0.3997 1.2553 0.3066
C10B C 0.4402(4) 1.3599(3) 0.2826(6)
H7B H 0.3991 1.3864 0.3044
C12E C 0.8411(3) 0.6760(2) 0.5206(5)
C13E C 0.7719(3) 0.7391(3) 0.4544(5)
H9E H 0.7261 0.7244 0.3626
O6E O 0.8182(7) 0.8071(5) 0.4501(13)
H10E H 0.8730 0.7984 0.4812
loop_
_geom_bond_atom_site_label_1
_geom_bond_atom_site_label_2
_geom_bond_site_symmetry_1
_geom_bond_site_symmetry_2
Cu1 N1 1_555 1_555
N1 C1 1_555 1_555
N2 H1 1_555 1_555
N3 Cu1 1_555 1_555
N4 C6 1_555 1_555
O1 Cu1 1_555 1_555
O2 C12 1_555 1_555
C1 H2 1_555 1_555
C2 C1 1_555 1_555
H3 C2 1_555 1_555
C3 C2 1_555 1_555
H4 C3 1_555 1_555
C4 C3 1_555 1_555
H5 C4 1_555 1_555
C5 N1 1_555 1_555
C6 N2 1_555 1_555
C7 N4 1_555 1_555
C8 C7 1_555 1_555
C9 C8 1_555 1_555
H6 C9 1_555 1_555
C10 C9 1_555 1_555
H7 C10 1_555 1_555
C11 C10 1_555 1_555
H8 C11 1_555 1_555
C12 O1 1_555 1_555
C13 C12 1_555 1_555
H9 C13 1_555 1_555
O6 C13 1_555 1_555
H10 O6 1_555 1_555
Cu1G O1E 1_555 1_555
N1B Cu1 1_555 1_555
N2B H1B 1_555 1_555
N4B C7 1_555 1_555
O1E C12E 1_555 1_555
O1B Cu1 1_555 1_555
O2E C12E 1_555 1_555
C1B N1B 1_555 1_555
H2B C1B 1_555 1_555
C2B C1B 1_555 1_555
H3B C2B 1_555 1_555
C3B C2B 1_555 1_555
H4B C3B 1_555 1_555
C4B C3B 1_555 1_555
H5B C4B 1_555 1_555
C5B N1B 1_555 1_555
C6B N3 1_555 1_555
C9B C8 1_555 1_555
H6B C9B 1_555 1_555
C10B C11 1_555 1_555
H7B C10B 1_555 1_555
C12E C13E 1_555 1_555
C13E C13 1_555 1_555
H9E C13E 1_555 1_555
O6E C13E 1_555 1_555
H10E O6E 1_555 1_555
N2 C5 1_555 1_555
N3 C6 1_555 1_555
C4 C5 1_555 1_555
N2B C5B 1_555 1_555
N2B C6B 1_555 1_555
N4B C6B 1_555 1_555
C4B C5B 1_555 1_555
C9B C10B 1_555 1_555

#END
