
#######################################################################
#
#                 Cambridge Crystallographic Data Centre
#                                CCDC 
#
#######################################################################
#
# If this CIF has been generated from an entry in the Cambridge 
# Structural Database, then it will include bibliographic, chemical, 
# crystal, experimental, refinement or atomic coordinate data resulting 
# from the CCDC's data processing and validation procedures.
#
#######################################################################

data_PEWCUR
_symmetry_cell_setting           monoclinic
_symmetry_space_group_name_H-M   'P 21'
_symmetry_Int_Tables_number      4
_space_group_name_Hall           'P 2yb'
loop_
_symmetry_equiv_pos_site_id
_symmetry_equiv_pos_as_xyz
1 x,y,z
2 -x,1/2+y,-z
_cell_length_a                   10.971(1)
_cell_length_b                   13.423(1)
_cell_length_c                   13.540(1)
_cell_angle_alpha                90
_cell_angle_beta                 105.030(5)
_cell_angle_gamma                90
_cell_volume                     1925.74
loop_
_atom_site_label
_atom_site_type_symbol
_atom_site_fract_x
_atom_site_fract_y
_atom_site_fract_z
Br1 Br 1.07158 1.96569 0.40725
Br2 Br -0.04535 1.98521 0.07046
Zn1 Zn 0.37145 1.76122 0.22965
Zn2 Zn 0.64527 1.73940 0.27890
O1 O 0.40021 2.09339 0.71255
O2 O 0.59003 2.13175 0.69058
O3 O 0.59827 1.88067 0.24581
O4 O 0.39031 1.89707 0.17764
O5 O 0.40339 1.81807 0.37229
O6 O 0.57835 2.18689 -0.11862
O7 O 0.59745 1.74976 0.41157
O8 O 0.37141 2.20556 -0.12924
N1 N 0.82837 1.73385 0.33413
N2 N 0.18948 1.75358 0.17490
C1 C 0.46226 1.93383 0.55443
C2 C 0.52573 1.96133 0.66869
C3 C 0.87469 1.82503 0.35209
C4 C 0.14636 1.84403 0.14655
C5 C 0.31770 1.91926 0.52807
C6 C 0.49097 2.01515 0.48320
C7 C 1.00404 1.83605 0.38020
C8 C 0.01757 1.85670 0.11234
C9 C 0.50339 2.07071 0.69296
C10 C 0.66719 1.93682 0.68049
C11 C 1.08232 1.75458 0.38935
C12 C -0.06340 1.77753 0.10780
C13 C 0.47274 1.89616 0.74362
C14 C 0.52846 2.04337 0.05301
C15 C 1.02811 1.66227 0.37061
C16 C -0.01238 1.68576 0.13737
C17 C 0.52047 2.03722 0.16672
C18 C 0.65514 2.00889 0.03468
C19 C 0.89884 1.65156 0.34206
C20 C 0.11632 1.67345 0.17198
C21 C 0.42215 1.98054 -0.01600
C22 C 0.50189 1.92989 0.19984
C23 C 0.40741 2.10646 0.16796
C24 C 0.64362 2.07719 0.24210
C25 C 0.50971 1.79739 0.43511
C26 C 0.48323 2.18562 -0.08001
C27 C 0.53063 1.83365 0.54440
C28 C 0.50778 2.15741 0.03197
C29 C 0.67012 1.85356 0.60134
C30 C 0.40046 2.18471 0.08204
H1 H 0.27796 1.97977 0.54551
H2 H 0.29770 1.86285 0.56716
H3 H 0.28579 1.90570 0.45476
H4 H 0.82044 1.88113 0.34575
H5 H 0.20246 1.89854 0.14973
H6 H 0.46065 1.99338 0.41190
H7 H 0.58220 2.02666 0.49947
H8 H 0.44825 2.07700 0.49299
H9 H 0.71823 1.87576 0.55274
H10 H 1.17149 1.76215 0.40815
H11 H -0.15222 1.78630 0.08479
H12 H 0.70991 1.79241 0.63626
H13 H 0.70732 1.91341 0.75080
H14 H 1.08028 1.60495 0.37734
H15 H -0.06639 1.62992 0.13401
H16 H 0.71293 1.99664 0.66666
H17 H 0.47767 1.82561 0.72636
H18 H 0.86088 1.58766 0.32851
H19 H 0.15204 1.60996 0.19303
H20 H 0.38462 1.91427 0.73766
H21 H 0.52290 1.90767 0.81402
H22 H 0.67260 1.94029 0.05885
H23 H 0.72314 2.05266 0.07207
H24 H 0.65009 2.01207 -0.03859
H25 H 0.42073 1.99167 -0.08786
H26 H 0.34086 2.00020 -0.00466
H27 H 0.43741 1.90989 0.00067
H28 H 0.31754 2.18161 0.03097
H29 H 0.41278 2.25283 0.11101
H30 H 0.42107 2.13968 0.23528
H31 H 0.32805 2.06767 0.15478
H32 H 0.66352 2.14329 0.21974
H33 H 0.71345 2.03145 0.24293
H34 H 0.63105 2.08203 0.31111
H35 H 0.49744 1.78155 0.58338
H36 H 0.58591 2.19286 0.07039
Zn1A Zn 0.62855 2.26122 -0.22965
Zn1A_2 Zn 0.62855 2.26122 0.77035
Zn2A Zn 0.35473 2.23940 -0.27890
Zn2A_2 Zn 0.35473 2.23940 0.72110
O1A O 0.59979 1.59339 0.28745
O2A O 0.40997 1.63175 0.30942
O6A O 0.42165 1.68689 0.11862
O8A O 0.62859 1.70556 0.12924
O9 O -1.06590 -0.79763 -0.76432
N3 N -1.02777 -0.63288 -0.75845
C31 C -1.07224 -0.71568 -0.80497
C32 C -0.95313 -0.63176 -0.65429
C33 C -1.04514 -0.53822 -0.81241
H37 H -1.11184 -0.71199 -0.87449
H38 H -1.10881 -0.54526 -0.87577
H39 H -0.96709 -0.51832 -0.82611
H40 H -1.07099 -0.48857 -0.77100
H41 H -0.96726 -0.69212 -0.62089
H42 H -0.97679 -0.57563 -0.61941
H43 H -0.86541 -0.62677 -0.65290
loop_
_geom_bond_atom_site_label_1
_geom_bond_atom_site_label_2
_geom_bond_site_symmetry_1
_geom_bond_site_symmetry_2
Br1 C7 1_555 1_555
Br2 C8 1_555 1_555
Zn1 O4 1_555 1_555
Zn2 O3 1_555 1_555
O1 C9 1_555 1_555
O2 C9 1_555 1_555
O3 C22 1_555 1_555
O4 C22 1_555 1_555
O5 Zn1 1_555 1_555
O6 C26 1_555 1_555
O7 Zn2 1_555 1_555
O8 C26 1_555 1_555
N1 Zn2 1_555 1_555
N2 Zn1 1_555 1_555
C1 C2 1_555 1_555
C2 C9 1_555 1_555
C3 N1 1_555 1_555
C4 N2 1_555 1_555
C5 C1 1_555 1_555
C6 C1 1_555 1_555
C7 C3 1_555 1_555
C8 C4 1_555 1_555
C10 C2 1_555 1_555
C11 C7 1_555 1_555
C12 C8 1_555 1_555
C13 C2 1_555 1_555
C14 C17 1_555 1_555
C15 C11 1_555 1_555
C16 C12 1_555 1_555
C17 C22 1_555 1_555
C18 C14 1_555 1_555
C19 N1 1_555 1_555
C20 N2 1_555 1_555
C21 C14 1_555 1_555
C23 C17 1_555 1_555
C24 C17 1_555 1_555
C25 O5 1_555 1_555
C26 C28 1_555 1_555
C27 C1 1_555 1_555
C28 C14 1_555 1_555
C29 C10 1_555 1_555
C30 C23 1_555 1_555
H1 C5 1_555 1_555
H2 C5 1_555 1_555
H3 C5 1_555 1_555
H4 C3 1_555 1_555
H5 C4 1_555 1_555
H6 C6 1_555 1_555
H7 C6 1_555 1_555
H8 C6 1_555 1_555
H9 C29 1_555 1_555
H10 C11 1_555 1_555
H11 C12 1_555 1_555
H12 C29 1_555 1_555
H13 C10 1_555 1_555
H14 C15 1_555 1_555
H15 C16 1_555 1_555
H16 C10 1_555 1_555
H17 C13 1_555 1_555
H18 C19 1_555 1_555
H19 C20 1_555 1_555
H20 C13 1_555 1_555
H21 C13 1_555 1_555
H22 C18 1_555 1_555
H23 C18 1_555 1_555
H24 C18 1_555 1_555
H25 C21 1_555 1_555
H26 C21 1_555 1_555
H27 C21 1_555 1_555
H28 C30 1_555 1_555
H29 C30 1_555 1_555
H30 C23 1_555 1_555
H31 C23 1_555 1_555
H32 C24 1_555 1_555
H33 C24 1_555 1_555
H34 C24 1_555 1_555
H35 C27 1_555 1_555
H36 C28 1_555 1_555
O9 C31 1_555 1_555
N3 C31 1_555 1_555
C31 H37 1_555 1_555
C32 N3 1_555 1_555
C33 N3 1_555 1_555
H38 C33 1_555 1_555
H39 C33 1_555 1_555
H40 C33 1_555 1_555
H41 C32 1_555 1_555
H42 C32 1_555 1_555
H43 C32 1_555 1_555
Zn1A O6 1_555 1_555
Zn1A_2 O2 1_555 1_555
Zn2A O8 1_555 1_555
Zn2A_2 O1 1_555 1_555
O1A Zn2 1_555 1_555
O2A Zn1 1_555 1_555
O6A Zn1 1_555 1_555
O8A Zn2 1_555 1_555
O7 C25 1_555 1_555
C15 C19 1_555 1_555
C16 C20 1_555 1_555
C25 C27 1_555 1_555
C27 C29 1_555 1_555
C28 C30 1_555 1_555

#END
