
#######################################################################
#
#                 Cambridge Crystallographic Data Centre
#                                CCDC 
#
#######################################################################
#
# If this CIF has been generated from an entry in the Cambridge 
# Structural Database, then it will include bibliographic, chemical, 
# crystal, experimental, refinement or atomic coordinate data resulting 
# from the CCDC's data processing and validation procedures.
#
#######################################################################

data_PEWDIG
_symmetry_cell_setting           monoclinic
_symmetry_space_group_name_H-M   'P 21'
_symmetry_Int_Tables_number      4
_space_group_name_Hall           'P 2yb'
loop_
_symmetry_equiv_pos_site_id
_symmetry_equiv_pos_as_xyz
1 x,y,z
2 -x,1/2+y,-z
_cell_length_a                   11.511(2)
_cell_length_b                   13.989(3)
_cell_length_c                   12.998(6)
_cell_angle_alpha                90
_cell_angle_beta                 118.96(2)
_cell_angle_gamma                90
_cell_volume                     1831.32
loop_
_atom_site_label
_atom_site_type_symbol
_atom_site_fract_x
_atom_site_fract_y
_atom_site_fract_z
Zn1 Zn -0.63870(2) -0.422192(15) 0.20116(2)
Zn2 Zn -0.35229(2) -0.447368(15) 0.30857(2)
C1 C -0.5776(2) -0.7389(2) 0.4050(2)
N1 N -0.8371(2) -0.40071(17) 0.13811(19)
C2 C -0.5449(3) -0.72040(19) 0.3017(2)
H1 H -0.6231 -0.7423 0.2270
N2 N -0.1549(2) -0.46619(16) 0.35981(17)
C3 C -0.5480(2) -0.52322(19) -0.0699(2)
H2 H -0.6251 -0.4898 -0.1355
O1 O -0.42224(17) -0.49216(14) 0.13657(14)
O2 O -0.40602(18) -0.58084(13) 0.33745(15)
O3 O -0.63835(16) -0.45102(14) 0.04301(13)
C4 C -0.5342(2) -0.48610(19) 0.0452(2)
C5 C -0.5231(3) -0.6135(2) 0.2872(2)
O4 O -0.62792(18) -0.56539(14) 0.22575(16)
C6 C -0.4251(3) -0.5070(2) -0.0865(2)
H3 H -0.3427 -0.5085 -0.0096
H4 H -0.4310 -0.4444 -0.1243
C7 C -0.4282(3) -0.7870(2) 0.3262(2)
H5 H -0.3432 -0.7516 0.3653
H6 H -0.4389 -0.8146 0.2520
C8 C -0.7183(3) -0.7042(2) 0.3731(2)
H7 H -0.7393 -0.7240 0.4345
H8 H -0.7830 -0.7321 0.2978
H9 H -0.7220 -0.6343 0.3668
C9 C -0.4758(3) -0.6873(2) 0.5169(2)
H10 H -0.4872 -0.6180 0.5051
H11 H -0.3858 -0.7050 0.5340
H12 H -0.4893 -0.7059 0.5830
C10 C -0.9283(3) -0.4647(2) 0.0685(3)
H13 H -0.8987 -0.5231 0.0517
C11 C -0.0623(3) -0.4089(3) 0.4361(3)
H14 H -0.0883 -0.3606 0.4722
C12 C -1.0637(3) -0.4494(3) 0.0199(3)
H15 H -1.1258 -0.4957 -0.0301
C13 C -0.8810(3) -0.3184(2) 0.1618(3)
H16 H -0.8173 -0.2724 0.2105
C14 C 0.0718(3) -0.4150(3) 0.4669(4)
H17 H 0.1352 -0.3728 0.5235
C15 C -0.1166(3) -0.5313(3) 0.3087(3)
H18 H -0.1815 -0.5732 0.2530
C16 C -1.0145(3) -0.2978(2) 0.1184(3)
H19 H -1.0421 -0.2396 0.1376
C17 C 0.1097(3) -0.4831(3) 0.4139(3)
H20 H 0.2001 -0.4898 0.4328
C18 C -1.1061(3) -0.3648(3) 0.0461(3)
H21 H -1.1984 -0.3527 0.0144
C19 C 0.0138(3) -0.5412(3) 0.3326(3)
H22 H 0.0364 -0.5882 0.2926
C20 C -0.5573(3) -0.85107(19) 0.4189(2)
O5 O -0.42541(17) -0.90256(13) 0.62164(14)
O6 O -0.64656(18) -0.89279(13) 0.54655(15)
C21 C -0.5411(3) -0.88515(18) 0.5387(2)
C22 C -0.4305(3) -0.8672(2) 0.4080(2)
H23 H -0.4329 -0.9309 0.3738
H24 H -0.3503 -0.8634 0.4863
C23 C -0.6768(2) -0.90555(18) 0.3200(2)
H25 H -0.6864 -0.8875 0.2434
H26 H -0.7581 -0.8890 0.3226
H27 H -0.6613 -0.9745 0.3317
C24 C -0.5737(3) -0.6332(2) -0.0879(2)
C25 C -0.5512(2) -0.6509(2) -0.1960(2)
O7 O -0.41965(17) -0.78572(14) -0.19423(15)
C26 C -0.5329(3) -0.75744(19) -0.2137(2)
O8 O -0.63384(18) -0.81025(14) -0.24827(16)
C27 C -0.7138(3) -0.6586(2) -0.1080(2)
H28 H -0.7332 -0.7257 -0.1317
H29 H -0.7797 -0.6176 -0.1700
H30 H -0.7174 -0.6484 -0.0350
C28 C -0.4260(3) -0.5900(2) -0.1664(2)
H31 H -0.4304 -0.5645 -0.2393
H32 H -0.3446 -0.6292 -0.1248
C29 C -0.4717(3) -0.6909(2) 0.0189(2)
H33 H -0.4786 -0.6731 0.0887
H34 H -0.3820 -0.6769 0.0324
H35 H -0.4898 -0.7593 0.0034
C30 C -0.6717(2) -0.61489(19) -0.3126(2)
H36 H -0.6923 -0.5487 -0.3025
H37 H -0.7490 -0.6555 -0.3322
H38 H -0.6493 -0.6178 -0.3764
Zn1A Zn -0.36130(2) -0.922192(15) -0.20116(2)
Zn1A_2 Zn -0.36130(2) -0.922192(15) 0.79884(2)
Zn2A Zn -0.64771(2) -0.947368(15) -0.30857(2)
Zn2A_2 Zn -0.64771(2) -0.947368(15) 0.69143(2)
O5A O -0.57459(17) -0.40256(13) 0.37836(14)
O6A O -0.35344(18) -0.39279(13) 0.45345(15)
O7A O -0.58035(17) -0.28572(14) 0.19423(15)
O8A O -0.36616(18) -0.31025(14) 0.24827(16)
O9 O 0.13008(15) -0.42236(13) 0.83036(14)
H39 H 0.1967 -0.4343 0.8982
C31 C 0.10380(15) -0.26167(13) 0.88769(14)
H40 H 0.0254 -0.2821 0.8929
H41 H 0.0941 -0.1944 0.8640
H42 H 0.1832 -0.2694 0.9646
C32 C 0.1171(4) -0.3215(3) 0.7986(3)
H43 H 0.0381 -0.3123 0.7205
H44 H 0.1962 -0.3007 0.7932
O10 O 0.05241(15) -0.07507(13) 0.23422(14)
H45 H 0.0085 -0.0226 0.2210
C33 C 0.0801(9) -0.1828(7) 0.4073(8)
H46 H -0.0103 -0.2081 0.3628
H47 H 0.1072 -0.1826 0.4913
H48 H 0.1410 -0.2231 0.3937
C34 C 0.0840(10) -0.0784(7) 0.3660(7)
H49 H 0.1731 -0.0507 0.4165
H50 H 0.0183 -0.0388 0.3753
C35? C 0.0539(13) -0.1398(11) 0.3967(11)
H51? H -0.0163 -0.0993 0.3954
H52? H 0.1164 -0.1575 0.4781
H53? H 0.0144 -0.1977 0.3504
C36? C 0.1300(13) -0.0832(10) 0.3424(11)
H54? H 0.1566 -0.0193 0.3792
H55? H 0.2109 -0.1184 0.3563
loop_
_geom_bond_atom_site_label_1
_geom_bond_atom_site_label_2
_geom_bond_site_symmetry_1
_geom_bond_site_symmetry_2
Zn1 N1 1_555 1_555
Zn2 N2 1_555 1_555
C1 C2 1_555 1_555
N1 C10 1_555 1_555
C2 H1 1_555 1_555
N2 C11 1_555 1_555
C3 H2 1_555 1_555
O1 Zn2 1_555 1_555
O2 Zn2 1_555 1_555
O3 Zn1 1_555 1_555
C4 C3 1_555 1_555
C5 C2 1_555 1_555
O4 Zn1 1_555 1_555
C6 C3 1_555 1_555
H3 C6 1_555 1_555
H4 C6 1_555 1_555
C7 C2 1_555 1_555
H5 C7 1_555 1_555
H6 C7 1_555 1_555
C8 C1 1_555 1_555
H7 C8 1_555 1_555
H8 C8 1_555 1_555
H9 C8 1_555 1_555
C9 C1 1_555 1_555
H10 C9 1_555 1_555
H11 C9 1_555 1_555
H12 C9 1_555 1_555
C10 H13 1_555 1_555
C11 H14 1_555 1_555
C12 C10 1_555 1_555
H15 C12 1_555 1_555
C13 N1 1_555 1_555
H16 C13 1_555 1_555
C14 C11 1_555 1_555
H17 C14 1_555 1_555
C15 N2 1_555 1_555
H18 C15 1_555 1_555
C16 C13 1_555 1_555
H19 C16 1_555 1_555
C17 C14 1_555 1_555
H20 C17 1_555 1_555
C18 C12 1_555 1_555
H21 C18 1_555 1_555
C19 C15 1_555 1_555
H22 C19 1_555 1_555
C20 C1 1_555 1_555
O5 C21 1_555 1_555
O6 C21 1_555 1_555
C21 C20 1_555 1_555
C22 C7 1_555 1_555
H23 C22 1_555 1_555
H24 C22 1_555 1_555
C23 C20 1_555 1_555
H25 C23 1_555 1_555
H26 C23 1_555 1_555
H27 C23 1_555 1_555
C24 C3 1_555 1_555
C25 C24 1_555 1_555
O7 C26 1_555 1_555
C26 C25 1_555 1_555
O8 C26 1_555 1_555
C27 C24 1_555 1_555
H28 C27 1_555 1_555
H29 C27 1_555 1_555
H30 C27 1_555 1_555
C28 C6 1_555 1_555
H31 C28 1_555 1_555
H32 C28 1_555 1_555
C29 C24 1_555 1_555
H33 C29 1_555 1_555
H34 C29 1_555 1_555
H35 C29 1_555 1_555
C30 C25 1_555 1_555
H36 C30 1_555 1_555
H37 C30 1_555 1_555
H38 C30 1_555 1_555
O9 H39 1_555 1_555
C31 H40 1_555 1_555
H41 C31 1_555 1_555
H42 C31 1_555 1_555
C32 O9 1_555 1_555
H43 C32 1_555 1_555
H44 C32 1_555 1_555
O10 H45 1_555 1_555
C33 H46 1_555 1_555
H47 C33 1_555 1_555
H48 C33 1_555 1_555
C34 O10 1_555 1_555
H49 C34 1_555 1_555
H50 C34 1_555 1_555
Zn1A O7 1_555 1_555
Zn1A_2 O5 1_555 1_555
Zn2A O8 1_555 1_555
Zn2A_2 O6 1_555 1_555
O5A Zn1 1_555 1_555
O6A Zn2 1_555 1_555
O7A Zn1 1_555 1_555
O8A Zn2 1_555 1_555
O1 C4 1_555 1_555
O2 C5 1_555 1_555
O3 C4 1_555 1_555
C5 O4 1_555 1_555
C16 C18 1_555 1_555
C17 C19 1_555 1_555
C20 C22 1_555 1_555
C25 C28 1_555 1_555
C31 C32 1_555 1_555
C33 C34 1_555 1_555

#END
