
#######################################################################
#
#                 Cambridge Crystallographic Data Centre
#                                CCDC 
#
#######################################################################
#
# If this CIF has been generated from an entry in the Cambridge 
# Structural Database, then it will include bibliographic, chemical, 
# crystal, experimental, refinement or atomic coordinate data resulting 
# from the CCDC's data processing and validation procedures.
#
#######################################################################

data_PEWDEC
_symmetry_cell_setting           monoclinic
_symmetry_space_group_name_H-M   'P 21'
_symmetry_Int_Tables_number      4
_space_group_name_Hall           'P 2yb'
loop_
_symmetry_equiv_pos_site_id
_symmetry_equiv_pos_as_xyz
1 x,y,z
2 -x,1/2+y,-z
_cell_length_a                   6.7849(95)
_cell_length_b                   12.723(14)
_cell_length_c                   13.093(11)
_cell_angle_alpha                90
_cell_angle_beta                 102.403(83)
_cell_angle_gamma                90
_cell_volume                     1103.87
loop_
_atom_site_label
_atom_site_type_symbol
_atom_site_fract_x
_atom_site_fract_y
_atom_site_fract_z
Zn1 Zn 0.20955 0.53867 0.26237
Zn2 Zn 0.71003 0.44380 0.25793
O1 O 0.20322 0.48477 0.40107
O2 O 0.23567 0.41909 0.16987
O3 O 0.37073 0.06251 0.66253
O4 O 0.63018 0.16992 0.72446
O5 O 0.51879 0.32421 0.22829
O6 O 0.28897 -0.01230 -0.11211
O7 O -0.07972 0.38506 0.36878
O8 O 0.04694 0.10071 -0.18584
C1 C 0.21001 0.26091 0.54234
C2 C 0.30200 0.43816 0.61252
C3 C 0.30422 0.24909 0.66160
C4 C 0.01000 0.23469 0.16411
C5 C 0.12810 0.37863 0.54062
C6 C 0.07973 0.42036 0.42865
C7 C 0.39454 0.35816 0.69852
C8 C 0.14422 0.10364 0.00000
C9 C 0.04693 0.17853 0.50397
C10 C 0.22142 0.23128 0.13914
C11 C 0.37398 0.25206 0.47807
C12 C 0.25615 0.04280 0.09680
C13 C 0.21257 0.22231 0.01777
C14 C 0.44388 0.15524 0.68524
C15 C 0.32848 0.12748 0.18175
C16 C 0.33454 0.33183 0.18292
C17 C 0.16213 0.06061 -0.10510
C18 C 0.42270 0.23679 -0.00656
C19 C -0.06290 0.38470 0.58600
C20 C 0.06715 0.30077 -0.04738
H1 H 0.24693 0.51063 0.64372
H2 H 0.35942 0.37827 0.77412
H3 H 0.17901 0.22973 0.69961
H4 H 0.11620 0.09971 0.50771
H5 H 0.02259 0.24127 0.24870
H6 H 0.30962 0.26261 0.39460
H7 H 0.41371 0.46295 0.56808
H8 H 0.29234 0.10614 0.25684
H9 H 0.44376 0.17297 0.48796
H10 H 0.55900 0.35626 0.71005
H11 H 0.49260 0.31172 0.50097
H12 H 0.49204 0.13795 0.19577
H13 H 0.41456 0.22513 -0.09034
H14 H -0.18610 0.33833 0.53969
H15 H -0.11198 0.46755 0.58760
H16 H -0.03191 0.35487 0.66643
H17 H 0.06831 0.29050 -0.13034
H18 H 0.11244 0.38244 -0.02389
H19 H 0.38297 -0.00182 0.07869
H20 H 0.15523 -0.01547 0.12107
H21 H -0.01890 0.10289 -0.00278
H22 H -0.08853 0.28903 -0.03838
H23 H 0.53181 0.17991 0.03620
H24 H 0.48085 0.31723 0.01361
H25 H -0.06628 0.17623 0.55250
H26 H -0.03007 0.19534 0.42327
H27 H -0.07273 0.16127 0.13828
H28 H -0.07807 0.30232 0.12695
Zn1A Zn -0.20955 0.03867 -0.26237
Zn1A_2 Zn 0.79045 0.03867 0.73763
Zn2_2 Zn -0.28997 0.44380 0.25793
Zn2A Zn 0.28997 -0.05620 -0.25793
Zn2A_2 Zn 0.28997 -0.05620 0.74207
O3A O 0.62927 0.56251 0.33747
O4A O 0.36982 0.66992 0.27554
O6A O 0.71103 0.48770 0.11211
O7_2 O 0.92028 0.38506 0.36878
O8A O -0.04694 0.60071 0.18584
loop_
_geom_bond_atom_site_label_1
_geom_bond_atom_site_label_2
_geom_bond_site_symmetry_1
_geom_bond_site_symmetry_2
Zn1 O1 1_555 1_555
Zn2 O5 1_555 1_555
O1 C6 1_555 1_555
O2 Zn1 1_555 1_555
O3 C14 1_555 1_555
O4 C14 1_555 1_555
O5 C16 1_555 1_555
O6 C17 1_555 1_555
O7 C6 1_555 1_555
O8 C17 1_555 1_555
C1 C3 1_555 1_555
C2 C5 1_555 1_555
C3 C7 1_555 1_555
C4 C10 1_555 1_555
C5 C1 1_555 1_555
C6 C5 1_555 1_555
C7 C2 1_555 1_555
C8 C12 1_555 1_555
C9 C1 1_555 1_555
C10 C13 1_555 1_555
C11 C1 1_555 1_555
C12 C15 1_555 1_555
C13 C8 1_555 1_555
C14 C3 1_555 1_555
C15 C10 1_555 1_555
C16 O2 1_555 1_555
C17 C8 1_555 1_555
C18 C13 1_555 1_555
C19 C5 1_555 1_555
C20 C13 1_555 1_555
H1 C2 1_555 1_555
H2 C7 1_555 1_555
H3 C3 1_555 1_555
H4 C9 1_555 1_555
H5 C4 1_555 1_555
H6 C11 1_555 1_555
H7 C2 1_555 1_555
H8 C15 1_555 1_555
H9 C11 1_555 1_555
H10 C7 1_555 1_555
H11 C11 1_555 1_555
H12 C15 1_555 1_555
H13 C18 1_555 1_555
H14 C19 1_555 1_555
H15 C19 1_555 1_555
H16 C19 1_555 1_555
H17 C20 1_555 1_555
H18 C20 1_555 1_555
H19 C12 1_555 1_555
H20 C12 1_555 1_555
H21 C8 1_555 1_555
H22 C20 1_555 1_555
H23 C18 1_555 1_555
H24 C18 1_555 1_555
H25 C9 1_555 1_555
H26 C9 1_555 1_555
H27 C4 1_555 1_555
H28 C4 1_555 1_555
Zn1A O8 1_555 1_555
Zn1A_2 O4 1_555 1_555
Zn2_2 O7 1_555 1_555
Zn2A O6 1_555 1_555
Zn2A_2 O3 1_555 1_555
O3A Zn2 1_555 1_555
O4A Zn1 1_555 1_555
O6A Zn2 1_555 1_555
O7_2 Zn2 1_555 1_555
O8A Zn1 1_555 1_555
C10 C16 1_555 1_555

#END
