
#######################################################################
#
#                 Cambridge Crystallographic Data Centre
#                                CCDC 
#
#######################################################################
#
# If this CIF has been generated from an entry in the Cambridge 
# Structural Database, then it will include bibliographic, chemical, 
# crystal, experimental, refinement or atomic coordinate data resulting 
# from the CCDC's data processing and validation procedures.
#
#######################################################################

data_PEWJUW
_symmetry_cell_setting           rhombohedral
_symmetry_space_group_name_H-M   'R -3'
_symmetry_Int_Tables_number      148
_space_group_name_Hall           '-R 3'
loop_
_symmetry_equiv_pos_site_id
_symmetry_equiv_pos_as_xyz
1 x,y,z
2 1/3+x,2/3+y,2/3+z
3 2/3+x,1/3+y,1/3+z
4 -y,x-y,z
5 -x+y,-x,z
6 1/3-y,2/3+x-y,2/3+z
7 1/3-x+y,2/3-x,2/3+z
8 2/3-y,1/3+x-y,1/3+z
9 2/3-x+y,1/3-x,1/3+z
10 -x,-y,-z
11 2/3-x,1/3-y,1/3-z
12 1/3-x,2/3-y,2/3-z
13 y,-x+y,-z
14 x-y,x,-z
15 2/3+y,1/3-x+y,1/3-z
16 2/3+x-y,1/3+x,1/3-z
17 1/3+y,2/3-x+y,2/3-z
18 1/3+x-y,2/3+x,2/3-z
_cell_length_a                   22.030(5)
_cell_length_b                   22.030(5)
_cell_length_c                   9.871(3)
_cell_angle_alpha                90
_cell_angle_beta                 90
_cell_angle_gamma                120
_cell_volume                     4148.78
loop_
_atom_site_label
_atom_site_type_symbol
_atom_site_fract_x
_atom_site_fract_y
_atom_site_fract_z
La1 La 0.40944(1) 0.01100(1) 0.47776(2)
O1 O 0.4771(2) -0.0346(2) 0.6322(3)
O2 O 0.3701(2) -0.0769(2) 0.7039(3)
O3 O 0.3607(2) 0.0459(2) 0.6785(4)
O4 O 0.3223(2) 0.0596(2) 0.8724(3)
O5 O 0.5139(2) 0.1144(2) 0.5871(4)
O6 O 0.6101(2) 0.1050(2) 0.5947(3)
C1 C 0.4250(2) -0.0815(2) 0.6958(4)
C2 C 0.4268(3) -0.1434(3) 0.7556(5)
C3 C 0.3604(2) 0.0857(2) 0.7695(5)
C4 C 0.4048(3) 0.1637(3) 0.7528(6)
C5 C 0.5777(3) 0.1377(3) 0.6098(5)
C6 C 0.6201(3) 0.2142(3) 0.6581(6)
O1I O 0.5229(2) 0.0346(2) 0.3678(3)
O2E O 0.4102(2) 0.1137(3) 0.3706(3)
O3E O 0.2874(2) -0.0185(3) 0.3452(4)
O4E O 0.2737(2) -0.0706(3) 0.5391(3)
O4H O 0.4040(3) 0.0110(2) 0.2057(3)
O6I O 0.3899(2) -0.1050(2) 0.4053(3)
La1I La 0.59056(1) -0.01100(1) 0.52224(2)
La1H La 0.26823(1) -0.07611(1) 0.81109(2)
La1E La 0.32233(1) 0.06511(1) 1.14443(2)
loop_
_geom_bond_atom_site_label_1
_geom_bond_atom_site_label_2
_geom_bond_site_symmetry_1
_geom_bond_site_symmetry_2
La1 O1 1_555 1_555
O1 C1 1_555 1_555
O2 La1 1_555 1_555
O3 La1 1_555 1_555
O4 C3 1_555 1_555
O5 La1 1_555 1_555
O6 C5 1_555 1_555
C1 O2 1_555 1_555
C2 C1 1_555 1_555
C3 O3 1_555 1_555
C4 C3 1_555 1_555
C5 O5 1_555 1_555
C6 C5 1_555 1_555
O1I La1 1_555 1_555
O2E La1 1_555 1_555
O3E La1 1_555 1_555
O4E La1 1_555 1_555
O4H La1 1_555 1_555
O6I La1 1_555 1_555
La1I O1 1_555 1_555
La1H O2 1_555 1_555
La1E O4 1_555 1_555
O3 La1H 1_555 1_555
O4 La1H 1_555 1_555
O6 La1I 1_555 1_555
O1I La1I 1_555 1_555
O4E La1H 1_555 1_555

#END
