
#######################################################################
#
#                 Cambridge Crystallographic Data Centre
#                                CCDC 
#
#######################################################################
#
# If this CIF has been generated from an entry in the Cambridge 
# Structural Database, then it will include bibliographic, chemical, 
# crystal, experimental, refinement or atomic coordinate data resulting 
# from the CCDC's data processing and validation procedures.
#
#######################################################################

data_PEWKEH01
_symmetry_cell_setting           monoclinic
_symmetry_space_group_name_H-M   'I 2/a'
_symmetry_Int_Tables_number      15
_space_group_name_Hall           '-I 2ya'
loop_
_symmetry_equiv_pos_site_id
_symmetry_equiv_pos_as_xyz
1 x,y,z
2 1/2-x,y,-z
3 1/2+x,1/2+y,1/2+z
4 -x,1/2+y,1/2-z
5 -x,-y,-z
6 1/2+x,-y,z
7 1/2-x,1/2-y,1/2-z
8 x,1/2-y,1/2+z
_cell_length_a                   7.8470(16)
_cell_length_b                   29.130(6)
_cell_length_c                   8.2536(17)
_cell_angle_alpha                90
_cell_angle_beta                 93.09(3)
_cell_angle_gamma                90
_cell_volume                     1883.89
loop_
_atom_site_label
_atom_site_type_symbol
_atom_site_fract_x
_atom_site_fract_y
_atom_site_fract_z
Ho1 Ho 0.7500 0.871174(4) 0.5000
Ho2 Ho 0.2500 0.876303(4) 0.5000
O1 O 0.50217(19) 0.85543(5) 0.3402(2)
O2 O 0.3118(2) 0.90371(6) 0.2387(2)
C1 C 0.4377(3) 0.87866(8) 0.2193(3)
C2 C 0.5115(4) 0.87413(13) 0.0595(4)
H1 H 0.4243 0.8793 -0.0246
H2 H 0.5574 0.8438 0.0486
H3 H 0.6008 0.8963 0.0504
O3 O 0.6396(2) 0.81925(6) 0.6641(2)
O4 O 0.3583(2) 0.81832(6) 0.6566(2)
C3 C 0.4996(3) 0.80231(7) 0.7011(3)
C4 C 0.5054(4) 0.76074(10) 0.8094(5)
H4 H 0.4974 0.7702 0.9202
H5 H 0.6110 0.7447 0.7981
H6 H 0.4116 0.7408 0.7791
O5 O 0.7413(2) 0.93123(6) 0.6944(2)
O6 O 0.4922(2) 0.91822(6) 0.5767(2)
C5 C 0.5866(3) 0.94133(8) 0.6766(3)
C6 C 0.5135(4) 0.98058(11) 0.7649(5)
H7 H 0.5697 0.9831 0.8707
H8 H 0.3936 0.9756 0.7754
H9 H 0.5298 1.0084 0.7055
O1A O -0.00217(19) 0.85543(5) 0.6598(2)
O2A O 0.1882(2) 0.90371(6) 0.7613(2)
C1A C 0.0623(3) 0.87866(8) 0.7807(3)
C2A C -0.0115(4) 0.87413(13) 0.9405(4)
H1A H 0.0757 0.8793 1.0246
H2A H -0.0574 0.8438 0.9514
H3A H -0.1008 0.8963 0.9496
O3A O -0.1396(2) 0.81925(6) 0.3359(2)
O4A O 0.1417(2) 0.81832(6) 0.3434(2)
C3A C 0.0004(3) 0.80231(7) 0.2989(3)
C4A C -0.0054(4) 0.76074(10) 0.1906(5)
H4A H 0.0026 0.7702 0.0798
H5A H -0.1110 0.7447 0.2019
H6A H 0.0884 0.7408 0.2209
O5A O -0.2413(2) 0.93123(6) 0.3056(2)
O6A O 0.0078(2) 0.91822(6) 0.4233(2)
C5A C -0.0866(3) 0.94133(8) 0.3234(3)
C6A C -0.0135(4) 0.98058(11) 0.2351(5)
H7A H -0.0697 0.9831 0.1293
H8A H 0.1064 0.9756 0.2246
H9A H -0.0298 1.0084 0.2945
Ho1_2 Ho -0.2500 0.871174(4) 0.5000
O1A_2 O 0.99783(19) 0.85543(5) 0.6598(2)
O3A_2 O 0.8604(2) 0.81925(6) 0.3359(2)
O5A_2 O 0.7587(2) 0.93123(6) 0.3056(2)
O6A_2 O 1.0078(2) 0.91822(6) 0.4233(2)
loop_
_geom_bond_atom_site_label_1
_geom_bond_atom_site_label_2
_geom_bond_site_symmetry_1
_geom_bond_site_symmetry_2
Ho1 O1 1_555 1_555
Ho2 O1 1_555 1_555
O1 C1 1_555 1_555
O2 Ho2 1_555 1_555
C1 O2 1_555 1_555
C2 C1 1_555 1_555
H1 C2 1_555 1_555
H2 C2 1_555 1_555
H3 C2 1_555 1_555
O3 Ho1 1_555 1_555
O4 Ho2 1_555 1_555
C3 O3 1_555 1_555
C4 C3 1_555 1_555
H4 C4 1_555 1_555
H5 C4 1_555 1_555
H6 C4 1_555 1_555
O5 Ho1 1_555 1_555
O6 Ho1 1_555 1_555
C5 O5 1_555 1_555
C6 C5 1_555 1_555
H7 C6 1_555 1_555
H8 C6 1_555 1_555
H9 C6 1_555 1_555
O1A Ho2 1_555 1_555
O2A Ho2 1_555 1_555
C1A O1A 1_555 1_555
C2A C1A 1_555 1_555
H1A C2A 1_555 1_555
H2A C2A 1_555 1_555
H3A C2A 1_555 1_555
O3A C3A 1_555 1_555
O4A Ho2 1_555 1_555
C3A O4A 1_555 1_555
C4A C3A 1_555 1_555
H4A C4A 1_555 1_555
H5A C4A 1_555 1_555
H6A C4A 1_555 1_555
O5A C5A 1_555 1_555
O6A Ho2 1_555 1_555
C5A O6A 1_555 1_555
C6A C5A 1_555 1_555
H7A C6A 1_555 1_555
H8A C6A 1_555 1_555
H9A C6A 1_555 1_555
Ho1_2 O1A 1_555 1_555
O1A_2 Ho1 1_555 1_555
O3A_2 Ho1 1_555 1_555
O5A_2 Ho1 1_555 1_555
O6A_2 Ho1 1_555 1_555
Ho2 O6 1_555 1_555
O4 C3 1_555 1_555
O6 C5 1_555 1_555
O2A C1A 1_555 1_555
O3A Ho1_2 1_555 1_555
O5A Ho1_2 1_555 1_555
O6A Ho1_2 1_555 1_555

#END
