
#######################################################################
#
#                 Cambridge Crystallographic Data Centre
#                                CCDC 
#
#######################################################################
#
# If this CIF has been generated from an entry in the Cambridge 
# Structural Database, then it will include bibliographic, chemical, 
# crystal, experimental, refinement or atomic coordinate data resulting 
# from the CCDC's data processing and validation procedures.
#
#######################################################################

data_PEWLEI
_symmetry_cell_setting           triclinic
_symmetry_space_group_name_H-M   'P -1'
_symmetry_Int_Tables_number      2
_space_group_name_Hall           '-P 1'
loop_
_symmetry_equiv_pos_site_id
_symmetry_equiv_pos_as_xyz
1 x,y,z
2 -x,-y,-z
_cell_length_a                   7.273(2)
_cell_length_b                   7.457(2)
_cell_length_c                   12.135(3)
_cell_angle_alpha                74.220(12)
_cell_angle_beta                 79.934(12)
_cell_angle_gamma                70.113(11)
_cell_volume                     593.1
loop_
_atom_site_label
_atom_site_type_symbol
_atom_site_fract_x
_atom_site_fract_y
_atom_site_fract_z
Cu1 Cu 0.16409(3) 1.25018(3) 0.29754(2)
O1 O 0.4273(2) 1.1867(2) 0.3421(1)
O2 O 0.7395(2) 1.0227(2) 0.3585(1)
O3 O 0.2778(2) 1.2518(2) 0.1344(1)
O4 O 0.5826(2) 1.1499(2) 0.0545(1)
O5 O 0.2051(2) 0.9181(2) 0.33452(9)
O6 O 0.2755(2) 0.5117(2) 0.4700(1)
O7 O 0.1307(2) 0.5874(2) 0.2739(1)
O8 O 0.0692(2) 1.2509(2) 0.4629(1)
O9 O -0.1083(2) 1.3233(2) 0.2626(1)
C1 C 0.5738(2) 1.0345(2) 0.3378(1)
C2 C 0.4402(2) 1.1179(2) 0.1203(1)
C3 C 0.4612(2) 0.9085(2) 0.1880(1)
C4 C 0.5455(2) 0.8604(2) 0.3073(1)
C5 C 0.3823(2) 0.7911(2) 0.3881(1)
C6 C 0.3917(2) 0.5901(2) 0.3750(1)
C7 C 0.3041(2) 0.6426(2) 0.2573(1)
C8 C 0.2648(2) 0.8642(2) 0.2241(1)
H1 H 0.532(3) 0.828(3) 0.142(2)
H2 H 0.662(3) 0.756(3) 0.308(2)
H3 H 0.373(3) 0.797(3) 0.468(2)
H4 H 0.512(3) 0.505(3) 0.375(2)
H5 H 0.402(3) 0.577(3) 0.198(2)
H6 H 0.165(3) 0.932(3) 0.175(2)
H7 H 0.247(4) 0.447(4) 0.454(2)
H8 H 0.072(4) 0.651(4) 0.227(2)
H9 H 0.114(5) 1.171(5) 0.518(3)
H10 H -0.044(5) 1.310(5) 0.484(3)
H11 H -0.156(4) 1.243(4) 0.284(3)
H12 H -0.141(3) 1.358(4) 0.199(2)
O7_2 O 0.1307(2) 1.5874(2) 0.2739(1)
Cu1_2 Cu 0.16409(3) 0.25018(3) 0.29754(2)
H8_2 H 0.072(4) 1.651(4) 0.227(2)
O10 O 0.2219(3) 0.5878(2) 0.9508(1)
H13 H 0.254(5) 0.484(5) 1.008(3)
H14 H 0.302(5) 0.638(5) 0.958(3)
O11 O -0.0762(3) 0.8058(4) 0.0919(2)
H15 H -0.142(5) 0.889(5) 0.083(3)
H16 H -0.034(5) 0.776(5) 0.045(3)
loop_
_geom_bond_atom_site_label_1
_geom_bond_atom_site_label_2
_geom_bond_site_symmetry_1
_geom_bond_site_symmetry_2
Cu1 O1 1_555 1_555
O1 C1 1_555 1_555
O2 C1 1_555 1_555
O3 Cu1 1_555 1_555
O4 C2 1_555 1_555
O5 Cu1 1_555 1_555
O6 C6 1_555 1_555
O7 C7 1_555 1_555
O8 Cu1 1_555 1_555
O9 Cu1 1_555 1_555
O10 H13 1_555 1_555
O11 H15 1_555 1_555
C1 C4 1_555 1_555
C2 O3 1_555 1_555
C3 C2 1_555 1_555
C4 C3 1_555 1_555
C5 O5 1_555 1_555
C6 C5 1_555 1_555
C7 C6 1_555 1_555
C8 O5 1_555 1_555
H1 C3 1_555 1_555
H2 C4 1_555 1_555
H3 C5 1_555 1_555
H4 C6 1_555 1_555
H5 C7 1_555 1_555
H6 C8 1_555 1_555
H7 O6 1_555 1_555
H8 O7 1_555 1_555
H9 O8 1_555 1_555
H10 O8 1_555 1_555
H11 O9 1_555 1_555
H12 O9 1_555 1_555
H14 O10 1_555 1_555
H16 O11 1_555 1_555
O7_2 Cu1 1_555 1_555
Cu1_2 O7 1_555 1_555
H8_2 O7_2 1_555 1_555
C3 C8 1_555 1_555
C4 C5 1_555 1_555
C7 C8 1_555 1_555

#END
