
#######################################################################
#
#                 Cambridge Crystallographic Data Centre
#                                CCDC 
#
#######################################################################
#
# If this CIF has been generated from an entry in the Cambridge 
# Structural Database, then it will include bibliographic, chemical, 
# crystal, experimental, refinement or atomic coordinate data resulting 
# from the CCDC's data processing and validation procedures.
#
#######################################################################

data_PEWVES
_symmetry_cell_setting           orthorhombic
_symmetry_space_group_name_H-M   'P b c a'
_symmetry_Int_Tables_number      61
_space_group_name_Hall           '-P 2ac 2ab'
loop_
_symmetry_equiv_pos_site_id
_symmetry_equiv_pos_as_xyz
1 x,y,z
2 1/2-x,1/2+y,z
3 x,1/2-y,1/2+z
4 1/2-x,-y,1/2+z
5 -x,-y,-z
6 1/2+x,1/2-y,-z
7 -x,1/2+y,1/2-z
8 1/2+x,y,1/2-z
_cell_length_a                   6.955(2)
_cell_length_b                   17.176(6)
_cell_length_c                   21.829(9)
_cell_angle_alpha                90
_cell_angle_beta                 90
_cell_angle_gamma                90
_cell_volume                     2607.67
loop_
_atom_site_label
_atom_site_type_symbol
_atom_site_fract_x
_atom_site_fract_y
_atom_site_fract_z
Hg1 Hg 0.2169(1) 0.2007(1) 0.0623(1)
Cl1 Cl 0.5854(4) 0.1857(2) 0.0146(1)
Cl3 Cl 0.0869(5) 0.0857(2) 0.0261(1)
N1 N 0.2596(12) 0.2135(4) 0.2873(4)
C1 C 0.2188(18) 0.1439(6) 0.3249(5)
C2 C 0.3187(16) 0.2820(6) 0.3128(5)
N2 N 0.3259(14) 0.2861(5) 0.3758(4)
N3 N 0.3637(13) 0.3469(4) 0.2821(4)
C3 C 0.3533(15) 0.3368(5) 0.2195(4)
C4 C 0.3027(16) 0.2708(5) 0.1898(4)
C5 C 0.2471(14) 0.2036(6) 0.2210(4)
O1 O 0.1935(12) 0.1413(4) 0.1993(3)
N4 N 0.3067(13) 0.2835(4) 0.1277(4)
C6 C 0.3622(17) 0.3576(5) 0.1203(5)
N5 N 0.3956(13) 0.3915(4) 0.1759(4)
C7 C 0.4620(21) 0.4711(6) 0.1867(6)
Cl1E Cl 0.0854(4) 0.3143(2) -0.0146(1)
Hg1E Hg 0.7169(1) 0.2993(1) -0.0623(1)
Hg1E_2 Hg -0.2831(1) 0.2993(1) -0.0623(1)
Cl1E_2 Cl 1.0854(4) 0.3143(2) -0.0146(1)
Cl3E Cl 0.5869(5) 0.4143(2) -0.0261(1)
N4E N 0.8067(13) 0.2165(4) -0.1277(4)
C4E C 0.8027(16) 0.2292(5) -0.1898(4)
C6E C 0.8622(17) 0.1424(5) -0.1203(5)
C3E C 0.8533(15) 0.1632(5) -0.2195(4)
C5E C 0.7471(14) 0.2964(6) -0.2210(4)
N5E N 0.8956(13) 0.1085(4) -0.1759(4)
N3E N 0.8637(13) 0.1531(4) -0.2821(4)
N1E N 0.7596(12) 0.2865(4) -0.2873(4)
O1E O 0.6935(12) 0.3587(4) -0.1993(3)
C7E C 0.9620(21) 0.0289(6) -0.1867(6)
C2E C 0.8187(16) 0.2180(6) -0.3128(5)
C1E C 0.7188(18) 0.3561(6) -0.3249(5)
N2E N 0.8259(14) 0.2139(5) -0.3758(4)
Hg2 Hg 0.5000 0.0000 0.0000
Cl2 Cl 0.4631(6) 0.0201(2) -0.1025(1)
Cl2D Cl 0.5369(6) -0.0201(2) 0.1025(1)
loop_
_geom_bond_atom_site_label_1
_geom_bond_atom_site_label_2
_geom_bond_site_symmetry_1
_geom_bond_site_symmetry_2
Hg1 Cl1 1_555 1_555
Hg2 Cl2 1_555 1_555
Cl1 Hg1E 1_555 1_555
Cl3 Hg1 1_555 1_555
N1 C1 1_555 1_555
C2 N1 1_555 1_555
N2 C2 1_555 1_555
N3 C2 1_555 1_555
C3 N3 1_555 1_555
C4 C3 1_555 1_555
C5 N1 1_555 1_555
O1 C5 1_555 1_555
N4 Hg1 1_555 1_555
C6 N4 1_555 1_555
N5 C3 1_555 1_555
C7 N5 1_555 1_555
Cl1E Hg1 1_555 1_555
Hg1E Cl1E_2 1_555 1_555
Hg1E_2 Cl1E 1_555 1_555
Cl3E Hg1E 1_555 1_555
N4E Hg1E 1_555 1_555
C4E N4E 1_555 1_555
C6E N4E 1_555 1_555
C3E C4E 1_555 1_555
C5E C4E 1_555 1_555
N5E C6E 1_555 1_555
N3E C3E 1_555 1_555
N1E C5E 1_555 1_555
O1E C5E 1_555 1_555
C7E N5E 1_555 1_555
C2E N3E 1_555 1_555
C1E N1E 1_555 1_555
N2E C2E 1_555 1_555
Cl2D Hg2 1_555 1_555
C4 C5 1_555 1_555
C4 N4 1_555 1_555
C6 N5 1_555 1_555
C3E N5E 1_555 1_555
N1E C2E 1_555 1_555

#END
