
#######################################################################
#
#                 Cambridge Crystallographic Data Centre
#                                CCDC 
#
#######################################################################
#
# If this CIF has been generated from an entry in the Cambridge 
# Structural Database, then it will include bibliographic, chemical, 
# crystal, experimental, refinement or atomic coordinate data resulting 
# from the CCDC's data processing and validation procedures.
#
#######################################################################

data_PEXBUR
_symmetry_cell_setting           monoclinic
_symmetry_space_group_name_H-M   'C 2/c'
_symmetry_Int_Tables_number      15
_space_group_name_Hall           '-C 2yn'
loop_
_symmetry_equiv_pos_site_id
_symmetry_equiv_pos_as_xyz
1 x,y,z
2 -x,y,1/2-z
3 1/2+x,1/2+y,z
4 1/2-x,1/2+y,1/2-z
5 -x,-y,-z
6 x,-y,1/2+z
7 1/2-x,1/2-y,-z
8 1/2+x,1/2-y,1/2+z
_cell_length_a                   15.295(11)
_cell_length_b                   14.062(12)
_cell_length_c                   13.286(13)
_cell_angle_alpha                90
_cell_angle_beta                 109.188(18)
_cell_angle_gamma                90
_cell_volume                     2698.78
loop_
_atom_site_label
_atom_site_type_symbol
_atom_site_fract_x
_atom_site_fract_y
_atom_site_fract_z
Cd1 Cd 0.925863(13) 0.465750(13) 0.600628(15)
C1 C 0.7318(2) 0.5582(2) 0.4733(2)
H1 H 0.7018 0.5086 0.4946
C2 C 0.8380(2) 0.6492(2) 0.4548(3)
H2 H 0.8958 0.6741 0.4609
C3 C 0.7567(2) 0.6856(3) 0.3946(3)
H3 H 0.7477 0.7402 0.3530
C4 C 0.5878(3) 0.6339(5) 0.3566(5)
H4 H 0.5644 0.5715 0.3299
H5 H 0.5619 0.6499 0.4120
C5 C 0.5534(3) 0.6989(5) 0.2736(4)
H6 H 0.5787 0.6841 0.2175
H7 H 0.5742 0.7622 0.2997
C6 C 0.82613(19) 0.30373(19) 0.6337(2)
C7 C 0.80545(18) 0.21304(19) 0.6808(2)
C8 C 0.87506(19) 0.1669(2) 0.7605(2)
H8 H 0.9350 0.1912 0.7826
C9 C 0.85539(19) 0.0844(2) 0.8074(2)
C10 C 0.7663(2) 0.0473(2) 0.7730(2)
H9 H 0.7531 -0.0080 0.8035
C11 C 0.69645(18) 0.0934(2) 0.69256(19)
C12 C 0.71610(19) 0.17604(19) 0.6468(2)
H10 H 0.6695 0.2066 0.5933
C13 C 0.60053(19) 0.05370(19) 0.6550(2)
N1 N 0.82272(16) 0.56971(18) 0.50569(18)
N2 N 0.68900(18) 0.6265(2) 0.4065(2)
O1 O 0.91086(14) 0.31616(14) 0.63864(16)
O2 O 0.76400(15) 0.36171(14) 0.59299(16)
O3 O 0.54529(13) 0.07938(15) 0.56518(15)
O4 O 0.57575(14) -0.00459(17) 0.71268(16)
N3 N 0.92067(16) 0.03887(17) 0.8878(2)
H11 H 0.9282(19) -0.0179(8) 0.900(2)
H12 H 0.9678(15) 0.0731(18) 0.907(3)
C1A C 0.2682(2) 0.5582(2) 0.0267(2)
H1A H 0.2982 0.5086 0.0054
C2A C 0.1620(2) 0.6492(2) 0.0452(3)
H2A H 0.1042 0.6741 0.0391
C3A C 0.2433(2) 0.6856(3) 0.1054(3)
H3A H 0.2523 0.7402 0.1470
C4A C 0.4122(3) 0.6339(5) 0.1434(5)
H4A H 0.4356 0.5715 0.1701
H5A H 0.4381 0.6499 0.0880
C5A C 0.4466(3) 0.6989(5) 0.2264(4)
H6A H 0.4213 0.6841 0.2825
H7A H 0.4258 0.7622 0.2003
N1A N 0.17728(16) 0.56971(18) -0.00569(18)
N2A N 0.31100(18) 0.6265(2) 0.0935(2)
Cd1A Cd 0.074137(13) 0.465750(13) -0.100628(15)
C6A C 0.17387(19) 0.30373(19) -0.1337(2)
C7A C 0.19455(18) 0.21304(19) -0.1808(2)
C8A C 0.12494(19) 0.1669(2) -0.2605(2)
H8A H 0.0650 0.1912 -0.2826
C9A C 0.14461(19) 0.0844(2) -0.3074(2)
C10A C 0.2337(2) 0.0473(2) -0.2730(2)
H9A H 0.2469 -0.0080 -0.3035
C11A C 0.30355(18) 0.0934(2) -0.19256(19)
C12A C 0.28390(19) 0.17604(19) -0.1468(2)
H10A H 0.3305 0.2066 -0.0933
C13A C 0.39947(19) 0.05370(19) -0.1550(2)
O1A O 0.08914(14) 0.31616(14) -0.13864(16)
O2A O 0.23600(15) 0.36171(14) -0.09299(16)
O3A O 0.45471(13) 0.07938(15) -0.06518(15)
O4A O 0.42425(14) -0.00459(17) -0.21268(16)
N3A N 0.07933(16) 0.03887(17) -0.3878(2)
H11A H 0.0718(19) -0.0179(8) -0.400(2)
H12A H 0.0322(15) 0.0731(18) -0.407(3)
Cd1B Cd 0.425863(13) -0.034250(13) -0.399372(15)
Cd1B_2 Cd 0.425863(13) -0.034250(13) 0.600628(15)
Cd1C Cd 0.574137(13) -0.034250(13) -0.100628(15)
Cd1C_2 Cd 0.574137(13) -0.034250(13) 0.899372(15)
Cd1F Cd 0.574137(13) 0.034250(13) 0.399372(15)
Cd1G Cd 0.425863(13) 0.034250(13) 0.100628(15)
O3B O 1.04529(13) 0.57938(15) 0.56518(15)
O3C O -0.04529(13) 0.57938(15) -0.06518(15)
O3F O 0.95471(13) 0.42062(15) 0.43482(15)
O3G O 0.04529(13) 0.42062(15) 0.06518(15)
O4B O 0.07575(14) 0.49541(17) -0.28732(16)
O4B_2 O 1.07575(14) 0.49541(17) 0.71268(16)
O4C O -0.07575(14) 0.49541(17) -0.21268(16)
O4C_2 O 0.92425(14) 0.49541(17) 0.78732(16)
O5 O 0.93780(19) -0.1538(2) 1.0192(2)
H13 H 0.932(3) -0.199(3) 1.060(3)
H14 H 0.8866(18) -0.140(3) 0.970(3)
loop_
_geom_bond_atom_site_label_1
_geom_bond_atom_site_label_2
_geom_bond_site_symmetry_1
_geom_bond_site_symmetry_2
Cd1 N1 1_555 1_555
C1 H1 1_555 1_555
C2 H2 1_555 1_555
C3 C2 1_555 1_555
H3 C3 1_555 1_555
C4 H4 1_555 1_555
H5 C4 1_555 1_555
C5 C4 1_555 1_555
H6 C5 1_555 1_555
H7 C5 1_555 1_555
C6 C7 1_555 1_555
C7 C8 1_555 1_555
C8 H8 1_555 1_555
C9 C8 1_555 1_555
C10 C9 1_555 1_555
H9 C10 1_555 1_555
C11 C10 1_555 1_555
C12 C7 1_555 1_555
H10 C12 1_555 1_555
C13 C11 1_555 1_555
N1 C1 1_555 1_555
N2 C1 1_555 1_555
O1 Cd1 1_555 1_555
O2 C6 1_555 1_555
O3 C13 1_555 1_555
O4 C13 1_555 1_555
N3 C9 1_555 1_555
H11 N3 1_555 1_555
H12 N3 1_555 1_555
O5 H13 1_555 1_555
H14 O5 1_555 1_555
C1A H1A 1_555 1_555
C2A H2A 1_555 1_555
C3A C2A 1_555 1_555
H3A C3A 1_555 1_555
C4A H4A 1_555 1_555
H5A C4A 1_555 1_555
C5A C5 1_555 1_555
H6A C5A 1_555 1_555
H7A C5A 1_555 1_555
N1A C1A 1_555 1_555
N2A C1A 1_555 1_555
Cd1A N1A 1_555 1_555
C6A C7A 1_555 1_555
C7A C8A 1_555 1_555
C8A H8A 1_555 1_555
C9A C8A 1_555 1_555
C10A C9A 1_555 1_555
H9A C10A 1_555 1_555
C11A C10A 1_555 1_555
C12A C7A 1_555 1_555
H10A C12A 1_555 1_555
C13A C11A 1_555 1_555
O1A Cd1A 1_555 1_555
O2A C6A 1_555 1_555
O3A C13A 1_555 1_555
O4A C13A 1_555 1_555
N3A C9A 1_555 1_555
H11A N3A 1_555 1_555
H12A N3A 1_555 1_555
Cd1B O4A 1_555 1_555
Cd1B_2 O3 1_555 1_555
Cd1C O3A 1_555 1_555
Cd1C_2 O4 1_555 1_555
Cd1F O3 1_555 1_555
Cd1G O3A 1_555 1_555
O3B Cd1 1_555 1_555
O3C Cd1A 1_555 1_555
O3F Cd1 1_555 1_555
O3G Cd1A 1_555 1_555
O4B Cd1A 1_555 1_555
O4B_2 Cd1 1_555 1_555
O4C Cd1A 1_555 1_555
O4C_2 Cd1 1_555 1_555
C2 N1 1_555 1_555
C3 N2 1_555 1_555
C4 N2 1_555 1_555
C6 O1 1_555 1_555
C11 C12 1_555 1_555
O4 Cd1B_2 1_555 1_555
C2A N1A 1_555 1_555
C3A N2A 1_555 1_555
C4A C5A 1_555 1_555
C4A N2A 1_555 1_555
C6A O1A 1_555 1_555
C11A C12A 1_555 1_555
O4A Cd1C 1_555 1_555

#END
