
#######################################################################
#
#                 Cambridge Crystallographic Data Centre
#                                CCDC 
#
#######################################################################
#
# If this CIF has been generated from an entry in the Cambridge 
# Structural Database, then it will include bibliographic, chemical, 
# crystal, experimental, refinement or atomic coordinate data resulting 
# from the CCDC's data processing and validation procedures.
#
#######################################################################

data_PEXBIF01
_symmetry_cell_setting           monoclinic
_symmetry_space_group_name_H-M   'I 2/a'
_symmetry_Int_Tables_number      15
_space_group_name_Hall           '-I 2ya'
loop_
_symmetry_equiv_pos_site_id
_symmetry_equiv_pos_as_xyz
1 x,y,z
2 1/2-x,y,-z
3 1/2+x,1/2+y,1/2+z
4 -x,1/2+y,1/2-z
5 -x,-y,-z
6 1/2+x,-y,z
7 1/2-x,1/2-y,1/2-z
8 x,1/2-y,1/2+z
_cell_length_a                   16.6620(19)
_cell_length_b                   14.8610(17)
_cell_length_c                   17.9777(15)
_cell_angle_alpha                90
_cell_angle_beta                 113.117(8)
_cell_angle_gamma                90
_cell_volume                     4094.09
loop_
_atom_site_label
_atom_site_type_symbol
_atom_site_fract_x
_atom_site_fract_y
_atom_site_fract_z
C1 C 0.2825(2) -0.0336(2) 0.41061(19)
H1 H 0.2725 0.0278 0.4011
C2 C 0.2736(2) -0.1763(2) 0.39731(19)
H2 H 0.2552 -0.2333 0.3762
C3 C 0.3405(2) -0.1599(2) 0.46762(19)
H3 H 0.3764 -0.2021 0.5035
C4 C 0.4095(2) -0.0186(2) 0.54304(18)
H4 H 0.4146 -0.0457 0.5938
H5 H 0.3892 0.0427 0.5421
C5 C 0.4987(2) -0.0171(2) 0.53876(18)
H6 H 0.5371 0.0200 0.5827
H7 H 0.5220 -0.0777 0.5478
C6 C 0.1224(2) 0.0283(2) 0.09532(19)
H8 H 0.1312 0.0823 0.1235
C7 C 0.1030(2) -0.1114(2) 0.0648(2)
H9 H 0.0953 -0.1730 0.0684
C8 C 0.1034(3) -0.0676(2) -0.0010(2)
H10 H 0.0971 -0.0935 -0.0501
C9 C 0.1252(2) 0.0962(2) -0.0310(2)
H11 H 0.1218 0.1526 -0.0052
H12 H 0.0779 0.0950 -0.0840
C10 C 0.2103(2) 0.0916(2) -0.0404(2)
H13 H 0.2145 0.1426 -0.0723
H14 H 0.2114 0.0374 -0.0699
C11 C -0.0764(2) -0.0447(2) 0.24426(19)
H15 H -0.0788 -0.1072 0.2424
C12 C -0.1501(2) 0.0028(2) 0.23683(18)
H16 H -0.2014 -0.0269 0.2311
C13 C -0.1461(2) 0.0956(2) 0.2381(2)
H17 H -0.1952 0.1291 0.2331
C14 C -0.0695(2) 0.1392(2) 0.24671(19)
C15 C 0.0047(2) 0.0879(2) 0.2579(2)
C16 C 0.0951(2) 0.1265(2) 0.2798(2)
C17 C -0.0694(2) 0.2409(2) 0.24284(19)
Cd1 Cd 0.118046(15) -0.075851(15) 0.249497(14)
N1 N 0.11564(18) -0.05028(19) 0.12545(16)
N2 N 0.23631(17) -0.09834(18) 0.36119(15)
N3 N -0.00114(16) -0.00348(18) 0.25410(15)
N4 N 0.11475(17) 0.02058(18) 0.01782(16)
N5 N 0.3451(2) -0.06908(17) 0.47563(18)
O1 O -0.08646(16) 0.28140(15) 0.29541(15)
O2 O -0.06098(15) 0.27982(15) 0.18631(15)
O3 O 0.15231(17) 0.07845(13) 0.27351(16)
O4 O 0.10523(15) 0.20463(14) 0.30458(14)
C1D C 0.7175(2) 0.0336(2) 0.58939(19)
H1D H 0.7275 -0.0278 0.5989
C2D C 0.7264(2) 0.1763(2) 0.60269(19)
H2D H 0.7448 0.2333 0.6238
C3D C 0.6595(2) 0.1599(2) 0.53238(19)
H3D H 0.6236 0.2021 0.4965
C4D C 0.5905(2) 0.0186(2) 0.45696(18)
H4D H 0.5854 0.0457 0.4062
H5D H 0.6108 -0.0427 0.4579
C5D C 0.5013(2) 0.0171(2) 0.46124(18)
H6D H 0.4629 -0.0200 0.4173
H7D H 0.4780 0.0777 0.4522
N2D N 0.76369(17) 0.09834(18) 0.63881(15)
N5D N 0.6549(2) 0.06908(17) 0.52437(18)
C6A C 0.3776(2) 0.0283(2) -0.09532(19)
H8A H 0.3688 0.0823 -0.1235
C7A C 0.3970(2) -0.1114(2) -0.0648(2)
H9A H 0.4047 -0.1730 -0.0684
C8A C 0.3966(3) -0.0676(2) 0.0010(2)
H10A H 0.4029 -0.0935 0.0501
C9A C 0.3748(2) 0.0962(2) 0.0310(2)
H11A H 0.3782 0.1526 0.0052
H12A H 0.4221 0.0950 0.0840
C10A C 0.2897(2) 0.0916(2) 0.0404(2)
H13A H 0.2855 0.1426 0.0723
H14A H 0.2886 0.0374 0.0699
N1A N 0.38436(18) -0.05028(19) -0.12545(16)
N4A N 0.38525(17) 0.02058(18) -0.01782(16)
C11A C 0.5764(2) -0.0447(2) -0.24426(19)
H15A H 0.5788 -0.1072 -0.2424
C12A C 0.6501(2) 0.0028(2) -0.23683(18)
H16A H 0.7014 -0.0269 -0.2311
C13A C 0.6461(2) 0.0956(2) -0.2381(2)
H17A H 0.6952 0.1291 -0.2331
C14A C 0.5695(2) 0.1392(2) -0.24671(19)
C15A C 0.4953(2) 0.0879(2) -0.2579(2)
C16A C 0.4049(2) 0.1265(2) -0.2798(2)
C17A C 0.5694(2) 0.2409(2) -0.24284(19)
Cd1A Cd 0.381954(15) -0.075851(15) -0.249497(14)
N3A N 0.50114(16) -0.00348(18) -0.25410(15)
O1A O 0.58646(16) 0.28140(15) -0.29541(15)
O2A O 0.56098(15) 0.27982(15) -0.18631(15)
O3A O 0.34769(17) 0.07845(13) -0.27351(16)
O4A O 0.39477(15) 0.20463(14) -0.30458(14)
Cd1B Cd 0.618046(15) 0.424149(15) -0.250503(14)
Cd1C Cd -0.118046(15) 0.424149(15) 0.250503(14)
Cd1D Cd 0.881954(15) 0.075851(15) 0.750503(14)
N2A N 0.26369(17) -0.09834(18) -0.36119(15)
O1B O 0.41354(16) -0.21860(15) -0.20459(15)
O1C O 0.08646(16) -0.21860(15) 0.20459(15)
O2B O 0.43902(15) -0.22018(15) -0.31369(15)
O2C O 0.06098(15) -0.22018(15) 0.31369(15)
O5 O 0.4318(3) 0.2005(3) 0.5451(3)
H18 H 0.3963 0.1974 0.4960
H19 H 0.4055 0.1869 0.5756
O6 O 0.29906(16) 0.18820(16) 0.36176(15)
H20 H 0.2456 0.2029 0.3467
H21 H 0.2997 0.1389 0.3380
O7 O 0.2500 0.1701(2) 0.5000
H22 H 0.2326 0.2120 0.5223
H22A H 0.2674 0.2120 0.4777
H23? H 0.2124 0.1666 0.4517
loop_
_geom_bond_atom_site_label_1
_geom_bond_atom_site_label_2
_geom_bond_site_symmetry_1
_geom_bond_site_symmetry_2
C1 H1 1_555 1_555
C2 H2 1_555 1_555
C3 C2 1_555 1_555
H3 C3 1_555 1_555
C4 H4 1_555 1_555
H5 C4 1_555 1_555
C5 C4 1_555 1_555
H6 C5 1_555 1_555
H7 C5 1_555 1_555
C6 H8 1_555 1_555
C7 H9 1_555 1_555
C8 C7 1_555 1_555
H10 C8 1_555 1_555
C9 H11 1_555 1_555
H12 C9 1_555 1_555
C10 C9 1_555 1_555
H13 C10 1_555 1_555
H14 C10 1_555 1_555
C11 H15 1_555 1_555
C12 C11 1_555 1_555
H16 C12 1_555 1_555
C13 C12 1_555 1_555
H17 C13 1_555 1_555
C14 C13 1_555 1_555
C15 C14 1_555 1_555
C16 C15 1_555 1_555
C17 C14 1_555 1_555
Cd1 N1 1_555 1_555
N1 C6 1_555 1_555
N2 C1 1_555 1_555
N3 C11 1_555 1_555
N4 C6 1_555 1_555
N5 C1 1_555 1_555
O1 C17 1_555 1_555
O2 C17 1_555 1_555
O3 C16 1_555 1_555
O4 C16 1_555 1_555
O5 H18 1_555 1_555
H19 O5 1_555 1_555
O6 H20 1_555 1_555
H21 O6 1_555 1_555
O7 H22 1_555 1_555
C1D H1D 1_555 1_555
C2D H2D 1_555 1_555
C3D C2D 1_555 1_555
H3D C3D 1_555 1_555
C4D H4D 1_555 1_555
H5D C4D 1_555 1_555
C5D C5 1_555 1_555
H6D C5D 1_555 1_555
H7D C5D 1_555 1_555
N2D C1D 1_555 1_555
N5D C1D 1_555 1_555
C6A H8A 1_555 1_555
C7A H9A 1_555 1_555
C8A C7A 1_555 1_555
H10A C8A 1_555 1_555
C9A H11A 1_555 1_555
H12A C9A 1_555 1_555
C10A C10 1_555 1_555
H13A C10A 1_555 1_555
H14A C10A 1_555 1_555
N1A C6A 1_555 1_555
N4A C6A 1_555 1_555
C11A H15A 1_555 1_555
C12A C11A 1_555 1_555
H16A C12A 1_555 1_555
C13A C12A 1_555 1_555
H17A C13A 1_555 1_555
C14A C13A 1_555 1_555
C15A C14A 1_555 1_555
C16A C15A 1_555 1_555
C17A C14A 1_555 1_555
Cd1A N1A 1_555 1_555
N3A C11A 1_555 1_555
O1A C17A 1_555 1_555
O2A C17A 1_555 1_555
O3A C16A 1_555 1_555
O4A C16A 1_555 1_555
Cd1B O1A 1_555 1_555
Cd1C O1 1_555 1_555
Cd1D N2D 1_555 1_555
N2A Cd1A 1_555 1_555
O1B Cd1A 1_555 1_555
O1C Cd1 1_555 1_555
O2B Cd1A 1_555 1_555
O2C Cd1 1_555 1_555
H22A O7 1_555 1_555
C2 N2 1_555 1_555
C3 N5 1_555 1_555
C4 N5 1_555 1_555
C7 N1 1_555 1_555
C8 N4 1_555 1_555
C9 N4 1_555 1_555
C15 N3 1_555 1_555
Cd1 N2 1_555 1_555
Cd1 N3 1_555 1_555
Cd1 O3 1_555 1_555
O2 Cd1C 1_555 1_555
C2D N2D 1_555 1_555
C3D N5D 1_555 1_555
C4D C5D 1_555 1_555
C4D N5D 1_555 1_555
C7A N1A 1_555 1_555
C8A N4A 1_555 1_555
C9A C10A 1_555 1_555
C9A N4A 1_555 1_555
C15A N3A 1_555 1_555
Cd1A N3A 1_555 1_555
Cd1A O3A 1_555 1_555
O2A Cd1B 1_555 1_555

#END
