
#######################################################################
#
#                 Cambridge Crystallographic Data Centre
#                                CCDC 
#
#######################################################################
#
# If this CIF has been generated from an entry in the Cambridge 
# Structural Database, then it will include bibliographic, chemical, 
# crystal, experimental, refinement or atomic coordinate data resulting 
# from the CCDC's data processing and validation procedures.
#
#######################################################################

data_PEXHEG
_symmetry_cell_setting           monoclinic
_symmetry_space_group_name_H-M   'P 21/c'
_symmetry_Int_Tables_number      14
_space_group_name_Hall           '-P 2ybc'
loop_
_symmetry_equiv_pos_site_id
_symmetry_equiv_pos_as_xyz
1 x,y,z
2 -x,1/2+y,1/2-z
3 -x,-y,-z
4 x,1/2-y,1/2+z
_cell_length_a                   10.6509(5)
_cell_length_b                   15.9095(8)
_cell_length_c                   7.2480(4)
_cell_angle_alpha                90
_cell_angle_beta                 93.044(5)
_cell_angle_gamma                90
_cell_volume                     1226.44
loop_
_atom_site_label
_atom_site_type_symbol
_atom_site_fract_x
_atom_site_fract_y
_atom_site_fract_z
Hg1 Hg 0.5000 0.0000 0.0000
O1 O 0.24176(19) 0.06655(14) -0.5451(3)
N1 N 0.3968(3) 0.0233(2) -0.3532(4)
N2 N 0.3229(3) -0.04685(17) -0.4087(4)
N3 N 0.4501(2) 0.34348(16) -0.3809(4)
N4 N -0.0684(2) -0.15426(17) -0.7871(4)
N5 N 0.6800(2) 0.0312(2) -0.0795(4)
N6 N 0.7382(2) 0.08792(16) -0.0062(4)
N7 N 0.8026(3) 0.1403(2) 0.0528(5)
C1 C 0.3446(3) 0.0875(2) -0.4378(4)
C2 C 0.2349(4) -0.0186(2) -0.5203(5)
C3 C 0.3821(3) 0.17508(18) -0.4222(4)
C4 C 0.2992(3) 0.23886(19) -0.4812(4)
H1 H 0.2183 0.2260 -0.5354
C5 C 0.3384(3) 0.32133(19) -0.4584(4)
H2 H 0.2826 0.3647 -0.5002
C6 C 0.5289(3) 0.28189(19) -0.3227(4)
H3 H 0.6084 0.2970 -0.2667
C7 C 0.4994(3) 0.19704(19) -0.3408(4)
H4 H 0.5575 0.1550 -0.2988
C8 C 0.1309(3) -0.06493(19) -0.6134(4)
C9 C 0.1192(3) -0.1511(2) -0.5866(5)
H5 H 0.1785 -0.1809 -0.5091
C10 C 0.0184(3) -0.1923(2) -0.6765(5)
H6 H 0.0108 -0.2511 -0.6581
C11 C -0.0550(3) -0.0708(2) -0.8105(4)
H7 H -0.1155 -0.0424 -0.8888
C12 C 0.0417(3) -0.0241(2) -0.7273(5)
H8 H 0.0469 0.0347 -0.7478
Hg1C Hg 0.5000 0.5000 -0.5000
Hg1C_2 Hg 0.5000 -0.5000 0.5000
O1B O 0.75824(19) -0.06655(14) 0.5451(3)
N1B N 0.6032(3) -0.0233(2) 0.3532(4)
N2B N 0.6771(3) 0.04685(17) 0.4087(4)
N3B N 0.5499(2) -0.34348(16) 0.3809(4)
N3C N 0.4501(2) 0.15652(16) 0.1191(4)
N3A N 0.5499(2) -0.15652(16) -0.1191(4)
N4B N 1.0684(2) 0.15426(17) 0.7871(4)
N5B N 0.3200(2) -0.0312(2) 0.0795(4)
N6B N 0.2618(2) -0.08792(16) 0.0062(4)
N7B N 0.1974(3) -0.1403(2) -0.0528(5)
C1B C 0.6554(3) -0.0875(2) 0.4378(4)
C2B C 0.7651(4) 0.0186(2) 0.5203(5)
C3B C 0.6179(3) -0.17508(18) 0.4222(4)
C4B C 0.7008(3) -0.23886(19) 0.4812(4)
H1B H 0.7817 -0.2260 0.5354
C5B C 0.6616(3) -0.32133(19) 0.4584(4)
H2B H 0.7174 -0.3647 0.5002
C6B C 0.4711(3) -0.28189(19) 0.3227(4)
H3B H 0.3916 -0.2970 0.2667
C7B C 0.5006(3) -0.19704(19) 0.3408(4)
H4B H 0.4425 -0.1550 0.2988
C8B C 0.8691(3) 0.06493(19) 0.6134(4)
C9B C 0.8808(3) 0.1511(2) 0.5866(5)
H5B H 0.8215 0.1809 0.5091
C10B C 0.9816(3) 0.1923(2) 0.6765(5)
H6B H 0.9892 0.2511 0.6581
C11B C 1.0550(3) 0.0708(2) 0.8105(4)
H7B H 1.1155 0.0424 0.8888
C12B C 0.9583(3) 0.0241(2) 0.7273(5)
H8B H 0.9531 -0.0347 0.7478
loop_
_geom_bond_atom_site_label_1
_geom_bond_atom_site_label_2
_geom_bond_site_symmetry_1
_geom_bond_site_symmetry_2
Hg1 N1 1_555 1_555
O1 C1 1_555 1_555
N1 N2 1_555 1_555
N2 C2 1_555 1_555
N3 C5 1_555 1_555
N4 C10 1_555 1_555
N5 Hg1 1_555 1_555
N6 N5 1_555 1_555
N7 N6 1_555 1_555
C1 N1 1_555 1_555
C2 O1 1_555 1_555
C3 C1 1_555 1_555
C4 C3 1_555 1_555
H1 C4 1_555 1_555
C5 C4 1_555 1_555
H2 C5 1_555 1_555
C6 N3 1_555 1_555
H3 C6 1_555 1_555
C7 C3 1_555 1_555
H4 C7 1_555 1_555
C8 C2 1_555 1_555
C9 C8 1_555 1_555
H5 C9 1_555 1_555
C10 C9 1_555 1_555
H6 C10 1_555 1_555
C11 N4 1_555 1_555
H7 C11 1_555 1_555
C12 C8 1_555 1_555
H8 C12 1_555 1_555
Hg1C N3 1_555 1_555
Hg1C_2 N3B 1_555 1_555
O1B C1B 1_555 1_555
N1B Hg1 1_555 1_555
N2B N1B 1_555 1_555
N3B C5B 1_555 1_555
N3C Hg1 1_555 1_555
N3A Hg1 1_555 1_555
N4B C10B 1_555 1_555
N5B Hg1 1_555 1_555
N6B N5B 1_555 1_555
N7B N6B 1_555 1_555
C1B N1B 1_555 1_555
C2B O1B 1_555 1_555
C3B C1B 1_555 1_555
C4B C3B 1_555 1_555
H1B C4B 1_555 1_555
C5B C4B 1_555 1_555
H2B C5B 1_555 1_555
C6B N3B 1_555 1_555
H3B C6B 1_555 1_555
C7B C3B 1_555 1_555
H4B C7B 1_555 1_555
C8B C2B 1_555 1_555
C9B C8B 1_555 1_555
H5B C9B 1_555 1_555
C10B C9B 1_555 1_555
H6B C10B 1_555 1_555
C11B N4B 1_555 1_555
H7B C11B 1_555 1_555
C12B C8B 1_555 1_555
H8B C12B 1_555 1_555
C6 C7 1_555 1_555
C11 C12 1_555 1_555
N2B C2B 1_555 1_555
C6B C7B 1_555 1_555
C11B C12B 1_555 1_555

#END
