
#######################################################################
#
#                 Cambridge Crystallographic Data Centre
#                                CCDC 
#
#######################################################################
#
# If this CIF has been generated from an entry in the Cambridge 
# Structural Database, then it will include bibliographic, chemical, 
# crystal, experimental, refinement or atomic coordinate data resulting 
# from the CCDC's data processing and validation procedures.
#
#######################################################################

data_PEXRUH
_symmetry_cell_setting           monoclinic
_symmetry_space_group_name_H-M   'C 2/c'
_symmetry_Int_Tables_number      15
_space_group_name_Hall           '-C 2yn'
loop_
_symmetry_equiv_pos_site_id
_symmetry_equiv_pos_as_xyz
1 x,y,z
2 -x,y,1/2-z
3 1/2+x,1/2+y,z
4 1/2-x,1/2+y,1/2-z
5 -x,-y,-z
6 x,-y,1/2+z
7 1/2-x,1/2-y,-z
8 1/2+x,1/2-y,1/2+z
_cell_length_a                   26.375(2)
_cell_length_b                   18.8405(17)
_cell_length_c                   20.0249(18)
_cell_angle_alpha                90
_cell_angle_beta                 104.690(3)
_cell_angle_gamma                90
_cell_volume                     9625.47
loop_
_atom_site_label
_atom_site_type_symbol
_atom_site_fract_x
_atom_site_fract_y
_atom_site_fract_z
Zn1 Zn -0.36494(3) 1.04842(4) 0.68714(5)
Cl1 Cl -0.37913(18) 1.0257(2) 0.5743(2)
Cl2 Cl -0.44271(7) 1.05624(10) 0.7126(2)
Cl3 Cl -0.31551(6) 0.96493(7) 0.75457(10)
Cl4 Cl -0.32548(4) 1.15380(6) 0.70293(6)
Cl5 Cl 0.0000 0.83166(10) 0.2500
Cl6 Cl -0.22436(10) 1.27745(15) 0.85644(16)
Tb1 Tb 0.071970(6) 0.785860(9) 0.494681(8)
O1 O 0.15262(12) 0.7393(2) 0.56385(15)
O2 O 0.03760(12) 0.86724(15) 0.40273(14)
O3 O -0.01567(10) 0.80055(17) 0.49487(14)
O4 O 0.11335(12) 0.89597(15) 0.52098(13)
O5 O 0.05454(13) 0.67134(16) 0.53811(15)
O6 O 0.07057(10) 1.18495(14) 0.11039(12)
O7 O 0.13660(15) 1.01936(16) 0.13121(14)
O8 O -0.02618(10) 0.71512(12) 0.09857(13)
O9 O 0.13330(10) 0.78191(13) 0.42817(13)
O10 O 0.09304(10) 0.81870(15) 0.12030(13)
O11 O -0.05719(10) 1.14990(14) 0.09412(13)
O12 O 0.14639(11) 0.98839(15) 0.43463(13)
N1 N 0.13362(12) 0.71636(15) 0.33117(15)
N2 N 0.17286(11) 1.07602(16) 0.23460(15)
N3 N -0.05243(11) 0.65166(15) 0.18231(14)
N4 N 0.03178(11) 0.66532(15) 0.19264(14)
N5 N 0.04889(11) 1.24494(16) 0.20035(14)
N6 N 0.16850(11) 1.06123(16) 0.35344(14)
N7 N 0.17235(11) 0.82080(16) 0.34389(14)
N8 N 0.15790(11) 0.83370(16) 0.22006(14)
N9 N 0.18737(11) 0.94650(16) 0.35319(14)
N10 N 0.12300(11) 1.18490(16) 0.22225(14)
N11 N -0.04500(11) 1.23513(16) 0.17924(14)
N12 N -0.11640(11) 1.16842(16) 0.15923(14)
N13 N 0.11129(11) 0.73379(16) 0.20653(15)
N14 N 0.17798(12) 0.95865(16) 0.22989(15)
C1 C 0.16759(14) 1.1474(2) 0.20925(19)
H1 H 0.1642 1.1466 0.1594
H2 H 0.1996 1.1737 0.2309
C2 C 0.15884(14) 1.1278(2) 0.38379(18)
H3 H 0.1909 1.1564 0.3931
H4 H 0.1507 1.1182 0.4281
C3 C 0.20087(14) 1.05655(19) 0.30440(18)
H5 H 0.2345 1.0822 0.3204
C4 C 0.14490(13) 0.77372(19) 0.37238(18)
C5 C 0.15273(13) 0.72226(19) 0.27034(18)
H6 H 0.1758 0.6821 0.2659
C6 C -0.07129(13) 1.1811(2) 0.14023(17)
C7 C 0.07952(13) 1.20284(17) 0.17195(18)
C8 C -0.01596(13) 0.68127(18) 0.15350(16)
C9 C 0.11785(13) 0.79742(19) 0.17649(19)
C10 C 0.07904(13) 0.6788(2) 0.16954(17)
H7 H 0.0996 0.6349 0.1742
H8 H 0.0689 0.6913 0.1205
C11 C -0.00160(13) 1.27180(19) 0.16313(18)
H9 H -0.0037 1.3223 0.1738
H10 H -0.0046 1.2677 0.1135
C12 C 0.07270(13) 1.26205(19) 0.27266(17)
H11 H 0.0800 1.3135 0.2793
C13 C 0.02949(13) 0.62088(18) 0.25159(18)
H12 H 0.0429 0.5724 0.2475
C14 C 0.18232(13) 0.79306(18) 0.28044(18)
H13 H 0.2203 0.7863 0.2848
C15 C -0.10808(13) 0.65408(19) 0.15011(18)
H14 H -0.1246 0.6116 0.1634
H15 H -0.1135 0.6532 0.0999
C16 C 0.20172(14) 0.87772(19) 0.38307(18)
H16 H 0.2391 0.8698 0.3870
H17 H 0.1964 0.8770 0.4298
C17 C 0.20846(12) 0.97528(19) 0.29918(17)
H18 H 0.2459 0.9627 0.3059
C18 C 0.16497(13) 0.9977(2) 0.38442(17)
C19 C 0.18410(14) 0.89296(19) 0.19607(19)
H19 H 0.2215 0.8822 0.2044
H20 H 0.1698 0.8986 0.1462
C20 C 0.12415(14) 1.21765(18) 0.28819(18)
H21 H 0.1556 1.2476 0.3051
C21 C 0.16006(16) 1.0183(2) 0.19190(19)
O6A O -0.07057(10) 1.18495(14) 0.38961(12)
O7A O -0.13660(15) 1.01936(16) 0.36879(14)
O8A O 0.02618(10) 0.71512(12) 0.40143(13)
O9A O -0.13330(10) 0.78191(13) 0.07183(13)
O10A O -0.09304(10) 0.81870(15) 0.37970(13)
O11A O 0.05719(10) 1.14990(14) 0.40588(13)
O12A O -0.14639(11) 0.98839(15) 0.06537(13)
N1A N -0.13362(12) 0.71636(15) 0.16883(15)
N2A N -0.17286(11) 1.07602(16) 0.26540(15)
N3A N 0.05243(11) 0.65166(15) 0.31769(14)
N4A N -0.03178(11) 0.66532(15) 0.30736(14)
N5A N -0.04889(11) 1.24494(16) 0.29965(14)
N6A N -0.16850(11) 1.06123(16) 0.14656(14)
N7A N -0.17235(11) 0.82080(16) 0.15611(14)
N8A N -0.15790(11) 0.83370(16) 0.27994(14)
N9A N -0.18737(11) 0.94650(16) 0.14681(14)
N10A N -0.12300(11) 1.18490(16) 0.27775(14)
N11A N 0.04500(11) 1.23513(16) 0.32076(14)
N12A N 0.11640(11) 1.16842(16) 0.34077(14)
N13A N -0.11129(11) 0.73379(16) 0.29347(15)
N14A N -0.17798(12) 0.95865(16) 0.27011(15)
C1A C -0.16759(14) 1.1474(2) 0.29075(19)
H1A H -0.1642 1.1466 0.3406
H2A H -0.1996 1.1737 0.2691
C2A C -0.15884(14) 1.1278(2) 0.11621(18)
H3A H -0.1909 1.1564 0.1069
H4A H -0.1507 1.1182 0.0719
C3A C -0.20087(14) 1.05655(19) 0.19560(18)
H5A H -0.2345 1.0822 0.1796
C4A C -0.14490(13) 0.77372(19) 0.12762(18)
C5A C -0.15273(13) 0.72226(19) 0.22966(18)
H6A H -0.1758 0.6821 0.2341
C6A C 0.07129(13) 1.1811(2) 0.35977(17)
C7A C -0.07952(13) 1.20284(17) 0.32805(18)
C8A C 0.01596(13) 0.68127(18) 0.34650(16)
C9A C -0.11785(13) 0.79742(19) 0.32351(19)
C10A C -0.07904(13) 0.6788(2) 0.33046(17)
H7A H -0.0996 0.6349 0.3258
H8A H -0.0689 0.6913 0.3795
C11A C 0.00160(13) 1.27180(19) 0.33687(18)
H9A H 0.0037 1.3223 0.3262
H10A H 0.0046 1.2677 0.3865
C12A C -0.07270(13) 1.26205(19) 0.22734(17)
H11A H -0.0800 1.3135 0.2207
C13A C -0.02949(13) 0.62088(18) 0.24841(18)
H12A H -0.0429 0.5724 0.2525
C14A C -0.18232(13) 0.79306(18) 0.21956(18)
H13A H -0.2203 0.7863 0.2152
C15A C 0.10808(13) 0.65408(19) 0.34989(18)
H14A H 0.1246 0.6116 0.3366
H15A H 0.1135 0.6532 0.4001
C16A C -0.20172(14) 0.87772(19) 0.11693(18)
H16A H -0.2391 0.8698 0.1130
H17A H -0.1964 0.8770 0.0702
C17A C -0.20846(12) 0.97528(19) 0.20082(17)
H18A H -0.2459 0.9627 0.1941
C18A C -0.16497(13) 0.9977(2) 0.11558(17)
C19A C -0.18410(14) 0.89296(19) 0.30393(19)
H19A H -0.2215 0.8822 0.2956
H20A H -0.1698 0.8986 0.3538
C20A C -0.12415(14) 1.21765(18) 0.21181(18)
H21A H -0.1556 1.2476 0.1949
C21A C -0.16006(16) 1.0183(2) 0.30810(19)
Tb1A Tb -0.071970(6) 0.785860(9) 0.005319(8)
O1A O -0.15262(12) 0.7393(2) -0.06385(15)
O2A O -0.03760(12) 0.86724(15) 0.09727(14)
O3A O 0.01567(10) 0.80055(17) 0.00513(14)
O4A O -0.11335(12) 0.89597(15) -0.02098(13)
O5A O -0.05454(13) 0.67134(16) -0.03811(15)
Tb1D Tb -0.071970(6) 1.214140(9) 0.505319(8)
Tb1E Tb 0.071970(6) 1.214140(9) -0.005319(8)
O6D O -0.07057(10) 0.81505(14) -0.11039(12)
O6E O 0.07057(10) 0.81505(14) 0.61039(12)
Zn2? Zn -0.36596(12) 1.04865(15) 0.73250(18)
loop_
_geom_bond_atom_site_label_1
_geom_bond_atom_site_label_2
_geom_bond_site_symmetry_1
_geom_bond_site_symmetry_2
Tb1 O1 1_555 1_555
O2 Tb1 1_555 1_555
O3 Tb1 1_555 1_555
O4 Tb1 1_555 1_555
O5 Tb1 1_555 1_555
O6 C7 1_555 1_555
O7 C21 1_555 1_555
O8 C8 1_555 1_555
O9 Tb1 1_555 1_555
O10 C9 1_555 1_555
O11 C6 1_555 1_555
O12 C18 1_555 1_555
N1 C4 1_555 1_555
N2 C1 1_555 1_555
N3 C8 1_555 1_555
N4 C8 1_555 1_555
N5 C7 1_555 1_555
N6 C2 1_555 1_555
N7 C4 1_555 1_555
N8 C9 1_555 1_555
N9 C16 1_555 1_555
N10 C1 1_555 1_555
N11 C6 1_555 1_555
N12 C6 1_555 1_555
N13 C5 1_555 1_555
N14 C17 1_555 1_555
C1 H1 1_555 1_555
H2 C1 1_555 1_555
C2 H3 1_555 1_555
H4 C2 1_555 1_555
C3 N2 1_555 1_555
H5 C3 1_555 1_555
C4 O9 1_555 1_555
C5 N1 1_555 1_555
H6 C5 1_555 1_555
C7 N10 1_555 1_555
C9 N13 1_555 1_555
C10 N4 1_555 1_555
H7 C10 1_555 1_555
H8 C10 1_555 1_555
C11 N5 1_555 1_555
H9 C11 1_555 1_555
H10 C11 1_555 1_555
C12 N5 1_555 1_555
H11 C12 1_555 1_555
C13 N4 1_555 1_555
H12 C13 1_555 1_555
C14 N7 1_555 1_555
H13 C14 1_555 1_555
C15 N3 1_555 1_555
H14 C15 1_555 1_555
H15 C15 1_555 1_555
C16 N7 1_555 1_555
H16 C16 1_555 1_555
H17 C16 1_555 1_555
C17 N9 1_555 1_555
H18 C17 1_555 1_555
C18 N6 1_555 1_555
C19 N8 1_555 1_555
H19 C19 1_555 1_555
H20 C19 1_555 1_555
C20 N10 1_555 1_555
H21 C20 1_555 1_555
C21 N2 1_555 1_555
Zn1 Cl1 1_555 1_555
Cl2 Zn1 1_555 1_555
Cl3 Zn1 1_555 1_555
Cl4 Zn1 1_555 1_555
O6A C7A 1_555 1_555
O7A C21A 1_555 1_555
O8A Tb1 1_555 1_555
O9A C4A 1_555 1_555
O10A C9A 1_555 1_555
O11A C6A 1_555 1_555
O12A C18A 1_555 1_555
N1A C15 1_555 1_555
N2A C1A 1_555 1_555
N3A C13 1_555 1_555
N4A C8A 1_555 1_555
N5A C7A 1_555 1_555
N6A C2A 1_555 1_555
N7A C4A 1_555 1_555
N8A C9A 1_555 1_555
N9A C16A 1_555 1_555
N10A C1A 1_555 1_555
N11A C12 1_555 1_555
N12A C2 1_555 1_555
N13A C5A 1_555 1_555
N14A C17A 1_555 1_555
C1A H1A 1_555 1_555
H2A C1A 1_555 1_555
C2A N12 1_555 1_555
H3A C2A 1_555 1_555
H4A C2A 1_555 1_555
C3A N2A 1_555 1_555
H5A C3A 1_555 1_555
C4A N1A 1_555 1_555
C5A N1A 1_555 1_555
H6A C5A 1_555 1_555
C6A N11A 1_555 1_555
C7A N10A 1_555 1_555
C8A O8A 1_555 1_555
C9A N13A 1_555 1_555
C10A N4A 1_555 1_555
H7A C10A 1_555 1_555
H8A C10A 1_555 1_555
C11A N5A 1_555 1_555
H9A C11A 1_555 1_555
H10A C11A 1_555 1_555
C12A N11 1_555 1_555
H11A C12A 1_555 1_555
C13A N3 1_555 1_555
H12A C13A 1_555 1_555
C14A N7A 1_555 1_555
H13A C14A 1_555 1_555
C15A N1 1_555 1_555
H14A C15A 1_555 1_555
H15A C15A 1_555 1_555
C16A N7A 1_555 1_555
H16A C16A 1_555 1_555
H17A C16A 1_555 1_555
C17A N9A 1_555 1_555
H18A C17A 1_555 1_555
C18A N6A 1_555 1_555
C19A N8A 1_555 1_555
H19A C19A 1_555 1_555
H20A C19A 1_555 1_555
C20A N12 1_555 1_555
H21A C20A 1_555 1_555
C21A N2A 1_555 1_555
Tb1A O8 1_555 1_555
O1A Tb1A 1_555 1_555
O2A Tb1A 1_555 1_555
O3A Tb1A 1_555 1_555
O4A Tb1A 1_555 1_555
O5A Tb1A 1_555 1_555
Tb1D O6A 1_555 1_555
Tb1E O6 1_555 1_555
O6D Tb1A 1_555 1_555
O6E Tb1 1_555 1_555
N6 C3 1_555 1_555
N8 C14 1_555 1_555
N9 C18 1_555 1_555
N11 C11 1_555 1_555
N13 C10 1_555 1_555
N14 C19 1_555 1_555
N14 C21 1_555 1_555
C3 C17 1_555 1_555
C5 C14 1_555 1_555
C12 C20 1_555 1_555
C13 C13A 1_555 1_555
C20 N12A 1_555 1_555
O9A Tb1A 1_555 1_555
N3A C8A 1_555 1_555
N3A C15A 1_555 1_555
N4A C13A 1_555 1_555
N5A C12A 1_555 1_555
N6A C3A 1_555 1_555
N8A C14A 1_555 1_555
N9A C18A 1_555 1_555
N10A C20A 1_555 1_555
N11A C11A 1_555 1_555
N12A C6A 1_555 1_555
N13A C10A 1_555 1_555
N14A C19A 1_555 1_555
N14A C21A 1_555 1_555
C3A C17A 1_555 1_555
C5A C14A 1_555 1_555
C12A C20A 1_555 1_555

#END
