
#######################################################################
#
#                 Cambridge Crystallographic Data Centre
#                                CCDC 
#
#######################################################################
#
# If this CIF has been generated from an entry in the Cambridge 
# Structural Database, then it will include bibliographic, chemical, 
# crystal, experimental, refinement or atomic coordinate data resulting 
# from the CCDC's data processing and validation procedures.
#
#######################################################################

data_PEXROB
_symmetry_cell_setting           monoclinic
_symmetry_space_group_name_H-M   'C 2/c'
_symmetry_Int_Tables_number      15
_space_group_name_Hall           '-C 2yn'
loop_
_symmetry_equiv_pos_site_id
_symmetry_equiv_pos_as_xyz
1 x,y,z
2 -x,y,1/2-z
3 1/2+x,1/2+y,z
4 1/2-x,1/2+y,1/2-z
5 -x,-y,-z
6 x,-y,1/2+z
7 1/2-x,1/2-y,-z
8 1/2+x,1/2-y,1/2+z
_cell_length_a                   26.4821(16)
_cell_length_b                   18.9227(12)
_cell_length_c                   19.9297(13)
_cell_angle_alpha                90
_cell_angle_beta                 104.577(2)
_cell_angle_gamma                90
_cell_volume                     9665.55
loop_
_atom_site_label
_atom_site_type_symbol
_atom_site_fract_x
_atom_site_fract_y
_atom_site_fract_z
Cl2 Cl 0.67528(6) 0.65424(9) 0.70490(9)
Cl3 Cl 0.68392(9) 0.46417(11) 0.75225(15)
Cl4 Cl 0.55803(11) 0.55681(14) 0.7136(3)
Cl5 Cl 0.6194(2) 0.5305(3) 0.5715(3)
Zn1 Zn 0.63528(4) 0.55000(6) 0.69271(10)
O1 O 0.96173(17) 0.3657(2) 1.0978(2)
O2 O 1.01400(15) 0.3009(2) 1.0042(2)
O3 O 0.88689(17) 0.3944(2) 0.97860(18)
O4 O 0.84884(16) 0.2408(3) 0.9368(2)
O5 O 0.94419(18) 0.1737(2) 0.9615(2)
Er1 Er 0.927786(9) 0.286063(12) 1.005332(11)
C1 C 1.0016(2) 0.2298(3) 0.8371(3)
H1 H 1.0037 0.1795 0.8262
H2 H 1.0049 0.2337 0.8870
C2 C 1.01649(19) 0.8178(3) 0.8469(2)
N1 N 0.94742(16) 0.8489(2) 0.6820(2)
C3 C 0.9204(2) 0.2982(3) 0.8291(3)
C4 C 0.8762(2) 0.2836(3) 0.7116(3)
H3 H 0.8447 0.2541 0.6941
C5 C 0.92684(19) 0.2392(3) 0.7270(2)
H4 H 0.9194 0.1881 0.7201
C6 C 0.9286(2) 0.3196(3) 0.6390(3)
C7 C 0.8421(2) 0.3730(3) 0.6158(3)
H5 H 0.8104 0.3439 0.6066
H6 H 0.8501 0.3824 0.5713
C8 C 0.8325(2) 0.3541(3) 0.7903(3)
H7 H 0.8006 0.3284 0.7677
H8 H 0.8350 0.3546 0.8402
C9 C 0.83581(19) 0.5035(3) 0.6144(3)
C10 C 0.8002(2) 0.4446(3) 0.6966(3)
H9 H 0.7668 0.4187 0.6809
C11 C 0.7916(2) 0.5252(3) 0.7005(3)
H10 H 0.7542 0.5371 0.6937
C12 C 0.8395(2) 0.4824(3) 0.8089(3)
C13 C 0.7983(2) 0.6221(3) 0.6158(3)
H11 H 0.7611 0.6302 0.6116
H12 H 0.8040 0.6226 0.5691
C14 C 0.8166(2) 0.6077(3) 0.8043(3)
H13 H 0.8306 0.6022 0.8545
H14 H 0.7794 0.6189 0.7958
C15 C 0.85610(19) 0.7256(3) 0.6281(3)
C16 C 0.8181(2) 0.7069(2) 0.7198(3)
H15 H 0.7804 0.7138 0.7153
C17 C 0.8482(2) 0.7772(3) 0.7304(3)
H16 H 0.8253 0.8175 0.7346
C18 C 0.8820(2) 0.7027(3) 0.8244(3)
C19 C 0.89175(18) 0.8449(3) 0.6504(2)
H17 H 0.8748 0.8866 0.6643
H18 H 0.8860 0.8464 0.5999
C20 C 0.9212(2) 0.8206(3) 0.8315(3)
H19 H 0.9313 0.8078 0.8807
H20 H 0.9009 0.8644 0.8272
C21 C 0.97043(19) 0.8778(3) 0.7486(3)
H21 H 0.9575 0.9262 0.7533
N2 N 0.87677(16) 0.3163(2) 0.7784(2)
N3 N 0.95127(16) 0.2561(2) 0.80055(19)
N4 N 0.88438(17) 0.3337(2) 0.6591(2)
N5 N 0.95486(17) 0.2663(2) 0.6792(2)
N6 N 0.83161(17) 0.4402(2) 0.6462(2)
N7 N 0.81255(17) 0.5540(2) 0.6466(2)
N8 N 0.82771(17) 0.4248(2) 0.7657(2)
N9 N 0.82210(18) 0.5420(2) 0.7712(2)
N10 N 0.82832(16) 0.6789(2) 0.6564(2)
N11 N 0.86747(17) 0.7827(2) 0.6688(2)
N12 N 0.84270(16) 0.6659(2) 0.7809(2)
N13 N 0.88851(16) 0.7658(2) 0.7941(2)
N14 N 0.96838(15) 0.8338(2) 0.8080(2)
O6 O 0.92957(15) 0.3160(2) 0.89024(17)
O7 O 0.94338(15) 0.3509(2) 0.59373(19)
O8 O 0.85469(17) 0.5127(2) 0.5658(2)
O9 O 0.86708(15) 0.71776(19) 0.57086(19)
O10 O 1.02604(14) 0.78415(18) 0.90145(18)
O11 O 0.90669(16) 0.6815(2) 0.88157(19)
O12 O 0.8624(2) 0.4821(2) 0.8694(2)
C1A C 0.9984(2) 0.2298(3) 0.6629(3)
H1A H 0.9963 0.1795 0.6738
H2A H 0.9951 0.2337 0.6130
C2A C 0.98351(19) 0.8178(3) 0.6531(2)
N1A N 1.05258(16) 0.8489(2) 0.8180(2)
C3A C 1.0796(2) 0.2982(3) 0.6709(3)
C4A C 1.1238(2) 0.2836(3) 0.7884(3)
H3A H 1.1553 0.2541 0.8059
C5A C 1.07316(19) 0.2392(3) 0.7730(2)
H4A H 1.0806 0.1881 0.7799
C6A C 1.0714(2) 0.3196(3) 0.8610(3)
C7A C 1.1579(2) 0.3730(3) 0.8842(3)
H5A H 1.1896 0.3439 0.8934
H6A H 1.1499 0.3824 0.9287
C8A C 1.1675(2) 0.3541(3) 0.7097(3)
H7A H 1.1994 0.3284 0.7323
H8A H 1.1650 0.3546 0.6598
C9A C 1.16419(19) 0.5035(3) 0.8856(3)
C10A C 1.1998(2) 0.4446(3) 0.8034(3)
H9A H 1.2332 0.4187 0.8191
C11A C 1.2084(2) 0.5252(3) 0.7995(3)
H10A H 1.2458 0.5371 0.8063
C12A C 1.1605(2) 0.4824(3) 0.6911(3)
C13A C 1.2017(2) 0.6221(3) 0.8842(3)
H11A H 1.2389 0.6302 0.8884
H12A H 1.1960 0.6226 0.9309
C14A C 1.1834(2) 0.6077(3) 0.6957(3)
H13A H 1.1694 0.6022 0.6455
H14A H 1.2206 0.6189 0.7042
C15A C 1.14390(19) 0.7256(3) 0.8719(3)
C16A C 1.1819(2) 0.7069(2) 0.7802(3)
H15A H 1.2196 0.7138 0.7847
C17A C 1.1518(2) 0.7772(3) 0.7696(3)
H16A H 1.1747 0.8175 0.7654
C18A C 1.1180(2) 0.7027(3) 0.6756(3)
C19A C 1.10825(18) 0.8449(3) 0.8496(2)
H17A H 1.1252 0.8866 0.8357
H18A H 1.1140 0.8464 0.9001
C20A C 1.0788(2) 0.8206(3) 0.6685(3)
H19A H 1.0687 0.8078 0.6193
H20A H 1.0991 0.8644 0.6728
C21A C 1.02957(19) 0.8778(3) 0.7514(3)
H21A H 1.0425 0.9262 0.7467
N2A N 1.12323(16) 0.3163(2) 0.7216(2)
N3A N 1.04873(16) 0.2561(2) 0.69945(19)
N4A N 1.11562(17) 0.3337(2) 0.8409(2)
N5A N 1.04514(17) 0.2663(2) 0.8208(2)
N6A N 1.16839(17) 0.4402(2) 0.8538(2)
N7A N 1.18745(17) 0.5540(2) 0.8534(2)
N8A N 1.17229(17) 0.4248(2) 0.7343(2)
N9A N 1.17790(18) 0.5420(2) 0.7288(2)
N10A N 1.17168(16) 0.6789(2) 0.8436(2)
N11A N 1.13253(17) 0.7827(2) 0.8312(2)
N12A N 1.15730(16) 0.6659(2) 0.7191(2)
N13A N 1.11149(16) 0.7658(2) 0.7059(2)
N14A N 1.03162(15) 0.8338(2) 0.6920(2)
O6A O 1.07043(15) 0.3160(2) 0.60976(17)
O7A O 1.05662(15) 0.3509(2) 0.90627(19)
O8A O 1.14531(17) 0.5127(2) 0.9342(2)
O9A O 1.13292(15) 0.71776(19) 0.92914(19)
O10A O 0.97396(14) 0.78415(18) 0.59855(18)
O11A O 1.09331(16) 0.6815(2) 0.61843(19)
O12A O 1.1376(2) 0.4821(2) 0.6306(2)
O1A O 1.03827(17) 0.3657(2) 0.4022(2)
O2A O 0.98600(15) 0.3009(2) 0.4958(2)
O3A O 1.11311(17) 0.3944(2) 0.52140(18)
O4A O 1.15116(16) 0.2408(3) 0.5632(2)
O5A O 1.05581(18) 0.1737(2) 0.5385(2)
Er1A Er 1.072214(9) 0.286063(12) 0.494668(11)
Er1D Er 1.072214(9) 0.713937(12) 0.994668(11)
Er1E Er 0.927786(9) 0.713937(12) 0.505332(11)
O9D O 1.13292(15) 0.28224(19) 0.42914(19)
O9E O 0.86708(15) 0.28224(19) 1.07086(19)
O10D O 0.97396(14) 0.21585(18) 1.09855(18)
O10E O 1.02604(14) 0.21585(18) 0.40145(18)
Cl1 Cl 0.77631(10) 0.78035(14) 0.85643(15)
loop_
_geom_bond_atom_site_label_1
_geom_bond_atom_site_label_2
_geom_bond_site_symmetry_1
_geom_bond_site_symmetry_2
Cl2 Zn1 1_555 1_555
Cl3 Zn1 1_555 1_555
Cl4 Zn1 1_555 1_555
Cl5 Zn1 1_555 1_555
O1 Er1 1_555 1_555
O2 Er1 1_555 1_555
O3 Er1 1_555 1_555
O4 Er1 1_555 1_555
O5 Er1 1_555 1_555
Er1 O6 1_555 1_555
C1 H1 1_555 1_555
H2 C1 1_555 1_555
C2 N14 1_555 1_555
N1 C19 1_555 1_555
C3 N2 1_555 1_555
C4 H3 1_555 1_555
C5 C4 1_555 1_555
H4 C5 1_555 1_555
C6 N4 1_555 1_555
C7 H5 1_555 1_555
H6 C7 1_555 1_555
C8 H7 1_555 1_555
H8 C8 1_555 1_555
C9 N6 1_555 1_555
C10 H9 1_555 1_555
C11 C10 1_555 1_555
H10 C11 1_555 1_555
C12 N8 1_555 1_555
C13 H11 1_555 1_555
H12 C13 1_555 1_555
C14 H13 1_555 1_555
H14 C14 1_555 1_555
C15 N10 1_555 1_555
C16 H15 1_555 1_555
C17 C16 1_555 1_555
H16 C17 1_555 1_555
C18 N12 1_555 1_555
C19 H17 1_555 1_555
H18 C19 1_555 1_555
C20 H19 1_555 1_555
H20 C20 1_555 1_555
C21 N1 1_555 1_555
H21 C21 1_555 1_555
N2 C4 1_555 1_555
N3 C1 1_555 1_555
N4 C4 1_555 1_555
N5 C5 1_555 1_555
N6 C7 1_555 1_555
N7 C9 1_555 1_555
N8 C8 1_555 1_555
N9 C11 1_555 1_555
N10 C13 1_555 1_555
N11 C15 1_555 1_555
N12 C14 1_555 1_555
N13 C17 1_555 1_555
N14 C20 1_555 1_555
O6 C3 1_555 1_555
O7 C6 1_555 1_555
O8 C9 1_555 1_555
O9 C15 1_555 1_555
O10 C2 1_555 1_555
O11 C18 1_555 1_555
O12 C12 1_555 1_555
C1A N5 1_555 1_555
H1A C1A 1_555 1_555
H2A C1A 1_555 1_555
C2A N1 1_555 1_555
N1A C2 1_555 1_555
C3A N2A 1_555 1_555
C4A H3A 1_555 1_555
C5A C4A 1_555 1_555
H4A C5A 1_555 1_555
C6A N4A 1_555 1_555
C7A H5A 1_555 1_555
H6A C7A 1_555 1_555
C8A H7A 1_555 1_555
H8A C8A 1_555 1_555
C9A N6A 1_555 1_555
C10A H9A 1_555 1_555
C11A C10A 1_555 1_555
H10A C11A 1_555 1_555
C12A N8A 1_555 1_555
C13A H11A 1_555 1_555
H12A C13A 1_555 1_555
C14A H13A 1_555 1_555
H14A C14A 1_555 1_555
C15A N10A 1_555 1_555
C16A H15A 1_555 1_555
C17A C16A 1_555 1_555
H16A C17A 1_555 1_555
C18A N12A 1_555 1_555
C19A N1A 1_555 1_555
H17A C19A 1_555 1_555
H18A C19A 1_555 1_555
C20A H19A 1_555 1_555
H20A C20A 1_555 1_555
C21A C21 1_555 1_555
H21A C21A 1_555 1_555
N2A C4A 1_555 1_555
N3A C1A 1_555 1_555
N4A C4A 1_555 1_555
N5A C1 1_555 1_555
N6A C7A 1_555 1_555
N7A C9A 1_555 1_555
N8A C8A 1_555 1_555
N9A C11A 1_555 1_555
N10A C13A 1_555 1_555
N11A C15A 1_555 1_555
N12A C14A 1_555 1_555
N13A C17A 1_555 1_555
N14A C2A 1_555 1_555
O6A C3A 1_555 1_555
O7A C6A 1_555 1_555
O8A C9A 1_555 1_555
O9A C15A 1_555 1_555
O10A C2A 1_555 1_555
O11A C18A 1_555 1_555
O12A C12A 1_555 1_555
O1A Er1A 1_555 1_555
O2A Er1A 1_555 1_555
O3A Er1A 1_555 1_555
O4A Er1A 1_555 1_555
O5A Er1A 1_555 1_555
Er1A O6A 1_555 1_555
Er1D O10 1_555 1_555
Er1E O9 1_555 1_555
O9D Er1A 1_555 1_555
O9E Er1 1_555 1_555
O10D Er1 1_555 1_555
O10E Er1A 1_555 1_555
C3 N3 1_555 1_555
C5 N3 1_555 1_555
C6 N5 1_555 1_555
C7 N4 1_555 1_555
C8 N2 1_555 1_555
C10 N6 1_555 1_555
C10 N8 1_555 1_555
C11 N7 1_555 1_555
C12 N9 1_555 1_555
C13 N7 1_555 1_555
C14 N9 1_555 1_555
C16 N10 1_555 1_555
C16 N12 1_555 1_555
C17 N11 1_555 1_555
C18 N13 1_555 1_555
C19 N11 1_555 1_555
C20 N13 1_555 1_555
C21 N14 1_555 1_555
N1A C21A 1_555 1_555
C3A N3A 1_555 1_555
C5A N3A 1_555 1_555
C5A N5A 1_555 1_555
C6A N5A 1_555 1_555
C7A N4A 1_555 1_555
C8A N2A 1_555 1_555
C10A N6A 1_555 1_555
C10A N8A 1_555 1_555
C11A N7A 1_555 1_555
C12A N9A 1_555 1_555
C13A N7A 1_555 1_555
C14A N9A 1_555 1_555
C16A N10A 1_555 1_555
C16A N12A 1_555 1_555
C17A N11A 1_555 1_555
C18A N13A 1_555 1_555
C19A N11A 1_555 1_555
C20A N13A 1_555 1_555
C20A N14A 1_555 1_555
C21A N14A 1_555 1_555
O9A Er1D 1_555 1_555
O10A Er1E 1_555 1_555

#END
