
#######################################################################
#
#                 Cambridge Crystallographic Data Centre
#                                CCDC 
#
#######################################################################
#
# If this CIF has been generated from an entry in the Cambridge 
# Structural Database, then it will include bibliographic, chemical, 
# crystal, experimental, refinement or atomic coordinate data resulting 
# from the CCDC's data processing and validation procedures.
#
#######################################################################

data_PEXSAO
_symmetry_cell_setting           monoclinic
_symmetry_space_group_name_H-M   'C 2/c'
_symmetry_Int_Tables_number      15
_space_group_name_Hall           '-C 2yn'
loop_
_symmetry_equiv_pos_site_id
_symmetry_equiv_pos_as_xyz
1 x,y,z
2 -x,y,1/2-z
3 1/2+x,1/2+y,z
4 1/2-x,1/2+y,1/2-z
5 -x,-y,-z
6 x,-y,1/2+z
7 1/2-x,1/2-y,-z
8 1/2+x,1/2-y,1/2+z
_cell_length_a                   26.6201(19)
_cell_length_b                   18.9954(14)
_cell_length_c                   20.0385(15)
_cell_angle_alpha                90
_cell_angle_beta                 104.030(2)
_cell_angle_gamma                90
_cell_volume                     9830.39
loop_
_atom_site_label
_atom_site_type_symbol
_atom_site_fract_x
_atom_site_fract_y
_atom_site_fract_z
Zn1 Zn 0.36548(3) 0.44707(5) 0.30998(8)
Cl2 Cl 0.32328(5) 0.34370(6) 0.29530(7)
Cl3 Cl 0.31812(7) 0.53489(8) 0.24963(11)
Cl4 Cl 0.44048(6) 0.43943(8) 0.27668(13)
Cl5 Cl 0.38413(12) 0.46924(14) 0.42488(13)
O1 O 0.15159(13) 0.2403(2) 0.56328(18)
O2 O -0.01563(13) 0.3018(2) 0.49528(17)
O3 O 0.03808(14) 0.36766(17) 0.40129(16)
O4 O 0.11380(14) 0.39697(17) 0.51990(16)
O5 O 0.05495(15) 0.17380(17) 0.53968(18)
Gd1 Gd 0.071905(8) 0.287267(10) 0.494213(9)
C1 C 0.01584(16) 0.18256(19) 0.3469(2)
C2 C 0.02952(16) 0.1228(2) 0.2512(2)
H1 H 0.0426 0.0747 0.2468
C3 C 0.10664(15) 0.1555(2) 0.3480(2)
H2 H 0.1230 0.1136 0.3340
H3 H 0.1121 0.1540 0.3981
C4 C 0.07871(16) 0.1788(2) 0.1691(2)
H4 H 0.0987 0.1350 0.1743
H5 H 0.0691 0.1905 0.1200
C5 C 0.14395(15) 0.2743(2) 0.3705(2)
C6 C 0.15112(16) 0.2229(2) 0.2682(2)
H6 H 0.1737 0.1827 0.2639
C7 C 0.18096(16) 0.2929(2) 0.2779(2)
H7 H 0.2184 0.2858 0.2816
C8 C 0.11780(17) 0.2971(2) 0.1747(2)
C9 C 0.20160(17) 0.3771(2) 0.3798(2)
H8 H 0.1974 0.3765 0.4271
H9 H 0.2383 0.3690 0.3818
C10 C 0.18291(19) 0.3913(2) 0.1939(2)
H10 H 0.2199 0.3802 0.2022
H11 H 0.1692 0.3964 0.1442
C11 C 0.16456(16) 0.4957(2) 0.3821(2)
C12 C 0.20733(17) 0.4747(2) 0.2958(2)
H12 H 0.2445 0.4634 0.3017
C13 C 0.19854(17) 0.5546(2) 0.3007(2)
H13 H 0.2315 0.5807 0.3160
C14 C 0.15952(19) 0.5161(2) 0.1899(2)
C15 C 0.15705(17) 0.6247(2) 0.3816(2)
H14 H 0.1489 0.6149 0.4258
H15 H 0.1885 0.6536 0.3907
C16 C 0.16560(17) 0.6452(2) 0.2064(2)
H16 H 0.1972 0.6715 0.2274
H17 H 0.1620 0.6446 0.1566
C17 C 0.07108(16) 0.6781(2) 0.3590(2)
C18 C 0.12244(17) 0.7140(2) 0.2857(2)
H18 H 0.1536 0.7435 0.3024
C19 C 0.07245(16) 0.7581(2) 0.2712(2)
H19 H 0.0800 0.8089 0.2780
C20 C 0.07893(17) 0.6995(2) 0.1710(2)
C21 C -0.00139(16) 0.7682(2) 0.1633(2)
H20 H -0.0045 0.7641 0.1138
H21 H -0.0035 0.8183 0.1740
N1 N 0.05238(12) 0.15296(17) 0.31729(16)
N2 N 0.13177(14) 0.21788(17) 0.32929(18)
N3 N 0.03175(13) 0.16687(17) 0.19233(17)
N4 N 0.11134(13) 0.23433(18) 0.20545(17)
N5 N 0.17129(13) 0.32028(17) 0.34133(17)
N6 N 0.18721(14) 0.44544(17) 0.35058(17)
N7 N 0.15685(14) 0.33340(18) 0.21796(17)
N8 N 0.17713(15) 0.45722(18) 0.22685(18)
N9 N 0.16724(14) 0.55846(18) 0.35078(17)
N10 N 0.11470(14) 0.66460(18) 0.33857(17)
N11 N 0.17121(14) 0.57378(18) 0.23166(18)
N12 N 0.12197(13) 0.68128(18) 0.22049(17)
N13 N 0.04476(14) 0.73174(18) 0.31976(17)
N14 N 0.04856(13) 0.74186(18) 0.19946(16)
O6 O 0.02565(12) 0.21617(14) 0.40042(15)
O7 O 0.13315(13) 0.28242(15) 0.42681(16)
O8 O 0.14541(14) 0.48646(17) 0.43152(17)
O9 O 0.05666(13) 0.64735(16) 0.40523(16)
O10 O 0.09345(12) 0.31731(17) 0.11837(15)
O11 O 0.13584(18) 0.51690(18) 0.12942(16)
O12 O 0.06929(12) 0.68126(16) 0.11004(14)
C1A C -0.01584(16) 0.18256(19) 0.1531(2)
C2A C -0.02952(16) 0.1228(2) 0.2488(2)
H1A H -0.0426 0.0747 0.2532
C3A C -0.10664(15) 0.1555(2) 0.1520(2)
H2A H -0.1230 0.1136 0.1660
H3A H -0.1121 0.1540 0.1019
C4A C -0.07871(16) 0.1788(2) 0.3309(2)
H4A H -0.0987 0.1350 0.3257
H5A H -0.0691 0.1905 0.3800
C5A C -0.14395(15) 0.2743(2) 0.1295(2)
C6A C -0.15112(16) 0.2229(2) 0.2318(2)
H6A H -0.1737 0.1827 0.2361
C7A C -0.18096(16) 0.2929(2) 0.2221(2)
H7A H -0.2184 0.2858 0.2184
C8A C -0.11780(17) 0.2971(2) 0.3253(2)
C9A C -0.20160(17) 0.3771(2) 0.1202(2)
H8A H -0.1974 0.3765 0.0729
H9A H -0.2383 0.3690 0.1182
C10A C -0.18291(19) 0.3913(2) 0.3061(2)
H10A H -0.2199 0.3802 0.2978
H11A H -0.1692 0.3964 0.3558
C11A C -0.16456(16) 0.4957(2) 0.1179(2)
C12A C -0.20733(17) 0.4747(2) 0.2042(2)
H12A H -0.2445 0.4634 0.1983
C13A C -0.19854(17) 0.5546(2) 0.1993(2)
H13A H -0.2315 0.5807 0.1840
C14A C -0.15952(19) 0.5161(2) 0.3101(2)
C15A C -0.15705(17) 0.6247(2) 0.1184(2)
H14A H -0.1489 0.6149 0.0742
H15A H -0.1885 0.6536 0.1093
C16A C -0.16560(17) 0.6452(2) 0.2936(2)
H16A H -0.1972 0.6715 0.2726
H17A H -0.1620 0.6446 0.3434
C17A C -0.07108(16) 0.6781(2) 0.1410(2)
C18A C -0.12244(17) 0.7140(2) 0.2143(2)
H18A H -0.1536 0.7435 0.1976
C19A C -0.07245(16) 0.7581(2) 0.2288(2)
H19A H -0.0800 0.8089 0.2220
C20A C -0.07893(17) 0.6995(2) 0.3290(2)
C21A C 0.00139(16) 0.7682(2) 0.3367(2)
H20A H 0.0045 0.7641 0.3862
H21A H 0.0035 0.8183 0.3260
N1A N -0.05238(12) 0.15296(17) 0.18271(16)
N2A N -0.13177(14) 0.21788(17) 0.17071(18)
N3A N -0.03175(13) 0.16687(17) 0.30767(17)
N4A N -0.11134(13) 0.23433(18) 0.29455(17)
N5A N -0.17129(13) 0.32028(17) 0.15867(17)
N6A N -0.18721(14) 0.44544(17) 0.14942(17)
N7A N -0.15685(14) 0.33340(18) 0.28204(17)
N8A N -0.17713(15) 0.45722(18) 0.27315(18)
N9A N -0.16724(14) 0.55846(18) 0.14922(17)
N10A N -0.11470(14) 0.66460(18) 0.16143(17)
N11A N -0.17121(14) 0.57378(18) 0.26834(18)
N12A N -0.12197(13) 0.68128(18) 0.27951(17)
N13A N -0.04476(14) 0.73174(18) 0.18024(17)
N14A N -0.04856(13) 0.74186(18) 0.30054(16)
O6A O -0.02565(12) 0.21617(14) 0.09958(15)
O7A O -0.13315(13) 0.28242(15) 0.07319(16)
O8A O -0.14541(14) 0.48646(17) 0.06848(17)
O9A O -0.05666(13) 0.64735(16) 0.09477(16)
O10A O -0.09345(12) 0.31731(17) 0.38163(15)
O11A O -0.13584(18) 0.51690(18) 0.37058(16)
O12A O -0.06929(12) 0.68126(16) 0.38996(14)
O1A O -0.15159(13) 0.2403(2) -0.06328(18)
O2A O 0.01563(13) 0.3018(2) 0.00472(17)
O3A O -0.03808(14) 0.36766(17) 0.09871(16)
O4A O -0.11380(14) 0.39697(17) -0.01990(16)
O5A O -0.05495(15) 0.17380(17) -0.03968(18)
Gd1A Gd -0.071905(8) 0.287267(10) 0.005787(9)
Gd1D Gd -0.071905(8) 0.712733(10) 0.505787(9)
Gd1E Gd 0.071905(8) 0.712733(10) -0.005787(9)
O12D O -0.06929(12) 0.31874(16) -0.11004(14)
O12E O 0.06929(12) 0.31874(16) 0.61004(14)
Cl1 Cl 0.22426(9) 0.21664(10) 0.14622(12)
Zn2? Zn 0.3615(4) 0.4446(5) 0.2600(12)
loop_
_geom_bond_atom_site_label_1
_geom_bond_atom_site_label_2
_geom_bond_site_symmetry_1
_geom_bond_site_symmetry_2
Zn1 Cl2 1_555 1_555
Cl3 Zn1 1_555 1_555
Cl4 Zn1 1_555 1_555
Cl5 Zn1 1_555 1_555
O1 Gd1 1_555 1_555
O2 Gd1 1_555 1_555
O3 Gd1 1_555 1_555
O4 Gd1 1_555 1_555
O5 Gd1 1_555 1_555
Gd1 O6 1_555 1_555
C1 N1 1_555 1_555
C2 H1 1_555 1_555
C3 H2 1_555 1_555
H3 C3 1_555 1_555
C4 H4 1_555 1_555
H5 C4 1_555 1_555
C5 N2 1_555 1_555
C6 H6 1_555 1_555
C7 C6 1_555 1_555
H7 C7 1_555 1_555
C8 N4 1_555 1_555
C9 H8 1_555 1_555
H9 C9 1_555 1_555
C10 H10 1_555 1_555
H11 C10 1_555 1_555
C11 N6 1_555 1_555
C12 H12 1_555 1_555
C13 C12 1_555 1_555
H13 C13 1_555 1_555
C14 N8 1_555 1_555
C15 H14 1_555 1_555
H15 C15 1_555 1_555
C16 H16 1_555 1_555
H17 C16 1_555 1_555
C17 N10 1_555 1_555
C18 H18 1_555 1_555
C19 C18 1_555 1_555
H19 C19 1_555 1_555
C20 N12 1_555 1_555
C21 H20 1_555 1_555
H21 C21 1_555 1_555
N1 C2 1_555 1_555
N2 C3 1_555 1_555
N3 C2 1_555 1_555
N4 C4 1_555 1_555
N5 C5 1_555 1_555
N6 C9 1_555 1_555
N7 C7 1_555 1_555
N8 C10 1_555 1_555
N9 C11 1_555 1_555
N10 C15 1_555 1_555
N11 C13 1_555 1_555
N12 C16 1_555 1_555
N13 C17 1_555 1_555
N14 C19 1_555 1_555
O6 C1 1_555 1_555
O7 Gd1 1_555 1_555
O8 C11 1_555 1_555
O9 C17 1_555 1_555
O10 C8 1_555 1_555
O11 C14 1_555 1_555
O12 C20 1_555 1_555
C1A N3 1_555 1_555
C2A C2 1_555 1_555
H1A C2A 1_555 1_555
C3A H2A 1_555 1_555
H3A C3A 1_555 1_555
C4A H4A 1_555 1_555
H5A C4A 1_555 1_555
C5A N2A 1_555 1_555
C6A H6A 1_555 1_555
C7A C6A 1_555 1_555
H7A C7A 1_555 1_555
C8A N4A 1_555 1_555
C9A H8A 1_555 1_555
H9A C9A 1_555 1_555
C10A H10A 1_555 1_555
H11A C10A 1_555 1_555
C11A N6A 1_555 1_555
C12A H12A 1_555 1_555
C13A C12A 1_555 1_555
H13A C13A 1_555 1_555
C14A N8A 1_555 1_555
C15A H14A 1_555 1_555
H15A C15A 1_555 1_555
C16A H16A 1_555 1_555
H17A C16A 1_555 1_555
C17A N10A 1_555 1_555
C18A H18A 1_555 1_555
C19A C18A 1_555 1_555
H19A C19A 1_555 1_555
C20A N12A 1_555 1_555
C21A N13 1_555 1_555
H20A C21A 1_555 1_555
H21A C21A 1_555 1_555
N1A C1A 1_555 1_555
N2A C3A 1_555 1_555
N3A C1 1_555 1_555
N4A C4A 1_555 1_555
N5A C5A 1_555 1_555
N6A C9A 1_555 1_555
N7A C7A 1_555 1_555
N8A C10A 1_555 1_555
N9A C11A 1_555 1_555
N10A C15A 1_555 1_555
N11A C13A 1_555 1_555
N12A C16A 1_555 1_555
N13A C21 1_555 1_555
N14A C19A 1_555 1_555
O6A C1A 1_555 1_555
O7A C5A 1_555 1_555
O8A C11A 1_555 1_555
O9A C17A 1_555 1_555
O10A C8A 1_555 1_555
O11A C14A 1_555 1_555
O12A C20A 1_555 1_555
O1A Gd1A 1_555 1_555
O2A Gd1A 1_555 1_555
O3A Gd1A 1_555 1_555
O4A Gd1A 1_555 1_555
O5A Gd1A 1_555 1_555
Gd1A O6A 1_555 1_555
Gd1D O12A 1_555 1_555
Gd1E O12 1_555 1_555
O12D Gd1A 1_555 1_555
O12E Gd1 1_555 1_555
C3 N1 1_555 1_555
C4 N3 1_555 1_555
C5 O7 1_555 1_555
C6 N2 1_555 1_555
C6 N4 1_555 1_555
C7 N5 1_555 1_555
C8 N7 1_555 1_555
C9 N5 1_555 1_555
C10 N7 1_555 1_555
C12 N6 1_555 1_555
C12 N8 1_555 1_555
C13 N9 1_555 1_555
C14 N11 1_555 1_555
C15 N9 1_555 1_555
C16 N11 1_555 1_555
C18 N10 1_555 1_555
C18 N12 1_555 1_555
C19 N13 1_555 1_555
C20 N14 1_555 1_555
C21 N14 1_555 1_555
C2A N1A 1_555 1_555
C2A N3A 1_555 1_555
C3A N1A 1_555 1_555
C4A N3A 1_555 1_555
C6A N2A 1_555 1_555
C6A N4A 1_555 1_555
C7A N5A 1_555 1_555
C8A N7A 1_555 1_555
C9A N5A 1_555 1_555
C10A N7A 1_555 1_555
C12A N6A 1_555 1_555
C12A N8A 1_555 1_555
C13A N9A 1_555 1_555
C14A N11A 1_555 1_555
C15A N9A 1_555 1_555
C16A N11A 1_555 1_555
C17A N13A 1_555 1_555
C18A N10A 1_555 1_555
C18A N12A 1_555 1_555
C19A N13A 1_555 1_555
C20A N14A 1_555 1_555
C21A N14A 1_555 1_555
O7A Gd1A 1_555 1_555

#END
