
#######################################################################
#
#                 Cambridge Crystallographic Data Centre
#                                CCDC 
#
#######################################################################
#
# If this CIF has been generated from an entry in the Cambridge 
# Structural Database, then it will include bibliographic, chemical, 
# crystal, experimental, refinement or atomic coordinate data resulting 
# from the CCDC's data processing and validation procedures.
#
#######################################################################

data_PEXSOB
_symmetry_cell_setting           monoclinic
_symmetry_space_group_name_H-M   'P 21/c'
_symmetry_Int_Tables_number      14
_space_group_name_Hall           '-P 2ybc'
loop_
_symmetry_equiv_pos_site_id
_symmetry_equiv_pos_as_xyz
1 x,y,z
2 -x,1/2+y,1/2-z
3 -x,-y,-z
4 x,1/2-y,1/2+z
_cell_length_a                   10.834(3)
_cell_length_b                   10.743(3)
_cell_length_c                   14.456(4)
_cell_angle_alpha                90
_cell_angle_beta                 104.343(3)
_cell_angle_gamma                90
_cell_volume                     1630.08
loop_
_atom_site_label
_atom_site_type_symbol
_atom_site_fract_x
_atom_site_fract_y
_atom_site_fract_z
Cd1 Cd -0.354340(11) -0.099120(12) 0.025570(8)
O2 O -0.51931(14) -0.00346(14) -0.11620(9)
O3 O -0.35288(14) -0.10672(14) -0.13651(10)
O4 O -0.14117(13) -0.23625(16) 0.06159(9)
O5 O -0.24096(12) -0.17389(14) 0.16907(10)
N1 N -0.65240(17) -0.10934(15) -0.56466(12)
H3 H -0.7097 -0.0731 -0.6107
N2 N -0.50080(15) -0.24226(15) -0.49282(11)
N3 N 0.21679(16) -0.43284(17) 0.45609(11)
N4 N 0.05806(17) -0.32346(18) 0.48840(11)
H4 H 0.0097 -0.2886 0.5218
C1 C -0.45916(17) -0.05483(17) -0.16967(12)
C2 C -0.51572(16) -0.06078(18) -0.27552(12)
C3 C -0.47261(17) -0.15414(17) -0.32680(12)
H5 H -0.4083 -0.2110 -0.2960
C4 C -0.52693(16) -0.16119(17) -0.42457(12)
C5 C -0.57823(18) -0.20619(19) -0.57399(13)
H6 H -0.5812 -0.2452 -0.6335
C6 C -0.62183(18) -0.07725(18) -0.46927(13)
C7 C -0.66499(18) 0.01732(18) -0.41881(13)
H7 H -0.7285 0.0747 -0.4499
C8 C -0.61105(17) 0.02360(18) -0.32151(13)
H8 H -0.6389 0.0862 -0.2849
C9 C -0.14851(17) -0.22548(18) 0.14688(13)
C10 C -0.04441(17) -0.27722(18) 0.22631(12)
C11 C -0.05311(17) -0.26162(19) 0.31983(13)
H9 H -0.1203 -0.2151 0.3345
C12 C 0.04077(17) -0.31706(18) 0.39089(12)
C13 C 0.1626(2) -0.3928(2) 0.52300(14)
H10 H 0.1943 -0.4111 0.5889
C14 C 0.14090(18) -0.38575(18) 0.37111(13)
C15 C 0.1506(2) -0.39906(19) 0.27735(14)
H11 H 0.2190 -0.4438 0.2628
C16 C 0.05703(19) -0.3449(2) 0.20626(13)
H12 H 0.0613 -0.3536 0.1417
O2B O -0.48069(14) 0.00346(14) 0.11620(9)
N2C N -0.50080(15) -0.25774(15) 0.00718(11)
N3A N -0.21679(16) 0.06716(17) 0.04391(11)
Cd1B Cd -0.645660(11) 0.099120(12) -0.025570(8)
Cd1C Cd -0.354340(11) -0.400880(12) -0.474430(8)
Cd1A Cd 0.354340(11) -0.599120(12) 0.474430(8)
O1 O -0.79738(17) -0.02574(18) -0.74315(12)
H1 H -0.8751 -0.0047 -0.7521
H2 H -0.7667 0.0308 -0.7720
loop_
_geom_bond_atom_site_label_1
_geom_bond_atom_site_label_2
_geom_bond_site_symmetry_1
_geom_bond_site_symmetry_2
Cd1 O2 1_555 1_555
O1 H1 1_555 1_555
H2 O1 1_555 1_555
O2 C1 1_555 1_555
O3 Cd1 1_555 1_555
O4 C9 1_555 1_555
O5 Cd1 1_555 1_555
N1 H3 1_555 1_555
N2 C4 1_555 1_555
N3 C13 1_555 1_555
N4 H4 1_555 1_555
C1 O3 1_555 1_555
C2 C1 1_555 1_555
C3 C2 1_555 1_555
H5 C3 1_555 1_555
C4 C3 1_555 1_555
C5 N1 1_555 1_555
H6 C5 1_555 1_555
C6 N1 1_555 1_555
C7 C6 1_555 1_555
H7 C7 1_555 1_555
C8 C2 1_555 1_555
H8 C8 1_555 1_555
C9 O5 1_555 1_555
C10 C9 1_555 1_555
C11 C10 1_555 1_555
H9 C11 1_555 1_555
C12 N4 1_555 1_555
C13 N4 1_555 1_555
H10 C13 1_555 1_555
C14 N3 1_555 1_555
C15 C14 1_555 1_555
H11 C15 1_555 1_555
C16 C10 1_555 1_555
H12 C16 1_555 1_555
O2B Cd1 1_555 1_555
N2C Cd1 1_555 1_555
N3A Cd1 1_555 1_555
Cd1B O2 1_555 1_555
Cd1C N2 1_555 1_555
Cd1A N3 1_555 1_555
N2 C5 1_555 1_555
C4 C6 1_555 1_555
C7 C8 1_555 1_555
C11 C12 1_555 1_555
C12 C14 1_555 1_555
C15 C16 1_555 1_555
O2B Cd1B 1_555 1_555

#END
