
#######################################################################
#
#                 Cambridge Crystallographic Data Centre
#                                CCDC 
#
#######################################################################
#
# If this CIF has been generated from an entry in the Cambridge 
# Structural Database, then it will include bibliographic, chemical, 
# crystal, experimental, refinement or atomic coordinate data resulting 
# from the CCDC's data processing and validation procedures.
#
#######################################################################

data_PEXTET
_symmetry_cell_setting           monoclinic
_symmetry_space_group_name_H-M   'C 2/c'
_symmetry_Int_Tables_number      15
_space_group_name_Hall           '-C 2yn'
loop_
_symmetry_equiv_pos_site_id
_symmetry_equiv_pos_as_xyz
1 x,y,z
2 -x,y,1/2-z
3 1/2+x,1/2+y,z
4 1/2-x,1/2+y,1/2-z
5 -x,-y,-z
6 x,-y,1/2+z
7 1/2-x,1/2-y,-z
8 1/2+x,1/2-y,1/2+z
_cell_length_a                   26.473(4)
_cell_length_b                   18.878(3)
_cell_length_c                   19.864(3)
_cell_angle_alpha                90
_cell_angle_beta                 104.752(4)
_cell_angle_gamma                90
_cell_volume                     9599.95
loop_
_atom_site_label
_atom_site_type_symbol
_atom_site_fract_x
_atom_site_fract_y
_atom_site_fract_z
Cl2 Cl 1.32575(9) 0.34713(12) 0.79717(14)
Cl3 Cl 1.31481(15) 0.53630(16) 0.7466(3)
Cl4 Cl 1.3727(6) 0.4716(7) 0.9293(6)
Cl5 Cl 1.44314(19) 0.4463(2) 0.7962(6)
Zn1 Zn 1.36507(7) 0.45157(9) 0.80567(19)
O1 O 1.1133(2) 0.6074(3) 0.5212(2)
O2 O 1.1509(2) 0.7585(4) 0.5629(3)
O3 O 1.0387(2) 0.6344(3) 0.4029(3)
O4 O 0.9873(2) 0.6976(3) 0.4950(3)
O5 O 1.0556(2) 0.8251(3) 0.5373(3)
Yb1 Yb 1.072315(11) 0.713927(15) 0.494483(14)
C1 C 1.0800(3) 0.7028(3) 0.6716(4)
C2 C 1.0732(3) 0.7620(4) 0.7729(4)
H1 H 1.0809 0.8132 0.7801
C3 C 1.1238(3) 0.7163(3) 0.7895(4)
H2 H 1.1555 0.7456 0.8072
C4 C 1.0708(3) 0.6811(4) 0.8608(4)
C5 C 1.1677(3) 0.6476(4) 0.7097(4)
H3 H 1.1993 0.6739 0.7325
H4 H 1.1651 0.6471 0.6596
C6 C 1.1573(3) 0.6267(4) 0.8847(3)
H5 H 1.1488 0.6169 0.9290
H6 H 1.1892 0.6554 0.8949
C7 C 1.1604(3) 0.5179(4) 0.6909(4)
C8 C 1.1999(3) 0.5571(4) 0.8038(3)
H7 H 1.2332 0.5834 0.8198
C9 C 1.2085(3) 0.4758(4) 0.8006(3)
H8 H 1.2459 0.4639 0.8078
C10 C 1.1641(3) 0.4971(4) 0.8853(4)
C11 C 1.1841(3) 0.3927(4) 0.6964(4)
H9 H 1.2214 0.3817 0.7057
H10 H 1.1706 0.3981 0.6460
C12 C 1.2014(3) 0.3778(4) 0.8844(4)
H11 H 1.1962 0.3769 0.9315
H12 H 1.2386 0.3696 0.8883
C13 C 1.1184(3) 0.2983(4) 0.6752(4)
C14 C 1.1819(3) 0.2934(3) 0.7808(4)
H13 H 1.2197 0.2866 0.7858
C15 C 1.1523(2) 0.2233(4) 0.7704(3)
H14 H 1.1754 0.1831 0.7664
C16 C 1.1442(2) 0.2750(4) 0.8729(4)
C17 C 1.0786(3) 0.1803(4) 0.6682(4)
H15 H 1.0987 0.1362 0.6715
H16 H 1.0678 0.1939 0.6190
C18 C 1.1079(2) 0.1548(4) 0.8502(3)
H17 H 1.1248 0.1129 0.8365
H18 H 1.1138 0.1536 0.9010
C19 C 0.9833(3) 0.1820(4) 0.6522(4)
C20 C 1.0293(3) 0.1221(4) 0.7501(4)
H19 H 1.0420 0.0738 0.7445
C21 C 1.0014(3) 0.7706(4) 0.8369(4)
H20 H 1.0043 0.7665 0.8870
H21 H 1.0038 0.8211 0.8264
N1 N 1.0488(2) 0.7453(3) 0.7000(3)
N2 N 1.1230(2) 0.6838(3) 0.7216(3)
N3 N 1.0448(2) 0.7341(3) 0.8213(3)
N4 N 1.1158(2) 0.6672(3) 0.8418(3)
N5 N 1.1724(2) 0.5758(3) 0.7352(3)
N6 N 1.1781(2) 0.4586(3) 0.7292(3)
N7 N 1.1677(2) 0.5605(3) 0.8546(3)
N8 N 1.1872(2) 0.4465(3) 0.8544(3)
N9 N 1.1578(2) 0.3338(3) 0.7192(3)
N10 N 1.1117(2) 0.2343(3) 0.7060(3)
N11 N 1.1714(2) 0.3214(3) 0.8439(3)
N12 N 1.1324(2) 0.2171(3) 0.8315(3)
N13 N 1.0318(2) 0.1670(3) 0.6929(3)
N14 N 1.0530(2) 0.1507(3) 0.8191(3)
O6 O 1.07086(19) 0.6850(3) 0.6103(2)
O7 O 1.1381(3) 0.5191(3) 0.6309(3)
O8 O 1.0934(2) 0.3190(3) 0.6186(3)
O9 O 0.9734(2) 0.2163(3) 0.5981(2)
O10 O 1.0562(2) 0.6499(3) 0.9068(3)
O11 O 1.1450(2) 0.4874(3) 0.9347(3)
O12 O 1.1322(2) 0.2829(3) 0.9288(3)
C1A C 0.9200(3) 0.7028(3) 0.8284(4)
C2A C 0.9268(3) 0.7620(4) 0.7271(4)
H1A H 0.9191 0.8132 0.7199
C3A C 0.8762(3) 0.7163(3) 0.7105(4)
H2A H 0.8445 0.7456 0.6928
C4A C 0.9292(3) 0.6811(4) 0.6392(4)
C5A C 0.8323(3) 0.6476(4) 0.7903(4)
H3A H 0.8007 0.6739 0.7675
H4A H 0.8349 0.6471 0.8404
C6A C 0.8427(3) 0.6267(4) 0.6153(3)
H5A H 0.8512 0.6169 0.5710
H6A H 0.8108 0.6554 0.6051
C7A C 0.8396(3) 0.5179(4) 0.8091(4)
C8A C 0.8001(3) 0.5571(4) 0.6962(3)
H7A H 0.7668 0.5834 0.6802
C9A C 0.7915(3) 0.4758(4) 0.6994(3)
H8A H 0.7541 0.4639 0.6922
C10A C 0.8359(3) 0.4971(4) 0.6147(4)
C11A C 0.8159(3) 0.3927(4) 0.8036(4)
H9A H 0.7786 0.3817 0.7943
H10A H 0.8294 0.3981 0.8540
C12A C 0.7986(3) 0.3778(4) 0.6156(4)
H11A H 0.8038 0.3769 0.5685
H12A H 0.7614 0.3696 0.6117
C13A C 0.8816(3) 0.2983(4) 0.8248(4)
C14A C 0.8181(3) 0.2934(3) 0.7192(4)
H13A H 0.7803 0.2866 0.7142
C15A C 0.8477(2) 0.2233(4) 0.7296(3)
H14A H 0.8246 0.1831 0.7336
C16A C 0.8558(2) 0.2750(4) 0.6271(4)
C17A C 0.9214(3) 0.1803(4) 0.8318(4)
H15A H 0.9013 0.1362 0.8285
H16A H 0.9322 0.1939 0.8810
C18A C 0.8921(2) 0.1548(4) 0.6498(3)
H17A H 0.8752 0.1129 0.6635
H18A H 0.8862 0.1536 0.5990
C19A C 1.0167(3) 0.1820(4) 0.8478(4)
C20A C 0.9707(3) 0.1221(4) 0.7499(4)
H19A H 0.9580 0.0738 0.7555
C21A C 0.9986(3) 0.7706(4) 0.6631(4)
H20A H 0.9957 0.7665 0.6130
H21A H 0.9962 0.8211 0.6736
N1A N 0.9512(2) 0.7453(3) 0.8000(3)
N2A N 0.8770(2) 0.6838(3) 0.7784(3)
N3A N 0.9552(2) 0.7341(3) 0.6787(3)
N4A N 0.8842(2) 0.6672(3) 0.6582(3)
N5A N 0.8276(2) 0.5758(3) 0.7648(3)
N6A N 0.8219(2) 0.4586(3) 0.7708(3)
N7A N 0.8323(2) 0.5605(3) 0.6454(3)
N8A N 0.8128(2) 0.4465(3) 0.6456(3)
N9A N 0.8422(2) 0.3338(3) 0.7808(3)
N10A N 0.8883(2) 0.2343(3) 0.7940(3)
N11A N 0.8286(2) 0.3214(3) 0.6561(3)
N12A N 0.8676(2) 0.2171(3) 0.6685(3)
N13A N 0.9682(2) 0.1670(3) 0.8071(3)
N14A N 0.9470(2) 0.1507(3) 0.6809(3)
O6A O 0.92914(19) 0.6850(3) 0.8897(2)
O7A O 0.8619(3) 0.5191(3) 0.8691(3)
O8A O 0.9066(2) 0.3190(3) 0.8814(3)
O9A O 1.0266(2) 0.2163(3) 0.9019(2)
O10A O 0.9438(2) 0.6499(3) 0.5932(3)
O11A O 0.8550(2) 0.4874(3) 0.5653(3)
O12A O 0.8678(2) 0.2829(3) 0.5712(3)
O1A O 0.8867(2) 0.6074(3) 0.9788(2)
O2A O 0.8491(2) 0.7585(4) 0.9371(3)
O3A O 0.9613(2) 0.6344(3) 1.0971(3)
O4A O 1.0127(2) 0.6976(3) 1.0050(3)
O5A O 0.9444(2) 0.8251(3) 0.9627(3)
Yb1A Yb 0.927685(11) 0.713927(15) 1.005517(14)
Yb1D Yb 0.927685(11) 0.286073(15) 0.505517(14)
Yb1E Yb 1.072315(11) 0.286073(15) 0.994483(14)
O9D O 1.0266(2) 0.7837(3) 0.4019(2)
O9E O 0.9734(2) 0.7837(3) 1.0981(2)
O12D O 0.8678(2) 0.7171(3) 1.0712(3)
O12E O 1.1322(2) 0.7171(3) 0.4288(3)
Cl1 Cl 1.2243(2) 0.2216(3) 0.6418(3)
loop_
_geom_bond_atom_site_label_1
_geom_bond_atom_site_label_2
_geom_bond_site_symmetry_1
_geom_bond_site_symmetry_2
Cl2 Zn1 1_555 1_555
Cl3 Zn1 1_555 1_555
Cl4 Zn1 1_555 1_555
Cl5 Zn1 1_555 1_555
O1 Yb1 1_555 1_555
O2 Yb1 1_555 1_555
O3 Yb1 1_555 1_555
O4 Yb1 1_555 1_555
O5 Yb1 1_555 1_555
Yb1 O6 1_555 1_555
C1 N1 1_555 1_555
C2 H1 1_555 1_555
C3 C2 1_555 1_555
H2 C3 1_555 1_555
C4 N3 1_555 1_555
C5 H3 1_555 1_555
H4 C5 1_555 1_555
C6 H5 1_555 1_555
H6 C6 1_555 1_555
C7 N5 1_555 1_555
C8 H7 1_555 1_555
C9 C8 1_555 1_555
H8 C9 1_555 1_555
C10 N7 1_555 1_555
C11 H9 1_555 1_555
H10 C11 1_555 1_555
C12 H11 1_555 1_555
H12 C12 1_555 1_555
C13 N9 1_555 1_555
C14 H13 1_555 1_555
C15 C14 1_555 1_555
H14 C15 1_555 1_555
C16 N11 1_555 1_555
C17 H15 1_555 1_555
H16 C17 1_555 1_555
C18 H17 1_555 1_555
H18 C18 1_555 1_555
C19 N13 1_555 1_555
C20 H19 1_555 1_555
C21 H20 1_555 1_555
H21 C21 1_555 1_555
N1 C2 1_555 1_555
N2 C1 1_555 1_555
N3 C2 1_555 1_555
N4 C3 1_555 1_555
N5 C5 1_555 1_555
N6 C7 1_555 1_555
N7 C6 1_555 1_555
N8 C9 1_555 1_555
N9 C11 1_555 1_555
N10 C13 1_555 1_555
N11 C12 1_555 1_555
N12 C15 1_555 1_555
N13 C17 1_555 1_555
N14 C18 1_555 1_555
O6 C1 1_555 1_555
O7 C7 1_555 1_555
O8 C13 1_555 1_555
O9 C19 1_555 1_555
O10 C4 1_555 1_555
O11 C10 1_555 1_555
O12 C16 1_555 1_555
C1A N1A 1_555 1_555
C2A H1A 1_555 1_555
C3A C2A 1_555 1_555
H2A C3A 1_555 1_555
C4A N3A 1_555 1_555
C5A H3A 1_555 1_555
H4A C5A 1_555 1_555
C6A H5A 1_555 1_555
H6A C6A 1_555 1_555
C7A N5A 1_555 1_555
C8A H7A 1_555 1_555
C9A C8A 1_555 1_555
H8A C9A 1_555 1_555
C10A N7A 1_555 1_555
C11A H9A 1_555 1_555
H10A C11A 1_555 1_555
C12A H11A 1_555 1_555
H12A C12A 1_555 1_555
C13A N9A 1_555 1_555
C14A H13A 1_555 1_555
C15A C14A 1_555 1_555
H14A C15A 1_555 1_555
C16A N11A 1_555 1_555
C17A H15A 1_555 1_555
H16A C17A 1_555 1_555
C18A H17A 1_555 1_555
H18A C18A 1_555 1_555
C19A N14 1_555 1_555
C20A C20 1_555 1_555
H19A C20A 1_555 1_555
C21A N1 1_555 1_555
H20A C21A 1_555 1_555
H21A C21A 1_555 1_555
N1A C21 1_555 1_555
N2A C1A 1_555 1_555
N3A C2A 1_555 1_555
N4A C3A 1_555 1_555
N5A C5A 1_555 1_555
N6A C7A 1_555 1_555
N7A C6A 1_555 1_555
N8A C9A 1_555 1_555
N9A C11A 1_555 1_555
N10A C13A 1_555 1_555
N11A C12A 1_555 1_555
N12A C15A 1_555 1_555
N13A C17A 1_555 1_555
N14A C19 1_555 1_555
O6A C1A 1_555 1_555
O7A C7A 1_555 1_555
O8A C13A 1_555 1_555
O9A C19A 1_555 1_555
O10A C4A 1_555 1_555
O11A C10A 1_555 1_555
O12A C16A 1_555 1_555
O1A Yb1A 1_555 1_555
O2A Yb1A 1_555 1_555
O3A Yb1A 1_555 1_555
O4A Yb1A 1_555 1_555
O5A Yb1A 1_555 1_555
Yb1A O6A 1_555 1_555
Yb1D O9 1_555 1_555
Yb1E O12 1_555 1_555
O9D Yb1 1_555 1_555
O9E Yb1A 1_555 1_555
O12D Yb1A 1_555 1_555
O12E Yb1 1_555 1_555
C3 N2 1_555 1_555
C4 N4 1_555 1_555
C5 N2 1_555 1_555
C6 N4 1_555 1_555
C8 N5 1_555 1_555
C8 N7 1_555 1_555
C9 N6 1_555 1_555
C10 N8 1_555 1_555
C11 N6 1_555 1_555
C12 N8 1_555 1_555
C14 N9 1_555 1_555
C14 N11 1_555 1_555
C15 N10 1_555 1_555
C16 N12 1_555 1_555
C17 N10 1_555 1_555
C18 N12 1_555 1_555
C20 N13 1_555 1_555
C20 N14 1_555 1_555
C21 N3 1_555 1_555
C2A N1A 1_555 1_555
C3A N2A 1_555 1_555
C4A N4A 1_555 1_555
C5A N2A 1_555 1_555
C6A N4A 1_555 1_555
C8A N5A 1_555 1_555
C8A N7A 1_555 1_555
C9A N6A 1_555 1_555
C10A N8A 1_555 1_555
C11A N6A 1_555 1_555
C12A N8A 1_555 1_555
C14A N9A 1_555 1_555
C14A N11A 1_555 1_555
C15A N10A 1_555 1_555
C16A N12A 1_555 1_555
C17A N10A 1_555 1_555
C18A N12A 1_555 1_555
C18A N14A 1_555 1_555
C19A N13A 1_555 1_555
C20A N13A 1_555 1_555
C20A N14A 1_555 1_555
C21A N3A 1_555 1_555
O9A Yb1E 1_555 1_555
O12A Yb1D 1_555 1_555

#END
