
#######################################################################
#
#                 Cambridge Crystallographic Data Centre
#                                CCDC 
#
#######################################################################
#
# If this CIF has been generated from an entry in the Cambridge 
# Structural Database, then it will include bibliographic, chemical, 
# crystal, experimental, refinement or atomic coordinate data resulting 
# from the CCDC's data processing and validation procedures.
#
#######################################################################

data_PEXTIX
_symmetry_cell_setting           triclinic
_symmetry_space_group_name_H-M   'P -1'
_symmetry_Int_Tables_number      2
_space_group_name_Hall           '-P 1'
loop_
_symmetry_equiv_pos_site_id
_symmetry_equiv_pos_as_xyz
1 x,y,z
2 -x,-y,-z
_cell_length_a                   17.1365(14)
_cell_length_b                   17.9392(15)
_cell_length_c                   18.5138(15)
_cell_angle_alpha                104.378(3)
_cell_angle_beta                 102.328(3)
_cell_angle_gamma                110.919(3)
_cell_volume                     4854.12
loop_
_atom_site_label
_atom_site_type_symbol
_atom_site_fract_x
_atom_site_fract_y
_atom_site_fract_z
Cl2 Cl -0.11694(14) -0.08918(12) 0.37630(10)
O1 O 0.2506(2) 0.6015(2) 0.6383(2)
O2 O 0.3217(3) 0.4723(2) 0.6083(2)
O3 O 0.2897(3) 0.4313(3) 0.4189(2)
O4 O 0.3961(3) 0.6430(3) 0.4512(2)
O5 O 0.2737(3) 0.6902(3) 0.5373(3)
O6 O 0.4552(3) 0.5469(3) 0.5424(3)
O7 O -0.0958(2) 0.1669(2) -0.0399(2)
O8 O -0.2579(3) 0.1679(3) -0.0142(2)
O9 O -0.1761(3) -0.0069(2) 0.1138(2)
O10 O -0.0987(3) 0.0134(3) -0.0099(2)
O11 O 0.0048(3) 0.1611(3) 0.1295(2)
O12 O -0.2980(3) 0.0897(4) 0.1002(2)
La1 La 0.308759(19) 0.56116(2) 0.523435(17)
La2 La -0.157470(18) 0.114476(18) 0.061552(16)
C1 C 0.1396(3) 0.5217(3) 0.3371(3)
C2 C 0.0469(3) 0.4967(3) 0.2130(3)
H1 H 0.0366 0.5403 0.1938
C3 C -0.0105(3) 0.4699(3) 0.2650(3)
H2 H -0.0435 0.5045 0.2748
C4 C -0.0478(3) 0.3509(3) 0.1537(3)
C5 C 0.0353(3) 0.4863(3) 0.4097(3)
H3 H 0.0864 0.5325 0.4538
H4 H -0.0151 0.5006 0.4073
C6 C -0.1328(3) 0.3273(3) 0.2448(3)
H5 H -0.1784 0.2785 0.1987
H6 H -0.1618 0.3596 0.2693
C7 C 0.0780(3) 0.3914(3) 0.4663(3)
C8 C -0.0711(3) 0.3343(3) 0.3863(3)
H7 H -0.1194 0.3457 0.4003
C9 C -0.0557(3) 0.2655(3) 0.4171(3)
H8 H -0.0928 0.2482 0.4497
C10 C -0.0998(3) 0.2164(3) 0.2793(3)
C11 C 0.0796(3) 0.2786(3) 0.5195(3)
H9 H 0.0368 0.2543 0.5445
H10 H 0.1313 0.3271 0.5610
C12 C -0.0898(3) 0.1118(3) 0.3418(3)
H11 H -0.1212 0.0950 0.3777
H12 H -0.1264 0.0713 0.2881
C13 C 0.1919(3) 0.2264(3) 0.5038(3)
C14 C 0.0445(3) 0.1252(3) 0.4428(3)
H13 H 0.0062 0.1040 0.4733
C15 C 0.1054(3) 0.0806(3) 0.4350(3)
H14 H 0.0959 0.0375 0.4608
C16 C 0.0119(3) 0.0513(3) 0.3079(3)
C17 C 0.2705(4) 0.1350(4) 0.4982(3)
H15 H 0.2538 0.0892 0.5198
H16 H 0.3168 0.1866 0.5412
C18 C 0.1032(4) -0.0266(4) 0.3150(3)
H17 H 0.0616 -0.0605 0.2610
H18 H 0.0964 -0.0641 0.3460
C19 C 0.3870(3) 0.1622(3) 0.4359(3)
C20 C 0.2700(3) 0.0249(3) 0.3798(3)
H19 H 0.2570 -0.0183 0.4055
C21 C 0.3424(3) 0.0259(3) 0.3422(3)
H20 H 0.3670 -0.0141 0.3529
C22 C 0.2103(3) -0.0126(3) 0.2435(3)
C23 C 0.4924(3) 0.1461(3) 0.3670(3)
H21 H 0.5353 0.1964 0.4131
H22 H 0.5142 0.1021 0.3626
C24 C 0.3317(3) -0.0223(3) 0.1968(3)
H23 H 0.3721 -0.0464 0.2147
H24 H 0.2831 -0.0667 0.1497
C25 C 0.5252(3) 0.2506(3) 0.3001(3)
C26 C 0.4729(3) 0.1098(3) 0.2204(3)
H25 H 0.5114 0.0799 0.2238
C27 C 0.4938(3) 0.1670(3) 0.1705(3)
H26 H 0.5422 0.1638 0.1508
C28 C 0.3489(3) 0.0604(3) 0.1071(3)
C29 C 0.5619(3) 0.3286(3) 0.2102(3)
H27 H 0.5989 0.3756 0.2607
H28 H 0.6011 0.3206 0.1806
C30 C 0.4030(3) 0.1557(3) 0.0364(3)
H29 H 0.3525 0.1088 -0.0077
H30 H 0.4565 0.1637 0.0221
C31 C 0.4932(3) 0.4255(3) 0.1989(3)
C32 C 0.4639(3) 0.3195(3) 0.0807(3)
H31 H 0.5099 0.3233 0.0553
C33 C 0.4183(3) 0.3769(3) 0.0640(3)
H32 H 0.4373 0.4027 0.0256
C34 C 0.3107(3) 0.2348(3) 0.0190(3)
C35 C 0.4337(3) 0.5185(3) 0.1537(3)
H33 H 0.4769 0.5609 0.2046
H34 H 0.4461 0.5412 0.1123
C36 C 0.2581(3) 0.3387(3) -0.0094(3)
H35 H 0.2840 0.3730 -0.0393
H36 H 0.2080 0.2858 -0.0475
C37 C 0.3288(3) 0.5408(3) 0.2208(3)
C38 C 0.2729(3) 0.4780(3) 0.0822(3)
H37 H 0.2910 0.5073 0.0457
C39 C 0.2038(3) 0.5005(3) 0.1124(3)
H38 H 0.1930 0.5441 0.0935
C40 C 0.1385(3) 0.3548(3) 0.0371(3)
C41 C 0.2134(3) 0.5819(3) 0.2499(3)
H39 H 0.1982 0.6197 0.2255
H40 H 0.2617 0.6179 0.3002
C42 C 0.0369(3) 0.4127(3) 0.0747(3)
H41 H 0.0304 0.4592 0.0593
H42 H -0.0072 0.3586 0.0332
N1 N 0.1371(3) 0.5299(3) 0.2658(2)
N2 N 0.0549(3) 0.4835(2) 0.3369(2)
N3 N 0.0186(3) 0.4167(2) 0.1478(2)
N4 N -0.0687(3) 0.3814(2) 0.2183(2)
N5 N 0.0152(2) 0.4098(2) 0.4261(2)
N6 N 0.0403(3) 0.3091(3) 0.4640(2)
N7 N -0.0939(3) 0.2959(2) 0.3012(2)
N8 N -0.0798(3) 0.1969(2) 0.3453(2)
N9 N 0.1070(3) 0.2147(3) 0.4845(2)
N10 N 0.1944(3) 0.1506(3) 0.4718(2)
N11 N -0.0067(3) 0.1054(3) 0.3626(2)
N12 N 0.0822(3) 0.0424(3) 0.3494(2)
N13 N 0.3069(3) 0.1114(3) 0.4370(2)
N14 N 0.4087(3) 0.1151(3) 0.3802(2)
N15 N 0.1931(3) 0.0055(3) 0.3131(2)
N16 N 0.2959(3) 0.0010(3) 0.2585(2)
N17 N 0.4887(3) 0.1686(3) 0.2973(2)
N18 N 0.5207(3) 0.2524(3) 0.2260(2)
N19 N 0.3791(3) 0.0491(3) 0.1754(2)
N20 N 0.4111(3) 0.1324(3) 0.1055(2)
N21 N 0.5017(3) 0.3528(3) 0.1668(2)
N22 N 0.4449(3) 0.4400(3) 0.1403(2)
N23 N 0.3904(3) 0.2344(3) 0.0477(2)
N24 N 0.3242(3) 0.3176(3) 0.0328(2)
N25 N 0.3452(3) 0.5062(3) 0.1536(2)
N26 N 0.2439(3) 0.5331(3) 0.1991(2)
N27 N 0.2260(3) 0.3851(3) 0.0422(2)
N28 N 0.1243(3) 0.4189(3) 0.0794(2)
O13 O 0.2075(2) 0.5462(2) 0.3939(2)
O14 O 0.1575(2) 0.4417(2) 0.5008(2)
O15 O 0.2578(2) 0.2948(2) 0.5445(2)
O16 O 0.4327(2) 0.2370(2) 0.4785(2)
O17 O 0.5590(2) 0.3146(2) 0.3609(2)
O18 O 0.5257(2) 0.4727(2) 0.2695(2)
O19 O 0.3818(2) 0.5747(3) 0.2886(2)
O20 O -0.0849(2) 0.2763(2) 0.1062(2)
O21 O -0.1245(2) 0.1669(2) 0.20959(19)
O22 O -0.0281(2) 0.0184(2) 0.2379(2)
O23 O 0.1546(2) -0.0367(2) 0.1775(2)
O24 O 0.2767(2) 0.0126(2) 0.0547(2)
O25 O 0.2384(2) 0.1713(2) -0.0150(2)
O26 O 0.0818(2) 0.2813(2) -0.0014(2)
La1A La 0.691241(19) 0.43884(2) 0.476565(17)
La2A La 0.157470(18) -0.114476(18) -0.061552(16)
O17A O 0.4410(2) 0.6854(2) 0.6391(2)
O24A O -0.2767(2) -0.0126(2) -0.0547(2)
Cl3 Cl 0.36441(10) 0.51598(10) 0.92494(10)
Cl4 Cl 0.20568(11) 0.49144(10) 0.74387(9)
Cl5 Cl 0.31189(12) 0.69573(11) 0.91888(10)
Cl6 Cl 0.13836(10) 0.50092(14) 0.92166(10)
Zn1 Zn 0.25387(5) 0.55099(5) 0.87739(4)
Cl7 Cl 0.06709(13) 0.67035(11) 0.38528(11)
Cl8 Cl 0.16043(15) 0.89686(11) 0.48224(11)
Cl9 Cl 0.1578(2) 0.80371(14) 0.27313(12)
Cl10 Cl 0.31354(16) 0.80410(17) 0.43568(17)
Zn2 Zn 0.17332(6) 0.79243(5) 0.39427(5)
Cl1 Cl -0.30242(10) 0.20296(10) 0.29086(10)
loop_
_geom_bond_atom_site_label_1
_geom_bond_atom_site_label_2
_geom_bond_site_symmetry_1
_geom_bond_site_symmetry_2
O1 La1 1_555 1_555
O2 La1 1_555 1_555
O3 La1 1_555 1_555
O4 La1 1_555 1_555
O5 La1 1_555 1_555
O6 La1 1_555 1_555
O7 La2 1_555 1_555
O8 La2 1_555 1_555
O9 La2 1_555 1_555
O10 La2 1_555 1_555
O11 La2 1_555 1_555
O12 La2 1_555 1_555
La1 O13 1_555 1_555
La2 O20 1_555 1_555
C1 N1 1_555 1_555
C2 H1 1_555 1_555
C3 C2 1_555 1_555
H2 C3 1_555 1_555
C4 N3 1_555 1_555
C5 H3 1_555 1_555
H4 C5 1_555 1_555
C6 H5 1_555 1_555
H6 C6 1_555 1_555
C7 N5 1_555 1_555
C8 H7 1_555 1_555
C9 C8 1_555 1_555
H8 C9 1_555 1_555
C10 N7 1_555 1_555
C11 H9 1_555 1_555
H10 C11 1_555 1_555
C12 H11 1_555 1_555
H12 C12 1_555 1_555
C13 N9 1_555 1_555
C14 H13 1_555 1_555
C15 C14 1_555 1_555
H14 C15 1_555 1_555
C16 N11 1_555 1_555
C17 H15 1_555 1_555
H16 C17 1_555 1_555
C18 H17 1_555 1_555
H18 C18 1_555 1_555
C19 N13 1_555 1_555
C20 H19 1_555 1_555
C21 C20 1_555 1_555
H20 C21 1_555 1_555
C22 N15 1_555 1_555
C23 H21 1_555 1_555
H22 C23 1_555 1_555
C24 H23 1_555 1_555
H24 C24 1_555 1_555
C25 N17 1_555 1_555
C26 H25 1_555 1_555
C27 C26 1_555 1_555
H26 C27 1_555 1_555
C28 N19 1_555 1_555
C29 H27 1_555 1_555
H28 C29 1_555 1_555
C30 H29 1_555 1_555
H30 C30 1_555 1_555
C31 N21 1_555 1_555
C32 H31 1_555 1_555
C33 C32 1_555 1_555
H32 C33 1_555 1_555
C34 N23 1_555 1_555
C35 H33 1_555 1_555
H34 C35 1_555 1_555
C36 H35 1_555 1_555
H36 C36 1_555 1_555
C37 N25 1_555 1_555
C38 H37 1_555 1_555
C39 C38 1_555 1_555
H38 C39 1_555 1_555
C40 N27 1_555 1_555
C41 H39 1_555 1_555
H40 C41 1_555 1_555
C42 H41 1_555 1_555
H42 C42 1_555 1_555
N1 C2 1_555 1_555
N2 C1 1_555 1_555
N3 C2 1_555 1_555
N4 C3 1_555 1_555
N5 C5 1_555 1_555
N6 C7 1_555 1_555
N7 C6 1_555 1_555
N8 C9 1_555 1_555
N9 C11 1_555 1_555
N10 C13 1_555 1_555
N11 C12 1_555 1_555
N12 C15 1_555 1_555
N13 C17 1_555 1_555
N14 C19 1_555 1_555
N15 C18 1_555 1_555
N16 C21 1_555 1_555
N17 C23 1_555 1_555
N18 C25 1_555 1_555
N19 C24 1_555 1_555
N20 C27 1_555 1_555
N21 C29 1_555 1_555
N22 C31 1_555 1_555
N23 C30 1_555 1_555
N24 C33 1_555 1_555
N25 C35 1_555 1_555
N26 C37 1_555 1_555
N27 C36 1_555 1_555
N28 C39 1_555 1_555
O13 C1 1_555 1_555
O14 La1 1_555 1_555
O15 C13 1_555 1_555
O16 C19 1_555 1_555
O17 C25 1_555 1_555
O18 C31 1_555 1_555
O19 C37 1_555 1_555
O20 C4 1_555 1_555
O21 La2 1_555 1_555
O22 C16 1_555 1_555
O23 C22 1_555 1_555
O24 C28 1_555 1_555
O25 C34 1_555 1_555
O26 C40 1_555 1_555
Cl3 Zn1 1_555 1_555
Cl4 Zn1 1_555 1_555
Cl5 Zn1 1_555 1_555
Cl6 Zn1 1_555 1_555
Cl7 Zn2 1_555 1_555
Cl8 Zn2 1_555 1_555
Cl9 Zn2 1_555 1_555
Cl10 Zn2 1_555 1_555
La1A O17 1_555 1_555
La2A O24 1_555 1_555
O17A La1 1_555 1_555
O24A La2 1_555 1_555
C3 N2 1_555 1_555
C4 N4 1_555 1_555
C5 N2 1_555 1_555
C6 N4 1_555 1_555
C7 O14 1_555 1_555
C8 N5 1_555 1_555
C8 N7 1_555 1_555
C9 N6 1_555 1_555
C10 N8 1_555 1_555
C10 O21 1_555 1_555
C11 N6 1_555 1_555
C12 N8 1_555 1_555
C14 N9 1_555 1_555
C14 N11 1_555 1_555
C15 N10 1_555 1_555
C16 N12 1_555 1_555
C17 N10 1_555 1_555
C18 N12 1_555 1_555
C20 N13 1_555 1_555
C20 N15 1_555 1_555
C21 N14 1_555 1_555
C22 N16 1_555 1_555
C23 N14 1_555 1_555
C24 N16 1_555 1_555
C26 N17 1_555 1_555
C26 N19 1_555 1_555
C27 N18 1_555 1_555
C28 N20 1_555 1_555
C29 N18 1_555 1_555
C30 N20 1_555 1_555
C32 N21 1_555 1_555
C32 N23 1_555 1_555
C33 N22 1_555 1_555
C34 N24 1_555 1_555
C35 N22 1_555 1_555
C36 N24 1_555 1_555
C38 N25 1_555 1_555
C38 N27 1_555 1_555
C39 N26 1_555 1_555
C40 N28 1_555 1_555
C41 N1 1_555 1_555
C41 N26 1_555 1_555
C42 N3 1_555 1_555
C42 N28 1_555 1_555

#END
