
#######################################################################
#
#                 Cambridge Crystallographic Data Centre
#                                CCDC 
#
#######################################################################
#
# If this CIF has been generated from an entry in the Cambridge 
# Structural Database, then it will include bibliographic, chemical, 
# crystal, experimental, refinement or atomic coordinate data resulting 
# from the CCDC's data processing and validation procedures.
#
#######################################################################

data_PEXVEU
_symmetry_cell_setting           monoclinic
_symmetry_space_group_name_H-M   'P 21/c'
_symmetry_Int_Tables_number      14
_space_group_name_Hall           '-P 2ybc'
loop_
_symmetry_equiv_pos_site_id
_symmetry_equiv_pos_as_xyz
1 x,y,z
2 -x,1/2+y,1/2-z
3 -x,-y,-z
4 x,1/2-y,1/2+z
_cell_length_a                   10.999(3)
_cell_length_b                   19.134(5)
_cell_length_c                   9.778(3)
_cell_angle_alpha                90.00
_cell_angle_beta                 104.806(4)
_cell_angle_gamma                90.00
_cell_volume                     1989.5
loop_
_atom_site_label
_atom_site_type_symbol
_atom_site_fract_x
_atom_site_fract_y
_atom_site_fract_z
Zn1 Zn -0.43699(6) 0.16285(3) -0.16787(6)
Br1 Br -0.65572(8) 0.15581(4) -0.21156(8)
N1 N -0.4456(5) 0.2422(2) 0.0828(5)
N2 N -0.3646(5) 0.2139(2) 0.0166(5)
C1 C -0.2481(6) 0.2349(3) 0.0882(6)
C2 C -0.1296(6) 0.2167(3) 0.0546(6)
C3 C -0.0812(6) 0.3447(3) 0.0432(7)
C4 C -0.0474(6) 0.2695(3) 0.0377(6)
C5 C -0.0967(7) 0.1476(3) 0.0469(6)
H1 H -0.1520 0.1127 0.0585
C6 C 0.0174(7) 0.1296(4) 0.0224(7)
H2 H 0.0386 0.0828 0.0162
C7 C -0.0160(7) 0.3879(4) 0.1498(7)
H3 H 0.0540 0.3711 0.2164
C8 C 0.0697(7) 0.2506(4) 0.0174(8)
H4 H 0.1278 0.2850 0.0109
C9 C -0.1801(7) 0.3733(3) -0.0587(7)
H5 H -0.2221 0.3454 -0.1339
C10 C 0.0989(7) 0.1813(4) 0.0072(8)
H6 H 0.1754 0.1693 -0.0104
C11 C -0.0548(6) 0.4569(3) 0.1581(7)
H7 H -0.0122 0.4850 0.2325
C12 C -0.1549(6) 0.4838(3) 0.0582(6)
C13 C -0.1957(6) 0.5584(3) 0.0680(7)
H8 H -0.1310 0.5824 0.1384
H9 H -0.2017 0.5811 -0.0222
C14 C -0.2178(7) 0.4404(3) -0.0524(7)
H10 H -0.2856 0.4576 -0.1217
N3 N -0.3172(5) 0.5670(2) 0.1052(5)
H11 H -0.3778 0.5457 0.0369
C15 C -0.3224(6) 0.5367(3) 0.2464(6)
H12 H -0.2380 0.5356 0.3110
C16 C -0.3518(7) 0.6424(3) 0.1093(7)
H13 H -0.3826 0.6610 0.0145
H14 H -0.2802 0.6699 0.1596
C17 C -0.3790(6) 0.4644(3) 0.2294(6)
C18 C -0.4080(7) 0.5881(3) 0.3019(7)
H15 H -0.4786 0.5633 0.3214
H16 H -0.3609 0.6104 0.3884
C19 C -0.4541(7) 0.6424(3) 0.1870(7)
H17 H -0.5344 0.6291 0.1248
H18 H -0.4621 0.6880 0.2273
N4 N -0.3767(5) 0.2795(2) 0.1894(5)
N5 N -0.2556(5) 0.2765(3) 0.1954(5)
O1 O -0.3554(4) 0.42893(19) 0.3434(4)
O2 O -0.4490(4) 0.4460(2) 0.1161(4)
Zn1C Zn -0.43699(6) 0.33715(3) 0.33213(6)
N4C N -0.3767(5) 0.2205(2) -0.3106(5)
O1C O -0.3554(4) 0.07107(19) -0.1566(4)
O3 O -0.2455(16) -0.0024(7) 0.1033(13)
loop_
_geom_bond_atom_site_label_1
_geom_bond_atom_site_label_2
_geom_bond_site_symmetry_1
_geom_bond_site_symmetry_2
Zn1 Br1 1_555 1_555
N1 N2 1_555 1_555
N2 Zn1 1_555 1_555
C1 N2 1_555 1_555
C2 C1 1_555 1_555
C3 C4 1_555 1_555
C4 C2 1_555 1_555
C5 C2 1_555 1_555
H1 C5 1_555 1_555
C6 C5 1_555 1_555
H2 C6 1_555 1_555
C7 C3 1_555 1_555
H3 C7 1_555 1_555
C8 C4 1_555 1_555
H4 C8 1_555 1_555
C9 C3 1_555 1_555
H5 C9 1_555 1_555
C10 C6 1_555 1_555
H6 C10 1_555 1_555
C11 C7 1_555 1_555
H7 C11 1_555 1_555
C12 C11 1_555 1_555
C13 C12 1_555 1_555
H8 C13 1_555 1_555
H9 C13 1_555 1_555
C14 C9 1_555 1_555
H10 C14 1_555 1_555
N3 C13 1_555 1_555
H11 N3 1_555 1_555
C15 N3 1_555 1_555
H12 C15 1_555 1_555
C16 N3 1_555 1_555
H13 C16 1_555 1_555
H14 C16 1_555 1_555
C17 C15 1_555 1_555
C18 C15 1_555 1_555
H15 C18 1_555 1_555
H16 C18 1_555 1_555
C19 C16 1_555 1_555
H17 C19 1_555 1_555
H18 C19 1_555 1_555
N4 N1 1_555 1_555
N5 C1 1_555 1_555
O1 C17 1_555 1_555
O2 C17 1_555 1_555
Zn1C N4 1_555 1_555
N4C Zn1 1_555 1_555
O1C Zn1 1_555 1_555
C8 C10 1_555 1_555
C12 C14 1_555 1_555
C18 C19 1_555 1_555
N4 N5 1_555 1_555
O1 Zn1C 1_555 1_555

#END
