
#######################################################################
#
#                 Cambridge Crystallographic Data Centre
#                                CCDC 
#
#######################################################################
#
# If this CIF has been generated from an entry in the Cambridge 
# Structural Database, then it will include bibliographic, chemical, 
# crystal, experimental, refinement or atomic coordinate data resulting 
# from the CCDC's data processing and validation procedures.
#
#######################################################################

data_PEYDUT
_symmetry_cell_setting           triclinic
_symmetry_space_group_name_H-M   'P -1'
_symmetry_Int_Tables_number      2
_space_group_name_Hall           '-P 1'
loop_
_symmetry_equiv_pos_site_id
_symmetry_equiv_pos_as_xyz
1 x,y,z
2 -x,-y,-z
_cell_length_a                   10.631(2)
_cell_length_b                   10.948(2)
_cell_length_c                   12.701(3)
_cell_angle_alpha                99.427(3)
_cell_angle_beta                 114.082(3)
_cell_angle_gamma                100.871(3)
_cell_volume                     1276.69
loop_
_atom_site_label
_atom_site_type_symbol
_atom_site_fract_x
_atom_site_fract_y
_atom_site_fract_z
O1 O -0.2918(2) -0.5834(2) 0.03470(19)
O2 O -0.0017(2) -0.41657(18) -0.07340(17)
O3 O -0.2036(2) -0.64679(19) -0.14129(17)
O4 O -0.2276(2) -0.47758(19) -0.28823(17)
O5 O -0.0712(2) -0.2370(2) -0.2552(2)
O6 O -0.0611(2) -0.19513(19) -0.03085(18)
O7 O -0.2695(2) -0.41659(19) -0.09758(17)
O8 O -0.3227(2) -0.2537(2) -0.24622(19)
O9 O 0.2290(2) -0.1627(2) 0.02316(19)
O10 O 0.0293(2) -0.4909(2) -0.29426(19)
O11 O -0.1787(2) -0.7113(2) -0.36210(18)
O12 O -0.0465(2) -0.36520(19) 0.12743(17)
O13 O 0.1615(2) -0.1130(2) 0.20475(19)
N1 N -0.9148(3) -0.8575(2) -0.3122(2)
N2 N -0.2138(2) 0.1423(2) -0.6080(2)
N3 N -0.6382(3) -0.4750(2) -0.3898(2)
N4 N -0.4729(3) -0.2306(2) -0.5105(2)
C1 C -0.7861(3) -0.7663(3) -0.2443(3)
C2 C -0.6979(3) -0.7698(3) -0.1296(3)
H1 H -0.6097 -0.7076 -0.0844
C3 C -0.7401(3) -0.8650(3) -0.0822(3)
H2 H -0.6838 -0.8644 -0.0035
C4 C -0.8675(3) -0.9613(3) -0.1532(3)
H3 H -0.8962 -1.0292 -0.1250
C5 C -0.9505(3) -0.9541(3) -0.2667(3)
H4 H -1.0358 -1.0192 -0.3148
C6 C -0.5875(3) -0.4598(3) -0.2712(3)
H5 H -0.5163 -0.3845 -0.2198
C7 C -0.6351(3) -0.5492(3) -0.2221(3)
H6 H -0.5972 -0.5332 -0.1393
C8 C -0.7413(3) -0.6650(3) -0.2965(3)
C9 C -0.7947(3) -0.6803(3) -0.4198(3)
H7 H -0.8652 -0.7552 -0.4733
C10 C -0.7428(3) -0.5847(3) -0.4623(3)
H8 H -0.7817 -0.5963 -0.5446
C11 C -0.3444(3) 0.0529(3) -0.6711(3)
C12 C -0.4356(3) 0.0510(3) -0.7872(3)
H9 H -0.5263 -0.0081 -0.8279
C13 C -0.3910(3) 0.1375(3) -0.8424(3)
H10 H -0.4490 0.1335 -0.9217
C14 C -0.2596(3) 0.2291(3) -0.7778(3)
H11 H -0.2283 0.2893 -0.8121
C15 C -0.1754(3) 0.2301(3) -0.6612(3)
H12 H -0.0883 0.2940 -0.6171
C16 C -0.5187(3) -0.2554(3) -0.6298(3)
H13 H -0.5801 -0.3364 -0.6779
C17 C -0.4790(3) -0.1666(3) -0.6834(3)
H14 H -0.5135 -0.1880 -0.7661
C18 C -0.3864(3) -0.0437(3) -0.6134(3)
C19 C -0.3398(3) -0.0182(3) -0.4899(3)
H15 H -0.2794 0.0624 -0.4399
C20 C -0.3832(3) -0.1124(3) -0.4420(3)
H16 H -0.3495 -0.0939 -0.3595
Cu1 Cu -1.07247(4) -0.84508(4) -0.45034(3)
Cu2 Cu -0.55017(4) -0.35216(4) -0.44633(4)
Mo1 Mo -0.17583(2) -0.50784(2) -0.01047(2)
Mo2 Mo -0.17006(3) -0.30211(2) -0.19058(2)
Mo3 Mo 0.11200(2) -0.22326(2) 0.07406(2)
Mo4 Mo -0.08708(2) -0.56947(2) -0.25101(2)
O1A O 0.2918(2) -0.4166(2) -0.03470(19)
O2A O 0.0017(2) -0.58343(18) 0.07340(17)
O3A O 0.2036(2) -0.35321(19) 0.14129(17)
O4A O 0.2276(2) -0.52242(19) 0.28823(17)
O5A O 0.0712(2) -0.7630(2) 0.2552(2)
O6A O 0.0611(2) -0.80487(19) 0.03085(18)
O7A O 0.2695(2) -0.58341(19) 0.09758(17)
O8A O 0.3227(2) -0.7463(2) 0.24622(19)
O9A O -0.2290(2) -0.8373(2) -0.02316(19)
O10A O -0.0293(2) -0.5091(2) 0.29426(19)
O11_2 O -1.1787(2) -0.7113(2) -0.36210(18)
O11A O 0.1787(2) -0.2887(2) 0.36210(18)
O11_3 O -0.1787(2) 0.2887(2) -0.36210(18)
O12A O 0.0465(2) -0.63480(19) -0.12743(17)
O13A O -0.1615(2) -0.8870(2) -0.20475(19)
N1A N 0.9148(3) -0.1425(2) 0.3122(2)
N1_2 N 0.0852(3) 0.1425(2) -0.3122(2)
N2_2 N -1.2138(2) -0.8577(2) -0.6080(2)
N2A N 0.2138(2) -1.1423(2) 0.6080(2)
N3A N 0.6382(3) -0.5250(2) 0.3898(2)
N4A N 0.4729(3) -0.7694(2) 0.5105(2)
C1A C 0.7861(3) -0.2337(3) 0.2443(3)
C2A C 0.6979(3) -0.2302(3) 0.1296(3)
H1A H 0.6097 -0.2924 0.0844
C3A C 0.7401(3) -0.1350(3) 0.0822(3)
H2A H 0.6838 -0.1356 0.0035
C4A C 0.8675(3) -0.0387(3) 0.1532(3)
H3A H 0.8962 0.0292 0.1250
C5A C 0.9505(3) -0.0459(3) 0.2667(3)
H4A H 1.0358 0.0192 0.3148
C6A C 0.5875(3) -0.5402(3) 0.2712(3)
H5A H 0.5163 -0.6155 0.2198
C7A C 0.6351(3) -0.4508(3) 0.2221(3)
H6A H 0.5972 -0.4668 0.1393
C8A C 0.7413(3) -0.3350(3) 0.2965(3)
C9A C 0.7947(3) -0.3197(3) 0.4198(3)
H7A H 0.8652 -0.2448 0.4733
C10A C 0.7428(3) -0.4153(3) 0.4623(3)
H8A H 0.7817 -0.4037 0.5446
C11A C 0.3444(3) -1.0529(3) 0.6711(3)
C12A C 0.4356(3) -1.0510(3) 0.7872(3)
H9A H 0.5263 -0.9919 0.8279
C13A C 0.3910(3) -1.1375(3) 0.8424(3)
H10A H 0.4490 -1.1335 0.9217
C14A C 0.2596(3) -1.2291(3) 0.7778(3)
H11A H 0.2283 -1.2893 0.8121
C15A C 0.1754(3) -1.2301(3) 0.6612(3)
H12A H 0.0883 -1.2940 0.6171
C16A C 0.5187(3) -0.7446(3) 0.6298(3)
H13A H 0.5801 -0.6636 0.6779
C17A C 0.4790(3) -0.8334(3) 0.6834(3)
H14A H 0.5135 -0.8120 0.7661
C18A C 0.3864(3) -0.9563(3) 0.6134(3)
C19A C 0.3398(3) -0.9818(3) 0.4899(3)
H15A H 0.2794 -1.0624 0.4399
C20A C 0.3832(3) -0.8876(3) 0.4420(3)
H16A H 0.3495 -0.9061 0.3595
Cu1_2 Cu -0.07247(4) 0.15492(4) -0.45034(3)
Cu1A Cu 0.07247(4) -0.15492(4) 0.45034(3)
Cu1_3 Cu -0.07247(4) -0.84508(4) -0.45034(3)
Cu1A_2 Cu 0.07247(4) -1.15492(4) 0.45034(3)
Cu1A_3 Cu 1.07247(4) -0.15492(4) 0.45034(3)
Cu2A Cu 0.55017(4) -0.64784(4) 0.44633(4)
Mo1A Mo 0.17583(2) -0.49216(2) 0.01047(2)
Mo2A Mo 0.17006(3) -0.69789(2) 0.19058(2)
Mo3A Mo -0.11200(2) -0.77674(2) -0.07406(2)
Mo4A Mo 0.08708(2) -0.43053(2) 0.25101(2)
loop_
_geom_bond_atom_site_label_1
_geom_bond_atom_site_label_2
_geom_bond_site_symmetry_1
_geom_bond_site_symmetry_2
O1 Mo1 1_555 1_555
O2 Mo1 1_555 1_555
O3 Mo1 1_555 1_555
O4 Mo2 1_555 1_555
O5 Mo2 1_555 1_555
O6 Mo2 1_555 1_555
O7 Mo1 1_555 1_555
O8 Cu2 1_555 1_555
O9 Mo3 1_555 1_555
O10 Mo4 1_555 1_555
O11 Mo4 1_555 1_555
O12 Mo1 1_555 1_555
O13 Mo3 1_555 1_555
N1 C1 1_555 1_555
N2 C11 1_555 1_555
N3 C6 1_555 1_555
N4 C16 1_555 1_555
C1 C2 1_555 1_555
C2 H1 1_555 1_555
C3 C2 1_555 1_555
H2 C3 1_555 1_555
C4 C3 1_555 1_555
H3 C4 1_555 1_555
C5 N1 1_555 1_555
H4 C5 1_555 1_555
C6 H5 1_555 1_555
C7 C6 1_555 1_555
H6 C7 1_555 1_555
C8 C1 1_555 1_555
C9 C8 1_555 1_555
H7 C9 1_555 1_555
C10 N3 1_555 1_555
H8 C10 1_555 1_555
C11 C12 1_555 1_555
C12 H9 1_555 1_555
C13 C12 1_555 1_555
H10 C13 1_555 1_555
C14 C13 1_555 1_555
H11 C14 1_555 1_555
C15 N2 1_555 1_555
H12 C15 1_555 1_555
C16 H13 1_555 1_555
C17 C16 1_555 1_555
H14 C17 1_555 1_555
C18 C11 1_555 1_555
C19 C18 1_555 1_555
H15 C19 1_555 1_555
C20 N4 1_555 1_555
H16 C20 1_555 1_555
Cu1 N1 1_555 1_555
Cu2 N3 1_555 1_555
Mo1 O2A 1_555 1_555
Mo2 O2 1_555 1_555
Mo3 O2 1_555 1_555
Mo4 O2 1_555 1_555
O1A Mo1A 1_555 1_555
O2A Mo1A 1_555 1_555
O3A Mo3 1_555 1_555
O4A Mo2A 1_555 1_555
O5A Mo2A 1_555 1_555
O6A Mo2A 1_555 1_555
O7A Mo1A 1_555 1_555
O8A Cu2A 1_555 1_555
O9A Mo3A 1_555 1_555
O10A Mo4A 1_555 1_555
O11_2 Cu1 1_555 1_555
O11A Cu1A 1_555 1_555
O11_3 Cu1_2 1_555 1_555
O12A Mo4 1_555 1_555
O13A Mo3A 1_555 1_555
N1A C1A 1_555 1_555
N1_2 Cu1_2 1_555 1_555
N2_2 Cu1 1_555 1_555
N2A C11A 1_555 1_555
N3A C6A 1_555 1_555
N4A C16A 1_555 1_555
C1A C2A 1_555 1_555
C2A H1A 1_555 1_555
C3A C2A 1_555 1_555
H2A C3A 1_555 1_555
C4A C3A 1_555 1_555
H3A C4A 1_555 1_555
C5A N1A 1_555 1_555
H4A C5A 1_555 1_555
C6A H5A 1_555 1_555
C7A C6A 1_555 1_555
H6A C7A 1_555 1_555
C8A C1A 1_555 1_555
C9A C8A 1_555 1_555
H7A C9A 1_555 1_555
C10A N3A 1_555 1_555
H8A C10A 1_555 1_555
C11A C12A 1_555 1_555
C12A H9A 1_555 1_555
C13A C12A 1_555 1_555
H10A C13A 1_555 1_555
C14A C13A 1_555 1_555
H11A C14A 1_555 1_555
C15A N2A 1_555 1_555
H12A C15A 1_555 1_555
C16A H13A 1_555 1_555
C17A C16A 1_555 1_555
H14A C17A 1_555 1_555
C18A C11A 1_555 1_555
C19A C18A 1_555 1_555
H15A C19A 1_555 1_555
C20A N4A 1_555 1_555
H16A C20A 1_555 1_555
Cu1_2 N2 1_555 1_555
Cu1_3 O11 1_555 1_555
Cu1A_2 N2A 1_555 1_555
Cu1A_3 N1A 1_555 1_555
Cu2A N3A 1_555 1_555
Mo1A O2 1_555 1_555
Mo2A O2A 1_555 1_555
Mo3A O3 1_555 1_555
Mo4A O12 1_555 1_555
O3 Mo4 1_555 1_555
O4 Mo4 1_555 1_555
O6 Mo3 1_555 1_555
O7 Mo2 1_555 1_555
O8 Mo2 1_555 1_555
O12 Mo3 1_555 1_555
N4 Cu2 1_555 1_555
C4 C5 1_555 1_555
C7 C8 1_555 1_555
C9 C10 1_555 1_555
C14 C15 1_555 1_555
C17 C18 1_555 1_555
C19 C20 1_555 1_555
O2A Mo3A 1_555 1_555
O2A Mo4A 1_555 1_555
O3A Mo1A 1_555 1_555
O3A Mo4A 1_555 1_555
O4A Mo4A 1_555 1_555
O6A Mo3A 1_555 1_555
O7A Mo2A 1_555 1_555
O8A Mo2A 1_555 1_555
O11A Mo4A 1_555 1_555
O12A Mo1A 1_555 1_555
O12A Mo3A 1_555 1_555
N4A Cu2A 1_555 1_555
C4A C5A 1_555 1_555
C7A C8A 1_555 1_555
C9A C10A 1_555 1_555
C14A C15A 1_555 1_555
C17A C18A 1_555 1_555
C19A C20A 1_555 1_555

#END
