
#######################################################################
#
#                 Cambridge Crystallographic Data Centre
#                                CCDC 
#
#######################################################################
#
# If this CIF has been generated from an entry in the Cambridge 
# Structural Database, then it will include bibliographic, chemical, 
# crystal, experimental, refinement or atomic coordinate data resulting 
# from the CCDC's data processing and validation procedures.
#
#######################################################################

data_PEYHOR01
_symmetry_cell_setting           triclinic
_symmetry_space_group_name_H-M   'P -1'
_symmetry_Int_Tables_number      2
_space_group_name_Hall           '-P 1'
loop_
_symmetry_equiv_pos_site_id
_symmetry_equiv_pos_as_xyz
1 x,y,z
2 -x,-y,-z
_cell_length_a                   11.0869(3)
_cell_length_b                   11.9653(4)
_cell_length_c                   12.9618(4)
_cell_angle_alpha                112.322(2)
_cell_angle_beta                 102.410(2)
_cell_angle_gamma                106.216(2)
_cell_volume                     1424.15
loop_
_atom_site_label
_atom_site_type_symbol
_atom_site_fract_x
_atom_site_fract_y
_atom_site_fract_z
Ag1 Ag 0.201247(16) 0.484687(16) 0.321223(14)
C1 C 0.4526(2) 0.4334(2) 0.49036(18)
H1 H 0.4119 0.4476 0.5527
H2 H 0.5043 0.3794 0.497
C2 C 0.0477(2) 0.5729(2) 0.53449(18)
H3 H 0.1253 0.5862 0.5991
H4 H 0.00000 0.6259 0.5717
C3 C -0.0818(3) 0.2733(3) 0.0535(3)
H5 H -0.0555 0.3384 0.0285
C4 C -0.2360(3) 0.0593(3) 0.0105(3)
H6 H -0.2214 -0.0169 -0.0399
H7 H -0.3321 0.0337 -0.0021
H8 H -0.1846 0.0906 0.0947
C5 C -0.2687(3) 0.1429(3) -0.1375(2)
H9 H -0.2274 0.2197 -0.1481
H10 H -0.3614 0.1307 -0.1428
H11 H -0.2691 0.0643 -0.2002
C6 C 0.4105(2) 0.3049(2) 0.24057(19)
C7 C 0.3802(3) 0.3203(2) 0.1384(2)
H12 H 0.3097 0.348 0.1198
C8 C 0.4532(3) 0.2950(3) 0.0630(2)
H13 H 0.4319 0.3049 -0.0072
C9 C 0.5560(3) 0.2557(3) 0.0902(3)
H14 H 0.607 0.2411 0.04
C10 C 0.5851(3) 0.2372(3) 0.1902(2)
H15 H 0.6549 0.2083 0.2076
C11 C 0.5124(2) 0.2611(3) 0.2653(2)
H16 H 0.532 0.2476 0.3336
C12 C 0.2216(2) 0.1881(2) 0.32879(19)
C13 C 0.1042(2) 0.1043(2) 0.2264(2)
H17 H 0.0799 0.1308 0.1674
C14 C 0.0236(2) -0.0169(2) 0.2112(2)
H18 H -0.0543 -0.0739 0.1408
C15 C 0.0562(2) -0.0553(2) 0.2985(2)
H19 H -0.0002 -0.1377 0.2884
C16 C 0.1707(2) 0.0264(2) 0.3998(2)
H20 H 0.1924 0.0003 0.4597
C17 C 0.2548(2) 0.1471(2) 0.4149(2)
H21 H 0.3348 0.2015 0.4837
C18 C -0.0406(2) 0.6240(2) 0.33620(19)
C19 C -0.0508(2) 0.5891(2) 0.21807(19)
H22 H 0.0198 0.5727 0.193
C20 C -0.1638(2) 0.5782(2) 0.1368(2)
H23 H -0.1702 0.5544 0.0564
C21 C -0.2671(2) 0.6019(2) 0.1729(2)
H24 H -0.345 0.5927 0.1169
C22 C -0.2567(2) 0.6390(2) 0.2903(2)
H25 H -0.3266 0.6573 0.3153
C23 C -0.1444(2) 0.6496(2) 0.3718(2)
H26 H -0.1381 0.6743 0.4523
C24 C 0.2144(2) 0.8015(2) 0.53434(19)
C25 C 0.1735(2) 0.8831(2) 0.6167(2)
H27 H 0.0871 0.8484 0.6202
C26 C 0.2585(3) 1.0147(2) 0.6932(2)
H28 H 0.23 1.0695 0.7486
C27 C 0.3849(2) 1.0660(2) 0.6890(2)
H29 H 0.4428 1.1559 0.7413
C28 C 0.4267(2) 0.9859(2) 0.6083(2)
H30 H 0.5136 1.0212 0.606
C29 C 0.3424(2) 0.8545(2) 0.5306(2)
H31 H 0.3714 0.8005 0.4751
N1 N 0.35962(19) 0.60651(18) 0.19860(17)
N2 N -0.1915(2) 0.1639(2) -0.02095(19)
O1 O 0.23316(16) 0.54134(17) 0.16375(14)
O2 O 0.43074(17) 0.65141(17) 0.30621(14)
O3 O 0.41026(18) 0.62281(17) 0.12625(15)
O4 O -0.0126(2) 0.29565(19) 0.15202(19)
P1 P 0.31958(5) 0.34638(5) 0.34195(5)
P2 P 0.10820(5) 0.62830(5) 0.43420(5)
Ag1A Ag 0.798753(16) 0.515313(16) 0.678777(14)
Ag1A_2 Ag -0.201247(16) 0.515313(16) 0.678777(14)
C1A C 0.5474(2) 0.5666(2) 0.50964(18)
H1A H 0.5881 0.5524 0.4473
H2A H 0.4957 0.6206 0.503
C2A C -0.0477(2) 0.4271(2) 0.46551(18)
H3A H -0.1253 0.4138 0.4009
H4A H 0.00000 0.3741 0.4283
C3A C 1.0818(3) 0.7267(3) 0.9465(3)
H5A H 1.0555 0.6616 0.9715
C4A C 1.2360(3) 0.9407(3) 0.9895(3)
H6A H 1.2214 1.0169 1.0399
H7A H 1.3321 0.9663 1.0021
H8A H 1.1846 0.9094 0.9053
C5A C 1.2687(3) 0.8571(3) 1.1375(2)
H9A H 1.2274 0.7803 1.1481
H10A H 1.3614 0.8693 1.1428
H11A H 1.2691 0.9357 1.2002
C6A C 0.5895(2) 0.6951(2) 0.75943(19)
C7A C 0.6198(3) 0.6797(2) 0.8616(2)
H12A H 0.6903 0.652 0.8802
C8A C 0.5468(3) 0.7050(3) 0.9370(2)
H13A H 0.5681 0.6951 1.0072
C9A C 0.4440(3) 0.7443(3) 0.9098(3)
H14A H 0.393 0.7589 0.96
C10A C 0.4149(3) 0.7628(3) 0.8098(2)
H15A H 0.3451 0.7917 0.7924
C11A C 0.4876(2) 0.7389(3) 0.7347(2)
H16A H 0.468 0.7524 0.6664
C12A C 0.7784(2) 0.8119(2) 0.67121(19)
C13A C 0.8958(2) 0.8957(2) 0.7736(2)
H17A H 0.9201 0.8692 0.8326
C14A C 0.9764(2) 1.0169(2) 0.7888(2)
H18A H 1.0543 1.0739 0.8592
C15A C 0.9438(2) 1.0553(2) 0.7015(2)
H19A H 1.0002 1.1377 0.7116
C16A C 0.8293(2) 0.9736(2) 0.6002(2)
H20A H 0.8076 0.9997 0.5403
C17A C 0.7452(2) 0.8529(2) 0.5851(2)
H21A H 0.6652 0.7985 0.5163
C18A C 0.0406(2) 0.3760(2) 0.66380(19)
C19A C 0.0508(2) 0.4109(2) 0.78193(19)
H22A H -0.0198 0.4273 0.807
C20A C 0.1638(2) 0.4218(2) 0.8632(2)
H23A H 0.1702 0.4456 0.9436
C21A C 0.2671(2) 0.3981(2) 0.8271(2)
H24A H 0.345 0.4073 0.8831
C22A C 0.2567(2) 0.3610(2) 0.7097(2)
H25A H 0.3266 0.3427 0.6847
C23A C 0.1444(2) 0.3504(2) 0.6282(2)
H26A H 0.1381 0.3257 0.5477
C24A C -0.2144(2) 0.1985(2) 0.46566(19)
C25A C -0.1735(2) 0.1169(2) 0.3833(2)
H27A H -0.0871 0.1516 0.3798
C26A C -0.2585(3) -0.0147(2) 0.3068(2)
H28A H -0.23 -0.0695 0.2514
C27A C -0.3849(2) -0.0660(2) 0.3110(2)
H29A H -0.4428 -0.1559 0.2587
C28A C -0.4267(2) 0.0141(2) 0.3917(2)
H30A H -0.5136 -0.0212 0.394
C29A C -0.3424(2) 0.1455(2) 0.4694(2)
H31A H -0.3714 0.1995 0.5249
N1A N 0.64038(19) 0.39349(18) 0.80140(17)
N2A N 1.1915(2) 0.8361(2) 1.02095(19)
O1A O 0.76684(16) 0.45866(17) 0.83625(14)
O2A O 0.56926(17) 0.34859(17) 0.69379(14)
O3A O 0.58974(18) 0.37719(17) 0.87375(15)
O4A O 1.0126(2) 0.70435(19) 0.84798(19)
P1A P 0.68042(5) 0.65362(5) 0.65805(5)
P2A P -0.10820(5) 0.37170(5) 0.56580(5)
P2A_2 P 0.89180(5) 0.37170(5) 0.56580(5)
loop_
_geom_bond_atom_site_label_1
_geom_bond_atom_site_label_2
_geom_bond_site_symmetry_1
_geom_bond_site_symmetry_2
Ag1 O1 1_555 1_555
C1 H1 1_555 1_555
H2 C1 1_555 1_555
C2 H3 1_555 1_555
H4 C2 1_555 1_555
C3 H5 1_555 1_555
C4 H6 1_555 1_555
H7 C4 1_555 1_555
H8 C4 1_555 1_555
C5 H9 1_555 1_555
H10 C5 1_555 1_555
H11 C5 1_555 1_555
C6 C7 1_555 1_555
C7 H12 1_555 1_555
C8 C7 1_555 1_555
H13 C8 1_555 1_555
C9 C8 1_555 1_555
H14 C9 1_555 1_555
C10 C9 1_555 1_555
H15 C10 1_555 1_555
C11 C6 1_555 1_555
H16 C11 1_555 1_555
C12 C13 1_555 1_555
C13 H17 1_555 1_555
C14 C13 1_555 1_555
H18 C14 1_555 1_555
C15 C14 1_555 1_555
H19 C15 1_555 1_555
C16 C15 1_555 1_555
H20 C16 1_555 1_555
C17 C12 1_555 1_555
H21 C17 1_555 1_555
C18 C19 1_555 1_555
C19 H22 1_555 1_555
C20 C19 1_555 1_555
H23 C20 1_555 1_555
C21 C20 1_555 1_555
H24 C21 1_555 1_555
C22 C21 1_555 1_555
H25 C22 1_555 1_555
C23 C18 1_555 1_555
H26 C23 1_555 1_555
C24 C25 1_555 1_555
C25 H27 1_555 1_555
C26 C25 1_555 1_555
H28 C26 1_555 1_555
C27 C26 1_555 1_555
H29 C27 1_555 1_555
C28 C27 1_555 1_555
H30 C28 1_555 1_555
C29 C24 1_555 1_555
H31 C29 1_555 1_555
N1 O1 1_555 1_555
N2 C3 1_555 1_555
O2 N1 1_555 1_555
O3 N1 1_555 1_555
O4 Ag1 1_555 1_555
P1 Ag1 1_555 1_555
P2 Ag1 1_555 1_555
Ag1A O1A 1_555 1_555
Ag1A_2 P2A 1_555 1_555
C1A C1 1_555 1_555
H1A C1A 1_555 1_555
H2A C1A 1_555 1_555
C2A C2 1_555 1_555
H3A C2A 1_555 1_555
H4A C2A 1_555 1_555
C3A H5A 1_555 1_555
C4A H6A 1_555 1_555
H7A C4A 1_555 1_555
H8A C4A 1_555 1_555
C5A H9A 1_555 1_555
H10A C5A 1_555 1_555
H11A C5A 1_555 1_555
C6A C7A 1_555 1_555
C7A H12A 1_555 1_555
C8A C7A 1_555 1_555
H13A C8A 1_555 1_555
C9A C8A 1_555 1_555
H14A C9A 1_555 1_555
C10A C9A 1_555 1_555
H15A C10A 1_555 1_555
C11A C6A 1_555 1_555
H16A C11A 1_555 1_555
C12A C13A 1_555 1_555
C13A H17A 1_555 1_555
C14A C13A 1_555 1_555
H18A C14A 1_555 1_555
C15A C14A 1_555 1_555
H19A C15A 1_555 1_555
C16A C15A 1_555 1_555
H20A C16A 1_555 1_555
C17A C12A 1_555 1_555
H21A C17A 1_555 1_555
C18A C19A 1_555 1_555
C19A H22A 1_555 1_555
C20A C19A 1_555 1_555
H23A C20A 1_555 1_555
C21A C20A 1_555 1_555
H24A C21A 1_555 1_555
C22A C21A 1_555 1_555
H25A C22A 1_555 1_555
C23A C18A 1_555 1_555
H26A C23A 1_555 1_555
C24A C25A 1_555 1_555
C25A H27A 1_555 1_555
C26A C25A 1_555 1_555
H28A C26A 1_555 1_555
C27A C26A 1_555 1_555
H29A C27A 1_555 1_555
C28A C27A 1_555 1_555
H30A C28A 1_555 1_555
C29A C24A 1_555 1_555
H31A C29A 1_555 1_555
N1A O1A 1_555 1_555
N2A C3A 1_555 1_555
O2A N1A 1_555 1_555
O3A N1A 1_555 1_555
O4A Ag1A 1_555 1_555
P1A Ag1A 1_555 1_555
P2A C2A 1_555 1_555
P2A_2 Ag1A 1_555 1_555
C1 P1 1_555 1_555
C2 P2 1_555 1_555
C3 O4 1_555 1_555
C4 N2 1_555 1_555
C5 N2 1_555 1_555
C6 P1 1_555 1_555
C10 C11 1_555 1_555
C12 P1 1_555 1_555
C16 C17 1_555 1_555
C18 P2 1_555 1_555
C22 C23 1_555 1_555
C24 P2 1_555 1_555
C28 C29 1_555 1_555
C1A P1A 1_555 1_555
C3A O4A 1_555 1_555
C4A N2A 1_555 1_555
C5A N2A 1_555 1_555
C6A P1A 1_555 1_555
C10A C11A 1_555 1_555
C12A P1A 1_555 1_555
C16A C17A 1_555 1_555
C18A P2A 1_555 1_555
C22A C23A 1_555 1_555
C24A P2A 1_555 1_555
C28A C29A 1_555 1_555

#END
