
#######################################################################
#
#                 Cambridge Crystallographic Data Centre
#                                CCDC 
#
#######################################################################
#
# If this CIF has been generated from an entry in the Cambridge 
# Structural Database, then it will include bibliographic, chemical, 
# crystal, experimental, refinement or atomic coordinate data resulting 
# from the CCDC's data processing and validation procedures.
#
#######################################################################

data_PEYHOR
_symmetry_cell_setting           triclinic
_symmetry_space_group_name_H-M   'P -1'
_symmetry_Int_Tables_number      2
_space_group_name_Hall           '-P 1'
loop_
_symmetry_equiv_pos_site_id
_symmetry_equiv_pos_as_xyz
1 x,y,z
2 -x,-y,-z
_cell_length_a                   11.1758(3)
_cell_length_b                   12.1731(3)
_cell_length_c                   13.0499(3)
_cell_angle_alpha                112.2010(10)
_cell_angle_beta                 102.2000(10)
_cell_angle_gamma                106.8560(10)
_cell_volume                     1466.34
loop_
_atom_site_label
_atom_site_type_symbol
_atom_site_fract_x
_atom_site_fract_y
_atom_site_fract_z
Ag1 Ag 0.20328(2) 0.48532(2) 0.32426(2)
C1 C 0.4526(3) 0.4340(3) 0.4903(2)
H1 H 0.4137 0.4472 0.5513
H2 H 0.5028 0.3822 0.4960
C2 C 0.0473(3) 0.5716(3) 0.5326(2)
H3 H 0.1229 0.5861 0.5963
H4 H 0.0008 0.6226 0.5680
C3 C -0.0824(6) 0.2728(5) 0.0573(6)
H5 H -0.0543 0.3374 0.0354
C4 C -0.2331(6) 0.0654(6) 0.0094(6)
H6 H -0.2027 -0.0001 -0.0282
H7 H -0.3293 0.0282 -0.0188
H8 H -0.1979 0.0982 0.0939
C5 C -0.2639(7) 0.1504(8) -0.1316(5)
H9 H -0.3563 0.1279 -0.1397
H10 H -0.2565 0.0818 -0.1939
H11 H -0.2297 0.2295 -0.1366
C6 C 0.4067(3) 0.3073(3) 0.2404(3)
C7 C 0.3728(4) 0.3189(4) 0.1386(3)
H12 H 0.3033 0.3439 0.1209
C8 C 0.4423(6) 0.2931(5) 0.0619(4)
H13 H 0.4184 0.3001 -0.0074
C9 C 0.5439(6) 0.2583(5) 0.0875(5)
H14 H 0.5911 0.2437 0.0365
C10 C 0.5790(5) 0.2440(5) 0.1868(4)
H15 H 0.6482 0.2179 0.2026
C11 C 0.5101(4) 0.2689(4) 0.2640(3)
H16 H 0.5336 0.2597 0.3321
C12 C 0.2222(3) 0.1916(3) 0.3316(3)
C13 C 0.1049(3) 0.1090(3) 0.2327(3)
H17 H 0.0792 0.1342 0.1757
C14 C 0.0265(4) -0.0101(4) 0.2188(4)
H18 H -0.0508 -0.0653 0.1516
C15 C 0.0612(4) -0.0479(4) 0.3029(4)
H19 H 0.0062 -0.1275 0.2935
C16 C 0.1758(4) 0.0306(4) 0.4003(4)
H20 H 0.1993 0.0044 0.4570
C17 C 0.2575(4) 0.1500(3) 0.4148(3)
H21 H 0.3365 0.2027 0.4808
C18 C -0.0386(3) 0.6225(3) 0.3368(3)
C19 C -0.0492(3) 0.5888(3) 0.2212(3)
H22 H 0.0185 0.5716 0.1964
C20 C -0.1599(4) 0.5802(4) 0.1405(3)
H23 H -0.1660 0.5580 0.0626
C21 C -0.2595(4) 0.6047(4) 0.1773(4)
H24 H -0.3350 0.5966 0.1234
C22 C -0.2491(4) 0.6410(4) 0.2923(4)
H25 H -0.3157 0.6606 0.3173
C23 C -0.1400(3) 0.6486(4) 0.3713(3)
H26 H -0.1345 0.6718 0.4493
C24 C 0.2169(3) 0.7977(3) 0.5331(3)
C25 C 0.1783(4) 0.8781(3) 0.6147(3)
H27 H 0.0942 0.8450 0.6186
C26 C 0.2640(4) 1.0068(4) 0.6900(4)
H28 H 0.2366 1.0601 0.7435
C27 C 0.3880(4) 1.0561(4) 0.6868(4)
H29 H 0.4455 1.1427 0.7382
C28 C 0.4281(4) 0.9776(4) 0.6072(4)
H30 H 0.5129 1.0113 0.6047
C29 C 0.3429(3) 0.8483(3) 0.5307(3)
H31 H 0.3710 0.7955 0.4775
N1 N 0.3609(3) 0.6073(3) 0.2012(2)
N2 N -0.1875(4) 0.1686(4) -0.0182(3)
O1 O 0.2362(2) 0.5401(3) 0.1655(2)
O2 O 0.4305(3) 0.6486(3) 0.3063(2)
O3 O 0.4117(3) 0.6270(3) 0.1312(2)
O4 O -0.0171(4) 0.2934(3) 0.1551(4)
P1 P 0.31895(7) 0.34780(7) 0.34372(6)
P2 P 0.10879(7) 0.62630(7) 0.43386(6)
Ag1A Ag 0.79672(2) 0.51468(2) 0.67574(2)
Ag1A_2 Ag -0.20328(2) 0.51468(2) 0.67574(2)
C1A C 0.5474(3) 0.5660(3) 0.5097(2)
H1A H 0.5863 0.5528 0.4487
H2A H 0.4972 0.6178 0.5040
C2A C -0.0473(3) 0.4284(3) 0.4674(2)
H3A H -0.1229 0.4139 0.4037
H4A H -0.0008 0.3774 0.4320
C3A C 1.0824(6) 0.7272(5) 0.9427(6)
H5A H 1.0543 0.6626 0.9646
C4A C 1.2331(6) 0.9346(6) 0.9906(6)
H6A H 1.2027 1.0001 1.0282
H7A H 1.3293 0.9718 1.0188
H8A H 1.1979 0.9018 0.9061
C5A C 1.2639(7) 0.8496(8) 1.1316(5)
H9A H 1.3563 0.8721 1.1397
H10A H 1.2565 0.9182 1.1939
H11A H 1.2297 0.7705 1.1366
C6A C 0.5933(3) 0.6927(3) 0.7596(3)
C7A C 0.6272(4) 0.6811(4) 0.8614(3)
H12A H 0.6967 0.6561 0.8791
C8A C 0.5577(6) 0.7069(5) 0.9381(4)
H13A H 0.5816 0.6999 1.0074
C9A C 0.4561(6) 0.7417(5) 0.9125(5)
H14A H 0.4089 0.7563 0.9635
C10A C 0.4210(5) 0.7560(5) 0.8132(4)
H15A H 0.3518 0.7821 0.7974
C11A C 0.4899(4) 0.7311(4) 0.7360(3)
H16A H 0.4664 0.7403 0.6679
C12A C 0.7778(3) 0.8084(3) 0.6684(3)
C13A C 0.8951(3) 0.8910(3) 0.7673(3)
H17A H 0.9208 0.8658 0.8243
C14A C 0.9735(4) 1.0101(4) 0.7812(4)
H18A H 1.0508 1.0653 0.8484
C15A C 0.9388(4) 1.0479(4) 0.6971(4)
H19A H 0.9938 1.1275 0.7065
C16A C 0.8242(4) 0.9694(4) 0.5997(4)
H20A H 0.8007 0.9956 0.5430
C17A C 0.7425(4) 0.8500(3) 0.5852(3)
H21A H 0.6635 0.7973 0.5192
C18A C 0.0386(3) 0.3775(3) 0.6632(3)
C19A C 0.0492(3) 0.4112(3) 0.7788(3)
H22A H -0.0185 0.4284 0.8036
C20A C 0.1599(4) 0.4198(4) 0.8595(3)
H23A H 0.1660 0.4420 0.9374
C21A C 0.2595(4) 0.3953(4) 0.8227(4)
H24A H 0.3350 0.4034 0.8766
C22A C 0.2491(4) 0.3590(4) 0.7077(4)
H25A H 0.3157 0.3394 0.6827
C23A C 0.1400(3) 0.3514(4) 0.6287(3)
H26A H 0.1345 0.3282 0.5507
C24A C -0.2169(3) 0.2023(3) 0.4669(3)
C25A C -0.1783(4) 0.1219(3) 0.3853(3)
H27A H -0.0942 0.1550 0.3814
C26A C -0.2640(4) -0.0068(4) 0.3100(4)
H28A H -0.2366 -0.0601 0.2565
C27A C -0.3880(4) -0.0561(4) 0.3132(4)
H29A H -0.4455 -0.1427 0.2618
C28A C -0.4281(4) 0.0224(4) 0.3928(4)
H30A H -0.5129 -0.0113 0.3953
C29A C -0.3429(3) 0.1517(3) 0.4693(3)
H31A H -0.3710 0.2045 0.5225
N1A N 0.6391(3) 0.3927(3) 0.7988(2)
N2A N 1.1875(4) 0.8314(4) 1.0182(3)
O1A O 0.7638(2) 0.4599(3) 0.8345(2)
O2A O 0.5695(3) 0.3514(3) 0.6937(2)
O3A O 0.5883(3) 0.3730(3) 0.8688(2)
O4A O 1.0171(4) 0.7066(3) 0.8449(4)
P1A P 0.68105(7) 0.65220(7) 0.65628(6)
P2A P -0.10879(7) 0.37370(7) 0.56614(6)
P2A_2 P 0.89121(7) 0.37370(7) 0.56614(6)
loop_
_geom_bond_atom_site_label_1
_geom_bond_atom_site_label_2
_geom_bond_site_symmetry_1
_geom_bond_site_symmetry_2
Ag1 O1 1_555 1_555
C1 H1 1_555 1_555
H2 C1 1_555 1_555
C2 H3 1_555 1_555
H4 C2 1_555 1_555
C3 H5 1_555 1_555
C4 H6 1_555 1_555
H7 C4 1_555 1_555
H8 C4 1_555 1_555
C5 H9 1_555 1_555
H10 C5 1_555 1_555
H11 C5 1_555 1_555
C6 C7 1_555 1_555
C7 H12 1_555 1_555
C8 C7 1_555 1_555
H13 C8 1_555 1_555
C9 C8 1_555 1_555
H14 C9 1_555 1_555
C10 C9 1_555 1_555
H15 C10 1_555 1_555
C11 C6 1_555 1_555
H16 C11 1_555 1_555
C12 C13 1_555 1_555
C13 H17 1_555 1_555
C14 C13 1_555 1_555
H18 C14 1_555 1_555
C15 C14 1_555 1_555
H19 C15 1_555 1_555
C16 C15 1_555 1_555
H20 C16 1_555 1_555
C17 C12 1_555 1_555
H21 C17 1_555 1_555
C18 C19 1_555 1_555
C19 H22 1_555 1_555
C20 C19 1_555 1_555
H23 C20 1_555 1_555
C21 C20 1_555 1_555
H24 C21 1_555 1_555
C22 C21 1_555 1_555
H25 C22 1_555 1_555
C23 C18 1_555 1_555
H26 C23 1_555 1_555
C24 C25 1_555 1_555
C25 H27 1_555 1_555
C26 C25 1_555 1_555
H28 C26 1_555 1_555
C27 C26 1_555 1_555
H29 C27 1_555 1_555
C28 C27 1_555 1_555
H30 C28 1_555 1_555
C29 C24 1_555 1_555
H31 C29 1_555 1_555
N1 O1 1_555 1_555
N2 C3 1_555 1_555
O2 N1 1_555 1_555
O3 N1 1_555 1_555
O4 Ag1 1_555 1_555
P1 Ag1 1_555 1_555
P2 Ag1 1_555 1_555
Ag1A O1A 1_555 1_555
Ag1A_2 P2A 1_555 1_555
C1A C1 1_555 1_555
H1A C1A 1_555 1_555
H2A C1A 1_555 1_555
C2A C2 1_555 1_555
H3A C2A 1_555 1_555
H4A C2A 1_555 1_555
C3A H5A 1_555 1_555
C4A H6A 1_555 1_555
H7A C4A 1_555 1_555
H8A C4A 1_555 1_555
C5A H9A 1_555 1_555
H10A C5A 1_555 1_555
H11A C5A 1_555 1_555
C6A C7A 1_555 1_555
C7A H12A 1_555 1_555
C8A C7A 1_555 1_555
H13A C8A 1_555 1_555
C9A C8A 1_555 1_555
H14A C9A 1_555 1_555
C10A C9A 1_555 1_555
H15A C10A 1_555 1_555
C11A C6A 1_555 1_555
H16A C11A 1_555 1_555
C12A C13A 1_555 1_555
C13A H17A 1_555 1_555
C14A C13A 1_555 1_555
H18A C14A 1_555 1_555
C15A C14A 1_555 1_555
H19A C15A 1_555 1_555
C16A C15A 1_555 1_555
H20A C16A 1_555 1_555
C17A C12A 1_555 1_555
H21A C17A 1_555 1_555
C18A C19A 1_555 1_555
C19A H22A 1_555 1_555
C20A C19A 1_555 1_555
H23A C20A 1_555 1_555
C21A C20A 1_555 1_555
H24A C21A 1_555 1_555
C22A C21A 1_555 1_555
H25A C22A 1_555 1_555
C23A C18A 1_555 1_555
H26A C23A 1_555 1_555
C24A C25A 1_555 1_555
C25A H27A 1_555 1_555
C26A C25A 1_555 1_555
H28A C26A 1_555 1_555
C27A C26A 1_555 1_555
H29A C27A 1_555 1_555
C28A C27A 1_555 1_555
H30A C28A 1_555 1_555
C29A C24A 1_555 1_555
H31A C29A 1_555 1_555
N1A O1A 1_555 1_555
N2A C3A 1_555 1_555
O2A N1A 1_555 1_555
O3A N1A 1_555 1_555
O4A Ag1A 1_555 1_555
P1A Ag1A 1_555 1_555
P2A C2A 1_555 1_555
P2A_2 Ag1A 1_555 1_555
C1 P1 1_555 1_555
C2 P2 1_555 1_555
C3 O4 1_555 1_555
C4 N2 1_555 1_555
C5 N2 1_555 1_555
C6 P1 1_555 1_555
C10 C11 1_555 1_555
C12 P1 1_555 1_555
C16 C17 1_555 1_555
C18 P2 1_555 1_555
C22 C23 1_555 1_555
C24 P2 1_555 1_555
C28 C29 1_555 1_555
C1A P1A 1_555 1_555
C3A O4A 1_555 1_555
C4A N2A 1_555 1_555
C5A N2A 1_555 1_555
C6A P1A 1_555 1_555
C10A C11A 1_555 1_555
C12A P1A 1_555 1_555
C16A C17A 1_555 1_555
C18A P2A 1_555 1_555
C22A C23A 1_555 1_555
C24A P2A 1_555 1_555
C28A C29A 1_555 1_555

#END
