
#######################################################################
#
#                 Cambridge Crystallographic Data Centre
#                                CCDC 
#
#######################################################################
#
# If this CIF has been generated from an entry in the Cambridge 
# Structural Database, then it will include bibliographic, chemical, 
# crystal, experimental, refinement or atomic coordinate data resulting 
# from the CCDC's data processing and validation procedures.
#
#######################################################################

data_PEYTOE
_symmetry_cell_setting           triclinic
_symmetry_space_group_name_H-M   'P -1'
_symmetry_Int_Tables_number      2
_space_group_name_Hall           '-P 1'
loop_
_symmetry_equiv_pos_site_id
_symmetry_equiv_pos_as_xyz
1 x,y,z
2 -x,-y,-z
_cell_length_a                   9.3356(18)
_cell_length_b                   10.703(2)
_cell_length_c                   11.178(2)
_cell_angle_alpha                80.349(3)
_cell_angle_beta                 70.906(3)
_cell_angle_gamma                89.909(3)
_cell_volume                     1038.81
loop_
_atom_site_label
_atom_site_type_symbol
_atom_site_fract_x
_atom_site_fract_y
_atom_site_fract_z
Tb1 Tb 0.75000(3) 1.01873(3) 0.49903(3)
C1 C 1.0953(8) 0.9078(6) 0.3129(6)
C2 C 1.0619(7) 0.8494(6) 0.2120(6)
C3 C 1.0483(8) 0.7183(6) 0.2284(6)
H1 H 1.0672 0.6691 0.2980
C4 C 1.0070(9) 0.6599(7) 0.1427(7)
H2 H 0.9995 0.5718 0.1550
C5 C 0.9766(8) 0.7297(6) 0.0388(6)
C6 C 0.9872(7) 0.8626(6) 0.0218(6)
C7 C 1.0323(7) 0.9218(6) 0.1061(6)
C8 C 0.9491(8) 0.6608(6) -0.0600(7)
C9 C 1.0584(8) 1.0619(6) 0.0811(6)
C10 C 0.6129(8) 1.0877(6) 0.2792(6)
C11 C 0.5937(7) 1.1462(6) 0.1539(6)
C12 C 0.6138(8) 1.2771(7) 0.1179(7)
H3 H 0.6467 1.3246 0.1674
C13 C 0.5481(7) 1.0767(6) 0.0774(6)
C14 C 0.5473(8) 0.9356(6) 0.1052(6)
C15 C 0.4850(7) 0.8615(6) 0.0308(6)
C16 C 0.4656(7) 0.7294(6) 0.0661(6)
C17 C 0.4144(8) 0.6621(7) -0.0091(7)
H4 H 0.3986 0.5744 0.0140
C18 C 0.4897(8) 0.6555(6) 0.1840(7)
O1 O 0.9840(6) 0.9463(5) 0.3955(5)
O2 O 1.2273(6) 0.9097(5) 0.3166(5)
O3 O 1.0540(6) 0.6543(5) -0.1570(5)
O4 O 0.8176(6) 0.6044(5) -0.0346(5)
O5 O 1.1242(6) 1.1121(4) 0.1401(5)
O6 O 0.6030(6) 0.8832(5) 0.1832(5)
O7 O 0.3833(6) 0.6444(5) 0.2858(5)
H5 H 0.3610 0.7178 0.3026
O8 O 0.6122(6) 0.5991(5) 0.1701(5)
O9 O 0.6941(6) 0.8298(5) 0.4222(5)
H6 H 0.7354 0.7576 0.4597
H7 H 0.7381 0.8421 0.3297
O10 O 0.7757(6) 0.8301(5) 0.6490(5)
H8 H 0.6946 0.7686 0.6639
H9 H 0.7709 0.8541 0.7295
O11 O 0.9175(6) 1.2080(5) 0.4002(5)
H10 H 0.9573 1.2117 0.3083
H11 H 0.9998 1.2045 0.4341
O12 O 0.6113(5) 1.2154(5) 0.5296(5)
H12 H 0.5083 1.1942 0.5854
H13 H 0.6118 1.2607 0.4475
O13 O 0.7407(6) 1.0908(5) 0.2893(5)
O14 O 0.4957(6) 1.0473(5) 0.3718(5)
C1A C 0.9047(8) 1.0922(6) -0.3129(6)
C2A C 0.9381(7) 1.1506(6) -0.2120(6)
C3A C 0.9517(8) 1.2817(6) -0.2284(6)
H1A H 0.9328 1.3309 -0.2980
C4A C 0.9930(9) 1.3401(7) -0.1427(7)
H2A H 1.0005 1.4282 -0.1550
C5A C 1.0234(8) 1.2703(6) -0.0388(6)
C6A C 1.0128(7) 1.1374(6) -0.0218(6)
C7A C 0.9677(7) 1.0782(6) -0.1061(6)
C8A C 1.0509(8) 1.3392(6) 0.0600(7)
C9A C 0.9416(8) 0.9381(6) -0.0811(6)
O1A O 1.0160(6) 1.0537(5) -0.3955(5)
O2A O 0.7727(6) 1.0903(5) -0.3166(5)
O3A O 0.9460(6) 1.3457(5) 0.1570(5)
O4A O 1.1824(6) 1.3956(5) 0.0346(5)
O5A O 0.8758(6) 0.8879(4) -0.1401(5)
C10A C 0.3871(8) 0.9123(6) -0.2792(6)
C11A C 0.4063(7) 0.8538(6) -0.1539(6)
C12A C 0.3862(8) 0.7229(7) -0.1179(7)
H3A H 0.3533 0.6754 -0.1674
C13A C 0.4519(7) 0.9233(6) -0.0774(6)
C14A C 0.4527(8) 1.0644(6) -0.1052(6)
C15A C 0.5150(7) 1.1385(6) -0.0308(6)
C16A C 0.5344(7) 1.2706(6) -0.0661(6)
C17A C 0.5856(8) 1.3379(7) 0.0091(7)
H4A H 0.6014 1.4256 -0.0140
C18A C 0.5103(8) 1.3445(6) -0.1840(7)
O6A O 0.3970(6) 1.1168(5) -0.1832(5)
O7A O 0.6167(6) 1.3556(5) -0.2858(5)
H5A H 0.6390 1.2822 -0.3026
O8A O 0.3878(6) 1.4009(5) -0.1701(5)
O13A O 0.2593(6) 0.9092(5) -0.2893(5)
O14A O 0.5043(6) 0.9527(5) -0.3718(5)
Tb1A Tb 0.25000(3) 0.98127(3) -0.49903(3)
O9A O 0.3059(6) 1.1702(5) -0.4222(5)
H6A H 0.2646 1.2424 -0.4597
H7A H 0.2619 1.1579 -0.3297
O10A O 0.2243(6) 1.1699(5) -0.6490(5)
H8A H 0.3054 1.2314 -0.6639
H9A H 0.2291 1.1459 -0.7295
O11A O 0.0825(6) 0.7920(5) -0.4002(5)
H10A H 0.0427 0.7883 -0.3083
H11A H 0.0002 0.7955 -0.4341
O12A O 0.3887(5) 0.7846(5) -0.5296(5)
H12A H 0.4917 0.8058 -0.5854
H13A H 0.3882 0.7393 -0.4475
Tb1_2 Tb 0.75000(3) 1.01873(3) -0.50097(3)
Tb1A_2 Tb 0.25000(3) 0.98127(3) 0.50097(3)
Tb1A_3 Tb 1.25000(3) 0.98127(3) -0.49903(3)
Tb1A_4 Tb 1.25000(3) 0.98127(3) 0.50097(3)
O1A_2 O 0.0160(6) 1.0537(5) -0.3955(5)
O2_2 O 0.2273(6) 0.9097(5) -0.6834(5)
O2A_2 O 0.7727(6) 1.0903(5) 0.6834(5)
O14_2 O 0.4957(6) 1.0473(5) -0.6282(5)
O14A_2 O 0.5043(6) 0.9527(5) 0.6282(5)
O15 O 0.6603(17) 0.4546(11) 0.3817(12)
H14 H 0.6302 0.5288 0.3711
H15 H 0.6984 0.4319 0.3065
O16 O 0.7352(15) 0.5924(11) 0.5752(17)
H16 H 0.7060 0.5651 0.6561
H17 H 0.6717 0.5603 0.5464
O17 O 0.944(3) 0.443(2) 0.466(2)
H18 H 1.0305 0.4171 0.4260
H19 H 0.8782 0.4177 0.4368
loop_
_geom_bond_atom_site_label_1
_geom_bond_atom_site_label_2
_geom_bond_site_symmetry_1
_geom_bond_site_symmetry_2
Tb1 O1 1_555 1_555
C1 C2 1_555 1_555
C2 C3 1_555 1_555
C3 H1 1_555 1_555
C4 C3 1_555 1_555
H2 C4 1_555 1_555
C5 C4 1_555 1_555
C6 C5 1_555 1_555
C7 C2 1_555 1_555
C8 C5 1_555 1_555
C9 C7 1_555 1_555
C10 C11 1_555 1_555
C11 C12 1_555 1_555
C12 H3 1_555 1_555
C13 C11 1_555 1_555
C14 C13 1_555 1_555
C15 C14 1_555 1_555
C16 C15 1_555 1_555
C17 C16 1_555 1_555
H4 C17 1_555 1_555
C18 C16 1_555 1_555
O1 C1 1_555 1_555
O2 C1 1_555 1_555
O3 C8 1_555 1_555
O4 C8 1_555 1_555
O5 C9 1_555 1_555
O6 C14 1_555 1_555
O7 C18 1_555 1_555
H5 O7 1_555 1_555
O8 C18 1_555 1_555
O9 Tb1 1_555 1_555
H6 O9 1_555 1_555
H7 O9 1_555 1_555
O10 Tb1 1_555 1_555
H8 O10 1_555 1_555
H9 O10 1_555 1_555
O11 Tb1 1_555 1_555
H10 O11 1_555 1_555
H11 O11 1_555 1_555
O12 Tb1 1_555 1_555
H12 O12 1_555 1_555
H13 O12 1_555 1_555
O13 Tb1 1_555 1_555
O14 C10 1_555 1_555
O15 H14 1_555 1_555
H15 O15 1_555 1_555
O16 H16 1_555 1_555
H17 O16 1_555 1_555
O17 H18 1_555 1_555
H19 O17 1_555 1_555
C1A C2A 1_555 1_555
C2A C3A 1_555 1_555
C3A H1A 1_555 1_555
C4A C3A 1_555 1_555
H2A C4A 1_555 1_555
C5A C4A 1_555 1_555
C6A C9 1_555 1_555
C7A C2A 1_555 1_555
C8A C5A 1_555 1_555
C9A C6 1_555 1_555
O1A C1A 1_555 1_555
O2A C1A 1_555 1_555
O3A C8A 1_555 1_555
O4A C8A 1_555 1_555
O5A C9A 1_555 1_555
C10A C11A 1_555 1_555
C11A C12A 1_555 1_555
C12A C17 1_555 1_555
H3A C12A 1_555 1_555
C13A C15 1_555 1_555
C14A C13A 1_555 1_555
C15A C13 1_555 1_555
C16A C15A 1_555 1_555
C17A C12 1_555 1_555
H4A C17A 1_555 1_555
C18A C16A 1_555 1_555
O6A C14A 1_555 1_555
O7A C18A 1_555 1_555
H5A O7A 1_555 1_555
O8A C18A 1_555 1_555
O13A C10A 1_555 1_555
O14A C10A 1_555 1_555
Tb1A O13A 1_555 1_555
O9A Tb1A 1_555 1_555
H6A O9A 1_555 1_555
H7A O9A 1_555 1_555
O10A Tb1A 1_555 1_555
H8A O10A 1_555 1_555
H9A O10A 1_555 1_555
O11A Tb1A 1_555 1_555
H10A O11A 1_555 1_555
H11A O11A 1_555 1_555
O12A Tb1A 1_555 1_555
H12A O12A 1_555 1_555
H13A O12A 1_555 1_555
Tb1_2 O2A 1_555 1_555
Tb1A_2 O14 1_555 1_555
Tb1A_3 O1A 1_555 1_555
Tb1A_4 O2 1_555 1_555
O1A_2 Tb1A 1_555 1_555
O2_2 Tb1A 1_555 1_555
O2A_2 Tb1 1_555 1_555
O14_2 Tb1A 1_555 1_555
O14A_2 Tb1 1_555 1_555
C6 C7 1_555 1_555
C10 O13 1_555 1_555
C5A C6A 1_555 1_555
C6A C7A 1_555 1_555
C7A C9A 1_555 1_555
C11A C13A 1_555 1_555
C14A C15A 1_555 1_555
C16A C17A 1_555 1_555
O14A Tb1_2 1_555 1_555

#END
