
#######################################################################
#
#                 Cambridge Crystallographic Data Centre
#                                CCDC 
#
#######################################################################
#
# If this CIF has been generated from an entry in the Cambridge 
# Structural Database, then it will include bibliographic, chemical, 
# crystal, experimental, refinement or atomic coordinate data resulting 
# from the CCDC's data processing and validation procedures.
#
#######################################################################

data_PEYTEU
_symmetry_cell_setting           triclinic
_symmetry_space_group_name_H-M   'P -1'
_symmetry_Int_Tables_number      2
_space_group_name_Hall           '-P 1'
loop_
_symmetry_equiv_pos_site_id
_symmetry_equiv_pos_as_xyz
1 x,y,z
2 -x,-y,-z
_cell_length_a                   9.4041(14)
_cell_length_b                   10.7125(16)
_cell_length_c                   11.1902(17)
_cell_angle_alpha                80.225(2)
_cell_angle_beta                 70.715(2)
_cell_angle_gamma                89.898(3)
_cell_volume                     1046.82
loop_
_atom_site_label
_atom_site_type_symbol
_atom_site_fract_x
_atom_site_fract_y
_atom_site_fract_z
Er1 Er 0.75038(3) 1.01976(2) 0.49909(2)
C1 C 1.0886(6) 0.9084(5) 0.3162(5)
C2 C 1.0592(6) 0.8492(5) 0.2125(5)
C3 C 1.0462(7) 0.7187(5) 0.2290(5)
H1 H 1.0648 0.6701 0.2989
C4 C 1.0063(8) 0.6587(6) 0.1445(6)
H2 H 0.9993 0.5706 0.1574
C5 C 0.9762(7) 0.7295(5) 0.0395(5)
C6 C 0.9858(6) 0.8618(5) 0.0224(5)
C7 C 1.0309(6) 0.9219(5) 0.1071(5)
C8 C 0.9493(7) 0.6616(5) -0.0590(5)
C9 C 1.0575(6) 1.0620(5) 0.0819(5)
C10 C 0.6059(6) 1.0881(5) 0.2819(5)
C11 C 0.5924(6) 1.1465(5) 0.1544(5)
C12 C 0.6133(7) 1.2771(6) 0.1181(6)
H3 H 0.6456 1.3246 0.1676
C13 C 0.5475(6) 1.0767(5) 0.0772(5)
C14 C 0.5456(6) 0.9346(5) 0.1058(5)
C15 C 0.4841(6) 0.8616(5) 0.0311(5)
C16 C 0.4650(7) 0.7293(6) 0.0657(5)
C17 C 0.4136(7) 0.6621(6) -0.0081(6)
H4 H 0.3965 0.5745 0.0161
C18 C 0.4893(7) 0.6547(5) 0.1845(5)
O1 O 0.9755(5) 0.9482(4) 0.3954(4)
O2 O 1.2175(5) 0.9095(4) 0.3239(4)
O3 O 1.0542(5) 0.6543(4) -0.1567(4)
O4 O 0.8189(5) 0.6037(4) -0.0334(4)
O5 O 1.1235(5) 1.1119(4) 0.1401(4)
O6 O 0.7320(5) 1.0920(4) 0.2959(4)
O7 O 0.4867(5) 1.0446(4) 0.3708(4)
O8 O 0.6019(5) 0.8826(4) 0.1827(4)
O9 O 0.3843(5) 0.6438(4) 0.2868(4)
H5 H 0.3620 0.7172 0.3036
O10 O 0.6105(5) 0.5981(4) 0.1707(4)
O11 O 0.6905(5) 0.8337(4) 0.4246(4)
H6 H 0.7318 0.7615 0.4621
H7 H 0.7345 0.8460 0.3322
O12 O 0.7786(5) 0.8329(4) 0.6470(4)
H8 H 0.6975 0.7715 0.6619
H9 H 0.7737 0.8569 0.7274
O13 O 0.9166(5) 1.2056(4) 0.3989(4)
H10 H 0.9564 1.2094 0.3070
H11 H 0.9989 1.2021 0.4328
O14 O 0.6120(4) 1.2130(4) 0.5298(4)
H12 H 0.5090 1.1918 0.5856
H13 H 0.6125 1.2583 0.4478
C1A C 0.9114(6) 1.0916(5) -0.3162(5)
C2A C 0.9408(6) 1.1508(5) -0.2125(5)
C3A C 0.9538(7) 1.2813(5) -0.2290(5)
H1A H 0.9352 1.3299 -0.2989
C4A C 0.9937(8) 1.3413(6) -0.1445(6)
H2A H 1.0007 1.4294 -0.1574
C5A C 1.0238(7) 1.2705(5) -0.0395(5)
C6A C 1.0142(6) 1.1382(5) -0.0224(5)
C7A C 0.9691(6) 1.0781(5) -0.1071(5)
C8A C 1.0507(7) 1.3384(5) 0.0590(5)
C9A C 0.9425(6) 0.9380(5) -0.0819(5)
O1A O 1.0245(5) 1.0518(4) -0.3954(4)
O2A O 0.7825(5) 1.0905(4) -0.3239(4)
O3A O 0.9458(5) 1.3457(4) 0.1567(4)
O4A O 1.1811(5) 1.3963(4) 0.0334(4)
O5A O 0.8765(5) 0.8881(4) -0.1401(4)
C10A C 0.3941(6) 0.9119(5) -0.2819(5)
C11A C 0.4076(6) 0.8535(5) -0.1544(5)
C12A C 0.3867(7) 0.7229(6) -0.1181(6)
H3A H 0.3544 0.6754 -0.1676
C13A C 0.4525(6) 0.9233(5) -0.0772(5)
C14A C 0.4544(6) 1.0654(5) -0.1058(5)
C15A C 0.5159(6) 1.1384(5) -0.0311(5)
C16A C 0.5350(7) 1.2707(6) -0.0657(5)
C17A C 0.5864(7) 1.3379(6) 0.0081(6)
H4A H 0.6035 1.4255 -0.0161
C18A C 0.5107(7) 1.3453(5) -0.1845(5)
O6A O 0.2680(5) 0.9080(4) -0.2959(4)
O7A O 0.5133(5) 0.9554(4) -0.3708(4)
O8A O 0.3981(5) 1.1174(4) -0.1827(4)
O9A O 0.6157(5) 1.3562(4) -0.2868(4)
H5A H 0.6380 1.2828 -0.3036
O10A O 0.3895(5) 1.4019(4) -0.1707(4)
Er1A Er 0.24962(3) 0.98024(2) -0.49909(2)
O11A O 0.3095(5) 1.1663(4) -0.4246(4)
H6A H 0.2682 1.2385 -0.4621
H7A H 0.2655 1.1540 -0.3322
O12A O 0.2214(5) 1.1671(4) -0.6470(4)
H8A H 0.3025 1.2285 -0.6619
H9A H 0.2263 1.1431 -0.7274
O13A O 0.0834(5) 0.7944(4) -0.3989(4)
H10A H 0.0436 0.7906 -0.3070
H11A H 0.0011 0.7979 -0.4328
O14A O 0.3880(4) 0.7870(4) -0.5298(4)
H12A H 0.4910 0.8082 -0.5856
H13A H 0.3875 0.7417 -0.4478
Er1_2 Er 0.75038(3) 1.01976(2) -0.50091(2)
Er1A_2 Er 0.24962(3) 0.98024(2) 0.50091(2)
Er1A_3 Er 1.24962(3) 0.98024(2) -0.49909(2)
Er1A_4 Er 1.24962(3) 0.98024(2) 0.50091(2)
O1A_2 O 0.0245(5) 1.0518(4) -0.3954(4)
O2_2 O 0.2175(5) 0.9095(4) -0.6761(4)
O2A_2 O 0.7825(5) 1.0905(4) 0.6761(4)
O7_2 O 0.4867(5) 1.0446(4) -0.6292(4)
O7A_2 O 0.5133(5) 0.9554(4) 0.6292(4)
O15 O 0.6611(14) 0.4526(9) 0.3811(10)
H14 H 0.6309 0.5267 0.3705
H15 H 0.6992 0.4298 0.3059
O16 O 0.7388(14) 0.5927(10) 0.5700(16)
H16 H 0.7097 0.5654 0.6510
H17 H 0.6753 0.5621 0.5412
O17 O 0.942(2) 0.4416(15) 0.4678(15)
H18 H 1.0284 0.4159 0.4281
H19 H 0.8761 0.4165 0.4388
loop_
_geom_bond_atom_site_label_1
_geom_bond_atom_site_label_2
_geom_bond_site_symmetry_1
_geom_bond_site_symmetry_2
Er1 O1 1_555 1_555
C1 C2 1_555 1_555
C2 C3 1_555 1_555
C3 H1 1_555 1_555
C4 C3 1_555 1_555
H2 C4 1_555 1_555
C5 C4 1_555 1_555
C6 C5 1_555 1_555
C7 C2 1_555 1_555
C8 C5 1_555 1_555
C9 C7 1_555 1_555
C10 C11 1_555 1_555
C11 C12 1_555 1_555
C12 H3 1_555 1_555
C13 C11 1_555 1_555
C14 C13 1_555 1_555
C15 C14 1_555 1_555
C16 C15 1_555 1_555
C17 C16 1_555 1_555
H4 C17 1_555 1_555
C18 C16 1_555 1_555
O1 C1 1_555 1_555
O2 C1 1_555 1_555
O3 C8 1_555 1_555
O4 C8 1_555 1_555
O5 C9 1_555 1_555
O6 Er1 1_555 1_555
O7 C10 1_555 1_555
O8 C14 1_555 1_555
O9 C18 1_555 1_555
H5 O9 1_555 1_555
O10 C18 1_555 1_555
O11 Er1 1_555 1_555
H6 O11 1_555 1_555
H7 O11 1_555 1_555
O12 Er1 1_555 1_555
H8 O12 1_555 1_555
H9 O12 1_555 1_555
O13 Er1 1_555 1_555
H10 O13 1_555 1_555
H11 O13 1_555 1_555
O14 Er1 1_555 1_555
H12 O14 1_555 1_555
H13 O14 1_555 1_555
O15 H14 1_555 1_555
H15 O15 1_555 1_555
O16 H16 1_555 1_555
H17 O16 1_555 1_555
O17 H18 1_555 1_555
H19 O17 1_555 1_555
C1A C2A 1_555 1_555
C2A C3A 1_555 1_555
C3A H1A 1_555 1_555
C4A C3A 1_555 1_555
H2A C4A 1_555 1_555
C5A C4A 1_555 1_555
C6A C9 1_555 1_555
C7A C2A 1_555 1_555
C8A C5A 1_555 1_555
C9A C6 1_555 1_555
O1A C1A 1_555 1_555
O2A C1A 1_555 1_555
O3A C8A 1_555 1_555
O4A C8A 1_555 1_555
O5A C9A 1_555 1_555
C10A C11A 1_555 1_555
C11A C12A 1_555 1_555
C12A C17 1_555 1_555
H3A C12A 1_555 1_555
C13A C15 1_555 1_555
C14A C13A 1_555 1_555
C15A C13 1_555 1_555
C16A C15A 1_555 1_555
C17A C12 1_555 1_555
H4A C17A 1_555 1_555
C18A C16A 1_555 1_555
O6A C10A 1_555 1_555
O7A C10A 1_555 1_555
O8A C14A 1_555 1_555
O9A C18A 1_555 1_555
H5A O9A 1_555 1_555
O10A C18A 1_555 1_555
Er1A O6A 1_555 1_555
O11A Er1A 1_555 1_555
H6A O11A 1_555 1_555
H7A O11A 1_555 1_555
O12A Er1A 1_555 1_555
H8A O12A 1_555 1_555
H9A O12A 1_555 1_555
O13A Er1A 1_555 1_555
H10A O13A 1_555 1_555
H11A O13A 1_555 1_555
O14A Er1A 1_555 1_555
H12A O14A 1_555 1_555
H13A O14A 1_555 1_555
Er1_2 O2A 1_555 1_555
Er1A_2 O7 1_555 1_555
Er1A_3 O1A 1_555 1_555
Er1A_4 O2 1_555 1_555
O1A_2 Er1A 1_555 1_555
O2_2 Er1A 1_555 1_555
O2A_2 Er1 1_555 1_555
O7_2 Er1A 1_555 1_555
O7A_2 Er1 1_555 1_555
C6 C7 1_555 1_555
C10 O6 1_555 1_555
C5A C6A 1_555 1_555
C6A C7A 1_555 1_555
C7A C9A 1_555 1_555
C11A C13A 1_555 1_555
C14A C15A 1_555 1_555
C16A C17A 1_555 1_555
O7A Er1_2 1_555 1_555

#END
