
#######################################################################
#
#                 Cambridge Crystallographic Data Centre
#                                CCDC 
#
#######################################################################
#
# If this CIF has been generated from an entry in the Cambridge 
# Structural Database, then it will include bibliographic, chemical, 
# crystal, experimental, refinement or atomic coordinate data resulting 
# from the CCDC's data processing and validation procedures.
#
#######################################################################

data_PEYTUK
_symmetry_cell_setting           triclinic
_symmetry_space_group_name_H-M   'P -1'
_symmetry_Int_Tables_number      2
_space_group_name_Hall           '-P 1'
loop_
_symmetry_equiv_pos_site_id
_symmetry_equiv_pos_as_xyz
1 x,y,z
2 -x,-y,-z
_cell_length_a                   9.3116(18)
_cell_length_b                   10.7419(12)
_cell_length_c                   11.2139(11)
_cell_angle_alpha                80.505(2)
_cell_angle_beta                 71.068(3)
_cell_angle_gamma                89.866(2)
_cell_volume                     1044.87
loop_
_atom_site_label
_atom_site_type_symbol
_atom_site_fract_x
_atom_site_fract_y
_atom_site_fract_z
Eu1 Eu 0.74978(5) 1.01874(4) 0.49882(4)
C1 C 1.0993(9) 0.9091(7) 0.3095(8)
C2 C 1.0611(9) 0.8489(7) 0.2100(7)
C3 C 1.0478(10) 0.7178(7) 0.2268(8)
H1 H 1.0674 0.6689 0.2958
C4 C 1.0052(9) 0.6598(8) 0.1405(8)
H2 H 0.9962 0.5721 0.1518
C5 C 0.9758(9) 0.7329(7) 0.0374(7)
C6 C 0.9892(10) 0.8640(7) 0.0206(8)
C7 C 1.0318(9) 0.9220(7) 0.1069(7)
C8 C 0.9455(9) 0.6614(7) -0.0584(8)
C9 C 1.0563(9) 1.0610(7) 0.0830(7)
C10 C 0.6148(9) 1.0883(7) 0.2765(8)
C11 C 0.5897(8) 1.1430(7) 0.1522(7)
C12 C 0.6152(11) 1.2739(8) 0.1195(8)
H3 H 0.6491 1.3200 0.1695
C13 C 0.5517(10) 1.0705(8) 0.0738(8)
C14 C 0.5418(10) 0.9390(8) 0.0989(8)
C15 C 0.4856(10) 0.8666(8) 0.0302(9)
C16 C 0.4634(8) 0.7360(7) 0.0658(7)
C17 C 0.4119(10) 0.6668(8) -0.0090(7)
H4 H 0.3954 0.5796 0.0153
C18 C 0.4893(10) 0.6595(9) 0.1810(7)
O1 O 0.9859(6) 0.9479(5) 0.3979(5)
O2 O 1.2291(6) 0.9127(5) 0.3153(5)
O3 O 1.0539(7) 0.6524(5) -0.1576(5)
O4 O 0.8193(7) 0.6023(5) -0.0368(5)
O5 O 1.1227(6) 1.1100(5) 0.1391(6)
O6 O 0.7399(6) 1.0870(6) 0.2904(6)
O7 O 0.4957(6) 1.0450(5) 0.3704(5)
O8 O 0.6014(7) 0.8864(5) 0.1825(6)
O9 O 0.3819(7) 0.6428(6) 0.2851(5)
H5 H 0.3596 0.7162 0.3019
O10 O 0.6086(6) 0.5986(5) 0.1717(5)
O11 O 0.6933(6) 0.8302(5) 0.4198(6)
H6 H 0.7346 0.7580 0.4573
H7 H 0.7373 0.8425 0.3273
O12 O 0.7742(6) 0.8311(5) 0.6490(5)
H8 H 0.6931 0.7696 0.6639
H9 H 0.7694 0.8550 0.7295
O13 O 0.9163(6) 1.2077(5) 0.4007(5)
H10 H 0.9561 1.2114 0.3088
H11 H 0.9986 1.2042 0.4345
O14 O 0.6121(7) 1.2155(6) 0.5310(6)
H12 H 0.5091 1.1944 0.5868
H13 H 0.6126 1.2609 0.4489
C1A C 0.9007(9) 1.0909(7) -0.3095(8)
C2A C 0.9389(9) 1.1511(7) -0.2100(7)
C3A C 0.9522(10) 1.2822(7) -0.2268(8)
H1A H 0.9326 1.3311 -0.2958
C4A C 0.9948(9) 1.3402(8) -0.1405(8)
H2A H 1.0038 1.4279 -0.1518
C5A C 1.0242(9) 1.2671(7) -0.0374(7)
C6A C 1.0108(10) 1.1360(7) -0.0206(8)
C7A C 0.9682(9) 1.0780(7) -0.1069(7)
C8A C 1.0545(9) 1.3386(7) 0.0584(8)
C9A C 0.9437(9) 0.9390(7) -0.0830(7)
O1A O 1.0141(6) 1.0521(5) -0.3979(5)
O2A O 0.7709(6) 1.0873(5) -0.3153(5)
O3A O 0.9461(7) 1.3476(5) 0.1576(5)
O4A O 1.1807(7) 1.3977(5) 0.0368(5)
O5A O 0.8773(6) 0.8900(5) -0.1391(6)
C10A C 0.3852(9) 0.9117(7) -0.2765(8)
C11A C 0.4103(8) 0.8570(7) -0.1522(7)
C12A C 0.3848(11) 0.7261(8) -0.1195(8)
H3A H 0.3509 0.6800 -0.1695
C13A C 0.4483(10) 0.9295(8) -0.0738(8)
C14A C 0.4582(10) 1.0610(8) -0.0989(8)
C15A C 0.5144(10) 1.1334(8) -0.0302(9)
C16A C 0.5366(8) 1.2640(7) -0.0658(7)
C17A C 0.5881(10) 1.3332(8) 0.0090(7)
H4A H 0.6046 1.4204 -0.0153
C18A C 0.5107(10) 1.3405(9) -0.1810(7)
O6A O 0.2601(6) 0.9130(6) -0.2904(6)
O7A O 0.5043(6) 0.9550(5) -0.3704(5)
O8A O 0.3986(7) 1.1136(5) -0.1825(6)
O9A O 0.6181(7) 1.3572(6) -0.2851(5)
H5A H 0.6404 1.2838 -0.3019
O10A O 0.3914(6) 1.4014(5) -0.1717(5)
Eu1A Eu 0.25022(5) 0.98126(4) -0.49882(4)
O11A O 0.3067(6) 1.1698(5) -0.4198(6)
H6A H 0.2654 1.2420 -0.4573
H7A H 0.2627 1.1575 -0.3273
O12A O 0.2258(6) 1.1689(5) -0.6490(5)
H8A H 0.3069 1.2304 -0.6639
H9A H 0.2306 1.1450 -0.7295
O13A O 0.0837(6) 0.7923(5) -0.4007(5)
H10A H 0.0439 0.7886 -0.3088
H11A H 0.0014 0.7958 -0.4345
O14A O 0.3879(7) 0.7845(6) -0.5310(6)
H12A H 0.4909 0.8056 -0.5868
H13A H 0.3874 0.7391 -0.4489
Eu1_2 Eu 0.74978(5) 1.01874(4) -0.50118(4)
Eu1A_2 Eu 0.25022(5) 0.98126(4) 0.50118(4)
Eu1A_3 Eu 1.25022(5) 0.98126(4) -0.49882(4)
Eu1A_4 Eu 1.25022(5) 0.98126(4) 0.50118(4)
O1A_2 O 0.0141(6) 1.0521(5) -0.3979(5)
O2_2 O 0.2291(6) 0.9127(5) -0.6847(5)
O2A_2 O 0.7709(6) 1.0873(5) 0.6847(5)
O7_2 O 0.4957(6) 1.0450(5) -0.6296(5)
O7A_2 O 0.5043(6) 0.9550(5) 0.6296(5)
O15 O 0.6727(14) 0.4526(9) 0.3722(10)
H14 H 0.7327 0.5154 0.3631
H15 H 0.6068 0.4755 0.3369
O16 O 0.7378(12) 0.5883(11) 0.5655(11)
H16 H 0.7204 0.5513 0.5098
H17 H 0.6842 0.5517 0.6399
loop_
_geom_bond_atom_site_label_1
_geom_bond_atom_site_label_2
_geom_bond_site_symmetry_1
_geom_bond_site_symmetry_2
Eu1 O1 1_555 1_555
C1 C2 1_555 1_555
C2 C3 1_555 1_555
C3 H1 1_555 1_555
C4 C3 1_555 1_555
H2 C4 1_555 1_555
C5 C4 1_555 1_555
C6 C5 1_555 1_555
C7 C2 1_555 1_555
C8 C5 1_555 1_555
C9 C7 1_555 1_555
C10 C11 1_555 1_555
C11 C12 1_555 1_555
C12 H3 1_555 1_555
C13 C11 1_555 1_555
C14 C13 1_555 1_555
C15 C14 1_555 1_555
C16 C15 1_555 1_555
C17 C16 1_555 1_555
H4 C17 1_555 1_555
C18 C16 1_555 1_555
O1 C1 1_555 1_555
O2 C1 1_555 1_555
O3 C8 1_555 1_555
O4 C8 1_555 1_555
O5 C9 1_555 1_555
O6 Eu1 1_555 1_555
O7 C10 1_555 1_555
O8 C14 1_555 1_555
O9 C18 1_555 1_555
H5 O9 1_555 1_555
O10 C18 1_555 1_555
O11 Eu1 1_555 1_555
H6 O11 1_555 1_555
H7 O11 1_555 1_555
O12 Eu1 1_555 1_555
H8 O12 1_555 1_555
H9 O12 1_555 1_555
O13 Eu1 1_555 1_555
H10 O13 1_555 1_555
H11 O13 1_555 1_555
O14 Eu1 1_555 1_555
H12 O14 1_555 1_555
H13 O14 1_555 1_555
O15 H14 1_555 1_555
H15 O15 1_555 1_555
O16 H16 1_555 1_555
H17 O16 1_555 1_555
C1A C2A 1_555 1_555
C2A C3A 1_555 1_555
C3A H1A 1_555 1_555
C4A C3A 1_555 1_555
H2A C4A 1_555 1_555
C5A C4A 1_555 1_555
C6A C9 1_555 1_555
C7A C2A 1_555 1_555
C8A C5A 1_555 1_555
C9A C6 1_555 1_555
O1A C1A 1_555 1_555
O2A C1A 1_555 1_555
O3A C8A 1_555 1_555
O4A C8A 1_555 1_555
O5A C9A 1_555 1_555
C10A C11A 1_555 1_555
C11A C12A 1_555 1_555
C12A C17 1_555 1_555
H3A C12A 1_555 1_555
C13A C15 1_555 1_555
C14A C13A 1_555 1_555
C15A C13 1_555 1_555
C16A C15A 1_555 1_555
C17A C12 1_555 1_555
H4A C17A 1_555 1_555
C18A C16A 1_555 1_555
O6A C10A 1_555 1_555
O7A C10A 1_555 1_555
O8A C14A 1_555 1_555
O9A C18A 1_555 1_555
H5A O9A 1_555 1_555
O10A C18A 1_555 1_555
Eu1A O6A 1_555 1_555
O11A Eu1A 1_555 1_555
H6A O11A 1_555 1_555
H7A O11A 1_555 1_555
O12A Eu1A 1_555 1_555
H8A O12A 1_555 1_555
H9A O12A 1_555 1_555
O13A Eu1A 1_555 1_555
H10A O13A 1_555 1_555
H11A O13A 1_555 1_555
O14A Eu1A 1_555 1_555
H12A O14A 1_555 1_555
H13A O14A 1_555 1_555
Eu1_2 O2A 1_555 1_555
Eu1A_2 O7 1_555 1_555
Eu1A_3 O1A 1_555 1_555
Eu1A_4 O2 1_555 1_555
O1A_2 Eu1A 1_555 1_555
O2_2 Eu1A 1_555 1_555
O2A_2 Eu1 1_555 1_555
O7_2 Eu1A 1_555 1_555
O7A_2 Eu1 1_555 1_555
C6 C7 1_555 1_555
C10 O6 1_555 1_555
C5A C6A 1_555 1_555
C6A C7A 1_555 1_555
C7A C9A 1_555 1_555
C11A C13A 1_555 1_555
C14A C15A 1_555 1_555
C16A C17A 1_555 1_555
O7A Eu1_2 1_555 1_555

#END
