
#######################################################################
#
#                 Cambridge Crystallographic Data Centre
#                                CCDC 
#
#######################################################################
#
# If this CIF has been generated from an entry in the Cambridge 
# Structural Database, then it will include bibliographic, chemical, 
# crystal, experimental, refinement or atomic coordinate data resulting 
# from the CCDC's data processing and validation procedures.
#
#######################################################################

data_PEZDOP
_symmetry_cell_setting           triclinic
_symmetry_space_group_name_H-M   'P -1'
_symmetry_Int_Tables_number      2
_space_group_name_Hall           '-P 1'
loop_
_symmetry_equiv_pos_site_id
_symmetry_equiv_pos_as_xyz
1 x,y,z
2 -x,-y,-z
_cell_length_a                   13.5502(9)
_cell_length_b                   14.0542(10)
_cell_length_c                   17.5014(12)
_cell_angle_alpha                71.3250(10)
_cell_angle_beta                 84.8610(10)
_cell_angle_gamma                68.1760(10)
_cell_volume                     2929.5
loop_
_atom_site_label
_atom_site_type_symbol
_atom_site_fract_x
_atom_site_fract_y
_atom_site_fract_z
Cu1 Cu 0.23518(3) -0.05571(3) 0.47209(2)
F1 F 0.1558(2) -0.4582(2) 0.65674(16)
F2 F 0.2640(2) -0.5133(2) 0.56840(18)
F3 F 0.0946(2) -0.4709(2) 0.55227(18)
F4 F 0.1852(2) 0.4268(2) 0.4317(2)
F5 F 0.2873(2) 0.3956(2) 0.33401(15)
F6 F 0.3438(2) 0.3109(2) 0.45615(19)
N1 N 0.2186(2) 0.1025(2) 0.43506(18)
N2 N 0.2750(2) 0.1597(3) 0.44521(18)
N3 N 0.0953(2) 0.0133(3) 0.41219(18)
N4 N 0.2250(3) -0.2873(3) 0.5421(2)
N5 N 0.1872(2) -0.1831(2) 0.49740(19)
N6 N 0.3493(2) -0.1143(2) 0.55976(18)
N7 N 0.3493(2) -0.1063(2) 0.37873(18)
C1 C 0.2181(3) 0.2629(3) 0.4081(2)
C2 C 0.1232(3) 0.2767(3) 0.3724(2)
H1 H 0.0694 0.3415 0.3427
C3 C 0.1279(3) 0.1711(3) 0.3915(2)
C4 C 0.0556(3) 0.1213(3) 0.3772(2)
C5 C -0.0411(3) 0.1715(3) 0.3345(2)
H2 H -0.0686 0.2473 0.3090
C6 C -0.0966(3) 0.1074(3) 0.3300(2)
H3 H -0.1628 0.1399 0.3008
C7 C -0.0563(3) -0.0038(3) 0.3679(2)
H4 H -0.0941 -0.0476 0.3651
C8 C 0.0413(3) -0.0487(3) 0.4099(2)
C9 C 0.0949(3) -0.1599(3) 0.4578(2)
C10 C 0.0703(3) -0.2528(3) 0.4781(2)
H5 H 0.0110 -0.2617 0.4604
C11 C 0.1538(3) -0.3289(3) 0.5307(2)
C12 C 0.1676(3) -0.4418(3) 0.5765(3)
C13 C 0.2580(3) 0.3491(3) 0.4072(2)
C14 C 0.3166(3) -0.0703(3) 0.3007(2)
H6 H 0.2465 -0.0191 0.2861
C15 C 0.3797(3) -0.1038(4) 0.2406(2)
H7 H 0.3529 -0.0764 0.1864
C16 C 0.4831(3) -0.1786(3) 0.2606(2)
C17 C 0.5160(3) -0.2156(3) 0.3409(2)
H8 H 0.5856 -0.2669 0.3574
C18 C 0.4472(3) -0.1779(3) 0.3973(2)
H9 H 0.4717 -0.2048 0.4521
C19 C 0.4052(3) -0.0541(3) 0.5659(2)
H10 H 0.3932 0.0139 0.5262
C20 C 0.4789(3) -0.0886(3) 0.6282(2)
H11 H 0.5155 -0.0439 0.6313
C21 C 0.4993(3) -0.1884(3) 0.6863(2)
C22 C 0.4459(3) -0.2521(3) 0.6768(2)
H12 H 0.4601 -0.3224 0.7136
C23 C 0.3726(3) -0.2131(3) 0.6141(2)
H13 H 0.3370 -0.2577 0.6089
Cu2 Cu 0.80239(4) -0.34907(4) -0.01084(3)
F7 F 0.7287(5) -0.7986(4) 0.1491(3)
F8 F 0.7695(3) -0.7902(4) 0.0281(4)
F9 F 0.6242(3) -0.6852(3) 0.0519(2)
F10 F 0.8125(4) 0.0937(3) -0.1097(3)
F11 F 0.9039(4) 0.0346(3) -0.2005(2)
F12 F 0.9842(3) 0.0368(4) -0.0997(2)
N8 N 0.8643(3) -0.2332(3) -0.0390(2)
N9 N 0.8388(3) -0.1328(4) -0.0908(2)
N10 N 0.9295(3) -0.4218(3) 0.0632(2)
N11 N 0.7389(3) -0.5515(3) 0.0231(2)
N12 N 0.8010(3) -0.5019(3) 0.0339(2)
N13 N 0.7053(2) -0.2929(3) 0.89219(18)
N14 N 0.6893(3) -0.2901(3) 0.0809(2)
C24 C 0.9081(4) -0.0937(5) -0.0725(3)
C25 C 0.9776(4) -0.1670(5) -0.0096(3)
H14 H 1.0328 -0.1586 0.0143
C26 C 0.9476(3) -0.2562(4) 0.0104(3)
C27 C 0.9874(3) -0.3653(4) 0.0671(3)
C28 C 1.0762(4) -0.4133(5) 0.1215(3)
H15 H 1.1189 -0.3747 0.1257
C29 C 1.0978(4) -0.5195(5) 0.1684(3)
H16 H 1.1564 -0.5536 0.2060
C30 C 1.0389(4) -0.5768(5) 0.1629(3)
H17 H 1.0563 -0.6499 0.1952
C31 C 0.9511(4) -0.5252(4) 0.1080(2)
C32 C 0.8777(3) -0.5703(4) 0.0912(2)
C33 C 0.8660(4) -0.6692(4) 0.1189(3)
H18 H 0.9082 -0.7326 0.1587
C34 C 0.7782(4) -0.6543(4) 0.0748(3)
C35 C 0.7278(5) -0.7312(4) 0.0749(4)
C36 C 0.9022(5) 0.0162(5) -0.1196(4)
C37 C 0.7271(3) -0.2899(4) 0.1482(2)
H19 H 0.8020 -0.3156 0.1562
C38 C 0.6637(3) -0.2546(4) 0.2072(3)
H20 H 0.6954 -0.2562 0.2540
C39 C 0.5538(3) -0.2167(3) 0.1984(2)
C40 C 0.5142(4) -0.2229(4) 0.1300(3)
H21 H 0.4398 -0.2023 0.1219
C41 C 0.5843(4) -0.2593(5) 0.0740(3)
H22 H 0.5555 -0.2625 0.0278
C42 C 0.7166(3) -0.2204(3) 0.8238(2)
H23 H 0.7703 -0.1916 0.8222
C43 C 0.6529(3) -0.1857(3) 0.7550(2)
H24 H 0.6638 -0.1350 0.7073
C44 C 0.5726(3) -0.2259(3) 0.7567(2)
C45 C 0.5616(3) -0.3013(3) 0.8269(2)
H25 H 0.5082 -0.3308 0.8297
C46 C 0.6289(3) -0.3342(3) 0.8936(2)
H26 H 0.6211 -0.3868 0.9414
Cu2_2 Cu 0.80239(4) -0.34907(4) 0.98916(3)
N13_2 N 0.7053(2) -0.2929(3) -0.10781(18)
C47 C 0.8407(3) -0.2456(4) 0.3638(2)
H27 H 0.8484 -0.3005 0.4140
C48 C 0.7545(4) -0.1490(4) 0.3490(3)
H28 H 0.7035 -0.1385 0.3894
C49 C 0.7419(4) -0.0684(4) 0.2769(3)
H29 H 0.6818 -0.0031 0.2669
C50 C 0.8182(5) -0.0833(4) 0.2183(3)
H30 H 0.8117 -0.0271 0.1690
C51 C 0.9033(4) -0.1804(4) 0.2323(3)
H31 H 0.9535 -0.1910 0.1915
C52 C 0.9163(4) -0.2623(4) 0.3051(3)
C53 C 1.0111(5) -0.3641(4) 0.3212(4)
H32 H 1.0069 -0.4126 0.3749
H33 H 1.0758 -0.3478 0.3189
H34 H 1.0131 -0.3990 0.2805
C54 C 0.5491(8) 0.5187(6) -0.7064(5)
H35 H 0.5941 0.5020 -0.6616
C55 C 0.5933(6) 0.4999(6) -0.7770(7)
H36 H 0.6685 0.4719 -0.7809
C56 C 0.5298(7) 0.5213(6) -0.8408(6)
H37 H 0.5604 0.5061 -0.8885
C57 C 0.4232(7) 0.5640(6) -0.8364(4)
H38 H 0.3784 0.5797 -0.8810
C58 C 0.3810(5) 0.5842(5) -0.7678(4)
H39 H 0.3058 0.6159 -0.7664
C59 C 0.4392(7) 0.5620(6) -0.7003(4)
C60 C 0.3847(14) 0.5861(11) -0.6268(6)
H40 H 0.3075 0.6172 -0.6371
H41 H 0.4079 0.6376 -0.6139
H42 H 0.4030 0.5193 -0.5813
N15 N 0.5294(11) 0.0571(8) 0.1158(7)
C61 C 0.6740(14) -0.0184(11) 0.0281(8)
C62 C 0.5887(11) 0.0279(11) 0.0766(9)
C63? C 0.6041(16) -0.0256(16) 0.0027(14)
C64? C 0.5263(14) 0.0257(11) 0.0560(11)
N16? N 0.4252(11) 0.0441(10) 0.0525(13)
loop_
_geom_bond_atom_site_label_1
_geom_bond_atom_site_label_2
_geom_bond_site_symmetry_1
_geom_bond_site_symmetry_2
Cu1 N1 1_555 1_555
F1 C12 1_555 1_555
F2 C12 1_555 1_555
F3 C12 1_555 1_555
F4 C13 1_555 1_555
F5 C13 1_555 1_555
F6 C13 1_555 1_555
N1 N2 1_555 1_555
N2 C1 1_555 1_555
N3 Cu1 1_555 1_555
N4 N5 1_555 1_555
N5 Cu1 1_555 1_555
N6 Cu1 1_555 1_555
N7 Cu1 1_555 1_555
C1 C2 1_555 1_555
C2 H1 1_555 1_555
C3 N1 1_555 1_555
C4 N3 1_555 1_555
C5 C4 1_555 1_555
H2 C5 1_555 1_555
C6 C5 1_555 1_555
H3 C6 1_555 1_555
C7 C6 1_555 1_555
H4 C7 1_555 1_555
C8 N3 1_555 1_555
C9 N5 1_555 1_555
C10 C9 1_555 1_555
H5 C10 1_555 1_555
C11 N4 1_555 1_555
C12 C11 1_555 1_555
C13 C1 1_555 1_555
C14 N7 1_555 1_555
H6 C14 1_555 1_555
C15 C14 1_555 1_555
H7 C15 1_555 1_555
C16 C15 1_555 1_555
C17 C16 1_555 1_555
H8 C17 1_555 1_555
C18 N7 1_555 1_555
H9 C18 1_555 1_555
C19 N6 1_555 1_555
H10 C19 1_555 1_555
C20 C19 1_555 1_555
H11 C20 1_555 1_555
C21 C20 1_555 1_555
C22 C21 1_555 1_555
H12 C22 1_555 1_555
C23 N6 1_555 1_555
H13 C23 1_555 1_555
Cu2 N8 1_555 1_555
F7 C35 1_555 1_555
F8 C35 1_555 1_555
F9 C35 1_555 1_555
F10 C36 1_555 1_555
F11 C36 1_555 1_555
F12 C36 1_555 1_555
N8 N9 1_555 1_555
N9 C24 1_555 1_555
N10 Cu2 1_555 1_555
N11 N12 1_555 1_555
N12 Cu2 1_555 1_555
N13 C42 1_555 1_555
N14 Cu2 1_555 1_555
C24 C25 1_555 1_555
C25 H14 1_555 1_555
C26 N8 1_555 1_555
C27 N10 1_555 1_555
C28 C27 1_555 1_555
H15 C28 1_555 1_555
C29 C28 1_555 1_555
H16 C29 1_555 1_555
C30 C29 1_555 1_555
H17 C30 1_555 1_555
C31 N10 1_555 1_555
C32 N12 1_555 1_555
C33 C32 1_555 1_555
H18 C33 1_555 1_555
C34 N11 1_555 1_555
C35 C34 1_555 1_555
C36 C24 1_555 1_555
C37 N14 1_555 1_555
H19 C37 1_555 1_555
C38 C37 1_555 1_555
H20 C38 1_555 1_555
C39 C16 1_555 1_555
C40 C39 1_555 1_555
H21 C40 1_555 1_555
C41 N14 1_555 1_555
H22 C41 1_555 1_555
C42 H23 1_555 1_555
C43 C42 1_555 1_555
H24 C43 1_555 1_555
C44 C21 1_555 1_555
C45 C44 1_555 1_555
H25 C45 1_555 1_555
C46 N13 1_555 1_555
H26 C46 1_555 1_555
C47 H27 1_555 1_555
C48 C47 1_555 1_555
H28 C48 1_555 1_555
C49 C48 1_555 1_555
H29 C49 1_555 1_555
C50 C49 1_555 1_555
H30 C50 1_555 1_555
C51 C50 1_555 1_555
H31 C51 1_555 1_555
C52 C47 1_555 1_555
C53 C52 1_555 1_555
H32 C53 1_555 1_555
H33 C53 1_555 1_555
H34 C53 1_555 1_555
C54 H35 1_555 1_555
C55 C54 1_555 1_555
H36 C55 1_555 1_555
C56 C55 1_555 1_555
H37 C56 1_555 1_555
C57 C56 1_555 1_555
H38 C57 1_555 1_555
C58 C57 1_555 1_555
H39 C58 1_555 1_555
C59 C54 1_555 1_555
C60 C59 1_555 1_555
H40 C60 1_555 1_555
H41 C60 1_555 1_555
H42 C60 1_555 1_555
N15 C62 1_555 1_555
C61 C62 1_555 1_555
Cu2_2 N13 1_555 1_555
N13_2 Cu2 1_555 1_555
C2 C3 1_555 1_555
C3 C4 1_555 1_555
C7 C8 1_555 1_555
C8 C9 1_555 1_555
C10 C11 1_555 1_555
C17 C18 1_555 1_555
C22 C23 1_555 1_555
C25 C26 1_555 1_555
C26 C27 1_555 1_555
C30 C31 1_555 1_555
C31 C32 1_555 1_555
C33 C34 1_555 1_555
C38 C39 1_555 1_555
C40 C41 1_555 1_555
C43 C44 1_555 1_555
C45 C46 1_555 1_555
C51 C52 1_555 1_555
C58 C59 1_555 1_555

#END
