
#######################################################################
#
#                 Cambridge Crystallographic Data Centre
#                                CCDC 
#
#######################################################################
#
# If this CIF has been generated from an entry in the Cambridge 
# Structural Database, then it will include bibliographic, chemical, 
# crystal, experimental, refinement or atomic coordinate data resulting 
# from the CCDC's data processing and validation procedures.
#
#######################################################################

data_PEZRUJ01
_symmetry_cell_setting           monoclinic
_symmetry_space_group_name_H-M   'C c'
_symmetry_Int_Tables_number      9
_space_group_name_Hall           'C -2yc'
loop_
_symmetry_equiv_pos_site_id
_symmetry_equiv_pos_as_xyz
1 x,y,z
2 x,-y,1/2+z
3 1/2+x,1/2+y,z
4 1/2+x,1/2-y,1/2+z
_cell_length_a                   5.2134(2)
_cell_length_b                   20.2002(9)
_cell_length_c                   10.5111(8)
_cell_angle_alpha                90
_cell_angle_beta                 101.1050(10)
_cell_angle_gamma                90
_cell_volume                     1086.22
loop_
_atom_site_label
_atom_site_type_symbol
_atom_site_fract_x
_atom_site_fract_y
_atom_site_fract_z
Ag1 Ag 1.07519(6) 0.910086(14) 0.94459(4)
Ag2 Ag 1.69027(3) 0.772235(15) 1.09620(3)
C1 C 1.1778(7) 0.7534(2) 0.9307(4)
C2 C 0.9206(7) 0.77082(17) 0.8481(3)
C3 C 0.7230(8) 0.73170(18) 0.7771(4)
C4 C 0.6943(8) 0.65901(19) 0.7606(4)
C5 C 0.6190(7) 0.83453(19) 0.7424(4)
C6 C 0.4881(7) 0.89393(19) 0.6809(4)
C7 C 0.6101(8) 0.9551(2) 0.6886(4)
H1 H 0.7746 0.9599 0.7409
C8 C 0.4940(9) 1.0089(2) 0.6208(5)
H2 H 0.5818 1.0492 0.6284
C9 C 0.1342(8) 0.9465(2) 0.5370(5)
H3 H -0.0299 0.9431 0.4838
C10 C 0.2365(8) 0.8910(2) 0.6042(5)
H4 H 0.1400 0.8520 0.5989
N1 N 0.8515(6) 0.83595(15) 0.8257(3)
N2 N 0.5359(6) 0.77221(15) 0.7113(3)
N3 N 0.2551(7) 1.00467(17) 0.5434(3)
O1 O 1.3181(5) 0.80074(13) 0.9825(3)
O2 O 1.2437(6) 0.69353(14) 0.9429(3)
O3 O 0.8929(6) 0.62195(14) 0.8159(3)
H5 H 1.0062 0.6455 0.8584
O4 O 0.4968(6) 0.63448(15) 0.6959(3)
Ag1A Ag 0.07519(6) 1.089914(14) 0.44459(4)
Ag2C Ag 0.19027(3) 0.727765(15) 0.59620(3)
N2C N 2.0359(6) 0.72779(15) 1.2113(3)
N3A N 1.2551(7) 0.99533(17) 1.0434(3)
O4C O 1.9968(6) 0.86552(15) 1.1959(3)
loop_
_geom_bond_atom_site_label_1
_geom_bond_atom_site_label_2
_geom_bond_site_symmetry_1
_geom_bond_site_symmetry_2
Ag1 N1 1_555 1_555
Ag2 O1 1_555 1_555
C1 C2 1_555 1_555
C2 C3 1_555 1_555
C3 C4 1_555 1_555
C4 O3 1_555 1_555
C5 C6 1_555 1_555
C6 C7 1_555 1_555
C7 H1 1_555 1_555
C8 C7 1_555 1_555
H2 C8 1_555 1_555
C9 H3 1_555 1_555
C10 C6 1_555 1_555
H4 C10 1_555 1_555
N1 C2 1_555 1_555
N2 C3 1_555 1_555
N3 C8 1_555 1_555
O1 Ag1 1_555 1_555
O2 C1 1_555 1_555
O3 H5 1_555 1_555
O4 C4 1_555 1_555
Ag1A N3 1_555 1_555
Ag2C N2 1_555 1_555
N2C Ag2 1_555 1_555
N3A Ag1 1_555 1_555
O4C Ag2 1_555 1_555
C1 O1 1_555 1_555
C5 N1 1_555 1_555
C5 N2 1_555 1_555
C9 C10 1_555 1_555
C9 N3 1_555 1_555
O4 Ag2C 1_555 1_555

#END
