
#######################################################################
#
#                 Cambridge Crystallographic Data Centre
#                                CCDC 
#
#######################################################################
#
# If this CIF has been generated from an entry in the Cambridge 
# Structural Database, then it will include bibliographic, chemical, 
# crystal, experimental, refinement or atomic coordinate data resulting 
# from the CCDC's data processing and validation procedures.
#
#######################################################################

data_PEZRES
_symmetry_cell_setting           monoclinic
_symmetry_space_group_name_H-M   'P 21/c'
_symmetry_Int_Tables_number      14
_space_group_name_Hall           '-P 2ybc'
loop_
_symmetry_equiv_pos_site_id
_symmetry_equiv_pos_as_xyz
1 x,y,z
2 -x,1/2+y,1/2-z
3 -x,-y,-z
4 x,1/2-y,1/2+z
_cell_length_a                   13.275(3)
_cell_length_b                   9.3039(19)
_cell_length_c                   9.4844(19)
_cell_angle_alpha                90
_cell_angle_beta                 108.21(3)
_cell_angle_gamma                90
_cell_volume                     1112.74
loop_
_atom_site_label
_atom_site_type_symbol
_atom_site_fract_x
_atom_site_fract_y
_atom_site_fract_z
Cu1 Cu 0.700000(17) 0.66064(2) 0.49627(2)
O1 O 0.76483(11) 0.52368(14) 0.65231(14)
O2 O 0.75925(13) 0.29652(15) 0.72053(15)
O3 O 0.64843(11) 0.74383(14) 0.29904(13)
O4 O 0.57913(11) 0.68606(14) 0.06133(13)
O5 O 0.89043(15) 1.16496(16) 0.49340(18)
H1 H 0.854(2) 1.164(3) 0.4030(15)
N1 N 0.60537(12) 0.49192(15) 0.40058(14)
N2 N 0.80562(13) 0.81538(16) 0.58450(17)
C1 C 0.73333(15) 0.3936(2) 0.62799(19)
C2 C 0.66061(16) 0.35992(18) 0.4723(2)
H2 H 0.7020 0.3207 0.4133
H3 H 0.6088 0.2884 0.4777
C3 C 0.59409(15) 0.50091(19) 0.23937(18)
H4 H 0.5250 0.4647 0.1816
H5 H 0.6477 0.4414 0.2183
C4 C 0.60610(14) 0.65525(18) 0.19464(19)
C5 C 0.49846(14) 0.50779(18) 0.41914(17)
H6 H 0.4513 0.4355 0.3597
H7 H 0.4699 0.6015 0.3827
C6 C 0.86523(18) 0.8070(2) 0.7275(2)
H8 H 0.8610 0.7248 0.7813
C7 C 0.9325(2) 0.9163(3) 0.7971(2)
H9 H 0.9729 0.9077 0.8964
C8 C 0.9392(2) 1.0378(3) 0.7189(3)
H10 H 0.9832 1.1132 0.7653
C9 C 0.87979(17) 1.0475(2) 0.5697(2)
C10 C 0.81251(15) 0.9347(2) 0.50797(19)
H11 H 0.7703 0.9417 0.4094
Cu1B Cu 0.300000(17) 0.33936(2) 0.50373(2)
Cu1C Cu 0.700000(17) 0.83936(2) -0.00373(2)
Cu1A Cu 0.300000(17) 0.16064(2) 1.00373(2)
O1B O 0.23517(11) 0.47632(14) 0.34769(14)
O2B O 0.24075(13) 0.70348(15) 0.27947(15)
O3B O 0.35157(11) 0.25617(14) 0.70096(13)
O4B O 0.42087(11) 0.31394(14) 0.93867(13)
O4C O 0.57913(11) 0.81394(14) 0.56133(13)
O4A O 0.42087(11) 0.18606(14) 0.43867(13)
O5B O 0.10957(15) -0.16496(16) 0.50660(18)
H1B H 0.146(2) -0.164(3) 0.5970(15)
N1B N 0.39463(12) 0.50808(15) 0.59942(14)
N2B N 0.19438(13) 0.18462(16) 0.41550(17)
C1B C 0.26667(15) 0.6064(2) 0.37201(19)
C2B C 0.33939(16) 0.64008(18) 0.5277(2)
H2B H 0.2980 0.6793 0.5867
H3B H 0.3912 0.7116 0.5223
C3B C 0.40591(15) 0.49909(19) 0.76063(18)
H4B H 0.4750 0.5353 0.8184
H5B H 0.3523 0.5586 0.7817
C4B C 0.39390(14) 0.34475(18) 0.80536(19)
C5B C 0.50154(14) 0.49221(18) 0.58086(17)
H6B H 0.5487 0.5645 0.6403
H7B H 0.5301 0.3985 0.6173
C6B C 0.13477(18) 0.1930(2) 0.2725(2)
H8B H 0.1390 0.2752 0.2187
C7B C 0.0675(2) 0.0837(3) 0.2029(2)
H9B H 0.0271 0.0923 0.1036
C8B C 0.0608(2) -0.0378(3) 0.2811(3)
H10B H 0.0168 -0.1132 0.2347
C9B C 0.12021(17) -0.0475(2) 0.4303(2)
C10B C 0.18749(15) 0.0653(2) 0.49203(19)
H11B H 0.2297 0.0583 0.5906
loop_
_geom_bond_atom_site_label_1
_geom_bond_atom_site_label_2
_geom_bond_site_symmetry_1
_geom_bond_site_symmetry_2
Cu1 O1 1_555 1_555
O1 C1 1_555 1_555
O2 C1 1_555 1_555
O3 Cu1 1_555 1_555
O4 C4 1_555 1_555
O5 H1 1_555 1_555
N1 Cu1 1_555 1_555
N2 Cu1 1_555 1_555
C1 C2 1_555 1_555
C2 N1 1_555 1_555
H2 C2 1_555 1_555
H3 C2 1_555 1_555
C3 N1 1_555 1_555
H4 C3 1_555 1_555
H5 C3 1_555 1_555
C4 O3 1_555 1_555
C5 N1 1_555 1_555
H6 C5 1_555 1_555
H7 C5 1_555 1_555
C6 N2 1_555 1_555
H8 C6 1_555 1_555
C7 C6 1_555 1_555
H9 C7 1_555 1_555
C8 C7 1_555 1_555
H10 C8 1_555 1_555
C9 O5 1_555 1_555
C10 N2 1_555 1_555
H11 C10 1_555 1_555
Cu1B O1B 1_555 1_555
Cu1C O4 1_555 1_555
Cu1A O4B 1_555 1_555
O1B C1B 1_555 1_555
O2B C1B 1_555 1_555
O3B Cu1B 1_555 1_555
O4B C4B 1_555 1_555
O4C Cu1 1_555 1_555
O4A Cu1B 1_555 1_555
O5B H1B 1_555 1_555
N1B Cu1B 1_555 1_555
N2B Cu1B 1_555 1_555
C1B C2B 1_555 1_555
C2B N1B 1_555 1_555
H2B C2B 1_555 1_555
H3B C2B 1_555 1_555
C3B N1B 1_555 1_555
H4B C3B 1_555 1_555
H5B C3B 1_555 1_555
C4B O3B 1_555 1_555
C5B C5 1_555 1_555
H6B C5B 1_555 1_555
H7B C5B 1_555 1_555
C6B N2B 1_555 1_555
H8B C6B 1_555 1_555
C7B C6B 1_555 1_555
H9B C7B 1_555 1_555
C8B C7B 1_555 1_555
H10B C8B 1_555 1_555
C9B O5B 1_555 1_555
C10B N2B 1_555 1_555
H11B C10B 1_555 1_555
C3 C4 1_555 1_555
C8 C9 1_555 1_555
C9 C10 1_555 1_555
N1B C5B 1_555 1_555
C3B C4B 1_555 1_555
C8B C9B 1_555 1_555
C9B C10B 1_555 1_555

#END
