
#######################################################################
#
#                 Cambridge Crystallographic Data Centre
#                                CCDC 
#
#######################################################################
#
# If this CIF has been generated from an entry in the Cambridge 
# Structural Database, then it will include bibliographic, chemical, 
# crystal, experimental, refinement or atomic coordinate data resulting 
# from the CCDC's data processing and validation procedures.
#
#######################################################################

data_PEZROC
_symmetry_cell_setting           orthorhombic
_symmetry_space_group_name_H-M   'P b c a'
_symmetry_Int_Tables_number      61
_space_group_name_Hall           '-P 2ac 2ab'
loop_
_symmetry_equiv_pos_site_id
_symmetry_equiv_pos_as_xyz
1 x,y,z
2 1/2-x,-y,1/2+z
3 -x,1/2+y,1/2-z
4 1/2+x,1/2-y,-z
5 -x,-y,-z
6 1/2+x,y,1/2-z
7 x,1/2-y,1/2+z
8 1/2-x,1/2+y,z
_cell_length_a                   9.6659(19)
_cell_length_b                   7.6366(15)
_cell_length_c                   25.964(5)
_cell_angle_alpha                90
_cell_angle_beta                 90
_cell_angle_gamma                90
_cell_volume                     1916.52
loop_
_atom_site_label
_atom_site_type_symbol
_atom_site_fract_x
_atom_site_fract_y
_atom_site_fract_z
Cd1 Cd 0.656055(19) 0.43218(2) 0.061167(7)
O1 O 0.6617(2) 0.1257(3) 0.08287(8)
O2 O 0.6766(2) -0.1015(3) 0.13347(10)
O3 O 0.5234(2) 0.5969(3) 0.11831(8)
H1 H 0.4457 0.6202 0.1046
H2 H 0.5644 0.6930 0.1247
N1 N 0.2573(3) 0.1530(3) 0.05675(9)
N2 N 0.2641(3) 0.2049(3) 0.00768(9)
N3 N 0.3710(2) 0.3095(3) 0.00092(9)
N4 N 0.4371(2) 0.3253(3) 0.04568(9)
C1 C 0.6215(3) 0.0409(3) 0.12137(11)
C2 C 0.5067(3) 0.1119(4) 0.15453(11)
C3 C 0.5142(3) 0.0802(4) 0.20729(12)
H3 H 0.5876 0.0151 0.2203
C4 C 0.4155(4) 0.1433(5) 0.24055(12)
H4 H 0.4231 0.1224 0.2757
C5 C 0.3056(4) 0.2371(5) 0.22160(12)
H5 H 0.2390 0.2808 0.2440
C6 C 0.2935(3) 0.2668(4) 0.16923(12)
H6 H 0.2176 0.3283 0.1566
C7 C 0.3940(3) 0.2054(3) 0.13507(10)
C8 C 0.3661(3) 0.2273(3) 0.07943(11)
Cd1G Cd 0.843945(19) -0.06782(2) 0.061167(7)
Cd1C Cd 0.156055(19) 0.06782(2) -0.061167(7)
Cd1D Cd 0.343945(19) 0.56782(2) -0.061167(7)
O1G O 0.8383(2) 0.6257(3) 0.08287(8)
O2G O 0.8234(2) 0.3985(3) 0.13347(10)
N2C N 0.7641(3) 0.2951(3) -0.00768(9)
N3D N 0.6290(2) 0.6905(3) -0.00092(9)
loop_
_geom_bond_atom_site_label_1
_geom_bond_atom_site_label_2
_geom_bond_site_symmetry_1
_geom_bond_site_symmetry_2
Cd1 O1 1_555 1_555
O1 C1 1_555 1_555
O2 C1 1_555 1_555
O3 Cd1 1_555 1_555
H1 O3 1_555 1_555
H2 O3 1_555 1_555
N1 N2 1_555 1_555
N2 N3 1_555 1_555
N3 N4 1_555 1_555
N4 Cd1 1_555 1_555
C1 C2 1_555 1_555
C2 C3 1_555 1_555
C3 H3 1_555 1_555
C4 C3 1_555 1_555
H4 C4 1_555 1_555
C5 C4 1_555 1_555
H5 C5 1_555 1_555
C6 C5 1_555 1_555
H6 C6 1_555 1_555
C7 C2 1_555 1_555
C8 N1 1_555 1_555
Cd1G O1 1_555 1_555
Cd1C N2 1_555 1_555
Cd1D N3 1_555 1_555
O1G Cd1 1_555 1_555
O2G Cd1 1_555 1_555
N2C Cd1 1_555 1_555
N3D Cd1 1_555 1_555
O2 Cd1G 1_555 1_555
N4 C8 1_555 1_555
C6 C7 1_555 1_555
C7 C8 1_555 1_555

#END
