
#######################################################################
#
#                 Cambridge Crystallographic Data Centre
#                                CCDC 
#
#######################################################################
#
# If this CIF has been generated from an entry in the Cambridge 
# Structural Database, then it will include bibliographic, chemical, 
# crystal, experimental, refinement or atomic coordinate data resulting 
# from the CCDC's data processing and validation procedures.
#
#######################################################################

data_PEZRUJ02
_symmetry_cell_setting           monoclinic
_symmetry_space_group_name_H-M   'C c'
_symmetry_Int_Tables_number      9
_space_group_name_Hall           'C -2yc'
loop_
_symmetry_equiv_pos_site_id
_symmetry_equiv_pos_as_xyz
1 x,y,z
2 x,-y,1/2+z
3 1/2+x,1/2+y,z
4 1/2+x,1/2-y,1/2+z
_cell_length_a                   5.20810(10)
_cell_length_b                   20.1881(4)
_cell_length_c                   10.4953(2)
_cell_angle_alpha                90
_cell_angle_beta                 101.180(2)
_cell_angle_gamma                90
_cell_volume                     1082.55
loop_
_atom_site_label
_atom_site_type_symbol
_atom_site_fract_x
_atom_site_fract_y
_atom_site_fract_z
Ag1 Ag -0.05209(3) 0.227839(17) 0.54351(3)
Ag2 Ag 0.83255(7) 0.410164(17) 0.89174(4)
O1 O 0.2557(6) 0.13442(16) 0.6441(3)
O2 O 0.6532(6) 0.12257(16) 0.7637(3)
O3 O 1.0750(5) 0.30086(14) 0.9302(3)
O4 O 1.0014(6) 0.19380(16) 0.8902(3)
N1 N 0.2940(6) 0.27245(17) 0.6584(3)
N2 N 0.6085(6) 0.33639(17) 0.7731(3)
N3 N 0.0103(7) 0.50485(19) 0.4909(3)
C1 C 0.4533(9) 0.1588(2) 0.7070(4)
C2 C 0.4831(8) 0.2321(2) 0.7245(4)
C3 C 0.6778(8) 0.27117(19) 0.7953(4)
C4 C 0.9365(8) 0.2534(2) 0.8783(4)
C5 C 0.3766(8) 0.3346(2) 0.6897(4)
C6 C -0.1069(8) 0.4460(2) 0.4840(5)
H1 H -0.2696 0.4420 0.4293
C7 C -0.0051(9) 0.3908(2) 0.5516(5)
H2 H -0.1013 0.3518 0.5468
C8 C 0.2456(8) 0.3944(2) 0.6278(4)
C9 C 0.3671(9) 0.4551(2) 0.6355(5)
H3 H 0.5322 0.4599 0.6875
C10 C 0.2487(9) 0.5088(3) 0.5676(5)
H4 H 0.3365 0.5491 0.5749
Ag1C Ag 1.44791(3) 0.272161(17) 1.04351(3)
Ag2A Ag -0.16745(7) 0.589836(17) 0.39174(4)
O3C O -0.4250(5) 0.19914(14) 0.4302(3)
N3A N 1.0103(7) 0.49515(19) 0.9909(3)
loop_
_geom_bond_atom_site_label_1
_geom_bond_atom_site_label_2
_geom_bond_site_symmetry_1
_geom_bond_site_symmetry_2
Ag1 O1 1_555 1_555
Ag2 O3 1_555 1_555
O1 C1 1_555 1_555
O2 C1 1_555 1_555
O3 C4 1_555 1_555
O4 C4 1_555 1_555
N1 Ag1 1_555 1_555
N2 Ag2 1_555 1_555
N3 C6 1_555 1_555
C1 C2 1_555 1_555
C2 N1 1_555 1_555
C3 N2 1_555 1_555
C4 C3 1_555 1_555
C5 N1 1_555 1_555
C6 H1 1_555 1_555
C7 C6 1_555 1_555
H2 C7 1_555 1_555
C8 C5 1_555 1_555
C9 C8 1_555 1_555
H3 C9 1_555 1_555
C10 N3 1_555 1_555
H4 C10 1_555 1_555
Ag1C O3 1_555 1_555
Ag2A N3 1_555 1_555
O3C Ag1 1_555 1_555
N3A Ag2 1_555 1_555
N2 C5 1_555 1_555
C2 C3 1_555 1_555
C7 C8 1_555 1_555
C9 C10 1_555 1_555

#END
