
#######################################################################
#
#                 Cambridge Crystallographic Data Centre
#                                CCDC 
#
#######################################################################
#
# If this CIF has been generated from an entry in the Cambridge 
# Structural Database, then it will include bibliographic, chemical, 
# crystal, experimental, refinement or atomic coordinate data resulting 
# from the CCDC's data processing and validation procedures.
#
#######################################################################

data_PIBGAK
_symmetry_cell_setting           orthorhombic
_symmetry_space_group_name_H-M   'P n n a'
_symmetry_Int_Tables_number      52
_space_group_name_Hall           '-P 2a 2bc'
loop_
_symmetry_equiv_pos_site_id
_symmetry_equiv_pos_as_xyz
1 x,y,z
2 1/2-x,-y,z
3 x,1/2-y,1/2-z
4 1/2-x,1/2+y,1/2-z
5 -x,-y,-z
6 1/2+x,y,-z
7 -x,1/2+y,1/2+z
8 1/2+x,1/2-y,1/2+z
_cell_length_a                   10.4385(14)
_cell_length_b                   27.184(2)
_cell_length_c                   9.3482(9)
_cell_angle_alpha                90
_cell_angle_beta                 90
_cell_angle_gamma                90
_cell_volume                     2652.65
loop_
_atom_site_label
_atom_site_type_symbol
_atom_site_fract_x
_atom_site_fract_y
_atom_site_fract_z
O6 O 0.535(7) 0.265(3) 0.856(8)
H10 H 0.5444 0.2964 0.8481
H11 H 0.5172 0.2535 0.9373
Eu1 Eu 0.7500 0.0000 0.02597(9)
C1 C 0.5003(14) 0.0781(5) 0.0756(18)
C2 C 0.4720(14) 0.1303(4) 0.1242(14)
C3 C 0.5719(16) 0.1634(5) 0.156(2)
H1 H 0.6569 0.1543 0.1428
C4 C 0.3470(15) 0.1456(4) 0.1413(16)
H2 H 0.2804 0.1242 0.1188
C5 C 0.3190(14) 0.1928(4) 0.1920(16)
H3 H 0.2346 0.2028 0.2047
C6 C 0.4208(14) 0.2246(4) 0.2232(16)
C7 C 0.5415(14) 0.2093(5) 0.208(2)
C8 C 0.639(3) 0.2500 0.2500
C9 C 0.714(3) 0.2647(10) 0.118(3)
H4 H 0.7525 0.2359 0.0761
H5 H 0.7800 0.2875 0.1446
H6 H 0.6582 0.2799 0.0491
O1 O 0.6132(12) 0.0669(3) 0.0664(14)
O2 O 0.4125(10) 0.0518(3) 0.0452(14)
O3 O 0.8070(12) -0.0269(4) -0.2329(16)
H7 H 0.8343 -0.0560 -0.2458
H8 H 0.8379 -0.0054 -0.2890
O4 O 0.8530(16) 0.0361(6) 0.2350(17)
C10 C 0.926(3) 0.0540(12) 0.327(4)
H9 H 0.9900 0.0323 0.3558
O5 O 0.933(3) 0.0949(12) 0.388(3)
C1B C 0.5003(14) 0.4219(5) 0.4244(18)
C2B C 0.4720(14) 0.3697(4) 0.3758(14)
C3B C 0.5719(16) 0.3366(5) 0.344(2)
H1B H 0.6569 0.3457 0.3572
C4B C 0.3470(15) 0.3544(4) 0.3587(16)
H2B H 0.2804 0.3758 0.3812
C5B C 0.3190(14) 0.3072(4) 0.3080(16)
H3B H 0.2346 0.2972 0.2953
C6B C 0.4208(14) 0.2754(4) 0.2768(16)
C7B C 0.5415(14) 0.2907(5) 0.292(2)
C9B C 0.714(3) 0.2353(10) 0.382(3)
H4B H 0.7525 0.2641 0.4239
H5B H 0.7800 0.2125 0.3554
H6B H 0.6582 0.2201 0.4509
O1B O 0.6132(12) 0.4331(3) 0.4336(14)
O2B O 0.4125(10) 0.4482(3) 0.4548(14)
O3A O 0.6930(12) 0.0269(4) -0.2329(16)
H7A H 0.6657 0.0560 -0.2458
H8A H 0.6621 0.0054 -0.2890
O4A O 0.6470(16) -0.0361(6) 0.2350(17)
C10A C 0.574(3) -0.0540(12) 0.327(4)
H9A H 0.5100 -0.0323 0.3558
O5A O 0.567(3) -0.0949(12) 0.388(3)
Eu1B Eu 0.7500 0.5000 0.47403(9)
Eu1D Eu 0.2500 0.0000 -0.02597(9)
Eu1F Eu 0.2500 0.5000 0.52597(9)
O1A O 0.8868(12) -0.0669(3) 0.0664(14)
O2D O 0.5875(10) -0.0518(3) -0.0452(14)
O2E O 0.9125(10) 0.0518(3) -0.0452(14)
H12? H 0.9164 0.0552 0.2217
H13? H 0.8549 0.0194 0.3118
O7? O 0.8530(16) 0.0361(6) 0.2350(17)
loop_
_geom_bond_atom_site_label_1
_geom_bond_atom_site_label_2
_geom_bond_site_symmetry_1
_geom_bond_site_symmetry_2
Eu1 O1 1_555 1_555
C1 C2 1_555 1_555
C2 C3 1_555 1_555
C3 H1 1_555 1_555
C4 C2 1_555 1_555
H2 C4 1_555 1_555
C5 C4 1_555 1_555
H3 C5 1_555 1_555
C6 C5 1_555 1_555
C7 C3 1_555 1_555
C8 C7 1_555 1_555
C9 C8 1_555 1_555
H4 C9 1_555 1_555
H5 C9 1_555 1_555
H6 C9 1_555 1_555
O1 C1 1_555 1_555
O2 C1 1_555 1_555
O3 Eu1 1_555 1_555
H7 O3 1_555 1_555
H8 O3 1_555 1_555
O4 Eu1 1_555 1_555
C10 O4 1_555 1_555
H9 C10 1_555 1_555
O5 C10 1_555 1_555
O6 H10 1_555 1_555
H11 O6 1_555 1_555
C1B C2B 1_555 1_555
C2B C3B 1_555 1_555
C3B H1B 1_555 1_555
C4B C2B 1_555 1_555
H2B C4B 1_555 1_555
C5B C4B 1_555 1_555
H3B C5B 1_555 1_555
C6B C6 1_555 1_555
C7B C8 1_555 1_555
C9B C8 1_555 1_555
H4B C9B 1_555 1_555
H5B C9B 1_555 1_555
H6B C9B 1_555 1_555
O1B C1B 1_555 1_555
O2B C1B 1_555 1_555
O3A Eu1 1_555 1_555
H7A O3A 1_555 1_555
H8A O3A 1_555 1_555
O4A Eu1 1_555 1_555
C10A O4A 1_555 1_555
H9A C10A 1_555 1_555
O5A C10A 1_555 1_555
Eu1B O1B 1_555 1_555
Eu1D O2 1_555 1_555
Eu1F O2B 1_555 1_555
O1A Eu1 1_555 1_555
O2D Eu1 1_555 1_555
O2E Eu1 1_555 1_555
C6 C7 1_555 1_555
C3B C7B 1_555 1_555
C5B C6B 1_555 1_555
C6B C7B 1_555 1_555

#END
