
#######################################################################
#
#                 Cambridge Crystallographic Data Centre
#                                CCDC 
#
#######################################################################
#
# If this CIF has been generated from an entry in the Cambridge 
# Structural Database, then it will include bibliographic, chemical, 
# crystal, experimental, refinement or atomic coordinate data resulting 
# from the CCDC's data processing and validation procedures.
#
#######################################################################

data_PIBHUF
_symmetry_cell_setting           triclinic
_symmetry_space_group_name_H-M   'P -1'
_symmetry_Int_Tables_number      2
_space_group_name_Hall           '-P 1'
loop_
_symmetry_equiv_pos_site_id
_symmetry_equiv_pos_as_xyz
1 x,y,z
2 -x,-y,-z
_cell_length_a                   8.2724(3)
_cell_length_b                   10.8277(4)
_cell_length_c                   11.4349(4)
_cell_angle_alpha                67.3620(10)
_cell_angle_beta                 72.5270(10)
_cell_angle_gamma                77.3460(10)
_cell_volume                     895.453
loop_
_atom_site_label
_atom_site_type_symbol
_atom_site_fract_x
_atom_site_fract_y
_atom_site_fract_z
Zn1 Zn 0.19242(3) 0.39267(2) 0.96042(2)
N1 N 0.1923(3) 0.3964(2) 0.77043(18)
N2 N 0.2061(3) 0.3835(2) 0.15060(19)
O1 O -0.0204(3) 0.3061(2) 1.03469(18)
O2 O -0.2519(3) 0.41994(19) 1.12073(18)
O3 O 0.3994(3) 0.2504(2) 0.9636(2)
C1 C 0.1242(5) 0.3008(3) 0.7593(2)
H1 H 0.0733 0.2357 0.8350
C2 C 0.1264(5) 0.2946(3) 0.6401(2)
H2 H 0.0785 0.2260 0.6372
C3 C 0.1997(3) 0.3902(2) 0.5252(2)
C4 C 0.2692(4) 0.4895(3) 0.5369(2)
H3 H 0.3196 0.5563 0.4626
C5 C 0.2632(4) 0.4886(3) 0.6597(2)
H4 H 0.3110 0.5557 0.6651
C6 C 0.1257(4) 0.2963(3) 0.2616(2)
H5 H 0.0707 0.2332 0.2562
C7 C 0.1206(4) 0.2956(3) 0.3840(2)
H6 H 0.0611 0.2339 0.4583
C8 C 0.2040(3) 0.3867(2) 0.3961(2)
C9 C 0.2917(4) 0.4745(3) 0.2806(2)
H7 H 0.3515 0.5364 0.2834
C10 C 0.2904(4) 0.4702(4) 0.1619(2)
H8 H 0.3503 0.5298 0.0861
C11 C -0.1721(3) 0.3155(3) 1.0994(2)
C12 C -0.2655(5) 0.1919(3) 1.1562(4)
H9 H -0.2690 0.1523 1.2487
H10 H -0.3823 0.2206 1.1478
C13 C -0.1929(6) 0.0871(4) 1.0973(7)
H11 H -0.1952 0.1230 1.0068
H12 H -0.2589 0.0123 1.1416
H13 H -0.0772 0.0573 1.1049
H14 H 0.451(6) 0.230(4) 0.907(4)
H15 H 0.382(5) 0.183(5) 1.020(4)
Zn1_2 Zn 0.19242(3) 0.39267(2) -0.03958(2)
Zn1A Zn -0.19242(3) 0.60733(2) 1.03958(2)
N2_2 N 0.2061(3) 0.3835(2) 1.15060(19)
O2A O 0.2519(3) 0.58006(19) 0.87927(18)
C14 C -0.3661(6) 0.0944(4) 0.5822(4)
S1 S -0.30931(11) 0.08994(8) 0.72434(7)
O4 O -0.3894(6) 0.2147(3) 0.7400(3)
O5 O -0.1285(5) 0.0739(6) 0.6865(5)
O6 O -0.3798(5) -0.0240(3) 0.8236(3)
F1 F -0.3519(9) -0.0194(7) 0.5731(7)
F2 F -0.5265(12) 0.1375(11) 0.5897(10)
F3 F -0.2766(8) 0.1939(6) 0.4781(6)
F4? F -0.3748(8) 0.2084(6) 0.4880(6)
F5? F -0.2694(8) 0.0029(6) 0.5286(6)
F6? F -0.5338(8) 0.0742(10) 0.6072(9)
loop_
_geom_bond_atom_site_label_1
_geom_bond_atom_site_label_2
_geom_bond_site_symmetry_1
_geom_bond_site_symmetry_2
Zn1 N1 1_555 1_555
N1 C1 1_555 1_555
N2 C6 1_555 1_555
O1 Zn1 1_555 1_555
O2 C11 1_555 1_555
O3 Zn1 1_555 1_555
C1 H1 1_555 1_555
C2 C1 1_555 1_555
H2 C2 1_555 1_555
C3 C2 1_555 1_555
C4 C3 1_555 1_555
H3 C4 1_555 1_555
C5 N1 1_555 1_555
H4 C5 1_555 1_555
C6 H5 1_555 1_555
C7 C6 1_555 1_555
H6 C7 1_555 1_555
C8 C3 1_555 1_555
C9 C8 1_555 1_555
H7 C9 1_555 1_555
C10 N2 1_555 1_555
H8 C10 1_555 1_555
C11 O1 1_555 1_555
C12 C11 1_555 1_555
H9 C12 1_555 1_555
H10 C12 1_555 1_555
C13 C12 1_555 1_555
H11 C13 1_555 1_555
H12 C13 1_555 1_555
H13 C13 1_555 1_555
H14 O3 1_555 1_555
H15 O3 1_555 1_555
C14 S1 1_555 1_555
S1 O4 1_555 1_555
O5 S1 1_555 1_555
O6 S1 1_555 1_555
F1 C14 1_555 1_555
F2 C14 1_555 1_555
F3 C14 1_555 1_555
Zn1_2 N2 1_555 1_555
Zn1A O2 1_555 1_555
N2_2 Zn1 1_555 1_555
O2A Zn1 1_555 1_555
C4 C5 1_555 1_555
C7 C8 1_555 1_555
C9 C10 1_555 1_555

#END
