
#######################################################################
#
#                 Cambridge Crystallographic Data Centre
#                                CCDC 
#
#######################################################################
#
# If this CIF has been generated from an entry in the Cambridge 
# Structural Database, then it will include bibliographic, chemical, 
# crystal, experimental, refinement or atomic coordinate data resulting 
# from the CCDC's data processing and validation procedures.
#
#######################################################################

data_PIBKUH
_symmetry_cell_setting           monoclinic
_symmetry_space_group_name_H-M   'P 21/n'
_symmetry_Int_Tables_number      14
_space_group_name_Hall           '-P 2yn'
loop_
_symmetry_equiv_pos_site_id
_symmetry_equiv_pos_as_xyz
1 x,y,z
2 1/2-x,1/2+y,1/2-z
3 -x,-y,-z
4 1/2+x,1/2-y,1/2+z
_cell_length_a                   9.354(9)
_cell_length_b                   17.850(16)
_cell_length_c                   11.044(10)
_cell_angle_alpha                90
_cell_angle_beta                 103.629(12)
_cell_angle_gamma                90
_cell_volume                     1792.08
loop_
_atom_site_label
_atom_site_type_symbol
_atom_site_fract_x
_atom_site_fract_y
_atom_site_fract_z
Cu1 Cu 0.5000 0.0000 -0.5000
F1 F 0.0502(4) 0.3725(3) -0.4657(4)
F2 F -0.2206(5) 0.2030(3) -0.2873(5)
N1 N 0.3433(4) 0.2226(2) -0.5023(4)
N2 N 0.2172(5) 0.1907(2) -0.5666(4)
N3 N 0.3947(4) 0.1045(2) -0.5139(3)
N4 N 0.3008(4) 0.4207(2) -0.2006(4)
N5 N 0.3848(5) 0.4019(3) -0.0868(5)
N6 N 0.1731(4) 0.4551(2) -0.0698(3)
N7 N 0.6171(4) 0.0235(2) -0.3216(4)
O1 O 0.4386(5) 0.2731(2) -0.2590(4)
H1 H 0.4361 0.2809 -0.1864
S1 S 0.8344(2) 0.00003(12) -0.10658(16)
C1 C 0.3501(6) 0.3013(3) -0.4697(5)
H2 H 0.2749 0.3282 -0.5293
H3 H 0.4450 0.3212 -0.4745
C2 C 0.3276(5) 0.3142(3) -0.3381(5)
C3 C 0.3459(6) 0.3990(3) -0.3127(5)
H4 H 0.2875 0.4263 -0.3832
H5 H 0.4481 0.4127 -0.3043
C4 C 0.2548(6) 0.1202(3) -0.5704(5)
H6 H 0.1891 0.0837 -0.6096
C5 C 0.4456(5) 0.1703(3) -0.4711(4)
H7 H 0.5409 0.1790 -0.4249
C6 C 0.3023(5) 0.4242(3) -0.0118(5)
H8 H 0.1688 -0.0811 -0.5743
C7 C 0.3224(5) -0.0484(3) -0.3117(4)
H9 H 0.3965 -0.0313 -0.2458
C8 C 0.1785(6) 0.2850(3) -0.3265(5)
C9 C 0.0495(7) 0.3140(4) -0.3871(6)
C10 C -0.0915(8) 0.2891(5) -0.3764(7)
H10 H -0.1795 0.3106 -0.4190
C11 C -0.0833(9) 0.2303(5) -0.2970(8)
C12 C 0.0358(9) 0.1948(5) -0.2359(7)
H11 H 0.0308 0.1530 -0.1867
C13 C 0.1691(8) 0.2238(4) -0.2496(6)
H12 H 0.2557 0.2015 -0.2057
C14 C 0.7051(5) 0.0143(3) -0.2321(5)
Cu1C Cu 0.0000 0.5000 0.0000
Cu1C_2 Cu 0.0000 -0.5000 0.0000
F1A F 0.4498(4) -0.1275(3) -0.0343(4)
F2A F 0.7206(5) -0.2970(3) -0.2127(5)
N1A N 0.1567(4) -0.2774(2) 0.0023(4)
N2A N 0.2828(5) -0.3093(2) 0.0666(4)
N3A N 0.1053(4) -0.3955(2) 0.0139(3)
N3B N 0.6053(4) -0.1045(2) -0.4861(3)
N4A N 0.1992(4) -0.0793(2) -0.2994(4)
N5A N 0.1152(5) -0.0981(3) -0.4132(5)
N6C N 0.6731(4) 0.0449(2) -0.5698(3)
N6A N 0.3269(4) -0.0449(2) -0.4302(3)
N7B N 0.3829(4) -0.0235(2) -0.6784(4)
O1A O 0.0614(5) -0.2269(2) -0.2410(4)
H1A H 0.0639 -0.2191 -0.3136
S1B S 0.1656(2) -0.00003(12) -0.89342(16)
C1A C 0.1499(6) -0.1987(3) -0.0303(5)
H2A H 0.2251 -0.1718 0.0293
H3A H 0.0550 -0.1788 -0.0255
C2A C 0.1724(5) -0.1858(3) -0.1619(5)
C3A C 0.1541(6) -0.1010(3) -0.1873(5)
H4A H 0.2125 -0.0737 -0.1168
H5A H 0.0519 -0.0873 -0.1957
C4A C 0.2452(6) -0.3798(3) 0.0704(5)
H6A H 0.3109 -0.4163 0.1096
C5A C 0.0544(5) -0.3297(3) -0.0289(4)
H7A H -0.0409 -0.3210 -0.0751
C6A C 0.1977(5) -0.0758(3) -0.4882(5)
H8A H 0.3312 0.4189 0.0743
C7A C 0.1776(5) 0.4516(3) -0.1883(4)
H9A H 0.1035 0.4687 -0.2542
C8A C 0.3215(6) -0.2150(3) -0.1735(5)
C9A C 0.4505(7) -0.1860(4) -0.1129(6)
C10A C 0.5915(8) -0.2109(5) -0.1236(7)
H10A H 0.6795 -0.1894 -0.0810
C11A C 0.5833(9) -0.2697(5) -0.2030(8)
C12A C 0.4642(9) -0.3052(5) -0.2641(7)
H11A H 0.4692 -0.3470 -0.3133
C13A C 0.3309(8) -0.2762(4) -0.2504(6)
H12A H 0.2443 -0.2985 -0.2943
C14B C 0.2949(5) -0.0143(3) -0.7679(5)
loop_
_geom_bond_atom_site_label_1
_geom_bond_atom_site_label_2
_geom_bond_site_symmetry_1
_geom_bond_site_symmetry_2
Cu1 N3 1_555 1_555
F1 C9 1_555 1_555
F2 C11 1_555 1_555
N1 N2 1_555 1_555
N2 C4 1_555 1_555
N3 C4 1_555 1_555
N4 N5 1_555 1_555
N5 C6 1_555 1_555
N6 C6 1_555 1_555
N7 Cu1 1_555 1_555
O1 H1 1_555 1_555
S1 C14 1_555 1_555
C1 N1 1_555 1_555
H2 C1 1_555 1_555
H3 C1 1_555 1_555
C2 O1 1_555 1_555
C3 N4 1_555 1_555
H4 C3 1_555 1_555
H5 C3 1_555 1_555
C4 H6 1_555 1_555
C5 N1 1_555 1_555
H7 C5 1_555 1_555
C6 H8A 1_555 1_555
H8 C6A 1_555 1_555
C7 H9 1_555 1_555
C8 C2 1_555 1_555
C9 C8 1_555 1_555
C10 C9 1_555 1_555
H10 C10 1_555 1_555
C11 C10 1_555 1_555
C12 C11 1_555 1_555
H11 C12 1_555 1_555
C13 C8 1_555 1_555
H12 C13 1_555 1_555
C14 N7 1_555 1_555
Cu1C N6 1_555 1_555
Cu1C_2 N3A 1_555 1_555
F1A C9A 1_555 1_555
F2A C11A 1_555 1_555
N1A N2A 1_555 1_555
N2A C4A 1_555 1_555
N3A C4A 1_555 1_555
N3B Cu1 1_555 1_555
N4A C7 1_555 1_555
N5A N4A 1_555 1_555
N6C Cu1 1_555 1_555
N6A Cu1 1_555 1_555
N7B Cu1 1_555 1_555
O1A H1A 1_555 1_555
S1B C14B 1_555 1_555
C1A N1A 1_555 1_555
H2A C1A 1_555 1_555
H3A C1A 1_555 1_555
C2A O1A 1_555 1_555
C3A N4A 1_555 1_555
H4A C3A 1_555 1_555
H5A C3A 1_555 1_555
C4A H6A 1_555 1_555
C5A N1A 1_555 1_555
H7A C5A 1_555 1_555
C6A N5A 1_555 1_555
C7A N4 1_555 1_555
H9A C7A 1_555 1_555
C8A C2A 1_555 1_555
C9A C8A 1_555 1_555
C10A C9A 1_555 1_555
H10A C10A 1_555 1_555
C11A C10A 1_555 1_555
C12A C11A 1_555 1_555
H11A C12A 1_555 1_555
C13A C8A 1_555 1_555
H12A C13A 1_555 1_555
C14B N7B 1_555 1_555
N3 C5 1_555 1_555
N6 C7A 1_555 1_555
C1 C2 1_555 1_555
C2 C3 1_555 1_555
C7 N6A 1_555 1_555
C12 C13 1_555 1_555
N3A C5A 1_555 1_555
N6A C6A 1_555 1_555
C1A C2A 1_555 1_555
C2A C3A 1_555 1_555
C12A C13A 1_555 1_555

#END
