
#######################################################################
#
#                 Cambridge Crystallographic Data Centre
#                                CCDC 
#
#######################################################################
#
# If this CIF has been generated from an entry in the Cambridge 
# Structural Database, then it will include bibliographic, chemical, 
# crystal, experimental, refinement or atomic coordinate data resulting 
# from the CCDC's data processing and validation procedures.
#
#######################################################################

data_PIBMIY
_symmetry_cell_setting           monoclinic
_symmetry_space_group_name_H-M   'C 2/c'
_symmetry_Int_Tables_number      15
_space_group_name_Hall           '-C 2yn'
loop_
_symmetry_equiv_pos_site_id
_symmetry_equiv_pos_as_xyz
1 x,y,z
2 -x,y,1/2-z
3 1/2+x,1/2+y,z
4 1/2-x,1/2+y,1/2-z
5 -x,-y,-z
6 x,-y,1/2+z
7 1/2-x,1/2-y,-z
8 1/2+x,1/2-y,1/2+z
_cell_length_a                   30.6(3)
_cell_length_b                   10.9657(19)
_cell_length_c                   17.87(15)
_cell_angle_alpha                90
_cell_angle_beta                 100.7(9)
_cell_angle_gamma                90
_cell_volume                     5892.03
loop_
_atom_site_label
_atom_site_type_symbol
_atom_site_fract_x
_atom_site_fract_y
_atom_site_fract_z
Ni1 Ni 0.861859(18) 0.17476(5) 0.77702(3)
N1 N 0.90118(11) 0.3133(3) 0.7515(2)
H1 H 0.890(2) 0.334(5) 0.720(4)
N2 N 0.83795(11) 0.2983(3) 0.8464(2)
H2 H 0.8447(18) 0.293(5) 0.885(3)
N3 N 0.81917(11) 0.0310(3) 0.8035(2)
N4 N 0.88624(12) 0.0474(3) 0.70480(19)
N5 N 0.94999(12) 0.1698(4) 0.6962(2)
N6 N 0.77152(13) 0.1749(4) 0.8544(3)
O1 O 0.81179(8) 0.2202(3) 0.68705(15)
O2 O 0.82365(11) 0.4075(3) 0.64583(17)
O3 O 0.90949(9) 0.1077(3) 0.86358(15)
O4 O 0.91556(11) 0.2357(3) 0.96029(17)
C1 C 0.90060(14) 0.4090(4) 0.8103(2)
H3 H 0.9205 0.3827 0.8569
C2 C 0.9168(2) 0.5328(5) 0.7878(3)
H4 H 0.8988 0.5593 0.7401
H5 H 0.9474 0.5264 0.7807
C3 C 0.9136(3) 0.6270(6) 0.8507(5)
H6 H 0.9346 0.6046 0.8962
H7 H 0.9224 0.7061 0.8343
C4 C 0.8715(3) 0.6376(6) 0.8695(5)
H8 H 0.8513 0.6729 0.8267
H9 H 0.8732 0.6928 0.9123
C5 C 0.8524(2) 0.5132(5) 0.8903(3)
H10 H 0.8696 0.4838 0.9380
H11 H 0.8219 0.5240 0.8968
C6 C 0.85408(14) 0.4204(4) 0.8281(2)
H12 H 0.8345 0.4494 0.7818
C7 C 0.79019(14) 0.2906(5) 0.8445(3)
H13 H 0.7832 0.3442 0.8837
H14 H 0.7752 0.3229 0.7959
C8 C 0.77422(13) 0.0828(5) 0.7972(3)
H15 H 0.7653 0.1186 0.7471
H16 H 0.7535 0.0176 0.8022
C9 C 0.82333(18) -0.0554(4) 0.7422(3)
H17 H 0.8052 -0.0274 0.6950
H18 H 0.8122 -0.1345 0.7542
C10 C 0.86993(18) -0.0683(4) 0.7317(3)
H19 H 0.8885 -0.0915 0.7797
H20 H 0.8718 -0.1323 0.6949
C11 C 0.93578(15) 0.0573(5) 0.7189(3)
H21 H 0.9473 0.0459 0.7728
H22 H 0.9478 -0.0070 0.6914
C12 C 0.94657(12) 0.2745(5) 0.7416(3)
H23 H 0.9601 0.3424 0.7196
H24 H 0.9642 0.2598 0.7918
C13 C 0.78129(18) 0.1192(7) 0.9298(3)
H25 H 0.7571 0.0651 0.9359
H26 H 0.7833 0.1824 0.9682
C14 C 0.82367(18) 0.0490(6) 0.9414(3)
H27 H 0.8258 0.0004 0.9873
H28 H 0.8483 0.1060 0.9494
C15 C 0.82815(18) -0.0339(5) 0.8760(3)
H29 H 0.8580 -0.0671 0.8840
H30 H 0.8075 -0.1014 0.8744
C16 C 0.87330(17) 0.0548(5) 0.6223(2)
H31 H 0.8411 0.0538 0.6089
H32 H 0.8844 -0.0167 0.5999
C17 C 0.89047(17) 0.1676(5) 0.5887(3)
H33 H 0.8842 0.1611 0.5336
H34 H 0.8747 0.2383 0.6026
C18 C 0.93830(18) 0.1863(6) 0.6142(3)
H35 H 0.9547 0.1286 0.5889
H36 H 0.9463 0.2680 0.6009
C19 C 0.80619(12) 0.3052(4) 0.6391(2)
C20 C 0.77653(11) 0.2758(4) 0.56712(19)
C21 C 0.75005(14) 0.1750(4) 0.5606(2)
H37 H 0.7505 0.1241 0.6024
C22 C 0.77664(14) 0.3510(4) 0.5058(2)
H38 H 0.7950 0.4192 0.5102
C23 C 0.92689(12) 0.1437(4) 0.9276(2)
C24 C 0.96484(11) 0.0693(3) 0.9655(2)
C25 C 0.99005(12) 0.1125(4) 1.0294(2)
H39 H 0.9836 0.1868 1.0499
C26 C 1.02555(12) 0.0442(4) 1.0634(2)
H40 H 1.0439 0.0740 1.1070
O1F O 0.68821(8) 0.2798(3) 0.31295(15)
O2F O 0.67635(11) 0.0925(3) 0.35417(17)
C19F C 0.69381(12) 0.1948(4) 0.3609(2)
C20F C 0.72347(11) 0.2242(4) 0.43288(19)
C21F C 0.74995(14) 0.3250(4) 0.4394(2)
H37F H 0.7495 0.3759 0.3976
C22F C 0.72336(14) 0.1490(4) 0.4942(2)
H38F H 0.7050 0.0808 0.4898
O3D O 1.09051(9) -0.1077(3) 1.13642(15)
O4D O 1.08444(11) -0.2357(3) 1.03971(17)
C23D C 1.07311(12) -0.1437(4) 1.0724(2)
C24D C 1.03516(11) -0.0693(3) 1.0345(2)
C25D C 1.00995(12) -0.1125(4) 0.9706(2)
H39D H 1.0164 -0.1868 0.9501
C26D C 0.97445(12) -0.0442(4) 0.9366(2)
H40D H 0.9561 -0.0740 0.8930
Ni1D Ni 1.138141(18) -0.17476(5) 1.22298(3)
N1D N 1.09882(11) -0.3133(3) 1.2485(2)
H1D H 1.110(2) -0.334(5) 1.280(4)
N2D N 1.16205(11) -0.2983(3) 1.1536(2)
H2D H 1.1553(18) -0.293(5) 1.115(3)
N3D N 1.18083(11) -0.0310(3) 1.1965(2)
N4D N 1.11376(12) -0.0474(3) 1.29520(19)
N5D N 1.05001(12) -0.1698(4) 1.3038(2)
N6D N 1.22848(13) -0.1749(4) 1.1456(3)
C1D C 1.09940(14) -0.4090(4) 1.1897(2)
H3D H 1.0795 -0.3827 1.1431
C2D C 1.0832(2) -0.5328(5) 1.2122(3)
H4D H 1.1012 -0.5593 1.2599
H5D H 1.0526 -0.5264 1.2193
C3D C 1.0864(3) -0.6270(6) 1.1493(5)
H6D H 1.0654 -0.6046 1.1038
H7D H 1.0776 -0.7061 1.1657
C4D C 1.1285(3) -0.6376(6) 1.1305(5)
H8D H 1.1487 -0.6729 1.1733
H9D H 1.1268 -0.6928 1.0877
C5D C 1.1476(2) -0.5132(5) 1.1097(3)
H10D H 1.1304 -0.4838 1.0620
H11D H 1.1781 -0.5240 1.1032
C6D C 1.14592(14) -0.4204(4) 1.1719(2)
H12D H 1.1655 -0.4494 1.2182
C7D C 1.20981(14) -0.2906(5) 1.1555(3)
H13D H 1.2168 -0.3442 1.1163
H14D H 1.2248 -0.3229 1.2041
C8D C 1.22578(13) -0.0828(5) 1.2028(3)
H15D H 1.2347 -0.1186 1.2529
H16D H 1.2465 -0.0176 1.1978
C9D C 1.17667(18) 0.0554(4) 1.2578(3)
H17D H 1.1948 0.0274 1.3050
H18D H 1.1878 0.1345 1.2458
C10D C 1.13007(18) 0.0683(4) 1.2683(3)
H19D H 1.1115 0.0915 1.2203
H20D H 1.1282 0.1323 1.3051
C11D C 1.06422(15) -0.0573(5) 1.2811(3)
H21D H 1.0527 -0.0459 1.2272
H22D H 1.0522 0.0070 1.3086
C12D C 1.05343(12) -0.2745(5) 1.2584(3)
H23D H 1.0399 -0.3424 1.2804
H24D H 1.0358 -0.2598 1.2082
C13D C 1.21871(18) -0.1192(7) 1.0702(3)
H25D H 1.2429 -0.0651 1.0641
H26D H 1.2167 -0.1824 1.0318
C14D C 1.17633(18) -0.0490(6) 1.0586(3)
H27D H 1.1742 -0.0004 1.0127
H28D H 1.1517 -0.1060 1.0506
C15D C 1.17185(18) 0.0339(5) 1.1240(3)
H29D H 1.1420 0.0671 1.1160
H30D H 1.1925 0.1014 1.1256
C16D C 1.12670(17) -0.0548(5) 1.3777(2)
H31D H 1.1589 -0.0538 1.3911
H32D H 1.1156 0.0167 1.4001
C17D C 1.10953(17) -0.1676(5) 1.4113(3)
H33D H 1.1158 -0.1611 1.4664
H34D H 1.1253 -0.2383 1.3974
C18D C 1.06170(18) -0.1863(6) 1.3858(3)
H35D H 1.0453 -0.1286 1.4111
H36D H 1.0537 -0.2680 1.3991
Ni1F Ni 0.638141(18) 0.32524(5) 0.22298(3)
O1D O 1.18821(8) -0.2202(3) 1.31295(15)
O5 O 0.9066(2) 0.2893(8) 1.1035(4)
H41 H 0.898(4) 0.189(9) 1.059(7)
H42 H 0.873(4) 0.367(10) 1.090(6)
O7 O 0.8224(3) 0.3407(8) 1.1161(11)
O6? O 0.8238(4) 0.3380(10) 1.1512(13)
loop_
_geom_bond_atom_site_label_1
_geom_bond_atom_site_label_2
_geom_bond_site_symmetry_1
_geom_bond_site_symmetry_2
Ni1 N1 1_555 1_555
N1 H1 1_555 1_555
N2 Ni1 1_555 1_555
H2 N2 1_555 1_555
N3 Ni1 1_555 1_555
N4 Ni1 1_555 1_555
N5 C11 1_555 1_555
N6 C7 1_555 1_555
O1 Ni1 1_555 1_555
O2 C19 1_555 1_555
O3 Ni1 1_555 1_555
O4 C23 1_555 1_555
C1 N1 1_555 1_555
H3 C1 1_555 1_555
C2 C1 1_555 1_555
H4 C2 1_555 1_555
H5 C2 1_555 1_555
C3 C2 1_555 1_555
H6 C3 1_555 1_555
H7 C3 1_555 1_555
C4 C3 1_555 1_555
H8 C4 1_555 1_555
H9 C4 1_555 1_555
C5 C4 1_555 1_555
H10 C5 1_555 1_555
H11 C5 1_555 1_555
C6 N2 1_555 1_555
H12 C6 1_555 1_555
C7 N2 1_555 1_555
H13 C7 1_555 1_555
H14 C7 1_555 1_555
C8 N3 1_555 1_555
H15 C8 1_555 1_555
H16 C8 1_555 1_555
C9 N3 1_555 1_555
H17 C9 1_555 1_555
H18 C9 1_555 1_555
C10 N4 1_555 1_555
H19 C10 1_555 1_555
H20 C10 1_555 1_555
C11 N4 1_555 1_555
H21 C11 1_555 1_555
H22 C11 1_555 1_555
C12 N1 1_555 1_555
H23 C12 1_555 1_555
H24 C12 1_555 1_555
C13 N6 1_555 1_555
H25 C13 1_555 1_555
H26 C13 1_555 1_555
C14 C13 1_555 1_555
H27 C14 1_555 1_555
H28 C14 1_555 1_555
C15 N3 1_555 1_555
H29 C15 1_555 1_555
H30 C15 1_555 1_555
C16 N4 1_555 1_555
H31 C16 1_555 1_555
H32 C16 1_555 1_555
C17 C16 1_555 1_555
H33 C17 1_555 1_555
H34 C17 1_555 1_555
C18 N5 1_555 1_555
H35 C18 1_555 1_555
H36 C18 1_555 1_555
C19 O1 1_555 1_555
C20 C19 1_555 1_555
C21 C20 1_555 1_555
H37 C21 1_555 1_555
C22 C20 1_555 1_555
H38 C22 1_555 1_555
C23 O3 1_555 1_555
C24 C23 1_555 1_555
C25 C24 1_555 1_555
H39 C25 1_555 1_555
C26 C25 1_555 1_555
H40 C26 1_555 1_555
O5 H41 1_555 1_555
H42 O5 1_555 1_555
O1F C19F 1_555 1_555
O2F C19F 1_555 1_555
C19F C20F 1_555 1_555
C20F C21F 1_555 1_555
C21F C22 1_555 1_555
H37F C21F 1_555 1_555
C22F C21 1_555 1_555
H38F C22F 1_555 1_555
O3D C23D 1_555 1_555
O4D C23D 1_555 1_555
C23D C24D 1_555 1_555
C24D C26 1_555 1_555
C25D C24D 1_555 1_555
H39D C25D 1_555 1_555
C26D C24 1_555 1_555
H40D C26D 1_555 1_555
Ni1D O3D 1_555 1_555
N1D Ni1D 1_555 1_555
H1D N1D 1_555 1_555
N2D Ni1D 1_555 1_555
H2D N2D 1_555 1_555
N3D Ni1D 1_555 1_555
N4D Ni1D 1_555 1_555
N5D C11D 1_555 1_555
N6D C7D 1_555 1_555
C1D N1D 1_555 1_555
H3D C1D 1_555 1_555
C2D C1D 1_555 1_555
H4D C2D 1_555 1_555
H5D C2D 1_555 1_555
C3D C2D 1_555 1_555
H6D C3D 1_555 1_555
H7D C3D 1_555 1_555
C4D C3D 1_555 1_555
H8D C4D 1_555 1_555
H9D C4D 1_555 1_555
C5D C4D 1_555 1_555
H10D C5D 1_555 1_555
H11D C5D 1_555 1_555
C6D N2D 1_555 1_555
H12D C6D 1_555 1_555
C7D N2D 1_555 1_555
H13D C7D 1_555 1_555
H14D C7D 1_555 1_555
C8D N3D 1_555 1_555
H15D C8D 1_555 1_555
H16D C8D 1_555 1_555
C9D N3D 1_555 1_555
H17D C9D 1_555 1_555
H18D C9D 1_555 1_555
C10D N4D 1_555 1_555
H19D C10D 1_555 1_555
H20D C10D 1_555 1_555
C11D N4D 1_555 1_555
H21D C11D 1_555 1_555
H22D C11D 1_555 1_555
C12D N1D 1_555 1_555
H23D C12D 1_555 1_555
H24D C12D 1_555 1_555
C13D N6D 1_555 1_555
H25D C13D 1_555 1_555
H26D C13D 1_555 1_555
C14D C13D 1_555 1_555
H27D C14D 1_555 1_555
H28D C14D 1_555 1_555
C15D N3D 1_555 1_555
H29D C15D 1_555 1_555
H30D C15D 1_555 1_555
C16D N4D 1_555 1_555
H31D C16D 1_555 1_555
H32D C16D 1_555 1_555
C17D C16D 1_555 1_555
H33D C17D 1_555 1_555
H34D C17D 1_555 1_555
C18D N5D 1_555 1_555
H35D C18D 1_555 1_555
H36D C18D 1_555 1_555
Ni1F O1F 1_555 1_555
O1D Ni1D 1_555 1_555
N5 C12 1_555 1_555
N6 C8 1_555 1_555
C1 C6 1_555 1_555
C5 C6 1_555 1_555
C9 C10 1_555 1_555
C14 C15 1_555 1_555
C17 C18 1_555 1_555
C20F C22F 1_555 1_555
C25D C26D 1_555 1_555
N5D C12D 1_555 1_555
N6D C8D 1_555 1_555
C1D C6D 1_555 1_555
C5D C6D 1_555 1_555
C9D C10D 1_555 1_555
C14D C15D 1_555 1_555
C17D C18D 1_555 1_555

#END
