
#######################################################################
#
#                 Cambridge Crystallographic Data Centre
#                                CCDC 
#
#######################################################################
#
# If this CIF has been generated from an entry in the Cambridge 
# Structural Database, then it will include bibliographic, chemical, 
# crystal, experimental, refinement or atomic coordinate data resulting 
# from the CCDC's data processing and validation procedures.
#
#######################################################################

data_PICNEW
_symmetry_cell_setting           triclinic
_symmetry_space_group_name_H-M   'P -1'
_symmetry_Int_Tables_number      2
_space_group_name_Hall           '-P 1'
loop_
_symmetry_equiv_pos_site_id
_symmetry_equiv_pos_as_xyz
1 x,y,z
2 -x,-y,-z
_cell_length_a                   9.7227(18)
_cell_length_b                   14.064(4)
_cell_length_c                   14.106(4)
_cell_angle_alpha                118.040(9)
_cell_angle_beta                 104.455(7)
_cell_angle_gamma                90.272(3)
_cell_volume                     1631.65
loop_
_atom_site_label
_atom_site_type_symbol
_atom_site_fract_x
_atom_site_fract_y
_atom_site_fract_z
Nd1 Nd 0.25069(2) -0.004023(16) 1.001112(17)
O1 O 0.3861(3) -0.0284(3) 0.8763(3)
O2 O 0.5811(3) -0.0310(3) 0.8212(3)
O3 O 0.1203(3) 0.0889(3) 0.9024(3)
O4 O -0.0872(3) 0.0490(3) 0.9231(3)
O5 O 0.2054(3) 0.1791(3) 1.1489(3)
O6 O 0.3878(3) 0.1834(2) 1.0845(3)
O7 O 0.3544(3) -0.1759(3) 0.9658(3)
H1 H 0.4461 -0.1782 0.9522
H2 H 0.3147 -0.2344 0.9530
O8 O 0.0716(3) -0.1555(2) 0.8381(3)
H3 H 0.0558 -0.2018 0.8586
H4 H 0.0699 -0.2032 0.7732
N1 N -0.3345(5) -0.2015(5) 0.4601(5)
N2 N 0.2289(6) 0.6188(4) 0.9093(5)
N3 N 0.1244(6) 0.6854(4) 1.6436(4)
C1 C 0.3568(5) -0.0535(4) 0.6926(4)
C2 C 0.2091(5) -0.0775(4) 0.6627(4)
H5 H 0.1656 -0.0773 0.7145
C3 C 0.1236(5) -0.1022(4) 0.5557(4)
C4 C 0.1905(6) -0.0985(6) 0.4822(5)
H6 H 0.1357 -0.1122 0.4117
C5 C 0.3393(6) -0.0746(6) 0.5119(5)
H7 H 0.3831 -0.0740 0.4606
C6 C 0.4211(6) -0.0520(5) 0.6158(4)
H8 H 0.5203 -0.0355 0.6352
C7 C -0.0363(5) -0.1333(4) 0.5223(4)
C8 C -0.1074(6) -0.1246(5) 0.5996(5)
H9 H -0.0570 -0.0946 0.6750
C9 C -0.2531(6) -0.1606(5) 0.5644(6)
H10 H -0.2966 -0.1558 0.6180
C10 C -0.2673(7) -0.2080(6) 0.3869(6)
H11 H -0.3213 -0.2361 0.3125
C11 C -0.1208(6) -0.1754(5) 0.4142(5)
H12 H -0.0801 -0.1823 0.3585
C12 C 0.4475(5) -0.0368(3) 0.8043(4)
C13 C -0.0745(5) 0.1768(3) 0.8593(4)
C14 C 0.0141(5) 0.2613(3) 0.8722(4)
H13 H 0.1130 0.2667 0.8993
C15 C -0.0435(5) 0.3391(4) 0.8451(4)
C16 C -0.1902(6) 0.3251(4) 0.8005(5)
H14 H -0.2301 0.3752 0.7803
C17 C -0.2796(6) 0.2398(5) 0.7848(5)
H15 H -0.3779 0.2317 0.7528
C18 C -0.2215(5) 0.1649(4) 0.8173(4)
H16 H -0.2806 0.1087 0.8107
C19 C 0.0527(6) 0.4345(4) 0.8662(4)
C20 C -0.0030(7) 0.5236(4) 0.8631(5)
H17 H -0.1017 0.5239 0.8471
C21 C 0.0860(8) 0.6121(5) 0.8836(5)
H18 H 0.0444 0.6699 0.8793
C22 C 0.2842(8) 0.5345(5) 0.9140(7)
H19 H 0.3835 0.5377 0.9329
C23 C 0.2019(7) 0.4422(5) 0.8923(6)
H20 H 0.2464 0.3848 0.8951
C24 C -0.0093(4) 0.0987(3) 0.8967(3)
C25 C 0.3431(5) 0.3523(3) 1.2201(4)
C26 C 0.2776(5) 0.4062(4) 1.3051(4)
H21 H 0.2071 0.3675 1.3127
C27 C 0.3168(5) 0.5171(4) 1.3784(4)
C28 C 0.4255(6) 0.5734(4) 1.3686(4)
H22 H 0.4564 0.6466 1.4203
C29 C 0.4878(6) 0.5216(4) 1.2831(5)
H23 H 0.5565 0.5606 1.2744
C30 C 0.4476(5) 0.4111(4) 1.2102(4)
H24 H 0.4917 0.3759 1.1538
C31 C 0.2481(6) 0.5754(4) 1.4703(4)
C32 C 0.1018(6) 0.5751(5) 1.4488(5)
H25 H 0.0425 0.5369 1.3757
C33 C 0.0427(7) 0.6325(4) 1.5377(5)
H26 H -0.0559 0.6336 1.5224
C34 C 0.2648(7) 0.6870(5) 1.6625(5)
H27 H 0.3221 0.7265 1.7362
C35 C 0.3314(7) 0.6344(5) 1.5805(5)
H28 H 0.4307 0.6382 1.5987
C36 C 0.3091(4) 0.2322(3) 1.1471(4)
Nd1A Nd -0.25069(2) 0.004023(16) 0.998888(17)
Nd1A_2 Nd 0.74931(2) 0.004023(16) 0.998888(17)
O2A O 0.4189(3) 0.0310(3) 1.1788(3)
O4A O 0.0872(3) -0.0490(3) 1.0769(3)
O9 O 0.3774(7) 0.2263(5) 0.8839(5)
H29 H 0.4381 0.1852 0.8605
H30 H 0.2964 0.1833 0.8494
loop_
_geom_bond_atom_site_label_1
_geom_bond_atom_site_label_2
_geom_bond_site_symmetry_1
_geom_bond_site_symmetry_2
Nd1 O1 1_555 1_555
O1 C12 1_555 1_555
O2 C12 1_555 1_555
O3 Nd1 1_555 1_555
O4 C24 1_555 1_555
O5 Nd1 1_555 1_555
O6 Nd1 1_555 1_555
O7 Nd1 1_555 1_555
H1 O7 1_555 1_555
H2 O7 1_555 1_555
O8 Nd1 1_555 1_555
H3 O8 1_555 1_555
H4 O8 1_555 1_555
N1 C9 1_555 1_555
N2 C21 1_555 1_555
N3 C33 1_555 1_555
C1 C2 1_555 1_555
C2 H5 1_555 1_555
C3 C2 1_555 1_555
C4 C3 1_555 1_555
H6 C4 1_555 1_555
C5 C4 1_555 1_555
H7 C5 1_555 1_555
C6 C1 1_555 1_555
H8 C6 1_555 1_555
C7 C3 1_555 1_555
C8 C7 1_555 1_555
H9 C8 1_555 1_555
C9 C8 1_555 1_555
H10 C9 1_555 1_555
C10 N1 1_555 1_555
H11 C10 1_555 1_555
C11 C7 1_555 1_555
H12 C11 1_555 1_555
C12 C1 1_555 1_555
C13 C14 1_555 1_555
C14 H13 1_555 1_555
C15 C14 1_555 1_555
C16 C15 1_555 1_555
H14 C16 1_555 1_555
C17 C16 1_555 1_555
H15 C17 1_555 1_555
C18 C13 1_555 1_555
H16 C18 1_555 1_555
C19 C15 1_555 1_555
C20 C19 1_555 1_555
H17 C20 1_555 1_555
C21 C20 1_555 1_555
H18 C21 1_555 1_555
C22 N2 1_555 1_555
H19 C22 1_555 1_555
C23 C19 1_555 1_555
H20 C23 1_555 1_555
C24 O3 1_555 1_555
C25 C26 1_555 1_555
C26 H21 1_555 1_555
C27 C26 1_555 1_555
C28 C27 1_555 1_555
H22 C28 1_555 1_555
C29 C28 1_555 1_555
H23 C29 1_555 1_555
C30 C25 1_555 1_555
H24 C30 1_555 1_555
C31 C27 1_555 1_555
C32 C31 1_555 1_555
H25 C32 1_555 1_555
C33 C32 1_555 1_555
H26 C33 1_555 1_555
C34 N3 1_555 1_555
H27 C34 1_555 1_555
C35 C31 1_555 1_555
H28 C35 1_555 1_555
C36 O5 1_555 1_555
O9 H29 1_555 1_555
H30 O9 1_555 1_555
Nd1A O4 1_555 1_555
Nd1A_2 O2 1_555 1_555
O2A Nd1 1_555 1_555
O4A Nd1 1_555 1_555
O6 C36 1_555 1_555
C5 C6 1_555 1_555
C10 C11 1_555 1_555
C13 C24 1_555 1_555
C17 C18 1_555 1_555
C22 C23 1_555 1_555
C25 C36 1_555 1_555
C29 C30 1_555 1_555
C34 C35 1_555 1_555

#END
