
#######################################################################
#
#                 Cambridge Crystallographic Data Centre
#                                CCDC 
#
#######################################################################
#
# If this CIF has been generated from an entry in the Cambridge 
# Structural Database, then it will include bibliographic, chemical, 
# crystal, experimental, refinement or atomic coordinate data resulting 
# from the CCDC's data processing and validation procedures.
#
#######################################################################

data_PICWIJ
_symmetry_cell_setting           monoclinic
_symmetry_space_group_name_H-M   'C 2/c'
_symmetry_Int_Tables_number      15
_space_group_name_Hall           '-C 2yn'
loop_
_symmetry_equiv_pos_site_id
_symmetry_equiv_pos_as_xyz
1 x,y,z
2 -x,y,1/2-z
3 1/2+x,1/2+y,z
4 1/2-x,1/2+y,1/2-z
5 -x,-y,-z
6 x,-y,1/2+z
7 1/2-x,1/2-y,-z
8 1/2+x,1/2-y,1/2+z
_cell_length_a                   14.8192(5)
_cell_length_b                   11.0158(4)
_cell_length_c                   16.5703(7)
_cell_angle_alpha                90
_cell_angle_beta                 115.4720(10)
_cell_angle_gamma                90
_cell_volume                     2442.08
loop_
_atom_site_label
_atom_site_type_symbol
_atom_site_fract_x
_atom_site_fract_y
_atom_site_fract_z
Cu1 Cu 0.54078(2) 0.08502(3) 0.45901(2)
C1 C 0.3709(2) 0.1914(3) 0.3774(2)
C2 C 0.2619(2) 0.2228(3) 0.3420(2)
C3 C 0.2085(2) 0.1934(3) 0.3903(2)
H1 H 0.2410 0.1592 0.4469
C4 C 0.2128(2) 0.2778(3) 0.2591(2)
H2 H 0.2486 0.2984 0.2268
C5 C 0.1067(2) 0.2150(3) 0.3544(2)
H3 H 0.0715 0.1937 0.3871
C6 C 0.1108(2) 0.3027(3) 0.22342(18)
C7 C 0.05558(19) 0.2677(3) 0.27066(19)
C8 C 0.0660(2) 0.3729(3) 0.13814(19)
C9 C 0.6812(3) 0.0592(4) 0.3802(3)
H4 H 0.6237 0.0527 0.3268
C10 C 0.7576(3) 0.0994(4) 0.5305(3)
H5 H 0.7526 0.1220 0.5825
C11 C 0.8508(3) 0.0831(4) 0.5343(3)
H6 H 0.9073 0.0941 0.5880
C12 C 0.7737(3) 0.0422(4) 0.3799(3)
H7 H 0.7776 0.0252 0.3265
C13 C 0.8606(3) 0.0505(4) 0.4587(3)
C14 C 0.9583(3) 0.0136(5) 0.4628(3)
H8 H 0.9449 -0.0571 0.4244
H9 H 0.9775 0.0778 0.4333
N1 N 0.67306(19) 0.0846(2) 0.45586(19)
O1 O 0.40490(16) 0.1189(2) 0.44257(15)
O2 O 0.42287(18) 0.2334(3) 0.3422(2)
O3 O 0.09181(16) 0.3413(2) 0.07759(14)
O4 O 0.01009(15) 0.4601(2) 0.13507(14)
C1A C -0.3709(2) 0.1914(3) 0.1226(2)
C2A C -0.2619(2) 0.2228(3) 0.1580(2)
C3A C -0.2085(2) 0.1934(3) 0.1097(2)
H1A H -0.2410 0.1592 0.0531
C4A C -0.2128(2) 0.2778(3) 0.2409(2)
H2A H -0.2486 0.2984 0.2732
C5A C -0.1067(2) 0.2150(3) 0.1456(2)
H3A H -0.0715 0.1937 0.1129
C6A C -0.1108(2) 0.3027(3) 0.27658(18)
C7A C -0.05558(19) 0.2677(3) 0.22934(19)
C8A C -0.0660(2) 0.3729(3) 0.36186(19)
O1A O -0.40490(16) 0.1189(2) 0.05743(15)
O2A O -0.42287(18) 0.2334(3) 0.1578(2)
O3A O -0.09181(16) 0.3413(2) 0.42241(14)
O4A O -0.01009(15) 0.4601(2) 0.36493(14)
C9D C 1.3188(3) -0.0592(4) 0.6198(3)
H4D H 1.3763 -0.0527 0.6732
C10D C 1.2424(3) -0.0994(4) 0.4695(3)
H5D H 1.2474 -0.1220 0.4175
C11D C 1.1492(3) -0.0831(4) 0.4657(3)
H6D H 1.0927 -0.0941 0.4120
C12D C 1.2263(3) -0.0422(4) 0.6201(3)
H7D H 1.2224 -0.0252 0.6735
C13D C 1.1394(3) -0.0505(4) 0.5413(3)
C14D C 1.0417(3) -0.0136(5) 0.5372(3)
H8D H 1.0551 0.0571 0.5756
H9D H 1.0225 -0.0778 0.5667
N1D N 1.32694(19) -0.0846(2) 0.54414(19)
Cu1A Cu -0.54078(2) 0.08502(3) 0.04099(2)
Cu1B Cu 0.04078(2) 0.58502(3) 0.45901(2)
Cu1C Cu -0.04078(2) 0.58502(3) 0.04099(2)
Cu1D Cu 0.45922(2) -0.08502(3) 0.54099(2)
Cu1D_2 Cu 1.45922(2) -0.08502(3) 0.54099(2)
Cu1E Cu -0.45922(2) -0.08502(3) -0.04099(2)
Cu1F Cu -0.04078(2) 0.41498(3) 0.54099(2)
Cu1G Cu 0.04078(2) 0.41498(3) -0.04099(2)
N1A N -0.67306(19) 0.0846(2) 0.04414(19)
O1D O 0.59510(16) -0.1189(2) 0.55743(15)
O1E O -0.59510(16) -0.1189(2) -0.05743(15)
O3F O -0.59181(16) 0.1587(2) -0.07759(14)
O3G O 0.59181(16) 0.1587(2) 0.57759(14)
O4B O -0.48991(15) -0.0399(2) 0.13507(14)
O4C O 0.48991(15) -0.0399(2) 0.36493(14)
O5 O 0.5000 0.3820(9) 0.2500
H10 H 0.461(3) 0.331(3) 0.263(4)
H10A H 0.539(3) 0.331(3) 0.237(4)
loop_
_geom_bond_atom_site_label_1
_geom_bond_atom_site_label_2
_geom_bond_site_symmetry_1
_geom_bond_site_symmetry_2
Cu1 N1 1_555 1_555
C1 C2 1_555 1_555
C2 C3 1_555 1_555
C3 H1 1_555 1_555
C4 C2 1_555 1_555
H2 C4 1_555 1_555
C5 C3 1_555 1_555
H3 C5 1_555 1_555
C6 C4 1_555 1_555
C7 C5 1_555 1_555
C8 C6 1_555 1_555
C9 H4 1_555 1_555
C10 H5 1_555 1_555
C11 C10 1_555 1_555
H6 C11 1_555 1_555
C12 C9 1_555 1_555
H7 C12 1_555 1_555
C13 C11 1_555 1_555
C14 C13 1_555 1_555
H8 C14 1_555 1_555
H9 C14 1_555 1_555
N1 C9 1_555 1_555
O1 Cu1 1_555 1_555
O2 Cu1 1_555 1_555
O3 C8 1_555 1_555
O4 C8 1_555 1_555
O5 H10 1_555 1_555
C1A C2A 1_555 1_555
C2A C3A 1_555 1_555
C3A H1A 1_555 1_555
C4A C2A 1_555 1_555
H2A C4A 1_555 1_555
C5A C3A 1_555 1_555
H3A C5A 1_555 1_555
C6A C4A 1_555 1_555
C7A C7 1_555 1_555
C8A C6A 1_555 1_555
O1A C1A 1_555 1_555
O2A C1A 1_555 1_555
O3A C8A 1_555 1_555
O4A C8A 1_555 1_555
C9D H4D 1_555 1_555
C10D H5D 1_555 1_555
C11D C10D 1_555 1_555
H6D C11D 1_555 1_555
C12D C9D 1_555 1_555
H7D C12D 1_555 1_555
C13D C11D 1_555 1_555
C14D C14 1_555 1_555
H8D C14D 1_555 1_555
H9D C14D 1_555 1_555
N1D C9D 1_555 1_555
Cu1A O1A 1_555 1_555
Cu1B O4A 1_555 1_555
Cu1C O4 1_555 1_555
Cu1D O1 1_555 1_555
Cu1D_2 N1D 1_555 1_555
Cu1E O1A 1_555 1_555
Cu1F O3A 1_555 1_555
Cu1G O3 1_555 1_555
N1A Cu1A 1_555 1_555
O1D Cu1 1_555 1_555
O1E Cu1A 1_555 1_555
O3F Cu1A 1_555 1_555
O3G Cu1 1_555 1_555
O4B Cu1A 1_555 1_555
O4C Cu1 1_555 1_555
H10A O5 1_555 1_555
C1 O1 1_555 1_555
C1 O2 1_555 1_555
C6 C7 1_555 1_555
C10 N1 1_555 1_555
C12 C13 1_555 1_555
C5A C7A 1_555 1_555
C6A C7A 1_555 1_555
O2A Cu1A 1_555 1_555
C10D N1D 1_555 1_555
C12D C13D 1_555 1_555
C13D C14D 1_555 1_555
Cu1D O1D 1_555 1_555
Cu1E O1E 1_555 1_555

#END
