
#######################################################################
#
#                 Cambridge Crystallographic Data Centre
#                                CCDC 
#
#######################################################################
#
# If this CIF has been generated from an entry in the Cambridge 
# Structural Database, then it will include bibliographic, chemical, 
# crystal, experimental, refinement or atomic coordinate data resulting 
# from the CCDC's data processing and validation procedures.
#
#######################################################################

data_PIFBAI
_symmetry_cell_setting           monoclinic
_symmetry_space_group_name_H-M   'P 21/n'
_symmetry_Int_Tables_number      14
_space_group_name_Hall           '-P 2yn'
loop_
_symmetry_equiv_pos_site_id
_symmetry_equiv_pos_as_xyz
1 x,y,z
2 1/2-x,1/2+y,1/2-z
3 -x,-y,-z
4 1/2+x,1/2-y,1/2+z
_cell_length_a                   10.8389(9)
_cell_length_b                   6.7367(6)
_cell_length_c                   12.5802(11)
_cell_angle_alpha                90
_cell_angle_beta                 107.5460(10)
_cell_angle_gamma                90
_cell_volume                     875.849
loop_
_atom_site_label
_atom_site_type_symbol
_atom_site_fract_x
_atom_site_fract_y
_atom_site_fract_z
Mn1 Mn 0.82891(2) 0.18703(4) 0.54821(2)
O1 O 0.71670(11) 0.14416(19) 0.66411(10)
O2 O 0.51740(12) 0.1395(2) 0.68205(10)
O3 O 0.49076(11) 0.44584(19) 0.16752(9)
O4 O 0.69816(12) 0.3869(3) 0.25424(11)
O5 O 0.88499(15) 0.4806(2) 0.61302(11)
H1 H 0.9132 0.5107 0.6817
H2 H 0.9115 0.5538 0.5693
O6 O 0.91075(12) 0.26752(19) 0.41689(10)
H3 H 0.8465 0.3112 0.3650
H4 H 0.9509 0.1723 0.3977
O7 O 0.79141(12) -0.1105(2) 0.47093(10)
H5 H 0.7348 -0.1811 0.4875
H6 H 0.7905 -0.1167 0.4032
N1 N 0.62527(13) 0.2778(2) 0.45004(11)
N2 N 0.42098(14) 0.2723(2) 0.45785(11)
N3 N 0.42449(13) 0.3315(2) 0.35623(11)
H7 H 0.3578 0.3638 0.3019
C1 C 0.59476(16) 0.1698(2) 0.63011(14)
C2 C 0.54429(15) 0.2424(2) 0.51157(13)
C3 C 0.54639(16) 0.3330(2) 0.35194(14)
C4 C 0.58276(16) 0.3916(3) 0.25006(14)
Mn1C Mn 0.32891(2) 0.31297(4) 0.04821(2)
O3C O 0.99076(11) 0.05416(19) 0.66752(9)
loop_
_geom_bond_atom_site_label_1
_geom_bond_atom_site_label_2
_geom_bond_site_symmetry_1
_geom_bond_site_symmetry_2
Mn1 O1 1_555 1_555
O1 C1 1_555 1_555
O2 C1 1_555 1_555
O3 C4 1_555 1_555
O4 C4 1_555 1_555
O5 Mn1 1_555 1_555
H1 O5 1_555 1_555
H2 O5 1_555 1_555
O6 Mn1 1_555 1_555
H3 O6 1_555 1_555
H4 O6 1_555 1_555
O7 Mn1 1_555 1_555
H5 O7 1_555 1_555
H6 O7 1_555 1_555
N1 Mn1 1_555 1_555
N2 N3 1_555 1_555
N3 H7 1_555 1_555
C1 C2 1_555 1_555
C2 N1 1_555 1_555
C3 N1 1_555 1_555
C4 C3 1_555 1_555
Mn1C O3 1_555 1_555
O3C Mn1 1_555 1_555
N2 C2 1_555 1_555
N3 C3 1_555 1_555

#END
