
#######################################################################
#
#                 Cambridge Crystallographic Data Centre
#                                CCDC 
#
#######################################################################
#
# If this CIF has been generated from an entry in the Cambridge 
# Structural Database, then it will include bibliographic, chemical, 
# crystal, experimental, refinement or atomic coordinate data resulting 
# from the CCDC's data processing and validation procedures.
#
#######################################################################

data_PIFYOU
_symmetry_cell_setting           monoclinic
_symmetry_space_group_name_H-M   'P n'
_symmetry_Int_Tables_number      7
_space_group_name_Hall           'P -2yac'
loop_
_symmetry_equiv_pos_site_id
_symmetry_equiv_pos_as_xyz
1 x,y,z
2 1/2+x,-y,1/2+z
_cell_length_a                   22.3115(7)
_cell_length_b                   7.5524(2)
_cell_length_c                   22.3318(6)
_cell_angle_alpha                90
_cell_angle_beta                 94.1760(10)
_cell_angle_gamma                90
_cell_volume                     3753.04
loop_
_atom_site_label
_atom_site_type_symbol
_atom_site_fract_x
_atom_site_fract_y
_atom_site_fract_z
Mn1 Mn 0.91356(4) 0.51688(15) -0.21083(4)
Mn2 Mn 0.73642(4) 0.55413(11) -0.13801(3)
Mn3 Mn 0.66373(4) 0.53657(11) 0.04023(4)
Mn4 Mn 0.48531(5) 0.51500(18) 0.11186(4)
O1 O 0.9192(2) 0.2373(5) -0.2001(2)
H1 H 0.8881(14) 0.177(6) -0.201(2)
H2 H 0.9452(17) 0.158(5) -0.196(2)
O2 O 1.0072(2) 0.5376(8) -0.2055(2)
H3 H 1.031(2) 0.519(8) -0.1762(17)
H4 H 1.022(2) 0.473(5) -0.2305(19)
O3 O 0.9117(2) 0.7994(5) -0.2175(2)
H5 H 0.8857(16) 0.877(5) -0.221(2)
H6 H 0.9348(18) 0.857(6) -0.2371(17)
O4 O 0.8360(2) 0.4939(6) -0.27782(19)
O5 O 0.9195(2) 0.5000(6) -0.3243(2)
C1 C 0.8629(3) 0.4944(7) -0.3240(3)
C2 C 0.8275(3) 0.4975(8) -0.3836(3)
O6 O 0.8552(2) 0.5002(6) -0.4339(2)
C3 C 0.8131(3) 0.5041(7) -0.4816(3)
C4 C 0.7578(4) 0.5041(11) -0.4591(3)
H7 H 0.7209 0.5098 -0.4812
C5 C 0.7678(4) 0.4937(10) -0.3942(3)
H8 H 0.7390 0.4860 -0.3662
C6 C 0.8277(3) 0.5048(8) -0.5437(3)
O7 O 0.7869(3) 0.5128(7) -0.5828(2)
O8 O 0.8819(3) 0.5069(10) -0.5539(2)
O9 O 0.84944(19) 0.5343(5) -0.14494(17)
O10 O 0.8044(2) 0.5412(7) -0.06098(19)
C7 C 0.8519(3) 0.5282(7) -0.0870(3)
C8 C 0.9091(3) 0.5124(8) -0.0525(3)
O11 O 0.96024(19) 0.5083(5) -0.08015(19)
C9 C 1.0068(3) 0.4831(9) -0.0368(3)
C10 C 0.9833(3) 0.4633(12) 0.0162(3)
H9 H 1.0050 0.4358 0.0521
C11 C 0.9215(3) 0.4901(10) 0.0094(3)
H10 H 0.8946 0.4926 0.0392
C12 C 1.0677(3) 0.4817(7) -0.0532(3)
O12 O 1.1082(2) 0.4481(7) -0.0134(2)
O13 O 1.0796(2) 0.5101(6) -0.1078(2)
O14 O 0.7259(2) 0.2736(5) -0.14392(18)
H11 H 0.7516(16) 0.241(6) -0.1176(16)
H12 H 0.720(2) 0.208(6) -0.1737(15)
O15 O 0.7375(3) 0.8372(5) -0.1392(2)
H13 H 0.749(2) 0.887(8) -0.1073(15)
H14 H 0.741(2) 0.904(6) -0.1684(15)
O16 O 0.73079(19) 0.5687(8) -0.23145(17)
H15 H 0.7608(15) 0.559(6) -0.251(2)
H16 H 0.7013(15) 0.577(8) -0.2563(18)
O17 O 0.67074(17) 0.5640(5) -0.07395(17)
O18 O 0.58734(19) 0.5472(6) -0.02739(18)
C13 C 0.6139(2) 0.5504(7) -0.0745(2)
C14 C 0.5787(3) 0.5376(8) -0.1328(2)
O19 O 0.6059(2) 0.5499(6) -0.18368(18)
C15 C 0.5641(3) 0.5341(7) -0.2311(3)
C16 C 0.5094(4) 0.5131(11) -0.2089(3)
H17 H 0.4727 0.4994 -0.2311
C17 C 0.5194(3) 0.5162(10) -0.1442(3)
H18 H 0.4906 0.5055 -0.1164
C18 C 0.5789(3) 0.5470(8) -0.2933(3)
O20 O 0.5377(3) 0.5262(7) -0.3325(2)
O21 O 0.6323(2) 0.5894(8) -0.3035(2)
O22 O 0.6674(2) 0.8147(5) 0.0523(3)
H19 H 0.6941(17) 0.889(5) 0.047(3)
H20 H 0.6414(18) 0.881(7) 0.036(2)
O23 O 0.6635(2) 0.2533(5) 0.0338(3)
H21 H 0.6315(15) 0.197(7) 0.033(3)
H22 H 0.688(2) 0.201(6) 0.014(2)
O24 O 0.7574(3) 0.5321(8) 0.0463(2)
H23 H 0.779(2) 0.466(6) 0.068(2)
H24 H 0.773(2) 0.558(6) 0.0151(15)
O25 O 0.5986(2) 0.5192(5) 0.10518(18)
O26 O 0.5532(2) 0.5403(7) 0.1888(2)
C19 C 0.6008(3) 0.5331(7) 0.1625(3)
C20 C 0.6586(3) 0.5354(8) 0.1977(2)
O27 O 0.7093(2) 0.5147(5) 0.1702(2)
C21 C 0.7558(3) 0.5229(8) 0.2140(3)
C22 C 0.7335(3) 0.5483(11) 0.2668(3)
H25 H 0.7562 0.5572 0.3033
C23 C 0.6707(3) 0.5597(9) 0.2594(2)
H26 H 0.6437 0.5789 0.2886
C24 C 0.8170(3) 0.4973(7) 0.1979(3)
O28 O 0.8277(3) 0.4589(8) 0.1442(2)
O29 O 0.8585(2) 0.5088(7) 0.2373(2)
O30 O 0.4861(3) 0.2337(7) 0.1100(2)
H27 H 0.500(3) 0.181(8) 0.1410(18)
H28 H 0.480(2) 0.172(6) 0.0793(16)
O31 O 0.4754(3) 0.7929(6) 0.1073(2)
H29 H 0.4977(19) 0.846(7) 0.1329(18)
H30 H 0.473(2) 0.861(6) 0.0782(16)
O32 O 0.4799(2) 0.5027(7) 0.0184(2)
H31 H 0.5089(17) 0.488(6) -0.002(2)
H32 H 0.4504(16) 0.484(6) -0.005(2)
Mn4A Mn 0.98531(5) 0.48500(18) -0.38814(4)
O5A O 0.4195(2) 0.5000(6) 0.1757(2)
Mn5 Mn 0.36953(5) 0.99000(16) -0.16599(4)
Mn6 Mn 0.19122(4) 0.98008(12) -0.09426(4)
Mn7 Mn 0.11856(5) 0.94781(13) 0.08389(4)
Mn8 Mn -0.05855(4) 0.98714(16) 0.15691(4)
O33 O 0.3733(3) 1.2692(6) -0.1650(2)
H33 H 0.366(3) 1.331(8) -0.1955(18)
H34 H 0.3484(18) 1.312(7) -0.143(2)
O34 O 0.3727(3) 0.9919(9) -0.0719(2)
H35 H 0.350(2) 0.938(7) -0.051(3)
H36 H 0.4033(18) 0.952(7) -0.053(3)
O35 O 0.3738(3) 0.7077(6) -0.1635(2)
H37 H 0.374(3) 0.646(7) -0.1945(16)
H38 H 0.358(2) 0.656(7) -0.1358(19)
O36 O 0.3027(2) 0.9739(6) -0.2421(2)
O37 O 0.2557(2) 1.0002(5) -0.1605(2)
C25 C 0.2548(3) 0.9843(7) -0.2151(3)
C26 C 0.1979(3) 0.9726(8) -0.2530(3)
O38 O 0.1454(2) 0.9980(6) -0.2236(2)
C27 C 0.0994(3) 0.9859(8) -0.2673(3)
C28 C 0.1212(3) 0.9524(10) -0.3229(3)
H39 H 0.0997 0.9356 -0.3597
C29 C 0.1859(3) 0.9498(11) -0.3093(3)
H40 H 0.2142 0.9341 -0.3373
C30 C 0.0360(3) 1.0099(7) -0.2495(3)
O39 O 0.0278(2) 1.0580(8) -0.1990(2)
O40 O -0.0047(2) 0.9772(6) -0.2918(2)
O41 O 0.1869(2) 0.7003(6) -0.1081(2)
H41 H 0.2195(13) 0.649(7) -0.102(2)
H42 H 0.1528(10) 0.661(6) -0.104(2)
O42 O 0.1907(3) 1.2580(6) -0.0880(3)
H43 H 0.218(2) 1.330(8) -0.078(3)
H44 H 0.166(2) 1.337(7) -0.082(3)
O43 O 0.0973(2) 0.9936(7) -0.0993(2)
H45 H 0.075(2) 1.029(6) -0.0738(19)
H46 H 0.076(2) 0.988(7) -0.1311(16)
O44 O 0.2666(2) 0.9650(8) -0.0267(2)
O45 O 0.1844(2) 0.9446(6) 0.01940(18)
C31 C 0.2399(3) 0.9586(9) 0.0220(3)
C32 C 0.2786(3) 0.9667(9) 0.0776(3)
O46 O 0.2484(2) 0.9500(6) 0.13052(18)
C33 C 0.2944(3) 0.9666(8) 0.1750(2)
C34 C 0.3472(4) 0.9917(11) 0.1525(3)
H47 H 0.3840 1.0047 0.1745
C35 C 0.3381(3) 0.9950(11) 0.0905(3)
H48 H 0.3670 1.0130 0.0632
C36 C 0.2749(3) 0.9512(8) 0.2383(3)
O47 O 0.2246(2) 0.9067(8) 0.2481(2)
O48 O 0.3158(2) 0.9851(5) 0.2801(2)
O49 O 0.1168(3) 0.6670(6) 0.0841(2)
H49 H 0.116(3) 0.610(8) 0.0520(17)
H50 H 0.0930(19) 0.628(7) 0.107(2)
O50 O 0.1273(3) 1.2238(6) 0.0873(2)
H51 H 0.116(3) 1.297(7) 0.112(2)
H52 H 0.125(3) 1.299(6) 0.0597(19)
O51 O 0.1222(2) 0.9238(8) 0.1778(2)
H53 H 0.109(3) 1.016(4) 0.193(2)
H54 H 0.1576(10) 0.907(9) 0.191(2)
O52 O 0.0517(2) 0.9699(7) 0.0081(2)
O53 O 0.0038(2) 0.9628(7) 0.0898(2)
C37 C 0.0038(3) 0.9723(8) 0.0357(3)
C38 C -0.0530(3) 0.9954(8) -0.0032(3)
O54 O -0.1053(2) 0.9982(6) 0.0265(2)
C39 C -0.1502(3) 1.0229(8) -0.0172(3)
C40 C -0.1288(3) 1.0289(11) -0.0729(3)
H55 H -0.1504 1.0392 -0.1100
C41 C -0.0640(3) 1.0152(11) -0.0603(3)
H56 H -0.0355 1.0199 -0.0886
C42 C -0.2145(3) 1.0349(8) 0.0009(3)
O55 O -0.2239(3) 1.0106(9) 0.0523(3)
O56 O -0.2543(2) 1.0588(6) -0.0414(2)
O57 O -0.0579(3) 0.7088(7) 0.1613(4)
H57 H -0.0241(14) 0.668(8) 0.171(3)
H58 H -0.0885(18) 0.646(8) 0.160(3)
O58 O -0.0646(2) 1.2662(7) 0.1440(2)
H59 H -0.042(2) 1.321(7) 0.1682(17)
H60 H -0.0976(13) 1.298(7) 0.155(2)
O59 O -0.1527(2) 0.9628(8) 0.1522(2)
H61 H -0.175(2) 0.966(6) 0.1807(18)
H62 H -0.168(3) 0.946(8) 0.1177(12)
O60 O 0.0185(2) 1.0128(7) 0.2235(2)
O61 O -0.0648(2) 1.0092(6) 0.2695(2)
C43 C -0.0087(3) 1.0066(7) 0.2726(3)
C44 C 0.0296(3) 1.0021(7) 0.3275(3)
O62 O -0.0008(2) 0.9977(6) 0.3808(2)
C45 C 0.0454(3) 0.9886(8) 0.4253(3)
C46 C 0.0992(3) 0.9878(10) 0.4033(3)
H63 H 0.1361 0.9837 0.4254
C47 C 0.0899(3) 0.9941(9) 0.3412(3)
H64 H 0.1195 0.9931 0.3140
C48 C 0.0248(3) 0.9879(8) 0.4888(3)
O63 O -0.0261(3) 1.0239(9) 0.4989(2)
O64 O 0.0667(2) 0.9631(6) 0.5302(2)
Mn5A Mn -0.13047(5) 1.01000(16) 0.33401(4)
O61A O 0.4352(2) 0.9908(6) -0.2305(2)
loop_
_geom_bond_atom_site_label_1
_geom_bond_atom_site_label_2
_geom_bond_site_symmetry_1
_geom_bond_site_symmetry_2
Mn1 O1 1_555 1_555
Mn2 O10 1_555 1_555
Mn3 O18 1_555 1_555
Mn4 O26 1_555 1_555
O1 H1 1_555 1_555
H2 O1 1_555 1_555
O2 Mn1 1_555 1_555
H3 O2 1_555 1_555
H4 O2 1_555 1_555
O3 Mn1 1_555 1_555
H5 O3 1_555 1_555
H6 O3 1_555 1_555
O4 Mn1 1_555 1_555
O5 C1 1_555 1_555
C1 O4 1_555 1_555
C2 C1 1_555 1_555
O6 C2 1_555 1_555
C3 O6 1_555 1_555
C4 C3 1_555 1_555
H7 C4 1_555 1_555
C5 C2 1_555 1_555
H8 C5 1_555 1_555
C6 C3 1_555 1_555
O7 C6 1_555 1_555
O8 C6 1_555 1_555
O9 Mn1 1_555 1_555
O10 C7 1_555 1_555
C7 O9 1_555 1_555
C8 C7 1_555 1_555
O11 C8 1_555 1_555
C9 O11 1_555 1_555
C10 C9 1_555 1_555
H9 C10 1_555 1_555
C11 C8 1_555 1_555
H10 C11 1_555 1_555
C12 C9 1_555 1_555
O12 C12 1_555 1_555
O13 C12 1_555 1_555
O14 Mn2 1_555 1_555
H11 O14 1_555 1_555
H12 O14 1_555 1_555
O15 Mn2 1_555 1_555
H13 O15 1_555 1_555
H14 O15 1_555 1_555
O16 Mn2 1_555 1_555
H15 O16 1_555 1_555
H16 O16 1_555 1_555
O17 Mn2 1_555 1_555
O18 C13 1_555 1_555
C13 O17 1_555 1_555
C14 C13 1_555 1_555
O19 C14 1_555 1_555
C15 O19 1_555 1_555
C16 C15 1_555 1_555
H17 C16 1_555 1_555
C17 C14 1_555 1_555
H18 C17 1_555 1_555
C18 C15 1_555 1_555
O20 C18 1_555 1_555
O21 C18 1_555 1_555
O22 Mn3 1_555 1_555
H19 O22 1_555 1_555
H20 O22 1_555 1_555
O23 Mn3 1_555 1_555
H21 O23 1_555 1_555
H22 O23 1_555 1_555
O24 Mn3 1_555 1_555
H23 O24 1_555 1_555
H24 O24 1_555 1_555
O25 Mn3 1_555 1_555
O26 C19 1_555 1_555
C19 O25 1_555 1_555
C20 C19 1_555 1_555
O27 C20 1_555 1_555
C21 O27 1_555 1_555
C22 C21 1_555 1_555
H25 C22 1_555 1_555
C23 C20 1_555 1_555
H26 C23 1_555 1_555
C24 C21 1_555 1_555
O28 C24 1_555 1_555
O29 C24 1_555 1_555
O30 Mn4 1_555 1_555
H27 O30 1_555 1_555
H28 O30 1_555 1_555
O31 Mn4 1_555 1_555
H29 O31 1_555 1_555
H30 O31 1_555 1_555
O32 Mn4 1_555 1_555
H31 O32 1_555 1_555
H32 O32 1_555 1_555
Mn5 O33 1_555 1_555
Mn6 O37 1_555 1_555
Mn7 O45 1_555 1_555
Mn8 O53 1_555 1_555
O33 H33 1_555 1_555
H34 O33 1_555 1_555
O34 Mn5 1_555 1_555
H35 O34 1_555 1_555
H36 O34 1_555 1_555
O35 Mn5 1_555 1_555
H37 O35 1_555 1_555
H38 O35 1_555 1_555
O36 Mn5 1_555 1_555
O37 C25 1_555 1_555
C25 O36 1_555 1_555
C26 C25 1_555 1_555
O38 C26 1_555 1_555
C27 O38 1_555 1_555
C28 C27 1_555 1_555
H39 C28 1_555 1_555
C29 C26 1_555 1_555
H40 C29 1_555 1_555
C30 C27 1_555 1_555
O39 C30 1_555 1_555
O40 C30 1_555 1_555
O41 Mn6 1_555 1_555
H41 O41 1_555 1_555
H42 O41 1_555 1_555
O42 Mn6 1_555 1_555
H43 O42 1_555 1_555
H44 O42 1_555 1_555
O43 Mn6 1_555 1_555
H45 O43 1_555 1_555
H46 O43 1_555 1_555
O44 Mn6 1_555 1_555
O45 C31 1_555 1_555
C31 O44 1_555 1_555
C32 C31 1_555 1_555
O46 C32 1_555 1_555
C33 O46 1_555 1_555
C34 C33 1_555 1_555
H47 C34 1_555 1_555
C35 C32 1_555 1_555
H48 C35 1_555 1_555
C36 C33 1_555 1_555
O47 C36 1_555 1_555
O48 C36 1_555 1_555
O49 Mn7 1_555 1_555
H49 O49 1_555 1_555
H50 O49 1_555 1_555
O50 Mn7 1_555 1_555
H51 O50 1_555 1_555
H52 O50 1_555 1_555
O51 Mn7 1_555 1_555
H53 O51 1_555 1_555
H54 O51 1_555 1_555
O52 Mn7 1_555 1_555
O53 C37 1_555 1_555
C37 O52 1_555 1_555
C38 C37 1_555 1_555
O54 C38 1_555 1_555
C39 O54 1_555 1_555
C40 C39 1_555 1_555
H55 C40 1_555 1_555
C41 C38 1_555 1_555
H56 C41 1_555 1_555
C42 C39 1_555 1_555
O55 C42 1_555 1_555
O56 C42 1_555 1_555
O57 Mn8 1_555 1_555
H57 O57 1_555 1_555
H58 O57 1_555 1_555
O58 Mn8 1_555 1_555
H59 O58 1_555 1_555
H60 O58 1_555 1_555
O59 Mn8 1_555 1_555
H61 O59 1_555 1_555
H62 O59 1_555 1_555
O60 Mn8 1_555 1_555
O61 C43 1_555 1_555
C43 O60 1_555 1_555
C44 C43 1_555 1_555
O62 C44 1_555 1_555
C45 O62 1_555 1_555
C46 C45 1_555 1_555
H63 C46 1_555 1_555
C47 C44 1_555 1_555
H64 C47 1_555 1_555
C48 C45 1_555 1_555
O63 C48 1_555 1_555
O64 C48 1_555 1_555
Mn4A O5 1_555 1_555
O5A Mn4 1_555 1_555
Mn5A O61 1_555 1_555
O61A Mn5 1_555 1_555
C4 C5 1_555 1_555
C10 C11 1_555 1_555
C16 C17 1_555 1_555
C22 C23 1_555 1_555
C28 C29 1_555 1_555
C34 C35 1_555 1_555
C40 C41 1_555 1_555
C46 C47 1_555 1_555

#END
