
#######################################################################
#
#                 Cambridge Crystallographic Data Centre
#                                CCDC 
#
#######################################################################
#
# If this CIF has been generated from an entry in the Cambridge 
# Structural Database, then it will include bibliographic, chemical, 
# crystal, experimental, refinement or atomic coordinate data resulting 
# from the CCDC's data processing and validation procedures.
#
#######################################################################

data_PIGMOJ
_symmetry_cell_setting           triclinic
_symmetry_space_group_name_H-M   'P -1'
_symmetry_Int_Tables_number      2
_space_group_name_Hall           '-P 1'
loop_
_symmetry_equiv_pos_site_id
_symmetry_equiv_pos_as_xyz
1 x,y,z
2 -x,-y,-z
_cell_length_a                   11.3776(7)
_cell_length_b                   12.6211(9)
_cell_length_c                   12.6793(8)
_cell_angle_alpha                90.229(6)
_cell_angle_beta                 107.558(6)
_cell_angle_gamma                104.589(6)
_cell_volume                     1673.6
loop_
_atom_site_label
_atom_site_type_symbol
_atom_site_fract_x
_atom_site_fract_y
_atom_site_fract_z
Cl1 Cl 0.6212(2) 0.30949(15) 0.26431(18)
O5 O 0.7049(7) 0.3378(6) 0.3737(5)
O6 O 0.5950(7) 0.1947(4) 0.2379(6)
O7 O 0.6802(5) 0.3643(4) 0.1903(4)
O8 O 0.5063(6) 0.3384(5) 0.2519(7)
Cu1 Cu 0.0000 0.0000 0.0000
Cu2 Cu 0.01178(7) 0.23368(5) -0.10614(6)
Cu3 Cu 0.06146(7) 0.12139(6) 0.24470(6)
N1 N -0.0027(5) 0.1028(4) -0.1919(4)
N2 N 0.0428(5) 0.3204(4) -0.2327(4)
N3 N -0.2011(5) 0.2224(4) -0.1408(4)
N4 N -0.7792(5) 0.0601(4) -0.0138(4)
N5 N 0.0620(5) 0.2057(4) 0.1182(4)
N6 N 0.0464(5) 0.2561(4) 0.3209(4)
N7 N 0.2368(5) 0.1047(4) 0.3749(4)
O1 O 0.0507(4) -0.0059(3) -0.3029(3)
O2 O -0.0673(4) 0.0038(3) -0.1622(3)
O3 O 0.0853(4) 0.3503(3) 0.0153(3)
O4 O -0.0014(4) 0.1471(3) 0.0148(3)
C1 C 0.0572(6) 0.0889(5) -0.2612(5)
C2 C 0.1472(6) 0.1865(5) -0.2817(5)
C3 C 0.2439(6) 0.1660(5) -0.3162(5)
H1 H 0.2430 0.0921 -0.3321
C4 C 0.3417(7) 0.2497(5) -0.3283(5)
H2 H 0.4085 0.2339 -0.3506
C5 C 0.3416(7) 0.3550(5) -0.3081(6)
H3 H 0.4082 0.4137 -0.3168
C6 C 0.2454(7) 0.3772(5) -0.2748(5)
H4 H 0.2466 0.4514 -0.2602
C7 C 0.1484(6) 0.2948(5) -0.2624(5)
C8 C -0.0747(7) 0.2917(6) -0.3317(5)
H5 H -0.0576 0.3322 -0.3936
H6 H -0.1447 0.3115 -0.3135
H7 H -0.0990 0.2125 -0.3530
C9 C 0.0674(8) 0.4370(5) -0.1969(6)
H8 H 0.1472 0.4598 -0.1349
H9 H -0.0034 0.4476 -0.1729
H10 H 0.0748 0.4815 -0.2589
C10 C 0.0992(6) 0.3092(5) 0.1097(5)
C11 C 0.1642(6) 0.3798(5) 0.2133(5)
C12 C 0.2470(6) 0.4758(5) 0.2093(6)
H11 H 0.2584 0.4945 0.1398
C13 C 0.3157(7) 0.5477(5) 0.3015(6)
H12 H 0.3754 0.6139 0.2966
C14 C 0.2961(7) 0.5218(5) 0.3996(6)
H13 H 0.3431 0.5700 0.4646
C15 C 0.2097(7) 0.4273(5) 0.4056(5)
H14 H 0.1957 0.4116 0.4747
C16 C 0.1428(6) 0.3547(5) 0.3147(5)
C17 C -0.0817(6) 0.2674(5) 0.2669(5)
H15 H -0.0958 0.3278 0.3060
H16 H -0.1448 0.1989 0.2687
H17 H -0.0909 0.2830 0.1896
C18 C 0.0516(7) 0.2316(5) 0.4362(5)
H18 H 0.1380 0.2277 0.4780
H19 H -0.0098 0.1611 0.4350
H20 H 0.0300 0.2899 0.4718
C19 C -0.2290(6) 0.2829(5) -0.0690(5)
H21 H -0.1669 0.3482 -0.0319
C20 C -0.3429(6) 0.2546(5) -0.0471(5)
H22 H -0.3582 0.2994 0.0050
C21 C -0.4349(6) 0.1617(5) -0.1004(5)
C22 C -0.5555(7) 0.1252(5) -0.0733(5)
C23 C -0.5999(7) 0.1984(5) -0.0227(5)
H23 H -0.5538 0.2737 -0.0077
C24 C -0.7084(7) 0.1626(5) 0.0052(5)
H24 H -0.7351 0.2145 0.0405
C25 C -0.7389(6) -0.0096(5) -0.0644(5)
H25 H -0.7880 -0.0842 -0.0792
C26 C -0.6325(6) 0.0189(5) -0.0962(5)
H26 H -0.6108 -0.0345 -0.1344
C27 C -0.4075(6) 0.1008(5) -0.1769(5)
H27 H -0.4693 0.0371 -0.2179
C28 C -0.2908(6) 0.1338(5) -0.1923(5)
H28 H -0.2728 0.0901 -0.2435
C29 C 0.2279(7) 0.0236(5) 0.4406(5)
H29 H 0.1486 -0.0062 0.4536
C30 C 0.3288(7) -0.0192(5) 0.4906(5)
H30 H 0.3175 -0.0782 0.5360
C31 C 0.4462(6) 0.0226(5) 0.4756(5)
C32 C 0.4559(7) 0.1085(6) 0.4126(7)
H31 H 0.5358 0.1429 0.4025
C33 C 0.3487(7) 0.1470(6) 0.3620(6)
H32 H 0.3575 0.2062 0.3165
N7A N 0.7632(5) -0.1047(4) 0.6251(4)
C29A C 0.7721(7) -0.0236(5) 0.5594(5)
H29A H 0.8514 0.0062 0.5464
C30A C 0.6712(7) 0.0192(5) 0.5094(5)
H30A H 0.6825 0.0782 0.4640
C31A C 0.5538(6) -0.0226(5) 0.5244(5)
C32A C 0.5441(7) -0.1085(6) 0.5874(7)
H31A H 0.4642 -0.1429 0.5975
C33A C 0.6513(7) -0.1470(6) 0.6380(6)
H32A H 0.6425 -0.2062 0.6835
Cu2A Cu -1.01178(7) -0.23368(5) 0.10614(6)
Cu3A Cu -1.06146(7) -0.12139(6) -0.24470(6)
N1A N -0.9973(5) -0.1028(4) 0.1919(4)
N2A N -1.0428(5) -0.3204(4) 0.2327(4)
N3A N -0.7989(5) -0.2224(4) 0.1408(4)
N4A N -0.2208(5) -0.0601(4) 0.0138(4)
N5A N -1.0620(5) -0.2057(4) -0.1182(4)
N6A N -1.0464(5) -0.2561(4) -0.3209(4)
O1A O -1.0507(4) 0.0059(3) 0.3029(3)
O2A O -0.9327(4) -0.0038(3) 0.1622(3)
O3A O -1.0853(4) -0.3503(3) -0.0153(3)
O4A O -0.9986(4) -0.1471(3) -0.0148(3)
C1A C -1.0572(6) -0.0889(5) 0.2612(5)
C2A C -1.1472(6) -0.1865(5) 0.2817(5)
C3A C -1.2439(6) -0.1660(5) 0.3162(5)
H1A H -1.2430 -0.0921 0.3321
C4A C -1.3417(7) -0.2497(5) 0.3283(5)
H2A H -1.4085 -0.2339 0.3506
C5A C -1.3416(7) -0.3550(5) 0.3081(6)
H3A H -1.4082 -0.4137 0.3168
C6A C -1.2454(7) -0.3772(5) 0.2748(5)
H4A H -1.2466 -0.4514 0.2602
C7A C -1.1484(6) -0.2948(5) 0.2624(5)
C8A C -0.9253(7) -0.2917(6) 0.3317(5)
H5A H -0.9424 -0.3322 0.3936
H6A H -0.8553 -0.3115 0.3135
H7A H -0.9010 -0.2125 0.3530
C9A C -1.0674(8) -0.4370(5) 0.1969(6)
H8A H -1.1472 -0.4598 0.1349
H9A H -0.9966 -0.4476 0.1729
H10A H -1.0748 -0.4815 0.2589
C10A C -1.0992(6) -0.3092(5) -0.1097(5)
C11A C -1.1642(6) -0.3798(5) -0.2133(5)
C12A C -1.2470(6) -0.4758(5) -0.2093(6)
H11A H -1.2584 -0.4945 -0.1398
C13A C -1.3157(7) -0.5477(5) -0.3015(6)
H12A H -1.3754 -0.6139 -0.2966
C14A C -1.2961(7) -0.5218(5) -0.3996(6)
H13A H -1.3431 -0.5700 -0.4646
C15A C -1.2097(7) -0.4273(5) -0.4056(5)
H14A H -1.1957 -0.4116 -0.4747
C16A C -1.1428(6) -0.3547(5) -0.3147(5)
C17A C -0.9183(6) -0.2674(5) -0.2669(5)
H15A H -0.9042 -0.3278 -0.3060
H16A H -0.8552 -0.1989 -0.2687
H17A H -0.9091 -0.2830 -0.1896
C18A C -1.0516(7) -0.2316(5) -0.4362(5)
H18A H -1.1380 -0.2277 -0.4780
H19A H -0.9902 -0.1611 -0.4350
H20A H -1.0300 -0.2899 -0.4718
C19A C -0.7710(6) -0.2829(5) 0.0690(5)
H21A H -0.8331 -0.3482 0.0319
C20A C -0.6571(6) -0.2546(5) 0.0471(5)
H22A H -0.6418 -0.2994 -0.0050
C21A C -0.5651(6) -0.1617(5) 0.1004(5)
C22A C -0.4445(7) -0.1252(5) 0.0733(5)
C23A C -0.4001(7) -0.1984(5) 0.0227(5)
H23A H -0.4462 -0.2737 0.0077
C24A C -0.2916(7) -0.1626(5) -0.0052(5)
H24A H -0.2649 -0.2145 -0.0405
C25A C -0.2611(6) 0.0096(5) 0.0644(5)
H25A H -0.2120 0.0842 0.0792
C26A C -0.3675(6) -0.0189(5) 0.0962(5)
H26A H -0.3892 0.0345 0.1344
C27A C -0.5925(6) -0.1008(5) 0.1769(5)
H27A H -0.5307 -0.0371 0.2179
C28A C -0.7092(6) -0.1338(5) 0.1923(5)
H28A H -0.7272 -0.0901 0.2435
Cu1_2 Cu -1.0000 0.0000 0.0000
Cu3_2 Cu -0.93854(7) 0.12139(6) 0.24470(6)
Cu3A_2 Cu -0.06146(7) -0.12139(6) -0.24470(6)
Cu3A_3 Cu 0.93854(7) -0.12139(6) 0.75530(6)
N4_2 N 0.2208(5) 0.0601(4) -0.0138(4)
N7A_2 N -1.2368(5) -0.1047(4) -0.3749(4)
O1_2 O -0.9493(4) -0.0059(3) -0.3029(3)
O1A_2 O -0.0507(4) 0.0059(3) 0.3029(3)
O2_2 O -1.0673(4) 0.0038(3) -0.1622(3)
O2A_2 O 0.0673(4) -0.0038(3) 0.1622(3)
O4A_2 O 0.0014(4) -0.1471(3) -0.0148(3)
O9? O 0.4574(9) 0.4906(7) 0.0330(7)
loop_
_geom_bond_atom_site_label_1
_geom_bond_atom_site_label_2
_geom_bond_site_symmetry_1
_geom_bond_site_symmetry_2
Cu1 O2 1_555 1_555
Cu2 N1 1_555 1_555
Cu3 N5 1_555 1_555
N1 O2 1_555 1_555
N2 Cu2 1_555 1_555
N3 Cu2 1_555 1_555
N4 C24 1_555 1_555
N5 O4 1_555 1_555
N6 Cu3 1_555 1_555
N7 Cu3 1_555 1_555
O1 C1 1_555 1_555
O2 Cu3A_2 1_555 1_555
O3 Cu2 1_555 1_555
O4 Cu1 1_555 1_555
C1 N1 1_555 1_555
C2 C1 1_555 1_555
C3 C2 1_555 1_555
H1 C3 1_555 1_555
C4 C3 1_555 1_555
H2 C4 1_555 1_555
C5 C4 1_555 1_555
H3 C5 1_555 1_555
C6 C5 1_555 1_555
H4 C6 1_555 1_555
C7 N2 1_555 1_555
C8 N2 1_555 1_555
H5 C8 1_555 1_555
H6 C8 1_555 1_555
H7 C8 1_555 1_555
C9 N2 1_555 1_555
H8 C9 1_555 1_555
H9 C9 1_555 1_555
H10 C9 1_555 1_555
C10 N5 1_555 1_555
C11 C10 1_555 1_555
C12 C11 1_555 1_555
H11 C12 1_555 1_555
C13 C12 1_555 1_555
H12 C13 1_555 1_555
C14 C13 1_555 1_555
H13 C14 1_555 1_555
C15 C14 1_555 1_555
H14 C15 1_555 1_555
C16 N6 1_555 1_555
C17 N6 1_555 1_555
H15 C17 1_555 1_555
H16 C17 1_555 1_555
H17 C17 1_555 1_555
C18 N6 1_555 1_555
H18 C18 1_555 1_555
H19 C18 1_555 1_555
H20 C18 1_555 1_555
C19 N3 1_555 1_555
H21 C19 1_555 1_555
C20 C19 1_555 1_555
H22 C20 1_555 1_555
C21 C20 1_555 1_555
C22 C21 1_555 1_555
C23 C22 1_555 1_555
H23 C23 1_555 1_555
C24 C23 1_555 1_555
H24 C24 1_555 1_555
C25 N4 1_555 1_555
H25 C25 1_555 1_555
C26 C22 1_555 1_555
H26 C26 1_555 1_555
C27 C21 1_555 1_555
H27 C27 1_555 1_555
C28 N3 1_555 1_555
H28 C28 1_555 1_555
C29 N7 1_555 1_555
H29 C29 1_555 1_555
C30 C29 1_555 1_555
H30 C30 1_555 1_555
C31 C30 1_555 1_555
C32 C31 1_555 1_555
H31 C32 1_555 1_555
C33 N7 1_555 1_555
H32 C33 1_555 1_555
Cl1 O5 1_555 1_555
O6 Cl1 1_555 1_555
O7 Cl1 1_555 1_555
O8 Cl1 1_555 1_555
N7A C29A 1_555 1_555
C29A H29A 1_555 1_555
C30A C29A 1_555 1_555
H30A C30A 1_555 1_555
C31A C31 1_555 1_555
C32A C31A 1_555 1_555
H31A C32A 1_555 1_555
C33A N7A 1_555 1_555
H32A C33A 1_555 1_555
Cu2A N1A 1_555 1_555
Cu3A N5A 1_555 1_555
N1A O2A 1_555 1_555
N2A Cu2A 1_555 1_555
N3A Cu2A 1_555 1_555
N4A Cu1 1_555 1_555
N5A O4A 1_555 1_555
N6A Cu3A 1_555 1_555
O1A C1A 1_555 1_555
O2A Cu1_2 1_555 1_555
O3A Cu2A 1_555 1_555
O4A Cu2A 1_555 1_555
C1A N1A 1_555 1_555
C2A C1A 1_555 1_555
C3A C2A 1_555 1_555
H1A C3A 1_555 1_555
C4A C3A 1_555 1_555
H2A C4A 1_555 1_555
C5A C4A 1_555 1_555
H3A C5A 1_555 1_555
C6A C5A 1_555 1_555
H4A C6A 1_555 1_555
C7A N2A 1_555 1_555
C8A N2A 1_555 1_555
H5A C8A 1_555 1_555
H6A C8A 1_555 1_555
H7A C8A 1_555 1_555
C9A N2A 1_555 1_555
H8A C9A 1_555 1_555
H9A C9A 1_555 1_555
H10A C9A 1_555 1_555
C10A N5A 1_555 1_555
C11A C10A 1_555 1_555
C12A C11A 1_555 1_555
H11A C12A 1_555 1_555
C13A C12A 1_555 1_555
H12A C13A 1_555 1_555
C14A C13A 1_555 1_555
H13A C14A 1_555 1_555
C15A C14A 1_555 1_555
H14A C15A 1_555 1_555
C16A N6A 1_555 1_555
C17A N6A 1_555 1_555
H15A C17A 1_555 1_555
H16A C17A 1_555 1_555
H17A C17A 1_555 1_555
C18A N6A 1_555 1_555
H18A C18A 1_555 1_555
H19A C18A 1_555 1_555
H20A C18A 1_555 1_555
C19A N3A 1_555 1_555
H21A C19A 1_555 1_555
C20A C19A 1_555 1_555
H22A C20A 1_555 1_555
C21A C20A 1_555 1_555
C22A C21A 1_555 1_555
C23A C22A 1_555 1_555
H23A C23A 1_555 1_555
C24A N4A 1_555 1_555
H24A C24A 1_555 1_555
C25A N4A 1_555 1_555
H25A C25A 1_555 1_555
C26A C22A 1_555 1_555
H26A C26A 1_555 1_555
C27A C21A 1_555 1_555
H27A C27A 1_555 1_555
C28A N3A 1_555 1_555
H28A C28A 1_555 1_555
Cu1_2 N4 1_555 1_555
Cu3_2 O1A 1_555 1_555
Cu3A_2 O1 1_555 1_555
Cu3A_3 N7A 1_555 1_555
N4_2 Cu1 1_555 1_555
N7A_2 Cu3A 1_555 1_555
O1_2 Cu3A 1_555 1_555
O1A_2 Cu3 1_555 1_555
O2_2 Cu3A 1_555 1_555
O2A_2 Cu1 1_555 1_555
O4A_2 Cu1 1_555 1_555
Cu2 O4 1_555 1_555
Cu3 O2A_2 1_555 1_555
O3 C10 1_555 1_555
C2 C7 1_555 1_555
C6 C7 1_555 1_555
C11 C16 1_555 1_555
C15 C16 1_555 1_555
C25 C26 1_555 1_555
C27 C28 1_555 1_555
C32 C33 1_555 1_555
C30A C31A 1_555 1_555
C32A C33A 1_555 1_555
O2A Cu3_2 1_555 1_555
O3A C10A 1_555 1_555
O4A Cu1_2 1_555 1_555
C2A C7A 1_555 1_555
C6A C7A 1_555 1_555
C11A C16A 1_555 1_555
C15A C16A 1_555 1_555
C23A C24A 1_555 1_555
C25A C26A 1_555 1_555
C27A C28A 1_555 1_555
Cu1_2 O2_2 1_555 1_555

#END
