
#######################################################################
#
#                 Cambridge Crystallographic Data Centre
#                                CCDC 
#
#######################################################################
#
# If this CIF has been generated from an entry in the Cambridge 
# Structural Database, then it will include bibliographic, chemical, 
# crystal, experimental, refinement or atomic coordinate data resulting 
# from the CCDC's data processing and validation procedures.
#
#######################################################################

data_PIGYAG
_symmetry_cell_setting           monoclinic
_symmetry_space_group_name_H-M   'P 2/c'
_symmetry_Int_Tables_number      13
_space_group_name_Hall           '-P 2yc'
loop_
_symmetry_equiv_pos_site_id
_symmetry_equiv_pos_as_xyz
1 x,y,z
2 -x,y,1/2-z
3 -x,-y,-z
4 x,-y,1/2+z
_cell_length_a                   21.293(4)
_cell_length_b                   7.1590(10)
_cell_length_c                   22.218(4)
_cell_angle_alpha                90
_cell_angle_beta                 105.07(3)
_cell_angle_gamma                90
_cell_volume                     3270.36
loop_
_atom_site_label
_atom_site_type_symbol
_atom_site_fract_x
_atom_site_fract_y
_atom_site_fract_z
Co1 Co 0.42208(3) 0.33541(9) 0.26797(3)
Co2 Co 0.0000 -0.63357(14) 0.2500
C1 C 0.3514(3) -0.0173(8) 0.2856(3)
H1 H 0.3936 -0.0638 0.2935
C2 C 0.3019(3) -0.1406(8) 0.2829(3)
H2 H 0.3107 -0.2672 0.2897
C3 C 0.2385(2) -0.0761(8) 0.2701(2)
C4 C 0.2293(3) 0.1127(8) 0.2624(3)
H3 H 0.1878 0.1636 0.2549
C5 C 0.2822(3) 0.2257(9) 0.2661(3)
H4 H 0.2751 0.3533 0.2602
C6 C 0.1833(2) -0.2070(7) 0.2665(2)
C7 C 0.1250(3) -0.1821(10) 0.2220(3)
H5 H 0.1199 -0.0836 0.1938
C8 C 0.0746(3) -0.3050(9) 0.2200(3)
H6 H 0.0358 -0.2869 0.1895
C9 C 0.1350(3) -0.4670(8) 0.3018(3)
H7 H 0.1389 -0.5635 0.3306
C10 C 0.1876(2) -0.3557(8) 0.3066(3)
H8 H 0.2262 -0.3797 0.3366
C11 C 0.3682(2) 0.5785(7) 0.1570(2)
C12 C 0.3137(2) 0.6015(7) 0.0992(2)
C13 C 0.3240(2) 0.6418(6) 0.0409(2)
C14 C 0.2716(2) 0.6535(8) -0.0118(2)
H9 H 0.2785 0.6729 -0.0510
C15 C 0.2096(2) 0.6358(8) -0.0047(3)
H10 H 0.1743 0.6474 -0.0395
C16 C 0.1985(2) 0.6017(9) 0.0519(3)
H11 H 0.1561 0.5917 0.0556
C17 C 0.2503(2) 0.5821(8) 0.1040(3)
H12 H 0.2427 0.5557 0.1425
C18 C 0.4118(2) 0.6965(7) -0.0111(2)
C19 C 0.4849(2) 0.7348(7) 0.0099(2)
C20 C 0.5755(2) 0.8207(7) -0.0353(2)
C21 C 0.6228(3) 0.8340(9) 0.0204(3)
H13 H 0.6117 0.8193 0.0580
C22 C 0.6864(3) 0.8689(9) 0.0204(3)
H14 H 0.7182 0.8739 0.0580
C23 C 0.7034(3) 0.8965(9) -0.0344(3)
H15 H 0.7462 0.9230 -0.0342
C24 C 0.6561(2) 0.8841(8) -0.0894(3)
H16 H 0.6676 0.9014 -0.1267
C25 C 0.5919(2) 0.8469(7) -0.0915(2)
C26 C 0.5452(2) 0.8289(7) -0.1548(2)
C27 C 0.0454(2) -0.8197(8) 0.3457(2)
C28 C 0.0674(2) -0.9232(8) 0.4051(2)
C29 C 0.0585(2) -0.8598(8) 0.4619(2)
C30 C 0.0816(2) -0.9659(9) 0.5152(3)
H17 H 0.0759 -0.9249 0.5531
C31 C 0.1129(3) -1.1314(9) 0.5120(3)
H18 H 0.1274 -1.2033 0.5478
C32 C 0.1232(3) -1.1923(10) 0.4573(3)
H19 H 0.1458 -1.3027 0.4561
C33 C 0.0999(3) -1.0901(9) 0.4043(3)
H20 H 0.1061 -1.1336 0.3668
C34 C 0.0187(2) -0.5905(8) 0.5109(2)
N1 N 0.34277(18) 0.1638(6) 0.27751(19)
N2 N 0.07823(19) -0.4494(6) 0.25936(19)
N3 N 0.38795(18) 0.6732(6) 0.03735(17)
H21 H 0.4163 0.6780 0.0728
N4 N 0.51024(18) 0.7786(6) -0.03638(18)
H22 H 0.4831 0.7821 -0.0726
N5 N 0.0271(2) -0.6883(6) 0.4628(2)
H23 H 0.0108 -0.6390 0.4268
O1 O 0.35585(15) 0.4944(5) 0.20183(15)
O2 O 0.5000 0.4979(7) 0.2500
O3 O 0.42268(16) 0.6438(6) 0.15696(15)
O4 O 0.4052(2) 0.5170(7) 0.33758(18)
O5 O 0.48597(15) 0.2032(5) 0.34186(14)
O6 O 0.56837(16) 0.1586(5) 0.29973(16)
O7 O 0.38235(17) 0.6887(6) -0.06632(15)
O8 O 0.51351(18) 0.7280(7) 0.06465(17)
O9 O 0.0650(2) -0.8623(6) 0.29996(18)
O10 O 0.00629(19) -0.6833(6) 0.34176(17)
O11 O 0.03830(19) -0.6286(6) 0.56591(17)
H24 H 0.481(4) 0.552(12) 0.213(3)
H25 H 0.432(3) 0.562(11) 0.352(3)
H26 H 0.401(3) 0.475(10) 0.370(4)
Co1A Co -0.42208(3) 0.33541(9) 0.23203(3)
Co1C Co 0.42208(3) 0.66459(9) 0.76797(3)
Co1C_2 Co 0.42208(3) 0.66459(9) -0.23203(3)
Co1B Co 0.57792(3) 0.66459(9) -0.26797(3)
Co1A_2 Co 0.57792(3) 0.33541(9) 0.23203(3)
Co2C Co 0.0000 -0.36643(14) 0.7500
C1A C -0.3514(3) -0.0173(8) 0.2144(3)
H1A H -0.3936 -0.0638 0.2065
C2A C -0.3019(3) -0.1406(8) 0.2171(3)
H2A H -0.3107 -0.2672 0.2103
C3A C -0.2385(2) -0.0761(8) 0.2299(2)
C4A C -0.2293(3) 0.1127(8) 0.2376(3)
H3A H -0.1878 0.1636 0.2451
C5A C -0.2822(3) 0.2257(9) 0.2339(3)
H4A H -0.2751 0.3533 0.2398
C6A C -0.1833(2) -0.2070(7) 0.2335(2)
C7A C -0.1250(3) -0.1821(10) 0.2780(3)
H5A H -0.1199 -0.0836 0.3062
C8A C -0.0746(3) -0.3050(9) 0.2800(3)
H6A H -0.0358 -0.2869 0.3105
C9A C -0.1350(3) -0.4670(8) 0.1982(3)
H7A H -0.1389 -0.5635 0.1694
C10A C -0.1876(2) -0.3557(8) 0.1934(3)
H8A H -0.2262 -0.3797 0.1634
C11C C 0.3682(2) 0.4215(7) 0.6570(2)
C12C C 0.3137(2) 0.3985(7) 0.5992(2)
C13C C 0.3240(2) 0.3582(6) 0.5409(2)
C14C C 0.2716(2) 0.3465(8) 0.4882(2)
H9C H 0.2785 0.3271 0.4490
C15C C 0.2096(2) 0.3642(8) 0.4953(3)
H10C H 0.1743 0.3526 0.4605
C16C C 0.1985(2) 0.3983(9) 0.5519(3)
H11C H 0.1561 0.4083 0.5556
C17C C 0.2503(2) 0.4179(8) 0.6040(3)
H12C H 0.2427 0.4443 0.6425
C18C C 0.4118(2) 0.3035(7) 0.4889(2)
C19C C 0.4849(2) 0.2652(7) 0.5099(2)
C20C C 0.5755(2) 0.1793(7) 0.4647(2)
C21C C 0.6228(3) 0.1660(9) 0.5204(3)
H13C H 0.6117 0.1807 0.5580
C22C C 0.6864(3) 0.1311(9) 0.5204(3)
H14C H 0.7182 0.1261 0.5580
C23C C 0.7034(3) 0.1035(9) 0.4656(3)
H15C H 0.7462 0.0770 0.4658
C24C C 0.6561(2) 0.1159(8) 0.4106(3)
H16C H 0.6676 0.0986 0.3733
C25C C 0.5919(2) 0.1531(7) 0.4085(2)
C26C C 0.5452(2) 0.1711(7) 0.3452(2)
C27B C -0.0454(2) -0.1803(8) 0.6543(2)
C28B C -0.0674(2) -0.0768(8) 0.5949(2)
C29B C -0.0585(2) -0.1402(8) 0.5381(2)
C30B C -0.0816(2) -0.0341(9) 0.4848(3)
H17B H -0.0759 -0.0751 0.4469
C31B C -0.1129(3) 0.1314(9) 0.4880(3)
H18B H -0.1274 0.2033 0.4522
C32B C -0.1232(3) 0.1923(10) 0.5427(3)
H19B H -0.1458 0.3027 0.5439
C33B C -0.0999(3) 0.0901(9) 0.5957(3)
H20B H -0.1061 0.1336 0.6332
C34B C -0.0187(2) -0.4095(8) 0.4891(2)
N1A N -0.34277(18) 0.1638(6) 0.22249(19)
N2A N -0.07823(19) -0.4494(6) 0.24064(19)
N3C N 0.38795(18) 0.3268(6) 0.53735(17)
H21C H 0.4163 0.3220 0.5728
N4C N 0.51024(18) 0.2214(6) 0.46362(18)
H22C H 0.4831 0.2179 0.4274
N5B N -0.0271(2) -0.3117(6) 0.5372(2)
H23B H -0.0108 -0.3610 0.5732
O1A O -0.35585(15) 0.4944(5) 0.29817(15)
O1C O 0.35585(15) 0.5056(5) 0.70183(15)
O2_2 O -0.5000 0.4979(7) 0.2500
O3C O 0.42268(16) 0.3562(6) 0.65696(15)
O4A O -0.4052(2) 0.5170(7) 0.16242(18)
O5C O 0.48597(15) 0.7968(5) -0.15814(14)
O5A O -0.48597(15) 0.2032(5) 0.15814(14)
O6A O 0.43163(16) 0.1586(5) 0.20027(16)
O6C O 0.56837(16) 0.8414(5) -0.20027(16)
O6_2 O -0.43163(16) 0.1586(5) 0.29973(16)
O7C O 0.38235(17) 0.3113(6) 0.43368(15)
O8C O 0.51351(18) 0.2720(7) 0.56465(17)
O9A O -0.0650(2) -0.8623(6) 0.20004(18)
O9B O -0.0650(2) -0.1377(6) 0.70004(18)
O10A O -0.00629(19) -0.6833(6) 0.15824(17)
O10B O -0.00629(19) -0.3167(6) 0.65824(17)
O11B O -0.03830(19) -0.3714(6) 0.43409(17)
H24A H 0.519(4) 0.552(12) 0.287(3)
H24_2 H -0.519(4) 0.552(12) 0.213(3)
H24A_2 H -0.481(4) 0.552(12) 0.287(3)
H25A H -0.432(3) 0.562(11) 0.148(3)
H26A H -0.401(3) 0.475(10) 0.130(4)
loop_
_geom_bond_atom_site_label_1
_geom_bond_atom_site_label_2
_geom_bond_site_symmetry_1
_geom_bond_site_symmetry_2
Co1 N1 1_555 1_555
Co2 N2 1_555 1_555
C1 H1 1_555 1_555
C2 C1 1_555 1_555
H2 C2 1_555 1_555
C3 C2 1_555 1_555
C4 C3 1_555 1_555
H3 C4 1_555 1_555
C5 C4 1_555 1_555
H4 C5 1_555 1_555
C6 C3 1_555 1_555
C7 C6 1_555 1_555
H5 C7 1_555 1_555
C8 C7 1_555 1_555
H6 C8 1_555 1_555
C9 H7 1_555 1_555
C10 C6 1_555 1_555
H8 C10 1_555 1_555
C11 C12 1_555 1_555
C12 C13 1_555 1_555
C13 C14 1_555 1_555
C14 H9 1_555 1_555
C15 C14 1_555 1_555
H10 C15 1_555 1_555
C16 C15 1_555 1_555
H11 C16 1_555 1_555
C17 C12 1_555 1_555
H12 C17 1_555 1_555
C18 C19 1_555 1_555
C19 N4 1_555 1_555
C20 C21 1_555 1_555
C21 H13 1_555 1_555
C22 C21 1_555 1_555
H14 C22 1_555 1_555
C23 C22 1_555 1_555
H15 C23 1_555 1_555
C24 C23 1_555 1_555
H16 C24 1_555 1_555
C25 C20 1_555 1_555
C26 C25 1_555 1_555
C27 C28 1_555 1_555
C28 C29 1_555 1_555
C29 C30 1_555 1_555
C30 H17 1_555 1_555
C31 C30 1_555 1_555
H18 C31 1_555 1_555
C32 C31 1_555 1_555
H19 C32 1_555 1_555
C33 C28 1_555 1_555
H20 C33 1_555 1_555
C34 N5 1_555 1_555
N1 C1 1_555 1_555
N2 C8 1_555 1_555
N3 C13 1_555 1_555
H21 N3 1_555 1_555
N4 C20 1_555 1_555
H22 N4 1_555 1_555
N5 C29 1_555 1_555
H23 N5 1_555 1_555
O1 Co1 1_555 1_555
O2 Co1 1_555 1_555
O3 C11 1_555 1_555
O4 Co1 1_555 1_555
O5 Co1 1_555 1_555
O6 Co1A_2 1_555 1_555
O7 C18 1_555 1_555
O8 C19 1_555 1_555
O9 Co2 1_555 1_555
O10 Co2 1_555 1_555
O11 C34 1_555 1_555
H24 O2 1_555 1_555
H25 O4 1_555 1_555
H26 O4 1_555 1_555
Co1A N1A 1_555 1_555
Co1C O1C 1_555 1_555
Co1C_2 O5C 1_555 1_555
Co1B O6C 1_555 1_555
Co1A_2 O2 1_555 1_555
Co2C O9B 1_555 1_555
C1A H1A 1_555 1_555
C2A C1A 1_555 1_555
H2A C2A 1_555 1_555
C3A C2A 1_555 1_555
C4A C3A 1_555 1_555
H3A C4A 1_555 1_555
C5A C4A 1_555 1_555
H4A C5A 1_555 1_555
C6A C3A 1_555 1_555
C7A C6A 1_555 1_555
H5A C7A 1_555 1_555
C8A C7A 1_555 1_555
H6A C8A 1_555 1_555
C9A H7A 1_555 1_555
C10A C6A 1_555 1_555
H8A C10A 1_555 1_555
C11C C12C 1_555 1_555
C12C C13C 1_555 1_555
C13C C14C 1_555 1_555
C14C H9C 1_555 1_555
C15C C14C 1_555 1_555
H10C C15C 1_555 1_555
C16C C15C 1_555 1_555
H11C C16C 1_555 1_555
C17C C12C 1_555 1_555
H12C C17C 1_555 1_555
C18C C19C 1_555 1_555
C19C N4C 1_555 1_555
C20C C21C 1_555 1_555
C21C H13C 1_555 1_555
C22C C21C 1_555 1_555
H14C C22C 1_555 1_555
C23C C22C 1_555 1_555
H15C C23C 1_555 1_555
C24C C23C 1_555 1_555
H16C C24C 1_555 1_555
C25C C20C 1_555 1_555
C26C O5 1_555 1_555
C27B C28B 1_555 1_555
C28B C29B 1_555 1_555
C29B C30B 1_555 1_555
C30B H17B 1_555 1_555
C31B C30B 1_555 1_555
H18B C31B 1_555 1_555
C32B C31B 1_555 1_555
H19B C32B 1_555 1_555
C33B C28B 1_555 1_555
H20B C33B 1_555 1_555
C34B C34 1_555 1_555
N1A C1A 1_555 1_555
N2A Co2 1_555 1_555
N3C C13C 1_555 1_555
H21C N3C 1_555 1_555
N4C C20C 1_555 1_555
H22C N4C 1_555 1_555
N5B C29B 1_555 1_555
H23B N5B 1_555 1_555
O1A Co1A 1_555 1_555
O1C C11C 1_555 1_555
O2_2 Co1A 1_555 1_555
O3C C11C 1_555 1_555
O4A Co1A 1_555 1_555
O5C C26 1_555 1_555
O5A Co1A 1_555 1_555
O6A Co1 1_555 1_555
O6C C26 1_555 1_555
O6_2 Co1A 1_555 1_555
O7C C18C 1_555 1_555
O8C C19C 1_555 1_555
O9A Co2 1_555 1_555
O9B C27B 1_555 1_555
O10A Co2 1_555 1_555
O10B Co2C 1_555 1_555
O11B C34B 1_555 1_555
H24A O2 1_555 1_555
H24_2 O2_2 1_555 1_555
H24A_2 O2_2 1_555 1_555
H25A O4A 1_555 1_555
H26A O4A 1_555 1_555
C5 N1 1_555 1_555
C9 C10 1_555 1_555
C9 N2 1_555 1_555
C11 O1 1_555 1_555
C16 C17 1_555 1_555
C18 N3 1_555 1_555
C24 C25 1_555 1_555
C27 O9 1_555 1_555
C27 O10 1_555 1_555
C32 C33 1_555 1_555
O6 C26C 1_555 1_555
C5A N1A 1_555 1_555
C8A N2A 1_555 1_555
C9A C10A 1_555 1_555
C9A N2A 1_555 1_555
C16C C17C 1_555 1_555
C18C N3C 1_555 1_555
C24C C25C 1_555 1_555
C25C C26C 1_555 1_555
C27B O10B 1_555 1_555
C32B C33B 1_555 1_555
C34B N5B 1_555 1_555

#END
