
#######################################################################
#
#                 Cambridge Crystallographic Data Centre
#                                CCDC 
#
#######################################################################
#
# If this CIF has been generated from an entry in the Cambridge 
# Structural Database, then it will include bibliographic, chemical, 
# crystal, experimental, refinement or atomic coordinate data resulting 
# from the CCDC's data processing and validation procedures.
#
#######################################################################

data_PIGZEL
_symmetry_cell_setting           monoclinic
_symmetry_space_group_name_H-M   'P 21/c'
_symmetry_Int_Tables_number      14
_space_group_name_Hall           '-P 2ybc'
loop_
_symmetry_equiv_pos_site_id
_symmetry_equiv_pos_as_xyz
1 x,y,z
2 -x,1/2+y,1/2-z
3 -x,-y,-z
4 x,1/2-y,1/2+z
_cell_length_a                   11.470(2)
_cell_length_b                   10.999(2)
_cell_length_c                   11.111(2)
_cell_angle_alpha                90
_cell_angle_beta                 97.829(3)
_cell_angle_gamma                90
_cell_volume                     1388.68
loop_
_atom_site_label
_atom_site_type_symbol
_atom_site_fract_x
_atom_site_fract_y
_atom_site_fract_z
Co1 Co 0.5000 0.0000 0.0000
O1 O 0.48556(18) 0.16918(16) -0.08162(19)
O2 O 0.52123(18) 0.07831(18) 0.17138(16)
N1 N 0.31173(15) -0.00278(17) 0.00829(17)
C1 C 0.2460(2) -0.1006(2) -0.0232(2)
H1 H 0.2837 -0.1712 -0.0433
C2 C 0.1253(2) -0.1031(2) -0.0278(2)
H2 H 0.0841 -0.1741 -0.0506
C3 C 0.06478(17) -0.0002(2) 0.00156(19)
C4 C 0.1337(2) 0.1014(2) 0.0349(3)
H3 H 0.0984 0.1731 0.0558
C5 C 0.2539(2) 0.0965(2) 0.0371(2)
H4 H 0.2974 0.1660 0.0600
H10 H 0.460(3) 0.2300(19) -0.045(3)
H11 H 0.527(2) 0.187(2) -0.137(2)
H12 H 0.560(2) 0.1419(18) 0.192(2)
H13 H 0.484(2) 0.046(2) 0.2238(19)
Co1_2 Co -0.5000 0.0000 0.0000
O1B O 0.51444(18) -0.16918(16) 0.08162(19)
O2B O 0.47877(18) -0.07831(18) -0.17138(16)
N1B N -0.31173(15) 0.00278(17) -0.00829(17)
N1B_2 N 0.68827(15) 0.00278(17) -0.00829(17)
C1B C -0.2460(2) 0.1006(2) 0.0232(2)
H1B H -0.2837 0.1712 0.0433
C2B C -0.1253(2) 0.1031(2) 0.0278(2)
H2B H -0.0841 0.1741 0.0506
C3B C -0.06478(17) 0.0002(2) -0.00156(19)
C4B C -0.1337(2) -0.1014(2) -0.0349(3)
H3B H -0.0984 -0.1731 -0.0558
C5B C -0.2539(2) -0.0965(2) -0.0371(2)
H4B H -0.2974 -0.1660 -0.0600
H10B H 0.540(3) -0.2300(19) 0.045(3)
H11B H 0.473(2) -0.187(2) 0.137(2)
H12B H 0.440(2) -0.1419(18) -0.192(2)
H13B H 0.516(2) -0.046(2) -0.2238(19)
O3 O 0.63147(16) 0.28631(15) 0.25036(17)
O4 O 0.60544(16) 0.46996(17) 0.16773(17)
O5 O 1.0476(2) 0.3962(2) 0.1917(2)
C6 C 0.6689(2) 0.3806(2) 0.2051(2)
C7 C 0.7979(2) 0.3850(2) 0.1988(2)
H5 H 0.8415 0.3147 0.2180
C8 C 0.8536(2) 0.4815(2) 0.1679(2)
H6 H 0.8074 0.5491 0.1447
C9 C 0.9777(3) 0.4950(3) 0.1656(3)
C10 C 1.0432(3) 0.5905(4) 0.1436(3)
H7 H 1.0157 0.6684 0.1238
C11 C 1.1599(3) 0.5530(5) 0.1555(3)
H8 H 1.2245 0.6009 0.1451
C12 C 1.1618(3) 0.4367(5) 0.1842(4)
H9 H 1.2291 0.3888 0.1975
O6 O 0.40261(18) 0.36644(17) 0.0228(2)
H14 H 0.389(3) 0.416(2) -0.037(2)
H15 H 0.455(3) 0.391(3) 0.080(2)
loop_
_geom_bond_atom_site_label_1
_geom_bond_atom_site_label_2
_geom_bond_site_symmetry_1
_geom_bond_site_symmetry_2
Co1 O1 1_555 1_555
O1 H10 1_555 1_555
O2 Co1 1_555 1_555
O3 C6 1_555 1_555
O4 C6 1_555 1_555
O5 C9 1_555 1_555
N1 Co1 1_555 1_555
C1 N1 1_555 1_555
H1 C1 1_555 1_555
C2 C1 1_555 1_555
H2 C2 1_555 1_555
C3 C2 1_555 1_555
C4 C3 1_555 1_555
H3 C4 1_555 1_555
C5 N1 1_555 1_555
H4 C5 1_555 1_555
C6 C7 1_555 1_555
C7 H5 1_555 1_555
C8 C7 1_555 1_555
H6 C8 1_555 1_555
C9 C8 1_555 1_555
C10 C9 1_555 1_555
H7 C10 1_555 1_555
C11 C10 1_555 1_555
H8 C11 1_555 1_555
C12 O5 1_555 1_555
H9 C12 1_555 1_555
O6 H14 1_555 1_555
H11 O1 1_555 1_555
H12 O2 1_555 1_555
H13 O2 1_555 1_555
H15 O6 1_555 1_555
Co1_2 N1B 1_555 1_555
O1B Co1 1_555 1_555
O2B Co1 1_555 1_555
N1B C1B 1_555 1_555
N1B_2 Co1 1_555 1_555
C1B H1B 1_555 1_555
C2B C1B 1_555 1_555
H2B C2B 1_555 1_555
C3B C3 1_555 1_555
C4B C3B 1_555 1_555
H3B C4B 1_555 1_555
C5B N1B 1_555 1_555
H4B C5B 1_555 1_555
H10B O1B 1_555 1_555
H11B O1B 1_555 1_555
H12B O2B 1_555 1_555
H13B O2B 1_555 1_555
C4 C5 1_555 1_555
C11 C12 1_555 1_555
C2B C3B 1_555 1_555
C4B C5B 1_555 1_555

#END
