
#######################################################################
#
#                 Cambridge Crystallographic Data Centre
#                                CCDC 
#
#######################################################################
#
# If this CIF has been generated from an entry in the Cambridge 
# Structural Database, then it will include bibliographic, chemical, 
# crystal, experimental, refinement or atomic coordinate data resulting 
# from the CCDC's data processing and validation procedures.
#
#######################################################################

data_PIHCIT
_symmetry_cell_setting           monoclinic
_symmetry_space_group_name_H-M   'C 2/c'
_symmetry_Int_Tables_number      15
_space_group_name_Hall           '-C 2yn'
loop_
_symmetry_equiv_pos_site_id
_symmetry_equiv_pos_as_xyz
1 x,y,z
2 1/2+x,1/2+y,z
3 -x,y,1/2-z
4 1/2-x,1/2+y,1/2-z
5 -x,-y,-z
6 1/2-x,1/2-y,-z
7 x,-y,1/2+z
8 1/2+x,1/2-y,1/2+z
_cell_length_a                   16.043(3)
_cell_length_b                   12.451(2)
_cell_length_c                   30.597(6)
_cell_angle_alpha                90
_cell_angle_beta                 96.44(3)
_cell_angle_gamma                90
_cell_volume                     6073.23
loop_
_atom_site_label
_atom_site_type_symbol
_atom_site_fract_x
_atom_site_fract_y
_atom_site_fract_z
Se1 Se 0.5000 0.05568(3) -0.2500
Se2 Se 0.423260(18) -0.04618(2) 0.029790(9)
Cu1 Cu 0.19523(2) -0.25274(3) 0.146180(10)
Cl1 Cl 0.09996(5) -0.12090(6) 0.16394(3)
Cl2 Cl 0.33444(5) -0.27263(7) 0.18519(3)
N1 N 0.24474(15) -0.15266(19) 0.10445(7)
N2 N 0.23147(16) -0.04431(19) 0.10391(7)
N3 N 0.16089(16) -0.35903(19) 0.09518(7)
N4 N 0.18488(18) -0.4641(2) 0.09573(8)
N5 N 0.34883(15) -0.1453(2) -0.18865(7)
N6 N 0.30114(17) -0.1229(2) -0.22701(8)
C1 C 0.3375(2) -0.2803(2) 0.07049(10)
H1 H 0.3431 -0.3208 0.0973
H2 H 0.3911 -0.2751 0.0595
H3 H 0.2985 -0.3156 0.0491
C2 C 0.30602(18) -0.1700(2) 0.07910(8)
C3 C 0.33202(17) -0.0713(2) 0.06279(8)
C4 C 0.28264(19) 0.0071(2) 0.07939(8)
C5 C 0.2829(2) 0.1260(2) 0.07382(11)
H4 H 0.2406 0.1461 0.0506
H5 H 0.3368 0.1488 0.0666
H6 H 0.2713 0.1597 0.1007
C6 C 0.0866(2) -0.2351(3) 0.04172(10)
H7 H 0.0727 -0.1984 0.0675
H8 H 0.1260 -0.1929 0.0277
H9 H 0.0367 -0.2454 0.0218
C7 C 0.12431(18) -0.3411(2) 0.05441(9)
C8 C 0.37321(18) -0.0657(2) -0.02892(8)
C9 C 0.1650(2) -0.5119(2) 0.05648(9)
C10 C 0.1815(3) -0.6277(3) 0.04894(11)
H10 H 0.2356 -0.6357 0.0387
H11 H 0.1803 -0.6665 0.0760
H12 H 0.1391 -0.6555 0.0272
C11 C 0.5071(2) -0.1043(3) -0.34488(10)
H13 H 0.5048 -0.1758 -0.3566
H14 H 0.4554 -0.0883 -0.3332
H15 H 0.5153 -0.0540 -0.3678
C12 C 0.57800(17) -0.0960(2) -0.30922(8)
C13 C 0.41944(18) -0.0405(2) -0.23121(9)
C14 C 0.34058(19) -0.0590(3) -0.25335(9)
C15 C 0.6997(2) -0.0235(3) -0.20298(11)
H16 H 0.7523 0.0106 -0.2064
H17 H 0.6636 0.0265 -0.1904
H18 H 0.7093 -0.0846 -0.1840
H25 H 0.195(2) -0.014(3) 0.1173(11)
H26 H 0.206(3) -0.490(3) 0.1183(13)
H27 H 0.748(3) -0.143(3) -0.2712(12)
Se2E Se 0.076740(18) -0.45382(2) -0.029790(9)
Cu1E Cu 0.30477(2) -0.24726(3) -0.146180(10)
Cu1G Cu 0.69523(2) -0.24726(3) -0.353820(10)
Cl1E Cl 0.40004(5) -0.37910(6) -0.16394(3)
Cl2E Cl 0.16556(5) -0.22737(7) -0.18519(3)
N1E N 0.25526(15) -0.34734(19) -0.10445(7)
N2E N 0.26853(16) -0.45569(19) -0.10391(7)
N3E N 0.33911(16) -0.14097(19) -0.09518(7)
N4E N 0.31512(18) -0.0359(2) -0.09573(8)
N5E N 0.15117(15) -0.3547(2) 0.18865(7)
N5B N 0.65117(15) -0.1453(2) -0.31135(7)
N6B N 0.69886(17) -0.1229(2) -0.27299(8)
C1E C 0.1625(2) -0.2197(2) -0.07049(10)
H1E H 0.1569 -0.1792 -0.0973
H2E H 0.1089 -0.2249 -0.0595
H3E H 0.2015 -0.1844 -0.0491
C2E C 0.19398(18) -0.3300(2) -0.07910(8)
C3E C 0.16798(17) -0.4287(2) -0.06279(8)
C4E C 0.21736(19) -0.5071(2) -0.07939(8)
C5E C 0.2171(2) -0.6260(2) -0.07382(11)
H4E H 0.2594 -0.6461 -0.0506
H5E H 0.1632 -0.6488 -0.0666
H6E H 0.2287 -0.6597 -0.1007
C6E C 0.4134(2) -0.2649(3) -0.04172(10)
H7E H 0.4273 -0.3016 -0.0675
H8E H 0.3740 -0.3071 -0.0277
H9E H 0.4633 -0.2546 -0.0218
C7E C 0.37569(18) -0.1589(2) -0.05441(9)
C8E C 0.12679(18) -0.4343(2) 0.02892(8)
C9E C 0.3350(2) 0.0119(2) -0.05648(9)
C10E C 0.3185(3) 0.1277(3) -0.04894(11)
H10E H 0.2644 0.1357 -0.0387
H11E H 0.3197 0.1665 -0.0760
H12E H 0.3609 0.1555 -0.0272
C11B C 0.4929(2) -0.1043(3) -0.15512(10)
H13B H 0.4952 -0.1758 -0.1434
H14B H 0.5446 -0.0883 -0.1668
H15B H 0.4847 -0.0540 -0.1322
C12B C 0.42200(17) -0.0960(2) -0.19078(8)
C13B C 0.58056(18) -0.0405(2) -0.26879(9)
C14B C 0.65942(19) -0.0590(3) -0.24665(9)
C15B C 0.3003(2) -0.0235(3) -0.29702(11)
H16B H 0.2477 0.0106 -0.2936
H17B H 0.3364 0.0265 -0.3096
H18B H 0.2907 -0.0846 -0.3160
H25E H 0.305(2) -0.486(3) -0.1173(11)
H26E H 0.294(3) -0.010(3) -0.1183(13)
H27B H 0.252(3) -0.143(3) -0.2288(12)
S1 S 0.05161(5) 0.16149(7) 0.14362(2)
O1 O 0.1337(2) 0.1404(2) 0.12666(11)
C16 C 0.0330(2) 0.3032(3) 0.13727(11)
H19 H 0.0814 0.3420 0.1501
H20 H -0.0148 0.3229 0.1517
H21 H 0.0226 0.3204 0.1066
C17 C 0.0702(3) 0.1611(4) 0.20154(12)
H22 H 0.0889 0.0912 0.2115
H23 H 0.0193 0.1788 0.2137
H24 H 0.1126 0.2133 0.2109
S2 S 0.32361(8) -0.64857(9) 0.16984(3)
O2 O 0.2385(2) -0.5955(3) 0.16563(10)
C18 C 0.3798(3) -0.5871(6) 0.12957(18)
C19 C 0.3845(5) -0.5871(7) 0.21626(19)
O7 O -0.0698(8) -0.1369(10) -0.0308(4)
S3? S 0.3307(3) -0.5797(3) 0.20389(12)
O3? O 0.3183(10) -0.5595(11) 0.1550(4)
C20? C 0.2435(12) -0.6553(14) 0.2148(6)
C21? C 0.4062(12) -0.6845(17) 0.2115(6)
O4? O 0.4258(12) -0.6436(15) 0.1000(6)
O5? O 0.0990(4) 0.0290(5) -0.0056(2)
O6? O 0.4302(16) -0.5090(14) 0.0291(6)
O8? O 0.4766(14) -0.4897(13) 0.0347(5)
O9? O 0.3815(11) -0.6350(13) 0.0225(5)
O10? O 0.5537(12) -0.4726(15) 0.0183(7)
O11? O 0.5325(16) -0.441(2) 0.0406(9)
loop_
_geom_bond_atom_site_label_1
_geom_bond_atom_site_label_2
_geom_bond_site_symmetry_1
_geom_bond_site_symmetry_2
Se1 C13 1_555 1_555
Se2 C3 1_555 1_555
Cu1 Cl1 1_555 1_555
Cl2 Cu1 1_555 1_555
S1 O1 1_555 1_555
N1 Cu1 1_555 1_555
N2 N1 1_555 1_555
N3 Cu1 1_555 1_555
N4 N3 1_555 1_555
N5 N6 1_555 1_555
N6 C14 1_555 1_555
C1 H1 1_555 1_555
H2 C1 1_555 1_555
H3 C1 1_555 1_555
C2 N1 1_555 1_555
C3 C2 1_555 1_555
C4 N2 1_555 1_555
C5 C4 1_555 1_555
H4 C5 1_555 1_555
H5 C5 1_555 1_555
H6 C5 1_555 1_555
C6 H7 1_555 1_555
H8 C6 1_555 1_555
H9 C6 1_555 1_555
C7 N3 1_555 1_555
C8 Se2 1_555 1_555
C9 N4 1_555 1_555
C10 C9 1_555 1_555
H10 C10 1_555 1_555
H11 C10 1_555 1_555
H12 C10 1_555 1_555
C11 H13 1_555 1_555
H14 C11 1_555 1_555
H15 C11 1_555 1_555
C12 C11 1_555 1_555
C13 C14 1_555 1_555
C14 C15B 1_555 1_555
C15 H16 1_555 1_555
H17 C15 1_555 1_555
H18 C15 1_555 1_555
C16 S1 1_555 1_555
H19 C16 1_555 1_555
H20 C16 1_555 1_555
H21 C16 1_555 1_555
C17 S1 1_555 1_555
H22 C17 1_555 1_555
H23 C17 1_555 1_555
H24 C17 1_555 1_555
H25 N2 1_555 1_555
H26 N4 1_555 1_555
H27 N6B 1_555 1_555
S2 O2 1_555 1_555
C18 S2 1_555 1_555
C19 S2 1_555 1_555
Se2E C3E 1_555 1_555
Cu1E N5 1_555 1_555
Cu1G N5B 1_555 1_555
Cl1E Cu1E 1_555 1_555
Cl2E Cu1E 1_555 1_555
N1E Cu1E 1_555 1_555
N2E N1E 1_555 1_555
N3E Cu1E 1_555 1_555
N4E N3E 1_555 1_555
N5E Cu1 1_555 1_555
N5B C12 1_555 1_555
N6B N5B 1_555 1_555
C1E H1E 1_555 1_555
H2E C1E 1_555 1_555
H3E C1E 1_555 1_555
C2E N1E 1_555 1_555
C3E C2E 1_555 1_555
C4E N2E 1_555 1_555
C5E C4E 1_555 1_555
H4E C5E 1_555 1_555
H5E C5E 1_555 1_555
H6E C5E 1_555 1_555
C6E H7E 1_555 1_555
H8E C6E 1_555 1_555
H9E C6E 1_555 1_555
C7E C8 1_555 1_555
C8E C7 1_555 1_555
C9E C8 1_555 1_555
C10E C9E 1_555 1_555
H10E C10E 1_555 1_555
H11E C10E 1_555 1_555
H12E C10E 1_555 1_555
C11B H13B 1_555 1_555
H14B C11B 1_555 1_555
H15B C11B 1_555 1_555
C12B N5 1_555 1_555
C13B Se1 1_555 1_555
C14B C15 1_555 1_555
C15B H16B 1_555 1_555
H17B C15B 1_555 1_555
H18B C15B 1_555 1_555
H25E N2E 1_555 1_555
H26E N4E 1_555 1_555
H27B N6 1_555 1_555
C1 C2 1_555 1_555
C3 C4 1_555 1_555
C6 C7 1_555 1_555
C9 C8E 1_555 1_555
C12 C13B 1_555 1_555
C13 C12B 1_555 1_555
Se2E C8E 1_555 1_555
N3E C7E 1_555 1_555
N4E C9E 1_555 1_555
N6B C14B 1_555 1_555
C1E C2E 1_555 1_555
C3E C4E 1_555 1_555
C6E C7E 1_555 1_555
C11B C12B 1_555 1_555
C13B C14B 1_555 1_555

#END
