
#######################################################################
#
#                 Cambridge Crystallographic Data Centre
#                                CCDC 
#
#######################################################################
#
# If this CIF has been generated from an entry in the Cambridge 
# Structural Database, then it will include bibliographic, chemical, 
# crystal, experimental, refinement or atomic coordinate data resulting 
# from the CCDC's data processing and validation procedures.
#
#######################################################################

data_PIHJIA
_symmetry_cell_setting           monoclinic
_symmetry_space_group_name_H-M   'P 21/n'
_symmetry_Int_Tables_number      14
_space_group_name_Hall           '-P 2yn'
loop_
_symmetry_equiv_pos_site_id
_symmetry_equiv_pos_as_xyz
1 x,y,z
2 1/2-x,1/2+y,1/2-z
3 -x,-y,-z
4 1/2+x,1/2-y,1/2+z
_cell_length_a                   4.9173(4)
_cell_length_b                   23.3133(17)
_cell_length_c                   12.9459(9)
_cell_angle_alpha                90
_cell_angle_beta                 93.3320(10)
_cell_angle_gamma                90
_cell_volume                     1481.59
loop_
_atom_site_label
_atom_site_type_symbol
_atom_site_fract_x
_atom_site_fract_y
_atom_site_fract_z
Br1 Br -1.10714(8) 0.402450(16) 0.06234(3)
Br2 Br -0.92875(8) 0.383180(17) 0.43057(3)
C1 C -0.5542(8) 0.29274(16) 0.1160(3)
H1 H -0.6660 0.3073 0.0598
C2 C -0.3685(8) 0.25028(16) 0.0965(3)
H2 H -0.3565 0.2357 0.0284
C3 C -0.1993(7) 0.22914(15) 0.1773(3)
C4 C -0.2317(8) 0.25161(17) 0.2761(3)
H3 H -0.1204 0.2384 0.3337
C5 C -0.4278(8) 0.29325(16) 0.2891(3)
H4 H -0.4515 0.3073 0.3569
C6 C 0.0007(7) 0.18386(16) 0.1597(3)
H5 H 0.0118 0.1676 0.0928
C7 C 0.4990(8) 0.10812(15) 0.2803(3)
H6 H 0.4884 0.1273 0.3447
C8 C 0.9249(7) -0.01122(17) 0.1783(3)
H7 H 0.9441 -0.0320 0.1160
C9 C 0.7269(7) 0.03167(16) 0.1796(3)
H8 H 0.6111 0.0395 0.1200
C10 C 0.7033(7) 0.06273(15) 0.2706(3)
C11 C 0.8782(7) 0.04966(16) 0.3558(3)
H9 H 0.8686 0.0705 0.4185
C12 C 1.0667(7) 0.00576(16) 0.3480(3)
H10 H 1.1843 -0.0033 0.4065
Hg1 Hg -0.88570(3) 0.394500(6) 0.240310(11)
N1 N -0.5845(6) 0.31440(14) 0.2106(3)
N2 N 0.1597(6) 0.16652(14) 0.2349(3)
N3 N 0.3356(7) 0.12250(14) 0.2047(3)
N4 N 1.0879(6) -0.02421(13) 0.2607(3)
Hg1A Hg 1.38570(3) -0.105500(6) 0.259690(11)
N4A N -0.5879(6) 0.47579(13) 0.2393(3)
loop_
_geom_bond_atom_site_label_1
_geom_bond_atom_site_label_2
_geom_bond_site_symmetry_1
_geom_bond_site_symmetry_2
Br1 Hg1 1_555 1_555
Br2 Hg1 1_555 1_555
C1 H1 1_555 1_555
C2 C1 1_555 1_555
H2 C2 1_555 1_555
C3 C2 1_555 1_555
C4 C3 1_555 1_555
H3 C4 1_555 1_555
C5 C4 1_555 1_555
H4 C5 1_555 1_555
C6 C3 1_555 1_555
H5 C6 1_555 1_555
C7 H6 1_555 1_555
C8 H7 1_555 1_555
C9 C8 1_555 1_555
H8 C9 1_555 1_555
C10 C7 1_555 1_555
C11 C10 1_555 1_555
H9 C11 1_555 1_555
C12 C11 1_555 1_555
H10 C12 1_555 1_555
Hg1 N1 1_555 1_555
N1 C1 1_555 1_555
N2 C6 1_555 1_555
N3 C7 1_555 1_555
N4 C8 1_555 1_555
Hg1A N4 1_555 1_555
N4A Hg1 1_555 1_555
C5 N1 1_555 1_555
C9 C10 1_555 1_555
C12 N4 1_555 1_555
N2 N3 1_555 1_555

#END
