
#######################################################################
#
#                 Cambridge Crystallographic Data Centre
#                                CCDC 
#
#######################################################################
#
# If this CIF has been generated from an entry in the Cambridge 
# Structural Database, then it will include bibliographic, chemical, 
# crystal, experimental, refinement or atomic coordinate data resulting 
# from the CCDC's data processing and validation procedures.
#
#######################################################################

data_PIHKEX
_symmetry_cell_setting           monoclinic
_symmetry_space_group_name_H-M   'P 21/c'
_symmetry_Int_Tables_number      14
_space_group_name_Hall           '-P 2ybc'
loop_
_symmetry_equiv_pos_site_id
_symmetry_equiv_pos_as_xyz
1 x,y,z
2 -x,1/2+y,1/2-z
3 -x,-y,-z
4 x,1/2-y,1/2+z
_cell_length_a                   16.202(4)
_cell_length_b                   12.591(3)
_cell_length_c                   11.488(3)
_cell_angle_alpha                90
_cell_angle_beta                 90.283(4)
_cell_angle_gamma                90
_cell_volume                     2343.52
loop_
_atom_site_label
_atom_site_type_symbol
_atom_site_fract_x
_atom_site_fract_y
_atom_site_fract_z
C1 C 0.5218(3) 0.6406(4) 0.4468(5)
H1 H 0.5007 0.5747 0.4195
C2 C 0.5837(3) 0.6391(3) 0.5298(5)
H2 H 0.6050 0.5734 0.5574
C3 C 0.6149(3) 0.7356(3) 0.5734(4)
C4 C 0.5841(3) 0.8281(3) 0.5232(5)
H3 H 0.6055 0.8952 0.5461
C5 C 0.5221(3) 0.8224(3) 0.4399(4)
H4 H 0.5014 0.8867 0.4079
C6 C 0.7918(3) 0.6635(3) 0.7731(4)
H5 H 0.8297 0.6066 0.7831
C7 C 0.7333(3) 0.6561(3) 0.6850(4)
H6 H 0.7313 0.5952 0.6362
C8 C 0.6773(3) 0.7391(3) 0.6685(5)
C9 C 0.6824(3) 0.8253(3) 0.7432(4)
H7 H 0.6449 0.8829 0.7357
C10 C 0.7429(3) 0.8266(3) 0.8291(4)
H8 H 0.7459 0.8867 0.8790
C11 C 0.2424(3) 0.6638(3) 0.4475(4)
H9 H 0.2475 0.6001 0.4037
C12 C 0.1868(3) 0.6667(3) 0.5380(4)
H10 H 0.1547 0.6059 0.5565
C13 C 0.1782(3) 0.7592(3) 0.6014(4)
C14 C 0.2261(3) 0.8463(3) 0.5707(4)
H11 H 0.2211 0.9114 0.6118
C15 C 0.2809(3) 0.8371(3) 0.4797(4)
H12 H 0.3136 0.8969 0.4595
C16 C 0.0479(2) 0.6789(3) 0.8534(4)
H13 H 0.0419 0.6197 0.9039
C17 C 0.1090(3) 0.6767(3) 0.7725(4)
H14 H 0.1445 0.6170 0.7667
C18 C 0.1187(3) 0.7633(3) 0.6985(4)
C19 C 0.0672(3) 0.8501(3) 0.7129(4)
H15 H 0.0735 0.9114 0.6655
C20 C 0.0069(3) 0.8464(3) 0.7964(4)
H16 H -0.0281 0.9062 0.8061
N1 N 0.4900(2) 0.7307(3) 0.4025(4)
N2 N 0.7973(2) 0.7478(3) 0.8455(4)
N3 N 0.2899(2) 0.7475(3) 0.4188(4)
N4 N -0.0042(2) 0.7611(3) 0.8647(4)
N5 N 0.3838(3) 0.9010(3) 0.1709(4)
N6 N 0.4005(2) 0.5213(3) 0.2063(4)
N7 N 0.9197(2) 0.9490(3) 1.0726(4)
N8 N 0.8766(2) 0.5733(3) 1.0745(4)
O1 O 0.3869(2) 0.8007(2) 0.1504(3)
O2 O 0.3816(2) 0.9234(3) 0.2749(3)
O3 O 0.3563(2) 0.5722(2) 0.2817(3)
O4 O 0.4556(3) 0.5738(3) 0.1664(4)
O5 O 0.86829(19) 0.9166(2) 0.9948(3)
O6 O 0.9678(2) 0.8808(3) 1.1061(4)
O7 O 0.8659(2) 0.6703(2) 1.1032(3)
O8 O 0.9024(2) 0.5615(2) 0.9757(3)
Zn1 Zn 0.38547(3) 0.72527(3) 0.30308(5)
Zn2 Zn 0.89356(3) 0.76051(3) 0.96495(5)
N4_2 N 0.9958(2) 0.7611(3) 0.8647(4)
Zn2_2 Zn -0.10644(3) 0.76051(3) 0.96495(5)
loop_
_geom_bond_atom_site_label_1
_geom_bond_atom_site_label_2
_geom_bond_site_symmetry_1
_geom_bond_site_symmetry_2
C1 H1 1_555 1_555
C2 C1 1_555 1_555
H2 C2 1_555 1_555
C3 C2 1_555 1_555
C4 C3 1_555 1_555
H3 C4 1_555 1_555
C5 C4 1_555 1_555
H4 C5 1_555 1_555
C6 H5 1_555 1_555
C7 C6 1_555 1_555
H6 C7 1_555 1_555
C8 C3 1_555 1_555
C9 C8 1_555 1_555
H7 C9 1_555 1_555
C10 C9 1_555 1_555
H8 C10 1_555 1_555
C11 H9 1_555 1_555
C12 C11 1_555 1_555
H10 C12 1_555 1_555
C13 C12 1_555 1_555
C14 C13 1_555 1_555
H11 C14 1_555 1_555
C15 C14 1_555 1_555
H12 C15 1_555 1_555
C16 H13 1_555 1_555
C17 C16 1_555 1_555
H14 C17 1_555 1_555
C18 C13 1_555 1_555
C19 C18 1_555 1_555
H15 C19 1_555 1_555
C20 C19 1_555 1_555
H16 C20 1_555 1_555
N1 C1 1_555 1_555
N2 C6 1_555 1_555
N3 C11 1_555 1_555
N4 C16 1_555 1_555
N5 O1 1_555 1_555
N6 O3 1_555 1_555
N7 O5 1_555 1_555
N8 O7 1_555 1_555
O1 Zn1 1_555 1_555
O2 N5 1_555 1_555
O3 Zn1 1_555 1_555
O4 N6 1_555 1_555
O5 Zn2 1_555 1_555
O6 N7 1_555 1_555
O7 Zn2 1_555 1_555
O8 N8 1_555 1_555
Zn1 N1 1_555 1_555
Zn2 N2 1_555 1_555
N4_2 Zn2 1_555 1_555
Zn2_2 N4 1_555 1_555
C5 N1 1_555 1_555
C7 C8 1_555 1_555
C10 N2 1_555 1_555
C15 N3 1_555 1_555
C17 C18 1_555 1_555
C20 N4 1_555 1_555
N3 Zn1 1_555 1_555
O2 Zn1 1_555 1_555
O4 Zn1 1_555 1_555
O6 Zn2 1_555 1_555
O8 Zn2 1_555 1_555

#END
