
#######################################################################
#
#                 Cambridge Crystallographic Data Centre
#                                CCDC 
#
#######################################################################
#
# If this CIF has been generated from an entry in the Cambridge 
# Structural Database, then it will include bibliographic, chemical, 
# crystal, experimental, refinement or atomic coordinate data resulting 
# from the CCDC's data processing and validation procedures.
#
#######################################################################

data_PIHKOH
_symmetry_cell_setting           monoclinic
_symmetry_space_group_name_H-M   'P 21/c'
_symmetry_Int_Tables_number      14
_space_group_name_Hall           '-P 2ybc'
loop_
_symmetry_equiv_pos_site_id
_symmetry_equiv_pos_as_xyz
1 x,y,z
2 -x,1/2+y,1/2-z
3 -x,-y,-z
4 x,1/2-y,1/2+z
_cell_length_a                   6.7562(3)
_cell_length_b                   13.1951(7)
_cell_length_c                   33.5642(17)
_cell_angle_alpha                90
_cell_angle_beta                 94.2630(10)
_cell_angle_gamma                90
_cell_volume                     2983.93
loop_
_atom_site_label
_atom_site_type_symbol
_atom_site_fract_x
_atom_site_fract_y
_atom_site_fract_z
C1 C 0.7806(4) 0.4379(2) 0.71681(9)
H1 H 0.9016 0.4316 0.7330
C2 C 0.7234(5) 0.3596(2) 0.69106(10)
H2 H 0.8048 0.3012 0.6894
C3 C 0.5473(5) 0.3672(2) 0.66786(9)
H3 H 0.5062 0.3144 0.6498
C4 C 0.4299(4) 0.4534(2) 0.67115(8)
C5 C 0.4992(4) 0.5290(2) 0.69713(8)
H4 H 0.4214 0.5885 0.6991
C6 C 0.2354(4) 0.4676(2) 0.64974(9)
H5 H 0.1667 0.5296 0.6528
C7 C -0.1181(5) 0.3663(2) 0.58729(9)
H6 H -0.0572 0.3028 0.5828
C8 C -0.6778(4) 0.4319(2) 0.52986(9)
H7 H -0.8032 0.4467 0.5164
C9 C -0.5865(5) 0.5054(2) 0.55429(10)
H8 H -0.6487 0.5690 0.5579
C10 C -0.4028(5) 0.4843(2) 0.57338(9)
H9 H -0.3369 0.5335 0.5902
C11 C -0.3152(4) 0.3907(2) 0.56784(9)
C12 C -0.4171(4) 0.3203(2) 0.54323(9)
H10 H -0.3587 0.2557 0.5396
C13 C -0.6897(4) 0.2351(2) 0.90170(8)
H11 H -0.8131 0.2008 0.9025
C14 C -0.6017(5) 0.2398(2) 0.86570(9)
H12 H -0.6644 0.2096 0.8424
C15 C -0.4217(4) 0.2891(2) 0.86420(9)
H13 H -0.3576 0.2920 0.8400
C16 C -0.3356(4) 0.3345(2) 0.89896(8)
C17 C -0.4348(4) 0.3270(2) 0.93383(8)
H14 H -0.3779 0.3585 0.9574
C18 C -0.1505(4) 0.3930(2) 0.90016(9)
H15 H -0.0974 0.4215 0.9247
C19 C 0.2098(4) 0.4749(2) 0.84503(9)
H16 H 0.1641 0.4420 0.8209
C20 C 0.7348(4) 0.6452(2) 0.84396(8)
H17 H 0.8525 0.6842 0.8430
C21 C 0.6562(4) 0.6307(2) 0.88053(9)
H18 H 0.7204 0.6584 0.9042
C22 C 0.4827(4) 0.5754(2) 0.88204(8)
H19 H 0.4249 0.5652 0.9067
C23 C 0.3942(4) 0.5347(2) 0.84654(8)
C24 C 0.4844(4) 0.5508(2) 0.81144(8)
H20 H 0.4264 0.5216 0.7875
N1 N 0.6730(4) 0.8318(2) 0.74455(8)
N2 N 1.1498(4) 0.6350(2) 0.74253(10)
N3 N 0.6720(4) 0.52218(18) 0.71984(7)
N4 N 0.1553(4) 0.3989(2) 0.62700(8)
N5 N -0.0316(4) 0.4319(2) 0.61015(8)
N6 N -0.5959(4) 0.34045(19) 0.52438(7)
N7 N -0.7063(4) 0.0351(2) 0.51087(8)
N8 N -1.0958(5) 0.3120(2) 0.47564(11)
N9 N -0.6079(3) 0.27691(17) 0.93546(7)
N10 N -0.0604(4) 0.40562(19) 0.86839(8)
N11 N 0.1105(4) 0.46681(19) 0.87584(7)
N12 N 0.6510(3) 0.60606(18) 0.80985(7)
O1 O 0.5941(3) 0.75230(16) 0.72860(6)
O2 O 0.8090(3) 0.81199(17) 0.77033(7)
O3 O 1.0558(3) 0.61273(18) 0.77314(7)
O4 O 1.0400(4) 0.6643(2) 0.71365(8)
O5 O -0.6234(3) 0.11675(18) 0.52436(6)
O6 O -0.8143(4) 0.0481(2) 0.48038(8)
O7 O -1.0295(4) 0.2380(2) 0.49468(14)
O8 O -0.9752(4) 0.3617(3) 0.45916(9)
Zn1 Zn 0.76772(5) 0.64059(2) 0.756507(9)
Zn2 Zn -0.73697(5) 0.22950(3) 0.488700(9)
N9C N -0.6079(3) 0.22309(17) 0.43546(7)
Zn2C Zn -0.73697(5) 0.27050(3) 0.988700(9)
O9 O 0.9185(5) 0.1328(3) 0.56692(11)
H21 H 0.914(9) 0.081(3) 0.5855(14)
H22 H 0.877(9) 0.113(4) 0.5407(9)
loop_
_geom_bond_atom_site_label_1
_geom_bond_atom_site_label_2
_geom_bond_site_symmetry_1
_geom_bond_site_symmetry_2
C1 H1 1_555 1_555
C2 C1 1_555 1_555
H2 C2 1_555 1_555
C3 C2 1_555 1_555
H3 C3 1_555 1_555
C4 C3 1_555 1_555
C5 C4 1_555 1_555
H4 C5 1_555 1_555
C6 C4 1_555 1_555
H5 C6 1_555 1_555
C7 H6 1_555 1_555
C8 H7 1_555 1_555
C9 C8 1_555 1_555
H8 C9 1_555 1_555
C10 C9 1_555 1_555
H9 C10 1_555 1_555
C11 C7 1_555 1_555
C12 C11 1_555 1_555
H10 C12 1_555 1_555
C13 H11 1_555 1_555
C14 C13 1_555 1_555
H12 C14 1_555 1_555
C15 C14 1_555 1_555
H13 C15 1_555 1_555
C16 C15 1_555 1_555
C17 C16 1_555 1_555
H14 C17 1_555 1_555
C18 C16 1_555 1_555
H15 C18 1_555 1_555
C19 H16 1_555 1_555
C20 H17 1_555 1_555
C21 C20 1_555 1_555
H18 C21 1_555 1_555
C22 C21 1_555 1_555
H19 C22 1_555 1_555
C23 C19 1_555 1_555
C24 C23 1_555 1_555
H20 C24 1_555 1_555
N1 O1 1_555 1_555
N2 O3 1_555 1_555
N3 C1 1_555 1_555
N4 C6 1_555 1_555
N5 C7 1_555 1_555
N6 C8 1_555 1_555
N7 O5 1_555 1_555
N8 O7 1_555 1_555
N9 C13 1_555 1_555
N10 C18 1_555 1_555
N11 C19 1_555 1_555
N12 C20 1_555 1_555
O1 Zn1 1_555 1_555
O2 N1 1_555 1_555
O3 Zn1 1_555 1_555
O4 N2 1_555 1_555
O5 Zn2 1_555 1_555
O6 N7 1_555 1_555
O7 Zn2 1_555 1_555
O8 N8 1_555 1_555
O9 H21 1_555 1_555
H22 O9 1_555 1_555
Zn1 N3 1_555 1_555
Zn2 N6 1_555 1_555
N9C Zn2 1_555 1_555
Zn2C N9 1_555 1_555
C5 N3 1_555 1_555
C10 C11 1_555 1_555
C12 N6 1_555 1_555
C17 N9 1_555 1_555
C22 C23 1_555 1_555
C24 N12 1_555 1_555
N4 N5 1_555 1_555
N10 N11 1_555 1_555
N12 Zn1 1_555 1_555
O2 Zn1 1_555 1_555
O4 Zn1 1_555 1_555
O6 Zn2 1_555 1_555
O8 Zn2 1_555 1_555

#END
