
#######################################################################
#
#                 Cambridge Crystallographic Data Centre
#                                CCDC 
#
#######################################################################
#
# If this CIF has been generated from an entry in the Cambridge 
# Structural Database, then it will include bibliographic, chemical, 
# crystal, experimental, refinement or atomic coordinate data resulting 
# from the CCDC's data processing and validation procedures.
#
#######################################################################

data_PIHNIF
_symmetry_cell_setting           orthorhombic
_symmetry_space_group_name_H-M   'P n m a'
_symmetry_Int_Tables_number      62
_space_group_name_Hall           '-P 2ac 2n'
loop_
_symmetry_equiv_pos_site_id
_symmetry_equiv_pos_as_xyz
1 x,y,z
2 1/2-x,-y,1/2+z
3 1/2+x,1/2-y,1/2-z
4 -x,1/2+y,-z
5 -x,-y,-z
6 1/2+x,y,1/2-z
7 1/2-x,1/2+y,1/2+z
8 x,1/2-y,z
_cell_length_a                   7.6031(6)
_cell_length_b                   7.2312(6)
_cell_length_c                   18.195(2)
_cell_angle_alpha                90
_cell_angle_beta                 90
_cell_angle_gamma                90
_cell_volume                     1000.35
loop_
_atom_site_label
_atom_site_type_symbol
_atom_site_fract_x
_atom_site_fract_y
_atom_site_fract_z
Ni1 Ni 0.50000 0.00000 0.50000
C1 C 0.5267(6) 0.25000 0.6403(3)
C2 C 0.5152(6) 0.25000 0.7225(3)
C3 C 0.5091(6) 0.08434 0.7616(3)
H1 H 0.5093(6) -0.04725 0.7340(3)
C4 C 0.4970(6) 0.08686 0.8380(3)
H2 H 0.4851(6) -0.03800 0.8704(3)
H3 H 0.4162(6) 0.37390 0.9742(3)
C5 C 0.4851(6) 0.25000 0.9556(3)
C6 C 0.6779(6) 0.25000 0.9827(3)
N1 N 0.5886(9) 0.25000 0.4577(5)
N2 N 0.6691(9) 0.25000 0.4013(5)
N3 N 0.7431(9) 0.25000 0.3461(5)
N4 N 0.4896(6) 0.25000 0.8749(7)
O1 O 0.5336(6) 0.09142 0.6102(3)
O2 O 0.7452(6) 0.09160 0.9907(3)
C3G C 0.5091(6) 0.41566 0.7616(3)
H1G H 0.5093(6) 0.54725 0.7340(3)
C4G C 0.4970(6) 0.41314 0.8380(3)
H2G H 0.4851(6) 0.53800 0.8704(3)
H3G H 0.4162(6) 0.12610 0.9742(3)
O1G O 0.5336(6) 0.40858 0.6102(3)
O2G O 0.7452(6) 0.40840 0.9907(3)
Ni1A Ni 1.00000 0.00000 1.00000
Ni1B Ni 1.00000 0.50000 1.00000
Ni1C Ni 0.50000 0.50000 0.50000
N1C N 0.4114(9) -0.25000 0.5423(5)
O1D O 0.4664(6) -0.09142 0.3898(3)
O2A O 0.7548(6) -0.09160 0.4907(3)
O2E O 0.2452(6) 0.09160 0.5093(3)
O3 O 0.7092(14) 0.25000 0.1563(7)
H4 H 0.7598(14) 0.25000 0.2056(7)
H5 H 0.8076(14) 0.25000 0.1216(7)
loop_
_geom_bond_atom_site_label_1
_geom_bond_atom_site_label_2
_geom_bond_site_symmetry_1
_geom_bond_site_symmetry_2
Ni1 N1 1_555 1_555
C1 C2 1_555 1_555
C2 C3 1_555 1_555
C3 H1 1_555 1_555
C4 C3 1_555 1_555
H2 C4 1_555 1_555
H3 C5 1_555 1_555
C5 C6 1_555 1_555
C6 O2 1_555 1_555
N1 N2 1_555 1_555
N2 N3 1_555 1_555
N4 C4 1_555 1_555
O1 Ni1 1_555 1_555
O2 Ni1A 1_555 1_555
O3 H4 1_555 1_555
H5 O3 1_555 1_555
C3G C2 1_555 1_555
H1G C3G 1_555 1_555
C4G N4 1_555 1_555
H2G C4G 1_555 1_555
H3G C5 1_555 1_555
O1G C1 1_555 1_555
O2G C6 1_555 1_555
Ni1B O2G 1_555 1_555
Ni1C N1 1_555 1_555
N1C Ni1 1_555 1_555
O1D Ni1 1_555 1_555
O2A Ni1 1_555 1_555
O2E Ni1 1_555 1_555
C1 O1 1_555 1_555
C5 N4 1_555 1_555
C3G C4G 1_555 1_555
O1G Ni1C 1_555 1_555

#END
