
#######################################################################
#
#                 Cambridge Crystallographic Data Centre
#                                CCDC 
#
#######################################################################
#
# If this CIF has been generated from an entry in the Cambridge 
# Structural Database, then it will include bibliographic, chemical, 
# crystal, experimental, refinement or atomic coordinate data resulting 
# from the CCDC's data processing and validation procedures.
#
#######################################################################

data_PIHQUU01
_symmetry_cell_setting           orthorhombic
_symmetry_space_group_name_H-M   'P b c a'
_symmetry_Int_Tables_number      61
_space_group_name_Hall           '-P 2ac 2ab'
loop_
_symmetry_equiv_pos_site_id
_symmetry_equiv_pos_as_xyz
1 x,y,z
2 1/2+x,1/2-y,-z
3 -x,1/2+y,1/2-z
4 1/2-x,-y,1/2+z
5 -x,-y,-z
6 1/2-x,1/2+y,z
7 x,1/2-y,1/2+z
8 1/2+x,y,1/2-z
_cell_length_a                   14.135(2)
_cell_length_b                   15.420(3)
_cell_length_c                   18.524(3)
_cell_angle_alpha                90
_cell_angle_beta                 90
_cell_angle_gamma                90
_cell_volume                     4037.52
loop_
_atom_site_label
_atom_site_type_symbol
_atom_site_fract_x
_atom_site_fract_y
_atom_site_fract_z
Zn1 Zn 0.66487(2) 1.03516(2) 0.356659(17)
P1 P 0.84368(5) 0.99552(5) 0.46064(4)
O1 O 0.78498(14) 0.99366(13) 0.39285(10)
O2 O 0.90803(14) 1.06976(13) 0.47423(11)
N1 N 0.91229(17) 0.90752(14) 0.46133(13)
H1 H 0.9703 0.9158 0.4772
N2 N 0.76435(16) 0.98410(16) 0.52723(12)
H2 H 0.7047 0.9801 0.5140
C1 C 0.5341(2) 0.9304(2) 0.42612(18)
H3 H 0.4765 0.8991 0.4304
O3 O 0.54716(17) 0.97013(15) 0.36786(12)
O4 O 0.58722(17) 0.9277(2) 0.47760(14)
C2 C 0.8915(2) 0.82399(18) 0.44078(16)
C3 C 0.8010(2) 0.7978(2) 0.4196(2)
H4 H 0.7497 0.8377 0.4199
C4 C 0.7874(3) 0.7142(2) 0.3983(2)
H5 H 0.7256 0.6972 0.3841
N3 N 0.85704(18) 0.65367(16) 0.39635(14)
C5 C 0.9423(2) 0.6786(2) 0.41933(17)
H6 H 0.9920 0.6371 0.4196
C6 C 0.9619(2) 0.7613(2) 0.44268(17)
H7 H 1.0233 0.7755 0.4600
C7 C 0.7820(2) 0.98020(19) 0.60050(15)
C8 C 0.7067(2) 0.9691(2) 0.64863(16)
H8 H 0.6437 0.9645 0.6311
C9 C 0.7247(2) 0.9650(2) 0.72143(16)
H9 H 0.6727 0.9580 0.7534
N4 N 0.81157(17) 0.97030(16) 0.74958(13)
C10 C 0.8838(2) 0.9809(2) 0.70357(16)
H10 H 0.9460 0.9846 0.7227
C11 C 0.8723(2) 0.9865(3) 0.63039(16)
H11 H 0.9257 0.9946 0.6000
Zn1C Zn 0.83513(2) 0.96484(2) 0.856659(17)
Zn1E Zn 0.83513(2) 0.53516(2) 0.356659(17)
N3E N 0.64296(18) 1.15367(16) 0.39635(14)
N4C N 0.68843(17) 1.02970(16) 0.24958(13)
loop_
_geom_bond_atom_site_label_1
_geom_bond_atom_site_label_2
_geom_bond_site_symmetry_1
_geom_bond_site_symmetry_2
Zn1 O1 1_555 1_555
P1 O1 1_555 1_555
O2 P1 1_555 1_555
N1 P1 1_555 1_555
H1 N1 1_555 1_555
N2 P1 1_555 1_555
H2 N2 1_555 1_555
C1 H3 1_555 1_555
O3 Zn1 1_555 1_555
O4 C1 1_555 1_555
C2 N1 1_555 1_555
C3 C2 1_555 1_555
H4 C3 1_555 1_555
C4 C3 1_555 1_555
H5 C4 1_555 1_555
N3 C4 1_555 1_555
C5 N3 1_555 1_555
H6 C5 1_555 1_555
C6 C2 1_555 1_555
H7 C6 1_555 1_555
C7 N2 1_555 1_555
C8 C7 1_555 1_555
H8 C8 1_555 1_555
C9 C8 1_555 1_555
H9 C9 1_555 1_555
N4 C9 1_555 1_555
C10 N4 1_555 1_555
H10 C10 1_555 1_555
C11 C7 1_555 1_555
H11 C11 1_555 1_555
Zn1C N4 1_555 1_555
Zn1E N3 1_555 1_555
N3E Zn1 1_555 1_555
N4C Zn1 1_555 1_555
C1 O3 1_555 1_555
C5 C6 1_555 1_555
C10 C11 1_555 1_555

#END
