
#######################################################################
#
#                 Cambridge Crystallographic Data Centre
#                                CCDC 
#
#######################################################################
#
# If this CIF has been generated from an entry in the Cambridge 
# Structural Database, then it will include bibliographic, chemical, 
# crystal, experimental, refinement or atomic coordinate data resulting 
# from the CCDC's data processing and validation procedures.
#
#######################################################################

data_PIHZEM
_symmetry_cell_setting           triclinic
_symmetry_space_group_name_H-M   'P -1'
_symmetry_Int_Tables_number      2
_space_group_name_Hall           '-P 1'
loop_
_symmetry_equiv_pos_site_id
_symmetry_equiv_pos_as_xyz
1 x,y,z
2 -x,-y,-z
_cell_length_a                   9.8472(6)
_cell_length_b                   10.8031(7)
_cell_length_c                   12.5890(8)
_cell_angle_alpha                94.044(1)
_cell_angle_beta                 96.049(1)
_cell_angle_gamma                93.241(1)
_cell_volume                     1325.68
loop_
_atom_site_label
_atom_site_type_symbol
_atom_site_fract_x
_atom_site_fract_y
_atom_site_fract_z
Mn1 Mn 0.35422(3) 0.15778(3) 0.61616(2)
Mn2 Mn 0.36280(3) 0.14101(3) 0.89514(2)
O1 O 0.50064(15) 0.10097(15) 0.77138(12)
O2 O 0.57844(14) 0.14220(14) 0.62031(11)
O3 O 1.09300(17) 0.1628(2) 0.60645(14)
O4 O 1.21954(13) 0.10218(13) 0.74125(11)
O5 O 1.00140(17) -0.20321(17) 0.94525(14)
H1 H 1.0079 -0.2514 0.9927
O6 O 0.80269(16) -0.17174(14) 1.00786(12)
O7 O 0.34416(17) 0.94487(13) 0.90838(12)
O8 O 0.47492(17) 0.80907(14) 0.98733(13)
O9 O 0.35341(16) 0.34150(13) 0.85872(12)
O10 O 0.38537(18) 0.33678(14) 0.68523(13)
O11 O 0.1138(3) 0.6253(2) 0.47701(17)
O12 O 0.09304(16) 0.81307(15) 0.55251(13)
H2 H 0.0419 0.8186 0.4975
O13 O 0.31704(18) -0.02410(15) 0.54183(14)
H3 H 0.2475 -0.0646 0.5596
H4 H 0.3547 -0.0583 0.4906
N1 N 0.33100(19) 0.24150(17) 0.45560(14)
N2 N 0.0804(2) 0.65097(18) 0.08176(16)
C1 C 0.3665(2) 0.4240(2) 0.36154(19)
H5 H 0.4229 0.4932 0.3514
C2 C 0.4072(2) 0.3432(2) 0.43683(19)
H6 H 0.4919 0.3599 0.4769
C3 C 0.2133(2) 0.2167(2) 0.39309(17)
H7 H 0.1618 0.1439 0.4015
C4 C 0.1639(2) 0.2930(2) 0.31678(17)
H8 H 0.0801 0.2724 0.2762
C5 C 0.2399(2) 0.4007(2) 0.30088(17)
C6 C 0.1857(2) 0.4882(2) 0.22415(18)
C7 C 0.0470(3) 0.5027(3) 0.2067(2)
H9 H -0.0132 0.4567 0.2431
C8 C -0.0026(3) 0.5847(3) 0.1358(2)
H10 H -0.0963 0.5940 0.1254
C9 C 0.2144(3) 0.6396(2) 0.0982(2)
H11 H 0.2720 0.6874 0.0610
C10 C 0.2710(3) 0.5597(2) 0.1683(2)
H12 H 0.3653 0.5536 0.1780
C11 C 0.7357(2) 0.07398(19) 0.75730(16)
C12 C 0.8504(2) 0.11677(19) 0.71157(16)
H13 H 0.8411 0.1714 0.6578
C13 C 0.9785(2) 0.07803(19) 0.74614(16)
C14 C 0.9910(2) -0.00694(19) 0.82436(16)
H14 H 1.0762 -0.0353 0.8460
C15 C 0.8760(2) -0.04958(18) 0.87015(16)
C16 C 0.7488(2) -0.00658(19) 0.83850(16)
H15 H 0.6728 -0.0316 0.8715
C17 C 0.5973(2) 0.10922(19) 0.71526(17)
C18 C 1.1030(2) 0.1193(2) 0.69603(16)
C19 C 0.8909(2) -0.14761(19) 0.94840(16)
C20 C 0.3352(2) 0.73832(18) 0.83035(16)
C21 C 0.3639(2) 0.61549(18) 0.84381(16)
H16 H 0.4111 0.5952 0.9075
C22 C 0.3225(2) 0.52291(18) 0.76287(16)
C23 C 0.2526(2) 0.55407(19) 0.66759(17)
H17 H 0.2285 0.4931 0.6119
C24 C 0.2187(2) 0.6752(2) 0.65514(16)
C25 C 0.2599(2) 0.76779(19) 0.73670(16)
H18 H 0.2371 0.8492 0.7286
C26 C 0.3893(2) 0.84046(18) 0.91523(16)
C27 C 0.3561(2) 0.38930(19) 0.77173(17)
C28 C 0.1381(3) 0.7003(2) 0.55277(19)
Mn1_2 Mn 1.35422(3) 0.15778(3) 0.61616(2)
Mn2_2 Mn 1.36280(3) 0.14101(3) 0.89514(2)
Mn2A Mn 0.63720(3) -0.14101(3) 1.10486(2)
Mn2_3 Mn 0.36280(3) 1.14101(3) 0.89514(2)
Mn2A_2 Mn 0.63720(3) 0.85899(3) 1.10486(2)
O4_2 O 0.21954(13) 0.10218(13) 0.74125(11)
O6A O 0.19731(16) 0.17174(14) 0.99214(12)
O7_2 O 0.34416(17) -0.05513(13) 0.90838(12)
O8A O 0.52508(17) 0.19093(14) 1.01267(13)
loop_
_geom_bond_atom_site_label_1
_geom_bond_atom_site_label_2
_geom_bond_site_symmetry_1
_geom_bond_site_symmetry_2
Mn1 O1 1_555 1_555
Mn2 O1 1_555 1_555
O1 C17 1_555 1_555
O2 Mn1 1_555 1_555
O3 C18 1_555 1_555
O4 C18 1_555 1_555
O5 H1 1_555 1_555
O6 C19 1_555 1_555
O7 C26 1_555 1_555
O8 C26 1_555 1_555
O9 Mn2 1_555 1_555
O10 Mn1 1_555 1_555
O11 C28 1_555 1_555
O12 H2 1_555 1_555
O13 Mn1 1_555 1_555
H3 O13 1_555 1_555
H4 O13 1_555 1_555
N1 Mn1 1_555 1_555
N2 C8 1_555 1_555
C1 H5 1_555 1_555
C2 N1 1_555 1_555
H6 C2 1_555 1_555
C3 N1 1_555 1_555
H7 C3 1_555 1_555
C4 C3 1_555 1_555
H8 C4 1_555 1_555
C5 C1 1_555 1_555
C6 C5 1_555 1_555
C7 C6 1_555 1_555
H9 C7 1_555 1_555
C8 C7 1_555 1_555
H10 C8 1_555 1_555
C9 N2 1_555 1_555
H11 C9 1_555 1_555
C10 C6 1_555 1_555
H12 C10 1_555 1_555
C11 C12 1_555 1_555
C12 H13 1_555 1_555
C13 C12 1_555 1_555
C14 C13 1_555 1_555
H14 C14 1_555 1_555
C15 C14 1_555 1_555
C16 C11 1_555 1_555
H15 C16 1_555 1_555
C17 O2 1_555 1_555
C18 C13 1_555 1_555
C19 O5 1_555 1_555
C20 C21 1_555 1_555
C21 H16 1_555 1_555
C22 C21 1_555 1_555
C23 C22 1_555 1_555
H17 C23 1_555 1_555
C24 C23 1_555 1_555
C25 C20 1_555 1_555
H18 C25 1_555 1_555
C26 C20 1_555 1_555
C27 O9 1_555 1_555
C28 O12 1_555 1_555
Mn1_2 O4 1_555 1_555
Mn2_2 O4 1_555 1_555
Mn2A O6 1_555 1_555
Mn2_3 O7 1_555 1_555
Mn2A_2 O8 1_555 1_555
O4_2 Mn1 1_555 1_555
O6A Mn2 1_555 1_555
O7_2 Mn2 1_555 1_555
O8A Mn2 1_555 1_555
Mn2 O4_2 1_555 1_555
O10 C27 1_555 1_555
C1 C2 1_555 1_555
C4 C5 1_555 1_555
C9 C10 1_555 1_555
C11 C17 1_555 1_555
C15 C16 1_555 1_555
C15 C19 1_555 1_555
C22 C27 1_555 1_555
C24 C25 1_555 1_555
C24 C28 1_555 1_555

#END
