
#######################################################################
#
#                 Cambridge Crystallographic Data Centre
#                                CCDC 
#
#######################################################################
#
# If this CIF has been generated from an entry in the Cambridge 
# Structural Database, then it will include bibliographic, chemical, 
# crystal, experimental, refinement or atomic coordinate data resulting 
# from the CCDC's data processing and validation procedures.
#
#######################################################################

data_PIJDAP
_symmetry_cell_setting           orthorhombic
_symmetry_space_group_name_H-M   'P b c a'
_symmetry_Int_Tables_number      61
_space_group_name_Hall           '-P 2ac 2ab'
loop_
_symmetry_equiv_pos_site_id
_symmetry_equiv_pos_as_xyz
1 x,y,z
2 1/2-x,-y,1/2+z
3 1/2+x,1/2-y,-z
4 -x,1/2+y,1/2-z
5 -x,-y,-z
6 1/2+x,y,1/2-z
7 1/2-x,1/2+y,z
8 x,1/2-y,1/2+z
_cell_length_a                   11.116
_cell_length_b                   5.810
_cell_length_c                   46.919(1)
_cell_angle_alpha                90
_cell_angle_beta                 90
_cell_angle_gamma                90
_cell_volume                     3030.21
loop_
_atom_site_label
_atom_site_type_symbol
_atom_site_fract_x
_atom_site_fract_y
_atom_site_fract_z
S1 S 0.44202(16) 0.1230(3) 0.04106(3)
Na1 Na 0.1468(3) 0.1427(5) 0.00911(6)
O1 O 0.4736(4) 0.3187(7) 0.02349(9)
C1 C 0.3579(6) 0.0986(11) 0.09535(13)
H1 H 0.3176 -0.0330 0.0893
O2 O 0.3315(5) 0.0126(9) 0.03308(9)
C2 C 0.4875(6) 0.4221(9) 0.08348(13)
H2 H 0.5311 0.5067 0.0702
C3 C 0.4251(6) 0.2293(10) 0.07611(13)
O3 O 0.5398(5) -0.0417(9) 0.04260(11)
N1 N 0.4282(5) 0.4587(9) 0.15843(11)
N2 N 0.5372(5) 0.6646(9) 0.12700(11)
C4 C 0.5005(6) 0.6407(12) 0.15451(14)
C5 C 0.4817(6) 0.4856(11) 0.11244(13)
C6 C 0.4160(6) 0.3579(13) 0.13177(13)
C7 C 0.5989(7) 0.9957(13) 0.17141(17)
H3 H 0.6071 1.0442 0.1526
C8 C 0.3522(6) 0.1682(12) 0.12358(13)
H4 H 0.3059 0.0872 0.1367
C9 C 0.5748(8) 0.8548(15) 0.22735(16)
H5 H 0.5669 0.8069 0.2462
C10 C 0.5320(7) 0.7198(14) 0.20569(15)
H6 H 0.4944 0.5810 0.2099
C11 C 0.6414(7) 1.1303(14) 0.19338(17)
H7 H 0.6785 1.2698 0.1892
C12 C 0.6298(7) 1.0623(15) 0.22124(17)
H8 H 0.6587 1.1550 0.2359
C13 C 0.5444(6) 0.7890(12) 0.17747(14)
O4 O 0.2171(5) -0.1524(11) -0.02441(11)
Na1B Na 0.6468(3) 0.3573(5) -0.00911(6)
Na1F Na 0.3532(3) -0.3573(5) 0.00911(6)
Na1F_2 Na 0.3532(3) 0.6427(5) 0.00911(6)
O1B O -0.0264(4) 0.1813(7) -0.02349(9)
O1F O 0.0264(4) -0.1813(7) 0.02349(9)
O2F O 0.1685(5) 0.5126(9) 0.03308(9)
O4F O 0.2829(5) 0.3476(11) -0.02441(11)
O5 O 0.2878(6) 0.3137(16) 0.20497(13)
O6 O 0.6943(6) 0.9352(14) 0.09334(14)
loop_
_geom_bond_atom_site_label_1
_geom_bond_atom_site_label_2
_geom_bond_site_symmetry_1
_geom_bond_site_symmetry_2
S1 O1 1_555 1_555
Na1 O2 1_555 1_555
O1 Na1B 1_555 1_555
C1 H1 1_555 1_555
O2 S1 1_555 1_555
C2 H2 1_555 1_555
C3 S1 1_555 1_555
O3 S1 1_555 1_555
N1 C4 1_555 1_555
N2 C4 1_555 1_555
C4 C13 1_555 1_555
C5 C2 1_555 1_555
C6 N1 1_555 1_555
C7 H3 1_555 1_555
C8 C1 1_555 1_555
H4 C8 1_555 1_555
C9 H5 1_555 1_555
C10 C9 1_555 1_555
H6 C10 1_555 1_555
C11 C7 1_555 1_555
H7 C11 1_555 1_555
C12 C9 1_555 1_555
H8 C12 1_555 1_555
C13 C7 1_555 1_555
O4 Na1 1_555 1_555
Na1F O2 1_555 1_555
Na1F_2 O1 1_555 1_555
O1B Na1 1_555 1_555
O1F Na1 1_555 1_555
O2F Na1 1_555 1_555
O4F Na1 1_555 1_555
C1 C3 1_555 1_555
C2 C3 1_555 1_555
N2 C5 1_555 1_555
C5 C6 1_555 1_555
C6 C8 1_555 1_555
C10 C13 1_555 1_555
C11 C12 1_555 1_555
O4 Na1F 1_555 1_555
Na1F_2 O2F 1_555 1_555
Na1F_2 O4F 1_555 1_555

#END
