
#######################################################################
#
#                 Cambridge Crystallographic Data Centre
#                                CCDC 
#
#######################################################################
#
# If this CIF has been generated from an entry in the Cambridge 
# Structural Database, then it will include bibliographic, chemical, 
# crystal, experimental, refinement or atomic coordinate data resulting 
# from the CCDC's data processing and validation procedures.
#
#######################################################################

data_PIJDIW
_symmetry_cell_setting           monoclinic
_symmetry_space_group_name_H-M   'C 2/c'
_symmetry_Int_Tables_number      15
_space_group_name_Hall           '-C 2yn'
loop_
_symmetry_equiv_pos_site_id
_symmetry_equiv_pos_as_xyz
1 x,y,z
2 1/2+x,1/2+y,z
3 -x,y,1/2-z
4 1/2-x,1/2+y,1/2-z
5 -x,-y,-z
6 1/2-x,1/2-y,-z
7 x,-y,1/2+z
8 1/2+x,1/2-y,1/2+z
_cell_length_a                   7.6900(15)
_cell_length_b                   18.853(3)
_cell_length_c                   19.405(6)
_cell_angle_alpha                90
_cell_angle_beta                 90.13(4)
_cell_angle_gamma                90
_cell_volume                     2813.32
loop_
_atom_site_label
_atom_site_type_symbol
_atom_site_fract_x
_atom_site_fract_y
_atom_site_fract_z
Co1 Co 0.0000 0.24132(7) 0.2500
Co2 Co 0.2500 0.2500 0.5000
O1 O 0.1794(7) 0.2407(3) 0.1701(3)
O2 O 0.3159(7) 0.2959(4) 0.0875(3)
O3 O 0.1815(7) 0.2446(3) 0.3308(3)
O4 O 0.3348(7) 0.1925(3) 0.4137(2)
O5 O 0.0000 0.1329(4) 0.2500
O6 O 0.0000 0.3506(4) 0.2500
O7 O 0.1259(8) 0.1598(3) 0.5416(3)
O8 O 0.0356(9) 0.2845(4) 0.4480(3)
H1 H -0.0597 0.2876 0.4669
H4 H 0.0158 0.3167 0.4196
H6 H 0.0168 0.1533 0.5421
H7 H 0.1672 0.1398 0.5785
H15 H -0.0028 0.1104 0.2155
H16 H 0.0431 0.3768 0.2851
C1 C 0.5000 0.2018(4) 0.2500
C2 C 0.4063(8) 0.1658(4) 0.2995(3)
C3 C 0.4080(9) 0.0923(4) 0.2997(3)
H19 H 0.3459 0.0668 0.3339
C4 C 0.5000 0.0568(5) 0.2500
H20 H 0.5000 0.0064 0.2500
C5 C 0.5000 0.2799(4) 0.2500
C6 C 0.4047(8) 0.3206(4) 0.2010(3)
C7 C 0.4115(10) 0.3931(4) 0.2006(4)
H21 H 0.3532 0.4184 0.1651
C8 C 0.5000 0.4301(5) 0.2500
H22 H 0.5000 0.4804 0.2500
C9 C 0.3003(8) 0.2041(3) 0.3517(3)
C10 C 0.2936(9) 0.2835(4) 0.1500(4)
Co1_2 Co 1.0000 0.24132(7) 0.2500
Co2G Co 0.7500 0.2500 0.0000
O1B O 0.8206(7) 0.2407(3) 0.3299(3)
O1B_2 O -0.1794(7) 0.2407(3) 0.3299(3)
O2B O 0.6841(7) 0.2959(4) 0.4125(3)
O3B O 0.8185(7) 0.2446(3) 0.1692(3)
O3B_2 O -0.1815(7) 0.2446(3) 0.1692(3)
O4B O 0.6652(7) 0.1925(3) 0.0863(2)
O4E O 0.1652(7) 0.3075(3) 0.5863(2)
O7E O 0.3741(8) 0.3402(3) 0.4584(3)
O8E O 0.4644(9) 0.2155(4) 0.5520(3)
H1E H 0.5597 0.2124 0.5331
H4E H 0.4842 0.1833 0.5804
H6E H 0.4832 0.3467 0.4579
H7E H 0.3328 0.3602 0.4215
H15B H 0.0028 0.1104 0.2845
H16B H -0.0431 0.3768 0.2149
C2B C 0.5937(8) 0.1658(4) 0.2005(3)
C3B C 0.5920(9) 0.0923(4) 0.2003(3)
H19B H 0.6541 0.0668 0.1661
C6B C 0.5953(8) 0.3206(4) 0.2990(3)
C7B C 0.5885(10) 0.3931(4) 0.2994(4)
H21B H 0.6468 0.4184 0.3349
C9B C 0.6997(8) 0.2041(3) 0.1483(3)
C10B C 0.7064(9) 0.2835(4) 0.3500(4)
O9 O 0.0996(9) -0.0404(3) -0.0427(3)
H5 H 0.1171 -0.0056 -0.0147
H8 H 0.0806 -0.0738 -0.0180
H2 H 0.2139 0.0800 0.1191
H9 H 0.0458 0.0403 0.1326
O12 O 0.1503(6) 0.0538(2) 0.14559(19)
H3 H 0.3513 0.1046 0.0330
H10 H 0.3705 0.1766 0.0402
O11 O 0.3379(9) 0.1393(3) 0.0580(3)
H11 H 0.3441 0.0034 -0.0661
H12 H 0.4738 0.0315 -0.0153
O14 O 0.3968(6) 0.0397(2) -0.04686(19)
H13 H 0.4425 -0.0666 0.1288
H14 H 0.2535 -0.0499 0.1359
O13 O 0.3415(6) -0.0771(2) 0.14105(19)
O10 O 0.2500(9) 0.2500(3) 0.0000(3)
H18 H 0.2800 0.2684 -0.0406
H18E H 0.2200 0.2316 0.0406
H17? H 0.1683 0.2603 0.0267
loop_
_geom_bond_atom_site_label_1
_geom_bond_atom_site_label_2
_geom_bond_site_symmetry_1
_geom_bond_site_symmetry_2
Co1 O1 1_555 1_555
Co2 O4 1_555 1_555
O1 C10 1_555 1_555
O2 C10 1_555 1_555
O3 Co1 1_555 1_555
O4 C9 1_555 1_555
O5 Co1 1_555 1_555
O6 Co1 1_555 1_555
O7 Co2 1_555 1_555
O8 Co2 1_555 1_555
O9 H5 1_555 1_555
H1 O8 1_555 1_555
H2 O12 1_555 1_555
H3 O11 1_555 1_555
H4 O8 1_555 1_555
H6 O7 1_555 1_555
H7 O7 1_555 1_555
H8 O9 1_555 1_555
H9 O12 1_555 1_555
H10 O11 1_555 1_555
H11 O14 1_555 1_555
H12 O14 1_555 1_555
H13 O13 1_555 1_555
H14 O13 1_555 1_555
H15 O5 1_555 1_555
H16 O6 1_555 1_555
O10 H18 1_555 1_555
C1 C2 1_555 1_555
C2 C3 1_555 1_555
C3 H19 1_555 1_555
C4 C3 1_555 1_555
H20 C4 1_555 1_555
C5 C1 1_555 1_555
C6 C5 1_555 1_555
C7 C6 1_555 1_555
H21 C7 1_555 1_555
C8 C7 1_555 1_555
H22 C8 1_555 1_555
C9 O3 1_555 1_555
C10 C6 1_555 1_555
Co1_2 O1B 1_555 1_555
Co2G O4B 1_555 1_555
O1B C10B 1_555 1_555
O1B_2 Co1 1_555 1_555
O2B C10B 1_555 1_555
O3B Co1_2 1_555 1_555
O3B_2 Co1 1_555 1_555
O4B C9B 1_555 1_555
O4E Co2 1_555 1_555
O7E Co2 1_555 1_555
O8E Co2 1_555 1_555
H1E O8E 1_555 1_555
H4E O8E 1_555 1_555
H6E O7E 1_555 1_555
H7E O7E 1_555 1_555
H15B O5 1_555 1_555
H16B O6 1_555 1_555
H18E O10 1_555 1_555
C2B C1 1_555 1_555
C3B C4 1_555 1_555
H19B C3B 1_555 1_555
C6B C5 1_555 1_555
C7B C8 1_555 1_555
H21B C7B 1_555 1_555
C9B O3B 1_555 1_555
C10B C6B 1_555 1_555
C2 C9 1_555 1_555
C2B C3B 1_555 1_555
C2B C9B 1_555 1_555
C6B C7B 1_555 1_555

#END
