
#######################################################################
#
#                 Cambridge Crystallographic Data Centre
#                                CCDC 
#
#######################################################################
#
# If this CIF has been generated from an entry in the Cambridge 
# Structural Database, then it will include bibliographic, chemical, 
# crystal, experimental, refinement or atomic coordinate data resulting 
# from the CCDC's data processing and validation procedures.
#
#######################################################################

data_PIJJUO
_symmetry_cell_setting           orthorhombic
_symmetry_space_group_name_H-M   'P 2 2 21'
_symmetry_Int_Tables_number      17
_space_group_name_Hall           'P 2c 2'
loop_
_symmetry_equiv_pos_site_id
_symmetry_equiv_pos_as_xyz
1 x,y,z
2 -x,-y,1/2+z
3 -x,y,1/2-z
4 x,-y,-z
_cell_length_a                   8.8594(15)
_cell_length_b                   11.698(2)
_cell_length_c                   14.955(3)
_cell_angle_alpha                90
_cell_angle_beta                 90
_cell_angle_gamma                90
_cell_volume                     1549.9
loop_
_atom_site_label
_atom_site_type_symbol
_atom_site_fract_x
_atom_site_fract_y
_atom_site_fract_z
Zn1 Zn 0.26908(4) 0.14949(3) 0.98478(3)
N1 N 0.1849(4) 0.2406(2) 1.0896(2)
N2 N 0.0978(3) 0.3327(2) 1.0696(2)
H1 H 0.1003 0.3684 1.0194
N3 N 0.4504(3) 0.0576(2) 1.0095(2)
N4 N 1.0964(3) 0.0428(2) 0.9687(2)
O1 O 0.3329(4) 0.2447(2) 0.8855(2)
O2 O 0.2081(4) 0.4039(3) 0.9131(2)
C1 C 0.2186(6) 0.1100(3) 1.2177(3)
H2 H 0.2910 0.0752 1.1784
H3 H 0.1421 0.0552 1.2328
H4 H 0.2684 0.1352 1.2712
C2 C 0.1478(5) 0.2097(3) 1.1722(3)
C3 C 0.0365(5) 0.2826(3) 1.2060(3)
C4 C 0.0079(4) 0.3607(3) 1.1376(3)
C5 C -0.0987(5) 0.4592(4) 1.1332(3)
H5 H -0.0902 0.4957 1.0759
H6 H -0.0743 0.5131 1.1794
H7 H -0.2001 0.4323 1.1414
C6 C 0.6297(5) 0.2143(3) 1.0371(4)
H8 H 0.5374 0.2562 1.0443
H9 H 0.6878 0.2474 0.9895
H10 H 0.6867 0.2173 1.0917
C7 C 0.5944(4) 0.0926(3) 1.0151(3)
C8 C 0.6900(5) 0.0000 1.0000
C9 C 0.8561(5) 0.0000 1.0000
C10 C 0.9510(4) 0.0694(3) 0.9495(3)
C11 C 0.9144(5) 0.1599(4) 0.8829(3)
H11 H 1.0062 0.1917 0.8597
H12 H 0.8566 0.2191 0.9113
H13 H 0.8568 0.1273 0.8349
C12 C 0.5000 0.5886(5) 0.7500
H14 H 0.5000 0.6681 0.7500
C13 C 0.4079(5) 0.5304(3) 0.8083(3)
H15 H 0.3459 0.5706 0.8474
C14 C 0.4072(5) 0.4112(3) 0.8088(2)
C15 C 0.5000 0.3518(5) 0.7500
H16 H 0.5000 0.2723 0.7500
C16 C 0.3081(4) 0.3509(4) 0.8743(3)
Zn1B Zn -0.26908(4) 0.14949(3) 1.51522(3)
Zn1_2 Zn 1.26908(4) 0.14949(3) 0.98478(3)
Zn1C Zn 0.26908(4) -0.14949(3) 1.01522(3)
Zn1C_2 Zn 1.26908(4) -0.14949(3) 1.01522(3)
Zn1B_2 Zn 0.73092(4) 0.14949(3) 0.51522(3)
N1B N -0.1849(4) 0.2406(2) 1.4104(2)
N2B N -0.0978(3) 0.3327(2) 1.4304(2)
H1B H -0.1003 0.3684 1.4806
N3C N 0.4504(3) -0.0576(2) 0.9905(2)
N3B N -0.4504(3) 0.0576(2) 1.4905(2)
N4C N 1.0964(3) -0.0428(2) 1.0313(2)
N4_2 N 0.0964(3) 0.0428(2) 0.9687(2)
N4B N -0.0964(3) 0.0428(2) 1.5313(2)
O1B O 0.6671(4) 0.2447(2) 0.6145(2)
O1B_2 O -0.3329(4) 0.2447(2) 1.6145(2)
O2B O 0.7919(4) 0.4039(3) 0.5869(2)
C1B C -0.2186(6) 0.1100(3) 1.2823(3)
H2B H -0.2910 0.0752 1.3216
H3B H -0.1421 0.0552 1.2672
H4B H -0.2684 0.1352 1.2288
C2B C -0.1478(5) 0.2097(3) 1.3278(3)
C3B C -0.0365(5) 0.2826(3) 1.2940(3)
C4B C -0.0079(4) 0.3607(3) 1.3624(3)
C5B C 0.0987(5) 0.4592(4) 1.3668(3)
H5B H 0.0902 0.4957 1.4241
H6B H 0.0743 0.5131 1.3206
H7B H 0.2001 0.4323 1.3586
C6C C 0.6297(5) -0.2143(3) 0.9629(4)
H8C H 0.5374 -0.2562 0.9557
H9C H 0.6878 -0.2474 1.0105
H10C H 0.6867 -0.2173 0.9083
C7C C 0.5944(4) -0.0926(3) 0.9849(3)
C10C C 0.9510(4) -0.0694(3) 1.0505(3)
C11C C 0.9144(5) -0.1599(4) 1.1171(3)
H11C H 1.0062 -0.1917 1.1403
H12C H 0.8566 -0.2191 1.0887
H13C H 0.8568 -0.1273 1.1651
C13B C 0.5921(5) 0.5304(3) 0.6917(3)
H15B H 0.6541 0.5706 0.6526
C14B C 0.5928(5) 0.4112(3) 0.6912(2)
C16B C 0.6919(4) 0.3509(4) 0.6257(3)
loop_
_geom_bond_atom_site_label_1
_geom_bond_atom_site_label_2
_geom_bond_site_symmetry_1
_geom_bond_site_symmetry_2
Zn1 N1 1_555 1_555
N1 N2 1_555 1_555
N2 H1 1_555 1_555
N3 Zn1 1_555 1_555
N4 C10 1_555 1_555
O1 Zn1 1_555 1_555
O2 C16 1_555 1_555
C1 H2 1_555 1_555
H3 C1 1_555 1_555
H4 C1 1_555 1_555
C2 N1 1_555 1_555
C3 C2 1_555 1_555
C4 N2 1_555 1_555
C5 C4 1_555 1_555
H5 C5 1_555 1_555
H6 C5 1_555 1_555
H7 C5 1_555 1_555
C6 H8 1_555 1_555
H9 C6 1_555 1_555
H10 C6 1_555 1_555
C7 N3 1_555 1_555
C8 C7 1_555 1_555
C9 C8 1_555 1_555
C10 C9 1_555 1_555
C11 C10 1_555 1_555
H11 C11 1_555 1_555
H12 C11 1_555 1_555
H13 C11 1_555 1_555
C12 H14 1_555 1_555
C13 C12 1_555 1_555
H15 C13 1_555 1_555
C14 C13 1_555 1_555
C15 C14 1_555 1_555
H16 C15 1_555 1_555
C16 O1 1_555 1_555
Zn1B N1B 1_555 1_555
Zn1_2 N4 1_555 1_555
Zn1C N3C 1_555 1_555
Zn1C_2 N4C 1_555 1_555
Zn1B_2 O1B 1_555 1_555
N1B N2B 1_555 1_555
N2B H1B 1_555 1_555
N3C N3 1_555 1_555
N3B Zn1B 1_555 1_555
N4C N4 1_555 1_555
N4_2 Zn1 1_555 1_555
N4B Zn1B 1_555 1_555
O1B C16B 1_555 1_555
O1B_2 Zn1B 1_555 1_555
O2B C16B 1_555 1_555
C1B H2B 1_555 1_555
H3B C1B 1_555 1_555
H4B C1B 1_555 1_555
C2B N1B 1_555 1_555
C3B C3 1_555 1_555
C4B N2B 1_555 1_555
C5B C4B 1_555 1_555
H5B C5B 1_555 1_555
H6B C5B 1_555 1_555
H7B C5B 1_555 1_555
C6C H8C 1_555 1_555
H9C C6C 1_555 1_555
H10C C6C 1_555 1_555
C7C C8 1_555 1_555
C10C C9 1_555 1_555
C11C C10C 1_555 1_555
H11C C11C 1_555 1_555
H12C C11C 1_555 1_555
H13C C11C 1_555 1_555
C13B C12 1_555 1_555
H15B C13B 1_555 1_555
C14B C15 1_555 1_555
C16B C14B 1_555 1_555
C1 C2 1_555 1_555
C3 C4 1_555 1_555
C6 C7 1_555 1_555
C14 C16 1_555 1_555
N3C C7C 1_555 1_555
N4C C10C 1_555 1_555
C1B C2B 1_555 1_555
C2B C3B 1_555 1_555
C3B C4B 1_555 1_555
C6C C7C 1_555 1_555
C13B C14B 1_555 1_555

#END
