
#######################################################################
#
#                 Cambridge Crystallographic Data Centre
#                                CCDC 
#
#######################################################################
#
# If this CIF has been generated from an entry in the Cambridge 
# Structural Database, then it will include bibliographic, chemical, 
# crystal, experimental, refinement or atomic coordinate data resulting 
# from the CCDC's data processing and validation procedures.
#
#######################################################################

data_PIJKAV
_symmetry_cell_setting           triclinic
_symmetry_space_group_name_H-M   'P -1'
_symmetry_Int_Tables_number      2
_space_group_name_Hall           '-P 1'
loop_
_symmetry_equiv_pos_site_id
_symmetry_equiv_pos_as_xyz
1 x,y,z
2 -x,-y,-z
_cell_length_a                   9.5327(6)
_cell_length_b                   9.8051(6)
_cell_length_c                   18.9863(12)
_cell_angle_alpha                96.0740(10)
_cell_angle_beta                 100.8200(10)
_cell_angle_gamma                109.6750(10)
_cell_volume                     1613.68
loop_
_atom_site_label
_atom_site_type_symbol
_atom_site_fract_x
_atom_site_fract_y
_atom_site_fract_z
Zn1 Zn 0.63347(4) 0.18424(4) 1.021984(17)
Zn2 Zn 0.24289(4) 0.15806(3) 0.525032(18)
N1 N 0.6377(3) 0.2401(3) 0.92373(12)
N2 N 0.7742(3) 0.2933(3) 0.90575(13)
H1 H 0.8610 0.3056 0.9340
N3 N 0.3818(3) 0.2443(3) 0.62366(13)
N4 N 0.4511(3) 0.3924(3) 0.64341(13)
H2 H 0.4400 0.4537 0.6156
C1 C 0.2841(3) 0.0799(3) 1.12594(15)
C2 C 0.1759(3) 0.1180(3) 1.08157(15)
H3 H 0.1875 0.1365 1.0355
C3 C 0.0502(3) 0.1290(3) 1.10512(15)
C4 C 0.0271(3) 0.0917(3) 1.17132(15)
H4 H -0.0588 0.0959 1.1866
C5 C 0.1328(3) 0.0479(3) 1.21517(15)
C6 C 0.2624(3) 0.0451(3) 1.19305(15)
H5 H 0.3350 0.0198 1.2232
C7 C 0.4320(3) 0.0920(3) 1.10631(15)
C8 C 0.1170(4) 0.0142(4) 1.28861(17)
C9 C -0.0572(3) 0.1868(3) 1.05968(16)
C10 C 0.3660(4) 0.1882(4) 0.86644(19)
H6 H 0.3526 0.1586 0.9121
H7 H 0.3088 0.1062 0.8273
H8 H 0.3296 0.2673 0.8601
C11 C 0.5317(3) 0.2385(3) 0.86612(15)
C12 C 0.6021(3) 0.2907(3) 0.81085(15)
C13 C 0.7567(4) 0.3243(3) 0.83838(16)
C14 C 0.8908(4) 0.3825(5) 0.8057(2)
H9 H 0.9832 0.3936 0.8403
H10 H 0.8970 0.4764 0.7933
H11 H 0.8786 0.3149 0.7626
C15 C 0.3777(5) 0.0270(4) 0.6785(2)
H12 H 0.3104 -0.0232 0.6318
H13 H 0.3242 0.0014 0.7162
H14 H 0.4655 -0.0015 0.6859
C16 C 0.4288(3) 0.1897(3) 0.68121(16)
C17 C 0.5267(3) 0.3037(3) 0.73821(16)
C18 C 0.5387(4) 0.4317(3) 0.71135(16)
C19 C 0.6236(5) 0.5888(4) 0.7454(2)
H15 H 0.6058 0.6500 0.7111
H16 H 0.7314 0.6069 0.7593
H17 H 0.5887 0.6112 0.7879
C20 C 0.2219(3) 0.4293(3) 0.48501(15)
C21 C 0.0620(3) 0.7139(3) 0.42424(14)
C22 C -0.0482(3) 0.6327(3) 0.36143(15)
H18 H -0.1089 0.6762 0.3353
C23 C -0.0689(3) 0.4871(3) 0.33721(15)
C24 C 0.0185(3) 0.4211(3) 0.37753(15)
H19 H 0.0016 0.3223 0.3626
C25 C 0.1307(3) 0.5011(3) 0.44001(14)
C26 C 0.1537(3) 0.6482(3) 0.46236(15)
H20 H 0.2311 0.7034 0.5032
C27 C 0.0805(3) 0.8696(3) 0.45047(14)
C28 C -0.1843(4) 0.4065(3) 0.26795(16)
O1 O 0.4297(2) 0.0811(2) 1.03773(11)
O2 O 0.6433(3) 0.3849(3) 1.07659(13)
H21 H 0.6879 0.4556 1.0566
H22 H 0.6904 0.3982 1.1209
O3 O 0.4329(3) 0.2061(3) 0.46969(14)
H23 H 0.4857 0.2974 0.4753
H24 H 0.3901 0.1657 0.4254
O4 O 0.5470(2) 0.1164(2) 1.15430(12)
O5 O -0.0124(3) 0.0090(4) 1.30308(14)
H25 H -0.0193 -0.0217 1.3430
O7 O 0.2161(4) -0.0048(5) 1.33076(16)
O8 O -0.1848(2) 0.1614(3) 1.07521(12)
O9 O -0.0124(3) 0.2563(3) 1.01209(13)
O10 O 0.1635(2) 0.2895(2) 0.47482(11)
O11 O 0.3434(2) 0.5074(2) 0.52954(12)
O12 O -0.0272(2) 0.9128(2) 0.42653(10)
O13 O 0.2040(2) 0.9498(2) 0.49485(11)
O14 O -0.2482(3) 0.4657(2) 0.22765(12)
O15 O -0.2034(4) 0.2673(3) 0.25385(15)
H28 H -0.2782 0.2253 0.2169
Zn1_2 Zn -0.36653(4) 0.18424(4) 1.021984(17)
Zn2A Zn -0.24289(4) 0.84194(3) 0.474968(18)
Zn2_2 Zn 0.24289(4) 1.15806(3) 0.525032(18)
O8_2 O 0.8152(2) 0.1614(3) 1.07521(12)
O12A O 0.0272(2) 0.0872(2) 0.57347(10)
O13_2 O 0.2040(2) -0.0502(2) 0.49485(11)
O6 O 0.7075(4) 0.5854(3) 0.99225(19)
H26 H 0.7974 0.6249 0.9861
H27 H 0.6741 0.6513 1.0062
O16 O 0.459(2) -0.030(2) 1.4260(10)
H29 H 0.3791 -0.0142 1.4082
H30 H 0.5383 0.0210 1.4130
loop_
_geom_bond_atom_site_label_1
_geom_bond_atom_site_label_2
_geom_bond_site_symmetry_1
_geom_bond_site_symmetry_2
Zn1 N1 1_555 1_555
Zn2 N3 1_555 1_555
N1 N2 1_555 1_555
N2 H1 1_555 1_555
N3 N4 1_555 1_555
N4 H2 1_555 1_555
C1 C2 1_555 1_555
C2 H3 1_555 1_555
C3 C2 1_555 1_555
C4 C3 1_555 1_555
H4 C4 1_555 1_555
C5 C4 1_555 1_555
C6 C1 1_555 1_555
H5 C6 1_555 1_555
C7 C1 1_555 1_555
C8 C5 1_555 1_555
C9 C3 1_555 1_555
C10 H6 1_555 1_555
H7 C10 1_555 1_555
H8 C10 1_555 1_555
C11 N1 1_555 1_555
C12 C11 1_555 1_555
C13 N2 1_555 1_555
C14 C13 1_555 1_555
H9 C14 1_555 1_555
H10 C14 1_555 1_555
H11 C14 1_555 1_555
C15 H12 1_555 1_555
H13 C15 1_555 1_555
H14 C15 1_555 1_555
C16 N3 1_555 1_555
C17 C12 1_555 1_555
C18 N4 1_555 1_555
C19 C18 1_555 1_555
H15 C19 1_555 1_555
H16 C19 1_555 1_555
H17 C19 1_555 1_555
C20 C25 1_555 1_555
C21 C22 1_555 1_555
C22 H18 1_555 1_555
C23 C22 1_555 1_555
C24 C23 1_555 1_555
H19 C24 1_555 1_555
C25 C24 1_555 1_555
C26 C21 1_555 1_555
H20 C26 1_555 1_555
C27 C21 1_555 1_555
C28 C23 1_555 1_555
O1 Zn1 1_555 1_555
O2 Zn1 1_555 1_555
H21 O2 1_555 1_555
H22 O2 1_555 1_555
O3 Zn2 1_555 1_555
H23 O3 1_555 1_555
H24 O3 1_555 1_555
O4 C7 1_555 1_555
O5 C8 1_555 1_555
H25 O5 1_555 1_555
O6 H26 1_555 1_555
H27 O6 1_555 1_555
O7 C8 1_555 1_555
O8 C9 1_555 1_555
O9 C9 1_555 1_555
O10 Zn2 1_555 1_555
O11 C20 1_555 1_555
O12 C27 1_555 1_555
O13 C27 1_555 1_555
O14 C28 1_555 1_555
O15 C28 1_555 1_555
H28 O15 1_555 1_555
O16 H29 1_555 1_555
H30 O16 1_555 1_555
Zn1_2 O8 1_555 1_555
Zn2A O12 1_555 1_555
Zn2_2 O13 1_555 1_555
O8_2 Zn1 1_555 1_555
O12A Zn2 1_555 1_555
O13_2 Zn2 1_555 1_555
C5 C6 1_555 1_555
C7 O1 1_555 1_555
C10 C11 1_555 1_555
C12 C13 1_555 1_555
C15 C16 1_555 1_555
C16 C17 1_555 1_555
C17 C18 1_555 1_555
C20 O10 1_555 1_555
C25 C26 1_555 1_555

#END
