
#######################################################################
#
#                 Cambridge Crystallographic Data Centre
#                                CCDC 
#
#######################################################################
#
# If this CIF has been generated from an entry in the Cambridge 
# Structural Database, then it will include bibliographic, chemical, 
# crystal, experimental, refinement or atomic coordinate data resulting 
# from the CCDC's data processing and validation procedures.
#
#######################################################################

data_PIJSIM
_symmetry_cell_setting           orthorhombic
_symmetry_space_group_name_H-M   'P 21 21 21'
_symmetry_Int_Tables_number      19
_space_group_name_Hall           'P 2ac 2ab'
loop_
_symmetry_equiv_pos_site_id
_symmetry_equiv_pos_as_xyz
1 x,y,z
2 1/2-x,-y,1/2+z
3 1/2+x,1/2-y,-z
4 -x,1/2+y,1/2-z
_cell_length_a                   12.3149(17)
_cell_length_b                   12.7297(7)
_cell_length_c                   14.0515(11)
_cell_angle_alpha                90
_cell_angle_beta                 90
_cell_angle_gamma                90
_cell_volume                     2202.78
loop_
_atom_site_label
_atom_site_type_symbol
_atom_site_fract_x
_atom_site_fract_y
_atom_site_fract_z
Zn1 Zn 0.40619(5) 0.85177(3) 0.59746(4)
O1 O 0.3777(3) 0.95482(19) 0.7044(2)
N1 N 0.3674(3) 0.7498(2) 0.7039(3)
O2 O 0.4241(3) 0.71921(16) 0.5123(2)
O3 O 0.4510(3) 0.56007(17) 0.4644(2)
C1 C 0.4928(4) 0.2850(3) 0.4030(4)
N2 N 0.3322(3) 0.8020(2) 0.7858(3)
C2 C 0.3757(3) 0.6482(3) 0.7115(3)
C3 C 0.2964(4) 0.9651(3) 0.8579(3)
C4 C 0.4802(4) 0.3955(3) 0.3958(4)
H1 H 0.4869 0.4288 0.3372
C5 C 0.3399(4) 0.9046(3) 0.7746(3)
C6 C 0.2890(4) 1.0726(3) 0.8535(3)
H2 H 0.3160 1.1089 0.8011
C7 C 0.4080(4) 0.5838(3) 0.6304(3)
C8 C 0.4583(4) 0.4519(3) 0.4753(3)
C9 C 0.4832(4) 0.2412(3) 0.4944(4)
H3 H 0.4949 0.1695 0.5020
C10 C 0.4442(4) 0.4100(3) 0.5644(3)
C11 C 0.4576(4) 0.2995(3) 0.5719(3)
H4 H 0.4488 0.2669 0.6306
N3 N 0.5170(4) 0.2261(3) 0.3255(3)
O4 O 0.5377(3) 0.9225(3) 0.5348(3)
C12 C 0.4253(4) 0.6257(3) 0.5366(3)
C13 C 0.2411(4) 1.1261(3) 0.9277(3)
H5 H 0.2358 1.1989 0.9234
C14 C 0.2612(5) 0.9167(3) 0.9387(4)
H6 H 0.2681 0.8443 0.9452
C15 C 0.5260(5) 0.2705(4) 0.2307(4)
H7 H 0.5737 0.2267 0.1927
H8 H 0.5586 0.3397 0.2351
N4 N 0.2023(3) 1.0797(2) 1.0048(3)
C16 C 0.5358(5) 0.1121(3) 0.3339(4)
H9 H 0.5132 0.0776 0.2756
H10 H 0.4924 0.0842 0.3857
C17 C 0.2155(4) 0.9752(3) 1.0107(3)
H11 H 0.1928 0.9409 1.0657
C18 C 0.4185(4) 0.4764(3) 0.6410(3)
H12 H 0.4083 0.4470 0.7010
C19 C 0.3532(5) 0.5940(3) 0.8040(3)
H13 H 0.4199 0.5673 0.8298
H14 H 0.3037 0.5370 0.7935
H15 H 0.3217 0.6431 0.8479
O5 O 0.6060(4) 0.8260(2) 0.6456(3)
N5 N 0.6215(4) 0.8826(3) 0.5739(4)
O6 O 0.7119(3) 0.9026(3) 0.5437(4)
C20 C 0.4191(6) 0.2791(4) 0.1826(4)
H16 H 0.4281 0.3137 0.1224
H17 H 0.3703 0.3190 0.2217
H18 H 0.3898 0.2101 0.1725
C21 C 0.6523(6) 0.0899(5) 0.3520(6)
H19 H 0.6952 0.1175 0.3007
H20 H 0.6631 0.0153 0.3563
H21 H 0.6740 0.1224 0.4106
Zn1A Zn 0.09381(5) 1.14823(3) 1.09746(4)
N4A N 0.2977(3) 0.9203(2) 0.5048(3)
loop_
_geom_bond_atom_site_label_1
_geom_bond_atom_site_label_2
_geom_bond_site_symmetry_1
_geom_bond_site_symmetry_2
Zn1 O1 1_555 1_555
O1 C5 1_555 1_555
N1 Zn1 1_555 1_555
O2 Zn1 1_555 1_555
O3 C8 1_555 1_555
C1 C4 1_555 1_555
N2 N1 1_555 1_555
C2 N1 1_555 1_555
C3 C5 1_555 1_555
C4 H1 1_555 1_555
C5 N2 1_555 1_555
C6 C3 1_555 1_555
H2 C6 1_555 1_555
C7 C2 1_555 1_555
C8 C4 1_555 1_555
C9 C1 1_555 1_555
H3 C9 1_555 1_555
C10 C8 1_555 1_555
C11 C9 1_555 1_555
H4 C11 1_555 1_555
N3 C1 1_555 1_555
O4 Zn1 1_555 1_555
C12 O2 1_555 1_555
C13 C6 1_555 1_555
H5 C13 1_555 1_555
C14 C3 1_555 1_555
H6 C14 1_555 1_555
C15 N3 1_555 1_555
H7 C15 1_555 1_555
H8 C15 1_555 1_555
N4 C13 1_555 1_555
C16 N3 1_555 1_555
H9 C16 1_555 1_555
H10 C16 1_555 1_555
C17 C14 1_555 1_555
H11 C17 1_555 1_555
C18 C7 1_555 1_555
H12 C18 1_555 1_555
C19 C2 1_555 1_555
H13 C19 1_555 1_555
H14 C19 1_555 1_555
H15 C19 1_555 1_555
O5 Zn1 1_555 1_555
N5 O4 1_555 1_555
O6 N5 1_555 1_555
C20 C15 1_555 1_555
H16 C20 1_555 1_555
H17 C20 1_555 1_555
H18 C20 1_555 1_555
C21 C16 1_555 1_555
H19 C21 1_555 1_555
H20 C21 1_555 1_555
H21 C21 1_555 1_555
Zn1A N4 1_555 1_555
N4A Zn1 1_555 1_555
O3 C12 1_555 1_555
C7 C12 1_555 1_555
C10 C11 1_555 1_555
C10 C18 1_555 1_555
N4 C17 1_555 1_555
O5 N5 1_555 1_555

#END
