
#######################################################################
#
#                 Cambridge Crystallographic Data Centre
#                                CCDC 
#
#######################################################################
#
# If this CIF has been generated from an entry in the Cambridge 
# Structural Database, then it will include bibliographic, chemical, 
# crystal, experimental, refinement or atomic coordinate data resulting 
# from the CCDC's data processing and validation procedures.
#
#######################################################################

data_PIJZEO
_symmetry_cell_setting           orthorhombic
_symmetry_space_group_name_H-M   'P b c a'
_symmetry_Int_Tables_number      61
_space_group_name_Hall           '-P 2ac 2ab'
loop_
_symmetry_equiv_pos_site_id
_symmetry_equiv_pos_as_xyz
1 x,y,z
2 1/2-x,-y,1/2+z
3 -x,1/2+y,1/2-z
4 1/2+x,1/2-y,-z
5 -x,-y,-z
6 1/2+x,y,1/2-z
7 x,1/2-y,1/2+z
8 1/2-x,1/2+y,z
_cell_length_a                   14.122(4)
_cell_length_b                   21.596(8)
_cell_length_c                   22.591(8)
_cell_angle_alpha                90
_cell_angle_beta                 90
_cell_angle_gamma                90
_cell_volume                     6889.77
loop_
_atom_site_label
_atom_site_type_symbol
_atom_site_fract_x
_atom_site_fract_y
_atom_site_fract_z
Ni1 Ni 0.71497(9) -0.24030(6) 0.87696(5)
Ni2 Ni 0.67940(9) -0.48760(6) 0.61928(5)
N1 N 0.8237(6) -0.1756(4) 0.8875(4)
H1 H 0.8330 -0.1570 0.8523
H2 H 0.8030 -0.1463 0.9127
N2 N 0.7611(6) -0.2880(4) 0.9524(4)
H3 H 0.7368 -0.2672 0.9841
N3 N 0.6145(7) -0.3134(4) 0.8735(4)
H4 H 0.6381 -0.3419 0.8478
N4 N 0.6599(6) -0.1963(4) 0.8008(3)
H5 H 0.6747 -0.1558 0.8031
H6 H 0.6906 -0.2117 0.7691
C1 C 0.9172(9) -0.1976(6) 0.9093(6)
H7 H 0.9467 -0.2222 0.8785
H8 H 0.9574 -0.1619 0.9163
C2 C 0.9137(9) -0.2350(6) 0.9642(5)
H9 H 0.9784 -0.2435 0.9761
H10 H 0.8857 -0.2095 0.9949
C3 C 0.8628(10) -0.2938(6) 0.9634(5)
H11 H 0.8721 -0.3143 1.0011
H12 H 0.8901 -0.3200 0.9330
C4 C 0.7155(10) -0.3502(6) 0.9526(5)
H13 H 0.7167 -0.3677 0.9922
H14 H 0.7493 -0.3780 0.9263
C5 C 0.6157(11) -0.3426(6) 0.9322(5)
H15 H 0.5849 -0.3827 0.9302
H16 H 0.5811 -0.3170 0.9601
C6 C 0.5204(9) -0.2970(6) 0.8517(5)
H17 H 0.4908 -0.2689 0.8797
H18 H 0.4819 -0.3341 0.8499
C7 C 0.5216(10) -0.2665(6) 0.7908(5)
H19 H 0.5604 -0.2915 0.7647
H20 H 0.4576 -0.2670 0.7752
C8 C 0.5578(9) -0.2008(6) 0.7890(5)
H21 H 0.5445 -0.1834 0.7503
H22 H 0.5238 -0.1764 0.8182
N5 N 0.7986(7) -0.2951(4) 0.8202(3)
N6 N 0.8473(6) -0.3626(4) 0.7411(3)
N7 N 0.7559(6) -0.4324(4) 0.6772(3)
C9 C 0.8175(7) -0.3272(5) 0.7817(4)
C10 C 0.7930(7) -0.3980(4) 0.7082(4)
N8 N 0.7471(6) -0.4448(4) 0.5468(3)
H23 H 0.7276 -0.4636 0.5134
H24 H 0.7276 -0.4051 0.5450
N9 N 0.7842(6) -0.5569(4) 0.6246(3)
H25 H 0.7696 -0.5859 0.5968
N10 N 0.6235(6) -0.5339(4) 0.6942(3)
H26 H 0.6465 -0.5134 0.7262
N11 N 0.5675(6) -0.4231(3) 0.6193(3)
H27 H 0.5869 -0.3901 0.6404
H28 H 0.5598 -0.4102 0.5817
C11 C 0.8532(8) -0.4452(6) 0.5477(4)
H29 H 0.8760 -0.4270 0.5112
H30 H 0.8745 -0.4191 0.5800
C12 C 0.8976(7) -0.5079(5) 0.5546(4)
H31 H 0.9651 -0.5040 0.5475
H32 H 0.8721 -0.5349 0.5243
C13 C 0.8834(8) -0.5385(5) 0.6140(5)
H33 H 0.9234 -0.5750 0.6164
H34 H 0.9031 -0.5102 0.6450
C14 C 0.7734(8) -0.5868(5) 0.6829(4)
H35 H 0.8022 -0.5614 0.7134
H36 H 0.8047 -0.6268 0.6828
C15 C 0.6666(8) -0.5952(5) 0.6959(4)
H37 H 0.6379 -0.6219 0.6663
H38 H 0.6577 -0.6139 0.7345
C16 C 0.5191(8) -0.5364(5) 0.7024(5)
H39 H 0.5048 -0.5564 0.7398
H40 H 0.4911 -0.5608 0.6709
C17 C 0.4765(9) -0.4722(5) 0.7020(4)
H41 H 0.5126 -0.4463 0.7288
H42 H 0.4125 -0.4748 0.7174
C18 C 0.4730(8) -0.4405(6) 0.6418(5)
H43 H 0.4429 -0.4681 0.6136
H44 H 0.4342 -0.4035 0.6448
N12 N 0.4011(6) -0.0442(4) 0.9387(3)
N13 N 0.5357(6) -0.1025(4) 0.9805(3)
N14 N 0.6252(7) -0.1832(5) 0.9295(4)
C19 C 0.4647(7) -0.0733(5) 0.9556(4)
C20 C 0.5813(8) -0.1456(5) 0.9514(4)
Ni2B Ni 0.32060(9) 0.01240(6) 0.88072(5)
N12B N 0.5989(6) -0.5442(4) 0.5613(3)
Cl1 Cl 0.7956(3) 0.24484(14) 0.61382(12)
O1 O 0.8295(9) 0.2987(4) 0.5880(4)
O2 O 0.8575(13) 0.2263(6) 0.6561(6)
O3 O 0.7126(12) 0.2569(8) 0.6404(9)
O4 O 0.7816(11) 0.1973(4) 0.5747(4)
Cl2 Cl 0.7001(2) 0.00963(15) 0.35860(12)
O5 O 0.6135(9) 0.0348(7) 0.3609(9)
O6 O 0.7567(10) 0.0517(6) 0.3286(4)
O7 O 0.7319(13) 0.0032(6) 0.4137(4)
O8 O 0.7010(9) -0.0466(4) 0.3298(4)
loop_
_geom_bond_atom_site_label_1
_geom_bond_atom_site_label_2
_geom_bond_site_symmetry_1
_geom_bond_site_symmetry_2
Ni1 N1 1_555 1_555
Ni2 N7 1_555 1_555
N1 H1 1_555 1_555
H2 N1 1_555 1_555
N2 Ni1 1_555 1_555
H3 N2 1_555 1_555
N3 Ni1 1_555 1_555
H4 N3 1_555 1_555
N4 Ni1 1_555 1_555
H5 N4 1_555 1_555
H6 N4 1_555 1_555
C1 N1 1_555 1_555
H7 C1 1_555 1_555
H8 C1 1_555 1_555
C2 C1 1_555 1_555
H9 C2 1_555 1_555
H10 C2 1_555 1_555
C3 N2 1_555 1_555
H11 C3 1_555 1_555
H12 C3 1_555 1_555
C4 N2 1_555 1_555
H13 C4 1_555 1_555
H14 C4 1_555 1_555
C5 N3 1_555 1_555
H15 C5 1_555 1_555
H16 C5 1_555 1_555
C6 N3 1_555 1_555
H17 C6 1_555 1_555
H18 C6 1_555 1_555
C7 C6 1_555 1_555
H19 C7 1_555 1_555
H20 C7 1_555 1_555
C8 N4 1_555 1_555
H21 C8 1_555 1_555
H22 C8 1_555 1_555
N5 Ni1 1_555 1_555
N6 C9 1_555 1_555
N7 C10 1_555 1_555
C9 N5 1_555 1_555
C10 N6 1_555 1_555
N8 Ni2 1_555 1_555
H23 N8 1_555 1_555
H24 N8 1_555 1_555
N9 Ni2 1_555 1_555
H25 N9 1_555 1_555
N10 Ni2 1_555 1_555
H26 N10 1_555 1_555
N11 Ni2 1_555 1_555
H27 N11 1_555 1_555
H28 N11 1_555 1_555
C11 N8 1_555 1_555
H29 C11 1_555 1_555
H30 C11 1_555 1_555
C12 C11 1_555 1_555
H31 C12 1_555 1_555
H32 C12 1_555 1_555
C13 N9 1_555 1_555
H33 C13 1_555 1_555
H34 C13 1_555 1_555
C14 N9 1_555 1_555
H35 C14 1_555 1_555
H36 C14 1_555 1_555
C15 N10 1_555 1_555
H37 C15 1_555 1_555
H38 C15 1_555 1_555
C16 N10 1_555 1_555
H39 C16 1_555 1_555
H40 C16 1_555 1_555
C17 C16 1_555 1_555
H41 C17 1_555 1_555
H42 C17 1_555 1_555
C18 N11 1_555 1_555
H43 C18 1_555 1_555
H44 C18 1_555 1_555
N12 C19 1_555 1_555
N13 C19 1_555 1_555
N14 Ni1 1_555 1_555
C20 N13 1_555 1_555
Cl1 O1 1_555 1_555
O2 Cl1 1_555 1_555
O3 Cl1 1_555 1_555
O4 Cl1 1_555 1_555
Cl2 O5 1_555 1_555
O6 Cl2 1_555 1_555
O7 Cl2 1_555 1_555
O8 Cl2 1_555 1_555
Ni2B N12 1_555 1_555
N12B Ni2 1_555 1_555
C2 C3 1_555 1_555
C4 C5 1_555 1_555
C7 C8 1_555 1_555
C12 C13 1_555 1_555
C14 C15 1_555 1_555
C17 C18 1_555 1_555
N14 C20 1_555 1_555

#END
