
#######################################################################
#
#                 Cambridge Crystallographic Data Centre
#                                CCDC 
#
#######################################################################
#
# If this CIF has been generated from an entry in the Cambridge 
# Structural Database, then it will include bibliographic, chemical, 
# crystal, experimental, refinement or atomic coordinate data resulting 
# from the CCDC's data processing and validation procedures.
#
#######################################################################

data_PIKTAF
_symmetry_cell_setting           monoclinic
_symmetry_space_group_name_H-M   'P 21'
_symmetry_Int_Tables_number      4
_space_group_name_Hall           'P 2yb'
loop_
_symmetry_equiv_pos_site_id
_symmetry_equiv_pos_as_xyz
1 x,y,z
2 -x,1/2+y,-z
_cell_length_a                   7.5624(14)
_cell_length_b                   15.281(3)
_cell_length_c                   8.6423(17)
_cell_angle_alpha                90
_cell_angle_beta                 96.022(4)
_cell_angle_gamma                90
_cell_volume                     993.202
loop_
_atom_site_label
_atom_site_type_symbol
_atom_site_fract_x
_atom_site_fract_y
_atom_site_fract_z
C1 C 1.2724(10) 0.3019(5) 1.0046(10)
H1 H 1.2963 0.3575 0.9686
C2 C 1.3955(10) 0.2654(5) 1.1054(11)
H2 H 1.5042 0.2922 1.1348
C3 C 1.3509(9) 0.1846(6) 1.1640(8)
H3 H 1.4292 0.1570 1.2387
C4 C 1.1942(10) 0.1452(5) 1.1134(9)
H4 H 1.1657 0.0907 1.1520
C5 C 1.0763(8) 0.1880(5) 1.0023(7)
C6 C 0.9039(9) 0.1495(4) 0.9330(9)
H5 H 0.8235 0.1405 1.0171
C7 C 0.9388(10) 0.0617(4) 0.8551(10)
H6 H 0.8378 0.0465 0.7834
H7 H 0.9582 0.0171 0.9331
H8 H 1.0421 0.0668 0.8000
C8 C 0.5315(8) 0.5555(4) 1.1219(8)
C9 C 1.2513(9) 0.5918(4) 0.5909(9)
C10 C 0.2347(9) 0.2301(4) 0.5494(9)
H9 H 0.2151 0.1741 0.5865
C11 C 0.0982(11) 0.2710(6) 0.4552(10)
H10 H -0.0131 0.2452 0.4350
C12 C 0.1331(9) 0.3478(5) 0.3960(10)
H11 H 0.0472 0.3740 0.3261
C13 C 0.2929(9) 0.3911(5) 0.4339(9)
H12 H 0.3132 0.4462 0.3938
C14 C 0.4230(8) 0.3485(5) 0.5351(8)
C15 C 0.5986(8) 0.3894(5) 0.5895(8)
H13 H 0.5815 0.4315 0.6723
C16 C 0.6829(9) 0.4354(5) 0.4620(9)
H14 H 0.8008 0.4537 0.5003
H15 H 0.6130 0.4857 0.4284
H16 H 0.6886 0.3962 0.3758
C17 C 1.1048(11) 0.4876(6) 0.7185(10)
C18 C 0.6600(11) 0.4382(6) 1.0213(10)
Cu1 Cu 0.92127(9) 0.31818(3) 0.80659(10)
Cu2 Cu 0.60159(9) 0.21230(3) 0.70212(9)
N1 N 1.1170(7) 0.2655(4) 0.9503(7)
N2 N 0.3881(7) 0.2668(4) 0.5876(7)
N3 N 0.7679(8) 0.3869(4) 0.9959(7)
N4 N 0.5260(9) 0.4886(5) 1.0426(9)
N5 N 1.0386(7) 0.4166(4) 0.7566(7)
N6 N 0.5122(7) 0.6165(4) 1.1985(7)
N7 N 1.3271(8) 0.6251(4) 0.5135(8)
N8 N 1.1635(10) 0.5570(4) 0.7011(9)
O1 O 0.8267(6) 0.2047(4) 0.8195(5)
O2 O 0.7136(6) 0.3213(4) 0.6491(6)
Cu2A Cu 0.39841(9) 0.71230(3) 1.29788(9)
Cu2A_2 Cu 1.39841(9) 0.71230(3) 0.29788(9)
N6A N 0.4878(7) 0.1165(4) 0.8015(7)
N7A N 0.6729(8) 0.1251(4) 0.4865(8)
loop_
_geom_bond_atom_site_label_1
_geom_bond_atom_site_label_2
_geom_bond_site_symmetry_1
_geom_bond_site_symmetry_2
C1 H1 1_555 1_555
C2 C1 1_555 1_555
H2 C2 1_555 1_555
C3 C2 1_555 1_555
H3 C3 1_555 1_555
C4 C3 1_555 1_555
H4 C4 1_555 1_555
C5 C4 1_555 1_555
C6 C5 1_555 1_555
H5 C6 1_555 1_555
C7 C6 1_555 1_555
H6 C7 1_555 1_555
H7 C7 1_555 1_555
H8 C7 1_555 1_555
C8 N4 1_555 1_555
C9 N7 1_555 1_555
C10 H9 1_555 1_555
C11 C10 1_555 1_555
H10 C11 1_555 1_555
C12 C11 1_555 1_555
H11 C12 1_555 1_555
C13 C12 1_555 1_555
H12 C13 1_555 1_555
C14 C13 1_555 1_555
C15 C14 1_555 1_555
H13 C15 1_555 1_555
C16 C15 1_555 1_555
H14 C16 1_555 1_555
H15 C16 1_555 1_555
H16 C16 1_555 1_555
C17 N5 1_555 1_555
C18 N3 1_555 1_555
Cu1 N1 1_555 1_555
Cu2 N2 1_555 1_555
N1 C1 1_555 1_555
N2 C10 1_555 1_555
N3 Cu1 1_555 1_555
N4 C18 1_555 1_555
N5 Cu1 1_555 1_555
N6 C8 1_555 1_555
N7 Cu2A_2 1_555 1_555
N8 C9 1_555 1_555
O1 C6 1_555 1_555
O2 C15 1_555 1_555
Cu2A N6 1_555 1_555
N6A Cu2 1_555 1_555
N7A Cu2 1_555 1_555
C5 N1 1_555 1_555
C14 N2 1_555 1_555
C17 N8 1_555 1_555
Cu1 O1 1_555 1_555
Cu1 O2 1_555 1_555
Cu2 O1 1_555 1_555
Cu2 O2 1_555 1_555

#END
