
#######################################################################
#
#                 Cambridge Crystallographic Data Centre
#                                CCDC 
#
#######################################################################
#
# If this CIF has been generated from an entry in the Cambridge 
# Structural Database, then it will include bibliographic, chemical, 
# crystal, experimental, refinement or atomic coordinate data resulting 
# from the CCDC's data processing and validation procedures.
#
#######################################################################

data_PILPAD
_symmetry_cell_setting           triclinic
_symmetry_space_group_name_H-M   'P -1'
_symmetry_Int_Tables_number      2
_space_group_name_Hall           '-P 1'
loop_
_symmetry_equiv_pos_site_id
_symmetry_equiv_pos_as_xyz
1 x,y,z
2 -x,-y,-z
_cell_length_a                   8.631(5)
_cell_length_b                   9.153(5)
_cell_length_c                   16.265(5)
_cell_angle_alpha                74.694(5)
_cell_angle_beta                 87.290(5)
_cell_angle_gamma                70.685(5)
_cell_volume                     1168.46
loop_
_atom_site_label
_atom_site_type_symbol
_atom_site_fract_x
_atom_site_fract_y
_atom_site_fract_z
C1 C 0.1336(8) -0.2188(8) 0.2670(4)
C2 C 0.2549(9) -0.2116(9) 0.3176(6)
H1 H 0.2503 -0.1134 0.3257
C3 C 0.3839(9) -0.3503(9) 0.3566(5)
H2 H 0.4627 -0.3443 0.3915
C4 C 0.3945(8) -0.4958(8) 0.3432(5)
C5 C 0.2800(9) -0.5057(8) 0.2908(5)
H3 H 0.2879 -0.6031 0.2806
C6 C 0.1521(8) -0.3664(8) 0.2534(5)
H4 H 0.0753 -0.3730 0.2175
C7 C -0.0088(8) -0.0728(8) 0.2288(4)
C8 C 0.5260(9) -0.7828(8) 0.3915(5)
H5 H 0.4195 -0.7924 0.4107
C9 C 0.6588(12) -0.8908(10) 0.4584(6)
H6 H 0.6344 -0.8608 0.5111
H7 H 0.7627 -0.8801 0.4398
H8 H 0.6639 -1.0002 0.4670
C10 C 0.5633(8) -0.8295(9) 0.3078(4)
C11 C 0.0569(13) 0.2318(10) 0.3571(6)
H9 H 0.1274 0.1470 0.3381
C12 C -0.1401(10) 0.4375(11) 0.3600(6)
H10 H -0.2333 0.5283 0.3461
C13 C -0.0686(16) 0.4606(18) 0.5023(7)
H11 H -0.0576 0.3801 0.5561
H12 H -0.1762 0.5415 0.4982
C14 C -0.2950(10) 0.7069(8) 0.1622(6)
H13 H -0.2041 0.6942 0.1953
C15 C -0.5128(8) 0.8064(8) 0.0885(5)
H14 H -0.6090 0.8789 0.0590
Cd1 Cd -0.16497(5) 0.32302(5) 0.17798(3)
Cd2 Cd -0.5000 0.5000 0.0000
N1 N -0.0511(11) 0.3867(12) 0.4317(5)
N2 N 0.0803(14) 0.2547(12) 0.4316(6)
N3 N -0.0771(8) 0.3402(8) 0.3105(4)
N4 N -0.3207(7) 0.5871(7) 0.1424(4)
N5 N -0.4639(7) 0.6561(7) 0.0932(4)
N6 N -0.4103(7) 0.8493(6) 0.1309(4)
O1 O -0.0174(6) 0.0554(5) 0.2440(3)
O2 O -0.1111(6) -0.0878(6) 0.1816(4)
O3 O 0.5257(6) -0.6235(6) 0.3853(4)
O4 O 0.5439(9) -0.9549(7) 0.3028(4)
O5 O 0.6116(7) -0.7386(7) 0.2466(3)
C16 C -0.8567(8) 0.4471(8) 0.0833(4)
H15 H -0.9231 0.5535 0.0630
C17 C -0.7790(9) 0.2011(8) 0.1387(5)
H16 H -0.7798 0.0982 0.1655
Cd3 Cd -0.38134(5) 0.07651(5) 0.15474(3)
N7 N -0.6945(7) 0.3973(7) 0.0756(4)
N8 N -0.6453(7) 0.2329(6) 0.1133(4)
N9 N -0.9146(6) 0.3301(7) 0.1227(4)
O6 O -0.2917(5) 0.2723(5) 0.0730(3)
C11A C -0.0569(13) 0.7682(10) 0.6429(6)
H9A H -0.1274 0.8530 0.6619
C12A C 0.1401(10) 0.5625(11) 0.6400(6)
H10A H 0.2333 0.4717 0.6539
C13A C 0.0686(16) 0.5394(18) 0.4977(7)
H11A H 0.0576 0.6199 0.4439
H12A H 0.1762 0.4585 0.5018
N1A N 0.0511(11) 0.6133(12) 0.5683(5)
N2A N -0.0803(14) 0.7453(12) 0.5684(6)
N3A N 0.0771(8) 0.6598(8) 0.6895(4)
C1A C -1.1336(8) 1.2188(8) -0.2670(4)
C2A C -1.2549(9) 1.2116(9) -0.3176(6)
H1A H -1.2503 1.1134 -0.3257
C3A C -1.3839(9) 1.3503(9) -0.3566(5)
H2A H -1.4627 1.3443 -0.3915
C4A C -1.3945(8) 1.4958(8) -0.3432(5)
C5A C -1.2800(9) 1.5057(8) -0.2908(5)
H3A H -1.2879 1.6031 -0.2806
C6A C -1.1521(8) 1.3664(8) -0.2534(5)
H4A H -1.0753 1.3730 -0.2175
C7A C -0.9912(8) 1.0728(8) -0.2288(4)
C8A C -1.5260(9) 1.7828(8) -0.3915(5)
H5A H -1.4195 1.7924 -0.4107
C9A C -1.6588(12) 1.8908(10) -0.4584(6)
H6A H -1.6344 1.8608 -0.5111
H7A H -1.7627 1.8801 -0.4398
H8A H -1.6639 2.0002 -0.4670
C10A C -1.5633(8) 1.8295(9) -0.3078(4)
C14A C -0.7050(10) 0.2931(8) -0.1622(6)
H13A H -0.7959 0.3058 -0.1953
C15A C -0.4872(8) 0.1936(8) -0.0885(5)
H14A H -0.3910 0.1211 -0.0590
Cd1A Cd -0.83503(5) 0.67698(5) -0.17798(3)
N4A N -0.6793(7) 0.4129(7) -0.1424(4)
N5A N -0.5361(7) 0.3439(7) -0.0932(4)
N6A N -0.5897(7) 0.1507(6) -0.1309(4)
O1A O -0.9826(6) 0.9446(5) -0.2440(3)
O2A O -0.8889(6) 1.0878(6) -0.1816(4)
O3A O -1.5257(6) 1.6235(6) -0.3853(4)
O4A O -1.5439(9) 1.9549(7) -0.3028(4)
O5A O -1.6116(7) 1.7386(7) -0.2466(3)
C16A C -0.1433(8) 0.5529(8) -0.0833(4)
H15A H -0.0769 0.4465 -0.0630
C17A C -0.2210(9) 0.7989(8) -0.1387(5)
H16A H -0.2202 0.9018 -0.1655
Cd3A Cd -0.61866(5) 0.92349(5) -0.15474(3)
N7A N -0.3055(7) 0.6027(7) -0.0756(4)
N8A N -0.3547(7) 0.7671(6) -0.1133(4)
N9A N -0.0854(6) 0.6699(7) -0.1227(4)
O6A O -0.7083(5) 0.7277(5) -0.0730(3)
Cd1_2 Cd -1.16497(5) 0.32302(5) 0.17798(3)
Cd1_3 Cd 0.83503(5) -0.67698(5) 0.17798(3)
Cd1A_2 Cd -1.83503(5) 1.67698(5) -0.17798(3)
Cd1A_3 Cd 0.16497(5) 0.67698(5) -0.17798(3)
Cd1A_4 Cd 0.16497(5) 0.67698(5) 0.82202(3)
N3A_2 N -0.9229(8) 0.6598(8) -0.3105(4)
N6_2 N -0.4103(7) -0.1507(6) 0.1309(4)
N6A_2 N -0.5897(7) 1.1507(6) -0.1309(4)
O4_2 O -0.4561(9) 0.0451(7) 0.3028(4)
O4A_2 O -0.5439(9) 0.9549(7) -0.3028(4)
O5_2 O -0.3884(7) 0.2614(7) 0.2466(3)
O5A_2 O -0.6116(7) 0.7386(7) -0.2466(3)
Cd3_2 Cd -0.38134(5) 1.07651(5) 0.15474(3)
Cd3_3 Cd 0.61866(5) -0.92349(5) 0.15474(3)
Cd3A_2 Cd -1.61866(5) 1.92349(5) -0.15474(3)
Cd3A_3 Cd -0.61866(5) -0.07651(5) -0.15474(3)
N9_2 N 0.0854(6) 0.3301(7) 0.1227(4)
N9A_2 N -1.0854(6) 0.6699(7) -0.1227(4)
O7 O 0.0055(18) -0.1490(18) 0.0298(10)
H17 H -0.0892 -0.1527 0.0209
H18 H 0.0122 -0.0610 -0.0014
loop_
_geom_bond_atom_site_label_1
_geom_bond_atom_site_label_2
_geom_bond_site_symmetry_1
_geom_bond_site_symmetry_2
C1 C2 1_555 1_555
C2 H1 1_555 1_555
C3 C2 1_555 1_555
H2 C3 1_555 1_555
C4 C3 1_555 1_555
C5 C4 1_555 1_555
H3 C5 1_555 1_555
C6 C1 1_555 1_555
H4 C6 1_555 1_555
C7 C1 1_555 1_555
C8 H5 1_555 1_555
C9 C8 1_555 1_555
H6 C9 1_555 1_555
H7 C9 1_555 1_555
H8 C9 1_555 1_555
C10 C8 1_555 1_555
C11 H9 1_555 1_555
C12 H10 1_555 1_555
C13 H11 1_555 1_555
H12 C13 1_555 1_555
C14 H13 1_555 1_555
C15 H14 1_555 1_555
Cd1 N3 1_555 1_555
Cd2 N5 1_555 1_555
N1 C12 1_555 1_555
N2 C11 1_555 1_555
N3 C11 1_555 1_555
N4 C14 1_555 1_555
N5 C15 1_555 1_555
N6 C14 1_555 1_555
O1 C7 1_555 1_555
O2 C7 1_555 1_555
O3 C4 1_555 1_555
O4 C10 1_555 1_555
O5 C10 1_555 1_555
C16 H15 1_555 1_555
C17 H16 1_555 1_555
Cd3 O2 1_555 1_555
N7 Cd2 1_555 1_555
N8 C17 1_555 1_555
N9 C16 1_555 1_555
O6 Cd1 1_555 1_555
O7 H17 1_555 1_555
H18 O7 1_555 1_555
C11A H9A 1_555 1_555
C12A H10A 1_555 1_555
C13A C13 1_555 1_555
H11A C13A 1_555 1_555
H12A C13A 1_555 1_555
N1A C12A 1_555 1_555
N2A C11A 1_555 1_555
N3A C11A 1_555 1_555
C1A C2A 1_555 1_555
C2A H1A 1_555 1_555
C3A C2A 1_555 1_555
H2A C3A 1_555 1_555
C4A C3A 1_555 1_555
C5A C4A 1_555 1_555
H3A C5A 1_555 1_555
C6A C1A 1_555 1_555
H4A C6A 1_555 1_555
C7A C1A 1_555 1_555
C8A H5A 1_555 1_555
C9A C8A 1_555 1_555
H6A C9A 1_555 1_555
H7A C9A 1_555 1_555
H8A C9A 1_555 1_555
C10A C8A 1_555 1_555
C14A H13A 1_555 1_555
C15A H14A 1_555 1_555
Cd1A N4A 1_555 1_555
N4A C14A 1_555 1_555
N5A Cd2 1_555 1_555
N6A C14A 1_555 1_555
O1A C7A 1_555 1_555
O2A C7A 1_555 1_555
O3A C4A 1_555 1_555
O4A C10A 1_555 1_555
O5A C10A 1_555 1_555
C16A H15A 1_555 1_555
C17A H16A 1_555 1_555
Cd3A O2A 1_555 1_555
N7A Cd2 1_555 1_555
N8A C17A 1_555 1_555
N9A C16A 1_555 1_555
O6A Cd2 1_555 1_555
Cd1_2 N9 1_555 1_555
Cd1_3 O5 1_555 1_555
Cd1A_2 O5A 1_555 1_555
Cd1A_3 N9A 1_555 1_555
Cd1A_4 N3A 1_555 1_555
N3A_2 Cd1A 1_555 1_555
N6_2 Cd3 1_555 1_555
N6A_2 Cd3A 1_555 1_555
O4_2 Cd3 1_555 1_555
O4A_2 Cd3A 1_555 1_555
O5_2 Cd1 1_555 1_555
O5A_2 Cd1A 1_555 1_555
Cd3_2 N6 1_555 1_555
Cd3_3 O4 1_555 1_555
Cd3A_2 O4A 1_555 1_555
Cd3A_3 N6A 1_555 1_555
N9_2 Cd1 1_555 1_555
N9A_2 Cd1A 1_555 1_555
C5 C6 1_555 1_555
C8 O3 1_555 1_555
C12 N3 1_555 1_555
C13 N1 1_555 1_555
C15 N6 1_555 1_555
Cd1 N4 1_555 1_555
Cd1 O1 1_555 1_555
Cd2 O6 1_555 1_555
N1 N2 1_555 1_555
N4 N5 1_555 1_555
O5 Cd3_3 1_555 1_555
C16 N7 1_555 1_555
C17 N9 1_555 1_555
Cd3 N8 1_555 1_555
Cd3 O6 1_555 1_555
Cd3 O5_2 1_555 1_555
N7 N8 1_555 1_555
C12A N3A 1_555 1_555
C13A N1A 1_555 1_555
N1A N2A 1_555 1_555
C5A C6A 1_555 1_555
C8A O3A 1_555 1_555
C15A N5A 1_555 1_555
C15A N6A 1_555 1_555
Cd1A O1A 1_555 1_555
Cd1A O6A 1_555 1_555
N4A N5A 1_555 1_555
O5A Cd3A_2 1_555 1_555
C16A N7A 1_555 1_555
C17A N9A 1_555 1_555
Cd3A N8A 1_555 1_555
Cd3A O6A 1_555 1_555
Cd3A O5A_2 1_555 1_555
N7A N8A 1_555 1_555

#END
