
#######################################################################
#
#                 Cambridge Crystallographic Data Centre
#                                CCDC 
#
#######################################################################
#
# If this CIF has been generated from an entry in the Cambridge 
# Structural Database, then it will include bibliographic, chemical, 
# crystal, experimental, refinement or atomic coordinate data resulting 
# from the CCDC's data processing and validation procedures.
#
#######################################################################

data_PILWOY
_symmetry_cell_setting           monoclinic
_symmetry_space_group_name_H-M   'P 21/c'
_symmetry_Int_Tables_number      14
_space_group_name_Hall           '-P 2ybc'
loop_
_symmetry_equiv_pos_site_id
_symmetry_equiv_pos_as_xyz
1 x,y,z
2 -x,1/2+y,1/2-z
3 -x,-y,-z
4 x,1/2-y,1/2+z
_cell_length_a                   16.290(3)
_cell_length_b                   15.036(3)
_cell_length_c                   16.412(3)
_cell_angle_alpha                90
_cell_angle_beta                 119.2790(19)
_cell_angle_gamma                90
_cell_volume                     3506.35
loop_
_atom_site_label
_atom_site_type_symbol
_atom_site_fract_x
_atom_site_fract_y
_atom_site_fract_z
C1 C 0.8506(2) 0.6075(2) 0.6437(2)
C2 C 0.9248(2) 0.5355(2) 0.6871(2)
C3 C 1.0114(2) 0.5515(2) 0.6958(2)
H1 H 1.0205 0.6020 0.6684
C4 C 1.0872(2) 0.4928(2) 0.7458(2)
H2 H 1.1448 0.5038 0.7488
C5 C 1.0773(2) 0.4202(2) 0.7898(2)
C6 C 1.1623(2) 0.3632(2) 0.8488(3)
C7 C 0.9871(2) 0.3980(2) 0.7781(2)
C8 C 0.9089(2) 0.4551(2) 0.7232(2)
C9 C 0.8177(3) 0.4271(3) 0.7033(3)
H3 H 0.7659 0.4623 0.6658
C10 C 0.8050(3) 0.3499(3) 0.7380(4)
H4 H 0.7446 0.3322 0.7230
C11 C 0.8823(3) 0.2960(3) 0.7965(4)
H5 H 0.8730 0.2446 0.8225
C12 C 0.9704(3) 0.3188(2) 0.8151(3)
H6 H 1.0208 0.2820 0.8526
C13 C 0.6414(2) 0.6623(2) 0.7898(2)
C14 C 0.5685(2) 0.6010(2) 0.7194(2)
C15 C 0.5979(3) 0.5322(3) 0.6863(3)
H7 H 0.6609 0.5280 0.7021
C16 C 0.5336(3) 0.4675(3) 0.6284(3)
H8 H 0.5549 0.4211 0.6062
C17 C 0.4067(2) 0.5457(2) 0.6319(2)
C18 C 0.4407(3) 0.4713(2) 0.6041(2)
C19 C 0.4716(2) 0.6116(2) 0.6902(2)
C20 C 0.4381(3) 0.6865(3) 0.7173(3)
H9 H 0.4803 0.7299 0.7549
C21 C 0.3447(4) 0.6955(4) 0.6888(4)
H10 H 0.3233 0.7449 0.7070
C22 C 0.2809(3) 0.6300(5) 0.6318(4)
H11 H 0.2174 0.6363 0.6131
C23 C 0.3101(3) 0.5582(3) 0.6036(3)
H12 H 0.2663 0.5164 0.5650
C24 C 0.3804(3) 0.3922(3) 0.5553(3)
C25 C 0.9428(3) 0.6557(3) 0.4522(3)
H13 H 0.9261 0.6002 0.4646
C26 C 1.0165(3) 0.6717(4) 0.4392(3)
H14 H 1.0597 0.6304 0.4406
C27 C 0.9415(2) 0.7967(3) 0.4275(2)
C28 C 0.9153(3) 0.8914(3) 0.4154(4)
H15 H 0.8549 0.8986 0.3607
H16 H 0.9615 0.9250 0.4082
H17 H 0.9125 0.9123 0.4692
C29 C 1.0856(3) 0.8081(5) 0.4078(4)
H18 H 1.0537 0.8530 0.3600
H19 H 1.1142 0.7661 0.3842
C30 C 1.1618(3) 0.8521(4) 0.4933(4)
H20 H 1.1872 0.8099 0.5446
H21 H 1.1354 0.9016 0.5107
C31 C 1.2413(3) 0.8859(4) 0.4765(4)
H22 H 1.2730 0.8352 0.4679
H23 H 1.2138 0.9202 0.4191
C32 C 1.3111(3) 0.9411(3) 0.5524(4)
H24 H 1.3424 0.9055 0.6088
H25 H 1.2791 0.9896 0.5643
C33 C 1.3849(3) 0.9794(3) 0.5300(4)
H26 H 1.3529 1.0071 0.4688
H27 H 1.4201 1.0253 0.5752
C34 C 1.5265(3) 0.8771(3) 0.5912(4)
C35 C 1.4907(3) 0.8120(3) 0.4610(3)
H28 H 1.4937 0.7737 0.4181
C36 C 1.4265(3) 0.8699(4) 0.4429(3)
H29 H 1.3749 0.8812 0.3846
C37 C 1.5751(4) 0.9048(4) 0.6880(3)
H30 H 1.5661 0.9675 0.6917
H31 H 1.6411 0.8924 0.7146
H32 H 1.5504 0.8729 0.7220
Cd1 Cd 0.768264(14) 0.745144(14) 0.459598(15)
Cd2 Cd 0.689192(15) 0.728091(14) 0.631511(16)
N1 N 0.8957(2) 0.7339(2) 0.4445(2)
N2 N 1.0153(2) 0.7610(3) 0.4233(2)
N3 N 1.4489(2) 0.9152(2) 0.5307(3)
N4 N 1.5598(2) 0.8163(2) 0.5625(3)
O1 O 0.7956(2) 0.6190(2) 0.6746(2)
O2 O 0.8523(2) 0.6527(3) 0.5841(3)
O3 O 1.2056(2) 0.3352(2) 0.8102(3)
O4 O 1.1848(2) 0.3526(2) 0.9315(2)
O5 O 0.69166(16) 0.70835(16) 0.76902(16)
O6 O 0.6499(2) 0.6628(2) 0.86967(17)
O7 O 0.3887(2) 0.3568(3) 0.4939(3)
O8 O 0.3277(4) 0.3666(3) 0.5852(2)
Cd1A Cd 1.231736(14) 0.245144(14) 1.040402(15)
Cd1B Cd 0.231736(14) 0.254856(14) 0.540402(15)
Cd1C Cd 0.768264(14) 0.754856(14) 0.959598(15)
Cd2_2 Cd 1.689192(15) 0.728091(14) 0.631511(16)
Cd2A Cd 1.310808(15) 0.228091(14) 0.868489(16)
Cd2B Cd 0.310808(15) 0.271909(14) 0.368489(16)
N4_2 N 0.5598(2) 0.8163(2) 0.5625(3)
O3A O 0.7944(2) 0.8352(2) 0.6898(3)
O4A O 0.8152(2) 0.8526(2) 0.5685(2)
O6C O 0.6499(2) 0.8372(2) 0.36967(17)
O7B O 0.6113(2) 0.6432(3) 0.5061(3)
O8B O 0.6723(4) 0.6334(3) 0.4148(2)
loop_
_geom_bond_atom_site_label_1
_geom_bond_atom_site_label_2
_geom_bond_site_symmetry_1
_geom_bond_site_symmetry_2
C1 C2 1_555 1_555
C2 C3 1_555 1_555
C3 H1 1_555 1_555
C4 C3 1_555 1_555
H2 C4 1_555 1_555
C5 C4 1_555 1_555
C6 C5 1_555 1_555
C7 C5 1_555 1_555
C8 C2 1_555 1_555
C9 C8 1_555 1_555
H3 C9 1_555 1_555
C10 C9 1_555 1_555
H4 C10 1_555 1_555
C11 C10 1_555 1_555
H5 C11 1_555 1_555
C12 C7 1_555 1_555
H6 C12 1_555 1_555
C13 C14 1_555 1_555
C14 C15 1_555 1_555
C15 H7 1_555 1_555
C16 C15 1_555 1_555
H8 C16 1_555 1_555
C17 C18 1_555 1_555
C18 C16 1_555 1_555
C19 C14 1_555 1_555
C20 C19 1_555 1_555
H9 C20 1_555 1_555
C21 C20 1_555 1_555
H10 C21 1_555 1_555
C22 C21 1_555 1_555
H11 C22 1_555 1_555
C23 C17 1_555 1_555
H12 C23 1_555 1_555
C24 C18 1_555 1_555
C25 H13 1_555 1_555
C26 C25 1_555 1_555
H14 C26 1_555 1_555
C27 C28 1_555 1_555
C28 H15 1_555 1_555
H16 C28 1_555 1_555
H17 C28 1_555 1_555
C29 H18 1_555 1_555
H19 C29 1_555 1_555
C30 C29 1_555 1_555
H20 C30 1_555 1_555
H21 C30 1_555 1_555
C31 C30 1_555 1_555
H22 C31 1_555 1_555
H23 C31 1_555 1_555
C32 C31 1_555 1_555
H24 C32 1_555 1_555
H25 C32 1_555 1_555
C33 C32 1_555 1_555
H26 C33 1_555 1_555
H27 C33 1_555 1_555
C34 C37 1_555 1_555
C35 H28 1_555 1_555
C36 C35 1_555 1_555
H29 C36 1_555 1_555
C37 H30 1_555 1_555
H31 C37 1_555 1_555
H32 C37 1_555 1_555
Cd1 N1 1_555 1_555
Cd2 O1 1_555 1_555
N1 C25 1_555 1_555
N2 C26 1_555 1_555
N3 C33 1_555 1_555
N4 C34 1_555 1_555
O1 C1 1_555 1_555
O2 C1 1_555 1_555
O3 C6 1_555 1_555
O4 C6 1_555 1_555
O5 C13 1_555 1_555
O6 C13 1_555 1_555
O7 C24 1_555 1_555
O8 C24 1_555 1_555
Cd1A O4 1_555 1_555
Cd1B O8 1_555 1_555
Cd1C O6 1_555 1_555
Cd2_2 N4 1_555 1_555
Cd2A O3 1_555 1_555
Cd2B O7 1_555 1_555
N4_2 Cd2 1_555 1_555
O3A Cd2 1_555 1_555
O4A Cd1 1_555 1_555
O6C Cd1 1_555 1_555
O7B Cd2 1_555 1_555
O8B Cd1 1_555 1_555
C7 C8 1_555 1_555
C11 C12 1_555 1_555
C17 C19 1_555 1_555
C22 C23 1_555 1_555
C27 N1 1_555 1_555
C27 N2 1_555 1_555
C29 N2 1_555 1_555
C34 N3 1_555 1_555
C35 N4 1_555 1_555
C36 N3 1_555 1_555
Cd1 O2 1_555 1_555
Cd2 O5 1_555 1_555

#END
