
#######################################################################
#
#                 Cambridge Crystallographic Data Centre
#                                CCDC 
#
#######################################################################
#
# If this CIF has been generated from an entry in the Cambridge 
# Structural Database, then it will include bibliographic, chemical, 
# crystal, experimental, refinement or atomic coordinate data resulting 
# from the CCDC's data processing and validation procedures.
#
#######################################################################

data_PIMJOM
_symmetry_cell_setting           orthorhombic
_symmetry_space_group_name_H-M   'P c c a'
_symmetry_Int_Tables_number      54
_space_group_name_Hall           '-P 2a 2ac'
loop_
_symmetry_equiv_pos_site_id
_symmetry_equiv_pos_as_xyz
1 x,y,z
2 1/2-x,-y,z
3 1/2+x,-y,1/2-z
4 -x,y,1/2-z
5 -x,-y,-z
6 1/2+x,y,-z
7 1/2-x,y,1/2+z
8 x,-y,1/2+z
_cell_length_a                   11.7133(3)
_cell_length_b                   18.7995(5)
_cell_length_c                   24.1755(6)
_cell_angle_alpha                90
_cell_angle_beta                 90
_cell_angle_gamma                90
_cell_volume                     5323.55
loop_
_atom_site_label
_atom_site_type_symbol
_atom_site_fract_x
_atom_site_fract_y
_atom_site_fract_z
C1 C -0.0870(8) 0.1443(5) -0.4434(4)
C2 C 0.0974(12) 0.1195(7) -0.4944(6)
C3 C -0.0387(4) -0.0986(2) -0.16569(19)
C4 C 0.1383(4) -0.4632(2) -0.02012(19)
H1 H 0.1037 -0.4705 0.0163
C5 C 0.1795(4) 0.0939(3) -0.2376(2)
H2 H 0.2519 0.1133 -0.2424
C6 C 0.0818(4) -0.2867(2) -0.08623(19)
C7 C 0.0669(4) -0.4126(2) -0.05406(18)
C8 C 0.1535(4) -0.2495(3) -0.1213(2)
H3 H 0.2273 -0.2657 -0.1279
C9 C 0.2022(4) -0.5195(2) -0.10688(19)
H4 H 0.1675 -0.5354 -0.1392
C10 C 0.2540(4) -0.4255(2) -0.01435(19)
H5 H 0.2777 -0.4251 0.0245
C11 C 0.1550(4) -0.5356(2) -0.05000(18)
H6 H 0.0835 -0.5626 -0.0520
C12 C -0.0269(4) -0.2634(2) -0.07511(19)
H7 H -0.0731 -0.2878 -0.0502
C13 C 0.0034(4) -0.1645(3) -0.1367(2)
C14 C 0.2327(4) -0.3509(2) -0.03371(19)
C15 C 0.1146(4) -0.1882(3) -0.1462(2)
H8 H 0.1626 -0.1626 -0.1695
C16 C 0.0649(5) 0.0768(3) -0.3991(2)
C17 C -0.0667(4) -0.2026(2) -0.1018(2)
H9 H -0.1413 -0.1875 -0.0959
N1 N 0.1259(3) -0.3488(2) -0.05935(15)
N2 N 0.0257(5) 0.1120(3) -0.4426(2)
O1 O 0.1461(2) 0.04659(15) -0.27262(12)
O2 O -0.0273(3) -0.42377(17) -0.07356(14)
O3 O -0.1444(3) -0.08815(19) -0.16500(16)
O4 O 0.1229(3) 0.1147(2) -0.19894(14)
O5 O 0.0353(3) -0.06079(18) -0.18903(15)
O6 O 0.2959(3) -0.30018(17) -0.02958(15)
O7 O 0.1589(3) 0.0483(3) -0.39744(16)
Zn1 Zn 0.0000 0.00473(4) -0.2500
Zn2 Zn 0.2500 0.0000 -0.33561(3)
C3A C 0.5387(4) -0.9014(2) -0.16569(19)
C4A C 0.3617(4) -0.5368(2) -0.02012(19)
H1A H 0.3963 -0.5295 0.0163
C6A C 0.4182(4) -0.7133(2) -0.08623(19)
C7A C 0.4331(4) -0.5874(2) -0.05406(18)
C8A C 0.3465(4) -0.7505(3) -0.1213(2)
H3A H 0.2727 -0.7343 -0.1279
C9A C 0.2978(4) -0.4805(2) -0.10688(19)
H4A H 0.3325 -0.4646 -0.1392
C10A C 0.2460(4) -0.5745(2) -0.01435(19)
H5A H 0.2223 -0.5749 0.0245
C11A C 0.3450(4) -0.4644(2) -0.05000(18)
H6A H 0.4165 -0.4374 -0.0520
C12A C 0.5269(4) -0.7366(2) -0.07511(19)
H7A H 0.5731 -0.7122 -0.0502
C13A C 0.4966(4) -0.8355(3) -0.1367(2)
C14A C 0.2673(4) -0.6491(2) -0.03371(19)
C15A C 0.3854(4) -0.8118(3) -0.1462(2)
H8A H 0.3374 -0.8374 -0.1695
C17A C 0.5667(4) -0.7974(2) -0.1018(2)
H9A H 0.6413 -0.8125 -0.0959
N1A N 0.3741(3) -0.6512(2) -0.05935(15)
O2A O 0.5273(3) -0.57623(17) -0.07356(14)
O3A O 0.6444(3) -0.91185(19) -0.16500(16)
O5A O 0.4647(3) -0.93921(18) -0.18903(15)
O6A O 0.2041(3) -0.69982(17) -0.02958(15)
C1A C 0.5870(8) -0.1443(5) -0.4434(4)
C2A C 0.4026(12) -0.1195(7) -0.4944(6)
C16A C 0.4351(5) -0.0768(3) -0.3991(2)
N2A N 0.4743(5) -0.1120(3) -0.4426(2)
O7A O 0.3411(3) -0.0483(3) -0.39744(16)
C5C C -0.1795(4) 0.0939(3) -0.2624(2)
H2C H -0.2519 0.1133 -0.2576
O1C O -0.1461(2) 0.04659(15) -0.22738(12)
O4C O -0.1229(3) 0.1147(2) -0.30106(14)
O1A O 0.3539(2) -0.04659(15) -0.27262(12)
O3B O 0.3556(3) 0.08815(19) -0.33500(16)
O3C O 0.1444(3) -0.08815(19) -0.33500(16)
O5C O -0.0353(3) -0.06079(18) -0.31097(15)
Zn1A Zn 0.5000 -1.00473(4) -0.2500
Zn2B Zn -0.2500 0.0000 -0.16439(3)
Zn2B_2 Zn 0.7500 -1.0000 -0.16439(3)
C18 C 0.6367(8) -0.2380(5) -0.1866(4)
H10 H 0.6925 -0.2087 -0.1685
H11 H 0.5785 -0.2084 -0.2025
H12 H 0.6729 -0.2652 -0.2153
C19 C 0.6342(7) -0.3092(4) -0.1005(3)
H13 H 0.7077 -0.2928 -0.0934
C20 C 0.4744(8) -0.3066(5) -0.1605(4)
H14 H 0.4311 -0.2657 -0.1715
H15 H 0.4389 -0.3283 -0.1289
H16 H 0.4771 -0.3401 -0.1904
N3 N 0.5856(5) -0.2857(3) -0.1467(2)
O8 O 0.5947(4) -0.3494(2) -0.06645(17)
loop_
_geom_bond_atom_site_label_1
_geom_bond_atom_site_label_2
_geom_bond_site_symmetry_1
_geom_bond_site_symmetry_2
C1 N2 1_555 1_555
C2 N2 1_555 1_555
C3 C13 1_555 1_555
C4 H1 1_555 1_555
C5 H2 1_555 1_555
C6 C8 1_555 1_555
C7 C4 1_555 1_555
C8 H3 1_555 1_555
C9 H4 1_555 1_555
C10 C4 1_555 1_555
H5 C10 1_555 1_555
C11 C4 1_555 1_555
H6 C11 1_555 1_555
C12 C6 1_555 1_555
H7 C12 1_555 1_555
C13 C15 1_555 1_555
C14 C10 1_555 1_555
C15 C8 1_555 1_555
H8 C15 1_555 1_555
C16 N2 1_555 1_555
C17 C12 1_555 1_555
H9 C17 1_555 1_555
N1 C6 1_555 1_555
O1 C5 1_555 1_555
O2 C7 1_555 1_555
O3 C3 1_555 1_555
O4 C5 1_555 1_555
O5 C3 1_555 1_555
O6 C14 1_555 1_555
O7 C16 1_555 1_555
Zn1 O1 1_555 1_555
Zn2 O1 1_555 1_555
C18 H10 1_555 1_555
H11 C18 1_555 1_555
H12 C18 1_555 1_555
C19 H13 1_555 1_555
C20 H14 1_555 1_555
H15 C20 1_555 1_555
H16 C20 1_555 1_555
N3 C18 1_555 1_555
O8 C19 1_555 1_555
C3A C13A 1_555 1_555
C4A H1A 1_555 1_555
C6A C8A 1_555 1_555
C7A C4A 1_555 1_555
C8A H3A 1_555 1_555
C9A C9 1_555 1_555
H4A C9A 1_555 1_555
C10A C11 1_555 1_555
H5A C10A 1_555 1_555
C11A C10 1_555 1_555
H6A C11A 1_555 1_555
C12A C6A 1_555 1_555
H7A C12A 1_555 1_555
C13A C15A 1_555 1_555
C14A C10A 1_555 1_555
C15A C8A 1_555 1_555
H8A C15A 1_555 1_555
C17A C12A 1_555 1_555
H9A C17A 1_555 1_555
N1A C6A 1_555 1_555
O2A C7A 1_555 1_555
O3A C3A 1_555 1_555
O5A C3A 1_555 1_555
O6A C14A 1_555 1_555
C1A N2A 1_555 1_555
C2A N2A 1_555 1_555
C16A N2A 1_555 1_555
O7A Zn2 1_555 1_555
C5C H2C 1_555 1_555
O1C Zn1 1_555 1_555
O4C C5C 1_555 1_555
O1A Zn2 1_555 1_555
O3B Zn2 1_555 1_555
O3C Zn2 1_555 1_555
O5C Zn1 1_555 1_555
Zn1A O5A 1_555 1_555
Zn2B O3 1_555 1_555
Zn2B_2 O3A 1_555 1_555
C7 N1 1_555 1_555
C9 C11 1_555 1_555
C13 C17 1_555 1_555
C14 N1 1_555 1_555
O5 Zn1 1_555 1_555
O7 Zn2 1_555 1_555
C19 N3 1_555 1_555
C20 N3 1_555 1_555
C4A C10A 1_555 1_555
C4A C11A 1_555 1_555
C7A N1A 1_555 1_555
C9A C11A 1_555 1_555
C13A C17A 1_555 1_555
C14A N1A 1_555 1_555
C16A O7A 1_555 1_555
C5C O1C 1_555 1_555
O1C Zn2B 1_555 1_555

#END
