
#######################################################################
#
#                 Cambridge Crystallographic Data Centre
#                                CCDC 
#
#######################################################################
#
# If this CIF has been generated from an entry in the Cambridge 
# Structural Database, then it will include bibliographic, chemical, 
# crystal, experimental, refinement or atomic coordinate data resulting 
# from the CCDC's data processing and validation procedures.
#
#######################################################################

data_PIPDAV
_symmetry_cell_setting           monoclinic
_symmetry_space_group_name_H-M   'P 21/n'
_symmetry_Int_Tables_number      14
_space_group_name_Hall           '-P 2yn'
loop_
_symmetry_equiv_pos_site_id
_symmetry_equiv_pos_as_xyz
1 x,y,z
2 1/2-x,1/2+y,1/2-z
3 -x,-y,-z
4 1/2+x,1/2-y,1/2+z
_cell_length_a                   8.469(19)
_cell_length_b                   9.433(24)
_cell_length_c                   12.867(27)
_cell_angle_alpha                90
_cell_angle_beta                 94.90(12)
_cell_angle_gamma                90
_cell_volume                     1024.16
loop_
_atom_site_label
_atom_site_type_symbol
_atom_site_fract_x
_atom_site_fract_y
_atom_site_fract_z
Mn1 Mn 0.146(55) 0.790(35) 0.374(41)
N1 N 0.16(19) 1.01(17) 0.43(12)
C1 C 0.14(26) 1.11(20) 0.47(17)
S1 S 0.121(67) 1.263(63) 0.534(48)
N2 N 0.14(20) 0.55(15) 0.34(12)
C2 C 0.12(29) 0.45(19) 0.29(17)
S2 S 0.087(68) 0.309(68) 0.225(48)
N3 N 0.49(25) 0.68(25) 0.71(16)
N4 N 0.31(27) 0.72(24) 0.53(14)
C3 C 0.27(29) 0.63(26) 0.59(28)
C4 C 0.36(43) 0.60(22) 0.69(23)
C5 C 0.54(24) 0.77(25) 0.64(27)
C6 C 0.45(38) 0.79(21) 0.55(22)
C7 C 0.31(21) 0.50(21) 0.76(13)
Mn1B Mn -0.146(55) 1.210(35) 0.626(41)
Mn1A Mn 0.354(55) 0.290(35) 0.126(41)
Mn1C Mn 0.646(55) 0.710(35) 0.874(41)
S1B S -0.121(67) 0.737(63) 0.466(48)
S2A S 0.413(68) 0.809(68) 0.275(48)
N3C N -0.01(25) 0.82(25) 0.21(16)
loop_
_geom_bond_atom_site_label_1
_geom_bond_atom_site_label_2
_geom_bond_site_symmetry_1
_geom_bond_site_symmetry_2
Mn1 N1 1_555 1_555
N1 C1 1_555 1_555
C1 S1 1_555 1_555
S1 Mn1B 1_555 1_555
N2 Mn1 1_555 1_555
C2 N2 1_555 1_555
S2 C2 1_555 1_555
N3 C4 1_555 1_555
N4 Mn1 1_555 1_555
C3 N4 1_555 1_555
C4 C3 1_555 1_555
C5 N3 1_555 1_555
C6 N4 1_555 1_555
C7 C4 1_555 1_555
Mn1A S2 1_555 1_555
Mn1C N3 1_555 1_555
S1B Mn1 1_555 1_555
S2A Mn1 1_555 1_555
N3C Mn1 1_555 1_555
C5 C6 1_555 1_555

#END
