
#######################################################################
#
#                 Cambridge Crystallographic Data Centre
#                                CCDC 
#
#######################################################################
#
# If this CIF has been generated from an entry in the Cambridge 
# Structural Database, then it will include bibliographic, chemical, 
# crystal, experimental, refinement or atomic coordinate data resulting 
# from the CCDC's data processing and validation procedures.
#
#######################################################################

data_PIPKUW
_symmetry_cell_setting           orthorhombic
_symmetry_space_group_name_H-M   'P c a 21'
_symmetry_Int_Tables_number      29
_space_group_name_Hall           'P 2c -2ac'
loop_
_symmetry_equiv_pos_site_id
_symmetry_equiv_pos_as_xyz
1 x,y,z
2 -x,-y,1/2+z
3 1/2+x,-y,z
4 1/2-x,y,1/2+z
_cell_length_a                   9.7372(8)
_cell_length_b                   12.7543(16)
_cell_length_c                   7.4397(7)
_cell_angle_alpha                90
_cell_angle_beta                 90
_cell_angle_gamma                90
_cell_volume                     923.945
loop_
_atom_site_label
_atom_site_type_symbol
_atom_site_fract_x
_atom_site_fract_y
_atom_site_fract_z
Zn1 Zn 0.78412(5) 0.86404(4) 0.72155(10)
S1 S 0.73868(19) 0.75472(10) 0.9662(3)
N1 N 0.9807(3) 0.9056(3) 0.7101(8)
N2 N 1.1666(4) 1.0087(3) 0.7084(10)
C1 C 0.9020(6) 0.6898(4) 0.9770(7)
C2 C 1.0014(6) 0.7176(5) 1.0984(7)
H1 H 0.9858 0.7729 1.1773
C3 C 1.1262(7) 0.6633(5) 1.1044(9)
H2 H 1.1934 0.6825 1.1869
C4 C 1.1492(7) 0.5816(6) 0.9883(9)
H3 H 1.2316 0.5449 0.9933
C5 C 1.0505(8) 0.5537(6) 0.8639(10)
H4 H 1.0672 0.4994 0.7835
C6 C 0.9265(7) 0.6070(5) 0.8595(8)
H5 H 0.8593 0.5873 0.7774
C7 C 1.0869(6) 0.8524(5) 0.6291(8)
H6 H 1.0824 0.7847 0.5834
C8 C 1.1983(6) 0.9146(5) 0.6269(8)
H7 H 1.2832 0.8970 0.5782
C9 C 1.0342(5) 0.9983(4) 0.7535(8)
H8 H 0.9842 1.0510 0.8100
Zn1B Zn 1.28412(5) 1.13596(4) 0.72155(10)
Zn1C Zn 0.71588(5) 0.86404(4) 1.22155(10)
S1C S 0.76132(19) 0.75472(10) 0.4662(3)
N2B N 0.6666(4) 0.9913(3) 0.7084(10)
loop_
_geom_bond_atom_site_label_1
_geom_bond_atom_site_label_2
_geom_bond_site_symmetry_1
_geom_bond_site_symmetry_2
Zn1 S1 1_555 1_555
S1 C1 1_555 1_555
N1 Zn1 1_555 1_555
N2 C8 1_555 1_555
C1 C2 1_555 1_555
C2 H1 1_555 1_555
C3 C2 1_555 1_555
H2 C3 1_555 1_555
C4 C3 1_555 1_555
H3 C4 1_555 1_555
C5 C4 1_555 1_555
H4 C5 1_555 1_555
C6 C1 1_555 1_555
H5 C6 1_555 1_555
C7 N1 1_555 1_555
H6 C7 1_555 1_555
C8 C7 1_555 1_555
H7 C8 1_555 1_555
C9 N1 1_555 1_555
H8 C9 1_555 1_555
Zn1B N2 1_555 1_555
Zn1C S1 1_555 1_555
S1C Zn1 1_555 1_555
N2B Zn1 1_555 1_555
N2 C9 1_555 1_555
C5 C6 1_555 1_555

#END
