
#######################################################################
#
#                 Cambridge Crystallographic Data Centre
#                                CCDC 
#
#######################################################################
#
# If this CIF has been generated from an entry in the Cambridge 
# Structural Database, then it will include bibliographic, chemical, 
# crystal, experimental, refinement or atomic coordinate data resulting 
# from the CCDC's data processing and validation procedures.
#
#######################################################################

data_PIPZUL
_symmetry_cell_setting           triclinic
_symmetry_space_group_name_H-M   'P -1'
_symmetry_Int_Tables_number      2
_space_group_name_Hall           '-P 1'
loop_
_symmetry_equiv_pos_site_id
_symmetry_equiv_pos_as_xyz
1 x,y,z
2 -x,-y,-z
_cell_length_a                   9.846(7)
_cell_length_b                   14.108(10)
_cell_length_c                   19.466(14)
_cell_angle_alpha                97.416(8)
_cell_angle_beta                 104.173(8)
_cell_angle_gamma                104.323(9)
_cell_volume                     2487.88
loop_
_atom_site_label
_atom_site_type_symbol
_atom_site_fract_x
_atom_site_fract_y
_atom_site_fract_z
Mn1 Mn 1.0000 0.5000 0.5000
Mn2 Mn 0.89761(5) 0.49349(4) 0.31488(3)
Mn3 Mn 1.13283(5) 1.00558(4) 0.18259(3)
Mn4 Mn 1.0000 1.0000 0.0000
O1 O 0.7926(3) 0.4519(2) 0.41087(14)
O2 O 0.6669(3) 0.5029(2) 0.32131(14)
O3 O 0.1294(3) 0.47410(19) 0.30376(13)
O4 O 0.0690(3) 0.45598(19) 0.40366(13)
O5 O 0.4207(3) 0.2982(2) 0.53754(14)
O6 O 1.0428(3) 0.64759(19) 0.48278(14)
O7 O 1.0017(3) 0.64655(18) 0.36430(13)
O8 O 1.1990(3) 0.95670(18) 0.28295(12)
O9 O 1.2628(3) 1.09884(19) 0.36459(13)
O10 O 1.4009(3) 0.9904(2) 0.60111(13)
O11 O 1.0223(3) 0.85212(18) 0.13917(13)
O12 O 0.9666(3) 0.85540(18) 0.02135(13)
O13 O 0.8668(3) 0.53404(18) 0.21291(12)
O14 O 0.8023(4) 0.3924(2) 0.13167(14)
O15 O 0.5889(3) 0.5180(2) -0.09475(14)
O16 O 0.8851(3) 1.0247(2) 0.19921(13)
O17 O 0.9678(2) 1.05115(17) 0.10602(12)
O18 O 0.3429(3) 1.0087(2) 0.16221(15)
O19 O 0.2298(3) 1.0501(2) 0.06246(15)
O20 O 0.6287(3) 1.2333(2) -0.02763(13)
O21 O 0.8025(3) 0.33481(17) 0.25705(13)
H1 H 0.7935 0.3312 0.2122
H2 H 0.7151 0.3145 0.2591
O22 O 1.2197(3) 1.16450(18) 0.23860(13)
H3 H 1.2389 1.1684 0.2841
H4 H 1.1750 1.2075 0.2283
C1 C 0.6739(4) 0.4642(3) 0.3762(2)
C2 C 0.5402(3) 0.4293(3) 0.40045(18)
C3 C 0.5467(4) 0.3774(3) 0.45671(19)
H5 H 0.6321 0.3617 0.4772
C4 C 0.4265(4) 0.3490(3) 0.48226(19)
C5 C 0.2995(4) 0.3747(3) 0.45217(18)
H6 H 0.2198 0.3580 0.4705
C6 C 0.2918(4) 0.4246(3) 0.39545(18)
C7 C 0.4117(3) 0.4505(3) 0.36863(18)
H7 H 0.4057 0.4820 0.3293
C8 C 0.1565(4) 0.4534(3) 0.36544(19)
C9 C 0.5458(4) 0.2687(3) 0.5690(2)
H8 H 0.5665 0.2269 0.5323
H9 H 0.5272 0.2324 0.6058
H10 H 0.6282 0.3269 0.5901
C10 C 1.0572(4) 0.6880(3) 0.4299(2)
C11 C 1.1482(4) 0.7946(3) 0.44711(18)
C12 C 1.2280(4) 0.8414(3) 0.51868(18)
H11 H 1.2236 0.8067 0.5560
C13 C 1.3139(4) 0.9400(3) 0.53343(19)
C14 C 1.3152(4) 0.9930(3) 0.47822(19)
H12 H 1.3694 1.0599 0.4888
C15 C 1.2363(4) 0.9470(3) 0.40717(19)
C16 C 1.1546(4) 0.8470(3) 0.39162(18)
H13 H 1.1041 0.8152 0.3440
C17 C 1.2340(4) 1.0060(3) 0.3479(2)
C18 C 1.4113(5) 0.9335(3) 0.6571(2)
H14 H 1.3185 0.9138 0.6669
H15 H 1.4843 0.9735 0.7003
H16 H 1.4382 0.8751 0.6418
C19 C 0.8266(4) 0.4843(3) 0.14922(19)
C20 C 0.8080(4) 0.5451(3) 0.09086(18)
C21 C 0.8880(4) 0.6461(3) 0.10699(19)
H17 H 0.9529 0.6740 0.1528
C22 C 0.8721(4) 0.7050(3) 0.05583(18)
C23 C 0.7737(4) 0.6639(3) -0.01324(19)
H18 H 0.7640 0.7028 -0.0482
C24 C 0.6903(4) 0.5638(3) -0.02901(19)
C25 C 0.7083(4) 0.5047(3) 0.02256(19)
H19 H 0.6535 0.4379 0.0114
C26 C 0.9590(4) 0.8120(3) 0.0731(2)
C27 C 0.5512(5) 0.5822(3) -0.1432(2)
H20 H 0.5200 0.6331 -0.1191
H21 H 0.4733 0.5436 -0.1850
H22 H 0.6352 0.6129 -0.1578
C28 C 0.8700(4) 1.0497(3) 0.13914(19)
C29 C 0.7393(3) 1.0820(3) 0.10532(18)
C30 C 0.7495(4) 1.1418(2) 0.05409(18)
H23 H 0.8362 1.1618 0.0418
C31 C 0.6288(4) 1.1714(3) 0.02152(18)
C32 C 0.4964(4) 1.1372(3) 0.03725(19)
H24 H 0.4147 1.1548 0.0137
C33 C 0.4863(4) 1.0773(3) 0.08779(19)
C34 C 0.6100(3) 1.0518(3) 0.12318(18)
H25 H 0.6052 1.0144 0.1589
C35 C 0.7683(4) 1.2779(3) -0.0379(2)
H26 H 0.8384 1.3094 0.0082
H27 H 0.7593 1.3269 -0.0674
H28 H 0.8005 1.2272 -0.0615
C36 C 0.3433(4) 1.0421(3) 0.1051(2)
Mn2A Mn 0.10239(5) 0.50651(4) 0.68512(3)
Mn3A Mn -0.13283(5) -0.00558(4) 0.81741(3)
O1A O 0.2074(3) 0.5481(2) 0.58913(14)
O2A O 0.3331(3) 0.4971(2) 0.67869(14)
O3A O 0.8706(3) 0.52590(19) 0.69624(13)
O4A O 0.9310(3) 0.54402(19) 0.59634(13)
O5A O 0.5793(3) 0.7018(2) 0.46246(14)
O6A O -0.0428(3) 0.35241(19) 0.51722(14)
O7A O -0.0017(3) 0.35345(18) 0.63570(13)
O8A O -0.1990(3) 0.04330(18) 0.71705(12)
O9A O -0.2628(3) -0.09884(19) 0.63541(13)
O10A O -0.4009(3) 0.0096(2) 0.39889(13)
O11A O -0.0223(3) 0.14788(18) 0.86083(13)
O12A O 0.0334(3) 0.14460(18) 0.97865(13)
O13A O 0.1332(3) 0.46596(18) 0.78709(12)
O14A O 0.1977(4) 0.6076(2) 0.86833(14)
O15A O 0.4111(3) 0.4820(2) 1.09475(14)
O16A O 0.1149(3) -0.0247(2) 0.80079(13)
O17A O 0.0322(2) -0.05115(17) 0.89398(12)
O18A O 0.6571(3) -0.0087(2) 0.83779(15)
O19A O 0.7702(3) -0.0501(2) 0.93754(15)
O20A O 0.3713(3) -0.2333(2) 1.02763(13)
O21A O 0.1975(3) 0.66519(17) 0.74295(13)
H1A H 0.2065 0.6688 0.7878
H2A H 0.2849 0.6855 0.7409
O22A O -0.2197(3) -0.16450(18) 0.76140(13)
H3A H -0.2389 -0.1684 0.7159
H4A H -0.1750 -0.2075 0.7717
C1A C 0.3261(4) 0.5358(3) 0.6238(2)
C2A C 0.4598(3) 0.5707(3) 0.59955(18)
C3A C 0.4533(4) 0.6226(3) 0.54329(19)
H5A H 0.3679 0.6383 0.5228
C4A C 0.5735(4) 0.6510(3) 0.51774(19)
C5A C 0.7005(4) 0.6253(3) 0.54783(18)
H6A H 0.7802 0.6420 0.5295
C6A C 0.7082(4) 0.5754(3) 0.60455(18)
C7A C 0.5883(3) 0.5495(3) 0.63137(18)
H7A H 0.5943 0.5180 0.6707
C8A C 0.8435(4) 0.5466(3) 0.63456(19)
C9A C 0.4542(4) 0.7313(3) 0.4310(2)
H8A H 0.4335 0.7731 0.4677
H9A H 0.4728 0.7676 0.3942
H10A H 0.3718 0.6731 0.4099
C10A C -0.0572(4) 0.3120(3) 0.5701(2)
C11A C -0.1482(4) 0.2054(3) 0.55289(18)
C12A C -0.2280(4) 0.1586(3) 0.48132(18)
H11A H -0.2236 0.1933 0.4440
C13A C -0.3139(4) 0.0600(3) 0.46657(19)
C14A C -0.3152(4) 0.0070(3) 0.52178(19)
H12A H -0.3694 -0.0599 0.5112
C15A C -0.2363(4) 0.0530(3) 0.59283(19)
C16A C -0.1546(4) 0.1530(3) 0.60838(18)
H13A H -0.1041 0.1848 0.6560
C17A C -0.2340(4) -0.0060(3) 0.6521(2)
C18A C -0.4113(5) 0.0665(3) 0.3429(2)
H14A H -0.3185 0.0862 0.3331
H15A H -0.4843 0.0265 0.2997
H16A H -0.4382 0.1249 0.3582
C19A C 0.1734(4) 0.5157(3) 0.85078(19)
C20A C 0.1920(4) 0.4549(3) 0.90914(18)
C21A C 0.1120(4) 0.3539(3) 0.89301(19)
H17A H 0.0471 0.3260 0.8472
C22A C 0.1279(4) 0.2950(3) 0.94417(18)
C23A C 0.2263(4) 0.3361(3) 1.01324(19)
H18A H 0.2360 0.2972 1.0482
C24A C 0.3097(4) 0.4362(3) 1.02901(19)
C25A C 0.2917(4) 0.4953(3) 0.97744(19)
H19A H 0.3465 0.5621 0.9886
C26A C 0.0410(4) 0.1880(3) 0.9269(2)
C27A C 0.4488(5) 0.4178(3) 1.1432(2)
H20A H 0.4800 0.3669 1.1191
H21A H 0.5267 0.4564 1.1850
H22A H 0.3648 0.3871 1.1578
C28A C 0.1300(4) -0.0497(3) 0.86086(19)
C29A C 0.2607(3) -0.0820(3) 0.89468(18)
C30A C 0.2505(4) -0.1418(2) 0.94591(18)
H23A H 0.1638 -0.1618 0.9582
C31A C 0.3712(4) -0.1714(3) 0.97848(18)
C32A C 0.5036(4) -0.1372(3) 0.96275(19)
H24A H 0.5853 -0.1548 0.9863
C33A C 0.5137(4) -0.0773(3) 0.91221(19)
C34A C 0.3900(3) -0.0518(3) 0.87682(18)
H25A H 0.3948 -0.0144 0.8411
C35A C 0.2317(4) -0.2779(3) 1.0379(2)
H26A H 0.1616 -0.3094 0.9918
H27A H 0.2407 -0.3269 1.0674
H28A H 0.1995 -0.2272 1.0615
C36A C 0.6567(4) -0.0421(3) 0.8949(2)
Mn1_2 Mn 0.0000 0.5000 0.5000
Mn2_2 Mn -0.10239(5) 0.49349(4) 0.31488(3)
Mn2A_2 Mn 1.10239(5) 0.50651(4) 0.68512(3)
Mn3_2 Mn 0.13283(5) 1.00558(4) 0.18259(3)
Mn3A_2 Mn 0.86717(5) -0.00558(4) 0.81741(3)
Mn4_2 Mn 0.0000 0.0000 1.0000
Mn4_3 Mn 0.0000 1.0000 0.0000
Mn4_4 Mn 1.0000 0.0000 1.0000
O1A_2 O 1.2074(3) 0.5481(2) 0.58913(14)
O3_2 O 1.1294(3) 0.47410(19) 0.30376(13)
O3A_2 O -0.1294(3) 0.52590(19) 0.69624(13)
O4_2 O 1.0690(3) 0.45598(19) 0.40366(13)
O4A_2 O -0.0690(3) 0.54402(19) 0.59634(13)
O6A_2 O 0.9572(3) 0.35241(19) 0.51722(14)
O12A_2 O 1.0334(3) 1.14460(18) -0.02135(13)
O17A_2 O 1.0322(2) 0.94885(17) -0.10602(12)
O18_2 O 1.3429(3) 1.0087(2) 0.16221(15)
O18A_2 O -0.3429(3) -0.0087(2) 0.83779(15)
O19_2 O 1.2298(3) 1.0501(2) 0.06246(15)
O19A_2 O 0.7702(3) 0.9499(2) -0.06246(15)
O23 O 0.9109(3) 0.85547(19) 0.55154(14)
H29 H 0.8409 0.8592 0.5690
H30 H 0.9656 0.8356 0.5841
O24 O 0.0965(4) 0.3122(3) 0.19117(17)
H31 H 0.0745 0.3579 0.2152
H32 H 0.1736 0.3356 0.1791
O25 O 0.5218(3) 0.2438(3) 0.24880(19)
H33 H 0.5283 0.1849 0.2385
H34 H 0.4409 0.2477 0.2553
O26 O 0.9380(4) 0.1945(3) 0.32370(18)
H35 H 0.9171 0.2384 0.3004
H36 H 0.9229 0.1466 0.2888
N1 N 0.2839(4) 0.7908(3) 0.24392(18)
N2 N 0.4397(3) 0.7306(3) 0.20380(17)
N3 N 0.7472(3) 0.7766(3) 0.29348(17)
N4 N 0.8195(3) 0.8364(3) 0.40902(18)
C37 C 0.2517(5) 0.6910(3) 0.2475(2)
H37 H 0.1770 0.6560 0.2640
C38 C 0.3480(5) 0.6535(3) 0.2229(2)
H38 H 0.3521 0.5880 0.2193
C39 C 0.3971(4) 0.8118(3) 0.2177(2)
H39 H 0.4409 0.8744 0.2100
C40 C 0.5613(5) 0.7255(4) 0.1731(2)
H40 H 0.5988 0.7887 0.1600
H41 H 0.5246 0.6741 0.1294
C41 C 0.6861(5) 0.7026(3) 0.2258(2)
H42 H 0.6503 0.6372 0.2364
H43 H 0.7630 0.7004 0.2031
C42 C 0.8115(4) 0.8776(3) 0.3027(3)
H44 H 0.8219 0.9136 0.2666
C43 C 0.8564(4) 0.9137(3) 0.3744(3)
H45 H 0.9045 0.9800 0.3969
C44 C 0.7551(4) 0.7550(3) 0.3584(2)
H46 H 0.7201 0.6914 0.3669
loop_
_geom_bond_atom_site_label_1
_geom_bond_atom_site_label_2
_geom_bond_site_symmetry_1
_geom_bond_site_symmetry_2
Mn1 O1 1_555 1_555
Mn2 O1 1_555 1_555
Mn3 O8 1_555 1_555
Mn4 O12 1_555 1_555
O1 C1 1_555 1_555
O2 Mn2 1_555 1_555
O3 C8 1_555 1_555
O4 C8 1_555 1_555
O5 C4 1_555 1_555
O6 Mn1 1_555 1_555
O7 Mn2 1_555 1_555
O8 C17 1_555 1_555
O9 C17 1_555 1_555
O10 C13 1_555 1_555
O11 Mn3 1_555 1_555
O12 C26 1_555 1_555
O13 Mn2 1_555 1_555
O14 C19 1_555 1_555
O15 C24 1_555 1_555
O16 C28 1_555 1_555
O17 Mn3 1_555 1_555
O18 C36 1_555 1_555
O19 C36 1_555 1_555
O20 C31 1_555 1_555
O21 Mn2 1_555 1_555
H1 O21 1_555 1_555
H2 O21 1_555 1_555
O22 Mn3 1_555 1_555
H3 O22 1_555 1_555
H4 O22 1_555 1_555
C1 O2 1_555 1_555
C2 C1 1_555 1_555
C3 C2 1_555 1_555
H5 C3 1_555 1_555
C4 C3 1_555 1_555
C5 C4 1_555 1_555
H6 C5 1_555 1_555
C6 C5 1_555 1_555
C7 C2 1_555 1_555
H7 C7 1_555 1_555
C8 C6 1_555 1_555
C9 O5 1_555 1_555
H8 C9 1_555 1_555
H9 C9 1_555 1_555
H10 C9 1_555 1_555
C10 O6 1_555 1_555
C11 C10 1_555 1_555
C12 C11 1_555 1_555
H11 C12 1_555 1_555
C13 C12 1_555 1_555
C14 C13 1_555 1_555
H12 C14 1_555 1_555
C15 C14 1_555 1_555
C16 C11 1_555 1_555
H13 C16 1_555 1_555
C17 C15 1_555 1_555
C18 O10 1_555 1_555
H14 C18 1_555 1_555
H15 C18 1_555 1_555
H16 C18 1_555 1_555
C19 O13 1_555 1_555
C20 C19 1_555 1_555
C21 C20 1_555 1_555
H17 C21 1_555 1_555
C22 C21 1_555 1_555
C23 C22 1_555 1_555
H18 C23 1_555 1_555
C24 C23 1_555 1_555
C25 C20 1_555 1_555
H19 C25 1_555 1_555
C26 O11 1_555 1_555
C27 O15 1_555 1_555
H20 C27 1_555 1_555
H21 C27 1_555 1_555
H22 C27 1_555 1_555
C28 O17 1_555 1_555
C29 C28 1_555 1_555
C30 C29 1_555 1_555
H23 C30 1_555 1_555
C31 C30 1_555 1_555
C32 C31 1_555 1_555
H24 C32 1_555 1_555
C33 C32 1_555 1_555
C34 C29 1_555 1_555
H25 C34 1_555 1_555
C35 O20 1_555 1_555
H26 C35 1_555 1_555
H27 C35 1_555 1_555
H28 C35 1_555 1_555
C36 C33 1_555 1_555
O23 H29 1_555 1_555
H30 O23 1_555 1_555
O24 H31 1_555 1_555
H32 O24 1_555 1_555
O25 H33 1_555 1_555
H34 O25 1_555 1_555
O26 H35 1_555 1_555
H36 O26 1_555 1_555
N1 C37 1_555 1_555
N2 C38 1_555 1_555
N3 C41 1_555 1_555
N4 C43 1_555 1_555
C37 H37 1_555 1_555
C38 C37 1_555 1_555
H38 C38 1_555 1_555
C39 N1 1_555 1_555
H39 C39 1_555 1_555
C40 N2 1_555 1_555
H40 C40 1_555 1_555
H41 C40 1_555 1_555
C41 C40 1_555 1_555
H42 C41 1_555 1_555
H43 C41 1_555 1_555
C42 N3 1_555 1_555
H44 C42 1_555 1_555
C43 C42 1_555 1_555
H45 C43 1_555 1_555
C44 N3 1_555 1_555
H46 C44 1_555 1_555
Mn2A O1A 1_555 1_555
Mn3A O8A 1_555 1_555
O1A C1A 1_555 1_555
O2A Mn2A 1_555 1_555
O3A C8A 1_555 1_555
O4A Mn1 1_555 1_555
O5A C4A 1_555 1_555
O6A C10A 1_555 1_555
O7A Mn2A 1_555 1_555
O8A C17A 1_555 1_555
O9A C17A 1_555 1_555
O10A C13A 1_555 1_555
O11A Mn3A 1_555 1_555
O12A C26A 1_555 1_555
O13A Mn2A 1_555 1_555
O14A C19A 1_555 1_555
O15A C24A 1_555 1_555
O16A C28A 1_555 1_555
O17A Mn3A 1_555 1_555
O18A C36A 1_555 1_555
O19A C36A 1_555 1_555
O20A C31A 1_555 1_555
O21A Mn2A 1_555 1_555
H1A O21A 1_555 1_555
H2A O21A 1_555 1_555
O22A Mn3A 1_555 1_555
H3A O22A 1_555 1_555
H4A O22A 1_555 1_555
C1A O2A 1_555 1_555
C2A C1A 1_555 1_555
C3A C2A 1_555 1_555
H5A C3A 1_555 1_555
C4A C3A 1_555 1_555
C5A C4A 1_555 1_555
H6A C5A 1_555 1_555
C6A C5A 1_555 1_555
C7A C2A 1_555 1_555
H7A C7A 1_555 1_555
C8A O4A 1_555 1_555
C9A O5A 1_555 1_555
H8A C9A 1_555 1_555
H9A C9A 1_555 1_555
H10A C9A 1_555 1_555
C10A O7A 1_555 1_555
C11A C10A 1_555 1_555
C12A C11A 1_555 1_555
H11A C12A 1_555 1_555
C13A C12A 1_555 1_555
C14A C13A 1_555 1_555
H12A C14A 1_555 1_555
C15A C14A 1_555 1_555
C16A C11A 1_555 1_555
H13A C16A 1_555 1_555
C17A C15A 1_555 1_555
C18A O10A 1_555 1_555
H14A C18A 1_555 1_555
H15A C18A 1_555 1_555
H16A C18A 1_555 1_555
C19A O13A 1_555 1_555
C20A C19A 1_555 1_555
C21A C20A 1_555 1_555
H17A C21A 1_555 1_555
C22A C21A 1_555 1_555
C23A C22A 1_555 1_555
H18A C23A 1_555 1_555
C24A C23A 1_555 1_555
C25A C20A 1_555 1_555
H19A C25A 1_555 1_555
C26A O11A 1_555 1_555
C27A O15A 1_555 1_555
H20A C27A 1_555 1_555
H21A C27A 1_555 1_555
H22A C27A 1_555 1_555
C28A O17A 1_555 1_555
C29A C28A 1_555 1_555
C30A C29A 1_555 1_555
H23A C30A 1_555 1_555
C31A C30A 1_555 1_555
C32A C31A 1_555 1_555
H24A C32A 1_555 1_555
C33A C32A 1_555 1_555
C34A C29A 1_555 1_555
H25A C34A 1_555 1_555
C35A O20A 1_555 1_555
H26A C35A 1_555 1_555
H27A C35A 1_555 1_555
H28A C35A 1_555 1_555
C36A C33A 1_555 1_555
Mn1_2 O4 1_555 1_555
Mn2_2 O3 1_555 1_555
Mn2A_2 O3A 1_555 1_555
Mn3_2 O18 1_555 1_555
Mn3A_2 O18A 1_555 1_555
Mn4_2 O12A 1_555 1_555
Mn4_3 O19 1_555 1_555
Mn4_4 O19A 1_555 1_555
O1A_2 Mn1 1_555 1_555
O3_2 Mn2 1_555 1_555
O3A_2 Mn2A 1_555 1_555
O4_2 Mn1 1_555 1_555
O4A_2 Mn2A 1_555 1_555
O6A_2 Mn1 1_555 1_555
O12A_2 Mn4 1_555 1_555
O17A_2 Mn4 1_555 1_555
O18_2 Mn3 1_555 1_555
O18A_2 Mn3A 1_555 1_555
O19_2 Mn4 1_555 1_555
O19A_2 Mn4 1_555 1_555
Mn2 O4_2 1_555 1_555
Mn4 O17 1_555 1_555
O4 Mn2_2 1_555 1_555
O7 C10 1_555 1_555
C6 C7 1_555 1_555
C15 C16 1_555 1_555
C22 C26 1_555 1_555
C24 C25 1_555 1_555
C33 C34 1_555 1_555
N2 C39 1_555 1_555
N4 C44 1_555 1_555
O1A Mn1_2 1_555 1_555
O4A Mn2A_2 1_555 1_555
O6A Mn1_2 1_555 1_555
O17A Mn4_2 1_555 1_555
C6A C7A 1_555 1_555
C6A C8A 1_555 1_555
C15A C16A 1_555 1_555
C22A C26A 1_555 1_555
C24A C25A 1_555 1_555
C33A C34A 1_555 1_555
Mn1_2 O4A_2 1_555 1_555
Mn2A_2 O1A_2 1_555 1_555

#END
