
#######################################################################
#
#                 Cambridge Crystallographic Data Centre
#                                CCDC 
#
#######################################################################
#
# If this CIF has been generated from an entry in the Cambridge 
# Structural Database, then it will include bibliographic, chemical, 
# crystal, experimental, refinement or atomic coordinate data resulting 
# from the CCDC's data processing and validation procedures.
#
#######################################################################

data_PIQRUC
_symmetry_cell_setting           monoclinic
_symmetry_space_group_name_H-M   'P 21/c'
_symmetry_Int_Tables_number      14
_space_group_name_Hall           '-P 2ybc'
loop_
_symmetry_equiv_pos_site_id
_symmetry_equiv_pos_as_xyz
1 x,y,z
2 -x,1/2+y,1/2-z
3 -x,-y,-z
4 x,1/2-y,1/2+z
_cell_length_a                   8.526(4)
_cell_length_b                   24.715(5)
_cell_length_c                   10.6980(30)
_cell_angle_alpha                90
_cell_angle_beta                 107.95(3)
_cell_angle_gamma                90
_cell_volume                     2144.56
loop_
_atom_site_label
_atom_site_type_symbol
_atom_site_fract_x
_atom_site_fract_y
_atom_site_fract_z
Sn1 Sn -0.04445(6) 0.27974(2) -0.66892(4)
O1 O -0.06149(55) 0.33957(18) -0.52794(39)
O2 O -0.03245(59) 0.28403(20) -0.35743(40)
O3 O -0.46328(76) 0.58765(22) -0.16677(55)
N1 N -0.28960(74) 0.50109(23) -0.15651(59)
N2 N -0.25250(75) 0.49823(23) -0.03326(58)
C1 C -0.06592(81) 0.32884(31) -0.41201(65)
C2 C -0.11605(81) 0.37538(27) -0.34240(61)
C3 C -0.21022(98) 0.41704(31) -0.41192(65)
C4 C -0.2631(11) 0.45825(31) -0.34725(74)
C5 C -0.22336(92) 0.45818(28) -0.21403(67)
C6 C -0.12500(92) 0.41803(31) -0.14311(63)
C7 C -0.07268(87) 0.37697(28) -0.20657(62)
C8 C -0.31905(92) 0.53939(29) 0.02860(75)
C9 C -0.27750(93) 0.53436(28) 0.16487(75)
C10 C -0.3336(10) 0.57083(33) 0.23926(79)
C11 C -0.2848(12) 0.56447(35) 0.38783(84)
C12 C -0.4300(11) 0.61231(33) 0.17575(91)
C13 C -0.4732(11) 0.61876(31) 0.04311(96)
C14 C -0.42035(99) 0.58200(31) -0.03515(84)
C15 C -0.27638(88) 0.24209(35) -0.68695(76)
C16 C -0.4006(11) 0.27667(44) -0.6644(11)
C17 C -0.0470(11) 0.34238(33) -0.80745(69)
C18 C 0.0555(21) 0.38487(56) -0.7654(10)
C19 C 0.18782(88) 0.24503(32) -0.56540(69)
C20 C 0.3045(11) 0.28370(44) -0.47852(87)
H1 H -0.24025 0.41739 -0.50705
H2 H -0.32893 0.48758 -0.39737
H3 H -0.09207 0.41870 -0.04791
H4 H -0.00395 0.34842 -0.15536
H5 H -0.20771 0.50462 0.20823
H6 H -0.16582 0.56543 0.42410
H7 H -0.32613 0.53037 0.40902
H8 H -0.33198 0.59402 0.42440
H9 H -0.46956 0.63836 0.22696
H10 H -0.54175 0.64926 0.00203
H11 H -0.31925 0.22767 -0.77529
H12 H -0.25695 0.21269 -0.62399
H13 H -0.36705 0.28796 -0.57292
H14 H -0.50441 0.25739 -0.68471
H15 H -0.41447 0.30855 -0.72011
H16 H -0.15843 0.35627 -0.83928
H17 H -0.01785 0.32585 -0.87973
H18 H 0.02298 0.40427 -0.69789
H19 H 0.16748 0.37221 -0.72898
H20 H 0.04748 0.40910 -0.83835
H21 H 0.23758 0.23102 -0.62908
H22 H 0.16941 0.21549 -0.51180
H23 H 0.25680 0.29822 -0.41401
H24 H 0.32610 0.31336 -0.53092
H25 H 0.40717 0.26556 -0.43389
O2C O -0.03245(59) 0.21597(20) -0.85743(40)
Sn1C Sn -0.04445(6) 0.22026(2) -0.16892(4)
loop_
_geom_bond_atom_site_label_1
_geom_bond_atom_site_label_2
_geom_bond_site_symmetry_1
_geom_bond_site_symmetry_2
Sn1 O1 1_555 1_555
O1 C1 1_555 1_555
O2 C1 1_555 1_555
O3 C14 1_555 1_555
N1 N2 1_555 1_555
N2 C8 1_555 1_555
C1 C2 1_555 1_555
C2 C3 1_555 1_555
C3 C4 1_555 1_555
C4 C5 1_555 1_555
C5 N1 1_555 1_555
C6 C5 1_555 1_555
C7 C2 1_555 1_555
C8 C9 1_555 1_555
C9 C10 1_555 1_555
C10 C11 1_555 1_555
C11 H6 1_555 1_555
C12 C10 1_555 1_555
C13 C12 1_555 1_555
C14 C8 1_555 1_555
C15 Sn1 1_555 1_555
C16 C15 1_555 1_555
C17 Sn1 1_555 1_555
C18 C17 1_555 1_555
C19 Sn1 1_555 1_555
C20 C19 1_555 1_555
H1 C3 1_555 1_555
H2 C4 1_555 1_555
H3 C6 1_555 1_555
H4 C7 1_555 1_555
H5 C9 1_555 1_555
H7 C11 1_555 1_555
H8 C11 1_555 1_555
H9 C12 1_555 1_555
H10 C13 1_555 1_555
H11 C15 1_555 1_555
H12 C15 1_555 1_555
H13 C16 1_555 1_555
H14 C16 1_555 1_555
H15 C16 1_555 1_555
H16 C17 1_555 1_555
H17 C17 1_555 1_555
H18 C18 1_555 1_555
H19 C18 1_555 1_555
H20 C18 1_555 1_555
H21 C19 1_555 1_555
H22 C19 1_555 1_555
H23 C20 1_555 1_555
H24 C20 1_555 1_555
H25 C20 1_555 1_555
O2C Sn1 1_555 1_555
Sn1C O2 1_555 1_555
C6 C7 1_555 1_555
C13 C14 1_555 1_555

#END
