
#######################################################################
#
#                 Cambridge Crystallographic Data Centre
#                                CCDC 
#
#######################################################################
#
# If this CIF has been generated from an entry in the Cambridge 
# Structural Database, then it will include bibliographic, chemical, 
# crystal, experimental, refinement or atomic coordinate data resulting 
# from the CCDC's data processing and validation procedures.
#
#######################################################################

data_PIRCEY
_symmetry_cell_setting           monoclinic
_symmetry_space_group_name_H-M   'P 21/c'
_symmetry_Int_Tables_number      14
_space_group_name_Hall           '-P 2ybc'
loop_
_symmetry_equiv_pos_site_id
_symmetry_equiv_pos_as_xyz
1 x,y,z
2 -x,1/2+y,1/2-z
3 -x,-y,-z
4 x,1/2-y,1/2+z
_cell_length_a                   14.490(3)
_cell_length_b                   9.900(3)
_cell_length_c                   9.896(3)
_cell_angle_alpha                90
_cell_angle_beta                 97.06(2)
_cell_angle_gamma                90
_cell_volume                     1408.83
loop_
_atom_site_label
_atom_site_type_symbol
_atom_site_fract_x
_atom_site_fract_y
_atom_site_fract_z
Mg1 Mg 0.6250(1) 0.1854(2) 0.3936(2)
O3 O 0.7369(2) 0.2299(4) 0.5340(3)
O4 O 0.6777(2) 0.2558(4) 0.2277(3)
O5 O 0.4934(3) 0.1391(4) 0.2839(3)
O6 O 0.5602(2) 0.1055(4) 0.5610(3)
O7 O 0.5667(2) 0.3747(4) 0.4136(4)
O8 O 0.6696(3) -0.0027(3) 0.3462(3)
C5 C 0.7448(3) 0.2503(5) 0.6587(4)
C6 C 0.8390(4) 0.2851(7) 0.7347(6)
C7 C 0.9200(5) 0.2475(7) 0.6607(6)
C8 C 0.9352(7) 0.0960(10) 0.6490(10)
C5C C 0.7448(3) 0.2497(5) 0.1587(4)
O4C O 0.6777(2) 0.2442(4) 0.7277(3)
O3C O 0.7369(2) 0.2701(4) 0.0340(3)
C6C C 0.8390(4) 0.2149(7) 0.2347(6)
Mg1C Mg 0.6250(1) 0.3146(2) 0.8936(2)
Mg1C_2 Mg 0.6250(1) 0.3146(2) -0.1064(2)
C7C C 0.9200(5) 0.2525(7) 0.1607(6)
O3C_2 O 0.7369(2) 0.2701(4) 1.0340(3)
O5C O 0.4934(3) 0.3609(4) 0.7839(3)
O6C O 0.5602(2) 0.3945(4) 1.0610(3)
O7C O 0.5667(2) 0.1253(4) 0.9136(4)
O8C O 0.6696(3) 0.5027(3) 0.8462(3)
C8C C 0.9352(7) 0.4040(10) 0.1490(10)
O1 O 0.3721(3) 0.4119(4) 0.4181(3)
O2 O 0.3857(2) 0.2415(4) 0.5637(3)
C1 C 0.3451(4) 0.3017(5) 0.4606(5)
C2 C 0.2594(5) 0.2365(8) 0.3843(7)
C3 C 0.1766(5) 0.3295(7) 0.3658(6)
C4 C 0.1479(8) 0.3740(10) 0.5020(10)
loop_
_geom_bond_atom_site_label_1
_geom_bond_atom_site_label_2
_geom_bond_site_symmetry_1
_geom_bond_site_symmetry_2
Mg1 O3 1_555 1_555
O1 C1 1_555 1_555
O2 C1 1_555 1_555
O3 C5 1_555 1_555
O4 Mg1 1_555 1_555
O5 Mg1 1_555 1_555
O6 Mg1 1_555 1_555
O7 Mg1 1_555 1_555
O8 Mg1 1_555 1_555
C1 C2 1_555 1_555
C2 C3 1_555 1_555
C3 C4 1_555 1_555
C5 C6 1_555 1_555
C6 C7 1_555 1_555
C7 C8 1_555 1_555
C5C O4 1_555 1_555
O4C C5 1_555 1_555
O3C C5C 1_555 1_555
C6C C5C 1_555 1_555
Mg1C O4C 1_555 1_555
Mg1C_2 O3C 1_555 1_555
C7C C6C 1_555 1_555
O3C_2 Mg1C 1_555 1_555
O5C Mg1C 1_555 1_555
O6C Mg1C 1_555 1_555
O7C Mg1C 1_555 1_555
O8C Mg1C 1_555 1_555
C8C C7C 1_555 1_555

#END
