
#######################################################################
#
#                 Cambridge Crystallographic Data Centre
#                                CCDC 
#
#######################################################################
#
# If this CIF has been generated from an entry in the Cambridge 
# Structural Database, then it will include bibliographic, chemical, 
# crystal, experimental, refinement or atomic coordinate data resulting 
# from the CCDC's data processing and validation procedures.
#
#######################################################################

data_PIRNAH01
_symmetry_cell_setting           orthorhombic
_symmetry_space_group_name_H-M   'P 21 21 2'
_symmetry_Int_Tables_number      18
_space_group_name_Hall           'P 2 2ab'
loop_
_symmetry_equiv_pos_site_id
_symmetry_equiv_pos_as_xyz
1 x,y,z
2 -x,-y,z
3 1/2+x,1/2-y,-z
4 1/2-x,1/2+y,-z
_cell_length_a                   6.5601(3)
_cell_length_b                   18.1520(10)
_cell_length_c                   9.7345(4)
_cell_angle_alpha                90
_cell_angle_beta                 90
_cell_angle_gamma                90
_cell_volume                     1159.17
loop_
_atom_site_label
_atom_site_type_symbol
_atom_site_fract_x
_atom_site_fract_y
_atom_site_fract_z
Cs1 Cs 0.39888(9) 0.65426(3) 0.54302(6)
Cl1 Cl 0.1475(4) 0.70419(16) -0.1083(3)
Cl2 Cl 0.1427(5) 0.69915(15) 0.2119(3)
O1 O 0.1958(13) 0.5506(4) 0.3234(7)
O2 O 0.1895(14) 0.5559(5) -0.2334(8)
O3 O 0.7690(12) 0.5480(4) 0.5436(8)
H1 H 0.7816 0.5050 0.5986
H2 H 0.8231 0.5343 0.4568
O4 O 0.4193(13) 0.8121(4) 0.4290(8)
H3 H 0.3327 0.8508 0.4593
H4 H 0.4454 0.8233 0.3354
N1 N 0.3384(17) 0.3727(7) 0.2426(12)
N2 N 0.3367(18) 0.3765(7) -0.1735(13)
C1 C 0.1949(17) 0.5520(6) 0.1958(11)
C2 C 0.2342(15) 0.4854(5) 0.1142(9)
C3 C 0.2324(16) 0.4875(6) -0.0275(9)
C4 C 0.1931(18) 0.5551(6) -0.1057(11)
C5 C 0.1679(16) 0.6205(6) -0.0218(10)
C6 C 0.1653(18) 0.6201(7) 0.1178(12)
C7 C 0.2940(17) 0.4176(7) 0.1914(10)
C8 C 0.2888(17) 0.4213(7) -0.1100(10)
Cs1_2 Cs 0.39888(9) 0.65426(3) -0.45698(6)
Cs1A Cs 0.60112(9) 0.34574(3) -0.45698(6)
Cs1A_2 Cs 0.60112(9) 0.34574(3) 0.54302(6)
Cs1B Cs -0.10112(9) 0.84574(3) 0.45698(6)
Cs1B_2 Cs 0.89888(9) 0.84574(3) 0.45698(6)
O2_2 O 0.1895(14) 0.5559(5) 0.7666(8)
O4B O -0.0807(13) 0.6879(4) 0.5710(8)
O4B_2 O 0.9193(13) 0.6879(4) 0.5710(8)
N1A N 0.6616(17) 0.6273(7) 0.2426(12)
N2A N 0.6633(18) 0.6235(7) 0.8265(13)
loop_
_geom_bond_atom_site_label_1
_geom_bond_atom_site_label_2
_geom_bond_site_symmetry_1
_geom_bond_site_symmetry_2
Cs1 O1 1_555 1_555
Cl1 C5 1_555 1_555
Cl2 C6 1_555 1_555
O1 C1 1_555 1_555
O2 C4 1_555 1_555
O3 Cs1 1_555 1_555
H1 O3 1_555 1_555
H2 O3 1_555 1_555
O4 Cs1 1_555 1_555
H3 O4 1_555 1_555
H4 O4 1_555 1_555
N1 C7 1_555 1_555
N2 C8 1_555 1_555
C1 C2 1_555 1_555
C2 C3 1_555 1_555
C3 C4 1_555 1_555
C4 C5 1_555 1_555
C5 C6 1_555 1_555
C6 C1 1_555 1_555
C7 C2 1_555 1_555
C8 C3 1_555 1_555
Cs1_2 O2 1_555 1_555
Cs1A N2 1_555 1_555
Cs1A_2 N1 1_555 1_555
Cs1B O4 1_555 1_555
Cs1B_2 O4 1_555 1_555
O2_2 Cs1 1_555 1_555
O4B Cs1 1_555 1_555
O4B_2 Cs1 1_555 1_555
N1A Cs1 1_555 1_555
N2A Cs1 1_555 1_555
Cs1B O4B 1_555 1_555
Cs1B_2 O4B_2 1_555 1_555

#END
