
#######################################################################
#
#                 Cambridge Crystallographic Data Centre
#                                CCDC 
#
#######################################################################
#
# If this CIF has been generated from an entry in the Cambridge 
# Structural Database, then it will include bibliographic, chemical, 
# crystal, experimental, refinement or atomic coordinate data resulting 
# from the CCDC's data processing and validation procedures.
#
#######################################################################

data_PIRNAH
_symmetry_cell_setting           orthorhombic
_symmetry_space_group_name_H-M   'P 21 21 2'
_symmetry_Int_Tables_number      18
_space_group_name_Hall           'P 2 2ab'
loop_
_symmetry_equiv_pos_site_id
_symmetry_equiv_pos_as_xyz
1 x,y,z
2 -x,-y,z
3 1/2+x,1/2-y,-z
4 1/2-x,1/2+y,-z
_cell_length_a                   6.6462(1)
_cell_length_b                   18.2212(3)
_cell_length_c                   9.7758(2)
_cell_angle_alpha                90
_cell_angle_beta                 90
_cell_angle_gamma                90
_cell_volume                     1183.87
loop_
_atom_site_label
_atom_site_type_symbol
_atom_site_fract_x
_atom_site_fract_y
_atom_site_fract_z
Cs1 Cs 0.40430(6) 0.65307(2) 0.54107(3)
Cl1 Cl 0.1462(3) 0.70343(7) -0.11081(15)
Cl2 Cl 0.1451(3) 0.69924(7) 0.20835(14)
O1 O 0.1937(8) 0.5520(2) 0.3206(4)
O2 O 0.1891(8) 0.5573(2) -0.2341(4)
O3 O 0.7728(10) 0.5457(3) 0.5409(4)
H1 H 0.7972 0.5137 0.6157
H2 H 0.8098 0.5183 0.4622
O4 O 0.4248(10) 0.8126(3) 0.4318(6)
H3 H 0.3857 0.8608 0.4581
H4 H 0.4673 0.8167 0.3394
N1 N 0.3368(11) 0.3718(3) 0.2453(6)
N2 N 0.3331(12) 0.3774(3) -0.1748(6)
C1 C 0.1947(9) 0.5528(3) 0.1941(5)
C2 C 0.2313(8) 0.4871(3) 0.1120(5)
C3 C 0.2309(8) 0.4891(3) -0.0302(4)
C4 C 0.1926(9) 0.5556(3) -0.1070(5)
C5 C 0.1666(9) 0.6225(3) -0.0231(5)
C6 C 0.1654(9) 0.6204(3) 0.1136(5)
C7 C 0.2879(10) 0.4224(3) 0.1858(5)
C8 C 0.2838(9) 0.4260(3) -0.1091(5)
Cs1_2 Cs 0.40430(6) 0.65307(2) -0.45893(3)
Cs1A Cs 0.59570(6) 0.34693(2) -0.45893(3)
Cs1A_2 Cs 0.59570(6) 0.34693(2) 0.54107(3)
Cs1B Cs -0.09570(6) 0.84693(2) 0.45893(3)
Cs1B_2 Cs 0.90430(6) 0.84693(2) 0.45893(3)
O2_2 O 0.1891(8) 0.5573(2) 0.7659(4)
O4B O -0.0752(10) 0.6874(3) 0.5682(6)
O4B_2 O 0.9248(10) 0.6874(3) 0.5682(6)
N1A N 0.6632(11) 0.6282(3) 0.2453(6)
N2A N 0.6669(12) 0.6226(3) 0.8252(6)
loop_
_geom_bond_atom_site_label_1
_geom_bond_atom_site_label_2
_geom_bond_site_symmetry_1
_geom_bond_site_symmetry_2
Cs1 O1 1_555 1_555
Cl1 C5 1_555 1_555
Cl2 C6 1_555 1_555
O1 C1 1_555 1_555
O2 C4 1_555 1_555
O3 Cs1 1_555 1_555
H1 O3 1_555 1_555
H2 O3 1_555 1_555
O4 Cs1 1_555 1_555
H3 O4 1_555 1_555
H4 O4 1_555 1_555
N1 C7 1_555 1_555
N2 C8 1_555 1_555
C1 C2 1_555 1_555
C2 C3 1_555 1_555
C3 C4 1_555 1_555
C4 C5 1_555 1_555
C5 C6 1_555 1_555
C6 C1 1_555 1_555
C7 C2 1_555 1_555
C8 C3 1_555 1_555
Cs1_2 O2 1_555 1_555
Cs1A N2 1_555 1_555
Cs1A_2 N1 1_555 1_555
Cs1B O4 1_555 1_555
Cs1B_2 O4 1_555 1_555
O2_2 Cs1 1_555 1_555
O4B Cs1 1_555 1_555
O4B_2 Cs1 1_555 1_555
N1A Cs1 1_555 1_555
N2A Cs1 1_555 1_555
Cs1B O4B 1_555 1_555
Cs1B_2 O4B_2 1_555 1_555

#END
