
#######################################################################
#
#                 Cambridge Crystallographic Data Centre
#                                CCDC 
#
#######################################################################
#
# If this CIF has been generated from an entry in the Cambridge 
# Structural Database, then it will include bibliographic, chemical, 
# crystal, experimental, refinement or atomic coordinate data resulting 
# from the CCDC's data processing and validation procedures.
#
#######################################################################

data_PIRYIZ
_symmetry_cell_setting           monoclinic
_symmetry_space_group_name_H-M   'P 2/n'
_symmetry_Int_Tables_number      13
_space_group_name_Hall           '-P 2yac'
loop_
_symmetry_equiv_pos_site_id
_symmetry_equiv_pos_as_xyz
1 x,y,z
2 1/2-x,y,1/2-z
3 -x,-y,-z
4 1/2+x,-y,1/2+z
_cell_length_a                   8.484(2)
_cell_length_b                   8.919(2)
_cell_length_c                   17.887(4)
_cell_angle_alpha                90
_cell_angle_beta                 102.66(3)
_cell_angle_gamma                90
_cell_volume                     1320.58
loop_
_atom_site_label
_atom_site_type_symbol
_atom_site_fract_x
_atom_site_fract_y
_atom_site_fract_z
Cu1 Cu 0.72580(9) 0.12659(9) 0.51138(4)
P1 P 0.75314(15) 0.49351(16) 0.50684(9)
O1 O 0.6340(5) 0.3708(5) 0.4781(4)
O2 O 0.6707(5) 0.6133(7) 0.5470(4)
H1 H 0.5929 0.6482 0.5165
O3 O 0.8200(5) 0.5634(6) 0.4434(3)
O4 O 0.8936(6) 0.4329(8) 0.5683(3)
H2 H 0.8588 0.4002 0.6044
N1 N 0.8308(5) 0.0758(5) 0.4304(3)
N2 N 1.1369(5) -0.0892(5) 0.0997(3)
C1 C 0.8466(7) -0.0656(6) 0.4081(3)
H3 H 0.8150 -0.1426 0.4367
C2 C 0.9072(7) -0.1037(6) 0.3450(3)
H4 H 0.9141 -0.2039 0.3317
C3 C 0.9581(6) 0.0085(6) 0.3013(3)
C4 C 0.9448(10) 0.1534(7) 0.3256(4)
H5 H 0.9787 0.2323 0.2990
C5 C 0.8826(11) 0.1832(7) 0.3882(4)
H6 H 0.8755 0.2827 0.4027
C6 C 1.0961(9) -0.1976(7) 0.1424(4)
H7 H 1.1050 -0.2964 0.1272
C7 C 1.0405(8) -0.1707(6) 0.2086(4)
H8 H 1.0177 -0.2507 0.2379
C8 C 1.0191(5) -0.0258(5) 0.2310(3)
C9 C 1.0611(8) 0.0867(6) 0.1858(3)
H9 H 1.0502 0.1865 0.1988
C10 C 1.1190(7) 0.0520(6) 0.1217(3)
H10 H 1.1468 0.1299 0.0925
Cu1C Cu 1.22580(9) -0.12659(9) 0.01138(4)
N2C N 0.6369(5) 0.0892(5) 0.5997(3)
O5 O 0.3607(11) 0.4586(14) 0.2244(7)
O6 O 0.6367(11) 0.4853(12) 0.2925(6)
loop_
_geom_bond_atom_site_label_1
_geom_bond_atom_site_label_2
_geom_bond_site_symmetry_1
_geom_bond_site_symmetry_2
Cu1 O1 1_555 1_555
P1 O1 1_555 1_555
O2 P1 1_555 1_555
H1 O2 1_555 1_555
O3 P1 1_555 1_555
O4 P1 1_555 1_555
H2 O4 1_555 1_555
N1 Cu1 1_555 1_555
N2 C6 1_555 1_555
C1 N1 1_555 1_555
H3 C1 1_555 1_555
C2 C1 1_555 1_555
H4 C2 1_555 1_555
C3 C2 1_555 1_555
C4 C3 1_555 1_555
H5 C4 1_555 1_555
C5 N1 1_555 1_555
H6 C5 1_555 1_555
C6 H7 1_555 1_555
C7 C6 1_555 1_555
H8 C7 1_555 1_555
C8 C3 1_555 1_555
C9 C8 1_555 1_555
H9 C9 1_555 1_555
C10 N2 1_555 1_555
H10 C10 1_555 1_555
Cu1C N2 1_555 1_555
N2C Cu1 1_555 1_555
C4 C5 1_555 1_555
C7 C8 1_555 1_555
C9 C10 1_555 1_555

#END
