
#######################################################################
#
#                 Cambridge Crystallographic Data Centre
#                                CCDC 
#
#######################################################################
#
# If this CIF has been generated from an entry in the Cambridge 
# Structural Database, then it will include bibliographic, chemical, 
# crystal, experimental, refinement or atomic coordinate data resulting 
# from the CCDC's data processing and validation procedures.
#
#######################################################################

data_PITXEV
_symmetry_cell_setting           monoclinic
_symmetry_space_group_name_H-M   'I 2/a'
_symmetry_Int_Tables_number      15
_space_group_name_Hall           '-I 2ya'
loop_
_symmetry_equiv_pos_site_id
_symmetry_equiv_pos_as_xyz
1 x,y,z
2 1/2+x,1/2+y,1/2+z
3 1/2-x,y,-z
4 -x,1/2+y,1/2-z
5 -x,-y,-z
6 1/2-x,1/2-y,1/2-z
7 1/2+x,-y,z
8 x,1/2-y,1/2+z
_cell_length_a                   13.039(4)
_cell_length_b                   8.441(2)
_cell_length_c                   13.866(2)
_cell_angle_alpha                90
_cell_angle_beta                 106.18(1)
_cell_angle_gamma                90
_cell_volume                     1465.67
loop_
_atom_site_label
_atom_site_type_symbol
_atom_site_fract_x
_atom_site_fract_y
_atom_site_fract_z
Mn1 Mn 0.2500 0.35321(8) 0.00000
N1 N 0.24565(19) 0.2942(3) 0.15456(18)
N2 N 0.1190(3) 0.1627(4) -0.01421(21)
N3 N 0.3717(3) 0.5133(4) 0.10135(20)
C1 C 0.31883(24) 0.3586(3) 0.23217(23)
C2 C 0.3931(3) 0.4799(4) 0.20916(25)
C3 C 0.17676(23) 0.1874(3) 0.17050(21)
C4 C 0.0955(3) 0.1202(4) 0.07983(24)
H1 H 0.137(3) 0.087(5) -0.037(3)
H2 H 0.057(3) 0.190(5) -0.056(3)
H3 H 0.431(4) 0.502(6) 0.086(3)
H4 H 0.352(4) 0.617(6) 0.088(3)
H5 H 0.463(3) 0.442(5) 0.236(3)
H6 H 0.389(3) 0.566(5) 0.243(3)
H7 H 0.028(3) 0.159(4) 0.085(3)
H8 H 0.097(3) 0.008(4) 0.091(3)
N1B N 0.25435(19) 0.2942(3) -0.15456(18)
N2B N 0.3810(3) 0.1627(4) 0.01421(21)
N3B N 0.1283(3) 0.5133(4) -0.10135(20)
C3E C 0.32324(23) 0.3126(3) 0.32950(21)
C1E C 0.18117(24) 0.1414(3) 0.26783(23)
C1B C 0.18117(24) 0.3586(3) -0.23217(23)
C3B C 0.32324(23) 0.1874(3) -0.17050(21)
C4B C 0.4045(3) 0.1202(4) -0.07983(24)
H1B H 0.363(3) 0.087(5) 0.037(3)
H2B H 0.443(3) 0.190(5) 0.056(3)
C2B C 0.1069(3) 0.4799(4) -0.20916(25)
H3B H 0.069(4) 0.502(6) -0.086(3)
H4B H 0.148(4) 0.617(6) -0.088(3)
N1E N 0.25435(19) 0.2058(3) 0.34544(18)
C4E C 0.4045(3) 0.3798(4) 0.42017(24)
C2E C 0.1069(3) 0.0201(4) 0.29084(25)
C3G C 0.17676(23) 0.3126(3) -0.32950(21)
C1G C 0.31883(24) 0.1414(3) -0.26783(23)
H7B H 0.472(3) 0.159(4) -0.085(3)
H8B H 0.403(3) 0.008(4) -0.091(3)
H5B H 0.037(3) 0.442(5) -0.236(3)
H6B H 0.111(3) 0.566(5) -0.243(3)
Mn1E Mn 0.2500 0.14679(8) 0.50000
N2E N 0.3810(3) 0.3373(4) 0.51421(21)
H7E H 0.472(3) 0.341(4) 0.415(3)
H8E H 0.403(3) 0.492(4) 0.409(3)
N3E N 0.1283(3) -0.0133(4) 0.39865(20)
H5E H 0.037(3) 0.058(5) 0.264(3)
H6E H 0.111(3) -0.066(5) 0.257(3)
N1G N 0.24565(19) 0.2058(3) -0.34544(18)
C4G C 0.0955(3) 0.3798(4) -0.42017(24)
C2G C 0.3931(3) 0.0201(4) -0.29084(25)
H1E H 0.363(3) 0.413(5) 0.537(3)
H2E H 0.443(3) 0.310(5) 0.556(3)
H3E H 0.069(4) -0.002(6) 0.414(3)
H4E H 0.148(4) -0.117(6) 0.412(3)
Mn1E_2 Mn 0.2500 0.14679(8) -0.50000
N2G N 0.1190(3) 0.3373(4) -0.51421(21)
H7G H 0.028(3) 0.341(4) -0.415(3)
H8G H 0.097(3) 0.492(4) -0.409(3)
N3G N 0.3717(3) -0.0133(4) -0.39865(20)
H5G H 0.463(3) 0.058(5) -0.264(3)
H6G H 0.389(3) -0.066(5) -0.257(3)
H1G H 0.137(3) 0.413(5) -0.537(3)
H2G H 0.057(3) 0.310(5) -0.556(3)
H3G H 0.431(4) -0.002(6) -0.414(3)
H4G H 0.352(4) -0.117(6) -0.412(3)
N1G_2 N 0.24565(19) 0.2058(3) 0.65456(18)
N2G_2 N 0.1190(3) 0.3373(4) 0.48579(21)
N3G_2 N 0.3717(3) -0.0133(4) 0.60135(20)
H1G_2 H 0.137(3) 0.413(5) 0.463(3)
H2G_2 H 0.057(3) 0.310(5) 0.444(3)
H3G_2 H 0.431(4) -0.002(6) 0.586(3)
H4G_2 H 0.352(4) -0.117(6) 0.588(3)
Cl1 Cl 0.38591(7) 0.65813(12) -0.11832(7)
O1 O -0.1817(3) 0.1196(4) 0.1374(3)
H9 H -0.173(4) 0.101(6) 0.192(4)
H10 H -0.231(5) 0.166(7) 0.121(5)
loop_
_geom_bond_atom_site_label_1
_geom_bond_atom_site_label_2
_geom_bond_site_symmetry_1
_geom_bond_site_symmetry_2
Mn1 N1 1_555 1_555
N1 C1 1_555 1_555
N2 Mn1 1_555 1_555
N3 Mn1 1_555 1_555
C1 C2 1_555 1_555
C2 N3 1_555 1_555
C3 N1 1_555 1_555
C4 N2 1_555 1_555
O1 H9 1_555 1_555
H1 N2 1_555 1_555
H2 N2 1_555 1_555
H3 N3 1_555 1_555
H4 N3 1_555 1_555
H5 C2 1_555 1_555
H6 C2 1_555 1_555
H7 C4 1_555 1_555
H8 C4 1_555 1_555
H10 O1 1_555 1_555
N1B Mn1 1_555 1_555
N2B Mn1 1_555 1_555
N3B Mn1 1_555 1_555
C3E C1 1_555 1_555
C1E C3 1_555 1_555
C1B N1B 1_555 1_555
C3B N1B 1_555 1_555
C4B N2B 1_555 1_555
H1B N2B 1_555 1_555
H2B N2B 1_555 1_555
C2B N3B 1_555 1_555
H3B N3B 1_555 1_555
H4B N3B 1_555 1_555
N1E C3E 1_555 1_555
C4E C3E 1_555 1_555
C2E C1E 1_555 1_555
C3G C1B 1_555 1_555
C1G C3B 1_555 1_555
H7B C4B 1_555 1_555
H8B C4B 1_555 1_555
H5B C2B 1_555 1_555
H6B C2B 1_555 1_555
Mn1E N1E 1_555 1_555
N2E C4E 1_555 1_555
H7E C4E 1_555 1_555
H8E C4E 1_555 1_555
N3E C2E 1_555 1_555
H5E C2E 1_555 1_555
H6E C2E 1_555 1_555
N1G C3G 1_555 1_555
C4G C3G 1_555 1_555
C2G C1G 1_555 1_555
H1E N2E 1_555 1_555
H2E N2E 1_555 1_555
H3E N3E 1_555 1_555
H4E N3E 1_555 1_555
Mn1E_2 N1G 1_555 1_555
N2G C4G 1_555 1_555
H7G C4G 1_555 1_555
H8G C4G 1_555 1_555
N3G C2G 1_555 1_555
H5G C2G 1_555 1_555
H6G C2G 1_555 1_555
H1G N2G 1_555 1_555
H2G N2G 1_555 1_555
H3G N3G 1_555 1_555
H4G N3G 1_555 1_555
N1G_2 Mn1E 1_555 1_555
N2G_2 Mn1E 1_555 1_555
N3G_2 Mn1E 1_555 1_555
H1G_2 N2G_2 1_555 1_555
H2G_2 N2G_2 1_555 1_555
H3G_2 N3G_2 1_555 1_555
H4G_2 N3G_2 1_555 1_555
C3 C4 1_555 1_555
C1E N1E 1_555 1_555
C1B C2B 1_555 1_555
C3B C4B 1_555 1_555
C1G N1G 1_555 1_555
Mn1E N2E 1_555 1_555
Mn1E N3E 1_555 1_555
Mn1E_2 N2G 1_555 1_555
Mn1E_2 N3G 1_555 1_555

#END
