
#######################################################################
#
#                 Cambridge Crystallographic Data Centre
#                                CCDC 
#
#######################################################################
#
# If this CIF has been generated from an entry in the Cambridge 
# Structural Database, then it will include bibliographic, chemical, 
# crystal, experimental, refinement or atomic coordinate data resulting 
# from the CCDC's data processing and validation procedures.
#
#######################################################################

data_PITXIZ
_symmetry_cell_setting           orthorhombic
_symmetry_space_group_name_H-M   'I m m m'
_symmetry_Int_Tables_number      71
_space_group_name_Hall           '-I 2 2'
loop_
_symmetry_equiv_pos_site_id
_symmetry_equiv_pos_as_xyz
1 x,y,z
2 1/2+x,1/2+y,1/2+z
3 -x,y,z
4 1/2-x,1/2+y,1/2+z
5 x,-y,z
6 1/2+x,1/2-y,1/2+z
7 -x,-y,z
8 1/2-x,1/2-y,1/2+z
9 -x,-y,-z
10 1/2-x,1/2-y,1/2-z
11 x,-y,-z
12 1/2+x,1/2-y,1/2-z
13 -x,y,-z
14 1/2-x,1/2+y,1/2-z
15 x,y,-z
16 1/2+x,1/2+y,1/2-z
_cell_length_a                   5.716(1)
_cell_length_b                   8.415(1)
_cell_length_c                   17.483(1)
_cell_angle_alpha                90
_cell_angle_beta                 90
_cell_angle_gamma                90
_cell_volume                     840.935
loop_
_atom_site_label
_atom_site_type_symbol
_atom_site_fract_x
_atom_site_fract_y
_atom_site_fract_z
Cu1 Cu 0.0000 0.0000 0.18751(3)
Cl1 Cl 0.0000 0.0000 0.31583(6)
Cl2 Cl -0.5000 0.0000 0.17200(10)
N1 N 0.0000 0.0000 0.07627(21)
N2 N 0.0000 0.2394(4) 0.17049(16)
C1 C 0.0000 0.1389(3) 0.03954(17)
C2 C 0.0000 0.2838(4) 0.09038(20)
H1 H 0.133(9) 0.354(6) 0.075(3)
H2 H 0.195(12) 0.250(8) 0.1755(24)
Cl2_2 Cl 0.5000 0.0000 0.17200(10)
Cu1_2 Cu -1.0000 0.0000 0.18751(3)
Cu1L Cu -1.0000 0.0000 -0.18751(3)
Cl2H Cl -0.5000 0.0000 -0.17200(10)
Cu1L_2 Cu 0.0000 0.0000 -0.18751(3)
Cl1L Cl 0.0000 0.0000 -0.31583(6)
Cl2H_2 Cl 0.5000 0.0000 -0.17200(10)
N1L N 0.0000 0.0000 -0.07627(21)
N2L N 0.0000 0.2394(4) -0.17049(16)
C2L C 0.0000 0.2838(4) -0.09038(20)
C1L C 0.0000 0.1389(3) -0.03954(17)
N2D N 0.0000 -0.2394(4) 0.17049(16)
C2D C 0.0000 -0.2838(4) 0.09038(20)
C1D C 0.0000 -0.1389(3) 0.03954(17)
C1H C 0.0000 -0.1389(3) -0.03954(17)
H1D H 0.133(9) -0.354(6) 0.075(3)
H1F H -0.133(9) -0.354(6) 0.075(3)
H2D H 0.195(12) -0.250(8) 0.1755(24)
H2F H -0.195(12) -0.250(8) 0.1755(24)
H2B H -0.195(12) 0.250(8) 0.1755(24)
H1B H -0.133(9) 0.354(6) 0.075(3)
H1L H -0.133(9) 0.354(6) -0.075(3)
H1N H 0.133(9) 0.354(6) -0.075(3)
H2L H -0.195(12) 0.250(8) -0.1755(24)
H2N H 0.195(12) 0.250(8) -0.1755(24)
N2H N 0.0000 -0.2394(4) -0.17049(16)
C2H C 0.0000 -0.2838(4) -0.09038(20)
H1H H -0.133(9) -0.354(6) -0.075(3)
H1J H 0.133(9) -0.354(6) -0.075(3)
H2H H -0.195(12) -0.250(8) -0.1755(24)
H2J H 0.195(12) -0.250(8) -0.1755(24)
O1 O 0.5000 0.5000 0.00000
O2 O 0.5000 0.1834(20) 0.00000
O3 O 0.0000 0.5000 0.171(4)
loop_
_geom_bond_atom_site_label_1
_geom_bond_atom_site_label_2
_geom_bond_site_symmetry_1
_geom_bond_site_symmetry_2
Cu1 Cl1 1_555 1_555
Cl2 Cu1 1_555 1_555
N1 Cu1 1_555 1_555
N2 Cu1 1_555 1_555
C1 N1 1_555 1_555
C2 N2 1_555 1_555
H1 C2 1_555 1_555
H2 N2 1_555 1_555
Cl2_2 Cu1 1_555 1_555
Cu1_2 Cl2 1_555 1_555
Cu1L Cl2H 1_555 1_555
Cl2H Cu1L_2 1_555 1_555
Cu1L_2 Cl1L 1_555 1_555
Cl2H_2 Cu1L_2 1_555 1_555
N1L Cu1L_2 1_555 1_555
N2L Cu1L_2 1_555 1_555
C2L N2L 1_555 1_555
C1L C1 1_555 1_555
N2D Cu1 1_555 1_555
C2D N2D 1_555 1_555
C1D N1 1_555 1_555
C1H N1L 1_555 1_555
H1D C2D 1_555 1_555
H1F C2D 1_555 1_555
H2D N2D 1_555 1_555
H2F N2D 1_555 1_555
H2B N2 1_555 1_555
H1B C2 1_555 1_555
H1L C2L 1_555 1_555
H1N C2L 1_555 1_555
H2L N2L 1_555 1_555
H2N N2L 1_555 1_555
N2H Cu1L_2 1_555 1_555
C2H C1H 1_555 1_555
H1H C2H 1_555 1_555
H1J C2H 1_555 1_555
H2H N2H 1_555 1_555
H2J N2H 1_555 1_555
C1 C2 1_555 1_555
N1L C1L 1_555 1_555
C2L C1L 1_555 1_555
C2D C1D 1_555 1_555
C1D C1H 1_555 1_555
N2H C2H 1_555 1_555

#END
