
#######################################################################
#
#                 Cambridge Crystallographic Data Centre
#                                CCDC 
#
#######################################################################
#
# If this CIF has been generated from an entry in the Cambridge 
# Structural Database, then it will include bibliographic, chemical, 
# crystal, experimental, refinement or atomic coordinate data resulting 
# from the CCDC's data processing and validation procedures.
#
#######################################################################

data_PIVHOS
_symmetry_cell_setting           monoclinic
_symmetry_space_group_name_H-M   'P 2/c'
_symmetry_Int_Tables_number      13
_space_group_name_Hall           '-P 2yc'
loop_
_symmetry_equiv_pos_site_id
_symmetry_equiv_pos_as_xyz
1 x,y,z
2 -x,y,1/2-z
3 -x,-y,-z
4 x,-y,1/2+z
_cell_length_a                   10.060(2)
_cell_length_b                   11.396(2)
_cell_length_c                   22.156(6)
_cell_angle_alpha                90
_cell_angle_beta                 109.22(3)
_cell_angle_gamma                90
_cell_volume                     2398.47
loop_
_atom_site_label
_atom_site_type_symbol
_atom_site_fract_x
_atom_site_fract_y
_atom_site_fract_z
C1 C 0.1675(2) 0.74558(15) 0.15772(8)
C2 C 0.1459(2) 0.80560(16) 0.09424(9)
C3 C 0.0250(2) 0.78515(17) 0.04293(10)
H1 H -0.0449 0.7356 0.0471
C4 C 0.0101(2) 0.83972(17) -0.01465(9)
C5 C 0.1077(2) 0.91695(17) -0.02280(10)
H2 H 0.0941 0.9548 -0.0616
C6 C 0.2263(2) 0.93560(18) 0.02897(11)
C7 C 0.2495(2) 0.87971(17) 0.08713(10)
H3 H 0.3328 0.8916 0.1208
C8 C 0.3351(2) 0.70139(15) 0.34660(9)
C9 C 0.3634(2) 0.66393(15) 0.41589(9)
C10 C 0.4830(2) 0.70023(16) 0.46384(9)
H4 H 0.5495 0.7469 0.4545
C11 C 0.5024(2) 0.66583(18) 0.52618(9)
C12 C 0.4105(2) 0.59352(17) 0.54265(10)
H5 H 0.4263 0.5705 0.5847
C13 C 0.2940(2) 0.55717(17) 0.49352(10)
C14 C 0.2670(2) 0.59276(17) 0.43096(9)
H6 H 0.1849 0.5692 0.3993
C15 C 0.0068(2) 0.44899(16) 0.19963(9)
H7 H 0.0147 0.4899 0.1646
C16 C 0.0029(2) 0.32801(16) 0.19697(9)
H8 H 0.0022 0.2893 0.1599
C17 C 0.0000 0.2645(2) 0.2500
C18 C 0.0000 0.1337(2) 0.2500
C19 C 0.0778(2) 0.07038(15) 0.30357(9)
H9 H 0.1318 0.1093 0.3404
C20 C 0.0744(2) -0.05063(16) 0.30175(9)
H10 H 0.1262 -0.0916 0.3382
C21 C 0.3990(2) 0.98551(17) 0.26241(11)
H11 H 0.3277 0.9446 0.2714
C22 C 0.3953(2) 1.10628(17) 0.26260(11)
H12 H 0.3222 1.1450 0.2712
C23 C 0.5000 1.1699(2) 0.2500
C24 C 0.5000 1.3005(2) 0.2500
C25 C 0.6225(2) 1.36361(18) 0.27355(12)
H13 H 0.7082 1.3249 0.2902
C26 C 0.6180(2) 1.48466(18) 0.27244(12)
H14 H 0.7025 1.5253 0.2883
Co1 Co 0.0000 0.69908(3) 0.2500
Co2 Co 0.5000 0.73552(3) 0.2500
N1 N 0.0000 0.51054(17) 0.2500
N2 N 0.0000 -0.11221(17) 0.2500
N3 N 0.5000 0.92438(18) 0.2500
N4 N 0.5000 1.54658(18) 0.2500
N5 N -0.1155(2) 0.81481(18) -0.07007(9)
N6 N 0.3314(3) 1.01882(19) 0.02175(12)
N7 N 0.6269(2) 0.70812(18) 0.57792(9)
N8 N 0.1938(2) 0.47882(18) 0.50877(10)
O1 O 0.28979(15) 0.73931(13) 0.19467(7)
O2 O 0.05829(14) 0.70741(11) 0.16699(6)
O3 O -0.1941(3) 0.7397(3) -0.06533(11)
O4 O -0.1321(2) 0.87021(16) -0.11909(8)
O5 O 0.3036(3) 1.0717(2) -0.02870(12)
O6 O 0.4399(3) 1.0303(2) 0.06581(12)
O7 O 0.44042(15) 0.73412(12) 0.33305(6)
O8 O 0.21075(15) 0.69570(13) 0.31121(7)
O9 O 0.0940(2) 0.4422(2) 0.46452(10)
O10 O 0.2152(2) 0.45332(19) 0.56443(9)
O11 O 0.7078(3) 0.7700(3) 0.56434(10)
O12 O 0.6426(2) 0.6784(2) 0.63205(8)
C1A C -0.1675(2) 0.74558(15) 0.34228(8)
C2A C -0.1459(2) 0.80560(16) 0.40576(9)
C3A C -0.0250(2) 0.78515(17) 0.45707(10)
H1A H 0.0449 0.7356 0.4529
C4A C -0.0101(2) 0.83972(17) 0.51465(9)
C5A C -0.1077(2) 0.91695(17) 0.52280(10)
H2A H -0.0941 0.9548 0.5616
C6A C -0.2263(2) 0.93560(18) 0.47103(11)
C7A C -0.2495(2) 0.87971(17) 0.41287(10)
H3A H -0.3328 0.8916 0.3792
C8A C -0.3351(2) 0.70139(15) 0.15340(9)
C9A C -0.3634(2) 0.66393(15) 0.08411(9)
C10A C -0.4830(2) 0.70023(16) 0.03616(9)
H4A H -0.5495 0.7469 0.0455
C11A C -0.5024(2) 0.66583(18) -0.02618(9)
C12A C -0.4105(2) 0.59352(17) -0.04265(10)
H5A H -0.4263 0.5705 -0.0847
C13A C -0.2940(2) 0.55717(17) 0.00648(10)
C14A C -0.2670(2) 0.59276(17) 0.06904(9)
H6A H -0.1849 0.5692 0.1007
C15A C -0.0068(2) 0.44899(16) 0.30037(9)
H7A H -0.0147 0.4899 0.3354
C16A C -0.0029(2) 0.32801(16) 0.30303(9)
H8A H -0.0022 0.2893 0.3401
C19A C -0.0778(2) 0.07038(15) 0.19643(9)
H9A H -0.1318 0.1093 0.1596
C20A C -0.0744(2) -0.05063(16) 0.19825(9)
H10A H -0.1262 -0.0916 0.1618
C21A C 0.6010(2) 0.98551(17) 0.23759(11)
H11A H 0.6723 0.9446 0.2286
C22A C 0.6047(2) 1.10628(17) 0.23740(11)
H12A H 0.6778 1.1450 0.2288
C25A C 0.3775(2) 1.36361(18) 0.22645(12)
H13A H 0.2918 1.3249 0.2098
C26A C 0.3820(2) 1.48466(18) 0.22756(12)
H14A H 0.2975 1.5253 0.2117
Co1_2 Co 0.0000 -0.30092(3) 0.2500
Co2_2 Co 0.5000 1.73552(3) 0.2500
Co2_3 Co -0.5000 0.73552(3) 0.2500
N2_2 N 0.0000 0.88779(17) 0.2500
N4_2 N 0.5000 0.54658(18) 0.2500
N5A N 0.1155(2) 0.81481(18) 0.57007(9)
N6A N -0.3314(3) 1.01882(19) 0.47825(12)
N7A N -0.6269(2) 0.70812(18) -0.07792(9)
N8A N -0.1938(2) 0.47882(18) -0.00877(10)
O1A O -0.28979(15) 0.73931(13) 0.30533(7)
O1A_2 O 0.71021(15) 0.73931(13) 0.30533(7)
O2A O -0.05829(14) 0.70741(11) 0.33301(6)
O3A O 0.1941(3) 0.7397(3) 0.56533(11)
O4A O 0.1321(2) 0.87021(16) 0.61909(8)
O5A O -0.3036(3) 1.0717(2) 0.52870(12)
O6A O -0.4399(3) 1.0303(2) 0.43419(12)
O7A O -0.44042(15) 0.73412(12) 0.16695(6)
O7A_2 O 0.55958(15) 0.73412(12) 0.16695(6)
O8A O -0.21075(15) 0.69570(13) 0.18879(7)
O9A O -0.0940(2) 0.4422(2) 0.03548(10)
O10A O -0.2152(2) 0.45332(19) -0.06443(9)
O11A O -0.7078(3) 0.7700(3) -0.06434(10)
O12A O -0.6426(2) 0.6784(2) -0.13205(8)
loop_
_geom_bond_atom_site_label_1
_geom_bond_atom_site_label_2
_geom_bond_site_symmetry_1
_geom_bond_site_symmetry_2
C1 C2 1_555 1_555
C2 C3 1_555 1_555
C3 H1 1_555 1_555
C4 C3 1_555 1_555
C5 C4 1_555 1_555
H2 C5 1_555 1_555
C6 C5 1_555 1_555
C7 C2 1_555 1_555
H3 C7 1_555 1_555
C8 C9 1_555 1_555
C9 C10 1_555 1_555
C10 H4 1_555 1_555
C11 C10 1_555 1_555
C12 C11 1_555 1_555
H5 C12 1_555 1_555
C13 C12 1_555 1_555
C14 C9 1_555 1_555
H6 C14 1_555 1_555
C15 H7 1_555 1_555
C16 C15 1_555 1_555
H8 C16 1_555 1_555
C17 C16 1_555 1_555
C18 C17 1_555 1_555
C19 C18 1_555 1_555
H9 C19 1_555 1_555
C20 C19 1_555 1_555
H10 C20 1_555 1_555
C21 H11 1_555 1_555
C22 C21 1_555 1_555
H12 C22 1_555 1_555
C23 C22 1_555 1_555
C24 C23 1_555 1_555
C25 C24 1_555 1_555
H13 C25 1_555 1_555
C26 C25 1_555 1_555
H14 C26 1_555 1_555
Co1 N1 1_555 1_555
Co2 N3 1_555 1_555
N1 C15 1_555 1_555
N2 C20 1_555 1_555
N3 C21 1_555 1_555
N4 C26 1_555 1_555
N5 C4 1_555 1_555
N6 C6 1_555 1_555
N7 C11 1_555 1_555
N8 C13 1_555 1_555
O1 C1 1_555 1_555
O2 C1 1_555 1_555
O3 N5 1_555 1_555
O4 N5 1_555 1_555
O5 N6 1_555 1_555
O6 N6 1_555 1_555
O7 C8 1_555 1_555
O8 C8 1_555 1_555
O9 N8 1_555 1_555
O10 N8 1_555 1_555
O11 N7 1_555 1_555
O12 N7 1_555 1_555
C1A C2A 1_555 1_555
C2A C3A 1_555 1_555
C3A H1A 1_555 1_555
C4A C3A 1_555 1_555
C5A C4A 1_555 1_555
H2A C5A 1_555 1_555
C6A C5A 1_555 1_555
C7A C2A 1_555 1_555
H3A C7A 1_555 1_555
C8A C9A 1_555 1_555
C9A C10A 1_555 1_555
C10A H4A 1_555 1_555
C11A C10A 1_555 1_555
C12A C11A 1_555 1_555
H5A C12A 1_555 1_555
C13A C12A 1_555 1_555
C14A C9A 1_555 1_555
H6A C14A 1_555 1_555
C15A N1 1_555 1_555
H7A C15A 1_555 1_555
C16A C17 1_555 1_555
H8A C16A 1_555 1_555
C19A C18 1_555 1_555
H9A C19A 1_555 1_555
C20A N2 1_555 1_555
H10A C20A 1_555 1_555
C21A N3 1_555 1_555
H11A C21A 1_555 1_555
C22A C23 1_555 1_555
H12A C22A 1_555 1_555
C25A C24 1_555 1_555
H13A C25A 1_555 1_555
C26A N4 1_555 1_555
H14A C26A 1_555 1_555
Co1_2 N2 1_555 1_555
Co2_2 N4 1_555 1_555
Co2_3 O1A 1_555 1_555
N2_2 Co1 1_555 1_555
N4_2 Co2 1_555 1_555
N5A C4A 1_555 1_555
N6A C6A 1_555 1_555
N7A C11A 1_555 1_555
N8A C13A 1_555 1_555
O1A C1A 1_555 1_555
O1A_2 Co2 1_555 1_555
O2A Co1 1_555 1_555
O3A N5A 1_555 1_555
O4A N5A 1_555 1_555
O5A N6A 1_555 1_555
O6A N6A 1_555 1_555
O7A C8A 1_555 1_555
O7A_2 Co2 1_555 1_555
O8A Co1 1_555 1_555
O9A N8A 1_555 1_555
O10A N8A 1_555 1_555
O11A N7A 1_555 1_555
O12A N7A 1_555 1_555
C6 C7 1_555 1_555
C13 C14 1_555 1_555
Co1 O2 1_555 1_555
Co1 O8 1_555 1_555
Co2 O1 1_555 1_555
Co2 O7 1_555 1_555
C1A O2A 1_555 1_555
C6A C7A 1_555 1_555
C8A O8A 1_555 1_555
C13A C14A 1_555 1_555
C15A C16A 1_555 1_555
C19A C20A 1_555 1_555
C21A C22A 1_555 1_555
C25A C26A 1_555 1_555
Co2_3 O7A 1_555 1_555

#END
