
#######################################################################
#
#                 Cambridge Crystallographic Data Centre
#                                CCDC 
#
#######################################################################
#
# If this CIF has been generated from an entry in the Cambridge 
# Structural Database, then it will include bibliographic, chemical, 
# crystal, experimental, refinement or atomic coordinate data resulting 
# from the CCDC's data processing and validation procedures.
#
#######################################################################

data_PIVJUA
_symmetry_cell_setting           monoclinic
_symmetry_space_group_name_H-M   'P 21/c'
_symmetry_Int_Tables_number      14
_space_group_name_Hall           '-P 2ybc'
loop_
_symmetry_equiv_pos_site_id
_symmetry_equiv_pos_as_xyz
1 x,y,z
2 -x,1/2+y,1/2-z
3 -x,-y,-z
4 x,1/2-y,1/2+z
_cell_length_a                   6.810(4)
_cell_length_b                   8.680(5)
_cell_length_c                   16.184(10)
_cell_angle_alpha                90
_cell_angle_beta                 92.790(8)
_cell_angle_gamma                90
_cell_volume                     955.515
loop_
_atom_site_label
_atom_site_type_symbol
_atom_site_fract_x
_atom_site_fract_y
_atom_site_fract_z
C1 C 0.2504(8) 0.1324(6) 0.8320(3)
C2 C 0.2385(8) 0.1825(7) 0.7515(3)
H1 H 0.2301 0.2874 0.7402
C3 C 0.2390(8) 0.0754(7) 0.6857(3)
H2 H 0.2265 0.1083 0.6310
C4 C 0.2581(8) -0.0768(7) 0.7042(3)
H3 H 0.2640 -0.1483 0.6616
C5 C 0.2692(7) -0.1274(7) 0.7863(3)
H4 H 0.2754 -0.2319 0.7988
Cl1 Cl 0.21826(19) 0.00037(16) 1.11435(8)
Cu1 Cu 0.5000 0.0000 1.0000
Cu2 Cu 0.0000 0.0000 1.0000
N1 N 0.2708(6) -0.0244(5) 0.8451(3)
O1 O 0.4447(5) 0.2136(4) 0.9710(2)
O2 O 0.2469(5) 0.4126(4) 0.8877(2)
H5 H 0.2384 0.4742 0.9279
O3 O 0.0725(5) 0.2140(4) 0.9704(2)
O4 O 0.2795(5) -0.0725(4) 0.9242(2)
P1 P 0.2521(2) 0.24941(16) 0.92405(8)
C1B C 0.7496(8) -0.1324(6) 1.1680(3)
C2B C 0.7615(8) -0.1825(7) 1.2485(3)
H1B H 0.7699 -0.2874 1.2598
C3B C 0.7610(8) -0.0754(7) 1.3143(3)
H2B H 0.7735 -0.1083 1.3690
C4B C 0.7419(8) 0.0768(7) 1.2958(3)
H3B H 0.7360 0.1483 1.3384
C5B C 0.7308(7) 0.1274(7) 1.2137(3)
H4B H 0.7246 0.2319 1.2012
Cl1B Cl 0.78174(19) -0.00037(16) 0.88565(8)
Cl1B_2 Cl -0.21826(19) -0.00037(16) 0.88565(8)
Cu2_2 Cu 1.0000 0.0000 1.0000
N1B N 0.7292(6) 0.0244(5) 1.1549(3)
O1B O 0.5553(5) -0.2136(4) 1.0290(2)
O2B O 0.7531(5) -0.4126(4) 1.1123(2)
H5B H 0.7616 -0.4742 1.0721
O3B O 0.9275(5) -0.2140(4) 1.0296(2)
O3B_2 O -0.0725(5) -0.2140(4) 1.0296(2)
O4B O 0.7205(5) 0.0725(4) 1.0758(2)
O4B_2 O -0.2795(5) 0.0725(4) 1.0758(2)
P1B P 0.7479(2) -0.24941(16) 1.07595(8)
H6 H 0.1427 -0.3838 1.0315
O5 O 0.2386(5) -0.3950(4) 0.9993(2)
H7 H 0.3403 -0.3813 1.0298
loop_
_geom_bond_atom_site_label_1
_geom_bond_atom_site_label_2
_geom_bond_site_symmetry_1
_geom_bond_site_symmetry_2
C1 C2 1_555 1_555
C2 H1 1_555 1_555
C3 C2 1_555 1_555
H2 C3 1_555 1_555
C4 C3 1_555 1_555
H3 C4 1_555 1_555
C5 C4 1_555 1_555
H4 C5 1_555 1_555
Cl1 Cu1 1_555 1_555
Cu1 O1 1_555 1_555
Cu2 Cl1 1_555 1_555
N1 C1 1_555 1_555
O1 P1 1_555 1_555
O2 H5 1_555 1_555
O3 Cu2 1_555 1_555
O4 Cu1 1_555 1_555
H6 O5 1_555 1_555
O5 H7 1_555 1_555
P1 C1 1_555 1_555
C1B C2B 1_555 1_555
C2B H1B 1_555 1_555
C3B C2B 1_555 1_555
H2B C3B 1_555 1_555
C4B C3B 1_555 1_555
H3B C4B 1_555 1_555
C5B C4B 1_555 1_555
H4B C5B 1_555 1_555
Cl1B Cu1 1_555 1_555
Cl1B_2 Cu2 1_555 1_555
Cu2_2 Cl1B 1_555 1_555
N1B C1B 1_555 1_555
O1B Cu1 1_555 1_555
O2B H5B 1_555 1_555
O3B Cu2_2 1_555 1_555
O3B_2 Cu2 1_555 1_555
O4B Cu1 1_555 1_555
O4B_2 Cu2 1_555 1_555
P1B C1B 1_555 1_555
C5 N1 1_555 1_555
Cu2 O4 1_555 1_555
N1 O4 1_555 1_555
O2 P1 1_555 1_555
O3 P1 1_555 1_555
C5B N1B 1_555 1_555
Cu2_2 O4B 1_555 1_555
N1B O4B 1_555 1_555
O1B P1B 1_555 1_555
O2B P1B 1_555 1_555
O3B P1B 1_555 1_555

#END
