
#######################################################################
#
#                 Cambridge Crystallographic Data Centre
#                                CCDC 
#
#######################################################################
#
# If this CIF has been generated from an entry in the Cambridge 
# Structural Database, then it will include bibliographic, chemical, 
# crystal, experimental, refinement or atomic coordinate data resulting 
# from the CCDC's data processing and validation procedures.
#
#######################################################################

data_PIVKAH
_symmetry_cell_setting           monoclinic
_symmetry_space_group_name_H-M   'P 21/c'
_symmetry_Int_Tables_number      14
_space_group_name_Hall           '-P 2ybc'
loop_
_symmetry_equiv_pos_site_id
_symmetry_equiv_pos_as_xyz
1 x,y,z
2 -x,1/2+y,1/2-z
3 -x,-y,-z
4 x,1/2-y,1/2+z
_cell_length_a                   6.9126(14)
_cell_length_b                   8.7568(18)
_cell_length_c                   16.348(3)
_cell_angle_alpha                90
_cell_angle_beta                 92.81(3)
_cell_angle_gamma                90
_cell_volume                     988.391
loop_
_atom_site_label
_atom_site_type_symbol
_atom_site_fract_x
_atom_site_fract_y
_atom_site_fract_z
O1 O 0.2399(6) 0.6124(5) 1.0056(3)
H1 H 0.3416 0.6260 1.0361
H2 H 0.1409 0.6182 1.0343
Br1 Br 0.22496(10) -0.01426(7) 1.12380(4)
Cu1 Cu 0.0000 0.0000 1.0000
Cu2 Cu 0.5000 0.0000 1.0000
P1 P 0.2503(3) 0.2502(2) 0.93145(11)
N1 N 0.2693(8) -0.0127(6) 0.8486(3)
O2 O 0.4389(7) 0.2137(5) 0.9770(3)
O3 O 0.2443(7) 0.4122(5) 0.8978(3)
H3 H 0.2357 0.4737 0.9380
O4 O 0.0738(7) 0.2096(5) 0.9780(3)
O5 O 0.2778(7) -0.0705(5) 0.9270(3)
C1 C 0.2455(9) 0.1376(7) 0.8381(4)
C2 C 0.2313(11) 0.1947(8) 0.7590(4)
H4 H 0.2189 0.2991 0.7498
C3 C 0.2359(12) 0.0929(9) 0.6932(5)
H5 H 0.2290 0.1283 0.6395
C4 C 0.2509(12) -0.0609(9) 0.7098(5)
H6 H 0.2475 -0.1302 0.6667
C5 C 0.2703(10) -0.1128(7) 0.7873(4)
H7 H 0.2843 -0.2167 0.7978
Br1B Br -0.22496(10) 0.01426(7) 0.87620(4)
Br1B_2 Br 0.77504(10) 0.01426(7) 0.87620(4)
Cu2_2 Cu -0.5000 0.0000 1.0000
P1B P -0.2503(3) -0.2502(2) 1.06855(11)
N1B N -0.2693(8) 0.0127(6) 1.1514(3)
O2B O -0.4389(7) -0.2137(5) 1.0230(3)
O2B_2 O 0.5611(7) -0.2137(5) 1.0230(3)
O3B O -0.2443(7) -0.4122(5) 1.1022(3)
H3B H -0.2357 -0.4737 1.0620
O4B O -0.0738(7) -0.2096(5) 1.0220(3)
O5B O -0.2778(7) 0.0705(5) 1.0730(3)
O5B_2 O 0.7222(7) 0.0705(5) 1.0730(3)
C1B C -0.2455(9) -0.1376(7) 1.1619(4)
C2B C -0.2313(11) -0.1947(8) 1.2410(4)
H4B H -0.2189 -0.2991 1.2502
C3B C -0.2359(12) -0.0929(9) 1.3068(5)
H5B H -0.2290 -0.1283 1.3605
C4B C -0.2509(12) 0.0609(9) 1.2902(5)
H6B H -0.2475 0.1302 1.3333
C5B C -0.2703(10) 0.1128(7) 1.2127(4)
H7B H -0.2843 0.2167 1.2022
loop_
_geom_bond_atom_site_label_1
_geom_bond_atom_site_label_2
_geom_bond_site_symmetry_1
_geom_bond_site_symmetry_2
O1 H1 1_555 1_555
H2 O1 1_555 1_555
Br1 Cu1 1_555 1_555
Cu1 O4 1_555 1_555
Cu2 Br1 1_555 1_555
P1 O2 1_555 1_555
N1 O5 1_555 1_555
O2 Cu2 1_555 1_555
O3 P1 1_555 1_555
H3 O3 1_555 1_555
O4 P1 1_555 1_555
O5 Cu1 1_555 1_555
C1 P1 1_555 1_555
C2 C1 1_555 1_555
H4 C2 1_555 1_555
C3 C2 1_555 1_555
H5 C3 1_555 1_555
C4 C3 1_555 1_555
H6 C4 1_555 1_555
C5 N1 1_555 1_555
H7 C5 1_555 1_555
Br1B Cu1 1_555 1_555
Br1B_2 Cu2 1_555 1_555
Cu2_2 Br1B 1_555 1_555
P1B O2B 1_555 1_555
N1B O5B 1_555 1_555
O2B Cu2_2 1_555 1_555
O2B_2 Cu2 1_555 1_555
O3B P1B 1_555 1_555
H3B O3B 1_555 1_555
O4B Cu1 1_555 1_555
O5B Cu1 1_555 1_555
O5B_2 Cu2 1_555 1_555
C1B P1B 1_555 1_555
C2B C1B 1_555 1_555
H4B C2B 1_555 1_555
C3B C2B 1_555 1_555
H5B C3B 1_555 1_555
C4B C3B 1_555 1_555
H6B C4B 1_555 1_555
C5B N1B 1_555 1_555
H7B C5B 1_555 1_555
Cu2 O5 1_555 1_555
N1 C1 1_555 1_555
C4 C5 1_555 1_555
Cu2_2 O5B 1_555 1_555
P1B O4B 1_555 1_555
N1B C1B 1_555 1_555
C4B C5B 1_555 1_555

#END
