
#######################################################################
#
#                 Cambridge Crystallographic Data Centre
#                                CCDC 
#
#######################################################################
#
# If this CIF has been generated from an entry in the Cambridge 
# Structural Database, then it will include bibliographic, chemical, 
# crystal, experimental, refinement or atomic coordinate data resulting 
# from the CCDC's data processing and validation procedures.
#
#######################################################################

data_PIVNEO
_symmetry_cell_setting           monoclinic
_symmetry_space_group_name_H-M   'P 21/n'
_symmetry_Int_Tables_number      14
_space_group_name_Hall           '-P 2yn'
loop_
_symmetry_equiv_pos_site_id
_symmetry_equiv_pos_as_xyz
1 x,y,z
2 1/2-x,1/2+y,1/2-z
3 -x,-y,-z
4 1/2+x,1/2-y,1/2+z
_cell_length_a                   12.821(3)
_cell_length_b                   7.2431(14)
_cell_length_c                   23.237(5)
_cell_angle_alpha                90.00
_cell_angle_beta                 98.38(3)
_cell_angle_gamma                90.00
_cell_volume                     2134.84
loop_
_atom_site_label
_atom_site_type_symbol
_atom_site_fract_x
_atom_site_fract_y
_atom_site_fract_z
Cu1 Cu 0.26667(2) 0.27945(4) 0.146515(13)
N1 N 0.41607(16) 0.3636(3) 0.15269(9)
N2 N 0.47944(16) 0.2424(3) 0.12743(9)
N3 N 0.32847(16) 0.0752(3) 0.10851(9)
N4 N 0.16114(16) -0.0361(3) 0.09329(9)
N5 N 0.13839(16) 0.1226(3) 0.12216(9)
N6 N 0.20135(18) 0.5053(3) 0.16739(10)
N7 N 0.19557(18) 0.5642(4) 0.21434(10)
N8 N 0.1869(3) 0.6296(5) 0.25877(12)
C1 C 0.5804(2) 0.3100(4) 0.13133(12)
C2 C 0.5797(2) 0.4753(4) 0.15946(12)
H1 H 0.6368 0.5547 0.1684
C3 C 0.4778(2) 0.5040(4) 0.17253(11)
C4 C 0.6685(2) 0.2140(4) 0.10890(15)
H2 H 0.7311 0.2879 0.1165
H3 H 0.6506 0.1952 0.0677
H4 H 0.6807 0.0968 0.1280
C5 C 0.4387(2) 0.6598(4) 0.20547(13)
H5 H 0.3651 0.6422 0.2077
H6 H 0.4483 0.7739 0.1859
H7 H 0.4775 0.6634 0.2441
C6 C 0.43136(19) 0.0795(4) 0.10371(11)
C7 C 0.4789(2) -0.0633(4) 0.07791(12)
H8 H 0.5500 -0.0599 0.0741
C8 C 0.4156(2) -0.2121(4) 0.05796(12)
H9 H 0.4457 -0.3117 0.0412
C9 C 0.3087(2) -0.2170(4) 0.06230(11)
H10 H 0.2667 -0.3174 0.0491
C10 C 0.26788(19) -0.0653(4) 0.08726(11)
C11 C 0.0703(2) -0.1252(4) 0.07000(12)
C12 C -0.0103(2) -0.0220(4) 0.08528(12)
H11 H -0.0818 -0.0480 0.0761
C13 C 0.0337(2) 0.1298(4) 0.11715(11)
C14 C 0.0652(2) -0.2981(4) 0.03586(14)
H12 H -0.0071 -0.3290 0.0227
H13 H 0.0980 -0.3961 0.0598
H14 H 0.1015 -0.2815 0.0029
C15 C -0.0222(2) 0.2844(4) 0.14213(13)
H15 H 0.0279 0.3583 0.1669
H16 H -0.0732 0.2350 0.1644
H17 H -0.0574 0.3595 0.1112
Cu1A Cu 0.23333(2) 0.77945(4) 0.353485(13)
N8A N 0.3131(3) 0.1296(5) 0.24123(12)
Cl1 Cl 0.26752(5) 0.31982(9) -0.02349(3)
O1 O 0.2098(2) 0.4141(4) -0.07171(10)
O2 O 0.37226(17) 0.3902(4) -0.01058(11)
O3 O 0.21394(18) 0.3467(3) 0.02608(9)
O4 O 0.27146(18) 0.1265(3) -0.03536(11)
N9 N 0.6647(3) -0.0363(6) 0.23812(17)
C16 C 0.6379(3) 0.0843(6) 0.26343(17)
C17 C 0.6035(4) 0.2343(6) 0.29626(18)
H18 H 0.6265 0.2138 0.3370
H19 H 0.5279 0.2417 0.2893
H20 H 0.6330 0.3477 0.2846
loop_
_geom_bond_atom_site_label_1
_geom_bond_atom_site_label_2
_geom_bond_site_symmetry_1
_geom_bond_site_symmetry_2
Cu1 N1 1_555 1_555
Cl1 O1 1_555 1_555
O2 Cl1 1_555 1_555
O3 Cl1 1_555 1_555
O4 Cl1 1_555 1_555
N1 N2 1_555 1_555
N2 C1 1_555 1_555
N3 Cu1 1_555 1_555
N4 N5 1_555 1_555
N5 Cu1 1_555 1_555
N6 Cu1 1_555 1_555
N7 N6 1_555 1_555
N8 N7 1_555 1_555
N9 C16 1_555 1_555
C1 C2 1_555 1_555
C2 H1 1_555 1_555
C3 N1 1_555 1_555
C4 C1 1_555 1_555
H2 C4 1_555 1_555
H3 C4 1_555 1_555
H4 C4 1_555 1_555
C5 C3 1_555 1_555
H5 C5 1_555 1_555
H6 C5 1_555 1_555
H7 C5 1_555 1_555
C6 N2 1_555 1_555
C7 C6 1_555 1_555
H8 C7 1_555 1_555
C8 C7 1_555 1_555
H9 C8 1_555 1_555
C9 C8 1_555 1_555
H10 C9 1_555 1_555
C10 N3 1_555 1_555
C11 N4 1_555 1_555
C12 C11 1_555 1_555
H11 C12 1_555 1_555
C13 N5 1_555 1_555
C14 C11 1_555 1_555
H12 C14 1_555 1_555
H13 C14 1_555 1_555
H14 C14 1_555 1_555
C15 C13 1_555 1_555
H15 C15 1_555 1_555
H16 C15 1_555 1_555
H17 C15 1_555 1_555
C16 C17 1_555 1_555
C17 H18 1_555 1_555
H19 C17 1_555 1_555
H20 C17 1_555 1_555
Cu1A N8 1_555 1_555
N8A Cu1 1_555 1_555
N3 C6 1_555 1_555
N4 C10 1_555 1_555
C2 C3 1_555 1_555
C9 C10 1_555 1_555
C12 C13 1_555 1_555

#END
