
#######################################################################
#
#                 Cambridge Crystallographic Data Centre
#                                CCDC 
#
#######################################################################
#
# If this CIF has been generated from an entry in the Cambridge 
# Structural Database, then it will include bibliographic, chemical, 
# crystal, experimental, refinement or atomic coordinate data resulting 
# from the CCDC's data processing and validation procedures.
#
#######################################################################

data_PIVTUK
_symmetry_cell_setting           monoclinic
_symmetry_space_group_name_H-M   'P 21/c'
_symmetry_Int_Tables_number      14
_space_group_name_Hall           '-P 2ybc'
loop_
_symmetry_equiv_pos_site_id
_symmetry_equiv_pos_as_xyz
1 x,y,z
2 -x,1/2+y,1/2-z
3 -x,-y,-z
4 x,1/2-y,1/2+z
_cell_length_a                   11.5723(2)
_cell_length_b                   8.3874(2)
_cell_length_c                   8.3067(1)
_cell_angle_alpha                90
_cell_angle_beta                 93.599(1)
_cell_angle_gamma                90
_cell_volume                     804.671
loop_
_atom_site_label
_atom_site_type_symbol
_atom_site_fract_x
_atom_site_fract_y
_atom_site_fract_z
Fe1 Fe 0.5000 0.5000 0.0000
O1 O 0.02606(11) 0.00724(13) 0.21255(18)
N1 N 0.35656(9) 0.32493(12) 0.01334(13)
C1 C 0.25647(11) 0.36394(15) 0.07888(18)
H1 H 0.2416 0.4733 0.0990
C2 C 0.17421(11) 0.25253(15) 0.11832(18)
H2 H 0.1051 0.2855 0.1646
C3 C 0.19439(10) 0.09115(14) 0.08902(15)
C4 C 0.29565(11) 0.05039(15) 0.01700(16)
H3 H 0.3114 -0.0578 -0.0076
C5 C 0.37364(11) 0.16971(14) -0.01867(15)
H4 H 0.4423 0.1401 -0.0681
C6 C 0.10866(12) -0.03277(16) 0.13786(17)
C7 C 0.12767(12) -0.20354(16) 0.0917(2)
H5 H 0.0648 -0.2695 0.1292
H6 H 0.2018 -0.2407 0.1416
H7 H 0.1288 -0.2118 -0.0259
N2 N 0.44091(11) 0.61397(14) 0.21440(15)
N3 N 0.41670(9) 0.72990(12) 0.28291(12)
N4 N 0.38889(10) 0.84278(14) 0.35651(15)
Fe1C Fe 0.5000 1.0000 0.5000
Fe1C_2 Fe 0.5000 0.0000 -0.5000
O1B O 0.97394(11) 0.99276(13) -0.21255(18)
N1B N 0.64344(9) 0.67507(12) -0.01334(13)
C1B C 0.74353(11) 0.63606(15) -0.07888(18)
H1B H 0.7584 0.5267 -0.0990
C2B C 0.82579(11) 0.74747(15) -0.11832(18)
H2B H 0.8949 0.7145 -0.1646
C3B C 0.80561(10) 0.90885(14) -0.08902(15)
C4B C 0.70435(11) 0.94961(15) -0.01700(16)
H3B H 0.6886 1.0578 0.0076
C5B C 0.62636(11) 0.83029(14) 0.01867(15)
H4B H 0.5577 0.8599 0.0681
C6B C 0.89134(12) 1.03277(16) -0.13786(17)
C7B C 0.87233(12) 1.20354(16) -0.0917(2)
H5B H 0.9352 1.2695 -0.1292
H6B H 0.7982 1.2407 -0.1416
H7B H 0.8712 1.2118 0.0259
N2B N 0.55909(11) 0.38603(14) -0.21440(15)
N3B N 0.58330(9) 0.27010(12) -0.28291(12)
N4B N 0.61111(10) 0.15722(14) -0.35651(15)
N4C N 0.38889(10) 0.65722(14) -0.14349(15)
N4A N 0.61111(10) 0.34278(14) 0.14349(15)
loop_
_geom_bond_atom_site_label_1
_geom_bond_atom_site_label_2
_geom_bond_site_symmetry_1
_geom_bond_site_symmetry_2
Fe1 N1 1_555 1_555
O1 C6 1_555 1_555
N1 C1 1_555 1_555
C1 H1 1_555 1_555
C2 C1 1_555 1_555
H2 C2 1_555 1_555
C3 C2 1_555 1_555
C4 C3 1_555 1_555
H3 C4 1_555 1_555
C5 N1 1_555 1_555
H4 C5 1_555 1_555
C6 C3 1_555 1_555
C7 C6 1_555 1_555
H5 C7 1_555 1_555
H6 C7 1_555 1_555
H7 C7 1_555 1_555
N2 Fe1 1_555 1_555
N3 N2 1_555 1_555
N4 N3 1_555 1_555
Fe1C N4 1_555 1_555
Fe1C_2 N4B 1_555 1_555
O1B C6B 1_555 1_555
N1B Fe1 1_555 1_555
C1B N1B 1_555 1_555
H1B C1B 1_555 1_555
C2B C1B 1_555 1_555
H2B C2B 1_555 1_555
C3B C2B 1_555 1_555
C4B C3B 1_555 1_555
H3B C4B 1_555 1_555
C5B N1B 1_555 1_555
H4B C5B 1_555 1_555
C6B C3B 1_555 1_555
C7B C6B 1_555 1_555
H5B C7B 1_555 1_555
H6B C7B 1_555 1_555
H7B C7B 1_555 1_555
N2B Fe1 1_555 1_555
N3B N2B 1_555 1_555
N4B N3B 1_555 1_555
N4C Fe1 1_555 1_555
N4A Fe1 1_555 1_555
C4 C5 1_555 1_555
C4B C5B 1_555 1_555

#END
