
#######################################################################
#
#                 Cambridge Crystallographic Data Centre
#                                CCDC 
#
#######################################################################
#
# If this CIF has been generated from an entry in the Cambridge 
# Structural Database, then it will include bibliographic, chemical, 
# crystal, experimental, refinement or atomic coordinate data resulting 
# from the CCDC's data processing and validation procedures.
#
#######################################################################

data_PIWDAC
_symmetry_cell_setting           triclinic
_symmetry_space_group_name_H-M   'P -1'
_symmetry_Int_Tables_number      2
_space_group_name_Hall           '-P 1'
loop_
_symmetry_equiv_pos_site_id
_symmetry_equiv_pos_as_xyz
1 x,y,z
2 -x,-y,-z
_cell_length_a                   9.914(2)
_cell_length_b                   16.143(3)
_cell_length_c                   18.407(4)
_cell_angle_alpha                92.009(2)
_cell_angle_beta                 103.583(2)
_cell_angle_gamma                91.941(2)
_cell_volume                     2859.04
loop_
_atom_site_label
_atom_site_type_symbol
_atom_site_fract_x
_atom_site_fract_y
_atom_site_fract_z
O21 O 0.2997(9) 0.2301(5) 0.4113(5)
H41 H 0.2782 0.1792 0.3994
H42 H 0.2551 0.2451 0.4433
O22 O 0.5964(10) 0.2663(5) 0.4445(6)
H43 H 0.5088 0.2575 0.4338
H44 H 0.6135 0.3164 0.4608
C1 C 0.1580(11) 0.5612(7) 0.0279(5)
C2 C 0.5587(10) 0.8087(6) -0.0041(5)
C3 C -0.4575(10) 0.3906(6) 0.2008(5)
H1 H -0.3789 0.3964 0.1817
C4 C -0.4439(8) 0.4080(5) 0.2769(5)
H2 H -0.3585 0.4252 0.3079
C5 C -0.5620(8) 0.3989(5) 0.3056(4)
C6 C -0.6842(8) 0.3686(5) 0.2569(4)
H3 H -0.7635 0.3587 0.2745
C7 C -0.6877(10) 0.3532(5) 0.1827(5)
H4 H -0.7704 0.3327 0.1510
C8 C -0.5607(8) 0.4259(5) 0.3850(4)
C9 C 0.0616(9) 0.5223(6) 0.1938(5)
H5 H 0.1421 0.5123 0.1778
C10 C 0.0656(8) 0.5188(5) 0.2691(4)
H6 H 0.1476 0.5072 0.3030
C11 C -0.0534(7) 0.5327(4) 0.2937(4)
C12 C -0.1720(8) 0.5491(6) 0.2404(4)
H7 H -0.2542 0.5588 0.2547
C13 C -0.1685(9) 0.5511(6) 0.1665(4)
H8 H -0.2499 0.5609 0.1315
C14 C -0.0556(8) 0.5285(4) 0.3745(4)
C15 C -0.3962(10) 0.7251(6) 0.1942(5)
H9 H -0.3545 0.7580 0.1644
C16 C -0.3520(10) 0.7355(6) 0.2702(5)
H10 H -0.2858 0.7771 0.2914
C17 C -0.4066(8) 0.6839(5) 0.3154(4)
C18 C -0.5095(8) 0.6258(5) 0.2812(4)
H11 H -0.5507 0.5909 0.3096
C19 C -0.5496(9) 0.6206(6) 0.2050(5)
H12 H -0.6178 0.5805 0.1828
C20 C -0.3523(9) 0.6897(5) 0.3990(5)
C21 C 0.6449(9) 0.9681(5) 0.1991(5)
H13 H 0.5526 0.9827 0.1862
C22 C 0.7139(8) 0.9758(5) 0.2734(4)
H14 H 0.6689 0.9942 0.3096
C23 C 0.8523(7) 0.9556(5) 0.2930(4)
C24 C 0.9119(9) 0.9285(6) 0.2369(5)
H15 H 1.0048 0.9151 0.2478
C25 C 0.8331(10) 0.9212(7) 0.1642(5)
H16 H 0.8748 0.9014 0.1271
C26 C 0.9344(8) 0.9644(5) 0.3735(4)
C27 C 1.5416(11) 0.8348(6) 0.7941(5)
H17 H 1.4801 0.8046 0.8152
C28 C 1.4987(10) 0.8569(6) 0.7221(5)
H18 H 1.4088 0.8429 0.6949
C29 C 1.5912(8) 0.9009(5) 0.6893(4)
C30 C 1.7259(10) 0.9197(6) 0.7295(5)
H19 H 1.7900 0.9477 0.7085
C31 C 1.7609(12) 0.8947(8) 0.8032(6)
H20 H 1.8510 0.9057 0.8316
C32 C 1.5417(8) 0.9308(4) 0.6110(4)
C33 C 1.2986(12) 0.8475(7) 0.1872(5)
H21 H 1.3553 0.8827 0.1672
C34 C 1.3134(10) 0.8504(6) 0.2645(5)
H22 H 1.3777 0.8878 0.2948
C35 C 1.2336(8) 0.7985(5) 0.2956(4)
C36 C 1.1394(10) 0.7458(6) 0.2481(5)
H23 H 1.0828 0.7095 0.2671
C37 C 1.1282(11) 0.7464(6) 0.1710(5)
H24 H 1.0630 0.7104 0.1395
C38 C 1.2428(9) 0.8009(5) 0.3792(4)
C39 C 1.1005(10) 0.7125(7) -0.1085(5)
H25 H 1.0742 0.6704 -0.0807
C40 C 1.0715(10) 0.7006(6) -0.1849(5)
H26 H 1.0248 0.6522 -0.2079
C41 C 1.1116(9) 0.7602(6) -0.2265(4)
C42 C 1.1792(11) 0.8297(6) -0.1891(5)
H27 H 1.2086 0.8722 -0.2154
C43 C 1.2037(12) 0.8370(7) -0.1124(5)
H28 H 1.2511 0.8847 -0.0882
C44 C 1.0819(12) 0.7506(6) -0.3110(5)
Cl1 Cl -0.1609(3) 0.66975(17) 0.00648(14)
Cl2 Cl 0.6419(2) 1.02906(14) -0.04374(12)
Cl3 Cl 0.9390(5) 0.8808(3) -0.0041(2)
Cu1 Cu -0.3889(4) 0.6207(3) -0.0397(3)
Cu2 Cu -0.05730(12) 0.54754(8) 0.03187(6)
Cu3 Cu 0.41554(13) 0.66211(9) 0.04563(6)
Cu4 Cu 0.58875(14) 0.92486(7) 0.03676(6)
Cu5 Cu 0.70240(18) 0.84875(13) -0.05202(8)
Cu6 Cu 1.0000 1.0000 0.0000
Cu7 Cu 1.18466(16) 0.79685(11) 0.03414(7)
Dy1 Dy 1.24302(3) 0.97304(2) 0.490452(18)
Dy2 Dy -0.25131(3) 0.52038(2) 0.497138(18)
N1 N 0.2414(9) 0.6002(6) 0.0370(4)
N2 N 0.5026(8) 0.7488(5) 0.0018(4)
N3 N -0.5779(8) 0.3662(4) 0.1541(4)
N4 N -0.0530(7) 0.5394(5) 0.1429(3)
N5 N -0.4974(7) 0.6692(5) 0.1606(4)
N6 N 0.7019(7) 0.9409(4) 0.1446(3)
N7 N 1.6673(10) 0.8545(5) 0.8351(4)
N8 N 1.2072(9) 0.7965(5) 0.1410(4)
N9 N 1.1641(8) 0.7807(5) -0.0720(4)
O1 O -0.4530(5) 0.4602(4) 0.4241(3)
O2 O -0.6722(5) 0.4145(3) 0.4058(3)
O3 O 0.0517(5) 0.5102(3) 0.4200(3)
O4 O -0.1691(6) 0.5431(4) 0.3912(3)
O5 O -0.2752(7) 0.7510(4) 0.4271(3)
O6 O -0.3867(5) 0.6319(3) 0.4362(3)
O7 O 0.8742(5) 0.9936(3) 0.4204(3)
O8 O 1.0577(5) 0.9436(4) 0.3865(3)
O9 O 1.4168(5) 0.9149(3) 0.5786(3)
O10 O 1.6261(5) 0.9713(3) 0.5838(3)
O11 O 1.3142(5) 0.8629(3) 0.4174(3)
O12 O 1.1793(7) 0.7461(4) 0.4036(3)
O13 O 0.9780(11) 0.7016(6) -0.3398(4)
O14 O 1.1498(9) 0.7947(6) -0.3436(4)
O15 O 1.1255(5) 0.8463(3) 0.5193(3)
H29 H 1.1225 0.8073 0.4867
H30 H 1.1631 0.8282 0.5618
O16 O 1.1440(5) 1.1042(3) 0.4542(3)
H31 H 1.0989 1.0651 0.4291
H32 H 1.0928 1.1372 0.4674
O17 O 1.3887(5) 1.0881(3) 0.5705(3)
H33 H 1.3518 1.1339 0.5760
H34 H 1.4736 1.1011 0.5727
O18 O -0.1006(5) 0.6459(3) 0.5254(3)
H35 H -0.0692 0.6645 0.5683
H36 H -0.1322 0.6829 0.4978
O19 O -0.1917(6) 0.3866(4) 0.4539(3)
H37 H -0.2296 0.3431 0.4291
H38 H -0.1214 0.4007 0.4374
O20 O -0.3228(5) 0.4114(3) 0.5745(3)
H39 H -0.4012 0.3911 0.5779
H40 H -0.2632 0.3748 0.5877
C45 C -0.4806(9) 0.5323(5) -0.0068(5)
C45A C -0.5194(9) 0.4677(5) 0.0068(5)
C1A C -1.1580(11) 0.4388(7) -0.0279(5)
C2A C -1.5587(10) 0.1913(6) 0.0041(5)
C3A C -0.5425(10) 0.6094(6) -0.2008(5)
H1A H -0.6211 0.6036 -0.1817
C4A C -0.5561(8) 0.5920(5) -0.2769(5)
H2A H -0.6415 0.5748 -0.3079
C5A C -0.4380(8) 0.6011(5) -0.3056(4)
C6A C -0.3158(8) 0.6314(5) -0.2569(4)
H3A H -0.2365 0.6413 -0.2745
C7A C -0.3123(10) 0.6468(5) -0.1827(5)
H4A H -0.2296 0.6673 -0.1510
C8A C -0.4393(8) 0.5741(5) -0.3850(4)
C9A C -1.0616(9) 0.4777(6) -0.1938(5)
H5A H -1.1421 0.4877 -0.1778
C10A C -1.0656(8) 0.4812(5) -0.2691(4)
H6A H -1.1476 0.4928 -0.3030
C11A C -0.9466(7) 0.4673(4) -0.2937(4)
C12A C -0.8280(8) 0.4509(6) -0.2404(4)
H7A H -0.7458 0.4412 -0.2547
C13A C -0.8315(9) 0.4489(6) -0.1665(4)
H8A H -0.7501 0.4391 -0.1315
C14A C -0.9444(8) 0.4715(4) -0.3745(4)
C15A C -0.6038(10) 0.2749(6) -0.1942(5)
H9A H -0.6455 0.2420 -0.1644
C16A C -0.6480(10) 0.2645(6) -0.2702(5)
H10A H -0.7142 0.2229 -0.2914
C17A C -0.5934(8) 0.3161(5) -0.3154(4)
C18A C -0.4905(8) 0.3742(5) -0.2812(4)
H11A H -0.4493 0.4091 -0.3096
C19A C -0.4504(9) 0.3794(6) -0.2050(5)
H12A H -0.3822 0.4195 -0.1828
C20A C -0.6477(9) 0.3103(5) -0.3990(5)
C21A C -1.6449(9) 0.0319(5) -0.1991(5)
H13A H -1.5526 0.0173 -0.1862
C22A C -1.7139(8) 0.0242(5) -0.2734(4)
H14A H -1.6689 0.0058 -0.3096
C23A C -1.8523(7) 0.0444(5) -0.2930(4)
C24A C -1.9119(9) 0.0715(6) -0.2369(5)
H15A H -2.0048 0.0849 -0.2478
C25A C -1.8331(10) 0.0788(7) -0.1642(5)
H16A H -1.8748 0.0986 -0.1271
C26A C -1.9344(8) 0.0356(5) -0.3735(4)
C27A C -2.5416(11) 0.1652(6) -0.7941(5)
H17A H -2.4801 0.1954 -0.8152
C28A C -2.4987(10) 0.1431(6) -0.7221(5)
H18A H -2.4088 0.1571 -0.6949
C29A C -2.5912(8) 0.0991(5) -0.6893(4)
C30A C -2.7259(10) 0.0803(6) -0.7295(5)
H19A H -2.7900 0.0523 -0.7085
C31A C -2.7609(12) 0.1053(8) -0.8032(6)
H20A H -2.8510 0.0943 -0.8316
C32A C -2.5417(8) 0.0692(4) -0.6110(4)
C33A C -2.2986(12) 0.1525(7) -0.1872(5)
H21A H -2.3553 0.1173 -0.1672
C34A C -2.3134(10) 0.1496(6) -0.2645(5)
H22A H -2.3777 0.1122 -0.2948
C35A C -2.2336(8) 0.2015(5) -0.2956(4)
C36A C -2.1394(10) 0.2542(6) -0.2481(5)
H23A H -2.0828 0.2905 -0.2671
C37A C -2.1282(11) 0.2536(6) -0.1710(5)
H24A H -2.0630 0.2896 -0.1395
C38A C -2.2428(9) 0.1991(5) -0.3792(4)
C39A C -2.1005(10) 0.2875(7) 0.1085(5)
H25A H -2.0742 0.3296 0.0807
C40A C -2.0715(10) 0.2994(6) 0.1849(5)
H26A H -2.0248 0.3478 0.2079
C41A C -2.1116(9) 0.2398(6) 0.2265(4)
C42A C -2.1792(11) 0.1703(6) 0.1891(5)
H27A H -2.2086 0.1278 0.2154
C43A C -2.2037(12) 0.1630(7) 0.1124(5)
H28A H -2.2511 0.1153 0.0882
C44A C -2.0819(12) 0.2494(6) 0.3110(5)
Cl1A Cl -0.8391(3) 0.33025(17) -0.00648(14)
Cl2A Cl -1.6419(2) -0.02906(14) 0.04374(12)
Cl3A Cl -1.9390(5) 0.1192(3) 0.0041(2)
Cu1A Cu -0.6111(4) 0.3793(3) 0.0397(3)
Cu2A Cu -0.94270(12) 0.45246(8) -0.03187(6)
Cu3A Cu -1.41554(13) 0.33789(9) -0.04563(6)
Cu4A Cu -1.58875(14) 0.07514(7) -0.03676(6)
Cu5A Cu -1.70240(18) 0.15125(13) 0.05202(8)
Cu7A Cu -2.18466(16) 0.20315(11) -0.03414(7)
Dy1A Dy -2.24302(3) 0.02696(2) -0.490452(18)
Dy2A Dy -0.74869(3) 0.47962(2) -0.497138(18)
N1A N -1.2414(9) 0.3998(6) -0.0370(4)
N2A N -1.5026(8) 0.2512(5) -0.0018(4)
N3A N -0.4221(8) 0.6338(4) -0.1541(4)
N4A N -0.9470(7) 0.4606(5) -0.1429(3)
N5A N -0.5026(7) 0.3308(5) -0.1606(4)
N6A N -1.7019(7) 0.0591(4) -0.1446(3)
N7A N -2.6673(10) 0.1455(5) -0.8351(4)
N8A N -2.2072(9) 0.2035(5) -0.1410(4)
N9A N -2.1641(8) 0.2193(5) 0.0720(4)
O1A O -0.5470(5) 0.5398(4) -0.4241(3)
O2A O -0.3278(5) 0.5855(3) -0.4058(3)
O3A O -1.0517(5) 0.4898(3) -0.4200(3)
O4A O -0.8309(6) 0.4569(4) -0.3912(3)
O5A O -0.7248(7) 0.2490(4) -0.4271(3)
O6A O -0.6133(5) 0.3681(3) -0.4362(3)
O7A O -1.8742(5) 0.0064(3) -0.4204(3)
O8A O -2.0577(5) 0.0564(4) -0.3865(3)
O9A O -2.4168(5) 0.0851(3) -0.5786(3)
O10A O -2.6261(5) 0.0287(3) -0.5838(3)
O11A O -2.3142(5) 0.1371(3) -0.4174(3)
O12A O -2.1793(7) 0.2539(4) -0.4036(3)
O13A O -1.9780(11) 0.2984(6) 0.3398(4)
O14A O -2.1498(9) 0.2053(6) 0.3436(4)
O15A O -2.1255(5) 0.1537(3) -0.5193(3)
H29A H -2.1225 0.1927 -0.4867
H30A H -2.1631 0.1718 -0.5618
O16A O -2.1440(5) -0.1042(3) -0.4542(3)
H31A H -2.0989 -0.0651 -0.4291
H32A H -2.0928 -0.1372 -0.4674
O17A O -2.3887(5) -0.0881(3) -0.5705(3)
H33A H -2.3518 -0.1339 -0.5760
H34A H -2.4736 -0.1011 -0.5727
O18A O -0.8994(5) 0.3541(3) -0.5254(3)
H35A H -0.9308 0.3355 -0.5683
H36A H -0.8678 0.3171 -0.4978
O19A O -0.8083(6) 0.6134(4) -0.4539(3)
H37A H -0.7704 0.6569 -0.4291
H38A H -0.8786 0.5993 -0.4374
O20A O -0.6772(5) 0.5886(3) -0.5745(3)
H39A H -0.5988 0.6089 -0.5779
H40A H -0.7368 0.6252 -0.5877
C1_2 C -0.8420(11) 0.5612(7) 0.0279(5)
C1A_2 C -0.1580(11) 0.4388(7) -0.0279(5)
Cl2_2 Cl -1.3581(2) 0.02906(14) -0.04374(12)
Cl2A_2 Cl 0.3581(2) 0.97094(14) 0.04374(12)
Cl3A_2 Cl 1.0610(5) 1.1192(3) 0.0041(2)
Cu1_2 Cu 0.6111(4) 0.6207(3) -0.0397(3)
Cu1A_2 Cu -1.6111(4) 0.3793(3) 0.0397(3)
Cu2_2 Cu -1.05730(12) 0.54754(8) 0.03187(6)
Cu2A_2 Cu 0.05730(12) 0.45246(8) -0.03187(6)
Cu3_2 Cu -0.58446(13) 0.66211(9) 0.04563(6)
Cu3A_2 Cu -0.41554(13) 0.33789(9) -0.04563(6)
Cu4_2 Cu -1.41125(14) -0.07514(7) 0.03676(6)
Cu4A_2 Cu 0.41125(14) 1.07514(7) -0.03676(6)
Cu5_2 Cu 1.70240(18) 0.84875(13) 0.94798(8)
Cu5A_2 Cu -2.70240(18) 0.15125(13) -0.94798(8)
Cu6_2 Cu -2.0000 0.0000 0.0000
Dy1_2 Dy -2.75698(3) -0.02696(2) -0.509548(18)
Dy1_3 Dy -1.75698(3) -0.02696(2) -0.509548(18)
Dy1A_2 Dy 0.75698(3) 1.02696(2) 0.509548(18)
Dy1A_3 Dy 1.75698(3) 1.02696(2) 0.509548(18)
Dy2_2 Dy -1.25131(3) 0.52038(2) -0.502862(18)
Dy2_3 Dy -0.25131(3) 0.52038(2) -0.502862(18)
Dy2A_2 Dy -0.74869(3) 0.47962(2) 0.502862(18)
Dy2A_3 Dy 0.25131(3) 0.47962(2) 0.502862(18)
N2_2 N -0.4974(8) 0.7488(5) 0.0018(4)
N2A_2 N -0.5026(8) 0.2512(5) -0.0018(4)
N5_2 N 0.5026(7) 0.6692(5) 0.1606(4)
N5A_2 N -1.5026(7) 0.3308(5) -0.1606(4)
N7_2 N 0.6673(10) 0.8545(5) -0.1649(4)
N7A_2 N -1.6673(10) 0.1455(5) 0.1649(4)
O2_2 O -0.6722(5) 0.4145(3) -0.5942(3)
O2A_2 O -0.3278(5) 0.5855(3) 0.5942(3)
O3_2 O -0.9483(5) 0.5102(3) -0.5800(3)
O3A_2 O -0.0517(5) 0.4898(3) 0.5800(3)
O7_2 O -2.1258(5) -0.0064(3) -0.5796(3)
O7A_2 O 1.1258(5) 1.0064(3) 0.5796(3)
O10_2 O -2.3739(5) -0.0287(3) -0.4162(3)
O10A_2 O 1.3739(5) 1.0287(3) 0.4162(3)
C45_2 C 0.5194(9) 0.5323(5) -0.0068(5)
C45A_2 C -1.5194(9) 0.4677(5) 0.0068(5)
Cl4? Cl 0.8694(10) 0.8657(6) -0.0401(5)
Cu8? Cu -0.4348(13) 0.6383(7) -0.0460(7)
Cu9? Cu 0.8575(6) 1.0215(6) -0.0227(5)
N10? N -0.5194(9) 0.4677(5) 0.0068(5)
loop_
_geom_bond_atom_site_label_1
_geom_bond_atom_site_label_2
_geom_bond_site_symmetry_1
_geom_bond_site_symmetry_2
C1 Cu2 1_555 1_555
C2 Cu4 1_555 1_555
C3 H1 1_555 1_555
C4 C3 1_555 1_555
H2 C4 1_555 1_555
C5 C4 1_555 1_555
C6 C5 1_555 1_555
H3 C6 1_555 1_555
C7 C6 1_555 1_555
H4 C7 1_555 1_555
C8 C5 1_555 1_555
C9 H5 1_555 1_555
C10 C9 1_555 1_555
H6 C10 1_555 1_555
C11 C10 1_555 1_555
C12 C11 1_555 1_555
H7 C12 1_555 1_555
C13 C12 1_555 1_555
H8 C13 1_555 1_555
C14 C11 1_555 1_555
C15 H9 1_555 1_555
C16 C15 1_555 1_555
H10 C16 1_555 1_555
C17 C16 1_555 1_555
C18 C17 1_555 1_555
H11 C18 1_555 1_555
C19 C18 1_555 1_555
H12 C19 1_555 1_555
C20 C17 1_555 1_555
C21 H13 1_555 1_555
C22 C21 1_555 1_555
H14 C22 1_555 1_555
C23 C22 1_555 1_555
C24 C23 1_555 1_555
H15 C24 1_555 1_555
C25 C24 1_555 1_555
H16 C25 1_555 1_555
C26 C23 1_555 1_555
C27 H17 1_555 1_555
C28 C27 1_555 1_555
H18 C28 1_555 1_555
C29 C28 1_555 1_555
C30 C29 1_555 1_555
H19 C30 1_555 1_555
C31 C30 1_555 1_555
H20 C31 1_555 1_555
C32 C29 1_555 1_555
C33 H21 1_555 1_555
C34 C33 1_555 1_555
H22 C34 1_555 1_555
C35 C34 1_555 1_555
C36 C35 1_555 1_555
H23 C36 1_555 1_555
C37 C36 1_555 1_555
H24 C37 1_555 1_555
C38 C35 1_555 1_555
C39 H25 1_555 1_555
C40 C39 1_555 1_555
H26 C40 1_555 1_555
C41 C40 1_555 1_555
C42 C41 1_555 1_555
H27 C42 1_555 1_555
C43 C42 1_555 1_555
H28 C43 1_555 1_555
C44 C41 1_555 1_555
Cl1 Cu1 1_555 1_555
Cl2 Cu4 1_555 1_555
Cl3 Cu5 1_555 1_555
Cu1 C45 1_555 1_555
Cu2 Cl1 1_555 1_555
Cu3 N1 1_555 1_555
Cu4 N6 1_555 1_555
Cu5 C2 1_555 1_555
Cu6 Cl3 1_555 1_555
Cu7 Cl3 1_555 1_555
Dy1 O8 1_555 1_555
Dy2 O1 1_555 1_555
N1 C1 1_555 1_555
N2 C2 1_555 1_555
N3 C3 1_555 1_555
N4 C9 1_555 1_555
N5 C15 1_555 1_555
N6 C21 1_555 1_555
N7 C27 1_555 1_555
N8 C33 1_555 1_555
N9 C39 1_555 1_555
O1 C8 1_555 1_555
O2 C8 1_555 1_555
O3 C14 1_555 1_555
O4 C14 1_555 1_555
O5 C20 1_555 1_555
O6 C20 1_555 1_555
O7 C26 1_555 1_555
O8 C26 1_555 1_555
O9 C32 1_555 1_555
O10 C32 1_555 1_555
O11 C38 1_555 1_555
O12 C38 1_555 1_555
O13 C44 1_555 1_555
O14 C44 1_555 1_555
O15 Dy1 1_555 1_555
H29 O15 1_555 1_555
H30 O15 1_555 1_555
O16 Dy1 1_555 1_555
H31 O16 1_555 1_555
H32 O16 1_555 1_555
O17 Dy1 1_555 1_555
H33 O17 1_555 1_555
H34 O17 1_555 1_555
O18 Dy2 1_555 1_555
H35 O18 1_555 1_555
H36 O18 1_555 1_555
O19 Dy2 1_555 1_555
H37 O19 1_555 1_555
H38 O19 1_555 1_555
O20 Dy2 1_555 1_555
H39 O20 1_555 1_555
H40 O20 1_555 1_555
C45 C45A 1_555 1_555
O21 H41 1_555 1_555
H42 O21 1_555 1_555
O22 H43 1_555 1_555
H44 O22 1_555 1_555
C45A Cu1A 1_555 1_555
C1A Cu2A 1_555 1_555
C2A Cu4A 1_555 1_555
C3A H1A 1_555 1_555
C4A C3A 1_555 1_555
H2A C4A 1_555 1_555
C5A C4A 1_555 1_555
C6A C5A 1_555 1_555
H3A C6A 1_555 1_555
C7A C6A 1_555 1_555
H4A C7A 1_555 1_555
C8A C5A 1_555 1_555
C9A H5A 1_555 1_555
C10A C9A 1_555 1_555
H6A C10A 1_555 1_555
C11A C10A 1_555 1_555
C12A C11A 1_555 1_555
H7A C12A 1_555 1_555
C13A C12A 1_555 1_555
H8A C13A 1_555 1_555
C14A C11A 1_555 1_555
C15A H9A 1_555 1_555
C16A C15A 1_555 1_555
H10A C16A 1_555 1_555
C17A C16A 1_555 1_555
C18A C17A 1_555 1_555
H11A C18A 1_555 1_555
C19A C18A 1_555 1_555
H12A C19A 1_555 1_555
C20A C17A 1_555 1_555
C21A H13A 1_555 1_555
C22A C21A 1_555 1_555
H14A C22A 1_555 1_555
C23A C22A 1_555 1_555
C24A C23A 1_555 1_555
H15A C24A 1_555 1_555
C25A C24A 1_555 1_555
H16A C25A 1_555 1_555
C26A C23A 1_555 1_555
C27A H17A 1_555 1_555
C28A C27A 1_555 1_555
H18A C28A 1_555 1_555
C29A C28A 1_555 1_555
C30A C29A 1_555 1_555
H19A C30A 1_555 1_555
C31A C30A 1_555 1_555
H20A C31A 1_555 1_555
C32A C29A 1_555 1_555
C33A H21A 1_555 1_555
C34A C33A 1_555 1_555
H22A C34A 1_555 1_555
C35A C34A 1_555 1_555
C36A C35A 1_555 1_555
H23A C36A 1_555 1_555
C37A C36A 1_555 1_555
H24A C37A 1_555 1_555
C38A C35A 1_555 1_555
C39A H25A 1_555 1_555
C40A C39A 1_555 1_555
H26A C40A 1_555 1_555
C41A C40A 1_555 1_555
C42A C41A 1_555 1_555
H27A C42A 1_555 1_555
C43A C42A 1_555 1_555
H28A C43A 1_555 1_555
C44A C41A 1_555 1_555
Cl1A Cu1A 1_555 1_555
Cl2A Cu4A 1_555 1_555
Cl3A Cu5A 1_555 1_555
Cu1A N3 1_555 1_555
Cu2A Cl1A 1_555 1_555
Cu3A N1A 1_555 1_555
Cu4A N6A 1_555 1_555
Cu5A C2A 1_555 1_555
Cu7A Cl3A 1_555 1_555
Dy1A O8A 1_555 1_555
Dy2A O1A 1_555 1_555
N1A C1A 1_555 1_555
N2A C2A 1_555 1_555
N3A Cu1 1_555 1_555
N4A C9A 1_555 1_555
N5A C15A 1_555 1_555
N6A C21A 1_555 1_555
N7A C27A 1_555 1_555
N8A C33A 1_555 1_555
N9A C39A 1_555 1_555
O1A C8A 1_555 1_555
O2A C8A 1_555 1_555
O3A C14A 1_555 1_555
O4A C14A 1_555 1_555
O5A C20A 1_555 1_555
O6A C20A 1_555 1_555
O7A C26A 1_555 1_555
O8A C26A 1_555 1_555
O9A C32A 1_555 1_555
O10A C32A 1_555 1_555
O11A C38A 1_555 1_555
O12A C38A 1_555 1_555
O13A C44A 1_555 1_555
O14A C44A 1_555 1_555
O15A Dy1A 1_555 1_555
H29A O15A 1_555 1_555
H30A O15A 1_555 1_555
O16A Dy1A 1_555 1_555
H31A O16A 1_555 1_555
H32A O16A 1_555 1_555
O17A Dy1A 1_555 1_555
H33A O17A 1_555 1_555
H34A O17A 1_555 1_555
O18A Dy2A 1_555 1_555
H35A O18A 1_555 1_555
H36A O18A 1_555 1_555
O19A Dy2A 1_555 1_555
H37A O19A 1_555 1_555
H38A O19A 1_555 1_555
O20A Dy2A 1_555 1_555
H39A O20A 1_555 1_555
H40A O20A 1_555 1_555
C1_2 Cu2A 1_555 1_555
C1A_2 Cu2 1_555 1_555
Cl2_2 Cu4A 1_555 1_555
Cl2A_2 Cu4 1_555 1_555
Cl3A_2 Cu6 1_555 1_555
Cu1_2 N2 1_555 1_555
Cu1A_2 N2A 1_555 1_555
Cu2_2 C1A 1_555 1_555
Cu2A_2 C1 1_555 1_555
Cu3_2 N5 1_555 1_555
Cu3A_2 C45A 1_555 1_555
Cu4_2 Cl2A 1_555 1_555
Cu4A_2 Cl2 1_555 1_555
Cu5_2 N7 1_555 1_555
Cu5A_2 N7A 1_555 1_555
Cu6_2 Cl3A 1_555 1_555
Dy1_2 O10A 1_555 1_555
Dy1_3 O7A 1_555 1_555
Dy1A_2 O7 1_555 1_555
Dy1A_3 O10 1_555 1_555
Dy2_2 O3A 1_555 1_555
Dy2_3 O2A 1_555 1_555
Dy2A_2 O2 1_555 1_555
Dy2A_3 O3 1_555 1_555
N2_2 Cu1 1_555 1_555
N2A_2 Cu1A 1_555 1_555
N5_2 Cu3 1_555 1_555
N5A_2 Cu3A 1_555 1_555
N7_2 Cu5 1_555 1_555
N7A_2 Cu5A 1_555 1_555
O2_2 Dy2A 1_555 1_555
O2A_2 Dy2 1_555 1_555
O3_2 Dy2A 1_555 1_555
O3A_2 Dy2 1_555 1_555
O7_2 Dy1A 1_555 1_555
O7A_2 Dy1 1_555 1_555
O10_2 Dy1A 1_555 1_555
O10A_2 Dy1 1_555 1_555
C45_2 Cu3 1_555 1_555
C45A_2 Cu3A 1_555 1_555
C7 N3 1_555 1_555
C13 N4 1_555 1_555
C19 N5 1_555 1_555
C25 N6 1_555 1_555
C31 N7 1_555 1_555
C37 N8 1_555 1_555
C43 N9 1_555 1_555
Cu2 N4 1_555 1_555
Cu3 N2 1_555 1_555
Cu7 N8 1_555 1_555
Cu7 N9 1_555 1_555
Dy1 O9 1_555 1_555
Dy1 O11 1_555 1_555
Dy2 O4 1_555 1_555
Dy2 O6 1_555 1_555
C45 Cu3_2 1_555 1_555
C3A N3A 1_555 1_555
C7A N3A 1_555 1_555
C13A N4A 1_555 1_555
C19A N5A 1_555 1_555
C25A N6A 1_555 1_555
C31A N7A 1_555 1_555
C37A N8A 1_555 1_555
C43A N9A 1_555 1_555
Cu2A N4A 1_555 1_555
Cu3A N2A 1_555 1_555
Cu7A N8A 1_555 1_555
Cu7A N9A 1_555 1_555
Dy1A O9A 1_555 1_555
Dy1A O11A 1_555 1_555
Dy2A O4A 1_555 1_555
Dy2A O6A 1_555 1_555
N5A Cu3A_2 1_555 1_555
C1_2 Cu2_2 1_555 1_555
C1A_2 Cu2A_2 1_555 1_555
Cl2_2 Cu4_2 1_555 1_555
Cl2A_2 Cu4A_2 1_555 1_555
Cu1_2 C45_2 1_555 1_555
Cu1A_2 C45A_2 1_555 1_555
Cu3_2 N2_2 1_555 1_555
Cu3A_2 N2A_2 1_555 1_555

#END
