
#######################################################################
#
#                 Cambridge Crystallographic Data Centre
#                                CCDC 
#
#######################################################################
#
# If this CIF has been generated from an entry in the Cambridge 
# Structural Database, then it will include bibliographic, chemical, 
# crystal, experimental, refinement or atomic coordinate data resulting 
# from the CCDC's data processing and validation procedures.
#
#######################################################################

data_PIWGEI
_symmetry_cell_setting           monoclinic
_symmetry_space_group_name_H-M   'C 2'
_symmetry_Int_Tables_number      5
_space_group_name_Hall           'C 2y'
loop_
_symmetry_equiv_pos_site_id
_symmetry_equiv_pos_as_xyz
1 x,y,z
2 -x,y,-z
3 1/2+x,1/2+y,z
4 1/2-x,1/2+y,-z
_cell_length_a                   21.5698(15)
_cell_length_b                   19.2120(13)
_cell_length_c                   8.8873(6)
_cell_angle_alpha                90
_cell_angle_beta                 106.125(2)
_cell_angle_gamma                90
_cell_volume                     3538
loop_
_atom_site_label
_atom_site_type_symbol
_atom_site_fract_x
_atom_site_fract_y
_atom_site_fract_z
Cu1 Cu 0.09097(7) -0.34479(7) 0.15893(16)
Cu2 Cu 0.26682(9) -0.17430(8) 0.2334(2)
Br1 Br 0.13728(11) -0.46867(10) 0.1826(2)
Cu3 Cu 0.17170(9) -0.59230(10) 0.2218(2)
O1 O -0.1598(4) -0.4587(4) 0.4327(9)
H1 H -0.1906 -0.4655 0.4681
C1 C -0.2265(6) -0.3870(6) 0.1249(12)
H2 H -0.2044 -0.3587 0.0655
H3 H -0.2098 -0.4341 0.1288
C2 C -0.0950(5) -0.3724(6) 0.3424(13)
N1 N -0.2774(4) -0.3701(4) 0.3377(9)
C3 C -0.2651(5) -0.3609(5) 0.5132(12)
H4 H -0.2482 -0.3145 0.5420
H5 H -0.2324 -0.3940 0.5667
C4 C -0.1537(5) -0.3864(5) 0.4084(12)
H6 H -0.1470 -0.3620 0.5085
O2 O -0.0916(4) -0.1195(4) 0.4214(12)
C5 C -0.3030(5) -0.4419(5) 0.2894(10)
H7 H -0.3376 -0.4528 0.3356
H8 H -0.2690 -0.4761 0.3256
C6 C -0.3904(6) -0.4509(6) 0.6681(11)
H9 H -0.3993 -0.4958 0.6949
C7 C -0.2129(5) -0.3579(5) 0.2937(11)
H10 H -0.2070 -0.3075 0.2879
C8 C -0.0750(5) -0.1793(6) 0.3624(13)
C9 C -0.3257(5) -0.3712(6) 0.5704(13)
C10 C -0.2971(6) -0.3872(6) 0.0454(13)
H11 H -0.3034 -0.3938 -0.0672
C11 C -0.4187(6) -0.3287(8) 0.6382(15)
H12 H -0.4458 -0.2927 0.6500
C12 C -0.0251(5) -0.2979(5) 0.2516(13)
C13 C -0.0968(6) -0.2455(6) 0.3862(14)
H13 H -0.1274 -0.2505 0.4414
N2 N 0.0055(4) -0.3528(5) 0.2040(10)
C14 C -0.3377(5) -0.4366(5) 0.6188(11)
H14 H -0.3087 -0.4723 0.6176
C15 C -0.3168(7) -0.5166(6) 0.0570(13)
H15 H -0.2750 -0.5278 0.0563
C16 C -0.0731(5) -0.3048(5) 0.3277(12)
C17 C -0.0286(6) -0.1747(7) 0.2766(15)
H16 H -0.0160 -0.1304 0.2547
C18 C -0.3291(5) -0.4443(5) 0.1034(11)
H17 H -0.3757 -0.4359 0.0727
C19 C -0.4288(6) -0.3975(8) 0.6764(15)
C20 C -0.0156(6) -0.4147(7) 0.2237(15)
H18 H 0.0044 -0.4528 0.1925
C21 C -0.0663(5) -0.4274(6) 0.2882(15)
H19 H -0.0807 -0.4727 0.2948
C22 C -0.3249(5) -0.3180(5) 0.2436(14)
H20 H -0.3132 -0.2717 0.2856
H21 H -0.3677 -0.3284 0.2525
C23 C -0.0027(5) -0.2270(6) 0.2266(13)
H22 H 0.0293 -0.2205 0.1762
C24 C -0.3649(6) -0.3171(6) 0.5806(15)
H23 H -0.3563 -0.2727 0.5498
C25 C -0.3257(6) -0.3195(5) 0.0699(13)
H24 H -0.3695 -0.3156 0.0029
H25 H -0.3004 -0.2813 0.0464
C26 C -0.3600(9) -0.5646(8) 0.0179(19)
H26 H -0.4024 -0.5553 0.0172
H27 H -0.3488 -0.6085 -0.0098
C27 C -0.1356(8) -0.1220(7) 0.500(2)
H28 H -0.1430 -0.0760 0.5337
H29 H -0.1205 -0.1515 0.5903
H30 H -0.1752 -0.1404 0.4340
C28 C -0.4916(7) -0.4107(9) 0.727(2)
N3 N -0.5328(7) -0.4159(10) 0.769(2)
N4 N 0.1981(6) -0.2370(6) 0.1866(15)
C29 C 0.1569(8) -0.2762(8) 0.1671(14)
N5 N 0.2955(7) -0.1431(7) 0.442(2)
N6 N 0.3035(7) -0.1477(6) 0.0664(18)
C30 C 0.3111(8) -0.1249(8) 0.564(2)
C31 C 0.3164(8) -0.1291(7) -0.0409(19)
Cu3C Cu 0.32830(9) -0.09230(10) 0.7782(2)
Cu3C_2 Cu 0.32830(9) -0.09230(10) -0.2218(2)
C30C C 0.1889(8) -0.6249(8) 0.436(2)
C31C C 0.1836(8) -0.6291(7) 0.0409(19)
loop_
_geom_bond_atom_site_label_1
_geom_bond_atom_site_label_2
_geom_bond_site_symmetry_1
_geom_bond_site_symmetry_2
Cu1 Br1 1_555 1_555
Cu2 N4 1_555 1_555
Br1 Cu3 1_555 1_555
Cu3 C30C 1_555 1_555
O1 H1 1_555 1_555
C1 H2 1_555 1_555
H3 C1 1_555 1_555
C2 C4 1_555 1_555
N1 C3 1_555 1_555
C3 H4 1_555 1_555
H5 C3 1_555 1_555
C4 O1 1_555 1_555
H6 C4 1_555 1_555
O2 C8 1_555 1_555
C5 N1 1_555 1_555
H7 C5 1_555 1_555
H8 C5 1_555 1_555
C6 H9 1_555 1_555
C7 C1 1_555 1_555
H10 C7 1_555 1_555
C8 C13 1_555 1_555
C9 C3 1_555 1_555
C10 C1 1_555 1_555
H11 C10 1_555 1_555
C11 H12 1_555 1_555
C12 N2 1_555 1_555
C13 H13 1_555 1_555
N2 Cu1 1_555 1_555
C14 C6 1_555 1_555
H14 C14 1_555 1_555
C15 H15 1_555 1_555
C16 C2 1_555 1_555
C17 C8 1_555 1_555
H16 C17 1_555 1_555
C18 C5 1_555 1_555
H17 C18 1_555 1_555
C19 C6 1_555 1_555
C20 N2 1_555 1_555
H18 C20 1_555 1_555
C21 C2 1_555 1_555
H19 C21 1_555 1_555
C22 N1 1_555 1_555
H20 C22 1_555 1_555
H21 C22 1_555 1_555
C23 C12 1_555 1_555
H22 C23 1_555 1_555
C24 C9 1_555 1_555
H23 C24 1_555 1_555
C25 C10 1_555 1_555
H24 C25 1_555 1_555
H25 C25 1_555 1_555
C26 C15 1_555 1_555
H26 C26 1_555 1_555
H27 C26 1_555 1_555
C27 O2 1_555 1_555
H28 C27 1_555 1_555
H29 C27 1_555 1_555
H30 C27 1_555 1_555
C28 C19 1_555 1_555
N3 C28 1_555 1_555
N4 C29 1_555 1_555
C29 Cu1 1_555 1_555
N5 Cu2 1_555 1_555
N6 Cu2 1_555 1_555
C30 N5 1_555 1_555
C31 N6 1_555 1_555
Cu3C C30 1_555 1_555
Cu3C_2 C31 1_555 1_555
C31C Cu3 1_555 1_555
N1 C7 1_555 1_555
C4 C7 1_555 1_555
C9 C14 1_555 1_555
C10 C18 1_555 1_555
C11 C19 1_555 1_555
C11 C24 1_555 1_555
C12 C16 1_555 1_555
C13 C16 1_555 1_555
C15 C18 1_555 1_555
C17 C23 1_555 1_555
C20 C21 1_555 1_555
C22 C25 1_555 1_555

#END
