
#######################################################################
#
#                 Cambridge Crystallographic Data Centre
#                                CCDC 
#
#######################################################################
#
# If this CIF has been generated from an entry in the Cambridge 
# Structural Database, then it will include bibliographic, chemical, 
# crystal, experimental, refinement or atomic coordinate data resulting 
# from the CCDC's data processing and validation procedures.
#
#######################################################################

data_PIWNIU
_symmetry_cell_setting           triclinic
_symmetry_space_group_name_H-M   'P -1'
_symmetry_Int_Tables_number      2
_space_group_name_Hall           '-P 1'
loop_
_symmetry_equiv_pos_site_id
_symmetry_equiv_pos_as_xyz
1 x,y,z
2 -x,-y,-z
_cell_length_a                   10.0880(4)
_cell_length_b                   10.1850(4)
_cell_length_c                   15.0410(7)
_cell_angle_alpha                109.498(4)
_cell_angle_beta                 92.338(4)
_cell_angle_gamma                115.87(9)
_cell_volume                     1278.74
loop_
_atom_site_label
_atom_site_type_symbol
_atom_site_fract_x
_atom_site_fract_y
_atom_site_fract_z
Zn1 Zn 0.69639(3) 0.08857(3) 0.38240(2)
C1 C 0.8789(3) 0.1933(3) 0.2429(2)
H1 H 0.8882 0.2943 0.2692
C2 C 0.8261(4) -0.0411(4) 0.2139(2)
H2 H 0.7868 -0.1394 0.2184
C3 C 1.0330(6) 0.2327(6) 0.1189(3)
H3 H 1.0482 0.3403 0.1460
H4 H 0.9814 0.1858 0.0515
C4 C 1.1805(5) 0.2382(6) 0.1235(3)
H5 H 1.1683 0.1345 0.0848
H6 H 1.2257 0.2668 0.1898
C5 C 1.2854(7) 0.3622(7) 0.0851(5)
H7 H 1.2381 0.3336 0.0193
H8 H 1.2964 0.4652 0.1242
C6 C 1.4247(9) 0.3727(11) 0.0867(6)
H9 H 1.4167 0.2722 0.0453
H10 H 1.4738 0.4004 0.1520
C7 C 1.5217(11) 0.5109(10) 0.0477(5)
H11 H 1.5226 0.6075 0.0894
H12 H 1.6252 0.5299 0.0574
C8 C 0.7519(3) 0.1212(4) 0.5857(2)
H13 H 0.6669 0.0238 0.5710
C9 C 0.9239(3) 0.3250(3) 0.5781(2)
H14 H 0.9835 0.3981 0.5534
C10 C 0.8313(8) 0.1809(7) 0.7608(3)
H15 H 0.7810 0.0669 0.7422
H16 H 0.9327 0.2233 0.7968
C11 C 0.7604(9) 0.2387(14) 0.8163(6)
H17 H 0.6597 0.1988 0.7802
H18 H 0.8124 0.3531 0.8371
C12 C 0.7479(8) 0.1958(12) 0.9083(5)
H19 H 0.8163 0.1538 0.9139
H20 H 0.7802 0.2919 0.9654
C13 C 0.5953(7) 0.0799(8) 0.9056(3)
H21 H 0.5692 -0.0215 0.8547
H22 H 0.5245 0.1137 0.8897
C14 C 0.5786(5) 0.0586(8) 1.0017(3)
H23 H 0.6481 0.0231 1.0172
H24 H 0.6057 0.1601 1.0528
C15 C 0.5428(2) 0.3925(2) 0.37743(16)
C16 C 0.6235(2) 0.5408(2) 0.37525(17)
H25 H 0.7254 0.5805 0.3739
C17 C 0.5519(2) 0.6308(2) 0.37512(17)
C18 C 0.4005(2) 0.5720(3) 0.37744(17)
H26 H 0.3528 0.6319 0.3767
C19 C 0.3194(2) 0.4236(3) 0.38093(17)
C20 C 0.3911(2) 0.3336(2) 0.38010(17)
H27 H 0.3371 0.2336 0.3813
C21 C 0.6208(3) 0.2972(3) 0.37969(18)
C22 C 0.6412(3) 0.7940(3) 0.37661(18)
O1 O 0.53905(18) 0.15537(18) 0.37323(13)
O2 O 0.75868(19) 0.3554(2) 0.38844(15)
O3 O 0.78231(19) 0.85634(19) 0.39313(15)
O4 O 0.56858(18) 0.86281(18) 0.36186(14)
O5 O 0.17139(19) 0.3708(2) 0.38445(16)
N1 N 0.8060(2) 0.0787(2) 0.27333(15)
N2 N 0.9365(3) 0.1433(3) 0.16978(19)
N3 N 0.9039(4) -0.0100(4) 0.1500(2)
N4 N 0.8006(2) 0.1864(2) 0.52278(16)
N5 N 0.9522(3) 0.3474(4) 0.6686(2)
N6 N 0.8412(4) 0.2143(4) 0.6720(2)
H28 H 0.132(4) 0.285(4) 0.395(3)
C1A C 2.1211(3) 0.8067(3) -0.2429(2)
H1A H 2.1118 0.7057 -0.2692
C2A C 2.1739(4) 1.0411(4) -0.2139(2)
H2A H 2.2132 1.1394 -0.2184
C3A C 1.9670(6) 0.7673(6) -0.1189(3)
H3A H 1.9518 0.6597 -0.1460
H4A H 2.0186 0.8142 -0.0515
C4A C 1.8195(5) 0.7618(6) -0.1235(3)
H5A H 1.8317 0.8655 -0.0848
H6A H 1.7743 0.7332 -0.1898
C5A C 1.7146(7) 0.6378(7) -0.0851(5)
H7A H 1.7619 0.6664 -0.0193
H8A H 1.7036 0.5348 -0.1242
C6A C 1.5753(9) 0.6273(11) -0.0867(6)
H9A H 1.5833 0.7278 -0.0453
H10A H 1.5262 0.5996 -0.1520
C7A C 1.4783(11) 0.4891(10) -0.0477(5)
H11A H 1.4774 0.3925 -0.0894
H12A H 1.3748 0.4701 -0.0574
N1A N 2.1940(2) 0.9213(2) -0.27333(15)
N2A N 2.0635(3) 0.8567(3) -0.16978(19)
N3A N 2.0961(4) 1.0100(4) -0.1500(2)
C8A C 0.2481(3) -0.1212(4) 1.4143(2)
H13A H 0.3331 -0.0238 1.4290
C9A C 0.0761(3) -0.3250(3) 1.4219(2)
H14A H 0.0165 -0.3981 1.4466
C10A C 0.1687(8) -0.1809(7) 1.2392(3)
H15A H 0.2190 -0.0669 1.2578
H16A H 0.0673 -0.2233 1.2032
C11A C 0.2396(9) -0.2387(14) 1.1837(6)
H17A H 0.3403 -0.1988 1.2198
H18A H 0.1876 -0.3531 1.1629
C12A C 0.2521(8) -0.1958(12) 1.0917(5)
H19A H 0.1837 -0.1538 1.0861
H20A H 0.2198 -0.2919 1.0346
C13A C 0.4047(7) -0.0799(8) 1.0944(3)
H21A H 0.4308 0.0215 1.1453
H22A H 0.4755 -0.1137 1.1103
C14A C 0.4214(5) -0.0586(8) 0.9983(3)
H23A H 0.3519 -0.0231 0.9828
H24A H 0.3943 -0.1601 0.9472
N4A N 0.1994(2) -0.1864(2) 1.47722(16)
N5A N 0.0478(3) -0.3474(4) 1.3314(2)
N6A N 0.1588(4) -0.2143(4) 1.3280(2)
Zn1A Zn 0.30361(3) -0.08857(3) 1.61760(2)
C15A C 0.4572(2) -0.3925(2) 1.62257(16)
C16A C 0.3765(2) -0.5408(2) 1.62475(17)
H25A H 0.2746 -0.5805 1.6261
C17A C 0.4481(2) -0.6308(2) 1.62488(17)
C18A C 0.5995(2) -0.5720(3) 1.62256(17)
H26A H 0.6472 -0.6319 1.6233
C19A C 0.6806(2) -0.4236(3) 1.61907(17)
C20A C 0.6089(2) -0.3336(2) 1.61990(17)
H27A H 0.6629 -0.2336 1.6187
C21A C 0.3792(3) -0.2972(3) 1.62031(18)
C22A C 0.3588(3) -0.7940(3) 1.62339(18)
O1A O 0.46095(18) -0.15537(18) 1.62677(13)
O2A O 0.24132(19) -0.3554(2) 1.61156(15)
O3A O 0.21769(19) -0.85634(19) 1.60687(15)
O4A O 0.43142(18) -0.86281(18) 1.63814(14)
O5A O 0.82861(19) -0.3708(2) 1.61555(16)
H28A H 0.868(4) -0.285(4) 1.605(3)
Zn1_2 Zn 0.69639(3) 1.08857(3) 0.38240(2)
Zn1A_2 Zn 0.30361(3) -1.08857(3) 1.61760(2)
Zn1A_3 Zn 2.30361(3) 0.91143(3) -0.38240(2)
O4_2 O 0.56858(18) -0.13719(18) 0.36186(14)
O4A_2 O 0.43142(18) 0.13719(18) 1.63814(14)
N1A_2 N 0.1940(2) -0.0787(2) 1.72667(15)
O6 O 0.0764(2) 0.1092(3) 0.42668(18)
H29 H -0.007(3) 0.039(4) 0.414(3)
H30 H 0.120(4) 0.128(5) 0.480(2)
loop_
_geom_bond_atom_site_label_1
_geom_bond_atom_site_label_2
_geom_bond_site_symmetry_1
_geom_bond_site_symmetry_2
Zn1 O1 1_555 1_555
C1 H1 1_555 1_555
C2 H2 1_555 1_555
C3 H3 1_555 1_555
H4 C3 1_555 1_555
C4 C3 1_555 1_555
H5 C4 1_555 1_555
H6 C4 1_555 1_555
C5 C4 1_555 1_555
H7 C5 1_555 1_555
H8 C5 1_555 1_555
C6 C5 1_555 1_555
H9 C6 1_555 1_555
H10 C6 1_555 1_555
C7 C6 1_555 1_555
H11 C7 1_555 1_555
H12 C7 1_555 1_555
C8 H13 1_555 1_555
C9 H14 1_555 1_555
C10 H15 1_555 1_555
H16 C10 1_555 1_555
C11 C10 1_555 1_555
H17 C11 1_555 1_555
H18 C11 1_555 1_555
C12 C11 1_555 1_555
H19 C12 1_555 1_555
H20 C12 1_555 1_555
C13 C12 1_555 1_555
H21 C13 1_555 1_555
H22 C13 1_555 1_555
C14 C13 1_555 1_555
H23 C14 1_555 1_555
H24 C14 1_555 1_555
C15 C16 1_555 1_555
C16 H25 1_555 1_555
C17 C16 1_555 1_555
C18 C17 1_555 1_555
H26 C18 1_555 1_555
C19 C18 1_555 1_555
C20 C15 1_555 1_555
H27 C20 1_555 1_555
C21 C15 1_555 1_555
C22 C17 1_555 1_555
O1 C21 1_555 1_555
O2 Zn1 1_555 1_555
O3 C22 1_555 1_555
O4 C22 1_555 1_555
O5 C19 1_555 1_555
N1 Zn1 1_555 1_555
N2 C1 1_555 1_555
N3 C2 1_555 1_555
N4 Zn1 1_555 1_555
N5 C9 1_555 1_555
N6 C8 1_555 1_555
H28 O5 1_555 1_555
O6 H29 1_555 1_555
H30 O6 1_555 1_555
C1A H1A 1_555 1_555
C2A H2A 1_555 1_555
C3A H3A 1_555 1_555
H4A C3A 1_555 1_555
C4A C3A 1_555 1_555
H5A C4A 1_555 1_555
H6A C4A 1_555 1_555
C5A C4A 1_555 1_555
H7A C5A 1_555 1_555
H8A C5A 1_555 1_555
C6A C5A 1_555 1_555
H9A C6A 1_555 1_555
H10A C6A 1_555 1_555
C7A C7 1_555 1_555
H11A C7A 1_555 1_555
H12A C7A 1_555 1_555
N1A C1A 1_555 1_555
N2A C1A 1_555 1_555
N3A C2A 1_555 1_555
C8A H13A 1_555 1_555
C9A H14A 1_555 1_555
C10A H15A 1_555 1_555
H16A C10A 1_555 1_555
C11A C10A 1_555 1_555
H17A C11A 1_555 1_555
H18A C11A 1_555 1_555
C12A C11A 1_555 1_555
H19A C12A 1_555 1_555
H20A C12A 1_555 1_555
C13A C12A 1_555 1_555
H21A C13A 1_555 1_555
H22A C13A 1_555 1_555
C14A C14 1_555 1_555
H23A C14A 1_555 1_555
H24A C14A 1_555 1_555
N4A C8A 1_555 1_555
N5A C9A 1_555 1_555
N6A C8A 1_555 1_555
Zn1A N4A 1_555 1_555
C15A C16A 1_555 1_555
C16A H25A 1_555 1_555
C17A C16A 1_555 1_555
C18A C17A 1_555 1_555
H26A C18A 1_555 1_555
C19A C18A 1_555 1_555
C20A C15A 1_555 1_555
H27A C20A 1_555 1_555
C21A C15A 1_555 1_555
C22A C17A 1_555 1_555
O1A Zn1A 1_555 1_555
O2A Zn1A 1_555 1_555
O3A C22A 1_555 1_555
O4A C22A 1_555 1_555
O5A C19A 1_555 1_555
H28A O5A 1_555 1_555
Zn1_2 O4 1_555 1_555
Zn1A_2 O4A 1_555 1_555
Zn1A_3 N1A 1_555 1_555
O4_2 Zn1 1_555 1_555
O4A_2 Zn1A 1_555 1_555
N1A_2 Zn1A 1_555 1_555
C1 N1 1_555 1_555
C2 N1 1_555 1_555
C3 N2 1_555 1_555
C8 N4 1_555 1_555
C9 N4 1_555 1_555
C10 N6 1_555 1_555
C19 C20 1_555 1_555
C21 O2 1_555 1_555
N2 N3 1_555 1_555
N5 N6 1_555 1_555
C2A N1A 1_555 1_555
C3A N2A 1_555 1_555
C6A C7A 1_555 1_555
N2A N3A 1_555 1_555
C9A N4A 1_555 1_555
C10A N6A 1_555 1_555
C13A C14A 1_555 1_555
N5A N6A 1_555 1_555
C19A C20A 1_555 1_555
C21A O1A 1_555 1_555
C21A O2A 1_555 1_555

#END
