
#######################################################################
#
#                 Cambridge Crystallographic Data Centre
#                                CCDC 
#
#######################################################################
#
# If this CIF has been generated from an entry in the Cambridge 
# Structural Database, then it will include bibliographic, chemical, 
# crystal, experimental, refinement or atomic coordinate data resulting 
# from the CCDC's data processing and validation procedures.
#
#######################################################################

data_PIWPAO
_symmetry_cell_setting           triclinic
_symmetry_space_group_name_H-M   'P -1'
_symmetry_Int_Tables_number      2
_space_group_name_Hall           '-P 1'
loop_
_symmetry_equiv_pos_site_id
_symmetry_equiv_pos_as_xyz
1 x,y,z
2 -x,-y,-z
_cell_length_a                   10.1865(10)
_cell_length_b                   13.716(2)
_cell_length_c                   15.936(2)
_cell_angle_alpha                111.617(13)
_cell_angle_beta                 93.704(9)
_cell_angle_gamma                95.474(10)
_cell_volume                     2048.5
loop_
_atom_site_label
_atom_site_type_symbol
_atom_site_fract_x
_atom_site_fract_y
_atom_site_fract_z
Cd1 Cd 0.34801(3) 0.38098(3) 0.94099(3)
Cd2 Cd 0.00488(4) 0.18441(3) 0.89941(3)
C1 C 0.2712(5) 0.1193(5) 0.8883(4)
C2 C 0.3829(5) 0.0564(4) 0.8853(4)
C3 C 0.3615(5) -0.0417(4) 0.8910(4)
H1 H 0.2763 -0.0683 0.8963
C4 C 0.4641(5) -0.1010(4) 0.8888(4)
H2 H 0.4481 -0.1671 0.8925
C5 C 0.5910(5) -0.0615(4) 0.8812(4)
H3 H 0.6601 -0.1020 0.8783
C6 C 0.6156(5) 0.0384(4) 0.8780(4)
C7 C 0.5109(4) 0.0964(4) 0.8795(4)
H4 H 0.5267 0.1629 0.8765
C8 C 0.7545(5) 0.0849(5) 0.8786(4)
C9 C 0.6027(5) 0.4005(4) 0.8850(5)
C10 C 0.7256(4) 0.4039(4) 0.8376(4)
C11 C 0.8480(4) 0.4051(4) 0.8805(3)
H5 H 0.8540 0.4015 0.9378
C12 C 0.9621(4) 0.4116(4) 0.8391(4)
C13 C 0.9526(5) 0.4227(4) 0.7571(4)
H6 H 1.0294 0.4315 0.7307
C14 C 0.8301(6) 0.4209(5) 0.7126(4)
H7 H 0.8244 0.4270 0.6563
C15 C 0.7186(5) 0.4102(4) 0.7525(4)
H8 H 0.6361 0.4070 0.7223
C16 C 1.0944(5) 0.4052(4) 0.8837(4)
N1 N 0.3762(6) 0.3409(4) 1.2059(4)
C17 C 0.5155(5) 0.3836(4) 1.1223(4)
H9 H 0.5942 0.4051 1.1039
C18 C 0.6090(7) 0.3840(5) 1.2714(4)
H10 H 0.6945 0.3979 1.2517
H11 H 0.6072 0.3186 1.2818
C19 C 0.5940(8) 0.4702(7) 1.3564(6)
H12 H 0.5033 0.4632 1.3707
H13 H 0.6117 0.5372 1.3491
C20 C 0.6901(8) 0.4697(8) 1.4359(5)
H14 H 0.6691 0.5216 1.4922
H15 H 0.6759 0.4008 1.4402
C21 C 0.8343(7) 0.4939(6) 1.4257(5)
H16 H 0.8499 0.5639 1.4238
H17 H 0.8553 0.4434 1.3686
C22 C 0.9279(6) 0.4888(6) 1.5056(5)
H18 H 0.9079 0.5401 1.5626
H19 H 0.9113 0.4191 1.5081
C23 C 0.0085(5) 0.1612(5) 1.0970(5)
H20 H 0.0495 0.1003 1.0746
C24 C -0.0775(7) 0.2973(5) 1.1107(6)
H21 H -0.1079 0.3522 1.0972
C25 C -0.0188(8) 0.1598(6) 1.2514(5)
H22 H -0.0219 0.0835 1.2265
H23 H -0.0918 0.1775 1.2882
C26 C 0.1173(11) 0.2117(8) 1.3124(7)
H24 H 0.1894 0.1966 1.2745
H25 H 0.1183 0.2878 1.3385
C27 C 0.1384(15) 0.1757(13) 1.3809(9)
H26 H 0.1246 0.0990 1.3542
H27 H 0.0702 0.1977 1.4213
C28 C 0.2748(18) 0.2097(14) 1.4404(13)
H28 H 0.2957 0.2861 1.4649
H29 H 0.2728 0.1857 1.4905
C29 C 0.369(2) 0.163(2) 1.3843(12)
H30 H 0.3326 0.0924 1.3436
H31 H 0.3926 0.2043 1.3479
C30 C 0.577(2) 0.1249(18) 1.3928(18)
H32 H 0.6013 0.1814 1.3717
H33 H 0.5300 0.0684 1.3396
C31 C 0.479(3) 0.160(2) 1.436(2)
H34 H 0.5089 0.2304 1.4802
H35 H 0.4545 0.1154 1.4694
C32 C 0.6982(18) 0.0872(14) 1.3957(8)
H36 H 0.7653 0.1376 1.3881
H37 H 0.6945 0.0217 1.3434
C33 C 0.745(2) 0.0665(17) 1.4789(15)
H38 H 0.6708 0.0534 1.5100
H39 H 0.7942 0.0061 1.4625
C34 C 0.8247(17) 0.1564(16) 1.5317(9)
H40 H 0.7712 0.2132 1.5560
H41 H 0.8865 0.1766 1.4953
C35 C 0.8863(10) 0.1464(7) 1.6973(7)
H42 H 0.8022 0.1428 1.7163
C36 C 1.0904(10) 0.1626(7) 1.6941(7)
H43 H 1.1808 0.1717 1.7122
N2 N 0.3979(4) 0.3612(3) 1.0740(3)
C37 C 0.3177(6) 0.3353(5) 1.1295(5)
H44 H 0.2269 0.3149 1.1137
N3 N 0.5055(5) 0.3713(4) 1.2001(4)
N4 N -0.0165(4) 0.2215(4) 1.0518(4)
N5 N -0.0900(6) 0.2870(4) 1.1882(4)
N6 N -0.0322(5) 0.1984(4) 1.1778(4)
N7 N 0.9093(11) 0.1378(8) 1.6175(7)
N8 N 1.0409(13) 0.1503(8) 1.6123(7)
N9 N 0.9967(6) 0.1608(4) 1.7484(4)
O1 O 0.1623(4) 0.0848(3) 0.9060(3)
O2 O 0.2884(4) 0.2016(3) 0.8712(3)
O3 O 0.7732(3) 0.1787(3) 0.8810(3)
O4 O 0.8475(3) 0.0305(3) 0.8759(3)
O5 O 0.6115(3) 0.4325(3) 0.9692(3)
O6 O 0.4920(3) 0.3646(3) 0.8350(3)
O7 O 1.0974(3) 0.3625(3) 0.9428(3)
O8 O 1.1983(3) 0.4380(3) 0.8600(3)
N1A N 1.6238(6) 0.6591(4) 1.7941(4)
C17A C 1.4845(5) 0.6164(4) 1.8777(4)
H9A H 1.4058 0.5949 1.8961
C18A C 1.3910(7) 0.6160(5) 1.7286(4)
H10A H 1.3055 0.6021 1.7483
H11A H 1.3928 0.6814 1.7182
C19A C 1.4060(8) 0.5298(7) 1.6436(6)
H12A H 1.4967 0.5368 1.6293
H13A H 1.3883 0.4628 1.6509
C20A C 1.3099(8) 0.5303(8) 1.5641(5)
H14A H 1.3309 0.4784 1.5078
H15A H 1.3241 0.5992 1.5598
C21A C 1.1657(7) 0.5061(6) 1.5743(5)
H16A H 1.1501 0.4361 1.5762
H17A H 1.1447 0.5566 1.6314
C22A C 1.0721(6) 0.5112(6) 1.4944(5)
H18A H 1.0921 0.4599 1.4374
H19A H 1.0887 0.5809 1.4919
N2A N 1.6021(4) 0.6388(3) 1.9260(3)
C37A C 1.6823(6) 0.6647(5) 1.8705(5)
H44A H 1.7731 0.6851 1.8863
N3A N 1.4945(5) 0.6287(4) 1.7999(4)
Cd1A Cd 0.65199(3) 0.61902(3) 1.05901(3)
Cd2A Cd 0.99512(4) 0.81559(3) 1.10059(3)
C1A C 0.7288(5) 0.8807(5) 1.1117(4)
C2A C 0.6171(5) 0.9436(4) 1.1147(4)
C3A C 0.6385(5) 1.0417(4) 1.1090(4)
H1A H 0.7237 1.0683 1.1037
C4A C 0.5359(5) 1.1010(4) 1.1112(4)
H2A H 0.5519 1.1671 1.1075
C5A C 0.4090(5) 1.0615(4) 1.1188(4)
H3A H 0.3399 1.1020 1.1217
C6A C 0.3844(5) 0.9616(4) 1.1220(4)
C7A C 0.4891(4) 0.9036(4) 1.1205(4)
H4A H 0.4733 0.8371 1.1235
C8A C 0.2455(5) 0.9151(5) 1.1214(4)
C9A C 0.3973(5) 0.5995(4) 1.1150(5)
C10A C 0.2744(4) 0.5961(4) 1.1624(4)
C11A C 0.1520(4) 0.5949(4) 1.1195(3)
H5A H 0.1460 0.5985 1.0622
C12A C 0.0379(4) 0.5884(4) 1.1609(4)
C13A C 0.0474(5) 0.5773(4) 1.2429(4)
H6A H -0.0294 0.5685 1.2693
C14A C 0.1699(6) 0.5791(5) 1.2874(4)
H7A H 0.1756 0.5730 1.3437
C15A C 0.2814(5) 0.5898(4) 1.2475(4)
H8A H 0.3639 0.5930 1.2777
C16A C -0.0944(5) 0.5948(4) 1.1163(4)
C23A C 0.9915(5) 0.8388(5) 0.9030(5)
H20A H 0.9505 0.8997 0.9254
C24A C 1.0775(7) 0.7027(5) 0.8893(6)
H21A H 1.1079 0.6478 0.9028
C25A C 1.0188(8) 0.8402(6) 0.7486(5)
H22A H 1.0219 0.9165 0.7735
H23A H 1.0918 0.8225 0.7118
C26A C 0.8827(11) 0.7883(8) 0.6876(7)
H24A H 0.8106 0.8034 0.7255
H25A H 0.8817 0.7122 0.6615
C27A C 0.8616(15) 0.8243(13) 0.6191(9)
H26A H 0.8754 0.9010 0.6458
H27A H 0.9298 0.8023 0.5787
C28A C 0.7252(18) 0.7903(14) 0.5596(13)
H28A H 0.7043 0.7139 0.5351
H29A H 0.7272 0.8143 0.5095
C29A C 0.631(2) 0.837(2) 0.6157(12)
H30A H 0.6674 0.9076 0.6564
H31A H 0.6074 0.7957 0.6521
C30A C 0.423(2) 0.8751(18) 0.6072(18)
H32A H 0.3987 0.8186 0.6283
H33A H 0.4700 0.9316 0.6604
C31A C 0.521(3) 0.840(2) 0.564(2)
H34A H 0.4911 0.7696 0.5198
H35A H 0.5455 0.8846 0.5306
C32A C 0.3018(18) 0.9128(14) 0.6043(8)
H36A H 0.2347 0.8624 0.6119
H37A H 0.3055 0.9783 0.6566
C33A C 0.255(2) 0.9335(17) 0.5211(15)
H38A H 0.3292 0.9466 0.4900
H39A H 0.2058 0.9939 0.5375
C34A C 0.1753(17) 0.8436(16) 0.4683(9)
H40A H 0.2288 0.7868 0.4440
H41A H 0.1135 0.8234 0.5047
C35A C 0.1137(10) 0.8536(7) 0.3027(7)
H42A H 0.1978 0.8572 0.2837
C36A C -0.0904(10) 0.8374(7) 0.3059(7)
H43A H -0.1808 0.8283 0.2878
N4A N 1.0165(4) 0.7785(4) 0.9482(4)
N5A N 1.0900(6) 0.7130(4) 0.8118(4)
N6A N 1.0322(5) 0.8016(4) 0.8222(4)
N7A N 0.0907(11) 0.8622(8) 0.3825(7)
N8A N -0.0409(13) 0.8497(8) 0.3877(7)
N9A N 0.0033(6) 0.8392(4) 0.2516(4)
O1A O 0.8377(4) 0.9152(3) 1.0940(3)
O2A O 0.7116(4) 0.7984(3) 1.1288(3)
O3A O 0.2268(3) 0.8213(3) 1.1190(3)
O4A O 0.1525(3) 0.9695(3) 1.1241(3)
O5A O 0.3885(3) 0.5675(3) 1.0308(3)
O6A O 0.5080(3) 0.6354(3) 1.1650(3)
O7A O -0.0974(3) 0.6375(3) 1.0572(3)
O8A O -0.1983(3) 0.5620(3) 1.1400(3)
Cd1_2 Cd 1.34801(3) 0.38098(3) 0.94099(3)
Cd1A_2 Cd -0.34801(3) 0.61902(3) 1.05901(3)
Cd1A_3 Cd 1.65199(3) 0.61902(3) 2.05901(3)
Cd2_2 Cd 1.00488(4) 0.18441(3) 0.89941(3)
Cd2_3 Cd 1.00488(4) 0.18441(3) 1.89941(3)
Cd2A_2 Cd -0.00488(4) 0.81559(3) 0.10059(3)
Cd2A_3 Cd -0.00488(4) 0.81559(3) 1.10059(3)
N2A_2 N 0.6021(4) 0.6388(3) 0.9260(3)
N9_2 N -0.0033(6) 0.1608(4) 0.7484(4)
N9A_2 N 1.0033(6) 0.8392(4) 1.2516(4)
O3_2 O -0.2268(3) 0.1787(3) 0.8810(3)
O3A_2 O 1.2268(3) 0.8213(3) 1.1190(3)
O4_2 O -0.1525(3) 0.0305(3) 0.8759(3)
O4A_2 O 1.1525(3) 0.9695(3) 1.1241(3)
O7_2 O 0.0974(3) 0.3625(3) 0.9428(3)
O7A_2 O 0.9026(3) 0.6375(3) 1.0572(3)
O8_2 O 0.1983(3) 0.4380(3) 0.8600(3)
O8A_2 O 0.8017(3) 0.5620(3) 1.1400(3)
O9 O 0.4904(16) -0.1690(12) 1.3153(11)
loop_
_geom_bond_atom_site_label_1
_geom_bond_atom_site_label_2
_geom_bond_site_symmetry_1
_geom_bond_site_symmetry_2
Cd1 N2 1_555 1_555
Cd2 N4 1_555 1_555
C1 C2 1_555 1_555
C2 C3 1_555 1_555
C3 H1 1_555 1_555
C4 C3 1_555 1_555
H2 C4 1_555 1_555
C5 C4 1_555 1_555
H3 C5 1_555 1_555
C6 C5 1_555 1_555
C7 C2 1_555 1_555
H4 C7 1_555 1_555
C8 C6 1_555 1_555
C9 C10 1_555 1_555
C10 C11 1_555 1_555
C11 H5 1_555 1_555
C12 C11 1_555 1_555
C13 C12 1_555 1_555
H6 C13 1_555 1_555
C14 C13 1_555 1_555
H7 C14 1_555 1_555
C15 C10 1_555 1_555
H8 C15 1_555 1_555
C16 C12 1_555 1_555
N1 C37 1_555 1_555
C17 H9 1_555 1_555
C18 H10 1_555 1_555
H11 C18 1_555 1_555
C19 C18 1_555 1_555
H12 C19 1_555 1_555
H13 C19 1_555 1_555
C20 C19 1_555 1_555
H14 C20 1_555 1_555
H15 C20 1_555 1_555
C21 C20 1_555 1_555
H16 C21 1_555 1_555
H17 C21 1_555 1_555
C22 C21 1_555 1_555
H18 C22 1_555 1_555
H19 C22 1_555 1_555
C23 H20 1_555 1_555
C24 H21 1_555 1_555
C25 H22 1_555 1_555
H23 C25 1_555 1_555
C26 C25 1_555 1_555
H24 C26 1_555 1_555
H25 C26 1_555 1_555
C27 C26 1_555 1_555
H26 C27 1_555 1_555
H27 C27 1_555 1_555
C28 C27 1_555 1_555
H28 C28 1_555 1_555
H29 C28 1_555 1_555
C29 C28 1_555 1_555
H30 C29 1_555 1_555
H31 C29 1_555 1_555
C30 H32 1_555 1_555
H33 C30 1_555 1_555
C31 C29 1_555 1_555
H34 C31 1_555 1_555
H35 C31 1_555 1_555
C32 C30 1_555 1_555
H36 C32 1_555 1_555
H37 C32 1_555 1_555
C33 C32 1_555 1_555
H38 C33 1_555 1_555
H39 C33 1_555 1_555
C34 C33 1_555 1_555
H40 C34 1_555 1_555
H41 C34 1_555 1_555
C35 H42 1_555 1_555
C36 H43 1_555 1_555
N2 C17 1_555 1_555
C37 N2 1_555 1_555
H44 C37 1_555 1_555
N3 N1 1_555 1_555
N4 C23 1_555 1_555
N5 C24 1_555 1_555
N6 C23 1_555 1_555
N7 C34 1_555 1_555
N8 C36 1_555 1_555
N9 C35 1_555 1_555
O1 Cd2 1_555 1_555
O2 Cd1 1_555 1_555
O3 C8 1_555 1_555
O4 C8 1_555 1_555
O5 Cd1 1_555 1_555
O6 Cd1 1_555 1_555
O7 C16 1_555 1_555
O8 C16 1_555 1_555
N1A C37A 1_555 1_555
C17A H9A 1_555 1_555
C18A H10A 1_555 1_555
H11A C18A 1_555 1_555
C19A C18A 1_555 1_555
H12A C19A 1_555 1_555
H13A C19A 1_555 1_555
C20A C19A 1_555 1_555
H14A C20A 1_555 1_555
H15A C20A 1_555 1_555
C21A C20A 1_555 1_555
H16A C21A 1_555 1_555
H17A C21A 1_555 1_555
C22A C22 1_555 1_555
H18A C22A 1_555 1_555
H19A C22A 1_555 1_555
N2A C17A 1_555 1_555
C37A N2A 1_555 1_555
H44A C37A 1_555 1_555
N3A N1A 1_555 1_555
Cd1A O5 1_555 1_555
Cd2A N4A 1_555 1_555
C1A C2A 1_555 1_555
C2A C3A 1_555 1_555
C3A H1A 1_555 1_555
C4A C3A 1_555 1_555
H2A C4A 1_555 1_555
C5A C4A 1_555 1_555
H3A C5A 1_555 1_555
C6A C5A 1_555 1_555
C7A C2A 1_555 1_555
H4A C7A 1_555 1_555
C8A C6A 1_555 1_555
C9A C10A 1_555 1_555
C10A C11A 1_555 1_555
C11A H5A 1_555 1_555
C12A C11A 1_555 1_555
C13A C12A 1_555 1_555
H6A C13A 1_555 1_555
C14A C13A 1_555 1_555
H7A C14A 1_555 1_555
C15A C10A 1_555 1_555
H8A C15A 1_555 1_555
C16A C12A 1_555 1_555
C23A H20A 1_555 1_555
C24A H21A 1_555 1_555
C25A H22A 1_555 1_555
H23A C25A 1_555 1_555
C26A C25A 1_555 1_555
H24A C26A 1_555 1_555
H25A C26A 1_555 1_555
C27A C26A 1_555 1_555
H26A C27A 1_555 1_555
H27A C27A 1_555 1_555
C28A C27A 1_555 1_555
H28A C28A 1_555 1_555
H29A C28A 1_555 1_555
C29A C28A 1_555 1_555
H30A C29A 1_555 1_555
H31A C29A 1_555 1_555
C30A H32A 1_555 1_555
H33A C30A 1_555 1_555
C31A C29A 1_555 1_555
H34A C31A 1_555 1_555
H35A C31A 1_555 1_555
C32A C30A 1_555 1_555
H36A C32A 1_555 1_555
H37A C32A 1_555 1_555
C33A C32A 1_555 1_555
H38A C33A 1_555 1_555
H39A C33A 1_555 1_555
C34A C33A 1_555 1_555
H40A C34A 1_555 1_555
H41A C34A 1_555 1_555
C35A H42A 1_555 1_555
C36A H43A 1_555 1_555
N4A C23A 1_555 1_555
N5A C24A 1_555 1_555
N6A C23A 1_555 1_555
N7A C34A 1_555 1_555
N8A C36A 1_555 1_555
N9A C35A 1_555 1_555
O1A Cd2A 1_555 1_555
O2A Cd1A 1_555 1_555
O3A C8A 1_555 1_555
O4A C8A 1_555 1_555
O5A Cd1 1_555 1_555
O6A Cd1A 1_555 1_555
O7A C16A 1_555 1_555
O8A C16A 1_555 1_555
Cd1_2 O7 1_555 1_555
Cd1A_2 O7A 1_555 1_555
Cd1A_3 N2A 1_555 1_555
Cd2_2 O3 1_555 1_555
Cd2_3 N9 1_555 1_555
Cd2A_2 N9A 1_555 1_555
Cd2A_3 O3A 1_555 1_555
N2A_2 Cd1A 1_555 1_555
N9_2 Cd2 1_555 1_555
N9A_2 Cd2A 1_555 1_555
O3_2 Cd2 1_555 1_555
O3A_2 Cd2A 1_555 1_555
O4_2 Cd2 1_555 1_555
O4A_2 Cd2A 1_555 1_555
O7_2 Cd1 1_555 1_555
O7A_2 Cd1A 1_555 1_555
O8_2 Cd1 1_555 1_555
O8A_2 Cd1A 1_555 1_555
Cd2 O7_2 1_555 1_555
C1 O1 1_555 1_555
C1 O2 1_555 1_555
C6 C7 1_555 1_555
C9 O5 1_555 1_555
C9 O6 1_555 1_555
C14 C15 1_555 1_555
C17 N3 1_555 1_555
C18 N3 1_555 1_555
C24 N4 1_555 1_555
C25 N6 1_555 1_555
C30 C31 1_555 1_555
C35 N7 1_555 1_555
C36 N9 1_555 1_555
N5 N6 1_555 1_555
N7 N8 1_555 1_555
O4 Cd2_2 1_555 1_555
O7 Cd2_2 1_555 1_555
O8 Cd1_2 1_555 1_555
C17A N3A 1_555 1_555
C18A N3A 1_555 1_555
C21A C22A 1_555 1_555
Cd1A O5A 1_555 1_555
Cd2A O7A_2 1_555 1_555
C1A O1A 1_555 1_555
C1A O2A 1_555 1_555
C6A C7A 1_555 1_555
C9A O5A 1_555 1_555
C9A O6A 1_555 1_555
C14A C15A 1_555 1_555
C24A N4A 1_555 1_555
C25A N6A 1_555 1_555
C30A C31A 1_555 1_555
C35A N7A 1_555 1_555
C36A N9A 1_555 1_555
N5A N6A 1_555 1_555
N7A N8A 1_555 1_555
O4A Cd2A_3 1_555 1_555
O7A Cd2A_3 1_555 1_555
O8A Cd1A_2 1_555 1_555

#END
