
#######################################################################
#
#                 Cambridge Crystallographic Data Centre
#                                CCDC 
#
#######################################################################
#
# If this CIF has been generated from an entry in the Cambridge 
# Structural Database, then it will include bibliographic, chemical, 
# crystal, experimental, refinement or atomic coordinate data resulting 
# from the CCDC's data processing and validation procedures.
#
#######################################################################

data_PIWPEQ
_symmetry_cell_setting           monoclinic
_symmetry_space_group_name_H-M   'P 21'
_symmetry_Int_Tables_number      4
_space_group_name_Hall           'P 2yb'
loop_
_symmetry_equiv_pos_site_id
_symmetry_equiv_pos_as_xyz
1 x,y,z
2 -x,1/2+y,-z
_cell_length_a                   7.433(1)
_cell_length_b                   11.826(6)
_cell_length_c                   10.009(2)
_cell_angle_alpha                90
_cell_angle_beta                 91.25(1)
_cell_angle_gamma                90
_cell_volume                     879.608
loop_
_atom_site_label
_atom_site_type_symbol
_atom_site_fract_x
_atom_site_fract_y
_atom_site_fract_z
Cu1 Cu 0.21298(7) 0.0002(1) 0.90911(5)
Cl1 Cl 0.4562(2) 0.0125(2) 1.0395(2)
Cl2 Cl 0.0761(3) 0.0474(2) 0.7117(2)
S1 S 0.5961(2) -0.1109(1) 0.7381(1)
O1 O 0.9813(8) -0.0950(6) 0.3855(5)
N1 N 0.4246(5) -0.2947(3) 0.7202(4)
N2 N 0.2702(6) -0.1522(4) 0.8418(4)
N3 N 0.0214(6) -0.1936(3) 0.9627(4)
N4 N 0.0791(6) 0.1185(3) 1.0110(4)
C1 C 0.8299(9) -0.1247(8) 0.4588(7)
C2 C 0.8614(8) -0.2033(5) 0.5767(6)
C3 C 0.6915(8) -0.2218(5) 0.6488(6)
C4 C 0.5821(7) -0.3144(5) 0.6509(5)
C5 C 0.6141(9) -0.4266(5) 0.5899(7)
C6 C 0.4095(7) -0.1902(4) 0.7706(5)
C7 C 0.1470(7) -0.2308(4) 0.8791(4)
C8 C 0.1526(6) -0.3446(4) 0.8367(5)
C9 C 0.2763(7) -0.3771(4) 0.7268(5)
C10 C 0.0396(7) -0.4166(4) 0.8986(5)
C11 C -0.0904(7) -0.2698(4) 1.0118(5)
C12 C -0.2379(8) -0.2272(5) 1.0970(6)
H4 H 0.7779 -0.0563 0.4920
H5 H 0.7458 -0.1609 0.3983
H6 H 0.9489 -0.1704 0.6368
H7 H 0.9047 -0.2747 0.5451
H8 H 0.7279 -0.4261 0.5463
H9 H 0.6155 -0.4834 0.6585
H10 H 0.5198 -0.4428 0.5257
H11 H 0.3247 -0.4509 0.7443
H12 H 0.2106 -0.3777 0.6431
H13 H 0.0445 -0.4956 0.8770
H14 H -0.3092 -0.2897 1.1265
H15 H -0.1868 -0.1886 1.1733
H16 H -0.3123 -0.1759 1.0462
N4A N -0.0791(6) -0.3815(3) 0.9890(4)
Cu1A Cu -0.21298(7) -0.4998(1) 1.09089(5)
C13 C 0.223(1) 0.7162(9) 0.376(1)
O2 O 0.351(1) 0.729(1) 0.277(1)
H1 H 0.164(8) 0.754(6) 0.285(6)
H2 H 0.286(9) 0.751(6) 0.411(7)
H3 H 0.241(9) 0.664(6) 0.388(7)
loop_
_geom_bond_atom_site_label_1
_geom_bond_atom_site_label_2
_geom_bond_site_symmetry_1
_geom_bond_site_symmetry_2
Cu1 Cl1 1_555 1_555
Cl2 Cu1 1_555 1_555
S1 C3 1_555 1_555
O1 C1 1_555 1_555
N1 C4 1_555 1_555
N2 Cu1 1_555 1_555
N3 C7 1_555 1_555
N4 Cu1 1_555 1_555
C1 C2 1_555 1_555
C2 C3 1_555 1_555
C3 C4 1_555 1_555
C4 C5 1_555 1_555
C5 H8 1_555 1_555
C6 S1 1_555 1_555
C7 N2 1_555 1_555
C8 C7 1_555 1_555
C9 N1 1_555 1_555
C10 C8 1_555 1_555
C11 N3 1_555 1_555
C12 C11 1_555 1_555
C13 O2 1_555 1_555
H1 C13 1_555 1_555
H2 C13 1_555 1_555
H3 C13 1_555 1_555
H4 C1 1_555 1_555
H5 C1 1_555 1_555
H6 C2 1_555 1_555
H7 C2 1_555 1_555
H9 C5 1_555 1_555
H10 C5 1_555 1_555
H11 C9 1_555 1_555
H12 C9 1_555 1_555
H13 C10 1_555 1_555
H14 C12 1_555 1_555
H15 C12 1_555 1_555
H16 C12 1_555 1_555
N4A C10 1_555 1_555
Cu1A N4A 1_555 1_555
N1 C6 1_555 1_555
N2 C6 1_555 1_555
C8 C9 1_555 1_555
C11 N4A 1_555 1_555

#END
