
#######################################################################
#
#                 Cambridge Crystallographic Data Centre
#                                CCDC 
#
#######################################################################
#
# If this CIF has been generated from an entry in the Cambridge 
# Structural Database, then it will include bibliographic, chemical, 
# crystal, experimental, refinement or atomic coordinate data resulting 
# from the CCDC's data processing and validation procedures.
#
#######################################################################

data_PIXRAP
_symmetry_cell_setting           triclinic
_symmetry_space_group_name_H-M   'P -1'
_symmetry_Int_Tables_number      2
_space_group_name_Hall           '-P 1'
loop_
_symmetry_equiv_pos_site_id
_symmetry_equiv_pos_as_xyz
1 x,y,z
2 -x,-y,-z
_cell_length_a                   10.973(5)
_cell_length_b                   12.037(4)
_cell_length_c                   14.112(9)
_cell_angle_alpha                73.19(4)
_cell_angle_beta                 76.12(4)
_cell_angle_gamma                73.59(3)
_cell_volume                     1686.02
loop_
_atom_site_label
_atom_site_type_symbol
_atom_site_fract_x
_atom_site_fract_y
_atom_site_fract_z
O1 O -0.1043(7) 0.1897(6) 0.4323(5)
O2 O 0.1792(7) -0.1040(7) 0.4103(5)
O3 O -0.0751(7) -0.0249(6) 0.3699(5)
O4 O 0.1518(7) 0.1108(6) 0.4717(5)
O5 O 0.5811(7) -0.1578(6) 0.1252(4)
O6 O 0.3452(7) 0.1668(6) 0.0360(5)
O7 O 0.3263(7) -0.0798(6) 0.0875(5)
O8 O 0.5997(7) 0.0909(6) 0.0735(5)
O9 O 0.3833(7) 0.0386(7) 0.2459(5)
O10 O -0.049(1) 0.3722(9) 0.2378(8)
Rh1 Rh 0.03987(7) 0.04651(7) 0.41497(5)
Rh2 Rh 0.46143(7) 0.00472(6) 0.08491(5)
C1 C -0.184(1) 0.1931(9) 0.5113(7)
C2 C -0.287(1) 0.303(1) 0.5182(8)
C3 C -0.375(1) 0.291(1) 0.619(1)
C4 C -0.368(1) 0.324(2) 0.436(1)
C5 C -0.226(2) 0.406(1) 0.496(2)
C6 C -0.146(1) -0.086(1) 0.4317(7)
C7 C -0.228(1) -0.140(1) 0.3960(8)
C8 C -0.241(2) -0.088(2) 0.291(1)
C9 C -0.195(3) -0.261(2) 0.421(2)
C10 C -0.355(2) -0.119(3) 0.453(2)
C11 C 0.6478(9) -0.2099(8) 0.0597(7)
C12 C 0.732(1) -0.3344(9) 0.0918(7)
C13 C 0.689(2) -0.387(1) 0.200(1)
C14 C 0.866(2) -0.321(2) 0.075(2)
C15 C 0.732(3) -0.411(1) 0.029(1)
C16 C 0.3260(9) -0.1146(9) 0.0113(7)
C17 C 0.237(1) -0.190(1) 0.0200(9)
C18 C 0.156(2) -0.215(2) 0.117(1)
C19 C 0.201(2) -0.190(2) -0.070(1)
C20 C 0.332(3) -0.322(2) 0.036(2)
C21 C 0.2831(9) 0.1142(9) 0.2510(6)
C22 C 0.165(1) 0.0886(9) 0.2419(6)
C23 C 0.054(1) 0.175(1) 0.2421(7)
C24 C 0.050(1) 0.296(1) 0.2487(8)
C25 C 0.169(1) 0.319(1) 0.2621(8)
C26 C 0.167(2) 0.430(1) 0.270(1)
C27 C 0.280(2) 0.455(1) 0.273(1)
C28 C 0.394(2) 0.370(1) 0.268(1)
C29 C 0.396(1) 0.259(1) 0.2609(9)
C30 C 0.282(1) 0.231(1) 0.2596(7)
H1 H -0.442 0.362 0.622
H2 H -0.418 0.226 0.631
H3 H -0.329 0.273 0.673
H4 H -0.436 0.392 0.436
H5 H -0.315 0.332 0.371
H6 H -0.405 0.256 0.447
H7 H -0.289 0.479 0.500
H8 H -0.170 0.393 0.544
H9 H -0.174 0.417 0.430
H10 H -0.292 -0.125 0.271
H11 H -0.278 -0.005 0.281
H12 H -0.157 -0.099 0.249
H13 H -0.251 -0.291 0.397
H14 H -0.109 -0.289 0.393
H15 H -0.207 -0.288 0.493
H16 H -0.408 -0.154 0.432
H17 H -0.351 -0.156 0.523
H18 H -0.390 -0.037 0.445
H19 H 0.739 -0.465 0.221
H20 H 0.692 -0.338 0.240
H21 H 0.600 -0.393 0.210
H22 H 0.925 -0.396 0.092
H23 H 0.893 -0.286 0.004
H24 H 0.872 -0.269 0.112
H25 H 0.788 -0.490 0.049
H26 H 0.649 -0.420 0.032
H27 H 0.767 -0.379 -0.040
H28 H 0.100 -0.264 0.117
H29 H 0.204 -0.254 0.169
H30 H 0.101 -0.141 0.131
H31 H 0.148 -0.246 -0.058
H32 H 0.165 -0.116 -0.105
H33 H 0.281 -0.223 -0.115
H34 H 0.291 -0.385 0.043
H35 H 0.404 -0.329 -0.021
H36 H 0.373 -0.343 0.094
H37 H 0.166 0.010 0.235
H38 H -0.025 0.156 0.238
H39 H 0.083 0.491 0.273
H40 H 0.277 0.533 0.280
H41 H 0.473 0.391 0.270
H42 H 0.479 0.198 0.256
C1A C 0.184(1) -0.1931(9) 0.4887(7)
O1A O 0.1043(7) -0.1897(6) 0.5677(5)
Rh1A Rh -0.03987(7) -0.04651(7) 0.58503(5)
O2A O -0.1792(7) 0.1040(7) 0.5897(5)
O3A O 0.0751(7) 0.0249(6) 0.6301(5)
C6A C 0.146(1) 0.086(1) 0.5683(7)
O4A O -0.1518(7) -0.1108(6) 0.5283(5)
O6A O 0.6548(7) -0.1668(6) -0.0360(5)
Rh2A Rh 0.53857(7) -0.00472(6) -0.08491(5)
O5A O 0.4189(7) 0.1578(6) -0.1252(4)
C11A C 0.3522(9) 0.2099(8) -0.0597(7)
O8A O 0.4003(7) -0.0909(6) -0.0735(5)
O7A O 0.6737(7) 0.0798(6) -0.0875(5)
C16A C 0.6740(9) 0.1146(9) -0.0113(7)
O9A O 0.6167(7) -0.0386(7) -0.2459(5)
C21A C 0.7169(9) -0.1142(9) -0.2510(6)
C22A C 0.835(1) -0.0886(9) -0.2419(6)
Rh1A_2 Rh 0.96013(7) -0.04651(7) -0.41497(5)
C23A C 0.946(1) -0.175(1) -0.2421(7)
H37A H 0.834 -0.010 -0.235
C24A C 0.950(1) -0.296(1) -0.2487(8)
O10A O 1.049(1) -0.3722(9) -0.2378(8)
C25A C 0.831(1) -0.319(1) -0.2621(8)
C26A C 0.833(2) -0.430(1) -0.270(1)
C27A C 0.720(2) -0.455(1) -0.273(1)
C28A C 0.606(2) -0.370(1) -0.268(1)
C29A C 0.604(1) -0.259(1) -0.2609(9)
C30A C 0.718(1) -0.231(1) -0.2596(7)
H42A H 0.521 -0.198 -0.256
H41A H 0.527 -0.391 -0.270
H40A H 0.723 -0.533 -0.280
H39A H 0.917 -0.491 -0.273
H38A H 1.025 -0.156 -0.238
C17A C 0.763(1) 0.190(1) -0.0200(9)
C18A C 0.844(2) 0.215(2) -0.117(1)
H28A H 0.900 0.264 -0.117
H29A H 0.796 0.254 -0.169
H30A H 0.899 0.141 -0.131
C19A C 0.799(2) 0.190(2) 0.070(1)
H31A H 0.852 0.246 0.058
H32A H 0.835 0.116 0.105
H33A H 0.719 0.223 0.115
C20A C 0.668(3) 0.322(2) -0.036(2)
H34A H 0.709 0.385 -0.043
H35A H 0.596 0.329 0.021
H36A H 0.627 0.343 -0.094
C12A C 0.268(1) 0.3344(9) -0.0918(7)
C13A C 0.311(2) 0.387(1) -0.200(1)
H19A H 0.261 0.465 -0.221
H20A H 0.308 0.338 -0.240
H21A H 0.400 0.393 -0.210
C14A C 0.134(2) 0.321(2) -0.075(2)
H22A H 0.075 0.396 -0.092
H23A H 0.107 0.286 -0.004
H24A H 0.128 0.269 -0.112
C15A C 0.268(3) 0.411(1) -0.029(1)
H25A H 0.212 0.490 -0.049
H26A H 0.351 0.420 -0.032
H27A H 0.233 0.379 0.040
C22A_2 C -0.165(1) -0.0886(9) 0.7581(6)
C23A_2 C -0.054(1) -0.175(1) 0.7579(7)
H37A_2 H -0.166 -0.010 0.765
H38A_2 H 0.025 -0.156 0.762
C7A C 0.228(1) 0.140(1) 0.6040(8)
C8A C 0.241(2) 0.088(2) 0.709(1)
H10A H 0.292 0.125 0.729
H11A H 0.278 0.005 0.719
H12A H 0.157 0.099 0.751
C9A C 0.195(3) 0.261(2) 0.579(2)
H13A H 0.251 0.291 0.603
H14A H 0.109 0.289 0.607
H15A H 0.207 0.288 0.507
C10A C 0.355(2) 0.119(3) 0.547(2)
H16A H 0.408 0.154 0.568
H17A H 0.351 0.156 0.477
H18A H 0.390 0.037 0.555
C2A C 0.287(1) -0.303(1) 0.4818(8)
C3A C 0.375(1) -0.291(1) 0.381(1)
H1A H 0.442 -0.362 0.378
H2A H 0.418 -0.226 0.369
H3A H 0.329 -0.273 0.327
C4A C 0.368(1) -0.324(2) 0.564(1)
H4A H 0.436 -0.392 0.564
H5A H 0.315 -0.332 0.629
H6A H 0.405 -0.256 0.553
C5A C 0.226(2) -0.406(1) 0.504(2)
H7A H 0.289 -0.479 0.500
H8A H 0.170 -0.393 0.456
H9A H 0.174 -0.417 0.570
loop_
_geom_bond_atom_site_label_1
_geom_bond_atom_site_label_2
_geom_bond_site_symmetry_1
_geom_bond_site_symmetry_2
O1 Rh1 1_555 1_555
O2 Rh1 1_555 1_555
O3 Rh1 1_555 1_555
O4 Rh1 1_555 1_555
O5 Rh2 1_555 1_555
O6 Rh2 1_555 1_555
O7 Rh2 1_555 1_555
O8 Rh2 1_555 1_555
O9 Rh2 1_555 1_555
O10 C24 1_555 1_555
Rh1 C22 1_555 1_555
Rh2 Rh2A 1_555 1_555
C1 O1 1_555 1_555
C2 C1 1_555 1_555
C3 C2 1_555 1_555
C4 C2 1_555 1_555
C5 C2 1_555 1_555
C6 O3 1_555 1_555
C7 C6 1_555 1_555
C8 C7 1_555 1_555
C9 C7 1_555 1_555
C10 C7 1_555 1_555
C11 O5 1_555 1_555
C12 C11 1_555 1_555
C13 C12 1_555 1_555
C14 C12 1_555 1_555
C15 C12 1_555 1_555
C16 O7 1_555 1_555
C17 C16 1_555 1_555
C18 C17 1_555 1_555
C19 C17 1_555 1_555
C20 C17 1_555 1_555
C21 O9 1_555 1_555
C22 C21 1_555 1_555
C23 Rh1 1_555 1_555
C24 C23 1_555 1_555
C25 C24 1_555 1_555
C26 C25 1_555 1_555
C27 C26 1_555 1_555
C28 C27 1_555 1_555
C29 C28 1_555 1_555
C30 C21 1_555 1_555
H1 C3 1_555 1_555
H2 C3 1_555 1_555
H3 C3 1_555 1_555
H4 C4 1_555 1_555
H5 C4 1_555 1_555
H6 C4 1_555 1_555
H7 C5 1_555 1_555
H8 C5 1_555 1_555
H9 C5 1_555 1_555
H10 C8 1_555 1_555
H11 C8 1_555 1_555
H12 C8 1_555 1_555
H13 C9 1_555 1_555
H14 C9 1_555 1_555
H15 C9 1_555 1_555
H16 C10 1_555 1_555
H17 C10 1_555 1_555
H18 C10 1_555 1_555
H19 C13 1_555 1_555
H20 C13 1_555 1_555
H21 C13 1_555 1_555
H22 C14 1_555 1_555
H23 C14 1_555 1_555
H24 C14 1_555 1_555
H25 C15 1_555 1_555
H26 C15 1_555 1_555
H27 C15 1_555 1_555
H28 C18 1_555 1_555
H29 C18 1_555 1_555
H30 C18 1_555 1_555
H31 C19 1_555 1_555
H32 C19 1_555 1_555
H33 C19 1_555 1_555
H34 C20 1_555 1_555
H35 C20 1_555 1_555
H36 C20 1_555 1_555
H37 C22 1_555 1_555
H38 C23 1_555 1_555
H39 C26 1_555 1_555
H40 C27 1_555 1_555
H41 C28 1_555 1_555
H42 C29 1_555 1_555
C1A O2 1_555 1_555
O1A C1A 1_555 1_555
Rh1A Rh1 1_555 1_555
O2A C1 1_555 1_555
O3A Rh1A 1_555 1_555
C6A O4 1_555 1_555
O4A C6 1_555 1_555
O6A C11 1_555 1_555
Rh2A O6A 1_555 1_555
O5A Rh2A 1_555 1_555
C11A O6 1_555 1_555
O8A C16 1_555 1_555
O7A Rh2A 1_555 1_555
C16A O8 1_555 1_555
O9A Rh2A 1_555 1_555
C21A O9A 1_555 1_555
C22A C21A 1_555 1_555
Rh1A_2 C22A 1_555 1_555
C23A C22A 1_555 1_555
H37A C22A 1_555 1_555
C24A C23A 1_555 1_555
O10A C24A 1_555 1_555
C25A C24A 1_555 1_555
C26A C25A 1_555 1_555
C27A C26A 1_555 1_555
C28A C27A 1_555 1_555
C29A C28A 1_555 1_555
C30A C21A 1_555 1_555
H42A C29A 1_555 1_555
H41A C28A 1_555 1_555
H40A C27A 1_555 1_555
H39A C26A 1_555 1_555
H38A C23A 1_555 1_555
C17A C16A 1_555 1_555
C18A C17A 1_555 1_555
H28A C18A 1_555 1_555
H29A C18A 1_555 1_555
H30A C18A 1_555 1_555
C19A C17A 1_555 1_555
H31A C19A 1_555 1_555
H32A C19A 1_555 1_555
H33A C19A 1_555 1_555
C20A C17A 1_555 1_555
H34A C20A 1_555 1_555
H35A C20A 1_555 1_555
H36A C20A 1_555 1_555
C12A C11A 1_555 1_555
C13A C12A 1_555 1_555
H19A C13A 1_555 1_555
H20A C13A 1_555 1_555
H21A C13A 1_555 1_555
C14A C12A 1_555 1_555
H22A C14A 1_555 1_555
H23A C14A 1_555 1_555
H24A C14A 1_555 1_555
C15A C12A 1_555 1_555
H25A C15A 1_555 1_555
H26A C15A 1_555 1_555
H27A C15A 1_555 1_555
C22A_2 Rh1A 1_555 1_555
C23A_2 Rh1A 1_555 1_555
H37A_2 C22A_2 1_555 1_555
H38A_2 C23A_2 1_555 1_555
C7A C6A 1_555 1_555
C8A C7A 1_555 1_555
H10A C8A 1_555 1_555
H11A C8A 1_555 1_555
H12A C8A 1_555 1_555
C9A C7A 1_555 1_555
H13A C9A 1_555 1_555
H14A C9A 1_555 1_555
H15A C9A 1_555 1_555
C10A C7A 1_555 1_555
H16A C10A 1_555 1_555
H17A C10A 1_555 1_555
H18A C10A 1_555 1_555
C2A C1A 1_555 1_555
C3A C2A 1_555 1_555
H1A C3A 1_555 1_555
H2A C3A 1_555 1_555
H3A C3A 1_555 1_555
C4A C2A 1_555 1_555
H4A C4A 1_555 1_555
H5A C4A 1_555 1_555
H6A C4A 1_555 1_555
C5A C2A 1_555 1_555
H7A C5A 1_555 1_555
H8A C5A 1_555 1_555
H9A C5A 1_555 1_555
C22 C23 1_555 1_555
C25 C30 1_555 1_555
C29 C30 1_555 1_555
O1A Rh1A 1_555 1_555
Rh1A O2A 1_555 1_555
Rh1A O4A 1_555 1_555
O3A C6A 1_555 1_555
Rh2A O8A 1_555 1_555
O5A C11A 1_555 1_555
O7A C16A 1_555 1_555
Rh1A_2 C23A 1_555 1_555
C25A C30A 1_555 1_555
C29A C30A 1_555 1_555
C22A_2 C23A_2 1_555 1_555

#END
