
#######################################################################
#
#                 Cambridge Crystallographic Data Centre
#                                CCDC 
#
#######################################################################
#
# If this CIF has been generated from an entry in the Cambridge 
# Structural Database, then it will include bibliographic, chemical, 
# crystal, experimental, refinement or atomic coordinate data resulting 
# from the CCDC's data processing and validation procedures.
#
#######################################################################

data_PIYTIC
_symmetry_cell_setting           orthorhombic
_symmetry_space_group_name_H-M   'P b c n'
_symmetry_Int_Tables_number      60
_space_group_name_Hall           '-P 2n 2ab'
loop_
_symmetry_equiv_pos_site_id
_symmetry_equiv_pos_as_xyz
1 x,y,z
2 1/2-x,1/2-y,1/2+z
3 1/2+x,1/2-y,-z
4 -x,y,1/2-z
5 -x,-y,-z
6 1/2+x,1/2+y,1/2-z
7 1/2-x,1/2+y,z
8 x,-y,1/2+z
_cell_length_a                   18.433(3)
_cell_length_b                   17.712(3)
_cell_length_c                   30.096(5)
_cell_angle_alpha                90
_cell_angle_beta                 90
_cell_angle_gamma                90
_cell_volume                     9825.9
loop_
_atom_site_label
_atom_site_type_symbol
_atom_site_fract_x
_atom_site_fract_y
_atom_site_fract_z
Cd1 Cd 0.0000 0.32486(2) 0.2500
O1 O 0.0083(4) -0.1930(3) 0.2858(2)
O2 O 0.0431(2) 0.2018(2) 0.27441(13)
O3 O 0.0834(2) 0.5689(3) 0.72150(11)
O4 O 0.1088(3) 0.6841(2) 0.69984(13)
N1 N 0.0538(2) 0.3625(2) 0.31828(11)
N2 N 0.2425(2) 0.4701(3) 0.51129(11)
C1 C 0.0000 -0.1603(5) 0.2500
C2 C 0.0000 -0.0762(4) 0.2500
C3 C 0.0324(2) -0.0360(2) 0.28448(13)
H1 H 0.0538 -0.0625 0.3086
C4 C 0.0336(2) 0.0424(2) 0.28410(12)
H2 H 0.0576 0.0691 0.3072
C5 C 0.0000 0.0819(3) 0.2500
C6 C 0.0000 0.1673(4) 0.2500
C7 C 0.0770(4) 0.3113(3) 0.34791(19)
H3 H 0.0690 0.2592 0.3420
C8 C 0.1123(4) 0.3314(3) 0.38697(19)
H4 H 0.1296 0.2935 0.4066
C9 C 0.1221(2) 0.4065(3) 0.39708(12)
C10 C 0.0943(2) 0.4590(3) 0.36790(13)
H5 H 0.0981 0.5114 0.3742
C11 C 0.0608(2) 0.4346(3) 0.32930(13)
H6 H 0.0417 0.4715 0.3096
C12 C 0.1636(2) 0.4290(3) 0.43736(12)
C13 C 0.2033(3) 0.3774(3) 0.46095(17)
H7 H 0.2033 0.3260 0.4520
C14 C 0.2433(4) 0.3990(4) 0.49763(16)
H8 H 0.2715 0.3627 0.5131
C15 C 0.2043(3) 0.5230(3) 0.48910(15)
H9 H 0.2043 0.5738 0.4993
C16 C 0.1655(2) 0.5037(3) 0.45190(13)
H10 H 0.1397 0.5415 0.4360
C17 C 0.2867(3) 0.4915(4) 0.55124(15)
H11 H 0.3237 0.5290 0.5424
H12 H 0.3123 0.4462 0.5625
C18 C 0.2406(2) 0.5239(3) 0.58769(13)
C19 C 0.1956(3) 0.4782(3) 0.61240(16)
H13 H 0.1924 0.4260 0.6053
C20 C 0.1551(3) 0.5063(3) 0.64735(16)
H14 H 0.1252 0.4733 0.6642
C21 C 0.1581(2) 0.5823(3) 0.65791(13)
C22 C 0.2026(3) 0.6285(3) 0.63286(15)
H15 H 0.2052 0.6808 0.6396
C23 C 0.2439(3) 0.6000(3) 0.59787(14)
H16 H 0.2743 0.6326 0.5811
C24 C 0.1139(3) 0.6138(3) 0.69614(14)
O1C O -0.0083(4) -0.1930(3) 0.2142(2)
O2C O -0.0431(2) 0.2018(2) 0.22559(13)
C3C C -0.0324(2) -0.0360(2) 0.21552(13)
H1C H -0.0538 -0.0625 0.1914
C4C C -0.0336(2) 0.0424(2) 0.21590(12)
H2C H -0.0576 0.0691 0.1928
O3C O -0.0834(2) 0.5689(3) -0.22150(11)
O4C O -0.1088(3) 0.6841(2) -0.19984(13)
N1C N -0.0538(2) 0.3625(2) 0.18172(11)
N2C N -0.2425(2) 0.4701(3) -0.01129(11)
C7C C -0.0770(4) 0.3113(3) 0.15209(19)
H3C H -0.0690 0.2592 0.1580
C8C C -0.1123(4) 0.3314(3) 0.11303(19)
H4C H -0.1296 0.2935 0.0934
C9C C -0.1221(2) 0.4065(3) 0.10292(12)
C10C C -0.0943(2) 0.4590(3) 0.13210(13)
H5C H -0.0981 0.5114 0.1258
C11C C -0.0608(2) 0.4346(3) 0.17070(13)
H6C H -0.0417 0.4715 0.1904
C12C C -0.1636(2) 0.4290(3) 0.06264(12)
C13C C -0.2033(3) 0.3774(3) 0.03905(17)
H7C H -0.2033 0.3260 0.0480
C14C C -0.2433(4) 0.3990(4) 0.00237(16)
H8C H -0.2715 0.3627 -0.0131
C15C C -0.2043(3) 0.5230(3) 0.01090(15)
H9C H -0.2043 0.5738 0.0007
C16C C -0.1655(2) 0.5037(3) 0.04810(13)
H10C H -0.1397 0.5415 0.0640
C17C C -0.2867(3) 0.4915(4) -0.05124(15)
H11C H -0.3237 0.5290 -0.0424
H12C H -0.3123 0.4462 -0.0625
C18C C -0.2406(2) 0.5239(3) -0.08769(13)
C19C C -0.1956(3) 0.4782(3) -0.11240(16)
H13C H -0.1924 0.4260 -0.1053
C20C C -0.1551(3) 0.5063(3) -0.14735(16)
H14C H -0.1252 0.4733 -0.1642
C21C C -0.1581(2) 0.5823(3) -0.15791(13)
C22C C -0.2026(3) 0.6285(3) -0.13286(15)
H15C H -0.2052 0.6808 -0.1396
C23C C -0.2439(3) 0.6000(3) -0.09787(14)
H16C H -0.2743 0.6326 -0.0811
C24C C -0.1139(3) 0.6138(3) -0.19614(14)
Cd1D Cd 0.0000 0.67514(2) -0.2500
Cd1D_2 Cd 0.0000 0.67514(2) 0.7500
O3D O -0.0834(2) 0.4311(3) 0.27850(11)
O3G O 0.0834(2) 0.4311(3) 0.22150(11)
O4D O -0.1088(3) 0.3159(2) 0.30016(13)
O4G O 0.1088(3) 0.3159(2) 0.19984(13)
Cd2 Cd -0.01247(2) 0.817375(17) 0.504038(11)
Cl1 Cl -0.13637(12) 0.86090(17) 0.51521(9)
O5 O -0.0514(3) 0.6954(2) 0.4763(2)
O6 O 0.0313(3) 0.6994(2) 0.52662(14)
O7 O 0.0747(4) 1.0795(3) 0.97367(17)
O8 O 0.0410(4) 1.1787(3) 0.93740(17)
N3 N 0.0350(2) 0.8625(2) 0.57027(11)
N4 N 0.2235(2) 1.0078(3) 0.75465(11)
C25 C -0.0089(3) 0.6632(3) 0.50101(18)
C26 C -0.0038(2) 0.5780(3) 0.50032(15)
C27 C 0.0310(3) 0.5411(2) 0.53409(14)
H17 H 0.0529 0.5690 0.5574
C28 C 0.0344(3) 0.4616(2) 0.53427(14)
H18 H 0.0575 0.4357 0.5580
C29 C 0.0681(4) 0.8177(3) 0.59928(17)
H19 H 0.0675 0.7647 0.5942
C30 C 0.1034(4) 0.8451(3) 0.63662(16)
H20 H 0.1268 0.8112 0.6565
C31 C 0.1046(2) 0.9213(2) 0.64490(11)
C32 C 0.0675(2) 0.9674(2) 0.61528(12)
H21 H 0.0653 1.0203 0.6202
C33 C 0.0338(2) 0.9364(2) 0.57885(13)
H22 H 0.0087 0.9689 0.5590
C34 C 0.1453(2) 0.9525(2) 0.68333(11)
C35 C 0.1783(3) 0.9049(3) 0.71421(16)
H23 H 0.1740 0.8517 0.7110
C36 C 0.2163(3) 0.9336(4) 0.74863(15)
H24 H 0.2385 0.9001 0.7691
C37 C 0.1923(2) 1.0562(3) 0.72651(14)
H25 H 0.1973 1.1090 0.7311
C38 C 0.1523(2) 1.0295(3) 0.69032(14)
H26 H 0.1300 1.0642 0.6705
C39 C 0.2654(3) 1.0371(4) 0.79367(16)
H27 H 0.2933 1.0823 0.7846
H28 H 0.3004 0.9982 0.8036
C40 C 0.2154(2) 1.0576(3) 0.83212(13)
C41 C 0.1948(3) 1.0043(3) 0.86244(15)
H29 H 0.2109 0.9537 0.8592
C42 C 0.1506(3) 1.0236(3) 0.89796(15)
H30 H 0.1371 0.9863 0.9191
C43 C 0.1258(2) 1.0975(2) 0.90277(13)
C44 C 0.1454(3) 1.1508(3) 0.87148(16)
H31 H 0.1274 1.2009 0.8737
C45 C 0.1918(3) 1.1311(3) 0.83663(16)
H32 H 0.2070 1.1684 0.8160
C46 C 0.0788(3) 1.1197(3) 0.94087(14)
O5D O 0.0514(3) 0.3046(2) 0.5237(2)
O6D O -0.0313(3) 0.3006(2) 0.47338(14)
C25D C 0.0089(3) 0.3368(3) 0.49899(18)
C26D C 0.0038(2) 0.4220(3) 0.49968(15)
C27D C -0.0310(3) 0.4589(2) 0.46591(14)
H17D H -0.0529 0.4310 0.4426
C28D C -0.0344(3) 0.5384(2) 0.46573(14)
H18D H -0.0575 0.5643 0.4420
Cd2D Cd 0.01247(2) 0.182625(17) 0.495962(11)
Cl1D Cl 0.13637(12) 0.13910(17) 0.48479(9)
O7D O -0.0747(4) -0.0795(3) 0.02633(17)
O8D O -0.0410(4) -0.1787(3) 0.06260(17)
N3D N -0.0350(2) 0.1375(2) 0.42973(11)
N4D N -0.2235(2) -0.0078(3) 0.24535(11)
C29D C -0.0681(4) 0.1823(3) 0.40072(17)
H19D H -0.0675 0.2353 0.4058
C30D C -0.1034(4) 0.1549(3) 0.36338(16)
H20D H -0.1268 0.1888 0.3435
C31D C -0.1046(2) 0.0787(2) 0.35510(11)
C32D C -0.0675(2) 0.0326(2) 0.38472(12)
H21D H -0.0653 -0.0203 0.3798
C33D C -0.0338(2) 0.0636(2) 0.42115(13)
H22D H -0.0087 0.0311 0.4410
C34D C -0.1453(2) 0.0475(2) 0.31667(11)
C35D C -0.1783(3) 0.0951(3) 0.28579(16)
H23D H -0.1740 0.1483 0.2890
C36D C -0.2163(3) 0.0664(4) 0.25137(15)
H24D H -0.2385 0.0999 0.2309
C37D C -0.1923(2) -0.0562(3) 0.27349(14)
H25D H -0.1973 -0.1090 0.2689
C38D C -0.1523(2) -0.0295(3) 0.30968(14)
H26D H -0.1300 -0.0642 0.3295
C39D C -0.2654(3) -0.0371(4) 0.20633(16)
H27D H -0.2933 -0.0823 0.2154
H28D H -0.3004 0.0018 0.1964
C40D C -0.2154(2) -0.0576(3) 0.16788(13)
C41D C -0.1948(3) -0.0043(3) 0.13756(15)
H29D H -0.2109 0.0463 0.1408
C42D C -0.1506(3) -0.0236(3) 0.10204(15)
H30D H -0.1371 0.0137 0.0809
C43D C -0.1258(2) -0.0975(2) 0.09723(13)
C44D C -0.1454(3) -0.1508(3) 0.12852(16)
H31D H -0.1274 -0.2009 0.1263
C45D C -0.1918(3) -0.1311(3) 0.16337(16)
H32D H -0.2070 -0.1684 0.1840
C46D C -0.0788(3) -0.1197(3) 0.05913(14)
Cd2C Cd 0.01247(2) -0.182625(17) -0.004038(11)
Cd2G Cd -0.01247(2) 1.182625(17) 1.004038(11)
O7C O -0.0747(4) 0.0795(3) 0.52633(17)
O7G O 0.0747(4) 0.9205(3) 0.47367(17)
O8C O -0.0410(4) 0.1787(3) 0.56260(17)
O8G O 0.0410(4) 0.8213(3) 0.43740(17)
O9 O 0.1844(5) 0.2809(6) 0.0098(3)
O10 O 0.3095(7) 0.2176(5) 0.0724(4)
O11 O 0.3364(9) 0.2174(10) 0.1657(6)
O12 O -0.2464(9) 0.8110(6) 0.5855(6)
O13 O 0.2382(6) 0.2719(4) 0.2435(3)
O14 O 0.0599(4) 0.8360(3) 0.13575(19)
O15 O 0.1023(8) 0.5814(6) 0.2449(3)
O16 O 0.0809(9) 0.6590(4) 0.4018(4)
O17 O 0.0000 0.6833(10) 0.2500
O18 O 0.0182(14) 0.6579(14) 0.3117(8)
O19 O 0.0751(8) 0.6748(7) 0.3098(5)
O20 O 0.2744(9) 0.8272(8) 0.8307(5)
O21 O 0.1938(12) 0.7996(12) 0.8105(7)
loop_
_geom_bond_atom_site_label_1
_geom_bond_atom_site_label_2
_geom_bond_site_symmetry_1
_geom_bond_site_symmetry_2
Cd1 O2 1_555 1_555
O1 C1 1_555 1_555
O2 C6 1_555 1_555
O3 C24 1_555 1_555
O4 C24 1_555 1_555
N1 Cd1 1_555 1_555
N2 C14 1_555 1_555
C1 C2 1_555 1_555
C2 C3 1_555 1_555
C3 H1 1_555 1_555
C4 C3 1_555 1_555
H2 C4 1_555 1_555
C5 C4 1_555 1_555
C6 C5 1_555 1_555
C7 N1 1_555 1_555
H3 C7 1_555 1_555
C8 C7 1_555 1_555
H4 C8 1_555 1_555
C9 C8 1_555 1_555
C10 C9 1_555 1_555
H5 C10 1_555 1_555
C11 N1 1_555 1_555
H6 C11 1_555 1_555
C12 C9 1_555 1_555
C13 C12 1_555 1_555
H7 C13 1_555 1_555
C14 C13 1_555 1_555
H8 C14 1_555 1_555
C15 N2 1_555 1_555
H9 C15 1_555 1_555
C16 C12 1_555 1_555
H10 C16 1_555 1_555
C17 N2 1_555 1_555
H11 C17 1_555 1_555
H12 C17 1_555 1_555
C18 C17 1_555 1_555
C19 C18 1_555 1_555
H13 C19 1_555 1_555
C20 C19 1_555 1_555
H14 C20 1_555 1_555
C21 C20 1_555 1_555
C22 C21 1_555 1_555
H15 C22 1_555 1_555
C23 C18 1_555 1_555
H16 C23 1_555 1_555
C24 C21 1_555 1_555
Cd2 Cl1 1_555 1_555
O5 Cd2 1_555 1_555
O6 Cd2 1_555 1_555
O7 C46 1_555 1_555
O8 C46 1_555 1_555
N3 Cd2 1_555 1_555
N4 C36 1_555 1_555
C25 O5 1_555 1_555
C26 C25 1_555 1_555
C27 C26 1_555 1_555
H17 C27 1_555 1_555
C28 C27 1_555 1_555
H18 C28 1_555 1_555
C29 N3 1_555 1_555
H19 C29 1_555 1_555
C30 C29 1_555 1_555
H20 C30 1_555 1_555
C31 C30 1_555 1_555
C32 C31 1_555 1_555
H21 C32 1_555 1_555
C33 N3 1_555 1_555
H22 C33 1_555 1_555
C34 C31 1_555 1_555
C35 C34 1_555 1_555
H23 C35 1_555 1_555
C36 C35 1_555 1_555
H24 C36 1_555 1_555
C37 N4 1_555 1_555
H25 C37 1_555 1_555
C38 C34 1_555 1_555
H26 C38 1_555 1_555
C39 N4 1_555 1_555
H27 C39 1_555 1_555
H28 C39 1_555 1_555
C40 C39 1_555 1_555
C41 C40 1_555 1_555
H29 C41 1_555 1_555
C42 C41 1_555 1_555
H30 C42 1_555 1_555
C43 C42 1_555 1_555
C44 C43 1_555 1_555
H31 C44 1_555 1_555
C45 C40 1_555 1_555
H32 C45 1_555 1_555
C46 C43 1_555 1_555
O1C C1 1_555 1_555
O2C Cd1 1_555 1_555
C3C C2 1_555 1_555
H1C C3C 1_555 1_555
C4C C5 1_555 1_555
H2C C4C 1_555 1_555
O3C C24C 1_555 1_555
O4C C24C 1_555 1_555
N1C Cd1 1_555 1_555
N2C C14C 1_555 1_555
C7C N1C 1_555 1_555
H3C C7C 1_555 1_555
C8C C7C 1_555 1_555
H4C C8C 1_555 1_555
C9C C8C 1_555 1_555
C10C C9C 1_555 1_555
H5C C10C 1_555 1_555
C11C N1C 1_555 1_555
H6C C11C 1_555 1_555
C12C C9C 1_555 1_555
C13C C12C 1_555 1_555
H7C C13C 1_555 1_555
C14C C13C 1_555 1_555
H8C C14C 1_555 1_555
C15C N2C 1_555 1_555
H9C C15C 1_555 1_555
C16C C12C 1_555 1_555
H10C C16C 1_555 1_555
C17C N2C 1_555 1_555
H11C C17C 1_555 1_555
H12C C17C 1_555 1_555
C18C C17C 1_555 1_555
C19C C18C 1_555 1_555
H13C C19C 1_555 1_555
C20C C19C 1_555 1_555
H14C C20C 1_555 1_555
C21C C20C 1_555 1_555
C22C C21C 1_555 1_555
H15C C22C 1_555 1_555
C23C C18C 1_555 1_555
H16C C23C 1_555 1_555
C24C C21C 1_555 1_555
Cd1D O3C 1_555 1_555
Cd1D_2 O3 1_555 1_555
O3D Cd1 1_555 1_555
O3G Cd1 1_555 1_555
O4D Cd1 1_555 1_555
O4G Cd1 1_555 1_555
O5D C25D 1_555 1_555
O6D C25D 1_555 1_555
C25D C26D 1_555 1_555
C26D C28 1_555 1_555
C27D C26D 1_555 1_555
H17D C27D 1_555 1_555
C28D C26 1_555 1_555
H18D C28D 1_555 1_555
Cd2D O5D 1_555 1_555
Cl1D Cd2D 1_555 1_555
O7D C46D 1_555 1_555
O8D C46D 1_555 1_555
N3D Cd2D 1_555 1_555
N4D C36D 1_555 1_555
C29D N3D 1_555 1_555
H19D C29D 1_555 1_555
C30D C29D 1_555 1_555
H20D C30D 1_555 1_555
C31D C30D 1_555 1_555
C32D C31D 1_555 1_555
H21D C32D 1_555 1_555
C33D N3D 1_555 1_555
H22D C33D 1_555 1_555
C34D C31D 1_555 1_555
C35D C34D 1_555 1_555
H23D C35D 1_555 1_555
C36D C35D 1_555 1_555
H24D C36D 1_555 1_555
C37D N4D 1_555 1_555
H25D C37D 1_555 1_555
C38D C34D 1_555 1_555
H26D C38D 1_555 1_555
C39D N4D 1_555 1_555
H27D C39D 1_555 1_555
H28D C39D 1_555 1_555
C40D C39D 1_555 1_555
C41D C40D 1_555 1_555
H29D C41D 1_555 1_555
C42D C41D 1_555 1_555
H30D C42D 1_555 1_555
C43D C42D 1_555 1_555
C44D C43D 1_555 1_555
H31D C44D 1_555 1_555
C45D C40D 1_555 1_555
H32D C45D 1_555 1_555
C46D C43D 1_555 1_555
Cd2C O7D 1_555 1_555
Cd2G O7 1_555 1_555
O7C Cd2D 1_555 1_555
O7G Cd2 1_555 1_555
O8C Cd2D 1_555 1_555
O8G Cd2 1_555 1_555
O4 Cd1D_2 1_555 1_555
C6 O2C 1_555 1_555
C10 C11 1_555 1_555
C15 C16 1_555 1_555
C22 C23 1_555 1_555
O6 C25 1_555 1_555
O8 Cd2G 1_555 1_555
C32 C33 1_555 1_555
C37 C38 1_555 1_555
C44 C45 1_555 1_555
C3C C4C 1_555 1_555
O4C Cd1D 1_555 1_555
C10C C11C 1_555 1_555
C15C C16C 1_555 1_555
C22C C23C 1_555 1_555
O6D Cd2D 1_555 1_555
C27D C28D 1_555 1_555
O8D Cd2C 1_555 1_555
C32D C33D 1_555 1_555
C37D C38D 1_555 1_555
C44D C45D 1_555 1_555

#END
