
#######################################################################
#
#                 Cambridge Crystallographic Data Centre
#                                CCDC 
#
#######################################################################
#
# If this CIF has been generated from an entry in the Cambridge 
# Structural Database, then it will include bibliographic, chemical, 
# crystal, experimental, refinement or atomic coordinate data resulting 
# from the CCDC's data processing and validation procedures.
#
#######################################################################

data_PIYWUQ
_symmetry_cell_setting           triclinic
_symmetry_space_group_name_H-M   'P -1'
_symmetry_Int_Tables_number      2
_space_group_name_Hall           '-P 1'
loop_
_symmetry_equiv_pos_site_id
_symmetry_equiv_pos_as_xyz
1 x,y,z
2 -x,-y,-z
_cell_length_a                   10.1270(1)
_cell_length_b                   12.6120(1)
_cell_length_c                   16.6790(2)
_cell_angle_alpha                75.459(1)
_cell_angle_beta                 88.924(1)
_cell_angle_gamma                87.271(1)
_cell_volume                     2059.64
loop_
_atom_site_label
_atom_site_type_symbol
_atom_site_fract_x
_atom_site_fract_y
_atom_site_fract_z
Cd1 Cd -0.060110(11) -0.218617(10) -0.102688(7)
Cd2 Cd 0.0000 0.0000 0.0000
Cd3 Cd 0.591850(11) -0.721051(10) 0.400527(7)
Cd4 Cd 0.5000 -0.5000 0.5000
O1 O 0.14845(13) -0.13934(11) 0.00971(9)
O2 O 0.10229(14) -0.29714(11) -0.01955(9)
O3 O 0.48774(14) -0.58606(11) 0.30941(8)
O4 O 0.47091(16) -0.44126(12) 0.36444(9)
O5 O 0.04950(15) -0.08772(11) -0.18960(9)
O6 O 0.02794(15) 0.05982(11) -0.13755(8)
O7 O 0.44793(13) 0.19768(11) -0.50565(9)
O8 O 0.36654(13) 0.35709(11) -0.48496(8)
O9 O -0.27443(13) -0.13409(12) -0.12321(8)
O10 O -0.16262(12) -0.11599(10) -0.01564(8)
O11 O -0.06441(16) -0.29206(12) -0.21228(9)
O12 O -0.17036(16) -0.37287(13) -0.01954(9)
O13 O 0.79840(12) -0.63506(11) 0.37680(8)
O14 O 0.67807(12) -0.61682(10) 0.48486(8)
O15 O 0.72666(14) -0.87079(12) 0.47264(9)
O16 O 0.55569(15) -0.81017(11) 0.30076(9)
N1 N -0.09859(16) -0.23648(15) -0.35010(10)
N2 N -0.16482(19) -0.40326(15) 0.12080(11)
N3 N 0.57713(16) -0.71282(15) 0.16646(10)
N4 N 0.73207(19) -0.92438(15) 0.61289(11)
C1 C 0.15699(17) -0.24134(15) 0.02288(11)
C2 C 0.23855(17) -0.30470(15) 0.09522(11)
C3 C 0.2855(2) -0.25176(16) 0.15184(13)
H1 H 0.2698 -0.1749 0.1435
C4 C 0.3557(2) -0.31113(16) 0.22083(13)
H2 H 0.3860 -0.2750 0.2601
C5 C 0.38141(18) -0.42330(15) 0.23235(11)
C6 C 0.33748(19) -0.47532(15) 0.17432(12)
H3 H 0.3571 -0.5515 0.1812
C7 C 0.26505(19) -0.41684(16) 0.10617(12)
H4 H 0.2338 -0.4532 0.0672
C8 C 0.45330(17) -0.48881(15) 0.30847(11)
C9 C 0.06899(17) 0.01029(15) -0.19013(11)
C10 C 0.14860(18) 0.07415(15) -0.26198(11)
C11 C 0.1428(2) 0.18811(16) -0.28249(13)
H5 H 0.0884 0.2262 -0.2509
C12 C 0.2161(2) 0.24695(16) -0.34906(13)
H6 H 0.2109 0.3248 -0.3630
C13 C 0.29693(17) 0.19177(14) -0.39511(11)
C14 C 0.3031(2) 0.07763(15) -0.37418(12)
H7 H 0.3587 0.0394 -0.4051
C15 C 0.2285(2) 0.01907(16) -0.30850(12)
H8 H 0.2322 -0.0588 -0.2954
C16 C 0.37694(17) 0.25457(15) -0.46688(11)
C17 C -0.26808(17) -0.10106(15) -0.05874(11)
C18 C -0.38729(17) -0.04747(15) -0.02842(12)
C19 C -0.50089(18) -0.02294(16) -0.07727(12)
H9 H -0.5013 -0.0387 -0.1300
C20 C -0.38689(18) -0.02447(16) 0.04878(12)
H10 H -0.3099 -0.0412 0.0821
C21 C -0.0294(2) -0.24258(16) -0.28367(12)
H11 H 0.0524 -0.2074 -0.2899
C22 C -0.0532(2) -0.1791(2) -0.43180(14)
H12 H -0.1142 -0.1165 -0.4545
H13 H -0.0503 -0.2292 -0.4683
H14 H 0.0354 -0.1530 -0.4278
C23 C -0.2254(2) -0.2876(3) -0.34474(16)
H15 H -0.2433 -0.3259 -0.2871
H16 H -0.2229 -0.3402 -0.3792
H17 H -0.2954 -0.2311 -0.3643
C24 C -0.1219(2) -0.41789(16) 0.04905(13)
H18 H -0.0476 -0.4671 0.0499
C25 C -0.2765(3) -0.3285(3) 0.12547(18)
H19 H -0.2443 -0.2577 0.1289
H20 H -0.3297 -0.3592 0.1748
H21 H -0.3309 -0.3181 0.0759
C26 C -0.0927(3) -0.4534(2) 0.19712(14)
H22 H -0.0286 -0.5094 0.1871
H23 H -0.1552 -0.4874 0.2405
H24 H -0.0462 -0.3969 0.2149
C27 C 0.78403(17) -0.60209(14) 0.44114(11)
C28 C 0.89530(16) -0.54801(14) 0.47142(11)
C29 C 1.00721(18) -0.52083(16) 0.42203(12)
H25 H 1.0121 -0.5351 0.3687
C30 C 0.88822(18) -0.52704(16) 0.54961(12)
H26 H 0.8120 -0.5454 0.5835
C31 C 0.6887(2) -0.92833(17) 0.53983(13)
H27 H 0.6232 -0.9793 0.5386
C32 C 0.8302(3) -0.8469(3) 0.62045(18)
H28 H 0.9114 -0.8871 0.6440
H29 H 0.7958 -0.8017 0.6568
H30 H 0.8494 -0.7997 0.5656
C33 C 0.6811(3) -0.9940(3) 0.68927(17)
H31 H 0.6190 -1.0443 0.6760
H32 H 0.6355 -0.9483 0.7217
H33 H 0.7546 -1.0363 0.7215
C34 C 0.5156(2) -0.77748(16) 0.22820(12)
H34 H 0.4323 -0.8018 0.2165
C35 C 0.7029(3) -0.6689(3) 0.17920(17)
H35 H 0.6930 -0.5889 0.1683
H36 H 0.7693 -0.6886 0.1413
H37 H 0.7312 -0.6996 0.2365
C36 C 0.5204(2) -0.6801(2) 0.08376(13)
H38 H 0.4321 -0.7089 0.0851
H39 H 0.5771 -0.7093 0.0454
H40 H 0.5140 -0.5999 0.0652
Cd1A Cd 0.060110(11) 0.218617(10) 0.102688(7)
Cd1A_2 Cd -0.939890(11) 0.218617(10) 0.102688(7)
Cd2_2 Cd -1.0000 0.0000 0.0000
Cd3A Cd -0.591850(11) 0.721051(10) -0.400527(7)
Cd3_2 Cd 0.591850(11) 0.278949(10) -0.599473(7)
Cd3A_2 Cd 1.408150(11) -0.278949(10) 0.599473(7)
Cd3A_3 Cd -0.591850(11) -0.278949(10) 0.599473(7)
Cd4_2 Cd 0.5000 0.5000 -0.5000
Cd4_3 Cd 1.5000 -0.5000 0.5000
Cd4_4 Cd -0.5000 0.5000 -0.5000
Cd4_5 Cd -0.5000 -0.5000 0.5000
O1A O -0.14845(13) 0.13934(11) -0.00971(9)
O2A O -0.10229(14) 0.29714(11) 0.01955(9)
O3A O -0.48774(14) 0.58606(11) -0.30941(8)
O4A O -0.47091(16) 0.44126(12) -0.36444(9)
O4A_2 O 0.52909(16) -0.55874(12) 0.63556(9)
O5A O -0.04950(15) 0.08772(11) 0.18960(9)
O6A O -0.02794(15) -0.05982(11) 0.13755(8)
O7A O -0.44793(13) -0.19768(11) 0.50565(9)
O7_2 O 0.44793(13) -0.80232(11) 0.49435(9)
O7A_2 O -0.44793(13) 0.80232(11) -0.49435(9)
O8A O -0.36654(13) -0.35709(11) 0.48496(8)
O8_2 O 0.36654(13) -0.64291(11) 0.51504(8)
O8A_2 O 0.63346(13) -0.35709(11) 0.48496(8)
O9A O -0.72557(13) 0.13409(12) 0.12321(8)
O9A_2 O 0.27443(13) 0.13409(12) 0.12321(8)
O10A O -0.83738(12) 0.11599(10) 0.01564(8)
O10A_2 O 0.16262(12) 0.11599(10) 0.01564(8)
O11A O 0.06441(16) 0.29206(12) 0.21228(9)
O12A O 0.17036(16) 0.37287(13) 0.01954(9)
O13A O 1.20160(12) -0.36494(11) 0.62320(8)
O13A_2 O -0.79840(12) 0.63506(11) -0.37680(8)
O14A O 1.32193(12) -0.38318(10) 0.51514(8)
O14A_2 O 0.32193(12) -0.38318(10) 0.51514(8)
O14A_3 O -0.67807(12) 0.61682(10) -0.48486(8)
O15A O -0.72666(14) 0.87079(12) -0.47264(9)
O16A O -0.55569(15) 0.81017(11) -0.30076(9)
N1A N 0.09859(16) 0.23648(15) 0.35010(10)
N2A N 0.16482(19) 0.40326(15) -0.12080(11)
N3A N -0.57713(16) 0.71282(15) -0.16646(10)
N4A N -0.73207(19) 0.92438(15) -0.61289(11)
C1A C -0.15699(17) 0.24134(15) -0.02288(11)
C2A C -0.23855(17) 0.30470(15) -0.09522(11)
C3A C -0.2855(2) 0.25176(16) -0.15184(13)
H1A H -0.2698 0.1749 -0.1435
C4A C -0.3557(2) 0.31113(16) -0.22083(13)
H2A H -0.3860 0.2750 -0.2601
C5A C -0.38141(18) 0.42330(15) -0.23235(11)
C6A C -0.33748(19) 0.47532(15) -0.17432(12)
H3A H -0.3571 0.5515 -0.1812
C7A C -0.26505(19) 0.41684(16) -0.10617(12)
H4A H -0.2338 0.4532 -0.0672
C8A C -0.45330(17) 0.48881(15) -0.30847(11)
C9A C -0.06899(17) -0.01029(15) 0.19013(11)
C10A C -0.14860(18) -0.07415(15) 0.26198(11)
C11A C -0.1428(2) -0.18811(16) 0.28249(13)
H5A H -0.0884 -0.2262 0.2509
C12A C -0.2161(2) -0.24695(16) 0.34906(13)
H6A H -0.2109 -0.3248 0.3630
C13A C -0.29693(17) -0.19177(14) 0.39511(11)
C14A C -0.3031(2) -0.07763(15) 0.37418(12)
H7A H -0.3587 -0.0394 0.4051
C15A C -0.2285(2) -0.01907(16) 0.30850(12)
H8A H -0.2322 0.0588 0.2954
C16A C -0.37694(17) -0.25457(15) 0.46688(11)
C17A C -0.73192(17) 0.10106(15) 0.05874(11)
C18A C -0.61271(17) 0.04747(15) 0.02842(12)
C19A C -0.49911(18) 0.02294(16) 0.07727(12)
H9A H -0.4987 0.0387 0.1300
C20A C -0.61311(18) 0.02447(16) -0.04878(12)
H10A H -0.6901 0.0412 -0.0821
C21A C 0.0294(2) 0.24258(16) 0.28367(12)
H11A H -0.0524 0.2074 0.2899
C22A C 0.0532(2) 0.1791(2) 0.43180(14)
H12A H 0.1142 0.1165 0.4545
H13A H 0.0503 0.2292 0.4683
H14A H -0.0354 0.1530 0.4278
C23A C 0.2254(2) 0.2876(3) 0.34474(16)
H15A H 0.2433 0.3259 0.2871
H16A H 0.2229 0.3402 0.3792
H17A H 0.2954 0.2311 0.3643
C24A C 0.1219(2) 0.41789(16) -0.04905(13)
H18A H 0.0476 0.4671 -0.0499
C25A C 0.2765(3) 0.3285(3) -0.12547(18)
H19A H 0.2443 0.2577 -0.1289
H20A H 0.3297 0.3592 -0.1748
H21A H 0.3309 0.3181 -0.0759
C26A C 0.0927(3) 0.4534(2) -0.19712(14)
H22A H 0.0286 0.5094 -0.1871
H23A H 0.1552 0.4874 -0.2405
H24A H 0.0462 0.3969 -0.2149
C27A C 1.21597(17) -0.39791(14) 0.55886(11)
C28A C 1.10470(16) -0.45199(14) 0.52858(11)
C29A C 0.99279(18) -0.47917(16) 0.57797(12)
H25A H 0.9879 -0.4649 0.6313
C30A C 1.11178(18) -0.47296(16) 0.45039(12)
H26A H 1.1880 -0.4546 0.4165
C31A C -0.6887(2) 0.92833(17) -0.53983(13)
H27A H -0.6232 0.9793 -0.5386
C32A C -0.8302(3) 0.8469(3) -0.62045(18)
H28A H -0.9114 0.8871 -0.6440
H29A H -0.7958 0.8017 -0.6568
H30A H -0.8494 0.7997 -0.5656
C33A C -0.6811(3) 0.9940(3) -0.68927(17)
H31A H -0.6190 1.0443 -0.6760
H32A H -0.6355 0.9483 -0.7217
H33A H -0.7546 1.0363 -0.7215
C34A C -0.5156(2) 0.77748(16) -0.22820(12)
H34A H -0.4323 0.8018 -0.2165
C35A C -0.7029(3) 0.6689(3) -0.17920(17)
H35A H -0.6930 0.5889 -0.1683
H36A H -0.7693 0.6886 -0.1413
H37A H -0.7312 0.6996 -0.2365
C36A C -0.5204(2) 0.6801(2) -0.08376(13)
H38A H -0.4321 0.7089 -0.0851
H39A H -0.5771 0.7093 -0.0454
H40A H -0.5140 0.5999 -0.0652
loop_
_geom_bond_atom_site_label_1
_geom_bond_atom_site_label_2
_geom_bond_site_symmetry_1
_geom_bond_site_symmetry_2
Cd1 O2 1_555 1_555
Cd2 O1 1_555 1_555
Cd3 O3 1_555 1_555
Cd4 O4 1_555 1_555
O1 C1 1_555 1_555
O2 C1 1_555 1_555
O3 C8 1_555 1_555
O4 C8 1_555 1_555
O5 Cd1 1_555 1_555
O6 Cd2 1_555 1_555
O7 C16 1_555 1_555
O8 C16 1_555 1_555
O9 Cd1 1_555 1_555
O10 Cd1 1_555 1_555
O11 Cd1 1_555 1_555
O12 Cd1 1_555 1_555
O13 Cd3 1_555 1_555
O14 Cd3 1_555 1_555
O15 Cd3 1_555 1_555
O16 Cd3 1_555 1_555
N1 C21 1_555 1_555
N2 C24 1_555 1_555
N3 C34 1_555 1_555
N4 C31 1_555 1_555
C1 C2 1_555 1_555
C2 C3 1_555 1_555
C3 H1 1_555 1_555
C4 C3 1_555 1_555
H2 C4 1_555 1_555
C5 C4 1_555 1_555
C6 C5 1_555 1_555
H3 C6 1_555 1_555
C7 C2 1_555 1_555
H4 C7 1_555 1_555
C8 C5 1_555 1_555
C9 O5 1_555 1_555
C10 C9 1_555 1_555
C11 C10 1_555 1_555
H5 C11 1_555 1_555
C12 C11 1_555 1_555
H6 C12 1_555 1_555
C13 C12 1_555 1_555
C14 C13 1_555 1_555
H7 C14 1_555 1_555
C15 C10 1_555 1_555
H8 C15 1_555 1_555
C16 C13 1_555 1_555
C17 O9 1_555 1_555
C18 C17 1_555 1_555
C19 C18 1_555 1_555
H9 C19 1_555 1_555
C20 C18 1_555 1_555
H10 C20 1_555 1_555
C21 O11 1_555 1_555
H11 C21 1_555 1_555
C22 N1 1_555 1_555
H12 C22 1_555 1_555
H13 C22 1_555 1_555
H14 C22 1_555 1_555
C23 N1 1_555 1_555
H15 C23 1_555 1_555
H16 C23 1_555 1_555
H17 C23 1_555 1_555
C24 O12 1_555 1_555
H18 C24 1_555 1_555
C25 N2 1_555 1_555
H19 C25 1_555 1_555
H20 C25 1_555 1_555
H21 C25 1_555 1_555
C26 N2 1_555 1_555
H22 C26 1_555 1_555
H23 C26 1_555 1_555
H24 C26 1_555 1_555
C27 O13 1_555 1_555
C28 C27 1_555 1_555
C29 C28 1_555 1_555
H25 C29 1_555 1_555
C30 C28 1_555 1_555
H26 C30 1_555 1_555
C31 O15 1_555 1_555
H27 C31 1_555 1_555
C32 N4 1_555 1_555
H28 C32 1_555 1_555
H29 C32 1_555 1_555
H30 C32 1_555 1_555
C33 N4 1_555 1_555
H31 C33 1_555 1_555
H32 C33 1_555 1_555
H33 C33 1_555 1_555
C34 O16 1_555 1_555
H34 C34 1_555 1_555
C35 N3 1_555 1_555
H35 C35 1_555 1_555
H36 C35 1_555 1_555
H37 C35 1_555 1_555
C36 N3 1_555 1_555
H38 C36 1_555 1_555
H39 C36 1_555 1_555
H40 C36 1_555 1_555
Cd1A O2A 1_555 1_555
Cd1A_2 O9A 1_555 1_555
Cd2_2 O10A 1_555 1_555
Cd3A O3A 1_555 1_555
Cd3_2 O7 1_555 1_555
Cd3A_2 O13A 1_555 1_555
Cd3A_3 O7A 1_555 1_555
Cd4_2 O8 1_555 1_555
Cd4_3 O14A 1_555 1_555
Cd4_4 O4A 1_555 1_555
Cd4_5 O8A 1_555 1_555
O1A Cd2 1_555 1_555
O2A C1A 1_555 1_555
O3A C8A 1_555 1_555
O4A C8A 1_555 1_555
O4A_2 Cd4 1_555 1_555
O5A Cd1A 1_555 1_555
O6A Cd2 1_555 1_555
O7A C16A 1_555 1_555
O7_2 Cd3 1_555 1_555
O7A_2 Cd3A 1_555 1_555
O8A C16A 1_555 1_555
O8_2 Cd4 1_555 1_555
O8A_2 Cd4 1_555 1_555
O9A C17A 1_555 1_555
O9A_2 Cd1A 1_555 1_555
O10A Cd1A_2 1_555 1_555
O10A_2 Cd2 1_555 1_555
O11A Cd1A 1_555 1_555
O12A Cd1A 1_555 1_555
O13A C27A 1_555 1_555
O13A_2 Cd3A 1_555 1_555
O14A Cd3A_2 1_555 1_555
O14A_2 Cd4 1_555 1_555
O14A_3 Cd3A 1_555 1_555
O15A Cd3A 1_555 1_555
O16A Cd3A 1_555 1_555
N1A C21A 1_555 1_555
N2A C24A 1_555 1_555
N3A C34A 1_555 1_555
N4A C31A 1_555 1_555
C1A O1A 1_555 1_555
C2A C1A 1_555 1_555
C3A C2A 1_555 1_555
H1A C3A 1_555 1_555
C4A C3A 1_555 1_555
H2A C4A 1_555 1_555
C5A C4A 1_555 1_555
C6A C5A 1_555 1_555
H3A C6A 1_555 1_555
C7A C2A 1_555 1_555
H4A C7A 1_555 1_555
C8A C5A 1_555 1_555
C9A O5A 1_555 1_555
C10A C9A 1_555 1_555
C11A C10A 1_555 1_555
H5A C11A 1_555 1_555
C12A C11A 1_555 1_555
H6A C12A 1_555 1_555
C13A C12A 1_555 1_555
C14A C13A 1_555 1_555
H7A C14A 1_555 1_555
C15A C10A 1_555 1_555
H8A C15A 1_555 1_555
C16A C13A 1_555 1_555
C17A O10A 1_555 1_555
C18A C17A 1_555 1_555
C19A C20 1_555 1_555
H9A C19A 1_555 1_555
C20A C19 1_555 1_555
H10A C20A 1_555 1_555
C21A O11A 1_555 1_555
H11A C21A 1_555 1_555
C22A N1A 1_555 1_555
H12A C22A 1_555 1_555
H13A C22A 1_555 1_555
H14A C22A 1_555 1_555
C23A N1A 1_555 1_555
H15A C23A 1_555 1_555
H16A C23A 1_555 1_555
H17A C23A 1_555 1_555
C24A O12A 1_555 1_555
H18A C24A 1_555 1_555
C25A N2A 1_555 1_555
H19A C25A 1_555 1_555
H20A C25A 1_555 1_555
H21A C25A 1_555 1_555
C26A N2A 1_555 1_555
H22A C26A 1_555 1_555
H23A C26A 1_555 1_555
H24A C26A 1_555 1_555
C27A O14A 1_555 1_555
C28A C27A 1_555 1_555
C29A C30 1_555 1_555
H25A C29A 1_555 1_555
C30A C29 1_555 1_555
H26A C30A 1_555 1_555
C31A O15A 1_555 1_555
H27A C31A 1_555 1_555
C32A N4A 1_555 1_555
H28A C32A 1_555 1_555
H29A C32A 1_555 1_555
H30A C32A 1_555 1_555
C33A N4A 1_555 1_555
H31A C33A 1_555 1_555
H32A C33A 1_555 1_555
H33A C33A 1_555 1_555
C34A O16A 1_555 1_555
H34A C34A 1_555 1_555
C35A N3A 1_555 1_555
H35A C35A 1_555 1_555
H36A C35A 1_555 1_555
H37A C35A 1_555 1_555
C36A N3A 1_555 1_555
H38A C36A 1_555 1_555
H39A C36A 1_555 1_555
H40A C36A 1_555 1_555
Cd2 O10 1_555 1_555
Cd4 O14 1_555 1_555
O6 C9 1_555 1_555
O10 C17 1_555 1_555
O14 C27 1_555 1_555
C6 C7 1_555 1_555
C14 C15 1_555 1_555
Cd1A O10A_2 1_555 1_555
Cd4_4 O14A_3 1_555 1_555
O6A C9A 1_555 1_555
C6A C7A 1_555 1_555
C14A C15A 1_555 1_555
C18A C19A 1_555 1_555
C18A C20A 1_555 1_555
C28A C29A 1_555 1_555
C28A C30A 1_555 1_555

#END
