
#######################################################################
#
#                 Cambridge Crystallographic Data Centre
#                                CCDC 
#
#######################################################################
#
# If this CIF has been generated from an entry in the Cambridge 
# Structural Database, then it will include bibliographic, chemical, 
# crystal, experimental, refinement or atomic coordinate data resulting 
# from the CCDC's data processing and validation procedures.
#
#######################################################################

data_PIYXIG
_symmetry_cell_setting           orthorhombic
_symmetry_space_group_name_H-M   'P b c a'
_symmetry_Int_Tables_number      61
_space_group_name_Hall           '-P 2ac 2ab'
loop_
_symmetry_equiv_pos_site_id
_symmetry_equiv_pos_as_xyz
1 x,y,z
2 1/2-x,-y,1/2+z
3 1/2+x,1/2-y,-z
4 -x,1/2+y,1/2-z
5 -x,-y,-z
6 1/2+x,y,1/2-z
7 1/2-x,1/2+y,z
8 x,1/2-y,1/2+z
_cell_length_a                   17.182(3)
_cell_length_b                   17.970(4)
_cell_length_c                   22.695(4)
_cell_angle_alpha                90
_cell_angle_beta                 90
_cell_angle_gamma                90
_cell_volume                     7007.32
loop_
_atom_site_label
_atom_site_type_symbol
_atom_site_fract_x
_atom_site_fract_y
_atom_site_fract_z
Gd1 Gd 0.505406(10) -0.245088(10) -0.105771(9)
Cl1 Cl 0.59170(7) -0.12230(6) -0.10097(5)
Cl2 Cl 0.42273(8) -0.36795(6) -0.12483(6)
C1 C 0.0647(3) -0.0848(3) -0.1241(2)
H1 H 0.0647 -0.0519 -0.1557
C2 C 0.3087(2) -0.4647(2) -0.0053(2)
H2 H 0.3415 -0.4607 -0.0400
H3 H 0.3421 -0.4705 0.0288
C3 C 0.2558(3) -0.5321(3) -0.0110(2)
H4 H 0.2264 -0.5385 0.0251
H5 H 0.2871 -0.5764 -0.0171
C4 C 0.3829(3) -0.1136(3) 0.1224(3)
H6 H 0.3768 -0.0871 0.1573
C5 C 0.4344(3) -0.0882(3) 0.0796(3)
H7 H 0.4615 -0.0442 0.0860
C6 C 0.4463(3) -0.1264(2) 0.0284(2)
H8 H 0.4816 -0.1083 0.0008
C7 C 0.2056(2) -0.3850(2) -0.05157(18)
H9 H 0.2367 -0.3804 -0.0876
C8 C 0.1520(2) -0.4525(2) -0.0569(2)
H10 H 0.1190 -0.4557 -0.0223
H11 H 0.1189 -0.4469 -0.0912
C9 C 0.1999(3) -0.5226(2) -0.0626(2)
H12 H 0.2293 -0.5209 -0.0991
H13 H 0.1653 -0.5653 -0.0644
C10 C 0.3415(3) -0.1769(3) 0.1132(2)
H14 H 0.3066 -0.1934 0.1417
C11 C 0.0234(3) -0.0682(3) -0.0725(2)
H15 H -0.0043 -0.0238 -0.0704
C12 C 0.3061(2) -0.2830(3) 0.0521(2)
H16 H 0.2702 -0.2943 0.0814
C13 C 0.1507(2) -0.2664(2) -0.08469(19)
H17 H 0.1760 -0.2746 -0.1204
C14 C 0.1063(2) -0.2002(2) -0.07900(16)
C15 C 0.1049(3) -0.1501(3) -0.1271(2)
H18 H 0.1319 -0.1619 -0.1614
C16 C 0.4727(4) -0.2572(4) -0.2601(3)
H19 H 0.4955 -0.2971 -0.2823
H20 H 0.4640 -0.2153 -0.2855
H21 H 0.4240 -0.2734 -0.2438
C17 C 0.3249(3) -0.1867(3) -0.1513(3)
H22 H 0.3013 -0.1571 -0.1816
H23 H 0.2989 -0.1778 -0.1145
H24 H 0.3207 -0.2384 -0.1613
C18 C 0.0230(3) -0.1154(2) -0.0254(2)
H25 H -0.0061 -0.1032 0.0077
C19 C 0.2599(2) -0.3942(2) 0.00119(17)
H26 H 0.2280 -0.3991 0.0368
C20 C 0.6385(4) -0.3902(3) -0.1177(3)
H27 H 0.6873 -0.3892 -0.0970
H28 H 0.6432 -0.4213 -0.1519
H29 H 0.5988 -0.4097 -0.0923
C21 C 0.4052(2) -0.1933(2) 0.01668(19)
C22 C 0.3513(2) -0.2183(3) 0.0602(2)
C23 C 0.0660(2) -0.1826(2) -0.02593(17)
N1 N 0.30988(18) -0.32793(17) 0.00795(15)
H30 H 0.3376 -0.3219 -0.0239
N2 N 0.15878(18) -0.31667(17) -0.04362(15)
H31 H 0.1237 -0.3024 -0.0086
O1 O 0.6186(2) -0.31800(19) -0.13492(14)
H32 H 0.6621 -0.2955 -0.1451
O2 O 0.41440(17) -0.22997(17) -0.03203(14)
O3 O 0.40509(19) -0.16703(19) -0.14582(15)
H33 H 0.4185 -0.1465 -0.1791
O4 O 0.06999(17) -0.22581(16) 0.01964(12)
O5 O 0.5239(2) -0.2363(2) -0.21367(15)
H34 H 0.5650 -0.2617 -0.2227
Gd1B Gd 0.005406(10) -0.254912(10) 0.105771(9)
O4B O 0.56999(17) -0.27419(16) -0.01964(12)
Cl3 Cl 0.19012(10) -0.27876(12) -0.24796(8)
C24 C 0.4805(5) 0.5127(6) 0.2727(4)
H35 H 0.4753 0.5333 0.2338
H36 H 0.4829 0.4594 0.2701
H37 H 0.5274 0.5312 0.2905
O6 O 0.4184(3) 0.5329(3) 0.3058(3)
H38 H 0.3728 0.5363 0.2888
C25 C 0.2161(7) 0.4651(9) 0.2727(6)
H39 H 0.1891 0.4822 0.3072
H40 H 0.1900 0.4222 0.2570
H41 H 0.2166 0.5039 0.2436
O7 O 0.2929(5) 0.4461(4) 0.2877(3)
H42 H 0.3098 0.4034 0.2744
loop_
_geom_bond_atom_site_label_1
_geom_bond_atom_site_label_2
_geom_bond_site_symmetry_1
_geom_bond_site_symmetry_2
Gd1 Cl1 1_555 1_555
Cl2 Gd1 1_555 1_555
C1 H1 1_555 1_555
C2 H2 1_555 1_555
H3 C2 1_555 1_555
C3 C2 1_555 1_555
H4 C3 1_555 1_555
H5 C3 1_555 1_555
C4 H6 1_555 1_555
C5 C4 1_555 1_555
H7 C5 1_555 1_555
C6 C5 1_555 1_555
H8 C6 1_555 1_555
C7 H9 1_555 1_555
C8 C7 1_555 1_555
H10 C8 1_555 1_555
H11 C8 1_555 1_555
C9 C3 1_555 1_555
H12 C9 1_555 1_555
H13 C9 1_555 1_555
C10 C4 1_555 1_555
H14 C10 1_555 1_555
C11 C1 1_555 1_555
H15 C11 1_555 1_555
C12 H16 1_555 1_555
C13 H17 1_555 1_555
C14 C13 1_555 1_555
C15 C1 1_555 1_555
H18 C15 1_555 1_555
C16 H19 1_555 1_555
H20 C16 1_555 1_555
H21 C16 1_555 1_555
C17 H22 1_555 1_555
H23 C17 1_555 1_555
H24 C17 1_555 1_555
C18 C11 1_555 1_555
H25 C18 1_555 1_555
C19 C2 1_555 1_555
H26 C19 1_555 1_555
C20 H27 1_555 1_555
H28 C20 1_555 1_555
H29 C20 1_555 1_555
C21 C6 1_555 1_555
C22 C10 1_555 1_555
C23 C14 1_555 1_555
N1 C12 1_555 1_555
H30 N1 1_555 1_555
N2 C7 1_555 1_555
H31 N2 1_555 1_555
O1 Gd1 1_555 1_555
H32 O1 1_555 1_555
O2 Gd1 1_555 1_555
O3 Gd1 1_555 1_555
H33 O3 1_555 1_555
O4 C23 1_555 1_555
O5 Gd1 1_555 1_555
H34 O5 1_555 1_555
C24 H35 1_555 1_555
H36 C24 1_555 1_555
H37 C24 1_555 1_555
O6 C24 1_555 1_555
H38 O6 1_555 1_555
C25 H39 1_555 1_555
H40 C25 1_555 1_555
H41 C25 1_555 1_555
O7 C25 1_555 1_555
H42 O7 1_555 1_555
Gd1B O4 1_555 1_555
O4B Gd1 1_555 1_555
C7 C19 1_555 1_555
C8 C9 1_555 1_555
C12 C22 1_555 1_555
C13 N2 1_555 1_555
C14 C15 1_555 1_555
C16 O5 1_555 1_555
C17 O3 1_555 1_555
C18 C23 1_555 1_555
C19 N1 1_555 1_555
C20 O1 1_555 1_555
C21 C22 1_555 1_555
C21 O2 1_555 1_555

#END
