
#######################################################################
#
#                 Cambridge Crystallographic Data Centre
#                                CCDC 
#
#######################################################################
#
# If this CIF has been generated from an entry in the Cambridge 
# Structural Database, then it will include bibliographic, chemical, 
# crystal, experimental, refinement or atomic coordinate data resulting 
# from the CCDC's data processing and validation procedures.
#
#######################################################################

data_PIYXAY
_symmetry_cell_setting           orthorhombic
_symmetry_space_group_name_H-M   'P b c a'
_symmetry_Int_Tables_number      61
_space_group_name_Hall           '-P 2ac 2ab'
loop_
_symmetry_equiv_pos_site_id
_symmetry_equiv_pos_as_xyz
1 x,y,z
2 1/2-x,-y,1/2+z
3 1/2+x,1/2-y,-z
4 -x,1/2+y,1/2-z
5 -x,-y,-z
6 1/2+x,y,1/2-z
7 1/2-x,1/2+y,z
8 x,1/2-y,1/2+z
_cell_length_a                   17.153(3)
_cell_length_b                   17.885(4)
_cell_length_c                   22.555(4)
_cell_angle_alpha                90
_cell_angle_beta                 90
_cell_angle_gamma                90
_cell_volume                     6919.45
loop_
_atom_site_label
_atom_site_type_symbol
_atom_site_fract_x
_atom_site_fract_y
_atom_site_fract_z
Er1 Er 0.505471(12) -0.245304(11) -0.104879(10)
Cl1 Cl 0.59059(9) -0.12470(8) -0.10164(7)
Cl2 Cl 0.42462(10) -0.36603(8) -0.12472(7)
C1 C 0.0638(4) -0.0842(3) -0.1240(3)
H1 H 0.0641 -0.0511 -0.1558
C2 C 0.3094(3) -0.4650(3) -0.0056(3)
H2 H 0.3417 -0.4614 -0.0408
H3 H 0.3434 -0.4709 0.0285
C3 C 0.2564(3) -0.5319(3) -0.0106(3)
H4 H 0.2270 -0.5376 0.0258
H5 H 0.2875 -0.5767 -0.0162
C4 C 0.3833(4) -0.1109(4) 0.1219(3)
H6 H 0.3767 -0.0839 0.1567
C5 C 0.4362(4) -0.0860(3) 0.0791(3)
H7 H 0.4637 -0.0419 0.0855
C6 C 0.4479(3) -0.1252(3) 0.0286(3)
H8 H 0.4837 -0.1073 0.0010
C7 C 0.2054(3) -0.3846(3) -0.0512(2)
H9 H 0.2358 -0.3804 -0.0878
C8 C 0.1515(3) -0.4526(3) -0.0556(3)
H10 H 0.1196 -0.4561 -0.0202
H11 H 0.1173 -0.4472 -0.0895
C9 C 0.2007(4) -0.5232(3) -0.0622(3)
H12 H 0.1666 -0.5665 -0.0641
H13 H 0.2300 -0.5208 -0.0989
C10 C 0.3416(4) -0.1746(4) 0.1128(3)
H14 H 0.3062 -0.1907 0.1413
C11 C 0.0226(4) -0.0672(3) -0.0730(3)
H15 H -0.0056 -0.0229 -0.0711
C12 C 0.3070(3) -0.2818(3) 0.0520(3)
H16 H 0.2711 -0.2932 0.0815
C13 C 0.1504(3) -0.2661(3) -0.0846(2)
H17 H 0.1755 -0.2743 -0.1206
C14 C 0.1060(3) -0.1997(3) -0.0785(2)
C15 C 0.1040(4) -0.1494(3) -0.1271(3)
H18 H 0.1306 -0.1614 -0.1617
C16 C 0.4750(6) -0.2595(5) -0.2582(4)
H19 H 0.4984 -0.2461 -0.2954
H20 H 0.4248 -0.2361 -0.2550
H21 H 0.4691 -0.3128 -0.2562
C17 C 0.3266(4) -0.1867(4) -0.1504(3)
H22 H 0.3018 -0.1515 -0.1764
H23 H 0.3018 -0.1853 -0.1122
H24 H 0.3221 -0.2361 -0.1667
C18 C 0.0225(3) -0.1147(3) -0.0253(3)
H25 H -0.0066 -0.1021 0.0080
C19 C 0.2610(3) -0.3937(3) 0.0013(2)
H26 H 0.2296 -0.3985 0.0373
C20 C 0.6366(4) -0.3892(4) -0.1193(3)
H27 H 0.6922 -0.3931 -0.1155
H28 H 0.6189 -0.4225 -0.1498
H29 H 0.6125 -0.4023 -0.0823
C21 C 0.4074(3) -0.1926(3) 0.0163(2)
C22 C 0.3519(3) -0.2166(3) 0.0600(2)
C23 C 0.0651(3) -0.1821(3) -0.0253(2)
N1 N 0.3109(2) -0.3273(2) 0.00777(19)
H30 H 0.3386 -0.3212 -0.0240
N2 N 0.1584(2) -0.3163(2) -0.04354(19)
H31 H 0.1233 -0.3021 -0.0086
O1 O 0.6169(3) -0.3164(2) -0.13404(18)
H32 H 0.6604 -0.2940 -0.1442
O2 O 0.4167(2) -0.2298(2) -0.03216(17)
O3 O 0.4070(2) -0.1678(2) -0.14412(18)
H33 H 0.4204 -0.1473 -0.1774
O4 O 0.0695(2) -0.22550(19) 0.02044(16)
O5 O 0.5229(3) -0.2352(3) -0.21165(19)
H34 H 0.5640 -0.2607 -0.2207
Er1B Er 0.005471(12) -0.254696(11) 0.104879(10)
O4B O 0.5695(2) -0.27450(19) -0.02044(16)
Cl3 Cl 0.19077(13) -0.27391(15) -0.24951(10)
C24 C 0.4826(6) 0.5116(7) 0.2726(5)
H35 H 0.4674 0.5131 0.2317
H36 H 0.4988 0.4618 0.2827
H37 H 0.5250 0.5457 0.2791
O6 O 0.4203(4) 0.5318(4) 0.3076(3)
H38 H 0.3747 0.5352 0.2905
C25 C 0.2145(8) 0.4603(10) 0.2727(7)
H39 H 0.1893 0.4810 0.3070
H40 H 0.1881 0.4153 0.2610
H41 H 0.2128 0.4957 0.2408
O7 O 0.2937(7) 0.4435(5) 0.2866(4)
H42 H 0.3106 0.4008 0.2733
loop_
_geom_bond_atom_site_label_1
_geom_bond_atom_site_label_2
_geom_bond_site_symmetry_1
_geom_bond_site_symmetry_2
Er1 Cl1 1_555 1_555
Cl2 Er1 1_555 1_555
C1 H1 1_555 1_555
C2 H2 1_555 1_555
H3 C2 1_555 1_555
C3 C2 1_555 1_555
H4 C3 1_555 1_555
H5 C3 1_555 1_555
C4 H6 1_555 1_555
C5 C4 1_555 1_555
H7 C5 1_555 1_555
C6 C5 1_555 1_555
H8 C6 1_555 1_555
C7 H9 1_555 1_555
C8 C7 1_555 1_555
H10 C8 1_555 1_555
H11 C8 1_555 1_555
C9 C3 1_555 1_555
H12 C9 1_555 1_555
H13 C9 1_555 1_555
C10 C4 1_555 1_555
H14 C10 1_555 1_555
C11 C1 1_555 1_555
H15 C11 1_555 1_555
C12 H16 1_555 1_555
C13 H17 1_555 1_555
C14 C13 1_555 1_555
C15 C1 1_555 1_555
H18 C15 1_555 1_555
C16 H19 1_555 1_555
H20 C16 1_555 1_555
H21 C16 1_555 1_555
C17 H22 1_555 1_555
H23 C17 1_555 1_555
H24 C17 1_555 1_555
C18 C11 1_555 1_555
H25 C18 1_555 1_555
C19 C2 1_555 1_555
H26 C19 1_555 1_555
C20 H27 1_555 1_555
H28 C20 1_555 1_555
H29 C20 1_555 1_555
C21 C6 1_555 1_555
C22 C10 1_555 1_555
C23 C14 1_555 1_555
N1 C12 1_555 1_555
H30 N1 1_555 1_555
N2 C7 1_555 1_555
H31 N2 1_555 1_555
O1 Er1 1_555 1_555
H32 O1 1_555 1_555
O2 Er1 1_555 1_555
O3 Er1 1_555 1_555
H33 O3 1_555 1_555
O4 C23 1_555 1_555
O5 Er1 1_555 1_555
H34 O5 1_555 1_555
C24 H35 1_555 1_555
H36 C24 1_555 1_555
H37 C24 1_555 1_555
O6 C24 1_555 1_555
H38 O6 1_555 1_555
C25 H39 1_555 1_555
H40 C25 1_555 1_555
H41 C25 1_555 1_555
O7 C25 1_555 1_555
H42 O7 1_555 1_555
Er1B O4 1_555 1_555
O4B Er1 1_555 1_555
C7 C19 1_555 1_555
C8 C9 1_555 1_555
C12 C22 1_555 1_555
C13 N2 1_555 1_555
C14 C15 1_555 1_555
C16 O5 1_555 1_555
C17 O3 1_555 1_555
C18 C23 1_555 1_555
C19 N1 1_555 1_555
C20 O1 1_555 1_555
C21 C22 1_555 1_555
C21 O2 1_555 1_555

#END
