
#######################################################################
#
#                 Cambridge Crystallographic Data Centre
#                                CCDC 
#
#######################################################################
#
# If this CIF has been generated from an entry in the Cambridge 
# Structural Database, then it will include bibliographic, chemical, 
# crystal, experimental, refinement or atomic coordinate data resulting 
# from the CCDC's data processing and validation procedures.
#
#######################################################################

data_PIZCIK
_symmetry_cell_setting           triclinic
_symmetry_space_group_name_H-M   'P -1'
_symmetry_Int_Tables_number      2
_space_group_name_Hall           '-P 1'
loop_
_symmetry_equiv_pos_site_id
_symmetry_equiv_pos_as_xyz
1 x,y,z
2 -x,-y,-z
_cell_length_a                   9.166(4)
_cell_length_b                   13.464(6)
_cell_length_c                   13.684(4)
_cell_angle_alpha                67.22(2)
_cell_angle_beta                 72.08(2)
_cell_angle_gamma                83.70(2)
_cell_volume                     1481.41
loop_
_atom_site_label
_atom_site_type_symbol
_atom_site_fract_x
_atom_site_fract_y
_atom_site_fract_z
Cu1 Cu 0.2511(1) 0.0194(1) 0.2402(1)
S1 S -0.0008(1) 0.0807(1) 0.2496(1)
S2 S 0.4463(1) 0.1510(1) 0.1434(1)
S3 S 0.6994(1) 0.0962(1) -0.1436(1)
S4 S -0.2572(1) 0.0432(1) 0.5759(1)
C1 C -0.0286(4) 0.1816(3) 0.2959(3)
C2 C 0.0789(5) 0.2189(3) 0.3368(4)
C3 C 0.0167(5) 0.3251(3) 0.3438(4)
C4 C -0.1493(5) 0.3226(3) 0.3496(3)
N1 N -0.1538(3) 0.2391(2) 0.3063(2)
C5 C -0.2904(4) 0.2214(3) 0.2810(3)
C6 C 0.4249(4) 0.2286(3) 0.0192(3)
C7 C 0.3008(5) 0.2170(4) -0.0253(4)
C8 C 0.3371(6) 0.3009(4) -0.1417(4)
C9 C 0.4697(6) 0.3672(4) -0.1553(4)
N2 N 0.5172(4) 0.3095(2) -0.0544(2)
C10 C 0.6545(5) 0.3389(3) -0.0396(3)
C11 C 0.8074(4) 0.2071(3) -0.2188(3)
C12 C 0.8880(5) 0.2438(3) -0.3404(3)
C13 C 0.9447(5) 0.3576(4) -0.3734(3)
C14 C 0.9392(6) 0.3660(4) -0.2647(4)
N3 N 0.8355(3) 0.2777(3) -0.1799(3)
C15 C 0.7846(5) 0.2685(3) -0.0639(3)
C16 C -0.4225(4) 0.1077(3) 0.5640(3)
C17 C -0.5402(4) 0.1343(4) 0.6531(4)
C18 C -0.6746(5) 0.1774(4) 0.6076(4)
C19 C -0.6140(5) 0.1986(4) 0.4854(4)
N4 N -0.4668(3) 0.1427(2) 0.4733(3)
C20 C -0.3870(4) 0.1258(3) 0.3710(3)
H1 H 0.1813 0.2269 0.2878
H2 H 0.0797 0.1686 0.4091
H3 H 0.0701 0.3831 0.2786
H4 H 0.0280 0.3336 0.4076
H5 H -0.1802 0.3909 0.3040
H6 H -0.2137 0.3038 0.4245
H7 H -0.2598 0.2105 0.2122
H8 H -0.3526 0.2847 0.2721
H9 H 0.2016 0.2276 0.0197
H10 H 0.3037 0.1464 -0.0277
H11 H 0.2483 0.3442 -0.1511
H12 H 0.3663 0.2682 -0.1960
H13 H 0.4354 0.4381 -0.1586
H14 H 0.5521 0.3730 -0.2208
H15 H 0.6335 0.3349 0.0351
H16 H 0.6824 0.4120 -0.0886
H17 H 0.9731 0.1975 -0.3535
H18 H 0.8203 0.2428 -0.3813
H19 H 1.0477 0.3685 -0.4219
H20 H 0.8793 0.4094 -0.4101
H21 H 1.0390 0.3586 -0.2539
H22 H 0.8968 0.4337 -0.2623
H23 H 0.7538 0.1953 -0.0174
H24 H 0.8701 0.2850 -0.0461
H25 H -0.5690 0.0716 0.7201
H26 H -0.5017 0.1886 0.6682
H27 H -0.7547 0.1239 0.6413
H28 H -0.7151 0.2413 0.6210
H29 H -0.6833 0.1727 0.4602
H30 H -0.5981 0.2747 0.4444
H31 H -0.3203 0.0653 0.3876
H32 H -0.4614 0.1078 0.3440
S2A S 0.5537(1) -0.1510(1) -0.1434(1)
S3A S 0.3006(1) -0.0962(1) 0.1436(1)
C6A C 0.5751(4) -0.2286(3) -0.0192(3)
C7A C 0.6992(5) -0.2170(4) 0.0253(4)
C8A C 0.6629(6) -0.3009(4) 0.1417(4)
C9A C 0.5303(6) -0.3672(4) 0.1553(4)
N2A N 0.4828(4) -0.3095(2) 0.0544(2)
C10A C 0.3455(5) -0.3389(3) 0.0396(3)
C11A C 0.1926(4) -0.2071(3) 0.2188(3)
C12A C 0.1120(5) -0.2438(3) 0.3404(3)
C13A C 0.0553(5) -0.3576(4) 0.3734(3)
C14A C 0.0608(6) -0.3660(4) 0.2647(4)
N3A N 0.1645(3) -0.2777(3) 0.1799(3)
C15A C 0.2154(5) -0.2685(3) 0.0639(3)
H9A H 0.7984 -0.2276 -0.0197
H10A H 0.6963 -0.1464 0.0277
H11A H 0.7517 -0.3442 0.1511
H12A H 0.6337 -0.2682 0.1960
H13A H 0.5646 -0.4381 0.1586
H14A H 0.4479 -0.3730 0.2208
H15A H 0.3665 -0.3349 -0.0351
H16A H 0.3176 -0.4120 0.0886
H17A H 0.0269 -0.1975 0.3535
H18A H 0.1797 -0.2428 0.3813
H19A H -0.0477 -0.3685 0.4219
H20A H 0.1207 -0.4094 0.4101
H21A H -0.0390 -0.3586 0.2539
H22A H 0.1032 -0.4337 0.2623
H23A H 0.2462 -0.1953 0.0174
H24A H 0.1299 -0.2850 0.0461
S1A S 0.0008(1) -0.0807(1) 0.7504(1)
S4A S 0.2572(1) -0.0432(1) 0.4241(1)
C1A C 0.0286(4) -0.1816(3) 0.7041(3)
C2A C -0.0789(5) -0.2189(3) 0.6632(4)
C3A C -0.0167(5) -0.3251(3) 0.6562(4)
C4A C 0.1493(5) -0.3226(3) 0.6504(3)
N1A N 0.1538(3) -0.2391(2) 0.6937(2)
C5A C 0.2904(4) -0.2214(3) 0.7190(3)
C16A C 0.4225(4) -0.1077(3) 0.4360(3)
C17A C 0.5402(4) -0.1343(4) 0.3469(4)
C18A C 0.6746(5) -0.1774(4) 0.3924(4)
C19A C 0.6140(5) -0.1986(4) 0.5146(4)
N4A N 0.4668(3) -0.1427(2) 0.5267(3)
C20A C 0.3870(4) -0.1258(3) 0.6290(3)
H1A H -0.1813 -0.2269 0.7122
H2A H -0.0797 -0.1686 0.5909
H3A H -0.0701 -0.3831 0.7214
H4A H -0.0280 -0.3336 0.5924
H5A H 0.1802 -0.3909 0.6960
H6A H 0.2137 -0.3038 0.5755
H7A H 0.2598 -0.2105 0.7878
H8A H 0.3526 -0.2847 0.7279
H25A H 0.5690 -0.0716 0.2799
H26A H 0.5017 -0.1886 0.3318
H27A H 0.7547 -0.1239 0.3587
H28A H 0.7151 -0.2413 0.3790
H29A H 0.6833 -0.1727 0.5398
H30A H 0.5981 -0.2747 0.5556
H31A H 0.3203 -0.0653 0.6124
H32A H 0.4614 -0.1078 0.6560
Cu1A Cu -0.2511(1) -0.0194(1) 0.7598(1)
Cu1A_2 Cu 0.7489(1) -0.0194(1) -0.2402(1)
S2A_2 S -0.4463(1) -0.1510(1) 0.8566(1)
S3_2 S -0.3006(1) 0.0962(1) 0.8564(1)
P1 P 0.5000 0.5000 0.5000
F1 F 0.3345(4) 0.4548(4) 0.5747(4)
F2 F 0.4321(5) 0.6124(3) 0.4414(3)
F3 F 0.4906(7) 0.4590(3) 0.4101(3)
F1A F 0.6655(4) 0.5452(4) 0.4253(4)
F2A F 0.5679(5) 0.3876(3) 0.5586(3)
F3A F 0.5094(7) 0.5410(3) 0.5899(3)
P2? P 0.0000 0.5000 0.0000
F4? F 0.0196(6) 0.4669(3) -0.1022(3)
F5? F -0.1687(10) 0.4686(14) 0.0637(12)
F6? F 0.0384(24) 0.3830(8) 0.0521(9)
F7? F 0.1346(17) 0.4391(16) 0.0405(13)
F8? F -0.0917(32) 0.3945(15) 0.0730(7)
C21? C 0.0704(17) 0.0354(12) -0.0663(13)
N5? N 0.1107(14) 0.1067(10) -0.1310(10)
C22? C -0.0279(16) -0.0364(10) 0.0351(11)
loop_
_geom_bond_atom_site_label_1
_geom_bond_atom_site_label_2
_geom_bond_site_symmetry_1
_geom_bond_site_symmetry_2
P1 F1 1_555 1_555
F2 P1 1_555 1_555
F3 P1 1_555 1_555
Cu1 S1 1_555 1_555
S1 C1 1_555 1_555
S2 Cu1 1_555 1_555
S3 C11 1_555 1_555
S4 C16 1_555 1_555
C1 C2 1_555 1_555
C2 C3 1_555 1_555
C3 C4 1_555 1_555
C4 N1 1_555 1_555
N1 C1 1_555 1_555
C5 N1 1_555 1_555
C6 S2 1_555 1_555
C7 C6 1_555 1_555
C8 C7 1_555 1_555
C9 C8 1_555 1_555
N2 C6 1_555 1_555
C10 N2 1_555 1_555
C11 C12 1_555 1_555
C12 C13 1_555 1_555
C13 C14 1_555 1_555
C14 N3 1_555 1_555
N3 C11 1_555 1_555
C15 C10 1_555 1_555
C16 C17 1_555 1_555
C17 C18 1_555 1_555
C18 C19 1_555 1_555
C19 N4 1_555 1_555
N4 C16 1_555 1_555
C20 C5 1_555 1_555
H1 C2 1_555 1_555
H2 C2 1_555 1_555
H3 C3 1_555 1_555
H4 C3 1_555 1_555
H5 C4 1_555 1_555
H6 C4 1_555 1_555
H7 C5 1_555 1_555
H8 C5 1_555 1_555
H9 C7 1_555 1_555
H10 C7 1_555 1_555
H11 C8 1_555 1_555
H12 C8 1_555 1_555
H13 C9 1_555 1_555
H14 C9 1_555 1_555
H15 C10 1_555 1_555
H16 C10 1_555 1_555
H17 C12 1_555 1_555
H18 C12 1_555 1_555
H19 C13 1_555 1_555
H20 C13 1_555 1_555
H21 C14 1_555 1_555
H22 C14 1_555 1_555
H23 C15 1_555 1_555
H24 C15 1_555 1_555
H25 C17 1_555 1_555
H26 C17 1_555 1_555
H27 C18 1_555 1_555
H28 C18 1_555 1_555
H29 C19 1_555 1_555
H30 C19 1_555 1_555
H31 C20 1_555 1_555
H32 C20 1_555 1_555
F1A P1 1_555 1_555
F2A P1 1_555 1_555
F3A P1 1_555 1_555
S2A C6A 1_555 1_555
S3A Cu1 1_555 1_555
C6A C7A 1_555 1_555
C7A C8A 1_555 1_555
C8A C9A 1_555 1_555
C9A N2A 1_555 1_555
N2A C6A 1_555 1_555
C10A N2A 1_555 1_555
C11A S3A 1_555 1_555
C12A C11A 1_555 1_555
C13A C12A 1_555 1_555
C14A C13A 1_555 1_555
N3A C11A 1_555 1_555
C15A C10A 1_555 1_555
H9A C7A 1_555 1_555
H10A C7A 1_555 1_555
H11A C8A 1_555 1_555
H12A C8A 1_555 1_555
H13A C9A 1_555 1_555
H14A C9A 1_555 1_555
H15A C10A 1_555 1_555
H16A C10A 1_555 1_555
H17A C12A 1_555 1_555
H18A C12A 1_555 1_555
H19A C13A 1_555 1_555
H20A C13A 1_555 1_555
H21A C14A 1_555 1_555
H22A C14A 1_555 1_555
H23A C15A 1_555 1_555
H24A C15A 1_555 1_555
S1A C1A 1_555 1_555
S4A Cu1 1_555 1_555
C1A C2A 1_555 1_555
C2A C3A 1_555 1_555
C3A C4A 1_555 1_555
C4A N1A 1_555 1_555
N1A C1A 1_555 1_555
C5A N1A 1_555 1_555
C16A S4A 1_555 1_555
C17A C16A 1_555 1_555
C18A C17A 1_555 1_555
C19A C18A 1_555 1_555
N4A C16A 1_555 1_555
C20A C5A 1_555 1_555
H1A C2A 1_555 1_555
H2A C2A 1_555 1_555
H3A C3A 1_555 1_555
H4A C3A 1_555 1_555
H5A C4A 1_555 1_555
H6A C4A 1_555 1_555
H7A C5A 1_555 1_555
H8A C5A 1_555 1_555
H25A C17A 1_555 1_555
H26A C17A 1_555 1_555
H27A C18A 1_555 1_555
H28A C18A 1_555 1_555
H29A C19A 1_555 1_555
H30A C19A 1_555 1_555
H31A C20A 1_555 1_555
H32A C20A 1_555 1_555
Cu1A S4 1_555 1_555
Cu1A_2 S3 1_555 1_555
S2A_2 Cu1A 1_555 1_555
S3_2 Cu1A 1_555 1_555
C9 N2 1_555 1_555
N3 C15 1_555 1_555
N4 C20 1_555 1_555
S2A Cu1A_2 1_555 1_555
C14A N3A 1_555 1_555
N3A C15A 1_555 1_555
S1A Cu1A 1_555 1_555
C19A N4A 1_555 1_555
N4A C20A 1_555 1_555

#END
