
#######################################################################
#
#                 Cambridge Crystallographic Data Centre
#                                CCDC 
#
#######################################################################
#
# If this CIF has been generated from an entry in the Cambridge 
# Structural Database, then it will include bibliographic, chemical, 
# crystal, experimental, refinement or atomic coordinate data resulting 
# from the CCDC's data processing and validation procedures.
#
#######################################################################

data_PIZHUD
_symmetry_cell_setting           orthorhombic
_symmetry_space_group_name_H-M   'P b c n'
_symmetry_Int_Tables_number      60
_space_group_name_Hall           '-P 2n 2ab'
loop_
_symmetry_equiv_pos_site_id
_symmetry_equiv_pos_as_xyz
1 x,y,z
2 1/2-x,1/2-y,1/2+z
3 1/2+x,1/2-y,-z
4 -x,y,1/2-z
5 -x,-y,-z
6 1/2+x,1/2+y,1/2-z
7 1/2-x,1/2+y,z
8 x,-y,1/2+z
_cell_length_a                   11.9883(7)
_cell_length_b                   16.0417(6)
_cell_length_c                   13.0715(7)
_cell_angle_alpha                90
_cell_angle_beta                 90
_cell_angle_gamma                90
_cell_volume                     2513.82
loop_
_atom_site_label
_atom_site_type_symbol
_atom_site_fract_x
_atom_site_fract_y
_atom_site_fract_z
Cu1 Cu 0.0000 0.0000 0.5000
N1 N 0.0955(3) -0.1035(2) 0.4697(3)
N2 N 0.3926(3) -0.4236(2) 0.4280(2)
N3 N 0.3689(4) -0.4195(3) 0.3300(3)
N4 N 0.3007(5) -0.3551(3) 0.3155(3)
N5 N 0.3438(3) -0.3624(2) 0.4786(3)
C1 C 0.1445(5) -0.1479(3) 0.5441(3)
H1 H 0.1351 -0.1298 0.6127
C2 C 0.2067(5) -0.2174(3) 0.5270(4)
H2 H 0.2406 -0.2458 0.5827
C3 C 0.2206(4) -0.2466(3) 0.4276(3)
C4 C 0.1690(5) -0.2017(3) 0.3511(4)
H3 H 0.1754 -0.2192 0.2819
C5 C 0.1084(5) -0.1319(3) 0.3749(3)
H4 H 0.0738 -0.1021 0.3206
C6 C 0.2866(4) -0.3214(3) 0.4069(3)
O1 O 0.1036(3) 0.0248(2) 0.6534(2)
N1D N -0.0955(3) 0.1035(2) 0.5303(3)
N2D N -0.3926(3) 0.4236(2) 0.5720(2)
N3D N -0.3689(4) 0.4195(3) 0.6700(3)
N4D N -0.3007(5) 0.3551(3) 0.6845(3)
N5D N -0.3438(3) 0.3624(2) 0.5214(3)
C1D C -0.1445(5) 0.1479(3) 0.4559(3)
H1D H -0.1351 0.1298 0.3873
C2D C -0.2067(5) 0.2174(3) 0.4730(4)
H2D H -0.2406 0.2458 0.4173
C3D C -0.2206(4) 0.2466(3) 0.5724(3)
C4D C -0.1690(5) 0.2017(3) 0.6489(4)
H3D H -0.1754 0.2192 0.7181
C5D C -0.1084(5) 0.1319(3) 0.6251(3)
H4D H -0.0738 0.1021 0.6794
C6D C -0.2866(4) 0.3214(3) 0.5931(3)
O1D O -0.1036(3) -0.0248(2) 0.3466(2)
Cu1B Cu -0.5000 0.5000 0.5000
Cu1B_2 Cu 0.5000 -0.5000 0.5000
N2B N -0.1074(3) -0.0764(2) 0.5720(2)
N2F N 0.1074(3) 0.0764(2) 0.4280(2)
loop_
_geom_bond_atom_site_label_1
_geom_bond_atom_site_label_2
_geom_bond_site_symmetry_1
_geom_bond_site_symmetry_2
Cu1 N1 1_555 1_555
N1 C1 1_555 1_555
N2 N3 1_555 1_555
N3 N4 1_555 1_555
N4 C6 1_555 1_555
N5 N2 1_555 1_555
C1 H1 1_555 1_555
C2 C1 1_555 1_555
H2 C2 1_555 1_555
C3 C2 1_555 1_555
C4 C3 1_555 1_555
H3 C4 1_555 1_555
C5 N1 1_555 1_555
H4 C5 1_555 1_555
C6 N5 1_555 1_555
O1 Cu1 1_555 1_555
N1D Cu1 1_555 1_555
N2D N3D 1_555 1_555
N3D N4D 1_555 1_555
N4D C6D 1_555 1_555
N5D N2D 1_555 1_555
C1D N1D 1_555 1_555
H1D C1D 1_555 1_555
C2D C1D 1_555 1_555
H2D C2D 1_555 1_555
C3D C2D 1_555 1_555
C4D C3D 1_555 1_555
H3D C4D 1_555 1_555
C5D N1D 1_555 1_555
H4D C5D 1_555 1_555
C6D N5D 1_555 1_555
O1D Cu1 1_555 1_555
Cu1B N2D 1_555 1_555
Cu1B_2 N2 1_555 1_555
N2B Cu1 1_555 1_555
N2F Cu1 1_555 1_555
C3 C6 1_555 1_555
C4 C5 1_555 1_555
C3D C6D 1_555 1_555
C4D C5D 1_555 1_555

#END
