
#######################################################################
#
#                 Cambridge Crystallographic Data Centre
#                                CCDC 
#
#######################################################################
#
# If this CIF has been generated from an entry in the Cambridge 
# Structural Database, then it will include bibliographic, chemical, 
# crystal, experimental, refinement or atomic coordinate data resulting 
# from the CCDC's data processing and validation procedures.
#
#######################################################################

data_PIZHAJ
_symmetry_cell_setting           orthorhombic
_symmetry_space_group_name_H-M   'P b c m'
_symmetry_Int_Tables_number      57
_space_group_name_Hall           '-P 2c 2b'
loop_
_symmetry_equiv_pos_site_id
_symmetry_equiv_pos_as_xyz
1 x,y,z
2 -x,-y,1/2+z
3 x,1/2-y,-z
4 -x,1/2+y,1/2-z
5 -x,-y,-z
6 x,y,1/2-z
7 -x,1/2+y,z
8 x,1/2-y,1/2+z
_cell_length_a                   12.2940(6)
_cell_length_b                   21.5140(11)
_cell_length_c                   19.6330(10)
_cell_angle_alpha                90
_cell_angle_beta                 90
_cell_angle_gamma                90
_cell_volume                     5192.79
loop_
_atom_site_label
_atom_site_type_symbol
_atom_site_fract_x
_atom_site_fract_y
_atom_site_fract_z
W1 W -0.00551(4) 0.55462(2) 0.16444(3)
O1 O 0.0712(7) 0.5031(4) 0.1028(4)
O2 O -0.1050(7) 0.4878(4) 0.1826(4)
O3 O 0.1254(7) 0.6020(4) 0.1695(4)
O4 O 0.0757(9) 0.4946(5) 0.2500
O5 O -0.0492(10) 0.5893(6) 0.2500
O6 O -0.0827(8) 0.5994(4) 0.1117(5)
W2 W 0.20344(5) 0.46721(3) 0.07065(3)
W3 W -0.07441(6) 0.42635(3) 0.2500
W4 W 0.27818(4) 0.60818(2) 0.16492(3)
P1 P 0.2007(3) 0.47210(17) 0.2500
O7 O 0.3407(8) 0.4260(4) 0.0735(5)
O8 O 0.1357(7) 0.3870(4) 0.0749(5)
O9 O 0.2254(7) 0.4311(3) 0.1831(4)
O10 O 0.1938(9) 0.4824(5) -0.0135(5)
O11 O 0.2721(7) 0.5398(4) 0.1035(4)
O12 O 0.0073(8) 0.3806(4) 0.1840(4)
O13 O -0.1944(12) 0.3858(7) 0.2500
O14 O 0.2770(9) 0.6518(5) 0.2500
O15 O 0.2793(8) 0.5336(5) 0.2500
O16 O 0.2953(8) 0.6686(4) 0.1113(5)
O17 O 0.4297(7) 0.5888(4) 0.1829(5)
W5 W 0.39184(5) 0.38730(3) 0.15586(4)
W6 W 0.13440(5) 0.33871(2) 0.15644(3)
O18 O 0.2857(8) 0.3229(5) 0.1413(5)
O19 O 0.4500(8) 0.4654(4) 0.1829(5)
O20 O 0.3983(11) 0.3659(7) 0.2500
O21 O 0.5062(10) 0.3513(5) 0.1260(8)
O22 O 0.1554(10) 0.3200(6) 0.2500
O23 O 0.0826(8) 0.2706(5) 0.1275(5)
O24 O 0.6063(12) 0.5393(8) 0.2500
V1 V 0.46828(6) 0.52891(4) 0.2500
O9E O 0.2254(7) 0.4311(3) 0.3169(4)
W1E W -0.00551(4) 0.55462(2) 0.33556(3)
O1E O 0.0712(7) 0.5031(4) 0.3972(4)
O2E O -0.1050(7) 0.4878(4) 0.3174(4)
O3E O 0.1254(7) 0.6020(4) 0.3305(4)
O6E O -0.0827(8) 0.5994(4) 0.3883(5)
W2E W 0.20344(5) 0.46721(3) 0.42935(3)
W4E W 0.27818(4) 0.60818(2) 0.33508(3)
O7E O 0.3407(8) 0.4260(4) 0.4265(5)
O8E O 0.1357(7) 0.3870(4) 0.4251(5)
O10E O 0.1938(9) 0.4824(5) 0.5135(5)
O11E O 0.2721(7) 0.5398(4) 0.3965(4)
O12E O 0.0073(8) 0.3806(4) 0.3160(4)
O16E O 0.2953(8) 0.6686(4) 0.3887(5)
O17E O 0.4297(7) 0.5888(4) 0.3171(5)
W5E W 0.39184(5) 0.38730(3) 0.34414(4)
W6E W 0.13440(5) 0.33871(2) 0.34356(3)
O18E O 0.2857(8) 0.3229(5) 0.3587(5)
O19E O 0.4500(8) 0.4654(4) 0.3171(5)
O21E O 0.5062(10) 0.3513(5) 0.3740(8)
O23E O 0.0826(8) 0.2706(5) 0.3725(5)
Ag1 Ag -0.09436(7) 0.68934(4) 0.03095(5)
N1 N 0.0737(8) 0.6786(5) -0.0048(6)
N2 N 0.7279(8) 0.6920(5) 0.0436(6)
Ag2 Ag 0.39792(8) 0.76485(5) 0.07500(7)
N3 N 0.1110(10) 0.6252(5) -0.0339(8)
C1 C 0.1576(9) 0.7173(5) -0.0115(5)
N4 N 0.2412(8) 0.6919(4) -0.0420(5)
N5 N 0.5492(8) 0.7084(5) 0.0563(6)
C2 C 0.2099(8) 0.6334(5) -0.0528(6)
C3 C 0.6428(9) 0.7250(5) 0.0243(6)
C4 C 0.5779(11) 0.6605(6) 0.0953(7)
H1 H 0.2538 0.6026 -0.0716
N6 N 0.6871(10) 0.6518(8) 0.0888(9)
H2 H 0.5313 0.6370 0.1224
N1B N 0.0737(8) 0.8214(5) 0.0048(6)
N3B N 0.1110(10) 0.8748(5) 0.0339(8)
C1B C 0.1576(9) 0.7827(5) 0.0115(5)
N4B N 0.2412(8) 0.8081(4) 0.0420(5)
C2B C 0.2099(8) 0.8666(5) 0.0528(6)
H1B H 0.2538 0.8974 0.0716
N2B N 0.7279(8) 0.8080(5) -0.0436(6)
N5B N 0.5492(8) 0.7916(5) -0.0563(6)
C3B C 0.6428(9) 0.7750(5) -0.0243(6)
C4B C 0.5779(11) 0.8395(6) -0.0953(7)
N6B N 0.6871(10) 0.8482(8) -0.0888(9)
H2B H 0.5313 0.8630 -0.1224
Ag1B Ag -0.09436(7) 0.81066(4) -0.03095(5)
Ag2B Ag 0.39792(8) 0.73515(5) -0.07500(7)
Ag1_2 Ag 0.90564(7) 0.68934(4) 0.03095(5)
Ag1B_2 Ag 0.90564(7) 0.81066(4) -0.03095(5)
N2_2 N -0.2721(8) 0.6920(5) 0.0436(6)
N2B_2 N -0.2721(8) 0.8080(5) -0.0436(6)
O25 O 0.6287(11) 0.1093(7) 0.7500
V2? V -0.00551(4) 0.55462(2) 0.16444(3)
V3? V 0.27818(4) 0.60818(2) 0.16492(3)
V4? V -0.07441(6) 0.42635(3) 0.2500
V5? V 0.13440(5) 0.33871(2) 0.15644(3)
V6? V 0.20344(5) 0.46721(3) 0.07065(3)
V7? V 0.39184(5) 0.38730(3) 0.15586(4)
W7? W 0.46828(6) 0.52891(4) 0.2500
loop_
_geom_bond_atom_site_label_1
_geom_bond_atom_site_label_2
_geom_bond_site_symmetry_1
_geom_bond_site_symmetry_2
W1 O1 1_555 1_555
O1 W2 1_555 1_555
O2 W1 1_555 1_555
O3 W1 1_555 1_555
O4 W1 1_555 1_555
O5 W1 1_555 1_555
O6 W1 1_555 1_555
W2 O7 1_555 1_555
W3 O2 1_555 1_555
W4 O3 1_555 1_555
P1 O4 1_555 1_555
O7 W5 1_555 1_555
O8 W2 1_555 1_555
O9 W2 1_555 1_555
O10 W2 1_555 1_555
O11 W2 1_555 1_555
O12 W3 1_555 1_555
O13 W3 1_555 1_555
O14 W4 1_555 1_555
O15 W4 1_555 1_555
O16 W4 1_555 1_555
O17 W4 1_555 1_555
W5 O9 1_555 1_555
W6 O8 1_555 1_555
O18 W5 1_555 1_555
O19 W5 1_555 1_555
O20 W5 1_555 1_555
O21 W5 1_555 1_555
O22 W6 1_555 1_555
O23 W6 1_555 1_555
O24 V1 1_555 1_555
V1 O15 1_555 1_555
Ag1 N1 1_555 1_555
N1 N3 1_555 1_555
N2 C3 1_555 1_555
Ag2 N5 1_555 1_555
N3 C2 1_555 1_555
C1 N1 1_555 1_555
N4 C1 1_555 1_555
N5 C3 1_555 1_555
C2 N4 1_555 1_555
C3 C3B 1_555 1_555
C4 N5 1_555 1_555
H1 C2 1_555 1_555
N6 N2 1_555 1_555
H2 C4 1_555 1_555
O9E P1 1_555 1_555
W1E O4 1_555 1_555
O1E W1E 1_555 1_555
O2E W3 1_555 1_555
O3E W1E 1_555 1_555
O6E W1E 1_555 1_555
W2E O9E 1_555 1_555
W4E O14 1_555 1_555
O7E W2E 1_555 1_555
O8E W2E 1_555 1_555
O10E W2E 1_555 1_555
O11E W2E 1_555 1_555
O12E W3 1_555 1_555
O16E W4E 1_555 1_555
O17E V1 1_555 1_555
W5E O20 1_555 1_555
W6E O22 1_555 1_555
O18E W5E 1_555 1_555
O19E V1 1_555 1_555
O21E W5E 1_555 1_555
O23E W6E 1_555 1_555
N1B N3B 1_555 1_555
N3B C2B 1_555 1_555
C1B C1 1_555 1_555
N4B Ag2 1_555 1_555
C2B N4B 1_555 1_555
H1B C2B 1_555 1_555
N2B C3B 1_555 1_555
N5B C3B 1_555 1_555
C4B N5B 1_555 1_555
N6B N2B 1_555 1_555
H2B C4B 1_555 1_555
Ag1B N1B 1_555 1_555
Ag2B N4 1_555 1_555
Ag1_2 N2 1_555 1_555
Ag1B_2 N2B 1_555 1_555
N2_2 Ag1 1_555 1_555
N2B_2 Ag1B 1_555 1_555
O4 W3 1_555 1_555
O5 W1E 1_555 1_555
W4 O11 1_555 1_555
P1 O9 1_555 1_555
P1 O15 1_555 1_555
O9 W6 1_555 1_555
O12 W6 1_555 1_555
O15 W4E 1_555 1_555
O17 V1 1_555 1_555
W6 O18 1_555 1_555
O19 V1 1_555 1_555
C4 N6 1_555 1_555
O9E W5E 1_555 1_555
O9E W6E 1_555 1_555
W1E O2E 1_555 1_555
O1E W2E 1_555 1_555
O3E W4E 1_555 1_555
W4E O11E 1_555 1_555
W4E O17E 1_555 1_555
O7E W5E 1_555 1_555
O8E W6E 1_555 1_555
O12E W6E 1_555 1_555
W5E O19E 1_555 1_555
W6E O18E 1_555 1_555
N1B C1B 1_555 1_555
C1B N4B 1_555 1_555
N5B Ag2B 1_555 1_555
C4B N6B 1_555 1_555

#END
