
#######################################################################
#
#                 Cambridge Crystallographic Data Centre
#                                CCDC 
#
#######################################################################
#
# If this CIF has been generated from an entry in the Cambridge 
# Structural Database, then it will include bibliographic, chemical, 
# crystal, experimental, refinement or atomic coordinate data resulting 
# from the CCDC's data processing and validation procedures.
#
#######################################################################

data_PIZQEW
_symmetry_cell_setting           triclinic
_symmetry_space_group_name_H-M   'P 1'
_symmetry_Int_Tables_number      1
_space_group_name_Hall           'P 1'
loop_
_symmetry_equiv_pos_site_id
_symmetry_equiv_pos_as_xyz
1 x,y,z
_cell_length_a                   9.0711(5)
_cell_length_b                   9.6401(4)
_cell_length_c                   11.0829(7)
_cell_angle_alpha                90.337(4)
_cell_angle_beta                 113.571(6)
_cell_angle_gamma                98.063(4)
_cell_volume                     877.463
loop_
_atom_site_label
_atom_site_type_symbol
_atom_site_fract_x
_atom_site_fract_y
_atom_site_fract_z
Cu1 Cu 0.60226(6) 0.66636(5) 0.14592(5)
Cu2 Cu 0.74167(7) 0.84499(5) -0.25049(5)
O1 O 0.7587(7) 0.7117(5) 0.3371(5)
O2 O 0.5917(7) 0.7975(6) -0.4405(5)
O3 O 0.8333(7) 0.8841(6) -0.0520(5)
O4 O 0.5087(7) 0.6294(6) -0.0535(5)
O5 O 0.9817(7) 0.8579(6) 0.4618(5)
N1 N 0.5706(8) 0.7267(7) -0.2234(6)
N2 N 0.4716(9) 1.4984(7) 0.1727(6)
O6 O 0.3627(8) 0.6588(7) -0.5695(5)
N3 N 0.7654(9) 0.7902(7) 0.1148(6)
N4 N 0.8737(8) 0.0143(7) -0.2756(6)
N5 N 0.8795(9) 0.6762(7) -0.2723(6)
N6 N 0.4650(8) 0.8383(7) 0.1736(6)
N7 N 0.3671(8) 1.5062(6) 0.2307(6)
H1 H 0.3630 1.5813 0.2707
N8 N 0.9801(8) 0.0080(7) -0.3330(6)
H2 H 0.9854 -0.0654 -0.3746
C1 C 0.7471(10) 0.8039(8) -0.0062(7)
N9 N 0.8426(8) 0.6150(6) -0.3933(6)
H3 H 0.7815 0.6466 -0.4658
N10 N 0.5006(9) 0.8953(7) 0.2962(6)
H4 H 0.5630 0.8629 0.3677
C2 C 0.5946(10) 0.7088(8) -0.1015(8)
C3 C 0.2353(10) 1.1390(8) 0.1042(8)
H5 H 0.1925 1.1280 0.0087
H6 H 0.1435 1.1208 0.1289
C4 C 0.9970(10) 0.4796(8) -0.2584(8)
C5 C 0.8774(10) 0.8084(8) 0.3523(7)
C6 C 0.4631(9) 0.7074(8) -0.4604(7)
C7 C 0.3423(10) 1.0292(8) 0.1594(7)
C8 C 1.1098(10) 0.3737(7) -0.1963(8)
H7 H 1.2065 0.3960 -0.2141
H8 H 1.1436 0.3825 -0.1014
C9 C 0.3708(9) 0.9237(8) 0.0912(6)
C10 C 0.9738(9) 0.5937(7) -0.1881(8)
C11 C 0.2699(11) 1.3828(8) 0.2191(8)
C12 C 0.3139(10) 1.2894(8) 0.1468(7)
C13 C 1.0759(10) 0.1327(8) -0.3155(7)
C14 C 0.9126(11) 0.4983(7) -0.3876(8)
C15 C 1.0343(10) 0.2248(8) -0.2453(8)
C16 C 0.4278(11) 1.0079(9) 0.2936(7)
C17 C 0.9026(9) 0.1463(7) -0.2218(7)
C18 C 0.3126(12) 0.8972(9) -0.0562(8)
H9 H 0.3147 0.8008 -0.0765
H10 H 0.3826 0.9570 -0.0867
H11 H 0.2033 0.9170 -0.0991
C19 C 0.1458(11) 1.3672(9) 0.2763(9)
H12 H 0.1987 1.3619 0.3700
H13 H 0.0696 1.2829 0.2381
H14 H 0.0892 1.4467 0.2576
C20 C 0.4363(10) 1.3649(8) 0.1206(7)
C21 C 1.0368(11) 0.6209(9) -0.0433(8)
H15 H 1.0187 0.7125 -0.0233
H16 H 1.1513 0.6166 -0.0044
H17 H 0.9811 0.5513 -0.0081
C22 C 1.2072(11) 0.1518(9) -0.3676(8)
H18 H 1.3115 0.1531 -0.2959
H19 H 1.2055 0.2389 -0.4093
H20 H 1.1882 0.0756 -0.4307
C23 C 0.4340(9) 0.6590(8) -0.3390(7)
H21 H 0.4272 0.5568 -0.3367
C24 C 0.8121(12) 0.1924(9) -0.1498(8)
H22 H 0.7249 0.2375 -0.2080
H23 H 0.8837 0.2575 -0.0774
H24 H 0.7680 0.1126 -0.1166
C25 C 0.5311(10) 1.3138(8) 0.0465(8)
H25 H 0.4632 1.3022 -0.0463
H26 H 0.5635 1.2254 0.0774
H27 H 0.6261 1.3815 0.0617
C26 C 0.4454(15) 1.0843(10) 0.4179(9)
H28 H 0.3610 1.0432 0.4441
H29 H 0.4366 1.1813 0.4027
H30 H 0.5497 1.0774 0.4865
C27 C 0.8926(12) 0.4173(9) -0.5096(8)
H31 H 0.8349 0.4659 -0.5855
H32 H 0.8322 0.3257 -0.5149
H33 H 0.9978 0.4082 -0.5070
C28 C 0.8623(7) 1.0268(5) 0.2310(4)
H34 H 0.8747 1.0709 0.1575
H35 H 0.9406 1.0760 0.3118
H36 H 0.7544 1.0295 0.2256
C29 C 0.2730(6) 0.7029(6) -0.3486(5)
H37 H 0.2464 0.6647 -0.2787
H38 H 0.1876 0.6677 -0.4322
H39 H 0.2847 0.8034 -0.3410
C30 C 0.8901(10) 0.8725(8) 0.2284(7)
H40 H 0.9980 0.8682 0.2295
Cu1_2 Cu 0.60226(6) 1.66636(5) 0.14592(5)
Cu2_2 Cu 0.74167(7) -0.15501(5) -0.25049(5)
N2_2 N 0.4716(9) 0.4984(7) 0.1727(6)
N4_2 N 0.8737(8) 1.0143(7) -0.2756(6)
loop_
_geom_bond_atom_site_label_1
_geom_bond_atom_site_label_2
_geom_bond_site_symmetry_1
_geom_bond_site_symmetry_2
Cu1 O1 1_555 1_555
Cu2 O2 1_555 1_555
O1 C5 1_555 1_555
O2 C6 1_555 1_555
O3 Cu2 1_555 1_555
O4 Cu1 1_555 1_555
O5 C5 1_555 1_555
N1 Cu2 1_555 1_555
N2 N7 1_555 1_555
O6 C6 1_555 1_555
N3 Cu1 1_555 1_555
N4 N8 1_555 1_555
N5 Cu2 1_555 1_555
N6 Cu1 1_555 1_555
N7 H1 1_555 1_555
N8 H2 1_555 1_555
C1 O3 1_555 1_555
N9 N5 1_555 1_555
H3 N9 1_555 1_555
N10 N6 1_555 1_555
H4 N10 1_555 1_555
C2 O4 1_555 1_555
C3 H5 1_555 1_555
H6 C3 1_555 1_555
C4 C8 1_555 1_555
C5 C30 1_555 1_555
C6 C23 1_555 1_555
C7 C3 1_555 1_555
C8 H7 1_555 1_555
H8 C8 1_555 1_555
C9 N6 1_555 1_555
C10 N5 1_555 1_555
C11 N7 1_555 1_555
C12 C3 1_555 1_555
C13 N8 1_555 1_555
C14 N9 1_555 1_555
C15 C8 1_555 1_555
C16 N10 1_555 1_555
C17 N4 1_555 1_555
C18 C9 1_555 1_555
H9 C18 1_555 1_555
H10 C18 1_555 1_555
H11 C18 1_555 1_555
C19 C11 1_555 1_555
H12 C19 1_555 1_555
H13 C19 1_555 1_555
H14 C19 1_555 1_555
C20 N2 1_555 1_555
C21 C10 1_555 1_555
H15 C21 1_555 1_555
H16 C21 1_555 1_555
H17 C21 1_555 1_555
C22 C13 1_555 1_555
H18 C22 1_555 1_555
H19 C22 1_555 1_555
H20 C22 1_555 1_555
C23 N1 1_555 1_555
H21 C23 1_555 1_555
C24 C17 1_555 1_555
H22 C24 1_555 1_555
H23 C24 1_555 1_555
H24 C24 1_555 1_555
C25 C20 1_555 1_555
H25 C25 1_555 1_555
H26 C25 1_555 1_555
H27 C25 1_555 1_555
C26 C16 1_555 1_555
H28 C26 1_555 1_555
H29 C26 1_555 1_555
H30 C26 1_555 1_555
C27 C14 1_555 1_555
H31 C27 1_555 1_555
H32 C27 1_555 1_555
H33 C27 1_555 1_555
C28 H34 1_555 1_555
H35 C28 1_555 1_555
H36 C28 1_555 1_555
C29 C23 1_555 1_555
H37 C29 1_555 1_555
H38 C29 1_555 1_555
H39 C29 1_555 1_555
C30 N3 1_555 1_555
H40 C30 1_555 1_555
Cu1_2 N2 1_555 1_555
Cu2_2 N4 1_555 1_555
N2_2 Cu1 1_555 1_555
N4_2 Cu2 1_555 1_555
N1 C2 1_555 1_555
N3 C1 1_555 1_555
C1 C2 1_555 1_555
C4 C10 1_555 1_555
C4 C14 1_555 1_555
C7 C9 1_555 1_555
C7 C16 1_555 1_555
C11 C12 1_555 1_555
C12 C20 1_555 1_555
C13 C15 1_555 1_555
C15 C17 1_555 1_555
C28 C30 1_555 1_555

#END
