
#######################################################################
#
#                 Cambridge Crystallographic Data Centre
#                                CCDC 
#
#######################################################################
#
# If this CIF has been generated from an entry in the Cambridge 
# Structural Database, then it will include bibliographic, chemical, 
# crystal, experimental, refinement or atomic coordinate data resulting 
# from the CCDC's data processing and validation procedures.
#
#######################################################################

data_PMDSCU21
_symmetry_cell_setting           monoclinic
_symmetry_space_group_name_H-M   'C 2/m'
_symmetry_Int_Tables_number      12
_space_group_name_Hall           '-C 2y'
loop_
_symmetry_equiv_pos_site_id
_symmetry_equiv_pos_as_xyz
1 x,y,z
2 -x,y,-z
3 1/2+x,1/2+y,z
4 1/2-x,1/2+y,-z
5 -x,-y,-z
6 x,-y,z
7 1/2-x,1/2-y,-z
8 1/2+x,1/2-y,z
_cell_length_a                   11.7535(13)
_cell_length_b                   17.3420(18)
_cell_length_c                   6.5780(7)
_cell_angle_alpha                90
_cell_angle_beta                 116.465(3)
_cell_angle_gamma                90
_cell_volume                     1200.28
loop_
_atom_site_label
_atom_site_type_symbol
_atom_site_fract_x
_atom_site_fract_y
_atom_site_fract_z
Cu1 Cu 1.0000 0.905254(18) 1.0000
C1 C 0.76953(19) 0.82179(10) 0.7534(3)
N1 N 0.65527(17) 0.80271(10) 0.5972(3)
C2 C 0.6201(2) 0.83423(12) 0.3912(3)
H1 H 0.5378 0.8231 0.2739
C3 C 0.6987(2) 0.88196(12) 0.3437(3)
H2 H 0.6725 0.9032 0.1964
C4 C 0.8166(2) 0.89779(11) 0.5173(3)
H3 H 0.8736 0.9297 0.4884
N2 N 0.85315(16) 0.86909(9) 0.7272(3)
S1 S 0.82899(5) 0.78563(3) 1.03140(8)
Cl1 Cl 1.10594(7) 1.0000 0.86654(11)
C1F C 0.73047(19) 0.67821(10) 1.2466(3)
N1F N 0.84473(17) 0.69729(10) 1.4028(3)
C2F C 0.8799(2) 0.66577(12) 1.6088(3)
H1F H 0.9622 0.6769 1.7261
C3F C 0.8013(2) 0.61804(12) 1.6563(3)
H2F H 0.8275 0.5968 1.8036
C4F C 0.6834(2) 0.60221(11) 1.4827(3)
H3F H 0.6264 0.5703 1.5116
N2F N 0.64685(16) 0.63091(9) 1.2728(3)
S1F S 0.67101(5) 0.71437(3) 0.96860(8)
Cu1D Cu 1.0000 1.094746(18) 1.0000
Cu1F Cu 0.5000 0.594746(18) 1.0000
N2A N 1.14685(16) 0.86909(9) 1.2728(3)
S1A S 1.17101(5) 0.78563(3) 0.96860(8)
Cl1A Cl 0.89406(7) 1.0000 1.13346(11)
O1 O 1.4221(8) 1.0000 1.1694(14)
O2? O 1.4095(9) 1.0000 1.2953(17)
loop_
_geom_bond_atom_site_label_1
_geom_bond_atom_site_label_2
_geom_bond_site_symmetry_1
_geom_bond_site_symmetry_2
Cu1 N2 1_555 1_555
C1 N1 1_555 1_555
N1 C2 1_555 1_555
C2 H1 1_555 1_555
C3 C2 1_555 1_555
H2 C3 1_555 1_555
C4 C3 1_555 1_555
H3 C4 1_555 1_555
N2 C1 1_555 1_555
S1 Cu1 1_555 1_555
Cl1 Cu1 1_555 1_555
C1F N1F 1_555 1_555
N1F C2F 1_555 1_555
C2F H1F 1_555 1_555
C3F C2F 1_555 1_555
H2F C3F 1_555 1_555
C4F C3F 1_555 1_555
H3F C4F 1_555 1_555
N2F C1F 1_555 1_555
S1F S1 1_555 1_555
Cu1D Cl1 1_555 1_555
Cu1F N2F 1_555 1_555
N2A Cu1 1_555 1_555
S1A Cu1 1_555 1_555
Cl1A Cu1 1_555 1_555
C1 S1 1_555 1_555
C4 N2 1_555 1_555
C1F S1F 1_555 1_555
C4F N2F 1_555 1_555
S1F Cu1F 1_555 1_555
Cu1D Cl1A 1_555 1_555

#END
