
#######################################################################
#
#                 Cambridge Crystallographic Data Centre
#                                CCDC 
#
#######################################################################
#
# If this CIF has been generated from an entry in the Cambridge 
# Structural Database, then it will include bibliographic, chemical, 
# crystal, experimental, refinement or atomic coordinate data resulting 
# from the CCDC's data processing and validation procedures.
#
#######################################################################

data_POBBEP01
_symmetry_cell_setting           orthorhombic
_symmetry_space_group_name_H-M   'P 21 21 21'
_symmetry_Int_Tables_number      19
_space_group_name_Hall           'P 2ac 2ab'
loop_
_symmetry_equiv_pos_site_id
_symmetry_equiv_pos_as_xyz
1 x,y,z
2 1/2-x,-y,1/2+z
3 1/2+x,1/2-y,-z
4 -x,1/2+y,1/2-z
_cell_length_a                   12.1688(4)
_cell_length_b                   25.2260(9)
_cell_length_c                   28.0399(10)
_cell_angle_alpha                90
_cell_angle_beta                 90
_cell_angle_gamma                90
_cell_volume                     8607.41
loop_
_atom_site_label
_atom_site_type_symbol
_atom_site_fract_x
_atom_site_fract_y
_atom_site_fract_z
C1 C 0.841(2) 0.0650(8) 0.3641(7)
H1 H 0.8125 0.0564 0.3938
C2 C 0.891(2) 0.0227(9) 0.3373(8)
H2 H 0.8903 -0.0125 0.3472
C3 C 0.942(2) 0.0393(10) 0.2949(8)
H3 H 0.9864 0.0159 0.2780
C4 C 0.926(2) 0.0917(9) 0.2777(8)
H4 H 0.9527 0.1023 0.2481
C5 C 0.8704(17) 0.1260(8) 0.3069(6)
C6 C 0.8562(15) 0.1838(8) 0.2958(6)
C7 C 0.8883(18) 0.2067(7) 0.2519(6)
H5 H 0.9251 0.1871 0.2287
C8 C 0.8613(18) 0.2618(8) 0.2448(6)
C9 C 0.8078(15) 0.2908(8) 0.2819(6)
H6 H 0.7918 0.3266 0.2780
C10 C 0.7788(15) 0.2641(7) 0.3254(6)
C11 C 0.7235(13) 0.2846(6) 0.3669(6)
C12 C 0.6946(16) 0.3369(8) 0.3714(7)
H7 H 0.7076 0.3609 0.3469
C13 C 0.6437(17) 0.3533(8) 0.4151(7)
H8 H 0.6275 0.3887 0.4208
C14 C 0.6201(17) 0.3154(8) 0.4476(8)
H9 H 0.5829 0.3246 0.4754
C15 C 0.6503(14) 0.2633(8) 0.4402(7)
H10 H 0.6340 0.2382 0.4634
C16 C 1.0148(19) 0.0365(10) 0.6822(8)
H11 H 0.9654 0.0504 0.6602
C17 C 1.0553(18) 0.0710(9) 0.7203(7)
H12 H 1.0358 0.1066 0.7218
C18 C 1.162(2) -0.0045(9) 0.7493(8)
H13 H 1.2152 -0.0193 0.7692
C19 C 1.1134(14) -0.0331(8) 0.7117(6)
C20 C 1.1329(14) -0.0906(8) 0.7035(6)
C21 C 1.1975(15) -0.1225(8) 0.7344(6)
H14 H 1.2276 -0.1088 0.7623
C22 C 1.2149(16) -0.1773(10) 0.7208(7)
C23 C 1.1691(17) -0.1944(8) 0.6772(7)
H15 H 1.1807 -0.2292 0.6673
C24 C 1.1064(19) -0.1604(8) 0.6485(7)
C25 C 1.058(2) -0.1731(8) 0.6013(7)
C26 C 1.082(2) -0.2163(10) 0.5754(9)
H16 H 1.1330 -0.2412 0.5854
C27 C 0.9443(15) -0.1367(9) 0.5443(6)
H17 H 0.8983 -0.1100 0.5331
C28 C 0.3743(17) 0.2195(7) 0.4420(6)
H18 H 0.3684 0.1946 0.4664
C29 C 0.4259(14) 0.2417(7) 0.3658(6)
C30 C 0.4833(15) 0.2211(7) 0.3220(6)
C31 C 0.5071(16) 0.2487(9) 0.2793(6)
H19 H 0.4867 0.2840 0.2753
C32 C 0.5638(15) 0.2205(7) 0.2421(6)
C33 C 0.5612(14) 0.1446(7) 0.2915(5)
C34 C 0.5795(14) 0.0867(7) 0.3029(6)
C35 C 0.5409(15) 0.0207(6) 0.3574(6)
H20 H 0.5083 0.0099 0.3857
C36 C 0.5901(13) -0.0166(7) 0.3281(6)
H21 H 0.5896 -0.0521 0.3369
C37 C 0.5880(18) 0.2505(8) 0.1976(6)
C38 C 0.6552(18) 0.2255(8) 0.1645(6)
H22 H 0.6832 0.1918 0.1706
C39 C 0.681(3) 0.2523(11) 0.1212(8)
H23 H 0.7295 0.2383 0.0988
C40 C 0.5911(15) 0.1698(7) 0.2481(6)
H24 H 0.6287 0.1514 0.2244
C41 C 0.6349(14) 0.0509(7) 0.2723(5)
H25 H 0.6665 0.0625 0.2440
C42 C 0.6407(14) -0.0013(7) 0.2854(6)
H26 H 0.6773 -0.0259 0.2665
C43 C 0.626(3) 0.3024(10) 0.1142(10)
H27 H 0.6362 0.3213 0.0860
C44 C 0.561(3) 0.3219(11) 0.1487(11)
H28 H 0.5255 0.3539 0.1426
C45 C 0.3856(16) 0.2929(7) 0.3696(6)
H29 H 0.3914 0.3171 0.3447
C46 C 0.3322(17) 0.2713(8) 0.4491(7)
H30 H 0.3025 0.2811 0.4783
C47 C 0.3362(17) 0.3061(8) 0.4125(7)
H31 H 0.3052 0.3395 0.4162
C48 C 1.2808(16) -0.2118(10) 0.7527(8)
C49 C 1.125(2) 0.0481(11) 0.7547(8)
H32 H 1.1468 0.0678 0.7811
C50 C 0.958(3) -0.1849(10) 0.5176(8)
H33 H 0.9189 -0.1895 0.4894
C51 C 1.023(3) -0.2219(12) 0.5322(9)
H34 H 1.0318 -0.2525 0.5140
C52 C 1.311(2) -0.2624(12) 0.7358(11)
H35 H 1.2903 -0.2740 0.7056
C53 C 1.376(2) -0.2955(12) 0.7670(10)
H36 H 1.4045 -0.3274 0.7561
C54 C 1.393(2) -0.2799(13) 0.8117(11)
H37 H 1.4285 -0.3016 0.8337
C55 C 1.354(2) -0.2260(12) 0.8249(9)
H38 H 1.3721 -0.2130 0.8549
C56 C 0.894(2) 0.2901(10) 0.2002(8)
C57 C 0.847(3) 0.3371(12) 0.1945(9)
C58 C 0.862(4) 0.370(3) 0.1541(14)
C59 C 0.927(3) 0.336(2) 0.1149(12)
H39 H 0.9298 0.3487 0.0837
C60 C 0.977(3) 0.2922(13) 0.1252(9)
H40 H 1.0335 0.2793 0.1061
Cu1 Cu 0.47428(17) 0.13227(8) 0.38308(7)
Cu2 Cu 0.76684(18) 0.17523(8) 0.38706(7)
Cu3 Cu 1.00261(17) -0.06452(9) 0.62517(7)
N1 N 0.5134(14) 0.1708(6) 0.3256(5)
N2 N 0.5395(11) 0.0726(6) 0.3453(5)
N3 N 0.4232(12) 0.2056(5) 0.4002(5)
N4 N 0.5418(18) 0.2988(6) 0.1910(6)
N5 N 0.8072(13) 0.2111(6) 0.3290(5)
N6 N 0.7034(11) 0.2479(6) 0.3999(5)
N7 N 0.8322(15) 0.1133(6) 0.3505(6)
N8 N 0.943(2) 0.2650(10) 0.1653(6)
N9 N 1.0927(13) -0.1095(6) 0.6632(5)
N10 N 1.0446(13) -0.0129(6) 0.6777(5)
N11 N 1.0001(13) -0.1306(6) 0.5868(5)
N12 N 1.2937(16) -0.1956(8) 0.7968(6)
O1 O 0.8313(9) 0.0764(4) 0.6079(4)
O2 O 0.8760(8) -0.0295(4) 0.5969(4)
O3 O 0.9654(10) 0.0460(5) 0.5350(4)
O4 O 0.7927(11) -0.0197(4) 0.5068(4)
O5 O 0.7509(9) 0.0807(4) 0.5195(4)
O6 O 0.7008(11) -0.1163(5) 0.4871(4)
O7 O 0.7723(13) -0.0564(5) 0.4113(4)
O8 O 0.6900(9) 0.1324(5) 0.4336(4)
O9 O 0.6495(8) 0.0257(5) 0.4531(3)
O10 O 0.5530(9) -0.0663(5) 0.4316(4)
O11 O 0.5208(8) 0.0664(4) 0.5272(4)
O12 O 0.6259(10) 0.1168(4) 0.6077(4)
O13 O 0.7462(11) 0.1111(5) 0.6926(4)
O14 O 0.7548(11) 0.0043(5) 0.6767(4)
O15 O 0.8270(10) -0.0963(5) 0.6655(4)
O16 O 0.6008(8) -0.0714(4) 0.6605(4)
O17 O 0.7101(9) -0.1018(4) 0.5825(4)
O18 O 0.6313(11) -0.1987(4) 0.5454(4)
O19 O 0.4786(9) -0.1336(4) 0.4970(4)
O20 O 0.3328(12) -0.0639(5) 0.5267(4)
O21 O 0.5676(9) -0.0472(4) 0.5194(4)
O22 O 0.4451(9) -0.0103(4) 0.6004(4)
O23 O 0.6885(8) 0.0063(4) 0.5924(4)
O24 O 0.3266(12) -0.0924(5) 0.4297(4)
O25 O 0.5976(10) 0.1584(4) 0.5179(4)
O26 O 0.3973(9) 0.0044(5) 0.4627(4)
O27 O 0.2604(10) 0.0934(5) 0.4517(4)
O28 O 0.3733(9) 0.1350(4) 0.5274(4)
O29 O 0.2873(10) 0.0369(5) 0.5364(4)
O30 O 0.1330(11) -0.0331(5) 0.5731(5)
O31 O 0.4785(11) 0.2023(5) 0.5917(4)
O32 O 0.4150(9) 0.0976(5) 0.6154(4)
O33 O 0.3018(10) -0.0821(5) 0.6189(4)
O34 O 0.2647(9) 0.0217(5) 0.6313(4)
O35 O 0.3543(12) 0.0782(5) 0.7100(4)
O36 O 0.4126(9) -0.0278(5) 0.6893(4)
O37 O 0.4288(10) -0.1381(5) 0.6852(4)
O38 O 0.5588(9) 0.0512(5) 0.6722(4)
O39 O 0.4970(11) -0.1211(5) 0.5916(4)
O40 O 0.4848(9) 0.1024(4) 0.4460(3)
O41 O 0.2997(14) 0.1081(7) 0.3538(5)
O42 O 0.9115(11) 0.1933(5) 0.4321(5)
W1 W 0.63228(5) 0.09473(3) 0.48031(2)
W2 W 0.42113(6) -0.06862(3) 0.47176(2)
W3 W 0.70212(6) 0.06908(3) 0.64887(2)
W4 W 0.50079(6) 0.13876(3) 0.57059(2)
W5 W 0.36785(5) 0.07386(3) 0.48882(2)
W6 W 0.69021(6) -0.04757(3) 0.45953(2)
W7 W 0.26948(6) -0.02208(3) 0.57781(2)
W8 W 0.60189(6) -0.13242(3) 0.54017(2)
W9 W 0.73618(5) -0.05539(3) 0.63391(2)
W10 W 0.44526(6) -0.08643(3) 0.64668(2)
W11 W 0.40525(6) 0.04344(3) 0.66223(2)
W12 W 0.83649(5) 0.02713(3) 0.55504(2)
Cu3_2 Cu 0.00261(17) -0.06452(9) 0.62517(7)
O30_2 O 1.1330(11) -0.0331(5) 0.5731(5)
O43 O 0.0303(12) 0.1053(7) 0.4547(6)
loop_
_geom_bond_atom_site_label_1
_geom_bond_atom_site_label_2
_geom_bond_site_symmetry_1
_geom_bond_site_symmetry_2
C1 H1 1_555 1_555
C2 C1 1_555 1_555
H2 C2 1_555 1_555
C3 C2 1_555 1_555
H3 C3 1_555 1_555
C4 C3 1_555 1_555
H4 C4 1_555 1_555
C5 C4 1_555 1_555
C6 C5 1_555 1_555
C7 C6 1_555 1_555
H5 C7 1_555 1_555
C8 C7 1_555 1_555
C9 C8 1_555 1_555
H6 C9 1_555 1_555
C10 C9 1_555 1_555
C11 C10 1_555 1_555
C12 C11 1_555 1_555
H7 C12 1_555 1_555
C13 C12 1_555 1_555
H8 C13 1_555 1_555
C14 C13 1_555 1_555
H9 C14 1_555 1_555
C15 C14 1_555 1_555
H10 C15 1_555 1_555
C16 H11 1_555 1_555
C17 C16 1_555 1_555
H12 C17 1_555 1_555
C18 H13 1_555 1_555
C19 C18 1_555 1_555
C20 C19 1_555 1_555
C21 C20 1_555 1_555
H14 C21 1_555 1_555
C22 C21 1_555 1_555
C23 C22 1_555 1_555
H15 C23 1_555 1_555
C24 C23 1_555 1_555
C25 C24 1_555 1_555
C26 C25 1_555 1_555
H16 C26 1_555 1_555
C27 H17 1_555 1_555
C28 H18 1_555 1_555
C29 C30 1_555 1_555
C30 C31 1_555 1_555
C31 H19 1_555 1_555
C32 C31 1_555 1_555
C33 C34 1_555 1_555
C34 C41 1_555 1_555
C35 H20 1_555 1_555
C36 C35 1_555 1_555
H21 C36 1_555 1_555
C37 C32 1_555 1_555
C38 C37 1_555 1_555
H22 C38 1_555 1_555
C39 C38 1_555 1_555
H23 C39 1_555 1_555
C40 C32 1_555 1_555
H24 C40 1_555 1_555
C41 H25 1_555 1_555
C42 C36 1_555 1_555
H26 C42 1_555 1_555
C43 C39 1_555 1_555
H27 C43 1_555 1_555
C44 C43 1_555 1_555
H28 C44 1_555 1_555
C45 C29 1_555 1_555
H29 C45 1_555 1_555
C46 C28 1_555 1_555
H30 C46 1_555 1_555
C47 C45 1_555 1_555
H31 C47 1_555 1_555
C48 C22 1_555 1_555
C49 C17 1_555 1_555
H32 C49 1_555 1_555
C50 C27 1_555 1_555
H33 C50 1_555 1_555
C51 C26 1_555 1_555
H34 C51 1_555 1_555
C52 C48 1_555 1_555
H35 C52 1_555 1_555
C53 C52 1_555 1_555
H36 C53 1_555 1_555
C54 C53 1_555 1_555
H37 C54 1_555 1_555
C55 C54 1_555 1_555
H38 C55 1_555 1_555
C56 C8 1_555 1_555
C57 C56 1_555 1_555
C58 C57 1_555 1_555
C59 C58 1_555 1_555
H39 C59 1_555 1_555
C60 C59 1_555 1_555
H40 C60 1_555 1_555
Cu1 N1 1_555 1_555
Cu2 N5 1_555 1_555
Cu3 N9 1_555 1_555
N1 C30 1_555 1_555
N2 C34 1_555 1_555
N3 C28 1_555 1_555
N4 C37 1_555 1_555
N5 C6 1_555 1_555
N6 C11 1_555 1_555
N7 C1 1_555 1_555
N8 C56 1_555 1_555
N9 C20 1_555 1_555
N10 C16 1_555 1_555
N11 C25 1_555 1_555
N12 C48 1_555 1_555
O1 W3 1_555 1_555
O2 Cu3 1_555 1_555
O3 W12 1_555 1_555
O4 W6 1_555 1_555
O5 W1 1_555 1_555
O6 W6 1_555 1_555
O7 W6 1_555 1_555
O8 Cu2 1_555 1_555
O9 W1 1_555 1_555
O10 W2 1_555 1_555
O11 W1 1_555 1_555
O12 W3 1_555 1_555
O13 W3 1_555 1_555
O14 W3 1_555 1_555
O15 Cu3 1_555 1_555
O16 W9 1_555 1_555
O17 W8 1_555 1_555
O18 W8 1_555 1_555
O19 W2 1_555 1_555
O20 W2 1_555 1_555
O21 W2 1_555 1_555
O22 W7 1_555 1_555
O23 W3 1_555 1_555
O24 W2 1_555 1_555
O25 W1 1_555 1_555
O26 W2 1_555 1_555
O27 W5 1_555 1_555
O28 W4 1_555 1_555
O29 W5 1_555 1_555
O30 W7 1_555 1_555
O31 W4 1_555 1_555
O32 W4 1_555 1_555
O33 W7 1_555 1_555
O34 W7 1_555 1_555
O35 W11 1_555 1_555
O36 W10 1_555 1_555
O37 W10 1_555 1_555
O38 W3 1_555 1_555
O39 W8 1_555 1_555
O40 Cu1 1_555 1_555
O41 Cu1 1_555 1_555
O42 Cu2 1_555 1_555
W1 O8 1_555 1_555
W4 O11 1_555 1_555
W5 O11 1_555 1_555
W6 O9 1_555 1_555
W7 O20 1_555 1_555
W8 O6 1_555 1_555
W9 O2 1_555 1_555
W10 O16 1_555 1_555
W11 O22 1_555 1_555
W12 O1 1_555 1_555
Cu3_2 O30 1_555 1_555
O30_2 Cu3 1_555 1_555
C5 N7 1_555 1_555
C10 N5 1_555 1_555
C15 N6 1_555 1_555
C18 C49 1_555 1_555
C19 N10 1_555 1_555
C24 N9 1_555 1_555
C27 N11 1_555 1_555
C29 N3 1_555 1_555
C33 C40 1_555 1_555
C33 N1 1_555 1_555
C35 N2 1_555 1_555
C41 C42 1_555 1_555
C44 N4 1_555 1_555
C46 C47 1_555 1_555
C50 C51 1_555 1_555
C55 N12 1_555 1_555
C60 N8 1_555 1_555
Cu1 N2 1_555 1_555
Cu1 N3 1_555 1_555
Cu2 N6 1_555 1_555
Cu2 N7 1_555 1_555
Cu3 N10 1_555 1_555
Cu3 N11 1_555 1_555
O2 W12 1_555 1_555
O4 W12 1_555 1_555
O5 W12 1_555 1_555
O10 W6 1_555 1_555
O12 W4 1_555 1_555
O14 W9 1_555 1_555
O15 W9 1_555 1_555
O17 W9 1_555 1_555
O19 W8 1_555 1_555
O21 W6 1_555 1_555
O21 W8 1_555 1_555
O22 W10 1_555 1_555
O23 W9 1_555 1_555
O23 W12 1_555 1_555
O25 W4 1_555 1_555
O26 W5 1_555 1_555
O28 W5 1_555 1_555
O29 W7 1_555 1_555
O32 W11 1_555 1_555
O33 W10 1_555 1_555
O34 W11 1_555 1_555
O36 W11 1_555 1_555
O38 W11 1_555 1_555
O39 W10 1_555 1_555
O40 W1 1_555 1_555
O40 W5 1_555 1_555

#END
