
#######################################################################
#
#                 Cambridge Crystallographic Data Centre
#                                CCDC 
#
#######################################################################
#
# If this CIF has been generated from an entry in the Cambridge 
# Structural Database, then it will include bibliographic, chemical, 
# crystal, experimental, refinement or atomic coordinate data resulting 
# from the CCDC's data processing and validation procedures.
#
#######################################################################

data_POBZIQ
_symmetry_cell_setting           monoclinic
_symmetry_space_group_name_H-M   'P 21/c'
_symmetry_Int_Tables_number      14
_space_group_name_Hall           '-P 2ybc'
loop_
_symmetry_equiv_pos_site_id
_symmetry_equiv_pos_as_xyz
1 x,y,z
2 -x,1/2+y,1/2-z
3 -x,-y,-z
4 x,1/2-y,1/2+z
_cell_length_a                   14.2260(19)
_cell_length_b                   12.3865(17)
_cell_length_c                   23.792(3)
_cell_angle_alpha                90
_cell_angle_beta                 109.079(6)
_cell_angle_gamma                90
_cell_volume                     3962.1
loop_
_atom_site_label
_atom_site_type_symbol
_atom_site_fract_x
_atom_site_fract_y
_atom_site_fract_z
C1 C 0.1548(4) 0.8771(5) 0.0892(3)
C2 C 0.1601(5) 0.9759(6) 0.0536(3)
H1 H 0.2011 0.9606 0.0291
H2 H 0.0939 0.9940 0.0275
C3 C 0.1366(5) 1.0920(5) 0.1288(3)
H3 H 0.0703 1.1094 0.1026
H4 H 0.1623 1.1544 0.1538
C4 C 0.1312(5) 0.9959(5) 0.1679(3)
C5 C 0.2348(4) 0.9621(5) 0.2116(3)
H5 H 0.2248 0.9081 0.2392
C6 C 0.2580(4) 0.8393(5) 0.1315(3)
H6 H 0.2512 0.7680 0.1476
C7 C 0.0878(5) 0.8969(5) 0.1290(3)
C8 C 0.1068(5) 0.7839(7) 0.0462(4)
C9 C 0.0451(14) 0.6081(12) 0.0354(9)
H7 H -0.0125 0.5893 0.0459
H8 H 0.0885 0.5467 0.0414
H9 H 0.0250 0.6295 -0.0056
C10 C 0.0665(5) 1.0291(6) 0.2077(3)
C11 C 0.2900(5) 1.0570(5) 0.2473(3)
C12 C 0.2857(6) 1.0856(6) 0.3019(3)
H10 H 0.2494 1.0443 0.3202
C13 C 0.3352(7) 1.1755(7) 0.3292(4)
H11 H 0.3333 1.1951 0.3665
C14 C 0.3871(6) 1.2364(7) 0.3023(4)
H12 H 0.4204 1.2985 0.3202
C15 C 0.3890(6) 1.2024(6) 0.2465(3)
H13 H 0.4237 1.2438 0.2272
C16 C 0.3326(5) 0.8326(6) 0.0984(3)
C17 C 0.3467(6) 0.7405(6) 0.0705(4)
H14 H 0.3118 0.6779 0.0724
C18 C 0.4137(6) 0.7418(8) 0.0395(4)
H15 H 0.4225 0.6806 0.0192
C19 C 0.4663(6) 0.8329(7) 0.0390(4)
H16 H 0.5133 0.8342 0.0195
C20 C 0.4490(6) 0.9237(7) 0.0680(3)
H17 H 0.4837 0.9867 0.0667
C21 C 0.2010(6) 1.1631(6) 0.0532(3)
H18 H 0.2293 1.1412 0.0230
H19 H 0.1325 1.1842 0.0331
C22 C 0.2571(6) 1.2590(6) 0.0854(4)
H20 H 0.2441 1.2664 0.1228
H21 H 0.2312 1.3230 0.0619
C23 C 0.3672(6) 1.2557(6) 0.0983(3)
C24 C 0.4163(8) 1.3467(8) 0.0878(4)
H22 H 0.3821 1.4104 0.0739
C25 C 0.5185(10) 1.3390(10) 0.0990(5)
H23 H 0.5531 1.3962 0.0896
C26 C 0.5671(8) 1.2478(11) 0.1236(5)
H24 H 0.6359 1.2438 0.1334
C27 C 0.5160(6) 1.1628(8) 0.1339(4)
H25 H 0.5504 1.1002 0.1500
C28 C 0.3858(5) 0.8592(6) 0.2279(3)
H26 H 0.3590 0.8055 0.2475
H27 H 0.4230 0.9111 0.2565
H28 H 0.4287 0.8254 0.2093
Co1 Co 0.35362(6) 1.04122(7) 0.14765(4)
K1 K -0.00950(14) 1.27446(14) 0.25134(9)
N1 N 0.3433(4) 1.1134(4) 0.2200(2)
N2 N 0.3827(4) 0.9239(5) 0.0983(2)
N3 N 0.2019(4) 1.0681(4) 0.0925(2)
N4 N 0.4165(4) 1.1654(5) 0.1216(3)
N5 N 0.3017(4) 0.9155(4) 0.1812(2)
O1 O 0.0834(5) 0.7941(5) -0.0066(3)
O2 O 0.0964(5) 0.6955(5) 0.0721(3)
O3 O 0.0419(5) 1.1251(5) 0.2053(3)
O4 O 0.0480(4) 0.9601(4) 0.2393(3)
O5 O -0.0075(3) 0.9165(5) 0.0874(2)
H29 H -0.0463 0.9323 0.1050
O6 O 0.0858(4) 0.8097(4) 0.1662(2)
H30 H 0.0846 0.7611 0.1372
O7 O 0.1398(7) 1.3558(7) 0.2450(5)
O8 O 0.1094(8) 1.2196(11) 0.3444(5)
O9 O -0.0718(11) 1.1065(8) 0.2830(8)
O10 O -0.047(2) 1.3177(16) 0.1444(8)
O11 O -0.1756(10) 1.240(2) 0.1946(10)
K1A K 0.00950(14) 0.77446(14) 0.24866(9)
O4A O -0.0480(4) 1.4601(4) 0.2607(3)
O6A O -0.0858(4) 1.3097(4) 0.3338(2)
Cl1 Cl 0.25622(18) 0.4831(2) 0.39883(11)
O12 O 0.3005(8) 0.4800(12) 0.3588(5)
O13 O 0.3084(11) 0.4325(19) 0.4465(6)
O14 O 0.1695(8) 0.4406(19) 0.3785(7)
O15 O 0.244(2) 0.5805(12) 0.4166(10)
Cl2 Cl 0.7609(2) 0.9861(3) 0.55250(12)
O16 O 0.7681(8) 1.0153(7) 0.4995(4)
O17 O 0.8478(9) 0.9918(11) 0.5977(5)
O18 O 0.7393(15) 0.8772(11) 0.5522(5)
O19 O 0.6909(14) 1.0356(16) 0.5650(7)
Cl3 Cl 0.3370(3) 0.5274(2) 0.20858(16)
O20 O 0.2882(8) 0.6049(6) 0.2291(4)
O21 O 0.4180(9) 0.4933(11) 0.2564(6)
O22 O 0.2786(13) 0.4394(10) 0.1911(7)
O23 O 0.3683(15) 0.5644(11) 0.1660(7)
loop_
_geom_bond_atom_site_label_1
_geom_bond_atom_site_label_2
_geom_bond_site_symmetry_1
_geom_bond_site_symmetry_2
C1 C2 1_555 1_555
C2 H1 1_555 1_555
H2 C2 1_555 1_555
C3 H3 1_555 1_555
H4 C3 1_555 1_555
C4 C3 1_555 1_555
C5 C4 1_555 1_555
H5 C5 1_555 1_555
C6 C1 1_555 1_555
H6 C6 1_555 1_555
C7 C1 1_555 1_555
C8 C1 1_555 1_555
C9 H7 1_555 1_555
H8 C9 1_555 1_555
H9 C9 1_555 1_555
C10 C4 1_555 1_555
C11 C5 1_555 1_555
C12 C11 1_555 1_555
H10 C12 1_555 1_555
C13 C12 1_555 1_555
H11 C13 1_555 1_555
C14 C13 1_555 1_555
H12 C14 1_555 1_555
C15 C14 1_555 1_555
H13 C15 1_555 1_555
C16 C6 1_555 1_555
C17 C16 1_555 1_555
H14 C17 1_555 1_555
C18 C17 1_555 1_555
H15 C18 1_555 1_555
C19 C18 1_555 1_555
H16 C19 1_555 1_555
C20 C19 1_555 1_555
H17 C20 1_555 1_555
C21 H18 1_555 1_555
H19 C21 1_555 1_555
C22 C21 1_555 1_555
H20 C22 1_555 1_555
H21 C22 1_555 1_555
C23 C22 1_555 1_555
C24 C23 1_555 1_555
H22 C24 1_555 1_555
C25 C24 1_555 1_555
H23 C25 1_555 1_555
C26 C25 1_555 1_555
H24 C26 1_555 1_555
C27 C26 1_555 1_555
H25 C27 1_555 1_555
C28 H26 1_555 1_555
H27 C28 1_555 1_555
H28 C28 1_555 1_555
Co1 N1 1_555 1_555
K1 O3 1_555 1_555
N1 C11 1_555 1_555
N2 C16 1_555 1_555
N3 C2 1_555 1_555
N4 C23 1_555 1_555
N5 C5 1_555 1_555
O1 C8 1_555 1_555
O2 C8 1_555 1_555
O3 C10 1_555 1_555
O4 C10 1_555 1_555
O5 C7 1_555 1_555
H29 O5 1_555 1_555
O6 C7 1_555 1_555
H30 O6 1_555 1_555
O7 K1 1_555 1_555
O8 K1 1_555 1_555
O9 K1 1_555 1_555
O10 K1 1_555 1_555
O11 K1 1_555 1_555
Cl1 O12 1_555 1_555
O13 Cl1 1_555 1_555
O14 Cl1 1_555 1_555
O15 Cl1 1_555 1_555
Cl2 O16 1_555 1_555
O17 Cl2 1_555 1_555
O18 Cl2 1_555 1_555
O19 Cl2 1_555 1_555
Cl3 O20 1_555 1_555
O21 Cl3 1_555 1_555
O22 Cl3 1_555 1_555
O23 Cl3 1_555 1_555
K1A O4 1_555 1_555
O4A K1 1_555 1_555
O6A K1 1_555 1_555
C3 N3 1_555 1_555
C4 C7 1_555 1_555
C6 N5 1_555 1_555
C9 O2 1_555 1_555
C15 N1 1_555 1_555
C20 N2 1_555 1_555
C21 N3 1_555 1_555
C27 N4 1_555 1_555
C28 N5 1_555 1_555
Co1 N2 1_555 1_555
Co1 N3 1_555 1_555
Co1 N4 1_555 1_555
Co1 N5 1_555 1_555
O6 K1A 1_555 1_555

#END
