
#######################################################################
#
#                 Cambridge Crystallographic Data Centre
#                                CCDC 
#
#######################################################################
#
# If this CIF has been generated from an entry in the Cambridge 
# Structural Database, then it will include bibliographic, chemical, 
# crystal, experimental, refinement or atomic coordinate data resulting 
# from the CCDC's data processing and validation procedures.
#
#######################################################################

data_POCDUI
_symmetry_cell_setting           triclinic
_symmetry_space_group_name_H-M   'P -1'
_symmetry_Int_Tables_number      2
_space_group_name_Hall           '-P 1'
loop_
_symmetry_equiv_pos_site_id
_symmetry_equiv_pos_as_xyz
1 x,y,z
2 -x,-y,-z
_cell_length_a                   9.5713(9)
_cell_length_b                   13.7001(13)
_cell_length_c                   14.9315(14)
_cell_angle_alpha                64.6460(10)
_cell_angle_beta                 82.2820(10)
_cell_angle_gamma                81.0890(10)
_cell_volume                     1742.92
loop_
_atom_site_label
_atom_site_type_symbol
_atom_site_fract_x
_atom_site_fract_y
_atom_site_fract_z
Y1 Y 0.70726(2) -0.033493(18) 1.049608(16)
Y2 Y 0.86338(2) 0.436643(18) -0.046507(16)
S1 S 0.85320(7) -0.32989(5) 1.45946(5)
S2 S 0.64601(7) -0.16081(5) 1.50532(4)
S3 S 0.49825(7) -0.09433(5) 1.66343(5)
S4 S 0.72848(8) 0.28458(6) 0.68647(5)
S5 S 0.78641(8) 0.41738(6) 0.46896(5)
S6 S 0.68312(9) 0.52396(6) 0.26574(5)
S7 S 0.84503(7) -0.01953(5) 0.74385(4)
S8 S 0.75177(7) 0.08065(6) 0.53457(5)
S9 S 0.83109(7) 0.19963(6) 0.31699(5)
O1 O 0.7974(2) -0.18751(15) 1.17515(13)
O2 O 0.9283(2) -0.33455(16) 1.27086(14)
O3 O 0.40339(18) -0.13090(13) 1.93735(12)
O4 O 0.36146(19) 0.00133(14) 1.79045(13)
O5 O 0.54822(17) 0.04855(13) 0.90613(12)
O6 O 0.73923(18) 0.12857(14) 0.88567(12)
O7 O 0.7045(2) 0.44978(17) 0.08246(14)
O8 O 0.5636(2) 0.60428(16) 0.04067(15)
O9 O 1.10355(18) -0.04098(15) 0.93525(13)
O10 O 0.88642(17) -0.08820(13) 0.94976(12)
O11 O 0.90460(19) 0.27518(14) 0.11047(12)
O12 O 1.01031(19) 0.41569(14) 0.08687(12)
O13 O 0.64033(19) -0.18768(15) 1.03379(15)
H1 H 0.5744 -0.1835 1.0002
H2 H 0.6853 -0.2492 1.0512
O14 O 1.0496(2) 0.31588(15) -0.07166(13)
H3 H 1.0707 0.3153 -0.1273
H4 H 1.0492 0.2531 -0.0273
O15 O 0.8986(2) 0.48366(14) -0.21871(13)
H5 H 0.8511 0.5316 -0.2632
H6 H 0.9416 0.4379 -0.2387
O16 O 0.68649(19) 0.57530(14) -0.11716(13)
H7 H 0.6780 0.6251 -0.1733
H8 H 0.6424 0.5930 -0.0735
O17 O 0.7155(2) 0.32665(15) -0.05800(15)
H9 H 0.6280 0.3375 -0.0465
H10 H 0.7403 0.2617 -0.0438
N1 N 0.7585(2) -0.33580(17) 1.63849(15)
N2 N 0.6752(2) -0.27985(17) 1.68922(15)
N3 N 0.5504(2) 0.3376(2) 0.53980(16)
N4 N 0.5397(3) 0.3955(2) 0.43724(17)
N5 N 0.9993(2) 0.09525(19) 0.57268(15)
N6 N 0.9958(2) 0.14924(19) 0.46922(15)
C1 C 0.8398(3) -0.2542(2) 1.25816(18)
C2 C 0.7734(3) -0.2341(2) 1.34770(17)
H11 H 0.6725 -0.2404 1.3552
H12 H 0.7855 -0.1608 1.3372
C3 C 0.7545(3) -0.28312(19) 1.54233(18)
C4 C 0.6107(3) -0.18860(19) 1.62997(17)
C5 C 0.4843(3) -0.1687(2) 1.79698(18)
H13 H 0.4303 -0.2298 1.8157
H14 H 0.5780 -0.1964 1.8209
C6 C 0.4107(2) -0.0929(2) 1.84264(18)
C7 C 0.6287(2) 0.12255(19) 0.85318(17)
C8 C 0.5851(3) 0.2017(2) 0.75180(19)
H15 H 0.4998 0.2475 0.7581
H16 H 0.5651 0.1626 0.7148
C9 C 0.6711(3) 0.3436(2) 0.56593(19)
C10 C 0.6530(3) 0.4415(2) 0.39288(19)
C11 C 0.5607(3) 0.4794(2) 0.21222(19)
H17 H 0.5599 0.4012 0.2458
H18 H 0.4653 0.5136 0.2180
C12 C 0.6133(3) 0.5131(2) 0.10375(19)
C13 C 0.9951(2) -0.04356(19) 0.89893(18)
C14 C 0.9951(3) 0.0103(2) 0.78695(18)
H19 H 1.0824 -0.0147 0.7582
H20 H 0.9920 0.0883 0.7644
C15 C 0.8809(3) 0.0550(2) 0.61561(18)
C16 C 0.8756(3) 0.1472(2) 0.44018(18)
C17 C 0.9754(3) 0.2821(2) 0.25555(18)
H21 H 0.9686 0.3418 0.2751
H22 H 1.0659 0.2387 0.2732
C18 C 0.9624(2) 0.32469(19) 0.14541(18)
Y1A Y 0.29274(2) 0.033493(18) 0.950392(16)
Y1A_2 Y 0.29274(2) 0.033493(18) 1.950392(16)
Y1A_3 Y 1.29274(2) 0.033493(18) 0.950392(16)
Y2A Y 1.13662(2) 0.563357(18) 0.046507(16)
O3A O 0.59661(18) 0.13090(13) 1.06265(12)
O4A O 0.63854(19) -0.00133(14) 1.20955(13)
O5A O 0.45178(17) -0.04855(13) 1.09387(12)
O9A O 0.89645(18) 0.04098(15) 1.06475(13)
O12A O 0.98969(19) 0.58431(14) -0.08687(12)
loop_
_geom_bond_atom_site_label_1
_geom_bond_atom_site_label_2
_geom_bond_site_symmetry_1
_geom_bond_site_symmetry_2
Y1 O1 1_555 1_555
Y2 O7 1_555 1_555
S1 C2 1_555 1_555
S2 C3 1_555 1_555
S3 C4 1_555 1_555
S4 C8 1_555 1_555
S5 C9 1_555 1_555
S6 C10 1_555 1_555
S7 C14 1_555 1_555
S8 C15 1_555 1_555
S9 C16 1_555 1_555
O1 C1 1_555 1_555
O2 C1 1_555 1_555
O3 C6 1_555 1_555
O4 C6 1_555 1_555
O5 Y1 1_555 1_555
O6 Y1 1_555 1_555
O7 C12 1_555 1_555
O8 C12 1_555 1_555
O9 C13 1_555 1_555
O10 Y1 1_555 1_555
O11 Y2 1_555 1_555
O12 Y2 1_555 1_555
O13 Y1 1_555 1_555
H1 O13 1_555 1_555
H2 O13 1_555 1_555
O14 Y2 1_555 1_555
H3 O14 1_555 1_555
H4 O14 1_555 1_555
O15 Y2 1_555 1_555
H5 O15 1_555 1_555
H6 O15 1_555 1_555
O16 Y2 1_555 1_555
H7 O16 1_555 1_555
H8 O16 1_555 1_555
O17 Y2 1_555 1_555
H9 O17 1_555 1_555
H10 O17 1_555 1_555
N1 N2 1_555 1_555
N2 C4 1_555 1_555
N3 N4 1_555 1_555
N4 C10 1_555 1_555
N5 N6 1_555 1_555
N6 C16 1_555 1_555
C1 C2 1_555 1_555
C2 H11 1_555 1_555
H12 C2 1_555 1_555
C3 S1 1_555 1_555
C4 S2 1_555 1_555
C5 S3 1_555 1_555
H13 C5 1_555 1_555
H14 C5 1_555 1_555
C6 C5 1_555 1_555
C7 O5 1_555 1_555
C8 C7 1_555 1_555
H15 C8 1_555 1_555
H16 C8 1_555 1_555
C9 S4 1_555 1_555
C10 S5 1_555 1_555
C11 S6 1_555 1_555
H17 C11 1_555 1_555
H18 C11 1_555 1_555
C12 C11 1_555 1_555
C13 O10 1_555 1_555
C14 C13 1_555 1_555
H19 C14 1_555 1_555
H20 C14 1_555 1_555
C15 S7 1_555 1_555
C16 S8 1_555 1_555
C17 S9 1_555 1_555
H21 C17 1_555 1_555
H22 C17 1_555 1_555
C18 O11 1_555 1_555
Y1A O5 1_555 1_555
Y1A_2 O3 1_555 1_555
Y1A_3 O9 1_555 1_555
Y2A O12 1_555 1_555
O3A Y1 1_555 1_555
O4A Y1 1_555 1_555
O5A Y1 1_555 1_555
O9A Y1 1_555 1_555
O12A Y2 1_555 1_555
O4 Y1A_2 1_555 1_555
O6 C7 1_555 1_555
O12 C18 1_555 1_555
N1 C3 1_555 1_555
N3 C9 1_555 1_555
N5 C15 1_555 1_555
C17 C18 1_555 1_555
Y1A O5A 1_555 1_555
Y2A O12A 1_555 1_555

#END
