
#######################################################################
#
#                 Cambridge Crystallographic Data Centre
#                                CCDC 
#
#######################################################################
#
# If this CIF has been generated from an entry in the Cambridge 
# Structural Database, then it will include bibliographic, chemical, 
# crystal, experimental, refinement or atomic coordinate data resulting 
# from the CCDC's data processing and validation procedures.
#
#######################################################################

data_POCGOD
_symmetry_cell_setting           triclinic
_symmetry_space_group_name_H-M   'P -1'
_symmetry_Int_Tables_number      2
_space_group_name_Hall           '-P 1'
loop_
_symmetry_equiv_pos_site_id
_symmetry_equiv_pos_as_xyz
1 x,y,z
2 -x,-y,-z
_cell_length_a                   10.890(2)
_cell_length_b                   14.133(2)
_cell_length_c                   17.404(2)
_cell_angle_alpha                105.23(1)
_cell_angle_beta                 94.50(1)
_cell_angle_gamma                106.12(1)
_cell_volume                     2449.59
loop_
_atom_site_label
_atom_site_type_symbol
_atom_site_fract_x
_atom_site_fract_y
_atom_site_fract_z
Cu1 Cu 0.0000 0.5000 0.5000
Cu2 Cu 0.0490(2) 0.0060(1) 0.2485(1)
Cu3 Cu 0.0000 -0.5000 0.0000
O1 O 0.1594(7) 0.4942(5) 0.5546(5)
O2 O 0.0941(8) 0.5981(6) 0.4489(5)
C1 C 0.2700(10) 0.5351(8) 0.5430(7)
C2 C 0.3020(10) 0.5950(10) 0.4930(8)
C3 C 0.2150(10) 0.6230(10) 0.4506(8)
C4 C 0.3750(10) 0.5150(10) 0.5940(1)
F1 F 0.3671(8) 0.5402(7) 0.6697(5)
F2 F 0.4933(7) 0.5652(7) 0.5859(6)
F3 F 0.3672(8) 0.4185(7) 0.5733(6)
C5 C 0.2600(10) 0.6880(10) 0.3960(10)
F4 F 0.2270(10) 0.7690(8) 0.4145(8)
F5 F 0.3810(10) 0.7170(8) 0.3974(7)
F6 F 0.2020(10) 0.6380(10) 0.3202(6)
O3 O 0.0210 0.3831(17) 0.3832(6)
N1 N -0.0090(10) 0.2943(8) 0.3360(7)
N2 N -0.0077(8) 0.1323(6) 0.2676(5)
C6 C 0.0570(10) 0.2220(10) 0.3424(7)
C7 C 0.0380(10) 0.1860(10) 0.4146(8)
C8 C 0.1970(10) 0.2640(10) 0.3402(8)
C9 C -0.0990(10) 0.2620(10) 0.2598(8)
C10 C -0.0600(10) 0.3350(10) 0.2090(10)
C11 C -0.2360(10) 0.2560(10) 0.2810(10)
C12 C -0.0860(10) 0.1572(8) 0.2250(7)
C13 C -0.1640(10) 0.0880(10) 0.1475(7)
C14 C -0.0790(10) 0.0720(10) 0.0800(10)
C15 C -0.2560(10) -0.0090(10) 0.1485(8)
O4 O 0.2140(8) 0.0227(6) 0.3359(5)
O5 O 0.1949(7) 0.0416(6) 0.1731(5)
C16 C 0.3300(10) 0.0510(10) 0.3287(8)
C17 C 0.3870(10) 0.0780(10) 0.2659(8)
C18 C 0.3160(10) 0.0705(8) 0.1977(8)
C19 C 0.4210(10) 0.0650(10) 0.397(12)
F7 F 0.5400(10) 0.0970(10) 0.4034(7)
F8 F 0.4060(10) 0.1110(10) 0.4645(6)
F9 F 0.4070(10) -0.0140(10) 0.4180(10)
C20 C 0.3840(10) 0.0950(10) 0.1320(10)
F10 F 0.3440(10) 0.1533(8) 0.0947(6)
F11 F 0.5010(10) 0.1383(8) 0.1469(6)
F12 F 0.3730(10) 0.0250(10) 0.0683(7)
O6 O -0.0630(10) -0.4018(6) 0.1216(6)
N3 N -0.0318(8) -0.1465(6) 0.2216(5)
N4 N -0.0720(10) -0.3173(7) 0.1630(6)
C21 C 0.0100(10) -0.2162(8) 0.1613(7)
C22 C -0.0120(10) -0.2014(8) 0.0797(7)
C23 C 0.1510(10) -0.2075(8) 0.1880(8)
C24 C -0.1610(10) -0.3114(8) 0.2200(7)
C25 C -0.2990(10) -0.3600(10) 0.1770(10)
C26 C -0.1310(10) -0.3660(10) 0.2800(10)
C27 C -0.1240(10) -0.1946(8) 0.2527(7)
C28 C -0.1720(10) -0.1310(1) 0.3192(8)
C29 C -0.0950(10) -0.1210(10) 0.4017(8)
C30 C -0.3060(10) -0.1650(10) 0.3180(10)
O7 O 0.1102(6) -0.5469(5) 0.0638(5)
O8 O 0.1451(6) -0.3893(5) -0.0083(4)
C31 C 0.2290(10) -0.5140(8) 0.0777(7)
C32 C 0.3100(10) -0.4327(8) 0.0555(8)
C33 C 0.2590(10) -0.3766(8) 0.0154(7)
C34 C 0.2980(10) -0.5720(1) 0.1120(1)
F13 F 0.2880(10) -0.5460(10) 0.1922(7)
F14 F 0.4110(10) -0.5513(8) 0.1240(10)
F15 F 0.2410(10) -0.6602(7) 0.1083(7)
C35 C 0.3350(10) -0.2840(10) 0.0060(10)
F16 F 0.3134(8) -0.2156(6) -0.0061(7)
F17 F 0.3700(10) -0.3173(8) -0.0763(7)
F18 F 0.4682(7) -0.2626(7) -0.0296(7)
O1A O -0.1594(7) 0.5058(5) 0.4454(5)
O2A O -0.0941(8) 0.4019(6) 0.5511(5)
O3A O -0.0210 0.6169(17) 0.6168(6)
O6A O 0.0630(10) -0.5982(6) -0.1216(6)
O7A O -0.1102(6) -0.4531(5) -0.0638(5)
O8A O -0.1451(6) -0.6107(5) 0.0083(4)
C1A C -0.2700(10) 0.4649(8) 0.4570(7)
C3A C -0.2150(10) 0.3770(10) 0.5494(8)
N4A N 0.0720(10) -0.6827(7) -0.1630(6)
C31A C -0.2290(10) -0.4860(8) -0.0777(7)
C33A C -0.2590(10) -0.6234(8) -0.0154(7)
C2A C -0.3020(10) 0.4050(10) 0.5070(8)
C4A C -0.3750(10) 0.4850(10) 0.4060(1)
C5A C -0.2600(10) 0.3120(10) 0.6040(10)
C21A C -0.0100(10) -0.7838(8) -0.1613(7)
C24A C 0.1610(10) -0.6886(8) -0.2200(7)
C32A C -0.3100(10) -0.5673(8) -0.0555(8)
C34A C -0.2980(10) -0.4280(1) -0.1120(1)
C35A C -0.3350(10) -0.7160(10) -0.0060(10)
F1A F -0.3671(8) 0.4598(7) 0.3303(5)
F2A F -0.4933(7) 0.4348(7) 0.4141(6)
F3A F -0.3672(8) 0.5815(7) 0.4267(6)
F4A F -0.2270(10) 0.2310(8) 0.5855(8)
F5A F -0.3810(10) 0.2830(8) 0.6026(7)
F6A F -0.2020(10) 0.3620(10) 0.6798(6)
N3A N 0.0318(8) -0.8535(6) -0.2216(5)
C22A C 0.0120(10) -0.7986(8) -0.0797(7)
C23A C -0.1510(10) -0.7925(8) -0.1880(8)
C25A C 0.2990(10) -0.6400(10) -0.1770(10)
C26A C 0.1310(10) -0.6340(10) -0.2800(10)
C27A C 0.1240(10) -0.8054(8) -0.2527(7)
F13A F -0.2880(10) -0.4540(10) -0.1922(7)
F14A F -0.4110(10) -0.4487(8) -0.1240(10)
F15A F -0.2410(10) -0.3398(7) -0.1083(7)
F16A F -0.3134(8) -0.7844(6) 0.0061(7)
F17A F -0.3700(10) -0.6827(8) 0.0763(7)
F18A F -0.4682(7) -0.7374(7) 0.0296(7)
Cu2A Cu -0.0490(2) -1.0060(1) -0.2485(1)
C28A C 0.1720(10) -0.8690(1) -0.3192(8)
C29A C 0.0950(10) -0.8790(10) -0.4017(8)
C30A C 0.3060(10) -0.8350(10) -0.3180(10)
N2A N 0.0077(8) -1.1323(6) -0.2676(5)
O4A O -0.2140(8) -1.0227(6) -0.3359(5)
O5A O -0.1949(7) -1.0416(6) -0.1731(5)
C6A C -0.0570(10) -1.2220(10) -0.3424(7)
C12A C 0.0860(10) -1.1572(8) -0.2250(7)
C16A C -0.3300(10) -1.0510(10) -0.3287(8)
C18A C -0.3160(10) -1.0705(8) -0.1977(8)
N1A N 0.0090(10) -1.2943(8) -0.3360(7)
C7A C -0.0380(10) -1.1860(10) -0.4146(8)
C8A C -0.1970(10) -1.2640(10) -0.3402(8)
C9A C 0.0990(10) -1.2620(10) -0.2598(8)
C13A C 0.1640(10) -1.0880(10) -0.1475(7)
C17A C -0.3870(10) -1.0780(10) -0.2659(8)
C19A C -0.4210(10) -1.0650(10) -0.397(12)
C20A C -0.3840(10) -1.0950(10) -0.1320(10)
O3A_2 O -0.0210 -1.3831(17) -0.3832(6)
C10A C 0.0600(10) -1.3350(10) -0.2090(10)
C11A C 0.2360(10) -1.2560(10) -0.2810(10)
C14A C 0.0790(10) -1.0720(10) -0.0800(10)
C15A C 0.2560(10) -0.9910(10) -0.1485(8)
F7A F -0.5400(10) -1.0970(10) -0.4034(7)
F8A F -0.4060(10) -1.1110(10) -0.4645(6)
F9A F -0.4070(10) -0.9860(10) -0.4180(10)
F10A F -0.3440(10) -1.1533(8) -0.0947(6)
F11A F -0.5010(10) -1.1383(8) -0.1469(6)
F12A F -0.3730(10) -1.0250(10) -0.0683(7)
Cu1_2 Cu 0.0000 -1.5000 -0.5000
loop_
_geom_bond_atom_site_label_1
_geom_bond_atom_site_label_2
_geom_bond_site_symmetry_1
_geom_bond_site_symmetry_2
Cu1 O1 1_555 1_555
Cu2 N2 1_555 1_555
Cu3 O6 1_555 1_555
O1 C1 1_555 1_555
O2 Cu1 1_555 1_555
C1 C2 1_555 1_555
C2 C3 1_555 1_555
C3 O2 1_555 1_555
C4 C1 1_555 1_555
F1 C4 1_555 1_555
F2 C4 1_555 1_555
F3 C4 1_555 1_555
C5 C3 1_555 1_555
F4 C5 1_555 1_555
F5 C5 1_555 1_555
F6 C5 1_555 1_555
O3 Cu1 1_555 1_555
N1 O3 1_555 1_555
N2 C6 1_555 1_555
C6 N1 1_555 1_555
C7 C6 1_555 1_555
C8 C6 1_555 1_555
C9 N1 1_555 1_555
C10 C9 1_555 1_555
C11 C9 1_555 1_555
C12 N2 1_555 1_555
C13 C12 1_555 1_555
C14 C13 1_555 1_555
C15 C13 1_555 1_555
O4 Cu2 1_555 1_555
O5 Cu2 1_555 1_555
C16 O4 1_555 1_555
C17 C16 1_555 1_555
C18 O5 1_555 1_555
C19 C16 1_555 1_555
F7 C19 1_555 1_555
F8 C19 1_555 1_555
F9 C19 1_555 1_555
C20 C18 1_555 1_555
F10 C20 1_555 1_555
F11 C20 1_555 1_555
F12 C20 1_555 1_555
O6 N4 1_555 1_555
N3 Cu2 1_555 1_555
N4 C21 1_555 1_555
C21 N3 1_555 1_555
C22 C21 1_555 1_555
C23 C21 1_555 1_555
C24 N4 1_555 1_555
C25 C24 1_555 1_555
C26 C24 1_555 1_555
C27 N3 1_555 1_555
C28 C27 1_555 1_555
C29 C28 1_555 1_555
C30 C28 1_555 1_555
O7 Cu3 1_555 1_555
O8 Cu3 1_555 1_555
C31 O7 1_555 1_555
C32 C31 1_555 1_555
C33 O8 1_555 1_555
C34 C31 1_555 1_555
F13 C34 1_555 1_555
F14 C34 1_555 1_555
F15 C34 1_555 1_555
C35 C33 1_555 1_555
F16 C35 1_555 1_555
F17 C35 1_555 1_555
F18 C35 1_555 1_555
O1A Cu1 1_555 1_555
O2A Cu1 1_555 1_555
O3A Cu1 1_555 1_555
O6A Cu3 1_555 1_555
O7A Cu3 1_555 1_555
O8A Cu3 1_555 1_555
C1A O1A 1_555 1_555
C3A O2A 1_555 1_555
N4A O6A 1_555 1_555
C31A O7A 1_555 1_555
C33A O8A 1_555 1_555
C2A C1A 1_555 1_555
C4A C1A 1_555 1_555
C5A C3A 1_555 1_555
C21A N4A 1_555 1_555
C24A N4A 1_555 1_555
C32A C31A 1_555 1_555
C34A C31A 1_555 1_555
C35A C33A 1_555 1_555
F1A C4A 1_555 1_555
F2A C4A 1_555 1_555
F3A C4A 1_555 1_555
F4A C5A 1_555 1_555
F5A C5A 1_555 1_555
F6A C5A 1_555 1_555
N3A C21A 1_555 1_555
C22A C21A 1_555 1_555
C23A C21A 1_555 1_555
C25A C24A 1_555 1_555
C26A C24A 1_555 1_555
C27A C24A 1_555 1_555
F13A C34A 1_555 1_555
F14A C34A 1_555 1_555
F15A C34A 1_555 1_555
F16A C35A 1_555 1_555
F17A C35A 1_555 1_555
F18A C35A 1_555 1_555
Cu2A N3A 1_555 1_555
C28A C27A 1_555 1_555
C29A C28A 1_555 1_555
C30A C28A 1_555 1_555
N2A Cu2A 1_555 1_555
O4A Cu2A 1_555 1_555
O5A Cu2A 1_555 1_555
C6A N2A 1_555 1_555
C12A N2A 1_555 1_555
C16A O4A 1_555 1_555
C18A O5A 1_555 1_555
N1A C6A 1_555 1_555
C7A C6A 1_555 1_555
C8A C6A 1_555 1_555
C9A C12A 1_555 1_555
C13A C12A 1_555 1_555
C17A C16A 1_555 1_555
C19A C16A 1_555 1_555
C20A C18A 1_555 1_555
O3A_2 N1A 1_555 1_555
C10A C9A 1_555 1_555
C11A C9A 1_555 1_555
C14A C13A 1_555 1_555
C15A C13A 1_555 1_555
F7A C19A 1_555 1_555
F8A C19A 1_555 1_555
F9A C19A 1_555 1_555
F10A C20A 1_555 1_555
F11A C20A 1_555 1_555
F12A C20A 1_555 1_555
Cu1_2 O3A_2 1_555 1_555
C9 C12 1_555 1_555
C17 C18 1_555 1_555
C24 C27 1_555 1_555
C32 C33 1_555 1_555
C3A C2A 1_555 1_555
C33A C32A 1_555 1_555
N3A C27A 1_555 1_555
C18A C17A 1_555 1_555
N1A C9A 1_555 1_555

#END
