
#######################################################################
#
#                 Cambridge Crystallographic Data Centre
#                                CCDC 
#
#######################################################################
#
# If this CIF has been generated from an entry in the Cambridge 
# Structural Database, then it will include bibliographic, chemical, 
# crystal, experimental, refinement or atomic coordinate data resulting 
# from the CCDC's data processing and validation procedures.
#
#######################################################################

data_POCKUP
_symmetry_cell_setting           monoclinic
_symmetry_space_group_name_H-M   'P 21/c'
_symmetry_Int_Tables_number      14
_space_group_name_Hall           '-P 2ybc'
loop_
_symmetry_equiv_pos_site_id
_symmetry_equiv_pos_as_xyz
1 x,y,z
2 -x,1/2+y,1/2-z
3 -x,-y,-z
4 x,1/2-y,1/2+z
_cell_length_a                   8.919(3)
_cell_length_b                   12.747(4)
_cell_length_c                   16.131(5)
_cell_angle_alpha                90
_cell_angle_beta                 99.194(3)
_cell_angle_gamma                90
_cell_volume                     1810.38
loop_
_atom_site_label
_atom_site_type_symbol
_atom_site_fract_x
_atom_site_fract_y
_atom_site_fract_z
Co1 Co 0.88659(4) 0.58919(3) 0.13051(2)
Br1 Br 1.37769(4) 1.05093(3) 0.09907(2)
O1 O 0.8996(2) 0.67283(15) -0.00133(12)
O2 O 1.0060(2) 0.72700(16) 0.12287(13)
O3 O 0.9514(2) 0.92149(17) -0.24329(12)
O4 O 1.1707(2) 1.00754(18) -0.23406(13)
O5 O 1.0678(2) 0.49485(17) 0.10694(13)
H1 H 1.1105 0.4835 0.1550
H2 H 1.0660 0.4441 0.0754
N1 N 0.7136(2) 0.47626(17) 0.10078(14)
N2 N 0.6914(2) 0.66781(17) 0.15706(13)
C1 C 1.0579(3) 0.82654(19) 0.00692(16)
C2 C 1.0294(3) 0.8482(2) -0.07862(16)
H3 H 0.9582 0.8087 -0.1139
C3 C 1.1069(3) 0.9285(2) -0.11171(16)
C4 C 1.2138(3) 0.9875(2) -0.05894(17)
H4 H 1.2687 1.0398 -0.0809
C5 C 1.2372(3) 0.9677(2) 0.02562(17)
C6 C 1.1608(3) 0.8881(2) 0.06002(17)
H5 H 1.1780 0.8760 0.1176
C7 C 0.9825(3) 0.7370(2) 0.04430(18)
C8 C 1.0750(3) 0.9551(2) -0.20369(17)
C9 C 0.7307(3) 0.3810(2) 0.0681(2)
H6 H 0.8264 0.3619 0.0574
C10 C 0.6134(3) 0.3103(2) 0.0495(2)
H7 H 0.6304 0.2443 0.0284
C11 C 0.4710(3) 0.3393(2) 0.06283(18)
H8 H 0.3891 0.2939 0.0499
C12 C 0.4520(3) 0.4377(2) 0.09593(18)
H9 H 0.3563 0.4593 0.1049
C13 C 0.5748(3) 0.5037(2) 0.11549(16)
C14 C 0.5644(3) 0.6100(2) 0.15205(16)
C15 C 0.4361(3) 0.6477(3) 0.18028(19)
H10 H 0.3500 0.6060 0.1782
C16 C 0.4387(4) 0.7489(3) 0.2117(2)
H11 H 0.3536 0.7762 0.2307
C17 C 0.5661(4) 0.8082(3) 0.2148(2)
H12 H 0.5685 0.8768 0.2347
C18 C 0.6923(3) 0.7649(2) 0.18789(19)
H13 H 0.7804 0.8047 0.1914
Co1C Co 0.88659(4) 0.91081(3) -0.36949(2)
O3C O 0.9514(2) 0.57851(17) 0.25671(12)
O6 O 0.898(4) 0.177(3) 0.730(2)
loop_
_geom_bond_atom_site_label_1
_geom_bond_atom_site_label_2
_geom_bond_site_symmetry_1
_geom_bond_site_symmetry_2
Co1 O1 1_555 1_555
Br1 C5 1_555 1_555
O1 C7 1_555 1_555
O2 Co1 1_555 1_555
O3 C8 1_555 1_555
O4 C8 1_555 1_555
O5 Co1 1_555 1_555
H1 O5 1_555 1_555
H2 O5 1_555 1_555
N1 Co1 1_555 1_555
N2 Co1 1_555 1_555
C1 C2 1_555 1_555
C2 H3 1_555 1_555
C3 C2 1_555 1_555
C4 C3 1_555 1_555
H4 C4 1_555 1_555
C5 C4 1_555 1_555
C6 C1 1_555 1_555
H5 C6 1_555 1_555
C7 O2 1_555 1_555
C8 C3 1_555 1_555
C9 N1 1_555 1_555
H6 C9 1_555 1_555
C10 C9 1_555 1_555
H7 C10 1_555 1_555
C11 C10 1_555 1_555
H8 C11 1_555 1_555
C12 C11 1_555 1_555
H9 C12 1_555 1_555
C13 N1 1_555 1_555
C14 N2 1_555 1_555
C15 C14 1_555 1_555
H10 C15 1_555 1_555
C16 C15 1_555 1_555
H11 C16 1_555 1_555
C17 C16 1_555 1_555
H12 C17 1_555 1_555
C18 N2 1_555 1_555
H13 C18 1_555 1_555
Co1C O3 1_555 1_555
O3C Co1 1_555 1_555
C1 C7 1_555 1_555
C5 C6 1_555 1_555
C12 C13 1_555 1_555
C13 C14 1_555 1_555
C17 C18 1_555 1_555

#END
