
#######################################################################
#
#                 Cambridge Crystallographic Data Centre
#                                CCDC 
#
#######################################################################
#
# If this CIF has been generated from an entry in the Cambridge 
# Structural Database, then it will include bibliographic, chemical, 
# crystal, experimental, refinement or atomic coordinate data resulting 
# from the CCDC's data processing and validation procedures.
#
#######################################################################

data_POCLUP
_symmetry_cell_setting           orthorhombic
_symmetry_space_group_name_H-M   'P b c a'
_symmetry_Int_Tables_number      61
_space_group_name_Hall           '-P 2ac 2ab'
loop_
_symmetry_equiv_pos_site_id
_symmetry_equiv_pos_as_xyz
1 x,y,z
2 1/2-x,-y,1/2+z
3 -x,1/2+y,1/2-z
4 1/2+x,1/2-y,-z
5 -x,-y,-z
6 1/2+x,y,1/2-z
7 x,1/2-y,1/2+z
8 1/2-x,1/2+y,z
_cell_length_a                   14.5679(3)
_cell_length_b                   15.3703(3)
_cell_length_c                   27.2360(5)
_cell_angle_alpha                90
_cell_angle_beta                 90
_cell_angle_gamma                90
_cell_volume                     6098.49
loop_
_atom_site_label
_atom_site_type_symbol
_atom_site_fract_x
_atom_site_fract_y
_atom_site_fract_z
W1 W 0.509770(17) 0.109200(18) 0.246653(9)
C1 C 0.5074(4) -0.0496(4) 0.1855(2)
C2 C 0.7245(4) 0.0074(4) 0.3405(2)
H1 H 0.7809 0.0065 0.3245
C3 C 0.6469(4) 0.0370(4) 0.3162(2)
C4 C 0.5541(4) 0.0133(4) 0.3892(2)
H2 H 0.4977 0.0161 0.4051
C5 C 0.5414(4) -0.0823(5) 0.0864(3)
C6 C 0.5504(4) 0.0038(5) 0.1050(2)
H3 H 0.5663 0.0494 0.0843
C7 C 0.5619(4) 0.0406(4) 0.3426(2)
C8 C 0.5354(4) 0.0182(4) 0.1532(2)
C9 C 0.7177(4) -0.0209(4) 0.3889(2)
C10 C 0.5046(4) -0.2364(5) 0.0986(3)
H4 H 0.4873 -0.2818 0.1191
C11 C 0.5159(4) -0.1511(4) 0.1181(3)
C12 C 0.6318(5) -0.0199(4) 0.4142(2)
C13 C 0.4982(4) -0.1326(4) 0.1672(3)
H5 H 0.4798 -0.1772 0.1881
C14 C 0.5564(6) -0.1027(5) 0.0352(3)
H6 H 0.5741 -0.0586 0.0139
C15 C 0.7020(7) -0.0849(6) 0.4854(3)
H7 H 0.6981 -0.1082 0.5169
C16 C 0.6247(5) -0.0531(5) 0.4628(3)
H8 H 0.5685 -0.0533 0.4791
C17 C 0.5450(6) -0.1863(6) 0.0171(3)
H9 H 0.5544 -0.1980 -0.0160
O1 O 0.5453(3) 0.0970(3) 0.17596(15)
C18 C 0.5195(5) -0.2519(6) 0.0489(3)
H10 H 0.5121 -0.3080 0.0368
C19 C 0.7878(6) -0.0821(6) 0.4610(3)
H11 H 0.8400 -0.1008 0.4776
C20 C 0.7962(5) -0.0529(4) 0.4140(3)
H12 H 0.8531 -0.0540 0.3985
O2 O 0.4941(3) -0.0246(3) 0.23152(17)
O3 O 0.5600(4) 0.2123(3) 0.24622(15)
O4 O 0.4906(2) 0.0743(3) 0.31621(16)
O5 O 0.6430(3) 0.0647(3) 0.26993(16)
O6 O 0.3937(3) 0.1310(3) 0.24209(16)
Na1 Na 0.74113(16) 0.1882(2) 0.25430(9)
N1 N 0.9842(4) 0.2842(4) 0.3681(2)
H13 H 0.9993 0.2291 0.3739
H14 H 1.0270 0.3088 0.3494
H15 H 0.9802 0.3129 0.3964
N2 N 0.7361(4) 0.2363(5) 0.3417(3)
H16 H 0.6946 0.2033 0.3576
H17 H 0.7156 0.2915 0.3425
C21 C 0.8957(5) 0.2874(5) 0.3428(3)
H18 H 0.8754 0.3474 0.3410
H19 H 0.9035 0.2663 0.3095
C22 C 0.8206(6) 0.2327(6) 0.3685(3)
H20 H 0.8109 0.2547 0.4015
H21 H 0.8408 0.1728 0.3710
O7 O 0.7153(6) 0.1760(6) 0.1694(3)
N3 N 0.7871(5) 0.3482(5) 0.2257(3)
H22 H 0.8458 0.3422 0.2160
H23 H 0.7899 0.3781 0.2541
C23 C 0.6756(6) 0.4238(6) 0.1787(4)
H24 H 0.6647 0.4674 0.1557
C24 C 0.7504(8) 0.4102(14) 0.1918(7)
H25 H 0.7942 0.4462 0.1775
C25 C 0.7742(7) 0.1590(8) 0.1327(5)
H26 H 0.8359 0.1599 0.1450
H27 H 0.7611 0.1027 0.1191
H28 H 0.7677 0.2024 0.1075
N4 N 0.5976(4) 0.3723(3) 0.1983(2)
H29 H 0.5578 0.4078 0.2129
H30 H 0.5699 0.3446 0.1738
H31 H 0.6184 0.3338 0.2200
O6E O 0.8937(3) 0.1310(3) 0.25791(16)
Na1E Na 0.24113(16) 0.1882(2) 0.24570(9)
C26 C 0.7159(7) 0.1645(7) 0.4822(4)
O8 O 0.6446(8) 0.1402(7) 0.5388(5)
loop_
_geom_bond_atom_site_label_1
_geom_bond_atom_site_label_2
_geom_bond_site_symmetry_1
_geom_bond_site_symmetry_2
W1 O1 1_555 1_555
C1 C8 1_555 1_555
C2 H1 1_555 1_555
C3 C2 1_555 1_555
C4 H2 1_555 1_555
C5 C6 1_555 1_555
C6 H3 1_555 1_555
C7 C3 1_555 1_555
C8 C6 1_555 1_555
C9 C2 1_555 1_555
C10 H4 1_555 1_555
C11 C5 1_555 1_555
C12 C4 1_555 1_555
C13 C1 1_555 1_555
H5 C13 1_555 1_555
C14 C5 1_555 1_555
H6 C14 1_555 1_555
C15 H7 1_555 1_555
C16 C12 1_555 1_555
H8 C16 1_555 1_555
C17 C14 1_555 1_555
H9 C17 1_555 1_555
O1 C8 1_555 1_555
C18 C10 1_555 1_555
H10 C18 1_555 1_555
C19 C15 1_555 1_555
H11 C19 1_555 1_555
C20 C9 1_555 1_555
H12 C20 1_555 1_555
O2 W1 1_555 1_555
O3 W1 1_555 1_555
O4 W1 1_555 1_555
O5 W1 1_555 1_555
O6 W1 1_555 1_555
Na1 O3 1_555 1_555
N1 H13 1_555 1_555
H14 N1 1_555 1_555
H15 N1 1_555 1_555
N2 Na1 1_555 1_555
H16 N2 1_555 1_555
H17 N2 1_555 1_555
C21 N1 1_555 1_555
H18 C21 1_555 1_555
H19 C21 1_555 1_555
C22 N2 1_555 1_555
H20 C22 1_555 1_555
H21 C22 1_555 1_555
O7 Na1 1_555 1_555
N3 Na1 1_555 1_555
H22 N3 1_555 1_555
H23 N3 1_555 1_555
C23 H24 1_555 1_555
C24 N3 1_555 1_555
H25 C24 1_555 1_555
C25 O7 1_555 1_555
H26 C25 1_555 1_555
H27 C25 1_555 1_555
H28 C25 1_555 1_555
N4 C23 1_555 1_555
H29 N4 1_555 1_555
H30 N4 1_555 1_555
H31 N4 1_555 1_555
C26 O8 1_555 1_555
O6E Na1 1_555 1_555
Na1E O6 1_555 1_555
C1 O2 1_555 1_555
C3 O5 1_555 1_555
C4 C7 1_555 1_555
C7 O4 1_555 1_555
C9 C12 1_555 1_555
C10 C11 1_555 1_555
C11 C13 1_555 1_555
C15 C16 1_555 1_555
C17 C18 1_555 1_555
C19 C20 1_555 1_555
O5 Na1 1_555 1_555
C21 C22 1_555 1_555
C23 C24 1_555 1_555

#END
