
#######################################################################
#
#                 Cambridge Crystallographic Data Centre
#                                CCDC 
#
#######################################################################
#
# If this CIF has been generated from an entry in the Cambridge 
# Structural Database, then it will include bibliographic, chemical, 
# crystal, experimental, refinement or atomic coordinate data resulting 
# from the CCDC's data processing and validation procedures.
#
#######################################################################

data_POCLAV
_symmetry_cell_setting           monoclinic
_symmetry_space_group_name_H-M   'P 21/n'
_symmetry_Int_Tables_number      14
_space_group_name_Hall           '-P 2yn'
loop_
_symmetry_equiv_pos_site_id
_symmetry_equiv_pos_as_xyz
1 x,y,z
2 1/2-x,1/2+y,1/2-z
3 -x,-y,-z
4 1/2+x,1/2-y,1/2+z
_cell_length_a                   6.8508(12)
_cell_length_b                   17.996(3)
_cell_length_c                   9.1736(16)
_cell_angle_alpha                90
_cell_angle_beta                 108.596(3)
_cell_angle_gamma                90
_cell_volume                     1071.94
loop_
_atom_site_label
_atom_site_type_symbol
_atom_site_fract_x
_atom_site_fract_y
_atom_site_fract_z
Pb1 Pb -0.09515(5) -0.382160(17) -1.51174(3)
Pb2 Pb 0.45176(5) -0.255850(18) -1.40343(3)
O1 O 0.2677(10) -0.3745(4) -1.3312(7)
O2 O 0.5163(9) -0.3145(3) -1.1602(7)
O3 O 0.3492(11) -0.2411(3) -0.9224(8)
O4 O 0.6590(10) -0.2939(4) -0.8178(7)
O5 O 0.1978(9) -0.3259(3) -0.6591(6)
O6 O 0.5129(9) -0.3690(4) -0.5506(6)
O7 O 0.1681(10) -0.4907(3) -0.5975(7)
O8 O 0.1631(11) -0.5952(3) -0.7234(7)
C1 C 0.3767(13) -0.3627(5) -1.1925(9)
C2 C 0.3372(13) -0.4054(5) -1.0649(9)
C3 C 0.2647(13) -0.4778(5) -1.0894(9)
H1 H 0.2379 -0.4994 -1.1858
C4 C 0.2319(12) -0.5183(5) -0.9693(9)
H2 H 0.1944 -0.5681 -0.9843
C5 C 0.2545(12) -0.4852(4) -0.8276(9)
C6 C 0.3259(12) -0.4115(5) -0.8035(9)
C7 C 0.3785(12) -0.3721(4) -0.9182(9)
C8 C 0.1929(13) -0.5263(5) -0.7079(9)
C9 C 0.3460(13) -0.3679(4) -0.6599(8)
C10 C 0.4685(13) -0.2965(5) -0.8849(8)
Pb1C Pb 0.40485(5) -0.117840(17) -1.01174(3)
Pb1_2 Pb 0.90485(5) -0.382160(17) -0.51174(3)
Pb1B Pb 0.09515(5) -0.617840(17) -0.48826(3)
Pb2C Pb 0.95176(5) -0.244150(18) -0.90343(3)
Pb2_2 Pb 0.45176(5) -0.255850(18) -0.40343(3)
Pb2C_2 Pb -0.04824(5) -0.244150(18) -0.90343(3)
O3C O -0.1508(11) -0.2589(3) -1.4224(8)
O4C O 0.1590(10) -0.2061(4) -1.3178(7)
O5C O 0.6978(9) -0.1741(3) -1.1591(6)
O5_2 O 0.1978(9) -0.3259(3) -1.6591(6)
O6_2 O 0.5129(9) -0.3690(4) -1.5506(6)
O6_3 O -0.4871(9) -0.3690(4) -1.5506(6)
O7B O -0.1681(10) -0.5093(3) -1.4025(7)
O8B O -0.1631(11) -0.4048(3) -1.2766(7)
loop_
_geom_bond_atom_site_label_1
_geom_bond_atom_site_label_2
_geom_bond_site_symmetry_1
_geom_bond_site_symmetry_2
Pb1 O1 1_555 1_555
Pb2 O1 1_555 1_555
O1 C1 1_555 1_555
O2 Pb2 1_555 1_555
O3 C10 1_555 1_555
O4 C10 1_555 1_555
O5 C9 1_555 1_555
O6 C9 1_555 1_555
O7 C8 1_555 1_555
O8 C8 1_555 1_555
C1 O2 1_555 1_555
C2 C1 1_555 1_555
C3 C2 1_555 1_555
H1 C3 1_555 1_555
C4 C3 1_555 1_555
H2 C4 1_555 1_555
C5 C4 1_555 1_555
C6 C5 1_555 1_555
C7 C2 1_555 1_555
C8 C5 1_555 1_555
C9 C6 1_555 1_555
C10 C7 1_555 1_555
Pb1C O3 1_555 1_555
Pb1_2 O6 1_555 1_555
Pb1B O7 1_555 1_555
Pb2C O4 1_555 1_555
Pb2_2 O5 1_555 1_555
Pb2C_2 O5 1_555 1_555
O3C Pb1 1_555 1_555
O4C Pb2 1_555 1_555
O5C Pb2 1_555 1_555
O5_2 Pb2 1_555 1_555
O6_2 Pb2 1_555 1_555
O6_3 Pb1 1_555 1_555
O7B Pb1 1_555 1_555
O8B Pb1 1_555 1_555
O6 Pb2_2 1_555 1_555
O8 Pb1B 1_555 1_555
C6 C7 1_555 1_555
Pb2C O5C 1_555 1_555

#END
