
#######################################################################
#
#                 Cambridge Crystallographic Data Centre
#                                CCDC 
#
#######################################################################
#
# If this CIF has been generated from an entry in the Cambridge 
# Structural Database, then it will include bibliographic, chemical, 
# crystal, experimental, refinement or atomic coordinate data resulting 
# from the CCDC's data processing and validation procedures.
#
#######################################################################

data_POCMEA03
_symmetry_cell_setting           orthorhombic
_symmetry_space_group_name_H-M   'P b c n'
_symmetry_Int_Tables_number      60
_space_group_name_Hall           '-P 2n 2ab'
loop_
_symmetry_equiv_pos_site_id
_symmetry_equiv_pos_as_xyz
1 x,y,z
2 1/2-x,1/2-y,1/2+z
3 1/2+x,1/2-y,-z
4 -x,y,1/2-z
5 -x,-y,-z
6 1/2+x,1/2+y,1/2-z
7 1/2-x,1/2+y,z
8 x,-y,1/2+z
_cell_length_a                   16.594(3)
_cell_length_b                   10.023(2)
_cell_length_c                   14.642(3)
_cell_angle_alpha                90
_cell_angle_beta                 90
_cell_angle_gamma                90
_cell_volume                     2435.28
loop_
_atom_site_label
_atom_site_type_symbol
_atom_site_fract_x
_atom_site_fract_y
_atom_site_fract_z
Pb1 Pb 0.064368(11) 0.120432(19) -1.115985(12)
O1 O 0.0887(2) 0.1433(4) -1.3065(3)
O2 O 0.1852(2) 0.1722(4) -1.2046(2)
O3 O 0.1104(3) -0.1138(4) -1.1544(4)
O4 O 0.0099(3) -0.1335(4) -1.0550(3)
N1 N 0.3203(3) 0.3218(5) -1.4914(3)
N2 N 0.0555(3) -0.6081(6) -1.1430(4)
C1 C 0.2574(4) 0.2430(7) -1.5120(4)
H1 H 0.2500 0.2184 -1.5727
C2 C 0.2032(4) 0.1968(7) -1.4482(4)
H2 H 0.1597 0.1441 -1.4658
C3 C 0.3289(3) 0.3571(6) -1.4039(4)
H3 H 0.3707 0.4146 -1.3883
C4 C 0.2782(3) 0.3119(6) -1.3357(3)
H4 H 0.2870 0.3365 -1.2752
C5 C 0.2146(3) 0.2300(6) -1.3581(3)
C6 C 0.1578(3) 0.1770(6) -1.2843(3)
C7 C 0.1205(4) -0.5354(7) -1.1630(4)
H5 H 0.1672 -0.5796 -1.1807
C8 C 0.1219(4) -0.3979(6) -1.1589(5)
H6 H 0.1679 -0.3515 -1.1763
C9 C -0.0103(4) -0.5426(8) -1.1174(4)
H7 H -0.0568 -0.5913 -1.1055
C10 C -0.0128(4) -0.4060(7) -1.1077(5)
H8 H -0.0597 -0.3652 -1.0871
C11 C 0.0541(4) -0.3288(6) -1.1285(4)
C12 C 0.0574(4) -0.1837(6) -1.1120(4)
Pb1C Pb -0.064368(11) 0.120432(19) -1.384015(12)
Pb1D Pb -0.064368(11) -0.120432(19) -0.884015(12)
Pb1A Pb 0.435632(11) 0.379568(19) -1.615985(12)
Pb1_2 Pb 0.064368(11) -0.879568(19) -1.115985(12)
O1C O -0.0887(2) 0.1433(4) -1.1935(3)
O4D O -0.0099(3) 0.1335(4) -0.9450(3)
N1A N 0.1797(3) 0.1782(5) -0.9914(3)
N2_2 N 0.0555(3) 0.3919(6) -1.1430(4)
loop_
_geom_bond_atom_site_label_1
_geom_bond_atom_site_label_2
_geom_bond_site_symmetry_1
_geom_bond_site_symmetry_2
Pb1 O1 1_555 1_555
O1 C6 1_555 1_555
O2 Pb1 1_555 1_555
O3 Pb1 1_555 1_555
O4 Pb1 1_555 1_555
N1 C1 1_555 1_555
N2 C7 1_555 1_555
C1 H1 1_555 1_555
C2 C1 1_555 1_555
H2 C2 1_555 1_555
C3 N1 1_555 1_555
H3 C3 1_555 1_555
C4 C3 1_555 1_555
H4 C4 1_555 1_555
C5 C2 1_555 1_555
C6 O2 1_555 1_555
C7 H5 1_555 1_555
C8 C7 1_555 1_555
H6 C8 1_555 1_555
C9 N2 1_555 1_555
H7 C9 1_555 1_555
C10 C9 1_555 1_555
H8 C10 1_555 1_555
C11 C8 1_555 1_555
C12 O3 1_555 1_555
Pb1C O1 1_555 1_555
Pb1D O4 1_555 1_555
Pb1A N1 1_555 1_555
Pb1_2 N2 1_555 1_555
O1C Pb1 1_555 1_555
O4D Pb1 1_555 1_555
N1A Pb1 1_555 1_555
N2_2 Pb1 1_555 1_555
O4 C12 1_555 1_555
C4 C5 1_555 1_555
C5 C6 1_555 1_555
C10 C11 1_555 1_555
C11 C12 1_555 1_555
Pb1C O1C 1_555 1_555
Pb1D O4D 1_555 1_555

#END
