
#######################################################################
#
#                 Cambridge Crystallographic Data Centre
#                                CCDC 
#
#######################################################################
#
# If this CIF has been generated from an entry in the Cambridge 
# Structural Database, then it will include bibliographic, chemical, 
# crystal, experimental, refinement or atomic coordinate data resulting 
# from the CCDC's data processing and validation procedures.
#
#######################################################################

data_POCMEA01
_symmetry_cell_setting           orthorhombic
_symmetry_space_group_name_H-M   'P b c n'
_symmetry_Int_Tables_number      60
_space_group_name_Hall           '-P 2n 2ab'
loop_
_symmetry_equiv_pos_site_id
_symmetry_equiv_pos_as_xyz
1 x,y,z
2 1/2-x,1/2-y,1/2+z
3 1/2+x,1/2-y,-z
4 -x,y,1/2-z
5 -x,-y,-z
6 1/2+x,1/2+y,1/2-z
7 1/2-x,1/2+y,z
8 x,-y,1/2+z
_cell_length_a                   16.595(1)
_cell_length_b                   10.028(1)
_cell_length_c                   14.635(1)
_cell_angle_alpha                90
_cell_angle_beta                 90
_cell_angle_gamma                90
_cell_volume                     2435.48
loop_
_atom_site_label
_atom_site_type_symbol
_atom_site_fract_x
_atom_site_fract_y
_atom_site_fract_z
Pb1 Pb -0.435654(8) 0.379691(14) -0.384065(10)
O1 O -0.31492(17) 0.3274(3) -0.2955(2)
O2 O -0.41167(19) 0.3575(3) -0.1938(2)
O3 O -0.3906(3) 0.6154(3) -0.3450(3)
O4 O -0.4899(2) 0.6336(3) -0.4451(2)
N1 N -0.1797(2) 0.1780(4) -0.0082(3)
N2 N -0.4439(3) 1.1097(4) -0.3574(4)
C1 C -0.3422(2) 0.3237(4) -0.2154(3)
C2 C -0.2858(2) 0.2701(4) -0.1424(3)
C3 C -0.2217(3) 0.1889(4) -0.1641(3)
H1 H -0.2127 0.1644 -0.2245
C4 C -0.1712(3) 0.1444(5) -0.0965(3)
H2 H -0.1289 0.0882 -0.1127
C5 C -0.2423(3) 0.2562(5) 0.0123(3)
H3 H -0.2499 0.2802 0.0731
C6 C -0.2962(3) 0.3035(5) -0.0518(3)
H4 H -0.3391 0.3573 -0.0340
C7 C -0.4428(3) 0.6830(5) -0.3877(3)
C8 C -0.4455(3) 0.8305(5) -0.3719(3)
C9 C -0.3783(3) 0.8985(4) -0.3416(4)
H5 H -0.3324 0.8517 -0.3243
C10 C -0.3792(3) 1.0358(4) -0.3371(4)
H6 H -0.3324 1.0793 -0.3190
C11 C -0.5111(3) 1.0431(5) -0.3829(4)
H7 H -0.5577 1.0916 -0.3947
C12 C -0.5135(3) 0.9062(5) -0.3921(4)
H8 H -0.5605 0.8646 -0.4118
Pb1C Pb -0.564346(8) 0.379691(14) -0.115935(10)
Pb1D Pb -0.564346(8) 0.620309(14) -0.615935(10)
Pb1A Pb -0.064346(8) 0.120309(14) 0.115935(10)
Pb1_2 Pb -0.435654(8) 1.379691(14) -0.384065(10)
O2C O -0.58833(19) 0.3575(3) -0.3062(2)
O4D O -0.5101(2) 0.3664(3) -0.5549(2)
N1A N -0.3203(2) 0.3220(4) -0.5082(3)
N2_2 N -0.4439(3) 0.1097(4) -0.3574(4)
loop_
_geom_bond_atom_site_label_1
_geom_bond_atom_site_label_2
_geom_bond_site_symmetry_1
_geom_bond_site_symmetry_2
Pb1 O1 1_555 1_555
O1 C1 1_555 1_555
O2 Pb1 1_555 1_555
O3 Pb1 1_555 1_555
O4 Pb1 1_555 1_555
N1 C4 1_555 1_555
N2 C10 1_555 1_555
C1 O2 1_555 1_555
C2 C1 1_555 1_555
C3 C2 1_555 1_555
H1 C3 1_555 1_555
C4 C3 1_555 1_555
H2 C4 1_555 1_555
C5 N1 1_555 1_555
H3 C5 1_555 1_555
C6 C2 1_555 1_555
H4 C6 1_555 1_555
C7 O3 1_555 1_555
C8 C7 1_555 1_555
C9 C8 1_555 1_555
H5 C9 1_555 1_555
C10 C9 1_555 1_555
H6 C10 1_555 1_555
C11 N2 1_555 1_555
H7 C11 1_555 1_555
C12 C8 1_555 1_555
H8 C12 1_555 1_555
Pb1C O2 1_555 1_555
Pb1D O4 1_555 1_555
Pb1A N1 1_555 1_555
Pb1_2 N2 1_555 1_555
O2C Pb1 1_555 1_555
O4D Pb1 1_555 1_555
N1A Pb1 1_555 1_555
N2_2 Pb1 1_555 1_555
O4 C7 1_555 1_555
C5 C6 1_555 1_555
C11 C12 1_555 1_555
Pb1C O2C 1_555 1_555
Pb1D O4D 1_555 1_555

#END
