
#######################################################################
#
#                 Cambridge Crystallographic Data Centre
#                                CCDC 
#
#######################################################################
#
# If this CIF has been generated from an entry in the Cambridge 
# Structural Database, then it will include bibliographic, chemical, 
# crystal, experimental, refinement or atomic coordinate data resulting 
# from the CCDC's data processing and validation procedures.
#
#######################################################################

data_POCMEA04
_symmetry_cell_setting           orthorhombic
_symmetry_space_group_name_H-M   'P b c n'
_symmetry_Int_Tables_number      60
_space_group_name_Hall           '-P 2n 2ab'
loop_
_symmetry_equiv_pos_site_id
_symmetry_equiv_pos_as_xyz
1 x,y,z
2 1/2-x,1/2-y,1/2+z
3 -x,y,1/2-z
4 1/2+x,1/2-y,-z
5 -x,-y,-z
6 1/2+x,1/2+y,1/2-z
7 x,-y,1/2+z
8 1/2-x,1/2+y,z
_cell_length_a                   16.510(3)
_cell_length_b                   9.950(2)
_cell_length_c                   14.530(3)
_cell_angle_alpha                90
_cell_angle_beta                 90
_cell_angle_gamma                90
_cell_volume                     2386.91
loop_
_atom_site_label
_atom_site_type_symbol
_atom_site_fract_x
_atom_site_fract_y
_atom_site_fract_z
Pb1 Pb 0.435644(16) 0.62045(3) 0.115930(18)
C1 C 0.5107(6) 0.9579(9) 0.1177(6)
H1 H 0.5578 0.9091 0.1073
C2 C 0.3787(5) 0.9651(8) 0.1622(7)
H2 H 0.3315 0.9210 0.1796
C3 C 0.5133(6) 1.0934(9) 0.1074(6)
H3 H 0.5603 1.1346 0.0865
C4 C 0.3780(6) 1.1018(8) 0.1587(7)
H4 H 0.3319 1.1486 0.1768
C5 C 0.4451(5) 1.1710(9) 0.1284(6)
C6 C 0.4424(5) 1.3173(10) 0.1123(5)
C7 C 0.2582(5) 0.7561(9) 0.0121(5)
H5 H 0.2511 0.7800 0.0734
C8 C 0.3292(5) 0.6447(9) -0.0964(6)
H6 H 0.3720 0.5887 -0.1125
C9 C 0.2788(5) 0.6885(8) -0.1643(5)
H7 H 0.2879 0.6633 -0.2251
C10 C 0.2029(5) 0.8053(10) -0.0512(5)
H8 H 0.1600 0.8597 -0.0332
C11 C 0.2145(4) 0.7699(8) -0.1425(5)
C12 C 0.1571(4) 0.8234(7) -0.2152(5)
N1 N 0.4436(5) 0.8910(7) 0.1420(8)
N2 N 0.3202(4) 0.6779(7) -0.0082(4)
O1 O 0.0884(4) 0.8565(6) -0.1943(4)
O2 O 0.1854(3) 0.8282(6) -0.2956(3)
O3 O 0.3912(5) 1.3856(6) 0.1542(6)
O4 O 0.4906(4) 1.3663(5) 0.0551(4)
Pb1A Pb 0.064356(16) 0.87955(3) -0.384070(18)
Pb1C Pb -0.064356(16) 0.87955(3) -0.115930(18)
Pb1_2 Pb 0.435644(16) 1.62045(3) 0.115930(18)
Pb1D Pb 0.564356(16) 1.37955(3) -0.115930(18)
O1A O 0.4116(4) 0.6435(6) 0.3057(4)
O1C O 0.5884(4) 0.6435(6) 0.1943(4)
O2A O 0.3146(3) 0.6718(6) 0.2044(3)
O3_2 O 0.3912(5) 0.3856(6) 0.1542(6)
O4D O 0.5094(4) 0.6337(5) -0.0551(4)
loop_
_geom_bond_atom_site_label_1
_geom_bond_atom_site_label_2
_geom_bond_site_symmetry_1
_geom_bond_site_symmetry_2
Pb1 N1 1_555 1_555
C1 H1 1_555 1_555
C2 H2 1_555 1_555
C3 C1 1_555 1_555
H3 C3 1_555 1_555
C4 C2 1_555 1_555
H4 C4 1_555 1_555
C5 C3 1_555 1_555
C6 C5 1_555 1_555
C7 H5 1_555 1_555
C8 H6 1_555 1_555
C9 C8 1_555 1_555
H7 C9 1_555 1_555
C10 C7 1_555 1_555
H8 C10 1_555 1_555
C11 C9 1_555 1_555
C12 C11 1_555 1_555
N1 C1 1_555 1_555
N2 Pb1 1_555 1_555
O1 C12 1_555 1_555
O2 C12 1_555 1_555
O3 C6 1_555 1_555
O4 C6 1_555 1_555
Pb1A O1 1_555 1_555
Pb1C O1 1_555 1_555
Pb1_2 O3 1_555 1_555
Pb1D O4 1_555 1_555
O1A Pb1 1_555 1_555
O1C Pb1 1_555 1_555
O2A Pb1 1_555 1_555
O3_2 Pb1 1_555 1_555
O4D Pb1 1_555 1_555
C2 N1 1_555 1_555
C4 C5 1_555 1_555
C7 N2 1_555 1_555
C8 N2 1_555 1_555
C10 C11 1_555 1_555
O2 Pb1A 1_555 1_555

#END
