
#######################################################################
#
#                 Cambridge Crystallographic Data Centre
#                                CCDC 
#
#######################################################################
#
# If this CIF has been generated from an entry in the Cambridge 
# Structural Database, then it will include bibliographic, chemical, 
# crystal, experimental, refinement or atomic coordinate data resulting 
# from the CCDC's data processing and validation procedures.
#
#######################################################################

data_POCNAY
_symmetry_cell_setting           triclinic
_symmetry_space_group_name_H-M   'P -1'
_symmetry_Int_Tables_number      2
_space_group_name_Hall           '-P 1'
loop_
_symmetry_equiv_pos_site_id
_symmetry_equiv_pos_as_xyz
1 x,y,z
2 -x,-y,-z
_cell_length_a                   8.036(5)
_cell_length_b                   9.673(6)
_cell_length_c                   14.549(9)
_cell_angle_alpha                105.706(7)
_cell_angle_beta                 90.431(7)
_cell_angle_gamma                114.255(7)
_cell_volume                     983.474
loop_
_atom_site_label
_atom_site_type_symbol
_atom_site_fract_x
_atom_site_fract_y
_atom_site_fract_z
Zn1 Zn 1.06952(4) 0.32842(4) 0.47614(2)
Br1 Br 0.18433(5) -0.33982(4) 0.09478(2)
O1 O 0.1294(3) -0.4920(2) 0.42635(15)
O2 O 0.4082(3) -0.3675(3) 0.51157(15)
O3 O 0.8316(3) 0.1439(2) 0.44389(15)
O4 O 0.7862(4) 0.1661(3) 0.29873(17)
O5 O 1.2363(3) 0.2280(3) 0.41077(14)
H1 H 1.2344 0.2268 0.3542
H2 H 1.3422 0.2789 0.4406
N1 N 1.1394(3) 0.3288(3) 0.61052(16)
N2 N 1.2545(5) 0.2063(3) 1.2179(2)
C1 C 0.3564(4) -0.2884(3) 0.37614(19)
C2 C 0.5145(4) -0.1452(3) 0.40148(19)
H3 H 0.5828 -0.1078 0.4620
C3 C 0.5702(4) -0.0585(3) 0.3368(2)
C4 C 0.4709(4) -0.1167(3) 0.2457(2)
H4 H 0.5089 -0.0606 0.2012
C5 C 0.3155(4) -0.2587(3) 0.22206(19)
C6 C 0.2541(4) -0.3440(3) 0.2865(2)
H5 H 0.1458 -0.4374 0.2699
C7 C 0.2980(4) -0.3872(3) 0.4450(2)
C8 C 0.7418(4) 0.0968(3) 0.3599(2)
C9 C 1.0569(4) 0.1961(3) 0.6350(2)
H6 H 0.9690 0.1067 0.5896
C10 C 1.0955(4) 0.1847(4) 0.7244(2)
H7 H 1.0334 0.0893 0.7382
C11 C 1.2249(4) 0.3131(4) 0.7930(2)
C12 C 1.3124(6) 0.4489(4) 0.7662(2)
H8 H 1.4039 0.5388 0.8095
C13 C 1.2667(6) 0.4537(4) 0.6768(2)
H9 H 1.3271 0.5480 0.6615
C14 C 1.2753(5) 0.3151(4) 0.8938(2)
H10 H 1.2511 0.3964 0.9394
H11 H 1.4065 0.3454 0.9040
C15 C 1.1739(5) 0.1587(4) 0.9159(2)
H12 H 1.0429 0.1184 0.8959
H13 H 1.2149 0.0816 0.8791
C16 C 1.1286(6) 0.2409(4) 1.1811(2)
H14 H 1.0555 0.2744 1.2222
C17 C 1.1020(5) 0.2292(4) 1.0852(2)
H15 H 1.0140 0.2562 1.0632
C18 C 1.2061(5) 0.1772(4) 1.0214(2)
C19 C 1.3384(6) 0.1434(4) 1.0601(3)
H16 H 1.4135 0.1095 1.0207
C20 C 1.3576(6) 0.1607(4) 1.1575(3)
H17 H 1.4482 0.1391 1.1822
Zn1_2 Zn 0.06952(4) -0.67158(4) 0.47614(2)
O1_2 O 1.1294(3) 0.5080(2) 0.42635(15)
loop_
_geom_bond_atom_site_label_1
_geom_bond_atom_site_label_2
_geom_bond_site_symmetry_1
_geom_bond_site_symmetry_2
Zn1 O3 1_555 1_555
Br1 C5 1_555 1_555
O1 C7 1_555 1_555
O2 C7 1_555 1_555
O3 C8 1_555 1_555
O4 C8 1_555 1_555
O5 Zn1 1_555 1_555
H1 O5 1_555 1_555
H2 O5 1_555 1_555
N1 Zn1 1_555 1_555
N2 C16 1_555 1_555
C1 C2 1_555 1_555
C2 H3 1_555 1_555
C3 C2 1_555 1_555
C4 C3 1_555 1_555
H4 C4 1_555 1_555
C5 C4 1_555 1_555
C6 C1 1_555 1_555
H5 C6 1_555 1_555
C7 C1 1_555 1_555
C8 C3 1_555 1_555
C9 N1 1_555 1_555
H6 C9 1_555 1_555
C10 C9 1_555 1_555
H7 C10 1_555 1_555
C11 C10 1_555 1_555
C12 C11 1_555 1_555
H8 C12 1_555 1_555
C13 N1 1_555 1_555
H9 C13 1_555 1_555
C14 C11 1_555 1_555
H10 C14 1_555 1_555
H11 C14 1_555 1_555
C15 C14 1_555 1_555
H12 C15 1_555 1_555
H13 C15 1_555 1_555
C16 H14 1_555 1_555
C17 C16 1_555 1_555
H15 C17 1_555 1_555
C18 C15 1_555 1_555
C19 C18 1_555 1_555
H16 C19 1_555 1_555
C20 N2 1_555 1_555
H17 C20 1_555 1_555
Zn1_2 O1 1_555 1_555
O1_2 Zn1 1_555 1_555
C5 C6 1_555 1_555
C12 C13 1_555 1_555
C17 C18 1_555 1_555
C19 C20 1_555 1_555

#END
