
#######################################################################
#
#                 Cambridge Crystallographic Data Centre
#                                CCDC 
#
#######################################################################
#
# If this CIF has been generated from an entry in the Cambridge 
# Structural Database, then it will include bibliographic, chemical, 
# crystal, experimental, refinement or atomic coordinate data resulting 
# from the CCDC's data processing and validation procedures.
#
#######################################################################

data_POCNIF
_symmetry_cell_setting           orthorhombic
_symmetry_space_group_name_H-M   'P n n a'
_symmetry_Int_Tables_number      52
_space_group_name_Hall           '-P 2a 2bc'
loop_
_symmetry_equiv_pos_site_id
_symmetry_equiv_pos_as_xyz
1 x,y,z
2 1/2-x,-y,z
3 x,1/2-y,1/2-z
4 1/2-x,1/2+y,1/2-z
5 -x,-y,-z
6 1/2+x,y,-z
7 -x,1/2+y,1/2+z
8 1/2+x,1/2-y,1/2+z
_cell_length_a                   10.111(4)
_cell_length_b                   11.354(4)
_cell_length_c                   7.331(3)
_cell_angle_alpha                90
_cell_angle_beta                 90
_cell_angle_gamma                90
_cell_volume                     841.601
loop_
_atom_site_label
_atom_site_type_symbol
_atom_site_fract_x
_atom_site_fract_y
_atom_site_fract_z
Ni1 Ni 0.06513(6) 0.2500 0.2500
V1 V -0.22876(6) 0.14727(5) 0.09598(7)
O1 O -0.0709(2) 0.1733(2) 0.0849(3)
O2 O 0.2072(2) 0.1696(2) 0.1038(3)
O3 O -0.2975(3) 0.2500 0.2500
O4 O -0.2500 0.0000 0.1690(5)
N1 N 0.0404(3) 0.3976(3) 0.0864(4)
C1 C -0.0199(4) 0.3962(3) -0.0735(5)
H1 H -0.0362 0.3241 -0.1294
C2 C 0.0588(3) 0.5035(3) 0.1591(5)
H2 H 0.0998 0.5092 0.2724
Ni1F Ni -0.06513(6) 0.7500 -0.2500
V1B V -0.22876(6) 0.35273(5) 0.40402(7)
V1E V 0.27124(6) 0.14727(5) -0.09598(7)
V1A V -0.27124(6) -0.14727(5) 0.09598(7)
V1G V 0.27124(6) 0.35273(5) 0.59598(7)
O1B O -0.0709(2) 0.3267(2) 0.4151(3)
O2B O 0.2072(2) 0.3304(2) 0.3962(3)
O2E O -0.2928(2) 0.1696(2) -0.1038(3)
O2G O -0.2928(2) 0.3304(2) 0.6038(3)
O4B O -0.2500 0.5000 0.3310(5)
N1D N -0.0404(3) 0.6024(3) -0.0864(4)
N1B N 0.0404(3) 0.1024(3) 0.4136(4)
C1D C 0.0199(4) 0.6038(3) 0.0735(5)
H1D H 0.0362 0.6759 0.1294
C2D C -0.0588(3) 0.4965(3) -0.1591(5)
H2D H -0.0998 0.4908 -0.2724
loop_
_geom_bond_atom_site_label_1
_geom_bond_atom_site_label_2
_geom_bond_site_symmetry_1
_geom_bond_site_symmetry_2
Ni1 O1 1_555 1_555
V1 O1 1_555 1_555
O2 Ni1 1_555 1_555
O3 V1 1_555 1_555
O4 V1 1_555 1_555
N1 Ni1 1_555 1_555
C1 N1 1_555 1_555
H1 C1 1_555 1_555
C2 N1 1_555 1_555
H2 C2 1_555 1_555
Ni1F N1D 1_555 1_555
V1B O3 1_555 1_555
V1E O2 1_555 1_555
V1A O4 1_555 1_555
V1G O2B 1_555 1_555
O1B Ni1 1_555 1_555
O2B Ni1 1_555 1_555
O2E V1 1_555 1_555
O2G V1B 1_555 1_555
O4B V1B 1_555 1_555
N1D C1D 1_555 1_555
N1B Ni1 1_555 1_555
C1D C2 1_555 1_555
H1D C1D 1_555 1_555
C2D C1 1_555 1_555
H2D C2D 1_555 1_555
V1B O1B 1_555 1_555
N1D C2D 1_555 1_555

#END
