
#######################################################################
#
#                 Cambridge Crystallographic Data Centre
#                                CCDC 
#
#######################################################################
#
# If this CIF has been generated from an entry in the Cambridge 
# Structural Database, then it will include bibliographic, chemical, 
# crystal, experimental, refinement or atomic coordinate data resulting 
# from the CCDC's data processing and validation procedures.
#
#######################################################################

data_POCPAZ
_symmetry_cell_setting           orthorhombic
_symmetry_space_group_name_H-M   'P n a 21'
_symmetry_Int_Tables_number      33
_space_group_name_Hall           'P 2c -2n'
loop_
_symmetry_equiv_pos_site_id
_symmetry_equiv_pos_as_xyz
1 x,y,z
2 -x,-y,1/2+z
3 1/2-x,1/2+y,1/2+z
4 1/2+x,1/2-y,z
_cell_length_a                   21.1573(8)
_cell_length_b                   13.5422(6)
_cell_length_c                   24.0112(10)
_cell_angle_alpha                90
_cell_angle_beta                 90
_cell_angle_gamma                90
_cell_volume                     6879.6
loop_
_atom_site_label
_atom_site_type_symbol
_atom_site_fract_x
_atom_site_fract_y
_atom_site_fract_z
Co1 Co -1.03143(3) 0.63730(6) -0.19840(3)
Co2 Co -1.18047(3) 0.63364(6) -0.12407(3)
O1 O -1.10772(19) 0.5538(2) -0.16366(17)
H1 H -1.0902 0.5078 -0.1368
H2 H -1.1265 0.5150 -0.1933
O2 O -1.02922(17) 0.7395(3) -0.13446(18)
O3 O -1.11508(18) 0.7177(3) -0.08118(16)
O4 O -0.9034(3) 1.1006(5) -0.0186(3)
O5 O -0.8910(3) 1.0197(5) -0.0949(3)
O6 O -1.0929(3) 1.0574(5) 0.0883(3)
O7 O -1.1650(3) 0.9586(4) 0.0603(2)
O8 O -1.09616(18) 0.7266(3) -0.23925(16)
O9 O -1.18278(17) 0.7426(3) -0.18666(17)
O10 O -1.1306(4) 1.0666(6) -0.4101(3)
O11 O -1.0587(4) 0.9668(6) -0.3865(3)
O12 O -1.3132(3) 1.1109(5) -0.2905(2)
O13 O -1.3225(3) 1.0209(4) -0.2184(3)
O14 O -0.96571(18) 0.5545(3) -0.14985(17)
O15 O -1.03126(19) 0.4530(4) -0.1046(2)
O16 O -0.8622(3) 0.2860(6) 0.0845(3)
O17 O -0.9607(4) 0.2975(6) 0.0667(3)
O18 O -0.7409(3) 0.5393(6) -0.0994(3)
O19 O -0.7095(3) 0.4390(5) -0.0362(3)
O20 O -1.24854(17) 0.5559(3) -0.17221(17)
O21 O -1.18737(19) 0.4709(4) -0.2301(2)
O22 O -1.4772(3) 0.5570(7) -0.2093(3)
O23 O -1.5160(3) 0.4604(6) -0.2663(4)
O24 O -1.3803(3) 0.2656(4) -0.3872(2)
O25 O -1.2793(3) 0.2740(4) -0.3754(2)
N1 N -0.9202(3) 1.0397(5) -0.0531(3)
N2 N -1.1133(3) 0.9965(5) 0.0562(3)
N3 N -1.1093(4) 1.0043(6) -0.3795(3)
N4 N -1.2942(3) 1.0471(5) -0.2596(3)
N5 N -0.9060(4) 0.3123(6) 0.0560(3)
N6 N -0.7511(3) 0.4813(6) -0.0613(3)
N7 N -1.4718(3) 0.4939(5) -0.2437(3)
N8 N -1.3332(4) 0.2979(5) -0.3638(2)
N9 N -1.0445(2) 0.2927(4) 0.25676(19)
N10 N -1.4700(2) 1.0372(4) 0.2324(2)
N11 N -1.1813(2) 0.5266(4) -0.0566(2)
N12 N -1.2558(2) 0.7029(4) -0.08086(18)
C1 C -1.0665(3) 0.7634(4) -0.0961(2)
C2 C -1.0508(3) 0.8542(4) -0.0640(2)
C3 C -0.9960(3) 0.9066(4) -0.0758(3)
H3 H -0.9701 0.8879 -0.1053
C4 C -0.9806(3) 0.9873(5) -0.0428(3)
C5 C -1.0169(3) 1.0181(5) 0.0009(3)
H4 H -1.0050 1.0713 0.0231
C6 C -1.0719(3) 0.9667(5) 0.0103(2)
C7 C -1.0894(3) 0.8841(4) -0.0211(2)
H5 H -1.1265 0.8500 -0.0131
C8 C -1.1462(3) 0.7691(4) -0.2245(2)
C9 C -1.1645(2) 0.8610(4) -0.2568(2)
C10 C -1.1290(3) 0.8916(5) -0.3021(2)
H6 H -1.0926 0.8575 -0.3123
C11 C -1.1480(3) 0.9723(5) -0.3317(3)
C12 C -1.2017(3) 1.0265(5) -0.3191(3)
H7 H -1.2145 1.0806 -0.3402
C13 C -1.2350(3) 0.9941(4) -0.2728(3)
C14 C -1.2173(3) 0.9143(4) -0.2418(2)
H8 H -1.2408 0.8960 -0.2108
C15 C -0.9790(3) 0.4917(5) -0.1129(3)
C16 C -0.9264(3) 0.4612(4) -0.0735(3)
C17 C -0.9398(3) 0.4052(5) -0.0273(3)
H9 H -0.9812 0.3866 -0.0197
C18 C -0.8913(4) 0.3766(5) 0.0076(3)
C19 C -0.8295(4) 0.4025(6) -0.0030(3)
H10 H -0.7970 0.3824 0.0205
C20 C -0.8177(3) 0.4581(5) -0.0487(3)
C21 C -0.8639(3) 0.4892(4) -0.0846(3)
H11 H -0.8541 0.5277 -0.1154
C22 C -1.2390(3) 0.5006(5) -0.2131(2)
C23 C -1.2967(3) 0.4690(4) -0.2453(2)
C24 C -1.3569(3) 0.4973(4) -0.2305(3)
H12 H -1.3628 0.5395 -0.2004
C25 C -1.4084(3) 0.4636(5) -0.2599(3)
C26 C -1.4021(3) 0.3976(5) -0.3040(3)
H13 H -1.4370 0.3734 -0.3232
C27 C -1.3414(3) 0.3700(5) -0.3176(2)
C28 C -1.2889(3) 0.4040(4) -0.2900(2)
H14 H -1.2487 0.3841 -0.3009
C29 C -1.0338(3) 0.2632(5) 0.2045(3)
H15 H -0.9924 0.2650 0.1916
C30 C -1.0794(3) 0.2306(5) 0.1689(3)
H16 H -1.0689 0.2092 0.1333
C31 C -1.1416(3) 0.2298(4) 0.1867(2)
C32 C -1.1529(3) 0.2593(4) 0.2401(2)
H17 H -1.1939 0.2575 0.2540
C33 C -1.1045(3) 0.2916(5) 0.2737(2)
H18 H -1.1139 0.3134 0.3095
C34 C -1.1944(3) 0.1999(5) 0.1471(2)
H19 H -1.1920 0.1293 0.1406
H20 H -1.2348 0.2138 0.1645
C35 C -1.1914(3) 0.2540(5) 0.0907(2)
H21 H -1.2222 0.2253 0.0655
H22 H -1.1498 0.2449 0.0745
C36 C -1.2042(4) 0.3606(5) 0.0967(3)
H23 H -1.2470 0.3694 0.1103
H24 H -1.1756 0.3878 0.1244
C37 C -1.5213(3) 0.9841(5) 0.2199(3)
H25 H -1.5545 0.9840 0.2453
C38 C -1.5280(3) 0.9295(5) 0.1720(3)
H26 H -1.5653 0.8952 0.1650
C39 C -1.4782(3) 0.9265(6) 0.1342(3)
C40 C -1.4249(3) 0.9816(6) 0.1483(3)
H27 H -1.3902 0.9828 0.1244
C41 C -1.4232(3) 1.0330(6) 0.1961(3)
H28 H -1.3865 1.0680 0.2042
C42 C -1.4835(3) 0.8672(7) 0.0819(3)
H29 H -1.5088 0.9037 0.0552
H30 H -1.5055 0.8061 0.0901
C43 C -1.4196(3) 0.8427(6) 0.0553(3)
H31 H -1.3991 0.9035 0.0440
H32 H -1.3929 0.8110 0.0829
C44 C -1.4258(3) 0.7784(6) 0.0075(3)
H33 H -1.4554 0.8083 -0.0183
H34 H -1.4439 0.7163 0.0198
C45 C -1.1363(3) 0.5234(6) -0.0173(3)
H35 H -1.0991 0.5584 -0.0234
C46 C -1.1422(3) 0.4711(6) 0.0315(3)
H36 H -1.1094 0.4717 0.0572
C47 C -1.1965(3) 0.4176(5) 0.0429(3)
C48 C -1.2421(3) 0.4183(5) 0.0020(3)
H37 H -1.2789 0.3819 0.0070
C49 C -1.2339(3) 0.4718(5) -0.0461(3)
H38 H -1.2659 0.4706 -0.0727
C50 C -1.2545(3) 0.7197(5) -0.0264(3)
H39 H -1.2162 0.7141 -0.0075
C51 C -1.3077(3) 0.7452(5) 0.0032(3)
H40 H -1.3050 0.7547 0.0414
C52 C -1.3651(3) 0.7567(5) -0.0234(3)
C53 C -1.3652(3) 0.7485(5) -0.0796(3)
H41 H -1.4016 0.7625 -0.0999
C54 C -1.3112(3) 0.7194(4) -0.1062(2)
H42 H -1.3131 0.7105 -0.1446
Co1A Co -0.96857(3) 0.36270(6) 0.30160(3)
Co1B Co -1.46857(3) 1.13730(6) 0.30160(3)
N9A N -0.9555(2) 0.7073(4) -0.24324(19)
N10B N -1.0300(2) 0.5372(4) -0.2676(2)
O26 O -0.8139(3) 0.2516(4) -0.1845(3)
O27 O -0.7958(3) 0.2516(5) -0.0931(3)
O28 O -0.5761(4) 0.2553(6) -0.0302(4)
O29 O -0.5017(3) 0.2818(5) -0.0876(4)
O30 O -0.5450(5) 0.2563(6) -0.2849(4)
O31 O -0.6424(5) 0.2560(8) -0.3141(4)
N13 N -0.5563(5) 0.2668(6) -0.0766(5)
N14 N -0.6028(7) 0.2560(8) -0.2773(5)
C55 C -0.7771(4) 0.2516(5) -0.1399(4)
C56 C -0.7091(4) 0.2549(5) -0.1548(4)
C57 C -0.6654(4) 0.2551(5) -0.1115(4)
H43 H -0.6792 0.2525 -0.0748
C58 C -0.6026(4) 0.2592(6) -0.1228(5)
C59 C -0.5805(5) 0.2604(6) -0.1766(6)
H44 H -0.5374 0.2631 -0.1840
C60 C -0.6236(5) 0.2575(7) -0.2191(5)
C61 C -0.6873(4) 0.2558(5) -0.2088(4)
H45 H -0.7158 0.2553 -0.2383
C62 C -0.8821(4) 0.2552(6) -0.1755(4)
H46 H -0.9034 0.2547 -0.2108
H47 H -0.8927 0.3145 -0.1557
H48 H -0.8950 0.1988 -0.1541
loop_
_geom_bond_atom_site_label_1
_geom_bond_atom_site_label_2
_geom_bond_site_symmetry_1
_geom_bond_site_symmetry_2
Co1 O1 1_555 1_555
Co2 O1 1_555 1_555
O1 H1 1_555 1_555
H2 O1 1_555 1_555
O2 Co1 1_555 1_555
O3 Co2 1_555 1_555
O4 N1 1_555 1_555
O5 N1 1_555 1_555
O6 N2 1_555 1_555
O7 N2 1_555 1_555
O8 Co1 1_555 1_555
O9 Co2 1_555 1_555
O10 N3 1_555 1_555
O11 N3 1_555 1_555
O12 N4 1_555 1_555
O13 N4 1_555 1_555
O14 Co1 1_555 1_555
O15 C15 1_555 1_555
O16 N5 1_555 1_555
O17 N5 1_555 1_555
O18 N6 1_555 1_555
O19 N6 1_555 1_555
O20 Co2 1_555 1_555
O21 C22 1_555 1_555
O22 N7 1_555 1_555
O23 N7 1_555 1_555
O24 N8 1_555 1_555
O25 N8 1_555 1_555
N1 C4 1_555 1_555
N2 C6 1_555 1_555
N3 C11 1_555 1_555
N4 C13 1_555 1_555
N5 C18 1_555 1_555
N6 C20 1_555 1_555
N7 C25 1_555 1_555
N8 C27 1_555 1_555
N9 C29 1_555 1_555
N10 C37 1_555 1_555
N11 Co2 1_555 1_555
N12 Co2 1_555 1_555
C1 O2 1_555 1_555
C2 C1 1_555 1_555
C3 C2 1_555 1_555
H3 C3 1_555 1_555
C4 C3 1_555 1_555
C5 C4 1_555 1_555
H4 C5 1_555 1_555
C6 C5 1_555 1_555
C7 C2 1_555 1_555
H5 C7 1_555 1_555
C8 O8 1_555 1_555
C9 C8 1_555 1_555
C10 C9 1_555 1_555
H6 C10 1_555 1_555
C11 C10 1_555 1_555
C12 C11 1_555 1_555
H7 C12 1_555 1_555
C13 C12 1_555 1_555
C14 C9 1_555 1_555
H8 C14 1_555 1_555
C15 O14 1_555 1_555
C16 C15 1_555 1_555
C17 C16 1_555 1_555
H9 C17 1_555 1_555
C18 C17 1_555 1_555
C19 C18 1_555 1_555
H10 C19 1_555 1_555
C20 C19 1_555 1_555
C21 C16 1_555 1_555
H11 C21 1_555 1_555
C22 O20 1_555 1_555
C23 C22 1_555 1_555
C24 C23 1_555 1_555
H12 C24 1_555 1_555
C25 C24 1_555 1_555
C26 C25 1_555 1_555
H13 C26 1_555 1_555
C27 C26 1_555 1_555
C28 C23 1_555 1_555
H14 C28 1_555 1_555
C29 H15 1_555 1_555
C30 C29 1_555 1_555
H16 C30 1_555 1_555
C31 C30 1_555 1_555
C32 C31 1_555 1_555
H17 C32 1_555 1_555
C33 N9 1_555 1_555
H18 C33 1_555 1_555
C34 C31 1_555 1_555
H19 C34 1_555 1_555
H20 C34 1_555 1_555
C35 C34 1_555 1_555
H21 C35 1_555 1_555
H22 C35 1_555 1_555
C36 C35 1_555 1_555
H23 C36 1_555 1_555
H24 C36 1_555 1_555
C37 H25 1_555 1_555
C38 C37 1_555 1_555
H26 C38 1_555 1_555
C39 C38 1_555 1_555
C40 C39 1_555 1_555
H27 C40 1_555 1_555
C41 N10 1_555 1_555
H28 C41 1_555 1_555
C42 C39 1_555 1_555
H29 C42 1_555 1_555
H30 C42 1_555 1_555
C43 C42 1_555 1_555
H31 C43 1_555 1_555
H32 C43 1_555 1_555
C44 C43 1_555 1_555
H33 C44 1_555 1_555
H34 C44 1_555 1_555
C45 N11 1_555 1_555
H35 C45 1_555 1_555
C46 C45 1_555 1_555
H36 C46 1_555 1_555
C47 C36 1_555 1_555
C48 C47 1_555 1_555
H37 C48 1_555 1_555
C49 N11 1_555 1_555
H38 C49 1_555 1_555
C50 N12 1_555 1_555
H39 C50 1_555 1_555
C51 C50 1_555 1_555
H40 C51 1_555 1_555
C52 C44 1_555 1_555
C53 C52 1_555 1_555
H41 C53 1_555 1_555
C54 N12 1_555 1_555
H42 C54 1_555 1_555
O26 C55 1_555 1_555
O27 C55 1_555 1_555
O28 N13 1_555 1_555
O29 N13 1_555 1_555
O30 N14 1_555 1_555
O31 N14 1_555 1_555
N13 C58 1_555 1_555
N14 C60 1_555 1_555
C55 C56 1_555 1_555
C56 C57 1_555 1_555
C57 H43 1_555 1_555
C58 C57 1_555 1_555
C59 C58 1_555 1_555
H44 C59 1_555 1_555
C60 C59 1_555 1_555
C61 C56 1_555 1_555
H45 C61 1_555 1_555
C62 O26 1_555 1_555
H46 C62 1_555 1_555
H47 C62 1_555 1_555
H48 C62 1_555 1_555
Co1A N9 1_555 1_555
Co1B N10 1_555 1_555
N9A Co1 1_555 1_555
N10B Co1 1_555 1_555
O3 C1 1_555 1_555
O9 C8 1_555 1_555
C6 C7 1_555 1_555
C13 C14 1_555 1_555
C20 C21 1_555 1_555
C27 C28 1_555 1_555
C32 C33 1_555 1_555
C40 C41 1_555 1_555
C46 C47 1_555 1_555
C48 C49 1_555 1_555
C51 C52 1_555 1_555
C53 C54 1_555 1_555
C60 C61 1_555 1_555

#END
