
#######################################################################
#
#                 Cambridge Crystallographic Data Centre
#                                CCDC 
#
#######################################################################
#
# If this CIF has been generated from an entry in the Cambridge 
# Structural Database, then it will include bibliographic, chemical, 
# crystal, experimental, refinement or atomic coordinate data resulting 
# from the CCDC's data processing and validation procedures.
#
#######################################################################

data_POCROP
_symmetry_cell_setting           monoclinic
_symmetry_space_group_name_H-M   'C 2/c'
_symmetry_Int_Tables_number      15
_space_group_name_Hall           '-C 2yn'
loop_
_symmetry_equiv_pos_site_id
_symmetry_equiv_pos_as_xyz
1 x,y,z
2 1/2+x,1/2+y,z
3 -x,y,1/2-z
4 1/2-x,1/2+y,1/2-z
5 -x,-y,-z
6 1/2-x,1/2-y,-z
7 x,-y,1/2+z
8 1/2+x,1/2-y,1/2+z
_cell_length_a                   23.2040(7)
_cell_length_b                   16.0070(7)
_cell_length_c                   17.0870(8)
_cell_angle_alpha                90
_cell_angle_beta                 125.1300(10)
_cell_angle_gamma                90
_cell_volume                     5190.53
loop_
_atom_site_label
_atom_site_type_symbol
_atom_site_fract_x
_atom_site_fract_y
_atom_site_fract_z
Cd1 Cd 0.5000 0.31154(3) -0.2500
Cd2 Cd 0.192760(18) -0.161600(19) 0.00499(2)
C1 C 0.5501(3) 0.2468(4) 0.1416(4)
C2 C 0.4965(2) 0.2010(3) 0.0498(3)
C3 C 0.4450(3) 0.1597(3) 0.0540(4)
H1 H 0.4464 0.1649 0.1094
C4 C 0.3922(3) 0.1118(3) -0.0201(4)
H2 H 0.3587 0.0856 -0.0151
C5 C 0.3907(2) 0.1037(3) -0.1009(3)
C6 C 0.4398(3) 0.1449(3) -0.1081(4)
H3 H 0.4373 0.1394 -0.1641
C7 C 0.4922(2) 0.1935(3) -0.0357(3)
C8 C 0.2873(3) 0.0177(3) -0.1845(3)
C9 C 0.2973(2) -0.0630(3) -0.1517(3)
H4 H 0.3414 -0.0880 -0.1219
C10 C 0.2409(2) -0.1075(3) -0.1631(3)
C11 C 0.1757(2) -0.0679(2) -0.2086(3)
C12 C 0.1675(3) 0.0137(3) -0.2422(4)
H5 H 0.1235 0.0392 -0.2734
C13 C 0.2232(3) 0.0571(3) -0.2301(4)
H6 H 0.2176 0.1116 -0.2521
C14 C 0.2542(2) -0.1967(3) -0.1293(4)
C15 C 0.5385(2) 0.2353(3) -0.0616(3)
C16 C 0.1132(2) -0.1112(3) -0.2231(3)
C17 C 0.3514(3) -0.0851(4) 0.1143(4)
H7 H 0.3600 -0.1373 0.0991
C18 C 0.4061(3) -0.0321(5) 0.1647(4)
H8 H 0.4506 -0.0470 0.1818
C19 C 0.3951(3) 0.0436(4) 0.1905(4)
H9 H 0.4323 0.0806 0.2272
C20 C 0.3278(2) 0.0639(3) 0.1608(3)
H10 H 0.3190 0.1154 0.1773
C21 C 0.2732(2) 0.0081(3) 0.1066(3)
C22 C 0.1986(2) 0.0222(2) 0.0681(3)
C23 C 0.0879(3) -0.0082(3) -0.0057(4)
H11 H 0.0456 -0.0376 -0.0384
C24 C 0.0958(3) 0.0727(3) 0.0206(4)
H12 H 0.0602 0.1087 0.0090
C25 C 0.1946(3) 0.1771(3) 0.1005(4)
H13 H 0.2323 0.1751 0.1682
H14 H 0.1579 0.2132 0.0924
C26 C 0.2228(3) 0.2144(3) 0.0468(3)
C27 C 0.1923(3) 0.1972(3) -0.0493(3)
H15 H 0.1532 0.1623 -0.0827
C28 C 0.2800(3) 0.2679(3) 0.0952(3)
H16 H 0.3000 0.2807 0.1591
N1 N 0.15202(19) -0.0400(2) 0.0233(3)
N2 N 0.1657(2) 0.0922(2) 0.0675(3)
N3 N 0.2854(2) -0.0670(2) 0.0846(3)
O1 O 0.2728(2) -0.2082(2) -0.0453(3)
O2 O 0.2505(3) -0.2524(3) -0.1805(3)
O3 O 0.3424(2) 0.0579(2) -0.1804(3)
O4 O 0.5523(3) 0.2343(4) 0.2128(3)
O5 O 0.5935(3) 0.2993(3) 0.1446(3)
H17 H 0.5863 0.3021 0.0917
O6 O 0.52656(17) 0.2158(2) -0.1402(2)
O7 O 0.5855(2) 0.2869(2) -0.0055(3)
O8 O 0.05413(17) -0.1022(3) -0.2991(3)
O9 O 0.12128(16) -0.1594(2) -0.1589(2)
Cd1A Cd 0.0000 -0.18846(3) -0.2500
Cd1A_2 Cd 1.0000 -0.18846(3) -0.2500
Cd2B Cd 0.807240(18) -0.161600(19) -0.50499(2)
Cd2E Cd 0.307240(18) -0.338400(19) -0.00499(2)
Cd2A Cd 0.692760(18) 0.338400(19) 0.00499(2)
Cd2E_2 Cd 0.307240(18) 0.661600(19) -0.00499(2)
Cd2G Cd 0.692760(18) -0.338400(19) -0.49501(2)
Cd2C Cd 0.307240(18) 0.338400(19) -0.50499(2)
C1B C 0.4499(3) 0.2468(4) -0.6416(4)
C2B C 0.5035(2) 0.2010(3) -0.5498(3)
C3B C 0.5550(3) 0.1597(3) -0.5540(4)
H1B H 0.5536 0.1649 -0.6094
C4B C 0.6078(3) 0.1118(3) -0.4799(4)
H2B H 0.6413 0.0856 -0.4849
C5B C 0.6093(2) 0.1037(3) -0.3991(3)
C6B C 0.5602(3) 0.1449(3) -0.3919(4)
H3B H 0.5627 0.1394 -0.3359
C7B C 0.5078(2) 0.1935(3) -0.4643(3)
C8B C 0.7127(3) 0.0177(3) -0.3155(3)
C9B C 0.7027(2) -0.0630(3) -0.3483(3)
H4B H 0.6586 -0.0880 -0.3781
C10B C 0.7591(2) -0.1075(3) -0.3369(3)
C11B C 0.8243(2) -0.0679(2) -0.2914(3)
C12B C 0.8325(3) 0.0137(3) -0.2578(4)
H5B H 0.8765 0.0392 -0.2266
C13B C 0.7768(3) 0.0571(3) -0.2699(4)
H6B H 0.7824 0.1116 -0.2479
C14B C 0.7458(2) -0.1967(3) -0.3707(4)
C15B C 0.4615(2) 0.2353(3) -0.4384(3)
C16B C 0.8868(2) -0.1112(3) -0.2769(3)
C17E C 0.1486(3) 0.5851(4) -0.1143(4)
H7E H 0.1400 0.6373 -0.0991
C18E C 0.0939(3) 0.5321(5) -0.1647(4)
H8E H 0.0494 0.5470 -0.1818
C19E C 0.1049(3) 0.4564(4) -0.1905(4)
H9E H 0.0677 0.4194 -0.2272
C20E C 0.1722(2) 0.4361(3) -0.1608(3)
H10E H 0.1810 0.3846 -0.1773
C21E C 0.2268(2) 0.4919(3) -0.1066(3)
C22E C 0.3014(2) 0.4778(2) -0.0681(3)
C23E C 0.4121(3) 0.5082(3) 0.0057(4)
H11E H 0.4544 0.5376 0.0384
C24E C 0.4042(3) 0.4273(3) -0.0206(4)
H12E H 0.4398 0.3913 -0.0090
C25E C 0.3054(3) 0.3229(3) -0.1005(4)
H13E H 0.2677 0.3249 -0.1682
H14E H 0.3421 0.2868 -0.0924
C26E C 0.2772(3) 0.2856(3) -0.0468(3)
C27E C 0.3077(3) 0.3028(3) 0.0493(3)
H15E H 0.3468 0.3377 0.0827
C28E C 0.2200(3) 0.2321(3) -0.0952(3)
H16E H 0.2000 0.2193 -0.1591
N1E N 0.34798(19) 0.5400(2) -0.0233(3)
N1B N 0.84798(19) -0.0400(2) -0.5233(3)
N2E N 0.3343(2) 0.4078(2) -0.0675(3)
N3E N 0.2146(2) 0.5670(2) -0.0846(3)
N3B N 0.7146(2) -0.0670(2) -0.5846(3)
O1B O 0.7272(2) -0.2082(2) -0.4547(3)
O1E O 0.2272(2) -0.2918(2) 0.0453(3)
O1G O 0.7728(2) -0.2918(2) -0.5453(3)
O2B O 0.7495(3) -0.2524(3) -0.3195(3)
O3B O 0.6576(2) 0.0579(2) -0.3196(3)
O4B O 0.4477(3) 0.2343(4) -0.7128(3)
O5B O 0.4065(3) 0.2993(3) -0.6446(3)
H17B H 0.4137 0.3021 -0.5917
O6B O 0.47344(17) 0.2158(2) -0.3598(2)
O7B O 0.4145(2) 0.2869(2) -0.4945(3)
O7A O 0.0855(2) -0.2131(2) -0.0055(3)
O7C O 0.9145(2) -0.2131(2) -0.4945(3)
O8B O 0.94587(17) -0.1022(3) -0.2009(3)
O8A O 0.55413(17) 0.3978(3) -0.2991(3)
O8C O 0.44587(17) 0.3978(3) -0.2009(3)
O9B O 0.87872(16) -0.1594(2) -0.3411(2)
O9A O 0.62128(16) 0.3406(2) -0.1589(2)
O9C O 0.37872(16) 0.3406(2) -0.3411(2)
loop_
_geom_bond_atom_site_label_1
_geom_bond_atom_site_label_2
_geom_bond_site_symmetry_1
_geom_bond_site_symmetry_2
Cd1 O6 1_555 1_555
Cd2 N1 1_555 1_555
C1 C2 1_555 1_555
C2 C3 1_555 1_555
C3 H1 1_555 1_555
C4 C3 1_555 1_555
H2 C4 1_555 1_555
C5 C4 1_555 1_555
C6 C5 1_555 1_555
H3 C6 1_555 1_555
C7 C2 1_555 1_555
C8 C9 1_555 1_555
C9 H4 1_555 1_555
C10 C9 1_555 1_555
C11 C10 1_555 1_555
C12 C11 1_555 1_555
H5 C12 1_555 1_555
C13 C8 1_555 1_555
H6 C13 1_555 1_555
C14 C10 1_555 1_555
C15 C7 1_555 1_555
C16 C11 1_555 1_555
C17 H7 1_555 1_555
C18 C17 1_555 1_555
H8 C18 1_555 1_555
C19 C18 1_555 1_555
H9 C19 1_555 1_555
C20 C19 1_555 1_555
H10 C20 1_555 1_555
C21 C20 1_555 1_555
C22 C21 1_555 1_555
C23 H11 1_555 1_555
C24 C23 1_555 1_555
H12 C24 1_555 1_555
C25 H13 1_555 1_555
H14 C25 1_555 1_555
C26 C25 1_555 1_555
C27 C26 1_555 1_555
H15 C27 1_555 1_555
C28 C26 1_555 1_555
H16 C28 1_555 1_555
N1 C22 1_555 1_555
N2 C22 1_555 1_555
N3 Cd2 1_555 1_555
O1 Cd2 1_555 1_555
O2 C14 1_555 1_555
O3 C5 1_555 1_555
O4 C1 1_555 1_555
O5 C1 1_555 1_555
H17 O5 1_555 1_555
O6 C15 1_555 1_555
O7 C15 1_555 1_555
O8 C16 1_555 1_555
O9 Cd2 1_555 1_555
Cd1A O8 1_555 1_555
Cd1A_2 O8B 1_555 1_555
Cd2B N1B 1_555 1_555
Cd2E O1 1_555 1_555
Cd2A O7 1_555 1_555
Cd2E_2 N1E 1_555 1_555
Cd2G O1B 1_555 1_555
Cd2C O7B 1_555 1_555
C1B C2B 1_555 1_555
C2B C3B 1_555 1_555
C3B H1B 1_555 1_555
C4B C3B 1_555 1_555
H2B C4B 1_555 1_555
C5B C4B 1_555 1_555
C6B C5B 1_555 1_555
H3B C6B 1_555 1_555
C7B C2B 1_555 1_555
C8B C9B 1_555 1_555
C9B H4B 1_555 1_555
C10B C9B 1_555 1_555
C11B C10B 1_555 1_555
C12B C11B 1_555 1_555
H5B C12B 1_555 1_555
C13B C8B 1_555 1_555
H6B C13B 1_555 1_555
C14B C10B 1_555 1_555
C15B C7B 1_555 1_555
C16B C11B 1_555 1_555
C17E H7E 1_555 1_555
C18E C17E 1_555 1_555
H8E C18E 1_555 1_555
C19E C18E 1_555 1_555
H9E C19E 1_555 1_555
C20E C19E 1_555 1_555
H10E C20E 1_555 1_555
C21E C20E 1_555 1_555
C22E C21E 1_555 1_555
C23E H11E 1_555 1_555
C24E C23E 1_555 1_555
H12E C24E 1_555 1_555
C25E H13E 1_555 1_555
H14E C25E 1_555 1_555
C26E C25E 1_555 1_555
C27E C28 1_555 1_555
H15E C27E 1_555 1_555
C28E C27 1_555 1_555
H16E C28E 1_555 1_555
N1E C22E 1_555 1_555
N2E C22E 1_555 1_555
N3E Cd2E_2 1_555 1_555
N3B Cd2B 1_555 1_555
O1B Cd2B 1_555 1_555
O1E Cd2 1_555 1_555
O1G Cd2B 1_555 1_555
O2B C14B 1_555 1_555
O3B C5B 1_555 1_555
O4B C1B 1_555 1_555
O5B C1B 1_555 1_555
H17B O5B 1_555 1_555
O6B Cd1 1_555 1_555
O7B C15B 1_555 1_555
O7A Cd2 1_555 1_555
O7C Cd2B 1_555 1_555
O8B C16B 1_555 1_555
O8A Cd1 1_555 1_555
O8C Cd1 1_555 1_555
O9B Cd1A_2 1_555 1_555
O9A Cd1 1_555 1_555
O9C Cd1 1_555 1_555
C6 C7 1_555 1_555
C8 O3 1_555 1_555
C12 C13 1_555 1_555
C14 O1 1_555 1_555
C16 O9 1_555 1_555
C17 N3 1_555 1_555
C21 N3 1_555 1_555
C23 N1 1_555 1_555
C24 N2 1_555 1_555
C25 N2 1_555 1_555
O9 Cd1A 1_555 1_555
Cd2B O9B 1_555 1_555
Cd2E O1E 1_555 1_555
Cd2A O9A 1_555 1_555
Cd2G O1G 1_555 1_555
Cd2C O9C 1_555 1_555
C6B C7B 1_555 1_555
C8B O3B 1_555 1_555
C12B C13B 1_555 1_555
C14B O1B 1_555 1_555
C15B O6B 1_555 1_555
C16B O9B 1_555 1_555
C17E N3E 1_555 1_555
C21E N3E 1_555 1_555
C23E N1E 1_555 1_555
C24E N2E 1_555 1_555
C25E N2E 1_555 1_555
C26E C27E 1_555 1_555
C26E C28E 1_555 1_555

#END
