
#######################################################################
#
#                 Cambridge Crystallographic Data Centre
#                                CCDC 
#
#######################################################################
#
# If this CIF has been generated from an entry in the Cambridge 
# Structural Database, then it will include bibliographic, chemical, 
# crystal, experimental, refinement or atomic coordinate data resulting 
# from the CCDC's data processing and validation procedures.
#
#######################################################################

data_POCSEG
_symmetry_cell_setting           orthorhombic
_symmetry_space_group_name_H-M   'I 2 2 2'
_symmetry_Int_Tables_number      23
_space_group_name_Hall           'I 2 2'
loop_
_symmetry_equiv_pos_site_id
_symmetry_equiv_pos_as_xyz
1 x,y,z
2 -x,-y,z
3 x,-y,-z
4 -x,y,-z
5 1/2+x,1/2+y,1/2+z
6 1/2-x,1/2-y,1/2+z
7 1/2+x,1/2-y,1/2-z
8 1/2-x,1/2+y,1/2-z
_cell_length_a                   12.1440(9)
_cell_length_b                   29.018(2)
_cell_length_c                   9.1399(6)
_cell_angle_alpha                90
_cell_angle_beta                 90
_cell_angle_gamma                90
_cell_volume                     3220.85
loop_
_atom_site_label
_atom_site_type_symbol
_atom_site_fract_x
_atom_site_fract_y
_atom_site_fract_z
Zn1 Zn 1.0000 0.0000 1.0000
C1 C 0.8940(4) 0.08715(17) 0.8781(7)
H1 H 0.9610 0.0878 0.8289
C2 C 0.8181(4) 0.11975(18) 0.8456(7)
H2 H 0.8336 0.1421 0.7756
C3 C 0.7178(4) 0.11981(17) 0.9163(6)
C4 C 0.7014(4) 0.08663(16) 1.0203(7)
H3 H 0.6356 0.0860 1.0724
C5 C 0.7814(4) 0.05418(16) 1.0487(6)
H4 H 0.7675 0.0319 1.1196
C6 C 0.6284(4) 0.15368(18) 0.8760(7)
H5 H 0.5821 0.1402 0.8008
H6 H 0.5828 0.1595 0.9611
N1 N 0.6731(4) 0.19720(18) 0.8228(6)
C7 C 0.5948(6) 0.2237(2) 0.7314(7)
H7 H 0.6347 0.2468 0.6758
H8 H 0.5590 0.2031 0.6627
C8 C 0.7196(4) 0.22550(18) 0.9360(7)
H9 H 0.7660 0.2489 0.8917
H10 H 0.7658 0.2066 0.9984
C9 C 0.4088(4) 0.22752(16) 0.8521(6)
C10 C 0.5499(4) 0.27329(16) 0.9470(5)
C11 C 0.5876(4) 0.32131(18) 0.8944(7)
C12 C 0.7171(10) 0.3828(3) 0.9228(11)
H11 H 0.7121 0.3863 0.8175
H12 H 0.6749 0.4073 0.9683
C13 C 0.8243(9) 0.3853(3) 0.9660(12)
H13 H 0.8276 0.3926 1.0683
H14 H 0.8613 0.4088 0.9110
H15 H 0.8596 0.3562 0.9490
N2 N 0.8770(3) 0.05330(12) 0.9794(6)
N3 N 0.5109(4) 0.24652(13) 0.8232(4)
N4 N 0.6344(3) 0.24828(11) 1.0267(5)
O2 O 1.0000 0.0000 0.7567(7)
H16 H 1.0487 -0.0211 0.7029
H17 H 0.9513 0.0211 0.7029
O3 O 0.3623(4) 0.19856(15) 0.7775(4)
O4 O 0.5517(5) 0.3393(2) 0.7932(8)
O5 O 0.6719(5) 0.33677(13) 0.9675(5)
Zn1_2 Zn 0.0000 0.0000 1.0000
Zn1_3 Zn 2.0000 0.0000 1.0000
C1C C 0.1060(4) 0.08715(17) 1.1219(7)
C1A C 1.1060(4) -0.08715(17) 0.8781(7)
C1B C 1.8940(4) -0.08715(17) 1.1219(7)
H1C H 0.0390 0.0878 1.1711
H1A H 1.0390 -0.0878 0.8289
H1B H 1.9610 -0.0878 1.1711
C2C C 0.1819(4) 0.11975(18) 1.1544(7)
C2A C 1.1819(4) -0.11975(18) 0.8456(7)
C2B C 1.8181(4) -0.11975(18) 1.1544(7)
H2C H 0.1664 0.1421 1.2244
H2A H 1.1664 -0.1421 0.7756
H2B H 1.8336 -0.1421 1.2244
C3C C 0.2822(4) 0.11981(17) 1.0837(6)
C3A C 1.2822(4) -0.11981(17) 0.9163(6)
C3B C 1.7178(4) -0.11981(17) 1.0837(6)
C4C C 0.2986(4) 0.08663(16) 0.9797(7)
C4A C 1.2986(4) -0.08663(16) 1.0203(7)
C4B C 1.7014(4) -0.08663(16) 0.9797(7)
H3C H 0.3644 0.0860 0.9276
H3A H 1.3644 -0.0860 1.0724
H3B H 1.6356 -0.0860 0.9276
C5C C 0.2186(4) 0.05418(16) 0.9513(6)
C5A C 1.2186(4) -0.05418(16) 1.0487(6)
C5B C 1.7814(4) -0.05418(16) 0.9513(6)
H4C H 0.2325 0.0319 0.8804
H4A H 1.2325 -0.0319 1.1196
H4B H 1.7675 -0.0319 0.8804
C6C C 0.3716(4) 0.15368(18) 1.1240(7)
C6A C 1.3716(4) -0.15368(18) 0.8760(7)
C6B C 1.6284(4) -0.15368(18) 1.1240(7)
H5C H 0.4179 0.1402 1.1992
H5A H 1.4179 -0.1402 0.8008
H5B H 1.5821 -0.1402 1.1992
H6C H 0.4172 0.1595 1.0389
H6A H 1.4172 -0.1595 0.9611
H6B H 1.5828 -0.1595 1.0389
N1C N 0.3269(4) 0.19720(18) 1.1772(6)
N1A N 1.3269(4) -0.19720(18) 0.8228(6)
N1B N 1.6731(4) -0.19720(18) 1.1772(6)
C7C C 0.4052(6) 0.2237(2) 1.2686(7)
C7A C 1.4052(6) -0.2237(2) 0.7314(7)
C7B C 1.5948(6) -0.2237(2) 1.2686(7)
H7C H 0.3653 0.2468 1.3242
H7A H 1.3653 -0.2468 0.6758
H7B H 1.6347 -0.2468 1.3242
H8C H 0.4410 0.2031 1.3373
H8A H 1.4410 -0.2031 0.6627
H8B H 1.5590 -0.2031 1.3373
C8C C 0.2804(4) 0.22550(18) 1.0640(7)
C8A C 1.2804(4) -0.22550(18) 0.9360(7)
C8B C 1.7196(4) -0.22550(18) 1.0640(7)
H9C H 0.2340 0.2489 1.1083
H9A H 1.2340 -0.2489 0.8917
H9B H 1.7660 -0.2489 1.1083
H10C H 0.2342 0.2066 1.0016
H10A H 1.2342 -0.2066 0.9984
H10B H 1.7658 -0.2066 1.0016
C9C C 0.5912(4) 0.22752(16) 1.1479(6)
C9A C 1.5912(4) -0.22752(16) 0.8521(6)
C9B C 1.4088(4) -0.22752(16) 1.1479(6)
C10C C 0.4501(4) 0.27329(16) 1.0530(5)
C10A C 1.4501(4) -0.27329(16) 0.9470(5)
C10B C 1.5499(4) -0.27329(16) 1.0530(5)
C11C C 0.4124(4) 0.32131(18) 1.1056(7)
C11A C 1.4124(4) -0.32131(18) 0.8944(7)
C11B C 1.5876(4) -0.32131(18) 1.1056(7)
C12C C 0.2829(10) 0.3828(3) 1.0772(11)
C12A C 1.2829(10) -0.3828(3) 0.9228(11)
C12B C 1.7171(10) -0.3828(3) 1.0772(11)
H11C H 0.2879 0.3863 1.1825
H11A H 1.2879 -0.3863 0.8175
H11B H 1.7121 -0.3863 1.1825
H12C H 0.3251 0.4073 1.0317
H12A H 1.3251 -0.4073 0.9683
H12B H 1.6749 -0.4073 1.0317
C13C C 0.1757(9) 0.3853(3) 1.0340(12)
C13A C 1.1757(9) -0.3853(3) 0.9660(12)
C13B C 1.8243(9) -0.3853(3) 1.0340(12)
H13C H 0.1724 0.3926 0.9317
H13A H 1.1724 -0.3926 1.0683
H13B H 1.8276 -0.3926 0.9317
H14C H 0.1387 0.4088 1.0890
H14A H 1.1387 -0.4088 0.9110
H14B H 1.8613 -0.4088 1.0890
H15C H 0.1404 0.3562 1.0510
H15A H 1.1404 -0.3562 0.9490
H15B H 1.8596 -0.3562 1.0510
N2C N 0.1230(3) 0.05330(12) 1.0206(6)
N2A N 1.1230(3) -0.05330(12) 0.9794(6)
N2B N 1.8770(3) -0.05330(12) 1.0206(6)
N2B_2 N 0.8770(3) -0.05330(12) 1.0206(6)
N2C_2 N 1.1230(3) 0.05330(12) 1.0206(6)
N3C N 0.4891(4) 0.24652(13) 1.1768(4)
N3A N 1.4891(4) -0.24652(13) 0.8232(4)
N3B N 1.5109(4) -0.24652(13) 1.1768(4)
N4C N 0.3656(3) 0.24828(11) 0.9733(5)
N4A N 1.3656(3) -0.24828(11) 1.0267(5)
N4B N 1.6344(3) -0.24828(11) 0.9733(5)
O2B O 1.0000 0.0000 1.2433(7)
H16B H 1.0487 0.0211 1.2971
H17B H 0.9513 -0.0211 1.2971
O3C O 0.6377(4) 0.19856(15) 1.2225(4)
O3A O 1.6377(4) -0.19856(15) 0.7775(4)
O3B O 1.3623(4) -0.19856(15) 1.2225(4)
O4C O 0.4483(5) 0.3393(2) 1.2068(8)
O4A O 1.4483(5) -0.3393(2) 0.7932(8)
O4B O 1.5517(5) -0.3393(2) 1.2068(8)
O5C O 0.3281(5) 0.33677(13) 1.0325(5)
O5A O 1.3281(5) -0.33677(13) 0.9675(5)
O5B O 1.6719(5) -0.33677(13) 1.0325(5)
O1 O 0.7607(11) 0.4958(4) 0.1258(8)
N5 N 0.7393(11) 0.5000 0.0000
O6 O 0.6403(15) 0.5000 0.0000
O1B O 0.7607(11) 0.5042(4) -0.1258(8)
O7 O 0.5000 0.2938(5) 0.5000
O8 O 0.5000 0.0000 1.0000
O9 O 0.483(3) 0.9698(7) 0.745(2)
H18? H 0.4869 0.3032 0.4173
H19? H 0.5056 0.3163 0.5539
H20? H 0.5809 0.0000 1.0000
H21? H 0.4730 0.0000 0.8986
H22? H 0.4211 0.9763 0.7159
H23? H 0.5103 0.9933 0.7792
loop_
_geom_bond_atom_site_label_1
_geom_bond_atom_site_label_2
_geom_bond_site_symmetry_1
_geom_bond_site_symmetry_2
Zn1 N2 1_555 1_555
C1 H1 1_555 1_555
C2 C1 1_555 1_555
H2 C2 1_555 1_555
C3 C2 1_555 1_555
C4 C3 1_555 1_555
H3 C4 1_555 1_555
C5 C4 1_555 1_555
H4 C5 1_555 1_555
C6 C3 1_555 1_555
H5 C6 1_555 1_555
H6 C6 1_555 1_555
N1 C6 1_555 1_555
C7 N1 1_555 1_555
H7 C7 1_555 1_555
H8 C7 1_555 1_555
C8 N1 1_555 1_555
H9 C8 1_555 1_555
H10 C8 1_555 1_555
C9 N3 1_555 1_555
C10 C11 1_555 1_555
C11 O4 1_555 1_555
C12 H11 1_555 1_555
H12 C12 1_555 1_555
C13 C12 1_555 1_555
H13 C13 1_555 1_555
H14 C13 1_555 1_555
H15 C13 1_555 1_555
O1 N5 1_555 1_555
N2 C1 1_555 1_555
N3 C7 1_555 1_555
N4 C8 1_555 1_555
O2 Zn1 1_555 1_555
H16 O2 1_555 1_555
H17 O2 1_555 1_555
O3 C9 1_555 1_555
O5 C11 1_555 1_555
N5 O6 1_555 1_555
Zn1_2 N2C 1_555 1_555
Zn1_3 N2B 1_555 1_555
C1C H1C 1_555 1_555
C1A H1A 1_555 1_555
C1B H1B 1_555 1_555
C2C C1C 1_555 1_555
C2A C1A 1_555 1_555
C2B C1B 1_555 1_555
H2C C2C 1_555 1_555
H2A C2A 1_555 1_555
H2B C2B 1_555 1_555
C3C C2C 1_555 1_555
C3A C2A 1_555 1_555
C3B C2B 1_555 1_555
C4C C3C 1_555 1_555
C4A C3A 1_555 1_555
C4B C3B 1_555 1_555
H3C C4C 1_555 1_555
H3A C4A 1_555 1_555
H3B C4B 1_555 1_555
C5C C4C 1_555 1_555
C5A C4A 1_555 1_555
C5B C4B 1_555 1_555
H4C C5C 1_555 1_555
H4A C5A 1_555 1_555
H4B C5B 1_555 1_555
C6C C3C 1_555 1_555
C6A C3A 1_555 1_555
C6B C3B 1_555 1_555
H5C C6C 1_555 1_555
H5A C6A 1_555 1_555
H5B C6B 1_555 1_555
H6C C6C 1_555 1_555
H6A C6A 1_555 1_555
H6B C6B 1_555 1_555
N1C C6C 1_555 1_555
N1A C6A 1_555 1_555
N1B C6B 1_555 1_555
C7C N1C 1_555 1_555
C7A N1A 1_555 1_555
C7B N1B 1_555 1_555
H7C C7C 1_555 1_555
H7A C7A 1_555 1_555
H7B C7B 1_555 1_555
H8C C7C 1_555 1_555
H8A C7A 1_555 1_555
H8B C7B 1_555 1_555
C8C N1C 1_555 1_555
C8A N1A 1_555 1_555
C8B N1B 1_555 1_555
H9C C8C 1_555 1_555
H9A C8A 1_555 1_555
H9B C8B 1_555 1_555
H10C C8C 1_555 1_555
H10A C8A 1_555 1_555
H10B C8B 1_555 1_555
C9C N4 1_555 1_555
C9A N3A 1_555 1_555
C9B N3B 1_555 1_555
C10C C10 1_555 1_555
C10A C10B 1_555 1_555
C10B C11B 1_555 1_555
C11C C10C 1_555 1_555
C11A C10A 1_555 1_555
C11B O4B 1_555 1_555
C12C H11C 1_555 1_555
C12A H11A 1_555 1_555
C12B H11B 1_555 1_555
H12C C12C 1_555 1_555
H12A C12A 1_555 1_555
H12B C12B 1_555 1_555
C13C C12C 1_555 1_555
C13A C12A 1_555 1_555
C13B C12B 1_555 1_555
H13C C13C 1_555 1_555
H13A C13A 1_555 1_555
H13B C13B 1_555 1_555
H14C C13C 1_555 1_555
H14A C13A 1_555 1_555
H14B C13B 1_555 1_555
H15C C13C 1_555 1_555
H15A C13A 1_555 1_555
H15B C13B 1_555 1_555
O1B N5 1_555 1_555
N2C C1C 1_555 1_555
N2A Zn1 1_555 1_555
N2B C1B 1_555 1_555
N2B_2 Zn1 1_555 1_555
N2C_2 Zn1 1_555 1_555
N3C C7C 1_555 1_555
N3A C7A 1_555 1_555
N3B C7B 1_555 1_555
N4C C9 1_555 1_555
N4A C8A 1_555 1_555
N4B C8B 1_555 1_555
O2B Zn1 1_555 1_555
H16B O2B 1_555 1_555
H17B O2B 1_555 1_555
O3C C9C 1_555 1_555
O3A C9A 1_555 1_555
O3B C9B 1_555 1_555
O4C C11C 1_555 1_555
O4A C11A 1_555 1_555
O5C C11C 1_555 1_555
O5A C11A 1_555 1_555
O5B C11B 1_555 1_555
C5 N2 1_555 1_555
C10 N3 1_555 1_555
C10 N4 1_555 1_555
C12 O5 1_555 1_555
C1A N2A 1_555 1_555
C5C N2C 1_555 1_555
C5A N2A 1_555 1_555
C5B N2B 1_555 1_555
C8C N4C 1_555 1_555
C9C N3C 1_555 1_555
C9A N4B 1_555 1_555
C9B N4A 1_555 1_555
C10C N3C 1_555 1_555
C10C N4C 1_555 1_555
C10A N3A 1_555 1_555
C10A N4A 1_555 1_555
C10B N3B 1_555 1_555
C10B N4B 1_555 1_555
C12C O5C 1_555 1_555
C12A O5A 1_555 1_555
C12B O5B 1_555 1_555

#END
