
#######################################################################
#
#                 Cambridge Crystallographic Data Centre
#                                CCDC 
#
#######################################################################
#
# If this CIF has been generated from an entry in the Cambridge 
# Structural Database, then it will include bibliographic, chemical, 
# crystal, experimental, refinement or atomic coordinate data resulting 
# from the CCDC's data processing and validation procedures.
#
#######################################################################

data_POCTAD
_symmetry_cell_setting           triclinic
_symmetry_space_group_name_H-M   'P -1'
_symmetry_Int_Tables_number      2
_space_group_name_Hall           '-P 1'
loop_
_symmetry_equiv_pos_site_id
_symmetry_equiv_pos_as_xyz
1 x,y,z
2 -x,-y,-z
_cell_length_a                   9.4863(19)
_cell_length_b                   10.932(2)
_cell_length_c                   11.247(2)
_cell_angle_alpha                100.51(3)
_cell_angle_beta                 101.15(3)
_cell_angle_gamma                112.01(3)
_cell_volume                     1018.44
loop_
_atom_site_label
_atom_site_type_symbol
_atom_site_fract_x
_atom_site_fract_y
_atom_site_fract_z
C1 C 0.9163(8) 0.8090(8) -0.0032(8)
H1 H 1.0199 0.8643 -0.0103
H2 H 0.8957 0.7129 -0.0307
C2 C 0.5907(8) 0.7650(6) -0.2641(8)
H3 H 0.5396 0.6989 -0.3469
H4 H 0.5199 0.7398 -0.2121
C3 C 0.7395(8) 0.7571(6) -0.2076(7)
H5 H 0.7203 0.6622 -0.2139
H6 H 0.8170 0.7938 -0.2517
C4 C 0.6287(6) 1.0075(5) -0.1869(6)
H7 H 0.6134 1.0024 -0.1085
C5 C 0.6270(5) 0.7863(6) 0.1207(6)
H8 H 0.6254 0.8637 0.0983
C6 C 0.0297(5) 0.4174(5) 0.3005(4)
C7 C 0.0889(5) 0.5378(5) 0.2461(4)
C8 C -0.1545(8) 0.1942(6) 0.2971(6)
H9 H -0.2494 0.1164 0.2579
C9 C 0.9128(6) 0.8454(7) 0.1298(7)
H10 H 0.9949 0.8314 0.1840
H11 H 0.9340 0.9417 0.1567
C10 C -0.2159(6) 0.2764(6) 0.1121(5)
C11 C -0.1107(6) 0.2996(5) 0.2399(5)
C12 C 0.1210(8) 0.4236(7) 0.4152(6)
C13 C 0.7117(8) 0.6395(8) 0.1688(9)
H12 H 0.7755 0.5946 0.1881
C14 C 0.0792(11) 0.3188(9) 0.4712(6)
H13 H 0.1431 0.3255 0.5483
C15 C 0.6795(9) 1.0833(7) -0.3446(6)
H14 H 0.7065 1.1422 -0.3949
C16 C 0.6473(10) 0.9508(8) -0.3774(7)
H15 H 0.6467 0.9006 -0.4539
C17 C 0.5566(8) 0.5957(9) 0.1628(11)
H16 H 0.4941 0.5130 0.1754
C18 C -0.0611(11) 0.2028(8) 0.4093(7)
N1 N 0.259(2) 0.5145(18) 0.4692(11)
N2 N -0.079(2) 0.0965(14) 0.4636(12)
N3 N 0.5059(5) 0.6907(5) 0.1357(5)
N4 N 0.7555(4) 0.7593(5) 0.1417(4)
N5 N 0.6666(5) 1.1207(4) -0.2243(4)
N6 N 0.6151(6) 0.9014(5) -0.2767(5)
O1 O 0.0312(4) 0.6211(4) 0.2527(4)
O2 O 0.2054(4) 0.5444(4) 0.2020(4)
O3 O 0.2848(19) 0.6424(14) 0.4787(15)
O4 O 0.3663(18) 0.4815(16) 0.5156(18)
O5 O 0.7964(6) 0.8343(5) -0.0803(5)
O6 O -0.1558(4) 0.3548(4) 0.0473(3)
O7 O -0.3507(5) 0.1826(5) 0.0747(5)
O8 O 0.011(2) 0.1008(13) 0.5563(12)
O9 O -0.1975(19) -0.0113(13) 0.4072(12)
Zn1 Zn 0.29194(5) 0.69154(5) 0.12414(5)
N5A N 0.3334(5) 0.8793(4) 0.2243(4)
O6A O 0.1558(4) 0.6452(4) -0.0473(3)
Zn1A Zn 0.70806(5) 1.30846(5) -0.12414(5)
Zn1A_2 Zn -0.29194(5) 0.30846(5) -0.12414(5)
loop_
_geom_bond_atom_site_label_1
_geom_bond_atom_site_label_2
_geom_bond_site_symmetry_1
_geom_bond_site_symmetry_2
C1 H1 1_555 1_555
H2 C1 1_555 1_555
C2 H3 1_555 1_555
H4 C2 1_555 1_555
C3 C2 1_555 1_555
H5 C3 1_555 1_555
H6 C3 1_555 1_555
C4 H7 1_555 1_555
C5 H8 1_555 1_555
C6 C7 1_555 1_555
C7 O1 1_555 1_555
C8 H9 1_555 1_555
C9 C1 1_555 1_555
H10 C9 1_555 1_555
H11 C9 1_555 1_555
C10 C11 1_555 1_555
C11 C6 1_555 1_555
C12 C6 1_555 1_555
C13 H12 1_555 1_555
C14 C12 1_555 1_555
H13 C14 1_555 1_555
C15 H14 1_555 1_555
C16 C15 1_555 1_555
H15 C16 1_555 1_555
C17 C13 1_555 1_555
H16 C17 1_555 1_555
C18 C8 1_555 1_555
N1 C12 1_555 1_555
N2 C18 1_555 1_555
N3 C5 1_555 1_555
N4 C5 1_555 1_555
N5 C4 1_555 1_555
N6 C2 1_555 1_555
O2 C7 1_555 1_555
O3 N1 1_555 1_555
O4 N1 1_555 1_555
O5 C1 1_555 1_555
O6 C10 1_555 1_555
O7 C10 1_555 1_555
O8 N2 1_555 1_555
O9 N2 1_555 1_555
Zn1 N3 1_555 1_555
N5A Zn1 1_555 1_555
O6A Zn1 1_555 1_555
Zn1A N5 1_555 1_555
Zn1A_2 O6 1_555 1_555
C3 O5 1_555 1_555
C4 N6 1_555 1_555
C8 C11 1_555 1_555
C9 N4 1_555 1_555
C13 N4 1_555 1_555
C14 C18 1_555 1_555
C15 N5 1_555 1_555
C16 N6 1_555 1_555
C17 N3 1_555 1_555
O2 Zn1 1_555 1_555

#END
