
#######################################################################
#
#                 Cambridge Crystallographic Data Centre
#                                CCDC 
#
#######################################################################
#
# If this CIF has been generated from an entry in the Cambridge 
# Structural Database, then it will include bibliographic, chemical, 
# crystal, experimental, refinement or atomic coordinate data resulting 
# from the CCDC's data processing and validation procedures.
#
#######################################################################

data_POCTUX
_symmetry_cell_setting           monoclinic
_symmetry_space_group_name_H-M   'C 2/c'
_symmetry_Int_Tables_number      15
_space_group_name_Hall           '-C 2yn'
loop_
_symmetry_equiv_pos_site_id
_symmetry_equiv_pos_as_xyz
1 x,y,z
2 1/2+x,1/2+y,z
3 -x,y,1/2-z
4 1/2-x,1/2+y,1/2-z
5 -x,-y,-z
6 1/2-x,1/2-y,-z
7 x,-y,1/2+z
8 1/2+x,1/2-y,1/2+z
_cell_length_a                   7.0214(14)
_cell_length_b                   19.292(4)
_cell_length_c                   13.871(3)
_cell_angle_alpha                90
_cell_angle_beta                 94.98(3)
_cell_angle_gamma                90
_cell_volume                     1871.83
loop_
_atom_site_label
_atom_site_type_symbol
_atom_site_fract_x
_atom_site_fract_y
_atom_site_fract_z
C1 C 0.2744(2) 0.42867(7) 0.13308(11)
C2 C 0.13162(19) 0.46583(7) 0.06434(10)
C3 C -0.0608(2) 0.46723(7) 0.08128(11)
H1 H -0.1016 0.4454 0.1356
C4 C 0.1916(2) 0.49881(7) -0.01701(11)
H2 H 0.3202 0.4981 -0.0284
C5 C 0.2500(3) 0.26548(8) 0.35619(12)
H3 H 0.1382 0.2893 0.3362
C6 C 0.5425(3) 0.23776(13) 0.38278(19)
H4 H 0.6752 0.2393 0.3849
C7 C 0.4410(3) 0.18566(12) 0.41709(19)
H5 H 0.4892 0.1452 0.4463
C8 C 0.0899(3) 0.16031(11) 0.41644(16)
H6 H -0.0201 0.1895 0.4244
H7 H 0.1168 0.1337 0.4754
C9 C 0.0449(4) 0.11195(11) 0.33313(18)
H8 H 0.1541 0.0826 0.3242
H9 H -0.0627 0.0826 0.3452
Co1 Co 0.5000 0.364722(14) 0.2500
N1 N 0.2541(2) 0.20373(7) 0.40070(11)
N2 N 0.4219(2) 0.28833(7) 0.34418(11)
O1 O 0.21658(17) 0.38470(7) 0.19067(10)
O2 O 0.44854(15) 0.44178(6) 0.13294(10)
O3 O 0.0000 0.15277(9) 0.2500
C1D C -0.2744(2) 0.57133(7) -0.13308(11)
C2D C -0.13162(19) 0.53417(7) -0.06434(10)
C3D C 0.0608(2) 0.53277(7) -0.08128(11)
H1D H 0.1016 0.5546 -0.1356
C4D C -0.1916(2) 0.50119(7) 0.01701(11)
H2D H -0.3202 0.5019 0.0284
C5B C -0.2500(3) 0.26548(8) 0.14381(12)
H3B H -0.1382 0.2893 0.1638
C6B C -0.5425(3) 0.23776(13) 0.11722(19)
H4B H -0.6752 0.2393 0.1151
C7B C -0.4410(3) 0.18566(12) 0.08291(19)
H5B H -0.4892 0.1452 0.0537
C8B C -0.0899(3) 0.16031(11) 0.08356(16)
H6B H 0.0201 0.1895 0.0756
H7B H -0.1168 0.1337 0.0246
C9B C -0.0449(4) 0.11195(11) 0.16687(18)
H8B H -0.1541 0.0826 0.1758
H9B H 0.0627 0.0826 0.1548
Co1F Co -0.5000 0.635278(14) -0.2500
Co1_2 Co -0.5000 0.364722(14) 0.2500
N1B N -0.2541(2) 0.20373(7) 0.09930(11)
N2B N -0.4219(2) 0.28833(7) 0.15582(11)
N2B_2 N 0.5781(2) 0.28833(7) 0.15582(11)
O1D O -0.21658(17) 0.61530(7) -0.19067(10)
O1B O 0.78342(17) 0.38470(7) 0.30933(10)
O2D O -0.44854(15) 0.55822(6) -0.13294(10)
O2B O 0.55146(15) 0.44178(6) 0.36706(10)
loop_
_geom_bond_atom_site_label_1
_geom_bond_atom_site_label_2
_geom_bond_site_symmetry_1
_geom_bond_site_symmetry_2
C1 C2 1_555 1_555
C2 C3 1_555 1_555
C3 H1 1_555 1_555
C4 C2 1_555 1_555
H2 C4 1_555 1_555
C5 H3 1_555 1_555
C6 H4 1_555 1_555
C7 C6 1_555 1_555
H5 C7 1_555 1_555
C8 H6 1_555 1_555
H7 C8 1_555 1_555
C9 C8 1_555 1_555
H8 C9 1_555 1_555
H9 C9 1_555 1_555
Co1 N2 1_555 1_555
N1 C5 1_555 1_555
N2 C5 1_555 1_555
O1 C1 1_555 1_555
O2 C1 1_555 1_555
O3 C9 1_555 1_555
C1D C2D 1_555 1_555
C2D C3D 1_555 1_555
C3D C4 1_555 1_555
H1D C3D 1_555 1_555
C4D C3 1_555 1_555
H2D C4D 1_555 1_555
C5B H3B 1_555 1_555
C6B H4B 1_555 1_555
C7B C6B 1_555 1_555
H5B C7B 1_555 1_555
C8B H6B 1_555 1_555
H7B C8B 1_555 1_555
C9B O3 1_555 1_555
H8B C9B 1_555 1_555
H9B C9B 1_555 1_555
Co1F O1D 1_555 1_555
Co1_2 N2B 1_555 1_555
N1B C5B 1_555 1_555
N2B C5B 1_555 1_555
N2B_2 Co1 1_555 1_555
O1D C1D 1_555 1_555
O1B Co1 1_555 1_555
O2D C1D 1_555 1_555
O2B Co1 1_555 1_555
C6 N2 1_555 1_555
C7 N1 1_555 1_555
C8 N1 1_555 1_555
Co1 O1 1_555 1_555
Co1 O2 1_555 1_555
C2D C4D 1_555 1_555
C6B N2B 1_555 1_555
C7B N1B 1_555 1_555
C8B C9B 1_555 1_555
C8B N1B 1_555 1_555
Co1F O2D 1_555 1_555

#END
