
#######################################################################
#
#                 Cambridge Crystallographic Data Centre
#                                CCDC 
#
#######################################################################
#
# If this CIF has been generated from an entry in the Cambridge 
# Structural Database, then it will include bibliographic, chemical, 
# crystal, experimental, refinement or atomic coordinate data resulting 
# from the CCDC's data processing and validation procedures.
#
#######################################################################

data_POCTIL
_symmetry_cell_setting           triclinic
_symmetry_space_group_name_H-M   'P -1'
_symmetry_Int_Tables_number      2
_space_group_name_Hall           '-P 1'
loop_
_symmetry_equiv_pos_site_id
_symmetry_equiv_pos_as_xyz
1 x,y,z
2 -x,-y,-z
_cell_length_a                   10.650(2)
_cell_length_b                   10.969(2)
_cell_length_c                   11.246(2)
_cell_angle_alpha                111.27(3)
_cell_angle_beta                 95.99(3)
_cell_angle_gamma                117.55(3)
_cell_volume                     1024.87
loop_
_atom_site_label
_atom_site_type_symbol
_atom_site_fract_x
_atom_site_fract_y
_atom_site_fract_z
C1 C 0.6627(4) 0.7169(4) 0.4583(4)
C2 C 0.7502(4) 0.6400(4) 0.4404(3)
C3 C 0.6772(4) 0.4861(4) 0.4178(4)
H1 H 0.5811 0.4384 0.4231
C4 C 0.7464(4) 0.4036(4) 0.3877(4)
C5 C 0.8874(3) 0.4731(4) 0.3731(3)
H2 H 0.9318 0.4164 0.3472
C6 C 0.9618(3) 0.6271(4) 0.3973(3)
C7 C 0.8954(4) 0.7117(4) 0.4353(3)
H3 H 0.9480 0.8165 0.4575
C8 C 0.6663(4) 0.2401(4) 0.3715(4)
C9 C 1.1153(4) 0.7017(4) 0.3814(3)
C10 C 0.1591(4) -0.0982(5) 0.1361(4)
H4 H 0.0890 -0.0936 0.1772
C11 C 0.3565(5) -0.0861(5) 0.1022(4)
H5 H 0.4513 -0.0710 0.1165
C12 C 0.2636(5) -0.1323(5) -0.0179(4)
H6 H 0.2818 -0.1547 -0.0999
C13 C 0.0014(4) -0.1913(5) -0.0950(4)
H7 H -0.0597 -0.3040 -0.1407
H8 H -0.0554 -0.1545 -0.0484
C14 C 0.0304(4) -0.1349(5) -0.1997(4)
H9 H 0.0768 -0.1807 -0.2543
H10 H -0.0636 -0.1663 -0.2590
C15 C 0.1770(5) 0.0890(5) -0.2244(4)
H11 H 0.1004 0.0954 -0.2716
H12 H 0.1969 0.0205 -0.2908
C16 C 0.3176(5) 0.2476(5) -0.1441(5)
H13 H 0.3909 0.2396 -0.0941
H14 H 0.3587 0.2842 -0.2060
C17 C 0.3515(4) 0.4332(4) 0.0861(4)
H15 H 0.4102 0.4135 0.1339
C18 C 0.2268(6) 0.5247(6) 0.0391(5)
H16 H 0.1821 0.5816 0.0481
C19 C 0.2146(7) 0.4199(7) -0.0804(5)
H17 H 0.1619 0.3927 -0.1666
Co1 Co 0.37490(5) 0.67809(5) 0.34729(5)
Co2 Co 0.37859(5) 0.00954(5) 0.40830(5)
H18 H 0.550(5) 0.926(5) 0.337(4)
N1 N 0.2908(3) -0.0645(4) 0.2005(3)
N2 N 0.1384(4) -0.1395(4) 0.0050(3)
N3 N 0.2948(4) 0.3628(4) -0.0486(3)
N4 N 0.3139(3) 0.5340(4) 0.1432(3)
O1 O 0.5267(3) 0.6254(3) 0.3824(3)
O2 O 0.7253(3) 0.8572(3) 0.5373(3)
O3 O 0.5693(2) 0.2111(3) 0.4330(2)
O4 O 0.6961(3) 0.1467(3) 0.3036(3)
O5 O 1.1631(3) 0.6131(3) 0.3362(3)
O6 O 1.1799(3) 0.8412(3) 0.4109(3)
O7 O 0.4974(3) 0.8974(3) 0.3843(3)
O8 O 0.1269(3) 0.0300(3) -0.1334(3)
Co1A Co 0.62510(5) 0.32191(5) 0.65271(5)
Co1_2 Co 1.37490(5) 0.67809(5) 0.34729(5)
Co2A Co 0.62141(5) 0.99046(5) 0.59170(5)
Co2_2 Co 1.37859(5) 1.00954(5) 0.40830(5)
Co2_3 Co 0.37859(5) 1.00954(5) 0.40830(5)
H18_2 H 0.550(5) -0.074(5) 0.337(4)
H18A H 0.450(5) 0.074(5) 0.663(4)
O2A O 0.2747(3) 0.1428(3) 0.4627(3)
O3A O 0.4307(2) 0.7889(3) 0.5670(2)
O5_2 O 0.1631(3) 0.6131(3) 0.3362(3)
O6_2 O 0.1799(3) -0.1588(3) 0.4109(3)
O7_2 O 0.4974(3) -0.1026(3) 0.3843(3)
O7A O 0.5026(3) 0.1026(3) 0.6157(3)
loop_
_geom_bond_atom_site_label_1
_geom_bond_atom_site_label_2
_geom_bond_site_symmetry_1
_geom_bond_site_symmetry_2
C1 C2 1_555 1_555
C2 C3 1_555 1_555
C3 H1 1_555 1_555
C4 C3 1_555 1_555
C5 C4 1_555 1_555
H2 C5 1_555 1_555
C6 C5 1_555 1_555
C7 C2 1_555 1_555
H3 C7 1_555 1_555
C8 C4 1_555 1_555
C9 C6 1_555 1_555
C10 H4 1_555 1_555
C11 H5 1_555 1_555
C12 C11 1_555 1_555
H6 C12 1_555 1_555
C13 H7 1_555 1_555
H8 C13 1_555 1_555
C14 C13 1_555 1_555
H9 C14 1_555 1_555
H10 C14 1_555 1_555
C15 H11 1_555 1_555
H12 C15 1_555 1_555
C16 C15 1_555 1_555
H13 C16 1_555 1_555
H14 C16 1_555 1_555
C17 H15 1_555 1_555
C18 H16 1_555 1_555
C19 C18 1_555 1_555
H17 C19 1_555 1_555
Co1 N4 1_555 1_555
Co2 N1 1_555 1_555
H18 O7 1_555 1_555
N1 C10 1_555 1_555
N2 C10 1_555 1_555
N3 C16 1_555 1_555
N4 C17 1_555 1_555
O1 C1 1_555 1_555
O2 C1 1_555 1_555
O3 C8 1_555 1_555
O4 C8 1_555 1_555
O5 C9 1_555 1_555
O6 C9 1_555 1_555
O7 Co1 1_555 1_555
O8 C14 1_555 1_555
Co1A O3 1_555 1_555
Co1_2 O5 1_555 1_555
Co2A O2 1_555 1_555
Co2_2 O6 1_555 1_555
Co2_3 O7 1_555 1_555
H18_2 O7_2 1_555 1_555
H18A O7A 1_555 1_555
O2A Co2 1_555 1_555
O3A Co1 1_555 1_555
O5_2 Co1 1_555 1_555
O6_2 Co2 1_555 1_555
O7_2 Co2 1_555 1_555
O7A Co2 1_555 1_555
C6 C7 1_555 1_555
C11 N1 1_555 1_555
C12 N2 1_555 1_555
C13 N2 1_555 1_555
C15 O8 1_555 1_555
C17 N3 1_555 1_555
C18 N4 1_555 1_555
C19 N3 1_555 1_555
Co1 O1 1_555 1_555
Co2 O3 1_555 1_555
O7 Co2A 1_555 1_555
Co1A O7A 1_555 1_555
Co2A O3A 1_555 1_555

#END
