
#######################################################################
#
#                 Cambridge Crystallographic Data Centre
#                                CCDC 
#
#######################################################################
#
# If this CIF has been generated from an entry in the Cambridge 
# Structural Database, then it will include bibliographic, chemical, 
# crystal, experimental, refinement or atomic coordinate data resulting 
# from the CCDC's data processing and validation procedures.
#
#######################################################################

data_POCVAF01
_symmetry_cell_setting           triclinic
_symmetry_space_group_name_H-M   'P -1'
_symmetry_Int_Tables_number      2
_space_group_name_Hall           '-P 1'
loop_
_symmetry_equiv_pos_site_id
_symmetry_equiv_pos_as_xyz
1 x,y,z
2 -x,-y,-z
_cell_length_a                   8.5350(5)
_cell_length_b                   10.2740(6)
_cell_length_c                   10.8080(7)
_cell_angle_alpha                98.5590(10)
_cell_angle_beta                 100.1220(10)
_cell_angle_gamma                94.8860(10)
_cell_volume                     916.544
loop_
_atom_site_label
_atom_site_type_symbol
_atom_site_fract_x
_atom_site_fract_y
_atom_site_fract_z
Cd1 Cd 0.51093(3) 0.31854(3) 0.38108(3)
C1 C 0.6145(5) -0.2284(4) 0.0469(4)
H1 H 0.6317 -0.2438 -0.0364
C2 C 0.5999(5) -0.1018(4) 0.1038(4)
H2 H 0.6112 -0.0314 0.0598
C3 C 0.5682(4) -0.0787(3) 0.2272(4)
C4 C 0.5613(4) -0.1825(3) 0.2952(4)
H3 H 0.5442 -0.1670 0.3786
C5 C 0.5394(4) 0.0593(4) 0.2832(4)
C6 C 0.7794(5) 0.1983(4) 0.5667(4)
H4 H 0.7168 0.1167 0.5473
C7 C 0.8631(5) 0.4010(4) 0.5711(4)
H5 H 0.8692 0.4873 0.5542
C8 C 0.9755(5) 0.3529(4) 0.6492(4)
H6 H 1.0708 0.3989 0.6967
C9 C 0.9995(5) 0.1302(4) 0.7198(5)
H7 H 1.1110 0.1643 0.7525
H8 H 0.9963 0.0457 0.6651
C10 C 0.9188(6) 0.1099(5) 0.8287(5)
H9 H 0.8048 0.0853 0.7978
H10 H 0.9618 0.0388 0.8689
C11 C 0.8226(5) 0.2408(6) 0.9910(5)
H11 H 0.8001 0.1586 1.0220
H12 H 0.7252 0.2587 0.9382
N1 N 0.9220(4) 0.2227(3) 0.6453(3)
N2 N 0.7387(4) 0.3048(3) 0.5201(3)
O1 O 0.5907(3) 0.1543(2) 0.2332(3)
O2 O 0.4663(3) 0.0723(2) 0.3736(3)
O3 O 0.9449(4) 0.2285(3) 0.9181(3)
C12 C 0.5797(4) -0.3097(3) 0.2395(4)
C13 C 0.5743(5) -0.4239(4) 0.3126(4)
C14 C 0.6033(5) -0.3325(4) 0.1139(4)
H13 H 0.6116 -0.4181 0.0751
O4 O 0.5606(4) -0.5384(3) 0.2483(3)
O5 O 0.5836(4) -0.4016(3) 0.4298(3)
N3 N 1.0045(4) 0.3174(3) 1.1951(3)
C15 C 0.9838(6) 0.2450(5) 1.2884(5)
H14 H 0.8869 0.2106 1.3053
C16 C 0.8760(5) 0.3512(5) 1.1006(5)
H15 H 0.9135 0.4298 1.0697
H16 H 0.7857 0.3712 1.1407
N4 N 1.2446(4) 0.2975(3) 1.2977(3)
C17 C 1.1629(5) 0.3467(4) 1.2051(4)
H17 H 1.2090 0.3961 1.1526
C18 C 1.1317(5) 0.2332(4) 1.3511(4)
H18 H 1.1540 0.1886 1.4198
Cd1_2 Cd 0.51093(3) -0.68146(3) 0.38108(3)
Cd1A Cd 0.48907(3) -0.31854(3) 0.61892(3)
Cd1_3 Cd 1.51093(3) 0.31854(3) 1.38108(3)
O4_2 O 0.5606(4) 0.4616(3) 0.2483(3)
O5A O 0.4164(4) 0.4016(3) 0.5702(3)
N4_2 N 0.2446(4) 0.2975(3) 0.2977(3)
loop_
_geom_bond_atom_site_label_1
_geom_bond_atom_site_label_2
_geom_bond_site_symmetry_1
_geom_bond_site_symmetry_2
Cd1 N2 1_555 1_555
C1 H1 1_555 1_555
C2 C1 1_555 1_555
H2 C2 1_555 1_555
C3 C2 1_555 1_555
C4 C3 1_555 1_555
H3 C4 1_555 1_555
C5 C3 1_555 1_555
C6 H4 1_555 1_555
C7 H5 1_555 1_555
C8 C7 1_555 1_555
H6 C8 1_555 1_555
C9 H7 1_555 1_555
H8 C9 1_555 1_555
C10 C9 1_555 1_555
H9 C10 1_555 1_555
H10 C10 1_555 1_555
C11 H11 1_555 1_555
H12 C11 1_555 1_555
N1 C6 1_555 1_555
N2 C6 1_555 1_555
O1 Cd1 1_555 1_555
O2 Cd1 1_555 1_555
O3 C10 1_555 1_555
C12 C4 1_555 1_555
C13 C12 1_555 1_555
C14 C1 1_555 1_555
H13 C14 1_555 1_555
O4 C13 1_555 1_555
O5 C13 1_555 1_555
N3 C15 1_555 1_555
C15 H14 1_555 1_555
C16 C11 1_555 1_555
H15 C16 1_555 1_555
H16 C16 1_555 1_555
N4 C17 1_555 1_555
C17 N3 1_555 1_555
H17 C17 1_555 1_555
C18 C15 1_555 1_555
H18 C18 1_555 1_555
Cd1_2 O4 1_555 1_555
Cd1A O5 1_555 1_555
Cd1_3 N4 1_555 1_555
O4_2 Cd1 1_555 1_555
O5A Cd1 1_555 1_555
N4_2 Cd1 1_555 1_555
C5 O1 1_555 1_555
C5 O2 1_555 1_555
C7 N2 1_555 1_555
C8 N1 1_555 1_555
C9 N1 1_555 1_555
C11 O3 1_555 1_555
C12 C14 1_555 1_555
N3 C16 1_555 1_555
N4 C18 1_555 1_555

#END
