
#######################################################################
#
#                 Cambridge Crystallographic Data Centre
#                                CCDC 
#
#######################################################################
#
# If this CIF has been generated from an entry in the Cambridge 
# Structural Database, then it will include bibliographic, chemical, 
# crystal, experimental, refinement or atomic coordinate data resulting 
# from the CCDC's data processing and validation procedures.
#
#######################################################################

data_PODDES
_symmetry_cell_setting           orthorhombic
_symmetry_space_group_name_H-M   'P b c n'
_symmetry_Int_Tables_number      60
_space_group_name_Hall           '-P 2n 2ab'
loop_
_symmetry_equiv_pos_site_id
_symmetry_equiv_pos_as_xyz
1 x,y,z
2 1/2-x,1/2-y,1/2+z
3 1/2+x,1/2-y,-z
4 -x,y,1/2-z
5 -x,-y,-z
6 1/2+x,1/2+y,1/2-z
7 1/2-x,1/2+y,z
8 x,-y,1/2+z
_cell_length_a                   24.892(5)
_cell_length_b                   9.6788(19)
_cell_length_c                   20.570(4)
_cell_angle_alpha                90
_cell_angle_beta                 90
_cell_angle_gamma                90
_cell_volume                     4955.82
loop_
_atom_site_label
_atom_site_type_symbol
_atom_site_fract_x
_atom_site_fract_y
_atom_site_fract_z
C1 C 0.65678(15) 0.5675(4) 0.0715(2)
H1 H 0.6941 0.5712 0.0703
C2 C 0.62827(16) 0.6894(4) 0.0660(2)
H2 H 0.6463 0.7724 0.0595
C3 C 0.57373(15) 0.6876(4) 0.0703(2)
H3 H 0.5543 0.7694 0.0677
C4 C 0.54717(13) 0.5610(3) 0.07865(15)
C5 C 0.57881(12) 0.4417(3) 0.08090(14)
C6 C 0.55292(13) 0.3063(3) 0.08521(15)
C7 C 0.56172(16) 0.0698(4) 0.0865(2)
H4 H 0.5836 -0.0081 0.0860
C8 C 0.50661(17) 0.0505(4) 0.0877(2)
H5 H 0.4921 -0.0380 0.0882
C9 C 0.47405(15) 0.1639(4) 0.08823(19)
H6 H 0.4369 0.1532 0.0893
C10 C 0.49675(14) 0.2968(4) 0.08706(16)
C11 C 0.46443(13) 0.4221(4) 0.08753(15)
C12 C 0.48953(13) 0.5508(4) 0.08373(15)
C13 C 0.40736(16) 0.6557(5) 0.08787(19)
H7 H 0.3860 0.7345 0.0882
C14 C 0.38302(16) 0.5282(5) 0.0914(2)
H8 H 0.3457 0.5245 0.0939
C15 C 0.69588(13) 0.0897(4) -0.02333(16)
C16 C 0.69894(13) 0.0257(4) -0.08855(15)
C17 C 0.72329(15) 0.0956(4) -0.13975(17)
H9 H 0.7392 0.1811 -0.1324
C18 C 0.72396(16) 0.0393(4) -0.20117(16)
H10 H 0.7419 0.0847 -0.2346
C19 C 0.69776(13) -0.0860(3) -0.21360(15)
C20 C 0.69349(13) -0.1419(4) -0.28198(16)
C21 C 0.67458(12) -0.1558(3) -0.16251(16)
H11 H 0.6579 -0.2403 -0.1700
C22 C 0.67572(13) -0.1023(4) -0.10048(15)
H12 H 0.6608 -0.1522 -0.0663
N1 N 0.58518(11) 0.1940(3) 0.08594(14)
N2 N 0.63335(10) 0.4458(3) 0.07821(13)
N3 N 0.46020(13) 0.6702(4) 0.08400(15)
N4 N 0.41041(12) 0.4096(4) 0.09143(15)
O1 O 0.68214(10) 0.0179(3) 0.02497(12)
O2 O 0.70501(12) 0.2175(3) -0.01690(13)
O3 O 0.70885(13) -0.0687(3) -0.32860(11)
O4 O 0.67438(11) -0.2584(3) -0.29114(13)
O5 O 0.75907(10) 0.3467(3) 0.10317(13)
Cd1 Cd 0.679116(9) 0.23049(2) 0.092620(10)
H17 H 0.7697(17) 0.391(4) 0.0701(15)
H18 H 0.7625(16) 0.405(3) 0.1329(15)
C1G C 0.65678(15) -0.5675(4) 0.5715(2)
H1G H 0.6941 -0.5712 0.5703
C2G C 0.62827(16) -0.6894(4) 0.5660(2)
H2G H 0.6463 -0.7724 0.5595
C3G C 0.57373(15) -0.6876(4) 0.5703(2)
H3G H 0.5543 -0.7694 0.5677
C4G C 0.54717(13) -0.5610(3) 0.57865(15)
C5G C 0.57881(12) -0.4417(3) 0.58090(14)
C6G C 0.55292(13) -0.3063(3) 0.58521(15)
C7G C 0.56172(16) -0.0698(4) 0.5865(2)
H4G H 0.5836 0.0081 0.5860
C8G C 0.50661(17) -0.0505(4) 0.5877(2)
H5G H 0.4921 0.0380 0.5882
C9G C 0.47405(15) -0.1639(4) 0.58823(19)
H6G H 0.4369 -0.1532 0.5893
C10G C 0.49675(14) -0.2968(4) 0.58706(16)
C11G C 0.46443(13) -0.4221(4) 0.58753(15)
C12G C 0.48953(13) -0.5508(4) 0.58373(15)
C13G C 0.40736(16) -0.6557(5) 0.58787(19)
H7G H 0.3860 -0.7345 0.5882
C14G C 0.38302(16) -0.5282(5) 0.5914(2)
H8G H 0.3457 -0.5245 0.5939
C15G C 0.69588(13) -0.0897(4) 0.47667(16)
C16G C 0.69894(13) -0.0257(4) 0.41145(15)
C17G C 0.72329(15) -0.0956(4) 0.36025(17)
H9G H 0.7392 -0.1811 0.3676
C18G C 0.72396(16) -0.0393(4) 0.29883(16)
H10G H 0.7419 -0.0847 0.2654
C19G C 0.69776(13) 0.0860(3) 0.28640(15)
C20G C 0.69349(13) 0.1419(4) 0.21802(16)
C21G C 0.67458(12) 0.1558(3) 0.33749(16)
H11G H 0.6579 0.2403 0.3300
C22G C 0.67572(13) 0.1023(4) 0.39952(15)
H12G H 0.6608 0.1522 0.4337
N1G N 0.58518(11) -0.1940(3) 0.58594(14)
N2G N 0.63335(10) -0.4458(3) 0.57821(13)
N3G N 0.46020(13) -0.6702(4) 0.58400(15)
N4G N 0.41041(12) -0.4096(4) 0.59143(15)
O1G O 0.68214(10) -0.0179(3) 0.52497(12)
O2G O 0.70501(12) -0.2175(3) 0.48310(13)
O3G O 0.70885(13) 0.0687(3) 0.17140(11)
O3_2 O 0.70885(13) -0.0687(3) 0.67140(11)
O4G O 0.67438(11) 0.2584(3) 0.20886(13)
O4_2 O 0.67438(11) -0.2584(3) 0.70886(13)
O5G O 0.75907(10) -0.3467(3) 0.60317(13)
Cd1G Cd 0.679116(9) -0.23049(2) 0.592620(10)
Cd1G_2 Cd 0.679116(9) -0.23049(2) -0.407380(10)
H17G H 0.7697(17) -0.391(4) 0.5701(15)
H18G H 0.7625(16) -0.405(3) 0.6329(15)
C23 C 0.52939(18) 0.6653(5) 0.2470(2)
C24 C 0.55701(19) 0.7927(5) 0.2441(2)
C25 C 0.6121(2) 0.7892(7) 0.2378(3)
H13 H 0.6314 0.8711 0.2342
C26 C 0.6382(3) 0.6661(8) 0.2371(3)
H14 H 0.6755 0.6631 0.2344
C27 C 0.6087(3) 0.5449(8) 0.2404(3)
H15 H 0.6272 0.4615 0.2390
C28 C 0.52877(19) 0.9203(5) 0.2476(2)
C29 C 0.5273(3) 1.1599(7) 0.2480(3)
H16 H 0.5450 1.2444 0.2466
N5 N 0.55430(19) 0.5407(5) 0.24562(19)
N6 N 0.5578(2) 1.0399(5) 0.2457(2)
C23C C 0.47061(18) 0.6653(5) 0.2530(2)
C24C C 0.44299(19) 0.7927(5) 0.2559(2)
C25C C 0.3879(2) 0.7892(7) 0.2622(3)
H13C H 0.3686 0.8711 0.2658
C26C C 0.3618(3) 0.6661(8) 0.2629(3)
H14C H 0.3245 0.6631 0.2656
C27C C 0.3913(3) 0.5449(8) 0.2596(3)
H15C H 0.3728 0.4615 0.2610
C28C C 0.47123(19) 0.9203(5) 0.2524(2)
C29C C 0.4727(3) 1.1599(7) 0.2520(3)
H16C H 0.4550 1.2444 0.2534
N5C N 0.44570(19) 0.5407(5) 0.25438(19)
N6C N 0.4422(2) 1.0399(5) 0.2543(2)
loop_
_geom_bond_atom_site_label_1
_geom_bond_atom_site_label_2
_geom_bond_site_symmetry_1
_geom_bond_site_symmetry_2
C1 H1 1_555 1_555
C2 C1 1_555 1_555
H2 C2 1_555 1_555
C3 C2 1_555 1_555
H3 C3 1_555 1_555
C4 C3 1_555 1_555
C5 C4 1_555 1_555
C6 C5 1_555 1_555
C7 H4 1_555 1_555
C8 C7 1_555 1_555
H5 C8 1_555 1_555
C9 C8 1_555 1_555
H6 C9 1_555 1_555
C10 C6 1_555 1_555
C11 C10 1_555 1_555
C12 C4 1_555 1_555
C13 H7 1_555 1_555
C14 C13 1_555 1_555
H8 C14 1_555 1_555
C15 C16 1_555 1_555
C16 C17 1_555 1_555
C17 H9 1_555 1_555
C18 C17 1_555 1_555
H10 C18 1_555 1_555
C19 C18 1_555 1_555
C20 C19 1_555 1_555
C21 C19 1_555 1_555
H11 C21 1_555 1_555
C22 C16 1_555 1_555
H12 C22 1_555 1_555
C23 C24 1_555 1_555
C24 C25 1_555 1_555
C25 H13 1_555 1_555
C26 C25 1_555 1_555
H14 C26 1_555 1_555
C27 C26 1_555 1_555
H15 C27 1_555 1_555
C28 C24 1_555 1_555
C29 H16 1_555 1_555
N1 C6 1_555 1_555
N2 C1 1_555 1_555
N3 C12 1_555 1_555
N4 C11 1_555 1_555
N5 C23 1_555 1_555
N6 C28 1_555 1_555
O1 C15 1_555 1_555
O2 C15 1_555 1_555
O3 C20 1_555 1_555
O4 C20 1_555 1_555
O5 Cd1 1_555 1_555
Cd1 N1 1_555 1_555
H17 O5 1_555 1_555
H18 O5 1_555 1_555
C1G H1G 1_555 1_555
C2G C1G 1_555 1_555
H2G C2G 1_555 1_555
C3G C2G 1_555 1_555
H3G C3G 1_555 1_555
C4G C3G 1_555 1_555
C5G C4G 1_555 1_555
C6G C5G 1_555 1_555
C7G H4G 1_555 1_555
C8G C7G 1_555 1_555
H5G C8G 1_555 1_555
C9G C8G 1_555 1_555
H6G C9G 1_555 1_555
C10G C6G 1_555 1_555
C11G C10G 1_555 1_555
C12G C4G 1_555 1_555
C13G H7G 1_555 1_555
C14G C13G 1_555 1_555
H8G C14G 1_555 1_555
C15G C16G 1_555 1_555
C16G C17G 1_555 1_555
C17G H9G 1_555 1_555
C18G C17G 1_555 1_555
H10G C18G 1_555 1_555
C19G C18G 1_555 1_555
C20G C19G 1_555 1_555
C21G C19G 1_555 1_555
H11G C21G 1_555 1_555
C22G C16G 1_555 1_555
H12G C22G 1_555 1_555
C23C C23 1_555 1_555
C24C C23C 1_555 1_555
C25C C24C 1_555 1_555
H13C C25C 1_555 1_555
C26C C25C 1_555 1_555
H14C C26C 1_555 1_555
C27C C26C 1_555 1_555
H15C C27C 1_555 1_555
C28C C28 1_555 1_555
C29C C29 1_555 1_555
H16C C29C 1_555 1_555
N1G C6G 1_555 1_555
N2G C1G 1_555 1_555
N3G C12G 1_555 1_555
N4G C11G 1_555 1_555
N5C C23C 1_555 1_555
N6C C28C 1_555 1_555
O1G C15G 1_555 1_555
O2G C15G 1_555 1_555
O3G Cd1 1_555 1_555
O3_2 Cd1G 1_555 1_555
O4G Cd1 1_555 1_555
O4_2 Cd1G 1_555 1_555
O5G Cd1G 1_555 1_555
Cd1G N1G 1_555 1_555
Cd1G_2 O3 1_555 1_555
H17G O5G 1_555 1_555
H18G O5G 1_555 1_555
C5 N2 1_555 1_555
C7 N1 1_555 1_555
C9 C10 1_555 1_555
C11 C12 1_555 1_555
C13 N3 1_555 1_555
C14 N4 1_555 1_555
C21 C22 1_555 1_555
C27 N5 1_555 1_555
C29 N6 1_555 1_555
N2 Cd1 1_555 1_555
O1 Cd1 1_555 1_555
O2 Cd1 1_555 1_555
O4 Cd1G_2 1_555 1_555
C5G N2G 1_555 1_555
C7G N1G 1_555 1_555
C9G C10G 1_555 1_555
C11G C12G 1_555 1_555
C13G N3G 1_555 1_555
C14G N4G 1_555 1_555
C20G O3G 1_555 1_555
C20G O4G 1_555 1_555
C21G C22G 1_555 1_555
C24C C28C 1_555 1_555
C27C N5C 1_555 1_555
C29C N6C 1_555 1_555
N2G Cd1G 1_555 1_555
O1G Cd1G 1_555 1_555
O2G Cd1G 1_555 1_555

#END
