
#######################################################################
#
#                 Cambridge Crystallographic Data Centre
#                                CCDC 
#
#######################################################################
#
# If this CIF has been generated from an entry in the Cambridge 
# Structural Database, then it will include bibliographic, chemical, 
# crystal, experimental, refinement or atomic coordinate data resulting 
# from the CCDC's data processing and validation procedures.
#
#######################################################################

data_PODNUS
_symmetry_cell_setting           triclinic
_symmetry_space_group_name_H-M   'P -1'
_symmetry_Int_Tables_number      2
_space_group_name_Hall           '-P 1'
loop_
_symmetry_equiv_pos_site_id
_symmetry_equiv_pos_as_xyz
1 x,y,z
2 -x,-y,-z
_cell_length_a                   6.6222(2)
_cell_length_b                   9.4831(2)
_cell_length_c                   20.5543(7)
_cell_angle_alpha                91.3625(9)
_cell_angle_beta                 98.9233(12)
_cell_angle_gamma                94.5506(14)
_cell_volume                     1270.29
loop_
_atom_site_label
_atom_site_type_symbol
_atom_site_fract_x
_atom_site_fract_y
_atom_site_fract_z
La1 La 0.350060(19) 0.626183(13) 0.260635(6)
O1 O 0.0077(3) 0.46884(18) 0.26311(9)
H1 H -0.0852 0.4652 0.2261
H2 H 0.0051 0.3803 0.2775
O2 O 0.2021(3) 0.53923(18) 0.13794(8)
H3 H 0.2204 0.6059 0.1086
H4 H 0.0658 0.5181 0.1330
O3 O 0.7149(3) 0.62057(18) 0.33006(9)
H5 H 0.7390 0.6036 0.3733
H6 H 0.8015 0.5759 0.3089
O4 O 0.3574(3) 0.48964(18) 0.36443(8)
H7 H 0.2509 0.4613 0.3846
H8 H 0.4528 0.4317 0.3801
O5 O 0.5018(3) 0.87634(19) 0.27588(10)
H9 H 0.6348 0.8892 0.2714
H10 H 0.4537 0.9618 0.2795
O6 O 0.1858(3) 0.75198(19) 0.35132(9)
H11 H 0.1665 0.7284 0.3922
H12 H 0.0829 0.8045 0.3361
O7 O 0.4731(3) 0.38597(19) 0.23513(9)
H13 H 0.4338 0.2984 0.2466
H14 H 0.5322 0.3783 0.1988
O8 O 0.6125(3) 0.66463(18) 0.18586(8)
O9 O 0.7754(3) 0.48980(17) 0.14696(8)
C1 C 0.7121(3) 0.6128(2) 0.14540(12)
C2 C 0.7458(3) 0.7009(2) 0.08698(12)
C3 C 0.7107(4) 0.6315(3) 0.02621(12)
H15 H 0.6983 0.5310 0.0238
C4 C 0.6929(4) 0.7062(3) -0.03237(12)
H16 H 0.6697 0.6568 -0.0739
C5 C 0.7093(4) 0.8519(3) -0.02874(12)
C6 C 0.6766(4) 0.9289(3) -0.09014(12)
O10 O 0.6291(3) 0.8781(2) -0.14444(9)
O11 O 0.7046(3) 1.07743(19) -0.08489(9)
C7 C 0.7532(4) 1.1547(3) -0.02622(12)
O12 O 0.7687(3) 1.28135(19) -0.02948(9)
C8 C 0.7817(4) 1.0772(3) 0.03547(12)
C9 C 0.8325(4) 1.1514(3) 0.09482(12)
H17 H 0.8393 1.2519 0.0963
C10 C 0.8742(4) 1.0775(3) 0.15338(12)
H18 H 0.9133 1.1293 0.1941
C11 C 0.8593(3) 0.9311(2) 0.15282(12)
C12 C 0.7879(3) 0.8512(2) 0.09261(12)
C13 C 0.7595(3) 0.9268(2) 0.03309(12)
C14 C 0.9505(3) 0.8630(2) 0.21573(12)
O13 O 1.0630(3) 0.76474(17) 0.20851(8)
O14 O 0.9187(3) 0.91326(17) 0.27005(8)
La1_2 La -0.649940(19) 0.626183(13) 0.260635(6)
La1_3 La 1.350060(19) 0.626183(13) 0.260635(6)
O1_2 O -0.9923(3) 0.46884(18) 0.26311(9)
H1_2 H -1.0852 0.4652 0.2261
H2_2 H -0.9949 0.3803 0.2775
O2_2 O -0.7979(3) 0.53923(18) 0.13794(8)
H3_2 H -0.7796 0.6059 0.1086
H4_2 H -0.9342 0.5181 0.1330
O3_2 O -0.2851(3) 0.62057(18) 0.33006(9)
H5_2 H -0.2610 0.6036 0.3733
H6_2 H -0.1985 0.5759 0.3089
O4_2 O -0.6426(3) 0.48964(18) 0.36443(8)
H7_2 H -0.7491 0.4613 0.3846
H8_2 H -0.5472 0.4317 0.3801
O5_2 O -0.4982(3) 0.87634(19) 0.27588(10)
H9_2 H -0.3652 0.8892 0.2714
H10_2 H -0.5463 0.9618 0.2795
O6_2 O -0.8142(3) 0.75198(19) 0.35132(9)
H11_2 H -0.8335 0.7284 0.3922
H12_2 H -0.9171 0.8045 0.3361
O7_2 O -0.5269(3) 0.38597(19) 0.23513(9)
H13_2 H -0.5662 0.2984 0.2466
H14_2 H -0.4678 0.3783 0.1988
O8_2 O -0.3875(3) 0.66463(18) 0.18586(8)
O9_2 O -0.2246(3) 0.48980(17) 0.14696(8)
C1_2 C -0.2879(3) 0.6128(2) 0.14540(12)
C2_2 C -0.2542(3) 0.7009(2) 0.08698(12)
C3_2 C -0.2893(4) 0.6315(3) 0.02621(12)
H15_2 H -0.3017 0.5310 0.0238
C4_2 C -0.3071(4) 0.7062(3) -0.03237(12)
H16_2 H -0.3303 0.6568 -0.0739
C5_2 C -0.2907(4) 0.8519(3) -0.02874(12)
C6_2 C -0.3234(4) 0.9289(3) -0.09014(12)
O10_2 O -0.3709(3) 0.8781(2) -0.14444(9)
O11_2 O -0.2954(3) 1.07743(19) -0.08489(9)
C7_2 C -0.2468(4) 1.1547(3) -0.02622(12)
O12_2 O -0.2313(3) 1.28135(19) -0.02948(9)
C8_2 C -0.2183(4) 1.0772(3) 0.03547(12)
C9_2 C -0.1675(4) 1.1514(3) 0.09482(12)
H17_2 H -0.1607 1.2519 0.0963
C10_2 C -0.1258(4) 1.0775(3) 0.15338(12)
H18_2 H -0.0867 1.1293 0.1941
C11_2 C -0.1407(3) 0.9311(2) 0.15282(12)
C12_2 C -0.2121(3) 0.8512(2) 0.09261(12)
C13_2 C -0.2405(3) 0.9268(2) 0.03309(12)
C14_2 C -0.0495(3) 0.8630(2) 0.21573(12)
O13_2 O 0.0630(3) 0.76474(17) 0.20851(8)
O13_3 O -0.9370(3) 0.76474(17) 0.20851(8)
O14_2 O -0.0813(3) 0.91326(17) 0.27005(8)
O15 O 0.2382(3) 0.42421(17) 0.52858(8)
H19 H 0.2370 0.5091 0.5099
O16 O 0.0753(2) 0.34637(17) 0.42930(8)
C15 C 0.1451(3) 0.3257(2) 0.48718(12)
C16 C 0.1465(3) 0.1795(2) 0.51287(11)
C17 C 0.3282(4) 0.1463(2) 0.54886(12)
H20 H 0.4300 0.2197 0.5658
C18 C 0.3643(4) 0.0049(2) 0.56082(12)
H21 H 0.4907 -0.0164 0.5857
C19 C 0.2195(3) -0.1034(2) 0.53711(11)
C20 C -0.0188(3) 0.0722(2) 0.49373(11)
C21 C 0.2885(3) -0.2507(2) 0.53914(12)
O17 O 0.2324(2) -0.33054(17) 0.48753(8)
O18 O 0.4019(3) -0.28492(18) 0.58944(9)
O15A O -0.2382(3) -0.42421(17) 0.47142(8)
H19A H -0.2370 -0.5091 0.4901
O16A O -0.0753(2) -0.34637(17) 0.57070(8)
C15A C -0.1451(3) -0.3257(2) 0.51282(12)
C16A C -0.1465(3) -0.1795(2) 0.48713(11)
C17A C -0.3282(4) -0.1463(2) 0.45114(12)
H20A H -0.4300 -0.2197 0.4342
C18A C -0.3643(4) -0.0049(2) 0.43918(12)
H21A H -0.4907 0.0164 0.4143
C19A C -0.2195(3) 0.1034(2) 0.46289(11)
C20A C 0.0188(3) -0.0722(2) 0.50627(11)
C21A C -0.2885(3) 0.2507(2) 0.46086(12)
O17A O -0.2324(2) 0.33054(17) 0.51247(8)
O18A O -0.4019(3) 0.28492(18) 0.41056(9)
O19 O -0.0066(3) 0.19469(19) 0.31360(9)
H22 H -0.0614 0.1053 0.3047
H23 H -0.0046 0.2160 0.3565
O20 O 0.3950(3) 0.14493(19) 0.29958(9)
H24 H 0.4738 0.1758 0.3376
H25 H 0.2649 0.1544 0.3052
loop_
_geom_bond_atom_site_label_1
_geom_bond_atom_site_label_2
_geom_bond_site_symmetry_1
_geom_bond_site_symmetry_2
La1 O1 1_555 1_555
O1 H1 1_555 1_555
H2 O1 1_555 1_555
O2 La1 1_555 1_555
H3 O2 1_555 1_555
H4 O2 1_555 1_555
O3 La1 1_555 1_555
H5 O3 1_555 1_555
H6 O3 1_555 1_555
O4 La1 1_555 1_555
H7 O4 1_555 1_555
H8 O4 1_555 1_555
O5 La1 1_555 1_555
H9 O5 1_555 1_555
H10 O5 1_555 1_555
O6 La1 1_555 1_555
H11 O6 1_555 1_555
H12 O6 1_555 1_555
O7 La1 1_555 1_555
H13 O7 1_555 1_555
H14 O7 1_555 1_555
O8 La1 1_555 1_555
O9 C1 1_555 1_555
C1 O8 1_555 1_555
C2 C1 1_555 1_555
C3 C2 1_555 1_555
H15 C3 1_555 1_555
C4 C3 1_555 1_555
H16 C4 1_555 1_555
C5 C4 1_555 1_555
C6 C5 1_555 1_555
O10 C6 1_555 1_555
O11 C6 1_555 1_555
C7 O11 1_555 1_555
O12 C7 1_555 1_555
C8 C7 1_555 1_555
C9 C8 1_555 1_555
H17 C9 1_555 1_555
C10 C9 1_555 1_555
H18 C10 1_555 1_555
C11 C10 1_555 1_555
C12 C2 1_555 1_555
C13 C5 1_555 1_555
C14 C11 1_555 1_555
O13 C14 1_555 1_555
O14 C14 1_555 1_555
O15 H19 1_555 1_555
O16 C15 1_555 1_555
C15 O15 1_555 1_555
C16 C15 1_555 1_555
C17 C16 1_555 1_555
H20 C17 1_555 1_555
C18 C17 1_555 1_555
H21 C18 1_555 1_555
C19 C18 1_555 1_555
C20 C16 1_555 1_555
C21 C19 1_555 1_555
O17 C21 1_555 1_555
O18 C21 1_555 1_555
O19 H22 1_555 1_555
H23 O19 1_555 1_555
O20 H24 1_555 1_555
H25 O20 1_555 1_555
La1_2 O1_2 1_555 1_555
La1_3 O13 1_555 1_555
O1_2 H1_2 1_555 1_555
H2_2 O1_2 1_555 1_555
O2_2 La1_2 1_555 1_555
H3_2 O2_2 1_555 1_555
H4_2 O2_2 1_555 1_555
O3_2 La1_2 1_555 1_555
H5_2 O3_2 1_555 1_555
H6_2 O3_2 1_555 1_555
O4_2 La1_2 1_555 1_555
H7_2 O4_2 1_555 1_555
H8_2 O4_2 1_555 1_555
O5_2 La1_2 1_555 1_555
H9_2 O5_2 1_555 1_555
H10_2 O5_2 1_555 1_555
O6_2 La1_2 1_555 1_555
H11_2 O6_2 1_555 1_555
H12_2 O6_2 1_555 1_555
O7_2 La1_2 1_555 1_555
H13_2 O7_2 1_555 1_555
H14_2 O7_2 1_555 1_555
O8_2 La1_2 1_555 1_555
O9_2 C1_2 1_555 1_555
C1_2 O8_2 1_555 1_555
C2_2 C1_2 1_555 1_555
C3_2 C2_2 1_555 1_555
H15_2 C3_2 1_555 1_555
C4_2 C3_2 1_555 1_555
H16_2 C4_2 1_555 1_555
C5_2 C4_2 1_555 1_555
C6_2 C5_2 1_555 1_555
O10_2 C6_2 1_555 1_555
O11_2 C6_2 1_555 1_555
C7_2 O11_2 1_555 1_555
O12_2 C7_2 1_555 1_555
C8_2 C7_2 1_555 1_555
C9_2 C8_2 1_555 1_555
H17_2 C9_2 1_555 1_555
C10_2 C9_2 1_555 1_555
H18_2 C10_2 1_555 1_555
C11_2 C10_2 1_555 1_555
C12_2 C2_2 1_555 1_555
C13_2 C5_2 1_555 1_555
C14_2 C11_2 1_555 1_555
O13_2 La1 1_555 1_555
O13_3 La1_2 1_555 1_555
O14_2 C14_2 1_555 1_555
O15A H19A 1_555 1_555
O16A C15A 1_555 1_555
C15A O15A 1_555 1_555
C16A C15A 1_555 1_555
C17A C16A 1_555 1_555
H20A C17A 1_555 1_555
C18A C17A 1_555 1_555
H21A C18A 1_555 1_555
C19A C20 1_555 1_555
C20A C19 1_555 1_555
C21A C19A 1_555 1_555
O17A C21A 1_555 1_555
O18A C21A 1_555 1_555
C8 C13 1_555 1_555
C11 C12 1_555 1_555
C12 C13 1_555 1_555
C20 C20A 1_555 1_555
C8_2 C13_2 1_555 1_555
C11_2 C12_2 1_555 1_555
C12_2 C13_2 1_555 1_555
C14_2 O13_2 1_555 1_555
C16A C20A 1_555 1_555
C18A C19A 1_555 1_555

#END
