
#######################################################################
#
#                 Cambridge Crystallographic Data Centre
#                                CCDC 
#
#######################################################################
#
# If this CIF has been generated from an entry in the Cambridge 
# Structural Database, then it will include bibliographic, chemical, 
# crystal, experimental, refinement or atomic coordinate data resulting 
# from the CCDC's data processing and validation procedures.
#
#######################################################################

data_PODRIL
_symmetry_cell_setting           monoclinic
_symmetry_space_group_name_H-M   'C 2/c'
_symmetry_Int_Tables_number      15
_space_group_name_Hall           '-C 2yn'
loop_
_symmetry_equiv_pos_site_id
_symmetry_equiv_pos_as_xyz
1 x,y,z
2 -x,y,1/2-z
3 1/2+x,1/2+y,z
4 1/2-x,1/2+y,1/2-z
5 -x,-y,-z
6 x,-y,1/2+z
7 1/2-x,1/2-y,-z
8 1/2+x,1/2-y,1/2+z
_cell_length_a                   20.055(4)
_cell_length_b                   9.853(2)
_cell_length_c                   8.9867(18)
_cell_angle_alpha                90
_cell_angle_beta                 109.32(3)
_cell_angle_gamma                90
_cell_volume                     1675.79
loop_
_atom_site_label
_atom_site_type_symbol
_atom_site_fract_x
_atom_site_fract_y
_atom_site_fract_z
Pb1 Pb 0.0000 0.43245(7) 0.7500
S1 S -0.03876(17) 0.3118(3) 0.4272(4)
S2 S 0.06492(18) 0.0831(3) 0.4313(4)
N1 N 0.0666(5) 0.2131(10) 0.6754(12)
N2 N 0.1189(6) 0.1200(12) 0.7288(14)
N3 N 0.2448(6) -0.0202(11) 0.6319(14)
N4 N 0.2540(7) 0.1064(15) 0.586(2)
N5 N 0.3544(7) -0.0112(14) 0.644(2)
C1 C 0.0324(7) 0.2099(13) 0.5225(16)
C2 C 0.1253(8) 0.0440(14) 0.6145(17)
C3 C 0.1774(6) -0.0672(14) 0.6423(18)
H1 H 0.1850 -0.1055 0.7461
H2 H 0.1586 -0.1382 0.5651
C4 C 0.3238(9) 0.1050(18) 0.594(2)
H3 H 0.3465 0.1785 0.5674
C5 C 0.3050(8) -0.0882(17) 0.665(3)
H4 H 0.3114 -0.1779 0.6992
S1A S 0.03876(17) 0.3118(3) 1.0728(4)
S2A S -0.06492(18) 0.0831(3) 1.0687(4)
N1A N -0.0666(5) 0.2131(10) 0.8246(12)
N2A N -0.1189(6) 0.1200(12) 0.7712(14)
N3A N -0.2448(6) -0.0202(11) 0.8681(14)
N4A N -0.2540(7) 0.1064(15) 0.914(2)
N5A N -0.3544(7) -0.0112(14) 0.856(2)
C1A C -0.0324(7) 0.2099(13) 0.9775(16)
C2A C -0.1253(8) 0.0440(14) 0.8855(17)
C3A C -0.1774(6) -0.0672(14) 0.8577(18)
H1A H -0.1850 -0.1055 0.7539
H2A H -0.1586 -0.1382 0.9349
C4A C -0.3238(9) 0.1050(18) 0.906(2)
H3A H -0.3465 0.1785 0.9326
C5A C -0.3050(8) -0.0882(17) 0.835(3)
H4A H -0.3114 -0.1779 0.8008
Pb1B Pb -0.5000 -0.06755(7) 0.7500
Pb1B_2 Pb 0.5000 -0.06755(7) 0.7500
N5B N -0.1456(7) 0.4888(14) 0.644(2)
N5C N 0.1456(7) 0.4888(14) 0.856(2)
loop_
_geom_bond_atom_site_label_1
_geom_bond_atom_site_label_2
_geom_bond_site_symmetry_1
_geom_bond_site_symmetry_2
Pb1 S1 1_555 1_555
S1 C1 1_555 1_555
S2 C1 1_555 1_555
N1 Pb1 1_555 1_555
N2 N1 1_555 1_555
N3 N4 1_555 1_555
N4 C4 1_555 1_555
N5 C4 1_555 1_555
C1 N1 1_555 1_555
C2 S2 1_555 1_555
C3 N3 1_555 1_555
H1 C3 1_555 1_555
H2 C3 1_555 1_555
C4 H3 1_555 1_555
C5 N3 1_555 1_555
H4 C5 1_555 1_555
S1A Pb1 1_555 1_555
S2A C1A 1_555 1_555
N1A Pb1 1_555 1_555
N2A N1A 1_555 1_555
N3A N4A 1_555 1_555
N4A C4A 1_555 1_555
N5A C4A 1_555 1_555
C1A S1A 1_555 1_555
C2A S2A 1_555 1_555
C3A N3A 1_555 1_555
H1A C3A 1_555 1_555
H2A C3A 1_555 1_555
C4A H3A 1_555 1_555
C5A N3A 1_555 1_555
H4A C5A 1_555 1_555
Pb1B N5A 1_555 1_555
Pb1B_2 N5 1_555 1_555
N5B Pb1 1_555 1_555
N5C Pb1 1_555 1_555
N2 C2 1_555 1_555
N5 C5 1_555 1_555
C2 C3 1_555 1_555
N1A C1A 1_555 1_555
N2A C2A 1_555 1_555
N5A C5A 1_555 1_555
C2A C3A 1_555 1_555

#END
