
#######################################################################
#
#                 Cambridge Crystallographic Data Centre
#                                CCDC 
#
#######################################################################
#
# If this CIF has been generated from an entry in the Cambridge 
# Structural Database, then it will include bibliographic, chemical, 
# crystal, experimental, refinement or atomic coordinate data resulting 
# from the CCDC's data processing and validation procedures.
#
#######################################################################

data_PODVOV
_symmetry_cell_setting           triclinic
_symmetry_space_group_name_H-M   'P -1'
_symmetry_Int_Tables_number      2
_space_group_name_Hall           '-P 1'
loop_
_symmetry_equiv_pos_site_id
_symmetry_equiv_pos_as_xyz
1 x,y,z
2 -x,-y,-z
_cell_length_a                   9.053(3)
_cell_length_b                   10.786(3)
_cell_length_c                   13.549(4)
_cell_angle_alpha                81.354(4)
_cell_angle_beta                 74.852(3)
_cell_angle_gamma                68.034(3)
_cell_volume                     1182.28
loop_
_atom_site_label
_atom_site_type_symbol
_atom_site_fract_x
_atom_site_fract_y
_atom_site_fract_z
U1 U 0.58413(4) 0.70959(3) 0.00990(2)
Cu1 Cu 0.14742(12) 0.87110(9) -0.04663(8)
P1 P 0.2431(2) 1.0235(2) 0.09532(16)
P2 P 0.2311(2) 0.6111(2) 0.10406(16)
O1 O 0.4927(7) 0.7427(6) -0.0972(5)
O2 O 0.6757(7) 0.6759(5) 0.1167(4)
O3 O 0.4034(6) 0.9069(5) 0.0748(4)
O4 O 0.1202(6) 1.0085(5) 0.0420(4)
O5 O 0.2628(6) 1.1594(5) 0.0663(4)
O6 O 0.4016(7) 0.6125(6) 0.0979(5)
O7 O 0.1163(7) 0.7429(5) 0.0681(4)
O8 O 0.2402(7) 0.4936(5) 0.0496(4)
N1 N 0.1721(8) 0.7494(7) -0.1522(5)
N2 N 0.2535(8) 0.9602(7) -0.1745(5)
N3 N 0.4034(9) 0.9142(8) -0.3461(6)
N4 N 0.2907(10) 0.7006(8) -0.3270(6)
C1 C 0.1623(15) 1.0190(10) 0.2318(7)
C2 C 0.1471(15) 1.1148(10) 0.2924(7)
H1 H 0.1795 1.1868 0.2629
C3 C 0.0843(15) 1.1075(10) 0.3970(7)
H2 H 0.0755 1.1750 0.4359
C4 C 0.0347(16) 1.0036(11) 0.4452(7)
C5 C 0.0498(15) 0.9094(11) 0.3829(7)
H3 H 0.0200 0.8363 0.4129
C6 C 0.1071(15) 0.9159(11) 0.2769(8)
H4 H 0.1083 0.8521 0.2373
C7 C 0.1502(13) 0.5791(12) 0.2371(8)
C8 C -0.0046(12) 0.6464(12) 0.2884(8)
H5 H -0.0737 0.7157 0.2541
C9 C -0.0609(13) 0.6142(12) 0.3894(8)
H6 H -0.1679 0.6627 0.4208
C10 C 0.0297(13) 0.5165(12) 0.4456(8)
C11 C 0.2030(13) 0.4715(12) 0.3988(8)
H7 H 0.2798 0.4291 0.4385
C12 C 0.2521(13) 0.4932(12) 0.2930(8)
H8 H 0.3589 0.4464 0.2602
C13 C 0.1118(12) 0.6509(9) -0.1376(8)
H9 H 0.0504 0.6344 -0.0738
C14 C 0.1412(13) 0.5732(11) -0.2186(9)
H10 H 0.0983 0.5053 -0.2108
C15 C 0.2348(16) 0.5998(11) -0.3095(8)
H11 H 0.2613 0.5443 -0.3625
C16 C 0.2560(10) 0.7713(8) -0.2462(7)
C17 C 0.2951(10) 1.0697(8) -0.1808(7)
H12 H 0.2575 1.1226 -0.1248
C18 C 0.3926(11) 1.1041(9) -0.2690(7)
H13 H 0.4226 1.1788 -0.2738
C19 C 0.4437(12) 1.0225(10) -0.3500(7)
H14 H 0.5093 1.0439 -0.4102
C20 C 0.3103(11) 0.8892(9) -0.2575(7)
P1A P -0.2431(2) 0.9765(2) 0.90468(16)
O3A O -0.4034(6) 1.0931(5) 0.9252(4)
O4A O -0.1202(6) 0.9915(5) 0.9580(4)
O5A O -0.2628(6) 0.8406(5) 0.9337(4)
C1A C -0.1623(15) 0.9810(10) 0.7682(7)
C2A C -0.1471(15) 0.8852(10) 0.7076(7)
H1A H -0.1795 0.8132 0.7371
C3A C -0.0843(15) 0.8925(10) 0.6030(7)
H2A H -0.0755 0.8250 0.5641
C4A C -0.0347(16) 0.9964(11) 0.5548(7)
C5A C -0.0498(15) 1.0906(11) 0.6171(7)
H3A H -0.0200 1.1637 0.5871
C6A C -0.1071(15) 1.0841(11) 0.7231(8)
H4A H -0.1083 1.1479 0.7627
P2A P -0.2311(2) 0.3889(2) 0.89594(16)
O6A O -0.4016(7) 0.3875(6) 0.9021(5)
O7A O -0.1163(7) 0.2571(5) 0.9319(4)
O8A O -0.2402(7) 0.5064(5) 0.9504(4)
C7A C -0.1502(13) 0.4209(12) 0.7629(8)
C8A C 0.0046(12) 0.3536(12) 0.7116(8)
H5A H 0.0737 0.2843 0.7459
C9A C 0.0609(13) 0.3858(12) 0.6106(8)
H6A H 0.1679 0.3373 0.5792
C10A C -0.0297(13) 0.4835(12) 0.5544(8)
C11A C -0.2030(13) 0.5285(12) 0.6012(8)
H7A H -0.2798 0.5709 0.5615
C12A C -0.2521(13) 0.5068(12) 0.7070(8)
H8A H -0.3589 0.5536 0.7398
U1A U -0.58413(4) 0.29041(3) 0.99010(2)
Cu1A Cu -0.14742(12) 0.12890(9) 1.04663(8)
O1A O -0.4927(7) 0.2573(6) 1.0972(5)
O2A O -0.6757(7) 0.3241(5) 0.8833(4)
N1A N -0.1721(8) 0.2506(7) 1.1522(5)
N2A N -0.2535(8) 0.0398(7) 1.1745(5)
N3A N -0.4034(9) 0.0858(8) 1.3461(6)
N4A N -0.2907(10) 0.2994(8) 1.3270(6)
C13A C -0.1118(12) 0.3491(9) 1.1376(8)
H9A H -0.0504 0.3656 1.0738
C14A C -0.1412(13) 0.4268(11) 1.2186(9)
H10A H -0.0983 0.4947 1.2108
C15A C -0.2348(16) 0.4002(11) 1.3095(8)
H11A H -0.2613 0.4557 1.3625
C16A C -0.2560(10) 0.2287(8) 1.2462(7)
C17A C -0.2951(10) -0.0697(8) 1.1808(7)
H12A H -0.2575 -0.1226 1.1248
C18A C -0.3926(11) -0.1041(9) 1.2690(7)
H13A H -0.4226 -0.1788 1.2738
C19A C -0.4437(12) -0.0225(10) 1.3500(7)
H14A H -0.5093 -0.0439 1.4102
C20A C -0.3103(11) 0.1108(9) 1.2575(7)
U1_2 U -0.41587(4) 0.70959(3) 1.00990(2)
U1A_2 U -0.58413(4) 1.29041(3) 0.99010(2)
U1A_3 U 0.41587(4) 0.29041(3) -0.00990(2)
U1A_4 U 0.41587(4) 1.29041(3) -0.00990(2)
Cu1_2 Cu 0.14742(12) 0.87110(9) 0.95337(8)
Cu1A_2 Cu -0.14742(12) 1.12890(9) 0.04663(8)
Cu1A_3 Cu -0.14742(12) 1.12890(9) 1.04663(8)
O3A_2 O -0.4034(6) 0.0931(5) 0.9252(4)
O4_2 O 0.1202(6) 0.0085(5) 1.0420(4)
O4A_2 O -0.1202(6) -0.0085(5) 0.9580(4)
O4A_3 O -0.1202(6) 0.9915(5) -0.0420(4)
O5_2 O -0.7372(6) 0.1594(5) 1.0663(4)
O5A_2 O 0.7372(6) 0.8406(5) -0.0663(4)
O8_2 O -0.7598(7) 0.4936(5) 1.0496(4)
O8A_2 O 0.7598(7) 0.5064(5) -0.0496(4)
O9 O 0.5165(17) 1.3099(13) -0.4626(10)
loop_
_geom_bond_atom_site_label_1
_geom_bond_atom_site_label_2
_geom_bond_site_symmetry_1
_geom_bond_site_symmetry_2
U1 O1 1_555 1_555
Cu1 O4 1_555 1_555
P1 O3 1_555 1_555
P2 O6 1_555 1_555
O2 U1 1_555 1_555
O3 U1 1_555 1_555
O4 P1 1_555 1_555
O5 P1 1_555 1_555
O6 U1 1_555 1_555
O7 Cu1 1_555 1_555
O8 P2 1_555 1_555
N1 Cu1 1_555 1_555
N2 Cu1 1_555 1_555
N3 C19 1_555 1_555
N4 C15 1_555 1_555
C1 P1 1_555 1_555
C2 C1 1_555 1_555
H1 C2 1_555 1_555
C3 C2 1_555 1_555
H2 C3 1_555 1_555
C4 C3 1_555 1_555
C5 C4 1_555 1_555
H3 C5 1_555 1_555
C6 C1 1_555 1_555
H4 C6 1_555 1_555
C7 P2 1_555 1_555
C8 C7 1_555 1_555
H5 C8 1_555 1_555
C9 C8 1_555 1_555
H6 C9 1_555 1_555
C10 C9 1_555 1_555
C11 C10 1_555 1_555
H7 C11 1_555 1_555
C12 C7 1_555 1_555
H8 C12 1_555 1_555
C13 N1 1_555 1_555
H9 C13 1_555 1_555
C14 C13 1_555 1_555
H10 C14 1_555 1_555
C15 C14 1_555 1_555
H11 C15 1_555 1_555
C16 N1 1_555 1_555
C17 N2 1_555 1_555
H12 C17 1_555 1_555
C18 C17 1_555 1_555
H13 C18 1_555 1_555
C19 C18 1_555 1_555
H14 C19 1_555 1_555
C20 N2 1_555 1_555
P1A O3A 1_555 1_555
O3A U1A_2 1_555 1_555
O4A P1A 1_555 1_555
O5A P1A 1_555 1_555
C1A P1A 1_555 1_555
C2A C1A 1_555 1_555
H1A C2A 1_555 1_555
C3A C2A 1_555 1_555
H2A C3A 1_555 1_555
C4A C4 1_555 1_555
C5A C4A 1_555 1_555
H3A C5A 1_555 1_555
C6A C1A 1_555 1_555
H4A C6A 1_555 1_555
P2A O6A 1_555 1_555
O6A U1A 1_555 1_555
O7A P2A 1_555 1_555
O8A P2A 1_555 1_555
C7A P2A 1_555 1_555
C8A C7A 1_555 1_555
H5A C8A 1_555 1_555
C9A C8A 1_555 1_555
H6A C9A 1_555 1_555
C10A C10 1_555 1_555
C11A C10A 1_555 1_555
H7A C11A 1_555 1_555
C12A C7A 1_555 1_555
H8A C12A 1_555 1_555
U1A O1A 1_555 1_555
Cu1A O7A 1_555 1_555
O2A U1A 1_555 1_555
N1A Cu1A 1_555 1_555
N2A Cu1A 1_555 1_555
N3A C19A 1_555 1_555
N4A C15A 1_555 1_555
C13A N1A 1_555 1_555
H9A C13A 1_555 1_555
C14A C13A 1_555 1_555
H10A C14A 1_555 1_555
C15A C14A 1_555 1_555
H11A C15A 1_555 1_555
C16A N1A 1_555 1_555
C17A N2A 1_555 1_555
H12A C17A 1_555 1_555
C18A C17A 1_555 1_555
H13A C18A 1_555 1_555
C19A C18A 1_555 1_555
H14A C19A 1_555 1_555
C20A N2A 1_555 1_555
U1_2 O5A 1_555 1_555
U1A_3 O8 1_555 1_555
U1A_4 O5 1_555 1_555
Cu1_2 O4A 1_555 1_555
Cu1A_2 O4 1_555 1_555
Cu1A_3 O4A 1_555 1_555
O3A_2 U1A 1_555 1_555
O4_2 Cu1A 1_555 1_555
O4A_2 Cu1A 1_555 1_555
O4A_3 Cu1 1_555 1_555
O5_2 U1A 1_555 1_555
O5A_2 U1 1_555 1_555
O8_2 U1A 1_555 1_555
O8A_2 U1 1_555 1_555
P2 O7 1_555 1_555
N3 C20 1_555 1_555
N4 C16 1_555 1_555
C5 C6 1_555 1_555
C11 C12 1_555 1_555
C16 C20 1_555 1_555
C3A C4A 1_555 1_555
C5A C6A 1_555 1_555
O8A U1_2 1_555 1_555
C9A C10A 1_555 1_555
C11A C12A 1_555 1_555
N3A C20A 1_555 1_555
N4A C16A 1_555 1_555
C16A C20A 1_555 1_555
Cu1A_2 O4A_3 1_555 1_555

#END
