
#######################################################################
#
#                 Cambridge Crystallographic Data Centre
#                                CCDC 
#
#######################################################################
#
# If this CIF has been generated from an entry in the Cambridge 
# Structural Database, then it will include bibliographic, chemical, 
# crystal, experimental, refinement or atomic coordinate data resulting 
# from the CCDC's data processing and validation procedures.
#
#######################################################################

data_POFBES
_symmetry_cell_setting           monoclinic
_symmetry_space_group_name_H-M   'P 2/c'
_symmetry_Int_Tables_number      13
_space_group_name_Hall           '-P 2yc'
loop_
_symmetry_equiv_pos_site_id
_symmetry_equiv_pos_as_xyz
1 x,y,z
2 -x,y,1/2-z
3 -x,-y,-z
4 x,-y,1/2+z
_cell_length_a                   16.127(6)
_cell_length_b                   5.1535(17)
_cell_length_c                   13.405(8)
_cell_angle_alpha                90
_cell_angle_beta                 92.76(2)
_cell_angle_gamma                90
_cell_volume                     1112.8
loop_
_atom_site_label
_atom_site_type_symbol
_atom_site_fract_x
_atom_site_fract_y
_atom_site_fract_z
C1 C 0.63113(17) 0.1232(5) 0.8986(2)
C2 C 0.69938(16) 0.1294(5) 0.82720(19)
C3 C 0.69767(18) -0.0493(6) 0.7480(2)
H1 H 0.6542 -0.1676 0.7419
C4 C 0.7583(2) -0.0552(7) 0.6790(2)
H2 H 0.7554 -0.1729 0.6264
C5 C 0.82372(19) 0.1176(7) 0.6898(2)
H3 H 0.8653 0.1143 0.6441
C6 C 0.82859(18) 0.2944(6) 0.7668(2)
H4 H 0.8733 0.4083 0.7724
C7 C 0.76652(16) 0.3050(5) 0.8376(2)
C8 C 0.83674(18) 0.6789(5) 0.9238(2)
H5 H 0.8186 0.8126 0.9687
H6 H 0.8427 0.7584 0.8590
C9 C 0.92123(18) 0.5803(6) 0.9623(2)
C10 C 0.9299(2) 0.3842(8) 1.0310(3)
H7 H 0.8826 0.3031 1.0530
C11 C 0.9926(2) 0.6965(7) 0.9314(3)
H8 H 0.9888 0.8303 0.8848
Cu1 Cu 0.5000 0.0000 1.0000
N1 N 0.77292(15) 0.4809(5) 0.91439(19)
H9 H 0.7305 0.4913 0.9484
O1 O 0.56996(16) -0.2511(5) 1.07956(19)
H10 H 0.5868 -0.3765 1.0447
H11 H 0.5446 -0.3136 1.1282
O2 O 0.57429(13) -0.0498(4) 0.88572(16)
O3 O 0.62970(13) 0.2785(4) 0.97072(15)
C1B C 1.36887(17) 0.8768(5) 1.1014(2)
C2B C 1.30062(16) 0.8706(5) 1.17280(19)
C3B C 1.30233(18) 1.0493(6) 1.2520(2)
H1B H 1.3458 1.1676 1.2581
C4B C 1.2417(2) 1.0552(7) 1.3210(2)
H2B H 1.2446 1.1729 1.3736
C5B C 1.17628(19) 0.8824(7) 1.3102(2)
H3B H 1.1347 0.8857 1.3559
C6B C 1.17141(18) 0.7056(6) 1.2332(2)
H4B H 1.1267 0.5917 1.2276
C7B C 1.23348(16) 0.6950(5) 1.1624(2)
C8B C 1.16326(18) 0.3211(5) 1.0762(2)
H5B H 1.1814 0.1874 1.0313
H6B H 1.1573 0.2416 1.1410
C9B C 1.07877(18) 0.4197(6) 1.0377(2)
C10B C 1.0701(2) 0.6158(8) 0.9690(3)
H7B H 1.1174 0.6969 0.9470
C11B C 1.0074(2) 0.3035(7) 1.0686(3)
H8B H 1.0112 0.1697 1.1152
Cu1_2 Cu 1.5000 1.0000 1.0000
N1B N 1.22708(15) 0.5191(5) 1.08561(19)
H9B H 1.2695 0.5087 1.0516
O1B O 0.43004(16) 0.2511(5) 0.92044(19)
H10B H 0.4132 0.3765 0.9553
H11B H 0.4554 0.3136 0.8718
O2B O 0.42571(13) 0.0498(4) 1.11428(16)
O2B_2 O 1.42571(13) 1.0498(4) 1.11428(16)
O3B O 0.37030(13) -0.2785(4) 1.02928(15)
O3B_2 O 1.37030(13) 0.7215(4) 1.02928(15)
O4 O 0.5000 0.5811(7) 0.7500
H12 H 0.5284 0.6994 0.7798
H12A H 0.4716 0.6994 0.7202
loop_
_geom_bond_atom_site_label_1
_geom_bond_atom_site_label_2
_geom_bond_site_symmetry_1
_geom_bond_site_symmetry_2
C1 C2 1_555 1_555
C2 C3 1_555 1_555
C3 H1 1_555 1_555
C4 C3 1_555 1_555
H2 C4 1_555 1_555
C5 C4 1_555 1_555
H3 C5 1_555 1_555
C6 C5 1_555 1_555
H4 C6 1_555 1_555
C7 C2 1_555 1_555
C8 H5 1_555 1_555
H6 C8 1_555 1_555
C9 C8 1_555 1_555
C10 C9 1_555 1_555
H7 C10 1_555 1_555
C11 C9 1_555 1_555
H8 C11 1_555 1_555
Cu1 O1 1_555 1_555
N1 C7 1_555 1_555
H9 N1 1_555 1_555
O1 H10 1_555 1_555
H11 O1 1_555 1_555
O2 C1 1_555 1_555
O3 C1 1_555 1_555
O4 H12 1_555 1_555
C1B C2B 1_555 1_555
C2B C3B 1_555 1_555
C3B H1B 1_555 1_555
C4B C3B 1_555 1_555
H2B C4B 1_555 1_555
C5B C4B 1_555 1_555
H3B C5B 1_555 1_555
C6B C5B 1_555 1_555
H4B C6B 1_555 1_555
C7B C2B 1_555 1_555
C8B H5B 1_555 1_555
H6B C8B 1_555 1_555
C9B C8B 1_555 1_555
C10B C11 1_555 1_555
H7B C10B 1_555 1_555
C11B C10 1_555 1_555
H8B C11B 1_555 1_555
Cu1_2 O2B_2 1_555 1_555
N1B C7B 1_555 1_555
H9B N1B 1_555 1_555
O1B Cu1 1_555 1_555
H10B O1B 1_555 1_555
H11B O1B 1_555 1_555
O2B Cu1 1_555 1_555
O2B_2 C1B 1_555 1_555
O3B Cu1 1_555 1_555
O3B_2 C1B 1_555 1_555
H12A O4 1_555 1_555
C6 C7 1_555 1_555
C8 N1 1_555 1_555
Cu1 O2 1_555 1_555
Cu1 O3 1_555 1_555
C6B C7B 1_555 1_555
C8B N1B 1_555 1_555
C9B C10B 1_555 1_555
C9B C11B 1_555 1_555
Cu1_2 O3B_2 1_555 1_555

#END
