
#######################################################################
#
#                 Cambridge Crystallographic Data Centre
#                                CCDC 
#
#######################################################################
#
# If this CIF has been generated from an entry in the Cambridge 
# Structural Database, then it will include bibliographic, chemical, 
# crystal, experimental, refinement or atomic coordinate data resulting 
# from the CCDC's data processing and validation procedures.
#
#######################################################################

data_POFFIB
_symmetry_cell_setting           monoclinic
_symmetry_space_group_name_H-M   'P 21/a'
_symmetry_Int_Tables_number      14
_space_group_name_Hall           '-P 2yab'
loop_
_symmetry_equiv_pos_site_id
_symmetry_equiv_pos_as_xyz
1 x,y,z
2 1/2-x,1/2+y,-z
3 -x,-y,-z
4 1/2+x,1/2-y,z
_cell_length_a                   11.3747(4)
_cell_length_b                   12.1459(4)
_cell_length_c                   12.6348(5)
_cell_angle_alpha                90
_cell_angle_beta                 92.6352(7)
_cell_angle_gamma                90
_cell_volume                     1743.73
loop_
_atom_site_label
_atom_site_type_symbol
_atom_site_fract_x
_atom_site_fract_y
_atom_site_fract_z
Cu1 Cu -0.01427(3) 0.89476(2) 0.40088(2)
Cu2 Cu 0.11391(3) 0.37740(2) 0.88819(2)
Cl1 Cl 0.15339(6) 0.95742(5) 0.48411(5)
O1 O 0.10151(18) 0.48674(15) 0.77534(15)
N1 N -0.01295(19) 0.76525(17) 0.50068(16)
O2 O 0.08520(16) 0.25995(15) 0.78027(14)
O3 O 0.14722(18) 0.49229(15) 0.99400(14)
H1 H 0.1135 0.5520 0.9739
H2 H 0.2214 0.5028 1.0007
O4 O 0.16593(16) 0.15718(14) 0.65757(13)
O5 O 0.11252(17) 0.27051(15) 1.00483(14)
N2 N -0.00390(19) 0.00430(17) 1.28219(16)
C1 C 0.0024(3) 0.5313(2) 0.7548(2)
O6 O 0.29894(16) 0.32596(14) 0.85896(14)
H3 H 0.322(3) 0.2942(18) 0.9141(11)
O7 O -0.08773(19) 0.51750(18) 0.80510(15)
C2 C 0.1081(3) 0.10697(19) 1.1605(2)
H4 H 0.1807 0.1223 1.1328
C3 C 0.0072(2) 0.1605(2) 1.12191(19)
C4 C 0.0128(3) 0.2484(2) 1.03805(18)
C5 C -0.0041(2) 0.60961(19) 0.6620(2)
C6 C 0.0990(2) 0.0312(2) 1.2401(2)
H5 H 0.1673 -0.0034 1.2663
C7 C 0.1719(2) 0.22233(19) 0.73562(18)
C8 C -0.0983(3) 0.6807(2) 0.6483(2)
H6 H -0.1606 0.6770 0.6933
C9 C -0.0994(2) 0.7570(2) 0.5679(2)
H7 H -0.1631 0.8048 0.5600
C10 C 0.0833(3) 0.6146(2) 0.5895(2)
H8 H 0.1462 0.5658 0.5940
C11 C -0.1018(2) 0.0536(2) 1.2427(2)
H9 H -0.1738 0.0346 1.2696
C12 C -0.0994(3) 0.1319(2) 1.1631(2)
H10 H -0.1688 0.1651 1.1375
O8 O -0.08103(18) 0.29403(15) 1.00782(15)
C13 C 0.2951(2) 0.2536(2) 0.7718(2)
H11 H 0.3387 0.1874 0.7909
H12 H 0.3335 0.2882 0.7135
C14 C 0.0758(3) 0.6930(2) 0.5105(2)
H13 H 0.1348 0.6957 0.4620
Cu1_2 Cu -0.01427(3) -0.10524(2) 1.40088(2)
Cu1B Cu 0.01427(3) 0.10524(2) 0.59912(2)
Cu1B_2 Cu 0.01427(3) 1.10524(2) 0.59912(2)
Cl1B Cl -0.15339(6) 1.04258(5) 0.51589(5)
O4B O -0.16593(16) 0.84282(14) 0.34243(13)
N2_2 N -0.00390(19) 1.00430(17) 0.28219(16)
loop_
_geom_bond_atom_site_label_1
_geom_bond_atom_site_label_2
_geom_bond_site_symmetry_1
_geom_bond_site_symmetry_2
Cu1 Cl1 1_555 1_555
Cu2 O1 1_555 1_555
Cl1 Cu1B_2 1_555 1_555
O1 C1 1_555 1_555
N1 Cu1 1_555 1_555
O2 Cu2 1_555 1_555
O3 Cu2 1_555 1_555
H1 O3 1_555 1_555
H2 O3 1_555 1_555
O4 C7 1_555 1_555
O5 Cu2 1_555 1_555
N2 C6 1_555 1_555
C1 O7 1_555 1_555
O6 Cu2 1_555 1_555
H3 O6 1_555 1_555
C2 H4 1_555 1_555
C3 C2 1_555 1_555
C4 O5 1_555 1_555
C5 C1 1_555 1_555
C6 C2 1_555 1_555
H5 C6 1_555 1_555
C7 O2 1_555 1_555
C8 C5 1_555 1_555
H6 C8 1_555 1_555
C9 N1 1_555 1_555
H7 C9 1_555 1_555
C10 C5 1_555 1_555
H8 C10 1_555 1_555
C11 N2 1_555 1_555
H9 C11 1_555 1_555
C12 C3 1_555 1_555
H10 C12 1_555 1_555
O8 C4 1_555 1_555
C13 O6 1_555 1_555
H11 C13 1_555 1_555
H12 C13 1_555 1_555
C14 N1 1_555 1_555
H13 C14 1_555 1_555
Cu1_2 N2 1_555 1_555
Cu1B O4 1_555 1_555
Cu1B_2 Cl1B 1_555 1_555
Cl1B Cu1 1_555 1_555
O4B Cu1 1_555 1_555
N2_2 Cu1 1_555 1_555
C3 C4 1_555 1_555
C7 C13 1_555 1_555
C8 C9 1_555 1_555
C10 C14 1_555 1_555
C11 C12 1_555 1_555

#END
