
#######################################################################
#
#                 Cambridge Crystallographic Data Centre
#                                CCDC 
#
#######################################################################
#
# If this CIF has been generated from an entry in the Cambridge 
# Structural Database, then it will include bibliographic, chemical, 
# crystal, experimental, refinement or atomic coordinate data resulting 
# from the CCDC's data processing and validation procedures.
#
#######################################################################

data_POFJEA
_symmetry_cell_setting           triclinic
_symmetry_space_group_name_H-M   'P -1'
_symmetry_Int_Tables_number      2
_space_group_name_Hall           '-P 1'
loop_
_symmetry_equiv_pos_site_id
_symmetry_equiv_pos_as_xyz
1 x,y,z
2 -x,-y,-z
_cell_length_a                   10.9310(3)
_cell_length_b                   11.6505(5)
_cell_length_c                   15.2054(4)
_cell_angle_alpha                71.0112(7)
_cell_angle_beta                 82.4011(6)
_cell_angle_gamma                68.3933(7)
_cell_volume                     1702.22
loop_
_atom_site_label
_atom_site_type_symbol
_atom_site_fract_x
_atom_site_fract_y
_atom_site_fract_z
Co1 Co 0.0000 0.0000 0.0000
O1 O -0.0308(3) -0.0246(3) 0.1425(2)
H1 H -0.095(4) 0.007(4) 0.161(3)
H2 H -0.009(5) -0.091(6) 0.190(4)
N1 N -0.1793(3) -0.0409(3) -0.0082(2)
N2 N -0.1087(3) -0.7946(3) -0.0213(2)
C1 C -0.2391(4) -0.0147(3) -0.0875(3)
H5 H -0.2139 0.0379 -0.1416
C2 C -0.3361(4) -0.0616(4) -0.0933(3)
H6 H -0.3749 -0.0399 -0.1501
C3 C -0.2207(4) -0.1150(4) 0.0678(3)
H7 H -0.1830 -0.1329 0.1243
C4 C -0.3148(4) -0.1659(4) 0.0676(3)
H8 H -0.3386 -0.2177 0.1229
C5 C -0.3749(4) -0.1408(4) -0.0143(3)
C6 C -0.4719(4) -0.2046(4) -0.0158(3)
H9 H -0.5153 -0.1653 -0.0754
H10 H -0.5386 -0.1897 0.0321
C7 C -0.4055(4) -0.3506(4) 0.0001(3)
H11 H -0.3683 -0.3907 0.0619
H12 H -0.4714 -0.3867 -0.0025
C8 C -0.2983(4) -0.3827(4) -0.0706(3)
H13 H -0.3356 -0.3428 -0.1323
H14 H -0.2325 -0.3462 -0.0680
C9 C -0.2331(4) -0.5255(4) -0.0547(3)
C10 C -0.1315(4) -0.5980(4) 0.0076(3)
H15 H -0.1023 -0.5576 0.0398
C11 C -0.0732(4) -0.7292(4) 0.0225(3)
H16 H -0.0055 -0.7749 0.0652
C12 C -0.2711(4) -0.5940(4) -0.0986(3)
H17 H -0.3400 -0.5508 -0.1405
C13 C -0.2081(4) -0.7249(4) -0.0807(3)
H18 H -0.2360 -0.7676 -0.1117
Co1_2 Co 0.0000 -1.0000 0.0000
Co1_3 Co 0.0000 1.0000 0.0000
O1A O 0.0308(3) 0.0246(3) -0.1425(2)
H1A H 0.095(4) -0.007(4) -0.161(3)
H2A H 0.009(5) 0.091(6) -0.190(4)
N1A N 0.1793(3) 0.0409(3) 0.0082(2)
N2A N 0.1087(3) 0.7946(3) 0.0213(2)
N2_2 N -0.1087(3) 0.2054(3) -0.0213(2)
N2A_2 N 0.1087(3) -0.2054(3) 0.0213(2)
C1A C 0.2391(4) 0.0147(3) 0.0875(3)
H5A H 0.2139 -0.0379 0.1416
C2A C 0.3361(4) 0.0616(4) 0.0933(3)
H6A H 0.3749 0.0399 0.1501
C3A C 0.2207(4) 0.1150(4) -0.0678(3)
H7A H 0.1830 0.1329 -0.1243
C4A C 0.3148(4) 0.1659(4) -0.0676(3)
H8A H 0.3386 0.2177 -0.1229
C5A C 0.3749(4) 0.1408(4) 0.0143(3)
C6A C 0.4719(4) 0.2046(4) 0.0158(3)
H9A H 0.5153 0.1653 0.0754
H10A H 0.5386 0.1897 -0.0321
C7A C 0.4055(4) 0.3506(4) -0.0001(3)
H11A H 0.3683 0.3907 -0.0619
H12A H 0.4714 0.3867 0.0025
C8A C 0.2983(4) 0.3827(4) 0.0706(3)
H13A H 0.3356 0.3428 0.1323
H14A H 0.2325 0.3462 0.0680
C9A C 0.2331(4) 0.5255(4) 0.0547(3)
C10A C 0.1315(4) 0.5980(4) -0.0076(3)
H15A H 0.1023 0.5576 -0.0398
C11A C 0.0732(4) 0.7292(4) -0.0225(3)
H16A H 0.0055 0.7749 -0.0652
C12A C 0.2711(4) 0.5940(4) 0.0986(3)
H17A H 0.3400 0.5508 0.1405
C13A C 0.2081(4) 0.7249(4) 0.0807(3)
H18A H 0.2360 0.7676 0.1117
O2 O 0.0102(8) -0.3950(9) -0.2105(4)
O3 O -0.1176(7) -0.1911(10) -0.2256(7)
N5 N 0.3025(6) -0.1123(7) -0.5321(4)
H3 H 0.3638 -0.1666 -0.5550
H4 H 0.2891 -0.0309 -0.5548
N6 N -0.0249(11) -0.2734(10) -0.2435(5)
C27 C 0.1226(7) 0.0718(7) -0.4533(5)
H33 H 0.0538 0.1196 -0.4192
H34 H 0.1029 0.1068 -0.5184
H35 H 0.2046 0.0781 -0.4435
C28 C 0.1332(6) -0.0690(6) -0.4197(4)
C29 C 0.2250(6) -0.1562(7) -0.4586(4)
C30 C 0.2475(6) -0.2857(7) -0.4235(5)
H36 H 0.3157 -0.3425 -0.4485
C31 C 0.1723(7) -0.3344(6) -0.3523(5)
H37 H 0.1872 -0.4226 -0.3277
C32 C 0.0689(6) -0.2398(8) -0.3182(4)
C33 C 0.0569(6) -0.1127(7) -0.3516(4)
H38 H -0.0073 -0.0540 -0.3257
O4 O 0.6660(4) -0.3125(5) -0.7027(3)
O5 O 0.5089(6) -0.3630(6) -0.7540(3)
O6 O 0.4479(6) -0.1872(5) -0.7051(4)
O7 O 0.5165(4) -0.3851(5) -0.5995(3)
Cl1 Cl 0.53712(14) -0.31378(14) -0.69036(9)
N3 N -0.0498(4) -0.7448(4) -0.2812(3)
N4 N -0.7219(4) -0.0999(4) -0.2125(3)
C14 C -0.1616(6) -0.7095(5) -0.3234(4)
H19 H -0.2033 -0.7700 -0.3105
C15 C -0.2205(5) -0.5909(5) -0.3846(4)
H20 H -0.2992 -0.5733 -0.4120
C16 C 0.0060(5) -0.6559(5) -0.3035(4)
H21 H 0.0856 -0.6768 -0.2760
C17 C -0.0468(5) -0.5330(5) -0.3655(4)
H22 H -0.0019 -0.4751 -0.3792
C18 C -0.1640(4) -0.4972(4) -0.4060(3)
C19 C -0.2286(5) -0.3641(5) -0.4704(3)
H23 H -0.2426 -0.3711 -0.5298
H24 H -0.1699 -0.3154 -0.4809
C20 C -0.3608(6) -0.2899(5) -0.4324(4)
H25 H -0.3999 -0.2071 -0.4786
H26 H -0.4196 -0.3383 -0.4226
C21 C -0.3491(5) -0.2670(5) -0.3435(4)
H27 H -0.2998 -0.2092 -0.3551
H28 H -0.3000 -0.3485 -0.2997
C22 C -0.4832(5) -0.2082(5) -0.2996(3)
C23 C -0.5308(5) -0.0799(5) -0.3042(3)
H29 H -0.4834 -0.0265 -0.3359
C24 C -0.6487(5) -0.0307(5) -0.2618(3)
H30 H -0.6797 0.0573 -0.2677
C25 C -0.5612(5) -0.2796(5) -0.2533(4)
H31 H -0.5359 -0.3659 -0.2511
C26 C -0.6763(5) -0.2240(5) -0.2102(3)
H32 H -0.7251 -0.2757 -0.1776
loop_
_geom_bond_atom_site_label_1
_geom_bond_atom_site_label_2
_geom_bond_site_symmetry_1
_geom_bond_site_symmetry_2
Co1 O1 1_555 1_555
O1 H1 1_555 1_555
H2 O1 1_555 1_555
O2 N6 1_555 1_555
O3 N6 1_555 1_555
O4 Cl1 1_555 1_555
O5 Cl1 1_555 1_555
O6 Cl1 1_555 1_555
O7 Cl1 1_555 1_555
N1 Co1 1_555 1_555
N2 C11 1_555 1_555
N3 C14 1_555 1_555
N4 C24 1_555 1_555
N5 H3 1_555 1_555
H4 N5 1_555 1_555
N6 C32 1_555 1_555
C1 N1 1_555 1_555
H5 C1 1_555 1_555
C2 C1 1_555 1_555
H6 C2 1_555 1_555
C3 N1 1_555 1_555
H7 C3 1_555 1_555
C4 C3 1_555 1_555
H8 C4 1_555 1_555
C5 C2 1_555 1_555
C6 C5 1_555 1_555
H9 C6 1_555 1_555
H10 C6 1_555 1_555
C7 C6 1_555 1_555
H11 C7 1_555 1_555
H12 C7 1_555 1_555
C8 C7 1_555 1_555
H13 C8 1_555 1_555
H14 C8 1_555 1_555
C9 C8 1_555 1_555
C10 C9 1_555 1_555
H15 C10 1_555 1_555
C11 C10 1_555 1_555
H16 C11 1_555 1_555
C12 C9 1_555 1_555
H17 C12 1_555 1_555
C13 N2 1_555 1_555
H18 C13 1_555 1_555
C14 H19 1_555 1_555
C15 C14 1_555 1_555
H20 C15 1_555 1_555
C16 N3 1_555 1_555
H21 C16 1_555 1_555
C17 C16 1_555 1_555
H22 C17 1_555 1_555
C18 C15 1_555 1_555
C19 C18 1_555 1_555
H23 C19 1_555 1_555
H24 C19 1_555 1_555
C20 C19 1_555 1_555
H25 C20 1_555 1_555
H26 C20 1_555 1_555
C21 C20 1_555 1_555
H27 C21 1_555 1_555
H28 C21 1_555 1_555
C22 C21 1_555 1_555
C23 C22 1_555 1_555
H29 C23 1_555 1_555
C24 C23 1_555 1_555
H30 C24 1_555 1_555
C25 C22 1_555 1_555
H31 C25 1_555 1_555
C26 N4 1_555 1_555
H32 C26 1_555 1_555
C27 H33 1_555 1_555
H34 C27 1_555 1_555
H35 C27 1_555 1_555
C28 C27 1_555 1_555
C29 N5 1_555 1_555
C30 C29 1_555 1_555
H36 C30 1_555 1_555
C31 C30 1_555 1_555
H37 C31 1_555 1_555
C32 C31 1_555 1_555
C33 C28 1_555 1_555
H38 C33 1_555 1_555
Co1_2 N2 1_555 1_555
Co1_3 N2A 1_555 1_555
O1A Co1 1_555 1_555
H1A O1A 1_555 1_555
H2A O1A 1_555 1_555
N1A Co1 1_555 1_555
N2A C11A 1_555 1_555
N2_2 Co1 1_555 1_555
N2A_2 Co1 1_555 1_555
C1A N1A 1_555 1_555
H5A C1A 1_555 1_555
C2A C1A 1_555 1_555
H6A C2A 1_555 1_555
C3A N1A 1_555 1_555
H7A C3A 1_555 1_555
C4A C3A 1_555 1_555
H8A C4A 1_555 1_555
C5A C2A 1_555 1_555
C6A C5A 1_555 1_555
H9A C6A 1_555 1_555
H10A C6A 1_555 1_555
C7A C6A 1_555 1_555
H11A C7A 1_555 1_555
H12A C7A 1_555 1_555
C8A C7A 1_555 1_555
H13A C8A 1_555 1_555
H14A C8A 1_555 1_555
C9A C8A 1_555 1_555
C10A C9A 1_555 1_555
H15A C10A 1_555 1_555
C11A C10A 1_555 1_555
H16A C11A 1_555 1_555
C12A C9A 1_555 1_555
H17A C12A 1_555 1_555
C13A N2A 1_555 1_555
H18A C13A 1_555 1_555
C4 C5 1_555 1_555
C12 C13 1_555 1_555
C17 C18 1_555 1_555
C25 C26 1_555 1_555
C28 C29 1_555 1_555
C32 C33 1_555 1_555
C4A C5A 1_555 1_555
C12A C13A 1_555 1_555

#END
