
#######################################################################
#
#                 Cambridge Crystallographic Data Centre
#                                CCDC 
#
#######################################################################
#
# If this CIF has been generated from an entry in the Cambridge 
# Structural Database, then it will include bibliographic, chemical, 
# crystal, experimental, refinement or atomic coordinate data resulting 
# from the CCDC's data processing and validation procedures.
#
#######################################################################

data_POFKIE
_symmetry_cell_setting           orthorhombic
_symmetry_space_group_name_H-M   'P b c a'
_symmetry_Int_Tables_number      61
_space_group_name_Hall           '-P 2ac 2ab'
loop_
_symmetry_equiv_pos_site_id
_symmetry_equiv_pos_as_xyz
1 x,y,z
2 1/2-x,1/2+y,z
3 x,1/2-y,1/2+z
4 1/2-x,-y,1/2+z
5 -x,-y,-z
6 1/2+x,1/2-y,-z
7 -x,1/2+y,1/2-z
8 1/2+x,y,1/2-z
_cell_length_a                   20.090(10)
_cell_length_b                   10.685(4)
_cell_length_c                   11.051(5)
_cell_angle_alpha                90
_cell_angle_beta                 90
_cell_angle_gamma                90
_cell_volume                     2372.23
loop_
_atom_site_label
_atom_site_type_symbol
_atom_site_fract_x
_atom_site_fract_y
_atom_site_fract_z
Ni1 Ni 0.0000 -0.5000 -0.5000
O1 O 0.0954(3) -0.5397(5) -0.5190(5)
N1 N 0.0236(3) -0.3870(6) -0.3507(5)
C1 C 0.1420(4) -0.5179(8) -0.4436(7)
C2 C 0.2075(5) -0.5810(1) -0.4758(8)
F1 F 0.2038(4) -0.7008(7) -0.4700(10)
F2 F 0.2230(3) -0.5620(10) -0.5888(6)
F3 F 0.2575(3) -0.5467(8) -0.4119(6)
C3 C 0.1397(4) -0.4490(10) -0.3403(7)
C4 C 0.0826(4) -0.3841(8) -0.3017(7)
C5 C 0.0895(4) -0.2961(8) -0.1938(7)
C6 C 0.1013(7) -0.3630(10) -0.0760(10)
C7 C 0.1425(6) -0.1960(10) -0.2160(10)
N2 N 0.0229(3) -0.2413(7) -0.1963(6)
O2 O 0.0004(3) -0.1652(6) -0.1197(6)
C8 C -0.0228(4) -0.3046(8) -0.2851(7)
C9 C -0.0742(5) -0.3750(10) -0.2140(10)
C10 C -0.0537(5) -0.2040(10) -0.3650(10)
H1 H 0.180(5) -0.447(9) -0.294(8)
H2 H 0.071(4) -0.409(7) -0.063(7)
H3 H 0.141(6) -0.400(10) -0.080(10)
H4 H 0.101(6) -0.300(10) 0.000(10)
H5 H 0.141(5) -0.140(10) -0.163(9)
H6 H 0.192(5) -0.230(10) -0.190(10)
H7 H 0.135(7) -0.140(10) -0.270(10)
H8 H -0.106(5) -0.330(10) -0.150(10)
H9 H -0.062(4) -0.453(8) -0.182(7)
H10 H -0.101(4) -0.434(8) -0.251(8)
H11 H -0.084(5) -0.130(10) -0.327(9)
H12 H -0.083(5) -0.230(10) -0.440(10)
H13 H -0.025(5) -0.150(10) -0.410(9)
O1D O -0.0954(3) -0.4603(5) -0.4810(5)
N1D N -0.0236(3) -0.6130(6) -0.6493(5)
O2F O -0.0004(3) -0.6652(6) -0.3803(6)
O2B O 0.0004(3) -0.3348(6) -0.6197(6)
C1D C -0.1420(4) -0.4821(8) -0.5564(7)
C4D C -0.0826(4) -0.6159(8) -0.6983(7)
C8D C 0.0228(4) -0.6954(8) -0.7149(7)
Ni1B Ni 0.0000 0.0000 0.0000
C2D C -0.2075(5) -0.4190(1) -0.5242(8)
C3D C -0.1397(4) -0.5510(10) -0.6597(7)
C5D C -0.0895(4) -0.7039(8) -0.8062(7)
N2D N -0.0229(3) -0.7587(7) -0.8037(6)
C9D C 0.0742(5) -0.6250(10) -0.7860(10)
C10D C 0.0537(5) -0.7960(10) -0.6350(10)
F1D F -0.2038(4) -0.2992(7) -0.5300(10)
F2D F -0.2230(3) -0.4380(10) -0.4112(6)
F3D F -0.2575(3) -0.4533(8) -0.5881(6)
H1D H -0.180(5) -0.553(9) -0.706(8)
C6D C -0.1013(7) -0.6370(10) -0.9240(10)
C7D C -0.1425(6) -0.8040(10) -0.7840(10)
O2D O -0.0004(3) -0.8348(6) -0.8803(6)
H8D H 0.106(5) -0.670(10) -0.850(10)
H9D H 0.062(4) -0.547(8) -0.818(7)
H10D H 0.101(4) -0.566(8) -0.749(8)
H11D H 0.084(5) -0.870(10) -0.673(9)
H12D H 0.083(5) -0.770(10) -0.560(10)
H13D H 0.025(5) -0.850(10) -0.590(9)
H2D H -0.071(4) -0.591(7) -0.937(7)
H3D H -0.141(6) -0.600(10) -0.920(10)
H4D H -0.101(6) -0.700(10) -1.000(10)
H5D H -0.141(5) -0.860(10) -0.837(9)
H6D H -0.192(5) -0.770(10) -0.810(10)
H7D H -0.135(7) -0.860(10) -0.730(10)
Ni1B_2 Ni 0.0000 -1.0000 -1.0000
loop_
_geom_bond_atom_site_label_1
_geom_bond_atom_site_label_2
_geom_bond_site_symmetry_1
_geom_bond_site_symmetry_2
Ni1 O1 1_555 1_555
O1 C1 1_555 1_555
N1 Ni1 1_555 1_555
C1 C2 1_555 1_555
C2 F1 1_555 1_555
F2 C2 1_555 1_555
F3 C2 1_555 1_555
C3 C1 1_555 1_555
C4 N1 1_555 1_555
C5 C4 1_555 1_555
C6 C5 1_555 1_555
C7 C5 1_555 1_555
N2 C5 1_555 1_555
O2 N2 1_555 1_555
C8 N1 1_555 1_555
C9 C8 1_555 1_555
C10 C8 1_555 1_555
H1 C3 1_555 1_555
H2 C6 1_555 1_555
H3 C6 1_555 1_555
H4 C6 1_555 1_555
H5 C7 1_555 1_555
H6 C7 1_555 1_555
H7 C7 1_555 1_555
H8 C9 1_555 1_555
H9 C9 1_555 1_555
H10 C9 1_555 1_555
H11 C10 1_555 1_555
H12 C10 1_555 1_555
H13 C10 1_555 1_555
O1D Ni1 1_555 1_555
N1D Ni1 1_555 1_555
O2F Ni1 1_555 1_555
O2B Ni1 1_555 1_555
C1D O1D 1_555 1_555
C4D N1D 1_555 1_555
C8D N1D 1_555 1_555
Ni1B O2 1_555 1_555
C2D C1D 1_555 1_555
C3D C1D 1_555 1_555
C5D C4D 1_555 1_555
N2D C8D 1_555 1_555
C9D C8D 1_555 1_555
C10D C8D 1_555 1_555
F1D C2D 1_555 1_555
F2D C2D 1_555 1_555
F3D C2D 1_555 1_555
H1D C3D 1_555 1_555
C6D C5D 1_555 1_555
C7D C5D 1_555 1_555
O2D N2D 1_555 1_555
H8D C9D 1_555 1_555
H9D C9D 1_555 1_555
H10D C9D 1_555 1_555
H11D C10D 1_555 1_555
H12D C10D 1_555 1_555
H13D C10D 1_555 1_555
H2D C6D 1_555 1_555
H3D C6D 1_555 1_555
H4D C6D 1_555 1_555
H5D C7D 1_555 1_555
H6D C7D 1_555 1_555
H7D C7D 1_555 1_555
Ni1B_2 O2D 1_555 1_555
C3 C4 1_555 1_555
N2 C8 1_555 1_555
C4D C3D 1_555 1_555
C5D N2D 1_555 1_555

#END
