
#######################################################################
#
#                 Cambridge Crystallographic Data Centre
#                                CCDC 
#
#######################################################################
#
# If this CIF has been generated from an entry in the Cambridge 
# Structural Database, then it will include bibliographic, chemical, 
# crystal, experimental, refinement or atomic coordinate data resulting 
# from the CCDC's data processing and validation procedures.
#
#######################################################################

data_POFKIE01
_symmetry_cell_setting           orthorhombic
_symmetry_space_group_name_H-M   'P b c a'
_symmetry_Int_Tables_number      61
_space_group_name_Hall           '-P 2ac 2ab'
loop_
_symmetry_equiv_pos_site_id
_symmetry_equiv_pos_as_xyz
1 x,y,z
2 1/2-x,1/2+y,z
3 x,1/2-y,1/2+z
4 1/2-x,-y,1/2+z
5 -x,-y,-z
6 1/2+x,1/2-y,-z
7 -x,1/2+y,1/2-z
8 1/2+x,y,1/2-z
_cell_length_a                   19.921(1)
_cell_length_b                   11.112(2)
_cell_length_c                   21.659(3)
_cell_angle_alpha                90
_cell_angle_beta                 90
_cell_angle_gamma                90
_cell_volume                     4794.48
loop_
_atom_site_label
_atom_site_type_symbol
_atom_site_fract_x
_atom_site_fract_y
_atom_site_fract_z
Ni1 Ni -0.1209 0.1925(1) 0.3092
O1 O -0.0699(2) 0.2030(5) 0.3869(2)
N1 N -0.1894(3) 0.0794(5) 0.3505(3)
C1 C -0.0872(4) 0.1583(7) 0.4401(3)
C2 C -0.0396(5) 0.1940(10) 0.4914(4)
F1 F -0.0376(4) 0.3122(6) 0.4994(3)
F2 F 0.0237(3) 0.1622(7) 0.4776(3)
F3 F -0.0538(3) 0.1458(6) 0.5456(2)
C3 C -0.1409(4) 0.0887(8) 0.4537(4)
H1 H -0.139(4) 0.076(8) 0.499(4)
C4 C -0.1880(4) 0.0473(7) 0.4083(4)
C5 C -0.2401(4) -0.0439(7) 0.4264(4)
C6 C -0.2075(6) -0.1610(10) 0.4508(5)
H2 H -0.177(4) -0.154(6) 0.500(3)
H3 H -0.166(5) -0.200(9) 0.419(4)
H4 H -0.239(5) -0.212(8) 0.453(4)
C7 C -0.2928(6) 0.0040(10) 0.4726(5)
H5 H -0.307(5) 0.100(10) 0.452(5)
H6 H -0.317(5) -0.061(9) 0.483(4)
H7 H -0.274(4) 0.021(8) 0.521(4)
N2 N -0.2699(3) -0.0642(6) 0.3658(3)
O2 O -0.3196(3) -0.1359(5) 0.3588(3)
C8 C -0.2455(4) 0.0191(7) 0.3174(4)
C9 C -0.3005(5) 0.1100(10) 0.3011(6)
H8 H -0.334(5) 0.170(10) 0.330(5)
H9 H -0.341(4) 0.099(8) 0.286(4)
H10 H -0.290(5) 0.173(9) 0.261(5)
C10 C -0.2219(5) -0.0509(8) 0.2621(4)
H11 H -0.205(5) 0.004(9) 0.231(4)
H12 H -0.259(6) -0.090(10) 0.242(5)
H13 H -0.173(5) -0.128(9) 0.274(4)
O3 O -0.1727(3) 0.2355(5) 0.2353(2)
N3 N -0.0636(3) 0.0720(5) 0.2596(3)
C11 C -0.1583(4) 0.2092(6) 0.1794(3)
C12 C -0.2020(4) 0.2670(8) 0.1313(4)
F4 F -0.1955(3) 0.3865(5) 0.1307(3)
F5 F -0.1926(3) 0.2300(5) 0.0738(2)
F6 F -0.2671(3) 0.2489(7) 0.1439(3)
C13 C -0.1101(4) 0.1323(7) 0.1585(4)
H14 H -0.107(3) 0.138(6) 0.110(3)
C14 C -0.0669(4) 0.0638(7) 0.1990(4)
C15 C -0.0234(4) -0.0327(7) 0.1712(3)
C16 C -0.0659(5) -0.1320(10) 0.1411(5)
H15 H -0.082(4) -0.108(8) 0.098(4)
H16 H -0.037(4) -0.205(7) 0.132(3)
H17 H -0.099(6) -0.180(10) 0.173(5)
C17 C 0.0290(5) 0.0200(10) 0.1262(5)
H18 H 0.061(4) 0.107(8) 0.153(3)
H19 H 0.051(4) -0.043(7) 0.123(4)
H20 H 0.008(4) 0.034(7) 0.078(4)
N4 N 0.0084(3) -0.0778(6) 0.2276(3)
O4 O 0.0509(3) -0.1626(5) 0.2312(3)
C18 C -0.0135(4) -0.0130(7) 0.2837(4)
C19 C 0.0451(5) 0.0530(10) 0.3124(6)
H21 H 0.036(5) 0.100(9) 0.358(4)
H22 H 0.078(6) 0.030(10) 0.320(6)
H23 H 0.074(5) 0.134(9) 0.270(4)
C20 C -0.0464(6) -0.1000(10) 0.3289(5)
H24 H -0.099(6) -0.160(10) 0.304(5)
H25 H -0.048(4) -0.049(7) 0.378(4)
H26 H -0.022(3) -0.142(6) 0.334(3)
O2A O -0.1804(3) 0.3641(5) 0.3588(3)
O4F O -0.0509(3) 0.3374(5) 0.2688(3)
Ni1A Ni -0.3791 -0.3075(1) 0.3092
Ni1F Ni 0.1209 -0.3075(1) 0.1908
loop_
_geom_bond_atom_site_label_1
_geom_bond_atom_site_label_2
_geom_bond_site_symmetry_1
_geom_bond_site_symmetry_2
Ni1 O1 1_555 1_555
O1 C1 1_555 1_555
N1 Ni1 1_555 1_555
C1 C2 1_555 1_555
C2 F1 1_555 1_555
F2 C2 1_555 1_555
F3 C2 1_555 1_555
C3 C1 1_555 1_555
H1 C3 1_555 1_555
C4 N1 1_555 1_555
C5 C4 1_555 1_555
C6 C5 1_555 1_555
H2 C6 1_555 1_555
H3 C6 1_555 1_555
H4 C6 1_555 1_555
C7 C5 1_555 1_555
H5 C7 1_555 1_555
H6 C7 1_555 1_555
H7 C7 1_555 1_555
N2 C5 1_555 1_555
O2 N2 1_555 1_555
C8 N1 1_555 1_555
C9 C8 1_555 1_555
H8 C9 1_555 1_555
H9 C9 1_555 1_555
H10 C9 1_555 1_555
C10 C8 1_555 1_555
H11 C10 1_555 1_555
H12 C10 1_555 1_555
H13 C10 1_555 1_555
O3 Ni1 1_555 1_555
N3 Ni1 1_555 1_555
C11 O3 1_555 1_555
C12 C11 1_555 1_555
F4 C12 1_555 1_555
F5 C12 1_555 1_555
F6 C12 1_555 1_555
C13 C11 1_555 1_555
H14 C13 1_555 1_555
C14 N3 1_555 1_555
C15 C14 1_555 1_555
C16 C15 1_555 1_555
H15 C16 1_555 1_555
H16 C16 1_555 1_555
H17 C16 1_555 1_555
C17 C15 1_555 1_555
H18 C17 1_555 1_555
H19 C17 1_555 1_555
H20 C17 1_555 1_555
N4 C15 1_555 1_555
O4 N4 1_555 1_555
C18 N3 1_555 1_555
C19 C18 1_555 1_555
H21 C19 1_555 1_555
H22 C19 1_555 1_555
H23 C19 1_555 1_555
C20 C18 1_555 1_555
H24 C20 1_555 1_555
H25 C20 1_555 1_555
H26 C20 1_555 1_555
O2A Ni1 1_555 1_555
O4F Ni1 1_555 1_555
Ni1A O2 1_555 1_555
Ni1F O4 1_555 1_555
C3 C4 1_555 1_555
N2 C8 1_555 1_555
C13 C14 1_555 1_555
N4 C18 1_555 1_555

#END
