
#######################################################################
#
#                 Cambridge Crystallographic Data Centre
#                                CCDC 
#
#######################################################################
#
# If this CIF has been generated from an entry in the Cambridge 
# Structural Database, then it will include bibliographic, chemical, 
# crystal, experimental, refinement or atomic coordinate data resulting 
# from the CCDC's data processing and validation procedures.
#
#######################################################################

data_POGCOF
_symmetry_cell_setting           hexagonal
_symmetry_space_group_name_H-M   'P 65 2 2'
_symmetry_Int_Tables_number      179
_space_group_name_Hall           "P 65 2' (0,0,1)"
loop_
_symmetry_equiv_pos_site_id
_symmetry_equiv_pos_as_xyz
1 x,y,z
2 -y,x-y,2/3+z
3 -x+y,-x,1/3+z
4 -x,-y,1/2+z
5 y,-x+y,1/6+z
6 x-y,x,5/6+z
7 y,x,2/3-z
8 x-y,-y,-z
9 -x,-x+y,1/3-z
10 -y,-x,1/6-z
11 -x+y,y,1/2-z
12 x,x-y,5/6-z
_cell_length_a                   37.2943(17)
_cell_length_b                   37.2943(17)
_cell_length_c                   23.893(2)
_cell_angle_alpha                90
_cell_angle_beta                 90
_cell_angle_gamma                120
_cell_volume                     28779.7
loop_
_atom_site_label
_atom_site_type_symbol
_atom_site_fract_x
_atom_site_fract_y
_atom_site_fract_z
P1 P 0.5243(2) -0.0973(2) -0.1813(3)
F1 F 0.4894(5) -0.1334(5) -0.1411(6)
F2 F 0.4908(5) -0.0916(4) -0.2083(6)
F3 F 0.5578(5) -0.1056(5) -0.1524(8)
F4 F 0.5284(6) -0.0668(5) -0.1334(8)
F5 F 0.5158(4) -0.1330(4) -0.2266(5)
F6 F 0.5563(5) -0.0626(5) -0.2167(8)
O9 O 0.515(2) 0.017(2) 0.591(3)
O10 O 0.506(3) 0.016(3) 0.674(4)
O11 O 0.6853(12) -0.1856(13) -0.4476(15)
O12 O 0.7541(10) -0.0574(10) -0.1680(13)
O13 O 0.7424(16) -0.2443(16) -0.294(2)
O14 O 0.6908(19) 0.3134(19) 0.422(2)
O15 O 0.698(2) 0.002(2) -0.301(3)
O16 O 0.7398(7) 0.3671(7) 0.2282(8)
O17 O 0.7269(18) 0.0000 0.0000
Ag1 Ag 0.57950(5) -0.29842(5) -0.21342(7)
Ag2 Ag 0.80709(5) 0.26613(5) -0.02878(7)
C1 C 0.7935(5) 0.2898(6) 0.0940(8)
H1 H 0.8032 0.2716 0.1051
N1 N 0.7911(5) 0.2954(5) 0.0367(7)
C2 C 0.7766(8) 0.3203(6) 0.0198(10)
H2 H 0.7730 0.3233 -0.0189
C3 C 0.7663(9) 0.3425(9) 0.0615(10)
H3 H 0.7576 0.3615 0.0506
C4 C 0.7698(8) 0.3348(8) 0.1181(10)
H4 H 0.7627 0.3482 0.1461
C5 C 0.7835(6) 0.3074(6) 0.1341(10)
C6 C 0.7863(5) 0.2980(8) 0.1918(9)
O1 O 0.7996(4) 0.2755(4) 0.2037(5)
N2 N 0.7730(5) 0.3149(5) 0.2330(8)
H5 H 0.7642 0.3320 0.2238
C7 C 0.7738(7) 0.3047(8) 0.2885(11)
H6 H 0.7704 0.3245 0.3125
H7 H 0.8011 0.3078 0.2969
C8 C 0.7408(8) 0.2617(9) 0.3028(11)
O2 O 0.7155(5) 0.2363(5) 0.2692(6)
N3 N 0.7418(5) 0.2487(7) 0.3575(8)
C9 C 0.7684(6) 0.2767(9) 0.4006(9)
H8 H 0.7657 0.3018 0.4026
H9 H 0.7977 0.2851 0.3938
C10 C 0.7522(8) 0.2507(11) 0.4545(10)
H10 H 0.7305 0.2548 0.4726
H11 H 0.7749 0.2578 0.4816
C11 C 0.7323(8) 0.2015(10) 0.4305(9)
H12 H 0.7537 0.1933 0.4280
H13 H 0.7090 0.1813 0.4540
C12 C 0.7172(7) 0.2063(9) 0.3712(10)
H14 H 0.7210 0.1887 0.3431
C13 C 0.6728(8) 0.1925(9) 0.3782(10)
O3 O 0.6590(4) 0.2169(5) 0.3880(7)
N4 N 0.6463(6) 0.1508(7) 0.3725(9)
C14 C 0.6574(7) 0.1194(8) 0.3620(11)
H15 H 0.6773 0.1205 0.3902
H16 H 0.6693 0.1223 0.3241
C15 C 0.6133(8) 0.0775(9) 0.3676(11)
H17 H 0.6104 0.0572 0.3387
H18 H 0.6103 0.0649 0.4050
C16 C 0.5820(8) 0.0904(10) 0.3593(13)
H19 H 0.5754 0.0894 0.3190
H20 H 0.5563 0.0712 0.3795
C17 C 0.5984(8) 0.1335(9) 0.3809(12)
H21 H 0.5878 0.1495 0.3599
C18 C 0.5883(9) 0.1290(7) 0.4382(11)
O4 O 0.6132(6) 0.1332(7) 0.4756(9)
N5 N 0.5523(6) 0.1236(5) 0.4523(8)
H22 H 0.5363 0.1201 0.4233
C19 C 0.5336(7) 0.1224(6) 0.5026(10)
C20 C 0.5498(7) 0.1248(6) 0.5554(9)
H23 H 0.5767 0.1281 0.5579
C21 C 0.5302(7) 0.1227(7) 0.6027(9)
H24 H 0.5429 0.1244 0.6379
C22 C 0.4929(7) 0.1184(6) 0.6004(9)
H25 H 0.4787 0.1169 0.6341
N6 N 0.4744(5) 0.1160(5) 0.5506(7)
C23 C 0.4945(6) 0.1174(5) 0.5029(8)
H26 H 0.4811 0.1149 0.4681
C24 C 0.6258(9) -0.2133(7) -0.1737(11)
H27 H 0.5991 -0.2235 -0.1578
N7 N 0.6344(5) -0.2390(5) -0.2019(7)
C25 C 0.6710(7) -0.2262(7) -0.2249(13)
H28 H 0.6756 -0.2450 -0.2463
C26 C 0.7018(8) -0.1874(9) -0.2186(18)
H29 H 0.7290 -0.1797 -0.2303
C27 C 0.6934(9) -0.1574(8) -0.1942(18)
H30 H 0.7131 -0.1287 -0.1964
C28 C 0.6561(8) -0.1711(7) -0.1674(11)
C29 C 0.6404(13) -0.1462(11) -0.1363(10)
O5 O 0.6056(7) -0.1589(6) -0.1190(7)
N8 N 0.6718(12) -0.1063(8) -0.1323(11)
H31 H 0.6975 -0.0976 -0.1424
C30 C 0.6561(11) -0.0778(8) -0.1076(14)
H32 H 0.6271 -0.0950 -0.0951
H33 H 0.6732 -0.0628 -0.0747
C31 C 0.6587(8) -0.0481(7) -0.1495(15)
O6 O 0.6692(5) -0.0470(5) -0.2005(8)
N9 N 0.6490(8) -0.0208(6) -0.1297(8)
C32 C 0.6379(13) -0.0185(8) -0.0747(11)
H34 H 0.6618 -0.0103 -0.0493
H35 H 0.6149 -0.0457 -0.0624
C33 C 0.6249(11) 0.0128(11) -0.0738(15)
H36 H 0.5987 0.0024 -0.0527
H37 H 0.6464 0.0386 -0.0557
C34 C 0.6191(9) 0.0208(9) -0.1323(14)
H38 H 0.6299 0.0507 -0.1388
H39 H 0.5895 0.0052 -0.1429
C35 C 0.6433(8) 0.0060(7) -0.1643(11)
H40 H 0.6267 -0.0099 -0.1976
C36 C 0.6823(10) 0.0424(9) -0.1844(12)
O7 O 0.7156(6) 0.0525(4) -0.1655(9)
N10 N 0.6772(8) 0.0652(6) -0.2263(9)
C37 C 0.6401(11) 0.0603(8) -0.2569(10)
H41 H 0.6249 0.0703 -0.2337
H42 H 0.6212 0.0309 -0.2663
C38 C 0.6569(12) 0.0867(9) -0.3110(13)
H43 H 0.6590 0.0707 -0.3426
H44 H 0.6401 0.0994 -0.3223
C39 C 0.6997(11) 0.1191(8) -0.2880(11)
H45 H 0.6979 0.1429 -0.2731
H46 H 0.7198 0.1293 -0.3193
C40 C 0.7167(9) 0.1025(6) -0.2411(9)
H47 H 0.7374 0.0953 -0.2560
C41 C 0.7356(8) 0.1357(7) -0.1927(10)
O8 O 0.7160(6) 0.1404(5) -0.1568(7)
N11 N 0.7799(7) 0.1556(6) -0.1999(10)
H48 H 0.7898 0.1476 -0.2277
C42 C 0.8098(8) 0.1892(6) -0.1618(11)
C43 C 0.8497(8) 0.2015(6) -0.1714(12)
H49 H 0.8578 0.1871 -0.1968
C44 C 0.8775(8) 0.2346(8) -0.1437(11)
H50 H 0.9059 0.2470 -0.1534
C45 C 0.8657(6) 0.2513(6) -0.1009(7)
H51 H 0.8859 0.2717 -0.0769
N12 N 0.8253(5) 0.2386(5) -0.0935(6)
C46 C 0.7989(6) 0.2081(6) -0.1243(8)
H52 H 0.7703 0.1988 -0.1196
Ag1D Ag 0.70158(5) 0.12208(7) -0.04675(7)
Ag1G Ag 0.87792(7) 0.29842(5) 0.21342(7)
Ag1H Ag 0.42050(5) 0.12208(7) 0.54675(7)
Ag2I Ag 0.73387(5) 0.19291(5) 0.19545(7)
O1G O 0.5241(6) -0.2755(4) -0.2037(5)
O2I O 0.7637(5) 0.2845(5) -0.1025(6)
N6H N 0.5256(5) -0.3584(7) -0.2173(7)
O8E O 0.5756(8) -0.2840(6) -0.3235(7)
O18? O 0.501(2) 0.0000 0.5000
O19? O 0.652(3) -0.017(3) -0.357(3)
O20? O 0.757(3) 0.391(3) 0.237(4)
O21? O 0.770(4) 0.0000 0.0000
O22? O 0.796(2) 0.3981(12) -0.0833
P2? P 0.6025(7) 0.1681(7) 0.7369(8)
F7? F 0.5916(14) 0.1372(13) 0.6963(16)
F8? F 0.6440(14) 0.1887(14) 0.7066(17)
F9? F 0.6260(14) 0.1526(13) 0.7795(16)
F10? F 0.5655(5) 0.1311(10) 0.7500
F11? F 0.5954(17) 0.1938(14) 0.695(2)
F12? F 0.6179(9) 0.1950(9) 0.7813(12)
O23? O 0.7439(12) 0.3824(12) -0.0681(14)
O24? O 0.517(3) 0.022(3) 0.723(3)
loop_
_geom_bond_atom_site_label_1
_geom_bond_atom_site_label_2
_geom_bond_site_symmetry_1
_geom_bond_site_symmetry_2
Ag1 N7 1_555 1_555
Ag2 N1 1_555 1_555
C1 H1 1_555 1_555
N1 C1 1_555 1_555
C2 N1 1_555 1_555
H2 C2 1_555 1_555
C3 C2 1_555 1_555
H3 C3 1_555 1_555
C4 C3 1_555 1_555
H4 C4 1_555 1_555
C5 C1 1_555 1_555
C6 C5 1_555 1_555
O1 C6 1_555 1_555
N2 C6 1_555 1_555
H5 N2 1_555 1_555
C7 N2 1_555 1_555
H6 C7 1_555 1_555
H7 C7 1_555 1_555
C8 C7 1_555 1_555
O2 C8 1_555 1_555
N3 C8 1_555 1_555
C9 N3 1_555 1_555
H8 C9 1_555 1_555
H9 C9 1_555 1_555
C10 C9 1_555 1_555
H10 C10 1_555 1_555
H11 C10 1_555 1_555
C11 C10 1_555 1_555
H12 C11 1_555 1_555
H13 C11 1_555 1_555
C12 N3 1_555 1_555
H14 C12 1_555 1_555
C13 C12 1_555 1_555
O3 C13 1_555 1_555
N4 C13 1_555 1_555
C14 N4 1_555 1_555
H15 C14 1_555 1_555
H16 C14 1_555 1_555
C15 C14 1_555 1_555
H17 C15 1_555 1_555
H18 C15 1_555 1_555
C16 C15 1_555 1_555
H19 C16 1_555 1_555
H20 C16 1_555 1_555
C17 N4 1_555 1_555
H21 C17 1_555 1_555
C18 C17 1_555 1_555
O4 C18 1_555 1_555
N5 C18 1_555 1_555
H22 N5 1_555 1_555
C19 N5 1_555 1_555
C20 C19 1_555 1_555
H23 C20 1_555 1_555
C21 C20 1_555 1_555
H24 C21 1_555 1_555
C22 C21 1_555 1_555
H25 C22 1_555 1_555
N6 C22 1_555 1_555
C23 C19 1_555 1_555
H26 C23 1_555 1_555
C24 H27 1_555 1_555
N7 C24 1_555 1_555
C25 N7 1_555 1_555
H28 C25 1_555 1_555
C26 C25 1_555 1_555
H29 C26 1_555 1_555
C27 C26 1_555 1_555
H30 C27 1_555 1_555
C28 C24 1_555 1_555
C29 C28 1_555 1_555
O5 C29 1_555 1_555
N8 C29 1_555 1_555
H31 N8 1_555 1_555
C30 N8 1_555 1_555
H32 C30 1_555 1_555
H33 C30 1_555 1_555
C31 C30 1_555 1_555
O6 C31 1_555 1_555
N9 C31 1_555 1_555
C32 N9 1_555 1_555
H34 C32 1_555 1_555
H35 C32 1_555 1_555
C33 C32 1_555 1_555
H36 C33 1_555 1_555
H37 C33 1_555 1_555
C34 C33 1_555 1_555
H38 C34 1_555 1_555
H39 C34 1_555 1_555
C35 N9 1_555 1_555
H40 C35 1_555 1_555
C36 C35 1_555 1_555
O7 C36 1_555 1_555
N10 C36 1_555 1_555
C37 N10 1_555 1_555
H41 C37 1_555 1_555
H42 C37 1_555 1_555
C38 C37 1_555 1_555
H43 C38 1_555 1_555
H44 C38 1_555 1_555
C39 C38 1_555 1_555
H45 C39 1_555 1_555
H46 C39 1_555 1_555
C40 N10 1_555 1_555
H47 C40 1_555 1_555
C41 C40 1_555 1_555
O8 C41 1_555 1_555
N11 C41 1_555 1_555
H48 N11 1_555 1_555
C42 N11 1_555 1_555
C43 C42 1_555 1_555
H49 C43 1_555 1_555
C44 C43 1_555 1_555
H50 C44 1_555 1_555
C45 C44 1_555 1_555
H51 C45 1_555 1_555
N12 Ag2 1_555 1_555
C46 C42 1_555 1_555
H52 C46 1_555 1_555
P1 F1 1_555 1_555
F2 P1 1_555 1_555
F3 P1 1_555 1_555
F4 P1 1_555 1_555
F5 P1 1_555 1_555
F6 P1 1_555 1_555
Ag1D O8 1_555 1_555
Ag1G O1 1_555 1_555
Ag1H N6 1_555 1_555
Ag2I O2 1_555 1_555
O1G Ag1 1_555 1_555
O2I Ag2 1_555 1_555
N6H Ag1 1_555 1_555
O8E Ag1 1_555 1_555
C4 C5 1_555 1_555
C11 C12 1_555 1_555
C16 C17 1_555 1_555
N6 C23 1_555 1_555
C27 C28 1_555 1_555
C34 C35 1_555 1_555
C39 C40 1_555 1_555
C45 N12 1_555 1_555
N12 C46 1_555 1_555

#END
