
#######################################################################
#
#                 Cambridge Crystallographic Data Centre
#                                CCDC 
#
#######################################################################
#
# If this CIF has been generated from an entry in the Cambridge 
# Structural Database, then it will include bibliographic, chemical, 
# crystal, experimental, refinement or atomic coordinate data resulting 
# from the CCDC's data processing and validation procedures.
#
#######################################################################

data_POGLEC01
_symmetry_cell_setting           monoclinic
_symmetry_space_group_name_H-M   'P 21/n'
_symmetry_Int_Tables_number      14
_space_group_name_Hall           '-P 2yn'
loop_
_symmetry_equiv_pos_site_id
_symmetry_equiv_pos_as_xyz
1 x,y,z
2 1/2-x,1/2+y,1/2-z
3 -x,-y,-z
4 1/2+x,1/2-y,1/2+z
_cell_length_a                   12.529(4)
_cell_length_b                   17.186(5)
_cell_length_c                   9.531(3)
_cell_angle_alpha                90
_cell_angle_beta                 92.49
_cell_angle_gamma                90
_cell_volume                     2050.31
loop_
_atom_site_label
_atom_site_type_symbol
_atom_site_fract_x
_atom_site_fract_y
_atom_site_fract_z
Cd1 Cd -0.42049(2) -0.23874(2) -0.35530(3)
N1 N -0.3195(3) -0.3282(2) -0.4774(4)
C1 C -0.3227(3) -0.3338(2) -0.6179(4)
C2 C -0.2596(3) -0.3850(3) -0.6893(5)
C3 C -0.1875(3) -0.4330(2) -0.6168(4)
C4 C -0.1823(3) -0.4251(3) -0.4714(5)
C5 C -0.2488(4) -0.3738(3) -0.4070(5)
N2 N -0.5724(3) -0.3151(2) -0.3488(4)
C6 C -0.6367(3) -0.3141(3) -0.2408(4)
C7 C -0.7351(3) -0.3512(3) -0.2432(5)
C8 C -0.7717(3) -0.3902(2) -0.3640(4)
C9 C -0.7051(4) -0.3915(3) -0.4760(5)
C10 C -0.6062(4) -0.3545(3) -0.4642(5)
C11 C -0.8814(3) -0.4274(2) -0.3729(5)
C12 C -0.1182(3) -0.4902(2) -0.6908(5)
N3 N -0.2806(3) -0.1484(2) -0.3552(4)
C13 C -0.2966(3) -0.0724(2) -0.3847(5)
C14 C -0.2139(3) -0.0208(3) -0.4041(5)
C15 C -0.1094(3) -0.0473(3) -0.3934(5)
C16 C -0.0931(3) -0.1248(3) -0.3605(6)
C17 C -0.1796(3) -0.1731(3) -0.3421(5)
C18 C -0.0163(4) 0.0054(3) -0.4240(6)
N4 N -0.5408(3) -0.1411(2) -0.5482(4)
O1 O -0.4850(3) -0.1958(2) -0.5924(4)
O2 O -0.5416(3) -0.1330(2) -0.4168(4)
O3 O -0.5888(3) -0.0969(3) -0.6290(5)
N5 N -0.3921(3) -0.2599(3) -0.0599(3)
O4 O -0.3454(4) -0.3033(3) -0.1433(4)
O5 O -0.4471(3) -0.2053(2) -0.1133(4)
O6 O -0.3852(4) -0.2700(3) 0.0668(4)
H1 H -0.367(4) -0.058(3) -0.397(5)
H2 H -0.369(4) -0.294(3) -0.674(6)
H3 H -0.234(4) 0.026(3) -0.421(5)
H4 H -0.256(4) -0.387(3) -0.783(6)
H5 H -0.170(4) -0.223(3) -0.324(5)
H6 H -0.034(5) -0.144(3) -0.352(6)
H7 H -0.242(6) -0.373(4) -0.316(7)
H8 H -0.131(5) -0.456(4) -0.413(7)
H9 H 0.054(5) 0.001(4) -0.337(7)
H10 H -0.024(6) 0.055(5) -0.394(8)
C11B C -0.1186(3) -0.5726(2) -0.6271(5)
C8B C -0.2283(3) -0.6098(2) -0.6360(4)
C7B C -0.2649(3) -0.6488(3) -0.7568(5)
C6B C -0.3633(3) -0.6859(3) -0.7592(4)
N2B N -0.4276(3) -0.6849(2) -0.6512(4)
Cd1B Cd -0.57951(2) -0.76126(2) -0.64470(3)
N1B N -0.6805(3) -0.6718(2) -0.5226(4)
C1B C -0.6773(3) -0.6662(2) -0.3821(4)
C2B C -0.7404(3) -0.6150(3) -0.3107(5)
C3B C -0.8125(3) -0.5670(2) -0.3832(4)
C4B C -0.8177(3) -0.5749(3) -0.5286(5)
C5B C -0.7512(4) -0.6262(3) -0.5930(5)
H7B H -0.758(6) -0.627(4) -0.684(7)
H8B H -0.869(5) -0.544(4) -0.587(7)
C12B C -0.8818(3) -0.5098(2) -0.3092(5)
C18B C 0.0163(4) -0.0054(3) -0.5760(6)
C15B C 0.1094(3) 0.0473(3) -0.6066(5)
C14B C 0.2139(3) 0.0208(3) -0.5959(5)
C13B C 0.2966(3) 0.0724(2) -0.6153(5)
N3B N 0.2806(3) 0.1484(2) -0.6448(4)
Cd1B_2 Cd 0.42049(2) 0.23874(2) -0.64470(3)
N1B_2 N 0.3195(3) 0.3282(2) -0.5226(4)
N2B_2 N 0.5724(3) 0.3151(2) -0.6512(4)
O1B O 0.4850(3) 0.1958(2) -0.4076(4)
N4B N 0.5408(3) 0.1411(2) -0.4518(4)
O2B O 0.5416(3) 0.1330(2) -0.5832(4)
O4B O 0.3454(4) 0.3033(3) -0.8567(4)
N5B N 0.3921(3) 0.2599(3) -0.9401(3)
O5B O 0.4471(3) 0.2053(2) -0.8867(4)
O6B O 0.3852(4) 0.2700(3) -1.0668(4)
O3B O 0.5888(3) 0.0969(3) -0.3710(5)
C17B C 0.1796(3) 0.1731(3) -0.6579(5)
C16B C 0.0931(3) 0.1248(3) -0.6395(6)
H6B H 0.034(5) 0.144(3) -0.648(6)
H5B H 0.170(4) 0.223(3) -0.676(5)
H1B H 0.367(4) 0.058(3) -0.603(5)
H3B H 0.234(4) -0.026(3) -0.579(5)
H9B H -0.054(5) -0.001(4) -0.663(7)
H10B H 0.024(6) -0.055(5) -0.606(8)
H4B H -0.744(4) -0.613(3) -0.217(6)
H2B H -0.631(4) -0.706(3) -0.326(6)
C10B C -0.3938(4) -0.6455(3) -0.5358(5)
C9B C -0.2949(4) -0.6085(3) -0.5240(5)
loop_
_geom_bond_atom_site_label_1
_geom_bond_atom_site_label_2
_geom_bond_site_symmetry_1
_geom_bond_site_symmetry_2
Cd1 N1 1_555 1_555
N1 C1 1_555 1_555
C1 C2 1_555 1_555
C2 C3 1_555 1_555
C3 C4 1_555 1_555
C4 C5 1_555 1_555
C5 N1 1_555 1_555
N2 Cd1 1_555 1_555
C6 N2 1_555 1_555
C7 C6 1_555 1_555
C8 C7 1_555 1_555
C9 C8 1_555 1_555
C10 N2 1_555 1_555
C11 C8 1_555 1_555
C12 C3 1_555 1_555
N3 Cd1 1_555 1_555
C13 N3 1_555 1_555
C14 C13 1_555 1_555
C15 C14 1_555 1_555
C16 C15 1_555 1_555
C17 N3 1_555 1_555
C18 C15 1_555 1_555
N4 O1 1_555 1_555
O1 Cd1 1_555 1_555
O2 Cd1 1_555 1_555
O3 N4 1_555 1_555
N5 O4 1_555 1_555
O4 Cd1 1_555 1_555
O5 Cd1 1_555 1_555
O6 N5 1_555 1_555
H1 C13 1_555 1_555
H2 C1 1_555 1_555
H3 C14 1_555 1_555
H4 C2 1_555 1_555
H5 C17 1_555 1_555
H6 C16 1_555 1_555
H7 C5 1_555 1_555
H8 C4 1_555 1_555
H9 C18 1_555 1_555
H10 C18 1_555 1_555
C11B C12 1_555 1_555
C8B C11B 1_555 1_555
C7B C8B 1_555 1_555
C6B C7B 1_555 1_555
N2B C6B 1_555 1_555
Cd1B N2B 1_555 1_555
N1B Cd1B 1_555 1_555
C1B N1B 1_555 1_555
C2B C1B 1_555 1_555
C3B C2B 1_555 1_555
C4B C3B 1_555 1_555
C5B N1B 1_555 1_555
H7B C5B 1_555 1_555
H8B C4B 1_555 1_555
C12B C11 1_555 1_555
C18B C18 1_555 1_555
C15B C18B 1_555 1_555
C14B C15B 1_555 1_555
C13B C14B 1_555 1_555
N3B C13B 1_555 1_555
Cd1B_2 N3B 1_555 1_555
N1B_2 Cd1B_2 1_555 1_555
N2B_2 Cd1B_2 1_555 1_555
O1B Cd1B_2 1_555 1_555
N4B O1B 1_555 1_555
O2B Cd1B_2 1_555 1_555
O4B Cd1B_2 1_555 1_555
N5B O4B 1_555 1_555
O5B Cd1B_2 1_555 1_555
O6B N5B 1_555 1_555
O3B N4B 1_555 1_555
C17B N3B 1_555 1_555
C16B C15B 1_555 1_555
H6B C16B 1_555 1_555
H5B C17B 1_555 1_555
H1B C13B 1_555 1_555
H3B C14B 1_555 1_555
H9B C18B 1_555 1_555
H10B C18B 1_555 1_555
H4B C2B 1_555 1_555
H2B C1B 1_555 1_555
C10B N2B 1_555 1_555
C9B C8B 1_555 1_555
C9 C10 1_555 1_555
C16 C17 1_555 1_555
N4 O2 1_555 1_555
N5 O5 1_555 1_555
C3B C12B 1_555 1_555
C4B C5B 1_555 1_555
N4B O2B 1_555 1_555
N5B O5B 1_555 1_555
C17B C16B 1_555 1_555
C10B C9B 1_555 1_555

#END
