
#######################################################################
#
#                 Cambridge Crystallographic Data Centre
#                                CCDC 
#
#######################################################################
#
# If this CIF has been generated from an entry in the Cambridge 
# Structural Database, then it will include bibliographic, chemical, 
# crystal, experimental, refinement or atomic coordinate data resulting 
# from the CCDC's data processing and validation procedures.
#
#######################################################################

data_POGRAF
_symmetry_cell_setting           monoclinic
_symmetry_space_group_name_H-M   'P 21/c'
_symmetry_Int_Tables_number      14
_space_group_name_Hall           '-P 2ybc'
loop_
_symmetry_equiv_pos_site_id
_symmetry_equiv_pos_as_xyz
1 x,y,z
2 -x,1/2+y,1/2-z
3 -x,-y,-z
4 x,1/2-y,1/2+z
_cell_length_a                   16.130(3)
_cell_length_b                   17.431(3)
_cell_length_c                   16.333(3)
_cell_angle_alpha                90
_cell_angle_beta                 111.758(3)
_cell_angle_gamma                90
_cell_volume                     4265.06
loop_
_atom_site_label
_atom_site_type_symbol
_atom_site_fract_x
_atom_site_fract_y
_atom_site_fract_z
Cu1 Cu 0.28475(4) 0.67148(4) 0.83656(5)
S1 S 0.40505(12) 0.30960(9) 0.85963(12)
S2 S 0.32615(11) 0.27917(11) 0.66171(13)
S3 S -0.08782(11) 0.54667(11) 0.86503(13)
S4 S -0.18000(13) 0.53523(10) 0.66419(14)
N1 N 0.3215(3) 0.5602(3) 0.8338(3)
N2 N 0.5962(3) 0.2046(3) 0.6653(3)
N3 N 0.1692(3) 0.6400(3) 0.8473(3)
N4 N -0.2500(3) 0.2831(3) 0.6659(3)
C1 C 0.2620(4) 0.5064(3) 0.7866(4)
H1 H 0.2046 0.5221 0.7516
C2 C 0.2830(4) 0.4292(3) 0.7884(4)
H2 H 0.2406 0.3941 0.7548
C3 C 0.3679(4) 0.4048(3) 0.8407(4)
C4 C 0.4308(4) 0.4598(3) 0.8868(4)
H3 H 0.4893 0.4462 0.9205
C5 C 0.4025(4) 0.5361(3) 0.8805(4)
H4 H 0.4442 0.5727 0.9119
C6 C 0.3253(4) 0.2585(4) 0.7687(4)
H5 H 0.3357 0.2040 0.7795
H6 H 0.2661 0.2695 0.7679
C7 C 0.4325(4) 0.2488(4) 0.6681(5)
C8 C 0.4930(4) 0.2089(4) 0.7374(4)
H7 H 0.4787 0.1952 0.7857
C9 C 0.5736(4) 0.1895(3) 0.7346(4)
H8 H 0.6149 0.1647 0.7830
C10 C 0.5350(4) 0.2431(3) 0.5973(4)
H9 H 0.5490 0.2546 0.5484
C11 C 0.4558(4) 0.2650(3) 0.5972(5)
H10 H 0.4162 0.2913 0.5490
C12 C 0.0904(4) 0.6574(3) 0.7885(4)
H11 H 0.0895 0.6895 0.7428
C13 C 0.0100(4) 0.6331(4) 0.7877(4)
H12 H -0.0428 0.6481 0.7430
C14 C 0.0087(4) 0.5864(3) 0.8541(4)
C15 C 0.0886(4) 0.5664(3) 0.9172(4)
H13 H 0.0898 0.5340 0.9629
C16 C 0.1683(4) 0.5941(4) 0.9141(4)
H14 H 0.2220 0.5809 0.9586
C17 C -0.1758(4) 0.5748(3) 0.7665(4)
H15 H -0.1735 0.6302 0.7620
H16 H -0.2317 0.5625 0.7730
C18 C -0.2070(4) 0.4386(3) 0.6715(4)
C19 C -0.2341(4) 0.4068(3) 0.7345(4)
H17 H -0.2373 0.4367 0.7804
C20 C -0.2566(3) 0.3296(3) 0.7286(4)
H18 H -0.2771 0.3091 0.7701
C21 C -0.2227(4) 0.3112(3) 0.6069(4)
H19 H -0.2175 0.2788 0.5638
C22 C -0.2005(4) 0.3902(4) 0.6058(5)
H20 H -0.1820 0.4092 0.5622
N5 N 0.3633(3) 0.6791(4) 1.0680(4)
O1 O 0.3650(3) 0.6422(3) 1.0039(3)
O2 O 0.3692(4) 0.7513(3) 1.0667(4)
O3 O 0.3650(4) 0.6462(4) 1.1351(4)
N6 N 0.1883(7) 0.6471(6) 0.6170(8)
O4 O 0.2086(4) 0.6786(3) 0.6820(4)
O5 O 0.2355(8) 0.5945(6) 0.6091(6)
O6 O 0.1283(6) 0.6512(8) 0.5528(7)
Cu1A Cu 0.71525(4) 0.17148(4) 0.66344(5)
Cu1A_2 Cu -0.28475(4) 0.17148(4) 0.66344(5)
N2A N 0.4038(3) 0.7046(3) 0.8347(3)
N4A N 0.2500(3) 0.7831(3) 0.8341(3)
loop_
_geom_bond_atom_site_label_1
_geom_bond_atom_site_label_2
_geom_bond_site_symmetry_1
_geom_bond_site_symmetry_2
Cu1 N1 1_555 1_555
S1 C3 1_555 1_555
S2 C6 1_555 1_555
S3 C14 1_555 1_555
S4 C17 1_555 1_555
N1 C1 1_555 1_555
N2 C9 1_555 1_555
N3 Cu1 1_555 1_555
N4 C20 1_555 1_555
C1 H1 1_555 1_555
C2 C1 1_555 1_555
H2 C2 1_555 1_555
C3 C2 1_555 1_555
C4 C3 1_555 1_555
H3 C4 1_555 1_555
C5 N1 1_555 1_555
H4 C5 1_555 1_555
C6 S1 1_555 1_555
H5 C6 1_555 1_555
H6 C6 1_555 1_555
C7 S2 1_555 1_555
C8 C7 1_555 1_555
H7 C8 1_555 1_555
C9 C8 1_555 1_555
H8 C9 1_555 1_555
C10 N2 1_555 1_555
H9 C10 1_555 1_555
C11 C7 1_555 1_555
H10 C11 1_555 1_555
C12 N3 1_555 1_555
H11 C12 1_555 1_555
C13 C12 1_555 1_555
H12 C13 1_555 1_555
C14 C13 1_555 1_555
C15 C14 1_555 1_555
H13 C15 1_555 1_555
C16 N3 1_555 1_555
H14 C16 1_555 1_555
C17 S3 1_555 1_555
H15 C17 1_555 1_555
H16 C17 1_555 1_555
C18 S4 1_555 1_555
C19 C18 1_555 1_555
H17 C19 1_555 1_555
C20 C19 1_555 1_555
H18 C20 1_555 1_555
C21 N4 1_555 1_555
H19 C21 1_555 1_555
C22 C18 1_555 1_555
H20 C22 1_555 1_555
N5 O1 1_555 1_555
O1 Cu1 1_555 1_555
O2 N5 1_555 1_555
O3 N5 1_555 1_555
N6 O4 1_555 1_555
O4 Cu1 1_555 1_555
O5 N6 1_555 1_555
O6 N6 1_555 1_555
Cu1A N2 1_555 1_555
Cu1A_2 N4 1_555 1_555
N2A Cu1 1_555 1_555
N4A Cu1 1_555 1_555
C4 C5 1_555 1_555
C10 C11 1_555 1_555
C15 C16 1_555 1_555
C21 C22 1_555 1_555

#END
