
#######################################################################
#
#                 Cambridge Crystallographic Data Centre
#                                CCDC 
#
#######################################################################
#
# If this CIF has been generated from an entry in the Cambridge 
# Structural Database, then it will include bibliographic, chemical, 
# crystal, experimental, refinement or atomic coordinate data resulting 
# from the CCDC's data processing and validation procedures.
#
#######################################################################

data_POGZUH
_symmetry_cell_setting           monoclinic
_symmetry_space_group_name_H-M   'C c'
_symmetry_Int_Tables_number      9
_space_group_name_Hall           'C -2yc'
loop_
_symmetry_equiv_pos_site_id
_symmetry_equiv_pos_as_xyz
1 x,y,z
2 x,-y,1/2+z
3 1/2+x,1/2+y,z
4 1/2+x,1/2-y,1/2+z
_cell_length_a                   13.835(5)
_cell_length_b                   29.007(11)
_cell_length_c                   7.821(3)
_cell_angle_alpha                90
_cell_angle_beta                 108.684(4)
_cell_angle_gamma                90
_cell_volume                     2973.25
loop_
_atom_site_label
_atom_site_type_symbol
_atom_site_fract_x
_atom_site_fract_y
_atom_site_fract_z
Cd1 Cd -0.27379(6) 0.378220(17) 0.26762(8)
N1 N -0.1902(5) 0.4431(3) 0.4349(10)
N2 N -0.3718(5) 0.4467(2) 0.1894(10)
N3 N -0.4412(6) 0.3630(2) 0.0724(10)
N4 N -0.6943(7) 0.6080(3) -0.1512(14)
O1 O -0.2643(5) 0.3473(3) 0.5233(8)
O2 O -0.2838(6) 0.2856(3) 0.3596(9)
O3 O -0.2155(4) 0.3666(2) 1.0411(8)
O4 O -0.0718(5) 0.3633(2) 1.2737(8)
C1 C -0.1027(8) 0.4379(3) 0.5670(13)
H1 H -0.0776 0.4082 0.5970
C2 C -0.0470(7) 0.4744(4) 0.6618(14)
H2 H 0.0149 0.4697 0.7522
C3 C -0.0864(7) 0.5183(4) 0.6181(13)
H3 H -0.0514 0.5437 0.6803
C4 C -0.1765(7) 0.5241(3) 0.4836(13)
H4 H -0.2031 0.5535 0.4522
C5 C -0.2280(7) 0.4861(3) 0.3947(13)
C6 C -0.3314(7) 0.4877(3) 0.2547(12)
C7 C -0.3802(6) 0.5290(3) 0.1929(12)
H5 H -0.3485 0.5569 0.2355
C8 C -0.4775(6) 0.5282(3) 0.0658(12)
C9 C -0.5202(7) 0.4858(3) -0.0005(12)
H6 H -0.5846 0.4843 -0.0865
C10 C -0.4651(6) 0.4455(3) 0.0639(12)
C11 C -0.5063(7) 0.3987(3) 0.0074(11)
C12 C -0.6021(8) 0.3912(3) -0.1091(15)
H7 H -0.6446 0.4160 -0.1581
C13 C -0.6353(9) 0.3471(4) -0.1534(14)
H8 H -0.7021 0.3418 -0.2263
C14 C -0.5709(9) 0.3110(4) -0.0911(16)
H9 H -0.5915 0.2809 -0.1247
C15 C -0.4746(8) 0.3203(3) 0.0226(13)
H10 H -0.4304 0.2958 0.0671
C16 C -0.6388(8) 0.5711(4) -0.0790(16)
H11 H -0.6725 0.5435 -0.0777
C17 C -0.5337(7) 0.5720(3) -0.0058(12)
C18 C -0.4866(8) 0.6132(3) -0.0005(15)
H12 H -0.4165 0.6157 0.0552
C19 C -0.5426(10) 0.6512(4) -0.0776(17)
H13 H -0.5110 0.6795 -0.0785
C20 C -0.6452(10) 0.6467(4) -0.1526(15)
H14 H -0.6828 0.6723 -0.2077
C21 C -0.2724(7) 0.3051(4) 0.5069(13)
C22 C -0.2750(7) 0.2776(3) 0.6678(11)
C23 C -0.3555(7) 0.2484(4) 0.6570(13)
H15 H -0.4049 0.2429 0.5460
C24 C -0.3630(7) 0.2271(3) 0.8114(13)
H16 H -0.4173 0.2075 0.8048
C25 C -0.2896(7) 0.2354(3) 0.9733(12)
H17 H -0.2971 0.2230 1.0780
C26 C -0.2058(7) 0.2615(3) 0.9847(12)
H18 H -0.1541 0.2642 1.0948
C27 C -0.1967(6) 0.2839(3) 0.8348(11)
C28 C -0.1033(6) 0.3115(3) 0.8467(11)
C29 C -0.0480(7) 0.3021(3) 0.7318(12)
H19 H -0.0716 0.2796 0.6433
C30 C 0.0407(8) 0.3248(5) 0.7448(16)
H20 H 0.0763 0.3180 0.6653
C31 C 0.0762(7) 0.3572(4) 0.8738(14)
H21 H 0.1364 0.3728 0.8824
C32 C 0.0244(7) 0.3674(3) 0.9922(12)
H22 H 0.0502 0.3896 1.0812
C33 C -0.0663(6) 0.3450(3) 0.9804(12)
C34 C -0.1209(7) 0.3588(3) 1.1086(12)
Cd1_2 Cd -0.27379(6) 0.378220(17) 1.26762(8)
O3_2 O -0.2155(4) 0.3666(2) 0.0411(8)
O5 O -0.7896(8) 0.4654(4) 0.7073(19)
H23 H -0.832(6) 0.444(2) 0.666(11)
H24 H -0.807(8) 0.485(2) 0.622(9)
O6 O -0.8762(7) 0.6029(4) 0.9654(13)
H25 H -0.935(2) 0.610(3) 0.895(10)
H26 H -0.836(4) 0.618(3) 0.923(12)
O7 O -0.7993(11) 0.4614(5) 0.0223(17)
loop_
_geom_bond_atom_site_label_1
_geom_bond_atom_site_label_2
_geom_bond_site_symmetry_1
_geom_bond_site_symmetry_2
Cd1 N1 1_555 1_555
N1 C1 1_555 1_555
N2 Cd1 1_555 1_555
N3 Cd1 1_555 1_555
N4 C16 1_555 1_555
O1 Cd1 1_555 1_555
O2 C21 1_555 1_555
O3 C34 1_555 1_555
O4 C34 1_555 1_555
C1 H1 1_555 1_555
C2 C1 1_555 1_555
H2 C2 1_555 1_555
C3 C2 1_555 1_555
H3 C3 1_555 1_555
C4 C3 1_555 1_555
H4 C4 1_555 1_555
C5 N1 1_555 1_555
C6 N2 1_555 1_555
C7 C6 1_555 1_555
H5 C7 1_555 1_555
C8 C7 1_555 1_555
C9 C8 1_555 1_555
H6 C9 1_555 1_555
C10 N2 1_555 1_555
C11 N3 1_555 1_555
C12 C11 1_555 1_555
H7 C12 1_555 1_555
C13 C12 1_555 1_555
H8 C13 1_555 1_555
C14 C13 1_555 1_555
H9 C14 1_555 1_555
C15 N3 1_555 1_555
H10 C15 1_555 1_555
C16 H11 1_555 1_555
C17 C8 1_555 1_555
C18 C17 1_555 1_555
H12 C18 1_555 1_555
C19 C18 1_555 1_555
H13 C19 1_555 1_555
C20 N4 1_555 1_555
H14 C20 1_555 1_555
C21 O1 1_555 1_555
C22 C21 1_555 1_555
C23 C22 1_555 1_555
H15 C23 1_555 1_555
C24 C23 1_555 1_555
H16 C24 1_555 1_555
C25 C24 1_555 1_555
H17 C25 1_555 1_555
C26 C25 1_555 1_555
H18 C26 1_555 1_555
C27 C22 1_555 1_555
C28 C27 1_555 1_555
C29 C28 1_555 1_555
H19 C29 1_555 1_555
C30 C29 1_555 1_555
H20 C30 1_555 1_555
C31 C30 1_555 1_555
H21 C31 1_555 1_555
C32 C31 1_555 1_555
H22 C32 1_555 1_555
C33 C28 1_555 1_555
C34 C33 1_555 1_555
O5 H23 1_555 1_555
O6 H25 1_555 1_555
H24 O5 1_555 1_555
H26 O6 1_555 1_555
Cd1_2 O3 1_555 1_555
O3_2 Cd1 1_555 1_555
C4 C5 1_555 1_555
C5 C6 1_555 1_555
C9 C10 1_555 1_555
C10 C11 1_555 1_555
C14 C15 1_555 1_555
C16 C17 1_555 1_555
C19 C20 1_555 1_555
C26 C27 1_555 1_555
C32 C33 1_555 1_555

#END
