
#######################################################################
#
#                 Cambridge Crystallographic Data Centre
#                                CCDC 
#
#######################################################################
#
# If this CIF has been generated from an entry in the Cambridge 
# Structural Database, then it will include bibliographic, chemical, 
# crystal, experimental, refinement or atomic coordinate data resulting 
# from the CCDC's data processing and validation procedures.
#
#######################################################################

data_POHBAQ
_symmetry_cell_setting           monoclinic
_symmetry_space_group_name_H-M   'C 2/c'
_symmetry_Int_Tables_number      15
_space_group_name_Hall           '-C 2yn'
loop_
_symmetry_equiv_pos_site_id
_symmetry_equiv_pos_as_xyz
1 x,y,z
2 1/2+x,1/2+y,z
3 -x,y,1/2-z
4 1/2-x,1/2+y,1/2-z
5 -x,-y,-z
6 1/2-x,1/2-y,-z
7 x,-y,1/2+z
8 1/2+x,1/2-y,1/2+z
_cell_length_a                   13.759(4)
_cell_length_b                   15.063(4)
_cell_length_c                   25.353(6)
_cell_angle_alpha                90
_cell_angle_beta                 99.716(5)
_cell_angle_gamma                90
_cell_volume                     5179.09
loop_
_atom_site_label
_atom_site_type_symbol
_atom_site_fract_x
_atom_site_fract_y
_atom_site_fract_z
Cd1 Cd 0.99164(3) 0.37750(2) 1.074620(14)
Cd2 Cd 0.5000 0.18574(3) 0.7500
S1 S 0.52943(9) 0.29758(8) 0.63306(5)
N1 N 0.8213(3) 0.4103(3) 1.05599(16)
N2 N 0.9294(3) 0.3545(3) 0.98475(15)
N3 N 1.1189(3) 0.3736(3) 1.02299(16)
N4 N 0.6712(3) 0.1920(2) 0.77116(15)
O1 O 0.4411(2) 0.2582(2) 0.59871(12)
O2 O 0.5116(2) 0.2977(2) 0.68919(13)
O3 O 0.6132(2) 0.2409(3) 0.62722(14)
O4 O 0.5432(3) 0.3877(2) 0.61606(15)
O5 O 0.5650(3) 0.0079(2) 0.62028(13)
O6 O 0.4952(2) 0.0857(2) 0.67747(12)
C1 C 0.7699(4) 0.4418(3) 1.0922(2)
H1 H 0.8042 0.4605 1.1251
C2 C 0.6703(4) 0.4480(3) 1.0833(2)
H2 H 0.6376 0.4713 1.1094
C3 C 0.6181(4) 0.4196(4) 1.0355(2)
H3 H 0.5496 0.4224 1.0290
C4 C 0.6694(4) 0.3864(3) 0.9970(2)
H4 H 0.6358 0.3671 0.9641
C5 C 0.7707(3) 0.3828(3) 1.00840(19)
C6 C 0.8313(3) 0.3489(3) 0.96934(19)
C7 C 0.7923(3) 0.3129(3) 0.9201(2)
H5 H 0.7243 0.3114 0.9093
C8 C 0.8533(3) 0.2790(3) 0.88639(18)
C9 C 0.9556(3) 0.2870(3) 0.90417(18)
H6 H 0.9995 0.2656 0.8830
C10 C 0.9908(3) 0.3261(3) 0.95262(18)
C11 C 1.0971(3) 0.3420(3) 0.97273(19)
C12 C 1.1704(4) 0.3289(3) 0.9421(2)
H7 H 1.1548 0.3063 0.9076
C13 C 1.2666(4) 0.3499(4) 0.9634(2)
H8 H 1.3165 0.3419 0.9433
C14 C 1.2877(4) 0.3821(3) 1.0139(2)
H9 H 1.3522 0.3969 1.0288
C15 C 1.2124(4) 0.3929(4) 1.0432(2)
H10 H 1.2273 0.4143 1.0780
C16 C 0.7123(3) 0.2256(3) 0.81862(19)
H11 H 0.6710 0.2420 0.8424
C17 C 0.8133(3) 0.2372(3) 0.83432(18)
C18 C 0.8730(4) 0.2099(4) 0.7982(2)
H12 H 0.9412 0.2153 0.8068
C19 C 0.8306(4) 0.1751(4) 0.7500(2)
H13 H 0.8701 0.1562 0.7258
C20 C 0.7303(4) 0.1681(3) 0.7372(2)
H14 H 0.7026 0.1459 0.7038
C21 C 0.5498(3) 0.0230(3) 0.66703(19)
C22 C 0.6019(3) -0.0319(3) 0.71211(19)
C23 C 0.7029(4) -0.0468(3) 0.7152(2)
H15 H 0.7340 -0.0296 0.6870
C24 C 0.7569(4) -0.0867(4) 0.7595(2)
H16 H 0.8243 -0.0951 0.7614
C25 C 0.7120(4) -0.1139(3) 0.8006(2)
H17 H 0.7487 -0.1395 0.8309
C26 C 0.6112(4) -0.1031(3) 0.79676(19)
H18 H 0.5807 -0.1230 0.8246
C27 C 0.5541(3) -0.0633(3) 0.75257(18)
Cd1B Cd 0.00836(3) 0.37750(2) 0.425380(14)
Cd1G Cd 0.49164(3) 0.12250(2) 0.574620(14)
Cd1E Cd 0.50836(3) 0.12250(2) 0.925380(14)
S1B S 0.47057(9) 0.29758(8) 0.86694(5)
N1B N 0.1787(3) 0.4103(3) 0.44401(16)
N2B N 0.0706(3) 0.3545(3) 0.51525(15)
N3B N -0.1189(3) 0.3736(3) 0.47701(16)
N4B N 0.3288(3) 0.1920(2) 0.72884(15)
O1B O 0.5589(2) 0.2582(2) 0.90129(12)
O1G O 0.9411(2) 0.2418(2) 1.09871(12)
O1E O 0.0589(2) 0.2418(2) 0.40129(12)
O2B O 0.4884(2) 0.2977(2) 0.81081(13)
O3B O 0.3868(2) 0.2409(3) 0.87278(14)
O3G O 1.1132(2) 0.2591(3) 1.12722(14)
O3E O -0.1132(2) 0.2591(3) 0.37278(14)
O4B O 0.4568(3) 0.3877(2) 0.88394(15)
O5B O 0.4350(3) 0.0079(2) 0.87972(13)
O5G O 1.0650(3) 0.4921(2) 1.12028(13)
O5E O -0.0650(3) 0.4921(2) 0.37972(13)
O6B O 0.5048(2) 0.0857(2) 0.82253(12)
O6G O 0.9952(2) 0.4143(2) 1.17747(12)
O6E O 0.0048(2) 0.4143(2) 0.32253(12)
C1B C 0.2301(4) 0.4418(3) 0.4078(2)
H1B H 0.1958 0.4605 0.3749
C2B C 0.3297(4) 0.4480(3) 0.4167(2)
H2B H 0.3624 0.4713 0.3906
C3B C 0.3819(4) 0.4196(4) 0.4645(2)
H3B H 0.4504 0.4224 0.4710
C4B C 0.3306(4) 0.3864(3) 0.5030(2)
H4B H 0.3642 0.3671 0.5359
C5B C 0.2293(3) 0.3828(3) 0.49160(19)
C6B C 0.1687(3) 0.3489(3) 0.53066(19)
C7B C 0.2077(3) 0.3129(3) 0.5799(2)
H5B H 0.2757 0.3114 0.5907
C8B C 0.1467(3) 0.2790(3) 0.61361(18)
C9B C 0.0444(3) 0.2870(3) 0.59583(18)
H6B H 0.0005 0.2656 0.6170
C10B C 0.0092(3) 0.3261(3) 0.54738(18)
C11B C -0.0971(3) 0.3420(3) 0.52727(19)
C12B C -0.1704(4) 0.3289(3) 0.5579(2)
H7B H -0.1548 0.3063 0.5924
C13B C -0.2666(4) 0.3499(4) 0.5366(2)
H8B H -0.3165 0.3419 0.5567
C14B C -0.2877(4) 0.3821(3) 0.4861(2)
H9B H -0.3522 0.3969 0.4712
C15B C -0.2124(4) 0.3929(4) 0.4568(2)
H10B H -0.2273 0.4143 0.4220
C16B C 0.2877(3) 0.2256(3) 0.68138(19)
H11B H 0.3290 0.2420 0.6576
C17B C 0.1867(3) 0.2372(3) 0.66568(18)
C18B C 0.1270(4) 0.2099(4) 0.7018(2)
H12B H 0.0588 0.2153 0.6932
C19B C 0.1694(4) 0.1751(4) 0.7500(2)
H13B H 0.1299 0.1562 0.7742
C20B C 0.2697(4) 0.1681(3) 0.7628(2)
H14B H 0.2974 0.1459 0.7962
C21B C 0.4502(3) 0.0230(3) 0.83297(19)
C22B C 0.3981(3) -0.0319(3) 0.78789(19)
C23B C 0.2971(4) -0.0468(3) 0.7848(2)
H15B H 0.2660 -0.0296 0.8130
C24B C 0.2431(4) -0.0867(4) 0.7405(2)
H16B H 0.1757 -0.0951 0.7386
C25B C 0.2880(4) -0.1139(3) 0.6994(2)
H17B H 0.2513 -0.1395 0.6691
C26B C 0.3888(4) -0.1031(3) 0.70324(19)
H18B H 0.4193 -0.1230 0.6754
C27B C 0.4459(3) -0.0633(3) 0.74743(18)
O7 O 0.5000 0.4617(5) 0.7500
O8 O 0.4191(7) 0.5357(7) 0.6394(4)
H19 H 0.439(5) 0.510(4) 0.6134(13)
H20 H 0.459(4) 0.517(4) 0.6669(12)
loop_
_geom_bond_atom_site_label_1
_geom_bond_atom_site_label_2
_geom_bond_site_symmetry_1
_geom_bond_site_symmetry_2
Cd1 N1 1_555 1_555
Cd2 N4 1_555 1_555
S1 O1 1_555 1_555
N1 C1 1_555 1_555
N2 Cd1 1_555 1_555
N3 Cd1 1_555 1_555
N4 C16 1_555 1_555
O1 Cd1G 1_555 1_555
O2 Cd2 1_555 1_555
O3 S1 1_555 1_555
O4 S1 1_555 1_555
O5 C21 1_555 1_555
O6 Cd2 1_555 1_555
O8 H19 1_555 1_555
C1 H1 1_555 1_555
C2 C1 1_555 1_555
H2 C2 1_555 1_555
C3 C2 1_555 1_555
H3 C3 1_555 1_555
C4 C3 1_555 1_555
H4 C4 1_555 1_555
C5 N1 1_555 1_555
C6 N2 1_555 1_555
C7 C6 1_555 1_555
H5 C7 1_555 1_555
C8 C7 1_555 1_555
C9 C8 1_555 1_555
H6 C9 1_555 1_555
C10 N2 1_555 1_555
C11 N3 1_555 1_555
C12 C11 1_555 1_555
H7 C12 1_555 1_555
C13 C12 1_555 1_555
H8 C13 1_555 1_555
C14 C13 1_555 1_555
H9 C14 1_555 1_555
C15 N3 1_555 1_555
H10 C15 1_555 1_555
C16 H11 1_555 1_555
C17 C8 1_555 1_555
C18 C17 1_555 1_555
H12 C18 1_555 1_555
C19 C18 1_555 1_555
H13 C19 1_555 1_555
C20 N4 1_555 1_555
H14 C20 1_555 1_555
C21 O6 1_555 1_555
C22 C21 1_555 1_555
C23 C22 1_555 1_555
H15 C23 1_555 1_555
C24 C23 1_555 1_555
H16 C24 1_555 1_555
C25 C24 1_555 1_555
H17 C25 1_555 1_555
C26 C25 1_555 1_555
H18 C26 1_555 1_555
C27 C22 1_555 1_555
H20 O8 1_555 1_555
Cd1B N1B 1_555 1_555
Cd1G O3 1_555 1_555
Cd1E O1B 1_555 1_555
S1B O1B 1_555 1_555
N1B C1B 1_555 1_555
N2B Cd1B 1_555 1_555
N3B Cd1B 1_555 1_555
N4B Cd2 1_555 1_555
O1G Cd1 1_555 1_555
O1E Cd1B 1_555 1_555
O2B Cd2 1_555 1_555
O3B Cd1E 1_555 1_555
O3G Cd1 1_555 1_555
O3E Cd1B 1_555 1_555
O4B S1B 1_555 1_555
O5B Cd1E 1_555 1_555
O5G Cd1 1_555 1_555
O5E Cd1B 1_555 1_555
O6B Cd2 1_555 1_555
O6G Cd1 1_555 1_555
O6E Cd1B 1_555 1_555
C1B H1B 1_555 1_555
C2B C1B 1_555 1_555
H2B C2B 1_555 1_555
C3B C2B 1_555 1_555
H3B C3B 1_555 1_555
C4B C3B 1_555 1_555
H4B C4B 1_555 1_555
C5B N1B 1_555 1_555
C6B N2B 1_555 1_555
C7B C6B 1_555 1_555
H5B C7B 1_555 1_555
C8B C7B 1_555 1_555
C9B C8B 1_555 1_555
H6B C9B 1_555 1_555
C10B N2B 1_555 1_555
C11B N3B 1_555 1_555
C12B C11B 1_555 1_555
H7B C12B 1_555 1_555
C13B C12B 1_555 1_555
H8B C13B 1_555 1_555
C14B C13B 1_555 1_555
H9B C14B 1_555 1_555
C15B N3B 1_555 1_555
H10B C15B 1_555 1_555
C16B N4B 1_555 1_555
H11B C16B 1_555 1_555
C17B C8B 1_555 1_555
C18B C17B 1_555 1_555
H12B C18B 1_555 1_555
C19B C18B 1_555 1_555
H13B C19B 1_555 1_555
C20B N4B 1_555 1_555
H14B C20B 1_555 1_555
C21B O5B 1_555 1_555
C22B C21B 1_555 1_555
C23B C22B 1_555 1_555
H15B C23B 1_555 1_555
C24B C23B 1_555 1_555
H16B C24B 1_555 1_555
C25B C24B 1_555 1_555
H17B C25B 1_555 1_555
C26B C25B 1_555 1_555
H18B C26B 1_555 1_555
C27B C27 1_555 1_555
S1 O2 1_555 1_555
O5 Cd1G 1_555 1_555
O6 Cd1G 1_555 1_555
C4 C5 1_555 1_555
C5 C6 1_555 1_555
C9 C10 1_555 1_555
C10 C11 1_555 1_555
C14 C15 1_555 1_555
C16 C17 1_555 1_555
C19 C20 1_555 1_555
C26 C27 1_555 1_555
Cd1E O6B 1_555 1_555
S1B O2B 1_555 1_555
S1B O3B 1_555 1_555
O6B C21B 1_555 1_555
C4B C5B 1_555 1_555
C5B C6B 1_555 1_555
C9B C10B 1_555 1_555
C10B C11B 1_555 1_555
C14B C15B 1_555 1_555
C16B C17B 1_555 1_555
C19B C20B 1_555 1_555
C22B C27B 1_555 1_555
C26B C27B 1_555 1_555

#END
