
#######################################################################
#
#                 Cambridge Crystallographic Data Centre
#                                CCDC 
#
#######################################################################
#
# If this CIF has been generated from an entry in the Cambridge 
# Structural Database, then it will include bibliographic, chemical, 
# crystal, experimental, refinement or atomic coordinate data resulting 
# from the CCDC's data processing and validation procedures.
#
#######################################################################

data_POHBOF
_symmetry_cell_setting           monoclinic
_symmetry_space_group_name_H-M   'P 21/n'
_symmetry_Int_Tables_number      14
_space_group_name_Hall           '-P 2yn'
loop_
_symmetry_equiv_pos_site_id
_symmetry_equiv_pos_as_xyz
1 x,y,z
2 1/2-x,1/2+y,1/2-z
3 -x,-y,-z
4 1/2+x,1/2-y,1/2+z
_cell_length_a                   8.838(2)
_cell_length_b                   16.380(5)
_cell_length_c                   12.421(4)
_cell_angle_alpha                90
_cell_angle_beta                 108.642(4)
_cell_angle_gamma                90
_cell_volume                     1703.8
loop_
_atom_site_label
_atom_site_type_symbol
_atom_site_fract_x
_atom_site_fract_y
_atom_site_fract_z
Ag1 Ag 0.21108(2) 0.227215(11) 0.308700(17)
Fe1 Fe 0.0000 0.0000 0.0000
N1 N 0.1479(3) 0.07769(13) 0.13129(19)
N2 N 0.3488(3) 0.39703(13) 0.43493(18)
N3 N -0.0041(3) 0.19370(15) 0.3932(2)
N4 N -0.8581(3) 0.03159(13) 0.88285(19)
C1 C 0.2936(3) 0.33727(15) 0.3916(2)
C2 C 0.1854(3) 0.12760(15) 0.1995(2)
C3 C -0.0596(4) 0.11691(17) 0.3911(3)
H1 H -0.0213 0.0764 0.3516
C4 C -0.1687(3) 0.09425(17) 0.4430(2)
H2 H -0.2015 0.0389 0.4406
C5 C -0.2319(3) 0.15201(16) 0.4994(2)
C6 C -0.1748(4) 0.23266(16) 0.5013(3)
H3 H -0.2125 0.2747 0.5390
C7 C -0.0638(4) 0.24960(19) 0.4478(3)
H4 H -0.0271 0.3043 0.4497
C8 C -0.3490(3) 0.12968(16) 0.5572(2)
C9 C -0.3451(3) 0.05273(17) 0.6070(2)
H5 H -0.2691 0.0134 0.6011
C10 C -0.4499(3) 0.03333(16) 0.6645(2)
H6 H -0.4454 -0.0193 0.6975
C11 C -0.5632(3) 0.08988(16) 0.6754(2)
C12 C -0.5707(3) 0.16557(17) 0.6231(2)
H7 H -0.6490 0.2041 0.6271
C13 C -0.4650(3) 0.18541(16) 0.5650(2)
H8 H -0.4715 0.2375 0.5302
C14 C -0.6668(3) 0.06946(15) 0.7452(2)
C15 C -0.6172(3) 0.01483(18) 0.8350(2)
H9 H -0.5159 -0.0109 0.8522
C16 C -0.7151(3) -0.00229(18) 0.8996(3)
H10 H -0.6781 -0.0406 0.9598
C17 C -0.9079(3) 0.08373(16) 0.7945(2)
H11 H -1.0101 0.1082 0.7791
C18 C -0.8179(3) 0.10352(17) 0.7249(2)
H12 H -0.8593 0.1403 0.6633
Ag1B Ag -1.21108(2) -0.227215(11) 0.691300(17)
N1B N -1.1479(3) -0.07769(13) 0.86871(19)
N2B N -1.3488(3) -0.39703(13) 0.56507(18)
N3B N -0.9959(3) -0.19370(15) 0.6068(2)
N4B N -0.1419(3) -0.03159(13) 0.11715(19)
C1B C -1.2936(3) -0.33727(15) 0.6084(2)
C2B C -1.1854(3) -0.12760(15) 0.8005(2)
C3B C -0.9404(4) -0.11691(17) 0.6089(3)
H1B H -0.9787 -0.0764 0.6484
C4B C -0.8313(3) -0.09425(17) 0.5570(2)
H2B H -0.7985 -0.0389 0.5594
C5B C -0.7681(3) -0.15201(16) 0.5006(2)
C6B C -0.8252(4) -0.23266(16) 0.4987(3)
H3B H -0.7875 -0.2747 0.4610
C7B C -0.9362(4) -0.24960(19) 0.5522(3)
H4B H -0.9729 -0.3043 0.5503
C8B C -0.6510(3) -0.12968(16) 0.4428(2)
C9B C -0.6549(3) -0.05273(17) 0.3930(2)
H5B H -0.7309 -0.0134 0.3989
C10B C -0.5501(3) -0.03333(16) 0.3355(2)
H6B H -0.5546 0.0193 0.3025
C11B C -0.4368(3) -0.08988(16) 0.3246(2)
C12B C -0.4293(3) -0.16557(17) 0.3769(2)
H7B H -0.3510 -0.2041 0.3729
C13B C -0.5350(3) -0.18541(16) 0.4350(2)
H8B H -0.5285 -0.2375 0.4698
C14B C -0.3332(3) -0.06946(15) 0.2548(2)
C15B C -0.3828(3) -0.01483(18) 0.1650(2)
H9B H -0.4841 0.0109 0.1478
C16B C -0.2849(3) 0.00229(18) 0.1004(3)
H10B H -0.3219 0.0406 0.0402
C17B C -0.0921(3) -0.08373(16) 0.2055(2)
H11B H 0.0101 -0.1082 0.2209
C18B C -0.1821(3) -0.10352(17) 0.2751(2)
H12B H -0.1407 -0.1403 0.3367
Fe1_2 Fe -1.0000 0.0000 1.0000
Fe1A Fe -1.5000 -0.5000 0.5000
Fe1A_2 Fe 0.5000 0.5000 0.5000
N1B_2 N -0.1479(3) -0.07769(13) -0.13129(19)
N2A N 0.1512(3) -0.10297(13) 0.06507(18)
N2C N -0.1512(3) 0.10297(13) -0.06507(18)
N4_2 N 0.1419(3) 0.03159(13) -0.11715(19)
loop_
_geom_bond_atom_site_label_1
_geom_bond_atom_site_label_2
_geom_bond_site_symmetry_1
_geom_bond_site_symmetry_2
Ag1 N3 1_555 1_555
Fe1 N1 1_555 1_555
N1 C2 1_555 1_555
N2 C1 1_555 1_555
N3 C3 1_555 1_555
N4 C16 1_555 1_555
C1 Ag1 1_555 1_555
C2 Ag1 1_555 1_555
C3 H1 1_555 1_555
C4 C3 1_555 1_555
H2 C4 1_555 1_555
C5 C4 1_555 1_555
C6 C5 1_555 1_555
H3 C6 1_555 1_555
C7 N3 1_555 1_555
H4 C7 1_555 1_555
C8 C5 1_555 1_555
C9 C8 1_555 1_555
H5 C9 1_555 1_555
C10 C9 1_555 1_555
H6 C10 1_555 1_555
C11 C10 1_555 1_555
C12 C11 1_555 1_555
H7 C12 1_555 1_555
C13 C8 1_555 1_555
H8 C13 1_555 1_555
C14 C11 1_555 1_555
C15 C14 1_555 1_555
H9 C15 1_555 1_555
C16 C15 1_555 1_555
H10 C16 1_555 1_555
C17 N4 1_555 1_555
H11 C17 1_555 1_555
C18 C14 1_555 1_555
H12 C18 1_555 1_555
Ag1B N3B 1_555 1_555
N1B C2B 1_555 1_555
N2B C1B 1_555 1_555
N3B C3B 1_555 1_555
N4B Fe1 1_555 1_555
C1B Ag1B 1_555 1_555
C2B Ag1B 1_555 1_555
C3B H1B 1_555 1_555
C4B C3B 1_555 1_555
H2B C4B 1_555 1_555
C5B C4B 1_555 1_555
C6B C5B 1_555 1_555
H3B C6B 1_555 1_555
C7B N3B 1_555 1_555
H4B C7B 1_555 1_555
C8B C5B 1_555 1_555
C9B C8B 1_555 1_555
H5B C9B 1_555 1_555
C10B C9B 1_555 1_555
H6B C10B 1_555 1_555
C11B C10B 1_555 1_555
C12B C11B 1_555 1_555
H7B C12B 1_555 1_555
C13B C8B 1_555 1_555
H8B C13B 1_555 1_555
C14B C11B 1_555 1_555
C15B C14B 1_555 1_555
H9B C15B 1_555 1_555
C16B N4B 1_555 1_555
H10B C16B 1_555 1_555
C17B N4B 1_555 1_555
H11B C17B 1_555 1_555
C18B C14B 1_555 1_555
H12B C18B 1_555 1_555
Fe1_2 N4 1_555 1_555
Fe1A N2B 1_555 1_555
Fe1A_2 N2 1_555 1_555
N1B_2 Fe1 1_555 1_555
N2A Fe1 1_555 1_555
N2C Fe1 1_555 1_555
N4_2 Fe1 1_555 1_555
C6 C7 1_555 1_555
C12 C13 1_555 1_555
C17 C18 1_555 1_555
N1B Fe1_2 1_555 1_555
C6B C7B 1_555 1_555
C12B C13B 1_555 1_555
C15B C16B 1_555 1_555
C17B C18B 1_555 1_555

#END
