
#######################################################################
#
#                 Cambridge Crystallographic Data Centre
#                                CCDC 
#
#######################################################################
#
# If this CIF has been generated from an entry in the Cambridge 
# Structural Database, then it will include bibliographic, chemical, 
# crystal, experimental, refinement or atomic coordinate data resulting 
# from the CCDC's data processing and validation procedures.
#
#######################################################################

data_POHCAR
_symmetry_cell_setting           triclinic
_symmetry_space_group_name_H-M   'P -1'
_symmetry_Int_Tables_number      2
_space_group_name_Hall           '-P 1'
loop_
_symmetry_equiv_pos_site_id
_symmetry_equiv_pos_as_xyz
1 x,y,z
2 -x,-y,-z
_cell_length_a                   5.4354(7)
_cell_length_b                   11.6164(16)
_cell_length_c                   11.7959(16)
_cell_angle_alpha                97.877(2)
_cell_angle_beta                 94.011(2)
_cell_angle_gamma                101.7720(10)
_cell_volume                     718.555
loop_
_atom_site_label
_atom_site_type_symbol
_atom_site_fract_x
_atom_site_fract_y
_atom_site_fract_z
Cu1 Cu 1.04023(8) 0.96838(4) 0.70307(4)
Cu2 Cu 0.56042(8) 0.67070(4) 0.89561(4)
C1 C 0.8666(6) 0.8756(3) 0.8022(3)
C2 C 0.5180(6) 0.5427(3) 0.9805(3)
C3 C 1.9748(6) 1.4469(3) 0.1935(3)
H1 H 1.9606 1.4751 0.1238
C4 C 2.1966(6) 1.4866(3) 0.2632(3)
H2 H 2.3303 1.5396 0.2409
C5 C 2.2171(6) 1.4465(3) 0.3667(3)
H3 H 2.3645 1.4731 0.4164
C6 C 2.0172(5) 1.3663(3) 0.3964(3)
C7 C 1.7996(6) 1.3295(3) 0.3203(3)
H4 H 1.6645 1.2750 0.3396
C8 C 2.0423(6) 1.3276(3) 0.5089(3)
C9 C 1.9424(6) 1.2550(3) 0.6592(3)
C10 C 1.7835(6) 1.1954(3) 0.7373(3)
C11 C 1.8670(6) 1.2114(3) 0.8532(3)
H5 H 2.0262 1.2572 0.8814
C12 C 1.7070(7) 1.1575(3) 0.9260(3)
H6 H 1.7571 1.1663 1.0043
C13 C 1.4740(7) 1.0909(3) 0.8813(3)
H7 H 1.3676 1.0560 0.9313
C14 C 1.5466(6) 1.1259(3) 0.6992(3)
H8 H 1.4924 1.1152 0.6212
N1 N 0.7585(5) 0.8083(3) 0.8528(2)
N2 N 1.0061(6) 0.9905(3) 0.5481(2)
N3 N 1.7782(5) 1.3700(3) 0.2201(2)
N4 N 2.2431(5) 1.3533(2) 0.5790(2)
N5 N 2.1783(5) 1.3061(3) 0.6793(2)
N6 N 1.3909(5) 1.0732(2) 0.7691(2)
O1 O 1.8413(4) 1.26400(19) 0.55224(17)
Cu1A Cu 0.95977(8) 1.03162(4) 0.29693(4)
Cu2A Cu 1.43958(8) 1.32930(4) 0.10439(4)
Cu2A_2 Cu 0.43958(8) 0.32930(4) 1.10439(4)
C1A C 1.1334(6) 1.1244(3) 0.1978(3)
C2A C 0.4820(6) 0.4573(3) 1.0195(3)
C2A_2 C 1.4820(6) 1.4573(3) 0.0195(3)
C3A C 0.0252(6) 0.5531(3) 0.8065(3)
H1A H 0.0394 0.5249 0.8762
C4A C -0.1966(6) 0.5134(3) 0.7368(3)
H2A H -0.3303 0.4604 0.7591
C5A C -0.2171(6) 0.5535(3) 0.6333(3)
H3A H -0.3645 0.5269 0.5836
C6A C -0.0172(5) 0.6337(3) 0.6036(3)
C7A C 0.2004(6) 0.6705(3) 0.6797(3)
H4A H 0.3355 0.7250 0.6604
C8A C -0.0423(6) 0.6724(3) 0.4911(3)
C9A C 0.0576(6) 0.7450(3) 0.3408(3)
C10A C 0.2165(6) 0.8046(3) 0.2627(3)
C11A C 0.1330(6) 0.7886(3) 0.1468(3)
H5A H -0.0262 0.7428 0.1186
C12A C 0.2930(7) 0.8425(3) 0.0740(3)
H6A H 0.2429 0.8337 -0.0043
C13A C 0.5260(7) 0.9091(3) 0.1187(3)
H7A H 0.6324 0.9440 0.0687
C14A C 0.4534(6) 0.8741(3) 0.3008(3)
H8A H 0.5076 0.8848 0.3788
N1A N 1.2415(5) 1.1917(3) 0.1472(2)
N2A N 0.9939(6) 1.0095(3) 0.4519(2)
N3A N 0.2218(5) 0.6300(3) 0.7799(2)
N4A N -0.2431(5) 0.6467(2) 0.4210(2)
N5A N -0.1783(5) 0.6939(3) 0.3207(2)
N6A N 0.6091(5) 0.9268(2) 0.2309(2)
O1A O 0.1587(4) 0.73600(19) 0.44776(17)
loop_
_geom_bond_atom_site_label_1
_geom_bond_atom_site_label_2
_geom_bond_site_symmetry_1
_geom_bond_site_symmetry_2
Cu1 C1 1_555 1_555
Cu2 C2 1_555 1_555
C1 N1 1_555 1_555
C2 C2A 1_555 1_555
C3 H1 1_555 1_555
C4 C3 1_555 1_555
H2 C4 1_555 1_555
C5 C4 1_555 1_555
H3 C5 1_555 1_555
C6 C5 1_555 1_555
C7 C6 1_555 1_555
H4 C7 1_555 1_555
C8 C6 1_555 1_555
C9 C10 1_555 1_555
C10 C11 1_555 1_555
C11 H5 1_555 1_555
C12 C11 1_555 1_555
H6 C12 1_555 1_555
C13 C12 1_555 1_555
H7 C13 1_555 1_555
C14 C10 1_555 1_555
H8 C14 1_555 1_555
N1 Cu2 1_555 1_555
N2 Cu1 1_555 1_555
N3 C3 1_555 1_555
N4 C8 1_555 1_555
N5 C9 1_555 1_555
N6 Cu1 1_555 1_555
O1 C8 1_555 1_555
Cu1A C1A 1_555 1_555
Cu2A N3 1_555 1_555
Cu2A_2 C2A 1_555 1_555
C1A N1A 1_555 1_555
C2A_2 Cu2A 1_555 1_555
C3A H1A 1_555 1_555
C4A C3A 1_555 1_555
H2A C4A 1_555 1_555
C5A C4A 1_555 1_555
H3A C5A 1_555 1_555
C6A C5A 1_555 1_555
C7A C6A 1_555 1_555
H4A C7A 1_555 1_555
C8A C6A 1_555 1_555
C9A C10A 1_555 1_555
C10A C11A 1_555 1_555
C11A H5A 1_555 1_555
C12A C11A 1_555 1_555
H6A C12A 1_555 1_555
C13A C12A 1_555 1_555
H7A C13A 1_555 1_555
C14A C10A 1_555 1_555
H8A C14A 1_555 1_555
N1A Cu2A 1_555 1_555
N2A N2 1_555 1_555
N3A Cu2 1_555 1_555
N4A C8A 1_555 1_555
N5A C9A 1_555 1_555
N6A Cu1A 1_555 1_555
O1A C8A 1_555 1_555
C7 N3 1_555 1_555
C9 O1 1_555 1_555
C13 N6 1_555 1_555
C14 N6 1_555 1_555
N4 N5 1_555 1_555
Cu1A N2A 1_555 1_555
C3A N3A 1_555 1_555
C7A N3A 1_555 1_555
C9A O1A 1_555 1_555
C13A N6A 1_555 1_555
C14A N6A 1_555 1_555
N4A N5A 1_555 1_555

#END
