
#######################################################################
#
#                 Cambridge Crystallographic Data Centre
#                                CCDC 
#
#######################################################################
#
# If this CIF has been generated from an entry in the Cambridge 
# Structural Database, then it will include bibliographic, chemical, 
# crystal, experimental, refinement or atomic coordinate data resulting 
# from the CCDC's data processing and validation procedures.
#
#######################################################################

data_POHLUV
_symmetry_cell_setting           monoclinic
_symmetry_space_group_name_H-M   'P 21/c'
_symmetry_Int_Tables_number      14
_space_group_name_Hall           '-P 2ybc'
loop_
_symmetry_equiv_pos_site_id
_symmetry_equiv_pos_as_xyz
1 x,y,z
2 -x,1/2+y,1/2-z
3 -x,-y,-z
4 x,1/2-y,1/2+z
_cell_length_a                   8.728(5)
_cell_length_b                   18.911(10)
_cell_length_c                   9.289(6)
_cell_angle_alpha                90
_cell_angle_beta                 109.307(9)
_cell_angle_gamma                90
_cell_volume                     1446.97
loop_
_atom_site_label
_atom_site_type_symbol
_atom_site_fract_x
_atom_site_fract_y
_atom_site_fract_z
Tb1 Tb 0.20942(3) 0.446837(13) 0.48394(3)
O1 O 0.2652(8) 0.3803(3) 0.2826(7)
H1 H 0.3233 0.4070 0.2507
H2 H 0.3342 0.3413 0.3308
O2 O 0.3039(6) 0.5539(2) 0.6294(6)
H3 H 0.3972 0.5605 0.7123
H4 H 0.2155 0.5858 0.6290
O3 O 0.0060(5) 0.4646(2) 0.6206(5)
O4 O 0.2396(6) 0.4248(3) 0.7708(5)
O5 O -0.3251(5) 0.4833(2) 0.6603(5)
O6 O -0.5328(5) 0.4090(2) 0.6085(5)
O7 O -0.0379(5) 0.1180(2) 0.8455(5)
O8 O 0.1524(6) 0.1819(2) 1.0044(5)
C1 C 0.1049(7) 0.4521(3) 0.7545(7)
C2 C 0.0547(6) 0.4744(3) 0.8861(6)
C3 C -0.0660(7) 0.4376(3) 0.9224(7)
C4 C -0.1214(7) 0.4638(3) 1.0357(6)
H5 H -0.2032 0.4402 1.0597
C5 C -0.1284(7) 0.3676(3) 0.8448(6)
C6 C -0.2729(7) 0.3613(3) 0.7249(7)
C7 C -0.3184(8) 0.2947(3) 0.6596(8)
H6 H -0.4140 0.2902 0.5774
C8 C -0.2249(8) 0.2357(3) 0.7142(8)
H7 H -0.2560 0.1919 0.6682
C9 C -0.0826(7) 0.2423(3) 0.8396(7)
C10 C -0.0353(7) 0.3081(3) 0.9030(7)
H8 H 0.0599 0.3127 0.9856
C11 C 0.0166(7) 0.1773(3) 0.9009(7)
C12 C -0.3840(7) 0.4231(3) 0.6590(7)
O3B O -0.0060(5) 0.5354(2) 1.3794(5)
O4B O -0.2396(6) 0.5752(3) 1.2292(5)
O5B O 0.3251(5) 0.5167(2) 1.3397(5)
O6B O 0.5328(5) 0.5910(2) 1.3915(5)
O7B O 0.0379(5) 0.8820(2) 1.1545(5)
O8B O -0.1524(6) 0.8181(2) 0.9956(5)
C1B C -0.1049(7) 0.5479(3) 1.2455(7)
C2B C -0.0547(6) 0.5256(3) 1.1139(6)
C3B C 0.0660(7) 0.5624(3) 1.0776(7)
C4B C 0.1214(7) 0.5362(3) 0.9643(6)
H5B H 0.2032 0.5598 0.9403
C5B C 0.1284(7) 0.6324(3) 1.1552(6)
C6B C 0.2729(7) 0.6387(3) 1.2751(7)
C7B C 0.3184(8) 0.7053(3) 1.3404(8)
H6B H 0.4140 0.7098 1.4226
C8B C 0.2249(8) 0.7643(3) 1.2858(8)
H7B H 0.2560 0.8081 1.3318
C9B C 0.0826(7) 0.7577(3) 1.1604(7)
C10B C 0.0353(7) 0.6919(3) 1.0970(7)
H8B H -0.0599 0.6873 1.0144
C11B C -0.0166(7) 0.8227(3) 1.0991(7)
C12B C 0.3840(7) 0.5769(3) 1.3410(7)
Tb1B Tb -0.20942(3) 0.553163(13) 0.51606(3)
O1B O -0.2652(8) 0.6197(3) 0.7174(7)
H1B H -0.3233 0.5930 0.7493
H2B H -0.3342 0.6587 0.6692
O2B O -0.3039(6) 0.4461(2) 0.3706(6)
H3B H -0.3972 0.4395 0.2877
H4B H -0.2155 0.4142 0.3710
Tb1_2 Tb -0.79058(3) 0.446837(13) 0.48394(3)
Tb1_3 Tb 0.20942(3) 0.446837(13) 1.48394(3)
Tb1A Tb -0.20942(3) 0.946837(13) 1.01606(3)
Tb1B_2 Tb -0.20942(3) 0.553163(13) 1.51606(3)
Tb1B_3 Tb 0.79058(3) 0.553163(13) 1.51606(3)
Tb1C Tb 0.20942(3) 0.053163(13) 0.98394(3)
O3B_2 O -0.0060(5) 0.5354(2) 0.3794(5)
O4B_2 O -0.2396(6) 0.5752(3) 0.2292(5)
O5B_2 O 0.3251(5) 0.5167(2) 0.3397(5)
O6_2 O 0.4672(5) 0.4090(2) 0.6085(5)
O6B_2 O -0.4672(5) 0.5910(2) 0.3915(5)
O7A O 0.0379(5) 0.6180(2) 0.6545(5)
O7C O -0.0379(5) 0.3820(2) 0.3455(5)
O8A O -0.1524(6) 0.6819(2) 0.4956(5)
O8C O 0.1524(6) 0.3181(2) 0.5044(5)
O9 O 0.5387(13) 0.5903(6) 0.9213(11)
O10 O 0.3543(16) 0.2360(6) 0.2991(13)
loop_
_geom_bond_atom_site_label_1
_geom_bond_atom_site_label_2
_geom_bond_site_symmetry_1
_geom_bond_site_symmetry_2
Tb1 O1 1_555 1_555
O1 H1 1_555 1_555
H2 O1 1_555 1_555
O2 Tb1 1_555 1_555
H3 O2 1_555 1_555
H4 O2 1_555 1_555
O3 Tb1 1_555 1_555
O4 Tb1 1_555 1_555
O5 C12 1_555 1_555
O6 C12 1_555 1_555
O7 C11 1_555 1_555
O8 C11 1_555 1_555
C1 O3 1_555 1_555
C2 C1 1_555 1_555
C3 C2 1_555 1_555
C4 C3 1_555 1_555
H5 C4 1_555 1_555
C5 C3 1_555 1_555
C6 C5 1_555 1_555
C7 C6 1_555 1_555
H6 C7 1_555 1_555
C8 C7 1_555 1_555
H7 C8 1_555 1_555
C9 C8 1_555 1_555
C10 C5 1_555 1_555
H8 C10 1_555 1_555
C11 C9 1_555 1_555
C12 C6 1_555 1_555
O3B C1B 1_555 1_555
O4B C1B 1_555 1_555
O5B C12B 1_555 1_555
O6B C12B 1_555 1_555
O7B C11B 1_555 1_555
O8B C11B 1_555 1_555
C1B C2B 1_555 1_555
C2B C4 1_555 1_555
C3B C2B 1_555 1_555
C4B C2 1_555 1_555
H5B C4B 1_555 1_555
C5B C3B 1_555 1_555
C6B C5B 1_555 1_555
C7B C6B 1_555 1_555
H6B C7B 1_555 1_555
C8B C7B 1_555 1_555
H7B C8B 1_555 1_555
C9B C8B 1_555 1_555
C10B C5B 1_555 1_555
H8B C10B 1_555 1_555
C11B C9B 1_555 1_555
C12B C6B 1_555 1_555
Tb1B O3 1_555 1_555
O1B Tb1B 1_555 1_555
H1B O1B 1_555 1_555
H2B O1B 1_555 1_555
O2B Tb1B 1_555 1_555
H3B O2B 1_555 1_555
H4B O2B 1_555 1_555
Tb1_2 O6 1_555 1_555
Tb1_3 O3B 1_555 1_555
Tb1A O7B 1_555 1_555
Tb1B_2 O3B 1_555 1_555
Tb1B_3 O6B 1_555 1_555
Tb1C O7 1_555 1_555
O3B_2 Tb1 1_555 1_555
O4B_2 Tb1B 1_555 1_555
O5B_2 Tb1 1_555 1_555
O6_2 Tb1 1_555 1_555
O6B_2 Tb1B 1_555 1_555
O7A Tb1B 1_555 1_555
O7C Tb1 1_555 1_555
O8A Tb1B 1_555 1_555
O8C Tb1 1_555 1_555
O4 C1 1_555 1_555
O5 Tb1B 1_555 1_555
O8 Tb1C 1_555 1_555
C9 C10 1_555 1_555
O4B Tb1B_2 1_555 1_555
O5B Tb1_3 1_555 1_555
O8B Tb1A 1_555 1_555
C3B C4B 1_555 1_555
C9B C10B 1_555 1_555
Tb1B O3B_2 1_555 1_555

#END
