
#######################################################################
#
#                 Cambridge Crystallographic Data Centre
#                                CCDC 
#
#######################################################################
#
# If this CIF has been generated from an entry in the Cambridge 
# Structural Database, then it will include bibliographic, chemical, 
# crystal, experimental, refinement or atomic coordinate data resulting 
# from the CCDC's data processing and validation procedures.
#
#######################################################################

data_POHMAB
_symmetry_cell_setting           triclinic
_symmetry_space_group_name_H-M   'P -1'
_symmetry_Int_Tables_number      2
_space_group_name_Hall           '-P 1'
loop_
_symmetry_equiv_pos_site_id
_symmetry_equiv_pos_as_xyz
1 x,y,z
2 -x,-y,-z
_cell_length_a                   12.2369(15)
_cell_length_b                   13.4590(16)
_cell_length_c                   19.132(2)
_cell_angle_alpha                78.636(2)
_cell_angle_beta                 75.502(2)
_cell_angle_gamma                69.381(2)
_cell_volume                     2834.53
loop_
_atom_site_label
_atom_site_type_symbol
_atom_site_fract_x
_atom_site_fract_y
_atom_site_fract_z
Ni1 Ni 0.60137(4) 0.36703(4) 1.11016(2)
Ni2 Ni 0.79722(4) 0.62585(4) 0.70499(3)
Ni3 Ni 0.05263(4) 0.19858(4) 0.70113(3)
C1 C 0.6655(3) 0.5685(3) 1.0256(2)
H1 H 0.6377 0.5601 0.9869
C2 C 0.7182(4) 0.6478(3) 1.0165(3)
H2 H 0.7221 0.6930 0.9731
C3 C 0.7642(4) 0.6591(4) 1.0718(3)
H3 H 0.8012 0.7107 1.0658
C4 C 0.7547(4) 0.5919(3) 1.1373(3)
C5 C 0.8002(4) 0.5964(4) 1.1988(3)
H4 H 0.8403 0.6450 1.1952
C6 C 0.7860(4) 0.5322(4) 1.2609(3)
H5 H 0.8169 0.5367 1.2995
C7 C 0.7240(4) 0.4569(4) 1.2692(2)
C8 C 0.7018(4) 0.3898(4) 1.3332(3)
H6 H 0.7279 0.3927 1.3742
C9 C 0.6425(4) 0.3203(4) 1.3359(2)
H7 H 0.6242 0.2784 1.3791
C10 C 0.6092(4) 0.3126(4) 1.2731(2)
H8 H 0.5718 0.2626 1.2747
C11 C 0.6837(3) 0.4468(3) 1.2091(2)
C12 C 0.6972(3) 0.5164(3) 1.1426(2)
C13 C 0.6084(3) 0.3342(3) 0.88718(19)
C14 C 0.6177(3) 0.3980(3) 0.82037(19)
C15 C 0.5871(3) 0.3723(3) 0.76237(19)
H9 H 0.5965 0.4124 0.7171
C16 C 0.5432(3) 0.2885(3) 0.77117(19)
H10 H 0.5219 0.2737 0.7319
C17 C 0.5302(3) 0.2254(3) 0.83817(19)
C18 C 0.5652(3) 0.2494(3) 0.89527(19)
H11 H 0.5594 0.2073 0.9400
C19 C 0.4803(3) 0.1370(3) 0.84809(19)
C20 C 0.5195(3) 0.0434(3) 0.8946(2)
H12 H 0.5731 0.0387 0.9230
C21 C 0.4797(3) -0.0423(3) 0.8989(2)
H13 H 0.5095 -0.1050 0.9286
C22 C 0.3962(3) -0.0362(3) 0.8597(2)
C23 C 0.3504(3) 0.0587(3) 0.81585(19)
C24 C 0.3943(3) 0.1427(3) 0.81017(19)
H14 H 0.3652 0.2050 0.7800
C25 C 0.6477(3) 0.3559(3) 0.9500(2)
C26 C 0.6513(3) 0.4975(3) 0.81031(19)
C27 C 0.2629(3) 0.0675(3) 0.7701(2)
C28 C 0.3490(3) -0.1287(3) 0.8702(2)
C29 C -0.0614(5) 0.0545(4) 0.8215(3)
H15 H -0.0096 0.0550 0.8496
C30 C -0.1341(5) -0.0100(5) 0.8488(4)
H16 H -0.1327 -0.0493 0.8945
C31 C -0.2065(5) -0.0138(5) 0.8072(4)
H17 H -0.2520 -0.0596 0.8229
C32 C -0.2132(4) 0.0507(4) 0.7405(4)
C33 C -0.2901(5) 0.0545(6) 0.6929(5)
H18 H -0.3378 0.0105 0.7060
C34 C -0.2940(5) 0.1200(6) 0.6304(4)
H19 H -0.3457 0.1214 0.6017
C35 C -0.2211(4) 0.1877(4) 0.6066(3)
C36 C -0.2212(5) 0.2593(5) 0.5425(3)
H20 H -0.2721 0.2655 0.5118
C37 C -0.1478(5) 0.3193(5) 0.5249(3)
H21 H -0.1489 0.3672 0.4826
C38 C -0.0705(4) 0.3092(4) 0.5702(2)
H22 H -0.0185 0.3491 0.5567
C39 C -0.1437(4) 0.1841(4) 0.6507(3)
C40 C -0.1398(4) 0.1152(4) 0.7186(3)
C41 C 0.6887(3) 0.6637(3) 0.4431(2)
C42 C 0.6810(3) 0.6063(3) 0.51249(19)
C43 C 0.6059(3) 0.5449(3) 0.5344(2)
H23 H 0.6012 0.5078 0.5810
C44 C 0.5367(3) 0.5365(3) 0.4889(2)
C45 C 0.5416(4) 0.5993(3) 0.4217(2)
H24 H 0.4933 0.5995 0.3910
C46 C 0.6156(4) 0.6607(3) 0.3994(2)
H25 H 0.6167 0.7012 0.3540
C47 C 0.7679(4) 0.7321(3) 0.4170(2)
C48 C 0.7622(4) 0.6048(3) 0.5614(2)
C49 C 0.8917(3) 0.5639(3) 0.8470(2)
H26 H 0.8514 0.5139 0.8598
C50 C 0.9554(4) 0.5722(3) 0.8948(2)
H27 H 0.9576 0.5281 0.9388
C51 C 1.0148(4) 0.6452(3) 0.8774(2)
H28 H 1.0562 0.6524 0.9097
C52 C 1.0130(3) 0.7089(3) 0.8105(2)
C53 C 1.0764(4) 0.7845(3) 0.7851(3)
H29 H 1.1204 0.7940 0.8150
C54 C 1.0741(4) 0.8417(4) 0.7199(3)
H30 H 1.1181 0.8888 0.7049
C55 C 1.0051(4) 0.8322(3) 0.6720(2)
C56 C 0.9956(4) 0.8925(3) 0.6040(3)
H31 H 1.0373 0.9411 0.5861
C57 C 0.9248(4) 0.8795(3) 0.5643(2)
H32 H 0.9165 0.9204 0.5196
C58 C 0.8646(4) 0.8046(3) 0.5908(2)
H33 H 0.8172 0.7963 0.5627
C59 C 0.9413(3) 0.7597(3) 0.6948(2)
C60 C 0.9472(3) 0.6955(3) 0.7647(2)
N1 N 0.6536(3) 0.5047(2) 1.08708(17)
N2 N 0.6290(3) 0.3740(3) 1.21136(17)
N3 N 0.8722(3) 0.7451(2) 0.65424(17)
N4 N 0.8862(3) 0.6244(2) 0.78353(16)
N5 N -0.0621(3) 0.1149(3) 0.7580(2)
N6 N -0.0691(3) 0.2440(3) 0.6324(2)
O1 O 0.5767(2) 0.3603(2) 1.01025(13)
O2 O 0.7496(2) 0.3650(2) 0.93731(15)
O3 O 0.5877(2) 0.57101(19) 0.84859(13)
O4 O 0.7418(2) 0.50056(19) 0.76193(13)
O5 O 0.1693(2) 0.1468(2) 0.77300(14)
O6 O 0.2912(3) -0.0054(2) 0.73069(17)
O7 O 0.4239(2) -0.21953(19) 0.85979(14)
O8 O 0.2392(3) -0.1082(2) 0.89052(19)
O9 O 0.8442(2) 0.7115(2) 0.35979(15)
O10 O 0.7511(3) 0.8057(2) 0.45340(15)
O11 O 0.8703(3) 0.5788(2) 0.53444(15)
O12 O 0.7124(2) 0.6281(2) 0.62497(15)
O13 O 0.7859(2) 0.2951(2) 1.07398(14)
H34 H 0.8011 0.2303 1.0766
O14 O -0.0382(3) 0.3290(3) 0.7593(2)
O15 O 0.1435(2) 0.0684(2) 0.64065(15)
H35 H 0.1871 0.0867 0.6041
O16 O 0.9642(3) 0.5205(2) 0.65105(16)
H36 H 0.9680 0.4581 0.6655
O17 O 0.6550(3) 0.7435(2) 0.75454(15)
H37 H 0.6208 0.7857 0.7236
H44 H 0.7876 0.3283 1.0255
H45 H -0.1157 0.3649 0.7527
H46 H 0.2071 0.0269 0.6670
H47 H 1.0448 0.5177 0.6169
H48 H 0.6080 0.6983 0.7951
H49 H -0.046(5) 0.319(5) 0.796(3)
Ni1A Ni 0.39863(4) 0.63297(4) 0.88984(2)
Ni1A_2 Ni 0.39863(4) -0.36703(4) 0.88984(2)
Ni1_2 Ni 0.60137(4) 1.36703(4) 1.11016(2)
Ni2A Ni 0.20278(4) 0.37415(4) 1.29501(3)
Ni2A_2 Ni 0.20278(4) 0.37415(4) 0.29501(3)
Ni3A Ni 0.94737(4) 0.80142(4) 1.29887(3)
Ni3A_2 Ni 0.94737(4) 0.80142(4) 0.29887(3)
C1A C 0.3345(3) 0.4315(3) 0.9744(2)
H1A H 0.3623 0.4399 1.0131
C2A C 0.2818(4) 0.3522(3) 0.9835(3)
H2A H 0.2779 0.3070 1.0269
C3A C 0.2358(4) 0.3409(4) 0.9282(3)
H3A H 0.1988 0.2893 0.9342
C4A C 0.2453(4) 0.4081(3) 0.8627(3)
C5A C 0.1998(4) 0.4036(4) 0.8012(3)
H4A H 0.1597 0.3550 0.8048
C6A C 0.2140(4) 0.4678(4) 0.7391(3)
H5A H 0.1831 0.4633 0.7005
C7A C 0.2760(4) 0.5431(4) 0.7308(2)
C8A C 0.2982(4) 0.6102(4) 0.6668(3)
H6A H 0.2721 0.6073 0.6258
C9A C 0.3575(4) 0.6797(4) 0.6641(2)
H7A H 0.3758 0.7216 0.6209
C10A C 0.3908(4) 0.6874(4) 0.7269(2)
H8A H 0.4282 0.7374 0.7253
C11A C 0.3163(3) 0.5532(3) 0.7909(2)
C12A C 0.3028(3) 0.4836(3) 0.8574(2)
C13A C 0.3916(3) 0.6658(3) 1.11282(19)
C14A C 0.3823(3) 0.6020(3) 1.17963(19)
C15A C 0.4129(3) 0.6277(3) 1.23763(19)
H9A H 0.4035 0.5876 1.2829
C16A C 0.4568(3) 0.7115(3) 1.22883(19)
H10A H 0.4781 0.7263 1.2681
C17A C 0.4698(3) 0.7746(3) 1.16183(19)
C18A C 0.4348(3) 0.7506(3) 1.10473(19)
H11A H 0.4406 0.7927 1.0600
C19A C 0.5197(3) 0.8630(3) 1.15191(19)
C20A C 0.4805(3) 0.9566(3) 1.1054(2)
H12A H 0.4269 0.9613 1.0770
C21A C 0.5203(3) 1.0423(3) 1.1011(2)
H13A H 0.4905 1.1050 1.0714
C22A C 0.6038(3) 1.0362(3) 1.1403(2)
C23A C 0.6496(3) 0.9413(3) 1.18415(19)
C24A C 0.6057(3) 0.8573(3) 1.18983(19)
H14A H 0.6348 0.7950 1.2200
C25A C 0.3523(3) 0.6441(3) 1.0500(2)
C26A C 0.3487(3) 0.5025(3) 1.18969(19)
C27A C 0.7371(3) 0.9325(3) 1.2299(2)
C28A C 0.6510(3) 1.1287(3) 1.1298(2)
C29A C 1.0614(5) 0.9455(4) 1.1785(3)
H15A H 1.0096 0.9450 1.1504
C30A C 1.1341(5) 1.0100(5) 1.1512(4)
H16A H 1.1327 1.0493 1.1055
C31A C 1.2065(5) 1.0138(5) 1.1928(4)
H17A H 1.2520 1.0596 1.1771
C32A C 1.2132(4) 0.9493(4) 1.2595(4)
C33A C 1.2901(5) 0.9455(6) 1.3071(5)
H18A H 1.3378 0.9895 1.2940
C34A C 1.2940(5) 0.8800(6) 1.3696(4)
H19A H 1.3457 0.8786 1.3983
C35A C 1.2211(4) 0.8123(4) 1.3934(3)
C36A C 1.2212(5) 0.7407(5) 1.4575(3)
H20A H 1.2721 0.7345 1.4882
C37A C 1.1478(5) 0.6807(5) 1.4751(3)
H21A H 1.1489 0.6328 1.5174
C38A C 1.0705(4) 0.6908(4) 1.4298(2)
H22A H 1.0185 0.6509 1.4433
C39A C 1.1437(4) 0.8159(4) 1.3493(3)
C40A C 1.1398(4) 0.8848(4) 1.2814(3)
C41A C 0.3113(3) 0.3363(3) 0.5569(2)
C42A C 0.3190(3) 0.3937(3) 0.48751(19)
C43A C 0.3941(3) 0.4551(3) 0.4656(2)
H23A H 0.3988 0.4922 0.4190
C44A C 0.4633(3) 0.4635(3) 0.5111(2)
C45A C 0.4584(4) 0.4007(3) 0.5783(2)
H24A H 0.5067 0.4005 0.6090
C46A C 0.3844(4) 0.3393(3) 0.6006(2)
H25A H 0.3833 0.2988 0.6460
C47A C 0.2321(4) 0.2679(3) 0.5830(2)
C48A C 0.2378(4) 0.3952(3) 0.4386(2)
C49A C 0.1083(3) 0.4361(3) 1.1530(2)
H26A H 0.1486 0.4861 1.1402
C50A C 0.0446(4) 0.4278(3) 1.1052(2)
H27A H 0.0424 0.4719 1.0612
C51A C -0.0148(4) 0.3548(3) 1.1226(2)
H28A H -0.0562 0.3476 1.0903
C52A C -0.0130(3) 0.2911(3) 1.1895(2)
C53A C -0.0764(4) 0.2155(3) 1.2149(3)
H29A H -0.1204 0.2060 1.1850
C54A C -0.0741(4) 0.1583(4) 1.2801(3)
H30A H -0.1181 0.1112 1.2951
C55A C -0.0051(4) 0.1678(3) 1.3280(2)
C56A C 0.0044(4) 0.1075(3) 1.3960(3)
H31A H -0.0373 0.0589 1.4139
C57A C 0.0752(4) 0.1205(3) 1.4357(2)
H32A H 0.0835 0.0796 1.4804
C58A C 0.1354(4) 0.1954(3) 1.4092(2)
H33A H 0.1828 0.2037 1.4373
C59A C 0.0587(3) 0.2403(3) 1.3052(2)
C60A C 0.0528(3) 0.3045(3) 1.2353(2)
N1A N 0.3464(3) 0.4953(2) 0.91292(17)
N2A N 0.3710(3) 0.6260(3) 0.78864(17)
N3A N 0.1278(3) 0.2549(2) 1.34576(17)
N4A N 0.1138(3) 0.3756(2) 1.21647(16)
N5A N 1.0621(3) 0.8851(3) 1.2420(2)
N6A N 1.0691(3) 0.7560(3) 1.3676(2)
O1A O 0.4233(2) 0.6397(2) 0.98975(13)
O2A O 0.2504(2) 0.6350(2) 1.06269(15)
O3A O 0.4123(2) 0.42899(19) 1.15141(13)
O4A O 0.2582(2) 0.49944(19) 1.23807(13)
O5A O 0.8307(2) 0.8532(2) 1.22700(14)
O6A O 0.7088(3) 1.0054(2) 1.26931(17)
O7A O 0.5761(2) 1.21953(19) 1.14021(14)
O7A_2 O 0.5761(2) 0.21953(19) 1.14021(14)
O7_2 O 0.4239(2) 0.78047(19) 0.85979(14)
O8A O 0.7608(3) 1.1082(2) 1.10948(19)
O9A O 0.1558(2) 0.2885(2) 0.64021(15)
O9_2 O 0.8442(2) 0.7115(2) 1.35979(15)
O10A O 0.2489(3) 0.1943(2) 0.54660(15)
O11A O 0.1297(3) 0.4212(2) 0.46556(15)
O12A O 0.2876(2) 0.3719(2) 0.37503(15)
O12A_2 O 0.2876(2) 0.3719(2) 1.37503(15)
O13A O 0.2141(2) 0.7049(2) 0.92602(14)
H34A H 0.1989 0.7697 0.9234
O14A O 1.0382(3) 0.6710(3) 1.2407(2)
O15A O 0.8565(2) 0.9316(2) 1.35935(15)
H35A H 0.8129 0.9133 1.3959
O16A O 0.0358(3) 0.4795(2) 1.34895(16)
H36A H 0.0320 0.5419 1.3345
O17A O 0.3450(3) 0.2565(2) 1.24546(15)
H37A H 0.3792 0.2143 1.2764
H44A H 0.2124 0.6717 0.9745
H45A H 1.1157 0.6351 1.2473
H46A H 0.7929 0.9731 1.3330
H47A H -0.0448 0.4823 1.3831
H48A H 0.3920 0.3017 1.2049
H49A H 1.046(5) 0.681(5) 1.204(3)
O18 O 0.9936(4) 0.2735(4) 0.9009(2)
H40 H 1.0384 0.2124 0.9227
H41 H 0.9221 0.2778 0.9208
O19 O 0.0849(5) 0.0555(5) 0.9706(3)
H42 H 0.0606 0.1069 0.9444
H43 H 0.1482 0.0078 0.9502
O20 O 0.4685(3) 0.0871(3) 0.3275(2)
H38 H 0.5450 0.0623 0.3121
H39 H 0.4952 0.1142 0.3550
O21 O 0.4594(17) 0.0787(17) 0.4727(5)
O22? O 0.4530(11) 0.0576(10) 0.4497(8)
loop_
_geom_bond_atom_site_label_1
_geom_bond_atom_site_label_2
_geom_bond_site_symmetry_1
_geom_bond_site_symmetry_2
Ni1 N1 1_555 1_555
Ni2 N3 1_555 1_555
Ni3 N5 1_555 1_555
C1 H1 1_555 1_555
C2 C1 1_555 1_555
H2 C2 1_555 1_555
C3 C2 1_555 1_555
H3 C3 1_555 1_555
C4 C3 1_555 1_555
C5 C4 1_555 1_555
H4 C5 1_555 1_555
C6 C5 1_555 1_555
H5 C6 1_555 1_555
C7 C6 1_555 1_555
C8 C7 1_555 1_555
H6 C8 1_555 1_555
C9 C8 1_555 1_555
H7 C9 1_555 1_555
C10 C9 1_555 1_555
H8 C10 1_555 1_555
C11 C7 1_555 1_555
C12 C4 1_555 1_555
C13 C14 1_555 1_555
C14 C15 1_555 1_555
C15 H9 1_555 1_555
C16 C15 1_555 1_555
H10 C16 1_555 1_555
C17 C16 1_555 1_555
C18 C13 1_555 1_555
H11 C18 1_555 1_555
C19 C17 1_555 1_555
C20 C19 1_555 1_555
H12 C20 1_555 1_555
C21 C20 1_555 1_555
H13 C21 1_555 1_555
C22 C21 1_555 1_555
C23 C22 1_555 1_555
C24 C19 1_555 1_555
H14 C24 1_555 1_555
C25 C13 1_555 1_555
C26 C14 1_555 1_555
C27 C23 1_555 1_555
C28 C22 1_555 1_555
C29 H15 1_555 1_555
C30 C29 1_555 1_555
H16 C30 1_555 1_555
C31 C30 1_555 1_555
H17 C31 1_555 1_555
C32 C31 1_555 1_555
C33 C32 1_555 1_555
H18 C33 1_555 1_555
C34 C33 1_555 1_555
H19 C34 1_555 1_555
C35 C34 1_555 1_555
C36 C35 1_555 1_555
H20 C36 1_555 1_555
C37 C36 1_555 1_555
H21 C37 1_555 1_555
C38 C37 1_555 1_555
H22 C38 1_555 1_555
C39 C35 1_555 1_555
C40 C32 1_555 1_555
C41 C42 1_555 1_555
C42 C43 1_555 1_555
C43 H23 1_555 1_555
C44 C43 1_555 1_555
C45 C44 1_555 1_555
H24 C45 1_555 1_555
C46 C41 1_555 1_555
H25 C46 1_555 1_555
C47 C41 1_555 1_555
C48 C42 1_555 1_555
C49 H26 1_555 1_555
C50 C49 1_555 1_555
H27 C50 1_555 1_555
C51 C50 1_555 1_555
H28 C51 1_555 1_555
C52 C51 1_555 1_555
C53 C52 1_555 1_555
H29 C53 1_555 1_555
C54 C53 1_555 1_555
H30 C54 1_555 1_555
C55 C54 1_555 1_555
C56 C55 1_555 1_555
H31 C56 1_555 1_555
C57 C56 1_555 1_555
H32 C57 1_555 1_555
C58 C57 1_555 1_555
H33 C58 1_555 1_555
C59 C55 1_555 1_555
C60 C52 1_555 1_555
N1 C1 1_555 1_555
N2 Ni1 1_555 1_555
N3 C58 1_555 1_555
N4 Ni2 1_555 1_555
N5 C29 1_555 1_555
N6 Ni3 1_555 1_555
O1 Ni1 1_555 1_555
O2 C25 1_555 1_555
O3 C26 1_555 1_555
O4 Ni2 1_555 1_555
O5 Ni3 1_555 1_555
O6 C27 1_555 1_555
O7 C28 1_555 1_555
O8 C28 1_555 1_555
O9 C47 1_555 1_555
O10 C47 1_555 1_555
O11 C48 1_555 1_555
O12 Ni2 1_555 1_555
O13 Ni1 1_555 1_555
H34 O13 1_555 1_555
O14 Ni3 1_555 1_555
O15 Ni3 1_555 1_555
H35 O15 1_555 1_555
O16 Ni2 1_555 1_555
H36 O16 1_555 1_555
O17 Ni2 1_555 1_555
H37 O17 1_555 1_555
O18 H40 1_555 1_555
O19 H42 1_555 1_555
O20 H38 1_555 1_555
H39 O20 1_555 1_555
H41 O18 1_555 1_555
H43 O19 1_555 1_555
H44 O13 1_555 1_555
H45 O14 1_555 1_555
H46 O15 1_555 1_555
H47 O16 1_555 1_555
H48 O17 1_555 1_555
H49 O14 1_555 1_555
Ni1A O3 1_555 1_555
Ni1A_2 O7 1_555 1_555
Ni1_2 O7A 1_555 1_555
Ni2A N3A 1_555 1_555
Ni2A_2 O12A 1_555 1_555
Ni3A N5A 1_555 1_555
Ni3A_2 O9 1_555 1_555
C1A H1A 1_555 1_555
C2A C1A 1_555 1_555
H2A C2A 1_555 1_555
C3A C2A 1_555 1_555
H3A C3A 1_555 1_555
C4A C3A 1_555 1_555
C5A C4A 1_555 1_555
H4A C5A 1_555 1_555
C6A C5A 1_555 1_555
H5A C6A 1_555 1_555
C7A C6A 1_555 1_555
C8A C7A 1_555 1_555
H6A C8A 1_555 1_555
C9A C8A 1_555 1_555
H7A C9A 1_555 1_555
C10A C9A 1_555 1_555
H8A C10A 1_555 1_555
C11A C7A 1_555 1_555
C12A C4A 1_555 1_555
C13A C14A 1_555 1_555
C14A C15A 1_555 1_555
C15A H9A 1_555 1_555
C16A C15A 1_555 1_555
H10A C16A 1_555 1_555
C17A C16A 1_555 1_555
C18A C13A 1_555 1_555
H11A C18A 1_555 1_555
C19A C17A 1_555 1_555
C20A C19A 1_555 1_555
H12A C20A 1_555 1_555
C21A C20A 1_555 1_555
H13A C21A 1_555 1_555
C22A C21A 1_555 1_555
C23A C22A 1_555 1_555
C24A C19A 1_555 1_555
H14A C24A 1_555 1_555
C25A C13A 1_555 1_555
C26A C14A 1_555 1_555
C27A C23A 1_555 1_555
C28A C22A 1_555 1_555
C29A H15A 1_555 1_555
C30A C29A 1_555 1_555
H16A C30A 1_555 1_555
C31A C30A 1_555 1_555
H17A C31A 1_555 1_555
C32A C31A 1_555 1_555
C33A C32A 1_555 1_555
H18A C33A 1_555 1_555
C34A C33A 1_555 1_555
H19A C34A 1_555 1_555
C35A C34A 1_555 1_555
C36A C35A 1_555 1_555
H20A C36A 1_555 1_555
C37A C36A 1_555 1_555
H21A C37A 1_555 1_555
C38A C37A 1_555 1_555
H22A C38A 1_555 1_555
C39A C35A 1_555 1_555
C40A C32A 1_555 1_555
C41A C42A 1_555 1_555
C42A C43A 1_555 1_555
C43A H23A 1_555 1_555
C44A C44 1_555 1_555
C45A C44A 1_555 1_555
H24A C45A 1_555 1_555
C46A C41A 1_555 1_555
H25A C46A 1_555 1_555
C47A C41A 1_555 1_555
C48A C42A 1_555 1_555
C49A H26A 1_555 1_555
C50A C49A 1_555 1_555
H27A C50A 1_555 1_555
C51A C50A 1_555 1_555
H28A C51A 1_555 1_555
C52A C51A 1_555 1_555
C53A C52A 1_555 1_555
H29A C53A 1_555 1_555
C54A C53A 1_555 1_555
H30A C54A 1_555 1_555
C55A C54A 1_555 1_555
C56A C55A 1_555 1_555
H31A C56A 1_555 1_555
C57A C56A 1_555 1_555
H32A C57A 1_555 1_555
C58A C57A 1_555 1_555
H33A C58A 1_555 1_555
C59A C55A 1_555 1_555
C60A C52A 1_555 1_555
N1A Ni1A 1_555 1_555
N2A Ni1A 1_555 1_555
N3A C58A 1_555 1_555
N4A Ni2A 1_555 1_555
N5A C29A 1_555 1_555
N6A Ni3A 1_555 1_555
O1A Ni1A 1_555 1_555
O2A C25A 1_555 1_555
O3A Ni1 1_555 1_555
O4A Ni2A 1_555 1_555
O5A Ni3A 1_555 1_555
O6A C27A 1_555 1_555
O7A C28A 1_555 1_555
O7A_2 Ni1 1_555 1_555
O7_2 Ni1A 1_555 1_555
O8A C28A 1_555 1_555
O9A Ni3 1_555 1_555
O9_2 Ni3A 1_555 1_555
O10A C47A 1_555 1_555
O11A C48A 1_555 1_555
O12A C48A 1_555 1_555
O12A_2 Ni2A 1_555 1_555
O13A Ni1A 1_555 1_555
H34A O13A 1_555 1_555
O14A Ni3A 1_555 1_555
O15A Ni3A 1_555 1_555
H35A O15A 1_555 1_555
O16A Ni2A 1_555 1_555
H36A O16A 1_555 1_555
O17A Ni2A 1_555 1_555
H37A O17A 1_555 1_555
H44A O13A 1_555 1_555
H45A O14A 1_555 1_555
H46A O15A 1_555 1_555
H47A O16A 1_555 1_555
H48A O17A 1_555 1_555
H49A O14A 1_555 1_555
C10 N2 1_555 1_555
C11 C12 1_555 1_555
C11 N2 1_555 1_555
C12 N1 1_555 1_555
C17 C18 1_555 1_555
C23 C24 1_555 1_555
C25 O1 1_555 1_555
C26 O4 1_555 1_555
C27 O5 1_555 1_555
C38 N6 1_555 1_555
C39 C40 1_555 1_555
C39 N6 1_555 1_555
C40 N5 1_555 1_555
C45 C46 1_555 1_555
C48 O12 1_555 1_555
C49 N4 1_555 1_555
C59 C60 1_555 1_555
C59 N3 1_555 1_555
C60 N4 1_555 1_555
C1A N1A 1_555 1_555
C10A N2A 1_555 1_555
C11A C12A 1_555 1_555
C11A N2A 1_555 1_555
C12A N1A 1_555 1_555
C17A C18A 1_555 1_555
C23A C24A 1_555 1_555
C25A O1A 1_555 1_555
C26A O3A 1_555 1_555
C26A O4A 1_555 1_555
C27A O5A 1_555 1_555
C38A N6A 1_555 1_555
C39A C40A 1_555 1_555
C39A N6A 1_555 1_555
C40A N5A 1_555 1_555
C43A C44A 1_555 1_555
C45A C46A 1_555 1_555
C47A O9A 1_555 1_555
C49A N4A 1_555 1_555
C59A C60A 1_555 1_555
C59A N3A 1_555 1_555
C60A N4A 1_555 1_555

#END
