
#######################################################################
#
#                 Cambridge Crystallographic Data Centre
#                                CCDC 
#
#######################################################################
#
# If this CIF has been generated from an entry in the Cambridge 
# Structural Database, then it will include bibliographic, chemical, 
# crystal, experimental, refinement or atomic coordinate data resulting 
# from the CCDC's data processing and validation procedures.
#
#######################################################################

data_POHREK
_symmetry_cell_setting           orthorhombic
_symmetry_space_group_name_H-M   'C c c a'
_symmetry_Int_Tables_number      68
_space_group_name_Hall           '-C 2b 2bc'
loop_
_symmetry_equiv_pos_site_id
_symmetry_equiv_pos_as_xyz
1 x,y,z
2 1/2+x,1/2+y,z
3 1/2-x,-y,z
4 -x,y,1/2-z
5 1/2+x,-y,1/2-z
6 -x,1/2-y,z
7 1/2-x,1/2+y,1/2-z
8 x,1/2-y,1/2-z
9 -x,-y,-z
10 1/2-x,1/2-y,-z
11 1/2+x,y,-z
12 x,-y,1/2+z
13 1/2-x,y,1/2+z
14 x,1/2+y,-z
15 1/2+x,1/2-y,1/2+z
16 -x,1/2+y,1/2+z
_cell_length_a                   13.0284(15)
_cell_length_b                   26.011(3)
_cell_length_c                   23.322(3)
_cell_angle_alpha                90
_cell_angle_beta                 90
_cell_angle_gamma                90
_cell_volume                     7903.4
loop_
_atom_site_label
_atom_site_type_symbol
_atom_site_fract_x
_atom_site_fract_y
_atom_site_fract_z
Mn1 Mn 0.7500 1.0000 0.12731(3)
O1 O 0.7976(2) 0.92199(10) 0.12465(10)
O2 O 0.9671(2) 0.92035(12) 0.12529(14)
O3 O 0.5866(2) 0.98076(12) 0.12711(12)
N1 N 0.7500 1.0000 0.02928(17)
N2 N 0.7500 1.0000 -0.27464(18)
C1 C 0.8820(3) 0.89939(15) 0.11924(15)
C2 C 0.8774(3) 0.84285(16) 0.1058(2)
C3 C 0.8662(3) 0.80711(17) 0.1492(3)
C4 C 0.8573(4) 0.7543(2) 0.1351(3)
H1 H 0.8497 0.7298 0.1638
C5 C 0.8599(5) 0.7401(3) 0.0797(3)
C6 C 0.8717(4) 0.7741(2) 0.0361(3)
H2 H 0.8735 0.7627 -0.0017
C7 C 0.8813(4) 0.82699(18) 0.0487(3)
C8 C 0.8618(5) 0.8246(2) 0.2113(3)
H3 H 0.9197 0.8463 0.2193
H4 H 0.8634 0.7952 0.2360
H5 H 0.7995 0.8435 0.2176
C9 C 0.8483(6) 0.6812(3) 0.0675(3)
H6 H 0.8913 0.6622 0.0933
H7 H 0.8684 0.6741 0.0287
H8 H 0.7780 0.6712 0.0730
C10 C 0.8966(5) 0.8653(2) 0.0012(2)
H9 H 0.8339 0.8839 -0.0050
H10 H 0.9154 0.8476 -0.0333
H11 H 0.9501 0.8889 0.0116
C11 C 0.8209(3) 1.02476(18) -0.00058(16)
H12 H 0.8717 1.0423 0.0195
C12 C 0.8240(3) 1.02614(17) -0.05948(15)
H13 H 0.8754 1.0445 -0.0781
C13 C 0.7500 1.0000 -0.09120(19)
C14 C 0.7500 1.0000 -0.1542(2)
C15 C 0.6771(3) 0.97295(17) -0.18576(15)
H14 H 0.6266 0.9540 -0.1671
C16 C 0.6803(3) 0.97435(18) -0.24470(16)
H15 H 0.6304 0.9562 -0.2648
H20 H 0.555(3) 0.9541(8) 0.1382(18)
H21 H 0.555(3) 1.0095(7) 0.1298(17)
Mn1K Mn 0.7500 1.0000 -0.37269(3)
O1B O 0.7024(2) 1.07801(10) 0.12465(10)
O2B O 0.5329(2) 1.07965(12) 0.12529(14)
O3B O 0.9134(2) 1.01924(12) 0.12711(12)
N2K N 0.7500 1.0000 0.22536(18)
C1B C 0.6180(3) 1.10061(15) 0.11924(15)
C2B C 0.6226(3) 1.15715(16) 0.1058(2)
C3B C 0.6338(3) 1.19289(17) 0.1492(3)
C4B C 0.6427(4) 1.2457(2) 0.1351(3)
H1B H 0.6503 1.2702 0.1638
C5B C 0.6401(5) 1.2599(3) 0.0797(3)
C6B C 0.6283(4) 1.2259(2) 0.0361(3)
H2B H 0.6265 1.2373 -0.0017
C7B C 0.6187(4) 1.17301(18) 0.0487(3)
C8B C 0.6382(5) 1.1754(2) 0.2113(3)
H3B H 0.5803 1.1537 0.2193
H4B H 0.6366 1.2048 0.2360
H5B H 0.7005 1.1565 0.2176
C9B C 0.6517(6) 1.3188(3) 0.0675(3)
H6B H 0.6087 1.3378 0.0933
H7B H 0.6316 1.3259 0.0287
H8B H 0.7220 1.3288 0.0730
C10B C 0.6034(5) 1.1347(2) 0.0012(2)
H9B H 0.6661 1.1161 -0.0050
H10B H 0.5846 1.1524 -0.0333
H11B H 0.5499 1.1111 0.0116
C11B C 0.6791(3) 0.97524(18) -0.00058(16)
H12B H 0.6283 0.9577 0.0195
C12B C 0.6760(3) 0.97386(17) -0.05948(15)
H13B H 0.6246 0.9555 -0.0781
C15B C 0.8229(3) 1.02705(17) -0.18576(15)
H14B H 0.8734 1.0460 -0.1671
C16B C 0.8197(3) 1.02565(18) -0.24470(16)
H15B H 0.8696 1.0438 -0.2648
H20B H 0.945(3) 1.0459(8) 0.1382(18)
H21B H 0.945(3) 0.9905(7) 0.1298(17)
N3 N 0.0091(3) 0.38584(15) 0.1579(2)
C17 C -0.0736(4) 0.36042(18) 0.1760(3)
H16 H -0.1298 0.3793 0.1887
C18 C -0.0799(4) 0.30797(18) 0.1769(3)
H17 H -0.1398 0.2921 0.1895
C19 C 0.0023(3) 0.27822(17) 0.1592(2)
C20 C 0.0878(4) 0.30491(19) 0.1407(3)
H18 H 0.1458 0.2871 0.1287
C21 C 0.0871(4) 0.3575(2) 0.1402(3)
H19 H 0.1452 0.3743 0.1266
N3E N -0.0091(3) 0.11416(15) 0.1579(2)
C17E C 0.0736(4) 0.13958(18) 0.1760(3)
H16E H 0.1298 0.1207 0.1887
C18E C 0.0799(4) 0.19203(18) 0.1769(3)
H17E H 0.1398 0.2079 0.1895
C19E C -0.0023(3) 0.22178(17) 0.1592(2)
C20E C -0.0878(4) 0.19509(19) 0.1407(3)
H18E H -0.1458 0.2129 0.1287
C21E C -0.0871(4) 0.1425(2) 0.1402(3)
H19E H -0.1452 0.1257 0.1266
loop_
_geom_bond_atom_site_label_1
_geom_bond_atom_site_label_2
_geom_bond_site_symmetry_1
_geom_bond_site_symmetry_2
Mn1 O1 1_555 1_555
O1 C1 1_555 1_555
O2 C1 1_555 1_555
O3 Mn1 1_555 1_555
N1 Mn1 1_555 1_555
N2 C16 1_555 1_555
N3 C17 1_555 1_555
C1 C2 1_555 1_555
C2 C3 1_555 1_555
C3 C4 1_555 1_555
C4 H1 1_555 1_555
C5 C4 1_555 1_555
C6 C5 1_555 1_555
H2 C6 1_555 1_555
C7 C2 1_555 1_555
C8 C3 1_555 1_555
H3 C8 1_555 1_555
H4 C8 1_555 1_555
H5 C8 1_555 1_555
C9 C5 1_555 1_555
H6 C9 1_555 1_555
H7 C9 1_555 1_555
H8 C9 1_555 1_555
C10 C7 1_555 1_555
H9 C10 1_555 1_555
H10 C10 1_555 1_555
H11 C10 1_555 1_555
C11 N1 1_555 1_555
H12 C11 1_555 1_555
C12 C11 1_555 1_555
H13 C12 1_555 1_555
C13 C12 1_555 1_555
C14 C13 1_555 1_555
C15 C14 1_555 1_555
H14 C15 1_555 1_555
C16 C15 1_555 1_555
H15 C16 1_555 1_555
C17 H16 1_555 1_555
C18 C17 1_555 1_555
H17 C18 1_555 1_555
C19 C18 1_555 1_555
C20 C19 1_555 1_555
H18 C20 1_555 1_555
C21 N3 1_555 1_555
H19 C21 1_555 1_555
H20 O3 1_555 1_555
H21 O3 1_555 1_555
Mn1K N2 1_555 1_555
O1B Mn1 1_555 1_555
O2B C1B 1_555 1_555
O3B Mn1 1_555 1_555
N2K Mn1 1_555 1_555
N3E C17E 1_555 1_555
C1B O1B 1_555 1_555
C2B C1B 1_555 1_555
C3B C2B 1_555 1_555
C4B C3B 1_555 1_555
H1B C4B 1_555 1_555
C5B C4B 1_555 1_555
C6B C5B 1_555 1_555
H2B C6B 1_555 1_555
C7B C2B 1_555 1_555
C8B C3B 1_555 1_555
H3B C8B 1_555 1_555
H4B C8B 1_555 1_555
H5B C8B 1_555 1_555
C9B C5B 1_555 1_555
H6B C9B 1_555 1_555
H7B C9B 1_555 1_555
H8B C9B 1_555 1_555
C10B C7B 1_555 1_555
H9B C10B 1_555 1_555
H10B C10B 1_555 1_555
H11B C10B 1_555 1_555
C11B N1 1_555 1_555
H12B C11B 1_555 1_555
C12B C13 1_555 1_555
H13B C12B 1_555 1_555
C15B C14 1_555 1_555
H14B C15B 1_555 1_555
C16B N2 1_555 1_555
H15B C16B 1_555 1_555
C17E H16E 1_555 1_555
C18E C17E 1_555 1_555
H17E C18E 1_555 1_555
C19E C19 1_555 1_555
C20E C19E 1_555 1_555
H18E C20E 1_555 1_555
C21E N3E 1_555 1_555
H19E C21E 1_555 1_555
H20B O3B 1_555 1_555
H21B O3B 1_555 1_555
C6 C7 1_555 1_555
C20 C21 1_555 1_555
C6B C7B 1_555 1_555
C11B C12B 1_555 1_555
C15B C16B 1_555 1_555
C18E C19E 1_555 1_555
C20E C21E 1_555 1_555

#END
