
#######################################################################
#
#                 Cambridge Crystallographic Data Centre
#                                CCDC 
#
#######################################################################
#
# If this CIF has been generated from an entry in the Cambridge 
# Structural Database, then it will include bibliographic, chemical, 
# crystal, experimental, refinement or atomic coordinate data resulting 
# from the CCDC's data processing and validation procedures.
#
#######################################################################

data_POHSUB
_symmetry_cell_setting           monoclinic
_symmetry_space_group_name_H-M   'P 21/c'
_symmetry_Int_Tables_number      14
_space_group_name_Hall           '-P 2ybc'
loop_
_symmetry_equiv_pos_site_id
_symmetry_equiv_pos_as_xyz
1 x,y,z
2 -x,1/2+y,1/2-z
3 -x,-y,-z
4 x,1/2-y,1/2+z
_cell_length_a                   17.473(6)
_cell_length_b                   3.8784(14)
_cell_length_c                   22.424(8)
_cell_angle_alpha                90
_cell_angle_beta                 112.556(4)
_cell_angle_gamma                90
_cell_volume                     1403.37
loop_
_atom_site_label
_atom_site_type_symbol
_atom_site_fract_x
_atom_site_fract_y
_atom_site_fract_z
Mn1 Mn 0.77259(3) 0.61751(15) 0.94359(2)
O1 O 0.82108(14) 0.9106(7) 1.03156(11)
O2 O 0.87543(14) 1.3027(7) 0.98799(11)
O3 O 0.65810(13) 0.5203(6) 0.95958(11)
O4 O 0.67428(16) 0.2335(10) 0.88273(14)
N1 N 1.18812(15) 1.2231(7) 1.13246(12)
N2 N 0.35795(15) 0.1322(7) 0.93295(12)
H1 H 0.3630 0.2146 0.9699
N3 N 1.19872(16) 0.9766(8) 1.22530(12)
N4 N 0.29905(16) -0.1224(7) 0.83705(13)
C1 C 0.62966(19) 0.3204(9) 0.91205(15)
C2 C 0.54246(18) 0.1942(8) 0.89007(14)
C3 C 0.49882(18) 0.2439(8) 0.92927(14)
H2 H 0.5232 0.3506 0.9693
C4 C 0.41768(18) 0.1301(8) 0.90719(14)
C5 C 0.38004(18) -0.0308(8) 0.84661(15)
C6 C 0.42431(19) -0.0761(9) 0.80703(15)
H3 H 0.3997 -0.1773 0.7665
C7 C 0.50523(19) 0.0328(9) 0.82960(15)
H4 H 0.5361 -0.0010 0.8043
C8 C 0.2904(2) -0.0179(10) 0.88985(15)
H5 H 0.2416 -0.0458 0.8967
C9 C 1.23794(19) 1.1215(9) 1.19021(15)
H6 H 1.2952 1.1472 1.2055
C10 C 0.88127(19) 1.0961(9) 1.03274(16)
C11 C 0.96269(18) 1.0612(8) 1.08771(14)
C12 C 0.9706(2) 0.8991(8) 1.14564(15)
H7 H 0.9233 0.8127 1.1499
C13 C 1.0451(2) 0.8630(9) 1.19612(16)
H8 H 1.0490 0.7630 1.2349
C14 C 1.11520(19) 0.9836(8) 1.18681(14)
C15 C 1.10914(18) 1.1401(8) 1.12932(14)
C16 C 1.03233(18) 1.1869(8) 1.07932(14)
H9 H 1.0278 1.2990 1.0414
Mn1_2 Mn 0.77259(3) 1.61751(15) 0.94359(2)
Mn1B Mn 1.22741(3) 1.38249(15) 1.05641(2)
O2_2 O 0.87543(14) 0.3027(7) 0.98799(11)
N1B N 0.81188(15) 0.7769(7) 0.86754(12)
loop_
_geom_bond_atom_site_label_1
_geom_bond_atom_site_label_2
_geom_bond_site_symmetry_1
_geom_bond_site_symmetry_2
Mn1 O1 1_555 1_555
O1 C10 1_555 1_555
O2 C10 1_555 1_555
O3 Mn1 1_555 1_555
O4 Mn1 1_555 1_555
N1 C9 1_555 1_555
N2 H1 1_555 1_555
N3 C9 1_555 1_555
N4 C5 1_555 1_555
C1 O3 1_555 1_555
C2 C1 1_555 1_555
C3 C2 1_555 1_555
H2 C3 1_555 1_555
C4 N2 1_555 1_555
C5 C4 1_555 1_555
C6 C5 1_555 1_555
H3 C6 1_555 1_555
C7 C2 1_555 1_555
H4 C7 1_555 1_555
C8 N2 1_555 1_555
H5 C8 1_555 1_555
C9 H6 1_555 1_555
C10 C11 1_555 1_555
C11 C12 1_555 1_555
C12 H7 1_555 1_555
C13 C12 1_555 1_555
H8 C13 1_555 1_555
C14 N3 1_555 1_555
C15 N1 1_555 1_555
C16 C11 1_555 1_555
H9 C16 1_555 1_555
Mn1_2 O2 1_555 1_555
Mn1B N1 1_555 1_555
O2_2 Mn1 1_555 1_555
N1B Mn1 1_555 1_555
O4 C1 1_555 1_555
N4 C8 1_555 1_555
C3 C4 1_555 1_555
C6 C7 1_555 1_555
C13 C14 1_555 1_555
C14 C15 1_555 1_555
C15 C16 1_555 1_555

#END
