
#######################################################################
#
#                 Cambridge Crystallographic Data Centre
#                                CCDC 
#
#######################################################################
#
# If this CIF has been generated from an entry in the Cambridge 
# Structural Database, then it will include bibliographic, chemical, 
# crystal, experimental, refinement or atomic coordinate data resulting 
# from the CCDC's data processing and validation procedures.
#
#######################################################################

data_POHVEP
_symmetry_cell_setting           orthorhombic
_symmetry_space_group_name_H-M   'P b c a'
_symmetry_Int_Tables_number      61
_space_group_name_Hall           '-P 2ac 2ab'
loop_
_symmetry_equiv_pos_site_id
_symmetry_equiv_pos_as_xyz
1 x,y,z
2 1/2-x,-y,1/2+z
3 -x,1/2+y,1/2-z
4 1/2+x,1/2-y,-z
5 -x,-y,-z
6 1/2+x,y,1/2-z
7 x,1/2-y,1/2+z
8 1/2-x,1/2+y,z
_cell_length_a                   16.6426(12)
_cell_length_b                   21.6369(15)
_cell_length_c                   25.5177(18)
_cell_angle_alpha                90
_cell_angle_beta                 90
_cell_angle_gamma                90
_cell_volume                     9188.78
loop_
_atom_site_label
_atom_site_type_symbol
_atom_site_fract_x
_atom_site_fract_y
_atom_site_fract_z
C1 C 0.7602(3) 0.2932(2) 0.61678(19)
N1 N 0.7650(3) 0.2438(2) 0.63165(17)
Tb1 Tb 0.783367(16) 0.135876(10) 0.662006(9)
Mo1 Mo 0.74792(3) -0.113023(18) 0.590157(17)
C2 C 0.7760(3) -0.0226(2) 0.6199(2)
C3 C 0.7316(4) -0.1118(3) 0.6738(2)
C4 C 0.8715(4) -0.1207(2) 0.6164(2)
C5 C 0.6616(4) -0.1563(3) 0.5386(3)
C6 C 0.8155(4) -0.1621(3) 0.5319(3)
C7 C 0.7569(4) -0.0520(3) 0.5239(2)
C8 C 0.6315(4) -0.0696(3) 0.5991(3)
C9 C 0.8273(4) 0.0391(2) 0.7652(2)
H1 H 0.7941 0.0115 0.7476
C10 C 0.8404(4) 0.0289(3) 0.8178(2)
C11 C 0.7986(5) -0.0256(4) 0.8429(3)
H2 H 0.8379 -0.0525 0.8584
H3 H 0.7689 -0.0479 0.8167
H4 H 0.7624 -0.0111 0.8695
C12 C 0.8893(4) 0.0693(3) 0.8447(2)
C13 C 0.9025(5) 0.0626(3) 0.9033(3)
H5 H 0.8654 0.0328 0.9171
H6 H 0.8939 0.1018 0.9200
H7 H 0.9565 0.0490 0.9097
C14 C 0.9282(4) 0.1173(3) 0.8166(2)
C15 C 0.9838(4) 0.1602(3) 0.8389(3)
H8 H 0.9947 0.1575 0.8746
C16 C 1.0207(4) 0.2039(3) 0.8109(3)
H9 H 1.0582 0.2294 0.8271
C17 C 1.0036(4) 0.2120(3) 0.7567(2)
C18 C 1.0378(3) 0.2593(3) 0.7254(2)
C19 C 1.0967(4) 0.3051(3) 0.7491(3)
H10 H 1.1326 0.3197 0.7223
H11 H 1.1271 0.2852 0.7762
H12 H 1.0676 0.3394 0.7636
C20 C 1.0145(4) 0.2637(3) 0.6742(2)
C21 C 1.0470(5) 0.3108(3) 0.6372(3)
H13 H 1.0366 0.3515 0.6506
H14 H 1.0215 0.3062 0.6037
H15 H 1.1040 0.3051 0.6334
C22 C 0.9569(4) 0.2229(3) 0.6556(2)
H16 H 0.9411 0.2271 0.6208
C23 C 0.9109(3) 0.1235(2) 0.7633(2)
C24 C 0.9473(3) 0.1715(3) 0.7333(2)
C25 C 0.6252(3) 0.0500(2) 0.7133(2)
H17 H 0.6249 0.0349 0.6792
C26 C 0.5772(4) 0.0197(3) 0.7499(3)
C27 C 0.5283(4) -0.0349(3) 0.7317(3)
H18 H 0.5562 -0.0724 0.7400
H19 H 0.5203 -0.0323 0.6945
H20 H 0.4771 -0.0346 0.7491
C28 C 0.5763(4) 0.0404(3) 0.7999(3)
C29 C 0.5258(5) 0.0097(4) 0.8410(3)
H21 H 0.4721 0.0257 0.8395
H22 H 0.5482 0.0178 0.8750
H23 H 0.5249 -0.0341 0.8349
C30 C 0.6258(4) 0.0913(3) 0.8131(2)
C31 C 0.6353(5) 0.1154(3) 0.8648(3)
H24 H 0.6069 0.0966 0.8918
C32 C 0.6819(5) 0.1626(3) 0.8763(3)
H25 H 0.6854 0.1757 0.9109
C33 C 0.7274(4) 0.1942(3) 0.8369(2)
C34 C 0.7773(4) 0.2446(3) 0.8471(2)
C35 C 0.7890(5) 0.2664(4) 0.9025(3)
H26 H 0.8440 0.2784 0.9075
H27 H 0.7758 0.2336 0.9263
H28 H 0.7547 0.3013 0.9090
C36 C 0.8155(4) 0.2732(2) 0.8061(2)
C37 C 0.8719(4) 0.3275(3) 0.8128(3)
H29 H 0.8419 0.3632 0.8235
H30 H 0.8983 0.3359 0.7801
H31 H 0.9114 0.3177 0.8390
C38 C 0.8030(3) 0.2495(2) 0.7559(2)
H32 H 0.8272 0.2701 0.7281
C39 C 0.6716(3) 0.1198(2) 0.7734(2)
C40 C 0.7207(3) 0.1730(3) 0.7849(2)
C41 C 0.6444(4) 0.0974(3) 0.5702(2)
H33 H 0.6476 0.0547 0.5734
C42 C 0.5948(6) 0.1835(4) 0.5247(3)
H34 H 0.6260 0.2053 0.5503
H35 H 0.5388 0.1920 0.5301
H36 H 0.6102 0.1968 0.4902
C43 C 0.5727(6) 0.0783(4) 0.4905(3)
H37 H 0.6037 0.0802 0.4589
H38 H 0.5189 0.0921 0.4836
H39 H 0.5715 0.0365 0.5031
C44 C 0.8720(6) 0.1017(4) 0.5472(3)
H40 H 0.8485 0.0627 0.5470
C45 C 0.9498(7) 0.1736(4) 0.5037(4)
H41 H 0.9126 0.2036 0.5172
H42 H 0.9611 0.1825 0.4676
H43 H 0.9987 0.1753 0.5236
C46 C 0.9298(8) 0.0764(5) 0.4630(4)
H44 H 0.9763 0.0510 0.4688
H45 H 0.9385 0.1020 0.4328
H46 H 0.8838 0.0505 0.4572
N2 N 0.7868(3) 0.0252(2) 0.63723(18)
N3 N 0.7247(4) -0.1084(3) 0.7179(2)
N4 N 0.9367(4) -0.1257(3) 0.6296(2)
N5 N 0.6157(5) -0.1787(3) 0.5118(3)
N6 N 0.8512(4) -0.1869(3) 0.5003(2)
N7 N 0.7619(5) -0.0184(3) 0.4898(2)
N8 N 0.5704(4) -0.0448(3) 0.6019(3)
N9 N 0.8587(3) 0.08552(19) 0.73761(17)
N10 N 0.9224(3) 0.1784(2) 0.68347(17)
N11 N 0.6716(3) 0.09878(19) 0.72324(17)
N12 N 0.7600(3) 0.20031(18) 0.74462(16)
N13 N 0.6090(4) 0.1177(2) 0.5298(2)
N14 N 0.9162(5) 0.1145(3) 0.5079(3)
O1 O 0.6751(3) 0.12745(17) 0.60565(15)
O2 O 0.8568(3) 0.13351(19) 0.58434(17)
C1G C 0.7398(3) -0.2068(2) 0.61678(19)
Mo1G Mo 0.75208(3) 0.386977(18) 0.590157(17)
loop_
_geom_bond_atom_site_label_1
_geom_bond_atom_site_label_2
_geom_bond_site_symmetry_1
_geom_bond_site_symmetry_2
C1 N1 1_555 1_555
N1 Tb1 1_555 1_555
Tb1 N2 1_555 1_555
Mo1 C2 1_555 1_555
C2 N2 1_555 1_555
C3 Mo1 1_555 1_555
C4 Mo1 1_555 1_555
C5 Mo1 1_555 1_555
C6 Mo1 1_555 1_555
C7 Mo1 1_555 1_555
C8 Mo1 1_555 1_555
C9 H1 1_555 1_555
C10 C9 1_555 1_555
C11 C10 1_555 1_555
H2 C11 1_555 1_555
H3 C11 1_555 1_555
H4 C11 1_555 1_555
C12 C10 1_555 1_555
C13 C12 1_555 1_555
H5 C13 1_555 1_555
H6 C13 1_555 1_555
H7 C13 1_555 1_555
C14 C12 1_555 1_555
C15 C14 1_555 1_555
H8 C15 1_555 1_555
C16 C15 1_555 1_555
H9 C16 1_555 1_555
C17 C16 1_555 1_555
C18 C17 1_555 1_555
C19 C18 1_555 1_555
H10 C19 1_555 1_555
H11 C19 1_555 1_555
H12 C19 1_555 1_555
C20 C18 1_555 1_555
C21 C20 1_555 1_555
H13 C21 1_555 1_555
H14 C21 1_555 1_555
H15 C21 1_555 1_555
C22 C20 1_555 1_555
H16 C22 1_555 1_555
C23 C14 1_555 1_555
C24 C17 1_555 1_555
C25 H17 1_555 1_555
C26 C25 1_555 1_555
C27 C26 1_555 1_555
H18 C27 1_555 1_555
H19 C27 1_555 1_555
H20 C27 1_555 1_555
C28 C26 1_555 1_555
C29 C28 1_555 1_555
H21 C29 1_555 1_555
H22 C29 1_555 1_555
H23 C29 1_555 1_555
C30 C28 1_555 1_555
C31 C30 1_555 1_555
H24 C31 1_555 1_555
C32 C31 1_555 1_555
H25 C32 1_555 1_555
C33 C32 1_555 1_555
C34 C33 1_555 1_555
C35 C34 1_555 1_555
H26 C35 1_555 1_555
H27 C35 1_555 1_555
H28 C35 1_555 1_555
C36 C34 1_555 1_555
C37 C36 1_555 1_555
H29 C37 1_555 1_555
H30 C37 1_555 1_555
H31 C37 1_555 1_555
C38 C36 1_555 1_555
H32 C38 1_555 1_555
C39 C30 1_555 1_555
C40 C33 1_555 1_555
C41 H33 1_555 1_555
C42 H34 1_555 1_555
H35 C42 1_555 1_555
H36 C42 1_555 1_555
C43 H37 1_555 1_555
H38 C43 1_555 1_555
H39 C43 1_555 1_555
C44 H40 1_555 1_555
C45 H41 1_555 1_555
H42 C45 1_555 1_555
H43 C45 1_555 1_555
C46 H44 1_555 1_555
H45 C46 1_555 1_555
H46 C46 1_555 1_555
N3 C3 1_555 1_555
N4 C4 1_555 1_555
N5 C5 1_555 1_555
N6 C6 1_555 1_555
N7 C7 1_555 1_555
N8 C8 1_555 1_555
N9 Tb1 1_555 1_555
N10 Tb1 1_555 1_555
N11 Tb1 1_555 1_555
N12 Tb1 1_555 1_555
N13 C41 1_555 1_555
N14 C44 1_555 1_555
O1 Tb1 1_555 1_555
O2 Tb1 1_555 1_555
C1G Mo1 1_555 1_555
Mo1G C1 1_555 1_555
C9 N9 1_555 1_555
C22 N10 1_555 1_555
C23 C24 1_555 1_555
C23 N9 1_555 1_555
C24 N10 1_555 1_555
C25 N11 1_555 1_555
C38 N12 1_555 1_555
C39 C40 1_555 1_555
C39 N11 1_555 1_555
C40 N12 1_555 1_555
C41 O1 1_555 1_555
C42 N13 1_555 1_555
C43 N13 1_555 1_555
C44 O2 1_555 1_555
C45 N14 1_555 1_555
C46 N14 1_555 1_555

#END
