
#######################################################################
#
#                 Cambridge Crystallographic Data Centre
#                                CCDC 
#
#######################################################################
#
# If this CIF has been generated from an entry in the Cambridge 
# Structural Database, then it will include bibliographic, chemical, 
# crystal, experimental, refinement or atomic coordinate data resulting 
# from the CCDC's data processing and validation procedures.
#
#######################################################################

data_POJZEU
_symmetry_cell_setting           monoclinic
_symmetry_space_group_name_H-M   'C 2/c'
_symmetry_Int_Tables_number      15
_space_group_name_Hall           '-C 2yn'
loop_
_symmetry_equiv_pos_site_id
_symmetry_equiv_pos_as_xyz
1 x,y,z
2 1/2+x,1/2+y,z
3 -x,y,1/2-z
4 1/2-x,1/2+y,1/2-z
5 -x,-y,-z
6 1/2-x,1/2-y,-z
7 x,-y,1/2+z
8 1/2+x,1/2-y,1/2+z
_cell_length_a                   19.670(8)
_cell_length_b                   7.908(3)
_cell_length_c                   16.980(7)
_cell_angle_alpha                90
_cell_angle_beta                 92.943(6)
_cell_angle_gamma                90
_cell_volume                     2637.76
loop_
_atom_site_label
_atom_site_type_symbol
_atom_site_fract_x
_atom_site_fract_y
_atom_site_fract_z
Ag1 Ag 0.03557(2) 0.09247(5) 0.07774(2)
O1 O -0.2456(2) 0.0159(6) 0.3145(3)
N1 N -0.0425(2) 0.1156(5) 0.1607(2)
N2 N -0.3848(2) 0.3802(5) 0.4975(2)
N3 N -0.2234(2) 0.2881(5) 0.3505(2)
C1 C -0.0689(2) -0.0175(6) 0.1960(2)
C2 C -0.1219(2) -0.0054(6) 0.2452(3)
C3 C -0.1495(2) 0.1491(7) 0.2607(2)
C4 C -0.1218(3) 0.2902(7) 0.2259(3)
C5 C -0.0686(3) 0.2689(6) 0.1760(3)
C6 C -0.3808(2) 0.2302(6) 0.4619(3)
C7 C -0.3291(3) 0.1898(6) 0.4136(3)
C8 C -0.2792(2) 0.3096(7) 0.3996(2)
C9 C -0.2842(2) 0.4652(7) 0.4356(3)
C10 C -0.3362(2) 0.4927(6) 0.4829(3)
C11 C -0.2118(3) 0.1447(8) 0.3104(3)
H1 H -0.0502 -0.1260 0.1868
H2 H -0.1394 -0.1052 0.2691
H3 H -0.1390 0.4000 0.2359
H4 H -0.0499 0.3657 0.1520
H5 H -0.4150 0.1482 0.4703
H6 H -0.3275 0.0811 0.3899
H7 H -0.2517 0.5514 0.4272
H8 H -0.3385 0.6001 0.5076
H9 H -0.1926 0.3796 0.3458
Ag1G Ag -0.46443(2) 0.40753(5) 0.57774(2)
N2G N 0.1152(2) 0.1198(5) -0.0025(2)
F1 F 0.0439(3) 0.717(1) 0.1453(7)
F2 F 0.0754(6) 0.684(1) 0.0364(7)
F3 F 0.1429(3) 0.6199(7) 0.1357(5)
F4 F 0.0579(4) 0.4625(6) 0.1029(3)
B1 B 0.0793(4) 0.6213(7) 0.1056(6)
loop_
_geom_bond_atom_site_label_1
_geom_bond_atom_site_label_2
_geom_bond_site_symmetry_1
_geom_bond_site_symmetry_2
Ag1 N1 1_555 1_555
F1 B1 1_555 1_555
F2 B1 1_555 1_555
F3 B1 1_555 1_555
F4 B1 1_555 1_555
O1 C11 1_555 1_555
N1 C1 1_555 1_555
N2 C6 1_555 1_555
N3 C8 1_555 1_555
C1 C2 1_555 1_555
C2 C3 1_555 1_555
C3 C4 1_555 1_555
C4 C5 1_555 1_555
C5 N1 1_555 1_555
C6 C7 1_555 1_555
C7 C8 1_555 1_555
C8 C9 1_555 1_555
C9 C10 1_555 1_555
C10 N2 1_555 1_555
C11 N3 1_555 1_555
H1 C1 1_555 1_555
H2 C2 1_555 1_555
H3 C4 1_555 1_555
H4 C5 1_555 1_555
H5 C6 1_555 1_555
H6 C7 1_555 1_555
H7 C9 1_555 1_555
H8 C10 1_555 1_555
H9 N3 1_555 1_555
Ag1G N2 1_555 1_555
N2G Ag1 1_555 1_555
C3 C11 1_555 1_555

#END
