
#######################################################################
#
#                 Cambridge Crystallographic Data Centre
#                                CCDC 
#
#######################################################################
#
# If this CIF has been generated from an entry in the Cambridge 
# Structural Database, then it will include bibliographic, chemical, 
# crystal, experimental, refinement or atomic coordinate data resulting 
# from the CCDC's data processing and validation procedures.
#
#######################################################################

data_POKBEX
_symmetry_cell_setting           monoclinic
_symmetry_space_group_name_H-M   'P 21/c'
_symmetry_Int_Tables_number      14
_space_group_name_Hall           '-P 2ybc'
loop_
_symmetry_equiv_pos_site_id
_symmetry_equiv_pos_as_xyz
1 x,y,z
2 -x,1/2+y,1/2-z
3 -x,-y,-z
4 x,1/2-y,1/2+z
_cell_length_a                   8.4895(4)
_cell_length_b                   18.888(7)
_cell_length_c                   9.227(2)
_cell_angle_alpha                90
_cell_angle_beta                 105.094(2)
_cell_angle_gamma                90
_cell_volume                     1428.5
loop_
_atom_site_label
_atom_site_type_symbol
_atom_site_fract_x
_atom_site_fract_y
_atom_site_fract_z
Ag1 Ag 0.33763(3) 0.01555(2) 0.56393(4)
O1 O 0.9286(3) 0.1985(2) 1.1269(2)
N1 N 0.5195(4) 0.0830(2) 0.7064(4)
N2 N 0.8655(3) 0.4556(2) 1.0683(3)
N3 N 0.9767(4) 0.2526(2) 0.9251(3)
C1 C 0.5909(5) 0.0637(2) 0.8481(4)
C2 C 0.7112(5) 0.1036(2) 0.9425(4)
C3 C 0.7624(4) 0.1656(2) 0.8882(3)
C4 C 0.6847(4) 0.1865(2) 0.7428(4)
C5 C 0.5647(4) 0.1435(2) 0.6571(4)
C6 C 0.9433(5) 0.4751(2) 1.2087(4)
C7 C 1.0748(5) 0.4376(2) 1.2932(4)
C8 C 1.1299(4) 0.3785(2) 1.2327(4)
C9 C 1.0520(4) 0.3584(2) 1.0866(3)
C10 C 0.9198(4) 0.3987(2) 1.0101(4)
C11 C 0.8964(4) 0.2075(2) 0.9896(3)
C12 C 1.1101(4) 0.2957(2) 1.0133(4)
H1 H 0.5579 0.0208 0.8850
H2 H 0.7590 0.0889 1.0430
H3 H 0.7135 0.2297 0.7033
H4 H 0.5123 0.1576 0.5573
H5 H 0.9077 0.5160 1.2510
H6 H 1.1267 0.4522 1.3928
H7 H 1.2204 0.3522 1.2902
H8 H 0.8650 0.3849 0.9110
H9 H 0.9474 0.2567 0.8188
H10 H 1.1764 0.2670 1.0890
H11 H 1.1721 0.3127 0.9483
Ag1A Ag 0.66237(3) 0.51555(2) 0.93607(4)
N2A N 0.1345(3) -0.0444(2) 0.4317(3)
Cl1 Cl 0.5838(1) -0.13465(5) 0.7765(1)
O2 O 0.6693(6) -0.0931(2) 0.6933(6)
O3 O 0.4241(4) -0.1069(3) 0.7462(5)
O4 O 0.5859(6) -0.2049(2) 0.7183(5)
O5 O 0.6583(6) -0.1322(4) 0.9285(4)
loop_
_geom_bond_atom_site_label_1
_geom_bond_atom_site_label_2
_geom_bond_site_symmetry_1
_geom_bond_site_symmetry_2
Ag1 N1 1_555 1_555
Cl1 O2 1_555 1_555
O1 C11 1_555 1_555
O3 Cl1 1_555 1_555
O4 Cl1 1_555 1_555
O5 Cl1 1_555 1_555
N1 C1 1_555 1_555
N2 C6 1_555 1_555
N3 C11 1_555 1_555
C1 C2 1_555 1_555
C2 C3 1_555 1_555
C3 C4 1_555 1_555
C4 C5 1_555 1_555
C5 N1 1_555 1_555
C6 C7 1_555 1_555
C7 C8 1_555 1_555
C8 C9 1_555 1_555
C9 C10 1_555 1_555
C10 N2 1_555 1_555
C11 C3 1_555 1_555
C12 N3 1_555 1_555
H1 C1 1_555 1_555
H2 C2 1_555 1_555
H3 C4 1_555 1_555
H4 C5 1_555 1_555
H5 C6 1_555 1_555
H6 C7 1_555 1_555
H7 C8 1_555 1_555
H8 C10 1_555 1_555
H9 N3 1_555 1_555
H10 C12 1_555 1_555
H11 C12 1_555 1_555
Ag1A N2 1_555 1_555
N2A Ag1 1_555 1_555
C9 C12 1_555 1_555

#END
