
#######################################################################
#
#                 Cambridge Crystallographic Data Centre
#                                CCDC 
#
#######################################################################
#
# If this CIF has been generated from an entry in the Cambridge 
# Structural Database, then it will include bibliographic, chemical, 
# crystal, experimental, refinement or atomic coordinate data resulting 
# from the CCDC's data processing and validation procedures.
#
#######################################################################

data_POKFOL
_symmetry_cell_setting           triclinic
_symmetry_space_group_name_H-M   'P -1'
_symmetry_Int_Tables_number      2
_space_group_name_Hall           '-P 1'
loop_
_symmetry_equiv_pos_site_id
_symmetry_equiv_pos_as_xyz
1 x,y,z
2 -x,-y,-z
_cell_length_a                   9.820(2)
_cell_length_b                   11.824(2)
_cell_length_c                   12.050(2)
_cell_angle_alpha                116.65(3)
_cell_angle_beta                 102.36(3)
_cell_angle_gamma                96.21(3)
_cell_volume                     1187.64
loop_
_atom_site_label
_atom_site_type_symbol
_atom_site_fract_x
_atom_site_fract_y
_atom_site_fract_z
Zn1 Zn 0.16973(3) 0.55460(3) 0.56523(2)
Zn2 Zn 0.07205(3) 0.51493(3) 0.28386(3)
C1 C 0.2628(3) 0.2095(2) 0.2544(2)
C2 C 0.2176(3) 0.1189(3) 0.1227(2)
H1 H 0.1480 0.1296 0.0647
C3 C 0.2786(3) 0.0116(3) 0.0793(3)
C4 C 0.3838(3) -0.0026(3) 0.1668(3)
H2 H 0.4247 -0.0739 0.1373
C5 C 0.4278(3) 0.0890(3) 0.2977(3)
C6 C 0.3659(3) 0.1958(3) 0.3430(3)
H3 H 0.3933 0.2565 0.4310
C7 C 0.2025(3) 0.3288(2) 0.3025(2)
C8 C 0.5862(3) 0.1533(3) 0.5092(3)
H4 H 0.6345 0.1097 0.5519
H5 H 0.5065 0.1766 0.5433
C9 C 0.6897(3) 0.2768(3) 0.5436(3)
C10 C 0.1557(3) -0.0665(3) -0.1414(3)
H6 H 0.2056 0.0072 -0.1442
H7 H 0.0682 -0.0471 -0.1200
C11 C 0.1184(3) -0.1871(3) -0.2737(3)
C12 C 0.3570(3) 0.4287(3) 0.6901(3)
H8 H 0.2885 0.3539 0.6262
C13 C 0.4689(3) 0.4158(3) 0.7716(3)
H9 H 0.4752 0.3343 0.7625
C14 C 0.5725(3) 0.5270(3) 0.8680(3)
C15 C 0.5540(3) 0.6447(3) 0.8787(3)
H10 H 0.6185 0.7213 0.9442
C16 C 0.4391(3) 0.6492(3) 0.7918(3)
H11 H 0.4298 0.7296 0.7994
C17 C 0.6962(3) 0.5177(3) 0.9576(2)
C18 C 0.7002(3) 0.4069(3) 0.9686(3)
H12 H 0.6262 0.3328 0.9157
C19 C 0.8135(3) 0.4057(3) 1.0578(3)
H13 H 0.8134 0.3301 1.0642
C20 C 0.9234(3) 0.6146(3) 1.1231(3)
H14 H 1.0008 0.6860 1.1750
C21 C 0.8132(3) 0.6231(3) 1.0361(3)
H15 H 0.8173 0.6991 1.0301
O1 O 0.2240(2) 0.39587(19) 0.42091(18)
O3 O 0.1339(2) 0.35215(19) 0.21625(18)
O4 O 0.2426(3) -0.0854(2) -0.04543(19)
O5 O 0.0558(3) -0.1765(2) -0.3688(2)
O6 O 0.1505(2) -0.28768(18) -0.27659(17)
O7 O 0.5315(2) 0.06496(19) 0.3742(2)
O8 O 0.6912(2) 0.3094(2) 0.45995(19)
O9 O 0.7674(2) 0.3374(2) 0.66132(18)
O10 O 0.00315(18) 0.43449(17) 0.56905(16)
H23 H 0.0164 0.3454 0.5364
N1 N 0.3415(2) 0.5426(2) 0.6979(2)
N2 N 0.9230(2) 0.5083(2) 1.1353(2)
Zn1_2 Zn 0.16973(3) -0.44540(3) -0.43477(2)
Zn1A Zn 0.83027(3) 0.44540(3) 0.43477(2)
Zn1A_2 Zn -0.16973(3) 0.44540(3) 0.43477(2)
Zn2A Zn 0.92795(3) 0.48507(3) 0.71614(3)
Zn2A_2 Zn -0.07205(3) 0.48507(3) 0.71614(3)
Zn2_2 Zn 1.07205(3) 0.51493(3) 1.28386(3)
O6_2 O 0.1505(2) 0.71232(18) 0.72341(17)
O8A O 0.3088(2) 0.6906(2) 0.54005(19)
O9A O 0.2326(2) 0.6626(2) 0.33868(18)
O10A O -0.00315(18) 0.56551(17) 0.43095(16)
H23A H -0.0164 0.6546 0.4636
N2_2 N -0.0770(2) 0.5083(2) 0.1353(2)
C22 C 0.977(2) 0.9401(16) 1.351(2)
H16 H 0.8903 0.9238 1.2842
H17 H 0.9860 1.0263 1.4216
C23 C 0.935(2) 0.8472(15) 1.4049(15)
H18 H 0.8428 0.8535 1.4190
H19 H 1.0053 0.8721 1.4856
H20 H 0.9308 0.7592 1.3432
O11 O 1.0756(14) 0.9558(13) 1.3046(18)
H24 H 1.1446 1.0114 1.3632
O2 O 0.6669(7) -0.1454(5) 0.2427(7)
H21 H 0.728(3) -0.121(3) 0.318(2)
H22 H 0.628(4) -0.088(3) 0.256(4)
loop_
_geom_bond_atom_site_label_1
_geom_bond_atom_site_label_2
_geom_bond_site_symmetry_1
_geom_bond_site_symmetry_2
Zn1 O1 1_555 1_555
Zn2 O3 1_555 1_555
C1 C2 1_555 1_555
C2 H1 1_555 1_555
C3 C2 1_555 1_555
C4 C3 1_555 1_555
H2 C4 1_555 1_555
C5 C4 1_555 1_555
C6 C1 1_555 1_555
H3 C6 1_555 1_555
C7 C1 1_555 1_555
C8 H4 1_555 1_555
H5 C8 1_555 1_555
C9 C8 1_555 1_555
C10 H6 1_555 1_555
H7 C10 1_555 1_555
C11 C10 1_555 1_555
C12 H8 1_555 1_555
C13 C12 1_555 1_555
H9 C13 1_555 1_555
C14 C13 1_555 1_555
C15 C14 1_555 1_555
H10 C15 1_555 1_555
C16 C15 1_555 1_555
H11 C16 1_555 1_555
C17 C14 1_555 1_555
C18 C17 1_555 1_555
H12 C18 1_555 1_555
C19 C18 1_555 1_555
H13 C19 1_555 1_555
C20 H14 1_555 1_555
C21 C17 1_555 1_555
H15 C21 1_555 1_555
C22 H16 1_555 1_555
H17 C22 1_555 1_555
C23 C22 1_555 1_555
H18 C23 1_555 1_555
H19 C23 1_555 1_555
H20 C23 1_555 1_555
O1 C7 1_555 1_555
O2 H21 1_555 1_555
H22 O2 1_555 1_555
O3 C7 1_555 1_555
O4 C3 1_555 1_555
O5 C11 1_555 1_555
O6 C11 1_555 1_555
O7 C5 1_555 1_555
O8 C9 1_555 1_555
O9 C9 1_555 1_555
O10 Zn1 1_555 1_555
H23 O10 1_555 1_555
O11 C22 1_555 1_555
H24 O11 1_555 1_555
N1 Zn1 1_555 1_555
N2 C19 1_555 1_555
Zn1_2 O6 1_555 1_555
Zn1A O8 1_555 1_555
Zn1A_2 O10 1_555 1_555
Zn2A O9 1_555 1_555
Zn2A_2 O10 1_555 1_555
Zn2_2 N2 1_555 1_555
O6_2 Zn1 1_555 1_555
O8A Zn1 1_555 1_555
O9A Zn2 1_555 1_555
O10A Zn1 1_555 1_555
H23A O10A 1_555 1_555
N2_2 Zn2 1_555 1_555
Zn2 O10A 1_555 1_555
C5 C6 1_555 1_555
C8 O7 1_555 1_555
C10 O4 1_555 1_555
C12 N1 1_555 1_555
C16 N1 1_555 1_555
C20 C21 1_555 1_555
C20 N2 1_555 1_555
Zn1A_2 O10A 1_555 1_555

#END
