
#######################################################################
#
#                 Cambridge Crystallographic Data Centre
#                                CCDC 
#
#######################################################################
#
# If this CIF has been generated from an entry in the Cambridge 
# Structural Database, then it will include bibliographic, chemical, 
# crystal, experimental, refinement or atomic coordinate data resulting 
# from the CCDC's data processing and validation procedures.
#
#######################################################################

data_POKGIG
_symmetry_cell_setting           monoclinic
_symmetry_space_group_name_H-M   'P 21/c'
_symmetry_Int_Tables_number      14
_space_group_name_Hall           '-P 2ybc'
loop_
_symmetry_equiv_pos_site_id
_symmetry_equiv_pos_as_xyz
1 x,y,z
2 -x,1/2+y,1/2-z
3 -x,-y,-z
4 x,1/2-y,1/2+z
_cell_length_a                   12.719(3)
_cell_length_b                   10.405(2)
_cell_length_c                   16.210(3)
_cell_angle_alpha                90
_cell_angle_beta                 113.52(3)
_cell_angle_gamma                90
_cell_volume                     1967.03
loop_
_atom_site_label
_atom_site_type_symbol
_atom_site_fract_x
_atom_site_fract_y
_atom_site_fract_z
C1 C 1.10878(18) 0.6286(2) 0.09363(15)
C2 C 1.18671(17) 0.7432(2) 0.13053(15)
C3 C 1.14174(17) 0.8674(2) 0.11262(15)
H1 H 1.0641 0.8790 0.0774
C4 C 1.21167(17) 0.9737(2) 0.14685(15)
C5 C 1.32605(17) 0.9552(2) 0.20239(15)
H2 H 1.3723 1.0260 0.2280
C6 C 1.37257(17) 0.8327(2) 0.22038(15)
C7 C 1.30346(18) 0.7263(2) 0.18342(15)
H3 H 1.3349 0.6441 0.1939
C8 C 1.16449(18) 1.1074(2) 0.12360(15)
C9 C 1.49840(18) 0.8262(2) 0.27800(16)
C10 C 0.7492(2) 0.6047(3) -0.29074(16)
H4 H 0.7075 0.5742 -0.2590
C11 C 0.8813(2) 0.6884(3) -0.32175(19)
H5 H 0.9504 0.7264 -0.3151
C12 C 0.7960(2) 0.6581(4) -0.40134(19)
H6 H 0.7947 0.6724 -0.4584
C13 C 0.60339(19) 0.5506(2) -0.44163(16)
C14 C 0.5789(2) 0.5431(3) -0.53149(17)
H7 H 0.6320 0.5720 -0.5534
C15 C 0.5246(2) 0.5074(3) -0.40998(17)
H8 H 0.5409 0.5120 -0.3488
C16 C 1.18531(19) 0.5722(3) -0.07176(18)
H9 H 1.1756 0.4892 -0.0547
C17 C 1.1529(2) 0.7668(3) -0.1196(2)
H10 H 1.1152 0.8439 -0.1419
C18 C 1.2645(2) 0.7440(3) -0.0995(2)
H11 H 1.3172 0.8012 -0.1054
C19 C 1.3949(2) 0.5577(3) -0.0333(2)
C20 C 1.4060(2) 0.4358(3) -0.0617(2)
H12 H 1.3428 0.3933 -0.1035
C21 C 1.4877(2) 0.6225(3) 0.0273(2)
H13 H 1.4789 0.7054 0.0450
H14 H 1.6125(9) 0.717(4) 0.316(2)
Mn1 Mn 0.93135(3) 0.65988(3) -0.10026(2)
N1 N 0.71107(16) 0.6015(2) -0.38074(13)
N2 N 0.85161(16) 0.6555(2) -0.25257(13)
N3 N 1.10304(15) 0.6588(2) -0.10209(14)
N4 N 1.28542(16) 0.6200(2) -0.06870(17)
O1 O 1.15323(13) 0.51976(15) 0.11441(11)
O2 O 1.00445(12) 0.64957(15) 0.04521(10)
O3 O 1.05982(12) 1.12580(15) 0.10196(12)
O4 O 1.23117(13) 1.19932(14) 0.12497(11)
O5 O 1.54174(15) 0.71160(19) 0.28885(17)
O6 O 1.55646(14) 0.91997(19) 0.30758(15)
C1B C 0.89122(18) 1.3714(2) -0.09363(15)
C2B C 0.81329(17) 1.2568(2) -0.13053(15)
C3B C 0.85826(17) 1.1326(2) -0.11262(15)
H1B H 0.9359 1.1210 -0.0774
C4B C 0.78833(17) 1.0263(2) -0.14685(15)
C5B C 0.67395(17) 1.0448(2) -0.20239(15)
H2B H 0.6277 0.9740 -0.2280
C6B C 0.62743(17) 1.1673(2) -0.22038(15)
C7B C 0.69654(18) 1.2737(2) -0.18342(15)
H3B H 0.6651 1.3559 -0.1939
C8B C 0.83551(18) 0.8926(2) -0.12360(15)
C9B C 0.50160(18) 1.1738(2) -0.27800(16)
C10B C 0.2508(2) 0.3953(3) -0.70926(16)
H4B H 0.2925 0.4258 -0.7410
C11B C 0.1187(2) 0.3116(3) -0.67825(19)
H5B H 0.0496 0.2736 -0.6849
C12B C 0.2040(2) 0.3419(4) -0.59866(19)
H6B H 0.2053 0.3276 -0.5416
C13B C 0.39661(19) 0.4494(2) -0.55837(16)
C14B C 0.4211(2) 0.4569(3) -0.46851(17)
H7B H 0.3680 0.4280 -0.4466
C15B C 0.4754(2) 0.4926(3) -0.59002(17)
H8B H 0.4591 0.4880 -0.6512
C16B C 1.81469(19) 0.4278(3) 0.07176(18)
H9B H 1.8244 0.5108 0.0547
C17B C 1.8471(2) 0.2332(3) 0.1196(2)
H10B H 1.8848 0.1561 0.1419
C18B C 1.7355(2) 0.2560(3) 0.0995(2)
H11B H 1.6828 0.1988 0.1054
C19B C 1.6051(2) 0.4423(3) 0.0333(2)
C20B C 1.5940(2) 0.5642(3) 0.0617(2)
H12B H 1.6572 0.6067 0.1035
C21B C 1.5123(2) 0.3775(3) -0.0273(2)
H13B H 1.5211 0.2946 -0.0450
H14B H 0.3875(9) 1.283(4) -0.316(2)
Mn1B Mn 0.06865(3) 0.34012(3) -0.89974(2)
Mn1B_2 Mn 1.06865(3) 0.34012(3) 0.10026(2)
Mn1B_3 Mn 1.06865(3) 1.34012(3) 0.10026(2)
Mn1B_4 Mn 2.06865(3) 0.34012(3) 0.10026(2)
Mn1_2 Mn 0.93135(3) 1.65988(3) -0.10026(2)
N1B N 0.28893(16) 0.3985(2) -0.61926(13)
N2B N 0.14839(16) 0.3445(2) -0.74743(13)
N3B N 1.89696(15) 0.3412(2) 0.10209(14)
N3B_2 N -0.10304(15) 0.3412(2) -0.89791(14)
N4B N 1.71458(16) 0.3800(2) 0.06870(17)
O1B O 0.84677(13) 1.48024(15) -0.11441(11)
O1B_2 O 0.84677(13) 0.48024(15) -0.11441(11)
O1_2 O 0.15323(13) 0.51976(15) -0.88559(11)
O2B O 0.99555(12) 1.35043(15) -0.04521(10)
O2B_2 O -0.00445(12) 0.35043(15) -1.04521(10)
O3B O 0.94018(12) 0.87420(15) -0.10196(12)
O3_2 O 0.05982(12) 0.12580(15) -0.89804(12)
O4B O 0.76883(13) 0.80068(14) -0.12497(11)
O4_2 O 0.23117(13) 0.19932(14) -0.87503(11)
O5B O 0.45826(15) 1.28840(19) -0.28885(17)
O6B O 0.44354(14) 1.08003(19) -0.30758(15)
loop_
_geom_bond_atom_site_label_1
_geom_bond_atom_site_label_2
_geom_bond_site_symmetry_1
_geom_bond_site_symmetry_2
C1 C2 1_555 1_555
C2 C3 1_555 1_555
C3 H1 1_555 1_555
C4 C3 1_555 1_555
C5 C4 1_555 1_555
H2 C5 1_555 1_555
C6 C5 1_555 1_555
C7 C2 1_555 1_555
H3 C7 1_555 1_555
C8 C4 1_555 1_555
C9 C6 1_555 1_555
C10 H4 1_555 1_555
C11 H5 1_555 1_555
C12 C11 1_555 1_555
H6 C12 1_555 1_555
C13 C14 1_555 1_555
C14 H7 1_555 1_555
C15 C13 1_555 1_555
H8 C15 1_555 1_555
C16 H9 1_555 1_555
C17 H10 1_555 1_555
C18 C17 1_555 1_555
H11 C18 1_555 1_555
C19 C20 1_555 1_555
C20 H12 1_555 1_555
C21 C19 1_555 1_555
H13 C21 1_555 1_555
H14 O5 1_555 1_555
Mn1 N2 1_555 1_555
N1 C10 1_555 1_555
N2 C10 1_555 1_555
N3 C16 1_555 1_555
N4 C16 1_555 1_555
O1 C1 1_555 1_555
O2 C1 1_555 1_555
O3 C8 1_555 1_555
O4 C8 1_555 1_555
O5 C9 1_555 1_555
O6 C9 1_555 1_555
C1B C2B 1_555 1_555
C2B C3B 1_555 1_555
C3B H1B 1_555 1_555
C4B C3B 1_555 1_555
C5B C4B 1_555 1_555
H2B C5B 1_555 1_555
C6B C5B 1_555 1_555
C7B C2B 1_555 1_555
H3B C7B 1_555 1_555
C8B C4B 1_555 1_555
C9B C6B 1_555 1_555
C10B H4B 1_555 1_555
C11B H5B 1_555 1_555
C12B C11B 1_555 1_555
H6B C12B 1_555 1_555
C13B C14B 1_555 1_555
C14B C15 1_555 1_555
H7B C14B 1_555 1_555
C15B C14 1_555 1_555
H8B C15B 1_555 1_555
C16B H9B 1_555 1_555
C17B H10B 1_555 1_555
C18B C17B 1_555 1_555
H11B C18B 1_555 1_555
C19B C20B 1_555 1_555
C20B C21 1_555 1_555
H12B C20B 1_555 1_555
C21B C20 1_555 1_555
H13B C21B 1_555 1_555
H14B O5B 1_555 1_555
Mn1B N2B 1_555 1_555
Mn1B_2 O1 1_555 1_555
Mn1B_3 O3 1_555 1_555
Mn1B_4 N3B 1_555 1_555
Mn1_2 O1B 1_555 1_555
N1B C10B 1_555 1_555
N2B C10B 1_555 1_555
N3B C16B 1_555 1_555
N3B_2 Mn1B 1_555 1_555
N4B C16B 1_555 1_555
O1B C1B 1_555 1_555
O1B_2 Mn1 1_555 1_555
O1_2 Mn1B 1_555 1_555
O2B C1B 1_555 1_555
O2B_2 Mn1B 1_555 1_555
O3B Mn1 1_555 1_555
O3_2 Mn1B 1_555 1_555
O4B Mn1 1_555 1_555
O4_2 Mn1B 1_555 1_555
O5B C9B 1_555 1_555
O6B C9B 1_555 1_555
C6 C7 1_555 1_555
C11 N2 1_555 1_555
C12 N1 1_555 1_555
C13 N1 1_555 1_555
C17 N3 1_555 1_555
C18 N4 1_555 1_555
C19 N4 1_555 1_555
Mn1 N3 1_555 1_555
Mn1 O2 1_555 1_555
O4 Mn1B_3 1_555 1_555
C6B C7B 1_555 1_555
C8B O3B 1_555 1_555
C8B O4B 1_555 1_555
C11B N2B 1_555 1_555
C12B N1B 1_555 1_555
C13B C15B 1_555 1_555
C13B N1B 1_555 1_555
C17B N3B 1_555 1_555
C18B N4B 1_555 1_555
C19B C21B 1_555 1_555
C19B N4B 1_555 1_555
Mn1B_3 O2B 1_555 1_555

#END
