
#######################################################################
#
#                 Cambridge Crystallographic Data Centre
#                                CCDC 
#
#######################################################################
#
# If this CIF has been generated from an entry in the Cambridge 
# Structural Database, then it will include bibliographic, chemical, 
# crystal, experimental, refinement or atomic coordinate data resulting 
# from the CCDC's data processing and validation procedures.
#
#######################################################################

data_POKGUT
_symmetry_cell_setting           monoclinic
_symmetry_space_group_name_H-M   'P 21/c'
_symmetry_Int_Tables_number      14
_space_group_name_Hall           '-P 2ybc'
loop_
_symmetry_equiv_pos_site_id
_symmetry_equiv_pos_as_xyz
1 x,y,z
2 -x,1/2+y,1/2-z
3 -x,-y,-z
4 x,1/2-y,1/2+z
_cell_length_a                   10.2884(5)
_cell_length_b                   12.7097(4)
_cell_length_c                   10.3360(4)
_cell_angle_alpha                90
_cell_angle_beta                 103.593(4)
_cell_angle_gamma                90
_cell_volume                     1313.7
loop_
_atom_site_label
_atom_site_type_symbol
_atom_site_fract_x
_atom_site_fract_y
_atom_site_fract_z
Ag1 Ag 0.18438(2) 0.53333(2) 0.47382(2)
O1 O -0.02966(14) 0.44540(10) 0.36056(13)
O2 O 0.63718(15) 0.25186(11) 0.81313(15)
N1 N -0.05046(14) 0.36012(11) 0.28877(14)
N2 N -0.11080(14) 0.17946(11) 0.13712(14)
N3 N 0.34302(15) 0.43368(12) 0.58903(15)
N4 N 0.54474(15) 0.30953(12) 0.74301(16)
C1 C -0.00323(17) 0.26575(14) 0.33929(17)
H1 H 0.0517 0.2608 0.4269
C2 C -0.03561(18) 0.17697(13) 0.26239(18)
H2 H -0.0034 0.1109 0.2995
C3 C -0.15089(17) 0.27455(14) 0.08819(17)
H3 H -0.2016 0.2796 -0.0012
C4 C -0.12195(18) 0.36505(14) 0.16140(17)
H4 H -0.1521 0.4311 0.1226
C5 C 0.43225(18) 0.38256(14) 0.53639(18)
H5 H 0.4257 0.3891 0.4435
C6 C 0.53239(19) 0.32139(15) 0.60985(19)
H6 H 0.5934 0.2871 0.5677
C7 C 0.4558(2) 0.36072(15) 0.79873(19)
H7 H 0.4615 0.3548 0.8915
C8 C 0.3576(2) 0.42094(15) 0.72047(19)
H8 H 0.2963 0.4557 0.7617
Ag1A Ag -0.18438(2) 0.03333(2) 0.02618(2)
Ag1B Ag -0.18438(2) 0.46667(2) 0.52618(2)
O1B O 0.02966(14) 0.55460(10) 0.63944(13)
N2A N 0.11080(14) 0.67946(11) 0.36288(14)
F1 F 0.2760(2) 0.1790(2) 0.5218(3)
F2 F 0.2625(3) -0.0068(2) 0.7219(3)
F3 F 0.31912(19) 0.0054(2) 0.5269(2)
F4 F 0.2184(2) 0.1664(2) 0.7165(3)
F5 F 0.1050(8) 0.0715(6) 0.5451(10)
F6 F 0.4160(9) 0.1033(7) 0.7037(7)
P1 P 0.26325(5) 0.08686(4) 0.62170(5)
F7? F 0.2298(5) 0.2120(3) 0.6202(6)
F8? F 0.2694(6) -0.0333(3) 0.6206(10)
F9? F 0.2749(7) 0.0980(7) 0.4769(5)
F10? F 0.2162(5) 0.0858(7) 0.7618(4)
F11? F 0.1246(19) 0.0564(16) 0.557(2)
F12? F 0.412(2) 0.1138(16) 0.6729(16)
loop_
_geom_bond_atom_site_label_1
_geom_bond_atom_site_label_2
_geom_bond_site_symmetry_1
_geom_bond_site_symmetry_2
Ag1 O1 1_555 1_555
O1 N1 1_555 1_555
O2 N4 1_555 1_555
N1 C1 1_555 1_555
N2 C2 1_555 1_555
N3 Ag1 1_555 1_555
N4 C6 1_555 1_555
C1 H1 1_555 1_555
C2 C1 1_555 1_555
H2 C2 1_555 1_555
C3 N2 1_555 1_555
H3 C3 1_555 1_555
C4 N1 1_555 1_555
H4 C4 1_555 1_555
C5 N3 1_555 1_555
H5 C5 1_555 1_555
C6 C5 1_555 1_555
H6 C6 1_555 1_555
C7 N4 1_555 1_555
H7 C7 1_555 1_555
C8 N3 1_555 1_555
H8 C8 1_555 1_555
F1 P1 1_555 1_555
F2 P1 1_555 1_555
F3 P1 1_555 1_555
F4 P1 1_555 1_555
F5 P1 1_555 1_555
F6 P1 1_555 1_555
Ag1A N2 1_555 1_555
Ag1B O1 1_555 1_555
O1B Ag1 1_555 1_555
N2A Ag1 1_555 1_555
C3 C4 1_555 1_555
C7 C8 1_555 1_555
Ag1B O1B 1_555 1_555

#END
