
#######################################################################
#
#                 Cambridge Crystallographic Data Centre
#                                CCDC 
#
#######################################################################
#
# If this CIF has been generated from an entry in the Cambridge 
# Structural Database, then it will include bibliographic, chemical, 
# crystal, experimental, refinement or atomic coordinate data resulting 
# from the CCDC's data processing and validation procedures.
#
#######################################################################

data_POKHUT
_symmetry_cell_setting           triclinic
_symmetry_space_group_name_H-M   'P -1'
_symmetry_Int_Tables_number      2
_space_group_name_Hall           '-P 1'
loop_
_symmetry_equiv_pos_site_id
_symmetry_equiv_pos_as_xyz
1 x,y,z
2 -x,-y,-z
_cell_length_a                   10.162(2)
_cell_length_b                   11.792(2)
_cell_length_c                   17.655(4)
_cell_angle_alpha                88.18(3)
_cell_angle_beta                 88.21(3)
_cell_angle_gamma                65.00(3)
_cell_volume                     1916.05
loop_
_atom_site_label
_atom_site_type_symbol
_atom_site_fract_x
_atom_site_fract_y
_atom_site_fract_z
Cu1 Cu 0.48026(11) 0.45623(9) 0.31383(6)
Cu2 Cu 0.59177(11) 0.54026(9) 0.19072(6)
I1 I 0.64166(6) 0.58218(5) 0.33129(3)
I2 I 0.43310(7) 0.41610(6) 0.17141(3)
N1 N 0.5968(7) 0.2879(6) 0.3693(4)
N2 N 1.2864(7) -0.4605(6) 0.3731(4)
N3 N 0.4873(7) 0.7096(6) 0.1330(4)
N4 N -0.2133(7) 1.4514(6) 0.1332(4)
C1 C 0.7245(11) 0.2085(9) 0.3418(6)
H5 H 0.7600 0.2308 0.2973
C2 C 0.8079(12) 0.0937(9) 0.3762(7)
H6 H 0.8960 0.0409 0.3540
C3 C 0.7622(9) 0.0578(7) 0.4417(5)
C4 C 0.6325(11) 0.1413(9) 0.4716(5)
H7 H 0.5964 0.1232 0.5172
C5 C 0.5572(9) 0.2514(8) 0.4336(5)
H8 H 0.4694 0.3058 0.4552
C6 C 0.8515(9) -0.0702(7) 0.4786(5)
H9 H 0.9494 -0.1035 0.4573
H10 H 0.8577 -0.0599 0.5325
C7 C 0.7871(9) -0.1627(8) 0.4673(6)
H11 H 0.7737 -0.1679 0.4136
H12 H 0.6923 -0.1324 0.4922
C8 C 0.8816(11) -0.2927(8) 0.4985(6)
H13 H 0.8994 -0.2868 0.5516
H14 H 0.8296 -0.3450 0.4954
C9 C 1.2789(10) -0.4137(8) 0.4413(6)
H15 H 1.3635 -0.4163 0.4616
C10 C 1.1513(11) -0.3612(8) 0.4836(5)
H16 H 1.1523 -0.3303 0.5313
C11 C 1.0254(10) -0.3543(8) 0.4565(5)
C12 C 1.0331(10) -0.4062(8) 0.3878(6)
H17 H 0.9506 -0.4082 0.3676
C13 C 1.1635(10) -0.4559(8) 0.3484(5)
H18 H 1.1648 -0.4885 0.3010
C14 C 0.4693(11) 0.8162(8) 0.1643(5)
H19 H 0.5105 0.8121 0.2112
C15 C 0.3940(12) 0.9313(8) 0.1318(6)
H20 H 0.3871 1.0023 0.1563
C16 C 0.3289(9) 0.9437(7) 0.0640(5)
C17 C 0.3521(12) 0.8355(9) 0.0313(6)
H21 H 0.3145 0.8373 -0.0163
C18 C 0.4305(11) 0.7219(8) 0.0666(6)
H22 H 0.4436 0.6496 0.0415
C19 C 0.2376(11) 1.0706(8) 0.0270(6)
H23 H 0.2318 1.0587 -0.0267
H24 H 0.1398 1.1014 0.0483
C20 C 0.2922(10) 1.1683(8) 0.0360(6)
H25 H 0.3868 1.1418 0.0112
H26 H 0.3037 1.1779 0.0894
C21 C 0.1878(10) 1.2950(8) 0.0017(6)
H27 H 0.2338 1.3522 0.0010
H28 H 0.1685 1.2834 -0.0503
C22 C -0.2049(10) 1.4015(8) 0.0662(6)
H29 H -0.2886 1.3986 0.0483
C23 C -0.0824(10) 1.3538(8) 0.0213(5)
H30 H -0.0855 1.3225 -0.0260
C24 C 0.0453(9) 1.3522(7) 0.0460(5)
C25 C 0.0377(10) 1.4053(8) 0.1144(6)
H31 H 0.1201 1.4090 0.1334
C26 C -0.0904(9) 1.4533(8) 0.1556(5)
H32 H -0.0912 1.4894 0.2018
Cu1_2 Cu 1.48026(11) -0.54377(9) 0.31383(6)
Cu2_2 Cu -0.40823(11) 1.54026(9) 0.19072(6)
N2_2 N 0.2864(7) 0.5395(6) 0.3731(4)
N4_2 N 0.7867(7) 0.4514(6) 0.1332(4)
N5 N 0.2329(13) 0.8608(9) 0.3261(6)
H1 H 0.2988 0.7932 0.3449
H2 H 0.1510 0.8626 0.3135
C27 C 0.2588(13) 0.9670(10) 0.3162(6)
C28 C 0.3869(13) 0.9694(11) 0.3353(6)
H33 H 0.4617 0.8973 0.3543
C29 C 0.4055(15) 1.0747(13) 0.3269(7)
H34 H 0.4939 1.0738 0.3399
C30 C 0.302(2) 1.1811(13) 0.3005(9)
H35 H 0.3186 1.2526 0.2953
C31 C 0.1738(17) 1.1855(12) 0.2815(8)
H36 H 0.1018 1.2597 0.2629
C32 C 0.1483(13) 1.0789(12) 0.2895(6)
H37 H 0.0586 1.0817 0.2772
N6 N 0.829(2) 0.1383(15) 0.1464(11)
H3 H 0.7430 0.1961 0.1525
H4 H 0.8978 0.1571 0.1288
C33 C 0.8571(18) 0.0211(15) 0.1639(7)
C34 C 0.9975(17) -0.0704(16) 0.1554(8)
H38 H 1.0694 -0.0496 0.1341
C35 C 1.032(2) -0.1947(17) 0.1790(9)
H39 H 1.1257 -0.2578 0.1754
C36 C 0.917(2) -0.2162(17) 0.2075(10)
H40 H 0.9324 -0.2969 0.2230
C37 C 0.782(2) -0.123(2) 0.2136(10)
H41 H 0.7087 -0.1426 0.2345
C38 C 0.7438(19) 0.0008(18) 0.1909(9)
H42 H 0.6495 0.0631 0.1941
loop_
_geom_bond_atom_site_label_1
_geom_bond_atom_site_label_2
_geom_bond_site_symmetry_1
_geom_bond_site_symmetry_2
Cu1 I1 1_555 1_555
Cu2 I1 1_555 1_555
I2 Cu1 1_555 1_555
N1 Cu1 1_555 1_555
N2 C9 1_555 1_555
N3 Cu2 1_555 1_555
N4 C22 1_555 1_555
N5 H1 1_555 1_555
H2 N5 1_555 1_555
N6 H3 1_555 1_555
H4 N6 1_555 1_555
C1 N1 1_555 1_555
H5 C1 1_555 1_555
C2 C1 1_555 1_555
H6 C2 1_555 1_555
C3 C2 1_555 1_555
C4 C3 1_555 1_555
H7 C4 1_555 1_555
C5 N1 1_555 1_555
H8 C5 1_555 1_555
C6 C3 1_555 1_555
H9 C6 1_555 1_555
H10 C6 1_555 1_555
C7 C6 1_555 1_555
H11 C7 1_555 1_555
H12 C7 1_555 1_555
C8 C7 1_555 1_555
H13 C8 1_555 1_555
H14 C8 1_555 1_555
C9 H15 1_555 1_555
C10 C9 1_555 1_555
H16 C10 1_555 1_555
C11 C8 1_555 1_555
C12 C11 1_555 1_555
H17 C12 1_555 1_555
C13 N2 1_555 1_555
H18 C13 1_555 1_555
C14 N3 1_555 1_555
H19 C14 1_555 1_555
C15 C14 1_555 1_555
H20 C15 1_555 1_555
C16 C15 1_555 1_555
C17 C16 1_555 1_555
H21 C17 1_555 1_555
C18 N3 1_555 1_555
H22 C18 1_555 1_555
C19 C16 1_555 1_555
H23 C19 1_555 1_555
H24 C19 1_555 1_555
C20 C19 1_555 1_555
H25 C20 1_555 1_555
H26 C20 1_555 1_555
C21 C20 1_555 1_555
H27 C21 1_555 1_555
H28 C21 1_555 1_555
C22 H29 1_555 1_555
C23 C22 1_555 1_555
H30 C23 1_555 1_555
C24 C21 1_555 1_555
C25 C24 1_555 1_555
H31 C25 1_555 1_555
C26 N4 1_555 1_555
H32 C26 1_555 1_555
C27 N5 1_555 1_555
C28 C27 1_555 1_555
H33 C28 1_555 1_555
C29 C28 1_555 1_555
H34 C29 1_555 1_555
C30 C29 1_555 1_555
H35 C30 1_555 1_555
C31 C30 1_555 1_555
H36 C31 1_555 1_555
C32 C27 1_555 1_555
H37 C32 1_555 1_555
C33 N6 1_555 1_555
C34 C33 1_555 1_555
H38 C34 1_555 1_555
C35 C34 1_555 1_555
H39 C35 1_555 1_555
C36 C35 1_555 1_555
H40 C36 1_555 1_555
C37 C36 1_555 1_555
H41 C37 1_555 1_555
C38 C33 1_555 1_555
H42 C38 1_555 1_555
Cu1_2 N2 1_555 1_555
Cu2_2 N4 1_555 1_555
N2_2 Cu1 1_555 1_555
N4_2 Cu2 1_555 1_555
Cu2 I2 1_555 1_555
C4 C5 1_555 1_555
C10 C11 1_555 1_555
C12 C13 1_555 1_555
C17 C18 1_555 1_555
C23 C24 1_555 1_555
C25 C26 1_555 1_555
C31 C32 1_555 1_555
C37 C38 1_555 1_555

#END
