
#######################################################################
#
#                 Cambridge Crystallographic Data Centre
#                                CCDC 
#
#######################################################################
#
# If this CIF has been generated from an entry in the Cambridge 
# Structural Database, then it will include bibliographic, chemical, 
# crystal, experimental, refinement or atomic coordinate data resulting 
# from the CCDC's data processing and validation procedures.
#
#######################################################################

data_POKJUV
_symmetry_cell_setting           triclinic
_symmetry_space_group_name_H-M   'P -1'
_symmetry_Int_Tables_number      2
_space_group_name_Hall           '-P 1'
loop_
_symmetry_equiv_pos_site_id
_symmetry_equiv_pos_as_xyz
1 x,y,z
2 -x,-y,-z
_cell_length_a                   10.948(2)
_cell_length_b                   11.997(2)
_cell_length_c                   14.689(3)
_cell_angle_alpha                107.99(3)
_cell_angle_beta                 107.35(3)
_cell_angle_gamma                101.79(3)
_cell_volume                     1655.49
loop_
_atom_site_label
_atom_site_type_symbol
_atom_site_fract_x
_atom_site_fract_y
_atom_site_fract_z
C1 C -0.3040(4) 0.1748(3) 0.2009(2)
H1 H -0.3160 0.1473 0.1313
C2 C 0.2357(4) 0.5000(4) -0.1529(3)
H2 H 0.2146 0.5088 -0.0948
C3 C -0.1638(3) 0.2494(3) 0.3730(2)
H3 H -0.0783 0.2711 0.4238
C4 C -0.3986(3) 0.2233(3) 0.3285(2)
H4 H -0.4721 0.2280 0.3470
C5 C 0.2075(3) 0.1886(3) 0.3946(2)
C6 C 0.3262(3) 0.4674(3) -0.4166(2)
C7 C -0.2700(3) 0.2606(3) 0.4039(2)
C8 C 0.3000(3) 0.4784(3) -0.3204(2)
C9 C -0.2456(3) 0.3244(3) 0.5173(2)
C10 C 0.4007(3) 0.4996(4) -0.2275(3)
H5 H 0.4891 0.5074 -0.2221
C11 C -0.4159(4) 0.1790(4) 0.2252(3)
H6 H -0.5014 0.1525 0.1730
C12 C -0.2132(3) -0.1746(3) -0.0255(2)
C13 C 0.1709(3) 0.4678(3) -0.3242(2)
H7 H 0.1034 0.4518 -0.3873
C14 C -0.1062(3) 0.2515(3) -0.0661(2)
C15 C -0.1407(3) -0.0508(3) 0.0367(2)
H8 H -0.1037 -0.0021 0.0069
C16 C 0.3664(4) 0.5088(5) -0.1430(3)
H9 H 0.4312 0.5209 -0.0800
C17 C -0.2194(3) -0.2261(3) -0.1349(2)
C18 C 0.3286(5) 0.0718(5) 0.6388(4)
H10 H 0.3540 0.0434 0.6915
C19 C -0.2656(5) -0.2478(4) 0.0191(3)
H11 H -0.3164 -0.3310 -0.0200
C20 C -0.1862(4) 0.1330(3) -0.1364(3)
H12 H -0.2222 0.0743 -0.1140
C21 C 0.2536(4) 0.1459(3) 0.4813(2)
C22 C -0.1681(4) -0.0694(3) 0.1796(3)
H13 H -0.1519 -0.0347 0.2499
C23 C -0.0558(3) 0.3351(3) -0.1043(2)
H14 H 0.0008 0.4143 -0.0570
C24 C -0.1601(4) 0.1918(3) -0.2721(2)
H15 H -0.1788 0.1703 -0.3425
C25 C -0.2405(5) -0.1935(4) 0.1242(3)
H16 H -0.2725 -0.2410 0.1569
C26 C 0.3899(4) 0.1740(4) 0.5375(3)
H17 H 0.4544 0.2166 0.5201
C27 C -0.2122(5) 0.1026(4) -0.2405(3)
H18 H -0.2643 0.0227 -0.2889
C28 C 0.1616(4) 0.0809(5) 0.5090(3)
H19 H 0.0697 0.0607 0.4710
C29 C 0.1991(4) 0.0459(5) 0.5877(4)
H20 H 0.1351 0.0042 0.6059
C30 C -0.0756(3) 0.2964(3) 0.0485(2)
Co1 Co -0.06516(4) 0.46372(4) -0.25247(3)
Co2 Co -0.01568(4) 0.19857(4) 0.21950(3)
Eu1 Eu 0.321810(14) 0.440330(13) 0.365300(10)
N1 N 0.1371(3) 0.4793(3) -0.24236(19)
N2 N -0.0838(3) 0.3082(3) -0.20571(19)
N3 N -0.2680(3) 0.4464(3) -0.2516(2)
N4 N -0.2879(3) 0.4457(3) -0.1758(2)
N5 N -0.3085(4) 0.4420(4) -0.1047(3)
N6 N -0.1789(3) 0.2085(2) 0.27277(19)
N7 N -0.1202(3) 0.0035(2) 0.13683(19)
N8 N 0.4300(5) 0.1383(5) 0.6199(4)
O1 O -0.3424(2) 0.3561(2) 0.53316(16)
O2 O -0.1329(2) 0.3454(2) 0.58562(16)
O3 O 0.2263(2) 0.4379(2) -0.49884(15)
O4 O 0.4457(2) 0.4875(2) -0.41378(17)
O5 O 0.0843(2) 0.39068(19) 0.30057(15)
O6 O -0.3168(3) -0.3211(2) -0.20088(17)
O7 O -0.1238(3) -0.1689(3) -0.15047(18)
O8 O 0.2992(2) 0.2493(2) 0.37627(17)
O9 O 0.0823(2) 0.1623(2) 0.34767(16)
O10 O -0.0080(3) 0.4090(2) 0.10036(16)
O11 O -0.1202(3) 0.2196(2) 0.08227(16)
H21 H 0.069(4) 0.403(3) 0.357(3)
Co1A Co 0.06516(4) 0.53628(4) 0.25247(3)
Co1_2 Co -0.06516(4) 0.46372(4) 0.74753(3)
Co2A Co 0.01568(4) -0.19857(4) -0.21950(3)
Eu1_2 Eu 0.321810(14) 0.440330(13) -0.634700(10)
Eu1A Eu 0.678190(14) 0.559670(13) -0.365300(10)
Eu1A_2 Eu -0.321810(14) 0.559670(13) -0.365300(10)
Eu1A_3 Eu -0.321810(14) 0.559670(13) 0.634700(10)
Eu1A_4 Eu -0.321810(14) -0.440330(13) -0.365300(10)
N3A N 0.2680(3) 0.5536(3) 0.2516(2)
O1A O 0.3424(2) 0.6439(2) 0.46684(16)
O2_2 O -0.1329(2) 0.3454(2) -0.41438(16)
O3_2 O 0.2263(2) 0.4379(2) 0.50116(15)
O4A O 0.5543(2) 0.5125(2) 0.41378(17)
O5A O -0.0843(2) 0.60932(19) -0.30057(15)
O6A O 0.3168(3) 0.3211(2) 0.20088(17)
O7A O 0.1238(3) 0.1689(3) 0.15047(18)
O10A O 0.0080(3) 0.5910(2) -0.10036(16)
H21A H -0.069(4) 0.597(3) -0.357(3)
loop_
_geom_bond_atom_site_label_1
_geom_bond_atom_site_label_2
_geom_bond_site_symmetry_1
_geom_bond_site_symmetry_2
C1 H1 1_555 1_555
C2 H2 1_555 1_555
C3 H3 1_555 1_555
C4 H4 1_555 1_555
C5 C21 1_555 1_555
C6 C8 1_555 1_555
C7 C3 1_555 1_555
C8 C10 1_555 1_555
C9 C7 1_555 1_555
C10 H5 1_555 1_555
C11 C1 1_555 1_555
H6 C11 1_555 1_555
C12 C15 1_555 1_555
C13 C8 1_555 1_555
H7 C13 1_555 1_555
C14 C20 1_555 1_555
C15 H8 1_555 1_555
C16 C2 1_555 1_555
H9 C16 1_555 1_555
C17 C12 1_555 1_555
C18 H10 1_555 1_555
C19 C12 1_555 1_555
H11 C19 1_555 1_555
C20 H12 1_555 1_555
C21 C26 1_555 1_555
C22 H13 1_555 1_555
C23 C14 1_555 1_555
H14 C23 1_555 1_555
C24 H15 1_555 1_555
C25 C19 1_555 1_555
H16 C25 1_555 1_555
C26 H17 1_555 1_555
C27 C20 1_555 1_555
H18 C27 1_555 1_555
C28 C21 1_555 1_555
H19 C28 1_555 1_555
C29 C18 1_555 1_555
H20 C29 1_555 1_555
C30 C14 1_555 1_555
Co1 N1 1_555 1_555
Co2 N6 1_555 1_555
Eu1 O5 1_555 1_555
N1 C2 1_555 1_555
N2 C23 1_555 1_555
N3 Co1 1_555 1_555
N4 N3 1_555 1_555
N5 N4 1_555 1_555
N6 C1 1_555 1_555
N7 C15 1_555 1_555
N8 C18 1_555 1_555
O1 C9 1_555 1_555
O2 C9 1_555 1_555
O3 C6 1_555 1_555
O4 C6 1_555 1_555
O5 Co2 1_555 1_555
O6 C17 1_555 1_555
O7 C17 1_555 1_555
O8 C5 1_555 1_555
O9 C5 1_555 1_555
O10 C30 1_555 1_555
O11 C30 1_555 1_555
H21 O5 1_555 1_555
Co1A O5 1_555 1_555
Co1_2 O2 1_555 1_555
Co2A O7 1_555 1_555
Eu1_2 O3 1_555 1_555
Eu1A O4 1_555 1_555
Eu1A_2 N3 1_555 1_555
Eu1A_3 O1 1_555 1_555
Eu1A_4 O6 1_555 1_555
N3A Eu1 1_555 1_555
O1A Eu1 1_555 1_555
O2_2 Co1 1_555 1_555
O3_2 Eu1 1_555 1_555
O4A Eu1 1_555 1_555
O5A Co1 1_555 1_555
O6A Eu1 1_555 1_555
O7A Co2 1_555 1_555
O10A Co1 1_555 1_555
H21A O5A 1_555 1_555
C3 N6 1_555 1_555
C4 C7 1_555 1_555
C4 C11 1_555 1_555
C10 C16 1_555 1_555
C13 N1 1_555 1_555
C22 C25 1_555 1_555
C22 N7 1_555 1_555
C24 C27 1_555 1_555
C24 N2 1_555 1_555
C26 N8 1_555 1_555
C28 C29 1_555 1_555
Co1 N2 1_555 1_555
Co2 N7 1_555 1_555
Co2 O9 1_555 1_555
Co2 O11 1_555 1_555
Eu1 O8 1_555 1_555
O10 Co1A 1_555 1_555
Co1A N3A 1_555 1_555
Eu1A_2 O5A 1_555 1_555

#END
