
#######################################################################
#
#                 Cambridge Crystallographic Data Centre
#                                CCDC 
#
#######################################################################
#
# If this CIF has been generated from an entry in the Cambridge 
# Structural Database, then it will include bibliographic, chemical, 
# crystal, experimental, refinement or atomic coordinate data resulting 
# from the CCDC's data processing and validation procedures.
#
#######################################################################

data_POKJOP
_symmetry_cell_setting           triclinic
_symmetry_space_group_name_H-M   'P -1'
_symmetry_Int_Tables_number      2
_space_group_name_Hall           '-P 1'
loop_
_symmetry_equiv_pos_site_id
_symmetry_equiv_pos_as_xyz
1 x,y,z
2 -x,-y,-z
_cell_length_a                   10.918(2)
_cell_length_b                   12.042(2)
_cell_length_c                   14.638(3)
_cell_angle_alpha                107.80(3)
_cell_angle_beta                 107.26(3)
_cell_angle_gamma                102.29(3)
_cell_volume                     1649.48
loop_
_atom_site_label
_atom_site_type_symbol
_atom_site_fract_x
_atom_site_fract_y
_atom_site_fract_z
C1 C -0.7363(4) -0.5045(4) 0.1510(3)
H1 H -0.7146 -0.5152 0.0928
C2 C -0.4248(3) -0.2961(3) -0.0483(2)
C3 C -0.8681(4) -0.5132(5) 0.1404(3)
H2 H -0.9329 -0.5264 0.0767
C4 C -0.1926(4) -0.1737(4) -0.2000(3)
H3 H -0.1806 -0.1459 -0.1302
C5 C -0.3341(3) -0.2495(3) -0.3725(2)
H4 H -0.4202 -0.2714 -0.4232
C6 C -0.0990(3) -0.2249(4) -0.3282(3)
H5 H -0.0257 -0.2318 -0.3468
C7 C -0.2282(3) -0.2615(3) -0.4039(2)
C8 C -0.8314(3) -0.4675(3) 0.4151(2)
C9 C -0.2876(3) 0.1753(3) 0.0261(2)
C10 C -0.2536(3) -0.3268(3) -0.5171(2)
C11 C -0.4430(3) -0.3359(3) 0.1050(2)
H6 H -0.4983 -0.4154 0.0572
C12 C -0.6724(3) -0.4693(3) 0.3239(2)
H7 H -0.6051 -0.4537 0.3872
C13 C -0.7071(3) -0.1912(3) -0.3946(2)
C14 C -0.3577(3) 0.0509(3) -0.0361(2)
H8 H -0.3942 0.0011 -0.0066
C15 C -0.3936(3) -0.2514(3) 0.0669(2)
C16 C -0.2354(5) 0.2503(4) -0.0186(3)
H9 H -0.1881 0.3343 0.0200
C17 C -0.8035(3) -0.4792(3) 0.3193(2)
C18 C -0.9033(3) -0.5023(4) 0.2251(3)
H10 H -0.9923 -0.5103 0.2189
C19 C -0.7553(3) -0.1476(3) -0.4807(3)
C20 C -0.8919(4) -0.1789(4) -0.5375(3)
H11 H -0.9567 -0.2263 -0.5228
C21 C -0.0808(4) -0.1779(4) -0.2242(3)
H12 H 0.0054 -0.1497 -0.1719
C22 C -0.2835(3) 0.2254(3) 0.1348(2)
C23 C -0.3415(4) -0.1927(3) 0.2730(3)
H13 H -0.3230 -0.1718 0.3435
C24 C -0.3286(4) 0.0718(3) -0.1789(3)
H14 H -0.3455 0.0378 -0.2494
C25 C -0.3158(5) -0.1320(4) 0.1372(3)
H15 H -0.2805 -0.0728 0.1148
C26 C -0.2562(5) 0.1953(4) -0.1231(3)
H16 H -0.2209 0.2425 -0.1550
C27 C -0.9312(5) -0.1378(5) -0.6174(4)
H17 H -1.0228 -0.1560 -0.6565
C28 C -0.8320(5) -0.0702(6) -0.6372(4)
H18 H -0.8589 -0.0422 -0.6900
C29 C -0.2910(6) -0.1018(4) 0.2415(3)
H19 H -0.2410 -0.0213 0.2900
C30 C -0.6635(4) -0.0813(5) -0.5080(4)
H20 H -0.5713 -0.0627 -0.4706
Co1 Co -0.43483(4) -0.46525(4) 0.25293(3)
Co2 Co -0.48255(4) -0.19731(4) -0.21906(3)
Dy1 Dy -0.819620(13) -0.440690(13) -0.364440(10)
H21 H -0.568(4) -0.408(3) -0.356(3)
N1 N -0.2310(3) -0.4464(3) 0.2535(2)
N2 N -0.2105(3) -0.4436(3) 0.1776(2)
N3 N -0.1895(4) -0.4382(4) 0.1068(3)
N4 N -0.4165(3) -0.3103(3) 0.2059(2)
N5 N -0.3182(3) -0.2079(3) -0.2723(2)
N6 N -0.6382(3) -0.4811(3) 0.2420(2)
N7 N -0.6987(4) -0.0421(5) -0.5849(4)
N8 N -0.3759(3) -0.0018(2) -0.1359(2)
O1 O -0.5853(2) -0.3903(2) -0.30098(16)
O2 O -0.4921(3) -0.4082(2) -0.10055(17)
O3 O -0.3791(3) -0.2189(2) -0.08181(18)
O4 O -0.3786(3) 0.1655(3) 0.1496(2)
O5 O -0.1895(3) 0.3234(2) 0.20117(18)
O6 O -0.5819(2) -0.1629(2) -0.34767(18)
O7 O -0.7987(2) -0.2535(2) -0.37596(18)
O8 O -0.7324(2) -0.4378(2) 0.49784(17)
O9 O -0.3672(2) -0.3478(2) -0.58522(17)
O10 O -0.1579(2) -0.3602(2) -0.53377(17)
O11 O -0.9524(2) -0.4899(2) 0.41027(19)
Co1A Co -0.56517(4) -0.53475(4) -0.25293(3)
Co1_2 Co -0.43483(4) -0.46525(4) -0.74707(3)
Co2A Co -0.51745(4) 0.19731(4) 0.21906(3)
Dy1_2 Dy -0.819620(13) -0.440690(13) 0.635560(10)
Dy1A Dy -1.180380(13) -0.559310(13) 0.364440(10)
Dy1A_2 Dy -0.180380(13) -0.559310(13) 0.364440(10)
Dy1A_3 Dy -0.180380(13) -0.559310(13) -0.635560(10)
Dy1A_4 Dy -0.180380(13) 0.440690(13) 0.364440(10)
H21A H -0.432(4) -0.592(3) 0.356(3)
N1A N -0.7690(3) -0.5536(3) -0.2535(2)
O1A O -0.4147(2) -0.6097(2) 0.30098(16)
O2A O -0.5079(3) -0.5918(2) 0.10055(17)
O4A O -0.6214(3) -0.1655(3) -0.1496(2)
O5A O -0.8105(3) -0.3234(2) -0.20117(18)
O8_2 O -0.7324(2) -0.4378(2) -0.50216(17)
O9_2 O -0.3672(2) -0.3478(2) 0.41478(17)
O10A O -0.8421(2) -0.6398(2) -0.46623(17)
O11A O -1.0476(2) -0.5101(2) -0.41027(19)
loop_
_geom_bond_atom_site_label_1
_geom_bond_atom_site_label_2
_geom_bond_site_symmetry_1
_geom_bond_site_symmetry_2
C1 H1 1_555 1_555
C2 C15 1_555 1_555
C3 C1 1_555 1_555
H2 C3 1_555 1_555
C4 H3 1_555 1_555
C5 H4 1_555 1_555
C6 H5 1_555 1_555
C7 C5 1_555 1_555
C8 C17 1_555 1_555
C9 C14 1_555 1_555
C10 C7 1_555 1_555
C11 H6 1_555 1_555
C12 H7 1_555 1_555
C13 C19 1_555 1_555
C14 H8 1_555 1_555
C15 C11 1_555 1_555
C16 C9 1_555 1_555
H9 C16 1_555 1_555
C17 C12 1_555 1_555
C18 C3 1_555 1_555
H10 C18 1_555 1_555
C19 C20 1_555 1_555
C20 H11 1_555 1_555
C21 C4 1_555 1_555
H12 C21 1_555 1_555
C22 C9 1_555 1_555
C23 H13 1_555 1_555
C24 H14 1_555 1_555
C25 C15 1_555 1_555
H15 C25 1_555 1_555
C26 C16 1_555 1_555
H16 C26 1_555 1_555
C27 C20 1_555 1_555
H17 C27 1_555 1_555
C28 C27 1_555 1_555
H18 C28 1_555 1_555
C29 C23 1_555 1_555
H19 C29 1_555 1_555
C30 C19 1_555 1_555
H20 C30 1_555 1_555
Co1 N1 1_555 1_555
Co2 N5 1_555 1_555
Dy1 O1 1_555 1_555
H21 O1 1_555 1_555
N1 N2 1_555 1_555
N2 N3 1_555 1_555
N4 C11 1_555 1_555
N5 C4 1_555 1_555
N6 C1 1_555 1_555
N7 C28 1_555 1_555
N8 C14 1_555 1_555
O1 Co2 1_555 1_555
O2 C2 1_555 1_555
O3 C2 1_555 1_555
O4 C22 1_555 1_555
O5 C22 1_555 1_555
O6 C13 1_555 1_555
O7 C13 1_555 1_555
O8 C8 1_555 1_555
O9 C10 1_555 1_555
O10 C10 1_555 1_555
O11 C8 1_555 1_555
Co1A O1 1_555 1_555
Co1_2 O9 1_555 1_555
Co2A O4 1_555 1_555
Dy1_2 O8 1_555 1_555
Dy1A O11 1_555 1_555
Dy1A_2 N1 1_555 1_555
Dy1A_3 O10 1_555 1_555
Dy1A_4 O5 1_555 1_555
H21A O1A 1_555 1_555
N1A Dy1 1_555 1_555
O1A Co1 1_555 1_555
O2A Co1 1_555 1_555
O4A Co2 1_555 1_555
O5A Dy1 1_555 1_555
O8_2 Dy1 1_555 1_555
O9_2 Co1 1_555 1_555
O10A Dy1 1_555 1_555
O11A Dy1 1_555 1_555
C5 N5 1_555 1_555
C6 C7 1_555 1_555
C6 C21 1_555 1_555
C12 N6 1_555 1_555
C17 C18 1_555 1_555
C23 N4 1_555 1_555
C24 C26 1_555 1_555
C24 N8 1_555 1_555
C25 C29 1_555 1_555
C30 N7 1_555 1_555
Co1 N4 1_555 1_555
Co1 N6 1_555 1_555
Co2 N8 1_555 1_555
Co2 O3 1_555 1_555
Co2 O6 1_555 1_555
Dy1 O7 1_555 1_555
O2 Co1A 1_555 1_555
Co1A N1A 1_555 1_555
Dy1A_2 O1A 1_555 1_555

#END
