
#######################################################################
#
#                 Cambridge Crystallographic Data Centre
#                                CCDC 
#
#######################################################################
#
# If this CIF has been generated from an entry in the Cambridge 
# Structural Database, then it will include bibliographic, chemical, 
# crystal, experimental, refinement or atomic coordinate data resulting 
# from the CCDC's data processing and validation procedures.
#
#######################################################################

data_POKJAB
_symmetry_cell_setting           triclinic
_symmetry_space_group_name_H-M   'P -1'
_symmetry_Int_Tables_number      2
_space_group_name_Hall           '-P 1'
loop_
_symmetry_equiv_pos_site_id
_symmetry_equiv_pos_as_xyz
1 x,y,z
2 -x,-y,-z
_cell_length_a                   10.925(2)
_cell_length_b                   12.028(2)
_cell_length_c                   14.663(3)
_cell_angle_alpha                107.87(3)
_cell_angle_beta                 107.33(3)
_cell_angle_gamma                102.11(3)
_cell_volume                     1651.6
loop_
_atom_site_label
_atom_site_type_symbol
_atom_site_fract_x
_atom_site_fract_y
_atom_site_fract_z
C1 C 0.5755(3) 0.7043(3) 0.45143(19)
C2 C 0.6650(3) 0.7506(2) 0.12735(19)
H1 H 0.5792 0.7292 0.0765
C3 C 0.8058(3) 0.8255(3) 0.2996(2)
H2 H 0.8175 0.8533 0.3692
C4 C 0.2642(3) 0.4977(3) 0.6519(2)
H3 H 0.2862 0.4889 0.5941
C5 C 0.9001(3) 0.7759(3) 0.1722(2)
H4 H 0.9739 0.7710 0.1538
C6 C 0.7718(3) 0.7385(2) 0.09636(18)
C7 C 0.7125(3) 1.1749(3) 0.5258(2)
C8 C 0.6064(3) 0.7487(2) 0.56659(19)
C9 C 0.2925(3) 0.8103(2) 0.10531(19)
C10 C 0.9178(3) 0.8207(3) 0.2756(2)
H5 H 1.0036 0.8472 0.3280
C11 C 0.3282(3) 0.5313(3) 0.82397(19)
H6 H 0.3956 0.5471 0.8872
C12 C 0.7461(3) 0.6744(2) -0.01714(19)
C13 C 0.1977(2) 0.5213(3) 0.81953(19)
C14 C 0.2452(3) 0.8527(3) 0.0189(2)
C15 C 0.6421(3) 1.0505(2) 0.46379(19)
H7 H 0.6063 1.0007 0.4935
C16 C 0.1325(3) 0.4876(4) 0.6410(2)
H8 H 0.0675 0.4738 0.5772
C17 C 0.6710(3) 1.0711(3) 0.3208(2)
H9 H 0.6554 1.0366 0.2506
C18 C 0.7656(4) 1.2485(3) 0.4810(2)
H10 H 0.8157 1.3319 0.5202
C19 C 0.5563(3) 0.6649(3) 0.60452(19)
H11 H 0.5001 0.5855 0.5569
C20 C 0.3366(3) 0.9195(4) -0.0086(3)
H12 H 0.4289 0.9393 0.0290
C21 C 0.7175(3) 1.2256(2) 0.63501(19)
C22 C 0.6591(4) 0.8082(3) 0.7726(2)
H13 H 0.6770 0.8295 0.8430
C23 C 0.6855(4) 0.8677(3) 0.6366(2)
H14 H 0.7210 0.9266 0.6141
C24 C 0.7426(4) 1.1955(3) 0.3768(3)
H15 H 0.7754 1.2436 0.3447
C25 C 0.7110(4) 0.8981(3) 0.7412(2)
H16 H 0.7626 0.9782 0.7898
C26 C 0.1084(3) 0.8232(3) -0.0374(3)
H17 H 0.0440 0.7788 -0.0207
C27 C 0.3002(3) 0.9568(4) -0.0857(3)
H18 H 0.3648 1.0016 -0.1019
C28 C 0.1693(4) 0.9283(5) -0.1385(3)
H19 H 0.1433 0.9554 -0.1919
C29 C 0.0975(3) 0.4982(3) 0.7257(2)
H20 H 0.0086 0.4900 0.7197
C30 C 0.1712(2) 0.5321(2) 0.91551(19)
Co1 Co 0.51679(3) 0.80229(3) 0.28079(2)
Co2 Co 0.56523(3) 0.53546(3) 0.75275(2)
H21 H 0.428(4) 0.601(4) 0.152(3)
N1 N 0.7686(2) 0.5535(2) 0.75252(17)
N2 N 0.7890(2) 0.5554(2) 0.67698(19)
N3 N 0.8105(3) 0.5596(4) 0.6061(2)
N4 N 0.6229(2) 0.9982(2) 0.36402(16)
N5 N 0.6807(2) 0.7919(2) 0.22742(16)
N6 N 0.5839(2) 0.6914(2) 0.70592(16)
N7 N 0.3621(2) 0.5194(2) 0.74201(17)
N8 N 0.0677(4) 0.8603(4) -0.1192(3)
O1 O 0.04954(18) 0.51101(19) 0.91125(15)
O2 O 0.26968(18) 0.56205(19) 0.99834(13)
O3 O 0.20099(19) 0.74797(19) 0.12372(15)
O4 O 0.41803(19) 0.83756(19) 0.15235(14)
O5 O 0.6224(2) 1.1669(2) 0.65001(15)
O6 O 0.8129(2) 1.32189(18) 0.70097(14)
O7 O 0.5080(2) 0.59178(18) 0.39980(13)
O8 O 0.6207(2) 0.78070(19) 0.41789(14)
O9 O 0.41471(17) 0.61021(17) 0.19923(13)
O10 O 0.84267(18) 0.64105(18) -0.03345(14)
O11 O 0.63325(19) 0.65347(19) -0.08524(13)
Tb1 Tb 0.179574(11) 0.559418(11) 0.135240(8)
Co1A Co 0.48321(3) 1.19771(3) 0.71921(2)
Co2A Co 0.43477(3) 0.46454(3) 0.24725(2)
Co2_2 Co 0.56523(3) 0.53546(3) -0.24725(2)
H21A H 0.572(4) 0.399(4) 0.848(3)
N1A N 0.2314(2) 0.4465(2) 0.24748(17)
O1A O -0.04954(18) 0.48899(19) 0.08875(15)
O2_2 O 0.26968(18) 0.56205(19) -0.00166(13)
O5A O 0.3776(2) 0.8331(2) 0.34999(15)
O6A O 0.1871(2) 0.67811(18) 0.29903(14)
O7A O 0.4920(2) 0.40822(18) 0.60020(13)
O9A O 0.58529(17) 0.38979(17) 0.80077(13)
O10A O 0.15733(18) 0.35895(18) 0.03345(14)
O11_2 O 0.63325(19) 0.65347(19) 0.91476(13)
Tb1A Tb 0.820426(11) 0.440582(11) 0.864760(8)
Tb1A_2 Tb -0.179574(11) 0.440582(11) 0.864760(8)
Tb1_2 Tb 0.179574(11) 0.559418(11) 1.135240(8)
Tb1A_3 Tb 0.820426(11) 1.440582(11) 0.864760(8)
Tb1A_4 Tb 0.820426(11) 0.440582(11) -0.135240(8)
loop_
_geom_bond_atom_site_label_1
_geom_bond_atom_site_label_2
_geom_bond_site_symmetry_1
_geom_bond_site_symmetry_2
C1 C8 1_555 1_555
C2 H1 1_555 1_555
C3 H2 1_555 1_555
C4 H3 1_555 1_555
C5 H4 1_555 1_555
C6 C2 1_555 1_555
C7 C15 1_555 1_555
C8 C19 1_555 1_555
C9 C14 1_555 1_555
C10 C3 1_555 1_555
H5 C10 1_555 1_555
C11 H6 1_555 1_555
C12 C6 1_555 1_555
C13 C11 1_555 1_555
C14 C20 1_555 1_555
C15 H7 1_555 1_555
C16 C4 1_555 1_555
H8 C16 1_555 1_555
C17 H9 1_555 1_555
C18 C7 1_555 1_555
H10 C18 1_555 1_555
C19 H11 1_555 1_555
C20 H12 1_555 1_555
C21 C7 1_555 1_555
C22 H13 1_555 1_555
C23 C8 1_555 1_555
H14 C23 1_555 1_555
C24 C17 1_555 1_555
H15 C24 1_555 1_555
C25 C22 1_555 1_555
H16 C25 1_555 1_555
C26 C14 1_555 1_555
H17 C26 1_555 1_555
C27 C20 1_555 1_555
H18 C27 1_555 1_555
C28 C27 1_555 1_555
H19 C28 1_555 1_555
C29 C13 1_555 1_555
H20 C29 1_555 1_555
C30 C13 1_555 1_555
Co1 N4 1_555 1_555
Co2 N1 1_555 1_555
H21 O9 1_555 1_555
N1 N2 1_555 1_555
N2 N3 1_555 1_555
N4 C15 1_555 1_555
N5 C2 1_555 1_555
N6 C19 1_555 1_555
N7 C4 1_555 1_555
N8 C26 1_555 1_555
O1 C30 1_555 1_555
O2 C30 1_555 1_555
O3 C9 1_555 1_555
O4 C9 1_555 1_555
O5 C21 1_555 1_555
O6 C21 1_555 1_555
O7 C1 1_555 1_555
O8 C1 1_555 1_555
O9 Co1 1_555 1_555
O10 C12 1_555 1_555
O11 C12 1_555 1_555
Tb1 O3 1_555 1_555
Co1A O5 1_555 1_555
Co2A O7 1_555 1_555
Co2_2 O11 1_555 1_555
H21A O9A 1_555 1_555
N1A Tb1 1_555 1_555
O1A Tb1 1_555 1_555
O2_2 Tb1 1_555 1_555
O5A Co1 1_555 1_555
O6A Tb1 1_555 1_555
O7A Co2 1_555 1_555
O9A Co2 1_555 1_555
O10A Tb1 1_555 1_555
O11_2 Co2 1_555 1_555
Tb1A N1 1_555 1_555
Tb1A_2 O1 1_555 1_555
Tb1_2 O2 1_555 1_555
Tb1A_3 O6 1_555 1_555
Tb1A_4 O10 1_555 1_555
C3 N5 1_555 1_555
C5 C6 1_555 1_555
C5 C10 1_555 1_555
C11 N7 1_555 1_555
C16 C29 1_555 1_555
C17 N4 1_555 1_555
C18 C24 1_555 1_555
C22 N6 1_555 1_555
C23 C25 1_555 1_555
C28 N8 1_555 1_555
Co1 N5 1_555 1_555
Co1 O4 1_555 1_555
Co1 O8 1_555 1_555
Co2 N6 1_555 1_555
Co2 N7 1_555 1_555
O9 Tb1 1_555 1_555
O9 Co2A 1_555 1_555
Co2A N1A 1_555 1_555
O9A Tb1A 1_555 1_555

#END
