
#######################################################################
#
#                 Cambridge Crystallographic Data Centre
#                                CCDC 
#
#######################################################################
#
# If this CIF has been generated from an entry in the Cambridge 
# Structural Database, then it will include bibliographic, chemical, 
# crystal, experimental, refinement or atomic coordinate data resulting 
# from the CCDC's data processing and validation procedures.
#
#######################################################################

data_POKLIL01
_symmetry_cell_setting           monoclinic
_symmetry_space_group_name_H-M   'C 2/c'
_symmetry_Int_Tables_number      15
_space_group_name_Hall           '-C 2yn'
loop_
_symmetry_equiv_pos_site_id
_symmetry_equiv_pos_as_xyz
1 x,y,z
2 -x,y,1/2-z
3 1/2+x,1/2+y,z
4 1/2-x,1/2+y,1/2-z
5 -x,-y,-z
6 x,-y,1/2+z
7 1/2-x,1/2-y,-z
8 1/2+x,1/2-y,1/2+z
_cell_length_a                   9.199(2)
_cell_length_b                   19.815(5)
_cell_length_c                   10.042(2)
_cell_angle_alpha                90
_cell_angle_beta                 109.022(3)
_cell_angle_gamma                90
_cell_volume                     1730.48
loop_
_atom_site_label
_atom_site_type_symbol
_atom_site_fract_x
_atom_site_fract_y
_atom_site_fract_z
Tb1 Tb 0.0000 0.486783(6) 0.2500
O1 O -0.1001(2) 0.56334(8) 0.36916(17)
O2 O -0.0585(2) 0.60097(8) 0.58639(16)
O5 O 0.2413(2) 0.44124(9) 0.22810(19)
H1 H 0.306(4) 0.461(2) 0.256(4)
H2 H 0.262(4) 0.398(2) 0.254(4)
O6 O -0.2132(2) 0.54026(10) 0.06347(19)
H3 H -0.300(5) 0.542(2) 0.070(4)
H4 H -0.221(4) 0.5428(19) -0.021(4)
N1 N -0.1628(2) 0.81332(10) 0.3042(2)
C1 C -0.1004(3) 0.80036(12) 0.4416(3)
H5 H -0.076(4) 0.8365(17) 0.497(3)
C2 C -0.0753(3) 0.73537(12) 0.4955(2)
H6 H -0.033(3) 0.7278(14) 0.592(3)
C3 C -0.1140(2) 0.68119(11) 0.4036(2)
C4 C -0.1758(3) 0.69452(12) 0.2604(2)
H7 H -0.202(3) 0.6619(15) 0.199(3)
C5 C -0.1985(3) 0.76087(13) 0.2168(3)
H8 H -0.245(4) 0.7733(17) 0.124(4)
C6 C -0.0890(2) 0.60963(10) 0.4572(2)
Tb1D Tb 0.0000 0.513217(6) -0.2500
Tb1D_2 Tb 0.0000 0.513217(6) 0.7500
O1A O 0.1001(2) 0.56334(8) 0.13084(17)
O2A O 0.0585(2) 0.60097(8) -0.08639(16)
O2D O 0.0585(2) 0.39903(8) 0.41361(16)
O2E O -0.0585(2) 0.39903(8) 0.08639(16)
O5A O -0.2413(2) 0.44124(9) 0.27190(19)
H1A H -0.306(4) 0.461(2) 0.244(4)
H2A H -0.262(4) 0.398(2) 0.246(4)
O6A O 0.2132(2) 0.54026(10) 0.43653(19)
H3A H 0.300(5) 0.542(2) 0.430(4)
H4A H 0.221(4) 0.5428(19) 0.521(4)
N1A N 0.1628(2) 0.81332(10) 0.1958(2)
C1A C 0.1004(3) 0.80036(12) 0.0584(3)
H5A H 0.076(4) 0.8365(17) 0.003(3)
C2A C 0.0753(3) 0.73537(12) 0.0045(2)
H6A H 0.033(3) 0.7278(14) -0.092(3)
C3A C 0.1140(2) 0.68119(11) 0.0964(2)
C4A C 0.1758(3) 0.69452(12) 0.2396(2)
H7A H 0.202(3) 0.6619(15) 0.301(3)
C5A C 0.1985(3) 0.76087(13) 0.2832(3)
H8A H 0.245(4) 0.7733(17) 0.376(4)
C6A C 0.0890(2) 0.60963(10) 0.0428(2)
O3 O 0.5000 0.62600(17) 0.2500
O4 O 0.4839(3) 0.53217(13) 0.3519(2)
N2 N 0.5000 0.56429(16) 0.2500
O4A O 0.5161(3) 0.53217(13) 0.1481(2)
loop_
_geom_bond_atom_site_label_1
_geom_bond_atom_site_label_2
_geom_bond_site_symmetry_1
_geom_bond_site_symmetry_2
Tb1 O1 1_555 1_555
O1 C6 1_555 1_555
O2 C6 1_555 1_555
O3 N2 1_555 1_555
O4 N2 1_555 1_555
O5 Tb1 1_555 1_555
H1 O5 1_555 1_555
H2 O5 1_555 1_555
O6 Tb1 1_555 1_555
H3 O6 1_555 1_555
H4 O6 1_555 1_555
N1 C1 1_555 1_555
N2 O4A 1_555 1_555
C1 H5 1_555 1_555
C2 C1 1_555 1_555
H6 C2 1_555 1_555
C3 C2 1_555 1_555
C4 C3 1_555 1_555
H7 C4 1_555 1_555
C5 N1 1_555 1_555
H8 C5 1_555 1_555
C6 C3 1_555 1_555
Tb1D O2A 1_555 1_555
Tb1D_2 O2 1_555 1_555
O1A Tb1 1_555 1_555
O2A C6A 1_555 1_555
O2D Tb1 1_555 1_555
O2E Tb1 1_555 1_555
O5A Tb1 1_555 1_555
H1A O5A 1_555 1_555
H2A O5A 1_555 1_555
O6A Tb1 1_555 1_555
H3A O6A 1_555 1_555
H4A O6A 1_555 1_555
N1A C1A 1_555 1_555
C1A H5A 1_555 1_555
C2A C1A 1_555 1_555
H6A C2A 1_555 1_555
C3A C2A 1_555 1_555
C4A C3A 1_555 1_555
H7A C4A 1_555 1_555
C5A N1A 1_555 1_555
H8A C5A 1_555 1_555
C6A O1A 1_555 1_555
C4 C5 1_555 1_555
C3A C6A 1_555 1_555
C4A C5A 1_555 1_555

#END
