
#######################################################################
#
#                 Cambridge Crystallographic Data Centre
#                                CCDC 
#
#######################################################################
#
# If this CIF has been generated from an entry in the Cambridge 
# Structural Database, then it will include bibliographic, chemical, 
# crystal, experimental, refinement or atomic coordinate data resulting 
# from the CCDC's data processing and validation procedures.
#
#######################################################################

data_POKLIL
_symmetry_cell_setting           monoclinic
_symmetry_space_group_name_H-M   'C 2/c'
_symmetry_Int_Tables_number      15
_space_group_name_Hall           '-C 2yn'
loop_
_symmetry_equiv_pos_site_id
_symmetry_equiv_pos_as_xyz
1 x,y,z
2 1/2+x,1/2+y,z
3 -x,y,1/2-z
4 1/2-x,1/2+y,1/2-z
5 -x,-y,-z
6 1/2-x,1/2-y,-z
7 x,-y,1/2+z
8 1/2+x,1/2-y,1/2+z
_cell_length_a                   9.2127(8)
_cell_length_b                   19.803(2)
_cell_length_c                   10.0537(9)
_cell_angle_alpha                90
_cell_angle_beta                 108.980(2)
_cell_angle_gamma                90
_cell_volume                     1734.47
loop_
_atom_site_label
_atom_site_type_symbol
_atom_site_fract_x
_atom_site_fract_y
_atom_site_fract_z
Tb1 Tb 0.5000 -0.013210(10) 0.2500
O1 O 0.4004(3) 0.06337(10) 0.3691(2)
O2 O 0.4411(3) 0.10095(10) 0.5865(2)
O3 O 0.2590(2) -0.05851(10) 0.2718(2)
O4 O 0.7133(3) 0.03996(12) 0.4361(2)
N1 N 0.3372(3) 0.31332(12) 0.3049(3)
C1 C 0.4112(3) 0.10949(12) 0.4572(3)
C2 C 0.3860(3) 0.18129(13) 0.4032(3)
C3 C 0.3241(3) 0.1943(1) 0.2601(3)
C4 C 0.3019(4) 0.2610(2) 0.2174(3)
C5 C 0.3993(4) 0.3005(2) 0.4415(4)
C6 C 0.4245(3) 0.2354(1) 0.4953(3)
H1 H 0.2977 0.1586 0.1937
H2 H 0.2588 0.2699 0.1195
H3 H 0.4275 0.3375 0.5050
H4 H 0.4676 0.2280 0.5937
H5 H 0.2261 -0.0968 0.2506
H6 H 0.1751 -0.0318 0.2486
H7 H 0.7261 0.0409 0.5173
H8 H 0.8161 0.0499 0.4263
Tb1F Tb 0.5000 0.013210(10) 0.7500
Tb1F_2 Tb 0.5000 0.013210(10) -0.2500
O1B O 0.5996(3) 0.06337(10) 0.1309(2)
O2B O 0.5589(3) 0.10095(10) -0.0865(2)
O2F O 0.4411(3) -0.10095(10) 0.0865(2)
O2D O 0.5589(3) -0.10095(10) 0.4135(2)
O3B O 0.7410(2) -0.05851(10) 0.2282(2)
O4B O 0.2867(3) 0.03996(12) 0.0639(2)
N1B N 0.6628(3) 0.31332(12) 0.1951(3)
C1B C 0.5888(3) 0.10949(12) 0.0428(3)
C2B C 0.6140(3) 0.18129(13) 0.0968(3)
C3B C 0.6759(3) 0.1943(1) 0.2399(3)
C4B C 0.6981(4) 0.2610(2) 0.2826(3)
C5B C 0.6007(4) 0.3005(2) 0.0585(4)
C6B C 0.5755(3) 0.2354(1) 0.0047(3)
H1B H 0.7023 0.1586 0.3063
H2B H 0.7412 0.2699 0.3805
H3B H 0.5725 0.3375 -0.0050
H4B H 0.5324 0.2280 -0.0937
H5B H 0.7739 -0.0968 0.2494
H6B H 0.8249 -0.0318 0.2514
H7B H 0.2739 0.0409 -0.0173
H8B H 0.1839 0.0499 0.0737
O5 O 0.9843(3) 0.0321(2) 0.3514(3)
O6 O 1.0000 0.1260(2) 0.2500
N2 N 1.0000 0.0643(2) 0.2500
O5B O 1.0157(3) 0.0321(2) 0.1486(3)
loop_
_geom_bond_atom_site_label_1
_geom_bond_atom_site_label_2
_geom_bond_site_symmetry_1
_geom_bond_site_symmetry_2
Tb1 O1 1_555 1_555
O1 C1 1_555 1_555
O2 C1 1_555 1_555
O3 Tb1 1_555 1_555
O4 Tb1 1_555 1_555
O5 N2 1_555 1_555
O6 N2 1_555 1_555
N1 C4 1_555 1_555
N2 O5B 1_555 1_555
C1 C2 1_555 1_555
C2 C3 1_555 1_555
C3 C4 1_555 1_555
C4 H2 1_555 1_555
C5 N1 1_555 1_555
C6 C2 1_555 1_555
H1 C3 1_555 1_555
H3 C5 1_555 1_555
H4 C6 1_555 1_555
H5 O3 1_555 1_555
H6 O3 1_555 1_555
H7 O4 1_555 1_555
H8 O4 1_555 1_555
Tb1F O2 1_555 1_555
Tb1F_2 O2B 1_555 1_555
O1B Tb1 1_555 1_555
O2B C1B 1_555 1_555
O2F Tb1 1_555 1_555
O2D Tb1 1_555 1_555
O3B Tb1 1_555 1_555
O4B Tb1 1_555 1_555
N1B C4B 1_555 1_555
C1B O1B 1_555 1_555
C2B C1B 1_555 1_555
C3B C2B 1_555 1_555
C4B C3B 1_555 1_555
C5B N1B 1_555 1_555
C6B C2B 1_555 1_555
H1B C3B 1_555 1_555
H2B C4B 1_555 1_555
H3B C5B 1_555 1_555
H4B C6B 1_555 1_555
H5B O3B 1_555 1_555
H6B O3B 1_555 1_555
H7B O4B 1_555 1_555
H8B O4B 1_555 1_555
C5 C6 1_555 1_555
C5B C6B 1_555 1_555

#END
