
#######################################################################
#
#                 Cambridge Crystallographic Data Centre
#                                CCDC 
#
#######################################################################
#
# If this CIF has been generated from an entry in the Cambridge 
# Structural Database, then it will include bibliographic, chemical, 
# crystal, experimental, refinement or atomic coordinate data resulting 
# from the CCDC's data processing and validation procedures.
#
#######################################################################

data_POKSEP
_symmetry_cell_setting           monoclinic
_symmetry_space_group_name_H-M   'P 21/c'
_symmetry_Int_Tables_number      14
_space_group_name_Hall           '-P 2ybc'
loop_
_symmetry_equiv_pos_site_id
_symmetry_equiv_pos_as_xyz
1 x,y,z
2 -x,1/2+y,1/2-z
3 -x,-y,-z
4 x,1/2-y,1/2+z
_cell_length_a                   6.0853(10)
_cell_length_b                   23.497(4)
_cell_length_c                   13.3793(18)
_cell_angle_alpha                90
_cell_angle_beta                 112.448(6)
_cell_angle_gamma                90
_cell_volume                     1768.1
loop_
_atom_site_label
_atom_site_type_symbol
_atom_site_fract_x
_atom_site_fract_y
_atom_site_fract_z
Cu1 Cu -0.5000 1.0000 0.5000
Y1 Y 0.39951(9) 0.83121(3) 0.89075(4)
N1 N -0.2823(8) 0.9402(2) 0.4842(4)
N2 N 0.0666(9) 0.8601(2) 0.5038(4)
N3 N 0.6821(8) 0.7559(2) 1.0401(3)
N4 N 1.0193(8) 0.7117(2) 1.2296(3)
O1 O 0.3958(8) 0.8725(2) 0.7401(4)
O2 O 0.5009(8) 0.9372(2) 0.6457(4)
O3 O 0.1362(9) 0.99516(19) 0.7271(4)
O4 O -0.2103(7) 1.02814(16) 0.6139(3)
O5 O 0.8116(7) 0.83751(17) 0.9322(3)
O6 O 1.1623(6) 0.79412(17) 0.9784(3)
O7 O 1.3583(8) 0.82693(19) 1.2052(3)
O8 O 1.4638(7) 0.74960(18) 1.3087(3)
O9 O 0.5365(8) 0.8744(2) 1.0619(4)
O10 O 0.539(3) 0.9449(8) 0.9032(14)
O11 O 0.1030(9) 0.90093(19) 0.8598(4)
C1 C 0.3539(10) 0.9056(3) 0.6610(5)
C2 C 0.1077(10) 0.9031(2) 0.5752(5)
C3 C -0.1491(11) 0.8584(3) 0.4236(5)
H1 H -0.1835 0.8291 0.3731
C4 C -0.3227(11) 0.8988(3) 0.4136(5)
H2 H -0.4692 0.8966 0.3562
C5 C -0.0685(10) 0.9434(2) 0.5658(5)
C6 C -0.0417(11) 0.9924(2) 0.6424(5)
C7 C 0.9716(9) 0.8040(2) 0.9897(4)
C8 C 0.9142(9) 0.7702(2) 1.0726(4)
C9 C 0.6264(10) 0.7176(3) 1.0983(4)
H3 H 0.4683 0.7065 1.0773
C10 C 0.7951(10) 0.6930(3) 1.1897(5)
H4 H 0.7514 0.6630 1.2236
C11 C 1.0780(10) 0.7519(2) 1.1725(4)
C12 C 1.3223(10) 0.7787(2) 1.2318(4)
Y1B Y -1.39951(9) 1.16879(3) 0.10925(4)
N1B N -0.7177(8) 1.0598(2) 0.5158(4)
N2B N -1.0666(9) 1.1399(2) 0.4962(4)
N3B N -1.6821(8) 1.2441(2) -0.0401(3)
N4B N -2.0193(8) 1.2883(2) -0.2296(3)
O1B O -1.3958(8) 1.1275(2) 0.2599(4)
O2B O -1.5009(8) 1.0628(2) 0.3543(4)
O3B O -1.1362(9) 1.00484(19) 0.2729(4)
O4B O -0.7897(7) 0.97186(16) 0.3861(3)
O5B O -1.8116(7) 1.16249(17) 0.0678(3)
O6B O -2.1623(6) 1.20588(17) 0.0216(3)
O7B O -2.3583(8) 1.17307(19) -0.2052(3)
O8B O -2.4638(7) 1.25040(18) -0.3087(3)
O9B O -1.5365(8) 1.1256(2) -0.0619(4)
O10B O -1.539(3) 1.0551(8) 0.0968(14)
O11B O -1.1030(9) 1.09907(19) 0.1402(4)
C1B C -1.3539(10) 1.0944(3) 0.3390(5)
C2B C -1.1077(10) 1.0969(2) 0.4248(5)
C3B C -0.8509(11) 1.1416(3) 0.5764(5)
H1B H -0.8165 1.1709 0.6269
C4B C -0.6773(11) 1.1012(3) 0.5864(5)
H2B H -0.5308 1.1034 0.6438
C5B C -0.9315(10) 1.0566(2) 0.4342(5)
C6B C -0.9583(11) 1.0076(2) 0.3576(5)
C7B C -1.9716(9) 1.1960(2) 0.0103(4)
C8B C -1.9142(9) 1.2298(2) -0.0726(4)
C9B C -1.6264(10) 1.2824(3) -0.0983(4)
H3B H -1.4683 1.2935 -0.0773
C10B C -1.7951(10) 1.3070(3) -0.1897(5)
H4B H -1.7514 1.3370 -0.2236
C11B C -2.0780(10) 1.2481(2) -0.1725(4)
C12B C -2.3223(10) 1.2213(2) -0.2318(4)
Cu1_2 Cu -1.5000 1.0000 0.5000
Cu1_3 Cu 0.5000 1.0000 0.5000
Y1_2 Y 1.39951(9) 0.83121(3) 0.89075(4)
Y1A Y -2.39951(9) 1.33121(3) -0.39075(4)
Y1B_2 Y -2.39951(9) 1.16879(3) 0.10925(4)
Y1C Y 1.39951(9) 0.66879(3) 1.39075(4)
N4A N -1.0193(8) 1.2117(2) 0.2704(3)
N4C N 0.0193(8) 0.7883(2) 0.7296(3)
O2_2 O -0.4991(8) 0.9372(2) 0.6457(4)
O2B_2 O -0.5009(8) 1.0628(2) 0.3543(4)
O6_2 O 0.1623(6) 0.79412(17) 0.9784(3)
O6B_2 O -1.1623(6) 1.20588(17) 0.0216(3)
O8A O -1.4638(7) 1.24960(18) 0.1913(3)
O8C O 0.4638(7) 0.75040(18) 0.8087(3)
O12 O 0.9849(12) 0.9062(3) 0.1712(7)
O13 O 0.8091(10) 0.0129(3) 0.9229(5)
loop_
_geom_bond_atom_site_label_1
_geom_bond_atom_site_label_2
_geom_bond_site_symmetry_1
_geom_bond_site_symmetry_2
Cu1 N1 1_555 1_555
Y1 N3 1_555 1_555
N1 C4 1_555 1_555
N2 C2 1_555 1_555
N3 C8 1_555 1_555
N4 C10 1_555 1_555
O1 Y1 1_555 1_555
O2 C1 1_555 1_555
O3 C6 1_555 1_555
O4 Cu1 1_555 1_555
O5 Y1 1_555 1_555
O6 C7 1_555 1_555
O7 C12 1_555 1_555
O8 C12 1_555 1_555
O9 Y1 1_555 1_555
O10 Y1 1_555 1_555
O11 Y1 1_555 1_555
C1 O1 1_555 1_555
C2 C1 1_555 1_555
C3 N2 1_555 1_555
H1 C3 1_555 1_555
C4 C3 1_555 1_555
H2 C4 1_555 1_555
C5 N1 1_555 1_555
C6 O4 1_555 1_555
C7 O5 1_555 1_555
C8 C7 1_555 1_555
C9 N3 1_555 1_555
H3 C9 1_555 1_555
C10 C9 1_555 1_555
H4 C10 1_555 1_555
C11 N4 1_555 1_555
C12 C11 1_555 1_555
Y1B N3B 1_555 1_555
N1B Cu1 1_555 1_555
N2B C2B 1_555 1_555
N3B C8B 1_555 1_555
N4B C10B 1_555 1_555
O1B Y1B 1_555 1_555
O2B C1B 1_555 1_555
O3B C6B 1_555 1_555
O4B Cu1 1_555 1_555
O5B Y1B 1_555 1_555
O6B C7B 1_555 1_555
O7B C12B 1_555 1_555
O8B C12B 1_555 1_555
O9B Y1B 1_555 1_555
O10B Y1B 1_555 1_555
O11B Y1B 1_555 1_555
C1B O1B 1_555 1_555
C2B C1B 1_555 1_555
C3B N2B 1_555 1_555
H1B C3B 1_555 1_555
C4B N1B 1_555 1_555
H2B C4B 1_555 1_555
C5B N1B 1_555 1_555
C6B O4B 1_555 1_555
C7B O5B 1_555 1_555
C8B C7B 1_555 1_555
C9B N3B 1_555 1_555
H3B C9B 1_555 1_555
C10B C9B 1_555 1_555
H4B C10B 1_555 1_555
C11B N4B 1_555 1_555
C12B C11B 1_555 1_555
Cu1_2 O2B 1_555 1_555
Cu1_3 O2 1_555 1_555
Y1_2 O6 1_555 1_555
Y1A N4B 1_555 1_555
Y1B_2 O6B 1_555 1_555
Y1C N4 1_555 1_555
N4A Y1B 1_555 1_555
N4C Y1 1_555 1_555
O2_2 Cu1 1_555 1_555
O2B_2 Cu1 1_555 1_555
O6_2 Y1 1_555 1_555
O6B_2 Y1B 1_555 1_555
O8A Y1B 1_555 1_555
O8C Y1 1_555 1_555
O8 Y1C 1_555 1_555
C2 C5 1_555 1_555
C5 C6 1_555 1_555
C8 C11 1_555 1_555
O8B Y1A 1_555 1_555
C2B C5B 1_555 1_555
C3B C4B 1_555 1_555
C5B C6B 1_555 1_555
C8B C11B 1_555 1_555

#END
