
#######################################################################
#
#                 Cambridge Crystallographic Data Centre
#                                CCDC 
#
#######################################################################
#
# If this CIF has been generated from an entry in the Cambridge 
# Structural Database, then it will include bibliographic, chemical, 
# crystal, experimental, refinement or atomic coordinate data resulting 
# from the CCDC's data processing and validation procedures.
#
#######################################################################

data_POKVUI
_symmetry_cell_setting           monoclinic
_symmetry_space_group_name_H-M   'P 21/c'
_symmetry_Int_Tables_number      14
_space_group_name_Hall           '-P 2ybc'
loop_
_symmetry_equiv_pos_site_id
_symmetry_equiv_pos_as_xyz
1 x,y,z
2 -x,1/2+y,1/2-z
3 -x,-y,-z
4 x,1/2-y,1/2+z
_cell_length_a                   6.159(2)
_cell_length_b                   22.796(8)
_cell_length_c                   13.700(5)
_cell_angle_alpha                90
_cell_angle_beta                 116.493(13)
_cell_angle_gamma                90
_cell_volume                     1721.5
loop_
_atom_site_label
_atom_site_type_symbol
_atom_site_fract_x
_atom_site_fract_y
_atom_site_fract_z
Ce1 Ce 0.9861(2) 0.35174(5) 0.94354(9)
Cu1 Cu 0.0000 0.5000 0.5000
N1 N 0.604(3) 0.2971(8) 0.7656(14)
N2 N 0.268(3) 0.2377(8) 0.5840(16)
N3 N 0.630(3) 0.3650(8) 0.5517(13)
N4 N 0.242(3) 0.4403(8) 0.5073(14)
O1 O 1.071(3) 0.2694(8) 0.8511(13)
O2 O 0.992(3) 0.1880(7) 0.7534(14)
O3 O 0.734(3) 0.2023(7) 0.5225(11)
O4 O 0.435(3) 0.1448(7) 0.5093(13)
O5 O 1.043(3) 0.4562(8) 0.6693(14)
O6 O 0.666(3) 0.5186(8) 0.7354(13)
O7 O 0.288(3) 0.5405(7) 0.6091(13)
O8 O 0.620(3) 0.4154(8) 0.8900(15)
H1 H 0.6326 0.4524 0.8996
H2 H 0.5238 0.3974 0.9090
O9 O 1.154(4) 0.4589(7) 0.9848(15)
H3 H 1.1233 0.4621 0.9182
H4 H 1.1288 0.4957 0.9810
C1 C 0.936(4) 0.2358(12) 0.7795(18)
C2 C 0.569(3) 0.1883(8) 0.5470(15)
C3 C 0.504(4) 0.2281(9) 0.6182(17)
C4 C 0.670(4) 0.2561(9) 0.7163(15)
C5 C 0.372(4) 0.3108(10) 0.7237(19)
H5 H 0.3198 0.3413 0.7532
C6 C 0.201(4) 0.2782(10) 0.6322(17)
H6 H 0.0366 0.2862 0.6062
C7 C 0.914(4) 0.4229(10) 0.6951(16)
C8 C 0.478(4) 0.5069(10) 0.6498(17)
C9 C 0.465(4) 0.4521(9) 0.5899(16)
C10 C 0.655(4) 0.4141(9) 0.6093(16)
C11 C 0.400(4) 0.3557(9) 0.467(2)
H7 H 0.3748 0.3237 0.4208
C12 C 0.216(4) 0.3914(10) 0.4497(16)
H8 H 0.0623 0.3819 0.3954
O10 O 0.982(3) 0.3965(8) 0.7847(13)
O11 O 1.121(4) 0.3821(10) 1.1400(14)
Ce1B Ce -0.9861(2) 0.64826(5) 0.05646(9)
N1B N -0.604(3) 0.7029(8) 0.2344(14)
N2B N -0.268(3) 0.7623(8) 0.4160(16)
N3B N -0.630(3) 0.6350(8) 0.4483(13)
N4B N -0.242(3) 0.5597(8) 0.4927(14)
O1B O -1.071(3) 0.7306(8) 0.1489(13)
O2B O -0.992(3) 0.8120(7) 0.2466(14)
O3B O -0.734(3) 0.7977(7) 0.4775(11)
O4B O -0.435(3) 0.8552(7) 0.4907(13)
O5B O -1.043(3) 0.5438(8) 0.3307(14)
O6B O -0.666(3) 0.4814(8) 0.2646(13)
O7B O -0.288(3) 0.4595(7) 0.3909(13)
O8B O -0.620(3) 0.5846(8) 0.1100(15)
H1B H -0.6326 0.5476 0.1004
H2B H -0.5238 0.6026 0.0910
O9B O -1.154(4) 0.5411(7) 0.0152(15)
H3B H -1.1233 0.5379 0.0818
H4B H -1.1288 0.5043 0.0190
C1B C -0.936(4) 0.7642(12) 0.2205(18)
C2B C -0.569(3) 0.8117(8) 0.4530(15)
C3B C -0.504(4) 0.7719(9) 0.3818(17)
C4B C -0.670(4) 0.7439(9) 0.2837(15)
C5B C -0.372(4) 0.6892(10) 0.2763(19)
H5B H -0.3198 0.6587 0.2468
C6B C -0.201(4) 0.7218(10) 0.3678(17)
H6B H -0.0366 0.7138 0.3938
C7B C -0.914(4) 0.5771(10) 0.3049(16)
C8B C -0.478(4) 0.4931(10) 0.3502(17)
C9B C -0.465(4) 0.5479(9) 0.4101(16)
C10B C -0.655(4) 0.5859(9) 0.3907(16)
C11B C -0.400(4) 0.6443(9) 0.533(2)
H7B H -0.3748 0.6763 0.5792
C12B C -0.216(4) 0.6086(10) 0.5503(16)
H8B H -0.0623 0.6181 0.6046
O10B O -0.982(3) 0.6035(8) 0.2153(13)
O11B O -1.121(4) 0.6179(10) -0.1400(14)
Ce1A Ce -0.9861(2) 0.85174(5) 0.55646(9)
Ce1A_2 Ce 0.0139(2) 0.85174(5) 0.55646(9)
Ce1C Ce -0.0139(2) 0.14826(5) 0.44354(9)
Ce1C_2 Ce 0.9861(2) 0.14826(5) 0.44354(9)
Cu1_2 Cu -1.0000 0.5000 0.5000
Cu1_3 Cu 1.0000 0.5000 0.5000
N2A N -1.268(3) 0.7377(8) -0.0840(16)
N2C N 1.268(3) 0.2623(8) 1.0840(16)
O3A O -0.734(3) 0.7023(7) -0.0225(11)
O3C O 0.734(3) 0.2977(7) 1.0225(11)
O4A O -1.435(3) 0.6448(7) -0.0093(13)
O4C O 1.435(3) 0.3552(7) 1.0093(13)
O5_2 O 0.043(3) 0.4562(8) 0.6693(14)
O5B_2 O -0.043(3) 0.5438(8) 0.3307(14)
O12 O 0.688(4) 0.0248(10) 0.6460(14)
loop_
_geom_bond_atom_site_label_1
_geom_bond_atom_site_label_2
_geom_bond_site_symmetry_1
_geom_bond_site_symmetry_2
Ce1 N1 1_555 1_555
Cu1 N4 1_555 1_555
N1 C4 1_555 1_555
N2 C3 1_555 1_555
N3 C10 1_555 1_555
N4 C9 1_555 1_555
O1 Ce1 1_555 1_555
O2 C1 1_555 1_555
O3 C2 1_555 1_555
O4 C2 1_555 1_555
O5 C7 1_555 1_555
O6 C8 1_555 1_555
O7 Cu1 1_555 1_555
O8 Ce1 1_555 1_555
H1 O8 1_555 1_555
H2 O8 1_555 1_555
O9 Ce1 1_555 1_555
H3 O9 1_555 1_555
H4 O9 1_555 1_555
C1 O1 1_555 1_555
C2 C3 1_555 1_555
C3 C4 1_555 1_555
C4 C1 1_555 1_555
C5 N1 1_555 1_555
H5 C5 1_555 1_555
C6 N2 1_555 1_555
H6 C6 1_555 1_555
C7 C10 1_555 1_555
C8 O7 1_555 1_555
C9 C8 1_555 1_555
C10 C9 1_555 1_555
C11 N3 1_555 1_555
H7 C11 1_555 1_555
C12 N4 1_555 1_555
H8 C12 1_555 1_555
O10 Ce1 1_555 1_555
O11 Ce1 1_555 1_555
Ce1B N1B 1_555 1_555
N1B C4B 1_555 1_555
N2B C3B 1_555 1_555
N3B C10B 1_555 1_555
N4B Cu1 1_555 1_555
O1B Ce1B 1_555 1_555
O2B C1B 1_555 1_555
O3B C2B 1_555 1_555
O4B C2B 1_555 1_555
O5B C7B 1_555 1_555
O6B C8B 1_555 1_555
O7B Cu1 1_555 1_555
O8B Ce1B 1_555 1_555
H1B O8B 1_555 1_555
H2B O8B 1_555 1_555
O9B Ce1B 1_555 1_555
H3B O9B 1_555 1_555
H4B O9B 1_555 1_555
C1B O1B 1_555 1_555
C2B C3B 1_555 1_555
C3B C4B 1_555 1_555
C4B C1B 1_555 1_555
C5B N1B 1_555 1_555
H5B C5B 1_555 1_555
C6B N2B 1_555 1_555
H6B C6B 1_555 1_555
C7B C10B 1_555 1_555
C8B O7B 1_555 1_555
C9B N4B 1_555 1_555
C10B C9B 1_555 1_555
C11B N3B 1_555 1_555
H7B C11B 1_555 1_555
C12B N4B 1_555 1_555
H8B C12B 1_555 1_555
O10B Ce1B 1_555 1_555
O11B Ce1B 1_555 1_555
Ce1A O3B 1_555 1_555
Ce1A_2 N2B 1_555 1_555
Ce1C N2 1_555 1_555
Ce1C_2 O3 1_555 1_555
Cu1_2 O5B 1_555 1_555
Cu1_3 O5 1_555 1_555
N2A Ce1B 1_555 1_555
N2C Ce1 1_555 1_555
O3A Ce1B 1_555 1_555
O3C Ce1 1_555 1_555
O4A Ce1B 1_555 1_555
O4C Ce1 1_555 1_555
O5_2 Cu1 1_555 1_555
O5B_2 Cu1 1_555 1_555
O4 Ce1C 1_555 1_555
C5 C6 1_555 1_555
C7 O10 1_555 1_555
C11 C12 1_555 1_555
O4B Ce1A_2 1_555 1_555
C5B C6B 1_555 1_555
C7B O10B 1_555 1_555
C8B C9B 1_555 1_555
C11B C12B 1_555 1_555

#END
