
#######################################################################
#
#                 Cambridge Crystallographic Data Centre
#                                CCDC 
#
#######################################################################
#
# If this CIF has been generated from an entry in the Cambridge 
# Structural Database, then it will include bibliographic, chemical, 
# crystal, experimental, refinement or atomic coordinate data resulting 
# from the CCDC's data processing and validation procedures.
#
#######################################################################

data_POKVES
_symmetry_cell_setting           monoclinic
_symmetry_space_group_name_H-M   'P 21/c'
_symmetry_Int_Tables_number      14
_space_group_name_Hall           '-P 2ybc'
loop_
_symmetry_equiv_pos_site_id
_symmetry_equiv_pos_as_xyz
1 x,y,z
2 -x,1/2+y,1/2-z
3 -x,-y,-z
4 x,1/2-y,1/2+z
_cell_length_a                   6.0928(6)
_cell_length_b                   22.577(2)
_cell_length_c                   13.5025(12)
_cell_angle_alpha                90
_cell_angle_beta                 116.178(3)
_cell_angle_gamma                90
_cell_volume                     1666.85
loop_
_atom_site_label
_atom_site_type_symbol
_atom_site_fract_x
_atom_site_fract_y
_atom_site_fract_z
Eu1 Eu 0.51031(6) 0.649235(13) 0.05679(3)
Cu1 Cu 0.5000 0.5000 0.5000
O1 O 0.4236(9) 0.7299(2) 0.1463(4)
O2 O 0.5043(10) 0.8121(2) 0.2461(4)
O3 O 1.0762(11) 0.8551(2) 0.4967(5)
O4 O 0.7616(9) 0.7992(2) 0.4796(4)
O5 O 0.5126(10) 0.6054(2) 0.2128(4)
O6 O 0.4496(10) 0.5449(3) 0.3280(5)
O7 O 1.2058(9) 0.4589(2) 0.3890(4)
O8 O 0.8321(10) 0.4827(3) 0.2583(5)
O9 O 0.3492(11) 0.5427(2) 0.0163(5)
O10 O 0.8628(10) 0.5859(2) 0.1073(5)
O11 O 0.3913(12) 0.6165(2) -0.1309(4)
N1 N 1.2336(10) 0.7627(2) 0.4170(5)
N2 N 0.8959(11) 0.7029(2) 0.2332(5)
N3 N 1.2548(11) 0.5596(2) 0.4921(5)
N4 N 0.8677(12) 0.6352(3) 0.4491(5)
C1 C 0.9329(12) 0.8119(3) 0.4574(5)
C2 C 0.9929(13) 0.7722(3) 0.3814(6)
C3 C 1.2996(12) 0.7209(3) 0.3672(6)
H1 H 1.4651 0.7123 0.3935
C4 C 1.1323(13) 0.6891(3) 0.2769(6)
C5 C 0.8272(12) 0.7439(3) 0.2845(6)
C6 C 0.5579(13) 0.7635(3) 0.2209(6)
C7 C 1.0217(14) 0.4921(3) 0.3466(6)
C8 C 1.0326(13) 0.5485(3) 0.4094(6)
C9 C 1.2843(14) 0.6082(3) 0.5533(6)
H2 H 1.4364 0.6167 0.6109
C10 C 1.0906(17) 0.6456(3) 0.5312(8)
H3 H 1.1146 0.6792 0.5746
C11 C 0.8406(13) 0.5873(3) 0.3887(6)
C12 C 0.5840(13) 0.5779(3) 0.3026(6)
H4 H 1.185(13) 0.656(2) 0.232(6)
Eu1B Eu 0.48969(6) 0.350765(13) 0.94321(3)
O1B O 0.5764(9) 0.2701(2) 0.8537(4)
O2B O 0.4957(10) 0.1879(2) 0.7539(4)
O3B O -0.0762(11) 0.1449(2) 0.5033(5)
O4B O 0.2384(9) 0.2008(2) 0.5204(4)
O5B O 0.4874(10) 0.3946(2) 0.7872(4)
O6B O 0.5504(10) 0.4551(3) 0.6720(5)
O7B O -0.2058(9) 0.5411(2) 0.6110(4)
O8B O 0.1679(10) 0.5173(3) 0.7417(5)
O9B O 0.6508(11) 0.4573(2) 0.9837(5)
O10B O 0.1372(10) 0.4141(2) 0.8927(5)
O11B O 0.6087(12) 0.3835(2) 1.1309(4)
N1B N -0.2336(10) 0.2373(2) 0.5830(5)
N2B N 0.1041(11) 0.2971(2) 0.7668(5)
N3B N -0.2548(11) 0.4404(2) 0.5079(5)
N4B N 0.1323(12) 0.3648(3) 0.5509(5)
C1B C 0.0671(12) 0.1881(3) 0.5426(5)
C2B C 0.0071(13) 0.2278(3) 0.6186(6)
C3B C -0.2996(12) 0.2791(3) 0.6328(6)
H1B H -0.4651 0.2877 0.6065
C4B C -0.1323(13) 0.3109(3) 0.7231(6)
C5B C 0.1728(12) 0.2561(3) 0.7155(6)
C6B C 0.4421(13) 0.2365(3) 0.7791(6)
C7B C -0.0217(14) 0.5079(3) 0.6534(6)
C8B C -0.0326(13) 0.4515(3) 0.5906(6)
C9B C -0.2843(14) 0.3918(3) 0.4467(6)
H2B H -0.4364 0.3833 0.3891
C10B C -0.0906(17) 0.3544(3) 0.4688(8)
H3B H -0.1146 0.3208 0.4254
C11B C 0.1594(13) 0.4127(3) 0.6113(6)
C12B C 0.4160(13) 0.4221(3) 0.6974(6)
H4B H -0.185(13) 0.344(2) 0.768(6)
Eu1A Eu -0.51031(6) 0.149235(13) 0.44321(3)
Eu1A_2 Eu 0.48969(6) 0.149235(13) 0.44321(3)
Eu1C Eu 0.51031(6) 0.850765(13) 0.55679(3)
Eu1C_2 Eu 1.51031(6) 0.850765(13) 0.55679(3)
Cu1_2 Cu -0.5000 0.5000 0.5000
Cu1_3 Cu 1.5000 0.5000 0.5000
O3A O 0.9238(11) 0.3551(2) 1.0033(5)
O3C O 0.0762(11) 0.6449(2) -0.0033(5)
O4A O 0.2384(9) 0.2992(2) 1.0204(4)
O4C O 0.7616(9) 0.7008(2) -0.0204(4)
O7_2 O 0.2058(9) 0.4589(2) 0.3890(4)
O7B_2 O 0.7942(9) 0.5411(2) 0.6110(4)
N1A N 0.7664(10) 0.2627(2) 1.0830(5)
N1C N 0.2336(10) 0.7373(2) -0.0830(5)
N3_2 N 0.2548(11) 0.5596(2) 0.4921(5)
N3B_2 N 0.7452(11) 0.4404(2) 0.5079(5)
O12 O 0.8145(12) 0.9730(3) 0.3592(5)
loop_
_geom_bond_atom_site_label_1
_geom_bond_atom_site_label_2
_geom_bond_site_symmetry_1
_geom_bond_site_symmetry_2
Eu1 O1 1_555 1_555
Cu1 O6 1_555 1_555
O1 C6 1_555 1_555
O2 C6 1_555 1_555
O3 C1 1_555 1_555
O4 C1 1_555 1_555
O5 Eu1 1_555 1_555
O6 C12 1_555 1_555
O7 C7 1_555 1_555
O8 C7 1_555 1_555
O9 Eu1 1_555 1_555
O10 Eu1 1_555 1_555
O11 Eu1 1_555 1_555
N1 C2 1_555 1_555
N2 Eu1 1_555 1_555
N3 C8 1_555 1_555
N4 C10 1_555 1_555
C1 C2 1_555 1_555
C2 C5 1_555 1_555
C3 N1 1_555 1_555
H1 C3 1_555 1_555
C4 N2 1_555 1_555
C5 N2 1_555 1_555
C6 C5 1_555 1_555
C7 C8 1_555 1_555
C8 C11 1_555 1_555
C9 N3 1_555 1_555
H2 C9 1_555 1_555
C10 C9 1_555 1_555
H3 C10 1_555 1_555
C11 N4 1_555 1_555
C12 O5 1_555 1_555
H4 C4 1_555 1_555
Eu1B O1B 1_555 1_555
O1B C6B 1_555 1_555
O2B C6B 1_555 1_555
O3B C1B 1_555 1_555
O4B C1B 1_555 1_555
O5B Eu1B 1_555 1_555
O6B Cu1 1_555 1_555
O7B C7B 1_555 1_555
O8B C7B 1_555 1_555
O9B Eu1B 1_555 1_555
O10B Eu1B 1_555 1_555
O11B Eu1B 1_555 1_555
N1B C2B 1_555 1_555
N2B Eu1B 1_555 1_555
N3B C8B 1_555 1_555
N4B C10B 1_555 1_555
C1B C2B 1_555 1_555
C2B C5B 1_555 1_555
C3B N1B 1_555 1_555
H1B C3B 1_555 1_555
C4B N2B 1_555 1_555
C5B N2B 1_555 1_555
C6B C5B 1_555 1_555
C7B C8B 1_555 1_555
C8B C11B 1_555 1_555
C9B N3B 1_555 1_555
H2B C9B 1_555 1_555
C10B C9B 1_555 1_555
H3B C10B 1_555 1_555
C11B N4B 1_555 1_555
C12B O5B 1_555 1_555
H4B C4B 1_555 1_555
Eu1A O3B 1_555 1_555
Eu1A_2 O4B 1_555 1_555
Eu1C O4 1_555 1_555
Eu1C_2 O3 1_555 1_555
Cu1_2 O7B 1_555 1_555
Cu1_3 O7 1_555 1_555
O3A Eu1B 1_555 1_555
O3C Eu1 1_555 1_555
O4A Eu1B 1_555 1_555
O4C Eu1 1_555 1_555
O7_2 Cu1 1_555 1_555
O7B_2 Cu1 1_555 1_555
N1A Eu1B 1_555 1_555
N1C Eu1 1_555 1_555
N3_2 Cu1 1_555 1_555
N3B_2 Cu1 1_555 1_555
N1 Eu1C_2 1_555 1_555
N3 Cu1_3 1_555 1_555
C3 C4 1_555 1_555
C11 C12 1_555 1_555
O6B C12B 1_555 1_555
N1B Eu1A 1_555 1_555
N3B Cu1_2 1_555 1_555
C3B C4B 1_555 1_555
C11B C12B 1_555 1_555

#END
