
#######################################################################
#
#                 Cambridge Crystallographic Data Centre
#                                CCDC 
#
#######################################################################
#
# If this CIF has been generated from an entry in the Cambridge 
# Structural Database, then it will include bibliographic, chemical, 
# crystal, experimental, refinement or atomic coordinate data resulting 
# from the CCDC's data processing and validation procedures.
#
#######################################################################

data_POKXAQ
_symmetry_cell_setting           triclinic
_symmetry_space_group_name_H-M   'P -1'
_symmetry_Int_Tables_number      2
_space_group_name_Hall           '-P 1'
loop_
_symmetry_equiv_pos_site_id
_symmetry_equiv_pos_as_xyz
1 x,y,z
2 -x,-y,-z
_cell_length_a                   7.7001(8)
_cell_length_b                   9.6322(11)
_cell_length_c                   12.5444(14)
_cell_angle_alpha                88.507(2)
_cell_angle_beta                 87.750(2)
_cell_angle_gamma                72.256(2)
_cell_volume                     885.363
loop_
_atom_site_label
_atom_site_type_symbol
_atom_site_fract_x
_atom_site_fract_y
_atom_site_fract_z
Br1 Br 0.20545(10) 0.58803(9) 0.94307(7)
Br2 Br 0.42460(14) 0.52501(10) 0.67958(7)
Ni1 Ni 0.5000 1.0000 1.0000
Ni2 Ni 0.5000 1.0000 0.5000
O1 O 0.4473(7) 0.8146(5) 1.0262(4)
O2 O 0.5934(8) 0.6863(6) 0.8860(4)
O3 O 0.5414(7) 0.7900(5) 0.5208(4)
O4 O 0.2827(7) 0.7546(6) 0.4721(5)
O5 O 0.2870(7) 1.0198(5) 0.4148(4)
H1 H 0.2417 1.1082 0.3952
H2 H 0.2081 0.9933 0.4523
O6 O 0.7826(7) 0.8938(6) 0.8900(4)
H3 H 0.7722 0.8226 0.8549
H4 H 0.7991 0.9586 0.8470
N1 N 0.3190(8) 1.0565(6) 0.8689(4)
N2 N 0.0522(8) 1.0158(7) 0.7877(5)
N3 N 0.2968(8) 1.0596(6) 0.6739(5)
N4 N 0.0914(9) 1.2558(7) 0.7780(5)
C1 C 0.1797(10) 0.9777(8) 0.8746(6)
H5 H 0.2415 0.8736 0.8734
H6 H 0.1114 0.9992 0.9420
C2 C 0.1609(10) 0.9802(8) 0.6861(6)
H7 H 0.2229 0.8762 0.6843
H8 H 0.0795 1.0049 0.6267
C3 C 0.1976(10) 1.2151(8) 0.6771(6)
H9 H 0.1156 1.2405 0.6180
H10 H 0.2837 1.2704 0.6685
C4 C 0.2183(10) 1.2154(7) 0.8653(6)
H11 H 0.1509 1.2428 0.9324
H12 H 0.3055 1.2697 0.8574
C5 C -0.0414(10) 1.1734(9) 0.7880(7)
H13 H -0.1133 1.1991 0.8538
H14 H -0.1238 1.1992 0.7290
C6 C 0.4186(10) 1.0212(8) 0.7627(6)
H15 H 0.5081 1.0734 0.7549
H16 H 0.4834 0.9177 0.7607
C7 C 0.5037(10) 0.7015(8) 0.9701(6)
C8 C 0.4394(11) 0.5731(8) 1.0135(7)
H17 H 0.4186 0.5807 1.0910
C9 C 0.4399(10) 0.7135(8) 0.5032(6)
C10 C 0.5251(11) 0.5518(8) 0.5330(7)
H18 H 0.6582 0.5279 0.5340
Br1A Br 0.79455(10) 0.41197(9) 1.05693(7)
O1A O 0.5527(7) 0.1854(5) 0.9738(4)
O2A O 0.4066(8) 0.3137(6) 1.1140(4)
C7A C 0.4963(10) 0.2985(8) 1.0299(6)
C8A C 0.5606(11) 0.4269(8) 0.9865(7)
H17A H 0.5814 0.4193 0.9090
Br2A Br 0.57540(14) 0.47499(10) 0.32042(7)
O3A O 0.4586(7) 0.2100(5) 0.4792(4)
O4A O 0.7173(7) 0.2454(6) 0.5279(5)
C9A C 0.5601(10) 0.2865(8) 0.4968(6)
C10A C 0.4749(11) 0.4482(8) 0.4670(7)
H18A H 0.3418 0.4721 0.4660
N1A N 0.6810(8) 0.9435(6) 1.1311(4)
N2A N 0.9478(8) 0.9842(7) 1.2123(5)
N3A N 0.7032(8) 0.9404(6) 1.3261(5)
N4A N 0.9086(9) 0.7442(7) 1.2220(5)
C1A C 0.8203(10) 1.0223(8) 1.1254(6)
H5A H 0.7585 1.1264 1.1266
H6A H 0.8886 1.0008 1.0580
C2A C 0.8391(10) 1.0198(8) 1.3139(6)
H7A H 0.7771 1.1238 1.3157
H8A H 0.9205 0.9951 1.3733
C3A C 0.8024(10) 0.7849(8) 1.3229(6)
H9A H 0.8844 0.7595 1.3820
H10A H 0.7163 0.7296 1.3315
C4A C 0.7817(10) 0.7846(7) 1.1347(6)
H11A H 0.8491 0.7572 1.0676
H12A H 0.6945 0.7303 1.1426
C5A C 1.0414(10) 0.8266(9) 1.2120(7)
H13A H 1.1133 0.8009 1.1462
H14A H 1.1238 0.8008 1.2710
C6A C 0.5814(10) 0.9788(8) 1.2373(6)
H15A H 0.4919 0.9266 1.2451
H16A H 0.5166 1.0823 1.2393
O5A O 0.7130(7) 0.9802(5) 0.5852(4)
H1A H 0.7583 0.8918 0.6048
H2A H 0.7919 1.0067 0.5477
O6A O 0.2174(7) 1.1062(6) 1.1100(4)
H3A H 0.2278 1.1774 1.1451
H4A H 0.2009 1.0414 1.1530
Ni1_2 Ni 0.5000 0.0000 1.0000
Ni2_2 Ni 0.5000 0.0000 0.5000
Ni2_3 Ni 0.5000 1.0000 1.5000
O1A_2 O 0.5527(7) 1.1854(5) 0.9738(4)
O3A_2 O 0.4586(7) 1.2100(5) 0.4792(4)
N3A_2 N 0.7032(8) 0.9404(6) 0.3261(5)
O7 O 0.8936(11) 0.5594(8) 0.7481(7)
H19 H 0.9966 0.5452 0.7159
H20 H 0.8987 0.4893 0.7917
O8 O 0.0353(8) 1.2723(7) 0.4138(6)
H21 H 0.0451 1.3578 0.4091
H22 H -0.0474 1.2705 0.4603
loop_
_geom_bond_atom_site_label_1
_geom_bond_atom_site_label_2
_geom_bond_site_symmetry_1
_geom_bond_site_symmetry_2
Br1 C8 1_555 1_555
Br2 C10 1_555 1_555
Ni1 O1 1_555 1_555
Ni2 O3 1_555 1_555
O1 C7 1_555 1_555
O2 C7 1_555 1_555
O3 C9 1_555 1_555
O4 C9 1_555 1_555
O5 Ni2 1_555 1_555
H1 O5 1_555 1_555
H2 O5 1_555 1_555
O6 Ni1 1_555 1_555
H3 O6 1_555 1_555
H4 O6 1_555 1_555
N1 Ni1 1_555 1_555
N2 C1 1_555 1_555
N3 Ni2 1_555 1_555
N4 C3 1_555 1_555
C1 N1 1_555 1_555
H5 C1 1_555 1_555
H6 C1 1_555 1_555
C2 N2 1_555 1_555
H7 C2 1_555 1_555
H8 C2 1_555 1_555
C3 N3 1_555 1_555
H9 C3 1_555 1_555
H10 C3 1_555 1_555
C4 N1 1_555 1_555
H11 C4 1_555 1_555
H12 C4 1_555 1_555
C5 N2 1_555 1_555
H13 C5 1_555 1_555
H14 C5 1_555 1_555
C6 N1 1_555 1_555
H15 C6 1_555 1_555
H16 C6 1_555 1_555
C7 C8 1_555 1_555
C8 H17 1_555 1_555
C9 C10 1_555 1_555
C10 H18 1_555 1_555
O7 H19 1_555 1_555
H20 O7 1_555 1_555
O8 H21 1_555 1_555
H22 O8 1_555 1_555
Br1A C8A 1_555 1_555
O1A C7A 1_555 1_555
O2A C7A 1_555 1_555
C7A C8A 1_555 1_555
C8A C8 1_555 1_555
H17A C8A 1_555 1_555
Br2A C10A 1_555 1_555
O3A C9A 1_555 1_555
O4A C9A 1_555 1_555
C9A C10A 1_555 1_555
C10A C10 1_555 1_555
H18A C10A 1_555 1_555
N1A Ni1 1_555 1_555
N2A C1A 1_555 1_555
N3A C2A 1_555 1_555
N4A C3A 1_555 1_555
C1A N1A 1_555 1_555
H5A C1A 1_555 1_555
H6A C1A 1_555 1_555
C2A N2A 1_555 1_555
H7A C2A 1_555 1_555
H8A C2A 1_555 1_555
C3A N3A 1_555 1_555
H9A C3A 1_555 1_555
H10A C3A 1_555 1_555
C4A N1A 1_555 1_555
H11A C4A 1_555 1_555
H12A C4A 1_555 1_555
C5A N2A 1_555 1_555
H13A C5A 1_555 1_555
H14A C5A 1_555 1_555
C6A N1A 1_555 1_555
H15A C6A 1_555 1_555
H16A C6A 1_555 1_555
O5A Ni2 1_555 1_555
H1A O5A 1_555 1_555
H2A O5A 1_555 1_555
O6A Ni1 1_555 1_555
H3A O6A 1_555 1_555
H4A O6A 1_555 1_555
Ni1_2 O1A 1_555 1_555
Ni2_2 O3A 1_555 1_555
Ni2_3 N3A 1_555 1_555
O1A_2 Ni1 1_555 1_555
O3A_2 Ni2 1_555 1_555
N3A_2 Ni2 1_555 1_555
N3 C2 1_555 1_555
N3 C6 1_555 1_555
N4 C4 1_555 1_555
N4 C5 1_555 1_555
N3A C6A 1_555 1_555
N4A C4A 1_555 1_555
N4A C5A 1_555 1_555

#END
