
#######################################################################
#
#                 Cambridge Crystallographic Data Centre
#                                CCDC 
#
#######################################################################
#
# If this CIF has been generated from an entry in the Cambridge 
# Structural Database, then it will include bibliographic, chemical, 
# crystal, experimental, refinement or atomic coordinate data resulting 
# from the CCDC's data processing and validation procedures.
#
#######################################################################

data_POKXOE
_symmetry_cell_setting           monoclinic
_symmetry_space_group_name_H-M   'C 2/c'
_symmetry_Int_Tables_number      15
_space_group_name_Hall           '-C 2yn'
loop_
_symmetry_equiv_pos_site_id
_symmetry_equiv_pos_as_xyz
1 x,y,z
2 -x,y,1/2-z
3 1/2+x,1/2+y,z
4 1/2-x,1/2+y,1/2-z
5 -x,-y,-z
6 x,-y,1/2+z
7 1/2-x,1/2-y,-z
8 1/2+x,1/2-y,1/2+z
_cell_length_a                   18.8778(11)
_cell_length_b                   10.1421(4)
_cell_length_c                   20.5459(9)
_cell_angle_alpha                90
_cell_angle_beta                 98.278(5)
_cell_angle_gamma                90
_cell_volume                     3892.74
loop_
_atom_site_label
_atom_site_type_symbol
_atom_site_fract_x
_atom_site_fract_y
_atom_site_fract_z
Co1 Co 0.0000 0.19231(4) 0.2500
N1 N 0.48763(12) -0.3537(2) 0.63392(14)
N2 N 0.05769(10) 0.65016(19) 0.70989(9)
O1 O 0.07425(8) 0.18307(14) 0.33425(8)
O2 O -0.06284(9) 0.05354(17) 0.29467(9)
H1 H -0.0422(12) -0.013(2) 0.3095(12)
H2 H -0.0962(11) 0.033(2) 0.2629(10)
O3 O 0.15577(9) 0.03554(19) 0.31423(8)
O4 O 0.29011(10) -0.05498(19) 0.54540(8)
O5 O 0.13289(9) 0.30344(16) 0.56616(8)
C1 C 0.12712(11) 0.1081(2) 0.35175(11)
C2 C 0.15727(11) 0.1102(2) 0.42353(10)
C3 C 0.21150(11) 0.0222(2) 0.44869(11)
H3 H 0.2291 -0.0390 0.4213
C4 C 0.23825(12) 0.0277(2) 0.51424(12)
C5 C 0.21303(12) 0.1187(2) 0.55635(11)
H4 H 0.2316 0.1204 0.6008
C6 C 0.16023(12) 0.2060(2) 0.53110(11)
C7 C 0.13196(11) 0.2009(2) 0.46471(11)
H5 H 0.0957 0.2590 0.4480
C8 C 0.33120(13) -0.1293(3) 0.50672(12)
H6 H 0.3546 -0.0712 0.4789
H7 H 0.3006 -0.1895 0.4788
C9 C 0.38637(12) -0.2053(2) 0.55194(13)
C10 C 0.39028(14) -0.2007(3) 0.61937(14)
H8 H 0.3591 -0.1475 0.6388
C11 C 0.44117(16) -0.2762(3) 0.65800(16)
H9 H 0.4428 -0.2723 0.7034
C12 C 0.48380(14) -0.3562(3) 0.56922(18)
H10 H 0.5163 -0.4089 0.5513
C13 C 0.43475(14) -0.2857(3) 0.52641(15)
H11 H 0.4343 -0.2922 0.4812
C14 C 0.15867(13) 0.3147(2) 0.63427(11)
H12 H 0.2102 0.3260 0.6410
H13 H 0.1473 0.2357 0.6572
C15 C 0.12342(12) 0.4317(2) 0.65976(11)
C16 C 0.15264(16) 0.4928(3) 0.71665(14)
H14 H 0.1951 0.4615 0.7401
C17 C 0.11917(15) 0.6005(3) 0.73926(14)
H15 H 0.1410 0.6411 0.7775
C18 C 0.02929(13) 0.5892(3) 0.65539(13)
H16 H -0.0140 0.6206 0.6336
C19 C 0.05988(13) 0.4822(3) 0.62905(13)
H17 H 0.0374 0.4441 0.5903
N1A N -0.48763(12) -0.3537(2) -0.13392(14)
N2A N -0.05769(10) 0.65016(19) -0.20989(9)
O1A O -0.07425(8) 0.18307(14) 0.16575(8)
O2A O 0.06284(9) 0.05354(17) 0.20533(9)
H1A H 0.0422(12) -0.013(2) 0.1905(12)
H2A H 0.0962(11) 0.033(2) 0.2371(10)
O3A O -0.15577(9) 0.03554(19) 0.18577(8)
O4A O -0.29011(10) -0.05498(19) -0.04540(8)
O5A O -0.13289(9) 0.30344(16) -0.06616(8)
C1A C -0.12712(11) 0.1081(2) 0.14825(11)
C2A C -0.15727(11) 0.1102(2) 0.07647(10)
C3A C -0.21150(11) 0.0222(2) 0.05131(11)
H3A H -0.2291 -0.0390 0.0787
C4A C -0.23825(12) 0.0277(2) -0.01424(12)
C5A C -0.21303(12) 0.1187(2) -0.05635(11)
H4A H -0.2316 0.1204 -0.1008
C6A C -0.16023(12) 0.2060(2) -0.03110(11)
C7A C -0.13196(11) 0.2009(2) 0.03529(11)
H5A H -0.0957 0.2590 0.0520
C8A C -0.33120(13) -0.1293(3) -0.00672(12)
H6A H -0.3546 -0.0712 0.0211
H7A H -0.3006 -0.1895 0.0212
C9A C -0.38637(12) -0.2053(2) -0.05194(13)
C10A C -0.39028(14) -0.2007(3) -0.11937(14)
H8A H -0.3591 -0.1475 -0.1388
C11A C -0.44117(16) -0.2762(3) -0.15800(16)
H9A H -0.4428 -0.2723 -0.2034
C12A C -0.48380(14) -0.3562(3) -0.06922(18)
H10A H -0.5163 -0.4089 -0.0513
C13A C -0.43475(14) -0.2857(3) -0.02641(15)
H11A H -0.4343 -0.2922 0.0188
C14A C -0.15867(13) 0.3147(2) -0.13427(11)
H12A H -0.2102 0.3260 -0.1410
H13A H -0.1473 0.2357 -0.1572
C15A C -0.12342(12) 0.4317(2) -0.15976(11)
C16A C -0.15264(16) 0.4928(3) -0.21665(14)
H14A H -0.1951 0.4615 -0.2401
C17A C -0.11917(15) 0.6005(3) -0.23926(14)
H15A H -0.1410 0.6411 -0.2775
C18A C -0.02929(13) 0.5892(3) -0.15539(13)
H16A H 0.0140 0.6206 -0.1336
C19A C -0.05988(13) 0.4822(3) -0.12905(13)
H17A H -0.0374 0.4441 -0.0903
Co1D Co 0.0000 0.80769(4) -0.2500
Co1D_2 Co 0.0000 0.80769(4) 0.7500
N2D N -0.05769(10) 0.34984(19) 0.29011(9)
N2E N 0.05769(10) 0.34984(19) 0.20989(9)
O6 O 0.2186(2) -0.1986(4) 0.2727(2)
H18 H 0.204(3) -0.129(4) 0.285(3)
H19 H 0.246(3) -0.234(6) 0.302(2)
O7 O -0.1699(3) 0.1745(5) 0.3677(2)
H20 H -0.200(2) 0.142(7) 0.338(3)
H21 H -0.1305(15) 0.149(7) 0.362(3)
loop_
_geom_bond_atom_site_label_1
_geom_bond_atom_site_label_2
_geom_bond_site_symmetry_1
_geom_bond_site_symmetry_2
Co1 O1 1_555 1_555
N1 C11 1_555 1_555
N2 C17 1_555 1_555
O1 C1 1_555 1_555
O2 Co1 1_555 1_555
H1 O2 1_555 1_555
H2 O2 1_555 1_555
O3 C1 1_555 1_555
O4 C4 1_555 1_555
O5 C6 1_555 1_555
C1 C2 1_555 1_555
C2 C3 1_555 1_555
C3 H3 1_555 1_555
C4 C3 1_555 1_555
C5 C4 1_555 1_555
H4 C5 1_555 1_555
C6 C5 1_555 1_555
C7 C2 1_555 1_555
H5 C7 1_555 1_555
C8 O4 1_555 1_555
H6 C8 1_555 1_555
H7 C8 1_555 1_555
C9 C8 1_555 1_555
C10 C9 1_555 1_555
H8 C10 1_555 1_555
C11 C10 1_555 1_555
H9 C11 1_555 1_555
C12 N1 1_555 1_555
H10 C12 1_555 1_555
C13 C9 1_555 1_555
H11 C13 1_555 1_555
C14 O5 1_555 1_555
H12 C14 1_555 1_555
H13 C14 1_555 1_555
C15 C14 1_555 1_555
C16 C15 1_555 1_555
H14 C16 1_555 1_555
C17 C16 1_555 1_555
H15 C17 1_555 1_555
C18 N2 1_555 1_555
H16 C18 1_555 1_555
C19 C15 1_555 1_555
H17 C19 1_555 1_555
O6 H18 1_555 1_555
H19 O6 1_555 1_555
O7 H20 1_555 1_555
H21 O7 1_555 1_555
N1A C11A 1_555 1_555
N2A C17A 1_555 1_555
O1A Co1 1_555 1_555
O2A Co1 1_555 1_555
H1A O2A 1_555 1_555
H2A O2A 1_555 1_555
O3A C1A 1_555 1_555
O4A C4A 1_555 1_555
O5A C6A 1_555 1_555
C1A O1A 1_555 1_555
C2A C1A 1_555 1_555
C3A C2A 1_555 1_555
H3A C3A 1_555 1_555
C4A C3A 1_555 1_555
C5A C4A 1_555 1_555
H4A C5A 1_555 1_555
C6A C5A 1_555 1_555
C7A C2A 1_555 1_555
H5A C7A 1_555 1_555
C8A O4A 1_555 1_555
H6A C8A 1_555 1_555
H7A C8A 1_555 1_555
C9A C8A 1_555 1_555
C10A C9A 1_555 1_555
H8A C10A 1_555 1_555
C11A C10A 1_555 1_555
H9A C11A 1_555 1_555
C12A N1A 1_555 1_555
H10A C12A 1_555 1_555
C13A C9A 1_555 1_555
H11A C13A 1_555 1_555
C14A O5A 1_555 1_555
H12A C14A 1_555 1_555
H13A C14A 1_555 1_555
C15A C14A 1_555 1_555
C16A C15A 1_555 1_555
H14A C16A 1_555 1_555
C17A C16A 1_555 1_555
H15A C17A 1_555 1_555
C18A N2A 1_555 1_555
H16A C18A 1_555 1_555
C19A C15A 1_555 1_555
H17A C19A 1_555 1_555
Co1D N2A 1_555 1_555
Co1D_2 N2 1_555 1_555
N2D Co1 1_555 1_555
N2E Co1 1_555 1_555
C6 C7 1_555 1_555
C12 C13 1_555 1_555
C18 C19 1_555 1_555
C6A C7A 1_555 1_555
C12A C13A 1_555 1_555
C18A C19A 1_555 1_555

#END
