
#######################################################################
#
#                 Cambridge Crystallographic Data Centre
#                                CCDC 
#
#######################################################################
#
# If this CIF has been generated from an entry in the Cambridge 
# Structural Database, then it will include bibliographic, chemical, 
# crystal, experimental, refinement or atomic coordinate data resulting 
# from the CCDC's data processing and validation procedures.
#
#######################################################################

data_POKXEU
_symmetry_cell_setting           triclinic
_symmetry_space_group_name_H-M   'P -1'
_symmetry_Int_Tables_number      2
_space_group_name_Hall           '-P 1'
loop_
_symmetry_equiv_pos_site_id
_symmetry_equiv_pos_as_xyz
1 x,y,z
2 -x,-y,-z
_cell_length_a                   7.6973(15)
_cell_length_b                   9.6448(19)
_cell_length_c                   12.544(2)
_cell_angle_alpha                88.337(3)
_cell_angle_beta                 87.697(4)
_cell_angle_gamma                72.322(3)
_cell_volume                     886.422
loop_
_atom_site_label
_atom_site_type_symbol
_atom_site_fract_x
_atom_site_fract_y
_atom_site_fract_z
Br1 Br 0.20548(8) 0.58836(7) 0.44302(5)
Br2 Br 0.57564(11) 1.47392(8) -0.17966(5)
Cu1 Cu 0.5000 1.0000 0.5000
Cu2 Cu 0.5000 1.0000 0.0000
O1 O 0.4473(5) 0.8148(4) 0.5259(3)
O2 O 0.5935(6) 0.6865(4) 0.3858(3)
O3 O 0.4591(5) 1.2088(4) -0.0222(3)
O4 O 0.7171(6) 1.2457(4) 0.0271(4)
O5 O 0.2865(5) 1.0211(4) -0.0851(3)
H1 H 0.2681 0.9390 -0.0896
H2 H 0.1943 1.0807 -0.0548
O6 O 0.2196(6) 1.1044(5) 0.6118(3)
H3 H 0.1719 1.1933 0.5943
H4 H 0.1446 1.0575 0.6016
N1 N 0.3186(6) 1.0578(5) 0.3682(4)
N2 N 0.2965(6) 1.0596(5) 0.1738(4)
N3 N 0.0524(6) 1.0164(5) 0.2867(4)
N4 N 0.0922(7) 1.2551(5) 0.2772(4)
C1 C 0.5029(8) 0.7022(6) 0.4700(5)
C2 C 0.4392(9) 0.5728(6) 0.5144(5)
H5 H 0.4189 0.5795 0.5920
C3 C 0.4187(8) 1.0202(7) 0.2645(4)
H6 H 0.5101 1.0705 0.2568
H7 H 0.4812 0.9164 0.2638
C4 C 0.1781(8) 0.9784(7) 0.3750(5)
H8 H 0.2395 0.8744 0.3748
H9 H 0.1089 1.0011 0.4419
C5 C 0.2169(8) 1.2167(6) 0.3652(5)
H10 H 0.1483 1.2432 0.4320
H11 H 0.3034 1.2718 0.3579
C6 C 0.1613(8) 0.9791(7) 0.1861(4)
H12 H 0.0806 1.0025 0.1263
H13 H 0.2239 0.8754 0.1856
C7 C 0.1988(8) 1.2163(6) 0.1760(5)
H14 H 0.1175 1.2424 0.1166
H15 H 0.2858 1.2708 0.1681
C8 C -0.0410(8) 1.1730(7) 0.2870(5)
H16 H -0.1130 1.1983 0.3528
H17 H -0.1232 1.1990 0.2280
C9 C 0.5586(8) 1.2882(6) -0.0046(5)
C10 C 0.4743(9) 1.4481(7) -0.0354(5)
H18 H 0.3413 1.4719 -0.0369
Br1A Br 0.79452(8) 0.41164(7) 0.55698(5)
O1A O 0.5527(5) 0.1852(4) 0.4741(3)
O2A O 0.4065(6) 0.3135(4) 0.6142(3)
C1A C 0.4971(8) 0.2978(6) 0.5300(5)
C2A C 0.5608(9) 0.4272(6) 0.4856(5)
H5A H 0.5811 0.4205 0.4080
Br2A Br 0.42436(11) 1.52608(8) 0.17966(5)
O3A O 0.5409(5) 1.7912(4) 0.0222(3)
O4A O 0.2829(6) 1.7543(4) -0.0271(4)
C9A C 0.4414(8) 1.7118(6) 0.0046(5)
C10A C 0.5257(9) 1.5519(7) 0.0354(5)
H18A H 0.6587 1.5281 0.0369
N1A N 0.6814(6) 0.9422(5) 0.6318(4)
N2A N 0.7035(6) 0.9404(5) 0.8262(4)
N3A N 0.9476(6) 0.9836(5) 0.7133(4)
N4A N 0.9078(7) 0.7449(5) 0.7228(4)
C3A C 0.5813(8) 0.9798(7) 0.7355(4)
H6A H 0.4899 0.9295 0.7432
H7A H 0.5188 1.0836 0.7362
C4A C 0.8219(8) 1.0216(7) 0.6250(5)
H8A H 0.7605 1.1256 0.6252
H9A H 0.8911 0.9989 0.5581
C5A C 0.7831(8) 0.7833(6) 0.6348(5)
H10A H 0.8517 0.7568 0.5680
H11A H 0.6966 0.7282 0.6421
C6A C 0.8387(8) 1.0209(7) 0.8139(4)
H12A H 0.9194 0.9975 0.8737
H13A H 0.7761 1.1246 0.8144
C7A C 0.8012(8) 0.7837(6) 0.8240(5)
H14A H 0.8825 0.7576 0.8834
H15A H 0.7142 0.7292 0.8319
C8A C 1.0410(8) 0.8270(7) 0.7130(5)
H16A H 1.1130 0.8017 0.6472
H17A H 1.1232 0.8010 0.7720
O5A O 0.7135(5) 0.9789(4) 0.0851(3)
H1A H 0.7319 1.0610 0.0896
H2A H 0.8057 0.9193 0.0548
O6A O 0.7804(6) 0.8956(5) 0.3882(3)
H3A H 0.8281 0.8067 0.4057
H4A H 0.8554 0.9425 0.3984
Cu1_2 Cu 0.5000 0.0000 0.5000
Cu2_2 Cu 0.5000 1.0000 1.0000
Cu2_3 Cu 0.5000 2.0000 0.0000
O1A_2 O 0.5527(5) 1.1852(4) 0.4741(3)
O3A_2 O 0.5409(5) 0.7912(4) 0.0222(3)
N2A_2 N 0.7035(6) 0.9404(5) -0.1738(4)
O7 O 0.0355(7) 1.2713(6) -0.0845(5)
H19 H -0.0755 1.3195 -0.0938
H20 H 0.1040 1.3195 -0.1098
O8 O 0.1028(8) 1.4410(6) -0.2473(6)
H21 H 0.1473 1.5116 -0.2466
H22 H 0.1056 1.4120 -0.3108
loop_
_geom_bond_atom_site_label_1
_geom_bond_atom_site_label_2
_geom_bond_site_symmetry_1
_geom_bond_site_symmetry_2
Br1 C2 1_555 1_555
Br2 C10 1_555 1_555
Cu1 O1 1_555 1_555
Cu2 O3 1_555 1_555
O1 C1 1_555 1_555
O2 C1 1_555 1_555
O3 C9 1_555 1_555
O4 C9 1_555 1_555
O5 Cu2 1_555 1_555
H1 O5 1_555 1_555
H2 O5 1_555 1_555
O6 Cu1 1_555 1_555
H3 O6 1_555 1_555
H4 O6 1_555 1_555
N1 Cu1 1_555 1_555
N2 Cu2 1_555 1_555
N3 C4 1_555 1_555
N4 C5 1_555 1_555
C1 C2 1_555 1_555
C2 H5 1_555 1_555
C3 N1 1_555 1_555
H6 C3 1_555 1_555
H7 C3 1_555 1_555
C4 N1 1_555 1_555
H8 C4 1_555 1_555
H9 C4 1_555 1_555
C5 N1 1_555 1_555
H10 C5 1_555 1_555
H11 C5 1_555 1_555
C6 N2 1_555 1_555
H12 C6 1_555 1_555
H13 C6 1_555 1_555
C7 N2 1_555 1_555
H14 C7 1_555 1_555
H15 C7 1_555 1_555
C8 N3 1_555 1_555
H16 C8 1_555 1_555
H17 C8 1_555 1_555
C9 C10 1_555 1_555
C10 H18 1_555 1_555
O7 H19 1_555 1_555
H20 O7 1_555 1_555
O8 H21 1_555 1_555
H22 O8 1_555 1_555
Br1A C2A 1_555 1_555
O1A C1A 1_555 1_555
O2A C1A 1_555 1_555
C1A C2A 1_555 1_555
C2A C2 1_555 1_555
H5A C2A 1_555 1_555
Br2A C10A 1_555 1_555
O3A C9A 1_555 1_555
O4A C9A 1_555 1_555
C9A C10A 1_555 1_555
C10A C10 1_555 1_555
H18A C10A 1_555 1_555
N1A Cu1 1_555 1_555
N2A C3A 1_555 1_555
N3A C4A 1_555 1_555
N4A C5A 1_555 1_555
C3A N1A 1_555 1_555
H6A C3A 1_555 1_555
H7A C3A 1_555 1_555
C4A N1A 1_555 1_555
H8A C4A 1_555 1_555
H9A C4A 1_555 1_555
C5A N1A 1_555 1_555
H10A C5A 1_555 1_555
H11A C5A 1_555 1_555
C6A N2A 1_555 1_555
H12A C6A 1_555 1_555
H13A C6A 1_555 1_555
C7A N2A 1_555 1_555
H14A C7A 1_555 1_555
H15A C7A 1_555 1_555
C8A N3A 1_555 1_555
H16A C8A 1_555 1_555
H17A C8A 1_555 1_555
O5A Cu2 1_555 1_555
H1A O5A 1_555 1_555
H2A O5A 1_555 1_555
O6A Cu1 1_555 1_555
H3A O6A 1_555 1_555
H4A O6A 1_555 1_555
Cu1_2 O1A 1_555 1_555
Cu2_2 N2A 1_555 1_555
Cu2_3 O3A 1_555 1_555
O1A_2 Cu1 1_555 1_555
O3A_2 Cu2 1_555 1_555
N2A_2 Cu2 1_555 1_555
N2 C3 1_555 1_555
N3 C6 1_555 1_555
N4 C7 1_555 1_555
N4 C8 1_555 1_555
N3A C6A 1_555 1_555
N4A C7A 1_555 1_555
N4A C8A 1_555 1_555

#END
