
#######################################################################
#
#                 Cambridge Crystallographic Data Centre
#                                CCDC 
#
#######################################################################
#
# If this CIF has been generated from an entry in the Cambridge 
# Structural Database, then it will include bibliographic, chemical, 
# crystal, experimental, refinement or atomic coordinate data resulting 
# from the CCDC's data processing and validation procedures.
#
#######################################################################

data_POKYAR
_symmetry_cell_setting           monoclinic
_symmetry_space_group_name_H-M   'P 21/c'
_symmetry_Int_Tables_number      14
_space_group_name_Hall           '-P 2ybc'
loop_
_symmetry_equiv_pos_site_id
_symmetry_equiv_pos_as_xyz
1 x,y,z
2 -x,1/2+y,1/2-z
3 -x,-y,-z
4 x,1/2-y,1/2+z
_cell_length_a                   10.0775(3)
_cell_length_b                   21.1363(6)
_cell_length_c                   10.7778(3)
_cell_angle_alpha                90
_cell_angle_beta                 110.7570(10)
_cell_angle_gamma                90
_cell_volume                     2146.67
loop_
_atom_site_label
_atom_site_type_symbol
_atom_site_fract_x
_atom_site_fract_y
_atom_site_fract_z
Co1 Co 0.21365(3) 0.368663(13) 0.43527(3)
O1 O 0.30619(17) 0.28693(7) 0.44499(17)
O2 O 0.1332(2) 0.39364(12) 0.2488(2)
N1 N 0.67686(19) -0.06870(9) 0.92138(17)
N2 N 1.06098(18) 0.16447(9) 0.00678(18)
C1 C 0.4110(2) 0.29401(10) 0.4057(2)
C2 C 0.0742(3) 0.44584(16) 0.2386(3)
O3 O 0.4470(2) 0.34585(8) 0.37583(19)
C3 C 0.4927(2) 0.23501(10) 0.40210(19)
O4 O 0.0532(3) 0.47156(14) 0.3302(3)
C4 C 0.0254(5) 0.4942(3) 0.1327(5)
C5 C 0.5904(2) 0.23688(11) 0.3383(2)
C6 C 0.4747(2) 0.18155(10) 0.4677(2)
H1 H 0.6008 0.2730 0.2934
C7 C 0.6723(3) 0.18349(12) 0.3430(2)
C8 C 0.5604(3) 0.12958(10) 0.4743(2)
H2 H 0.4060 0.1804 0.5068
S1 S -0.03018(13) 0.52652(6) 0.01896(12)
O5 O 0.7699(2) 0.17848(10) 0.2815(2)
C9 C 0.6599(3) 0.13077(12) 0.4128(2)
O6 O 0.5574(2) 0.07441(8) 0.53955(18)
C10 C 0.7888(3) 0.22996(13) 0.2076(3)
H3 H 0.7183 0.0960 0.4187
C11 C 0.4782(3) 0.07077(12) 0.6247(2)
H4 H 0.8328 0.2650 0.2657
H5 H 0.6982 0.2440 0.1448
C12 C 0.8833(2) 0.20726(11) 0.1355(2)
H6 H 0.3808 0.0592 0.5746
H7 H 0.4784 0.1114 0.6666
C13 C 0.5466(2) 0.02156(11) 0.7275(2)
C14 C 0.8525(3) 0.15398(13) 0.0591(3)
C15 C 1.0021(3) 0.24027(15) 0.1422(3)
C16 C 0.4748(3) -0.00754(12) 0.7990(2)
C17 C 0.6865(3) 0.00461(14) 0.7569(3)
H8 H 0.7706 0.1311 0.0495
C18 C 0.9425(2) 0.13405(11) -0.0037(3)
C19 C 1.0882(3) 0.21750(14) 0.0780(3)
H9 H 1.0246 0.2779 0.1898
H10 H 0.3808 0.0032 0.7839
C20 C 0.5417(2) -0.05247(11) 0.8928(2)
C21 C 0.7469(3) -0.03870(15) 0.8537(3)
H11 H 0.7393 0.0227 0.7106
H12 H 0.9192 0.0977 -0.0557
H13 H 1.1694 0.2403 0.0847
H14 H 0.4902 -0.0723 0.9382
H15 H 0.8425 -0.0481 0.8743
H16 H -0.0364 0.5737 0.2048
H17 H -0.1024 0.6231 -0.0128
C22 C 0.0401(5) 0.4554(3) 0.0848(4)
C23 C -0.0269(6) 0.5541(2) 0.1311(5)
C24 C -0.0647(6) 0.5826(2) 0.0059(5)
O2B O -0.1332(2) 0.60636(12) -0.2488(2)
C2B C -0.0742(3) 0.55416(16) -0.2386(3)
O4B O -0.0532(3) 0.52844(14) -0.3302(3)
C4B C -0.0254(5) 0.5058(3) -0.1327(5)
S1B S 0.03018(13) 0.47348(6) -0.01896(12)
H16B H 0.0364 0.4263 -0.2048
H17B H 0.1024 0.3769 0.0128
C22B C -0.0401(5) 0.5446(3) -0.0848(4)
C23B C 0.0269(6) 0.4459(2) -0.1311(5)
C24B C 0.0647(6) 0.4174(2) -0.0059(5)
Co1B Co -0.21365(3) 0.631337(13) -0.43527(3)
O1B O -0.30619(17) 0.71307(7) -0.44499(17)
N1B N -0.67686(19) 1.06870(9) -0.92138(17)
N2B N -1.06098(18) 0.83553(9) -0.00678(18)
C1B C -0.4110(2) 0.70599(10) -0.4057(2)
O3B O -0.4470(2) 0.65415(8) -0.37583(19)
C3B C -0.4927(2) 0.76499(10) -0.40210(19)
C5B C -0.5904(2) 0.76312(11) -0.3383(2)
C6B C -0.4747(2) 0.81845(10) -0.4677(2)
H1B H -0.6008 0.7270 -0.2934
C7B C -0.6723(3) 0.81651(12) -0.3430(2)
C8B C -0.5604(3) 0.87042(10) -0.4743(2)
H2B H -0.4060 0.8196 -0.5068
O5B O -0.7699(2) 0.82152(10) -0.2815(2)
C9B C -0.6599(3) 0.86923(12) -0.4128(2)
O6B O -0.5574(2) 0.92559(8) -0.53955(18)
C10B C -0.7888(3) 0.77004(13) -0.2076(3)
H3B H -0.7183 0.9040 -0.4187
C11B C -0.4782(3) 0.92923(12) -0.6247(2)
H4B H -0.8328 0.7350 -0.2657
H5B H -0.6982 0.7560 -0.1448
C12B C -0.8833(2) 0.79274(11) -0.1355(2)
H6B H -0.3808 0.9408 -0.5746
H7B H -0.4784 0.8886 -0.6666
C13B C -0.5466(2) 0.97844(11) -0.7275(2)
C14B C -0.8525(3) 0.84602(13) -0.0591(3)
C15B C -1.0021(3) 0.75973(15) -0.1422(3)
C16B C -0.4748(3) 1.00754(12) -0.7990(2)
C17B C -0.6865(3) 0.99539(14) -0.7569(3)
H8B H -0.7706 0.8689 -0.0495
C18B C -0.9425(2) 0.86595(11) 0.0037(3)
C19B C -1.0882(3) 0.78250(14) -0.0780(3)
H9B H -1.0246 0.7221 -0.1898
H10B H -0.3808 0.9968 -0.7839
C20B C -0.5417(2) 1.05247(11) -0.8928(2)
C21B C -0.7469(3) 1.03870(15) -0.8537(3)
H11B H -0.7393 0.9773 -0.7106
H12B H -0.9192 0.9023 0.0557
H13B H -1.1694 0.7597 -0.0847
H14B H -0.4902 1.0723 -0.9382
H15B H -0.8425 1.0481 -0.8743
Co1A Co -1.21365(3) 0.868663(13) 0.06473(3)
Co1A_2 Co 0.78635(3) -0.131337(13) 1.06473(3)
Co1C Co -0.78635(3) 1.131337(13) -1.06473(3)
Co1C_2 Co 1.21365(3) 0.131337(13) -0.06473(3)
N1A N 0.32314(19) 0.43130(9) 0.57862(17)
N1C N -0.32314(19) 0.56870(9) -0.57862(17)
N2A N -0.06098(18) 0.66447(9) -0.50678(18)
N2C N 0.06098(18) 0.33553(9) 0.50678(18)
loop_
_geom_bond_atom_site_label_1
_geom_bond_atom_site_label_2
_geom_bond_site_symmetry_1
_geom_bond_site_symmetry_2
Co1 O1 1_555 1_555
O1 C1 1_555 1_555
O2 Co1 1_555 1_555
N1 C20 1_555 1_555
N2 C18 1_555 1_555
C1 O3 1_555 1_555
C2 O2 1_555 1_555
C3 C1 1_555 1_555
O4 C2 1_555 1_555
C4 C2 1_555 1_555
C5 C3 1_555 1_555
C6 C3 1_555 1_555
H1 C5 1_555 1_555
C7 C5 1_555 1_555
C8 C6 1_555 1_555
H2 C6 1_555 1_555
S1 C22 1_555 1_555
O5 C7 1_555 1_555
C9 C7 1_555 1_555
O6 C8 1_555 1_555
C10 O5 1_555 1_555
H3 C9 1_555 1_555
C11 O6 1_555 1_555
H4 C10 1_555 1_555
H5 C10 1_555 1_555
C12 C10 1_555 1_555
H6 C11 1_555 1_555
H7 C11 1_555 1_555
C13 C11 1_555 1_555
C14 C12 1_555 1_555
C15 C12 1_555 1_555
C16 C13 1_555 1_555
C17 C13 1_555 1_555
H8 C14 1_555 1_555
C18 C14 1_555 1_555
C19 N2 1_555 1_555
H9 C15 1_555 1_555
H10 C16 1_555 1_555
C20 C16 1_555 1_555
C21 N1 1_555 1_555
H11 C17 1_555 1_555
H12 C18 1_555 1_555
H13 C19 1_555 1_555
H14 C20 1_555 1_555
H15 C21 1_555 1_555
H16 C23 1_555 1_555
H17 C24 1_555 1_555
C22 C2 1_555 1_555
C23 C4 1_555 1_555
C24 C23 1_555 1_555
O2B C2B 1_555 1_555
C2B O4B 1_555 1_555
C4B S1 1_555 1_555
S1B C4 1_555 1_555
H16B C23B 1_555 1_555
H17B C24B 1_555 1_555
C22B C24 1_555 1_555
C23B C4B 1_555 1_555
C24B C22 1_555 1_555
Co1B O2B 1_555 1_555
O1B Co1B 1_555 1_555
N1B C20B 1_555 1_555
N2B C18B 1_555 1_555
C1B O1B 1_555 1_555
O3B C1B 1_555 1_555
C3B C1B 1_555 1_555
C5B C3B 1_555 1_555
C6B C3B 1_555 1_555
H1B C5B 1_555 1_555
C7B C5B 1_555 1_555
C8B C6B 1_555 1_555
H2B C6B 1_555 1_555
O5B C7B 1_555 1_555
C9B C7B 1_555 1_555
O6B C8B 1_555 1_555
C10B O5B 1_555 1_555
H3B C9B 1_555 1_555
C11B O6B 1_555 1_555
H4B C10B 1_555 1_555
H5B C10B 1_555 1_555
C12B C10B 1_555 1_555
H6B C11B 1_555 1_555
H7B C11B 1_555 1_555
C13B C11B 1_555 1_555
C14B C12B 1_555 1_555
C15B C12B 1_555 1_555
C16B C13B 1_555 1_555
C17B C13B 1_555 1_555
H8B C14B 1_555 1_555
C18B C14B 1_555 1_555
C19B N2B 1_555 1_555
H9B C15B 1_555 1_555
H10B C16B 1_555 1_555
C20B C16B 1_555 1_555
C21B N1B 1_555 1_555
H11B C17B 1_555 1_555
H12B C18B 1_555 1_555
H13B C19B 1_555 1_555
H14B C20B 1_555 1_555
H15B C21B 1_555 1_555
Co1A N2B 1_555 1_555
Co1A_2 N1 1_555 1_555
Co1C N1B 1_555 1_555
Co1C_2 N2 1_555 1_555
N1A Co1 1_555 1_555
N1C Co1B 1_555 1_555
N2A Co1B 1_555 1_555
N2C Co1 1_555 1_555
C8 C9 1_555 1_555
C15 C19 1_555 1_555
C17 C21 1_555 1_555
C2B C4B 1_555 1_555
C2B C22B 1_555 1_555
S1B C22B 1_555 1_555
C23B C24B 1_555 1_555
C8B C9B 1_555 1_555
C15B C19B 1_555 1_555
C17B C21B 1_555 1_555

#END
