
#######################################################################
#
#                 Cambridge Crystallographic Data Centre
#                                CCDC 
#
#######################################################################
#
# If this CIF has been generated from an entry in the Cambridge 
# Structural Database, then it will include bibliographic, chemical, 
# crystal, experimental, refinement or atomic coordinate data resulting 
# from the CCDC's data processing and validation procedures.
#
#######################################################################

data_POLCIE
_symmetry_cell_setting           orthorhombic
_symmetry_space_group_name_H-M   'P b c n'
_symmetry_Int_Tables_number      60
_space_group_name_Hall           '-P 2n 2ab'
loop_
_symmetry_equiv_pos_site_id
_symmetry_equiv_pos_as_xyz
1 x,y,z
2 1/2-x,1/2-y,1/2+z
3 -x,y,1/2-z
4 1/2+x,1/2-y,-z
5 -x,-y,-z
6 1/2+x,1/2+y,1/2-z
7 x,-y,1/2+z
8 1/2-x,1/2+y,z
_cell_length_a                   7.2411(12)
_cell_length_b                   5.6063(9)
_cell_length_c                   29.614(5)
_cell_angle_alpha                90
_cell_angle_beta                 90
_cell_angle_gamma                90
_cell_volume                     1202.2
loop_
_atom_site_label
_atom_site_type_symbol
_atom_site_fract_x
_atom_site_fract_y
_atom_site_fract_z
Ag1 Ag 0.42176(8) -0.20664(8) 0.478523(14)
O1 O 0.3984(6) 0.0694(7) 0.42821(12)
O2 O 0.5580(6) 0.3772(7) 0.45531(12)
O3 O 0.5000 0.6763(8) 0.2500
C1 C 0.4889(6) 0.3702(8) 0.37730(14)
C2 C 0.5761(6) 0.5863(8) 0.36945(15)
H1 H 0.6300 0.6689 0.3933
C3 C 0.5832(6) 0.6795(8) 0.32622(15)
H2 H 0.6421 0.8243 0.3210
C4 C 0.5025(6) 0.5570(8) 0.29086(14)
C5 C 0.4155(6) 0.3395(8) 0.29807(15)
H3 H 0.3619 0.2572 0.2742
C6 C 0.4099(6) 0.2473(8) 0.34132(15)
H4 H 0.3527 0.1013 0.3464
C7 C 0.4815(7) 0.2645(8) 0.42377(15)
O1B O 0.6016(6) 0.0694(7) 0.07179(12)
O2B O 0.4420(6) 0.3772(7) 0.04469(12)
C1B C 0.5111(6) 0.3702(8) 0.12270(14)
C2B C 0.4239(6) 0.5863(8) 0.13055(15)
H1B H 0.3700 0.6689 0.1067
C3B C 0.4168(6) 0.6795(8) 0.17378(15)
H2B H 0.3579 0.8243 0.1790
C4B C 0.4975(6) 0.5570(8) 0.20914(14)
C5B C 0.5845(6) 0.3395(8) 0.20193(15)
H3B H 0.6381 0.2572 0.2258
C6B C 0.5901(6) 0.2473(8) 0.15868(15)
H4B H 0.6473 0.1013 0.1536
C7B C 0.5185(7) 0.2645(8) 0.07623(15)
Ag1B Ag 0.57824(8) -0.20664(8) 0.021477(14)
Ag1_2 Ag 0.42176(8) 0.79336(8) 0.478523(14)
Ag1B_2 Ag 0.57824(8) 0.79336(8) 0.021477(14)
Ag1D Ag 0.57824(8) 0.20664(8) 0.521477(14)
Ag1F Ag 0.42176(8) 0.20664(8) -0.021477(14)
O2_2 O 0.5580(6) -0.6228(7) 0.45531(12)
O2B_2 O 0.4420(6) -0.6228(7) 0.04469(12)
O2D O 0.4420(6) -0.3772(7) 0.54469(12)
O2F O 0.5580(6) -0.3772(7) -0.04469(12)
loop_
_geom_bond_atom_site_label_1
_geom_bond_atom_site_label_2
_geom_bond_site_symmetry_1
_geom_bond_site_symmetry_2
Ag1 O1 1_555 1_555
O1 C7 1_555 1_555
O2 C7 1_555 1_555
O3 C4 1_555 1_555
C1 C2 1_555 1_555
C2 H1 1_555 1_555
C3 C2 1_555 1_555
H2 C3 1_555 1_555
C4 C3 1_555 1_555
C5 C4 1_555 1_555
H3 C5 1_555 1_555
C6 C1 1_555 1_555
H4 C6 1_555 1_555
C7 C1 1_555 1_555
O1B C7B 1_555 1_555
O2B C7B 1_555 1_555
C1B C2B 1_555 1_555
C2B H1B 1_555 1_555
C3B C2B 1_555 1_555
H2B C3B 1_555 1_555
C4B O3 1_555 1_555
C5B C4B 1_555 1_555
H3B C5B 1_555 1_555
C6B C1B 1_555 1_555
H4B C6B 1_555 1_555
C7B C1B 1_555 1_555
Ag1B O1B 1_555 1_555
Ag1_2 O2 1_555 1_555
Ag1B_2 O2B 1_555 1_555
Ag1D Ag1 1_555 1_555
Ag1F O2B 1_555 1_555
O2_2 Ag1 1_555 1_555
O2B_2 Ag1B 1_555 1_555
O2D Ag1 1_555 1_555
O2F Ag1B 1_555 1_555
O2 Ag1D 1_555 1_555
C5 C6 1_555 1_555
C3B C4B 1_555 1_555
C5B C6B 1_555 1_555
Ag1B Ag1F 1_555 1_555

#END
