
#######################################################################
#
#                 Cambridge Crystallographic Data Centre
#                                CCDC 
#
#######################################################################
#
# If this CIF has been generated from an entry in the Cambridge 
# Structural Database, then it will include bibliographic, chemical, 
# crystal, experimental, refinement or atomic coordinate data resulting 
# from the CCDC's data processing and validation procedures.
#
#######################################################################

data_POLCAW
_symmetry_cell_setting           monoclinic
_symmetry_space_group_name_H-M   'P 21/c'
_symmetry_Int_Tables_number      14
_space_group_name_Hall           '-P 2ybc'
loop_
_symmetry_equiv_pos_site_id
_symmetry_equiv_pos_as_xyz
1 x,y,z
2 -x,1/2+y,1/2-z
3 -x,-y,-z
4 x,1/2-y,1/2+z
_cell_length_a                   5.3239(10)
_cell_length_b                   16.558(3)
_cell_length_c                   10.639(2)
_cell_angle_alpha                90
_cell_angle_beta                 93.435(4)
_cell_angle_gamma                90
_cell_volume                     936.176
loop_
_atom_site_label
_atom_site_type_symbol
_atom_site_fract_x
_atom_site_fract_y
_atom_site_fract_z
Cu1 Cu 0.5000 0.5000 0.5000
C1 C 0.4622(13) 0.5870(4) 0.7090(6)
C2 C 0.3603(13) 0.6169(4) 0.8285(6)
C3 C 0.4685(13) 0.6830(4) 0.8923(7)
H1 H 0.6099 0.7076 0.8622
C4 C 0.3673(14) 0.7122(5) 1.0004(7)
H2 H 0.4405 0.7565 1.0419
C5 C 0.1583(14) 0.6759(4) 1.0469(6)
C6 C 0.0494(14) 0.6105(5) 0.9816(6)
H3 H -0.0935 0.5863 1.0109
C7 C 0.1477(15) 0.5816(4) 0.8769(7)
H4 H 0.0727 0.5374 0.8360
C8 C 0.0360(15) 0.7101(5) 1.1606(6)
C9 C 0.2804(14) 0.6076(5) 1.2985(6)
H5 H 0.4108 0.5972 1.2464
C10 C 0.0407(14) 0.6088(5) 1.4487(7)
H6 H -0.0245 0.5970 1.5258
N1 N -0.0693(11) 0.6579(4) 1.3676(5)
N2 N 0.0886(11) 0.6564(3) 1.2704(5)
N3 N 0.2596(10) 0.5758(3) 1.4120(5)
O1 O 0.3575(9) 0.5246(3) 0.6602(4)
O2 O 0.6365(11) 0.6233(3) 0.6618(5)
C1B C 0.5378(13) 0.4130(4) 0.2910(6)
C2B C 0.6397(13) 0.3831(4) 0.1715(6)
C3B C 0.5315(13) 0.3170(4) 0.1077(7)
H1B H 0.3901 0.2924 0.1378
C4B C 0.6327(14) 0.2878(5) -0.0004(7)
H2B H 0.5595 0.2435 -0.0419
C5B C 0.8417(14) 0.3241(4) -0.0469(6)
C6B C 0.9506(14) 0.3895(5) 0.0184(6)
H3B H 1.0935 0.4137 -0.0109
C7B C 0.8523(15) 0.4184(4) 0.1231(7)
H4B H 0.9273 0.4626 0.1640
C8B C 0.9640(15) 0.2899(5) -0.1606(6)
C9B C 0.7196(14) 0.3924(5) -0.2985(6)
H5B H 0.5892 0.4028 -0.2464
C10B C 0.9593(14) 0.3912(5) -0.4487(7)
H6B H 1.0245 0.4030 -0.5258
N1B N 1.0693(11) 0.3421(4) -0.3676(5)
N2B N 0.9114(11) 0.3436(3) -0.2704(5)
N3B N 0.7404(10) 0.4242(3) -0.4120(5)
O1B O 0.6425(9) 0.4754(3) 0.3398(4)
O2B O 0.3635(11) 0.3767(3) 0.3382(5)
Cu1_2 Cu 0.5000 0.5000 -0.5000
Cu1_3 Cu 0.5000 0.5000 1.5000
N3_2 N 0.2596(10) 0.5758(3) 0.4120(5)
N3B_2 N 0.7404(10) 0.4242(3) 0.5880(5)
loop_
_geom_bond_atom_site_label_1
_geom_bond_atom_site_label_2
_geom_bond_site_symmetry_1
_geom_bond_site_symmetry_2
Cu1 O1 1_555 1_555
C1 C2 1_555 1_555
C2 C3 1_555 1_555
C3 H1 1_555 1_555
C4 C3 1_555 1_555
H2 C4 1_555 1_555
C5 C4 1_555 1_555
C6 C5 1_555 1_555
H3 C6 1_555 1_555
C7 C2 1_555 1_555
H4 C7 1_555 1_555
C8 C5 1_555 1_555
C9 H5 1_555 1_555
C10 H6 1_555 1_555
N1 C10 1_555 1_555
N2 C8 1_555 1_555
N3 C9 1_555 1_555
O1 C1 1_555 1_555
O2 Cu1 1_555 1_555
C1B C2B 1_555 1_555
C2B C3B 1_555 1_555
C3B H1B 1_555 1_555
C4B C3B 1_555 1_555
H2B C4B 1_555 1_555
C5B C4B 1_555 1_555
C6B C5B 1_555 1_555
H3B C6B 1_555 1_555
C7B C2B 1_555 1_555
H4B C7B 1_555 1_555
C8B C5B 1_555 1_555
C9B H5B 1_555 1_555
C10B H6B 1_555 1_555
N1B C10B 1_555 1_555
N2B C8B 1_555 1_555
N3B C9B 1_555 1_555
O1B Cu1 1_555 1_555
O2B Cu1 1_555 1_555
Cu1_2 N3B 1_555 1_555
Cu1_3 N3 1_555 1_555
N3_2 Cu1 1_555 1_555
N3B_2 Cu1 1_555 1_555
C1 O2 1_555 1_555
C6 C7 1_555 1_555
C9 N2 1_555 1_555
C10 N3 1_555 1_555
N1 N2 1_555 1_555
C1B O1B 1_555 1_555
C1B O2B 1_555 1_555
C6B C7B 1_555 1_555
C9B N2B 1_555 1_555
C10B N3B 1_555 1_555
N1B N2B 1_555 1_555

#END
