
#######################################################################
#
#                 Cambridge Crystallographic Data Centre
#                                CCDC 
#
#######################################################################
#
# If this CIF has been generated from an entry in the Cambridge 
# Structural Database, then it will include bibliographic, chemical, 
# crystal, experimental, refinement or atomic coordinate data resulting 
# from the CCDC's data processing and validation procedures.
#
#######################################################################

data_POLFON
_symmetry_cell_setting           monoclinic
_symmetry_space_group_name_H-M   'P 21/c'
_symmetry_Int_Tables_number      14
_space_group_name_Hall           '-P 2ybc'
loop_
_symmetry_equiv_pos_site_id
_symmetry_equiv_pos_as_xyz
1 x,y,z
2 -x,1/2+y,1/2-z
3 -x,-y,-z
4 x,1/2-y,1/2+z
_cell_length_a                   17.651(5)
_cell_length_b                   9.277(3)
_cell_length_c                   7.150(2)
_cell_angle_alpha                90
_cell_angle_beta                 92.072(5)
_cell_angle_gamma                90
_cell_volume                     1170.04
loop_
_atom_site_label
_atom_site_type_symbol
_atom_site_fract_x
_atom_site_fract_y
_atom_site_fract_z
Cd1 Cd -0.282613(18) 0.33076(3) 0.09615(4)
Cl1 Cl -0.20783(6) 0.13567(12) -0.07455(15)
Cl2 Cl -0.37548(6) 0.17585(12) 0.28179(15)
S1 S -0.41373(8) 0.78369(14) 0.14156(19)
O1 O -0.19224(19) 0.4678(4) -0.0816(5)
O2 O -0.09702(18) 0.6250(3) -0.0862(5)
N1 N -0.3241(2) 0.5651(4) 0.1429(5)
N2 N -0.4509(2) 0.5071(4) 0.1997(6)
H1 H -0.4408 0.4169 0.2123
H2 H -0.4966 0.5373 0.2112
C1 C -0.2800(3) 0.6882(5) 0.1161(6)
C2 C -0.3956(3) 0.6011(5) 0.1627(6)
C3 C -0.3194(3) 0.8121(5) 0.1085(7)
H3 H -0.2981 0.9021 0.0879
C4 C -0.1960(3) 0.6780(5) 0.1143(7)
H4 H -0.1778 0.6467 0.2373
H5 H -0.1761 0.7740 0.0945
C5 C 0.0094(3) 0.6106(7) -0.2803(8)
H6 H 0.0387 0.5484 -0.3572
H7 H 0.0400 0.6410 -0.1737
H8 H -0.0067 0.6936 -0.3514
C6 C -0.0583(3) 0.5313(6) -0.2159(7)
H9 H -0.0918 0.5074 -0.3219
H10 H -0.0428 0.4425 -0.1539
C7 C -0.1633(3) 0.5792(5) -0.0283(7)
Cd1C Cd -0.282613(18) 0.16924(3) -0.40385(4)
Cd1C_2 Cd -0.282613(18) 0.16924(3) 0.59615(4)
Cl1C Cl -0.20783(6) 0.36433(12) 0.42545(15)
Cl2C Cl -0.37548(6) 0.32415(12) -0.21821(15)
loop_
_geom_bond_atom_site_label_1
_geom_bond_atom_site_label_2
_geom_bond_site_symmetry_1
_geom_bond_site_symmetry_2
Cd1 Cl1 1_555 1_555
Cl1 Cd1C 1_555 1_555
Cl2 Cd1 1_555 1_555
S1 C2 1_555 1_555
O1 Cd1 1_555 1_555
O2 C6 1_555 1_555
N1 Cd1 1_555 1_555
N2 H1 1_555 1_555
H2 N2 1_555 1_555
C1 N1 1_555 1_555
C2 N1 1_555 1_555
C3 S1 1_555 1_555
H3 C3 1_555 1_555
C4 C1 1_555 1_555
H4 C4 1_555 1_555
H5 C4 1_555 1_555
C5 H6 1_555 1_555
H7 C5 1_555 1_555
H8 C5 1_555 1_555
C6 C5 1_555 1_555
H9 C6 1_555 1_555
H10 C6 1_555 1_555
C7 O1 1_555 1_555
Cd1C Cl2C 1_555 1_555
Cd1C_2 Cl2 1_555 1_555
Cl1C Cd1 1_555 1_555
Cl2C Cd1 1_555 1_555
O2 C7 1_555 1_555
N2 C2 1_555 1_555
C1 C3 1_555 1_555
C4 C7 1_555 1_555
Cd1C_2 Cl1C 1_555 1_555

#END
