
#######################################################################
#
#                 Cambridge Crystallographic Data Centre
#                                CCDC 
#
#######################################################################
#
# If this CIF has been generated from an entry in the Cambridge 
# Structural Database, then it will include bibliographic, chemical, 
# crystal, experimental, refinement or atomic coordinate data resulting 
# from the CCDC's data processing and validation procedures.
#
#######################################################################

data_POLGIH
_symmetry_cell_setting           monoclinic
_symmetry_space_group_name_H-M   'P 21/c'
_symmetry_Int_Tables_number      14
_space_group_name_Hall           '-P 2ybc'
loop_
_symmetry_equiv_pos_site_id
_symmetry_equiv_pos_as_xyz
1 x,y,z
2 -x,1/2+y,1/2-z
3 -x,-y,-z
4 x,1/2-y,1/2+z
_cell_length_a                   8.568(5)
_cell_length_b                   13.880(8)
_cell_length_c                   10.546(6)
_cell_angle_alpha                90.00
_cell_angle_beta                 105.271(7)
_cell_angle_gamma                90.00
_cell_volume                     1209.89
loop_
_atom_site_label
_atom_site_type_symbol
_atom_site_fract_x
_atom_site_fract_y
_atom_site_fract_z
Co1 Co 1.0000 0.0000 1.0000
O1 O 0.8707(2) 0.00959(10) 0.80593(15)
O2 O 0.8285(2) 0.10293(12) 0.62870(16)
O3 O 1.3513(2) 0.32903(12) 1.20092(16)
N1 N 1.0468(2) 0.14285(12) 0.95770(17)
N2 N 1.2803(2) 0.45778(14) 1.06846(18)
H1 H 1.2115 0.4821 0.9986
N3 N 1.2170(2) 0.54985(13) 1.43788(18)
C1 C 0.8806(3) 0.08831(16) 0.7470(2)
C2 C 0.9698(3) 0.16902(15) 0.8332(2)
C3 C 0.9780(3) 0.26160(16) 0.7899(2)
H2 H 0.9200 0.2792 0.7032
C4 C 1.0716(3) 0.32952(16) 0.8732(2)
H3 H 1.0782 0.3938 0.8443
C5 C 1.1551(3) 0.30214(15) 0.9993(2)
C6 C 1.1357(3) 0.20784(15) 1.0366(2)
H4 H 1.1892 0.1889 1.1238
C7 C 1.2696(3) 0.36436(16) 1.0974(2)
C8 C 1.4031(3) 0.51967(17) 1.1502(2)
H5 H 1.4175 0.5764 1.0974
H6 H 1.5068 0.4841 1.1735
C9 C 1.3684(3) 0.55512(17) 1.2755(2)
C10 C 1.4646(3) 0.6261(2) 1.3467(3)
H7 H 1.5472 0.6547 1.3143
C11 C 1.4412(4) 0.6556(3) 1.4651(3)
H8 H 1.5090 0.7034 1.5161
C12 C 1.3195(3) 0.6154(2) 1.5078(3)
H9 H 1.3065 0.6346 1.5909
C13 C 1.2466(3) 0.52056(16) 1.3251(2)
H10 H 1.1780 0.4723 1.2760
Co1C Co 1.0000 0.5000 1.5000
Co1C_2 Co 1.0000 -0.5000 0.5000
O1B O 1.1293(2) -0.00959(10) 1.19407(15)
O2B O 1.1715(2) -0.10293(12) 1.37130(16)
O3B O 0.6487(2) -0.32903(12) 0.79908(16)
N1B N 0.9532(2) -0.14285(12) 1.04230(17)
N2B N 0.7197(2) -0.45778(14) 0.93154(18)
H1B H 0.7885 -0.4821 1.0014
N3B N 0.7830(2) -0.54985(13) 0.56212(18)
N3C N 1.2170(2) -0.04985(13) 0.93788(18)
N3A N 0.7830(2) 0.04985(13) 1.06212(18)
C1B C 1.1194(3) -0.08831(16) 1.2530(2)
C2B C 1.0302(3) -0.16902(15) 1.1668(2)
C3B C 1.0220(3) -0.26160(16) 1.2101(2)
H2B H 1.0800 -0.2792 1.2968
C4B C 0.9284(3) -0.32952(16) 1.1268(2)
H3B H 0.9218 -0.3938 1.1557
C5B C 0.8449(3) -0.30214(15) 1.0007(2)
C6B C 0.8643(3) -0.20784(15) 0.9634(2)
H4B H 0.8108 -0.1889 0.8762
C7B C 0.7304(3) -0.36436(16) 0.9026(2)
C8B C 0.5969(3) -0.51967(17) 0.8498(2)
H5B H 0.5825 -0.5764 0.9026
H6B H 0.4932 -0.4841 0.8265
C9B C 0.6316(3) -0.55512(17) 0.7245(2)
C10B C 0.5354(3) -0.6261(2) 0.6533(3)
H7B H 0.4528 -0.6547 0.6857
C11B C 0.5588(4) -0.6556(3) 0.5349(3)
H8B H 0.4910 -0.7034 0.4839
C12B C 0.6805(3) -0.6154(2) 0.4922(3)
H9B H 0.6935 -0.6346 0.4091
C13B C 0.7534(3) -0.52056(16) 0.6749(2)
H10B H 0.8220 -0.4723 0.7240
loop_
_geom_bond_atom_site_label_1
_geom_bond_atom_site_label_2
_geom_bond_site_symmetry_1
_geom_bond_site_symmetry_2
Co1 O1 1_555 1_555
O1 C1 1_555 1_555
O2 C1 1_555 1_555
O3 C7 1_555 1_555
N1 Co1 1_555 1_555
N2 H1 1_555 1_555
N3 C12 1_555 1_555
C1 C2 1_555 1_555
C2 N1 1_555 1_555
C3 C2 1_555 1_555
H2 C3 1_555 1_555
C4 C3 1_555 1_555
H3 C4 1_555 1_555
C5 C4 1_555 1_555
C6 N1 1_555 1_555
H4 C6 1_555 1_555
C7 N2 1_555 1_555
C8 N2 1_555 1_555
H5 C8 1_555 1_555
H6 C8 1_555 1_555
C9 C8 1_555 1_555
C10 C9 1_555 1_555
H7 C10 1_555 1_555
C11 C10 1_555 1_555
H8 C11 1_555 1_555
C12 C11 1_555 1_555
H9 C12 1_555 1_555
C13 N3 1_555 1_555
H10 C13 1_555 1_555
Co1C N3 1_555 1_555
Co1C_2 N3B 1_555 1_555
O1B Co1 1_555 1_555
O2B C1B 1_555 1_555
O3B C7B 1_555 1_555
N1B Co1 1_555 1_555
N2B H1B 1_555 1_555
N3B C12B 1_555 1_555
N3C Co1 1_555 1_555
N3A Co1 1_555 1_555
C1B O1B 1_555 1_555
C2B N1B 1_555 1_555
C3B C2B 1_555 1_555
H2B C3B 1_555 1_555
C4B C3B 1_555 1_555
H3B C4B 1_555 1_555
C5B C4B 1_555 1_555
C6B N1B 1_555 1_555
H4B C6B 1_555 1_555
C7B N2B 1_555 1_555
C8B N2B 1_555 1_555
H5B C8B 1_555 1_555
H6B C8B 1_555 1_555
C9B C8B 1_555 1_555
C10B C9B 1_555 1_555
H7B C10B 1_555 1_555
C11B C10B 1_555 1_555
H8B C11B 1_555 1_555
C12B C11B 1_555 1_555
H9B C12B 1_555 1_555
C13B N3B 1_555 1_555
H10B C13B 1_555 1_555
C5 C6 1_555 1_555
C5 C7 1_555 1_555
C9 C13 1_555 1_555
C1B C2B 1_555 1_555
C5B C6B 1_555 1_555
C5B C7B 1_555 1_555
C9B C13B 1_555 1_555

#END
