
#######################################################################
#
#                 Cambridge Crystallographic Data Centre
#                                CCDC 
#
#######################################################################
#
# If this CIF has been generated from an entry in the Cambridge 
# Structural Database, then it will include bibliographic, chemical, 
# crystal, experimental, refinement or atomic coordinate data resulting 
# from the CCDC's data processing and validation procedures.
#
#######################################################################

data_POLKOS
_symmetry_cell_setting           monoclinic
_symmetry_space_group_name_H-M   'P 21/c'
_symmetry_Int_Tables_number      14
_space_group_name_Hall           '-P 2ybc'
loop_
_symmetry_equiv_pos_site_id
_symmetry_equiv_pos_as_xyz
1 x,y,z
2 -x,1/2+y,1/2-z
3 -x,-y,-z
4 x,1/2-y,1/2+z
_cell_length_a                   10.0762(11)
_cell_length_b                   18.223(2)
_cell_length_c                   10.6780(12)
_cell_angle_alpha                90
_cell_angle_beta                 106.2520(10)
_cell_angle_gamma                90
_cell_volume                     1882.33
loop_
_atom_site_label
_atom_site_type_symbol
_atom_site_fract_x
_atom_site_fract_y
_atom_site_fract_z
Ni1 Ni 0.64866(3) 0.024733(14) 0.37427(2)
O1 O 0.63302(15) -0.03851(8) 0.52605(14)
O2 O 0.54915(14) -0.05837(8) 0.69476(13)
O3 O 1.14563(14) -0.00141(8) 0.61989(13)
O4 O 1.27366(14) -0.07145(8) 0.77472(14)
O5 O 1.08186(17) -0.11207(10) 1.14888(15)
O6 O 0.86186(16) -0.10630(10) 1.12201(15)
O7 O 1.07411(16) 0.23322(9) 0.49460(15)
N1 N 0.71712(18) 0.11729(10) 0.49663(17)
N2 N 1.11576(18) 0.24927(9) 0.71226(18)
H1 H 1.0788 0.2529 0.7776
N3 N 1.40278(17) 0.06954(9) 0.74299(16)
N4 N 0.96355(19) -0.10245(10) 1.08138(17)
C1 C 0.6411(2) 0.14518(12) 0.5706(2)
H2 H 0.5546 0.1230 0.5666
C2 C 0.6830(2) 0.20446(13) 0.6520(2)
H3 H 0.6249 0.2233 0.7008
C3 C 0.8097(2) 0.23647(12) 0.6621(2)
H4 H 0.8409 0.2770 0.7186
C4 C 0.8905(2) 0.20787(11) 0.5878(2)
C5 C 0.8391(2) 0.14927(12) 0.5066(2)
H5 H 0.8939 0.1305 0.4546
C6 C 1.0345(2) 0.23220(11) 0.5937(2)
C7 C 1.2630(2) 0.26203(12) 0.7365(2)
H6 H 1.2923 0.3010 0.8031
H7 H 1.2812 0.2797 0.6551
C8 C 1.3337(2) 0.13191(11) 0.7045(2)
H8 H 1.2717 0.1340 0.6192
C9 C 1.3480(2) 0.19365(12) 0.7829(2)
C10 C 1.4388(2) 0.18940(13) 0.9068(2)
H9 H 1.4506 0.2304 0.9639
C11 C 1.5118(2) 0.12585(14) 0.9474(2)
H10 H 1.5755 0.1225 1.0317
C12 C 1.4903(2) 0.06705(12) 0.8628(2)
H11 H 1.5399 0.0229 0.8908
C13 C 0.6466(2) -0.04850(11) 0.6446(2)
C14 C 1.1601(2) -0.04048(11) 0.71992(19)
C15 C 0.7910(2) -0.05398(11) 0.73533(19)
C16 C 0.9056(2) -0.04276(11) 0.6893(2)
H12 H 0.8930 -0.0281 0.6014
C17 C 1.0383(2) -0.05285(11) 0.7709(2)
C18 C 1.0581(2) -0.07467(11) 0.8989(2)
H13 H 1.1483 -0.0839 0.9542
C19 C 0.9429(2) -0.08272(11) 0.94396(19)
C20 C 0.8101(2) -0.07248(10) 0.8654(2)
H14 H 0.7331 -0.0780 0.8995
Ni1B Ni 0.35134(3) -0.024733(14) 0.62573(2)
Ni1B_2 Ni 1.35134(3) -0.024733(14) 0.62573(2)
O2B O 0.45085(14) 0.05837(8) 0.30524(13)
O3B O 0.85437(14) 0.00141(8) 0.38011(13)
O4B O 0.72634(14) 0.07145(8) 0.22528(14)
N3B N 0.59722(17) -0.06954(9) 0.25701(16)
loop_
_geom_bond_atom_site_label_1
_geom_bond_atom_site_label_2
_geom_bond_site_symmetry_1
_geom_bond_site_symmetry_2
Ni1 O1 1_555 1_555
O1 C13 1_555 1_555
O2 C13 1_555 1_555
O3 C14 1_555 1_555
O4 C14 1_555 1_555
O5 N4 1_555 1_555
O6 N4 1_555 1_555
O7 C6 1_555 1_555
N1 Ni1 1_555 1_555
N2 H1 1_555 1_555
N3 C8 1_555 1_555
N4 C19 1_555 1_555
C1 N1 1_555 1_555
H2 C1 1_555 1_555
C2 C1 1_555 1_555
H3 C2 1_555 1_555
C3 C2 1_555 1_555
H4 C3 1_555 1_555
C4 C3 1_555 1_555
C5 N1 1_555 1_555
H5 C5 1_555 1_555
C6 N2 1_555 1_555
C7 N2 1_555 1_555
H6 C7 1_555 1_555
H7 C7 1_555 1_555
C8 H8 1_555 1_555
C9 C7 1_555 1_555
C10 C9 1_555 1_555
H9 C10 1_555 1_555
C11 C10 1_555 1_555
H10 C11 1_555 1_555
C12 N3 1_555 1_555
H11 C12 1_555 1_555
C13 C15 1_555 1_555
C14 C17 1_555 1_555
C15 C16 1_555 1_555
C16 H12 1_555 1_555
C17 C16 1_555 1_555
C18 C17 1_555 1_555
H13 C18 1_555 1_555
C19 C18 1_555 1_555
C20 C15 1_555 1_555
H14 C20 1_555 1_555
Ni1B O2 1_555 1_555
Ni1B_2 O3 1_555 1_555
O2B Ni1 1_555 1_555
O3B Ni1 1_555 1_555
O4B Ni1 1_555 1_555
N3B Ni1 1_555 1_555
O4 Ni1B_2 1_555 1_555
N3 Ni1B_2 1_555 1_555
C4 C5 1_555 1_555
C4 C6 1_555 1_555
C8 C9 1_555 1_555
C11 C12 1_555 1_555
C19 C20 1_555 1_555

#END
