
#######################################################################
#
#                 Cambridge Crystallographic Data Centre
#                                CCDC 
#
#######################################################################
#
# If this CIF has been generated from an entry in the Cambridge 
# Structural Database, then it will include bibliographic, chemical, 
# crystal, experimental, refinement or atomic coordinate data resulting 
# from the CCDC's data processing and validation procedures.
#
#######################################################################

data_POLSEP
_symmetry_cell_setting           monoclinic
_symmetry_space_group_name_H-M   'C 2/c'
_symmetry_Int_Tables_number      15
_space_group_name_Hall           '-C 2yn'
loop_
_symmetry_equiv_pos_site_id
_symmetry_equiv_pos_as_xyz
1 x,y,z
2 1/2+x,1/2+y,z
3 -x,y,1/2-z
4 1/2-x,1/2+y,1/2-z
5 -x,-y,-z
6 1/2-x,1/2-y,-z
7 x,-y,1/2+z
8 1/2+x,1/2-y,1/2+z
_cell_length_a                   26.053(5)
_cell_length_b                   11.148(5)
_cell_length_c                   23.390(5)
_cell_angle_alpha                90
_cell_angle_beta                 118.338(5)
_cell_angle_gamma                90
_cell_volume                     5979.27
loop_
_atom_site_label
_atom_site_type_symbol
_atom_site_fract_x
_atom_site_fract_y
_atom_site_fract_z
Cd1 Cd 0.5000 -0.15410(2) 0.7500
Cd2 Cd 0.501600(8) -0.096680(17) 0.909180(8)
O1 O 0.46213(7) -0.23292(16) 0.81753(8)
O2 O 0.54175(7) -0.03359(17) 0.84253(8)
O3 O 0.33328(8) -0.40930(16) 0.89961(8)
O4 O 0.55288(8) 0.03114(16) 0.99322(8)
O5 O 0.29559(8) -0.64059(16) 0.70704(8)
N1 N 0.42362(9) -0.97552(19) 0.84659(10)
O6 O 0.60751(9) -0.0556(2) 0.81026(9)
O7 O 0.43174(9) -0.31576(19) 0.72172(9)
O8 O 0.53995(8) 0.19497(17) 1.03908(9)
N2 N 0.42413(9) -0.7658(2) 1.03758(10)
C1 C 0.64143(10) 0.0062(2) 0.91950(11)
C2 C 0.43048(10) -0.3076(2) 0.77411(12)
C3 C 0.32390(10) -0.5532(2) 0.75342(11)
C4 C 0.54942(11) 0.2204(2) 0.94440(11)
C5 C 0.31392(10) -0.5353(2) 0.80618(11)
H1 H 0.2884 -0.5846 0.8128
C6 C 0.39013(10) -0.3872(2) 0.78618(11)
C7 C 0.34307(10) -0.4418(2) 0.84877(11)
C8 C 0.27827(11) -0.7482(2) 0.72674(13)
H2 H 0.2525 -0.7938 0.6884
H3 H 0.2567 -0.7271 0.7495
C9 C 0.32452(12) -0.9152(3) 0.80828(13)
H4 H 0.2894 -0.9268 0.8089
C10 C 0.36058(10) -0.4791(2) 0.74197(11)
H5 H 0.3655 -0.4902 0.7055
C11 C 0.38314(12) -0.8128(2) 0.77220(12)
H6 H 0.3887 -0.7531 0.7480
C12 C 0.59450(11) -0.0287(2) 0.85274(11)
C13 C 0.54743(11) 0.1427(2) 0.99595(12)
C14 C 0.68901(12) -0.0699(3) 0.94992(13)
H7 H 0.6923 -0.1361 0.9277
C15 C 0.58620(14) 0.2681(3) 0.87067(13)
H8 H 0.6129 0.2553 0.8554
C16 C 0.34443(11) -0.5899(2) 0.96175(13)
C17 C 0.58926(12) 0.1973(2) 0.92134(12)
C18 C 0.50656(15) 0.3788(3) 0.86605(16)
H9 H 0.4788 0.4391 0.8474
C19 C 0.37197(12) -0.9875(3) 0.84528(13)
H10 H 0.3678 -1.0473 0.8705
C20 C 0.32955(11) -0.8254(2) 0.77020(11)
C21 C 0.72736(13) 0.0501(4) 1.04621(14)
H11 H 0.7558 0.0645 1.0887
C22 C 0.30382(11) -0.4910(2) 0.92174(12)
H12 H 0.2704 -0.5254 0.8846
H13 H 0.2899 -0.4480 0.9477
C23 C 0.42829(12) -0.8889(2) 0.81008(13)
H14 H 0.4638 -0.8793 0.8102
C24 C 0.38016(13) -0.7903(3) 0.98002(13)
H15 H 0.3763 -0.8683 0.9644
C25 C 0.38886(17) -0.5659(3) 1.02202(18)
H16 H 0.3935 -0.4888 1.0389
C26 C 0.63683(11) 0.1072(3) 0.95249(12)
C27 C 0.68057(13) 0.1275(3) 1.01601(14)
H17 H 0.6782 0.1944 1.0384
C28 C 0.50903(13) 0.3122(3) 0.91718(14)
H18 H 0.4834 0.3291 0.9334
C29 C 0.54492(16) 0.3560(3) 0.84278(14)
H19 H 0.5429 0.4002 0.8081
C30 C 0.33951(13) -0.7059(3) 0.94174(14)
H20 H 0.3086 -0.7286 0.9020
C31 C 0.38168(10) -0.3691(2) 0.83951(12)
H21 H 0.4018 -0.3086 0.8691
C32 C 0.73177(12) -0.0480(4) 1.01332(14)
H22 H 0.7634 -0.0997 1.0335
C33 C 0.42686(18) -0.6552(3) 1.05797(19)
H23 H 0.4563 -0.6360 1.0993
Cd2B Cd 0.498400(8) -0.096680(17) 0.590820(8)
Cd2_2 Cd 0.501600(8) -1.096680(17) 0.909180(8)
Cd2D Cd 0.498400(8) 0.096680(17) 1.090820(8)
Cd2D_2 Cd 0.498400(8) -0.903320(17) 1.090820(8)
Cd2B_2 Cd 0.498400(8) -1.096680(17) 0.590820(8)
Cd2F Cd 0.501600(8) -0.903320(17) 0.409180(8)
Cd2F_2 Cd 0.501600(8) 0.096680(17) 0.409180(8)
O1B O 0.53787(7) -0.23292(16) 0.68247(8)
O2B O 0.45825(7) -0.03359(17) 0.65747(8)
O3B O 0.66672(8) -0.40930(16) 0.60039(8)
O4B O 0.44712(8) 0.03114(16) 0.50678(8)
O5B O 0.70441(8) -0.64059(16) 0.79296(8)
N1B N 0.57638(9) -0.97552(19) 0.65341(10)
N1_2 N 0.42362(9) 0.02448(19) 0.84659(10)
N1B_2 N 0.57638(9) 0.02448(19) 0.65341(10)
O6B O 0.39249(9) -0.0556(2) 0.68974(9)
O7B O 0.56826(9) -0.31576(19) 0.77828(9)
O8B O 0.46005(8) 0.19497(17) 0.46092(9)
O8D O 0.46005(8) -0.19497(17) 0.96092(9)
O8F O 0.53995(8) -0.19497(17) 0.53908(9)
N2B N 0.57587(9) -0.7658(2) 0.46242(10)
N2D N 0.57587(9) -0.2342(2) 0.96242(10)
N2F N 0.42413(9) -0.2342(2) 0.53758(10)
C1B C 0.35857(10) 0.0062(2) 0.58050(11)
C2B C 0.56952(10) -0.3076(2) 0.72589(12)
C3B C 0.67610(10) -0.5532(2) 0.74658(11)
C4B C 0.45058(11) 0.2204(2) 0.55560(11)
C5B C 0.68608(10) -0.5353(2) 0.69382(11)
H1B H 0.7116 -0.5846 0.6872
C6B C 0.60987(10) -0.3872(2) 0.71382(11)
C7B C 0.65693(10) -0.4418(2) 0.65123(11)
C8B C 0.72173(11) -0.7482(2) 0.77326(13)
H2B H 0.7475 -0.7938 0.8116
H3B H 0.7433 -0.7271 0.7505
C9B C 0.67548(12) -0.9152(3) 0.69172(13)
H4B H 0.7106 -0.9268 0.6911
C10B C 0.63942(10) -0.4791(2) 0.75803(11)
H5B H 0.6345 -0.4902 0.7945
C11B C 0.61686(12) -0.8128(2) 0.72780(12)
H6B H 0.6113 -0.7531 0.7520
C12B C 0.40550(11) -0.0287(2) 0.64726(11)
C13B C 0.45257(11) 0.1427(2) 0.50405(12)
C14B C 0.31099(12) -0.0699(3) 0.55008(13)
H7B H 0.3077 -0.1361 0.5723
C15B C 0.41380(14) 0.2681(3) 0.62933(13)
H8B H 0.3871 0.2553 0.6446
C16B C 0.65557(11) -0.5899(2) 0.53825(13)
C17B C 0.41074(12) 0.1973(2) 0.57866(12)
C18B C 0.49344(15) 0.3788(3) 0.63395(16)
H9B H 0.5212 0.4391 0.6526
C19B C 0.62803(12) -0.9875(3) 0.65472(13)
H10B H 0.6322 -1.0473 0.6295
C20B C 0.67045(11) -0.8254(2) 0.72980(11)
C21B C 0.27264(13) 0.0501(4) 0.45379(14)
H11B H 0.2442 0.0645 0.4113
C22B C 0.69618(11) -0.4910(2) 0.57826(12)
H12B H 0.7296 -0.5254 0.6154
H13B H 0.7101 -0.4480 0.5523
C23B C 0.57171(12) -0.8889(2) 0.68992(13)
H14B H 0.5362 -0.8793 0.6898
C24B C 0.61984(13) -0.7903(3) 0.51998(13)
H15B H 0.6237 -0.8683 0.5356
C25B C 0.61114(17) -0.5659(3) 0.47798(18)
H16B H 0.6065 -0.4888 0.4611
C26B C 0.36317(11) 0.1072(3) 0.54751(12)
C27B C 0.31943(13) 0.1275(3) 0.48399(14)
H17B H 0.3218 0.1944 0.4616
C28B C 0.49097(13) 0.3122(3) 0.58282(14)
H18B H 0.5166 0.3291 0.5666
C29B C 0.45508(16) 0.3560(3) 0.65722(14)
H19B H 0.4571 0.4002 0.6919
C30B C 0.66049(13) -0.7059(3) 0.55826(14)
H20B H 0.6914 -0.7286 0.5980
C31B C 0.61832(10) -0.3691(2) 0.66049(12)
H21B H 0.5982 -0.3086 0.6309
C32B C 0.26823(12) -0.0480(4) 0.48668(14)
H22B H 0.2366 -0.0997 0.4665
C33B C 0.57314(18) -0.6552(3) 0.44203(19)
H23B H 0.5437 -0.6360 0.4007
O9 O 0.29964(12) 0.8144(4) 0.68776(17)
H24 H 0.3288(18) 0.868(4) 0.6890(18)
H25 H 0.310(2) 0.749(5) 0.684(2)
loop_
_geom_bond_atom_site_label_1
_geom_bond_atom_site_label_2
_geom_bond_site_symmetry_1
_geom_bond_site_symmetry_2
Cd1 O1 1_555 1_555
Cd2 O1 1_555 1_555
O1 C2 1_555 1_555
O2 Cd1 1_555 1_555
O3 C7 1_555 1_555
O4 Cd2 1_555 1_555
O5 C3 1_555 1_555
N1 C19 1_555 1_555
O6 Cd1 1_555 1_555
O7 Cd1 1_555 1_555
O8 C13 1_555 1_555
N2 C24 1_555 1_555
C1 C12 1_555 1_555
C2 O7 1_555 1_555
C3 C5 1_555 1_555
C4 C13 1_555 1_555
C5 H1 1_555 1_555
C6 C2 1_555 1_555
C7 C5 1_555 1_555
C8 O5 1_555 1_555
H2 C8 1_555 1_555
H3 C8 1_555 1_555
C9 H4 1_555 1_555
C10 C3 1_555 1_555
H5 C10 1_555 1_555
C11 H6 1_555 1_555
C12 O2 1_555 1_555
C13 O4 1_555 1_555
C14 C1 1_555 1_555
H7 C14 1_555 1_555
C15 H8 1_555 1_555
C16 C22 1_555 1_555
C17 C4 1_555 1_555
C18 H9 1_555 1_555
C19 C9 1_555 1_555
H10 C19 1_555 1_555
C20 C8 1_555 1_555
C21 H11 1_555 1_555
C22 O3 1_555 1_555
H12 C22 1_555 1_555
H13 C22 1_555 1_555
C23 N1 1_555 1_555
H14 C23 1_555 1_555
C24 H15 1_555 1_555
C25 C16 1_555 1_555
H16 C25 1_555 1_555
C26 C1 1_555 1_555
C27 C21 1_555 1_555
H17 C27 1_555 1_555
C28 C4 1_555 1_555
H18 C28 1_555 1_555
C29 C15 1_555 1_555
H19 C29 1_555 1_555
C30 C16 1_555 1_555
H20 C30 1_555 1_555
C31 C6 1_555 1_555
H21 C31 1_555 1_555
C32 C14 1_555 1_555
H22 C32 1_555 1_555
C33 N2 1_555 1_555
H23 C33 1_555 1_555
O9 H24 1_555 1_555
H25 O9 1_555 1_555
Cd2B O1B 1_555 1_555
Cd2_2 N1 1_555 1_555
Cd2D O8 1_555 1_555
Cd2D_2 N2 1_555 1_555
Cd2B_2 N1B 1_555 1_555
Cd2F N2B 1_555 1_555
Cd2F_2 O8B 1_555 1_555
O1B Cd1 1_555 1_555
O2B Cd1 1_555 1_555
O3B C7B 1_555 1_555
O4B Cd2B 1_555 1_555
O5B C3B 1_555 1_555
N1B C19B 1_555 1_555
N1_2 Cd2 1_555 1_555
N1B_2 Cd2B 1_555 1_555
O6B Cd1 1_555 1_555
O7B Cd1 1_555 1_555
O8B C13B 1_555 1_555
O8D Cd2 1_555 1_555
O8F Cd2B 1_555 1_555
N2B C24B 1_555 1_555
N2D Cd2 1_555 1_555
N2F Cd2B 1_555 1_555
C1B C12B 1_555 1_555
C2B O1B 1_555 1_555
C3B C5B 1_555 1_555
C4B C13B 1_555 1_555
C5B H1B 1_555 1_555
C6B C2B 1_555 1_555
C7B C5B 1_555 1_555
C8B O5B 1_555 1_555
H2B C8B 1_555 1_555
H3B C8B 1_555 1_555
C9B H4B 1_555 1_555
C10B C3B 1_555 1_555
H5B C10B 1_555 1_555
C11B H6B 1_555 1_555
C12B O2B 1_555 1_555
C13B O4B 1_555 1_555
C14B C1B 1_555 1_555
H7B C14B 1_555 1_555
C15B H8B 1_555 1_555
C16B C22B 1_555 1_555
C17B C4B 1_555 1_555
C18B H9B 1_555 1_555
C19B C9B 1_555 1_555
H10B C19B 1_555 1_555
C20B C8B 1_555 1_555
C21B H11B 1_555 1_555
C22B O3B 1_555 1_555
H12B C22B 1_555 1_555
H13B C22B 1_555 1_555
C23B N1B 1_555 1_555
H14B C23B 1_555 1_555
C24B H15B 1_555 1_555
C25B C16B 1_555 1_555
H16B C25B 1_555 1_555
C26B C1B 1_555 1_555
C27B C21B 1_555 1_555
H17B C27B 1_555 1_555
C28B C4B 1_555 1_555
H18B C28B 1_555 1_555
C29B C15B 1_555 1_555
H19B C29B 1_555 1_555
C30B C16B 1_555 1_555
H20B C30B 1_555 1_555
C31B C6B 1_555 1_555
H21B C31B 1_555 1_555
C32B C14B 1_555 1_555
H22B C32B 1_555 1_555
C33B N2B 1_555 1_555
H23B C33B 1_555 1_555
Cd2 O2 1_555 1_555
O6 C12 1_555 1_555
C6 C10 1_555 1_555
C7 C31 1_555 1_555
C9 C20 1_555 1_555
C11 C20 1_555 1_555
C11 C23 1_555 1_555
C15 C17 1_555 1_555
C17 C26 1_555 1_555
C18 C28 1_555 1_555
C18 C29 1_555 1_555
C21 C32 1_555 1_555
C24 C30 1_555 1_555
C25 C33 1_555 1_555
C26 C27 1_555 1_555
Cd2B O2B 1_555 1_555
O6B C12B 1_555 1_555
O7B C2B 1_555 1_555
C6B C10B 1_555 1_555
C7B C31B 1_555 1_555
C9B C20B 1_555 1_555
C11B C20B 1_555 1_555
C11B C23B 1_555 1_555
C15B C17B 1_555 1_555
C17B C26B 1_555 1_555
C18B C28B 1_555 1_555
C18B C29B 1_555 1_555
C21B C32B 1_555 1_555
C24B C30B 1_555 1_555
C25B C33B 1_555 1_555
C26B C27B 1_555 1_555

#END
