
#######################################################################
#
#                 Cambridge Crystallographic Data Centre
#                                CCDC 
#
#######################################################################
#
# If this CIF has been generated from an entry in the Cambridge 
# Structural Database, then it will include bibliographic, chemical, 
# crystal, experimental, refinement or atomic coordinate data resulting 
# from the CCDC's data processing and validation procedures.
#
#######################################################################

data_POLYOG
_symmetry_cell_setting           monoclinic
_symmetry_space_group_name_H-M   'P 2/c'
_symmetry_Int_Tables_number      13
_space_group_name_Hall           '-P 2yc'
loop_
_symmetry_equiv_pos_site_id
_symmetry_equiv_pos_as_xyz
1 x,y,z
2 -x,y,1/2-z
3 -x,-y,-z
4 x,-y,1/2+z
_cell_length_a                   15.063(3)
_cell_length_b                   6.1809(12)
_cell_length_c                   23.546(8)
_cell_angle_alpha                90
_cell_angle_beta                 117.92(2)
_cell_angle_gamma                90
_cell_volume                     1937.03
loop_
_atom_site_label
_atom_site_type_symbol
_atom_site_fract_x
_atom_site_fract_y
_atom_site_fract_z
Zn1 Zn 0.0000 1.11422(11) 0.2500
N1 N 0.0914(3) 0.9094(6) 0.3215(2)
O1 O -0.0929(2) 1.3118(5) 0.25967(16)
O2 O -0.1323(2) 1.0330(6) 0.3031(2)
O3 O -0.5000 1.8819(6) 0.2500
C1 C 0.0551(3) 0.7276(8) 0.3344(3)
H1 H -0.0149 0.7096 0.3157
C2 C 0.1160(3) 0.5669(8) 0.3737(2)
H2 H 0.0872 0.4422 0.3812
C3 C 0.2200(3) 0.5880(7) 0.4025(2)
C4 C 0.2567(3) 0.7825(7) 0.3918(2)
H3 H 0.3262 0.8093 0.4123
C5 C 0.1917(3) 0.9342(7) 0.3514(2)
H4 H 0.2185 1.0624 0.3442
C6 C 0.2837(3) 0.4069(7) 0.4381(2)
H5 H 0.2561 0.3014 0.4540
C7 C 0.3787(3) 0.3808(7) 0.4495(2)
H6 H 0.4083 0.4972 0.4388
C8 C 0.4782(4) 0.2057(9) 0.3832(2)
H7 H 0.5316 0.3102 0.3936
H8 H 0.4137 0.2786 0.3622
H9 H 0.4814 0.0963 0.3547
C9 C 0.4901(3) 0.1004(7) 0.4438(2)
C10 C 0.4419(3) 0.1874(7) 0.47728(18)
C11 C 0.4526(3) 0.0894(7) 0.5341(2)
C12 C 0.4056(4) 0.1864(9) 0.5723(2)
H10 H 0.3468 0.1030 0.5653
H11 H 0.3859 0.3346 0.5586
H12 H 0.4538 0.1843 0.6177
C13 C -0.2351(3) 1.3445(7) 0.2766(2)
C14 C -0.2557(3) 1.5516(7) 0.2503(2)
H13 H -0.2115 1.6176 0.2376
C15 C -0.3413(3) 1.6615(7) 0.2426(2)
H14 H -0.3539 1.8025 0.2257
C16 C -0.4083(3) 1.5640(6) 0.25986(18)
C17 C -0.3859(3) 1.3585(7) 0.2876(2)
H15 H -0.4295 1.2925 0.3007
C18 C -0.3002(3) 1.2516(7) 0.2960(2)
H16 H -0.2858 1.1139 0.3152
C19 C -0.1468(3) 1.2183(7) 0.2817(2)
C20 C -0.5000 1.6834(9) 0.2500
N1B N 0.9086(3) -0.9094(6) 0.6785(2)
C1B C 0.9449(3) -0.7276(8) 0.6656(3)
H1B H 1.0149 -0.7096 0.6843
C2B C 0.8840(3) -0.5669(8) 0.6263(2)
H2B H 0.9128 -0.4422 0.6188
C3B C 0.7800(3) -0.5880(7) 0.5975(2)
C4B C 0.7433(3) -0.7825(7) 0.6082(2)
H3B H 0.6738 -0.8093 0.5877
C5B C 0.8083(3) -0.9342(7) 0.6486(2)
H4B H 0.7815 -1.0624 0.6558
C6B C 0.7163(3) -0.4069(7) 0.5619(2)
H5B H 0.7439 -0.3014 0.5460
C7B C 0.6213(3) -0.3808(7) 0.5505(2)
H6B H 0.5917 -0.4972 0.5612
C8B C 0.5218(4) -0.2057(9) 0.6168(2)
H7B H 0.4684 -0.3102 0.6064
H8B H 0.5863 -0.2786 0.6378
H9B H 0.5186 -0.0963 0.6453
C9B C 0.5099(3) -0.1004(7) 0.5562(2)
C10B C 0.5581(3) -0.1874(7) 0.52272(18)
C11B C 0.5474(3) -0.0894(7) 0.4659(2)
C12B C 0.5944(4) -0.1864(9) 0.4277(2)
H10B H 0.6532 -0.1030 0.4347
H11B H 0.6141 -0.3346 0.4414
H12B H 0.5462 -0.1843 0.3823
O1A O -0.9071(2) 1.3118(5) 0.24033(16)
O2A O -0.8677(2) 1.0330(6) 0.1969(2)
C13A C -0.7649(3) 1.3445(7) 0.2234(2)
C14A C -0.7443(3) 1.5516(7) 0.2497(2)
H13A H -0.7885 1.6176 0.2624
C15A C -0.6587(3) 1.6615(7) 0.2574(2)
H14A H -0.6461 1.8025 0.2743
C16A C -0.5917(3) 1.5640(6) 0.24014(18)
C17A C -0.6141(3) 1.3585(7) 0.2124(2)
H15A H -0.5705 1.2925 0.1993
C18A C -0.6998(3) 1.2516(7) 0.2040(2)
H16A H -0.7142 1.1139 0.1848
C19A C -0.8532(3) 1.2183(7) 0.2183(2)
Zn1_2 Zn -1.0000 1.11422(11) 0.2500
Zn1B Zn 1.0000 -1.11422(11) 0.7500
N1A N -0.0914(3) 0.9094(6) 0.1785(2)
O1A_2 O 0.0929(2) 1.3118(5) 0.24033(16)
C21 C 0.098(2) 0.420(4) 0.5459(13)
H17 H 0.1208 0.4271 0.5922
H18 H 0.1493 0.3366 0.5407
C22 C 0.106(2) 0.640(5) 0.5264(14)
H19 H 0.1455 0.6405 0.5032
H20 H 0.1403 0.7316 0.5646
C23 C 0.0007(19) 0.732(4) 0.4830(12)
H21 H 0.0034 0.8003 0.4463
H22 H -0.0107 0.8478 0.5072
C21B C -0.098(2) 0.580(4) 0.4541(13)
H17B H -0.1208 0.5729 0.4078
H18B H -0.1493 0.6634 0.4593
C22B C -0.106(2) 0.360(5) 0.4736(14)
H19B H -0.1455 0.3595 0.4968
H20B H -0.1403 0.2684 0.4354
C23B C -0.0007(19) 0.268(4) 0.5170(12)
H21B H -0.0034 0.1997 0.5537
H22B H 0.0107 0.1522 0.4928
loop_
_geom_bond_atom_site_label_1
_geom_bond_atom_site_label_2
_geom_bond_site_symmetry_1
_geom_bond_site_symmetry_2
Zn1 N1 1_555 1_555
N1 C1 1_555 1_555
O1 Zn1 1_555 1_555
O2 C19 1_555 1_555
O3 C20 1_555 1_555
C1 H1 1_555 1_555
C2 C1 1_555 1_555
H2 C2 1_555 1_555
C3 C2 1_555 1_555
C4 C3 1_555 1_555
H3 C4 1_555 1_555
C5 N1 1_555 1_555
H4 C5 1_555 1_555
C6 C3 1_555 1_555
H5 C6 1_555 1_555
C7 C6 1_555 1_555
H6 C7 1_555 1_555
C8 H7 1_555 1_555
H8 C8 1_555 1_555
H9 C8 1_555 1_555
C9 C8 1_555 1_555
C10 C7 1_555 1_555
C11 C10 1_555 1_555
C12 C11 1_555 1_555
H10 C12 1_555 1_555
H11 C12 1_555 1_555
H12 C12 1_555 1_555
C13 C14 1_555 1_555
C14 H13 1_555 1_555
C15 C14 1_555 1_555
H14 C15 1_555 1_555
C16 C15 1_555 1_555
C17 C16 1_555 1_555
H15 C17 1_555 1_555
C18 C13 1_555 1_555
H16 C18 1_555 1_555
C19 O1 1_555 1_555
C20 C16 1_555 1_555
C21 H17 1_555 1_555
H18 C21 1_555 1_555
C22 C21 1_555 1_555
H19 C22 1_555 1_555
H20 C22 1_555 1_555
C23 C22 1_555 1_555
H21 C23 1_555 1_555
H22 C23 1_555 1_555
N1B C1B 1_555 1_555
C1B H1B 1_555 1_555
C2B C1B 1_555 1_555
H2B C2B 1_555 1_555
C3B C2B 1_555 1_555
C4B C3B 1_555 1_555
H3B C4B 1_555 1_555
C5B N1B 1_555 1_555
H4B C5B 1_555 1_555
C6B C3B 1_555 1_555
H5B C6B 1_555 1_555
C7B C6B 1_555 1_555
H6B C7B 1_555 1_555
C8B H7B 1_555 1_555
H8B C8B 1_555 1_555
H9B C8B 1_555 1_555
C9B C11 1_555 1_555
C10B C7B 1_555 1_555
C11B C9 1_555 1_555
C12B C11B 1_555 1_555
H10B C12B 1_555 1_555
H11B C12B 1_555 1_555
H12B C12B 1_555 1_555
O1A C19A 1_555 1_555
O2A C19A 1_555 1_555
C13A C14A 1_555 1_555
C14A H13A 1_555 1_555
C15A C14A 1_555 1_555
H14A C15A 1_555 1_555
C16A C20 1_555 1_555
C17A C16A 1_555 1_555
H15A C17A 1_555 1_555
C18A C13A 1_555 1_555
H16A C18A 1_555 1_555
C19A C13A 1_555 1_555
Zn1_2 O1A 1_555 1_555
Zn1B N1B 1_555 1_555
N1A Zn1 1_555 1_555
O1A_2 Zn1 1_555 1_555
C21B C23 1_555 1_555
H17B C21B 1_555 1_555
H18B C21B 1_555 1_555
C22B C21B 1_555 1_555
H19B C22B 1_555 1_555
H20B C22B 1_555 1_555
C23B C21 1_555 1_555
H21B C23B 1_555 1_555
H22B C23B 1_555 1_555
C4 C5 1_555 1_555
C9 C10 1_555 1_555
C13 C19 1_555 1_555
C17 C18 1_555 1_555
C4B C5B 1_555 1_555
C8B C9B 1_555 1_555
C9B C10B 1_555 1_555
C10B C11B 1_555 1_555
C15A C16A 1_555 1_555
C17A C18A 1_555 1_555
C22B C23B 1_555 1_555

#END
