
#######################################################################
#
#                 Cambridge Crystallographic Data Centre
#                                CCDC 
#
#######################################################################
#
# If this CIF has been generated from an entry in the Cambridge 
# Structural Database, then it will include bibliographic, chemical, 
# crystal, experimental, refinement or atomic coordinate data resulting 
# from the CCDC's data processing and validation procedures.
#
#######################################################################

data_POMCAX
_symmetry_cell_setting           triclinic
_symmetry_space_group_name_H-M   'P -1'
_symmetry_Int_Tables_number      2
_space_group_name_Hall           '-P 1'
loop_
_symmetry_equiv_pos_site_id
_symmetry_equiv_pos_as_xyz
1 x,y,z
2 -x,-y,-z
_cell_length_a                   9.326(2)
_cell_length_b                   10.877(3)
_cell_length_c                   12.040(3)
_cell_angle_alpha                84.065(4)
_cell_angle_beta                 71.890(5)
_cell_angle_gamma                89.091(4)
_cell_volume                     1154.43
loop_
_atom_site_label
_atom_site_type_symbol
_atom_site_fract_x
_atom_site_fract_y
_atom_site_fract_z
Cu1 Cu 0.67491(4) 0.41901(3) 0.83262(3)
S1 S -0.41628(9) 1.13611(7) 0.72571(7)
O1 O 0.5172(2) 0.52907(19) 0.81388(17)
O2 O 0.3337(2) 0.46880(19) 0.98017(18)
O3 O -0.4641(3) 1.0895(3) 0.6355(3)
O4 O -0.3486(2) 1.2596(2) 0.69188(19)
O5 O -0.5349(2) 1.1287(2) 0.8385(2)
O6 O 0.5387(2) 0.30291(17) 0.95549(17)
H1 H 0.5141 0.2472 0.9200
H2 H 0.4637 0.3501 0.9764
N1 N 0.8583(3) 0.3239(2) 0.8358(2)
N2 N 0.8262(3) 0.5271(2) 0.7096(2)
C1 C 0.8710(4) 0.2212(3) 0.9017(3)
H3 H 0.7850 0.1858 0.9577
C2 C 1.0097(4) 0.1648(3) 0.8893(3)
H4 H 1.0146 0.0925 0.9364
C3 C 1.1375(4) 0.2146(3) 0.8093(3)
H5 H 1.2298 0.1766 0.8011
C4 C 1.1291(4) 0.3237(3) 0.7392(3)
C5 C 1.2561(4) 0.3874(3) 0.6547(3)
H6 H 1.3519 0.3551 0.6431
C6 C 1.2390(4) 0.4940(3) 0.5913(3)
H7 H 1.3233 0.5340 0.5372
C7 C 1.0936(3) 0.5455(3) 0.6064(3)
C8 C 1.0668(4) 0.6548(3) 0.5429(3)
H8 H 1.1467 0.6983 0.4871
C9 C 0.9232(4) 0.6967(3) 0.5638(3)
H9 H 0.9045 0.7687 0.5221
C10 C 0.8048(4) 0.6309(3) 0.6480(3)
H10 H 0.7073 0.6604 0.6616
C11 C 0.9688(3) 0.4853(3) 0.6881(2)
C12 C 0.9863(3) 0.3737(3) 0.7559(2)
C13 C 0.3841(3) 0.5345(3) 0.8846(3)
C14 C 0.2808(3) 0.6256(3) 0.8500(2)
C15 C 0.3259(3) 0.7396(3) 0.7854(3)
H11 H 0.4281 0.7606 0.7566
C16 C 0.2224(3) 0.8214(3) 0.7636(3)
H12 H 0.2553 0.8975 0.7210
C17 C 0.0671(3) 0.7923(3) 0.8047(3)
C18 C 0.0233(3) 0.6771(3) 0.8658(3)
H13 H -0.0783 0.6542 0.8916
C19 C 0.1275(3) 0.5960(3) 0.8888(3)
H14 H 0.0949 0.5198 0.9312
C20 C -0.0482(3) 0.8791(3) 0.7848(3)
C21 C -0.1925(4) 0.8759(3) 0.8651(3)
H15 H -0.2146 0.8202 0.9324
C22 C -0.3040(4) 0.9535(3) 0.8473(3)
H16 H -0.3996 0.9498 0.9024
C23 C -0.2732(3) 1.0361(3) 0.7481(3)
C24 C -0.1304(4) 1.0412(3) 0.6673(3)
H17 H -0.1093 1.0970 0.6001
C25 C -0.0192(3) 0.9646(3) 0.6850(3)
H18 H 0.0765 0.9697 0.6299
Cu1_2 Cu -0.32509(4) 1.41901(3) 0.83262(3)
Cu1A Cu 0.32509(4) 0.58099(3) 1.16738(3)
O2A O 0.6663(2) 0.53120(19) 1.01983(18)
O4_2 O 0.6514(2) 0.2596(2) 0.69188(19)
O7 O 0.6625(3) 0.8801(3) 0.5084(3)
H19 H 0.6271 0.8954 0.4514
H20 H 0.6128 0.9267 0.5589
loop_
_geom_bond_atom_site_label_1
_geom_bond_atom_site_label_2
_geom_bond_site_symmetry_1
_geom_bond_site_symmetry_2
Cu1 O1 1_555 1_555
S1 O3 1_555 1_555
O1 C13 1_555 1_555
O2 C13 1_555 1_555
O4 S1 1_555 1_555
O5 S1 1_555 1_555
O6 Cu1 1_555 1_555
H1 O6 1_555 1_555
H2 O6 1_555 1_555
N1 Cu1 1_555 1_555
N2 Cu1 1_555 1_555
C1 N1 1_555 1_555
H3 C1 1_555 1_555
C2 C1 1_555 1_555
H4 C2 1_555 1_555
C3 C2 1_555 1_555
H5 C3 1_555 1_555
C4 C3 1_555 1_555
C5 C4 1_555 1_555
H6 C5 1_555 1_555
C6 C5 1_555 1_555
H7 C6 1_555 1_555
C7 C6 1_555 1_555
C8 C7 1_555 1_555
H8 C8 1_555 1_555
C9 C8 1_555 1_555
H9 C9 1_555 1_555
C10 N2 1_555 1_555
H10 C10 1_555 1_555
C11 N2 1_555 1_555
C12 N1 1_555 1_555
C13 C14 1_555 1_555
C14 C15 1_555 1_555
C15 H11 1_555 1_555
C16 C15 1_555 1_555
H12 C16 1_555 1_555
C17 C16 1_555 1_555
C18 C17 1_555 1_555
H13 C18 1_555 1_555
C19 C14 1_555 1_555
H14 C19 1_555 1_555
C20 C17 1_555 1_555
C21 C20 1_555 1_555
H15 C21 1_555 1_555
C22 C21 1_555 1_555
H16 C22 1_555 1_555
C23 S1 1_555 1_555
C24 C23 1_555 1_555
H17 C24 1_555 1_555
C25 C20 1_555 1_555
H18 C25 1_555 1_555
O7 H19 1_555 1_555
H20 O7 1_555 1_555
Cu1_2 O4 1_555 1_555
Cu1A O2 1_555 1_555
O2A Cu1 1_555 1_555
O4_2 Cu1 1_555 1_555
C4 C12 1_555 1_555
C7 C11 1_555 1_555
C9 C10 1_555 1_555
C11 C12 1_555 1_555
C18 C19 1_555 1_555
C22 C23 1_555 1_555
C24 C25 1_555 1_555

#END
