
#######################################################################
#
#                 Cambridge Crystallographic Data Centre
#                                CCDC 
#
#######################################################################
#
# If this CIF has been generated from an entry in the Cambridge 
# Structural Database, then it will include bibliographic, chemical, 
# crystal, experimental, refinement or atomic coordinate data resulting 
# from the CCDC's data processing and validation procedures.
#
#######################################################################

data_POMCUR
_symmetry_cell_setting           orthorhombic
_symmetry_space_group_name_H-M   'F d d d'
_symmetry_Int_Tables_number      70
_space_group_name_Hall           '-F 2uv 2vw'
loop_
_symmetry_equiv_pos_site_id
_symmetry_equiv_pos_as_xyz
1 x,y,z
2 3/4-x,3/4-y,z
3 3/4-x,y,3/4-z
4 x,3/4-y,3/4-z
5 x,1/2+y,1/2+z
6 3/4-x,1/4-y,1/2+z
7 3/4-x,1/2+y,1/4-z
8 x,1/4-y,1/4-z
9 1/2+x,y,1/2+z
10 1/4-x,3/4-y,1/2+z
11 1/4-x,y,1/4-z
12 1/2+x,3/4-y,1/4-z
13 1/2+x,1/2+y,z
14 1/4-x,1/4-y,z
15 1/4-x,1/2+y,3/4-z
16 1/2+x,1/4-y,3/4-z
17 -x,-y,-z
18 1/4+x,1/4+y,-z
19 1/4+x,-y,1/4+z
20 -x,1/4+y,1/4+z
21 -x,1/2-y,1/2-z
22 1/4+x,3/4+y,1/2-z
23 1/4+x,1/2-y,3/4+z
24 -x,3/4+y,3/4+z
25 1/2-x,-y,1/2-z
26 3/4+x,1/4+y,1/2-z
27 3/4+x,-y,3/4+z
28 1/2-x,1/4+y,3/4+z
29 1/2-x,1/2-y,-z
30 3/4+x,3/4+y,-z
31 3/4+x,1/2-y,1/4+z
32 1/2-x,3/4+y,1/4+z
_cell_length_a                   17.3656(8)
_cell_length_b                   24.5676(16)
_cell_length_c                   24.9693(16)
_cell_angle_alpha                90
_cell_angle_beta                 90
_cell_angle_gamma                90
_cell_volume                     10652.7
loop_
_atom_site_label
_atom_site_type_symbol
_atom_site_fract_x
_atom_site_fract_y
_atom_site_fract_z
C1 C 0.2119(5) 0.3562(4) 0.7065(3)
H1 H 0.1851 0.3360 0.7319
C2 C 0.3035(4) 0.4275(3) 0.6878(3)
C3 C 0.2634(5) 0.3966(4) 0.7241(4)
H2 H 0.2704 0.4024 0.7605
C4 C 0.2893(5) 0.4166(3) 0.6341(3)
H3 H 0.3139 0.4369 0.6077
C5 C 0.2387(5) 0.3759(3) 0.6198(3)
H4 H 0.2308 0.3690 0.5836
C6 C 0.3607(4) 0.4686(3) 0.7049(3)
C7 C 0.4148(4) 0.4883(3) 0.6696(3)
H5 H 0.4126 0.4781 0.6337
C8 C 0.4736(4) 0.5238(3) 0.6870(3)
C9 C 0.4748(6) 0.5399(4) 0.7395(4)
H6 H 0.5135 0.5631 0.7515
C10 C 0.4193(7) 0.5221(5) 0.7748(4)
H7 H 0.4196 0.5345 0.8099
C11 C 0.3628(6) 0.4858(4) 0.7582(4)
H8 H 0.3266 0.4729 0.7826
Cd1 Cd 0.1250 0.27428(3) 0.6250
F1 F 0.0706(3) 0.27256(19) 0.70852(19)
F2 F -0.0612(3) 0.2930(2) 0.7211(2)
F3 F -0.0228(3) 0.2010(2) 0.7069(2)
N1 N 0.2005(4) 0.3458(2) 0.6557(3)
N2 N 0.5317(3) 0.5404(3) 0.6501(2)
H9 H 0.5550 0.5683 0.6611
H10 H 0.5190 0.5445 0.6179
Si1 Si 0.0000 0.2500 0.7500
F1T F -0.0706(3) 0.22744(19) 0.79148(19)
F2T F 0.0612(3) 0.2070(2) 0.7789(2)
F3T F 0.0228(3) 0.2990(2) 0.7931(2)
C1A C 0.5381(5) 0.3938(4) 0.7065(3)
H1A H 0.5649 0.4140 0.7319
C2A C 0.4465(4) 0.3225(3) 0.6878(3)
C3A C 0.4866(5) 0.3534(4) 0.7241(4)
H2A H 0.4796 0.3476 0.7605
C4A C 0.4607(5) 0.3334(3) 0.6341(3)
H3A H 0.4361 0.3131 0.6077
C5A C 0.5113(5) 0.3741(3) 0.6198(3)
H4A H 0.5192 0.3810 0.5836
C6A C 0.3893(4) 0.2814(3) 0.7049(3)
C7A C 0.3352(4) 0.2617(3) 0.6696(3)
H5A H 0.3374 0.2719 0.6337
C8A C 0.2764(4) 0.2262(3) 0.6870(3)
C9A C 0.2752(6) 0.2101(4) 0.7395(4)
H6A H 0.2365 0.1869 0.7515
C10A C 0.3307(7) 0.2279(5) 0.7748(4)
H7A H 0.3304 0.2155 0.8099
C11A C 0.3872(6) 0.2642(4) 0.7582(4)
H8A H 0.4234 0.2771 0.7826
N1A N 0.5495(4) 0.4042(2) 0.6557(3)
N2A N 0.2183(3) 0.2096(3) 0.6501(2)
H9A H 0.1950 0.1817 0.6611
H10A H 0.2310 0.2055 0.6179
Cd1A Cd 0.6250 0.47572(3) 0.6250
Cd1T Cd -0.1250 0.22572(3) 0.8750
F1J F 0.1794(3) 0.27256(19) 0.54148(19)
N1J N 0.0495(4) 0.3458(2) 0.5943(3)
N2K N 0.0317(3) 0.2096(3) 0.5999(2)
C12 C 0.299(2) 0.3750 0.8750
H11 H 0.3306 0.3634 0.9048
Cl1 Cl 0.2244(8) 0.3249(4) 0.8561(4)
H11C H 0.3306 0.3866 0.8452
Cl1C Cl 0.2244(8) 0.4251(4) 0.8939(4)
O1 O 0.6250 0.6250 0.7058(4)
H15 H 0.6066 0.6557 0.7156
H15M H 0.6434 0.5943 0.7156
C13? C 0.152(3) 0.3750 0.8750
H12? H 0.1206 0.3866 0.8452
H13? H 0.3306 0.3634 0.9048
H14? H 0.1206 0.3866 0.8452
loop_
_geom_bond_atom_site_label_1
_geom_bond_atom_site_label_2
_geom_bond_site_symmetry_1
_geom_bond_site_symmetry_2
C1 H1 1_555 1_555
C2 C3 1_555 1_555
C3 C1 1_555 1_555
H2 C3 1_555 1_555
C4 C2 1_555 1_555
H3 C4 1_555 1_555
C5 C4 1_555 1_555
H4 C5 1_555 1_555
C6 C2 1_555 1_555
C7 C6 1_555 1_555
H5 C7 1_555 1_555
C8 C7 1_555 1_555
C9 C8 1_555 1_555
H6 C9 1_555 1_555
C10 C9 1_555 1_555
H7 C10 1_555 1_555
C11 C6 1_555 1_555
H8 C11 1_555 1_555
Cd1 F1 1_555 1_555
F1 Si1 1_555 1_555
F2 Si1 1_555 1_555
F3 Si1 1_555 1_555
N1 C1 1_555 1_555
N2 C8 1_555 1_555
H9 N2 1_555 1_555
H10 N2 1_555 1_555
Si1 F1T 1_555 1_555
C12 H11 1_555 1_555
Cl1 C12 1_555 1_555
O1 H15 1_555 1_555
F1T Cd1T 1_555 1_555
F2T Si1 1_555 1_555
F3T Si1 1_555 1_555
C1A H1A 1_555 1_555
C2A C3A 1_555 1_555
C3A C1A 1_555 1_555
H2A C3A 1_555 1_555
C4A C2A 1_555 1_555
H3A C4A 1_555 1_555
C5A C4A 1_555 1_555
H4A C5A 1_555 1_555
C6A C2A 1_555 1_555
C7A C6A 1_555 1_555
H5A C7A 1_555 1_555
C8A C7A 1_555 1_555
C9A C8A 1_555 1_555
H6A C9A 1_555 1_555
C10A C9A 1_555 1_555
H7A C10A 1_555 1_555
C11A C6A 1_555 1_555
H8A C11A 1_555 1_555
N1A C1A 1_555 1_555
N2A Cd1 1_555 1_555
H9A N2A 1_555 1_555
H10A N2A 1_555 1_555
Cd1A N2 1_555 1_555
F1J Cd1 1_555 1_555
N1J Cd1 1_555 1_555
N2K Cd1 1_555 1_555
H11C C12 1_555 1_555
Cl1C C12 1_555 1_555
H15M O1 1_555 1_555
C5 N1 1_555 1_555
C10 C11 1_555 1_555
Cd1 N1 1_555 1_555
C5A N1A 1_555 1_555
C8A N2A 1_555 1_555
C10A C11A 1_555 1_555
N1A Cd1A 1_555 1_555

#END
