
#######################################################################
#
#                 Cambridge Crystallographic Data Centre
#                                CCDC 
#
#######################################################################
#
# If this CIF has been generated from an entry in the Cambridge 
# Structural Database, then it will include bibliographic, chemical, 
# crystal, experimental, refinement or atomic coordinate data resulting 
# from the CCDC's data processing and validation procedures.
#
#######################################################################

data_POMCUQ
_symmetry_cell_setting           monoclinic
_symmetry_space_group_name_H-M   'C 2/c'
_symmetry_Int_Tables_number      15
_space_group_name_Hall           '-C 2yn'
loop_
_symmetry_equiv_pos_site_id
_symmetry_equiv_pos_as_xyz
1 x,y,z
2 1/2+x,1/2+y,z
3 -x,y,1/2-z
4 1/2-x,1/2+y,1/2-z
5 -x,-y,-z
6 1/2-x,1/2-y,-z
7 x,-y,1/2+z
8 1/2+x,1/2-y,1/2+z
_cell_length_a                   18.773(2)
_cell_length_b                   14.9118(19)
_cell_length_c                   14.2298(18)
_cell_angle_alpha                90
_cell_angle_beta                 127.3900(10)
_cell_angle_gamma                90
_cell_volume                     3164.96
loop_
_atom_site_label
_atom_site_type_symbol
_atom_site_fract_x
_atom_site_fract_y
_atom_site_fract_z
C1 C 0.62433(16) 0.35138(16) 0.3021(2)
C2 C 0.69269(16) 0.28246(16) 0.3263(2)
C3 C 0.78199(17) 0.30336(18) 0.4034(2)
H1 H 0.7995 0.3550 0.4491
C4 C 0.84767(17) 0.24857(19) 0.4150(2)
H2 H 0.9078 0.2646 0.4672
C5 C 0.82376(16) 0.17188(17) 0.3500(2)
C6 C 0.89044(17) 0.12334(17) 0.3427(2)
C7 C 0.73263(17) 0.14297(16) 0.2769(2)
C8 C 0.66641(16) 0.19901(16) 0.2647(2)
C9 C 0.57689(18) 0.16783(19) 0.1952(2)
H3 H 0.5324 0.2031 0.1867
C10 C 0.5553(2) 0.0865(2) 0.1406(3)
H4 H 0.4962 0.0670 0.0952
C11 C 0.6204(3) 0.0319(2) 0.1515(3)
H5 H 0.6043 -0.0234 0.1136
C12 C 0.7067(2) 0.05926(19) 0.2170(3)
H6 H 0.7495 0.0229 0.2229
C13 C 0.26154(18) 0.5557(2) -0.0295(3)
H7 H 0.2482 0.5072 -0.0015
C14 C 0.32799(18) 0.64237(19) -0.0731(2)
H8 H 0.3701 0.6657 -0.0810
C15 C 0.2503(2) 0.6826(2) -0.1106(3)
H9 H 0.2295 0.7378 -0.1484
C16 C 0.1209(2) 0.6416(3) -0.1088(3)
H10 H 0.1215 0.6989 -0.0761
H11 H 0.1111 0.5954 -0.0697
C17 C 0.04549(17) 0.6405(2) -0.2362(3)
H12 H 0.0508 0.5876 -0.2712
H13 H 0.0502 0.6926 -0.2729
N1 N 0.33508(13) 0.56210(15) -0.02170(18)
N2 N 0.20866(14) 0.62697(18) -0.0825(2)
O1 O 0.56205(13) 0.36693(13) 0.19509(17)
O2 O 0.63686(12) 0.38808(13) 0.38962(17)
O3 O 0.5000 0.55213(17) 0.2500
O4 O 0.88276(18) 0.13705(18) 0.2513(2)
O5 O 0.94829(10) 0.07264(11) 0.42532(14)
Cd1 Cd 0.453957(10) 0.468475(11) 0.086231(14)
H14 H 0.5363(19) 0.581(2) 0.257(3)
C1B C 0.37567(16) 0.35138(16) 0.1979(2)
C2B C 0.30731(16) 0.28246(16) 0.1737(2)
C3B C 0.21801(17) 0.30336(18) 0.0966(2)
H1B H 0.2005 0.3550 0.0509
C4B C 0.15233(17) 0.24857(19) 0.0850(2)
H2B H 0.0922 0.2646 0.0328
C5B C 0.17624(16) 0.17188(17) 0.1500(2)
C6B C 0.10956(17) 0.12334(17) 0.1573(2)
C7B C 0.26737(17) 0.14297(16) 0.2231(2)
C8B C 0.33359(16) 0.19901(16) 0.2353(2)
C9B C 0.42311(18) 0.16783(19) 0.3048(2)
H3B H 0.4676 0.2031 0.3133
C10B C 0.4447(2) 0.0865(2) 0.3594(3)
H4B H 0.5038 0.0670 0.4048
C11B C 0.3796(3) 0.0319(2) 0.3485(3)
H5B H 0.3957 -0.0234 0.3864
C12B C 0.2933(2) 0.05926(19) 0.2830(3)
H6B H 0.2505 0.0229 0.2771
C13B C -0.26154(18) 0.5557(2) -0.4705(3)
H7B H -0.2482 0.5072 -0.4985
C14B C -0.32799(18) 0.64237(19) -0.4269(2)
H8B H -0.3701 0.6657 -0.4190
C15B C -0.2503(2) 0.6826(2) -0.3894(3)
H9B H -0.2295 0.7378 -0.3516
C16B C -0.1209(2) 0.6416(3) -0.3912(3)
H10B H -0.1215 0.6989 -0.4239
H11B H -0.1111 0.5954 -0.4303
C17B C -0.04549(17) 0.6405(2) -0.2638(3)
H12B H -0.0508 0.5876 -0.2288
H13B H -0.0502 0.6926 -0.2271
N1B N -0.33508(13) 0.56210(15) -0.47830(18)
N2B N -0.20866(14) 0.62697(18) -0.4175(2)
O1B O 0.43795(13) 0.36693(13) 0.30491(17)
O1B_2 O -0.56205(13) 0.36693(13) -0.69509(17)
O2B O 0.36314(12) 0.38808(13) 0.11038(17)
O2_2 O -0.36314(12) 0.38808(13) -0.61038(17)
O3_2 O -0.5000 0.55213(17) -0.7500
O4B O 0.11724(18) 0.13705(18) 0.2487(2)
O5B O 0.05171(10) 0.07264(11) 0.07468(14)
O5G O 0.44829(10) 0.42736(11) -0.07468(14)
O5C O 0.55171(10) 0.57264(11) 0.07468(14)
O5A O -0.55171(10) 0.57264(11) -0.57468(14)
O5E O -0.44829(10) 0.42736(11) -0.42532(14)
Cd1B Cd -0.453957(10) 0.468475(11) -0.586231(14)
Cd1B_2 Cd 0.546043(10) 0.468475(11) 0.413769(14)
Cd1G Cd 0.953957(10) 0.031525(11) 0.586231(14)
Cd1C Cd 1.046043(10) -0.031525(11) 0.413769(14)
Cd1A Cd -0.046043(10) -0.031525(11) 0.086231(14)
Cd1E Cd 0.046043(10) 0.031525(11) -0.086231(14)
H14B H 0.4637(19) 0.581(2) 0.243(3)
H14_2 H -0.4637(19) 0.581(2) -0.743(3)
H14B_2 H -0.5363(19) 0.581(2) -0.757(3)
loop_
_geom_bond_atom_site_label_1
_geom_bond_atom_site_label_2
_geom_bond_site_symmetry_1
_geom_bond_site_symmetry_2
C1 C2 1_555 1_555
C2 C3 1_555 1_555
C3 H1 1_555 1_555
C4 C3 1_555 1_555
H2 C4 1_555 1_555
C5 C4 1_555 1_555
C6 C5 1_555 1_555
C7 C5 1_555 1_555
C8 C2 1_555 1_555
C9 C8 1_555 1_555
H3 C9 1_555 1_555
C10 C9 1_555 1_555
H4 C10 1_555 1_555
C11 C10 1_555 1_555
H5 C11 1_555 1_555
C12 C7 1_555 1_555
H6 C12 1_555 1_555
C13 H7 1_555 1_555
C14 H8 1_555 1_555
C15 C14 1_555 1_555
H9 C15 1_555 1_555
C16 H10 1_555 1_555
H11 C16 1_555 1_555
C17 C16 1_555 1_555
H12 C17 1_555 1_555
H13 C17 1_555 1_555
N1 C13 1_555 1_555
N2 C13 1_555 1_555
O1 C1 1_555 1_555
O2 C1 1_555 1_555
O3 Cd1 1_555 1_555
O4 C6 1_555 1_555
O5 C6 1_555 1_555
Cd1 N1 1_555 1_555
H14 O3 1_555 1_555
C1B C2B 1_555 1_555
C2B C3B 1_555 1_555
C3B H1B 1_555 1_555
C4B C3B 1_555 1_555
H2B C4B 1_555 1_555
C5B C4B 1_555 1_555
C6B C5B 1_555 1_555
C7B C5B 1_555 1_555
C8B C2B 1_555 1_555
C9B C8B 1_555 1_555
H3B C9B 1_555 1_555
C10B C9B 1_555 1_555
H4B C10B 1_555 1_555
C11B C10B 1_555 1_555
H5B C11B 1_555 1_555
C12B C7B 1_555 1_555
H6B C12B 1_555 1_555
C13B H7B 1_555 1_555
C14B H8B 1_555 1_555
C15B C14B 1_555 1_555
H9B C15B 1_555 1_555
C16B H10B 1_555 1_555
H11B C16B 1_555 1_555
C17B C17 1_555 1_555
H12B C17B 1_555 1_555
H13B C17B 1_555 1_555
N1B C13B 1_555 1_555
N2B C13B 1_555 1_555
O1B C1B 1_555 1_555
O1B_2 Cd1B 1_555 1_555
O2B Cd1 1_555 1_555
O2_2 Cd1B 1_555 1_555
O3_2 Cd1B 1_555 1_555
O4B C6B 1_555 1_555
O5B C6B 1_555 1_555
O5G Cd1 1_555 1_555
O5C Cd1 1_555 1_555
O5A Cd1B 1_555 1_555
O5E Cd1B 1_555 1_555
Cd1B N1B 1_555 1_555
Cd1B_2 O2 1_555 1_555
Cd1G O5 1_555 1_555
Cd1C O5 1_555 1_555
Cd1A O5B 1_555 1_555
Cd1E O5B 1_555 1_555
H14B O3 1_555 1_555
H14_2 O3_2 1_555 1_555
H14B_2 O3_2 1_555 1_555
C7 C8 1_555 1_555
C11 C12 1_555 1_555
C14 N1 1_555 1_555
C15 N2 1_555 1_555
C16 N2 1_555 1_555
O1 Cd1 1_555 1_555
O3 Cd1B_2 1_555 1_555
C1B O2B 1_555 1_555
C7B C8B 1_555 1_555
C11B C12B 1_555 1_555
C14B N1B 1_555 1_555
C15B N2B 1_555 1_555
C16B C17B 1_555 1_555
C16B N2B 1_555 1_555
O1B Cd1B_2 1_555 1_555

#END
