
#######################################################################
#
#                 Cambridge Crystallographic Data Centre
#                                CCDC 
#
#######################################################################
#
# If this CIF has been generated from an entry in the Cambridge 
# Structural Database, then it will include bibliographic, chemical, 
# crystal, experimental, refinement or atomic coordinate data resulting 
# from the CCDC's data processing and validation procedures.
#
#######################################################################

data_POMFON
_symmetry_cell_setting           monoclinic
_symmetry_space_group_name_H-M   'P 21/n'
_symmetry_Int_Tables_number      14
_space_group_name_Hall           '-P 2yn'
loop_
_symmetry_equiv_pos_site_id
_symmetry_equiv_pos_as_xyz
1 x,y,z
2 1/2-x,1/2+y,1/2-z
3 -x,-y,-z
4 1/2+x,1/2-y,1/2+z
_cell_length_a                   13.046(7)
_cell_length_b                   13.470(7)
_cell_length_c                   13.538(7)
_cell_angle_alpha                90
_cell_angle_beta                 90.044(9)
_cell_angle_gamma                90
_cell_volume                     2379.03
loop_
_atom_site_label
_atom_site_type_symbol
_atom_site_fract_x
_atom_site_fract_y
_atom_site_fract_z
Cu1 Cu 0.08441(4) 0.73813(3) 0.04132(4)
Cu2 Cu 0.45032(3) 0.76203(3) -0.04863(3)
C1 C 0.3089(3) 0.7520(2) -0.0233(3)
N1 N 0.0019(2) 0.6836(2) 0.3253(2)
N2 N -0.0405(2) 0.73312(19) -0.0551(2)
N3 N 0.0024(2) 0.86301(19) 0.0898(2)
N4 N 0.54334(18) 0.8232(2) 0.06500(19)
N5 N 0.5591(2) 0.64667(19) -0.02813(19)
N6 N 0.2232(2) 0.74724(19) -0.0059(2)
C2 C 0.0338(2) 0.6522(2) 0.2527(2)
C3 C -0.0636(3) 0.6686(3) -0.1262(3)
H1 H -0.0226 0.6125 -0.1325
C4 C -0.1433(4) 0.6793(3) -0.1905(4)
H2 H -0.1549 0.6324 -0.2397
C5 C -0.2064(4) 0.7608(3) -0.1815(4)
H3 H -0.2610 0.7697 -0.2248
C6 C -0.1878(2) 0.8295(2) -0.1071(3)
C7 C -0.2500(3) 0.9176(3) -0.0924(3)
H4 H -0.3060 0.9296 -0.1333
C8 C -0.2269(3) 0.9819(3) -0.0200(3)
H5 H -0.2675 1.0380 -0.0119
C9 C -0.1417(2) 0.9670(2) 0.0451(3)
C10 C -0.1156(3) 1.0327(2) 0.1207(3)
H6 H -0.1545 1.0896 0.1311
C11 C -0.0333(3) 1.0133(3) 0.1790(3)
H7 H -0.0155 1.0563 0.2299
C12 C 0.0254(3) 0.9263(3) 0.1610(2)
H8 H 0.0820 0.9135 0.2008
C13 C -0.0798(2) 0.8824(2) 0.0330(2)
C14 C -0.1038(2) 0.8128(2) -0.0458(2)
C15 C 0.5371(3) 0.9102(3) 0.1122(3)
H9 H 0.4849 0.9536 0.0943
C16 C 0.6044(3) 0.9392(3) 0.1865(3)
H10 H 0.5968 1.0008 0.2167
C17 C 0.6812(3) 0.8776(3) 0.2149(3)
H11 H 0.7253 0.8954 0.2659
C18 C 0.6929(3) 0.7856(3) 0.1653(3)
C19 C 0.7759(3) 0.7185(3) 0.1877(3)
H12 H 0.8219 0.7332 0.2382
C20 C 0.7865(3) 0.6345(3) 0.1351(3)
H13 H 0.8424 0.5937 0.1478
C21 C 0.7157(2) 0.6058(2) 0.0611(3)
C22 C 0.7226(3) 0.5174(3) 0.0063(3)
H14 H 0.7770 0.4740 0.0168
C23 C 0.6491(3) 0.4955(3) -0.0622(3)
H15 H 0.6530 0.4370 -0.0985
C24 C 0.5680(3) 0.5616(3) -0.0775(3)
H16 H 0.5182 0.5455 -0.1240
C25 C 0.6313(2) 0.6691(2) 0.0399(2)
C26 C 0.6224(3) 0.7617(2) 0.0929(2)
S1 S 0.08145(8) 0.60266(6) 0.15161(7)
Cu2C Cu -0.04968(3) 0.73797(3) 0.45137(3)
N1C N 0.5019(2) 0.8164(2) -0.1747(2)
loop_
_geom_bond_atom_site_label_1
_geom_bond_atom_site_label_2
_geom_bond_site_symmetry_1
_geom_bond_site_symmetry_2
Cu1 N2 1_555 1_555
Cu2 C1 1_555 1_555
C1 N6 1_555 1_555
N1 C2 1_555 1_555
N2 C3 1_555 1_555
N3 Cu1 1_555 1_555
N4 Cu2 1_555 1_555
N5 Cu2 1_555 1_555
N6 Cu1 1_555 1_555
C2 S1 1_555 1_555
C3 H1 1_555 1_555
C4 C3 1_555 1_555
H2 C4 1_555 1_555
C5 C4 1_555 1_555
H3 C5 1_555 1_555
C6 C5 1_555 1_555
C7 C6 1_555 1_555
H4 C7 1_555 1_555
C8 C7 1_555 1_555
H5 C8 1_555 1_555
C9 C8 1_555 1_555
C10 C9 1_555 1_555
H6 C10 1_555 1_555
C11 C10 1_555 1_555
H7 C11 1_555 1_555
C12 N3 1_555 1_555
H8 C12 1_555 1_555
C13 N3 1_555 1_555
C14 N2 1_555 1_555
C15 N4 1_555 1_555
H9 C15 1_555 1_555
C16 C15 1_555 1_555
H10 C16 1_555 1_555
C17 C16 1_555 1_555
H11 C17 1_555 1_555
C18 C17 1_555 1_555
C19 C18 1_555 1_555
H12 C19 1_555 1_555
C20 C19 1_555 1_555
H13 C20 1_555 1_555
C21 C20 1_555 1_555
C22 C21 1_555 1_555
H14 C22 1_555 1_555
C23 C22 1_555 1_555
H15 C23 1_555 1_555
C24 N5 1_555 1_555
H16 C24 1_555 1_555
C25 N5 1_555 1_555
C26 N4 1_555 1_555
S1 Cu1 1_555 1_555
Cu2C N1 1_555 1_555
N1C Cu2 1_555 1_555
C6 C14 1_555 1_555
C9 C13 1_555 1_555
C11 C12 1_555 1_555
C13 C14 1_555 1_555
C18 C26 1_555 1_555
C21 C25 1_555 1_555
C23 C24 1_555 1_555
C25 C26 1_555 1_555

#END
