
#######################################################################
#
#                 Cambridge Crystallographic Data Centre
#                                CCDC 
#
#######################################################################
#
# If this CIF has been generated from an entry in the Cambridge 
# Structural Database, then it will include bibliographic, chemical, 
# crystal, experimental, refinement or atomic coordinate data resulting 
# from the CCDC's data processing and validation procedures.
#
#######################################################################

data_POMHEF
_symmetry_cell_setting           monoclinic
_symmetry_space_group_name_H-M   'P 21/n'
_symmetry_Int_Tables_number      14
_space_group_name_Hall           '-P 2yn'
loop_
_symmetry_equiv_pos_site_id
_symmetry_equiv_pos_as_xyz
1 x,y,z
2 1/2-x,1/2+y,1/2-z
3 -x,-y,-z
4 1/2+x,1/2-y,1/2+z
_cell_length_a                   9.2105(19)
_cell_length_b                   15.774(3)
_cell_length_c                   11.433(2)
_cell_angle_alpha                90
_cell_angle_beta                 108.004(4)
_cell_angle_gamma                90
_cell_volume                     1579.73
loop_
_atom_site_label
_atom_site_type_symbol
_atom_site_fract_x
_atom_site_fract_y
_atom_site_fract_z
Ag1 Ag 0.72113(3) 0.011584(16) 0.56851(2)
S1 S 0.43413(9) 0.19537(5) 0.48987(9)
N1 N 0.7468(3) 0.01972(15) 0.3849(2)
N2 N 0.7473(3) 0.01021(16) -0.2354(2)
C1 C 0.7508(3) 0.01617(18) 0.1402(3)
C2 C 0.1224(3) 0.19650(18) 0.4380(3)
H1 H 0.1175 0.1865 0.3549
C3 C -0.0062(3) 0.2155(2) 0.5922(3)
C4 C 0.7521(3) 0.01415(18) 0.0111(3)
O1 O 0.4856(2) 0.10869(15) 0.5186(2)
C5 C 0.2636(3) 0.20524(19) 0.5282(3)
C6 C 0.1367(4) 0.2258(2) 0.6808(3)
H2 H 0.1427 0.2368 0.7638
C7 C 0.6969(4) 0.0780(2) -0.1877(3)
H3 H 0.6607 0.1256 -0.2393
C8 C 0.8025(4) -0.0552(2) -0.1586(3)
H4 H 0.8388 -0.1036 -0.1903
C9 C 0.2681(4) 0.2204(2) 0.6487(3)
H5 H 0.3641 0.2270 0.7103
C10 C -0.0112(3) 0.2024(2) 0.4698(3)
H6 H -0.1072 0.1974 0.4078
C11 C 0.8647(3) -0.02265(19) 0.2346(3)
H7 H 0.9463 -0.0514 0.2171
C12 C 0.6367(3) 0.0573(2) 0.2940(3)
H8 H 0.5563 0.0855 0.3141
C13 C 0.6351(3) 0.0569(2) 0.1740(3)
H9 H 0.5547 0.0846 0.1132
C14 C 0.8586(4) -0.01927(19) 0.3527(3)
H10 H 0.9379 -0.0460 0.4155
O2 O 0.3940(4) 0.2091(3) 0.3591(3)
N3 N -0.1373(3) 0.2149(2) 0.6265(3)
H11 H -0.1314 0.2211 0.7043
H12 H -0.2269 0.2084 0.5705
O3 O 0.5398(3) 0.25465(19) 0.5646(4)
C15 C 0.8091(4) -0.0555(2) -0.0368(3)
H13 H 0.8518 -0.1024 0.0143
C16 C 0.6953(4) 0.0818(2) -0.0682(3)
H14 H 0.6555 0.1304 -0.0396
Ag1_2 Ag 0.72113(3) 0.011584(16) -0.43149(2)
Ag1B Ag 0.27887(3) -0.011584(16) 0.43149(2)
N2_2 N 0.7473(3) 0.01021(16) 0.7646(2)
O1B O 0.5144(2) -0.10869(15) 0.4814(2)
loop_
_geom_bond_atom_site_label_1
_geom_bond_atom_site_label_2
_geom_bond_site_symmetry_1
_geom_bond_site_symmetry_2
Ag1 N1 1_555 1_555
S1 O1 1_555 1_555
N1 C12 1_555 1_555
N2 C7 1_555 1_555
C1 C4 1_555 1_555
C2 H1 1_555 1_555
C3 C6 1_555 1_555
C4 C15 1_555 1_555
O1 Ag1 1_555 1_555
C5 S1 1_555 1_555
C6 H2 1_555 1_555
C7 H3 1_555 1_555
C8 N2 1_555 1_555
H4 C8 1_555 1_555
C9 C5 1_555 1_555
H5 C9 1_555 1_555
C10 C2 1_555 1_555
H6 C10 1_555 1_555
C11 C1 1_555 1_555
H7 C11 1_555 1_555
C12 H8 1_555 1_555
C13 C1 1_555 1_555
H9 C13 1_555 1_555
C14 N1 1_555 1_555
H10 C14 1_555 1_555
O2 S1 1_555 1_555
N3 C3 1_555 1_555
H11 N3 1_555 1_555
H12 N3 1_555 1_555
O3 S1 1_555 1_555
C15 C8 1_555 1_555
H13 C15 1_555 1_555
C16 C4 1_555 1_555
H14 C16 1_555 1_555
Ag1_2 N2 1_555 1_555
Ag1B O1 1_555 1_555
N2_2 Ag1 1_555 1_555
O1B Ag1 1_555 1_555
C2 C5 1_555 1_555
C3 C10 1_555 1_555
C6 C9 1_555 1_555
C7 C16 1_555 1_555
C11 C14 1_555 1_555
C12 C13 1_555 1_555
Ag1B O1B 1_555 1_555

#END
