
#######################################################################
#
#                 Cambridge Crystallographic Data Centre
#                                CCDC 
#
#######################################################################
#
# If this CIF has been generated from an entry in the Cambridge 
# Structural Database, then it will include bibliographic, chemical, 
# crystal, experimental, refinement or atomic coordinate data resulting 
# from the CCDC's data processing and validation procedures.
#
#######################################################################

data_POMMOU
_symmetry_cell_setting           monoclinic
_symmetry_space_group_name_H-M   'P 21/c'
_symmetry_Int_Tables_number      14
_space_group_name_Hall           '-P 2ybc'
loop_
_symmetry_equiv_pos_site_id
_symmetry_equiv_pos_as_xyz
1 x,y,z
2 -x,1/2+y,1/2-z
3 -x,-y,-z
4 x,1/2-y,1/2+z
_cell_length_a                   9.2195(10)
_cell_length_b                   8.2577(9)
_cell_length_c                   25.620(3)
_cell_angle_alpha                90
_cell_angle_beta                 103.215(4)
_cell_angle_gamma                90
_cell_volume                     1898.85
loop_
_atom_site_label
_atom_site_type_symbol
_atom_site_fract_x
_atom_site_fract_y
_atom_site_fract_z
Cd1 Cd -0.02266(3) -0.35415(3) -0.160159(10)
S1 S 0.16960(11) -0.11304(14) -0.22938(4)
O1 O 0.2554(4) 0.0134(4) -0.07583(12)
O2 O 0.1646(3) -0.2175(4) -0.11222(11)
N1 N -0.0906(3) -0.0378(4) -0.29879(12)
N2 N -0.1161(3) -0.1933(4) -0.22860(12)
N3 N -0.2011(4) -0.2403(4) -0.11518(12)
N4 N -0.0690(3) -0.5365(4) -0.09663(12)
C1 C -0.3638(5) -0.0327(6) -0.34450(18)
H1 H -0.3548 0.0326 -0.3732
C2 C -0.4989(5) -0.0924(7) -0.3404(2)
H2 H -0.5829 -0.0674 -0.3669
C3 C -0.5142(5) -0.1896(6) -0.2975(2)
H3 H -0.6080 -0.2285 -0.2962
C4 C -0.3944(4) -0.2286(6) -0.25743(17)
H4 H -0.4049 -0.2929 -0.2287
C5 C -0.2560(4) -0.1688(5) -0.26112(15)
C6 C -0.2405(4) -0.0729(5) -0.30442(15)
C7 C -0.0246(4) -0.1129(4) -0.25295(14)
C8 C 0.1951(5) 0.0085(5) -0.16913(16)
H5 H 0.2856 0.0710 -0.1665
H6 H 0.1133 0.0853 -0.1745
C9 C 0.2050(4) -0.0725(5) -0.11471(15)
C10 C -0.2683(5) -0.0977(6) -0.12479(18)
H7 H -0.2493 -0.0352 -0.1527
C11 C -0.3653(5) -0.0372(6) -0.09554(19)
H8 H -0.4117 0.0624 -0.1042
C12 C -0.3913(5) -0.1260(6) -0.05392(18)
H9 H -0.4549 -0.0865 -0.0335
C13 C -0.3225(4) -0.2768(6) -0.04181(16)
C14 C -0.3439(5) -0.3777(6) 0.00100(18)
H10 H -0.4031 -0.3409 0.0234
C15 C -0.2810(5) -0.5237(6) 0.00960(17)
H11 H -0.2986 -0.5873 0.0375
C16 C -0.1871(4) -0.5838(5) -0.02325(15)
C17 C -0.1199(5) -0.7361(6) -0.01553(16)
H12 H -0.1378 -0.8042 0.0112
C18 C -0.0281(5) -0.7844(5) -0.04729(17)
H13 H 0.0185 -0.8849 -0.0423
C19 C -0.0053(5) -0.6804(5) -0.08740(16)
H14 H 0.0579 -0.7139 -0.1088
C20 C -0.1588(4) -0.4874(5) -0.06459(14)
C21 C -0.2282(4) -0.3303(5) -0.07459(14)
Cd1A Cd 0.02266(3) 0.14585(3) -0.339841(10)
N1A N 0.0906(3) -0.5378(4) -0.20121(12)
loop_
_geom_bond_atom_site_label_1
_geom_bond_atom_site_label_2
_geom_bond_site_symmetry_1
_geom_bond_site_symmetry_2
Cd1 O2 1_555 1_555
S1 C7 1_555 1_555
O1 C9 1_555 1_555
O2 C9 1_555 1_555
N1 C6 1_555 1_555
N2 Cd1 1_555 1_555
N3 Cd1 1_555 1_555
N4 Cd1 1_555 1_555
C1 H1 1_555 1_555
C2 C1 1_555 1_555
H2 C2 1_555 1_555
C3 C2 1_555 1_555
H3 C3 1_555 1_555
C4 C3 1_555 1_555
H4 C4 1_555 1_555
C5 N2 1_555 1_555
C6 C1 1_555 1_555
C7 N1 1_555 1_555
C8 S1 1_555 1_555
H5 C8 1_555 1_555
H6 C8 1_555 1_555
C9 C8 1_555 1_555
C10 N3 1_555 1_555
H7 C10 1_555 1_555
C11 C10 1_555 1_555
H8 C11 1_555 1_555
C12 C11 1_555 1_555
H9 C12 1_555 1_555
C13 C12 1_555 1_555
C14 C13 1_555 1_555
H10 C14 1_555 1_555
C15 C14 1_555 1_555
H11 C15 1_555 1_555
C16 C15 1_555 1_555
C17 C16 1_555 1_555
H12 C17 1_555 1_555
C18 C17 1_555 1_555
H13 C18 1_555 1_555
C19 N4 1_555 1_555
H14 C19 1_555 1_555
C20 N4 1_555 1_555
C21 N3 1_555 1_555
Cd1A N1 1_555 1_555
N1A Cd1 1_555 1_555
N2 C7 1_555 1_555
C4 C5 1_555 1_555
C5 C6 1_555 1_555
C13 C21 1_555 1_555
C16 C20 1_555 1_555
C18 C19 1_555 1_555
C20 C21 1_555 1_555

#END
