
#######################################################################
#
#                 Cambridge Crystallographic Data Centre
#                                CCDC 
#
#######################################################################
#
# If this CIF has been generated from an entry in the Cambridge 
# Structural Database, then it will include bibliographic, chemical, 
# crystal, experimental, refinement or atomic coordinate data resulting 
# from the CCDC's data processing and validation procedures.
#
#######################################################################

data_POMSER
_symmetry_cell_setting           monoclinic
_symmetry_space_group_name_H-M   'P 2/n'
_symmetry_Int_Tables_number      13
_space_group_name_Hall           '-P 2yac'
loop_
_symmetry_equiv_pos_site_id
_symmetry_equiv_pos_as_xyz
1 x,y,z
2 1/2-x,y,1/2-z
3 -x,-y,-z
4 1/2+x,-y,1/2+z
_cell_length_a                   10.9251(4)
_cell_length_b                   9.9892(4)
_cell_length_c                   22.6123(9)
_cell_angle_alpha                90
_cell_angle_beta                 94.870(4)
_cell_angle_gamma                90
_cell_volume                     2458.84
loop_
_atom_site_label
_atom_site_type_symbol
_atom_site_fract_x
_atom_site_fract_y
_atom_site_fract_z
Ca1 Ca 0.94822(7) 0.01879(9) 0.33872(4)
Ca2 Ca 1.0000 0.0000 0.5000
Ca3 Ca 0.7500 -0.19372(12) 0.2500
O1 O 0.9301(3) -0.1371(3) 0.42138(13)
O2 O 0.8962(3) -0.2344(3) 0.33470(13)
O3 O 0.9183(3) -0.8422(3) 0.43003(15)
O4 O 0.9108(4) -0.7462(3) 0.34267(16)
O5 O 0.7329(3) -0.0076(3) 0.32186(15)
O6 O 0.5627(3) -0.0220(4) 0.26250(14)
O7 O 0.1728(4) 0.0343(5) 0.4523(2)
O8 O 0.1586(4) 0.0205(5) 0.3536(2)
O9 O 0.6271(5) -0.3317(6) 0.2962(2)
N1 N 0.5617(6) -0.5108(5) 0.3428(3)
C1 C 0.9019(4) -0.2385(4) 0.39066(18)
C2 C 0.9045(4) -0.7402(4) 0.3971(2)
C3 C 0.8761(4) -0.3665(4) 0.42179(18)
C4 C 0.8462(4) -0.3626(4) 0.4805(2)
H1 H 0.8372 -0.2807 0.4992
C5 C 0.8300(5) -0.4806(5) 0.5109(2)
H2 H 0.8077 -0.4779 0.5497
C6 C 0.8469(5) -0.6024(5) 0.4839(2)
H3 H 0.8372 -0.6813 0.5049
C7 C 0.8782(4) -0.6084(4) 0.42558(19)
C8 C 0.8902(4) -0.4893(4) 0.3941(2)
H4 H 0.9077 -0.4922 0.3546
C9 C 0.6188(4) 0.0050(4) 0.31177(19)
C10 C 0.2170(5) 0.0408(6) 0.4035(3)
C11 C 0.5460(4) 0.0510(4) 0.36129(19)
C12 C 0.4190(4) 0.0386(5) 0.3564(2)
H5 H 0.3781 0.0092 0.3211
C13 C 0.3529(4) 0.0702(5) 0.4045(2)
C14 C 0.4144(5) 0.1204(5) 0.4562(2)
H6 H 0.3704 0.1440 0.4880
C15 C 0.5406(5) 0.1354(5) 0.4605(2)
H7 H 0.5812 0.1704 0.4949
C16 C 0.6063(4) 0.0982(5) 0.4134(2)
H8 H 0.6915 0.1050 0.4168
C17 C 0.5798(5) -0.3855(6) 0.3362(3)
C18 C 0.5360(8) -0.3129(8) 0.3888(4)
H9 H 0.6023 -0.2614 0.4089
H10 H 0.4691 -0.2527 0.3763
C19 C 0.4939(11) -0.4181(11) 0.4283(5)
H11 H 0.4075 -0.4061 0.4338
H12 H 0.5401 -0.4138 0.4668
C20 C 0.5140(10) -0.5492(9) 0.3996(4)
H13 H 0.5732 -0.6030 0.4235
H14 H 0.4377 -0.5988 0.3929
C21 C 0.6026(10) -0.6185(10) 0.3017(4)
H15 H 0.6318 -0.5777 0.2672
H16 H 0.5345 -0.6761 0.2900
H17 H 0.6675 -0.6700 0.3220
Ca1A Ca 0.55178(7) 0.01879(9) 0.16128(4)
O1A O 0.5699(3) -0.1371(3) 0.07862(13)
O2A O 0.6038(3) -0.2344(3) 0.16530(13)
O3A O 0.5817(3) -0.8422(3) 0.06997(15)
O4A O 0.5892(4) -0.7462(3) 0.15733(16)
O5A O 0.7671(3) -0.0076(3) 0.17814(15)
O6A O 0.9373(3) -0.0220(4) 0.23750(14)
O7A O 1.3272(4) 0.0343(5) 0.0477(2)
O8A O 1.3414(4) 0.0205(5) 0.1464(2)
O9A O 0.8729(5) -0.3317(6) 0.2038(2)
N1A N 0.9383(6) -0.5108(5) 0.1572(3)
C1A C 0.5981(4) -0.2385(4) 0.10934(18)
C2A C 0.5955(4) -0.7402(4) 0.1029(2)
C3A C 0.6239(4) -0.3665(4) 0.07821(18)
C4A C 0.6538(4) -0.3626(4) 0.0195(2)
H1A H 0.6628 -0.2807 0.0008
C5A C 0.6700(5) -0.4806(5) -0.0109(2)
H2A H 0.6923 -0.4779 -0.0497
C6A C 0.6531(5) -0.6024(5) 0.0161(2)
H3A H 0.6628 -0.6813 -0.0049
C7A C 0.6218(4) -0.6084(4) 0.07442(19)
C8A C 0.6098(4) -0.4893(4) 0.1059(2)
H4A H 0.5923 -0.4922 0.1454
C9A C 0.8812(4) 0.0050(4) 0.18823(19)
C10A C 1.2830(5) 0.0408(6) 0.0965(3)
C11A C 0.9540(4) 0.0510(4) 0.13871(19)
C12A C 1.0810(4) 0.0386(5) 0.1436(2)
H5A H 1.1219 0.0092 0.1789
C13A C 1.1471(4) 0.0702(5) 0.0955(2)
C14A C 1.0856(5) 0.1204(5) 0.0438(2)
H6A H 1.1296 0.1440 0.0120
C15A C 0.9594(5) 0.1354(5) 0.0395(2)
H7A H 0.9188 0.1704 0.0051
C16A C 0.8937(4) 0.0982(5) 0.0866(2)
H8A H 0.8085 0.1050 0.0832
C17A C 0.9202(5) -0.3855(6) 0.1638(3)
C18A C 0.9640(8) -0.3129(8) 0.1112(4)
H9A H 0.8977 -0.2614 0.0911
H10A H 1.0309 -0.2527 0.1237
C19A C 1.0061(11) -0.4181(11) 0.0717(5)
H11A H 1.0925 -0.4061 0.0662
H12A H 0.9599 -0.4138 0.0332
C20A C 0.9860(10) -0.5492(9) 0.1004(4)
H13A H 0.9268 -0.6030 0.0765
H14A H 1.0623 -0.5988 0.1071
C21A C 0.8974(10) -0.6185(10) 0.1983(4)
H15A H 0.8682 -0.5777 0.2328
H16A H 0.9655 -0.6761 0.2100
H17A H 0.8325 -0.6700 0.1780
Ca1_2 Ca -0.05178(7) 0.01879(9) 0.33872(4)
Ca1_3 Ca 0.94822(7) -0.98121(9) 0.33872(4)
Ca1A_2 Ca 0.55178(7) -0.98121(9) 0.16128(4)
Ca1A_3 Ca 1.55178(7) 0.01879(9) 0.16128(4)
Ca2_2 Ca 0.0000 0.0000 0.5000
Ca2_3 Ca 1.0000 -1.0000 0.5000
Ca2A Ca 0.5000 -1.0000 0.0000
Ca2A_2 Ca 0.5000 0.0000 0.0000
Ca2A_3 Ca 1.5000 0.0000 0.0000
O1B O 1.0699(3) 0.1371(3) 0.57862(13)
O3_2 O 0.9183(3) 0.1578(3) 0.43003(15)
O3A_2 O 0.5817(3) 0.1578(3) 0.06997(15)
O3B O 1.0817(3) -0.1578(3) 0.56997(15)
O4_2 O 0.9108(4) 0.2538(3) 0.34267(16)
O4A_2 O 0.5892(4) 0.2538(3) 0.15733(16)
O7_2 O 1.1728(4) 0.0343(5) 0.4523(2)
O7B O 0.8272(4) -0.0343(5) 0.5477(2)
O8_2 O 1.1586(4) 0.0205(5) 0.3536(2)
O8A_2 O 0.3414(4) 0.0205(5) 0.1464(2)
O10 O 0.7500 -0.8067(15) 0.2500
O11 O 0.220(2) -0.485(2) 0.2790(11)
loop_
_geom_bond_atom_site_label_1
_geom_bond_atom_site_label_2
_geom_bond_site_symmetry_1
_geom_bond_site_symmetry_2
Ca1 O1 1_555 1_555
Ca2 O1 1_555 1_555
Ca3 O2 1_555 1_555
O1 C1 1_555 1_555
O2 Ca1 1_555 1_555
O3 C2 1_555 1_555
O4 C2 1_555 1_555
O5 Ca1 1_555 1_555
O6 Ca3 1_555 1_555
O7 C10 1_555 1_555
O8 C10 1_555 1_555
O9 Ca3 1_555 1_555
N1 C17 1_555 1_555
C1 O2 1_555 1_555
C2 C7 1_555 1_555
C3 C1 1_555 1_555
C4 C3 1_555 1_555
H1 C4 1_555 1_555
C5 C4 1_555 1_555
H2 C5 1_555 1_555
C6 C5 1_555 1_555
H3 C6 1_555 1_555
C7 C6 1_555 1_555
C8 C3 1_555 1_555
H4 C8 1_555 1_555
C9 O5 1_555 1_555
C10 C13 1_555 1_555
C11 C9 1_555 1_555
C12 C11 1_555 1_555
H5 C12 1_555 1_555
C13 C12 1_555 1_555
C14 C13 1_555 1_555
H6 C14 1_555 1_555
C15 C14 1_555 1_555
H7 C15 1_555 1_555
C16 C11 1_555 1_555
H8 C16 1_555 1_555
C17 O9 1_555 1_555
C18 C17 1_555 1_555
H9 C18 1_555 1_555
H10 C18 1_555 1_555
C19 C18 1_555 1_555
H11 C19 1_555 1_555
H12 C19 1_555 1_555
C20 N1 1_555 1_555
H13 C20 1_555 1_555
H14 C20 1_555 1_555
C21 N1 1_555 1_555
H15 C21 1_555 1_555
H16 C21 1_555 1_555
H17 C21 1_555 1_555
Ca1A O6 1_555 1_555
O1A Ca1A 1_555 1_555
O2A Ca3 1_555 1_555
O3A C2A 1_555 1_555
O4A C2A 1_555 1_555
O5A Ca3 1_555 1_555
O6A Ca1 1_555 1_555
O7A C10A 1_555 1_555
O8A C10A 1_555 1_555
O9A Ca3 1_555 1_555
N1A C17A 1_555 1_555
C1A O1A 1_555 1_555
C2A C7A 1_555 1_555
C3A C1A 1_555 1_555
C4A C3A 1_555 1_555
H1A C4A 1_555 1_555
C5A C4A 1_555 1_555
H2A C5A 1_555 1_555
C6A C5A 1_555 1_555
H3A C6A 1_555 1_555
C7A C6A 1_555 1_555
C8A C3A 1_555 1_555
H4A C8A 1_555 1_555
C9A O5A 1_555 1_555
C10A C13A 1_555 1_555
C11A C9A 1_555 1_555
C12A C11A 1_555 1_555
H5A C12A 1_555 1_555
C13A C12A 1_555 1_555
C14A C13A 1_555 1_555
H6A C14A 1_555 1_555
C15A C14A 1_555 1_555
H7A C15A 1_555 1_555
C16A C11A 1_555 1_555
H8A C16A 1_555 1_555
C17A O9A 1_555 1_555
C18A C17A 1_555 1_555
H9A C18A 1_555 1_555
H10A C18A 1_555 1_555
C19A C18A 1_555 1_555
H11A C19A 1_555 1_555
H12A C19A 1_555 1_555
C20A N1A 1_555 1_555
H13A C20A 1_555 1_555
H14A C20A 1_555 1_555
C21A N1A 1_555 1_555
H15A C21A 1_555 1_555
H16A C21A 1_555 1_555
H17A C21A 1_555 1_555
Ca1_2 O8 1_555 1_555
Ca1_3 O3 1_555 1_555
Ca1A_2 O3A 1_555 1_555
Ca1A_3 O8A 1_555 1_555
Ca2_2 O7 1_555 1_555
Ca2_3 O3 1_555 1_555
Ca2A O3A 1_555 1_555
Ca2A_2 O1A 1_555 1_555
Ca2A_3 O7A 1_555 1_555
O1B Ca2 1_555 1_555
O3_2 Ca1 1_555 1_555
O3A_2 Ca1A 1_555 1_555
O3B Ca2 1_555 1_555
O4_2 Ca1 1_555 1_555
O4A_2 Ca1A 1_555 1_555
O7_2 Ca2 1_555 1_555
O7B Ca2 1_555 1_555
O8_2 Ca1 1_555 1_555
O8A_2 Ca1A 1_555 1_555
Ca2 O3_2 1_555 1_555
Ca3 O5 1_555 1_555
Ca3 O6A 1_555 1_555
O4 Ca1_3 1_555 1_555
O6 C9 1_555 1_555
C7 C8 1_555 1_555
C15 C16 1_555 1_555
C19 C20 1_555 1_555
Ca1A O2A 1_555 1_555
Ca1A O5A 1_555 1_555
O2A C1A 1_555 1_555
O4A Ca1A_2 1_555 1_555
O6A C9A 1_555 1_555
C7A C8A 1_555 1_555
C15A C16A 1_555 1_555
C19A C20A 1_555 1_555
Ca2A_2 O3A_2 1_555 1_555

#END
