
#######################################################################
#
#                 Cambridge Crystallographic Data Centre
#                                CCDC 
#
#######################################################################
#
# If this CIF has been generated from an entry in the Cambridge 
# Structural Database, then it will include bibliographic, chemical, 
# crystal, experimental, refinement or atomic coordinate data resulting 
# from the CCDC's data processing and validation procedures.
#
#######################################################################

data_POMSIV
_symmetry_cell_setting           orthorhombic
_symmetry_space_group_name_H-M   'P 21 21 21'
_symmetry_Int_Tables_number      19
_space_group_name_Hall           'P 2ac 2ab'
loop_
_symmetry_equiv_pos_site_id
_symmetry_equiv_pos_as_xyz
1 x,y,z
2 1/2-x,-y,1/2+z
3 -x,1/2+y,1/2-z
4 1/2+x,1/2-y,-z
_cell_length_a                   6.9175(6)
_cell_length_b                   10.4754(10)
_cell_length_c                   17.7184(15)
_cell_angle_alpha                90
_cell_angle_beta                 90
_cell_angle_gamma                90
_cell_volume                     1283.94
loop_
_atom_site_label
_atom_site_type_symbol
_atom_site_fract_x
_atom_site_fract_y
_atom_site_fract_z
Ca1 Ca 0.49822(12) 0.25612(9) 0.02368(5)
O1 O 0.5762(6) 0.4023(5) 0.1247(2)
O2 O 0.8313(5) 0.2937(3) 0.08908(18)
O3 O 0.5542(6) 0.6176(5) 0.3686(2)
O4 O 0.8069(5) 0.6328(4) 0.44087(19)
O5 O 0.2243(5) 0.4078(3) 0.0180(2)
N1 N 0.2880(8) 0.5754(5) 0.0950(3)
H1 H 0.3946 0.5461 0.1129
C1 C 0.7472(7) 0.3660(5) 0.1346(3)
C2 C 0.7264(8) 0.5964(5) 0.3801(3)
C3 C 0.8513(7) 0.4126(5) 0.2039(3)
C4 C 0.7522(8) 0.4818(5) 0.2582(3)
H2 H 0.6215 0.4988 0.2512
C5 C 0.8432(7) 0.5260(5) 0.3225(3)
C6 C 1.0410(8) 0.5044(5) 0.3309(3)
H3 H 1.1066 0.5374 0.3724
C7 C 1.1390(7) 0.4337(6) 0.2773(3)
H4 H 1.2701 0.4173 0.2837
C8 C 1.0454(7) 0.3877(5) 0.2150(3)
H5 H 1.1130 0.3392 0.1798
C9 C 0.1887(8) 0.5155(5) 0.0432(3)
C10 C 0.0189(9) 0.5960(6) 0.0203(4)
H6 H -0.1016 0.5522 0.0309
H7 H 0.0243 0.6158 -0.0331
C11 C 0.0359(15) 0.7159(8) 0.0670(6)
H8 H 0.0589 0.7892 0.0348
H9 H -0.0822 0.7304 0.0953
C12 C 0.2035(12) 0.6965(7) 0.1199(5)
H10 H 0.2961 0.7656 0.1156
H11 H 0.1598 0.6909 0.1718
Ca1A Ca 1.00178(12) 0.74388(9) 0.52368(5)
Ca1B Ca 0.50178(12) 0.75612(9) 0.47632(5)
Ca1C Ca -0.00178(12) 0.24388(9) -0.02368(5)
Ca1C_2 Ca 0.99822(12) 0.24388(9) -0.02368(5)
O2C O 0.3313(5) 0.2063(3) -0.08908(18)
O3B O 0.4458(6) 0.1176(5) 0.1314(2)
O4A O 0.6931(5) 0.3672(4) -0.05913(19)
O4B O 0.1931(5) 0.1328(4) 0.05913(19)
O5C O 0.7243(5) 0.0922(3) -0.0180(2)
loop_
_geom_bond_atom_site_label_1
_geom_bond_atom_site_label_2
_geom_bond_site_symmetry_1
_geom_bond_site_symmetry_2
Ca1 O1 1_555 1_555
O1 C1 1_555 1_555
O2 Ca1 1_555 1_555
O3 C2 1_555 1_555
O4 C2 1_555 1_555
O5 Ca1 1_555 1_555
N1 H1 1_555 1_555
C1 O2 1_555 1_555
C2 C5 1_555 1_555
C3 C1 1_555 1_555
C4 C3 1_555 1_555
H2 C4 1_555 1_555
C5 C4 1_555 1_555
C6 C5 1_555 1_555
H3 C6 1_555 1_555
C7 C6 1_555 1_555
H4 C7 1_555 1_555
C8 C3 1_555 1_555
H5 C8 1_555 1_555
C9 O5 1_555 1_555
C10 C9 1_555 1_555
H6 C10 1_555 1_555
H7 C10 1_555 1_555
C11 C10 1_555 1_555
H8 C11 1_555 1_555
H9 C11 1_555 1_555
C12 N1 1_555 1_555
H10 C12 1_555 1_555
H11 C12 1_555 1_555
Ca1A O4 1_555 1_555
Ca1B O3 1_555 1_555
Ca1C O5 1_555 1_555
Ca1C_2 O2 1_555 1_555
O2C Ca1 1_555 1_555
O3B Ca1 1_555 1_555
O4A Ca1 1_555 1_555
O4B Ca1 1_555 1_555
O5C Ca1 1_555 1_555
O4 Ca1B 1_555 1_555
N1 C9 1_555 1_555
C7 C8 1_555 1_555
C11 C12 1_555 1_555
Ca1C O2C 1_555 1_555
Ca1C O4B 1_555 1_555
Ca1C_2 O4A 1_555 1_555
Ca1C_2 O5C 1_555 1_555

#END
