
#######################################################################
#
#                 Cambridge Crystallographic Data Centre
#                                CCDC 
#
#######################################################################
#
# If this CIF has been generated from an entry in the Cambridge 
# Structural Database, then it will include bibliographic, chemical, 
# crystal, experimental, refinement or atomic coordinate data resulting 
# from the CCDC's data processing and validation procedures.
#
#######################################################################

data_PONTET
_symmetry_cell_setting           orthorhombic
_symmetry_space_group_name_H-M   'A b a 2'
_symmetry_Int_Tables_number      41
_space_group_name_Hall           'A 2 -2ab'
loop_
_symmetry_equiv_pos_site_id
_symmetry_equiv_pos_as_xyz
1 x,y,z
2 -x,-y,z
3 1/2+x,1/2-y,z
4 1/2-x,1/2+y,z
5 x,1/2+y,1/2+z
6 -x,1/2-y,1/2+z
7 1/2+x,-y,1/2+z
8 1/2-x,y,1/2+z
_cell_length_a                   12.664(6)
_cell_length_b                   30.334(15)
_cell_length_c                   7.060(4)
_cell_angle_alpha                90
_cell_angle_beta                 90
_cell_angle_gamma                90
_cell_volume                     2712.1
loop_
_atom_site_label
_atom_site_type_symbol
_atom_site_fract_x
_atom_site_fract_y
_atom_site_fract_z
C1 C 0.1456(3) 0.46675(13) 0.3340(5)
C2 C 0.1314(3) 0.50502(15) 0.4667(6)
C3 C 0.1242(4) 0.54738(15) 0.3946(7)
H1 H 0.1260 0.5520 0.2644
C4 C 0.1143(4) 0.58270(17) 0.5164(6)
H2 H 0.1118 0.6112 0.4675
C5 C 0.1080(4) 0.57638(16) 0.7112(6)
C6 C 0.1151(4) 0.53324(15) 0.7841(6)
H3 H 0.1117 0.5285 0.9141
C7 C 0.1269(4) 0.49802(16) 0.6622(6)
H4 H 0.1318 0.4695 0.7103
C8 C 0.0973(3) 0.61466(13) 0.8439(6)
C9 C 0.0826(3) 0.65986(13) 0.7619(5)
C10 C 0.1692(3) 0.68747(16) 0.7589(7)
H5 H 0.2327 0.6782 0.8118
C11 C 0.1619(4) 0.72935(16) 0.6764(7)
H6 H 0.2207 0.7477 0.6751
C12 C 0.0700(4) 0.74334(12) 0.5987(13)
H7 H 0.0661 0.7710 0.5424
C13 C -0.0181(3) 0.71616(11) 0.6034(9)
H8 H -0.0812 0.7259 0.5509
C14 C -0.0134(3) 0.67491(13) 0.6849(5)
C15 C -0.1114(3) 0.64644(13) 0.6943(5)
Cd1 Cd 0.193946(18) 0.400042(7) 0.09130(6)
O1 O 0.1826(2) 0.43005(9) 0.3988(4)
O2 O 0.1235(2) 0.47011(9) 0.1631(4)
O3 O 0.1084(3) 0.61025(9) 1.0158(4)
O4 O -0.1117(2) 0.61486(9) 0.8091(4)
O5 O -0.1862(2) 0.65611(8) 0.5860(10)
O6 O 0.0677(3) 0.35110(12) 0.1977(4)
H9 H 0.074(4) 0.3446(15) 0.312(3)
H10 H 0.0031(18) 0.3508(16) 0.168(6)
Cd1A Cd -0.193946(18) 0.599958(7) 1.09130(6)
Cd1F Cd -0.306054(18) 0.599958(7) 0.59130(6)
Cd1G Cd 0.306054(18) 0.400042(7) 0.59130(6)
O1G O 0.3174(2) 0.43005(9) -0.1012(4)
O4A O 0.1117(2) 0.38514(9) -0.1909(4)
O5F O 0.3138(2) 0.34389(8) 0.0860(10)
loop_
_geom_bond_atom_site_label_1
_geom_bond_atom_site_label_2
_geom_bond_site_symmetry_1
_geom_bond_site_symmetry_2
C1 C2 1_555 1_555
C2 C3 1_555 1_555
C3 H1 1_555 1_555
C4 C3 1_555 1_555
H2 C4 1_555 1_555
C5 C4 1_555 1_555
C6 C5 1_555 1_555
H3 C6 1_555 1_555
C7 C2 1_555 1_555
H4 C7 1_555 1_555
C8 C5 1_555 1_555
C9 C8 1_555 1_555
C10 C9 1_555 1_555
H5 C10 1_555 1_555
C11 C10 1_555 1_555
H6 C11 1_555 1_555
C12 C11 1_555 1_555
H7 C12 1_555 1_555
C13 C12 1_555 1_555
H8 C13 1_555 1_555
C14 C9 1_555 1_555
C15 C14 1_555 1_555
Cd1 O1 1_555 1_555
O1 C1 1_555 1_555
O2 C1 1_555 1_555
O3 C8 1_555 1_555
O4 C15 1_555 1_555
O5 C15 1_555 1_555
O6 Cd1 1_555 1_555
H9 O6 1_555 1_555
H10 O6 1_555 1_555
Cd1A O4 1_555 1_555
Cd1F O5 1_555 1_555
Cd1G O1 1_555 1_555
O1G Cd1 1_555 1_555
O4A Cd1 1_555 1_555
O5F Cd1 1_555 1_555
C6 C7 1_555 1_555
C13 C14 1_555 1_555
Cd1 O2 1_555 1_555

#END
