
#######################################################################
#
#                 Cambridge Crystallographic Data Centre
#                                CCDC 
#
#######################################################################
#
# If this CIF has been generated from an entry in the Cambridge 
# Structural Database, then it will include bibliographic, chemical, 
# crystal, experimental, refinement or atomic coordinate data resulting 
# from the CCDC's data processing and validation procedures.
#
#######################################################################

data_POPCUU
_symmetry_cell_setting           triclinic
_symmetry_space_group_name_H-M   'P -1'
_symmetry_Int_Tables_number      2
_space_group_name_Hall           '-P 1'
loop_
_symmetry_equiv_pos_site_id
_symmetry_equiv_pos_as_xyz
1 x,y,z
2 -x,-y,-z
_cell_length_a                   10.4982(4)
_cell_length_b                   11.9704(4)
_cell_length_c                   12.5963(5)
_cell_angle_alpha                66.271(4)
_cell_angle_beta                 80.316(4)
_cell_angle_gamma                75.709(3)
_cell_volume                     1400.04
loop_
_atom_site_label
_atom_site_type_symbol
_atom_site_fract_x
_atom_site_fract_y
_atom_site_fract_z
Cd1 Cd 0.22499(5) 0.21131(4) 0.73188(4)
Br1 Br 0.08782(10) 0.19818(8) 1.12467(8)
Br2 Br -0.02885(13) 0.36960(9) 1.28382(8)
Br3 Br 0.29105(8) 0.07477(10) 0.42286(9)
Br4 Br -0.19775(8) 0.10976(8) 0.67993(8)
O1 O 0.2456(6) 0.3429(6) 0.8393(6)
O2 O 0.0572(6) 0.3014(6) 0.8275(6)
O3 O 0.0619(6) 0.2622(5) 0.5565(6)
O4 O 0.1406(7) 0.0813(6) 0.6915(5)
N1 N 0.4314(7) -0.5684(7) 1.4137(6)
N2 N 0.3565(6) 0.0402(6) 0.8498(5)
N3 N 0.4204(6) -0.1368(6) 0.9935(5)
N4 N 0.3565(6) -0.7005(6) 1.5760(5)
C1 C -0.0842(6) 0.0458(6) 0.5763(6)
C2 C 0.4388(10) -0.4582(8) 1.3097(7)
H1 H 0.5294 -0.4471 1.2923
H2 H 0.3862 -0.3865 1.3249
C3 C -0.0172(8) 0.4436(7) 1.1196(6)
C4 C 0.1798(9) -0.0559(8) 0.9898(7)
H3 H 0.1338 0.0236 0.9910
H4 H 0.1783 -0.1177 1.0674
H5 H 0.1376 -0.0780 0.9411
C5 C 0.0569(7) 0.4266(7) 0.9325(6)
C6 C 0.4904(8) 0.0053(8) 0.8393(7)
H6 H 0.5453 0.0498 0.7796
C7 C 0.1234(7) 0.0300(7) 0.4670(6)
C8 C 0.0377(7) 0.0764(7) 0.5447(6)
C9 C 0.3169(9) -0.4681(9) 1.0038(9)
H7 H 0.2929 -0.4699 0.9368
C10 C 0.3206(10) -0.5705(9) 1.1045(10)
H8 H 0.2986 -0.6420 1.1065
C11 C 0.3165(7) -0.0492(7) 0.9440(6)
C12 C 0.4220(9) -0.2422(7) 1.1024(7)
H9 H 0.3616 -0.2158 1.1591
H10 H 0.5097 -0.2661 1.1293
C13 C 0.2050(10) -0.4956(9) 1.4886(9)
H11 H 0.2175 -0.4323 1.5121
H12 H 0.1372 -0.5364 1.5394
H13 H 0.1795 -0.4583 1.4102
C14 C 0.3858(7) -0.3560(7) 1.1005(6)
C15 C 0.0377(7) 0.3728(7) 1.0521(7)
C16 C 0.3577(10) -0.5676(9) 1.2047(9)
H14 H 0.3599 -0.6375 1.2735
C17 C 0.3492(8) -0.3593(8) 1.0009(7)
H15 H 0.3461 -0.2895 0.9320
C18 C 0.4753(9) -0.7559(9) 1.5447(7)
H16 H 0.5175 -0.8370 1.5852
C19 C 0.3914(8) -0.4613(8) 1.2027(7)
C20 C 0.0834(7) 0.1501(8) 0.6003(7)
C21 C 0.3287(8) -0.5872(7) 1.4949(6)
C22 C 0.1244(8) 0.3512(7) 0.8601(6)
C23 C 0.5320(7) -0.1017(7) 0.9269(7)
H17 H 0.6187 -0.1436 0.9398
C24 C 0.5249(9) -0.6746(10) 1.4438(8)
H18 H 0.6062 -0.6891 1.4038
Br1A Br -0.08782(10) 0.80182(8) 0.87533(8)
Br2A Br 0.02885(13) 0.63040(9) 0.71618(8)
O1A O -0.2456(6) 0.6571(6) 1.1607(6)
O2A O -0.0572(6) 0.6986(6) 1.1725(6)
C3A C 0.0172(8) 0.5564(7) 0.8804(6)
C5A C -0.0569(7) 0.5734(7) 1.0675(6)
C15A C -0.0377(7) 0.6272(7) 0.9479(7)
C22A C -0.1244(8) 0.6488(7) 1.1399(6)
Br3A Br -0.29105(8) -0.07477(10) 0.57714(9)
Br4A Br 0.19775(8) -0.10976(8) 0.32007(8)
O3A O -0.0619(6) -0.2622(5) 0.4435(6)
O4A O -0.1406(7) -0.0813(6) 0.3085(5)
C1A C 0.0842(6) -0.0458(6) 0.4237(6)
C7A C -0.1234(7) -0.0300(7) 0.5330(6)
C8A C -0.0377(7) -0.0764(7) 0.4553(6)
C20A C -0.0834(7) -0.1501(8) 0.3997(7)
Cd1A Cd -0.22499(5) -0.21131(4) 0.26812(4)
N1A N -0.4314(7) 0.5684(7) -0.4137(6)
N2A N -0.3565(6) -0.0402(6) 0.1502(5)
N3A N -0.4204(6) 0.1368(6) 0.0065(5)
N4A N -0.3565(6) 0.7005(6) -0.5760(5)
C2A C -0.4388(10) 0.4582(8) -0.3097(7)
H1A H -0.5294 0.4471 -0.2923
H2A H -0.3862 0.3865 -0.3249
C4A C -0.1798(9) 0.0559(8) 0.0102(7)
H3A H -0.1338 -0.0236 0.0090
H4A H -0.1783 0.1177 -0.0674
H5A H -0.1376 0.0780 0.0589
C6A C -0.4904(8) -0.0053(8) 0.1607(7)
H6A H -0.5453 -0.0498 0.2204
C9A C -0.3169(9) 0.4681(9) -0.0038(9)
H7A H -0.2929 0.4699 0.0632
C10A C -0.3206(10) 0.5705(9) -0.1045(10)
H8A H -0.2986 0.6420 -0.1065
C11A C -0.3165(7) 0.0492(7) 0.0560(6)
C12A C -0.4220(9) 0.2422(7) -0.1024(7)
H9A H -0.3616 0.2158 -0.1591
H10A H -0.5097 0.2661 -0.1293
C13A C -0.2050(10) 0.4956(9) -0.4886(9)
H11A H -0.2175 0.4323 -0.5121
H12A H -0.1372 0.5364 -0.5394
H13A H -0.1795 0.4583 -0.4102
C14A C -0.3858(7) 0.3560(7) -0.1005(6)
C16A C -0.3577(10) 0.5676(9) -0.2047(9)
H14A H -0.3599 0.6375 -0.2735
C17A C -0.3492(8) 0.3593(8) -0.0009(7)
H15A H -0.3461 0.2895 0.0680
C18A C -0.4753(9) 0.7559(9) -0.5447(7)
H16A H -0.5175 0.8370 -0.5852
C19A C -0.3914(8) 0.4613(8) -0.2027(7)
C21A C -0.3287(8) 0.5872(7) -0.4949(6)
C23A C -0.5320(7) 0.1017(7) 0.0731(7)
H17A H -0.6187 0.1436 0.0602
C24A C -0.5249(9) 0.6746(10) -0.4438(8)
H18A H -0.6062 0.6891 -0.4038
Cd1_2 Cd 0.22499(5) -0.78869(4) 1.73188(4)
Cd1A_2 Cd -0.22499(5) 0.78869(4) -0.73188(4)
Cd1A_3 Cd -0.22499(5) 0.78869(4) 1.26812(4)
O1A_2 O -0.2456(6) -0.3429(6) 0.1607(6)
O2A_2 O -0.0572(6) -0.3014(6) 0.1725(6)
N4_2 N 0.3565(6) 0.2995(6) 0.5760(5)
N4A_2 N -0.3565(6) -0.2995(6) 0.4240(5)
loop_
_geom_bond_atom_site_label_1
_geom_bond_atom_site_label_2
_geom_bond_site_symmetry_1
_geom_bond_site_symmetry_2
Cd1 O1 1_555 1_555
Br1 C15 1_555 1_555
Br2 C3 1_555 1_555
Br3 C7 1_555 1_555
Br4 C1 1_555 1_555
O1 C22 1_555 1_555
O2 Cd1 1_555 1_555
O3 Cd1 1_555 1_555
O4 Cd1 1_555 1_555
N1 C2 1_555 1_555
N2 Cd1 1_555 1_555
N3 C11 1_555 1_555
N4 C18 1_555 1_555
C1 C8 1_555 1_555
C2 H1 1_555 1_555
H2 C2 1_555 1_555
C3 C15 1_555 1_555
C4 H3 1_555 1_555
H4 C4 1_555 1_555
H5 C4 1_555 1_555
C5 C15 1_555 1_555
C6 N2 1_555 1_555
H6 C6 1_555 1_555
C7 C8 1_555 1_555
C8 C20 1_555 1_555
C9 H7 1_555 1_555
C10 C9 1_555 1_555
H8 C10 1_555 1_555
C11 N2 1_555 1_555
C12 N3 1_555 1_555
H9 C12 1_555 1_555
H10 C12 1_555 1_555
C13 H11 1_555 1_555
H12 C13 1_555 1_555
H13 C13 1_555 1_555
C14 C12 1_555 1_555
C16 C10 1_555 1_555
H14 C16 1_555 1_555
C17 C9 1_555 1_555
H15 C17 1_555 1_555
C18 H16 1_555 1_555
C19 C2 1_555 1_555
C20 O3 1_555 1_555
C21 N1 1_555 1_555
C22 O2 1_555 1_555
C23 N3 1_555 1_555
H17 C23 1_555 1_555
C24 N1 1_555 1_555
H18 C24 1_555 1_555
Br1A C15A 1_555 1_555
Br2A C3A 1_555 1_555
O1A C22A 1_555 1_555
O2A C22A 1_555 1_555
C3A C5 1_555 1_555
C5A C3 1_555 1_555
C15A C3A 1_555 1_555
C22A C5A 1_555 1_555
Br3A C7A 1_555 1_555
Br4A C1A 1_555 1_555
O3A C20A 1_555 1_555
O4A C20A 1_555 1_555
C1A C7 1_555 1_555
C7A C1 1_555 1_555
C8A C1A 1_555 1_555
C20A C8A 1_555 1_555
Cd1A O3A 1_555 1_555
N1A C2A 1_555 1_555
N2A Cd1A 1_555 1_555
N3A C11A 1_555 1_555
N4A C18A 1_555 1_555
C2A H1A 1_555 1_555
H2A C2A 1_555 1_555
C4A H3A 1_555 1_555
H4A C4A 1_555 1_555
H5A C4A 1_555 1_555
C6A N2A 1_555 1_555
H6A C6A 1_555 1_555
C9A H7A 1_555 1_555
C10A C9A 1_555 1_555
H8A C10A 1_555 1_555
C11A N2A 1_555 1_555
C12A N3A 1_555 1_555
H9A C12A 1_555 1_555
H10A C12A 1_555 1_555
C13A H11A 1_555 1_555
H12A C13A 1_555 1_555
H13A C13A 1_555 1_555
C14A C12A 1_555 1_555
C16A C10A 1_555 1_555
H14A C16A 1_555 1_555
C17A C9A 1_555 1_555
H15A C17A 1_555 1_555
C18A H16A 1_555 1_555
C19A C2A 1_555 1_555
C21A N1A 1_555 1_555
C23A N3A 1_555 1_555
H17A C23A 1_555 1_555
C24A N1A 1_555 1_555
H18A C24A 1_555 1_555
Cd1_2 N4 1_555 1_555
Cd1A_2 N4A 1_555 1_555
Cd1A_3 O1A 1_555 1_555
O1A_2 Cd1A 1_555 1_555
O2A_2 Cd1A 1_555 1_555
N4_2 Cd1 1_555 1_555
N4A_2 Cd1A 1_555 1_555
O4 C20 1_555 1_555
N4 C21 1_555 1_555
C4 C11 1_555 1_555
C5 C22 1_555 1_555
C6 C23 1_555 1_555
C13 C21 1_555 1_555
C14 C17 1_555 1_555
C14 C19 1_555 1_555
C16 C19 1_555 1_555
C18 C24 1_555 1_555
O2A Cd1A_3 1_555 1_555
C5A C15A 1_555 1_555
O4A Cd1A 1_555 1_555
C7A C8A 1_555 1_555
N4A C21A 1_555 1_555
C4A C11A 1_555 1_555
C6A C23A 1_555 1_555
C13A C21A 1_555 1_555
C14A C17A 1_555 1_555
C14A C19A 1_555 1_555
C16A C19A 1_555 1_555
C18A C24A 1_555 1_555

#END
