
#######################################################################
#
#                 Cambridge Crystallographic Data Centre
#                                CCDC 
#
#######################################################################
#
# If this CIF has been generated from an entry in the Cambridge 
# Structural Database, then it will include bibliographic, chemical, 
# crystal, experimental, refinement or atomic coordinate data resulting 
# from the CCDC's data processing and validation procedures.
#
#######################################################################

data_POPDIJ
_symmetry_cell_setting           monoclinic
_symmetry_space_group_name_H-M   'C 2/c'
_symmetry_Int_Tables_number      15
_space_group_name_Hall           '-C 2yn'
loop_
_symmetry_equiv_pos_site_id
_symmetry_equiv_pos_as_xyz
1 x,y,z
2 -x,y,1/2-z
3 1/2+x,1/2+y,z
4 1/2-x,1/2+y,1/2-z
5 -x,-y,-z
6 x,-y,1/2+z
7 1/2-x,1/2-y,-z
8 1/2+x,1/2-y,1/2+z
_cell_length_a                   19.965(3)
_cell_length_b                   6.1120(10)
_cell_length_c                   19.828(3)
_cell_angle_alpha                90
_cell_angle_beta                 111.194(2)
_cell_angle_gamma                90
_cell_volume                     2255.88
loop_
_atom_site_label
_atom_site_type_symbol
_atom_site_fract_x
_atom_site_fract_y
_atom_site_fract_z
Nd1 Nd 0.137359(8) 1.18144(3) 0.469824(9)
S1 S 0.10879(6) 0.7643(2) 0.21905(6)
O1 O 0.23177(13) 0.3474(4) 0.43324(13)
O2 O 0.31745(13) 0.5230(4) 0.41076(14)
O3 O 0.19295(12) 0.8603(4) 0.42890(12)
O4 O 0.10797(14) 1.0398(4) 0.34369(13)
O5 O 0.04597(14) 1.2470(4) 0.52532(15)
O6 O -0.05159(13) 1.1271(4) 0.54421(14)
O7 O 0.05291(16) 1.4465(5) 0.38956(14)
H1 H 0.0387 1.5202 0.3506
H2 H 0.0220 1.4616 0.4095
O8 O 0.16447(13) 1.5279(4) 0.53562(13)
H3 H 0.1386 1.6424 0.5273
H4 H 0.2069 1.5682 0.5411
C1 C 0.25316(17) 0.4686(5) 0.39247(17)
C2 C 0.20062(17) 0.5422(5) 0.32055(17)
C3 C 0.19145(17) 0.4196(5) 0.25134(16)
H5 H 0.2143 0.2908 0.2470
C4 C 0.1423(3) 0.5373(8) 0.1960(2)
H6 H 0.1285 0.4925 0.1480
C5 C 0.15823(19) 0.7278(6) 0.30892(18)
C6 C 0.15279(17) 0.8843(6) 0.36301(18)
C7 C -0.00099(17) 1.1091(5) 0.52015(18)
O5D O -0.04597(14) 0.7530(4) 0.47468(15)
O6D O 0.05159(13) 0.8729(4) 0.45579(14)
C7D C 0.00099(17) 0.8909(5) 0.47985(18)
Nd1D Nd -0.137359(8) 0.81856(3) 0.530176(9)
S1D S -0.10879(6) 1.2357(2) 0.78095(6)
O1D O -0.23177(13) 1.6526(4) 0.56676(13)
O2D O -0.31745(13) 1.4770(4) 0.58924(14)
O3D O -0.19295(12) 1.1397(4) 0.57110(12)
O4D O -0.10797(14) 0.9602(4) 0.65631(13)
O7D O -0.05291(16) 0.5535(5) 0.61044(14)
H1D H -0.0387 0.4798 0.6494
H2D H -0.0220 0.5384 0.5905
O8D O -0.16447(13) 0.4721(4) 0.46438(13)
H3D H -0.1386 0.3576 0.4727
H4D H -0.2069 0.4318 0.4589
C1D C -0.25316(17) 1.5314(5) 0.60753(17)
C2D C -0.20062(17) 1.4578(5) 0.67945(17)
C3D C -0.19145(17) 1.5804(5) 0.74866(16)
H5D H -0.2143 1.7092 0.7530
C4D C -0.1423(3) 1.4627(8) 0.8040(2)
H6D H -0.1285 1.5075 0.8520
C5D C -0.15823(19) 1.2722(6) 0.69108(18)
C6D C -0.15279(17) 1.1157(6) 0.63699(18)
Nd1_2 Nd 0.137359(8) 0.18144(3) 0.469824(9)
Nd1B Nd -0.362641(8) 1.68144(3) 0.469824(9)
Nd1D_2 Nd -0.137359(8) 1.81856(3) 0.530176(9)
Nd1F Nd 0.362641(8) 0.31856(3) 0.530176(9)
O1_2 O 0.23177(13) 1.3474(4) 0.43324(13)
O1B O -0.26823(13) 0.8474(4) 0.43324(13)
O1D_2 O -0.23177(13) 0.6526(4) 0.56676(13)
O1F O 0.26823(13) 1.1526(4) 0.56676(13)
O2B O -0.18255(13) 1.0230(4) 0.41076(14)
O2F O 0.18255(13) 0.9770(4) 0.58924(14)
O9 O 1.0000 0.2939(7) 0.2500
H7 H 0.9640 0.2095 0.2329
H7A H 1.0360 0.2095 0.2671
loop_
_geom_bond_atom_site_label_1
_geom_bond_atom_site_label_2
_geom_bond_site_symmetry_1
_geom_bond_site_symmetry_2
Nd1 O3 1_555 1_555
S1 C4 1_555 1_555
O1 C1 1_555 1_555
O2 C1 1_555 1_555
O3 C6 1_555 1_555
O4 Nd1 1_555 1_555
O5 Nd1 1_555 1_555
O6 C7 1_555 1_555
O7 Nd1 1_555 1_555
H1 O7 1_555 1_555
H2 O7 1_555 1_555
O8 Nd1 1_555 1_555
H3 O8 1_555 1_555
H4 O8 1_555 1_555
C1 C2 1_555 1_555
C2 C3 1_555 1_555
C3 H5 1_555 1_555
C4 C3 1_555 1_555
H6 C4 1_555 1_555
C5 S1 1_555 1_555
C6 O4 1_555 1_555
C7 O5 1_555 1_555
O9 H7 1_555 1_555
O5D C7D 1_555 1_555
O6D Nd1 1_555 1_555
C7D C7 1_555 1_555
Nd1D O6 1_555 1_555
S1D C4D 1_555 1_555
O1D C1D 1_555 1_555
O2D C1D 1_555 1_555
O3D Nd1D 1_555 1_555
O4D Nd1D 1_555 1_555
O7D Nd1D 1_555 1_555
H1D O7D 1_555 1_555
H2D O7D 1_555 1_555
O8D Nd1D 1_555 1_555
H3D O8D 1_555 1_555
H4D O8D 1_555 1_555
C1D C2D 1_555 1_555
C2D C3D 1_555 1_555
C3D H5D 1_555 1_555
C4D C3D 1_555 1_555
H6D C4D 1_555 1_555
C5D S1D 1_555 1_555
C6D O3D 1_555 1_555
Nd1_2 O1 1_555 1_555
Nd1B O1D 1_555 1_555
Nd1D_2 O1D 1_555 1_555
Nd1F O1 1_555 1_555
O1_2 Nd1 1_555 1_555
O1B Nd1D 1_555 1_555
O1D_2 Nd1D 1_555 1_555
O1F Nd1 1_555 1_555
O2B Nd1D 1_555 1_555
O2F Nd1 1_555 1_555
H7A O9 1_555 1_555
O2 Nd1F 1_555 1_555
C2 C5 1_555 1_555
C5 C6 1_555 1_555
O5D Nd1D 1_555 1_555
O6D C7D 1_555 1_555
O2D Nd1B 1_555 1_555
O4D C6D 1_555 1_555
C2D C5D 1_555 1_555
C5D C6D 1_555 1_555

#END
