
#######################################################################
#
#                 Cambridge Crystallographic Data Centre
#                                CCDC 
#
#######################################################################
#
# If this CIF has been generated from an entry in the Cambridge 
# Structural Database, then it will include bibliographic, chemical, 
# crystal, experimental, refinement or atomic coordinate data resulting 
# from the CCDC's data processing and validation procedures.
#
#######################################################################

data_POPICR13
_symmetry_cell_setting           orthorhombic
_symmetry_space_group_name_H-M   'I b c a'
_symmetry_Int_Tables_number      73
_space_group_name_Hall           '-I 2b 2c'
loop_
_symmetry_equiv_pos_site_id
_symmetry_equiv_pos_as_xyz
1 x,y,z
2 -x,1/2-y,z
3 x,-y,1/2-z
4 -x,1/2+y,1/2-z
5 1/2+x,1/2+y,1/2+z
6 1/2-x,-y,1/2+z
7 1/2+x,1/2-y,-z
8 1/2-x,y,-z
9 -x,-y,-z
10 x,1/2+y,-z
11 -x,y,1/2+z
12 x,1/2-y,1/2+z
13 1/2-x,1/2-y,1/2-z
14 1/2+x,y,1/2-z
15 1/2-x,1/2+y,z
16 1/2+x,-y,z
_cell_length_a                   7.1350(10)
_cell_length_b                   13.3320(10)
_cell_length_c                   19.124(2)
_cell_angle_alpha                90
_cell_angle_beta                 90
_cell_angle_gamma                90
_cell_volume                     1819.15
loop_
_atom_site_label
_atom_site_type_symbol
_atom_site_fract_x
_atom_site_fract_y
_atom_site_fract_z
K1 K 0.2500 0.38298(3) 0.0000
O1 O 0.5000 0.2500 -0.05688(7)
O2 O 0.5841(2) 0.44550(8) -0.07190(6)
O3 O 0.75247(19) 0.47362(9) -0.16328(7)
O4 O 0.5711(2) 0.32116(10) -0.37756(6)
N1 N 0.63777(19) 0.42345(9) -0.13068(7)
N2 N 0.5000 0.2500 -0.34703(9)
C1 C 0.5000 0.2500 -0.12199(10)
C2 C 0.5630(2) 0.33360(10) -0.16467(8)
C3 C 0.5670(2) 0.33352(10) -0.23646(8)
H1 H 0.6136 0.3883 -0.2610
C4 C 0.5000 0.2500 -0.27154(10)
O4A O 0.4289(2) 0.17884(10) -0.37756(6)
C3A C 0.4330(2) 0.16648(10) -0.23646(8)
C2A C 0.4370(2) 0.16640(10) -0.16467(8)
N1A N 0.36223(19) 0.07655(9) -0.13068(7)
O2A O 0.4159(2) 0.05450(8) -0.07190(6)
O3A O 0.24753(19) 0.02638(9) -0.16328(7)
H1A H 0.3864 0.1117 -0.2610
O1F O 0.0000 0.2500 0.05688(7)
O2G O -0.0841(2) 0.44550(8) 0.07190(6)
O2H O 0.4159(2) 0.55450(8) 0.07190(6)
O2O O 0.0841(2) 0.55450(8) -0.07190(6)
O4J O 0.4289(2) 0.32116(10) 0.12244(6)
O4M O 0.0711(2) 0.32116(10) -0.12244(6)
K1A K 0.7500 0.11702(3) 0.0000
K1H K 0.7500 0.61702(3) 0.0000
K1J K 0.7500 0.38298(3) -0.5000
K1K K 0.2500 0.11702(3) -0.5000
K1I K 0.2500 -0.11702(3) 0.0000
loop_
_geom_bond_atom_site_label_1
_geom_bond_atom_site_label_2
_geom_bond_site_symmetry_1
_geom_bond_site_symmetry_2
K1 O1 1_555 1_555
O1 C1 1_555 1_555
O2 K1 1_555 1_555
O3 N1 1_555 1_555
O4 N2 1_555 1_555
N1 O2 1_555 1_555
N2 C4 1_555 1_555
C1 C2 1_555 1_555
C2 N1 1_555 1_555
C3 C2 1_555 1_555
H1 C3 1_555 1_555
C4 C3 1_555 1_555
O4A N2 1_555 1_555
C3A C4 1_555 1_555
C2A C1 1_555 1_555
N1A C2A 1_555 1_555
O2A N1A 1_555 1_555
O3A N1A 1_555 1_555
H1A C3A 1_555 1_555
O1F K1 1_555 1_555
O2G K1 1_555 1_555
O2H K1 1_555 1_555
O2O K1 1_555 1_555
O4J K1 1_555 1_555
O4M K1 1_555 1_555
K1A O1 1_555 1_555
K1H O2 1_555 1_555
K1J O4 1_555 1_555
K1K O4A 1_555 1_555
K1I O2A 1_555 1_555
C3A C2A 1_555 1_555
O2A K1A 1_555 1_555
O2H K1H 1_555 1_555

#END
