
#######################################################################
#
#                 Cambridge Crystallographic Data Centre
#                                CCDC 
#
#######################################################################
#
# If this CIF has been generated from an entry in the Cambridge 
# Structural Database, then it will include bibliographic, chemical, 
# crystal, experimental, refinement or atomic coordinate data resulting 
# from the CCDC's data processing and validation procedures.
#
#######################################################################

data_POPPUH
_symmetry_cell_setting           triclinic
_symmetry_space_group_name_H-M   'P -1'
_symmetry_Int_Tables_number      2
_space_group_name_Hall           '-P 1'
loop_
_symmetry_equiv_pos_site_id
_symmetry_equiv_pos_as_xyz
1 x,y,z
2 -x,-y,-z
_cell_length_a                   11.378(5)
_cell_length_b                   14.319(5)
_cell_length_c                   23.323(5)
_cell_angle_alpha                82.037(5)
_cell_angle_beta                 79.189(5)
_cell_angle_gamma                68.015(5)
_cell_volume                     3451.22
loop_
_atom_site_label
_atom_site_type_symbol
_atom_site_fract_x
_atom_site_fract_y
_atom_site_fract_z
Sn1 Sn 0.58450(3) 0.89469(2) 0.945648(12)
Sn2 Sn 0.57663(3) 0.56537(2) 0.541780(13)
P1 P 1.07265(11) 0.50603(8) 0.73831(5)
P2 P 1.06117(11) 0.31741(8) 0.77266(5)
P3 P 1.29306(11) 0.34004(8) 0.73109(5)
O1 O 0.9900(3) 0.2708(2) 0.73847(12)
O2 O 1.0692(3) 0.5760(2) 0.78725(13)
O3 O 1.3834(3) 0.3271(2) 0.77831(13)
O4 O 0.9979(3) 0.5934(2) 0.69384(13)
O5 O 1.3910(3) 0.2989(2) 0.67455(13)
O6 O 0.4304(3) 0.5893(2) 0.48761(14)
O7 O 0.4025(3) 0.9818(2) 0.99671(13)
O8 O 1.0276(3) 0.2816(2) 0.83921(13)
O9 O -0.0893(3) 0.8699(2) 1.05608(14)
O10 O 0.4962(3) 0.7242(2) 0.53803(14)
O11 O 0.5609(4) 0.8889(3) 0.5456(2)
N1 N 0.7251(4) 0.5867(3) 0.60034(16)
O12 O 0.0187(4) 1.0041(3) 0.42029(17)
O13 O -0.0481(3) 0.7449(3) 1.00271(16)
N2 N 0.9924(3) 0.4360(3) 0.76222(16)
N3 N 0.7538(4) 0.7792(3) 0.88157(16)
O14 O 0.2134(3) 1.0290(2) 1.05040(13)
N4 N 1.2181(3) 0.4558(3) 0.71236(16)
O15 O 0.2705(3) 0.6531(2) 0.43665(15)
O16 O 0.4640(3) 0.8231(2) 0.92634(13)
N5 N 1.2106(4) 0.2722(3) 0.75619(16)
N6 N 0.3781(4) 0.6869(3) 0.88808(19)
C1 C 0.9188(4) 0.1515(3) 0.80605(19)
O17 O 0.3293(4) 0.6775(3) 0.84727(16)
N7 N 0.4453(5) 0.9228(3) 0.5562(2)
C2 C 0.2988(4) 0.7610(3) 0.93022(19)
O18 O 0.4901(3) 0.6361(3) 0.89502(18)
N8 N 0.0925(4) 1.0271(3) 0.44242(18)
C3 C 0.1410(4) 0.8905(3) 1.01123(19)
H1 H 0.0866 0.9343 1.0390
C4 C 0.2607(4) 0.8958(3) 0.98952(18)
O19 O 0.0839(4) 1.1146(3) 0.4443(2)
N9 N -0.0206(4) 0.8118(3) 1.01899(17)
C5 C 1.4985(4) 0.2090(3) 0.67932(19)
O20 O 0.3818(5) 0.9821(3) 0.5944(2)
C6 C 0.9906(4) 0.1720(3) 0.75320(19)
C7 C 0.1012(4) 0.8211(3) 0.99225(19)
C8 C 0.3489(4) 0.8274(3) 0.94855(18)
C9 C 0.2232(4) 0.8483(4) 0.4572(2)
H2 H 0.1722 0.8333 0.4358
C10 C 0.4027(4) 0.7902(3) 0.51327(19)
C11 C 0.7182(5) 0.2438(4) 0.8722(2)
H3 H 0.6800 0.2009 0.8640
C12 C 0.9767(4) 0.7169(3) 0.84255(19)
H4 H 1.0568 0.7225 0.8383
C13 C 0.7140(5) 0.6684(4) 0.6253(2)
H5 H 0.6419 0.7260 0.6210
C14 C 0.9597(4) 0.6417(3) 0.81678(18)
C15 C 0.2702(5) 0.9718(4) 0.5000(2)
H6 H 0.2517 1.0385 0.5072
C16 C 0.8440(4) 0.2307(3) 0.84691(19)
C17 C 1.6004(4) 0.2109(3) 0.70319(19)
C18 C 1.4874(4) 0.3602(3) 0.76349(19)
C19 C 0.3256(5) 0.7699(3) 0.47922(19)
C20 C 0.7373(5) 0.6200(4) 1.0689(2)
H7 H 0.8006 0.6387 1.0824
H8 H 0.6610 0.6375 1.0980
C21 C 1.4997(5) 0.1240(4) 0.6564(2)
H9 H 1.4296 0.1254 0.6407
C22 C 0.2909(4) 0.9741(3) 1.01403(18)
C23 C 0.9083(4) 0.5884(3) 0.66198(19)
C24 C 0.7393(5) 0.7057(4) 0.8562(2)
H10 H 0.6583 0.7018 0.8607
C25 C 0.8011(5) 0.6737(4) 0.6567(2)
H11 H 0.7885 0.7323 0.6738
C26 C 0.3693(5) 0.8951(3) 0.5214(2)
C27 C 0.1800(4) 0.7565(3) 0.9509(2)
H12 H 0.1532 0.7109 0.9373
C28 C 0.8299(5) 0.3723(4) 0.8982(2)
H13 H 0.8674 0.4158 0.9062
C29 C 0.9818(5) -0.0187(4) 0.7764(2)
H14 H 0.9806 -0.0838 0.7845
C30 C 0.8301(5) 0.5054(4) 0.6058(2)
H15 H 0.8394 0.4475 0.5887
C31 C 0.8713(5) 0.7827(3) 0.87446(19)
H16 H 0.8826 0.8326 0.8921
C32 C 0.8414(4) 0.6354(4) 0.8235(2)
H17 H 0.8288 0.5854 0.8067
C33 C 0.8989(4) 0.2958(4) 0.86129(19)
C34 C 1.7011(4) 0.3338(3) 0.71750(19)
H18 H 1.7753 0.2973 0.6939
C35 C 1.5865(4) 0.4741(3) 0.77701(19)
H19 H 1.5838 0.5308 0.7932
C36 C 0.4808(5) 0.5294(4) 0.6245(2)
H20 H 0.4362 0.4862 0.6188
H21 H 0.5446 0.4912 0.6495
C37 C 1.4794(4) 0.4444(3) 0.78799(19)
H22 H 1.4048 0.4811 0.8113
C38 C 1.6084(5) 0.0367(3) 0.6574(2)
H23 H 1.6117 -0.0209 0.6420
C39 C 1.0533(5) 0.1013(3) 0.7130(2)
H24 H 1.0990 0.1176 0.6782
C40 C 1.6973(5) 0.4178(3) 0.74157(19)
H25 H 1.7686 0.4370 0.7342
C41 C 0.1972(4) 0.9465(3) 0.4668(2)
C42 C 1.5965(4) 0.3021(3) 0.72769(18)
C43 C 0.9160(5) 0.0538(4) 0.8167(2)
H26 H 0.8697 0.0369 0.8512
C44 C 0.7072(5) 0.3837(4) 0.9226(2)
H27 H 0.6618 0.4339 0.9482
C45 C 1.7104(5) 0.0353(4) 0.6809(2)
H28 H 1.7817 -0.0240 0.6819
C46 C 0.7513(5) 0.6445(4) 0.4418(2)
H29 H 0.7924 0.6331 0.4017
H30 H 0.6693 0.6991 0.4405
C47 C 0.3401(5) 0.6666(3) 0.4660(2)
C48 C 0.7267(5) 0.5490(4) 0.4695(2)
H31 H 0.8055 0.5016 0.4823
H32 H 0.7081 0.5186 0.4393
C49 C 0.7046(5) 0.6801(3) 1.0113(2)
H33 H 0.6439 0.6598 0.9968
H34 H 0.7816 0.6656 0.9826
C50 C 1.7098(5) 0.1210(4) 0.7036(2)
H35 H 1.7807 0.1190 0.7188
C51 C 0.9263(5) 0.5026(4) 0.6354(2)
H36 H 0.9999 0.4453 0.6374
C52 C 0.7893(7) 0.5066(4) 1.0637(3)
H37 H 0.7286 0.4881 1.0488
H38 H 0.8033 0.4722 1.1016
H39 H 0.8689 0.4881 1.0375
C53 C 0.6490(5) 0.3201(4) 0.9094(2)
H40 H 0.5647 0.3290 0.9255
C54 C 0.2581(5) 0.6690(4) 0.6315(2)
H41 H 0.2755 0.6884 0.5901
H42 H 0.2167 0.6198 0.6351
C55 C 0.6469(4) 0.7937(3) 1.01903(19)
H43 H 0.7102 0.8121 1.0327
H44 H 0.5742 0.8053 1.0500
C56 C 0.5708(5) 1.0034(4) 0.87266(19)
H45 H 0.5328 1.0703 0.8870
H46 H 0.6567 0.9955 0.8530
C57 C 0.8320(6) 0.6784(4) 0.4717(2)
H47 H 0.9060 0.6205 0.4811
H48 H 0.7828 0.7059 0.5082
C58 C 0.3850(5) 0.6199(4) 0.6558(2)
H49 H 0.4240 0.6702 0.6537
H50 H 0.3672 0.5986 0.6968
C59 C 1.0480(5) 0.0056(4) 0.7249(2)
H51 H 1.0896 -0.0426 0.6977
C60 C 0.8781(7) 0.7591(4) 0.4340(3)
H52 H 0.9353 0.7298 0.4000
H53 H 0.9219 0.7832 0.4565
H54 H 0.8056 0.8143 0.4220
C61 C 0.1683(7) 0.7607(5) 0.6624(3)
H55 H 0.1474 0.7413 0.7030
H56 H 0.0913 0.7896 0.6449
H57 H 0.2088 0.8095 0.6590
C62 C 0.4934(8) 0.9967(6) 0.8285(3)
H58 H 0.5153 1.0321 0.7920
H59 H 0.5179 0.9263 0.8213
C63 C 0.3591(8) 1.0369(6) 0.8452(4)
H60 H 0.3282 1.1101 0.8428
H61 H 0.3352 1.0126 0.8849
C64 C 0.2988(13) 0.9963(10) 0.7975(6)
H62 H 0.3668 0.9455 0.7756
H63 H 0.2581 1.0519 0.7712
H64 H 0.2371 0.9682 0.8184
Sn1A Sn 0.41550(3) 1.10531(2) 1.054352(12)
Sn2A Sn 0.42337(3) 0.43463(2) 0.458220(13)
O6A O 0.5696(3) 0.4107(2) 0.51239(14)
O7A O 0.5975(3) 1.0182(2) 1.00329(13)
loop_
_geom_bond_atom_site_label_1
_geom_bond_atom_site_label_2
_geom_bond_site_symmetry_1
_geom_bond_site_symmetry_2
Sn1 O7 1_555 1_555
Sn2 O6 1_555 1_555
P1 O2 1_555 1_555
P2 O1 1_555 1_555
P3 O3 1_555 1_555
O1 C6 1_555 1_555
O2 C14 1_555 1_555
O3 C18 1_555 1_555
O4 P1 1_555 1_555
O5 P3 1_555 1_555
O6 C47 1_555 1_555
O7 C22 1_555 1_555
O8 P2 1_555 1_555
O9 N9 1_555 1_555
O10 Sn2 1_555 1_555
O11 N7 1_555 1_555
N1 Sn2 1_555 1_555
O12 N8 1_555 1_555
O13 N9 1_555 1_555
N2 P1 1_555 1_555
N3 Sn1 1_555 1_555
O14 C22 1_555 1_555
N4 P1 1_555 1_555
O15 C47 1_555 1_555
O16 Sn1 1_555 1_555
N5 P2 1_555 1_555
N6 O17 1_555 1_555
C1 C6 1_555 1_555
N7 O20 1_555 1_555
C2 N6 1_555 1_555
O18 N6 1_555 1_555
N8 O19 1_555 1_555
C3 H1 1_555 1_555
C4 C3 1_555 1_555
N9 C7 1_555 1_555
C5 O5 1_555 1_555
C6 C39 1_555 1_555
C7 C3 1_555 1_555
C8 O16 1_555 1_555
C9 H2 1_555 1_555
C10 O10 1_555 1_555
C11 H3 1_555 1_555
C12 H4 1_555 1_555
C13 N1 1_555 1_555
H5 C13 1_555 1_555
C14 C12 1_555 1_555
C15 H6 1_555 1_555
C16 C1 1_555 1_555
C17 C5 1_555 1_555
C18 C37 1_555 1_555
C19 C9 1_555 1_555
C20 H7 1_555 1_555
H8 C20 1_555 1_555
C21 C5 1_555 1_555
H9 C21 1_555 1_555
C22 C4 1_555 1_555
C23 O4 1_555 1_555
C24 N3 1_555 1_555
H10 C24 1_555 1_555
C25 C13 1_555 1_555
H11 C25 1_555 1_555
C26 N7 1_555 1_555
C27 C2 1_555 1_555
H12 C27 1_555 1_555
C28 H13 1_555 1_555
C29 H14 1_555 1_555
C30 N1 1_555 1_555
H15 C30 1_555 1_555
C31 N3 1_555 1_555
H16 C31 1_555 1_555
C32 C14 1_555 1_555
H17 C32 1_555 1_555
C33 O8 1_555 1_555
C34 H18 1_555 1_555
C35 H19 1_555 1_555
C36 Sn2 1_555 1_555
H20 C36 1_555 1_555
H21 C36 1_555 1_555
C37 C35 1_555 1_555
H22 C37 1_555 1_555
C38 C21 1_555 1_555
H23 C38 1_555 1_555
C39 H24 1_555 1_555
C40 C34 1_555 1_555
H25 C40 1_555 1_555
C41 N8 1_555 1_555
C42 C17 1_555 1_555
C43 C1 1_555 1_555
H26 C43 1_555 1_555
C44 C28 1_555 1_555
H27 C44 1_555 1_555
C45 C38 1_555 1_555
H28 C45 1_555 1_555
C46 H29 1_555 1_555
H30 C46 1_555 1_555
C47 C19 1_555 1_555
C48 Sn2 1_555 1_555
H31 C48 1_555 1_555
H32 C48 1_555 1_555
C49 C20 1_555 1_555
H33 C49 1_555 1_555
H34 C49 1_555 1_555
C50 C17 1_555 1_555
H35 C50 1_555 1_555
C51 C23 1_555 1_555
H36 C51 1_555 1_555
C52 C20 1_555 1_555
H37 C52 1_555 1_555
H38 C52 1_555 1_555
H39 C52 1_555 1_555
C53 C11 1_555 1_555
H40 C53 1_555 1_555
C54 H41 1_555 1_555
H42 C54 1_555 1_555
C55 Sn1 1_555 1_555
H43 C55 1_555 1_555
H44 C55 1_555 1_555
C56 Sn1 1_555 1_555
H45 C56 1_555 1_555
H46 C56 1_555 1_555
C57 C46 1_555 1_555
H47 C57 1_555 1_555
H48 C57 1_555 1_555
C58 C36 1_555 1_555
H49 C58 1_555 1_555
H50 C58 1_555 1_555
C59 C29 1_555 1_555
H51 C59 1_555 1_555
C60 C57 1_555 1_555
H52 C60 1_555 1_555
H53 C60 1_555 1_555
H54 C60 1_555 1_555
C61 C54 1_555 1_555
H55 C61 1_555 1_555
H56 C61 1_555 1_555
H57 C61 1_555 1_555
C62 C56 1_555 1_555
H58 C62 1_555 1_555
H59 C62 1_555 1_555
C63 C62 1_555 1_555
H60 C63 1_555 1_555
H61 C63 1_555 1_555
C64 C63 1_555 1_555
H62 C64 1_555 1_555
H63 C64 1_555 1_555
H64 C64 1_555 1_555
Sn1A O7 1_555 1_555
Sn2A O6 1_555 1_555
O6A Sn2 1_555 1_555
O7A Sn1 1_555 1_555
P2 N2 1_555 1_555
P3 N4 1_555 1_555
P3 N5 1_555 1_555
C2 C8 1_555 1_555
C4 C8 1_555 1_555
C7 C27 1_555 1_555
C9 C41 1_555 1_555
C10 C19 1_555 1_555
C10 C26 1_555 1_555
C11 C16 1_555 1_555
C12 C31 1_555 1_555
C15 C26 1_555 1_555
C15 C41 1_555 1_555
C16 C33 1_555 1_555
C18 C42 1_555 1_555
C23 C25 1_555 1_555
C24 C32 1_555 1_555
C28 C33 1_555 1_555
C29 C43 1_555 1_555
C30 C51 1_555 1_555
C34 C42 1_555 1_555
C35 C40 1_555 1_555
C39 C59 1_555 1_555
C44 C53 1_555 1_555
C45 C50 1_555 1_555
C46 C48 1_555 1_555
C49 C55 1_555 1_555
C54 C58 1_555 1_555
Sn1A O7A 1_555 1_555
Sn2A O6A 1_555 1_555

#END
