
#######################################################################
#
#                 Cambridge Crystallographic Data Centre
#                                CCDC 
#
#######################################################################
#
# If this CIF has been generated from an entry in the Cambridge 
# Structural Database, then it will include bibliographic, chemical, 
# crystal, experimental, refinement or atomic coordinate data resulting 
# from the CCDC's data processing and validation procedures.
#
#######################################################################

data_POPVOF
_symmetry_cell_setting           monoclinic
_symmetry_space_group_name_H-M   'P 21/n'
_symmetry_Int_Tables_number      14
_space_group_name_Hall           '-P 2yn'
loop_
_symmetry_equiv_pos_site_id
_symmetry_equiv_pos_as_xyz
1 x,y,z
2 1/2-x,1/2+y,1/2-z
3 -x,-y,-z
4 1/2+x,1/2-y,1/2+z
_cell_length_a                   12.531
_cell_length_b                   11.0230
_cell_length_c                   15.333
_cell_angle_alpha                90
_cell_angle_beta                 113.322
_cell_angle_gamma                90
_cell_volume                     1944.89
loop_
_atom_site_label
_atom_site_type_symbol
_atom_site_fract_x
_atom_site_fract_y
_atom_site_fract_z
Fe1 Fe 0.5000 0.5000 0.5000
Fe2 Fe 0.60144(11) 0.18807(12) 0.24683(8)
O1 O 0.3972(5) 0.1560(5) 0.3762(4)
O2 O 0.5245(5) 0.0024(5) 0.4291(4)
O3 O 0.5626(5) 0.4245(5) 0.4172(4)
O4 O 0.6825(5) 0.2797(5) 0.5043(4)
N1 N 0.3614(6) 0.5457(7) 0.3802(5)
N2 N 0.5899(6) 0.6496(6) 0.4995(5)
C1 C 0.4679(8) 0.0836(8) 0.3678(6)
C2 C 0.6381(7) 0.3407(8) 0.4301(6)
C3 C 0.2924(7) 0.4339(8) 0.3484(6)
C4 C 0.3870(8) 0.6069(9) 0.3044(6)
C5 C 0.4573(9) 0.7199(9) 0.3388(6)
C6 C 0.5846(8) 0.6972(9) 0.4067(7)
C7 C 0.2858(7) 0.3725(8) 0.4329(6)
C8 C 0.4880(7) 0.0812(7) 0.2774(6)
C9 C 0.4287(8) 0.1568(8) 0.1974(6)
C10 C 0.4731(10) 0.1188(10) 0.1272(6)
C11 C 0.5620(10) 0.0322(9) 0.1662(7)
C12 C 0.5690(8) 0.0076(8) 0.2590(6)
C13 C 0.6698(7) 0.3163(7) 0.3498(5)
C14 C 0.6235(8) 0.3720(8) 0.2585(6)
C15 C 0.6818(10) 0.3218(9) 0.2046(7)
C16 C 0.7644(9) 0.2339(10) 0.2603(7)
C17 C 0.7600(7) 0.2338(9) 0.3495(7)
H1 H 0.206 0.456 0.295
H2 H 0.335 0.375 0.314
H3 H 0.437 0.545 0.279
H4 H 0.306 0.628 0.244
H5 H 0.454 0.773 0.277
H6 H 0.416 0.774 0.376
H7 H 0.635 0.781 0.417
H8 H 0.623 0.630 0.374
H9 H 0.237 0.288 0.413
H10 H 0.242 0.431 0.466
H11 H 0.363 0.228 0.190
H12 H 0.444 0.155 0.054
H13 H 0.616 -0.009 0.132
H14 H 0.628 -0.059 0.308
H15 H 0.556 0.444 0.235
H16 H 0.664 0.343 0.130
H17 H 0.820 0.178 0.236
H18 H 0.818 0.179 0.411
H19 H 0.500 0.00000 0.500
H20 H 0.314(6) 0.604(6) 0.400(5)
H21 H 0.554(7) 0.710(7) 0.525(6)
O2B O 0.4755(5) -0.0024(5) 0.5709(4)
N2B N 0.4101(6) 0.3504(6) 0.5005(5)
C6B C 0.4154(8) 0.3028(9) 0.5933(7)
C5B C 0.5427(9) 0.2801(9) 0.6612(6)
C4B C 0.6130(8) 0.3931(9) 0.6956(6)
N1B N 0.6386(6) 0.4543(7) 0.6198(5)
C3B C 0.7076(7) 0.5661(8) 0.6516(6)
C7B C 0.7142(7) 0.6275(8) 0.5671(6)
H9B H 0.763 0.712 0.587
H10B H 0.758 0.569 0.534
H1B H 0.794 0.544 0.705
H2B H 0.665 0.625 0.686
H20B H 0.686(6) 0.396(6) 0.600(5)
H3B H 0.563 0.455 0.721
H4B H 0.694 0.372 0.756
H5B H 0.546 0.227 0.723
H6B H 0.584 0.226 0.624
H7B H 0.365 0.219 0.583
H8B H 0.377 0.370 0.626
H21B H 0.446(7) 0.290(7) 0.475(6)
O3B O 0.4374(5) 0.5755(5) 0.5828(4)
O4B O 0.3175(5) 0.7203(5) 0.4957(4)
C2B C 0.3619(7) 0.6593(8) 0.5699(6)
C13B C 0.3302(7) 0.6837(7) 0.6502(5)
C14B C 0.3765(8) 0.6280(8) 0.7415(6)
C15B C 0.3182(10) 0.6782(9) 0.7954(7)
C16B C 0.2356(9) 0.7661(10) 0.7397(7)
C17B C 0.2400(7) 0.7662(9) 0.6505(7)
H15B H 0.444 0.556 0.765
H16B H 0.336 0.657 0.870
H17B H 0.180 0.822 0.764
H18B H 0.182 0.821 0.589
Fe2B Fe 0.39856(11) 0.81193(12) 0.75317(8)
O1B O 0.6028(5) 0.8440(5) 0.6238(4)
O2B_2 O 0.4755(5) 0.9976(5) 0.5709(4)
C1B C 0.5321(8) 0.9164(8) 0.6322(6)
C8B C 0.5120(7) 0.9188(7) 0.7226(6)
C9B C 0.5713(8) 0.8432(8) 0.8026(6)
C10B C 0.5269(10) 0.8812(10) 0.8728(6)
C11B C 0.4380(10) 0.9678(9) 0.8338(7)
C12B C 0.4310(8) 0.9924(8) 0.7410(6)
H11B H 0.637 0.772 0.810
H12B H 0.556 0.845 0.946
H13B H 0.384 1.009 0.868
H14B H 0.372 1.059 0.692
H19B H 0.500 1.00000 0.500
C18 C 0.3689(21) 0.5545(20) 0.0630(11)
O5 O 0.4467(14) 0.6259(17) 0.0722(13)
C19 C 0.3001(16) 0.4710(19) 0.0571(14)
loop_
_geom_bond_atom_site_label_1
_geom_bond_atom_site_label_2
_geom_bond_site_symmetry_1
_geom_bond_site_symmetry_2
Fe1 O3 1_555 1_555
Fe2 C8 1_555 1_555
O1 C1 1_555 1_555
O2 C1 1_555 1_555
O3 C2 1_555 1_555
O4 C2 1_555 1_555
N1 Fe1 1_555 1_555
N2 Fe1 1_555 1_555
C1 C8 1_555 1_555
C2 C13 1_555 1_555
C3 N1 1_555 1_555
C4 N1 1_555 1_555
C5 C4 1_555 1_555
C6 N2 1_555 1_555
C7 C3 1_555 1_555
C8 C9 1_555 1_555
C9 Fe2 1_555 1_555
C10 Fe2 1_555 1_555
C11 Fe2 1_555 1_555
C12 Fe2 1_555 1_555
C13 Fe2 1_555 1_555
C14 Fe2 1_555 1_555
C15 Fe2 1_555 1_555
C16 Fe2 1_555 1_555
C17 Fe2 1_555 1_555
H1 C3 1_555 1_555
H2 C3 1_555 1_555
H3 C4 1_555 1_555
H4 C4 1_555 1_555
H5 C5 1_555 1_555
H6 C5 1_555 1_555
H7 C6 1_555 1_555
H8 C6 1_555 1_555
H9 C7 1_555 1_555
H10 C7 1_555 1_555
H11 C9 1_555 1_555
H12 C10 1_555 1_555
H13 C11 1_555 1_555
H14 C12 1_555 1_555
H15 C14 1_555 1_555
H16 C15 1_555 1_555
H17 C16 1_555 1_555
H18 C17 1_555 1_555
H19 O2 1_555 1_555
H20 N1 1_555 1_555
H21 N2 1_555 1_555
C18 O5 1_555 1_555
C19 C18 1_555 1_555
O2B H19 1_555 1_555
N2B Fe1 1_555 1_555
C6B N2B 1_555 1_555
C5B C6B 1_555 1_555
C4B C5B 1_555 1_555
N1B Fe1 1_555 1_555
C3B N1B 1_555 1_555
C7B N2 1_555 1_555
H9B C7B 1_555 1_555
H10B C7B 1_555 1_555
H1B C3B 1_555 1_555
H2B C3B 1_555 1_555
H20B N1B 1_555 1_555
H3B C4B 1_555 1_555
H4B C4B 1_555 1_555
H5B C5B 1_555 1_555
H6B C5B 1_555 1_555
H7B C6B 1_555 1_555
H8B C6B 1_555 1_555
H21B N2B 1_555 1_555
O3B Fe1 1_555 1_555
O4B C2B 1_555 1_555
C2B O3B 1_555 1_555
C13B C2B 1_555 1_555
C14B C13B 1_555 1_555
C15B C14B 1_555 1_555
C16B C15B 1_555 1_555
C17B C13B 1_555 1_555
H15B C14B 1_555 1_555
H16B C15B 1_555 1_555
H17B C16B 1_555 1_555
H18B C17B 1_555 1_555
Fe2B C13B 1_555 1_555
O1B C1B 1_555 1_555
O2B_2 C1B 1_555 1_555
C1B C8B 1_555 1_555
C8B Fe2B 1_555 1_555
C9B Fe2B 1_555 1_555
C10B Fe2B 1_555 1_555
C11B Fe2B 1_555 1_555
C12B Fe2B 1_555 1_555
H11B C9B 1_555 1_555
H12B C10B 1_555 1_555
H13B C11B 1_555 1_555
H14B C12B 1_555 1_555
H19B O2B_2 1_555 1_555
C5 C6 1_555 1_555
C7 N2B 1_555 1_555
C8 C12 1_555 1_555
C9 C10 1_555 1_555
C10 C11 1_555 1_555
C11 C12 1_555 1_555
C13 C14 1_555 1_555
C13 C17 1_555 1_555
C14 C15 1_555 1_555
C15 C16 1_555 1_555
C16 C17 1_555 1_555
C4B N1B 1_555 1_555
C3B C7B 1_555 1_555
C14B Fe2B 1_555 1_555
C15B Fe2B 1_555 1_555
C16B C17B 1_555 1_555
C16B Fe2B 1_555 1_555
C17B Fe2B 1_555 1_555
C8B C9B 1_555 1_555
C8B C12B 1_555 1_555
C9B C10B 1_555 1_555
C10B C11B 1_555 1_555
C11B C12B 1_555 1_555

#END
