
#######################################################################
#
#                 Cambridge Crystallographic Data Centre
#                                CCDC 
#
#######################################################################
#
# If this CIF has been generated from an entry in the Cambridge 
# Structural Database, then it will include bibliographic, chemical, 
# crystal, experimental, refinement or atomic coordinate data resulting 
# from the CCDC's data processing and validation procedures.
#
#######################################################################

data_POQBEE
_symmetry_cell_setting           monoclinic
_symmetry_space_group_name_H-M   'P 2/n'
_symmetry_Int_Tables_number      13
_space_group_name_Hall           '-P 2yac'
loop_
_symmetry_equiv_pos_site_id
_symmetry_equiv_pos_as_xyz
1 x,y,z
2 1/2-x,y,1/2-z
3 -x,-y,-z
4 1/2+x,-y,1/2+z
_cell_length_a                   7.4144(6)
_cell_length_b                   10.0591(8)
_cell_length_c                   26.668(2)
_cell_angle_alpha                90
_cell_angle_beta                 93.175(3)
_cell_angle_gamma                90
_cell_volume                     1985.9
loop_
_atom_site_label
_atom_site_type_symbol
_atom_site_fract_x
_atom_site_fract_y
_atom_site_fract_z
C1 C 0.4410(4) 0.8497(2) 0.16704(10)
H1 H 0.4127 0.9228 0.1468
C2 C 0.5170(3) 0.7389(2) 0.14522(9)
H2 H 0.5404 0.7389 0.1113
C3 C 0.5573(3) 0.6284(2) 0.17492(9)
C4 C 0.5277(4) 0.6363(2) 0.22614(10)
H3 H 0.5565 0.5651 0.2473
C5 C 0.4550(4) 0.7515(3) 0.24489(10)
H4 H 0.4389 0.7566 0.2792
C6 C 0.7763(3) 0.5079(2) 0.12477(9)
C7 C 0.8961(3) 0.6142(2) 0.12618(9)
H5 H 0.8752 0.6875 0.1463
C8 C 1.0471(3) 0.6113(2) 0.09758(9)
H6 H 1.1251 0.6838 0.0982
C9 C 1.0835(3) 0.5010(2) 0.06792(9)
C10 C 0.9601(3) 0.3961(2) 0.06578(9)
H7 H 0.9810 0.3231 0.0455
C11 C 0.8067(3) 0.3989(2) 0.09337(9)
H8 H 0.7245 0.3290 0.0911
C12 C 1.2490(3) 0.4978(3) 0.04024(9)
C13 C 1.4978(3) 0.5646(3) 0.00892(9)
C14 C 0.2780(3) 0.2685(2) 0.19054(10)
H9 H 0.1529 0.2649 0.1913
C15 C 0.3557(3) 0.3826(2) 0.17312(10)
H10 H 0.2839 0.4546 0.1630
C16 C 0.5441(3) 0.3894(2) 0.17083(9)
C17 C 0.6444(3) 0.2773(2) 0.18518(10)
H11 H 0.7692 0.2762 0.1830
C18 C 0.5549(3) 0.1676(2) 0.20275(10)
H12 H 0.6232 0.0935 0.2125
N1 N 0.4063(3) 0.8567(2) 0.21590(8)
N2 N 0.6239(3) 0.50855(18) 0.15506(9)
N3 N 1.3563(3) 0.6000(2) 0.03653(8)
N4 N 0.3746(3) 0.16168(19) 0.20656(9)
N5 N -0.0139(5) 1.0079(3) 0.15495(16)
O1 O 0.0026(3) 1.0410(3) 0.19921(9)
O2 O 0.0479(5) 0.9030(3) 0.14025(13)
S1 S 1.31662(9) 0.35083(7) 0.01085(3)
Zn1 Zn 0.2500 1.01065(4) 0.2500
O3 O -0.0923(12) 1.0828(7) 0.1255(2)
C1B C 2.5590(4) 0.1503(2) -0.16704(10)
H1B H 2.5873 0.0772 -0.1468
C2B C 2.4830(3) 0.2611(2) -0.14522(9)
H2B H 2.4596 0.2611 -0.1113
C3B C 2.4427(3) 0.3716(2) -0.17492(9)
C4B C 2.4723(4) 0.3637(2) -0.22614(10)
H3B H 2.4435 0.4349 -0.2473
C5B C 2.5450(4) 0.2485(3) -0.24489(10)
H4B H 2.5611 0.2434 -0.2792
C6B C 2.2237(3) 0.4921(2) -0.12477(9)
C7B C 2.1039(3) 0.3858(2) -0.12618(9)
H5B H 2.1248 0.3125 -0.1463
C8B C 1.9529(3) 0.3887(2) -0.09758(9)
H6B H 1.8749 0.3162 -0.0982
C9B C 1.9165(3) 0.4990(2) -0.06792(9)
C10B C 2.0399(3) 0.6039(2) -0.06578(9)
H7B H 2.0190 0.6769 -0.0455
C11B C 2.1933(3) 0.6011(2) -0.09337(9)
H8B H 2.2755 0.6710 -0.0911
C12B C 1.7510(3) 0.5022(3) -0.04024(9)
C13B C 1.5022(3) 0.4354(3) -0.00892(9)
C14B C 2.7220(3) 0.7315(2) -0.19054(10)
H9B H 2.8471 0.7351 -0.1913
C15B C 2.6443(3) 0.6174(2) -0.17312(10)
H10B H 2.7161 0.5454 -0.1630
C16B C 2.4559(3) 0.6106(2) -0.17083(9)
C17B C 2.3556(3) 0.7227(2) -0.18518(10)
H11B H 2.2308 0.7238 -0.1830
C18B C 2.4451(3) 0.8324(2) -0.20275(10)
H12B H 2.3768 0.9065 -0.2125
N1B N 2.5937(3) 0.1433(2) -0.21590(8)
N2B N 2.3761(3) 0.49145(18) -0.15506(9)
N3B N 1.6437(3) 0.4000(2) -0.03653(8)
S1B S 1.68338(9) 0.64917(7) -0.01085(3)
N4B N 2.6254(3) 0.83832(19) -0.20656(9)
N5A N 0.5139(5) 1.0079(3) 0.34505(16)
O1A O 0.4974(3) 1.0410(3) 0.30079(9)
O2A O 0.4521(5) 0.9030(3) 0.35975(13)
O3A O 0.5923(12) 1.0828(7) 0.3745(2)
N1A N 0.0937(3) 0.8567(2) 0.28410(8)
N4_2 N 0.3746(3) 1.16168(19) 0.20656(9)
N4A N 0.1254(3) 1.16168(19) 0.29344(9)
Zn1_2 Zn 0.2500 0.01065(4) 0.2500
Zn1B Zn 2.7500 -0.01065(4) -0.2500
Zn1B_2 Zn 2.7500 0.98935(4) -0.2500
loop_
_geom_bond_atom_site_label_1
_geom_bond_atom_site_label_2
_geom_bond_site_symmetry_1
_geom_bond_site_symmetry_2
C1 H1 1_555 1_555
C2 C1 1_555 1_555
H2 C2 1_555 1_555
C3 C2 1_555 1_555
C4 C3 1_555 1_555
H3 C4 1_555 1_555
C5 C4 1_555 1_555
H4 C5 1_555 1_555
C6 C7 1_555 1_555
C7 H5 1_555 1_555
C8 C7 1_555 1_555
H6 C8 1_555 1_555
C9 C8 1_555 1_555
C10 C9 1_555 1_555
H7 C10 1_555 1_555
C11 C6 1_555 1_555
H8 C11 1_555 1_555
C12 C9 1_555 1_555
C13 N3 1_555 1_555
C14 H9 1_555 1_555
C15 C14 1_555 1_555
H10 C15 1_555 1_555
C16 C15 1_555 1_555
C17 C16 1_555 1_555
H11 C17 1_555 1_555
C18 C17 1_555 1_555
H12 C18 1_555 1_555
N1 C1 1_555 1_555
N2 C3 1_555 1_555
N3 C12 1_555 1_555
N4 C14 1_555 1_555
N5 O1 1_555 1_555
O1 Zn1 1_555 1_555
O2 N5 1_555 1_555
S1 C12 1_555 1_555
Zn1 N1 1_555 1_555
O3 N5 1_555 1_555
C1B H1B 1_555 1_555
C2B C1B 1_555 1_555
H2B C2B 1_555 1_555
C3B C2B 1_555 1_555
C4B C3B 1_555 1_555
H3B C4B 1_555 1_555
C5B C4B 1_555 1_555
H4B C5B 1_555 1_555
C6B C7B 1_555 1_555
C7B H5B 1_555 1_555
C8B C7B 1_555 1_555
H6B C8B 1_555 1_555
C9B C8B 1_555 1_555
C10B C9B 1_555 1_555
H7B C10B 1_555 1_555
C11B C6B 1_555 1_555
H8B C11B 1_555 1_555
C12B C9B 1_555 1_555
C13B C13 1_555 1_555
C14B H9B 1_555 1_555
C15B C14B 1_555 1_555
H10B C15B 1_555 1_555
C16B C15B 1_555 1_555
C17B C16B 1_555 1_555
H11B C17B 1_555 1_555
C18B C17B 1_555 1_555
H12B C18B 1_555 1_555
N1B C1B 1_555 1_555
N2B C3B 1_555 1_555
N3B C12B 1_555 1_555
S1B C13 1_555 1_555
N4B C14B 1_555 1_555
N5A O1A 1_555 1_555
O1A Zn1 1_555 1_555
O2A N5A 1_555 1_555
O3A N5A 1_555 1_555
N1A Zn1 1_555 1_555
N4_2 Zn1 1_555 1_555
N4A Zn1 1_555 1_555
Zn1_2 N4 1_555 1_555
Zn1B N1B 1_555 1_555
Zn1B_2 N4B 1_555 1_555
C5 N1 1_555 1_555
C6 N2 1_555 1_555
C10 C11 1_555 1_555
C16 N2 1_555 1_555
C18 N4 1_555 1_555
S1 C13B 1_555 1_555
C5B N1B 1_555 1_555
C6B N2B 1_555 1_555
C10B C11B 1_555 1_555
C12B S1B 1_555 1_555
C13B N3B 1_555 1_555
C16B N2B 1_555 1_555
C18B N4B 1_555 1_555

#END
