
#######################################################################
#
#                 Cambridge Crystallographic Data Centre
#                                CCDC 
#
#######################################################################
#
# If this CIF has been generated from an entry in the Cambridge 
# Structural Database, then it will include bibliographic, chemical, 
# crystal, experimental, refinement or atomic coordinate data resulting 
# from the CCDC's data processing and validation procedures.
#
#######################################################################

data_POQCAB
_symmetry_cell_setting           monoclinic
_symmetry_space_group_name_H-M   'C 2/c'
_symmetry_Int_Tables_number      15
_space_group_name_Hall           '-C 2yn'
loop_
_symmetry_equiv_pos_site_id
_symmetry_equiv_pos_as_xyz
1 x,y,z
2 -x,y,1/2-z
3 1/2+x,1/2+y,z
4 1/2-x,1/2+y,1/2-z
5 -x,-y,-z
6 x,-y,1/2+z
7 1/2-x,1/2-y,-z
8 1/2+x,1/2-y,1/2+z
_cell_length_a                   27.839(15)
_cell_length_b                   10.821(6)
_cell_length_c                   18.129(10)
_cell_angle_alpha                90
_cell_angle_beta                 122.293(7)
_cell_angle_gamma                90
_cell_volume                     4616.57
loop_
_atom_site_label
_atom_site_type_symbol
_atom_site_fract_x
_atom_site_fract_y
_atom_site_fract_z
O1 O -0.0317(5) 1.0540(8) 0.8261(9)
O2 O -0.0075(3) 0.8660(6) 0.8222(4)
N1 N 0.0032(4) 0.9698(7) 0.8595(7)
O3 O 0.0469(5) 0.9769(9) 0.9291(7)
Cu1 Cu 0.16919(3) 0.30602(6) 0.11626(5)
S1 S 0.10316(7) 0.18206(15) 0.11336(12)
O4 O 0.21424(17) 0.4061(4) 0.0856(3)
N2 N 0.1917(2) 0.0481(5) 0.1414(4)
H1 H 0.2101 -0.0198 0.1505
C1 C 0.2642(2) 0.3761(6) 0.0942(4)
N3 N 0.2128(2) 0.1572(5) 0.1306(3)
C2 C 0.2951(3) 0.4622(6) 0.0798(4)
H2 H 0.2813 0.5425 0.0649
C3 C 0.1421(3) 0.0489(6) 0.1375(4)
C4 C 0.3387(3) 0.2278(7) 0.1250(6)
H3 H 0.3531 0.1480 0.1395
N4 N 0.1253(3) -0.0551(5) 0.1539(5)
H4 H 0.1458 -0.1205 0.1665
H5 H 0.0938 -0.0578 0.1519
C5 C 0.2596(3) 0.1514(6) 0.1336(5)
H6 H 0.2775 0.0749 0.1459
C6 C 0.3457(3) 0.4331(7) 0.0869(5)
H7 H 0.3648 0.4935 0.0758
C7 C 0.3685(3) 0.3152(8) 0.1102(7)
H8 H 0.4028 0.2957 0.1156
Cu2 Cu 0.16289(3) 0.55157(6) 0.03309(5)
O5 O 0.13251(19) 0.4675(4) 0.0940(3)
S2 S 0.18539(7) 0.62820(16) -0.06054(11)
N5 N 0.0935(2) 0.6534(4) -0.0295(3)
N6 N 0.0853(2) 0.7188(5) -0.1011(4)
H9 H 0.0543 0.7591 -0.1336
C8 C 0.0194(3) 0.6535(6) 0.0863(5)
H10 H -0.0050 0.7182 0.0546
C9 C 0.0933(3) 0.4639(6) 0.1838(5)
H11 H 0.1185 0.4018 0.2182
C10 C 0.1263(3) 0.7189(5) -0.1195(4)
C11 C 0.0563(3) 0.6701(6) -0.0081(4)
H12 H 0.0263 0.7239 -0.0421
C12 C 0.0582(3) 0.6109(6) 0.0648(4)
C13 C 0.0952(3) 0.5125(5) 0.1138(4)
N7 N 0.1187(3) 0.7878(5) -0.1842(4)
H13 H 0.0882 0.8311 -0.2135
H14 H 0.1441 0.7897 -0.1974
C14 C 0.0542(3) 0.5079(7) 0.2020(5)
H15 H 0.0531 0.4740 0.2482
C15 C 0.0169(4) 0.6008(8) 0.1533(5)
H16 H -0.0098 0.6279 0.1655
C16 C 0.2872(3) 0.2540(6) 0.1193(5)
O6 O 0.23400(19) 0.3475(4) 0.2802(3)
N8 N 0.2567(2) 0.2499(5) 0.3209(3)
O7 O 0.2278(2) 0.1645(5) 0.3227(4)
O8 O 0.3090(2) 0.2381(6) 0.3600(4)
Cu2C Cu 0.33711(3) 0.05157(6) 0.46691(5)
O8C O 0.1910(2) 0.7381(6) 0.1400(4)
loop_
_geom_bond_atom_site_label_1
_geom_bond_atom_site_label_2
_geom_bond_site_symmetry_1
_geom_bond_site_symmetry_2
O1 N1 1_555 1_555
O2 N1 1_555 1_555
N1 O3 1_555 1_555
Cu1 S1 1_555 1_555
S1 C3 1_555 1_555
O4 Cu1 1_555 1_555
N2 H1 1_555 1_555
C1 O4 1_555 1_555
N3 Cu1 1_555 1_555
C2 C1 1_555 1_555
H2 C2 1_555 1_555
C3 N2 1_555 1_555
C4 H3 1_555 1_555
N4 C3 1_555 1_555
H4 N4 1_555 1_555
H5 N4 1_555 1_555
C5 N3 1_555 1_555
H6 C5 1_555 1_555
C6 C2 1_555 1_555
H7 C6 1_555 1_555
C7 C4 1_555 1_555
H8 C7 1_555 1_555
Cu2 O4 1_555 1_555
O5 Cu1 1_555 1_555
S2 Cu2 1_555 1_555
N5 Cu2 1_555 1_555
N6 N5 1_555 1_555
H9 N6 1_555 1_555
C8 H10 1_555 1_555
C9 H11 1_555 1_555
C10 S2 1_555 1_555
C11 N5 1_555 1_555
H12 C11 1_555 1_555
C12 C8 1_555 1_555
C13 O5 1_555 1_555
N7 C10 1_555 1_555
H13 N7 1_555 1_555
H14 N7 1_555 1_555
C14 C9 1_555 1_555
H15 C14 1_555 1_555
C15 C8 1_555 1_555
H16 C15 1_555 1_555
C16 C1 1_555 1_555
O6 Cu1 1_555 1_555
N8 O6 1_555 1_555
O7 N8 1_555 1_555
O8 N8 1_555 1_555
Cu2C O8 1_555 1_555
O8C Cu2 1_555 1_555
N2 N3 1_555 1_555
C4 C16 1_555 1_555
C5 C16 1_555 1_555
C6 C7 1_555 1_555
Cu2 O5 1_555 1_555
N6 C10 1_555 1_555
C9 C13 1_555 1_555
C11 C12 1_555 1_555
C12 C13 1_555 1_555
C14 C15 1_555 1_555

#END
