
#######################################################################
#
#                 Cambridge Crystallographic Data Centre
#                                CCDC 
#
#######################################################################
#
# If this CIF has been generated from an entry in the Cambridge 
# Structural Database, then it will include bibliographic, chemical, 
# crystal, experimental, refinement or atomic coordinate data resulting 
# from the CCDC's data processing and validation procedures.
#
#######################################################################

data_POQDIJ
_symmetry_cell_setting           orthorhombic
_symmetry_space_group_name_H-M   'P b c a'
_symmetry_Int_Tables_number      61
_space_group_name_Hall           '-P 2ac 2ab'
loop_
_symmetry_equiv_pos_site_id
_symmetry_equiv_pos_as_xyz
1 x,y,z
2 1/2-x,-y,1/2+z
3 -x,1/2+y,1/2-z
4 1/2+x,1/2-y,-z
5 -x,-y,-z
6 1/2+x,y,1/2-z
7 x,1/2-y,1/2+z
8 1/2-x,1/2+y,z
_cell_length_a                   17.6591(17)
_cell_length_b                   17.6477(17)
_cell_length_c                   42.628(4)
_cell_angle_alpha                90
_cell_angle_beta                 90
_cell_angle_gamma                90
_cell_volume                     13284.7
loop_
_atom_site_label
_atom_site_type_symbol
_atom_site_fract_x
_atom_site_fract_y
_atom_site_fract_z
Ag1 Ag 1.01980(2) 0.26184(2) 0.740946(7)
C1 C 0.6207(2) 0.2178(2) 0.51469(8)
C2 C 0.6174(2) 0.1592(2) 0.53654(10)
H1 H 0.5741 0.1273 0.5371
C3 C 0.6756(2) 0.1464(2) 0.55734(10)
H2 H 0.6721 0.1055 0.5717
C4 C 0.7394(2) 0.1924(2) 0.55765(9)
C5 C 0.7436(3) 0.2514(3) 0.53606(11)
H3 H 0.7870 0.2832 0.5357
C6 C 0.6844(3) 0.2642(3) 0.51483(10)
H4 H 0.6877 0.3050 0.5004
C7 C 0.7967(2) 0.1826(3) 0.58130(10)
C8 C 0.8395(2) 0.1770(2) 0.60272(10)
C9 C 0.8899(2) 0.1699(2) 0.62907(9)
C10 C 0.8615(3) 0.1462(3) 0.65825(10)
H5 H 0.8088 0.1372 0.6607
C11 C 0.9100(3) 0.1358(3) 0.68333(10)
H6 H 0.8904 0.1196 0.7030
C12 C 0.9866(2) 0.1488(2) 0.68008(9)
C13 C 1.0149(2) 0.1731(3) 0.65157(10)
H7 H 1.0676 0.1823 0.6493
C14 C 0.9670(2) 0.1840(3) 0.62623(10)
H8 H 0.9870 0.2013 0.6068
C15 C 1.0105(3) 0.0639(3) 0.73550(14)
H9 H 0.9612 0.0810 0.7434
H10 H 1.0441 0.0529 0.7532
H11 H 1.0036 0.0180 0.7229
C16 C 0.4570(2) 0.2657(2) 0.51778(9)
C17 C 0.3946(3) 0.2175(3) 0.52173(11)
H12 H 0.3912 0.1727 0.5095
C18 C 0.3379(3) 0.2340(3) 0.54310(11)
H13 H 0.2963 0.2004 0.5454
C19 C 0.3414(2) 0.2994(3) 0.56118(9)
C20 C 0.4037(3) 0.3469(3) 0.55779(10)
H14 H 0.4075 0.3915 0.5702
C21 C 0.4603(3) 0.3296(3) 0.53640(10)
H15 H 0.5025 0.3627 0.5345
C22 C 0.2834(3) 0.3159(3) 0.58391(10)
C23 C 0.2363(2) 0.3278(3) 0.60317(10)
C24 C 0.1797(2) 0.3401(3) 0.62717(9)
C25 C 0.1047(2) 0.3503(3) 0.61948(9)
H16 H 0.0897 0.3503 0.5981
C26 C 0.0509(2) 0.3606(3) 0.64274(9)
H17 H -0.0008 0.3672 0.6372
C27 C 0.0721(2) 0.3613(2) 0.67401(9)
C28 C 0.1466(3) 0.3508(3) 0.68193(10)
H18 H 0.1612 0.3507 0.7034
C29 C 0.2005(3) 0.3403(4) 0.65881(10)
H19 H 0.2521 0.3333 0.6645
C30 C -0.0833(3) 0.3680(4) 0.68584(14)
H20 H -0.0877 0.4061 0.6692
H21 H -0.1238 0.3756 0.7012
H22 H -0.0877 0.3172 0.6767
C31 C 0.5039(2) 0.1594(2) 0.46480(9)
C32 C 0.5346(2) 0.0859(2) 0.46507(10)
H23 H 0.5726 0.0733 0.4800
C33 C 0.5102(3) 0.0314(3) 0.44381(10)
H24 H 0.5316 -0.0180 0.4444
C34 C 0.4549(2) 0.0484(2) 0.42178(9)
C35 C 0.4224(2) 0.1205(2) 0.42166(9)
H25 H 0.3834 0.1323 0.4071
C36 C 0.4473(2) 0.1747(2) 0.44284(9)
H26 H 0.4251 0.2237 0.4424
C37 C 0.4324(3) -0.0064(3) 0.39841(10)
C38 C 0.4156(3) -0.0517(3) 0.37867(10)
C39 C 0.4006(3) -0.1090(2) 0.35554(9)
C40 C 0.4152(3) -0.1843(3) 0.36252(10)
H27 H 0.4316 -0.1976 0.3830
C41 C 0.4061(3) -0.2410(3) 0.33995(10)
H28 H 0.4159 -0.2925 0.3451
C42 C 0.3829(2) -0.2215(2) 0.31029(9)
C43 C 0.3632(3) -0.1473(3) 0.30343(10)
H29 H 0.3437 -0.1347 0.2833
C44 C 0.3722(3) -0.0913(3) 0.32614(10)
H30 H 0.3587 -0.0404 0.3214
C45 C 0.3991(3) -0.3783(3) 0.29703(12)
H31 H 0.4509 -0.3746 0.3051
H32 H 0.3967 -0.4183 0.2811
H33 H 0.3645 -0.3907 0.3143
C46 C 0.5560(2) 0.3201(2) 0.46241(8)
C47 C 0.6153(2) 0.3130(2) 0.44095(9)
H34 H 0.6477 0.2702 0.4423
C48 C 0.6283(2) 0.3659(2) 0.41788(9)
H35 H 0.6694 0.3593 0.4037
C49 C 0.5813(2) 0.4291(2) 0.41520(9)
C50 C 0.5215(2) 0.4376(2) 0.43654(10)
H36 H 0.4893 0.4806 0.4352
C51 C 0.5092(2) 0.3837(2) 0.45939(10)
H37 H 0.4679 0.3899 0.4734
C52 C 0.5919(2) 0.4840(2) 0.39059(9)
C53 C 0.5973(2) 0.5293(2) 0.36986(9)
C54 C 0.6011(2) 0.5853(2) 0.34556(9)
C55 C 0.6216(2) 0.5661(2) 0.31497(9)
H38 H 0.6346 0.5152 0.3101
C56 C 0.6233(2) 0.6207(3) 0.29170(9)
H39 H 0.6368 0.6070 0.2709
C57 C 0.6053(2) 0.6957(2) 0.29859(9)
C58 C 0.5868(2) 0.7158(3) 0.32904(10)
H40 H 0.5761 0.7673 0.3339
C59 C 0.5837(2) 0.6619(3) 0.35230(10)
H41 H 0.5698 0.6761 0.3730
C60 C 0.6909(3) 0.7520(4) 0.24816(17)
H42 H 0.7339 0.7520 0.2627
H43 H 0.6977 0.7924 0.2326
H44 H 0.6883 0.7030 0.2374
S1 S 1.05189(6) 0.13743(6) 0.71148(2)
S2 S 0.00571(7) 0.37724(7) 0.70454(2)
S3 S 0.37181(6) -0.28921(6) 0.27980(2)
S4 S 0.60451(6) 0.76783(7) 0.26964(3)
Si1 Si 0.53549(6) 0.24050(6) 0.49025(2)
Ag1_2 Ag 0.01980(2) 0.26184(2) 0.740946(7)
Ag1A Ag 0.48020(2) -0.26184(2) 0.240946(7)
Ag1A_2 Ag 0.48020(2) 0.73816(2) 0.240946(7)
S2_2 S 1.00571(7) 0.37724(7) 0.70454(2)
S3A S 1.12819(6) 0.28921(6) 0.77980(2)
S4A S 0.89549(6) 0.23217(7) 0.76964(3)
B1 B 0.7501(3) 0.4951(4) 0.73739(14)
F1 F 0.7144(2) 0.4439(2) 0.75649(8)
F2 F 0.7714(3) 0.4574(3) 0.71151(14)
F3 F 0.8124(3) 0.5249(3) 0.75111(11)
F4 F 0.7035(2) 0.5484(2) 0.72861(13)
C61 C 0.6656(4) 0.5009(4) 0.49751(19)
H45 H 0.6147 0.5127 0.4923
C62 C 0.7193(4) 0.4950(4) 0.47403(16)
H46 H 0.7066 0.5064 0.4529
C63 C 0.7894(3) 0.4728(3) 0.48162(14)
H47 H 0.8262 0.4654 0.4656
C64 C 0.8085(3) 0.4608(3) 0.51245(14)
H48 H 0.8590 0.4471 0.5176
C65 C 0.7573(4) 0.4681(3) 0.53541(15)
H49 H 0.7708 0.4582 0.5566
C66 C 0.6850(4) 0.4901(4) 0.52788(18)
H50 H 0.6485 0.4976 0.5440
C67 C 0.5907(3) 0.4074(3) 0.60340(13)
H51 H 0.5413 0.4069 0.5946
C68 C 0.6422(3) 0.3517(3) 0.59563(13)
H52 H 0.6285 0.3132 0.5811
C69 C 0.7137(3) 0.3517(3) 0.60886(14)
H53 H 0.7482 0.3119 0.6044
C70 C 0.7342(3) 0.4091(4) 0.62835(15)
H54 H 0.7839 0.4101 0.6370
C71 C 0.6843(4) 0.4649(4) 0.63560(17)
H55 H 0.6996 0.5054 0.6489
C72 C 0.6113(4) 0.4633(4) 0.62380(15)
H56 H 0.5758 0.5009 0.6299
C73 C 0.0994(6) 0.5574(4) 0.6574(2)
H57 H 0.0512 0.5346 0.6604
C74 C 0.1540(6) 0.5547(5) 0.6809(3)
H58 H 0.1445 0.5230 0.6985
C75 C 0.2181(5) 0.5933(5) 0.6804(2)
H59 H 0.2526 0.5925 0.6975
C76 C 0.2329(5) 0.6371(7) 0.6522(2)
H60 H 0.2767 0.6681 0.6507
C77 C 0.1812(5) 0.6328(7) 0.6274(2)
H61 H 0.1933 0.6587 0.6085
C78 C 0.1172(5) 0.5953(5) 0.6285(2)
H62 H 0.0841 0.5933 0.6110
loop_
_geom_bond_atom_site_label_1
_geom_bond_atom_site_label_2
_geom_bond_site_symmetry_1
_geom_bond_site_symmetry_2
Ag1 S1 1_555 1_555
B1 F1 1_555 1_555
C1 C2 1_555 1_555
C2 H1 1_555 1_555
C3 C2 1_555 1_555
H2 C3 1_555 1_555
C4 C3 1_555 1_555
C5 C4 1_555 1_555
H3 C5 1_555 1_555
C6 C1 1_555 1_555
H4 C6 1_555 1_555
C7 C4 1_555 1_555
C8 C7 1_555 1_555
C9 C8 1_555 1_555
C10 C9 1_555 1_555
H5 C10 1_555 1_555
C11 C10 1_555 1_555
H6 C11 1_555 1_555
C12 C11 1_555 1_555
C13 C12 1_555 1_555
H7 C13 1_555 1_555
C14 C9 1_555 1_555
H8 C14 1_555 1_555
C15 H9 1_555 1_555
H10 C15 1_555 1_555
H11 C15 1_555 1_555
C16 C17 1_555 1_555
C17 H12 1_555 1_555
C18 C17 1_555 1_555
H13 C18 1_555 1_555
C19 C18 1_555 1_555
C20 C19 1_555 1_555
H14 C20 1_555 1_555
C21 C16 1_555 1_555
H15 C21 1_555 1_555
C22 C19 1_555 1_555
C23 C22 1_555 1_555
C24 C23 1_555 1_555
C25 C24 1_555 1_555
H16 C25 1_555 1_555
C26 C25 1_555 1_555
H17 C26 1_555 1_555
C27 C26 1_555 1_555
C28 C27 1_555 1_555
H18 C28 1_555 1_555
C29 C24 1_555 1_555
H19 C29 1_555 1_555
C30 H20 1_555 1_555
H21 C30 1_555 1_555
H22 C30 1_555 1_555
C31 C32 1_555 1_555
C32 H23 1_555 1_555
C33 C32 1_555 1_555
H24 C33 1_555 1_555
C34 C33 1_555 1_555
C35 C34 1_555 1_555
H25 C35 1_555 1_555
C36 C31 1_555 1_555
H26 C36 1_555 1_555
C37 C34 1_555 1_555
C38 C37 1_555 1_555
C39 C38 1_555 1_555
C40 C39 1_555 1_555
H27 C40 1_555 1_555
C41 C40 1_555 1_555
H28 C41 1_555 1_555
C42 C41 1_555 1_555
C43 C42 1_555 1_555
H29 C43 1_555 1_555
C44 C39 1_555 1_555
H30 C44 1_555 1_555
C45 H31 1_555 1_555
H32 C45 1_555 1_555
H33 C45 1_555 1_555
C46 C47 1_555 1_555
C47 H34 1_555 1_555
C48 C47 1_555 1_555
H35 C48 1_555 1_555
C49 C48 1_555 1_555
C50 C49 1_555 1_555
H36 C50 1_555 1_555
C51 C46 1_555 1_555
H37 C51 1_555 1_555
C52 C49 1_555 1_555
C53 C52 1_555 1_555
C54 C53 1_555 1_555
C55 C54 1_555 1_555
H38 C55 1_555 1_555
C56 C55 1_555 1_555
H39 C56 1_555 1_555
C57 C56 1_555 1_555
C58 C57 1_555 1_555
H40 C58 1_555 1_555
C59 C54 1_555 1_555
H41 C59 1_555 1_555
C60 H42 1_555 1_555
H43 C60 1_555 1_555
H44 C60 1_555 1_555
C61 H45 1_555 1_555
C62 C61 1_555 1_555
H46 C62 1_555 1_555
C63 C62 1_555 1_555
H47 C63 1_555 1_555
C64 C63 1_555 1_555
H48 C64 1_555 1_555
C65 C64 1_555 1_555
H49 C65 1_555 1_555
C66 C61 1_555 1_555
H50 C66 1_555 1_555
C67 H51 1_555 1_555
C68 C67 1_555 1_555
H52 C68 1_555 1_555
C69 C68 1_555 1_555
H53 C69 1_555 1_555
C70 C69 1_555 1_555
H54 C70 1_555 1_555
C71 C70 1_555 1_555
H55 C71 1_555 1_555
C72 C67 1_555 1_555
H56 C72 1_555 1_555
C73 H57 1_555 1_555
C74 C73 1_555 1_555
H58 C74 1_555 1_555
C75 C74 1_555 1_555
H59 C75 1_555 1_555
C76 C75 1_555 1_555
H60 C76 1_555 1_555
C77 C76 1_555 1_555
H61 C77 1_555 1_555
C78 C73 1_555 1_555
H62 C78 1_555 1_555
F2 B1 1_555 1_555
F3 B1 1_555 1_555
F4 B1 1_555 1_555
S1 C12 1_555 1_555
S2 C27 1_555 1_555
S3 C42 1_555 1_555
S4 C57 1_555 1_555
Si1 C1 1_555 1_555
Ag1_2 S2 1_555 1_555
Ag1A S3 1_555 1_555
Ag1A_2 S4 1_555 1_555
S2_2 Ag1 1_555 1_555
S3A Ag1 1_555 1_555
S4A Ag1 1_555 1_555
C5 C6 1_555 1_555
C13 C14 1_555 1_555
C15 S1 1_555 1_555
C16 Si1 1_555 1_555
C20 C21 1_555 1_555
C28 C29 1_555 1_555
C30 S2 1_555 1_555
C31 Si1 1_555 1_555
C35 C36 1_555 1_555
C43 C44 1_555 1_555
C45 S3 1_555 1_555
C46 Si1 1_555 1_555
C50 C51 1_555 1_555
C58 C59 1_555 1_555
C60 S4 1_555 1_555
C65 C66 1_555 1_555
C71 C72 1_555 1_555
C77 C78 1_555 1_555

#END
