
#######################################################################
#
#                 Cambridge Crystallographic Data Centre
#                                CCDC 
#
#######################################################################
#
# If this CIF has been generated from an entry in the Cambridge 
# Structural Database, then it will include bibliographic, chemical, 
# crystal, experimental, refinement or atomic coordinate data resulting 
# from the CCDC's data processing and validation procedures.
#
#######################################################################

data_POQKOW
_symmetry_cell_setting           monoclinic
_symmetry_space_group_name_H-M   'C 2'
_symmetry_Int_Tables_number      5
_space_group_name_Hall           'C 2y'
loop_
_symmetry_equiv_pos_site_id
_symmetry_equiv_pos_as_xyz
1 x,y,z
2 -x,y,-z
3 1/2+x,1/2+y,z
4 1/2-x,1/2+y,-z
_cell_length_a                   24.287(3)
_cell_length_b                   12.5298(13)
_cell_length_c                   18.3433(19)
_cell_angle_alpha                90
_cell_angle_beta                 93.376(3)
_cell_angle_gamma                90
_cell_volume                     5572.39
loop_
_atom_site_label
_atom_site_type_symbol
_atom_site_fract_x
_atom_site_fract_y
_atom_site_fract_z
Sn1 Sn 0.338033(19) -0.07731(3) 0.48704(3)
Cl1 Cl -0.00861(10) -0.0467(2) 0.37261(15)
N1 N 0.2245(3) 0.1698(6) 0.3513(3)
H1 H 0.2223 0.2236 0.3801
O1 O 0.3253(2) 0.0649(6) 0.4198(3)
O2 O 0.2944(3) -0.0320(5) 0.3264(4)
O3 O 0.1589(2) 0.2821(5) 0.4328(3)
C1 C 0.3014(3) 0.0534(6) 0.3566(4)
C2 C 0.2767(3) 0.1526(6) 0.3185(4)
H3 H 0.2688 0.1351 0.2669
C3 C 0.3123(3) 0.2523(6) 0.3224(5)
H4 H 0.3176 0.2729 0.3739
C4 C 0.2852(4) 0.3437(9) 0.2820(5)
H5 H 0.3103 0.4028 0.2815
H6 H 0.2527 0.3647 0.3059
H7 H 0.2751 0.3224 0.2328
C5 C 0.3688(3) 0.2275(9) 0.2945(5)
H8 H 0.3647 0.2058 0.2443
H9 H 0.3858 0.1710 0.3231
H10 H 0.3916 0.2901 0.2986
C6 C 0.1815(3) 0.1115(7) 0.3407(5)
H11 H 0.1846 0.0546 0.3087
C7 C 0.1313(3) 0.1223(6) 0.3707(5)
C8 C 0.0907(4) 0.0441(7) 0.3579(5)
H12 H 0.0991 -0.0170 0.3320
C9 C 0.0392(3) 0.0554(8) 0.3824(5)
C10 C 0.0268(4) 0.1499(9) 0.4192(5)
H13 H -0.0091 0.1603 0.4331
C11 C 0.0653(3) 0.2271(8) 0.4355(5)
H14 H 0.0555 0.2880 0.4607
C12 C 0.1206(3) 0.2146(7) 0.4138(5)
C13 C 0.3801(3) -0.1603(7) 0.4085(5)
C14 C 0.4217(3) -0.1141(8) 0.3726(5)
H15 H 0.4344 -0.0477 0.3890
C15 C 0.4457(4) -0.1578(11) 0.3154(7)
H16 H 0.4740 -0.1225 0.2934
C16 C 0.4277(5) -0.2547(12) 0.2904(6)
H17 H 0.4435 -0.2851 0.2504
C17 C 0.3864(4) -0.3088(11) 0.3232(6)
H18 H 0.3747 -0.3760 0.3072
C18 C 0.3629(3) -0.2580(9) 0.3815(5)
H19 H 0.3340 -0.2919 0.4033
C19 C 0.2518(3) -0.0936(8) 0.4944(5)
C20 C 0.2245(4) -0.1767(9) 0.4642(6)
H20 H 0.2446 -0.2289 0.4414
C21 C 0.1675(4) -0.1891(11) 0.4653(6)
H21 H 0.1497 -0.2477 0.4434
C22 C 0.1389(4) -0.1126(12) 0.4994(6)
H22 H 0.1007 -0.1188 0.4997
C23 C 0.1635(5) -0.0285(11) 0.5328(7)
H23 H 0.1437 0.0220 0.5577
C24 C 0.2206(4) -0.0213(8) 0.5277(6)
H24 H 0.2384 0.0377 0.5488
C25 C 0.3892(3) 0.0133(7) 0.5615(5)
C26 C 0.4239(3) 0.0889(11) 0.5365(5)
H25 H 0.4240 0.1028 0.4868
C27 C 0.4594(4) 0.1459(9) 0.5858(7)
H26 H 0.4826 0.1981 0.5686
C28 C 0.4598(4) 0.1249(9) 0.6575(7)
H27 H 0.4842 0.1611 0.6898
C29 C 0.4253(6) 0.0519(10) 0.6828(6)
H28 H 0.4243 0.0408 0.7329
C30 C 0.3921(4) -0.0056(9) 0.6361(6)
H29 H 0.3705 -0.0594 0.6546
Sn1C Sn 0.161967(19) 0.42269(3) 0.51296(3)
O3C O 0.3411(2) -0.2179(5) 0.5672(3)
Sn2 Sn 0.15541(2) 1.07797(3) 0.01403(3)
Cl2 Cl 0.49507(11) 1.0670(3) 0.14732(18)
N2 N 0.2709(3) 0.8088(6) 0.1350(4)
H2 H 0.2807 0.7574 0.1076
O4 O 0.1625(2) 0.9293(7) 0.0743(3)
O5 O 0.2049(3) 1.0007(5) 0.1726(4)
O6 O 0.3445(2) 0.7202(6) 0.0612(4)
C31 C 0.1916(3) 0.9252(8) 0.1345(5)
C32 C 0.2127(3) 0.8128(7) 0.1544(4)
H30 H 0.1919 0.7618 0.1231
C33 C 0.2049(4) 0.7827(7) 0.2327(4)
H31 H 0.2246 0.8349 0.2644
C34 C 0.1438(4) 0.7895(9) 0.2462(5)
H32 H 0.1292 0.8560 0.2276
H33 H 0.1390 0.7853 0.2977
H34 H 0.1246 0.7314 0.2219
C35 C 0.2284(4) 0.6721(8) 0.2507(5)
H35 H 0.2134 0.6214 0.2157
H36 H 0.2187 0.6516 0.2988
H37 H 0.2678 0.6738 0.2490
C36 C 0.3083(4) 0.8778(8) 0.1568(5)
H38 H 0.2994 0.9304 0.1899
C37 C 0.3640(4) 0.8751(8) 0.1304(5)
C38 C 0.3997(4) 0.9573(8) 0.1514(6)
H39 H 0.3884 1.0105 0.1826
C39 C 0.4510(4) 0.9599(8) 0.1266(5)
C40 C 0.4695(4) 0.8779(8) 0.0856(5)
H40 H 0.5057 0.8778 0.0716
C41 C 0.4350(4) 0.7965(8) 0.0652(6)
H41 H 0.4484 0.7403 0.0382
C42 C 0.3805(4) 0.7946(8) 0.0833(5)
C43 C 0.2416(4) 1.0887(11) 0.0051(6)
C44 C 0.2727(5) 1.1640(11) 0.0428(7)
H42 H 0.2551 1.2101 0.0736
C45 C 0.3287(5) 1.1750(13) 0.0375(8)
H43 H 0.3477 1.2271 0.0649
C46 C 0.3559(6) 1.1119(16) -0.0063(10)
H44 H 0.3936 1.1196 -0.0115
C47 C 0.3272(6) 1.0391(12) -0.0415(10)
H45 H 0.3461 0.9927 -0.0707
C48 C 0.2695(5) 1.0242(10) -0.0392(8)
H46 H 0.2514 0.9718 -0.0672
C49 C 0.1041(3) 0.9934(8) -0.0631(5)
C50 C 0.1032(5) 1.0207(10) -0.1353(7)
H47 H 0.1259 1.0754 -0.1502
C51 C 0.0687(6) 0.9678(11) -0.1871(7)
H48 H 0.0681 0.9874 -0.2361
C52 C 0.0357(5) 0.8866(10) -0.1651(7)
H49 H 0.0130 0.8507 -0.1996
C53 C 0.0357(5) 0.8575(11) -0.0932(7)
H50 H 0.0127 0.8033 -0.0783
C54 C 0.0705(4) 0.9100(11) -0.0436(6)
H51 H 0.0715 0.8889 0.0050
C55 C 0.1189(3) 1.1662(8) 0.0974(5)
C56 C 0.0766(3) 1.1215(9) 0.1340(5)
H52 H 0.0622 1.0556 0.1197
C57 C 0.0560(5) 1.1752(11) 0.1921(7)
H53 H 0.0272 1.1440 0.2158
C58 C 0.0747(5) 1.2680(12) 0.2159(6)
H54 H 0.0599 1.3015 0.2556
C59 C 0.1162(5) 1.3128(12) 0.1806(7)
H55 H 0.1310 1.3774 0.1974
C60 C 0.1372(4) 1.2647(9) 0.1199(6)
H56 H 0.1639 1.2996 0.0944
Sn2C Sn 0.34459(2) 0.57797(3) -0.01403(3)
O6C O 0.1555(2) 1.2202(6) -0.0612(4)
loop_
_geom_bond_atom_site_label_1
_geom_bond_atom_site_label_2
_geom_bond_site_symmetry_1
_geom_bond_site_symmetry_2
Sn1 O1 1_555 1_555
Sn2 O4 1_555 1_555
Cl1 C9 1_555 1_555
Cl2 C39 1_555 1_555
N1 H1 1_555 1_555
N2 H2 1_555 1_555
O1 C1 1_555 1_555
O2 C1 1_555 1_555
O3 C12 1_555 1_555
O4 C31 1_555 1_555
O5 C31 1_555 1_555
O6 C42 1_555 1_555
C1 C2 1_555 1_555
C2 N1 1_555 1_555
H3 C2 1_555 1_555
C3 C2 1_555 1_555
H4 C3 1_555 1_555
C4 C3 1_555 1_555
H5 C4 1_555 1_555
H6 C4 1_555 1_555
H7 C4 1_555 1_555
C5 C3 1_555 1_555
H8 C5 1_555 1_555
H9 C5 1_555 1_555
H10 C5 1_555 1_555
C6 N1 1_555 1_555
H11 C6 1_555 1_555
C7 C6 1_555 1_555
C8 C7 1_555 1_555
H12 C8 1_555 1_555
C9 C8 1_555 1_555
C10 C9 1_555 1_555
H13 C10 1_555 1_555
C11 C10 1_555 1_555
H14 C11 1_555 1_555
C12 C7 1_555 1_555
C13 Sn1 1_555 1_555
C14 C13 1_555 1_555
H15 C14 1_555 1_555
C15 C14 1_555 1_555
H16 C15 1_555 1_555
C16 C15 1_555 1_555
H17 C16 1_555 1_555
C17 C16 1_555 1_555
H18 C17 1_555 1_555
C18 C13 1_555 1_555
H19 C18 1_555 1_555
C19 Sn1 1_555 1_555
C20 C19 1_555 1_555
H20 C20 1_555 1_555
C21 C20 1_555 1_555
H21 C21 1_555 1_555
C22 C21 1_555 1_555
H22 C22 1_555 1_555
C23 C22 1_555 1_555
H23 C23 1_555 1_555
C24 C19 1_555 1_555
H24 C24 1_555 1_555
C25 Sn1 1_555 1_555
C26 C25 1_555 1_555
H25 C26 1_555 1_555
C27 C26 1_555 1_555
H26 C27 1_555 1_555
C28 C27 1_555 1_555
H27 C28 1_555 1_555
C29 C28 1_555 1_555
H28 C29 1_555 1_555
C30 C25 1_555 1_555
H29 C30 1_555 1_555
C31 C32 1_555 1_555
C32 N2 1_555 1_555
H30 C32 1_555 1_555
C33 C32 1_555 1_555
H31 C33 1_555 1_555
C34 C33 1_555 1_555
H32 C34 1_555 1_555
H33 C34 1_555 1_555
H34 C34 1_555 1_555
C35 C33 1_555 1_555
H35 C35 1_555 1_555
H36 C35 1_555 1_555
H37 C35 1_555 1_555
C36 N2 1_555 1_555
H38 C36 1_555 1_555
C37 C36 1_555 1_555
C38 C37 1_555 1_555
H39 C38 1_555 1_555
C39 C38 1_555 1_555
C40 C39 1_555 1_555
H40 C40 1_555 1_555
C41 C40 1_555 1_555
H41 C41 1_555 1_555
C42 C37 1_555 1_555
C43 Sn2 1_555 1_555
C44 C43 1_555 1_555
H42 C44 1_555 1_555
C45 C44 1_555 1_555
H43 C45 1_555 1_555
C46 C45 1_555 1_555
H44 C46 1_555 1_555
C47 C46 1_555 1_555
H45 C47 1_555 1_555
C48 C43 1_555 1_555
H46 C48 1_555 1_555
C49 Sn2 1_555 1_555
C50 C49 1_555 1_555
H47 C50 1_555 1_555
C51 C50 1_555 1_555
H48 C51 1_555 1_555
C52 C51 1_555 1_555
H49 C52 1_555 1_555
C53 C52 1_555 1_555
H50 C53 1_555 1_555
C54 C49 1_555 1_555
H51 C54 1_555 1_555
C55 Sn2 1_555 1_555
C56 C55 1_555 1_555
H52 C56 1_555 1_555
C57 C56 1_555 1_555
H53 C57 1_555 1_555
C58 C57 1_555 1_555
H54 C58 1_555 1_555
C59 C58 1_555 1_555
H55 C59 1_555 1_555
C60 C55 1_555 1_555
H56 C60 1_555 1_555
Sn1C O3 1_555 1_555
Sn2C O6 1_555 1_555
O3C Sn1 1_555 1_555
O6C Sn2 1_555 1_555
C11 C12 1_555 1_555
C17 C18 1_555 1_555
C23 C24 1_555 1_555
C29 C30 1_555 1_555
C41 C42 1_555 1_555
C47 C48 1_555 1_555
C53 C54 1_555 1_555
C59 C60 1_555 1_555

#END
