
#######################################################################
#
#                 Cambridge Crystallographic Data Centre
#                                CCDC 
#
#######################################################################
#
# If this CIF has been generated from an entry in the Cambridge 
# Structural Database, then it will include bibliographic, chemical, 
# crystal, experimental, refinement or atomic coordinate data resulting 
# from the CCDC's data processing and validation procedures.
#
#######################################################################

data_POQWAU
_symmetry_cell_setting           monoclinic
_symmetry_space_group_name_H-M   'P 21/c'
_symmetry_Int_Tables_number      14
_space_group_name_Hall           '-P 2ybc'
loop_
_symmetry_equiv_pos_site_id
_symmetry_equiv_pos_as_xyz
1 x,y,z
2 -x,1/2+y,1/2-z
3 -x,-y,-z
4 x,1/2-y,1/2+z
_cell_length_a                   12.564(2)
_cell_length_b                   7.6670(14)
_cell_length_c                   15.898(3)
_cell_angle_alpha                90
_cell_angle_beta                 106.604(4)
_cell_angle_gamma                90
_cell_volume                     1467.57
loop_
_atom_site_label
_atom_site_type_symbol
_atom_site_fract_x
_atom_site_fract_y
_atom_site_fract_z
C1 C 0.9265(3) 0.7497(6) 0.0989(3)
C2 C 0.9060(3) 0.5860(5) 0.1263(3)
H1 H 0.9178 0.5638 0.1877
C3 C 0.8690(3) 0.4521(5) 0.0667(3)
C4 C 0.8529(3) 0.4839(5) -0.0223(3)
H2 H 0.8263 0.3925 -0.0644
C5 C 0.8752(3) 0.6474(5) -0.0501(2)
C6 C 0.9112(3) 0.7799(5) 0.0107(3)
H3 H 0.9257 0.8936 -0.0088
C7 C 0.8432(4) 0.2792(5) 0.0982(3)
C8 C 0.8592(3) 0.6839(6) -0.1461(3)
C9 C 0.6704(3) 0.6840(6) 0.1488(3)
H4 H 0.7134 0.6675 0.2087
C10 C 0.5994(3) 0.5519(5) 0.1083(3)
H5 H 0.5931 0.4473 0.1397
C11 C 0.5375(3) 0.5681(6) 0.0235(3)
C12 C 0.5550(3) 0.7216(5) -0.0166(3)
H6 H 0.5149 0.7406 -0.0771
C13 C 0.6271(3) 0.8452(5) 0.0289(3)
H7 H 0.6375 0.9491 -0.0015
Co1 Co 0.80440(5) 1.00820(8) 0.17829(4)
N1 N 0.6848(3) 0.8302(5) 0.1113(2)
N2 N 0.9532(3) 0.8884(5) 0.1627(2)
H8 H 0.994(4) 0.969(6) 0.145(3)
H9 H 0.994(4) 0.845(6) 0.215(3)
O1 O 0.7954(3) 0.1604(4) 0.04740(19)
O2 O 0.8694(2) 0.2545(4) 0.18077(17)
O3 O 0.8299(2) 0.5545(4) -0.19705(19)
O4 O 0.8731(2) 0.8348(4) -0.17023(19)
O5 O 0.6650(3) 1.1608(5) 0.2052(2)
H10 H 0.603(5) 1.111(8) 0.181(4)
H11 H 0.674(5) 1.166(8) 0.260(4)
C1_2 C 0.9265(3) 1.7497(6) 0.0989(3)
C2_2 C 0.9060(3) 1.5860(5) 0.1263(3)
H1_2 H 0.9178 1.5638 0.1877
C3_2 C 0.8690(3) 1.4521(5) 0.0667(3)
C4_2 C 0.8529(3) 1.4839(5) -0.0223(3)
H2_2 H 0.8263 1.3925 -0.0644
C5_2 C 0.8752(3) 1.6474(5) -0.0501(2)
C6_2 C 0.9112(3) 1.7799(5) 0.0107(3)
H3_2 H 0.9257 1.8936 -0.0088
C7_2 C 0.8432(4) 1.2792(5) 0.0982(3)
C8_2 C 0.8592(3) 1.6839(6) -0.1461(3)
C9B C 0.3296(3) 0.3160(6) -0.1488(3)
H4B H 0.2866 0.3325 -0.2087
C10B C 0.4006(3) 0.4481(5) -0.1083(3)
H5B H 0.4069 0.5527 -0.1397
C11B C 0.4625(3) 0.4319(6) -0.0235(3)
C12B C 0.4450(3) 0.2784(5) 0.0166(3)
H6B H 0.4851 0.2594 0.0771
C13B C 0.3729(3) 0.1548(5) -0.0289(3)
H7B H 0.3625 0.0509 0.0015
Co1B Co 0.19560(5) -0.00820(8) -0.17829(4)
Co1_2 Co 0.80440(5) 0.00820(8) 0.17829(4)
Co1C Co 0.80440(5) 0.49180(8) -0.32171(4)
Co1_3 Co 0.80440(5) 2.00820(8) 0.17829(4)
Co1C_2 Co 0.80440(5) 1.49180(8) -0.32171(4)
N1B N 0.3152(3) 0.1698(5) -0.1113(2)
N2_2 N 0.9532(3) 1.8884(5) 0.1627(2)
N2B N 0.0468(3) 0.1116(5) -0.1627(2)
H8_2 H 0.994(4) 1.969(6) 0.145(3)
H8B H 0.006(4) 0.031(6) -0.145(3)
H9_2 H 0.994(4) 1.845(6) 0.215(3)
H9B H 0.006(4) 0.155(6) -0.215(3)
O1_2 O 0.7954(3) 1.1604(4) 0.04740(19)
O1B O 0.2046(3) -0.1604(4) -0.04740(19)
O2_2 O 0.8694(2) 1.2545(4) 0.18077(17)
O2B O 0.1306(2) -0.2545(4) -0.18077(17)
O3_2 O 0.8299(2) 1.5545(4) -0.19705(19)
O3C O 0.8299(2) 0.9455(4) 0.30295(19)
O3A O 0.1701(2) 0.0545(4) -0.30295(19)
O4_2 O 0.8731(2) 1.8348(4) -0.17023(19)
O5B O 0.3350(3) -0.1608(5) -0.2052(2)
H10B H 0.397(5) -0.111(8) -0.181(4)
H11B H 0.326(5) -0.166(8) -0.260(4)
O6 O 0.2684(3) 0.8984(4) 0.1387(2)
H12 H 0.232(4) 0.941(7) 0.172(3)
H13 H 0.249(4) 0.949(7) 0.089(4)
O7 O 0.4916(3) 0.9511(5) 0.2164(2)
H14 H 0.441(5) 1.013(7) 0.227(4)
H15 H 0.466(5) 0.897(8) 0.168(4)
loop_
_geom_bond_atom_site_label_1
_geom_bond_atom_site_label_2
_geom_bond_site_symmetry_1
_geom_bond_site_symmetry_2
C1 C2 1_555 1_555
C2 H1 1_555 1_555
C3 C2 1_555 1_555
C4 C3 1_555 1_555
H2 C4 1_555 1_555
C5 C4 1_555 1_555
C6 C1 1_555 1_555
H3 C6 1_555 1_555
C7 C3 1_555 1_555
C8 C5 1_555 1_555
C9 H4 1_555 1_555
C10 C9 1_555 1_555
H5 C10 1_555 1_555
C11 C10 1_555 1_555
C12 C11 1_555 1_555
H6 C12 1_555 1_555
C13 C12 1_555 1_555
H7 C13 1_555 1_555
Co1 N1 1_555 1_555
N1 C9 1_555 1_555
N2 C1 1_555 1_555
H8 N2 1_555 1_555
H9 N2 1_555 1_555
O1 C7 1_555 1_555
O2 C7 1_555 1_555
O3 C8 1_555 1_555
O4 C8 1_555 1_555
O5 Co1 1_555 1_555
H10 O5 1_555 1_555
H11 O5 1_555 1_555
O6 H12 1_555 1_555
H13 O6 1_555 1_555
O7 H14 1_555 1_555
H15 O7 1_555 1_555
C1_2 C2_2 1_555 1_555
C2_2 H1_2 1_555 1_555
C3_2 C2_2 1_555 1_555
C4_2 C3_2 1_555 1_555
H2_2 C4_2 1_555 1_555
C5_2 C4_2 1_555 1_555
C6_2 C1_2 1_555 1_555
H3_2 C6_2 1_555 1_555
C7_2 C3_2 1_555 1_555
C8_2 C5_2 1_555 1_555
C9B H4B 1_555 1_555
C10B C9B 1_555 1_555
H5B C10B 1_555 1_555
C11B C11 1_555 1_555
C12B C11B 1_555 1_555
H6B C12B 1_555 1_555
C13B C12B 1_555 1_555
H7B C13B 1_555 1_555
Co1B N1B 1_555 1_555
Co1_2 O1 1_555 1_555
Co1C O3 1_555 1_555
Co1_3 N2_2 1_555 1_555
Co1C_2 O3_2 1_555 1_555
N1B C9B 1_555 1_555
N2_2 C1_2 1_555 1_555
N2B Co1B 1_555 1_555
H8_2 N2_2 1_555 1_555
H8B N2B 1_555 1_555
H9_2 N2_2 1_555 1_555
H9B N2B 1_555 1_555
O1_2 Co1 1_555 1_555
O1B Co1B 1_555 1_555
O2_2 Co1 1_555 1_555
O2B Co1B 1_555 1_555
O3_2 C8_2 1_555 1_555
O3C Co1 1_555 1_555
O3A Co1B 1_555 1_555
O4_2 C8_2 1_555 1_555
O5B Co1B 1_555 1_555
H10B O5B 1_555 1_555
H11B O5B 1_555 1_555
C5 C6 1_555 1_555
C13 N1 1_555 1_555
Co1 N2 1_555 1_555
O2 Co1_2 1_555 1_555
C5_2 C6_2 1_555 1_555
C7_2 O1_2 1_555 1_555
C7_2 O2_2 1_555 1_555
C10B C11B 1_555 1_555
C13B N1B 1_555 1_555

#END
