
#######################################################################
#
#                 Cambridge Crystallographic Data Centre
#                                CCDC 
#
#######################################################################
#
# If this CIF has been generated from an entry in the Cambridge 
# Structural Database, then it will include bibliographic, chemical, 
# crystal, experimental, refinement or atomic coordinate data resulting 
# from the CCDC's data processing and validation procedures.
#
#######################################################################

data_POQXOJ
_symmetry_cell_setting           monoclinic
_symmetry_space_group_name_H-M   'P 21/n'
_symmetry_Int_Tables_number      14
_space_group_name_Hall           '-P 2yn'
loop_
_symmetry_equiv_pos_site_id
_symmetry_equiv_pos_as_xyz
1 x,y,z
2 1/2-x,1/2+y,1/2-z
3 -x,-y,-z
4 1/2+x,1/2-y,1/2+z
_cell_length_a                   8.489(4)
_cell_length_b                   6.803(3)
_cell_length_c                   12.213(8)
_cell_angle_alpha                90
_cell_angle_beta                 94.85(2)
_cell_angle_gamma                90
_cell_volume                     702.784
loop_
_atom_site_label
_atom_site_type_symbol
_atom_site_fract_x
_atom_site_fract_y
_atom_site_fract_z
Pb1 Pb 0.31331(2) 0.40423(3) 0.151134(16)
N1 N 0.5893(5) 0.3109(6) 0.1847(3)
N2 N 0.8439(5) 0.2811(6) 0.1261(4)
H1 H 0.9201 0.3119 0.0840
O1 O 0.3880(4) 0.2762(7) 0.3370(3)
O2 O 0.5779(5) 0.2299(8) 0.4698(3)
O3 O 1.0608(4) 0.2197(6) 0.2432(3)
O4 O 0.6308(4) 0.3449(6) 0.0056(3)
O5 O 0.3365(6) 0.0490(7) 0.0875(5)
H2 H 0.4220 -0.0343 0.1004
H3 H 0.2566 -0.0019 0.0630
C1 C 0.6522(6) 0.2779(7) 0.2883(4)
C2 C 0.8109(6) 0.2541(8) 0.3153(4)
H4 H 0.8502 0.2401 0.3883
C3 C 0.9141(6) 0.2512(7) 0.2302(4)
C4 C 0.6840(6) 0.3150(7) 0.1023(4)
C5 C 0.5319(6) 0.2607(8) 0.3730(5)
Pb1A Pb 0.18669(2) -0.09577(3) 0.348866(16)
Pb1C Pb 0.81331(2) 0.09577(3) 0.651134(16)
Pb1_2 Pb 1.31331(2) 0.40423(3) 0.151134(16)
Pb1A_2 Pb 1.18669(2) -0.09577(3) 0.348866(16)
Pb1B Pb 0.68669(2) 0.59577(3) -0.151134(16)
O1A O 0.1120(4) 0.7762(7) 0.1630(3)
O2C O 0.0779(5) 0.2701(8) -0.0302(3)
O3_2 O 0.0608(4) 0.2197(6) 0.2432(3)
O3A O 0.4392(4) 0.7197(6) 0.2568(3)
O4B O 0.3692(4) 0.6551(6) -0.0056(3)
loop_
_geom_bond_atom_site_label_1
_geom_bond_atom_site_label_2
_geom_bond_site_symmetry_1
_geom_bond_site_symmetry_2
Pb1 N1 1_555 1_555
N1 C1 1_555 1_555
N2 H1 1_555 1_555
O1 Pb1 1_555 1_555
O2 C5 1_555 1_555
O3 C3 1_555 1_555
O4 C4 1_555 1_555
O5 Pb1 1_555 1_555
H2 O5 1_555 1_555
H3 O5 1_555 1_555
C1 C2 1_555 1_555
C2 H4 1_555 1_555
C3 N2 1_555 1_555
C4 N1 1_555 1_555
C5 O1 1_555 1_555
Pb1A O1 1_555 1_555
Pb1C O2 1_555 1_555
Pb1_2 O3 1_555 1_555
Pb1A_2 O3 1_555 1_555
Pb1B O4 1_555 1_555
O1A Pb1 1_555 1_555
O2C Pb1 1_555 1_555
O3_2 Pb1 1_555 1_555
O3A Pb1 1_555 1_555
O4B Pb1 1_555 1_555
N2 C4 1_555 1_555
C1 C5 1_555 1_555
C2 C3 1_555 1_555
Pb1A O3_2 1_555 1_555

#END
