
#######################################################################
#
#                 Cambridge Crystallographic Data Centre
#                                CCDC 
#
#######################################################################
#
# If this CIF has been generated from an entry in the Cambridge 
# Structural Database, then it will include bibliographic, chemical, 
# crystal, experimental, refinement or atomic coordinate data resulting 
# from the CCDC's data processing and validation procedures.
#
#######################################################################

data_PORHUB
_symmetry_cell_setting           triclinic
_symmetry_space_group_name_H-M   'P -1'
_symmetry_Int_Tables_number      2
_space_group_name_Hall           '-P 1'
loop_
_symmetry_equiv_pos_site_id
_symmetry_equiv_pos_as_xyz
1 x,y,z
2 -x,-y,-z
_cell_length_a                   8.3326(4)
_cell_length_b                   10.3780(5)
_cell_length_c                   16.5929(9)
_cell_angle_alpha                87.460(3)
_cell_angle_beta                 77.784(3)
_cell_angle_gamma                74.322(3)
_cell_volume                     1350.09
loop_
_atom_site_label
_atom_site_type_symbol
_atom_site_fract_x
_atom_site_fract_y
_atom_site_fract_z
Cu1 Cu 0.22227(7) 0.39423(7) 0.42221(4)
O1 O 0.4548(5) 0.2075(4) 0.8014(2)
O2 O 0.4536(4) 0.4078(3) 0.36556(19)
O3 O 0.4925(4) 0.1998(3) 0.3205(2)
O4 O 0.8123(5) 0.4123(4) 0.5216(3)
O5 O 1.0462(5) 0.2973(4) 0.4430(3)
N1 N 0.1288(5) 0.4633(5) 0.3224(3)
N2 N 0.1562(7) 0.3043(6) 0.1268(3)
H1 H 0.2438 0.2427 0.1347
N3 N 0.3173(5) 0.2920(4) 0.5147(2)
N4 N 0.4968(5) 0.3386(4) 0.6898(2)
H2 H 0.5346 0.4059 0.6716
C1 C 0.1591(6) 0.3753(6) 0.2604(3)
H3 H 0.2240 0.2886 0.2665
C2 C 0.1005(7) 0.4051(6) 0.1884(4)
C3 C 0.0005(8) 0.5299(8) 0.1798(5)
H4 H -0.0425 0.5528 0.1323
C4 C -0.0360(7) 0.6219(7) 0.2428(5)
H5 H -0.1061 0.7074 0.2385
C5 C 0.0314(7) 0.5875(7) 0.3126(4)
H6 H 0.0089 0.6517 0.3538
O6 O -0.0209(13) 0.3618(9) 0.0450(5)
C6 C 0.1046(14) 0.2822(11) 0.0592(6)
C7 C 0.2077(13) 0.1674(10) 0.0014(5)
H7 H 0.2502 0.0906 0.0339
H8 H 0.3054 0.1921 -0.0316
C8 C 0.1098(15) 0.1268(12) -0.0558(5)
H9 H 0.0496 0.2066 -0.0807
H10 H 0.1904 0.0708 -0.0998
C9 C -0.0172(15) 0.0520(11) -0.0141(6)
H11 H -0.0940 0.1107 0.0297
H12 H -0.0840 0.0455 -0.0543
C10 C 0.3810(6) 0.3449(5) 0.5697(3)
H13 H 0.3854 0.4335 0.5637
C11 C 0.4398(6) 0.2729(5) 0.6344(3)
C12 C 0.4399(8) 0.1373(6) 0.6419(3)
H14 H 0.4827 0.0852 0.6835
C13 C 0.3747(9) 0.0843(6) 0.5857(4)
H15 H 0.3714 -0.0047 0.5898
C14 C 0.3145(8) 0.1619(6) 0.5236(4)
H16 H 0.2704 0.1240 0.4865
C15 C 0.4982(6) 0.3058(5) 0.7701(3)
C16 C 0.5590(8) 0.3971(6) 0.8169(3)
H17 H 0.5103 0.4891 0.8029
H18 H 0.6819 0.3783 0.8004
C17 C 0.5108(15) 0.3811(12) 0.9086(6)
H19 H 0.3876 0.4019 0.9250
H20 H 0.5566 0.2883 0.9221
C18 C 0.5736(16) 0.4683(13) 0.9575(7)
H21 H 0.6005 0.5411 0.9234
H22 H 0.6772 0.4163 0.9736
C19 C 0.5445(6) 0.2993(5) 0.3259(3)
C20 C 0.7278(6) 0.2989(5) 0.2848(3)
H23 H 0.7345 0.3130 0.2262
H24 H 0.7560 0.3729 0.3070
C21 C 0.8566(6) 0.1710(5) 0.2973(3)
C22 C 0.9415(6) 0.0843(5) 0.2305(3)
H25 H 0.9157 0.1058 0.1789
C23 C 1.0625(6) -0.0323(5) 0.2396(3)
H26 H 1.1176 -0.0887 0.1943
C24 C 1.1018(7) -0.0653(6) 0.3154(3)
H27 H 1.1841 -0.1437 0.3219
C25 C 1.0183(7) 0.0186(5) 0.3816(3)
H28 H 1.0456 -0.0044 0.4328
C26 C 0.8939(5) 0.1370(5) 0.3749(3)
C27 C 0.8019(6) 0.2229(5) 0.4506(3)
H29 H 0.7830 0.1646 0.4969
H30 H 0.6911 0.2739 0.4417
C28 C 0.8941(6) 0.3205(5) 0.4739(3)
O1A O 0.5452(5) 0.7925(4) 1.1986(2)
N3A N 0.6827(5) 0.7080(4) 1.4853(2)
N4A N 0.5032(5) 0.6614(4) 1.3102(2)
H2A H 0.4654 0.5941 1.3284
C10A C 0.6190(6) 0.6551(5) 1.4303(3)
H13A H 0.6146 0.5665 1.4363
C11A C 0.5602(6) 0.7271(5) 1.3656(3)
C12A C 0.5601(8) 0.8627(6) 1.3581(3)
H14A H 0.5173 0.9148 1.3165
C13A C 0.6253(9) 0.9157(6) 1.4143(4)
H15A H 0.6286 1.0047 1.4102
C14A C 0.6855(8) 0.8381(6) 1.4764(4)
H16A H 0.7296 0.8760 1.5135
C15A C 0.5018(6) 0.6942(5) 1.2299(3)
C16A C 0.4410(8) 0.6029(6) 1.1831(3)
H17A H 0.4897 0.5109 1.1971
H18A H 0.3181 0.6217 1.1996
C17A C 0.4892(15) 0.6189(12) 1.0914(6)
H19A H 0.6124 0.5981 1.0750
H20A H 0.4434 0.7117 1.0779
C18A C 0.4264(16) 0.5317(13) 1.0425(7)
H21A H 0.3995 0.4589 1.0766
H22A H 0.3228 0.5837 1.0264
N1A N -0.1288(5) -0.4633(5) -0.3224(3)
N2A N -0.1562(7) -0.3043(6) -0.1268(3)
H1A H -0.2438 -0.2427 -0.1347
C1A C -0.1591(6) -0.3753(6) -0.2604(3)
H3A H -0.2240 -0.2886 -0.2665
C2A C -0.1005(7) -0.4051(6) -0.1884(4)
C3A C -0.0005(8) -0.5299(8) -0.1798(5)
H4A H 0.0425 -0.5528 -0.1323
C4A C 0.0360(7) -0.6219(7) -0.2428(5)
H5A H 0.1061 -0.7074 -0.2385
C5A C -0.0314(7) -0.5875(7) -0.3126(4)
H6A H -0.0089 -0.6517 -0.3538
O6A O 0.0209(13) -0.3618(9) -0.0450(5)
C6A C -0.1046(14) -0.2822(11) -0.0592(6)
C7A C -0.2077(13) -0.1674(10) -0.0014(5)
H7A H -0.2502 -0.0906 -0.0339
H8A H -0.3054 -0.1921 0.0316
C8A C -0.1098(15) -0.1268(12) 0.0558(5)
H9A H -0.0496 -0.2066 0.0807
H10A H -0.1904 -0.0708 0.0998
C9A C 0.0172(15) -0.0520(11) 0.0141(6)
H11A H 0.0940 -0.1107 -0.0297
H12A H 0.0840 -0.0455 0.0543
Cu1A Cu -0.22227(7) -0.39423(7) -0.42221(4)
O2A O -0.4536(4) -0.4078(3) -0.36556(19)
O3A O -0.4925(4) -0.1998(3) -0.3205(2)
O4A O -0.8123(5) -0.4123(4) -0.5216(3)
O5A O -1.0462(5) -0.2973(4) -0.4430(3)
C19A C -0.5445(6) -0.2993(5) -0.3259(3)
C20A C -0.7278(6) -0.2989(5) -0.2848(3)
H23A H -0.7345 -0.3130 -0.2262
H24A H -0.7560 -0.3729 -0.3070
C21A C -0.8566(6) -0.1710(5) -0.2973(3)
C22A C -0.9415(6) -0.0843(5) -0.2305(3)
H25A H -0.9157 -0.1058 -0.1789
C23A C -1.0625(6) 0.0323(5) -0.2396(3)
H26A H -1.1176 0.0887 -0.1943
C24A C -1.1018(7) 0.0653(6) -0.3154(3)
H27A H -1.1841 0.1437 -0.3219
C25A C -1.0183(7) -0.0186(5) -0.3816(3)
H28A H -1.0456 0.0044 -0.4328
C26A C -0.8939(5) -0.1370(5) -0.3749(3)
C27A C -0.8019(6) -0.2229(5) -0.4506(3)
H29A H -0.7830 -0.1646 -0.4969
H30A H -0.6911 -0.2739 -0.4417
C28A C -0.8941(6) -0.3205(5) -0.4739(3)
Cu1_2 Cu -0.77773(7) -0.60577(7) -0.57779(4)
Cu1_3 Cu 1.22227(7) 0.39423(7) 0.42221(4)
Cu1A_2 Cu -1.22227(7) -0.39423(7) -0.42221(4)
Cu1A_3 Cu 0.77773(7) 0.60577(7) 0.57779(4)
Cu1A_4 Cu 0.77773(7) 0.60577(7) 1.57779(4)
O4_2 O -0.1877(5) -0.5877(4) -0.4784(3)
O4A_2 O 0.1877(5) 0.5877(4) 0.4784(3)
O5_2 O 0.0462(5) 0.2973(4) 0.4430(3)
O5A_2 O -0.0462(5) -0.2973(4) -0.4430(3)
N3A_2 N -0.3173(5) -0.2920(4) -0.5147(2)
O7 O 0.4619(7) 0.0892(6) 0.1712(3)
O8? O -0.117(2) 0.3998(17) 0.0783(10)
C29? C 0.023(4) 0.328(3) 0.0708(16)
C30? C 0.115(3) 0.233(3) 0.0038(16)
H31? H 0.1779 0.1529 0.0269
H32? H 0.1973 0.2720 -0.0320
C31? C 0.005(3) 0.193(3) -0.0490(16)
H33? H -0.0713 0.2736 -0.0653
H34? H 0.0791 0.1486 -0.0988
C32? C -0.099(3) 0.102(3) -0.0053(19)
C33? C 0.449(2) 0.4315(16) 0.9045(9)
H35? H 0.3324 0.4748 0.9003
H36? H 0.4493 0.3492 0.9346
O9? O 0.449(4) 0.174(3) 0.1502(18)
C34? C 0.5108(16) 0.5229(13) 0.9532(7)
H37? H 0.6295 0.5175 0.9301
H38? H 0.4448 0.6149 0.9500
loop_
_geom_bond_atom_site_label_1
_geom_bond_atom_site_label_2
_geom_bond_site_symmetry_1
_geom_bond_site_symmetry_2
Cu1 O2 1_555 1_555
O1 C15 1_555 1_555
O2 C19 1_555 1_555
O3 C19 1_555 1_555
O4 C28 1_555 1_555
O5 C28 1_555 1_555
N1 Cu1 1_555 1_555
N2 H1 1_555 1_555
N3 Cu1 1_555 1_555
N4 H2 1_555 1_555
C1 N1 1_555 1_555
H3 C1 1_555 1_555
C2 N2 1_555 1_555
C3 C2 1_555 1_555
H4 C3 1_555 1_555
C4 C3 1_555 1_555
H5 C4 1_555 1_555
C5 N1 1_555 1_555
H6 C5 1_555 1_555
O6 C6 1_555 1_555
C6 N2 1_555 1_555
C7 C6 1_555 1_555
H7 C7 1_555 1_555
H8 C7 1_555 1_555
C8 C7 1_555 1_555
H9 C8 1_555 1_555
H10 C8 1_555 1_555
C9 C8 1_555 1_555
H11 C9 1_555 1_555
H12 C9 1_555 1_555
C10 N3 1_555 1_555
H13 C10 1_555 1_555
C11 N4 1_555 1_555
C12 C11 1_555 1_555
H14 C12 1_555 1_555
C13 C12 1_555 1_555
H15 C13 1_555 1_555
C14 N3 1_555 1_555
H16 C14 1_555 1_555
C15 N4 1_555 1_555
C16 C15 1_555 1_555
H17 C16 1_555 1_555
H18 C16 1_555 1_555
C17 C16 1_555 1_555
H19 C17 1_555 1_555
H20 C17 1_555 1_555
C18 C17 1_555 1_555
H21 C18 1_555 1_555
H22 C18 1_555 1_555
C19 C20 1_555 1_555
C20 H23 1_555 1_555
H24 C20 1_555 1_555
C21 C20 1_555 1_555
C22 C21 1_555 1_555
H25 C22 1_555 1_555
C23 C22 1_555 1_555
H26 C23 1_555 1_555
C24 C23 1_555 1_555
H27 C24 1_555 1_555
C25 C24 1_555 1_555
H28 C25 1_555 1_555
C26 C21 1_555 1_555
C27 C26 1_555 1_555
H29 C27 1_555 1_555
H30 C27 1_555 1_555
C28 C27 1_555 1_555
O1A C15A 1_555 1_555
N3A C10A 1_555 1_555
N4A H2A 1_555 1_555
C10A H13A 1_555 1_555
C11A N4A 1_555 1_555
C12A C11A 1_555 1_555
H14A C12A 1_555 1_555
C13A C12A 1_555 1_555
H15A C13A 1_555 1_555
C14A N3A 1_555 1_555
H16A C14A 1_555 1_555
C15A N4A 1_555 1_555
C16A C15A 1_555 1_555
H17A C16A 1_555 1_555
H18A C16A 1_555 1_555
C17A C16A 1_555 1_555
H19A C17A 1_555 1_555
H20A C17A 1_555 1_555
C18A C18 1_555 1_555
H21A C18A 1_555 1_555
H22A C18A 1_555 1_555
N1A C1A 1_555 1_555
N2A H1A 1_555 1_555
C1A H3A 1_555 1_555
C2A N2A 1_555 1_555
C3A C2A 1_555 1_555
H4A C3A 1_555 1_555
C4A C3A 1_555 1_555
H5A C4A 1_555 1_555
C5A N1A 1_555 1_555
H6A C5A 1_555 1_555
O6A C6A 1_555 1_555
C6A N2A 1_555 1_555
C7A C6A 1_555 1_555
H7A C7A 1_555 1_555
H8A C7A 1_555 1_555
C8A C7A 1_555 1_555
H9A C8A 1_555 1_555
H10A C8A 1_555 1_555
C9A C9 1_555 1_555
H11A C9A 1_555 1_555
H12A C9A 1_555 1_555
Cu1A N1A 1_555 1_555
O2A Cu1A 1_555 1_555
O3A C19A 1_555 1_555
O4A C28A 1_555 1_555
O5A C28A 1_555 1_555
C19A O2A 1_555 1_555
C20A C19A 1_555 1_555
H23A C20A 1_555 1_555
H24A C20A 1_555 1_555
C21A C20A 1_555 1_555
C22A C21A 1_555 1_555
H25A C22A 1_555 1_555
C23A C22A 1_555 1_555
H26A C23A 1_555 1_555
C24A C23A 1_555 1_555
H27A C24A 1_555 1_555
C25A C24A 1_555 1_555
H28A C25A 1_555 1_555
C26A C21A 1_555 1_555
C27A C26A 1_555 1_555
H29A C27A 1_555 1_555
H30A C27A 1_555 1_555
C28A C27A 1_555 1_555
Cu1_2 O4A 1_555 1_555
Cu1_3 O5 1_555 1_555
Cu1A_2 O5A 1_555 1_555
Cu1A_3 O4 1_555 1_555
Cu1A_4 N3A 1_555 1_555
O4_2 Cu1A 1_555 1_555
O4A_2 Cu1 1_555 1_555
O5_2 Cu1 1_555 1_555
O5A_2 Cu1A 1_555 1_555
N3A_2 Cu1A 1_555 1_555
C1 C2 1_555 1_555
C4 C5 1_555 1_555
C10 C11 1_555 1_555
C13 C14 1_555 1_555
C25 C26 1_555 1_555
C10A C11A 1_555 1_555
C13A C14A 1_555 1_555
C17A C18A 1_555 1_555
C1A C2A 1_555 1_555
C4A C5A 1_555 1_555
C8A C9A 1_555 1_555
C25A C26A 1_555 1_555

#END
