
#######################################################################
#
#                 Cambridge Crystallographic Data Centre
#                                CCDC 
#
#######################################################################
#
# If this CIF has been generated from an entry in the Cambridge 
# Structural Database, then it will include bibliographic, chemical, 
# crystal, experimental, refinement or atomic coordinate data resulting 
# from the CCDC's data processing and validation procedures.
#
#######################################################################

data_PORJEN
_symmetry_cell_setting           orthorhombic
_symmetry_space_group_name_H-M   'P m n a'
_symmetry_Int_Tables_number      53
_space_group_name_Hall           '-P 2ac 2'
loop_
_symmetry_equiv_pos_site_id
_symmetry_equiv_pos_as_xyz
1 x,y,z
2 1/2-x,-y,1/2+z
3 1/2-x,y,1/2-z
4 x,-y,-z
5 -x,-y,-z
6 1/2+x,y,1/2-z
7 1/2+x,-y,1/2+z
8 -x,y,z
_cell_length_a                   15.8723(8)
_cell_length_b                   12.1103(6)
_cell_length_c                   14.8539(7)
_cell_angle_alpha                90
_cell_angle_beta                 90
_cell_angle_gamma                90
_cell_volume                     2855.19
loop_
_atom_site_label
_atom_site_type_symbol
_atom_site_fract_x
_atom_site_fract_y
_atom_site_fract_z
Cu1 Cu 0.5000 0.46051(6) 0.39338(5)
O1 O 0.7223(3) 0.7701(3) 0.3782(4)
O2 O 0.5000 0.6048(3) 0.4546(3)
O3 O 0.5000 0.6952(4) 0.3249(4)
O4 O 0.5000 1.3146(4) 0.3381(4)
O5 O 0.5000 1.3709(4) 0.1958(4)
N1 N 0.6287(3) 0.4559(3) 0.3868(3)
N2 N 0.8162(3) 0.6313(4) 0.3596(3)
H1 H 0.8685 0.6173 0.3498
C1 C 0.6764(3) 0.5450(4) 0.3734(3)
H2 H 0.6504 0.6131 0.3658
C2 C 0.7638(4) 0.5392(4) 0.3705(4)
C3 C 0.8024(4) 0.4385(5) 0.3807(4)
H3 H 0.8608 0.4322 0.3787
C4 C 0.7523(4) 0.3468(5) 0.3940(5)
H4 H 0.7768 0.2774 0.4006
C5 C 0.6668(4) 0.3582(5) 0.3973(4)
H5 H 0.6338 0.2959 0.4072
C6 C 0.7951(4) 0.7395(5) 0.3623(4)
C7 C 0.8658(4) 0.8180(5) 0.3452(5)
H6 H 0.8747 0.8230 0.2807
H7 H 0.9167 0.7878 0.3717
C8 C 0.8528(5) 0.9331(5) 0.3816(4)
H8 H 0.8974 0.9802 0.3589
H9 H 0.7999 0.9614 0.3586
C9 C 0.8516(5) 0.9409(5) 0.4826(5)
H10 H 0.9005 0.9028 0.5064
H11 H 0.8018 0.9034 0.5050
C10 C 0.5000 0.6947(6) 0.4073(5)
C11 C 0.5000 0.8028(6) 0.4592(6)
H12 H 0.5489 0.8042 0.4973
C12 C 0.5000 0.9057(6) 0.4038(5)
C13 C 0.5736(5) 0.9543(5) 0.3774(4)
H13 H 0.6246 0.9248 0.3968
C14 C 0.5740(5) 1.0462(5) 0.3225(5)
H14 H 0.6251 1.0784 0.3065
C15 C 0.5000 1.0908(7) 0.2911(6)
C16 C 0.5000 1.1792(6) 0.2241(6)
H15 H 0.5489 1.1688 0.1870
C17 C 0.5000 1.2995(6) 0.2547(5)
O1C O 0.7223(3) 1.2299(3) 0.6218(4)
N1C N 0.6287(3) 1.5441(3) 0.6132(3)
N2C N 0.8162(3) 1.3687(4) 0.6404(3)
H1C H 0.8685 1.3827 0.6502
C1C C 0.6764(3) 1.4550(4) 0.6266(3)
H2C H 0.6504 1.3869 0.6342
C2C C 0.7638(4) 1.4608(4) 0.6295(4)
C3C C 0.8024(4) 1.5615(5) 0.6193(4)
H3C H 0.8608 1.5678 0.6213
C4C C 0.7523(4) 1.6532(5) 0.6060(5)
H4C H 0.7768 1.7226 0.5994
C5C C 0.6668(4) 1.6418(5) 0.6027(4)
H5C H 0.6338 1.7041 0.5928
C6C C 0.7951(4) 1.2605(5) 0.6377(4)
C7C C 0.8658(4) 1.1820(5) 0.6548(5)
H6C H 0.8747 1.1770 0.7193
H7C H 0.9167 1.2122 0.6283
C8C C 0.8528(5) 1.0669(5) 0.6184(4)
H8C H 0.8974 1.0198 0.6411
H9C H 0.7999 1.0386 0.6414
C9C C 0.8516(5) 1.0591(5) 0.5174(5)
H10C H 0.9005 1.0972 0.4936
H11C H 0.8018 1.0966 0.4950
H12G H 0.4511 0.8042 0.4973
C13G C 0.4264(5) 0.9543(5) 0.3774(4)
H13G H 0.3754 0.9248 0.3968
C14G C 0.4260(5) 1.0462(5) 0.3225(5)
H14G H 0.3749 1.0784 0.3065
H15G H 0.4511 1.1688 0.1870
Cu1_2 Cu 0.5000 1.46051(6) 0.39338(5)
Cu1C Cu 0.5000 0.53949(6) 0.60662(5)
Cu1C_2 Cu 0.5000 1.53949(6) 0.60662(5)
O2C O 0.5000 0.3952(3) 0.5454(3)
O4_2 O 0.5000 0.3146(4) 0.3381(4)
N1G N 0.3713(3) 0.4559(3) 0.3868(3)
O6 O 1.0000 0.5870(4) 0.3306(3)
H16 H 1.0000 0.5207 0.3118
H17 H 1.0000 0.6301 0.2854
O7 O 1.0000 0.681(2) 0.5148(14)
H18 H 1.0000 0.6534 0.5674
H19 H 1.0000 0.6290 0.4766
loop_
_geom_bond_atom_site_label_1
_geom_bond_atom_site_label_2
_geom_bond_site_symmetry_1
_geom_bond_site_symmetry_2
Cu1 O2 1_555 1_555
O1 C6 1_555 1_555
O2 C10 1_555 1_555
O3 C10 1_555 1_555
O4 C17 1_555 1_555
O5 C17 1_555 1_555
N1 Cu1 1_555 1_555
N2 H1 1_555 1_555
C1 N1 1_555 1_555
H2 C1 1_555 1_555
C2 N2 1_555 1_555
C3 C2 1_555 1_555
H3 C3 1_555 1_555
C4 C3 1_555 1_555
H4 C4 1_555 1_555
C5 N1 1_555 1_555
H5 C5 1_555 1_555
C6 N2 1_555 1_555
C7 C6 1_555 1_555
H6 C7 1_555 1_555
H7 C7 1_555 1_555
C8 C7 1_555 1_555
H8 C8 1_555 1_555
H9 C8 1_555 1_555
C9 C8 1_555 1_555
H10 C9 1_555 1_555
H11 C9 1_555 1_555
C10 C11 1_555 1_555
C11 H12 1_555 1_555
C12 C11 1_555 1_555
C13 C12 1_555 1_555
H13 C13 1_555 1_555
C14 C13 1_555 1_555
H14 C14 1_555 1_555
C15 C14 1_555 1_555
C16 C15 1_555 1_555
H15 C16 1_555 1_555
C17 C16 1_555 1_555
O6 H16 1_555 1_555
H17 O6 1_555 1_555
O7 H18 1_555 1_555
H19 O7 1_555 1_555
O1C C6C 1_555 1_555
N1C C1C 1_555 1_555
N2C H1C 1_555 1_555
C1C H2C 1_555 1_555
C2C N2C 1_555 1_555
C3C C2C 1_555 1_555
H3C C3C 1_555 1_555
C4C C3C 1_555 1_555
H4C C4C 1_555 1_555
C5C N1C 1_555 1_555
H5C C5C 1_555 1_555
C6C N2C 1_555 1_555
C7C C6C 1_555 1_555
H6C C7C 1_555 1_555
H7C C7C 1_555 1_555
C8C C7C 1_555 1_555
H8C C8C 1_555 1_555
H9C C8C 1_555 1_555
C9C C9 1_555 1_555
H10C C9C 1_555 1_555
H11C C9C 1_555 1_555
H12G C11 1_555 1_555
C13G C12 1_555 1_555
H13G C13G 1_555 1_555
C14G C15 1_555 1_555
H14G C14G 1_555 1_555
H15G C16 1_555 1_555
Cu1_2 O4 1_555 1_555
Cu1C O2 1_555 1_555
Cu1C_2 N1C 1_555 1_555
O2C Cu1 1_555 1_555
O4_2 Cu1 1_555 1_555
N1G Cu1 1_555 1_555
C1 C2 1_555 1_555
C4 C5 1_555 1_555
C1C C2C 1_555 1_555
C4C C5C 1_555 1_555
C8C C9C 1_555 1_555
C13G C14G 1_555 1_555
Cu1C O2C 1_555 1_555

#END
