
#######################################################################
#
#                 Cambridge Crystallographic Data Centre
#                                CCDC 
#
#######################################################################
#
# If this CIF has been generated from an entry in the Cambridge 
# Structural Database, then it will include bibliographic, chemical, 
# crystal, experimental, refinement or atomic coordinate data resulting 
# from the CCDC's data processing and validation procedures.
#
#######################################################################

data_PORKUE
_symmetry_cell_setting           monoclinic
_symmetry_space_group_name_H-M   'P 21/n'
_symmetry_Int_Tables_number      14
_space_group_name_Hall           '-P 2yn'
loop_
_symmetry_equiv_pos_site_id
_symmetry_equiv_pos_as_xyz
1 x,y,z
2 1/2-x,1/2+y,1/2-z
3 -x,-y,-z
4 1/2+x,1/2-y,1/2+z
_cell_length_a                   8.3838(3)
_cell_length_b                   6.6051(2)
_cell_length_c                   15.2829(5)
_cell_angle_alpha                90
_cell_angle_beta                 90.847(3)
_cell_angle_gamma                90
_cell_volume                     846.211
loop_
_atom_site_label
_atom_site_type_symbol
_atom_site_fract_x
_atom_site_fract_y
_atom_site_fract_z
Cu1 Cu 0.5000 0.0000 0.5000
Cl1 Cl 0.52774(6) -0.23435(7) 0.38997(3)
N1 N 0.32028(19) 0.1310(2) 0.43283(11)
N2 N 0.1100(2) 0.1649(3) 0.34874(12)
N3 N -0.3172(2) 0.2442(3) 0.41638(11)
C1 C 0.3089(2) 0.3237(3) 0.41177(13)
N4 N -0.3456(2) 0.2593(2) 0.32831(11)
C2 C -0.2439(2) 0.3958(3) 0.30093(14)
N5 N 0.18175(19) 0.3482(2) 0.35981(11)
N6 N -0.2040(2) 0.3665(3) 0.44121(11)
N7 N -0.15638(19) 0.4640(2) 0.36857(11)
N8 N 0.1947(2) 0.0350(3) 0.39268(12)
C3 C -0.0263(2) 0.6114(3) 0.37051(14)
C4 C 0.1169(3) 0.5336(3) 0.32064(14)
H1 H 0.191(3) 0.628(3) 0.3243(13)
H2 H -0.002(3) 0.630(3) 0.4293(16)
H3 H 0.374(3) 0.422(4) 0.4261(15)
H4 H -0.064(3) 0.737(3) 0.3445(14)
H5 H 0.092(3) 0.505(3) 0.2635(16)
H6 H -0.226(3) 0.435(3) 0.2473(16)
N1B N -0.32028(19) -0.1310(2) 0.56717(11)
N2B N -0.1100(2) -0.1649(3) 0.65126(12)
N3B N 0.3172(2) -0.2442(3) 0.58362(11)
C1B C -0.3089(2) -0.3237(3) 0.58823(13)
N4B N 0.3456(2) -0.2593(2) 0.67169(11)
C2B C 0.2439(2) -0.3958(3) 0.69907(14)
N5B N -0.18175(19) -0.3482(2) 0.64019(11)
N6B N 0.2040(2) -0.3665(3) 0.55879(11)
N7B N 0.15638(19) -0.4640(2) 0.63143(11)
N8B N -0.1947(2) -0.0350(3) 0.60732(12)
C3B C 0.0263(2) -0.6114(3) 0.62949(14)
C4B C -0.1169(3) -0.5336(3) 0.67936(14)
H1B H -0.191(3) -0.628(3) 0.6757(13)
H2B H 0.002(3) -0.630(3) 0.5707(16)
H3B H -0.374(3) -0.422(4) 0.5739(15)
H4B H 0.064(3) -0.737(3) 0.6555(14)
H5B H -0.092(3) -0.505(3) 0.7365(16)
H6B H 0.226(3) -0.435(3) 0.7527(16)
Cl1B Cl 0.47226(6) 0.23435(7) 0.61003(3)
Cu1_2 Cu -0.5000 0.0000 0.5000
N1B_2 N 0.67972(19) -0.1310(2) 0.56717(11)
N3_2 N 0.6828(2) 0.2442(3) 0.41638(11)
loop_
_geom_bond_atom_site_label_1
_geom_bond_atom_site_label_2
_geom_bond_site_symmetry_1
_geom_bond_site_symmetry_2
Cu1 Cl1 1_555 1_555
N1 Cu1 1_555 1_555
N2 N5 1_555 1_555
N3 N4 1_555 1_555
C1 N1 1_555 1_555
N4 C2 1_555 1_555
C2 N7 1_555 1_555
N5 C1 1_555 1_555
N6 N3 1_555 1_555
N7 N6 1_555 1_555
N8 N1 1_555 1_555
C3 N7 1_555 1_555
C4 N5 1_555 1_555
H1 C4 1_555 1_555
H2 C3 1_555 1_555
H3 C1 1_555 1_555
H4 C3 1_555 1_555
H5 C4 1_555 1_555
H6 C2 1_555 1_555
N1B C1B 1_555 1_555
N2B N5B 1_555 1_555
N3B Cu1 1_555 1_555
C1B N5B 1_555 1_555
N4B N3B 1_555 1_555
C2B N4B 1_555 1_555
N5B C4B 1_555 1_555
N6B N3B 1_555 1_555
N7B C2B 1_555 1_555
N8B N1B 1_555 1_555
C3B N7B 1_555 1_555
C4B C3B 1_555 1_555
H1B C4B 1_555 1_555
H2B C3B 1_555 1_555
H3B C1B 1_555 1_555
H4B C3B 1_555 1_555
H5B C4B 1_555 1_555
H6B C2B 1_555 1_555
Cl1B Cu1 1_555 1_555
Cu1_2 N3 1_555 1_555
N1B_2 Cu1 1_555 1_555
N3_2 Cu1 1_555 1_555
N2 N8 1_555 1_555
C3 C4 1_555 1_555
N1B Cu1_2 1_555 1_555
N2B N8B 1_555 1_555
N6B N7B 1_555 1_555

#END
