
#######################################################################
#
#                 Cambridge Crystallographic Data Centre
#                                CCDC 
#
#######################################################################
#
# If this CIF has been generated from an entry in the Cambridge 
# Structural Database, then it will include bibliographic, chemical, 
# crystal, experimental, refinement or atomic coordinate data resulting 
# from the CCDC's data processing and validation procedures.
#
#######################################################################

data_PORVEZ
_symmetry_cell_setting           orthorhombic
_symmetry_space_group_name_H-M   'C m c m'
_symmetry_Int_Tables_number      63
_space_group_name_Hall           '-C 2n 2'
loop_
_symmetry_equiv_pos_site_id
_symmetry_equiv_pos_as_xyz
1 x,y,z
2 -x,-y,1/2+z
3 x,-y,-z
4 -x,y,1/2-z
5 1/2+x,1/2+y,z
6 1/2-x,1/2-y,1/2+z
7 1/2+x,1/2-y,-z
8 1/2-x,1/2+y,1/2-z
9 -x,-y,-z
10 x,y,1/2-z
11 -x,y,z
12 x,-y,1/2+z
13 1/2-x,1/2-y,-z
14 1/2+x,1/2+y,1/2-z
15 1/2-x,1/2+y,z
16 1/2+x,1/2-y,1/2+z
_cell_length_a                   13.6926(5)
_cell_length_b                   14.4208(5)
_cell_length_c                   7.0461(3)
_cell_angle_alpha                90
_cell_angle_beta                 90
_cell_angle_gamma                90
_cell_volume                     1391.31
loop_
_atom_site_label
_atom_site_type_symbol
_atom_site_fract_x
_atom_site_fract_y
_atom_site_fract_z
Mn1 Mn 0.5000 0.49874(4) 0.7500
N1 N 0.5000 0.39910(19) 0.4908(3)
N2 N 0.34040(17) 0.48031(17) 0.7500
N3 N 0.5000 0.3165(2) 0.4880(3)
C1 C 0.2974(2) 0.3931(2) 0.7500
H1 H 0.3318 0.3359 0.7500
N4 N 0.1809(2) 0.49563(15) 0.7500
H2 H 0.1229 0.5218 0.7500
C2 C 0.2754(2) 0.6435(2) 0.7500
C3 C 0.1991(2) 0.4021(2) 0.7500
H3 H 0.1522 0.3536 0.7500
N5 N 0.5000 0.2366(2) 0.4837(4)
C4 C 0.2670(2) 0.54061(19) 0.7500
H4 H 0.2465 0.6696 0.6469
H5 H 0.3381 0.6630 0.7500
H4I H 0.2465 0.6696 0.8531
N1B N 0.5000 0.60090(19) 0.5092(3)
N3B N 0.5000 0.6835(2) 0.5120(3)
N5B N 0.5000 0.7634(2) 0.5163(4)
N2C N 0.65960(17) 0.48031(17) 0.7500
C1C C 0.7026(2) 0.3931(2) 0.7500
H1C H 0.6682 0.3359 0.7500
N4C N 0.8191(2) 0.49563(15) 0.7500
H2C H 0.8771 0.5218 0.7500
C2C C 0.7246(2) 0.6435(2) 0.7500
C3C C 0.8009(2) 0.4021(2) 0.7500
H3C H 0.8478 0.3536 0.7500
C4C C 0.7330(2) 0.54061(19) 0.7500
H4J H 0.7535 0.6696 0.6469
H5C H 0.6619 0.6630 0.7500
H4C H 0.7535 0.6696 0.8531
Mn1A Mn 0.5000 0.50126(4) 0.2500
N1A N 0.5000 0.60090(19) 0.9908(3)
N1C N 0.5000 0.39910(19) 1.0092(3)
O1 O 0.5000 0.90717(19) 0.2500
H6 H 0.5000 0.8783 0.1389
H6C H 0.5000 0.8783 0.3611
loop_
_geom_bond_atom_site_label_1
_geom_bond_atom_site_label_2
_geom_bond_site_symmetry_1
_geom_bond_site_symmetry_2
Mn1 N1 1_555 1_555
N1 N3 1_555 1_555
N2 Mn1 1_555 1_555
N3 N5 1_555 1_555
C1 N2 1_555 1_555
H1 C1 1_555 1_555
N4 H2 1_555 1_555
C2 C4 1_555 1_555
C3 C1 1_555 1_555
H3 C3 1_555 1_555
C4 N2 1_555 1_555
H4 C2 1_555 1_555
H5 C2 1_555 1_555
O1 H6 1_555 1_555
H4I C2 1_555 1_555
N1B Mn1 1_555 1_555
N3B N1B 1_555 1_555
N5B N3B 1_555 1_555
N2C Mn1 1_555 1_555
C1C N2C 1_555 1_555
H1C C1C 1_555 1_555
N4C H2C 1_555 1_555
C2C C4C 1_555 1_555
C3C C1C 1_555 1_555
H3C C3C 1_555 1_555
C4C N2C 1_555 1_555
H4J C2C 1_555 1_555
H5C C2C 1_555 1_555
H4C C2C 1_555 1_555
Mn1A N1 1_555 1_555
N1A Mn1 1_555 1_555
N1C Mn1 1_555 1_555
H6C O1 1_555 1_555
N4 C3 1_555 1_555
N4 C4 1_555 1_555
N1B Mn1A 1_555 1_555
N4C C3C 1_555 1_555
N4C C4C 1_555 1_555

#END
