
#######################################################################
#
#                 Cambridge Crystallographic Data Centre
#                                CCDC 
#
#######################################################################
#
# If this CIF has been generated from an entry in the Cambridge 
# Structural Database, then it will include bibliographic, chemical, 
# crystal, experimental, refinement or atomic coordinate data resulting 
# from the CCDC's data processing and validation procedures.
#
#######################################################################

data_PORVUO
_symmetry_cell_setting           monoclinic
_symmetry_space_group_name_H-M   'C 2/c'
_symmetry_Int_Tables_number      15
_space_group_name_Hall           '-C 2yn'
loop_
_symmetry_equiv_pos_site_id
_symmetry_equiv_pos_as_xyz
1 x,y,z
2 -x,y,1/2-z
3 1/2+x,1/2+y,z
4 1/2-x,1/2+y,1/2-z
5 -x,-y,-z
6 x,-y,1/2+z
7 1/2-x,1/2-y,-z
8 1/2+x,1/2-y,1/2+z
_cell_length_a                   28.738(3)
_cell_length_b                   6.2226(8)
_cell_length_c                   17.5045(17)
_cell_angle_alpha                90
_cell_angle_beta                 102.521(2)
_cell_angle_gamma                90
_cell_volume                     3055.8
loop_
_atom_site_label
_atom_site_type_symbol
_atom_site_fract_x
_atom_site_fract_y
_atom_site_fract_z
Zn1 Zn 1.0000 0.43648(16) 0.7500
N1 N 0.9987(2) 0.6378(9) 0.8420(3)
O1 O 0.94917(19) 0.2310(9) 0.7089(4)
O2 O 0.9030(2) 0.5094(11) 0.7132(4)
C1 C 0.9088(3) 0.3209(12) 0.6963(5)
C2 C 0.8673(3) 0.1894(12) 0.6537(4)
C3 C 0.8743(3) -0.0148(14) 0.6274(5)
H1 H 0.9047 -0.0736 0.6380
C4 C 0.8363(3) -0.1339(15) 0.5852(6)
H2 H 0.8415 -0.2723 0.5688
C5 C 0.7909(3) -0.0476(14) 0.5674(5)
C6 C 0.7845(3) 0.1579(16) 0.5952(6)
H3 H 0.7540 0.2166 0.5848
C7 C 0.8216(3) 0.2768(14) 0.6375(5)
H4 H 0.8162 0.4137 0.6550
C8 C 0.7494(3) -0.1616(15) 0.5201(6)
H5 H 0.7195 -0.1023 0.5189
C9 C 0.9709(3) 0.8144(13) 0.8335(5)
H6 H 0.9508 0.8398 0.7850
C10 C 0.9706(3) 0.9591(13) 0.8930(5)
H7 H 0.9511 1.0796 0.8840
C11 C 1.0000(2) 0.9243(10) 0.9673(4)
C12 C 1.0287(3) 0.7431(13) 0.9750(4)
H8 H 1.0504 0.7155 1.0217
C13 C 1.0247(3) 0.6039(12) 0.9121(5)
H9 H 1.0419 0.4762 0.9203
Zn1D Zn 1.0000 1.56352(16) 1.2500
Zn1F Zn 0.5000 -0.93648(16) 0.2500
N1D N 1.0013(2) 1.3622(9) 1.1580(3)
N1A N 1.0013(2) 0.6378(9) 0.6580(3)
O1F O 0.55083(19) -0.7310(9) 0.2911(4)
O1A O 1.05083(19) 0.2310(9) 0.7911(4)
O2F O 0.5970(2) -1.0094(11) 0.2868(4)
C1F C 0.5912(3) -0.8209(12) 0.3037(5)
C2F C 0.6327(3) -0.6894(12) 0.3463(4)
C3F C 0.6257(3) -0.4852(14) 0.3726(5)
H1F H 0.5953 -0.4264 0.3620
C4F C 0.6637(3) -0.3661(15) 0.4148(6)
H2F H 0.6585 -0.2277 0.4312
C5F C 0.7091(3) -0.4524(14) 0.4326(5)
C6F C 0.7155(3) -0.6579(16) 0.4048(6)
H3F H 0.7460 -0.7166 0.4152
C7F C 0.6784(3) -0.7768(14) 0.3625(5)
H4F H 0.6838 -0.9137 0.3450
C8F C 0.7506(3) -0.3384(15) 0.4799(6)
H5F H 0.7805 -0.3977 0.4811
C9D C 1.0291(3) 1.1856(13) 1.1665(5)
H6D H 1.0492 1.1602 1.2150
C10D C 1.0294(3) 1.0409(13) 1.1070(5)
H7D H 1.0489 0.9204 1.1160
C11D C 1.0000(2) 1.0757(10) 1.0327(4)
C12D C 0.9713(3) 1.2569(13) 1.0250(4)
H8D H 0.9496 1.2845 0.9783
C13D C 0.9753(3) 1.3961(12) 1.0879(5)
H9D H 0.9581 1.5238 1.0797
N2 N 0.1601(4) 0.211(2) 0.1305(6)
O3 O 0.1267(5) 0.484(2) 0.0542(8)
C14 C 0.1362(6) 0.289(3) 0.0635(9)
H10 H 0.1261 0.1952 0.0218
C15 C 0.1825(7) 0.342(3) 0.1964(10)
H11 H 0.2156 0.3601 0.1960
H12 H 0.1796 0.2720 0.2441
H13 H 0.1672 0.4794 0.1929
C16 C 0.1679(7) -0.023(3) 0.1373(11)
H14 H 0.1413 -0.0965 0.1054
H15 H 0.1712 -0.0659 0.1909
H16 H 0.1965 -0.0595 0.1201
loop_
_geom_bond_atom_site_label_1
_geom_bond_atom_site_label_2
_geom_bond_site_symmetry_1
_geom_bond_site_symmetry_2
Zn1 N1 1_555 1_555
N1 C9 1_555 1_555
N2 C14 1_555 1_555
O1 Zn1 1_555 1_555
O2 C1 1_555 1_555
O3 C14 1_555 1_555
C1 O1 1_555 1_555
C2 C1 1_555 1_555
C3 C2 1_555 1_555
H1 C3 1_555 1_555
C4 C3 1_555 1_555
H2 C4 1_555 1_555
C5 C4 1_555 1_555
C6 C5 1_555 1_555
H3 C6 1_555 1_555
C7 C2 1_555 1_555
H4 C7 1_555 1_555
C8 C5 1_555 1_555
H5 C8 1_555 1_555
C9 H6 1_555 1_555
C10 C9 1_555 1_555
H7 C10 1_555 1_555
C11 C10 1_555 1_555
C12 C11 1_555 1_555
H8 C12 1_555 1_555
C13 N1 1_555 1_555
H9 C13 1_555 1_555
C14 H10 1_555 1_555
C15 N2 1_555 1_555
H11 C15 1_555 1_555
H12 C15 1_555 1_555
H13 C15 1_555 1_555
C16 N2 1_555 1_555
H14 C16 1_555 1_555
H15 C16 1_555 1_555
H16 C16 1_555 1_555
Zn1D N1D 1_555 1_555
Zn1F O1F 1_555 1_555
N1D C9D 1_555 1_555
N1A Zn1 1_555 1_555
O1F C1F 1_555 1_555
O1A Zn1 1_555 1_555
O2F C1F 1_555 1_555
C1F C2F 1_555 1_555
C2F C3F 1_555 1_555
C3F H1F 1_555 1_555
C4F C3F 1_555 1_555
H2F C4F 1_555 1_555
C5F C4F 1_555 1_555
C6F C5F 1_555 1_555
H3F C6F 1_555 1_555
C7F C2F 1_555 1_555
H4F C7F 1_555 1_555
C8F C8 1_555 1_555
H5F C8F 1_555 1_555
C9D H6D 1_555 1_555
C10D C9D 1_555 1_555
H7D C10D 1_555 1_555
C11D C11 1_555 1_555
C12D C11D 1_555 1_555
H8D C12D 1_555 1_555
C13D N1D 1_555 1_555
H9D C13D 1_555 1_555
C6 C7 1_555 1_555
C12 C13 1_555 1_555
C5F C8F 1_555 1_555
C6F C7F 1_555 1_555
C10D C11D 1_555 1_555
C12D C13D 1_555 1_555

#END
