
#######################################################################
#
#                 Cambridge Crystallographic Data Centre
#                                CCDC 
#
#######################################################################
#
# If this CIF has been generated from an entry in the Cambridge 
# Structural Database, then it will include bibliographic, chemical, 
# crystal, experimental, refinement or atomic coordinate data resulting 
# from the CCDC's data processing and validation procedures.
#
#######################################################################

data_PORWIE
_symmetry_cell_setting           monoclinic
_symmetry_space_group_name_H-M   'C 2/c'
_symmetry_Int_Tables_number      15
_space_group_name_Hall           '-C 2yn'
loop_
_symmetry_equiv_pos_site_id
_symmetry_equiv_pos_as_xyz
1 x,y,z
2 -x,y,1/2-z
3 1/2+x,1/2+y,z
4 1/2-x,1/2+y,1/2-z
5 -x,-y,-z
6 x,-y,1/2+z
7 1/2-x,1/2-y,-z
8 1/2+x,1/2-y,1/2+z
_cell_length_a                   25.258(5)
_cell_length_b                   11.223(5)
_cell_length_c                   20.026(5)
_cell_angle_alpha                90
_cell_angle_beta                 108.288(5)
_cell_angle_gamma                90
_cell_volume                     5390.05
loop_
_atom_site_label
_atom_site_type_symbol
_atom_site_fract_x
_atom_site_fract_y
_atom_site_fract_z
Mn1 Mn 0.262404(19) 0.22130(5) 0.62194(3)
O1 O 0.27415(9) 0.3678(2) 0.47549(12)
O2 O 0.22847(11) 0.1398(2) 0.70967(13)
O3 O 0.29013(11) 0.2842(2) 0.73289(13)
N1 N 0.18765(11) 0.3413(3) 0.59759(16)
O4 O 0.31811(9) 0.3309(2) 0.58866(12)
C1 C 0.25179(16) 0.2432(3) 0.96386(18)
N2 N 0.10695(12) 0.4189(3) 0.59369(17)
C2 C 0.47338(13) 0.4778(3) 0.50373(18)
N3 N -0.17033(11) 0.5816(3) 0.65242(16)
N4 N -0.09329(12) 0.4868(3) 0.65544(16)
C3 C 0.37196(13) 0.3991(3) 0.51919(17)
C4 C 0.31737(13) 0.3623(3) 0.52788(18)
C5 C 0.25908(15) 0.2129(3) 0.75223(19)
C6 C 0.42428(14) 0.4790(4) 0.44800(19)
H1 H 0.4248 0.5065 0.4044
C7 C -0.12603(14) 0.5828(3) 0.63213(19)
H2 H -0.1180 0.6428 0.6048
C8 C -0.04168(14) 0.4643(3) 0.64112(19)
C9 C 0.25787(15) 0.2197(3) 0.82653(18)
C10 C 0.05570(14) 0.4383(4) 0.6099(2)
C11 C 0.37472(14) 0.4404(3) 0.45540(19)
H3 H 0.3425 0.4421 0.4168
C12 C 0.14660(14) 0.3388(4) 0.6245(2)
H4 H 0.1451 0.2878 0.6604
C13 C -0.00390(15) 0.5562(4) 0.6529(2)
H5 H -0.0120 0.6272 0.6716
C14 C -0.03251(15) 0.3569(3) 0.6122(2)
C15 C 0.04627(15) 0.5467(4) 0.6377(2)
C16 C 0.47039(16) 0.4333(4) 0.5672(2)
H6 H 0.5026 0.4296 0.6056
C17 C -0.16550(16) 0.4800(4) 0.6920(2)
H7 H -0.1910 0.4555 0.7140
C18 C 0.2874(2) 0.3050(5) 0.8708(2)
H8 H 0.3102 0.3562 0.8556
C19 C 0.01795(15) 0.3464(4) 0.5980(2)
H9 H 0.0263 0.2750 0.5800
C20 C 0.17345(17) 0.4271(4) 0.5469(2)
H10 H 0.1947 0.4486 0.5184
C21 C 0.2263(2) 0.1433(4) 0.8516(2)
H11 H 0.2066 0.0826 0.8227
C22 C -0.11870(17) 0.4208(4) 0.6945(2)
H12 H -0.1061 0.3496 0.7178
C23 C 0.42058(16) 0.3944(4) 0.5744(2)
H13 H 0.4200 0.3644 0.6174
C24 C 0.2230(2) 0.1550(4) 0.9191(2)
H14 H 0.2010 0.1022 0.9346
C25 C 0.12398(18) 0.4762(5) 0.5441(2)
H15 H 0.1053 0.5369 0.5143
C26 C 0.2842(2) 0.3168(5) 0.9384(2)
H16 H 0.3046 0.3766 0.9673
C27 C 0.08664(18) 0.6487(4) 0.6523(3)
H17 H 0.1240 0.6189 0.6716
H18 H 0.0786 0.7021 0.6854
H19 H 0.0832 0.6906 0.6094
C28 C -0.0743(2) 0.2574(4) 0.5938(3)
H20 H -0.0723 0.2130 0.6355
H21 H -0.0662 0.2057 0.5601
H22 H -0.1111 0.2900 0.5742
O1D O 0.72585(9) 0.6322(2) 0.52451(12)
O4D O 0.68189(9) 0.6691(2) 0.41134(12)
C2D C 0.52662(13) 0.5222(3) 0.49627(18)
C3D C 0.62804(13) 0.6009(3) 0.48081(17)
C4D C 0.68263(13) 0.6377(3) 0.47212(18)
C6D C 0.57572(14) 0.5210(4) 0.55200(19)
H1D H 0.5752 0.4935 0.5956
C11D C 0.62528(14) 0.5596(3) 0.54460(19)
H3D H 0.6575 0.5579 0.5832
C16D C 0.52961(16) 0.5667(4) 0.4328(2)
H6D H 0.4974 0.5704 0.3944
C23D C 0.57942(16) 0.6056(4) 0.4256(2)
H13D H 0.5800 0.6356 0.3826
O2F O 0.27153(11) 0.3602(2) 1.29033(13)
O3F O 0.20987(11) 0.2158(2) 1.26711(13)
C1F C 0.24821(16) 0.2568(3) 1.03614(18)
C5F C 0.24092(15) 0.2871(3) 1.24777(19)
C9F C 0.24213(15) 0.2803(3) 1.17347(18)
C18F C 0.2126(2) 0.1950(5) 1.1292(2)
H8F H 0.1898 0.1438 1.1444
C21F C 0.2737(2) 0.3567(4) 1.1484(2)
H11F H 0.2934 0.4174 1.1773
C24F C 0.2770(2) 0.3450(4) 1.0809(2)
H14F H 0.2990 0.3978 1.0654
C26F C 0.2158(2) 0.1832(5) 1.0616(2)
H16F H 0.1954 0.1234 1.0327
Mn1D Mn 0.737596(19) 0.77870(5) 0.37806(3)
N1D N 0.81235(11) 0.6587(3) 0.40241(16)
N2D N 0.89305(12) 0.5811(3) 0.40631(17)
N3D N 1.17033(11) 0.4184(3) 0.34758(16)
N4D N 1.09329(12) 0.5132(3) 0.34456(16)
C7D C 1.12603(14) 0.4172(3) 0.36787(19)
H2D H 1.1180 0.3572 0.3952
C8D C 1.04168(14) 0.5357(3) 0.35888(19)
C10D C 0.94430(14) 0.5617(4) 0.3901(2)
C12D C 0.85340(14) 0.6612(4) 0.3755(2)
H4D H 0.8549 0.7122 0.3396
C13D C 1.00390(15) 0.4438(4) 0.3471(2)
H5D H 1.0120 0.3728 0.3284
C14D C 1.03251(15) 0.6431(3) 0.3878(2)
C15D C 0.95373(15) 0.4533(4) 0.3623(2)
C17D C 1.16550(16) 0.5200(4) 0.3080(2)
H7D H 1.1910 0.5445 0.2860
C19D C 0.98205(15) 0.6536(4) 0.4020(2)
H9D H 0.9737 0.7250 0.4200
C20D C 0.82655(17) 0.5729(4) 0.4531(2)
H10D H 0.8053 0.5514 0.4816
C22D C 1.11870(17) 0.5792(4) 0.3055(2)
H12D H 1.1061 0.6504 0.2822
C25D C 0.87602(18) 0.5238(5) 0.4559(2)
H15D H 0.8947 0.4631 0.4857
C27D C 0.91336(18) 0.3513(4) 0.3477(3)
H17D H 0.8760 0.3811 0.3284
H18D H 0.9214 0.2979 0.3146
H19D H 0.9168 0.3094 0.3906
C28D C 1.0743(2) 0.7426(4) 0.4062(3)
H20D H 1.0723 0.7870 0.3645
H21D H 1.0662 0.7943 0.4399
H22D H 1.1111 0.7100 0.4258
Mn1B Mn -0.237596(19) 0.72130(5) 0.62194(3)
Mn1B_2 Mn 0.762404(19) 0.72130(5) 0.62194(3)
Mn1F Mn 0.237596(19) 0.27870(5) 0.37806(3)
Mn1F_2 Mn 0.237596(19) 0.27870(5) 1.37806(3)
Mn1F_3 Mn 1.237596(19) 0.27870(5) 0.37806(3)
O1B O 0.77415(9) 0.8678(2) 0.47549(12)
O1F O 0.22585(9) 0.1322(2) 0.52451(12)
O2D O 0.77153(11) 0.8602(2) 0.29033(13)
O3D O 0.70987(11) 0.7158(2) 0.26711(13)
N3B N 0.32967(11) 0.0816(3) 0.65242(16)
N3F N 0.67033(11) 0.9184(3) 0.34758(16)
O5 O 0.3842(3) 0.4109(7) 0.7299(5)
H23 H 0.4022 0.4507 0.7100
H24 H 0.3745 0.4459 0.7603
O6 O 0.4427(5) 0.6334(11) 0.7634(6)
H25 H 0.4440 0.6679 0.8000
H26 H 0.4660 0.5804 0.7668
O7 O 0.5000 0.3185(7) 0.7500
H27 H 0.4719 0.3478 0.7555
H27A H 0.5281 0.3478 0.7445
O8? O 0.3858(13) 0.628(2) 0.7785(12)
H28? H 0.3563 0.6580 0.7549
H29? H 0.4137 0.6532 0.7728
O9? O 0.3578(2) 0.4772(6) 0.7829(3)
H30? H 0.3444 0.4131 0.7659
H31? H 0.3352 0.5293 0.7842
O10? O 0.4419(8) 0.5290(19) 0.7380(11)
H32? H 0.4235 0.4982 0.6983
H33? H 0.4672 0.4857 0.7639
loop_
_geom_bond_atom_site_label_1
_geom_bond_atom_site_label_2
_geom_bond_site_symmetry_1
_geom_bond_site_symmetry_2
Mn1 O2 1_555 1_555
O1 C4 1_555 1_555
O2 C5 1_555 1_555
O3 Mn1 1_555 1_555
N1 Mn1 1_555 1_555
O4 Mn1 1_555 1_555
C1 C24 1_555 1_555
N2 C10 1_555 1_555
C2 C6 1_555 1_555
N3 C7 1_555 1_555
N4 C7 1_555 1_555
C3 C4 1_555 1_555
C4 O4 1_555 1_555
C5 O3 1_555 1_555
C6 H1 1_555 1_555
C7 H2 1_555 1_555
C8 N4 1_555 1_555
C9 C5 1_555 1_555
C10 C15 1_555 1_555
C11 C3 1_555 1_555
H3 C11 1_555 1_555
C12 N1 1_555 1_555
H4 C12 1_555 1_555
C13 C8 1_555 1_555
H5 C13 1_555 1_555
C14 C8 1_555 1_555
C15 C13 1_555 1_555
C16 C2 1_555 1_555
H6 C16 1_555 1_555
C17 N3 1_555 1_555
H7 C17 1_555 1_555
C18 C9 1_555 1_555
H8 C18 1_555 1_555
C19 C10 1_555 1_555
H9 C19 1_555 1_555
C20 N1 1_555 1_555
H10 C20 1_555 1_555
C21 C9 1_555 1_555
H11 C21 1_555 1_555
C22 N4 1_555 1_555
H12 C22 1_555 1_555
C23 C3 1_555 1_555
H13 C23 1_555 1_555
C24 C21 1_555 1_555
H14 C24 1_555 1_555
C25 N2 1_555 1_555
H15 C25 1_555 1_555
C26 C1 1_555 1_555
H16 C26 1_555 1_555
C27 C15 1_555 1_555
H17 C27 1_555 1_555
H18 C27 1_555 1_555
H19 C27 1_555 1_555
C28 C14 1_555 1_555
H20 C28 1_555 1_555
H21 C28 1_555 1_555
H22 C28 1_555 1_555
O5 H23 1_555 1_555
H24 O5 1_555 1_555
O6 H25 1_555 1_555
H26 O6 1_555 1_555
O7 H27 1_555 1_555
O1D C4D 1_555 1_555
O4D C4D 1_555 1_555
C2D C2 1_555 1_555
C3D C4D 1_555 1_555
C6D C2D 1_555 1_555
H1D C6D 1_555 1_555
C11D C3D 1_555 1_555
H3D C11D 1_555 1_555
C16D C2D 1_555 1_555
H6D C16D 1_555 1_555
C23D C3D 1_555 1_555
H13D C23D 1_555 1_555
O2F C5F 1_555 1_555
O3F C5F 1_555 1_555
C1F C1 1_555 1_555
C5F C9F 1_555 1_555
C9F C18F 1_555 1_555
C18F H8F 1_555 1_555
C21F C9F 1_555 1_555
H11F C21F 1_555 1_555
C24F C1F 1_555 1_555
H14F C24F 1_555 1_555
C26F C1F 1_555 1_555
H16F C26F 1_555 1_555
Mn1D O4D 1_555 1_555
N1D Mn1D 1_555 1_555
N2D C10D 1_555 1_555
N3D C7D 1_555 1_555
N4D C7D 1_555 1_555
C7D H2D 1_555 1_555
C8D N4D 1_555 1_555
C10D C15D 1_555 1_555
C12D N1D 1_555 1_555
H4D C12D 1_555 1_555
C13D C8D 1_555 1_555
H5D C13D 1_555 1_555
C14D C8D 1_555 1_555
C15D C13D 1_555 1_555
C17D N3D 1_555 1_555
H7D C17D 1_555 1_555
C19D C10D 1_555 1_555
H9D C19D 1_555 1_555
C20D N1D 1_555 1_555
H10D C20D 1_555 1_555
C22D N4D 1_555 1_555
H12D C22D 1_555 1_555
C25D N2D 1_555 1_555
H15D C25D 1_555 1_555
C27D C15D 1_555 1_555
H17D C27D 1_555 1_555
H18D C27D 1_555 1_555
H19D C27D 1_555 1_555
C28D C14D 1_555 1_555
H20D C28D 1_555 1_555
H21D C28D 1_555 1_555
H22D C28D 1_555 1_555
Mn1B N3 1_555 1_555
Mn1B_2 O1D 1_555 1_555
Mn1F O1 1_555 1_555
Mn1F_2 O2F 1_555 1_555
Mn1F_3 N3D 1_555 1_555
O1B Mn1D 1_555 1_555
O1F Mn1 1_555 1_555
O2D Mn1D 1_555 1_555
O3D Mn1D 1_555 1_555
N3B Mn1 1_555 1_555
N3F Mn1D 1_555 1_555
H27A O7 1_555 1_555
N2 C12 1_555 1_555
C6 C11 1_555 1_555
C14 C19 1_555 1_555
C16 C23 1_555 1_555
C17 C22 1_555 1_555
C18 C26 1_555 1_555
C20 C25 1_555 1_555
C6D C11D 1_555 1_555
C16D C23D 1_555 1_555
O3F Mn1F_2 1_555 1_555
C18F C26F 1_555 1_555
C21F C24F 1_555 1_555
N2D C12D 1_555 1_555
C14D C19D 1_555 1_555
C17D C22D 1_555 1_555
C20D C25D 1_555 1_555

#END
