
#######################################################################
#
#                 Cambridge Crystallographic Data Centre
#                                CCDC 
#
#######################################################################
#
# If this CIF has been generated from an entry in the Cambridge 
# Structural Database, then it will include bibliographic, chemical, 
# crystal, experimental, refinement or atomic coordinate data resulting 
# from the CCDC's data processing and validation procedures.
#
#######################################################################

data_PORZAZ
_symmetry_cell_setting           triclinic
_symmetry_space_group_name_H-M   'P -1'
_symmetry_Int_Tables_number      2
_space_group_name_Hall           '-P 1'
loop_
_symmetry_equiv_pos_site_id
_symmetry_equiv_pos_as_xyz
1 x,y,z
2 -x,-y,-z
_cell_length_a                   10.4000(3)
_cell_length_b                   13.0672(4)
_cell_length_c                   17.1912(5)
_cell_angle_alpha                101.264(2)
_cell_angle_beta                 103.673(2)
_cell_angle_gamma                108.6010(10)
_cell_volume                     2056.4
loop_
_atom_site_label
_atom_site_type_symbol
_atom_site_fract_x
_atom_site_fract_y
_atom_site_fract_z
B1 B -0.52660(19) -0.19275(15) 0.79572(11)
O1 O -0.53034(11) -0.25341(9) 0.71356(6)
O2 O -0.46490(11) -0.06994(9) 0.81420(6)
O3 O -0.67904(11) -0.23780(9) 0.78961(6)
O4 O -0.42973(11) -0.20827(9) 0.86575(7)
N1 N 0.02968(19) -0.21619(18) 0.57418(12)
N2 N -0.6224(3) 0.27941(19) 0.60544(13)
N3 N -0.96575(17) -0.07044(14) 1.07827(10)
N4 N -0.41897(18) -0.68906(14) 0.94442(11)
C1 C -0.41311(17) -0.24028(13) 0.68937(10)
C2 C -0.27496(17) -0.16350(14) 0.73751(10)
H1 H -0.2584 -0.1159 0.7913
C3 C -0.16247(18) -0.15722(15) 0.70647(11)
H2 H -0.0686 -0.1047 0.7393
C4 C -0.18417(18) -0.22616(15) 0.62841(11)
C5 C -0.32196(19) -0.30273(15) 0.58019(11)
H3 H -0.3380 -0.3503 0.5265
C6 C -0.43472(18) -0.30939(14) 0.61043(10)
H4 H -0.5285 -0.3616 0.5772
C7 C -0.0657(2) -0.22051(17) 0.59744(12)
C8 C -0.50379(17) -0.00962(13) 0.76481(10)
C9 C -0.62942(18) -0.05051(15) 0.69673(10)
H5 H -0.6922 -0.1276 0.6800
C10 C -0.6620(2) 0.02186(16) 0.65374(11)
H6 H -0.7477 -0.0058 0.6076
C11 C -0.5705(2) 0.13444(16) 0.67735(11)
C12 C -0.4440(2) 0.17442(16) 0.74396(11)
H7 H -0.3801 0.2511 0.7598
C13 C -0.4114(2) 0.10305(15) 0.78680(11)
H8 H -0.3246 0.1308 0.8322
C14 C -0.6028(3) 0.21278(19) 0.63548(13)
C15 C -0.73063(16) -0.19951(12) 0.84876(9)
C16 C -0.87906(17) -0.22703(13) 0.82591(10)
H9 H -0.9377 -0.2699 0.7701
C17 C -0.94071(18) -0.19294(14) 0.88316(10)
H10 H -1.0414 -0.2127 0.8669
C18 C -0.85562(17) -0.12937(13) 0.96517(10)
C19 C -0.70794(18) -0.10069(14) 0.98814(10)
H11 H -0.6493 -0.0566 1.0437
C20 C -0.64654(17) -0.13575(14) 0.93091(10)
H12 H -0.5459 -0.1163 0.9475
C21 C -0.91802(19) -0.09523(15) 1.02723(11)
C22 C -0.43525(16) -0.30851(13) 0.87665(10)
C23 C -0.54260(17) -0.41223(14) 0.82795(10)
H13 H -0.6181 -0.4156 0.7825
C24 C -0.53955(18) -0.51041(14) 0.84562(11)
H14 H -0.6133 -0.5810 0.8123
C25 C -0.42951(18) -0.50659(14) 0.91172(10)
C26 C -0.32137(18) -0.40257(15) 0.96021(11)
H15 H -0.2459 -0.3991 1.0057
C27 C -0.32377(17) -0.30508(14) 0.94235(10)
H16 H -0.2489 -0.2347 0.9750
C28 C -0.42522(19) -0.60847(15) 0.93004(11)
Cu1 Cu 0.06180(2) 0.283244(18) 0.700596(13)
N5 N 0.02461(15) 0.36982(12) 0.80499(9)
N6 N -0.13905(15) 0.17551(11) 0.62288(8)
N7 N 0.13036(16) 0.40356(14) 0.65084(9)
N8 N 0.15844(16) 0.19783(13) 0.75636(10)
C29 C -0.0459(2) 0.30990(16) 0.84749(12)
H17 H -0.0890 0.2300 0.8246
C30 C -0.0597(2) 0.35702(15) 0.92198(12)
H18 H -0.1127 0.3100 0.9485
C31 C 0.00350(16) 0.47325(13) 0.95897(10)
C32 C 0.0758(2) 0.53537(15) 0.91458(11)
H19 H 0.1206 0.6153 0.9362
C33 C 0.0827(2) 0.48129(15) 0.83932(11)
H20 H 0.1319 0.5263 0.8102
C34 C -0.2226(2) 0.21151(15) 0.57352(12)
H21 H -0.1831 0.2867 0.5712
C35 C -0.36251(19) 0.14682(14) 0.52566(12)
H22 H -0.4167 0.1782 0.4923
C36 C -0.42477(17) 0.03643(13) 0.52577(9)
C37 C -0.3382(2) -0.00140(16) 0.57603(13)
H23 H -0.3743 -0.0768 0.5786
C38 C -0.2000(2) 0.06903(16) 0.62255(14)
H24 H -0.1439 0.0398 0.6569
C39 C 0.1587(2) 0.56965(17) 0.58630(12)
H25 H 0.0736 0.5885 0.5809
H26 H 0.1690 0.5481 0.5309
H27 H 0.2438 0.6355 0.6230
C40 C 0.14304(18) 0.47597(16) 0.62201(11)
C41 C 0.2564(2) 0.09038(16) 0.85204(13)
H28 H 0.3529 0.1397 0.8898
H29 H 0.2600 0.0228 0.8175
H30 H 0.1930 0.0680 0.8850
C42 C 0.20185(19) 0.15054(15) 0.79824(12)
N5A N -0.02461(15) 0.63018(12) 1.19501(9)
C29A C 0.0459(2) 0.69010(16) 1.15251(12)
H17A H 0.0890 0.7700 1.1754
C30A C 0.0597(2) 0.64298(15) 1.07802(12)
H18A H 0.1127 0.6900 1.0515
C31A C -0.00350(16) 0.52675(13) 1.04103(10)
C32A C -0.0758(2) 0.46463(15) 1.08542(11)
H19A H -0.1206 0.3847 1.0638
C33A C -0.0827(2) 0.51871(15) 1.16068(11)
H20A H -0.1319 0.4737 1.1898
N6A N -0.86095(15) -0.17551(11) 0.37712(8)
C34A C -0.7774(2) -0.21151(15) 0.42648(12)
H21A H -0.8169 -0.2867 0.4288
C35A C -0.63749(19) -0.14682(14) 0.47434(12)
H22A H -0.5833 -0.1782 0.5077
C36A C -0.57523(17) -0.03643(13) 0.47423(9)
C37A C -0.6618(2) 0.00140(16) 0.42397(13)
H23A H -0.6257 0.0768 0.4214
C38A C -0.8000(2) -0.06903(16) 0.37745(14)
H24A H -0.8561 -0.0398 0.3431
Cu1A Cu -1.06180(2) -0.283244(18) 0.299404(13)
N7A N -1.13036(16) -0.40356(14) 0.34916(9)
N8A N -1.15844(16) -0.19783(13) 0.24364(10)
C39A C -1.1587(2) -0.56965(17) 0.41370(12)
H25A H -1.0736 -0.5885 0.4191
H26A H -1.1690 -0.5481 0.4691
H27A H -1.2438 -0.6355 0.3770
C40A C -1.14304(18) -0.47597(16) 0.37799(11)
C41A C -1.2564(2) -0.09038(16) 0.14796(13)
H28A H -1.3529 -0.1397 0.1102
H29A H -1.2600 -0.0228 0.1825
H30A H -1.1930 -0.0680 0.1150
C42A C -1.20185(19) -0.15054(15) 0.20176(12)
Cu1A_2 Cu -0.06180(2) 0.716756(18) 1.299404(13)
N5A_2 N -1.02461(15) -0.36982(12) 0.19501(9)
N9 N -0.1701(3) 0.49717(18) 0.62157(16)
C43 C -0.2892(3) 0.5209(2) 0.73447(16)
H31 H -0.2447 0.4983 0.7816
H32 H -0.3918 0.4738 0.7114
H33 H -0.2761 0.6004 0.7539
C44 C -0.2234(3) 0.50665(18) 0.67071(15)
loop_
_geom_bond_atom_site_label_1
_geom_bond_atom_site_label_2
_geom_bond_site_symmetry_1
_geom_bond_site_symmetry_2
B1 O1 1_555 1_555
O1 C1 1_555 1_555
O2 B1 1_555 1_555
O3 B1 1_555 1_555
O4 B1 1_555 1_555
N1 C7 1_555 1_555
N2 C14 1_555 1_555
N3 C21 1_555 1_555
N4 C28 1_555 1_555
C1 C2 1_555 1_555
C2 H1 1_555 1_555
C3 C2 1_555 1_555
H2 C3 1_555 1_555
C4 C3 1_555 1_555
C5 C4 1_555 1_555
H3 C5 1_555 1_555
C6 C1 1_555 1_555
H4 C6 1_555 1_555
C7 C4 1_555 1_555
C8 O2 1_555 1_555
C9 C8 1_555 1_555
H5 C9 1_555 1_555
C10 C9 1_555 1_555
H6 C10 1_555 1_555
C11 C10 1_555 1_555
C12 C11 1_555 1_555
H7 C12 1_555 1_555
C13 C8 1_555 1_555
H8 C13 1_555 1_555
C14 C11 1_555 1_555
C15 O3 1_555 1_555
C16 C15 1_555 1_555
H9 C16 1_555 1_555
C17 C16 1_555 1_555
H10 C17 1_555 1_555
C18 C17 1_555 1_555
C19 C18 1_555 1_555
H11 C19 1_555 1_555
C20 C15 1_555 1_555
H12 C20 1_555 1_555
C21 C18 1_555 1_555
C22 O4 1_555 1_555
C23 C22 1_555 1_555
H13 C23 1_555 1_555
C24 C23 1_555 1_555
H14 C24 1_555 1_555
C25 C24 1_555 1_555
C26 C25 1_555 1_555
H15 C26 1_555 1_555
C27 C22 1_555 1_555
H16 C27 1_555 1_555
C28 C25 1_555 1_555
Cu1 N5 1_555 1_555
N5 C29 1_555 1_555
N6 Cu1 1_555 1_555
N7 Cu1 1_555 1_555
N8 Cu1 1_555 1_555
C29 H17 1_555 1_555
C30 C29 1_555 1_555
H18 C30 1_555 1_555
C31 C30 1_555 1_555
C32 C31 1_555 1_555
H19 C32 1_555 1_555
C33 N5 1_555 1_555
H20 C33 1_555 1_555
C34 N6 1_555 1_555
H21 C34 1_555 1_555
C35 C34 1_555 1_555
H22 C35 1_555 1_555
C36 C35 1_555 1_555
C37 C36 1_555 1_555
H23 C37 1_555 1_555
C38 N6 1_555 1_555
H24 C38 1_555 1_555
C39 H25 1_555 1_555
H26 C39 1_555 1_555
H27 C39 1_555 1_555
C40 N7 1_555 1_555
C41 H28 1_555 1_555
H29 C41 1_555 1_555
H30 C41 1_555 1_555
C42 N8 1_555 1_555
N9 C44 1_555 1_555
C43 H31 1_555 1_555
H32 C43 1_555 1_555
H33 C43 1_555 1_555
C44 C43 1_555 1_555
N5A C29A 1_555 1_555
C29A H17A 1_555 1_555
C30A C29A 1_555 1_555
H18A C30A 1_555 1_555
C31A C31 1_555 1_555
C32A C31A 1_555 1_555
H19A C32A 1_555 1_555
C33A N5A 1_555 1_555
H20A C33A 1_555 1_555
N6A C34A 1_555 1_555
C34A H21A 1_555 1_555
C35A C34A 1_555 1_555
H22A C35A 1_555 1_555
C36A C36 1_555 1_555
C37A C36A 1_555 1_555
H23A C37A 1_555 1_555
C38A N6A 1_555 1_555
H24A C38A 1_555 1_555
Cu1A N6A 1_555 1_555
N7A Cu1A 1_555 1_555
N8A Cu1A 1_555 1_555
C39A H25A 1_555 1_555
H26A C39A 1_555 1_555
H27A C39A 1_555 1_555
C40A N7A 1_555 1_555
C41A H28A 1_555 1_555
H29A C41A 1_555 1_555
H30A C41A 1_555 1_555
C42A N8A 1_555 1_555
Cu1A_2 N5A 1_555 1_555
N5A_2 Cu1A 1_555 1_555
C5 C6 1_555 1_555
C12 C13 1_555 1_555
C19 C20 1_555 1_555
C26 C27 1_555 1_555
C32 C33 1_555 1_555
C37 C38 1_555 1_555
C39 C40 1_555 1_555
C41 C42 1_555 1_555
C30A C31A 1_555 1_555
C32A C33A 1_555 1_555
C35A C36A 1_555 1_555
C37A C38A 1_555 1_555
C39A C40A 1_555 1_555
C41A C42A 1_555 1_555

#END
