
#######################################################################
#
#                 Cambridge Crystallographic Data Centre
#                                CCDC 
#
#######################################################################
#
# If this CIF has been generated from an entry in the Cambridge 
# Structural Database, then it will include bibliographic, chemical, 
# crystal, experimental, refinement or atomic coordinate data resulting 
# from the CCDC's data processing and validation procedures.
#
#######################################################################

data_POSFEK
_symmetry_cell_setting           monoclinic
_symmetry_space_group_name_H-M   'P 21/c'
_symmetry_Int_Tables_number      14
_space_group_name_Hall           '-P 2ybc'
loop_
_symmetry_equiv_pos_site_id
_symmetry_equiv_pos_as_xyz
1 x,y,z
2 -x,1/2+y,1/2-z
3 -x,-y,-z
4 x,1/2-y,1/2+z
_cell_length_a                   10.5253(14)
_cell_length_b                   13.2136(18)
_cell_length_c                   7.3239(10)
_cell_angle_alpha                90
_cell_angle_beta                 92.775(3)
_cell_angle_gamma                90
_cell_volume                     1017.39
loop_
_atom_site_label
_atom_site_type_symbol
_atom_site_fract_x
_atom_site_fract_y
_atom_site_fract_z
Cu1 Cu 0.97566(5) 0.40228(4) 0.14280(8)
C1 C 0.4880(5) 0.2240(4) 0.3946(6)
H1 H 0.4665 0.1575 0.4212
C2 C 0.6094(4) 0.2460(4) 0.3444(7)
H2 H 0.6690 0.1946 0.3351
C3 C 0.6425(4) 0.3460(4) 0.3076(6)
C4 C 0.5515(5) 0.4221(4) 0.3148(7)
H3 H 0.5732 0.4885 0.2885
C5 C 0.4288(5) 0.3991(3) 0.3608(7)
H4 H 0.3676 0.4499 0.3616
C6 C 0.3967(4) 0.3003(3) 0.4059(6)
C7 C 0.2701(4) 0.2752(3) 0.4677(6)
C8 C 0.2136(4) 0.1835(4) 0.4915(6)
H5 H 0.2496 0.1212 0.4655
C9 C 0.0801(4) 0.2958(4) 0.5765(7)
H6 H 0.0081 0.3267 0.6200
C10 C 0.7742(4) 0.3696(4) 0.2548(6)
Cl1 Cl 1.11547(9) 0.53302(7) 0.19097(13)
N1 N 0.0960(4) 0.1974(3) 0.5595(5)
N2 N 0.1832(4) 0.3451(3) 0.5218(6)
H7 H 0.1931 0.4097 0.5209
O1 O 0.8425(3) 0.3012(3) 0.1941(6)
O2 O 0.8169(3) 0.4588(3) 0.2647(6)
Cu1B Cu 1.02434(5) 0.59772(4) -0.14280(8)
Cu1C Cu -0.02434(5) 0.09772(4) 0.64280(8)
Cl1B Cl 0.88453(9) 0.46698(7) -0.19097(13)
N1C N 1.0960(4) 0.3026(3) 0.0595(5)
loop_
_geom_bond_atom_site_label_1
_geom_bond_atom_site_label_2
_geom_bond_site_symmetry_1
_geom_bond_site_symmetry_2
Cu1 Cl1 1_555 1_555
C1 H1 1_555 1_555
C2 C1 1_555 1_555
H2 C2 1_555 1_555
C3 C2 1_555 1_555
C4 C3 1_555 1_555
H3 C4 1_555 1_555
C5 C4 1_555 1_555
H4 C5 1_555 1_555
C6 C1 1_555 1_555
C7 C6 1_555 1_555
C8 C7 1_555 1_555
H5 C8 1_555 1_555
C9 H6 1_555 1_555
C10 C3 1_555 1_555
Cl1 Cu1B 1_555 1_555
N1 C8 1_555 1_555
N2 C7 1_555 1_555
H7 N2 1_555 1_555
O1 Cu1 1_555 1_555
O2 Cu1 1_555 1_555
Cu1B Cl1B 1_555 1_555
Cu1C N1 1_555 1_555
Cl1B Cu1 1_555 1_555
N1C Cu1 1_555 1_555
C5 C6 1_555 1_555
C9 N1 1_555 1_555
C9 N2 1_555 1_555
C10 O1 1_555 1_555
C10 O2 1_555 1_555

#END
