
#######################################################################
#
#                 Cambridge Crystallographic Data Centre
#                                CCDC 
#
#######################################################################
#
# If this CIF has been generated from an entry in the Cambridge 
# Structural Database, then it will include bibliographic, chemical, 
# crystal, experimental, refinement or atomic coordinate data resulting 
# from the CCDC's data processing and validation procedures.
#
#######################################################################

data_POSGIP
_symmetry_cell_setting           triclinic
_symmetry_space_group_name_H-M   'P -1'
_symmetry_Int_Tables_number      2
_space_group_name_Hall           '-P 1'
loop_
_symmetry_equiv_pos_site_id
_symmetry_equiv_pos_as_xyz
1 x,y,z
2 -x,-y,-z
_cell_length_a                   8.4831(5)
_cell_length_b                   10.0600(6)
_cell_length_c                   12.0787(7)
_cell_angle_alpha                113.5220(10)
_cell_angle_beta                 92.8570(10)
_cell_angle_gamma                105.5860(10)
_cell_volume                     895.876
loop_
_atom_site_label
_atom_site_type_symbol
_atom_site_fract_x
_atom_site_fract_y
_atom_site_fract_z
Zn1 Zn 0.75142(2) 0.00347(2) 0.749893(18)
C1 C 1.3277(4) 0.5598(3) 0.9488(2)
H1 H 1.3823 0.5800 0.8896
C2 C 1.2139(4) 0.4173(3) 0.9169(2)
H2 H 1.1937 0.3428 0.8367
C3 C 1.1300(3) 0.3844(2) 1.0023(2)
C4 C 1.1687(3) 0.4947(3) 1.1231(2)
H3 H 1.1171 0.4729 1.1827
C5 C 1.2840(3) 0.6375(3) 1.1553(2)
H4 H 1.3095 0.7102 1.2365
C6 C 1.3614(3) 0.6728(2) 1.0677(2)
C7 C 1.4745(3) 0.8254(2) 1.09613(19)
C8 C 1.6122(3) 0.8627(3) 1.0479(2)
H5 H 1.6558 0.7954 0.9902
C9 C 1.5752(3) 1.0723(3) 1.1768(2)
H6 H 1.5902 1.1755 1.2231
C10 C 0.9938(3) 0.2346(2) 0.9635(2)
C11 C 0.6142(3) -0.3694(2) 0.3626(2)
H7 H 0.7123 -0.3619 0.3310
C12 C 0.4999(3) -0.5113(2) 0.3322(2)
H8 H 0.5226 -0.5985 0.2800
C13 C 0.3533(3) -0.5267(2) 0.3774(2)
C14 C 0.3216(3) -0.3953(2) 0.4570(2)
H9 H 0.2241 -0.4035 0.4894
C15 C 0.4360(3) -0.2518(2) 0.4882(2)
H10 H 0.4142 -0.1647 0.5415
C16 C 0.5821(3) -0.2376(2) 0.4405(2)
C17 C 0.7060(3) -0.0884(2) 0.47034(19)
C18 C 0.7827(3) -0.0368(3) 0.3923(2)
H11 H 0.7638 -0.0884 0.3072
C19 C 0.8816(3) 0.1373(2) 0.5804(2)
H12 H 0.9440 0.2273 0.6469
C20 C 0.2362(3) -0.6845(2) 0.3464(2)
N1 N 0.7692(2) 0.0232(2) 0.58960(16)
N2 N 0.8936(3) 0.1062(2) 0.4633(2)
H13 H 0.9584 0.1646 0.4371
N3 N 1.4517(2) 0.9596(2) 1.17818(17)
N4 N 1.6741(3) 1.0194(2) 1.1014(2)
H14 H 1.7618 1.0735 1.0882
O1 O 0.9226(3) 0.2054(2) 1.0413(2)
O2 O 0.9610(2) 0.14926(19) 0.84780(16)
O3 O 0.1049(2) -0.6992(2) 0.38712(19)
O4 O 0.2872(2) -0.79283(17) 0.27863(17)
Zn1A Zn 0.24858(2) -1.00347(2) 0.250107(18)
Zn1A_2 Zn 1.24858(2) 0.99653(2) 1.250107(18)
N3A N 0.5483(2) 0.0404(2) 0.82182(17)
O4A O 0.7128(2) -0.20717(17) 0.72137(17)
O5 O 0.8707(4) 0.4158(5) 0.2934(3)
H15 H 0.8708 0.3672 0.2204
H16 H 0.9222 0.3745 0.3213
loop_
_geom_bond_atom_site_label_1
_geom_bond_atom_site_label_2
_geom_bond_site_symmetry_1
_geom_bond_site_symmetry_2
Zn1 N1 1_555 1_555
C1 H1 1_555 1_555
C2 C1 1_555 1_555
H2 C2 1_555 1_555
C3 C2 1_555 1_555
C4 C3 1_555 1_555
H3 C4 1_555 1_555
C5 C4 1_555 1_555
H4 C5 1_555 1_555
C6 C1 1_555 1_555
C7 C6 1_555 1_555
C8 C7 1_555 1_555
H5 C8 1_555 1_555
C9 H6 1_555 1_555
C10 C3 1_555 1_555
C11 H7 1_555 1_555
C12 C11 1_555 1_555
H8 C12 1_555 1_555
C13 C12 1_555 1_555
C14 C13 1_555 1_555
H9 C14 1_555 1_555
C15 C14 1_555 1_555
H10 C15 1_555 1_555
C16 C11 1_555 1_555
C17 C16 1_555 1_555
C18 C17 1_555 1_555
H11 C18 1_555 1_555
C19 H12 1_555 1_555
C20 C13 1_555 1_555
N1 C17 1_555 1_555
N2 C18 1_555 1_555
H13 N2 1_555 1_555
N3 C7 1_555 1_555
N4 C8 1_555 1_555
H14 N4 1_555 1_555
O1 C10 1_555 1_555
O2 Zn1 1_555 1_555
O3 C20 1_555 1_555
O4 C20 1_555 1_555
O5 H15 1_555 1_555
H16 O5 1_555 1_555
Zn1A O4 1_555 1_555
Zn1A_2 N3 1_555 1_555
N3A Zn1 1_555 1_555
O4A Zn1 1_555 1_555
C5 C6 1_555 1_555
C9 N3 1_555 1_555
C9 N4 1_555 1_555
C10 O2 1_555 1_555
C15 C16 1_555 1_555
C19 N1 1_555 1_555
C19 N2 1_555 1_555

#END
