
#######################################################################
#
#                 Cambridge Crystallographic Data Centre
#                                CCDC 
#
#######################################################################
#
# If this CIF has been generated from an entry in the Cambridge 
# Structural Database, then it will include bibliographic, chemical, 
# crystal, experimental, refinement or atomic coordinate data resulting 
# from the CCDC's data processing and validation procedures.
#
#######################################################################

data_POSZED
_symmetry_cell_setting           triclinic
_symmetry_space_group_name_H-M   'P -1'
_symmetry_Int_Tables_number      2
_space_group_name_Hall           '-P 1'
loop_
_symmetry_equiv_pos_site_id
_symmetry_equiv_pos_as_xyz
1 x,y,z
2 -x,-y,-z
_cell_length_a                   7.315(3)
_cell_length_b                   9.457(4)
_cell_length_c                   11.203(5)
_cell_angle_alpha                83.489(8)
_cell_angle_beta                 73.184(7)
_cell_angle_gamma                68.945(6)
_cell_volume                     692.292
loop_
_atom_site_label
_atom_site_type_symbol
_atom_site_fract_x
_atom_site_fract_y
_atom_site_fract_z
Co1 Co 0.34439(12) 0.13317(8) 0.50184(8)
C1 C 0.4155(10) -0.0941(7) 0.3237(7)
C2 C 0.3474(10) -0.1591(7) 0.2346(7)
C3 C 0.4400(11) -0.3131(8) 0.2113(8)
H1 H 0.5453 -0.3696 0.2464
C4 C 0.3774(13) -0.3849(9) 0.1357(8)
H2 H 0.4441 -0.4874 0.1180
C5 C 0.2173(13) -0.3027(9) 0.0884(7)
H3 H 0.1702 -0.3505 0.0418
C6 C 0.1256(12) -0.1494(8) 0.1093(7)
H4 H 0.0187 -0.0944 0.0751
C7 C 0.1898(10) -0.0750(7) 0.1808(6)
C8 C 0.0997(10) 0.0941(7) 0.1888(6)
C9 C -0.0910(10) 0.1761(8) 0.2605(7)
C10 C -0.1596(11) 0.3333(8) 0.2585(9)
H5 H -0.2872 0.3872 0.3084
C11 C -0.0385(12) 0.4107(9) 0.1823(9)
H6 H -0.0838 0.5160 0.1818
C12 C 0.2175(11) 0.1739(9) 0.1101(7)
H7 H 0.3440 0.1210 0.0584
C13 C 0.1470(12) 0.3304(9) 0.1086(8)
H8 H 0.2274 0.3817 0.0565
C14 C 0.1895(13) 0.4647(10) 0.4378(12)
H9 H 0.3238 0.4448 0.3915
C15 C 0.0534(13) 0.6121(10) 0.4407(12)
H10 H 0.0999 0.6877 0.3971
C16 C -0.2334(10) 0.1016(7) 0.3469(7)
N1 N 0.1356(8) 0.3527(6) 0.4978(5)
O1 O 0.3138(8) 0.0377(5) 0.3628(5)
O2 O -0.4155(8) 0.1835(6) 0.3839(6)
O3 O -0.1600(7) -0.0343(5) 0.3753(5)
O4 O 0.5691(9) -0.1801(6) 0.3571(6)
Co1A Co -0.34439(12) 0.86683(8) 0.49816(8)
Co1_2 Co -0.65561(12) 0.13317(8) 0.50184(8)
Co1A_2 Co -0.34439(12) -0.13317(8) 0.49816(8)
Co1A_3 Co 0.65561(12) -0.13317(8) 0.49816(8)
Co1_3 Co 1.34439(12) 0.13317(8) 0.50184(8)
Co1A_4 Co 1.65561(12) -0.13317(8) 0.49816(8)
C1_2 C 1.4155(10) -0.0941(7) 0.3237(7)
C2_2 C 1.3474(10) -0.1591(7) 0.2346(7)
C3_2 C 1.4400(11) -0.3131(8) 0.2113(8)
H1_2 H 1.5453 -0.3696 0.2464
C4_2 C 1.3774(13) -0.3849(9) 0.1357(8)
H2_2 H 1.4441 -0.4874 0.1180
C5_2 C 1.2173(13) -0.3027(9) 0.0884(7)
H3_2 H 1.1702 -0.3505 0.0418
C6_2 C 1.1256(12) -0.1494(8) 0.1093(7)
H4_2 H 1.0187 -0.0944 0.0751
C7_2 C 1.1898(10) -0.0750(7) 0.1808(6)
C8_2 C 1.0997(10) 0.0941(7) 0.1888(6)
C9_2 C 0.9090(10) 0.1761(8) 0.2605(7)
C10_2 C 0.8404(11) 0.3333(8) 0.2585(9)
H5_2 H 0.7128 0.3872 0.3084
C11_2 C 0.9615(12) 0.4107(9) 0.1823(9)
H6_2 H 0.9162 0.5160 0.1818
C12_2 C 1.2175(11) 0.1739(9) 0.1101(7)
H7_2 H 1.3440 0.1210 0.0584
C13_2 C 1.1470(12) 0.3304(9) 0.1086(8)
H8_2 H 1.2274 0.3817 0.0565
C14A C -0.1895(13) 0.5353(10) 0.5622(12)
H9A H -0.3238 0.5552 0.6085
C15A C -0.0534(13) 0.3879(10) 0.5593(12)
H10A H -0.0999 0.3123 0.6029
C16_2 C 0.7666(10) 0.1016(7) 0.3469(7)
N1A N -0.1356(8) 0.6473(6) 0.5022(5)
O1_2 O 1.3138(8) 0.0377(5) 0.3628(5)
O1A O -0.3138(8) 0.9623(5) 0.6372(5)
O2_2 O 0.5845(8) 0.1835(6) 0.3839(6)
O2A O -0.5845(8) 0.8165(6) 0.6161(6)
O3_2 O 0.8400(7) -0.0343(5) 0.3753(5)
O3A O 0.1600(7) 0.0343(5) 0.6247(5)
O3_3 O -0.1600(7) 0.9657(5) 0.3753(5)
O4_2 O 1.5691(9) -0.1801(6) 0.3571(6)
O4A O 0.4309(9) 0.1801(6) 0.6429(6)
O4_3 O -0.4309(9) 0.8199(6) 0.3571(6)
loop_
_geom_bond_atom_site_label_1
_geom_bond_atom_site_label_2
_geom_bond_site_symmetry_1
_geom_bond_site_symmetry_2
Co1 N1 1_555 1_555
C1 C2 1_555 1_555
C2 C3 1_555 1_555
C3 H1 1_555 1_555
C4 C3 1_555 1_555
H2 C4 1_555 1_555
C5 C4 1_555 1_555
H3 C5 1_555 1_555
C6 C5 1_555 1_555
H4 C6 1_555 1_555
C7 C2 1_555 1_555
C8 C7 1_555 1_555
C9 C8 1_555 1_555
C10 C9 1_555 1_555
H5 C10 1_555 1_555
C11 C10 1_555 1_555
H6 C11 1_555 1_555
C12 C8 1_555 1_555
H7 C12 1_555 1_555
C13 C11 1_555 1_555
H8 C13 1_555 1_555
C14 H9 1_555 1_555
C15 C14 1_555 1_555
H10 C15 1_555 1_555
C16 C9 1_555 1_555
N1 C14 1_555 1_555
O1 Co1 1_555 1_555
O2 C16 1_555 1_555
O3 C16 1_555 1_555
O4 C1 1_555 1_555
Co1A N1A 1_555 1_555
Co1_2 O2 1_555 1_555
Co1A_2 O3 1_555 1_555
Co1A_3 O4 1_555 1_555
Co1_3 O1_2 1_555 1_555
Co1A_4 O4_2 1_555 1_555
C1_2 C2_2 1_555 1_555
C2_2 C3_2 1_555 1_555
C3_2 H1_2 1_555 1_555
C4_2 C3_2 1_555 1_555
H2_2 C4_2 1_555 1_555
C5_2 C4_2 1_555 1_555
H3_2 C5_2 1_555 1_555
C6_2 C5_2 1_555 1_555
H4_2 C6_2 1_555 1_555
C7_2 C2_2 1_555 1_555
C8_2 C7_2 1_555 1_555
C9_2 C8_2 1_555 1_555
C10_2 C9_2 1_555 1_555
H5_2 C10_2 1_555 1_555
C11_2 C10_2 1_555 1_555
H6_2 C11_2 1_555 1_555
C12_2 C8_2 1_555 1_555
H7_2 C12_2 1_555 1_555
C13_2 C11_2 1_555 1_555
H8_2 C13_2 1_555 1_555
C14A H9A 1_555 1_555
C15A N1 1_555 1_555
H10A C15A 1_555 1_555
C16_2 C9_2 1_555 1_555
N1A C15 1_555 1_555
O1_2 C1_2 1_555 1_555
O1A Co1A 1_555 1_555
O2_2 Co1 1_555 1_555
O2A Co1A 1_555 1_555
O3_2 Co1A_3 1_555 1_555
O3A Co1 1_555 1_555
O3_3 Co1A 1_555 1_555
O4_2 C1_2 1_555 1_555
O4A Co1 1_555 1_555
O4_3 Co1A 1_555 1_555
C1 O1 1_555 1_555
C6 C7 1_555 1_555
C12 C13 1_555 1_555
C6_2 C7_2 1_555 1_555
C12_2 C13_2 1_555 1_555
C14A C15A 1_555 1_555
C14A N1A 1_555 1_555
C16_2 O2_2 1_555 1_555
C16_2 O3_2 1_555 1_555

#END
