
#######################################################################
#
#                 Cambridge Crystallographic Data Centre
#                                CCDC 
#
#######################################################################
#
# If this CIF has been generated from an entry in the Cambridge 
# Structural Database, then it will include bibliographic, chemical, 
# crystal, experimental, refinement or atomic coordinate data resulting 
# from the CCDC's data processing and validation procedures.
#
#######################################################################

data_POTCOQ
_symmetry_cell_setting           monoclinic
_symmetry_space_group_name_H-M   'P 21/n'
_symmetry_Int_Tables_number      14
_space_group_name_Hall           '-P 2yn'
loop_
_symmetry_equiv_pos_site_id
_symmetry_equiv_pos_as_xyz
1 x,y,z
2 1/2-x,1/2+y,1/2-z
3 -x,-y,-z
4 1/2+x,1/2-y,1/2+z
_cell_length_a                   9.810(3)
_cell_length_b                   7.6710(10)
_cell_length_c                   16.541(6)
_cell_angle_alpha                90
_cell_angle_beta                 100.51(2)
_cell_angle_gamma                90
_cell_volume                     1223.87
loop_
_atom_site_label
_atom_site_type_symbol
_atom_site_fract_x
_atom_site_fract_y
_atom_site_fract_z
N1 N -0.2931(2) -0.1184(3) 1.24072(13)
N2 N -0.1918(2) -0.0631(3) 1.19144(14)
C1 C -0.4226(3) -0.0618(4) 1.2083(2)
C2 C -0.4655(3) 0.0221(4) 1.1309(2)
H1 H -0.3996(3) 0.0360(4) 1.0949(2)
C3 C -0.5993(3) 0.0840(4) 1.1070(2)
H2 H -0.6242(3) 0.1419(4) 1.0549(2)
C4 C -0.6982(3) 0.0650(4) 1.1554(2)
H3 H -0.7899(3) 0.1113(4) 1.1386(2)
C5 C -0.6609(3) -0.0229(4) 1.2299(2)
H4 H -0.7292(3) -0.0410(4) 1.2639(2)
C6 C -0.5291(3) -0.0846(4) 1.2549(2)
H5 H -0.5067(3) -0.1454(4) 1.3063(2)
C7 C -0.0573(3) -0.0531(5) 1.2479(2)
H6 H -0.0237(3) -0.1692(5) 1.2607(2)
H7 H 0.0081(3) 0.0099(5) 1.2225(2)
H8 H -0.0687(3) 0.0052(5) 1.2976(2)
C8 C -0.1837(3) -0.1962(4) 1.1285(2)
H9 H -0.1583(3) -0.3061(4) 1.1548(2)
H10 H -0.2725(3) -0.2067(4) 1.0932(2)
H11 H -0.1155(3) -0.1628(4) 1.0966(2)
Li1 Li -0.2580(5) -0.3005(6) 1.3267(3)
O1 O -0.2730(2) -0.2260(3) 1.43824(12)
C9 C -0.3711(3) -0.2667(5) 1.4891(2)
H12 H -0.3597(3) -0.3853(5) 1.5077(2)
H13 H -0.4639(3) -0.2521(5) 1.4591(2)
C10 C -0.3422(4) -0.1445(6) 1.5607(2)
H14 H -0.3421(4) -0.2058(6) 1.6114(2)
H15 H -0.4121(4) -0.0555(6) 1.5551(2)
C11 C -0.2110(6) -0.0708(9) 1.5592(3)
H16 H -0.1452(6) -0.1131(9) 1.6052(3)
H17 H -0.2162(6) 0.0537(9) 1.5636(3)
C12 C -0.1662(4) -0.1163(5) 1.4830(2)
H18 H -0.1548(4) -0.0138(5) 1.4516(2)
H19 H -0.0797(4) -0.1781(5) 1.4941(2)
Li1A Li -0.2420(5) 0.1995(6) 1.1733(3)
N2A N -0.3082(2) -0.5631(3) 1.30856(14)
loop_
_geom_bond_atom_site_label_1
_geom_bond_atom_site_label_2
_geom_bond_site_symmetry_1
_geom_bond_site_symmetry_2
N1 N2 1_555 1_555
N2 C7 1_555 1_555
C1 N1 1_555 1_555
C2 C1 1_555 1_555
H1 C2 1_555 1_555
C3 C2 1_555 1_555
H2 C3 1_555 1_555
C4 C3 1_555 1_555
H3 C4 1_555 1_555
C5 C4 1_555 1_555
H4 C5 1_555 1_555
C6 C1 1_555 1_555
H5 C6 1_555 1_555
C7 H6 1_555 1_555
H7 C7 1_555 1_555
H8 C7 1_555 1_555
C8 N2 1_555 1_555
H9 C8 1_555 1_555
H10 C8 1_555 1_555
H11 C8 1_555 1_555
Li1 N1 1_555 1_555
O1 Li1 1_555 1_555
C9 O1 1_555 1_555
H12 C9 1_555 1_555
H13 C9 1_555 1_555
C10 C9 1_555 1_555
H14 C10 1_555 1_555
H15 C10 1_555 1_555
C11 C10 1_555 1_555
H16 C11 1_555 1_555
H17 C11 1_555 1_555
C12 O1 1_555 1_555
H18 C12 1_555 1_555
H19 C12 1_555 1_555
Li1A N2 1_555 1_555
N2A Li1 1_555 1_555
C5 C6 1_555 1_555
C11 C12 1_555 1_555

#END
