
#######################################################################
#
#                 Cambridge Crystallographic Data Centre
#                                CCDC 
#
#######################################################################
#
# If this CIF has been generated from an entry in the Cambridge 
# Structural Database, then it will include bibliographic, chemical, 
# crystal, experimental, refinement or atomic coordinate data resulting 
# from the CCDC's data processing and validation procedures.
#
#######################################################################

data_POTGOV
_symmetry_cell_setting           monoclinic
_symmetry_space_group_name_H-M   'P 21'
_symmetry_Int_Tables_number      4
_space_group_name_Hall           'P 2yb'
loop_
_symmetry_equiv_pos_site_id
_symmetry_equiv_pos_as_xyz
1 x,y,z
2 -x,1/2+y,-z
_cell_length_a                   6.8752(10)
_cell_length_b                   8.7150(13)
_cell_length_c                   14.386(2)
_cell_angle_alpha                90
_cell_angle_beta                 93.130(3)
_cell_angle_gamma                90
_cell_volume                     860.685
loop_
_atom_site_label
_atom_site_type_symbol
_atom_site_fract_x
_atom_site_fract_y
_atom_site_fract_z
Eu1 Eu -0.24743(6) -0.24890(8) -0.03113(3)
P1 P -0.7364(4) -0.1741(3) 0.0589(2)
O1 O -0.5726(10) -0.2674(19) 0.0165(5)
O2 O -0.9343(8) -0.241(2) 0.0364(5)
O3 O -0.7206(12) -0.0030(11) 0.0406(7)
O4 O -0.0551(15) -0.0981(11) -0.1462(9)
O5 O -0.0233(15) -0.3455(12) -0.1579(7)
O6 O 0.1228(15) -0.1978(11) -0.2509(7)
O7 O -0.4503(13) -0.0547(9) -0.1361(7)
O8 O -0.4203(13) -0.2838(9) -0.1886(7)
O9 O -0.4920(16) -0.0988(13) -0.2846(8)
O10 O -0.2649(11) -0.0181(8) 0.0627(6)
H1 H -0.1710 0.0389 0.0721
H2 H -0.4017 -0.0022 0.0641
O11 O -0.2449(11) -0.3440(9) 0.1367(6)
H3 H -0.3320 -0.4055 0.1277
H4 H -0.1101 -0.3416 0.1652
N1 N -0.5137(14) -0.1198(11) 0.2198(7)
H5 H -0.4208 -0.1437 0.1806
H6 H -0.5300 -0.0174 0.2174
N2 N 0.0207(15) -0.2133(14) -0.1864(8)
N3 N -0.4582(16) -0.1436(14) -0.2065(9)
C1 C -0.6994(16) -0.1931(15) 0.1842(8)
H7 H -0.8077 -0.1459 0.2139
H8 H -0.6971 -0.3011 0.2006
C2 C -0.440(2) -0.1609(16) 0.3160(9)
H9 H -0.4242 -0.2725 0.3193
C3 C -0.2415(19) -0.0872(16) 0.3331(10)
H10 H -0.1523 -0.1300 0.2911
H11 H -0.1945 -0.1065 0.3961
H12 H -0.2520 0.0214 0.3231
C4 C -0.588(2) -0.1126(15) 0.3869(9)
C5 C -0.6470(19) 0.0369(16) 0.3923(10)
H13 H -0.6042 0.1102 0.3511
C6 C -0.7722(19) 0.0767(16) 0.4606(9)
H14 H -0.8142 0.1778 0.4646
C7 C -0.835(2) -0.0282(15) 0.5217(10)
H15 H -0.9163 0.0010 0.5682
C8 C -0.7774(19) -0.1764(16) 0.5144(10)
H16 H -0.8202 -0.2494 0.5558
C9 C -0.6560(18) -0.2190(16) 0.4459(9)
H17 H -0.6205 -0.3214 0.4399
Eu1_2 Eu -1.24743(6) -0.24890(8) -0.03113(3)
Eu1A Eu -0.75257(6) 0.25110(8) 0.03113(3)
O2_2 O 0.0657(8) -0.241(2) 0.0364(5)
O3A O -0.2794(12) -0.5030(11) -0.0406(7)
loop_
_geom_bond_atom_site_label_1
_geom_bond_atom_site_label_2
_geom_bond_site_symmetry_1
_geom_bond_site_symmetry_2
Eu1 O1 1_555 1_555
P1 O1 1_555 1_555
O2 P1 1_555 1_555
O3 P1 1_555 1_555
O4 Eu1 1_555 1_555
O5 Eu1 1_555 1_555
O6 N2 1_555 1_555
O7 Eu1 1_555 1_555
O8 Eu1 1_555 1_555
O9 N3 1_555 1_555
O10 Eu1 1_555 1_555
H1 O10 1_555 1_555
H2 O10 1_555 1_555
O11 Eu1 1_555 1_555
H3 O11 1_555 1_555
H4 O11 1_555 1_555
N1 H5 1_555 1_555
H6 N1 1_555 1_555
N2 O4 1_555 1_555
N3 O7 1_555 1_555
C1 P1 1_555 1_555
H7 C1 1_555 1_555
H8 C1 1_555 1_555
C2 N1 1_555 1_555
H9 C2 1_555 1_555
C3 C2 1_555 1_555
H10 C3 1_555 1_555
H11 C3 1_555 1_555
H12 C3 1_555 1_555
C4 C2 1_555 1_555
C5 C4 1_555 1_555
H13 C5 1_555 1_555
C6 C5 1_555 1_555
H14 C6 1_555 1_555
C7 C6 1_555 1_555
H15 C7 1_555 1_555
C8 C7 1_555 1_555
H16 C8 1_555 1_555
C9 C4 1_555 1_555
H17 C9 1_555 1_555
Eu1_2 O2 1_555 1_555
Eu1A O3 1_555 1_555
O2_2 Eu1 1_555 1_555
O3A Eu1 1_555 1_555
O5 N2 1_555 1_555
O8 N3 1_555 1_555
N1 C1 1_555 1_555
C8 C9 1_555 1_555

#END
