
#######################################################################
#
#                 Cambridge Crystallographic Data Centre
#                                CCDC 
#
#######################################################################
#
# If this CIF has been generated from an entry in the Cambridge 
# Structural Database, then it will include bibliographic, chemical, 
# crystal, experimental, refinement or atomic coordinate data resulting 
# from the CCDC's data processing and validation procedures.
#
#######################################################################

data_POTQEW
_symmetry_cell_setting           triclinic
_symmetry_space_group_name_H-M   'P -1'
_symmetry_Int_Tables_number      2
_space_group_name_Hall           '-P 1'
loop_
_symmetry_equiv_pos_site_id
_symmetry_equiv_pos_as_xyz
1 x,y,z
2 -x,-y,-z
_cell_length_a                   9.573(8)
_cell_length_b                   10.975(8)
_cell_length_c                   11.284(11)
_cell_angle_alpha                68.293(9)
_cell_angle_beta                 64.907(4)
_cell_angle_gamma                66.510(9)
_cell_volume                     955.458
loop_
_atom_site_label
_atom_site_type_symbol
_atom_site_fract_x
_atom_site_fract_y
_atom_site_fract_z
Zn1 Zn 1.36785(5) 1.50405(4) -0.74078(4)
O1 O 1.2559(4) 1.5332(3) -0.8606(3)
O2 O 1.2381(5) 1.3222(4) -0.7698(4)
N1 N 1.2235(5) 1.8063(4) -0.7517(3)
N2 N 1.2475(4) 1.6794(3) -0.6715(3)
N3 N 1.1889(6) 1.6842(4) -0.5454(4)
N4 N 1.1264(6) 1.8152(4) -0.5395(4)
N5 N 1.1400(5) 2.0908(3) -0.8542(3)
C1 C 1.1492(5) 1.8853(4) -0.6663(4)
C2 C 0.9618(5) 1.4332(4) -0.8657(4)
H1 H 0.9359 1.3883 -0.7747
C3 C 1.1067(4) 1.4652(4) -0.9305(4)
C4 C 0.8547(5) 1.4665(4) -0.9328(4)
C5 C 1.2103(5) 1.4340(5) -0.8478(4)
C6 C 1.0940(6) 2.0389(4) -0.7055(4)
H2 H 0.9780 2.0706 -0.6660
H3 H 1.1420 2.0751 -0.6704
C7 C 1.2805(6) 2.1162(5) -0.9219(4)
H4 H 1.3509 2.0980 -0.8765
C8 C 1.0363(6) 2.1145(5) -0.9164(5)
H5 H 0.9382 2.0953 -0.8666
N6 N 1.3360(4) 2.3750(3) -1.5527(3)
C9 C 1.2613(5) 2.2569(4) -1.2770(4)
C10 C 1.2189(5) 2.1957(4) -1.1280(4)
C11 C 1.1985(6) 2.3464(5) -1.4815(5)
H6 H 1.1259 2.3663 -1.5253
C12 C 1.0745(6) 2.1672(5) -1.0539(4)
H7 H 1.0021 2.1836 -1.0966
C13 C 1.4377(6) 2.3443(5) -1.4880(5)
H8 H 1.5361 2.3632 -1.5368
C14 C 1.3234(6) 2.1697(4) -1.0594(4)
H9 H 1.4221 2.1885 -1.1064
C15 C 1.4042(6) 2.2858(6) -1.3522(5)
H10 H 1.4796 2.2659 -1.3112
C16 C 1.1571(6) 2.2886(5) -1.3456(5)
H11 H 1.0579 2.2708 -1.2994
O3 O 0.5743(4) 1.5385(3) -0.8513(3)
O4 O 0.6913(4) 1.3184(4) -0.7891(4)
C17 C 0.6961(5) 1.4368(5) -0.8529(4)
O1A O 0.7441(4) 1.4668(3) -1.1394(3)
O2A O 0.7619(5) 1.6778(4) -1.2302(4)
C2A C 1.0382(5) 1.5668(4) -1.1343(4)
H1A H 1.0641 1.6117 -1.2253
C3A C 0.8933(4) 1.5348(4) -1.0695(4)
C4A C 1.1453(5) 1.5335(4) -1.0672(4)
C5A C 0.7897(5) 1.5660(5) -1.1522(4)
O3A O 1.4257(4) 1.4615(3) -1.1487(3)
O4A O 1.3087(4) 1.6816(4) -1.2109(4)
C17A C 1.3039(5) 1.5632(5) -1.1471(4)
Zn1A Zn 0.63215(5) 1.49595(4) -1.25922(4)
N1A N 0.7765(5) 1.1937(4) -1.2483(3)
N2A N 0.7525(4) 1.3206(3) -1.3285(3)
N3A N 0.8111(6) 1.3158(4) -1.4546(4)
N4A N 0.8736(6) 1.1848(4) -1.4605(4)
N5A N 0.8600(5) 0.9092(3) -1.1458(3)
C1A C 0.8508(5) 1.1147(4) -1.3337(4)
C6A C 0.9060(6) 0.9611(4) -1.2945(4)
H2A H 1.0220 0.9294 -1.3340
H3A H 0.8580 0.9249 -1.3296
C7A C 0.7195(6) 0.8838(5) -1.0781(4)
H4A H 0.6491 0.9020 -1.1235
C8A C 0.9637(6) 0.8855(5) -1.0836(5)
H5A H 1.0618 0.9047 -1.1334
N6A N 0.6640(4) 0.6250(3) -0.4473(3)
C9A C 0.7387(5) 0.7431(4) -0.7230(4)
C10A C 0.7811(5) 0.8043(4) -0.8720(4)
C11A C 0.8015(6) 0.6536(5) -0.5185(5)
H6A H 0.8741 0.6337 -0.4747
C12A C 0.9255(6) 0.8328(5) -0.9461(4)
H7A H 0.9979 0.8164 -0.9034
C13A C 0.5623(6) 0.6557(5) -0.5120(5)
H8A H 0.4639 0.6368 -0.4632
C14A C 0.6766(6) 0.8303(4) -0.9406(4)
H9A H 0.5779 0.8115 -0.8936
C15A C 0.5958(6) 0.7142(6) -0.6478(5)
H10A H 0.5204 0.7341 -0.6888
C16A C 0.8429(6) 0.7114(5) -0.6544(5)
H11A H 0.9421 0.7292 -0.7006
Zn1_2 Zn 0.36785(5) 1.50405(4) -0.74078(4)
Zn1_3 Zn 1.36785(5) 2.50405(4) -1.74078(4)
Zn1A_2 Zn 0.63215(5) 0.49595(4) -0.25922(4)
Zn1A_3 Zn 1.63215(5) 1.49595(4) -1.25922(4)
N6_2 N 1.3360(4) 1.3750(3) -0.5527(3)
N6A_2 N 0.6640(4) 1.6250(3) -1.4473(3)
O3_2 O 1.5743(4) 1.5385(3) -0.8513(3)
O3A_2 O 0.4257(4) 1.4615(3) -1.1487(3)
O5 O 1.7035(6) 2.0460(4) -0.6390(6)
H12 H 1.705(8) 2.126(3) -0.648(8)
H13 H 1.611(5) 2.059(7) -0.643(9)
O6 O 1.4045(6) 2.0571(5) -0.6461(5)
H14 H 1.347(7) 2.028(6) -0.566(3)
H15 H 1.358(7) 2.1424(18) -0.666(7)
O7 O 1.3475(8) 1.8441(4) -1.0474(4)
H16 H 1.399(9) 1.779(5) -1.087(6)
H17 H 1.320(10) 1.802(6) -0.9644(19)
loop_
_geom_bond_atom_site_label_1
_geom_bond_atom_site_label_2
_geom_bond_site_symmetry_1
_geom_bond_site_symmetry_2
Zn1 O1 1_555 1_555
O1 C5 1_555 1_555
O2 C5 1_555 1_555
N1 N2 1_555 1_555
N2 Zn1 1_555 1_555
N3 N2 1_555 1_555
N4 N3 1_555 1_555
N5 C6 1_555 1_555
C1 N1 1_555 1_555
C2 H1 1_555 1_555
C3 C2 1_555 1_555
C4 C2 1_555 1_555
C5 C3 1_555 1_555
C6 C1 1_555 1_555
H2 C6 1_555 1_555
H3 C6 1_555 1_555
C7 N5 1_555 1_555
H4 C7 1_555 1_555
C8 N5 1_555 1_555
H5 C8 1_555 1_555
N6 C11 1_555 1_555
C9 C10 1_555 1_555
C10 C12 1_555 1_555
C11 H6 1_555 1_555
C12 C8 1_555 1_555
H7 C12 1_555 1_555
C13 N6 1_555 1_555
H8 C13 1_555 1_555
C14 C7 1_555 1_555
H9 C14 1_555 1_555
C15 C9 1_555 1_555
H10 C15 1_555 1_555
C16 C9 1_555 1_555
H11 C16 1_555 1_555
O3 C17 1_555 1_555
O4 C17 1_555 1_555
C17 C4 1_555 1_555
O5 H12 1_555 1_555
H13 O5 1_555 1_555
O6 H14 1_555 1_555
H15 O6 1_555 1_555
O7 H16 1_555 1_555
H17 O7 1_555 1_555
O1A C5A 1_555 1_555
O2A C5A 1_555 1_555
C2A H1A 1_555 1_555
C3A C4 1_555 1_555
C4A C3 1_555 1_555
C5A C3A 1_555 1_555
O3A C17A 1_555 1_555
O4A C17A 1_555 1_555
C17A C4A 1_555 1_555
Zn1A O1A 1_555 1_555
N1A N2A 1_555 1_555
N2A Zn1A 1_555 1_555
N3A N2A 1_555 1_555
N4A N3A 1_555 1_555
N5A C6A 1_555 1_555
C1A N1A 1_555 1_555
C6A C1A 1_555 1_555
H2A C6A 1_555 1_555
H3A C6A 1_555 1_555
C7A N5A 1_555 1_555
H4A C7A 1_555 1_555
C8A N5A 1_555 1_555
H5A C8A 1_555 1_555
N6A C11A 1_555 1_555
C9A C10A 1_555 1_555
C10A C12A 1_555 1_555
C11A H6A 1_555 1_555
C12A C8A 1_555 1_555
H7A C12A 1_555 1_555
C13A N6A 1_555 1_555
H8A C13A 1_555 1_555
C14A C7A 1_555 1_555
H9A C14A 1_555 1_555
C15A C9A 1_555 1_555
H10A C15A 1_555 1_555
C16A C9A 1_555 1_555
H11A C16A 1_555 1_555
Zn1_2 O3 1_555 1_555
Zn1_3 N6 1_555 1_555
Zn1A_2 N6A 1_555 1_555
Zn1A_3 O3A 1_555 1_555
N6_2 Zn1 1_555 1_555
N6A_2 Zn1A 1_555 1_555
O3_2 Zn1 1_555 1_555
O3A_2 Zn1A 1_555 1_555
N4 C1 1_555 1_555
C10 C14 1_555 1_555
C11 C16 1_555 1_555
C13 C15 1_555 1_555
C2A C3A 1_555 1_555
C2A C4A 1_555 1_555
N4A C1A 1_555 1_555
C10A C14A 1_555 1_555
C11A C16A 1_555 1_555
C13A C15A 1_555 1_555

#END
