
#######################################################################
#
#                 Cambridge Crystallographic Data Centre
#                                CCDC 
#
#######################################################################
#
# If this CIF has been generated from an entry in the Cambridge 
# Structural Database, then it will include bibliographic, chemical, 
# crystal, experimental, refinement or atomic coordinate data resulting 
# from the CCDC's data processing and validation procedures.
#
#######################################################################

data_POTRUL
_symmetry_cell_setting           monoclinic
_symmetry_space_group_name_H-M   'P 21/c'
_symmetry_Int_Tables_number      14
_space_group_name_Hall           '-P 2ybc'
loop_
_symmetry_equiv_pos_site_id
_symmetry_equiv_pos_as_xyz
1 x,y,z
2 -x,1/2+y,1/2-z
3 -x,-y,-z
4 x,1/2-y,1/2+z
_cell_length_a                   6.5478(2)
_cell_length_b                   9.9048(3)
_cell_length_c                   10.8386(4)
_cell_angle_alpha                90
_cell_angle_beta                 95.791(4)
_cell_angle_gamma                90
_cell_volume                     699.346
loop_
_atom_site_label
_atom_site_type_symbol
_atom_site_fract_x
_atom_site_fract_y
_atom_site_fract_z
Sn1 Sn 0.0000 0.00000 0.00000
Cl1 Cl -0.2517(1) 0.11769(6) 0.13206(6)
N1 N 0.1862(3) 0.2082(2) -0.0080(2)
C1 C -0.1880(5) 0.0507(3) -0.1636(3)
C2 C 0.1686(6) 0.3066(3) 0.0726(3)
C3 C 0.2874(6) 0.4218(3) 0.0779(3)
C4 C 0.4327(4) 0.4393(2) -0.0025(2)
C5 C 0.4499(4) 0.3380(2) -0.0874(2)
C6 C 0.3258(4) 0.2254(2) -0.0870(2)
H1 H -0.195(6) 0.141(3) -0.169(3)
H2 H -0.315(5) 0.015(4) -0.163(5)
H3 H -0.143(7) 0.009(3) -0.231(3)
H4 H 0.0710 0.2976 0.1288
H5 H 0.2683 0.4879 0.1365
H6 H 0.5452 0.3453 -0.1451
H7 H 0.3410 0.1581 -0.1452
Cl1B Cl 0.2517(1) -0.11769(6) -0.13206(6)
C4B C 0.5673(4) 0.5607(2) 0.0025(2)
C3B C 0.7126(6) 0.5782(3) -0.0779(3)
C2B C 0.8314(6) 0.6934(3) -0.0726(3)
N1B N 0.8138(3) 0.7918(2) 0.0080(2)
Sn1_2 Sn 1.0000 1.00000 0.00000
C6B C 0.6742(4) 0.7746(2) 0.0870(2)
C5B C 0.5501(4) 0.6620(2) 0.0874(2)
H6B H 0.4548 0.6547 0.1451
H7B H 0.6590 0.8419 0.1452
H4B H 0.9290 0.7024 -0.1288
H5B H 0.7317 0.5121 -0.1365
N1B_2 N -0.1862(3) -0.2082(2) 0.0080(2)
C1B C 0.1880(5) -0.0507(3) 0.1636(3)
H1B H 0.195(6) -0.141(3) 0.169(3)
H2B H 0.315(5) -0.015(4) 0.163(5)
H3B H 0.143(7) -0.009(3) 0.231(3)
loop_
_geom_bond_atom_site_label_1
_geom_bond_atom_site_label_2
_geom_bond_site_symmetry_1
_geom_bond_site_symmetry_2
Sn1 Cl1 1_555 1_555
N1 Sn1 1_555 1_555
C1 Sn1 1_555 1_555
C2 N1 1_555 1_555
C3 C2 1_555 1_555
C4 C3 1_555 1_555
C5 C4 1_555 1_555
C6 N1 1_555 1_555
H1 C1 1_555 1_555
H2 C1 1_555 1_555
H3 C1 1_555 1_555
H4 C2 1_555 1_555
H5 C3 1_555 1_555
H6 C5 1_555 1_555
H7 C6 1_555 1_555
Cl1B Sn1 1_555 1_555
C4B C4 1_555 1_555
C3B C4B 1_555 1_555
C2B C3B 1_555 1_555
N1B C2B 1_555 1_555
Sn1_2 N1B 1_555 1_555
C6B N1B 1_555 1_555
C5B C4B 1_555 1_555
H6B C5B 1_555 1_555
H7B C6B 1_555 1_555
H4B C2B 1_555 1_555
H5B C3B 1_555 1_555
N1B_2 Sn1 1_555 1_555
C1B Sn1 1_555 1_555
H1B C1B 1_555 1_555
H2B C1B 1_555 1_555
H3B C1B 1_555 1_555
C5 C6 1_555 1_555
C6B C5B 1_555 1_555

#END
