
#######################################################################
#
#                 Cambridge Crystallographic Data Centre
#                                CCDC 
#
#######################################################################
#
# If this CIF has been generated from an entry in the Cambridge 
# Structural Database, then it will include bibliographic, chemical, 
# crystal, experimental, refinement or atomic coordinate data resulting 
# from the CCDC's data processing and validation procedures.
#
#######################################################################

data_POTXIH
_symmetry_cell_setting           triclinic
_symmetry_space_group_name_H-M   'P -1'
_symmetry_Int_Tables_number      2
_space_group_name_Hall           '-P 1'
loop_
_symmetry_equiv_pos_site_id
_symmetry_equiv_pos_as_xyz
1 x,y,z
2 -x,-y,-z
_cell_length_a                   14.3323(10)
_cell_length_b                   16.4524(11)
_cell_length_c                   18.8507(13)
_cell_angle_alpha                106.596(2)
_cell_angle_beta                 90.058(3)
_cell_angle_gamma                110.645(2)
_cell_volume                     3960.56
loop_
_atom_site_label
_atom_site_type_symbol
_atom_site_fract_x
_atom_site_fract_y
_atom_site_fract_z
Ag1 Ag 0.10102(5) 0.91015(5) 0.15933(4)
Ag2 Ag -0.07831(6) 0.53848(5) 0.54000(5)
Ag3 Ag -0.25046(5) 0.62347(5) 0.55772(4)
C1 C 0.3302(6) 1.1223(6) 0.7461(4)
C2 C 0.4815(6) 1.1177(6) 0.6529(5)
C3 C 0.3469(6) 1.1711(5) 0.6957(5)
C4 C 0.4626(6) 1.0667(5) 0.7039(5)
C5 C 0.3876(6) 1.0697(5) 0.7504(4)
C6 C 0.4262(6) 1.1712(6) 0.6516(5)
C7 C 0.2400(6) 1.1133(6) 0.7902(5)
H1 H 0.2558 1.1085 0.8385
H2 H 0.2221 1.1666 0.7978
C8 C 0.4405(7) 1.2216(6) 0.5941(5)
H3 H 0.4188 1.2729 0.6112
H4 H 0.5109 1.2449 0.5869
C9 C 0.5096(6) 0.9975(5) 0.6985(5)
H5 H 0.5734 1.0158 0.6784
H6 H 0.5219 0.9930 0.7476
C10 C 0.5596(7) 1.1107(6) 0.5992(5)
H7 H 0.5403 1.1200 0.5537
H8 H 0.5611 1.0497 0.5864
C11 C 0.3664(6) 1.0158(6) 0.8065(5)
H9 H 0.2953 0.9952 0.8120
H10 H 0.3841 0.9623 0.7878
C12 C 0.2770(7) 1.2192(6) 0.6857(5)
H11 H 0.2794 1.2263 0.6363
H12 H 0.2088 1.1814 0.6892
C13 C 0.6652(6) 1.1807(7) 0.6322(5)
H13 H 0.6646 1.2412 0.6435
H14 H 0.7119 1.1733 0.5967
H15 H 0.6850 1.1712 0.6769
C14 C 0.4261(7) 1.0737(6) 0.8822(5)
H16 H 0.4966 1.0907 0.8775
H17 H 0.4088 1.0393 0.9169
H18 H 0.4105 1.1277 0.9000
C15 C 0.3039(8) 1.3115(6) 0.7428(6)
H19 H 0.3045 1.3051 0.7919
H20 H 0.2552 1.3372 0.7363
H21 H 0.3691 1.3508 0.7368
C16 C -0.0219(6) 0.8971(6) 0.6490(5)
H22 H 0.0160 0.9404 0.6273
C17 C -0.0679(6) 0.8479(6) 0.7542(5)
H23 H -0.0630 0.8582 0.8054
C18 C -0.0920(7) 0.8158(6) 0.6055(5)
H24 H -0.1008 0.8055 0.5544
C19 C 0.0677(7) 1.0009(6) 0.7747(6)
C20 C -0.0083(6) 0.9138(6) 0.7245(5)
C21 C -0.1341(6) 0.7673(6) 0.7074(5)
H25 H -0.1711 0.7220 0.7276
C22 C 0.2944(7) 0.6767(6) 0.6448(5)
H26 H 0.3143 0.6811 0.6931
C23 C 0.4271(7) 0.8303(6) 0.6635(5)
C24 C 0.3422(6) 0.7475(6) 0.6166(5)
C25 C 0.3091(7) 0.7384(6) 0.5450(5)
H27 H 0.3380 0.7850 0.5241
C26 C 0.3104(6) 1.1177(6) 0.3959(5)
C27 C 0.3118(6) 1.1453(6) 0.3328(5)
H28 H 0.3477 1.2054 0.3348
C28 C 0.2592(6) 1.0823(6) 0.2674(5)
H29 H 0.2622 1.1010 0.2251
C29 C 0.3684(7) 1.1868(6) 0.4678(5)
C30 C 0.2549(7) 1.0267(6) 0.3893(5)
H30 H 0.2524 1.0054 0.4302
C31 C 0.2042(7) 0.9694(6) 0.3218(6)
H31 H 0.1679 0.9087 0.3180
N1 N -0.1476(5) 0.7514(5) 0.6338(4)
N2 N 0.2036(5) 0.9954(5) 0.2611(4)
N3 N 0.3816(5) 1.1592(5) 0.5239(4)
H32 H 0.3546 1.1020 0.5194
N4 N 0.1560(5) 1.0307(4) 0.7472(4)
H33 H 0.1635 1.0007 0.7035
N5 N 0.4415(5) 0.9090(5) 0.6496(4)
H34 H 0.4095 0.9075 0.6103
O1 O 0.0517(4) 1.0390(4) 0.8357(4)
O2 O 0.3995(7) 1.2685(5) 0.4733(4)
O3 O 0.4778(4) 0.8238(4) 0.7123(4)
C32 C 0.2765(8) 0.8102(7) 1.1487(5)
H35 H 0.3282 0.8016 1.1747
H36 H 0.2214 0.8075 1.1780
H37 H 0.3028 0.8686 1.1403
C33 C 0.6000(7) 0.6555(6) 1.0486(6)
H38 H 0.6491 0.7033 1.0341
H39 H 0.6284 0.6119 1.0527
H40 H 0.5801 0.6810 1.0958
C34 C 0.3257(7) 0.7337(6) 1.0281(5)
C35 C 0.4272(7) 0.7810(6) 0.9335(5)
C36 C 0.3502(7) 0.7852(5) 0.9773(5)
C37 C 0.2856(7) 0.8366(6) 0.9648(5)
H41 H 0.2487 0.8485 1.0072
H42 H 0.3271 0.8944 0.9584
C38 C 0.5534(7) 0.7095(6) 0.8822(5)
H43 H 0.5930 0.7668 0.8740
H44 H 0.5987 0.6870 0.9017
C39 C 0.4553(6) 0.6719(6) 0.9875(5)
C40 C 0.4799(6) 0.7245(6) 0.9378(5)
C41 C 0.5087(7) 0.6082(6) 0.9901(5)
H45 H 0.5298 0.5872 0.9416
H46 H 0.4627 0.5554 1.0016
C42 C 0.2403(7) 0.7356(7) 1.0743(5)
H47 H 0.2091 0.6770 1.0829
H48 H 0.1901 0.7458 1.0472
C43 C 0.1155(6) 0.7475(6) 0.7817(5)
C44 C 0.1723(6) 0.8144(7) 0.8551(5)
C45 C 0.0531(7) 0.6586(6) 0.7736(5)
H49 H 0.0469 0.6355 0.8137
C46 C 0.0710(6) 0.7195(6) 0.6533(5)
H50 H 0.0792 0.7403 0.6119
C47 C 0.0001(8) 0.6050(7) 0.7051(6)
H51 H -0.0431 0.5459 0.7005
C48 C 0.1238(6) 0.7775(6) 0.7209(5)
H52 H 0.1650 0.8371 0.7249
C49 C 0.4651(7) 0.5775(6) 0.6763(5)
C50 C 0.3817(7) 0.5039(6) 0.6756(5)
H53 H 0.3648 0.4910 0.7199
C51 C 0.5353(7) 0.6413(5) 0.7474(5)
C52 C 0.4865(7) 0.5959(6) 0.6109(5)
H54 H 0.5430 0.6454 0.6098
C53 C 0.2323(7) 0.6588(7) 0.5049(6)
H55 H 0.2107 0.6530 0.4565
C54 C 0.2176(6) 0.5995(6) 0.6025(5)
H56 H 0.1859 0.5534 0.6234
C55 C 0.3231(7) 0.4490(6) 0.6104(5)
H57 H 0.2680 0.3980 0.6109
C56 C 0.4246(7) 0.5415(6) 0.5470(5)
H58 H 0.4387 0.5558 0.5029
N6 N 0.2143(5) 0.7780(5) 0.8960(4)
H59 H 0.1998 0.7200 0.8822
N7 N 0.0075(5) 0.6331(5) 0.6454(5)
N8 N 0.4979(6) 0.6431(5) 0.8114(4)
H60 H 0.4393 0.6041 0.8117
N9 N 0.1874(6) 0.5891(5) 0.5326(4)
N10 N 0.3426(6) 0.4667(5) 0.5460(4)
O4 O 0.1779(4) 0.8932(4) 0.8753(3)
O5 O 0.6228(4) 0.6881(4) 0.7431(3)
N11 N 0.2682(5) 0.5307(5) 1.0367(4)
H61 H 0.2392 0.5290 0.9961
C57 C 0.3792(6) 0.6793(5) 1.0336(5)
C58 C 0.3469(7) 0.6172(6) 1.0814(5)
H62 H 0.4037 0.6054 1.0978
H63 H 0.3207 0.6456 1.1251
C59 C 0.1566(7) 0.3733(6) 1.0059(5)
C60 C 0.0867(7) 0.3150(6) 1.0358(5)
H64 H 0.0906 0.3260 1.0871
C61 C 0.2405(7) 0.4549(6) 1.0574(5)
O6 O 0.2797(5) 0.4494(4) 1.1124(4)
C62 C 0.4535(7) 0.8342(6) 0.8761(5)
H65 H 0.3964 0.8484 0.8639
H66 H 0.4670 0.7962 0.8307
C63 C 0.5462(7) 0.9240(6) 0.9060(5)
H67 H 0.5303 0.9649 0.9474
H68 H 0.5642 0.9520 0.8672
H69 H 0.6014 0.9108 0.9219
N12 N 0.0032(5) 0.2206(5) 0.9164(5)
C64 C 0.0114(7) 0.2407(6) 0.9903(5)
H70 H -0.0362 0.2026 1.0117
C65 C 0.0713(8) 0.2756(6) 0.8860(6)
H71 H 0.0674 0.2614 0.8344
C66 C 0.1496(7) 0.3549(6) 0.9303(5)
H72 H 0.1953 0.3937 0.9083
N13 N -0.2897(8) 0.5150(7) 0.6325(5)
C67 C -0.3219(10) 0.4777(8) 0.6721(6)
C68 C -0.3734(11) 0.4391(8) 0.7268(7)
H73 H -0.3631 0.4865 0.7731
H74 H -0.3479 0.3950 0.7340
H75 H -0.4439 0.4098 0.7100
O7 O 0.1760(7) 1.0041(6) 0.0804(4)
C69 C 0.1497(10) 1.0461(10) 0.0422(7)
H76 H 0.1249 1.0871 0.0777
H77 H 0.0910 1.0001 0.0097
C70 C 0.2086(10) 1.1036(8) -0.0083(7)
H78 H 0.2204 1.1669 0.0152
H79 H 0.1696 1.0833 -0.0559
H80 H 0.2716 1.0959 -0.0153
N14 N -0.0137(8) 0.6502(7) 0.4247(6)
O8 O 0.0014(7) 0.5844(8) 0.4129(6)
O9 O -0.0728(9) 0.6628(8) 0.4705(6)
O10 O 0.0635(10) 0.7232(9) 0.4123(9)
Ag1A Ag -0.10102(5) 0.08985(5) 0.84067(4)
Ag1A_2 Ag -0.10102(5) 1.08985(5) 0.84067(4)
Ag2A Ag 0.07831(6) 0.46152(5) 0.46000(5)
Ag3A Ag 0.25046(5) 0.37653(5) 0.44228(4)
O1A O -0.0517(4) 0.9610(4) 0.1643(4)
N9A N -0.1874(6) 0.4109(5) 0.4674(4)
N10A N -0.3426(6) 0.5333(5) 0.4540(4)
N12A N -0.0032(5) 0.7794(5) 0.0836(5)
N15 N 0.2404(6) 0.9563(5) 0.5720(4)
O11 O 0.3136(5) 0.9542(4) 0.5367(3)
O12 O 0.1896(5) 1.0005(4) 0.5621(4)
O13 O 0.2167(4) 0.9127(4) 0.6189(3)
N16 N 0.2450(6) 0.5602(5) 0.8540(5)
O14 O 0.1843(5) 0.5594(4) 0.9016(4)
O15 O 0.2987(5) 0.5124(4) 0.8483(4)
O16 O 0.2556(5) 0.6090(4) 0.8115(4)
O17 O 0.2206(5) 0.2839(5) 0.1493(4)
N17 N 0.9796(11) 0.8276(12) 0.2909(8)
C71 C 0.9786(11) 0.8880(11) 0.4373(8)
H81 H 1.0376 0.9416 0.4578
H82 H 0.9776 0.8423 0.4599
H83 H 0.9200 0.9030 0.4469
C72 C 0.9798(10) 0.8516(11) 0.3536(11)
loop_
_geom_bond_atom_site_label_1
_geom_bond_atom_site_label_2
_geom_bond_site_symmetry_1
_geom_bond_site_symmetry_2
Ag1 N2 1_555 1_555
Ag2 Ag3 1_555 1_555
Ag3 N1 1_555 1_555
C1 C3 1_555 1_555
C2 C4 1_555 1_555
C3 C6 1_555 1_555
C4 C5 1_555 1_555
C5 C1 1_555 1_555
C6 C2 1_555 1_555
C7 C1 1_555 1_555
H1 C7 1_555 1_555
H2 C7 1_555 1_555
C8 C6 1_555 1_555
H3 C8 1_555 1_555
H4 C8 1_555 1_555
C9 C4 1_555 1_555
H5 C9 1_555 1_555
H6 C9 1_555 1_555
C10 C2 1_555 1_555
H7 C10 1_555 1_555
H8 C10 1_555 1_555
C11 C5 1_555 1_555
H9 C11 1_555 1_555
H10 C11 1_555 1_555
C12 C3 1_555 1_555
H11 C12 1_555 1_555
H12 C12 1_555 1_555
C13 C10 1_555 1_555
H13 C13 1_555 1_555
H14 C13 1_555 1_555
H15 C13 1_555 1_555
C14 C11 1_555 1_555
H16 C14 1_555 1_555
H17 C14 1_555 1_555
H18 C14 1_555 1_555
C15 C12 1_555 1_555
H19 C15 1_555 1_555
H20 C15 1_555 1_555
H21 C15 1_555 1_555
C16 H22 1_555 1_555
C17 H23 1_555 1_555
C18 C16 1_555 1_555
H24 C18 1_555 1_555
C19 C20 1_555 1_555
C20 C16 1_555 1_555
C21 C17 1_555 1_555
H25 C21 1_555 1_555
C22 H26 1_555 1_555
C23 C24 1_555 1_555
C24 C22 1_555 1_555
C25 C24 1_555 1_555
H27 C25 1_555 1_555
C26 C27 1_555 1_555
C27 H28 1_555 1_555
C28 C27 1_555 1_555
H29 C28 1_555 1_555
C29 C26 1_555 1_555
C30 C26 1_555 1_555
H30 C30 1_555 1_555
C31 C30 1_555 1_555
H31 C31 1_555 1_555
N1 C18 1_555 1_555
N2 C28 1_555 1_555
N3 C8 1_555 1_555
H32 N3 1_555 1_555
N4 C7 1_555 1_555
H33 N4 1_555 1_555
N5 C9 1_555 1_555
H34 N5 1_555 1_555
O1 C19 1_555 1_555
O2 C29 1_555 1_555
O3 C23 1_555 1_555
C32 H35 1_555 1_555
H36 C32 1_555 1_555
H37 C32 1_555 1_555
C33 H38 1_555 1_555
H39 C33 1_555 1_555
H40 C33 1_555 1_555
C34 C36 1_555 1_555
C35 C36 1_555 1_555
C36 C37 1_555 1_555
C37 H41 1_555 1_555
H42 C37 1_555 1_555
C38 H43 1_555 1_555
H44 C38 1_555 1_555
C39 C40 1_555 1_555
C40 C35 1_555 1_555
C41 C33 1_555 1_555
H45 C41 1_555 1_555
H46 C41 1_555 1_555
C42 C32 1_555 1_555
H47 C42 1_555 1_555
H48 C42 1_555 1_555
C43 C44 1_555 1_555
C44 N6 1_555 1_555
C45 C43 1_555 1_555
H49 C45 1_555 1_555
C46 H50 1_555 1_555
C47 C45 1_555 1_555
H51 C47 1_555 1_555
C48 C43 1_555 1_555
H52 C48 1_555 1_555
C49 C50 1_555 1_555
C50 H53 1_555 1_555
C51 C49 1_555 1_555
C52 C49 1_555 1_555
H54 C52 1_555 1_555
C53 C25 1_555 1_555
H55 C53 1_555 1_555
C54 C22 1_555 1_555
H56 C54 1_555 1_555
C55 C50 1_555 1_555
H57 C55 1_555 1_555
C56 C52 1_555 1_555
H58 C56 1_555 1_555
N6 C37 1_555 1_555
H59 N6 1_555 1_555
N7 Ag2 1_555 1_555
N8 C38 1_555 1_555
H60 N8 1_555 1_555
N9 C53 1_555 1_555
N10 C55 1_555 1_555
O4 C44 1_555 1_555
O5 C51 1_555 1_555
N11 H61 1_555 1_555
C57 C34 1_555 1_555
C58 N11 1_555 1_555
H62 C58 1_555 1_555
H63 C58 1_555 1_555
C59 C60 1_555 1_555
C60 H64 1_555 1_555
C61 N11 1_555 1_555
O6 C61 1_555 1_555
C62 C35 1_555 1_555
H65 C62 1_555 1_555
H66 C62 1_555 1_555
C63 C62 1_555 1_555
H67 C63 1_555 1_555
H68 C63 1_555 1_555
H69 C63 1_555 1_555
N12 C64 1_555 1_555
C64 C60 1_555 1_555
H70 C64 1_555 1_555
C65 N12 1_555 1_555
H71 C65 1_555 1_555
C66 C59 1_555 1_555
H72 C66 1_555 1_555
N13 Ag3 1_555 1_555
C67 N13 1_555 1_555
C68 C67 1_555 1_555
H73 C68 1_555 1_555
H74 C68 1_555 1_555
H75 C68 1_555 1_555
O7 Ag1 1_555 1_555
C69 O7 1_555 1_555
H76 C69 1_555 1_555
H77 C69 1_555 1_555
C70 C69 1_555 1_555
H78 C70 1_555 1_555
H79 C70 1_555 1_555
H80 C70 1_555 1_555
N14 O8 1_555 1_555
O9 Ag2 1_555 1_555
O10 N14 1_555 1_555
N15 O11 1_555 1_555
O12 N15 1_555 1_555
O13 N15 1_555 1_555
N16 O14 1_555 1_555
O15 N16 1_555 1_555
O16 N16 1_555 1_555
N17 C72 1_555 1_555
C71 H81 1_555 1_555
H82 C71 1_555 1_555
H83 C71 1_555 1_555
C72 C71 1_555 1_555
Ag1A N12 1_555 1_555
Ag1A_2 O1 1_555 1_555
Ag2A Ag2 1_555 1_555
Ag3A N10 1_555 1_555
O1A Ag1 1_555 1_555
N9A Ag2 1_555 1_555
N10A Ag3 1_555 1_555
N12A Ag1 1_555 1_555
C17 C20 1_555 1_555
C19 N4 1_555 1_555
C21 N1 1_555 1_555
C23 N5 1_555 1_555
C29 N3 1_555 1_555
C31 N2 1_555 1_555
C34 C42 1_555 1_555
C38 C40 1_555 1_555
C39 C41 1_555 1_555
C39 C57 1_555 1_555
C46 C48 1_555 1_555
C46 N7 1_555 1_555
C47 N7 1_555 1_555
C51 N8 1_555 1_555
C54 N9 1_555 1_555
C56 N10 1_555 1_555
N9 Ag2A 1_555 1_555
C57 C58 1_555 1_555
C59 C61 1_555 1_555
C65 C66 1_555 1_555
N14 O9 1_555 1_555
Ag2A Ag3A 1_555 1_555

#END
