
#######################################################################
#
#                 Cambridge Crystallographic Data Centre
#                                CCDC 
#
#######################################################################
#
# If this CIF has been generated from an entry in the Cambridge 
# Structural Database, then it will include bibliographic, chemical, 
# crystal, experimental, refinement or atomic coordinate data resulting 
# from the CCDC's data processing and validation procedures.
#
#######################################################################

data_POTZOP
_symmetry_cell_setting           monoclinic
_symmetry_space_group_name_H-M   'C 2/c'
_symmetry_Int_Tables_number      15
_space_group_name_Hall           '-C 2yn'
loop_
_symmetry_equiv_pos_site_id
_symmetry_equiv_pos_as_xyz
1 x,y,z
2 -x,y,1/2-z
3 1/2+x,1/2+y,z
4 1/2-x,1/2+y,1/2-z
5 -x,-y,-z
6 x,-y,1/2+z
7 1/2-x,1/2-y,-z
8 1/2+x,1/2-y,1/2+z
_cell_length_a                   33.867(3)
_cell_length_b                   11.3143(7)
_cell_length_c                   22.0435(17)
_cell_angle_alpha                90
_cell_angle_beta                 109.902(4)
_cell_angle_gamma                90
_cell_volume                     7942.19
loop_
_atom_site_label
_atom_site_type_symbol
_atom_site_fract_x
_atom_site_fract_y
_atom_site_fract_z
Cu1 Cu 1.0000 0.70365(5) 0.2500
Cu2 Cu 0.788541(15) 0.78652(5) 0.01278(3)
Cl1 Cl 0.73419(3) 0.82323(10) -0.08319(5)
N1 N 0.95626(9) 0.6141(3) 0.17586(13)
N2 N 0.84379(9) 0.7417(3) -0.00177(14)
N3 N 0.82699(10) 0.9205(3) 0.06440(16)
N4 N 0.94724(9) 0.7738(3) 0.25816(14)
C1 C 0.96439(11) 0.5235(3) 0.13691(16)
C2 C 0.93990(11) 0.5018(3) 0.07256(16)
O1 O 0.90817(7) 0.5811(2) 0.04535(11)
C3 C 0.88180(11) 0.5637(3) -0.01746(16)
C4 C 0.88601(11) 0.4691(3) -0.05475(17)
C5 C 0.85664(12) 0.4608(4) -0.11760(18)
H1 H 0.8593 0.3976 -0.1444
C6 C 0.82396(12) 0.5408(4) -0.14225(19)
C7 C 0.79266(14) 0.5301(5) -0.2114(2)
C8 C 0.82072(12) 0.6327(4) -0.10233(18)
H2 H 0.7983 0.6876 -0.1177
C9 C 0.84957(11) 0.6461(3) -0.04051(17)
C10 C 0.87341(12) 0.8143(4) 0.02366(19)
H3 H 0.8997 0.8056 0.0176
C11 C 0.86631(13) 0.9122(4) 0.06272(19)
C12 C 0.81937(15) 1.0071(4) 0.0996(2)
H4 H 0.7919 1.0133 0.1017
C13 C 0.84911(18) 1.0888(5) 0.1333(3)
H5 H 0.8420 1.1496 0.1575
C14 C 0.88905(19) 1.0804(5) 0.1312(3)
H6 H 0.9101 1.1354 0.1537
C15 C 0.89789(16) 0.9897(5) 0.0954(3)
H7 H 0.9253 0.9810 0.0933
C16 C 0.92189(11) 0.3806(3) -0.03085(17)
C17 C 0.94927(12) 0.3892(4) -0.07385(17)
H8 H 0.9322 0.3706 -0.1185
H9 H 0.9726 0.3328 -0.0587
H10 H 0.9605 0.4695 -0.0717
C18 C 0.94868(11) 0.4070(3) 0.03917(16)
C19 C 0.98311(12) 0.3352(3) 0.07137(17)
H11 H 0.9888 0.2687 0.0494
C20 C 1.00937(11) 0.3574(3) 0.13451(16)
C21 C 1.04665(13) 0.2763(3) 0.16789(18)
C22 C 1.07487(14) 0.2628(4) 0.1270(2)
H12 H 1.0589 0.2257 0.0857
H13 H 1.0991 0.2132 0.1499
H14 H 1.0847 0.3408 0.1190
C23 C 1.07346(14) 0.3243(4) 0.2340(2)
H15 H 1.0835 0.4037 0.2290
H16 H 1.0975 0.2719 0.2532
H17 H 1.0565 0.3279 0.2622
C24 C 1.02934(16) 0.1542(4) 0.1776(2)
H18 H 1.0102 0.1636 0.2021
H19 H 1.0527 0.1025 0.2014
H20 H 1.0141 0.1191 0.1354
C25 C 0.99939(11) 0.4532(3) 0.16617(16)
H21 H 1.0170 0.4710 0.2089
C26 C 0.90383(13) 0.2535(4) -0.03453(19)
H22 H 0.8860 0.2486 -0.0077
H23 H 0.9270 0.1969 -0.0189
H24 H 0.8871 0.2349 -0.0793
C27 C 0.91839(11) 0.6430(4) 0.16986(16)
H25 H 0.8952 0.6081 0.1375
C28 C 0.91210(11) 0.7309(3) 0.21421(16)
C29 C 0.94292(12) 0.8508(3) 0.30172(18)
H26 H 0.9675 0.8811 0.3334
C30 C 0.90386(13) 0.8883(4) 0.3024(2)
H27 H 0.9020 0.9433 0.3339
C31 C 0.86809(13) 0.8444(4) 0.2569(2)
H28 H 0.8412 0.8685 0.2567
C32 C 0.87172(13) 0.7644(4) 0.21115(19)
H29 H 0.8475 0.7336 0.1789
C33 C 0.7964(4) 0.6519(12) -0.2471(4)
H30 H 0.7770 0.6500 -0.2918
H31 H 0.8252 0.6612 -0.2469
H32 H 0.7893 0.7185 -0.2244
C34 C 0.8003(3) 0.4325(12) -0.2486(4)
H33 H 0.7788 0.4321 -0.2916
H34 H 0.7992 0.3579 -0.2266
H35 H 0.8281 0.4415 -0.2526
C35 C 0.7481(2) 0.5253(14) -0.2082(5)
H36 H 0.7439 0.5926 -0.1831
H37 H 0.7444 0.4515 -0.1875
H38 H 0.7275 0.5289 -0.2520
Cu2A Cu 1.211459(15) 0.78652(5) 0.48722(3)
Cl1A Cl 1.26581(3) 0.82323(10) 0.58319(5)
N1A N 1.04374(9) 0.6141(3) 0.32414(13)
N2A N 1.15621(9) 0.7417(3) 0.50177(14)
N3A N 1.17301(10) 0.9205(3) 0.43560(16)
N4A N 1.05276(9) 0.7738(3) 0.24184(14)
C1A C 1.03561(11) 0.5235(3) 0.36309(16)
C2A C 1.06010(11) 0.5018(3) 0.42744(16)
O1A O 1.09183(7) 0.5811(2) 0.45465(11)
C3A C 1.11820(11) 0.5637(3) 0.51746(16)
C4A C 1.11399(11) 0.4691(3) 0.55475(17)
C5A C 1.14336(12) 0.4608(4) 0.61760(18)
H1A H 1.1407 0.3976 0.6444
C6A C 1.17604(12) 0.5408(4) 0.64225(19)
C7A C 1.20734(14) 0.5301(5) 0.7114(2)
C8A C 1.17928(12) 0.6327(4) 0.60233(18)
H2A H 1.2017 0.6876 0.6177
C9A C 1.15043(11) 0.6461(3) 0.54051(17)
C10A C 1.12659(12) 0.8143(4) 0.47634(19)
H3A H 1.1003 0.8056 0.4824
C11A C 1.13369(13) 0.9122(4) 0.43728(19)
C12A C 1.18063(15) 1.0071(4) 0.4004(2)
H4A H 1.2081 1.0133 0.3983
C13A C 1.15089(18) 1.0888(5) 0.3667(3)
H5A H 1.1580 1.1496 0.3425
C14A C 1.11095(19) 1.0804(5) 0.3688(3)
H6A H 1.0899 1.1354 0.3463
C15A C 1.10211(16) 0.9897(5) 0.4046(3)
H7A H 1.0747 0.9810 0.4067
C16A C 1.07811(11) 0.3806(3) 0.53085(17)
C17A C 1.05073(12) 0.3892(4) 0.57385(17)
H8A H 1.0678 0.3706 0.6185
H9A H 1.0274 0.3328 0.5587
H10A H 1.0395 0.4695 0.5717
C18A C 1.05132(11) 0.4070(3) 0.46083(16)
C19A C 1.01689(12) 0.3352(3) 0.42863(17)
H11A H 1.0112 0.2687 0.4506
C20A C 0.99063(11) 0.3574(3) 0.36549(16)
C21A C 0.95335(13) 0.2763(3) 0.33211(18)
C22A C 0.92513(14) 0.2628(4) 0.3730(2)
H12A H 0.9411 0.2257 0.4143
H13A H 0.9009 0.2132 0.3501
H14A H 0.9153 0.3408 0.3810
C23A C 0.92654(14) 0.3243(4) 0.2660(2)
H15A H 0.9165 0.4037 0.2710
H16A H 0.9025 0.2719 0.2468
H17A H 0.9435 0.3279 0.2378
C24A C 0.97066(16) 0.1542(4) 0.3224(2)
H18A H 0.9898 0.1636 0.2979
H19A H 0.9473 0.1025 0.2986
H20A H 0.9859 0.1191 0.3646
C25A C 1.00061(11) 0.4532(3) 0.33383(16)
H21A H 0.9830 0.4710 0.2911
C26A C 1.09617(13) 0.2535(4) 0.53453(19)
H22A H 1.1140 0.2486 0.5077
H23A H 1.0730 0.1969 0.5189
H24A H 1.1129 0.2349 0.5793
C27A C 1.08161(11) 0.6430(4) 0.33014(16)
H25A H 1.1048 0.6081 0.3625
C28A C 1.08790(11) 0.7309(3) 0.28579(16)
C29A C 1.05708(12) 0.8508(3) 0.19828(18)
H26A H 1.0325 0.8811 0.1666
C30A C 1.09614(13) 0.8883(4) 0.1976(2)
H27A H 1.0980 0.9433 0.1661
C31A C 1.13191(13) 0.8444(4) 0.2431(2)
H28A H 1.1588 0.8685 0.2433
C32A C 1.12828(13) 0.7644(4) 0.28885(19)
H29A H 1.1525 0.7336 0.3211
C33A C 1.2036(4) 0.6519(12) 0.7471(4)
H30A H 1.2230 0.6500 0.7918
H31A H 1.1748 0.6612 0.7469
H32A H 1.2107 0.7185 0.7244
C34A C 1.1997(3) 0.4325(12) 0.7486(4)
H33A H 1.2212 0.4321 0.7916
H34A H 1.2008 0.3579 0.7266
H35A H 1.1719 0.4415 0.7526
C35A C 1.2519(2) 0.5253(14) 0.7082(5)
H36A H 1.2561 0.5926 0.6831
H37A H 1.2556 0.4515 0.6875
H38A H 1.2725 0.5289 0.7520
Cu2F Cu 0.711459(15) 0.71348(5) -0.01278(3)
Cu2G Cu 1.288541(15) 0.71348(5) 0.51278(3)
Cl1F Cl 0.76581(3) 0.67677(10) 0.08319(5)
Cl1G Cl 1.23419(3) 0.67677(10) 0.41681(5)
Cu3 Cu 1.0000 1.0000 0.0000
Cl2 Cl 0.97902(4) 0.86649(15) 0.04661(8)
Cl2D Cl 1.02098(4) 1.13351(15) -0.04661(8)
C36 C 0.6758(3) 0.0970(7) -0.0624(4)
C37 C 0.7057(4) 0.0963(11) -0.0064(6)
N5 N 0.6491(3) 0.1076(10) -0.1010(5)
N6 N 0.6614(3) 0.5244(8) 0.1293(5)
C38 C 0.7009(2) 0.4099(7) 0.0763(4)
C39 C 0.6786(3) 0.4745(8) 0.1041(4)
C40? C 0.8169(5) 0.5369(18) -0.2591(5)
H39? H 0.7977 0.5211 -0.3029
H40? H 0.8394 0.4780 -0.2473
H41? H 0.8290 0.6161 -0.2574
C41? C 0.7742(5) 0.3964(15) -0.2199(7)
H42? H 0.7623 0.3799 -0.1860
H43? H 0.7970 0.3403 -0.2164
H44? H 0.7523 0.3883 -0.2622
C42? C 0.7593(6) 0.6135(18) -0.2284(7)
H45? H 0.7392 0.5939 -0.2711
H46? H 0.7706 0.6929 -0.2295
H47? H 0.7451 0.6111 -0.1964
C43? C 0.6952(5) 0.2565(13) 0.0051(7)
C44? C 0.7113(6) 0.3113(18) 0.0797(10)
loop_
_geom_bond_atom_site_label_1
_geom_bond_atom_site_label_2
_geom_bond_site_symmetry_1
_geom_bond_site_symmetry_2
Cu1 N1 1_555 1_555
Cu2 Cl1 1_555 1_555
Cl1 Cu2F 1_555 1_555
N1 C1 1_555 1_555
N2 Cu2 1_555 1_555
N3 Cu2 1_555 1_555
N4 Cu1 1_555 1_555
C1 C2 1_555 1_555
C2 O1 1_555 1_555
O1 C3 1_555 1_555
C3 C4 1_555 1_555
C4 C5 1_555 1_555
C5 H1 1_555 1_555
C6 C5 1_555 1_555
C7 C6 1_555 1_555
C8 C6 1_555 1_555
H2 C8 1_555 1_555
C9 N2 1_555 1_555
C10 N2 1_555 1_555
H3 C10 1_555 1_555
C11 N3 1_555 1_555
C12 N3 1_555 1_555
H4 C12 1_555 1_555
C13 C12 1_555 1_555
H5 C13 1_555 1_555
C14 C13 1_555 1_555
H6 C14 1_555 1_555
C15 C11 1_555 1_555
H7 C15 1_555 1_555
C16 C4 1_555 1_555
C17 C16 1_555 1_555
H8 C17 1_555 1_555
H9 C17 1_555 1_555
H10 C17 1_555 1_555
C18 C2 1_555 1_555
C19 C18 1_555 1_555
H11 C19 1_555 1_555
C20 C19 1_555 1_555
C21 C20 1_555 1_555
C22 C21 1_555 1_555
H12 C22 1_555 1_555
H13 C22 1_555 1_555
H14 C22 1_555 1_555
C23 C21 1_555 1_555
H15 C23 1_555 1_555
H16 C23 1_555 1_555
H17 C23 1_555 1_555
C24 C21 1_555 1_555
H18 C24 1_555 1_555
H19 C24 1_555 1_555
H20 C24 1_555 1_555
C25 C1 1_555 1_555
H21 C25 1_555 1_555
C26 C16 1_555 1_555
H22 C26 1_555 1_555
H23 C26 1_555 1_555
H24 C26 1_555 1_555
C27 N1 1_555 1_555
H25 C27 1_555 1_555
C28 N4 1_555 1_555
C29 N4 1_555 1_555
H26 C29 1_555 1_555
C30 C29 1_555 1_555
H27 C30 1_555 1_555
C31 C30 1_555 1_555
H28 C31 1_555 1_555
C32 C28 1_555 1_555
H29 C32 1_555 1_555
C33 C7 1_555 1_555
H30 C33 1_555 1_555
H31 C33 1_555 1_555
H32 C33 1_555 1_555
C34 C7 1_555 1_555
H33 C34 1_555 1_555
H34 C34 1_555 1_555
H35 C34 1_555 1_555
C35 C7 1_555 1_555
H36 C35 1_555 1_555
H37 C35 1_555 1_555
H38 C35 1_555 1_555
Cu3 Cl2 1_555 1_555
C36 C37 1_555 1_555
N5 C36 1_555 1_555
N6 C39 1_555 1_555
C38 C39 1_555 1_555
Cu2A Cl1A 1_555 1_555
Cl1A Cu2G 1_555 1_555
N1A Cu1 1_555 1_555
N2A Cu2A 1_555 1_555
N3A Cu2A 1_555 1_555
N4A Cu1 1_555 1_555
C1A N1A 1_555 1_555
C2A C1A 1_555 1_555
O1A C2A 1_555 1_555
C3A O1A 1_555 1_555
C4A C3A 1_555 1_555
C5A C4A 1_555 1_555
H1A C5A 1_555 1_555
C6A C5A 1_555 1_555
C7A C6A 1_555 1_555
C8A C6A 1_555 1_555
H2A C8A 1_555 1_555
C9A N2A 1_555 1_555
C10A N2A 1_555 1_555
H3A C10A 1_555 1_555
C11A N3A 1_555 1_555
C12A N3A 1_555 1_555
H4A C12A 1_555 1_555
C13A C12A 1_555 1_555
H5A C13A 1_555 1_555
C14A C13A 1_555 1_555
H6A C14A 1_555 1_555
C15A C11A 1_555 1_555
H7A C15A 1_555 1_555
C16A C4A 1_555 1_555
C17A C16A 1_555 1_555
H8A C17A 1_555 1_555
H9A C17A 1_555 1_555
H10A C17A 1_555 1_555
C18A C2A 1_555 1_555
C19A C18A 1_555 1_555
H11A C19A 1_555 1_555
C20A C19A 1_555 1_555
C21A C20A 1_555 1_555
C22A C21A 1_555 1_555
H12A C22A 1_555 1_555
H13A C22A 1_555 1_555
H14A C22A 1_555 1_555
C23A C21A 1_555 1_555
H15A C23A 1_555 1_555
H16A C23A 1_555 1_555
H17A C23A 1_555 1_555
C24A C21A 1_555 1_555
H18A C24A 1_555 1_555
H19A C24A 1_555 1_555
H20A C24A 1_555 1_555
C25A C1A 1_555 1_555
H21A C25A 1_555 1_555
C26A C16A 1_555 1_555
H22A C26A 1_555 1_555
H23A C26A 1_555 1_555
H24A C26A 1_555 1_555
C27A N1A 1_555 1_555
H25A C27A 1_555 1_555
C28A N4A 1_555 1_555
C29A N4A 1_555 1_555
H26A C29A 1_555 1_555
C30A C29A 1_555 1_555
H27A C30A 1_555 1_555
C31A C30A 1_555 1_555
H28A C31A 1_555 1_555
C32A C28A 1_555 1_555
H29A C32A 1_555 1_555
C33A C7A 1_555 1_555
H30A C33A 1_555 1_555
H31A C33A 1_555 1_555
H32A C33A 1_555 1_555
C34A C7A 1_555 1_555
H33A C34A 1_555 1_555
H34A C34A 1_555 1_555
H35A C34A 1_555 1_555
C35A C7A 1_555 1_555
H36A C35A 1_555 1_555
H37A C35A 1_555 1_555
H38A C35A 1_555 1_555
Cu2F Cl1F 1_555 1_555
Cu2G Cl1G 1_555 1_555
Cl1F Cu2 1_555 1_555
Cl1G Cu2A 1_555 1_555
Cl2D Cu3 1_555 1_555
C3 C9 1_555 1_555
C8 C9 1_555 1_555
C10 C11 1_555 1_555
C14 C15 1_555 1_555
C16 C18 1_555 1_555
C20 C25 1_555 1_555
C27 C28 1_555 1_555
C31 C32 1_555 1_555
C3A C9A 1_555 1_555
C8A C9A 1_555 1_555
C10A C11A 1_555 1_555
C14A C15A 1_555 1_555
C16A C18A 1_555 1_555
C20A C25A 1_555 1_555
C27A C28A 1_555 1_555
C31A C32A 1_555 1_555

#END
