
#######################################################################
#
#                 Cambridge Crystallographic Data Centre
#                                CCDC 
#
#######################################################################
#
# If this CIF has been generated from an entry in the Cambridge 
# Structural Database, then it will include bibliographic, chemical, 
# crystal, experimental, refinement or atomic coordinate data resulting 
# from the CCDC's data processing and validation procedures.
#
#######################################################################

data_POVPUN
_symmetry_cell_setting           orthorhombic
_symmetry_space_group_name_H-M   'P n a 21'
_symmetry_Int_Tables_number      33
_space_group_name_Hall           'P 2c -2n'
loop_
_symmetry_equiv_pos_site_id
_symmetry_equiv_pos_as_xyz
1 x,y,z
2 -x,-y,1/2+z
3 1/2+x,1/2-y,z
4 1/2-x,1/2+y,1/2+z
_cell_length_a                   18.1893(13)
_cell_length_b                   8.7547(6)
_cell_length_c                   19.4753(14)
_cell_angle_alpha                90
_cell_angle_beta                 90
_cell_angle_gamma                90
_cell_volume                     3101.28
loop_
_atom_site_label
_atom_site_type_symbol
_atom_site_fract_x
_atom_site_fract_y
_atom_site_fract_z
Cu1 Cu 0.70321(7) 0.77720(13) 0.51893(7)
Cu2 Cu 0.77255(7) 1.20759(13) 0.49868(6)
C1 C 0.8828(6) 1.1787(12) 0.5942(6)
C2 C 0.8232(6) 1.0819(11) 0.6207(6)
C3 C 0.8100(6) 0.9980(12) 0.6777(5)
H1 H 0.8409 0.9870 0.7154
C4 C 0.7414(6) 0.9315(12) 0.6692(5)
C5 C 0.7010(6) 0.8301(12) 0.7167(5)
C6 C 0.7429(6) 0.7423(12) 0.7609(6)
H2 H 0.7939 0.7495 0.7595
C7 C 0.7093(6) 0.6417(12) 0.8082(5)
C8 C 0.6342(6) 0.6316(14) 0.8072(6)
H3 H 0.6110 0.5616 0.8358
C9 C 0.5908(6) 0.7255(14) 0.7634(6)
H4 H 0.5397 0.7224 0.7655
C10 C 0.6260(6) 0.8204(13) 0.7183(6)
H5 H 0.5983 0.8794 0.6882
C11 C 0.7557(7) 0.5469(12) 0.8531(5)
C12 C 0.8276(6) 0.4938(12) 0.8412(5)
H6 H 0.8573 0.5091 0.8029
C13 C 0.8432(6) 0.4137(12) 0.9001(5)
C14 C 0.9097(7) 0.3225(12) 0.9242(6)
C15 C 0.8670(6) 0.8031(11) 0.5151(7)
H7 H 0.8597 0.8823 0.4840
C16 C 0.9363(7) 0.7646(12) 0.5336(7)
H8 H 0.9762 0.8168 0.5151
C17 C 0.9479(7) 0.6476(14) 0.5801(7)
H9 H 0.9954 0.6201 0.5928
C18 C 0.8890(7) 0.5737(14) 0.6069(7)
H10 H 0.8960 0.4947 0.6381
C19 C 0.8196(7) 0.6148(12) 0.5881(7)
C20 C 0.7513(6) 0.5397(12) 0.6099(6)
C21 C 0.7497(8) 0.4165(13) 0.6537(7)
H11 H 0.7929 0.3779 0.6723
C22 C 0.6818(9) 0.3503(14) 0.6698(6)
H12 H 0.6794 0.2681 0.6999
C23 C 0.6190(8) 0.4072(14) 0.6408(6)
H13 H 0.5735 0.3637 0.6504
C24 C 0.6249(7) 0.5335(14) 0.5962(6)
H14 H 0.5825 0.5737 0.5766
C25 C 0.8498(7) 1.4499(12) 0.4188(6)
H15 H 0.8932 1.4121 0.4374
C26 C 0.8524(7) 1.5731(13) 0.3734(6)
H16 H 0.8970 1.6158 0.3603
C27 C 0.7879(7) 1.6290(15) 0.3491(7)
H17 H 0.7889 1.7140 0.3205
C28 C 0.7214(7) 1.5652(14) 0.3650(6)
H18 H 0.6782 1.6029 0.3461
C29 C 0.7203(6) 1.4428(13) 0.4101(6)
C30 C 0.6533(6) 1.3609(12) 0.4349(6)
C31 C 0.5821(6) 1.4009(13) 0.4152(6)
H19 H 0.5740 1.4787 0.3835
C32 C 0.5232(6) 1.3205(12) 0.4444(7)
H20 H 0.4751 1.3450 0.4323
C33 C 0.5364(6) 1.2042(12) 0.4915(7)
H21 H 0.4979 1.1508 0.5118
C34 C 0.6090(6) 1.1710(11) 0.5070(6)
H22 H 0.6185 1.0910 0.5371
N1 N 0.7646(4) 1.0682(10) 0.5776(5)
N2 N 0.7130(5) 0.9766(11) 0.6070(5)
N3 N 0.7850(5) 0.4150(9) 0.9422(5)
N4 N 0.7305(5) 0.5002(10) 0.9153(5)
N5 N 0.6898(5) 0.5967(10) 0.5815(5)
N6 N 0.8090(5) 0.7291(10) 0.5408(5)
N7 N 0.7843(5) 1.3839(10) 0.4363(5)
N8 N 0.6669(5) 1.2492(10) 0.4805(4)
O1 O 0.9374(4) 1.2066(9) 0.6304(4)
O2 O 0.8731(4) 1.2344(8) 0.5355(4)
O3 O 0.8986(5) 0.2642(8) 0.9863(4)
O4 O 0.9652(4) 0.3099(10) 0.8904(5)
Cu1C Cu 0.79679(7) 0.27720(13) 1.01893(7)
Cu2C Cu 0.72745(7) 0.70759(13) 0.99868(6)
N3C N 0.7150(5) 0.9150(9) 0.4422(5)
N4C N 0.7695(5) 1.0002(10) 0.4153(5)
O3C O 0.6014(5) 0.7642(8) 0.4863(4)
O5 O 0.5478(6) 0.6288(13) 0.2737(5)
loop_
_geom_bond_atom_site_label_1
_geom_bond_atom_site_label_2
_geom_bond_site_symmetry_1
_geom_bond_site_symmetry_2
Cu1 N2 1_555 1_555
Cu2 N1 1_555 1_555
C1 C2 1_555 1_555
C2 C3 1_555 1_555
C3 H1 1_555 1_555
C4 C3 1_555 1_555
C5 C4 1_555 1_555
C6 C5 1_555 1_555
H2 C6 1_555 1_555
C7 C6 1_555 1_555
C8 C7 1_555 1_555
H3 C8 1_555 1_555
C9 C8 1_555 1_555
H4 C9 1_555 1_555
C10 C5 1_555 1_555
H5 C10 1_555 1_555
C11 C7 1_555 1_555
C12 C11 1_555 1_555
H6 C12 1_555 1_555
C13 C12 1_555 1_555
C14 C13 1_555 1_555
C15 H7 1_555 1_555
C16 C15 1_555 1_555
H8 C16 1_555 1_555
C17 C16 1_555 1_555
H9 C17 1_555 1_555
C18 C17 1_555 1_555
H10 C18 1_555 1_555
C19 C18 1_555 1_555
C20 C19 1_555 1_555
C21 C20 1_555 1_555
H11 C21 1_555 1_555
C22 C21 1_555 1_555
H12 C22 1_555 1_555
C23 C22 1_555 1_555
H13 C23 1_555 1_555
C24 C23 1_555 1_555
H14 C24 1_555 1_555
C25 H15 1_555 1_555
C26 C25 1_555 1_555
H16 C26 1_555 1_555
C27 C26 1_555 1_555
H17 C27 1_555 1_555
C28 C27 1_555 1_555
H18 C28 1_555 1_555
C29 C28 1_555 1_555
C30 C29 1_555 1_555
C31 C30 1_555 1_555
H19 C31 1_555 1_555
C32 C31 1_555 1_555
H20 C32 1_555 1_555
C33 C32 1_555 1_555
H21 C33 1_555 1_555
C34 C33 1_555 1_555
H22 C34 1_555 1_555
N1 C2 1_555 1_555
N2 C4 1_555 1_555
N3 C13 1_555 1_555
N4 C11 1_555 1_555
N5 Cu1 1_555 1_555
N6 Cu1 1_555 1_555
N7 Cu2 1_555 1_555
N8 Cu2 1_555 1_555
O1 C1 1_555 1_555
O2 Cu2 1_555 1_555
O3 C14 1_555 1_555
O4 C14 1_555 1_555
Cu1C N3 1_555 1_555
Cu2C N4 1_555 1_555
N3C Cu1 1_555 1_555
N4C Cu2 1_555 1_555
O3C Cu1 1_555 1_555
C1 O2 1_555 1_555
C9 C10 1_555 1_555
C15 N6 1_555 1_555
C19 N6 1_555 1_555
C20 N5 1_555 1_555
C24 N5 1_555 1_555
C25 N7 1_555 1_555
C29 N7 1_555 1_555
C30 N8 1_555 1_555
C34 N8 1_555 1_555
N1 N2 1_555 1_555
N3 N4 1_555 1_555
O3 Cu1C 1_555 1_555
N3C N4C 1_555 1_555

#END
