
#######################################################################
#
#                 Cambridge Crystallographic Data Centre
#                                CCDC 
#
#######################################################################
#
# If this CIF has been generated from an entry in the Cambridge 
# Structural Database, then it will include bibliographic, chemical, 
# crystal, experimental, refinement or atomic coordinate data resulting 
# from the CCDC's data processing and validation procedures.
#
#######################################################################

data_POVROI
_symmetry_cell_setting           monoclinic
_symmetry_space_group_name_H-M   'P 21/c'
_symmetry_Int_Tables_number      14
_space_group_name_Hall           '-P 2ybc'
loop_
_symmetry_equiv_pos_site_id
_symmetry_equiv_pos_as_xyz
1 x,y,z
2 -x,1/2+y,1/2-z
3 -x,-y,-z
4 x,1/2-y,1/2+z
_cell_length_a                   5.2759(11)
_cell_length_b                   15.400(3)
_cell_length_c                   12.984(3)
_cell_angle_alpha                90
_cell_angle_beta                 92.66(3)
_cell_angle_gamma                90
_cell_volume                     1053.8
loop_
_atom_site_label
_atom_site_type_symbol
_atom_site_fract_x
_atom_site_fract_y
_atom_site_fract_z
C1 C 0.6472(9) 0.6237(3) 0.8580(4)
C2 C 0.8011(10) 0.5514(3) 0.9127(4)
H1 H 0.9572 0.5770 0.9411
H2 H 0.7060 0.5317 0.9705
C3 C 0.7377(9) 0.4037(3) 0.8312(4)
H3 H 0.5762 0.3920 0.8535
C4 C 1.0872(9) 0.3958(3) 0.7633(3)
H4 H 1.2207 0.3742 0.7266
N1 N 0.8687(7) 0.4751(3) 0.8533(3)
N2 N 1.0981(8) 0.4707(3) 0.8086(3)
N3 N 0.8692(8) 0.3512(3) 0.7728(3)
Ni1 Ni 0.77424(11) 0.23486(4) 0.70603(5)
O1 O 0.9748(6) 0.6593(2) 0.7082(2)
O2 O 0.5179(6) 0.7145(2) 0.6917(2)
O3 O 0.6134(6) 0.5556(2) 0.6642(3)
H9 H 0.4576 0.5466 0.6744
O4 O 0.9781(6) 0.7529(2) 0.9090(3)
O5 O 0.5022(6) 0.7884(2) 0.8954(2)
O6 O 0.6943(6) 0.6974(2) 1.0428(2)
H10 H 0.6313 0.7367 1.0756
O7 O 0.3749(6) 0.6127(2) 0.8663(2)
H11 H 0.3220 0.5681 0.8332
P1 P 0.6950(2) 0.63743(8) 0.71938(9)
P2 P 0.7118(2) 0.72559(8) 0.92837(9)
C1A C 1.3528(9) 0.1237(3) 0.6420(4)
C2A C 1.1989(10) 0.0514(3) 0.5873(4)
H1A H 1.0428 0.0770 0.5589
H2A H 1.2940 0.0317 0.5295
C3A C 1.2623(9) -0.0963(3) 0.6688(4)
H3A H 1.4238 -0.1080 0.6465
C4A C 0.9128(9) -0.1042(3) 0.7367(3)
H4A H 0.7793 -0.1258 0.7734
N1A N 1.1313(7) -0.0249(3) 0.6467(3)
N2A N 0.9019(8) -0.0293(3) 0.6914(3)
N3A N 1.1308(8) -0.1488(3) 0.7272(3)
Ni1A Ni 1.22576(11) -0.26514(4) 0.79397(5)
Ni1A_2 Ni 1.22576(11) 0.73486(4) 0.79397(5)
Ni1A_3 Ni 0.22576(11) 0.73486(4) 0.79397(5)
Ni1_2 Ni 1.77424(11) 0.23486(4) 0.70603(5)
O1A O 1.0252(6) 0.1593(2) 0.7918(2)
O1_2 O 0.9748(6) -0.3407(2) 0.7082(2)
O2A O 1.4821(6) 0.2145(2) 0.8083(2)
O2A_2 O 0.4821(6) 0.2145(2) 0.8083(2)
O2_2 O 1.5179(6) -0.2855(2) 0.6917(2)
O3A O 1.3866(6) 0.0556(2) 0.8358(3)
H9A H 1.5424 0.0466 0.8256
O4A O 1.0219(6) 0.2529(2) 0.5910(3)
O4_2 O 0.9781(6) -0.2471(2) 0.9090(3)
O5A O 1.4978(6) 0.2884(2) 0.6046(2)
O5A_2 O 0.4978(6) 0.2884(2) 0.6046(2)
O5_2 O 1.5022(6) -0.2116(2) 0.8954(2)
O6A O 1.3057(6) 0.1974(2) 0.4572(2)
H10A H 1.3687 0.2367 0.4244
O7A O 1.6251(6) 0.1127(2) 0.6337(2)
O7A_2 O 0.6251(6) 0.1127(2) 0.6337(2)
O7_2 O 1.3749(6) -0.3873(2) 0.8663(2)
H11A H 1.6780 0.0681 0.6668
H11A_2 H 0.6780 0.0681 0.6668
H11_2 H 1.3220 -0.4319 0.8332
P1A P 1.3050(2) 0.13743(8) 0.78062(9)
P2A P 1.2882(2) 0.22559(8) 0.57163(9)
C5 C 0.0201(10) 0.5413(3) 0.4715(4)
H5 H -0.1412 0.5704 0.4586
H6 H 0.0913 0.5287 0.4056
N4 N 0.1963(8) 0.5990(3) 0.5334(3)
H7 H 0.1304 0.6183 0.5874
H8 H 0.2559 0.6389 0.4964
C5B C -0.0201(10) 0.4587(3) 0.5285(4)
H5B H 0.1412 0.4296 0.5414
H6B H -0.0913 0.4713 0.5944
N4B N -0.1963(8) 0.4010(3) 0.4666(3)
H7B H -0.1304 0.3817 0.4126
H8B H -0.2559 0.3611 0.5036
loop_
_geom_bond_atom_site_label_1
_geom_bond_atom_site_label_2
_geom_bond_site_symmetry_1
_geom_bond_site_symmetry_2
C1 C2 1_555 1_555
C2 H1 1_555 1_555
H2 C2 1_555 1_555
C3 H3 1_555 1_555
C4 H4 1_555 1_555
C5 H5 1_555 1_555
H6 C5 1_555 1_555
N1 C2 1_555 1_555
N2 C4 1_555 1_555
N3 C3 1_555 1_555
N4 C5 1_555 1_555
H7 N4 1_555 1_555
H8 N4 1_555 1_555
Ni1 N3 1_555 1_555
O1 P1 1_555 1_555
O2 P1 1_555 1_555
O3 H9 1_555 1_555
O4 P2 1_555 1_555
O5 P2 1_555 1_555
O6 H10 1_555 1_555
O7 C1 1_555 1_555
H11 O7 1_555 1_555
P1 C1 1_555 1_555
P2 C1 1_555 1_555
C1A C2A 1_555 1_555
C2A H1A 1_555 1_555
H2A C2A 1_555 1_555
C3A H3A 1_555 1_555
C4A H4A 1_555 1_555
C5B C5 1_555 1_555
H5B C5B 1_555 1_555
H6B C5B 1_555 1_555
N1A C2A 1_555 1_555
N2A C4A 1_555 1_555
N3A C3A 1_555 1_555
N4B C5B 1_555 1_555
H7B N4B 1_555 1_555
H8B N4B 1_555 1_555
Ni1A N3A 1_555 1_555
Ni1A_2 O1 1_555 1_555
Ni1A_3 O2 1_555 1_555
Ni1_2 O2A 1_555 1_555
O1A Ni1 1_555 1_555
O1_2 Ni1A 1_555 1_555
O2A P1A 1_555 1_555
O2A_2 Ni1 1_555 1_555
O2_2 Ni1A 1_555 1_555
O3A H9A 1_555 1_555
O4A Ni1 1_555 1_555
O4_2 Ni1A 1_555 1_555
O5A Ni1_2 1_555 1_555
O5A_2 Ni1 1_555 1_555
O5_2 Ni1A 1_555 1_555
O6A H10A 1_555 1_555
O7A C1A 1_555 1_555
O7A_2 Ni1 1_555 1_555
O7_2 Ni1A 1_555 1_555
H11A O7A 1_555 1_555
H11A_2 O7A_2 1_555 1_555
H11_2 O7_2 1_555 1_555
P1A C1A 1_555 1_555
P2A C1A 1_555 1_555
C3 N1 1_555 1_555
C4 N3 1_555 1_555
N1 N2 1_555 1_555
O3 P1 1_555 1_555
O4 Ni1A_2 1_555 1_555
O5 Ni1A_3 1_555 1_555
O6 P2 1_555 1_555
O7 Ni1A_3 1_555 1_555
C3A N1A 1_555 1_555
C4A N3A 1_555 1_555
N1A N2A 1_555 1_555
Ni1_2 O7A 1_555 1_555
O1A P1A 1_555 1_555
O3A P1A 1_555 1_555
O4A P2A 1_555 1_555
O5A P2A 1_555 1_555
O6A P2A 1_555 1_555

#END
