
#######################################################################
#
#                 Cambridge Crystallographic Data Centre
#                                CCDC 
#
#######################################################################
#
# If this CIF has been generated from an entry in the Cambridge 
# Structural Database, then it will include bibliographic, chemical, 
# crystal, experimental, refinement or atomic coordinate data resulting 
# from the CCDC's data processing and validation procedures.
#
#######################################################################

data_POVRIC
_symmetry_cell_setting           triclinic
_symmetry_space_group_name_H-M   'P -1'
_symmetry_Int_Tables_number      2
_space_group_name_Hall           '-P 1'
loop_
_symmetry_equiv_pos_site_id
_symmetry_equiv_pos_as_xyz
1 x,y,z
2 -x,-y,-z
_cell_length_a                   5.0837(7)
_cell_length_b                   9.5371(14)
_cell_length_c                   10.9248(16)
_cell_angle_alpha                64.889(2)
_cell_angle_beta                 88.064(3)
_cell_angle_gamma                75.387(3)
_cell_volume                     462.474
loop_
_atom_site_label
_atom_site_type_symbol
_atom_site_fract_x
_atom_site_fract_y
_atom_site_fract_z
Co1 Co 1.42869(12) -0.05102(7) 0.38022(6)
P1 P 0.8481(2) 0.17609(13) 0.19921(11)
P2 P 0.9930(2) 0.25951(13) 0.42335(11)
O1 O 1.2392(6) 0.1149(4) 0.4710(3)
O2 O 0.5919(6) 0.1356(3) 0.2588(3)
O3 O 1.1040(6) 0.0427(3) 0.2397(3)
O4 O 0.7375(7) 0.2422(4) 0.4934(3)
O5 O 1.1428(6) 0.3791(4) 0.1686(3)
N1 N 0.6163(8) 0.7970(4) 0.2843(4)
O6 O 1.0971(7) 0.3999(4) 0.4312(3)
H1 H 1.0006 0.4358 0.4784
N2 N 0.6828(8) 0.6164(4) 0.2061(4)
O7 O 0.7819(7) 0.2608(4) 0.0413(3)
H2 H 0.7493 0.1973 0.0155
C1 C 0.6670(9) 0.4808(5) 0.1807(5)
H3 H 0.6452 0.5158 0.0835
H4 H 0.5052 0.4481 0.2183
C2 C 0.9146(9) 0.3342(5) 0.2397(4)
N3 N 0.8514(9) 0.7098(5) 0.1425(4)
C3 C 0.5449(10) 0.6715(5) 0.2890(5)
H5 H 0.4151 0.6274 0.3431
C4 C 0.8038(11) 0.8157(6) 0.1931(5)
H6 H 0.8926 0.8968 0.1678
H7 H 1.303(11) 0.293(7) 0.201(5)
Co1A Co 1.57131(12) 0.05102(7) 0.61978(6)
Co1_2 Co 0.42869(12) -0.05102(7) 0.38022(6)
Co1A_2 Co 0.57131(12) 0.05102(7) 0.61978(6)
Co1_3 Co 0.42869(12) 0.94898(7) 0.38022(6)
O1A O 1.7608(6) -0.1149(4) 0.5290(3)
O2_2 O 1.5919(6) 0.1356(3) 0.2588(3)
O4A O 1.2625(7) -0.2422(4) 0.5066(3)
N1_2 N 1.6163(8) -0.2030(4) 0.2843(4)
loop_
_geom_bond_atom_site_label_1
_geom_bond_atom_site_label_2
_geom_bond_site_symmetry_1
_geom_bond_site_symmetry_2
Co1 O1 1_555 1_555
P1 O2 1_555 1_555
P2 O1 1_555 1_555
O1 Co1A 1_555 1_555
O2 Co1_2 1_555 1_555
O3 Co1 1_555 1_555
O4 P2 1_555 1_555
O5 C2 1_555 1_555
N1 C3 1_555 1_555
O6 P2 1_555 1_555
H1 O6 1_555 1_555
N2 C1 1_555 1_555
O7 P1 1_555 1_555
H2 O7 1_555 1_555
C1 H3 1_555 1_555
H4 C1 1_555 1_555
C2 P1 1_555 1_555
N3 N2 1_555 1_555
C3 N2 1_555 1_555
H5 C3 1_555 1_555
C4 N1 1_555 1_555
H6 C4 1_555 1_555
H7 O5 1_555 1_555
Co1A O1A 1_555 1_555
Co1A_2 O4 1_555 1_555
Co1_3 N1 1_555 1_555
O1A Co1 1_555 1_555
O2_2 Co1 1_555 1_555
O4A Co1 1_555 1_555
N1_2 Co1 1_555 1_555
P1 O3 1_555 1_555
P2 C2 1_555 1_555
C1 C2 1_555 1_555
N3 C4 1_555 1_555

#END
