
#######################################################################
#
#                 Cambridge Crystallographic Data Centre
#                                CCDC 
#
#######################################################################
#
# If this CIF has been generated from an entry in the Cambridge 
# Structural Database, then it will include bibliographic, chemical, 
# crystal, experimental, refinement or atomic coordinate data resulting 
# from the CCDC's data processing and validation procedures.
#
#######################################################################

data_POVWON
_symmetry_cell_setting           monoclinic
_symmetry_space_group_name_H-M   'P 21/c'
_symmetry_Int_Tables_number      14
_space_group_name_Hall           '-P 2ybc'
loop_
_symmetry_equiv_pos_site_id
_symmetry_equiv_pos_as_xyz
1 x,y,z
2 -x,1/2+y,1/2-z
3 -x,-y,-z
4 x,1/2-y,1/2+z
_cell_length_a                   10.3593(19)
_cell_length_b                   17.437(3)
_cell_length_c                   11.532(2)
_cell_angle_alpha                90
_cell_angle_beta                 114.121(3)
_cell_angle_gamma                90
_cell_volume                     1901.2
loop_
_atom_site_label
_atom_site_type_symbol
_atom_site_fract_x
_atom_site_fract_y
_atom_site_fract_z
Zn1 Zn 0.26366(4) 0.21853(2) 0.74913(4)
N1 N 0.3530(3) 0.10537(17) 0.7530(3)
N2 N 0.7373(3) -0.05578(16) 1.0121(3)
N3 N 0.8732(3) -0.04492(17) 1.1017(3)
N4 N 0.8002(3) 0.06156(15) 0.9967(3)
N5 N 0.8098(3) 0.13528(17) 0.9516(3)
H1 H 0.7661 0.1706 0.9786
H2 H 0.7713 0.1328 0.8669
N6 N 1.2057(3) 0.16409(17) 1.2651(3)
C1 C 1.2938(4) 0.1166(2) 1.3522(4)
H3 H 1.3768 0.1367 1.4136
C2 C 1.2681(4) 0.0398(2) 1.3555(4)
H4 H 1.3340 0.0082 1.4158
C3 C 1.1428(4) 0.0100(2) 1.2680(4)
H5 H 1.1230 -0.0419 1.2686
C4 C 1.0465(4) 0.0585(2) 1.1791(3)
C5 C 1.0829(4) 0.1351(2) 1.1805(3)
H6 H 1.0197 0.1679 1.1204
C6 C 0.9097(4) 0.02558(19) 1.0913(3)
C7 C 0.6940(4) 0.00896(19) 0.9507(3)
C8 C 0.5503(4) 0.02109(19) 0.8528(3)
C9 C 0.4735(4) -0.0394(2) 0.7786(4)
H7 H 0.5132 -0.0880 0.7869
C10 C 0.3366(5) -0.0257(3) 0.6919(5)
H8 H 0.2827 -0.0652 0.6408
C11 C 0.2809(4) 0.0464(2) 0.6819(4)
H9 H 0.1887 0.0547 0.6230
C12 C 0.4853(4) 0.0916(2) 0.8377(3)
H10 H 0.5360 0.1318 0.8893
O1 O 0.3374(3) 0.20504(13) 0.9525(2)
H11 H 0.3176 0.1593 0.9652
H12 H 0.4252 0.2152 0.9884
O2 O 0.0758(3) 0.16974(16) 0.7372(3)
H13 H 0.0852 0.1336 0.7894
H14 H -0.0034 0.1924 0.7098
O3 O 0.1772(3) 0.21948(16) 0.5555(3)
H15 H 0.2208 0.2431 0.5179
H16 H 0.0922 0.2084 0.5072
O4 O 0.4617(3) 0.26488(15) 0.7665(2)
H17 H 0.5242 0.2780 0.8393
H18 H 0.4981 0.2445 0.7206
Zn1C Zn 1.26366(4) 0.28147(2) 1.24913(4)
N6C N 0.2057(3) 0.33591(17) 0.7651(3)
S1 S 0.69152(10) 0.21222(6) 0.60764(9)
O5 O 0.6345(8) 0.1609(3) 0.6680(5)
O6 O 0.6053(5) 0.2790(3) 0.5864(5)
O7 O 0.6815(4) 0.1868(3) 0.4860(3)
O8 O 0.8314(4) 0.2356(3) 0.6891(4)
O9 O 0.9140(3) 0.3226(2) 0.9111(3)
H19 H 0.8814 0.3083 0.8345
H20 H 0.8576 0.3208 0.9474
loop_
_geom_bond_atom_site_label_1
_geom_bond_atom_site_label_2
_geom_bond_site_symmetry_1
_geom_bond_site_symmetry_2
Zn1 N1 1_555 1_555
N1 C11 1_555 1_555
N2 N3 1_555 1_555
N3 C6 1_555 1_555
N4 N5 1_555 1_555
N5 H1 1_555 1_555
H2 N5 1_555 1_555
N6 C1 1_555 1_555
C1 H3 1_555 1_555
C2 C1 1_555 1_555
H4 C2 1_555 1_555
C3 C2 1_555 1_555
H5 C3 1_555 1_555
C4 C3 1_555 1_555
C5 N6 1_555 1_555
H6 C5 1_555 1_555
C6 N4 1_555 1_555
C7 N2 1_555 1_555
C8 C7 1_555 1_555
C9 C8 1_555 1_555
H7 C9 1_555 1_555
C10 C9 1_555 1_555
H8 C10 1_555 1_555
C11 C10 1_555 1_555
H9 C11 1_555 1_555
C12 N1 1_555 1_555
H10 C12 1_555 1_555
O1 Zn1 1_555 1_555
H11 O1 1_555 1_555
H12 O1 1_555 1_555
O2 Zn1 1_555 1_555
H13 O2 1_555 1_555
H14 O2 1_555 1_555
O3 Zn1 1_555 1_555
H15 O3 1_555 1_555
H16 O3 1_555 1_555
O4 Zn1 1_555 1_555
H17 O4 1_555 1_555
H18 O4 1_555 1_555
S1 O5 1_555 1_555
O6 S1 1_555 1_555
O7 S1 1_555 1_555
O8 S1 1_555 1_555
O9 H19 1_555 1_555
H20 O9 1_555 1_555
Zn1C N6 1_555 1_555
N6C Zn1 1_555 1_555
N4 C7 1_555 1_555
C4 C5 1_555 1_555
C4 C6 1_555 1_555
C8 C12 1_555 1_555

#END
