
#######################################################################
#
#                 Cambridge Crystallographic Data Centre
#                                CCDC 
#
#######################################################################
#
# If this CIF has been generated from an entry in the Cambridge 
# Structural Database, then it will include bibliographic, chemical, 
# crystal, experimental, refinement or atomic coordinate data resulting 
# from the CCDC's data processing and validation procedures.
#
#######################################################################

data_POWKUJ
_symmetry_cell_setting           monoclinic
_symmetry_space_group_name_H-M   'P 21'
_symmetry_Int_Tables_number      4
_space_group_name_Hall           'P 2yb'
loop_
_symmetry_equiv_pos_site_id
_symmetry_equiv_pos_as_xyz
1 x,y,z
2 -x,1/2+y,-z
_cell_length_a                   10.8040(13)
_cell_length_b                   13.3524(16)
_cell_length_c                   12.7899(15)
_cell_angle_alpha                90
_cell_angle_beta                 97.497(2)
_cell_angle_gamma                90
_cell_volume                     1829.29
loop_
_atom_site_label
_atom_site_type_symbol
_atom_site_fract_x
_atom_site_fract_y
_atom_site_fract_z
Ru1 Ru 0.64048(3) 0.91099(3) 0.06274(3)
C1 C 0.6789(5) 1.0715(4) 0.2204(4)
H1 H 0.6764 1.1394 0.2362
C2 C 0.6938(5) 1.0019(4) 0.3097(4)
C3 C 0.7038(6) 1.0428(5) 0.4086(4)
H2 H 0.6930 1.1114 0.4158
C4 C 0.7297(8) 0.9840(6) 0.4987(6)
H3 H 0.7320 1.0119 0.5655
C5 C 0.7520(7) 0.8827(6) 0.4861(5)
H4 H 0.7729 0.8426 0.5452
C6 C 0.7436(6) 0.8404(5) 0.3860(4)
H5 H 0.7606 0.7726 0.3793
C7 C 0.7099(4) 0.8981(5) 0.2950(4)
C8 C 0.6726(5) 1.1276(4) 0.0443(4)
H6 H 0.7577 1.1372 0.0296
H7 H 0.6432 1.1904 0.0701
C9 C 0.5905(5) 1.0967(4) -0.0553(4)
H8 H 0.5040 1.1124 -0.0493
H9 H 0.6145 1.1331 -0.1152
C10 C 0.5985(6) 0.8494(5) -0.1905(4)
C11 C 0.5909(6) 0.8238(6) -0.2993(5)
H10 H 0.5894 0.8751 -0.3485
C12 C 0.5857(6) 0.7279(6) -0.3340(5)
H11 H 0.5817 0.7141 -0.4056
C13 C 0.5864(5) 0.6504(5) -0.2613(5)
H12 H 0.5804 0.5844 -0.2847
C14 C 0.5959(5) 0.6706(4) -0.1546(4)
H13 H 0.6003 0.6173 -0.1075
C15 C 0.5992(4) 0.7692(4) -0.1144(4)
C16 C 0.5955(5) 0.9527(5) -0.1637(5)
H14 H 0.5860 0.9983 -0.2192
C17 C 1.0665(5) 0.7365(4) 0.2609(4)
C18 C 1.0265(6) 0.6752(6) 0.3385(5)
H15 H 1.0015 0.7043 0.3985
C19 C 1.0233(6) 0.5722(5) 0.3277(5)
H16 H 0.9922 0.5324 0.3779
C20 C 1.0666(6) 0.5293(5) 0.2417(5)
H17 H 1.0662 0.4600 0.2346
C21 C 1.1101(5) 0.5877(4) 0.1667(5)
H18 H 1.1410 0.5567 0.1103
C22 C 1.1096(4) 0.6913(4) 0.1717(4)
C23 C 1.0698(5) 0.8419(4) 0.2784(4)
H19 H 1.0441 0.8646 0.3408
C24 C 1.1109(5) 1.0161(4) 0.2428(4)
H20 H 1.1994 1.0340 0.2582
C25 C 1.0482(6) 1.0462(5) 0.3389(5)
H21 H 1.0909 1.0146 0.4018
H22 H 0.9620 1.0239 0.3296
C26 C 1.0534(8) 1.1616(6) 0.3513(6)
H23 H 1.0072 1.1812 0.4082
H24 H 1.1395 1.1823 0.3702
C27 C 0.9992(6) 1.2147(5) 0.2510(5)
H25 H 1.0067 1.2865 0.2613
H26 H 0.9111 1.1987 0.2355
C28 C 1.0654(5) 1.1843(4) 0.1578(5)
H27 H 1.0265 1.2175 0.0944
H28 H 1.1521 1.2051 0.1704
C29 C 1.0583(5) 1.0717(4) 0.1426(4)
H29 H 0.9696 1.0542 0.1280
C30 C 1.2155(5) 1.0422(4) -0.1028(4)
C31 C 1.2629(5) 1.1110(5) -0.1702(4)
H30 H 1.2632 1.1789 -0.1542
C32 C 1.3087(6) 1.0788(5) -0.2598(5)
H31 H 1.3409 1.1246 -0.3040
C33 C 1.3066(5) 0.9783(5) -0.2835(5)
H32 H 1.3373 0.9569 -0.3444
C34 C 1.2611(4) 0.9093(6) -0.2206(4)
H33 H 1.2608 0.8419 -0.2387
C35 C 1.2148(4) 0.9391(4) -0.1290(4)
C36 C 1.1602(5) 1.0821(4) -0.0153(4)
H34 H 1.1524 1.1513 -0.0105
C37 C 0.4563(4) 0.9127(5) 0.0964(3)
C38 C 0.8231(4) 0.8928(4) 0.0345(4)
Mn1 Mn 1.13991(6) 0.88204(5) 0.06895(6)
N1 N 0.6691(4) 1.0482(4) 0.1254(3)
N2 N 0.6047(4) 0.9886(3) -0.0710(3)
N3 N 1.1048(3) 0.9082(4) 0.2164(3)
N4 N 1.1207(4) 1.0279(4) 0.0567(3)
N5 N 0.9242(4) 0.8765(3) 0.0252(3)
N6 N 0.3560(3) 0.9067(4) 0.1141(3)
O1 O 0.5983(3) 0.7811(3) -0.0153(3)
O2 O 0.6986(3) 0.8497(3) 0.2046(3)
O3 O 1.1690(3) 0.8690(3) -0.0708(3)
O4 O 1.1500(3) 0.7435(3) 0.0949(3)
Mn1_2 Mn 0.13991(6) 0.88204(5) 0.06895(6)
N6_2 N 1.3560(3) 0.9067(4) 0.1141(3)
loop_
_geom_bond_atom_site_label_1
_geom_bond_atom_site_label_2
_geom_bond_site_symmetry_1
_geom_bond_site_symmetry_2
Ru1 C37 1_555 1_555
C1 H1 1_555 1_555
C2 C1 1_555 1_555
C3 C2 1_555 1_555
H2 C3 1_555 1_555
C4 C3 1_555 1_555
H3 C4 1_555 1_555
C5 C4 1_555 1_555
H4 C5 1_555 1_555
C6 C5 1_555 1_555
H5 C6 1_555 1_555
C7 C2 1_555 1_555
C8 H6 1_555 1_555
H7 C8 1_555 1_555
C9 C8 1_555 1_555
H8 C9 1_555 1_555
H9 C9 1_555 1_555
C10 C11 1_555 1_555
C11 H10 1_555 1_555
C12 C11 1_555 1_555
H11 C12 1_555 1_555
C13 C12 1_555 1_555
H12 C13 1_555 1_555
C14 C13 1_555 1_555
H13 C14 1_555 1_555
C15 C10 1_555 1_555
C16 C10 1_555 1_555
H14 C16 1_555 1_555
C17 C18 1_555 1_555
C18 H15 1_555 1_555
C19 C18 1_555 1_555
H16 C19 1_555 1_555
C20 C19 1_555 1_555
H17 C20 1_555 1_555
C21 C20 1_555 1_555
H18 C21 1_555 1_555
C22 C17 1_555 1_555
C23 C17 1_555 1_555
H19 C23 1_555 1_555
C24 H20 1_555 1_555
C25 C24 1_555 1_555
H21 C25 1_555 1_555
H22 C25 1_555 1_555
C26 C25 1_555 1_555
H23 C26 1_555 1_555
H24 C26 1_555 1_555
C27 C26 1_555 1_555
H25 C27 1_555 1_555
H26 C27 1_555 1_555
C28 C27 1_555 1_555
H27 C28 1_555 1_555
H28 C28 1_555 1_555
C29 C24 1_555 1_555
H29 C29 1_555 1_555
C30 C31 1_555 1_555
C31 H30 1_555 1_555
C32 C31 1_555 1_555
H31 C32 1_555 1_555
C33 C32 1_555 1_555
H32 C33 1_555 1_555
C34 C33 1_555 1_555
H33 C34 1_555 1_555
C35 C30 1_555 1_555
C36 C30 1_555 1_555
H34 C36 1_555 1_555
C37 N6 1_555 1_555
C38 Ru1 1_555 1_555
Mn1 N3 1_555 1_555
N1 Ru1 1_555 1_555
N2 Ru1 1_555 1_555
N3 C23 1_555 1_555
N4 C29 1_555 1_555
N5 C38 1_555 1_555
N6 Mn1_2 1_555 1_555
O1 Ru1 1_555 1_555
O2 Ru1 1_555 1_555
O3 C35 1_555 1_555
O4 C22 1_555 1_555
N6_2 Mn1 1_555 1_555
C1 N1 1_555 1_555
C6 C7 1_555 1_555
C7 O2 1_555 1_555
C8 N1 1_555 1_555
C9 N2 1_555 1_555
C14 C15 1_555 1_555
C15 O1 1_555 1_555
C16 N2 1_555 1_555
C21 C22 1_555 1_555
C24 N3 1_555 1_555
C28 C29 1_555 1_555
C34 C35 1_555 1_555
C36 N4 1_555 1_555
Mn1 N4 1_555 1_555
Mn1 N5 1_555 1_555
Mn1 O3 1_555 1_555
Mn1 O4 1_555 1_555

#END
