
#######################################################################
#
#                 Cambridge Crystallographic Data Centre
#                                CCDC 
#
#######################################################################
#
# If this CIF has been generated from an entry in the Cambridge 
# Structural Database, then it will include bibliographic, chemical, 
# crystal, experimental, refinement or atomic coordinate data resulting 
# from the CCDC's data processing and validation procedures.
#
#######################################################################

data_POWNEW
_symmetry_cell_setting           monoclinic
_symmetry_space_group_name_H-M   'P 2/c'
_symmetry_Int_Tables_number      13
_space_group_name_Hall           '-P 2yc'
loop_
_symmetry_equiv_pos_site_id
_symmetry_equiv_pos_as_xyz
1 x,y,z
2 -x,y,1/2-z
3 -x,-y,-z
4 x,-y,1/2+z
_cell_length_a                   13.1681(6)
_cell_length_b                   15.7367(7)
_cell_length_c                   13.2976(6)
_cell_angle_alpha                90
_cell_angle_beta                 91.788(2)
_cell_angle_gamma                90
_cell_volume                     2754.22
loop_
_atom_site_label
_atom_site_type_symbol
_atom_site_fract_x
_atom_site_fract_y
_atom_site_fract_z
Na1 Na 0.5000 0.32900(4) 0.7500
Na2 Na 0.5000 0.82927(4) 0.7500
O1 O 0.33554(7) 0.82134(6) 0.66971(7)
O2 O 0.62965(7) 0.32087(5) 0.63385(7)
N1 N 0.63073(8) 1.00750(6) 0.64429(7)
N2 N 0.35022(7) 0.51105(6) 0.66490(7)
N3 N 0.56391(7) 0.96741(6) 0.69373(7)
N4 N 0.42520(7) 0.46895(6) 0.70315(7)
N5 N 0.5000 1.17819(9) 0.7500
N6 N 0.5000 0.67922(9) 0.7500
C1 C 0.69042(9) 0.95402(7) 0.58304(9)
C2 C 0.27634(8) 0.46012(7) 0.61292(8)
C3 C 0.27813(10) 0.88780(8) 0.62038(10)
H1 H 0.3038 0.8987 0.5524
H2 H 0.2824 0.9411 0.6599
C4 C 0.70640(10) 0.25670(9) 0.64288(12)
H3 H 0.6988 0.2146 0.5879
H4 H 0.7028 0.2268 0.7082
C5 C 0.79491(9) 0.97295(7) 0.58255(9)
C6 C 0.17468(8) 0.47476(7) 0.63764(8)
C7 C 0.16942(11) 0.85533(10) 0.61373(11)
H5 H 0.1577 0.8192 0.5536
H6 H 0.1201 0.9028 0.6120
C8 C 0.80559(10) 0.30454(9) 0.63588(11)
H7 H 0.8612 0.2667 0.6150
H8 H 0.8252 0.3320 0.7006
C9 C 0.85714(9) 0.92816(8) 0.51848(9)
H9 H 0.9278 0.9403 0.5195
C10 C 0.09725(8) 0.43466(8) 0.58200(9)
H10 H 0.0287 0.4439 0.5994
C11 C 0.16236(11) 0.80393(10) 0.71027(11)
H11 H 0.1427 0.8404 0.7671
H12 H 0.1125 0.7572 0.7021
C12 C 0.77878(9) 0.37023(9) 0.55501(10)
H13 H 0.8211 0.4219 0.5633
H14 H 0.7876 0.3467 0.4868
C13 C 0.81902(10) 0.86616(8) 0.45295(9)
C14 C 0.11775(9) 0.38141(7) 0.50161(9)
C15 C 0.26899(11) 0.76965(10) 0.72660(12)
H15 H 0.2890 0.7718 0.7989
H16 H 0.2724 0.7098 0.7038
C16 C 0.66749(10) 0.38947(9) 0.57312(11)
H17 H 0.6609 0.4444 0.6087
H18 H 0.6286 0.3928 0.5083
C17 C 0.71568(10) 0.84850(8) 0.45490(9)
H19 H 0.6886 0.8061 0.4109
C18 C 0.21870(9) 0.36754(7) 0.47907(8)
H20 H 0.2336 0.3310 0.4246
C19 C 0.64987(9) 0.89035(7) 0.51870(8)
C20 C 0.29912(8) 0.40531(7) 0.53339(8)
C21 C 0.83939(10) 1.03949(8) 0.65212(11)
H21 H 0.9128 1.0435 0.6428
H22 H 0.8268 1.0238 0.7220
H23 H 0.8076 1.0945 0.6370
C22 C 0.15141(9) 0.53288(8) 0.72398(10)
H24 H 0.0783 0.5318 0.7356
H25 H 0.1721 0.5910 0.7077
H26 H 0.1887 0.5137 0.7848
C23 C 0.88669(11) 0.82119(9) 0.38042(10)
H27 H 0.8668 0.7613 0.3753
H28 H 0.9575 0.8252 0.4048
H29 H 0.8796 0.8479 0.3140
C24 C 0.03400(10) 0.33911(9) 0.43983(10)
H30 H 0.0462 0.3472 0.3681
H31 H -0.0315 0.3645 0.4560
H32 H 0.0329 0.2782 0.4552
C25 C 0.53868(10) 0.86734(9) 0.51251(9)
H33 H 0.5212 0.8456 0.4451
H34 H 0.4978 0.9179 0.5258
H35 H 0.5248 0.8235 0.5626
C26 C 0.40590(9) 0.38857(8) 0.50138(9)
H36 H 0.4047 0.3710 0.4306
H37 H 0.4361 0.3433 0.5431
H38 H 0.4464 0.4405 0.5095
C27 C 0.5000 1.01458(10) 0.7500
C28 C 0.5000 0.51558(9) 0.7500
C29 C 0.5000 1.10525(10) 0.7500
C30 C 0.5000 0.60622(10) 0.7500
N1A N 0.36927(8) 1.00750(6) 0.85571(7)
N3A N 0.43609(7) 0.96741(6) 0.80627(7)
C1A C 0.30958(9) 0.95402(7) 0.91696(9)
C5A C 0.20509(9) 0.97295(7) 0.91745(9)
C9A C 0.14286(9) 0.92816(8) 0.98152(9)
H9A H 0.0722 0.9403 0.9805
C13A C 0.18098(10) 0.86616(8) 1.04705(9)
C17A C 0.28432(10) 0.84850(8) 1.04510(9)
H19A H 0.3114 0.8061 1.0891
C19A C 0.35013(9) 0.89035(7) 0.98130(8)
C21A C 0.16061(10) 1.03949(8) 0.84788(11)
H21A H 0.0872 1.0435 0.8572
H22A H 0.1732 1.0238 0.7780
H23A H 0.1924 1.0945 0.8630
C23A C 0.11331(11) 0.82119(9) 1.11958(10)
H27A H 0.1332 0.7613 1.1247
H28A H 0.0425 0.8252 1.0952
H29A H 0.1204 0.8479 1.1860
C25A C 0.46132(10) 0.86734(9) 0.98749(9)
H33A H 0.4788 0.8456 1.0549
H34A H 0.5022 0.9179 0.9742
H35A H 0.4752 0.8235 0.9374
N2A N 0.64978(7) 0.51105(6) 0.83510(7)
N4A N 0.57480(7) 0.46895(6) 0.79685(7)
C2A C 0.72366(8) 0.46012(7) 0.88708(8)
C6A C 0.82532(8) 0.47476(7) 0.86236(8)
C10A C 0.90275(8) 0.43466(8) 0.91800(9)
H10A H 0.9713 0.4439 0.9006
C14A C 0.88225(9) 0.38141(7) 0.99839(9)
C18A C 0.78130(9) 0.36754(7) 1.02093(8)
H20A H 0.7664 0.3310 1.0754
C20A C 0.70088(8) 0.40531(7) 0.96661(8)
C22A C 0.84859(9) 0.53288(8) 0.77602(10)
H24A H 0.9217 0.5318 0.7644
H25A H 0.8279 0.5910 0.7923
H26A H 0.8113 0.5137 0.7152
C24A C 0.96600(10) 0.33911(9) 1.06017(10)
H30A H 0.9538 0.3472 1.1319
H31A H 1.0315 0.3645 1.0440
H32A H 0.9671 0.2782 1.0448
C26A C 0.59410(9) 0.38857(8) 0.99862(9)
H36A H 0.5953 0.3710 1.0694
H37A H 0.5639 0.3433 0.9569
H38A H 0.5536 0.4405 0.9905
O1A O 0.66446(7) 0.82134(6) 0.83029(7)
O2A O 0.37035(7) 0.32087(5) 0.86615(7)
C3A C 0.72187(10) 0.88780(8) 0.87962(10)
H1A H 0.6962 0.8987 0.9476
H2A H 0.7176 0.9411 0.8401
C4A C 0.29360(10) 0.25670(9) 0.85712(12)
H3A H 0.3012 0.2146 0.9121
H4A H 0.2972 0.2268 0.7918
C7A C 0.83058(11) 0.85533(10) 0.88627(11)
H5A H 0.8423 0.8192 0.9464
H6A H 0.8799 0.9028 0.8880
C8A C 0.19441(10) 0.30454(9) 0.86412(11)
H7A H 0.1388 0.2667 0.8850
H8A H 0.1748 0.3320 0.7994
C11A C 0.83764(11) 0.80393(10) 0.78973(11)
H11A H 0.8573 0.8404 0.7329
H12A H 0.8875 0.7572 0.7979
C12A C 0.22122(9) 0.37023(9) 0.94499(10)
H13A H 0.1789 0.4219 0.9367
H14A H 0.2124 0.3467 1.0132
C15A C 0.73101(11) 0.76965(10) 0.77340(12)
H15A H 0.7110 0.7718 0.7011
H16A H 0.7276 0.7098 0.7962
C16A C 0.33251(10) 0.38947(9) 0.92688(11)
H17A H 0.3391 0.4444 0.8913
H18A H 0.3714 0.3928 0.9917
Na1_2 Na 0.5000 1.32900(4) 0.7500
N5_2 N 0.5000 0.17819(9) 0.7500
loop_
_geom_bond_atom_site_label_1
_geom_bond_atom_site_label_2
_geom_bond_site_symmetry_1
_geom_bond_site_symmetry_2
Na1 O2 1_555 1_555
Na2 O1 1_555 1_555
O1 C3 1_555 1_555
O2 C4 1_555 1_555
N1 N3 1_555 1_555
N2 N4 1_555 1_555
N3 Na2 1_555 1_555
N4 Na1 1_555 1_555
N5 C29 1_555 1_555
N6 Na2 1_555 1_555
C1 N1 1_555 1_555
C2 N2 1_555 1_555
C3 H1 1_555 1_555
H2 C3 1_555 1_555
C4 H3 1_555 1_555
H4 C4 1_555 1_555
C5 C1 1_555 1_555
C6 C2 1_555 1_555
C7 C3 1_555 1_555
H5 C7 1_555 1_555
H6 C7 1_555 1_555
C8 C4 1_555 1_555
H7 C8 1_555 1_555
H8 C8 1_555 1_555
C9 C5 1_555 1_555
H9 C9 1_555 1_555
C10 C6 1_555 1_555
H10 C10 1_555 1_555
C11 C7 1_555 1_555
H11 C11 1_555 1_555
H12 C11 1_555 1_555
C12 C8 1_555 1_555
H13 C12 1_555 1_555
H14 C12 1_555 1_555
C13 C9 1_555 1_555
C14 C10 1_555 1_555
C15 O1 1_555 1_555
H15 C15 1_555 1_555
H16 C15 1_555 1_555
C16 O2 1_555 1_555
H17 C16 1_555 1_555
H18 C16 1_555 1_555
C17 C13 1_555 1_555
H19 C17 1_555 1_555
C18 C14 1_555 1_555
H20 C18 1_555 1_555
C19 C1 1_555 1_555
C20 C2 1_555 1_555
C21 C5 1_555 1_555
H21 C21 1_555 1_555
H22 C21 1_555 1_555
H23 C21 1_555 1_555
C22 C6 1_555 1_555
H24 C22 1_555 1_555
H25 C22 1_555 1_555
H26 C22 1_555 1_555
C23 C13 1_555 1_555
H27 C23 1_555 1_555
H28 C23 1_555 1_555
H29 C23 1_555 1_555
C24 C14 1_555 1_555
H30 C24 1_555 1_555
H31 C24 1_555 1_555
H32 C24 1_555 1_555
C25 C19 1_555 1_555
H33 C25 1_555 1_555
H34 C25 1_555 1_555
H35 C25 1_555 1_555
C26 C20 1_555 1_555
H36 C26 1_555 1_555
H37 C26 1_555 1_555
H38 C26 1_555 1_555
C27 N3 1_555 1_555
C28 N4 1_555 1_555
C29 C27 1_555 1_555
C30 N6 1_555 1_555
N1A N3A 1_555 1_555
N3A Na2 1_555 1_555
C1A N1A 1_555 1_555
C5A C1A 1_555 1_555
C9A C5A 1_555 1_555
H9A C9A 1_555 1_555
C13A C9A 1_555 1_555
C17A C13A 1_555 1_555
H19A C17A 1_555 1_555
C19A C1A 1_555 1_555
C21A C5A 1_555 1_555
H21A C21A 1_555 1_555
H22A C21A 1_555 1_555
H23A C21A 1_555 1_555
C23A C13A 1_555 1_555
H27A C23A 1_555 1_555
H28A C23A 1_555 1_555
H29A C23A 1_555 1_555
C25A C19A 1_555 1_555
H33A C25A 1_555 1_555
H34A C25A 1_555 1_555
H35A C25A 1_555 1_555
N2A N4A 1_555 1_555
N4A Na1 1_555 1_555
C2A N2A 1_555 1_555
C6A C2A 1_555 1_555
C10A C6A 1_555 1_555
H10A C10A 1_555 1_555
C14A C10A 1_555 1_555
C18A C14A 1_555 1_555
H20A C18A 1_555 1_555
C20A C2A 1_555 1_555
C22A C6A 1_555 1_555
H24A C22A 1_555 1_555
H25A C22A 1_555 1_555
H26A C22A 1_555 1_555
C24A C14A 1_555 1_555
H30A C24A 1_555 1_555
H31A C24A 1_555 1_555
H32A C24A 1_555 1_555
C26A C20A 1_555 1_555
H36A C26A 1_555 1_555
H37A C26A 1_555 1_555
H38A C26A 1_555 1_555
O1A Na2 1_555 1_555
O2A Na1 1_555 1_555
C3A O1A 1_555 1_555
H1A C3A 1_555 1_555
H2A C3A 1_555 1_555
C4A O2A 1_555 1_555
H3A C4A 1_555 1_555
H4A C4A 1_555 1_555
C7A C3A 1_555 1_555
H5A C7A 1_555 1_555
H6A C7A 1_555 1_555
C8A C4A 1_555 1_555
H7A C8A 1_555 1_555
H8A C8A 1_555 1_555
C11A C7A 1_555 1_555
H11A C11A 1_555 1_555
H12A C11A 1_555 1_555
C12A C8A 1_555 1_555
H13A C12A 1_555 1_555
H14A C12A 1_555 1_555
C15A O1A 1_555 1_555
H15A C15A 1_555 1_555
H16A C15A 1_555 1_555
C16A O2A 1_555 1_555
H17A C16A 1_555 1_555
H18A C16A 1_555 1_555
Na1_2 N5 1_555 1_555
N5_2 Na1 1_555 1_555
C11 C15 1_555 1_555
C12 C16 1_555 1_555
C17 C19 1_555 1_555
C18 C20 1_555 1_555
C27 N3A 1_555 1_555
C28 C30 1_555 1_555
C28 N4A 1_555 1_555
C17A C19A 1_555 1_555
C18A C20A 1_555 1_555
C11A C15A 1_555 1_555
C12A C16A 1_555 1_555

#END
