
#######################################################################
#
#                 Cambridge Crystallographic Data Centre
#                                CCDC 
#
#######################################################################
#
# If this CIF has been generated from an entry in the Cambridge 
# Structural Database, then it will include bibliographic, chemical, 
# crystal, experimental, refinement or atomic coordinate data resulting 
# from the CCDC's data processing and validation procedures.
#
#######################################################################

data_POWVIH
_symmetry_cell_setting           tetragonal
_symmetry_space_group_name_H-M   'I 41/a m d'
_symmetry_Int_Tables_number      141
_space_group_name_Hall           '-I 4bd 2'
loop_
_symmetry_equiv_pos_site_id
_symmetry_equiv_pos_as_xyz
1 x,y,z
2 x,-y,-z
3 1/2-x,-y,1/2+z
4 1/2-x,y,1/2-z
5 1/4+y,3/4+x,1/4-z
6 1/4+y,1/4-x,3/4+z
7 1/4-y,3/4+x,1/4+z
8 1/4-y,1/4-x,3/4-z
9 1/2+x,1/2+y,1/2+z
10 1/2+x,1/2-y,1/2-z
11 -x,1/2-y,z
12 -x,1/2+y,-z
13 3/4+y,1/4+x,3/4-z
14 3/4+y,3/4-x,1/4+z
15 3/4-y,1/4+x,3/4+z
16 3/4-y,3/4-x,1/4-z
17 -x,-y,-z
18 -x,y,z
19 1/2+x,y,1/2-z
20 1/2+x,-y,1/2+z
21 3/4-y,1/4-x,3/4+z
22 3/4-y,3/4+x,1/4-z
23 3/4+y,1/4-x,3/4-z
24 3/4+y,3/4+x,1/4+z
25 1/2-x,1/2-y,1/2-z
26 1/2-x,1/2+y,1/2+z
27 x,1/2+y,-z
28 x,1/2-y,z
29 1/4-y,3/4-x,1/4+z
30 1/4-y,1/4+x,3/4-z
31 1/4+y,3/4-x,1/4-z
32 1/4+y,1/4+x,3/4+z
_cell_length_a                   6.5312(12)
_cell_length_b                   6.5312(12)
_cell_length_c                   25.734(3)
_cell_angle_alpha                90
_cell_angle_beta                 90
_cell_angle_gamma                90
_cell_volume                     1097.72
loop_
_atom_site_label
_atom_site_type_symbol
_atom_site_fract_x
_atom_site_fract_y
_atom_site_fract_z
Ca1 Ca 0.5000 0.7500 0.3750
N1 N 0.5000 0.4327(2) 0.30820(5)
O1 O 0.5000 0.41994(18) 0.41274(4)
C1 C 0.5000 0.2500 0.39085(8)
C2 C 0.5000 0.2500 0.33146(8)
C3 C 0.5000 0.4306(3) 0.25605(6)
H1 H 0.5000 0.5542 0.2381
C4 C 0.5000 0.2500 0.22845(10)
H2 H 0.5000 0.2500 0.1923
Ca1_2 Ca -0.5000 0.7500 0.3750
Ca1_3 Ca 0.5000 -0.2500 0.3750
N1J N 0.5000 0.0673(2) 0.30820(5)
N1L N 0.1827(2) 0.7500 0.44180(5)
N1G N -0.1827(2) 0.7500 0.44180(5)
N1J_2 N 0.5000 1.0673(2) 0.30820(5)
N1G_2 N 0.8173(2) 0.7500 0.44180(5)
O1J O 0.5000 0.08006(18) 0.41274(4)
O1L O 0.16994(18) 0.7500 0.33726(4)
O1G O -0.16994(18) 0.7500 0.33726(4)
O1J_2 O 0.5000 1.08006(18) 0.41274(4)
O1G_2 O 0.83006(18) 0.7500 0.33726(4)
C1G C 0.0000 0.7500 0.35915(8)
C2G C 0.0000 0.7500 0.41854(8)
C3J C 0.5000 0.0694(3) 0.25605(6)
C3L C 0.1806(3) 0.7500 0.49395(6)
C3G C -0.1806(3) 0.7500 0.49395(6)
H1J H 0.5000 -0.0542 0.2381
H1L H 0.3042 0.7500 0.5119
H1G H -0.3042 0.7500 0.5119
C4G C 0.0000 0.7500 0.52155(10)
H2G H 0.0000 0.7500 0.5577
loop_
_geom_bond_atom_site_label_1
_geom_bond_atom_site_label_2
_geom_bond_site_symmetry_1
_geom_bond_site_symmetry_2
Ca1 N1 1_555 1_555
N1 C2 1_555 1_555
O1 Ca1 1_555 1_555
C1 O1 1_555 1_555
C2 C1 1_555 1_555
C3 N1 1_555 1_555
H1 C3 1_555 1_555
C4 C3 1_555 1_555
H2 C4 1_555 1_555
Ca1_2 N1G 1_555 1_555
Ca1_3 N1J 1_555 1_555
N1J C2 1_555 1_555
N1L Ca1 1_555 1_555
N1G C2G 1_555 1_555
N1J_2 Ca1 1_555 1_555
N1G_2 Ca1 1_555 1_555
O1J C1 1_555 1_555
O1L Ca1 1_555 1_555
O1G Ca1_2 1_555 1_555
O1J_2 Ca1 1_555 1_555
O1G_2 Ca1 1_555 1_555
C1G O1L 1_555 1_555
C2G N1L 1_555 1_555
C3J C4 1_555 1_555
C3L N1L 1_555 1_555
C3G N1G 1_555 1_555
H1J C3J 1_555 1_555
H1L C3L 1_555 1_555
H1G C3G 1_555 1_555
C4G C3L 1_555 1_555
H2G C4G 1_555 1_555
Ca1_3 O1J 1_555 1_555
N1J C3J 1_555 1_555
O1G C1G 1_555 1_555
C1G C2G 1_555 1_555
C3G C4G 1_555 1_555

#END
