
#######################################################################
#
#                 Cambridge Crystallographic Data Centre
#                                CCDC 
#
#######################################################################
#
# If this CIF has been generated from an entry in the Cambridge 
# Structural Database, then it will include bibliographic, chemical, 
# crystal, experimental, refinement or atomic coordinate data resulting 
# from the CCDC's data processing and validation procedures.
#
#######################################################################

data_POWYIL
_symmetry_cell_setting           orthorhombic
_symmetry_space_group_name_H-M   'I m m a'
_symmetry_Int_Tables_number      74
_space_group_name_Hall           '-I 2b 2'
loop_
_symmetry_equiv_pos_site_id
_symmetry_equiv_pos_as_xyz
1 x,y,z
2 -x,1/2-y,z
3 -x,1/2+y,-z
4 x,-y,-z
5 1/2+x,1/2+y,1/2+z
6 1/2-x,-y,1/2+z
7 1/2-x,y,1/2-z
8 1/2+x,1/2-y,1/2-z
9 -x,-y,-z
10 x,1/2+y,-z
11 x,1/2-y,z
12 -x,y,z
13 1/2-x,1/2-y,1/2-z
14 1/2+x,y,1/2-z
15 1/2+x,-y,1/2+z
16 1/2-x,1/2+y,1/2+z
_cell_length_a                   18.365(10)
_cell_length_b                   6.855(4)
_cell_length_c                   10.380(6)
_cell_angle_alpha                90
_cell_angle_beta                 90
_cell_angle_gamma                90
_cell_volume                     1306.76
loop_
_atom_site_label
_atom_site_type_symbol
_atom_site_fract_x
_atom_site_fract_y
_atom_site_fract_z
V1 V 0.5000 0.0000 0.5000
O1 O 0.5000 0.2500 0.4132(8)
O2 O 0.4213(3) 0.0910(8) 0.6165(5)
C1 C 0.3188(5) 0.2500 0.6982(9)
C2 C 0.3938(5) 0.2500 0.6396(8)
C3 C 0.2853(5) 0.0810(13) 0.7251(13)
H1 H 0.3092 -0.0366 0.7106
C4 C 0.5000 0.2500 0.276(2)
C5 C 0.4400(13) 0.2500 0.197(2)
H2 H 0.3950 0.2500 0.2379
C6 C 0.438(3) 0.2500 0.064(2)
H3 H 0.3929 0.2500 0.0232
O3 O 0.5000 0.2500 -0.122(4)
C7 C 0.5000 0.2500 -0.009(8)
C5A C 0.5600(13) 0.2500 0.197(2)
H2A H 0.6050 0.2500 0.2379
C6A C 0.562(3) 0.2500 0.064(2)
H3A H 0.6071 0.2500 0.0232
O2F O 0.0787(3) 0.0910(8) 0.8835(5)
C1F C 0.1812(5) 0.2500 0.8018(9)
C2F C 0.1062(5) 0.2500 0.8604(8)
C3F C 0.2147(5) 0.0810(13) 0.7749(13)
H1F H 0.1908 -0.0366 0.7894
O2J O 0.4213(3) 0.4090(8) 0.6165(5)
C3J C 0.2853(5) 0.4190(13) 0.7251(13)
H1J H 0.3092 0.5366 0.7106
O2L O 0.0787(3) 0.4090(8) 0.8835(5)
C3L C 0.2147(5) 0.4190(13) 0.7749(13)
H1L H 0.1908 0.5366 0.7894
V1A V 0.5000 0.5000 0.5000
V1D V 0.0000 0.5000 1.0000
V1E V 0.0000 0.0000 1.0000
O1B O 0.5000 -0.2500 0.5868(8)
O2C O 0.4213(3) -0.0910(8) 0.3835(5)
O2H O 0.5787(3) -0.0910(8) 0.3835(5)
O2K O 0.5787(3) 0.0910(8) 0.6165(5)
loop_
_geom_bond_atom_site_label_1
_geom_bond_atom_site_label_2
_geom_bond_site_symmetry_1
_geom_bond_site_symmetry_2
V1 O1 1_555 1_555
O1 C4 1_555 1_555
O2 V1 1_555 1_555
C1 C2 1_555 1_555
C2 O2 1_555 1_555
C3 C1 1_555 1_555
H1 C3 1_555 1_555
C4 C5 1_555 1_555
C5 H2 1_555 1_555
C6 C5 1_555 1_555
H3 C6 1_555 1_555
O3 C7 1_555 1_555
C7 C6 1_555 1_555
C5A C4 1_555 1_555
H2A C5A 1_555 1_555
C6A C7 1_555 1_555
H3A C6A 1_555 1_555
O2F C2F 1_555 1_555
C1F C2F 1_555 1_555
C2F O2L 1_555 1_555
C3F C3 1_555 1_555
H1F C3F 1_555 1_555
O2J C2 1_555 1_555
C3J C1 1_555 1_555
H1J C3J 1_555 1_555
O2L V1D 1_555 1_555
C3L C1F 1_555 1_555
H1L C3L 1_555 1_555
V1A O1 1_555 1_555
V1E O2F 1_555 1_555
O1B V1 1_555 1_555
O2C V1 1_555 1_555
O2H V1 1_555 1_555
O2K V1 1_555 1_555
C5A C6A 1_555 1_555
C1F C3F 1_555 1_555
O2J V1A 1_555 1_555
C3J C3L 1_555 1_555

#END
