
#######################################################################
#
#                 Cambridge Crystallographic Data Centre
#                                CCDC 
#
#######################################################################
#
# If this CIF has been generated from an entry in the Cambridge 
# Structural Database, then it will include bibliographic, chemical, 
# crystal, experimental, refinement or atomic coordinate data resulting 
# from the CCDC's data processing and validation procedures.
#
#######################################################################

data_POXDIQ
_symmetry_cell_setting           monoclinic
_symmetry_space_group_name_H-M   'C 2/c'
_symmetry_Int_Tables_number      15
_space_group_name_Hall           '-C 2yn'
loop_
_symmetry_equiv_pos_site_id
_symmetry_equiv_pos_as_xyz
1 x,y,z
2 -x,y,1/2-z
3 1/2+x,1/2+y,z
4 1/2-x,1/2+y,1/2-z
5 -x,-y,-z
6 x,-y,1/2+z
7 1/2-x,1/2-y,-z
8 1/2+x,1/2-y,1/2+z
_cell_length_a                   11.309(1)
_cell_length_b                   18.456(1)
_cell_length_c                   20.075(2)
_cell_angle_alpha                90
_cell_angle_beta                 100.107(1)
_cell_angle_gamma                90
_cell_volume                     4125.01
loop_
_atom_site_label
_atom_site_type_symbol
_atom_site_fract_x
_atom_site_fract_y
_atom_site_fract_z
Zn1 Zn 0.10003(3) 0.06877(2) 0.578795(19)
N1 N 0.2296(2) -0.13330(16) 0.53524(14)
N2 N -0.0142(2) -0.14383(15) 0.61208(13)
C1 C 0.0485(3) -0.09550(19) 0.58183(16)
C2 C 0.0522(3) -0.26762(19) 0.65057(17)
C3 C 0.7558(3) -0.1010(2) 0.49955(19)
C4 C 0.1130(3) -0.11345(17) 0.52687(16)
C5 C -0.0343(3) -0.0370(2) 0.65432(18)
H1 H -0.0575 0.0004 0.6802
N3 N 0.0383(2) -0.02917(15) 0.60700(13)
O1 O 0.7966(3) -0.15640(17) 0.47619(16)
C6 C -0.0253(3) -0.22105(19) 0.59855(19)
H2 H -0.0041 -0.2306 0.5546
H3 H -0.1085 -0.2350 0.5963
C7 C 0.4410(3) -0.1265(2) 0.58803(17)
C8 C 0.1527(3) -0.1336(2) 0.42756(18)
H4 H 0.1441 -0.1380 0.3808
C9 C 0.2552(3) -0.1464(2) 0.47198(18)
H5 H 0.3285 -0.1611 0.4617
N4 N 0.0633(2) -0.11307(15) 0.46181(13)
O2 O 0.7919(2) -0.03901(15) 0.48712(13)
O3 O 0.3518(2) -0.37996(15) 0.83457(13)
C10 C 0.1415(3) -0.2391(2) 0.69996(17)
H6 H 0.1557 -0.1894 0.7014
C11 C 0.3157(3) -0.1365(2) 0.60090(18)
H7 H 0.3089 -0.1830 0.6225
H8 H 0.2967 -0.0988 0.6310
C12 C 0.6164(3) -0.1775(2) 0.55301(19)
H9 H 0.6617 -0.2179 0.5459
C13 C 0.2094(3) -0.2840(2) 0.74701(18)
H10 H 0.2695 -0.2643 0.7795
C14 C 0.1890(3) -0.3580(2) 0.74622(18)
C15 C 0.2535(4) -0.4051(2) 0.8018(2)
C16 C -0.0671(3) -0.1068(2) 0.65812(18)
H11 H -0.1160 -0.1260 0.6864
O4 O 0.2098(3) -0.46366(19) 0.81460(18)
C17 C 0.0995(4) -0.3868(2) 0.6966(2)
H12 H 0.0847 -0.4364 0.6952
C18 C 0.5108(3) -0.1859(2) 0.57713(19)
H13 H 0.4854 -0.2322 0.5863
C19 C 0.5940(3) -0.0488(2) 0.55664(19)
H14 H 0.6245 -0.0025 0.5522
C20 C 0.6555(3) -0.1089(2) 0.53936(17)
C21 C 0.0329(3) -0.3416(2) 0.64942(19)
H15 H -0.0260 -0.3613 0.6163
C22 C 0.4867(3) -0.0575(2) 0.58070(19)
H16 H 0.4453 -0.0170 0.5919
Zn1D Zn 0.89997(3) -0.06877(2) 0.421205(19)
Zn1D_2 Zn -0.10003(3) -0.06877(2) 0.421205(19)
Zn1C Zn 0.39997(3) -0.43123(2) 0.921205(19)
Zn1_2 Zn 1.10003(3) 0.06877(2) 0.578795(19)
Zn1G Zn 0.60003(3) 0.43123(2) 0.078795(19)
N1D N 0.7704(2) 0.13330(16) 0.46476(14)
N2D N 1.0142(2) 0.14383(15) 0.38792(13)
C1D C 0.9515(3) 0.09550(19) 0.41817(16)
C2D C 0.9478(3) 0.26762(19) 0.34943(17)
C3D C 0.2442(3) 0.1010(2) 0.50045(19)
C4D C 0.8870(3) 0.11345(17) 0.47313(16)
C5D C 1.0343(3) 0.0370(2) 0.34568(18)
H1D H 1.0575 -0.0004 0.3198
N3D N 0.9617(2) 0.02917(15) 0.39300(13)
O1D O 0.2034(3) 0.15640(17) 0.52381(16)
C6D C 1.0253(3) 0.22105(19) 0.40145(19)
H2D H 1.0041 0.2306 0.4454
H3D H 1.1085 0.2350 0.4037
C7D C 0.5590(3) 0.1265(2) 0.41197(17)
C8D C 0.8473(3) 0.1336(2) 0.57244(18)
H4D H 0.8559 0.1380 0.6192
C9D C 0.7448(3) 0.1464(2) 0.52802(18)
H5D H 0.6715 0.1611 0.5383
N4D N 0.9367(2) 0.11307(15) 0.53819(13)
N4D_2 N -0.0633(2) 0.11307(15) 0.53819(13)
N4_2 N 1.0633(2) -0.11307(15) 0.46181(13)
O2D O 0.2081(2) 0.03901(15) 0.51288(13)
O3D O 0.6482(2) 0.37996(15) 0.16543(13)
O3C O 0.1482(2) 0.12004(15) 0.66543(13)
O3G O 0.8518(2) -0.12004(15) 0.33457(13)
C10D C 0.8585(3) 0.2391(2) 0.30004(17)
H6D H 0.8443 0.1894 0.2986
C11D C 0.6843(3) 0.1365(2) 0.39910(18)
H7D H 0.6911 0.1830 0.3775
H8D H 0.7033 0.0988 0.3690
C12D C 0.3836(3) 0.1775(2) 0.44699(19)
H9D H 0.3383 0.2179 0.4541
C13D C 0.7906(3) 0.2840(2) 0.25299(18)
H10D H 0.7305 0.2643 0.2205
C14D C 0.8110(3) 0.3580(2) 0.25378(18)
C15D C 0.7465(4) 0.4051(2) 0.1982(2)
C16D C 1.0671(3) 0.1068(2) 0.34188(18)
H11D H 1.1160 0.1260 0.3136
O4D O 0.7902(3) 0.46366(19) 0.18540(18)
C17D C 0.9005(4) 0.3868(2) 0.3034(2)
H12D H 0.9153 0.4364 0.3048
C18D C 0.4892(3) 0.1859(2) 0.42287(19)
H13D H 0.5146 0.2322 0.4137
C19D C 0.4060(3) 0.0488(2) 0.44336(19)
H14D H 0.3755 0.0025 0.4478
C20D C 0.3445(3) 0.1089(2) 0.46064(17)
C21D C 0.9671(3) 0.3416(2) 0.35058(19)
H15D H 1.0260 0.3613 0.3837
C22D C 0.5133(3) 0.0575(2) 0.41930(19)
H16D H 0.5547 0.0170 0.4081
O5 O 0.0000 0.1798(6) 0.7500
O6 O 0.3027(5) -0.0904(3) 0.7650(2)
O7 O 0.5000 -0.1704(7) 0.7500
loop_
_geom_bond_atom_site_label_1
_geom_bond_atom_site_label_2
_geom_bond_site_symmetry_1
_geom_bond_site_symmetry_2
Zn1 N3 1_555 1_555
N1 C4 1_555 1_555
N2 C1 1_555 1_555
C1 C4 1_555 1_555
C2 C6 1_555 1_555
C3 O1 1_555 1_555
C4 N4 1_555 1_555
C5 H1 1_555 1_555
N3 C1 1_555 1_555
O1 Zn1D 1_555 1_555
C6 N2 1_555 1_555
H2 C6 1_555 1_555
H3 C6 1_555 1_555
C7 C11 1_555 1_555
C8 H4 1_555 1_555
C9 N1 1_555 1_555
H5 C9 1_555 1_555
N4 C8 1_555 1_555
O2 C3 1_555 1_555
O3 C15 1_555 1_555
C10 C2 1_555 1_555
H6 C10 1_555 1_555
C11 N1 1_555 1_555
H7 C11 1_555 1_555
H8 C11 1_555 1_555
C12 H9 1_555 1_555
C13 C10 1_555 1_555
H10 C13 1_555 1_555
C14 C13 1_555 1_555
C15 C14 1_555 1_555
C16 N2 1_555 1_555
H11 C16 1_555 1_555
O4 C15 1_555 1_555
C17 C14 1_555 1_555
H12 C17 1_555 1_555
C18 C7 1_555 1_555
H13 C18 1_555 1_555
C19 H14 1_555 1_555
C20 C3 1_555 1_555
C21 C2 1_555 1_555
H15 C21 1_555 1_555
C22 C7 1_555 1_555
H16 C22 1_555 1_555
Zn1D O2 1_555 1_555
Zn1D_2 N4 1_555 1_555
Zn1C O3 1_555 1_555
Zn1_2 N4D 1_555 1_555
Zn1G O3D 1_555 1_555
N1D C4D 1_555 1_555
N2D C1D 1_555 1_555
C1D C4D 1_555 1_555
C2D C6D 1_555 1_555
C3D O1D 1_555 1_555
C4D N4D 1_555 1_555
C5D H1D 1_555 1_555
N3D Zn1D 1_555 1_555
O1D Zn1 1_555 1_555
C6D N2D 1_555 1_555
H2D C6D 1_555 1_555
H3D C6D 1_555 1_555
C7D C11D 1_555 1_555
C8D H4D 1_555 1_555
C9D N1D 1_555 1_555
H5D C9D 1_555 1_555
N4D C8D 1_555 1_555
N4D_2 Zn1 1_555 1_555
N4_2 Zn1D 1_555 1_555
O2D Zn1 1_555 1_555
O3D C15D 1_555 1_555
O3C Zn1 1_555 1_555
O3G Zn1D 1_555 1_555
C10D C2D 1_555 1_555
H6D C10D 1_555 1_555
C11D N1D 1_555 1_555
H7D C11D 1_555 1_555
H8D C11D 1_555 1_555
C12D H9D 1_555 1_555
C13D C10D 1_555 1_555
H10D C13D 1_555 1_555
C14D C13D 1_555 1_555
C15D C14D 1_555 1_555
C16D N2D 1_555 1_555
H11D C16D 1_555 1_555
O4D C15D 1_555 1_555
C17D C14D 1_555 1_555
H12D C17D 1_555 1_555
C18D C7D 1_555 1_555
H13D C18D 1_555 1_555
C19D H14D 1_555 1_555
C20D C3D 1_555 1_555
C21D C2D 1_555 1_555
H15D C21D 1_555 1_555
C22D C7D 1_555 1_555
H16D C22D 1_555 1_555
C5 N3 1_555 1_555
C5 C16 1_555 1_555
C8 C9 1_555 1_555
C12 C18 1_555 1_555
C12 C20 1_555 1_555
C17 C21 1_555 1_555
C19 C20 1_555 1_555
C19 C22 1_555 1_555
C1D N3D 1_555 1_555
C3D O2D 1_555 1_555
C5D N3D 1_555 1_555
C5D C16D 1_555 1_555
C8D C9D 1_555 1_555
C12D C18D 1_555 1_555
C12D C20D 1_555 1_555
C17D C21D 1_555 1_555
C19D C20D 1_555 1_555
C19D C22D 1_555 1_555

#END
