
#######################################################################
#
#                 Cambridge Crystallographic Data Centre
#                                CCDC 
#
#######################################################################
#
# If this CIF has been generated from an entry in the Cambridge 
# Structural Database, then it will include bibliographic, chemical, 
# crystal, experimental, refinement or atomic coordinate data resulting 
# from the CCDC's data processing and validation procedures.
#
#######################################################################

data_POXKET
_symmetry_cell_setting           monoclinic
_symmetry_space_group_name_H-M   'C 2/c'
_symmetry_Int_Tables_number      15
_space_group_name_Hall           '-C 2yn'
loop_
_symmetry_equiv_pos_site_id
_symmetry_equiv_pos_as_xyz
1 x,y,z
2 -x,y,1/2-z
3 1/2+x,1/2+y,z
4 1/2-x,1/2+y,1/2-z
5 -x,-y,-z
6 x,-y,1/2+z
7 1/2-x,1/2-y,-z
8 1/2+x,1/2-y,1/2+z
_cell_length_a                   17.442(2)
_cell_length_b                   15.2870(19)
_cell_length_c                   7.8402(13)
_cell_angle_alpha                90
_cell_angle_beta                 97.211(2)
_cell_angle_gamma                90
_cell_volume                     2073.94
loop_
_atom_site_label
_atom_site_type_symbol
_atom_site_fract_x
_atom_site_fract_y
_atom_site_fract_z
Mn1 Mn 0.5000 0.59201(5) 0.2500
Li1 Li 0.5000 0.5928(9) -0.2500
Cl1 Cl 0.65611(6) 0.31768(7) 0.31452(17)
Cl2 Cl 0.91186(6) 0.48491(10) 0.61748(18)
N1 N 0.6084(2) 0.6830(2) 0.2773(5)
O1 O 0.60432(17) 0.77573(18) 0.2448(4)
O2 O 0.59054(15) 0.49620(16) 0.2672(4)
O3 O 0.49450(16) 0.60705(18) -0.0270(3)
H1 H 0.4544 0.5811 -0.0751
C1 C 0.5267(2) 0.8017(3) 0.1814(6)
H2 H 0.5063 0.7622 0.0900
H3 H 0.5278 0.8600 0.1327
C2 C 0.6749(2) 0.6635(3) 0.3379(5)
H4 H 0.7098 0.7096 0.3570
C3 C 0.7060(2) 0.5743(3) 0.3843(5)
C4 C 0.6628(2) 0.4959(2) 0.3398(5)
C5 C 0.7033(2) 0.4164(3) 0.3781(5)
C6 C 0.7786(2) 0.4116(3) 0.4618(5)
H5 H 0.8024 0.3578 0.4857
C7 C 0.8171(2) 0.4895(3) 0.5089(6)
C8 C 0.7834(2) 0.5693(3) 0.4702(6)
H6 H 0.8108 0.6204 0.4998
Li1D Li 0.5000 0.4072(9) 0.2500
Li1_2 Li 0.5000 0.5928(9) 0.7500
Cl1A Cl 0.34389(6) 0.31768(7) 0.18548(17)
Cl2A Cl 0.08814(6) 0.48491(10) -0.11748(18)
N1A N 0.3916(2) 0.6830(2) 0.2227(5)
O1A O 0.39568(17) 0.77573(18) 0.2552(4)
O2A O 0.40946(15) 0.49620(16) 0.2328(4)
O2D O 0.40946(15) 0.50380(16) -0.2672(4)
O2E O 0.59054(15) 0.50380(16) -0.2328(4)
O3A O 0.50550(16) 0.60705(18) 0.5270(3)
O3A_2 O 0.50550(16) 0.60705(18) -0.4730(3)
H1A H 0.5456 0.5811 0.5751
H1A_2 H 0.5456 0.5811 -0.4249
C1A C 0.4733(2) 0.8017(3) 0.3186(6)
H2A H 0.4937 0.7622 0.4100
H3A H 0.4722 0.8600 0.3673
C2A C 0.3251(2) 0.6635(3) 0.1621(5)
H4A H 0.2902 0.7096 0.1430
C3A C 0.2940(2) 0.5743(3) 0.1157(5)
C4A C 0.3372(2) 0.4959(2) 0.1602(5)
C5A C 0.2967(2) 0.4164(3) 0.1219(5)
C6A C 0.2214(2) 0.4116(3) 0.0382(5)
H5A H 0.1976 0.3578 0.0143
C7A C 0.1829(2) 0.4895(3) -0.0089(6)
C8A C 0.2166(2) 0.5693(3) 0.0298(6)
H6A H 0.1892 0.6204 0.0002
loop_
_geom_bond_atom_site_label_1
_geom_bond_atom_site_label_2
_geom_bond_site_symmetry_1
_geom_bond_site_symmetry_2
Mn1 N1 1_555 1_555
Li1 O3 1_555 1_555
Cl1 C5 1_555 1_555
Cl2 C7 1_555 1_555
N1 O1 1_555 1_555
O1 C1 1_555 1_555
O2 Mn1 1_555 1_555
O3 Mn1 1_555 1_555
H1 O3 1_555 1_555
C1 H2 1_555 1_555
H3 C1 1_555 1_555
C2 N1 1_555 1_555
H4 C2 1_555 1_555
C3 C2 1_555 1_555
C4 O2 1_555 1_555
C5 C4 1_555 1_555
C6 C5 1_555 1_555
H5 C6 1_555 1_555
C7 C6 1_555 1_555
C8 C3 1_555 1_555
H6 C8 1_555 1_555
Li1D O2 1_555 1_555
Li1_2 O3A 1_555 1_555
Cl1A C5A 1_555 1_555
Cl2A C7A 1_555 1_555
N1A Mn1 1_555 1_555
O1A N1A 1_555 1_555
O2A Mn1 1_555 1_555
O2D Li1 1_555 1_555
O2E Li1 1_555 1_555
O3A Mn1 1_555 1_555
O3A_2 Li1 1_555 1_555
H1A O3A 1_555 1_555
H1A_2 O3A_2 1_555 1_555
C1A C1 1_555 1_555
H2A C1A 1_555 1_555
H3A C1A 1_555 1_555
C2A N1A 1_555 1_555
H4A C2A 1_555 1_555
C3A C2A 1_555 1_555
C4A O2A 1_555 1_555
C5A C4A 1_555 1_555
C6A C5A 1_555 1_555
H5A C6A 1_555 1_555
C7A C6A 1_555 1_555
C8A C3A 1_555 1_555
H6A C8A 1_555 1_555
C3 C4 1_555 1_555
C7 C8 1_555 1_555
Li1D O2A 1_555 1_555
O1A C1A 1_555 1_555
C3A C4A 1_555 1_555
C7A C8A 1_555 1_555

#END
