
#######################################################################
#
#                 Cambridge Crystallographic Data Centre
#                                CCDC 
#
#######################################################################
#
# If this CIF has been generated from an entry in the Cambridge 
# Structural Database, then it will include bibliographic, chemical, 
# crystal, experimental, refinement or atomic coordinate data resulting 
# from the CCDC's data processing and validation procedures.
#
#######################################################################

data_POXKIX
_symmetry_cell_setting           monoclinic
_symmetry_space_group_name_H-M   'C 2/c'
_symmetry_Int_Tables_number      15
_space_group_name_Hall           '-C 2yn'
loop_
_symmetry_equiv_pos_site_id
_symmetry_equiv_pos_as_xyz
1 x,y,z
2 -x,y,1/2-z
3 1/2+x,1/2+y,z
4 1/2-x,1/2+y,1/2-z
5 -x,-y,-z
6 x,-y,1/2+z
7 1/2-x,1/2-y,-z
8 1/2+x,1/2-y,1/2+z
_cell_length_a                   36.047(8)
_cell_length_b                   4.2767(9)
_cell_length_c                   24.816(5)
_cell_angle_alpha                90
_cell_angle_beta                 124.300(3)
_cell_angle_gamma                90
_cell_volume                     3160.4
loop_
_atom_site_label
_atom_site_type_symbol
_atom_site_fract_x
_atom_site_fract_y
_atom_site_fract_z
Cd1 Cd 0.5000 -0.3250(5) 0.7500
I1 I 0.45787(3) -0.3859(2) 0.81475(4)
S1 S 0.43731(9) -0.8568(10) 0.67341(14)
C1 C 0.3909(3) -1.122(3) 0.4966(5)
C2 C 0.3628(4) -1.269(4) 0.4367(6)
H1 H 0.3371 -1.3750 0.4266
C3 C 0.3749(5) -1.252(4) 0.3935(7)
H2 H 0.3573 -1.3537 0.3536
C4 C 0.4119(5) -1.089(4) 0.4069(7)
H3 H 0.4180 -1.0758 0.3752
C5 C 0.4406(4) -0.944(4) 0.4665(6)
H4 H 0.4662 -0.8382 0.4761
C6 C 0.4289(3) -0.963(3) 0.5114(5)
C7 C 0.4251(3) -0.937(3) 0.5975(5)
N1 N 0.3897(3) -1.093(3) 0.5512(4)
H5 H 0.3720 -1.1917 0.5574
N2 N 0.4490(3) -0.847(3) 0.5741(4)
H6 H 0.4697 -0.7125 0.5868
Cd1_2 Cd 0.5000 -1.3250(5) 0.7500
Cd1_3 Cd 0.5000 0.6750(5) 0.7500
I1A I 0.54213(3) -0.3859(2) 0.68525(4)
S1_2 S 0.43731(9) 0.1432(10) 0.67341(14)
S1A S 0.56269(9) -0.8568(10) 0.82659(14)
S1A_2 S 0.56269(9) 0.1432(10) 0.82659(14)
C1_2 C 0.3909(3) -0.122(3) 0.4966(5)
C2_2 C 0.3628(4) -0.269(4) 0.4367(6)
H1_2 H 0.3371 -0.3750 0.4266
C3_2 C 0.3749(5) -0.252(4) 0.3935(7)
H2_2 H 0.3573 -0.3537 0.3536
C4_2 C 0.4119(5) -0.089(4) 0.4069(7)
H3_2 H 0.4180 -0.0758 0.3752
C5_2 C 0.4406(4) 0.056(4) 0.4665(6)
H4_2 H 0.4662 0.1618 0.4761
C6_2 C 0.4289(3) 0.037(3) 0.5114(5)
C7_2 C 0.4251(3) 0.063(3) 0.5975(5)
N1_2 N 0.3897(3) -0.093(3) 0.5512(4)
H5_2 H 0.3720 -0.1917 0.5574
N2_2 N 0.4490(3) 0.153(3) 0.5741(4)
H6_2 H 0.4697 0.2875 0.5868
S2 S 0.3124(3) -0.321(3) 0.5392(4)
C8 C 0.3154(4) -0.748(3) 0.6582(5)
C9 C 0.3309(4) -0.933(4) 0.7120(7)
H7 H 0.3607 -0.9985 0.7369
C10 C 0.3023(5) -1.019(4) 0.7284(7)
H8 H 0.3127 -1.1407 0.7653
C11 C 0.2580(5) -0.927(4) 0.6911(6)
H9 H 0.2387 -0.9907 0.7027
C12 C 0.2422(4) -0.745(3) 0.6375(7)
H10 H 0.2124 -0.6794 0.6129
C13 C 0.2712(3) -0.659(3) 0.6201(5)
C14 C 0.3055(4) -0.466(4) 0.5787(6)
N3 N 0.3360(3) -0.617(3) 0.6307(5)
H11 H 0.3612 -0.6326 0.6356
N4 N 0.2660(3) -0.481(3) 0.5701(5)
H12 H 0.2416 -0.4092 0.5374
loop_
_geom_bond_atom_site_label_1
_geom_bond_atom_site_label_2
_geom_bond_site_symmetry_1
_geom_bond_site_symmetry_2
Cd1 I1 1_555 1_555
S1 Cd1 1_555 1_555
S2 C14 1_555 1_555
C1 C2 1_555 1_555
C2 H1 1_555 1_555
C3 C2 1_555 1_555
H2 C3 1_555 1_555
C4 C3 1_555 1_555
H3 C4 1_555 1_555
C5 C4 1_555 1_555
H4 C5 1_555 1_555
C6 C1 1_555 1_555
C7 S1 1_555 1_555
N1 C1 1_555 1_555
H5 N1 1_555 1_555
N2 C6 1_555 1_555
H6 N2 1_555 1_555
C8 C9 1_555 1_555
C9 H7 1_555 1_555
C10 C9 1_555 1_555
H8 C10 1_555 1_555
C11 C10 1_555 1_555
H9 C11 1_555 1_555
C12 C11 1_555 1_555
H10 C12 1_555 1_555
C13 C8 1_555 1_555
C14 N3 1_555 1_555
N3 C8 1_555 1_555
H11 N3 1_555 1_555
N4 C13 1_555 1_555
H12 N4 1_555 1_555
Cd1_2 S1 1_555 1_555
Cd1_3 S1_2 1_555 1_555
I1A Cd1 1_555 1_555
S1_2 Cd1 1_555 1_555
S1A Cd1 1_555 1_555
S1A_2 Cd1 1_555 1_555
C1_2 C2_2 1_555 1_555
C2_2 H1_2 1_555 1_555
C3_2 C2_2 1_555 1_555
H2_2 C3_2 1_555 1_555
C4_2 C3_2 1_555 1_555
H3_2 C4_2 1_555 1_555
C5_2 C4_2 1_555 1_555
H4_2 C5_2 1_555 1_555
C6_2 C1_2 1_555 1_555
C7_2 S1_2 1_555 1_555
N1_2 C1_2 1_555 1_555
H5_2 N1_2 1_555 1_555
N2_2 C6_2 1_555 1_555
H6_2 N2_2 1_555 1_555
C5 C6 1_555 1_555
C7 N1 1_555 1_555
C7 N2 1_555 1_555
C12 C13 1_555 1_555
C14 N4 1_555 1_555
Cd1_2 S1A 1_555 1_555
Cd1_3 S1A_2 1_555 1_555
C5_2 C6_2 1_555 1_555
C7_2 N1_2 1_555 1_555
C7_2 N2_2 1_555 1_555

#END
