
#######################################################################
#
#                 Cambridge Crystallographic Data Centre
#                                CCDC 
#
#######################################################################
#
# If this CIF has been generated from an entry in the Cambridge 
# Structural Database, then it will include bibliographic, chemical, 
# crystal, experimental, refinement or atomic coordinate data resulting 
# from the CCDC's data processing and validation procedures.
#
#######################################################################

data_POXKUI
_symmetry_cell_setting           monoclinic
_symmetry_space_group_name_H-M   'P 21/c'
_symmetry_Int_Tables_number      14
_space_group_name_Hall           '-P 2ybc'
loop_
_symmetry_equiv_pos_site_id
_symmetry_equiv_pos_as_xyz
1 x,y,z
2 -x,1/2+y,1/2-z
3 -x,-y,-z
4 x,1/2-y,1/2+z
_cell_length_a                   8.5576(4)
_cell_length_b                   21.028(1)
_cell_length_c                   20.276(1)
_cell_angle_alpha                90
_cell_angle_beta                 96.440(1)
_cell_angle_gamma                90
_cell_volume                     3625.63
loop_
_atom_site_label
_atom_site_type_symbol
_atom_site_fract_x
_atom_site_fract_y
_atom_site_fract_z
Ba1 Ba 0.3454(1) 0.7372(1) 0.0274(1)
Ba2 Ba -0.1794(1) 0.7734(1) -0.0728(1)
S1 S 0.3231(2) 0.5801(1) -0.0223(1)
S2 S 0.4697(3) 0.4354(1) 0.1884(1)
S3 S 0.7179(3) 0.6649(1) 0.1769(1)
S4 S -0.1658(2) 0.6026(1) -0.0278(1)
S5 S -0.0382(3) 0.4488(1) 0.1773(1)
S6 S 0.2370(3) 0.6737(1) 0.1761(1)
S7 S 0.0727(2) 0.9096(1) -0.0340(1)
S8 S 0.1900(3) 1.0442(1) 0.1842(1)
S9 S 0.4685(2) 0.8218(1) 0.1662(1)
S10 S -0.3967(3) 0.9119(1) -0.0274(1)
S11 S -0.3131(3) 1.0535(1) 0.1888(1)
S12 S -0.0277(3) 0.8308(1) 0.1819(1)
N1 N 0.4036(7) 0.5153(3) 0.0885(3)
N2 N 0.5851(7) 0.5516(3) 0.1725(3)
N3 N 0.5165(7) 0.6175(3) 0.0810(3)
N4 N -0.0872(7) 0.5324(3) 0.0788(3)
N5 N 0.0853(7) 0.5641(3) 0.1694(3)
N6 N 0.0317(8) 0.6339(3) 0.0776(3)
N7 N 0.1444(7) 0.9674(3) 0.0806(3)
N8 N 0.3226(7) 0.9325(3) 0.1656(3)
N9 N 0.2685(7) 0.8693(3) 0.0684(3)
N10 N -0.3458(7) 0.9752(3) 0.0865(3)
N11 N -0.1781(7) 0.9414(3) 0.1758(3)
N12 N -0.2154(7) 0.8763(3) 0.0806(3)
C1 C 0.4242(8) 0.5713(3) 0.0533(4)
C2 C 0.4855(10) 0.5035(4) 0.1479(4)
C3 C 0.6014(9) 0.6096(4) 0.1402(4)
C4 C -0.0646(9) 0.5901(4) 0.0478(4)
C5 C -0.0114(9) 0.5177(3) 0.1400(4)
C6 C 0.1095(9) 0.6224(4) 0.1378(4)
C7 C 0.1708(9) 0.9137(3) 0.0422(4)
C8 C 0.2223(9) 0.9777(4) 0.1418(4)
C9 C 0.3463(8) 0.8759(4) 0.1303(4)
C10 C -0.3122(8) 0.9209(4) 0.0510(4)
C11 C -0.2783(9) 0.9867(4) 0.1492(4)
C12 C -0.1461(9) 0.8846(3) 0.1433(3)
O1 O 0.5263(6) 0.7014(3) -0.0831(3)
O2 O 0.6723(6) 0.7553(2) 0.0442(2)
O3 O 0.0275(6) 0.7576(2) 0.0424(3)
O4 O 0.3158(7) 0.8124(3) -0.0894(3)
O5 O 0.1012(6) 0.7011(3) -0.0830(3)
O6 O -0.2263(7) 0.6952(3) -0.1844(3)
O7 O -0.0083(7) 0.8134(3) -0.1788(3)
O8 O -0.4155(7) 0.8230(3) -0.1689(3)
O1_2 O -0.4737(6) 0.7014(3) -0.0831(3)
O2_2 O -0.3277(6) 0.7553(2) 0.0442(2)
Ba2_2 Ba 0.8206(1) 0.7734(1) -0.0728(1)
O9 O 0.2828(9) 0.7082(5) -0.1944(4)
loop_
_geom_bond_atom_site_label_1
_geom_bond_atom_site_label_2
_geom_bond_site_symmetry_1
_geom_bond_site_symmetry_2
Ba1 S1 1_555 1_555
Ba2 S7 1_555 1_555
S1 C1 1_555 1_555
S2 C2 1_555 1_555
S3 C3 1_555 1_555
S4 C4 1_555 1_555
S5 C5 1_555 1_555
S6 Ba1 1_555 1_555
S7 C7 1_555 1_555
S8 C8 1_555 1_555
S9 Ba1 1_555 1_555
S10 Ba2 1_555 1_555
S11 C11 1_555 1_555
S12 C12 1_555 1_555
N1 C1 1_555 1_555
N2 C2 1_555 1_555
N3 Ba1 1_555 1_555
N4 C4 1_555 1_555
N5 C5 1_555 1_555
N6 C4 1_555 1_555
N7 C7 1_555 1_555
N8 C8 1_555 1_555
N9 Ba1 1_555 1_555
N10 C10 1_555 1_555
N11 C11 1_555 1_555
N12 C10 1_555 1_555
C1 N3 1_555 1_555
C2 N1 1_555 1_555
C3 N2 1_555 1_555
C5 N4 1_555 1_555
C6 S6 1_555 1_555
C7 N9 1_555 1_555
C8 N7 1_555 1_555
C9 S9 1_555 1_555
C10 S10 1_555 1_555
C11 N10 1_555 1_555
C12 N11 1_555 1_555
O1 Ba1 1_555 1_555
O2 Ba1 1_555 1_555
O3 Ba1 1_555 1_555
O4 Ba1 1_555 1_555
O5 Ba1 1_555 1_555
O6 Ba2 1_555 1_555
O7 Ba2 1_555 1_555
O8 Ba2 1_555 1_555
O1_2 Ba2 1_555 1_555
O2_2 Ba2 1_555 1_555
Ba2_2 O1 1_555 1_555
Ba2 O3 1_555 1_555
Ba2 O5 1_555 1_555
N3 C3 1_555 1_555
N5 C6 1_555 1_555
N6 C6 1_555 1_555
N8 C9 1_555 1_555
N9 C9 1_555 1_555
N12 C12 1_555 1_555
O2 Ba2_2 1_555 1_555

#END
