
#######################################################################
#
#                 Cambridge Crystallographic Data Centre
#                                CCDC 
#
#######################################################################
#
# If this CIF has been generated from an entry in the Cambridge 
# Structural Database, then it will include bibliographic, chemical, 
# crystal, experimental, refinement or atomic coordinate data resulting 
# from the CCDC's data processing and validation procedures.
#
#######################################################################

data_POXLOF
_symmetry_cell_setting           monoclinic
_symmetry_space_group_name_H-M   'C 2/c'
_symmetry_Int_Tables_number      15
_space_group_name_Hall           '-C 2yn'
loop_
_symmetry_equiv_pos_site_id
_symmetry_equiv_pos_as_xyz
1 x,y,z
2 -x,y,1/2-z
3 1/2+x,1/2+y,z
4 1/2-x,1/2+y,1/2-z
5 -x,-y,-z
6 x,-y,1/2+z
7 1/2-x,1/2-y,-z
8 1/2+x,1/2-y,1/2+z
_cell_length_a                   15.3843(2)
_cell_length_b                   11.58720(10)
_cell_length_c                   13.4949(2)
_cell_angle_alpha                90
_cell_angle_beta                 101.7130(10)
_cell_angle_gamma                90
_cell_volume                     2355.52
loop_
_atom_site_label
_atom_site_type_symbol
_atom_site_fract_x
_atom_site_fract_y
_atom_site_fract_z
O1 O 0.55421(16) 0.36449(19) 0.08265(18)
O2 O 0.47511(17) 0.1753(2) 0.16754(18)
C1 C 0.5000 0.1222(4) 0.2500
C2 C 0.5000 -0.2469(4) 0.2500
C3 C 0.5000 -0.3755(4) 0.2500
O3 O 0.64539(16) 0.3013(2) 0.21781(17)
C4 C 0.5000 -0.0076(4) 0.2500
O4 O 0.54719(17) -0.42948(19) 0.19933(19)
O5 O 0.37985(16) 0.4186(2) 0.11180(18)
C5 C 0.5187(3) -0.0666(3) 0.1684(3)
H1 H 0.5296 -0.0262 0.1126
C6 C 0.5216(3) -0.1866(3) 0.1691(3)
H2 H 0.5378 -0.2264 0.1158
C7 C 0.6911(2) 0.2827(3) 0.0600(2)
N1 N 0.2747(2) 0.4183(3) -0.0298(2)
C8 C 0.6706(2) 0.3029(3) -0.0430(3)
H3 H 0.6172 0.3383 -0.0720
C9 C 0.6269(2) 0.3184(3) 0.1236(3)
C10 C 0.3577(2) 0.4170(3) 0.0176(3)
H4 H 0.4019 0.4148 -0.0202
C11 C 0.7703(2) 0.2297(3) 0.1032(3)
H5 H 0.7839 0.2160 0.1725
C12 C 0.2034(3) 0.4219(5) 0.0254(4)
H6 H 0.1474 0.4226 -0.0216
H7 H 0.2088 0.4904 0.0662
H8 H 0.2066 0.3552 0.0681
C13 C 0.2507(3) 0.4230(5) -0.1402(3)
H9 H 0.1872 0.4237 -0.1613
H10 H 0.2743 0.3567 -0.1682
H11 H 0.2748 0.4918 -0.1637
Th1 Th 0.5000 0.371689(12) 0.2500
O1F O 0.94579(16) 0.13551(19) -0.08265(18)
O3F O 0.85461(16) 0.1987(2) -0.21781(17)
C7F C 0.8089(2) 0.2173(3) -0.0600(2)
C8F C 0.8294(2) 0.1971(3) 0.0430(3)
H3F H 0.8828 0.1617 0.0720
C9F C 0.8731(2) 0.1816(3) -0.1236(3)
C11F C 0.7297(2) 0.2703(3) -0.1032(3)
H5F H 0.7161 0.2840 -0.1725
O2A O 0.52489(17) 0.1753(2) 0.33246(18)
C5A C 0.4813(3) -0.0666(3) 0.3316(3)
H1A H 0.4704 -0.0262 0.3874
C6A C 0.4784(3) -0.1866(3) 0.3309(3)
H2A H 0.4622 -0.2264 0.3842
O4A O 0.45281(17) -0.42948(19) 0.30067(19)
O5A O 0.62015(16) 0.4186(2) 0.38820(18)
N1A N 0.7253(2) 0.4183(3) 0.5298(2)
C10A C 0.6423(2) 0.4170(3) 0.4824(3)
H4A H 0.5981 0.4148 0.5202
C12A C 0.7966(3) 0.4219(5) 0.4746(4)
H6A H 0.8526 0.4226 0.5216
H7A H 0.7912 0.4904 0.4338
H8A H 0.7934 0.3552 0.4319
C13A C 0.7493(3) 0.4230(5) 0.6402(3)
H9A H 0.8128 0.4237 0.6613
H10A H 0.7257 0.3567 0.6682
H11A H 0.7252 0.4918 0.6637
O1A O 0.44579(16) 0.36449(19) 0.41735(18)
O3A O 0.35461(16) 0.3013(2) 0.28219(17)
O4_2 O 0.54719(17) 0.57052(19) 0.19933(19)
O4A_2 O 0.45281(17) 0.57052(19) 0.30067(19)
Th1_2 Th 0.5000 -0.628311(12) 0.2500
Th1F Th 1.0000 0.128311(12) -0.2500
loop_
_geom_bond_atom_site_label_1
_geom_bond_atom_site_label_2
_geom_bond_site_symmetry_1
_geom_bond_site_symmetry_2
O1 C9 1_555 1_555
O2 C1 1_555 1_555
C1 C4 1_555 1_555
C2 C3 1_555 1_555
C3 O4 1_555 1_555
O3 C9 1_555 1_555
C4 C5 1_555 1_555
O4 Th1_2 1_555 1_555
O5 C10 1_555 1_555
C5 H1 1_555 1_555
C6 C2 1_555 1_555
H2 C6 1_555 1_555
C7 C8 1_555 1_555
N1 C10 1_555 1_555
C8 H3 1_555 1_555
C9 C7 1_555 1_555
C10 H4 1_555 1_555
C11 C7 1_555 1_555
H5 C11 1_555 1_555
C12 N1 1_555 1_555
H6 C12 1_555 1_555
H7 C12 1_555 1_555
H8 C12 1_555 1_555
C13 N1 1_555 1_555
H9 C13 1_555 1_555
H10 C13 1_555 1_555
H11 C13 1_555 1_555
Th1 O1 1_555 1_555
O1F C9F 1_555 1_555
O3F C9F 1_555 1_555
C7F C8F 1_555 1_555
C8F C11 1_555 1_555
H3F C8F 1_555 1_555
C9F C7F 1_555 1_555
C11F C8 1_555 1_555
H5F C11F 1_555 1_555
O2A C1 1_555 1_555
C5A C4 1_555 1_555
H1A C5A 1_555 1_555
C6A C2 1_555 1_555
H2A C6A 1_555 1_555
O4A C3 1_555 1_555
O5A Th1 1_555 1_555
N1A C10A 1_555 1_555
C10A O5A 1_555 1_555
H4A C10A 1_555 1_555
C12A N1A 1_555 1_555
H6A C12A 1_555 1_555
H7A C12A 1_555 1_555
H8A C12A 1_555 1_555
C13A N1A 1_555 1_555
H9A C13A 1_555 1_555
H10A C13A 1_555 1_555
H11A C13A 1_555 1_555
O1A Th1 1_555 1_555
O3A Th1 1_555 1_555
O4_2 Th1 1_555 1_555
O4A_2 Th1 1_555 1_555
Th1_2 O4A 1_555 1_555
Th1F O1F 1_555 1_555
O2 Th1 1_555 1_555
O3 Th1 1_555 1_555
O5 Th1 1_555 1_555
C5 C6 1_555 1_555
Th1 O2A 1_555 1_555
O3F Th1F 1_555 1_555
C7F C11F 1_555 1_555
C5A C6A 1_555 1_555

#END
