
#######################################################################
#
#                 Cambridge Crystallographic Data Centre
#                                CCDC 
#
#######################################################################
#
# If this CIF has been generated from an entry in the Cambridge 
# Structural Database, then it will include bibliographic, chemical, 
# crystal, experimental, refinement or atomic coordinate data resulting 
# from the CCDC's data processing and validation procedures.
#
#######################################################################

data_POYGOA
_symmetry_cell_setting           triclinic
_symmetry_space_group_name_H-M   'P -1'
_symmetry_Int_Tables_number      2
_space_group_name_Hall           '-P 1'
loop_
_symmetry_equiv_pos_site_id
_symmetry_equiv_pos_as_xyz
1 x,y,z
2 -x,-y,-z
_cell_length_a                   13.3773(2)
_cell_length_b                   14.2645(2)
_cell_length_c                   21.8991(4)
_cell_angle_alpha                102.858(1)
_cell_angle_beta                 106.481(1)
_cell_angle_gamma                101.597(1)
_cell_volume                     3747.43
loop_
_atom_site_label
_atom_site_type_symbol
_atom_site_fract_x
_atom_site_fract_y
_atom_site_fract_z
Au1 Au 0.714396(15) 0.972782(14) 0.003312(10)
Ag1 Ag 0.89310(3) 0.95566(3) -0.04680(2)
Ag2 Ag 0.47800(3) 1.01023(3) -0.063190(18)
F1 F 0.9883(4) 0.4726(3) 0.1058(2)
F2 F 0.2067(4) 0.3797(3) -0.1648(3)
O1 O 0.9170(3) 0.8325(3) -0.0043(2)
O2 O 1.0762(3) 0.9104(3) 0.07967(19)
O3 O 0.4009(3) 0.8447(3) -0.09976(18)
O4 O 0.4469(3) 0.8280(3) 0.00342(18)
N1 N 0.8300(4) 0.8137(4) -0.1553(3)
N2 N 0.6206(4) 0.7590(3) -0.0829(2)
N4 N 0.6048(4) 0.8554(3) -0.1456(2)
N5 N 0.5980(4) 1.0215(3) -0.1313(2)
N6 N 0.8462(4) 1.1796(3) 0.0982(2)
N7 N 0.8067(4) 1.0791(3) 0.1531(2)
N8 N 0.6722(4) 0.9291(3) 0.1272(2)
C1 C 0.6428(4) 0.8564(4) -0.0811(3)
C2 C 0.5594(5) 0.7572(4) -0.1869(3)
H1 H 0.5273 0.7362 -0.2341
C3 C 0.5696(5) 0.6979(4) -0.1470(3)
H2 H 0.5458 0.6267 -0.1609
C4 C 0.6479(5) 0.7249(4) -0.0240(3)
H3 H 0.7262 0.7517 0.0006
H4 H 0.6279 0.6514 -0.0376
H5 H 0.6081 0.7485 0.0047
C5 C 0.6162(4) 0.9424(4) -0.1674(3)
C6 C 0.6458(5) 0.9409(4) -0.2231(3)
H6 H 0.6582 0.8827 -0.2470
C7 C 0.6566(5) 1.0269(4) -0.2428(3)
H7 H 0.6739 1.0280 -0.2819
C8 C 0.6420(4) 1.1115(4) -0.2049(3)
H8 H 0.6508 1.1720 -0.2169
C9 C 0.6144(5) 1.1057(4) -0.1494(3)
H9 H 0.6066 1.1642 -0.1227
C10 C 0.7926(4) 1.0846(4) 0.0896(3)
C11 C 0.8674(5) 1.1711(5) 0.1998(3)
H10 H 0.8874 1.1868 0.2469
C12 C 0.8922(5) 1.2331(4) 0.1652(3)
H11 H 0.9337 1.3015 0.1833
C13 C 0.8518(5) 1.2229(4) 0.0446(3)
H12 H 0.8183 1.1702 0.0017
H13 H 0.9279 1.2536 0.0512
H14 H 0.8127 1.2742 0.0450
C14 C 0.7651(4) 0.9917(4) 0.1701(3)
C15 C 0.8228(5) 0.9761(5) 0.2284(3)
H15 H 0.8881 1.0246 0.2585
C16 C 0.7835(5) 0.8886(5) 0.2423(3)
H16 H 0.8203 0.8762 0.2823
C17 C 0.6889(5) 0.8195(5) 0.1960(3)
H17 H 0.6615 0.7572 0.2026
C18 C 0.6353(4) 0.8434(4) 0.1400(3)
H18 H 0.5692 0.7970 0.1092
C19 C 0.9953(4) 0.8354(4) 0.0447(3)
C20 C 0.9934(4) 0.7384(4) 0.0617(3)
C21 C 0.9103(5) 0.6509(4) 0.0216(3)
H19 H 0.8544 0.6534 -0.0156
C22 C 0.9088(5) 0.5607(5) 0.0357(3)
H20 H 0.8531 0.5011 0.0083
C23 C 0.9898(5) 0.5599(5) 0.0902(3)
C24 C 1.0736(5) 0.6443(5) 0.1308(3)
H21 H 1.1285 0.6412 0.1683
C25 C 1.0753(5) 0.7335(4) 0.1151(3)
H22 H 1.1335 0.7919 0.1414
C26 C 0.4046(4) 0.7953(4) -0.0591(3)
C27 C 0.3529(4) 0.6829(4) -0.0878(3)
C28 C 0.2898(5) 0.6416(5) -0.1550(3)
H23 H 0.2822 0.6834 -0.1833
C29 C 0.2378(6) 0.5394(5) -0.1809(4)
H24 H 0.1916 0.5108 -0.2261
C30 C 0.2552(6) 0.4809(5) -0.1390(4)
C31 C 0.3192(6) 0.5183(5) -0.0731(4)
H25 H 0.3303 0.4754 -0.0458
C32 C 0.3672(5) 0.6210(4) -0.0475(3)
H26 H 0.4105 0.6493 -0.0016
C65 C 0.8247(5) 0.7314(5) -0.1654(3)
C66 C 0.8171(7) 0.6256(5) -0.1785(4)
H53 H 0.8564 0.6131 -0.1374
H54 H 0.8492 0.6054 -0.2126
H55 H 0.7406 0.5867 -0.1944
Au1A Au 0.285604(15) 1.027218(14) -0.003312(10)
Ag1A Ag 1.10690(3) 1.04434(3) 0.04680(2)
Ag2A Ag 0.52200(3) 0.98977(3) 0.063190(18)
O2A O 0.9238(3) 1.0896(3) -0.07967(19)
O4A O 0.5531(3) 1.1720(3) -0.00342(18)
N8A N 0.3278(4) 1.0709(3) -0.1272(2)
Au2 Au 0.197218(15) 0.964844(14) 0.476693(10)
Ag3 Ag -0.03467(3) 1.01974(3) 0.439467(18)
Ag4 Ag 0.39588(3) 0.95099(3) 0.44978(2)
F3 F -0.3419(3) 0.3935(2) 0.31233(19)
F4 F 0.4846(4) 1.5187(3) 0.3886(2)
O5 O -0.1176(3) 0.8562(3) 0.39698(17)
O6 O -0.0551(3) 0.8245(2) 0.49464(17)
O7 O 0.4345(3) 1.0837(3) 0.41702(19)
O8 O 0.5844(3) 1.1705(3) 0.5058(2)
N3 N 0.3008(4) 0.8192(4) 0.3346(3)
N9 N 0.0856(4) 0.7531(3) 0.3871(2)
N10 N 0.0613(4) 0.8566(3) 0.3310(2)
N11 N 0.0742(3) 1.0271(3) 0.3591(2)
N12 N 0.3485(4) 1.1655(3) 0.5733(3)
N13 N 0.3295(4) 1.0525(3) 0.6222(3)
N14 N 0.1884(4) 0.9146(3) 0.6108(2)
C33 C 0.1089(4) 0.8520(4) 0.3929(3)
C34 C 0.0088(5) 0.7600(4) 0.2863(3)
H27 H -0.0299 0.7430 0.2398
C35 C 0.0247(5) 0.6967(4) 0.3229(3)
H28 H -0.0016 0.6256 0.3070
C36 C 0.1251(5) 0.7149(4) 0.4436(3)
H29 H 0.1028 0.7457 0.4803
H30 H 0.2046 0.7316 0.4584
H31 H 0.0944 0.6420 0.4298
C37 C 0.0717(4) 0.9469(4) 0.3128(3)
C38 C 0.0820(5) 0.9486(4) 0.2522(3)
H32 H 0.0775 0.8890 0.2205
C39 C 0.0990(5) 1.0392(5) 0.2389(3)
H33 H 0.1044 1.0429 0.1972
C40 C 0.1080(5) 1.1249(4) 0.2873(3)
H34 H 0.1227 1.1887 0.2800
C41 C 0.0951(4) 1.1156(4) 0.3464(3)
H35 H 0.1012 1.1743 0.3795
C42 C 0.2954(4) 1.0692(4) 0.5621(3)
C43 C 0.4037(5) 1.1382(4) 0.6695(3)
H36 H 0.4401 1.1454 0.7150
C44 C 0.4145(5) 1.2089(4) 0.6390(3)
H37 H 0.4590 1.2761 0.6588
C45 C 0.3355(5) 1.2181(4) 0.5223(3)
H38 H 0.3112 1.1693 0.4781
H39 H 0.4053 1.2654 0.5302
H40 H 0.2814 1.2547 0.5248
C46 C 0.1550(5) 0.8256(4) 0.6198(3)
H41 H 0.0793 0.7923 0.6029
C47 C 0.2249(6) 0.7802(5) 0.6526(4)
H42 H 0.1983 0.7174 0.6589
C48 C 0.3354(6) 0.8281(6) 0.6763(5)
H43 H 0.3859 0.7983 0.6990
C49 C 0.3713(6) 0.9192(6) 0.6665(4)
H44 H 0.4467 0.9533 0.6819
C50 C 0.2946(4) 0.9597(4) 0.6335(3)
C51 C -0.1081(4) 0.7994(3) 0.4331(2)
C52 C -0.1685(4) 0.6896(4) 0.3999(2)
C53 C -0.2476(4) 0.6587(4) 0.3368(2)
H45 H -0.2605 0.7065 0.3137
C54 C -0.3078(4) 0.5594(4) 0.3072(3)
H46 H -0.3636 0.5383 0.2648
C55 C -0.2838(5) 0.4920(4) 0.3418(3)
C56 C -0.2058(5) 0.5184(4) 0.4033(3)
H47 H -0.1914 0.4696 0.4252
C57 C -0.1484(4) 0.6188(4) 0.4329(3)
H48 H -0.0946 0.6395 0.4761
C58 C 0.5097(4) 1.1623(4) 0.4533(3)
C59 C 0.5056(4) 1.2564(4) 0.4337(3)
C60 C 0.4153(5) 1.2579(5) 0.3831(3)
H49 H 0.3581 1.1979 0.3593
C61 C 0.4076(5) 1.3462(5) 0.3672(3)
H50 H 0.3467 1.3472 0.3323
C62 C 0.4921(5) 1.4326(5) 0.4040(3)
C63 C 0.5817(5) 1.4340(5) 0.4543(3)
H51 H 0.6383 1.4944 0.4784
C64 C 0.5881(5) 1.3458(4) 0.4689(3)
H52 H 0.6497 1.3458 0.5037
C67 C 0.2994(5) 0.7386(5) 0.3307(3)
C68 C 0.3006(7) 0.6364(5) 0.3279(4)
H56 H 0.3318 0.6109 0.2944
H57 H 0.2262 0.5944 0.3158
H58 H 0.3447 0.6349 0.3717
Au2A Au -0.197218(15) 1.035156(14) 0.523307(10)
Ag3A Ag 0.03467(3) 0.98026(3) 0.560533(18)
Ag4A Ag 0.60412(3) 1.04901(3) 0.55022(2)
O6A O 0.0551(3) 1.1755(2) 0.50536(17)
O8A O 0.4156(3) 0.8295(3) 0.4942(2)
N14A N -0.1884(4) 1.0854(3) 0.3892(2)
P1 P 0.39746(13) 0.59410(11) 0.15246(8)
F5 F 0.4840(9) 0.5940(10) 0.1174(7)
F6 F 0.2944(15) 0.5932(10) 0.1781(11)
F7 F 0.327(2) 0.4861(15) 0.0941(10)
F8 F 0.4578(10) 0.7030(8) 0.2039(8)
F9 F 0.4440(19) 0.537(3) 0.206(2)
F10 F 0.3360(8) 0.6500(5) 0.0987(4)
P2 P 0.10068(13) 0.41453(10) 0.37082(8)
F11 F 0.0021(4) 0.3175(3) 0.3336(3)
F12 F 0.2010(4) 0.5098(3) 0.4091(3)
F13 F 0.0469(5) 0.4497(4) 0.4240(3)
F14 F 0.1547(5) 0.3772(4) 0.3176(3)
F15 F 0.0453(4) 0.4758(3) 0.3260(2)
F16 F 0.1604(4) 0.3536(3) 0.4159(2)
F17? F 0.4005(14) 0.6568(11) 0.1094(7)
F18? F 0.5081(19) 0.5655(19) 0.1464(13)
F19? F 0.313(3) 0.622(2) 0.179(2)
F20? F 0.321(5) 0.502(3) 0.107(2)
F21? F 0.485(2) 0.6841(17) 0.2137(16)
F22? F 0.416(4) 0.531(5) 0.201(4)
loop_
_geom_bond_atom_site_label_1
_geom_bond_atom_site_label_2
_geom_bond_site_symmetry_1
_geom_bond_site_symmetry_2
Au1 Ag1 1_555 1_555
Au2 Ag3 1_555 1_555
Ag1 O1 1_555 1_555
Ag2 Au1 1_555 1_555
Ag3 O5 1_555 1_555
Ag4 Au2 1_555 1_555
P1 F5 1_555 1_555
P2 F11 1_555 1_555
F1 C23 1_555 1_555
F2 C30 1_555 1_555
F3 C55 1_555 1_555
F4 C62 1_555 1_555
F6 P1 1_555 1_555
F7 P1 1_555 1_555
F8 P1 1_555 1_555
F9 P1 1_555 1_555
F10 P1 1_555 1_555
F12 P2 1_555 1_555
F13 P2 1_555 1_555
F14 P2 1_555 1_555
F15 P2 1_555 1_555
F16 P2 1_555 1_555
O1 C19 1_555 1_555
O2 C19 1_555 1_555
O3 Ag2 1_555 1_555
O4 C26 1_555 1_555
O5 C51 1_555 1_555
O6 C51 1_555 1_555
O7 Ag4 1_555 1_555
O8 C58 1_555 1_555
N1 Ag1 1_555 1_555
N2 C1 1_555 1_555
N3 Ag4 1_555 1_555
N4 C1 1_555 1_555
N5 Ag2 1_555 1_555
N6 C10 1_555 1_555
N7 C10 1_555 1_555
N8 C14 1_555 1_555
N9 C33 1_555 1_555
N10 C33 1_555 1_555
N11 Ag3 1_555 1_555
N12 C42 1_555 1_555
N13 C42 1_555 1_555
N14 C46 1_555 1_555
C1 Au1 1_555 1_555
C2 N4 1_555 1_555
H1 C2 1_555 1_555
C3 N2 1_555 1_555
H2 C3 1_555 1_555
C4 N2 1_555 1_555
H3 C4 1_555 1_555
H4 C4 1_555 1_555
H5 C4 1_555 1_555
C5 N4 1_555 1_555
C6 C5 1_555 1_555
H6 C6 1_555 1_555
C7 C6 1_555 1_555
H7 C7 1_555 1_555
C8 C7 1_555 1_555
H8 C8 1_555 1_555
C9 N5 1_555 1_555
H9 C9 1_555 1_555
C10 Au1 1_555 1_555
C11 N7 1_555 1_555
H10 C11 1_555 1_555
C12 N6 1_555 1_555
H11 C12 1_555 1_555
C13 N6 1_555 1_555
H12 C13 1_555 1_555
H13 C13 1_555 1_555
H14 C13 1_555 1_555
C14 N7 1_555 1_555
C15 C14 1_555 1_555
H15 C15 1_555 1_555
C16 C15 1_555 1_555
H16 C16 1_555 1_555
C17 C16 1_555 1_555
H17 C17 1_555 1_555
C18 N8 1_555 1_555
H18 C18 1_555 1_555
C19 C20 1_555 1_555
C20 C21 1_555 1_555
C21 H19 1_555 1_555
C22 C21 1_555 1_555
H20 C22 1_555 1_555
C23 C22 1_555 1_555
C24 C23 1_555 1_555
H21 C24 1_555 1_555
C25 C20 1_555 1_555
H22 C25 1_555 1_555
C26 O3 1_555 1_555
C27 C26 1_555 1_555
C28 C27 1_555 1_555
H23 C28 1_555 1_555
C29 C28 1_555 1_555
H24 C29 1_555 1_555
C30 C29 1_555 1_555
C31 C30 1_555 1_555
H25 C31 1_555 1_555
C32 C27 1_555 1_555
H26 C32 1_555 1_555
C33 Au2 1_555 1_555
C34 N10 1_555 1_555
H27 C34 1_555 1_555
C35 N9 1_555 1_555
H28 C35 1_555 1_555
C36 N9 1_555 1_555
H29 C36 1_555 1_555
H30 C36 1_555 1_555
H31 C36 1_555 1_555
C37 N10 1_555 1_555
C38 C37 1_555 1_555
H32 C38 1_555 1_555
C39 C38 1_555 1_555
H33 C39 1_555 1_555
C40 C39 1_555 1_555
H34 C40 1_555 1_555
C41 N11 1_555 1_555
H35 C41 1_555 1_555
C42 Au2 1_555 1_555
C43 N13 1_555 1_555
H36 C43 1_555 1_555
C44 N12 1_555 1_555
H37 C44 1_555 1_555
C45 N12 1_555 1_555
H38 C45 1_555 1_555
H39 C45 1_555 1_555
H40 C45 1_555 1_555
C46 H41 1_555 1_555
C47 C46 1_555 1_555
H42 C47 1_555 1_555
C48 C47 1_555 1_555
H43 C48 1_555 1_555
C49 C48 1_555 1_555
H44 C49 1_555 1_555
C50 N13 1_555 1_555
C51 C52 1_555 1_555
C52 C53 1_555 1_555
C53 H45 1_555 1_555
C54 C53 1_555 1_555
H46 C54 1_555 1_555
C55 C54 1_555 1_555
C56 C55 1_555 1_555
H47 C56 1_555 1_555
C57 C52 1_555 1_555
H48 C57 1_555 1_555
C58 O7 1_555 1_555
C59 C58 1_555 1_555
C60 C59 1_555 1_555
H49 C60 1_555 1_555
C61 C60 1_555 1_555
H50 C61 1_555 1_555
C62 C61 1_555 1_555
C63 C62 1_555 1_555
H51 C63 1_555 1_555
C64 C59 1_555 1_555
H52 C64 1_555 1_555
C65 N1 1_555 1_555
C66 C65 1_555 1_555
H53 C66 1_555 1_555
H54 C66 1_555 1_555
H55 C66 1_555 1_555
C67 N3 1_555 1_555
C68 C67 1_555 1_555
H56 C68 1_555 1_555
H57 C68 1_555 1_555
H58 C68 1_555 1_555
Au1A Ag2 1_555 1_555
Au2A Ag3 1_555 1_555
Ag1A Ag1 1_555 1_555
Ag2A Au1 1_555 1_555
Ag3A Au2 1_555 1_555
Ag4A Ag4 1_555 1_555
O2A Ag1 1_555 1_555
O4A Ag2 1_555 1_555
O6A Ag3 1_555 1_555
O8A Ag4 1_555 1_555
N8A Ag2 1_555 1_555
N14A Ag3 1_555 1_555
Ag2 Ag2A 1_555 1_555
Ag3 Ag3A 1_555 1_555
O2 Ag1A 1_555 1_555
O4 Ag2A 1_555 1_555
O6 Ag3A 1_555 1_555
O8 Ag4A 1_555 1_555
N5 C5 1_555 1_555
N8 Ag2A 1_555 1_555
N11 C37 1_555 1_555
N14 C50 1_555 1_555
N14 Ag3A 1_555 1_555
C2 C3 1_555 1_555
C8 C9 1_555 1_555
C11 C12 1_555 1_555
C17 C18 1_555 1_555
C24 C25 1_555 1_555
C31 C32 1_555 1_555
C34 C35 1_555 1_555
C40 C41 1_555 1_555
C43 C44 1_555 1_555
C49 C50 1_555 1_555
C56 C57 1_555 1_555
C63 C64 1_555 1_555
Au1A Ag2A 1_555 1_555
Au2A Ag3A 1_555 1_555

#END
