
#######################################################################
#
#                 Cambridge Crystallographic Data Centre
#                                CCDC 
#
#######################################################################
#
# If this CIF has been generated from an entry in the Cambridge 
# Structural Database, then it will include bibliographic, chemical, 
# crystal, experimental, refinement or atomic coordinate data resulting 
# from the CCDC's data processing and validation procedures.
#
#######################################################################

data_POYPAV
_symmetry_cell_setting           orthorhombic
_symmetry_space_group_name_H-M   'P n c 2'
_symmetry_Int_Tables_number      30
_space_group_name_Hall           'P 2 -2bc'
loop_
_symmetry_equiv_pos_site_id
_symmetry_equiv_pos_as_xyz
1 x,y,z
2 -x,1/2+y,1/2+z
3 x,1/2-y,1/2+z
4 -x,-y,z
_cell_length_a                   6.9776(2)
_cell_length_b                   14.1719(3)
_cell_length_c                   7.4717(2)
_cell_angle_alpha                90
_cell_angle_beta                 90
_cell_angle_gamma                90
_cell_volume                     738.845
loop_
_atom_site_label
_atom_site_type_symbol
_atom_site_fract_x
_atom_site_fract_y
_atom_site_fract_z
Ni1 Ni -0.50000 0.00000 0.886(3)
Cd1 Cd 0.00000 0.00000 0.399(2)
C1 C -0.342(2) 0.035(3) 0.696(2)
N1 N -0.228(6) 0.054(3) 0.592(4)
C2 C -0.684(3) -0.029(3) 1.060(2)
N2 N -0.797(4) -0.040(4) 1.170(3)
N3 N -0.142(3) -0.342(2) 0.876(4)
C3 C -0.016(4) -0.275(6) 0.909(4)
C4 C -0.362(2) -0.343(1) 0.905(4)
C5 C -0.119(3) -0.191(4) 0.887(3)
N4 N -0.322(2) -0.188(3) 0.923(3)
C6 C -0.430(4) -0.248(2) 0.930(4)
Cd1_2 Cd -1.00000 0.00000 1.399(2)
Cd1A Cd 0.00000 -0.50000 0.899(2)
Cd1_3 Cd -1.00000 0.00000 0.399(2)
Cd1_4 Cd 0.00000 0.00000 1.399(2)
Cd1A_2 Cd -1.00000 0.50000 0.899(2)
C1C C -0.658(2) -0.035(3) 0.696(2)
N1C N -0.772(6) -0.054(3) 0.592(4)
N1C_2 N 0.228(6) -0.054(3) 0.592(4)
C2C C -0.316(3) 0.029(3) 1.060(2)
N2C N -0.203(4) 0.040(4) 1.170(3)
N2_2 N 0.203(4) -0.040(4) 0.170(3)
N2C_2 N -0.203(4) 0.040(4) 0.170(3)
N3C N -0.858(3) 0.342(2) 0.876(4)
N3A N 0.142(3) 0.158(2) 0.376(4)
N3B N -0.142(3) -0.158(2) 0.376(4)
C3C C -0.984(4) 0.275(6) 0.909(4)
C4C C -0.638(2) 0.343(1) 0.905(4)
C5C C -0.881(3) 0.191(4) 0.887(3)
N4C N -0.678(2) 0.188(3) 0.923(3)
C6C C -0.570(4) 0.248(2) 0.930(4)
O1 O 0.604(6) 0.239(2) 0.266(3)
loop_
_geom_bond_atom_site_label_1
_geom_bond_atom_site_label_2
_geom_bond_site_symmetry_1
_geom_bond_site_symmetry_2
Ni1 C1 1_555 1_555
Cd1 N1 1_555 1_555
C1 N1 1_555 1_555
C2 Ni1 1_555 1_555
N2 C2 1_555 1_555
N3 C3 1_555 1_555
C3 C5 1_555 1_555
C4 N3 1_555 1_555
C5 N4 1_555 1_555
N4 Ni1 1_555 1_555
C6 C4 1_555 1_555
Cd1_2 N2 1_555 1_555
Cd1A N3 1_555 1_555
Cd1_3 N1C 1_555 1_555
Cd1_4 N2C 1_555 1_555
Cd1A_2 N3C 1_555 1_555
C1C Ni1 1_555 1_555
N1C C1C 1_555 1_555
N1C_2 Cd1 1_555 1_555
C2C Ni1 1_555 1_555
N2C C2C 1_555 1_555
N2_2 Cd1 1_555 1_555
N2C_2 Cd1 1_555 1_555
N3C C3C 1_555 1_555
N3A Cd1 1_555 1_555
N3B Cd1 1_555 1_555
C3C C5C 1_555 1_555
C4C N3C 1_555 1_555
C5C N4C 1_555 1_555
N4C Ni1 1_555 1_555
C6C C4C 1_555 1_555
N4 C6 1_555 1_555
N4C C6C 1_555 1_555

#END
