
#######################################################################
#
#                 Cambridge Crystallographic Data Centre
#                                CCDC 
#
#######################################################################
#
# If this CIF has been generated from an entry in the Cambridge 
# Structural Database, then it will include bibliographic, chemical, 
# crystal, experimental, refinement or atomic coordinate data resulting 
# from the CCDC's data processing and validation procedures.
#
#######################################################################

data_POYRAX
_symmetry_cell_setting           orthorhombic
_symmetry_space_group_name_H-M   'P b c n'
_symmetry_Int_Tables_number      60
_space_group_name_Hall           '-P 2n 2ab'
loop_
_symmetry_equiv_pos_site_id
_symmetry_equiv_pos_as_xyz
1 x,y,z
2 1/2-x,1/2-y,1/2+z
3 -x,y,1/2-z
4 1/2+x,1/2-y,-z
5 -x,-y,-z
6 1/2+x,1/2+y,1/2-z
7 x,-y,1/2+z
8 1/2-x,1/2+y,z
_cell_length_a                   16.3506(6)
_cell_length_b                   13.7789(5)
_cell_length_c                   7.4632(3)
_cell_angle_alpha                90
_cell_angle_beta                 90
_cell_angle_gamma                90
_cell_volume                     1681.41
loop_
_atom_site_label
_atom_site_type_symbol
_atom_site_fract_x
_atom_site_fract_y
_atom_site_fract_z
Mn1 Mn 0.5000 1.0000 0.0000
C1 C 0.64097(13) 0.59952(15) 0.3274(3)
H1 H 0.6176 0.5502 0.3953
C2 C 0.70964(11) 0.74663(14) 0.1227(3)
H2 H 0.7325 0.7956 0.0532
C3 C 0.74359(12) 0.65401(14) 0.1199(3)
H3 H 0.7894 0.6414 0.0498
C4 C 0.64154(11) 0.76629(13) 0.2292(2)
C5 C 0.60421(11) 0.86571(13) 0.2398(2)
C6 C 0.70914(12) 0.58057(14) 0.2216(3)
C7 C 0.60805(12) 0.69163(14) 0.3314(3)
H4 H 0.5628 0.7041 0.4034
C8 C 0.43052(14) 1.33105(15) 0.2040(3)
H5 H 0.3831 1.3643 0.1729
C9 C 0.43153(13) 1.23070(15) 0.2041(3)
H6 H 0.3848 1.1961 0.1725
C10 C 0.5000 1.3815(2) 0.2500
H7 H 0.5000 1.4490 0.2500
O1 O 0.61005(8) 0.92149(9) 0.10427(18)
O2 O 0.56917(8) 0.88705(9) 0.38384(18)
O3 O 0.5000 1.08602(13) 0.2500
O4 O 0.73887(10) 0.48837(10) 0.2239(3)
H8 H 0.7817 0.4862 0.1670
N1 N 0.5000 1.18345(15) 0.2500
Mn1B Mn 0.5000 1.0000 0.5000
C1B C 0.35903(13) 0.59952(15) 0.1726(3)
H1B H 0.3824 0.5502 0.1047
C2B C 0.29036(11) 0.74663(14) 0.3773(3)
H2B H 0.2675 0.7956 0.4468
C3B C 0.25641(12) 0.65401(14) 0.3801(3)
H3B H 0.2106 0.6414 0.4502
C4B C 0.35846(11) 0.76629(13) 0.2708(2)
C5B C 0.39579(11) 0.86571(13) 0.2602(2)
C6B C 0.29086(12) 0.58057(14) 0.2784(3)
C7B C 0.39195(12) 0.69163(14) 0.1686(3)
H4B H 0.4372 0.7041 0.0966
C8B C 0.56948(14) 1.33105(15) 0.2960(3)
H5B H 0.6169 1.3643 0.3271
C9B C 0.56847(13) 1.23070(15) 0.2959(3)
H6B H 0.6152 1.1961 0.3275
O1B O 0.38995(8) 0.92149(9) 0.39573(18)
O1D O 0.38995(8) 1.07851(9) -0.10427(18)
O2B O 0.43083(8) 0.88705(9) 0.11616(18)
O2F O 0.56917(8) 1.11295(9) -0.11616(18)
O3D O 0.5000 0.91398(13) -0.2500
O4B O 0.26113(10) 0.48837(10) 0.2761(3)
H8B H 0.2183 0.4862 0.3330
loop_
_geom_bond_atom_site_label_1
_geom_bond_atom_site_label_2
_geom_bond_site_symmetry_1
_geom_bond_site_symmetry_2
Mn1 O1 1_555 1_555
C1 H1 1_555 1_555
C2 H2 1_555 1_555
C3 C2 1_555 1_555
H3 C3 1_555 1_555
C4 C2 1_555 1_555
C5 C4 1_555 1_555
C6 C1 1_555 1_555
C7 C1 1_555 1_555
H4 C7 1_555 1_555
C8 H5 1_555 1_555
C9 C8 1_555 1_555
H6 C9 1_555 1_555
C10 C8 1_555 1_555
H7 C10 1_555 1_555
O1 C5 1_555 1_555
O2 C5 1_555 1_555
O3 Mn1 1_555 1_555
O4 C6 1_555 1_555
H8 O4 1_555 1_555
N1 C9 1_555 1_555
Mn1B O2 1_555 1_555
C1B H1B 1_555 1_555
C2B H2B 1_555 1_555
C3B C2B 1_555 1_555
H3B C3B 1_555 1_555
C4B C2B 1_555 1_555
C5B C4B 1_555 1_555
C6B C1B 1_555 1_555
C7B C1B 1_555 1_555
H4B C7B 1_555 1_555
C8B C10 1_555 1_555
H5B C8B 1_555 1_555
C9B N1 1_555 1_555
H6B C9B 1_555 1_555
O1B Mn1B 1_555 1_555
O1D Mn1 1_555 1_555
O2B Mn1 1_555 1_555
O2F Mn1 1_555 1_555
O3D Mn1 1_555 1_555
O4B C6B 1_555 1_555
H8B O4B 1_555 1_555
C3 C6 1_555 1_555
C4 C7 1_555 1_555
O3 N1 1_555 1_555
O3 Mn1B 1_555 1_555
C3B C6B 1_555 1_555
C4B C7B 1_555 1_555
C5B O1B 1_555 1_555
C5B O2B 1_555 1_555
C8B C9B 1_555 1_555

#END
