
#######################################################################
#
#                 Cambridge Crystallographic Data Centre
#                                CCDC 
#
#######################################################################
#
# If this CIF has been generated from an entry in the Cambridge 
# Structural Database, then it will include bibliographic, chemical, 
# crystal, experimental, refinement or atomic coordinate data resulting 
# from the CCDC's data processing and validation procedures.
#
#######################################################################

data_POYTUU02
_symmetry_cell_setting           monoclinic
_symmetry_space_group_name_H-M   'P 21/c'
_symmetry_Int_Tables_number      14
_space_group_name_Hall           '-P 2ybc'
loop_
_symmetry_equiv_pos_site_id
_symmetry_equiv_pos_as_xyz
1 x,y,z
2 -x,1/2+y,1/2-z
3 -x,-y,-z
4 x,1/2-y,1/2+z
_cell_length_a                   8.3756(16)
_cell_length_b                   16.567(3)
_cell_length_c                   11.265(2)
_cell_angle_alpha                90
_cell_angle_beta                 98.606(3)
_cell_angle_gamma                90
_cell_volume                     1545.52
loop_
_atom_site_label
_atom_site_type_symbol
_atom_site_fract_x
_atom_site_fract_y
_atom_site_fract_z
Fe1 Fe 0.0000 0.5000 1.0000
N1 N -0.1632(3) 0.52057(15) 0.8370(2)
N2 N 0.1311(3) 0.45621(14) 0.8715(2)
N3 N 0.2734(3) 0.41580(15) 0.8676(2)
N4 N 0.1295(3) 0.41861(16) 0.6803(2)
N5 N 0.7665(3) 0.21850(17) 0.5792(2)
N6 N 0.9072(3) 0.11771(15) 0.5201(2)
C1 C -0.3065(4) 0.5576(2) 0.8242(4)
H1 H -0.3476 0.5736 0.8928
C2 C -0.3949(5) 0.5728(3) 0.7150(5)
H2 H -0.4936 0.5992 0.7099
C3 C -0.3380(5) 0.5492(3) 0.6132(4)
H3 H -0.3977 0.5593 0.5382
C4 C -0.1899(5) 0.5098(2) 0.6227(3)
H4 H -0.1485 0.4931 0.5546
C5 C -0.1062(4) 0.49633(18) 0.7363(3)
C6 C 0.0520(3) 0.45649(18) 0.7601(2)
C7 C 0.2661(3) 0.39458(17) 0.7525(3)
C8 C 0.3951(3) 0.34822(18) 0.7082(3)
C9 C 0.3633(4) 0.3001(2) 0.6081(3)
H5 H 0.2581 0.2968 0.5679
C10 C 0.4831(4) 0.2566(2) 0.5657(3)
H6 H 0.4585 0.2239 0.4983
C11 C 0.6395(3) 0.26202(19) 0.6239(3)
C12 C 0.6739(4) 0.3094(2) 0.7239(3)
H7 H 0.7794 0.3128 0.7636
C13 C 0.5530(4) 0.3521(2) 0.7660(3)
H8 H 0.5776 0.3839 0.8343
C14 C 0.7757(3) 0.13845(19) 0.5629(3)
H9 H 0.6979 0.1019 0.5799
C15 C 0.9848(4) 0.1889(2) 0.5076(3)
H10 H 1.0818 0.1938 0.4774
C16 C 0.9019(4) 0.2509(2) 0.5448(4)
H11 H 0.9311 0.3051 0.5468
N1B N 0.1632(3) 0.47943(15) 1.1630(2)
N2B N -0.1311(3) 0.54379(14) 1.1285(2)
N3B N -0.2734(3) 0.58420(15) 1.1324(2)
N4B N -0.1295(3) 0.58139(16) 1.3197(2)
N5B N -0.7665(3) 0.78150(17) 1.4208(2)
N6B N -0.9072(3) 0.88229(15) 1.4799(2)
C1B C 0.3065(4) 0.4424(2) 1.1758(4)
H1B H 0.3476 0.4264 1.1072
C2B C 0.3949(5) 0.4272(3) 1.2850(5)
H2B H 0.4936 0.4008 1.2901
C3B C 0.3380(5) 0.4508(3) 1.3868(4)
H3B H 0.3977 0.4407 1.4618
C4B C 0.1899(5) 0.4902(2) 1.3773(3)
H4B H 0.1485 0.5069 1.4454
C5B C 0.1062(4) 0.50367(18) 1.2637(3)
C6B C -0.0520(3) 0.54351(18) 1.2399(2)
C7B C -0.2661(3) 0.60542(17) 1.2475(3)
C8B C -0.3951(3) 0.65178(18) 1.2918(3)
C9B C -0.3633(4) 0.6999(2) 1.3919(3)
H5B H -0.2581 0.7032 1.4321
C10B C -0.4831(4) 0.7434(2) 1.4343(3)
H6B H -0.4585 0.7761 1.5017
C11B C -0.6395(3) 0.73798(19) 1.3761(3)
C12B C -0.6739(4) 0.6906(2) 1.2761(3)
H7B H -0.7794 0.6872 1.2364
C13B C -0.5530(4) 0.6479(2) 1.2340(3)
H8B H -0.5776 0.6161 1.1657
C14B C -0.7757(3) 0.86155(19) 1.4371(3)
H9B H -0.6979 0.8981 1.4201
C15B C -0.9848(4) 0.8111(2) 1.4924(3)
H10B H -1.0818 0.8062 1.5226
C16B C -0.9019(4) 0.7491(2) 1.4552(4)
H11B H -0.9311 0.6949 1.4532
Fe1A Fe -1.0000 1.0000 1.5000
Fe1A_2 Fe 1.0000 0.0000 0.5000
N6A N 0.0928(3) 0.61771(15) 0.9799(2)
N6C N -0.0928(3) 0.38229(15) 1.0201(2)
loop_
_geom_bond_atom_site_label_1
_geom_bond_atom_site_label_2
_geom_bond_site_symmetry_1
_geom_bond_site_symmetry_2
Fe1 N1 1_555 1_555
N1 C1 1_555 1_555
N2 Fe1 1_555 1_555
N3 N2 1_555 1_555
N4 C6 1_555 1_555
N5 C11 1_555 1_555
N6 C14 1_555 1_555
C1 H1 1_555 1_555
C2 C1 1_555 1_555
H2 C2 1_555 1_555
C3 C2 1_555 1_555
H3 C3 1_555 1_555
C4 C3 1_555 1_555
H4 C4 1_555 1_555
C5 N1 1_555 1_555
C6 N2 1_555 1_555
C7 N3 1_555 1_555
C8 C7 1_555 1_555
C9 C8 1_555 1_555
H5 C9 1_555 1_555
C10 C9 1_555 1_555
H6 C10 1_555 1_555
C11 C10 1_555 1_555
C12 C11 1_555 1_555
H7 C12 1_555 1_555
C13 C8 1_555 1_555
H8 C13 1_555 1_555
C14 N5 1_555 1_555
H9 C14 1_555 1_555
C15 N6 1_555 1_555
H10 C15 1_555 1_555
C16 N5 1_555 1_555
H11 C16 1_555 1_555
N1B Fe1 1_555 1_555
N2B Fe1 1_555 1_555
N3B N2B 1_555 1_555
N4B C6B 1_555 1_555
N5B C11B 1_555 1_555
N6B C14B 1_555 1_555
C1B N1B 1_555 1_555
H1B C1B 1_555 1_555
C2B C1B 1_555 1_555
H2B C2B 1_555 1_555
C3B C2B 1_555 1_555
H3B C3B 1_555 1_555
C4B C3B 1_555 1_555
H4B C4B 1_555 1_555
C5B N1B 1_555 1_555
C6B N2B 1_555 1_555
C7B N3B 1_555 1_555
C8B C7B 1_555 1_555
C9B C8B 1_555 1_555
H5B C9B 1_555 1_555
C10B C9B 1_555 1_555
H6B C10B 1_555 1_555
C11B C10B 1_555 1_555
C12B C11B 1_555 1_555
H7B C12B 1_555 1_555
C13B C8B 1_555 1_555
H8B C13B 1_555 1_555
C14B N5B 1_555 1_555
H9B C14B 1_555 1_555
C15B N6B 1_555 1_555
H10B C15B 1_555 1_555
C16B N5B 1_555 1_555
H11B C16B 1_555 1_555
Fe1A N6B 1_555 1_555
Fe1A_2 N6 1_555 1_555
N6A Fe1 1_555 1_555
N6C Fe1 1_555 1_555
N4 C7 1_555 1_555
C4 C5 1_555 1_555
C5 C6 1_555 1_555
C12 C13 1_555 1_555
C15 C16 1_555 1_555
N4B C7B 1_555 1_555
C4B C5B 1_555 1_555
C5B C6B 1_555 1_555
C12B C13B 1_555 1_555
C15B C16B 1_555 1_555

#END
