
#######################################################################
#
#                 Cambridge Crystallographic Data Centre
#                                CCDC 
#
#######################################################################
#
# If this CIF has been generated from an entry in the Cambridge 
# Structural Database, then it will include bibliographic, chemical, 
# crystal, experimental, refinement or atomic coordinate data resulting 
# from the CCDC's data processing and validation procedures.
#
#######################################################################

data_POYTII
_symmetry_cell_setting           monoclinic
_symmetry_space_group_name_H-M   'P 21/c'
_symmetry_Int_Tables_number      14
_space_group_name_Hall           '-P 2ybc'
loop_
_symmetry_equiv_pos_site_id
_symmetry_equiv_pos_as_xyz
1 x,y,z
2 -x,1/2+y,1/2-z
3 -x,-y,-z
4 x,1/2-y,1/2+z
_cell_length_a                   12.5404(3)
_cell_length_b                   17.0035(4)
_cell_length_c                   15.9352(4)
_cell_angle_alpha                90
_cell_angle_beta                 106.6308(12)
_cell_angle_gamma                90
_cell_volume                     3255.74
loop_
_atom_site_label
_atom_site_type_symbol
_atom_site_fract_x
_atom_site_fract_y
_atom_site_fract_z
K1 K 0.80967(3) 0.27195(2) 0.66205(3)
K2 K 0.66486(4) 0.19647(3) 0.39680(3)
B1 B 0.93020(18) 0.21907(13) 0.52266(14)
H1 H 0.8783(16) 0.2744(11) 0.4911(13)
H2 H 0.8736(16) 0.1695(11) 0.5291(12)
B2 B 0.8974(2) 0.16666(15) 0.35940(15)
H3 H 0.8463(18) 0.2227(13) 0.3348(14)
H4 H 0.8430(16) 0.1153(12) 0.3714(13)
H5 H 0.9429(18) 0.1477(12) 0.3113(14)
B3 B 0.5475(2) 0.27766(15) 0.52526(15)
H6 H 0.5662(17) 0.2142(13) 0.5485(14)
H7 H 0.6310(17) 0.3107(12) 0.5312(13)
B4 B 0.5703(2) 0.31859(18) 0.69222(16)
H8 H 0.594(2) 0.2537(15) 0.7085(15)
H9 H 0.6468(19) 0.3557(13) 0.6933(15)
H10 H 0.5196(19) 0.3426(13) 0.7342(15)
N1 N 1.00688(13) 0.24115(10) 0.61001(10)
N2 N 0.98776(12) 0.18657(9) 0.44936(10)
N3 N 0.47949(14) 0.27588(10) 0.43038(11)
N4 N 0.49028(13) 0.31971(10) 0.59456(11)
O1 O 0.81850(15) 0.11777(9) 0.72136(10)
O2 O 0.82797(15) 0.42609(8) 0.61690(10)
O3 O 0.61531(13) 0.04629(9) 0.43399(10)
C1 C 1.06226(19) 0.31666(14) 0.62739(15)
H11 H 1.1399 0.3109 0.6272
H12 H 1.0598 0.3359 0.6848
H13 H 1.0245 0.3543 0.5820
C2 C 1.0581(2) 0.18453(15) 0.67663(14)
H14 H 1.1365 0.1780 0.6789
H15 H 1.0196 0.1339 0.6627
H16 H 1.0529 0.2031 0.7336
C3 C 1.06377(19) 0.24729(16) 0.43279(15)
H17 H 1.0983 0.2280 0.3888
H18 H 1.1218 0.2587 0.4873
H19 H 1.0216 0.2953 0.4113
C4 C 1.0531(2) 0.11528(15) 0.48149(15)
H20 H 1.0828 0.0943 0.4355
H21 H 1.0052 0.0758 0.4972
H22 H 1.1147 0.1283 0.5332
C5 C 0.4742(2) 0.34229(16) 0.37235(15)
H23 H 0.4057 0.3720 0.3673
H24 H 0.4746 0.3233 0.3144
H25 H 0.5387 0.3765 0.3961
C6 C 0.3889(2) 0.22176(17) 0.39640(17)
H26 H 0.3182 0.2480 0.3931
H27 H 0.3979 0.1760 0.4352
H28 H 0.3889 0.2045 0.3377
C7 C 0.3862(2) 0.27873(19) 0.59297(17)
H29 H 0.3526 0.3038 0.6347
H30 H 0.4023 0.2235 0.6092
H31 H 0.3343 0.2817 0.5339
C8 C 0.4633(2) 0.40250(15) 0.56847(16)
H32 H 0.4296 0.4277 0.6101
H33 H 0.4108 0.4042 0.5096
H34 H 0.5316 0.4305 0.5684
C9 C 0.7860(2) 0.09338(14) 0.79557(16)
H35 H 0.7095 0.1115 0.7907
H36 H 0.8369 0.1157 0.8497
C10 C 0.7912(2) 0.00471(14) 0.79808(16)
H37 H 0.7204 -0.0177 0.8032
H38 H 0.8528 -0.0136 0.8483
C11 C 0.8110(2) -0.01909(14) 0.71214(16)
H39 H 0.8882 -0.0379 0.7213
H40 H 0.7587 -0.0610 0.6830
C12 C 0.7904(2) 0.05529(14) 0.65929(15)
H41 H 0.8375 0.0571 0.6190
H42 H 0.7113 0.0589 0.6244
C13 C 0.8152(2) 0.49081(13) 0.66982(16)
H43 H 0.8571 0.4815 0.7318
H44 H 0.7358 0.4986 0.6660
C14 C 0.8604(2) 0.56167(13) 0.63488(15)
H45 H 0.9368 0.5741 0.6713
H46 H 0.8123 0.6081 0.6333
C15 C 0.8602(2) 0.53743(13) 0.54240(15)
H47 H 0.8160 0.5747 0.4983
H48 H 0.9369 0.5351 0.5372
C16 C 0.8075(2) 0.45731(13) 0.53109(14)
H49 H 0.7265 0.4613 0.5022
H50 H 0.8412 0.4234 0.4950
C17 C 0.69533(19) -0.01355(14) 0.43599(16)
H51 H 0.6939 -0.0539 0.4804
H52 H 0.7712 0.0090 0.4497
C18 C 0.6613(2) -0.04808(16) 0.34595(18)
H53 H 0.6852 -0.1036 0.3468
H54 H 0.6933 -0.0179 0.3058
C19 C 0.5352(2) -0.04159(17) 0.31881(19)
H55 H 0.5069 -0.0213 0.2583
H56 H 0.5006 -0.0934 0.3223
C20 C 0.5112(2) 0.01489(16) 0.38299(18)
H57 H 0.4622 0.0577 0.3518
H58 H 0.4733 -0.0125 0.4213
K1C K 0.80967(3) 0.22805(2) 0.16205(3)
K2C K 0.66486(4) 0.30353(3) 0.89680(3)
H3C H 0.8463(18) 0.2773(13) 0.8348(14)
H5C H 0.9429(18) 0.3523(12) 0.8113(14)
H8C H 0.594(2) 0.2463(15) 0.2085(15)
H10C H 0.5196(19) 0.1574(13) 0.2342(15)
loop_
_geom_bond_atom_site_label_1
_geom_bond_atom_site_label_2
_geom_bond_site_symmetry_1
_geom_bond_site_symmetry_2
K1 H1 1_555 1_555
K2 H1 1_555 1_555
B1 H1 1_555 1_555
H2 K1 1_555 1_555
B2 H3 1_555 1_555
H3 K2 1_555 1_555
H4 K2 1_555 1_555
H5 B2 1_555 1_555
B3 H6 1_555 1_555
H6 K2 1_555 1_555
H7 K1 1_555 1_555
B4 H8 1_555 1_555
H8 K1 1_555 1_555
H9 K1 1_555 1_555
H10 B4 1_555 1_555
N1 K1 1_555 1_555
N2 B1 1_555 1_555
N3 K2 1_555 1_555
N4 B3 1_555 1_555
O1 K1 1_555 1_555
O2 K1 1_555 1_555
O3 K2 1_555 1_555
C1 N1 1_555 1_555
H11 C1 1_555 1_555
H12 C1 1_555 1_555
H13 C1 1_555 1_555
C2 N1 1_555 1_555
H14 C2 1_555 1_555
H15 C2 1_555 1_555
H16 C2 1_555 1_555
C3 N2 1_555 1_555
H17 C3 1_555 1_555
H18 C3 1_555 1_555
H19 C3 1_555 1_555
C4 N2 1_555 1_555
H20 C4 1_555 1_555
H21 C4 1_555 1_555
H22 C4 1_555 1_555
C5 N3 1_555 1_555
H23 C5 1_555 1_555
H24 C5 1_555 1_555
H25 C5 1_555 1_555
C6 N3 1_555 1_555
H26 C6 1_555 1_555
H27 C6 1_555 1_555
H28 C6 1_555 1_555
C7 N4 1_555 1_555
H29 C7 1_555 1_555
H30 C7 1_555 1_555
H31 C7 1_555 1_555
C8 N4 1_555 1_555
H32 C8 1_555 1_555
H33 C8 1_555 1_555
H34 C8 1_555 1_555
C9 O1 1_555 1_555
H35 C9 1_555 1_555
H36 C9 1_555 1_555
C10 C9 1_555 1_555
H37 C10 1_555 1_555
H38 C10 1_555 1_555
C11 C10 1_555 1_555
H39 C11 1_555 1_555
H40 C11 1_555 1_555
C12 O1 1_555 1_555
H41 C12 1_555 1_555
H42 C12 1_555 1_555
C13 O2 1_555 1_555
H43 C13 1_555 1_555
H44 C13 1_555 1_555
C14 C13 1_555 1_555
H45 C14 1_555 1_555
H46 C14 1_555 1_555
C15 C14 1_555 1_555
H47 C15 1_555 1_555
H48 C15 1_555 1_555
C16 O2 1_555 1_555
H49 C16 1_555 1_555
H50 C16 1_555 1_555
C17 O3 1_555 1_555
H51 C17 1_555 1_555
H52 C17 1_555 1_555
C18 C17 1_555 1_555
H53 C18 1_555 1_555
H54 C18 1_555 1_555
C19 C18 1_555 1_555
H55 C19 1_555 1_555
H56 C19 1_555 1_555
C20 O3 1_555 1_555
H57 C20 1_555 1_555
H58 C20 1_555 1_555
K1C H3 1_555 1_555
K2C H8 1_555 1_555
H3C K1 1_555 1_555
H5C K1 1_555 1_555
H8C K2 1_555 1_555
H10C K2 1_555 1_555
K2 H2 1_555 1_555
K2 H7 1_555 1_555
B1 H2 1_555 1_555
B1 N1 1_555 1_555
B2 H4 1_555 1_555
B2 N2 1_555 1_555
H5 K1C 1_555 1_555
B3 H7 1_555 1_555
B3 N3 1_555 1_555
B4 H9 1_555 1_555
B4 N4 1_555 1_555
H10 K2C 1_555 1_555
C11 C12 1_555 1_555
C15 C16 1_555 1_555
C19 C20 1_555 1_555
K1C H8C 1_555 1_555
K2C H3C 1_555 1_555

#END
