
#######################################################################
#
#                 Cambridge Crystallographic Data Centre
#                                CCDC 
#
#######################################################################
#
# If this CIF has been generated from an entry in the Cambridge 
# Structural Database, then it will include bibliographic, chemical, 
# crystal, experimental, refinement or atomic coordinate data resulting 
# from the CCDC's data processing and validation procedures.
#
#######################################################################

data_POYVII02
_symmetry_cell_setting           monoclinic
_symmetry_space_group_name_H-M   'P 21/c'
_symmetry_Int_Tables_number      14
_space_group_name_Hall           '-P 2ybc'
loop_
_symmetry_equiv_pos_site_id
_symmetry_equiv_pos_as_xyz
1 x,y,z
2 -x,1/2+y,1/2-z
3 -x,-y,-z
4 x,1/2-y,1/2+z
_cell_length_a                   6.5433(13)
_cell_length_b                   7.6704(15)
_cell_length_c                   20.472(4)
_cell_angle_alpha                90
_cell_angle_beta                 92.93(3)
_cell_angle_gamma                90
_cell_volume                     1026.14
loop_
_atom_site_label
_atom_site_type_symbol
_atom_site_fract_x
_atom_site_fract_y
_atom_site_fract_z
Mn1 Mn 0.18806(5) 1.23260(4) 0.387356(16)
C1 C 0.2546(4) 1.3336(3) 0.54407(12)
H1 H 0.2399 1.4521 0.5311
C2 C 0.2945(4) 1.2930(3) 0.60982(12)
H2 H 0.3088 1.3851 0.6407
N1 N 0.3132(3) 1.1282(3) 0.63086(10)
C3 C 0.2919(3) 1.0016(3) 0.58533(11)
C4 C 0.3045(3) 0.8182(3) 0.61321(11)
C5 C 0.2564(3) 1.0414(3) 0.51937(11)
C6 C 0.2362(3) 0.9021(3) 0.46658(11)
N2 N 0.2370(3) 1.2082(3) 0.49910(9)
O1 O 0.4797(2) 0.7587(2) 0.62757(8)
O2 O 0.1402(2) 0.7444(2) 0.62478(9)
O3 O 0.2701(3) 0.7494(2) 0.48346(8)
O4 O 0.1865(3) 0.9568(2) 0.40933(8)
O5 O 0.2066(3) 1.5082(2) 0.38942(10)
O6 O 0.1884(3) 1.1995(3) 0.28306(8)
H3 H 0.197(6) 1.569(4) 0.3558(12)
H4 H 0.220(5) 1.574(5) 0.4194(18)
H5 H 0.088(4) 1.216(5) 0.2569(14)
H6 H 0.272(5) 1.130(4) 0.2681(16)
Mn1B Mn -0.18806(5) 0.76740(4) 0.612644(16)
Mn1_2 Mn -0.81194(5) 1.23260(4) 0.387356(16)
Mn1B_2 Mn 0.81194(5) 0.76740(4) 0.612644(16)
C1B C -0.2546(4) 0.6664(3) 0.45593(12)
H1B H -0.2399 0.5479 0.4689
C2B C -0.2945(4) 0.7070(3) 0.39018(12)
H2B H -0.3088 0.6149 0.3593
N1B N -0.3132(3) 0.8718(3) 0.36914(10)
C3B C -0.2919(3) 0.9984(3) 0.41467(11)
C4B C -0.3045(3) 1.1818(3) 0.38679(11)
C5B C -0.2564(3) 0.9586(3) 0.48063(11)
C6B C -0.2362(3) 1.0979(3) 0.53342(11)
N2B N -0.2370(3) 0.7918(3) 0.50090(9)
O1B O -0.4797(2) 1.2413(2) 0.37243(8)
O1_2 O -0.5203(2) 0.7587(2) 0.62757(8)
O1B_2 O 0.5203(2) 1.2413(2) 0.37243(8)
O2B O -0.1402(2) 1.2556(2) 0.37522(9)
O3B O -0.2701(3) 1.2506(2) 0.51654(8)
O4B O -0.1865(3) 1.0432(2) 0.59067(8)
O5B O -0.2066(3) 0.4918(2) 0.61058(10)
O6B O -0.1884(3) 0.8005(3) 0.71694(8)
H3B H -0.197(6) 0.431(4) 0.6442(12)
H4B H -0.220(5) 0.426(5) 0.5806(18)
H5B H -0.088(4) 0.784(5) 0.7431(14)
H6B H -0.272(5) 0.870(4) 0.7319(16)
O7 O 0.4543(3) 0.9441(3) 0.24278(9)
H7 H 0.538(5) 0.917(5) 0.2729(13)
H8 H 0.480(5) 0.899(4) 0.2076(11)
O8 O 0.1411(3) 0.7572(3) 0.29703(9)
H9 H 0.235(6) 0.795(5) 0.2755(17)
H10 H 0.135(5) 0.827(4) 0.3278(13)
loop_
_geom_bond_atom_site_label_1
_geom_bond_atom_site_label_2
_geom_bond_site_symmetry_1
_geom_bond_site_symmetry_2
Mn1 N2 1_555 1_555
C1 H1 1_555 1_555
C2 C1 1_555 1_555
H2 C2 1_555 1_555
N1 C2 1_555 1_555
C3 N1 1_555 1_555
C4 C3 1_555 1_555
C5 C3 1_555 1_555
C6 C5 1_555 1_555
N2 C1 1_555 1_555
O1 C4 1_555 1_555
O2 C4 1_555 1_555
O3 C6 1_555 1_555
O4 Mn1 1_555 1_555
O5 Mn1 1_555 1_555
O6 Mn1 1_555 1_555
O7 H7 1_555 1_555
O8 H9 1_555 1_555
H3 O5 1_555 1_555
H4 O5 1_555 1_555
H5 O6 1_555 1_555
H6 O6 1_555 1_555
H8 O7 1_555 1_555
H10 O8 1_555 1_555
Mn1B O2 1_555 1_555
Mn1_2 O1B 1_555 1_555
Mn1B_2 O1 1_555 1_555
C1B H1B 1_555 1_555
C2B C1B 1_555 1_555
H2B C2B 1_555 1_555
N1B C2B 1_555 1_555
C3B N1B 1_555 1_555
C4B C3B 1_555 1_555
C5B C3B 1_555 1_555
C6B C5B 1_555 1_555
N2B Mn1B 1_555 1_555
O1B C4B 1_555 1_555
O1_2 Mn1B 1_555 1_555
O1B_2 Mn1 1_555 1_555
O2B Mn1 1_555 1_555
O3B C6B 1_555 1_555
O4B Mn1B 1_555 1_555
O5B Mn1B 1_555 1_555
O6B Mn1B 1_555 1_555
H3B O5B 1_555 1_555
H4B O5B 1_555 1_555
H5B O6B 1_555 1_555
H6B O6B 1_555 1_555
C5 N2 1_555 1_555
C6 O4 1_555 1_555
C1B N2B 1_555 1_555
C4B O2B 1_555 1_555
C5B N2B 1_555 1_555
C6B O4B 1_555 1_555

#END
