
#######################################################################
#
#                 Cambridge Crystallographic Data Centre
#                                CCDC 
#
#######################################################################
#
# If this CIF has been generated from an entry in the Cambridge 
# Structural Database, then it will include bibliographic, chemical, 
# crystal, experimental, refinement or atomic coordinate data resulting 
# from the CCDC's data processing and validation procedures.
#
#######################################################################

data_POYWIL
_symmetry_cell_setting           monoclinic
_symmetry_space_group_name_H-M   'P 21/c'
_symmetry_Int_Tables_number      14
_space_group_name_Hall           '-P 2ybc'
loop_
_symmetry_equiv_pos_site_id
_symmetry_equiv_pos_as_xyz
1 x,y,z
2 -x,1/2+y,1/2-z
3 -x,-y,-z
4 x,1/2-y,1/2+z
_cell_length_a                   8.6126(7)
_cell_length_b                   8.9163(8)
_cell_length_c                   20.0116(15)
_cell_angle_alpha                90
_cell_angle_beta                 96.148(2)
_cell_angle_gamma                90
_cell_volume                     1527.9
loop_
_atom_site_label
_atom_site_type_symbol
_atom_site_fract_x
_atom_site_fract_y
_atom_site_fract_z
Co1 Co -1.0000 -0.5000 0.5000
N1 N -0.8678(3) -0.6951(3) 0.47892(11)
N2 N -1.1726(2) -0.6353(3) 0.45060(11)
N3 N -1.3239(3) -0.6224(3) 0.42247(12)
N4 N -1.2204(3) -0.8315(3) 0.38050(12)
N5 N -2.0359(2) -0.8957(3) 0.09715(11)
C1 C -0.7179(3) -0.7239(4) 0.49934(17)
H1 H -0.6585 -0.6509 0.5234
C2 C -0.6493(4) -0.8565(5) 0.4861(2)
H2 H -0.5449 -0.8734 0.5011
C3 C -0.7364(5) -0.9664(5) 0.4499(3)
H3 H -0.6913 -1.0578 0.4407
C4 C -0.8898(4) -0.9377(5) 0.4280(2)
H4 H -0.9503 -1.0090 0.4032
C5 C -0.9527(3) -0.8025(4) 0.44331(14)
C6 C -1.1168(3) -0.7595(4) 0.42414(14)
C7 C -1.3467(3) -0.7403(4) 0.38093(13)
C8 C -1.4939(3) -0.7648(4) 0.33864(13)
C9 C -1.6153(3) -0.6624(4) 0.33873(16)
H5 H -1.6040 -0.5797 0.3672
C10 C -1.7533(3) -0.6815(4) 0.29699(16)
H6 H -1.8325 -0.6108 0.2976
C11 C -1.7754(3) -0.8043(4) 0.25431(14)
C12 C -1.6536(3) -0.9080(4) 0.25464(15)
H7 H -1.6659 -0.9913 0.2266
C13 C -1.5147(3) -0.8894(4) 0.29579(14)
H8 H -1.4352 -0.9597 0.2950
C14 C -1.9202(3) -0.8193(4) 0.20684(14)
C15 C -2.0664(3) -0.7726(4) 0.22291(15)
H9 H -2.0785 -0.7333 0.2651
C16 C -2.1938(3) -0.7861(4) 0.17420(15)
H10 H -2.2918 -0.7533 0.1833
C17 C -2.1749(3) -0.8476(4) 0.11295(14)
H11 H -2.2615 -0.8563 0.0812
C18 C -1.9129(3) -0.8791(4) 0.14359(14)
H12 H -1.8159 -0.9100 0.1324
N1B N -1.1322(3) -0.3049(3) 0.52108(11)
N2B N -0.8274(2) -0.3647(3) 0.54940(11)
N3B N -0.6761(3) -0.3776(3) 0.57753(12)
N4B N -0.7796(3) -0.1685(3) 0.61950(12)
N5B N 0.0359(2) -0.1043(3) 0.90285(11)
C1B C -1.2821(3) -0.2761(4) 0.50066(17)
H1B H -1.3415 -0.3491 0.4766
C2B C -1.3507(4) -0.1435(5) 0.5139(2)
H2B H -1.4551 -0.1266 0.4989
C3B C -1.2636(5) -0.0336(5) 0.5501(3)
H3B H -1.3087 0.0578 0.5593
C4B C -1.1102(4) -0.0623(5) 0.5720(2)
H4B H -1.0497 0.0090 0.5968
C5B C -1.0473(3) -0.1975(4) 0.55669(14)
C6B C -0.8832(3) -0.2405(4) 0.57586(14)
C7B C -0.6533(3) -0.2597(4) 0.61907(13)
C8B C -0.5061(3) -0.2352(4) 0.66136(13)
C9B C -0.3847(3) -0.3376(4) 0.66127(16)
H5B H -0.3960 -0.4203 0.6328
C10B C -0.2467(3) -0.3185(4) 0.70301(16)
H6B H -0.1675 -0.3892 0.7024
C11B C -0.2246(3) -0.1957(4) 0.74569(14)
C12B C -0.3464(3) -0.0920(4) 0.74536(15)
H7B H -0.3341 -0.0087 0.7734
C13B C -0.4853(3) -0.1106(4) 0.70421(14)
H8B H -0.5648 -0.0403 0.7050
C14B C -0.0798(3) -0.1807(4) 0.79316(14)
C15B C 0.0664(3) -0.2274(4) 0.77709(15)
H9B H 0.0785 -0.2667 0.7349
C16B C 0.1938(3) -0.2139(4) 0.82580(15)
H10B H 0.2918 -0.2467 0.8167
C17B C 0.1749(3) -0.1524(4) 0.88705(14)
H11B H 0.2615 -0.1437 0.9188
C18B C -0.0871(3) -0.1209(4) 0.85641(14)
H12B H -0.1841 -0.0900 0.8676
Co1A Co -2.0000 -1.0000 0.0000
Co1A_2 Co 0.0000 0.0000 1.0000
N5A N -0.9641(2) -0.3957(3) 0.40285(11)
N5C N -1.0359(2) -0.6043(3) 0.59715(11)
loop_
_geom_bond_atom_site_label_1
_geom_bond_atom_site_label_2
_geom_bond_site_symmetry_1
_geom_bond_site_symmetry_2
Co1 N1 1_555 1_555
N1 C1 1_555 1_555
N2 Co1 1_555 1_555
N3 N2 1_555 1_555
N4 C6 1_555 1_555
N5 C17 1_555 1_555
C1 H1 1_555 1_555
C2 C1 1_555 1_555
H2 C2 1_555 1_555
C3 C2 1_555 1_555
H3 C3 1_555 1_555
C4 C3 1_555 1_555
H4 C4 1_555 1_555
C5 N1 1_555 1_555
C6 N2 1_555 1_555
C7 N3 1_555 1_555
C8 C7 1_555 1_555
C9 C8 1_555 1_555
H5 C9 1_555 1_555
C10 C9 1_555 1_555
H6 C10 1_555 1_555
C11 C10 1_555 1_555
C12 C11 1_555 1_555
H7 C12 1_555 1_555
C13 C8 1_555 1_555
H8 C13 1_555 1_555
C14 C11 1_555 1_555
C15 C14 1_555 1_555
H9 C15 1_555 1_555
C16 C15 1_555 1_555
H10 C16 1_555 1_555
C17 C16 1_555 1_555
H11 C17 1_555 1_555
C18 N5 1_555 1_555
H12 C18 1_555 1_555
N1B Co1 1_555 1_555
N2B Co1 1_555 1_555
N3B N2B 1_555 1_555
N4B C6B 1_555 1_555
N5B C17B 1_555 1_555
C1B N1B 1_555 1_555
H1B C1B 1_555 1_555
C2B C1B 1_555 1_555
H2B C2B 1_555 1_555
C3B C2B 1_555 1_555
H3B C3B 1_555 1_555
C4B C3B 1_555 1_555
H4B C4B 1_555 1_555
C5B N1B 1_555 1_555
C6B N2B 1_555 1_555
C7B N3B 1_555 1_555
C8B C7B 1_555 1_555
C9B C8B 1_555 1_555
H5B C9B 1_555 1_555
C10B C9B 1_555 1_555
H6B C10B 1_555 1_555
C11B C10B 1_555 1_555
C12B C11B 1_555 1_555
H7B C12B 1_555 1_555
C13B C8B 1_555 1_555
H8B C13B 1_555 1_555
C14B C11B 1_555 1_555
C15B C14B 1_555 1_555
H9B C15B 1_555 1_555
C16B C15B 1_555 1_555
H10B C16B 1_555 1_555
C17B C16B 1_555 1_555
H11B C17B 1_555 1_555
C18B N5B 1_555 1_555
H12B C18B 1_555 1_555
Co1A N5 1_555 1_555
Co1A_2 N5B 1_555 1_555
N5A Co1 1_555 1_555
N5C Co1 1_555 1_555
N4 C7 1_555 1_555
C4 C5 1_555 1_555
C5 C6 1_555 1_555
C12 C13 1_555 1_555
C14 C18 1_555 1_555
N4B C7B 1_555 1_555
C4B C5B 1_555 1_555
C5B C6B 1_555 1_555
C12B C13B 1_555 1_555
C14B C18B 1_555 1_555

#END
