
#######################################################################
#
#                 Cambridge Crystallographic Data Centre
#                                CCDC 
#
#######################################################################
#
# If this CIF has been generated from an entry in the Cambridge 
# Structural Database, then it will include bibliographic, chemical, 
# crystal, experimental, refinement or atomic coordinate data resulting 
# from the CCDC's data processing and validation procedures.
#
#######################################################################

data_POYYAF
_symmetry_cell_setting           monoclinic
_symmetry_space_group_name_H-M   'P 21/c'
_symmetry_Int_Tables_number      14
_space_group_name_Hall           '-P 2ybc'
loop_
_symmetry_equiv_pos_site_id
_symmetry_equiv_pos_as_xyz
1 x,y,z
2 -x,1/2+y,1/2-z
3 -x,-y,-z
4 x,1/2-y,1/2+z
_cell_length_a                   13.3925(15)
_cell_length_b                   11.7576(12)
_cell_length_c                   14.4447(15)
_cell_angle_alpha                90
_cell_angle_beta                 116.399(4)
_cell_angle_gamma                90
_cell_volume                     2037.33
loop_
_atom_site_label
_atom_site_type_symbol
_atom_site_fract_x
_atom_site_fract_y
_atom_site_fract_z
Cu1 Cu 0.46333(3) -0.04327(3) 0.88490(3)
S1 S 0.28315(6) -0.03208(6) 0.66715(6)
O1 O 0.60433(16) -0.01667(16) 1.00174(15)
O2 O 0.31339(18) -0.07372(18) 0.77302(17)
O3 O 0.3656(2) -0.06320(19) 0.6345(2)
O4 O 0.16984(19) -0.0618(2) 0.59912(18)
N1 N 0.47745(19) 0.10446(19) 0.82289(17)
C1 C 0.5881(2) -0.3740(2) 0.9992(2)
H1 H 0.6588 -0.4062 1.0304
C2 C 0.2873(2) 0.1180(3) 0.6821(2)
C3 C 0.3825(2) 0.1704(2) 0.7559(2)
C4 C 0.5753(2) 0.1447(2) 0.8411(2)
H2 H 0.5762 0.2063 0.8011
C5 C 0.6806(2) 0.1045(2) 0.9155(2)
C6 C 0.6924(2) 0.0278(2) 0.9952(2)
C7 C 0.8005(3) 0.0013(3) 1.0694(3)
H3 H 0.8101 -0.0470 1.1238
C8 C 0.8928(3) 0.0451(3) 1.0636(3)
H4 H 0.9638 0.0254 1.1132
C9 C 0.8802(3) 0.1188(4) 0.9837(3)
H5 H 0.9427 0.1472 0.9793
C10 C 0.7776(3) 0.1489(3) 0.9129(3)
H6 H 0.7702 0.2000 0.8612
C11 C 0.3849(3) 0.2877(3) 0.7668(3)
H7 H 0.4488 0.3233 0.8152
C12 C 0.2922(3) 0.3519(3) 0.7057(3)
H8 H 0.2935 0.4303 0.7143
C13 C 0.1976(3) 0.3001(3) 0.6318(3)
H9 H 0.1358 0.3436 0.5903
C14 C 0.1953(3) 0.1838(3) 0.6199(3)
H10 H 0.1319 0.1489 0.5700
N2 N 0.47554(19) -0.21049(19) 0.92336(19)
C15 C 0.5752(3) -0.2623(2) 0.9692(2)
H11 H 0.6386 -0.2202 0.9812
C16 C 0.4951(3) -0.4393(2) 0.9830(2)
C17 C 0.3914(3) -0.3862(3) 0.9347(2)
H12 H 0.3268 -0.4265 0.9218
C18 C 0.3852(3) -0.2735(2) 0.9059(2)
H13 H 0.3153 -0.2396 0.8729
C1B C 0.4119(2) -0.6260(2) 1.0008(2)
H1B H 0.3412 -0.5938 0.9696
N2B N 0.52446(19) -0.78951(19) 1.07664(19)
C15B C 0.4248(3) -0.7377(2) 1.0308(2)
H11B H 0.3614 -0.7798 1.0188
C16B C 0.5049(3) -0.5607(2) 1.0170(2)
C17B C 0.6086(3) -0.6138(3) 1.0653(2)
H12B H 0.6732 -0.5735 1.0782
C18B C 0.6148(3) -0.7265(2) 1.0941(2)
H13B H 0.6847 -0.7604 1.1271
Cu1B Cu 0.53667(3) -0.95673(3) 1.11510(3)
S1B S 0.71685(6) -0.96792(6) 1.33285(6)
O1B O 0.39567(16) -0.98333(16) 0.99826(15)
O2B O 0.68661(18) -0.92628(18) 1.22698(17)
O3B O 0.6344(2) -0.93680(19) 1.3655(2)
O4B O 0.83016(19) -0.9382(2) 1.40088(18)
N1B N 0.52255(19) -1.10446(19) 1.17711(17)
C2B C 0.7127(2) -1.1180(3) 1.3179(2)
C3B C 0.6175(2) -1.1704(2) 1.2441(2)
C4B C 0.4247(2) -1.1447(2) 1.1589(2)
H2B H 0.4238 -1.2063 1.1989
C5B C 0.3194(2) -1.1045(2) 1.0845(2)
C6B C 0.3076(2) -1.0278(2) 1.0048(2)
C7B C 0.1995(3) -1.0013(3) 0.9306(3)
H3B H 0.1899 -0.9530 0.8762
C8B C 0.1072(3) -1.0451(3) 0.9364(3)
H4B H 0.0362 -1.0254 0.8868
C9B C 0.1198(3) -1.1188(4) 1.0163(3)
H5B H 0.0573 -1.1472 1.0207
C10B C 0.2224(3) -1.1489(3) 1.0871(3)
H6B H 0.2298 -1.2000 1.1388
C11B C 0.6151(3) -1.2877(3) 1.2332(3)
H7B H 0.5512 -1.3233 1.1848
C12B C 0.7078(3) -1.3519(3) 1.2943(3)
H8B H 0.7065 -1.4303 1.2857
C13B C 0.8024(3) -1.3001(3) 1.3682(3)
H9B H 0.8642 -1.3436 1.4097
C14B C 0.8047(3) -1.1838(3) 1.3801(3)
H10B H 0.8681 -1.1489 1.4300
Cu1_2 Cu 0.46333(3) -1.04327(3) 0.88490(3)
Cu1B_2 Cu 0.53667(3) 0.04327(3) 1.11510(3)
O1_2 O 0.60433(16) -1.01667(16) 1.00174(15)
O1B_2 O 0.39567(16) 0.01667(16) 0.99826(15)
N3 N 0.9936(4) 0.6082(5) 0.1596(3)
H14 H 1.0462 0.6015 0.1412
O5 O 0.8545(3) 0.5172(5) 0.1745(4)
C19 C 0.9780(6) 0.7148(6) 0.1972(6)
H15 H 0.9113 0.7125 0.2064
H16 H 0.9714 0.7733 0.1485
H17 H 1.0407 0.7307 0.2623
C20 C 0.9302(5) 0.5183(7) 0.1515(4)
H18 H 0.9457 0.4513 0.1263
loop_
_geom_bond_atom_site_label_1
_geom_bond_atom_site_label_2
_geom_bond_site_symmetry_1
_geom_bond_site_symmetry_2
Cu1 O1 1_555 1_555
S1 O2 1_555 1_555
O1 C6 1_555 1_555
O2 Cu1 1_555 1_555
O3 S1 1_555 1_555
O4 S1 1_555 1_555
N1 Cu1 1_555 1_555
C1 H1 1_555 1_555
C2 S1 1_555 1_555
C3 N1 1_555 1_555
C4 N1 1_555 1_555
H2 C4 1_555 1_555
C5 C4 1_555 1_555
C6 C5 1_555 1_555
C7 C6 1_555 1_555
H3 C7 1_555 1_555
C8 C7 1_555 1_555
H4 C8 1_555 1_555
C9 C8 1_555 1_555
H5 C9 1_555 1_555
C10 C5 1_555 1_555
H6 C10 1_555 1_555
C11 C3 1_555 1_555
H7 C11 1_555 1_555
C12 C11 1_555 1_555
H8 C12 1_555 1_555
C13 C12 1_555 1_555
H9 C13 1_555 1_555
C14 C2 1_555 1_555
H10 C14 1_555 1_555
N2 Cu1 1_555 1_555
C15 C1 1_555 1_555
H11 C15 1_555 1_555
C16 C1 1_555 1_555
C17 C16 1_555 1_555
H12 C17 1_555 1_555
C18 N2 1_555 1_555
H13 C18 1_555 1_555
N3 H14 1_555 1_555
O5 C20 1_555 1_555
C19 N3 1_555 1_555
H15 C19 1_555 1_555
H16 C19 1_555 1_555
H17 C19 1_555 1_555
C20 N3 1_555 1_555
H18 C20 1_555 1_555
C1B H1B 1_555 1_555
N2B C15B 1_555 1_555
C15B C1B 1_555 1_555
H11B C15B 1_555 1_555
C16B C16 1_555 1_555
C17B C16B 1_555 1_555
H12B C17B 1_555 1_555
C18B N2B 1_555 1_555
H13B C18B 1_555 1_555
Cu1B N2B 1_555 1_555
S1B O2B 1_555 1_555
O1B Cu1B 1_555 1_555
O2B Cu1B 1_555 1_555
O3B S1B 1_555 1_555
O4B S1B 1_555 1_555
N1B Cu1B 1_555 1_555
C2B S1B 1_555 1_555
C3B N1B 1_555 1_555
C4B N1B 1_555 1_555
H2B C4B 1_555 1_555
C5B C4B 1_555 1_555
C6B O1B 1_555 1_555
C7B C6B 1_555 1_555
H3B C7B 1_555 1_555
C8B C7B 1_555 1_555
H4B C8B 1_555 1_555
C9B C8B 1_555 1_555
H5B C9B 1_555 1_555
C10B C5B 1_555 1_555
H6B C10B 1_555 1_555
C11B C3B 1_555 1_555
H7B C11B 1_555 1_555
C12B C11B 1_555 1_555
H8B C12B 1_555 1_555
C13B C12B 1_555 1_555
H9B C13B 1_555 1_555
C14B C2B 1_555 1_555
H10B C14B 1_555 1_555
Cu1_2 O1B 1_555 1_555
Cu1B_2 O1 1_555 1_555
O1_2 Cu1B 1_555 1_555
O1B_2 Cu1 1_555 1_555
C2 C3 1_555 1_555
C9 C10 1_555 1_555
C13 C14 1_555 1_555
N2 C15 1_555 1_555
C17 C18 1_555 1_555
C1B C16B 1_555 1_555
C17B C18B 1_555 1_555
C2B C3B 1_555 1_555
C5B C6B 1_555 1_555
C9B C10B 1_555 1_555
C13B C14B 1_555 1_555
Cu1_2 O1_2 1_555 1_555
Cu1B_2 O1B_2 1_555 1_555

#END
