
#######################################################################
#
#                 Cambridge Crystallographic Data Centre
#                                CCDC 
#
#######################################################################
#
# If this CIF has been generated from an entry in the Cambridge 
# Structural Database, then it will include bibliographic, chemical, 
# crystal, experimental, refinement or atomic coordinate data resulting 
# from the CCDC's data processing and validation procedures.
#
#######################################################################

data_POZNAU
_symmetry_cell_setting           orthorhombic
_symmetry_space_group_name_H-M   'P 21 21 21'
_symmetry_Int_Tables_number      19
_space_group_name_Hall           'P 2ac 2ab'
loop_
_symmetry_equiv_pos_site_id
_symmetry_equiv_pos_as_xyz
1 x,y,z
2 1/2-x,-y,1/2+z
3 1/2+x,1/2-y,-z
4 -x,1/2+y,1/2-z
_cell_length_a                   6.63750(10)
_cell_length_b                   8.52910(10)
_cell_length_c                   17.5942(3)
_cell_angle_alpha                90
_cell_angle_beta                 90
_cell_angle_gamma                90
_cell_volume                     996.041
loop_
_atom_site_label
_atom_site_type_symbol
_atom_site_fract_x
_atom_site_fract_y
_atom_site_fract_z
Ag1 Ag -0.01805(2) 0.079673(18) 0.167740(9)
N1 N 0.3016(3) 0.1268(2) 0.13091(10)
C1 C 0.3727(3) 0.2526(3) 0.09933(11)
C2 C 0.2716(3) 0.3748(3) 0.05737(13)
H1 H 0.1301 0.3719 0.0493
C3 C 0.3851(3) 0.4932(3) 0.02993(13)
H2 H 0.3218 0.5722 0.0003
C4 C 0.5993(3) 0.5046(3) 0.04387(13)
H3 H 0.6699 0.5932 0.0248
C5 C 0.7036(3) 0.3947(3) 0.08282(12)
H4 H 0.8437 0.4057 0.0924
C6 C 0.5924(3) 0.2602(3) 0.10912(11)
N2 N 0.6571(3) 0.1356(2) 0.14356(10)
C7 C 0.4776(3) 0.0384(2) 0.15949(11)
C8 C 0.4594(3) 0.0126(3) 0.24511(12)
H5 H 0.5785 -0.0436 0.2636
H6 H 0.3384 -0.0493 0.2559
H7 H 0.4496 0.1143 0.2708
C9 C 0.4935(3) -0.1157(2) 0.11564(12)
H8 H 0.4964 -0.0939 0.0610
H9 H 0.3769 -0.1819 0.1275
H10 H 0.6174 -0.1703 0.1304
Ag1_2 Ag 0.98195(2) 0.079673(18) 0.167740(9)
N2_2 N -0.3429(3) 0.1356(2) 0.14356(10)
N3 N 0.0054(2) -0.3034(2) 0.16358(9)
O1 O -0.0050(2) -0.27303(19) 0.09442(8)
O2 O -0.0214(3) -0.19740(18) 0.21222(9)
O3 O 0.0400(2) -0.44034(17) 0.18630(9)
loop_
_geom_bond_atom_site_label_1
_geom_bond_atom_site_label_2
_geom_bond_site_symmetry_1
_geom_bond_site_symmetry_2
Ag1 N1 1_555 1_555
N1 C1 1_555 1_555
C1 C2 1_555 1_555
C2 H1 1_555 1_555
C3 C2 1_555 1_555
H2 C3 1_555 1_555
C4 C3 1_555 1_555
H3 C4 1_555 1_555
C5 C4 1_555 1_555
H4 C5 1_555 1_555
C6 C1 1_555 1_555
N2 C6 1_555 1_555
C7 N1 1_555 1_555
C8 C7 1_555 1_555
H5 C8 1_555 1_555
H6 C8 1_555 1_555
H7 C8 1_555 1_555
C9 C7 1_555 1_555
H8 C9 1_555 1_555
H9 C9 1_555 1_555
H10 C9 1_555 1_555
N3 O1 1_555 1_555
O2 N3 1_555 1_555
O3 N3 1_555 1_555
Ag1_2 N2 1_555 1_555
N2_2 Ag1 1_555 1_555
C5 C6 1_555 1_555
N2 C7 1_555 1_555

#END
