
#######################################################################
#
#                 Cambridge Crystallographic Data Centre
#                                CCDC 
#
#######################################################################
#
# If this CIF has been generated from an entry in the Cambridge 
# Structural Database, then it will include bibliographic, chemical, 
# crystal, experimental, refinement or atomic coordinate data resulting 
# from the CCDC's data processing and validation procedures.
#
#######################################################################

data_POZTUV
_symmetry_cell_setting           monoclinic
_symmetry_space_group_name_H-M   'P 21/n'
_symmetry_Int_Tables_number      14
_space_group_name_Hall           '-P 2yn'
loop_
_symmetry_equiv_pos_site_id
_symmetry_equiv_pos_as_xyz
1 x,y,z
2 1/2-x,1/2+y,1/2-z
3 -x,-y,-z
4 1/2+x,1/2-y,1/2+z
_cell_length_a                   12.5007(2)
_cell_length_b                   12.7914(3)
_cell_length_c                   18.5855(5)
_cell_angle_alpha                90
_cell_angle_beta                 98.5482(9)
_cell_angle_gamma                90
_cell_volume                     2938.83
loop_
_atom_site_label
_atom_site_type_symbol
_atom_site_fract_x
_atom_site_fract_y
_atom_site_fract_z
Mn1 Mn -0.71798(3) 0.93241(3) 0.50338(2)
O1 O -0.61745(15) 0.90629(16) 0.60790(11)
O2 O -0.78174(17) 0.77644(17) 0.52020(12)
O3 O -0.63269(17) 1.08058(16) 0.50722(12)
O4 O -0.84246(16) 1.00637(17) 0.55446(12)
O5 O -0.58753(15) 0.86257(16) 0.44912(11)
O6 O -0.83113(16) 0.94709(15) 0.39904(10)
C1 C -0.6449(2) 0.8587(2) 0.66180(15)
H1 H -0.8472 0.7601 0.5091
H2 H -0.7798 0.7795 0.5655
H3 H -0.5783 1.0942 0.5381
H4 H -0.6451 1.1278 0.4757
H5 H -0.8949 0.9680 0.5605
H6 H -0.8565 1.0703 0.5575
H7 H -0.6256 0.8517 0.4086
H8 H -0.5734 0.8071 0.4728
O7 O -0.73120(16) 0.80865(18) 0.66196(12)
C2 C -0.56764(19) 0.8636(2) 0.73164(14)
C3 C -0.5933(2) 0.8138(2) 0.79310(15)
C4 C -0.4698(2) 0.91737(19) 0.73593(15)
H9 H -0.6602 0.7778 0.7906
C5 C -0.52288(19) 0.8157(2) 0.85812(15)
C6 C -0.3978(2) 0.91825(19) 0.80033(15)
H10 H -0.4525 0.9536 0.6945
C7 C -0.5541(2) 0.7604(2) 0.92413(17)
C8 C -0.4246(2) 0.8676(2) 0.86161(15)
C9 C -0.2908(2) 0.9750(2) 0.80460(17)
O8 O -0.49345(18) 0.7687(2) 0.98330(12)
O9 O -0.64055(18) 0.71040(19) 0.91582(13)
H11 H -0.3756 0.8686 0.9059
N1 N -0.20204(17) 0.90332(17) 0.78987(13)
H12 H -0.2980 1.0327 0.7687
H13 H -0.2717 1.0059 0.8537
C10 C -0.2067(2) 0.8579(2) 0.72470(16)
C11 C -0.1169(2) 0.8869(2) 0.84197(18)
H14 H -0.2666 0.8715 0.6881
C12 C -0.1261(2) 0.7918(2) 0.70990(17)
C13 C -0.0333(2) 0.8219(2) 0.82909(18)
H15 H -0.1141 0.9201 0.8879
H16 H -0.1312 0.7594 0.6635
C14 C -0.0370(2) 0.7720(2) 0.76268(17)
H17 H 0.0269 0.8115 0.8660
C15 C 0.0516(2) 0.6990(2) 0.74885(17)
C16 C 0.0645(2) 0.6676(2) 0.67909(18)
C17 C 0.1231(2) 0.6596(2) 0.80634(18)
H18 H 0.0163 0.6926 0.6384
C18 C 0.1471(2) 0.6002(2) 0.66880(18)
C19 C 0.2045(2) 0.5925(2) 0.79353(17)
H19 H 0.1161 0.6789 0.8548
N2 N 0.21576(17) 0.56463(17) 0.72592(14)
H20 H 0.1553 0.5789 0.6210
H21 H 0.2532 0.5657 0.8334
C20 C 0.3067(2) 0.4925(2) 0.71519(17)
H22 H 0.2889 0.4563 0.6678
H23 H 0.3152 0.4388 0.7540
C21 C 0.4123(2) 0.55138(19) 0.71690(15)
C22 C 0.4320(2) 0.6034(2) 0.65435(14)
C23 C 0.4899(2) 0.55117(19) 0.77826(14)
H24 H 0.3787 0.6031 0.6122
C24 C 0.5291(2) 0.6559(2) 0.65310(14)
C25 C 0.58861(19) 0.60301(19) 0.77828(14)
H25 H 0.4762 0.5155 0.8208
C26 C 0.5532(2) 0.7116(2) 0.58566(16)
C27 C 0.60569(19) 0.65500(19) 0.71528(14)
C28 C 0.6805(2) 0.6023(2) 0.84195(14)
O10 O 0.63264(18) 0.77299(19) 0.59352(12)
O11 O 0.4948(2) 0.69096(17) 0.52640(11)
H26 H 0.6720 0.6911 0.7148
O12 O 0.76480(15) 0.64923(18) 0.83245(11)
O6C O 0.66887(16) 0.55291(15) 0.89904(10)
Mn1C Mn 0.78202(3) 0.56759(3) 1.00338(2)
O13 O -1.01349(17) 0.88990(17) 0.58140(12)
H27 H -1.0290 0.8457 0.5481
H28 H -1.0724 0.9222 0.5719
loop_
_geom_bond_atom_site_label_1
_geom_bond_atom_site_label_2
_geom_bond_site_symmetry_1
_geom_bond_site_symmetry_2
Mn1 O1 1_555 1_555
O1 C1 1_555 1_555
O2 Mn1 1_555 1_555
O3 Mn1 1_555 1_555
O4 Mn1 1_555 1_555
O5 Mn1 1_555 1_555
O6 Mn1 1_555 1_555
C1 O7 1_555 1_555
H1 O2 1_555 1_555
H2 O2 1_555 1_555
H3 O3 1_555 1_555
H4 O3 1_555 1_555
H5 O4 1_555 1_555
H6 O4 1_555 1_555
H7 O5 1_555 1_555
H8 O5 1_555 1_555
C2 C1 1_555 1_555
C3 C2 1_555 1_555
C4 C2 1_555 1_555
H9 C3 1_555 1_555
C5 C3 1_555 1_555
C6 C4 1_555 1_555
H10 C4 1_555 1_555
C7 C5 1_555 1_555
C8 C5 1_555 1_555
C9 C6 1_555 1_555
O8 C7 1_555 1_555
O9 C7 1_555 1_555
H11 C8 1_555 1_555
N1 C9 1_555 1_555
H12 C9 1_555 1_555
H13 C9 1_555 1_555
C10 N1 1_555 1_555
C11 N1 1_555 1_555
H14 C10 1_555 1_555
C12 C10 1_555 1_555
C13 C11 1_555 1_555
H15 C11 1_555 1_555
H16 C12 1_555 1_555
C14 C12 1_555 1_555
H17 C13 1_555 1_555
C15 C14 1_555 1_555
C16 C15 1_555 1_555
C17 C15 1_555 1_555
H18 C16 1_555 1_555
C18 C16 1_555 1_555
C19 C17 1_555 1_555
H19 C17 1_555 1_555
N2 C18 1_555 1_555
H20 C18 1_555 1_555
H21 C19 1_555 1_555
C20 N2 1_555 1_555
H22 C20 1_555 1_555
H23 C20 1_555 1_555
C21 C20 1_555 1_555
C22 C21 1_555 1_555
C23 C21 1_555 1_555
H24 C22 1_555 1_555
C24 C22 1_555 1_555
C25 C23 1_555 1_555
H25 C23 1_555 1_555
C26 C24 1_555 1_555
C27 C24 1_555 1_555
C28 C25 1_555 1_555
O10 C26 1_555 1_555
O11 C26 1_555 1_555
H26 C27 1_555 1_555
O12 C28 1_555 1_555
O13 H27 1_555 1_555
H28 O13 1_555 1_555
O6C C28 1_555 1_555
Mn1C O6C 1_555 1_555
C6 C8 1_555 1_555
C13 C14 1_555 1_555
C19 N2 1_555 1_555
C25 C27 1_555 1_555

#END
