
#######################################################################
#
#                 Cambridge Crystallographic Data Centre
#                                CCDC 
#
#######################################################################
#
# If this CIF has been generated from an entry in the Cambridge 
# Structural Database, then it will include bibliographic, chemical, 
# crystal, experimental, refinement or atomic coordinate data resulting 
# from the CCDC's data processing and validation procedures.
#
#######################################################################

data_PUBHAW01
_symmetry_cell_setting           monoclinic
_symmetry_space_group_name_H-M   'C 2/c'
_symmetry_Int_Tables_number      15
_space_group_name_Hall           '-C 2yn'
loop_
_symmetry_equiv_pos_site_id
_symmetry_equiv_pos_as_xyz
1 x,y,z
2 -x,y,1/2-z
3 1/2+x,1/2+y,z
4 1/2-x,1/2+y,1/2-z
5 -x,-y,-z
6 x,-y,1/2+z
7 1/2-x,1/2-y,-z
8 1/2+x,1/2-y,1/2+z
_cell_length_a                   34.395(3)
_cell_length_b                   12.3491(10)
_cell_length_c                   8.6918(7)
_cell_angle_alpha                90
_cell_angle_beta                 92.037(4)
_cell_angle_gamma                90
_cell_volume                     3689.49
loop_
_atom_site_label
_atom_site_type_symbol
_atom_site_fract_x
_atom_site_fract_y
_atom_site_fract_z
C1 C 0.14937(7) 0.55510(19) 0.5019(3)
C2 C 0.11416(7) 0.6274(2) 0.4837(3)
H1 H 0.0918 0.5854 0.4479
H2 H 0.1083 0.6596 0.5820
C3 C 0.09696(7) 0.79824(19) 0.3657(3)
C4 C 0.06129(7) 0.8012(2) 0.4350(3)
H3 H 0.0533 0.7437 0.4953
C5 C 0.03753(7) 0.8919(2) 0.4130(3)
H4 H 0.0134 0.8943 0.4581
C6 C 0.04928(8) 0.9770(2) 0.3260(3)
H5 H 0.0329 1.0363 0.3109
C7 C 0.08561(7) 0.9758(2) 0.2596(3)
H6 H 0.0937 1.0346 0.2020
C8 C 0.10946(6) 0.88649(19) 0.2800(3)
C9 C 0.15732(7) 0.9594(2) 0.1154(3)
H7 H 0.1600 1.0284 0.1682
H8 H 0.1375 0.9671 0.0340
C10 C 0.19562(7) 0.92798(19) 0.0475(3)
C11 C 0.10051(8) 0.7469(2) -0.0848(3)
C12 C 0.05910(8) 0.7587(3) -0.0316(4)
H9 H 0.0539 0.6999 0.0388
H10 H 0.0572 0.8259 0.0254
C13 C 0.01624(10) 0.6600(3) -0.2002(5)
C14 C 0.03311(16) 0.5627(3) -0.1574(7)
H11 H 0.0557 0.5621 -0.0955
C15 C 0.0167(2) 0.4666(4) -0.2056(9)
H12 H 0.0284 0.4013 -0.1775
Eu1 Eu 0.177299(3) 0.682862(9) 0.184681(12)
O1 O 0.17616(5) 0.56655(13) 0.4084(2)
O2 O 0.14915(6) 0.48804(15) 0.6086(2)
O3 O 0.12233(5) 0.71070(14) 0.3743(2)
O4 O 0.14608(5) 0.87746(14) 0.2215(2)
O5 O 0.21047(5) 0.83747(13) 0.0837(2)
O6 O 0.21036(6) 0.99444(16) -0.0404(3)
O7 O 0.12521(6) 0.72094(19) 0.0171(3)
O8 O 0.10737(8) 0.7698(3) -0.2195(3)
O9 O 0.02971(6) 0.75846(17) -0.1513(3)
O10 O 0.20861(5) 0.63199(15) -0.0607(2)
O11 O 0.24149(5) 0.60461(18) 0.2364(2)
O12 O 0.20801(5) 0.77891(15) 0.4049(2)
H13 H 0.2332(7) 0.649(3) -0.079(5)
H14 H 0.2015(12) 0.754(3) 0.497(3)
H15 H 0.2032(11) 0.5627(18) -0.087(5)
H16 H 0.2571(10) 0.579(3) 0.162(3)
H17 H 0.2100(12) 0.8496(15) 0.400(4)
H18 H 0.2554(10) 0.622(3) 0.321(3)
C1E C 0.14937(7) 0.44490(19) 0.0019(3)
C2E C 0.11416(7) 0.3726(2) -0.0163(3)
H1E H 0.0918 0.4146 -0.0521
H2E H 0.1083 0.3404 0.0820
C3E C 0.09696(7) 0.20176(19) -0.1343(3)
C4E C 0.06129(7) 0.1988(2) -0.0650(3)
H3E H 0.0533 0.2563 -0.0047
C5E C 0.03753(7) 0.1081(2) -0.0870(3)
H4E H 0.0134 0.1057 -0.0419
C6E C 0.04928(8) 0.0230(2) -0.1740(3)
H5E H 0.0329 -0.0363 -0.1891
C7E C 0.08561(7) 0.0242(2) -0.2404(3)
H6E H 0.0937 -0.0346 -0.2980
C8E C 0.10946(6) 0.11351(19) -0.2200(3)
C9E C 0.15732(7) 0.0406(2) -0.3846(3)
H7E H 0.1600 -0.0284 -0.3318
H8E H 0.1375 0.0329 -0.4660
C10E C 0.19562(7) 0.07202(19) -0.4525(3)
C11A C -0.10051(8) 0.7469(2) -0.4152(3)
C12A C -0.05910(8) 0.7587(3) -0.4684(4)
H9A H -0.0539 0.6999 -0.5388
H10A H -0.0572 0.8259 -0.5254
C13A C -0.01624(10) 0.6600(3) -0.2998(5)
C14A C -0.03311(16) 0.5627(3) -0.3426(7)
H11A H -0.0557 0.5621 -0.4045
C15A C -0.0167(2) 0.4666(4) -0.2944(9)
H12A H -0.0284 0.4013 -0.3225
Eu1E Eu 0.177299(3) 0.317138(9) -0.315319(12)
Eu1E_2 Eu 0.177299(3) 0.317138(9) 0.684681(12)
Eu1A Eu -0.177299(3) 0.682862(9) -0.684681(12)
O1E O 0.17616(5) 0.43345(13) -0.0916(2)
O2E O 0.14915(6) 0.51196(15) 0.1086(2)
O2_2 O 0.14915(6) 0.48804(15) -0.3914(2)
O3E O 0.12233(5) 0.28930(14) -0.1257(2)
O4E O 0.14608(5) 0.12254(14) -0.2785(2)
O5E O 0.21047(5) 0.16253(13) -0.4163(2)
O6E O 0.21036(6) 0.00556(16) -0.5404(3)
O7A O -0.12521(6) 0.72094(19) -0.5171(3)
O7E O 0.12521(6) 0.27906(19) -0.4829(3)
O8A O -0.10737(8) 0.7698(3) -0.2805(3)
O9A O -0.02971(6) 0.75846(17) -0.3487(3)
O10E O 0.20861(5) 0.36801(15) -0.5607(2)
O11E O 0.24149(5) 0.39539(18) -0.2636(2)
O12E O 0.20801(5) 0.22109(15) -0.0951(2)
H13E H 0.2332(7) 0.351(3) -0.579(5)
H14E H 0.2015(12) 0.246(3) -0.003(3)
H15E H 0.2032(11) 0.4373(18) -0.587(5)
H16E H 0.2571(10) 0.421(3) -0.338(3)
H17E H 0.2100(12) 0.1504(15) -0.100(4)
H18E H 0.2554(10) 0.378(3) -0.179(3)
O13 O 0.18256(9) 0.7663(2) 0.6950(3)
H19 H 0.1958(9) 0.717(3) 0.755(4)
H20 H 0.1576(6) 0.776(4) 0.726(5)
loop_
_geom_bond_atom_site_label_1
_geom_bond_atom_site_label_2
_geom_bond_site_symmetry_1
_geom_bond_site_symmetry_2
C1 C2 1_555 1_555
C2 H1 1_555 1_555
H2 C2 1_555 1_555
C3 C4 1_555 1_555
C4 H3 1_555 1_555
C5 C4 1_555 1_555
H4 C5 1_555 1_555
C6 C5 1_555 1_555
H5 C6 1_555 1_555
C7 C6 1_555 1_555
H6 C7 1_555 1_555
C8 C3 1_555 1_555
C9 H7 1_555 1_555
H8 C9 1_555 1_555
C10 C9 1_555 1_555
C11 C12 1_555 1_555
C12 H9 1_555 1_555
H10 C12 1_555 1_555
C13 C14 1_555 1_555
C14 H11 1_555 1_555
C15 C14 1_555 1_555
H12 C15 1_555 1_555
Eu1 O1 1_555 1_555
O1 C1 1_555 1_555
O2 C1 1_555 1_555
O3 C2 1_555 1_555
O4 C8 1_555 1_555
O5 C10 1_555 1_555
O6 C10 1_555 1_555
O7 C11 1_555 1_555
O8 C11 1_555 1_555
O9 C12 1_555 1_555
O10 Eu1 1_555 1_555
O11 Eu1 1_555 1_555
O12 Eu1 1_555 1_555
H13 O10 1_555 1_555
H14 O12 1_555 1_555
H15 O10 1_555 1_555
H16 O11 1_555 1_555
H17 O12 1_555 1_555
H18 O11 1_555 1_555
O13 H19 1_555 1_555
H20 O13 1_555 1_555
C1E C2E 1_555 1_555
C2E H1E 1_555 1_555
H2E C2E 1_555 1_555
C3E C4E 1_555 1_555
C4E H3E 1_555 1_555
C5E C4E 1_555 1_555
H4E C5E 1_555 1_555
C6E C5E 1_555 1_555
H5E C6E 1_555 1_555
C7E C6E 1_555 1_555
H6E C7E 1_555 1_555
C8E C3E 1_555 1_555
C9E H7E 1_555 1_555
H8E C9E 1_555 1_555
C10E C9E 1_555 1_555
C11A C12A 1_555 1_555
C12A H9A 1_555 1_555
H10A C12A 1_555 1_555
C13A C13 1_555 1_555
C14A C13A 1_555 1_555
H11A C14A 1_555 1_555
C15A C15 1_555 1_555
H12A C15A 1_555 1_555
Eu1E O1E 1_555 1_555
Eu1E_2 O2 1_555 1_555
Eu1A O7A 1_555 1_555
O1E C1E 1_555 1_555
O2E Eu1 1_555 1_555
O2_2 Eu1E 1_555 1_555
O3E C2E 1_555 1_555
O4E C8E 1_555 1_555
O5E C10E 1_555 1_555
O6E C10E 1_555 1_555
O7A C11A 1_555 1_555
O7E Eu1E 1_555 1_555
O8A C11A 1_555 1_555
O9A C12A 1_555 1_555
O10E Eu1E 1_555 1_555
O11E Eu1E 1_555 1_555
O12E Eu1E 1_555 1_555
H13E O10E 1_555 1_555
H14E O12E 1_555 1_555
H15E O10E 1_555 1_555
H16E O11E 1_555 1_555
H17E O12E 1_555 1_555
H18E O11E 1_555 1_555
C3 O3 1_555 1_555
C7 C8 1_555 1_555
C9 O4 1_555 1_555
C13 O9 1_555 1_555
Eu1 O3 1_555 1_555
Eu1 O4 1_555 1_555
Eu1 O5 1_555 1_555
Eu1 O7 1_555 1_555
C1E O2E 1_555 1_555
C3E O3E 1_555 1_555
C7E C8E 1_555 1_555
C9E O4E 1_555 1_555
C13A O9A 1_555 1_555
C14A C15A 1_555 1_555
Eu1E O3E 1_555 1_555
Eu1E O4E 1_555 1_555
Eu1E O5E 1_555 1_555

#END
