
#######################################################################
#
#                 Cambridge Crystallographic Data Centre
#                                CCDC 
#
#######################################################################
#
# If this CIF has been generated from an entry in the Cambridge 
# Structural Database, then it will include bibliographic, chemical, 
# crystal, experimental, refinement or atomic coordinate data resulting 
# from the CCDC's data processing and validation procedures.
#
#######################################################################

data_PUCFEZ
_symmetry_cell_setting           monoclinic
_symmetry_space_group_name_H-M   'P 21/n'
_symmetry_Int_Tables_number      14
_space_group_name_Hall           '-P 2yn'
loop_
_symmetry_equiv_pos_site_id
_symmetry_equiv_pos_as_xyz
1 x,y,z
2 1/2-x,1/2+y,1/2-z
3 -x,-y,-z
4 1/2+x,1/2-y,1/2+z
_cell_length_a                   13.228(2)
_cell_length_b                   13.360(2)
_cell_length_c                   13.967(2)
_cell_angle_alpha                90
_cell_angle_beta                 108.437(3)
_cell_angle_gamma                90
_cell_volume                     2341.64
loop_
_atom_site_label
_atom_site_type_symbol
_atom_site_fract_x
_atom_site_fract_y
_atom_site_fract_z
Cu1 Cu 0.2514(1) 0.274 0.7708(1)
Cu2 Cu 0.0029(1) 0.1084(1) 1.0143(1)
Cl1 Cl 0.4065(2) 0.1894(2) 0.8330(2)
Cl2 Cl -0.0484(2) 0.2698(2) 0.9870(3)
Cl3 Cl 0.1404(1) 0.0113(2) 1.1217(1)
O1 O 0.1173(4) 0.3544(4) 0.7401(4)
O2 O 0.1759(5) 0.2153(5) 0.5835(5)
O3 O 0.2737(6) 0.3561(5) 0.9339(4)
N1 N -0.0315(5) 0.4379(5) 0.6544(5)
N2 N 0.1443(6) 0.1776(7) 0.4173(7)
N3 N 0.1698(5) 0.1629(4) 0.8101(4)
N4 N 0.3044(7) 0.3450(6) 1.1008(6)
C1 C 0.0519(6) 0.3816(5) 0.6591(6)
H1 H 0.0622 0.3615 0.5991
C2 C -0.0491(8) 0.4743(8) 0.7460(8)
H2 H -0.1237 0.4867 0.7331
H3 H -0.0099 0.5352 0.7671
H4 H -0.0252 0.4249 0.7982
C3 C -0.1067(8) 0.4692(9) 0.5584(8)
H5 H -0.1083 0.5409 0.5547
H6 H -0.1765 0.4446 0.5531
H7 H -0.0850 0.4426 0.5041
C4 C 0.1859(7) 0.2302(8) 0.5004(8)
H8 H 0.2276 0.2848 0.4954
C5 C 0.0768(11) 0.0937(9) 0.4185(12)
H9 H 0.0067 0.1172 0.4134
H10 H 0.0728 0.0506 0.3624
H11 H 0.1058 0.0573 0.4804
C6 C 0.1585(10) 0.2071(14) 0.3230(9)
H12 H 0.2113 0.2590 0.3352
H13 H 0.1816 0.1505 0.2931
H14 H 0.0922 0.2315 0.2781
C7 C 0.3237(8) 0.3290(7) 1.0170(7)
H15 H 0.3844 0.2916 1.0220
C8 C 0.2113(9) 0.4009(13) 1.0978(10)
H16 H 0.1865 0.4371 1.0353
H17 H 0.2283 0.4472 1.1532
H18 H 0.1566 0.3560 1.1029
C9 C 0.3736(16) 0.3076(13) 1.1954(9)
H19 H 0.4420 0.2918 1.1889
H20 H 0.3431 0.2483 1.2138
H21 H 0.3820 0.3576 1.2467
C10 C 0.1152(6) 0.1971(5) 0.8779(6)
H22 H 0.1062 0.2637 0.8928
N5 N 0.0770(5) 0.1130(4) 0.9187(5)
C11 C 0.1060(4) 0.0319(3) 0.8804(4)
C12 C 0.1611(5) 0.0582(3) 0.8143(4)
C13 C 0.1985(4) -0.0158(4) 0.7641(4)
N6 N 0.1808(4) -0.1161(3) 0.7800(3)
C14 C 0.1257(4) -0.1424(3) 0.8461(3)
H23 H 0.1138 -0.2095 0.8567
N7 N 0.0883(3) -0.0684(3) 0.8963(3)
N8 N 0.2394(6) 0.0259(6) 0.6870(5)
H24 H 0.2555 -0.0132 0.6450
H25 H 0.2475 0.0895 0.6835
Cu1A Cu 0.2486(1) -0.226 0.7292(1)
Cu2B Cu -0.0029(1) -0.1084(1) 0.9857(1)
Cl3B Cl -0.1404(1) -0.0113(2) 0.8783(1)
N6A N 0.3192(4) 0.3839(3) 0.7200(3)
N7B N -0.0883(3) 0.0684(3) 1.1037(3)
loop_
_geom_bond_atom_site_label_1
_geom_bond_atom_site_label_2
_geom_bond_site_symmetry_1
_geom_bond_site_symmetry_2
Cu1 Cl1 1_555 1_555
Cu2 Cl2 1_555 1_555
Cl3 Cu2 1_555 1_555
O1 Cu1 1_555 1_555
O2 Cu1 1_555 1_555
O3 Cu1 1_555 1_555
N1 C1 1_555 1_555
N2 C4 1_555 1_555
N3 Cu1 1_555 1_555
N4 C7 1_555 1_555
C1 O1 1_555 1_555
H1 C1 1_555 1_555
C2 N1 1_555 1_555
H2 C2 1_555 1_555
H3 C2 1_555 1_555
H4 C2 1_555 1_555
C3 N1 1_555 1_555
H5 C3 1_555 1_555
H6 C3 1_555 1_555
H7 C3 1_555 1_555
C4 O2 1_555 1_555
H8 C4 1_555 1_555
C5 N2 1_555 1_555
H9 C5 1_555 1_555
H10 C5 1_555 1_555
H11 C5 1_555 1_555
C6 N2 1_555 1_555
H12 C6 1_555 1_555
H13 C6 1_555 1_555
H14 C6 1_555 1_555
C7 O3 1_555 1_555
H15 C7 1_555 1_555
C8 N4 1_555 1_555
H16 C8 1_555 1_555
H17 C8 1_555 1_555
H18 C8 1_555 1_555
C9 N4 1_555 1_555
H19 C9 1_555 1_555
H20 C9 1_555 1_555
H21 C9 1_555 1_555
C10 N3 1_555 1_555
H22 C10 1_555 1_555
N5 Cu2 1_555 1_555
C11 N5 1_555 1_555
C12 N3 1_555 1_555
C13 C12 1_555 1_555
N6 C13 1_555 1_555
C14 N6 1_555 1_555
H23 C14 1_555 1_555
N7 C11 1_555 1_555
N8 C13 1_555 1_555
H24 N8 1_555 1_555
H25 N8 1_555 1_555
Cu1A N6 1_555 1_555
Cu2B Cl3 1_555 1_555
Cl3B Cu2 1_555 1_555
N6A Cu1 1_555 1_555
N7B Cu2 1_555 1_555
C10 N5 1_555 1_555
C11 C12 1_555 1_555
C14 N7 1_555 1_555
N7 Cu2B 1_555 1_555
Cu2B Cl3B 1_555 1_555

#END
