
#######################################################################
#
#                 Cambridge Crystallographic Data Centre
#                                CCDC 
#
#######################################################################
#
# If this CIF has been generated from an entry in the Cambridge 
# Structural Database, then it will include bibliographic, chemical, 
# crystal, experimental, refinement or atomic coordinate data resulting 
# from the CCDC's data processing and validation procedures.
#
#######################################################################

data_PUCHAW
_symmetry_cell_setting           triclinic
_symmetry_space_group_name_H-M   'P -1'
_symmetry_Int_Tables_number      2
_space_group_name_Hall           '-P 1'
loop_
_symmetry_equiv_pos_site_id
_symmetry_equiv_pos_as_xyz
1 x,y,z
2 -x,-y,-z
_cell_length_a                   6.885(2)
_cell_length_b                   7.572(2)
_cell_length_c                   3.752(1)
_cell_angle_alpha                98.84(1)
_cell_angle_beta                 92.27(2)
_cell_angle_gamma                106.55(2)
_cell_volume                     184.554
loop_
_atom_site_label
_atom_site_type_symbol
_atom_site_fract_x
_atom_site_fract_y
_atom_site_fract_z
Cu1 Cu -0.0536(1) 0.3460(1) 0.1975(2)
Cl1 Cl 0.1545(2) 0.3597(2) -0.2905(3)
N1 N -0.3174(6) 0.1445(5) 0.078(1)
C1 C -0.4945(7) 0.1676(7) 0.180(1)
C2 C -0.3276(7) -0.0251(7) -0.103(1)
H1 H -0.474(6) 0.289(7) 0.33(1)
H2 H -0.221(8) -0.040(7) -0.18(1)
C2A C -0.6724(7) 0.0251(7) 0.103(1)
N1A N -0.6826(6) -0.1445(5) -0.078(1)
C1A C -0.5055(7) -0.1676(7) -0.180(1)
H1A H -0.526(6) -0.289(7) -0.33(1)
H2A H -0.779(8) 0.040(7) 0.18(1)
Cl1_2 Cl 0.1545(2) 0.3597(2) 0.7095(3)
Cl1A Cl -0.1545(2) 0.6403(2) 0.2905(3)
Cu1_2 Cu -0.0536(1) 0.3460(1) 1.1975(2)
Cu1A Cu 0.0536(1) 0.6540(1) -0.1975(2)
Cu1_3 Cu -0.0536(1) 0.3460(1) -0.8025(2)
Cu1A_2 Cu 0.0536(1) 0.6540(1) 0.8025(2)
Cu1A_3 Cu -0.9464(1) -0.3460(1) -0.1975(2)
Cl1_3 Cl -0.8455(2) -0.6403(2) -0.2905(3)
Cl1A_2 Cl -1.1545(2) -0.3597(2) -0.7095(3)
Cl1A_3 Cl -1.1545(2) -0.3597(2) 0.2905(3)
loop_
_geom_bond_atom_site_label_1
_geom_bond_atom_site_label_2
_geom_bond_site_symmetry_1
_geom_bond_site_symmetry_2
Cu1 Cl1 1_555 1_555
Cl1 Cu1A 1_555 1_555
N1 Cu1 1_555 1_555
C1 N1 1_555 1_555
C2 N1 1_555 1_555
H1 C1 1_555 1_555
H2 C2 1_555 1_555
C2A C1 1_555 1_555
N1A C2A 1_555 1_555
C1A C2 1_555 1_555
H1A C1A 1_555 1_555
H2A C2A 1_555 1_555
Cl1_2 Cu1 1_555 1_555
Cl1A Cu1 1_555 1_555
Cu1_2 Cl1_2 1_555 1_555
Cu1A Cl1A 1_555 1_555
Cu1_3 Cl1 1_555 1_555
Cu1A_2 Cl1_2 1_555 1_555
Cu1A_3 N1A 1_555 1_555
Cl1_3 Cu1A_3 1_555 1_555
Cl1A_2 Cu1A_3 1_555 1_555
Cl1A_3 Cu1A_3 1_555 1_555
N1A C1A 1_555 1_555
Cl1A Cu1A_2 1_555 1_555

#END
