
#######################################################################
#
#                 Cambridge Crystallographic Data Centre
#                                CCDC 
#
#######################################################################
#
# If this CIF has been generated from an entry in the Cambridge 
# Structural Database, then it will include bibliographic, chemical, 
# crystal, experimental, refinement or atomic coordinate data resulting 
# from the CCDC's data processing and validation procedures.
#
#######################################################################

data_PUCTIR
_symmetry_cell_setting           monoclinic
_symmetry_space_group_name_H-M   'P 21/n'
_symmetry_Int_Tables_number      14
_space_group_name_Hall           '-P 2yn'
loop_
_symmetry_equiv_pos_site_id
_symmetry_equiv_pos_as_xyz
1 x,y,z
2 1/2-x,1/2+y,1/2-z
3 -x,-y,-z
4 1/2+x,1/2-y,1/2+z
_cell_length_a                   12.413(3)
_cell_length_b                   12.775(3)
_cell_length_c                   13.208(3)
_cell_angle_alpha                90
_cell_angle_beta                 100.10(3)
_cell_angle_gamma                90
_cell_volume                     2062.02
loop_
_atom_site_label
_atom_site_type_symbol
_atom_site_fract_x
_atom_site_fract_y
_atom_site_fract_z
Sm1 Sm 0.727440(19) 0.264770(19) 0.273020(17)
Sm2 Sm 0.20840(2) 0.314734(19) 0.230221(18)
O1 O -0.0976(3) 0.2876(3) 0.2221(3)
O2 O 0.0353(3) 0.2425(3) 0.1358(3)
O3 O -0.2480(3) 0.1839(3) 0.1069(3)
H1 H -0.293(6) 0.130(5) 0.078(5)
O4 O -0.1902(3) 0.2275(3) -0.0838(3)
H2 H -0.157(7) 0.294(3) -0.076(6)
O5 O -0.1331(3) -0.0378(3) -0.0233(3)
O6 O -0.2072(3) 0.0438(3) -0.1654(2)
O7 O 0.3001(3) 0.0726(3) -0.1487(2)
O8 O 0.3681(3) -0.0306(3) -0.0170(2)
O9 O 0.3627(3) 0.2451(3) -0.0548(3)
H3 H 0.289(3) 0.254(6) -0.049(7)
O10 O 0.2605(3) 0.1885(3) 0.1072(3)
H4 H 0.211(5) 0.135(5) 0.081(6)
O11 O 0.4045(3) 0.2915(3) 0.2328(2)
O12 O 0.5485(3) 0.2191(3) 0.1778(3)
O13 O 0.3055(3) 0.4121(3) -0.1920(3)
O14 O 0.3088(3) 0.5828(3) -0.1489(2)
O15 O 0.1368(3) 0.3676(3) -0.1110(3)
H5 H 0.067(2) 0.361(5) -0.095(4)
O16 O 0.2702(3) 0.4081(3) 0.0742(3)
H6 H 0.281(7) 0.353(4) 0.030(5)
O17 O 0.1050(3) 0.4624(3) 0.1574(3)
O18 O 0.0632(3) 0.6026(3) 0.0574(3)
O19 O 0.5896(3) 0.3527(3) 0.3504(3)
H7 H 0.516(2) 0.345(7) 0.321(6)
H8 H 0.601(7) 0.402(5) 0.403(4)
O20 O 0.1845(4) 0.1334(3) 0.2893(3)
H9 H 0.121(4) 0.120(6) 0.315(5)
H10 H 0.207(7) 0.084(5) 0.245(5)
O21 O 0.0813(3) 0.3467(3) 0.3460(3)
H11 H 0.0956 0.2967 0.3876
H12 H 0.088(7) 0.409(4) 0.385(5)
C1 C -0.0608(4) 0.2365(4) 0.1518(4)
C2 C -0.1402(4) 0.1578(4) 0.0911(4)
H13 H -0.1225 0.0887 0.1219
C3 C -0.1288(4) 0.1503(4) -0.0219(4)
H14 H -0.0516 0.1627 -0.0253
C4 C -0.1591(4) 0.0449(4) -0.0721(3)
C5 C 0.3519(4) 0.0568(4) -0.0597(3)
C6 C 0.3995(4) 0.1522(4) 0.0010(3)
H15 H 0.4793 0.1490 0.0081
C7 C 0.3706(4) 0.1548(4) 0.1095(3)
H16 H 0.3787 0.0840 0.1384
C8 C 0.4478(4) 0.2276(4) 0.1788(3)
C9 C 0.2693(4) 0.4903(4) -0.1499(4)
C10 C 0.1726(4) 0.4728(4) -0.0921(4)
H17 H 0.1128 0.5206 -0.1196
C11 C 0.2098(4) 0.4945(4) 0.0240(4)
H18 H 0.2591 0.5550 0.0304
C12 C 0.1173(4) 0.5199(4) 0.0839(4)
Sm1_2 Sm -0.272560(19) 0.264770(19) 0.273020(17)
Sm1C Sm 0.227440(19) 0.235230(19) -0.226980(17)
Sm1B Sm 0.272560(19) 0.735230(19) -0.273020(17)
Sm2C Sm -0.29160(2) 0.185266(19) -0.269779(18)
O1_2 O 0.9024(3) 0.2876(3) 0.2221(3)
O3_2 O 0.7520(3) 0.1839(3) 0.1069(3)
H1_2 H 0.707(6) 0.130(5) 0.078(5)
O4C O 0.3098(3) 0.2725(3) 0.4162(3)
H2C H 0.343(7) 0.206(3) 0.424(6)
O6C O 0.2928(3) 0.4562(3) 0.3346(2)
O7C O 0.8001(3) 0.4274(3) 0.3513(2)
O9C O 0.8627(3) 0.2549(3) 0.4452(3)
H3C H 0.789(3) 0.246(6) 0.451(7)
O13C O 0.8055(3) 0.0879(3) 0.3080(3)
O14B O 0.6912(3) 0.4172(3) 0.1489(2)
O15C O 0.6368(3) 0.1324(3) 0.3890(3)
H5C H 0.567(2) 0.139(5) 0.405(4)
O22 O 0.5113(9) 0.5931(9) -0.0186(9)
O23 O 0.4787(7) 0.5174(8) 0.1692(9)
O24? O 0.4454(8) 0.6460(10) 0.0403(7)
loop_
_geom_bond_atom_site_label_1
_geom_bond_atom_site_label_2
_geom_bond_site_symmetry_1
_geom_bond_site_symmetry_2
Sm1 O12 1_555 1_555
Sm2 O2 1_555 1_555
O1 C1 1_555 1_555
O2 C1 1_555 1_555
O3 H1 1_555 1_555
O4 H2 1_555 1_555
O5 C4 1_555 1_555
O6 C4 1_555 1_555
O7 C5 1_555 1_555
O8 C5 1_555 1_555
O9 H3 1_555 1_555
O10 Sm2 1_555 1_555
H4 O10 1_555 1_555
O11 Sm2 1_555 1_555
O12 C8 1_555 1_555
O13 C9 1_555 1_555
O14 C9 1_555 1_555
O15 H5 1_555 1_555
O16 Sm2 1_555 1_555
H6 O16 1_555 1_555
O17 Sm2 1_555 1_555
O18 C12 1_555 1_555
O19 Sm1 1_555 1_555
H7 O19 1_555 1_555
H8 O19 1_555 1_555
O20 Sm2 1_555 1_555
H9 O20 1_555 1_555
H10 O20 1_555 1_555
O21 Sm2 1_555 1_555
H11 O21 1_555 1_555
H12 O21 1_555 1_555
C1 C2 1_555 1_555
C2 O3 1_555 1_555
H13 C2 1_555 1_555
C3 O4 1_555 1_555
H14 C3 1_555 1_555
C4 C3 1_555 1_555
C5 C6 1_555 1_555
C6 O9 1_555 1_555
H15 C6 1_555 1_555
C7 O10 1_555 1_555
H16 C7 1_555 1_555
C8 O11 1_555 1_555
C9 C10 1_555 1_555
C10 O15 1_555 1_555
H17 C10 1_555 1_555
C11 O16 1_555 1_555
H18 C11 1_555 1_555
C12 O17 1_555 1_555
Sm1_2 O1 1_555 1_555
Sm1C O7 1_555 1_555
Sm1B O14 1_555 1_555
Sm2C O4 1_555 1_555
O1_2 Sm1 1_555 1_555
O3_2 Sm1 1_555 1_555
H1_2 O3_2 1_555 1_555
O4C Sm2 1_555 1_555
H2C O4C 1_555 1_555
O6C Sm2 1_555 1_555
O7C Sm1 1_555 1_555
O9C Sm1 1_555 1_555
H3C O9C 1_555 1_555
O13C Sm1 1_555 1_555
O14B Sm1 1_555 1_555
O15C Sm1 1_555 1_555
H5C O15C 1_555 1_555
O3 Sm1_2 1_555 1_555
O6 Sm2C 1_555 1_555
O9 Sm1C 1_555 1_555
O13 Sm1C 1_555 1_555
O15 Sm1C 1_555 1_555
C2 C3 1_555 1_555
C6 C7 1_555 1_555
C7 C8 1_555 1_555
C10 C11 1_555 1_555
C11 C12 1_555 1_555

#END
