
#######################################################################
#
#                 Cambridge Crystallographic Data Centre
#                                CCDC 
#
#######################################################################
#
# If this CIF has been generated from an entry in the Cambridge 
# Structural Database, then it will include bibliographic, chemical, 
# crystal, experimental, refinement or atomic coordinate data resulting 
# from the CCDC's data processing and validation procedures.
#
#######################################################################

data_PUCVEP
_symmetry_cell_setting           orthorhombic
_symmetry_space_group_name_H-M   'P b c a'
_symmetry_Int_Tables_number      61
_space_group_name_Hall           '-P 2ac 2ab'
loop_
_symmetry_equiv_pos_site_id
_symmetry_equiv_pos_as_xyz
1 x,y,z
2 1/2-x,-y,1/2+z
3 -x,1/2+y,1/2-z
4 1/2+x,1/2-y,-z
5 -x,-y,-z
6 1/2+x,y,1/2-z
7 x,1/2-y,1/2+z
8 1/2-x,1/2+y,z
_cell_length_a                   18.0118(8)
_cell_length_b                   11.2664(5)
_cell_length_c                   25.3385(11)
_cell_angle_alpha                90
_cell_angle_beta                 90
_cell_angle_gamma                90
_cell_volume                     5141.89
loop_
_atom_site_label
_atom_site_type_symbol
_atom_site_fract_x
_atom_site_fract_y
_atom_site_fract_z
Co1 Co 0.60441(3) 0.34220(5) 0.33679(2)
Co2 Co 0.37356(3) 0.51789(5) 0.45973(2)
V1 V 0.68569(5) 0.29409(6) 0.21455(3)
V2 V 0.81603(5) 0.50883(6) 0.17444(3)
C1 C 0.5580(2) 0.5823(4) 0.36521(17)
C2 C 0.5513(2) 0.7044(4) 0.36783(17)
H1 H 0.5179 0.7397 0.3923
C3 C 0.5935(2) 0.7753(4) 0.33438(17)
C4 C 0.6378(3) 0.7187(4) 0.29712(18)
H2 H 0.6657 0.7640 0.2725
C5 C 0.6410(2) 0.5955(4) 0.29615(17)
H3 H 0.6712 0.5578 0.2704
C6 C 0.5174(2) 0.4993(4) 0.40153(17)
C7 C 0.6620(3) 1.0896(4) 0.33582(17)
H4 H 0.7084 1.1295 0.3332
C8 C 0.6613(3) 0.9674(4) 0.33242(17)
H5 H 0.7061 0.9250 0.3262
C9 C 0.5945(3) 0.9068(4) 0.33815(17)
C10 C 0.5312(2) 0.9735(4) 0.34659(18)
H6 H 0.4845 0.9358 0.3515
C11 C 0.5370(3) 1.0957(4) 0.34781(18)
H7 H 0.4928 1.1403 0.3527
C12 C 0.3452(2) 0.2807(4) 0.50238(18)
C13 C 0.3435(2) 0.1591(4) 0.51061(18)
H8 H 0.3318 0.1277 0.5444
C14 C 0.3590(3) 0.0837(4) 0.46855(18)
C15 C 0.3732(3) 0.1355(4) 0.42017(19)
H9 H 0.3794 0.0871 0.3898
C16 C 0.3785(3) 0.2581(4) 0.41574(19)
H10 H 0.3910 0.2919 0.3826
C17 C 0.3179(3) 0.3694(4) 0.54222(18)
C18 C 0.4006(3) -0.2329(4) 0.50813(19)
H11 H 0.4291 -0.2741 0.5339
C19 C 0.3990(3) -0.1094(4) 0.5099(2)
H12 H 0.4252 -0.0675 0.5366
C20 C 0.3586(3) -0.0485(4) 0.47201(17)
C21 C 0.3221(3) -0.1131(4) 0.43500(19)
H13 H 0.2946 -0.0741 0.4081
C22 C 0.3250(3) -0.2353(4) 0.43640(19)
H14 H 0.2976 -0.2781 0.4106
N1 N 0.60306(19) 0.5282(3) 0.33013(13)
N2 N 0.6005(2) 1.1549(3) 0.34258(14)
N3 N 0.3665(2) 0.3296(3) 0.45679(14)
N4 N 0.3637(2) -0.2967(3) 0.47164(14)
O1 O 0.52623(17) 0.3896(2) 0.39443(11)
O2 O 0.47798(17) 0.5466(3) 0.43672(12)
O3 O 0.33102(17) 0.4808(3) 0.53111(11)
O4 O 0.28352(19) 0.3356(3) 0.58138(13)
O5 O 0.68179(16) 0.3200(2) 0.27861(11)
O6 O 0.60352(19) 0.3117(3) 0.19038(13)
O7 O 0.7502(2) 0.3952(3) 0.18570(13)
O8 O 0.71572(16) 0.1440(2) 0.20339(12)
O9 O 0.8957(2) 0.4712(3) 0.19780(14)
O10 O 0.32178(17) 0.5254(2) 0.39097(11)
O11 O 0.68897(19) 0.3509(3) 0.39298(12)
H15 H 0.714(2) 0.296(3) 0.4035(18)
H16 H 0.681(3) 0.382(4) 0.4217(12)
O12 O 0.51519(18) 0.3266(3) 0.28275(13)
H17 H 0.527(3) 0.331(4) 0.2520(10)
H18 H 0.480(2) 0.372(4) 0.2830(19)
Co1_2 Co 0.60441(3) 1.34220(5) 0.33679(2)
Co2_2 Co 0.37356(3) -0.48211(5) 0.45973(2)
V1G V 0.81431(5) 0.79409(6) 0.21455(3)
V2G V 0.68397(5) 0.00883(6) 0.17444(3)
V2E V 0.31603(5) 0.50883(6) 0.32556(3)
N2_2 N 0.6005(2) 0.1549(3) 0.34258(14)
N4_2 N 0.3637(2) 0.7033(3) 0.47164(14)
O8G O 0.78428(16) 0.6440(2) 0.20339(12)
O10E O 0.82178(17) 0.5254(2) 0.10903(11)
loop_
_geom_bond_atom_site_label_1
_geom_bond_atom_site_label_2
_geom_bond_site_symmetry_1
_geom_bond_site_symmetry_2
Co1 N1 1_555 1_555
Co2 N3 1_555 1_555
V1 O5 1_555 1_555
V2 O7 1_555 1_555
C1 C2 1_555 1_555
C2 H1 1_555 1_555
C3 C2 1_555 1_555
C4 C3 1_555 1_555
H2 C4 1_555 1_555
C5 C4 1_555 1_555
H3 C5 1_555 1_555
C6 C1 1_555 1_555
C7 H4 1_555 1_555
C8 C7 1_555 1_555
H5 C8 1_555 1_555
C9 C3 1_555 1_555
C10 C9 1_555 1_555
H6 C10 1_555 1_555
C11 C10 1_555 1_555
H7 C11 1_555 1_555
C12 C13 1_555 1_555
C13 H8 1_555 1_555
C14 C13 1_555 1_555
C15 C14 1_555 1_555
H9 C15 1_555 1_555
C16 C15 1_555 1_555
H10 C16 1_555 1_555
C17 C12 1_555 1_555
C18 H11 1_555 1_555
C19 C18 1_555 1_555
H12 C19 1_555 1_555
C20 C14 1_555 1_555
C21 C20 1_555 1_555
H13 C21 1_555 1_555
C22 C21 1_555 1_555
H14 C22 1_555 1_555
N1 C1 1_555 1_555
N2 C7 1_555 1_555
N3 C12 1_555 1_555
N4 C18 1_555 1_555
O1 Co1 1_555 1_555
O2 Co2 1_555 1_555
O3 Co2 1_555 1_555
O4 C17 1_555 1_555
O5 Co1 1_555 1_555
O6 V1 1_555 1_555
O7 V1 1_555 1_555
O8 V1 1_555 1_555
O9 V2 1_555 1_555
O10 Co2 1_555 1_555
O11 Co1 1_555 1_555
H15 O11 1_555 1_555
H16 O11 1_555 1_555
O12 Co1 1_555 1_555
H17 O12 1_555 1_555
H18 O12 1_555 1_555
Co1_2 N2 1_555 1_555
Co2_2 N4 1_555 1_555
V1G O8G 1_555 1_555
V2G O8 1_555 1_555
V2E O10 1_555 1_555
N2_2 Co1 1_555 1_555
N4_2 Co2 1_555 1_555
O8G V2 1_555 1_555
O10E V2 1_555 1_555
C5 N1 1_555 1_555
C6 O1 1_555 1_555
C6 O2 1_555 1_555
C8 C9 1_555 1_555
C11 N2 1_555 1_555
C16 N3 1_555 1_555
C17 O3 1_555 1_555
C19 C20 1_555 1_555
C22 N4 1_555 1_555

#END
