
#######################################################################
#
#                 Cambridge Crystallographic Data Centre
#                                CCDC 
#
#######################################################################
#
# If this CIF has been generated from an entry in the Cambridge 
# Structural Database, then it will include bibliographic, chemical, 
# crystal, experimental, refinement or atomic coordinate data resulting 
# from the CCDC's data processing and validation procedures.
#
#######################################################################

data_PUCZUJ
_symmetry_cell_setting           triclinic
_symmetry_space_group_name_H-M   'P -1'
_symmetry_Int_Tables_number      2
_space_group_name_Hall           '-P 1'
loop_
_symmetry_equiv_pos_site_id
_symmetry_equiv_pos_as_xyz
1 x,y,z
2 -x,-y,-z
_cell_length_a                   8.173(5)
_cell_length_b                   10.228(6)
_cell_length_c                   12.784(7)
_cell_angle_alpha                100.625(14)
_cell_angle_beta                 101.433(13)
_cell_angle_gamma                104.979(13)
_cell_volume                     980.033
loop_
_atom_site_label
_atom_site_type_symbol
_atom_site_fract_x
_atom_site_fract_y
_atom_site_fract_z
Gd1 Gd 0.50288(5) 0.60533(4) 0.66164(3)
Na1 Na 0.6949(4) 0.4431(3) 0.8758(3)
O1 O 0.4538(7) 0.5324(6) 0.8268(5)
N1 N 0.6295(8) 0.8630(7) 0.7792(5)
C1 C 0.7629(10) 0.9511(8) 0.7344(6)
H1 H 0.8736 0.9932 0.7933
H2 H 0.7209 1.0285 0.7156
O2 O 0.2791(7) 0.4496(6) 0.9280(4)
N2 N 0.3501(8) 0.7807(7) 0.5822(5)
C2 C 0.8024(12) 0.8735(9) 0.6327(7)
N3 N 0.2488(8) 0.6743(7) 0.7434(5)
C3 C 0.4715(10) 0.9146(8) 0.7803(7)
O3 O 0.4801(7) 1.2722(6) 0.9301(5)
H3 H 0.4154 1.3240 0.9273
C4 C 0.3412(10) 0.8157(8) 0.8212(6)
H4 H 0.4036 0.8028 0.8914
H5 H 0.2518 0.8602 0.8373
C5 C 0.1022(10) 0.6838(9) 0.6579(6)
H6 H 0.0611 0.7621 0.6880
H7 H 0.0030 0.5965 0.6386
O4 O 0.9170(10) 0.9429(7) 0.5972(6)
O5 O 0.7183(7) 0.7438(6) 0.5947(4)
C6 C 0.1579(10) 0.7062(9) 0.5557(6)
H8 H 0.0914 0.7618 0.5203
H9 H 0.1304 0.6147 0.5029
O6 O 0.7771(7) 0.6520(5) 0.7975(5)
C7 C 0.3900(10) 0.9186(8) 0.6614(6)
H10 H 0.2806 0.9441 0.6590
H11 H 0.4725 0.9912 0.6393
O7 O 0.9870(8) 0.7968(6) 0.9428(5)
C8 C 0.7264(10) 0.8568(8) 0.8887(6)
H12 H 0.6420 0.8195 0.9298
H13 H 0.7994 0.9522 0.9316
O8 O 0.2442(7) 0.4043(6) 0.5904(5)
C9 C 0.8423(10) 0.7642(9) 0.8751(6)
C10 C 0.1805(10) 0.5777(8) 0.8072(6)
H14 H 0.0785 0.5006 0.7582
H15 H 0.1396 0.6277 0.8658
O9 O 0.3975(7) 0.5628(6) 0.4527(5)
C11 C 0.3170(10) 0.5175(8) 0.8590(7)
O10 O 0.4020(8) 0.6584(6) 0.3115(5)
C12 C 0.5281(10) 1.0620(8) 0.8571(7)
H16 H 0.5609 1.0540 0.9340
H17 H 0.6350 1.1183 0.8420
C13 C 0.3943(11) 1.1429(9) 0.8496(7)
H18 H 0.3635 1.1587 0.7751
H19 H 0.2861 1.0913 0.8662
O12 O 0.9228(8) 0.3355(7) 0.8983(5)
C14 C 0.3913(10) 0.7998(8) 0.4766(6)
H20 H 0.5071 0.8709 0.4924
H21 H 0.3022 0.8341 0.4352
C15 C 0.3935(10) 0.6633(9) 0.4071(7)
Gd1A Gd 0.49712(5) 0.39467(4) 0.33836(3)
Na1A Na 0.3051(4) 0.5569(3) 1.1242(3)
Na1_2 Na 0.6949(4) 1.4431(3) 0.8758(3)
Na1A_2 Na 0.3051(4) 0.5569(3) 0.1242(3)
O2A O 0.7209(7) 0.5504(6) 1.0720(4)
O3_2 O 0.4801(7) 0.2722(6) 0.9301(5)
H3_2 H 0.4154 0.3240 0.9273
O9A O 0.6025(7) 0.4372(6) 0.5473(5)
O10A O 0.5980(8) 0.3416(6) 0.6885(5)
O11 O 1.0491(9) 1.2252(6) 0.6901(5)
loop_
_geom_bond_atom_site_label_1
_geom_bond_atom_site_label_2
_geom_bond_site_symmetry_1
_geom_bond_site_symmetry_2
Gd1 O1 1_555 1_555
Na1 O1 1_555 1_555
O1 C11 1_555 1_555
N1 Gd1 1_555 1_555
C1 N1 1_555 1_555
H1 C1 1_555 1_555
H2 C1 1_555 1_555
O2 C11 1_555 1_555
N2 Gd1 1_555 1_555
C2 C1 1_555 1_555
N3 Gd1 1_555 1_555
C3 N1 1_555 1_555
O3 H3 1_555 1_555
C4 N3 1_555 1_555
H4 C4 1_555 1_555
H5 C4 1_555 1_555
C5 N3 1_555 1_555
H6 C5 1_555 1_555
H7 C5 1_555 1_555
O4 C2 1_555 1_555
O5 Gd1 1_555 1_555
C6 N2 1_555 1_555
H8 C6 1_555 1_555
H9 C6 1_555 1_555
O6 Gd1 1_555 1_555
C7 N2 1_555 1_555
H10 C7 1_555 1_555
H11 C7 1_555 1_555
O7 C9 1_555 1_555
C8 N1 1_555 1_555
H12 C8 1_555 1_555
H13 C8 1_555 1_555
O8 Gd1 1_555 1_555
C9 O6 1_555 1_555
C10 N3 1_555 1_555
H14 C10 1_555 1_555
H15 C10 1_555 1_555
O9 Gd1 1_555 1_555
C11 C10 1_555 1_555
O10 C15 1_555 1_555
C12 C3 1_555 1_555
H16 C12 1_555 1_555
H17 C12 1_555 1_555
C13 O3 1_555 1_555
H18 C13 1_555 1_555
H19 C13 1_555 1_555
O12 Na1 1_555 1_555
C14 N2 1_555 1_555
H20 C14 1_555 1_555
H21 C14 1_555 1_555
C15 O9 1_555 1_555
Gd1A O9 1_555 1_555
Na1A O2 1_555 1_555
Na1_2 O3 1_555 1_555
Na1A_2 O10 1_555 1_555
O2A Na1 1_555 1_555
O3_2 Na1 1_555 1_555
H3_2 O3_2 1_555 1_555
O9A Gd1 1_555 1_555
O10A Na1 1_555 1_555
Na1 O6 1_555 1_555
C2 O5 1_555 1_555
C3 C4 1_555 1_555
C3 C7 1_555 1_555
C5 C6 1_555 1_555
C8 C9 1_555 1_555
C12 C13 1_555 1_555
C14 C15 1_555 1_555
Gd1A O9A 1_555 1_555

#END
