
#######################################################################
#
#                 Cambridge Crystallographic Data Centre
#                                CCDC 
#
#######################################################################
#
# If this CIF has been generated from an entry in the Cambridge 
# Structural Database, then it will include bibliographic, chemical, 
# crystal, experimental, refinement or atomic coordinate data resulting 
# from the CCDC's data processing and validation procedures.
#
#######################################################################

data_PUDBOG
_symmetry_cell_setting           monoclinic
_symmetry_space_group_name_H-M   'P 21/n'
_symmetry_Int_Tables_number      14
_space_group_name_Hall           '-P 2yn'
loop_
_symmetry_equiv_pos_site_id
_symmetry_equiv_pos_as_xyz
1 x,y,z
2 1/2-x,1/2+y,1/2-z
3 -x,-y,-z
4 1/2+x,1/2-y,1/2+z
_cell_length_a                   5.4595(7)
_cell_length_b                   14.8087(19)
_cell_length_c                   9.6136(12)
_cell_angle_alpha                90
_cell_angle_beta                 90.072(2)
_cell_angle_gamma                90
_cell_volume                     777.241
loop_
_atom_site_label
_atom_site_type_symbol
_atom_site_fract_x
_atom_site_fract_y
_atom_site_fract_z
Cu1 Cu -0.25434(7) 0.49689(3) 0.48986(4)
I1 I -0.48181(4) 0.435320(15) 0.71534(2)
S1 S 0.00794(15) 0.37734(6) 0.43597(8)
N1 N -0.0753(6) 0.41069(19) 0.1588(3)
H1 H -0.1864 0.4381 0.1713
N2 N 0.2395(5) 0.32780(18) 0.1967(3)
C1 C 0.0573(6) 0.3732(2) 0.2612(3)
C2 C 0.0203(7) 0.3902(2) 0.0309(4)
H2 H -0.0722 0.4121 -0.0622
C3 C 0.2185(7) 0.3382(2) 0.0548(3)
H3 H 0.3285 0.3134 -0.0029
C4 C 0.4307(6) 0.2775(2) 0.2690(4)
H4 H 0.5123 0.3179 0.3369
H5 H 0.3580 0.2287 0.3221
H6 H 0.5405 0.2583 0.2110
Cu1B Cu -0.74566(7) 0.50311(3) 0.51014(4)
Cu1B_2 Cu 0.25434(7) 0.50311(3) 0.51014(4)
I1B I -0.51819(4) 0.564680(15) 0.28466(2)
S1B S -0.00794(15) 0.62266(6) 0.56403(8)
loop_
_geom_bond_atom_site_label_1
_geom_bond_atom_site_label_2
_geom_bond_site_symmetry_1
_geom_bond_site_symmetry_2
Cu1 I1 1_555 1_555
I1 Cu1B 1_555 1_555
S1 Cu1 1_555 1_555
N1 H1 1_555 1_555
N2 C1 1_555 1_555
C1 S1 1_555 1_555
C2 N1 1_555 1_555
H2 C2 1_555 1_555
C3 N2 1_555 1_555
H3 C3 1_555 1_555
C4 N2 1_555 1_555
H4 C4 1_555 1_555
H5 C4 1_555 1_555
H6 C4 1_555 1_555
Cu1B I1B 1_555 1_555
Cu1B_2 S1 1_555 1_555
I1B Cu1 1_555 1_555
S1B Cu1 1_555 1_555
N1 C1 1_555 1_555
C2 C3 1_555 1_555
Cu1B_2 S1B 1_555 1_555

#END
