
#######################################################################
#
#                 Cambridge Crystallographic Data Centre
#                                CCDC 
#
#######################################################################
#
# If this CIF has been generated from an entry in the Cambridge 
# Structural Database, then it will include bibliographic, chemical, 
# crystal, experimental, refinement or atomic coordinate data resulting 
# from the CCDC's data processing and validation procedures.
#
#######################################################################

data_PUDJAA
_symmetry_cell_setting           monoclinic
_symmetry_space_group_name_H-M   'C 2/c'
_symmetry_Int_Tables_number      15
_space_group_name_Hall           '-C 2yn'
loop_
_symmetry_equiv_pos_site_id
_symmetry_equiv_pos_as_xyz
1 x,y,z
2 -x,y,1/2-z
3 1/2+x,1/2+y,z
4 1/2-x,1/2+y,1/2-z
5 -x,-y,-z
6 x,-y,1/2+z
7 1/2-x,1/2-y,-z
8 1/2+x,1/2-y,1/2+z
_cell_length_a                   23.605(4)
_cell_length_b                   10.848(2)
_cell_length_c                   18.503(3)
_cell_angle_alpha                90
_cell_angle_beta                 128.556(3)
_cell_angle_gamma                90
_cell_volume                     3705.12
loop_
_atom_site_label
_atom_site_type_symbol
_atom_site_fract_x
_atom_site_fract_y
_atom_site_fract_z
C1 C 0.53439(17) 0.4626(3) 0.1389(2)
H1 H 0.5394 0.5403 0.1198
C2 C 0.5444(2) 0.3553(4) 0.1061(3)
H2 H 0.5562 0.3616 0.0656
C3 C 0.53762(19) 0.2420(4) 0.1315(3)
H3 H 0.5448 0.1693 0.1095
C4 C 0.51954(18) 0.2351(3) 0.1912(2)
C5 C 0.50997(16) 0.3463(3) 0.2205(2)
C6 C 0.5095(2) 0.1217(3) 0.2221(3)
H4 H 0.5161 0.0454 0.2031
C7 C 0.60028(16) 0.6071(2) 0.35766(19)
C8 C 0.52453(16) 0.7208(3) 0.1999(2)
C9 C 0.82013(16) 0.5412(3) 0.6164(2)
H5 H 0.8529 0.5029 0.6783
H6 H 0.7798 0.4834 0.5745
C10 C 0.73748(17) 0.6420(3) 0.6383(2)
H7 H 0.7619 0.6021 0.6992
H8 H 0.6990 0.5854 0.5906
C11 C 0.75137(18) 0.8400(3) 0.7121(2)
H9 H 0.7960 0.8522 0.7188
H10 H 0.7268 0.9208 0.6966
C12 C 0.77224(16) 0.7961(3) 0.8041(2)
C13 C 0.73061(18) 0.7115(3) 0.8090(2)
H11 H 0.6899 0.6747 0.7539
C14 C 0.7476(2) 0.6800(3) 0.8932(2)
H12 H 0.7182 0.6231 0.8956
C15 C 0.8078(2) 0.7324(3) 0.9739(2)
H13 H 0.8199 0.7110 1.0319
C16 C 0.84998(18) 0.8155(3) 0.9699(2)
H14 H 0.8911 0.8517 1.0250
C17 C 0.83253(17) 0.8463(3) 0.8855(2)
H15 H 0.8623 0.9027 0.8834
C18 C 0.65306(16) 0.8136(3) 0.5473(2)
H16 H 0.6174 0.7517 0.5022
H17 H 0.6263 0.8782 0.5528
C19 C 0.86160(16) 0.5686(3) 0.57931(19)
H18 H 0.9033 0.6233 0.6226
H19 H 0.8801 0.4910 0.5727
Fe1 Fe 0.5000 0.59815(5) 0.2500
N1 N 0.79157(13) 0.6586(2) 0.62188(16)
H20 H 0.8302 0.7044 0.6706
N2 N 0.70397(14) 0.7547(2) 0.63635(17)
N3 N 0.81096(13) 0.6293(2) 0.48829(16)
H21 H 0.7797 0.5689 0.4462
N4 N 0.51788(13) 0.4595(2) 0.19637(16)
N5 N 0.66060(13) 0.6251(2) 0.42033(16)
N6 N 0.54391(16) 0.7948(3) 0.17455(19)
Ni1 Ni 0.7500 0.7500 0.5000
C1A C 0.46561(17) 0.4626(3) 0.3611(2)
H1A H 0.4606 0.5403 0.3802
C2A C 0.4556(2) 0.3553(4) 0.3939(3)
H2A H 0.4438 0.3616 0.4344
C3A C 0.46238(19) 0.2420(4) 0.3685(3)
H3A H 0.4552 0.1693 0.3905
C4A C 0.48046(18) 0.2351(3) 0.3088(2)
C5A C 0.49003(16) 0.3463(3) 0.2795(2)
C6A C 0.4905(2) 0.1217(3) 0.2779(3)
H4A H 0.4839 0.0454 0.2969
C7A C 0.39972(16) 0.6071(2) 0.14234(19)
C8A C 0.47547(16) 0.7208(3) 0.3001(2)
C9F C 0.67987(16) 0.9588(3) 0.3836(2)
H5F H 0.6471 0.9971 0.3217
H6F H 0.7202 1.0166 0.4255
C10F C 0.76252(17) 0.8580(3) 0.3617(2)
H7F H 0.7381 0.8979 0.3008
H8F H 0.8010 0.9146 0.4094
C11F C 0.74863(18) 0.6600(3) 0.2879(2)
H9F H 0.7040 0.6478 0.2812
H10F H 0.7732 0.5792 0.3034
C12F C 0.72776(16) 0.7039(3) 0.1959(2)
C13F C 0.76939(18) 0.7885(3) 0.1910(2)
H11F H 0.8101 0.8253 0.2461
C14F C 0.7524(2) 0.8200(3) 0.1068(2)
H12F H 0.7818 0.8769 0.1044
C15F C 0.6922(2) 0.7676(3) 0.0261(2)
H13F H 0.6801 0.7890 -0.0319
C16F C 0.65002(18) 0.6845(3) 0.0301(2)
H14F H 0.6089 0.6483 -0.0250
C17F C 0.66747(17) 0.6537(3) 0.1145(2)
H15F H 0.6377 0.5973 0.1166
C18F C 0.84694(16) 0.6864(3) 0.4527(2)
H16F H 0.8826 0.7483 0.4978
H17F H 0.8737 0.6218 0.4472
C19F C 0.63840(16) 0.9314(3) 0.42069(19)
H18F H 0.5967 0.8767 0.3774
H19F H 0.6199 1.0090 0.4273
N1F N 0.70843(13) 0.8414(2) 0.37812(16)
H20F H 0.6698 0.7956 0.3294
N2F N 0.79603(14) 0.7453(2) 0.36365(17)
N3F N 0.68904(13) 0.8707(2) 0.51171(16)
H21F H 0.7203 0.9311 0.5538
N4A N 0.48212(13) 0.4595(2) 0.30363(16)
N5A N 0.33940(13) 0.6251(2) 0.07967(16)
N5F N 0.83940(13) 0.8749(2) 0.57967(16)
N6A N 0.45609(16) 0.7948(3) 0.32545(19)
Ni1A Ni 0.2500 0.7500 0.0000
O1 O 0.5755(3) 0.9518(3) 0.0838(3)
H22 H 0.5668 0.9130 0.1164
H23 H 0.5401 1.0000 0.0471
loop_
_geom_bond_atom_site_label_1
_geom_bond_atom_site_label_2
_geom_bond_site_symmetry_1
_geom_bond_site_symmetry_2
C1 H1 1_555 1_555
C2 C1 1_555 1_555
H2 C2 1_555 1_555
C3 C2 1_555 1_555
H3 C3 1_555 1_555
C4 C3 1_555 1_555
C5 C4 1_555 1_555
C6 C4 1_555 1_555
H4 C6 1_555 1_555
C7 Fe1 1_555 1_555
C8 Fe1 1_555 1_555
C9 H5 1_555 1_555
H6 C9 1_555 1_555
C10 H7 1_555 1_555
H8 C10 1_555 1_555
C11 H9 1_555 1_555
H10 C11 1_555 1_555
C12 C11 1_555 1_555
C13 C12 1_555 1_555
H11 C13 1_555 1_555
C14 C13 1_555 1_555
H12 C14 1_555 1_555
C15 C14 1_555 1_555
H13 C15 1_555 1_555
C16 C15 1_555 1_555
H14 C16 1_555 1_555
C17 C12 1_555 1_555
H15 C17 1_555 1_555
C18 H16 1_555 1_555
H17 C18 1_555 1_555
C19 C9 1_555 1_555
H18 C19 1_555 1_555
H19 C19 1_555 1_555
Fe1 N4 1_555 1_555
N1 C9 1_555 1_555
H20 N1 1_555 1_555
N2 C10 1_555 1_555
N3 C19 1_555 1_555
H21 N3 1_555 1_555
N4 C1 1_555 1_555
N5 C7 1_555 1_555
N6 C8 1_555 1_555
Ni1 N1 1_555 1_555
O1 H22 1_555 1_555
H23 O1 1_555 1_555
C1A H1A 1_555 1_555
C2A C1A 1_555 1_555
H2A C2A 1_555 1_555
C3A C2A 1_555 1_555
H3A C3A 1_555 1_555
C4A C3A 1_555 1_555
C5A C5 1_555 1_555
C6A C6 1_555 1_555
H4A C6A 1_555 1_555
C7A Fe1 1_555 1_555
C8A Fe1 1_555 1_555
C9F H5F 1_555 1_555
H6F C9F 1_555 1_555
C10F H7F 1_555 1_555
H8F C10F 1_555 1_555
C11F H9F 1_555 1_555
H10F C11F 1_555 1_555
C12F C11F 1_555 1_555
C13F C12F 1_555 1_555
H11F C13F 1_555 1_555
C14F C13F 1_555 1_555
H12F C14F 1_555 1_555
C15F C14F 1_555 1_555
H13F C15F 1_555 1_555
C16F C15F 1_555 1_555
H14F C16F 1_555 1_555
C17F C12F 1_555 1_555
H15F C17F 1_555 1_555
C18F N3 1_555 1_555
H16F C18F 1_555 1_555
H17F C18F 1_555 1_555
C19F C9F 1_555 1_555
H18F C19F 1_555 1_555
H19F C19F 1_555 1_555
N1F Ni1 1_555 1_555
H20F N1F 1_555 1_555
N2F C10F 1_555 1_555
N3F C18 1_555 1_555
H21F N3F 1_555 1_555
N4A Fe1 1_555 1_555
N5A C7A 1_555 1_555
N5F Ni1 1_555 1_555
N6A C8A 1_555 1_555
Ni1A N5A 1_555 1_555
C5 N4 1_555 1_555
C10 N1 1_555 1_555
C11 N2 1_555 1_555
C16 C17 1_555 1_555
C18 N2 1_555 1_555
N3 Ni1 1_555 1_555
N5 Ni1 1_555 1_555
Ni1 N3F 1_555 1_555
C1A N4A 1_555 1_555
C4A C5A 1_555 1_555
C4A C6A 1_555 1_555
C5A N4A 1_555 1_555
C9F N1F 1_555 1_555
C10F N1F 1_555 1_555
C11F N2F 1_555 1_555
C16F C17F 1_555 1_555
C18F N2F 1_555 1_555
C19F N3F 1_555 1_555

#END
