
#######################################################################
#
#                 Cambridge Crystallographic Data Centre
#                                CCDC 
#
#######################################################################
#
# If this CIF has been generated from an entry in the Cambridge 
# Structural Database, then it will include bibliographic, chemical, 
# crystal, experimental, refinement or atomic coordinate data resulting 
# from the CCDC's data processing and validation procedures.
#
#######################################################################

data_PUDKOQ
_symmetry_cell_setting           monoclinic
_symmetry_space_group_name_H-M   'P 21/c'
_symmetry_Int_Tables_number      14
_space_group_name_Hall           '-P 2ybc'
loop_
_symmetry_equiv_pos_site_id
_symmetry_equiv_pos_as_xyz
1 x,y,z
2 -x,1/2+y,1/2-z
3 -x,-y,-z
4 x,1/2-y,1/2+z
_cell_length_a                   6.3900(13)
_cell_length_b                   18.350(4)
_cell_length_c                   11.150(2)
_cell_angle_alpha                90
_cell_angle_beta                 102.29(3)
_cell_angle_gamma                90
_cell_volume                     1277.45
loop_
_atom_site_label
_atom_site_type_symbol
_atom_site_fract_x
_atom_site_fract_y
_atom_site_fract_z
Cu1 Cu 0.0000 0.0000 0.5000
O1 O 0.2235(4) 0.05084(12) 0.4364(2)
O2 O 0.3779(4) 0.16115(13) 0.4449(2)
O3 O 0.3378(4) 0.05975(14) 0.9259(2)
O4 O 0.3254(4) 0.01662(13) 1.1107(2)
H1 H 0.4278 -0.0074 1.0995
O5 O -0.2178(5) 0.0846(2) 1.3320(3)
O6 O -0.4663(4) 0.16564(13) 1.2527(2)
N1 N 0.0376(4) 0.08085(14) 0.6182(2)
C1 C 0.0598(5) 0.10201(16) 1.0223(3)
C2 C -0.0185(5) 0.09948(17) 1.1297(3)
H2 H 0.0530 0.0720 1.1959
C3 C 0.2543(5) 0.05779(17) 1.0146(3)
C4 C -0.2027(5) 0.13771(17) 1.1389(3)
C5 C 0.0201(5) 0.14505(17) 0.8021(3)
C6 C 0.2665(5) 0.11348(18) 0.4819(3)
C7 C -0.0467(5) 0.14439(16) 0.9228(3)
C8 C -0.3022(5) 0.18211(19) 1.0426(3)
H3 H -0.4212 0.2096 1.0497
C9 C -0.2931(5) 0.12665(19) 1.2521(3)
C10 C -0.0400(5) 0.08796(17) 0.7199(3)
H4 H -0.1373 0.0536 0.7362
C11 C 0.1732(5) 0.13185(17) 0.5920(3)
C12 C -0.2239(5) 0.18546(19) 0.9356(3)
H5 H -0.2908 0.2155 0.8717
C13 C 0.1479(6) 0.19984(19) 0.7705(3)
H6 H 0.1825 0.2405 0.8207
C14 C 0.2237(6) 0.19343(19) 0.6629(3)
H7 H 0.3070 0.2301 0.6393
O1B O -0.2235(4) -0.05084(12) 0.5636(2)
O2B O -0.3779(4) -0.16115(13) 0.5551(2)
O3B O -0.3378(4) -0.05975(14) 0.0741(2)
O4B O -0.3254(4) -0.01662(13) -0.1107(2)
H1B H -0.4278 0.0074 -0.0995
O5B O 0.2178(5) -0.0846(2) -0.3320(3)
O6B O 0.4663(4) -0.16564(13) -0.2527(2)
N1B N -0.0376(4) -0.08085(14) 0.3818(2)
C1B C -0.0598(5) -0.10201(16) -0.0223(3)
C2B C 0.0185(5) -0.09948(17) -0.1297(3)
H2B H -0.0530 -0.0720 -0.1959
C3B C -0.2543(5) -0.05779(17) -0.0146(3)
C4B C 0.2027(5) -0.13771(17) -0.1389(3)
C5B C -0.0201(5) -0.14505(17) 0.1979(3)
C6B C -0.2665(5) -0.11348(18) 0.5181(3)
C7B C 0.0467(5) -0.14439(16) 0.0772(3)
C8B C 0.3022(5) -0.18211(19) -0.0426(3)
H3B H 0.4212 -0.2096 -0.0497
C9B C 0.2931(5) -0.12665(19) -0.2521(3)
C10B C 0.0400(5) -0.08796(17) 0.2801(3)
H4B H 0.1373 -0.0536 0.2638
C11B C -0.1732(5) -0.13185(17) 0.4080(3)
C12B C 0.2239(5) -0.18546(19) 0.0644(3)
H5B H 0.2908 -0.2155 0.1283
C13B C -0.1479(6) -0.19984(19) 0.2295(3)
H6B H -0.1825 -0.2405 0.1793
C14B C -0.2237(6) -0.19343(19) 0.3371(3)
H7B H -0.3070 -0.2301 0.3607
Cu1_2 Cu 0.0000 0.0000 -0.5000
Cu1_3 Cu 0.0000 0.0000 1.5000
O5_2 O -0.2178(5) 0.0846(2) 0.3320(3)
O5B_2 O 0.2178(5) -0.0846(2) 0.6680(3)
loop_
_geom_bond_atom_site_label_1
_geom_bond_atom_site_label_2
_geom_bond_site_symmetry_1
_geom_bond_site_symmetry_2
Cu1 O1 1_555 1_555
O1 C6 1_555 1_555
O2 C6 1_555 1_555
O3 C3 1_555 1_555
O4 H1 1_555 1_555
O5 C9 1_555 1_555
O6 C9 1_555 1_555
N1 Cu1 1_555 1_555
C1 C2 1_555 1_555
C2 H2 1_555 1_555
C3 O4 1_555 1_555
C4 C2 1_555 1_555
C5 C7 1_555 1_555
C6 C11 1_555 1_555
C7 C1 1_555 1_555
C8 C4 1_555 1_555
H3 C8 1_555 1_555
C9 C4 1_555 1_555
C10 N1 1_555 1_555
H4 C10 1_555 1_555
C11 N1 1_555 1_555
C12 C7 1_555 1_555
H5 C12 1_555 1_555
C13 C5 1_555 1_555
H6 C13 1_555 1_555
C14 C11 1_555 1_555
H7 C14 1_555 1_555
O1B Cu1 1_555 1_555
O2B C6B 1_555 1_555
O3B C3B 1_555 1_555
O4B H1B 1_555 1_555
O5B C9B 1_555 1_555
O6B C9B 1_555 1_555
N1B Cu1 1_555 1_555
C1B C2B 1_555 1_555
C2B H2B 1_555 1_555
C3B O4B 1_555 1_555
C4B C2B 1_555 1_555
C5B C7B 1_555 1_555
C6B O1B 1_555 1_555
C7B C1B 1_555 1_555
C8B C4B 1_555 1_555
H3B C8B 1_555 1_555
C9B C4B 1_555 1_555
C10B N1B 1_555 1_555
H4B C10B 1_555 1_555
C11B N1B 1_555 1_555
C12B C7B 1_555 1_555
H5B C12B 1_555 1_555
C13B C5B 1_555 1_555
H6B C13B 1_555 1_555
C14B C11B 1_555 1_555
H7B C14B 1_555 1_555
Cu1_2 O5B 1_555 1_555
Cu1_3 O5 1_555 1_555
O5_2 Cu1 1_555 1_555
O5B_2 Cu1 1_555 1_555
C1 C3 1_555 1_555
C5 C10 1_555 1_555
C8 C12 1_555 1_555
C13 C14 1_555 1_555
C1B C3B 1_555 1_555
C5B C10B 1_555 1_555
C6B C11B 1_555 1_555
C8B C12B 1_555 1_555
C13B C14B 1_555 1_555

#END
