
#######################################################################
#
#                 Cambridge Crystallographic Data Centre
#                                CCDC 
#
#######################################################################
#
# If this CIF has been generated from an entry in the Cambridge 
# Structural Database, then it will include bibliographic, chemical, 
# crystal, experimental, refinement or atomic coordinate data resulting 
# from the CCDC's data processing and validation procedures.
#
#######################################################################

data_PUFWIX
_symmetry_cell_setting           monoclinic
_symmetry_space_group_name_H-M   'P 21/c'
_symmetry_Int_Tables_number      14
_space_group_name_Hall           '-P 2ybc'
loop_
_symmetry_equiv_pos_site_id
_symmetry_equiv_pos_as_xyz
1 x,y,z
2 -x,1/2+y,1/2-z
3 -x,-y,-z
4 x,1/2-y,1/2+z
_cell_length_a                   8.0663(16)
_cell_length_b                   13.417(3)
_cell_length_c                   9.7358(19)
_cell_angle_alpha                90
_cell_angle_beta                 109.90(3)
_cell_angle_gamma                90
_cell_volume                     990.746
loop_
_atom_site_label
_atom_site_type_symbol
_atom_site_fract_x
_atom_site_fract_y
_atom_site_fract_z
Na1 Na 0.16477(7) 0.01271(4) 0.39826(6)
O1 O 0.19961(11) 0.20181(7) 0.39121(9)
O2 O -0.03876(14) 0.10910(7) 0.48915(13)
O3 O -0.17693(14) 0.25311(8) 0.49566(13)
H1 H -0.2454 0.2189 0.5252
O4 O 0.02774(14) 0.47842(9) 0.33101(13)
O5 O 0.31727(15) 0.46326(10) 0.42755(16)
H2 H 0.3204 0.5163 0.3827
O6 O 0.60941(12) 0.37079(7) 0.68721(11)
O7 O 0.39834(13) 0.43913(7) 0.75861(11)
H3 H 0.4778 0.4798 0.8028
O8 O 0.39053(12) 0.07324(7) 0.60685(11)
O9 O 0.63546(12) 0.13823(7) 0.58976(12)
C1 C 0.05765(15) 0.26035(9) 0.40594(13)
H4 H -0.0167 0.2819 0.3091
C2 C 0.14282(15) 0.34871(9) 0.50496(13)
H5 H 0.0684 0.3706 0.5593
C3 C 0.31740(15) 0.30122(8) 0.60199(12)
H6 H 0.2877 0.2598 0.6734
C4 C 0.36719(15) 0.23349(8) 0.49541(12)
H7 H 0.4337 0.2705 0.4470
C5 C -0.05776(16) 0.19811(10) 0.46899(14)
C6 C 0.15670(16) 0.43746(9) 0.41175(14)
C7 C 0.45783(16) 0.37456(9) 0.68641(13)
C8 C 0.47422(15) 0.14121(9) 0.56952(13)
Na1B Na -0.16477(7) -0.01271(4) 0.60174(6)
Na1A Na -0.16477(7) 0.51271(4) 0.10174(6)
Na1C Na 0.16477(7) 0.48729(4) 0.89826(6)
Na1B_2 Na 0.83523(7) -0.01271(4) 0.60174(6)
O2B O 0.03876(14) -0.10910(7) 0.51085(13)
O4A O -0.02774(14) -0.02158(9) 0.16899(13)
O7C O 0.39834(13) 0.06087(7) 0.25861(11)
H3C H 0.4778 0.0202 0.3028
O9B O 0.36454(12) -0.13823(7) 0.41024(12)
loop_
_geom_bond_atom_site_label_1
_geom_bond_atom_site_label_2
_geom_bond_site_symmetry_1
_geom_bond_site_symmetry_2
Na1 O1 1_555 1_555
O1 C1 1_555 1_555
O2 Na1 1_555 1_555
O3 H1 1_555 1_555
O4 C6 1_555 1_555
O5 H2 1_555 1_555
O6 C7 1_555 1_555
O7 H3 1_555 1_555
O8 Na1 1_555 1_555
O9 C8 1_555 1_555
C1 H4 1_555 1_555
C2 C1 1_555 1_555
H5 C2 1_555 1_555
C3 C2 1_555 1_555
H6 C3 1_555 1_555
C4 O1 1_555 1_555
H7 C4 1_555 1_555
C5 O2 1_555 1_555
C6 O5 1_555 1_555
C7 O7 1_555 1_555
C8 O8 1_555 1_555
Na1B O2 1_555 1_555
Na1A O4 1_555 1_555
Na1C O7 1_555 1_555
Na1B_2 O9 1_555 1_555
O2B Na1 1_555 1_555
O4A Na1 1_555 1_555
O7C Na1 1_555 1_555
H3C O7C 1_555 1_555
O9B Na1 1_555 1_555
O3 C5 1_555 1_555
C1 C5 1_555 1_555
C2 C6 1_555 1_555
C3 C4 1_555 1_555
C3 C7 1_555 1_555
C4 C8 1_555 1_555
Na1B O2B 1_555 1_555

#END
