
#######################################################################
#
#                 Cambridge Crystallographic Data Centre
#                                CCDC 
#
#######################################################################
#
# If this CIF has been generated from an entry in the Cambridge 
# Structural Database, then it will include bibliographic, chemical, 
# crystal, experimental, refinement or atomic coordinate data resulting 
# from the CCDC's data processing and validation procedures.
#
#######################################################################

data_PUFXAR
_symmetry_cell_setting           monoclinic
_symmetry_space_group_name_H-M   'P 21/n'
_symmetry_Int_Tables_number      14
_space_group_name_Hall           '-P 2yn'
loop_
_symmetry_equiv_pos_site_id
_symmetry_equiv_pos_as_xyz
1 x,y,z
2 1/2-x,1/2+y,1/2-z
3 -x,-y,-z
4 1/2+x,1/2-y,1/2+z
_cell_length_a                   11.7613(9)
_cell_length_b                   9.8823(10)
_cell_length_c                   18.0982(13)
_cell_angle_alpha                90
_cell_angle_beta                 104.153(6)
_cell_angle_gamma                90
_cell_volume                     2039.68
loop_
_atom_site_label
_atom_site_type_symbol
_atom_site_fract_x
_atom_site_fract_y
_atom_site_fract_z
C1 C 0.4934(5) 0.4595(5) 0.3376(3)
C2 C 0.5728(4) 0.4689(5) 0.4168(3)
C3 C 0.6317(5) 0.5915(5) 0.4411(3)
H1 H 0.6195 0.6690 0.4091
C4 C 0.7076(4) 0.5959(5) 0.5129(3)
C5 C 0.7256(4) 0.4855(5) 0.5618(2)
H2 H 0.7786 0.4914 0.6105
C6 C 0.6645(5) 0.3651(5) 0.5382(3)
C7 C 0.5892(4) 0.3574(5) 0.4655(2)
H3 H 0.5488 0.2754 0.4490
C8 C 0.6873(6) 0.2431(5) 0.5897(3)
C9 C 0.7639(5) 0.7948(5) 0.5988(3)
H4 H 0.7102 0.7785 0.6294
C10 C 0.8620(5) 0.7761(5) 0.5119(3)
C11 C 0.9048(5) 0.7321(5) 0.4460(3)
C12 C 0.8995(6) 0.5999(6) 0.4192(4)
H5 H 0.8685 0.5302 0.4447
C13 C 0.9398(7) 0.5705(6) 0.3552(5)
H6 H 0.9349 0.4811 0.3354
C14 C 0.9878(6) 0.6745(7) 0.3205(4)
H7 H 1.0129 0.6546 0.2756
C15 C 0.9586(5) 0.8298(6) 0.4087(3)
H8 H 0.9654 0.9197 0.4278
Cd1 Cd 0.35517(3) 0.43392(3) 0.193966(17)
N1 N 0.7745(4) 0.7172(4) 0.5387(2)
N2 N 0.8390(4) 0.8955(5) 0.6082(2)
N3 N 0.9023(5) 0.8844(5) 0.5531(3)
N4 N 1.0003(4) 0.8027(5) 0.3479(3)
O1 O 0.4340(3) 0.3518(4) 0.31896(18)
O2 O 0.4864(4) 0.5581(4) 0.2928(2)
O3 O 0.6466(7) 0.1305(5) 0.5643(2)
O4 O 0.7507(3) 0.2589(3) 0.65701(19)
O5 O 0.2025(4) 0.5369(4) 0.2320(2)
H9 H 0.216(9) 0.607(7) 0.259(5)
Cd1A Cd 1.14483(3) 0.93392(3) 0.306034(17)
Cd1C Cd 0.85517(3) 0.06608(3) 0.693966(17)
Cd1C_2 Cd 0.85517(3) 1.06608(3) 0.693966(17)
N2C N 0.3390(4) 0.6045(5) 0.1082(2)
N4A N 0.4997(4) 0.3027(5) 0.1521(3)
O4C O 0.2507(3) 0.2411(3) 0.15701(19)
O6 O 0.5958(9) 0.9484(8) 0.4410(5)
O7 O 0.0365(8) 0.3521(7) 0.2437(5)
O8 O 0.6892(15) 0.6147(19) 0.2313(10)
O9 O 0.8210(14) 0.4151(14) 0.1850(8)
loop_
_geom_bond_atom_site_label_1
_geom_bond_atom_site_label_2
_geom_bond_site_symmetry_1
_geom_bond_site_symmetry_2
C1 C2 1_555 1_555
C2 C3 1_555 1_555
C3 H1 1_555 1_555
C4 C3 1_555 1_555
C5 C4 1_555 1_555
H2 C5 1_555 1_555
C6 C5 1_555 1_555
C7 C2 1_555 1_555
H3 C7 1_555 1_555
C8 C6 1_555 1_555
C9 H4 1_555 1_555
C10 C11 1_555 1_555
C11 C12 1_555 1_555
C12 H5 1_555 1_555
C13 C12 1_555 1_555
H6 C13 1_555 1_555
C14 C13 1_555 1_555
H7 C14 1_555 1_555
C15 C11 1_555 1_555
H8 C15 1_555 1_555
Cd1 O1 1_555 1_555
N1 C4 1_555 1_555
N2 C9 1_555 1_555
N3 C10 1_555 1_555
N4 C14 1_555 1_555
O1 C1 1_555 1_555
O2 C1 1_555 1_555
O3 C8 1_555 1_555
O4 C8 1_555 1_555
O5 Cd1 1_555 1_555
H9 O5 1_555 1_555
Cd1A N4 1_555 1_555
Cd1C O4 1_555 1_555
Cd1C_2 N2 1_555 1_555
N2C Cd1 1_555 1_555
N4A Cd1 1_555 1_555
O4C Cd1 1_555 1_555
C6 C7 1_555 1_555
C9 N1 1_555 1_555
C10 N1 1_555 1_555
C15 N4 1_555 1_555
Cd1 O2 1_555 1_555
N2 N3 1_555 1_555

#END
