
#######################################################################
#
#                 Cambridge Crystallographic Data Centre
#                                CCDC 
#
#######################################################################
#
# If this CIF has been generated from an entry in the Cambridge 
# Structural Database, then it will include bibliographic, chemical, 
# crystal, experimental, refinement or atomic coordinate data resulting 
# from the CCDC's data processing and validation procedures.
#
#######################################################################

data_PUFYIZ
_symmetry_cell_setting           monoclinic
_symmetry_space_group_name_H-M   'P 21/c'
_symmetry_Int_Tables_number      14
_space_group_name_Hall           '-P 2ybc'
loop_
_symmetry_equiv_pos_site_id
_symmetry_equiv_pos_as_xyz
1 x,y,z
2 -x,1/2+y,1/2-z
3 -x,-y,-z
4 x,1/2-y,1/2+z
_cell_length_a                   16.9648(19)
_cell_length_b                   24.793(3)
_cell_length_c                   6.7770(8)
_cell_angle_alpha                90
_cell_angle_beta                 95.8490(10)
_cell_angle_gamma                90
_cell_volume                     2835.62
loop_
_atom_site_label
_atom_site_type_symbol
_atom_site_fract_x
_atom_site_fract_y
_atom_site_fract_z
Nd1 Nd 0.269306(14) 0.662399(10) 0.11749(4)
Ag1 Ag -0.22933(2) 0.728600(19) 0.49039(7)
Ag2 Ag 0.76495(3) 0.510435(19) -0.09689(7)
O1 O 0.38451(19) 0.60656(13) 0.1017(5)
O2 O 0.35364(18) 0.68568(12) 0.4305(5)
O3 O 0.1656(2) 0.60334(15) -0.0262(5)
C1 C 0.5223(3) 0.77468(17) 0.5011(7)
H1 H 0.4958 0.8074 0.5054
C2 C 0.3912(3) 0.72711(19) 0.4857(7)
C3 C 0.4801(3) 0.72666(17) 0.4924(6)
N1 N -0.1026(2) 0.72776(16) 0.4834(6)
N2 N 0.6441(2) 0.72777(16) 0.4996(6)
C4 C 0.5224(3) 0.67929(18) 0.4894(7)
H2 H 0.4963 0.6462 0.4835
C5 C -0.0612(3) 0.77404(19) 0.4767(7)
H3 H -0.0878 0.8067 0.4841
C6 C 0.0183(3) 0.77478(18) 0.4595(7)
H4 H 0.0448 0.8076 0.4563
C7 C 0.5069(3) 0.56100(17) 0.1414(7)
C8 C 0.4289(3) 0.57592(18) 0.2152(8)
O4 O 0.4127(2) 0.55701(14) 0.3746(5)
N3 N 0.6493(2) 0.52916(15) 0.0010(6)
C9 C 0.5972(3) 0.56051(19) -0.1083(8)
H5 H 0.6094 0.5719 -0.2323
C10 C 0.6300(3) 0.5135(2) 0.1793(8)
H6 H 0.6649 0.4912 0.2561
C11 C 0.6032(3) 0.6814(2) 0.4951(8)
H7 H 0.6312 0.6491 0.4959
C12 C 0.0594(3) 0.72707(18) 0.4469(6)
C13 C 0.0174(3) 0.67961(19) 0.4565(7)
H8 H 0.0430 0.6466 0.4493
C14 C 0.0414(3) 0.57066(17) -0.1642(7)
C15 C 0.0089(3) 0.57587(18) 0.0129(7)
H9 H 0.0389 0.5904 0.1228
C16 C 0.1266(3) 0.58696(18) -0.1849(8)
C17 C -0.0059(3) 0.54950(18) -0.3233(7)
H10 H 0.0130 0.5466 -0.4469
O5 O 0.1513(2) 0.58320(14) -0.3490(5)
C18 C 0.5615(3) 0.52881(19) 0.2536(8)
H11 H 0.5514 0.5176 0.3796
C19 C 0.5267(3) 0.57646(18) -0.0447(8)
H12 H 0.4919 0.5977 -0.1263
C20 C -0.0679(3) 0.55962(19) 0.0274(8)
H13 H -0.0895 0.5645 0.1469
C21 C -0.0811(3) 0.53274(19) -0.2966(8)
H14 H -0.1117 0.5176 -0.4043
C22 C 0.6027(3) 0.77385(19) 0.5035(7)
H15 H 0.6299 0.8064 0.5080
C23 C -0.0622(3) 0.6811(2) 0.4766(7)
H16 H -0.0893 0.6487 0.4859
O6 O 0.3610(2) 0.76974(13) 0.5428(5)
C24 C 0.1467(3) 0.72688(19) 0.4130(7)
O7 O 0.17260(19) 0.68473(13) 0.3448(5)
O8 O 0.1839(2) 0.76939(14) 0.4499(6)
O9 O 0.2587(2) 0.57863(14) 0.3352(5)
H17 H 0.2294(19) 0.578(2) 0.429(4)
H18 H 0.3050(10) 0.571(2) 0.387(6)
O10 O 0.2838(2) 0.64789(16) -0.2408(6)
H19 H 0.257(2) 0.6245(15) -0.310(7)
H20 H 0.251(2) 0.6703(17) -0.205(8)
N4 N -0.1129(2) 0.53684(16) -0.1258(7)
Nd1C Nd 0.269306(14) 0.837601(10) 0.61749(4)
Ag1_2 Ag 0.77067(2) 0.728600(19) 0.49039(7)
Ag2_2 Ag -0.23505(3) 0.510435(19) -0.09689(7)
N2_2 N -0.3559(2) 0.72777(16) 0.4996(6)
O6C O 0.3610(2) 0.73026(13) 0.0428(5)
O8C O 0.1839(2) 0.73061(14) -0.0501(6)
N4_2 N 0.8871(2) 0.53684(16) -0.1258(7)
N5 N 0.7673(3) 0.5865(2) 0.3990(10)
O11 O 0.7991(3) 0.5483(2) 0.3274(7)
O12 O 0.7419(3) 0.5845(2) 0.5614(7)
O13 O 0.7590(3) 0.6295(2) 0.3006(8)
O14 O 0.7704(3) 0.65730(16) 0.9046(8)
H21 H 0.769(5) 0.644(2) 1.019(4)
H22 H 0.763(5) 0.6313(17) 0.824(7)
loop_
_geom_bond_atom_site_label_1
_geom_bond_atom_site_label_2
_geom_bond_site_symmetry_1
_geom_bond_site_symmetry_2
Nd1 O1 1_555 1_555
Ag1 N1 1_555 1_555
Ag2 N3 1_555 1_555
O1 C8 1_555 1_555
O2 Nd1 1_555 1_555
O3 Nd1 1_555 1_555
C1 H1 1_555 1_555
C2 O2 1_555 1_555
C3 C1 1_555 1_555
N1 C5 1_555 1_555
N2 C11 1_555 1_555
C4 C3 1_555 1_555
H2 C4 1_555 1_555
C5 H3 1_555 1_555
C6 C5 1_555 1_555
H4 C6 1_555 1_555
C7 C8 1_555 1_555
C8 O4 1_555 1_555
N3 C9 1_555 1_555
C9 H5 1_555 1_555
C10 N3 1_555 1_555
H6 C10 1_555 1_555
C11 C4 1_555 1_555
H7 C11 1_555 1_555
C12 C6 1_555 1_555
C13 C12 1_555 1_555
H8 C13 1_555 1_555
C14 C15 1_555 1_555
C15 H9 1_555 1_555
C16 O3 1_555 1_555
C17 C14 1_555 1_555
H10 C17 1_555 1_555
O5 C16 1_555 1_555
C18 C7 1_555 1_555
H11 C18 1_555 1_555
C19 C7 1_555 1_555
H12 C19 1_555 1_555
C20 C15 1_555 1_555
H13 C20 1_555 1_555
C21 C17 1_555 1_555
H14 C21 1_555 1_555
C22 C1 1_555 1_555
H15 C22 1_555 1_555
C23 N1 1_555 1_555
H16 C23 1_555 1_555
O6 C2 1_555 1_555
C24 C12 1_555 1_555
O7 Nd1 1_555 1_555
O8 C24 1_555 1_555
O9 Nd1 1_555 1_555
H17 O9 1_555 1_555
H18 O9 1_555 1_555
O10 Nd1 1_555 1_555
H19 O10 1_555 1_555
H20 O10 1_555 1_555
N4 C20 1_555 1_555
N5 O11 1_555 1_555
O12 N5 1_555 1_555
O13 N5 1_555 1_555
O14 H21 1_555 1_555
H22 O14 1_555 1_555
Nd1C O6 1_555 1_555
Ag1_2 N2 1_555 1_555
Ag2_2 N4 1_555 1_555
N2_2 Ag1 1_555 1_555
O6C Nd1 1_555 1_555
O8C Nd1 1_555 1_555
N4_2 Ag2 1_555 1_555
C2 C3 1_555 1_555
N2 C22 1_555 1_555
C9 C19 1_555 1_555
C10 C18 1_555 1_555
C13 C23 1_555 1_555
C14 C16 1_555 1_555
C21 N4 1_555 1_555
C24 O7 1_555 1_555
O8 Nd1C 1_555 1_555

#END
