
#######################################################################
#
#                 Cambridge Crystallographic Data Centre
#                                CCDC 
#
#######################################################################
#
# If this CIF has been generated from an entry in the Cambridge 
# Structural Database, then it will include bibliographic, chemical, 
# crystal, experimental, refinement or atomic coordinate data resulting 
# from the CCDC's data processing and validation procedures.
#
#######################################################################

data_PUGMEL
_symmetry_cell_setting           triclinic
_symmetry_space_group_name_H-M   'P -1'
_symmetry_Int_Tables_number      2
_space_group_name_Hall           '-P 1'
loop_
_symmetry_equiv_pos_site_id
_symmetry_equiv_pos_as_xyz
1 x,y,z
2 -x,-y,-z
_cell_length_a                   10.3212(9)
_cell_length_b                   13.1358(13)
_cell_length_c                   16.0182(17)
_cell_angle_alpha                66.804(10)
_cell_angle_beta                 79.650(8)
_cell_angle_gamma                87.942(7)
_cell_volume                     1962.21
loop_
_atom_site_label
_atom_site_type_symbol
_atom_site_fract_x
_atom_site_fract_y
_atom_site_fract_z
Hg1 Hg 0.13212(4) 1.06283(4) 0.03212(4)
Cu1 Cu 0.13702(14) 1.43037(12) 0.02434(13)
O1 O -0.0134(9) 1.4478(7) 0.1035(7)
O2 O 0.0756(8) 1.2871(7) 0.0356(7)
O3 O -0.0275(10) 1.1239(7) 0.1081(8)
O4 O 0.3411(14) 1.1028(10) 0.0844(15)
O5 O 0.2825(13) 0.9494(10) 0.0838(12)
O6 O -0.0211(10) 0.8876(7) 0.0932(8)
O7 O -0.2362(11) 0.8636(10) 0.1364(10)
O8 O -0.3441(10) 0.8062(9) 0.3059(10)
N1 N 0.3051(11) 1.4309(9) -0.0612(10)
N2 N 0.2257(10) 1.5687(8) 0.0151(9)
C1 C 0.3365(14) 1.3537(11) -0.0963(11)
H1 H 0.2769 1.2925 -0.0791
C2 C 0.4525(14) 1.3608(12) -0.1564(14)
H2 H 0.4728 1.3054 -0.1804
C3 C 0.5399(14) 1.4511(12) -0.1814(13)
H3 H 0.6219 1.4572 -0.2213
C4 C 0.5056(13) 1.5292(12) -0.1477(13)
H4 H 0.5622 1.5924 -0.1654
C5 C 0.3864(13) 1.5171(10) -0.0866(11)
C6 C 0.3460(12) 1.5966(11) -0.0414(12)
C7 C 0.4138(14) 1.6914(11) -0.0567(13)
H5 H 0.4970 1.7104 -0.0968
C8 C 0.3613(15) 1.7574(11) -0.0145(13)
H6 H 0.4088 1.8225 -0.0234
C9 C 0.2383(15) 1.7311(11) 0.0419(12)
H7 H 0.1990 1.7795 0.0695
C10 C 0.1742(14) 1.6340(11) 0.0571(12)
H8 H 0.0919 1.6133 0.0982
C11 C -0.0151(12) 1.2231(11) 0.0979(10)
C12 C -0.1026(12) 1.2596(9) 0.1637(11)
C13 C -0.0910(12) 1.3628(10) 0.1692(10)
C14 C -0.1655(13) 1.3809(10) 0.2443(11)
C15 C -0.2568(14) 1.3006(11) 0.3064(12)
H9 H -0.3117 1.3166 0.3537
C16 C -0.2726(14) 1.1999(11) 0.3037(12)
C17 C -0.1962(13) 1.1797(11) 0.2313(12)
H10 H -0.2071 1.1105 0.2270
C18 C -0.1351(15) 1.4860(11) 0.2559(12)
H11 H -0.1277 1.5490 0.1942
C19 C -0.2379(18) 1.5130(12) 0.3231(15)
H12 H -0.3244 1.5148 0.3056
H13 H -0.2158 1.5856 0.3220
H14 H -0.2402 1.4563 0.3855
C20 C -0.0004(16) 1.4784(14) 0.2883(15)
H15 H 0.0148 1.5439 0.3006
H16 H 0.0704 1.4748 0.2398
H17 H -0.0014 1.4115 0.3447
C21 C -0.3739(16) 1.1111(12) 0.3738(13)
H18 H -0.4277 1.1444 0.4144
C22 C -0.467(2) 1.0693(19) 0.331(2)
H19 H -0.4166 1.0377 0.2893
H20 H -0.5177 1.1308 0.2956
H21 H -0.5277 1.0121 0.3794
C23 C -0.300(2) 1.0156(14) 0.4344(15)
H22 H -0.3632 0.9622 0.4843
H23 H -0.2390 1.0445 0.4608
H24 H -0.2502 0.9787 0.3969
C24 C 0.3585(14) 1.0063(12) 0.1038(14)
C25 C 0.4763(15) 0.9534(13) 0.1428(13)
H25 H 0.5558 0.9818 0.0956
H26 H 0.4674 0.8729 0.1623
H27 H 0.4832 0.9706 0.1961
C26 C -0.1268(15) 0.8594(11) 0.1532(13)
C27 C -0.1077(15) 0.8166(12) 0.2529(13)
C28 C -0.2214(14) 0.7888(11) 0.3245(12)
C29 C -0.2077(16) 0.7438(12) 0.4194(12)
C30 C -0.0815(17) 0.7240(14) 0.4374(13)
H28 H -0.0707 0.6946 0.5001
C31 C 0.0324(17) 0.7445(15) 0.3691(15)
C32 C 0.0142(15) 0.7954(14) 0.2761(12)
H29 H 0.0895 0.8156 0.2283
C33 C -0.3294(16) 0.7139(13) 0.4938(13)
H30 H -0.3910 0.7758 0.4731
C34 C -0.400(2) 0.6092(16) 0.501(2)
H31 H -0.3370 0.5505 0.5070
H32 H -0.4388 0.6255 0.4462
H33 H -0.4702 0.5848 0.5562
C35 C -0.308(2) 0.7039(17) 0.5853(16)
H34 H -0.2455 0.6453 0.6076
H35 H -0.3915 0.6853 0.6287
H36 H -0.2710 0.7744 0.5801
C36 C 0.169(2) 0.716(2) 0.3950(17)
H37 H 0.1542 0.6531 0.4567
C37 C 0.264(2) 0.680(2) 0.336(2)
H38 H 0.2493 0.7165 0.2719
H39 H 0.2538 0.5995 0.3558
H40 H 0.3533 0.6992 0.3389
C38 C 0.224(3) 0.813(3) 0.411(3)
H41 H 0.3145 0.7986 0.4221
H42 H 0.1690 0.8212 0.4642
H43 H 0.2241 0.8819 0.3559
Hg1A Hg -0.13212(4) 0.93717(4) -0.03212(4)
Cu1A Cu -0.13702(14) 1.56963(12) -0.02434(13)
O1A O 0.0134(9) 1.5522(7) -0.1035(7)
O6A O 0.0211(10) 1.1124(7) -0.0932(8)
O7A O 0.2362(11) 1.1364(10) -0.1364(10)
C39 C 0.119(3) 0.110(2) 0.306(3)
H44 H 0.0701 0.0798 0.2724
H45 H 0.0568 0.1217 0.3547
H46 H 0.1839 0.0567 0.3329
C40 C 0.187(2) 0.2165(17) 0.2404(16)
N3 N 0.2390(16) 0.2948(15) 0.1888(15)
loop_
_geom_bond_atom_site_label_1
_geom_bond_atom_site_label_2
_geom_bond_site_symmetry_1
_geom_bond_site_symmetry_2
Hg1 O2 1_555 1_555
Cu1 O1 1_555 1_555
O1 C13 1_555 1_555
O2 Cu1 1_555 1_555
O3 Hg1 1_555 1_555
O4 Hg1 1_555 1_555
O5 Hg1 1_555 1_555
O6 Hg1 1_555 1_555
O7 C26 1_555 1_555
O8 C28 1_555 1_555
N1 Cu1 1_555 1_555
N2 Cu1 1_555 1_555
C1 N1 1_555 1_555
H1 C1 1_555 1_555
C2 C1 1_555 1_555
H2 C2 1_555 1_555
C3 C2 1_555 1_555
H3 C3 1_555 1_555
C4 C3 1_555 1_555
H4 C4 1_555 1_555
C5 N1 1_555 1_555
C6 N2 1_555 1_555
C7 C6 1_555 1_555
H5 C7 1_555 1_555
C8 C7 1_555 1_555
H6 C8 1_555 1_555
C9 C8 1_555 1_555
H7 C9 1_555 1_555
C10 N2 1_555 1_555
H8 C10 1_555 1_555
C11 O2 1_555 1_555
C12 C11 1_555 1_555
C13 C12 1_555 1_555
C14 C13 1_555 1_555
C15 C14 1_555 1_555
H9 C15 1_555 1_555
C16 C15 1_555 1_555
C17 C12 1_555 1_555
H10 C17 1_555 1_555
C18 C14 1_555 1_555
H11 C18 1_555 1_555
C19 C18 1_555 1_555
H12 C19 1_555 1_555
H13 C19 1_555 1_555
H14 C19 1_555 1_555
C20 C18 1_555 1_555
H15 C20 1_555 1_555
H16 C20 1_555 1_555
H17 C20 1_555 1_555
C21 C16 1_555 1_555
H18 C21 1_555 1_555
C22 C21 1_555 1_555
H19 C22 1_555 1_555
H20 C22 1_555 1_555
H21 C22 1_555 1_555
C23 C21 1_555 1_555
H22 C23 1_555 1_555
H23 C23 1_555 1_555
H24 C23 1_555 1_555
C24 O4 1_555 1_555
C25 C24 1_555 1_555
H25 C25 1_555 1_555
H26 C25 1_555 1_555
H27 C25 1_555 1_555
C26 O6 1_555 1_555
C27 C26 1_555 1_555
C28 C27 1_555 1_555
C29 C28 1_555 1_555
C30 C29 1_555 1_555
H28 C30 1_555 1_555
C31 C30 1_555 1_555
C32 C27 1_555 1_555
H29 C32 1_555 1_555
C33 C29 1_555 1_555
H30 C33 1_555 1_555
C34 C33 1_555 1_555
H31 C34 1_555 1_555
H32 C34 1_555 1_555
H33 C34 1_555 1_555
C35 C33 1_555 1_555
H34 C35 1_555 1_555
H35 C35 1_555 1_555
H36 C35 1_555 1_555
C36 C31 1_555 1_555
H37 C36 1_555 1_555
C37 C36 1_555 1_555
H38 C37 1_555 1_555
H39 C37 1_555 1_555
H40 C37 1_555 1_555
C38 C36 1_555 1_555
H41 C38 1_555 1_555
H42 C38 1_555 1_555
H43 C38 1_555 1_555
C39 H44 1_555 1_555
H45 C39 1_555 1_555
H46 C39 1_555 1_555
C40 C39 1_555 1_555
N3 C40 1_555 1_555
Hg1A O6 1_555 1_555
Cu1A O1 1_555 1_555
O1A Cu1 1_555 1_555
O6A Hg1 1_555 1_555
O7A Hg1 1_555 1_555
O3 C11 1_555 1_555
O5 C24 1_555 1_555
O7 Hg1A 1_555 1_555
C4 C5 1_555 1_555
C5 C6 1_555 1_555
C9 C10 1_555 1_555
C16 C17 1_555 1_555
C31 C32 1_555 1_555
Hg1A O6A 1_555 1_555
Cu1A O1A 1_555 1_555

#END
