
#######################################################################
#
#                 Cambridge Crystallographic Data Centre
#                                CCDC 
#
#######################################################################
#
# If this CIF has been generated from an entry in the Cambridge 
# Structural Database, then it will include bibliographic, chemical, 
# crystal, experimental, refinement or atomic coordinate data resulting 
# from the CCDC's data processing and validation procedures.
#
#######################################################################

data_PUHLOU
_symmetry_cell_setting           monoclinic
_symmetry_space_group_name_H-M   'P 21/c'
_symmetry_Int_Tables_number      14
_space_group_name_Hall           '-P 2ybc'
loop_
_symmetry_equiv_pos_site_id
_symmetry_equiv_pos_as_xyz
1 x,y,z
2 -x,1/2+y,1/2-z
3 -x,-y,-z
4 x,1/2-y,1/2+z
_cell_length_a                   15.8026(10)
_cell_length_b                   13.2430(9)
_cell_length_c                   12.5483(8)
_cell_angle_alpha                90
_cell_angle_beta                 111.1937(9)
_cell_angle_gamma                90
_cell_volume                     2448.42
loop_
_atom_site_label
_atom_site_type_symbol
_atom_site_fract_x
_atom_site_fract_y
_atom_site_fract_z
Ag1 Ag 0.614660(14) 0.443563(16) 0.564182(18)
P1 P 0.73287(5) 0.49413(6) 0.50219(6)
O1 O 0.53235(13) 0.57005(15) 0.61834(16)
O2 O 0.63385(16) 0.54142(18) 0.79082(19)
N1 N 0.44392(15) 0.81511(17) 0.8642(2)
C1 C 0.83757(19) 0.4219(2) 0.5607(3)
C2 C 0.9230(2) 0.4634(3) 0.5938(3)
H1 H 0.9296 0.5324 0.5854
C3 C 0.9994(2) 0.4033(4) 0.6393(4)
H2 H 1.0568 0.4322 0.6616
C4 C 0.9907(3) 0.3027(4) 0.6516(4)
H3 H 1.0422 0.2629 0.6832
C5 C 0.9073(3) 0.2598(3) 0.6181(4)
H4 H 0.9015 0.1904 0.6243
C6 C 0.8307(2) 0.3198(3) 0.5748(4)
H5 H 0.7736 0.2904 0.5548
C7 C 0.70310(19) 0.4873(2) 0.3475(2)
C8 C 0.6256(2) 0.5381(2) 0.2796(3)
H6 H 0.5923 0.5752 0.3137
C9 C 0.5973(2) 0.5339(3) 0.1614(3)
H7 H 0.5457 0.5688 0.1165
C10 C 0.6454(3) 0.4787(3) 0.1113(3)
H8 H 0.6262 0.4755 0.0320
C11 C 0.7216(3) 0.4281(3) 0.1764(3)
H9 H 0.7538 0.3905 0.1413
C12 C 0.7516(2) 0.4323(3) 0.2954(3)
H10 H 0.8040 0.3982 0.3394
C13 C 0.76577(18) 0.6258(2) 0.5340(2)
C14 C 0.8048(2) 0.6813(3) 0.4702(3)
H11 H 0.8170 0.6506 0.4107
C15 C 0.8260(3) 0.7820(3) 0.4944(3)
H12 H 0.8528 0.8183 0.4515
C16 C 0.8079(3) 0.8284(3) 0.5804(3)
H13 H 0.8214 0.8965 0.5955
C17 C 0.7698(2) 0.7747(3) 0.6445(3)
H14 H 0.7578 0.8065 0.7036
C18 C 0.7487(2) 0.6734(3) 0.6226(3)
H15 H 0.7232 0.6374 0.6672
C19 C 0.56739(18) 0.5860(2) 0.7242(2)
C20 C 0.52434(17) 0.6678(2) 0.7719(2)
C21 C 0.44917(19) 0.7210(2) 0.7046(2)
H16 H 0.4240 0.7083 0.6265
C22 C 0.41135(19) 0.7928(2) 0.7527(3)
H17 H 0.3606 0.8277 0.7053
C23 C 0.5173(2) 0.7646(2) 0.9290(2)
H18 H 0.5416 0.7792 1.0067
C24 C 0.55900(19) 0.6919(2) 0.8871(2)
H19 H 0.6104 0.6590 0.9359
Ag1B Ag 0.385340(14) 0.556437(16) 0.435818(18)
Ag1A Ag 0.385340(14) 0.943563(16) 0.935818(18)
O1B O 0.46765(13) 0.42995(15) 0.38166(16)
N1A N 0.55608(15) 0.31511(17) 0.6358(2)
O3 O 0.7823(2) 0.4374(3) 0.9329(3)
H20 H 0.738(3) 0.473(4) 0.895(4)
C25 C 0.8216(4) 0.4024(7) 0.8541(5)
H21 H 0.7898 0.4300 0.7785
H22 H 0.8197 0.3293 0.8494
C26 C 0.9193(4) 0.4398(7) 0.9016(7)
H23 H 0.9505 0.4179 0.8528
H24 H 0.9492 0.4129 0.9770
H25 H 0.9198 0.5122 0.9051
C27? C 0.8433(5) 0.4584(7) 0.8721(8)
C28? C 0.8952(4) 0.3674(7) 0.8736(11)
H26? H 0.8087 0.4779 0.7939
H27? H 0.8839 0.5134 0.9089
H28? H 0.9253 0.3456 0.9512
H29? H 0.9396 0.3814 0.8398
H30? H 0.8551 0.3152 0.8310
loop_
_geom_bond_atom_site_label_1
_geom_bond_atom_site_label_2
_geom_bond_site_symmetry_1
_geom_bond_site_symmetry_2
Ag1 P1 1_555 1_555
P1 C1 1_555 1_555
O1 Ag1 1_555 1_555
O2 C19 1_555 1_555
N1 C22 1_555 1_555
C1 C2 1_555 1_555
C2 H1 1_555 1_555
C3 C2 1_555 1_555
H2 C3 1_555 1_555
C4 C3 1_555 1_555
H3 C4 1_555 1_555
C5 C4 1_555 1_555
H4 C5 1_555 1_555
C6 C1 1_555 1_555
H5 C6 1_555 1_555
C7 P1 1_555 1_555
C8 C7 1_555 1_555
H6 C8 1_555 1_555
C9 C8 1_555 1_555
H7 C9 1_555 1_555
C10 C9 1_555 1_555
H8 C10 1_555 1_555
C11 C10 1_555 1_555
H9 C11 1_555 1_555
C12 C7 1_555 1_555
H10 C12 1_555 1_555
C13 P1 1_555 1_555
C14 C13 1_555 1_555
H11 C14 1_555 1_555
C15 C14 1_555 1_555
H12 C15 1_555 1_555
C16 C15 1_555 1_555
H13 C16 1_555 1_555
C17 C16 1_555 1_555
H14 C17 1_555 1_555
C18 C13 1_555 1_555
H15 C18 1_555 1_555
C19 O1 1_555 1_555
C20 C19 1_555 1_555
C21 C20 1_555 1_555
H16 C21 1_555 1_555
C22 C21 1_555 1_555
H17 C22 1_555 1_555
C23 N1 1_555 1_555
H18 C23 1_555 1_555
C24 C20 1_555 1_555
H19 C24 1_555 1_555
O3 H20 1_555 1_555
C25 O3 1_555 1_555
H21 C25 1_555 1_555
H22 C25 1_555 1_555
C26 C25 1_555 1_555
H23 C26 1_555 1_555
H24 C26 1_555 1_555
H25 C26 1_555 1_555
Ag1B O1 1_555 1_555
Ag1A N1 1_555 1_555
O1B Ag1 1_555 1_555
N1A Ag1 1_555 1_555
C5 C6 1_555 1_555
C11 C12 1_555 1_555
C17 C18 1_555 1_555
C23 C24 1_555 1_555
Ag1B O1B 1_555 1_555

#END
