
#######################################################################
#
#                 Cambridge Crystallographic Data Centre
#                                CCDC 
#
#######################################################################
#
# If this CIF has been generated from an entry in the Cambridge 
# Structural Database, then it will include bibliographic, chemical, 
# crystal, experimental, refinement or atomic coordinate data resulting 
# from the CCDC's data processing and validation procedures.
#
#######################################################################

data_PUHLEL
_symmetry_cell_setting           triclinic
_symmetry_space_group_name_H-M   'P -1'
_symmetry_Int_Tables_number      2
_space_group_name_Hall           '-P 1'
loop_
_symmetry_equiv_pos_site_id
_symmetry_equiv_pos_as_xyz
1 x,y,z
2 -x,-y,-z
_cell_length_a                   8.0421(5)
_cell_length_b                   16.7426(12)
_cell_length_c                   17.8330(12)
_cell_angle_alpha                63.883(3)
_cell_angle_beta                 85.122(4)
_cell_angle_gamma                84.756(4)
_cell_volume                     2144.25
loop_
_atom_site_label
_atom_site_type_symbol
_atom_site_fract_x
_atom_site_fract_y
_atom_site_fract_z
Cu1 Cu -0.16887(5) 0.09179(2) 0.44251(2)
Cu2 Cu 0.05789(5) 0.79295(2) -0.23071(2)
Cu3 Cu 0.13519(5) 0.25568(3) 0.35972(2)
Cu4 Cu 0.09428(5) 0.11835(3) 0.70284(2)
Cu5 Cu 0.30298(5) 0.49281(3) 0.03805(2)
Cu6 Cu 0.24862(5) 0.87222(3) 0.02700(2)
Cu7 Cu 0.00145(5) 0.71548(3) 0.09675(2)
C1 C 0.2391(4) 0.9254(2) -0.23656(19)
C2 C 0.1005(4) 0.3460(2) 0.11472(19)
C3 C -0.0425(4) 0.0760(2) 0.58425(19)
C4 C -0.0926(4) 0.0883(2) 0.8509(2)
C5 C 0.3150(4) 0.6432(2) -0.10654(19)
C6 C 0.3187(4) 0.9003(2) -0.30627(19)
C7 C 0.0845(4) 0.3675(2) 0.19120(18)
C8 C -0.0094(4) 0.1718(2) 0.52015(19)
C9 C -0.0748(4) 0.1900(2) 0.81581(19)
C10 C 0.4153(4) 0.6633(2) -0.04702(19)
C11 C 0.3748(4) 0.9831(2) -0.38469(18)
C12 C 0.2620(4) 0.3792(2) 0.21144(19)
C13 C 0.1671(4) 0.1973(2) 0.52673(19)
C14 C 0.1145(4) 0.2051(2) 0.8031(2)
C15 C 0.2972(4) 0.7134(2) -0.00555(19)
O1 O 0.1260(3) 0.87473(14) -0.18975(13)
O2 O 0.0614(3) 0.27169(14) 0.12461(13)
O3 O -0.1094(3) 0.02787(14) 0.55855(13)
O4 O -0.1600(3) 0.04838(15) 0.92288(13)
O5 O 0.2455(3) 0.56881(14) -0.07544(13)
O6 O 0.2903(3) 0.98833(15) -0.22772(14)
O7 O 0.1504(3) 0.40584(14) 0.04522(13)
O8 O -0.0110(3) 0.04931(15) 0.65946(13)
O9 O -0.0367(3) 0.05101(15) 0.80631(13)
O10 O 0.3044(3) 0.69910(14) -0.17988(13)
O11 O 0.2036(3) 0.85610(14) -0.32637(13)
O12 O 0.0082(3) 0.30063(14) 0.25897(13)
O13 O -0.0287(3) 0.18159(14) 0.44069(13)
O14 O -0.1529(3) 0.22212(15) 0.87026(14)
O15 O 0.4688(3) 0.57938(14) 0.01656(13)
O16 O 0.4656(3) 0.84621(15) -0.27504(14)
H1 H 0.4407 0.8001 -0.2320
O17 O -0.0021(3) 0.45201(14) 0.16761(13)
H2 H -0.1002 0.4494 0.1564
O18 O -0.1232(3) 0.22856(15) 0.54294(15)
H3 H -0.0746 0.2734 0.5371
O19 O -0.1345(3) 0.23274(16) 0.73456(14)
H4 H -0.2381 0.2279 0.7370
O20 O 0.5462(3) 0.71274(15) -0.09248(14)
H5 H 0.555(5) 0.755(3) -0.084(2)
O21 O 0.4950(3) 1.02163(15) -0.38027(14)
O22 O 0.3544(3) 0.43281(15) 0.15497(13)
O23 O 0.2154(3) 0.18425(16) 0.59664(14)
O24 O 0.2007(3) 0.18105(16) 0.75384(15)
O25 O 0.1721(3) 0.67300(15) 0.03579(14)
O26 O 0.2911(3) 1.00591(14) -0.44904(13)
O27 O 0.3052(3) 0.33333(15) 0.28522(13)
O28 O 0.2529(3) 0.23368(16) 0.45935(14)
O29 O 0.1725(3) 0.23984(17) 0.84407(15)
O30 O 0.3405(3) 0.78780(16) -0.01674(15)
O31 O 0.2033(3) 0.13930(17) 0.32139(16)
H6 H 0.187(5) 0.083(3) 0.363(3)
H7 H 0.302(6) 0.145(3) 0.304(3)
O32 O -0.0021(3) 0.87151(17) -0.03743(15)
H8 H -0.051(6) 0.916(3) -0.042(3)
H9 H 0.026(5) 0.876(3) -0.082(3)
O33 O 0.3116(5) 0.9787(2) -0.07495(18)
H10 H 0.317(7) 0.981(4) -0.121(4)
H11 H 0.344(8) 1.012(4) -0.070(4)
O34 O 0.0297(4) 0.5831(2) 0.22167(19)
H12 H 0.1395(19) 0.575(2) 0.232(2)
H13 H 0.017(5) 0.5372(14) 0.209(2)
O35 O -0.1752(3) 0.67089(18) 0.06194(17)
H14 H -0.152(6) 0.641(3) 0.033(3)
H15 H -0.242(6) 0.640(3) 0.095(3)
O36 O -0.3898(3) 0.16542(19) 0.49279(19)
H16 H -0.464(3) 0.175(3) 0.4534(17)
H17 H -0.441(4) 0.1226(17) 0.5377(16)
O37 O 0.5320(5) 0.8802(2) 0.0602(3)
H18 H 0.540(11) 0.847(6) 0.106(7)
H19 H 0.506(10) 0.862(7) 0.114(7)
Cu1A Cu 0.16887(5) 0.90821(2) -0.44251(2)
Cu2A Cu -0.05789(5) 0.20705(2) 0.23071(2)
Cu4_2 Cu 0.09428(5) 1.11835(3) -0.29716(2)
Cu5A Cu 0.69702(5) 0.50719(3) -0.03805(2)
Cu6A Cu -0.24862(5) 0.12778(3) 0.97300(2)
Cu7A Cu -0.00145(5) 0.28452(3) 0.90325(2)
O2A O -0.0614(3) 0.72831(14) -0.12461(13)
O4A O 0.1600(3) 0.95162(15) 0.07712(13)
O6_2 O 0.2903(3) -0.01167(15) 0.77228(14)
O11A O -0.2036(3) 0.14390(14) 0.32637(13)
O12A O -0.0082(3) 0.69937(14) -0.25897(13)
O14A O 0.1529(3) 0.77788(15) 0.12974(14)
O15A O 0.5312(3) 0.42062(14) -0.01656(13)
O26A O -0.2911(3) -0.00591(14) 0.44904(13)
O29A O -0.1725(3) 0.76016(17) 0.15593(15)
O38 O 0.0029(17) 0.3922(6) 0.3837(6)
O39 O 0.3380(3) 0.1420(2) 0.0828(2)
H20 H 0.252(7) 0.157(4) 0.074(3)
H21 H 0.342(6) 0.093(4) 0.129(3)
O40 O 0.6594(4) 0.0002(2) 0.75892(18)
H22 H 0.760(7) -0.002(3) 0.743(3)
H23 H 0.594(6) -0.008(3) 0.728(3)
O41 O -0.3483(4) 0.3881(2) 0.2908(2)
O42 O -0.4106(4) 0.5645(2) 0.15918(18)
O43 O 0.4241(5) 0.8352(3) 0.2487(3)
H24 H 0.511(10) 0.819(5) 0.268(5)
H25 H 0.418(9) 0.892(5) 0.247(5)
O44 O -0.6466(7) 0.6173(4) 0.2454(4)
O45 O 0.0585(13) 0.6059(5) 0.4587(7)
O46 O -0.543(5) 0.386(3) 0.632(2)
O47 O -0.5222(17) 0.2893(8) 0.5897(8)
O48 O -0.736(2) 0.4885(11) 0.4010(10)
O49 O -0.1869(16) 0.5815(7) 0.3627(5)
O50? O -0.401(3) 0.4227(17) 0.6074(15)
O51? O -0.614(4) 0.3348(19) 0.5714(18)
O52? O -0.423(2) 0.4176(9) 0.4390(8)
O53? O -0.500(3) 0.4210(15) 0.4942(14)
O54? O -0.321(5) 0.425(2) 0.424(2)
O55? O -0.507(3) 0.3211(15) 0.4124(13)
O56? O -0.534(3) 0.6905(16) 0.2007(15)
O57? O -0.102(3) 0.5536(18) 0.3785(16)
loop_
_geom_bond_atom_site_label_1
_geom_bond_atom_site_label_2
_geom_bond_site_symmetry_1
_geom_bond_site_symmetry_2
Cu1 O3 1_555 1_555
Cu2 O1 1_555 1_555
Cu3 O12 1_555 1_555
Cu4 O8 1_555 1_555
Cu5 O5 1_555 1_555
Cu6 O30 1_555 1_555
Cu7 O25 1_555 1_555
C1 C6 1_555 1_555
C2 C7 1_555 1_555
C3 C8 1_555 1_555
C4 C9 1_555 1_555
C5 C10 1_555 1_555
C6 C11 1_555 1_555
C7 C12 1_555 1_555
C8 C13 1_555 1_555
C9 C14 1_555 1_555
C10 C15 1_555 1_555
C11 O21 1_555 1_555
C12 O22 1_555 1_555
C13 O23 1_555 1_555
C14 O24 1_555 1_555
C15 O25 1_555 1_555
O1 C1 1_555 1_555
O2 C2 1_555 1_555
O3 C3 1_555 1_555
O4 C4 1_555 1_555
O5 C5 1_555 1_555
O6 C1 1_555 1_555
O7 Cu5 1_555 1_555
O8 C3 1_555 1_555
O9 Cu4 1_555 1_555
O10 Cu2 1_555 1_555
O11 Cu2 1_555 1_555
O12 C7 1_555 1_555
O13 Cu1 1_555 1_555
O14 C9 1_555 1_555
O15 Cu5 1_555 1_555
O16 C6 1_555 1_555
H1 O16 1_555 1_555
O17 C7 1_555 1_555
H2 O17 1_555 1_555
O18 C8 1_555 1_555
H3 O18 1_555 1_555
O19 C9 1_555 1_555
H4 O19 1_555 1_555
O20 C10 1_555 1_555
H5 O20 1_555 1_555
O22 Cu5 1_555 1_555
O23 Cu4 1_555 1_555
O24 Cu4 1_555 1_555
O26 C11 1_555 1_555
O27 Cu3 1_555 1_555
O28 Cu3 1_555 1_555
O29 C14 1_555 1_555
O30 C15 1_555 1_555
O31 Cu3 1_555 1_555
H6 O31 1_555 1_555
H7 O31 1_555 1_555
O32 Cu6 1_555 1_555
H8 O32 1_555 1_555
H9 O32 1_555 1_555
O33 Cu6 1_555 1_555
H10 O33 1_555 1_555
H11 O33 1_555 1_555
O34 Cu7 1_555 1_555
H12 O34 1_555 1_555
H13 O34 1_555 1_555
O35 Cu7 1_555 1_555
H14 O35 1_555 1_555
H15 O35 1_555 1_555
O36 Cu1 1_555 1_555
H16 O36 1_555 1_555
H17 O36 1_555 1_555
O37 Cu6 1_555 1_555
H18 O37 1_555 1_555
H19 O37 1_555 1_555
O39 H20 1_555 1_555
H21 O39 1_555 1_555
O40 H22 1_555 1_555
H23 O40 1_555 1_555
O43 H24 1_555 1_555
H25 O43 1_555 1_555
Cu1A O11 1_555 1_555
Cu2A O2 1_555 1_555
Cu4_2 O6 1_555 1_555
Cu5A O15 1_555 1_555
Cu6A O4 1_555 1_555
Cu7A O14 1_555 1_555
O2A Cu2 1_555 1_555
O4A Cu6 1_555 1_555
O6_2 Cu4 1_555 1_555
O11A Cu1 1_555 1_555
O12A Cu2 1_555 1_555
O14A Cu6 1_555 1_555
O15A Cu5 1_555 1_555
O26A Cu1 1_555 1_555
O29A Cu7 1_555 1_555
Cu3 O13 1_555 1_555
Cu7 O14A 1_555 1_555
C2 O7 1_555 1_555
C4 O9 1_555 1_555
C5 O10 1_555 1_555
C6 O11 1_555 1_555
C8 O13 1_555 1_555
C10 O15 1_555 1_555
C12 O27 1_555 1_555
C13 O28 1_555 1_555
O12 Cu2A 1_555 1_555
O14 Cu6A 1_555 1_555
O26 Cu1A 1_555 1_555
O29 Cu7A 1_555 1_555
Cu2A O11A 1_555 1_555
Cu5A O15A 1_555 1_555

#END
