
#######################################################################
#
#                 Cambridge Crystallographic Data Centre
#                                CCDC 
#
#######################################################################
#
# If this CIF has been generated from an entry in the Cambridge 
# Structural Database, then it will include bibliographic, chemical, 
# crystal, experimental, refinement or atomic coordinate data resulting 
# from the CCDC's data processing and validation procedures.
#
#######################################################################

data_PUHREQ
_symmetry_cell_setting           monoclinic
_symmetry_space_group_name_H-M   'P 21/c'
_symmetry_Int_Tables_number      14
_space_group_name_Hall           '-P 2ybc'
loop_
_symmetry_equiv_pos_site_id
_symmetry_equiv_pos_as_xyz
1 x,y,z
2 -x,1/2+y,1/2-z
3 -x,-y,-z
4 x,1/2-y,1/2+z
_cell_length_a                   11.2496(2)
_cell_length_b                   25.7598(5)
_cell_length_c                   11.4216(2)
_cell_angle_alpha                90
_cell_angle_beta                 105.4270(10)
_cell_angle_gamma                90
_cell_volume                     3190.58
loop_
_atom_site_label
_atom_site_type_symbol
_atom_site_fract_x
_atom_site_fract_y
_atom_site_fract_z
Sn1 Sn 0.66161(3) 0.225810(13) 0.57255(3)
S1 S 0.70901(16) 0.42111(6) 0.37053(14)
S2 S 0.45463(17) 0.38461(7) 0.35217(17)
F1 F 1.1949(5) 0.1403(3) 0.9730(5)
F2 F 1.0347(5) 0.05335(19) 0.3995(7)
F3 F 0.1222(4) 0.1519(2) 0.2507(4)
O1 O 0.6613(4) 0.26909(14) 0.3765(3)
O2 O 0.6790(3) 0.32296(14) 0.2303(3)
N1 N 0.5111(5) 0.47966(18) 0.2933(4)
C1 C 0.8474(5) 0.2552(2) 0.6297(5)
H1 H 0.8777 0.2587 0.5581
H2 H 0.8444 0.2897 0.6626
C2 C 0.9392(5) 0.2243(2) 0.7210(5)
C3 C 1.0029(6) 0.1843(3) 0.6852(6)
H3 H 0.9881 0.1760 0.6033
C4 C 1.0897(7) 0.1561(3) 0.7722(9)
H4 H 1.1329 0.1291 0.7485
C5 C 1.1106(6) 0.1685(4) 0.8913(7)
C6 C 1.0492(6) 0.2071(3) 0.9296(6)
H5 H 1.0640 0.2148 1.0118
C7 C 0.9642(5) 0.2348(3) 0.8437(5)
H6 H 0.9219 0.2617 0.8692
C8 C 0.6182(5) 0.1582(2) 0.4614(5)
H7 H 0.5695 0.1351 0.4969
H8 H 0.5676 0.1685 0.3821
C9 C 0.7277(5) 0.1289(2) 0.4448(5)
C10 C 0.7677(6) 0.1362(2) 0.3425(6)
H9 H 0.7243 0.1586 0.2824
C11 C 0.8708(7) 0.1112(3) 0.3262(8)
H10 H 0.8977 0.1164 0.2568
C12 C 0.9309(7) 0.0787(3) 0.4153(10)
C13 C 0.8933(8) 0.0695(3) 0.5164(8)
H11 H 0.9357 0.0460 0.5743
C14 C 0.7925(7) 0.0953(3) 0.5329(6)
H12 H 0.7676 0.0901 0.6034
C15 C 0.4941(5) 0.2654(2) 0.5752(5)
H13 H 0.4839 0.2659 0.6569
H14 H 0.4962 0.3010 0.5478
C16 C 0.3905(5) 0.2365(2) 0.4919(5)
C17 C 0.3326(6) 0.1950(3) 0.5316(5)
H15 H 0.3547 0.1861 0.6134
C18 C 0.2426(6) 0.1667(3) 0.4506(7)
H16 H 0.2041 0.1391 0.4779
C19 C 0.2107(6) 0.1796(3) 0.3309(6)
C20 C 0.2654(6) 0.2200(3) 0.2879(6)
H17 H 0.2435 0.2282 0.2057
C21 C 0.3534(5) 0.2481(3) 0.3690(5)
H18 H 0.3898 0.2761 0.3404
C22 C 0.6819(5) 0.3121(2) 0.3390(5)
C23 C 0.7238(6) 0.3564(2) 0.4291(5)
H19 H 0.8099 0.3507 0.4709
H20 H 0.6776 0.3542 0.4895
C24 C 0.5468(6) 0.4321(2) 0.3331(5)
C25 C 0.6014(7) 0.5209(2) 0.2852(6)
H21 H 0.6822 0.5091 0.3340
C26 C 0.5775(10) 0.5729(3) 0.3367(7)
H22 H 0.5754 0.5686 0.4196
H23 H 0.4998 0.5864 0.2899
H24 H 0.6422 0.5967 0.3332
C27 C 0.6113(10) 0.5271(3) 0.1567(7)
H25 H 0.6293 0.4940 0.1264
H26 H 0.6763 0.5511 0.1557
H27 H 0.5348 0.5400 0.1062
C28 C 0.3806(7) 0.4941(3) 0.2433(6)
H28 H 0.3811 0.5291 0.2098
C29 C 0.3171(9) 0.4989(4) 0.3436(8)
H29 H 0.2324 0.5084 0.3096
H30 H 0.3574 0.5251 0.4001
H31 H 0.3210 0.4663 0.3850
C30 C 0.3161(7) 0.4601(3) 0.1383(7)
H32 H 0.3625 0.4597 0.0788
H33 H 0.2350 0.4736 0.1022
H34 H 0.3098 0.4255 0.1668
Sn1C Sn 0.66161(3) 0.274190(13) 0.07255(3)
O2C O 0.6790(3) 0.17704(14) 0.7303(3)
loop_
_geom_bond_atom_site_label_1
_geom_bond_atom_site_label_2
_geom_bond_site_symmetry_1
_geom_bond_site_symmetry_2
Sn1 O1 1_555 1_555
S1 C23 1_555 1_555
S2 C24 1_555 1_555
F1 C5 1_555 1_555
F2 C12 1_555 1_555
F3 C19 1_555 1_555
O1 C22 1_555 1_555
O2 C22 1_555 1_555
N1 C24 1_555 1_555
C1 Sn1 1_555 1_555
H1 C1 1_555 1_555
H2 C1 1_555 1_555
C2 C1 1_555 1_555
C3 C2 1_555 1_555
H3 C3 1_555 1_555
C4 C3 1_555 1_555
H4 C4 1_555 1_555
C5 C4 1_555 1_555
C6 C5 1_555 1_555
H5 C6 1_555 1_555
C7 C2 1_555 1_555
H6 C7 1_555 1_555
C8 Sn1 1_555 1_555
H7 C8 1_555 1_555
H8 C8 1_555 1_555
C9 C8 1_555 1_555
C10 C9 1_555 1_555
H9 C10 1_555 1_555
C11 C10 1_555 1_555
H10 C11 1_555 1_555
C12 C11 1_555 1_555
C13 C12 1_555 1_555
H11 C13 1_555 1_555
C14 C9 1_555 1_555
H12 C14 1_555 1_555
C15 Sn1 1_555 1_555
H13 C15 1_555 1_555
H14 C15 1_555 1_555
C16 C15 1_555 1_555
C17 C16 1_555 1_555
H15 C17 1_555 1_555
C18 C17 1_555 1_555
H16 C18 1_555 1_555
C19 C18 1_555 1_555
C20 C19 1_555 1_555
H17 C20 1_555 1_555
C21 C16 1_555 1_555
H18 C21 1_555 1_555
C22 C23 1_555 1_555
C23 H19 1_555 1_555
H20 C23 1_555 1_555
C24 S1 1_555 1_555
C25 N1 1_555 1_555
H21 C25 1_555 1_555
C26 C25 1_555 1_555
H22 C26 1_555 1_555
H23 C26 1_555 1_555
H24 C26 1_555 1_555
C27 C25 1_555 1_555
H25 C27 1_555 1_555
H26 C27 1_555 1_555
H27 C27 1_555 1_555
C28 N1 1_555 1_555
H28 C28 1_555 1_555
C29 C28 1_555 1_555
H29 C29 1_555 1_555
H30 C29 1_555 1_555
H31 C29 1_555 1_555
C30 C28 1_555 1_555
H32 C30 1_555 1_555
H33 C30 1_555 1_555
H34 C30 1_555 1_555
Sn1C O2 1_555 1_555
O2C Sn1 1_555 1_555
C6 C7 1_555 1_555
C13 C14 1_555 1_555
C20 C21 1_555 1_555

#END
