
#######################################################################
#
#                 Cambridge Crystallographic Data Centre
#                                CCDC 
#
#######################################################################
#
# If this CIF has been generated from an entry in the Cambridge 
# Structural Database, then it will include bibliographic, chemical, 
# crystal, experimental, refinement or atomic coordinate data resulting 
# from the CCDC's data processing and validation procedures.
#
#######################################################################

data_PUHWEW
_symmetry_cell_setting           triclinic
_symmetry_space_group_name_H-M   'P -1'
_symmetry_Int_Tables_number      2
_space_group_name_Hall           '-P 1'
loop_
_symmetry_equiv_pos_site_id
_symmetry_equiv_pos_as_xyz
1 x,y,z
2 -x,-y,-z
_cell_length_a                   8.0054(16)
_cell_length_b                   9.972(2)
_cell_length_c                   11.451(2)
_cell_angle_alpha                80.91(3)
_cell_angle_beta                 71.17(3)
_cell_angle_gamma                81.95(3)
_cell_volume                     850.455
loop_
_atom_site_label
_atom_site_type_symbol
_atom_site_fract_x
_atom_site_fract_y
_atom_site_fract_z
Zn1 Zn 0.46423(3) 0.50463(2) 0.13821(2)
N1 N 0.3901(2) 0.51814(16) 0.32362(15)
N2 N 0.3065(2) 0.60860(17) 0.50073(16)
H1 H 0.2981 0.6647 0.5526
N3 N 0.4175(2) 0.85403(17) 0.26797(16)
N4 N 0.2742(3) 0.9239(2) 0.3382(2)
N5 N 0.2268(3) 1.0222(2) 0.2634(2)
N6 N 0.3377(3) 1.0192(2) 0.1458(2)
O1 O 0.2652(2) 0.40809(18) 0.12769(15)
O2 O 0.3140(2) 0.39357(17) -0.07241(15)
O3 O -0.3248(2) 0.31979(16) -0.08042(15)
O4 O -0.3719(2) 0.32404(16) 0.12162(14)
C1 C 0.2257(3) 0.3736(2) 0.04071(19)
C2 C 0.0546(3) 0.3075(2) 0.0752(2)
H2 H -0.0436 0.3780 0.0931
H3 H 0.0445 0.2455 0.1509
C3 C 0.0361(3) 0.2293(2) -0.0225(2)
H4 H 0.1321 0.1570 -0.0390
H5 H 0.0481 0.2905 -0.0990
C4 C -0.1417(3) 0.1663(2) 0.0150(2)
H6 H -0.1373 0.1055 -0.0444
H7 H -0.1616 0.1133 0.0961
C5 C -0.2932(3) 0.2774(2) 0.0189(2)
C6 C 0.2791(3) 0.4319(2) 0.41569(18)
C7 C 0.2209(3) 0.3089(2) 0.4096(2)
H8 H 0.2568 0.2691 0.3362
C8 C 0.1079(3) 0.2487(2) 0.5171(2)
H9 H 0.0684 0.1655 0.5164
C9 C 0.0508(3) 0.3089(2) 0.6275(2)
H10 H -0.0274 0.2657 0.6977
C10 C 0.1073(3) 0.4304(2) 0.6348(2)
H11 H 0.0692 0.4708 0.7080
C11 C 0.2245(3) 0.4898(2) 0.52685(18)
C12 C 0.4017(3) 0.6211(2) 0.37993(18)
C13 C 0.5125(3) 0.7375(2) 0.3217(2)
H12 H 0.5527 0.7668 0.3841
H13 H 0.6165 0.7062 0.2570
C14 C 0.4531(3) 0.9143(2) 0.1516(2)
H14 H 0.5461 0.8859 0.0845
Zn1_2 Zn -0.53577(3) 0.50463(2) 0.13821(2)
Zn1A Zn -0.46423(3) 0.49537(2) -0.13821(2)
Zn1A_2 Zn 0.53577(3) 0.49537(2) -0.13821(2)
O2A O 0.6860(2) 0.60643(17) 0.07241(15)
O3A O 0.3248(2) 0.68021(16) 0.08042(15)
O4_2 O 0.6281(2) 0.32404(16) 0.12162(14)
O5 O -0.3134(3) 0.21542(18) 0.34153(18)
H15 H -0.3365 0.2417 0.2764
C15 C -0.2966(7) 0.0757(3) 0.3595(3)
H16 H -0.2874 0.0450 0.4412
H17 H -0.1920 0.0418 0.2985
H18 H -0.3988 0.0424 0.3515
loop_
_geom_bond_atom_site_label_1
_geom_bond_atom_site_label_2
_geom_bond_site_symmetry_1
_geom_bond_site_symmetry_2
Zn1 N1 1_555 1_555
N1 C6 1_555 1_555
N2 H1 1_555 1_555
N3 N4 1_555 1_555
N4 N5 1_555 1_555
N5 N6 1_555 1_555
N6 C14 1_555 1_555
O1 Zn1 1_555 1_555
O2 C1 1_555 1_555
O3 C5 1_555 1_555
O4 C5 1_555 1_555
C1 O1 1_555 1_555
C2 C1 1_555 1_555
H2 C2 1_555 1_555
H3 C2 1_555 1_555
C3 C2 1_555 1_555
H4 C3 1_555 1_555
H5 C3 1_555 1_555
C4 C3 1_555 1_555
H6 C4 1_555 1_555
H7 C4 1_555 1_555
C5 C4 1_555 1_555
C6 C7 1_555 1_555
C7 H8 1_555 1_555
C8 C7 1_555 1_555
H9 C8 1_555 1_555
C9 C8 1_555 1_555
H10 C9 1_555 1_555
C10 C9 1_555 1_555
H11 C10 1_555 1_555
C11 N2 1_555 1_555
C12 N1 1_555 1_555
C13 N3 1_555 1_555
H12 C13 1_555 1_555
H13 C13 1_555 1_555
C14 N3 1_555 1_555
H14 C14 1_555 1_555
O5 H15 1_555 1_555
C15 O5 1_555 1_555
H16 C15 1_555 1_555
H17 C15 1_555 1_555
H18 C15 1_555 1_555
Zn1_2 O4 1_555 1_555
Zn1A O3 1_555 1_555
Zn1A_2 O2 1_555 1_555
O2A Zn1 1_555 1_555
O3A Zn1 1_555 1_555
O4_2 Zn1 1_555 1_555
N2 C12 1_555 1_555
C6 C11 1_555 1_555
C10 C11 1_555 1_555
C12 C13 1_555 1_555

#END
