
#######################################################################
#
#                 Cambridge Crystallographic Data Centre
#                                CCDC 
#
#######################################################################
#
# If this CIF has been generated from an entry in the Cambridge 
# Structural Database, then it will include bibliographic, chemical, 
# crystal, experimental, refinement or atomic coordinate data resulting 
# from the CCDC's data processing and validation procedures.
#
#######################################################################

data_PUHWAR
_symmetry_cell_setting           triclinic
_symmetry_space_group_name_H-M   'P -1'
_symmetry_Int_Tables_number      2
_space_group_name_Hall           '-P 1'
loop_
_symmetry_equiv_pos_site_id
_symmetry_equiv_pos_as_xyz
1 x,y,z
2 -x,-y,-z
_cell_length_a                   6.7005(6)
_cell_length_b                   13.161(4)
_cell_length_c                   13.586(4)
_cell_angle_alpha                63.415(6)
_cell_angle_beta                 79.076(6)
_cell_angle_gamma                81.857(6)
_cell_volume                     1049.79
loop_
_atom_site_label
_atom_site_type_symbol
_atom_site_fract_x
_atom_site_fract_y
_atom_site_fract_z
C1 C 0.9163(6) 0.0491(3) 0.7521(3)
C2 C 0.8515(5) 0.1016(3) 0.8336(3)
C3 C 0.7844(6) 0.0308(3) 0.9447(3)
H1 H 0.7885 -0.0476 0.9691
C4 C 0.7123(5) 0.0780(3) 1.0174(3)
C5 C 0.7116(5) 0.1939(3) 0.9862(3)
H2 H 0.6619 0.2237 1.0372
C6 C 0.7864(5) 0.2642(3) 0.8773(3)
C7 C 0.8516(5) 0.2191(3) 0.7993(3)
C8 C 0.9163(6) 0.2966(3) 0.6771(3)
C9 C 0.7955(6) 0.3896(3) 0.8445(3)
N1 N 0.6278(5) 0.0040(3) 1.1322(2)
Na1 Na 0.4252(3) 0.71871(14) 0.62371(12)
Ni1 Ni 0.95998(7) 0.61127(4) 0.67564(3)
O1 O 1.0145(5) -0.0455(2) 0.7877(2)
O2 O 0.8649(4) 0.1028(2) 0.6566(2)
O3 O 1.0990(4) 0.2896(2) 0.6371(2)
O4 O 0.7775(4) 0.3631(2) 0.62481(19)
O5 O 0.9363(4) 0.4410(2) 0.7681(2)
O6 O 0.6652(5) 0.4346(2) 0.8957(2)
O7 O 0.5232(5) 0.0489(3) 1.1881(2)
O8 O 0.6619(5) -0.0989(2) 1.1654(2)
O9 O 0.5203(6) 0.8170(3) 0.4318(3)
H3 H 0.4216 0.8129 0.4041
H4 H 0.6299 0.8222 0.3885
O10 O 0.3273(5) 0.8978(3) 0.6356(3)
H5 H 0.2531 0.9289 0.6730
H6 H 0.4516 0.9004 0.6361
O11 O 0.6914(4) 0.6549(2) 0.7614(2)
H7 H 0.7288 0.6999 0.7818
H8 H 0.6762 0.5899 0.8144
O12 O 0.7733(4) 0.5951(2) 0.5785(2)
H9 H 0.7918 0.5254 0.5944
H10 H 0.7993 0.6346 0.5096
O13 O 1.0007(5) 0.7794(2) 0.5696(2)
H11 H 1.0372 0.8014 0.5009
H12 H 0.9399 0.8326 0.5838
O14 O 0.2328(4) 0.5797(2) 0.5931(2)
H13 H 0.2943 0.5159 0.6247
H14 H 0.2408 0.5999 0.5245
O15 O 0.1438(4) 0.6187(2) 0.7811(2)
H15 H 0.1856 0.5531 0.8238
H16 H 0.0735 0.6526 0.8170
Ni1_2 Ni -0.04002(7) 0.61127(4) 0.67564(3)
O14_2 O 1.2328(4) 0.5797(2) 0.5931(2)
H13_2 H 1.2943 0.5159 0.6247
H14_2 H 1.2408 0.5999 0.5245
O15_2 O 1.1438(4) 0.6187(2) 0.7811(2)
H15_2 H 1.1856 0.5531 0.8238
H16_2 H 1.0735 0.6526 0.8170
O16 O 0.3769(4) 0.3668(2) 0.7147(2)
H17 H 0.5013 0.3639 0.6899
H18 H 0.3103 0.3295 0.6970
O17 O 0.2681(5) 0.3942(3) 0.9122(2)
H19 H 0.2749 0.3769 0.8592
H20 H 0.3833 0.4069 0.9185
O18 O 0.8872(5) 0.7396(3) 0.8714(3)
H21 H 0.9288 0.8041 0.8520
H22 H 0.8565 0.7050 0.9407
O19 O 0.7517(5) 0.9492(3) 0.5860(2)
H23 H 0.7651 0.9794 0.6271
H24 H 0.7585 0.9966 0.5189
loop_
_geom_bond_atom_site_label_1
_geom_bond_atom_site_label_2
_geom_bond_site_symmetry_1
_geom_bond_site_symmetry_2
C1 C2 1_555 1_555
C2 C3 1_555 1_555
C3 H1 1_555 1_555
C4 C3 1_555 1_555
C5 C4 1_555 1_555
H2 C5 1_555 1_555
C6 C5 1_555 1_555
C7 C2 1_555 1_555
C8 C7 1_555 1_555
C9 C6 1_555 1_555
N1 C4 1_555 1_555
Na1 O9 1_555 1_555
Ni1 O5 1_555 1_555
O1 C1 1_555 1_555
O2 C1 1_555 1_555
O3 C8 1_555 1_555
O4 C8 1_555 1_555
O5 C9 1_555 1_555
O6 C9 1_555 1_555
O7 N1 1_555 1_555
O8 N1 1_555 1_555
O9 H3 1_555 1_555
H4 O9 1_555 1_555
O10 Na1 1_555 1_555
H5 O10 1_555 1_555
H6 O10 1_555 1_555
O11 Na1 1_555 1_555
H7 O11 1_555 1_555
H8 O11 1_555 1_555
O12 Na1 1_555 1_555
H9 O12 1_555 1_555
H10 O12 1_555 1_555
O13 Ni1 1_555 1_555
H11 O13 1_555 1_555
H12 O13 1_555 1_555
O14 Na1 1_555 1_555
H13 O14 1_555 1_555
H14 O14 1_555 1_555
O15 Na1 1_555 1_555
H15 O15 1_555 1_555
H16 O15 1_555 1_555
O16 H17 1_555 1_555
H18 O16 1_555 1_555
O17 H19 1_555 1_555
H20 O17 1_555 1_555
O18 H21 1_555 1_555
H22 O18 1_555 1_555
O19 H23 1_555 1_555
H24 O19 1_555 1_555
Ni1_2 O14 1_555 1_555
O14_2 Ni1 1_555 1_555
H13_2 O14_2 1_555 1_555
H14_2 O14_2 1_555 1_555
O15_2 Ni1 1_555 1_555
H15_2 O15_2 1_555 1_555
H16_2 O15_2 1_555 1_555
C6 C7 1_555 1_555
Ni1 O11 1_555 1_555
Ni1 O12 1_555 1_555
O15 Ni1_2 1_555 1_555

#END
