
#######################################################################
#
#                 Cambridge Crystallographic Data Centre
#                                CCDC 
#
#######################################################################
#
# If this CIF has been generated from an entry in the Cambridge 
# Structural Database, then it will include bibliographic, chemical, 
# crystal, experimental, refinement or atomic coordinate data resulting 
# from the CCDC's data processing and validation procedures.
#
#######################################################################

data_PUHXIA
_symmetry_cell_setting           monoclinic
_symmetry_space_group_name_H-M   'C 2/c'
_symmetry_Int_Tables_number      15
_space_group_name_Hall           '-C 2yn'
loop_
_symmetry_equiv_pos_site_id
_symmetry_equiv_pos_as_xyz
1 x,y,z
2 -x,y,1/2-z
3 1/2+x,1/2+y,z
4 1/2-x,1/2+y,1/2-z
5 -x,-y,-z
6 x,-y,1/2+z
7 1/2-x,1/2-y,-z
8 1/2+x,1/2-y,1/2+z
_cell_length_a                   22.3372(15)
_cell_length_b                   10.2643(7)
_cell_length_c                   16.9261(11)
_cell_angle_alpha                90
_cell_angle_beta                 105.1400(10)
_cell_angle_gamma                90
_cell_volume                     3746.05
loop_
_atom_site_label
_atom_site_type_symbol
_atom_site_fract_x
_atom_site_fract_y
_atom_site_fract_z
Zn1 Zn 0.40381(2) 0.67147(5) 0.55736(3)
Zn2 Zn 0.2500 0.7500 0.5000
O1 O 0.40247(16) 0.7797(3) 0.4622(2)
O2 O 0.31369(15) 0.8673(3) 0.4686(2)
O3 O 0.29594(17) 1.2435(4) 0.12228(19)
O4 O 0.39737(16) 1.2197(4) 0.1478(2)
O5 O 0.37531(18) 0.4905(4) 0.5713(3)
O6 O 0.30025(18) 0.5819(3) 0.4821(2)
N1 N 0.49686(18) 0.6283(4) 0.5907(3)
C1 C 0.3588(2) 0.9476(5) 0.3687(3)
C2 C 0.4095(2) 0.9664(5) 0.3361(3)
C3 C 0.4018(2) 1.0506(5) 0.2701(3)
H1 H 0.4354 1.0645 0.2483
C4 C 0.3476(2) 1.1143(4) 0.2354(3)
C5 C 0.2970(2) 1.0983(5) 0.2683(3)
C6 C 0.3049(2) 1.0147(5) 0.3343(3)
H2 H 0.2716 1.0031 0.3570
C7 C 0.3581(2) 0.8590(4) 0.4383(3)
C8 C 0.4722(3) 0.9037(8) 0.3691(5)
H3 H 0.5009 0.9382 0.3409
H4 H 0.4686 0.8112 0.3608
H5 H 0.4871 0.9218 0.4265
C9 C 0.3457(2) 1.1994(4) 0.1631(3)
C10 C 0.2367(3) 1.1692(6) 0.2392(4)
H6 H 0.2090 1.1424 0.2709
H7 H 0.2187 1.1493 0.1825
H8 H 0.2439 1.2613 0.2454
C11 C 0.3226(2) 0.4861(5) 0.5232(3)
C12 C 0.2872(2) 0.3605(4) 0.5142(3)
C13 C 0.2293(2) 0.3618(4) 0.4598(3)
H9 H 0.2154 0.4392 0.4327
C14 C 0.3094(2) 0.2458(5) 0.5566(3)
C15 C 0.3713(3) 0.2313(6) 0.6163(4)
H10 H 0.3768 0.1427 0.6351
H11 H 0.3738 0.2881 0.6621
H12 H 0.4033 0.2537 0.5903
C16 C 0.5188(3) 0.5242(8) 0.6329(6)
H13 H 0.4911 0.4643 0.6447
C17 C 0.5805(4) 0.5003(10) 0.6601(8)
H14 H 0.5944 0.4256 0.6906
C18 C 0.6214(3) 0.5840(8) 0.6433(6)
H15 H 0.6638 0.5700 0.6634
C19 C 0.6002(3) 0.6877(7) 0.5972(4)
H16 H 0.6274 0.7453 0.5821
C20 C 0.5379(3) 0.7074(6) 0.5725(4)
H17 H 0.5234 0.7808 0.5411
Zn1F Zn 0.09619(2) 0.82853(5) 0.44264(3)
Zn1E Zn 0.40381(2) 1.32853(5) 0.05736(3)
Zn1F_2 Zn 0.09619(2) -0.17147(5) 0.44264(3)
Zn1C Zn 0.09619(2) 0.17147(5) 0.94264(3)
Zn2C Zn 0.2500 1.2500 0.0000
Zn2_2 Zn 0.2500 -0.2500 0.5000
Zn2C_2 Zn 0.2500 0.2500 1.0000
O1F O 0.09753(16) 0.7203(3) 0.5378(2)
O2F O 0.18631(15) 0.6327(3) 0.5314(2)
O3F O 0.20406(17) 0.2565(4) 0.87772(19)
O3C O 0.20406(17) 0.7435(4) 0.37772(19)
O3E O 0.29594(17) 0.7565(4) 0.62228(19)
O4F O 0.10263(16) 0.2803(4) 0.8522(2)
O4E O 0.39737(16) 0.7803(4) 0.6478(2)
O4C O 0.10263(16) 0.7197(4) 0.3522(2)
O5F O 0.12469(18) 0.0095(4) 0.4287(3)
O5F_2 O 0.12469(18) 1.0095(4) 0.4287(3)
O6F O 0.19975(18) -0.0819(3) 0.5179(2)
O6F_2 O 0.19975(18) 0.9181(3) 0.5179(2)
N1F N 0.00314(18) 0.8717(4) 0.4093(3)
C1F C 0.1412(2) 0.5524(5) 0.6313(3)
C2F C 0.0905(2) 0.5336(5) 0.6639(3)
C3F C 0.0982(2) 0.4494(5) 0.7299(3)
H1F H 0.0646 0.4355 0.7517
C4F C 0.1524(2) 0.3857(4) 0.7646(3)
C5F C 0.2030(2) 0.4017(5) 0.7317(3)
C6F C 0.1951(2) 0.4853(5) 0.6657(3)
H2F H 0.2284 0.4969 0.6430
C7F C 0.1419(2) 0.6410(4) 0.5617(3)
C8F C 0.0278(3) 0.5963(8) 0.6309(5)
H3F H -0.0009 0.5618 0.6591
H4F H 0.0314 0.6888 0.6392
H5F H 0.0129 0.5782 0.5735
C9F C 0.1543(2) 0.3006(4) 0.8369(3)
C10F C 0.2633(3) 0.3308(6) 0.7608(4)
H6F H 0.2910 0.3576 0.7291
H7F H 0.2813 0.3507 0.8175
H8F H 0.2561 0.2387 0.7546
C11F C 0.1774(2) 0.0139(5) 0.4768(3)
C12F C 0.2128(2) 0.1395(4) 0.4858(3)
C13F C 0.2707(2) 0.1382(4) 0.5402(3)
H9F H 0.2846 0.0608 0.5673
C14F C 0.1906(2) 0.2542(5) 0.4434(3)
C15F C 0.1287(3) 0.2687(6) 0.3837(4)
H10F H 0.1232 0.3573 0.3649
H11F H 0.1262 0.2119 0.3379
H12F H 0.0967 0.2463 0.4097
C16F C -0.0188(3) 0.9758(8) 0.3671(6)
H13F H 0.0089 1.0357 0.3553
C17F C -0.0805(4) 0.9997(10) 0.3399(8)
H14F H -0.0944 1.0744 0.3094
C18F C -0.1214(3) 0.9160(8) 0.3567(6)
H15F H -0.1638 0.9300 0.3366
C19F C -0.1002(3) 0.8123(7) 0.4028(4)
H16F H -0.1274 0.7547 0.4179
C20F C -0.0379(3) 0.7926(6) 0.4275(4)
H17F H -0.0234 0.7192 0.4589
loop_
_geom_bond_atom_site_label_1
_geom_bond_atom_site_label_2
_geom_bond_site_symmetry_1
_geom_bond_site_symmetry_2
Zn1 O1 1_555 1_555
Zn2 O2 1_555 1_555
O1 C7 1_555 1_555
O2 C7 1_555 1_555
O3 C9 1_555 1_555
O4 C9 1_555 1_555
O5 Zn1 1_555 1_555
O6 Zn2 1_555 1_555
N1 Zn1 1_555 1_555
C1 C2 1_555 1_555
C2 C3 1_555 1_555
C3 H1 1_555 1_555
C4 C3 1_555 1_555
C5 C4 1_555 1_555
C6 C1 1_555 1_555
H2 C6 1_555 1_555
C7 C1 1_555 1_555
C8 C2 1_555 1_555
H3 C8 1_555 1_555
H4 C8 1_555 1_555
H5 C8 1_555 1_555
C9 C4 1_555 1_555
C10 C5 1_555 1_555
H6 C10 1_555 1_555
H7 C10 1_555 1_555
H8 C10 1_555 1_555
C11 O5 1_555 1_555
C12 C11 1_555 1_555
C13 C12 1_555 1_555
H9 C13 1_555 1_555
C14 C12 1_555 1_555
C15 C14 1_555 1_555
H10 C15 1_555 1_555
H11 C15 1_555 1_555
H12 C15 1_555 1_555
C16 N1 1_555 1_555
H13 C16 1_555 1_555
C17 C16 1_555 1_555
H14 C17 1_555 1_555
C18 C17 1_555 1_555
H15 C18 1_555 1_555
C19 C18 1_555 1_555
H16 C19 1_555 1_555
C20 N1 1_555 1_555
H17 C20 1_555 1_555
Zn1F O1F 1_555 1_555
Zn1E O4 1_555 1_555
Zn1F_2 O5F 1_555 1_555
Zn1C O4F 1_555 1_555
Zn2C O3 1_555 1_555
Zn2_2 O6F 1_555 1_555
Zn2C_2 O3F 1_555 1_555
O1F C7F 1_555 1_555
O2F Zn2 1_555 1_555
O3F C9F 1_555 1_555
O3C Zn2 1_555 1_555
O3E Zn2 1_555 1_555
O4F C9F 1_555 1_555
O4E Zn1 1_555 1_555
O4C Zn1F 1_555 1_555
O5F C11F 1_555 1_555
O5F_2 Zn1F 1_555 1_555
O6F C11F 1_555 1_555
O6F_2 Zn2 1_555 1_555
N1F Zn1F 1_555 1_555
C1F C2F 1_555 1_555
C2F C3F 1_555 1_555
C3F H1F 1_555 1_555
C4F C3F 1_555 1_555
C5F C4F 1_555 1_555
C6F C1F 1_555 1_555
H2F C6F 1_555 1_555
C7F O2F 1_555 1_555
C8F C2F 1_555 1_555
H3F C8F 1_555 1_555
H4F C8F 1_555 1_555
H5F C8F 1_555 1_555
C9F C4F 1_555 1_555
C10F C5F 1_555 1_555
H6F C10F 1_555 1_555
H7F C10F 1_555 1_555
H8F C10F 1_555 1_555
C11F C12F 1_555 1_555
C12F C13F 1_555 1_555
C13F C14 1_555 1_555
H9F C13F 1_555 1_555
C14F C13 1_555 1_555
C15F C14F 1_555 1_555
H10F C15F 1_555 1_555
H11F C15F 1_555 1_555
H12F C15F 1_555 1_555
C16F N1F 1_555 1_555
H13F C16F 1_555 1_555
C17F C16F 1_555 1_555
H14F C17F 1_555 1_555
C18F C17F 1_555 1_555
H15F C18F 1_555 1_555
C19F C18F 1_555 1_555
H16F C19F 1_555 1_555
C20F N1F 1_555 1_555
H17F C20F 1_555 1_555
O6 C11 1_555 1_555
C5 C6 1_555 1_555
C19 C20 1_555 1_555
C1F C7F 1_555 1_555
C5F C6F 1_555 1_555
C12F C14F 1_555 1_555
C19F C20F 1_555 1_555

#END
