
#######################################################################
#
#                 Cambridge Crystallographic Data Centre
#                                CCDC 
#
#######################################################################
#
# If this CIF has been generated from an entry in the Cambridge 
# Structural Database, then it will include bibliographic, chemical, 
# crystal, experimental, refinement or atomic coordinate data resulting 
# from the CCDC's data processing and validation procedures.
#
#######################################################################

data_PUJRER
_symmetry_cell_setting           orthorhombic
_symmetry_space_group_name_H-M   'P 21 21 21'
_symmetry_Int_Tables_number      19
_space_group_name_Hall           'P 2ac 2ab'
loop_
_symmetry_equiv_pos_site_id
_symmetry_equiv_pos_as_xyz
1 x,y,z
2 1/2-x,-y,1/2+z
3 1/2+x,1/2-y,-z
4 -x,1/2+y,1/2-z
_cell_length_a                   9.465(1)
_cell_length_b                   14.116(1)
_cell_length_c                   25.596(2)
_cell_angle_alpha                90
_cell_angle_beta                 90
_cell_angle_gamma                90
_cell_volume                     3419.83
loop_
_atom_site_label
_atom_site_type_symbol
_atom_site_fract_x
_atom_site_fract_y
_atom_site_fract_z
Ag1 Ag 0.4951(1) 0.0422(1) 0.1349(1)
N1 N -0.0007(5) 0.0943(3) 0.1452(2)
C1 C 0.1117(7) 0.0653(4) 0.1216(2)
C2 C 0.1187(8) -0.0115(5) 0.0874(3)
C3 C -0.0061(9) -0.0627(5) 0.0803(3)
C4 C -0.1216(7) -0.0347(5) 0.1053(3)
C5 C -0.1209(6) 0.0437(4) 0.1377(2)
P1 P 0.2768(2) 0.1343(1) 0.1353(1)
C6 C 0.3954(9) 0.2848(5) 0.0837(3)
C7 C 0.4018(10) 0.3606(6) 0.0488(3)
C8 C 0.2862(13) 0.3789(7) 0.0171(3)
C9 C 0.1672(12) 0.3233(8) 0.0199(4)
C10 C 0.1613(9) 0.2496(7) 0.0550(3)
C11 C 0.2732(7) 0.2295(5) 0.0880(2)
C12 C 0.1408(9) 0.2635(5) 0.2025(3)
C13 C 0.1099(12) 0.2996(6) 0.2524(3)
C14 C 0.1788(13) 0.2646(7) 0.2953(3)
C15 C 0.2724(11) 0.1919(8) 0.2904(3)
C16 C 0.3030(10) 0.1550(7) 0.2419(3)
C17 C 0.2376(7) 0.1900(5) 0.1974(3)
P2 P -0.2785(2) 0.0871(1) 0.1715(1)
C18 C -0.2930(11) 0.2726(6) 0.2094(4)
C19 C -0.2879(14) 0.3699(7) 0.2026(5)
C20 C -0.2520(11) 0.4113(6) 0.1571(5)
C21 C -0.2205(10) 0.3555(6) 0.1166(4)
C22 C -0.2243(9) 0.2568(6) 0.1209(3)
C23 C -0.2585(7) 0.2152(5) 0.1679(3)
C24 C -0.3454(8) 0.0027(6) 0.2655(3)
C25 C -0.3258(10) -0.0217(7) 0.3173(3)
C26 C -0.2010(11) -0.0022(6) 0.3415(4)
C27 C -0.1019(9) 0.0499(6) 0.3157(3)
C28 C -0.1194(7) 0.0782(5) 0.2650(3)
C29 C -0.2458(7) 0.0550(5) 0.2394(2)
N2 N 0.5211(9) -0.0230(7) 0.0517(3)
C30 C 0.5451(14) -0.0669(8) 0.0177(4)
C31 C 0.6049(24) -0.1214(13) -0.0269(5)
N3 N 0.4168(12) -0.1130(7) 0.1626(5)
C32 C 0.3788(11) -0.1797(8) 0.1466(4)
C33 C 0.3211(22) -0.2650(10) 0.1235(6)
H1 H 0.2049(8) -0.0294(5) 0.0703(3)
H2 H -0.0076(9) -0.1171(5) 0.0577(3)
H3 H -0.2075(7) -0.0698(5) 0.1005(3)
H4 H 0.4765(9) 0.2688(5) 0.1044(3)
H5 H 0.4812(10) 0.4029(6) 0.0477(3)
H6 H 0.2915(13) 0.4272(7) -0.0092(3)
H7 H 0.0878(12) 0.3373(8) -0.0022(4)
H8 H 0.0775(9) 0.2115(7) 0.0574(3)
H9 H 0.0959(9) 0.2894(5) 0.1721(3)
H10 H 0.0415(12) 0.3493(6) 0.2560(3)
H11 H 0.1591(13) 0.2918(7) 0.3289(3)
H12 H 0.3150(11) 0.1657(8) 0.3212(3)
H13 H 0.3715(10) 0.1053(7) 0.2384(3)
H14 H -0.3189(11) 0.2446(6) 0.2421(4)
H15 H -0.3116(14) 0.4104(7) 0.2315(5)
H16 H -0.2499(11) 0.4789(6) 0.1530(5)
H17 H -0.1938(10) 0.3847(6) 0.0842(4)
H18 H -0.1999(9) 0.2183(6) 0.0913(3)
H19 H -0.4297(8) -0.0171(6) 0.2477(3)
H20 H -0.4005(10) -0.0511(7) 0.3368(3)
H21 H -0.1825(11) -0.0258(6) 0.3760(4)
H22 H -0.0173(9) 0.0684(6) 0.3337(3)
H23 H -0.0462(7) 0.1117(5) 0.2468(3)
P2_2 P 0.7215(2) 0.0871(1) 0.1715(1)
Ag1_2 Ag -0.5049(1) 0.0422(1) 0.1349(1)
Cl1 Cl 0.2963(8) 0.1539(4) 0.4477(2)
O1 O 0.2536(13) 0.1633(8) 0.4998(3)
O2 O 0.1920(18) 0.1008(12) 0.4205(6)
O3 O 0.3142(20) 0.2412(7) 0.4231(5)
O4 O 0.4254(19) 0.1040(17) 0.4484(8)
loop_
_geom_bond_atom_site_label_1
_geom_bond_atom_site_label_2
_geom_bond_site_symmetry_1
_geom_bond_site_symmetry_2
Ag1 P1 1_555 1_555
N1 C1 1_555 1_555
C1 C2 1_555 1_555
C2 C3 1_555 1_555
C3 C4 1_555 1_555
C4 C5 1_555 1_555
C5 N1 1_555 1_555
P1 C1 1_555 1_555
C6 C7 1_555 1_555
C7 C8 1_555 1_555
C8 C9 1_555 1_555
C9 C10 1_555 1_555
C10 C11 1_555 1_555
C11 P1 1_555 1_555
C12 C13 1_555 1_555
C13 C14 1_555 1_555
C14 C15 1_555 1_555
C15 C16 1_555 1_555
C16 C17 1_555 1_555
C17 P1 1_555 1_555
P2 C5 1_555 1_555
C18 C19 1_555 1_555
C19 C20 1_555 1_555
C20 C21 1_555 1_555
C21 C22 1_555 1_555
C22 C23 1_555 1_555
C23 P2 1_555 1_555
C24 C25 1_555 1_555
C25 C26 1_555 1_555
C26 C27 1_555 1_555
C27 C28 1_555 1_555
C28 C29 1_555 1_555
C29 P2 1_555 1_555
N2 Ag1 1_555 1_555
C30 N2 1_555 1_555
C31 C30 1_555 1_555
N3 Ag1 1_555 1_555
C32 N3 1_555 1_555
C33 C32 1_555 1_555
Cl1 O1 1_555 1_555
O2 Cl1 1_555 1_555
O3 Cl1 1_555 1_555
O4 Cl1 1_555 1_555
H1 C2 1_555 1_555
H2 C3 1_555 1_555
H3 C4 1_555 1_555
H4 C6 1_555 1_555
H5 C7 1_555 1_555
H6 C8 1_555 1_555
H7 C9 1_555 1_555
H8 C10 1_555 1_555
H9 C12 1_555 1_555
H10 C13 1_555 1_555
H11 C14 1_555 1_555
H12 C15 1_555 1_555
H13 C16 1_555 1_555
H14 C18 1_555 1_555
H15 C19 1_555 1_555
H16 C20 1_555 1_555
H17 C21 1_555 1_555
H18 C22 1_555 1_555
H19 C24 1_555 1_555
H20 C25 1_555 1_555
H21 C26 1_555 1_555
H22 C27 1_555 1_555
H23 C28 1_555 1_555
P2_2 Ag1 1_555 1_555
Ag1_2 P2 1_555 1_555
C6 C11 1_555 1_555
C12 C17 1_555 1_555
C18 C23 1_555 1_555
C24 C29 1_555 1_555

#END
