
#######################################################################
#
#                 Cambridge Crystallographic Data Centre
#                                CCDC 
#
#######################################################################
#
# If this CIF has been generated from an entry in the Cambridge 
# Structural Database, then it will include bibliographic, chemical, 
# crystal, experimental, refinement or atomic coordinate data resulting 
# from the CCDC's data processing and validation procedures.
#
#######################################################################

data_PUKCUV
_symmetry_cell_setting           triclinic
_symmetry_space_group_name_H-M   'P -1'
_symmetry_Int_Tables_number      2
_space_group_name_Hall           '-P 1'
loop_
_symmetry_equiv_pos_site_id
_symmetry_equiv_pos_as_xyz
1 x,y,z
2 -x,-y,-z
_cell_length_a                   9.1501(4)
_cell_length_b                   10.7211(5)
_cell_length_c                   11.3426(5)
_cell_angle_alpha                106.6100(10)
_cell_angle_beta                 107.7980(10)
_cell_angle_gamma                109.2080(10)
_cell_volume                     903.361
loop_
_atom_site_label
_atom_site_type_symbol
_atom_site_fract_x
_atom_site_fract_y
_atom_site_fract_z
Zn1 Zn 0.27911(2) 0.541215(19) 0.217553(18)
O1 O 0.07153(18) 0.35658(14) 0.12739(15)
O2 O 0.15735(18) 0.22266(17) 0.00267(15)
O3 O 0.33076(17) 0.59530(14) 0.07585(13)
O4 O 0.51816(17) 0.79505(15) 0.26508(13)
N1 N 0.18239(17) 0.66770(14) 0.30451(13)
N2 N 0.48529(17) 0.53023(15) 0.33833(14)
N3 N -0.2369(5) -0.0731(3) -0.2684(3)
N4 N 0.6760(4) 1.0748(3) 0.1786(3)
C1 C 0.0155(2) 0.63141(18) 0.23637(17)
H1 H -0.0533 0.5449 0.1564
C2 C -0.0583(2) 0.71702(18) 0.28007(17)
H2 H -0.1744 0.6882 0.2290
C3 C 0.0394(2) 0.84591(17) 0.39968(17)
C4 C 0.2120(2) 0.88149(18) 0.47181(18)
H3 H 0.2824 0.9654 0.5539
C5 C 0.2773(2) 0.79196(18) 0.42091(18)
H4 H 0.3933 0.8187 0.4696
C6 C -0.0397(2) 0.93769(18) 0.44406(18)
H5 H -0.1555 0.9055 0.3888
C7 C 0.9719(2) 0.5427(2) 0.52977(18)
H6 H 1.0470 0.6158 0.6180
C8 C 0.7993(2) 0.53087(19) 0.46678(17)
C9 C 0.6618(2) 0.4082(2) 0.35227(19)
H7 H 0.6734 0.3243 0.3167
C10 C 0.5087(2) 0.41135(19) 0.29183(18)
H8 H 0.4177 0.3281 0.2159
C11 C 0.6145(2) 0.64507(19) 0.45235(17)
H9 H 0.5986 0.7265 0.4880
C12 C 0.7697(2) 0.6486(2) 0.51946(18)
H10 H 0.8548 0.7299 0.6001
C13 C 0.0502(2) 0.24300(19) 0.03516(18)
C14 C -0.1326(3) 0.1210(3) -0.0328(3)
H11 H -0.1435 0.0727 0.0267
H12 H -0.2104 0.1648 -0.0387
C15 C -0.1889(3) 0.0131(2) -0.1648(2)
C16 C 0.4524(2) 0.72452(19) 0.14077(18)
C17 C 0.5201(3) 0.7923(2) 0.0552(2)
H13 H 0.5988 0.7570 0.0356
H14 H 0.4243 0.7615 -0.0315
C18 C 0.6088(3) 0.9513(3) 0.1250(3)
N1A N -0.18239(17) 1.33230(14) 0.69549(13)
C1A C -0.0155(2) 1.36859(18) 0.76363(17)
H1A H 0.0533 1.4551 0.8436
C2A C 0.0583(2) 1.28298(18) 0.71993(17)
H2A H 0.1744 1.3118 0.7710
C3A C -0.0394(2) 1.15409(17) 0.60032(17)
C4A C -0.2120(2) 1.11851(18) 0.52819(18)
H3A H -0.2824 1.0346 0.4461
C5A C -0.2773(2) 1.20804(18) 0.57909(18)
H4A H -0.3933 1.1813 0.5304
C6A C 0.0397(2) 1.06231(18) 0.55594(18)
H5A H 0.1555 1.0945 0.6112
N2A N 1.51471(17) 0.46977(15) 0.66167(14)
C7A C 1.0281(2) 0.4573(2) 0.47023(18)
H6A H 0.9530 0.3842 0.3820
C8A C 1.2007(2) 0.46913(19) 0.53322(17)
C9A C 1.3382(2) 0.5918(2) 0.64773(19)
H7A H 1.3266 0.6757 0.6833
C10A C 1.4913(2) 0.58865(19) 0.70817(18)
H8A H 1.5823 0.6719 0.7841
C11A C 1.3855(2) 0.35493(19) 0.54765(17)
H9A H 1.4014 0.2735 0.5120
C12A C 1.2303(2) 0.3514(2) 0.48054(18)
H10A H 1.1452 0.2701 0.3999
Zn1A Zn -0.27911(2) 1.458785(19) 0.782447(18)
O1A O -0.07153(18) 1.64342(14) 0.87261(15)
O2A O -0.15735(18) 1.77734(17) 0.99733(15)
O3A O -0.33076(17) 1.40470(14) 0.92415(13)
O4A O -0.51816(17) 1.20495(15) 0.73492(13)
N3A N 0.2369(5) 2.0731(3) 1.2684(3)
N4A N -0.6760(4) 0.9252(3) 0.8214(3)
C13A C -0.0502(2) 1.75700(19) 0.96484(18)
C14A C 0.1326(3) 1.8790(3) 1.0328(3)
H11A H 0.1435 1.9273 0.9733
H12A H 0.2104 1.8352 1.0387
C15A C 0.1889(3) 1.9869(2) 1.1648(2)
C16A C -0.4524(2) 1.27548(19) 0.85923(18)
C17A C -0.5201(3) 1.2077(2) 0.9448(2)
H13A H -0.5988 1.2430 0.9644
H14A H -0.4243 1.2385 1.0315
C18A C -0.6088(3) 1.0487(3) 0.8750(3)
Zn1A_2 Zn 1.72089(2) 0.458785(19) 0.782447(18)
N2A_2 N -0.48529(17) 1.46977(15) 0.66167(14)
loop_
_geom_bond_atom_site_label_1
_geom_bond_atom_site_label_2
_geom_bond_site_symmetry_1
_geom_bond_site_symmetry_2
Zn1 O1 1_555 1_555
O1 C13 1_555 1_555
O2 C13 1_555 1_555
O3 Zn1 1_555 1_555
O4 C16 1_555 1_555
N1 Zn1 1_555 1_555
N2 Zn1 1_555 1_555
N3 C15 1_555 1_555
N4 C18 1_555 1_555
C1 N1 1_555 1_555
H1 C1 1_555 1_555
C2 C1 1_555 1_555
H2 C2 1_555 1_555
C3 C2 1_555 1_555
C4 C3 1_555 1_555
H3 C4 1_555 1_555
C5 N1 1_555 1_555
H4 C5 1_555 1_555
C6 C3 1_555 1_555
H5 C6 1_555 1_555
C7 H6 1_555 1_555
C8 C7 1_555 1_555
C9 C8 1_555 1_555
H7 C9 1_555 1_555
C10 N2 1_555 1_555
H8 C10 1_555 1_555
C11 N2 1_555 1_555
H9 C11 1_555 1_555
C12 C8 1_555 1_555
H10 C12 1_555 1_555
C13 C14 1_555 1_555
C14 H11 1_555 1_555
H12 C14 1_555 1_555
C15 C14 1_555 1_555
C16 O3 1_555 1_555
C17 C16 1_555 1_555
H13 C17 1_555 1_555
H14 C17 1_555 1_555
C18 C17 1_555 1_555
N1A C1A 1_555 1_555
C1A H1A 1_555 1_555
C2A C1A 1_555 1_555
H2A C2A 1_555 1_555
C3A C2A 1_555 1_555
C4A C3A 1_555 1_555
H3A C4A 1_555 1_555
C5A N1A 1_555 1_555
H4A C5A 1_555 1_555
C6A C6 1_555 1_555
H5A C6A 1_555 1_555
N2A C10A 1_555 1_555
C7A C7 1_555 1_555
H6A C7A 1_555 1_555
C8A C7A 1_555 1_555
C9A C8A 1_555 1_555
H7A C9A 1_555 1_555
C10A C9A 1_555 1_555
H8A C10A 1_555 1_555
C11A N2A 1_555 1_555
H9A C11A 1_555 1_555
C12A C8A 1_555 1_555
H10A C12A 1_555 1_555
Zn1A N1A 1_555 1_555
O1A Zn1A 1_555 1_555
O2A C13A 1_555 1_555
O3A Zn1A 1_555 1_555
O4A C16A 1_555 1_555
N3A C15A 1_555 1_555
N4A C18A 1_555 1_555
C13A O1A 1_555 1_555
C14A C13A 1_555 1_555
H11A C14A 1_555 1_555
H12A C14A 1_555 1_555
C15A C14A 1_555 1_555
C16A O3A 1_555 1_555
C17A C16A 1_555 1_555
H13A C17A 1_555 1_555
H14A C17A 1_555 1_555
C18A C17A 1_555 1_555
Zn1A_2 N2A 1_555 1_555
N2A_2 Zn1A 1_555 1_555
C4 C5 1_555 1_555
C9 C10 1_555 1_555
C11 C12 1_555 1_555
C3A C6A 1_555 1_555
C4A C5A 1_555 1_555
C11A C12A 1_555 1_555

#END
