
#######################################################################
#
#                 Cambridge Crystallographic Data Centre
#                                CCDC 
#
#######################################################################
#
# If this CIF has been generated from an entry in the Cambridge 
# Structural Database, then it will include bibliographic, chemical, 
# crystal, experimental, refinement or atomic coordinate data resulting 
# from the CCDC's data processing and validation procedures.
#
#######################################################################

data_PUKDAC
_symmetry_cell_setting           triclinic
_symmetry_space_group_name_H-M   'P -1'
_symmetry_Int_Tables_number      2
_space_group_name_Hall           '-P 1'
loop_
_symmetry_equiv_pos_site_id
_symmetry_equiv_pos_as_xyz
1 x,y,z
2 -x,-y,-z
_cell_length_a                   7.7072(3)
_cell_length_b                   10.5091(4)
_cell_length_c                   11.7022(5)
_cell_angle_alpha                70.2920(10)
_cell_angle_beta                 86.0230(10)
_cell_angle_gamma                72.5870(10)
_cell_volume                     850.89
loop_
_atom_site_label
_atom_site_type_symbol
_atom_site_fract_x
_atom_site_fract_y
_atom_site_fract_z
Zn1 Zn 0.17904(5) 0.46915(4) 0.37630(3)
O1 O 0.4242(4) 0.4745(3) 0.3014(2)
O2 O 0.3456(4) 0.3525(4) 0.2058(4)
O3 O 0.0023(3) 0.3550(3) 0.3785(2)
O4 O -0.1568(5) 0.3845(3) 0.5399(3)
N1 N 0.0267(4) 0.6357(3) 0.2230(2)
N2 N -0.6811(4) 1.2972(3) -0.4641(2)
N3 N 0.6746(8) 0.2595(5) 0.0145(5)
N4 N -0.0450(11) 0.0735(7) 0.3168(6)
C1 C -0.0404(5) 0.6063(4) 0.1353(3)
H1 H -0.0166 0.5120 0.1416
C2 C -0.1427(5) 0.7086(4) 0.0366(3)
H2 H -0.1868 0.6829 -0.0217
C3 C -0.1800(5) 0.8510(3) 0.0242(3)
C4 C -0.1071(5) 0.8806(4) 0.1140(3)
H3 H -0.1264 0.9740 0.1093
C5 C -0.0067(5) 0.7726(4) 0.2095(3)
H4 H 0.0409 0.7956 0.2682
C6 C -0.2895(5) 0.9690(4) -0.0766(3)
H5 H -0.3044 1.0600 -0.0763
C7 C -0.3684(5) 0.9568(4) -0.1677(3)
H6 H -0.3544 0.8661 -0.1684
C8 C -0.4762(5) 1.0757(3) -0.2671(3)
C9 C -0.4999(5) 1.2172(4) -0.2816(3)
H7 H -0.4481 1.2406 -0.2250
C10 C -0.5997(5) 1.3215(4) -0.3796(3)
H8 H -0.6117 1.4149 -0.3877
C11 C -0.6590(5) 1.1615(4) -0.4501(3)
H9 H -0.7133 1.1412 -0.5077
C12 C -0.5601(5) 1.0509(4) -0.3553(3)
H10 H -0.5493 0.9585 -0.3500
C13 C 0.4492(5) 0.4104(4) 0.2251(3)
C14 C 0.6249(5) 0.4103(4) 0.1551(3)
H11 H 0.6188 0.5067 0.1061
H12 H 0.7270 0.3749 0.2127
C15 C 0.6558(6) 0.3247(5) 0.0773(4)
C16 C -0.1042(5) 0.3297(3) 0.4605(3)
C17 C -0.1883(6) 0.2138(5) 0.4677(4)
H13 H -0.1718 0.1479 0.5502
H14 H -0.3181 0.2559 0.4501
C18 C -0.1137(9) 0.1369(7) 0.3863(6)
Zn1_2 Zn -0.82096(5) 1.46915(4) -0.62370(3)
Zn1A Zn -0.17904(5) 0.53085(4) 0.62370(3)
O4A O 0.1568(5) 0.6155(3) 0.4601(3)
N2_2 N 0.3189(4) 0.2972(3) 0.5359(2)
loop_
_geom_bond_atom_site_label_1
_geom_bond_atom_site_label_2
_geom_bond_site_symmetry_1
_geom_bond_site_symmetry_2
Zn1 O1 1_555 1_555
O1 C13 1_555 1_555
O2 C13 1_555 1_555
O3 Zn1 1_555 1_555
O4 C16 1_555 1_555
N1 Zn1 1_555 1_555
N2 C10 1_555 1_555
N3 C15 1_555 1_555
N4 C18 1_555 1_555
C1 N1 1_555 1_555
H1 C1 1_555 1_555
C2 C1 1_555 1_555
H2 C2 1_555 1_555
C3 C2 1_555 1_555
C4 C3 1_555 1_555
H3 C4 1_555 1_555
C5 N1 1_555 1_555
H4 C5 1_555 1_555
C6 C3 1_555 1_555
H5 C6 1_555 1_555
C7 C6 1_555 1_555
H6 C7 1_555 1_555
C8 C7 1_555 1_555
C9 C8 1_555 1_555
H7 C9 1_555 1_555
C10 C9 1_555 1_555
H8 C10 1_555 1_555
C11 N2 1_555 1_555
H9 C11 1_555 1_555
C12 C8 1_555 1_555
H10 C12 1_555 1_555
C13 C14 1_555 1_555
C14 H11 1_555 1_555
H12 C14 1_555 1_555
C15 C14 1_555 1_555
C16 O3 1_555 1_555
C17 C16 1_555 1_555
H13 C17 1_555 1_555
H14 C17 1_555 1_555
C18 C17 1_555 1_555
Zn1_2 N2 1_555 1_555
Zn1A O4 1_555 1_555
O4A Zn1 1_555 1_555
N2_2 Zn1 1_555 1_555
C4 C5 1_555 1_555
C11 C12 1_555 1_555

#END
