
#######################################################################
#
#                 Cambridge Crystallographic Data Centre
#                                CCDC 
#
#######################################################################
#
# If this CIF has been generated from an entry in the Cambridge 
# Structural Database, then it will include bibliographic, chemical, 
# crystal, experimental, refinement or atomic coordinate data resulting 
# from the CCDC's data processing and validation procedures.
#
#######################################################################

data_PUKKUD
_symmetry_cell_setting           orthorhombic
_symmetry_space_group_name_H-M   'P n a 21'
_symmetry_Int_Tables_number      33
_space_group_name_Hall           'P 2c -2n'
loop_
_symmetry_equiv_pos_site_id
_symmetry_equiv_pos_as_xyz
1 x,y,z
2 -x,-y,1/2+z
3 1/2-x,1/2+y,1/2+z
4 1/2+x,1/2-y,z
_cell_length_a                   35.2868(7)
_cell_length_b                   9.9395(2)
_cell_length_c                   19.7445(4)
_cell_angle_alpha                90
_cell_angle_beta                 90
_cell_angle_gamma                90
_cell_volume                     6925.05
loop_
_atom_site_label
_atom_site_type_symbol
_atom_site_fract_x
_atom_site_fract_y
_atom_site_fract_z
N1 N 0.4882(2) 0.7418(7) 0.2149(3)
N2 N 0.5468(2) 1.2781(7) 0.4475(4)
N3 N 0.6138(2) 0.7755(8) 0.5421(4)
C1 C 0.5106(3) 0.9686(10) 0.1895(4)
H1 H 0.4857 1.0025 0.2052
H2 H 0.5087 0.9520 0.1402
C2 C 0.2546(3) 1.1011(11) 0.3504(7)
H3 H 0.2667 1.1005 0.3058
H4 H 0.2403 1.1849 0.3562
H5 H 0.2373 1.0243 0.3541
C3 C 0.4319(3) 0.6631(9) 0.2252(5)
C4 C 0.5188(2) 0.8367(9) 0.2248(4)
H6 H 0.5426 0.7981 0.2067
H7 H 0.5223 0.8531 0.2738
C5 C 0.6147(3) 0.7042(10) 0.6007(5)
C6 C 0.5957(3) 1.0140(10) 0.5559(5)
H8 H 0.5961 1.0042 0.6058
H9 H 0.6215 1.0412 0.5414
C7 C 0.6473(3) 0.6270(10) 0.5973(5)
H10 H 0.6561 0.5668 0.6312
C8 C 0.4523(3) 1.4136(10) 0.4282(6)
H11 H 0.4451 1.4939 0.4539
H12 H 0.4384 1.3355 0.4456
H13 H 0.4462 1.4267 0.3803
C9 C 0.5864(3) 0.8787(9) 0.5245(5)
H14 H 0.5610 0.8500 0.5399
H15 H 0.5856 0.8884 0.4746
C10 C 0.5562(3) 1.4094(9) 0.4479(5)
C11 C 0.3937(3) 0.6373(13) 0.2554(6)
H16 H 0.3953 0.5616 0.2870
H17 H 0.3757 0.6157 0.2192
H18 H 0.3851 0.7178 0.2796
C12 C 0.6573(3) 1.3861(10) 0.2947(6)
H19 H 0.6656 1.3646 0.3408
H20 H 0.6622 1.4812 0.2852
H21 H 0.6711 1.3300 0.2622
C13 C 0.5541(3) 1.3759(9) 0.2755(5)
C14 C 0.5704(2) 1.1622(10) 0.4623(5)
H22 H 0.5970 1.1826 0.4502
H23 H 0.5620 1.0849 0.4344
C15 C 0.6646(3) 0.6525(10) 0.5364(5)
C16 C 0.4946(3) 1.3896(9) 0.4358(5)
C17 C 0.5865(3) 1.4497(10) 0.2771(5)
H24 H 0.5885 1.5443 0.2716
C18 C 0.4828(3) 0.6668(10) 0.1593(4)
C19 C 0.5231(3) 1.4806(10) 0.4402(5)
H25 H 0.5207 1.5757 0.4384
C20 C 0.5128(3) 1.4146(11) 0.2627(6)
H26 H 0.5060 1.3932 0.2158
H27 H 0.5095 1.5113 0.2705
H28 H 0.4963 1.3643 0.2936
C21 C 0.5682(3) 1.1243(11) 0.5373(5)
H29 H 0.5737 1.2049 0.5651
H30 H 0.5421 1.0943 0.5480
C22 C 0.5124(4) 0.6394(10) 0.1087(6)
H31 H 0.5194 0.7234 0.0859
H32 H 0.5027 0.5751 0.0752
H33 H 0.5347 0.6014 0.1312
C23 C 0.6161(3) 1.3593(9) 0.2885(5)
C24 C 0.5968(3) 1.4478(11) 0.4600(6)
H34 H 0.6027 1.4381 0.5083
H35 H 0.6007 1.5415 0.4463
H36 H 0.6134 1.3890 0.4335
C25 C 0.4471(3) 0.6134(9) 0.1659(5)
H37 H 0.4351 0.5533 0.1353
C26 C 0.5855(5) 0.7180(13) 0.6539(6)
H38 H 0.5872 0.8077 0.6743
H39 H 0.5896 0.6495 0.6888
H40 H 0.5603 0.7061 0.6338
C27 C 0.3519(3) 0.4075(11) 0.4088(8)
H41 H 0.3670 0.3261 0.4010
H42 H 0.3398 0.4021 0.4534
H43 H 0.3685 0.4866 0.4072
C28 C 0.7009(4) 0.5980(13) 0.5089(7)
H44 H 0.6956 0.5396 0.4701
H45 H 0.7139 0.5460 0.5442
H46 H 0.7172 0.6726 0.4945
I1 I 0.424304(16) 1.09792(6) 0.32170(3)
I2 I 0.680758(16) 1.09757(6) 0.42736(3)
Mo1 Mo 0.65221(2) 0.81747(7) 0.27325(4)
Mo2 Mo 0.45848(2) 0.84993(7) 0.48191(4)
Cu1 Cu 0.65216(3) 0.81764(11) 0.41041(5)
Cu2 Cu 0.48104(3) 1.09259(11) 0.44047(6)
Cu3 Cu 0.45458(3) 0.82787(11) 0.34566(5)
Cu4 Cu 0.39217(3) 0.96675(11) 0.45237(6)
Cu5 Cu 0.62865(3) 1.06502(11) 0.30407(6)
Cu6 Cu 0.71781(3) 0.93633(13) 0.30084(8)
S1 S 0.60232(5) 0.8674(2) 0.34052(11)
S2 S 0.69823(6) 0.7355(2) 0.34134(13)
S3 S 0.50600(6) 0.8912(2) 0.40829(11)
S4 S 0.41058(5) 0.7562(2) 0.42276(11)
S5 S 0.67386(6) 1.0108(2) 0.22760(11)
S6 S 0.43745(6) 1.0501(2) 0.52188(11)
O1 O 0.4747(2) 0.7415(7) 0.5492(3)
O2 O 0.6396(2) 0.7040(7) 0.2098(3)
N4 N 0.4577(2) 0.7443(8) 0.2556(4)
C29 C 0.2876(3) 1.1503(11) 0.4649(6)
H47 H 0.2694 1.2078 0.4855
N5 N 0.6445(2) 0.7468(8) 0.5026(4)
N6 N 0.2677(2) 0.4874(7) 0.3063(4)
C30 C 0.5404(3) 1.0771(10) 0.2017(5)
H48 H 0.5357 1.1534 0.1706
H49 H 0.5658 1.0402 0.1913
N7 N 0.50827(19) 1.2629(8) 0.4401(4)
C31 C 0.2845(3) 1.0913(9) 0.4046(5)
C32 C 0.3220(3) 1.1126(9) 0.4921(5)
N8 N 0.3403(2) 1.0308(7) 0.4495(4)
C33 C 0.3188(3) 0.3541(10) 0.2933(7)
H50 H 0.3361 0.2913 0.2742
C34 C 0.2663(3) 0.3592(12) 0.2009(7)
H51 H 0.2826 0.2955 0.1766
H52 H 0.2621 0.4390 0.1728
H53 H 0.2420 0.3165 0.2111
N9 N 0.31638(19) 1.0163(7) 0.3955(4)
C35 C 0.3017(2) 0.7934(9) 0.3441(5)
H54 H 0.2746 0.8134 0.3360
H55 H 0.3104 0.7323 0.3076
C36 C 0.3223(3) 0.4192(10) 0.3555(7)
N10 N 0.6022(2) 1.2324(7) 0.2920(4)
N11 N 0.5640(2) 1.2467(7) 0.2845(4)
C37 C 0.5399(2) 1.1288(9) 0.2753(4)
H56 H 0.5136 1.1521 0.2880
H57 H 0.5486 1.0561 0.3058
N12 N 0.2915(2) 0.4968(8) 0.3636(5)
C38 C 0.3404(4) 1.1526(12) 0.5587(5)
H58 H 0.3596 1.0858 0.5710
H59 H 0.3210 1.1569 0.5942
H60 H 0.3524 1.2410 0.5537
C39 C 0.3243(2) 0.9245(9) 0.3399(5)
H61 H 0.3517 0.9030 0.3399
H62 H 0.3184 0.9699 0.2966
C40 C 0.2824(3) 0.5924(10) 0.4164(6)
H63 H 0.2868 0.5499 0.4610
H64 H 0.2551 0.6153 0.4133
C41 C 0.3056(2) 0.7214(9) 0.4119(5)
H65 H 0.3327 0.6995 0.4196
H66 H 0.2975 0.7832 0.4485
C42 C 0.2849(3) 0.3993(9) 0.2645(6)
Cu6C Cu 0.21781(3) 0.56367(13) 0.30084(8)
N6C N 0.7677(2) 1.0126(7) 0.3063(4)
N13 N 0.2889(4) 0.8602(10) 0.1452(5)
C43 C 0.2531(5) 0.813(2) 0.1708(9)
H67 H 0.2358 0.8895 0.1761
H68 H 0.2569 0.7696 0.2148
H69 H 0.2422 0.7483 0.1389
O3 O 0.3133(6) 0.6586(14) 0.1532(8)
C44 C 0.2956(5) 1.0040(16) 0.1311(10)
H70 H 0.2727 1.0555 0.1417
H71 H 0.3020 1.0157 0.0832
H72 H 0.3166 1.0363 0.1592
C45 C 0.3154(6) 0.7703(15) 0.1344(10)
H73 H 0.3374 0.7968 0.1102
N14 N 0.6451(4) 0.3748(14) 0.1010(6)
O4 O 0.7082(7) 0.394(3) 0.1076(17)
C46 C 0.6435(7) 0.246(2) 0.0972(10)
H74 H 0.6171 0.2179 0.0919
H75 H 0.6540 0.2067 0.1387
H76 H 0.6583 0.2154 0.0581
C47 C 0.6726(10) 0.458(3) 0.1062(13)
H77 H 0.6693 0.5528 0.1088
C48 C 0.6082(7) 0.456(2) 0.0952(10)
H78 H 0.6140 0.5520 0.0954
H79 H 0.5917 0.4342 0.1337
H80 H 0.5953 0.4321 0.0529
H81? H 0.2541 0.7154 0.1771
H82? H 0.2330 0.8353 0.1384
H83? H 0.2477 0.8566 0.2143
H84? H 0.3215 1.0161 0.1144
H85? H 0.2922 1.0559 0.1729
H86? H 0.2776 1.0353 0.0969
H87? H 0.6691 0.2088 0.1005
H88? H 0.6322 0.2200 0.0538
H89? H 0.6279 0.2113 0.1344
H90? H 0.5867 0.3936 0.0926
H91? H 0.6090 0.5113 0.0543
H92? H 0.6054 0.5134 0.1351
loop_
_geom_bond_atom_site_label_1
_geom_bond_atom_site_label_2
_geom_bond_site_symmetry_1
_geom_bond_site_symmetry_2
N1 C4 1_555 1_555
N2 C10 1_555 1_555
N3 C5 1_555 1_555
C1 H1 1_555 1_555
H2 C1 1_555 1_555
C2 H3 1_555 1_555
H4 C2 1_555 1_555
H5 C2 1_555 1_555
C3 C11 1_555 1_555
C4 C1 1_555 1_555
H6 C4 1_555 1_555
H7 C4 1_555 1_555
C5 C7 1_555 1_555
C6 H8 1_555 1_555
H9 C6 1_555 1_555
C7 H10 1_555 1_555
C8 H11 1_555 1_555
H12 C8 1_555 1_555
H13 C8 1_555 1_555
C9 N3 1_555 1_555
H14 C9 1_555 1_555
H15 C9 1_555 1_555
C10 C19 1_555 1_555
C11 H16 1_555 1_555
H17 C11 1_555 1_555
H18 C11 1_555 1_555
C12 H19 1_555 1_555
H20 C12 1_555 1_555
H21 C12 1_555 1_555
C13 C17 1_555 1_555
C14 N2 1_555 1_555
H22 C14 1_555 1_555
H23 C14 1_555 1_555
C15 C7 1_555 1_555
C16 C8 1_555 1_555
C17 H24 1_555 1_555
C18 N1 1_555 1_555
C19 C16 1_555 1_555
H25 C19 1_555 1_555
C20 C13 1_555 1_555
H26 C20 1_555 1_555
H27 C20 1_555 1_555
H28 C20 1_555 1_555
C21 C6 1_555 1_555
H29 C21 1_555 1_555
H30 C21 1_555 1_555
C22 C18 1_555 1_555
H31 C22 1_555 1_555
H32 C22 1_555 1_555
H33 C22 1_555 1_555
C23 C12 1_555 1_555
C24 C10 1_555 1_555
H34 C24 1_555 1_555
H35 C24 1_555 1_555
H36 C24 1_555 1_555
C25 C3 1_555 1_555
H37 C25 1_555 1_555
C26 C5 1_555 1_555
H38 C26 1_555 1_555
H39 C26 1_555 1_555
H40 C26 1_555 1_555
C27 H41 1_555 1_555
H42 C27 1_555 1_555
H43 C27 1_555 1_555
C28 C15 1_555 1_555
H44 C28 1_555 1_555
H45 C28 1_555 1_555
H46 C28 1_555 1_555
I1 Cu2 1_555 1_555
I2 Cu1 1_555 1_555
Mo1 S1 1_555 1_555
Mo2 S3 1_555 1_555
Cu1 S1 1_555 1_555
Cu2 S3 1_555 1_555
Cu3 I1 1_555 1_555
Cu4 I1 1_555 1_555
Cu5 I2 1_555 1_555
Cu6 I2 1_555 1_555
S1 Cu5 1_555 1_555
S2 Mo1 1_555 1_555
S3 Cu3 1_555 1_555
S4 Mo2 1_555 1_555
S5 Mo1 1_555 1_555
S6 Mo2 1_555 1_555
O1 Mo2 1_555 1_555
O2 Mo1 1_555 1_555
N4 N1 1_555 1_555
C29 H47 1_555 1_555
N5 N3 1_555 1_555
N6 N12 1_555 1_555
C30 C1 1_555 1_555
H48 C30 1_555 1_555
H49 C30 1_555 1_555
N7 N2 1_555 1_555
C31 C2 1_555 1_555
C32 C29 1_555 1_555
N8 Cu4 1_555 1_555
C33 H50 1_555 1_555
C34 H51 1_555 1_555
H52 C34 1_555 1_555
H53 C34 1_555 1_555
N9 C31 1_555 1_555
C35 H54 1_555 1_555
H55 C35 1_555 1_555
C36 C27 1_555 1_555
N10 C23 1_555 1_555
N11 C13 1_555 1_555
C37 C30 1_555 1_555
H56 C37 1_555 1_555
H57 C37 1_555 1_555
N12 C36 1_555 1_555
C38 C32 1_555 1_555
H58 C38 1_555 1_555
H59 C38 1_555 1_555
H60 C38 1_555 1_555
C39 N9 1_555 1_555
H61 C39 1_555 1_555
H62 C39 1_555 1_555
C40 N12 1_555 1_555
H63 C40 1_555 1_555
H64 C40 1_555 1_555
C41 C35 1_555 1_555
H65 C41 1_555 1_555
H66 C41 1_555 1_555
C42 N6 1_555 1_555
N13 C43 1_555 1_555
C43 H67 1_555 1_555
H68 C43 1_555 1_555
H69 C43 1_555 1_555
O3 C45 1_555 1_555
C44 N13 1_555 1_555
H70 C44 1_555 1_555
H71 C44 1_555 1_555
H72 C44 1_555 1_555
C45 N13 1_555 1_555
H73 C45 1_555 1_555
N14 C46 1_555 1_555
O4 C47 1_555 1_555
C46 H74 1_555 1_555
H75 C46 1_555 1_555
H76 C46 1_555 1_555
C47 N14 1_555 1_555
H77 C47 1_555 1_555
C48 N14 1_555 1_555
H78 C48 1_555 1_555
H79 C48 1_555 1_555
H80 C48 1_555 1_555
Cu6C N6 1_555 1_555
N6C Cu6 1_555 1_555
C3 N4 1_555 1_555
C6 C9 1_555 1_555
C14 C21 1_555 1_555
C15 N5 1_555 1_555
C16 N7 1_555 1_555
C17 C23 1_555 1_555
C18 C25 1_555 1_555
Cu1 S2 1_555 1_555
Cu1 N5 1_555 1_555
Cu2 S6 1_555 1_555
Cu2 N7 1_555 1_555
Cu3 S4 1_555 1_555
Cu3 N4 1_555 1_555
Cu4 S4 1_555 1_555
Cu4 S6 1_555 1_555
Cu5 S5 1_555 1_555
Cu5 N10 1_555 1_555
Cu6 S2 1_555 1_555
Cu6 S5 1_555 1_555
C29 C31 1_555 1_555
C32 N8 1_555 1_555
N8 N9 1_555 1_555
C33 C36 1_555 1_555
C33 C42 1_555 1_555
C34 C42 1_555 1_555
C35 C39 1_555 1_555
N10 N11 1_555 1_555
N11 C37 1_555 1_555
C40 C41 1_555 1_555

#END
