
#######################################################################
#
#                 Cambridge Crystallographic Data Centre
#                                CCDC 
#
#######################################################################
#
# If this CIF has been generated from an entry in the Cambridge 
# Structural Database, then it will include bibliographic, chemical, 
# crystal, experimental, refinement or atomic coordinate data resulting 
# from the CCDC's data processing and validation procedures.
#
#######################################################################

data_PUKSIZ
_symmetry_cell_setting           monoclinic
_symmetry_space_group_name_H-M   'C 2/c'
_symmetry_Int_Tables_number      15
_space_group_name_Hall           '-C 2yn'
loop_
_symmetry_equiv_pos_site_id
_symmetry_equiv_pos_as_xyz
1 x,y,z
2 -x,y,1/2-z
3 1/2+x,1/2+y,z
4 1/2-x,1/2+y,1/2-z
5 -x,-y,-z
6 x,-y,1/2+z
7 1/2-x,1/2-y,-z
8 1/2+x,1/2-y,1/2+z
_cell_length_a                   23.091(5)
_cell_length_b                   14.312(3)
_cell_length_c                   14.851(3)
_cell_angle_alpha                90
_cell_angle_beta                 129.22(3)
_cell_angle_gamma                90
_cell_volume                     3802.29
loop_
_atom_site_label
_atom_site_type_symbol
_atom_site_fract_x
_atom_site_fract_y
_atom_site_fract_z
Cd1 Cd 1.05598(2) 0.28929(3) 0.52918(3)
O1 O 1.0881(3) 0.1523(4) 0.6495(5)
O2 O 1.1557(3) 0.1808(4) 0.6062(5)
O3 O 1.0095(3) 0.4301(3) 0.4192(4)
O4 O 1.1022(3) 0.3755(4) 0.4477(4)
N1 N 0.6415(2) -0.1217(3) -0.3025(4)
N2 N 0.9707(3) 0.2031(3) 0.3548(5)
N3 N 0.9541(2) 0.3019(3) 0.5314(4)
N4 N 0.7524(3) 0.2831(3) 0.4752(5)
N5 N 1.1431(4) 0.1287(5) 0.6598(6)
N6 N 1.0565(4) 0.4400(4) 0.4057(5)
C1 C 0.9129(8) 0.0649(7) 0.2459(8)
H1 H 0.9109 0.0000 0.2448
C2 C 0.8630(6) 0.1115(8) 0.1490(7)
C3 C 0.8654(5) 0.2036(7) 0.1522(6)
H2 H 0.8307 0.2385 0.0859
C4 C 0.7453(3) -0.0192(4) -0.1059(4)
C5 C 0.7673(4) -0.0708(5) -0.1583(5)
H3 H 0.8170 -0.0725 -0.1278
C6 C 0.7136(3) -0.1188(4) -0.2560(5)
H4 H 0.7278 -0.1520 -0.2931
C7 C 0.6735(4) -0.0185(4) -0.1507(5)
H5 H 0.6584 0.0167 -0.1162
C8 C 0.6220(3) -0.0713(4) -0.2493(5)
H6 H 0.5724 -0.0718 -0.2794
C9 C 0.9692(6) 0.1111(5) 0.3513(7)
H7 H 1.0049 0.0767 0.4176
C10 C 0.9208(4) 0.2473(6) 0.2568(5)
H8 H 0.9227 0.3122 0.2574
C11 C 0.9463(4) 0.2423(6) 0.5920(6)
H9 H 0.9870 0.2049 0.6466
C12 C 0.8830(4) 0.2322(5) 0.5796(6)
H10 H 0.8807 0.1894 0.6244
C13 C 0.8230(3) 0.2868(4) 0.4995(5)
C14 C 0.8283(3) 0.3507(4) 0.4359(5)
H11 H 0.7878 0.3883 0.3805
C15 C 0.8960(3) 0.3574(4) 0.4571(6)
H12 H 0.9011 0.4027 0.4176
N7 N 0.7889(4) 0.0720(6) 0.0190(7)
N8 N 0.8221(5) 0.0193(5) 0.0219(8)
N3F N 0.5459(2) 0.1981(3) 0.4686(4)
N4F N 0.7476(3) 0.2169(3) 0.5248(5)
C11F C 0.5537(4) 0.2577(6) 0.4080(6)
H9F H 0.5130 0.2951 0.3534
C12F C 0.6170(4) 0.2678(5) 0.4204(6)
H10F H 0.6193 0.3106 0.3756
C13F C 0.6770(3) 0.2132(4) 0.5005(5)
C14F C 0.6717(3) 0.1493(4) 0.5641(5)
H11F H 0.7122 0.1117 0.6195
C15F C 0.6040(3) 0.1426(4) 0.5429(6)
H12F H 0.5989 0.0973 0.5824
Cd1F Cd 0.44402(2) 0.21071(3) 0.47082(3)
O1F O 0.4119(3) 0.3477(4) 0.3505(5)
O2F O 0.3443(3) 0.3192(4) 0.3938(5)
O3F O 0.4905(3) 0.0699(3) 0.5808(4)
O4F O 0.3978(3) 0.1245(4) 0.5523(4)
N1F N 0.8585(2) 0.6217(3) 1.3025(4)
N2F N 0.5293(3) 0.2969(3) 0.6452(5)
N5F N 0.3569(4) 0.3713(5) 0.3402(6)
N6F N 0.4435(4) 0.0600(4) 0.5943(5)
C1F C 0.5871(8) 0.4351(7) 0.7541(8)
H1F H 0.5891 0.5000 0.7552
C2F C 0.6370(6) 0.3885(8) 0.8510(7)
C3F C 0.6346(5) 0.2964(7) 0.8478(6)
H2F H 0.6693 0.2615 0.9141
C4F C 0.7547(3) 0.5192(4) 1.1059(4)
C5F C 0.7327(4) 0.5708(5) 1.1583(5)
H3F H 0.6830 0.5725 1.1278
C6F C 0.7864(3) 0.6188(4) 1.2560(5)
H4F H 0.7722 0.6520 1.2931
C7F C 0.8265(4) 0.5185(4) 1.1507(5)
H5F H 0.8416 0.4833 1.1162
C8F C 0.8780(3) 0.5713(4) 1.2493(5)
H6F H 0.9276 0.5718 1.2794
C9F C 0.5308(6) 0.3889(5) 0.6487(7)
H7F H 0.4951 0.4233 0.5824
C10F C 0.5792(4) 0.2527(6) 0.7432(5)
H8F H 0.5773 0.1878 0.7426
N7F N 0.7111(4) 0.4280(6) 0.9810(7)
N8F N 0.6779(5) 0.4807(5) 0.9781(8)
Cd1B Cd 0.55598(2) -0.21071(3) -0.47082(3)
Cd1D Cd 0.94402(2) 0.71071(3) 1.47082(3)
N1B N 1.1415(2) 0.3783(3) 0.6975(4)
N1D N 0.3585(2) 0.1217(3) 0.3025(4)
loop_
_geom_bond_atom_site_label_1
_geom_bond_atom_site_label_2
_geom_bond_site_symmetry_1
_geom_bond_site_symmetry_2
Cd1 O1 1_555 1_555
O1 N5 1_555 1_555
O2 Cd1 1_555 1_555
O3 Cd1 1_555 1_555
O4 Cd1 1_555 1_555
N1 C6 1_555 1_555
N2 Cd1 1_555 1_555
N3 Cd1 1_555 1_555
N4 C13 1_555 1_555
N5 O2 1_555 1_555
N6 O3 1_555 1_555
C1 H1 1_555 1_555
C2 C1 1_555 1_555
C3 C2 1_555 1_555
H2 C3 1_555 1_555
C4 C5 1_555 1_555
C5 H3 1_555 1_555
C6 C5 1_555 1_555
H4 C6 1_555 1_555
C7 C4 1_555 1_555
H5 C7 1_555 1_555
C8 N1 1_555 1_555
H6 C8 1_555 1_555
C9 N2 1_555 1_555
H7 C9 1_555 1_555
C10 N2 1_555 1_555
H8 C10 1_555 1_555
C11 N3 1_555 1_555
H9 C11 1_555 1_555
C12 C11 1_555 1_555
H10 C12 1_555 1_555
C13 C12 1_555 1_555
C14 C13 1_555 1_555
H11 C14 1_555 1_555
C15 N3 1_555 1_555
H12 C15 1_555 1_555
N7 C2 1_555 1_555
N8 C4 1_555 1_555
N3F C11F 1_555 1_555
N4F N4 1_555 1_555
C11F H9F 1_555 1_555
C12F C11F 1_555 1_555
H10F C12F 1_555 1_555
C13F N4F 1_555 1_555
C14F C13F 1_555 1_555
H11F C14F 1_555 1_555
C15F N3F 1_555 1_555
H12F C15F 1_555 1_555
Cd1F N3F 1_555 1_555
O1F Cd1F 1_555 1_555
O2F Cd1F 1_555 1_555
O3F Cd1F 1_555 1_555
O4F Cd1F 1_555 1_555
N1F C6F 1_555 1_555
N2F Cd1F 1_555 1_555
N5F O1F 1_555 1_555
N6F O3F 1_555 1_555
C1F H1F 1_555 1_555
C2F C1F 1_555 1_555
C3F C2F 1_555 1_555
H2F C3F 1_555 1_555
C4F C5F 1_555 1_555
C5F H3F 1_555 1_555
C6F C5F 1_555 1_555
H4F C6F 1_555 1_555
C7F C4F 1_555 1_555
H5F C7F 1_555 1_555
C8F N1F 1_555 1_555
H6F C8F 1_555 1_555
C9F N2F 1_555 1_555
H7F C9F 1_555 1_555
C10F N2F 1_555 1_555
H8F C10F 1_555 1_555
N7F C2F 1_555 1_555
N8F C4F 1_555 1_555
Cd1B N1 1_555 1_555
Cd1D N1F 1_555 1_555
N1B Cd1 1_555 1_555
N1D Cd1F 1_555 1_555
O4 N6 1_555 1_555
C1 C9 1_555 1_555
C3 C10 1_555 1_555
C7 C8 1_555 1_555
C14 C15 1_555 1_555
N7 N8 1_555 1_555
C12F C13F 1_555 1_555
C14F C15F 1_555 1_555
O2F N5F 1_555 1_555
O4F N6F 1_555 1_555
C1F C9F 1_555 1_555
C3F C10F 1_555 1_555
C7F C8F 1_555 1_555
N7F N8F 1_555 1_555

#END
