
#######################################################################
#
#                 Cambridge Crystallographic Data Centre
#                                CCDC 
#
#######################################################################
#
# If this CIF has been generated from an entry in the Cambridge 
# Structural Database, then it will include bibliographic, chemical, 
# crystal, experimental, refinement or atomic coordinate data resulting 
# from the CCDC's data processing and validation procedures.
#
#######################################################################

data_PUKTAR
_symmetry_cell_setting           monoclinic
_symmetry_space_group_name_H-M   'P 21/c'
_symmetry_Int_Tables_number      14
_space_group_name_Hall           '-P 2ybc'
loop_
_symmetry_equiv_pos_site_id
_symmetry_equiv_pos_as_xyz
1 x,y,z
2 -x,1/2+y,1/2-z
3 -x,-y,-z
4 x,1/2-y,1/2+z
_cell_length_a                   19.204(4)
_cell_length_b                   11.005(2)
_cell_length_c                   11.240(2)
_cell_angle_alpha                90
_cell_angle_beta                 106.93(3)
_cell_angle_gamma                90
_cell_volume                     2272.51
loop_
_atom_site_label
_atom_site_type_symbol
_atom_site_fract_x
_atom_site_fract_y
_atom_site_fract_z
Ho1 Ho 0.261419(12) 0.67523(2) 0.309544(19)
Ho2 Ho 0.233009(12) 1.01796(2) 0.450770(19)
Cl1 Cl 0.24836(8) 0.78388(12) 0.51859(10)
Cl2 Cl 0.25150(8) 1.23916(11) 0.41401(11)
Cl3 Cl 0.39368(7) 0.71174(14) 0.31445(11)
Cl4 Cl 0.09473(7) 1.01463(14) 0.37540(12)
Cl5 Cl 0.25173(7) 1.03877(11) 0.69175(10)
Cl6 Cl 0.25058(7) 0.92088(12) 0.24882(10)
N1 N 0.3283(2) 0.5453(4) 0.4824(4)
N2 N 0.6327(3) 0.4996(4) 0.9769(4)
N3 N -0.1361(3) 0.2131(5) 0.3178(4)
N4 N 0.1741(2) 0.5502(4) 0.3870(4)
C1 C 0.4652(3) 0.4804(5) 0.7520(4)
C2 C 0.1412(3) 0.4836(5) 0.4273(4)
C3 C -0.0081(3) 0.2786(5) 0.4488(5)
C4 C 0.5761(3) 0.4634(5) 0.9249(5)
C5 C -0.0803(3) 0.2426(5) 0.3761(5)
C6 C 0.3746(3) 0.3214(6) 0.7161(5)
C7 C 0.5060(3) 0.4164(5) 0.8567(4)
C8 C 0.3586(3) 0.4941(5) 0.5707(4)
C9 C 0.0992(3) 0.3962(5) 0.4735(5)
C10 C 0.1325(3) 0.3377(5) 0.5869(4)
C11 C 0.3997(3) 0.4303(5) 0.6808(4)
C12 C 0.0285(3) 0.3679(5) 0.4043(5)
C13 C 0.4805(3) 0.3073(5) 0.8920(5)
C14 C 0.0241(3) 0.2204(6) 0.5621(5)
C15 C 0.0941(3) 0.2513(5) 0.6308(5)
C16 C 0.4143(3) 0.2611(6) 0.8213(5)
H1 H 0.176(3) 0.365(6) 0.633(5)
H2 H 0.333(3) 0.289(6) 0.672(5)
H3 H 0.119(3) 0.204(5) 0.709(5)
H4 H 0.397(3) 0.185(5) 0.844(4)
H5 H 0.499(3) 0.275(6) 0.966(5)
H6 H 0.490(4) 0.564(6) 0.726(6)
H7 H -0.003(4) 0.168(7) 0.595(6)
H8 H 0.008(3) 0.398(5) 0.331(5)
Ho1A Ho -0.261419(12) 0.17523(2) 0.190456(19)
Ho1C Ho 0.261419(12) 0.82477(2) 0.809544(19)
Ho2A Ho 0.766991(12) 0.51796(2) 1.049230(19)
Cl5C Cl 0.25173(7) 0.46123(11) 0.19175(10)
N2A N 0.3673(3) 0.9996(4) 0.5231(4)
N3A N 0.1361(3) 0.7131(5) 0.1822(4)
loop_
_geom_bond_atom_site_label_1
_geom_bond_atom_site_label_2
_geom_bond_site_symmetry_1
_geom_bond_site_symmetry_2
Ho1 Cl1 1_555 1_555
Ho2 Cl1 1_555 1_555
Cl2 Ho2 1_555 1_555
Cl3 Ho1 1_555 1_555
Cl4 Ho2 1_555 1_555
Cl5 Ho2 1_555 1_555
Cl6 Ho1 1_555 1_555
N1 Ho1 1_555 1_555
N2 C4 1_555 1_555
N3 C5 1_555 1_555
N4 Ho1 1_555 1_555
C1 C7 1_555 1_555
C2 N4 1_555 1_555
C3 C5 1_555 1_555
C4 C7 1_555 1_555
C6 C11 1_555 1_555
C7 C13 1_555 1_555
C8 N1 1_555 1_555
C9 C2 1_555 1_555
C10 C9 1_555 1_555
C11 C1 1_555 1_555
C12 C3 1_555 1_555
C13 C16 1_555 1_555
C14 C3 1_555 1_555
C15 C10 1_555 1_555
C16 C6 1_555 1_555
H1 C10 1_555 1_555
H2 C6 1_555 1_555
H3 C15 1_555 1_555
H4 C16 1_555 1_555
H5 C13 1_555 1_555
H6 C1 1_555 1_555
H7 C14 1_555 1_555
H8 C12 1_555 1_555
Ho1A N3 1_555 1_555
Ho1C Cl5 1_555 1_555
Ho2A N2 1_555 1_555
Cl5C Ho1 1_555 1_555
N2A Ho2 1_555 1_555
N3A Ho1 1_555 1_555
Ho2 Cl6 1_555 1_555
C8 C11 1_555 1_555
C9 C12 1_555 1_555
C14 C15 1_555 1_555

#END
