
#######################################################################
#
#                 Cambridge Crystallographic Data Centre
#                                CCDC 
#
#######################################################################
#
# If this CIF has been generated from an entry in the Cambridge 
# Structural Database, then it will include bibliographic, chemical, 
# crystal, experimental, refinement or atomic coordinate data resulting 
# from the CCDC's data processing and validation procedures.
#
#######################################################################

data_PULFUY
_symmetry_cell_setting           triclinic
_symmetry_space_group_name_H-M   'P -1'
_symmetry_Int_Tables_number      2
_space_group_name_Hall           '-P 1'
loop_
_symmetry_equiv_pos_site_id
_symmetry_equiv_pos_as_xyz
1 x,y,z
2 -x,-y,-z
_cell_length_a                   9.4698(19)
_cell_length_b                   11.046(2)
_cell_length_c                   11.225(2)
_cell_angle_alpha                87.95(3)
_cell_angle_beta                 74.60(3)
_cell_angle_gamma                81.25(3)
_cell_volume                     1118.83
loop_
_atom_site_label
_atom_site_type_symbol
_atom_site_fract_x
_atom_site_fract_y
_atom_site_fract_z
Cd1 Cd 0.52070(3) 0.41439(3) 0.34199(3)
Cd2 Cd 0.64181(3) 0.07398(3) 0.36784(3)
O1 O 0.3197(6) 0.5271(6) 0.2966(4)
H1 H 0.234(6) 0.533(9) 0.334(7)
H2 H 0.334(9) 0.542(8) 0.226(5)
O2 O 0.8407(5) -0.0372(5) 0.4165(4)
H3 H 0.856(8) -0.035(7) 0.484(5)
H4 H 0.913(7) -0.065(7) 0.367(5)
O3 O 0.4216(4) 0.2201(3) 0.3602(3)
H5 H 0.357(5) 0.236(5) 0.421(4)
H6 H 0.392(6) 0.204(5) 0.305(4)
O4 O 0.6930(4) 0.2714(3) 0.4125(3)
H7 H 0.785(5) 0.282(5) 0.380(4)
H8 H 0.697(6) 0.246(5) 0.482(4)
O8 O 0.5601(4) 0.3450(3) 0.1330(3)
O9 O 0.6534(4) 0.3869(3) -0.0650(3)
O10 O 0.7650(4) 0.7059(3) 0.4239(3)
O11 O 0.6058(3) 0.5709(3) 0.4488(2)
O12 O 0.9785(3) 0.7025(3) -0.0467(3)
H15 H 1.0101 0.7530 -0.0128
O13 O 0.8917(4) 0.1309(3) -0.0127(3)
O14 O 0.8209(4) 0.1305(3) 0.1924(3)
O15 O 0.3620(4) -0.2126(3) 0.3464(3)
O16 O 0.4704(3) -0.0783(3) 0.4217(2)
O17 O 0.6206(4) -0.2002(3) -0.1165(3)
H16 H 0.5539 -0.2424 -0.1018
N1 N 0.6853(4) 0.5191(3) 0.2074(3)
N2 N 0.6294(4) -0.0248(3) 0.1980(3)
C1 C 0.7517(4) 0.6039(4) 0.2458(4)
C2 C 0.8521(5) 0.6681(4) 0.1661(4)
H17 H 0.8973 0.7250 0.1962
C3 C 0.8843(4) 0.6452(4) 0.0384(4)
C4 C 0.8121(5) 0.5600(4) -0.0011(4)
H18 H 0.8286 0.5445 -0.0849
C5 C 0.7164(5) 0.4988(4) 0.0850(4)
C6 C 0.6387(5) 0.4027(4) 0.0453(4)
C7 C 0.7053(5) 0.6292(4) 0.3840(4)
C8 C 0.7175(5) -0.0014(4) 0.0867(4)
C9 C 0.7161(5) -0.0595(4) -0.0199(4)
H19 H 0.7788 -0.0421 -0.0955
C10 C 0.6204(5) -0.1440(4) -0.0126(4)
C11 C 0.5285(4) -0.1695(4) 0.1030(4)
H20 H 0.4631 -0.2259 0.1107
C12 C 0.5383(4) -0.1082(3) 0.2051(3)
C13 C 0.4476(4) -0.1350(4) 0.3346(3)
C14 C 0.8166(5) 0.0942(4) 0.0888(4)
Cd1A Cd 0.47930(3) 0.58561(3) 0.65801(3)
Cd2A Cd 0.35819(3) -0.07398(3) 0.63216(3)
O11A O 0.3942(3) 0.4291(3) 0.5512(2)
O16A O 0.5296(3) 0.0783(3) 0.5783(2)
O5 O 0.8490(6) -0.0944(5) 0.6507(4)
H9 H 0.914(8) -0.042(6) 0.649(8)
H10 H 0.932(8) -0.155(6) 0.649(7)
O6 O 0.9715(5) 0.3100(5) 0.3046(4)
H11 H 0.981(8) 0.301(6) 0.231(5)
H12 H 0.992(8) 0.379(5) 0.321(6)
O7 O 0.8980(5) 0.1429(7) -0.2573(4)
H13 H 0.878(10) 0.142(8) -0.183(5)
H14 H 0.833(9) 0.198(7) -0.281(8)
O18 O 0.0367(8) 0.5334(8) 0.3812(8)
C15 C 0.051(2) 0.607(2) 0.4584(18)
loop_
_geom_bond_atom_site_label_1
_geom_bond_atom_site_label_2
_geom_bond_site_symmetry_1
_geom_bond_site_symmetry_2
Cd1 O1 1_555 1_555
Cd2 O2 1_555 1_555
O1 H1 1_555 1_555
H2 O1 1_555 1_555
O2 H3 1_555 1_555
H4 O2 1_555 1_555
O3 Cd1 1_555 1_555
H5 O3 1_555 1_555
H6 O3 1_555 1_555
O4 Cd1 1_555 1_555
H7 O4 1_555 1_555
H8 O4 1_555 1_555
O5 H9 1_555 1_555
H10 O5 1_555 1_555
O6 H11 1_555 1_555
H12 O6 1_555 1_555
O7 H13 1_555 1_555
H14 O7 1_555 1_555
O8 Cd1 1_555 1_555
O9 C6 1_555 1_555
O10 C7 1_555 1_555
O11 Cd1 1_555 1_555
O12 H15 1_555 1_555
O13 C14 1_555 1_555
O14 Cd2 1_555 1_555
O15 C13 1_555 1_555
O16 Cd2 1_555 1_555
O17 H16 1_555 1_555
O18 C15 1_555 1_555
N1 Cd1 1_555 1_555
N2 Cd2 1_555 1_555
C1 N1 1_555 1_555
C2 C1 1_555 1_555
H17 C2 1_555 1_555
C3 O12 1_555 1_555
C4 C3 1_555 1_555
H18 C4 1_555 1_555
C5 N1 1_555 1_555
C6 O8 1_555 1_555
C7 O11 1_555 1_555
C8 N2 1_555 1_555
C9 C8 1_555 1_555
H19 C9 1_555 1_555
C10 O17 1_555 1_555
C11 C10 1_555 1_555
H20 C11 1_555 1_555
C12 N2 1_555 1_555
C13 O16 1_555 1_555
C14 O14 1_555 1_555
Cd1A O11 1_555 1_555
Cd2A O16 1_555 1_555
O11A Cd1 1_555 1_555
O16A Cd2 1_555 1_555
Cd2 O3 1_555 1_555
Cd2 O4 1_555 1_555
C1 C7 1_555 1_555
C2 C3 1_555 1_555
C4 C5 1_555 1_555
C5 C6 1_555 1_555
C8 C14 1_555 1_555
C9 C10 1_555 1_555
C11 C12 1_555 1_555
C12 C13 1_555 1_555
Cd1A O11A 1_555 1_555
Cd2A O16A 1_555 1_555

#END
