
#######################################################################
#
#                 Cambridge Crystallographic Data Centre
#                                CCDC 
#
#######################################################################
#
# If this CIF has been generated from an entry in the Cambridge 
# Structural Database, then it will include bibliographic, chemical, 
# crystal, experimental, refinement or atomic coordinate data resulting 
# from the CCDC's data processing and validation procedures.
#
#######################################################################

data_PULJAJ
_symmetry_cell_setting           monoclinic
_symmetry_space_group_name_H-M   'P n'
_symmetry_Int_Tables_number      7
_space_group_name_Hall           'P -2yac'
loop_
_symmetry_equiv_pos_site_id
_symmetry_equiv_pos_as_xyz
1 x,y,z
2 1/2+x,-y,1/2+z
_cell_length_a                   11.47950(10)
_cell_length_b                   8.88620(10)
_cell_length_c                   15.96480(10)
_cell_angle_alpha                90
_cell_angle_beta                 93.7080(10)
_cell_angle_gamma                90
_cell_volume                     1625.15
loop_
_atom_site_label
_atom_site_type_symbol
_atom_site_fract_x
_atom_site_fract_y
_atom_site_fract_z
Cu1 Cu 0.68652(2) 0.92786(3) 0.482952(16)
Cu2 Cu 0.233428(19) 1.42829(3) 0.613030(15)
O1 O 0.38849(14) 1.37554(18) 0.58238(10)
O2 O 0.42189(15) 1.02702(19) 0.41827(10)
C1 C 0.3250(2) 0.8565(2) 0.50597(13)
C2 C 0.2165(2) 0.9271(2) 0.50294(16)
H1 H 0.2062 1.0228 0.477
C3 C 0.6390(2) 0.5029(3) 0.36034(17)
H2 H 0.5727 0.4457 0.3408
C4 C 0.6677(2) 0.1964(3) 0.29840(14)
O3 O -0.04946(14) 0.68344(19) 0.62020(11)
N1 N 0.24578(16) 0.6447(2) 0.57510(11)
C5 C 0.4318(2) 0.9270(2) 0.47112(15)
C6 C 0.7495(2) 0.4472(3) 0.35145(14)
C7 C 0.8766(2) 1.1173(3) 0.49660(14)
O4 O 0.14924(15) 1.3702(2) 0.48813(10)
C8 C 0.8422(2) 0.5370(3) 0.38292(16)
H3 H 0.9202 0.5034 0.3789
C9 C 0.3355(2) 0.7137(3) 0.54279(14)
H4 H 0.4091 0.6645 0.5448
O5 O 0.07982(14) 0.49933(19) 0.64467(10)
O6 O 0.84433(14) 0.99326(19) 0.46197(11)
C10 C 0.6238(2) 0.6416(3) 0.39767(18)
H5 H 0.5464 0.6768 0.4028
O7 O 0.75011(16) 0.8703(2) 0.61526(11)
O8 O 0.48801(15) 1.5117(2) 0.68124(11)
C11 C 0.8212(2) 0.6747(3) 0.41998(16)
H6 H 0.8858 0.7331 0.4412
O9 O 0.52721(14) 0.87281(19) 0.50433(10)
C12 C 0.7806(2) 1.2077(3) 0.53354(14)
N2 N 0.71273(17) 0.7288(2) 0.42697(12)
N3 N 0.71449(17) -0.2286(2) 0.17325(12)
N4 N 0.67417(17) 1.1438(2) 0.52204(12)
O10 O 0.97704(15) 1.16621(19) 0.50135(12)
C13 C 0.14212(19) 0.7159(2) 0.57388(13)
C14 C 0.1236(2) 0.8566(3) 0.53810(14)
H7 H 0.0492 0.9036 0.5377
C15 C 0.7970(2) 1.3443(3) 0.57409(15)
H8 H 0.8726 1.3878 0.5809
C16 C 0.8011(2) -0.1273(3) 0.18077(15)
H9 H 0.8727 -0.1508 0.157
C17 C 0.5819(2) 1.2161(3) 0.54906(14)
H10 H 0.5068 1.1726 0.5388
C18 C 0.0485(2) 0.6283(3) 0.61513(14)
C19 C 0.5913(2) 1.3518(3) 0.59135(13)
C20 C 0.7016(2) 1.4171(2) 0.60466(16)
H11 H 0.7112 1.5096 0.6341
C21 C 0.5979(2) -0.0568(2) 0.24684(15)
H12 H 0.525 -0.035 0.2691
C22 C 0.7922(2) 0.0093(3) 0.22118(15)
H13 H 0.8567 0.0765 0.2255
C23 C 0.6136(2) -0.1918(3) 0.20628(15)
H14 H 0.5506 -0.2613 0.2015
C24 C 0.6880(2) 0.0474(3) 0.25539(14)
C25 C 0.7735(2) 0.3001(3) 0.30867(14)
C26 C 0.4819(2) 1.4213(2) 0.62193(15)
H15 H 0.0949(16) 1.312(2) 0.4935(16)
H16 H 0.1908(18) 1.336(3) 0.4536(14)
H17 H 0.642(2) 0.172(3) 0.3522(18)
H18 H 0.808(2) 0.324(3) 0.2503(17)
H19 H 0.844(2) 0.251(3) 0.3408(17)
H20 H 0.607(2) 0.252(3) 0.2641(17)
H21 H 0.697(3) 0.832(3) 0.6402(17)
H22 H 0.805(3) 0.830(3) 0.6232(18)
Cu2_2 Cu 0.233428(19) 0.42829(3) 0.613030(15)
Cu2A Cu 0.733428(19) -0.42829(3) 0.113030(15)
N1_2 N 0.24578(16) 1.6447(2) 0.57510(11)
O5_2 O 0.07982(14) 1.49933(19) 0.64467(10)
N3A N 0.21449(17) 1.2286(2) 0.67325(12)
O11 O 0.26080(15) 0.2382(2) 0.36044(10)
H23 H 0.307(3) 0.306(4) 0.3402(19)
H24 H 0.309(3) 0.169(3) 0.3738(17)
O12 O 0.08810(17) 0.2135(2) 0.22695(11)
H25 H 0.143(3) 0.235(3) 0.2721(18)
H26 H 0.057(2) 0.310(3) 0.2190(17)
O13 O 0.37271(17) 0.43361(19) 0.26833(12)
H27 H 0.384(2) 0.5273(12) 0.2713(16)
H28 H 0.398(2) 0.406(3) 0.2228(11)
N5 N 0.17852(17) 0.7722(2) 0.30877(11)
C27 C 0.1660(2) 0.6300(3) 0.35206(15)
H29 H 0.0855 0.6195 0.3684
H30 H 0.2196 0.6274 0.4023
H31 H 0.1843 0.547 0.3147
C28 C 0.2787(2) 0.8155(3) 0.27953(16)
H32 H 0.2809 0.909 0.2508
C29 C 0.0725(2) 0.8606(3) 0.29618(17)
H33 H 0.0087 0.8095 0.3225
H34 H 0.0524 0.8719 0.2359
H35 H 0.0849 0.9602 0.3216
O14 O 0.36906(16) 0.7406(2) 0.28772(13)
loop_
_geom_bond_atom_site_label_1
_geom_bond_atom_site_label_2
_geom_bond_site_symmetry_1
_geom_bond_site_symmetry_2
Cu1 O6 1_555 1_555
Cu2 O1 1_555 1_555
O1 C26 1_555 1_555
O2 C5 1_555 1_555
C1 C2 1_555 1_555
C2 H1 1_555 1_555
C3 H2 1_555 1_555
C4 C24 1_555 1_555
O3 C18 1_555 1_555
N1 C9 1_555 1_555
C5 C1 1_555 1_555
C6 C3 1_555 1_555
C7 O6 1_555 1_555
O4 Cu2 1_555 1_555
C8 C6 1_555 1_555
H3 C8 1_555 1_555
C9 C1 1_555 1_555
H4 C9 1_555 1_555
O5 C18 1_555 1_555
C10 C3 1_555 1_555
H5 C10 1_555 1_555
O7 Cu1 1_555 1_555
O8 C26 1_555 1_555
C11 C8 1_555 1_555
H6 C11 1_555 1_555
O9 Cu1 1_555 1_555
C12 C7 1_555 1_555
N2 Cu1 1_555 1_555
N3 C16 1_555 1_555
N4 Cu1 1_555 1_555
O10 C7 1_555 1_555
C13 N1 1_555 1_555
C14 C2 1_555 1_555
H7 C14 1_555 1_555
C15 C12 1_555 1_555
H8 C15 1_555 1_555
C16 H9 1_555 1_555
C17 N4 1_555 1_555
H10 C17 1_555 1_555
C18 C13 1_555 1_555
C19 C17 1_555 1_555
C20 C15 1_555 1_555
H11 C20 1_555 1_555
C21 H12 1_555 1_555
C22 C16 1_555 1_555
H13 C22 1_555 1_555
C23 N3 1_555 1_555
H14 C23 1_555 1_555
C24 C21 1_555 1_555
C25 C4 1_555 1_555
C26 C19 1_555 1_555
H15 O4 1_555 1_555
H16 O4 1_555 1_555
H17 C4 1_555 1_555
H18 C25 1_555 1_555
H19 C25 1_555 1_555
H20 C4 1_555 1_555
H21 O7 1_555 1_555
H22 O7 1_555 1_555
O11 H23 1_555 1_555
H24 O11 1_555 1_555
O12 H25 1_555 1_555
H26 O12 1_555 1_555
O13 H27 1_555 1_555
H28 O13 1_555 1_555
N5 C27 1_555 1_555
C27 H29 1_555 1_555
H30 C27 1_555 1_555
H31 C27 1_555 1_555
C28 N5 1_555 1_555
H32 C28 1_555 1_555
C29 N5 1_555 1_555
H33 C29 1_555 1_555
H34 C29 1_555 1_555
H35 C29 1_555 1_555
O14 C28 1_555 1_555
Cu2_2 N1 1_555 1_555
Cu2A N3 1_555 1_555
N1_2 Cu2 1_555 1_555
O5_2 Cu2 1_555 1_555
N3A Cu2 1_555 1_555
C5 O9 1_555 1_555
C6 C25 1_555 1_555
O5 Cu2_2 1_555 1_555
C10 N2 1_555 1_555
C11 N2 1_555 1_555
C12 N4 1_555 1_555
C13 C14 1_555 1_555
C19 C20 1_555 1_555
C21 C23 1_555 1_555
C22 C24 1_555 1_555

#END
