
#######################################################################
#
#                 Cambridge Crystallographic Data Centre
#                                CCDC 
#
#######################################################################
#
# If this CIF has been generated from an entry in the Cambridge 
# Structural Database, then it will include bibliographic, chemical, 
# crystal, experimental, refinement or atomic coordinate data resulting 
# from the CCDC's data processing and validation procedures.
#
#######################################################################

data_PUMGEL
_symmetry_cell_setting           monoclinic
_symmetry_space_group_name_H-M   'P 21/c'
_symmetry_Int_Tables_number      14
_space_group_name_Hall           '-P 2ybc'
loop_
_symmetry_equiv_pos_site_id
_symmetry_equiv_pos_as_xyz
1 x,y,z
2 -x,1/2+y,1/2-z
3 -x,-y,-z
4 x,1/2-y,1/2+z
_cell_length_a                   12.303(3)
_cell_length_b                   6.0083(12)
_cell_length_c                   25.308(5)
_cell_angle_alpha                90
_cell_angle_beta                 101.40(3)
_cell_angle_gamma                90
_cell_volume                     1833.86
loop_
_atom_site_label
_atom_site_type_symbol
_atom_site_fract_x
_atom_site_fract_y
_atom_site_fract_z
Zn1 Zn 1.0000 1.0000 0.0000
Zn2 Zn 0.93485(6) 0.52950(13) 0.21961(3)
S1 S 0.99140(13) 0.8131(3) 0.12419(6)
O1 O 1.0977(4) 0.8548(9) 0.1596(2)
N1 N 1.1687(4) 1.0503(9) 0.0226(2)
O2 O 1.0004(5) 0.2379(8) 0.2265(2)
N2 N 0.7682(4) 0.4937(9) 0.2112(2)
O3 O 1.0047(4) 0.7653(8) 0.06819(17)
C1 C 1.6883(5) 1.0818(11) 0.0865(2)
H1 H 1.7534 1.0005 0.0968
O4 O 0.9384(4) 0.6142(8) 0.14277(18)
O5 O 0.9653(4) 1.2903(9) 0.0463(2)
O6 O 0.9185(4) 1.0059(9) 0.12433(19)
C2 C 1.3249(5) 1.2906(12) 0.0297(3)
H2 H 1.3518 1.4327 0.0253
C3 C 0.7256(6) 0.2932(12) 0.2202(3)
H3 H 0.7743 0.1794 0.2339
C4 C 0.5830(6) 0.6243(12) 0.1829(3)
H4 H 0.5361 0.7429 0.1707
C5 C 0.6142(6) 0.2494(12) 0.2100(3)
H5 H 0.5890 0.1076 0.2161
C6 C 1.2379(5) 0.8880(11) 0.0433(3)
H6 H 1.2082 0.7494 0.0486
N3 N 1.6852(6) 1.3000(16) 0.0794(3)
H7 H 1.7418 1.3870 0.0837
C7 C 1.2131(6) 1.2497(11) 0.0163(3)
H8 H 1.1661 1.3656 0.0023
C8 C 1.3984(5) 1.1204(11) 0.0497(2)
C9 C 1.3508(5) 0.9140(11) 0.0572(3)
H9 H 1.3955 0.7950 0.0714
N4 N 1.5737(6) 1.3660(13) 0.0635(3)
C10 C 1.5187(5) 1.1581(12) 0.0635(3)
N5 N 0.3770(5) 0.1656(13) 0.1782(3)
C11 C 0.6958(6) 0.6552(12) 0.1933(3)
H10 H 0.7231 0.7956 0.1876
C12 C 0.4189(6) 0.3771(13) 0.1783(3)
N6 N 0.2679(6) 0.1863(16) 0.1665(3)
H11 H 0.2216 0.0775 0.1637
C13 C 0.5386(5) 0.4175(12) 0.1905(2)
C14 C 1.5880(5) 0.9930(11) 0.0773(2)
H12 H 1.5702 0.8435 0.0800
C15 C 0.2402(7) 0.398(2) 0.1596(3)
H13 H 0.1676 0.4497 0.1513
C16 C 0.3325(8) 0.5326(17) 0.1662(3)
H14 H 0.3365 0.6866 0.1634
H15 H 0.987(7) 0.170(15) 0.199(3)
H16 H 0.982(7) 1.408(15) 0.052(3)
H17 H 0.950(6) 1.230(12) 0.075(3)
Zn2B Zn 1.06515(6) 1.47050(13) -0.21961(3)
S1B S 1.00860(13) 1.1869(3) -0.12419(6)
O1B O 0.9023(4) 1.1452(9) -0.1596(2)
N1B N 0.8313(4) 0.9497(9) -0.0226(2)
O2B O 0.9996(5) 1.7621(8) -0.2265(2)
N2B N 1.2318(4) 1.5063(9) -0.2112(2)
O3B O 0.9953(4) 1.2347(8) -0.06819(17)
C1B C 0.3117(5) 0.9182(11) -0.0865(2)
H1B H 0.2466 0.9995 -0.0968
O4B O 1.0616(4) 1.3858(8) -0.14277(18)
O5B O 1.0347(4) 0.7097(9) -0.0463(2)
O6B O 1.0815(4) 0.9941(9) -0.12433(19)
C2B C 0.6751(5) 0.7094(12) -0.0297(3)
H2B H 0.6482 0.5673 -0.0253
C3B C 1.2744(6) 1.7068(12) -0.2202(3)
H3B H 1.2257 1.8206 -0.2339
C4B C 1.4170(6) 1.3757(12) -0.1829(3)
H4B H 1.4639 1.2571 -0.1707
C5B C 1.3858(6) 1.7506(12) -0.2100(3)
H5B H 1.4110 1.8924 -0.2161
C6B C 0.7621(5) 1.1120(11) -0.0433(3)
H6B H 0.7918 1.2506 -0.0486
N3B N 0.3148(6) 0.7000(16) -0.0794(3)
H7B H 0.2582 0.6130 -0.0837
C7B C 0.7869(6) 0.7503(11) -0.0163(3)
H8B H 0.8339 0.6344 -0.0023
C8B C 0.6016(5) 0.8796(11) -0.0497(2)
C9B C 0.6492(5) 1.0860(11) -0.0572(3)
H9B H 0.6045 1.2050 -0.0714
N4B N 0.4263(6) 0.6340(13) -0.0635(3)
C10B C 0.4813(5) 0.8419(12) -0.0635(3)
N5B N 1.6230(5) 1.8344(13) -0.1782(3)
C11B C 1.3042(6) 1.3448(12) -0.1933(3)
H10B H 1.2769 1.2044 -0.1876
C12B C 1.5811(6) 1.6229(13) -0.1783(3)
N6B N 1.7321(6) 1.8137(16) -0.1665(3)
H11B H 1.7784 1.9225 -0.1637
C13B C 1.4614(5) 1.5825(12) -0.1905(2)
C14B C 0.4120(5) 1.0070(11) -0.0773(2)
H12B H 0.4298 1.1565 -0.0800
C15B C 1.7598(7) 1.602(2) -0.1596(3)
H13B H 1.8324 1.5503 -0.1513
C16B C 1.6675(8) 1.4674(17) -0.1662(3)
H14B H 1.6635 1.3134 -0.1634
H15B H 1.013(7) 1.830(15) -0.199(3)
H16B H 1.018(7) 0.592(15) -0.052(3)
H17B H 1.050(6) 0.770(12) -0.075(3)
Zn2A Zn 1.06515(6) 0.02950(13) 0.28039(3)
Zn2C Zn 0.93485(6) 1.97050(13) -0.28039(3)
O2A O 0.9996(5) 0.7379(8) 0.2735(2)
O2C O 1.0004(5) 1.2621(8) -0.2735(2)
loop_
_geom_bond_atom_site_label_1
_geom_bond_atom_site_label_2
_geom_bond_site_symmetry_1
_geom_bond_site_symmetry_2
Zn1 N1 1_555 1_555
Zn2 O2 1_555 1_555
S1 O1 1_555 1_555
N1 C6 1_555 1_555
O2 H15 1_555 1_555
N2 Zn2 1_555 1_555
O3 Zn1 1_555 1_555
C1 H1 1_555 1_555
O4 Zn2 1_555 1_555
O5 Zn1 1_555 1_555
O6 S1 1_555 1_555
C2 H2 1_555 1_555
C3 N2 1_555 1_555
H3 C3 1_555 1_555
C4 H4 1_555 1_555
C5 C3 1_555 1_555
H5 C5 1_555 1_555
C6 H6 1_555 1_555
N3 C1 1_555 1_555
H7 N3 1_555 1_555
C7 N1 1_555 1_555
H8 C7 1_555 1_555
C8 C2 1_555 1_555
C9 C6 1_555 1_555
H9 C9 1_555 1_555
N4 N3 1_555 1_555
C10 C8 1_555 1_555
N5 C12 1_555 1_555
C11 N2 1_555 1_555
H10 C11 1_555 1_555
C12 C13 1_555 1_555
N6 N5 1_555 1_555
H11 N6 1_555 1_555
C13 C4 1_555 1_555
C14 C1 1_555 1_555
H12 C14 1_555 1_555
C15 N6 1_555 1_555
H13 C15 1_555 1_555
C16 C12 1_555 1_555
H14 C16 1_555 1_555
H16 O5 1_555 1_555
H17 O5 1_555 1_555
Zn2B O2B 1_555 1_555
S1B O1B 1_555 1_555
N1B Zn1 1_555 1_555
O2B H15B 1_555 1_555
N2B Zn2B 1_555 1_555
O3B Zn1 1_555 1_555
C1B H1B 1_555 1_555
O4B Zn2B 1_555 1_555
O5B Zn1 1_555 1_555
O6B S1B 1_555 1_555
C2B H2B 1_555 1_555
C3B N2B 1_555 1_555
H3B C3B 1_555 1_555
C4B H4B 1_555 1_555
C5B C3B 1_555 1_555
H5B C5B 1_555 1_555
C6B N1B 1_555 1_555
H6B C6B 1_555 1_555
N3B C1B 1_555 1_555
H7B N3B 1_555 1_555
C7B N1B 1_555 1_555
H8B C7B 1_555 1_555
C8B C2B 1_555 1_555
C9B C6B 1_555 1_555
H9B C9B 1_555 1_555
N4B N3B 1_555 1_555
C10B C8B 1_555 1_555
N5B C12B 1_555 1_555
C11B N2B 1_555 1_555
H10B C11B 1_555 1_555
C12B C13B 1_555 1_555
N6B N5B 1_555 1_555
H11B N6B 1_555 1_555
C13B C4B 1_555 1_555
C14B C1B 1_555 1_555
H12B C14B 1_555 1_555
C15B N6B 1_555 1_555
H13B C15B 1_555 1_555
C16B C12B 1_555 1_555
H14B C16B 1_555 1_555
H16B O5B 1_555 1_555
H17B O5B 1_555 1_555
Zn2A O2 1_555 1_555
Zn2C O2B 1_555 1_555
O2A Zn2 1_555 1_555
O2C Zn2B 1_555 1_555
S1 O3 1_555 1_555
S1 O4 1_555 1_555
C2 C7 1_555 1_555
C4 C11 1_555 1_555
C5 C13 1_555 1_555
C8 C9 1_555 1_555
N4 C10 1_555 1_555
C10 C14 1_555 1_555
C15 C16 1_555 1_555
S1B O3B 1_555 1_555
S1B O4B 1_555 1_555
C2B C7B 1_555 1_555
C4B C11B 1_555 1_555
C5B C13B 1_555 1_555
C8B C9B 1_555 1_555
N4B C10B 1_555 1_555
C10B C14B 1_555 1_555
C15B C16B 1_555 1_555

#END
