
#######################################################################
#
#                 Cambridge Crystallographic Data Centre
#                                CCDC 
#
#######################################################################
#
# If this CIF has been generated from an entry in the Cambridge 
# Structural Database, then it will include bibliographic, chemical, 
# crystal, experimental, refinement or atomic coordinate data resulting 
# from the CCDC's data processing and validation procedures.
#
#######################################################################

data_PUMYUS
_symmetry_cell_setting           triclinic
_symmetry_space_group_name_H-M   'P -1'
_symmetry_Int_Tables_number      2
_space_group_name_Hall           '-P 1'
loop_
_symmetry_equiv_pos_site_id
_symmetry_equiv_pos_as_xyz
1 x,y,z
2 -x,-y,-z
_cell_length_a                   10.289(6)
_cell_length_b                   14.929(9)
_cell_length_c                   18.205(10)
_cell_angle_alpha                94.075(9)
_cell_angle_beta                 94.588(7)
_cell_angle_gamma                103.544(5)
_cell_volume                     2698.23
loop_
_atom_site_label
_atom_site_type_symbol
_atom_site_fract_x
_atom_site_fract_y
_atom_site_fract_z
Gd1 Gd 0.455901(19) 0.526837(15) 0.648265(12)
Gd2 Gd 0.845976(19) 0.542824(15) 0.636415(13)
Gd3 Gd 0.76796(2) 0.582016(16) 0.925403(13)
P1 P 0.58431(11) 0.62856(8) 0.52140(7)
P2 P 0.70860(11) 0.43561(8) 0.75715(7)
P3 P 0.71759(11) 0.69512(8) 0.75871(7)
C1 C 0.6811(5) 0.7477(3) 0.5377(3)
H1 H 0.6482 0.7770 0.5792
H2 H 0.7737 0.7474 0.5522
N1 N 0.6792(4) 0.8065(3) 0.4743(3)
H3 H 0.7045 0.7769 0.4345
C2 C 0.7803(6) 0.8973(4) 0.4934(4)
H4 H 0.8685 0.8862 0.5052
H5 H 0.7568 0.9295 0.5367
C3 C 0.7845(7) 0.9573(4) 0.4289(4)
H6 H 0.8480 1.0164 0.4429
H7 H 0.8150 0.9273 0.3868
C4 C 0.6480(8) 0.9731(5) 0.4074(5)
H8 H 0.6513 1.0086 0.3647
H9 H 0.6205 1.0079 0.4479
C5 C 0.5489(8) 0.8815(5) 0.3894(5)
H10 H 0.4605 0.8918 0.3768
H11 H 0.5736 0.8492 0.3466
C6 C 0.5430(6) 0.8215(5) 0.4533(4)
H12 H 0.5123 0.8514 0.4953
H13 H 0.4798 0.7624 0.4390
C7 C 0.6652(6) 0.3115(4) 0.7622(3)
H14 H 0.5688 0.2879 0.7516
H15 H 0.7085 0.2821 0.7252
N2 N 0.7095(4) 0.2884(3) 0.8381(2)
H16 H 0.7735 0.3382 0.8596
C8 C 0.7710(7) 0.2073(4) 0.8365(4)
H17 H 0.8490 0.2199 0.8089
H18 H 0.7068 0.1535 0.8114
C9 C 0.8128(8) 0.1865(6) 0.9142(4)
H19 H 0.8440 0.1300 0.9112
H20 H 0.8873 0.2363 0.9361
C10 C 0.7015(9) 0.1759(6) 0.9633(4)
H21 H 0.6322 0.1205 0.9461
H22 H 0.7357 0.1695 1.0134
C11 C 0.6435(9) 0.2583(5) 0.9628(4)
H23 H 0.7108 0.3125 0.9847
H24 H 0.5684 0.2495 0.9928
C12 C 0.5961(6) 0.2745(5) 0.8855(3)
H25 H 0.5255 0.2217 0.8642
H26 H 0.5592 0.3287 0.8872
C13 C 0.7551(5) 0.8198(3) 0.7530(3)
H27 H 0.7435 0.8312 0.7014
H28 H 0.6898 0.8444 0.7784
N3 N 0.8941(4) 0.8728(3) 0.7851(2)
H29 H 0.9540 0.8417 0.7688
C14 C 0.9092(6) 0.8801(5) 0.8680(3)
H30 H 0.8918 0.8186 0.8849
H31 H 0.8443 0.9114 0.8868
C15 C 1.0503(7) 0.9337(5) 0.8974(4)
H32 H 1.0575 0.9398 0.9511
H33 H 1.1141 0.8992 0.8820
C16 C 1.0856(8) 1.0280(5) 0.8704(5)
H34 H 1.0295 1.0655 0.8908
H35 H 1.1786 1.0579 0.8870
C17 C 1.0655(8) 1.0207(5) 0.7883(5)
H36 H 1.1311 0.9909 0.7684
H37 H 1.0810 1.0824 0.7719
C18 C 0.9261(7) 0.9664(4) 0.7578(4)
H38 H 0.8607 0.9998 0.7727
H39 H 0.9202 0.9602 0.7042
C19 C 0.1709(4) 0.5868(3) 0.6710(3)
C20 C 0.1310(4) 0.4901(3) 0.6307(3)
C21 C 0.9805(4) 0.4567(3) 0.9725(3)
C22 C 0.5412(4) 0.4789(4) 1.0287(3)
O1 O 0.6560(3) 0.5755(2) 0.57378(19)
O2 O 0.4464(3) 0.6219(2) 0.55022(18)
O3 O 0.5767(3) 0.6001(2) 0.44062(19)
O4 O 0.6311(3) 0.4601(2) 0.68906(18)
O5 O 0.8557(3) 0.4633(3) 0.7443(2)
O6 O 0.6719(3) 0.4744(2) 0.82864(19)
O7 O 0.5792(3) 0.6603(2) 0.7168(2)
O8 O 0.8265(3) 0.6612(2) 0.7212(2)
O9 O 0.7191(4) 0.6793(2) 0.8397(2)
O10 O 0.2944(3) 0.6203(2) 0.6858(2)
O11 O 0.0757(3) 0.6232(2) 0.6847(2)
O12 O 0.0098(3) 0.4572(3) 0.6091(2)
O13 O 0.2228(3) 0.4498(2) 0.6199(2)
O14 O 0.8786(3) 0.4511(2) 0.9270(2)
O15 O 1.0500(3) 0.3988(2) 0.9768(2)
O16 O 0.6650(3) 0.4924(3) 1.0203(2)
O17 O 0.4806(3) 0.4372(3) 1.0765(2)
O18 O 0.9390(4) 0.6336(3) 0.5397(2)
H40 H 0.9393 0.6024 0.4987
H41 H 1.0137 0.6734 0.5481
O19 O 0.7655(4) 0.4154(3) 0.5471(2)
H42 H 0.6970 0.4036 0.5154
H43 H 0.7554 0.3684 0.5718
O20 O 0.3911(4) 0.4684(3) 0.7642(2)
H44 H 0.3085 0.4581 0.7714
H45 H 0.4353 0.5073 0.7990
O21 O 0.9685(4) 0.6421(3) 0.8678(2)
H46 H 1.0435 0.6274 0.8719
H47 H 0.9281 0.6475 0.8263
O22 O 0.7624(5) 0.7162(3) 1.0031(2)
H48 H 0.7200 0.7540 0.9860
H49 H 0.7935 0.7202 1.0482
Gd1A Gd 0.544099(19) 0.473163(15) 0.351735(12)
Gd1_2 Gd 1.455901(19) 0.526837(15) 0.648265(12)
Gd2A Gd 0.154024(19) 0.457176(15) 0.363585(13)
Gd2_2 Gd -0.154024(19) 0.542824(15) 0.636415(13)
Gd3A Gd 0.23204(2) 0.417984(16) 0.074597(13)
Gd3A_2 Gd 1.23204(2) 0.417984(16) 1.074597(13)
Gd3A_3 Gd 0.23204(2) 0.417984(16) 1.074597(13)
P1A P 0.41569(11) 0.37144(8) 0.47860(7)
P2A P 0.29140(11) 0.56439(8) 0.24285(7)
P3A P 0.28241(11) 0.30488(8) 0.24129(7)
C1A C 0.3189(5) 0.2523(3) 0.4623(3)
H1A H 0.3518 0.2230 0.4208
H2A H 0.2263 0.2526 0.4478
N1A N 0.3208(4) 0.1935(3) 0.5257(3)
H3A H 0.2955 0.2231 0.5655
C2A C 0.2197(6) 0.1027(4) 0.5066(4)
H4A H 0.1315 0.1138 0.4948
H5A H 0.2432 0.0705 0.4633
C3A C 0.2155(7) 0.0427(4) 0.5711(4)
H6A H 0.1520 -0.0164 0.5571
H7A H 0.1850 0.0727 0.6132
C4A C 0.3520(8) 0.0269(5) 0.5926(5)
H8A H 0.3487 -0.0086 0.6353
H9A H 0.3795 -0.0079 0.5521
C5A C 0.4511(8) 0.1185(5) 0.6106(5)
H10A H 0.5395 0.1082 0.6232
H11A H 0.4264 0.1508 0.6534
C6A C 0.4570(6) 0.1785(5) 0.5467(4)
H12A H 0.4877 0.1486 0.5047
H13A H 0.5202 0.2376 0.5610
C7A C 0.3348(6) 0.6885(4) 0.2378(3)
H14A H 0.4312 0.7121 0.2484
H15A H 0.2915 0.7179 0.2748
N2A N 0.2905(4) 0.7116(3) 0.1619(2)
H16A H 0.2265 0.6618 0.1404
C8A C 0.2290(7) 0.7927(4) 0.1635(4)
H17A H 0.1510 0.7801 0.1911
H18A H 0.2932 0.8465 0.1886
C9A C 0.1872(8) 0.8135(6) 0.0858(4)
H19A H 0.1560 0.8700 0.0888
H20A H 0.1127 0.7637 0.0639
C10A C 0.2985(9) 0.8241(6) 0.0367(4)
H21A H 0.3678 0.8795 0.0539
H22A H 0.2643 0.8305 -0.0134
C11A C 0.3565(9) 0.7417(5) 0.0372(4)
H23A H 0.2892 0.6875 0.0153
H24A H 0.4316 0.7505 0.0072
C12A C 0.4039(6) 0.7255(5) 0.1145(3)
H25A H 0.4745 0.7783 0.1358
H26A H 0.4408 0.6713 0.1128
C13A C 0.2449(5) 0.1802(3) 0.2470(3)
H27A H 0.2565 0.1688 0.2986
H28A H 0.3102 0.1556 0.2216
N3A N 0.1059(4) 0.1272(3) 0.2149(2)
H29A H 0.0460 0.1583 0.2312
C14A C 0.0908(6) 0.1199(5) 0.1320(3)
H30A H 0.1082 0.1814 0.1151
H31A H 0.1557 0.0886 0.1132
C15A C -0.0503(7) 0.0663(5) 0.1026(4)
H32A H -0.0575 0.0602 0.0489
H33A H -0.1141 0.1008 0.1180
C16A C -0.0856(8) -0.0280(5) 0.1296(5)
H34A H -0.0295 -0.0655 0.1092
H35A H -0.1786 -0.0579 0.1130
C17A C -0.0655(8) -0.0207(5) 0.2117(5)
H36A H -0.1311 0.0091 0.2316
H37A H -0.0810 -0.0824 0.2281
C18A C 0.0739(7) 0.0336(4) 0.2422(4)
H38A H 0.1393 0.0002 0.2273
H39A H 0.0798 0.0398 0.2958
C19_2 C 1.1709(4) 0.5868(3) 0.6710(3)
C20_2 C 1.1310(4) 0.4901(3) 0.6307(3)
C21A C 1.0195(4) 0.5433(3) 1.0275(3)
C22A C 0.4588(4) 0.5211(4) 0.9713(3)
O1A O 0.3440(3) 0.4245(2) 0.42622(19)
O2A O 0.5536(3) 0.3781(2) 0.44978(18)
O3A O 0.4233(3) 0.3999(2) 0.55938(19)
O4A O 0.3689(3) 0.5399(2) 0.31094(18)
O5A O 0.1443(3) 0.5367(3) 0.2557(2)
O6A O 0.3281(3) 0.5256(2) 0.17136(19)
O7A O 0.4208(3) 0.3397(2) 0.2832(2)
O8A O 0.1735(3) 0.3388(2) 0.2788(2)
O9A O 0.2809(4) 0.3207(2) 0.1603(2)
O10_2 O 1.2944(3) 0.6203(2) 0.6858(2)
O10A O 0.7056(3) 0.3797(2) 0.3142(2)
O11_2 O 1.0757(3) 0.6232(2) 0.6847(2)
O11A O -0.0757(3) 0.3768(2) 0.3153(2)
O12_2 O 1.0098(3) 0.4572(3) 0.6091(2)
O12A O -0.0098(3) 0.5428(3) 0.3909(2)
O13_2 O 1.2228(3) 0.4498(2) 0.6199(2)
O13A O 0.7772(3) 0.5502(2) 0.3801(2)
O14A O 1.1214(3) 0.5489(2) 1.0730(2)
O14A_2 O 0.1214(3) 0.5489(2) 0.0730(2)
O15A O 0.9500(3) 0.6012(2) 1.0232(2)
O15_2 O 0.0500(3) 0.3988(2) -0.0232(2)
O16A O 0.3350(3) 0.5076(3) 0.9797(2)
O16A_2 O 0.3350(3) 0.5076(3) -0.0203(2)
O17A O 0.5194(3) 0.5628(3) 0.9235(2)
O17_2 O 0.4806(3) 0.4372(3) 0.0765(2)
O18A O 0.0610(4) 0.3664(3) 0.4603(2)
H40A H 0.0607 0.3976 0.5013
H41A H -0.0137 0.3266 0.4519
O19A O 0.2345(4) 0.5846(3) 0.4529(2)
H42A H 0.3030 0.5964 0.4846
H43A H 0.2446 0.6316 0.4282
O20A O 0.6089(4) 0.5316(3) 0.2358(2)
H44A H 0.6915 0.5419 0.2286
H45A H 0.5647 0.4927 0.2010
O21A O 0.0315(4) 0.3579(3) 0.1322(2)
H46A H -0.0435 0.3726 0.1281
H47A H 0.0719 0.3525 0.1737
O22A O 0.2376(5) 0.2838(3) -0.0031(2)
H48A H 0.2800 0.2460 0.0140
H49A H 0.2065 0.2798 -0.0482
Cl1 Cl 0.45134(17) 0.97520(12) 0.82075(12)
O23 O 0.3744(6) 0.8989(4) 0.7737(4)
O24 O 0.5873(5) 0.9746(4) 0.8241(5)
O25 O 0.4311(7) 1.0576(4) 0.7956(4)
O26 O 0.4086(8) 0.9680(6) 0.8926(3)
Cl2 Cl 0.8542(3) 0.1471(2) 0.62307(15)
O27 O 0.9273(12) 0.1370(10) 0.5620(6)
O28 O 0.9553(11) 0.1797(10) 0.6840(6)
O29 O 0.7861(12) 0.2179(7) 0.6100(7)
O30 O 0.7652(10) 0.0705(7) 0.6493(7)
O31 O 0.7889(6) 0.7344(4) 0.3559(4)
H50 H 0.7848 0.6782 0.3632
H51 H 0.8699 0.7639 0.3547
O32 O 0.8917(5) 0.5664(4) 1.2109(3)
O33 O 0.5717(6) 0.2798(4) 1.1564(3)
O34 O 0.4275(7) 0.8066(4) 0.6348(4)
O35 O 1.1837(7) 0.7460(5) 0.5437(4)
O36 O 0.7927(4) 0.4046(4) 1.1195(3)
O37 O 0.6526(17) 0.8778(17) 0.9828(14)
O38 O 0.860(3) 0.7294(10) 1.1454(8)
O39 O 1.1058(12) 0.7904(12) 0.7612(15)
O40? O 0.899(4) 0.2437(8) 0.643(2)
O41? O 0.759(3) 0.131(3) 0.5591(14)
O42? O 0.939(3) 0.0885(18) 0.604(2)
O43? O 0.6242(19) 0.8396(18) 0.9483(18)
O44? O 0.791(4) 0.7123(16) 1.1541(10)
O45? O 1.0968(14) 0.8127(10) 0.7209(15)
loop_
_geom_bond_atom_site_label_1
_geom_bond_atom_site_label_2
_geom_bond_site_symmetry_1
_geom_bond_site_symmetry_2
Gd1 O1 1_555 1_555
Gd2 O1 1_555 1_555
Gd3 O6 1_555 1_555
P1 C1 1_555 1_555
P2 C7 1_555 1_555
P3 C13 1_555 1_555
C1 H1 1_555 1_555
H2 C1 1_555 1_555
N1 C1 1_555 1_555
H3 N1 1_555 1_555
C2 N1 1_555 1_555
H4 C2 1_555 1_555
H5 C2 1_555 1_555
C3 C2 1_555 1_555
H6 C3 1_555 1_555
H7 C3 1_555 1_555
C4 C3 1_555 1_555
H8 C4 1_555 1_555
H9 C4 1_555 1_555
C5 C4 1_555 1_555
H10 C5 1_555 1_555
H11 C5 1_555 1_555
C6 N1 1_555 1_555
H12 C6 1_555 1_555
H13 C6 1_555 1_555
C7 H14 1_555 1_555
H15 C7 1_555 1_555
N2 C7 1_555 1_555
H16 N2 1_555 1_555
C8 N2 1_555 1_555
H17 C8 1_555 1_555
H18 C8 1_555 1_555
C9 C8 1_555 1_555
H19 C9 1_555 1_555
H20 C9 1_555 1_555
C10 C9 1_555 1_555
H21 C10 1_555 1_555
H22 C10 1_555 1_555
C11 C10 1_555 1_555
H23 C11 1_555 1_555
H24 C11 1_555 1_555
C12 N2 1_555 1_555
H25 C12 1_555 1_555
H26 C12 1_555 1_555
C13 H27 1_555 1_555
H28 C13 1_555 1_555
N3 C13 1_555 1_555
H29 N3 1_555 1_555
C14 N3 1_555 1_555
H30 C14 1_555 1_555
H31 C14 1_555 1_555
C15 C14 1_555 1_555
H32 C15 1_555 1_555
H33 C15 1_555 1_555
C16 C15 1_555 1_555
H34 C16 1_555 1_555
H35 C16 1_555 1_555
C17 C16 1_555 1_555
H36 C17 1_555 1_555
H37 C17 1_555 1_555
C18 N3 1_555 1_555
H38 C18 1_555 1_555
H39 C18 1_555 1_555
C19 C20 1_555 1_555
C20 O12 1_555 1_555
C21 O14 1_555 1_555
C22 O16 1_555 1_555
O1 P1 1_555 1_555
O2 Gd1 1_555 1_555
O3 P1 1_555 1_555
O4 Gd1 1_555 1_555
O5 Gd2 1_555 1_555
O6 P2 1_555 1_555
O7 Gd1 1_555 1_555
O8 Gd2 1_555 1_555
O9 Gd3 1_555 1_555
O10 Gd1 1_555 1_555
O11 C19 1_555 1_555
O12 Gd2_2 1_555 1_555
O13 Gd1 1_555 1_555
O14 Gd3 1_555 1_555
O15 C21 1_555 1_555
O16 Gd3 1_555 1_555
O17 C22 1_555 1_555
O18 Gd2 1_555 1_555
H40 O18 1_555 1_555
H41 O18 1_555 1_555
O19 Gd2 1_555 1_555
H42 O19 1_555 1_555
H43 O19 1_555 1_555
O20 Gd1 1_555 1_555
H44 O20 1_555 1_555
H45 O20 1_555 1_555
O21 Gd3 1_555 1_555
H46 O21 1_555 1_555
H47 O21 1_555 1_555
O22 Gd3 1_555 1_555
H48 O22 1_555 1_555
H49 O22 1_555 1_555
Cl1 O23 1_555 1_555
O24 Cl1 1_555 1_555
O25 Cl1 1_555 1_555
O26 Cl1 1_555 1_555
Cl2 O27 1_555 1_555
O28 Cl2 1_555 1_555
O29 Cl2 1_555 1_555
O30 Cl2 1_555 1_555
O31 H50 1_555 1_555
H51 O31 1_555 1_555
Gd1A O3 1_555 1_555
Gd1_2 O10_2 1_555 1_555
Gd2A O1A 1_555 1_555
Gd2_2 O11 1_555 1_555
Gd3A O6A 1_555 1_555
Gd3A_2 O15 1_555 1_555
Gd3A_3 O17 1_555 1_555
P1A C1A 1_555 1_555
P2A C7A 1_555 1_555
P3A C13A 1_555 1_555
C1A H1A 1_555 1_555
H2A C1A 1_555 1_555
N1A C1A 1_555 1_555
H3A N1A 1_555 1_555
C2A N1A 1_555 1_555
H4A C2A 1_555 1_555
H5A C2A 1_555 1_555
C3A C2A 1_555 1_555
H6A C3A 1_555 1_555
H7A C3A 1_555 1_555
C4A C3A 1_555 1_555
H8A C4A 1_555 1_555
H9A C4A 1_555 1_555
C5A C4A 1_555 1_555
H10A C5A 1_555 1_555
H11A C5A 1_555 1_555
C6A N1A 1_555 1_555
H12A C6A 1_555 1_555
H13A C6A 1_555 1_555
C7A H14A 1_555 1_555
H15A C7A 1_555 1_555
N2A C7A 1_555 1_555
H16A N2A 1_555 1_555
C8A N2A 1_555 1_555
H17A C8A 1_555 1_555
H18A C8A 1_555 1_555
C9A C8A 1_555 1_555
H19A C9A 1_555 1_555
H20A C9A 1_555 1_555
C10A C9A 1_555 1_555
H21A C10A 1_555 1_555
H22A C10A 1_555 1_555
C11A C10A 1_555 1_555
H23A C11A 1_555 1_555
H24A C11A 1_555 1_555
C12A N2A 1_555 1_555
H25A C12A 1_555 1_555
H26A C12A 1_555 1_555
C13A H27A 1_555 1_555
H28A C13A 1_555 1_555
N3A C13A 1_555 1_555
H29A N3A 1_555 1_555
C14A N3A 1_555 1_555
H30A C14A 1_555 1_555
H31A C14A 1_555 1_555
C15A C14A 1_555 1_555
H32A C15A 1_555 1_555
H33A C15A 1_555 1_555
C16A C15A 1_555 1_555
H34A C16A 1_555 1_555
H35A C16A 1_555 1_555
C17A C16A 1_555 1_555
H36A C17A 1_555 1_555
H37A C17A 1_555 1_555
C18A N3A 1_555 1_555
H38A C18A 1_555 1_555
H39A C18A 1_555 1_555
C19_2 C20_2 1_555 1_555
C20_2 O12_2 1_555 1_555
C21A C21 1_555 1_555
C22A C22 1_555 1_555
O1A Gd1A 1_555 1_555
O2A Gd1A 1_555 1_555
O3A Gd1 1_555 1_555
O4A Gd1A 1_555 1_555
O5A Gd2A 1_555 1_555
O6A P2A 1_555 1_555
O7A Gd1A 1_555 1_555
O8A Gd2A 1_555 1_555
O9A Gd3A 1_555 1_555
O10_2 C19_2 1_555 1_555
O10A Gd1A 1_555 1_555
O11_2 Gd2 1_555 1_555
O11A Gd2A 1_555 1_555
O12_2 Gd2 1_555 1_555
O12A Gd2A 1_555 1_555
O13_2 Gd1_2 1_555 1_555
O13A Gd1A 1_555 1_555
O14A Gd3A_2 1_555 1_555
O14A_2 Gd3A 1_555 1_555
O15A Gd3 1_555 1_555
O15_2 Gd3A 1_555 1_555
O16A Gd3A_3 1_555 1_555
O16A_2 Gd3A 1_555 1_555
O17A Gd3 1_555 1_555
O17_2 Gd3A 1_555 1_555
O18A Gd2A 1_555 1_555
H40A O18A 1_555 1_555
H41A O18A 1_555 1_555
O19A Gd2A 1_555 1_555
H42A O19A 1_555 1_555
H43A O19A 1_555 1_555
O20A Gd1A 1_555 1_555
H44A O20A 1_555 1_555
H45A O20A 1_555 1_555
O21A Gd3A 1_555 1_555
H46A O21A 1_555 1_555
H47A O21A 1_555 1_555
O22A Gd3A 1_555 1_555
H48A O22A 1_555 1_555
H49A O22A 1_555 1_555
Gd2 O4 1_555 1_555
P1 O2 1_555 1_555
P2 O4 1_555 1_555
P2 O5 1_555 1_555
P3 O7 1_555 1_555
P3 O8 1_555 1_555
P3 O9 1_555 1_555
C5 C6 1_555 1_555
C11 C12 1_555 1_555
C17 C18 1_555 1_555
C19 O10 1_555 1_555
C20 O13 1_555 1_555
Gd2A O4A 1_555 1_555
P1A O1A 1_555 1_555
P1A O2A 1_555 1_555
P1A O3A 1_555 1_555
P2A O4A 1_555 1_555
P2A O5A 1_555 1_555
P3A O7A 1_555 1_555
P3A O8A 1_555 1_555
P3A O9A 1_555 1_555
C5A C6A 1_555 1_555
C11A C12A 1_555 1_555
C17A C18A 1_555 1_555
C19_2 O11_2 1_555 1_555
C20_2 O13_2 1_555 1_555
C21A O14A 1_555 1_555
C21A O15A 1_555 1_555
C22A O16A 1_555 1_555
C22A O17A 1_555 1_555

#END
