
#######################################################################
#
#                 Cambridge Crystallographic Data Centre
#                                CCDC 
#
#######################################################################
#
# If this CIF has been generated from an entry in the Cambridge 
# Structural Database, then it will include bibliographic, chemical, 
# crystal, experimental, refinement or atomic coordinate data resulting 
# from the CCDC's data processing and validation procedures.
#
#######################################################################

data_PUMZON
_symmetry_cell_setting           triclinic
_symmetry_space_group_name_H-M   'P -1'
_symmetry_Int_Tables_number      2
_space_group_name_Hall           '-P 1'
loop_
_symmetry_equiv_pos_site_id
_symmetry_equiv_pos_as_xyz
1 x,y,z
2 -x,-y,-z
_cell_length_a                   9.636(2)
_cell_length_b                   10.615(2)
_cell_length_c                   12.376(3)
_cell_angle_alpha                73.574(10)
_cell_angle_beta                 69.506(8)
_cell_angle_gamma                66.578(9)
_cell_volume                     1072.77
loop_
_atom_site_label
_atom_site_type_symbol
_atom_site_fract_x
_atom_site_fract_y
_atom_site_fract_z
Eu1 Eu 0.55998(3) 0.31621(2) 0.23899(2)
Eu2 Eu 0.09056(3) 0.33005(2) 0.70826(2)
P1 P 0.15575(15) 0.32092(13) 0.39533(12)
N1 N 0.2346(6) 0.1066(5) 0.2723(4)
H1 H 0.3330 0.1117 0.2500
O1 O 0.1660(6) 0.3044(5) 0.5179(4)
O2 O 0.3028(5) 0.3376(4) 0.3026(4)
O3 O 0.0066(5) 0.4287(4) 0.3694(4)
O4 O 0.6702(5) 0.6045(4) 0.3668(4)
O5 O 0.5378(5) 0.4900(5) 0.3403(4)
O6 O 0.8764(5) 0.5607(4) 0.1594(4)
O7 O 0.7649(5) 0.4210(4) 0.1437(4)
O8 O 0.5485(5) 0.0922(4) 0.2376(4)
O9 O 0.6793(5) -0.1372(4) 0.2506(5)
O10 O 0.8033(5) 0.1339(4) 0.2393(5)
O11 O 0.9261(5) -0.0969(5) 0.2670(6)
O12 O 0.4292(5) 0.5452(4) 0.1380(4)
O13 O 0.3967(5) 0.6779(4) -0.0333(4)
O14 O 0.5394(7) 0.2160(5) 0.4513(4)
O15 O -0.1601(5) 0.3455(4) 0.7002(4)
O16 O -0.0719(6) 0.2961(6) 0.9138(4)
C1 C 0.1549(7) 0.1496(6) 0.3898(5)
H2 H 0.2064 0.0800 0.4464
H3 H 0.0469 0.1518 0.4127
C2 C 0.2517(8) -0.0423(7) 0.2779(6)
H4 H 0.1486 -0.0510 0.2993
H5 H 0.3043 -0.1020 0.3373
C3 C 0.3459(9) -0.0876(7) 0.1602(6)
H6 H 0.4512 -0.0846 0.1414
H7 H 0.3542 -0.1829 0.1644
C4 C 0.2705(10) 0.0042(8) 0.0664(7)
H8 H 0.1691 -0.0053 0.0811
H9 H 0.3355 -0.0235 -0.0085
C5 C 0.2490(10) 0.1558(8) 0.0629(6)
H10 H 0.3511 0.1667 0.0415
H11 H 0.1954 0.2154 0.0040
C6 C 0.1546(8) 0.1995(7) 0.1807(6)
H12 H 0.1441 0.2951 0.1776
H13 H 0.0502 0.1941 0.2003
C7 C 0.6489(6) 0.5367(5) 0.3108(5)
C8 C 0.7752(6) 0.5040(5) 0.1925(5)
C9 C 0.6679(6) -0.0151(6) 0.2456(5)
C10 C 0.8124(7) 0.0098(6) 0.2518(6)
C11 C 0.4499(6) 0.5643(5) 0.0306(5)
Eu1A Eu 0.44002(3) 0.68379(2) -0.23899(2)
Eu1A_2 Eu -0.55998(3) 0.68379(2) 0.76101(2)
Eu1_2 Eu -0.44002(3) 0.31621(2) 0.23899(2)
Eu1_3 Eu -0.44002(3) 1.31621(2) 0.23899(2)
Eu2A Eu -0.09056(3) 0.66995(2) 0.29174(2)
Eu2A_2 Eu 0.90944(3) 0.66995(2) 0.29174(2)
Eu2A_3 Eu 0.90944(3) -0.33005(2) 0.29174(2)
P1A P -0.15575(15) 0.67908(13) 0.60467(12)
N1A N -0.2346(6) 0.8934(5) 0.7277(4)
H1A H -0.3330 0.8883 0.7500
O1A O -0.1660(6) 0.6956(5) 0.4821(4)
O2A O -0.3028(5) 0.6624(4) 0.6974(4)
O3A O -0.0066(5) 0.5713(4) 0.6306(4)
O4A O 0.3298(5) 0.3955(4) 0.6332(4)
O4_2 O -0.3298(5) 0.6045(4) 0.3668(4)
O5A O -0.5378(5) 0.5100(5) 0.6597(4)
O5_2 O -0.4622(5) 0.4900(5) 0.3403(4)
O6A O 0.1236(5) 0.4393(4) 0.8406(4)
O6_2 O -0.1236(5) 0.5607(4) 0.1594(4)
O7A O -0.7649(5) 0.5790(4) 0.8563(4)
O7_2 O -0.2351(5) 0.4210(4) 0.1437(4)
O8A O -0.5485(5) 0.9078(4) 0.7624(4)
O8_2 O -0.4515(5) 1.0922(4) 0.2376(4)
O9A O 0.3207(5) 0.1372(4) 0.7494(5)
O9_2 O -0.3207(5) 0.8628(4) 0.2506(5)
O10A O -0.8033(5) 0.8661(4) 0.7607(5)
O10_2 O -0.1967(5) 1.1339(4) 0.2393(5)
O11A O 0.0739(5) 0.0969(5) 0.7330(6)
O11_2 O -0.0739(5) 0.9031(5) 0.2670(6)
O12A O 0.5708(5) 0.4548(4) -0.1380(4)
O12A_2 O -0.4292(5) 0.4548(4) 0.8620(4)
O13A O 0.6033(5) 0.3221(4) 0.0333(4)
O13_2 O -0.6033(5) 0.6779(4) 0.9667(4)
O14A O -0.5394(7) 0.7840(5) 0.5487(4)
O15A O 0.1601(5) 0.6545(4) 0.2998(4)
O16A O 0.0719(6) 0.7039(6) 0.0862(4)
C1A C -0.1549(7) 0.8504(6) 0.6102(5)
H2A H -0.2064 0.9200 0.5536
H3A H -0.0469 0.8482 0.5873
C2A C -0.2517(8) 1.0423(7) 0.7221(6)
H4A H -0.1486 1.0510 0.7007
H5A H -0.3043 1.1020 0.6627
C3A C -0.3459(9) 1.0876(7) 0.8398(6)
H6A H -0.4512 1.0846 0.8586
H7A H -0.3542 1.1829 0.8356
C4A C -0.2705(10) 0.9958(8) 0.9336(7)
H8A H -0.1691 1.0053 0.9189
H9A H -0.3355 1.0235 1.0085
C5A C -0.2490(10) 0.8442(8) 0.9371(6)
H10A H -0.3511 0.8333 0.9585
H11A H -0.1954 0.7846 0.9960
C6A C -0.1546(8) 0.8005(7) 0.8193(6)
H12A H -0.1441 0.7049 0.8224
H13A H -0.0502 0.8059 0.7997
C7_2 C -0.3511(6) 0.5367(5) 0.3108(5)
C8_2 C -0.2248(6) 0.5040(5) 0.1925(5)
C9_2 C -0.3321(6) 0.9849(6) 0.2456(5)
C10_2 C -0.1876(7) 1.0098(6) 0.2518(6)
C11A C 0.5501(6) 0.4357(5) -0.0306(5)
O17 O 0.2510(6) 0.6703(5) 0.4803(4)
loop_
_geom_bond_atom_site_label_1
_geom_bond_atom_site_label_2
_geom_bond_site_symmetry_1
_geom_bond_site_symmetry_2
Eu1 O2 1_555 1_555
Eu2 O1 1_555 1_555
P1 O1 1_555 1_555
N1 H1 1_555 1_555
O2 P1 1_555 1_555
O3 P1 1_555 1_555
O4 C7 1_555 1_555
O5 Eu1 1_555 1_555
O6 C8 1_555 1_555
O7 Eu1 1_555 1_555
O8 Eu1 1_555 1_555
O9 C9 1_555 1_555
O10 Eu1 1_555 1_555
O11 C10 1_555 1_555
O12 Eu1 1_555 1_555
O13 C11 1_555 1_555
O14 Eu1 1_555 1_555
O15 Eu2 1_555 1_555
O16 Eu2 1_555 1_555
C1 P1 1_555 1_555
H2 C1 1_555 1_555
H3 C1 1_555 1_555
C2 N1 1_555 1_555
H4 C2 1_555 1_555
H5 C2 1_555 1_555
C3 C2 1_555 1_555
H6 C3 1_555 1_555
H7 C3 1_555 1_555
C4 C3 1_555 1_555
H8 C4 1_555 1_555
H9 C4 1_555 1_555
C5 C4 1_555 1_555
H10 C5 1_555 1_555
H11 C5 1_555 1_555
C6 N1 1_555 1_555
H12 C6 1_555 1_555
H13 C6 1_555 1_555
C7 O5 1_555 1_555
C8 O7 1_555 1_555
C9 O8 1_555 1_555
C10 O10 1_555 1_555
C11 O12 1_555 1_555
Eu1A O13 1_555 1_555
Eu1A_2 O2A 1_555 1_555
Eu1_2 O5_2 1_555 1_555
Eu1_3 O8_2 1_555 1_555
Eu2A O3 1_555 1_555
Eu2A_2 O4 1_555 1_555
Eu2A_3 O9 1_555 1_555
P1A O1A 1_555 1_555
N1A H1A 1_555 1_555
O1A Eu2A 1_555 1_555
O2A P1A 1_555 1_555
O3A Eu2 1_555 1_555
O4A Eu2 1_555 1_555
O4_2 Eu2A 1_555 1_555
O5A Eu1A_2 1_555 1_555
O5_2 C7_2 1_555 1_555
O6A Eu2 1_555 1_555
O6_2 Eu2A 1_555 1_555
O7A Eu1A_2 1_555 1_555
O7_2 Eu1_2 1_555 1_555
O8A Eu1A_2 1_555 1_555
O8_2 C9_2 1_555 1_555
O9A Eu2 1_555 1_555
O9_2 Eu2A 1_555 1_555
O10A Eu1A_2 1_555 1_555
O10_2 Eu1_3 1_555 1_555
O11A Eu2 1_555 1_555
O11_2 Eu2A 1_555 1_555
O12A Eu1A 1_555 1_555
O12A_2 Eu1A_2 1_555 1_555
O13A Eu1 1_555 1_555
O13_2 Eu1A_2 1_555 1_555
O14A Eu1A_2 1_555 1_555
O15A Eu2A 1_555 1_555
O16A Eu2A 1_555 1_555
C1A P1A 1_555 1_555
H2A C1A 1_555 1_555
H3A C1A 1_555 1_555
C2A N1A 1_555 1_555
H4A C2A 1_555 1_555
H5A C2A 1_555 1_555
C3A C2A 1_555 1_555
H6A C3A 1_555 1_555
H7A C3A 1_555 1_555
C4A C3A 1_555 1_555
H8A C4A 1_555 1_555
H9A C4A 1_555 1_555
C5A C4A 1_555 1_555
H10A C5A 1_555 1_555
H11A C5A 1_555 1_555
C6A N1A 1_555 1_555
H12A C6A 1_555 1_555
H13A C6A 1_555 1_555
C7_2 O4_2 1_555 1_555
C8_2 O6_2 1_555 1_555
C9_2 O9_2 1_555 1_555
C10_2 O10_2 1_555 1_555
C11A C11 1_555 1_555
N1 C1 1_555 1_555
O6 Eu2A_2 1_555 1_555
O11 Eu2A_3 1_555 1_555
C5 C6 1_555 1_555
C7 C8 1_555 1_555
C9 C10 1_555 1_555
P1A O3A 1_555 1_555
N1A C1A 1_555 1_555
O7_2 C8_2 1_555 1_555
O11_2 C10_2 1_555 1_555
O12A C11A 1_555 1_555
O13A C11A 1_555 1_555
C5A C6A 1_555 1_555
C7_2 C8_2 1_555 1_555
C9_2 C10_2 1_555 1_555

#END
