
#######################################################################
#
#                 Cambridge Crystallographic Data Centre
#                                CCDC 
#
#######################################################################
#
# If this CIF has been generated from an entry in the Cambridge 
# Structural Database, then it will include bibliographic, chemical, 
# crystal, experimental, refinement or atomic coordinate data resulting 
# from the CCDC's data processing and validation procedures.
#
#######################################################################

data_PUNBIK
_symmetry_cell_setting           triclinic
_symmetry_space_group_name_H-M   'P -1'
_symmetry_Int_Tables_number      2
_space_group_name_Hall           '-P 1'
loop_
_symmetry_equiv_pos_site_id
_symmetry_equiv_pos_as_xyz
1 x,y,z
2 -x,-y,-z
_cell_length_a                   9.533(2)
_cell_length_b                   10.417(3)
_cell_length_c                   12.329(3)
_cell_angle_alpha                73.252(15)
_cell_angle_beta                 69.498(15)
_cell_angle_gamma                66.543(15)
_cell_volume                     1036.13
loop_
_atom_site_label
_atom_site_type_symbol
_atom_site_fract_x
_atom_site_fract_y
_atom_site_fract_z
Er1 Er -0.06280(3) 0.17983(3) 0.76384(3)
Er2 Er 0.40666(3) 0.17202(3) 0.29477(3)
P1 P 0.3393(2) 0.17583(17) 0.60511(16)
C1 C 0.3380(10) 0.3525(8) 0.6089(7)
H1 H 0.4464 0.3529 0.5831
H2 H 0.2815 0.4236 0.5544
N1 N 0.2618(7) 0.3915(5) 0.7288(6)
H3 H 0.1628 0.3847 0.7531
C2 C 0.3485(9) 0.2954(8) 0.8189(6)
H4 H 0.4531 0.3032 0.7978
H5 H 0.3610 0.1974 0.8219
C3 C 0.2530(11) 0.3387(10) 0.9392(7)
H6 H 0.1493 0.3288 0.9604
H7 H 0.3071 0.2761 0.9981
C4 C 0.2334(12) 0.4916(8) 0.9371(7)
H8 H 0.1691 0.5188 1.0129
H9 H 0.3363 0.5008 0.9214
C5 C 0.1538(11) 0.5872(8) 0.8420(7)
H10 H 0.1461 0.6842 0.8376
H11 H 0.0469 0.5845 0.8630
C6 C 0.2431(11) 0.5441(8) 0.7220(7)
H12 H 0.1852 0.6051 0.6648
H13 H 0.3468 0.5551 0.6968
C7 C -0.1481(8) -0.0393(7) 0.6905(6)
C8 C -0.2750(8) -0.0078(7) 0.8077(6)
C9 C -0.3125(8) 0.4869(8) 0.7442(7)
C10 C -0.1687(7) 0.5113(7) 0.7532(6)
C11 C -0.0505(8) 0.0658(7) 1.0298(6)
O1 O 0.1928(6) 0.1555(5) 0.6971(5)
O2 O 0.3287(7) 0.1920(6) 0.4825(5)
O3 O 0.4914(6) 0.0676(5) 0.6316(5)
O4 O -0.0370(6) 0.0092(6) 0.6613(5)
O5 O 0.1705(7) 0.1056(6) 0.3685(5)
O6 O -0.2640(6) 0.0754(6) 0.8572(5)
O7 O 0.3783(6) 0.0655(6) 0.1615(5)
O8 O -0.3026(7) 0.3596(6) 0.7581(6)
O9 O 0.4231(8) 0.4035(6) 0.2767(7)
O10 O -0.0508(7) 0.4011(6) 0.7663(5)
O11 O 0.1841(8) 0.3632(6) 0.2482(7)
O12 O -0.1096(7) 0.1805(5) 0.9649(5)
O13 O 0.0693(7) -0.0477(5) 0.8630(5)
O14 O -0.0419(8) 0.2845(6) 0.5563(6)
H14 H -0.1068 0.3689 0.5515
H15 H -0.0648 0.2358 0.5244
O15 O 0.6543(6) 0.1546(6) 0.3031(5)
H16 H 0.6554 0.1372 0.3746
H17 H 0.7257 0.0875 0.2686
O16 O 0.5666(8) 0.2103(8) 0.0960(5)
H18 H 0.5135 0.2254 0.0482
H19 H 0.5950 0.2817 0.0854
Er1A Er 1.06280(3) -0.17983(3) 0.23616(3)
Er1A_2 Er 0.06280(3) -0.17983(3) 1.23616(3)
Er1A_3 Er 0.06280(3) -0.17983(3) 0.23616(3)
Er1A_4 Er 0.06280(3) 0.82017(3) 0.23616(3)
Er2A Er 0.59334(3) -0.17202(3) 0.70523(3)
Er2A_2 Er -0.40666(3) -0.17202(3) 0.70523(3)
Er2A_3 Er -0.40666(3) 0.82798(3) 0.70523(3)
P1A P 0.6607(2) -0.17583(17) 0.39489(16)
C1A C 0.6620(10) -0.3525(8) 0.3911(7)
H1A H 0.5536 -0.3529 0.4169
H2A H 0.7185 -0.4236 0.4456
N1A N 0.7382(7) -0.3915(5) 0.2712(6)
H3A H 0.8372 -0.3847 0.2469
C2A C 0.6515(9) -0.2954(8) 0.1811(6)
H4A H 0.5469 -0.3032 0.2022
H5A H 0.6390 -0.1974 0.1781
C3A C 0.7470(11) -0.3387(10) 0.0608(7)
H6A H 0.8507 -0.3288 0.0396
H7A H 0.6929 -0.2761 0.0019
C4A C 0.7666(12) -0.4916(8) 0.0629(7)
H8A H 0.8309 -0.5188 -0.0129
H9A H 0.6637 -0.5008 0.0786
C5A C 0.8462(11) -0.5872(8) 0.1580(7)
H10A H 0.8539 -0.6842 0.1624
H11A H 0.9531 -0.5845 0.1370
C6A C 0.7569(11) -0.5441(8) 0.2780(7)
H12A H 0.8148 -0.6051 0.3352
H13A H 0.6532 -0.5551 0.3032
C7A C 0.1481(8) 0.0393(7) 0.3095(6)
C8A C 0.2750(8) 0.0078(7) 0.1923(6)
C9A C 0.3125(8) 0.5131(8) 0.2558(7)
C10A C 0.1687(7) 0.4887(7) 0.2468(6)
C11A C 0.0505(8) -0.0658(7) 0.9702(6)
O1A O 0.8072(6) -0.1555(5) 0.3029(5)
O2A O 0.6713(7) -0.1920(6) 0.5175(5)
O3A O 0.5086(6) -0.0676(5) 0.3684(5)
O4A O 1.0370(6) -0.0092(6) 0.3387(5)
O4A_2 O 0.0370(6) -0.0092(6) 0.3387(5)
O5A O -0.1705(7) -0.1056(6) 0.6315(5)
O5A_2 O 0.8295(7) -0.1056(6) 0.6315(5)
O6A O 1.2640(6) -0.0754(6) 0.1428(5)
O6A_2 O 0.2640(6) -0.0754(6) 0.1428(5)
O7A O -0.3783(6) -0.0655(6) 0.8385(5)
O7A_2 O 0.6217(6) -0.0655(6) 0.8385(5)
O8A O 1.3026(7) -0.3596(6) 0.2419(6)
O8A_2 O 0.3026(7) 0.6404(6) 0.2419(6)
O9A O -0.4231(8) 0.5965(6) 0.7233(7)
O9A_2 O 0.5769(8) -0.4035(6) 0.7233(7)
O10A O 1.0508(7) -0.4011(6) 0.2337(5)
O10A_2 O 0.0508(7) 0.5989(6) 0.2337(5)
O11A O -0.1841(8) 0.6368(6) 0.7518(7)
O11A_2 O 0.8159(8) -0.3632(6) 0.7518(7)
O12A O 1.1096(7) -0.1805(5) 0.0351(5)
O12A_2 O 0.1096(7) -0.1805(5) 1.0351(5)
O13A O 0.9307(7) 0.0477(5) 0.1370(5)
O13A_2 O -0.0693(7) 0.0477(5) 1.1370(5)
O14A O 1.0419(8) -0.2845(6) 0.4437(6)
H14A H 1.1068 -0.3689 0.4485
H15A H 1.0648 -0.2358 0.4756
O15A O 0.3457(6) -0.1546(6) 0.6969(5)
H16A H 0.3446 -0.1372 0.6254
H17A H 0.2743 -0.0875 0.7314
O16A O 0.4334(8) -0.2103(8) 0.9040(5)
H18A H 0.4865 -0.2254 0.9518
H19A H 0.4050 -0.2817 0.9146
O17 O 0.7473(8) 0.1761(7) 0.4813(6)
H20 H 0.8460 0.1643 0.4585
H21 H 0.7291 0.1128 0.5405
loop_
_geom_bond_atom_site_label_1
_geom_bond_atom_site_label_2
_geom_bond_site_symmetry_1
_geom_bond_site_symmetry_2
Er1 O1 1_555 1_555
Er2 O2 1_555 1_555
P1 C1 1_555 1_555
C1 H1 1_555 1_555
H2 C1 1_555 1_555
N1 C1 1_555 1_555
H3 N1 1_555 1_555
C2 N1 1_555 1_555
H4 C2 1_555 1_555
H5 C2 1_555 1_555
C3 C2 1_555 1_555
H6 C3 1_555 1_555
H7 C3 1_555 1_555
C4 C3 1_555 1_555
H8 C4 1_555 1_555
H9 C4 1_555 1_555
C5 C4 1_555 1_555
H10 C5 1_555 1_555
H11 C5 1_555 1_555
C6 N1 1_555 1_555
H12 C6 1_555 1_555
H13 C6 1_555 1_555
C7 C8 1_555 1_555
C8 O6 1_555 1_555
C9 C10 1_555 1_555
C10 O10 1_555 1_555
C11 O12 1_555 1_555
O1 P1 1_555 1_555
O2 P1 1_555 1_555
O3 P1 1_555 1_555
O4 Er1 1_555 1_555
O5 Er2 1_555 1_555
O6 Er1 1_555 1_555
O7 Er2 1_555 1_555
O8 Er1 1_555 1_555
O9 Er2 1_555 1_555
O10 Er1 1_555 1_555
O11 Er2 1_555 1_555
O12 Er1 1_555 1_555
O13 Er1 1_555 1_555
O14 Er1 1_555 1_555
H14 O14 1_555 1_555
H15 O14 1_555 1_555
O15 Er2 1_555 1_555
H16 O15 1_555 1_555
H17 O15 1_555 1_555
O16 Er2 1_555 1_555
H18 O16 1_555 1_555
H19 O16 1_555 1_555
O17 H20 1_555 1_555
H21 O17 1_555 1_555
Er1A O1A 1_555 1_555
Er1A_2 O12A_2 1_555 1_555
Er1A_3 O4A_2 1_555 1_555
Er1A_4 O8A_2 1_555 1_555
Er2A O3 1_555 1_555
Er2A_2 O5A 1_555 1_555
Er2A_3 O9A 1_555 1_555
P1A C1A 1_555 1_555
C1A H1A 1_555 1_555
H2A C1A 1_555 1_555
N1A C1A 1_555 1_555
H3A N1A 1_555 1_555
C2A N1A 1_555 1_555
H4A C2A 1_555 1_555
H5A C2A 1_555 1_555
C3A C2A 1_555 1_555
H6A C3A 1_555 1_555
H7A C3A 1_555 1_555
C4A C3A 1_555 1_555
H8A C4A 1_555 1_555
H9A C4A 1_555 1_555
C5A C4A 1_555 1_555
H10A C5A 1_555 1_555
H11A C5A 1_555 1_555
C6A N1A 1_555 1_555
H12A C6A 1_555 1_555
H13A C6A 1_555 1_555
C7A O5 1_555 1_555
C8A O7 1_555 1_555
C9A O9 1_555 1_555
C10A O11 1_555 1_555
C11A C11 1_555 1_555
O1A P1A 1_555 1_555
O2A Er2A 1_555 1_555
O3A Er2 1_555 1_555
O4A Er1A 1_555 1_555
O4A_2 C7A 1_555 1_555
O5A C7 1_555 1_555
O5A_2 Er2A 1_555 1_555
O6A Er1A 1_555 1_555
O6A_2 Er1A_3 1_555 1_555
O7A C8 1_555 1_555
O7A_2 Er2A 1_555 1_555
O8A Er1A 1_555 1_555
O8A_2 C9A 1_555 1_555
O9A C9 1_555 1_555
O9A_2 Er2A 1_555 1_555
O10A Er1A 1_555 1_555
O10A_2 Er1A_4 1_555 1_555
O11A C10 1_555 1_555
O11A_2 Er2A 1_555 1_555
O12A Er1A 1_555 1_555
O12A_2 C11A 1_555 1_555
O13A Er1A 1_555 1_555
O13A_2 C11 1_555 1_555
O14A Er1A 1_555 1_555
H14A O14A 1_555 1_555
H15A O14A 1_555 1_555
O15A Er2A 1_555 1_555
H16A O15A 1_555 1_555
H17A O15A 1_555 1_555
O16A Er2A 1_555 1_555
H18A O16A 1_555 1_555
H19A O16A 1_555 1_555
C5 C6 1_555 1_555
C7 O4 1_555 1_555
C9 O8 1_555 1_555
O13 C11A 1_555 1_555
Er1A_2 O13A_2 1_555 1_555
Er2A_2 O7A 1_555 1_555
Er2A_3 O11A 1_555 1_555
P1A O2A 1_555 1_555
P1A O3A 1_555 1_555
C5A C6A 1_555 1_555
C7A C8A 1_555 1_555
C8A O6A_2 1_555 1_555
C9A C10A 1_555 1_555
C10A O10A_2 1_555 1_555

#END
