
#######################################################################
#
#                 Cambridge Crystallographic Data Centre
#                                CCDC 
#
#######################################################################
#
# If this CIF has been generated from an entry in the Cambridge 
# Structural Database, then it will include bibliographic, chemical, 
# crystal, experimental, refinement or atomic coordinate data resulting 
# from the CCDC's data processing and validation procedures.
#
#######################################################################

data_PUNDEI
_symmetry_cell_setting           monoclinic
_symmetry_space_group_name_H-M   'C 2/c'
_symmetry_Int_Tables_number      15
_space_group_name_Hall           '-C 2yn'
loop_
_symmetry_equiv_pos_site_id
_symmetry_equiv_pos_as_xyz
1 x,y,z
2 -x,y,1/2-z
3 1/2+x,1/2+y,z
4 1/2-x,1/2+y,1/2-z
5 -x,-y,-z
6 x,-y,1/2+z
7 1/2-x,1/2-y,-z
8 1/2+x,1/2-y,1/2+z
_cell_length_a                   18.2560(7)
_cell_length_b                   9.0690(4)
_cell_length_c                   19.0920(7)
_cell_angle_alpha                90
_cell_angle_beta                 90.300(4)
_cell_angle_gamma                90
_cell_volume                     3160.9
loop_
_atom_site_label
_atom_site_type_symbol
_atom_site_fract_x
_atom_site_fract_y
_atom_site_fract_z
Cd1 Cd 0.563057(7) 1.151798(15) 0.554037(7)
C1 C 0.51305(11) 1.3662(2) 0.42670(10)
H1 H 0.4656 1.3289 0.4276
C2 C 0.62476(12) 1.4126(3) 0.45282(11)
H2 H 0.6697 1.4119 0.4759
C3 C 0.60935(12) 1.4899(3) 0.39460(11)
H3 H 0.6410 1.5521 0.3706
C4 C 0.50084(12) 1.5148(2) 0.31470(10)
H4 H 0.4505 1.5372 0.3269
H5 H 0.5240 1.6067 0.3011
C5 C 0.5000 1.4104(3) 0.2500
C6 C 0.42887(11) 1.3188(2) 0.24727(10)
H6 H 0.4327 1.2495 0.2088
H7 H 0.3886 1.3850 0.2364
C7 C 0.35309(11) 1.2684(3) 0.35525(11)
H8 H 0.3216 1.3489 0.3528
C8 C 0.35245(12) 1.1591(3) 0.40371(12)
H9 H 0.3204 1.1530 0.4413
C9 C 0.43910(11) 1.1088(2) 0.33224(10)
H10 H 0.4778 1.0612 0.3103
C10 C 0.68618(10) 1.2766(2) 0.61531(10)
C11 C 0.74461(10) 1.3696(2) 0.64879(10)
C12 C 0.73751(11) 1.4126(2) 0.71843(10)
H11 H 0.6987 1.3771 0.7449
C13 C 0.78739(11) 1.5071(2) 0.74833(10)
H12 H 0.7825 1.5347 0.7950
C14 C 0.84520(10) 1.5614(2) 0.70896(10)
H13 H 0.8784 1.6268 0.7291
C15 C 0.85373(10) 1.5181(2) 0.63933(10)
C16 C 0.80378(10) 1.4215(2) 0.60948(10)
H14 H 0.8096 1.3911 0.5633
C17 C 0.91849(10) 1.5734(2) 0.59825(10)
O1 O 0.62314(7) 1.28542(19) 0.64186(8)
O2 O 0.70041(8) 1.19898(18) 0.56353(7)
O3 O 0.96127(8) 1.66262(16) 0.62729(8)
O4 O 0.93019(8) 1.52594(18) 0.53776(8)
N1 N 0.56355(9) 1.33448(19) 0.47321(9)
N2 N 0.53809(9) 1.45952(19) 0.37730(8)
N3 N 0.40980(9) 1.23611(18) 0.31025(8)
N4 N 0.40626(9) 1.0594(2) 0.38883(9)
Cd1B Cd 0.063057(7) 0.651798(15) 0.554037(7)
Cd1B_2 Cd 1.063057(7) 1.651798(15) 0.554037(7)
Cd1F Cd 0.936943(7) 1.348202(15) 0.445963(7)
Cd1D Cd 0.436943(7) 0.848202(15) 0.445963(7)
Cd1A Cd 0.436943(7) 1.151798(15) -0.054037(7)
Cd1E Cd 0.563057(7) 0.848202(15) 0.054037(7)
C1A C 0.48695(11) 1.3662(2) 0.07330(10)
H1A H 0.5344 1.3289 0.0724
C2A C 0.37524(12) 1.4126(3) 0.04718(11)
H2A H 0.3303 1.4119 0.0241
C3A C 0.39065(12) 1.4899(3) 0.10540(11)
H3A H 0.3590 1.5521 0.1294
C4A C 0.49916(12) 1.5148(2) 0.18530(10)
H4A H 0.5495 1.5372 0.1731
H5A H 0.4760 1.6067 0.1989
C6A C 0.57113(11) 1.3188(2) 0.25273(10)
H6A H 0.5673 1.2495 0.2912
H7A H 0.6114 1.3850 0.2636
C7A C 0.64691(11) 1.2684(3) 0.14475(11)
H8A H 0.6784 1.3489 0.1472
C8A C 0.64755(12) 1.1591(3) 0.09629(12)
H9A H 0.6796 1.1530 0.0587
C9A C 0.56090(11) 1.1088(2) 0.16776(10)
H10A H 0.5222 1.0612 0.1897
C10B C 0.18618(10) 0.7766(2) 0.61531(10)
C11B C 0.24461(10) 0.8696(2) 0.64879(10)
C12B C 0.23751(11) 0.9126(2) 0.71843(10)
H11B H 0.1987 0.8771 0.7449
C13B C 0.28739(11) 1.0071(2) 0.74833(10)
H12B H 0.2825 1.0347 0.7950
C14B C 0.34520(10) 1.0614(2) 0.70896(10)
H13B H 0.3784 1.1268 0.7291
C15B C 0.35373(10) 1.0181(2) 0.63933(10)
C16B C 0.30378(10) 0.9215(2) 0.60948(10)
H14B H 0.3096 0.8911 0.5633
C17B C 0.41849(10) 1.0734(2) 0.59825(10)
O1B O 0.12314(7) 0.78542(19) 0.64186(8)
O2B O 0.20041(8) 0.69898(18) 0.56353(7)
O3B O 0.46127(8) 1.16262(16) 0.62729(8)
O3_2 O -0.03873(8) 0.66262(16) 0.62729(8)
O4B O 0.43019(8) 1.02594(18) 0.53776(8)
O4F O 0.56981(8) 0.97406(18) 0.46224(8)
O4D O 0.06981(8) 0.47406(18) 0.46224(8)
N1A N 0.43645(9) 1.33448(19) 0.02679(9)
N1B N 0.06355(9) 0.83448(19) 0.47321(9)
N2A N 0.46191(9) 1.45952(19) 0.12270(8)
N3A N 0.59020(9) 1.23611(18) 0.18975(8)
N4A N 0.59374(9) 1.0594(2) 0.11117(9)
N4D N 0.59374(9) 0.9406(2) 0.61117(9)
N4F N 0.09374(9) 0.4406(2) 0.61117(9)
loop_
_geom_bond_atom_site_label_1
_geom_bond_atom_site_label_2
_geom_bond_site_symmetry_1
_geom_bond_site_symmetry_2
Cd1 O1 1_555 1_555
C1 H1 1_555 1_555
C2 H2 1_555 1_555
C3 C2 1_555 1_555
H3 C3 1_555 1_555
C4 H4 1_555 1_555
H5 C4 1_555 1_555
C5 C4 1_555 1_555
C6 C5 1_555 1_555
H6 C6 1_555 1_555
H7 C6 1_555 1_555
C7 H8 1_555 1_555
C8 C7 1_555 1_555
H9 C8 1_555 1_555
C9 H10 1_555 1_555
C10 C11 1_555 1_555
C11 C12 1_555 1_555
C12 H11 1_555 1_555
C13 C12 1_555 1_555
H12 C13 1_555 1_555
C14 C13 1_555 1_555
H13 C14 1_555 1_555
C15 C14 1_555 1_555
C16 C11 1_555 1_555
H14 C16 1_555 1_555
C17 C15 1_555 1_555
O1 C10 1_555 1_555
O2 Cd1 1_555 1_555
O3 C17 1_555 1_555
O4 C17 1_555 1_555
N1 Cd1 1_555 1_555
N2 C1 1_555 1_555
N3 C6 1_555 1_555
N4 C8 1_555 1_555
Cd1B O1B 1_555 1_555
Cd1B_2 O3 1_555 1_555
Cd1F O4 1_555 1_555
Cd1D N4 1_555 1_555
Cd1A N1A 1_555 1_555
Cd1E N4A 1_555 1_555
C1A H1A 1_555 1_555
C2A H2A 1_555 1_555
C3A C2A 1_555 1_555
H3A C3A 1_555 1_555
C4A C5 1_555 1_555
H4A C4A 1_555 1_555
H5A C4A 1_555 1_555
C6A C5 1_555 1_555
H6A C6A 1_555 1_555
H7A C6A 1_555 1_555
C7A H8A 1_555 1_555
C8A C7A 1_555 1_555
H9A C8A 1_555 1_555
C9A H10A 1_555 1_555
C10B C11B 1_555 1_555
C11B C12B 1_555 1_555
C12B H11B 1_555 1_555
C13B C12B 1_555 1_555
H12B C13B 1_555 1_555
C14B C13B 1_555 1_555
H13B C14B 1_555 1_555
C15B C14B 1_555 1_555
C16B C11B 1_555 1_555
H14B C16B 1_555 1_555
C17B C15B 1_555 1_555
O1B C10B 1_555 1_555
O2B Cd1B 1_555 1_555
O3B Cd1 1_555 1_555
O3_2 Cd1B 1_555 1_555
O4B Cd1D 1_555 1_555
O4F Cd1 1_555 1_555
O4D Cd1B 1_555 1_555
N1A C1A 1_555 1_555
N1B Cd1B 1_555 1_555
N2A C1A 1_555 1_555
N3A C6A 1_555 1_555
N4A C8A 1_555 1_555
N4D Cd1 1_555 1_555
N4F Cd1B 1_555 1_555
C1 N1 1_555 1_555
C2 N1 1_555 1_555
C3 N2 1_555 1_555
C4 N2 1_555 1_555
C7 N3 1_555 1_555
C9 N3 1_555 1_555
C9 N4 1_555 1_555
C10 O2 1_555 1_555
C15 C16 1_555 1_555
C2A N1A 1_555 1_555
C3A N2A 1_555 1_555
C4A N2A 1_555 1_555
C7A N3A 1_555 1_555
C9A N3A 1_555 1_555
C9A N4A 1_555 1_555
C10B O2B 1_555 1_555
C15B C16B 1_555 1_555
C17B O3B 1_555 1_555
C17B O4B 1_555 1_555

#END
