
#######################################################################
#
#                 Cambridge Crystallographic Data Centre
#                                CCDC 
#
#######################################################################
#
# If this CIF has been generated from an entry in the Cambridge 
# Structural Database, then it will include bibliographic, chemical, 
# crystal, experimental, refinement or atomic coordinate data resulting 
# from the CCDC's data processing and validation procedures.
#
#######################################################################

data_PUNDIM
_symmetry_cell_setting           monoclinic
_symmetry_space_group_name_H-M   'C 2/c'
_symmetry_Int_Tables_number      15
_space_group_name_Hall           '-C 2yn'
loop_
_symmetry_equiv_pos_site_id
_symmetry_equiv_pos_as_xyz
1 x,y,z
2 -x,y,1/2-z
3 1/2+x,1/2+y,z
4 1/2-x,1/2+y,1/2-z
5 -x,-y,-z
6 x,-y,1/2+z
7 1/2-x,1/2-y,-z
8 1/2+x,1/2-y,1/2+z
_cell_length_a                   22.605(8)
_cell_length_b                   11.4910(18)
_cell_length_c                   17.511(12)
_cell_angle_alpha                90
_cell_angle_beta                 124.650(14)
_cell_angle_gamma                90
_cell_volume                     3741.82
loop_
_atom_site_label
_atom_site_type_symbol
_atom_site_fract_x
_atom_site_fract_y
_atom_site_fract_z
Cd1 Cd 0.74009(2) 0.16039(3) 0.67583(2)
C1 C 0.5937(3) 0.1407(4) 0.4766(3)
H1 H 0.5815 0.0865 0.5049
C2 C 0.6488(3) 0.2755(4) 0.4551(3)
H2 H 0.6825 0.3318 0.4666
C3 C 0.5906(3) 0.2473(4) 0.3711(3)
H3 H 0.5768 0.2803 0.3147
C4 C 0.4911(2) 0.0910(4) 0.3165(3)
H4 H 0.4508 0.1434 0.2798
H5 H 0.4796 0.0399 0.3504
C5 C 0.5000 0.0166(6) 0.2500
C6 C 0.4318(3) -0.0577(4) 0.1886(3)
H6 H 0.3929 -0.0064 0.1448
H7 H 0.4404 -0.1110 0.1529
C7 C 0.3576(3) -0.0936(4) 0.2496(3)
H8 H 0.3335 -0.0227 0.2296
C8 C 0.4287(4) -0.2335(6) 0.2745(4)
H9 H 0.4633 -0.2804 0.2770
C9 C 0.3893(3) -0.2593(5) 0.3078(4)
H10 H 0.3922 -0.3288 0.3370
C10 C 0.8707(3) 0.1024(5) 0.8400(3)
C11 C 0.9351(3) -0.0093(5) 0.9904(3)
H11 H 0.8919 -0.0154 0.9850
C12 C 0.9385(3) 0.0499(4) 0.9244(3)
C13 C 1.0030(3) 0.0595(4) 0.9353(3)
H12 H 1.0055 0.1009 0.8916
C14 C 0.7393(3) -0.0529(5) 0.5956(3)
C15 C 0.7444(3) -0.1567(5) 0.5458(3)
C16 C 0.7147(3) -0.2606(5) 0.5418(4)
H13 H 0.6905 -0.2694 0.5702
C17 C 0.7801(3) -0.1458(5) 0.5041(4)
H14 H 0.8010 -0.0750 0.5066
N1 N 0.55502(19) 0.1603(4) 0.3839(2)
N2 N 0.6510(2) 0.2082(3) 0.5217(2)
N3 N 0.4079(2) -0.1250(3) 0.2361(2)
N4 N 0.3455(2) -0.1709(4) 0.2930(2)
O1 O 0.6960(2) -0.0592(3) 0.6196(2)
O2 O 0.7780(2) 0.0341(3) 0.6099(2)
O3 O 0.8118(2) 0.0633(3) 0.8187(2)
O4 O 0.8764(2) 0.1806(3) 0.7948(2)
O5 O 0.76145(19) 0.3589(3) 0.7056(2)
H15 H 0.784(3) 0.359(5) 0.7622(17)
H16 H 0.729(2) 0.407(4) 0.676(3)
Cd1A Cd 0.25991(2) 0.16039(3) -0.17583(2)
Cd1D Cd 0.25991(2) -0.16039(3) 0.32417(2)
Cd1E Cd 0.74009(2) -0.16039(3) 0.17583(2)
Cd1D_2 Cd 1.25991(2) -0.16039(3) 1.32417(2)
Cd1F Cd 0.75991(2) -0.66039(3) 0.32417(2)
C1A C 0.4063(3) 0.1407(4) 0.0234(3)
H1A H 0.4185 0.0865 -0.0049
C2A C 0.3512(3) 0.2755(4) 0.0449(3)
H2A H 0.3175 0.3318 0.0334
C3A C 0.4094(3) 0.2473(4) 0.1289(3)
H3A H 0.4232 0.2803 0.1853
C4A C 0.5089(2) 0.0910(4) 0.1835(3)
H4A H 0.5492 0.1434 0.2202
H5A H 0.5204 0.0399 0.1496
C6A C 0.5682(3) -0.0577(4) 0.3114(3)
H6A H 0.6071 -0.0064 0.3552
H7A H 0.5596 -0.1110 0.3471
C7A C 0.6424(3) -0.0936(4) 0.2504(3)
H8A H 0.6665 -0.0227 0.2704
C8A C 0.5713(4) -0.2335(6) 0.2255(4)
H9A H 0.5367 -0.2804 0.2230
C9A C 0.6107(3) -0.2593(5) 0.1922(4)
H10A H 0.6078 -0.3288 0.1630
C10D C 1.1293(3) -0.1024(5) 1.1600(3)
C11D C 1.0649(3) 0.0093(5) 1.0096(3)
H11D H 1.1081 0.0154 1.0150
C12D C 1.0615(3) -0.0499(4) 1.0756(3)
C13D C 0.9970(3) -0.0595(4) 1.0647(3)
H12D H 0.9945 -0.1009 1.1084
C14F C 0.7607(3) -0.4471(5) 0.4044(3)
C15F C 0.7556(3) -0.3433(5) 0.4542(3)
C16F C 0.7853(3) -0.2394(5) 0.4582(4)
H13F H 0.8095 -0.2306 0.4298
C17F C 0.7199(3) -0.3542(5) 0.4959(4)
H14F H 0.6990 -0.4250 0.4934
N1A N 0.44498(19) 0.1603(4) 0.1161(2)
N2A N 0.3490(2) 0.2082(3) -0.0217(2)
N3A N 0.5921(2) -0.1250(3) 0.2639(2)
N4A N 0.6545(2) -0.1709(4) 0.2070(2)
N4D N 0.6545(2) 0.1709(4) 0.7070(2)
N4E N 0.3455(2) 0.1709(4) -0.2070(2)
O1F O 0.8040(2) -0.4408(3) 0.3804(2)
O2F O 0.7220(2) -0.5341(3) 0.3901(2)
O2A O 0.2220(2) 0.0341(3) -0.1099(2)
O3D O 1.1882(2) -0.0633(3) 1.1813(2)
O3A O 0.1882(2) 0.0633(3) -0.3187(2)
O4D O 1.1236(2) -0.1806(3) 1.2052(2)
O4A O 0.1236(2) 0.1806(3) -0.2948(2)
O5A O 0.23855(19) 0.3589(3) -0.2056(2)
H15A H 0.216(3) 0.359(5) -0.2622(17)
H16A H 0.271(2) 0.407(4) -0.176(3)
O6 O 0.5511(3) 0.8690(5) 0.5076(5)
H17 H 0.598(3) 0.868(8) 0.557(5)
H18 H 0.537(5) 0.802(5) 0.477(6)
loop_
_geom_bond_atom_site_label_1
_geom_bond_atom_site_label_2
_geom_bond_site_symmetry_1
_geom_bond_site_symmetry_2
Cd1 N2 1_555 1_555
C1 H1 1_555 1_555
C2 H2 1_555 1_555
C3 C2 1_555 1_555
H3 C3 1_555 1_555
C4 H4 1_555 1_555
H5 C4 1_555 1_555
C5 C4 1_555 1_555
C6 C5 1_555 1_555
H6 C6 1_555 1_555
H7 C6 1_555 1_555
C7 H8 1_555 1_555
C8 H9 1_555 1_555
C9 C8 1_555 1_555
H10 C9 1_555 1_555
C10 C12 1_555 1_555
C11 H11 1_555 1_555
C12 C11 1_555 1_555
C13 C12 1_555 1_555
H12 C13 1_555 1_555
C14 C15 1_555 1_555
C15 C16 1_555 1_555
C16 H13 1_555 1_555
C17 C15 1_555 1_555
H14 C17 1_555 1_555
N1 C1 1_555 1_555
N2 C1 1_555 1_555
N3 C6 1_555 1_555
N4 C7 1_555 1_555
O1 C14 1_555 1_555
O2 Cd1 1_555 1_555
O3 Cd1 1_555 1_555
O4 Cd1 1_555 1_555
O5 Cd1 1_555 1_555
H15 O5 1_555 1_555
H16 O5 1_555 1_555
O6 H17 1_555 1_555
H18 O6 1_555 1_555
Cd1A N2A 1_555 1_555
Cd1D N4 1_555 1_555
Cd1E N4A 1_555 1_555
Cd1D_2 O3D 1_555 1_555
Cd1F O2F 1_555 1_555
C1A H1A 1_555 1_555
C2A H2A 1_555 1_555
C3A C2A 1_555 1_555
H3A C3A 1_555 1_555
C4A C5 1_555 1_555
H4A C4A 1_555 1_555
H5A C4A 1_555 1_555
C6A C5 1_555 1_555
H6A C6A 1_555 1_555
H7A C6A 1_555 1_555
C7A H8A 1_555 1_555
C8A H9A 1_555 1_555
C9A C8A 1_555 1_555
H10A C9A 1_555 1_555
C10D C12D 1_555 1_555
C11D C13 1_555 1_555
H11D C11D 1_555 1_555
C12D C11D 1_555 1_555
C13D C11 1_555 1_555
H12D C13D 1_555 1_555
C14F C15F 1_555 1_555
C15F C16F 1_555 1_555
C16F C17 1_555 1_555
H13F C16F 1_555 1_555
C17F C16 1_555 1_555
H14F C17F 1_555 1_555
N1A C1A 1_555 1_555
N2A C1A 1_555 1_555
N3A C6A 1_555 1_555
N4A C7A 1_555 1_555
N4D Cd1 1_555 1_555
N4E Cd1A 1_555 1_555
O1F C14F 1_555 1_555
O2F C14F 1_555 1_555
O2A Cd1A 1_555 1_555
O3D C10D 1_555 1_555
O3A Cd1A 1_555 1_555
O4D Cd1D_2 1_555 1_555
O4A Cd1A 1_555 1_555
O5A Cd1A 1_555 1_555
H15A O5A 1_555 1_555
H16A O5A 1_555 1_555
C2 N2 1_555 1_555
C3 N1 1_555 1_555
C4 N1 1_555 1_555
C7 N3 1_555 1_555
C8 N3 1_555 1_555
C9 N4 1_555 1_555
C10 O3 1_555 1_555
C10 O4 1_555 1_555
C14 O2 1_555 1_555
C2A N2A 1_555 1_555
C3A N1A 1_555 1_555
C4A N1A 1_555 1_555
C7A N3A 1_555 1_555
C8A N3A 1_555 1_555
C9A N4A 1_555 1_555
C10D O4D 1_555 1_555
C12D C13D 1_555 1_555
C15F C17F 1_555 1_555

#END
