
#######################################################################
#
#                 Cambridge Crystallographic Data Centre
#                                CCDC 
#
#######################################################################
#
# If this CIF has been generated from an entry in the Cambridge 
# Structural Database, then it will include bibliographic, chemical, 
# crystal, experimental, refinement or atomic coordinate data resulting 
# from the CCDC's data processing and validation procedures.
#
#######################################################################

data_PUNQOF
_symmetry_cell_setting           triclinic
_symmetry_space_group_name_H-M   'P -1'
_symmetry_Int_Tables_number      2
_space_group_name_Hall           '-P 1'
loop_
_symmetry_equiv_pos_site_id
_symmetry_equiv_pos_as_xyz
1 x,y,z
2 -x,-y,-z
_cell_length_a                   9.274(6)
_cell_length_b                   9.814(7)
_cell_length_c                   11.032(7)
_cell_angle_alpha                63.948(15)
_cell_angle_beta                 81.92(3)
_cell_angle_gamma                81.76(2)
_cell_volume                     889.339
loop_
_atom_site_label
_atom_site_type_symbol
_atom_site_fract_x
_atom_site_fract_y
_atom_site_fract_z
Zn1 Zn 0.79850(10) 0.20333(10) 0.07303(9)
Zn2 Zn 0.78227(10) -0.41979(11) 0.24647(8)
Cl1 Cl 0.6616(3) 0.0917(3) 0.2675(2)
O1 O 0.7589(7) -0.5370(7) 0.1409(5)
O2 O 0.9457(6) -0.2995(6) 0.1169(5)
O3 O 0.8216(6) 0.0608(7) -0.0152(6)
O4 O 0.9912(5) -0.1880(6) -0.1062(5)
O5 O 0.7371(6) -0.5786(6) -0.0354(5)
O6 O 0.6590(5) -0.2339(6) 0.1079(5)
O7 O 0.6106(6) 0.1832(7) -0.0936(6)
N1 N 0.8849(8) -0.6025(8) 0.4020(6)
N2 N 0.6763(7) -0.3896(8) 0.4121(6)
C1 C 1.0213(11) -0.8162(12) 0.6200(10)
H1 H 1.0689 -0.8872 0.6944
C2 C 0.9134(10) -0.7102(11) 0.6367(9)
H2 H 0.8871 -0.7111 0.7216
C3 C 0.5576(11) -0.3677(12) 0.6461(9)
H3 H 0.5143 -0.3629 0.7256
C4 C 0.9864(11) -0.7084(11) 0.3897(10)
H4 H 1.0092 -0.7079 0.3047
C5 C 0.6677(10) -0.4781(11) 0.6494(8)
H5 H 0.7032 -0.5459 0.7316
C6 C 0.8465(9) -0.6043(10) 0.5254(7)
C7 C 0.5135(12) -0.2656(12) 0.5240(10)
H6 H 0.4419 -0.1867 0.5182
C8 C 0.5761(10) -0.2797(12) 0.4078(9)
H7 H 0.5459 -0.2089 0.3243
C9 C 0.7267(10) -0.4894(10) 0.5310(7)
C10 C 0.7398(10) -0.2057(9) -0.0219(7)
C11 C 0.7346(8) -0.4883(9) 0.0182(8)
C12 C 1.0585(11) -0.8178(13) 0.4961(11)
H8 H 1.1292 -0.8895 0.4846
C13 C 0.7002(9) -0.3206(9) -0.0696(8)
H9 H 0.5961 -0.3028 -0.0799
H10 H 0.7503 -0.2976 -0.1588
C14 C 0.9036(8) -0.2322(10) -0.0020(8)
C15 C 0.7086(9) 0.0740(9) -0.0744(8)
C16 C 0.6972(9) -0.0421(9) -0.1238(8)
H11 H 0.7600 -0.0196 -0.2071
H12 H 0.5974 -0.0350 -0.1445
Zn1A Zn 1.20150(10) -0.20333(10) -0.07303(9)
Zn1_2 Zn 0.79850(10) -0.79667(10) 0.07303(9)
O4A O 1.0088(5) 0.1880(6) 0.1062(5)
O5_2 O 0.7371(6) 0.4214(6) -0.0354(5)
loop_
_geom_bond_atom_site_label_1
_geom_bond_atom_site_label_2
_geom_bond_site_symmetry_1
_geom_bond_site_symmetry_2
Zn1 Cl1 1_555 1_555
Zn2 O1 1_555 1_555
O1 C11 1_555 1_555
O2 Zn2 1_555 1_555
O3 Zn1 1_555 1_555
O4 C14 1_555 1_555
O5 C11 1_555 1_555
O6 Zn2 1_555 1_555
O7 C15 1_555 1_555
N1 Zn2 1_555 1_555
N2 Zn2 1_555 1_555
C1 H1 1_555 1_555
C2 C1 1_555 1_555
H2 C2 1_555 1_555
C3 H3 1_555 1_555
C4 N1 1_555 1_555
H4 C4 1_555 1_555
C5 C3 1_555 1_555
H5 C5 1_555 1_555
C6 N1 1_555 1_555
C7 C3 1_555 1_555
H6 C7 1_555 1_555
C8 N2 1_555 1_555
H7 C8 1_555 1_555
C9 N2 1_555 1_555
C10 O6 1_555 1_555
C11 C13 1_555 1_555
C12 C1 1_555 1_555
H8 C12 1_555 1_555
C13 C10 1_555 1_555
H9 C13 1_555 1_555
H10 C13 1_555 1_555
C14 O2 1_555 1_555
C15 O3 1_555 1_555
C16 C10 1_555 1_555
H11 C16 1_555 1_555
H12 C16 1_555 1_555
Zn1A O4 1_555 1_555
Zn1_2 O5 1_555 1_555
O4A Zn1 1_555 1_555
O5_2 Zn1 1_555 1_555
C2 C6 1_555 1_555
C4 C12 1_555 1_555
C5 C9 1_555 1_555
C6 C9 1_555 1_555
C7 C8 1_555 1_555
C10 C14 1_555 1_555
C15 C16 1_555 1_555

#END
