
#######################################################################
#
#                 Cambridge Crystallographic Data Centre
#                                CCDC 
#
#######################################################################
#
# If this CIF has been generated from an entry in the Cambridge 
# Structural Database, then it will include bibliographic, chemical, 
# crystal, experimental, refinement or atomic coordinate data resulting 
# from the CCDC's data processing and validation procedures.
#
#######################################################################

data_PUNTAU
_symmetry_cell_setting           triclinic
_symmetry_space_group_name_H-M   'P -1'
_symmetry_Int_Tables_number      2
_space_group_name_Hall           '-P 1'
loop_
_symmetry_equiv_pos_site_id
_symmetry_equiv_pos_as_xyz
1 x,y,z
2 -x,-y,-z
_cell_length_a                   8.6119(17)
_cell_length_b                   11.054(2)
_cell_length_c                   13.583(3)
_cell_angle_alpha                81.13(3)
_cell_angle_beta                 74.31(3)
_cell_angle_gamma                78.17(3)
_cell_volume                     1211.72
loop_
_atom_site_label
_atom_site_type_symbol
_atom_site_fract_x
_atom_site_fract_y
_atom_site_fract_z
Nd1 Nd 0.747995(15) 0.990397(11) 0.012623(10)
O1 O 0.7754(3) 0.77915(19) -0.05502(18)
O2 O 0.5426(2) 0.90551(19) -0.05853(18)
O3 O 0.9850(2) 0.11958(17) -0.03583(16)
O4 O 0.7499(3) 0.22325(19) -0.06112(18)
O5 O 0.6544(4) 0.7999(4) 0.3195(2)
O6 O 0.6546(3) 0.8562(2) 0.15572(19)
O7 O -0.1829(3) 0.8886(3) 0.6801(2)
O8 O -0.1010(4) 0.8585(5) 0.5159(2)
O9 O 0.7491(3) 1.0947(2) 0.16091(19)
H1 H 0.799(5) 1.154(3) 0.161(3)
H2 H 0.679(4) 1.086(4) 0.216(2)
O10 O 0.8738(4) 0.9955(3) -0.17297(18)
H3 H 0.919(6) 1.052(3) -0.211(3)
H4 H 0.864(6) 0.948(4) -0.215(3)
N1 N 0.8809(3) 0.4360(2) -0.14715(19)
N2 N 0.7078(3) 0.6053(2) -0.1558(2)
N3 N 0.3471(4) 0.7451(3) 0.3681(2)
N4 N 0.2092(4) 0.7567(3) 0.5254(2)
C1 C 0.6413(3) 0.8033(3) -0.0760(2)
C2 C 0.5822(4) 0.7126(3) -0.1244(3)
H5 H 0.4870 0.6829 -0.0745
H6 H 0.5449 0.7565 -0.1853
C3 C 0.7665(4) 0.5712(3) -0.2535(3)
H7 H 0.7367 0.6143 -0.3136
C4 C 0.8753(4) 0.4643(3) -0.2485(3)
H8 H 0.9359 0.4179 -0.3041
C5 C 0.7785(4) 0.5223(3) -0.0931(2)
H9 H 0.7590 0.5244 -0.0211
C6 C 0.9826(4) 0.3285(3) -0.1052(3)
H10 H 1.0175 0.3529 -0.0485
H11 H 1.0823 0.3036 -0.1595
C7 C 0.8971(3) 0.2190(2) -0.0657(2)
C8 C 0.5904(4) 0.8152(3) 0.2466(3)
C9 C 0.4254(5) 0.7830(4) 0.2609(3)
H12 H 0.3538 0.8559 0.2349
H13 H 0.4358 0.7145 0.2190
C10 C 0.3483(5) 0.6254(4) 0.4145(3)
H14 H 0.4000 0.5513 0.3835
C11 C 0.2609(6) 0.6340(4) 0.5135(3)
H15 H 0.2399 0.5666 0.5649
C12 C 0.2622(5) 0.8225(4) 0.4364(3)
H16 H 0.2424 0.9106 0.4240
C13 C 0.0957(5) 0.8114(5) 0.6155(3)
H17 H 0.1374 0.8826 0.6291
H18 H 0.0921 0.7488 0.6762
C14 C -0.0765(5) 0.8555(4) 0.6012(3)
Nd1A Nd 0.252005(15) 1.009603(11) -0.012623(10)
Nd1_2 Nd 0.747995(15) -0.009603(11) 0.012623(10)
Nd1A_2 Nd 1.252005(15) 0.009603(11) -0.012623(10)
O2A O 0.4574(2) 1.09449(19) 0.05853(18)
O3_2 O 0.9850(2) 1.11958(17) -0.03583(16)
O3A O 1.0150(2) 0.88042(17) 0.03583(16)
O4_2 O 0.7499(3) 1.22325(19) -0.06112(18)
Cl1 Cl 0.29732(11) 0.55577(9) 0.79684(7)
O11 O 0.3914(5) 0.6367(3) 0.7234(3)
O12 O 0.1656(6) 0.6265(5) 0.8633(3)
O13 O 0.2424(6) 0.4798(4) 0.7428(3)
O14 O 0.4010(5) 0.4790(4) 0.8575(3)
O15 O 0.0335(4) 0.1646(3) 0.6940(2)
H19 H 0.032(6) 0.170(5) 0.6327(19)
H20 H 0.131(3) 0.162(5) 0.698(4)
O16 O 0.6488(10) 0.7200(7) 0.5255(6)
O17 O 0.498(2) 1.0908(16) 0.3316(14)
O18? O 0.534(2) 1.0972(14) 0.3545(12)
O19? O 0.6172(16) 1.0664(11) 0.3621(9)
loop_
_geom_bond_atom_site_label_1
_geom_bond_atom_site_label_2
_geom_bond_site_symmetry_1
_geom_bond_site_symmetry_2
Nd1 O1 1_555 1_555
O1 C1 1_555 1_555
O2 Nd1 1_555 1_555
O3 C7 1_555 1_555
O4 C7 1_555 1_555
O5 C8 1_555 1_555
O6 Nd1 1_555 1_555
O7 C14 1_555 1_555
O8 C14 1_555 1_555
O9 Nd1 1_555 1_555
H1 O9 1_555 1_555
H2 O9 1_555 1_555
O10 Nd1 1_555 1_555
H3 O10 1_555 1_555
H4 O10 1_555 1_555
N1 C4 1_555 1_555
N2 C2 1_555 1_555
N3 C9 1_555 1_555
N4 C11 1_555 1_555
C1 O2 1_555 1_555
C2 C1 1_555 1_555
H5 C2 1_555 1_555
H6 C2 1_555 1_555
C3 N2 1_555 1_555
H7 C3 1_555 1_555
C4 C3 1_555 1_555
H8 C4 1_555 1_555
C5 N1 1_555 1_555
H9 C5 1_555 1_555
C6 N1 1_555 1_555
H10 C6 1_555 1_555
H11 C6 1_555 1_555
C7 C6 1_555 1_555
C8 O6 1_555 1_555
C9 C8 1_555 1_555
H12 C9 1_555 1_555
H13 C9 1_555 1_555
C10 N3 1_555 1_555
H14 C10 1_555 1_555
C11 C10 1_555 1_555
H15 C11 1_555 1_555
C12 N3 1_555 1_555
H16 C12 1_555 1_555
C13 N4 1_555 1_555
H17 C13 1_555 1_555
H18 C13 1_555 1_555
C14 C13 1_555 1_555
Cl1 O11 1_555 1_555
O12 Cl1 1_555 1_555
O13 Cl1 1_555 1_555
O14 Cl1 1_555 1_555
O15 H19 1_555 1_555
H20 O15 1_555 1_555
Nd1A O2 1_555 1_555
Nd1_2 O3 1_555 1_555
Nd1A_2 O3 1_555 1_555
O2A Nd1 1_555 1_555
O3_2 Nd1 1_555 1_555
O3A Nd1 1_555 1_555
O4_2 Nd1 1_555 1_555
O4 Nd1_2 1_555 1_555
N2 C5 1_555 1_555
N4 C12 1_555 1_555
Nd1A O2A 1_555 1_555

#END
