
#######################################################################
#
#                 Cambridge Crystallographic Data Centre
#                                CCDC 
#
#######################################################################
#
# If this CIF has been generated from an entry in the Cambridge 
# Structural Database, then it will include bibliographic, chemical, 
# crystal, experimental, refinement or atomic coordinate data resulting 
# from the CCDC's data processing and validation procedures.
#
#######################################################################

data_PUNZAA
_symmetry_cell_setting           monoclinic
_symmetry_space_group_name_H-M   'P 21/n'
_symmetry_Int_Tables_number      14
_space_group_name_Hall           '-P 2yn'
loop_
_symmetry_equiv_pos_site_id
_symmetry_equiv_pos_as_xyz
1 x,y,z
2 1/2-x,1/2+y,1/2-z
3 -x,-y,-z
4 1/2+x,1/2-y,1/2+z
_cell_length_a                   11.3243(8)
_cell_length_b                   10.8251(6)
_cell_length_c                   19.6343(14)
_cell_angle_alpha                90
_cell_angle_beta                 93.319(4)
_cell_angle_gamma                90
_cell_volume                     2402.87
loop_
_atom_site_label
_atom_site_type_symbol
_atom_site_fract_x
_atom_site_fract_y
_atom_site_fract_z
Cu1 Cu 0.91612(7) 0.24377(6) 0.08675(4)
Mo1 Mo 0.42565(5) 0.22168(5) -0.03429(3)
Mo2 Mo 0.53953(5) 0.38740(5) -0.15477(3)
Mo3 Mo 0.60013(5) 0.69180(5) -0.14184(3)
Mo4 Mo 0.63982(6) 0.44713(5) 0.03971(3)
C1 C 0.4999(5) 0.4432(5) 0.4024(3)
C2 C 0.6062(5) 0.4807(5) 0.3694(3)
C3 C 0.3906(6) 0.4911(6) 0.3798(3)
H1 H 0.3840 0.5421 0.3416
C4 C 0.2923(6) 0.4619(6) 0.4148(3)
H2 H 0.2180 0.4907 0.3996
C5 C 0.9742(6) 0.4773(6) 0.2928(3)
H3 H 0.9867 0.5251 0.3319
C6 C 0.8442(6) 0.3736(5) 0.2113(3)
H4 H 0.7679 0.3506 0.1962
C7 C 0.3048(5) 0.3893(6) 0.4728(3)
H5 H 0.2381 0.3699 0.4961
C8 C 0.7608(6) 0.4848(6) 0.3087(3)
C9 C 0.5066(5) 0.3705(5) 0.4613(3)
H6 H 0.5794 0.3381 0.4766
C10 C 0.8605(6) 0.4444(5) 0.2699(3)
C11 C 1.0691(6) 0.4382(6) 0.2568(3)
H7 H 1.1462 0.4586 0.2715
C12 C 1.0465(6) 0.3682(6) 0.1987(3)
H8 H 1.1100 0.3416 0.1746
N1 N 0.9365(5) 0.3370(5) 0.1754(2)
N2 N 0.6481(5) 0.5941(4) 0.3683(2)
N3 N 0.4108(5) 0.3458(4) 0.4965(3)
N4 N 0.6660(5) 0.2796(4) 0.3252(3)
H9 H 0.6128 0.2400 0.3457
H10 H 0.7137 0.2404 0.3003
N5 N 0.7454(5) 0.5982(5) 0.3306(2)
N6 N 0.6752(5) 0.4090(4) 0.3321(2)
O2 O 0.2955(5) 0.1456(5) -0.0333(3)
O3 O 0.7595(6) 0.3503(6) 0.0534(3)
O4 O 0.7245(6) 0.7750(5) -0.1493(4)
O6 O 1.0240(6) 0.3660(5) 0.0495(3)
H15 H 1.0950 0.3420 0.0570
H16 H 1.0089 0.3728 0.0067
O7 O 0.5504(4) 0.3885(4) -0.0341(2)
O8 O 0.5107(5) 0.7289(5) -0.2115(3)
O9 O 0.4974(6) 0.4038(5) -0.2381(3)
O10 O 0.6503(5) 0.2817(5) -0.1523(3)
O11 O 0.5275(4) 0.1117(4) -0.0456(3)
O12 O 0.4278(4) 0.5421(4) -0.1206(3)
O13 O 0.3076(5) 0.4083(5) -0.0195(3)
O14 O 0.6501(4) 0.5307(4) -0.1440(3)
O15 O 0.4623(5) 0.2494(6) 0.0635(2)
O16 O 0.4117(4) 0.2890(4) -0.1255(2)
Cu1A Cu 0.58388(7) -0.25623(6) 0.41325(4)
Cu1A_2 Cu 0.58388(7) 0.74377(6) 0.41325(4)
Cu1C Cu 0.41612(7) 0.25623(6) 0.58675(4)
Cu1B Cu 0.08388(7) 0.75623(6) -0.08675(4)
Cu1B_2 Cu 1.08388(7) -0.24377(6) -0.08675(4)
Mo1B Mo 0.57435(5) 0.77832(5) 0.03429(3)
Mo2B Mo 0.46047(5) 0.61260(5) 0.15477(3)
Mo3B Mo 0.39987(5) 0.30820(5) 0.14184(3)
Mo4B Mo 0.36018(6) 0.55287(5) -0.03971(3)
C1A C 1.0001(5) -0.0568(5) 0.0976(3)
C2A C 0.8938(5) -0.0193(5) 0.1306(3)
C3A C 1.1094(6) -0.0089(6) 0.1202(3)
H1A H 1.1160 0.0421 0.1584
C4A C 1.2077(6) -0.0381(6) 0.0852(3)
H2A H 1.2820 -0.0093 0.1004
C5A C 0.5258(6) -0.0227(6) 0.2072(3)
H3A H 0.5133 0.0251 0.1681
C6A C 0.6558(6) -0.1264(5) 0.2887(3)
H4A H 0.7321 -0.1494 0.3038
C7A C 1.1952(5) -0.1107(6) 0.0272(3)
H5A H 1.2619 -0.1301 0.0039
C8A C 0.7392(6) -0.0152(6) 0.1913(3)
C9A C 0.9934(5) -0.1295(5) 0.0387(3)
H6A H 0.9206 -0.1619 0.0234
C10A C 0.6395(6) -0.0556(5) 0.2301(3)
C11A C 0.4309(6) -0.0618(6) 0.2432(3)
H7A H 0.3538 -0.0414 0.2285
C12A C 0.4535(6) -0.1318(6) 0.3013(3)
H8A H 0.3900 -0.1584 0.3254
N1A N 0.5635(5) -0.1630(5) 0.3246(2)
N2A N 0.8519(5) 0.0941(4) 0.1317(2)
N2_2 N 0.6481(5) -0.4059(4) 0.3683(2)
N3A N 1.0892(5) -0.1542(4) 0.0035(3)
N3C N 0.9108(5) 0.1542(4) -0.0035(3)
N3B N 0.5892(5) -0.3458(4) 0.5035(3)
N4A N 0.8340(5) -0.2204(4) 0.1748(3)
H9A H 0.8872 -0.2600 0.1543
H10A H 0.7863 -0.2596 0.1997
N5A N 0.7546(5) 0.0982(5) 0.1694(2)
N6A N 0.8248(5) -0.0910(4) 0.1679(2)
O2B O 0.7045(5) 0.8544(5) 0.0333(3)
O3B O 0.2405(6) 0.6497(6) -0.0534(3)
O3A O 0.7405(6) -0.1497(6) 0.4466(3)
O4B O 0.2755(6) 0.2250(5) 0.1493(4)
O6A O 0.4760(6) -0.1340(5) 0.4505(3)
H15A H 0.4050 -0.1580 0.4430
H16A H 0.4911 -0.1272 0.4933
O7B O 0.4496(4) 0.6115(4) 0.0341(2)
O8B O 0.4893(5) 0.2711(5) 0.2115(3)
O9B O 0.5026(6) 0.5962(5) 0.2381(3)
O10B O 0.3497(5) 0.7183(5) 0.1523(3)
O11B O 0.4725(4) 0.8883(4) 0.0456(3)
O12B O 0.5722(4) 0.4579(4) 0.1206(3)
O13B O 0.6924(5) 0.5917(5) 0.0195(3)
O14B O 0.3499(4) 0.4693(4) 0.1440(3)
O15B O 0.5377(5) 0.7506(6) -0.0635(2)
O16B O 0.5883(4) 0.7110(4) 0.1255(2)
O1 O 0.9584(7) 0.5985(7) 0.0832(4)
H11 H 0.9245 0.5291 0.0872
H12 H 1.0285 0.5902 0.1004
O5 O 1.1152(8) -0.3121(8) 0.1690(4)
H13 H 1.1498 -0.2521 0.1506
H14 H 1.1668 -0.3669 0.1796
loop_
_geom_bond_atom_site_label_1
_geom_bond_atom_site_label_2
_geom_bond_site_symmetry_1
_geom_bond_site_symmetry_2
Cu1 N1 1_555 1_555
Mo1 O2 1_555 1_555
Mo2 O7 1_555 1_555
Mo3 O4 1_555 1_555
Mo4 O3 1_555 1_555
C1 C2 1_555 1_555
C2 N2 1_555 1_555
C3 C1 1_555 1_555
H1 C3 1_555 1_555
C4 C3 1_555 1_555
H2 C4 1_555 1_555
C5 H3 1_555 1_555
C6 H4 1_555 1_555
C7 C4 1_555 1_555
H5 C7 1_555 1_555
C8 C10 1_555 1_555
C9 C1 1_555 1_555
H6 C9 1_555 1_555
C10 C5 1_555 1_555
C11 C5 1_555 1_555
H7 C11 1_555 1_555
C12 C11 1_555 1_555
H8 C12 1_555 1_555
N1 C6 1_555 1_555
N2 N5 1_555 1_555
N3 C7 1_555 1_555
N4 H9 1_555 1_555
H10 N4 1_555 1_555
N5 C8 1_555 1_555
N6 C2 1_555 1_555
O1 H11 1_555 1_555
H12 O1 1_555 1_555
O3 Cu1 1_555 1_555
O5 H13 1_555 1_555
H14 O5 1_555 1_555
O6 Cu1 1_555 1_555
H15 O6 1_555 1_555
H16 O6 1_555 1_555
O7 Mo1 1_555 1_555
O8 Mo3 1_555 1_555
O9 Mo2 1_555 1_555
O10 Mo2 1_555 1_555
O11 Mo1 1_555 1_555
O12 Mo2 1_555 1_555
O13 Mo1 1_555 1_555
O14 Mo2 1_555 1_555
O15 Mo1 1_555 1_555
O16 Mo1 1_555 1_555
Cu1A N1A 1_555 1_555
Cu1A_2 N2 1_555 1_555
Cu1C N3 1_555 1_555
Cu1B O3B 1_555 1_555
Cu1B_2 N3A 1_555 1_555
Mo1B O2B 1_555 1_555
Mo2B O7B 1_555 1_555
Mo3B O15 1_555 1_555
Mo4B O12 1_555 1_555
C1A C2A 1_555 1_555
C2A N2A 1_555 1_555
C3A C1A 1_555 1_555
H1A C3A 1_555 1_555
C4A C3A 1_555 1_555
H2A C4A 1_555 1_555
C5A H3A 1_555 1_555
C6A H4A 1_555 1_555
C7A C4A 1_555 1_555
H5A C7A 1_555 1_555
C8A C10A 1_555 1_555
C9A C1A 1_555 1_555
H6A C9A 1_555 1_555
C10A C5A 1_555 1_555
C11A C5A 1_555 1_555
H7A C11A 1_555 1_555
C12A C11A 1_555 1_555
H8A C12A 1_555 1_555
N1A C6A 1_555 1_555
N2A Cu1 1_555 1_555
N2_2 Cu1A 1_555 1_555
N3A C7A 1_555 1_555
N3C Cu1 1_555 1_555
N3B Cu1A 1_555 1_555
N4A H9A 1_555 1_555
H10A N4A 1_555 1_555
N5A C8A 1_555 1_555
N6A C2A 1_555 1_555
O3B Mo4B 1_555 1_555
O3A Cu1A 1_555 1_555
O4B Mo3B 1_555 1_555
O6A Cu1A 1_555 1_555
H15A O6A 1_555 1_555
H16A O6A 1_555 1_555
O7B Mo1B 1_555 1_555
O8B Mo3B 1_555 1_555
O9B Mo2B 1_555 1_555
O10B Mo2B 1_555 1_555
O11B Mo1B 1_555 1_555
O12B Mo4 1_555 1_555
O13B Mo4 1_555 1_555
O14B Mo2B 1_555 1_555
O15B Mo3 1_555 1_555
O16B Mo1B 1_555 1_555
Mo2 O16 1_555 1_555
Mo3 O14 1_555 1_555
Mo4 O7 1_555 1_555
C6 C10 1_555 1_555
C8 N6 1_555 1_555
C9 N3 1_555 1_555
C12 N1 1_555 1_555
N4 N6 1_555 1_555
O13 Mo4B 1_555 1_555
Mo1B O13B 1_555 1_555
Mo1B O15B 1_555 1_555
Mo2B O12B 1_555 1_555
Mo2B O16B 1_555 1_555
Mo3B O14B 1_555 1_555
Mo4B O7B 1_555 1_555
C6A C10A 1_555 1_555
C8A N6A 1_555 1_555
C9A N3A 1_555 1_555
C12A N1A 1_555 1_555
N2A N5A 1_555 1_555
N4A N6A 1_555 1_555

#END
