
#######################################################################
#
#                 Cambridge Crystallographic Data Centre
#                                CCDC 
#
#######################################################################
#
# If this CIF has been generated from an entry in the Cambridge 
# Structural Database, then it will include bibliographic, chemical, 
# crystal, experimental, refinement or atomic coordinate data resulting 
# from the CCDC's data processing and validation procedures.
#
#######################################################################

data_PUNZEF
_symmetry_cell_setting           monoclinic
_symmetry_space_group_name_H-M   'C 2/c'
_symmetry_Int_Tables_number      15
_space_group_name_Hall           '-C 2yn'
loop_
_symmetry_equiv_pos_site_id
_symmetry_equiv_pos_as_xyz
1 x,y,z
2 -x,y,1/2-z
3 1/2+x,1/2+y,z
4 1/2-x,1/2+y,1/2-z
5 -x,-y,-z
6 x,-y,1/2+z
7 1/2-x,1/2-y,-z
8 1/2+x,1/2-y,1/2+z
_cell_length_a                   33.6718(17)
_cell_length_b                   33.6481(16)
_cell_length_c                   13.8979(6)
_cell_angle_alpha                90
_cell_angle_beta                 110.2790(10)
_cell_angle_gamma                90
_cell_volume                     14770.2
loop_
_atom_site_label
_atom_site_type_symbol
_atom_site_fract_x
_atom_site_fract_y
_atom_site_fract_z
Ir1 Ir 0.22908(2) 0.09106(2) 0.15531(2)
Cu1 Cu 0.0000 0.37702(3) -0.2500
C1 C 0.2422(2) 0.03529(18) 0.1221(7)
C2 C 0.2643(3) 0.0253(3) 0.0631(8)
H1 H 0.2768 0.0460 0.0370
C3 C 0.2705(4) -0.0140(3) 0.0366(11)
H2 H 0.2859 -0.0203 -0.0072
C4 C 0.2517(4) -0.0437(3) 0.0813(15)
H3 H 0.2554 -0.0709 0.0689
C5 C 0.2300(4) -0.0343(3) 0.1376(12)
H4 H 0.2162 -0.0544 0.1622
C6 C 0.2265(3) 0.0044(2) 0.1621(8)
C7 C 0.2023(2) 0.01876(15) 0.2319(5)
C8 C 0.1841(3) -0.00520(16) 0.2868(7)
H5 H 0.1858 -0.0333 0.2830
C9 C 0.1634(3) 0.0120(3) 0.3473(6)
H6 H 0.1510 -0.0044 0.3849
C10 C 0.1609(3) 0.0531(3) 0.3529(6)
H7 H 0.1467 0.0648 0.3943
C11 C 0.1791(2) 0.07704(18) 0.2980(5)
H8 H 0.1774 0.1051 0.3018
N1 N 0.19976(19) 0.05988(14) 0.2374(5)
N2 N 0.2597(2) 0.11718(17) 0.0686(5)
C12 C 0.3000(3) 0.1306(2) 0.1004(8)
H9 H 0.3169 0.1265 0.1702
C13 C 0.3177(4) 0.1491(3) 0.0413(8)
H10 H 0.3462 0.1582 0.0678
C14 C 0.2945(3) 0.1543(3) -0.0547(9)
H11 H 0.3070 0.1672 -0.0981
C15 C 0.2539(4) 0.1425(3) -0.0957(8)
H12 H 0.2379 0.1472 -0.1659
C16 C 0.2357(3) 0.1229(2) -0.0306(7)
C17 C 0.19220(18) 0.10784(16) -0.0579(5)
C18 C 0.1620(3) 0.1097(2) -0.1560(4)
H13 H 0.1689 0.1216 -0.2102
C19 C 0.1218(2) 0.0942(2) -0.1747(5)
H14 H 0.1012 0.0955 -0.2417
C20 C 0.11172(17) 0.07680(19) -0.0954(6)
H15 H 0.0842 0.0662 -0.1081
C21 C 0.1419(2) 0.07493(17) 0.0027(5)
H16 H 0.1350 0.0630 0.0569
C22 C 0.18212(18) 0.09045(15) 0.0214(4)
N3 N 0.03671(16) 0.33566(13) -0.1560(4)
C23 C 0.0551(2) 0.30700(16) -0.1911(5)
H17 H 0.0487 0.3048 -0.2631
C24 C 0.0833(2) 0.28026(18) -0.1275(6)
H18 H 0.0955 0.2599 -0.1555
C25 C 0.0935(2) 0.28360(17) -0.0216(6)
C26 C 0.0734(2) 0.31342(18) 0.0142(6)
H19 H 0.0792 0.3166 0.0857
C27 C 0.0455(2) 0.33775(18) -0.0541(5)
H20 H 0.0314 0.3573 -0.0286
C28 C 0.1238(2) 0.2573(2) 0.0478(6)
C29 C 0.1500(2) 0.2369(2) 0.1060(6)
C30 C 0.1819(2) 0.21203(19) 0.1735(6)
C31 C 0.1870(2) 0.17329(17) 0.1409(5)
H21 H 0.1685 0.1641 0.0762
N4 N 0.21725(17) 0.14931(13) 0.1994(4)
C32 C 0.2443(2) 0.16235(18) 0.2923(5)
C33 C 0.2401(2) 0.20021(19) 0.3264(5)
H22 H 0.2588 0.2089 0.3913
C34 C 0.2090(2) 0.2254(2) 0.2672(5)
H23 H 0.2062 0.2515 0.2903
C35 C 0.2776(2) 0.13342(19) 0.3476(5)
N5 N 0.27826(17) 0.09981(15) 0.2983(5)
C36 C 0.3078(2) 0.07231(18) 0.3462(6)
H24 H 0.3092 0.0485 0.3109
C37 C 0.3358(2) 0.0777(2) 0.4444(6)
C38 C 0.3356(2) 0.1122(2) 0.4923(6)
H25 H 0.3559 0.1170 0.5584
C39 C 0.3053(2) 0.1411(2) 0.4440(6)
H26 H 0.3040 0.1654 0.4775
C40 C 0.3656(3) 0.0455(2) 0.4912(6)
C41 C 0.3874(2) 0.0186(2) 0.5270(6)
C42 C 0.4132(2) -0.01529(19) 0.5723(6)
C43 C 0.4546(2) -0.01762(18) 0.5774(6)
H27 H 0.4665 0.0027 0.5486
C44 C 0.4783(2) -0.04969(19) 0.6246(7)
H28 H 0.5073 -0.0504 0.6302
N6 N 0.46303(17) -0.08011(14) 0.6634(5)
C45 C 0.4223(2) -0.07880(19) 0.6561(6)
H29 H 0.4109 -0.1001 0.6830
C46 C 0.3962(2) -0.04645(19) 0.6092(6)
H30 H 0.3672 -0.0462 0.6031
B1 B 0.0728(5) 0.3798(7) -0.3964(15)
F1 F 0.04102(14) 0.37457(13) -0.3588(4)
F2 F 0.0709(3) 0.4259(3) -0.3982(10)
F3 F 0.0724(3) 0.3730(3) -0.4815(6)
F4 F 0.11176(18) 0.3727(2) -0.3166(5)
Ir1A Ir -0.22908(2) 0.09106(2) -0.65531(2)
C1A C -0.2422(2) 0.03529(18) -0.6221(7)
C2A C -0.2643(3) 0.0253(3) -0.5631(8)
H1A H -0.2768 0.0460 -0.5370
C3A C -0.2705(4) -0.0140(3) -0.5366(11)
H2A H -0.2859 -0.0203 -0.4928
C4A C -0.2517(4) -0.0437(3) -0.5813(15)
H3A H -0.2554 -0.0709 -0.5689
C5A C -0.2300(4) -0.0343(3) -0.6376(12)
H4A H -0.2162 -0.0544 -0.6622
C6A C -0.2265(3) 0.0044(2) -0.6621(8)
C7A C -0.2023(2) 0.01876(15) -0.7319(5)
C8A C -0.1841(3) -0.00520(16) -0.7868(7)
H5A H -0.1858 -0.0333 -0.7830
C9A C -0.1634(3) 0.0120(3) -0.8473(6)
H6A H -0.1510 -0.0044 -0.8849
C10A C -0.1609(3) 0.0531(3) -0.8529(6)
H7A H -0.1467 0.0648 -0.8943
C11A C -0.1791(2) 0.07704(18) -0.7980(5)
H8A H -0.1774 0.1051 -0.8018
N1A N -0.19976(19) 0.05988(14) -0.7374(5)
N2A N -0.2597(2) 0.11718(17) -0.5686(5)
C12A C -0.3000(3) 0.1306(2) -0.6004(8)
H9A H -0.3169 0.1265 -0.6702
C13A C -0.3177(4) 0.1491(3) -0.5413(8)
H10A H -0.3462 0.1582 -0.5678
C14A C -0.2945(3) 0.1543(3) -0.4453(9)
H11A H -0.3070 0.1672 -0.4019
C15A C -0.2539(4) 0.1425(3) -0.4043(8)
H12A H -0.2379 0.1472 -0.3341
C16A C -0.2357(3) 0.1229(2) -0.4694(7)
C17A C -0.19220(18) 0.10784(16) -0.4421(5)
C18A C -0.1620(3) 0.1097(2) -0.3440(4)
H13A H -0.1689 0.1216 -0.2898
C19A C -0.1218(2) 0.0942(2) -0.3253(5)
H14A H -0.1012 0.0955 -0.2583
C20A C -0.11172(17) 0.07680(19) -0.4046(6)
H15A H -0.0842 0.0662 -0.3919
C21A C -0.1419(2) 0.07493(17) -0.5027(5)
H16A H -0.1350 0.0630 -0.5569
C22A C -0.18212(18) 0.09045(15) -0.5214(4)
N3A N -0.03671(16) 0.33566(13) -0.3440(4)
C23A C -0.0551(2) 0.30700(16) -0.3089(5)
H17A H -0.0487 0.3048 -0.2369
C24A C -0.0833(2) 0.28026(18) -0.3725(6)
H18A H -0.0955 0.2599 -0.3445
C25A C -0.0935(2) 0.28360(17) -0.4784(6)
C26A C -0.0734(2) 0.31342(18) -0.5142(6)
H19A H -0.0792 0.3166 -0.5857
C27A C -0.0455(2) 0.33775(18) -0.4459(5)
H20A H -0.0314 0.3573 -0.4714
C28A C -0.1238(2) 0.2573(2) -0.5478(6)
C29A C -0.1500(2) 0.2369(2) -0.6060(6)
C30A C -0.1819(2) 0.21203(19) -0.6735(6)
C31A C -0.1870(2) 0.17329(17) -0.6409(5)
H21A H -0.1685 0.1641 -0.5762
N4A N -0.21725(17) 0.14931(13) -0.6994(4)
C32A C -0.2443(2) 0.16235(18) -0.7923(5)
C33A C -0.2401(2) 0.20021(19) -0.8264(5)
H22A H -0.2588 0.2089 -0.8913
C34A C -0.2090(2) 0.2254(2) -0.7672(5)
H23A H -0.2062 0.2515 -0.7903
C35A C -0.2776(2) 0.13342(19) -0.8476(5)
N5A N -0.27826(17) 0.09981(15) -0.7983(5)
C36A C -0.3078(2) 0.07231(18) -0.8462(6)
H24A H -0.3092 0.0485 -0.8109
C37A C -0.3358(2) 0.0777(2) -0.9444(6)
C38A C -0.3356(2) 0.1122(2) -0.9923(6)
H25A H -0.3559 0.1170 -1.0584
C39A C -0.3053(2) 0.1411(2) -0.9440(6)
H26A H -0.3040 0.1654 -0.9775
C40A C -0.3656(3) 0.0455(2) -0.9912(6)
C41A C -0.3874(2) 0.0186(2) -1.0270(6)
C42A C -0.4132(2) -0.01529(19) -1.0723(6)
C43A C -0.4546(2) -0.01762(18) -1.0774(6)
H27A H -0.4665 0.0027 -1.0486
C44A C -0.4783(2) -0.04969(19) -1.1246(7)
H28A H -0.5073 -0.0504 -1.1302
N6A N -0.46303(17) -0.08011(14) -1.1634(5)
C45A C -0.4223(2) -0.07880(19) -1.1561(6)
H29A H -0.4109 -0.1001 -1.1830
C46A C -0.3962(2) -0.04645(19) -1.1092(6)
H30A H -0.3672 -0.0462 -1.1031
B1A B -0.0728(5) 0.3798(7) -0.1036(15)
F1A F -0.04102(14) 0.37457(13) -0.1412(4)
F2A F -0.0709(3) 0.4259(3) -0.1018(10)
F3A F -0.0724(3) 0.3730(3) -0.0185(6)
F4A F -0.11176(18) 0.3727(2) -0.1834(5)
Cu1B Cu -0.5000 -0.12298(3) -1.2500
Cu1B_2 Cu 0.5000 -0.12298(3) 0.7500
N6B N -0.03697(17) 0.41989(14) -0.3366(5)
N6C N 0.03697(17) 0.41989(14) -0.1634(5)
P1 P 0.23435(13) 0.16805(9) 0.6062(3)
F5 F 0.2478(3) 0.1903(2) 0.7133(6)
F6 F 0.2081(3) 0.1378(3) 0.6470(7)
F7 F 0.1963(4) 0.1968(4) 0.5718(9)
F8 F 0.2204(3) 0.14602(19) 0.5044(5)
F9 F 0.2597(3) 0.20099(19) 0.5681(5)
F10 F 0.2741(3) 0.1406(2) 0.6473(6)
C47 C 0.3978(6) 0.2084(6) 0.6160(15)
H31 H 0.4066 0.1907 0.5691
Cl1 Cl 0.3624(3) 0.2443(3) 0.5618(7)
Cl2 Cl 0.3731(3) 0.1868(3) 0.6908(5)
Cl3 Cl 0.4370(4) 0.2313(5) 0.7134(13)
C48 C 0.1813(4) 0.2436(3) 0.7641(13)
H32 H 0.1954 0.2327 0.7171
Cl4 Cl 0.15331(12) 0.28628(10) 0.7101(3)
Cl5 Cl 0.2209(2) 0.25729(16) 0.8831(4)
Cl6 Cl 0.1509(2) 0.20742(12) 0.7896(7)
C49 C 0.1654(4) 0.4348(4) 0.2130(10)
H33 H 0.1850 0.4248 0.2805
Cl7 Cl 0.12950(17) 0.39710(14) 0.1491(4)
Cl8 Cl 0.19501(13) 0.44938(11) 0.1343(3)
Cl9 Cl 0.1370(2) 0.47550(17) 0.2320(4)
C50 C 0.5244(5) 0.9198(4) 0.1034(11)
H34 H 0.5022 0.9354 0.0529
H35 H 0.5160 0.8918 0.0978
H36 H 0.5510 0.9226 0.0904
O1 O 0.5301(5) 0.9345(6) 0.2086(16)
H37 H 0.5124 0.9234 0.2300
loop_
_geom_bond_atom_site_label_1
_geom_bond_atom_site_label_2
_geom_bond_site_symmetry_1
_geom_bond_site_symmetry_2
Ir1 C1 1_555 1_555
Cu1 N3 1_555 1_555
C1 C2 1_555 1_555
C2 H1 1_555 1_555
C3 C2 1_555 1_555
H2 C3 1_555 1_555
C4 C3 1_555 1_555
H3 C4 1_555 1_555
C5 C4 1_555 1_555
H4 C5 1_555 1_555
C6 C1 1_555 1_555
C7 C6 1_555 1_555
C8 C7 1_555 1_555
H5 C8 1_555 1_555
C9 C8 1_555 1_555
H6 C9 1_555 1_555
C10 C9 1_555 1_555
H7 C10 1_555 1_555
C11 C10 1_555 1_555
H8 C11 1_555 1_555
N1 Ir1 1_555 1_555
N2 Ir1 1_555 1_555
C12 N2 1_555 1_555
H9 C12 1_555 1_555
C13 C12 1_555 1_555
H10 C13 1_555 1_555
C14 C13 1_555 1_555
H11 C14 1_555 1_555
C15 C14 1_555 1_555
H12 C15 1_555 1_555
C16 N2 1_555 1_555
C17 C16 1_555 1_555
C18 C17 1_555 1_555
H13 C18 1_555 1_555
C19 C18 1_555 1_555
H14 C19 1_555 1_555
C20 C19 1_555 1_555
H15 C20 1_555 1_555
C21 C20 1_555 1_555
H16 C21 1_555 1_555
C22 Ir1 1_555 1_555
N3 C23 1_555 1_555
C23 H17 1_555 1_555
C24 C23 1_555 1_555
H18 C24 1_555 1_555
C25 C24 1_555 1_555
C26 C25 1_555 1_555
H19 C26 1_555 1_555
C27 N3 1_555 1_555
H20 C27 1_555 1_555
C28 C25 1_555 1_555
C29 C28 1_555 1_555
C30 C29 1_555 1_555
C31 C30 1_555 1_555
H21 C31 1_555 1_555
N4 Ir1 1_555 1_555
C32 N4 1_555 1_555
C33 C32 1_555 1_555
H22 C33 1_555 1_555
C34 C30 1_555 1_555
H23 C34 1_555 1_555
C35 C32 1_555 1_555
N5 Ir1 1_555 1_555
C36 N5 1_555 1_555
H24 C36 1_555 1_555
C37 C36 1_555 1_555
C38 C37 1_555 1_555
H25 C38 1_555 1_555
C39 C35 1_555 1_555
H26 C39 1_555 1_555
C40 C37 1_555 1_555
C41 C40 1_555 1_555
C42 C41 1_555 1_555
C43 C42 1_555 1_555
H27 C43 1_555 1_555
C44 C43 1_555 1_555
H28 C44 1_555 1_555
N6 C44 1_555 1_555
C45 N6 1_555 1_555
H29 C45 1_555 1_555
C46 C42 1_555 1_555
H30 C46 1_555 1_555
B1 F1 1_555 1_555
F1 Cu1 1_555 1_555
F2 B1 1_555 1_555
F3 B1 1_555 1_555
F4 B1 1_555 1_555
P1 F5 1_555 1_555
F6 P1 1_555 1_555
F7 P1 1_555 1_555
F8 P1 1_555 1_555
F9 P1 1_555 1_555
F10 P1 1_555 1_555
C47 H31 1_555 1_555
Cl1 C47 1_555 1_555
Cl2 C47 1_555 1_555
Cl3 C47 1_555 1_555
C48 H32 1_555 1_555
Cl4 C48 1_555 1_555
Cl5 C48 1_555 1_555
Cl6 C48 1_555 1_555
C49 H33 1_555 1_555
Cl7 C49 1_555 1_555
Cl8 C49 1_555 1_555
Cl9 C49 1_555 1_555
C50 H34 1_555 1_555
H35 C50 1_555 1_555
H36 C50 1_555 1_555
O1 C50 1_555 1_555
H37 O1 1_555 1_555
Ir1A C1A 1_555 1_555
C1A C2A 1_555 1_555
C2A H1A 1_555 1_555
C3A C2A 1_555 1_555
H2A C3A 1_555 1_555
C4A C3A 1_555 1_555
H3A C4A 1_555 1_555
C5A C4A 1_555 1_555
H4A C5A 1_555 1_555
C6A C1A 1_555 1_555
C7A C6A 1_555 1_555
C8A C7A 1_555 1_555
H5A C8A 1_555 1_555
C9A C8A 1_555 1_555
H6A C9A 1_555 1_555
C10A C9A 1_555 1_555
H7A C10A 1_555 1_555
C11A C10A 1_555 1_555
H8A C11A 1_555 1_555
N1A Ir1A 1_555 1_555
N2A Ir1A 1_555 1_555
C12A N2A 1_555 1_555
H9A C12A 1_555 1_555
C13A C12A 1_555 1_555
H10A C13A 1_555 1_555
C14A C13A 1_555 1_555
H11A C14A 1_555 1_555
C15A C14A 1_555 1_555
H12A C15A 1_555 1_555
C16A N2A 1_555 1_555
C17A C16A 1_555 1_555
C18A C17A 1_555 1_555
H13A C18A 1_555 1_555
C19A C18A 1_555 1_555
H14A C19A 1_555 1_555
C20A C19A 1_555 1_555
H15A C20A 1_555 1_555
C21A C20A 1_555 1_555
H16A C21A 1_555 1_555
C22A Ir1A 1_555 1_555
N3A Cu1 1_555 1_555
C23A N3A 1_555 1_555
H17A C23A 1_555 1_555
C24A C23A 1_555 1_555
H18A C24A 1_555 1_555
C25A C24A 1_555 1_555
C26A C25A 1_555 1_555
H19A C26A 1_555 1_555
C27A N3A 1_555 1_555
H20A C27A 1_555 1_555
C28A C25A 1_555 1_555
C29A C28A 1_555 1_555
C30A C29A 1_555 1_555
C31A C30A 1_555 1_555
H21A C31A 1_555 1_555
N4A Ir1A 1_555 1_555
C32A N4A 1_555 1_555
C33A C32A 1_555 1_555
H22A C33A 1_555 1_555
C34A C30A 1_555 1_555
H23A C34A 1_555 1_555
C35A C32A 1_555 1_555
N5A Ir1A 1_555 1_555
C36A N5A 1_555 1_555
H24A C36A 1_555 1_555
C37A C36A 1_555 1_555
C38A C37A 1_555 1_555
H25A C38A 1_555 1_555
C39A C35A 1_555 1_555
H26A C39A 1_555 1_555
C40A C37A 1_555 1_555
C41A C40A 1_555 1_555
C42A C41A 1_555 1_555
C43A C42A 1_555 1_555
H27A C43A 1_555 1_555
C44A C43A 1_555 1_555
H28A C44A 1_555 1_555
N6A C44A 1_555 1_555
C45A N6A 1_555 1_555
H29A C45A 1_555 1_555
C46A C42A 1_555 1_555
H30A C46A 1_555 1_555
B1A F1A 1_555 1_555
F1A Cu1 1_555 1_555
F2A B1A 1_555 1_555
F3A B1A 1_555 1_555
F4A B1A 1_555 1_555
Cu1B N6A 1_555 1_555
Cu1B_2 N6 1_555 1_555
N6B Cu1 1_555 1_555
N6C Cu1 1_555 1_555
C5 C6 1_555 1_555
C7 N1 1_555 1_555
C11 N1 1_555 1_555
C15 C16 1_555 1_555
C17 C22 1_555 1_555
C21 C22 1_555 1_555
C26 C27 1_555 1_555
C31 N4 1_555 1_555
C33 C34 1_555 1_555
C35 N5 1_555 1_555
C38 C39 1_555 1_555
C45 C46 1_555 1_555
C5A C6A 1_555 1_555
C7A N1A 1_555 1_555
C11A N1A 1_555 1_555
C15A C16A 1_555 1_555
C17A C22A 1_555 1_555
C21A C22A 1_555 1_555
C26A C27A 1_555 1_555
C31A N4A 1_555 1_555
C33A C34A 1_555 1_555
C35A N5A 1_555 1_555
C38A C39A 1_555 1_555
C45A C46A 1_555 1_555

#END
