
#######################################################################
#
#                 Cambridge Crystallographic Data Centre
#                                CCDC 
#
#######################################################################
#
# If this CIF has been generated from an entry in the Cambridge 
# Structural Database, then it will include bibliographic, chemical, 
# crystal, experimental, refinement or atomic coordinate data resulting 
# from the CCDC's data processing and validation procedures.
#
#######################################################################

data_PUPGAJ02
_symmetry_cell_setting           monoclinic
_symmetry_space_group_name_H-M   'P 21/c'
_symmetry_Int_Tables_number      14
_space_group_name_Hall           '-P 2ybc'
loop_
_symmetry_equiv_pos_site_id
_symmetry_equiv_pos_as_xyz
1 x,y,z
2 -x,1/2+y,1/2-z
3 -x,-y,-z
4 x,1/2-y,1/2+z
_cell_length_a                   7.4814(3)
_cell_length_b                   17.1874(6)
_cell_length_c                   8.5463(3)
_cell_angle_alpha                90
_cell_angle_beta                 110.8890(10)
_cell_angle_gamma                90
_cell_volume                     1026.7
loop_
_atom_site_label
_atom_site_type_symbol
_atom_site_fract_x
_atom_site_fract_y
_atom_site_fract_z
Nd1 Nd 0.671056(18) 0.410654(7) 0.249013(15)
O1 O 0.7821(3) 0.29974(10) 0.4535(2)
O2 O 0.7269(3) 0.20177(10) 0.5992(2)
O3 O 0.4222(3) 0.08085(10) 0.4773(2)
O4 O 0.2424(3) 0.05841(10) 0.2135(2)
O5 O 0.7151(3) 0.44981(10) 0.5447(2)
O6 O 0.6020(3) 0.51457(11) 0.7160(2)
O7 O 0.8424(3) 0.45035(11) 0.0526(3)
H1 H 0.8511 0.4140 -0.0092
O8 O 1.0239(3) 0.41432(10) 0.3865(3)
H3 H 1.0858 0.4406 0.3357
H4 H 1.0849 0.4201 0.4972
H5 H 0.8148 0.4909 -0.0043
N1 N 0.4147(3) 0.31149(12) 0.2571(3)
N2 N 0.1908(3) 0.22291(12) 0.1665(3)
H7 H 0.0845 0.2013 0.1072
C1 C 0.2413(4) 0.29647(15) 0.1520(4)
H8 H 0.1635 0.3324 0.0770
C2 C 0.3337(4) 0.10341(14) 0.3314(3)
C3 C 0.3379(4) 0.18791(14) 0.2924(3)
C4 C 0.4774(4) 0.24459(14) 0.3494(3)
C5 C 0.6744(3) 0.24727(12) 0.4765(3)
C6 C 0.5909(4) 0.48969(13) 0.5760(3)
Nd1B Nd 0.328944(18) 0.589346(7) 0.750987(15)
Nd1A Nd 0.328944(18) -0.089346(7) 0.250987(15)
Nd1A_2 Nd 0.328944(18) 0.910654(7) 0.250987(15)
Nd1C Nd 0.671056(18) 0.089346(7) 0.749013(15)
Nd1C_2 Nd 0.671056(18) 1.089346(7) 0.749013(15)
O1B O 0.2179(3) 0.70026(10) 0.5465(2)
O2B O 0.2731(3) 0.79823(10) 0.4008(2)
O2A O 0.2731(3) 0.70177(10) 0.9008(2)
O2C O 0.7269(3) 0.29823(10) 0.0992(2)
O3B O 0.5778(3) 0.91915(10) 0.5227(2)
O3A O 0.5778(3) 0.58085(10) 1.0227(2)
O3C O 0.4222(3) 0.41915(10) -0.0227(2)
O4B O 0.7576(3) 0.94159(10) 0.7865(2)
O4A O 0.7576(3) 0.55841(10) 0.2865(2)
O4C O 0.2424(3) 0.44159(10) 0.7135(2)
O5B O 0.2849(3) 0.55019(10) 0.4553(2)
O6B O 0.3980(3) 0.48543(11) 0.2840(2)
O7B O 0.1576(3) 0.54965(11) 0.9474(3)
H1B H 0.1489 0.5860 1.0092
O8B O -0.0239(3) 0.58568(10) 0.6135(3)
H3B H -0.0858 0.5594 0.6643
H4B H -0.0849 0.5799 0.5028
H5B H 0.1852 0.5091 1.0043
N1B N 0.5853(3) 0.68851(12) 0.7429(3)
N2B N 0.8092(3) 0.77709(12) 0.8335(3)
H7B H 0.9155 0.7987 0.8928
C1B C 0.7587(4) 0.70353(15) 0.8480(4)
H8B H 0.8365 0.6676 0.9230
C2B C 0.6663(4) 0.89659(14) 0.6686(3)
C3B C 0.6621(4) 0.81209(14) 0.7076(3)
C4B C 0.5226(4) 0.75541(14) 0.6506(3)
C5B C 0.3256(3) 0.75273(12) 0.5235(3)
C6B C 0.4091(4) 0.51031(13) 0.4240(3)
H2 H 0.8897 0.3050 -0.2161
O9 O 0.9027(3) 0.35236(12) -0.1806(3)
H6 H 0.8464 0.3792 -0.2795
loop_
_geom_bond_atom_site_label_1
_geom_bond_atom_site_label_2
_geom_bond_site_symmetry_1
_geom_bond_site_symmetry_2
Nd1 O1 1_555 1_555
O1 C5 1_555 1_555
O2 C5 1_555 1_555
O3 C2 1_555 1_555
O4 C2 1_555 1_555
O5 Nd1 1_555 1_555
O6 C6 1_555 1_555
O7 Nd1 1_555 1_555
H1 O7 1_555 1_555
H2 O9 1_555 1_555
O8 Nd1 1_555 1_555
H3 O8 1_555 1_555
H4 O8 1_555 1_555
O9 H6 1_555 1_555
H5 O7 1_555 1_555
N1 Nd1 1_555 1_555
N2 H7 1_555 1_555
C1 N1 1_555 1_555
H8 C1 1_555 1_555
C2 C3 1_555 1_555
C3 N2 1_555 1_555
C4 N1 1_555 1_555
C5 C4 1_555 1_555
C6 O5 1_555 1_555
Nd1B O6 1_555 1_555
Nd1A O4 1_555 1_555
Nd1A_2 O2B 1_555 1_555
Nd1C O2 1_555 1_555
Nd1C_2 O4B 1_555 1_555
O1B Nd1B 1_555 1_555
O2B C5B 1_555 1_555
O2A Nd1B 1_555 1_555
O2C Nd1 1_555 1_555
O3B Nd1A_2 1_555 1_555
O3A Nd1B 1_555 1_555
O3C Nd1 1_555 1_555
O4B C2B 1_555 1_555
O4A Nd1 1_555 1_555
O4C Nd1B 1_555 1_555
O5B Nd1B 1_555 1_555
O6B Nd1 1_555 1_555
O7B Nd1B 1_555 1_555
H1B O7B 1_555 1_555
O8B Nd1B 1_555 1_555
H3B O8B 1_555 1_555
H4B O8B 1_555 1_555
H5B O7B 1_555 1_555
N1B Nd1B 1_555 1_555
N2B H7B 1_555 1_555
C1B N1B 1_555 1_555
H8B C1B 1_555 1_555
C2B O3B 1_555 1_555
C3B N2B 1_555 1_555
C4B N1B 1_555 1_555
C5B O1B 1_555 1_555
C6B C6 1_555 1_555
O3 Nd1C 1_555 1_555
N2 C1 1_555 1_555
C3 C4 1_555 1_555
O5B C6B 1_555 1_555
O6B C6B 1_555 1_555
N2B C1B 1_555 1_555
C2B C3B 1_555 1_555
C3B C4B 1_555 1_555
C4B C5B 1_555 1_555

#END
