
#######################################################################
#
#                 Cambridge Crystallographic Data Centre
#                                CCDC 
#
#######################################################################
#
# If this CIF has been generated from an entry in the Cambridge 
# Structural Database, then it will include bibliographic, chemical, 
# crystal, experimental, refinement or atomic coordinate data resulting 
# from the CCDC's data processing and validation procedures.
#
#######################################################################

data_PUPMOD
_symmetry_cell_setting           monoclinic
_symmetry_space_group_name_H-M   'P 21/c'
_symmetry_Int_Tables_number      14
_space_group_name_Hall           '-P 2ybc'
loop_
_symmetry_equiv_pos_site_id
_symmetry_equiv_pos_as_xyz
1 x,y,z
2 -x,1/2+y,1/2-z
3 -x,-y,-z
4 x,1/2-y,1/2+z
_cell_length_a                   8.0368(16)
_cell_length_b                   13.327(3)
_cell_length_c                   24.049(5)
_cell_angle_alpha                90
_cell_angle_beta                 101.955(7)
_cell_angle_gamma                90
_cell_volume                     2519.93
loop_
_atom_site_label
_atom_site_type_symbol
_atom_site_fract_x
_atom_site_fract_y
_atom_site_fract_z
Zn1 Zn 0.46338(5) 0.30069(3) 0.798908(18)
Zn2 Zn 0.02346(6) 0.28906(3) 0.786943(18)
O1 O 0.1052(4) 0.3831(2) 0.86320(12)
O2 O -0.1355(3) 0.39503(19) 0.75024(11)
H1 H -0.2192 0.3680 0.7278
H2 H -0.1713 0.4277 0.7758
O3 O 0.2510(3) 0.38489(19) 0.79537(11)
O4 O 0.4791(5) 0.8459(2) 0.82572(13)
O5 O 0.4941(4) 0.72402(18) 0.76470(11)
O6 O 0.6190(4) 0.3687(2) 0.90393(14)
O7 O 0.6345(3) 0.40596(19) 0.81563(11)
O8 O 1.0157(4) 0.82412(19) 0.84328(12)
O9 O 0.9237(4) 0.71099(19) 0.77572(11)
N1 N 0.3899(4) 0.0255(2) 0.86744(12)
H3 H 0.3918 -0.0389 0.8659
N2 N 0.4128(4) 0.1819(2) 0.84357(13)
N3 N 0.0924(4) -0.0219(2) 1.14802(13)
H4 H 0.0922 0.0426 1.1490
N4 N 0.0611(4) -0.1766(2) 1.17275(13)
C1 C 0.4275(5) 0.0890(3) 0.82870(15)
H5 H 0.4599 0.0692 0.7954
C2 C 0.3633(5) 0.1781(3) 0.89509(16)
H6 H 0.3440 0.2337 0.9163
C3 C 0.3469(4) 0.0819(3) 0.91020(14)
C4 C 0.2947(4) 0.0384(2) 0.96011(14)
C5 C 0.2672(5) -0.0635(3) 0.96565(16)
H7 H 0.2799 -0.1070 0.9366
C6 C 0.2215(5) -0.1009(3) 1.01349(16)
H8 H 0.2076 -0.1698 1.0167
C7 C 0.1952(4) -0.0385(3) 1.05725(14)
C8 C 0.2223(5) 0.0638(3) 1.05185(16)
H9 H 0.2065 0.1076 1.0804
C9 C 0.2727(5) 0.1006(3) 1.00417(16)
H10 H 0.2923 0.1691 1.0016
C10 C 0.1399(4) -0.0799(3) 1.10643(14)
C11 C 0.1185(5) -0.1754(3) 1.12259(14)
H11 H 0.1394 -0.2322 1.1027
C12 C 0.0470(5) -0.0834(3) 1.18648(15)
H12 H 0.0102 -0.0620 1.2187
C13 C 0.2136(5) 0.4234(3) 0.84102(17)
C14 C 0.2960(4) 0.5182(2) 0.86378(15)
C15 C 0.3119(5) 0.5396(3) 0.92120(16)
H13 H 0.2749 0.4934 0.9449
C16 C 0.3822(6) 0.6290(3) 0.94309(16)
H14 H 0.3958 0.6422 0.9817
C17 C 0.4326(5) 0.6990(3) 0.90771(16)
H15 H 0.4778 0.7599 0.9225
C18 C 0.4165(4) 0.6793(2) 0.85045(14)
C19 C 0.4682(5) 0.7573(3) 0.81118(15)
C20 C 0.3509(4) 0.5885(3) 0.82896(14)
H16 H 0.3432 0.5741 0.7907
C21 C 0.6681(5) 0.4237(3) 0.86947(17)
C22 C 0.7694(4) 0.5169(3) 0.88835(15)
C23 C 0.8130(5) 0.5379(3) 0.94573(17)
H17 H 0.7840 0.4930 0.9718
C24 C 0.8993(6) 0.6250(3) 0.96465(16)
H18 H 0.9279 0.6390 1.0033
C25 C 0.9431(5) 0.6913(3) 0.92597(16)
H19 H 1.0006 0.7502 0.9386
C26 C 0.9019(4) 0.6704(2) 0.86899(15)
C27 C 0.9530(5) 0.7421(3) 0.82694(15)
C28 C 0.8147(5) 0.5839(3) 0.85044(15)
H20 H 0.7859 0.5704 0.8117
Zn1A Zn 0.53662(5) 0.80069(3) 0.701092(18)
Zn2A Zn 0.97654(6) 0.78906(3) 0.713057(18)
Zn2B Zn -0.02346(6) -0.28906(3) 1.213057(18)
O5A O 0.5059(4) 0.22402(18) 0.73530(11)
O9A O 0.0763(4) 0.21099(19) 0.72428(11)
N4B N -0.0611(4) 0.1766(2) 0.82725(13)
loop_
_geom_bond_atom_site_label_1
_geom_bond_atom_site_label_2
_geom_bond_site_symmetry_1
_geom_bond_site_symmetry_2
Zn1 O3 1_555 1_555
Zn2 O1 1_555 1_555
O1 C13 1_555 1_555
O2 Zn2 1_555 1_555
H1 O2 1_555 1_555
H2 O2 1_555 1_555
O3 Zn2 1_555 1_555
O4 C19 1_555 1_555
O5 C19 1_555 1_555
O6 C21 1_555 1_555
O7 Zn1 1_555 1_555
O8 C27 1_555 1_555
O9 C27 1_555 1_555
N1 H3 1_555 1_555
N2 Zn1 1_555 1_555
N3 H4 1_555 1_555
N4 C11 1_555 1_555
C1 N1 1_555 1_555
H5 C1 1_555 1_555
C2 N2 1_555 1_555
H6 C2 1_555 1_555
C3 N1 1_555 1_555
C4 C3 1_555 1_555
C5 C4 1_555 1_555
H7 C5 1_555 1_555
C6 C5 1_555 1_555
H8 C6 1_555 1_555
C7 C6 1_555 1_555
C8 C7 1_555 1_555
H9 C8 1_555 1_555
C9 C4 1_555 1_555
H10 C9 1_555 1_555
C10 N3 1_555 1_555
C11 C10 1_555 1_555
H11 C11 1_555 1_555
C12 N3 1_555 1_555
H12 C12 1_555 1_555
C13 O3 1_555 1_555
C14 C13 1_555 1_555
C15 C14 1_555 1_555
H13 C15 1_555 1_555
C16 C15 1_555 1_555
H14 C16 1_555 1_555
C17 C16 1_555 1_555
H15 C17 1_555 1_555
C18 C17 1_555 1_555
C19 C18 1_555 1_555
C20 C14 1_555 1_555
H16 C20 1_555 1_555
C21 O7 1_555 1_555
C22 C21 1_555 1_555
C23 C22 1_555 1_555
H17 C23 1_555 1_555
C24 C23 1_555 1_555
H18 C24 1_555 1_555
C25 C24 1_555 1_555
H19 C25 1_555 1_555
C26 C25 1_555 1_555
C27 C26 1_555 1_555
C28 C22 1_555 1_555
H20 C28 1_555 1_555
Zn1A O5 1_555 1_555
Zn2A O9 1_555 1_555
Zn2B N4 1_555 1_555
O5A Zn1 1_555 1_555
O9A Zn2 1_555 1_555
N4B Zn2 1_555 1_555
N2 C1 1_555 1_555
N4 C12 1_555 1_555
C2 C3 1_555 1_555
C7 C10 1_555 1_555
C8 C9 1_555 1_555
C18 C20 1_555 1_555
C26 C28 1_555 1_555

#END
