
#######################################################################
#
#                 Cambridge Crystallographic Data Centre
#                                CCDC 
#
#######################################################################
#
# If this CIF has been generated from an entry in the Cambridge 
# Structural Database, then it will include bibliographic, chemical, 
# crystal, experimental, refinement or atomic coordinate data resulting 
# from the CCDC's data processing and validation procedures.
#
#######################################################################

data_PUPRIB
_symmetry_cell_setting           monoclinic
_symmetry_space_group_name_H-M   'P 21/n'
_symmetry_Int_Tables_number      14
_space_group_name_Hall           '-P 2yn'
loop_
_symmetry_equiv_pos_site_id
_symmetry_equiv_pos_as_xyz
1 x,y,z
2 1/2-x,1/2+y,1/2-z
3 -x,-y,-z
4 1/2+x,1/2-y,1/2+z
_cell_length_a                   7.3379(4)
_cell_length_b                   8.030(1)
_cell_length_c                   19.032(3)
_cell_angle_alpha                90
_cell_angle_beta                 100.611(8)
_cell_angle_gamma                90
_cell_volume                     1102.25
loop_
_atom_site_label
_atom_site_type_symbol
_atom_site_fract_x
_atom_site_fract_y
_atom_site_fract_z
Tl1 Tl 0.16134(5) 0.97435(5) 0.21787(2)
S1 S 0.3404(4) 0.8558(4) 0.3490(2)
O1 O 0.419(1) 1.1500(8) 0.3059(4)
N1 N 0.620(1) 1.059(1) 0.4031(4)
C1 C 0.369(1) 0.944(2) 0.1529(6)
C2 C -0.093(2) 1.028(2) 0.2520(7)
C3 C 0.468(1) 1.040(1) 0.3506(5)
C4 C 0.687(2) 0.936(1) 0.4570(6)
C5 C 0.835(2) 0.827(2) 0.4349(7)
C6 C 0.729(1) 1.214(1) 0.4047(6)
C7 C 0.673(2) 1.345(2) 0.4548(7)
Tl1A Tl 0.33866(5) 0.47435(5) 0.28213(2)
O1A O 0.081(1) 0.6500(8) 0.1941(4)
S1A S 0.1596(4) 1.3558(4) 0.1510(2)
Tl1A_2 Tl 0.33866(5) 1.47435(5) 0.28213(2)
loop_
_geom_bond_atom_site_label_1
_geom_bond_atom_site_label_2
_geom_bond_site_symmetry_1
_geom_bond_site_symmetry_2
Tl1 S1 1_555 1_555
S1 C3 1_555 1_555
O1 Tl1 1_555 1_555
N1 C3 1_555 1_555
C1 Tl1 1_555 1_555
C2 Tl1 1_555 1_555
C3 O1 1_555 1_555
C4 N1 1_555 1_555
C5 C4 1_555 1_555
C6 N1 1_555 1_555
C7 C6 1_555 1_555
Tl1A S1 1_555 1_555
O1A Tl1 1_555 1_555
S1A Tl1 1_555 1_555
Tl1A_2 O1 1_555 1_555
Tl1A O1A 1_555 1_555
S1A Tl1A_2 1_555 1_555

#END
