
#######################################################################
#
#                 Cambridge Crystallographic Data Centre
#                                CCDC 
#
#######################################################################
#
# If this CIF has been generated from an entry in the Cambridge 
# Structural Database, then it will include bibliographic, chemical, 
# crystal, experimental, refinement or atomic coordinate data resulting 
# from the CCDC's data processing and validation procedures.
#
#######################################################################

data_PUQCIO
_symmetry_cell_setting           triclinic
_symmetry_space_group_name_H-M   'P -1'
_symmetry_Int_Tables_number      2
_space_group_name_Hall           '-P 1'
loop_
_symmetry_equiv_pos_site_id
_symmetry_equiv_pos_as_xyz
1 x,y,z
2 -x,-y,-z
_cell_length_a                   8.7008(8)
_cell_length_b                   10.2367(10)
_cell_length_c                   11.0601(11)
_cell_angle_alpha                97.732(5)
_cell_angle_beta                 99.844(5)
_cell_angle_gamma                111.366(4)
_cell_volume                     882.844
loop_
_atom_site_label
_atom_site_type_symbol
_atom_site_fract_x
_atom_site_fract_y
_atom_site_fract_z
C1 C 0.7936(5) 0.2369(4) 0.4173(4)
C2 C 0.7839(4) 0.0939(4) 0.3433(4)
C3 C 0.6704(4) -0.0387(4) 0.3841(3)
C4 C 0.6618(4) -0.1870(4) 0.3272(3)
C5 C 0.5286(5) -0.3121(4) 0.3655(3)
C6 C 0.8799(5) 0.5062(5) 0.2313(4)
H1 H 0.8852 0.5668 0.3040
C7 C 0.7536(6) 0.4825(5) 0.1238(4)
H2 H 0.6766 0.5259 0.1255
C8 C 0.7455(5) 0.3949(5) 0.0170(4)
H3 H 0.6623 0.3779 -0.0551
C9 C 0.8623(5) 0.3299(4) 0.0151(4)
C10 C 0.9843(4) 0.3578(4) 0.1280(3)
C11 C 0.8647(6) 0.2399(5) -0.0941(4)
H4 H 0.7850 0.2224 -0.1685
C12 C 0.9782(6) 0.1795(5) -0.0927(4)
H5 H 0.9762 0.1212 -0.1657
C13 C 1.1052(4) 0.2928(4) 0.1305(3)
C14 C 1.1027(5) 0.2045(4) 0.0204(3)
C15 C 1.2234(6) 0.1424(5) 0.0286(4)
H6 H 1.2250 0.0825 -0.0418
C16 C 1.3377(6) 0.1698(5) 0.1393(4)
H7 H 1.4194 0.1309 0.1450
C17 C 1.3295(5) 0.2578(5) 0.2441(4)
H8 H 1.4062 0.2748 0.3201
N1 N 1.2185(4) 0.3179(3) 0.2407(3)
F1 F 0.9385(3) 0.0915(3) 0.3525(3)
F2 F 0.7199(4) 0.0819(3) 0.2197(2)
F3 F 0.5123(3) -0.0440(3) 0.3585(3)
F4 F 0.7239(4) -0.0161(3) 0.5093(2)
F5 F 0.6241(4) -0.2068(3) 0.2007(2)
F6 F 0.8167(3) -0.1895(3) 0.3605(3)
N2 N 0.9916(4) 0.4468(3) 0.2344(3)
O1 O 0.9305(4) 0.3207(3) 0.4878(3)
O2 O 0.6596(4) 0.2553(4) 0.3974(4)
O3 O 0.5788(4) -0.3654(3) 0.4477(3)
O4 O 0.3776(3) -0.3459(3) 0.3092(3)
Pb1 Pb 1.220399(13) 0.487226(12) 0.429938(10)
O2A O 1.3404(4) 0.7447(4) 0.6026(4)
O3A O 1.4212(4) 0.3654(3) 0.5523(3)
O4_2 O 1.3776(3) 0.6541(3) 0.3092(3)
Pb1A Pb 0.779601(13) 0.512774(12) 0.570062(10)
Pb1A_2 Pb 0.779601(13) -0.487226(12) 0.570062(10)
Pb1_2 Pb 0.220399(13) -0.512774(12) 0.429938(10)
loop_
_geom_bond_atom_site_label_1
_geom_bond_atom_site_label_2
_geom_bond_site_symmetry_1
_geom_bond_site_symmetry_2
C1 C2 1_555 1_555
C2 C3 1_555 1_555
C3 C4 1_555 1_555
C4 C5 1_555 1_555
C5 O3 1_555 1_555
C6 H1 1_555 1_555
C7 C6 1_555 1_555
H2 C7 1_555 1_555
C8 C7 1_555 1_555
H3 C8 1_555 1_555
C9 C8 1_555 1_555
C10 C9 1_555 1_555
C11 C9 1_555 1_555
H4 C11 1_555 1_555
C12 C11 1_555 1_555
H5 C12 1_555 1_555
C13 C10 1_555 1_555
C14 C12 1_555 1_555
C15 C14 1_555 1_555
H6 C15 1_555 1_555
C16 C15 1_555 1_555
H7 C16 1_555 1_555
C17 C16 1_555 1_555
H8 C17 1_555 1_555
N1 C13 1_555 1_555
F1 C2 1_555 1_555
F2 C2 1_555 1_555
F3 C3 1_555 1_555
F4 C3 1_555 1_555
F5 C4 1_555 1_555
F6 C4 1_555 1_555
N2 C6 1_555 1_555
O1 C1 1_555 1_555
O2 C1 1_555 1_555
O3 Pb1A_2 1_555 1_555
O4 C5 1_555 1_555
Pb1 N1 1_555 1_555
O2A Pb1 1_555 1_555
O3A Pb1 1_555 1_555
O4_2 Pb1 1_555 1_555
Pb1A O2 1_555 1_555
Pb1_2 O4 1_555 1_555
C10 N2 1_555 1_555
C13 C14 1_555 1_555
C17 N1 1_555 1_555
N2 Pb1 1_555 1_555
O1 Pb1 1_555 1_555

#END
