
#######################################################################
#
#                 Cambridge Crystallographic Data Centre
#                                CCDC 
#
#######################################################################
#
# If this CIF has been generated from an entry in the Cambridge 
# Structural Database, then it will include bibliographic, chemical, 
# crystal, experimental, refinement or atomic coordinate data resulting 
# from the CCDC's data processing and validation procedures.
#
#######################################################################

data_PUQDUB
_symmetry_cell_setting           monoclinic
_symmetry_space_group_name_H-M   'C 2/c'
_symmetry_Int_Tables_number      15
_space_group_name_Hall           '-C 2yn'
loop_
_symmetry_equiv_pos_site_id
_symmetry_equiv_pos_as_xyz
1 x,y,z
2 -x,y,1/2-z
3 1/2+x,1/2+y,z
4 1/2-x,1/2+y,1/2-z
5 -x,-y,-z
6 x,-y,1/2+z
7 1/2-x,1/2-y,-z
8 1/2+x,1/2-y,1/2+z
_cell_length_a                   17.497(10)
_cell_length_b                   18.093(7)
_cell_length_c                   13.224(6)
_cell_angle_alpha                90
_cell_angle_beta                 117.798(17)
_cell_angle_gamma                90
_cell_volume                     3703.25
loop_
_atom_site_label
_atom_site_type_symbol
_atom_site_fract_x
_atom_site_fract_y
_atom_site_fract_z
Pb1 Pb 0.102613(18) 0.641590(16) 0.23648(2)
N1 N 0.1115(4) 0.7782(4) 0.2590(5)
N2 N 0.2155(4) 0.9684(3) 0.5464(5)
H1 H 0.1846 1.0034 0.4950
N3 N 0.2659(4) 0.9865(3) 0.6611(5)
O1 O 0.2572(3) 0.8490(3) 0.5833(4)
O2 O 0.4269(4) 1.0247(3) 1.1030(4)
O3 O 0.4469(3) 1.1679(3) 1.1283(4)
C1 C 0.1542(4) 0.8046(4) 0.3664(6)
H2 H 0.1802 0.7711 0.4261
C2 C 0.1613(4) 0.8787(4) 0.3924(5)
C3 C 0.1217(5) 0.9278(4) 0.3039(6)
H3 H 0.1251 0.9784 0.3178
C4 C 0.0768(6) 0.9008(5) 0.1935(6)
H4 H 0.0490 0.9333 0.1326
C5 C 0.0732(5) 0.8276(5) 0.1744(6)
H5 H 0.0430 0.8106 0.0997
C6 C 0.2146(4) 0.8982(4) 0.5146(6)
C7 C 0.2711(5) 1.0551(4) 0.6845(6)
H6 H 0.2427 1.0886 0.6252
C8 C 0.3200(4) 1.0831(4) 0.8009(5)
C9 C 0.3513(4) 1.0353(4) 0.8942(5)
H7 H 0.3434 0.9846 0.8834
C10 C 0.3944(4) 1.0646(4) 1.0033(5)
C11 C 0.4078(4) 1.1411(4) 1.0221(6)
C12 C 0.3770(5) 1.1864(4) 0.9272(6)
H8 H 0.3861 1.2371 0.9369
C13 C 0.3329(5) 1.1576(4) 0.8178(6)
H9 H 0.3119 1.1893 0.7552
C14 C 0.4219(7) 0.9458(5) 1.0912(7)
H10 H 0.4431 0.9235 1.1653
H11 H 0.4564 0.9298 1.0562
H12 H 0.3629 0.9314 1.0442
N4 N 0.1657(12) 0.7074(10) 0.0636(15)
O4 O 0.2159(9) 0.6770(7) 0.1518(11)
O5 O 0.0910(10) 0.7056(8) 0.0260(13)
O6 O 0.1718(17) 0.7357(14) -0.028(2)
Pb1F Pb 0.397387(18) 0.858410(16) 0.76352(2)
Pb1C Pb 0.397387(18) 1.141590(16) 1.26352(2)
Pb1B Pb 0.602613(18) 1.141590(16) 1.23648(2)
Pb1E Pb 0.102613(18) 0.358410(16) -0.26352(2)
Pb1D Pb -0.102613(18) 0.358410(16) -0.23648(2)
N1F N 0.3885(4) 0.7218(4) 0.7410(5)
N2F N 0.2845(4) 0.5316(3) 0.4536(5)
H1F H 0.3154 0.4966 0.5050
N3F N 0.2341(4) 0.5135(3) 0.3389(5)
O1F O 0.2428(3) 0.6510(3) 0.4167(4)
O2F O 0.0731(4) 0.4753(3) -0.1030(4)
O3F O 0.0531(3) 0.3321(3) -0.1283(4)
O3C O 0.0531(3) 0.6679(3) 0.3717(4)
O3B O -0.0531(3) 0.6679(3) 0.1283(4)
O3E O 0.4469(3) 0.8321(3) 0.6283(4)
O3D O 0.5531(3) 0.8321(3) 0.8717(4)
C1F C 0.3458(4) 0.6954(4) 0.6336(6)
H2F H 0.3198 0.7289 0.5739
C2F C 0.3387(4) 0.6213(4) 0.6076(5)
C3F C 0.3783(5) 0.5722(4) 0.6961(6)
H3F H 0.3749 0.5216 0.6822
C4F C 0.4232(6) 0.5992(5) 0.8065(6)
H4F H 0.4510 0.5667 0.8674
C5F C 0.4268(5) 0.6724(5) 0.8256(6)
H5F H 0.4570 0.6894 0.9003
C6F C 0.2854(4) 0.6018(4) 0.4854(6)
C7F C 0.2289(5) 0.4449(4) 0.3155(6)
H6F H 0.2573 0.4114 0.3748
C8F C 0.1800(4) 0.4169(4) 0.1991(5)
C9F C 0.1487(4) 0.4647(4) 0.1058(5)
H7F H 0.1566 0.5154 0.1166
C10F C 0.1056(4) 0.4354(4) -0.0033(5)
C11F C 0.0922(4) 0.3589(4) -0.0221(6)
C12F C 0.1230(5) 0.3136(4) 0.0728(6)
H8F H 0.1139 0.2629 0.0631
C13F C 0.1671(5) 0.3424(4) 0.1822(6)
H9F H 0.1881 0.3107 0.2448
C14F C 0.0781(7) 0.5542(5) -0.0912(7)
H10F H 0.0569 0.5765 -0.1653
H11F H 0.0436 0.5702 -0.0562
H12F H 0.1371 0.5686 -0.0442
N4F N 0.3343(12) 0.7926(10) 0.9364(15)
O4F O 0.2841(9) 0.8230(7) 0.8482(11)
O5F O 0.4090(10) 0.7944(8) 0.9740(13)
O6F O 0.3282(17) 0.7643(14) 1.028(2)
O7 O 0.1082(16) 0.2047(13) 0.324(2)
O8 O 0.0000 0.274(2) 0.2500
O9 O 0.078(4) 0.124(3) 0.144(6)
N5? N -0.043(3) 0.076(2) 0.083(3)
O10? O -0.0972(13) 0.0876(9) 0.0711(14)
O11? O 0.067(3) 0.096(3) 0.108(4)
O12? O -0.1498(19) 0.1019(15) 0.096(2)
O13? O 0.0000 0.206(3) 0.2500
O14? O 0.114(6) 0.137(5) 0.218(9)
loop_
_geom_bond_atom_site_label_1
_geom_bond_atom_site_label_2
_geom_bond_site_symmetry_1
_geom_bond_site_symmetry_2
Pb1 N1 1_555 1_555
N1 C1 1_555 1_555
N2 H1 1_555 1_555
N3 N2 1_555 1_555
O1 C6 1_555 1_555
O2 C10 1_555 1_555
O3 C11 1_555 1_555
C1 H2 1_555 1_555
C2 C1 1_555 1_555
C3 C2 1_555 1_555
H3 C3 1_555 1_555
C4 C3 1_555 1_555
H4 C4 1_555 1_555
C5 N1 1_555 1_555
H5 C5 1_555 1_555
C6 N2 1_555 1_555
C7 N3 1_555 1_555
H6 C7 1_555 1_555
C8 C7 1_555 1_555
C9 C8 1_555 1_555
H7 C9 1_555 1_555
C10 C9 1_555 1_555
C11 C10 1_555 1_555
C12 C11 1_555 1_555
H8 C12 1_555 1_555
C13 C8 1_555 1_555
H9 C13 1_555 1_555
C14 O2 1_555 1_555
H10 C14 1_555 1_555
H11 C14 1_555 1_555
H12 C14 1_555 1_555
N4 O4 1_555 1_555
O4 Pb1 1_555 1_555
O5 N4 1_555 1_555
O6 N4 1_555 1_555
Pb1F O1 1_555 1_555
Pb1C O3 1_555 1_555
Pb1B O3 1_555 1_555
Pb1E O3F 1_555 1_555
Pb1D O3F 1_555 1_555
N1F Pb1F 1_555 1_555
N2F H1F 1_555 1_555
N3F N2F 1_555 1_555
O1F Pb1 1_555 1_555
O2F C10F 1_555 1_555
O3F C11F 1_555 1_555
O3C Pb1 1_555 1_555
O3B Pb1 1_555 1_555
O3E Pb1F 1_555 1_555
O3D Pb1F 1_555 1_555
C1F N1F 1_555 1_555
H2F C1F 1_555 1_555
C2F C1F 1_555 1_555
C3F C2F 1_555 1_555
H3F C3F 1_555 1_555
C4F C3F 1_555 1_555
H4F C4F 1_555 1_555
C5F N1F 1_555 1_555
H5F C5F 1_555 1_555
C6F N2F 1_555 1_555
C7F N3F 1_555 1_555
H6F C7F 1_555 1_555
C8F C7F 1_555 1_555
C9F C8F 1_555 1_555
H7F C9F 1_555 1_555
C10F C9F 1_555 1_555
C11F C10F 1_555 1_555
C12F C11F 1_555 1_555
H8F C12F 1_555 1_555
C13F C8F 1_555 1_555
H9F C13F 1_555 1_555
C14F O2F 1_555 1_555
H10F C14F 1_555 1_555
H11F C14F 1_555 1_555
H12F C14F 1_555 1_555
N4F O4F 1_555 1_555
O4F Pb1F 1_555 1_555
O5F N4F 1_555 1_555
O6F N4F 1_555 1_555
C2 C6 1_555 1_555
C4 C5 1_555 1_555
C12 C13 1_555 1_555
O1F C6F 1_555 1_555
C2F C6F 1_555 1_555
C4F C5F 1_555 1_555
C12F C13F 1_555 1_555

#END
