
#######################################################################
#
#                 Cambridge Crystallographic Data Centre
#                                CCDC 
#
#######################################################################
#
# If this CIF has been generated from an entry in the Cambridge 
# Structural Database, then it will include bibliographic, chemical, 
# crystal, experimental, refinement or atomic coordinate data resulting 
# from the CCDC's data processing and validation procedures.
#
#######################################################################

data_PUQFOW
_symmetry_cell_setting           monoclinic
_symmetry_space_group_name_H-M   'C 2/c'
_symmetry_Int_Tables_number      15
_space_group_name_Hall           '-C 2yn'
loop_
_symmetry_equiv_pos_site_id
_symmetry_equiv_pos_as_xyz
1 x,y,z
2 -x,y,1/2-z
3 1/2+x,1/2+y,z
4 1/2-x,1/2+y,1/2-z
5 -x,-y,-z
6 x,-y,1/2+z
7 1/2-x,1/2-y,-z
8 1/2+x,1/2-y,1/2+z
_cell_length_a                   16.864(4)
_cell_length_b                   10.207(4)
_cell_length_c                   17.416(3)
_cell_angle_alpha                90
_cell_angle_beta                 121.99(2)
_cell_angle_gamma                90
_cell_volume                     2542.58
loop_
_atom_site_label
_atom_site_type_symbol
_atom_site_fract_x
_atom_site_fract_y
_atom_site_fract_z
Co1 Co 0.0000 0.0896(1) -0.2500
S1 S 0.1423(1) 0.5878(1) 0.0454(1)
S2 S 0.2833(1) 0.1792(2) -0.2423(1)
N1 N 0.0368(2) 0.2410(3) -0.1483(2)
N2 N 0.0460(2) 0.9337(3) -0.1497(2)
N3 N 0.1331(2) 0.0955(3) -0.2308(2)
C1 C 0.1946(3) 0.1292(4) -0.2367(3)
C2 C -0.0121(3) 0.3521(4) -0.1688(3)
C3 C 0.0156(3) 0.4604(4) -0.1147(3)
C4 C 0.0994(3) 0.4553(4) -0.0314(3)
C5 C 0.1480(3) 0.3387(4) -0.0070(3)
C6 C 0.1154(3) 0.2367(4) -0.0665(3)
C7 C 0.0159(3) 0.9171(4) -0.0937(3)
C8 C 0.0428(3) 0.8133(4) -0.0340(3)
C9 C 0.1032(3) 0.7213(4) -0.0318(3)
C10 C 0.1348(3) 0.7368(4) -0.0896(3)
C11 C 0.1053(3) 0.8425(4) -0.1466(3)
H1 H -0.0690(3) 0.3560(4) -0.2237(3)
H2 H -0.0208(3) 0.5359(4) -0.1332(3)
H3 H 0.2025(3) 0.3297(4) 0.0495(3)
H4 H 0.1499(3) 0.1595(4) -0.0491(3)
H5 H -0.0254(3) 0.9784(4) -0.0947(3)
H6 H 0.0202(3) 0.8060(4) 0.0044(3)
H7 H 0.1759(3) 0.6762(4) -0.0899(3)
H8 H 0.1274(3) 0.8518(4) -0.1853(3)
S1A S -0.1423(1) 0.5878(1) -0.5454(1)
N1A N -0.0368(2) 0.2410(3) -0.3517(2)
N2A N -0.0460(2) 0.9337(3) -0.3503(2)
C2A C 0.0121(3) 0.3521(4) -0.3312(3)
C3A C -0.0156(3) 0.4604(4) -0.3853(3)
C4A C -0.0994(3) 0.4553(4) -0.4686(3)
C5A C -0.1480(3) 0.3387(4) -0.4930(3)
C6A C -0.1154(3) 0.2367(4) -0.4335(3)
C7A C -0.0159(3) 0.9171(4) -0.4063(3)
C8A C -0.0428(3) 0.8133(4) -0.4660(3)
C9A C -0.1032(3) 0.7213(4) -0.4682(3)
C10A C -0.1348(3) 0.7368(4) -0.4104(3)
C11A C -0.1053(3) 0.8425(4) -0.3534(3)
H1A H 0.0690(3) 0.3560(4) -0.2763(3)
H2A H 0.0208(3) 0.5359(4) -0.3668(3)
H3A H -0.2025(3) 0.3297(4) -0.5495(3)
H4A H -0.1499(3) 0.1595(4) -0.4509(3)
H5A H 0.0254(3) 0.9784(4) -0.4053(3)
H6A H -0.0202(3) 0.8060(4) -0.5044(3)
H7A H -0.1759(3) 0.6762(4) -0.4101(3)
H8A H -0.1274(3) 0.8518(4) -0.3147(3)
N2_2 N 0.0460(2) -0.0663(3) -0.1497(2)
N2A_2 N -0.0460(2) -0.0663(3) -0.3503(2)
S2A S -0.2833(1) 0.1792(2) -0.2577(1)
N3A N -0.1331(2) 0.0955(3) -0.2692(2)
C1A C -0.1946(3) 0.1292(4) -0.2633(3)
Co1_2 Co 0.0000 1.0896(1) -0.2500
O1 O 0.2266(7) -1.0660(7) -0.3798(5)
loop_
_geom_bond_atom_site_label_1
_geom_bond_atom_site_label_2
_geom_bond_site_symmetry_1
_geom_bond_site_symmetry_2
Co1 N1 1_555 1_555
S1 C4 1_555 1_555
S2 C1 1_555 1_555
N1 C2 1_555 1_555
N2 C7 1_555 1_555
N3 Co1 1_555 1_555
C1 N3 1_555 1_555
C2 C3 1_555 1_555
C3 C4 1_555 1_555
C4 C5 1_555 1_555
C5 C6 1_555 1_555
C6 N1 1_555 1_555
C7 C8 1_555 1_555
C8 C9 1_555 1_555
C9 S1 1_555 1_555
C10 C9 1_555 1_555
C11 N2 1_555 1_555
H1 C2 1_555 1_555
H2 C3 1_555 1_555
H3 C5 1_555 1_555
H4 C6 1_555 1_555
H5 C7 1_555 1_555
H6 C8 1_555 1_555
H7 C10 1_555 1_555
H8 C11 1_555 1_555
S1A C4A 1_555 1_555
N1A Co1 1_555 1_555
N2A C7A 1_555 1_555
C2A N1A 1_555 1_555
C3A C2A 1_555 1_555
C4A C3A 1_555 1_555
C5A C4A 1_555 1_555
C6A N1A 1_555 1_555
C7A C8A 1_555 1_555
C8A C9A 1_555 1_555
C9A S1A 1_555 1_555
C10A C9A 1_555 1_555
C11A N2A 1_555 1_555
H1A C2A 1_555 1_555
H2A C3A 1_555 1_555
H3A C5A 1_555 1_555
H4A C6A 1_555 1_555
H5A C7A 1_555 1_555
H6A C8A 1_555 1_555
H7A C10A 1_555 1_555
H8A C11A 1_555 1_555
N2_2 Co1 1_555 1_555
N2A_2 Co1 1_555 1_555
S2A C1A 1_555 1_555
N3A Co1 1_555 1_555
C1A N3A 1_555 1_555
Co1_2 N2 1_555 1_555
C10 C11 1_555 1_555
N2A Co1_2 1_555 1_555
C5A C6A 1_555 1_555
C10A C11A 1_555 1_555

#END
