
#######################################################################
#
#                 Cambridge Crystallographic Data Centre
#                                CCDC 
#
#######################################################################
#
# If this CIF has been generated from an entry in the Cambridge 
# Structural Database, then it will include bibliographic, chemical, 
# crystal, experimental, refinement or atomic coordinate data resulting 
# from the CCDC's data processing and validation procedures.
#
#######################################################################

data_PUQFIS
_symmetry_cell_setting           triclinic
_symmetry_space_group_name_H-M   'P -1'
_symmetry_Int_Tables_number      2
_space_group_name_Hall           '-P 1'
loop_
_symmetry_equiv_pos_site_id
_symmetry_equiv_pos_as_xyz
1 x,y,z
2 -x,-y,-z
_cell_length_a                   8.8577(8)
_cell_length_b                   12.0523(11)
_cell_length_c                   13.6494(13)
_cell_angle_alpha                114.2400(10)
_cell_angle_beta                 96.3570(10)
_cell_angle_gamma                98.6170(10)
_cell_volume                     1289.48
loop_
_atom_site_label
_atom_site_type_symbol
_atom_site_fract_x
_atom_site_fract_y
_atom_site_fract_z
Tb1 Tb 0.226445(14) 0.066020(12) 0.031472(10)
F1 F 0.1344(3) 0.4902(3) -0.1908(3)
F2 F -0.1399(3) 0.5603(2) -0.1873(2)
F3 F -0.3335(3) 0.2657(3) -0.0652(3)
F4 F -0.0166(4) 0.3717(3) 0.57443(19)
F5 F -0.2741(3) 0.4368(3) 0.5202(2)
F6 F 0.6049(4) 0.1698(3) 0.61896(19)
F7 F 0.3907(4) 0.2325(3) 0.5120(2)
F8 F 0.7771(3) -0.0441(3) 0.29246(18)
F9 F -0.2321(2) 0.25409(19) 0.14925(16)
O1 O 0.1895(3) 0.1994(2) 0.21682(19)
O2 O 0.4558(3) 0.0686(2) 0.12661(19)
O3 O 0.0910(3) 0.1788(2) -0.0386(2)
O4 O -0.1640(3) 0.0895(2) -0.0900(2)
O5 O 0.8058(5) 0.0188(4) 0.5003(2)
O6 O -0.3711(4) 0.4623(3) -0.1187(3)
O7 O -0.3873(3) 0.3773(3) 0.2929(3)
C1 C 0.0442(4) 0.1742(3) 0.1955(3)
C2 C -0.0424(4) 0.2451(3) 0.2808(3)
C3 C -0.1760(4) 0.2810(3) 0.2536(3)
C4 C -0.2576(4) 0.3488(3) 0.3314(3)
C5 C -0.2003(5) 0.3760(4) 0.4394(3)
C6 C -0.0674(5) 0.3412(4) 0.4673(3)
C7 C 0.0148(4) 0.2774(3) 0.3907(3)
H1 H 0.1058 0.2563 0.4114
C8 C 0.5684(4) 0.0572(3) 0.2857(3)
C9 C 0.4681(4) 0.1267(3) 0.3438(3)
H2 H 0.3903 0.1480 0.3076
C10 C 0.4849(5) 0.1635(4) 0.4544(3)
C11 C 0.5976(5) 0.1317(4) 0.5100(3)
C12 C 0.6966(5) 0.0612(4) 0.4560(3)
C13 C 0.6785(4) 0.0247(3) 0.3426(3)
C14 C -0.0485(4) 0.1730(3) -0.0742(3)
C15 C -0.0777(4) 0.2775(3) -0.1024(3)
C16 C -0.2176(4) 0.3165(3) -0.1001(3)
C17 C -0.2419(4) 0.4124(3) -0.1278(3)
C18 C -0.1203(4) 0.4681(3) -0.1595(3)
C19 C 0.0190(4) 0.4317(3) -0.1608(3)
C20 C 0.0417(4) 0.3385(3) -0.1320(3)
H3 H 0.1376 0.3159 -0.1322
C21 C 0.5584(4) 0.0297(3) 0.1668(3)
C22 C -0.5196(6) 0.3815(6) -0.1572(5)
H4 H -0.5210 0.3139 -0.2266
H5 H -0.5968 0.4266 -0.1656
H6 H -0.5418 0.3490 -0.1056
C23 C 0.8813(7) 0.0867(6) 0.6111(4)
H7 H 0.9821 0.0680 0.6201
H8 H 0.8204 0.0638 0.6565
H9 H 0.8927 0.1743 0.6318
C24 C -0.4570(9) 0.4662(7) 0.3561(5)
H10 H -0.5364 0.4790 0.3104
H11 H -0.3810 0.5426 0.3970
H12 H -0.5029 0.4400 0.4057
O8 O -0.0304(3) 0.0916(2) 0.10430(17)
O9 O 0.6559(3) -0.0234(2) 0.11750(19)
O10 O 0.3969(3) 0.2681(2) 0.0810(2)
H13 H 0.481(3) 0.291(3) 0.126(3)
H14 H 0.360(4) 0.331(2) 0.089(4)
Tb1A Tb -0.226445(14) -0.066020(12) -0.031472(10)
Tb1A_2 Tb 0.773555(14) -0.066020(12) -0.031472(10)
O4A O 0.1640(3) -0.0895(2) 0.0900(2)
O8A O 0.0304(3) -0.0916(2) -0.10430(17)
O9A O 0.3441(3) 0.0234(2) -0.11750(19)
loop_
_geom_bond_atom_site_label_1
_geom_bond_atom_site_label_2
_geom_bond_site_symmetry_1
_geom_bond_site_symmetry_2
Tb1 O1 1_555 1_555
F1 C19 1_555 1_555
F2 C18 1_555 1_555
F3 C16 1_555 1_555
F4 C6 1_555 1_555
F5 C5 1_555 1_555
F6 C11 1_555 1_555
F7 C10 1_555 1_555
F8 C13 1_555 1_555
F9 C3 1_555 1_555
O1 C1 1_555 1_555
O2 Tb1 1_555 1_555
O3 Tb1 1_555 1_555
O4 C14 1_555 1_555
O5 C12 1_555 1_555
O6 C17 1_555 1_555
O7 C4 1_555 1_555
C1 C2 1_555 1_555
C2 C3 1_555 1_555
C3 C4 1_555 1_555
C4 C5 1_555 1_555
C5 C6 1_555 1_555
C6 C7 1_555 1_555
C7 C2 1_555 1_555
H1 C7 1_555 1_555
C8 C9 1_555 1_555
C9 H2 1_555 1_555
C10 C9 1_555 1_555
C11 C10 1_555 1_555
C12 C11 1_555 1_555
C13 C8 1_555 1_555
C14 O3 1_555 1_555
C15 C14 1_555 1_555
C16 C15 1_555 1_555
C17 C16 1_555 1_555
C18 C17 1_555 1_555
C19 C18 1_555 1_555
C20 C15 1_555 1_555
H3 C20 1_555 1_555
C21 O2 1_555 1_555
C22 O6 1_555 1_555
H4 C22 1_555 1_555
H5 C22 1_555 1_555
H6 C22 1_555 1_555
C23 O5 1_555 1_555
H7 C23 1_555 1_555
H8 C23 1_555 1_555
H9 C23 1_555 1_555
C24 O7 1_555 1_555
H10 C24 1_555 1_555
H11 C24 1_555 1_555
H12 C24 1_555 1_555
O8 Tb1 1_555 1_555
O9 C21 1_555 1_555
O10 Tb1 1_555 1_555
H13 O10 1_555 1_555
H14 O10 1_555 1_555
Tb1A O4 1_555 1_555
Tb1A_2 O9 1_555 1_555
O4A Tb1 1_555 1_555
O8A Tb1 1_555 1_555
O9A Tb1 1_555 1_555
C1 O8 1_555 1_555
C8 C21 1_555 1_555
C12 C13 1_555 1_555
C19 C20 1_555 1_555
O8 Tb1A 1_555 1_555
Tb1A O8A 1_555 1_555

#END
