
#######################################################################
#
#                 Cambridge Crystallographic Data Centre
#                                CCDC 
#
#######################################################################
#
# If this CIF has been generated from an entry in the Cambridge 
# Structural Database, then it will include bibliographic, chemical, 
# crystal, experimental, refinement or atomic coordinate data resulting 
# from the CCDC's data processing and validation procedures.
#
#######################################################################

data_PUQGAJ
_symmetry_cell_setting           orthorhombic
_symmetry_space_group_name_H-M   'P c c n'
_symmetry_Int_Tables_number      56
_space_group_name_Hall           '-P 2ab 2ac'
loop_
_symmetry_equiv_pos_site_id
_symmetry_equiv_pos_as_xyz
1 x,y,z
2 1/2-x,1/2-y,z
3 1/2+x,-y,1/2-z
4 -x,1/2+y,1/2-z
5 -x,-y,-z
6 1/2+x,1/2+y,-z
7 1/2-x,y,1/2+z
8 x,1/2-y,1/2+z
_cell_length_a                   7.433(2)
_cell_length_b                   17.461(4)
_cell_length_c                   16.424(6)
_cell_angle_alpha                90
_cell_angle_beta                 90
_cell_angle_gamma                90
_cell_volume                     2131.63
loop_
_atom_site_label
_atom_site_type_symbol
_atom_site_fract_x
_atom_site_fract_y
_atom_site_fract_z
N1 N 0.3892(6) 0.1807(3) 0.2692(3)
N2 N -0.6017(6) 0.3150(3) 0.5837(3)
C1 C 0.4938(8) 0.2115(3) 0.3265(3)
C2 C 0.6106(8) 0.1701(3) 0.3744(4)
C3 C 0.6283(8) 0.0918(3) 0.3610(3)
C4 C 0.5133(8) 0.0585(3) 0.3049(3)
C5 C 0.4002(8) 0.1047(3) 0.2613(3)
C6 C -0.6781(8) 0.3455(3) 0.5174(3)
C7 C -0.5860(9) 0.3891(3) 0.4604(4)
C8 C -0.4076(9) 0.4049(3) 0.4740(4)
C9 C -0.3280(8) 0.3744(3) 0.5426(4)
C10 C -0.4274(8) 0.3292(4) 0.5943(3)
Co1 Co 0.2500 0.2500 0.1780(1)
S1 S 0.7866(3) 0.0327(1) 0.4083(1)
Cl1 Cl 0.4865(2) 0.3442(1) 0.1787(1)
H1 H 0.4874(8) 0.2642(3) 0.3346(3)
H2 H 0.6767(8) 0.1941(3) 0.4151(4)
H3 H 0.5129(8) 0.0057(3) 0.2970(3)
H4 H 0.3252(8) 0.0815(3) 0.2233(3)
H5 H 1.3002(8) 0.1630(3) 0.5091(3)
H6 H 1.1437(9) 0.0928(3) 0.4140(4)
H7 H -0.2076(8) 0.3845(3) 0.5538(4)
H8 H -0.3699(8) 0.3074(4) 0.6390(3)
N1A N 0.1108(6) 0.3193(3) 0.2692(3)
C1A C 0.0062(8) 0.2885(3) 0.3265(3)
C2A C -0.1106(8) 0.3299(3) 0.3744(4)
C3A C -0.1283(8) 0.4082(3) 0.3610(3)
C4A C -0.0133(8) 0.4415(3) 0.3049(3)
C5A C 0.0998(8) 0.3953(3) 0.2613(3)
H4A H 0.1748(8) 0.4185(3) 0.2233(3)
H3A H -0.0129(8) 0.4943(3) 0.2970(3)
S1A S -0.2866(3) 0.4673(1) 0.4083(1)
N2G N 0.3983(6) 0.1850(3) 0.0837(3)
Co1G Co -0.7500 0.2500 0.6780(1)
Co1F Co 1.2500 0.2500 0.6780(1)
N2A N 1.1017(6) 0.1850(3) 0.5837(3)
C6A C 1.1781(8) 0.1545(3) 0.5174(3)
C7A C 1.0860(9) 0.1109(3) 0.4604(4)
C8A C 0.9076(9) 0.0951(3) 0.4740(4)
C9A C 0.8280(8) 0.1256(3) 0.5426(4)
C10A C 0.9274(8) 0.1708(4) 0.5943(3)
H8A H 0.8699(8) 0.1926(4) 0.6390(3)
H7A H 0.7076(8) 0.1155(3) 0.5538(4)
H5A H -0.8002(8) 0.3370(3) 0.5091(3)
H6A H -0.6437(9) 0.4072(3) 0.4140(4)
H2A H -0.1767(8) 0.3059(3) 0.4151(4)
H1A H 0.0126(8) 0.2358(3) 0.3346(3)
N2F N 0.1017(6) 0.3150(3) 0.0837(3)
Cl1A Cl 0.0135(2) 0.1558(1) 0.1787(1)
loop_
_geom_bond_atom_site_label_1
_geom_bond_atom_site_label_2
_geom_bond_site_symmetry_1
_geom_bond_site_symmetry_2
N1 C1 1_555 1_555
N2 C6 1_555 1_555
C1 C2 1_555 1_555
C2 C3 1_555 1_555
C3 C4 1_555 1_555
C4 C5 1_555 1_555
C5 N1 1_555 1_555
C6 C7 1_555 1_555
C7 C8 1_555 1_555
C8 C9 1_555 1_555
C9 C10 1_555 1_555
C10 N2 1_555 1_555
Co1 N1 1_555 1_555
S1 C3 1_555 1_555
Cl1 Co1 1_555 1_555
H1 C1 1_555 1_555
H2 C2 1_555 1_555
H3 C4 1_555 1_555
H4 C5 1_555 1_555
H5 C6A 1_555 1_555
H6 C7A 1_555 1_555
H7 C9 1_555 1_555
H8 C10 1_555 1_555
N1A Co1 1_555 1_555
C1A N1A 1_555 1_555
C2A C1A 1_555 1_555
C3A C2A 1_555 1_555
C4A C3A 1_555 1_555
C5A N1A 1_555 1_555
H4A C5A 1_555 1_555
H3A C4A 1_555 1_555
S1A C8 1_555 1_555
N2G Co1 1_555 1_555
Co1G N2 1_555 1_555
Co1F N2A 1_555 1_555
N2A C6A 1_555 1_555
C6A C7A 1_555 1_555
C7A C8A 1_555 1_555
C8A S1 1_555 1_555
C9A C8A 1_555 1_555
C10A N2A 1_555 1_555
H8A C10A 1_555 1_555
H7A C9A 1_555 1_555
H5A C6 1_555 1_555
H6A C7 1_555 1_555
H2A C2A 1_555 1_555
H1A C1A 1_555 1_555
N2F Co1 1_555 1_555
Cl1A Co1 1_555 1_555
C3A S1A 1_555 1_555
C4A C5A 1_555 1_555
C9A C10A 1_555 1_555

#END
