
#######################################################################
#
#                 Cambridge Crystallographic Data Centre
#                                CCDC 
#
#######################################################################
#
# If this CIF has been generated from an entry in the Cambridge 
# Structural Database, then it will include bibliographic, chemical, 
# crystal, experimental, refinement or atomic coordinate data resulting 
# from the CCDC's data processing and validation procedures.
#
#######################################################################

data_PUQHAL
_symmetry_cell_setting           monoclinic
_symmetry_space_group_name_H-M   'P 21/c'
_symmetry_Int_Tables_number      14
_space_group_name_Hall           '-P 2ybc'
loop_
_symmetry_equiv_pos_site_id
_symmetry_equiv_pos_as_xyz
1 x,y,z
2 -x,1/2+y,1/2-z
3 -x,-y,-z
4 x,1/2-y,1/2+z
_cell_length_a                   12.4121(12)
_cell_length_b                   19.0669(18)
_cell_length_c                   13.6077(14)
_cell_angle_alpha                90
_cell_angle_beta                 112.135(2)
_cell_angle_gamma                90
_cell_volume                     2983.05
loop_
_atom_site_label
_atom_site_type_symbol
_atom_site_fract_x
_atom_site_fract_y
_atom_site_fract_z
Ni1 Ni 0.47032(5) -0.08251(3) 0.26965(5)
Ni2 Ni 0.20907(5) -0.06267(3) 0.31462(4)
Ni3 Ni 0.29433(5) 0.03562(3) 0.18083(4)
Ni4 Ni 0.03000(5) 0.05128(3) 0.20973(5)
O1 O 0.5739(3) -0.00217(16) 0.2680(3)
O2 O 0.4441(3) 0.08171(16) 0.1858(3)
O3 O 0.9588(3) 0.10497(16) 0.3128(3)
O4 O 1.1852(3) 0.0308(2) 0.5321(3)
O5 O 1.1487(3) 0.03146(16) 0.3591(2)
O6 O 0.7771(3) 0.34378(16) 0.2496(3)
O7 O 0.5881(3) 0.32378(16) 0.2096(3)
O8 O 0.2844(3) 0.12692(15) 0.2571(3)
O9 O 0.0930(3) 0.14733(15) 0.1966(3)
O10 O 0.4656(2) 0.36551(15) 0.3437(2)
O11 O 0.6524(3) 0.44213(15) 0.3755(2)
O12 O 0.6788(3) 0.4661(2) 0.5420(3)
O13 O 0.0755(3) 0.46917(16) 0.2943(3)
O14 O -0.0529(2) 0.39154(16) 0.1915(2)
O15 O 0.3643(2) -0.02372(15) 0.3188(2)
H1 H 0.4032 0.0066 0.3761
O16 O 0.1426(2) -0.00872(15) 0.1724(2)
H2 H 0.1092 -0.0325 0.1063
C1 C 0.5461(4) 0.0590(2) 0.2326(4)
C2 C 0.6441(4) 0.1091(2) 0.2474(3)
C3 C 0.7572(4) 0.0836(2) 0.2768(3)
H3 H 0.7729 0.0361 0.2894
C4 C 0.8450(4) 0.1304(2) 0.2867(3)
C5 C 0.8259(4) 0.2013(2) 0.2696(4)
H4 H 0.8868 0.2314 0.2748
C6 C 0.7139(4) 0.2271(2) 0.2443(4)
C7 C 0.6226(4) 0.1805(2) 0.2317(4)
H5 H 0.5472 0.1974 0.2128
C8 C 1.0182(5) 0.0898(4) 0.4220(4)
H6 H 0.9672 0.0638 0.4480
H7 H 1.0392 0.1333 0.4616
C9 C 1.1261(4) 0.0475(3) 0.4396(4)
C10 C 0.6900(4) 0.3043(2) 0.2326(4)
C11 C 0.1972(4) 0.1666(2) 0.2363(3)
C12 C 0.2206(4) 0.2437(2) 0.2584(3)
C13 C 0.3334(4) 0.2700(2) 0.2942(3)
H8 H 0.3959 0.2401 0.3047
C14 C 0.3517(4) 0.3410(2) 0.3140(3)
C15 C 0.2608(4) 0.3862(2) 0.2997(3)
H9 H 0.2749 0.4337 0.3145
C16 C 0.1475(4) 0.3606(2) 0.2630(3)
C17 C 0.1276(4) 0.2894(2) 0.2426(3)
H10 H 0.0520 0.2721 0.2183
C18 C 0.5135(4) 0.3996(3) 0.4441(4)
H11 H 0.5313 0.3651 0.5003
H12 H 0.4568 0.4320 0.4516
C19 C 0.6229(4) 0.4392(3) 0.4547(4)
C20 C 0.0492(4) 0.4108(2) 0.2475(4)
O17 O 0.6134(3) -0.11335(18) 0.4026(3)
H13 H 0.6747 -0.0842 0.4187
H14 H 0.6451 -0.1576 0.4146
O18 O 0.2799(3) -0.09348(18) 0.4732(3)
H15 H 0.3526 -0.1023 0.5064
H16 H 0.2625 -0.0606 0.5089
O19 O 0.2121(3) 0.08528(18) 0.0321(3)
H17 H 0.2159 0.0602 -0.0231
H18 H 0.1412 0.1065 0.0079
O20 O -0.0926(3) 0.0703(2) 0.0643(3)
H19 H -0.1679 0.0689 0.0503
H20 H -0.0815 0.1034 0.0301
Ni1A Ni 0.52968(5) 0.41749(3) 0.23035(5)
Ni2A Ni 0.79093(5) 0.43733(3) 0.18538(4)
Ni2_2 Ni 1.20907(5) -0.06267(3) 0.31462(4)
Ni2A_2 Ni -0.20907(5) 0.43733(3) 0.18538(4)
Ni3A Ni 0.70567(5) 0.53562(3) 0.31917(4)
Ni4_2 Ni 1.03000(5) 0.05128(3) 0.20973(5)
Ni4A Ni -0.03000(5) 0.55128(3) 0.29027(5)
O3_2 O -0.0412(3) 0.10497(16) 0.3128(3)
O5_2 O 0.1487(3) 0.03146(16) 0.3591(2)
O6A O 0.2229(3) -0.15622(16) 0.2504(3)
O7A O 0.4119(3) -0.17622(16) 0.2904(3)
O10A O 0.5344(2) -0.13449(15) 0.1563(2)
O11A O 0.3476(3) -0.05787(15) 0.1245(2)
O13A O -0.0755(3) -0.03083(16) 0.2057(3)
O14A O 0.0529(2) -0.10846(16) 0.3085(2)
O21 O 0.4832(3) 0.1031(2) 0.4413(3)
H21 H 0.4325 0.1197 0.3755
H22 H 0.4516 0.1194 0.4887
O22 O 0.9721(5) 0.3318(3) 0.4498(4)
H23 H 0.9235 0.3419 0.3817
H24 H 0.9333 0.2959 0.4719
O23 O -0.1294(5) 0.2806(4) 0.0294(4)
H25 H -0.1102 0.3016 0.0950
H26 H -0.2025 0.3073 -0.0132
O24 O 0.6838(7) -0.2577(3) 0.4546(5)
H27 H 0.6884 -0.3061 0.4811
H28 H 0.7290 -0.2588 0.4067
loop_
_geom_bond_atom_site_label_1
_geom_bond_atom_site_label_2
_geom_bond_site_symmetry_1
_geom_bond_site_symmetry_2
Ni1 O1 1_555 1_555
Ni2 O15 1_555 1_555
Ni3 O2 1_555 1_555
Ni4 O9 1_555 1_555
O1 C1 1_555 1_555
O2 C1 1_555 1_555
O3 C4 1_555 1_555
O4 C9 1_555 1_555
O5 C9 1_555 1_555
O6 C10 1_555 1_555
O7 C10 1_555 1_555
O8 Ni3 1_555 1_555
O9 C11 1_555 1_555
O10 C14 1_555 1_555
O11 C19 1_555 1_555
O12 C19 1_555 1_555
O13 C20 1_555 1_555
O14 C20 1_555 1_555
O15 Ni1 1_555 1_555
H1 O15 1_555 1_555
O16 Ni2 1_555 1_555
H2 O16 1_555 1_555
C1 C2 1_555 1_555
C2 C3 1_555 1_555
C3 H3 1_555 1_555
C4 C3 1_555 1_555
C5 C4 1_555 1_555
H4 C5 1_555 1_555
C6 C5 1_555 1_555
C7 C2 1_555 1_555
H5 C7 1_555 1_555
C8 O3 1_555 1_555
H6 C8 1_555 1_555
H7 C8 1_555 1_555
C9 C8 1_555 1_555
C10 C6 1_555 1_555
C11 O8 1_555 1_555
C12 C11 1_555 1_555
C13 C12 1_555 1_555
H8 C13 1_555 1_555
C14 C13 1_555 1_555
C15 C14 1_555 1_555
H9 C15 1_555 1_555
C16 C15 1_555 1_555
C17 C12 1_555 1_555
H10 C17 1_555 1_555
C18 O10 1_555 1_555
H11 C18 1_555 1_555
H12 C18 1_555 1_555
C19 C18 1_555 1_555
C20 C16 1_555 1_555
O17 Ni1 1_555 1_555
H13 O17 1_555 1_555
H14 O17 1_555 1_555
O18 Ni2 1_555 1_555
H15 O18 1_555 1_555
H16 O18 1_555 1_555
O19 Ni3 1_555 1_555
H17 O19 1_555 1_555
H18 O19 1_555 1_555
O20 Ni4 1_555 1_555
H19 O20 1_555 1_555
H20 O20 1_555 1_555
O21 H21 1_555 1_555
H22 O21 1_555 1_555
O22 H23 1_555 1_555
H24 O22 1_555 1_555
O23 H25 1_555 1_555
H26 O23 1_555 1_555
O24 H27 1_555 1_555
H28 O24 1_555 1_555
Ni1A O7 1_555 1_555
Ni2A O6 1_555 1_555
Ni2_2 O5 1_555 1_555
Ni2A_2 O14 1_555 1_555
Ni3A O11 1_555 1_555
Ni4_2 O3 1_555 1_555
Ni4A O13 1_555 1_555
O3_2 Ni4 1_555 1_555
O5_2 Ni2 1_555 1_555
O6A Ni2 1_555 1_555
O7A Ni1 1_555 1_555
O10A Ni1 1_555 1_555
O11A Ni1 1_555 1_555
O13A Ni4 1_555 1_555
O14A Ni2 1_555 1_555
Ni3 O15 1_555 1_555
Ni3 O16 1_555 1_555
Ni3 O11A 1_555 1_555
Ni4 O16 1_555 1_555
Ni4 O5_2 1_555 1_555
O5 Ni4_2 1_555 1_555
O10 Ni1A 1_555 1_555
O11 Ni1A 1_555 1_555
C6 C7 1_555 1_555
C16 C17 1_555 1_555

#END
