
#######################################################################
#
#                 Cambridge Crystallographic Data Centre
#                                CCDC 
#
#######################################################################
#
# If this CIF has been generated from an entry in the Cambridge 
# Structural Database, then it will include bibliographic, chemical, 
# crystal, experimental, refinement or atomic coordinate data resulting 
# from the CCDC's data processing and validation procedures.
#
#######################################################################

data_PUQJUH
_symmetry_cell_setting           monoclinic
_symmetry_space_group_name_H-M   'P 21/c'
_symmetry_Int_Tables_number      14
_space_group_name_Hall           '-P 2ybc'
loop_
_symmetry_equiv_pos_site_id
_symmetry_equiv_pos_as_xyz
1 x,y,z
2 -x,1/2+y,1/2-z
3 -x,-y,-z
4 x,1/2-y,1/2+z
_cell_length_a                   12.5538(8)
_cell_length_b                   19.1066(6)
_cell_length_c                   16.7831(11)
_cell_angle_alpha                90
_cell_angle_beta                 95.883(3)
_cell_angle_gamma                90
_cell_volume                     4004.4
loop_
_atom_site_label
_atom_site_type_symbol
_atom_site_fract_x
_atom_site_fract_y
_atom_site_fract_z
U1 U 0.31450(3) 0.827762(16) 0.30594(2)
U2 U 0.44902(3) 1.048200(17) 0.09168(2)
U3 U 0.0000 1.0000 0.0000
O1 O 0.2286(5) 0.7560(3) 0.2817(4)
O2 O 0.3864(5) 0.9035(3) 0.3349(4)
O3 O 0.3273(5) 1.0688(3) 0.0343(4)
O4 O 0.5687(5) 1.0310(3) 0.1529(4)
O5 O -0.0612(6) 0.9179(3) 0.0040(4)
O6 O 0.3154(5) 0.8417(3) 0.1618(4)
O7 O 0.3795(5) 0.9487(3) 0.1580(4)
O8 O 0.1679(5) 0.9434(3) 0.0548(4)
O9 O 0.1350(6) 0.9468(4) -0.0768(5)
O10 O 0.4015(5) 0.7338(3) -0.0816(4)
O11 O 0.5020(6) 0.8289(3) -0.0950(4)
O12 O 0.4504(5) 0.9394(3) 0.0195(4)
O13 O 0.4967(5) 0.8038(3) 0.2698(4)
O14 O 0.4227(5) 0.7075(4) 0.2275(4)
O15 O 0.5843(6) 0.7302(3) 0.1998(5)
O16 O 0.1551(5) 0.9010(3) 0.2685(4)
O17 O 0.3712(6) 1.0934(3) 0.2007(4)
H1 H 0.4014 1.0872 0.2460
H2 H 0.3089 1.1168 0.2001
O18 O -0.0428(6) 1.0010(3) -0.1471(4)
H3 H -0.0738 1.0312 -0.1747
H4 H 0.0156 1.0027 -0.1744
O19 O 0.2088(5) 0.8419(3) 0.4152(4)
O20 O -0.0347(5) 0.8649(3) 0.6996(4)
O21 O -0.0183(5) 0.8186(3) 0.2942(4)
O22 O -0.2596(5) 0.8460(3) 0.5887(4)
O23 O -0.1054(5) 0.9694(3) 0.2405(4)
O24 O -0.3456(5) 0.9949(3) 0.5284(4)
N1 N 0.5026(7) 0.7446(4) 0.2309(5)
N2 N 0.2398(6) 0.8387(3) 0.5530(4)
N3 N 0.1132(6) 0.7695(3) 0.4931(4)
N4 N 0.0126(6) 0.7807(4) 0.6107(4)
N5 N 0.1397(6) 0.8514(4) 0.6673(4)
N6 N -0.0550(5) 0.7630(3) 0.4093(4)
N7 N -0.1892(6) 0.8114(4) 0.3324(5)
N8 N -0.2846(6) 0.8249(4) 0.4529(5)
N9 N -0.1574(6) 0.7681(4) 0.5270(4)
N10 N -0.2572(6) 0.9260(3) 0.2912(5)
N11 N -0.2306(6) 1.0410(3) 0.2909(4)
N12 N -0.3232(6) 1.0501(3) 0.4100(5)
N13 N -0.3587(6) 0.9367(3) 0.4056(4)
C1 C 0.3844(7) 0.8807(5) 0.0387(6)
C2 C 0.3569(7) 0.8915(5) 0.1262(6)
C3 C 0.2844(8) 0.8773(5) -0.0222(6)
H5 H 0.3076 0.8844 -0.0749
H6 H 0.2565 0.8300 -0.0210
C4 C 0.1911(8) 0.9273(5) -0.0141(6)
C5 C 0.4430(8) 0.8101(5) 0.0323(6)
H7 H 0.5144 0.8136 0.0602
H8 H 0.4047 0.7739 0.0581
C6 C 0.4510(8) 0.7902(5) -0.0537(6)
C7 C 0.1881(7) 0.8191(4) 0.4801(5)
C8 C 0.1079(7) 0.7561(4) 0.5782(5)
H9 H 0.1221 0.7068 0.5915
C9 C 0.1983(7) 0.8050(4) 0.6192(5)
H10 H 0.2535 0.7785 0.6519
C10 C 0.0336(8) 0.8352(4) 0.6626(5)
C11 C 0.0495(7) 0.7333(4) 0.4284(5)
H11 H 0.0876 0.7345 0.3810
H12 H 0.0419 0.6847 0.4434
C12 C -0.0907(7) 0.7450(4) 0.5976(5)
H13 H -0.0782 0.6951 0.5932
H14 H -0.1293 0.7524 0.6441
C13 C -0.0811(7) 0.8009(4) 0.3404(6)
C14 C -0.2423(7) 0.7776(4) 0.3957(5)
H15 H -0.2966 0.7441 0.3737
C15 C -0.1492(7) 0.7406(4) 0.4466(6)
H16 H -0.1574 0.6896 0.4448
C16 C -0.2365(7) 0.8167(4) 0.5297(5)
C17 C -0.2405(7) 0.8538(4) 0.2696(5)
H17 H -0.3094 0.8332 0.2516
H18 H -0.1975 0.8529 0.2247
C18 C -0.3803(6) 0.8676(4) 0.4360(6)
H19 H -0.4297 0.8435 0.3970
H20 H -0.4150 0.8726 0.4847
C19 C -0.1888(7) 0.9784(4) 0.2724(5)
C20 C -0.3306(7) 1.0340(4) 0.3249(5)
H21 H -0.3884 1.0600 0.2944
C21 C -0.3511(7) 0.9536(4) 0.3227(5)
H22 H -0.4168 0.9416 0.2888
C22 C -0.3436(7) 0.9936(4) 0.4556(6)
C23 C 0.1911(8) 0.8920(4) 0.7330(6)
H23 H 0.1403 0.8996 0.7720
H24 H 0.2504 0.8652 0.7589
C24 C 0.3391(7) 0.8793(4) 0.5596(6)
H25 H 0.3928 0.8553 0.5954
H26 H 0.3654 0.8823 0.5074
U1B U -0.31450(3) 1.172238(16) -0.30594(2)
U1C U 0.31450(3) 0.672238(16) -0.19406(2)
U1B_2 U -0.31450(3) 1.172238(16) 0.69406(2)
U1A U -0.31450(3) 1.327762(16) 0.19406(2)
U2B U -0.44902(3) 0.951800(17) -0.09168(2)
U2B_2 U 0.55098(3) 0.951800(17) -0.09168(2)
U2_2 U -0.55098(3) 1.048200(17) 0.09168(2)
O1B O -0.2286(5) 1.2440(3) -0.2817(4)
O2B O -0.3864(5) 1.0965(3) -0.3349(4)
O3B O -0.3273(5) 0.9312(3) -0.0343(4)
O4B O -0.5687(5) 0.9690(3) -0.1529(4)
O5B O 0.0612(6) 1.0821(3) -0.0040(4)
O6B O -0.3154(5) 1.1583(3) -0.1618(4)
O7B O -0.3795(5) 1.0513(3) -0.1580(4)
O8B O -0.1679(5) 1.0566(3) -0.0548(4)
O9B O -0.1350(6) 1.0532(4) 0.0768(5)
O10B O -0.4015(5) 1.2662(3) 0.0816(4)
O10C O 0.4015(5) 0.7662(3) 0.4184(4)
O10A O -0.4015(5) 1.2338(3) -0.4184(4)
O11B O -0.5020(6) 1.1711(3) 0.0950(4)
O11B_2 O 0.4980(6) 1.1711(3) 0.0950(4)
O11_2 O -0.4980(6) 0.8289(3) -0.0950(4)
O12B O -0.4504(5) 1.0606(3) -0.0195(4)
O12B_2 O 0.5496(5) 1.0606(3) -0.0195(4)
O12_2 O -0.5496(5) 0.9394(3) 0.0195(4)
O13B O -0.4967(5) 1.1962(3) -0.2698(4)
O14B O -0.4227(5) 1.2925(4) -0.2275(4)
O15B O -0.5843(6) 1.2698(3) -0.1998(5)
O16B O -0.1551(5) 1.0990(3) -0.2685(4)
O17B O -0.3712(6) 0.9066(3) -0.2007(4)
H1B H -0.4014 0.9128 -0.2460
H2B H -0.3089 0.8832 -0.2001
O18B O 0.0428(6) 0.9990(3) 0.1471(4)
H3B H 0.0738 0.9688 0.1747
H4B H -0.0156 0.9973 0.1744
O19B O -0.2088(5) 1.1581(3) 0.5848(4)
O19B_2 O -0.2088(5) 1.1581(3) -0.4152(4)
O20B O 0.0347(5) 1.1351(3) 0.3004(4)
O21B O 0.0183(5) 1.1814(3) 0.7058(4)
O22B O 0.2596(5) 1.1540(3) 0.4113(4)
O23B O 0.1054(5) 1.0306(3) 0.7595(4)
O24B O 0.3456(5) 1.0051(3) 0.4716(4)
N1B N -0.5026(7) 1.2554(4) -0.2309(5)
N2B N -0.2398(6) 1.1613(3) 0.4470(4)
N3B N -0.1132(6) 1.2305(3) 0.5069(4)
N4B N -0.0126(6) 1.2193(4) 0.3893(4)
N5B N -0.1397(6) 1.1486(4) 0.3327(4)
N6B N 0.0550(5) 1.2370(3) 0.5907(4)
N7B N 0.1892(6) 1.1886(4) 0.6676(5)
N8B N 0.2846(6) 1.1751(4) 0.5471(5)
N9B N 0.1574(6) 1.2319(4) 0.4730(4)
N10B N 0.2572(6) 1.0740(3) 0.7088(5)
N11B N 0.2306(6) 0.9590(3) 0.7091(4)
N12B N 0.3232(6) 0.9499(3) 0.5900(5)
N13B N 0.3587(6) 1.0633(3) 0.5944(4)
C1B C -0.3844(7) 1.1193(5) -0.0387(6)
C2B C -0.3569(7) 1.1085(5) -0.1262(6)
C3B C -0.2844(8) 1.1227(5) 0.0222(6)
H5B H -0.3076 1.1156 0.0749
H6B H -0.2565 1.1700 0.0210
C4B C -0.1911(8) 1.0727(5) 0.0141(6)
C5B C -0.4430(8) 1.1899(5) -0.0323(6)
H7B H -0.5144 1.1864 -0.0602
H8B H -0.4047 1.2261 -0.0581
C6B C -0.4510(8) 1.2098(5) 0.0537(6)
C7B C -0.1881(7) 1.1809(4) 0.5199(5)
C8B C -0.1079(7) 1.2439(4) 0.4218(5)
H9B H -0.1221 1.2932 0.4085
C9B C -0.1983(7) 1.1950(4) 0.3808(5)
H10B H -0.2535 1.2215 0.3481
C10B C -0.0336(8) 1.1648(4) 0.3374(5)
C11B C -0.0495(7) 1.2667(4) 0.5716(5)
H11B H -0.0876 1.2655 0.6190
H12B H -0.0419 1.3153 0.5566
C12B C 0.0907(7) 1.2550(4) 0.4024(5)
H13B H 0.0782 1.3049 0.4068
H14B H 0.1293 1.2476 0.3559
C13B C 0.0811(7) 1.1991(4) 0.6596(6)
C14B C 0.2423(7) 1.2224(4) 0.6043(5)
H15B H 0.2966 1.2559 0.6263
C15B C 0.1492(7) 1.2594(4) 0.5534(6)
H16B H 0.1574 1.3104 0.5552
C16B C 0.2365(7) 1.1833(4) 0.4703(5)
C17B C 0.2405(7) 1.1462(4) 0.7304(5)
H17B H 0.3094 1.1668 0.7484
H18B H 0.1975 1.1471 0.7753
C18B C 0.3803(6) 1.1324(4) 0.5640(6)
H19B H 0.4297 1.1565 0.6030
H20B H 0.4150 1.1274 0.5153
C19B C 0.1888(7) 1.0216(4) 0.7276(5)
C20B C 0.3306(7) 0.9660(4) 0.6751(5)
H21B H 0.3884 0.9400 0.7056
C21B C 0.3511(7) 1.0464(4) 0.6773(5)
H22B H 0.4168 1.0584 0.7112
C22B C 0.3436(7) 1.0064(4) 0.5444(6)
C23B C -0.1911(8) 1.1080(4) 0.2670(6)
H23B H -0.1403 1.1004 0.2280
H24B H -0.2504 1.1348 0.2411
C24B C -0.3391(7) 1.1207(4) 0.4404(6)
H25B H -0.3928 1.1447 0.4046
H26B H -0.3654 1.1177 0.4926
O25 O 0.1504(6) 1.0106(3) 0.3648(5)
H27 H 0.1310 1.0398 0.3301
H28 H 0.2004 1.0187 0.3930
O26 O 0.4334(5) 1.0810(3) 0.3532(4)
H29 H 0.3869 1.1157 0.3758
H30 H 0.4642 1.0558 0.3900
O27 O 0.1675(6) 1.1286(4) 0.1838(4)
H31 H 0.1523 1.0923 0.1588
H32 H 0.1095 1.1498 0.2049
O28 O -0.007(2) 0.9382(12) 0.4667(15)
loop_
_geom_bond_atom_site_label_1
_geom_bond_atom_site_label_2
_geom_bond_site_symmetry_1
_geom_bond_site_symmetry_2
U1 O1 1_555 1_555
U2 O3 1_555 1_555
U3 O5 1_555 1_555
O2 U1 1_555 1_555
O4 U2 1_555 1_555
O6 U1 1_555 1_555
O7 U2 1_555 1_555
O8 U3 1_555 1_555
O9 U3 1_555 1_555
O10 C6 1_555 1_555
O11 C6 1_555 1_555
O12 U2 1_555 1_555
O13 U1 1_555 1_555
O14 N1 1_555 1_555
O15 N1 1_555 1_555
O16 U1 1_555 1_555
O17 U2 1_555 1_555
H1 O17 1_555 1_555
H2 O17 1_555 1_555
O18 U3 1_555 1_555
H3 O18 1_555 1_555
H4 O18 1_555 1_555
O19 U1 1_555 1_555
O20 C10 1_555 1_555
O21 C13 1_555 1_555
O22 C16 1_555 1_555
O23 C19 1_555 1_555
O24 C22 1_555 1_555
N1 O13 1_555 1_555
N2 C7 1_555 1_555
N3 C7 1_555 1_555
N4 C8 1_555 1_555
N5 C9 1_555 1_555
N6 C11 1_555 1_555
N7 C13 1_555 1_555
N8 C14 1_555 1_555
N9 C12 1_555 1_555
N10 C17 1_555 1_555
N11 C19 1_555 1_555
N12 C20 1_555 1_555
N13 C18 1_555 1_555
C1 O12 1_555 1_555
C2 O6 1_555 1_555
C3 C1 1_555 1_555
H5 C3 1_555 1_555
H6 C3 1_555 1_555
C4 O8 1_555 1_555
C5 C1 1_555 1_555
H7 C5 1_555 1_555
H8 C5 1_555 1_555
C6 C5 1_555 1_555
C7 O19 1_555 1_555
C8 N3 1_555 1_555
H9 C8 1_555 1_555
C9 N2 1_555 1_555
H10 C9 1_555 1_555
C10 N4 1_555 1_555
C11 N3 1_555 1_555
H11 C11 1_555 1_555
H12 C11 1_555 1_555
C12 N4 1_555 1_555
H13 C12 1_555 1_555
H14 C12 1_555 1_555
C13 N6 1_555 1_555
C14 N7 1_555 1_555
H15 C14 1_555 1_555
C15 N6 1_555 1_555
H16 C15 1_555 1_555
C16 N8 1_555 1_555
C17 N7 1_555 1_555
H17 C17 1_555 1_555
H18 C17 1_555 1_555
C18 N8 1_555 1_555
H19 C18 1_555 1_555
H20 C18 1_555 1_555
C19 N10 1_555 1_555
C20 N11 1_555 1_555
H21 C20 1_555 1_555
C21 N10 1_555 1_555
H22 C21 1_555 1_555
C22 N12 1_555 1_555
C23 N5 1_555 1_555
H23 C23 1_555 1_555
H24 C23 1_555 1_555
C24 N2 1_555 1_555
H25 C24 1_555 1_555
H26 C24 1_555 1_555
O25 H27 1_555 1_555
H28 O25 1_555 1_555
O26 H29 1_555 1_555
H30 O26 1_555 1_555
O27 H31 1_555 1_555
H32 O27 1_555 1_555
U1B O1B 1_555 1_555
U1C O10 1_555 1_555
U1B_2 O19B 1_555 1_555
U1A O10B 1_555 1_555
U2B O3B 1_555 1_555
U2B_2 O11 1_555 1_555
U2_2 O11B 1_555 1_555
O2B U1B 1_555 1_555
O4B U2B 1_555 1_555
O5B U3 1_555 1_555
O6B U1B 1_555 1_555
O7B U2B 1_555 1_555
O8B U3 1_555 1_555
O9B U3 1_555 1_555
O10B C6B 1_555 1_555
O10C U1 1_555 1_555
O10A U1B 1_555 1_555
O11B C6B 1_555 1_555
O11B_2 U2 1_555 1_555
O11_2 U2B 1_555 1_555
O12B U2B 1_555 1_555
O12B_2 U2 1_555 1_555
O12_2 U2B 1_555 1_555
O13B U1B 1_555 1_555
O14B N1B 1_555 1_555
O15B N1B 1_555 1_555
O16B U1B 1_555 1_555
O17B U2B 1_555 1_555
H1B O17B 1_555 1_555
H2B O17B 1_555 1_555
O18B U3 1_555 1_555
H3B O18B 1_555 1_555
H4B O18B 1_555 1_555
O19B C7B 1_555 1_555
O19B_2 U1B 1_555 1_555
O20B C10B 1_555 1_555
O21B C13B 1_555 1_555
O22B C16B 1_555 1_555
O23B C19B 1_555 1_555
O24B C22B 1_555 1_555
N1B O13B 1_555 1_555
N2B C7B 1_555 1_555
N3B C7B 1_555 1_555
N4B C8B 1_555 1_555
N5B C9B 1_555 1_555
N6B C11B 1_555 1_555
N7B C13B 1_555 1_555
N8B C14B 1_555 1_555
N9B C12B 1_555 1_555
N10B C17B 1_555 1_555
N11B C23 1_555 1_555
N12B C24 1_555 1_555
N13B C18B 1_555 1_555
C1B O12B 1_555 1_555
C2B O6B 1_555 1_555
C3B C1B 1_555 1_555
H5B C3B 1_555 1_555
H6B C3B 1_555 1_555
C4B O8B 1_555 1_555
C5B C1B 1_555 1_555
H7B C5B 1_555 1_555
H8B C5B 1_555 1_555
C6B C5B 1_555 1_555
C8B N3B 1_555 1_555
H9B C8B 1_555 1_555
C9B N2B 1_555 1_555
H10B C9B 1_555 1_555
C10B N4B 1_555 1_555
C11B N3B 1_555 1_555
H11B C11B 1_555 1_555
H12B C11B 1_555 1_555
C12B N4B 1_555 1_555
H13B C12B 1_555 1_555
H14B C12B 1_555 1_555
C13B N6B 1_555 1_555
C14B N7B 1_555 1_555
H15B C14B 1_555 1_555
C15B N6B 1_555 1_555
H16B C15B 1_555 1_555
C16B N8B 1_555 1_555
C17B N7B 1_555 1_555
H17B C17B 1_555 1_555
H18B C17B 1_555 1_555
C18B N8B 1_555 1_555
H19B C18B 1_555 1_555
H20B C18B 1_555 1_555
C19B N10B 1_555 1_555
C20B N11B 1_555 1_555
H21B C20B 1_555 1_555
C21B N10B 1_555 1_555
H22B C21B 1_555 1_555
C22B N12B 1_555 1_555
C23B N11 1_555 1_555
H23B C23B 1_555 1_555
H24B C23B 1_555 1_555
C24B N12 1_555 1_555
H25B C24B 1_555 1_555
H26B C24B 1_555 1_555
O7 C2 1_555 1_555
O9 C4 1_555 1_555
O12 U2B_2 1_555 1_555
N5 C10 1_555 1_555
N9 C15 1_555 1_555
N9 C16 1_555 1_555
N13 C21 1_555 1_555
N13 C22 1_555 1_555
C1 C2 1_555 1_555
C3 C4 1_555 1_555
C8 C9 1_555 1_555
C14 C15 1_555 1_555
C20 C21 1_555 1_555
U2B_2 O12B_2 1_555 1_555
U2_2 O12B 1_555 1_555
U2_2 O12_2 1_555 1_555
O7B C2B 1_555 1_555
O9B C4B 1_555 1_555
N2B C24B 1_555 1_555
N5B C10B 1_555 1_555
N5B C23B 1_555 1_555
N9B C15B 1_555 1_555
N9B C16B 1_555 1_555
N11B C19B 1_555 1_555
N12B C20B 1_555 1_555
N13B C21B 1_555 1_555
N13B C22B 1_555 1_555
C1B C2B 1_555 1_555
C3B C4B 1_555 1_555
C8B C9B 1_555 1_555
C14B C15B 1_555 1_555
C20B C21B 1_555 1_555

#END
