
#######################################################################
#
#                 Cambridge Crystallographic Data Centre
#                                CCDC 
#
#######################################################################
#
# If this CIF has been generated from an entry in the Cambridge 
# Structural Database, then it will include bibliographic, chemical, 
# crystal, experimental, refinement or atomic coordinate data resulting 
# from the CCDC's data processing and validation procedures.
#
#######################################################################

data_PUQKAO
_symmetry_cell_setting           monoclinic
_symmetry_space_group_name_H-M   'P 21/c'
_symmetry_Int_Tables_number      14
_space_group_name_Hall           '-P 2ybc'
loop_
_symmetry_equiv_pos_site_id
_symmetry_equiv_pos_as_xyz
1 x,y,z
2 -x,1/2+y,1/2-z
3 -x,-y,-z
4 x,1/2-y,1/2+z
_cell_length_a                   19.6188(18)
_cell_length_b                   14.3436(12)
_cell_length_c                   22.743(2)
_cell_angle_alpha                90
_cell_angle_beta                 113.048(5)
_cell_angle_gamma                90
_cell_volume                     5889.11
loop_
_atom_site_label
_atom_site_type_symbol
_atom_site_fract_x
_atom_site_fract_y
_atom_site_fract_z
Cd1 Cd 0.18235(5) 0.49177(6) 0.22284(4)
O1 O 0.1080(4) -0.0273(6) -0.0828(4)
O2 O 0.5319(5) -0.2460(6) 0.1055(4)
O3 O 0.3400(5) 0.1051(5) 0.3190(5)
O4 O 0.2372(5) 0.3817(5) 0.3102(4)
O5 O 0.1180(5) 0.4109(7) 0.2783(5)
O6 O 0.0652(7) 0.5957(12) 0.1986(6)
O7 O 0.1219(6) 0.5918(6) 0.1344(5)
N1 N 0.0824(5) 0.0785(6) 0.0033(4)
H1 H 0.0857 0.1055 -0.0302
N2 N 0.4284(6) -0.2952(7) -0.0069(5)
H2 H 0.4755 -0.2899 -0.0004
N3 N 0.4718(5) 0.0263(6) 0.3473(5)
H3 H 0.4687 0.0873 0.3496
N4 N 0.1347(6) 0.3635(6) 0.1518(5)
N5 N 0.2429(5) -0.1051(7) -0.1980(4)
N6 N 0.7147(5) -0.0080(6) 0.3124(5)
C1 C 0.1779(6) -0.1250(7) 0.1054(5)
C2 C 0.1429(6) -0.0374(7) 0.0866(6)
H4 H 0.1353 0.0006 0.1178
C3 C 0.1196(6) -0.0056(7) 0.0252(6)
C4 C 0.1343(6) -0.0617(8) -0.0204(6)
C5 C 0.1690(6) -0.1479(8) -0.0018(6)
H5 H 0.1778 -0.1856 -0.0325
C6 C 0.1916(6) -0.1811(7) 0.0624(5)
C7 C 0.2297(6) -0.2766(7) 0.0768(6)
H6 H 0.2229 -0.3040 0.1141
H7 H 0.2049 -0.3183 0.0398
C8 C 0.3124(7) -0.2735(7) 0.0908(6)
C9 C 0.3318(7) -0.2860(7) 0.0359(6)
H8 H 0.2945 -0.3000 -0.0048
C10 C 0.4071(7) -0.2774(7) 0.0435(7)
C11 C 0.4598(7) -0.2550(8) 0.1022(6)
C12 C 0.4409(6) -0.2457(7) 0.1556(6)
H9 H 0.4790 -0.2323 0.1960
C13 C 0.3692(6) -0.2555(7) 0.1513(6)
C14 C 0.3539(7) -0.2523(7) 0.2132(6)
H10 H 0.3080 -0.2880 0.2056
H11 H 0.3949 -0.2848 0.2474
C15 C 0.3454(6) -0.1552(7) 0.2377(5)
C16 C 0.4102(7) -0.1099(7) 0.2791(6)
H12 H 0.4565 -0.1400 0.2892
C17 C 0.4090(6) -0.0216(7) 0.3062(6)
C18 C 0.3382(7) 0.0195(7) 0.2897(6)
C19 C 0.2748(7) -0.0230(8) 0.2496(6)
H13 H 0.2285 0.0071 0.2399
C20 C 0.2767(7) -0.1117(7) 0.2220(5)
C21 C 0.2028(6) -0.1536(7) 0.1771(6)
H14 H 0.1638 -0.1344 0.1920
H15 H 0.2066 -0.2224 0.1801
C22 C 0.0382(7) 0.1230(8) 0.0341(6)
H16 H 0.0274 0.0761 0.0612
H17 H -0.0097 0.1421 0.0005
C23 C 0.0723(6) 0.2071(7) 0.0748(5)
C24 C 0.1479(7) 0.2147(8) 0.1080(6)
H18 H 0.1802 0.1671 0.1054
C25 C 0.1763(7) 0.2945(9) 0.1460(7)
H19 H 0.2284 0.2989 0.1688
C26 C 0.0612(7) 0.3548(9) 0.1195(6)
H20 H 0.0301 0.4035 0.1227
C27 C 0.0290(7) 0.2791(8) 0.0821(6)
H21 H -0.0234 0.2759 0.0611
C28 C 0.1181(8) -0.0857(10) -0.1293(6)
H22 H 0.1706 -0.1018 -0.1154
H23 H 0.1017 -0.0527 -0.1703
H24 H 0.0889 -0.1428 -0.1344
C29 C 0.3766(8) -0.3221(8) -0.0695(6)
H25 H 0.3434 -0.3704 -0.0642
H26 H 0.4047 -0.3512 -0.0925
C30 C 0.3279(7) -0.2437(9) -0.1120(6)
C31 C 0.3515(7) -0.1508(8) -0.1042(6)
H27 H 0.3958 -0.1331 -0.0697
C32 C 0.3091(8) -0.0856(8) -0.1476(6)
H28 H 0.3265 -0.0231 -0.1426
C33 C 0.2188(7) -0.1940(8) -0.2027(6)
H29 H 0.1723 -0.2096 -0.2353
C34 C 0.2599(8) -0.2637(8) -0.1612(6)
H30 H 0.2413 -0.3257 -0.1664
C35 C 0.5833(8) -0.1977(10) 0.1579(8)
H31 H 0.5608 -0.1399 0.1647
H32 H 0.6273 -0.1829 0.1493
H33 H 0.5976 -0.2368 0.1962
C36 C 0.5411(6) -0.0172(8) 0.3860(6)
H34 H 0.5314 -0.0837 0.3917
H35 H 0.5598 0.0122 0.4288
C37 C 0.6020(7) -0.0123(7) 0.3602(6)
C38 C 0.6773(6) -0.0164(7) 0.4016(6)
H36 H 0.6912 -0.0203 0.4465
C39 C 0.7309(7) -0.0146(8) 0.3761(7)
H37 H 0.7815 -0.0181 0.4046
C40 C 0.6448(6) -0.0021(8) 0.2750(5)
H38 H 0.6326 0.0039 0.2305
C41 C 0.5877(6) -0.0040(8) 0.2950(6)
H39 H 0.5381 0.0002 0.2646
C42 C 0.2690(8) 0.1426(10) 0.3113(8)
H40 H 0.2435 0.1655 0.2675
H41 H 0.2760 0.1941 0.3414
H42 H 0.2392 0.0937 0.3198
C43 C 0.1761(9) 0.3689(8) 0.3146(6)
C44 C 0.1709(8) 0.3046(9) 0.3647(6)
H43 H 0.1475 0.2460 0.3447
H44 H 0.1412 0.3340 0.3856
H45 H 0.2207 0.2917 0.3966
C45 C 0.0709(9) 0.6221(11) 0.1489(8)
C46 C 0.0147(8) 0.6901(11) 0.1014(7)
H46 H -0.0291 0.6554 0.0737
H47 H 0.0377 0.7206 0.0752
H48 H 0.0000 0.7374 0.1253
Cd1C Cd 0.18235(5) 0.00823(6) -0.27716(4)
Cd1A Cd 0.81765(5) -0.00823(6) 0.27716(4)
N5C N 0.2429(5) 0.6051(7) 0.3020(4)
N6A N 0.2853(5) 0.4920(6) 0.1876(5)
O8 O 0.0731(6) 0.5300(8) 0.0087(5)
O9 O -0.0218(10) 0.3332(13) 0.2327(9)
O10 O -0.0379(13) 0.6443(16) 0.2363(11)
C47 C 0.6856(7) 0.5343(9) 0.4357(6)
H49 H 0.7331 0.4849 0.4455
C48 C 0.6051(7) 0.5220(8) 0.3709(6)
H50 H 0.5954 0.4641 0.3355
B1 B 0.6676(8) 0.6115(10) 0.3728(7)
H51 H 0.6997 0.6153 0.3416
B2 B 0.7064(8) 0.6463(11) 0.4553(7)
H52 H 0.7641 0.6744 0.4783
B3 B 0.6693(9) 0.5750(11) 0.4977(8)
H53 H 0.7024 0.5564 0.5488
B4 B 0.6087(9) 0.4938(10) 0.4439(7)
H54 H 0.6029 0.4208 0.4587
B5 B 0.5715(8) 0.5927(9) 0.4686(8)
H55 H 0.5400 0.5866 0.5002
B6 B 0.5332(8) 0.5568(10) 0.3876(7)
H56 H 0.4764 0.5259 0.3659
B7 B 0.5679(8) 0.6303(9) 0.3423(7)
H57 H 0.5349 0.6471 0.2908
B8 B 0.6292(9) 0.7128(10) 0.3955(8)
H58 H 0.6358 0.7847 0.3793
B9 B 0.6327(9) 0.6883(9) 0.4738(8)
H59 H 0.6418 0.7459 0.5093
B10 B 0.5478(9) 0.6779(10) 0.4048(8)
H60 H 0.5007 0.7278 0.3949
loop_
_geom_bond_atom_site_label_1
_geom_bond_atom_site_label_2
_geom_bond_site_symmetry_1
_geom_bond_site_symmetry_2
Cd1 O4 1_555 1_555
O1 C4 1_555 1_555
O2 C11 1_555 1_555
O3 C18 1_555 1_555
O4 C43 1_555 1_555
O5 Cd1 1_555 1_555
O6 Cd1 1_555 1_555
O7 Cd1 1_555 1_555
N1 H1 1_555 1_555
N2 H2 1_555 1_555
N3 H3 1_555 1_555
N4 Cd1 1_555 1_555
N5 C32 1_555 1_555
N6 C39 1_555 1_555
C1 C2 1_555 1_555
C2 H4 1_555 1_555
C3 N1 1_555 1_555
C4 C3 1_555 1_555
C5 C4 1_555 1_555
H5 C5 1_555 1_555
C6 C1 1_555 1_555
C7 C6 1_555 1_555
H6 C7 1_555 1_555
H7 C7 1_555 1_555
C8 C7 1_555 1_555
C9 C8 1_555 1_555
H8 C9 1_555 1_555
C10 N2 1_555 1_555
C11 C10 1_555 1_555
C12 C11 1_555 1_555
H9 C12 1_555 1_555
C13 C8 1_555 1_555
C14 C13 1_555 1_555
H10 C14 1_555 1_555
H11 C14 1_555 1_555
C15 C14 1_555 1_555
C16 C15 1_555 1_555
H12 C16 1_555 1_555
C17 N3 1_555 1_555
C18 C17 1_555 1_555
C19 C18 1_555 1_555
H13 C19 1_555 1_555
C20 C15 1_555 1_555
C21 C1 1_555 1_555
H14 C21 1_555 1_555
H15 C21 1_555 1_555
C22 N1 1_555 1_555
H16 C22 1_555 1_555
H17 C22 1_555 1_555
C23 C22 1_555 1_555
C24 C23 1_555 1_555
H18 C24 1_555 1_555
C25 N4 1_555 1_555
H19 C25 1_555 1_555
C26 N4 1_555 1_555
H20 C26 1_555 1_555
C27 C23 1_555 1_555
H21 C27 1_555 1_555
C28 O1 1_555 1_555
H22 C28 1_555 1_555
H23 C28 1_555 1_555
H24 C28 1_555 1_555
C29 N2 1_555 1_555
H25 C29 1_555 1_555
H26 C29 1_555 1_555
C30 C29 1_555 1_555
C31 C30 1_555 1_555
H27 C31 1_555 1_555
C32 C31 1_555 1_555
H28 C32 1_555 1_555
C33 N5 1_555 1_555
H29 C33 1_555 1_555
C34 C30 1_555 1_555
H30 C34 1_555 1_555
C35 O2 1_555 1_555
H31 C35 1_555 1_555
H32 C35 1_555 1_555
H33 C35 1_555 1_555
C36 N3 1_555 1_555
H34 C36 1_555 1_555
H35 C36 1_555 1_555
C37 C36 1_555 1_555
C38 C37 1_555 1_555
H36 C38 1_555 1_555
C39 C38 1_555 1_555
H37 C39 1_555 1_555
C40 N6 1_555 1_555
H38 C40 1_555 1_555
C41 C37 1_555 1_555
H39 C41 1_555 1_555
C42 O3 1_555 1_555
H40 C42 1_555 1_555
H41 C42 1_555 1_555
H42 C42 1_555 1_555
C43 O5 1_555 1_555
C44 C43 1_555 1_555
H43 C44 1_555 1_555
H44 C44 1_555 1_555
H45 C44 1_555 1_555
C45 O6 1_555 1_555
C46 C45 1_555 1_555
H46 C46 1_555 1_555
H47 C46 1_555 1_555
H48 C46 1_555 1_555
C47 H49 1_555 1_555
C48 C47 1_555 1_555
H50 C48 1_555 1_555
B1 C47 1_555 1_555
H51 B1 1_555 1_555
B2 C47 1_555 1_555
H52 B2 1_555 1_555
B3 C47 1_555 1_555
H53 B3 1_555 1_555
B4 C47 1_555 1_555
H54 B4 1_555 1_555
B5 B3 1_555 1_555
H55 B5 1_555 1_555
B6 C48 1_555 1_555
H56 B6 1_555 1_555
B7 C48 1_555 1_555
H57 B7 1_555 1_555
B8 B1 1_555 1_555
H58 B8 1_555 1_555
B9 B2 1_555 1_555
H59 B9 1_555 1_555
B10 B5 1_555 1_555
H60 B10 1_555 1_555
Cd1C N5 1_555 1_555
Cd1A N6 1_555 1_555
N5C Cd1 1_555 1_555
N6A Cd1 1_555 1_555
O7 C45 1_555 1_555
C2 C3 1_555 1_555
C5 C6 1_555 1_555
C9 C10 1_555 1_555
C12 C13 1_555 1_555
C16 C17 1_555 1_555
C19 C20 1_555 1_555
C20 C21 1_555 1_555
C24 C25 1_555 1_555
C26 C27 1_555 1_555
C33 C34 1_555 1_555
C40 C41 1_555 1_555
C48 B1 1_555 1_555
C48 B4 1_555 1_555
B1 B2 1_555 1_555
B1 B7 1_555 1_555
B2 B3 1_555 1_555
B2 B8 1_555 1_555
B3 B4 1_555 1_555
B3 B9 1_555 1_555
B4 B5 1_555 1_555
B4 B6 1_555 1_555
B5 B6 1_555 1_555
B5 B9 1_555 1_555
B6 B7 1_555 1_555
B6 B10 1_555 1_555
B7 B8 1_555 1_555
B7 B10 1_555 1_555
B8 B9 1_555 1_555
B8 B10 1_555 1_555
B9 B10 1_555 1_555

#END
