
#######################################################################
#
#                 Cambridge Crystallographic Data Centre
#                                CCDC 
#
#######################################################################
#
# If this CIF has been generated from an entry in the Cambridge 
# Structural Database, then it will include bibliographic, chemical, 
# crystal, experimental, refinement or atomic coordinate data resulting 
# from the CCDC's data processing and validation procedures.
#
#######################################################################

data_PUQRAV
_symmetry_cell_setting           rhombohedral
_symmetry_space_group_name_H-M   'R -3'
_symmetry_Int_Tables_number      148
_space_group_name_Hall           '-R 3'
loop_
_symmetry_equiv_pos_site_id
_symmetry_equiv_pos_as_xyz
1 x,y,z
2 -y,x-y,z
3 -x+y,-x,z
4 2/3+x,1/3+y,1/3+z
5 2/3-y,1/3+x-y,1/3+z
6 2/3-x+y,1/3-x,1/3+z
7 1/3+x,2/3+y,2/3+z
8 1/3-y,2/3+x-y,2/3+z
9 1/3-x+y,2/3-x,2/3+z
10 -x,-y,-z
11 y,-x+y,-z
12 x-y,x,-z
13 1/3-x,2/3-y,2/3-z
14 1/3+y,2/3-x+y,2/3-z
15 1/3+x-y,2/3+x,2/3-z
16 2/3-x,1/3-y,1/3-z
17 2/3+y,1/3-x+y,1/3-z
18 2/3+x-y,1/3+x,1/3-z
_cell_length_a                   14.508(4)
_cell_length_b                   14.508(4)
_cell_length_c                   21.319(6)
_cell_angle_alpha                90
_cell_angle_beta                 90
_cell_angle_gamma                120
_cell_volume                     3886.09
loop_
_atom_site_label
_atom_site_type_symbol
_atom_site_fract_x
_atom_site_fract_y
_atom_site_fract_z
Cu1 Cu 0.8333 0.6667 0.6667
Cl1 Cl 0.90876(9) 0.55526(10) 0.64243(5)
O1 O 0.6760(3) 0.5125(4) 0.69811(19)
N1 N 0.7511(2) 0.6111(2) 0.48060(13)
N2 N 0.7772(3) 0.7161(2) 0.48280(14)
N3 N 0.7884(2) 0.6585(2) 0.57791(13)
C1 C 0.7982(3) 0.7391(3) 0.54226(15)
H1 H 0.8186 0.8067 0.5587
C2 C 0.7585(3) 0.5785(3) 0.53761(15)
H2 H 0.7449 0.5098 0.5479
C3 C 0.7289(3) 0.5562(3) 0.41952(14)
H3 H 0.7926 0.5923 0.3932
H4 H 0.6718 0.5619 0.3985
C4 C 0.6969(3) 0.4414(3) 0.42481(14)
C5 C 0.7752(3) 0.4116(3) 0.42592(14)
C6 C 0.8915(3) 0.4962(3) 0.43033(18)
H5 H 0.9349 0.4626 0.4308
H6 H 0.9035 0.5369 0.4686
H7 H 0.9107 0.5434 0.3944
H8 H 0.635(5) 0.481(6) 0.669(3)
H9 H 0.647(5) 0.526(5) 0.727(2)
Cu1B Cu 0.8334 0.1667 0.6667
Cu1A Cu 0.3333 0.1666 0.6667
Cu1Q Cu 0.8333 1.1666 0.6666
Cu1P Cu 1.3334 1.1667 0.6666
Cl1O Cl 0.75791(9) 0.77807(10) 0.69090(5)
Cl1B Cl 0.64650(13) 0.09124(9) 0.64243(5)
Cl1Q Cl 1.02017(13) 0.24209(9) 0.69090(5)
Cl1A Cl 0.44474(10) 0.35350(13) 0.64243(5)
Cl1P Cl 0.22193(10) -0.02017(13) 0.69090(5)
O1O O 0.9907(3) 0.8208(4) 0.63522(19)
O1B O 0.8365(5) 0.3240(3) 0.69811(19)
O1Q O 0.8302(5) 0.0093(3) 0.63522(19)
O1A O 0.4875(4) 0.1635(5) 0.69811(19)
O1P O 0.1792(4) 0.1698(5) 0.63522(19)
N1B N 0.8600(3) 0.2489(2) 0.48060(13)
N1A N 0.3889(2) 0.1400(3) 0.48060(13)
N1O N 0.9156(2) 0.7222(2) 0.85273(13)
N1Q N 0.8067(3) 1.0844(2) 0.85273(13)
N1P N 1.2778(2) 1.1933(3) 0.85273(13)
N2B N 0.9389(4) 0.2228(3) 0.48280(14)
N2A N 0.2839(2) 0.0611(4) 0.48280(14)
N2O N 0.8895(3) 0.6172(2) 0.85053(14)
N2Q N 0.7278(4) 1.1105(3) 0.85053(14)
N2P N 1.3828(2) 1.2722(4) 0.85053(14)
N3B N 0.8701(3) 0.2116(2) 0.57791(13)
N3A N 0.3415(2) 0.1299(3) 0.57791(13)
N3O N 0.8783(2) 0.6748(2) 0.75542(13)
N3Q N 0.7966(3) 1.1217(2) 0.75542(13)
N3P N 1.3252(2) 1.2034(3) 0.75542(13)
N3Q_2 N 0.7966(3) 0.1217(2) 0.75542(13)
N3P_2 N 0.3252(2) 0.2034(3) 0.75542(13)
C1B C 0.9409(4) 0.2018(3) 0.54226(15)
C1A C 0.2609(3) 0.0591(4) 0.54226(15)
C1O C 0.8685(3) 0.5942(3) 0.79107(15)
C1Q C 0.7258(4) 1.1315(3) 0.79107(15)
C1P C 1.4058(3) 1.2742(4) 0.79107(15)
H1B H 0.9881 0.1814 0.5587
H1A H 0.1933 0.0119 0.5587
H1O H 0.8481 0.5266 0.7746
H1Q H 0.6786 1.1519 0.7746
H1P H 1.4734 1.3214 0.7746
C2B C 0.8200(4) 0.2415(3) 0.53761(15)
C2A C 0.4215(3) 0.1800(4) 0.53761(15)
C2O C 0.9082(3) 0.7548(3) 0.79572(15)
C2Q C 0.8467(4) 1.0918(3) 0.79572(15)
C2P C 1.2452(3) 1.1533(4) 0.79572(15)
H2B H 0.7649 0.2551 0.5479
H2A H 0.4902 0.2351 0.5479
H2O H 0.9218 0.8235 0.7854
H2Q H 0.9018 1.0782 0.7854
H2P H 1.1765 1.0982 0.7854
C3B C 0.8273(4) 0.2711(3) 0.41952(14)
C3A C 0.4438(3) 0.1727(4) 0.41952(14)
C3O C 0.9378(3) 0.7771(3) 0.91381(14)
C3Q C 0.8394(4) 1.0622(3) 0.91381(14)
C3P C 1.2229(3) 1.1606(4) 0.91381(14)
H3B H 0.7997 0.2074 0.3932
H3A H 0.4077 0.2003 0.3932
H3O H 0.8741 0.7410 0.9401
H3Q H 0.8670 1.1259 0.9401
H3P H 1.2590 1.1330 0.9401
H4B H 0.8901 0.3282 0.3985
H4A H 0.4381 0.1099 0.3985
H4O H 0.9949 0.7714 0.9348
H4Q H 0.7766 1.0051 0.9348
H4P H 1.2286 1.2234 0.9348
C4B C 0.7445(4) 0.3031(3) 0.42481(14)
C4A C 0.5586(3) 0.2555(4) 0.42481(14)
C4O C 0.9698(3) 0.8919(3) 0.90852(14)
C4Q C 0.9222(4) 1.0302(3) 0.90852(14)
C4P C 1.1081(3) 1.0778(4) 0.90852(14)
C5B C 0.6364(4) 0.2248(3) 0.42592(14)
C5A C 0.5884(3) 0.3636(4) 0.42592(14)
C5O C 0.8915(3) 0.9217(3) 0.90741(14)
C5Q C 1.0303(4) 1.1085(3) 0.90741(14)
C5P C 1.0783(3) 0.9697(4) 0.90741(14)
C6A C 0.5038(3) 0.3953(4) 0.43033(18)
C6B C 0.6047(4) 0.1085(3) 0.43033(18)
C6O C 0.7752(3) 0.8371(3) 0.90300(18)
C6P C 1.1629(3) 0.9380(4) 0.90300(18)
C6Q C 1.0620(4) 1.2248(3) 0.90300(18)
H5A H 0.5374 0.4723 0.4308
H5B H 0.5277 0.0651 0.4308
H5O H 0.7318 0.8707 0.9025
H5P H 1.1293 0.8610 0.9025
H5Q H 1.1390 1.2682 0.9025
H6A H 0.4631 0.3666 0.4686
H6B H 0.6334 0.0965 0.4686
H6O H 0.7632 0.7964 0.8647
H6P H 1.2036 0.9667 0.8647
H6Q H 1.0333 1.2368 0.8647
H7A H 0.4566 0.3673 0.3944
H7B H 0.6327 0.0893 0.3944
H7O H 0.7560 0.7899 0.9389
H7P H 1.2101 0.9660 0.9389
H7Q H 1.0340 1.2440 0.9389
H8O H 1.032(5) 0.852(6) 0.664(3)
H8B H 0.846(8) 0.365(5) 0.669(3)
H8Q H 0.821(8) -0.032(5) 0.664(3)
H8A H 0.519(6) 0.154(8) 0.669(3)
H8P H 0.148(6) 0.179(8) 0.664(3)
H9O H 1.020(5) 0.807(5) 0.606(2)
H9B H 0.879(7) 0.353(5) 0.727(2)
H9Q H 0.788(7) -0.020(5) 0.606(2)
H9A H 0.474(5) 0.121(7) 0.727(2)
H9P H 0.193(5) 0.212(7) 0.606(2)
O2 O 0.6667 0.3333 0.5941(2)
O3 O 0.6667 0.3333 0.7600(8)
loop_
_geom_bond_atom_site_label_1
_geom_bond_atom_site_label_2
_geom_bond_site_symmetry_1
_geom_bond_site_symmetry_2
Cu1 Cl1 1_555 1_555
O1 Cu1 1_555 1_555
N1 N2 1_555 1_555
N2 C1 1_555 1_555
N3 Cu1 1_555 1_555
C1 N3 1_555 1_555
H1 C1 1_555 1_555
C2 N1 1_555 1_555
H2 C2 1_555 1_555
C3 N1 1_555 1_555
H3 C3 1_555 1_555
H4 C3 1_555 1_555
C4 C3 1_555 1_555
C5 C4 1_555 1_555
C6 C5 1_555 1_555
H5 C6 1_555 1_555
H6 C6 1_555 1_555
H7 C6 1_555 1_555
H8 O1 1_555 1_555
H9 O1 1_555 1_555
Cu1B Cl1B 1_555 1_555
Cu1A Cl1A 1_555 1_555
Cu1Q N3Q 1_555 1_555
Cu1P N3P 1_555 1_555
Cl1O Cu1 1_555 1_555
Cl1Q Cu1B 1_555 1_555
Cl1P Cu1A 1_555 1_555
O1O Cu1 1_555 1_555
O1B Cu1B 1_555 1_555
O1Q Cu1B 1_555 1_555
O1A Cu1A 1_555 1_555
O1P Cu1A 1_555 1_555
N1B N2B 1_555 1_555
N1A N2A 1_555 1_555
N1O N2O 1_555 1_555
N1Q N2Q 1_555 1_555
N1P N2P 1_555 1_555
N2B C1B 1_555 1_555
N2A C1A 1_555 1_555
N2O C1O 1_555 1_555
N2Q C1Q 1_555 1_555
N2P C1P 1_555 1_555
N3B Cu1B 1_555 1_555
N3A Cu1A 1_555 1_555
N3O Cu1 1_555 1_555
N3Q C1Q 1_555 1_555
N3P C1P 1_555 1_555
N3Q_2 Cu1B 1_555 1_555
N3P_2 Cu1A 1_555 1_555
C1B N3B 1_555 1_555
C1A N3A 1_555 1_555
C1O N3O 1_555 1_555
C1Q H1Q 1_555 1_555
C1P H1P 1_555 1_555
H1B C1B 1_555 1_555
H1A C1A 1_555 1_555
H1O C1O 1_555 1_555
C2B N1B 1_555 1_555
C2A N1A 1_555 1_555
C2O N1O 1_555 1_555
C2Q N1Q 1_555 1_555
C2P N1P 1_555 1_555
H2B C2B 1_555 1_555
H2A C2A 1_555 1_555
H2O C2O 1_555 1_555
H2Q C2Q 1_555 1_555
H2P C2P 1_555 1_555
C3B N1B 1_555 1_555
C3A N1A 1_555 1_555
C3O N1O 1_555 1_555
C3Q N1Q 1_555 1_555
C3P N1P 1_555 1_555
H3B C3B 1_555 1_555
H3A C3A 1_555 1_555
H3O C3O 1_555 1_555
H3Q C3Q 1_555 1_555
H3P C3P 1_555 1_555
H4B C3B 1_555 1_555
H4A C3A 1_555 1_555
H4O C3O 1_555 1_555
H4Q C3Q 1_555 1_555
H4P C3P 1_555 1_555
C4B C5 1_555 1_555
C4A C3A 1_555 1_555
C4O C3O 1_555 1_555
C4Q C3Q 1_555 1_555
C4P C3P 1_555 1_555
C5B C4B 1_555 1_555
C5A C4 1_555 1_555
C5O C4O 1_555 1_555
C5Q C4Q 1_555 1_555
C5P C4O 1_555 1_555
C6A C5A 1_555 1_555
C6B C5B 1_555 1_555
C6O C5O 1_555 1_555
C6P C5P 1_555 1_555
C6Q C5Q 1_555 1_555
H5A C6A 1_555 1_555
H5B C6B 1_555 1_555
H5O C6O 1_555 1_555
H5P C6P 1_555 1_555
H5Q C6Q 1_555 1_555
H6A C6A 1_555 1_555
H6B C6B 1_555 1_555
H6O C6O 1_555 1_555
H6P C6P 1_555 1_555
H6Q C6Q 1_555 1_555
H7A C6A 1_555 1_555
H7B C6B 1_555 1_555
H7O C6O 1_555 1_555
H7P C6P 1_555 1_555
H7Q C6Q 1_555 1_555
H8O O1O 1_555 1_555
H8B O1B 1_555 1_555
H8Q O1Q 1_555 1_555
H8A O1A 1_555 1_555
H8P O1P 1_555 1_555
H9O O1O 1_555 1_555
H9B O1B 1_555 1_555
H9Q O1Q 1_555 1_555
H9A O1A 1_555 1_555
H9P O1P 1_555 1_555
N3 C2 1_555 1_555
N3B C2B 1_555 1_555
N3A C2A 1_555 1_555
N3O C2O 1_555 1_555
N3Q C2Q 1_555 1_555
N3P C2P 1_555 1_555
C3B C4B 1_555 1_555
C4A C5B 1_555 1_555
C4A C5A 1_555 1_555
C4Q C5O 1_555 1_555
C4P C5Q 1_555 1_555
C4P C5P 1_555 1_555

#END
