
#######################################################################
#
#                 Cambridge Crystallographic Data Centre
#                                CCDC 
#
#######################################################################
#
# If this CIF has been generated from an entry in the Cambridge 
# Structural Database, then it will include bibliographic, chemical, 
# crystal, experimental, refinement or atomic coordinate data resulting 
# from the CCDC's data processing and validation procedures.
#
#######################################################################

data_PUQTAX
_symmetry_cell_setting           triclinic
_symmetry_space_group_name_H-M   'P -1'
_symmetry_Int_Tables_number      2
_space_group_name_Hall           '-P 1'
loop_
_symmetry_equiv_pos_site_id
_symmetry_equiv_pos_as_xyz
1 x,y,z
2 -x,-y,-z
_cell_length_a                   13.494(3)
_cell_length_b                   13.748(2)
_cell_length_c                   16.517(3)
_cell_angle_alpha                99.222(2)
_cell_angle_beta                 98.9420(10)
_cell_angle_gamma                103.791(3)
_cell_volume                     2876.81
loop_
_atom_site_label
_atom_site_type_symbol
_atom_site_fract_x
_atom_site_fract_y
_atom_site_fract_z
Cd1 Cd -0.49600(4) 0.97438(4) 0.87841(3)
Cd2 Cd -0.00886(4) 0.46375(4) 0.87893(3)
Cd3 Cd -0.16060(4) 0.73600(4) 0.58110(3)
Cd4 Cd 0.02390(4) 0.54503(4) 0.68200(3)
Cd5 Cd -0.34161(4) 0.79632(5) 0.41392(3)
Cd6 Cd -0.42908(5) 1.07685(4) 0.68958(4)
N1 N -0.0462(4) 0.2658(4) 0.8504(3)
N2 N -0.0233(5) 0.8937(5) 0.6626(4)
O1 O -0.4830(4) 1.1295(4) 0.8188(3)
C1 C -0.1429(5) 0.9467(5) 0.7466(4)
O2 O -0.5037(4) 0.7964(4) 0.3462(3)
C2 C -0.1094(5) 0.2374(5) 0.9122(4)
C3 C -0.3405(5) 0.5509(5) 0.2598(4)
C4 C -0.5715(6) 0.6128(6) 0.3302(5)
C5 C 0.0976(6) 0.2297(6) 0.9412(4)
C6 C -0.4429(6) 0.5360(6) 0.3973(4)
O3 O -0.5256(4) 0.9307(4) 0.7331(3)
C7 C -0.3188(6) 0.6372(6) 0.8346(5)
C8 C -0.3409(5) 0.6915(5) 0.7719(4)
C9 C -0.2764(5) 0.9958(5) 0.8204(4)
N3 N -0.4650(5) 0.6034(5) 0.3397(4)
O4 O 0.1266(5) 0.7233(5) 0.7127(5)
O5 O -0.0226(4) 0.6832(4) 0.6236(4)
O6 O -0.3204(6) 0.9698(6) 0.4234(6)
C10 C -0.6361(5) 0.7523(5) 0.8863(4)
C11 C -0.2998(5) 0.5429(5) 0.1873(4)
O7 O -0.0282(4) 0.4027(4) 1.0023(3)
C12 C -0.0823(6) 0.3064(6) 0.7064(4)
C13 C 0.1010(5) 0.2205(5) 0.7951(4)
C14 C 0.2471(5) 0.1689(5) 0.7367(4)
O8 O -0.4263(5) 0.7880(6) 0.5243(4)
C15 C -0.0258(6) 0.9785(6) 0.6166(5)
O9 O -0.6434(6) 0.8367(6) 0.6229(4)
O10 O -0.1734(4) 0.4722(5) 0.2494(4)
O11 O -0.1465(8) 0.4722(7) 0.6122(9)
O12 O -0.1026(5) 0.2748(4) 1.0582(3)
C16 C -0.0359(7) 0.9083(7) 0.8890(5)
C17 C -0.3473(6) 0.5711(6) 0.1166(4)
O13 O -0.0296(4) 0.6070(4) 0.8040(3)
C18 C -0.4370(7) 0.6034(7) 0.1183(5)
O14 O -0.3136(6) 0.5221(5) 0.5066(5)
C19 C -0.3381(6) 0.5771(6) 0.4590(5)
O15 O -0.3097(6) 1.1176(6) 0.5963(5)
C20 C -0.6275(5) 0.7650(5) 0.7415(4)
O17 O -0.6219(5) 0.7664(5) 1.0330(4)
O18 O -0.2837(4) 0.6674(4) 0.4627(3)
O19 O -0.4931(6) 0.9564(5) 0.5667(4)
N4 N -0.5667(4) 0.7793(4) 0.8284(3)
O20 O 0.0774(8) 0.4822(10) 0.5650(5)
O21 O -0.2983(4) 0.7401(5) 0.6470(3)
O22 O -0.1852(4) 0.4363(5) 0.8445(4)
O23 O 0.2233(5) 0.2019(5) 0.6705(3)
C21 C -0.0009(6) 0.8921(6) 0.8151(5)
O24 O -0.5325(4) 0.8998(4) 0.9905(3)
O25 O -0.6644(4) 0.7245(5) 0.2756(4)
O26 O -0.1203(8) 0.2723(6) 0.6304(4)
O27 O -0.3239(4) 0.9869(4) 0.8800(3)
C22 C 0.0736(6) 0.8627(6) 0.6638(5)
O28 O -0.1932(5) 0.8747(4) 0.5317(3)
C23 C -0.2036(5) 0.5065(5) 0.1880(4)
O29 O -0.0298(4) 0.3973(4) 0.7372(3)
C24 C -0.2745(6) 0.6977(6) 0.7067(5)
C25 C -0.5919(5) 0.8105(5) 0.9769(4)
C26 C -0.1798(5) 0.9604(5) 0.8203(4)
O30 O -0.1309(7) 1.0362(5) 0.5197(5)
C27 C -0.4209(5) 0.7380(5) 0.7705(4)
O31 O -0.1607(4) 0.5110(4) 0.1245(3)
C28 C -0.4827(5) 0.7321(5) 0.8313(4)
O32 O -0.6698(4) 0.9684(5) 0.8420(4)
O33 O -0.3010(5) 1.0358(5) 0.7601(4)
C29 C -0.4589(6) 0.6788(6) 0.8944(5)
C30 C -0.0773(5) 0.3098(5) 0.9979(4)
C31 C -0.4288(5) 0.5871(5) 0.2634(4)
C32 C 0.2371(6) 0.1793(6) 0.8864(5)
C33 C 0.0506(5) 0.2385(5) 0.8619(4)
O34 O -0.1968(5) 0.6636(6) 0.7122(4)
C34 C -0.5806(6) 0.7176(6) 0.3154(4)
C35 C -0.1254(7) 0.9614(6) 0.5517(5)
C36 C -0.0551(5) 0.9112(5) 0.7418(4)
C37 C -0.1256(6) 0.9419(6) 0.8926(4)
C38 C -0.4768(6) 0.6122(6) 0.1908(5)
C39 C -0.5958(6) 0.8514(6) 0.6964(5)
C40 C 0.0594(6) 0.7501(6) 0.6682(5)
C41 C -0.3797(7) 0.6318(7) 0.8949(5)
O35 O 0.3152(5) 0.1200(5) 0.7456(4)
C42 C -0.1081(5) 0.2317(5) 0.7635(4)
C43 C 0.1923(5) 0.1893(5) 0.8069(4)
C44 C 0.1894(6) 0.2010(6) 0.9529(5)
Cd1A Cd -0.50400(4) 1.02562(4) 1.12159(3)
Cd2A Cd 0.00886(4) 0.53625(4) 1.12107(3)
Cd2A_2 Cd 0.00886(4) 0.53625(4) 0.12107(3)
Cd4A Cd -0.02390(4) 0.45497(4) 0.31800(3)
Cd5A Cd 0.34161(4) 0.20368(5) 0.58608(3)
Cd6A Cd -0.57092(5) 0.92315(4) 0.31042(4)
O2A O -0.4963(4) 1.2036(4) 0.6538(3)
O7A O 0.0282(4) 0.5973(4) 0.9977(3)
O10A O 0.1734(4) 0.5278(5) 0.7506(4)
O23A O -0.2233(5) 0.7981(5) 0.3295(3)
O24A O -0.4675(4) 1.1002(4) 1.0095(3)
O25A O -0.3356(4) 1.2755(5) 0.7244(4)
O31A O 0.1607(4) 0.4890(4) 0.8755(3)
O16 O -0.2824(6) 0.4293(5) 0.9703(4)
loop_
_geom_bond_atom_site_label_1
_geom_bond_atom_site_label_2
_geom_bond_site_symmetry_1
_geom_bond_site_symmetry_2
Cd1 O1 1_555 1_555
Cd2 N1 1_555 1_555
Cd3 N2 1_555 1_555
Cd4 O4 1_555 1_555
Cd5 O2 1_555 1_555
Cd6 O1 1_555 1_555
N1 C2 1_555 1_555
N2 C15 1_555 1_555
C1 C26 1_555 1_555
O2 C34 1_555 1_555
C2 C30 1_555 1_555
C3 C11 1_555 1_555
C4 N3 1_555 1_555
C5 C33 1_555 1_555
C6 N3 1_555 1_555
O3 Cd1 1_555 1_555
C7 C8 1_555 1_555
C8 C24 1_555 1_555
C9 O27 1_555 1_555
N3 C31 1_555 1_555
O4 C40 1_555 1_555
O5 Cd3 1_555 1_555
O6 Cd5 1_555 1_555
C10 N4 1_555 1_555
C11 C17 1_555 1_555
O7 Cd2 1_555 1_555
C12 O26 1_555 1_555
C13 C33 1_555 1_555
C14 O23 1_555 1_555
O8 Cd5 1_555 1_555
C15 C35 1_555 1_555
O9 C39 1_555 1_555
O10 C23 1_555 1_555
O11 Cd4 1_555 1_555
O12 C30 1_555 1_555
C16 C21 1_555 1_555
C17 C18 1_555 1_555
O13 Cd2 1_555 1_555
C18 C38 1_555 1_555
O14 C19 1_555 1_555
C19 C6 1_555 1_555
O15 Cd6 1_555 1_555
C20 N4 1_555 1_555
O17 C25 1_555 1_555
O18 Cd3 1_555 1_555
O19 Cd6 1_555 1_555
N4 Cd1 1_555 1_555
O20 Cd4 1_555 1_555
O21 Cd3 1_555 1_555
O22 Cd2 1_555 1_555
O23 Cd5A 1_555 1_555
C21 C36 1_555 1_555
O24 Cd1 1_555 1_555
O25 C34 1_555 1_555
O27 Cd1 1_555 1_555
C22 N2 1_555 1_555
O28 Cd3 1_555 1_555
C23 C11 1_555 1_555
O29 Cd2 1_555 1_555
C24 O21 1_555 1_555
C25 C10 1_555 1_555
C26 C9 1_555 1_555
O30 C35 1_555 1_555
C27 C8 1_555 1_555
O31 C23 1_555 1_555
C28 N4 1_555 1_555
O32 Cd1 1_555 1_555
O33 Cd6 1_555 1_555
C29 C28 1_555 1_555
C30 O7 1_555 1_555
C31 C3 1_555 1_555
C32 C43 1_555 1_555
C33 N1 1_555 1_555
O34 Cd3 1_555 1_555
C34 C4 1_555 1_555
C35 O28 1_555 1_555
C36 N2 1_555 1_555
C37 C16 1_555 1_555
C38 C31 1_555 1_555
C39 O3 1_555 1_555
C40 O5 1_555 1_555
C41 C7 1_555 1_555
O35 C14 1_555 1_555
C42 N1 1_555 1_555
C43 C13 1_555 1_555
C44 C5 1_555 1_555
Cd1A O24 1_555 1_555
Cd2A O7 1_555 1_555
Cd2A_2 O31 1_555 1_555
Cd4A O10 1_555 1_555
Cd6A O2 1_555 1_555
O2A Cd6 1_555 1_555
O7A Cd2 1_555 1_555
O10A Cd4 1_555 1_555
O23A Cd5 1_555 1_555
O24A Cd1 1_555 1_555
O25A Cd6 1_555 1_555
O31A Cd2 1_555 1_555
Cd4 O5 1_555 1_555
Cd4 O13 1_555 1_555
Cd4 O29 1_555 1_555
Cd5 O18 1_555 1_555
Cd5 O28 1_555 1_555
Cd6 O3 1_555 1_555
C1 C36 1_555 1_555
C9 O33 1_555 1_555
C12 O29 1_555 1_555
C12 C42 1_555 1_555
C14 C43 1_555 1_555
C19 O18 1_555 1_555
C20 C39 1_555 1_555
O24 C25 1_555 1_555
O25 Cd6A 1_555 1_555
C22 C40 1_555 1_555
C24 O34 1_555 1_555
C26 C37 1_555 1_555
C27 C28 1_555 1_555
C29 C41 1_555 1_555
C32 C44 1_555 1_555
Cd1A O24A 1_555 1_555
Cd2A O7A 1_555 1_555

#END
