
#######################################################################
#
#                 Cambridge Crystallographic Data Centre
#                                CCDC 
#
#######################################################################
#
# If this CIF has been generated from an entry in the Cambridge 
# Structural Database, then it will include bibliographic, chemical, 
# crystal, experimental, refinement or atomic coordinate data resulting 
# from the CCDC's data processing and validation procedures.
#
#######################################################################

data_PUQWAA
_symmetry_cell_setting           trigonal
_symmetry_space_group_name_H-M   'P -3 c 1'
_symmetry_Int_Tables_number      165
_space_group_name_Hall           '-P 3 2"c'
loop_
_symmetry_equiv_pos_site_id
_symmetry_equiv_pos_as_xyz
1 x,y,z
2 -y,x-y,z
3 -x+y,-x,z
4 y,x,1/2-z
5 x-y,-y,1/2-z
6 -x,-x+y,1/2-z
7 -x,-y,-z
8 y,-x+y,-z
9 x-y,x,-z
10 -y,-x,1/2+z
11 -x+y,y,1/2+z
12 x,x-y,1/2+z
_cell_length_a                   9.9085(10)
_cell_length_b                   9.9085(10)
_cell_length_c                   33.643(7)
_cell_angle_alpha                90
_cell_angle_beta                 90
_cell_angle_gamma                120
_cell_volume                     2860.49
loop_
_atom_site_label
_atom_site_type_symbol
_atom_site_fract_x
_atom_site_fract_y
_atom_site_fract_z
Zn1 Zn 1.0000 0.0000 0.0000
N1 N 0.7626(2) 0.1204(3) 0.08738(6)
C1 C 0.9536(3) 0.2410(3) 0.23136(7)
C2 C 0.7765(3) 0.1489(3) 0.16073(7)
C3 C 0.7079(3) 0.1441(3) 0.19688(7)
H1 H 0.6018 0.1099 0.1979
C4 C 0.6745(3) 0.0941(4) 0.12417(7)
H2 H 0.6004 -0.0163 0.1268
H3 H 0.6158 0.1483 0.1226
N2 N 0.8850(2) 0.0930(2) 0.03731(5)
C5 C 0.7903(3) 0.0217(3) 0.06767(7)
H4 H 0.7492 -0.0829 0.0741
C6 C 1.0201(3) 0.2443(4) 0.19492(8)
H5 H 1.1257 0.2763 0.1938
C7 C 0.9106(3) 0.2408(3) 0.04045(8)
H6 H 0.9729 0.3194 0.0227
N3 N 0.8402(3) 0.2636(3) 0.07057(7)
C8 C 0.7945(3) 0.1893(3) 0.23143(7)
H7 H 0.7455 0.1852 0.2553
C9 C 0.9345(3) 0.2017(4) 0.16028(8)
H8 H 0.9838 0.2085 0.1362
Zn1C Zn 1.0000 0.0000 0.5000
N1E N 1.2374(2) 0.3578(4) 0.41262(6)
N1A N 0.8796(3) -0.3578(4) 0.08738(6)
N1D N 0.6422(4) -0.1204(3) 0.41262(6)
N1B N 1.3578(4) 0.2374(2) 0.08738(6)
N1C N 1.1204(3) -0.2374(2) 0.41262(6)
C1E C 1.0464(3) 0.2874(4) 0.26864(7)
C1A C 0.7590(3) -0.2874(4) 0.23136(7)
C1D C 0.7126(4) -0.2410(3) 0.26864(7)
C1B C 1.2874(4) 0.0464(3) 0.23136(7)
C1C C 1.2410(3) -0.0464(3) 0.26864(7)
C2E C 1.2235(3) 0.3724(4) 0.33927(7)
C2A C 0.8511(3) -0.3724(4) 0.16073(7)
C2D C 0.6276(4) -0.1489(3) 0.33927(7)
C2B C 1.3724(4) 0.2235(3) 0.16073(7)
C2C C 1.1489(3) -0.2235(3) 0.33927(7)
C3E C 1.2921(3) 0.4362(4) 0.30312(7)
C3A C 0.8559(3) -0.4362(4) 0.19688(7)
C3D C 0.5638(4) -0.1441(3) 0.30312(7)
C3B C 1.4362(4) 0.2921(3) 0.19688(7)
C3C C 1.1441(3) -0.2921(3) 0.30312(7)
H1E H 1.3982 0.5081 0.3021
H1A H 0.8901 -0.5081 0.1979
H1D H 0.4919 -0.1099 0.3021
H1B H 1.5081 0.3982 0.1979
H1C H 1.1099 -0.3982 0.3021
C4E C 1.3255(3) 0.4196(5) 0.37583(7)
C4A C 0.9059(4) -0.4196(5) 0.12417(7)
C4D C 0.5804(5) -0.0941(4) 0.37583(7)
C4B C 1.4196(5) 0.3255(3) 0.12417(7)
C4C C 1.0941(4) -0.3255(3) 0.37583(7)
H2E H 1.3996 0.3833 0.3732
H2A H 1.0163 -0.3833 0.1268
H2D H 0.6167 0.0163 0.3732
H2B H 1.3833 0.3996 0.1268
H2C H 0.9837 -0.3996 0.3732
H3E H 1.3842 0.5325 0.3774
H3A H 0.8517 -0.5325 0.1226
H3D H 0.4675 -0.1483 0.3774
H3B H 1.5325 0.3842 0.1226
H3C H 1.1483 -0.3842 0.3774
N2E N 1.1150(2) 0.2080(3) 0.46269(5)
N2A N 0.9070(2) -0.2080(3) 0.03731(5)
N2D N 0.7920(3) -0.0930(2) 0.46269(5)
N2B N 1.2080(3) 0.1150(2) 0.03731(5)
N2C N 1.0930(2) -0.1150(2) 0.46269(5)
N2F N 1.1150(2) -0.0930(2) -0.03731(5)
N2G N 1.0930(2) 0.2080(3) -0.03731(5)
N2H N 0.7920(3) -0.1150(2) -0.03731(5)
C5E C 1.2097(3) 0.2314(4) 0.43233(7)
C5A C 0.9783(3) -0.2314(4) 0.06767(7)
C5D C 0.7686(4) -0.0217(3) 0.43233(7)
C5B C 1.2314(4) 0.2097(3) 0.06767(7)
C5C C 1.0217(3) -0.2097(3) 0.43233(7)
H4E H 1.2508 0.1679 0.4259
H4A H 1.0829 -0.1679 0.0741
H4D H 0.8321 0.0829 0.4259
H4B H 1.1679 0.2508 0.0741
H4C H 0.9171 -0.2508 0.4259
C6E C 0.9799(3) 0.2242(5) 0.30508(8)
C6A C 0.7557(4) -0.2242(5) 0.19492(8)
C6D C 0.7758(5) -0.2443(4) 0.30508(8)
C6B C 1.2242(5) -0.0201(3) 0.19492(8)
C6C C 1.2443(4) 0.0201(3) 0.30508(8)
H5E H 0.8743 0.1506 0.3062
H5A H 0.7237 -0.1506 0.1938
H5D H 0.8494 -0.2763 0.3062
H5B H 1.1506 -0.1257 0.1938
H5C H 1.2763 0.1257 0.3062
C7E C 1.0894(3) 0.3302(4) 0.45955(8)
C7A C 0.7592(3) -0.3302(4) 0.04045(8)
C7D C 0.6698(4) -0.2408(3) 0.45955(8)
C7B C 1.3302(4) 0.0894(3) 0.04045(8)
C7C C 1.2408(3) -0.0894(3) 0.45955(8)
H6E H 1.0271 0.3465 0.4773
H6A H 0.6806 -0.3465 0.0227
H6D H 0.6535 -0.3194 0.4773
H6B H 1.3465 0.0271 0.0227
H6C H 1.3194 -0.0271 0.4773
N3E N 1.1598(3) 0.4234(4) 0.42943(7)
N3A N 0.7364(3) -0.4234(4) 0.07057(7)
N3D N 0.5766(4) -0.2636(3) 0.42943(7)
N3B N 1.4234(4) 0.1598(3) 0.07057(7)
N3C N 1.2636(3) -0.1598(3) 0.42943(7)
C8E C 1.2055(3) 0.3948(4) 0.26857(7)
C8A C 0.8107(3) -0.3948(4) 0.23143(7)
C8D C 0.6052(4) -0.1893(3) 0.26857(7)
C8B C 1.3948(4) 0.2055(3) 0.23143(7)
C8C C 1.1893(3) -0.2055(3) 0.26857(7)
H7E H 1.2545 0.4397 0.2447
H7A H 0.8148 -0.4397 0.2553
H7D H 0.5603 -0.1852 0.2447
H7B H 1.4397 0.2545 0.2553
H7C H 1.1852 -0.2545 0.2447
C9E C 1.0655(3) 0.2672(5) 0.33972(8)
C9A C 0.7983(4) -0.2672(5) 0.16028(8)
C9D C 0.7328(5) -0.2017(4) 0.33972(8)
C9B C 1.2672(5) 0.0655(3) 0.16028(8)
C9C C 1.2017(4) -0.0655(3) 0.33972(8)
H8E H 1.0162 0.2247 0.3638
H8A H 0.7915 -0.2247 0.1362
H8D H 0.7753 -0.2085 0.3638
H8B H 1.2247 0.0162 0.1362
H8C H 1.2085 -0.0162 0.3638
P1 P 0.3333 0.6667 0.06946(6)
F1 F 0.2233(3) 0.5214(3) 0.09786(8)
F2 F 0.1886(3) 0.6330(3) 0.04279(8)
F1A F 0.4786(3) 0.7019(4) 0.09786(8)
F1B F 0.2981(4) 0.7767(3) 0.09786(8)
F2A F 0.3670(3) 0.5556(4) 0.04279(8)
F2B F 0.4444(4) 0.8114(3) 0.04279(8)
O1 O 0.3333 0.6667 0.1775(8)
H9 H 0.3333 0.6667 0.1522
H10? H 0.3675 0.6102 0.1798
loop_
_geom_bond_atom_site_label_1
_geom_bond_atom_site_label_2
_geom_bond_site_symmetry_1
_geom_bond_site_symmetry_2
Zn1 N2 1_555 1_555
N1 C4 1_555 1_555
C1 C6 1_555 1_555
C2 C3 1_555 1_555
C3 H1 1_555 1_555
C4 C2 1_555 1_555
H2 C4 1_555 1_555
H3 C4 1_555 1_555
N2 C5 1_555 1_555
C5 N1 1_555 1_555
H4 C5 1_555 1_555
C6 H5 1_555 1_555
C7 N2 1_555 1_555
H6 C7 1_555 1_555
N3 N1 1_555 1_555
C8 C1 1_555 1_555
H7 C8 1_555 1_555
C9 C2 1_555 1_555
H8 C9 1_555 1_555
P1 F1 1_555 1_555
F2 P1 1_555 1_555
O1 H9 1_555 1_555
Zn1C N2E 1_555 1_555
N1E C4E 1_555 1_555
N1A C4A 1_555 1_555
N1D C4D 1_555 1_555
N1B C4B 1_555 1_555
N1C C4C 1_555 1_555
C1E C1 1_555 1_555
C1A C1D 1_555 1_555
C1D C6D 1_555 1_555
C1B C1C 1_555 1_555
C1C C6C 1_555 1_555
C2E C3E 1_555 1_555
C2A C3A 1_555 1_555
C2D C3D 1_555 1_555
C2B C3B 1_555 1_555
C2C C3C 1_555 1_555
C3E H1E 1_555 1_555
C3A H1A 1_555 1_555
C3D H1D 1_555 1_555
C3B H1B 1_555 1_555
C3C H1C 1_555 1_555
C4E C2E 1_555 1_555
C4A C2A 1_555 1_555
C4D C2D 1_555 1_555
C4B C2B 1_555 1_555
C4C C2C 1_555 1_555
H2E C4E 1_555 1_555
H2A C4A 1_555 1_555
H2D C4D 1_555 1_555
H2B C4B 1_555 1_555
H2C C4C 1_555 1_555
H3E C4E 1_555 1_555
H3A C4A 1_555 1_555
H3D C4D 1_555 1_555
H3B C4B 1_555 1_555
H3C C4C 1_555 1_555
N2E C5E 1_555 1_555
N2A Zn1 1_555 1_555
N2D Zn1C 1_555 1_555
N2B Zn1 1_555 1_555
N2C Zn1C 1_555 1_555
N2F Zn1 1_555 1_555
N2G Zn1 1_555 1_555
N2H Zn1 1_555 1_555
C5E N1E 1_555 1_555
C5A N1A 1_555 1_555
C5D N1D 1_555 1_555
C5B N1B 1_555 1_555
C5C N1C 1_555 1_555
H4E C5E 1_555 1_555
H4A C5A 1_555 1_555
H4D C5D 1_555 1_555
H4B C5B 1_555 1_555
H4C C5C 1_555 1_555
C6E C1E 1_555 1_555
C6A C1A 1_555 1_555
C6D H5D 1_555 1_555
C6B C1B 1_555 1_555
C6C H5C 1_555 1_555
H5E C6E 1_555 1_555
H5A C6A 1_555 1_555
H5B C6B 1_555 1_555
C7E N2E 1_555 1_555
C7A N2A 1_555 1_555
C7D N2D 1_555 1_555
C7B N2B 1_555 1_555
C7C N2C 1_555 1_555
H6E C7E 1_555 1_555
H6A C7A 1_555 1_555
H6D C7D 1_555 1_555
H6B C7B 1_555 1_555
H6C C7C 1_555 1_555
N3E N1E 1_555 1_555
N3A N1A 1_555 1_555
N3D N1D 1_555 1_555
N3B N1B 1_555 1_555
N3C N1C 1_555 1_555
C8E C1E 1_555 1_555
C8A C1A 1_555 1_555
C8D C1D 1_555 1_555
C8B C1B 1_555 1_555
C8C C1C 1_555 1_555
H7E C8E 1_555 1_555
H7A C8A 1_555 1_555
H7D C8D 1_555 1_555
H7B C8B 1_555 1_555
H7C C8C 1_555 1_555
C9E C2E 1_555 1_555
C9A C2A 1_555 1_555
C9D C2D 1_555 1_555
C9B C2B 1_555 1_555
C9C C2C 1_555 1_555
H8E C9E 1_555 1_555
H8A C9A 1_555 1_555
H8D C9D 1_555 1_555
H8B C9B 1_555 1_555
H8C C9C 1_555 1_555
F1A P1 1_555 1_555
F1B P1 1_555 1_555
F2A P1 1_555 1_555
F2B P1 1_555 1_555
C3 C8 1_555 1_555
C6 C9 1_555 1_555
C7 N3 1_555 1_555
C3E C8E 1_555 1_555
C3A C8A 1_555 1_555
C3D C8D 1_555 1_555
C3B C8B 1_555 1_555
C3C C8C 1_555 1_555
N2A C5A 1_555 1_555
N2D C5D 1_555 1_555
N2B C5B 1_555 1_555
N2C C5C 1_555 1_555
C6E C9E 1_555 1_555
C6A C9A 1_555 1_555
C6D C9D 1_555 1_555
C6B C9B 1_555 1_555
C6C C9C 1_555 1_555
C7E N3E 1_555 1_555
C7A N3A 1_555 1_555
C7D N3D 1_555 1_555
C7B N3B 1_555 1_555
C7C N3C 1_555 1_555

#END
