
#######################################################################
#
#                 Cambridge Crystallographic Data Centre
#                                CCDC 
#
#######################################################################
#
# If this CIF has been generated from an entry in the Cambridge 
# Structural Database, then it will include bibliographic, chemical, 
# crystal, experimental, refinement or atomic coordinate data resulting 
# from the CCDC's data processing and validation procedures.
#
#######################################################################

data_PUQYIK
_symmetry_cell_setting           orthorhombic
_symmetry_space_group_name_H-M   'P c c n'
_symmetry_Int_Tables_number      56
_space_group_name_Hall           '-P 2ab 2ac'
loop_
_symmetry_equiv_pos_site_id
_symmetry_equiv_pos_as_xyz
1 x,y,z
2 1/2-x,1/2-y,z
3 1/2+x,-y,1/2-z
4 -x,1/2+y,1/2-z
5 -x,-y,-z
6 1/2+x,1/2+y,-z
7 1/2-x,y,1/2+z
8 x,1/2-y,1/2+z
_cell_length_a                   27.660(5)
_cell_length_b                   7.4900(15)
_cell_length_c                   24.170(5)
_cell_angle_alpha                90
_cell_angle_beta                 90
_cell_angle_gamma                90
_cell_volume                     5007.38
loop_
_atom_site_label
_atom_site_type_symbol
_atom_site_fract_x
_atom_site_fract_y
_atom_site_fract_z
Cd1 Cd 0.2500 1.2500 -0.17977(2)
Cd2 Cd 0.2500 0.7500 -0.17295(2)
F1 F 0.00452(17) 0.6077(8) 0.0832(2)
F2 F 0.01827(17) 0.7419(8) 0.0061(2)
F3 F 0.06261(19) 0.5239(7) 0.0303(2)
F4 F 0.00857(17) 1.0090(8) 0.0790(2)
F5 F 0.07128(18) 1.0736(6) 0.12703(19)
F6 F 0.02345(18) 0.8702(8) 0.1553(2)
O1 O 0.1888(2) 1.2132(7) -0.1182(2)
O2 O 0.23456(18) 0.9725(7) -0.1125(2)
O3 O 0.19011(19) 0.2967(6) 0.2562(2)
O4 O 0.23634(16) 0.5357(6) 0.26136(17)
O5 O 0.1701(2) 0.6988(8) -0.1718(2)
N1 N 0.0997(3) 0.5616(14) -0.1817(4)
C1 C 0.1981(3) 1.0653(10) -0.0987(3)
C2 C 0.1660(3) 0.9946(9) -0.0532(3)
C3 C 0.1280(3) 1.0987(10) -0.0341(3)
H1 H 0.1223 1.2096 -0.0501
C4 C 0.0981(3) 1.0396(10) 0.0087(3)
H2 H 0.0726 1.1102 0.0208
C5 C 0.1736(3) 0.8296(10) -0.0295(3)
H3 H 0.1985 0.7569 -0.0424
C6 C 0.1446(3) 0.7719(9) 0.0131(3)
H4 H 0.1504 0.6608 0.0289
C7 C 0.1067(2) 0.8765(9) 0.0331(2)
C8 C 0.0746(2) 0.7962(9) 0.0793(3)
C9 C 0.0395(3) 0.6667(12) 0.0496(3)
C10 C 0.0438(3) 0.9362(12) 0.1091(3)
C11 C 0.1058(2) 0.7011(9) 0.1235(2)
C12 C 0.0960(3) 0.5337(10) 0.1443(3)
H5 H 0.0688 0.4719 0.1324
C13 C 0.1266(3) 0.4570(11) 0.1830(3)
H6 H 0.1199 0.3429 0.1962
C14 C 0.1462(2) 0.7930(9) 0.1437(3)
H7 H 0.1533 0.9064 0.1303
C15 C 0.1757(2) 0.7161(9) 0.1835(3)
H8 H 0.2018 0.7799 0.1974
C16 C 0.1666(2) 0.5464(9) 0.2025(2)
C17 C 0.1993(3) 0.4520(9) 0.2433(2)
C18 C 0.1463(3) 0.5739(12) -0.1850(4)
C19 C 0.0733(6) 0.702(3) -0.1565(11)
H9 H 0.0947 0.7991 -0.1481
H10 H 0.0586 0.6597 -0.1230
H11 H 0.0486 0.7429 -0.1814
C20 C 0.0745(6) 0.402(2) -0.1966(7)
H12 H 0.0956 0.3263 -0.2176
H13 H 0.0467 0.4325 -0.2184
H14 H 0.0643 0.3412 -0.1637
Cd1F Cd 0.2500 0.2500 0.32023(2)
Cd1F_2 Cd 0.2500 2.2500 0.32023(2)
Cd2F Cd 0.2500 0.7500 0.32705(2)
Cd2_2 Cd 0.2500 1.7500 -0.17295(2)
Cd2F_2 Cd 0.2500 1.7500 0.32705(2)
F1A F 0.49548(17) 1.8923(8) 0.0832(2)
F2A F 0.48173(17) 1.7581(8) 0.0061(2)
F3A F 0.43739(19) 1.9761(7) 0.0303(2)
F4A F 0.49143(17) 1.4910(8) 0.0790(2)
F5A F 0.42872(18) 1.4264(6) 0.12703(19)
F6A F 0.47655(18) 1.6298(8) 0.1553(2)
O1A O 0.3112(2) 1.2868(7) -0.1182(2)
O2A O 0.26544(18) 1.5275(7) -0.1125(2)
O2A_2 O 0.26544(18) 0.5275(7) -0.1125(2)
O3A O 0.30989(19) 2.2033(6) 0.2562(2)
O3F O 0.30989(19) 1.2967(6) -0.2438(2)
O3G O 0.19011(19) 1.2033(6) -0.2438(2)
O4A O 0.26366(16) 1.9643(6) 0.26136(17)
O4F O 0.26366(16) 1.5357(6) -0.23864(17)
O4G O 0.23634(16) 0.9643(6) -0.23864(17)
O4F_2 O 0.26366(16) 0.5357(6) -0.23864(17)
O5A O 0.3299(2) 0.8012(8) -0.1718(2)
N1A N 0.4003(3) 0.9384(14) -0.1817(4)
C1A C 0.3019(3) 1.4347(10) -0.0987(3)
C2A C 0.3340(3) 1.5054(9) -0.0532(3)
C3A C 0.3720(3) 1.4013(10) -0.0341(3)
H1A H 0.3777 1.2904 -0.0501
C4A C 0.4019(3) 1.4604(10) 0.0087(3)
H2A H 0.4274 1.3898 0.0208
C5A C 0.3264(3) 1.6704(10) -0.0295(3)
H3A H 0.3015 1.7431 -0.0424
C6A C 0.3554(3) 1.7281(9) 0.0131(3)
H4A H 0.3496 1.8392 0.0289
C7A C 0.3933(2) 1.6235(9) 0.0331(2)
C8A C 0.4254(2) 1.7038(9) 0.0793(3)
C9A C 0.4605(3) 1.8333(12) 0.0496(3)
C10A C 0.4562(3) 1.5638(12) 0.1091(3)
C11A C 0.3942(2) 1.7989(9) 0.1235(2)
C12A C 0.4040(3) 1.9663(10) 0.1443(3)
H5A H 0.4312 2.0281 0.1324
C13A C 0.3734(3) 2.0430(11) 0.1830(3)
H6A H 0.3801 2.1571 0.1962
C14A C 0.3538(2) 1.7070(9) 0.1437(3)
H7A H 0.3467 1.5936 0.1303
C15A C 0.3243(2) 1.7839(9) 0.1835(3)
H8A H 0.2982 1.7201 0.1974
C16A C 0.3334(2) 1.9536(9) 0.2025(2)
C17A C 0.3007(3) 2.0480(9) 0.2433(2)
C18A C 0.3537(3) 0.9261(12) -0.1850(4)
C19A C 0.4267(6) 0.798(3) -0.1565(11)
H9A H 0.4053 0.7009 -0.1481
H10A H 0.4414 0.8403 -0.1230
H11A H 0.4514 0.7571 -0.1814
C20A C 0.4255(6) 1.098(2) -0.1966(7)
H12A H 0.4044 1.1737 -0.2176
H13A H 0.4533 1.0675 -0.2184
H14A H 0.4357 1.1588 -0.1637
loop_
_geom_bond_atom_site_label_1
_geom_bond_atom_site_label_2
_geom_bond_site_symmetry_1
_geom_bond_site_symmetry_2
Cd1 O1 1_555 1_555
Cd2 O2 1_555 1_555
F1 C9 1_555 1_555
F2 C9 1_555 1_555
F3 C9 1_555 1_555
F4 C10 1_555 1_555
F5 C10 1_555 1_555
F6 C10 1_555 1_555
O1 C1 1_555 1_555
O2 C1 1_555 1_555
O3 C17 1_555 1_555
O4 C17 1_555 1_555
O5 Cd2 1_555 1_555
N1 C18 1_555 1_555
C1 C2 1_555 1_555
C2 C3 1_555 1_555
C3 H1 1_555 1_555
C4 C3 1_555 1_555
H2 C4 1_555 1_555
C5 C2 1_555 1_555
H3 C5 1_555 1_555
C6 C5 1_555 1_555
H4 C6 1_555 1_555
C7 C4 1_555 1_555
C8 C7 1_555 1_555
C9 C8 1_555 1_555
C10 C8 1_555 1_555
C11 C8 1_555 1_555
C12 C11 1_555 1_555
H5 C12 1_555 1_555
C13 C12 1_555 1_555
H6 C13 1_555 1_555
C14 C11 1_555 1_555
H7 C14 1_555 1_555
C15 C14 1_555 1_555
H8 C15 1_555 1_555
C16 C13 1_555 1_555
C17 C16 1_555 1_555
C18 O5 1_555 1_555
C19 N1 1_555 1_555
H9 C19 1_555 1_555
H10 C19 1_555 1_555
H11 C19 1_555 1_555
C20 N1 1_555 1_555
H12 C20 1_555 1_555
H13 C20 1_555 1_555
H14 C20 1_555 1_555
Cd1F O3 1_555 1_555
Cd1F_2 O3A 1_555 1_555
Cd2F O4 1_555 1_555
Cd2_2 O2A 1_555 1_555
Cd2F_2 O4A 1_555 1_555
F1A C9A 1_555 1_555
F2A C9A 1_555 1_555
F3A C9A 1_555 1_555
F4A C10A 1_555 1_555
F5A C10A 1_555 1_555
F6A C10A 1_555 1_555
O1A Cd1 1_555 1_555
O2A C1A 1_555 1_555
O2A_2 Cd2 1_555 1_555
O3A C17A 1_555 1_555
O3F Cd1 1_555 1_555
O3G Cd1 1_555 1_555
O4A Cd1F_2 1_555 1_555
O4F Cd1 1_555 1_555
O4G Cd1 1_555 1_555
O4F_2 Cd2 1_555 1_555
O5A Cd2 1_555 1_555
N1A C18A 1_555 1_555
C1A O1A 1_555 1_555
C2A C1A 1_555 1_555
C3A C2A 1_555 1_555
H1A C3A 1_555 1_555
C4A C3A 1_555 1_555
H2A C4A 1_555 1_555
C5A C2A 1_555 1_555
H3A C5A 1_555 1_555
C6A C5A 1_555 1_555
H4A C6A 1_555 1_555
C7A C4A 1_555 1_555
C8A C7A 1_555 1_555
C9A C8A 1_555 1_555
C10A C8A 1_555 1_555
C11A C8A 1_555 1_555
C12A C11A 1_555 1_555
H5A C12A 1_555 1_555
C13A C12A 1_555 1_555
H6A C13A 1_555 1_555
C14A C11A 1_555 1_555
H7A C14A 1_555 1_555
C15A C14A 1_555 1_555
H8A C15A 1_555 1_555
C16A C13A 1_555 1_555
C17A O4A 1_555 1_555
C18A O5A 1_555 1_555
C19A N1A 1_555 1_555
H9A C19A 1_555 1_555
H10A C19A 1_555 1_555
H11A C19A 1_555 1_555
C20A N1A 1_555 1_555
H12A C20A 1_555 1_555
H13A C20A 1_555 1_555
H14A C20A 1_555 1_555
Cd2 O4G 1_555 1_555
O4 Cd1F 1_555 1_555
C6 C7 1_555 1_555
C15 C16 1_555 1_555
Cd2_2 O4F 1_555 1_555
C6A C7A 1_555 1_555
C15A C16A 1_555 1_555
C16A C17A 1_555 1_555

#END
