
#######################################################################
#
#                 Cambridge Crystallographic Data Centre
#                                CCDC 
#
#######################################################################
#
# If this CIF has been generated from an entry in the Cambridge 
# Structural Database, then it will include bibliographic, chemical, 
# crystal, experimental, refinement or atomic coordinate data resulting 
# from the CCDC's data processing and validation procedures.
#
#######################################################################

data_PURQUP
_symmetry_cell_setting           cubic
_symmetry_space_group_name_H-M   'P 43 3 2'
_symmetry_Int_Tables_number      212
_space_group_name_Hall           'P 4acd 2ab 3'
loop_
_symmetry_equiv_pos_site_id
_symmetry_equiv_pos_as_xyz
1 x,y,z
2 1/2-x,-y,1/2+z
3 -x,1/2+y,1/2-z
4 1/2+x,1/2-y,-z
5 z,x,y
6 1/2+z,1/2-x,-y
7 1/2-z,-x,1/2+y
8 -z,1/2+x,1/2-y
9 y,z,x
10 -y,1/2+z,1/2-x
11 1/2+y,1/2-z,-x
12 1/2-y,-z,1/2+x
13 1/4+y,3/4+x,3/4-z
14 1/4-y,1/4-x,1/4-z
15 3/4+y,3/4-x,1/4+z
16 3/4-y,1/4+x,3/4+z
17 1/4+x,3/4+z,3/4-y
18 3/4-x,1/4+z,3/4+y
19 1/4-x,1/4-z,1/4-y
20 3/4+x,3/4-z,1/4+y
21 1/4+z,3/4+y,3/4-x
22 3/4+z,3/4-y,1/4+x
23 3/4-z,1/4+y,3/4+x
24 1/4-z,1/4-y,1/4-x
_cell_length_a                   27.289(3)
_cell_length_b                   27.289(3)
_cell_length_c                   27.289(3)
_cell_angle_alpha                90
_cell_angle_beta                 90
_cell_angle_gamma                90
_cell_volume                     20321.8
loop_
_atom_site_label
_atom_site_type_symbol
_atom_site_fract_x
_atom_site_fract_y
_atom_site_fract_z
Cu1 Cu -0.17937(4) -0.60611(4) -0.26416(4)
Cu2 Cu -0.3750 -0.49923(5) -0.25077(5)
O1 O -0.1461(2) -0.5317(3) -0.2416(3)
O2 O -0.1705(3) -0.4551(3) -0.2427(3)
O3 O -0.3255(3) -0.4242(3) -0.2455(3)
O4 O -0.2468(3) -0.4083(3) -0.2402(4)
H1 H -0.2215 -0.4241 -0.2367
O5 O -0.1251(3) -0.6506(3) -0.2683(3)
O6 O -0.0748(4) -0.6887(4) -0.3194(4)
H2 H -0.060(4) -0.687(4) -0.353(4)
N1 N -0.2391(2) -0.5659(2) -0.2617(3)
N2 N -0.3111(2) -0.5237(2) -0.2584(3)
N3 N -0.3643(3) -0.6988(3) -0.3052(3)
N4 N -0.1646(2) -0.5974(2) -0.3354(2)
N5 N -0.2893(3) -0.4607(3) -0.3750
C1 C -0.2863(3) -0.5658(3) -0.2663(3)
C2 C -0.2307(3) -0.5158(3) -0.2520(3)
C3 C -0.2740(3) -0.4895(3) -0.2505(3)
C4 C -0.1767(4) -0.5005(3) -0.2432(3)
C5 C -0.2858(5) -0.4401(4) -0.2492(4)
C6 C -0.3115(4) -0.6986(4) -0.3067(4)
H3 H -0.2929 -0.7254 -0.3165
C7 C -0.2903(3) -0.6520(4) -0.2911(4)
H4 H -0.2563 -0.6508 -0.2890
C8 C -0.3125(3) -0.6139(3) -0.2804(3)
C9 C -0.3651(4) -0.6158(4) -0.2835(5)
H5 H -0.3837 -0.5873 -0.2809
C10 C -0.3868(3) -0.6598(3) -0.2903(4)
H6 H -0.4201 -0.6622 -0.2838
C11 C -0.1765(3) -0.5735(3) -0.3750
C12 C -0.1300(3) -0.6293(3) -0.3518(3)
C13 C -0.1088(4) -0.6575(4) -0.3101(5)
C14 C -0.2405(5) -0.4472(4) -0.3700(5)
H7 H -0.2315 -0.4146 -0.3660
C15 C -0.2041(4) -0.4855(4) -0.3713(4)
H8 H -0.1708 -0.4781 -0.3694
C16 C -0.2191(3) -0.5309(3) -0.3750
Cu1R Cu -0.57063(4) -0.48584(4) -0.14389(4)
Cu1I Cu -0.39389(4) -0.76416(4) -0.32063(4)
Cu1M Cu -0.14389(4) -0.57063(4) -0.48584(4)
Cu1L Cu -0.35611(4) -0.42937(4) 0.01416(4)
O1R O -0.6039(2) -0.5084(3) -0.2183(3)
O2R O -0.5795(3) -0.5073(3) -0.2949(3)
O3R O -0.4245(3) -0.5045(3) -0.3258(3)
O4R O -0.5032(3) -0.5098(4) -0.3417(3)
H1R H -0.5285 -0.5133 -0.3259
O5M O -0.0994(3) -0.6249(3) -0.4817(3)
O5R O -0.6249(3) -0.4817(3) -0.0994(3)
O6M O -0.0613(4) -0.6752(4) -0.4306(4)
H2M H -0.063(4) -0.690(4) -0.397(4)
N1R N -0.5109(2) -0.4883(3) -0.1841(2)
N2R N -0.4389(2) -0.4916(3) -0.2263(2)
N3R N -0.3857(3) -0.4448(3) -0.0512(3)
N3F N -0.1948(3) -0.6357(3) -0.1988(3)
N3U N -0.5552(3) -0.5512(3) -0.1143(3)
N4M N -0.1526(2) -0.5854(2) -0.4146(2)
N4R N -0.5854(2) -0.4146(2) -0.1526(2)
C1R C -0.4637(3) -0.4837(3) -0.1842(3)
C2R C -0.5193(3) -0.4980(3) -0.2342(3)
C3R C -0.4760(3) -0.4995(3) -0.2605(3)
C4R C -0.5733(4) -0.5068(3) -0.2495(3)
C5R C -0.4642(5) -0.5008(4) -0.3099(4)
C6R C -0.4385(4) -0.4433(4) -0.0514(4)
H3R H -0.4571 -0.4335 -0.0246
C7R C -0.4597(3) -0.4589(4) -0.0980(4)
H4R H -0.4937 -0.4610 -0.0992
C8R C -0.4375(3) -0.4696(3) -0.1361(3)
C9R C -0.3849(4) -0.4665(5) -0.1342(4)
H5R H -0.3663 -0.4691 -0.1627
C10R C -0.3632(3) -0.4597(4) -0.0902(3)
H6R H -0.3299 -0.4662 -0.0878
C12M C -0.1207(3) -0.6200(3) -0.3982(3)
C13M C -0.0925(4) -0.6412(4) -0.4399(5)
C14M C -0.3028(4) -0.5095(5) -0.3800(5)
H7M H -0.3354 -0.5185 -0.3840
C15M C -0.2645(4) -0.5459(4) -0.3787(4)
H8M H -0.2719 -0.5792 -0.3806
loop_
_geom_bond_atom_site_label_1
_geom_bond_atom_site_label_2
_geom_bond_site_symmetry_1
_geom_bond_site_symmetry_2
Cu1 O1 1_555 1_555
Cu2 N2 1_555 1_555
O1 C4 1_555 1_555
O2 C4 1_555 1_555
O3 C5 1_555 1_555
O4 H1 1_555 1_555
O5 Cu1 1_555 1_555
O6 H2 1_555 1_555
N1 Cu1 1_555 1_555
N2 C1 1_555 1_555
N3 C6 1_555 1_555
N4 Cu1 1_555 1_555
N5 C14 1_555 1_555
C1 N1 1_555 1_555
C2 N1 1_555 1_555
C3 N2 1_555 1_555
C4 C2 1_555 1_555
C5 O4 1_555 1_555
C6 H3 1_555 1_555
C7 C6 1_555 1_555
H4 C7 1_555 1_555
C8 C1 1_555 1_555
C9 C8 1_555 1_555
H5 C9 1_555 1_555
C10 N3 1_555 1_555
H6 C10 1_555 1_555
C11 N4 1_555 1_555
C12 N4 1_555 1_555
C13 O5 1_555 1_555
C14 H7 1_555 1_555
C15 C14 1_555 1_555
H8 C15 1_555 1_555
C16 C11 1_555 1_555
Cu1R O1R 1_555 1_555
Cu1I N3 1_555 1_555
Cu1M O5M 1_555 1_555
Cu1L N3R 1_555 1_555
O1R C4R 1_555 1_555
O2R C4R 1_555 1_555
O3R C5R 1_555 1_555
O4R H1R 1_555 1_555
O5M C13M 1_555 1_555
O5R Cu1R 1_555 1_555
O6M H2M 1_555 1_555
N1R Cu1R 1_555 1_555
N2R Cu2 1_555 1_555
N3R C6R 1_555 1_555
N3F Cu1 1_555 1_555
N3U Cu1R 1_555 1_555
N4M C11 1_555 1_555
N4R Cu1R 1_555 1_555
C1R N1R 1_555 1_555
C2R N1R 1_555 1_555
C3R N2R 1_555 1_555
C4R C2R 1_555 1_555
C5R O4R 1_555 1_555
C6R H3R 1_555 1_555
C7R C6R 1_555 1_555
H4R C7R 1_555 1_555
C8R C1R 1_555 1_555
C9R C8R 1_555 1_555
H5R C9R 1_555 1_555
C10R N3R 1_555 1_555
H6R C10R 1_555 1_555
C12M C12 1_555 1_555
C13M O6M 1_555 1_555
C14M N5 1_555 1_555
H7M C14M 1_555 1_555
C15M C16 1_555 1_555
H8M C15M 1_555 1_555
O6 C13 1_555 1_555
C2 C3 1_555 1_555
C3 C5 1_555 1_555
C7 C8 1_555 1_555
C9 C10 1_555 1_555
C12 C13 1_555 1_555
C15 C16 1_555 1_555
Cu1M N4M 1_555 1_555
N2R C1R 1_555 1_555
N4M C12M 1_555 1_555
C2R C3R 1_555 1_555
C3R C5R 1_555 1_555
C7R C8R 1_555 1_555
C9R C10R 1_555 1_555
C12M C13M 1_555 1_555
C14M C15M 1_555 1_555

#END
