
#######################################################################
#
#                 Cambridge Crystallographic Data Centre
#                                CCDC 
#
#######################################################################
#
# If this CIF has been generated from an entry in the Cambridge 
# Structural Database, then it will include bibliographic, chemical, 
# crystal, experimental, refinement or atomic coordinate data resulting 
# from the CCDC's data processing and validation procedures.
#
#######################################################################

data_PURROL
_symmetry_cell_setting           monoclinic
_symmetry_space_group_name_H-M   'P 21/n'
_symmetry_Int_Tables_number      14
_space_group_name_Hall           '-P 2yn'
loop_
_symmetry_equiv_pos_site_id
_symmetry_equiv_pos_as_xyz
1 x,y,z
2 1/2-x,1/2+y,1/2-z
3 -x,-y,-z
4 1/2+x,1/2-y,1/2+z
_cell_length_a                   10.2451(4)
_cell_length_b                   16.9419(7)
_cell_length_c                   12.4573(6)
_cell_angle_alpha                90
_cell_angle_beta                 90.5570(10)
_cell_angle_gamma                90
_cell_volume                     2162.13
loop_
_atom_site_label
_atom_site_type_symbol
_atom_site_fract_x
_atom_site_fract_y
_atom_site_fract_z
Mn1 Mn 0.20089(3) 0.11153(2) 0.23740(3)
O1 O 0.38607(16) 0.14412(11) 0.30925(14)
H1 H 0.4143 0.1091 0.3524
H2 H 0.4032 0.1879 0.3395
O2 O 0.27158(17) -0.00635(10) 0.26809(14)
H3 H 0.3133 -0.0181 0.3252
H4 H 0.2579 -0.0501 0.2365
O3 O 0.03047(16) 0.06580(10) 0.15760(13)
H5 H -0.0195 0.0892 0.1130
H6 H 0.0241 0.0171 0.1421
O4 O 0.16070(16) 0.23685(10) 0.21852(13)
H7 H 0.1944 0.2748 0.2538
H8 H 0.0940 0.2564 0.1874
N1 N 0.08989(19) 0.12043(12) 0.39623(15)
N2 N 0.17952(19) 0.18751(12) 0.74470(15)
H9 H 0.1142 0.1639 0.7803
H10 H 0.2314 0.1495 0.7182
N3 N 0.30411(19) 0.12271(12) 1.07728(16)
C1 C 0.0657(2) 0.18200(14) 0.56908(18)
C2 C 0.1336(2) 0.16735(14) 0.47565(18)
H11 H 0.2145 0.1915 0.4674
C3 C -0.0267(2) 0.08639(16) 0.4094(2)
H12 H -0.0582 0.0531 0.3557
C4 C -0.1021(3) 0.09834(18) 0.4988(2)
H13 H -0.1831 0.0740 0.5047
C5 C -0.0560(3) 0.14700(17) 0.5798(2)
H14 H -0.1057 0.1561 0.6406
C6 C 0.1232(3) 0.23472(15) 0.65347(18)
H15 H 0.0561 0.2697 0.6804
H16 H 0.1911 0.2670 0.6221
C7 C 0.2566(3) 0.23713(15) 0.82118(19)
H17 H 0.1994 0.2752 0.8549
H18 H 0.3228 0.2660 0.7823
C8 C 0.3210(2) 0.18673(14) 0.90631(19)
C9 C 0.2534(2) 0.16683(15) 0.99820(18)
H19 H 0.1683 0.1851 1.0053
C10 C 0.4262(2) 0.09633(15) 1.06495(19)
H20 H 0.4622 0.0648 1.1187
C11 C 0.5013(2) 0.11330(16) 0.9771(2)
H21 H 0.5863 0.0944 0.9721
C12 C 0.4473(2) 0.15919(16) 0.8962(2)
H22 H 0.4955 0.1714 0.8356
Mn1_2 Mn 0.20089(3) 0.11153(2) 1.23740(3)
N3_2 N 0.30411(19) 0.12271(12) 0.07728(16)
S1 S 0.39068(5) 0.35353(3) 0.40487(5)
O5 O 0.3552(3) 0.3836(3) 0.5112(2)
O6 O 0.4422(4) 0.27224(13) 0.4152(5)
O7 O 0.2733(4) 0.3523(3) 0.3343(3)
O8 O 0.4907(4) 0.4045(2) 0.3567(3)
O9 O 0.44817(17) 0.20321(10) 0.61916(14)
H23 H 0.4641 0.1571 0.5959
H24 H 0.4501 0.2328 0.5641
O10 O 0.7697(6) 0.5058(4) 0.3155(6)
O11 O 0.7545(8) 0.4574(5) 0.1680(5)
O12? O 0.3665(9) 0.3428(11) 0.5167(5)
O13? O 0.4669(8) 0.2835(6) 0.3650(11)
O14? O 0.2728(10) 0.3594(9) 0.3424(8)
O15? O 0.4732(13) 0.4231(5) 0.3875(15)
O16? O 0.8067(7) 0.5103(6) 0.2428(5)
O17? O 0.7646(8) 0.4610(5) 0.2126(6)
S2? S 0.5174(2) 0.01041(13) 0.48830(19)
O18? O 0.5485(3) 0.05477(15) 0.58644(19)
O19? O 0.3746(2) 0.00070(17) 0.4786(2)
O20? O 0.5651(2) 0.05401(16) 0.3941(2)
O21? O 0.5797(3) -0.06761(14) 0.4927(2)
loop_
_geom_bond_atom_site_label_1
_geom_bond_atom_site_label_2
_geom_bond_site_symmetry_1
_geom_bond_site_symmetry_2
Mn1 O1 1_555 1_555
O1 H1 1_555 1_555
H2 O1 1_555 1_555
O2 Mn1 1_555 1_555
H3 O2 1_555 1_555
H4 O2 1_555 1_555
O3 Mn1 1_555 1_555
H5 O3 1_555 1_555
H6 O3 1_555 1_555
O4 Mn1 1_555 1_555
H7 O4 1_555 1_555
H8 O4 1_555 1_555
N1 Mn1 1_555 1_555
N2 H9 1_555 1_555
H10 N2 1_555 1_555
N3 C9 1_555 1_555
C1 C2 1_555 1_555
C2 N1 1_555 1_555
H11 C2 1_555 1_555
C3 N1 1_555 1_555
H12 C3 1_555 1_555
C4 C3 1_555 1_555
H13 C4 1_555 1_555
C5 C1 1_555 1_555
H14 C5 1_555 1_555
C6 N2 1_555 1_555
H15 C6 1_555 1_555
H16 C6 1_555 1_555
C7 N2 1_555 1_555
H17 C7 1_555 1_555
H18 C7 1_555 1_555
C8 C7 1_555 1_555
C9 C8 1_555 1_555
H19 C9 1_555 1_555
C10 N3 1_555 1_555
H20 C10 1_555 1_555
C11 C10 1_555 1_555
H21 C11 1_555 1_555
C12 C8 1_555 1_555
H22 C12 1_555 1_555
S1 O5 1_555 1_555
O6 S1 1_555 1_555
O7 S1 1_555 1_555
O8 S1 1_555 1_555
O9 H23 1_555 1_555
H24 O9 1_555 1_555
Mn1_2 N3 1_555 1_555
N3_2 Mn1 1_555 1_555
C1 C6 1_555 1_555
C4 C5 1_555 1_555
C11 C12 1_555 1_555

#END
