
#######################################################################
#
#                 Cambridge Crystallographic Data Centre
#                                CCDC 
#
#######################################################################
#
# If this CIF has been generated from an entry in the Cambridge 
# Structural Database, then it will include bibliographic, chemical, 
# crystal, experimental, refinement or atomic coordinate data resulting 
# from the CCDC's data processing and validation procedures.
#
#######################################################################

data_PURREA
_symmetry_cell_setting           monoclinic
_symmetry_space_group_name_H-M   'C 2/c'
_symmetry_Int_Tables_number      15
_space_group_name_Hall           '-C 2yn'
loop_
_symmetry_equiv_pos_site_id
_symmetry_equiv_pos_as_xyz
1 x,y,z
2 -x,y,1/2-z
3 1/2+x,1/2+y,z
4 1/2-x,1/2+y,1/2-z
5 -x,-y,-z
6 x,-y,1/2+z
7 1/2-x,1/2-y,-z
8 1/2+x,1/2-y,1/2+z
_cell_length_a                   26.179(5)
_cell_length_b                   10.667(2)
_cell_length_c                   17.719(3)
_cell_angle_alpha                90
_cell_angle_beta                 112.398(4)
_cell_angle_gamma                90
_cell_volume                     4574.77
loop_
_atom_site_label
_atom_site_type_symbol
_atom_site_fract_x
_atom_site_fract_y
_atom_site_fract_z
Zn1 Zn 0.10352(3) 0.82875(7) 0.05852(4)
O1 O 0.10228(17) 0.8624(4) -0.0517(2)
O2 O 0.07596(17) 0.6624(4) -0.0686(2)
O3 O 0.10113(17) 0.9973(4) -0.4033(3)
O4 O 0.14145(19) 1.0723(4) -0.2775(3)
C1 C 0.0844(2) 0.7657(6) -0.1813(4)
C2 C 0.1010(2) 0.8728(6) -0.2124(4)
H1 H 0.1151 0.9414 -0.1785
C3 C 0.0966(2) 0.8777(6) -0.2927(4)
C4 C 0.0741(3) 0.7740(6) -0.3434(4)
H2 H 0.0688 0.7773 -0.3983
C5 C 0.0596(3) 0.6670(7) -0.3120(4)
H3 H 0.0463 0.5971 -0.3450
C6 C 0.0651(2) 0.6643(6) -0.2321(4)
H4 H 0.0554 0.5918 -0.2116
C7 C 0.0879(2) 0.7603(7) -0.0950(4)
C8 C 0.1141(3) 0.9904(7) -0.3263(4)
C9 C -0.0078(3) 0.8383(7) 0.0707(3)
H5 H -0.0060 0.9249 0.0770
C10 C 0.0129(3) 0.6484(6) 0.0554(4)
H6 H 0.0322 0.5788 0.0489
C11 C -0.0375(3) 0.6448(6) 0.0597(4)
H7 H -0.0589 0.5741 0.0570
C12 C -0.1015(3) 0.8197(7) 0.0755(5)
H8 H -0.1189 0.8782 0.0312
H9 H -0.0918 0.8650 0.1265
C13 C -0.1418(3) 0.7158(6) 0.0720(5)
C14 C -0.1821(3) 0.6786(7) -0.0021(4)
C15 C -0.2184(3) 0.5800(7) -0.0043(4)
C16 C -0.2155(3) 0.5238(6) 0.0681(5)
C17 C -0.1754(3) 0.5611(7) 0.1386(5)
H10 H -0.1730 0.5217 0.1866
C18 C -0.1374(3) 0.6548(7) 0.1435(4)
C19 C -0.0915(3) 0.6829(8) 0.2244(4)
H11 H -0.0960 0.6321 0.2662
H12 H -0.0927 0.7699 0.2375
H13 H -0.0566 0.6645 0.2209
C20 C -0.1855(3) 0.7392(7) -0.0822(4)
H14 H -0.1585 0.8048 -0.0707
H15 H -0.2217 0.7736 -0.1100
H16 H -0.1783 0.6770 -0.1162
C21 C -0.2541(3) 0.4178(7) 0.0700(5)
H17 H -0.2454 0.3920 0.1255
H18 H -0.2496 0.3482 0.0388
H19 H -0.2917 0.4466 0.0470
C22 C -0.2575(3) 0.5303(7) -0.0862(4)
H20 H -0.2898 0.4932 -0.0807
H21 H -0.2698 0.5982 -0.1254
C23 C -0.1812(3) 0.3754(6) -0.0698(4)
H22 H -0.1613 0.3916 -0.0148
C24 C -0.2058(3) 0.2983(7) -0.1900(4)
H23 H -0.2068 0.2502 -0.2343
C25 C -0.2435(3) 0.3876(7) -0.1914(4)
H24 H -0.2742 0.4119 -0.2366
N1 N -0.0507(2) 0.7678(5) 0.0690(3)
N2 N 0.0315(2) 0.7688(5) 0.0621(3)
N3 N -0.16646(19) 0.2909(5) -0.1128(3)
N4 N -0.2279(2) 0.4342(5) -0.1151(4)
Zn1E Zn 0.10352(3) 1.17125(7) -0.44148(4)
Zn1D Zn -0.10352(3) 0.17125(7) -0.05852(4)
O3E O 0.10113(17) 1.0027(4) 0.0967(3)
N3D N 0.16646(19) 0.7091(5) 0.1128(3)
loop_
_geom_bond_atom_site_label_1
_geom_bond_atom_site_label_2
_geom_bond_site_symmetry_1
_geom_bond_site_symmetry_2
Zn1 O1 1_555 1_555
O1 C7 1_555 1_555
O2 C7 1_555 1_555
O3 C8 1_555 1_555
O4 C8 1_555 1_555
C1 C2 1_555 1_555
C2 H1 1_555 1_555
C3 C2 1_555 1_555
C4 C3 1_555 1_555
H2 C4 1_555 1_555
C5 C4 1_555 1_555
H3 C5 1_555 1_555
C6 C1 1_555 1_555
H4 C6 1_555 1_555
C7 C1 1_555 1_555
C8 C3 1_555 1_555
C9 H5 1_555 1_555
C10 H6 1_555 1_555
C11 C10 1_555 1_555
H7 C11 1_555 1_555
C12 H8 1_555 1_555
H9 C12 1_555 1_555
C13 C12 1_555 1_555
C14 C13 1_555 1_555
C15 C14 1_555 1_555
C16 C15 1_555 1_555
C17 C16 1_555 1_555
H10 C17 1_555 1_555
C18 C13 1_555 1_555
C19 C18 1_555 1_555
H11 C19 1_555 1_555
H12 C19 1_555 1_555
H13 C19 1_555 1_555
C20 C14 1_555 1_555
H14 C20 1_555 1_555
H15 C20 1_555 1_555
H16 C20 1_555 1_555
C21 C16 1_555 1_555
H17 C21 1_555 1_555
H18 C21 1_555 1_555
H19 C21 1_555 1_555
C22 C15 1_555 1_555
H20 C22 1_555 1_555
H21 C22 1_555 1_555
C23 H22 1_555 1_555
C24 H23 1_555 1_555
C25 C24 1_555 1_555
H24 C25 1_555 1_555
N1 C9 1_555 1_555
N2 Zn1 1_555 1_555
N3 C23 1_555 1_555
N4 C22 1_555 1_555
Zn1E O3 1_555 1_555
Zn1D N3 1_555 1_555
O3E Zn1 1_555 1_555
N3D Zn1 1_555 1_555
C5 C6 1_555 1_555
C9 N2 1_555 1_555
C10 N2 1_555 1_555
C11 N1 1_555 1_555
C12 N1 1_555 1_555
C17 C18 1_555 1_555
C23 N4 1_555 1_555
C24 N3 1_555 1_555
C25 N4 1_555 1_555

#END
