
#######################################################################
#
#                 Cambridge Crystallographic Data Centre
#                                CCDC 
#
#######################################################################
#
# If this CIF has been generated from an entry in the Cambridge 
# Structural Database, then it will include bibliographic, chemical, 
# crystal, experimental, refinement or atomic coordinate data resulting 
# from the CCDC's data processing and validation procedures.
#
#######################################################################

data_PURSOK
_symmetry_cell_setting           triclinic
_symmetry_space_group_name_H-M   'P -1'
_symmetry_Int_Tables_number      2
_space_group_name_Hall           '-P 1'
loop_
_symmetry_equiv_pos_site_id
_symmetry_equiv_pos_as_xyz
1 x,y,z
2 -x,-y,-z
_cell_length_a                   9.726(4)
_cell_length_b                   9.911(5)
_cell_length_c                   10.450(5)
_cell_angle_alpha                99.72(4)
_cell_angle_beta                 111.11(4)
_cell_angle_gamma                108.42(4)
_cell_volume                     844.895
loop_
_atom_site_label
_atom_site_type_symbol
_atom_site_fract_x
_atom_site_fract_y
_atom_site_fract_z
O1 O 0.6683(7) 0.6733(6) 0.4741(7)
O2 O 0.7417(8) 0.6036(6) 0.3027(7)
C1 C 0.7537(11) 0.6985(10) 0.4088(9)
C2 C 0.8810(11) 0.8548(9) 0.4549(9)
C3 C 0.8996(11) 0.9685(9) 0.5658(10)
C4 C 0.9829(11) 0.8875(9) 0.3907(10)
O3 O 0.3082(7) 0.4758(7) 0.3146(6)
O4 O 0.3821(8) 0.4590(7) 0.1351(7)
C5 C 0.2872(11) 0.4725(9) 0.1894(9)
C6 C 0.1379(10) 0.4857(9) 0.0905(9)
C7 C 0.0918(11) 0.4550(10) -0.0574(9)
C8 C 0.0421(11) 0.5291(10) 0.1459(9)
O5 O 0.5444(8) 0.3310(6) 0.3785(7)
O6 O 0.4030(11) 0.1335(8) 0.1842(7)
C9 C 0.4725(13) 0.1885(10) 0.3187(10)
C10 C 0.4838(12) 0.0900(10) 0.4125(10)
C11 C 0.5865(11) 0.1535(10) 0.5586(9)
C12 C 0.3989(12) -0.0632(10) 0.3547(9)
O7 O 0.5387(8) 0.3376(7) -0.0017(7)
C13 C 0.4272(18) 0.1977(13) -0.1054(12)
O8 O 0.7529(10) 0.3106(9) 0.2402(8)
C14 C 0.8551(17) 0.2994(18) 0.3669(13)
H1 H 0.8326(11) 0.9480(9) 0.6113(10)
H2 H 0.9729(11) 0.8122(9) 0.3170(10)
H3 H 0.1524(11) 0.4233(10) -0.0968(9)
H4 H 0.0692(11) 0.5474(10) 0.2440(9)
H5 H 0.6457(11) 0.2569(10) 0.5986(9)
H6 H 0.3308(12) -0.1064(10) 0.2560(9)
H7 H 0.4820(25) 0.1518(47) -0.1459(72)
H8 H 0.3457(64) 0.2113(17) -0.1809(53)
H9 H 0.3775(84) 0.1342(38) -0.0604(25)
H10 H 0.8423(82) 0.1971(25) 0.3528(34)
H11 H 0.8289(78) 0.331(10) 0.4437(27)
H12 H 0.9650(19) 0.3622(82) 0.3918(56)
Zn1 Zn 0.5000 0.5000 0.5000
Zn2 Zn 0.5728(1) 0.3974(1) 0.2107(1)
C4A C 1.0171(11) 1.1125(9) 0.6093(10)
C3A C 1.1004(11) 1.0315(9) 0.4342(10)
C8A C -0.0421(11) 0.4709(10) -0.1459(9)
C7A C -0.0918(11) 0.5450(10) 0.0574(9)
C12A C 0.6011(12) 0.0632(10) 0.6453(9)
C11A C 0.4135(11) -0.1535(10) 0.4414(9)
O1A O 0.3317(7) 0.3267(6) 0.5259(7)
O3A O 0.6918(7) 0.5242(7) 0.6854(6)
O5A O 0.4556(8) 0.6690(6) 0.6215(7)
C2A C 1.1190(11) 1.1452(9) 0.5451(9)
H2A H 1.0271(11) 1.1878(9) 0.6830(10)
H1A H 1.1674(11) 1.0520(9) 0.3887(10)
C6A C -0.1379(10) 0.5143(9) -0.0905(9)
H4A H -0.0692(11) 0.4526(10) -0.2440(9)
H3A H -0.1524(11) 0.5767(10) 0.0968(9)
C10A C 0.5162(12) -0.0900(10) 0.5875(10)
H6A H 0.6692(12) 0.1064(10) 0.7440(9)
H5A H 0.3543(11) -0.2569(10) 0.4014(9)
C1A C 1.2463(11) 1.3015(10) 0.5912(9)
C5A C -0.2872(11) 0.5275(9) -0.1894(9)
C9A C 0.5275(13) -0.1885(10) 0.6813(10)
O1A_2 O 1.3317(7) 1.3267(6) 0.5259(7)
O2A O 1.2583(8) 1.3964(6) 0.6973(7)
O3A_2 O -0.3082(7) 0.5242(7) -0.3146(6)
O4A O -0.3821(8) 0.5410(7) -0.1351(7)
O5A_2 O 0.4556(8) -0.3310(6) 0.6215(7)
O6A O 0.5970(11) -0.1335(8) 0.8158(7)
Zn1_2 Zn 1.5000 1.5000 0.5000
Zn2A Zn 1.4272(1) 1.6026(1) 0.7893(1)
Zn1_3 Zn -0.5000 0.5000 -0.5000
Zn2A_2 Zn -0.5728(1) 0.6026(1) -0.2107(1)
Zn1_4 Zn 0.5000 -0.5000 0.5000
Zn2A_3 Zn 0.4272(1) -0.3974(1) 0.7893(1)
O2A_2 O 0.2583(8) -0.6036(6) 0.6973(7)
O4A_2 O 0.6179(8) -0.4590(7) 0.8649(7)
O7A O 0.4613(8) -0.3376(7) 1.0017(7)
O8A O 0.2471(10) -0.3106(9) 0.7598(8)
C13A C 0.5728(18) -0.1977(13) 1.1054(12)
H7A H 0.5180(25) -0.1518(47) 1.1459(72)
H8A H 0.6543(64) -0.2113(17) 1.1809(53)
H9A H 0.6225(84) -0.1342(38) 1.0604(25)
C14A C 0.1449(17) -0.2994(18) 0.6331(13)
H10A H 0.1577(82) -0.1971(25) 0.6472(34)
H11A H 0.1711(78) -0.331(10) 0.5563(27)
H12A H 0.0350(19) -0.3622(82) 0.6082(56)
O9 O 0.7869(12) 0.1330(11) 0.0386(10)
C15 C 0.9366(21) 0.1243(16) 0.0896(18)
H13 H 0.7317(73) 0.085(15) 0.072(14)
H14 H 0.9776(64) 0.132(12) 0.0189(53)
H15 H 0.9244(31) 0.0298(53) 0.106(11)
H16 H 1.0108(42) 0.2046(73) 0.1784(4)
loop_
_geom_bond_atom_site_label_1
_geom_bond_atom_site_label_2
_geom_bond_site_symmetry_1
_geom_bond_site_symmetry_2
O1 C1 1_555 1_555
O2 C1 1_555 1_555
C1 C2 1_555 1_555
C2 C3 1_555 1_555
C3 H1 1_555 1_555
C4 C2 1_555 1_555
O3 C5 1_555 1_555
O4 C5 1_555 1_555
C5 C6 1_555 1_555
C6 C7 1_555 1_555
C7 H3 1_555 1_555
C8 C6 1_555 1_555
O5 C9 1_555 1_555
O6 C9 1_555 1_555
C9 C10 1_555 1_555
C10 C11 1_555 1_555
C11 H5 1_555 1_555
C12 C10 1_555 1_555
O7 C13 1_555 1_555
C13 H7 1_555 1_555
O8 C14 1_555 1_555
C14 H10 1_555 1_555
H2 C4 1_555 1_555
H4 C8 1_555 1_555
H6 C12 1_555 1_555
H8 C13 1_555 1_555
H9 C13 1_555 1_555
H11 C14 1_555 1_555
H12 C14 1_555 1_555
Zn1 O1 1_555 1_555
Zn2 O2 1_555 1_555
O9 C15 1_555 1_555
C15 H14 1_555 1_555
H13 O9 1_555 1_555
H15 C15 1_555 1_555
H16 C15 1_555 1_555
C4A C3 1_555 1_555
C3A C4 1_555 1_555
C8A C7 1_555 1_555
C7A C8 1_555 1_555
C12A C11 1_555 1_555
C11A C12 1_555 1_555
O1A Zn1 1_555 1_555
O3A Zn1 1_555 1_555
O5A Zn1 1_555 1_555
C2A C4A 1_555 1_555
H2A C4A 1_555 1_555
H1A C3A 1_555 1_555
C6A C8A 1_555 1_555
H4A C8A 1_555 1_555
H3A C7A 1_555 1_555
C10A C12A 1_555 1_555
H6A C12A 1_555 1_555
H5A C11A 1_555 1_555
C1A C2A 1_555 1_555
C5A C6A 1_555 1_555
C9A C10A 1_555 1_555
O1A_2 C1A 1_555 1_555
O2A C1A 1_555 1_555
O3A_2 C5A 1_555 1_555
O4A C5A 1_555 1_555
O5A_2 C9A 1_555 1_555
O6A C9A 1_555 1_555
Zn1_2 O1A_2 1_555 1_555
Zn2A O2A 1_555 1_555
Zn1_3 O3A_2 1_555 1_555
Zn2A_2 O4A 1_555 1_555
Zn1_4 O5A_2 1_555 1_555
Zn2A_3 O5A_2 1_555 1_555
O2A_2 Zn2A_3 1_555 1_555
O4A_2 Zn2A_3 1_555 1_555
O7A Zn2A_3 1_555 1_555
O8A Zn2A_3 1_555 1_555
C13A O7A 1_555 1_555
H7A C13A 1_555 1_555
H8A C13A 1_555 1_555
H9A C13A 1_555 1_555
C14A O8A 1_555 1_555
H10A C14A 1_555 1_555
H11A C14A 1_555 1_555
H12A C14A 1_555 1_555
O3 Zn1 1_555 1_555
O4 Zn2 1_555 1_555
O5 Zn1 1_555 1_555
O5 Zn2 1_555 1_555
O7 Zn2 1_555 1_555
O8 Zn2 1_555 1_555
C3A C2A 1_555 1_555
C7A C6A 1_555 1_555
C11A C10A 1_555 1_555

#END
