
#######################################################################
#
#                 Cambridge Crystallographic Data Centre
#                                CCDC 
#
#######################################################################
#
# If this CIF has been generated from an entry in the Cambridge 
# Structural Database, then it will include bibliographic, chemical, 
# crystal, experimental, refinement or atomic coordinate data resulting 
# from the CCDC's data processing and validation procedures.
#
#######################################################################

data_PURVUT
_symmetry_cell_setting           monoclinic
_symmetry_space_group_name_H-M   'C 2/c'
_symmetry_Int_Tables_number      15
_space_group_name_Hall           '-C 2yn'
loop_
_symmetry_equiv_pos_site_id
_symmetry_equiv_pos_as_xyz
1 x,y,z
2 -x,y,1/2-z
3 1/2+x,1/2+y,z
4 1/2-x,1/2+y,1/2-z
5 -x,-y,-z
6 x,-y,1/2+z
7 1/2-x,1/2-y,-z
8 1/2+x,1/2-y,1/2+z
_cell_length_a                   10.900(3)
_cell_length_b                   14.474(4)
_cell_length_c                   13.488(4)
_cell_angle_alpha                90
_cell_angle_beta                 99.24(2)
_cell_angle_gamma                90
_cell_volume                     2100.34
loop_
_atom_site_label
_atom_site_type_symbol
_atom_site_fract_x
_atom_site_fract_y
_atom_site_fract_z
S1 S 0.1046(1) 0.0740(1) 0.6677(1)
C1 C 0.1102(4) 0.1105(3) 0.5492(3)
C2 C 0.0522(4) 0.1962(4) 0.4996(3)
C3 C 0.1018(5) 0.2034(5) 0.4011(4)
C4 C 0.1558(6) 0.1097(4) 0.3861(4)
N1 N 0.1682(3) 0.0658(3) 0.4855(3)
C5 C 0.2347(5) -0.0217(4) 0.5044(5)
C6 C 0.3731(5) -0.0112(3) 0.5020(5)
C7 C 0.4497(6) 0.0325(5) 0.5792(6)
C8 C 0.4258(6) -0.0433(5) 0.4237(6)
N2 N 0.1956(3) 0.2748(3) 0.8031(3)
O1 O 0.1538(3) 0.2148(3) 0.8575(2)
O2 O 0.1247(3) 0.2932(2) 0.7206(2)
O3 O 0.2953(4) 0.3126(3) 0.8272(3)
Ni1 Ni 0.0000 0.1871(1) 0.7500
H1 H 0.0757(4) 0.2500(4) 0.5411(3)
H2 H -0.0377(4) 0.1911(4) 0.4877(3)
H3 H 0.0354(5) 0.2180(5) 0.3464(4)
H4 H 0.1651(5) 0.2508(5) 0.4048(4)
H5 H 0.1008(6) 0.0743(4) 0.3365(4)
H6 H 0.2361(6) 0.1154(4) 0.3644(4)
H7 H 0.2000(5) -0.0665(4) 0.4540(5)
H8 H 0.2231(5) -0.0453(4) 0.5696(5)
H9 H 0.4166(6) 0.0550(5) 0.6338(6)
H10 H 0.3762(6) -0.0732(5) 0.3709(6)
C8D C 0.5742(6) 0.0433(5) 0.5763(6)
C6D C 0.6269(5) 0.0112(3) 0.4980(5)
C5D C 0.7653(5) 0.0217(4) 0.4956(5)
N1D N 0.8318(3) -0.0658(3) 0.5145(3)
C1D C 0.8898(4) -0.1105(3) 0.4508(3)
S1D S 0.8954(1) -0.0740(1) 0.3323(1)
C2D C 0.9478(4) -0.1962(4) 0.5004(3)
C3D C 0.8982(5) -0.2034(5) 0.5989(4)
C4D C 0.8442(6) -0.1097(4) 0.6139(4)
H5D H 0.8992(6) -0.0743(4) 0.6635(4)
H6D H 0.7639(6) -0.1154(4) 0.6356(4)
H3D H 0.9646(5) -0.2180(5) 0.6536(4)
H4D H 0.8349(5) -0.2508(5) 0.5952(4)
H1D H 0.9243(4) -0.2500(4) 0.4589(3)
H2D H 1.0377(4) -0.1911(4) 0.5123(3)
H7D H 0.8000(5) 0.0665(4) 0.5460(5)
H8D H 0.7769(5) 0.0453(4) 0.4304(5)
C7D C 0.5503(6) -0.0325(5) 0.4208(6)
H9D H 0.5834(6) -0.0550(5) 0.3662(6)
H10D H 0.6238(6) 0.0732(5) 0.6291(6)
N2A N -0.1956(3) 0.2748(3) 0.6969(3)
O1A O -0.1538(3) 0.2148(3) 0.6425(2)
O2A O -0.1247(3) 0.2932(2) 0.7794(2)
O3A O -0.2953(4) 0.3126(3) 0.6728(3)
S1A S -0.1046(1) 0.0740(1) 0.8323(1)
Ni1D Ni 1.0000 -0.1871(1) 0.2500
loop_
_geom_bond_atom_site_label_1
_geom_bond_atom_site_label_2
_geom_bond_site_symmetry_1
_geom_bond_site_symmetry_2
S1 C1 1_555 1_555
C1 C2 1_555 1_555
C2 C3 1_555 1_555
C3 C4 1_555 1_555
C4 N1 1_555 1_555
N1 C1 1_555 1_555
C5 N1 1_555 1_555
C6 C5 1_555 1_555
C7 C6 1_555 1_555
C8 C6 1_555 1_555
N2 O1 1_555 1_555
O1 Ni1 1_555 1_555
O2 N2 1_555 1_555
O3 N2 1_555 1_555
Ni1 S1 1_555 1_555
H1 C2 1_555 1_555
H2 C2 1_555 1_555
H3 C3 1_555 1_555
H4 C3 1_555 1_555
H5 C4 1_555 1_555
H6 C4 1_555 1_555
H7 C5 1_555 1_555
H8 C5 1_555 1_555
H9 C7 1_555 1_555
H10 C8 1_555 1_555
C8D C7 1_555 1_555
C6D C8D 1_555 1_555
C5D C6D 1_555 1_555
N1D C5D 1_555 1_555
C1D N1D 1_555 1_555
S1D C1D 1_555 1_555
C2D C1D 1_555 1_555
C3D C2D 1_555 1_555
C4D N1D 1_555 1_555
H5D C4D 1_555 1_555
H6D C4D 1_555 1_555
H3D C3D 1_555 1_555
H4D C3D 1_555 1_555
H1D C2D 1_555 1_555
H2D C2D 1_555 1_555
H7D C5D 1_555 1_555
H8D C5D 1_555 1_555
C7D C8 1_555 1_555
H9D C7D 1_555 1_555
H10D C8D 1_555 1_555
N2A O1A 1_555 1_555
O1A Ni1 1_555 1_555
O2A Ni1 1_555 1_555
O3A N2A 1_555 1_555
S1A Ni1 1_555 1_555
Ni1D S1D 1_555 1_555
O2 Ni1 1_555 1_555
C6D C7D 1_555 1_555
C3D C4D 1_555 1_555
N2A O2A 1_555 1_555

#END
