
#######################################################################
#
#                 Cambridge Crystallographic Data Centre
#                                CCDC 
#
#######################################################################
#
# If this CIF has been generated from an entry in the Cambridge 
# Structural Database, then it will include bibliographic, chemical, 
# crystal, experimental, refinement or atomic coordinate data resulting 
# from the CCDC's data processing and validation procedures.
#
#######################################################################

data_PURVAA
_symmetry_cell_setting           monoclinic
_symmetry_space_group_name_H-M   'P 21/c'
_symmetry_Int_Tables_number      14
_space_group_name_Hall           '-P 2ybc'
loop_
_symmetry_equiv_pos_site_id
_symmetry_equiv_pos_as_xyz
1 x,y,z
2 -x,1/2+y,1/2-z
3 -x,-y,-z
4 x,1/2-y,1/2+z
_cell_length_a                   16.0135(18)
_cell_length_b                   14.0197(13)
_cell_length_c                   32.858(4)
_cell_angle_alpha                90
_cell_angle_beta                 92.339(3)
_cell_angle_gamma                90
_cell_volume                     7370.62
loop_
_atom_site_label
_atom_site_type_symbol
_atom_site_fract_x
_atom_site_fract_y
_atom_site_fract_z
C1 C 0.7452(5) 0.3637(6) 0.48623(18)
C2 C 0.6627(5) 0.3464(5) 0.4737(2)
H1 H 0.6295 0.3038 0.4887
C3 C 0.6286(4) 0.3913(6) 0.4391(2)
H2 H 0.5721 0.3795 0.4306
C4 C 0.6770(4) 0.4536(5) 0.41716(18)
C5 C 0.7596(4) 0.4709(5) 0.4297(2)
H3 H 0.7927 0.5135 0.4147
C6 C 0.7937(4) 0.4260(6) 0.4642(2)
H4 H 0.8501 0.4379 0.4728
Co1 Co 1.01565(6) -0.44047(7) 0.65311(2)
Br1 Br 1.06957(7) -0.59567(7) 0.64837(3)
Br2 Br 0.91244(5) -0.42443(7) 0.70188(2)
C7 C 0.5472(4) 0.0698(5) 0.6566(2)
C8 C 0.4695(4) 0.0962(5) 0.6374(2)
C9 C 0.4402(4) 0.0422(5) 0.6037(2)
C10 C 0.4862(4) -0.0311(5) 0.5878(2)
C11 C 0.5645(4) -0.0534(5) 0.60640(19)
C12 C 0.5926(4) -0.0054(5) 0.64239(18)
C13 C 0.4174(4) 0.1782(6) 0.6530(2)
H5 H 0.3848 0.2068 0.6302
H6 H 0.4545 0.2265 0.6656
H7 H 0.3794 0.1542 0.6733
C14 C 0.3537(4) 0.0635(6) 0.5852(2)
C15 C 0.2847(4) 0.0346(6) 0.6046(2)
H8 H 0.2911 -0.0014 0.6290
C16 C 0.2032(4) 0.0576(6) 0.5888(2)
H9 H 0.1553 0.0372 0.6026
C17 C 0.1945(4) 0.1093(6) 0.5536(2)
S1 S 0.09297(12) 0.14064(17) 0.53338(6)
C18 C 0.2648(5) 0.1367(7) 0.5332(2)
H10 H 0.2593 0.1698 0.5080
C19 C 0.3423(5) 0.1152(7) 0.5501(2)
H11 H 0.3902 0.1371 0.5368
C20 C 0.0645(5) 0.2347(7) 0.5661(3)
H12 H 0.0631 0.2110 0.5941
H13 H 0.0092 0.2588 0.5574
H14 H 0.1056 0.2864 0.5647
C21 C 0.4505(4) -0.0900(6) 0.5520(2)
H15 H 0.3907 -0.0766 0.5480
H16 H 0.4586 -0.1580 0.5577
H17 H 0.4794 -0.0730 0.5272
C22 C 0.6688(4) -0.0406(5) 0.66573(19)
H18 H 0.7173 -0.0025 0.6585
H19 H 0.6785 -0.1077 0.6590
H20 H 0.6605 -0.0347 0.6950
C23 C 0.6154(4) -0.1358(5) 0.5890(2)
H21 H 0.5913 -0.1505 0.5615
H22 H 0.6068 -0.1926 0.6062
C24 C 0.7103(4) -0.1220(5) 0.58539(18)
C25 C 0.7644(4) -0.1932(5) 0.60080(19)
C26 C 0.8524(4) -0.1790(5) 0.59706(19)
C27 C 0.8832(4) -0.1001(5) 0.57720(19)
C28 C 0.8280(4) -0.0301(5) 0.56083(17)
C29 C 0.7410(4) -0.0439(5) 0.56434(17)
C30 C 0.7337(5) -0.2826(6) 0.6210(2)
H23 H 0.7293 -0.2712 0.6503
H24 H 0.7732 -0.3347 0.6168
H25 H 0.6787 -0.2999 0.6091
C31 C 0.9113(4) -0.2545(5) 0.61443(19)
H26 H 0.9649 -0.2242 0.6232
H27 H 0.8868 -0.2834 0.6387
N1 N 0.9272(3) -0.3292(4) 0.58483(15)
N2 N 0.9657(4) -0.4106(4) 0.59693(16)
C32 C 0.9697(6) -0.4632(6) 0.5633(2)
H28 H 0.9924 -0.5257 0.5622
C33 C 0.9350(7) -0.4125(8) 0.5292(2)
H29 H 0.9317 -0.4326 0.5016
C34 C 0.9075(5) -0.3284(7) 0.5450(2)
H30 H 0.8795 -0.2787 0.5303
C35 C 0.9781(4) -0.0898(6) 0.5727(2)
H31 H 1.0057 -0.0819 0.5996
H32 H 0.9893 -0.0338 0.5559
H33 H 0.9997 -0.1470 0.5596
C36 C 0.6802(4) 0.0271(6) 0.5436(2)
H34 H 0.6249 -0.0023 0.5401
H35 H 0.7006 0.0448 0.5169
H36 H 0.6764 0.0844 0.5606
C37 C 0.8609(4) 0.0525(5) 0.53622(19)
H37 H 0.9227 0.0514 0.5391
H38 H 0.8457 0.0403 0.5072
C38 C 0.8324(4) 0.1528(5) 0.54611(18)
C39 C 0.8030(4) 0.2134(6) 0.51442(19)
C40 C 0.7773(4) 0.3038(6) 0.5225(2)
C41 C 0.7781(5) 0.3403(5) 0.5632(2)
C42 C 0.8093(4) 0.2803(6) 0.5953(2)
C43 C 0.8380(4) 0.1890(5) 0.58613(19)
C44 C 0.7997(5) 0.1782(7) 0.4703(2)
H39 H 0.7818 0.2305 0.4522
H40 H 0.7598 0.1254 0.4674
H41 H 0.8552 0.1562 0.4631
S2 S 0.6292(2) 0.5135(2) 0.37239(8)
C45 C 0.7142(7) 0.5875(7) 0.3659(3)
H42 H 0.7218 0.6294 0.3896
H43 H 0.7044 0.6262 0.3413
H44 H 0.7645 0.5487 0.3630
C46 C 0.7503(7) 0.4417(6) 0.5708(3)
H45 H 0.7326 0.4716 0.5449
H46 H 0.7968 0.4779 0.5834
H47 H 0.7034 0.4412 0.5891
C47 C 0.8801(4) 0.1289(5) 0.6198(2)
H48 H 0.9051 0.1710 0.6408
H49 H 0.9237 0.0894 0.6083
H50 H 0.8384 0.0878 0.6320
C48 C 0.8135(5) 0.3182(5) 0.6393(2)
H51 H 0.7821 0.3790 0.6396
H52 H 0.8726 0.3332 0.6466
C49 C 0.7800(4) 0.2534(5) 0.67347(19)
C50 C 0.8303(4) 0.2316(6) 0.7074(2)
C51 C 0.7998(5) 0.1692(6) 0.73640(19)
C52 C 0.7169(4) 0.1346(5) 0.73295(18)
C53 C 0.6654(4) 0.1594(5) 0.69945(19)
C54 C 0.6972(4) 0.2195(5) 0.66969(19)
C55 C 0.9151(5) 0.2763(7) 0.7150(2)
H53 H 0.9324 0.2688 0.7438
H54 H 0.9123 0.3443 0.7082
H55 H 0.9558 0.2449 0.6980
C56 C 0.8576(5) 0.1323(6) 0.7704(2)
H56 H 0.8439 0.0648 0.7760
H57 H 0.9160 0.1349 0.7617
N3 N 0.8503(4) 0.1886(5) 0.80795(16)
N4 N 0.8948(3) 0.1598(4) 0.84238(15)
C57 C 0.8696(5) 0.2180(6) 0.8725(2)
H58 H 0.8893 0.2148 0.9001
C58 C 0.8110(5) 0.2826(7) 0.8572(2)
H59 H 0.7838 0.3315 0.8716
C59 C 0.8008(6) 0.2604(7) 0.8168(3)
H60 H 0.7637 0.2918 0.7979
C60 C 0.6856(6) 0.0729(7) 0.7672(2)
H61 H 0.6244 0.0694 0.7651
H62 H 0.7031 0.1010 0.7935
H63 H 0.7091 0.0086 0.7652
C61 C 0.6395(5) 0.2529(6) 0.6342(2)
H64 H 0.6405 0.2061 0.6121
H65 H 0.6588 0.3148 0.6244
H66 H 0.5824 0.2592 0.6435
C62 C 0.5760(4) 0.1233(6) 0.69583(19)
H67 H 0.5385 0.1787 0.6989
H68 H 0.5674 0.0803 0.7192
Co1A Co 0.98435(6) 0.05953(7) 0.84689(2)
N4A N 1.1052(3) -0.3402(4) 0.65762(15)
loop_
_geom_bond_atom_site_label_1
_geom_bond_atom_site_label_2
_geom_bond_site_symmetry_1
_geom_bond_site_symmetry_2
C1 C2 1_555 1_555
C2 H1 1_555 1_555
C3 C2 1_555 1_555
H2 C3 1_555 1_555
C4 C3 1_555 1_555
C5 C4 1_555 1_555
H3 C5 1_555 1_555
C6 C1 1_555 1_555
H4 C6 1_555 1_555
Co1 Br1 1_555 1_555
Br2 Co1 1_555 1_555
C7 C8 1_555 1_555
C8 C9 1_555 1_555
C9 C10 1_555 1_555
C10 C11 1_555 1_555
C11 C12 1_555 1_555
C12 C7 1_555 1_555
C13 C8 1_555 1_555
H5 C13 1_555 1_555
H6 C13 1_555 1_555
H7 C13 1_555 1_555
C14 C9 1_555 1_555
C15 C14 1_555 1_555
H8 C15 1_555 1_555
C16 C15 1_555 1_555
H9 C16 1_555 1_555
C17 C16 1_555 1_555
S1 C17 1_555 1_555
C18 C17 1_555 1_555
H10 C18 1_555 1_555
C19 C14 1_555 1_555
H11 C19 1_555 1_555
C20 S1 1_555 1_555
H12 C20 1_555 1_555
H13 C20 1_555 1_555
H14 C20 1_555 1_555
C21 C10 1_555 1_555
H15 C21 1_555 1_555
H16 C21 1_555 1_555
H17 C21 1_555 1_555
C22 C12 1_555 1_555
H18 C22 1_555 1_555
H19 C22 1_555 1_555
H20 C22 1_555 1_555
C23 C11 1_555 1_555
H21 C23 1_555 1_555
H22 C23 1_555 1_555
C24 C23 1_555 1_555
C25 C24 1_555 1_555
C26 C25 1_555 1_555
C27 C26 1_555 1_555
C28 C27 1_555 1_555
C29 C24 1_555 1_555
C30 C25 1_555 1_555
H23 C30 1_555 1_555
H24 C30 1_555 1_555
H25 C30 1_555 1_555
C31 C26 1_555 1_555
H26 C31 1_555 1_555
H27 C31 1_555 1_555
N1 C31 1_555 1_555
N2 Co1 1_555 1_555
C32 N2 1_555 1_555
H28 C32 1_555 1_555
C33 C32 1_555 1_555
H29 C33 1_555 1_555
C34 N1 1_555 1_555
H30 C34 1_555 1_555
C35 C27 1_555 1_555
H31 C35 1_555 1_555
H32 C35 1_555 1_555
H33 C35 1_555 1_555
C36 C29 1_555 1_555
H34 C36 1_555 1_555
H35 C36 1_555 1_555
H36 C36 1_555 1_555
C37 C28 1_555 1_555
H37 C37 1_555 1_555
H38 C37 1_555 1_555
C38 C37 1_555 1_555
C39 C38 1_555 1_555
C40 C1 1_555 1_555
C41 C40 1_555 1_555
C42 C41 1_555 1_555
C43 C38 1_555 1_555
C44 C39 1_555 1_555
H39 C44 1_555 1_555
H40 C44 1_555 1_555
H41 C44 1_555 1_555
S2 C4 1_555 1_555
C45 S2 1_555 1_555
H42 C45 1_555 1_555
H43 C45 1_555 1_555
H44 C45 1_555 1_555
C46 C41 1_555 1_555
H45 C46 1_555 1_555
H46 C46 1_555 1_555
H47 C46 1_555 1_555
C47 C43 1_555 1_555
H48 C47 1_555 1_555
H49 C47 1_555 1_555
H50 C47 1_555 1_555
C48 C42 1_555 1_555
H51 C48 1_555 1_555
H52 C48 1_555 1_555
C49 C48 1_555 1_555
C50 C49 1_555 1_555
C51 C50 1_555 1_555
C52 C51 1_555 1_555
C53 C52 1_555 1_555
C54 C49 1_555 1_555
C55 C50 1_555 1_555
H53 C55 1_555 1_555
H54 C55 1_555 1_555
H55 C55 1_555 1_555
C56 C51 1_555 1_555
H56 C56 1_555 1_555
H57 C56 1_555 1_555
N3 C56 1_555 1_555
N4 N3 1_555 1_555
C57 N4 1_555 1_555
H58 C57 1_555 1_555
C58 C57 1_555 1_555
H59 C58 1_555 1_555
C59 N3 1_555 1_555
H60 C59 1_555 1_555
C60 C52 1_555 1_555
H61 C60 1_555 1_555
H62 C60 1_555 1_555
H63 C60 1_555 1_555
C61 C54 1_555 1_555
H64 C61 1_555 1_555
H65 C61 1_555 1_555
H66 C61 1_555 1_555
C62 C7 1_555 1_555
H67 C62 1_555 1_555
H68 C62 1_555 1_555
Co1A N4 1_555 1_555
N4A Co1 1_555 1_555
C5 C6 1_555 1_555
C18 C19 1_555 1_555
C28 C29 1_555 1_555
N1 N2 1_555 1_555
C33 C34 1_555 1_555
C39 C40 1_555 1_555
C42 C43 1_555 1_555
C53 C54 1_555 1_555
C53 C62 1_555 1_555
C58 C59 1_555 1_555

#END
