
#######################################################################
#
#                 Cambridge Crystallographic Data Centre
#                                CCDC 
#
#######################################################################
#
# If this CIF has been generated from an entry in the Cambridge 
# Structural Database, then it will include bibliographic, chemical, 
# crystal, experimental, refinement or atomic coordinate data resulting 
# from the CCDC's data processing and validation procedures.
#
#######################################################################

data_PURWAA
_symmetry_cell_setting           monoclinic
_symmetry_space_group_name_H-M   'C 2/c'
_symmetry_Int_Tables_number      15
_space_group_name_Hall           '-C 2yn'
loop_
_symmetry_equiv_pos_site_id
_symmetry_equiv_pos_as_xyz
1 x,y,z
2 -x,y,1/2-z
3 1/2+x,1/2+y,z
4 1/2-x,1/2+y,1/2-z
5 -x,-y,-z
6 x,-y,1/2+z
7 1/2-x,1/2-y,-z
8 1/2+x,1/2-y,1/2+z
_cell_length_a                   18.284(2)
_cell_length_b                   17.897(3)
_cell_length_c                   31.136(4)
_cell_angle_alpha                90
_cell_angle_beta                 102.378(10)
_cell_angle_gamma                90
_cell_volume                     9951.76
loop_
_atom_site_label
_atom_site_type_symbol
_atom_site_fract_x
_atom_site_fract_y
_atom_site_fract_z
Co1 Co 0.0508(1) 0.1288(1) 0.6243(1)
S1 S 0.1616(1) 0.1015(1) 0.6730(1)
C1 C 0.2277(5) 0.0879(5) 0.6427(3)
C2 C 0.2201(6) 0.1048(6) 0.5947(3)
C3 C 0.2959(7) 0.0882(8) 0.5854(4)
C4 C 0.3415(6) 0.0558(7) 0.6253(3)
N1 N 0.2935(4) 0.0607(4) 0.6585(2)
C5 C 0.3239(5) 0.0372(5) 0.7038(3)
C6 C 0.3319(6) -0.0480(5) 0.7071(3)
C7 C 0.3987(6) -0.0834(5) 0.7096(3)
C8 C 0.4027(6) -0.1601(5) 0.7137(3)
C9 C 0.3400(6) -0.2033(5) 0.7137(3)
C10 C 0.2722(6) -0.1679(6) 0.7113(3)
C11 C 0.2689(6) -0.0904(6) 0.7084(3)
C12 C 0.3461(6) -0.2887(5) 0.7150(3)
N2 N 0.3365(5) -0.3176(4) 0.6704(2)
C13 C 0.2618(6) -0.3168(7) 0.6400(4)
C14 C 0.2732(7) -0.3562(8) 0.5996(4)
C15 C 0.3576(6) -0.3619(6) 0.6047(3)
C16 C 0.3886(6) -0.3420(5) 0.6509(3)
S2 S 0.4805(1) -0.3517(1) 0.6777(1)
S3 S 0.5091(2) -0.4621(1) 0.5708(1)
C17 C 0.5064(6) -0.5444(5) 0.5983(3)
C18 C 0.5426(7) -0.5581(5) 0.6452(4)
C19 C 0.5336(8) -0.6403(6) 0.6529(4)
C20 C 0.4763(8) -0.6655(6) 0.6130(4)
N3 N 0.4730(5) -0.6038(4) 0.5814(3)
C21 C 0.4267(7) -0.6123(7) 0.5366(4)
C22 C 0.3436(7) -0.6132(6) 0.5365(3)
C23 C 0.3087(7) -0.6812(6) 0.5407(4)
C24 C 0.2336(7) -0.6809(6) 0.5441(4)
C25 C 0.1941(6) -0.6163(5) 0.5435(3)
C26 C 0.2301(7) -0.5495(5) 0.5395(3)
C27 C 0.3035(7) -0.5491(6) 0.5359(3)
C28 C 0.1135(6) -0.6180(5) 0.5488(3)
N4 N 0.1095(4) -0.6348(4) 0.5944(2)
C29 C 0.1397(7) -0.5801(5) 0.6293(3)
C30 C 0.1184(7) -0.6117(5) 0.6699(3)
C31 C 0.0984(6) -0.6932(5) 0.6577(3)
C32 C 0.0878(5) -0.6965(5) 0.6096(3)
S4 S 0.0533(2) -0.7714(1) 0.5770(1)
H1 H 0.1820(6) 0.0735(6) 0.5769(3)
H2 H 0.2067(6) 0.1568(6) 0.5886(3)
H3 H 0.2913(7) 0.0534(8) 0.5611(4)
H4 H 0.3188(7) 0.1338(8) 0.5778(4)
H5 H 0.3875(6) 0.0838(7) 0.6349(3)
H6 H 0.3538(6) 0.0042(7) 0.6205(3)
H7 H 0.2910(5) 0.0541(5) 0.7225(3)
H8 H 0.3725(5) 0.0602(5) 0.7142(3)
H9 H 0.4415(6) -0.0559(5) 0.7086(3)
H10 H 0.4490(6) -0.1835(5) 0.7166(3)
H11 H 0.2293(6) -0.1955(6) 0.7116(3)
H12 H 0.2234(6) -0.0664(6) 0.7073(3)
H13 H 0.3947(6) -0.3034(5) 0.7321(3)
H14 H 0.3079(6) -0.3095(5) 0.7288(3)
H15 H 0.2450(6) -0.2659(7) 0.6332(4)
H16 H 0.2251(6) -0.3427(7) 0.6528(4)
H17 H 0.2507(7) -0.4055(8) 0.5975(4)
H18 H 0.2511(7) -0.3280(8) 0.5735(4)
H19 H 0.3720(6) -0.4123(6) 0.5985(3)
H20 H 0.3750(6) -0.3275(6) 0.5850(3)
H21 H 0.5184(7) -0.5288(5) 0.6644(4)
H22 H 0.5952(7) -0.5447(5) 0.6508(4)
H23 H 0.5807(8) -0.6665(6) 0.6549(4)
H24 H 0.5158(8) -0.6488(6) 0.6797(4)
H25 H 0.4919(8) -0.7115(6) 0.6012(4)
H26 H 0.4279(8) -0.6732(6) 0.6203(4)
H27 H 0.4400(7) -0.6584(7) 0.5239(4)
H28 H 0.4371(7) -0.5713(7) 0.5184(4)
H29 H 0.3347(7) -0.7259(6) 0.5412(4)
H30 H 0.2100(7) -0.7261(6) 0.5468(4)
H31 H 0.2043(7) -0.5046(5) 0.5392(3)
H32 H 0.3265(7) -0.5036(6) 0.5329(3)
H33 H 0.0903(6) -0.5699(5) 0.5404(3)
H34 H 0.0859(6) -0.6556(5) 0.5294(3)
H35 H 0.1175(7) -0.5312(5) 0.6222(3)
H36 H 0.1937(7) -0.5759(5) 0.6333(3)
H37 H 0.0758(7) -0.5852(5) 0.6765(3)
H38 H 0.1599(7) -0.6086(5) 0.6951(3)
H39 H 0.1386(6) -0.7262(5) 0.6716(3)
H40 H 0.0529(6) -0.7075(5) 0.6668(3)
Co1B Co 0.5508(1) -0.3712(1) 0.6243(1)
S1B S 0.6616(1) -0.3985(1) 0.6730(1)
Co1_2 Co 0.0508(1) -0.8712(1) 0.6243(1)
S4B S 0.5533(2) -0.2714(1) 0.5770(1)
Cl1 Cl 0.3344(2) 0.2647(2) 0.6929(1)
O1 O 0.2826(17) 0.2809(17) 0.6554(9)
O2 O 0.2824(11) 0.2281(10) 0.7173(6)
O7 O 0.3883(14) 0.2216(14) 0.6802(9)
O8 O 0.3617(18) 0.3219(19) 0.7211(11)
Cl2 Cl -0.4711(2) 0.1247(2) 0.5661(1)
O10 O -0.3977(19) 0.1234(16) 0.5840(11)
O11 O -0.4973(15) 0.0773(14) 0.5976(8)
O12 O -0.4774(11) 0.1832(10) 0.5325(6)
O13 O -0.4888(15) 0.0572(13) 0.5396(8)
C33 C -0.0924(12) 0.4136(11) 0.5499(6)
N5 N -0.1264(12) 0.3446(14) 0.5668(7)
O17 O -0.1070(14) 0.3391(10) 0.6033(7)
O18 O -0.1739(12) 0.3245(20) 0.5404(10)
H41 H -0.1106(12) 0.4177(11) 0.5187(6)
H42 H -0.0389(12) 0.4090(11) 0.5563(6)
H43 H -0.1064(12) 0.4574(11) 0.5641(6)
C34 C 0.1351(11) -0.1887(13) 0.5304(7)
N6 N 0.1636(10) -0.1234(10) 0.5547(7)
O19 O 0.1776(16) -0.0796(11) 0.5356(8)
O20 O 0.1728(12) -0.1284(12) 0.5913(6)
H44 H 0.1230(11) -0.2257(13) 0.5501(7)
H45 H 0.1722(11) -0.2083(13) 0.5158(7)
H46 H 0.0908(11) -0.1761(13) 0.5089(7)
C35 C -0.0866(10) -0.0234(9) 0.7284(6)
N7 N -0.1422(10) -0.0133(7) 0.6934(6)
O21 O -0.1355(9) -0.0217(7) 0.6568(4)
O22 O -0.2050(10) 0.0078(9) 0.7017(6)
H47 H -0.1045(10) -0.0133(9) 0.7547(6)
H48 H -0.0462(10) 0.0099(9) 0.7268(6)
H49 H -0.0693(10) -0.0741(9) 0.7290(6)
C36 C 0.4470(8) 0.1749(7) 0.8065(5)
N8 N 0.4273(7) 0.0985(7) 0.8041(3)
O23 O 0.3659(6) 0.0792(5) 0.8059(3)
O24 O 0.4745(7) 0.0548(7) 0.7991(5)
H50 H 0.4985(8) 0.1801(7) 0.8047(5)
H51 H 0.4402(8) 0.1952(7) 0.8339(5)
H52 H 0.4158(8) 0.2014(7) 0.7826(5)
O3? O 0.3497(16) 0.2306(15) 0.6557(9)
O4? O 0.4054(13) 0.2967(13) 0.7150(7)
O5? O 0.2905(16) 0.3242(16) 0.6775(9)
O6? O 0.3202(10) 0.2060(9) 0.7237(5)
O9? O -0.4283(15) 0.0743(15) 0.5480(9)
O14? O -0.4167(10) 0.1735(10) 0.5978(6)
O15? O -0.5276(22) 0.1308(19) 0.5873(13)
O16? O -0.5279(13) 0.1764(12) 0.5480(7)
loop_
_geom_bond_atom_site_label_1
_geom_bond_atom_site_label_2
_geom_bond_site_symmetry_1
_geom_bond_site_symmetry_2
Co1 S1 1_555 1_555
S1 C1 1_555 1_555
C1 C2 1_555 1_555
C2 C3 1_555 1_555
C3 C4 1_555 1_555
C4 N1 1_555 1_555
N1 C1 1_555 1_555
C5 N1 1_555 1_555
C6 C5 1_555 1_555
C7 C6 1_555 1_555
C8 C7 1_555 1_555
C9 C8 1_555 1_555
C10 C9 1_555 1_555
C11 C6 1_555 1_555
C12 C9 1_555 1_555
N2 C12 1_555 1_555
C13 N2 1_555 1_555
C14 C13 1_555 1_555
C15 C14 1_555 1_555
C16 N2 1_555 1_555
S2 C16 1_555 1_555
S3 C17 1_555 1_555
C17 C18 1_555 1_555
C18 C19 1_555 1_555
C19 C20 1_555 1_555
C20 N3 1_555 1_555
N3 C17 1_555 1_555
C21 N3 1_555 1_555
C22 C21 1_555 1_555
C23 C22 1_555 1_555
C24 C23 1_555 1_555
C25 C24 1_555 1_555
C26 C25 1_555 1_555
C27 C22 1_555 1_555
C28 C25 1_555 1_555
N4 C28 1_555 1_555
C29 N4 1_555 1_555
C30 C29 1_555 1_555
C31 C30 1_555 1_555
C32 N4 1_555 1_555
S4 C32 1_555 1_555
Cl1 O1 1_555 1_555
O2 Cl1 1_555 1_555
O7 Cl1 1_555 1_555
O8 Cl1 1_555 1_555
Cl2 O10 1_555 1_555
O11 Cl2 1_555 1_555
O12 Cl2 1_555 1_555
O13 Cl2 1_555 1_555
C33 N5 1_555 1_555
N5 O17 1_555 1_555
O18 N5 1_555 1_555
C34 N6 1_555 1_555
N6 O19 1_555 1_555
O20 N6 1_555 1_555
C35 N7 1_555 1_555
N7 O21 1_555 1_555
O22 N7 1_555 1_555
C36 N8 1_555 1_555
N8 O23 1_555 1_555
O24 N8 1_555 1_555
H1 C2 1_555 1_555
H2 C2 1_555 1_555
H3 C3 1_555 1_555
H4 C3 1_555 1_555
H5 C4 1_555 1_555
H6 C4 1_555 1_555
H7 C5 1_555 1_555
H8 C5 1_555 1_555
H9 C7 1_555 1_555
H10 C8 1_555 1_555
H11 C10 1_555 1_555
H12 C11 1_555 1_555
H13 C12 1_555 1_555
H14 C12 1_555 1_555
H15 C13 1_555 1_555
H16 C13 1_555 1_555
H17 C14 1_555 1_555
H18 C14 1_555 1_555
H19 C15 1_555 1_555
H20 C15 1_555 1_555
H21 C18 1_555 1_555
H22 C18 1_555 1_555
H23 C19 1_555 1_555
H24 C19 1_555 1_555
H25 C20 1_555 1_555
H26 C20 1_555 1_555
H27 C21 1_555 1_555
H28 C21 1_555 1_555
H29 C23 1_555 1_555
H30 C24 1_555 1_555
H31 C26 1_555 1_555
H32 C27 1_555 1_555
H33 C28 1_555 1_555
H34 C28 1_555 1_555
H35 C29 1_555 1_555
H36 C29 1_555 1_555
H37 C30 1_555 1_555
H38 C30 1_555 1_555
H39 C31 1_555 1_555
H40 C31 1_555 1_555
H41 C33 1_555 1_555
H42 C33 1_555 1_555
H43 C33 1_555 1_555
H44 C34 1_555 1_555
H45 C34 1_555 1_555
H46 C34 1_555 1_555
H47 C35 1_555 1_555
H48 C35 1_555 1_555
H49 C35 1_555 1_555
H50 C36 1_555 1_555
H51 C36 1_555 1_555
H52 C36 1_555 1_555
Co1B S2 1_555 1_555
S1B Co1B 1_555 1_555
Co1_2 S4 1_555 1_555
S4B Co1B 1_555 1_555
C10 C11 1_555 1_555
C15 C16 1_555 1_555
S3 Co1B 1_555 1_555
C26 C27 1_555 1_555
C31 C32 1_555 1_555

#END
