
#######################################################################
#
#                 Cambridge Crystallographic Data Centre
#                                CCDC 
#
#######################################################################
#
# If this CIF has been generated from an entry in the Cambridge 
# Structural Database, then it will include bibliographic, chemical, 
# crystal, experimental, refinement or atomic coordinate data resulting 
# from the CCDC's data processing and validation procedures.
#
#######################################################################

data_PURWOQ
_symmetry_cell_setting           monoclinic
_symmetry_space_group_name_H-M   'P c'
_symmetry_Int_Tables_number      7
_space_group_name_Hall           'P -2yc'
loop_
_symmetry_equiv_pos_site_id
_symmetry_equiv_pos_as_xyz
1 x,y,z
2 x,-y,1/2+z
_cell_length_a                   15.7013(17)
_cell_length_b                   16.4754(18)
_cell_length_c                   20.3664(16)
_cell_angle_alpha                90
_cell_angle_beta                 129.034(5)
_cell_angle_gamma                90
_cell_volume                     4092.41
loop_
_atom_site_label
_atom_site_type_symbol
_atom_site_fract_x
_atom_site_fract_y
_atom_site_fract_z
Ni1 Ni 1.03217(13) 0.74105(6) 0.70010(11)
Ni2 Ni 0.03406(13) 0.75756(6) 0.21247(11)
O1 O 0.9609(4) 0.7031(3) 0.5793(3)
H1 H 0.9536 0.6527 0.5678
H2 H 0.9158 0.7283 0.5330
O2 O 1.0418(4) 0.6228(3) 0.7358(4)
H3 H 1.0243 0.5791 0.7078
H4 H 1.0840 0.6082 0.7874
O3 O 1.1026(5) 0.7765(4) 0.8175(4)
H5 H 1.1303 0.8189 0.8480
H6 H 1.1240 0.7376 0.8521
O4 O 1.0173(4) 0.8591(3) 0.6602(4)
H7 H 1.0697 0.8899 0.6975
H8 H 1.0150 0.8633 0.6175
O5 O 0.0755(4) 0.6382(3) 0.2411(4)
H9 H 0.0477 0.5952 0.2116
H10 H 0.0999 0.6244 0.2904
O6 O 0.1199(4) 0.7879(3) 0.3390(4)
H11 H 0.1275 0.8377 0.3525
H12 H 0.1574 0.7622 0.3856
O7 O -0.0079(5) 0.8770(3) 0.1807(4)
H13 H -0.0143 0.9051 0.2123
H14 H 0.0316 0.9053 0.1741
O8 O -0.0567(5) 0.7393(4) 0.0849(4)
H15 H -0.1088 0.7626 0.0393
H16 H -0.0504 0.6931 0.0698
N1 N 0.8797(5) 0.7520(4) 0.6724(4)
N2 N 0.5313(5) 0.8143(3) 0.4420(4)
H17 H 0.5659 0.7842 0.4276
H18 H 0.4963 0.7794 0.4526
N3 N 0.1758(5) 0.7693(4) 0.2232(4)
N4 N -0.1086(5) 0.7426(4) 0.1999(4)
N5 N -0.4598(5) 0.6822(4) -0.0183(4)
H19 H -0.4951 0.7143 -0.0058
H20 H -0.4252 0.7151 -0.0308
N6 N -0.8086(5) 0.7324(4) -0.2649(4)
C1 C -0.6003(6) 0.7218(5) -0.2171(5)
H21 H -0.5292 0.7172 -0.2013
C2 C 0.3578(5) 0.8188(4) 0.2968(5)
C3 C 0.7991(5) 0.7958(4) 0.6085(5)
H22 H 0.8095 0.8199 0.5716
C4 C 0.6155(6) 0.8616(5) 0.5211(5)
H23 H 0.6517 0.9009 0.5090
H24 H 0.5781 0.8928 0.5380
C5 C -0.2866(6) 0.6853(4) 0.1284(5)
C6 C -0.1889(5) 0.6921(4) 0.1424(5)
H25 H -0.1780 0.6595 0.1097
C7 C 0.2609(5) 0.8134(4) 0.2847(5)
H26 H 0.2547 0.8424 0.3218
C8 C 0.8644(6) 0.7172(4) 0.7247(5)
H27 H 0.9218 0.6856 0.7710
C9 C 0.4485(5) 0.8678(4) 0.3695(5)
H28 H 0.4182 0.9062 0.3875
H29 H 0.4843 0.8998 0.3518
C10 C -0.5416(6) 0.6315(5) -0.0933(5)
H30 H -0.5805 0.5966 -0.0802
H31 H -0.5032 0.5958 -0.1062
C11 C 0.7002(6) 0.8086(4) 0.5923(5)
C12 C -0.3026(6) 0.7294(5) 0.1767(5)
H32 H -0.3683 0.7242 0.1694
C13 C 0.7673(6) 0.7265(4) 0.7125(5)
H33 H 0.7584 0.7009 0.7496
C14 C -0.2197(6) 0.7821(5) 0.2368(5)
H34 H -0.2285 0.8146 0.2707
C15 C -0.3756(6) 0.6313(4) 0.0580(5)
H35 H -0.4111 0.6010 0.0770
H36 H -0.3432 0.5914 0.0429
C16 C -0.7293(6) 0.6907(5) -0.1962(5)
H37 H -0.7459 0.6649 -0.1637
C17 C 0.3667(6) 0.7797(5) 0.2422(5)
H38 H 0.4316 0.7837 0.2481
C18 C -0.1245(6) 0.7866(4) 0.2464(5)
H39 H -0.0681 0.8224 0.2877
C19 C -0.6797(6) 0.7667(5) -0.2866(5)
H40 H -0.6644 0.7944 -0.3190
C20 C -0.7839(6) 0.7704(5) -0.3084(5)
H41 H -0.8392 0.8015 -0.3564
C21 C 0.2773(6) 0.7335(5) 0.1771(6)
H42 H 0.2806 0.7052 0.1382
C22 C -0.6245(6) 0.6832(4) -0.1702(5)
C23 C 0.1856(6) 0.7297(4) 0.1705(5)
H43 H 0.1257 0.6976 0.1266
C24 C 0.6844(6) 0.7730(4) 0.6463(5)
H44 H 0.6178 0.7808 0.6375
Ni1_2 Ni -0.96783(13) 0.74105(6) -0.29990(11)
N6_2 N 1.1914(5) 0.7324(4) 0.7351(4)
Ni3 Ni 0.55056(13) 0.48658(6) 0.72833(11)
O9 O 0.5815(4) 0.6085(3) 0.7476(4)
H45 H 0.5979 0.6286 0.7927
H46 H 0.5344 0.6408 0.7085
O10 O 0.4725(5) 0.5011(3) 0.6009(4)
H47 H 0.4312 0.4617 0.5702
H48 H 0.4892 0.5240 0.5730
O11 O 0.5110(4) 0.3653(3) 0.7005(4)
H49 H 0.4865 0.3510 0.6513
H50 H 0.5620 0.3317 0.7338
O12 O 0.6250(4) 0.4566(3) 0.8525(4)
H51 H 0.6412 0.4068 0.8654
H52 H 0.6835 0.4824 0.8896
N7 N 0.4022(6) 0.5030(4) 0.7082(5)
N8 N 0.0555(5) 0.5717(4) 0.4819(4)
H53 H 0.0176 0.5434 0.4944
H54 H 0.0868 0.5353 0.4693
N9 N -0.2986(5) 0.5251(4) 0.2517(4)
C25 C -0.2167(6) 0.5700(4) 0.3131(5)
H55 H -0.2282 0.6012 0.3462
C26 C 0.3256(5) 0.5536(4) 0.6476(5)
H56 H 0.3409 0.5826 0.6158
C27 C -0.1839(7) 0.4833(5) 0.2182(6)
H57 H -0.1749 0.4520 0.1837
C28 C -0.0996(6) 0.5300(4) 0.2823(5)
H58 H -0.0318 0.5318 0.2924
C29 C -0.1138(5) 0.5746(4) 0.3325(5)
C30 C 0.3802(6) 0.4618(5) 0.7520(5)
H59 H 0.4331 0.4245 0.7939
C31 C 0.1433(5) 0.6195(4) 0.5573(5)
H60 H 0.1808 0.6539 0.5426
H61 H 0.1100 0.6558 0.5745
C32 C 0.2829(7) 0.4714(5) 0.7388(6)
H62 H 0.2703 0.4422 0.7722
C33 C -0.2816(6) 0.4821(4) 0.2042(5)
H63 H -0.3397 0.4498 0.1593
C34 C 0.2245(6) 0.5659(4) 0.6289(5)
C35 C -0.0233(6) 0.6246(4) 0.4057(5)
H64 H -0.0550 0.6660 0.4200
H65 H 0.0167 0.6531 0.3897
C36 C 0.2043(6) 0.5237(5) 0.6766(5)
H66 H 0.1370 0.5307 0.6666
Ni3A Ni -0.44944(13) 0.51342(6) 0.22833(11)
N9A N 0.7014(5) 0.4749(4) 0.7517(4)
Ni4 Ni 0.51705(13) 1.00823(5) 0.18457(11)
O13 O 0.5285(4) 1.1270(3) 0.2214(3)
H67 H 0.5283 1.1630 0.1915
H68 H 0.5835 1.1382 0.2721
O14 O 0.5977(5) 0.9773(3) 0.3076(4)
H69 H 0.6332 0.9372 0.3404
H70 H 0.6067 1.0154 0.3396
O15 O 0.5117(4) 0.8845(3) 0.1576(3)
H71 H 0.5750 0.8637 0.1927
H72 H 0.4910 0.8793 0.1079
O16 O 0.4413(4) 1.0504(3) 0.0633(3)
H73 H 0.4047 1.0225 0.0180
H74 H 0.4401 1.0986 0.0478
N10 N 0.3671(5) 0.9930(3) 0.1600(4)
N11 N 0.0231(5) 0.9275(4) -0.0662(4)
H75 H 0.0581 0.9596 -0.0790
H76 H -0.0109 0.9604 -0.0532
N12 N -0.3336(6) 0.9829(4) -0.2934(5)
C37 C 0.2876(5) 0.9471(4) 0.0960(5)
H77 H 0.2981 0.9247 0.0586
C38 C -0.3203(7) 1.0190(5) -0.3447(5)
H78 H -0.3793 1.0502 -0.3904
C39 C 0.3506(6) 1.0249(5) 0.2120(5)
H79 H 0.4060 1.0584 0.2574
C40 C 0.1749(6) 0.9628(4) 0.1354(5)
H80 H 0.1094 0.9521 0.1272
C41 C 0.1902(6) 0.9306(4) 0.0815(5)
C42 C -0.2498(6) 0.9402(5) -0.2287(5)
H81 H -0.2579 0.9150 -0.1909
C43 C -0.1511(6) 0.9307(5) -0.2141(6)
C44 C 0.1048(6) 0.8770(5) 0.0080(6)
H82 H 0.1407 0.8399 -0.0061
H83 H 0.0678 0.8438 0.0239
C45 C 0.2558(7) 1.0109(5) 0.2016(6)
H84 H 0.2467 1.0340 0.2396
C46 C -0.0623(6) 0.8765(5) -0.1430(6)
H85 H -0.0271 0.8455 -0.1618
H86 H -0.0953 0.8372 -0.1279
C47 C -0.1390(7) 0.9671(6) -0.2678(6)
H87 H -0.0728 0.9611 -0.2597
C48 C -0.2252(7) 1.0134(6) -0.3351(6)
H88 H -0.2186 1.0402 -0.3730
Ni4A Ni -0.48295(13) 0.99177(5) -0.31543(11)
N12A N 0.6664(6) 1.0171(4) 0.2066(5)
S1 S 0.2124(2) 0.61801(13) 0.97106(16)
O17 O 0.1948(5) 0.5821(3) 0.8977(4)
O18 O 0.3228(8) 0.6328(5) 1.0300(6)
O19 O 0.1740(7) 0.5638(5) 1.0041(6)
O20 O 0.1449(8) 0.6918(6) 0.9435(6)
S2 S 0.1739(2) 0.99414(12) 0.86106(18)
O21 O 0.2860(5) 1.0173(4) 0.8985(4)
O22 O 0.1751(5) 0.9162(3) 0.8962(4)
O23 O 0.1236(5) 1.0550(4) 0.8811(4)
O24 O 0.1063(5) 0.9881(3) 0.7680(4)
S3 S 0.38153(18) 0.27300(11) 0.04332(15)
O25 O 0.2659(4) 0.2609(3) 0.0048(4)
O26 O 0.4164(4) 0.2112(3) 0.0128(4)
O27 O 0.3924(4) 0.3543(3) 0.0192(4)
O28 O 0.4501(4) 0.2689(3) 0.1368(4)
S4 S 0.67764(19) 0.13889(15) 0.45964(15)
O29 O 0.6000(6) 0.0634(4) 0.4193(5)
O30 O 0.7880(5) 0.1020(5) 0.5201(5)
O31 O 0.6693(6) 0.1739(5) 0.3897(4)
O32 O 0.6479(6) 0.1879(5) 0.4952(4)
S5 S 0.69267(19) 0.23068(11) 0.87814(15)
O37 O 0.6492(5) 0.2935(3) 0.9030(4)
O38 O 0.6230(4) 0.2297(3) 0.7851(3)
O39 O 0.8062(4) 0.2491(3) 0.9157(4)
O40 O 0.6865(5) 0.1512(3) 0.9075(4)
S6 S 0.8940(2) 0.52122(12) 0.04849(16)
O41 O 0.9488(5) 0.5131(3) 0.1390(4)
O42 O 0.9384(6) 0.5907(4) 0.0348(4)
O43 O 0.7768(4) 0.5324(3) 0.0027(4)
O44 O 0.9125(5) 0.4476(4) 0.0186(4)
O45 O 0.1773(4) 0.4183(3) 0.8995(4)
H89 H 0.2390 0.3944 0.9305
H90 H 0.1913 0.4666 0.8944
O46 O 0.1520(5) 0.1383(3) 1.0134(4)
H91 H 0.1562 0.1031 0.9851
H92 H 0.1900 0.1782 1.0184
O47 O 0.4223(5) 0.7804(4) 0.0190(4)
O48 O 0.4017(6) 0.1147(5) 0.4067(5)
H93 H 0.4454 0.0986 0.3981
H94 H 0.4326 0.1020 0.4576
O49 O 0.8713(12) 0.7949(8) 0.9471(8)
O50 O 0.6577(7) 0.6633(6) 0.9009(6)
H95 H 0.7134 0.6324 0.9299
H96 H 0.6765 0.7093 0.8948
O51 O 0.8967(7) 0.0253(5) 0.4777(6)
H97 H 0.8771 0.0625 0.4947
H98 H 0.9139 -0.0169 0.5077
O53 O 0.9434(7) 0.6637(6) 0.9159(6)
H101 H 0.9150 0.6351 0.9324
H102 H 0.9955 0.6351 0.9261
O54 O 0.6945(5) 0.3949(3) 0.0342(4)
H103 H 0.6917 0.3610 0.0014
H104 H 0.7108 0.4399 0.0243
O55 O 0.9687(6) 0.8681(5) 0.5045(5)
H105 H 0.9229 0.8292 0.4812
H106 H 0.9983 0.8695 0.4811
O58 O 0.4684(5) 0.3553(5) 0.9276(5)
H107 H 0.5293 0.3761 0.9685
H108 H 0.4210 0.3639 0.9345
O33? O 0.6781(9) 0.2369(4) 0.4555(6)
O34? O 0.7918(6) 0.1203(7) 0.5203(6)
O35? O 0.6257(8) 0.1132(5) 0.3788(5)
O36? O 0.6205(8) 0.1250(7) 0.4926(6)
O52? O 0.8535(18) -0.0597(13) 0.5174(14)
H99? H 0.8841 -0.0198 0.5514
H100? H 0.7898 -0.0668 0.5024
O56? O 0.9566(15) 0.9240(12) 0.4432(12)
O57? O 0.7430(11) 0.7000(12) 0.8657(11)
loop_
_geom_bond_atom_site_label_1
_geom_bond_atom_site_label_2
_geom_bond_site_symmetry_1
_geom_bond_site_symmetry_2
Ni1 O1 1_555 1_555
Ni2 O5 1_555 1_555
O1 H1 1_555 1_555
H2 O1 1_555 1_555
O2 Ni1 1_555 1_555
H3 O2 1_555 1_555
H4 O2 1_555 1_555
O3 Ni1 1_555 1_555
H5 O3 1_555 1_555
H6 O3 1_555 1_555
O4 Ni1 1_555 1_555
H7 O4 1_555 1_555
H8 O4 1_555 1_555
O5 H9 1_555 1_555
H10 O5 1_555 1_555
O6 Ni2 1_555 1_555
H11 O6 1_555 1_555
H12 O6 1_555 1_555
O7 Ni2 1_555 1_555
H13 O7 1_555 1_555
H14 O7 1_555 1_555
O8 Ni2 1_555 1_555
H15 O8 1_555 1_555
H16 O8 1_555 1_555
N1 Ni1 1_555 1_555
N2 H17 1_555 1_555
H18 N2 1_555 1_555
N3 Ni2 1_555 1_555
N4 Ni2 1_555 1_555
N5 H19 1_555 1_555
H20 N5 1_555 1_555
N6 C16 1_555 1_555
C1 H21 1_555 1_555
C2 C7 1_555 1_555
C3 N1 1_555 1_555
H22 C3 1_555 1_555
C4 N2 1_555 1_555
H23 C4 1_555 1_555
H24 C4 1_555 1_555
C5 C6 1_555 1_555
C6 N4 1_555 1_555
H25 C6 1_555 1_555
C7 N3 1_555 1_555
H26 C7 1_555 1_555
C8 N1 1_555 1_555
H27 C8 1_555 1_555
C9 N2 1_555 1_555
H28 C9 1_555 1_555
H29 C9 1_555 1_555
C10 N5 1_555 1_555
H30 C10 1_555 1_555
H31 C10 1_555 1_555
C11 C3 1_555 1_555
C12 C5 1_555 1_555
H32 C12 1_555 1_555
C13 C8 1_555 1_555
H33 C13 1_555 1_555
C14 C12 1_555 1_555
H34 C14 1_555 1_555
C15 N5 1_555 1_555
H35 C15 1_555 1_555
H36 C15 1_555 1_555
C16 H37 1_555 1_555
C17 C2 1_555 1_555
H38 C17 1_555 1_555
C18 N4 1_555 1_555
H39 C18 1_555 1_555
C19 C1 1_555 1_555
H40 C19 1_555 1_555
C20 N6 1_555 1_555
H41 C20 1_555 1_555
C21 C17 1_555 1_555
H42 C21 1_555 1_555
C22 C1 1_555 1_555
C23 N3 1_555 1_555
H43 C23 1_555 1_555
C24 C11 1_555 1_555
H44 C24 1_555 1_555
Ni3 O9 1_555 1_555
O9 H45 1_555 1_555
H46 O9 1_555 1_555
O10 Ni3 1_555 1_555
H47 O10 1_555 1_555
H48 O10 1_555 1_555
O11 Ni3 1_555 1_555
H49 O11 1_555 1_555
H50 O11 1_555 1_555
O12 Ni3 1_555 1_555
H51 O12 1_555 1_555
H52 O12 1_555 1_555
N7 Ni3 1_555 1_555
N8 H53 1_555 1_555
H54 N8 1_555 1_555
N9 C25 1_555 1_555
C25 H55 1_555 1_555
C26 N7 1_555 1_555
H56 C26 1_555 1_555
C27 H57 1_555 1_555
C28 C27 1_555 1_555
H58 C28 1_555 1_555
C29 C25 1_555 1_555
C30 N7 1_555 1_555
H59 C30 1_555 1_555
C31 N8 1_555 1_555
H60 C31 1_555 1_555
H61 C31 1_555 1_555
C32 C30 1_555 1_555
H62 C32 1_555 1_555
C33 N9 1_555 1_555
H63 C33 1_555 1_555
C34 C26 1_555 1_555
C35 N8 1_555 1_555
H64 C35 1_555 1_555
H65 C35 1_555 1_555
C36 C32 1_555 1_555
H66 C36 1_555 1_555
Ni4 O13 1_555 1_555
O13 H67 1_555 1_555
H68 O13 1_555 1_555
O14 Ni4 1_555 1_555
H69 O14 1_555 1_555
H70 O14 1_555 1_555
O15 Ni4 1_555 1_555
H71 O15 1_555 1_555
H72 O15 1_555 1_555
O16 Ni4 1_555 1_555
H73 O16 1_555 1_555
H74 O16 1_555 1_555
N10 Ni4 1_555 1_555
N11 H75 1_555 1_555
H76 N11 1_555 1_555
N12 C38 1_555 1_555
C37 N10 1_555 1_555
H77 C37 1_555 1_555
C38 H78 1_555 1_555
C39 N10 1_555 1_555
H79 C39 1_555 1_555
C40 H80 1_555 1_555
C41 C37 1_555 1_555
C42 N12 1_555 1_555
H81 C42 1_555 1_555
C43 C42 1_555 1_555
C44 N11 1_555 1_555
H82 C44 1_555 1_555
H83 C44 1_555 1_555
C45 C39 1_555 1_555
H84 C45 1_555 1_555
C46 N11 1_555 1_555
H85 C46 1_555 1_555
H86 C46 1_555 1_555
C47 C43 1_555 1_555
H87 C47 1_555 1_555
C48 C38 1_555 1_555
H88 C48 1_555 1_555
S1 O17 1_555 1_555
O18 S1 1_555 1_555
O19 S1 1_555 1_555
O20 S1 1_555 1_555
S2 O21 1_555 1_555
O22 S2 1_555 1_555
O23 S2 1_555 1_555
O24 S2 1_555 1_555
S3 O25 1_555 1_555
O26 S3 1_555 1_555
O27 S3 1_555 1_555
O28 S3 1_555 1_555
S4 O29 1_555 1_555
O30 S4 1_555 1_555
O31 S4 1_555 1_555
O32 S4 1_555 1_555
S5 O37 1_555 1_555
O38 S5 1_555 1_555
O39 S5 1_555 1_555
O40 S5 1_555 1_555
S6 O41 1_555 1_555
O42 S6 1_555 1_555
O43 S6 1_555 1_555
O44 S6 1_555 1_555
O45 H89 1_555 1_555
H90 O45 1_555 1_555
O46 H91 1_555 1_555
H92 O46 1_555 1_555
O48 H93 1_555 1_555
H94 O48 1_555 1_555
O50 H95 1_555 1_555
H96 O50 1_555 1_555
O51 H97 1_555 1_555
H98 O51 1_555 1_555
O53 H101 1_555 1_555
H102 O53 1_555 1_555
O54 H103 1_555 1_555
H104 O54 1_555 1_555
O55 H105 1_555 1_555
H106 O55 1_555 1_555
O58 H107 1_555 1_555
H108 O58 1_555 1_555
Ni1_2 N6 1_555 1_555
N6_2 Ni1 1_555 1_555
Ni3A N9 1_555 1_555
N9A Ni3 1_555 1_555
Ni4A N12 1_555 1_555
N12A Ni4 1_555 1_555
C2 C9 1_555 1_555
C4 C11 1_555 1_555
C5 C15 1_555 1_555
C10 C22 1_555 1_555
C13 C24 1_555 1_555
C14 C18 1_555 1_555
C16 C22 1_555 1_555
C19 C20 1_555 1_555
C21 C23 1_555 1_555
C27 C33 1_555 1_555
C28 C29 1_555 1_555
C29 C35 1_555 1_555
C31 C34 1_555 1_555
C34 C36 1_555 1_555
C40 C41 1_555 1_555
C40 C45 1_555 1_555
C41 C44 1_555 1_555
C43 C46 1_555 1_555
C47 C48 1_555 1_555

#END
