
#######################################################################
#
#                 Cambridge Crystallographic Data Centre
#                                CCDC 
#
#######################################################################
#
# If this CIF has been generated from an entry in the Cambridge 
# Structural Database, then it will include bibliographic, chemical, 
# crystal, experimental, refinement or atomic coordinate data resulting 
# from the CCDC's data processing and validation procedures.
#
#######################################################################

data_PURWOP
_symmetry_cell_setting           orthorhombic
_symmetry_space_group_name_H-M   'P c a 21'
_symmetry_Int_Tables_number      29
_space_group_name_Hall           'P 2c -2ac'
loop_
_symmetry_equiv_pos_site_id
_symmetry_equiv_pos_as_xyz
1 x,y,z
2 -x,-y,1/2+z
3 1/2+x,-y,z
4 1/2-x,y,1/2+z
_cell_length_a                   18.3656(4)
_cell_length_b                   16.0416(4)
_cell_length_c                   17.5199(6)
_cell_angle_alpha                90
_cell_angle_beta                 90
_cell_angle_gamma                90
_cell_volume                     5161.6
loop_
_atom_site_label
_atom_site_type_symbol
_atom_site_fract_x
_atom_site_fract_y
_atom_site_fract_z
N1 N -0.0868(4) 0.1607(5) -0.0891(4)
N2 N -0.1568(3) 0.1577(5) -0.1234(5)
C1 C -0.1503(4) 0.1147(6) -0.1939(5)
H1 H -0.1887 0.1036 -0.2288
C2 C -0.0763(5) 0.0912(6) -0.2032(5)
H2 H -0.0565 0.0617 -0.2454
C3 C -0.0370(3) 0.1197(6) -0.1385(5)
H3 H 0.0136 0.1125 -0.1297
Co1 Co -0.24360(9) 0.22445(10) -0.08856(11)
Br1 Br -0.20987(7) 0.36076(8) -0.05016(11)
Br2 Br -0.30141(8) 0.15154(8) 0.01278(10)
C4 C 0.1886(5) 0.4345(6) 0.2269(6)
C5 C 0.2585(5) 0.4636(6) 0.2224(6)
C6 C 0.2927(6) 0.4578(6) 0.1527(6)
Br3 Br 0.39074(6) 0.50074(9) 0.14484(8)
C7 C 0.2619(6) 0.4214(6) 0.0878(6)
C8 C 0.1899(5) 0.3949(5) 0.0945(5)
C9 C 0.1536(5) 0.4026(5) 0.1616(5)
C10 C 0.3016(7) 0.5015(8) 0.2907(6)
H4 H 0.3245 0.5539 0.2748
H5 H 0.3393 0.4621 0.3072
H6 H 0.2681 0.5123 0.3332
C11 C 0.3054(6) 0.4175(6) 0.0148(6)
H7 H 0.3389 0.4650 0.0127
H8 H 0.2723 0.4197 -0.0290
H9 H 0.3332 0.3654 0.0133
C12 C 0.0699(5) 0.3825(6) 0.1650(6)
H10 H 0.0481 0.3920 0.1147
H11 H 0.0464 0.4189 0.2027
H12 H 0.0629 0.3242 0.1798
C13 C 0.1516(5) 0.3629(6) 0.0225(5)
H13 H 0.1890 0.3560 -0.0177
H14 H 0.1177 0.4069 0.0050
C14 C 0.1082(5) 0.2800(6) 0.0281(6)
C15 C 0.0356(6) 0.2740(6) 0.0060(6)
C16 C 0.0006(5) 0.1961(6) 0.0088(6)
C17 C 0.0369(5) 0.1271(5) 0.0394(6)
C18 C 0.1100(5) 0.1306(5) 0.0630(5)
C19 C 0.1466(4) 0.2082(6) 0.0562(5)
C20 C -0.0026(7) 0.3477(6) -0.0318(8)
H15 H 0.0337 0.3892 -0.0471
H16 H -0.0368 0.3729 0.0044
H17 H -0.0292 0.3283 -0.0769
C21 C -0.0789(5) 0.1913(6) -0.0088(6)
H18 H -0.1015 0.2469 -0.0033
H19 H -0.1032 0.1524 0.0269
C22 C -0.0038(5) 0.0421(6) 0.0389(7)
H20 H -0.0329 0.0368 0.0855
H21 H 0.0317 -0.0034 0.0366
H22 H -0.0358 0.0393 -0.0058
C23 C 0.2282(5) 0.2117(6) 0.0713(6)
H23 H 0.2369 0.2175 0.1262
H24 H 0.2493 0.2596 0.0444
H25 H 0.2510 0.1603 0.0529
C24 C 0.1482(5) 0.0547(5) 0.0959(5)
H26 H 0.1113 0.0104 0.1029
H27 H 0.1834 0.0344 0.0573
C25 C 0.1879(5) 0.0646(6) 0.1691(5)
C26 C 0.2621(5) 0.0366(5) 0.1766(5)
C27 C 0.2929(5) 0.0406(6) 0.2486(6)
Br4 Br 0.39036(6) -0.00115(8) 0.26121(8)
C28 C 0.2596(5) 0.0724(6) 0.3154(6)
C29 C 0.1870(5) 0.1027(5) 0.3067(6)
C30 C 0.1517(6) 0.0942(5) 0.2336(6)
C31 C 0.3041(7) 0.0075(8) 0.1116(8)
H28 H 0.3495 0.0393 0.1081
H29 H 0.2757 0.0155 0.0647
H30 H 0.3153 -0.0518 0.1179
C32 C 0.2967(7) 0.0706(8) 0.3926(7)
H31 H 0.3106 0.1274 0.4072
H32 H 0.3404 0.0357 0.3897
H33 H 0.2633 0.0476 0.4307
C33 C 0.0723(5) 0.1145(6) 0.2288(6)
H34 H 0.0500 0.1081 0.2793
H35 H 0.0487 0.0766 0.1926
H36 H 0.0663 0.1721 0.2114
C34 C 0.1471(6) 0.1358(5) 0.3746(6)
H37 H 0.1830 0.1438 0.4161
H38 H 0.1126 0.0923 0.3917
C35 C 0.1042(6) 0.2176(6) 0.3660(6)
C36 C 0.0290(6) 0.2221(6) 0.3819(7)
C37 C -0.0071(5) 0.2991(6) 0.3768(6)
C38 C 0.0312(5) 0.3707(6) 0.3539(6)
C39 C 0.1046(5) 0.3642(6) 0.3320(6)
C40 C 0.1425(5) 0.2884(5) 0.3434(5)
C41 C -0.0159(8) 0.1455(7) 0.4028(9)
H39 H -0.0417 0.1557 0.4508
H40 H 0.0165 0.0973 0.4088
H41 H -0.0512 0.1342 0.3622
C42 C -0.0893(6) 0.3004(7) 0.3842(8)
H42 H -0.1038 0.2641 0.4273
H43 H -0.1053 0.3579 0.3963
N3 N -0.1262(5) 0.2726(7) 0.3157(6)
N4 N -0.1935(5) 0.2399(7) 0.3172(6)
C43 C -0.2138(10) 0.2391(18) 0.2410(9)
H44 H -0.2615 0.2292 0.2221
C44 C -0.1552(7) 0.2546(10) 0.1992(9)
H45 H -0.1524 0.2484 0.1453
C45 C -0.1032(8) 0.2792(8) 0.2418(7)
H46 H -0.0569 0.2985 0.2253
C46 C 0.2218(5) 0.2857(6) 0.3284(6)
H47 H 0.2455 0.2501 0.3665
H48 H 0.2419 0.3422 0.3316
H49 H 0.2305 0.2630 0.2773
C47 C -0.0053(7) 0.4544(7) 0.3501(7)
H50 H 0.0237 0.4953 0.3784
H51 H -0.0540 0.4506 0.3727
H52 H -0.0094 0.4719 0.2967
C48 C 0.1455(6) 0.4411(6) 0.3034(6)
H53 H 0.1802 0.4580 0.3437
H54 H 0.1097 0.4868 0.2980
Co1C Co -0.25640(9) 0.22445(10) 0.41144(11)
N4C N -0.3065(5) 0.2399(7) -0.1828(6)
loop_
_geom_bond_atom_site_label_1
_geom_bond_atom_site_label_2
_geom_bond_site_symmetry_1
_geom_bond_site_symmetry_2
N1 N2 1_555 1_555
N2 C1 1_555 1_555
C1 H1 1_555 1_555
C2 C1 1_555 1_555
H2 C2 1_555 1_555
C3 N1 1_555 1_555
H3 C3 1_555 1_555
Co1 N2 1_555 1_555
Br1 Co1 1_555 1_555
Br2 Co1 1_555 1_555
C4 C5 1_555 1_555
C5 C6 1_555 1_555
C6 Br3 1_555 1_555
C7 C6 1_555 1_555
C8 C7 1_555 1_555
C9 C4 1_555 1_555
C10 C5 1_555 1_555
H4 C10 1_555 1_555
H5 C10 1_555 1_555
H6 C10 1_555 1_555
C11 C7 1_555 1_555
H7 C11 1_555 1_555
H8 C11 1_555 1_555
H9 C11 1_555 1_555
C12 C9 1_555 1_555
H10 C12 1_555 1_555
H11 C12 1_555 1_555
H12 C12 1_555 1_555
C13 C8 1_555 1_555
H13 C13 1_555 1_555
H14 C13 1_555 1_555
C14 C13 1_555 1_555
C15 C14 1_555 1_555
C16 C15 1_555 1_555
C17 C16 1_555 1_555
C18 C17 1_555 1_555
C19 C14 1_555 1_555
C20 C15 1_555 1_555
H15 C20 1_555 1_555
H16 C20 1_555 1_555
H17 C20 1_555 1_555
C21 N1 1_555 1_555
H18 C21 1_555 1_555
H19 C21 1_555 1_555
C22 C17 1_555 1_555
H20 C22 1_555 1_555
H21 C22 1_555 1_555
H22 C22 1_555 1_555
C23 C19 1_555 1_555
H23 C23 1_555 1_555
H24 C23 1_555 1_555
H25 C23 1_555 1_555
C24 C18 1_555 1_555
H26 C24 1_555 1_555
H27 C24 1_555 1_555
C25 C24 1_555 1_555
C26 C25 1_555 1_555
C27 C26 1_555 1_555
Br4 C27 1_555 1_555
C28 C27 1_555 1_555
C29 C28 1_555 1_555
C30 C25 1_555 1_555
C31 C26 1_555 1_555
H28 C31 1_555 1_555
H29 C31 1_555 1_555
H30 C31 1_555 1_555
C32 C28 1_555 1_555
H31 C32 1_555 1_555
H32 C32 1_555 1_555
H33 C32 1_555 1_555
C33 C30 1_555 1_555
H34 C33 1_555 1_555
H35 C33 1_555 1_555
H36 C33 1_555 1_555
C34 C29 1_555 1_555
H37 C34 1_555 1_555
H38 C34 1_555 1_555
C35 C34 1_555 1_555
C36 C35 1_555 1_555
C37 C36 1_555 1_555
C38 C37 1_555 1_555
C39 C38 1_555 1_555
C40 C35 1_555 1_555
C41 C36 1_555 1_555
H39 C41 1_555 1_555
H40 C41 1_555 1_555
H41 C41 1_555 1_555
C42 C37 1_555 1_555
H42 C42 1_555 1_555
H43 C42 1_555 1_555
N3 C42 1_555 1_555
N4 N3 1_555 1_555
C43 N4 1_555 1_555
H44 C43 1_555 1_555
C44 C43 1_555 1_555
H45 C44 1_555 1_555
C45 N3 1_555 1_555
H46 C45 1_555 1_555
C46 C40 1_555 1_555
H47 C46 1_555 1_555
H48 C46 1_555 1_555
H49 C46 1_555 1_555
C47 C38 1_555 1_555
H50 C47 1_555 1_555
H51 C47 1_555 1_555
H52 C47 1_555 1_555
C48 C4 1_555 1_555
H53 C48 1_555 1_555
H54 C48 1_555 1_555
Co1C N4 1_555 1_555
N4C Co1 1_555 1_555
C2 C3 1_555 1_555
C8 C9 1_555 1_555
C16 C21 1_555 1_555
C18 C19 1_555 1_555
C29 C30 1_555 1_555
C39 C40 1_555 1_555
C39 C48 1_555 1_555
C44 C45 1_555 1_555

#END
