
#######################################################################
#
#                 Cambridge Crystallographic Data Centre
#                                CCDC 
#
#######################################################################
#
# If this CIF has been generated from an entry in the Cambridge 
# Structural Database, then it will include bibliographic, chemical, 
# crystal, experimental, refinement or atomic coordinate data resulting 
# from the CCDC's data processing and validation procedures.
#
#######################################################################

data_PURXEG
_symmetry_cell_setting           orthorhombic
_symmetry_space_group_name_H-M   'P b c a'
_symmetry_Int_Tables_number      61
_space_group_name_Hall           '-P 2ac 2ab'
loop_
_symmetry_equiv_pos_site_id
_symmetry_equiv_pos_as_xyz
1 x,y,z
2 1/2-x,-y,1/2+z
3 -x,1/2+y,1/2-z
4 1/2+x,1/2-y,-z
5 -x,-y,-z
6 1/2+x,y,1/2-z
7 x,1/2-y,1/2+z
8 1/2-x,1/2+y,z
_cell_length_a                   21.629(2)
_cell_length_b                   18.9786(18)
_cell_length_c                   34.265(3)
_cell_angle_alpha                90
_cell_angle_beta                 90
_cell_angle_gamma                90
_cell_volume                     14065.4
loop_
_atom_site_label
_atom_site_type_symbol
_atom_site_fract_x
_atom_site_fract_y
_atom_site_fract_z
C1 C 1.0979(3) 0.5859(3) 0.39651(11)
C2 C 1.1190(3) 0.5394(2) 0.36812(15)
C3 C 1.1292(3) 0.5631(3) 0.33027(13)
C4 C 1.1182(3) 0.6332(3) 0.32080(11)
C5 C 1.0970(3) 0.6796(2) 0.34919(15)
C6 C 1.0869(3) 0.6560(3) 0.38704(13)
Zn1 Zn 0.72179(5) 0.37583(5) 0.24889(3)
Cl1 Cl 0.64289(12) 0.31259(13) 0.22540(8)
Cl2 Cl 0.80444(12) 0.32424(12) 0.27443(8)
C7 C 0.8375(4) 0.6799(4) 0.3484(2)
C8 C 0.8109(4) 0.6292(4) 0.3213(2)
C9 C 0.8047(4) 0.5614(4) 0.3295(2)
C10 C 0.8176(4) 0.5360(4) 0.3687(2)
C11 C 0.8403(4) 0.5833(4) 0.3969(2)
C12 C 0.8482(4) 0.6542(4) 0.3874(2)
C13 C 0.7978(5) 0.6530(5) 0.2780(3)
H1 H 0.8371 0.6575 0.2639
H2 H 0.7765 0.6986 0.2781
H3 H 0.7718 0.6178 0.2651
C14 C 0.7772(4) 0.5100(4) 0.3023(2)
H4 H 0.7896 0.5235 0.2755
H5 H 0.7962 0.4635 0.3077
N1 N 0.7126(3) 0.5012(4) 0.30260(18)
N2 N 0.6819(3) 0.4465(4) 0.28757(18)
C15 C 0.6217(4) 0.4579(4) 0.2919(2)
H6 H 0.5893 0.4280 0.2833
C16 C 0.6151(4) 0.5178(4) 0.3102(2)
H7 H 0.5762 0.5367 0.3179
C17 C 0.6703(4) 0.5501(4) 0.3170(2)
H8 H 0.6781 0.5947 0.3286
C18 C 0.8033(5) 0.4608(5) 0.3819(4)
H9 H 0.8420 0.4363 0.3880
H10 H 0.7817 0.4357 0.3610
H11 H 0.7771 0.4622 0.4052
C19 C 0.8655(4) 0.7069(5) 0.4193(2)
H12 H 0.8756 0.6814 0.4434
H13 H 0.8306 0.7386 0.4241
H14 H 0.9015 0.7344 0.4109
C20 C 0.8494(4) 0.5608(5) 0.4389(3)
H15 H 0.8424 0.5093 0.4402
H16 H 0.8165 0.5833 0.4546
C21 C 0.9130(4) 0.5764(5) 0.4598(2)
C22 C 0.9121(4) 0.6063(5) 0.4959(2)
C23 C 0.9708(4) 0.6167(5) 0.5113(2)
Br1 Br 0.97086(5) 0.66564(6) 0.56309(3)
C24 C 1.0285(4) 0.6057(4) 0.4956(3)
C25 C 1.0254(4) 0.5766(4) 0.4584(2)
C26 C 0.9659(4) 0.5541(5) 0.4391(3)
C27 C 0.8507(4) 0.6263(6) 0.5158(3)
H17 H 0.8257 0.6547 0.4979
H18 H 0.8594 0.6536 0.5395
H19 H 0.8281 0.5834 0.5228
C28 C 1.0853(5) 0.6203(7) 0.5173(3)
H20 H 1.1001 0.6677 0.5109
H21 H 1.1169 0.5855 0.5103
H22 H 1.0768 0.6174 0.5454
C29 C 0.9658(5) 0.5205(6) 0.4023(2)
H23 H 1.0017 0.4891 0.4004
H24 H 0.9680 0.5561 0.3816
H25 H 0.9278 0.4929 0.3993
C30 C 1.0847(4) 0.5544(6) 0.4391(3)
H26 H 1.0848 0.5023 0.4372
H27 H 1.1194 0.5680 0.4564
C31 C 1.1378(5) 0.4612(5) 0.3757(2)
H28 H 1.1533 0.4402 0.3515
H29 H 1.1016 0.4347 0.3848
H30 H 1.1702 0.4595 0.3957
C32 C 1.1554(4) 0.5124(7) 0.2998(3)
H31 H 1.1472 0.5307 0.2732
H32 H 1.1354 0.4658 0.3023
C33 C 1.3168(4) 0.4571(6) 0.3006(2)
H33 H 1.3493 0.4263 0.2932
N3 N 1.2265(4) 0.5052(5) 0.3063(2)
N4 N 1.2545(4) 0.4472(4) 0.29094(18)
C34 C 1.3245(5) 0.5185(7) 0.3226(2)
H34 H 1.3622 0.5363 0.3328
C35 C 1.2667(5) 0.5483(6) 0.3265(3)
H35 H 1.2566 0.5900 0.3404
C36 C 1.0718(4) 0.7048(5) 0.4153(2)
H36 H 1.0271 0.7133 0.4149
H37 H 1.0937 0.7491 0.4101
H38 H 1.0838 0.6868 0.4410
C37 C 1.1418(6) 0.6644(7) 0.2786(3)
H39 H 1.1062 0.6706 0.2612
H40 H 1.1710 0.6312 0.2667
H41 H 1.1622 0.7099 0.2826
C38 C 1.0838(5) 0.7601(6) 0.3392(3)
H42 H 1.1176 0.7881 0.3510
H43 H 1.0875 0.7654 0.3106
C39 C 1.0241(4) 0.8537(5) 0.3716(2)
C40 C 0.9645(4) 0.8837(6) 0.3806(2)
Br2 Br 0.96253(5) 0.96968(5) 0.40900(3)
C41 C 0.9093(4) 0.8499(4) 0.3681(2)
C42 C 0.9113(4) 0.7874(4) 0.34980(19)
C43 C 0.9667(4) 0.7588(4) 0.3392(2)
C44 C 1.0229(4) 0.7948(5) 0.3514(2)
C45 C 1.0782(4) 0.8913(4) 0.3836(3)
H44 H 1.0877 0.8795 0.4108
H45 H 1.0708 0.9420 0.3814
H46 H 1.1131 0.8779 0.3670
C46 C 0.8451(4) 0.8846(6) 0.3863(3)
H47 H 0.8115 0.8799 0.3673
H48 H 0.8519 0.9346 0.3921
H49 H 0.8339 0.8599 0.4104
C47 C 0.9695(4) 0.6965(5) 0.3118(2)
H50 H 0.9848 0.6551 0.3259
H51 H 0.9975 0.7073 0.2901
H52 H 0.9281 0.6867 0.3015
C48 C 0.8468(4) 0.7521(4) 0.3378(2)
H53 H 0.8132 0.7803 0.3497
H54 H 0.8423 0.7559 0.3091
Zn1E Zn 1.22179(5) 0.37583(5) 0.25111(3)
N4E N 0.7545(4) 0.4472(4) 0.20906(18)
loop_
_geom_bond_atom_site_label_1
_geom_bond_atom_site_label_2
_geom_bond_site_symmetry_1
_geom_bond_site_symmetry_2
C1 C2 1_555 1_555
C2 C3 1_555 1_555
C3 C4 1_555 1_555
C4 C5 1_555 1_555
C5 C6 1_555 1_555
C6 C1 1_555 1_555
Zn1 Cl1 1_555 1_555
Cl2 Zn1 1_555 1_555
C7 C8 1_555 1_555
C8 C9 1_555 1_555
C9 C10 1_555 1_555
C10 C11 1_555 1_555
C11 C12 1_555 1_555
C12 C7 1_555 1_555
C13 C8 1_555 1_555
H1 C13 1_555 1_555
H2 C13 1_555 1_555
H3 C13 1_555 1_555
C14 C9 1_555 1_555
H4 C14 1_555 1_555
H5 C14 1_555 1_555
N1 C14 1_555 1_555
N2 Zn1 1_555 1_555
C15 N2 1_555 1_555
H6 C15 1_555 1_555
C16 C15 1_555 1_555
H7 C16 1_555 1_555
C17 N1 1_555 1_555
H8 C17 1_555 1_555
C18 C10 1_555 1_555
H9 C18 1_555 1_555
H10 C18 1_555 1_555
H11 C18 1_555 1_555
C19 C12 1_555 1_555
H12 C19 1_555 1_555
H13 C19 1_555 1_555
H14 C19 1_555 1_555
C20 C11 1_555 1_555
H15 C20 1_555 1_555
H16 C20 1_555 1_555
C21 C20 1_555 1_555
C22 C21 1_555 1_555
C23 C22 1_555 1_555
Br1 C23 1_555 1_555
C24 C23 1_555 1_555
C25 C24 1_555 1_555
C26 C21 1_555 1_555
C27 C22 1_555 1_555
H17 C27 1_555 1_555
H18 C27 1_555 1_555
H19 C27 1_555 1_555
C28 C24 1_555 1_555
H20 C28 1_555 1_555
H21 C28 1_555 1_555
H22 C28 1_555 1_555
C29 C26 1_555 1_555
H23 C29 1_555 1_555
H24 C29 1_555 1_555
H25 C29 1_555 1_555
C30 C1 1_555 1_555
H26 C30 1_555 1_555
H27 C30 1_555 1_555
C31 C2 1_555 1_555
H28 C31 1_555 1_555
H29 C31 1_555 1_555
H30 C31 1_555 1_555
C32 C3 1_555 1_555
H31 C32 1_555 1_555
H32 C32 1_555 1_555
C33 H33 1_555 1_555
N3 C32 1_555 1_555
N4 C33 1_555 1_555
C34 C33 1_555 1_555
H34 C34 1_555 1_555
C35 N3 1_555 1_555
H35 C35 1_555 1_555
C36 C6 1_555 1_555
H36 C36 1_555 1_555
H37 C36 1_555 1_555
H38 C36 1_555 1_555
C37 C4 1_555 1_555
H39 C37 1_555 1_555
H40 C37 1_555 1_555
H41 C37 1_555 1_555
C38 C5 1_555 1_555
H42 C38 1_555 1_555
H43 C38 1_555 1_555
C39 C40 1_555 1_555
C40 Br2 1_555 1_555
C41 C40 1_555 1_555
C42 C41 1_555 1_555
C43 C42 1_555 1_555
C44 C38 1_555 1_555
C45 C39 1_555 1_555
H44 C45 1_555 1_555
H45 C45 1_555 1_555
H46 C45 1_555 1_555
C46 C41 1_555 1_555
H47 C46 1_555 1_555
H48 C46 1_555 1_555
H49 C46 1_555 1_555
C47 C43 1_555 1_555
H50 C47 1_555 1_555
H51 C47 1_555 1_555
H52 C47 1_555 1_555
C48 C7 1_555 1_555
H53 C48 1_555 1_555
H54 C48 1_555 1_555
Zn1E N4 1_555 1_555
N4E Zn1 1_555 1_555
N1 N2 1_555 1_555
C16 C17 1_555 1_555
C25 C26 1_555 1_555
C25 C30 1_555 1_555
N3 N4 1_555 1_555
C34 C35 1_555 1_555
C39 C44 1_555 1_555
C42 C48 1_555 1_555
C43 C44 1_555 1_555

#END
