
#######################################################################
#
#                 Cambridge Crystallographic Data Centre
#                                CCDC 
#
#######################################################################
#
# If this CIF has been generated from an entry in the Cambridge 
# Structural Database, then it will include bibliographic, chemical, 
# crystal, experimental, refinement or atomic coordinate data resulting 
# from the CCDC's data processing and validation procedures.
#
#######################################################################

data_PURZEI
_symmetry_cell_setting           orthorhombic
_symmetry_space_group_name_H-M   'P c a 21'
_symmetry_Int_Tables_number      29
_space_group_name_Hall           'P 2c -2ac'
loop_
_symmetry_equiv_pos_site_id
_symmetry_equiv_pos_as_xyz
1 x,y,z
2 -x,-y,1/2+z
3 1/2-x,y,1/2+z
4 1/2+x,-y,z
_cell_length_a                   9.9728(6)
_cell_length_b                   17.7024(10)
_cell_length_c                   9.0229(5)
_cell_angle_alpha                90
_cell_angle_beta                 90
_cell_angle_gamma                90
_cell_volume                     1592.93
loop_
_atom_site_label
_atom_site_type_symbol
_atom_site_fract_x
_atom_site_fract_y
_atom_site_fract_z
Ag1 Ag 0.39914(3) 0.761391(13) 0.00000
S1 S 0.43865(9) 0.77606(5) 0.41141(10)
O1 O 0.3696(3) 0.74020(17) 0.2889(3)
O2 O 0.3806(3) 0.7606(2) 0.5538(3)
O3 O 0.4780(3) 0.85334(16) 0.3853(3)
C1 C 0.5976(3) 0.7248(2) 0.4156(4)
F1 F 0.6771(3) 0.75022(16) 0.5242(3)
F2 F 0.5761(3) 0.65127(16) 0.4389(4)
F3 F 0.6637(3) 0.73206(16) 0.2889(3)
N1 N 0.3815(3) 0.65805(18) -0.1304(4)
C2 C 0.3090(4) 0.5962(2) -0.0573(6)
C3 C 0.3894(4) 0.5660(2) 0.0729(5)
C4 C 0.5279(4) 0.5409(2) 0.0219(6)
C5 C 0.5978(4) 0.6031(3) -0.0644(6)
C6 C 0.5109(5) 0.6313(2) -0.1891(5)
N2 N 0.4451(3) 0.87941(18) 0.0514(3)
C7 C 0.5870(4) 0.8979(2) 0.0218(5)
C8 C 0.6174(5) 0.8866(2) -0.1420(5)
C9 C 0.5242(5) 0.9343(2) -0.2377(6)
C10 C 0.3783(5) 0.9209(2) -0.1978(4)
C11 C 0.3548(4) 0.9307(2) -0.0320(4)
H1 H 0.334(7) 0.675(4) -0.194(7)
H2 H 0.295(5) 0.554(3) -0.129(5)
H3 H 0.222(5) 0.613(2) -0.027(6)
H4 H 0.402(5) 0.612(4) 0.143(7)
H5 H 0.339(6) 0.524(4) 0.123(7)
H6 H 0.526(6) 0.498(4) -0.040(6)
H7 H 0.583(6) 0.524(4) 0.106(8)
H8 H 0.614(5) 0.645(3) -0.021(9)
H9 H 0.688(7) 0.586(4) -0.103(7)
H10 H 0.493(5) 0.588(3) -0.255(10)
H11 H 0.560(5) 0.674(3) -0.240(9)
H12 H 0.430(5) 0.889(3) 0.143(7)
H13 H 0.610(5) 0.950(3) 0.047(6)
H14 H 0.644(5) 0.867(3) 0.086(6)
H15 H 0.609(4) 0.834(3) -0.166(6)
H16 H 0.708(5) 0.897(3) -0.159(6)
H17 H 0.549(4) 0.986(3) -0.228(7)
H18 H 0.544(7) 0.922(4) -0.343(8)
H19 H 0.355(4) 0.870(2) -0.233(7)
H20 H 0.315(4) 0.958(2) -0.249(9)
H21 H 0.376(4) 0.984(2) -0.009(7)
H22 H 0.258(7) 0.918(2) -0.001(10)
Ag1B Ag 0.10086(3) 0.761391(13) 0.50000
O2B O 0.1194(3) 0.7606(2) 0.0538(3)
loop_
_geom_bond_atom_site_label_1
_geom_bond_atom_site_label_2
_geom_bond_site_symmetry_1
_geom_bond_site_symmetry_2
Ag1 O1 1_555 1_555
S1 O1 1_555 1_555
O2 S1 1_555 1_555
O3 S1 1_555 1_555
C1 S1 1_555 1_555
F1 C1 1_555 1_555
F2 C1 1_555 1_555
F3 C1 1_555 1_555
N1 Ag1 1_555 1_555
C2 N1 1_555 1_555
C3 C2 1_555 1_555
C4 C3 1_555 1_555
C5 C4 1_555 1_555
C6 N1 1_555 1_555
N2 Ag1 1_555 1_555
C7 N2 1_555 1_555
C8 C7 1_555 1_555
C9 C8 1_555 1_555
C10 C9 1_555 1_555
C11 N2 1_555 1_555
H1 N1 1_555 1_555
H2 C2 1_555 1_555
H3 C2 1_555 1_555
H4 C3 1_555 1_555
H5 C3 1_555 1_555
H6 C4 1_555 1_555
H7 C4 1_555 1_555
H8 C5 1_555 1_555
H9 C5 1_555 1_555
H10 C6 1_555 1_555
H11 C6 1_555 1_555
H12 N2 1_555 1_555
H13 C7 1_555 1_555
H14 C7 1_555 1_555
H15 C8 1_555 1_555
H16 C8 1_555 1_555
H17 C9 1_555 1_555
H18 C9 1_555 1_555
H19 C10 1_555 1_555
H20 C10 1_555 1_555
H21 C11 1_555 1_555
H22 C11 1_555 1_555
Ag1B O2 1_555 1_555
O2B Ag1 1_555 1_555
C5 C6 1_555 1_555
C10 C11 1_555 1_555

#END
