
#######################################################################
#
#                 Cambridge Crystallographic Data Centre
#                                CCDC 
#
#######################################################################
#
# If this CIF has been generated from an entry in the Cambridge 
# Structural Database, then it will include bibliographic, chemical, 
# crystal, experimental, refinement or atomic coordinate data resulting 
# from the CCDC's data processing and validation procedures.
#
#######################################################################

data_PUSHOC
_symmetry_cell_setting           monoclinic
_symmetry_space_group_name_H-M   'C c'
_symmetry_Int_Tables_number      9
_space_group_name_Hall           'C -2yc'
loop_
_symmetry_equiv_pos_site_id
_symmetry_equiv_pos_as_xyz
1 x,y,z
2 x,-y,1/2+z
3 1/2+x,1/2+y,z
4 1/2+x,1/2-y,1/2+z
_cell_length_a                   21.577(3)
_cell_length_b                   9.4531(12)
_cell_length_c                   15.866(2)
_cell_angle_alpha                90
_cell_angle_beta                 114.880(2)
_cell_angle_gamma                90
_cell_volume                     2935.83
loop_
_atom_site_label
_atom_site_type_symbol
_atom_site_fract_x
_atom_site_fract_y
_atom_site_fract_z
Dy1 Dy 1.00207(2) 0.56184(2) 0.73746(2)
Ni1 Ni 0.89533(2) 0.62627(5) 0.50736(3)
C1 C 1.0057(2) 0.8344(4) 0.6174(3)
C2 C 1.0664(2) 0.8630(5) 0.6955(3)
C3 C 1.1030(3) 0.9859(6) 0.7030(5)
H1 H 1.1435 1.0025 0.7551
C4 C 1.0781(3) 1.0844(5) 0.6311(6)
H2 H 1.1020 1.1681 0.6358
C5 C 1.0198(4) 1.0601(5) 0.5547(5)
H3 H 1.0043 1.1274 0.5076
C6 C 0.9819(3) 0.9348(4) 0.5448(4)
C7 C 0.9161(3) 0.9249(5) 0.4663(4)
H4 H 0.8997 1.0058 0.4303
C8 C 0.7949(3) 0.7939(7) 0.2881(3)
H5 H 0.8167 0.8545 0.2593
H6 H 0.7460 0.8015 0.2517
C9 C 0.8154(3) 0.6454(6) 0.2821(3)
H7 H 0.8042 0.6228 0.2177
H8 H 0.8646 0.6369 0.3166
C10 C 0.8095(2) 0.3744(5) 0.4229(3)
H9 H 0.7735 0.3319 0.3737
C11 C 0.8409(2) 0.2931(4) 0.5083(3)
C12 C 0.8148(3) 0.1560(6) 0.5065(4)
H10 H 0.7783 0.1246 0.4530
C13 C 0.8419(3) 0.0684(5) 0.5816(5)
H11 H 0.8238 -0.0216 0.5789
C14 C 0.8966(3) 0.1131(5) 0.6621(4)
H12 H 0.9158 0.0528 0.7129
C15 C 0.9219(2) 0.2477(4) 0.6656(3)
C16 C 0.8946(2) 0.3414(4) 0.5898(3)
C17 C 1.1342(3) 0.7928(7) 0.8541(4)
H13 H 1.1223 0.8825 0.8715
H14 H 1.1790 0.7987 0.8553
H15 H 1.1340 0.7215 0.8970
C18 C 1.0130(3) 0.2076(5) 0.8164(3)
H16 H 1.0250 0.1256 0.7908
H17 H 0.9852 0.1797 0.8475
H18 H 1.0538 0.2525 0.8600
C19 C 0.7278(3) 0.7106(8) 0.6156(4)
H19 H 0.7003 0.7924 0.5881
H20 H 0.7507 0.7232 0.6817
H21 H 0.6991 0.6284 0.6020
C20 C 0.7783(2) 0.6923(5) 0.5779(3)
N1 N 0.87896(18) 0.8159(4) 0.4425(2)
N2 N 0.82658(16) 0.4986(4) 0.4088(2)
N3 N 0.91023(19) 0.7404(4) 0.7799(2)
N4 N 1.1271(2) 0.4404(4) 0.7470(3)
N5 N 0.99179(17) 0.4744(4) 0.4406(2)
N6 N 0.81781(19) 0.6788(4) 0.5506(2)
O1 O 1.08550(15) 0.7565(3) 0.7619(2)
O2 O 0.97207(14) 0.7164(3) 0.61612(18)
O3 O 0.81025(18) 0.8469(4) 0.3773(2)
O4 O 0.78251(17) 0.5450(4) 0.3181(2)
O5 O 0.92287(14) 0.4694(3) 0.60105(18)
O6 O 0.97523(16) 0.3059(3) 0.74230(18)
O7 O 0.86783(19) 0.8150(4) 0.7909(2)
O8 O 0.96669(17) 0.7877(3) 0.7890(2)
O9 O 0.89820(16) 0.6109(3) 0.7566(2)
O10 O 1.1810(2) 0.3941(6) 0.7528(3)
O11 O 1.07925(18) 0.4727(4) 0.6700(2)
O12 O 1.11509(18) 0.4588(4) 0.8177(2)
O13 O 0.97140(17) 0.5932(3) 0.4542(2)
O14 O 0.9760(2) 0.3661(3) 0.4660(2)
O15 O 1.03065(14) 0.4750(3) 0.39745(19)
Dy1A Dy 1.00207(2) 0.43816(2) 0.23746(2)
O15A O 1.03065(14) 0.5250(3) 0.89745(19)
C21 C 0.6544(4) 0.1632(10) 0.5509(4)
H22 H 0.6966 0.1123 0.5813
H23 H 0.6245 0.1119 0.4969
H24 H 0.6331 0.1737 0.5928
C22 C 0.6679(3) 0.2992(10) 0.5240(5)
N7 N 0.6786(5) 0.4032(10) 0.5000(8)
loop_
_geom_bond_atom_site_label_1
_geom_bond_atom_site_label_2
_geom_bond_site_symmetry_1
_geom_bond_site_symmetry_2
Dy1 O1 1_555 1_555
Ni1 N1 1_555 1_555
C1 C2 1_555 1_555
C2 C3 1_555 1_555
C3 H1 1_555 1_555
C4 C3 1_555 1_555
H2 C4 1_555 1_555
C5 C4 1_555 1_555
H3 C5 1_555 1_555
C6 C1 1_555 1_555
C7 C6 1_555 1_555
H4 C7 1_555 1_555
C8 H5 1_555 1_555
H6 C8 1_555 1_555
C9 C8 1_555 1_555
H7 C9 1_555 1_555
H8 C9 1_555 1_555
C10 H9 1_555 1_555
C11 C10 1_555 1_555
C12 C11 1_555 1_555
H10 C12 1_555 1_555
C13 C12 1_555 1_555
H11 C13 1_555 1_555
C14 C13 1_555 1_555
H12 C14 1_555 1_555
C15 C14 1_555 1_555
C16 C11 1_555 1_555
C17 H13 1_555 1_555
H14 C17 1_555 1_555
H15 C17 1_555 1_555
C18 H16 1_555 1_555
H17 C18 1_555 1_555
H18 C18 1_555 1_555
C19 H19 1_555 1_555
H20 C19 1_555 1_555
H21 C19 1_555 1_555
C20 C19 1_555 1_555
N1 C7 1_555 1_555
N2 Ni1 1_555 1_555
N3 O7 1_555 1_555
N4 O10 1_555 1_555
N5 O13 1_555 1_555
N6 Ni1 1_555 1_555
O1 C2 1_555 1_555
O2 Dy1 1_555 1_555
O3 C8 1_555 1_555
O4 C9 1_555 1_555
O5 Dy1 1_555 1_555
O6 Dy1 1_555 1_555
O8 Dy1 1_555 1_555
O9 Dy1 1_555 1_555
O11 Dy1 1_555 1_555
O12 Dy1 1_555 1_555
O13 Ni1 1_555 1_555
O14 N5 1_555 1_555
O15 N5 1_555 1_555
C21 H22 1_555 1_555
H23 C21 1_555 1_555
H24 C21 1_555 1_555
C22 C21 1_555 1_555
N7 C22 1_555 1_555
Dy1A O15 1_555 1_555
O15A Dy1 1_555 1_555
Ni1 O2 1_555 1_555
Ni1 O5 1_555 1_555
C1 O2 1_555 1_555
C5 C6 1_555 1_555
C10 N2 1_555 1_555
C15 C16 1_555 1_555
C15 O6 1_555 1_555
C16 O5 1_555 1_555
C17 O1 1_555 1_555
C18 O6 1_555 1_555
C20 N6 1_555 1_555
N1 O3 1_555 1_555
N2 O4 1_555 1_555
N3 O8 1_555 1_555
N3 O9 1_555 1_555
N4 O11 1_555 1_555
N4 O12 1_555 1_555

#END
