
#######################################################################
#
#                 Cambridge Crystallographic Data Centre
#                                CCDC 
#
#######################################################################
#
# If this CIF has been generated from an entry in the Cambridge 
# Structural Database, then it will include bibliographic, chemical, 
# crystal, experimental, refinement or atomic coordinate data resulting 
# from the CCDC's data processing and validation procedures.
#
#######################################################################

data_PUTFIV
_symmetry_cell_setting           triclinic
_symmetry_space_group_name_H-M   'P -1'
_symmetry_Int_Tables_number      2
_space_group_name_Hall           '-P 1'
loop_
_symmetry_equiv_pos_site_id
_symmetry_equiv_pos_as_xyz
1 x,y,z
2 -x,-y,-z
_cell_length_a                   11.108(2)
_cell_length_b                   11.460(2)
_cell_length_c                   15.954(3)
_cell_angle_alpha                110.44(3)
_cell_angle_beta                 92.24(3)
_cell_angle_gamma                95.10(3)
_cell_volume                     1890.15
loop_
_atom_site_label
_atom_site_type_symbol
_atom_site_fract_x
_atom_site_fract_y
_atom_site_fract_z
Cu1 Cu 0.99215(8) 0.51038(7) 0.23456(6)
Cu2 Cu 1.06088(7) 0.01823(7) 0.09816(5)
Cu3 Cu -0.05803(7) -0.00473(7) 0.40486(5)
P1 P 0.95291(16) 0.74266(15) 0.40921(12)
P2 P 1.04489(15) 0.26057(15) 0.07687(12)
N1 N 1.2161(5) 0.1139(5) 0.0817(3)
N2 N 0.1616(5) -0.4202(5) 0.2274(4)
N3 N 0.8292(5) 0.4363(5) 0.2521(4)
N4 N 0.9057(5) -0.0295(5) 0.1499(3)
N5 N 0.7847(5) 0.8974(5) 0.4156(3)
N6 N 0.0974(5) 0.0458(5) 0.3546(4)
O1 O 0.9767(4) 0.1299(3) 0.0550(3)
O2 O 1.0078(4) 0.3166(4) 0.0082(3)
O3 O 1.0345(4) 0.3420(4) 0.1740(3)
O4 O 1.3450(4) -0.0291(5) 0.0891(4)
O5 O 1.0240(4) 0.8750(4) 0.4395(3)
O6 O 0.9584(4) 0.6756(4) 0.3098(3)
O7 O 0.9883(4) 0.6718(4) 0.4675(3)
O8 O 0.6586(4) 1.0451(5) 0.4134(4)
O9 O -0.1385(5) 0.1330(5) 0.3905(4)
O10 O 1.1443(5) -0.1120(5) 0.1198(3)
O11 O 0.9035(5) 0.5342(5) 0.0925(4)
C1 C 1.2010(6) 0.2235(6) 0.0669(4)
C2 C 1.2918(6) 0.2947(6) 0.0487(5)
H1 H 1.2787 0.3697 0.0413
C3 C 1.4089(7) 0.2514(7) 0.0411(5)
H2 H 1.4729 0.2964 0.0260
C4 C 1.4266(6) 0.1444(7) 0.0560(5)
H3 H 1.5037 0.1182 0.0528
C5 C 1.3294(6) 0.0718(7) 0.0762(4)
C6 C 0.7998(6) 0.7845(6) 0.4240(4)
C7 C 0.7065(6) 0.7115(7) 0.4416(5)
H4 H 0.7190 0.6351 0.4470
C8 C 0.5917(6) 0.7552(7) 0.4513(5)
H5 H 0.5272 0.7085 0.4645
C9 C 0.5754(6) 0.8648(7) 0.4414(5)
H6 H 0.4988 0.8922 0.4469
C10 C 0.6725(6) 0.9398(7) 0.4228(4)
C11 C 0.8054(6) 0.0251(6) 0.1438(4)
H7 H 0.8122 0.0951 0.1270
C12 C 0.6924(6) -0.0179(6) 0.1614(4)
H8 H 0.6252 0.0226 0.1561
C13 C 0.6801(6) -0.1229(6) 0.1873(4)
C14 C 0.7852(6) -0.1743(6) 0.1981(4)
H9 H 0.7818 -0.2419 0.2177
C15 C 0.8942(6) -0.1259(6) 0.1800(4)
H10 H 0.9636 -0.1612 0.1889
C16 C 0.5552(6) -0.1736(7) 0.1942(5)
H11 H 0.4922 -0.1361 0.1775
C17 C 0.5252(6) -0.2676(7) 0.2220(5)
H12 H 0.5874 -0.3029 0.2419
C18 C 0.3996(6) -0.3201(7) 0.2234(5)
C19 C 0.3049(7) -0.2998(8) 0.1748(6)
H13 H 0.3190 -0.2507 0.1397
C20 C 0.1888(8) -0.3512(8) 0.1773(7)
H14 H 0.1267 -0.3372 0.1423
C21 C 0.2539(7) -0.4397(8) 0.2743(5)
H15 H 0.2374 -0.4878 0.3098
C22 C 0.3721(6) -0.3938(7) 0.2739(5)
H16 H 0.4331 -0.4122 0.3073
C23 C 0.8148(7) 0.3626(8) 0.3001(6)
H17 H 0.8834 0.3456 0.3272
C24 C 0.7033(8) 0.3100(8) 0.3118(6)
H18 H 0.6980 0.2594 0.3464
C25 C 0.5998(7) 0.3323(7) 0.2725(5)
C26 C 0.6152(7) 0.4107(8) 0.2239(6)
H19 H 0.5483 0.4301 0.1964
C27 C 0.7285(7) 0.4595(8) 0.2165(5)
H20 H 0.7359 0.5130 0.1841
C28 C 0.4746(8) 0.2800(8) 0.2791(6)
H21 H 0.4109 0.3166 0.2622
C29 C 0.4474(8) 0.1897(8) 0.3059(5)
H22 H 0.5112 0.1519 0.3212
C30 C 0.3229(7) 0.1388(7) 0.3151(5)
C31 C 0.3107(7) 0.0327(7) 0.3390(5)
H23 H 0.3775 -0.0095 0.3420
C32 C 0.1981(6) -0.0090(7) 0.3582(5)
H24 H 0.1919 -0.0795 0.3746
C33 C 0.1082(7) 0.1436(6) 0.3272(4)
H25 H 0.0391 0.1812 0.3210
C34 C 0.2173(7) 0.1910(7) 0.3078(5)
H26 H 0.2202 0.2596 0.2893
H27 H 0.931(5) 0.467(3) 0.062(3)
H28 H 0.930(7) 0.589(4) 0.071(4)
H29 H -0.208(3) 0.110(6) 0.404(5)
H30 H -0.111(7) 0.197(6) 0.435(4)
H31 H 1.208(5) -0.093(7) 0.097(5)
H32 H 1.114(6) -0.183(3) 0.083(4)
Cu1_2 Cu -0.00785(8) -0.48962(7) 0.23456(6)
Cu2A Cu 0.93912(7) -0.01823(7) -0.09816(5)
Cu3_2 Cu 0.94197(7) 0.99527(7) 0.40486(5)
Cu3A Cu 1.05803(7) 1.00473(7) 0.59514(5)
N2_2 N 1.1616(5) 0.5798(5) 0.2274(4)
N5_2 N -0.2153(5) -0.1026(5) 0.4156(3)
O1A O 1.0233(4) -0.1299(3) -0.0550(3)
O5_2 O 0.0240(4) -0.1250(4) 0.4395(3)
O5A O -0.0240(4) 0.1250(4) 0.5605(3)
O12 O 0.3853(9) 0.5253(10) 0.4608(7)
H33 H 0.3086 0.5095 0.4522
H34 H 0.4166 0.4582 0.4549
O13 O 0.1217(7) 0.4683(6) 0.4304(5)
H35 H 0.077(8) 0.519(8) 0.421(6)
H36 H 0.097(9) 0.456(9) 0.476(4)
loop_
_geom_bond_atom_site_label_1
_geom_bond_atom_site_label_2
_geom_bond_site_symmetry_1
_geom_bond_site_symmetry_2
Cu1 N3 1_555 1_555
Cu2 N1 1_555 1_555
Cu3 N6 1_555 1_555
P1 O5 1_555 1_555
P2 O1 1_555 1_555
N1 C1 1_555 1_555
N2 C20 1_555 1_555
N3 C23 1_555 1_555
N4 Cu2 1_555 1_555
N5 C6 1_555 1_555
N6 C32 1_555 1_555
O1 Cu2 1_555 1_555
O2 P2 1_555 1_555
O3 Cu1 1_555 1_555
O4 C5 1_555 1_555
O5 Cu3_2 1_555 1_555
O6 Cu1 1_555 1_555
O7 P1 1_555 1_555
O8 C10 1_555 1_555
O9 Cu3 1_555 1_555
O10 Cu2 1_555 1_555
O11 Cu1 1_555 1_555
C1 P2 1_555 1_555
C2 C1 1_555 1_555
H1 C2 1_555 1_555
C3 C2 1_555 1_555
H2 C3 1_555 1_555
C4 C3 1_555 1_555
H3 C4 1_555 1_555
C5 N1 1_555 1_555
C6 P1 1_555 1_555
C7 C6 1_555 1_555
H4 C7 1_555 1_555
C8 C7 1_555 1_555
H5 C8 1_555 1_555
C9 C8 1_555 1_555
H6 C9 1_555 1_555
C10 N5 1_555 1_555
C11 N4 1_555 1_555
H7 C11 1_555 1_555
C12 C11 1_555 1_555
H8 C12 1_555 1_555
C13 C12 1_555 1_555
C14 C13 1_555 1_555
H9 C14 1_555 1_555
C15 N4 1_555 1_555
H10 C15 1_555 1_555
C16 C13 1_555 1_555
H11 C16 1_555 1_555
C17 C16 1_555 1_555
H12 C17 1_555 1_555
C18 C17 1_555 1_555
C19 C18 1_555 1_555
H13 C19 1_555 1_555
C20 C19 1_555 1_555
H14 C20 1_555 1_555
C21 N2 1_555 1_555
H15 C21 1_555 1_555
C22 C18 1_555 1_555
H16 C22 1_555 1_555
C23 H17 1_555 1_555
C24 C23 1_555 1_555
H18 C24 1_555 1_555
C25 C24 1_555 1_555
C26 C25 1_555 1_555
H19 C26 1_555 1_555
C27 N3 1_555 1_555
H20 C27 1_555 1_555
C28 C25 1_555 1_555
H21 C28 1_555 1_555
C29 C28 1_555 1_555
H22 C29 1_555 1_555
C30 C29 1_555 1_555
C31 C30 1_555 1_555
H23 C31 1_555 1_555
C32 C31 1_555 1_555
H24 C32 1_555 1_555
C33 N6 1_555 1_555
H25 C33 1_555 1_555
C34 C30 1_555 1_555
H26 C34 1_555 1_555
H27 O11 1_555 1_555
H28 O11 1_555 1_555
H29 O9 1_555 1_555
H30 O9 1_555 1_555
H31 O10 1_555 1_555
H32 O10 1_555 1_555
O12 H33 1_555 1_555
H34 O12 1_555 1_555
O13 H35 1_555 1_555
H36 O13 1_555 1_555
Cu1_2 N2 1_555 1_555
Cu2A O1 1_555 1_555
Cu3_2 N5 1_555 1_555
Cu3A O5 1_555 1_555
N2_2 Cu1 1_555 1_555
N5_2 Cu3 1_555 1_555
O1A Cu2 1_555 1_555
O5_2 Cu3 1_555 1_555
O5A Cu3 1_555 1_555
P1 O6 1_555 1_555
P2 O3 1_555 1_555
C4 C5 1_555 1_555
C9 C10 1_555 1_555
C14 C15 1_555 1_555
C21 C22 1_555 1_555
C26 C27 1_555 1_555
C33 C34 1_555 1_555
Cu2A O1A 1_555 1_555

#END
