
#######################################################################
#
#                 Cambridge Crystallographic Data Centre
#                                CCDC 
#
#######################################################################
#
# If this CIF has been generated from an entry in the Cambridge 
# Structural Database, then it will include bibliographic, chemical, 
# crystal, experimental, refinement or atomic coordinate data resulting 
# from the CCDC's data processing and validation procedures.
#
#######################################################################

data_PUTVAD
_symmetry_cell_setting           monoclinic
_symmetry_space_group_name_H-M   'P 21/c'
_symmetry_Int_Tables_number      14
_space_group_name_Hall           '-P 2ybc'
loop_
_symmetry_equiv_pos_site_id
_symmetry_equiv_pos_as_xyz
1 x,y,z
2 -x,1/2+y,1/2-z
3 -x,-y,-z
4 x,1/2-y,1/2+z
_cell_length_a                   16.2603(4)
_cell_length_b                   8.6001(2)
_cell_length_c                   19.1562(6)
_cell_angle_alpha                90
_cell_angle_beta                 109.147(3)
_cell_angle_gamma                90
_cell_volume                     2530.62
loop_
_atom_site_label
_atom_site_type_symbol
_atom_site_fract_x
_atom_site_fract_y
_atom_site_fract_z
Co1 Co 1.045822(16) 0.63662(3) 0.333397(15)
N1 N 0.94030(11) 0.6632(2) 0.37659(9)
N2 N 0.63768(12) 0.7087(2) 0.39060(11)
N3 N 0.46672(12) 0.6133(3) 0.29882(11)
N4 N 0.15136(11) 0.6094(2) 0.29107(10)
N5 N 1.34177(14) 0.8398(3) 0.52029(12)
O1 O 1.04929(9) 1.11777(16) 0.26960(8)
O2 O 1.03551(9) 0.87847(16) 0.30713(8)
O3 O 1.13504(10) 0.69164(17) 0.43454(8)
O4 O 1.11679(11) 0.9104(2) 0.49020(10)
O5 O 1.29802(13) 0.7783(3) 0.55189(11)
O6 O 1.42034(14) 0.8404(4) 0.54505(15)
O7 O 1.06082(10) 0.39257(17) 0.35670(8)
H1 H 1.0585 0.3323 0.3209
H2 H 1.0488 0.3376 0.3890
C1 C 1.07862(12) 0.9976(2) 0.30730(10)
C2 C 1.17459(12) 1.0023(2) 0.35237(11)
C3 C 1.20915(13) 0.9189(2) 0.41827(11)
C4 C 1.29951(14) 0.9234(3) 0.45075(12)
C5 C 1.35371(14) 1.0054(3) 0.42172(13)
H3 H 1.4137 1.0039 0.4451
C6 C 1.31786(15) 1.0892(3) 0.35775(14)
H4 H 1.3533 1.1459 0.3376
C7 C 1.22871(14) 1.0884(3) 0.32375(13)
H5 H 1.2043 1.1463 0.2810
C8 C 1.14865(13) 0.8333(3) 0.45135(11)
C9 C 0.88962(15) 0.7896(3) 0.36461(13)
H6 H 0.9029 0.8725 0.3390
C10 C 0.81851(15) 0.8027(3) 0.38847(14)
H7 H 0.7854 0.8933 0.3793
C11 C 0.79667(14) 0.6810(3) 0.42596(12)
C12 C 0.84892(15) 0.5525(3) 0.43898(13)
H8 H 0.8371 0.4683 0.4647
C13 C 0.91913(15) 0.5480(3) 0.41397(13)
H9 H 0.9538 0.4593 0.4237
C14 C 0.71853(15) 0.6864(3) 0.45202(14)
H10 H 0.7151 0.5901 0.4773
H11 H 0.7256 0.7709 0.4871
C15 C 0.56351(15) 0.7057(3) 0.41797(15)
H12 H 0.5708 0.7859 0.4551
H13 H 0.5615 0.6059 0.4410
C16 C 0.47927(15) 0.7319(3) 0.35574(15)
H14 H 0.4310 0.7290 0.3750
H15 H 0.4802 0.8338 0.3343
C17 C 0.54157(15) 0.6171(4) 0.27248(14)
H16 H 0.5445 0.7177 0.2506
H17 H 0.5345 0.5384 0.2347
C18 C 0.62474(15) 0.5880(3) 0.33502(14)
H18 H 0.6220 0.4873 0.3570
H19 H 0.6734 0.5871 0.3163
C19 C 0.38720(15) 0.6346(4) 0.23619(14)
H20 H 0.3857 0.5573 0.1989
H21 H 0.3889 0.7362 0.2147
C20 C 0.30495(14) 0.6217(3) 0.25562(13)
C21 C 0.29970(14) 0.5368(3) 0.31533(14)
H22 H 0.3479 0.4817 0.3446
C22 C 0.22340(14) 0.5339(3) 0.33135(13)
H23 H 0.2216 0.4768 0.3721
C23 C 0.15532(14) 0.6849(3) 0.23172(12)
H24 H 0.1052 0.7335 0.2015
C24 C 0.23001(15) 0.6949(3) 0.21257(13)
H25 H 0.2298 0.7506 0.1709
Co1_2 Co 0.045822(16) 0.63662(3) 0.333397(15)
Co1A Co 0.954178(16) 1.13662(3) 0.166603(15)
N4_2 N 1.15136(11) 0.6094(2) 0.29107(10)
O1A O 0.95071(9) 0.61777(16) 0.23040(8)
O8 O 0.99200(11) 0.8226(2) 0.55921(9)
H26 H 0.9545 0.8947 0.5450
H27 H 1.0319 0.8401 0.5406
loop_
_geom_bond_atom_site_label_1
_geom_bond_atom_site_label_2
_geom_bond_site_symmetry_1
_geom_bond_site_symmetry_2
Co1 N1 1_555 1_555
N1 C9 1_555 1_555
N2 C14 1_555 1_555
N3 C16 1_555 1_555
N4 C22 1_555 1_555
N5 O5 1_555 1_555
O1 C1 1_555 1_555
O2 Co1 1_555 1_555
O3 Co1 1_555 1_555
O4 C8 1_555 1_555
O6 N5 1_555 1_555
O7 Co1 1_555 1_555
H1 O7 1_555 1_555
H2 O7 1_555 1_555
C1 O2 1_555 1_555
C2 C1 1_555 1_555
C3 C2 1_555 1_555
C4 N5 1_555 1_555
C5 C4 1_555 1_555
H3 C5 1_555 1_555
C6 C5 1_555 1_555
H4 C6 1_555 1_555
C7 C2 1_555 1_555
H5 C7 1_555 1_555
C8 O3 1_555 1_555
C9 H6 1_555 1_555
C10 C9 1_555 1_555
H7 C10 1_555 1_555
C11 C10 1_555 1_555
C12 C11 1_555 1_555
H8 C12 1_555 1_555
C13 N1 1_555 1_555
H9 C13 1_555 1_555
C14 C11 1_555 1_555
H10 C14 1_555 1_555
H11 C14 1_555 1_555
C15 N2 1_555 1_555
H12 C15 1_555 1_555
H13 C15 1_555 1_555
C16 C15 1_555 1_555
H14 C16 1_555 1_555
H15 C16 1_555 1_555
C17 N3 1_555 1_555
H16 C17 1_555 1_555
H17 C17 1_555 1_555
C18 N2 1_555 1_555
H18 C18 1_555 1_555
H19 C18 1_555 1_555
C19 N3 1_555 1_555
H20 C19 1_555 1_555
H21 C19 1_555 1_555
C20 C19 1_555 1_555
C21 C20 1_555 1_555
H22 C21 1_555 1_555
C22 C21 1_555 1_555
H23 C22 1_555 1_555
C23 N4 1_555 1_555
H24 C23 1_555 1_555
C24 C20 1_555 1_555
H25 C24 1_555 1_555
O8 H26 1_555 1_555
H27 O8 1_555 1_555
Co1_2 N4 1_555 1_555
Co1A O1 1_555 1_555
N4_2 Co1 1_555 1_555
O1A Co1 1_555 1_555
C3 C4 1_555 1_555
C3 C8 1_555 1_555
C6 C7 1_555 1_555
C12 C13 1_555 1_555
C17 C18 1_555 1_555
C23 C24 1_555 1_555

#END
