
#######################################################################
#
#                 Cambridge Crystallographic Data Centre
#                                CCDC 
#
#######################################################################
#
# If this CIF has been generated from an entry in the Cambridge 
# Structural Database, then it will include bibliographic, chemical, 
# crystal, experimental, refinement or atomic coordinate data resulting 
# from the CCDC's data processing and validation procedures.
#
#######################################################################

data_PUTYAE
_symmetry_cell_setting           tetragonal
_symmetry_space_group_name_H-M   'P 43 21 2'
_symmetry_Int_Tables_number      96
_space_group_name_Hall           'P 4nw 2abw'
loop_
_symmetry_equiv_pos_site_id
_symmetry_equiv_pos_as_xyz
1 x,y,z
2 -x,-y,1/2+z
3 1/2-y,1/2+x,3/4+z
4 1/2+y,1/2-x,1/4+z
5 y,x,-z
6 -y,-x,1/2-z
7 1/2-x,1/2+y,3/4-z
8 1/2+x,1/2-y,1/4-z
_cell_length_a                   12.652(1)
_cell_length_b                   12.652(1)
_cell_length_c                   12.362(1)
_cell_angle_alpha                90
_cell_angle_beta                 90
_cell_angle_gamma                90
_cell_volume                     1978.82
loop_
_atom_site_label
_atom_site_type_symbol
_atom_site_fract_x
_atom_site_fract_y
_atom_site_fract_z
Ag1 Ag -0.12912(5) -0.12912(5) 0.0000
N1 N -0.2138(5) 0.0295(6) -0.0702(5)
N2 N -0.0383(6) -0.0619(6) -0.1623(6)
N3 N -0.3016(6) 0.2136(6) -0.1598(5)
C1 C -0.2979(8) 0.0741(8) -0.0303(7)
H1 H -0.3304 0.0425 0.0289
C2 C -0.1704(6) 0.0766(7) -0.1583(6)
C3 C -0.0766(6) 0.0291(6) -0.2049(7)
C4 C 0.0493(8) -0.0984(7) -0.2059(8)
H2 H 0.0798 -0.1590 -0.1771
C5 C -0.3418(8) 0.1664(8) -0.0715(8)
H3 H -0.4001 0.1961 -0.0373
C6 C -0.2138(6) 0.1665(6) -0.2022(6)
C4E C 0.0984(7) -0.0493(8) -0.2941(8)
N2E N 0.0619(6) 0.0383(6) -0.3377(6)
C3E C -0.0291(6) 0.0766(6) -0.2951(7)
C2E C -0.0766(7) 0.1704(6) -0.3417(6)
N1E N -0.0295(6) 0.2138(5) -0.4298(5)
C1E C -0.0741(8) 0.2979(8) -0.4697(7)
H1E H -0.0425 0.3304 -0.5289
C5E C -0.1664(8) 0.3418(8) -0.4285(8)
N3E N -0.2136(6) 0.3016(6) -0.3402(5)
C6E C -0.1665(6) 0.2138(6) -0.2978(6)
H3E H -0.1961 0.4001 -0.4627
H2E H 0.1590 -0.0798 -0.3229
N1D N 0.0295(6) -0.2138(5) 0.0702(5)
N2D N -0.0619(6) -0.0383(6) 0.1623(6)
N3C N -0.2864(6) -0.1984(6) 0.0902(5)
N3F N -0.1984(6) -0.2864(6) -0.0902(5)
Ag1E Ag 0.12912(5) 0.12912(5) -0.5000
Ag1B Ag -0.37088(5) 0.37088(5) -0.2500
Cl1 Cl 0.1542(4) 0.1542(4) 0.0000
O3 O 0.2620(17) 0.1870(17) -0.0373(17)
O4 O 0.172(3) 0.042(3) 0.004(3)
O3D O 0.1870(17) 0.2620(17) 0.0373(17)
O4D O 0.042(3) 0.172(3) -0.004(3)
O5 O -0.4904(13) -0.1209(13) -0.0503(12)
O6 O -0.5817(16) -0.0379(16) -0.1609(16)
N4 N -0.5797(16) -0.0912(15) -0.0737(16)
C7 C -0.6719(14) -0.1302(14) -0.0269(14)
O1? O 1.0846(17) 1.1694(17) -0.0800(17)
O2? O 1.131(3) 1.192(3) 0.104(3)
loop_
_geom_bond_atom_site_label_1
_geom_bond_atom_site_label_2
_geom_bond_site_symmetry_1
_geom_bond_site_symmetry_2
Ag1 N1 1_555 1_555
N1 C1 1_555 1_555
N2 Ag1 1_555 1_555
N3 C5 1_555 1_555
C1 H1 1_555 1_555
C2 N1 1_555 1_555
C3 N2 1_555 1_555
C4 N2 1_555 1_555
H2 C4 1_555 1_555
C5 C1 1_555 1_555
H3 C5 1_555 1_555
C6 N3 1_555 1_555
Cl1 O3 1_555 1_555
O4 Cl1 1_555 1_555
O5 N4 1_555 1_555
O6 N4 1_555 1_555
N4 C7 1_555 1_555
C4E C4 1_555 1_555
N2E C4E 1_555 1_555
C3E C3 1_555 1_555
C2E C3E 1_555 1_555
N1E C2E 1_555 1_555
C1E N1E 1_555 1_555
H1E C1E 1_555 1_555
C5E C1E 1_555 1_555
N3E C5E 1_555 1_555
C6E C6 1_555 1_555
H3E C5E 1_555 1_555
H2E C4E 1_555 1_555
O3D Cl1 1_555 1_555
O4D Cl1 1_555 1_555
N1D Ag1 1_555 1_555
N2D Ag1 1_555 1_555
N3C Ag1 1_555 1_555
N3F Ag1 1_555 1_555
Ag1E N2E 1_555 1_555
Ag1B N3 1_555 1_555
C2 C6 1_555 1_555
C2 C3 1_555 1_555
N2E C3E 1_555 1_555
C2E C6E 1_555 1_555
N1E Ag1E 1_555 1_555
N3E C6E 1_555 1_555
N3E Ag1B 1_555 1_555

#END
