
#######################################################################
#
#                 Cambridge Crystallographic Data Centre
#                                CCDC 
#
#######################################################################
#
# If this CIF has been generated from an entry in the Cambridge 
# Structural Database, then it will include bibliographic, chemical, 
# crystal, experimental, refinement or atomic coordinate data resulting 
# from the CCDC's data processing and validation procedures.
#
#######################################################################

data_PUVQED
_symmetry_cell_setting           monoclinic
_symmetry_space_group_name_H-M   'P 21/n'
_symmetry_Int_Tables_number      14
_space_group_name_Hall           '-P 2yn'
loop_
_symmetry_equiv_pos_site_id
_symmetry_equiv_pos_as_xyz
1 x,y,z
2 1/2-x,1/2+y,1/2-z
3 -x,-y,-z
4 1/2+x,1/2-y,1/2+z
_cell_length_a                   11.6443(4)
_cell_length_b                   16.3722(4)
_cell_length_c                   19.2871(8)
_cell_angle_alpha                90
_cell_angle_beta                 97.641(3)
_cell_angle_gamma                90
_cell_volume                     3644.3
loop_
_atom_site_label
_atom_site_type_symbol
_atom_site_fract_x
_atom_site_fract_y
_atom_site_fract_z
C1 C 0.7669(6) 0.5711(4) 0.2247(4)
H1 H 0.8076 0.5201 0.2317
H2 H 0.7505 0.5821 0.1755
H3 H 0.6957 0.5679 0.2445
C2 C 0.8768(5) 0.6265(3) 0.3286(3)
C3 C 0.8444(6) 0.5646(4) 0.3703(4)
H4 H 0.7938 0.5241 0.3511
C4 C 0.8875(7) 0.5628(4) 0.4410(4)
H5 H 0.8646 0.5217 0.4695
C5 C 0.9634(6) 0.6216(4) 0.4685(3)
H6 H 0.9926 0.6196 0.5157
C6 C 0.9984(5) 0.6851(3) 0.4268(3)
C7 C 0.9561(4) 0.6870(3) 0.3550(2)
C8 C 1.0768(4) 0.7448(4) 0.4610(2)
H7 H 1.1075 0.7333 0.5070
C9 C 1.1926(5) 0.8618(4) 0.4825(3)
H8 H 1.2687 0.8572 0.4676
H9 H 1.1977 0.8411 0.5299
C10 C 1.1571(6) 0.9506(4) 0.4815(3)
H10 H 1.0746 0.9536 0.4841
H11 H 1.1969 0.9770 0.5229
C11 C 1.1824(6) 0.9968(4) 0.4186(3)
H12 H 1.1691 1.0544 0.4261
H13 H 1.2638 0.9900 0.4138
C12 C 1.0913(5) 1.0273(3) 0.3069(3)
H14 H 1.1158 1.0795 0.3210
C13 C 1.0340(4) 1.0205(3) 0.2353(3)
C14 C 1.0255(6) 1.0920(3) 0.1948(3)
H15 H 1.0531 1.1409 0.2151
C15 C 0.9773(7) 1.0911(4) 0.1261(3)
H16 H 0.9711 1.1395 0.1005
C16 C 0.9376(6) 1.0181(3) 0.0941(3)
H17 H 0.9068 1.0169 0.0471
C17 C 0.9451(4) 0.9481(3) 0.1335(2)
C18 C 0.9918(4) 0.9471(2) 0.2045(2)
C19 C 0.8506(5) 0.8670(4) 0.0384(3)
H18 H 0.7800 0.8979 0.0352
H19 H 0.8331 0.8111 0.0263
H20 H 0.8994 0.8894 0.0067
C20 C 1.6997(4) 0.7799(3) 0.1924(2)
C21 C 1.5454(4) 0.8210(3) 0.2631(3)
H21 H 1.6030 0.8450 0.2946
C22 C 1.5741(3) 0.7838(3) 0.2031(2)
C23 C 1.4882(3) 0.7490(3) 0.1562(2)
H22 H 1.5070 0.7241 0.1158
C24 C 1.2210(3) 0.7889(3) 0.2458(2)
C25 C 1.4317(4) 0.8225(3) 0.2762(3)
H23 H 1.4134 0.8470 0.3168
C26 C 1.3443(3) 0.7878(3) 0.2293(2)
C27 C 1.3735(3) 0.7511(3) 0.1692(2)
H24 H 1.3160 0.7277 0.1373
C28 C 0.9817(4) 0.6307(3) 0.0986(2)
C29 C 0.9919(4) 0.5635(3) 0.0472(2)
C30 C 0.9834(4) 0.4829(3) 0.0680(2)
H25 H 0.9724 0.4712 0.1138
C31 C 1.0087(4) 0.5807(3) -0.0209(2)
H26 H 1.0147 0.6346 -0.0353
Dy1 Dy 0.938227(14) 0.752140(14) 0.192937(9)
N1 N 1.1091(3) 0.8116(3) 0.43596(19)
N2 N 1.1126(3) 0.9715(2) 0.3528(2)
Ni1 Ni 1.05696(4) 0.85331(3) 0.33796(3)
O1 O 0.8375(3) 0.6357(2) 0.25827(19)
O2 O 0.9880(2) 0.74151(19) 0.31107(14)
O3 O 0.9935(3) 0.87789(17) 0.23826(14)
O4 O 0.9097(3) 0.87125(19) 0.10871(15)
O5 O 1.7732(2) 0.8146(2) 0.23681(18)
O6 O 1.7307(2) 0.7403(2) 0.14188(15)
O7 O 1.1439(2) 0.7584(2) 0.20171(16)
O8 O 1.2083(2) 0.8210(2) 0.30311(16)
O9 O 0.9862(3) 0.6138(2) 0.16199(17)
O10 O 0.9659(3) 0.70278(19) 0.07704(16)
O11 O 0.8836(3) 0.8895(2) 0.36054(18)
C1_2 C -0.2331(6) 0.5711(4) 0.2247(4)
H1_2 H -0.1924 0.5201 0.2317
H2_2 H -0.2495 0.5821 0.1755
H3_2 H -0.3043 0.5679 0.2445
C2_2 C -0.1232(5) 0.6265(3) 0.3286(3)
C3_2 C -0.1556(6) 0.5646(4) 0.3703(4)
H4_2 H -0.2062 0.5241 0.3511
C4_2 C -0.1125(7) 0.5628(4) 0.4410(4)
H5_2 H -0.1354 0.5217 0.4695
C5_2 C -0.0366(6) 0.6216(4) 0.4685(3)
H6_2 H -0.0074 0.6196 0.5157
C6_2 C -0.0016(5) 0.6851(3) 0.4268(3)
C7_2 C -0.0439(4) 0.6870(3) 0.3550(2)
C8_2 C 0.0768(4) 0.7448(4) 0.4610(2)
H7_2 H 0.1075 0.7333 0.5070
C9_2 C 0.1926(5) 0.8618(4) 0.4825(3)
H8_2 H 0.2687 0.8572 0.4676
H9_2 H 0.1977 0.8411 0.5299
C10_2 C 0.1571(6) 0.9506(4) 0.4815(3)
H10_2 H 0.0746 0.9536 0.4841
H11_2 H 0.1969 0.9770 0.5229
C11_2 C 0.1824(6) 0.9968(4) 0.4186(3)
H12_2 H 0.1691 1.0544 0.4261
H13_2 H 0.2638 0.9900 0.4138
C12_2 C 0.0913(5) 1.0273(3) 0.3069(3)
H14_2 H 0.1158 1.0795 0.3210
C13_2 C 0.0340(4) 1.0205(3) 0.2353(3)
C14_2 C 0.0255(6) 1.0920(3) 0.1948(3)
H15_2 H 0.0531 1.1409 0.2151
C15_2 C -0.0227(7) 1.0911(4) 0.1261(3)
H16_2 H -0.0289 1.1395 0.1005
C16_2 C -0.0624(6) 1.0181(3) 0.0941(3)
H17_2 H -0.0932 1.0169 0.0471
C17_2 C -0.0549(4) 0.9481(3) 0.1335(2)
C18_2 C -0.0082(4) 0.9471(2) 0.2045(2)
C19_2 C -0.1494(5) 0.8670(4) 0.0384(3)
H18_2 H -0.2200 0.8979 0.0352
H19_2 H -0.1669 0.8111 0.0263
H20_2 H -0.1006 0.8894 0.0067
C20_2 C 0.6997(4) 0.7799(3) 0.1924(2)
C21_2 C 0.5454(4) 0.8210(3) 0.2631(3)
H21_2 H 0.6030 0.8450 0.2946
C22_2 C 0.5741(3) 0.7838(3) 0.2031(2)
C23_2 C 0.4882(3) 0.7490(3) 0.1562(2)
H22_2 H 0.5070 0.7241 0.1158
C24_2 C 0.2210(3) 0.7889(3) 0.2458(2)
C25_2 C 0.4317(4) 0.8225(3) 0.2762(3)
H23_2 H 0.4134 0.8470 0.3168
C26_2 C 0.3443(3) 0.7878(3) 0.2293(2)
C27_2 C 0.3735(3) 0.7511(3) 0.1692(2)
H24_2 H 0.3160 0.7277 0.1373
C28B C 1.0183(4) 0.3693(3) -0.0986(2)
C29B C 1.0081(4) 0.4365(3) -0.0472(2)
C30B C 1.0166(4) 0.5171(3) -0.0680(2)
H25B H 1.0276 0.5288 -0.1138
C31B C 0.9913(4) 0.4193(3) 0.0209(2)
H26B H 0.9853 0.3654 0.0353
Dy1_2 Dy -0.061773(14) 0.752140(14) 0.192937(9)
Dy1_3 Dy 1.938227(14) 0.752140(14) 0.192937(9)
Dy1B Dy 1.061773(14) 0.247860(14) -0.192937(9)
N1_2 N 0.1091(3) 0.8116(3) 0.43596(19)
N2_2 N 0.1126(3) 0.9715(2) 0.3528(2)
Ni1_2 Ni 0.05696(4) 0.85331(3) 0.33796(3)
O1_2 O -0.1625(3) 0.6357(2) 0.25827(19)
O2_2 O -0.0120(2) 0.74151(19) 0.31107(14)
O3_2 O -0.0065(3) 0.87789(17) 0.23826(14)
O4_2 O -0.0903(3) 0.87125(19) 0.10871(15)
O5_2 O 0.7732(2) 0.8146(2) 0.23681(18)
O5_3 O -0.2268(2) 0.8146(2) 0.23681(18)
O6_2 O 0.7307(2) 0.7403(2) 0.14188(15)
O6_3 O -0.2693(2) 0.7403(2) 0.14188(15)
O7_2 O 0.1439(2) 0.7584(2) 0.20171(16)
O8_2 O 0.2083(2) 0.8210(2) 0.30311(16)
O9B O 1.0138(3) 0.3862(2) -0.16199(17)
O9_2 O -0.0138(3) 0.6138(2) 0.16199(17)
O10B O 1.0341(3) 0.29722(19) -0.07704(16)
O10_2 O -0.0341(3) 0.70278(19) 0.07704(16)
O11_2 O -0.1164(3) 0.8895(2) 0.36054(18)
C32 C 0.2402(11) 0.7364(11) -0.0049(5)
C33 C 0.1685(8) 0.8051(5) 0.0260(4)
H27 H 0.0987 0.7822 0.0393
H28 H 0.1490 0.8467 -0.0087
H29 H 0.2137 0.8286 0.0663
N3 N 0.2871(11) 0.6865(7) -0.0287(7)
C34 C 0.7060(9) 0.9906(7) -0.1419(5)
C35 C 0.6552(8) 0.9599(8) -0.2070(5)
H30 H 0.5737 0.9719 -0.2135
H31 H 0.6663 0.9018 -0.2082
H32 H 0.6908 0.9850 -0.2437
N4 N 0.7486(10) 1.0150(8) -0.0914(5)
loop_
_geom_bond_atom_site_label_1
_geom_bond_atom_site_label_2
_geom_bond_site_symmetry_1
_geom_bond_site_symmetry_2
C1 H1 1_555 1_555
H2 C1 1_555 1_555
H3 C1 1_555 1_555
C2 C3 1_555 1_555
C3 H4 1_555 1_555
C4 C3 1_555 1_555
H5 C4 1_555 1_555
C5 C4 1_555 1_555
H6 C5 1_555 1_555
C6 C5 1_555 1_555
C7 C2 1_555 1_555
C8 C6 1_555 1_555
H7 C8 1_555 1_555
C9 H8 1_555 1_555
H9 C9 1_555 1_555
C10 C9 1_555 1_555
H10 C10 1_555 1_555
H11 C10 1_555 1_555
C11 C10 1_555 1_555
H12 C11 1_555 1_555
H13 C11 1_555 1_555
C12 H14 1_555 1_555
C13 C12 1_555 1_555
C14 C13 1_555 1_555
H15 C14 1_555 1_555
C15 C14 1_555 1_555
H16 C15 1_555 1_555
C16 C15 1_555 1_555
H17 C16 1_555 1_555
C17 C16 1_555 1_555
C18 C13 1_555 1_555
C19 H18 1_555 1_555
H19 C19 1_555 1_555
H20 C19 1_555 1_555
C20 C22 1_555 1_555
C21 H21 1_555 1_555
C22 C21 1_555 1_555
C23 C22 1_555 1_555
H22 C23 1_555 1_555
C24 C26 1_555 1_555
C25 C21 1_555 1_555
H23 C25 1_555 1_555
C26 C25 1_555 1_555
C27 C23 1_555 1_555
H24 C27 1_555 1_555
C28 C29 1_555 1_555
C29 C30 1_555 1_555
C30 H25 1_555 1_555
C31 C29 1_555 1_555
H26 C31 1_555 1_555
C32 C33 1_555 1_555
C33 H27 1_555 1_555
H28 C33 1_555 1_555
H29 C33 1_555 1_555
C34 C35 1_555 1_555
C35 H30 1_555 1_555
H31 C35 1_555 1_555
H32 C35 1_555 1_555
Dy1 O1 1_555 1_555
N1 C8 1_555 1_555
N2 C11 1_555 1_555
N3 C32 1_555 1_555
N4 C34 1_555 1_555
Ni1 N1 1_555 1_555
O1 C1 1_555 1_555
O2 C7 1_555 1_555
O3 C18 1_555 1_555
O4 C17 1_555 1_555
O5 C20 1_555 1_555
O6 C20 1_555 1_555
O7 C24 1_555 1_555
O8 C24 1_555 1_555
O9 C28 1_555 1_555
O10 C28 1_555 1_555
O11 Ni1 1_555 1_555
C1_2 H1_2 1_555 1_555
H2_2 C1_2 1_555 1_555
H3_2 C1_2 1_555 1_555
C2_2 C3_2 1_555 1_555
C3_2 H4_2 1_555 1_555
C4_2 C3_2 1_555 1_555
H5_2 C4_2 1_555 1_555
C5_2 C4_2 1_555 1_555
H6_2 C5_2 1_555 1_555
C6_2 C5_2 1_555 1_555
C7_2 C2_2 1_555 1_555
C8_2 C6_2 1_555 1_555
H7_2 C8_2 1_555 1_555
C9_2 H8_2 1_555 1_555
H9_2 C9_2 1_555 1_555
C10_2 C9_2 1_555 1_555
H10_2 C10_2 1_555 1_555
H11_2 C10_2 1_555 1_555
C11_2 C10_2 1_555 1_555
H12_2 C11_2 1_555 1_555
H13_2 C11_2 1_555 1_555
C12_2 H14_2 1_555 1_555
C13_2 C12_2 1_555 1_555
C14_2 C13_2 1_555 1_555
H15_2 C14_2 1_555 1_555
C15_2 C14_2 1_555 1_555
H16_2 C15_2 1_555 1_555
C16_2 C15_2 1_555 1_555
H17_2 C16_2 1_555 1_555
C17_2 C16_2 1_555 1_555
C18_2 C13_2 1_555 1_555
C19_2 H18_2 1_555 1_555
H19_2 C19_2 1_555 1_555
H20_2 C19_2 1_555 1_555
C20_2 C22_2 1_555 1_555
C21_2 H21_2 1_555 1_555
C22_2 C21_2 1_555 1_555
C23_2 C22_2 1_555 1_555
H22_2 C23_2 1_555 1_555
C24_2 C26_2 1_555 1_555
C25_2 C21_2 1_555 1_555
H23_2 C25_2 1_555 1_555
C26_2 C25_2 1_555 1_555
C27_2 C23_2 1_555 1_555
H24_2 C27_2 1_555 1_555
C28B C29B 1_555 1_555
C29B C30B 1_555 1_555
C30B C31 1_555 1_555
H25B C30B 1_555 1_555
C31B C30 1_555 1_555
H26B C31B 1_555 1_555
Dy1_2 O1_2 1_555 1_555
Dy1_3 O5 1_555 1_555
Dy1B O9B 1_555 1_555
N1_2 C8_2 1_555 1_555
N2_2 C11_2 1_555 1_555
Ni1_2 N1_2 1_555 1_555
O1_2 C1_2 1_555 1_555
O2_2 C7_2 1_555 1_555
O3_2 C18_2 1_555 1_555
O4_2 C17_2 1_555 1_555
O5_2 Dy1 1_555 1_555
O5_3 Dy1_2 1_555 1_555
O6_2 Dy1 1_555 1_555
O6_3 Dy1_2 1_555 1_555
O7_2 C24_2 1_555 1_555
O8_2 C24_2 1_555 1_555
O9B C28B 1_555 1_555
O9_2 Dy1_2 1_555 1_555
O10B C28B 1_555 1_555
O10_2 Dy1_2 1_555 1_555
O11_2 Ni1_2 1_555 1_555
C2 O1 1_555 1_555
C6 C7 1_555 1_555
C9 N1 1_555 1_555
C12 N2 1_555 1_555
C17 C18 1_555 1_555
C19 O4 1_555 1_555
C26 C27 1_555 1_555
Dy1 O2 1_555 1_555
Dy1 O3 1_555 1_555
Dy1 O4 1_555 1_555
Dy1 O7 1_555 1_555
Dy1 O9 1_555 1_555
Dy1 O10 1_555 1_555
N2 Ni1 1_555 1_555
Ni1 O2 1_555 1_555
Ni1 O3 1_555 1_555
Ni1 O8 1_555 1_555
O6 Dy1_3 1_555 1_555
C2_2 O1_2 1_555 1_555
C6_2 C7_2 1_555 1_555
C9_2 N1_2 1_555 1_555
C12_2 N2_2 1_555 1_555
C17_2 C18_2 1_555 1_555
C19_2 O4_2 1_555 1_555
C20_2 O5_2 1_555 1_555
C20_2 O6_2 1_555 1_555
C26_2 C27_2 1_555 1_555
C29B C31B 1_555 1_555
Dy1_2 O2_2 1_555 1_555
Dy1_2 O3_2 1_555 1_555
Dy1_2 O4_2 1_555 1_555
Dy1_2 O7_2 1_555 1_555
Dy1B O10B 1_555 1_555
N2_2 Ni1_2 1_555 1_555
Ni1_2 O2_2 1_555 1_555
Ni1_2 O3_2 1_555 1_555
Ni1_2 O8_2 1_555 1_555

#END
