
#######################################################################
#
#                 Cambridge Crystallographic Data Centre
#                                CCDC 
#
#######################################################################
#
# If this CIF has been generated from an entry in the Cambridge 
# Structural Database, then it will include bibliographic, chemical, 
# crystal, experimental, refinement or atomic coordinate data resulting 
# from the CCDC's data processing and validation procedures.
#
#######################################################################

data_PUWQAA
_symmetry_cell_setting           orthorhombic
_symmetry_space_group_name_H-M   'P b c n'
_symmetry_Int_Tables_number      60
_space_group_name_Hall           '-P 2n 2ab'
loop_
_symmetry_equiv_pos_site_id
_symmetry_equiv_pos_as_xyz
1 x,y,z
2 1/2-x,1/2-y,1/2+z
3 -x,y,1/2-z
4 1/2+x,1/2-y,-z
5 -x,-y,-z
6 1/2+x,1/2+y,1/2-z
7 x,-y,1/2+z
8 1/2-x,1/2+y,z
_cell_length_a                   9.4370(10)
_cell_length_b                   33.637(4)
_cell_length_c                   14.6329(15)
_cell_angle_alpha                90
_cell_angle_beta                 90
_cell_angle_gamma                90
_cell_volume                     4644.96
loop_
_atom_site_label
_atom_site_type_symbol
_atom_site_fract_x
_atom_site_fract_y
_atom_site_fract_z
Cd1 Cd 1.08888(4) 0.691330(11) 0.50705(2)
Cd2 Cd 1.0000 0.541720(16) 0.2500
Cd3 Cd 1.5000 0.411430(16) 0.2500
N2 N 1.2300(6) 0.46922(15) 0.1650(3)
C3 C 1.2569(6) 0.47727(15) 0.2590(4)
O2 O 1.3071(5) 0.44509(12) 0.1259(3)
N3 N 1.3531(5) 0.45871(13) 0.3070(3)
O3 O 1.1311(5) 0.48651(13) 0.1267(3)
C4 C 1.2436(8) 0.50517(18) 0.3871(4)
H1 H 1.2181 0.5214 0.4359
N4 N 1.1838(5) 0.50628(13) 0.3020(3)
C5 C 1.3470(7) 0.47650(17) 0.3897(4)
H2 H 1.4034 0.4704 0.4399
O4 O 1.1020(5) 0.65855(12) 0.6693(3)
O5 O 1.2388(5) 0.62293(13) 0.7564(3)
N5 N 1.4583(5) 0.63302(14) 0.6380(3)
N6 N 1.2178(6) 0.64305(13) 0.6866(3)
C6 C 1.3303(7) 0.64807(16) 0.6245(4)
O6 O 0.8920(5) 0.71360(13) 0.3793(3)
N7 N 0.7950(6) 0.73299(14) 0.4157(3)
N8 N 0.8849(5) 0.71491(13) 0.5652(3)
N9 N 0.6939(5) 0.75510(13) 0.5580(3)
N10 N 1.3122(5) 0.67058(14) 0.5501(3)
N11 N 1.0128(5) 0.62867(13) 0.4771(3)
O7 O 0.7010(5) 0.75071(13) 0.3738(3)
C7 C 0.7904(6) 0.73417(15) 0.5145(3)
C8 C 0.7277(7) 0.74805(17) 0.6463(4)
H3 H 0.6799 0.7585 0.6965
C9 C 0.8410(7) 0.72363(17) 0.6507(4)
H4 H 0.8824 0.7143 0.7043
N12 N 0.9868(6) 0.57460(12) 0.3859(3)
C10 C 1.0439(6) 0.61065(16) 0.3990(4)
C11 C 0.9128(8) 0.56920(18) 0.4646(4)
H5 H 0.8588 0.5469 0.4788
C12 C 0.9303(8) 0.60168(17) 0.5193(4)
H6 H 0.8911 0.6047 0.5772
O8 O 1.1634(5) 0.60965(13) 0.2642(3)
O9 O 1.1743(5) 0.66307(12) 0.3470(3)
N13 N 1.1328(6) 0.62897(15) 0.3324(3)
C13 C 1.4444(7) 0.6700(2) 0.5120(4)
H7 H 1.4710 0.6832 0.4588
C14 C 1.5310(8) 0.6468(2) 0.5647(5)
H8 H 1.6256 0.6413 0.5521
Cd1B Cd 0.91112(4) 0.691330(11) -0.00705(2)
Cd1C Cd 0.58888(4) 0.808670(11) 0.49295(2)
Cd1C_2 Cd 1.58888(4) 0.808670(11) 0.49295(2)
Cd1F Cd 1.08888(4) 0.308670(11) 0.00705(2)
Cd3D Cd 1.5000 0.588570(16) 0.7500
Cd3_2 Cd 0.5000 0.411430(16) 0.2500
N2B N 0.7700(6) 0.46922(15) 0.3350(3)
C3B C 0.7431(6) 0.47727(15) 0.2410(4)
O2B O 0.6929(5) 0.44509(12) 0.3741(3)
N3B N 0.6469(5) 0.45871(13) 0.1930(3)
N3B_2 N 1.6469(5) 0.45871(13) 0.1930(3)
O3B O 0.8689(5) 0.48651(13) 0.3733(3)
C4B C 0.7564(8) 0.50517(18) 0.1129(4)
H1B H 0.7819 0.5214 0.0641
N4B N 0.8162(5) 0.50628(13) 0.1980(3)
C5B C 0.6530(7) 0.47650(17) 0.1103(4)
H2B H 0.5966 0.4704 0.0601
O4F O 1.1020(5) 0.34145(12) 0.1693(3)
O5F O 1.2388(5) 0.37707(13) 0.2564(3)
N5F N 1.4583(5) 0.36698(14) 0.1380(3)
N5D N 1.5417(5) 0.36698(14) 0.3620(3)
N6F N 1.2178(6) 0.35695(13) 0.1866(3)
C6F C 1.3303(7) 0.35193(16) 0.1245(4)
O6C O 1.3920(5) 0.78640(13) 0.6207(3)
N7C N 1.2950(6) 0.76701(14) 0.5843(3)
N8C N 1.3849(5) 0.78509(13) 0.4348(3)
N8B N 1.1151(5) 0.71491(13) -0.0652(3)
N9C N 1.1939(5) 0.74490(13) 0.4420(3)
N9A N 0.8061(5) 0.74490(13) 0.0580(3)
N10F N 1.3122(5) 0.32942(14) 0.0501(3)
N10B N 0.6878(5) 0.67058(14) -0.0501(3)
N11B N 0.9872(5) 0.62867(13) 0.0229(3)
O7C O 1.2010(5) 0.74929(13) 0.6262(3)
C7C C 1.2904(6) 0.76583(15) 0.4855(3)
C8C C 1.2277(7) 0.75195(17) 0.3537(4)
H3C H 1.1799 0.7415 0.3035
C9C C 1.3410(7) 0.77637(17) 0.3493(4)
H4C H 1.3824 0.7857 0.2957
N12B N 1.0132(6) 0.57460(12) 0.1141(3)
C10B C 0.9561(6) 0.61065(16) 0.1010(4)
C11B C 1.0872(8) 0.56920(18) 0.0354(4)
H5B H 1.1412 0.5469 0.0212
C12B C 1.0697(8) 0.60168(17) -0.0193(4)
H6B H 1.1089 0.6047 -0.0772
O8B O 0.8366(5) 0.60965(13) 0.2358(3)
O9B O 0.8257(5) 0.66307(12) 0.1530(3)
N13B N 0.8672(6) 0.62897(15) 0.1676(3)
C13F C 1.4444(7) 0.3300(2) 0.0120(4)
H7F H 1.4710 0.3168 -0.0412
C14F C 1.5310(8) 0.3532(2) 0.0647(5)
H8F H 1.6256 0.3587 0.0521
O1 O 1.101(2) -0.0437(4) -0.3694(11)
N1 N 1.0000 -0.0908(4) -0.2500
C1 C 1.065(2) -0.0765(5) -0.3400(10)
C2 C 1.0000 -0.1372(5) -0.2500
O1B O 0.899(2) -0.0437(4) -0.1306(11)
C1B C 0.935(2) -0.0765(5) -0.1600(10)
loop_
_geom_bond_atom_site_label_1
_geom_bond_atom_site_label_2
_geom_bond_site_symmetry_1
_geom_bond_site_symmetry_2
O1 C1 1_555 1_555
N1 C1 1_555 1_555
C2 N1 1_555 1_555
Cd1 N8 1_555 1_555
Cd2 N4 1_555 1_555
Cd3 N3 1_555 1_555
N2 C3 1_555 1_555
C3 N3 1_555 1_555
O2 N2 1_555 1_555
N3 C5 1_555 1_555
O3 N2 1_555 1_555
C4 H1 1_555 1_555
N4 C3 1_555 1_555
C5 C4 1_555 1_555
H2 C5 1_555 1_555
O4 N6 1_555 1_555
O5 N6 1_555 1_555
N5 C6 1_555 1_555
N6 C6 1_555 1_555
C6 N10 1_555 1_555
O6 N7 1_555 1_555
N7 O7 1_555 1_555
N8 C7 1_555 1_555
N9 C7 1_555 1_555
N10 Cd1 1_555 1_555
N11 Cd1 1_555 1_555
C7 N7 1_555 1_555
C8 N9 1_555 1_555
H3 C8 1_555 1_555
C9 N8 1_555 1_555
H4 C9 1_555 1_555
N12 Cd2 1_555 1_555
C10 N11 1_555 1_555
C11 N12 1_555 1_555
H5 C11 1_555 1_555
C12 N11 1_555 1_555
H6 C12 1_555 1_555
O8 N13 1_555 1_555
O9 N13 1_555 1_555
N13 C10 1_555 1_555
C13 N10 1_555 1_555
H7 C13 1_555 1_555
C14 N5 1_555 1_555
H8 C14 1_555 1_555
O1B C1B 1_555 1_555
C1B N1 1_555 1_555
Cd1B N8B 1_555 1_555
Cd1C N9 1_555 1_555
Cd1C_2 N8C 1_555 1_555
Cd1F N10F 1_555 1_555
Cd3D N5 1_555 1_555
Cd3_2 N3B 1_555 1_555
N2B C3B 1_555 1_555
C3B N3B 1_555 1_555
O2B N2B 1_555 1_555
N3B C5B 1_555 1_555
N3B_2 Cd3 1_555 1_555
O3B N2B 1_555 1_555
C4B H1B 1_555 1_555
N4B Cd2 1_555 1_555
C5B C4B 1_555 1_555
H2B C5B 1_555 1_555
O4F N6F 1_555 1_555
O5F N6F 1_555 1_555
N5F Cd3 1_555 1_555
N5D Cd3 1_555 1_555
N6F C6F 1_555 1_555
C6F N5F 1_555 1_555
O6C N7C 1_555 1_555
N7C O7C 1_555 1_555
N8C C7C 1_555 1_555
N9C Cd1 1_555 1_555
N9A Cd1B 1_555 1_555
N10F C6F 1_555 1_555
N10B Cd1B 1_555 1_555
N11B Cd1B 1_555 1_555
C7C N7C 1_555 1_555
C8C N9C 1_555 1_555
H3C C8C 1_555 1_555
C9C N8C 1_555 1_555
H4C C9C 1_555 1_555
N12B Cd2 1_555 1_555
C10B N11B 1_555 1_555
C11B N12B 1_555 1_555
H5B C11B 1_555 1_555
C12B N11B 1_555 1_555
H6B C12B 1_555 1_555
O8B N13B 1_555 1_555
O9B N13B 1_555 1_555
N13B C10B 1_555 1_555
C13F N10F 1_555 1_555
H7F C13F 1_555 1_555
C14F N5F 1_555 1_555
H8F C14F 1_555 1_555
C4 N4 1_555 1_555
C8 C9 1_555 1_555
N12 C10 1_555 1_555
C11 C12 1_555 1_555
C13 C14 1_555 1_555
C3B N4B 1_555 1_555
C4B N4B 1_555 1_555
N9C C7C 1_555 1_555
C8C C9C 1_555 1_555
N12B C10B 1_555 1_555
C11B C12B 1_555 1_555
C13F C14F 1_555 1_555

#END
