
#######################################################################
#
#                 Cambridge Crystallographic Data Centre
#                                CCDC 
#
#######################################################################
#
# If this CIF has been generated from an entry in the Cambridge 
# Structural Database, then it will include bibliographic, chemical, 
# crystal, experimental, refinement or atomic coordinate data resulting 
# from the CCDC's data processing and validation procedures.
#
#######################################################################

data_PUWVIN
_symmetry_cell_setting           tetragonal
_symmetry_space_group_name_H-M   'P 4/n'
_symmetry_Int_Tables_number      85
_space_group_name_Hall           '-P 4a'
loop_
_symmetry_equiv_pos_site_id
_symmetry_equiv_pos_as_xyz
1 x,y,z
2 1/2-x,1/2-y,z
3 1/2-y,x,z
4 y,1/2-x,z
5 -x,-y,-z
6 1/2+x,1/2+y,-z
7 1/2+y,-x,-z
8 -y,1/2+x,-z
_cell_length_a                   15.2264(6)
_cell_length_b                   15.2264(6)
_cell_length_c                   8.6626(5)
_cell_angle_alpha                90
_cell_angle_beta                 90
_cell_angle_gamma                90
_cell_volume                     2008.37
loop_
_atom_site_label
_atom_site_type_symbol
_atom_site_fract_x
_atom_site_fract_y
_atom_site_fract_z
Ag1 Ag 0.7500 0.2500 0.5000
N1 N 0.82440(13) 0.16156(13) 0.3275(2)
N2 N 0.91405(12) 0.04494(13) -0.1915(2)
C1 C 0.80948(16) 0.07619(16) 0.3213(3)
H1 H 0.7817 0.0497 0.4048
C2 C 0.83286(16) 0.02441(15) 0.1979(3)
H2 H 0.8212 -0.0355 0.1993
C3 C 0.87367(14) 0.06188(14) 0.0724(2)
C4 C 0.8906(2) 0.15067(17) 0.0783(3)
H3 H 0.9188 0.1786 -0.0033
C5 C 0.8653(2) 0.19748(17) 0.2062(3)
H4 H 0.8772 0.2574 0.2087
C6 C 0.89609(15) 0.00915(15) -0.0642(3)
H5 H 0.8970 -0.0518 -0.0564
C7 C 0.92978(14) -0.00762(14) -0.3232(3)
C8 C 0.99171(13) 0.02484(13) -0.4320(2)
C9 C 1.03861(16) 0.10367(15) -0.4080(3)
H6 H 1.0281 0.1367 -0.3196
C10 C 1.09898(19) 0.13203(17) -0.5125(3)
H7 H 1.1297 0.1838 -0.4943
C11 C 0.88476(17) -0.08358(17) -0.3521(3)
H8 H 0.8431 -0.1034 -0.2817
Ag1B Ag 1.2500 -0.2500 -1.5000
Ag1B_2 Ag 0.2500 0.7500 -1.5000
N1D N 1.17560(13) -0.16156(13) -1.3275(2)
N1A N 0.67560(13) 0.33844(13) 0.3275(2)
N1E N 0.32440(13) 0.66156(13) -1.3275(2)
N1F N 0.66156(13) 0.17560(13) 0.6725(2)
N1G N 0.83844(13) 0.32440(13) 0.6725(2)
N2D N 1.08595(12) -0.04494(13) -0.8085(2)
N2A N 0.58595(12) 0.45506(13) -0.1915(2)
N2E N 0.41405(12) 0.54494(13) -0.8085(2)
C1D C 1.19052(16) -0.07619(16) -1.3213(3)
C1A C 0.69052(16) 0.42381(16) 0.3213(3)
C1E C 0.30948(16) 0.57619(16) -1.3213(3)
H1D H 1.2183 -0.0497 -1.4048
H1A H 0.7183 0.4503 0.4048
H1E H 0.2817 0.5497 -1.4048
C2D C 1.16714(16) -0.02441(15) -1.1979(3)
C2A C 0.66714(16) 0.47559(15) 0.1979(3)
C2E C 0.33286(16) 0.52441(15) -1.1979(3)
H2D H 1.1788 0.0355 -1.1993
H2A H 0.6788 0.5355 0.1993
H2E H 0.3212 0.4645 -1.1993
C3D C 1.12633(14) -0.06188(14) -1.0724(2)
C3A C 0.62633(14) 0.43812(14) 0.0724(2)
C3E C 0.37367(14) 0.56188(14) -1.0724(2)
C4D C 1.1094(2) -0.15067(17) -1.0783(3)
C4A C 0.6094(2) 0.34933(17) 0.0783(3)
C4E C 0.3906(2) 0.65067(17) -1.0783(3)
H3D H 1.0812 -0.1786 -0.9967
H3A H 0.5812 0.3214 -0.0033
H3E H 0.4188 0.6786 -0.9967
C5D C 1.1347(2) -0.19748(17) -1.2062(3)
C5A C 0.6347(2) 0.30252(17) 0.2062(3)
C5E C 0.3653(2) 0.69748(17) -1.2062(3)
H4D H 1.1228 -0.2574 -1.2087
H4A H 0.6228 0.2426 0.2087
H4E H 0.3772 0.7574 -1.2087
C6D C 1.10391(15) -0.00915(15) -0.9358(3)
C6A C 0.60391(15) 0.49085(15) -0.0642(3)
C6E C 0.39609(15) 0.50915(15) -0.9358(3)
H5D H 1.1030 0.0518 -0.9436
H5A H 0.6030 0.5518 -0.0564
H5E H 0.3970 0.4482 -0.9436
C7D C 1.07022(14) 0.00762(14) -0.6768(3)
C7A C 0.57022(14) 0.50762(14) -0.3232(3)
C7E C 0.42978(14) 0.49238(14) -0.6768(3)
C8D C 1.00829(13) -0.02484(13) -0.5680(2)
C8A C 0.50829(13) 0.47516(13) -0.4320(2)
C8E C 0.49171(13) 0.52484(13) -0.5680(2)
C9D C 0.96139(16) -0.10367(15) -0.5920(3)
C9A C 0.46139(16) 0.39633(15) -0.4080(3)
C9E C 0.53861(16) 0.60367(15) -0.5920(3)
H6D H 0.9719 -0.1367 -0.6804
H6A H 0.4719 0.3633 -0.3196
H6E H 0.5281 0.6367 -0.6804
C10D C 0.90102(19) -0.13203(17) -0.4875(3)
C10A C 0.40102(19) 0.36797(17) -0.5125(3)
C10E C 0.59898(19) 0.63203(17) -0.4875(3)
H7D H 0.8703 -0.1838 -0.5057
H7A H 0.3703 0.3162 -0.4943
H7E H 0.6297 0.6838 -0.5057
C11D C 1.11524(17) 0.08358(17) -0.6479(3)
C11A C 0.61524(17) 0.58358(17) -0.3521(3)
C11E C 0.38476(17) 0.41642(17) -0.6479(3)
H8D H 1.1569 0.1034 -0.7183
H8A H 0.6569 0.6034 -0.2817
H8E H 0.3431 0.3966 -0.7183
Sb1 Sb 0.7500 -0.2500 0.04018(5)
F1 F 0.7500 -0.2500 0.2492(7)
F2 F 0.86506(13) -0.21204(16) 0.0364(4)
F3 F 0.7500 -0.2500 -0.1754(6)
F2A F 0.63494(13) -0.28796(16) 0.0364(4)
F2B F 0.71204(16) -0.13494(13) 0.0364(4)
F2C F 0.78796(16) -0.36506(13) 0.0364(4)
loop_
_geom_bond_atom_site_label_1
_geom_bond_atom_site_label_2
_geom_bond_site_symmetry_1
_geom_bond_site_symmetry_2
Ag1 N1 1_555 1_555
Sb1 F1 1_555 1_555
N1 C1 1_555 1_555
N2 C6 1_555 1_555
F2 Sb1 1_555 1_555
F3 Sb1 1_555 1_555
C1 H1 1_555 1_555
C2 C1 1_555 1_555
H2 C2 1_555 1_555
C3 C2 1_555 1_555
C4 C3 1_555 1_555
H3 C4 1_555 1_555
C5 N1 1_555 1_555
H4 C5 1_555 1_555
C6 C3 1_555 1_555
H5 C6 1_555 1_555
C7 N2 1_555 1_555
C8 C7 1_555 1_555
C9 C8 1_555 1_555
H6 C9 1_555 1_555
C10 C9 1_555 1_555
H7 C10 1_555 1_555
C11 C7 1_555 1_555
H8 C11 1_555 1_555
Ag1B N1D 1_555 1_555
Ag1B_2 N1E 1_555 1_555
N1D C1D 1_555 1_555
N1A Ag1 1_555 1_555
N1E C1E 1_555 1_555
N1F Ag1 1_555 1_555
N1G Ag1 1_555 1_555
N2D C6D 1_555 1_555
N2A C6A 1_555 1_555
N2E C6E 1_555 1_555
F2A Sb1 1_555 1_555
F2B Sb1 1_555 1_555
F2C Sb1 1_555 1_555
C1D H1D 1_555 1_555
C1A N1A 1_555 1_555
C1E H1E 1_555 1_555
H1A C1A 1_555 1_555
C2D C1D 1_555 1_555
C2A C1A 1_555 1_555
C2E C1E 1_555 1_555
H2D C2D 1_555 1_555
H2A C2A 1_555 1_555
H2E C2E 1_555 1_555
C3D C2D 1_555 1_555
C3A C2A 1_555 1_555
C3E C2E 1_555 1_555
C4D C3D 1_555 1_555
C4A C3A 1_555 1_555
C4E C3E 1_555 1_555
H3D C4D 1_555 1_555
H3A C4A 1_555 1_555
H3E C4E 1_555 1_555
C5D N1D 1_555 1_555
C5A N1A 1_555 1_555
C5E N1E 1_555 1_555
H4D C5D 1_555 1_555
H4A C5A 1_555 1_555
H4E C5E 1_555 1_555
C6D C3D 1_555 1_555
C6A C3A 1_555 1_555
C6E C3E 1_555 1_555
H5D C6D 1_555 1_555
H5A C6A 1_555 1_555
H5E C6E 1_555 1_555
C7D N2D 1_555 1_555
C7A N2A 1_555 1_555
C7E N2E 1_555 1_555
C8D C8 1_555 1_555
C8A C7A 1_555 1_555
C8E C7E 1_555 1_555
C9D C8D 1_555 1_555
C9A C8A 1_555 1_555
C9E C8E 1_555 1_555
H6D C9D 1_555 1_555
H6A C9A 1_555 1_555
H6E C9E 1_555 1_555
C10D C11 1_555 1_555
C10A C9A 1_555 1_555
C10E C9E 1_555 1_555
H7D C10D 1_555 1_555
H7A C10A 1_555 1_555
H7E C10E 1_555 1_555
C11D C10 1_555 1_555
C11A C7A 1_555 1_555
C11E C7E 1_555 1_555
H8D C11D 1_555 1_555
H8A C11A 1_555 1_555
H8E C11E 1_555 1_555
C4 C5 1_555 1_555
C4D C5D 1_555 1_555
C4A C5A 1_555 1_555
C4E C5E 1_555 1_555
C7D C8D 1_555 1_555
C7D C11D 1_555 1_555
C8A C8E 1_555 1_555
C9D C10D 1_555 1_555
C10A C11E 1_555 1_555
C10E C11A 1_555 1_555

#END
