
#######################################################################
#
#                 Cambridge Crystallographic Data Centre
#                                CCDC 
#
#######################################################################
#
# If this CIF has been generated from an entry in the Cambridge 
# Structural Database, then it will include bibliographic, chemical, 
# crystal, experimental, refinement or atomic coordinate data resulting 
# from the CCDC's data processing and validation procedures.
#
#######################################################################

data_PUWYEM
_symmetry_cell_setting           orthorhombic
_symmetry_space_group_name_H-M   'P 21 21 21'
_symmetry_Int_Tables_number      19
_space_group_name_Hall           'P 2ac 2ab'
loop_
_symmetry_equiv_pos_site_id
_symmetry_equiv_pos_as_xyz
1 x,y,z
2 1/2-x,-y,1/2+z
3 1/2+x,1/2-y,-z
4 -x,1/2+y,1/2-z
_cell_length_a                   12.9874(10)
_cell_length_b                   15.0728(11)
_cell_length_c                   17.0321(10)
_cell_angle_alpha                90
_cell_angle_beta                 90
_cell_angle_gamma                90
_cell_volume                     3334.14
loop_
_atom_site_label
_atom_site_type_symbol
_atom_site_fract_x
_atom_site_fract_y
_atom_site_fract_z
C1 C 0.5655(3) 0.3999(4) 0.7348(3)
H1 H 0.5952 0.3551 0.7680
H2 H 0.6141 0.4472 0.7276
H3 H 0.5487 0.3744 0.6848
C2 C 0.4229(4) 0.5004(3) 0.7296(3)
C3 C 0.4554(4) 0.5327(3) 0.6586(3)
H4 H 0.5163 0.5122 0.6363
C4 C 0.3958(4) 0.5970(4) 0.6197(3)
H5 H 0.4181 0.6202 0.5720
C5 C 0.3065(4) 0.6249(3) 0.6514(3)
H6 H 0.2660 0.6654 0.6241
C6 C 0.2730(3) 0.5937(3) 0.7260(3)
C7 C 0.3325(3) 0.5299(3) 0.7661(3)
C8 C 0.1750(4) 0.6244(3) 0.7534(3)
H7 H 0.1359 0.6569 0.7178
C9 C 0.0282(4) 0.6447(4) 0.8310(4)
H8 H -0.0187 0.5946 0.8302
H9 H 0.0111 0.6827 0.7869
C10 C 0.0132(4) 0.6955(3) 0.9061(4)
H10 H -0.0541 0.7235 0.9049
H11 H 0.0644 0.7423 0.9087
C11 C 0.5544(4) 0.3992(4) 1.0937(3)
H12 H 0.5856 0.3543 1.0616
H13 H 0.5282 0.3726 1.1409
H14 H 0.6048 0.4433 1.1070
C12 C 0.4179(4) 0.5059(3) 1.0890(3)
C13 C 0.4495(4) 0.5469(4) 1.1579(3)
H15 H 0.5117 0.5302 1.1805
C14 C 0.3918(5) 0.6110(4) 1.1933(3)
H16 H 0.4150 0.6383 1.2390
C15 C 0.3003(5) 0.6343(4) 1.1611(3)
H17 H 0.2592 0.6758 1.1867
C16 C 0.2655(3) 0.5968(3) 1.0887(3)
C17 C 0.3251(4) 0.5317(3) 1.0530(3)
C18 C 0.1671(4) 0.6239(3) 1.0598(3)
H18 H 0.1269 0.6569 1.0942
C19 C 0.0210(4) 0.6395(4) 0.9797(3)
H19 H -0.0016 0.6741 1.0245
H20 H -0.0242 0.5886 0.9749
C20 C -0.1748(3) 0.4526(3) 1.0096(3)
C21 C -0.1966(3) 0.5088(3) 0.8561(3)
C22 C -0.1320(3) 0.2867(3) 0.9601(3)
C23 C -0.1610(4) 0.3488(3) 0.8031(3)
C24 C -0.0175(3) 0.4182(3) 0.9028(3)
C25 C -0.3125(3) 0.3773(3) 0.9138(3)
Cu1 Cu 0.20567(4) 0.54971(3) 0.90827(4)
Fe1 Fe -0.16496(4) 0.39756(4) 0.90748(4)
N1 N 0.1347(3) 0.6120(2) 0.8217(2)
N2 N 0.1278(3) 0.6085(3) 0.9932(2)
N3 N -0.1849(3) 0.4850(3) 1.0704(3)
N4 N -0.2182(4) 0.5739(3) 0.8257(3)
N5 N -0.1108(3) 0.2239(3) 0.9954(3)
N6 N -0.1598(4) 0.3258(3) 0.7394(3)
N7 N 0.0706(3) 0.4295(3) 0.9003(2)
N8 N -0.4008(2) 0.3713(3) 0.9171(3)
O1 O 0.4735(2) 0.4341(2) 0.77093(19)
O2 O 0.3078(2) 0.4979(2) 0.83585(18)
O3 O 0.4913(2) 0.5480(2) 0.9116(2)
O4 O 0.4707(2) 0.4404(3) 1.0511(2)
O5 O 0.4474(3) 0.2633(2) 0.8387(2)
O6 O 0.2986(2) 0.4919(2) 0.98524(18)
O7 O 0.2534(3) 0.3297(2) 0.8786(2)
Tb1 Tb 0.413011(14) 0.402477(13) 0.911877(13)
N5B N 0.3892(3) 0.2761(3) 1.0046(3)
N8_2 N 0.5992(2) 0.3713(3) 0.9171(3)
Tb1B Tb -0.086989(14) 0.097523(13) 1.088123(13)
Tb1_2 Tb -0.586989(14) 0.402477(13) 0.911877(13)
O8 O -0.2475(4) 0.3371(3) 0.5923(3)
O9 O -0.2779(3) 0.6577(2) 0.6835(2)
O10 O 0.6512(4) 0.6579(3) 0.9447(3)
O11 O 0.3577(5) 0.6922(3) 0.9041(6)
loop_
_geom_bond_atom_site_label_1
_geom_bond_atom_site_label_2
_geom_bond_site_symmetry_1
_geom_bond_site_symmetry_2
C1 H1 1_555 1_555
H2 C1 1_555 1_555
H3 C1 1_555 1_555
C2 C3 1_555 1_555
C3 H4 1_555 1_555
C4 C3 1_555 1_555
H5 C4 1_555 1_555
C5 C4 1_555 1_555
H6 C5 1_555 1_555
C6 C5 1_555 1_555
C7 C2 1_555 1_555
C8 C6 1_555 1_555
H7 C8 1_555 1_555
C9 H8 1_555 1_555
H9 C9 1_555 1_555
C10 C9 1_555 1_555
H10 C10 1_555 1_555
H11 C10 1_555 1_555
C11 H12 1_555 1_555
H13 C11 1_555 1_555
H14 C11 1_555 1_555
C12 C13 1_555 1_555
C13 H15 1_555 1_555
C14 C13 1_555 1_555
H16 C14 1_555 1_555
C15 C14 1_555 1_555
H17 C15 1_555 1_555
C16 C15 1_555 1_555
C17 C12 1_555 1_555
C18 C16 1_555 1_555
H18 C18 1_555 1_555
C19 C10 1_555 1_555
H19 C19 1_555 1_555
H20 C19 1_555 1_555
C20 Fe1 1_555 1_555
C21 Fe1 1_555 1_555
C22 Fe1 1_555 1_555
C23 Fe1 1_555 1_555
C24 Fe1 1_555 1_555
C25 Fe1 1_555 1_555
Cu1 N1 1_555 1_555
N1 C8 1_555 1_555
N2 C18 1_555 1_555
N3 C20 1_555 1_555
N4 C21 1_555 1_555
N5 C22 1_555 1_555
N6 C23 1_555 1_555
N7 C24 1_555 1_555
N8 C25 1_555 1_555
O1 C1 1_555 1_555
O2 C7 1_555 1_555
O3 Tb1 1_555 1_555
O4 C11 1_555 1_555
O5 Tb1 1_555 1_555
O6 C17 1_555 1_555
O7 Tb1 1_555 1_555
Tb1 O1 1_555 1_555
N5B Tb1 1_555 1_555
N8_2 Tb1 1_555 1_555
Tb1B N5 1_555 1_555
Tb1_2 N8 1_555 1_555
C2 O1 1_555 1_555
C6 C7 1_555 1_555
C9 N1 1_555 1_555
C12 O4 1_555 1_555
C16 C17 1_555 1_555
C19 N2 1_555 1_555
Cu1 N2 1_555 1_555
Cu1 N7 1_555 1_555
Cu1 O2 1_555 1_555
Cu1 O6 1_555 1_555
O2 Tb1 1_555 1_555
O4 Tb1 1_555 1_555
O6 Tb1 1_555 1_555

#END
