
#######################################################################
#
#                 Cambridge Crystallographic Data Centre
#                                CCDC 
#
#######################################################################
#
# If this CIF has been generated from an entry in the Cambridge 
# Structural Database, then it will include bibliographic, chemical, 
# crystal, experimental, refinement or atomic coordinate data resulting 
# from the CCDC's data processing and validation procedures.
#
#######################################################################

data_PUWZIR
_symmetry_cell_setting           monoclinic
_symmetry_space_group_name_H-M   'P 21'
_symmetry_Int_Tables_number      4
_space_group_name_Hall           'P 2yb'
loop_
_symmetry_equiv_pos_site_id
_symmetry_equiv_pos_as_xyz
1 x,y,z
2 -x,1/2+y,-z
_cell_length_a                   12.712(3)
_cell_length_b                   15.933(3)
_cell_length_c                   18.379(4)
_cell_angle_alpha                90
_cell_angle_beta                 106.59(3)
_cell_angle_gamma                90
_cell_volume                     3567.53
loop_
_atom_site_label
_atom_site_type_symbol
_atom_site_fract_x
_atom_site_fract_y
_atom_site_fract_z
C1 C 0.4639(11) 0.9328(8) 0.4977(8)
C2 C 0.5721(10) 0.9732(8) 0.4945(7)
C3 C 0.6260(9) 0.7107(8) 0.5917(6)
C4 C 0.5877(9) 0.7227(9) 0.6678(6)
C5 C 0.3143(11) 0.9399(8) 0.2300(7)
C6 C 0.2164(10) 0.9884(8) 0.2438(7)
C7 C 0.0585(11) 0.9904(9) -0.0075(8)
C8 C -0.0456(10) 0.9433(8) 0.0039(7)
C9 C 0.8596(10) 1.2217(9) 0.9153(7)
C10 C 0.8919(10) 1.2196(10) 0.8373(8)
C11 C 0.7984(10) 0.9354(8) 0.7401(7)
C12 C 0.6973(10) 0.9859(8) 0.7457(7)
O1 O 0.4707(7) 0.8879(6) 0.5549(5)
O2 O 0.6552(6) 0.9566(5) 0.5496(5)
O3 O 0.3780(8) 0.9464(6) 0.4462(6)
O4 O 0.5663(6) 1.0202(6) 0.4391(5)
O5 O 0.6277(7) 0.6397(6) 0.5661(5)
O6 O 0.5702(6) 0.6524(5) 0.6962(4)
O7 O 0.6520(6) 0.7795(5) 0.5674(4)
O8 O 0.5836(6) 0.7938(5) 0.6893(4)
O9 O 0.4067(7) 0.9570(5) 0.2735(5)
O10 O 0.2336(6) 1.0371(5) 0.3010(4)
O11 O 0.2920(6) 0.8938(5) 0.1736(4)
O12 O 0.1233(6) 0.9754(5) 0.1972(4)
O13 O 0.1475(7) 0.9731(5) 0.0437(5)
O14 O -0.0256(6) 0.8962(5) 0.0592(4)
O15 O 0.8468(6) 1.2912(5) 0.9438(4)
O16 O 0.8928(6) 1.2964(6) 0.8124(4)
O17 O 0.8466(7) 1.1509(6) 0.9399(5)
O18 O 0.9027(7) 1.1563(6) 0.8079(5)
O19 O 0.8877(7) 0.9507(5) 0.7893(5)
O20 O 0.7074(6) 1.0382(6) 0.7994(5)
O21 O 0.7833(6) 0.8834(5) 0.6886(4)
O22 O 0.6105(6) 0.9707(5) 0.6938(4)
O23 O 0.0451(6) 1.0383(6) -0.0615(5)
O24 O -0.1321(7) 0.9555(6) -0.0442(5)
Mn1 Mn 0.40556(17) 1.04090(13) 0.36416(11)
Mn2 Mn 0.87592(15) 1.04854(13) 0.87036(10)
Cr1 Cr 0.13053(18) 0.88819(14) 0.11935(12)
Cr2 Cr 0.62480(18) 0.87951(14) 0.62343(11)
O5A O 0.3723(7) 1.1397(6) 0.4339(5)
O6A O 0.4298(6) 1.1524(5) 0.3038(4)
O15A O 0.1532(6) 0.7912(5) 0.0562(4)
O16A O 0.1072(6) 0.7964(6) 0.1876(4)
O23_2 O 1.0451(6) 1.0383(6) 0.9385(5)
O24_2 O 0.8679(7) 0.9555(6) 0.9558(5)
Mn1A Mn 0.59444(17) 0.54090(13) 0.63584(11)
Mn2_2 Mn -0.12408(15) 1.04854(13) -0.12964(10)
Cr1A Cr 0.86947(18) 1.38819(14) 0.88065(12)
C13 C 0.6551(10) 0.9576(8) 0.0857(7)
C14 C 0.7325(8) 1.0213(7) 0.0989(6)
H1 H 0.7683 1.0310 0.0620
C15 C 0.7599(10) 1.0709(8) 0.1624(7)
H2 H 0.8130 1.1126 0.1695
C16 C 0.7024(9) 1.0549(8) 0.2168(6)
C17 C 0.6232(10) 0.9922(8) 0.2054(7)
H3 H 0.5854 0.9844 0.2414
C18 C 0.5991(10) 0.9413(8) 0.1418(7)
C19 C 0.5275(9) 0.8726(7) 0.1372(6)
H4 H 0.4938 0.8667 0.1757
C20 C 0.4407(10) 0.7410(8) 0.0908(7)
H5 H 0.3934 0.7531 0.1226
H6 H 0.4896 0.6954 0.1136
C21 C 0.3732(9) 0.7175(9) 0.0119(6)
H7 H 0.3485 0.6598 0.0111
H8 H 0.3093 0.7535 -0.0042
C22 C 0.5109(10) 0.6547(9) -0.0477(7)
H9 H 0.5187 0.6528 -0.0987
H10 H 0.4754 0.6033 -0.0390
C23 C 0.6215(9) 0.6621(8) 0.0090(7)
H11 H 0.6164 0.6473 0.0591
H12 H 0.6723 0.6236 -0.0041
C24 C 0.7278(10) 0.7678(8) -0.0445(7)
H13 H 0.7712 0.7189 -0.0484
H14 H 0.7777 0.8141 -0.0254
C25 C 0.6535(10) 0.7897(9) -0.1218(7)
H15 H 0.6938 0.8200 -0.1511
H16 H 0.6227 0.7393 -0.1493
C26 C 0.5189(10) 0.8996(8) -0.1595(7)
H17 H 0.5461 0.9058 -0.2012
C27 C 0.4288(10) 0.9527(8) -0.1555(7)
C28 C 0.3911(9) 1.0073(8) -0.2178(7)
H18 H 0.4281 1.0127 -0.2545
C29 C 0.2936(9) 1.0537(9) -0.2221(7)
C30 C 0.2374(9) 1.0430(8) -0.1695(6)
H19 H 0.1727 1.0726 -0.1742
C31 C 0.2760(11) 0.9886(9) -0.1097(8)
H20 H 0.2360 0.9801 -0.0752
C32 C 0.3750(9) 0.9459(7) -0.1006(6)
N1 N 0.5053(7) 0.8171(6) 0.0832(5)
N2 N 0.4436(7) 0.7276(7) -0.0401(5)
H41 H 0.3970 0.7372 -0.0871
N3 N 0.6628(7) 0.7501(6) 0.0097(5)
H42 H 0.7063 0.7612 0.0574
N4 N 0.5650(8) 0.8433(6) -0.1084(5)
N5 N 0.7325(9) 1.1013(7) 0.2884(7)
N6 N 0.2472(9) 1.1073(8) -0.2918(6)
O25 O 0.6354(6) 0.9188(5) 0.0215(4)
O26 O 0.4066(6) 0.8975(5) -0.0400(4)
O27 O 0.8135(7) 1.1478(6) 0.3006(5)
O28 O 0.6796(7) 1.0898(6) 0.3328(5)
O29 O 0.3040(7) 1.1171(6) -0.3352(5)
O30 O 0.1561(7) 1.1338(5) -0.2971(5)
Fe1 Fe 0.53610(14) 0.82977(12) -0.01274(10)
C33 C 0.1433(10) 0.9493(8) 0.5912(7)
C34 C 0.2397(10) 0.9063(9) 0.6015(7)
H21 H 0.2789 0.9135 0.5663
C35 C 0.2829(10) 0.8505(8) 0.6646(7)
H22 H 0.3484 0.8213 0.6717
C36 C 0.2179(10) 0.8440(8) 0.7140(7)
C37 C 0.1259(10) 0.8850(9) 0.7083(7)
H23 H 0.0884 0.8766 0.7444
C38 C 0.0842(10) 0.9411(8) 0.6485(7)
C39 C -0.0057(10) 0.9948(8) 0.6461(7)
H24 H -0.0392 0.9878 0.6845
C40 C -0.1306(9) 1.1093(9) 0.6089(7)
H25 H -0.0974 1.1603 0.6340
H26 H -0.1716 1.0826 0.6397
C41 C -0.2038(10) 1.1280(9) 0.5308(7)
H27 H -0.2492 1.1764 0.5326
H28 H -0.2517 1.0805 0.5122
C42 C -0.0959(10) 1.2334(9) 0.4768(7)
H29 H -0.1458 1.2716 0.4913
H30 H -0.0939 1.2479 0.4260
C43 C 0.0188(9) 1.2414(8) 0.5322(7)
H31 H 0.0559 1.2891 0.5180
H32 H 0.0126 1.2514 0.5829
C44 C 0.1556(10) 1.1705(8) 0.4820(7)
H33 H 0.2150 1.1305 0.4995
H34 H 0.1872 1.2261 0.4833
C45 C 0.0890(10) 1.1491(8) 0.4013(7)
H35 H 0.0413 1.1957 0.3793
H36 H 0.1377 1.1384 0.3702
C46 C -0.0043(9) 1.0242(8) 0.3503(7)
H37 H 0.0242 1.0329 0.3096
C47 C -0.0761(10) 0.9542(8) 0.3453(7)
C48 C -0.1023(9) 0.9029(8) 0.2787(7)
H38 H -0.0657 0.9112 0.2422
C49 C -0.1799(10) 0.8423(8) 0.2684(7)
C50 C -0.2437(10) 0.8318(9) 0.3182(7)
H39 H -0.3011 0.7933 0.3067
C51 C -0.2228(10) 0.8770(9) 0.3833(7)
H40 H -0.2647 0.8688 0.4167
C52 C -0.1348(10) 0.9382(8) 0.4003(7)
N7 N -0.0461(7) 1.0521(7) 0.5968(5)
N8 N -0.1348(8) 1.1453(7) 0.4782(6)
H43 H -0.1775 1.1336 0.4304
N9 N 0.0820(9) 1.1677(7) 0.5326(7)
H44 H 0.1248 1.1593 0.5810
N10 N 0.0240(8) 1.0749(7) 0.4043(6)
N11 N 0.2660(9) 0.7946(7) 0.7828(6)
N12 N -0.2080(10) 0.7956(8) 0.1974(7)
O31 O 0.1133(7) 0.9962(5) 0.5307(5)
O32 O -0.1150(7) 0.9788(5) 0.4640(5)
O33 O 0.3553(7) 0.7569(6) 0.7907(5)
O34 O 0.2127(7) 0.7901(6) 0.8302(5)
O35 O -0.2864(7) 0.7460(6) 0.1849(5)
O36 O -0.1538(7) 0.8080(6) 0.1533(5)
Fe2 Fe -0.01306(15) 1.06477(12) 0.50069(12)
N13 N 0.9376(14) 0.7077(10) 0.8217(10)
O37 O 0.8351(12) 0.7142(9) 0.8019(8)
O38 O 0.9828(11) 0.6815(9) 0.7782(8)
C53 C 0.9969(15) 0.7556(13) 0.8900(11)
H45 H 0.9462 0.7730 0.9170
H46 H 1.0304 0.8041 0.8751
H47 H 1.0526 0.7207 0.9223
O39 O 0.1877(11) 0.8206(10) 0.3689(8)
N14 N 0.507(3) 0.2526(18) 0.653(2)
O40 O 0.4650(14) 0.3067(13) 0.6127(10)
O41 O 0.5110(16) 0.2536(14) 0.7166(12)
C54 C 0.5282(19) 0.1734(15) 0.6152(13)
H48 H 0.5616 0.1327 0.6534
H49 H 0.5764 0.1850 0.5847
H50 H 0.4600 0.1516 0.5836
C55? C 0.521(5) 0.212(5) 0.603(3)
H51? H 0.5643 0.1798 0.5783
H52? H 0.5158 0.2687 0.5860
H53? H 0.4487 0.1878 0.5922
N15? N 0.573(4) 0.209(3) 0.686(2)
O42? O 0.666(2) 0.2003(15) 0.6975(15)
O43? O 0.527(4) 0.215(3) 0.731(2)
loop_
_geom_bond_atom_site_label_1
_geom_bond_atom_site_label_2
_geom_bond_site_symmetry_1
_geom_bond_site_symmetry_2
C1 C2 1_555 1_555
C2 O2 1_555 1_555
C3 C4 1_555 1_555
C4 O6 1_555 1_555
C5 C6 1_555 1_555
C6 O10 1_555 1_555
C7 C8 1_555 1_555
C8 O14 1_555 1_555
C9 C10 1_555 1_555
C10 O16 1_555 1_555
C11 C12 1_555 1_555
C12 O20 1_555 1_555
C13 C14 1_555 1_555
C14 H1 1_555 1_555
C15 C14 1_555 1_555
H2 C15 1_555 1_555
C16 C15 1_555 1_555
C17 C16 1_555 1_555
H3 C17 1_555 1_555
C18 C13 1_555 1_555
C19 C18 1_555 1_555
H4 C19 1_555 1_555
C20 H5 1_555 1_555
H6 C20 1_555 1_555
C21 C20 1_555 1_555
H7 C21 1_555 1_555
H8 C21 1_555 1_555
C22 H9 1_555 1_555
H10 C22 1_555 1_555
C23 C22 1_555 1_555
H11 C23 1_555 1_555
H12 C23 1_555 1_555
C24 H13 1_555 1_555
H14 C24 1_555 1_555
C25 C24 1_555 1_555
H15 C25 1_555 1_555
H16 C25 1_555 1_555
C26 H17 1_555 1_555
C27 C26 1_555 1_555
C28 C27 1_555 1_555
H18 C28 1_555 1_555
C29 C28 1_555 1_555
C30 C29 1_555 1_555
H19 C30 1_555 1_555
C31 C30 1_555 1_555
H20 C31 1_555 1_555
C32 C27 1_555 1_555
C33 C34 1_555 1_555
C34 H21 1_555 1_555
C35 C34 1_555 1_555
H22 C35 1_555 1_555
C36 C35 1_555 1_555
C37 C36 1_555 1_555
H23 C37 1_555 1_555
C38 C33 1_555 1_555
C39 C38 1_555 1_555
H24 C39 1_555 1_555
C40 H25 1_555 1_555
H26 C40 1_555 1_555
C41 C40 1_555 1_555
H27 C41 1_555 1_555
H28 C41 1_555 1_555
C42 H29 1_555 1_555
H30 C42 1_555 1_555
C43 C42 1_555 1_555
H31 C43 1_555 1_555
H32 C43 1_555 1_555
C44 H33 1_555 1_555
H34 C44 1_555 1_555
C45 C44 1_555 1_555
H35 C45 1_555 1_555
H36 C45 1_555 1_555
C46 H37 1_555 1_555
C47 C46 1_555 1_555
C48 C47 1_555 1_555
H38 C48 1_555 1_555
C49 C48 1_555 1_555
C50 C49 1_555 1_555
H39 C50 1_555 1_555
C51 C50 1_555 1_555
H40 C51 1_555 1_555
C52 C47 1_555 1_555
N1 C19 1_555 1_555
N2 C21 1_555 1_555
H41 N2 1_555 1_555
N3 C23 1_555 1_555
H42 N3 1_555 1_555
N4 C25 1_555 1_555
N5 C16 1_555 1_555
N6 C29 1_555 1_555
N7 C39 1_555 1_555
N8 C41 1_555 1_555
H43 N8 1_555 1_555
N9 C43 1_555 1_555
H44 N9 1_555 1_555
N10 C45 1_555 1_555
N11 C36 1_555 1_555
N12 C49 1_555 1_555
O1 C1 1_555 1_555
O2 Cr2 1_555 1_555
O3 C1 1_555 1_555
O4 C2 1_555 1_555
O5 C3 1_555 1_555
O6 Mn1A 1_555 1_555
O7 C3 1_555 1_555
O8 C4 1_555 1_555
O9 C5 1_555 1_555
O10 Mn1 1_555 1_555
O11 C5 1_555 1_555
O12 C6 1_555 1_555
O13 C7 1_555 1_555
O14 Cr1 1_555 1_555
O15 C9 1_555 1_555
O16 Cr1A 1_555 1_555
O17 C9 1_555 1_555
O18 C10 1_555 1_555
O19 C11 1_555 1_555
O20 Mn2 1_555 1_555
O21 C11 1_555 1_555
O22 C12 1_555 1_555
O23 C7 1_555 1_555
O24 C8 1_555 1_555
O25 C13 1_555 1_555
O26 C32 1_555 1_555
O27 N5 1_555 1_555
O28 N5 1_555 1_555
O29 N6 1_555 1_555
O30 N6 1_555 1_555
O31 C33 1_555 1_555
O32 C52 1_555 1_555
O33 N11 1_555 1_555
O34 N11 1_555 1_555
O35 N12 1_555 1_555
O36 N12 1_555 1_555
Mn1 O3 1_555 1_555
Mn2 O17 1_555 1_555
Cr1 O11 1_555 1_555
Cr2 O1 1_555 1_555
Fe1 N1 1_555 1_555
Fe2 N7 1_555 1_555
N13 O37 1_555 1_555
O38 N13 1_555 1_555
C53 N13 1_555 1_555
H45 C53 1_555 1_555
H46 C53 1_555 1_555
H47 C53 1_555 1_555
N14 O40 1_555 1_555
O41 N14 1_555 1_555
C54 N14 1_555 1_555
H48 C54 1_555 1_555
H49 C54 1_555 1_555
H50 C54 1_555 1_555
O5A Mn1 1_555 1_555
O6A Mn1 1_555 1_555
O15A Cr1 1_555 1_555
O16A Cr1 1_555 1_555
O23_2 Mn2 1_555 1_555
O24_2 Mn2 1_555 1_555
Mn1A O5 1_555 1_555
Mn2_2 O23 1_555 1_555
Cr1A O15 1_555 1_555
C17 C18 1_555 1_555
C20 N1 1_555 1_555
C22 N2 1_555 1_555
C24 N3 1_555 1_555
C26 N4 1_555 1_555
C31 C32 1_555 1_555
C37 C38 1_555 1_555
C40 N7 1_555 1_555
C42 N8 1_555 1_555
C44 N9 1_555 1_555
C46 N10 1_555 1_555
C51 C52 1_555 1_555
N2 Fe1 1_555 1_555
N3 Fe1 1_555 1_555
N4 Fe1 1_555 1_555
N8 Fe2 1_555 1_555
N9 Fe2 1_555 1_555
N10 Fe2 1_555 1_555
O4 Mn1 1_555 1_555
O7 Cr2 1_555 1_555
O8 Cr2 1_555 1_555
O9 Mn1 1_555 1_555
O12 Cr1 1_555 1_555
O13 Cr1 1_555 1_555
O18 Mn2 1_555 1_555
O19 Mn2 1_555 1_555
O21 Cr2 1_555 1_555
O22 Cr2 1_555 1_555
O24 Mn2_2 1_555 1_555
O25 Fe1 1_555 1_555
O26 Fe1 1_555 1_555
O31 Fe2 1_555 1_555
O32 Fe2 1_555 1_555

#END
