
#######################################################################
#
#                 Cambridge Crystallographic Data Centre
#                                CCDC 
#
#######################################################################
#
# If this CIF has been generated from an entry in the Cambridge 
# Structural Database, then it will include bibliographic, chemical, 
# crystal, experimental, refinement or atomic coordinate data resulting 
# from the CCDC's data processing and validation procedures.
#
#######################################################################

data_PUWZOX
_symmetry_cell_setting           orthorhombic
_symmetry_space_group_name_H-M   'P n a 21'
_symmetry_Int_Tables_number      33
_space_group_name_Hall           'P 2c -2n'
loop_
_symmetry_equiv_pos_site_id
_symmetry_equiv_pos_as_xyz
1 x,y,z
2 -x,-y,1/2+z
3 1/2-x,1/2+y,1/2+z
4 1/2+x,1/2-y,z
_cell_length_a                   20.8484(16)
_cell_length_b                   21.710(2)
_cell_length_c                   15.4856(13)
_cell_angle_alpha                90
_cell_angle_beta                 90
_cell_angle_gamma                90
_cell_volume                     7009.07
loop_
_atom_site_label
_atom_site_type_symbol
_atom_site_fract_x
_atom_site_fract_y
_atom_site_fract_z
C1 C 0.7649(4) 0.4576(3) 0.3539(4)
C2 C 0.7625(4) 0.5290(3) 0.3480(5)
C3 C 0.9134(4) 0.4493(4) 0.1721(6)
C4 C 0.9547(4) 0.4128(4) 0.2381(5)
C5 C 0.9328(4) 0.5422(4) 0.4836(7)
C6 C 0.9652(4) 0.5801(4) 0.4114(6)
C7 C 1.0304(3) 0.2399(4) 0.0816(5)
C8 C 0.9566(4) 0.2351(4) 0.0774(5)
C9 C 0.5853(5) 0.4509(3) 0.1911(5)
C10 C 0.5447(4) 0.4147(4) 0.2563(5)
C11 C 0.5800(3) 0.5373(4) 0.5188(5)
C12 C 0.5448(4) 0.5694(4) 0.4415(5)
O1 O 0.7107(3) 0.4305(2) 0.3628(4)
O2 O 0.7085(2) 0.5563(2) 0.3477(3)
O3 O 0.8171(3) 0.4348(2) 0.3467(3)
O4 O 0.8159(2) 0.5561(2) 0.3392(3)
O5 O 0.9125(2) 0.4333(2) 0.0947(4)
O6 O 0.9875(3) 0.3691(3) 0.2107(3)
O7 O 0.8799(2) 0.4916(2) 0.2053(3)
O8 O 0.9493(2) 0.4299(2) 0.3157(3)
O9 O 0.8990(3) 0.4973(2) 0.4584(3)
O10 O 0.9513(2) 0.5626(2) 0.3363(3)
O11 O 0.9442(3) 0.5593(2) 0.5605(3)
O12 O 1.0037(3) 0.6215(3) 0.4291(3)
O13 O 1.0580(2) 0.2916(2) 0.0775(3)
O14 O 0.9270(3) 0.2852(3) 0.0672(3)
O15 O 1.0589(2) 0.1881(3) 0.0914(4)
O16 O 0.9330(2) 0.1839(2) 0.0869(3)
O17 O 0.5701(3) 0.4409(2) 0.1107(3)
O18 O 0.4993(2) 0.3799(2) 0.2250(3)
O19 O 0.6288(3) 0.4842(3) 0.2157(3)
O20 O 0.5574(3) 0.4209(2) 0.3343(4)
O21 O 0.6205(3) 0.4977(3) 0.4960(3)
O22 O 0.5549(2) 0.5595(2) 0.3710(3)
O23 O 0.5662(3) 0.5521(2) 0.5931(3)
O24 O 0.5004(3) 0.6077(3) 0.4701(3)
Cr1 Cr 0.88668(6) 0.49556(6) 0.33304(7)
Cr2 Cr 0.49905(7) 0.38111(6) 0.09757(8)
Mn1 Mn 0.98780(6) 0.36483(6) 0.06949(8)
Mn2 Mn 0.62967(5) 0.48987(6) 0.35751(8)
O11A O 1.0558(3) 0.4407(2) 0.0605(3)
O12A O 0.9963(3) 0.3785(3) -0.0709(3)
O15C O 0.5589(2) 0.3119(3) 0.0914(4)
O16C O 0.4330(2) 0.3161(2) 0.0869(3)
O23A O 0.4338(3) 0.4479(2) 0.0931(3)
O24A O 0.4996(3) 0.3923(3) -0.0299(3)
Cr2A Cr 0.50095(7) 0.61889(6) 0.59757(8)
Cr2C Cr 0.99905(7) 0.11889(6) 0.09757(8)
Mn1A Mn 1.01220(6) 0.63517(6) 0.56949(8)
C13 C 0.5465(4) 0.6049(3) 0.0695(4)
C14 C 0.4803(4) 0.6123(4) 0.0687(5)
H1 H 0.4564 0.5978 0.0222
C15 C 0.4498(3) 0.6414(4) 0.1372(6)
H2 H 0.4055 0.6464 0.1367
C16 C 0.4856(4) 0.6632(4) 0.2066(5)
C17 C 0.5518(4) 0.6557(4) 0.2074(4)
H3 H 0.5757 0.6703 0.2539
C18 C 0.5823(3) 0.6266(4) 0.1389(5)
C19 C 0.6385(7) 0.6181(7) 0.1527(9)
H4 H 0.6529 0.6329 0.2056
C20 C 0.7482(7) 0.5619(7) 0.1127(9)
H5 H 0.7688 0.5787 0.1636
H6 H 0.7419 0.5182 0.1228
C21 C 0.7895(6) 0.5682(6) 0.0453(8)
H7 H 0.8304 0.5488 0.0580
H8 H 0.7967 0.6112 0.0318
C22 C 0.7570(8) 0.4709(9) -0.0121(13)
H9 H 0.7643 0.4632 0.0489
H10 H 0.7931 0.4536 -0.0433
C23 C 0.6971(8) 0.4362(8) -0.0388(11)
H11 H 0.7061 0.4143 -0.0920
H12 H 0.6876 0.4057 0.0051
C24 C 0.6151(8) 0.4633(8) -0.1334(11)
H13 H 0.6420 0.4332 -0.1621
H14 H 0.5733 0.4444 -0.1256
C25 C 0.6077(8) 0.5103(7) -0.1870(9)
H15 H 0.5623 0.5198 -0.1906
H16 H 0.6214 0.4973 -0.2440
C26 C 0.6545(5) 0.6056(5) -0.2225(7)
H17 H 0.6415 0.5973 -0.2787
C27 C 0.6872(3) 0.6611(3) -0.2090(5)
C28 C 0.7002(3) 0.6962(3) -0.2820(3)
H18 H 0.6877 0.6822 -0.3362
C29 C 0.7320(4) 0.7522(3) -0.2740(4)
C30 C 0.7507(3) 0.7731(3) -0.1930(5)
H19 H 0.7719 0.8106 -0.1876
C31 C 0.7376(3) 0.7380(3) -0.1200(4)
H20 H 0.7501 0.7520 -0.0658
C32 C 0.7059(3) 0.6820(3) -0.1280(4)
C33 C 0.5006(7) 0.7322(8) 0.3272(11)
H21 H 0.4798 0.7551 0.3722
H22 H 0.5219 0.7601 0.2886
H23 H 0.5315 0.7046 0.3521
C34 C 0.7613(10) 0.8391(8) -0.3468(14)
H24 H 0.7718 0.8596 -0.3998
H25 H 0.7971 0.8416 -0.3079
H26 H 0.7246 0.8585 -0.3211
N1 N 0.6833(4) 0.5911(4) 0.1050(6)
N2 N 0.7573(3) 0.5371(5) -0.0255(6)
H27 H 0.7783 0.5456 -0.0756
N3 N 0.6407(3) 0.4733(4) -0.0518(6)
H28 H 0.6109 0.4619 -0.0120
N4 N 0.6409(4) 0.5653(4) -0.1659(5)
O25 O 0.5748(3) 0.5821(3) 0.0028(5)
O26 O 0.6927(3) 0.6511(3) -0.0584(4)
O27 O 0.4522(5) 0.6964(5) 0.2790(7)
O28 O 0.7483(6) 0.7814(7) -0.3624(9)
Fe1 Fe 0.66066(5) 0.57204(7) -0.03399(9)
Fe2 Fe 0.94677(10) 0.67117(10) -0.01847(12)
O29 O 0.8778(3) 0.7238(4) 0.0206(5)
O30 O 0.9265(3) 0.5888(4) -0.0570(4)
O31 O 0.7163(10) 0.7554(10) 0.3106(13)
O32 O 0.8062(4) 0.4728(5) -0.3274(6)
N5 N 0.9480(4) 0.6394(4) 0.1089(6)
N6 N 1.0467(4) 0.6378(4) -0.0033(5)
H29 H 1.0497 0.6033 -0.0364
N7 N 1.0081(5) 0.7552(4) -0.0350(6)
H30 H 0.9915 0.7860 -0.0019
N8 N 0.9201(4) 0.6965(4) -0.1433(5)
C35 C 0.8464(4) 0.7325(4) 0.0929(5)
C36 C 0.7985(5) 0.7770(4) 0.0909(7)
H31 H 0.7940 0.8023 0.0428
C37 C 0.7573(5) 0.7837(6) 0.1609(9)
H32 H 0.7253 0.8135 0.1596
C38 C 0.7641(5) 0.7460(7) 0.2328(7)
C39 C 0.8120(5) 0.7015(5) 0.2348(5)
H33 H 0.8165 0.6762 0.2829
C40 C 0.8532(4) 0.6947(4) 0.1648(6)
C41 C 0.9061(6) 0.6533(7) 0.1724(8)
H34 H 0.9122 0.6344 0.2256
C42 C 0.9968(6) 0.5916(6) 0.1237(8)
H35 H 0.9853 0.5537 0.0945
H36 H 1.0015 0.5833 0.1849
C43 C 1.0582(6) 0.6177(6) 0.0870(7)
H37 H 1.0723 0.6524 0.1216
H38 H 1.0916 0.5865 0.0883
C44 C 1.0948(6) 0.6814(6) -0.0379(9)
H39 H 1.0958 0.6797 -0.1005
H40 H 1.1372 0.6717 -0.0160
C45 C 1.0737(5) 0.7440(5) -0.0075(7)
H41 H 1.0764 0.7461 0.0549
H42 H 1.1017 0.7753 -0.0314
C46 C 1.0004(6) 0.7735(6) -0.1320(8)
H43 H 1.0102 0.8168 -0.1395
H44 H 1.0300 0.7498 -0.1672
C47 C 0.9351(6) 0.7613(6) -0.1591(7)
H45 H 0.9304 0.7706 -0.2200
H46 H 0.9058 0.7874 -0.1270
C48 C 0.8921(5) 0.6652(5) -0.2026(6)
H47 H 0.8806 0.6852 -0.2534
C49 C 0.8774(4) 0.5999(3) -0.1945(5)
C50 C 0.8470(4) 0.5715(4) -0.2637(4)
H48 H 0.8319 0.5951 -0.3096
C51 C 0.8390(4) 0.5079(4) -0.2644(5)
C52 C 0.8615(5) 0.4727(3) -0.1958(6)
H49 H 0.8561 0.4302 -0.1963
C53 C 0.8919(4) 0.5011(3) -0.1266(5)
H50 H 0.9070 0.4775 -0.0807
C54 C 0.8999(3) 0.5646(3) -0.1259(4)
C55 C 0.7498(11) 0.7498(11) 0.3844(11)
H51 H 0.7216 0.7555 0.4328
H52 H 0.7830 0.7804 0.3859
H53 H 0.7687 0.7095 0.3872
C56 C 0.7737(8) 0.5047(7) -0.3861(10)
H54 H 0.7535 0.4768 -0.4258
H55 H 0.8026 0.5312 -0.4169
H56 H 0.7415 0.5291 -0.3579
C57? C 0.8684(8) 0.7481(8) 0.0849(12)
C58? C 0.8246(10) 0.7403(7) 0.1517(12)
C59? C 0.7788(9) 0.7853(9) 0.1679(11)
C60? C 0.7767(8) 0.8381(8) 0.1174(11)
C61? C 0.8205(9) 0.8460(7) 0.0506(10)
C62? C 0.8663(8) 0.8010(9) 0.0343(11)
C63? C 0.9173(11) 0.8109(12) -0.0178(16)
C64? C 1.0177(11) 0.7861(11) -0.0881(16)
C65? C 1.0499(14) 0.7417(13) -0.1390(17)
C66? C 1.1054(13) 0.6716(14) -0.0143(19)
C67? C 1.1054(12) 0.7090(13) 0.0577(16)
C68? C 1.027(2) 0.653(2) 0.154(3)
C69? C 1.0267(14) 0.5979(12) 0.1155(15)
C70? C 0.9498(10) 0.5539(11) 0.0000(13)
C71? C 0.9094(11) 0.5601(11) -0.0724(11)
C72? C 0.8906(13) 0.5053(8) -0.1113(17)
C73? C 0.8562(12) 0.5065(8) -0.1882(16)
C74? C 0.8405(10) 0.5626(11) -0.2261(11)
C75? C 0.8592(10) 0.6174(8) -0.1871(12)
C76? C 0.8937(9) 0.6161(9) -0.1103(11)
C77? C 0.7345(13) 0.9388(9) 0.087(2)
C78? C 0.8595(14) 0.3968(14) -0.2018(18)
Fe3? Fe 0.9730(3) 0.6885(2) 0.0045(4)
H57? H 0.8260 0.7049 0.1855
H58? H 0.7495 0.7800 0.2126
H59? H 0.8191 0.8814 0.0168
H60? H 0.9175 0.8480 -0.0479
H61? H 1.0506 0.8065 -0.0542
H62? H 1.0013 0.8166 -0.1281
H63? H 1.0935 0.7543 -0.1521
H64? H 1.0271 0.7334 -0.1923
H65? H 1.1039 0.6289 0.0042
H66? H 1.1452 0.6776 -0.0456
H67? H 1.0435 0.6497 -0.1092
H68? H 1.1142 0.7515 0.0422
H69? H 1.1371 0.6954 0.0994
H70? H 1.0609 0.6543 0.1973
H71? H 0.9866 0.6598 0.1835
H72? H 1.0128 0.5664 0.1557
H73? H 1.0692 0.5875 0.0949
H74? H 0.9567 0.5146 0.0221
H75? H 0.9012 0.4678 -0.0860
H76? H 0.8174 0.5634 -0.2775
H77? H 0.8487 0.6549 -0.2124
H78? H 1.0272 0.7379 0.1208
H79? H 0.6987 0.9661 0.0944
H80? H 0.7433 0.9344 0.0261
H81? H 0.7715 0.9554 0.1152
H82? H 0.8418 0.3657 -0.2389
H83? H 0.8459 0.3895 -0.1435
H84? H 0.9055 0.3953 -0.2047
N9? N 0.9682(10) 0.7731(9) -0.0315(12)
N10? N 1.0486(11) 0.6839(11) -0.0759(13)
N11? N 1.0373(11) 0.7020(12) 0.0937(15)
N12? N 0.9794(10) 0.6029(10) 0.0395(13)
O33? O 0.9074(10) 0.7015(11) 0.0881(13)
O34? O 0.9146(8) 0.6741(7) -0.0805(11)
O35? O 0.7194(11) 0.8800(10) 0.1224(13)
O36? O 0.8352(12) 0.4628(12) -0.2324(16)
loop_
_geom_bond_atom_site_label_1
_geom_bond_atom_site_label_2
_geom_bond_site_symmetry_1
_geom_bond_site_symmetry_2
C1 C2 1_555 1_555
C2 O2 1_555 1_555
C3 C4 1_555 1_555
C4 O6 1_555 1_555
C5 C6 1_555 1_555
C6 O10 1_555 1_555
C7 C8 1_555 1_555
C8 O14 1_555 1_555
C9 C10 1_555 1_555
C10 O18 1_555 1_555
C11 C12 1_555 1_555
C12 O22 1_555 1_555
C13 C14 1_555 1_555
C14 H1 1_555 1_555
C15 C14 1_555 1_555
H2 C15 1_555 1_555
C16 C15 1_555 1_555
C17 C16 1_555 1_555
H3 C17 1_555 1_555
C18 C13 1_555 1_555
C19 C18 1_555 1_555
H4 C19 1_555 1_555
C20 H5 1_555 1_555
H6 C20 1_555 1_555
C21 C20 1_555 1_555
H7 C21 1_555 1_555
H8 C21 1_555 1_555
C22 H9 1_555 1_555
H10 C22 1_555 1_555
C23 C22 1_555 1_555
H11 C23 1_555 1_555
H12 C23 1_555 1_555
C24 H13 1_555 1_555
H14 C24 1_555 1_555
C25 C24 1_555 1_555
H15 C25 1_555 1_555
H16 C25 1_555 1_555
C26 H17 1_555 1_555
C27 C26 1_555 1_555
C28 C27 1_555 1_555
H18 C28 1_555 1_555
C29 C28 1_555 1_555
C30 C29 1_555 1_555
H19 C30 1_555 1_555
C31 C30 1_555 1_555
H20 C31 1_555 1_555
C32 C27 1_555 1_555
C33 H21 1_555 1_555
H22 C33 1_555 1_555
H23 C33 1_555 1_555
C34 H24 1_555 1_555
H25 C34 1_555 1_555
H26 C34 1_555 1_555
N1 C19 1_555 1_555
N2 C21 1_555 1_555
H27 N2 1_555 1_555
N3 C23 1_555 1_555
H28 N3 1_555 1_555
N4 C25 1_555 1_555
O1 C1 1_555 1_555
O2 Mn2 1_555 1_555
O3 C1 1_555 1_555
O4 C2 1_555 1_555
O5 C3 1_555 1_555
O6 Mn1 1_555 1_555
O7 C3 1_555 1_555
O8 C4 1_555 1_555
O9 C5 1_555 1_555
O10 Cr1 1_555 1_555
O11 C5 1_555 1_555
O12 C6 1_555 1_555
O13 C7 1_555 1_555
O14 Mn1 1_555 1_555
O15 C7 1_555 1_555
O16 C8 1_555 1_555
O17 C9 1_555 1_555
O18 Cr2 1_555 1_555
O19 C9 1_555 1_555
O20 C10 1_555 1_555
O21 C11 1_555 1_555
O22 Mn2 1_555 1_555
O23 C11 1_555 1_555
O24 C12 1_555 1_555
O25 C13 1_555 1_555
O26 C32 1_555 1_555
O27 C16 1_555 1_555
O28 C29 1_555 1_555
Cr1 O3 1_555 1_555
Cr2 O17 1_555 1_555
Mn1 O5 1_555 1_555
Mn2 O1 1_555 1_555
Fe1 N1 1_555 1_555
Fe2 O29 1_555 1_555
O29 C35 1_555 1_555
O30 Fe2 1_555 1_555
O31 C38 1_555 1_555
O32 C51 1_555 1_555
N5 Fe2 1_555 1_555
N6 Fe2 1_555 1_555
H29 N6 1_555 1_555
N7 Fe2 1_555 1_555
H30 N7 1_555 1_555
N8 Fe2 1_555 1_555
C35 C36 1_555 1_555
C36 H31 1_555 1_555
C37 C36 1_555 1_555
H32 C37 1_555 1_555
C38 C37 1_555 1_555
C39 C38 1_555 1_555
H33 C39 1_555 1_555
C40 C35 1_555 1_555
C41 N5 1_555 1_555
H34 C41 1_555 1_555
C42 N5 1_555 1_555
H35 C42 1_555 1_555
H36 C42 1_555 1_555
C43 N6 1_555 1_555
H37 C43 1_555 1_555
H38 C43 1_555 1_555
C44 N6 1_555 1_555
H39 C44 1_555 1_555
H40 C44 1_555 1_555
C45 N7 1_555 1_555
H41 C45 1_555 1_555
H42 C45 1_555 1_555
C46 N7 1_555 1_555
H43 C46 1_555 1_555
H44 C46 1_555 1_555
C47 N8 1_555 1_555
H45 C47 1_555 1_555
H46 C47 1_555 1_555
C48 N8 1_555 1_555
H47 C48 1_555 1_555
C49 C48 1_555 1_555
C50 C49 1_555 1_555
H48 C50 1_555 1_555
C51 C50 1_555 1_555
C52 C51 1_555 1_555
H49 C52 1_555 1_555
C53 C52 1_555 1_555
H50 C53 1_555 1_555
C54 O30 1_555 1_555
C55 O31 1_555 1_555
H51 C55 1_555 1_555
H52 C55 1_555 1_555
H53 C55 1_555 1_555
C56 O32 1_555 1_555
H54 C56 1_555 1_555
H55 C56 1_555 1_555
H56 C56 1_555 1_555
O11A Mn1 1_555 1_555
O12A Mn1 1_555 1_555
O15C Cr2 1_555 1_555
O16C Cr2 1_555 1_555
O23A Cr2 1_555 1_555
O24A Cr2 1_555 1_555
Cr2A O23 1_555 1_555
Cr2C O15 1_555 1_555
Mn1A O11 1_555 1_555
C17 C18 1_555 1_555
C20 N1 1_555 1_555
C22 N2 1_555 1_555
C24 N3 1_555 1_555
C26 N4 1_555 1_555
C31 C32 1_555 1_555
C33 O27 1_555 1_555
C34 O28 1_555 1_555
N2 Fe1 1_555 1_555
N3 Fe1 1_555 1_555
N4 Fe1 1_555 1_555
O4 Cr1 1_555 1_555
O7 Cr1 1_555 1_555
O8 Cr1 1_555 1_555
O9 Cr1 1_555 1_555
O12 Mn1A 1_555 1_555
O13 Mn1 1_555 1_555
O16 Cr2C 1_555 1_555
O19 Mn2 1_555 1_555
O20 Mn2 1_555 1_555
O21 Mn2 1_555 1_555
O24 Cr2A 1_555 1_555
O25 Fe1 1_555 1_555
O26 Fe1 1_555 1_555
C39 C40 1_555 1_555
C40 C41 1_555 1_555
C42 C43 1_555 1_555
C44 C45 1_555 1_555
C46 C47 1_555 1_555
C49 C54 1_555 1_555
C53 C54 1_555 1_555

#END
