
#######################################################################
#
#                 Cambridge Crystallographic Data Centre
#                                CCDC 
#
#######################################################################
#
# If this CIF has been generated from an entry in the Cambridge 
# Structural Database, then it will include bibliographic, chemical, 
# crystal, experimental, refinement or atomic coordinate data resulting 
# from the CCDC's data processing and validation procedures.
#
#######################################################################

data_PUXKUP
_symmetry_cell_setting           triclinic
_symmetry_space_group_name_H-M   'P -1'
_symmetry_Int_Tables_number      2
_space_group_name_Hall           '-P 1'
loop_
_symmetry_equiv_pos_site_id
_symmetry_equiv_pos_as_xyz
1 x,y,z
2 -x,-y,-z
_cell_length_a                   15.312
_cell_length_b                   15.885
_cell_length_c                   17.816
_cell_angle_alpha                65.59
_cell_angle_beta                 81.20
_cell_angle_gamma                64.94
_cell_volume                     3573.31
loop_
_atom_site_label
_atom_site_type_symbol
_atom_site_fract_x
_atom_site_fract_y
_atom_site_fract_z
Zn1 Zn 0.32628(3) 0.22495(3) 0.82870(2)
Zn2 Zn 0.16875(3) 0.27722(3) 0.65440(3)
O1 O 0.35374(17) 0.31629(19) 0.71785(16)
O2 O 0.26319(18) 0.3484(2) 0.61302(18)
O3 O 0.30133(17) 0.56551(19) 0.62016(18)
O4 O -0.0302(2) 0.6563(2) 0.8404(2)
O5 O -0.23343(16) 0.67515(18) 1.12312(16)
O6 O -0.25198(17) 0.82376(19) 1.02320(17)
O7 O 0.21641(16) 0.20916(18) 0.78639(16)
O8 O 0.10526(19) 0.1794(2) 0.75149(16)
O9 O 0.21711(18) -0.0746(2) 0.88064(18)
O10 O 0.4943(2) -0.1400(2) 0.63803(19)
O11 O 0.73271(17) -0.16799(19) 0.38123(16)
O12 O 0.7587(2) -0.2477(3) 0.5176(2)
N1 N 0.4241(2) 0.5326(2) 0.69803(19)
N2 N 0.0765(2) 0.6316(2) 0.92979(19)
N3 N 0.0803(2) -0.0321(2) 0.81518(19)
N4 N 0.3873(2) -0.1192(2) 0.5513(2)
N5 N 0.4286(2) 0.0848(2) 0.82677(18)
N6 N 0.44531(19) 0.1894(2) 0.90286(19)
N7 N 0.0666(2) 0.4113(2) 0.66825(18)
N8 N 0.0479(2) 0.3220(2) 0.57922(19)
C1 C 0.3315(2) 0.3506(3) 0.6433(2)
C2 C 0.3944(3) 0.3962(3) 0.5817(2)
H1 H 0.3539 0.4531 0.5357
H2 H 0.4392 0.3466 0.5606
C3 C 0.4517(3) 0.4320(3) 0.6152(2)
H3 H 0.4928 0.4564 0.5725
H4 H 0.4929 0.3755 0.6610
C4 C 0.3861(2) 0.5156(3) 0.6440(2)
C5 C 0.3560(3) 0.5979(3) 0.7386(2)
H5 H 0.3118 0.6585 0.6973
H6 H 0.3915 0.6181 0.7638
C6 C 0.2980(3) 0.5464(3) 0.8047(2)
H7 H 0.2744 0.5128 0.7829
H8 H 0.3402 0.4953 0.8519
C7 C 0.2130(3) 0.6199(3) 0.8328(2)
H9 H 0.2360 0.6526 0.8561
H10 H 0.1706 0.6717 0.7859
C8 C 0.1578(3) 0.5645(3) 0.8970(2)
H11 H 0.1330 0.5344 0.8725
H12 H 0.2016 0.5105 0.9421
C9 C -0.0139(3) 0.6740(3) 0.8976(2)
C10 C -0.0949(3) 0.7381(3) 0.9363(2)
H13 H -0.0698 0.7696 0.9591
H14 H -0.1436 0.7911 0.8945
C11 C -0.1403(3) 0.6730(3) 1.0047(2)
H15 H -0.0897 0.6154 1.0426
H16 H -0.1710 0.6475 0.9804
C12 C -0.2140(2) 0.7294(3) 1.0526(2)
C13 C 0.5247(2) 0.4803(3) 0.7235(2)
C14 C 0.5535(3) 0.4109(4) 0.8019(3)
H17 H 0.5072 0.3977 0.8398
C15 C 0.6495(3) 0.3600(4) 0.8262(3)
H18 H 0.6671 0.3129 0.8799
C16 C 0.7202(3) 0.3786(3) 0.7712(3)
C17 C 0.6916(3) 0.4494(3) 0.6926(3)
H19 H 0.7377 0.4633 0.6548
C18 C 0.5942(3) 0.5009(3) 0.6685(3)
H20 H 0.5760 0.5492 0.6152
C19 C 0.8264(3) 0.3163(4) 0.7976(3)
H21 H 0.8406 0.2456 0.8130
H22 H 0.8659 0.3359 0.7511
C20 C 0.8534(2) 0.3294(3) 0.8698(2)
C21 C 0.8679(3) 0.4147(3) 0.8575(3)
H23 H 0.8618 0.4640 0.8046
C22 C 0.8915(3) 0.4273(3) 0.9233(3)
H24 H 0.9009 0.4848 0.9144
C23 C 0.9008(2) 0.3545(3) 1.0017(2)
C24 C 0.8836(3) 0.2706(3) 1.0148(2)
H25 H 0.8876 0.2226 1.0681
C25 C 0.8605(3) 0.2580(3) 0.9491(3)
H26 H 0.8497 0.2012 0.9584
C26 C 0.1538(2) 0.1711(3) 0.8054(2)
C27 C 0.1359(3) 0.1153(3) 0.8960(2)
H27 H 0.1974 0.0702 0.9253
H28 H 0.1016 0.1638 0.9211
C28 C 0.0772(3) 0.0544(3) 0.9042(2)
H29 H 0.0676 0.0196 0.9620
H30 H 0.0144 0.0996 0.8774
C29 C 0.1293(2) -0.0216(3) 0.8652(2)
C30 C 0.1361(3) -0.0959(3) 0.7681(2)
H31 H 0.0935 -0.1151 0.7499
H32 H 0.1858 -0.1570 0.8040
C31 C 0.1828(3) -0.0413(3) 0.6936(3)
H33 H 0.2139 -0.0092 0.7100
H34 H 0.1332 0.0112 0.6523
C32 C 0.2572(3) -0.1124(3) 0.6560(2)
H35 H 0.2258 -0.1405 0.6352
H36 H 0.3048 -0.1676 0.6978
C33 C 0.3068(3) -0.0547(3) 0.5857(3)
H37 H 0.2595 -0.0040 0.5419
H38 H 0.3308 -0.0200 0.6057
C34 C 0.4771(3) -0.1550(3) 0.5797(3)
C35 C 0.5592(3) -0.2105(3) 0.5370(3)
H39 H 0.5367 -0.2407 0.5108
H40 H 0.6096 -0.2642 0.5771
C36 C 0.6009(3) -0.1366(3) 0.4706(3)
H41 H 0.5939 -0.0843 0.4887
H42 H 0.5640 -0.1044 0.4193
C37 C 0.7050(3) -0.1897(3) 0.4556(3)
C38 C -0.0210(2) 0.0287(3) 0.7928(2)
C39 C -0.0480(2) 0.1110(3) 0.7194(2)
H43 H -0.0016 0.1307 0.6858
C40 C -0.1446(3) 0.1648(3) 0.6957(2)
H44 H -0.1627 0.2198 0.6456
C41 C -0.2152(2) 0.1372(3) 0.7464(2)
C42 C -0.1865(3) 0.0554(3) 0.8205(3)
H45 H -0.2327 0.0370 0.8554
C43 C -0.0888(3) -0.0003(3) 0.8443(2)
H46 H -0.0700 -0.0559 0.8940
C44 C -0.3207(2) 0.1971(3) 0.7173(3)
H47 H -0.3617 0.1778 0.7624
H48 H -0.3369 0.2685 0.7001
C45 C -0.3384(2) 0.1773(3) 0.6455(2)
C46 C -0.3400(3) 0.2443(3) 0.5647(3)
H49 H -0.3311 0.3025 0.5543
C47 C -0.3546(3) 0.2252(3) 0.4992(2)
H50 H -0.3556 0.2703 0.4452
C48 C -0.3677(3) 0.1377(3) 0.5156(2)
C49 C -0.3621(3) 0.0686(3) 0.5957(3)
H51 H -0.3676 0.0086 0.6061
C50 C -0.3484(3) 0.0889(3) 0.6600(3)
H52 H -0.3457 0.0428 0.7139
C51 C 0.4167(3) 0.0381(3) 0.7836(2)
H53 H 0.3596 0.0676 0.7533
C52 C 0.4866(3) -0.0525(3) 0.7825(2)
H54 H 0.4773 -0.0825 0.7511
C53 C 0.5702(3) -0.0970(3) 0.8293(2)
H55 H 0.6172 -0.1587 0.8310
C54 C 0.5838(2) -0.0492(3) 0.8735(2)
H56 H 0.6404 -0.0774 0.9041
C55 C 0.5110(2) 0.0419(2) 0.8712(2)
C56 C 0.5201(2) 0.1003(3) 0.9149(2)
C57 C 0.5991(2) 0.0656(3) 0.9653(2)
H57 H 0.6498 0.0034 0.9736
C58 C 0.6006(3) 0.1263(3) 1.0034(2)
H58 H 0.6530 0.1057 1.0366
C59 C 0.5236(3) 0.2169(3) 0.9910(3)
H59 H 0.5233 0.2586 1.0155
C60 C 0.4469(3) 0.2450(3) 0.9415(2)
H60 H 0.3940 0.3053 0.9348
C61 C 0.0823(3) 0.4541(3) 0.7133(2)
H61 H 0.1397 0.4212 0.7439
C62 C 0.0165(3) 0.5452(3) 0.7160(3)
H62 H 0.0288 0.5725 0.7483
C63 C -0.0678(3) 0.5942(3) 0.6696(3)
H63 H -0.1124 0.6563 0.6692
C64 C -0.0859(3) 0.5512(3) 0.6237(3)
H64 H -0.1432 0.5832 0.5931
C65 C -0.0168(2) 0.4587(3) 0.6239(2)
C66 C -0.0285(2) 0.4068(3) 0.5760(2)
C67 C -0.1115(3) 0.4411(3) 0.5303(2)
H65 H -0.1625 0.5017 0.5264
C68 C -0.1183(3) 0.3855(3) 0.4910(3)
H66 H -0.1735 0.4079 0.4603
C69 C -0.0423(3) 0.2968(4) 0.4979(3)
H67 H -0.0462 0.2565 0.4737
C70 C 0.0410(3) 0.2672(3) 0.5414(2)
H68 H 0.0934 0.2079 0.5444
Zn1A Zn -0.32628(3) -0.22495(3) 0.17130(2)
Zn1_2 Zn 1.32628(3) 0.22495(3) 0.82870(2)
Zn1A_2 Zn -0.32628(3) 0.77505(3) 1.17130(2)
Zn1A_3 Zn 0.67372(3) 0.77505(3) 1.17130(2)
Zn2A Zn -0.16875(3) -0.27722(3) 0.34560(3)
Zn2_2 Zn -0.83125(3) 0.27722(3) 0.65440(3)
Zn2A_2 Zn 0.83125(3) -0.27722(3) 0.34560(3)
Zn2A_3 Zn 0.83125(3) 0.72278(3) 1.34560(3)
O1A O 0.64626(17) 0.68371(19) 1.28215(16)
O1A_2 O -0.35374(17) -0.31629(19) 0.28215(16)
O2A O 0.73681(18) 0.6516(2) 1.38698(18)
O2A_2 O -0.26319(18) -0.3484(2) 0.38698(18)
O3A O 0.69867(17) 0.43449(19) 1.37984(18)
O4A O 1.0302(2) 0.3437(2) 1.1596(2)
O5A O 1.23343(16) 0.32485(18) 0.87688(16)
O5_2 O -0.23343(16) -0.32485(18) 0.12312(16)
O5A_2 O 0.23343(16) 0.32485(18) 0.87688(16)
O6A O 1.25198(17) 0.17624(19) 0.97680(17)
O7A O -0.21641(16) -0.20916(18) 0.21361(16)
O8A O -0.10526(19) -0.1794(2) 0.24851(16)
O9A O -0.21711(18) 0.0746(2) 0.11936(18)
O10A O -0.4943(2) 0.1400(2) 0.36197(19)
O11A O -0.73271(17) 0.16799(19) 0.61877(16)
O11_2 O -0.26729(17) -0.16799(19) 0.38123(16)
O11A_2 O 0.26729(17) 0.16799(19) 0.61877(16)
O12A O -0.7587(2) 0.2477(3) 0.4824(2)
N1A N 0.5759(2) 0.4674(2) 1.30197(19)
N2A N 0.9235(2) 0.3684(2) 1.07021(19)
N3A N -0.0803(2) 0.0321(2) 0.18482(19)
N4A N -0.3873(2) 0.1192(2) 0.4487(2)
N5A N -0.4286(2) -0.0848(2) 0.17323(18)
N6A N -0.44531(19) -0.1894(2) 0.09714(19)
N7A N -0.0666(2) -0.4113(2) 0.33175(18)
N8A N -0.0479(2) -0.3220(2) 0.42078(19)
C1A C 0.6685(2) 0.6494(3) 1.3567(2)
C2A C 0.6056(3) 0.6038(3) 1.4183(2)
H1A H 0.6461 0.5469 1.4643
H2A H 0.5608 0.6534 1.4394
C3A C 0.5483(3) 0.5680(3) 1.3848(2)
H3A H 0.5072 0.5436 1.4275
H4A H 0.5071 0.6245 1.3390
C4A C 0.6139(2) 0.4844(3) 1.3560(2)
C5A C 0.6440(3) 0.4021(3) 1.2614(2)
H5A H 0.6882 0.3415 1.3027
H6A H 0.6085 0.3819 1.2362
C6A C 0.7020(3) 0.4536(3) 1.1953(2)
H7A H 0.7256 0.4872 1.2171
H8A H 0.6598 0.5047 1.1481
C7A C 0.7870(3) 0.3801(3) 1.1672(2)
H9A H 0.7640 0.3474 1.1439
H10A H 0.8294 0.3283 1.2141
C8A C 0.8422(3) 0.4355(3) 1.1030(2)
H11A H 0.8670 0.4656 1.1275
H12A H 0.7984 0.4895 1.0579
C9A C 1.0139(3) 0.3260(3) 1.1024(2)
C10A C 1.0949(3) 0.2619(3) 1.0637(2)
H13A H 1.0698 0.2304 1.0409
H14A H 1.1436 0.2089 1.1055
C11A C 1.1403(3) 0.3270(3) 0.9953(2)
H15A H 1.0897 0.3846 0.9574
H16A H 1.1710 0.3525 1.0196
C12A C 1.2140(2) 0.2706(3) 0.9474(2)
C13A C 0.4753(2) 0.5197(3) 1.2765(2)
C14A C 0.4465(3) 0.5891(4) 1.1981(3)
H17A H 0.4928 0.6023 1.1602
C15A C 0.3505(3) 0.6400(4) 1.1738(3)
H18A H 0.3329 0.6871 1.1201
C16A C 0.2798(3) 0.6214(3) 1.2288(3)
C17A C 0.3084(3) 0.5506(3) 1.3074(3)
H19A H 0.2623 0.5367 1.3452
C18A C 0.4058(3) 0.4991(3) 1.3315(3)
H20A H 0.4240 0.4508 1.3848
C19A C 0.1736(3) 0.6837(4) 1.2024(3)
H21A H 0.1594 0.7544 1.1870
H22A H 0.1341 0.6641 1.2489
C20A C 0.1466(2) 0.6706(3) 1.1302(2)
C21A C 0.1321(3) 0.5853(3) 1.1425(3)
H23A H 0.1382 0.5360 1.1954
C22A C 0.1085(3) 0.5727(3) 1.0767(3)
H24A H 0.0991 0.5152 1.0856
C23A C 0.0992(2) 0.6455(3) 0.9983(2)
C24A C 0.1164(3) 0.7294(3) 0.9852(2)
H25A H 0.1124 0.7774 0.9319
C25A C 0.1395(3) 0.7420(3) 1.0509(3)
H26A H 0.1503 0.7988 1.0416
C26A C -0.1538(2) -0.1711(3) 0.1946(2)
C27A C -0.1359(3) -0.1153(3) 0.1040(2)
H27A H -0.1974 -0.0702 0.0747
H28A H -0.1016 -0.1638 0.0789
C28A C -0.0772(3) -0.0544(3) 0.0958(2)
H29A H -0.0676 -0.0196 0.0380
H30A H -0.0144 -0.0996 0.1226
C29A C -0.1293(2) 0.0216(3) 0.1348(2)
C30A C -0.1361(3) 0.0959(3) 0.2319(2)
H31A H -0.0935 0.1151 0.2501
H32A H -0.1858 0.1570 0.1960
C31A C -0.1828(3) 0.0413(3) 0.3064(3)
H33A H -0.2139 0.0092 0.2900
H34A H -0.1332 -0.0112 0.3477
C32A C -0.2572(3) 0.1124(3) 0.3440(2)
H35A H -0.2258 0.1405 0.3648
H36A H -0.3048 0.1676 0.3022
C33A C -0.3068(3) 0.0547(3) 0.4143(3)
H37A H -0.2595 0.0040 0.4581
H38A H -0.3308 0.0200 0.3943
C34A C -0.4771(3) 0.1550(3) 0.4203(3)
C35A C -0.5592(3) 0.2105(3) 0.4630(3)
H39A H -0.5367 0.2407 0.4892
H40A H -0.6096 0.2642 0.4229
C36A C -0.6009(3) 0.1366(3) 0.5294(3)
H41A H -0.5939 0.0843 0.5113
H42A H -0.5640 0.1044 0.5807
C37A C -0.7050(3) 0.1897(3) 0.5444(3)
C38A C 0.0210(2) -0.0287(3) 0.2072(2)
C39A C 0.0480(2) -0.1110(3) 0.2806(2)
H43A H 0.0016 -0.1307 0.3142
C40A C 0.1446(3) -0.1648(3) 0.3043(2)
H44A H 0.1627 -0.2198 0.3544
C41A C 0.2152(2) -0.1372(3) 0.2536(2)
C42A C 0.1865(3) -0.0554(3) 0.1795(3)
H45A H 0.2327 -0.0370 0.1446
C43A C 0.0888(3) 0.0003(3) 0.1557(2)
H46A H 0.0700 0.0559 0.1060
C44A C 0.3207(2) -0.1971(3) 0.2827(3)
H47A H 0.3617 -0.1778 0.2376
H48A H 0.3369 -0.2685 0.2999
C45A C 0.3384(2) -0.1773(3) 0.3545(2)
C46A C 0.3400(3) -0.2443(3) 0.4353(3)
H49A H 0.3311 -0.3025 0.4457
C47A C 0.3546(3) -0.2252(3) 0.5008(2)
H50A H 0.3556 -0.2703 0.5548
C48A C 0.3677(3) -0.1377(3) 0.4844(2)
C49A C 0.3621(3) -0.0686(3) 0.4043(3)
H51A H 0.3676 -0.0086 0.3939
C50A C 0.3484(3) -0.0889(3) 0.3400(3)
H52A H 0.3457 -0.0428 0.2861
C51A C -0.4167(3) -0.0381(3) 0.2164(2)
H53A H -0.3596 -0.0676 0.2467
C52A C -0.4866(3) 0.0525(3) 0.2175(2)
H54A H -0.4773 0.0825 0.2489
C53A C -0.5702(3) 0.0970(3) 0.1707(2)
H55A H -0.6172 0.1587 0.1690
C54A C -0.5838(2) 0.0492(3) 0.1265(2)
H56A H -0.6404 0.0774 0.0959
C55A C -0.5110(2) -0.0419(2) 0.1288(2)
C56A C -0.5201(2) -0.1003(3) 0.0851(2)
C57A C -0.5991(2) -0.0656(3) 0.0347(2)
H57A H -0.6498 -0.0034 0.0264
C58A C -0.6006(3) -0.1263(3) -0.0034(2)
H58A H -0.6530 -0.1057 -0.0366
C59A C -0.5236(3) -0.2169(3) 0.0090(3)
H59A H -0.5233 -0.2586 -0.0155
C60A C -0.4469(3) -0.2450(3) 0.0585(2)
H60A H -0.3940 -0.3053 0.0652
C61A C -0.0823(3) -0.4541(3) 0.2867(2)
H61A H -0.1397 -0.4212 0.2561
C62A C -0.0165(3) -0.5452(3) 0.2840(3)
H62A H -0.0288 -0.5725 0.2517
C63A C 0.0678(3) -0.5942(3) 0.3304(3)
H63A H 0.1124 -0.6563 0.3308
C64A C 0.0859(3) -0.5512(3) 0.3763(3)
H64A H 0.1432 -0.5832 0.4069
C65A C 0.0168(2) -0.4587(3) 0.3761(2)
C66A C 0.0285(2) -0.4068(3) 0.4240(2)
C67A C 0.1115(3) -0.4411(3) 0.4697(2)
H65A H 0.1625 -0.5017 0.4736
C68A C 0.1183(3) -0.3855(3) 0.5090(3)
H66A H 0.1735 -0.4079 0.5397
C69A C 0.0423(3) -0.2968(4) 0.5021(3)
H67A H 0.0462 -0.2565 0.5263
C70A C -0.0410(3) -0.2672(3) 0.4586(2)
H68A H -0.0934 -0.2079 0.4556
O13 O 0.0338(8) 0.0373(5) 0.4514(7)
O14 O 0.3031(2) 0.1925(2) 0.3454(2)
O15 O 0.2233(2) 0.3032(3) 0.1852(2)
O16 O 0.6541(3) 0.2723(3) 0.0995(4)
loop_
_geom_bond_atom_site_label_1
_geom_bond_atom_site_label_2
_geom_bond_site_symmetry_1
_geom_bond_site_symmetry_2
Zn1 O1 1_555 1_555
Zn2 O2 1_555 1_555
O1 C1 1_555 1_555
O2 C1 1_555 1_555
O3 C4 1_555 1_555
O4 C9 1_555 1_555
O5 C12 1_555 1_555
O6 C12 1_555 1_555
O7 Zn1 1_555 1_555
O8 Zn2 1_555 1_555
O9 C29 1_555 1_555
O10 C34 1_555 1_555
O11 C37 1_555 1_555
O12 C37 1_555 1_555
N1 C4 1_555 1_555
N2 C8 1_555 1_555
N3 C29 1_555 1_555
N4 C33 1_555 1_555
N5 Zn1 1_555 1_555
N6 Zn1 1_555 1_555
N7 Zn2 1_555 1_555
N8 Zn2 1_555 1_555
C1 C2 1_555 1_555
C2 H1 1_555 1_555
H2 C2 1_555 1_555
C3 C2 1_555 1_555
H3 C3 1_555 1_555
H4 C3 1_555 1_555
C4 C3 1_555 1_555
C5 N1 1_555 1_555
H5 C5 1_555 1_555
H6 C5 1_555 1_555
C6 C5 1_555 1_555
H7 C6 1_555 1_555
H8 C6 1_555 1_555
C7 C6 1_555 1_555
H9 C7 1_555 1_555
H10 C7 1_555 1_555
C8 C7 1_555 1_555
H11 C8 1_555 1_555
H12 C8 1_555 1_555
C9 N2 1_555 1_555
C10 C9 1_555 1_555
H13 C10 1_555 1_555
H14 C10 1_555 1_555
C11 C10 1_555 1_555
H15 C11 1_555 1_555
H16 C11 1_555 1_555
C12 C11 1_555 1_555
C13 N1 1_555 1_555
C14 C13 1_555 1_555
H17 C14 1_555 1_555
C15 C14 1_555 1_555
H18 C15 1_555 1_555
C16 C15 1_555 1_555
C17 C16 1_555 1_555
H19 C17 1_555 1_555
C18 C13 1_555 1_555
H20 C18 1_555 1_555
C19 C16 1_555 1_555
H21 C19 1_555 1_555
H22 C19 1_555 1_555
C20 C19 1_555 1_555
C21 C20 1_555 1_555
H23 C21 1_555 1_555
C22 C21 1_555 1_555
H24 C22 1_555 1_555
C23 C22 1_555 1_555
C24 C23 1_555 1_555
H25 C24 1_555 1_555
C25 C20 1_555 1_555
H26 C25 1_555 1_555
C26 O7 1_555 1_555
C27 C26 1_555 1_555
H27 C27 1_555 1_555
H28 C27 1_555 1_555
C28 C27 1_555 1_555
H29 C28 1_555 1_555
H30 C28 1_555 1_555
C29 C28 1_555 1_555
C30 N3 1_555 1_555
H31 C30 1_555 1_555
H32 C30 1_555 1_555
C31 C30 1_555 1_555
H33 C31 1_555 1_555
H34 C31 1_555 1_555
C32 C31 1_555 1_555
H35 C32 1_555 1_555
H36 C32 1_555 1_555
C33 C32 1_555 1_555
H37 C33 1_555 1_555
H38 C33 1_555 1_555
C34 N4 1_555 1_555
C35 C34 1_555 1_555
H39 C35 1_555 1_555
H40 C35 1_555 1_555
C36 C35 1_555 1_555
H41 C36 1_555 1_555
H42 C36 1_555 1_555
C37 C36 1_555 1_555
C38 N3 1_555 1_555
C39 C38 1_555 1_555
H43 C39 1_555 1_555
C40 C39 1_555 1_555
H44 C40 1_555 1_555
C41 C40 1_555 1_555
C42 C41 1_555 1_555
H45 C42 1_555 1_555
C43 C38 1_555 1_555
H46 C43 1_555 1_555
C44 C41 1_555 1_555
H47 C44 1_555 1_555
H48 C44 1_555 1_555
C45 C44 1_555 1_555
C46 C45 1_555 1_555
H49 C46 1_555 1_555
C47 C46 1_555 1_555
H50 C47 1_555 1_555
C48 C47 1_555 1_555
C49 C48 1_555 1_555
H51 C49 1_555 1_555
C50 C45 1_555 1_555
H52 C50 1_555 1_555
C51 N5 1_555 1_555
H53 C51 1_555 1_555
C52 C51 1_555 1_555
H54 C52 1_555 1_555
C53 C52 1_555 1_555
H55 C53 1_555 1_555
C54 C53 1_555 1_555
H56 C54 1_555 1_555
C55 N5 1_555 1_555
C56 N6 1_555 1_555
C57 C56 1_555 1_555
H57 C57 1_555 1_555
C58 C57 1_555 1_555
H58 C58 1_555 1_555
C59 C58 1_555 1_555
H59 C59 1_555 1_555
C60 N6 1_555 1_555
H60 C60 1_555 1_555
C61 N7 1_555 1_555
H61 C61 1_555 1_555
C62 C61 1_555 1_555
H62 C62 1_555 1_555
C63 C62 1_555 1_555
H63 C63 1_555 1_555
C64 C63 1_555 1_555
H64 C64 1_555 1_555
C65 N7 1_555 1_555
C66 N8 1_555 1_555
C67 C66 1_555 1_555
H65 C67 1_555 1_555
C68 C67 1_555 1_555
H66 C68 1_555 1_555
C69 C68 1_555 1_555
H67 C69 1_555 1_555
C70 N8 1_555 1_555
H68 C70 1_555 1_555
Zn1A O1A_2 1_555 1_555
Zn1_2 O5A 1_555 1_555
Zn1A_2 O5 1_555 1_555
Zn1A_3 O1A 1_555 1_555
Zn2A O2A_2 1_555 1_555
Zn2_2 O11A 1_555 1_555
Zn2A_2 O11 1_555 1_555
Zn2A_3 O2A 1_555 1_555
O1A C1A 1_555 1_555
O2A C1A 1_555 1_555
O3A C4A 1_555 1_555
O4A C9A 1_555 1_555
O5A C12A 1_555 1_555
O5_2 Zn1A 1_555 1_555
O5A_2 Zn1 1_555 1_555
O6A C12A 1_555 1_555
O7A Zn1A 1_555 1_555
O8A Zn2A 1_555 1_555
O9A C29A 1_555 1_555
O10A C34A 1_555 1_555
O11A C37A 1_555 1_555
O11_2 Zn2A 1_555 1_555
O11A_2 Zn2 1_555 1_555
O12A C37A 1_555 1_555
N1A C4A 1_555 1_555
N2A C23 1_555 1_555
N3A C29A 1_555 1_555
N4A C48 1_555 1_555
N5A Zn1A 1_555 1_555
N6A Zn1A 1_555 1_555
N7A Zn2A 1_555 1_555
N8A Zn2A 1_555 1_555
C1A C2A 1_555 1_555
C2A H1A 1_555 1_555
H2A C2A 1_555 1_555
C3A C2A 1_555 1_555
H3A C3A 1_555 1_555
H4A C3A 1_555 1_555
C4A C3A 1_555 1_555
C5A N1A 1_555 1_555
H5A C5A 1_555 1_555
H6A C5A 1_555 1_555
C6A C5A 1_555 1_555
H7A C6A 1_555 1_555
H8A C6A 1_555 1_555
C7A C6A 1_555 1_555
H9A C7A 1_555 1_555
H10A C7A 1_555 1_555
C8A N2A 1_555 1_555
H11A C8A 1_555 1_555
H12A C8A 1_555 1_555
C9A N2A 1_555 1_555
C10A C9A 1_555 1_555
H13A C10A 1_555 1_555
H14A C10A 1_555 1_555
C11A C10A 1_555 1_555
H15A C11A 1_555 1_555
H16A C11A 1_555 1_555
C12A C11A 1_555 1_555
C13A N1A 1_555 1_555
C14A C13A 1_555 1_555
H17A C14A 1_555 1_555
C15A C14A 1_555 1_555
H18A C15A 1_555 1_555
C16A C15A 1_555 1_555
C17A C16A 1_555 1_555
H19A C17A 1_555 1_555
C18A C13A 1_555 1_555
H20A C18A 1_555 1_555
C19A C16A 1_555 1_555
H21A C19A 1_555 1_555
H22A C19A 1_555 1_555
C20A C19A 1_555 1_555
C21A C20A 1_555 1_555
H23A C21A 1_555 1_555
C22A C21A 1_555 1_555
H24A C22A 1_555 1_555
C23A N2 1_555 1_555
C24A C23A 1_555 1_555
H25A C24A 1_555 1_555
C25A C20A 1_555 1_555
H26A C25A 1_555 1_555
C26A O7A 1_555 1_555
C27A C26A 1_555 1_555
H27A C27A 1_555 1_555
H28A C27A 1_555 1_555
C28A C27A 1_555 1_555
H29A C28A 1_555 1_555
H30A C28A 1_555 1_555
C29A C28A 1_555 1_555
C30A N3A 1_555 1_555
H31A C30A 1_555 1_555
H32A C30A 1_555 1_555
C31A C30A 1_555 1_555
H33A C31A 1_555 1_555
H34A C31A 1_555 1_555
C32A C31A 1_555 1_555
H35A C32A 1_555 1_555
H36A C32A 1_555 1_555
C33A N4A 1_555 1_555
H37A C33A 1_555 1_555
H38A C33A 1_555 1_555
C34A N4A 1_555 1_555
C35A C34A 1_555 1_555
H39A C35A 1_555 1_555
H40A C35A 1_555 1_555
C36A C35A 1_555 1_555
H41A C36A 1_555 1_555
H42A C36A 1_555 1_555
C37A C36A 1_555 1_555
C38A N3A 1_555 1_555
C39A C38A 1_555 1_555
H43A C39A 1_555 1_555
C40A C39A 1_555 1_555
H44A C40A 1_555 1_555
C41A C40A 1_555 1_555
C42A C41A 1_555 1_555
H45A C42A 1_555 1_555
C43A C38A 1_555 1_555
H46A C43A 1_555 1_555
C44A C41A 1_555 1_555
H47A C44A 1_555 1_555
H48A C44A 1_555 1_555
C45A C44A 1_555 1_555
C46A C45A 1_555 1_555
H49A C46A 1_555 1_555
C47A C46A 1_555 1_555
H50A C47A 1_555 1_555
C48A N4 1_555 1_555
C49A C48A 1_555 1_555
H51A C49A 1_555 1_555
C50A C45A 1_555 1_555
H52A C50A 1_555 1_555
C51A N5A 1_555 1_555
H53A C51A 1_555 1_555
C52A C51A 1_555 1_555
H54A C52A 1_555 1_555
C53A C52A 1_555 1_555
H55A C53A 1_555 1_555
C54A C53A 1_555 1_555
H56A C54A 1_555 1_555
C55A N5A 1_555 1_555
C56A N6A 1_555 1_555
C57A C56A 1_555 1_555
H57A C57A 1_555 1_555
C58A C57A 1_555 1_555
H58A C58A 1_555 1_555
C59A C58A 1_555 1_555
H59A C59A 1_555 1_555
C60A N6A 1_555 1_555
H60A C60A 1_555 1_555
C61A N7A 1_555 1_555
H61A C61A 1_555 1_555
C62A C61A 1_555 1_555
H62A C62A 1_555 1_555
C63A C62A 1_555 1_555
H63A C63A 1_555 1_555
C64A C63A 1_555 1_555
H64A C64A 1_555 1_555
C65A N7A 1_555 1_555
C66A N8A 1_555 1_555
C67A C66A 1_555 1_555
H65A C67A 1_555 1_555
C68A C67A 1_555 1_555
H66A C68A 1_555 1_555
C69A C68A 1_555 1_555
H67A C69A 1_555 1_555
C70A N8A 1_555 1_555
H68A C70A 1_555 1_555
Zn2 O7 1_555 1_555
O8 C26 1_555 1_555
C17 C18 1_555 1_555
C24 C25 1_555 1_555
C42 C43 1_555 1_555
C49 C50 1_555 1_555
C54 C55 1_555 1_555
C55 C56 1_555 1_555
C59 C60 1_555 1_555
C64 C65 1_555 1_555
C65 C66 1_555 1_555
C69 C70 1_555 1_555
Zn2A O7A 1_555 1_555
O8A C26A 1_555 1_555
C7A C8A 1_555 1_555
C17A C18A 1_555 1_555
C22A C23A 1_555 1_555
C24A C25A 1_555 1_555
C32A C33A 1_555 1_555
C42A C43A 1_555 1_555
C47A C48A 1_555 1_555
C49A C50A 1_555 1_555
C54A C55A 1_555 1_555
C55A C56A 1_555 1_555
C59A C60A 1_555 1_555
C64A C65A 1_555 1_555
C65A C66A 1_555 1_555
C69A C70A 1_555 1_555

#END
