
#######################################################################
#
#                 Cambridge Crystallographic Data Centre
#                                CCDC 
#
#######################################################################
#
# If this CIF has been generated from an entry in the Cambridge 
# Structural Database, then it will include bibliographic, chemical, 
# crystal, experimental, refinement or atomic coordinate data resulting 
# from the CCDC's data processing and validation procedures.
#
#######################################################################

data_PUXZAK
_symmetry_cell_setting           monoclinic
_symmetry_space_group_name_H-M   'P 21/n'
_symmetry_Int_Tables_number      14
_space_group_name_Hall           '-P 2yn'
loop_
_symmetry_equiv_pos_site_id
_symmetry_equiv_pos_as_xyz
1 x,y,z
2 1/2-x,1/2+y,1/2-z
3 -x,-y,-z
4 1/2+x,1/2-y,1/2+z
_cell_length_a                   7.1194(14)
_cell_length_b                   10.802(2)
_cell_length_c                   11.476(2)
_cell_angle_alpha                90
_cell_angle_beta                 98.24(3)
_cell_angle_gamma                90
_cell_volume                     873.436
loop_
_atom_site_label
_atom_site_type_symbol
_atom_site_fract_x
_atom_site_fract_y
_atom_site_fract_z
Co1 Co 0.15521(8) 0.38672(6) 0.45253(5)
O1 O 0.3398(4) 0.4190(3) 0.6130(3)
N1 N 0.2398(5) 0.1849(3) 0.5035(3)
Cl1 Cl 0.11898(17) 0.61754(10) 0.44567(10)
C1 C 0.3410(6) 0.1989(4) 0.6110(4)
O2 O 0.3852(5) 0.4130(4) 0.3621(4)
H1 H 0.462(10) 0.484(7) 0.378(7)
N2 N 0.4831(5) 0.2951(4) 0.7701(3)
C2 C 0.4142(6) 0.1111(4) 0.6936(4)
C3 C 0.3808(7) -0.0134(4) 0.6624(4)
H2 H 0.4236 -0.0781 0.7128
N3 N 0.5013(5) 0.1726(4) 0.7901(3)
C4 C 0.2804(7) -0.0332(5) 0.5526(4)
H3 H 0.2555 -0.1142 0.5276
N4 N 0.3883(5) 0.3099(3) 0.6623(3)
C5 C 0.2134(7) 0.0651(5) 0.4759(4)
H4 H 0.1475 0.0453 0.4023
C6 C 0.4617(8) 0.3263(5) 0.2919(6)
H5 H 0.5795 0.2957 0.3330
H6 H 0.4836 0.3647 0.2197
H7 H 0.3744 0.2587 0.2749
Co1B Co -0.15521(8) 0.61328(6) 0.54747(5)
Co1C Co 0.65521(8) 0.11328(6) 0.95253(5)
Cl1B Cl -0.11898(17) 0.38246(10) 0.55433(10)
N3C N 0.0013(5) 0.3274(4) 0.2901(3)
loop_
_geom_bond_atom_site_label_1
_geom_bond_atom_site_label_2
_geom_bond_site_symmetry_1
_geom_bond_site_symmetry_2
Co1 O1 1_555 1_555
O1 N4 1_555 1_555
N1 Co1 1_555 1_555
Cl1 Co1 1_555 1_555
C1 N1 1_555 1_555
O2 Co1 1_555 1_555
H1 O2 1_555 1_555
N2 N3 1_555 1_555
C2 C1 1_555 1_555
C3 C2 1_555 1_555
H2 C3 1_555 1_555
N3 C2 1_555 1_555
C4 C3 1_555 1_555
H3 C4 1_555 1_555
N4 C1 1_555 1_555
C5 N1 1_555 1_555
H4 C5 1_555 1_555
C6 O2 1_555 1_555
H5 C6 1_555 1_555
H6 C6 1_555 1_555
H7 C6 1_555 1_555
Co1B Cl1 1_555 1_555
Co1C N3 1_555 1_555
Cl1B Co1 1_555 1_555
N3C Co1 1_555 1_555
N2 N4 1_555 1_555
C4 C5 1_555 1_555
Co1B Cl1B 1_555 1_555

#END
