
#######################################################################
#
#                 Cambridge Crystallographic Data Centre
#                                CCDC 
#
#######################################################################
#
# If this CIF has been generated from an entry in the Cambridge 
# Structural Database, then it will include bibliographic, chemical, 
# crystal, experimental, refinement or atomic coordinate data resulting 
# from the CCDC's data processing and validation procedures.
#
#######################################################################

data_PUYFIY
_symmetry_cell_setting           monoclinic
_symmetry_space_group_name_H-M   'P 21/c'
_symmetry_Int_Tables_number      14
_space_group_name_Hall           '-P 2ybc'
loop_
_symmetry_equiv_pos_site_id
_symmetry_equiv_pos_as_xyz
1 x,y,z
2 -x,1/2+y,1/2-z
3 -x,-y,-z
4 x,1/2-y,1/2+z
_cell_length_a                   12.9104(5)
_cell_length_b                   6.3713(3)
_cell_length_c                   13.9107(8)
_cell_angle_alpha                90
_cell_angle_beta                 90.254(4)
_cell_angle_gamma                90
_cell_volume                     1144.23
loop_
_atom_site_label
_atom_site_type_symbol
_atom_site_fract_x
_atom_site_fract_y
_atom_site_fract_z
Mn1 Mn 0.31854(3) 0.08575(7) 0.71164(3)
O1 O 0.45334(16) 0.1874(4) 0.79699(14)
O2 O 0.2454(2) 0.3865(4) 0.7274(2)
O3 O 0.2067(2) -0.0051(4) 0.60712(18)
O4 O 0.76561(18) 0.3548(4) 0.50823(16)
N1 N 0.44067(18) 0.1947(4) 0.60662(16)
N2 N 0.55492(19) 0.2750(4) 0.49595(18)
C1 C 0.4569(2) 0.2177(5) 0.5133(2)
C2 C 0.6061(2) 0.2927(5) 0.58174(19)
C3 C 0.5339(2) 0.2412(5) 0.64996(19)
C4 C 0.5368(2) 0.2289(4) 0.75617(19)
C5 C 0.7155(2) 0.3731(5) 0.5836(2)
O5 O 0.62169(15) 0.2593(3) 0.80150(14)
O6 O 0.74954(16) 0.4591(4) 0.65907(15)
H1 H 0.408(2) 0.199(5) 0.464(2)
H2 H 0.581(3) 0.286(6) 0.442(3)
H3 H 0.170(2) 0.101(4) 0.574(2)
H4 H 0.210(4) -0.122(5) 0.567(3)
H5 H 0.187(2) 0.391(7) 0.767(3)
H6 H 0.277(4) 0.522(6) 0.730(5)
O5A O 0.37831(15) -0.2407(3) 0.69850(14)
O6A O 0.25046(16) -0.0409(4) 0.84093(15)
Mn1A Mn 0.68146(3) 0.58575(7) 0.78836(3)
O7 O 0.0732(2) 0.4073(5) 0.8362(2)
H7 H 0.069(5) 0.325(7) 0.892(3)
H8 H 0.061(6) 0.548(4) 0.855(4)
O8 O 0.0972(2) 0.3037(4) 0.51384(19)
H9 H 0.047(3) 0.339(8) 0.561(3)
H10 H 0.139(3) 0.426(5) 0.508(3)
O9 O 0.0405(2) -0.1657(5) 0.8340(2)
H11 H 0.014(3) -0.154(7) 0.7715(18)
H12 H 0.106(2) -0.101(9) 0.835(3)
loop_
_geom_bond_atom_site_label_1
_geom_bond_atom_site_label_2
_geom_bond_site_symmetry_1
_geom_bond_site_symmetry_2
Mn1 O1 1_555 1_555
O1 C4 1_555 1_555
O2 Mn1 1_555 1_555
O3 Mn1 1_555 1_555
O4 C5 1_555 1_555
N1 Mn1 1_555 1_555
N2 C1 1_555 1_555
C1 N1 1_555 1_555
C2 N2 1_555 1_555
C3 N1 1_555 1_555
C4 C3 1_555 1_555
C5 C2 1_555 1_555
O5 C4 1_555 1_555
O6 C5 1_555 1_555
H1 C1 1_555 1_555
H2 N2 1_555 1_555
H3 O3 1_555 1_555
H4 O3 1_555 1_555
H5 O2 1_555 1_555
H6 O2 1_555 1_555
O7 H7 1_555 1_555
H8 O7 1_555 1_555
O8 H9 1_555 1_555
H10 O8 1_555 1_555
O9 H11 1_555 1_555
H12 O9 1_555 1_555
O5A Mn1 1_555 1_555
O6A Mn1 1_555 1_555
Mn1A O5 1_555 1_555
C2 C3 1_555 1_555
O6 Mn1A 1_555 1_555

#END
