
#######################################################################
#
#                 Cambridge Crystallographic Data Centre
#                                CCDC 
#
#######################################################################
#
# If this CIF has been generated from an entry in the Cambridge 
# Structural Database, then it will include bibliographic, chemical, 
# crystal, experimental, refinement or atomic coordinate data resulting 
# from the CCDC's data processing and validation procedures.
#
#######################################################################

data_PUYVOV
_symmetry_cell_setting           triclinic
_symmetry_space_group_name_H-M   'P -1'
_symmetry_Int_Tables_number      2
_space_group_name_Hall           '-P 1'
loop_
_symmetry_equiv_pos_site_id
_symmetry_equiv_pos_as_xyz
1 x,y,z
2 -x,-y,-z
_cell_length_a                   10.5450(17)
_cell_length_b                   10.8584(18)
_cell_length_c                   11.0244(19)
_cell_angle_alpha                83.531(2)
_cell_angle_beta                 70.2400(10)
_cell_angle_gamma                66.5540(10)
_cell_volume                     1089.55
loop_
_atom_site_label
_atom_site_type_symbol
_atom_site_fract_x
_atom_site_fract_y
_atom_site_fract_z
W1 W -0.11235(5) 0.75466(5) 0.51990(5)
W2 W -0.28987(5) 1.06496(5) 0.64353(5)
W3 W -0.05270(5) 1.09160(5) 0.37521(5)
Cu1 Cu 0.23661(17) 0.53462(15) 0.33536(15)
Cu2 Cu -0.35092(17) 0.98280(15) 0.37057(15)
N1 N 0.4154(11) 0.3762(10) 0.2563(10)
N2 N 0.5606(11) 0.1474(10) 0.2781(10)
N3 N 0.4871(10) 0.3064(9) 0.4307(9)
H1 H 0.4422 0.3877 0.4607
H2 H 0.5325 0.2442 0.4741
N4 N 0.2522(11) 0.5664(10) 0.1495(11)
N5 N 0.7099(11) -0.1005(11) 0.2008(10)
O1 O -0.0845(9) 0.9444(7) 0.4853(8)
O2 O -0.2774(9) 0.8935(8) 0.6700(8)
O3 O 0.0553(10) 0.6792(8) 0.3951(9)
O4 O -0.2386(9) 0.8180(8) 0.4346(8)
O5 O -0.1428(9) 0.6168(8) 0.5989(9)
O6 O -0.2272(8) 1.1863(7) 0.5225(8)
O7 O -0.4164(9) 1.0775(8) 0.5345(8)
O8 O -0.1355(9) 1.0330(8) 0.7122(8)
O9 O -0.4285(9) 1.1626(9) 0.7687(9)
O10 O -0.1362(9) 1.1084(8) 0.2627(9)
O11 O 0.0008(8) 0.7655(8) 0.6420(8)
O12 O 0.2881(12) 0.5471(10) 0.4904(11)
H3 H 0.2078 0.5689 0.5521
H4 H 0.3113 0.6151 0.4788
C1 C 0.4864(13) 0.2794(12) 0.3263(12)
C2 C 0.5771(13) 0.1226(12) 0.1559(11)
C3 C 0.5157(14) 0.2243(13) 0.0789(13)
H7 H 0.5339 0.2077 -0.0076
C4 C 0.4293(14) 0.3473(13) 0.1335(12)
C5 C 0.3458(12) 0.4606(13) 0.0718(12)
C6 C 0.3620(16) 0.4626(14) -0.0567(13)
H8 H 0.4273 0.3882 -0.1102
C7 C 0.2779(16) 0.5793(16) -0.1060(15)
H9 H 0.2853 0.5829 -0.1927
C8 C 0.1847(16) 0.6878(16) -0.0251(16)
H10 H 0.1278 0.7664 -0.0555
C9 C 0.1775(15) 0.6775(15) 0.1017(14)
H11 H 0.1172 0.7520 0.1565
C10 C 0.6626(14) -0.0154(12) 0.1107(12)
C11 C 0.6999(16) -0.0617(15) -0.0122(13)
H12 H 0.6678 -0.0025 -0.0733
C12 C 0.7835(16) -0.1934(14) -0.0460(14)
H13 H 0.8098 -0.2251 -0.1294
C13 C 0.8274(15) -0.2774(14) 0.0471(14)
H14 H 0.8823 -0.3682 0.0273
C14 C 0.7919(15) -0.2299(13) 0.1679(13)
H15 H 0.8253 -0.2884 0.2288
W3A W 0.05270(5) 0.90840(5) 0.62479(5)
Cu1A Cu -0.23661(17) 0.46538(15) 0.66464(15)
Cu2_2 Cu 0.64908(17) -0.01720(15) 0.37057(15)
Cu2A Cu -0.64908(17) 1.01720(15) 0.62943(15)
N2_2 N -0.4394(11) 1.1474(10) 0.2781(10)
N5_2 N -0.2901(11) 0.8995(11) 0.2008(10)
O1A O 0.0845(9) 1.0556(7) 0.5147(8)
O5A O 0.1428(9) 0.3832(8) 0.4011(9)
O7A O -0.5836(9) 0.9225(8) 0.4655(8)
O8A O 0.1355(9) 0.9670(8) 0.2878(8)
O11A O -0.0008(8) 1.2345(8) 0.3580(8)
O13 O 0.9608(17) 0.4799(13) 0.2239(15)
H5 H 1.0157 0.4852 0.2628
H6 H 0.9478 0.4071 0.2456
loop_
_geom_bond_atom_site_label_1
_geom_bond_atom_site_label_2
_geom_bond_site_symmetry_1
_geom_bond_site_symmetry_2
W1 O1 1_555 1_555
W2 O1 1_555 1_555
W3 O1 1_555 1_555
Cu1 N1 1_555 1_555
Cu2 O4 1_555 1_555
N1 C1 1_555 1_555
N2 C1 1_555 1_555
N3 H1 1_555 1_555
H2 N3 1_555 1_555
N4 Cu1 1_555 1_555
N5 C10 1_555 1_555
O1 W3A 1_555 1_555
O2 W1 1_555 1_555
O3 W1 1_555 1_555
O4 W1 1_555 1_555
O5 W1 1_555 1_555
O6 W2 1_555 1_555
O7 W2 1_555 1_555
O8 W2 1_555 1_555
O9 W2 1_555 1_555
O10 W3 1_555 1_555
O11 W1 1_555 1_555
O12 Cu1 1_555 1_555
H3 O12 1_555 1_555
H4 O12 1_555 1_555
O13 H5 1_555 1_555
H6 O13 1_555 1_555
C1 N3 1_555 1_555
C2 N2 1_555 1_555
C3 C2 1_555 1_555
H7 C3 1_555 1_555
C4 N1 1_555 1_555
C5 N4 1_555 1_555
C6 C5 1_555 1_555
H8 C6 1_555 1_555
C7 C6 1_555 1_555
H9 C7 1_555 1_555
C8 C7 1_555 1_555
H10 C8 1_555 1_555
C9 N4 1_555 1_555
H11 C9 1_555 1_555
C10 C2 1_555 1_555
C11 C10 1_555 1_555
H12 C11 1_555 1_555
C12 C11 1_555 1_555
H13 C12 1_555 1_555
C13 C12 1_555 1_555
H14 C13 1_555 1_555
C14 N5 1_555 1_555
H15 C14 1_555 1_555
W3A O8 1_555 1_555
Cu1A O5 1_555 1_555
Cu2_2 N2 1_555 1_555
Cu2A O7 1_555 1_555
N2_2 Cu2 1_555 1_555
N5_2 Cu2 1_555 1_555
O1A W3 1_555 1_555
O5A Cu1 1_555 1_555
O7A Cu2 1_555 1_555
O8A W3 1_555 1_555
O11A W3 1_555 1_555
W2 O2 1_555 1_555
W3 O6 1_555 1_555
Cu1 O3 1_555 1_555
Cu2 O7 1_555 1_555
N5 Cu2_2 1_555 1_555
O11 W3A 1_555 1_555
C3 C4 1_555 1_555
C4 C5 1_555 1_555
C8 C9 1_555 1_555
C13 C14 1_555 1_555
W3A O1A 1_555 1_555
Cu2A O7A 1_555 1_555

#END
