
#######################################################################
#
#                 Cambridge Crystallographic Data Centre
#                                CCDC 
#
#######################################################################
#
# If this CIF has been generated from an entry in the Cambridge 
# Structural Database, then it will include bibliographic, chemical, 
# crystal, experimental, refinement or atomic coordinate data resulting 
# from the CCDC's data processing and validation procedures.
#
#######################################################################

data_PYCDBR02
_symmetry_cell_setting           monoclinic
_symmetry_space_group_name_H-M   'P 21/n'
_symmetry_Int_Tables_number      14
_space_group_name_Hall           '-P 2yn'
loop_
_symmetry_equiv_pos_site_id
_symmetry_equiv_pos_as_xyz
1 x,y,z
2 1/2-x,1/2+y,1/2-z
3 -x,-y,-z
4 1/2+x,1/2-y,1/2+z
_cell_length_a                   18.239(3)
_cell_length_b                   8.6180(15)
_cell_length_c                   3.9125(7)
_cell_angle_alpha                90
_cell_angle_beta                 92.220(6)
_cell_angle_gamma                90
_cell_volume                     614.52
loop_
_atom_site_label
_atom_site_type_symbol
_atom_site_fract_x
_atom_site_fract_y
_atom_site_fract_z
Cd1 Cd 0.0000 0.0000 0.0000
Br1 Br -0.07494(4) 0.16470(9) -0.4889(2)
N1 N 0.0919(4) 0.1885(8) -0.013(2)
C1 C 0.1619(5) 0.1444(10) 0.017(2)
H1 H 0.1729 0.0369 0.0331
C2 C 0.2191(5) 0.2507(11) 0.024(3)
H2 H 0.2684 0.2169 0.0609
C3 C 0.2033(6) 0.4070(11) -0.022(3)
H3 H 0.2414 0.4819 -0.0284
C4 C 0.1318(6) 0.4498(11) -0.059(3)
H4 H 0.1191 0.5562 -0.0846
C5 C 0.0776(5) 0.3378(10) -0.060(3)
H5 H 0.0280 0.3692 -0.0962
Cd1_2 Cd 0.0000 0.0000 -1.0000
Br1B Br 0.07494(4) -0.16470(9) -0.5111(2)
Br1_2 Br -0.07494(4) 0.16470(9) 0.5111(2)
Br1B_2 Br 0.07494(4) -0.16470(9) 0.4889(2)
N1B N -0.0919(4) -0.1885(8) 0.013(2)
C1B C -0.1619(5) -0.1444(10) -0.017(2)
H1B H -0.1729 -0.0369 -0.0331
C2B C -0.2191(5) -0.2507(11) -0.024(3)
H2B H -0.2684 -0.2169 -0.0609
C3B C -0.2033(6) -0.4070(11) 0.022(3)
H3B H -0.2414 -0.4819 0.0284
C4B C -0.1318(6) -0.4498(11) 0.059(3)
H4B H -0.1191 -0.5562 0.0846
C5B C -0.0776(5) -0.3378(10) 0.060(3)
H5B H -0.0280 -0.3692 0.0962
loop_
_geom_bond_atom_site_label_1
_geom_bond_atom_site_label_2
_geom_bond_site_symmetry_1
_geom_bond_site_symmetry_2
Cd1 Br1 1_555 1_555
Br1 Cd1_2 1_555 1_555
N1 Cd1 1_555 1_555
C1 N1 1_555 1_555
H1 C1 1_555 1_555
C2 C1 1_555 1_555
H2 C2 1_555 1_555
C3 C2 1_555 1_555
H3 C3 1_555 1_555
C4 C3 1_555 1_555
H4 C4 1_555 1_555
C5 N1 1_555 1_555
H5 C5 1_555 1_555
Cd1_2 Br1B 1_555 1_555
Br1B Cd1 1_555 1_555
Br1_2 Cd1 1_555 1_555
Br1B_2 Cd1 1_555 1_555
N1B Cd1 1_555 1_555
C1B N1B 1_555 1_555
H1B C1B 1_555 1_555
C2B C1B 1_555 1_555
H2B C2B 1_555 1_555
C3B C2B 1_555 1_555
H3B C3B 1_555 1_555
C4B C3B 1_555 1_555
H4B C4B 1_555 1_555
C5B N1B 1_555 1_555
H5B C5B 1_555 1_555
C4 C5 1_555 1_555
C4B C5B 1_555 1_555

#END
