
#######################################################################
#
#                 Cambridge Crystallographic Data Centre
#                                CCDC 
#
#######################################################################
#
# If this CIF has been generated from an entry in the Cambridge 
# Structural Database, then it will include bibliographic, chemical, 
# crystal, experimental, refinement or atomic coordinate data resulting 
# from the CCDC's data processing and validation procedures.
#
#######################################################################

data_PYRCOC02
_symmetry_cell_setting           monoclinic
_symmetry_space_group_name_H-M   'P 21/n'
_symmetry_Int_Tables_number      14
_space_group_name_Hall           '-P 2yn'
loop_
_symmetry_equiv_pos_site_id
_symmetry_equiv_pos_as_xyz
1 x,y,z
2 1/2-x,1/2+y,1/2-z
3 -x,-y,-z
4 1/2+x,1/2-y,1/2+z
_cell_length_a                   17.437(13)
_cell_length_b                   8.408(2)
_cell_length_c                   3.593(7)
_cell_angle_alpha                90
_cell_angle_beta                 90.05(5)
_cell_angle_gamma                90
_cell_volume                     526.771
loop_
_atom_site_label
_atom_site_type_symbol
_atom_site_fract_x
_atom_site_fract_y
_atom_site_fract_z
Cl1 Cl 0.07178 0.13623 0.48657
Co1 Co 0.00000 0.00000 0.00000
C1 C -0.06510 0.33500 -0.08680
C2 C -0.11930 0.45350 -0.12770
C3 C -0.19480 0.41630 -0.06200
C4 C -0.21550 0.26460 0.01500
C5 C -0.15950 0.15250 0.03500
H1 H -0.00500 0.35900 -0.13900
H2 H -0.10400 0.57700 -0.17200
H3 H -0.23700 0.51200 -0.07300
H4 H -0.27300 0.23900 0.05700
H5 H -0.17300 0.03000 0.08600
N1 N -0.08550 0.18500 -0.02080
Co1_2 Co 0.00000 0.00000 1.00000
Cl1_2 Cl 0.07178 0.13623 -0.51343
Cl1B Cl -0.07178 -0.13623 -0.48657
Cl1B_2 Cl -0.07178 -0.13623 0.51343
N1B N 0.08550 -0.18500 0.02080
C1B C 0.06510 -0.33500 0.08680
C5B C 0.15950 -0.15250 -0.03500
C2B C 0.11930 -0.45350 0.12770
H1B H 0.00500 -0.35900 0.13900
C4B C 0.21550 -0.26460 -0.01500
H5B H 0.17300 -0.03000 -0.08600
C3B C 0.19480 -0.41630 0.06200
H2B H 0.10400 -0.57700 0.17200
H4B H 0.27300 -0.23900 -0.05700
H3B H 0.23700 -0.51200 0.07300
loop_
_geom_bond_atom_site_label_1
_geom_bond_atom_site_label_2
_geom_bond_site_symmetry_1
_geom_bond_site_symmetry_2
Cl1 Co1 1_555 1_555
Co1 N1 1_555 1_555
C1 C2 1_555 1_555
C2 C3 1_555 1_555
C3 C4 1_555 1_555
C4 C5 1_555 1_555
C5 H5 1_555 1_555
H1 C1 1_555 1_555
H2 C2 1_555 1_555
H3 C3 1_555 1_555
H4 C4 1_555 1_555
N1 C1 1_555 1_555
Co1_2 Cl1 1_555 1_555
Cl1_2 Co1 1_555 1_555
Cl1B Co1 1_555 1_555
Cl1B_2 Co1 1_555 1_555
N1B Co1 1_555 1_555
C1B N1B 1_555 1_555
C5B N1B 1_555 1_555
C2B C1B 1_555 1_555
H1B C1B 1_555 1_555
C4B C5B 1_555 1_555
H5B C5B 1_555 1_555
C3B C2B 1_555 1_555
H2B C2B 1_555 1_555
H4B C4B 1_555 1_555
H3B C3B 1_555 1_555
C5 N1 1_555 1_555
Co1_2 Cl1B_2 1_555 1_555
C4B C3B 1_555 1_555

#END
