
#######################################################################
#
#                 Cambridge Crystallographic Data Centre
#                                CCDC 
#
#######################################################################
#
# If this CIF has been generated from an entry in the Cambridge 
# Structural Database, then it will include bibliographic, chemical, 
# crystal, experimental, refinement or atomic coordinate data resulting 
# from the CCDC's data processing and validation procedures.
#
#######################################################################

data_PYXCDC
_symmetry_cell_setting           monoclinic
_symmetry_space_group_name_H-M   'P 21/c'
_symmetry_Int_Tables_number      14
_space_group_name_Hall           '-P 2ybc'
loop_
_symmetry_equiv_pos_site_id
_symmetry_equiv_pos_as_xyz
1 x,y,z
2 -x,1/2+y,1/2-z
3 -x,-y,-z
4 x,1/2-y,1/2+z
_cell_length_a                   9.279(2)
_cell_length_b                   7.289(3)
_cell_length_c                   17.845(6)
_cell_angle_alpha                90
_cell_angle_beta                 114.36(2)
_cell_angle_gamma                90
_cell_volume                     1099.49
loop_
_atom_site_label
_atom_site_type_symbol
_atom_site_fract_x
_atom_site_fract_y
_atom_site_fract_z
Cd1 Cd 0.02176 0.39267 0.26937
Cl1 Cl 0.08330 0.32750 0.41870
Cl2 Cl 0.21790 0.12640 0.26760
O1 O -0.15920 0.16600 0.20000
N1 N -0.54140 0.21700 0.03710
C1 C -0.42800 0.18600 0.11560
C2 C -0.48000 0.13600 0.18030
C3 C -0.26500 0.20600 0.12620
C4 C -0.50900 0.27000 -0.02420
H1 H -0.65700 0.20200 0.02700
H2 H -0.58000 0.12500 0.17000
H3 H -0.41500 0.02500 0.20000
H4 H -0.42000 0.23500 0.22000
H5 H -0.03700 0.17700 0.10900
H6 H 0.00700 0.27600 0.04400
H7 H -0.21000 0.52500 -0.12000
H8 H -0.27500 0.25800 -0.12100
H9 H -0.43600 0.32200 -0.12300
H10 H -0.59000 0.29600 -0.07600
O2 O 0.01050 0.44000 0.13650
O3 O -0.26070 0.52000 -0.08210
C5 C -0.22800 0.26400 0.06180
C6 C -0.05500 0.29200 0.07590
C7 C -0.34800 0.29200 -0.01730
C8 C -0.32200 0.34200 -0.09110
Cl2A Cl -0.21790 0.62640 0.23240
O1A O 0.15920 0.66600 0.30000
Cd1A Cd -0.02176 -0.10733 0.23063
loop_
_geom_bond_atom_site_label_1
_geom_bond_atom_site_label_2
_geom_bond_site_symmetry_1
_geom_bond_site_symmetry_2
Cd1 Cl1 1_555 1_555
Cl2 Cd1 1_555 1_555
O1 Cd1 1_555 1_555
N1 C1 1_555 1_555
C1 C2 1_555 1_555
C2 H2 1_555 1_555
C3 O1 1_555 1_555
C4 N1 1_555 1_555
H1 N1 1_555 1_555
H3 C2 1_555 1_555
H4 C2 1_555 1_555
H5 C6 1_555 1_555
H6 C6 1_555 1_555
H7 O3 1_555 1_555
H8 C8 1_555 1_555
H9 C8 1_555 1_555
H10 C4 1_555 1_555
O2 Cd1 1_555 1_555
O3 C8 1_555 1_555
C5 C3 1_555 1_555
C6 O2 1_555 1_555
C7 C4 1_555 1_555
C8 C7 1_555 1_555
Cl2A Cd1 1_555 1_555
O1A Cd1 1_555 1_555
Cd1A Cl2 1_555 1_555
O1 Cd1A 1_555 1_555
C1 C3 1_555 1_555
C5 C6 1_555 1_555
C5 C7 1_555 1_555

#END
