
#######################################################################
#
#                 Cambridge Crystallographic Data Centre
#                                CCDC 
#
#######################################################################
#
# If this CIF has been generated from an entry in the Cambridge 
# Structural Database, then it will include bibliographic, chemical, 
# crystal, experimental, refinement or atomic coordinate data resulting 
# from the CCDC's data processing and validation procedures.
#
#######################################################################

data_QABDED
_symmetry_cell_setting           triclinic
_symmetry_space_group_name_H-M   'P -1'
_symmetry_Int_Tables_number      2
_space_group_name_Hall           '-P 1'
loop_
_symmetry_equiv_pos_site_id
_symmetry_equiv_pos_as_xyz
1 x,y,z
2 -x,-y,-z
_cell_length_a                   7.279(2)
_cell_length_b                   10.698(2)
_cell_length_c                   10.738(2)
_cell_angle_alpha                86.82(1)
_cell_angle_beta                 89.52(2)
_cell_angle_gamma                83.50(2)
_cell_volume                     829.52
loop_
_atom_site_label
_atom_site_type_symbol
_atom_site_fract_x
_atom_site_fract_y
_atom_site_fract_z
Pb1 Pb 0.3607(1) 0.6707(1) 0.6539(1)
O1 O 0.6573(10) 0.5913(6) 0.8087(6)
O2 O 0.6839(11) 0.5536(7) 1.1663(6)
O3 O 0.9072(10) 0.0705(7) 1.1067(6)
O4 O 0.6790(14) 0.2735(7) 0.6025(6)
O5 O 0.2610(11) 0.9018(7) 0.6122(7)
O6 O 0.3790(20) 1.0694(11) 0.7183(14)
O7 O -0.0161(10) 0.6881(8) 0.6103(6)
O8 O 0.8780(12) 0.9926(8) 0.6441(8)
N1 N 0.8050(12) 0.0972(8) 1.0173(7)
N2 N 0.3662(15) 0.9324(9) 0.6974(9)
C1 C 0.7051(13) 0.4793(9) 0.8561(8)
C2 C 0.7912(12) 0.3326(9) 1.0454(8)
C3 C 0.7427(14) 0.2466(9) 0.8427(8)
Pb2 Pb 0.8172(1) 0.7866(1) 0.7862(1)
O9 O 0.8227(12) 0.6526(8) 1.0207(7)
O10 O 0.8420(9) 0.3176(6) 1.1600(5)
O11 O 0.7163(12) 0.0253(7) 0.9676(7)
O12 O 0.6494(12) 0.4731(7) 0.5949(6)
O13 O 0.4600(10) 0.8485(7) 0.7644(6)
O14 O -0.3099(10) 0.7502(7) 0.5751(6)
O15 O -0.1330(18) 0.6479(12) 0.4094(10)
N3 N 0.7498(11) 0.5606(8) 1.0616(7)
N4 N 0.6766(11) 0.3729(8) 0.6558(7)
N5 N -0.1524(14) 0.6965(10) 0.5401(9)
C4 C 0.7474(14) 0.4548(9) 0.9849(8)
C5 C 0.7785(13) 0.2299(9) 0.9682(8)
C6 C 0.7109(14) 0.3668(9) 0.7860(8)
O4A O 0.3210(14) 0.7265(7) 0.3975(6)
O10A O 0.1580(9) 0.6824(6) 0.8400(5)
O14_2 O 0.6901(10) 0.7502(7) 0.5751(6)
Pb2A Pb 1.1828(1) 0.2134(1) 1.2138(1)
Pb1A Pb 0.6393(1) 0.3293(1) 0.3461(1)
Pb2_2 Pb -0.1828(1) 0.7866(1) 0.7862(1)
O3A O 1.0928(10) 0.9295(7) 0.8933(6)
O7_2 O 0.9839(10) 0.6881(8) 0.6103(6)
O10A_2 O 1.1580(9) 0.6824(6) 0.8400(5)
Pb1A_2 Pb 0.6393(1) 0.3293(1) 1.3461(1)
Pb1_2 Pb -0.6393(1) 0.6707(1) 0.6539(1)
loop_
_geom_bond_atom_site_label_1
_geom_bond_atom_site_label_2
_geom_bond_site_symmetry_1
_geom_bond_site_symmetry_2
Pb1 O1 1_555 1_555
O1 C1 1_555 1_555
O2 N3 1_555 1_555
O3 N1 1_555 1_555
O4 N4 1_555 1_555
O5 Pb1 1_555 1_555
O6 N2 1_555 1_555
O7 Pb1 1_555 1_555
O8 Pb2 1_555 1_555
N1 O11 1_555 1_555
N2 O5 1_555 1_555
C1 C4 1_555 1_555
C2 O10 1_555 1_555
C3 C5 1_555 1_555
Pb2 O1 1_555 1_555
O9 Pb2 1_555 1_555
O10 Pb2A 1_555 1_555
O12 Pb1 1_555 1_555
O13 Pb1 1_555 1_555
O14 N5 1_555 1_555
O15 N5 1_555 1_555
N3 O9 1_555 1_555
N4 O12 1_555 1_555
N5 O7 1_555 1_555
C4 C2 1_555 1_555
C5 N1 1_555 1_555
C6 C1 1_555 1_555
O4A Pb1 1_555 1_555
O10A Pb1 1_555 1_555
O14_2 Pb1 1_555 1_555
Pb2A O3 1_555 1_555
Pb1A O4 1_555 1_555
Pb2_2 O7 1_555 1_555
O3A Pb2 1_555 1_555
O7_2 Pb2 1_555 1_555
O10A_2 Pb2 1_555 1_555
Pb1A_2 O10 1_555 1_555
Pb1_2 O14 1_555 1_555
N2 O13 1_555 1_555
C2 C5 1_555 1_555
C3 C6 1_555 1_555
Pb2 O13 1_555 1_555
Pb2 O14_2 1_555 1_555
O14 Pb2_2 1_555 1_555
N3 C4 1_555 1_555
N4 C6 1_555 1_555
O10A Pb2_2 1_555 1_555

#END
