
#######################################################################
#
#                 Cambridge Crystallographic Data Centre
#                                CCDC 
#
#######################################################################
#
# If this CIF has been generated from an entry in the Cambridge 
# Structural Database, then it will include bibliographic, chemical, 
# crystal, experimental, refinement or atomic coordinate data resulting 
# from the CCDC's data processing and validation procedures.
#
#######################################################################

data_QABVEU01
_symmetry_cell_setting           orthorhombic
_symmetry_space_group_name_H-M   'P b c a'
_symmetry_Int_Tables_number      61
_space_group_name_Hall           '-P 2ac 2ab'
loop_
_symmetry_equiv_pos_site_id
_symmetry_equiv_pos_as_xyz
1 x,y,z
2 1/2-x,-y,1/2+z
3 1/2+x,1/2-y,-z
4 -x,1/2+y,1/2-z
5 -x,-y,-z
6 1/2+x,y,1/2-z
7 1/2-x,1/2+y,z
8 x,1/2-y,1/2+z
_cell_length_a                   6.4156(1)
_cell_length_b                   15.1494(3)
_cell_length_c                   16.2879(3)
_cell_angle_alpha                90
_cell_angle_beta                 90
_cell_angle_gamma                90
_cell_volume                     1583.06
loop_
_atom_site_label
_atom_site_type_symbol
_atom_site_fract_x
_atom_site_fract_y
_atom_site_fract_z
Ca1 Ca -0.12730(6) 0.08772(2) 0.58299(2)
O1 O -0.2035(2) 0.18775(9) 0.70413(9)
O2 O -0.2254(2) 0.24321(9) 0.53682(8)
O3 O -0.3910(2) 0.43028(9) 0.53627(8)
O4 O -0.4439(2) 0.48487(8) 0.69987(8)
O5 O -0.3367(2) 0.33238(9) 0.81118(9)
O6 O -0.3646(2) 0.08355(10) 0.46870(10)
H1 H -0.409(5) 0.0305(10) 0.4419(14)
H2 H -0.355(4) 0.1259(12) 0.4253(12)
O7 O -0.4716(2) 0.04547(10) 0.63796(9)
H3 H -0.488(4) 0.0242(15) 0.6921(8)
H4 H -0.575(3) 0.0898(14) 0.6303(15)
O8 O 0.2052(2) 0.16361(9) 0.61086(9)
H5 H 0.249(4) 0.1917(15) 0.5617(9)
H6 H 0.207(4) 0.2065(13) 0.6528(10)
C1 C -0.2661(3) 0.26131(11) 0.68177(11)
C2 C -0.2791(3) 0.29031(12) 0.59637(11)
C3 C -0.3850(3) 0.40871(11) 0.68110(12)
C4 C -0.3565(3) 0.38030(12) 0.59652(11)
C5 C -0.3320(3) 0.33464(11) 0.73525(11)
Ca1F Ca -0.37270(6) 0.58772(2) 0.58299(2)
Ca1B Ca -0.62730(6) 0.41228(2) 0.41701(2)
O3F O -0.1090(2) -0.06972(9) 0.53627(8)
O3B O 0.1090(2) 0.06972(9) 0.46373(8)
O4F O -0.0561(2) -0.01513(8) 0.69987(8)
loop_
_geom_bond_atom_site_label_1
_geom_bond_atom_site_label_2
_geom_bond_site_symmetry_1
_geom_bond_site_symmetry_2
Ca1 O1 1_555 1_555
O1 C1 1_555 1_555
O2 Ca1 1_555 1_555
O3 C4 1_555 1_555
O4 C3 1_555 1_555
O5 C5 1_555 1_555
O6 Ca1 1_555 1_555
H1 O6 1_555 1_555
H2 O6 1_555 1_555
O7 Ca1 1_555 1_555
H3 O7 1_555 1_555
H4 O7 1_555 1_555
O8 Ca1 1_555 1_555
H5 O8 1_555 1_555
H6 O8 1_555 1_555
C1 C2 1_555 1_555
C2 O2 1_555 1_555
C3 C4 1_555 1_555
C4 C2 1_555 1_555
C5 C1 1_555 1_555
Ca1F O3 1_555 1_555
Ca1B O3 1_555 1_555
O3F Ca1 1_555 1_555
O3B Ca1 1_555 1_555
O4F Ca1 1_555 1_555
O4 Ca1F 1_555 1_555
C3 C5 1_555 1_555

#END
