
#######################################################################
#
#                 Cambridge Crystallographic Data Centre
#                                CCDC 
#
#######################################################################
#
# If this CIF has been generated from an entry in the Cambridge 
# Structural Database, then it will include bibliographic, chemical, 
# crystal, experimental, refinement or atomic coordinate data resulting 
# from the CCDC's data processing and validation procedures.
#
#######################################################################

data_QABVEU
_symmetry_cell_setting           triclinic
_symmetry_space_group_name_H-M   'P -1'
_symmetry_Int_Tables_number      2
_space_group_name_Hall           '-P 1'
loop_
_symmetry_equiv_pos_site_id
_symmetry_equiv_pos_as_xyz
1 x,y,z
2 -x,-y,-z
_cell_length_a                   6.642(3)
_cell_length_b                   7.793(4)
_cell_length_c                   8.854(5)
_cell_angle_alpha                106.97(5)
_cell_angle_beta                 92.43(4)
_cell_angle_gamma                106.98(4)
_cell_volume                     415.128
loop_
_atom_site_label
_atom_site_type_symbol
_atom_site_fract_x
_atom_site_fract_y
_atom_site_fract_z
Ca1 Ca 0.2562(1) 0.1321(1) 0.2880(1)
O1 O 0.2570(3) 0.2067(2) 0.5627(2)
O2 O 0.6352(2) 0.2670(2) 0.3200(2)
O3 O -0.1218(3) 0.0206(2) 0.2381(2)
O4 O 0.2454(2) 0.4633(2) 0.3736(2)
O5 O 0.2533(3) 0.8541(2) 0.3732(2)
O6 O 0.2659(3) 0.8623(2) 0.0575(2)
O7 O 0.2532(2) 0.4840(2) -0.1548(2)
O8 O 0.2540(2) 0.2485(2) 0.0585(2)
C1 C 0.2510(3) 0.5277(2) 0.2590(2)
C2 C 0.2555(3) 0.7165(2) 0.2602(2)
C3 C 0.2617(3) 0.7211(2) 0.0959(2)
C4 C 0.2565(3) 0.5326(2) -0.0074(2)
C5 C 0.2536(3) 0.4172(2) 0.0960(2)
H1 H 0.2460(5) 0.1310(5) 0.6010(4)
H2 H 0.2730(5) 0.3060(5) 0.6400(4)
H3 H 0.6670(5) 0.3360(5) 0.2580(4)
H4 H 0.6720(5) 0.3310(5) 0.4020(4)
H5 H -0.2030(5) 0.0870(5) 0.2560(4)
H6 H -0.1660(5) -0.0440(5) 0.1510(4)
Ca1_2 Ca 0.2562(1) 1.1321(1) 0.2880(1)
O5_2 O 0.2533(3) -0.1459(2) 0.3732(2)
O6_2 O 0.2659(3) -0.1377(2) 0.0575(2)
loop_
_geom_bond_atom_site_label_1
_geom_bond_atom_site_label_2
_geom_bond_site_symmetry_1
_geom_bond_site_symmetry_2
Ca1 O1 1_555 1_555
O1 H1 1_555 1_555
O2 Ca1 1_555 1_555
O3 Ca1 1_555 1_555
O4 Ca1 1_555 1_555
O5 C2 1_555 1_555
O6 C3 1_555 1_555
O7 C4 1_555 1_555
O8 Ca1 1_555 1_555
C1 O4 1_555 1_555
C2 C1 1_555 1_555
C3 C2 1_555 1_555
C4 C3 1_555 1_555
C5 O8 1_555 1_555
H2 O1 1_555 1_555
H3 O2 1_555 1_555
H4 O2 1_555 1_555
H5 O3 1_555 1_555
H6 O3 1_555 1_555
Ca1_2 O5 1_555 1_555
O5_2 Ca1 1_555 1_555
O6_2 Ca1 1_555 1_555
O6 Ca1_2 1_555 1_555
C1 C5 1_555 1_555
C4 C5 1_555 1_555

#END
