
#######################################################################
#
#                 Cambridge Crystallographic Data Centre
#                                CCDC 
#
#######################################################################
#
# If this CIF has been generated from an entry in the Cambridge 
# Structural Database, then it will include bibliographic, chemical, 
# crystal, experimental, refinement or atomic coordinate data resulting 
# from the CCDC's data processing and validation procedures.
#
#######################################################################

data_QACSEU
_symmetry_cell_setting           triclinic
_symmetry_space_group_name_H-M   'P -1'
_symmetry_Int_Tables_number      2
_space_group_name_Hall           '-P 1'
loop_
_symmetry_equiv_pos_site_id
_symmetry_equiv_pos_as_xyz
1 x,y,z
2 -x,-y,-z
_cell_length_a                   8.3570(17)
_cell_length_b                   9.801(2)
_cell_length_c                   11.071(2)
_cell_angle_alpha                95.85(3)
_cell_angle_beta                 90.50(3)
_cell_angle_gamma                95.64(3)
_cell_volume                     897.542
loop_
_atom_site_label
_atom_site_type_symbol
_atom_site_fract_x
_atom_site_fract_y
_atom_site_fract_z
Cd1 Cd -0.374177(17) 0.925347(14) 0.870953(13)
N1 N -0.5107(2) 0.88971(18) 0.69213(15)
N2 N -0.6788(2) 0.9046(2) 0.53934(17)
H1 H -0.7549 0.9330 0.4987
N3 N -0.8828(2) 1.03235(18) 0.72879(16)
N4 N -0.9733(2) 1.0614(2) 0.63594(17)
N5 N -1.1202(2) 1.0252(2) 0.66127(18)
N6 N -1.1279(2) 0.9720(2) 0.77025(17)
O1 O -0.1731(3) 0.82143(18) 1.01179(17)
O2 O -0.3567(2) 0.69995(18) 0.89217(18)
O3 O -0.3734(2) 0.18161(18) 0.86598(15)
O4 O -0.34647(19) 0.09356(15) 1.03847(14)
O5 O -0.0641(2) 0.37995(19) 1.38395(16)
O6 O 0.0150(2) 0.60141(19) 1.36855(16)
H2 H 0.0380 0.6002 1.4406
C1 C -0.4772(2) 0.7945(2) 0.59519(19)
C2 C -0.3611(3) 0.7011(3) 0.5839(2)
H3 H -0.2881 0.6947 0.6465
C3 C -0.3600(3) 0.6187(3) 0.4755(3)
H4 H -0.2843 0.5553 0.4653
C4 C -0.4681(3) 0.6269(3) 0.3805(2)
H5 H -0.4624 0.5690 0.3090
C5 C -0.5829(3) 0.7186(3) 0.3901(2)
H6 H -0.6555 0.7242 0.3271
C6 C -0.5842(3) 0.8024(2) 0.49908(19)
C7 C -0.6311(2) 0.9519(2) 0.65370(19)
C8 C -0.7082(2) 1.0633(2) 0.7275(2)
H7 H -0.6657 1.0730 0.8101
H8 H -0.6822 1.1502 0.6939
C9 C -0.9791(2) 0.9777(2) 0.81015(19)
H9 H -0.9463 0.9484 0.8829
C10 C -0.2494(3) 0.7103(2) 0.9741(2)
C11 C -0.2199(3) 0.5813(2) 1.03155(19)
C12 C -0.2841(2) 0.4531(2) 0.97784(18)
H10 H -0.3371 0.4463 0.9029
C13 C -0.2698(2) 0.3346(2) 1.03520(18)
C14 C -0.3353(2) 0.1962(2) 0.97476(19)
C15 C -0.1945(2) 0.3458(2) 1.14819(19)
H11 H -0.1898 0.2676 1.1887
C16 C -0.1258(3) 0.4732(2) 1.20188(18)
C17 C -0.0530(3) 0.4819(2) 1.3256(2)
C18 C -0.1368(3) 0.5907(2) 1.14187(19)
H12 H -0.0883 0.6756 1.1759
Cd1_2 Cd -1.374177(17) 0.925347(14) 0.870953(13)
Cd1_3 Cd -0.374177(17) -0.074653(14) 0.870953(13)
Cd1A Cd -0.625823(17) 0.074653(14) 1.129047(13)
N6_2 N -0.1279(2) 0.9720(2) 0.77025(17)
O3_2 O -0.3734(2) 1.18161(18) 0.86598(15)
O4_2 O -0.34647(19) 1.09356(15) 1.03847(14)
O4A O -0.65353(19) 0.90644(15) 0.96153(14)
loop_
_geom_bond_atom_site_label_1
_geom_bond_atom_site_label_2
_geom_bond_site_symmetry_1
_geom_bond_site_symmetry_2
Cd1 N1 1_555 1_555
N1 C1 1_555 1_555
N2 H1 1_555 1_555
N3 N4 1_555 1_555
N4 N5 1_555 1_555
N5 N6 1_555 1_555
N6 C9 1_555 1_555
O1 Cd1 1_555 1_555
O2 Cd1 1_555 1_555
O3 C14 1_555 1_555
O4 C14 1_555 1_555
O5 C17 1_555 1_555
O6 H2 1_555 1_555
C1 C2 1_555 1_555
C2 H3 1_555 1_555
C3 C2 1_555 1_555
H4 C3 1_555 1_555
C4 C3 1_555 1_555
H5 C4 1_555 1_555
C5 C4 1_555 1_555
H6 C5 1_555 1_555
C6 N2 1_555 1_555
C7 N1 1_555 1_555
C8 N3 1_555 1_555
H7 C8 1_555 1_555
H8 C8 1_555 1_555
C9 N3 1_555 1_555
H9 C9 1_555 1_555
C10 O1 1_555 1_555
C11 C10 1_555 1_555
C12 C11 1_555 1_555
H10 C12 1_555 1_555
C13 C12 1_555 1_555
C14 C13 1_555 1_555
C15 C13 1_555 1_555
H11 C15 1_555 1_555
C16 C15 1_555 1_555
C17 O6 1_555 1_555
C18 C11 1_555 1_555
H12 C18 1_555 1_555
Cd1_2 N6 1_555 1_555
Cd1_3 O3 1_555 1_555
Cd1A O4 1_555 1_555
N6_2 Cd1 1_555 1_555
O3_2 Cd1 1_555 1_555
O4_2 Cd1 1_555 1_555
O4A Cd1 1_555 1_555
N2 C7 1_555 1_555
O2 C10 1_555 1_555
O4 Cd1_3 1_555 1_555
C1 C6 1_555 1_555
C5 C6 1_555 1_555
C7 C8 1_555 1_555
C16 C17 1_555 1_555
C16 C18 1_555 1_555

#END
