
#######################################################################
#
#                 Cambridge Crystallographic Data Centre
#                                CCDC 
#
#######################################################################
#
# If this CIF has been generated from an entry in the Cambridge 
# Structural Database, then it will include bibliographic, chemical, 
# crystal, experimental, refinement or atomic coordinate data resulting 
# from the CCDC's data processing and validation procedures.
#
#######################################################################

data_QACTUJ
_symmetry_cell_setting           triclinic
_symmetry_space_group_name_H-M   'P -1'
_symmetry_Int_Tables_number      2
_space_group_name_Hall           '-P 1'
loop_
_symmetry_equiv_pos_site_id
_symmetry_equiv_pos_as_xyz
1 x,y,z
2 -x,-y,-z
_cell_length_a                   6.1420(2)
_cell_length_b                   10.0694(1)
_cell_length_c                   10.0956(3)
_cell_angle_alpha                102.247(2)
_cell_angle_beta                 91.118(1)
_cell_angle_gamma                101.518(2)
_cell_volume                     596.629
loop_
_atom_site_label
_atom_site_type_symbol
_atom_site_fract_x
_atom_site_fract_y
_atom_site_fract_z
Tb1 Tb -0.50260(8) -0.48328(4) -0.24484(5)
O1 O 0.1161(11) 0.3880(6) 0.2891(7)
O2 O -0.1690(11) 0.3949(6) 0.1514(6)
O3 O 0.2866(11) -0.6624(6) -0.1650(7)
O4 O -0.3808(11) -0.3266(6) -0.0455(6)
O5 O -0.4846(11) -0.6993(6) -0.6498(6)
O6 O -0.3925(11) -0.6194(6) -0.4289(7)
O7 O -0.2351(11) -0.5943(6) -0.1333(7)
O8 O -0.8366(12) -0.5886(6) -0.4108(7)
C1 C -0.1095(16) 0.1738(9) 0.1735(10)
C2 C -0.2173(16) 0.1031(9) 0.0483(10)
C3 C -0.2683(15) -0.0403(9) 0.0172(9)
C4 C -0.2279(16) -0.1174(9) 0.1095(10)
C5 C -0.1225(16) -0.0465(9) 0.2358(9)
C6 C -0.0580(16) 0.0974(9) 0.2646(10)
C7 C -0.0501(15) 0.3269(9) 0.2077(9)
C8 C 0.3022(16) -0.7297(9) -0.0742(9)
C9 C -0.4749(16) -0.8648(9) -0.5160(10)
C10 C -0.5729(17) -0.9746(10) -0.6219(10)
C11 C -0.5990(17) -1.1109(9) -0.6051(10)
C12 C -0.4491(16) -0.7193(9) -0.5353(10)
H1 H -0.2554 0.1533 -0.0154
H2 H -0.3334 -0.0876 -0.0706
H3 H -0.0951 -0.0967 0.3020
H4 H 0.0230 0.1443 0.3482
H5 H -0.3789 -1.0371 -0.2902
H6 H -0.3444 -0.8245 -0.3110
Tb1_2 Tb 0.49740(8) -0.48328(4) -0.24484(5)
O3_2 O -0.7134(11) -0.6624(6) -0.1650(7)
O4A O 0.3808(11) -0.6734(6) 0.0455(6)
Tb1A Tb 0.50260(8) -0.51672(4) 0.24484(5)
Tb1A_2 Tb -0.49740(8) -0.51672(4) 0.24484(5)
O3A O -0.2866(11) -0.3376(6) 0.1650(7)
C8A C -0.3022(16) -0.2703(9) 0.0742(9)
Tb1A_3 Tb -0.49740(8) -0.51672(4) -0.75516(5)
O5A O -0.5154(11) -0.3007(6) -0.3502(6)
C9A C -0.5251(16) -1.1352(9) -0.4840(10)
C10A C -0.4271(17) -1.0254(10) -0.3781(10)
C11A C -0.4010(17) -0.8891(9) -0.3949(10)
C12A C -0.5509(16) -1.2807(9) -0.4647(10)
O5A_2 O -0.5154(11) -1.3007(6) -0.3502(6)
O6A O -0.6075(11) -1.3806(6) -0.5711(7)
H6A H -0.6556 -1.1755 -0.6890
H5A H -0.6211 -0.9629 -0.7098
O1A O -0.1161(11) -0.3880(6) -0.2891(7)
O2A O -0.8310(11) -0.3949(6) -0.1514(6)
C4A C 0.2279(16) -0.8826(9) -0.1095(10)
C3A C 0.2683(15) -0.9597(9) -0.0172(9)
C2A C 0.2173(16) -1.1031(9) -0.0483(10)
C1A C 0.1095(16) -1.1738(9) -0.1735(10)
C6A C 0.0580(16) -1.0974(9) -0.2646(10)
C5A C 0.1225(16) -0.9535(9) -0.2358(9)
H3A H 0.0951 -0.9033 -0.3020
H4A H -0.0230 -1.1443 -0.3482
C7A C 0.0501(15) -1.3269(9) -0.2077(9)
O1A_2 O -0.1161(11) -1.3880(6) -0.2891(7)
O2A_2 O 0.1690(11) -1.3949(6) -0.1514(6)
H1A H 0.2554 -1.1533 0.0154
H2A H 0.3334 -0.9124 0.0706
Tb1_3 Tb -0.50260(8) -1.48328(4) -0.24484(5)
Tb1A_4 Tb -0.49740(8) -1.51672(4) -0.75516(5)
Tb1A_5 Tb 0.50260(8) 0.48328(4) 0.24484(5)
Tb1A_6 Tb -0.49740(8) 0.48328(4) 0.24484(5)
Tb1_4 Tb 0.49740(8) -1.48328(4) -0.24484(5)
O2A_3 O -0.8310(11) -1.3949(6) -0.1514(6)
O3_3 O -0.7134(11) -1.6624(6) -0.1650(7)
O4_2 O -0.3808(11) -1.3266(6) -0.0455(6)
O6_2 O -0.3925(11) -1.6194(6) -0.4289(7)
O7_2 O -0.2351(11) -1.5943(6) -0.1333(7)
O8_2 O -0.8366(12) -1.5886(6) -0.4108(7)
loop_
_geom_bond_atom_site_label_1
_geom_bond_atom_site_label_2
_geom_bond_site_symmetry_1
_geom_bond_site_symmetry_2
Tb1 O4 1_555 1_555
O1 C7 1_555 1_555
O2 C7 1_555 1_555
O3 C8 1_555 1_555
O4 C8A 1_555 1_555
O5 C12 1_555 1_555
O6 Tb1 1_555 1_555
O7 Tb1 1_555 1_555
O8 Tb1 1_555 1_555
C1 C2 1_555 1_555
C2 C3 1_555 1_555
C3 C4 1_555 1_555
C4 C5 1_555 1_555
C5 C6 1_555 1_555
C6 C1 1_555 1_555
C7 C1 1_555 1_555
C8 O4A 1_555 1_555
C9 C10 1_555 1_555
C10 C11 1_555 1_555
C11 C9A 1_555 1_555
C12 O6 1_555 1_555
H1 C2 1_555 1_555
H2 C3 1_555 1_555
H3 C5 1_555 1_555
H4 C6 1_555 1_555
H5 C10A 1_555 1_555
H6 C11A 1_555 1_555
Tb1_2 O3 1_555 1_555
O3_2 Tb1 1_555 1_555
O4A Tb1A 1_555 1_555
Tb1A_2 O3A 1_555 1_555
O3A C8A 1_555 1_555
C8A C4 1_555 1_555
Tb1A_3 O5 1_555 1_555
O5A Tb1 1_555 1_555
C9A C10A 1_555 1_555
C10A C11A 1_555 1_555
C11A C9 1_555 1_555
C12A C9A 1_555 1_555
O5A_2 C12A 1_555 1_555
O6A C12A 1_555 1_555
H6A C11 1_555 1_555
H5A C10 1_555 1_555
O1A Tb1 1_555 1_555
O2A Tb1 1_555 1_555
C4A C8 1_555 1_555
C3A C4A 1_555 1_555
C2A C3A 1_555 1_555
C1A C2A 1_555 1_555
C6A C1A 1_555 1_555
C5A C4A 1_555 1_555
H3A C5A 1_555 1_555
H4A C6A 1_555 1_555
C7A C1A 1_555 1_555
O1A_2 C7A 1_555 1_555
O2A_2 C7A 1_555 1_555
H1A C2A 1_555 1_555
H2A C3A 1_555 1_555
Tb1_3 O5A_2 1_555 1_555
Tb1A_4 O6A 1_555 1_555
Tb1A_5 O1 1_555 1_555
Tb1A_6 O2 1_555 1_555
Tb1_4 O2A_2 1_555 1_555
O2A_3 Tb1_3 1_555 1_555
O3_3 Tb1_3 1_555 1_555
O4_2 Tb1_3 1_555 1_555
O6_2 Tb1_3 1_555 1_555
O7_2 Tb1_3 1_555 1_555
O8_2 Tb1_3 1_555 1_555
C9 C12 1_555 1_555
C6A C5A 1_555 1_555
O1A_2 Tb1_3 1_555 1_555

#END
