
#######################################################################
#
#                 Cambridge Crystallographic Data Centre
#                                CCDC 
#
#######################################################################
#
# If this CIF has been generated from an entry in the Cambridge 
# Structural Database, then it will include bibliographic, chemical, 
# crystal, experimental, refinement or atomic coordinate data resulting 
# from the CCDC's data processing and validation procedures.
#
#######################################################################

data_QACYEY
_symmetry_cell_setting           monoclinic
_symmetry_space_group_name_H-M   'P 21/n'
_symmetry_Int_Tables_number      14
_space_group_name_Hall           '-P 2yn'
loop_
_symmetry_equiv_pos_site_id
_symmetry_equiv_pos_as_xyz
1 x,y,z
2 1/2-x,1/2+y,1/2-z
3 -x,-y,-z
4 1/2+x,1/2-y,1/2+z
_cell_length_a                   10.754(1)
_cell_length_b                   19.778(2)
_cell_length_c                   13.681(1)
_cell_angle_alpha                90
_cell_angle_beta                 98.55(1)
_cell_angle_gamma                90
_cell_volume                     2877.51
loop_
_atom_site_label
_atom_site_type_symbol
_atom_site_fract_x
_atom_site_fract_y
_atom_site_fract_z
Na1 Na -0.1745(2) -0.1709(1) -0.3578(2)
Na2 Na -0.3285(2) -0.1734(1) -0.1088(2)
Cl1 Cl -0.1001(2) -0.2020(1) 0.0385(1)
Cl2 Cl 0.2776(2) -0.2844(1) -0.2543(1)
O1 O 0.1621(4) -0.2529(2) 0.0895(3)
O2 O 0.3172(4) -0.2930(3) -0.0335(3)
O3 O 0.0243(4) -0.2223(3) -0.3035(3)
O4 O -0.1418(3) -0.1976(2) -0.1820(3)
C1 C 0.0055(5) -0.2223(3) -0.0428(4)
C2 C 0.1225(5) -0.2471(3) -0.0010(4)
C3 C 0.2146(5) -0.2697(3) -0.0723(4)
C4 C 0.1748(5) -0.2606(3) -0.1724(4)
C5 C 0.0599(5) -0.2333(3) -0.2144(4)
C6 C -0.0361(5) -0.2157(3) -0.1440(4)
N1 N -0.0940(6) -0.0549(3) -0.3649(4)
C7 C 0.0259(8) -0.0408(5) -0.3636(6)
C8 C 0.0730(9) 0.0242(6) -0.3715(7)
C9 C -0.0102(9) 0.0766(5) -0.3825(6)
C10 C -0.2277(11) 0.1181(5) -0.3907(7)
C11 C -0.3499(10) 0.1056(5) -0.3890(6)
C12 C -0.5198(8) 0.0227(5) -0.3790(5)
C13 C -0.5566(8) -0.0431(5) -0.3725(5)
C14 C -0.4667(7) -0.0935(4) -0.3680(5)
N2 N -0.3466(5) -0.0822(3) -0.3680(4)
C15 C -0.1768(7) -0.0030(4) -0.3738(5)
C16 C -0.1393(8) 0.0653(4) -0.3832(5)
C17 C -0.3084(6) -0.0173(4) -0.3729(5)
C18 C -0.3942(8) 0.0380(4) -0.3797(5)
N3 N -0.5008(6) -0.0882(4) -0.1190(4)
C19 C -0.6200(8) -0.1033(5) -0.1247(6)
C20 C -0.7165(9) -0.0551(6) -0.1346(7)
C21 C -0.6862(10) 0.0118(6) -0.1393(6)
C22 C -0.5188(10) 0.0999(5) -0.1418(6)
C23 C -0.3994(11) 0.1160(5) -0.1388(6)
C24 C -0.1783(10) 0.0792(5) -0.1269(6)
C25 C -0.0927(10) 0.0293(5) -0.1161(6)
C26 C -0.1332(8) -0.0375(4) -0.1076(6)
N4 N -0.2526(6) -0.0543(3) -0.1103(4)
C27 C -0.4704(8) -0.0215(4) -0.1251(5)
C28 C -0.5621(9) 0.0304(5) -0.1353(5)
C29 C -0.3388(8) -0.0037(4) -0.1213(5)
C30 C -0.3048(9) 0.0649(4) -0.1292(5)
O5 O -0.4234(5) -0.2447(3) -0.2296(3)
O6 O -0.4245(5) -0.2448(3) -0.0001(3)
H1 H 0.0846 -0.0777 -0.3568
H2 H 0.1615 0.0319 -0.3694
H3 H 0.0197 0.1218 -0.3898
H4 H -0.2002 0.1638 -0.3972
H5 H -0.4084 0.1426 -0.3940
H6 H -0.5810 0.0583 -0.3830
H7 H -0.6432 -0.0541 -0.3712
H8 H -0.4939 -0.1395 -0.3648
H9 H -0.6427 -0.1501 -0.1218
H10 H -0.8027 -0.0688 -0.1382
H11 H -0.7509 0.0455 -0.1453
H12 H -0.5801 0.1356 -0.1486
H13 H -0.3758 0.1626 -0.1430
H14 H -0.1516 0.1251 -0.1330
H15 H -0.0050 0.0392 -0.1142
H16 H -0.0712 -0.0728 -0.0995
H17 H -0.4063(64) -0.2497(38) -0.2878(20)
H18 H -0.4928(36) -0.2659(32) -0.2412(53)
H19 H -0.4015(61) -0.2516(37) 0.0612(12)
H20 H -0.4919(37) -0.2663(33) -0.0204(51)
O1C O -0.3379(4) -0.2471(2) -0.4105(3)
Na1C Na 0.3255(2) -0.3291(1) 0.1422(2)
O2C O -0.1828(4) -0.2070(3) -0.5335(3)
loop_
_geom_bond_atom_site_label_1
_geom_bond_atom_site_label_2
_geom_bond_site_symmetry_1
_geom_bond_site_symmetry_2
Na1 O3 1_555 1_555
Na2 Cl1 1_555 1_555
Cl1 C1 1_555 1_555
Cl2 C4 1_555 1_555
O1 C2 1_555 1_555
O2 C3 1_555 1_555
O3 C5 1_555 1_555
O4 Na1 1_555 1_555
C1 C2 1_555 1_555
C2 C3 1_555 1_555
C3 C4 1_555 1_555
C4 C5 1_555 1_555
C5 C6 1_555 1_555
C6 O4 1_555 1_555
N1 Na1 1_555 1_555
C7 N1 1_555 1_555
C8 C7 1_555 1_555
C9 C8 1_555 1_555
C10 C11 1_555 1_555
C11 C18 1_555 1_555
C12 C13 1_555 1_555
C13 C14 1_555 1_555
C14 N2 1_555 1_555
N2 Na1 1_555 1_555
C15 N1 1_555 1_555
C16 C9 1_555 1_555
C17 N2 1_555 1_555
C18 C12 1_555 1_555
N3 Na2 1_555 1_555
C19 N3 1_555 1_555
C20 C19 1_555 1_555
C21 C20 1_555 1_555
C22 C23 1_555 1_555
C23 C30 1_555 1_555
C24 C25 1_555 1_555
C25 C26 1_555 1_555
C26 N4 1_555 1_555
N4 Na2 1_555 1_555
C27 N3 1_555 1_555
C28 C21 1_555 1_555
C29 N4 1_555 1_555
C30 C24 1_555 1_555
O5 Na2 1_555 1_555
O6 Na2 1_555 1_555
H1 C7 1_555 1_555
H2 C8 1_555 1_555
H3 C9 1_555 1_555
H4 C10 1_555 1_555
H5 C11 1_555 1_555
H6 C12 1_555 1_555
H7 C13 1_555 1_555
H8 C14 1_555 1_555
H9 C19 1_555 1_555
H10 C20 1_555 1_555
H11 C21 1_555 1_555
H12 C22 1_555 1_555
H13 C23 1_555 1_555
H14 C24 1_555 1_555
H15 C25 1_555 1_555
H16 C26 1_555 1_555
H17 O5 1_555 1_555
H18 O5 1_555 1_555
H19 O6 1_555 1_555
H20 O6 1_555 1_555
O1C Na1 1_555 1_555
Na1C O1 1_555 1_555
O2C Na1 1_555 1_555
Na2 O4 1_555 1_555
O2 Na1C 1_555 1_555
C1 C6 1_555 1_555
C10 C16 1_555 1_555
C15 C16 1_555 1_555
C15 C17 1_555 1_555
C17 C18 1_555 1_555
C22 C28 1_555 1_555
C27 C28 1_555 1_555
C27 C29 1_555 1_555
C29 C30 1_555 1_555

#END
