
#######################################################################
#
#                 Cambridge Crystallographic Data Centre
#                                CCDC 
#
#######################################################################
#
# If this CIF has been generated from an entry in the Cambridge 
# Structural Database, then it will include bibliographic, chemical, 
# crystal, experimental, refinement or atomic coordinate data resulting 
# from the CCDC's data processing and validation procedures.
#
#######################################################################

data_QADBAA
_symmetry_cell_setting           monoclinic
_symmetry_space_group_name_H-M   'P 21/c'
_symmetry_Int_Tables_number      14
_space_group_name_Hall           '-P 2ybc'
loop_
_symmetry_equiv_pos_site_id
_symmetry_equiv_pos_as_xyz
1 x,y,z
2 -x,1/2+y,1/2-z
3 -x,-y,-z
4 x,1/2-y,1/2+z
_cell_length_a                   9.948(2)
_cell_length_b                   15.555(3)
_cell_length_c                   8.6186(17)
_cell_angle_alpha                90
_cell_angle_beta                 92.48(3)
_cell_angle_gamma                90
_cell_volume                     1332.4
loop_
_atom_site_label
_atom_site_type_symbol
_atom_site_fract_x
_atom_site_fract_y
_atom_site_fract_z
Pr1 Pr -0.285320(11) -0.195740(6) 0.191290(12)
N1 N -0.48941(18) -0.09950(11) 0.2856(2)
C1 C -0.5395(2) -0.03195(14) 0.2075(2)
H1 H -0.5051 -0.0192 0.1116
C2 C -0.0224(2) -0.25864(14) 0.4528(2)
C3 C -0.5430(2) -0.11844(13) 0.4223(2)
C4 C 0.1525(3) -0.37361(17) 0.3973(3)
H2 H 0.2465 -0.3811 0.3750
H3 H 0.1367 -0.4023 0.4948
C5 C 0.0896(2) -0.50878(16) 0.2435(3)
O1 O -0.0165(2) -0.55131(13) 0.1933(3)
C6 C -0.6850(2) 0.09892(13) 0.1707(2)
C7 C -0.6404(2) 0.02043(13) 0.2615(2)
C8 C -0.6941(2) 0.00053(14) 0.4032(2)
H4 H -0.7611 0.0346 0.4433
C9 C -0.6459(2) -0.07121(14) 0.4839(2)
H5 H -0.6820 -0.0872 0.5773
C10 C -0.4737(2) -0.19029(13) 0.5101(2)
C11 C 0.1216(3) -0.27738(16) 0.4128(3)
H6 H 0.1817 -0.2531 0.4929
H7 H 0.1399 -0.2490 0.3158
O2 O -0.75008(15) 0.15480(9) 0.24195(17)
O3 O -0.07518(18) -0.30366(11) 0.5527(2)
O4 O -0.08261(17) -0.19656(10) 0.3838(2)
O5 O 0.19943(17) -0.54216(10) 0.2633(2)
O6 O -0.65447(18) 0.10192(10) 0.03127(17)
O7 O -0.51704(17) -0.21913(11) 0.63236(19)
O8 O -0.36408(16) -0.21674(10) 0.45470(17)
C12 C 0.0654(3) -0.41419(17) 0.2690(4)
H8 H -0.0282 -0.4061 0.2927
H9 H 0.0804 -0.3839 0.1729
Pr1B Pr -0.714680(11) 0.195740(6) -0.191290(12)
Pr1C Pr -0.285320(11) -0.304260(6) 0.691290(12)
Pr1A Pr 0.285320(11) -0.695740(6) 0.308710(12)
Pr1A_2 Pr -0.714680(11) 0.304260(6) 0.308710(12)
O2A O -0.24992(15) -0.34520(9) 0.25805(17)
O3C O -0.07518(18) -0.19634(11) 0.0527(2)
O5A O -0.19943(17) -0.04216(10) 0.2367(2)
O6B O -0.34553(18) -0.10192(10) -0.03127(17)
O7C O -0.51704(17) -0.28087(11) 0.13236(19)
O8C O -0.36408(16) -0.28326(10) -0.04530(17)
loop_
_geom_bond_atom_site_label_1
_geom_bond_atom_site_label_2
_geom_bond_site_symmetry_1
_geom_bond_site_symmetry_2
Pr1 N1 1_555 1_555
N1 C1 1_555 1_555
C1 H1 1_555 1_555
C2 C11 1_555 1_555
C3 N1 1_555 1_555
C4 H2 1_555 1_555
H3 C4 1_555 1_555
C5 O1 1_555 1_555
C6 C7 1_555 1_555
C7 C1 1_555 1_555
C8 C7 1_555 1_555
H4 C8 1_555 1_555
C9 C3 1_555 1_555
H5 C9 1_555 1_555
C10 C3 1_555 1_555
C11 C4 1_555 1_555
H6 C11 1_555 1_555
H7 C11 1_555 1_555
O2 C6 1_555 1_555
O3 C2 1_555 1_555
O4 Pr1 1_555 1_555
O5 C5 1_555 1_555
O6 C6 1_555 1_555
O7 C10 1_555 1_555
O8 Pr1 1_555 1_555
C12 C4 1_555 1_555
H8 C12 1_555 1_555
H9 C12 1_555 1_555
Pr1B O6 1_555 1_555
Pr1C O3 1_555 1_555
Pr1A O5 1_555 1_555
Pr1A_2 O2 1_555 1_555
O2A Pr1 1_555 1_555
O3C Pr1 1_555 1_555
O5A Pr1 1_555 1_555
O6B Pr1 1_555 1_555
O7C Pr1 1_555 1_555
O8C Pr1 1_555 1_555
C2 O4 1_555 1_555
C5 C12 1_555 1_555
C8 C9 1_555 1_555
C10 O8 1_555 1_555
O7 Pr1C 1_555 1_555
O8 Pr1C 1_555 1_555

#END
