
#######################################################################
#
#                 Cambridge Crystallographic Data Centre
#                                CCDC 
#
#######################################################################
#
# If this CIF has been generated from an entry in the Cambridge 
# Structural Database, then it will include bibliographic, chemical, 
# crystal, experimental, refinement or atomic coordinate data resulting 
# from the CCDC's data processing and validation procedures.
#
#######################################################################

data_QADBII
_symmetry_cell_setting           orthorhombic
_symmetry_space_group_name_H-M   'P 21 21 21'
_symmetry_Int_Tables_number      19
_space_group_name_Hall           'P 2ac 2ab'
loop_
_symmetry_equiv_pos_site_id
_symmetry_equiv_pos_as_xyz
1 x,y,z
2 1/2-x,-y,1/2+z
3 -x,1/2+y,1/2-z
4 1/2+x,1/2-y,-z
_cell_length_a                   10.0725(12)
_cell_length_b                   10.2297(13)
_cell_length_c                   23.500(2)
_cell_angle_alpha                90
_cell_angle_beta                 90
_cell_angle_gamma                90
_cell_volume                     2421.41
loop_
_atom_site_label
_atom_site_type_symbol
_atom_site_fract_x
_atom_site_fract_y
_atom_site_fract_z
Sn1 Sn 0.45274(12) 0.32193(12) 0.76461(5)
Sn2 Sn 0.32601(13) 0.69968(15) 0.52513(5)
O1 O 0.5332(15) 0.5100(13) 0.7155(5)
O2 O 0.6445(12) 0.6802(14) 0.6800(5)
O3 O 0.4911(13) 0.5950(15) 0.5693(5)
O4 O 0.6352(14) 0.6958(16) 0.5116(6)
C1 C 0.616(2) 0.555(2) 0.6802(8)
C2 C 0.677(2) 0.474(2) 0.6370(8)
H1 H 0.6128 0.4072 0.6254
C3 C 0.720(2) 0.551(2) 0.5836(8)
H2 H 0.7881 0.6132 0.5943
H3 H 0.7598 0.4899 0.5567
C4 C 0.610(2) 0.621(2) 0.5549(8)
C5 C 0.799(2) 0.4073(17) 0.6594(8)
C6 C 0.886(2) 0.479(2) 0.6924(10)
H4 H 0.8728 0.5679 0.6988
C7 C 0.992(2) 0.415(2) 0.7154(11)
H5 H 1.0486 0.4593 0.7401
C8 C 1.019(2) 0.282(2) 0.7026(11)
H6 H 1.0994 0.2441 0.7131
C9 C 0.924(2) 0.211(2) 0.6742(10)
H7 H 0.9344 0.1217 0.6689
C10 C 0.812(2) 0.2744(18) 0.6534(10)
H8 H 0.7453 0.2265 0.6353
C11 C 0.6465(19) 0.293(2) 0.7941(9)
H9 H 0.6813 0.3735 0.8085
H10 H 0.7013 0.2623 0.7634
H11 H 0.6459 0.2286 0.8240
C12 C 0.384(3) 0.241(3) 0.6852(10)
H12 H 0.4583 0.2313 0.6597
H13 H 0.3199 0.2983 0.6686
H14 H 0.3449 0.1570 0.6920
C13 C 0.328(3) 0.461(2) 0.7995(10)
H15 H 0.3083 0.4377 0.8382
H16 H 0.2476 0.4649 0.7779
H17 H 0.3714 0.5446 0.7988
C14 C 0.188(3) 0.604(3) 0.5796(10)
H18 H 0.1088 0.5829 0.5584
H19 H 0.1651 0.6605 0.6107
H20 H 0.2264 0.5249 0.5941
C15 C 0.356(3) 0.623(3) 0.4463(10)
H21 H 0.2767 0.6315 0.4242
H22 H 0.3795 0.5325 0.4497
H23 H 0.4272 0.6694 0.4279
C16 C 0.396(2) 0.893(2) 0.5497(9)
H24 H 0.4873 0.8871 0.5613
H25 H 0.3433 0.9249 0.5807
H26 H 0.3887 0.9510 0.5179
Sn1B Sn 0.54726(12) 0.82193(12) 0.73539(5)
Sn2C Sn 0.82601(13) 0.80032(15) 0.47487(5)
O2B O 0.3555(12) 0.1802(14) 0.8200(5)
O4C O 0.1352(14) 0.8042(16) 0.4884(6)
N1 N 0.065(10) 0.215(6) 0.507(4)
O5 O 0.066(7) 0.359(5) 0.463(4)
C17 C 0.157(7) 0.285(10) 0.480(5)
H27 H 0.2482 0.2808 0.4749
C18 C 0.175(12) 0.22(2) 0.550(8)
H28 H 0.1873 0.3052 0.5632
H29 H 0.2553 0.1871 0.5323
H30 H 0.1526 0.1616 0.5811
C19 C -0.060(8) 0.271(4) 0.528(6)
H31 H -0.0470 0.3029 0.5665
H32 H -0.1273 0.2051 0.5284
H33 H -0.0864 0.3421 0.5043
C20? C 0.135(11) 0.323(4) 0.537(6)
C21? C 0.15(2) 0.16(3) 0.552(11)
C22? C -0.051(7) 0.208(14) 0.492(4)
H34? H 0.2244 0.3249 0.5477
H35? H 0.2028 0.1672 0.5196
H36? H 0.1188 0.0749 0.5588
H37? H 0.1932 0.1952 0.5851
H38? H -0.1046 0.1332 0.5013
H39? H 0.0070 0.1875 0.4613
H40? H -0.1081 0.2795 0.4815
N2? N 0.028(12) 0.246(13) 0.542(3)
O6? O 0.051(9) 0.389(3) 0.511(4)
loop_
_geom_bond_atom_site_label_1
_geom_bond_atom_site_label_2
_geom_bond_site_symmetry_1
_geom_bond_site_symmetry_2
Sn1 O1 1_555 1_555
Sn2 O3 1_555 1_555
N1 C17 1_555 1_555
O1 C1 1_555 1_555
O2 C1 1_555 1_555
O3 C4 1_555 1_555
O4 C4 1_555 1_555
O5 C17 1_555 1_555
C1 C2 1_555 1_555
C2 H1 1_555 1_555
C3 C2 1_555 1_555
H2 C3 1_555 1_555
H3 C3 1_555 1_555
C4 C3 1_555 1_555
C5 C2 1_555 1_555
C6 C5 1_555 1_555
H4 C6 1_555 1_555
C7 C6 1_555 1_555
H5 C7 1_555 1_555
C8 C7 1_555 1_555
H6 C8 1_555 1_555
C9 C8 1_555 1_555
H7 C9 1_555 1_555
C10 C5 1_555 1_555
H8 C10 1_555 1_555
C11 Sn1 1_555 1_555
H9 C11 1_555 1_555
H10 C11 1_555 1_555
H11 C11 1_555 1_555
C12 Sn1 1_555 1_555
H12 C12 1_555 1_555
H13 C12 1_555 1_555
H14 C12 1_555 1_555
C13 Sn1 1_555 1_555
H15 C13 1_555 1_555
H16 C13 1_555 1_555
H17 C13 1_555 1_555
C14 Sn2 1_555 1_555
H18 C14 1_555 1_555
H19 C14 1_555 1_555
H20 C14 1_555 1_555
C15 Sn2 1_555 1_555
H21 C15 1_555 1_555
H22 C15 1_555 1_555
H23 C15 1_555 1_555
C16 Sn2 1_555 1_555
H24 C16 1_555 1_555
H25 C16 1_555 1_555
H26 C16 1_555 1_555
C17 H27 1_555 1_555
C18 N1 1_555 1_555
H28 C18 1_555 1_555
H29 C18 1_555 1_555
H30 C18 1_555 1_555
C19 N1 1_555 1_555
H31 C19 1_555 1_555
H32 C19 1_555 1_555
H33 C19 1_555 1_555
Sn1B O2 1_555 1_555
Sn2C O4 1_555 1_555
O2B Sn1 1_555 1_555
O4C Sn2 1_555 1_555
C9 C10 1_555 1_555

#END
