
#######################################################################
#
#                 Cambridge Crystallographic Data Centre
#                                CCDC 
#
#######################################################################
#
# If this CIF has been generated from an entry in the Cambridge 
# Structural Database, then it will include bibliographic, chemical, 
# crystal, experimental, refinement or atomic coordinate data resulting 
# from the CCDC's data processing and validation procedures.
#
#######################################################################

data_QADBOO
_symmetry_cell_setting           monoclinic
_symmetry_space_group_name_H-M   'P 21/n'
_symmetry_Int_Tables_number      14
_space_group_name_Hall           '-P 2yn'
loop_
_symmetry_equiv_pos_site_id
_symmetry_equiv_pos_as_xyz
1 x,y,z
2 1/2-x,1/2+y,1/2-z
3 -x,-y,-z
4 1/2+x,1/2-y,1/2+z
_cell_length_a                   9.8445(9)
_cell_length_b                   12.0583(15)
_cell_length_c                   15.4611(18)
_cell_angle_alpha                90
_cell_angle_beta                 97.3720(10)
_cell_angle_gamma                90
_cell_volume                     1820.18
loop_
_atom_site_label
_atom_site_type_symbol
_atom_site_fract_x
_atom_site_fract_y
_atom_site_fract_z
Sn1 Sn 0.69699(3) 0.18459(3) 0.112834(19)
Sn2 Sn 0.08542(3) 0.48499(2) 0.415669(17)
O1 O 0.5291(3) 0.1672(3) 0.19023(19)
O2 O 0.6486(4) 0.2892(4) 0.2726(3)
O3 O 0.2423(4) 0.3547(3) 0.3961(2)
O4 O 0.3655(4) 0.3250(4) 0.5239(2)
O5 O 0.5765(3) 0.0776(2) 0.03723(17)
C1 C 0.5483(5) 0.2310(4) 0.2578(3)
C2 C 0.4329(5) 0.2332(4) 0.3141(3)
H1 H 0.3570 0.2732 0.2805
C3 C 0.4697(5) 0.2976(5) 0.3964(3)
H2 H 0.5356 0.2550 0.4350
H3 H 0.5143 0.3659 0.3824
C4 C 0.3530(5) 0.3257(4) 0.4437(3)
C5 C 0.3772(5) 0.1195(4) 0.3338(3)
C6 C 0.2399(6) 0.0970(5) 0.3137(4)
H4 H 0.1828 0.1521 0.2874
C7 C 0.1839(9) -0.0028(7) 0.3307(5)
H5 H 0.0909 -0.0156 0.3150
C8 C 0.2656(11) -0.0834(7) 0.3707(5)
H6 H 0.2274 -0.1510 0.3836
C9 C 0.4014(10) -0.0667(6) 0.3920(4)
H7 H 0.4565 -0.1231 0.4183
C10 C 0.4596(7) 0.0366(5) 0.3744(4)
H8 H 0.5528 0.0490 0.3899
C11 C 0.8451(5) 0.1044(5) 0.2014(3)
H9 H 0.8467 0.0269 0.1876
H10 H 0.8226 0.1137 0.2596
H11 H 0.9335 0.1362 0.1974
C12 C 0.6565(7) 0.3467(5) 0.0680(4)
H12 H 0.6889 0.3559 0.0124
H13 H 0.7026 0.3984 0.1090
H14 H 0.5597 0.3601 0.0620
C13 C -0.0377(5) 0.3935(5) 0.3213(3)
H15 H -0.0726 0.3294 0.3479
H16 H 0.0156 0.3704 0.2767
H17 H -0.1127 0.4386 0.2959
C14 C 0.2415(5) 0.6036(5) 0.4321(4)
H18 H 0.2079 0.6700 0.4561
H19 H 0.2710 0.6199 0.3766
H20 H 0.3174 0.5753 0.4710
Sn1C Sn 0.19699(3) 0.31541(3) 0.612834(19)
Sn2C Sn 0.58542(3) 0.01501(2) -0.084331(17)
Sn2A Sn 0.41458(3) -0.01501(2) 0.084331(17)
O4C O 0.8655(4) 0.1750(4) 0.0239(2)
O5C O 0.0765(3) 0.4224(2) 0.53723(17)
O5A O -0.0765(3) 0.5776(2) 0.46277(17)
loop_
_geom_bond_atom_site_label_1
_geom_bond_atom_site_label_2
_geom_bond_site_symmetry_1
_geom_bond_site_symmetry_2
Sn1 O1 1_555 1_555
Sn2 O3 1_555 1_555
O1 C1 1_555 1_555
O2 C1 1_555 1_555
O3 C4 1_555 1_555
O4 C4 1_555 1_555
O5 Sn1 1_555 1_555
C1 C2 1_555 1_555
C2 H1 1_555 1_555
C3 C2 1_555 1_555
H2 C3 1_555 1_555
H3 C3 1_555 1_555
C4 C3 1_555 1_555
C5 C2 1_555 1_555
C6 C5 1_555 1_555
H4 C6 1_555 1_555
C7 C6 1_555 1_555
H5 C7 1_555 1_555
C8 C7 1_555 1_555
H6 C8 1_555 1_555
C9 C8 1_555 1_555
H7 C9 1_555 1_555
C10 C5 1_555 1_555
H8 C10 1_555 1_555
C11 Sn1 1_555 1_555
H9 C11 1_555 1_555
H10 C11 1_555 1_555
H11 C11 1_555 1_555
C12 Sn1 1_555 1_555
H12 C12 1_555 1_555
H13 C12 1_555 1_555
H14 C12 1_555 1_555
C13 Sn2 1_555 1_555
H15 C13 1_555 1_555
H16 C13 1_555 1_555
H17 C13 1_555 1_555
C14 Sn2 1_555 1_555
H18 C14 1_555 1_555
H19 C14 1_555 1_555
H20 C14 1_555 1_555
Sn1C O4 1_555 1_555
Sn2C O5 1_555 1_555
Sn2A O5 1_555 1_555
O4C Sn1 1_555 1_555
O5C Sn2 1_555 1_555
O5A Sn2 1_555 1_555
C9 C10 1_555 1_555
Sn1C O5C 1_555 1_555

#END
