
#######################################################################
#
#                 Cambridge Crystallographic Data Centre
#                                CCDC 
#
#######################################################################
#
# If this CIF has been generated from an entry in the Cambridge 
# Structural Database, then it will include bibliographic, chemical, 
# crystal, experimental, refinement or atomic coordinate data resulting 
# from the CCDC's data processing and validation procedures.
#
#######################################################################

data_QADHEK
_symmetry_cell_setting           monoclinic
_symmetry_space_group_name_H-M   'C 2/c'
_symmetry_Int_Tables_number      15
_space_group_name_Hall           '-C 2yn'
loop_
_symmetry_equiv_pos_site_id
_symmetry_equiv_pos_as_xyz
1 x,y,z
2 -x,y,1/2-z
3 1/2+x,1/2+y,z
4 1/2-x,1/2+y,1/2-z
5 -x,-y,-z
6 x,-y,1/2+z
7 1/2-x,1/2-y,-z
8 1/2+x,1/2-y,1/2+z
_cell_length_a                   22.159(9)
_cell_length_b                   10.009(4)
_cell_length_c                   9.140(5)
_cell_angle_alpha                90
_cell_angle_beta                 113.567(10)
_cell_angle_gamma                90
_cell_volume                     1858.08
loop_
_atom_site_label
_atom_site_type_symbol
_atom_site_fract_x
_atom_site_fract_y
_atom_site_fract_z
Ag1 Ag 0.0000 0.161951(14) 0.2500
Ag2 Ag 0.0000 0.0000 0.5000
C1 C 0.08715(7) 0.07804(14) 0.48258(15)
C2 C 0.12137(8) 0.18723(14) 0.56915(16)
C3 C 0.12607(8) -0.01525(14) 0.44946(17)
C4 C 0.18862(8) 0.20302(17) 0.61988(18)
C5 C 0.22445(8) 0.1059(2) 0.58410(19)
C6 C 0.19340(8) -0.00430(17) 0.49799(19)
F1 F 0.08872(5) 0.28584(9) 0.60829(12)
F2 F 0.09790(5) -0.12689(9) 0.36709(12)
F3 F 0.21949(6) 0.31183(12) 0.70214(15)
F4 F 0.22849(5) -0.09885(13) 0.46240(14)
F5 F 0.29005(5) 0.11859(16) 0.63389(16)
N1 N 0.05612(8) 0.32151(16) 0.1547(2)
C7 C 0.07657(9) 0.36860(17) 0.0720(2)
C8 C 0.10316(14) 0.4298(2) -0.0340(3)
H1 H 0.1501 0.4483 0.0254
H2 H 0.0798 0.5135 -0.0766
H3 H 0.0975 0.3687 -0.1224
Ag1D Ag 0.0000 -0.161951(14) 0.7500
Ag2A Ag 0.0000 0.0000 0.0000
C1A C -0.08715(7) 0.07804(14) 0.01742(15)
C1D C -0.08715(7) -0.07804(14) 0.51742(15)
C2A C -0.12137(8) 0.18723(14) -0.06915(16)
C3A C -0.12607(8) -0.01525(14) 0.05054(17)
C4A C -0.18862(8) 0.20302(17) -0.11988(18)
C5A C -0.22445(8) 0.1059(2) -0.08410(19)
C6A C -0.19340(8) -0.00430(17) 0.00201(19)
F1A F -0.08872(5) 0.28584(9) -0.10829(12)
F2A F -0.09790(5) -0.12689(9) 0.13291(12)
F3A F -0.21949(6) 0.31183(12) -0.20214(15)
F4A F -0.22849(5) -0.09885(13) 0.03760(14)
F5A F -0.29005(5) 0.11859(16) -0.13389(16)
N1A N -0.05612(8) 0.32151(16) 0.3453(2)
C7A C -0.07657(9) 0.36860(17) 0.4280(2)
C8A C -0.10316(14) 0.4298(2) 0.5340(3)
H1A H -0.1501 0.4483 0.4746
H2A H -0.0798 0.5135 0.5766
H3A H -0.0975 0.3687 0.6224
loop_
_geom_bond_atom_site_label_1
_geom_bond_atom_site_label_2
_geom_bond_site_symmetry_1
_geom_bond_site_symmetry_2
Ag1 Ag2 1_555 1_555
Ag2 C1 1_555 1_555
C1 Ag1 1_555 1_555
C2 C1 1_555 1_555
C3 C1 1_555 1_555
C4 C2 1_555 1_555
C5 C4 1_555 1_555
C6 C3 1_555 1_555
F1 C2 1_555 1_555
F2 C3 1_555 1_555
F3 C4 1_555 1_555
F4 C6 1_555 1_555
F5 C5 1_555 1_555
N1 Ag1 1_555 1_555
C7 N1 1_555 1_555
C8 C7 1_555 1_555
H1 C8 1_555 1_555
H2 C8 1_555 1_555
H3 C8 1_555 1_555
Ag1D Ag2 1_555 1_555
Ag2A Ag1 1_555 1_555
C1A Ag1 1_555 1_555
C1D Ag2 1_555 1_555
C2A C1A 1_555 1_555
C3A C1A 1_555 1_555
C4A C2A 1_555 1_555
C5A C4A 1_555 1_555
C6A C3A 1_555 1_555
F1A C2A 1_555 1_555
F2A C3A 1_555 1_555
F3A C4A 1_555 1_555
F4A C6A 1_555 1_555
F5A C5A 1_555 1_555
N1A Ag1 1_555 1_555
C7A N1A 1_555 1_555
C8A C7A 1_555 1_555
H1A C8A 1_555 1_555
H2A C8A 1_555 1_555
H3A C8A 1_555 1_555
C5 C6 1_555 1_555
Ag1D C1D 1_555 1_555
Ag2A C1A 1_555 1_555
C5A C6A 1_555 1_555

#END
