
#######################################################################
#
#                 Cambridge Crystallographic Data Centre
#                                CCDC 
#
#######################################################################
#
# If this CIF has been generated from an entry in the Cambridge 
# Structural Database, then it will include bibliographic, chemical, 
# crystal, experimental, refinement or atomic coordinate data resulting 
# from the CCDC's data processing and validation procedures.
#
#######################################################################

data_QADKEL05
_symmetry_cell_setting           monoclinic
_symmetry_space_group_name_H-M   'P 21/c'
_symmetry_Int_Tables_number      14
_space_group_name_Hall           '-P 2ybc'
loop_
_symmetry_equiv_pos_site_id
_symmetry_equiv_pos_as_xyz
1 x,y,z
2 -x,1/2+y,1/2-z
3 -x,-y,-z
4 x,1/2-y,1/2+z
_cell_length_a                   9.4189(4)
_cell_length_b                   9.3268(3)
_cell_length_c                   12.3715(5)
_cell_angle_alpha                90
_cell_angle_beta                 96.7690(10)
_cell_angle_gamma                90
_cell_volume                     1079.24
loop_
_atom_site_label
_atom_site_type_symbol
_atom_site_fract_x
_atom_site_fract_y
_atom_site_fract_z
Co1 Co 0.5000 0.0000 0.0000
Co2 Co 0.614770(16) 0.207170(15) -0.164500(12)
Co3 Co 0.665994(16) -0.180528(15) -0.154210(12)
O1 O 0.54993(8) 0.00403(8) -0.15934(6)
O2 O 0.62987(9) -0.25455(9) 0.17681(7)
O3 O 1.17046(9) -0.15763(10) 0.15899(8)
O4 O 0.64807(11) 0.42303(10) -0.16296(8)
O5 O 0.75477(12) 0.62804(10) -0.10784(10)
O6 O 0.54785(9) 0.27297(9) 0.16447(7)
O7 O 0.62585(9) 0.19010(9) 0.01268(7)
O8 O 0.66956(9) -0.13587(10) 0.02729(7)
O9 O 1.14481(10) 0.08175(10) 0.15369(8)
C1 C 0.73436(12) 0.49631(11) -0.09826(9)
C2 C 0.7260(2) 0.40736(19) 0.09172(12)
H1 H 0.7897 0.4018 0.1591
H2 H 0.6695 0.4939 0.0950
C3 C 0.62658(12) 0.28191(11) 0.08771(9)
C4 C 0.81685(13) 0.42376(13) -0.00115(10)
H3 H 0.9012 0.4800 0.0234
H4 H 0.8482 0.3299 -0.0225
C5 C 0.71416(11) -0.20036(11) 0.11531(9)
C6 C 0.87453(12) -0.20618(13) 0.14247(12)
H5 H 0.9159 -0.2616 0.0876
H6 H 0.8986 -0.2530 0.2123
C7 C 0.93574(13) -0.05502(14) 0.14687(13)
H7 H 0.8941 -0.0036 0.0827
H8 H 0.9057 -0.0067 0.2098
C8 C 1.09735(11) -0.04430(12) 0.15304(9)
Co2B Co 0.385230(16) -0.207170(15) 0.164500(12)
Co3B Co 0.334006(16) 0.180528(15) 0.154210(12)
O1B O 0.45007(8) -0.00403(8) 0.15934(6)
O2B O 0.37013(9) 0.25455(9) -0.17681(7)
O3B O -0.17046(9) 0.15763(10) -0.15899(8)
O4B O 0.35193(11) -0.42303(10) 0.16296(8)
O5B O 0.24523(12) -0.62804(10) 0.10784(10)
O6B O 0.45215(9) -0.27297(9) -0.16447(7)
O7B O 0.37415(9) -0.19010(9) -0.01268(7)
O8B O 0.33044(9) 0.13587(10) -0.02729(7)
O9B O -0.14481(10) -0.08175(10) -0.15369(8)
C1B C 0.26564(12) -0.49631(11) 0.09826(9)
C2B C 0.2740(2) -0.40736(19) -0.09172(12)
H1B H 0.2103 -0.4018 -0.1591
H2B H 0.3305 -0.4939 -0.0950
C3B C 0.37342(12) -0.28191(11) -0.08771(9)
C4B C 0.18315(13) -0.42376(13) 0.00115(10)
H3B H 0.0988 -0.4800 -0.0234
H4B H 0.1518 -0.3299 0.0225
C5B C 0.28584(11) 0.20036(11) -0.11531(9)
C6B C 0.12547(12) 0.20618(13) -0.14247(12)
H5B H 0.0841 0.2616 -0.0876
H6B H 0.1014 0.2530 -0.2123
C7B C 0.06426(13) 0.05502(14) -0.14687(13)
H7B H 0.1059 0.0036 -0.0827
H8B H 0.0943 0.0067 -0.2098
C8B C -0.09735(11) 0.04430(12) -0.15304(9)
Co2_2 Co -0.385230(16) 0.207170(15) -0.164500(12)
Co2A Co 0.385230(16) -0.292830(15) -0.335500(12)
Co2B_2 Co 1.385230(16) -0.207170(15) 0.164500(12)
Co2C Co 0.614770(16) 0.292830(15) 0.335500(12)
Co3_2 Co -0.334006(16) -0.180528(15) -0.154210(12)
Co3_3 Co 0.665994(16) 0.819472(15) -0.154210(12)
Co3A Co 0.334006(16) 0.319472(15) -0.345790(12)
Co3B_2 Co 0.334006(16) -0.819472(15) 0.154210(12)
Co3B_3 Co 1.334006(16) 0.180528(15) 0.154210(12)
Co3C Co 0.665994(16) -0.319472(15) 0.345790(12)
O2A O 0.37013(9) 0.24545(9) 0.32319(7)
O2C O 0.62987(9) -0.24545(9) -0.32319(7)
O3_2 O 0.17046(9) -0.15763(10) 0.15899(8)
O3B_2 O 0.82954(9) 0.15763(10) -0.15899(8)
O5_2 O 0.75477(12) -0.37196(10) -0.10784(10)
O5B_2 O 0.24523(12) 0.37196(10) 0.10784(10)
O6A O 0.45215(9) -0.22703(9) 0.33553(7)
O6C O 0.54785(9) 0.22703(9) -0.33553(7)
O9_2 O 0.14481(10) 0.08175(10) 0.15369(8)
O9B_2 O 0.85519(10) -0.08175(10) -0.15369(8)
loop_
_geom_bond_atom_site_label_1
_geom_bond_atom_site_label_2
_geom_bond_site_symmetry_1
_geom_bond_site_symmetry_2
Co1 O1 1_555 1_555
Co2 O1 1_555 1_555
Co3 O1 1_555 1_555
O2 C5 1_555 1_555
O3 C8 1_555 1_555
O4 Co2 1_555 1_555
O5 C1 1_555 1_555
O6 C3 1_555 1_555
O7 Co1 1_555 1_555
O8 Co1 1_555 1_555
O9 C8 1_555 1_555
C1 O4 1_555 1_555
C2 H1 1_555 1_555
H2 C2 1_555 1_555
C3 O7 1_555 1_555
C4 C1 1_555 1_555
H3 C4 1_555 1_555
H4 C4 1_555 1_555
C5 O8 1_555 1_555
C6 C5 1_555 1_555
H5 C6 1_555 1_555
H6 C6 1_555 1_555
C7 C6 1_555 1_555
H7 C7 1_555 1_555
H8 C7 1_555 1_555
C8 C7 1_555 1_555
Co2B O2 1_555 1_555
Co3B O6 1_555 1_555
O1B Co1 1_555 1_555
O2B Co2 1_555 1_555
O3B C8B 1_555 1_555
O4B Co2B 1_555 1_555
O5B C1B 1_555 1_555
O6B Co3 1_555 1_555
O7B Co1 1_555 1_555
O8B Co1 1_555 1_555
O9B C8B 1_555 1_555
C1B O4B 1_555 1_555
C2B H1B 1_555 1_555
H2B C2B 1_555 1_555
C3B O6B 1_555 1_555
C4B C1B 1_555 1_555
H3B C4B 1_555 1_555
H4B C4B 1_555 1_555
C5B O2B 1_555 1_555
C6B C5B 1_555 1_555
H5B C6B 1_555 1_555
H6B C6B 1_555 1_555
C7B C6B 1_555 1_555
H7B C7B 1_555 1_555
H8B C7B 1_555 1_555
C8B C7B 1_555 1_555
Co2_2 O3B 1_555 1_555
Co2A O6B 1_555 1_555
Co2B_2 O3 1_555 1_555
Co2C O6 1_555 1_555
Co3_2 O9B 1_555 1_555
Co3_3 O5 1_555 1_555
Co3A O2B 1_555 1_555
Co3B_2 O5B 1_555 1_555
Co3B_3 O9 1_555 1_555
Co3C O2 1_555 1_555
O2A Co3B 1_555 1_555
O2C Co3 1_555 1_555
O3_2 Co2B 1_555 1_555
O3B_2 Co2 1_555 1_555
O5_2 Co3 1_555 1_555
O5B_2 Co3B 1_555 1_555
O6A Co2B 1_555 1_555
O6C Co2 1_555 1_555
O9_2 Co3B 1_555 1_555
O9B_2 Co3 1_555 1_555
Co2 O7 1_555 1_555
Co3 O8 1_555 1_555
C2 C3 1_555 1_555
C2 C4 1_555 1_555
Co2B O1B 1_555 1_555
Co2B O7B 1_555 1_555
Co3B O1B 1_555 1_555
Co3B O8B 1_555 1_555
O7B C3B 1_555 1_555
O8B C5B 1_555 1_555
C2B C3B 1_555 1_555
C2B C4B 1_555 1_555
Co2A O2C 1_555 1_555
Co2C O2A 1_555 1_555
Co3A O6C 1_555 1_555
Co3C O6A 1_555 1_555

#END
