
#######################################################################
#
#                 Cambridge Crystallographic Data Centre
#                                CCDC 
#
#######################################################################
#
# If this CIF has been generated from an entry in the Cambridge 
# Structural Database, then it will include bibliographic, chemical, 
# crystal, experimental, refinement or atomic coordinate data resulting 
# from the CCDC's data processing and validation procedures.
#
#######################################################################

data_QADLOX
_symmetry_cell_setting           triclinic
_symmetry_space_group_name_H-M   'P 1'
_symmetry_Int_Tables_number      1
_space_group_name_Hall           'P 1'
loop_
_symmetry_equiv_pos_site_id
_symmetry_equiv_pos_as_xyz
1 x,y,z
_cell_length_a                   10.7317(18)
_cell_length_b                   13.937(2)
_cell_length_c                   16.834(3)
_cell_angle_alpha                108.128(3)
_cell_angle_beta                 99.895(3)
_cell_angle_gamma                95.068(3)
_cell_volume                     2330.06
loop_
_atom_site_label
_atom_site_type_symbol
_atom_site_fract_x
_atom_site_fract_y
_atom_site_fract_z
Cd1 Cd 0.02830(7) 1.27513(6) 1.30513(5)
Cd2 Cd -0.02831(7) 0.72486(6) 0.69488(5)
K1 K 0.6864(4) 1.4857(3) 1.2060(3)
K2 K -0.0002(6) 1.0005(5) 1.0009(4)
K3 K -0.6862(4) 0.5154(3) 0.7941(3)
K4 K -0.4991(6) 0.9996(5) 1.5003(4)
N1 N 0.1055(16) 1.5939(14) 1.1622(15)
N2 N 0.4345(13) 1.5089(13) 1.2328(12)
N3 N -0.342(2) 0.9187(15) 1.1300(16)
N4 N -0.3612(19) 1.0228(15) 1.3712(13)
N5 N 0.359(2) 0.9888(16) 0.6347(14)
N6 N 0.3397(18) 1.0774(13) 0.8727(14)
N7 N -0.1112(17) 0.4102(13) 0.8395(13)
N8 N -0.4271(17) 0.4939(15) 0.7717(15)
O1 O 0.8019(12) 1.6871(10) 1.2645(9)
O2 O 0.7086(12) 1.5793(9) 1.0846(9)
O3 O 0.6666(13) 1.3682(10) 1.0345(8)
O4 O 0.5940(12) 1.2734(9) 1.1485(10)
O5 O 0.6978(12) 1.3843(13) 1.3264(10)
O6 O 0.7503(14) 1.6000(11) 1.3844(8)
O7 O -0.0685(12) 0.7994(10) 0.9923(10)
O8 O -0.2192(13) 0.8861(11) 0.8898(10)
O9 O -0.1795(13) 1.1075(11) 0.9285(9)
O10 O 0.0659(14) 1.2031(10) 1.0042(9)
O11 O 0.2208(13) 1.1044(9) 1.1069(9)
O12 O 0.1914(13) 0.9043(10) 1.0825(10)
O13 O -0.5954(12) 0.7272(10) 0.8565(10)
O14 O -0.6910(12) 0.6165(9) 0.6794(9)
O15 O -0.7512(12) 0.4085(10) 0.6149(8)
O16 O -0.7994(14) 0.3106(10) 0.7406(9)
O17 O -0.7076(15) 0.4142(12) 0.9139(11)
O18 O -0.6650(12) 0.6321(9) 0.9728(9)
O19 O -0.3729(16) 1.2011(12) 1.5582(12)
O20 O -0.2562(14) 1.0532(12) 1.6133(10)
O21 O -0.3641(14) 0.8451(10) 1.5250(10)
O22 O -0.6253(13) 0.7977(8) 1.4439(8)
O23 O -0.7365(15) 0.9387(12) 1.3851(11)
O24 O -0.6352(14) 1.1513(11) 1.4759(10)
S1 S -0.0309(5) 1.4276(4) 1.2651(4)
S2 S 0.2591(4) 1.3545(4) 1.3289(4)
S3 S -0.0813(6) 1.2035(5) 1.4002(4)
S4 S -0.0437(6) 1.0994(4) 1.1938(4)
S5 S 0.0439(6) 0.8997(4) 0.8085(4)
S6 S 0.0813(5) 0.7957(4) 0.6010(3)
S7 S -0.2577(5) 0.6461(4) 0.6713(4)
S8 S 0.0309(5) 0.5732(5) 0.7362(5)
C1 C 0.7667(15) 1.7354(12) 1.2025(14)
C2 C 0.7860(17) 1.6772(14) 1.1120(13)
C3 C 0.7371(15) 1.5240(13) 1.0074(12)
C4 C 0.6484(15) 1.4244(12) 0.9770(9)
C5 C 0.5823(15) 1.2685(16) 1.0011(15)
C6 C 0.6261(18) 1.2205(11) 1.0687(15)
C7 C 0.6358(13) 1.2241(15) 1.2120(15)
C8 C 0.6034(19) 1.2769(15) 1.2918(13)
C9 C 0.700(2) 1.445(2) 1.4135(16)
C10 C 0.7821(17) 1.5351(16) 1.4335(9)
C11 C 0.8424(17) 1.6927(17) 1.4127(13)
C12 C 0.8039(18) 1.7453(17) 1.3503(15)
C13 C -0.1573(18) 0.7382(13) 0.9177(10)
C14 C -0.254(2) 0.7904(14) 0.9073(12)
C15 C -0.3229(16) 0.9393(16) 0.8638(14)
C16 C -0.2698(17) 1.0241(17) 0.8494(15)
C17 C -0.1150(18) 1.1930(14) 0.9132(15)
C18 C -0.038(2) 1.2543(11) 0.9996(15)
C19 C 0.149(2) 1.2551(12) 1.0868(14)
C20 C 0.2757(19) 1.1907(15) 1.0883(13)
C21 C 0.3246(19) 1.0494(17) 1.1256(16)
C22 C 0.2636(18) 0.9635(14) 1.1609(14)
C23 C 0.1387(19) 0.8041(16) 1.0923(14)
C24 C 0.039(2) 0.7404(17) 1.0142(16)
C25 C -0.6497(18) 0.7735(12) 0.7970(16)
C26 C -0.6184(13) 0.7097(15) 0.7095(15)
C27 C -0.673(2) 0.5604(17) 0.5958(14)
C28 C -0.797(2) 0.4614(18) 0.5534(14)
C29 C -0.846(2) 0.3188(19) 0.6031(12)
C30 C -0.780(2) 0.2528(14) 0.6556(15)
C31 C -0.746(2) 0.2542(16) 0.8000(16)
C32 C -0.796(2) 0.3162(13) 0.8750(14)
C33 C -0.738(2) 0.4866(16) 0.9930(12)
C34 C -0.640(2) 0.5835(14) 1.0403(13)
C35 C -0.5671(18) 0.7229(13) 0.9962(10)
C36 C -0.6060(15) 0.7923(14) 0.9424(15)
C37 C -0.262(2) 1.2318(18) 1.6271(13)
C38 C -0.1777(19) 1.1458(16) 1.6194(15)
C39 C -0.185(2) 0.9807(17) 1.6096(15)
C40 C -0.2724(19) 0.8878(15) 1.6074(14)
C41 C -0.4472(18) 0.7588(12) 1.5153(13)
C42 C -0.554(2) 0.7172(15) 1.4385(12)
C43 C -0.710(2) 0.7686(15) 1.3622(17)
C44 C -0.8019(17) 0.8445(16) 1.3886(18)
C45 C -0.8172(17) 1.0333(17) 1.4085(14)
C46 C -0.738(2) 1.1246(18) 1.4031(14)
C47 C -0.551(2) 1.2500(15) 1.4748(15)
C48 C -0.468(2) 1.2777(13) 1.5642(16)
C49 C 0.1088(17) 1.5365(15) 1.2003(15)
C50 C 0.1115(16) 1.4682(13) 1.2474(12)
C51 C 0.2301(15) 1.4404(12) 1.2762(9)
C52 C 0.3483(18) 1.4839(14) 1.2536(12)
C53 C -0.258(2) 0.9821(18) 1.1812(15)
C54 C -0.1585(16) 1.0606(12) 1.2381(9)
C55 C -0.1754(15) 1.0993(11) 1.3175(12)
C56 C -0.284(2) 1.0534(16) 1.3475(14)
C57 C 0.275(2) 0.9474(15) 0.6556(13)
C58 C 0.1744(17) 0.9003(14) 0.6769(12)
C59 C 0.1669(19) 0.9396(14) 0.7610(15)
C60 C 0.2640(13) 1.0203(11) 0.8250(10)
C61 C -0.1172(15) 0.4604(14) 0.8000(11)
C62 C -0.1216(17) 0.5298(12) 0.7496(12)
C63 C -0.2324(14) 0.5591(13) 0.7273(11)
C64 C -0.3360(15) 0.5238(12) 0.7520(11)
S1_2 S 0.9691(5) 1.4276(4) 1.2651(4)
S8_2 S -0.9691(5) 0.5732(5) 0.7362(5)
N5_2 N -0.641(2) 0.9888(16) 1.6347(14)
K4_2 K 0.5009(6) 0.9996(5) 0.5003(4)
K1_2 K -0.3136(4) 1.4857(3) 1.2060(3)
K3_2 K 0.3138(4) 0.5154(3) 0.7941(3)
loop_
_geom_bond_atom_site_label_1
_geom_bond_atom_site_label_2
_geom_bond_site_symmetry_1
_geom_bond_site_symmetry_2
Cd1 S1 1_555 1_555
Cd2 S5 1_555 1_555
K1 N2 1_555 1_555
K2 O7 1_555 1_555
K3 N8 1_555 1_555
K4 N4 1_555 1_555
N1 C49 1_555 1_555
N2 C52 1_555 1_555
N3 C53 1_555 1_555
N4 C56 1_555 1_555
N5 C57 1_555 1_555
N6 C60 1_555 1_555
N7 C61 1_555 1_555
N8 C64 1_555 1_555
O1 K1 1_555 1_555
O2 K1 1_555 1_555
O3 K1 1_555 1_555
O4 K1 1_555 1_555
O5 K1 1_555 1_555
O6 K1 1_555 1_555
O7 C13 1_555 1_555
O8 K2 1_555 1_555
O9 K2 1_555 1_555
O10 K2 1_555 1_555
O11 K2 1_555 1_555
O12 K2 1_555 1_555
O13 K3 1_555 1_555
O14 K3 1_555 1_555
O15 K3 1_555 1_555
O16 K3 1_555 1_555
O17 K3 1_555 1_555
O18 K3 1_555 1_555
O19 K4 1_555 1_555
O20 K4 1_555 1_555
O21 K4 1_555 1_555
O22 K4 1_555 1_555
O23 K4 1_555 1_555
O24 K4 1_555 1_555
S1 C50 1_555 1_555
S2 Cd1 1_555 1_555
S3 Cd1 1_555 1_555
S4 Cd1 1_555 1_555
S5 K2 1_555 1_555
S6 Cd2 1_555 1_555
S7 Cd2 1_555 1_555
S8 Cd2 1_555 1_555
C1 O1 1_555 1_555
C2 O2 1_555 1_555
C3 O2 1_555 1_555
C4 O3 1_555 1_555
C5 O3 1_555 1_555
C6 O4 1_555 1_555
C7 O4 1_555 1_555
C8 O5 1_555 1_555
C9 O5 1_555 1_555
C10 O6 1_555 1_555
C11 O6 1_555 1_555
C12 O1 1_555 1_555
C13 C14 1_555 1_555
C14 O8 1_555 1_555
C15 O8 1_555 1_555
C16 O9 1_555 1_555
C17 O9 1_555 1_555
C18 O10 1_555 1_555
C19 O10 1_555 1_555
C20 O11 1_555 1_555
C21 O11 1_555 1_555
C22 O12 1_555 1_555
C23 O12 1_555 1_555
C24 O7 1_555 1_555
C25 O13 1_555 1_555
C26 O14 1_555 1_555
C27 O14 1_555 1_555
C28 O15 1_555 1_555
C29 O15 1_555 1_555
C30 O16 1_555 1_555
C31 O16 1_555 1_555
C32 O17 1_555 1_555
C33 O17 1_555 1_555
C34 O18 1_555 1_555
C35 O18 1_555 1_555
C36 O13 1_555 1_555
C37 O19 1_555 1_555
C38 O20 1_555 1_555
C39 O20 1_555 1_555
C40 O21 1_555 1_555
C41 O21 1_555 1_555
C42 O22 1_555 1_555
C43 O22 1_555 1_555
C44 O23 1_555 1_555
C45 O23 1_555 1_555
C46 O24 1_555 1_555
C47 O24 1_555 1_555
C48 O19 1_555 1_555
C49 C50 1_555 1_555
C50 C51 1_555 1_555
C51 S2 1_555 1_555
C52 C51 1_555 1_555
C53 C54 1_555 1_555
C54 S4 1_555 1_555
C55 S3 1_555 1_555
C56 C55 1_555 1_555
C57 C58 1_555 1_555
C58 S6 1_555 1_555
C59 S5 1_555 1_555
C60 C59 1_555 1_555
C61 C62 1_555 1_555
C62 S8 1_555 1_555
C63 S7 1_555 1_555
C64 C63 1_555 1_555
S1_2 K1 1_555 1_555
S8_2 K3 1_555 1_555
N5_2 K4 1_555 1_555
K4_2 N5 1_555 1_555
K1_2 S1 1_555 1_555
K3_2 S8 1_555 1_555
K2 S4 1_555 1_555
C1 C2 1_555 1_555
C3 C4 1_555 1_555
C5 C6 1_555 1_555
C7 C8 1_555 1_555
C9 C10 1_555 1_555
C11 C12 1_555 1_555
C15 C16 1_555 1_555
C17 C18 1_555 1_555
C19 C20 1_555 1_555
C21 C22 1_555 1_555
C23 C24 1_555 1_555
C25 C26 1_555 1_555
C27 C28 1_555 1_555
C29 C30 1_555 1_555
C31 C32 1_555 1_555
C33 C34 1_555 1_555
C35 C36 1_555 1_555
C37 C38 1_555 1_555
C39 C40 1_555 1_555
C41 C42 1_555 1_555
C43 C44 1_555 1_555
C45 C46 1_555 1_555
C47 C48 1_555 1_555
C54 C55 1_555 1_555
C58 C59 1_555 1_555
C62 C63 1_555 1_555

#END
