
#######################################################################
#
#                 Cambridge Crystallographic Data Centre
#                                CCDC 
#
#######################################################################
#
# If this CIF has been generated from an entry in the Cambridge 
# Structural Database, then it will include bibliographic, chemical, 
# crystal, experimental, refinement or atomic coordinate data resulting 
# from the CCDC's data processing and validation procedures.
#
#######################################################################

data_QADQIV
_symmetry_cell_setting           monoclinic
_symmetry_space_group_name_H-M   'P 21/c'
_symmetry_Int_Tables_number      14
_space_group_name_Hall           '-P 2ybc'
loop_
_symmetry_equiv_pos_site_id
_symmetry_equiv_pos_as_xyz
1 x,y,z
2 -x,1/2+y,1/2-z
3 -x,-y,-z
4 x,1/2-y,1/2+z
_cell_length_a                   7.996(5)
_cell_length_b                   20.466(5)
_cell_length_c                   10.162(2)
_cell_angle_alpha                90
_cell_angle_beta                 99.51(4)
_cell_angle_gamma                90
_cell_volume                     1640.12
loop_
_atom_site_label
_atom_site_type_symbol
_atom_site_fract_x
_atom_site_fract_y
_atom_site_fract_z
Cu1 Cu 0.01144(6) 0.422970(24) -0.40239(5)
Cl1 Cl 0.18331(13) 0.53599(5) -0.42009(9)
Cl2 Cl 0.19786(14) 0.38124(6) -0.22856(10)
N1 N 0.1296(4) 0.12644(16) -0.0310(3)
N2 N 0.1103(5) 0.18963(17) -0.0674(3)
N3 N -0.2952(4) 0.44129(16) -0.2653(3)
N4 N -0.1306(4) 0.45665(16) -0.2721(3)
C1 C 0.2556(5) 0.10412(20) -0.0883(4)
C2 C 0.316(6) 0.15327(24) -0.1622(4)
C3 C 0.2207(6) 0.20620(23) -0.1474(4)
C4 C -0.0279(6) 0.23054(21) -0.0341(4)
C5 C -0.1584(5) 0.24460(21) -0.1560(4)
C6 C -0.2312(6) 0.19399(21) -0.2354(4)
C7 C -0.3503(6) 0.20417(23) -0.3481(4)
C8 C -0.4321(7) 0.1492(3) -0.4327(5)
C9 C -0.3991(6) 0.27045(23) -0.3821(4)
C10 C -0.3276(5) 0.32049(20) -0.3021(4)
C11 C -0.2029(5) 0.30855(20) -0.1871(4)
C12 C -0.3847(5) 0.38912(23) -0.3428(4)
C13 C 0.3496(7) 0.97645(24) -0.3311(5)
C14 C 0.2211(7) 1.01571(25) -0.3888(4)
C15 C 0.0863(6) 1.00162(22) -0.3213(4)
Cu1C Cu 0.01144(6) 0.077030(24) 0.09761(5)
Cu1B Cu -0.01144(6) 0.577030(24) -0.59761(5)
Cl1B Cl -0.18331(13) 0.46401(5) -0.57991(9)
N1C N 0.1296(4) 0.37356(16) -0.5310(3)
Cl2B Cl -0.19786(14) 0.61876(6) -0.77144(10)
N1A N -0.1296(4) 0.62644(16) -0.4690(3)
N2A N -0.1103(5) 0.68963(17) -0.4326(3)
C3A C -0.2207(6) 0.70620(23) -0.3526(4)
C2A C -0.316(6) 0.65327(24) -0.3378(4)
C1A C -0.2556(5) 0.60412(20) -0.4117(4)
C4A C 0.0279(6) 0.73054(21) -0.4659(4)
C5A C 0.1584(5) 0.74460(21) -0.3440(4)
C6A C 0.2312(6) 0.69399(21) -0.2646(4)
C7A C 0.3503(6) 0.70417(23) -0.1519(4)
C8A C 0.4321(7) 0.6492(3) -0.0673(5)
C9A C 0.3991(6) 0.77045(23) -0.1179(4)
C10A C 0.3276(5) 0.82049(20) -0.1979(4)
C11A C 0.2029(5) 0.80855(20) -0.3129(4)
C12A C 0.3847(5) 0.88912(23) -0.1572(4)
N3A N 0.2952(4) 0.94129(16) -0.2347(3)
N4A N 0.1306(4) 0.95665(16) -0.2279(3)
Cu1A Cu -0.01144(6) 0.922970(24) -0.09761(5)
N4B N 0.1306(4) 0.54335(16) -0.7279(3)
C15A C -0.0863(6) 0.50162(22) -0.1787(4)
C14A C -0.2211(7) 0.51571(25) -0.1112(4)
C13A C -0.3496(7) 0.47645(24) -0.1689(5)
loop_
_geom_bond_atom_site_label_1
_geom_bond_atom_site_label_2
_geom_bond_site_symmetry_1
_geom_bond_site_symmetry_2
Cu1 Cl1 1_555 1_555
Cl1 Cu1B 1_555 1_555
Cl2 Cu1 1_555 1_555
N1 N2 1_555 1_555
N2 C3 1_555 1_555
N3 N4 1_555 1_555
N4 Cu1 1_555 1_555
C1 N1 1_555 1_555
C2 C1 1_555 1_555
C3 C2 1_555 1_555
C4 N2 1_555 1_555
C5 C4 1_555 1_555
C6 C5 1_555 1_555
C7 C6 1_555 1_555
C8 C7 1_555 1_555
C9 C7 1_555 1_555
C10 C9 1_555 1_555
C11 C5 1_555 1_555
C12 N3 1_555 1_555
C13 C14 1_555 1_555
C14 C15 1_555 1_555
C15 N4A 1_555 1_555
Cu1C N1 1_555 1_555
Cu1B Cl1B 1_555 1_555
Cl1B Cu1 1_555 1_555
N1C Cu1 1_555 1_555
Cl2B Cu1B 1_555 1_555
N1A Cu1B 1_555 1_555
N2A N1A 1_555 1_555
C3A N2A 1_555 1_555
C2A C3A 1_555 1_555
C1A N1A 1_555 1_555
C4A N2A 1_555 1_555
C5A C4A 1_555 1_555
C6A C5A 1_555 1_555
C7A C6A 1_555 1_555
C8A C7A 1_555 1_555
C9A C7A 1_555 1_555
C10A C9A 1_555 1_555
C11A C5A 1_555 1_555
C12A C10A 1_555 1_555
N3A C13 1_555 1_555
N4A N3A 1_555 1_555
Cu1A N4A 1_555 1_555
N4B Cu1B 1_555 1_555
C15A N4 1_555 1_555
C14A C15A 1_555 1_555
C13A N3 1_555 1_555
C10 C11 1_555 1_555
C10 C12 1_555 1_555
C2A C1A 1_555 1_555
C10A C11A 1_555 1_555
C12A N3A 1_555 1_555
C14A C13A 1_555 1_555

#END
