
#######################################################################
#
#                 Cambridge Crystallographic Data Centre
#                                CCDC 
#
#######################################################################
#
# If this CIF has been generated from an entry in the Cambridge 
# Structural Database, then it will include bibliographic, chemical, 
# crystal, experimental, refinement or atomic coordinate data resulting 
# from the CCDC's data processing and validation procedures.
#
#######################################################################

data_QADSUL
_symmetry_cell_setting           triclinic
_symmetry_space_group_name_H-M   'P -1'
_symmetry_Int_Tables_number      2
_space_group_name_Hall           '-P 1'
loop_
_symmetry_equiv_pos_site_id
_symmetry_equiv_pos_as_xyz
1 x,y,z
2 -x,-y,-z
_cell_length_a                   7.182(9)
_cell_length_b                   10.104(12)
_cell_length_c                   16.048(18)
_cell_angle_alpha                102.40(3)
_cell_angle_beta                 92.44(4)
_cell_angle_gamma                90.04(4)
_cell_volume                     1136.3
loop_
_atom_site_label
_atom_site_type_symbol
_atom_site_fract_x
_atom_site_fract_y
_atom_site_fract_z
Cu1 Cu 0.17244(15) 0.27516(11) 0.29738(7)
As1 As -0.08131(13) 0.01596(9) 0.22195(6)
S1 S -0.3339(3) 0.3179(2) 0.25374(15)
N1 N 0.1915(10) 0.2512(8) 0.4197(4)
N2 N 0.2112(9) 0.4619(7) 0.3559(5)
N3 N 0.1703(10) 0.3672(7) 0.1968(5)
C1 C -0.2183(11) 0.0906(10) 0.1346(6)
C2 C -0.3098(12) 0.2155(9) 0.1494(6)
C3 C -0.3836(13) 0.2638(10) 0.0806(6)
H1 H -0.4401 0.3483 0.0903
C4 C -0.3754(13) 0.1901(11) -0.0014(6)
H2 H -0.4281 0.2231 -0.0468
C5 C -0.2866(13) 0.0641(11) -0.0161(6)
H3 H -0.2803 0.0128 -0.0714
C6 C -0.2090(12) 0.0167(9) 0.0513(6)
H4 H -0.1490 -0.0664 0.0410
C7 C 0.1832(13) 0.1341(10) 0.4470(6)
H5 H 0.1685 0.0533 0.4066
C8 C 0.1959(14) 0.1285(11) 0.5344(6)
H6 H 0.1877 0.0467 0.5517
C9 C 0.2205(14) 0.2480(12) 0.5918(6)
H7 H 0.2281 0.2482 0.6499
C10 C 0.2346(13) 0.3695(10) 0.5656(6)
H8 H 0.2528 0.4507 0.6054
C11 C 0.2211(12) 0.3675(9) 0.4796(6)
C12 C 0.2327(11) 0.4884(10) 0.4421(6)
C13 C 0.2696(13) 0.6232(10) 0.4873(6)
H9 H 0.2868 0.6438 0.5464
C14 C 0.2794(15) 0.7233(10) 0.4405(7)
H10 H 0.3013 0.8127 0.4690
C15 C 0.2573(14) 0.6934(11) 0.3524(6)
H11 H 0.2656 0.7609 0.3214
C16 C 0.2225(11) 0.5596(9) 0.3119(6)
C17 C 0.1999(11) 0.5053(9) 0.2184(6)
C18 C 0.2108(13) 0.5809(10) 0.1577(7)
H12 H 0.2332 0.6737 0.1737
C19 C 0.1880(14) 0.5180(12) 0.0715(6)
H13 H 0.1888 0.5689 0.0297
C20 C 0.1644(13) 0.3794(10) 0.0492(7)
H14 H 0.1580 0.3347 -0.0079
C21 C 0.1503(12) 0.3086(10) 0.1125(6)
H15 H 0.1259 0.2159 0.0970
O1 O -0.1962(8) 0.0072(7) 0.3081(4)
O2 O 0.1319(7) 0.0893(6) 0.2390(4)
O3 O -0.0304(9) -0.1467(6) 0.1671(4)
H16 H -0.1196 -0.1970 0.1678
O4 O -0.3732(10) 0.4532(7) 0.2416(4)
O5 O -0.1594(8) 0.3060(7) 0.3016(4)
O6 O -0.4889(8) 0.2583(7) 0.2886(4)
Cu1_2 Cu -0.82756(15) 0.27516(11) 0.29738(7)
O6_2 O 0.5111(8) 0.2583(7) 0.2886(4)
O7 O -0.5554(10) -0.0835(8) 0.2538(5)
H17 H -0.5340 -0.1446 0.2099
H18 H -0.4700 -0.0243 0.2707
O8 O -0.3347(10) -0.3074(8) 0.1720(5)
H19 H -0.3161 -0.3664 0.2020
H20 H -0.3790 -0.3447 0.1226
loop_
_geom_bond_atom_site_label_1
_geom_bond_atom_site_label_2
_geom_bond_site_symmetry_1
_geom_bond_site_symmetry_2
Cu1 N1 1_555 1_555
As1 C1 1_555 1_555
S1 C2 1_555 1_555
N1 C7 1_555 1_555
N2 Cu1 1_555 1_555
N3 Cu1 1_555 1_555
C1 C2 1_555 1_555
C2 C3 1_555 1_555
C3 H1 1_555 1_555
C4 C3 1_555 1_555
H2 C4 1_555 1_555
C5 C4 1_555 1_555
H3 C5 1_555 1_555
C6 C1 1_555 1_555
H4 C6 1_555 1_555
C7 H5 1_555 1_555
C8 C7 1_555 1_555
H6 C8 1_555 1_555
C9 C8 1_555 1_555
H7 C9 1_555 1_555
C10 C9 1_555 1_555
H8 C10 1_555 1_555
C11 N1 1_555 1_555
C12 N2 1_555 1_555
C13 C12 1_555 1_555
H9 C13 1_555 1_555
C14 C13 1_555 1_555
H10 C14 1_555 1_555
C15 C14 1_555 1_555
H11 C15 1_555 1_555
C16 N2 1_555 1_555
C17 N3 1_555 1_555
C18 C17 1_555 1_555
H12 C18 1_555 1_555
C19 C18 1_555 1_555
H13 C19 1_555 1_555
C20 C19 1_555 1_555
H14 C20 1_555 1_555
C21 N3 1_555 1_555
H15 C21 1_555 1_555
O1 As1 1_555 1_555
O2 Cu1 1_555 1_555
O3 As1 1_555 1_555
H16 O3 1_555 1_555
O4 S1 1_555 1_555
O5 Cu1 1_555 1_555
O6 S1 1_555 1_555
O7 H17 1_555 1_555
H18 O7 1_555 1_555
O8 H19 1_555 1_555
H20 O8 1_555 1_555
Cu1_2 O6 1_555 1_555
O6_2 Cu1 1_555 1_555
As1 O2 1_555 1_555
S1 O5 1_555 1_555
C5 C6 1_555 1_555
C10 C11 1_555 1_555
C11 C12 1_555 1_555
C15 C16 1_555 1_555
C16 C17 1_555 1_555
C20 C21 1_555 1_555

#END
