
#######################################################################
#
#                 Cambridge Crystallographic Data Centre
#                                CCDC 
#
#######################################################################
#
# If this CIF has been generated from an entry in the Cambridge 
# Structural Database, then it will include bibliographic, chemical, 
# crystal, experimental, refinement or atomic coordinate data resulting 
# from the CCDC's data processing and validation procedures.
#
#######################################################################

data_QADZAX
_symmetry_cell_setting           monoclinic
_symmetry_space_group_name_H-M   'P 21/m'
_symmetry_Int_Tables_number      11
_space_group_name_Hall           '-P 2yb'
loop_
_symmetry_equiv_pos_site_id
_symmetry_equiv_pos_as_xyz
1 x,y,z
2 x,1/2-y,z
3 -x,-y,-z
4 -x,1/2+y,-z
_cell_length_a                   13.3220(8)
_cell_length_b                   19.2779(6)
_cell_length_c                   14.5822(9)
_cell_angle_alpha                90
_cell_angle_beta                 91.663(2)
_cell_angle_gamma                90
_cell_volume                     3743.43
loop_
_atom_site_label
_atom_site_type_symbol
_atom_site_fract_x
_atom_site_fract_y
_atom_site_fract_z
Cs1 Cs 0.31322(13) 0.7500 -0.08064(14)
Cs2 Cs 0.03095(9) 0.62024(6) 0.49423(9)
Cs3 Cs 0.23687(12) 0.2500 0.35612(11)
Cs4 Cs 0.61309(11) 0.61198(7) -0.59112(8)
Cs5 Cs 0.69952(13) 0.7500 0.13696(11)
Cs6 Cs 0.1136(2) 0.40456(18) 0.1045(2)
S1 S 0.4449(5) 0.7500 -0.4535(5)
S2 S 0.2770(3) 0.4461(2) -0.1455(3)
S3 S 0.2096(4) 0.4571(2) 0.3762(3)
S4 S -0.1936(4) 0.7500 0.3945(4)
O1 O 0.6259(10) 0.7500 -0.0791(10)
O2 O 0.5213(18) 0.7500 -0.5063(15)
O3 O 0.3839 0.8084 -0.4666
O4 O 0.5328(7) 0.6647(6) 0.0202(7)
O5 O 0.2363(9) 0.4041(6) -0.0724(8)
O6 O 0.3344(9) 0.4064(6) -0.2106(9)
O7 O 0.1976(9) 0.4881(6) -0.1928(8)
O8 O 0.2035(7) 0.6598(6) 0.0728(7)
O9 O 0.3029(11) 0.4217(8) 0.3783(10)
O10 O 0.1728(16) 0.4907(10) 0.4519(13)
O11 O 0.1315(13) 0.4047(9) 0.3495(13)
O12 O 0.0661(11) 0.7500 0.0755(10)
O13 O -0.2927(11) 0.7500 0.3479(11)
O14 O -0.1767(9) 0.8135(6) 0.4472(8)
O15 O 0.063(6) 0.7500 -0.115(5)
O16 O 0.2042(15) 0.8548(9) -0.1558(14)
O17 O 0.1709(14) 0.7500 0.4392(13)
O18 O 0.191(2) 0.684(2) 0.649(2)
O19 O 0.1054(9) 0.4850(7) 0.6321(10)
O20 O 0.0081(17) 0.7500 0.6470(16)
O21 O 0.4972(18) 0.4787(10) -0.6177(13)
O22 O 0.400(2) 0.5874(18) -0.531(3)
O23 O 0.1780(16) 0.2500 0.1371(17)
C1 C 0.5817(17) 0.7500 -0.1632(16)
C2 C 0.5555(11) 0.6874(8) -0.2086(10)
C3 C 0.5131(12) 0.6866(10) -0.2941(12)
H1 H 0.5010 0.6449 -0.3244
C4 C 0.488(2) 0.7500 -0.3363(19)
C5 C 0.5805(14) 0.6185(8) -0.1632(13)
H2 H 0.5974 0.5853 -0.2104
H3 H 0.6395 0.6245 -0.1234
C6 C 0.4981(11) 0.5888(8) -0.1081(10)
C7 C 0.4773(11) 0.6127(8) -0.0206(12)
C8 C 0.4009(11) 0.5819(8) 0.0323(10)
C9 C 0.3452(12) 0.5297(8) -0.0056(11)
H4 H 0.2955 0.5088 0.0284
C10 C 0.3614(12) 0.5070(8) -0.0943(11)
C11 C 0.4343(12) 0.5345(9) -0.1462(11)
H5 H 0.4432 0.5187 -0.2056
C12 C 0.3887(11) 0.6105(8) 0.1313(10)
H6 H 0.4459 0.5958 0.1692
H7 H 0.3891 0.6608 0.1292
C13 C 0.2949(12) 0.5869(8) 0.1748(11)
C14 C 0.2025(14) 0.6139(9) 0.1426(11)
C15 C 0.1122(11) 0.5918(7) 0.1817(11)
C16 C 0.1178(14) 0.5430(8) 0.2536(12)
H8 H 0.0590 0.5275 0.2798
C17 C 0.2098(12) 0.5175(8) 0.2859(11)
C18 C 0.2964(13) 0.5394(9) 0.2478(11)
H9 H 0.3577 0.5226 0.2705
C19 C 0.0127(12) 0.6183(9) 0.1468(11)
H10 H -0.0380 0.5841 0.1606
H11 H 0.0149 0.6220 0.0805
C20 C -0.0209(12) 0.6891(8) 0.1853(11)
C21 C 0.0078(14) 0.7500 0.1498(13)
C22 C -0.0789(10) 0.6884(8) 0.2646(10)
H12 H -0.0971 0.6464 0.2905
C23 C -0.1090(16) 0.7500 0.3039(14)
C24 C 0.194(3) 0.780(2) 0.353(3)
C25 C 0.283(3) 0.7500 0.308(3)
O3A O 0.3839 0.6916 -0.4666
C2A C 0.5555(11) 0.8126(8) -0.2086(10)
C3A C 0.5131(12) 0.8134(10) -0.2941(12)
H1A H 0.5010 0.8551 -0.3244
C5A C 0.5805(14) 0.8815(8) -0.1632(13)
H2A H 0.5974 0.9147 -0.2104
H3A H 0.6395 0.8755 -0.1234
C6A C 0.4981(11) 0.9112(8) -0.1081(10)
C7A C 0.4773(11) 0.8873(8) -0.0206(12)
O4A O 0.5328(7) 0.8353(6) 0.0202(7)
C8A C 0.4009(11) 0.9181(8) 0.0323(10)
C9A C 0.3452(12) 0.9703(8) -0.0056(11)
H4A H 0.2955 0.9912 0.0284
C10A C 0.3614(12) 0.9930(8) -0.0943(11)
S2A S 0.2770(3) 1.0539(2) -0.1455(3)
O5A O 0.2363(9) 1.0959(6) -0.0724(8)
O6A O 0.3344(9) 1.0936(6) -0.2106(9)
O7A O 0.1976(9) 1.0119(6) -0.1928(8)
C11A C 0.4343(12) 0.9655(9) -0.1462(11)
H5A H 0.4432 0.9813 -0.2056
C12A C 0.3887(11) 0.8895(8) 0.1313(10)
H6A H 0.4459 0.9042 0.1692
H7A H 0.3891 0.8392 0.1292
C13A C 0.2949(12) 0.9131(8) 0.1748(11)
C14A C 0.2025(14) 0.8861(9) 0.1426(11)
O8A O 0.2035(7) 0.8402(6) 0.0728(7)
C15A C 0.1122(11) 0.9082(7) 0.1817(11)
C16A C 0.1178(14) 0.9570(8) 0.2536(12)
H8A H 0.0590 0.9725 0.2798
C17A C 0.2098(12) 0.9825(8) 0.2859(11)
S3A S 0.2096(4) 1.0429(2) 0.3762(3)
O9A O 0.3029(11) 1.0783(8) 0.3783(10)
O10A O 0.1728(16) 1.0093(10) 0.4519(13)
O11A O 0.1315(13) 1.0953(9) 0.3495(13)
C18A C 0.2964(13) 0.9606(9) 0.2478(11)
H9A H 0.3577 0.9774 0.2705
C19A C 0.0127(12) 0.8817(9) 0.1468(11)
H10A H -0.0380 0.9159 0.1606
H11A H 0.0149 0.8780 0.0805
C20A C -0.0209(12) 0.8109(8) 0.1853(11)
O14A O -0.1767(9) 0.6865(6) 0.4472(8)
C22A C -0.0789(10) 0.8116(8) 0.2646(10)
H12A H -0.0971 0.8536 0.2905
C24A C 0.194(3) 0.720(2) 0.353(3)
O16A O 0.2042(15) 0.6452(9) -0.1558(14)
Cs2A Cs 0.03095(9) 0.87976(6) 0.49423(9)
Cs4A Cs 0.61309(11) 0.88802(7) -0.59112(8)
Cs6A Cs 0.1136(2) 1.09544(18) 0.1045(2)
O19B O -0.1054(9) 0.5150(7) 0.3679(10)
O18A O 0.191(2) 0.816(2) 0.649(2)
O21A O 0.4972(18) 1.0213(10) -0.6177(13)
O22A O 0.400(2) 0.9126(18) -0.531(3)
Cs2B Cs -0.03095(9) 0.37976(6) 0.50577(9)
Cs3B Cs -0.23687(12) 0.7500 0.64388(11)
O10B O -0.1728(16) 0.5093(10) 0.5481(13)
O11B O -0.1315(13) 0.5953(9) 0.6505(13)
Cs2C Cs -0.03095(9) 0.12024(6) 0.50577(9)
Cs4B Cs 0.38691(11) 0.38802(7) 0.59112(8)
Cs4C Cs 0.38691(11) 0.11198(7) 0.59112(8)
Cs6A_2 Cs 0.1136(2) 0.09544(18) 0.1045(2)
O9A_2 O 0.3029(11) 0.0783(8) 0.3783(10)
O11A_2 O 0.1315(13) 0.0953(9) 0.3495(13)
O14B O 0.1767(9) 0.1865(6) 0.5528(8)
O14C O 0.1767(9) 0.3135(6) 0.5528(8)
O20B O -0.0081(17) 0.2500 0.3530(16)
Cs3B_2 Cs 0.76313(12) 0.7500 -0.35612(11)
Cs5_2 Cs 0.69952(13) 0.7500 -0.86304(11)
O6B O 0.6656(9) 0.5936(6) -0.7894(9)
O9B O 0.6971(11) 0.5783(8) -0.3783(10)
O13_2 O 0.7073(11) 0.7500 -0.6521(11)
O14A_2 O 0.8233(9) 0.6865(6) -0.5528(8)
Cs4_2 Cs 0.61309(11) 0.61198(7) 0.40888(8)
Cs4A_2 Cs 0.61309(11) 0.88802(7) 0.40888(8)
O5B O 0.7637(9) 0.5959(6) 0.0724(8)
O5C O 0.7637(9) 0.9041(6) 0.0724(8)
O6B_2 O 0.6656(9) 0.5936(6) 0.2106(9)
O6C O 0.6656(9) 0.9064(6) 0.2106(9)
O13_3 O 0.7073(11) 0.7500 0.3479(11)
Cs5B Cs 0.30048(13) 0.2500 -0.13696(11)
Cs4B_2 Cs 0.38691(11) 0.38802(7) -0.40888(8)
Cs4_3 Cs -0.38691(11) 0.61198(7) 0.40888(8)
Cs4A_3 Cs -0.38691(11) 0.88802(7) 0.40888(8)
Cs5_3 Cs -0.30048(13) 0.7500 0.13696(11)
Cs5B_2 Cs 0.30048(13) 1.2500 -0.13696(11)
Cs4C_2 Cs 0.38691(11) 1.11198(7) -0.40888(8)
Cs3_2 Cs 0.23687(12) 1.2500 0.35612(11)
Cs4C_3 Cs 0.38691(11) 1.11198(7) 0.59112(8)
Cs2C_2 Cs -0.03095(9) 1.12024(6) 0.50577(9)
O10C O -0.1728(16) 0.9907(10) 0.5481(13)
O11C O -0.1315(13) 0.9047(9) 0.6505(13)
O19A O 0.1054(9) 1.0150(7) 0.6321(10)
O19C O -0.1054(9) 0.9850(7) 0.3679(10)
O6C_2 O 0.6656(9) 0.9064(6) -0.7894(9)
O9C O 0.6971(11) 0.9217(8) -0.3783(10)
O14_2 O 0.8233(9) 0.8135(6) -0.5528(8)
O23_2 O 0.1780(16) 1.2500 0.1371(17)
loop_
_geom_bond_atom_site_label_1
_geom_bond_atom_site_label_2
_geom_bond_site_symmetry_1
_geom_bond_site_symmetry_2
Cs1 O8 1_555 1_555
Cs2 O10 1_555 1_555
Cs3 O9 1_555 1_555
Cs4 O2 1_555 1_555
Cs5 O1 1_555 1_555
Cs6 O5 1_555 1_555
S1 O2 1_555 1_555
S2 O5 1_555 1_555
S3 O9 1_555 1_555
S4 O13 1_555 1_555
O1 C1 1_555 1_555
O2 Cs4A 1_555 1_555
O3 S1 1_555 1_555
O4 Cs5 1_555 1_555
O5 Cs5B 1_555 1_555
O6 S2 1_555 1_555
O7 S2 1_555 1_555
O8 C14 1_555 1_555
O9 Cs4B 1_555 1_555
O10 S3 1_555 1_555
O11 Cs3 1_555 1_555
O12 C21 1_555 1_555
O13 Cs4_3 1_555 1_555
O14 S4 1_555 1_555
O15 Cs1 1_555 1_555
O16 Cs1 1_555 1_555
O17 Cs2 1_555 1_555
O18 Cs2 1_555 1_555
O19 Cs2 1_555 1_555
O20 Cs2 1_555 1_555
O21 Cs4 1_555 1_555
O22 Cs4 1_555 1_555
O23 Cs3 1_555 1_555
C1 C2 1_555 1_555
C2 C3 1_555 1_555
C3 H1 1_555 1_555
C4 S1 1_555 1_555
C5 C2 1_555 1_555
H2 C5 1_555 1_555
H3 C5 1_555 1_555
C6 C5 1_555 1_555
C7 O4 1_555 1_555
C8 C7 1_555 1_555
C9 C8 1_555 1_555
H4 C9 1_555 1_555
C10 S2 1_555 1_555
C11 C6 1_555 1_555
H5 C11 1_555 1_555
C12 C8 1_555 1_555
H6 C12 1_555 1_555
H7 C12 1_555 1_555
C13 C12 1_555 1_555
C14 C13 1_555 1_555
C15 C14 1_555 1_555
C16 C15 1_555 1_555
H8 C16 1_555 1_555
C17 S3 1_555 1_555
C18 C13 1_555 1_555
H9 C18 1_555 1_555
C19 C15 1_555 1_555
H10 C19 1_555 1_555
H11 C19 1_555 1_555
C20 C19 1_555 1_555
C21 C20 1_555 1_555
C22 C20 1_555 1_555
H12 C22 1_555 1_555
C23 S4 1_555 1_555
C24 O17 1_555 1_555
C25 C24 1_555 1_555
O3A S1 1_555 1_555
C2A C1 1_555 1_555
C3A C4 1_555 1_555
H1A C3A 1_555 1_555
C5A C2A 1_555 1_555
H2A C5A 1_555 1_555
H3A C5A 1_555 1_555
C6A C5A 1_555 1_555
C7A C6A 1_555 1_555
O4A Cs5 1_555 1_555
C8A C7A 1_555 1_555
C9A C8A 1_555 1_555
H4A C9A 1_555 1_555
C10A C9A 1_555 1_555
S2A C10A 1_555 1_555
O5A S2A 1_555 1_555
O6A S2A 1_555 1_555
O7A S2A 1_555 1_555
C11A C6A 1_555 1_555
H5A C11A 1_555 1_555
C12A C8A 1_555 1_555
H6A C12A 1_555 1_555
H7A C12A 1_555 1_555
C13A C12A 1_555 1_555
C14A C13A 1_555 1_555
O8A Cs1 1_555 1_555
C15A C14A 1_555 1_555
C16A C15A 1_555 1_555
H8A C16A 1_555 1_555
C17A C16A 1_555 1_555
S3A C17A 1_555 1_555
O9A S3A 1_555 1_555
O10A S3A 1_555 1_555
O11A S3A 1_555 1_555
C18A C13A 1_555 1_555
H9A C18A 1_555 1_555
C19A C15A 1_555 1_555
H10A C19A 1_555 1_555
H11A C19A 1_555 1_555
C20A C21 1_555 1_555
O14A Cs2 1_555 1_555
C22A C23 1_555 1_555
H12A C22A 1_555 1_555
C24A O17 1_555 1_555
O16A Cs1 1_555 1_555
Cs2A O14 1_555 1_555
Cs4A O21A 1_555 1_555
Cs6A O5A 1_555 1_555
O19B Cs2 1_555 1_555
O18A Cs2A 1_555 1_555
O22A Cs4A 1_555 1_555
Cs2B O10 1_555 1_555
Cs3B O14 1_555 1_555
O10B Cs2 1_555 1_555
O11B Cs2 1_555 1_555
Cs2C O11A_2 1_555 1_555
Cs4B O14C 1_555 1_555
Cs4C O9A_2 1_555 1_555
Cs6A_2 O23 1_555 1_555
O9A_2 Cs3 1_555 1_555
O11A_2 Cs3 1_555 1_555
O14B Cs3 1_555 1_555
O14C Cs3 1_555 1_555
O20B Cs3 1_555 1_555
Cs3B_2 O9B 1_555 1_555
Cs5_2 O6B 1_555 1_555
O6B Cs4 1_555 1_555
O9B Cs4 1_555 1_555
O13_2 Cs4 1_555 1_555
O14A_2 Cs4 1_555 1_555
Cs4_2 O6B_2 1_555 1_555
Cs4A_2 O6C 1_555 1_555
O5B Cs5 1_555 1_555
O5C Cs5 1_555 1_555
O6B_2 Cs5 1_555 1_555
O6C Cs5 1_555 1_555
O13_3 Cs5 1_555 1_555
Cs5B O6 1_555 1_555
Cs4B_2 O6 1_555 1_555
Cs4_3 O14A 1_555 1_555
Cs4A_3 O13 1_555 1_555
Cs5_3 O13 1_555 1_555
Cs5B_2 O5A 1_555 1_555
Cs4C_2 O6A 1_555 1_555
Cs3_2 O9A 1_555 1_555
Cs4C_3 O9A 1_555 1_555
Cs2C_2 O10A 1_555 1_555
O10C Cs2A 1_555 1_555
O11C Cs2A 1_555 1_555
O19A Cs2A 1_555 1_555
O19C Cs2A 1_555 1_555
O6C_2 Cs4A 1_555 1_555
O9C Cs4A 1_555 1_555
O14_2 Cs4A 1_555 1_555
O23_2 Cs6A 1_555 1_555
Cs6 O11 1_555 1_555
Cs6 O23 1_555 1_555
S3 O11 1_555 1_555
S4 O14A 1_555 1_555
O11 Cs2B 1_555 1_555
O14 Cs4A_3 1_555 1_555
O17 Cs2A 1_555 1_555
O19 Cs2B 1_555 1_555
O20 Cs2A 1_555 1_555
O20 Cs3B 1_555 1_555
C3 C4 1_555 1_555
C6 C7 1_555 1_555
C9 C10 1_555 1_555
C10 C11 1_555 1_555
C16 C17 1_555 1_555
C17 C18 1_555 1_555
C22 C23 1_555 1_555
C24 C24A 1_555 1_555
C25 C24A 1_555 1_555
C2A C3A 1_555 1_555
C7A O4A 1_555 1_555
C10A C11A 1_555 1_555
O6A Cs5B_2 1_555 1_555
C14A O8A 1_555 1_555
C17A C18A 1_555 1_555
O10A Cs2A 1_555 1_555
O11A Cs6A 1_555 1_555
O11A Cs2C_2 1_555 1_555
O11A Cs3_2 1_555 1_555
C19A C20A 1_555 1_555
C20A C22A 1_555 1_555
O14A Cs3B 1_555 1_555
Cs4A O13_2 1_555 1_555
O19B Cs2B 1_555 1_555
Cs2B O10B 1_555 1_555
Cs2B O14C 1_555 1_555
Cs2B O20B 1_555 1_555
Cs3B O11B 1_555 1_555
Cs3B O11C 1_555 1_555
Cs2C O14B 1_555 1_555
Cs2C O20B 1_555 1_555
Cs4C O14B 1_555 1_555
Cs6A_2 O11A_2 1_555 1_555
Cs3B_2 O9C 1_555 1_555
Cs3B_2 O14_2 1_555 1_555
Cs3B_2 O14A_2 1_555 1_555
Cs5_2 O6C_2 1_555 1_555
Cs5_2 O13_2 1_555 1_555
Cs4_2 O13_3 1_555 1_555
Cs4A_2 O13_3 1_555 1_555
Cs3_2 O23_2 1_555 1_555
Cs2C_2 O10C 1_555 1_555
Cs2C_2 O19A 1_555 1_555
Cs2C_2 O19C 1_555 1_555

#END
