
#######################################################################
#
#                 Cambridge Crystallographic Data Centre
#                                CCDC 
#
#######################################################################
#
# If this CIF has been generated from an entry in the Cambridge 
# Structural Database, then it will include bibliographic, chemical, 
# crystal, experimental, refinement or atomic coordinate data resulting 
# from the CCDC's data processing and validation procedures.
#
#######################################################################

data_QAFMIV
_symmetry_cell_setting           orthorhombic
_symmetry_space_group_name_H-M   'P 21 21 21'
_symmetry_Int_Tables_number      19
_space_group_name_Hall           'P 2ac 2ab'
loop_
_symmetry_equiv_pos_site_id
_symmetry_equiv_pos_as_xyz
1 x,y,z
2 1/2-x,-y,1/2+z
3 -x,1/2+y,1/2-z
4 1/2+x,1/2-y,-z
_cell_length_a                   9.1609(18)
_cell_length_b                   9.761(2)
_cell_length_c                   25.249(5)
_cell_angle_alpha                90
_cell_angle_beta                 90
_cell_angle_gamma                90
_cell_volume                     2257.75
loop_
_atom_site_label
_atom_site_type_symbol
_atom_site_fract_x
_atom_site_fract_y
_atom_site_fract_z
Cd1 Cd 0.30828(2) 0.548608(18) 0.220227(7)
O1 O 0.0772(2) 0.5580(2) 0.18096(7)
H1 H 0.009(3) 0.538(4) 0.2026(9)
H2 H 0.075(4) 0.504(3) 0.1551(8)
O2 O 0.4303(3) 0.5747(2) 0.13399(9)
O3 O 0.3495(2) 0.3737(2) 0.15988(8)
O4 O 0.5266(4) 0.0973(4) -0.08902(11)
O5 O 0.2630(3) 0.5841(2) 0.31274(9)
O6 O 0.2164(2) 0.3789(2) 0.28119(8)
O7 O 0.1646(5) 0.1316(3) 0.54276(10)
N1 N 0.2868(2) 0.79248(19) 0.21985(9)
N2 N 0.1670(2) 0.9935(2) 0.25801(10)
N3 N 0.4318(2) 0.9960(2) 0.24326(9)
N4 N 0.2622(3) 1.0028(2) 0.16809(10)
C1 C 0.4091(3) 0.4490(3) 0.12616(10)
C2 C 0.4527(3) 0.3869(3) 0.07400(11)
C3 C 0.4141(4) 0.2522(3) 0.06245(12)
H3 H 0.3669 0.1994 0.0879
C4 C 0.4454(4) 0.1962(3) 0.01335(12)
H4 H 0.4184 0.1064 0.0058
C5 C 0.5164(4) 0.2734(4) -0.02437(12)
C6 C 0.5584(4) 0.4069(4) -0.01285(13)
H5 H 0.6078 0.4585 -0.0381
C7 C 0.5267(3) 0.4635(4) 0.03623(12)
H6 H 0.5550 0.5528 0.0438
C8 C 0.5490(4) 0.2153(5) -0.07724(14)
H7 H 0.5890 0.2729 -0.1028
C9 C 0.2316(3) 0.4596(4) 0.31923(11)
C10 C 0.2206(3) 0.4057(3) 0.37492(11)
C11 C 0.1594(3) 0.2775(3) 0.38423(12)
H8 H 0.1214 0.2272 0.3562
C12 C 0.1549(4) 0.2247(4) 0.43468(13)
H9 H 0.1123 0.1397 0.4408
C13 C 0.2138(4) 0.2986(3) 0.47641(12)
C14 C 0.2747(4) 0.4262(4) 0.46751(13)
H10 H 0.3141 0.4756 0.4956
C15 C 0.2768(4) 0.4805(3) 0.41681(12)
H11 H 0.3161 0.5670 0.4109
C16 C 0.2115(5) 0.2422(4) 0.53101(13)
H12 H 0.2491 0.2965 0.5580
C17 C 0.1679(3) 0.8427(3) 0.25489(11)
H13 H 0.0746 0.8111 0.2414
H14 H 0.1808 0.8049 0.2901
C18 C 0.4268(3) 0.8443(3) 0.24065(11)
H15 H 0.5055 0.8121 0.2182
H16 H 0.4424 0.8073 0.2759
C19 C 0.3098(3) 1.0402(2) 0.27805(10)
H17 H 0.3249 1.0037 0.3134
H18 H 0.3096 1.1393 0.2805
C20 C 0.2631(3) 0.8524(3) 0.16605(11)
H19 H 0.3402 0.8219 0.1425
H20 H 0.1708 0.8201 0.1520
C21 C 0.1480(3) 1.0481(4) 0.20401(11)
H21 H 0.0540 1.0188 0.1904
H22 H 0.1479 1.1474 0.2054
C22 C 0.4022(3) 1.0493(4) 0.18867(10)
H23 H 0.4034 1.1487 0.1894
H24 H 0.4794 1.0192 0.1651
Cd1B Cd 0.69172(2) 1.048608(18) 0.279773(7)
N3B N 0.5682(2) 0.4960(2) 0.25674(9)
loop_
_geom_bond_atom_site_label_1
_geom_bond_atom_site_label_2
_geom_bond_site_symmetry_1
_geom_bond_site_symmetry_2
Cd1 O1 1_555 1_555
O1 H1 1_555 1_555
H2 O1 1_555 1_555
O2 Cd1 1_555 1_555
O3 Cd1 1_555 1_555
O4 C8 1_555 1_555
O5 Cd1 1_555 1_555
O6 Cd1 1_555 1_555
O7 C16 1_555 1_555
N1 Cd1 1_555 1_555
N2 C17 1_555 1_555
N3 C18 1_555 1_555
N4 C20 1_555 1_555
C1 O2 1_555 1_555
C2 C1 1_555 1_555
C3 C2 1_555 1_555
H3 C3 1_555 1_555
C4 C3 1_555 1_555
H4 C4 1_555 1_555
C5 C4 1_555 1_555
C6 C5 1_555 1_555
H5 C6 1_555 1_555
C7 C2 1_555 1_555
H6 C7 1_555 1_555
C8 C5 1_555 1_555
H7 C8 1_555 1_555
C9 O5 1_555 1_555
C10 C9 1_555 1_555
C11 C10 1_555 1_555
H8 C11 1_555 1_555
C12 C11 1_555 1_555
H9 C12 1_555 1_555
C13 C12 1_555 1_555
C14 C13 1_555 1_555
H10 C14 1_555 1_555
C15 C10 1_555 1_555
H11 C15 1_555 1_555
C16 C13 1_555 1_555
H12 C16 1_555 1_555
C17 N1 1_555 1_555
H13 C17 1_555 1_555
H14 C17 1_555 1_555
C18 N1 1_555 1_555
H15 C18 1_555 1_555
H16 C18 1_555 1_555
C19 N2 1_555 1_555
H17 C19 1_555 1_555
H18 C19 1_555 1_555
C20 N1 1_555 1_555
H19 C20 1_555 1_555
H20 C20 1_555 1_555
C21 N2 1_555 1_555
H21 C21 1_555 1_555
H22 C21 1_555 1_555
C22 N3 1_555 1_555
H23 C22 1_555 1_555
H24 C22 1_555 1_555
Cd1B N3 1_555 1_555
N3B Cd1 1_555 1_555
O3 C1 1_555 1_555
O6 C9 1_555 1_555
N3 C19 1_555 1_555
N4 C21 1_555 1_555
N4 C22 1_555 1_555
C6 C7 1_555 1_555
C14 C15 1_555 1_555

#END
