
#######################################################################
#
#                 Cambridge Crystallographic Data Centre
#                                CCDC 
#
#######################################################################
#
# If this CIF has been generated from an entry in the Cambridge 
# Structural Database, then it will include bibliographic, chemical, 
# crystal, experimental, refinement or atomic coordinate data resulting 
# from the CCDC's data processing and validation procedures.
#
#######################################################################

data_QAFNAO
_symmetry_cell_setting           triclinic
_symmetry_space_group_name_H-M   'P -1'
_symmetry_Int_Tables_number      2
_space_group_name_Hall           '-P 1'
loop_
_symmetry_equiv_pos_site_id
_symmetry_equiv_pos_as_xyz
1 x,y,z
2 -x,-y,-z
_cell_length_a                   6.9254(9)
_cell_length_b                   7.3890(10)
_cell_length_c                   9.8799(13)
_cell_angle_alpha                109.538(2)
_cell_angle_beta                 101.398(3)
_cell_angle_gamma                94.732(2)
_cell_volume                     460.984
loop_
_atom_site_label
_atom_site_type_symbol
_atom_site_fract_x
_atom_site_fract_y
_atom_site_fract_z
Mn1 Mn 0.0000 0.0000 0.0000
O1 O 0.8883(3) 0.2946(4) 0.5888(2)
N1 N -0.3021(3) 0.5467(3) 0.1473(2)
N2 N -0.1439(3) 0.2546(3) 0.0927(2)
N3 N -0.1872(3) 0.8232(3) 0.0834(3)
N4 N 0.2377(3) 0.0943(3) 0.2158(2)
N5 N 0.6842(4) 0.3992(5) 0.7367(3)
H1 H 0.574(5) 0.410(4) 0.747(3)
H2 H 0.785(6) 0.461(6) 0.808(4)
C1 C -0.2133(3) 0.3948(3) 0.1174(2)
C2 C -0.2356(3) 0.6911(3) 0.1124(2)
C3 C 0.4281(4) 0.0874(5) 0.2126(3)
H3 H 0.4576 0.0337 0.1210
C4 C 0.5832(4) 0.1545(4) 0.3356(3)
H4 H 0.7136 0.1462 0.3265
C5 C 0.5449(4) 0.2344(3) 0.4733(3)
C6 C 0.3480(4) 0.2403(4) 0.4791(3)
H5 H 0.3149 0.2920 0.5696
C7 C 0.2007(4) 0.1688(4) 0.3494(3)
H6 H 0.0687 0.1728 0.3554
C8 C 0.7209(4) 0.3110(4) 0.6050(3)
Mn1_2 Mn 0.0000 -1.0000 0.0000
Mn1_3 Mn 0.0000 1.0000 0.0000
O1A O -0.8883(3) -0.2946(4) -0.5888(2)
N1A N 0.3021(3) -0.5467(3) -0.1473(2)
N2A N 0.1439(3) -0.2546(3) -0.0927(2)
N3A N 0.1872(3) -0.8232(3) -0.0834(3)
N3_2 N -0.1872(3) -0.1768(3) 0.0834(3)
N3A_2 N 0.1872(3) 0.1768(3) -0.0834(3)
N4A N -0.2377(3) -0.0943(3) -0.2158(2)
N5A N -0.6842(4) -0.3992(5) -0.7367(3)
H1A H -0.574(5) -0.410(4) -0.747(3)
H2A H -0.785(6) -0.461(6) -0.808(4)
C1A C 0.2133(3) -0.3948(3) -0.1174(2)
C2A C 0.2356(3) -0.6911(3) -0.1124(2)
C3A C -0.4281(4) -0.0874(5) -0.2126(3)
H3A H -0.4576 -0.0337 -0.1210
C4A C -0.5832(4) -0.1545(4) -0.3356(3)
H4A H -0.7136 -0.1462 -0.3265
C5A C -0.5449(4) -0.2344(3) -0.4733(3)
C6A C -0.3480(4) -0.2403(4) -0.4791(3)
H5A H -0.3149 -0.2920 -0.5696
C7A C -0.2007(4) -0.1688(4) -0.3494(3)
H6A H -0.0687 -0.1728 -0.3554
C8A C -0.7209(4) -0.3110(4) -0.6050(3)
loop_
_geom_bond_atom_site_label_1
_geom_bond_atom_site_label_2
_geom_bond_site_symmetry_1
_geom_bond_site_symmetry_2
Mn1 N2 1_555 1_555
O1 C8 1_555 1_555
N1 C1 1_555 1_555
N2 C1 1_555 1_555
N3 C2 1_555 1_555
N4 Mn1 1_555 1_555
N5 H1 1_555 1_555
H2 N5 1_555 1_555
C2 N1 1_555 1_555
C3 N4 1_555 1_555
H3 C3 1_555 1_555
C4 C3 1_555 1_555
H4 C4 1_555 1_555
C5 C4 1_555 1_555
C6 C5 1_555 1_555
H5 C6 1_555 1_555
C7 N4 1_555 1_555
H6 C7 1_555 1_555
C8 N5 1_555 1_555
Mn1_2 N3A 1_555 1_555
Mn1_3 N3 1_555 1_555
O1A C8A 1_555 1_555
N1A C1A 1_555 1_555
N2A Mn1 1_555 1_555
N3A C2A 1_555 1_555
N3_2 Mn1 1_555 1_555
N3A_2 Mn1 1_555 1_555
N4A Mn1 1_555 1_555
N5A H1A 1_555 1_555
H2A N5A 1_555 1_555
C1A N2A 1_555 1_555
C2A N1A 1_555 1_555
C3A N4A 1_555 1_555
H3A C3A 1_555 1_555
C4A C3A 1_555 1_555
H4A C4A 1_555 1_555
C5A C4A 1_555 1_555
C6A C5A 1_555 1_555
H5A C6A 1_555 1_555
C7A N4A 1_555 1_555
H6A C7A 1_555 1_555
C8A N5A 1_555 1_555
C5 C8 1_555 1_555
C6 C7 1_555 1_555
C5A C8A 1_555 1_555
C6A C7A 1_555 1_555

#END
