
#######################################################################
#
#                 Cambridge Crystallographic Data Centre
#                                CCDC 
#
#######################################################################
#
# If this CIF has been generated from an entry in the Cambridge 
# Structural Database, then it will include bibliographic, chemical, 
# crystal, experimental, refinement or atomic coordinate data resulting 
# from the CCDC's data processing and validation procedures.
#
#######################################################################

data_QAFNIV
_symmetry_cell_setting           orthorhombic
_symmetry_space_group_name_H-M   'P b c a'
_symmetry_Int_Tables_number      61
_space_group_name_Hall           '-P 2ac 2ab'
loop_
_symmetry_equiv_pos_site_id
_symmetry_equiv_pos_as_xyz
1 x,y,z
2 1/2+x,y,1/2-z
3 x,1/2-y,1/2+z
4 1/2-x,1/2+y,z
5 -x,-y,-z
6 1/2-x,-y,1/2+z
7 -x,1/2+y,1/2-z
8 1/2+x,1/2-y,-z
_cell_length_a                   9.3997(3)
_cell_length_b                   8.6639(2)
_cell_length_c                   22.3783(7)
_cell_angle_alpha                90
_cell_angle_beta                 90
_cell_angle_gamma                90
_cell_volume                     1822.45
loop_
_atom_site_label
_atom_site_type_symbol
_atom_site_fract_x
_atom_site_fract_y
_atom_site_fract_z
Sn1 Sn 0.249398(19) 0.089825(16) -0.074151(7)
F1 F 0.23507(15) -0.15920(14) -0.07456(7)
C1 C 0.3040(3) 0.0927(3) 0.01741(12)
H1 H 0.2833 -0.0061 0.0348
H2 H 0.2498 0.1711 0.0375
H3 H 0.4036 0.1144 0.0216
C2 C 0.0355(3) 0.1046(3) -0.10298(15)
H4 H 0.0099 0.2110 -0.1082
H5 H -0.0255 0.0585 -0.0736
H6 H 0.0250 0.0510 -0.1403
C3 C 0.4209(3) 0.0820(3) -0.13582(12)
C4 C 0.5309(3) 0.1895(3) -0.13044(13)
H7 H 0.5256 0.2643 -0.1007
C5 C 0.6471(3) 0.1876(4) -0.16812(14)
H8 H 0.7196 0.2597 -0.1634
C6 C 0.6551(4) 0.0783(4) -0.21267(14)
H9 H 0.7327 0.0774 -0.2385
C7 C 0.5485(4) -0.0295(4) -0.21911(14)
H10 H 0.5542 -0.1031 -0.2493
C8 C 0.4328(3) -0.0287(3) -0.18073(11)
H11 H 0.3621 -0.1030 -0.1850
F1C F 0.26493(15) 0.34080(14) -0.07456(7)
Sn1C Sn 0.250602(19) -0.410175(16) -0.074151(7)
loop_
_geom_bond_atom_site_label_1
_geom_bond_atom_site_label_2
_geom_bond_site_symmetry_1
_geom_bond_site_symmetry_2
Sn1 F1 1_555 1_555
F1 Sn1C 1_555 1_555
C1 Sn1 1_555 1_555
H1 C1 1_555 1_555
H2 C1 1_555 1_555
H3 C1 1_555 1_555
C2 Sn1 1_555 1_555
H4 C2 1_555 1_555
H5 C2 1_555 1_555
H6 C2 1_555 1_555
C3 Sn1 1_555 1_555
C4 C3 1_555 1_555
H7 C4 1_555 1_555
C5 C4 1_555 1_555
H8 C5 1_555 1_555
C6 C5 1_555 1_555
H9 C6 1_555 1_555
C7 C6 1_555 1_555
H10 C7 1_555 1_555
C8 C3 1_555 1_555
H11 C8 1_555 1_555
F1C Sn1 1_555 1_555
C7 C8 1_555 1_555

#END
