
#######################################################################
#
#                 Cambridge Crystallographic Data Centre
#                                CCDC 
#
#######################################################################
#
# If this CIF has been generated from an entry in the Cambridge 
# Structural Database, then it will include bibliographic, chemical, 
# crystal, experimental, refinement or atomic coordinate data resulting 
# from the CCDC's data processing and validation procedures.
#
#######################################################################

data_QAFTAT
_symmetry_cell_setting           orthorhombic
_symmetry_space_group_name_H-M   'P b c m'
_symmetry_Int_Tables_number      57
_space_group_name_Hall           '-P 2c 2b'
loop_
_symmetry_equiv_pos_site_id
_symmetry_equiv_pos_as_xyz
1 x,y,z
2 x,y,1/2-z
3 x,1/2-y,1/2+z
4 -x,1/2+y,z
5 -x,-y,-z
6 -x,-y,1/2+z
7 -x,1/2+y,1/2-z
8 x,1/2-y,-z
_cell_length_a                   7.5801(12)
_cell_length_b                   14.511(3)
_cell_length_c                   26.041(5)
_cell_angle_alpha                90
_cell_angle_beta                 90
_cell_angle_gamma                90
_cell_volume                     2864.38
loop_
_atom_site_label
_atom_site_type_symbol
_atom_site_fract_x
_atom_site_fract_y
_atom_site_fract_z
Zn1 Zn 0.95886(5) 0.06909(2) 0.547444(14)
N1 N 0.7086(3) 0.11197(18) 0.56864(11)
N2 N 1.0535(4) 0.05225(17) 0.62012(11)
C1 C 1.4515(4) -0.0883(2) 0.62344(15)
H1 H 1.4593 -0.0841 0.6590
C2 C 1.3042(4) -0.0482(2) 0.59883(13)
C3 C 1.2831(4) -0.05737(18) 0.54539(12)
C4 C 1.4179(4) -0.1049(2) 0.51772(14)
C5 C 1.5638(4) -0.1397(2) 0.54510(15)
H2 H 1.6525 -0.1691 0.5266
C6 C 1.5831(4) -0.1330(2) 0.59757(15)
C7 C 1.7382(5) -0.1749(3) 0.62490(17)
H3 H 1.7283 -0.1634 0.6611
H4 H 1.7401 -0.2401 0.6189
H5 H 1.8453 -0.1479 0.6122
C8 C 0.6713(5) 0.1427(3) 0.62197(14)
H6 H 0.5460 0.1359 0.6285
H7 H 0.6996 0.2077 0.6248
C9 C 0.7735(6) 0.0899(3) 0.66320(16)
H8 H 0.7293 0.1083 0.6966
H9 H 0.7494 0.0247 0.6592
C10 C 0.9680(5) 0.1037(3) 0.66248(15)
H10 H 0.9934 0.1688 0.6587
H11 H 1.0171 0.0834 0.6950
C11 C 1.1877(5) 0.0049(2) 0.63266(14)
H12 H 1.2154 0.0039 0.6674
C12 C 0.9961(6) 0.2500 0.5000
H13 H 0.8694 0.2500 0.5000
C13 C 0.5821(4) 0.1215(2) 0.53666(13)
H14 H 0.4726 0.1426 0.5510
O1 O 1.0710(3) 0.18617(14) 0.52309(10)
O2 O 1.1442(3) -0.02377(14) 0.52101(9)
C13D C 1.4179(4) -0.1215(2) 0.46334(13)
N1D N 1.2914(3) -0.11197(18) 0.43136(11)
C8D C 1.3287(5) -0.1427(3) 0.37803(14)
H6D H 1.4540 -0.1359 0.3715
H7D H 1.3004 -0.2077 0.3752
C9D C 1.2265(6) -0.0899(3) 0.33680(16)
H8D H 1.2707 -0.1083 0.3034
H9D H 1.2506 -0.0247 0.3408
C10D C 1.0320(5) -0.1037(3) 0.33752(15)
N2D N 0.9465(4) -0.05225(17) 0.37988(11)
C11D C 0.8123(5) -0.0049(2) 0.36734(14)
C2D C 0.6958(4) 0.0482(2) 0.40117(13)
C1D C 0.5485(4) 0.0883(2) 0.37656(15)
H1D H 0.5407 0.0841 0.3410
C6D C 0.4169(4) 0.1330(2) 0.40243(15)
C5D C 0.4362(4) 0.1397(2) 0.45490(15)
C4D C 0.5821(4) 0.1049(2) 0.48228(14)
C3D C 0.7169(4) 0.05737(18) 0.45461(12)
O2D O 0.8558(3) 0.02377(14) 0.47899(9)
H2D H 0.3475 0.1691 0.4734
C7D C 0.2618(5) 0.1749(3) 0.37510(17)
H3D H 0.2717 0.1634 0.3389
H4D H 0.2599 0.2401 0.3811
H5D H 0.1547 0.1479 0.3878
H12D H 0.7846 -0.0039 0.3326
H10D H 1.0066 -0.1688 0.3413
H11D H 0.9829 -0.0834 0.3050
H14D H 1.5274 -0.1426 0.4490
O1G O 1.0710(3) 0.31383(14) 0.47691(10)
Zn1D Zn 1.04114(5) -0.06909(2) 0.452556(14)
Zn1G Zn 0.95886(5) 0.43091(2) 0.452556(14)
O1D O 0.9290(3) -0.18617(14) 0.47691(10)
Cl1 Cl 0.8776(4) 0.16119(12) 0.2500
O3 O 0.8853(15) 0.1724(5) 0.30389(17)
O4 O 1.0295(9) 0.1047(6) 0.2500
O5 O 0.7529(11) 0.0873(5) 0.2500
O3A O 0.8853(15) 0.1724(5) 0.19611(17)
O9 O 0.400(3) 0.1880(15) 0.7500
O6? O 0.7739(11) 0.2142(5) 0.2818(3)
O7? O 0.9315(19) 0.0676(4) 0.2500
O8? O 1.0159(10) 0.2279(6) 0.2500
loop_
_geom_bond_atom_site_label_1
_geom_bond_atom_site_label_2
_geom_bond_site_symmetry_1
_geom_bond_site_symmetry_2
Zn1 N1 1_555 1_555
N1 C8 1_555 1_555
N2 Zn1 1_555 1_555
C1 H1 1_555 1_555
C2 C1 1_555 1_555
C3 C2 1_555 1_555
C4 C3 1_555 1_555
C5 C4 1_555 1_555
H2 C5 1_555 1_555
C6 C1 1_555 1_555
C7 C6 1_555 1_555
H3 C7 1_555 1_555
H4 C7 1_555 1_555
H5 C7 1_555 1_555
C8 H6 1_555 1_555
H7 C8 1_555 1_555
C9 C8 1_555 1_555
H8 C9 1_555 1_555
H9 C9 1_555 1_555
C10 N2 1_555 1_555
H10 C10 1_555 1_555
H11 C10 1_555 1_555
C11 N2 1_555 1_555
H12 C11 1_555 1_555
C12 H13 1_555 1_555
C13 N1 1_555 1_555
H14 C13 1_555 1_555
O1 Zn1 1_555 1_555
O2 Zn1 1_555 1_555
Cl1 O3 1_555 1_555
O4 Cl1 1_555 1_555
O5 Cl1 1_555 1_555
C13D C4 1_555 1_555
N1D C13D 1_555 1_555
C8D N1D 1_555 1_555
H6D C8D 1_555 1_555
H7D C8D 1_555 1_555
C9D C8D 1_555 1_555
H8D C9D 1_555 1_555
H9D C9D 1_555 1_555
C10D C9D 1_555 1_555
N2D C10D 1_555 1_555
C11D N2D 1_555 1_555
C2D C11D 1_555 1_555
C1D C2D 1_555 1_555
H1D C1D 1_555 1_555
C6D C1D 1_555 1_555
C5D C6D 1_555 1_555
C4D C13 1_555 1_555
C3D C2D 1_555 1_555
O2D Zn1 1_555 1_555
H2D C5D 1_555 1_555
C7D C6D 1_555 1_555
H3D C7D 1_555 1_555
H4D C7D 1_555 1_555
H5D C7D 1_555 1_555
H12D C11D 1_555 1_555
H10D C10D 1_555 1_555
H11D C10D 1_555 1_555
H14D C13D 1_555 1_555
O1G C12 1_555 1_555
O3A Cl1 1_555 1_555
Zn1D O2 1_555 1_555
Zn1G O1G 1_555 1_555
O1D Zn1D 1_555 1_555
C2 C11 1_555 1_555
C3 O2 1_555 1_555
C5 C6 1_555 1_555
C9 C10 1_555 1_555
C12 O1 1_555 1_555
N1D Zn1D 1_555 1_555
N2D Zn1D 1_555 1_555
C5D C4D 1_555 1_555
C4D C3D 1_555 1_555
C3D O2D 1_555 1_555
O2D Zn1D 1_555 1_555

#END
