
#######################################################################
#
#                 Cambridge Crystallographic Data Centre
#                                CCDC 
#
#######################################################################
#
# If this CIF has been generated from an entry in the Cambridge 
# Structural Database, then it will include bibliographic, chemical, 
# crystal, experimental, refinement or atomic coordinate data resulting 
# from the CCDC's data processing and validation procedures.
#
#######################################################################

data_QAGKOA
_symmetry_cell_setting           tetragonal
_symmetry_space_group_name_H-M   'P 43 21 2'
_symmetry_Int_Tables_number      96
_space_group_name_Hall           'P 4nw 2abw'
loop_
_symmetry_equiv_pos_site_id
_symmetry_equiv_pos_as_xyz
1 x,y,z
2 -x,-y,1/2+z
3 1/2-y,1/2+x,3/4+z
4 1/2+y,1/2-x,1/4+z
5 1/2-x,1/2+y,3/4-z
6 1/2+x,1/2-y,1/4-z
7 y,x,-z
8 -y,-x,1/2-z
_cell_length_a                   10.9321(7)
_cell_length_b                   10.9321(7)
_cell_length_c                   28.839(4)
_cell_angle_alpha                90
_cell_angle_beta                 90
_cell_angle_gamma                90
_cell_volume                     3446.57
loop_
_atom_site_label
_atom_site_type_symbol
_atom_site_fract_x
_atom_site_fract_y
_atom_site_fract_z
Zn1 Zn -0.01090(6) 0.01194(6) 0.198058(19)
O1 O 0.1686(8) 0.0124(4) 0.21775(15)
O2 O -0.0173(4) 0.0070(4) 0.12976(12)
O3 O 0.1730(8) 0.0038(4) 0.29477(15)
O4 O 0.8030(7) 0.0097(4) 0.29415(16)
O5 O 0.8098(8) 0.0094(4) 0.21662(15)
N1 N -0.1218(7) 0.0927(7) 0.0709(2)
N2 N 0.0636(7) 0.1734(7) 0.0948(2)
C1 C 0.4241(7) 0.0519(6) 0.2879(2)
H1 H 0.3826 0.0939 0.3111
C2 C 0.5526(7) 0.0522(6) 0.2870(2)
H2 H 0.5950 0.0951 0.3098
C3 C 0.4228(7) -0.0797(7) 0.2199(2)
C4 C 0.5539(7) -0.0789(6) 0.2197(2)
C5 C 0.2223(8) 0.0033(5) 0.2559(2)
C6 C 0.7550(7) 0.0032(5) 0.2548(2)
C7 C 0.6170(7) -0.0089(5) 0.2537(2)
C8 C 0.3605(7) -0.0096(5) 0.2549(2)
C9 C 0.1799(8) 0.1566(9) 0.1178(3)
H3 H 0.1959 0.0708 0.1214
H4 H 0.1776 0.1950 0.1477
H5 H 0.2436 0.1930 0.0994
C10 C -0.2262(8) 0.0162(9) 0.0812(3)
H6 H -0.2204 -0.0130 0.1125
H7 H -0.2275 -0.0521 0.0602
H8 H -0.2999 0.0630 0.0776
C11 C 0.0359(11) 0.3045(8) 0.0858(3)
H9 H -0.0419 0.3112 0.0706
H10 H 0.0984 0.3387 0.0663
H11 H 0.0335 0.3483 0.1146
C12 C -0.0259(8) 0.0898(7) 0.0996(2)
C13 C 0.3604(8) -0.1516(7) 0.1866(3)
H12 H 0.2754 -0.1535 0.1865
C14 C 0.6154(7) -0.1490(7) 0.1860(3)
H13 H 0.7005 -0.1492 0.1854
C15 C 0.4245(7) -0.2189(8) 0.1543(3)
H14 H 0.3822 -0.2658 0.1327
C16 C 0.5518(8) -0.2176(8) 0.1536(3)
H15 H 0.5941 -0.2627 0.1315
C17 C -0.1137(11) 0.1400(10) 0.0234(3)
H16 H -0.0410 0.1887 0.0203
H17 H -0.1841 0.1894 0.0169
H18 H -0.1105 0.0728 0.0020
Zn1G Zn -0.01194(6) 0.01090(6) 0.301942(19)
Zn1G_2 Zn 0.98806(6) 0.01090(6) 0.301942(19)
Zn1_2 Zn 0.98910(6) 0.01194(6) 0.198058(19)
O3G O -0.0038(4) -0.1730(8) 0.20523(15)
O4G O -0.0097(4) 0.1970(7) 0.20585(16)
O5_2 O -0.1902(8) 0.0094(4) 0.21662(15)
loop_
_geom_bond_atom_site_label_1
_geom_bond_atom_site_label_2
_geom_bond_site_symmetry_1
_geom_bond_site_symmetry_2
Zn1 O1 1_555 1_555
O1 C5 1_555 1_555
O2 Zn1 1_555 1_555
O3 C5 1_555 1_555
O4 C6 1_555 1_555
O5 C6 1_555 1_555
N1 C10 1_555 1_555
N2 C9 1_555 1_555
C1 H1 1_555 1_555
C2 C1 1_555 1_555
H2 C2 1_555 1_555
C3 C4 1_555 1_555
C4 C7 1_555 1_555
C5 C8 1_555 1_555
C6 C7 1_555 1_555
C7 C2 1_555 1_555
C8 C1 1_555 1_555
C9 H3 1_555 1_555
H4 C9 1_555 1_555
H5 C9 1_555 1_555
C10 H6 1_555 1_555
H7 C10 1_555 1_555
H8 C10 1_555 1_555
C11 N2 1_555 1_555
H9 C11 1_555 1_555
H10 C11 1_555 1_555
H11 C11 1_555 1_555
C12 O2 1_555 1_555
C13 C3 1_555 1_555
H12 C13 1_555 1_555
C14 C4 1_555 1_555
H13 C14 1_555 1_555
C15 C13 1_555 1_555
H14 C15 1_555 1_555
C16 C14 1_555 1_555
H15 C16 1_555 1_555
C17 N1 1_555 1_555
H16 C17 1_555 1_555
H17 C17 1_555 1_555
H18 C17 1_555 1_555
Zn1G O3 1_555 1_555
Zn1G_2 O4 1_555 1_555
Zn1_2 O5 1_555 1_555
O3G Zn1 1_555 1_555
O4G Zn1 1_555 1_555
O5_2 Zn1 1_555 1_555
N1 C12 1_555 1_555
N2 C12 1_555 1_555
C3 C8 1_555 1_555
C15 C16 1_555 1_555

#END
