
#######################################################################
#
#                 Cambridge Crystallographic Data Centre
#                                CCDC 
#
#######################################################################
#
# If this CIF has been generated from an entry in the Cambridge 
# Structural Database, then it will include bibliographic, chemical, 
# crystal, experimental, refinement or atomic coordinate data resulting 
# from the CCDC's data processing and validation procedures.
#
#######################################################################

data_QAGTIB03
_symmetry_cell_setting           monoclinic
_symmetry_space_group_name_H-M   'C 2/c'
_symmetry_Int_Tables_number      15
_space_group_name_Hall           '-C 2yn'
loop_
_symmetry_equiv_pos_site_id
_symmetry_equiv_pos_as_xyz
1 x,y,z
2 1/2+x,1/2+y,z
3 -x,y,1/2-z
4 1/2-x,1/2+y,1/2-z
5 -x,-y,-z
6 1/2-x,1/2-y,-z
7 x,-y,1/2+z
8 1/2+x,1/2-y,1/2+z
_cell_length_a                   41.095(8)
_cell_length_b                   14.524(3)
_cell_length_c                   14.157(3)
_cell_angle_alpha                90
_cell_angle_beta                 109.63(3)
_cell_angle_gamma                90
_cell_volume                     7958.71
loop_
_atom_site_label
_atom_site_type_symbol
_atom_site_fract_x
_atom_site_fract_y
_atom_site_fract_z
Cu1 Cu 0.73196(3) 0.18196(8) 0.30140(8)
Cu2 Cu 0.73196(3) 0.31783(8) 0.16260(8)
Cu3 Cu 1.01803(3) 0.18063(8) 0.58585(8)
Cu4 Cu 0.51805(3) -0.18061(8) 0.45013(8)
I1 I 0.719846(19) 0.14311(5) 0.11724(5)
I2 I 0.719824(19) 0.35693(5) 0.32244(5)
I3 I 1.030202(19) 0.14748(5) 0.42326(5)
I4 I 1.030169(19) 0.35260(5) 0.63713(5)
N1 N 0.78277(19) 0.1613(5) 0.3700(6)
N2 N 0.96737(19) 0.1628(6) 0.5565(5)
N3 N 0.7826(2) 0.3392(5) 0.1955(6)
N4 N 0.96736(19) 0.3382(6) 0.3785(5)
N5 N 0.6932(2) 0.3773(6) 0.0501(6)
N6 N 0.5565(2) 0.6069(6) -0.3165(5)
N7 N 0.6938(2) 0.1235(6) 0.3368(6)
N8 N 0.5566(2) -0.1067(6) 0.4293(6)
C1 C 0.8009(3) 0.2077(8) 0.4524(7)
H1 H 0.7889 0.2432 0.4845
C2 C 0.8365(2) 0.2057(7) 0.4922(7)
H2 H 0.8477 0.2391 0.5500
C3 C 0.8552(2) 0.1556(6) 0.4479(6)
C4 C 0.8950(2) 0.1578(6) 0.4901(6)
C5 C 0.9129(3) 0.2200(8) 0.5576(8)
H3 H 0.9011 0.2632 0.5822
C6 C 0.9488(3) 0.2210(8) 0.5912(8)
H4 H 0.9603 0.2637 0.6398
C7 C 0.9489(3) 0.0983(7) 0.4915(8)
H5 H 0.9610 0.0543 0.4687
C8 C 0.9136(2) 0.0938(7) 0.4571(7)
H6 H 0.9023 0.0480 0.4121
C9 C 0.8367(3) 0.1047(8) 0.3676(8)
H7 H 0.8483 0.0667 0.3367
C10 C 0.8012(3) 0.1075(8) 0.3304(8)
H8 H 0.7896 0.0707 0.2757
C11 C 0.8010(3) 0.3921(8) 0.2717(8)
H9 H 0.7892 0.4288 0.3035
C12 C 0.8372(3) 0.3948(8) 0.3061(8)
H10 H 0.8489 0.4319 0.3604
C13 C 0.8548(2) 0.3450(6) 0.2619(7)
C14 C 0.8951(2) 0.3426(6) 0.3006(6)
C15 C 0.9137(2) 0.4060(7) 0.3700(7)
H11 H 0.9023 0.4521 0.3921
C16 C 0.9492(3) 0.4010(7) 0.4067(7)
H12 H 0.9611 0.4443 0.4541
C17 C 0.9489(3) 0.2794(7) 0.3063(7)
H13 H 0.9607 0.2363 0.2814
C18 C 0.9133(3) 0.2808(7) 0.2681(7)
H14 H 0.9017 0.2383 0.2192
C19 C 0.8365(2) 0.2931(7) 0.1803(7)
H15 H 0.8480 0.2585 0.1460
C20 C 0.8008(2) 0.2927(7) 0.1497(7)
H16 H 0.7888 0.2578 0.0937
C21 C 0.6604(3) 0.3667(7) 0.0446(7)
H17 H 0.6558 0.3305 0.0927
C22 C 0.6326(2) 0.4074(6) -0.0304(7)
H18 H 0.6101 0.3993 -0.0308
C23 C 0.6390(2) 0.4587(6) -0.1025(6)
C24 C 0.6108(2) 0.5075(6) -0.1801(5)
C25 C 0.5767(3) 0.4810(7) -0.2076(7)
H19 H 0.5711 0.4275 -0.1803
C26 C 0.5504(2) 0.5319(7) -0.2749(6)
H20 H 0.5277 0.5117 -0.2908
C27 C 0.5900(3) 0.6336(7) -0.2933(7)
H21 H 0.5947 0.6853 -0.3251
C28 C 0.6174(2) 0.5875(7) -0.2247(6)
H22 H 0.6399 0.6097 -0.2088
C29 C 0.6735(2) 0.4655(7) -0.0956(7)
H23 H 0.6792 0.4986 -0.1440
C30 C 0.6993(2) 0.4245(6) -0.0190(7)
H24 H 0.7220 0.4310 -0.0170
C31 C 0.6996(2) 0.0758(6) 0.4184(7)
H25 H 0.7222 0.0698 0.4617
C32 C 0.6737(2) 0.0341(7) 0.4427(6)
H26 H 0.6792 0.0003 0.5018
C33 C 0.6391(2) 0.0409(5) 0.3812(6)
C34 C 0.6110(2) -0.0082(6) 0.4026(5)
C35 C 0.6174(2) -0.0878(7) 0.4599(6)
H27 H 0.6398 -0.1091 0.4899
C36 C 0.5896(3) -0.1354(7) 0.4719(7)
H28 H 0.5940 -0.1887 0.5105
C37 C 0.5505(2) -0.0307(7) 0.3762(6)
H29 H 0.5278 -0.0102 0.3486
C38 C 0.5763(2) 0.0197(6) 0.3601(7)
H30 H 0.5709 0.0725 0.3208
C39 C 0.6323(2) 0.0919(7) 0.2945(7)
H31 H 0.6099 0.0988 0.2501
C40 C 0.6601(2) 0.1325(7) 0.2758(7)
H32 H 0.6556 0.1681 0.2182
Cu3A Cu 0.51803(3) 0.68063(8) -0.41415(8)
Cu4A Cu 1.01805(3) 0.31939(8) 0.45013(8)
I3A I 0.530202(19) -0.35252(5) 0.42326(5)
I4A I 0.530169(19) -0.14740(5) 0.63713(5)
N4A N 0.46736(19) -0.1618(6) 0.3785(5)
N6A N 1.0565(2) 0.1069(6) 0.6835(5)
loop_
_geom_bond_atom_site_label_1
_geom_bond_atom_site_label_2
_geom_bond_site_symmetry_1
_geom_bond_site_symmetry_2
Cu1 I1 1_555 1_555
Cu2 I1 1_555 1_555
Cu3 I3 1_555 1_555
Cu4 N8 1_555 1_555
I2 Cu1 1_555 1_555
I3 Cu4A 1_555 1_555
I4 Cu3 1_555 1_555
N1 Cu1 1_555 1_555
N2 Cu3 1_555 1_555
N3 Cu2 1_555 1_555
N4 C16 1_555 1_555
N5 Cu2 1_555 1_555
N6 C26 1_555 1_555
N7 Cu1 1_555 1_555
N8 C36 1_555 1_555
C1 N1 1_555 1_555
H1 C1 1_555 1_555
C2 C1 1_555 1_555
H2 C2 1_555 1_555
C3 C2 1_555 1_555
C4 C3 1_555 1_555
C5 C4 1_555 1_555
H3 C5 1_555 1_555
C6 N2 1_555 1_555
H4 C6 1_555 1_555
C7 N2 1_555 1_555
H5 C7 1_555 1_555
C8 C4 1_555 1_555
H6 C8 1_555 1_555
C9 C3 1_555 1_555
H7 C9 1_555 1_555
C10 N1 1_555 1_555
H8 C10 1_555 1_555
C11 N3 1_555 1_555
H9 C11 1_555 1_555
C12 C11 1_555 1_555
H10 C12 1_555 1_555
C13 C12 1_555 1_555
C14 C13 1_555 1_555
C15 C14 1_555 1_555
H11 C15 1_555 1_555
C16 C15 1_555 1_555
H12 C16 1_555 1_555
C17 N4 1_555 1_555
H13 C17 1_555 1_555
C18 C14 1_555 1_555
H14 C18 1_555 1_555
C19 C13 1_555 1_555
H15 C19 1_555 1_555
C20 N3 1_555 1_555
H16 C20 1_555 1_555
C21 N5 1_555 1_555
H17 C21 1_555 1_555
C22 C21 1_555 1_555
H18 C22 1_555 1_555
C23 C22 1_555 1_555
C24 C23 1_555 1_555
C25 C24 1_555 1_555
H19 C25 1_555 1_555
C26 C25 1_555 1_555
H20 C26 1_555 1_555
C27 N6 1_555 1_555
H21 C27 1_555 1_555
C28 C24 1_555 1_555
H22 C28 1_555 1_555
C29 C23 1_555 1_555
H23 C29 1_555 1_555
C30 N5 1_555 1_555
H24 C30 1_555 1_555
C31 N7 1_555 1_555
H25 C31 1_555 1_555
C32 C31 1_555 1_555
H26 C32 1_555 1_555
C33 C32 1_555 1_555
C34 C33 1_555 1_555
C35 C34 1_555 1_555
H27 C35 1_555 1_555
C36 C35 1_555 1_555
H28 C36 1_555 1_555
C37 N8 1_555 1_555
H29 C37 1_555 1_555
C38 C34 1_555 1_555
H30 C38 1_555 1_555
C39 C33 1_555 1_555
H31 C39 1_555 1_555
C40 N7 1_555 1_555
H32 C40 1_555 1_555
Cu3A N6 1_555 1_555
Cu4A I4 1_555 1_555
I3A Cu4 1_555 1_555
I4A Cu4 1_555 1_555
N4A Cu4 1_555 1_555
N6A Cu3 1_555 1_555
Cu2 I2 1_555 1_555
N4 Cu4A 1_555 1_555
C5 C6 1_555 1_555
C7 C8 1_555 1_555
C9 C10 1_555 1_555
C17 C18 1_555 1_555
C19 C20 1_555 1_555
C27 C28 1_555 1_555
C29 C30 1_555 1_555
C37 C38 1_555 1_555
C39 C40 1_555 1_555

#END
