
#######################################################################
#
#                 Cambridge Crystallographic Data Centre
#                                CCDC 
#
#######################################################################
#
# If this CIF has been generated from an entry in the Cambridge 
# Structural Database, then it will include bibliographic, chemical, 
# crystal, experimental, refinement or atomic coordinate data resulting 
# from the CCDC's data processing and validation procedures.
#
#######################################################################

data_QAGTUN
_symmetry_cell_setting           monoclinic
_symmetry_space_group_name_H-M   'C 2/c'
_symmetry_Int_Tables_number      15
_space_group_name_Hall           '-C 2yn'
loop_
_symmetry_equiv_pos_site_id
_symmetry_equiv_pos_as_xyz
1 x,y,z
2 1/2+x,1/2+y,z
3 x,-y,1/2+z
4 1/2+x,1/2-y,1/2+z
5 -x,-y,-z
6 1/2-x,1/2-y,-z
7 -x,y,1/2-z
8 1/2-x,1/2+y,1/2-z
_cell_length_a                   18.285(7)
_cell_length_b                   10.625(4)
_cell_length_c                   17.064(9)
_cell_angle_alpha                90
_cell_angle_beta                 122.04(2)
_cell_angle_gamma                90
_cell_volume                     2810.19
loop_
_atom_site_label
_atom_site_type_symbol
_atom_site_fract_x
_atom_site_fract_y
_atom_site_fract_z
Ag1 Ag 0.0000 0.0000 0.0000
Ag2 Ag 0.7500 0.2500 0.5000
N2 N 0.6404(2) 0.1288(3) 0.4309(2)
C1 C 0.6508(2) 0.0030(3) 0.4314(2)
H1 H 0.7076(2) -0.0299(3) 0.4600(2)
C2 C 0.5823(2) -0.0794(3) 0.3923(2)
H2 H 0.5925(2) -0.1673(3) 0.3936(2)
C3 C 0.4983(2) -0.0349(3) 0.3508(2)
C4 C 0.4884(2) 0.0949(3) 0.3497(2)
H3 H 0.4322(2) 0.1301(3) 0.3212(2)
C5 C 0.5590(2) 0.1729(3) 0.3893(2)
H4 H 0.5502(2) 0.2613(3) 0.3874(2)
C6 C 0.4226(2) -0.1231(3) 0.3107(2)
H5 H 0.4345(2) -0.1972(3) 0.2840(2)
H6 H 0.3710(2) -0.0800(3) 0.2602(2)
C7 C 0.4042(2) -0.1670(3) 0.3840(2)
H7 H 0.3870(2) -0.0936(3) 0.4064(2)
H8 H 0.4577(2) -0.2024(3) 0.4372(2)
C8 C 0.3326(2) -0.2666(3) 0.3467(2)
H9 H 0.3509(2) -0.3415(3) 0.3268(2)
H10 H 0.3239(2) -0.2928(3) 0.3968(2)
N3 N 0.0982(2) -0.1135(2) 0.1153(2)
C9 C 0.1482(2) -0.1946(3) 0.1031(2)
H11 H 0.1320(2) -0.2149(3) 0.0417(2)
C10 C 0.2218(2) -0.2494(3) 0.1754(2)
H12 H 0.2539(2) -0.3080(3) 0.1633(2)
C11 C 0.2485(2) -0.2181(3) 0.2662(2)
C12 C 0.1958(2) -0.1367(3) 0.2784(2)
H13 H 0.2104(2) -0.1149(3) 0.3390(2)
C13 C 0.1225(2) -0.0876(3) 0.2030(2)
H14 H 0.0875(2) -0.0328(3) 0.2134(2)
N2E N 0.8596(2) 0.3712(3) 0.5691(2)
C1E C 0.8492(2) 0.4970(3) 0.5686(2)
H1E H 0.7924(2) 0.5299(3) 0.5400(2)
C2E C 0.9177(2) 0.5794(3) 0.6077(2)
H2E H 0.9075(2) 0.6673(3) 0.6064(2)
C3E C 1.0017(2) 0.5349(3) 0.6492(2)
C4E C 1.0116(2) 0.4051(3) 0.6503(2)
H3E H 1.0678(2) 0.3699(3) 0.6788(2)
C5E C 0.9410(2) 0.3271(3) 0.6107(2)
H4E H 0.9498(2) 0.2387(3) 0.6126(2)
C6E C 1.0774(2) 0.6231(3) 0.6893(2)
H5E H 1.0655(2) 0.6972(3) 0.7160(2)
H6E H 1.1290(2) 0.5800(3) 0.7398(2)
C7E C 1.0958(2) 0.6670(3) 0.6160(2)
H7E H 1.1130(2) 0.5936(3) 0.5936(2)
H8E H 1.0423(2) 0.7024(3) 0.5628(2)
C8E C 1.1674(2) 0.7666(3) 0.6533(2)
H9E H 1.1491(2) 0.8415(3) 0.6732(2)
H10E H 1.1761(2) 0.7928(3) 0.6032(2)
C11E C 1.2515(2) 0.7181(3) 0.7338(2)
C10E C 1.2782(2) 0.7494(3) 0.8246(2)
C9E C 1.3518(2) 0.6946(3) 0.8969(2)
N3E N 1.4018(2) 0.6135(2) 0.8847(2)
Ag1E Ag 1.5000 0.5000 1.0000
C13E C 1.3775(2) 0.5876(3) 0.7970(2)
C12E C 1.3042(2) 0.6367(3) 0.7216(2)
H13E H 1.2896(2) 0.6149(3) 0.6610(2)
H14E H 1.4125(2) 0.5328(3) 0.7866(2)
H11E H 1.3680(2) 0.7149(3) 0.9583(2)
H12E H 1.2461(2) 0.8080(3) 0.8367(2)
N3D N -0.0982(2) 0.1135(2) -0.1153(2)
N1 N 0.6095(2) 0.5549(3) 0.4038(2)
O1 O 0.6288(2) 0.4534(2) 0.4480(2)
O2 O 0.53940(14) 0.6078(2) 0.3806(2)
O3 O 0.6598(2) 0.6046(3) 0.3864(2)
loop_
_geom_bond_atom_site_label_1
_geom_bond_atom_site_label_2
_geom_bond_site_symmetry_1
_geom_bond_site_symmetry_2
Ag1 N3 1_555 1_555
Ag2 N2 1_555 1_555
N1 O1 1_555 1_555
O2 N1 1_555 1_555
O3 N1 1_555 1_555
N2 C1 1_555 1_555
C1 H1 1_555 1_555
C2 C1 1_555 1_555
H2 C2 1_555 1_555
C3 C2 1_555 1_555
C4 C3 1_555 1_555
H3 C4 1_555 1_555
C5 N2 1_555 1_555
H4 C5 1_555 1_555
C6 C3 1_555 1_555
H5 C6 1_555 1_555
H6 C6 1_555 1_555
C7 C6 1_555 1_555
H7 C7 1_555 1_555
H8 C7 1_555 1_555
C8 C7 1_555 1_555
H9 C8 1_555 1_555
H10 C8 1_555 1_555
N3 C9 1_555 1_555
C9 H11 1_555 1_555
C10 C9 1_555 1_555
H12 C10 1_555 1_555
C11 C8 1_555 1_555
C12 C11 1_555 1_555
H13 C12 1_555 1_555
C13 N3 1_555 1_555
H14 C13 1_555 1_555
N2E Ag2 1_555 1_555
C1E N2E 1_555 1_555
H1E C1E 1_555 1_555
C2E C1E 1_555 1_555
H2E C2E 1_555 1_555
C3E C2E 1_555 1_555
C4E C3E 1_555 1_555
H3E C4E 1_555 1_555
C5E N2E 1_555 1_555
H4E C5E 1_555 1_555
C6E C3E 1_555 1_555
H5E C6E 1_555 1_555
H6E C6E 1_555 1_555
C7E C6E 1_555 1_555
H7E C7E 1_555 1_555
H8E C7E 1_555 1_555
C8E C7E 1_555 1_555
H9E C8E 1_555 1_555
H10E C8E 1_555 1_555
C11E C8E 1_555 1_555
C10E C11E 1_555 1_555
C9E C10E 1_555 1_555
N3E C9E 1_555 1_555
Ag1E N3E 1_555 1_555
C13E N3E 1_555 1_555
C12E C11E 1_555 1_555
H13E C12E 1_555 1_555
H14E C13E 1_555 1_555
H11E C9E 1_555 1_555
H12E C10E 1_555 1_555
N3D Ag1 1_555 1_555
C4 C5 1_555 1_555
C10 C11 1_555 1_555
C12 C13 1_555 1_555
C4E C5E 1_555 1_555
C13E C12E 1_555 1_555

#END
