
#######################################################################
#
#                 Cambridge Crystallographic Data Centre
#                                CCDC 
#
#######################################################################
#
# If this CIF has been generated from an entry in the Cambridge 
# Structural Database, then it will include bibliographic, chemical, 
# crystal, experimental, refinement or atomic coordinate data resulting 
# from the CCDC's data processing and validation procedures.
#
#######################################################################

data_QAGTIB01
_symmetry_cell_setting           tetragonal
_symmetry_space_group_name_H-M   'I 41/a c d'
_symmetry_Int_Tables_number      142
_space_group_name_Hall           '-I 4bd 2c'
loop_
_symmetry_equiv_pos_site_id
_symmetry_equiv_pos_as_xyz
1 x,y,z
2 1/4-y,3/4+x,1/4+z
3 1/4+y,1/4-x,3/4+z
4 1/4+y,3/4+x,3/4-z
5 1/4-y,1/4-x,1/4-z
6 1/2+x,1/2+y,1/2+z
7 3/4-y,1/4+x,3/4+z
8 3/4+y,3/4-x,1/4+z
9 3/4+y,1/4+x,1/4-z
10 1/2-x,-y,1/2+z
11 1/2-x,y,-z
12 x,-y,1/2-z
13 -x,1/2-y,z
14 -x,1/2+y,1/2-z
15 1/2+x,1/2-y,-z
16 3/4-y,3/4-x,3/4-z
17 -x,-y,-z
18 3/4+y,1/4-x,3/4-z
19 3/4-y,3/4+x,1/4-z
20 3/4-y,1/4-x,1/4+z
21 3/4+y,3/4+x,3/4+z
22 1/2-x,1/2-y,1/2-z
23 1/4+y,3/4-x,1/4-z
24 1/4-y,1/4+x,3/4-z
25 1/4-y,3/4-x,3/4+z
26 1/2+x,y,1/2-z
27 1/2+x,-y,z
28 -x,y,1/2+z
29 x,1/2+y,-z
30 x,1/2-y,1/2+z
31 1/2-x,1/2+y,z
32 1/4+y,1/4+x,1/4+z
_cell_length_a                   14.749(3)
_cell_length_b                   14.749(3)
_cell_length_c                   38.475(7)
_cell_angle_alpha                90
_cell_angle_beta                 90
_cell_angle_gamma                90
_cell_volume                     8369.58
loop_
_atom_site_label
_atom_site_type_symbol
_atom_site_fract_x
_atom_site_fract_y
_atom_site_fract_z
Cu1 Cu 0.56713(11) 0.31980(11) 0.01873(3)
I1 I 0.39185(6) 0.35239(6) 0.030239(19)
N1 N 0.5899(6) 0.3399(6) -0.0326(2)
C1 C 0.6441(7) 0.2867(8) -0.0508(3)
H1 H 0.6819 0.2455 -0.0385
C2 C 0.6493(8) 0.2873(9) -0.0867(3)
H2 H 0.6902 0.2478 -0.0982
C3 C 0.5954(7) 0.3449(7) -0.1058(2)
C4 C 0.5403(9) 0.4009(9) -0.0865(3)
H3 H 0.5023 0.4432 -0.0982
C5 C 0.5390(8) 0.3969(8) -0.0507(3)
H4 H 0.4999 0.4369 -0.0384
N2 N 0.6266(7) 0.3931(7) 0.0572(2)
C6 C 0.6729(8) 0.4688(8) 0.0509(3)
H5 H 0.6789 0.4880 0.0275
C7 C 0.7129(9) 0.5210(8) 0.0765(3)
H6 H 0.7433 0.5756 0.0706
C8 C 0.7082(7) 0.4932(7) 0.1110(2)
C9 C 0.6579(8) 0.4155(8) 0.1180(2)
H7 H 0.6508 0.3948 0.1412
C10 C 0.6182(9) 0.3688(9) 0.0907(2)
H8 H 0.5831 0.3166 0.0959
C3C C 0.5949(7) 0.3454(7) -0.1442(2)
C2C C 0.5373(9) 0.3993(8) -0.1633(3)
C1C C 0.5367(8) 0.3941(7) -0.1992(3)
N1C N 0.5899(6) 0.3399(6) -0.2174(2)
C5C C 0.6469(8) 0.2890(8) -0.1993(3)
C4C C 0.6509(9) 0.2903(9) -0.1635(3)
H3C H 0.6932 0.2523 -0.1518
H4C H 0.6869 0.2499 -0.2116
H1C H 0.4955 0.4319 -0.2115
H2C H 0.4978 0.4402 -0.1518
C8D C 0.7568(7) 0.5418(7) 0.1390(2)
C7D C 0.7290(8) 0.5371(9) 0.1735(3)
C6D C 0.7812(8) 0.5771(8) 0.1991(3)
N2D N 0.8569(7) 0.6234(7) 0.1928(2)
C10D C 0.8812(9) 0.6318(9) 0.1593(2)
C9D C 0.8345(8) 0.5921(8) 0.1320(2)
H7D H 0.8552 0.5992 0.1088
H8D H 0.9334 0.6669 0.1541
H5D H 0.7620 0.5711 0.2225
H6D H 0.6744 0.5067 0.1794
I1L I 0.60815(6) 0.14761(6) 0.030239(19)
Cu1L Cu 0.43287(11) 0.18020(11) 0.01873(3)
Cu1C Cu 0.56980(11) 0.31713(11) -0.26873(3)
Cu1D Cu 0.93020(11) 0.68287(11) 0.23127(3)
N1L N 0.4101(6) 0.1601(6) -0.0326(2)
N2L N 0.3734(7) 0.1069(7) 0.0572(2)
loop_
_geom_bond_atom_site_label_1
_geom_bond_atom_site_label_2
_geom_bond_site_symmetry_1
_geom_bond_site_symmetry_2
Cu1 I1 1_555 1_555
I1 Cu1L 1_555 1_555
N1 Cu1 1_555 1_555
C1 N1 1_555 1_555
H1 C1 1_555 1_555
C2 C1 1_555 1_555
H2 C2 1_555 1_555
C3 C2 1_555 1_555
C4 C3 1_555 1_555
H3 C4 1_555 1_555
C5 N1 1_555 1_555
H4 C5 1_555 1_555
N2 Cu1 1_555 1_555
C6 N2 1_555 1_555
H5 C6 1_555 1_555
C7 C6 1_555 1_555
H6 C7 1_555 1_555
C8 C7 1_555 1_555
C9 C8 1_555 1_555
H7 C9 1_555 1_555
C10 N2 1_555 1_555
H8 C10 1_555 1_555
C3C C3 1_555 1_555
C2C C3C 1_555 1_555
C1C C2C 1_555 1_555
N1C C1C 1_555 1_555
C5C N1C 1_555 1_555
C4C C3C 1_555 1_555
H3C C4C 1_555 1_555
H4C C5C 1_555 1_555
H1C C1C 1_555 1_555
H2C C2C 1_555 1_555
C8D C8 1_555 1_555
C7D C8D 1_555 1_555
C6D C7D 1_555 1_555
N2D C6D 1_555 1_555
C10D N2D 1_555 1_555
C9D C8D 1_555 1_555
H7D C9D 1_555 1_555
H8D C10D 1_555 1_555
H5D C6D 1_555 1_555
H6D C7D 1_555 1_555
I1L Cu1 1_555 1_555
Cu1L I1L 1_555 1_555
Cu1C N1C 1_555 1_555
Cu1D N2D 1_555 1_555
N1L Cu1L 1_555 1_555
N2L Cu1L 1_555 1_555
C4 C5 1_555 1_555
C9 C10 1_555 1_555
C5C C4C 1_555 1_555
C10D C9D 1_555 1_555

#END
