
#######################################################################
#
#                 Cambridge Crystallographic Data Centre
#                                CCDC 
#
#######################################################################
#
# If this CIF has been generated from an entry in the Cambridge 
# Structural Database, then it will include bibliographic, chemical, 
# crystal, experimental, refinement or atomic coordinate data resulting 
# from the CCDC's data processing and validation procedures.
#
#######################################################################

data_QAGTIB02
_symmetry_cell_setting           tetragonal
_symmetry_space_group_name_H-M   'I 41/a c d'
_symmetry_Int_Tables_number      142
_space_group_name_Hall           '-I 4bd 2c'
loop_
_symmetry_equiv_pos_site_id
_symmetry_equiv_pos_as_xyz
1 x,y,z
2 1/4-y,3/4+x,1/4+z
3 1/4+y,1/4-x,3/4+z
4 1/4+y,3/4+x,3/4-z
5 1/4-y,1/4-x,1/4-z
6 1/2+x,1/2+y,1/2+z
7 3/4-y,1/4+x,3/4+z
8 3/4+y,3/4-x,1/4+z
9 3/4+y,1/4+x,1/4-z
10 1/2-x,-y,1/2+z
11 1/2-x,y,-z
12 x,-y,1/2-z
13 -x,1/2-y,z
14 -x,1/2+y,1/2-z
15 1/2+x,1/2-y,-z
16 3/4-y,3/4-x,3/4-z
17 -x,-y,-z
18 3/4+y,1/4-x,3/4-z
19 3/4-y,3/4+x,1/4-z
20 3/4-y,1/4-x,1/4+z
21 3/4+y,3/4+x,3/4+z
22 1/2-x,1/2-y,1/2-z
23 1/4+y,3/4-x,1/4-z
24 1/4-y,1/4+x,3/4-z
25 1/4-y,3/4-x,3/4+z
26 1/2+x,y,1/2-z
27 1/2+x,-y,z
28 -x,y,1/2+z
29 x,1/2+y,-z
30 x,1/2-y,1/2+z
31 1/2-x,1/2+y,z
32 1/4+y,1/4+x,1/4+z
_cell_length_a                   14.928(2)
_cell_length_b                   14.928(2)
_cell_length_c                   38.464(8)
_cell_angle_alpha                90
_cell_angle_beta                 90
_cell_angle_gamma                90
_cell_volume                     8571.52
loop_
_atom_site_label
_atom_site_type_symbol
_atom_site_fract_x
_atom_site_fract_y
_atom_site_fract_z
Cu1 Cu -0.42911(7) 0.18308(6) 0.23090(2)
I1 I -0.40004(3) 0.35768(3) 0.219090(12)
N1 N -0.1255(4) -0.1050(4) 0.05730(14)
N2 N -0.4093(4) 0.1611(4) 0.28248(13)
C1 C -0.1730(4) -0.0315(5) 0.0508(2)
H1 H -0.1794(4) -0.0132(5) 0.0278(2)
C2 C -0.2132(5) 0.0192(5) 0.0766(2)
H2 H -0.2440(5) 0.0711(5) 0.0706(2)
C3 C -0.2082(4) -0.0066(4) 0.1109(2)
C4 C -0.1568(4) -0.0821(5) 0.1178(2)
H3 H -0.1486(4) -0.1014(5) 0.1406(2)
C5 C -0.1180(5) -0.1282(5) 0.0908(2)
H4 H -0.0843(5) -0.1788(5) 0.0962(2)
C6 C -0.3529(6) 0.2098(6) 0.3008(2)
H5 H -0.3137(6) 0.2474(6) 0.2889(2)
C7 C -0.3487(6) 0.2083(5) 0.3366(2)
H6 H -0.3069(6) 0.2439(5) 0.3480(2)
C8 C -0.4051(4) 0.1554(5) 0.3556(2)
C9 C -0.3520(6) 0.2115(6) 0.4137(2)
H7 H -0.3126(6) 0.2500(6) 0.4024(2)
C10 C -0.3561(6) 0.2117(6) 0.4492(2)
H8 H -0.3185(6) 0.2505(6) 0.4613(2)
Cu1H Cu -0.06692(6) -0.17911(7) 0.01910(2)
Cu1L Cu -0.57089(7) 0.31692(6) 0.23090(2)
Cu1O Cu -0.43308(6) 0.17911(7) 0.51910(2)
I1L I -0.59996(3) 0.14232(3) 0.219090(12)
N1H N -0.3550(4) 0.1245(4) 0.19270(14)
N1D N -0.6450(4) 0.3755(4) 0.19270(14)
N2O N -0.4111(4) 0.1593(4) 0.46752(13)
N2L N -0.5907(4) 0.3389(4) 0.28248(13)
C1H C -0.2815(5) 0.0770(4) 0.1992(2)
H1H H -0.2632(5) 0.0706(4) 0.2222(2)
C2H C -0.2308(5) 0.0368(5) 0.1734(2)
H2H H -0.1789(5) 0.0060(5) 0.1794(2)
C3H C -0.2566(4) 0.0418(4) 0.1391(2)
C4H C -0.3321(5) 0.0932(4) 0.1322(2)
H3H H -0.3514(5) 0.1014(4) 0.1094(2)
C5H C -0.3782(5) 0.1320(5) 0.1592(2)
H4H H -0.4288(5) 0.1657(5) 0.1538(2)
C6O C -0.4598(6) 0.1029(6) 0.4492(2)
H5O H -0.4974(6) 0.0637(6) 0.4611(2)
C7O C -0.4583(5) 0.0987(6) 0.4134(2)
H6O H -0.4939(5) 0.0569(6) 0.4020(2)
C8O C -0.4054(5) 0.1551(4) 0.3944(2)
C9O C -0.4615(6) 0.1020(6) 0.3363(2)
H7O H -0.5000(6) 0.0626(6) 0.3476(2)
C10O C -0.4617(6) 0.1061(6) 0.3008(2)
H8O H -0.5005(6) 0.0685(6) 0.2887(2)
loop_
_geom_bond_atom_site_label_1
_geom_bond_atom_site_label_2
_geom_bond_site_symmetry_1
_geom_bond_site_symmetry_2
Cu1 I1 1_555 1_555
I1 Cu1L 1_555 1_555
N1 C1 1_555 1_555
N2 Cu1 1_555 1_555
C1 H1 1_555 1_555
C2 C1 1_555 1_555
H2 C2 1_555 1_555
C3 C2 1_555 1_555
C4 C3 1_555 1_555
H3 C4 1_555 1_555
C5 N1 1_555 1_555
H4 C5 1_555 1_555
C6 N2 1_555 1_555
H5 C6 1_555 1_555
C7 C6 1_555 1_555
H6 C7 1_555 1_555
C8 C7 1_555 1_555
C9 H7 1_555 1_555
C10 C9 1_555 1_555
H8 C10 1_555 1_555
Cu1H N1 1_555 1_555
Cu1L I1L 1_555 1_555
Cu1O N2O 1_555 1_555
I1L Cu1 1_555 1_555
N1H Cu1 1_555 1_555
N1D Cu1L 1_555 1_555
N2O C10 1_555 1_555
N2L Cu1L 1_555 1_555
C1H N1H 1_555 1_555
H1H C1H 1_555 1_555
C2H C1H 1_555 1_555
H2H C2H 1_555 1_555
C3H C3 1_555 1_555
C4H C3H 1_555 1_555
H3H C4H 1_555 1_555
C5H N1H 1_555 1_555
H4H C5H 1_555 1_555
C6O N2O 1_555 1_555
H5O C6O 1_555 1_555
C7O C6O 1_555 1_555
H6O C7O 1_555 1_555
C8O C8 1_555 1_555
C9O C8 1_555 1_555
H7O C9O 1_555 1_555
C10O N2 1_555 1_555
H8O C10O 1_555 1_555
C4 C5 1_555 1_555
C9 C8O 1_555 1_555
C2H C3H 1_555 1_555
C4H C5H 1_555 1_555
C7O C8O 1_555 1_555
C9O C10O 1_555 1_555

#END
