
#######################################################################
#
#                 Cambridge Crystallographic Data Centre
#                                CCDC 
#
#######################################################################
#
# If this CIF has been generated from an entry in the Cambridge 
# Structural Database, then it will include bibliographic, chemical, 
# crystal, experimental, refinement or atomic coordinate data resulting 
# from the CCDC's data processing and validation procedures.
#
#######################################################################

data_QAGTEX
_symmetry_cell_setting           tetragonal
_symmetry_space_group_name_H-M   'I 41/a c d'
_symmetry_Int_Tables_number      142
_space_group_name_Hall           '-I 4bd 2c'
loop_
_symmetry_equiv_pos_site_id
_symmetry_equiv_pos_as_xyz
1 x,y,z
2 1/4-y,3/4+x,1/4+z
3 1/4+y,1/4-x,3/4+z
4 1/4+y,3/4+x,3/4-z
5 1/4-y,1/4-x,1/4-z
6 1/2+x,1/2+y,1/2+z
7 3/4-y,1/4+x,3/4+z
8 3/4+y,3/4-x,1/4+z
9 3/4+y,1/4+x,1/4-z
10 1/2+x,y,1/2-z
11 1/2+x,-y,z
12 -x,y,1/2+z
13 x,1/2+y,-z
14 x,1/2-y,1/2+z
15 1/2-x,1/2+y,z
16 1/4+y,1/4+x,1/4+z
17 -x,-y,-z
18 3/4+y,1/4-x,3/4-z
19 3/4-y,3/4+x,1/4-z
20 3/4-y,1/4-x,1/4+z
21 3/4+y,3/4+x,3/4+z
22 1/2-x,1/2-y,1/2-z
23 1/4+y,3/4-x,1/4-z
24 1/4-y,1/4+x,3/4-z
25 1/4-y,3/4-x,3/4+z
26 1/2-x,-y,1/2+z
27 1/2-x,y,-z
28 x,-y,1/2-z
29 -x,1/2-y,z
30 -x,1/2+y,1/2-z
31 1/2+x,1/2-y,-z
32 3/4-y,3/4-x,3/4-z
_cell_length_a                   14.292(3)
_cell_length_b                   14.292(3)
_cell_length_c                   38.742(6)
_cell_angle_alpha                90
_cell_angle_beta                 90
_cell_angle_gamma                90
_cell_volume                     7913.49
loop_
_atom_site_label
_atom_site_type_symbol
_atom_site_fract_x
_atom_site_fract_y
_atom_site_fract_z
Cu1 Cu -0.43188(3) -0.67940(3) 0.017290(10)
Br1 Br -0.60454(3) -0.65161(3) 0.030600(10)
N1 N -0.3734(2) -0.6068(2) 0.05578(7)
C1 C -0.3218(3) -0.5306(3) 0.05043(9)
H1 H -0.3140(3) -0.5094(3) 0.02737(9)
C2 C -0.2791(3) -0.4805(3) 0.07653(8)
H2 H -0.2427(3) -0.4268(3) 0.07124(8)
N2 N -0.0871(2) -0.3392(2) 0.28305(7)
C3 C -0.2897(2) -0.5091(2) 0.11057(9)
C4 C -0.3454(2) -0.5879(3) 0.11662(8)
H3 H -0.3562(2) -0.6093(3) 0.13950(8)
C5 C -0.3844(3) -0.6340(3) 0.08898(9)
H4 H -0.4213(3) -0.6880(3) 0.09345(9)
C6 C -0.0250(3) -0.3878(3) 0.30135(10)
H5 H 0.0218(3) -0.4219(3) 0.28931(10)
C7 C -0.0253(3) -0.3911(3) 0.33731(9)
H6 H 0.0213(3) -0.4259(3) 0.34914(9)
C8 C -0.0933(2) -0.3438(3) 0.35589(9)
C9 C -0.0458(3) -0.4098(3) 0.41353(9)
H7 H -0.0135(3) -0.4591(3) 0.40222(9)
C10 C -0.0450(3) -0.4046(3) 0.44908(9)
H8 H -0.0115(3) -0.4510(3) 0.46156(9)
Cu1BA Cu -0.56812(3) -0.82060(3) 0.017290(10)
Br1BA Br -0.39546(3) -0.84839(3) 0.030600(10)
C3D C -0.2409(2) -0.4603(2) 0.13943(9)
C2D C -0.2695(3) -0.4709(3) 0.17347(8)
C1D C -0.2194(3) -0.4282(3) 0.19957(9)
N1D N -0.1432(2) -0.3766(2) 0.19422(7)
Cu1D Cu -0.07060(3) -0.31812(3) 0.232710(10)
Br1D Br -0.09839(3) -0.14546(3) 0.219400(10)
Cu1H Cu 0.07060(3) -0.18188(3) 0.232710(10)
Br1H Br 0.09839(3) -0.35454(3) 0.219400(10)
N2D N -0.4108(2) -0.6629(2) -0.03305(7)
C8C C -0.0938(3) -0.3433(2) 0.39411(9)
C7C C -0.1411(3) -0.2753(3) 0.41269(9)
C6C C -0.1378(3) -0.2750(3) 0.44865(10)
N2C N -0.0892(2) -0.3371(2) 0.46695(7)
Cu1Y Cu -0.06812(3) -0.32060(3) 0.517290(10)
H5C H -0.1719(3) -0.2282(3) 0.46069(10)
H6C H -0.1759(3) -0.2287(3) 0.40086(9)
C9C C -0.1598(3) -0.2958(3) 0.33647(9)
H7C H -0.2091(3) -0.2635(3) 0.34778(9)
C10C C -0.1546(3) -0.2950(3) 0.30092(9)
H8C H -0.2010(3) -0.2615(3) 0.28844(9)
C5D C -0.1160(3) -0.3656(3) 0.16102(9)
C4D C -0.1621(3) -0.4046(2) 0.13338(8)
H3D H -0.1407(3) -0.3938(2) 0.11050(8)
H4D H -0.0620(3) -0.3287(3) 0.15655(9)
H1D H -0.2406(3) -0.4360(3) 0.22263(9)
H2D H -0.3232(3) -0.5073(3) 0.17876(8)
loop_
_geom_bond_atom_site_label_1
_geom_bond_atom_site_label_2
_geom_bond_site_symmetry_1
_geom_bond_site_symmetry_2
Cu1 Br1 1_555 1_555
Br1 Cu1BA 1_555 1_555
N1 Cu1 1_555 1_555
C1 N1 1_555 1_555
H1 C1 1_555 1_555
C2 C1 1_555 1_555
H2 C2 1_555 1_555
N2 C6 1_555 1_555
C3 C2 1_555 1_555
C4 C3 1_555 1_555
H3 C4 1_555 1_555
C5 N1 1_555 1_555
H4 C5 1_555 1_555
C6 H5 1_555 1_555
C7 C6 1_555 1_555
H6 C7 1_555 1_555
C8 C7 1_555 1_555
C9 H7 1_555 1_555
C10 C9 1_555 1_555
H8 C10 1_555 1_555
Cu1BA Br1BA 1_555 1_555
Br1BA Cu1 1_555 1_555
C3D C3 1_555 1_555
C2D C3D 1_555 1_555
C1D C2D 1_555 1_555
N1D C1D 1_555 1_555
Cu1D N2 1_555 1_555
Br1D Cu1D 1_555 1_555
Cu1H Br1D 1_555 1_555
Br1H Cu1D 1_555 1_555
N2D Cu1 1_555 1_555
C8C C8 1_555 1_555
C7C C8C 1_555 1_555
C6C C7C 1_555 1_555
N2C C10 1_555 1_555
Cu1Y N2C 1_555 1_555
H5C C6C 1_555 1_555
H6C C7C 1_555 1_555
C9C C8 1_555 1_555
H7C C9C 1_555 1_555
C10C N2 1_555 1_555
H8C C10C 1_555 1_555
C5D N1D 1_555 1_555
C4D C3D 1_555 1_555
H3D C4D 1_555 1_555
H4D C5D 1_555 1_555
H1D C1D 1_555 1_555
H2D C2D 1_555 1_555
C4 C5 1_555 1_555
C9 C8C 1_555 1_555
N1D Cu1D 1_555 1_555
Cu1H Br1H 1_555 1_555
C6C N2C 1_555 1_555
C9C C10C 1_555 1_555
C5D C4D 1_555 1_555

#END
