
#######################################################################
#
#                 Cambridge Crystallographic Data Centre
#                                CCDC 
#
#######################################################################
#
# If this CIF has been generated from an entry in the Cambridge 
# Structural Database, then it will include bibliographic, chemical, 
# crystal, experimental, refinement or atomic coordinate data resulting 
# from the CCDC's data processing and validation procedures.
#
#######################################################################

data_QAGVUR
_symmetry_cell_setting           monoclinic
_symmetry_space_group_name_H-M   'C 2/c'
_symmetry_Int_Tables_number      15
_space_group_name_Hall           '-C 2yn'
loop_
_symmetry_equiv_pos_site_id
_symmetry_equiv_pos_as_xyz
1 x,y,z
2 -x,y,1/2-z
3 1/2+x,1/2+y,z
4 1/2-x,1/2+y,1/2-z
5 -x,-y,-z
6 x,-y,1/2+z
7 1/2-x,1/2-y,-z
8 1/2+x,1/2-y,1/2+z
_cell_length_a                   22.508(4)
_cell_length_b                   11.5522(18)
_cell_length_c                   12.3631(19)
_cell_angle_alpha                90
_cell_angle_beta                 103.304(9)
_cell_angle_gamma                90
_cell_volume                     3128.34
loop_
_atom_site_label
_atom_site_type_symbol
_atom_site_fract_x
_atom_site_fract_y
_atom_site_fract_z
Fe1 Fe 0.0000 0.28377(3) 0.2500
N1 N 0.03210(7) 0.28145(12) 0.10209(12)
C1 C 0.07170(9) 0.30361(14) 0.05891(14)
S1 S 0.12672(3) 0.33588(5) -0.00080(5)
N2 N -0.09573(7) 0.27541(12) 0.15361(12)
C2 C -0.11628(9) 0.33400(16) 0.05897(15)
H1 H -0.0887 0.3834 0.0333
C3 C -0.17571(9) 0.32625(18) -0.00351(16)
H2 H -0.1878 0.3693 -0.0705
C4 C -0.21778(8) 0.25547(14) 0.03166(14)
C5 C -0.19617(9) 0.19536(17) 0.13079(16)
H3 H -0.2228 0.1461 0.1591
C6 C -0.13609(9) 0.20740(16) 0.18772(16)
H4 H -0.1226 0.1651 0.2548
N3 N 0.0000 0.09102(16) 0.2500
C7 C -0.01267(9) 0.03072(14) 0.15469(14)
H5 H -0.0221 0.0723 0.0866
C8 C -0.01263(9) -0.08922(14) 0.15065(14)
H6 H -0.0211 -0.1285 0.0813
C9 C 0.0000 -0.15122(19) 0.2500
N4 N 0.0000 -0.52210(16) 0.2500
C10 C -0.03060(9) -0.46107(14) 0.31210(15)
H7 H -0.0530 -0.5023 0.3561
C11 C -0.03133(9) -0.34126(14) 0.31542(15)
H8 H -0.0530 -0.3021 0.3619
C12 C 0.0000 -0.27901(19) 0.2500
Fe1_2 Fe 0.0000 -0.71623(3) 0.2500
Fe1F Fe -0.5000 0.21623(3) -0.2500
N1A N -0.03210(7) 0.28145(12) 0.39791(12)
C1A C -0.07170(9) 0.30361(14) 0.44109(14)
S1A S -0.12672(3) 0.33588(5) 0.50080(5)
N2F N -0.40427(7) 0.22459(12) -0.15361(12)
N2A N 0.09573(7) 0.27541(12) 0.34639(12)
C2F C -0.38372(9) 0.16600(16) -0.05897(15)
H1F H -0.4113 0.1166 -0.0333
C3F C -0.32429(9) 0.17375(18) 0.00351(16)
H2F H -0.3122 0.1307 0.0705
C4F C -0.28222(8) 0.24453(14) -0.03166(14)
C5F C -0.30383(9) 0.30464(17) -0.13079(16)
H3F H -0.2772 0.3539 -0.1591
C6F C -0.36391(9) 0.29260(16) -0.18772(16)
H4F H -0.3774 0.3349 -0.2548
C7A C 0.01267(9) 0.03072(14) 0.34531(14)
H5A H 0.0221 0.0723 0.4134
C8A C 0.01263(9) -0.08922(14) 0.34935(14)
H6A H 0.0211 -0.1285 0.4187
N4_2 N 0.0000 0.47790(16) 0.2500
C10A C 0.03060(9) -0.46107(14) 0.18790(15)
H7A H 0.0530 -0.5023 0.1439
C11A C 0.03133(9) -0.34126(14) 0.18458(15)
H8A H 0.0530 -0.3021 0.1381
C13 C -0.29769(16) 0.5677(3) -0.2891(3)
C14 C -0.23963(15) 0.5575(2) -0.2475(2)
H9 H -0.2222 0.6017 -0.1832
Cl1 Cl -0.34098(8) 0.65317(19) -0.2240(2)
Cl2 Cl -0.33745(8) 0.49604(11) -0.40538(8)
Cl3 Cl -0.19245(4) 0.46981(7) -0.30086(8)
C15? C -0.2898(9) 0.5231(13) -0.3384(14)
C16? C -0.2712(7) 0.5910(11) -0.2365(13)
Cl4? Cl -0.3209(7) 0.6667(11) -0.1960(14)
Cl5? Cl -0.3717(4) 0.5180(7) -0.4217(8)
Cl6? Cl -0.2437(4) 0.4399(5) -0.3918(7)
H10? H -0.2300 0.5899 -0.1951
loop_
_geom_bond_atom_site_label_1
_geom_bond_atom_site_label_2
_geom_bond_site_symmetry_1
_geom_bond_site_symmetry_2
Fe1 N1 1_555 1_555
N1 C1 1_555 1_555
C1 S1 1_555 1_555
N2 Fe1 1_555 1_555
C2 N2 1_555 1_555
H1 C2 1_555 1_555
C3 C2 1_555 1_555
H2 C3 1_555 1_555
C4 C3 1_555 1_555
C5 C4 1_555 1_555
H3 C5 1_555 1_555
C6 N2 1_555 1_555
H4 C6 1_555 1_555
N3 Fe1 1_555 1_555
C7 N3 1_555 1_555
H5 C7 1_555 1_555
C8 C7 1_555 1_555
H6 C8 1_555 1_555
C9 C8 1_555 1_555
N4 C10 1_555 1_555
C10 H7 1_555 1_555
C11 C10 1_555 1_555
H8 C11 1_555 1_555
C12 C9 1_555 1_555
C13 C14 1_555 1_555
C14 H9 1_555 1_555
Cl1 C13 1_555 1_555
Cl2 C13 1_555 1_555
Cl3 C14 1_555 1_555
Fe1_2 N4 1_555 1_555
Fe1F N2F 1_555 1_555
N1A Fe1 1_555 1_555
C1A N1A 1_555 1_555
S1A C1A 1_555 1_555
N2F C2F 1_555 1_555
N2A Fe1 1_555 1_555
C2F H1F 1_555 1_555
C3F C2F 1_555 1_555
H2F C3F 1_555 1_555
C4F C4 1_555 1_555
C5F C4F 1_555 1_555
H3F C5F 1_555 1_555
C6F N2F 1_555 1_555
H4F C6F 1_555 1_555
C7A N3 1_555 1_555
H5A C7A 1_555 1_555
C8A C9 1_555 1_555
H6A C8A 1_555 1_555
N4_2 Fe1 1_555 1_555
C10A N4 1_555 1_555
H7A C10A 1_555 1_555
C11A C12 1_555 1_555
H8A C11A 1_555 1_555
C5 C6 1_555 1_555
C11 C12 1_555 1_555
C3F C4F 1_555 1_555
C5F C6F 1_555 1_555
C7A C8A 1_555 1_555
C10A C11A 1_555 1_555

#END
