
#######################################################################
#
#                 Cambridge Crystallographic Data Centre
#                                CCDC 
#
#######################################################################
#
# If this CIF has been generated from an entry in the Cambridge 
# Structural Database, then it will include bibliographic, chemical, 
# crystal, experimental, refinement or atomic coordinate data resulting 
# from the CCDC's data processing and validation procedures.
#
#######################################################################

data_QAGWUR
_symmetry_cell_setting           monoclinic
_symmetry_space_group_name_H-M   'P 21/n'
_symmetry_Int_Tables_number      14
_space_group_name_Hall           '-P 2yn'
loop_
_symmetry_equiv_pos_site_id
_symmetry_equiv_pos_as_xyz
1 x,y,z
2 1/2+x,1/2-y,1/2+z
3 -x,-y,-z
4 1/2-x,1/2+y,1/2-z
_cell_length_a                   9.37110(10)
_cell_length_b                   13.2066(2)
_cell_length_c                   19.5217(3)
_cell_angle_alpha                90
_cell_angle_beta                 95.9030(10)
_cell_angle_gamma                90
_cell_volume                     2403.2
loop_
_atom_site_label
_atom_site_type_symbol
_atom_site_fract_x
_atom_site_fract_y
_atom_site_fract_z
Ni1 Ni 0.65129(2) 0.455589(15) 0.177213(11)
S1 S 0.36097(5) 0.29407(4) -0.00072(2)
S2 S 0.93890(5) 0.61613(3) 0.35694(2)
N2 N 0.76181(14) 0.31590(11) 0.20944(9)
N3 N 1.47332(14) 0.39353(11) 0.21765(7)
N4 N 0.54084(14) 0.59647(11) 0.14684(9)
N5 N -0.17070(15) 0.51484(11) 0.13608(8)
N6 N 0.57470(16) 0.38853(11) 0.08761(8)
N7 N 0.72544(16) 0.52342(11) 0.26739(8)
C1 C 0.91388(16) 0.31688(12) 0.21501(9)
C2 C 0.98654(17) 0.29068(13) 0.15882(9)
H1 H 0.9363 0.2638 0.1194
C3 C 1.13337(17) 0.30458(13) 0.16147(9)
H2 H 1.1820 0.2878 0.1238
C4 C 1.20784(16) 0.34405(12) 0.22112(9)
C5 C 1.13663(17) 0.36613(12) 0.27875(9)
H3 H 1.1875 0.3901 0.3189
C6 C 0.99007(17) 0.35201(12) 0.27561(9)
H4 H 0.9420 0.3659 0.3139
C7 C 1.35706(17) 0.36907(12) 0.22082(9)
C8 C 0.38846(16) 0.59267(12) 0.14094(9)
C9 C 0.31374(17) 0.55950(12) 0.07964(9)
H5 H 0.3621 0.5479 0.0411
C10 C 0.16751(17) 0.54399(13) 0.07648(9)
H6 H 0.1175 0.5199 0.0361
C11 C 0.09475(17) 0.56445(12) 0.13364(9)
C12 C 0.16836(18) 0.60140(13) 0.19414(9)
H7 H 0.1192 0.6170 0.2318
C13 C 0.31542(18) 0.61457(12) 0.19764(9)
H8 H 0.3656 0.6382 0.2381
C14 C -0.05480(18) 0.53939(12) 0.13341(9)
C15 C 0.48617(19) 0.34748(13) 0.05164(9)
C16 C 0.81390(19) 0.56192(12) 0.30461(9)
H13 H 0.725(2) 0.2711(15) 0.1788(10)
H14 H 0.7320(19) 0.3034(14) 0.2483(10)
H15 H 0.575(2) 0.6389(15) 0.1784(10)
H16 H 0.572(2) 0.6145(15) 0.1082(11)
N3_2 N 0.47332(14) 0.39353(11) 0.21765(7)
N5_2 N 0.82930(15) 0.51484(11) 0.13608(8)
Ni1_2 Ni 1.65129(2) 0.455589(15) 0.177213(11)
Ni1_3 Ni -0.34871(2) 0.455589(15) 0.177213(11)
N1 N 1.1727(2) 0.52709(16) 0.50643(10)
N8 N 1.67531(19) 0.27500(13) 0.35123(8)
C17 C 1.27024(19) 0.47612(14) 0.47315(9)
C18 C 1.3558(2) 0.52622(14) 0.42909(10)
H9 H 1.3426 0.5952 0.4210
C19 C 1.4589(2) 0.47530(15) 0.39760(10)
H10 H 1.5157 0.5101 0.3691
C20 C 1.4787(2) 0.37098(14) 0.40820(9)
C21 C 1.3909(2) 0.32042(14) 0.45050(10)
H11 H 1.4023 0.2511 0.4574
C22 C 1.2881(2) 0.37099(14) 0.48212(10)
H12 H 1.2299 0.3357 0.5096
C23 C 1.5882(2) 0.31805(15) 0.37651(10)
H17 H 1.162(3) 0.588(2) 0.4990(12)
H18 H 1.130(3) 0.497(2) 0.5368(14)
loop_
_geom_bond_atom_site_label_1
_geom_bond_atom_site_label_2
_geom_bond_site_symmetry_1
_geom_bond_site_symmetry_2
Ni1 N2 1_555 1_555
S1 C15 1_555 1_555
S2 C16 1_555 1_555
N1 C17 1_555 1_555
N2 C1 1_555 1_555
N3 C7 1_555 1_555
N4 Ni1 1_555 1_555
N5 C14 1_555 1_555
N6 Ni1 1_555 1_555
N7 Ni1 1_555 1_555
N8 C23 1_555 1_555
C1 C2 1_555 1_555
C2 H1 1_555 1_555
C3 C2 1_555 1_555
H2 C3 1_555 1_555
C4 C3 1_555 1_555
C5 C4 1_555 1_555
H3 C5 1_555 1_555
C6 C1 1_555 1_555
H4 C6 1_555 1_555
C7 C4 1_555 1_555
C8 N4 1_555 1_555
C9 C8 1_555 1_555
H5 C9 1_555 1_555
C10 C9 1_555 1_555
H6 C10 1_555 1_555
C11 C10 1_555 1_555
C12 C11 1_555 1_555
H7 C12 1_555 1_555
C13 C8 1_555 1_555
H8 C13 1_555 1_555
C14 C11 1_555 1_555
C15 N6 1_555 1_555
C16 N7 1_555 1_555
C17 C18 1_555 1_555
C18 H9 1_555 1_555
C19 C18 1_555 1_555
H10 C19 1_555 1_555
C20 C19 1_555 1_555
C21 C20 1_555 1_555
H11 C21 1_555 1_555
C22 C17 1_555 1_555
H12 C22 1_555 1_555
C23 C20 1_555 1_555
H13 N2 1_555 1_555
H14 N2 1_555 1_555
H15 N4 1_555 1_555
H16 N4 1_555 1_555
H17 N1 1_555 1_555
H18 N1 1_555 1_555
N3_2 Ni1 1_555 1_555
N5_2 Ni1 1_555 1_555
Ni1_2 N3 1_555 1_555
Ni1_3 N5 1_555 1_555
C5 C6 1_555 1_555
C12 C13 1_555 1_555
C21 C22 1_555 1_555

#END
