
#######################################################################
#
#                 Cambridge Crystallographic Data Centre
#                                CCDC 
#
#######################################################################
#
# If this CIF has been generated from an entry in the Cambridge 
# Structural Database, then it will include bibliographic, chemical, 
# crystal, experimental, refinement or atomic coordinate data resulting 
# from the CCDC's data processing and validation procedures.
#
#######################################################################

data_QAGWEB
_symmetry_cell_setting           monoclinic
_symmetry_space_group_name_H-M   'P 21/c'
_symmetry_Int_Tables_number      14
_space_group_name_Hall           '-P 2ybc'
loop_
_symmetry_equiv_pos_site_id
_symmetry_equiv_pos_as_xyz
1 x,y,z
2 x,1/2-y,1/2+z
3 -x,-y,-z
4 -x,1/2+y,1/2-z
_cell_length_a                   5.5903(2)
_cell_length_b                   24.6665(11)
_cell_length_c                   12.7539(5)
_cell_angle_alpha                90
_cell_angle_beta                 100.465(2)
_cell_angle_gamma                90
_cell_volume                     1729.42
loop_
_atom_site_label
_atom_site_type_symbol
_atom_site_fract_x
_atom_site_fract_y
_atom_site_fract_z
Ni1 Ni 0.57188(8) -0.062043(19) 0.21944(3)
S1 S 0.40413(15) -0.06283(5) 0.39062(7)
S2 S 0.73454(15) -0.05944(4) 0.05032(7)
N1 N 0.5498(6) 0.02499(13) 0.2202(3)
N2 N 1.5241(7) 0.18880(16) 0.3680(3)
N3 N 0.5428(6) -0.14863(13) 0.2100(3)
N4 N 1.4308(8) -0.30871(16) 0.4795(3)
N5 N -0.0988(5) -0.06379(12) 0.3121(2)
N6 N 1.2368(5) -0.06122(13) 0.1278(2)
C1 C 0.7596(6) 0.05820(15) 0.2504(3)
C2 C 0.8562(7) 0.06545(16) 0.3572(3)
H1 H 0.7854 0.0482 0.4088
C3 C 1.0568(7) 0.09806(16) 0.3875(3)
H2 H 1.1208 0.1028 0.4594
C4 C 1.1639(7) 0.12388(15) 0.3111(3)
C5 C 1.0699(7) 0.11529(15) 0.2038(3)
H3 H 1.1424 0.1317 0.1519
C6 C 0.8681(7) 0.08227(15) 0.1739(3)
H4 H 0.8063 0.0764 0.1020
C7 C 1.3662(8) 0.15965(17) 0.3425(3)
C8 C 0.7316(7) -0.18208(14) 0.2657(3)
C9 C 0.9100(7) -0.20241(14) 0.2140(3)
H5 H 0.9066 -0.1940 0.1427
C10 C 1.0927(7) -0.23501(15) 0.2678(3)
H6 H 1.2093 -0.2496 0.2323
C11 C 1.1013(7) -0.24594(15) 0.3754(3)
C12 C 0.9251(8) -0.22449(17) 0.4276(3)
H7 H 0.9320 -0.2314 0.4997
C13 C 0.7415(8) -0.19320(16) 0.3730(3)
H8 H 0.6228 -0.1793 0.4081
C14 C 1.2884(9) -0.28104(17) 0.4324(4)
C15 C 0.1081(6) -0.06366(14) 0.3447(3)
C16 C 1.0301(6) -0.05994(14) 0.0954(3)
H9 H 0.477(7) 0.0341(16) 0.154(3)
H10 H 0.457(8) 0.0289(18) 0.266(3)
H11 H 0.411(8) -0.1535(16) 0.232(3)
H12 H 0.531(7) -0.1560(16) 0.140(3)
N5_2 N 0.9012(5) -0.06379(12) 0.3121(2)
N6_2 N 0.2368(5) -0.06122(13) 0.1278(2)
Ni1_2 Ni -0.42812(8) -0.062043(19) 0.21944(3)
Ni1_3 Ni 1.57188(8) -0.062043(19) 0.21944(3)
loop_
_geom_bond_atom_site_label_1
_geom_bond_atom_site_label_2
_geom_bond_site_symmetry_1
_geom_bond_site_symmetry_2
Ni1 S1 1_555 1_555
S1 C15 1_555 1_555
S2 Ni1 1_555 1_555
N1 Ni1 1_555 1_555
N2 C7 1_555 1_555
N3 Ni1 1_555 1_555
N4 C14 1_555 1_555
N5 C15 1_555 1_555
N6 C16 1_555 1_555
C1 N1 1_555 1_555
C2 C1 1_555 1_555
H1 C2 1_555 1_555
C3 C2 1_555 1_555
H2 C3 1_555 1_555
C4 C3 1_555 1_555
C5 C4 1_555 1_555
H3 C5 1_555 1_555
C6 C1 1_555 1_555
H4 C6 1_555 1_555
C7 C4 1_555 1_555
C8 N3 1_555 1_555
C9 C8 1_555 1_555
H5 C9 1_555 1_555
C10 C9 1_555 1_555
H6 C10 1_555 1_555
C11 C10 1_555 1_555
C12 C11 1_555 1_555
H7 C12 1_555 1_555
C13 C8 1_555 1_555
H8 C13 1_555 1_555
C14 C11 1_555 1_555
C16 S2 1_555 1_555
H9 N1 1_555 1_555
H10 N1 1_555 1_555
H11 N3 1_555 1_555
H12 N3 1_555 1_555
N5_2 Ni1 1_555 1_555
N6_2 Ni1 1_555 1_555
Ni1_2 N5 1_555 1_555
Ni1_3 N6 1_555 1_555
C5 C6 1_555 1_555
C12 C13 1_555 1_555

#END
