
#######################################################################
#
#                 Cambridge Crystallographic Data Centre
#                                CCDC 
#
#######################################################################
#
# If this CIF has been generated from an entry in the Cambridge 
# Structural Database, then it will include bibliographic, chemical, 
# crystal, experimental, refinement or atomic coordinate data resulting 
# from the CCDC's data processing and validation procedures.
#
#######################################################################

data_QAGWOM
_symmetry_cell_setting           monoclinic
_symmetry_space_group_name_H-M   'P 2/c'
_symmetry_Int_Tables_number      13
_space_group_name_Hall           '-P 2yc'
loop_
_symmetry_equiv_pos_site_id
_symmetry_equiv_pos_as_xyz
1 x,y,z
2 -x,y,1/2-z
3 -x,-y,-z
4 x,-y,1/2+z
_cell_length_a                   11.5535(19)
_cell_length_b                   11.5357(18)
_cell_length_c                   15.450(3)
_cell_angle_alpha                90
_cell_angle_beta                 114.365(12)
_cell_angle_gamma                90
_cell_volume                     1875.74
loop_
_atom_site_label
_atom_site_type_symbol
_atom_site_fract_x
_atom_site_fract_y
_atom_site_fract_z
Fe1 Fe 0.0000 -0.33358(19) -0.2500
S1 S 0.2493(5) -0.3235(6) 0.0925(4)
N1 N 0.0847(9) -0.3327(9) -0.0985(9)
N2 N -0.1920(8) -0.3312(8) -0.2468(7)
N3 N 0.0000 -0.5256(13) -0.2500
N4 N 0.0000 -1.1418(10) -0.2500
C1 C 0.1508(13) -0.3312(13) -0.0200(11)
C2 C -0.2111(11) -0.3647(12) -0.1731(9)
H1 H -0.1387 -0.3903 -0.1194
C3 C -0.3284(11) -0.3668(13) -0.1654(10)
H2 H -0.3358 -0.3889 -0.1087
C4 C -0.4371(10) -0.3325(10) -0.2508(8)
C5 C -0.4136(12) -0.2941(12) -0.3282(10)
H3 H -0.4819 -0.2659 -0.3836
C6 C -0.2954(12) -0.2966(12) -0.3250(9)
H4 H -0.2836 -0.2733 -0.3798
C7 C 0.0246(13) -0.5863(11) -0.1692(10)
H5 H 0.0403 -0.5435 -0.1129
C8 C 0.0285(14) -0.7068(11) -0.1625(12)
H6 H 0.0488 -0.7449 -0.1035
C9 C 0.0000 -0.7724(14) -0.2500
C10 C 0.0349(12) -1.0825(10) -0.3096(9)
H7 H 0.0593 -1.1236 -0.3527
C11 C 0.0363(13) -0.9620(10) -0.3101(9)
H8 H 0.0626 -0.9215 -0.3524
C12 C 0.0000 -0.9033(14) -0.2500
Fe1_2 Fe -1.0000 -0.33358(19) -0.2500
Fe1_3 Fe 0.0000 -1.33358(19) -0.2500
S1A S -0.2493(5) -0.3235(6) -0.5925(4)
N1A N -0.0847(9) -0.3327(9) -0.4015(9)
N2A N -0.8080(8) -0.3312(8) -0.2532(7)
N2A_2 N 0.1920(8) -0.3312(8) -0.2532(7)
N4_2 N 0.0000 -0.1418(10) -0.2500
C1A C -0.1508(13) -0.3312(13) -0.4800(11)
C2A C -0.7889(11) -0.3647(12) -0.3269(9)
H1A H -0.8613 -0.3903 -0.3806
C3A C -0.6716(11) -0.3668(13) -0.3346(10)
H2A H -0.6642 -0.3889 -0.3913
C4A C -0.5629(10) -0.3325(10) -0.2492(8)
C5A C -0.5864(12) -0.2941(12) -0.1718(10)
H3A H -0.5181 -0.2659 -0.1164
C6A C -0.7046(12) -0.2966(12) -0.1750(9)
H4A H -0.7164 -0.2733 -0.1202
C7A C -0.0246(13) -0.5863(11) -0.3308(10)
H5A H -0.0403 -0.5435 -0.3871
C8A C -0.0285(14) -0.7068(11) -0.3375(12)
H6A H -0.0488 -0.7449 -0.3965
C10A C -0.0349(12) -1.0825(10) -0.1904(9)
H7A H -0.0593 -1.1236 -0.1473
C11A C -0.0363(13) -0.9620(10) -0.1899(9)
H8A H -0.0626 -0.9215 -0.1476
O1 O 0.844(2) -0.0947(16) -0.0273(12)
C13 C 0.662(2) -0.040(2) -0.1491(19)
H9 H 0.6797 -0.1058 -0.1815
H10 H 0.6704 0.0325 -0.1797
H11 H 0.5756 -0.0457 -0.1529
C14 C 0.753(2) -0.0387(17) -0.0488(15)
C15 C 0.706(2) 0.031(2) 0.0230(13)
H12 H 0.7561 0.0061 0.0886
H13 H 0.6159 0.0145 0.0057
H14 H 0.7172 0.1147 0.0177
O2 O 0.3544(13) -0.7508(13) -0.0347(8)
C16 C 0.384(3) -0.799(3) -0.169(3)
H15 H 0.3756 -0.8770 -0.1473
H16 H 0.4687 -0.7898 -0.1683
H17 H 0.3193 -0.7871 -0.2335
C17 C 0.3665(17) -0.711(2) -0.1039(14)
C18 C 0.371(3) -0.593(2) -0.1236(18)
H18 H 0.3533 -0.5466 -0.0769
H19 H 0.3062 -0.5756 -0.1875
H20 H 0.4549 -0.5730 -0.1201
loop_
_geom_bond_atom_site_label_1
_geom_bond_atom_site_label_2
_geom_bond_site_symmetry_1
_geom_bond_site_symmetry_2
Fe1 N1 1_555 1_555
S1 C1 1_555 1_555
N1 C1 1_555 1_555
N2 Fe1 1_555 1_555
N3 Fe1 1_555 1_555
N4 C10 1_555 1_555
C2 N2 1_555 1_555
H1 C2 1_555 1_555
C3 C2 1_555 1_555
H2 C3 1_555 1_555
C4 C3 1_555 1_555
C5 C4 1_555 1_555
H3 C5 1_555 1_555
C6 N2 1_555 1_555
H4 C6 1_555 1_555
C7 N3 1_555 1_555
H5 C7 1_555 1_555
C8 C7 1_555 1_555
H6 C8 1_555 1_555
C9 C8 1_555 1_555
C10 H7 1_555 1_555
C11 C10 1_555 1_555
H8 C11 1_555 1_555
C12 C9 1_555 1_555
O1 C14 1_555 1_555
C13 H9 1_555 1_555
H10 C13 1_555 1_555
H11 C13 1_555 1_555
C14 C13 1_555 1_555
C15 C14 1_555 1_555
H12 C15 1_555 1_555
H13 C15 1_555 1_555
H14 C15 1_555 1_555
O2 C17 1_555 1_555
C16 H15 1_555 1_555
H16 C16 1_555 1_555
H17 C16 1_555 1_555
C17 C16 1_555 1_555
C18 C17 1_555 1_555
H18 C18 1_555 1_555
H19 C18 1_555 1_555
H20 C18 1_555 1_555
Fe1_2 N2A 1_555 1_555
Fe1_3 N4 1_555 1_555
S1A C1A 1_555 1_555
N1A Fe1 1_555 1_555
N2A C2A 1_555 1_555
N2A_2 Fe1 1_555 1_555
N4_2 Fe1 1_555 1_555
C1A N1A 1_555 1_555
C2A H1A 1_555 1_555
C3A C2A 1_555 1_555
H2A C3A 1_555 1_555
C4A C4 1_555 1_555
C5A C4A 1_555 1_555
H3A C5A 1_555 1_555
C6A N2A 1_555 1_555
H4A C6A 1_555 1_555
C7A N3 1_555 1_555
H5A C7A 1_555 1_555
C8A C9 1_555 1_555
H6A C8A 1_555 1_555
C10A N4 1_555 1_555
H7A C10A 1_555 1_555
C11A C12 1_555 1_555
H8A C11A 1_555 1_555
C5 C6 1_555 1_555
C11 C12 1_555 1_555
C3A C4A 1_555 1_555
C5A C6A 1_555 1_555
C7A C8A 1_555 1_555
C10A C11A 1_555 1_555

#END
