
#######################################################################
#
#                 Cambridge Crystallographic Data Centre
#                                CCDC 
#
#######################################################################
#
# If this CIF has been generated from an entry in the Cambridge 
# Structural Database, then it will include bibliographic, chemical, 
# crystal, experimental, refinement or atomic coordinate data resulting 
# from the CCDC's data processing and validation procedures.
#
#######################################################################

data_QAGWAY
_symmetry_cell_setting           monoclinic
_symmetry_space_group_name_H-M   'C 2/c'
_symmetry_Int_Tables_number      15
_space_group_name_Hall           '-C 2yn'
loop_
_symmetry_equiv_pos_site_id
_symmetry_equiv_pos_as_xyz
1 x,y,z
2 -x,y,1/2-z
3 1/2+x,1/2+y,z
4 1/2-x,1/2+y,1/2-z
5 -x,-y,-z
6 x,-y,1/2+z
7 1/2-x,1/2-y,-z
8 1/2+x,1/2-y,1/2+z
_cell_length_a                   21.3329(11)
_cell_length_b                   11.5783(5)
_cell_length_c                   12.9964(7)
_cell_angle_alpha                90
_cell_angle_beta                 99.347(3)
_cell_angle_gamma                90
_cell_volume                     3167.47
loop_
_atom_site_label
_atom_site_type_symbol
_atom_site_fract_x
_atom_site_fract_y
_atom_site_fract_z
Fe1 Fe 0.0000 0.28016(7) 0.2500
N1 N 0.03851(17) 0.2757(3) 0.1107(3)
C1 C 0.0734(2) 0.2977(4) 0.0533(3)
S1 S 0.12106(7) 0.32912(17) -0.02800(12)
N2 N -0.09733(16) 0.2758(3) 0.1574(3)
C2 C -0.1133(2) 0.3375(4) 0.0699(4)
H1 H -0.0826 0.3888 0.0501
C3 C -0.1720(2) 0.3307(4) 0.0068(4)
H2 H -0.1808 0.3768 -0.0544
C4 C -0.2184(2) 0.2560(4) 0.0330(3)
C5 C -0.2014(2) 0.1924(4) 0.1239(4)
H3 H -0.2308 0.1397 0.1455
C6 C -0.1417(2) 0.2054(4) 0.1832(4)
H4 H -0.1318 0.1618 0.2457
N3 N 0.0000 0.0872(4) 0.2500
C7 C -0.0112(3) 0.0274(4) 0.1615(4)
H5 H -0.0192 0.0687 0.0976
C8 C -0.0116(3) -0.0923(4) 0.1580(4)
H6 H -0.0199 -0.1314 0.0929
C9 C 0.0000 -0.1544(5) 0.2500
N4 N 0.0000 -0.5256(4) 0.2500
C10 C -0.0323(2) -0.4645(4) 0.3117(4)
H7 H -0.0561 -0.5054 0.3557
C11 C -0.0330(2) -0.3450(4) 0.3150(4)
H8 H -0.0559 -0.3059 0.3614
C12 C 0.0000 -0.2829(5) 0.2500
Fe1_2 Fe 0.0000 -0.71984(7) 0.2500
Fe1F Fe -0.5000 0.21984(7) -0.2500
N1A N -0.03851(17) 0.2757(3) 0.3893(3)
C1A C -0.0734(2) 0.2977(4) 0.4467(3)
S1A S -0.12106(7) 0.32912(17) 0.52800(12)
N2F N -0.40267(16) 0.2242(3) -0.1574(3)
N2A N 0.09733(16) 0.2758(3) 0.3426(3)
C2F C -0.3867(2) 0.1625(4) -0.0699(4)
H1F H -0.4174 0.1112 -0.0501
C3F C -0.3280(2) 0.1693(4) -0.0068(4)
H2F H -0.3192 0.1232 0.0544
C4F C -0.2816(2) 0.2440(4) -0.0330(3)
C5F C -0.2986(2) 0.3076(4) -0.1239(4)
H3F H -0.2692 0.3603 -0.1455
C6F C -0.3583(2) 0.2946(4) -0.1832(4)
H4F H -0.3682 0.3382 -0.2457
C7A C 0.0112(3) 0.0274(4) 0.3385(4)
H5A H 0.0192 0.0687 0.4024
C8A C 0.0116(3) -0.0923(4) 0.3420(4)
H6A H 0.0199 -0.1314 0.4071
N4_2 N 0.0000 0.4744(4) 0.2500
C10A C 0.0323(2) -0.4645(4) 0.1883(4)
H7A H 0.0561 -0.5054 0.1443
C11A C 0.0330(2) -0.3450(4) 0.1850(4)
H8A H 0.0559 -0.3059 0.1386
C13 C -0.1788(5) -0.0933(9) 0.2920(10)
H9 H -0.1406 -0.1349 0.2898
C14 C -0.2313(6) -0.1102(10) 0.2149(9)
H10 H -0.2290 -0.1635 0.1600
C15 C -0.2871(5) -0.0493(11) 0.2182(8)
H11 H -0.3229 -0.0609 0.1655
C16 C -0.2903(3) 0.0285(10) 0.2985(8)
H12 H -0.3285 0.0702 0.3008
C17 C -0.2378(4) 0.0455(9) 0.3756(6)
H13 H -0.2401 0.0987 0.4305
C18 C -0.1820(3) -0.0154(9) 0.3723(7)
C19 C -0.1277(5) -0.0070(11) 0.4504(9)
H14 H -0.1394 0.0288 0.5129
H15 H -0.0954 0.0403 0.4247
H16 H -0.1106 -0.0844 0.4677
C20? C -0.2791(4) -0.0085(9) 0.3062(9)
C21? C -0.2855(4) -0.0701(10) 0.2132(7)
C22? C -0.2336(5) -0.1278(9) 0.1856(6)
C23? C -0.1752(4) -0.1239(10) 0.2509(8)
C24? C -0.1687(4) -0.0624(10) 0.3439(7)
C25? C -0.2206(5) -0.0047(10) 0.3715(7)
C26? C -0.2006(10) 0.0553(17) 0.4629(14)
H17? H -0.3146 0.0309 0.3250
H18? H -0.3255 -0.0727 0.1686
H19? H -0.2380 -0.1698 0.1221
H20? H -0.1397 -0.1634 0.2320
H21? H -0.1288 -0.0598 0.3885
H22? H -0.1548 0.0696 0.4703
H23? H -0.2096 0.0097 0.5223
H24? H -0.2232 0.1292 0.4609
loop_
_geom_bond_atom_site_label_1
_geom_bond_atom_site_label_2
_geom_bond_site_symmetry_1
_geom_bond_site_symmetry_2
Fe1 N1 1_555 1_555
N1 C1 1_555 1_555
C1 S1 1_555 1_555
N2 Fe1 1_555 1_555
C2 N2 1_555 1_555
H1 C2 1_555 1_555
C3 C2 1_555 1_555
H2 C3 1_555 1_555
C4 C3 1_555 1_555
C5 C4 1_555 1_555
H3 C5 1_555 1_555
C6 N2 1_555 1_555
H4 C6 1_555 1_555
N3 Fe1 1_555 1_555
C7 N3 1_555 1_555
H5 C7 1_555 1_555
C8 C7 1_555 1_555
H6 C8 1_555 1_555
C9 C8 1_555 1_555
N4 C10 1_555 1_555
C10 H7 1_555 1_555
C11 C10 1_555 1_555
H8 C11 1_555 1_555
C12 C9 1_555 1_555
C13 H9 1_555 1_555
C14 C13 1_555 1_555
H10 C14 1_555 1_555
C15 C14 1_555 1_555
H11 C15 1_555 1_555
C16 C15 1_555 1_555
H12 C16 1_555 1_555
C17 C16 1_555 1_555
H13 C17 1_555 1_555
C18 C13 1_555 1_555
C19 C18 1_555 1_555
H14 C19 1_555 1_555
H15 C19 1_555 1_555
H16 C19 1_555 1_555
Fe1_2 N4 1_555 1_555
Fe1F N2F 1_555 1_555
N1A Fe1 1_555 1_555
C1A N1A 1_555 1_555
S1A C1A 1_555 1_555
N2F C2F 1_555 1_555
N2A Fe1 1_555 1_555
C2F H1F 1_555 1_555
C3F C2F 1_555 1_555
H2F C3F 1_555 1_555
C4F C4 1_555 1_555
C5F C4F 1_555 1_555
H3F C5F 1_555 1_555
C6F N2F 1_555 1_555
H4F C6F 1_555 1_555
C7A N3 1_555 1_555
H5A C7A 1_555 1_555
C8A C9 1_555 1_555
H6A C8A 1_555 1_555
N4_2 Fe1 1_555 1_555
C10A N4 1_555 1_555
H7A C10A 1_555 1_555
C11A C12 1_555 1_555
H8A C11A 1_555 1_555
C5 C6 1_555 1_555
C11 C12 1_555 1_555
C17 C18 1_555 1_555
C3F C4F 1_555 1_555
C5F C6F 1_555 1_555
C7A C8A 1_555 1_555
C10A C11A 1_555 1_555

#END
