
#######################################################################
#
#                 Cambridge Crystallographic Data Centre
#                                CCDC 
#
#######################################################################
#
# If this CIF has been generated from an entry in the Cambridge 
# Structural Database, then it will include bibliographic, chemical, 
# crystal, experimental, refinement or atomic coordinate data resulting 
# from the CCDC's data processing and validation procedures.
#
#######################################################################

data_QAGXON
_symmetry_cell_setting           monoclinic
_symmetry_space_group_name_H-M   'P 21/n'
_symmetry_Int_Tables_number      14
_space_group_name_Hall           '-P 2yn'
loop_
_symmetry_equiv_pos_site_id
_symmetry_equiv_pos_as_xyz
1 x,y,z
2 1/2-x,1/2+y,1/2-z
3 -x,-y,-z
4 1/2+x,1/2-y,1/2+z
_cell_length_a                   12.8870(15)
_cell_length_b                   19.247(2)
_cell_length_c                   15.4475(17)
_cell_angle_alpha                90
_cell_angle_beta                 108.090(2)
_cell_angle_gamma                90
_cell_volume                     3642.14
loop_
_atom_site_label
_atom_site_type_symbol
_atom_site_fract_x
_atom_site_fract_y
_atom_site_fract_z
Sn1 Sn 0.71027(4) 0.92811(2) 0.70138(3)
Sn2 Sn 0.57228(3) 0.83961(2) 0.39104(3)
Sn3 Sn 0.63003(3) 0.67522(2) 0.65032(3)
O1 O 0.5674(3) 0.8764(2) 0.6608(3)
O2 O 0.5111(4) 0.8728(2) 0.4894(3)
O3 O 0.5263(3) 0.7611(2) 0.5777(3)
O4 O 0.7795(4) 0.8309(2) 0.6672(3)
O5 O 0.7401(3) 0.7130(2) 0.5941(3)
O6 O 0.7278(3) 0.8195(2) 0.4958(3)
O7 O 0.6093(4) 1.0078(2) 0.7281(3)
O8 O 0.7603(3) 1.0893(2) 0.8045(3)
O9 O 0.5804(3) 1.1371(2) 0.7085(3)
P1 P 0.50038(13) 0.83748(8) 0.57547(11)
P2 P 0.78344(13) 0.78694(8) 0.58770(11)
P3 P 0.63718(13) 1.07901(8) 0.77146(11)
C1 C 0.3599(5) 0.8474(4) 0.5721(5)
H1 H 0.3407 0.8963 0.5660
H2 H 0.3132 0.8234 0.5191
C2 C 0.3395(6) 0.8192(4) 0.6559(5)
C3 C 0.3089(8) 0.7521(5) 0.6592(7)
H3 H 0.2988 0.7236 0.6086
C4 C 0.2926(9) 0.7255(6) 0.7377(8)
H4 H 0.2709 0.6795 0.7385
C5 C 0.3072(8) 0.7641(7) 0.8112(8)
H5 H 0.2947 0.7457 0.8627
C6 C 0.3400(9) 0.8293(6) 0.8108(7)
H6 H 0.3521 0.8565 0.8628
C7 C 0.3567(8) 0.8575(5) 0.7324(7)
H7 H 0.3800 0.9033 0.7331
C8 C 0.9241(5) 0.7718(4) 0.5956(5)
H8 H 0.9607 0.7511 0.6544
H9 H 0.9262 0.7382 0.5493
C9 C 0.9869(6) 0.8348(4) 0.5845(5)
C10 C 1.0123(7) 0.8443(5) 0.5045(6)
H10 H 0.9898 0.8116 0.4581
C11 C 1.0710(8) 0.9023(5) 0.4927(7)
H11 H 1.0868 0.9087 0.4385
C12 C 1.1051(8) 0.9496(5) 0.5611(8)
H12 H 1.1451 0.9881 0.5537
C13 C 1.0816(8) 0.9413(5) 0.6392(7)
H13 H 1.1050 0.9741 0.6855
C14 C 1.0214(7) 0.8830(4) 0.6513(6)
H14 H 1.0051 0.8776 0.7055
C15 C 0.5858(6) 1.0812(4) 0.8681(5)
H15 H 0.5976 1.1275 0.8941
H16 H 0.5075 1.0736 0.8459
C16 C 0.6341(7) 1.0301(4) 0.9426(6)
C17 C 0.5911(9) 0.9644(6) 0.9423(8)
H17 H 0.5314 0.9503 0.8940
C18 C 0.6382(12) 0.9186(7) 1.0158(10)
H18 H 0.6108 0.8741 1.0179
C19 C 0.7261(13) 0.9432(8) 1.0834(10)
H19 H 0.7559 0.9139 1.1328
C20 C 0.7747(12) 1.0069(8) 1.0859(9)
H20 H 0.8370 1.0198 1.1324
C21 C 0.7239(9) 1.0507(6) 1.0136(6)
H21 H 0.7513 1.0954 1.0130
C22 C 0.7452(7) 0.9866(4) 0.5994(5)
H22 H 0.7993 0.9629 0.5795
H23 H 0.7724 1.0314 0.6231
H24 H 0.6799 0.9922 0.5488
C23 C 0.7976(7) 0.9087(4) 0.8378(5)
H25 H 0.7534 0.8818 0.8652
H26 H 0.8166 0.9520 0.8697
H27 H 0.8629 0.8834 0.8412
C24 C 0.5448(6) 0.7330(3) 0.3645(5)
H28 H 0.5718 0.7074 0.4204
H29 H 0.5821 0.7181 0.3228
H30 H 0.4679 0.7247 0.3383
C25 C 0.6534(6) 0.9219(4) 0.3479(5)
H31 H 0.6317 0.9654 0.3673
H32 H 0.6344 0.9214 0.2827
H33 H 0.7309 0.9162 0.3740
C26 C 0.6478(7) 0.7135(4) 0.7818(5)
H34 H 0.7175 0.7358 0.8055
H35 H 0.6431 0.6757 0.8209
H36 H 0.5908 0.7464 0.7789
C27 C 0.5176(6) 0.6056(4) 0.5650(6)
H37 H 0.4446 0.6218 0.5564
H38 H 0.5266 0.5604 0.5926
H39 H 0.5304 0.6029 0.5070
Sn2B Sn 0.42772(3) 1.16039(2) 0.60896(3)
Sn3A Sn 0.86997(3) 1.17522(2) 0.84968(3)
O8A O 0.7397(3) 0.5893(2) 0.6955(3)
O9B O 0.4196(3) 0.8629(2) 0.2915(3)
loop_
_geom_bond_atom_site_label_1
_geom_bond_atom_site_label_2
_geom_bond_site_symmetry_1
_geom_bond_site_symmetry_2
Sn1 O1 1_555 1_555
Sn2 O2 1_555 1_555
Sn3 O3 1_555 1_555
O1 P1 1_555 1_555
O2 P1 1_555 1_555
O3 P1 1_555 1_555
O4 Sn1 1_555 1_555
O5 Sn3 1_555 1_555
O6 Sn2 1_555 1_555
O7 Sn1 1_555 1_555
O8 P3 1_555 1_555
O9 P3 1_555 1_555
P1 C1 1_555 1_555
P2 O4 1_555 1_555
P3 O7 1_555 1_555
C1 H1 1_555 1_555
H2 C1 1_555 1_555
C2 C1 1_555 1_555
C3 C2 1_555 1_555
H3 C3 1_555 1_555
C4 C3 1_555 1_555
H4 C4 1_555 1_555
C5 C4 1_555 1_555
H5 C5 1_555 1_555
C6 C5 1_555 1_555
H6 C6 1_555 1_555
C7 C2 1_555 1_555
H7 C7 1_555 1_555
C8 P2 1_555 1_555
H8 C8 1_555 1_555
H9 C8 1_555 1_555
C9 C8 1_555 1_555
C10 C9 1_555 1_555
H10 C10 1_555 1_555
C11 C10 1_555 1_555
H11 C11 1_555 1_555
C12 C11 1_555 1_555
H12 C12 1_555 1_555
C13 C12 1_555 1_555
H13 C13 1_555 1_555
C14 C9 1_555 1_555
H14 C14 1_555 1_555
C15 P3 1_555 1_555
H15 C15 1_555 1_555
H16 C15 1_555 1_555
C16 C15 1_555 1_555
C17 C16 1_555 1_555
H17 C17 1_555 1_555
C18 C17 1_555 1_555
H18 C18 1_555 1_555
C19 C18 1_555 1_555
H19 C19 1_555 1_555
C20 C19 1_555 1_555
H20 C20 1_555 1_555
C21 C16 1_555 1_555
H21 C21 1_555 1_555
C22 Sn1 1_555 1_555
H22 C22 1_555 1_555
H23 C22 1_555 1_555
H24 C22 1_555 1_555
C23 Sn1 1_555 1_555
H25 C23 1_555 1_555
H26 C23 1_555 1_555
H27 C23 1_555 1_555
C24 Sn2 1_555 1_555
H28 C24 1_555 1_555
H29 C24 1_555 1_555
H30 C24 1_555 1_555
C25 Sn2 1_555 1_555
H31 C25 1_555 1_555
H32 C25 1_555 1_555
H33 C25 1_555 1_555
C26 Sn3 1_555 1_555
H34 C26 1_555 1_555
H35 C26 1_555 1_555
H36 C26 1_555 1_555
C27 Sn3 1_555 1_555
H37 C27 1_555 1_555
H38 C27 1_555 1_555
H39 C27 1_555 1_555
Sn2B O9 1_555 1_555
Sn3A O8 1_555 1_555
O8A Sn3 1_555 1_555
O9B Sn2 1_555 1_555
O5 P2 1_555 1_555
O6 P2 1_555 1_555
C6 C7 1_555 1_555
C13 C14 1_555 1_555
C20 C21 1_555 1_555

#END
