
#######################################################################
#
#                 Cambridge Crystallographic Data Centre
#                                CCDC 
#
#######################################################################
#
# If this CIF has been generated from an entry in the Cambridge 
# Structural Database, then it will include bibliographic, chemical, 
# crystal, experimental, refinement or atomic coordinate data resulting 
# from the CCDC's data processing and validation procedures.
#
#######################################################################

data_QAHBEI
_symmetry_cell_setting           triclinic
_symmetry_space_group_name_H-M   'P -1'
_symmetry_Int_Tables_number      2
_space_group_name_Hall           '-P 1'
loop_
_symmetry_equiv_pos_site_id
_symmetry_equiv_pos_as_xyz
1 x,y,z
2 -x,-y,-z
_cell_length_a                   11.24(2)
_cell_length_b                   13.69(2)
_cell_length_c                   15.81(3)
_cell_angle_alpha                108.41(3)
_cell_angle_beta                 92.04(3)
_cell_angle_gamma                108.20(3)
_cell_volume                     2168.33
loop_
_atom_site_label
_atom_site_type_symbol
_atom_site_fract_x
_atom_site_fract_y
_atom_site_fract_z
P1 P 0.39927(7) 0.56620(7) 0.61194(5)
Ag1 Ag 0.55878(2) 0.61187(2) 0.735670(15)
C1 C 0.5419(3) 0.1113(2) 1.0225(2)
C2 C 0.8252(2) 0.8469(2) 0.99523(18)
C3 C 0.6997(3) 0.8710(3) 0.8546(2)
H1 H 0.6581 0.8795 0.8070
C4 C 0.6743(3) 0.3374(3) 0.8542(2)
H2 H 0.6932 0.2849 0.8722
C5 C 0.5845(3) 0.0710(3) 1.0837(2)
H3 H 0.6385 0.1162 1.1372
C6 C 0.2363(3) 0.4883(3) 0.6185(2)
C7 C 0.7461(3) 0.7585(2) 0.9227(2)
H4 H 0.7363 0.6882 0.9218
C8 C 0.8919(3) 0.8306(2) 1.0712(2)
H5 H 0.9714 0.8909 1.0951
H6 H 0.8403 0.8323 1.1192
C9 C 0.5425(3) 0.4419(3) 0.8461(2)
H7 H 0.4700 0.4589 0.8601
C10 C 0.3899(3) 0.6828(3) 0.5812(2)
C11 C 0.4612(3) 0.0440(3) 0.9423(2)
C12 C 0.5690(3) 0.3666(3) 0.8784(2)
C13 C 0.1383(3) 0.4511(3) 0.5466(2)
H8 H 0.1539 0.4707 0.4958
C14 C 0.7763(3) 0.9638(2) 0.9235(2)
H9 H 0.7861 1.0332 0.9218
C15 C 0.5656(3) 0.2283(3) 1.0310(3)
C16 C 0.8378(3) 0.9516(2) 0.9948(2)
H10 H 0.8875 1.0131 1.0425
C17 C 0.2098(4) 0.4583(4) 0.6927(3)
H11 H 0.2737 0.4826 0.7412
C18 C 0.3548(4) 0.6744(4) 0.4927(3)
H12 H 0.3335 0.6074 0.4462
C19 C 0.4327(3) 0.4743(3) 0.5100(2)
H13 H 0.4251 0.4054 0.5181
H14 H 0.3708 0.4593 0.4591
C20 C 0.0887(4) 0.3920(5) 0.6965(3)
H15 H 0.0724 0.3728 0.7474
C21 C 0.7186(3) 0.4652(3) 0.7756(2)
H16 H 0.7715 0.4998 0.7421
C22 C 0.0182(3) 0.3853(4) 0.5504(3)
H17 H -0.0463 0.3613 0.5023
C23 C 0.4305(3) 0.1158(3) 0.8968(3)
C24 C -0.0062(4) 0.3552(5) 0.6252(3)
H18 H -0.0867 0.3102 0.6273
C25 C 0.4208(5) 0.7833(4) 0.6502(3)
H19 H 0.4423 0.7896 0.7095
C26 C 0.7500(4) 0.3882(3) 0.8028(3)
H20 H 0.8216 0.3709 0.7865
C27 C 0.4832(5) 0.3208(4) 0.9387(4)
H21 H 0.4995 0.3775 0.9973
H22 H 0.3960 0.3031 0.9135
C28 C 0.3519(5) 0.7666(6) 0.4748(5)
H23 H 0.3282 0.7606 0.4159
C29 C 0.4190(7) 0.8759(5) 0.6289(6)
H24 H 0.4423 0.9441 0.6742
C30 C 0.3830(6) 0.8656(6) 0.5418(6)
H25 H 0.3798 0.9263 0.5286
C31 C 1.0185(3) 0.5999(2) 0.99171(19)
C32 C 0.9252(3) 0.5574(2) 1.03877(18)
C33 C 0.9021(3) 0.4559(2) 1.04896(19)
H26 H 0.8393 0.4279 1.0801
C34 C 0.8588(3) 0.6391(2) 1.07282(19)
C35 C 1.0163(3) 0.7109(2) 0.99575(19)
N1 N 0.6154(3) 0.4918(2) 0.79574(19)
N2 N 0.4974(3) 0.2227(2) 0.9511(2)
N3 N 0.6830(2) 0.7691(2) 0.85372(16)
N4 N 0.9177(2) 0.72697(18) 1.04401(15)
O1 O 0.3577(3) 0.0896(3) 0.8279(2)
O2 O 0.6267(3) 0.3116(2) 1.0929(2)
O3 O 1.0828(2) 0.77487(17) 0.96395(16)
O4 O 0.7708(2) 0.6315(2) 1.11513(18)
P1A P 0.60073(7) 0.43380(7) 0.38806(5)
P1A_2 P 0.60073(7) -0.56620(7) 1.38806(5)
Ag1A Ag 0.44122(2) -0.61187(2) 1.264330(15)
Ag1A_2 Ag 0.44122(2) 0.38813(2) 0.264330(15)
Ag1A_3 Ag 1.44122(2) 0.38813(2) 1.264330(15)
C1A C 0.4581(3) -0.1113(2) 0.9775(2)
C2A C 1.1748(2) 0.1531(2) 1.00477(18)
C3A C 1.3003(3) 0.1290(3) 1.1454(2)
H1A H 1.3419 0.1205 1.1930
C4A C 0.3257(3) -0.3374(3) 1.1458(2)
H2A H 0.3068 -0.2849 1.1278
C5A C 0.4155(3) -0.0710(3) 0.9163(2)
H3A H 0.3615 -0.1162 0.8628
C6A C 0.7637(3) 0.5117(3) 0.3815(2)
C7A C 1.2539(3) 0.2415(2) 1.0773(2)
H4A H 1.2637 0.3118 1.0782
C8A C 1.1081(3) 0.1694(2) 0.9288(2)
H5A H 1.0286 0.1091 0.9049
H6A H 1.1597 0.1677 0.8808
C9A C 0.4575(3) -0.4419(3) 1.1539(2)
H7A H 0.5300 -0.4589 1.1399
C10A C 0.6101(3) 0.3172(3) 0.4188(2)
C11A C 0.5388(3) -0.0440(3) 1.0577(2)
C12A C 0.4310(3) -0.3666(3) 1.1216(2)
C13A C 0.8617(3) 0.5489(3) 0.4534(2)
H8A H 0.8461 0.5293 0.5042
C14A C 1.2237(3) 0.0362(2) 1.0765(2)
H9A H 1.2139 -0.0332 1.0782
C15A C 0.4344(3) -0.2283(3) 0.9690(3)
C16A C 1.1622(3) 0.0484(2) 1.0052(2)
H10A H 1.1125 -0.0131 0.9575
C17A C 0.7902(4) 0.5417(4) 0.3073(3)
H11A H 0.7263 0.5174 0.2588
C18A C 0.6452(4) 0.3256(4) 0.5073(3)
H12A H 0.6665 0.3926 0.5538
C19A C 0.5673(3) 0.5257(3) 0.4900(2)
H13A H 0.5749 0.5946 0.4819
H14A H 0.6292 0.5407 0.5409
C20A C 0.9113(4) 0.6080(5) 0.3035(3)
H15A H 0.9276 0.6272 0.2526
C21A C 0.2814(3) -0.4652(3) 1.2244(2)
H16A H 0.2285 -0.4998 1.2579
C22A C 0.9818(3) 0.6147(4) 0.4496(3)
H17A H 1.0463 0.6387 0.4977
C23A C 0.5695(3) -0.1158(3) 1.1032(3)
C24A C 1.0062(4) 0.6448(5) 0.3748(3)
H18A H 1.0867 0.6898 0.3727
C25A C 0.5792(5) 0.2167(4) 0.3498(3)
H19A H 0.5577 0.2104 0.2905
C26A C 0.2500(4) -0.3882(3) 1.1972(3)
H20A H 0.1784 -0.3709 1.2135
C27A C 0.5168(5) -0.3208(4) 1.0613(4)
H21A H 0.5005 -0.3775 1.0027
H22A H 0.6040 -0.3031 1.0865
C28A C 0.6481(5) 0.2334(6) 0.5252(5)
H23A H 0.6718 0.2394 0.5841
C29A C 0.5810(7) 0.1241(5) 0.3711(6)
H24A H 0.5577 0.0559 0.3258
C30A C 0.6170(6) 0.1344(6) 0.4582(6)
H25A H 0.6202 0.0737 0.4714
C31A C 0.9815(3) 0.4001(2) 1.00829(19)
C32A C 1.0748(3) 0.4426(2) 0.96123(18)
C33A C 1.0979(3) 0.5441(2) 0.95104(19)
H26A H 1.1607 0.5721 0.9199
C34A C 1.1412(3) 0.3609(2) 0.92718(19)
C35A C 0.9837(3) 0.2891(2) 1.00425(19)
N1A N 0.3846(3) -0.4918(2) 1.20426(19)
N2A N 0.5026(3) -0.2227(2) 1.0489(2)
N3A N 1.3170(2) 0.2309(2) 1.14628(16)
N3A_2 N 0.3170(2) -0.7691(2) 1.14628(16)
N4A N 1.0823(2) 0.27303(18) 0.95599(15)
O1A O 0.6423(3) -0.0896(3) 1.1721(2)
O2A O 0.3733(3) -0.3116(2) 0.9071(2)
O3A O 0.9172(2) 0.22513(17) 1.03605(16)
O4A O 1.2292(2) 0.3685(2) 0.88487(18)
B1 B 1.2029(7) 0.8906(5) 1.2480(4)
F1 F 1.3068(5) 0.9133(4) 1.2010(3)
F2 F 1.2423(5) 0.8761(3) 1.3237(3)
F3 F 1.1570(5) 0.9735(3) 1.2617(3)
F4 F 1.1194(4) 0.7957(3) 1.1927(3)
C36 C 0.8652(4) 0.7332(4) 0.6889(3)
H27 H 0.8292 0.7832 0.6818
C37 C 1.0529(5) 0.6917(6) 0.7186(5)
H28 H 0.9907 0.6213 0.7091
H29 H 1.0988 0.7205 0.7785
H30 H 1.1106 0.6845 0.6756
C38 C 1.0696(7) 0.8780(5) 0.7172(7)
H31 H 1.0174 0.9188 0.7086
H32 H 1.1262 0.8752 0.6731
H33 H 1.1179 0.9131 0.7766
N5 N 0.9894(3) 0.7666(3) 0.7072(3)
O5 O 0.7926(3) 0.6410(3) 0.6803(2)
C39 C 0.2389(15) 0.1523(13) 0.4943(7)
H34 H 0.3114 0.2107 0.4918
H35 H 0.1630 0.1644 0.4778
H36 H 0.2399 0.0840 0.4532
C40 C 0.1528(19) 0.089(2) 0.6175(18)
H37 H 0.1806 0.1027 0.6795
H38 H 0.1339 0.0134 0.5832
H39 H 0.0782 0.1086 0.6132
C41 C 0.330(3) 0.185(2) 0.631(3)
H40 H 0.3558 0.1460 0.6619
N6 N 0.2424(10) 0.1490(7) 0.5859(6)
O6 O 0.3993(14) 0.2868(11) 0.6410(6)
loop_
_geom_bond_atom_site_label_1
_geom_bond_atom_site_label_2
_geom_bond_site_symmetry_1
_geom_bond_site_symmetry_2
P1 Ag1 1_555 1_555
Ag1 N1 1_555 1_555
B1 F1 1_555 1_555
C1 C5 1_555 1_555
C2 C7 1_555 1_555
C3 H1 1_555 1_555
C4 H2 1_555 1_555
C5 H3 1_555 1_555
C6 P1 1_555 1_555
C7 H4 1_555 1_555
C8 C2 1_555 1_555
H5 C8 1_555 1_555
H6 C8 1_555 1_555
C9 H7 1_555 1_555
C10 P1 1_555 1_555
C11 C1 1_555 1_555
C12 C4 1_555 1_555
C13 C6 1_555 1_555
H8 C13 1_555 1_555
C14 C3 1_555 1_555
H9 C14 1_555 1_555
C15 C1 1_555 1_555
C16 C2 1_555 1_555
H10 C16 1_555 1_555
C17 C6 1_555 1_555
H11 C17 1_555 1_555
C18 C10 1_555 1_555
H12 C18 1_555 1_555
C19 P1 1_555 1_555
H13 C19 1_555 1_555
H14 C19 1_555 1_555
C20 C17 1_555 1_555
H15 C20 1_555 1_555
C21 H16 1_555 1_555
C22 C13 1_555 1_555
H17 C22 1_555 1_555
C23 C11 1_555 1_555
C24 C20 1_555 1_555
H18 C24 1_555 1_555
C25 C10 1_555 1_555
H19 C25 1_555 1_555
C26 C4 1_555 1_555
H20 C26 1_555 1_555
C27 C12 1_555 1_555
H21 C27 1_555 1_555
H22 C27 1_555 1_555
C28 C18 1_555 1_555
H23 C28 1_555 1_555
C29 C25 1_555 1_555
H24 C29 1_555 1_555
C30 C28 1_555 1_555
H25 C30 1_555 1_555
C31 C32 1_555 1_555
C32 C33 1_555 1_555
C33 H26 1_555 1_555
C34 C32 1_555 1_555
C35 C31 1_555 1_555
C36 H27 1_555 1_555
C37 H28 1_555 1_555
H29 C37 1_555 1_555
H30 C37 1_555 1_555
C38 H31 1_555 1_555
H32 C38 1_555 1_555
H33 C38 1_555 1_555
C39 H34 1_555 1_555
H35 C39 1_555 1_555
H36 C39 1_555 1_555
C40 H37 1_555 1_555
H38 C40 1_555 1_555
H39 C40 1_555 1_555
C41 H40 1_555 1_555
N1 C9 1_555 1_555
N2 C15 1_555 1_555
N3 Ag1 1_555 1_555
N4 C8 1_555 1_555
N5 C36 1_555 1_555
N6 C39 1_555 1_555
O1 C23 1_555 1_555
O2 C15 1_555 1_555
O3 C35 1_555 1_555
O4 C34 1_555 1_555
O5 C36 1_555 1_555
O6 C41 1_555 1_555
F2 B1 1_555 1_555
F3 B1 1_555 1_555
F4 B1 1_555 1_555
P1A Ag1A_2 1_555 1_555
P1A_2 Ag1A 1_555 1_555
Ag1A N1A 1_555 1_555
Ag1A_3 N3A 1_555 1_555
C1A C5A 1_555 1_555
C2A C7A 1_555 1_555
C3A H1A 1_555 1_555
C4A H2A 1_555 1_555
C5A C11 1_555 1_555
H3A C5A 1_555 1_555
C6A P1A 1_555 1_555
C7A H4A 1_555 1_555
C8A C2A 1_555 1_555
H5A C8A 1_555 1_555
H6A C8A 1_555 1_555
C9A H7A 1_555 1_555
C10A P1A 1_555 1_555
C11A C5 1_555 1_555
C12A C4A 1_555 1_555
C13A C6A 1_555 1_555
H8A C13A 1_555 1_555
C14A C3A 1_555 1_555
H9A C14A 1_555 1_555
C15A C1A 1_555 1_555
C16A C2A 1_555 1_555
H10A C16A 1_555 1_555
C17A C6A 1_555 1_555
H11A C17A 1_555 1_555
C18A C10A 1_555 1_555
H12A C18A 1_555 1_555
C19A C19 1_555 1_555
H13A C19A 1_555 1_555
H14A C19A 1_555 1_555
C20A C17A 1_555 1_555
H15A C20A 1_555 1_555
C21A H16A 1_555 1_555
C22A C13A 1_555 1_555
H17A C22A 1_555 1_555
C23A C11A 1_555 1_555
C24A C20A 1_555 1_555
H18A C24A 1_555 1_555
C25A C10A 1_555 1_555
H19A C25A 1_555 1_555
C26A C4A 1_555 1_555
H20A C26A 1_555 1_555
C27A C12A 1_555 1_555
H21A C27A 1_555 1_555
H22A C27A 1_555 1_555
C28A C18A 1_555 1_555
H23A C28A 1_555 1_555
C29A C25A 1_555 1_555
H24A C29A 1_555 1_555
C30A C28A 1_555 1_555
H25A C30A 1_555 1_555
C31A C33 1_555 1_555
C32A C31A 1_555 1_555
C33A C31 1_555 1_555
H26A C33A 1_555 1_555
C34A C32A 1_555 1_555
C35A C31A 1_555 1_555
N1A C9A 1_555 1_555
N2A C15A 1_555 1_555
N3A C3A 1_555 1_555
N3A_2 Ag1A 1_555 1_555
N4A C8A 1_555 1_555
O1A C23A 1_555 1_555
O2A C15A 1_555 1_555
O3A C35A 1_555 1_555
O4A C34A 1_555 1_555
C3 N3 1_555 1_555
C7 N3 1_555 1_555
C9 C12 1_555 1_555
C14 C16 1_555 1_555
C21 C26 1_555 1_555
C21 N1 1_555 1_555
C22 C24 1_555 1_555
C23 N2 1_555 1_555
C27 N2 1_555 1_555
C29 C30 1_555 1_555
C34 N4 1_555 1_555
C35 N4 1_555 1_555
C37 N5 1_555 1_555
C38 N5 1_555 1_555
C40 N6 1_555 1_555
C41 N6 1_555 1_555
P1A C19A 1_555 1_555
C1A C11A 1_555 1_555
C7A N3A 1_555 1_555
C9A C12A 1_555 1_555
C14A C16A 1_555 1_555
C21A C26A 1_555 1_555
C21A N1A 1_555 1_555
C22A C24A 1_555 1_555
C23A N2A 1_555 1_555
C27A N2A 1_555 1_555
C29A C30A 1_555 1_555
C32A C33A 1_555 1_555
C34A N4A 1_555 1_555
C35A N4A 1_555 1_555

#END
