
#######################################################################
#
#                 Cambridge Crystallographic Data Centre
#                                CCDC 
#
#######################################################################
#
# If this CIF has been generated from an entry in the Cambridge 
# Structural Database, then it will include bibliographic, chemical, 
# crystal, experimental, refinement or atomic coordinate data resulting 
# from the CCDC's data processing and validation procedures.
#
#######################################################################

data_QAHCAF
_symmetry_cell_setting           monoclinic
_symmetry_space_group_name_H-M   'P 21/c'
_symmetry_Int_Tables_number      14
_space_group_name_Hall           '-P 2ybc'
loop_
_symmetry_equiv_pos_site_id
_symmetry_equiv_pos_as_xyz
1 x,y,z
2 -x,1/2+y,1/2-z
3 -x,-y,-z
4 x,1/2-y,1/2+z
_cell_length_a                   8.3129(2)
_cell_length_b                   21.5540(5)
_cell_length_c                   8.9118(2)
_cell_angle_alpha                90
_cell_angle_beta                 110.3900(10)
_cell_angle_gamma                90
_cell_volume                     1496.73
loop_
_atom_site_label
_atom_site_type_symbol
_atom_site_fract_x
_atom_site_fract_y
_atom_site_fract_z
Ag1 Ag 0.20357(10) 0.51266(4) 0.54182(9)
S1 S 0.2661(3) 0.48742(13) 0.8311(3)
S2 S -0.0518(3) 0.41346(12) 0.6728(3)
S3 S 0.3638(3) 0.41358(13) 0.3374(3)
O1 O 0.3177(11) 0.4162(4) 0.4808(9)
O2 O 0.2765(10) 0.4606(4) 0.2205(9)
O3 O 0.5468(10) 0.4106(4) 0.3716(10)
C1 C 0.0697(14) 0.4586(5) 0.8453(12)
H1 H -0.0010 0.4940 0.8567
H2 H 0.0962 0.4325 0.9424
C2 C 0.3905(15) 0.4169(6) 0.8653(15)
H3 H 0.4053 0.4008 0.9722
H4 H 0.5032 0.4255 0.8579
H5 H 0.3305 0.3860 0.7845
C3 C -0.2180(15) 0.3862(6) 0.7423(15)
H6 H -0.2753 0.4218 0.7705
H7 H -0.3020 0.3621 0.6575
H8 H -0.1674 0.3599 0.8368
C4 C 0.2836(13) 0.3412(5) 0.2444(13)
C5 C 0.1048(14) 0.3266(5) 0.1879(13)
C6 C -0.0249(13) 0.3651(6) 0.2132(14)
H9 H 0.0056 0.4032 0.2697
C7 C -0.1910(15) 0.3465(6) 0.1554(16)
H10 H -0.2748 0.3721 0.1744
C8 C -0.2455(16) 0.2914(6) 0.0691(14)
H11 H -0.3640 0.2810 0.0280
C9 C -0.1276(16) 0.2528(6) 0.0448(15)
H12 H -0.1640 0.2153 -0.0127
C10 C 0.0540(14) 0.2687(5) 0.1061(12)
C11 C 0.1759(15) 0.2278(6) 0.0856(15)
H13 H 0.1394 0.1898 0.0304
C12 C 0.3441(15) 0.2419(6) 0.1432(16)
H14 H 0.4254 0.2134 0.1303
C13 C 0.4019(14) 0.2997(6) 0.2238(14)
H15 H 0.5207 0.3095 0.2631
Ag1B Ag -0.20357(10) 0.48734(4) 0.45818(9)
Ag1B_2 Ag 0.79643(10) 0.48734(4) 0.45818(9)
S2B S 0.0518(3) 0.58654(12) 0.3272(3)
O3B O 0.4532(10) 0.5894(4) 0.6284(10)
loop_
_geom_bond_atom_site_label_1
_geom_bond_atom_site_label_2
_geom_bond_site_symmetry_1
_geom_bond_site_symmetry_2
Ag1 S1 1_555 1_555
S1 C1 1_555 1_555
S2 C1 1_555 1_555
S3 O1 1_555 1_555
O1 Ag1 1_555 1_555
O2 S3 1_555 1_555
O3 S3 1_555 1_555
C1 H1 1_555 1_555
H2 C1 1_555 1_555
C2 S1 1_555 1_555
H3 C2 1_555 1_555
H4 C2 1_555 1_555
H5 C2 1_555 1_555
C3 S2 1_555 1_555
H6 C3 1_555 1_555
H7 C3 1_555 1_555
H8 C3 1_555 1_555
C4 S3 1_555 1_555
C5 C4 1_555 1_555
C6 C5 1_555 1_555
H9 C6 1_555 1_555
C7 C6 1_555 1_555
H10 C7 1_555 1_555
C8 C7 1_555 1_555
H11 C8 1_555 1_555
C9 C8 1_555 1_555
H12 C9 1_555 1_555
C10 C5 1_555 1_555
C11 C10 1_555 1_555
H13 C11 1_555 1_555
C12 C11 1_555 1_555
H14 C12 1_555 1_555
C13 C4 1_555 1_555
H15 C13 1_555 1_555
Ag1B Ag1 1_555 1_555
Ag1B_2 O3 1_555 1_555
S2B Ag1 1_555 1_555
O3B Ag1 1_555 1_555
S2 Ag1B 1_555 1_555
C9 C10 1_555 1_555
C12 C13 1_555 1_555

#END
