
#######################################################################
#
#                 Cambridge Crystallographic Data Centre
#                                CCDC 
#
#######################################################################
#
# If this CIF has been generated from an entry in the Cambridge 
# Structural Database, then it will include bibliographic, chemical, 
# crystal, experimental, refinement or atomic coordinate data resulting 
# from the CCDC's data processing and validation procedures.
#
#######################################################################

data_QAHTOI
_symmetry_cell_setting           monoclinic
_symmetry_space_group_name_H-M   'P 21/m'
_symmetry_Int_Tables_number      11
_space_group_name_Hall           '-P 2yb'
loop_
_symmetry_equiv_pos_site_id
_symmetry_equiv_pos_as_xyz
1 x,y,z
2 -x,1/2+y,-z
3 -x,-y,-z
4 x,1/2-y,z
_cell_length_a                   8.3617(2)
_cell_length_b                   7.1899(2)
_cell_length_c                   5.4586(2)
_cell_angle_alpha                90
_cell_angle_beta                 103.784(2)
_cell_angle_gamma                90
_cell_volume                     318.719
loop_
_atom_site_label
_atom_site_type_symbol
_atom_site_fract_x
_atom_site_fract_y
_atom_site_fract_z
Pr1 Pr -0.5762(2) 0.2500 0.8345(5)
P1 P -0.3282(9) 0.2500 0.376(2)
O1 O -0.3584(7) 0.2500 0.638(4)
O2 O -0.398(1) 0.087(2) 0.209(2)
O3 O 0.174(2) 0.2500 0.006(4)
O4 O 0.227(2) 0.2500 0.429(4)
C1 C -0.083(2) 0.2500 0.452(6)
C2 C -0.060(2) 0.2500 0.176(6)
C3 C 0.121(3) 0.2500 0.231(6)
O2A O -0.602(1) 0.587(2) 0.791(2)
O2B O -0.602(1) -0.087(2) 0.791(2)
O2C O -0.398(1) 0.413(2) 1.209(2)
O2_2 O -0.398(1) 0.087(2) 1.209(2)
O2C_2 O -0.398(1) 0.413(2) 0.209(2)
Pr1A Pr -0.4238(2) -0.2500 1.1655(5)
Pr1A_2 Pr -0.4238(2) 0.7500 1.1655(5)
Pr1_2 Pr -0.5762(2) 0.2500 -0.1655(5)
Pr1A_3 Pr -0.4238(2) 0.7500 0.1655(5)
Pr1A_4 Pr -0.4238(2) -0.2500 0.1655(5)
O2A_2 O -0.602(1) 0.587(2) -0.209(2)
O2B_2 O -0.602(1) -0.087(2) -0.209(2)
O3_2 O -0.826(2) 0.2500 1.006(4)
O4_2 O -0.773(2) 0.2500 0.429(4)
Pr1_3 Pr 0.4238(2) 0.2500 0.8345(5)
Pr1_4 Pr 0.4238(2) 0.2500 -0.1655(5)
loop_
_geom_bond_atom_site_label_1
_geom_bond_atom_site_label_2
_geom_bond_site_symmetry_1
_geom_bond_site_symmetry_2
Pr1 O1 1_555 1_555
P1 O1 1_555 1_555
O2 P1 1_555 1_555
O3 C3 1_555 1_555
O4 C3 1_555 1_555
C1 P1 1_555 1_555
C2 C1 1_555 1_555
C3 C2 1_555 1_555
O2A Pr1 1_555 1_555
O2B Pr1 1_555 1_555
O2C Pr1 1_555 1_555
O2_2 Pr1 1_555 1_555
O2C_2 P1 1_555 1_555
Pr1A O2B 1_555 1_555
Pr1A_2 O2A 1_555 1_555
Pr1_2 O2 1_555 1_555
Pr1A_3 O2C_2 1_555 1_555
Pr1A_4 O2 1_555 1_555
O2A_2 Pr1_2 1_555 1_555
O2B_2 Pr1_2 1_555 1_555
O3_2 Pr1 1_555 1_555
O4_2 Pr1 1_555 1_555
Pr1_3 O4 1_555 1_555
Pr1_4 O3 1_555 1_555
O2C Pr1A_2 1_555 1_555
O2_2 Pr1A 1_555 1_555
O2C_2 Pr1_2 1_555 1_555
Pr1A_3 O2A_2 1_555 1_555
Pr1A_4 O2B_2 1_555 1_555

#END
