
#######################################################################
#
#                 Cambridge Crystallographic Data Centre
#                                CCDC 
#
#######################################################################
#
# If this CIF has been generated from an entry in the Cambridge 
# Structural Database, then it will include bibliographic, chemical, 
# crystal, experimental, refinement or atomic coordinate data resulting 
# from the CCDC's data processing and validation procedures.
#
#######################################################################

data_QAJHUF
_symmetry_cell_setting           orthorhombic
_symmetry_space_group_name_H-M   'P b c a'
_symmetry_Int_Tables_number      61
_space_group_name_Hall           '-P 2ac 2ab'
loop_
_symmetry_equiv_pos_site_id
_symmetry_equiv_pos_as_xyz
1 x,y,z
2 1/2-x,1/2+y,z
3 x,1/2-y,1/2+z
4 1/2+x,y,1/2-z
5 -x,-y,-z
6 1/2+x,1/2-y,-z
7 -x,1/2+y,1/2-z
8 1/2-x,-y,1/2+z
_cell_length_a                   8.9429(2)
_cell_length_b                   9.1746(2)
_cell_length_c                   31.5654(7)
_cell_angle_alpha                90
_cell_angle_beta                 90
_cell_angle_gamma                90
_cell_volume                     2589.86
loop_
_atom_site_label
_atom_site_type_symbol
_atom_site_fract_x
_atom_site_fract_y
_atom_site_fract_z
Zr1 Zr -0.00848(29) 0.30745(22) 0.43596(6)
P1 P 0.3622(6) 0.1661(6) 0.45324(17)
P2 P 0.6954(6) 0.5220(7) 0.39721(18)
O1 O 0.1921(8) 0.2025(11) 0.44885(32)
O2 O 0.4169(10) 0.1796(11) 0.50122(20)
O3 O 0.3940(10) 0.0086(8) 0.43834(34)
O4 O 0.6143(10) 0.6102(8) 0.43001(30)
O5 O 0.7990(9) 0.4153(10) 0.41934(31)
O6 O 0.7920(12) 0.6214(10) 0.36822(30)
C1 C 0.4678(15) 0.3034(13) 0.42532(26)
C2 C 0.5547(14) 0.4222(14) 0.36548(32)
N1 N 0.4943(14) 0.2861(13) 0.38277(30)
C3 C 0.3664(15) 0.2461(16) 0.35688(27)
C4 C 0.3839(18) 0.2512(19) 0.30963(26)
C5 C 0.2998(19) 0.3595(16) 0.2911(4)
C6 C 0.2902(20) 0.3692(16) 0.2466(4)
C7 C 0.3737(20) 0.2723(21) 0.22207(28)
C8 C 0.4655(21) 0.1690(18) 0.2405(4)
C9 C 0.4664(20) 0.1558(16) 0.2846(4)
F1 F 0.0433(10) 0.2948(11) 0.37667(21)
O2E O -0.0831(10) 0.3204(11) 0.49878(20)
O3A O 0.1060(10) 0.5086(8) 0.43834(34)
O4A O -0.1143(10) 0.1102(8) 0.43001(30)
O5_2 O -0.2010(9) 0.4153(10) 0.41934(31)
Zr1E Zr 0.49152(29) 0.19255(22) 0.56404(6)
Zr1A Zr 0.50848(29) -0.19255(22) 0.43596(6)
Zr1A_2 Zr 0.50848(29) 0.80745(22) 0.43596(6)
Zr1_2 Zr 0.99152(29) 0.30745(22) 0.43596(6)
loop_
_geom_bond_atom_site_label_1
_geom_bond_atom_site_label_2
_geom_bond_site_symmetry_1
_geom_bond_site_symmetry_2
Zr1 O1 1_555 1_555
P1 O1 1_555 1_555
P2 O4 1_555 1_555
O2 P1 1_555 1_555
O3 P1 1_555 1_555
O4 Zr1A_2 1_555 1_555
O5 P2 1_555 1_555
O6 P2 1_555 1_555
C1 P1 1_555 1_555
C2 P2 1_555 1_555
N1 C1 1_555 1_555
C3 N1 1_555 1_555
C4 C3 1_555 1_555
C5 C4 1_555 1_555
C6 C5 1_555 1_555
C7 C6 1_555 1_555
C8 C7 1_555 1_555
C9 C4 1_555 1_555
F1 Zr1 1_555 1_555
O2E Zr1 1_555 1_555
O3A Zr1 1_555 1_555
O4A Zr1 1_555 1_555
O5_2 Zr1 1_555 1_555
Zr1E O2 1_555 1_555
Zr1A O3 1_555 1_555
Zr1_2 O5 1_555 1_555
C2 N1 1_555 1_555
C8 C9 1_555 1_555

#END
