
#######################################################################
#
#                 Cambridge Crystallographic Data Centre
#                                CCDC 
#
#######################################################################
#
# If this CIF has been generated from an entry in the Cambridge 
# Structural Database, then it will include bibliographic, chemical, 
# crystal, experimental, refinement or atomic coordinate data resulting 
# from the CCDC's data processing and validation procedures.
#
#######################################################################

data_QAJNAQ
_symmetry_cell_setting           monoclinic
_symmetry_space_group_name_H-M   'C 2/c'
_symmetry_Int_Tables_number      15
_space_group_name_Hall           '-C 2yn'
loop_
_symmetry_equiv_pos_site_id
_symmetry_equiv_pos_as_xyz
1 x,y,z
2 1/2+x,1/2+y,z
3 x,-y,1/2+z
4 1/2+x,1/2-y,1/2+z
5 -x,-y,-z
6 1/2-x,1/2-y,-z
7 -x,y,1/2-z
8 1/2-x,1/2+y,1/2-z
_cell_length_a                   29.9709(4)
_cell_length_b                   19.7021(3)
_cell_length_c                   19.2700(3)
_cell_angle_alpha                90
_cell_angle_beta                 129.5050(10)
_cell_angle_gamma                90
_cell_volume                     8779.48
loop_
_atom_site_label
_atom_site_type_symbol
_atom_site_fract_x
_atom_site_fract_y
_atom_site_fract_z
Co1 Co 0.0000 0.76359(2) -0.2500
B1 B 0.07305(13) 0.71720(15) -0.2205(2)
H4 H 0.0616 0.6856 -0.2782
B2 B 0.05668(13) 0.69066(15) -0.1493(2)
H8 H 0.0352 0.6413 -0.1578
B3 B 0.04577(13) 0.76719(15) -0.11069(19)
H12 H 0.0158 0.7692 -0.0947
B4 B 0.13945(12) 0.76454(15) -0.1526(2)
H16 H 0.1697 0.7644 -0.1681
B5 B 0.16486(13) 0.76764(15) -0.0405(2)
H20 H 0.2120 0.7683 0.0194
B6 B 0.11253(13) 0.81364(16) -0.04403(19)
H24 H 0.1247 0.8463 0.0133
B7 B 0.11316(13) 0.72422(16) -0.0395(2)
H25 H 0.1267 0.6968 0.0222
B8 B 0.13005(13) 0.69340(15) -0.1073(2)
H27 H 0.1549 0.6453 -0.0913
B9 B 0.13017(12) 0.83854(15) -0.11186(19)
H28 H 0.1535 0.8870 -0.1005
C30 C 0.05921(10) 0.83176(12) -0.15388(16)
H51 H 0.0359 0.8810 -0.1691
C31 C 0.07437(10) 0.80359(12) -0.21558(16)
H52 H 0.0619 0.8327 -0.2756
B1F B -0.07305(13) 0.71720(15) -0.2795(2)
B2F B -0.05668(13) 0.69066(15) -0.3507(2)
B3F B -0.04577(13) 0.76719(15) -0.38931(19)
C30F C -0.05921(10) 0.83176(12) -0.34612(16)
C31F C -0.07437(10) 0.80359(12) -0.28442(16)
H4F H -0.0616 0.6856 -0.2218
B4F B -0.13945(12) 0.76454(15) -0.3474(2)
B8F B -0.13005(13) 0.69340(15) -0.3927(2)
H8F H -0.0352 0.6413 -0.3422
B7F B -0.11316(13) 0.72422(16) -0.4605(2)
H12F H -0.0158 0.7692 -0.4053
B6F B -0.11253(13) 0.81364(16) -0.45597(19)
B9F B -0.13017(12) 0.83854(15) -0.38814(19)
H51F H -0.0359 0.8810 -0.3309
H52F H -0.0619 0.8327 -0.2244
H16F H -0.1697 0.7644 -0.3319
B5F B -0.16486(13) 0.76764(15) -0.4595(2)
H27F H -0.1549 0.6453 -0.4087
H25F H -0.1267 0.6968 -0.5222
H24F H -0.1247 0.8463 -0.5133
H28F H -0.1535 0.8870 -0.3995
H20F H -0.2120 0.7683 -0.5194
Na1 Na 0.31834(4) -0.06711(5) -0.28143(7)
O1 O 0.22854(9) -0.07751(10) -0.42180(12)
C1 C 0.2155(2) -0.0522(3) -0.5021(2)
H1 H 0.2079 -0.0902 -0.5410
H2 H 0.2484 -0.0258 -0.4869
H3 H 0.1812 -0.0230 -0.5336
O2 O 0.25328(7) -0.12265(9) -0.27334(11)
C2 C 0.26243(11) -0.13694(15) -0.19201(16)
H5 H 0.2287 -0.1221 -0.1987
H6 H 0.2968 -0.1126 -0.1417
H7 H 0.2680 -0.1859 -0.1801
O3 O 0.31300(7) 0.04992(8) -0.26267(11)
C3 C 0.27009(12) 0.09670(14) -0.33013(19)
H9 H 0.2567 0.1252 -0.3050
H10 H 0.2374 0.0713 -0.3818
H11 H 0.2870 0.1254 -0.3496
O4 O 0.37837(7) -0.03740(8) -0.13120(11)
C4 C 0.41462(12) -0.08505(12) -0.05954(18)
H13 H 0.4553 -0.0752 -0.0296
H14 H 0.4053 -0.1312 -0.0841
H15 H 0.4080 -0.0813 -0.0160
O5 O 0.11078(7) -0.45008(8) -0.70383(12)
C5 C 0.09148(15) -0.51604(13) -0.7005(2)
H17 H 0.0492 -0.5163 -0.7392
H18 H 0.1081 -0.5263 -0.6385
H19 H 0.1040 -0.5504 -0.7216
O6 O 0.13665(8) -0.33073(8) -0.72727(12)
C6 C 0.14624(16) -0.26558(14) -0.7490(3)
H21 H 0.1708 -0.2381 -0.6943
H22 H 0.1091 -0.2426 -0.7926
H23 H 0.1654 -0.2716 -0.7751
C7 C 0.10110(10) -0.18935(11) -0.51944(15)
C8 C 0.13967(11) -0.14438(12) -0.51352(16)
H26 H 0.1312 -0.1284 -0.5673
C9 C 0.18936(11) -0.12283(12) -0.43222(16)
C10 C 0.20243(10) -0.14628(12) -0.35252(16)
C11 C 0.16443(10) -0.18909(11) -0.35741(16)
H30 H 0.1730 -0.2044 -0.3033
C12 C 0.11310(10) -0.21099(11) -0.44024(16)
C13 C 0.07283(10) -0.25495(11) -0.43709(16)
H33 H 0.0328 -0.2483 -0.4937
H34 H 0.0741 -0.2390 -0.3871
C14 C 0.08632(10) -0.33034(12) -0.42474(16)
C15 C 0.13030(10) -0.35492(12) -0.33772(16)
H37 H 0.1516 -0.3237 -0.2891
C16 C 0.35664(10) 0.07714(12) -0.17923(16)
C17 C 0.39016(10) 0.03039(12) -0.10879(16)
C18 C 0.43269(10) 0.05413(12) -0.02266(16)
H41 H 0.4548 0.0225 0.0253
C19 C 0.05591(10) -0.37638(12) -0.49572(15)
C20 C 0.01406(10) -0.35489(12) -0.59345(16)
H43 H -0.0061 -0.3128 -0.5992
H44 H -0.0153 -0.3908 -0.6295
C21 C 0.04652(10) -0.34256(12) -0.62887(15)
C22 C 0.06316(10) -0.40022(12) -0.65017(16)
H45 H 0.0529 -0.4439 -0.6433
C23 C 0.09387(10) -0.39531(12) -0.68074(16)
C24 C 0.10756(10) -0.33109(12) -0.69320(16)
C25 C 0.09177(10) -0.27409(12) -0.67188(16)
H46 H 0.1016 -0.2305 -0.6798
C26 C 0.06153(10) -0.27882(12) -0.63877(15)
C27 C 0.04903(10) -0.21300(12) -0.61252(16)
H47 H 0.0382 -0.1774 -0.6571
H48 H 0.0159 -0.2200 -0.6136
C16G C 0.14336(10) -0.42286(12) -0.32077(16)
C15G C 0.36970(10) 0.14508(12) -0.16228(16)
C19G C 0.44409(10) 0.12362(12) -0.00428(15)
C18G C 0.06731(10) -0.44587(12) -0.47734(16)
O3G O 0.18700(7) -0.45008(8) -0.23733(11)
C17G C 0.10984(10) -0.46961(12) -0.39121(16)
H41G H 0.0452 -0.4775 -0.5253
Na1G Na 0.18166(4) -0.56711(5) -0.21857(7)
C3G C 0.22991(12) -0.40330(14) -0.16987(19)
O4G O 0.12163(7) -0.53740(8) -0.36880(11)
C4G C 0.08538(12) -0.58505(12) -0.44046(18)
O5E O 0.38922(7) -0.04992(8) -0.29617(12)
Na1E Na 0.18166(4) -0.43289(5) -0.71857(7)
O6E O 0.36335(8) -0.16927(8) -0.27273(12)
O1E O 0.27146(9) -0.42249(10) -0.57820(12)
O2E O 0.24672(7) -0.37735(9) -0.72666(11)
C14G C 0.41368(10) 0.16966(12) -0.07526(16)
H37G H 0.3484 0.1763 -0.2109
C20G C 0.48594(10) 0.14511(12) 0.09345(16)
H9G H 0.2433 -0.3748 -0.1950
H10G H 0.2626 -0.4287 -0.1182
H11G H 0.2130 -0.3746 -0.1504
H13G H 0.0447 -0.5752 -0.4704
H14G H 0.0947 -0.6312 -0.4159
H15G H 0.0920 -0.5813 -0.4840
O3E O 0.18700(7) -0.54992(8) -0.73733(11)
O4E O 0.12163(7) -0.46260(8) -0.86880(11)
C13G C 0.42717(10) 0.24505(11) -0.06291(16)
H43G H 0.5061 0.1872 0.0992
H44G H 0.5153 0.1092 0.1295
C21G C 0.45348(10) 0.15744(12) 0.12887(15)
C12G C 0.38690(10) 0.28901(11) -0.05976(16)
H33G H 0.4672 0.2517 -0.0063
H34G H 0.4259 0.2610 -0.1129
C22G C 0.43684(10) 0.09978(12) 0.15017(16)
C26G C 0.43847(10) 0.22118(12) 0.13877(15)
C7G C 0.39890(10) 0.31065(11) 0.01944(15)
C11G C 0.33557(10) 0.31091(11) -0.14259(16)
H45G H 0.4471 0.0561 0.1433
C23G C 0.40613(10) 0.10469(12) 0.18074(16)
C25G C 0.40823(10) 0.22591(12) 0.17188(16)
C27G C 0.45097(10) 0.28700(12) 0.11252(16)
C8G C 0.36033(11) 0.35562(12) 0.01352(16)
C10G C 0.29757(10) 0.35372(12) -0.14748(16)
H30G H 0.3270 0.2956 -0.1967
O5G O 0.38922(7) 0.04992(8) 0.20383(12)
C24G C 0.39244(10) 0.16891(12) 0.19320(16)
H46G H 0.3984 0.2695 0.1798
H47G H 0.4618 0.3226 0.1571
H48G H 0.4841 0.2800 0.1136
H26G H 0.3688 0.3716 0.0673
C9G C 0.31064(11) 0.37717(12) -0.06778(16)
O2G O 0.24672(7) 0.37735(9) -0.22666(11)
Na1B Na 0.31834(4) 0.06711(5) 0.21857(7)
C5G C 0.40852(15) -0.01604(13) 0.2005(2)
O6G O 0.36335(8) 0.16927(8) 0.22727(12)
O1G O 0.27146(9) 0.42249(10) -0.07820(12)
Na1G_2 Na 0.18166(4) 0.43289(5) -0.21857(7)
C2G C 0.23757(11) 0.36306(15) -0.30799(16)
H17G H 0.4508 -0.0163 0.2392
H18G H 0.3919 -0.0263 0.1385
H19G H 0.3960 -0.0504 0.2216
C6G C 0.35376(16) 0.23442(14) 0.2490(3)
C1G C 0.2845(2) 0.4478(3) 0.0021(2)
H5G H 0.2713 0.3779 -0.3013
H6G H 0.2032 0.3874 -0.3583
H7G H 0.2320 0.3141 -0.3199
H21G H 0.3292 0.2619 0.1943
H22G H 0.3909 0.2574 0.2926
H23G H 0.3346 0.2284 0.2751
H1G H 0.2921 0.4098 0.0410
H2G H 0.2516 0.4742 -0.0131
H3G H 0.3188 0.4770 0.0336
F1 F 0.2126(7) 0.3916(8) -0.0174(12)
F2 F 0.2168(7) 0.2858(8) 0.0154(11)
F3 F 0.2927(3) 0.3435(4) 0.0974(5)
O7 O 0.2395(5) 0.3167(6) 0.1703(8)
C28 C 0.2155(8) 0.3619(9) 0.0940(12)
H49 H 0.1727 0.3593 0.0523
H50 H 0.2269 0.4093 0.1151
C29 C 0.2353(8) 0.3431(10) 0.0520(13)
Co2 Co 0.5000 0.5000 -0.5000
B10 B 0.46485(12) 0.55091(14) -0.61951(18)
H29 H 0.4910 0.5970 -0.6069
B11 B 0.48960(13) 0.46807(14) -0.61577(19)
H31 H 0.5315 0.4579 -0.6015
B12 B 0.46055(13) 0.41223(14) -0.58038(19)
H32 H 0.4834 0.3646 -0.5417
B13 B 0.38827(13) 0.55279(15) -0.70225(19)
H35 H 0.3648 0.6000 -0.7414
B14 B 0.43000(13) 0.50442(15) -0.72054(19)
H36 H 0.4338 0.5189 -0.7728
B15 B 0.42708(14) 0.41849(15) -0.6962(2)
H38 H 0.4288 0.3756 -0.7326
B16 B 0.38369(14) 0.41396(15) -0.6633(2)
H39 H 0.3571 0.3682 -0.6764
B17 B 0.35890(13) 0.49729(15) -0.66863(19)
H40 H 0.3163 0.5071 -0.6849
B18 B 0.36427(13) 0.47083(16) -0.7508(2)
H42 H 0.3249 0.4629 -0.8227
C32 C 0.42125(10) 0.54196(12) -0.59168(16)
H53 H 0.4175 0.5848 -0.5574
C33 C 0.41892(11) 0.46286(12) -0.56901(17)
H54 H 0.4137 0.4483 -0.5184
B10D B 0.53515(12) 0.44909(14) -0.38049(18)
B11D B 0.51040(13) 0.53193(14) -0.38423(19)
B12D B 0.53945(13) 0.58777(14) -0.41962(19)
C32D C 0.57875(10) 0.45804(12) -0.40832(16)
C33D C 0.58108(11) 0.53714(12) -0.43099(17)
H29D H 0.5090 0.4030 -0.3931
B13D B 0.61173(13) 0.44721(15) -0.29775(19)
B14D B 0.57000(13) 0.49558(15) -0.27946(19)
H31D H 0.4685 0.5421 -0.3985
B15D B 0.57292(14) 0.58151(15) -0.3038(2)
H32D H 0.5166 0.6354 -0.4583
B16D B 0.61631(14) 0.58604(15) -0.3367(2)
B17D B 0.64110(13) 0.50271(15) -0.33137(19)
H53D H 0.5825 0.4152 -0.4426
H54D H 0.5863 0.5517 -0.4816
H35D H 0.6352 0.4000 -0.2586
B18D B 0.63573(13) 0.52917(16) -0.2492(2)
H36D H 0.5662 0.4811 -0.2272
H38D H 0.5712 0.6244 -0.2674
H39D H 0.6429 0.6318 -0.3236
H40D H 0.6837 0.4929 -0.3151
H42D H 0.6751 0.5371 -0.1773
loop_
_geom_bond_atom_site_label_1
_geom_bond_atom_site_label_2
_geom_bond_site_symmetry_1
_geom_bond_site_symmetry_2
Co1 B1 1_555 1_555
Na1 O1 1_555 1_555
F1 C29 1_555 1_555
O1 C1 1_555 1_555
C1 H1 1_555 1_555
H2 C1 1_555 1_555
H3 C1 1_555 1_555
B1 H4 1_555 1_555
Co2 B10 1_555 1_555
F2 C29 1_555 1_555
O2 Na1 1_555 1_555
C2 O2 1_555 1_555
H5 C2 1_555 1_555
H6 C2 1_555 1_555
H7 C2 1_555 1_555
B2 Co1 1_555 1_555
H8 B2 1_555 1_555
F3 C29 1_555 1_555
O3 Na1 1_555 1_555
C3 O3 1_555 1_555
H9 C3 1_555 1_555
H10 C3 1_555 1_555
H11 C3 1_555 1_555
B3 Co1 1_555 1_555
H12 B3 1_555 1_555
O4 Na1 1_555 1_555
C4 O4 1_555 1_555
H13 C4 1_555 1_555
H14 C4 1_555 1_555
H15 C4 1_555 1_555
B4 B1 1_555 1_555
H16 B4 1_555 1_555
O5 C5 1_555 1_555
C5 H17 1_555 1_555
H18 C5 1_555 1_555
H19 C5 1_555 1_555
B5 B4 1_555 1_555
H20 B5 1_555 1_555
O6 C6 1_555 1_555
C6 H21 1_555 1_555
H22 C6 1_555 1_555
H23 C6 1_555 1_555
B6 B3 1_555 1_555
H24 B6 1_555 1_555
O7 C28 1_555 1_555
C7 C8 1_555 1_555
B7 B2 1_555 1_555
H25 B7 1_555 1_555
C8 H26 1_555 1_555
B8 B1 1_555 1_555
H27 B8 1_555 1_555
C9 O1 1_555 1_555
B9 B4 1_555 1_555
H28 B9 1_555 1_555
C10 O2 1_555 1_555
B10 H29 1_555 1_555
C11 C10 1_555 1_555
H30 C11 1_555 1_555
B11 Co2 1_555 1_555
H31 B11 1_555 1_555
C12 C7 1_555 1_555
B12 Co2 1_555 1_555
H32 B12 1_555 1_555
C13 C12 1_555 1_555
H33 C13 1_555 1_555
H34 C13 1_555 1_555
B13 B10 1_555 1_555
H35 B13 1_555 1_555
C14 C13 1_555 1_555
B14 B10 1_555 1_555
H36 B14 1_555 1_555
C15 C14 1_555 1_555
H37 C15 1_555 1_555
B15 B11 1_555 1_555
H38 B15 1_555 1_555
C16 O3 1_555 1_555
B16 B12 1_555 1_555
H39 B16 1_555 1_555
C17 O4 1_555 1_555
B17 B13 1_555 1_555
H40 B17 1_555 1_555
C18 C17 1_555 1_555
H41 C18 1_555 1_555
B18 B13 1_555 1_555
H42 B18 1_555 1_555
C19 C14 1_555 1_555
C20 C19 1_555 1_555
H43 C20 1_555 1_555
H44 C20 1_555 1_555
C21 C20 1_555 1_555
C22 C21 1_555 1_555
H45 C22 1_555 1_555
C23 O5 1_555 1_555
C24 O6 1_555 1_555
C25 C24 1_555 1_555
H46 C25 1_555 1_555
C26 C21 1_555 1_555
C27 C7 1_555 1_555
H47 C27 1_555 1_555
H48 C27 1_555 1_555
C28 H49 1_555 1_555
H50 C28 1_555 1_555
C29 C28 1_555 1_555
C30 Co1 1_555 1_555
H51 C30 1_555 1_555
C31 Co1 1_555 1_555
H52 C31 1_555 1_555
C32 Co2 1_555 1_555
H53 C32 1_555 1_555
C33 Co2 1_555 1_555
H54 C33 1_555 1_555
B1F Co1 1_555 1_555
B2F Co1 1_555 1_555
B3F Co1 1_555 1_555
C30F Co1 1_555 1_555
C31F Co1 1_555 1_555
B10D Co2 1_555 1_555
B11D Co2 1_555 1_555
B12D Co2 1_555 1_555
C32D Co2 1_555 1_555
C33D Co2 1_555 1_555
C16G C15 1_555 1_555
C15G C16 1_555 1_555
C19G C18 1_555 1_555
C18G C19 1_555 1_555
O3G C16G 1_555 1_555
C17G C16G 1_555 1_555
H41G C18G 1_555 1_555
Na1G O3G 1_555 1_555
C3G O3G 1_555 1_555
O4G C17G 1_555 1_555
C4G O4G 1_555 1_555
O5E Na1 1_555 1_555
Na1E O5 1_555 1_555
O6E Na1 1_555 1_555
O1E Na1E 1_555 1_555
O2E Na1E 1_555 1_555
H4F B1F 1_555 1_555
B4F B1F 1_555 1_555
B8F B1F 1_555 1_555
H8F B2F 1_555 1_555
B7F B2F 1_555 1_555
H12F B3F 1_555 1_555
B6F B3F 1_555 1_555
B9F C30F 1_555 1_555
H51F C30F 1_555 1_555
H52F C31F 1_555 1_555
H29D B10D 1_555 1_555
B13D B10D 1_555 1_555
B14D B10D 1_555 1_555
H31D B11D 1_555 1_555
B15D B11D 1_555 1_555
H32D B12D 1_555 1_555
B16D B12D 1_555 1_555
B17D C32D 1_555 1_555
H53D C32D 1_555 1_555
H54D C33D 1_555 1_555
C14G C15G 1_555 1_555
H37G C15G 1_555 1_555
C20G C19G 1_555 1_555
H9G C3G 1_555 1_555
H10G C3G 1_555 1_555
H11G C3G 1_555 1_555
H13G C4G 1_555 1_555
H14G C4G 1_555 1_555
H15G C4G 1_555 1_555
O3E Na1E 1_555 1_555
O4E Na1E 1_555 1_555
H16F B4F 1_555 1_555
B5F B4F 1_555 1_555
H27F B8F 1_555 1_555
H25F B7F 1_555 1_555
H24F B6F 1_555 1_555
H28F B9F 1_555 1_555
H35D B13D 1_555 1_555
B18D B13D 1_555 1_555
H36D B14D 1_555 1_555
H38D B15D 1_555 1_555
H39D B16D 1_555 1_555
H40D B17D 1_555 1_555
C13G C14G 1_555 1_555
H43G C20G 1_555 1_555
H44G C20G 1_555 1_555
C21G C20G 1_555 1_555
H20F B5F 1_555 1_555
H42D B18D 1_555 1_555
C12G C13G 1_555 1_555
H33G C13G 1_555 1_555
H34G C13G 1_555 1_555
C22G C21G 1_555 1_555
C26G C21G 1_555 1_555
C7G C12G 1_555 1_555
C11G C12G 1_555 1_555
H45G C22G 1_555 1_555
C23G C22G 1_555 1_555
C25G C26G 1_555 1_555
C27G C26G 1_555 1_555
C8G C7G 1_555 1_555
C10G C11G 1_555 1_555
H30G C11G 1_555 1_555
O5G C23G 1_555 1_555
C24G C23G 1_555 1_555
H46G C25G 1_555 1_555
H47G C27G 1_555 1_555
H48G C27G 1_555 1_555
H26G C8G 1_555 1_555
C9G C8G 1_555 1_555
O2G C10G 1_555 1_555
Na1B O5G 1_555 1_555
C5G O5G 1_555 1_555
O6G C24G 1_555 1_555
O1G C9G 1_555 1_555
Na1G_2 O2G 1_555 1_555
C2G O2G 1_555 1_555
H17G C5G 1_555 1_555
H18G C5G 1_555 1_555
H19G C5G 1_555 1_555
C6G O6G 1_555 1_555
C1G O1G 1_555 1_555
H5G C2G 1_555 1_555
H6G C2G 1_555 1_555
H7G C2G 1_555 1_555
H21G C6G 1_555 1_555
H22G C6G 1_555 1_555
H23G C6G 1_555 1_555
H1G C1G 1_555 1_555
H2G C1G 1_555 1_555
H3G C1G 1_555 1_555
B1 B2 1_555 1_555
B1 C31 1_555 1_555
B2 B3 1_555 1_555
B2 B8 1_555 1_555
B3 B7 1_555 1_555
B3 C30 1_555 1_555
B4 B8 1_555 1_555
B4 C31 1_555 1_555
B5 B6 1_555 1_555
B5 B7 1_555 1_555
B5 B8 1_555 1_555
B5 B9 1_555 1_555
O6 Na1E 1_555 1_555
B6 B7 1_555 1_555
B6 B9 1_555 1_555
B6 C30 1_555 1_555
B7 B8 1_555 1_555
C8 C9 1_555 1_555
C9 C10 1_555 1_555
B9 C30 1_555 1_555
B9 C31 1_555 1_555
B10 B11 1_555 1_555
B10 C32 1_555 1_555
C11 C12 1_555 1_555
B11 B12 1_555 1_555
B11 B14 1_555 1_555
B12 B15 1_555 1_555
B12 C33 1_555 1_555
B13 B14 1_555 1_555
B13 C32 1_555 1_555
B14 B15 1_555 1_555
B14 B18 1_555 1_555
B15 B16 1_555 1_555
B15 B18 1_555 1_555
C16 C17 1_555 1_555
B16 B17 1_555 1_555
B16 B18 1_555 1_555
B16 C33 1_555 1_555
B17 B18 1_555 1_555
B17 C32 1_555 1_555
B17 C33 1_555 1_555
C22 C23 1_555 1_555
C23 C24 1_555 1_555
C25 C26 1_555 1_555
C26 C27 1_555 1_555
C30 C31 1_555 1_555
C32 C33 1_555 1_555
B1F B2F 1_555 1_555
B1F C31F 1_555 1_555
B2F B3F 1_555 1_555
B2F B8F 1_555 1_555
B3F C30F 1_555 1_555
B3F B7F 1_555 1_555
C30F C31F 1_555 1_555
C30F B6F 1_555 1_555
C31F B4F 1_555 1_555
C31F B9F 1_555 1_555
B10D B11D 1_555 1_555
B10D C32D 1_555 1_555
B11D B12D 1_555 1_555
B11D B14D 1_555 1_555
B12D C33D 1_555 1_555
B12D B15D 1_555 1_555
C32D C33D 1_555 1_555
C32D B13D 1_555 1_555
C33D B16D 1_555 1_555
C33D B17D 1_555 1_555
C19G C14G 1_555 1_555
C18G C17G 1_555 1_555
Na1G O4G 1_555 1_555
B4F B8F 1_555 1_555
B4F B9F 1_555 1_555
B8F B5F 1_555 1_555
B8F B7F 1_555 1_555
B7F B5F 1_555 1_555
B7F B6F 1_555 1_555
B6F B5F 1_555 1_555
B6F B9F 1_555 1_555
B9F B5F 1_555 1_555
B13D B14D 1_555 1_555
B13D B17D 1_555 1_555
B14D B15D 1_555 1_555
B14D B18D 1_555 1_555
B15D B16D 1_555 1_555
B15D B18D 1_555 1_555
B16D B17D 1_555 1_555
B16D B18D 1_555 1_555
B17D B18D 1_555 1_555
C7G C27G 1_555 1_555
C25G C24G 1_555 1_555
C10G C9G 1_555 1_555
Na1B O6G 1_555 1_555
O1G Na1G_2 1_555 1_555

#END
