
#######################################################################
#
#                 Cambridge Crystallographic Data Centre
#                                CCDC 
#
#######################################################################
#
# If this CIF has been generated from an entry in the Cambridge 
# Structural Database, then it will include bibliographic, chemical, 
# crystal, experimental, refinement or atomic coordinate data resulting 
# from the CCDC's data processing and validation procedures.
#
#######################################################################

data_QAJWED
_symmetry_cell_setting           orthorhombic
_symmetry_space_group_name_H-M   'P 21 21 21'
_symmetry_Int_Tables_number      19
_space_group_name_Hall           'P 2ac 2ab'
loop_
_symmetry_equiv_pos_site_id
_symmetry_equiv_pos_as_xyz
1 x,y,z
2 1/2-x,-y,1/2+z
3 -x,1/2+y,1/2-z
4 1/2+x,1/2-y,-z
_cell_length_a                   13.131(2)
_cell_length_b                   17.579(8)
_cell_length_c                   17.853(7)
_cell_angle_alpha                90
_cell_angle_beta                 90
_cell_angle_gamma                90
_cell_volume                     4121.01
loop_
_atom_site_label
_atom_site_type_symbol
_atom_site_fract_x
_atom_site_fract_y
_atom_site_fract_z
Nd1 Nd -0.25062(12) 0.51755(4) -0.04776(4)
N1 N -0.4025(7) 0.4818(7) -0.1929(5)
O1 O -0.3332(7) 0.4499(5) -0.1492(5)
P1 P -0.5245(3) 0.4855(3) -0.02380(18)
O2 O -0.4232(10) 0.5320(8) -0.0226(7)
P2 P -0.2477(7) 0.43390(19) -0.33921(17)
O3 O -0.2629(12) 0.4585(5) -0.4198(4)
C1 C -0.5036(12) 0.4721(9) -0.1757(7)
C2 C -0.5281(13) 0.4251(9) -0.1078(8)
H1 H -0.4751 0.3861 -0.1026
C3 C -0.6344(14) 0.3832(10) -0.1150(9)
H2 H -0.6227 0.3287 -0.1126
H3 H -0.6760 0.3970 -0.0723
C4 C -0.6930(15) 0.4002(14) -0.1848(9)
H4 H -0.7640 0.3872 -0.1768
H5 H -0.6675 0.3684 -0.2251
C5 C -0.6860(10) 0.4819(15) -0.2081(10)
H6 H -0.7154 0.5138 -0.1694
H7 H -0.7249 0.4895 -0.2537
C6 C -0.5770(10) 0.5051(9) -0.2213(6)
C7 C -0.5448(18) 0.5482(14) -0.2830(11)
H8 H -0.5931 0.5721 -0.3129
C8 C -0.4434(14) 0.5557(9) -0.3002(9)
C9 C -0.4040(16) 0.6062(10) -0.3614(9)
H9 H -0.4549 0.6439 -0.3744
H10 H -0.3891 0.5762 -0.4056
C10 C -0.3058(15) 0.6462(10) -0.3334(10)
H11 H -0.2816 0.6804 -0.3722
H12 H -0.3222 0.6766 -0.2898
C11 C -0.2220(11) 0.5917(9) -0.3135(8)
H13 H -0.1756 0.6169 -0.2793
H14 H -0.1842 0.5796 -0.3586
C12 C -0.260(2) 0.5139(8) -0.2758(5)
H15 H -0.2195 0.5041 -0.2306
C13 C -0.3718(10) 0.5200(10) -0.2548(7)
C14 C -0.5415(12) 0.4275(8) 0.0581(8)
C15 C -0.5581(13) 0.4649(9) 0.1274(9)
H16 H -0.5619 0.5177 0.1281
C16 C -0.5686(15) 0.4267(14) 0.1922(11)
H17 H -0.5812 0.4521 0.2369
C17 C -0.5600(17) 0.3473(14) 0.1902(10)
H18 H -0.5634 0.3203 0.2349
C18 C -0.5464(17) 0.3070(9) 0.1225(12)
H19 H -0.5463 0.2541 0.1217
C19 C -0.5334(12) 0.3485(10) 0.0579(10)
H20 H -0.5190 0.3233 0.0133
C20 C -0.6294(12) 0.5516(9) -0.0260(8)
C21 C -0.7217(12) 0.5382(11) 0.0062(10)
H21 H -0.7320 0.4928 0.0320
C22 C -0.8006(16) 0.5903(14) 0.0018(12)
H22 H -0.8642 0.5800 0.0224
C23 C -0.7808(18) 0.6596(15) -0.0354(11)
H23 H -0.8311 0.6968 -0.0380
C24 C -0.6879(19) 0.6722(13) -0.0676(12)
H24 H -0.6768 0.7167 -0.0946
C25 C -0.6116(12) 0.6206(10) -0.0604(9)
H25 H -0.5471 0.6319 -0.0787
C26 C -0.1252(16) 0.3895(12) -0.3228(11)
C27 C -0.0830(16) 0.3504(12) -0.3831(11)
H26 H -0.1159 0.3496 -0.4292
C28 C 0.011(2) 0.3119(14) -0.3729(12)
H27 H 0.0380 0.2824 -0.4112
C29 C 0.060(2) 0.3189(13) -0.3066(13)
H28 H 0.1236 0.2963 -0.3008
C30 C 0.0171(16) 0.3597(11) -0.2463(11)
H29 H 0.0507 0.3620 -0.2005
C31 C -0.0756(13) 0.3963(9) -0.2559(9)
H30 H -0.1035 0.4251 -0.2173
C32 C -0.3415(16) 0.3628(12) -0.3177(12)
C33 C -0.3278(15) 0.3131(9) -0.2580(9)
H31 H -0.2695 0.3166 -0.2287
C34 C -0.4014(19) 0.2580(13) -0.2420(11)
H32 H -0.3908 0.2228 -0.2038
C35 C -0.488(3) 0.2566(13) -0.2825(14)
H33 H -0.5389 0.2219 -0.2705
C36 C -0.502(2) 0.3055(17) -0.3412(14)
H34 H -0.5610 0.3016 -0.3698
C37 C -0.4316(19) 0.3604(15) -0.3593(12)
H35 H -0.4435 0.3947 -0.3979
N2 N -0.2271(18) 0.3502(10) -0.0360(11)
O4 O -0.2194(14) 0.2813(7) -0.0345(12)
O5 O -0.2958(10) 0.3834(7) -0.0020(6)
O6 O -0.1604(10) 0.3898(7) -0.0688(7)
N3 N -0.2677(16) 0.6755(9) -0.1043(7)
O7 O -0.2663(19) 0.7375(6) -0.1315(6)
O8 O -0.2259(11) 0.6595(6) -0.0415(7)
O9 O -0.3081(10) 0.6187(7) -0.1374(6)
N4 N -0.0353(13) 0.5321(9) -0.0945(8)
O10 O 0.0528(9) 0.5199(16) -0.1171(7)
O11 O -0.0537(11) 0.5243(12) -0.0229(8)
O12 O -0.1099(9) 0.5413(7) -0.1388(5)
Nd1A Nd -0.24938(12) 0.48245(4) -0.54776(4)
O3A O -0.2371(12) 0.5415(5) 0.0802(4)
C38 C -0.600(2) 0.6521(16) -0.5062(15)
H36 H -0.6316 0.6892 -0.5381
H37 H -0.5985 0.6038 -0.5311
H38 H -0.5315 0.6679 -0.4950
O13 O -0.655(2) 0.6457(14) -0.4393(15)
H39 H -0.6919 0.6850 -0.4468
loop_
_geom_bond_atom_site_label_1
_geom_bond_atom_site_label_2
_geom_bond_site_symmetry_1
_geom_bond_site_symmetry_2
Nd1 O1 1_555 1_555
N1 O1 1_555 1_555
P1 O2 1_555 1_555
O2 Nd1 1_555 1_555
P2 O3 1_555 1_555
O3 Nd1A 1_555 1_555
C1 N1 1_555 1_555
C2 P1 1_555 1_555
H1 C2 1_555 1_555
C3 C2 1_555 1_555
H2 C3 1_555 1_555
H3 C3 1_555 1_555
C4 C3 1_555 1_555
H4 C4 1_555 1_555
H5 C4 1_555 1_555
C5 C4 1_555 1_555
H6 C5 1_555 1_555
H7 C5 1_555 1_555
C6 C1 1_555 1_555
C7 C6 1_555 1_555
H8 C7 1_555 1_555
C8 C7 1_555 1_555
C9 C8 1_555 1_555
H9 C9 1_555 1_555
H10 C9 1_555 1_555
C10 C9 1_555 1_555
H11 C10 1_555 1_555
H12 C10 1_555 1_555
C11 C10 1_555 1_555
H13 C11 1_555 1_555
H14 C11 1_555 1_555
C12 P2 1_555 1_555
H15 C12 1_555 1_555
C13 N1 1_555 1_555
C14 P1 1_555 1_555
C15 C14 1_555 1_555
H16 C15 1_555 1_555
C16 C15 1_555 1_555
H17 C16 1_555 1_555
C17 C16 1_555 1_555
H18 C17 1_555 1_555
C18 C17 1_555 1_555
H19 C18 1_555 1_555
C19 C14 1_555 1_555
H20 C19 1_555 1_555
C20 P1 1_555 1_555
C21 C20 1_555 1_555
H21 C21 1_555 1_555
C22 C21 1_555 1_555
H22 C22 1_555 1_555
C23 C22 1_555 1_555
H23 C23 1_555 1_555
C24 C23 1_555 1_555
H24 C24 1_555 1_555
C25 C20 1_555 1_555
H25 C25 1_555 1_555
C26 P2 1_555 1_555
C27 C26 1_555 1_555
H26 C27 1_555 1_555
C28 C27 1_555 1_555
H27 C28 1_555 1_555
C29 C28 1_555 1_555
H28 C29 1_555 1_555
C30 C29 1_555 1_555
H29 C30 1_555 1_555
C31 C26 1_555 1_555
H30 C31 1_555 1_555
C32 P2 1_555 1_555
C33 C32 1_555 1_555
H31 C33 1_555 1_555
C34 C33 1_555 1_555
H32 C34 1_555 1_555
C35 C34 1_555 1_555
H33 C35 1_555 1_555
C36 C35 1_555 1_555
H34 C36 1_555 1_555
C37 C32 1_555 1_555
H35 C37 1_555 1_555
N2 O4 1_555 1_555
O5 Nd1 1_555 1_555
O6 Nd1 1_555 1_555
N3 O7 1_555 1_555
O8 Nd1 1_555 1_555
O9 Nd1 1_555 1_555
N4 O10 1_555 1_555
O11 Nd1 1_555 1_555
O12 Nd1 1_555 1_555
C38 H36 1_555 1_555
H37 C38 1_555 1_555
H38 C38 1_555 1_555
O13 C38 1_555 1_555
H39 O13 1_555 1_555
O3A Nd1 1_555 1_555
C1 C2 1_555 1_555
C5 C6 1_555 1_555
C8 C13 1_555 1_555
C11 C12 1_555 1_555
C12 C13 1_555 1_555
C18 C19 1_555 1_555
C24 C25 1_555 1_555
C30 C31 1_555 1_555
C36 C37 1_555 1_555
N2 O5 1_555 1_555
N2 O6 1_555 1_555
N3 O8 1_555 1_555
N3 O9 1_555 1_555
N4 O11 1_555 1_555
N4 O12 1_555 1_555

#END
