
#######################################################################
#
#                 Cambridge Crystallographic Data Centre
#                                CCDC 
#
#######################################################################
#
# If this CIF has been generated from an entry in the Cambridge 
# Structural Database, then it will include bibliographic, chemical, 
# crystal, experimental, refinement or atomic coordinate data resulting 
# from the CCDC's data processing and validation procedures.
#
#######################################################################

data_QALDOX
_symmetry_cell_setting           monoclinic
_symmetry_space_group_name_H-M   'P 21/n'
_symmetry_Int_Tables_number      14
_space_group_name_Hall           '-P 2yn'
loop_
_symmetry_equiv_pos_site_id
_symmetry_equiv_pos_as_xyz
1 x,y,z
2 1/2+x,1/2-y,1/2+z
3 -x,-y,-z
4 1/2-x,1/2+y,1/2-z
_cell_length_a                   8.930(2)
_cell_length_b                   16.380(4)
_cell_length_c                   14.960(4)
_cell_angle_alpha                90
_cell_angle_beta                 105.653(4)
_cell_angle_gamma                90
_cell_volume                     2107.1
loop_
_atom_site_label
_atom_site_type_symbol
_atom_site_fract_x
_atom_site_fract_y
_atom_site_fract_z
Li1 Li 0.3387(3) 0.24061(17) 0.7586(2)
Li2 Li 0.1135(3) 0.73884(18) 0.21461(18)
N1 N 0.28289(15) 0.32788(8) 0.64756(9)
N2 N 0.14643(15) 0.63037(8) 0.29471(9)
N3 N 0.30905(15) 0.13243(8) 0.67408(9)
N4 N 0.16410(14) -0.17186(8) 0.32320(9)
N5 N 0.15366(15) 0.20117(9) 0.85968(9)
N6 N 0.62471(15) 0.29117(8) 0.84230(8)
O1 O 0.03904(14) 0.18252(9) 0.88591(8)
O2 O 0.27777(14) 0.16480(8) 0.88517(9)
O3 O 0.14055(14) 0.25825(7) 0.80173(8)
O4 O 0.52324(14) 0.32466(9) 0.86933(9)
O5 O 0.76307(14) 0.30809(9) 0.87338(9)
O6 O 0.58822(17) 0.23873(8) 0.78142(8)
C1 C 0.34219(19) 0.40345(10) 0.66115(11)
H1 H 0.4056 0.4161 0.7198
C2 C 0.31606(18) 0.46313(10) 0.59508(11)
H2 H 0.3599 0.5146 0.6094
C3 C 0.22360(16) 0.44649(9) 0.50638(10)
C4 C 0.15880(19) 0.36895(10) 0.49193(11)
H3 H 0.0937 0.3547 0.4343
C5 C 0.19175(19) 0.31334(10) 0.56364(11)
H4 H 0.1466 0.2619 0.5521
C6 C 0.27751(19) 0.62511(11) 0.36236(12)
H5 H 0.3549 0.6634 0.3632
C7 C 0.30659(17) 0.56720(9) 0.43093(11)
H6 H 0.4003 0.5675 0.4771
C8 C 0.19701(17) 0.50883(9) 0.43122(9)
C9 C 0.06218(19) 0.51190(10) 0.36012(11)
H7 H -0.0151 0.4729 0.3563
C10 C 0.0423(2) 0.57269(10) 0.29498(12)
H8 H -0.0502 0.5735 0.2479
C11 C 0.38663(18) 0.13010(10) 0.60868(11)
H9 H 0.4612 0.1701 0.6102
C12 C 0.36271(17) 0.07246(9) 0.53974(11)
H10 H 0.4184 0.0750 0.4955
C13 C 0.25679(16) 0.01106(9) 0.53597(10)
C14 C 0.17775(17) 0.01169(10) 0.60512(11)
H11 H 0.1061 -0.0290 0.6071
C15 C 0.20768(19) 0.07337(9) 0.67005(11)
H12 H 0.1520 0.0733 0.7144
C16 C 0.20164(18) -0.09518(10) 0.30594(11)
H13 H 0.2080 -0.0822 0.2465
C17 C 0.23129(18) -0.03451(10) 0.37308(10)
H14 H 0.2551 0.0181 0.3579
C18 C 0.22550(16) -0.05202(9) 0.46274(10)
C19 C 0.18650(18) -0.13133(10) 0.47965(11)
H15 H 0.1795 -0.1463 0.5383
C20 C 0.15860(19) -0.18707(10) 0.40966(11)
H16 H 0.1338 -0.2399 0.4233
N4_2 N 0.16410(14) 0.82814(8) 0.32320(9)
O1B O -0.03904(14) 0.81748(9) 0.11409(8)
O3B O -0.14055(14) 0.74175(7) 0.19827(8)
O5B O 0.23693(14) 0.69191(9) 0.12662(9)
Li2_2 Li 0.1135(3) -0.26116(18) 0.21461(18)
Li2B Li -0.1135(3) 0.26116(18) 0.78539(18)
Li2B_2 Li 0.8865(3) 0.26116(18) 0.78539(18)
loop_
_geom_bond_atom_site_label_1
_geom_bond_atom_site_label_2
_geom_bond_site_symmetry_1
_geom_bond_site_symmetry_2
Li1 N1 1_555 1_555
Li2 N2 1_555 1_555
N1 C1 1_555 1_555
N2 C6 1_555 1_555
N3 Li1 1_555 1_555
N4 C16 1_555 1_555
N5 O1 1_555 1_555
N6 O4 1_555 1_555
O1 Li2B 1_555 1_555
O2 Li1 1_555 1_555
O3 Li1 1_555 1_555
O4 Li1 1_555 1_555
O5 N6 1_555 1_555
O6 Li1 1_555 1_555
C1 H1 1_555 1_555
C2 C1 1_555 1_555
H2 C2 1_555 1_555
C3 C2 1_555 1_555
C4 C3 1_555 1_555
H3 C4 1_555 1_555
C5 N1 1_555 1_555
H4 C5 1_555 1_555
C6 H5 1_555 1_555
C7 C6 1_555 1_555
H6 C7 1_555 1_555
C8 C3 1_555 1_555
C9 C8 1_555 1_555
H7 C9 1_555 1_555
C10 N2 1_555 1_555
H8 C10 1_555 1_555
C11 N3 1_555 1_555
H9 C11 1_555 1_555
C12 C11 1_555 1_555
H10 C12 1_555 1_555
C13 C12 1_555 1_555
C14 C13 1_555 1_555
H11 C14 1_555 1_555
C15 N3 1_555 1_555
H12 C15 1_555 1_555
C16 H13 1_555 1_555
C17 C16 1_555 1_555
H14 C17 1_555 1_555
C18 C13 1_555 1_555
C19 C18 1_555 1_555
H15 C19 1_555 1_555
C20 N4 1_555 1_555
H16 C20 1_555 1_555
N4_2 Li2 1_555 1_555
O1B Li2 1_555 1_555
O3B Li2 1_555 1_555
O5B Li2 1_555 1_555
Li2_2 N4 1_555 1_555
Li2B O3 1_555 1_555
Li2B_2 O5 1_555 1_555
N5 O2 1_555 1_555
N5 O3 1_555 1_555
N6 O6 1_555 1_555
C4 C5 1_555 1_555
C7 C8 1_555 1_555
C9 C10 1_555 1_555
C14 C15 1_555 1_555
C17 C18 1_555 1_555
C19 C20 1_555 1_555

#END
