
#######################################################################
#
#                 Cambridge Crystallographic Data Centre
#                                CCDC 
#
#######################################################################
#
# If this CIF has been generated from an entry in the Cambridge 
# Structural Database, then it will include bibliographic, chemical, 
# crystal, experimental, refinement or atomic coordinate data resulting 
# from the CCDC's data processing and validation procedures.
#
#######################################################################

data_QALTUS
_symmetry_cell_setting           monoclinic
_symmetry_space_group_name_H-M   'P 21/c'
_symmetry_Int_Tables_number      14
_space_group_name_Hall           '-P 2ybc'
loop_
_symmetry_equiv_pos_site_id
_symmetry_equiv_pos_as_xyz
1 x,y,z
2 -x,1/2+y,1/2-z
3 -x,-y,-z
4 x,1/2-y,1/2+z
_cell_length_a                   13.1283(5)
_cell_length_b                   10.9875(5)
_cell_length_c                   18.5560(8)
_cell_angle_alpha                90
_cell_angle_beta                 97.75(2)
_cell_angle_gamma                90
_cell_volume                     2652.2
loop_
_atom_site_label
_atom_site_type_symbol
_atom_site_fract_x
_atom_site_fract_y
_atom_site_fract_z
Zn1 Zn 0.4954(1) 0.1284(1) 0.3753(1)
O1 O 0.4614(4) 0.1197(6) 0.4798(3)
O2 O 0.6286(4) 0.0264(7) 0.4098(3)
O3 O 0.3677(4) 0.2273(6) 0.3410(3)
O4 O 0.5948(4) 0.2748(7) 0.4028(3)
O5 O 0.3982(4) 0.4571(6) 0.3735(3)
O6 O 0.5289(5) 0.6746(7) 0.4507(3)
O7 O 0.4061(4) -0.0231(6) 0.3517(3)
O8 O 0.6127(4) -0.1787(6) 0.3330(3)
O9 O 0.4729(4) -0.3732(6) 0.2319(3)
N1 N 0.7316(5) 0.4907(7) 0.4902(4)
N2 N 0.2685(5) -0.2056(8) 0.2422(4)
C1 C 0.5786(6) 0.3831(12) 0.4160(5)
C2 C 0.4878(7) 0.4664(9) 0.4001(5)
C3 C 0.5505(7) 0.5704(11) 0.4369(5)
C4 C 0.6361(6) 0.4854(9) 0.4526(4)
C5 C 0.4269(6) -0.1162(11) 0.3177(4)
C6 C 0.5209(7) -0.1891(9) 0.3120(5)
C7 C 0.4567(6) -0.2771(10) 0.2647(5)
C8 C 0.3678(6) -0.2032(9) 0.2718(4)
C9 C 0.7861(7) 0.3832(10) 0.5136(5)
C10 C 0.7369(7) 0.2885(11) 0.5450(5)
C11 C 0.7922(7) 0.1844(10) 0.5699(5)
C12 C 0.8919(7) 0.1788(9) 0.5657(5)
C13 C 0.9439(7) 0.2717(10) 0.5324(5)
C14 C 0.8874(6) 0.3723(9) 0.5064(5)
C15 C 0.7718(6) 0.6049(10) 0.5208(5)
C16 C 0.8321(6) 0.6041(10) 0.5880(5)
C17 C 0.8700(6) 0.7135(10) 0.6160(5)
C18 C 0.8512(6) 0.8221(9) 0.5801(5)
C19 C 0.7944(7) 0.8212(10) 0.5133(5)
C20 C 0.7556(6) 0.7117(11) 0.4826(5)
C21 C 0.2245(6) -0.3173(10) 0.2139(5)
C22 C 0.2498(6) -0.4235(9) 0.2519(5)
C23 C 0.2145(6) -0.5327(10) 0.2240(5)
C24 C 0.1492(6) -0.5404(10) 0.1589(5)
C25 C 0.1235(6) -0.4354(10) 0.1214(5)
C26 C 0.1594(6) -0.3237(9) 0.1466(5)
C27 C 0.2110(6) -0.0942(9) 0.2308(5)
C28 C 0.1079(7) -0.0940(9) 0.2398(5)
C29 C 0.0507(7) 0.0142(10) 0.2272(5)
C30 C 0.0972(7) 0.1220(10) 0.2070(5)
C31 C 0.1989(7) 0.1173(10) 0.2019(4)
C32 C 0.2562(7) 0.0105(10) 0.2132(5)
H1 H 0.6659 0.2946 0.5495
H2 H 0.7584 0.1183 0.5896
H3 H 0.9298 0.1102 0.5856
H4 H 1.0150 0.2651 0.5281
H5 H 0.9201 0.4353 0.4831
H6 H 0.8469 0.5303 0.6139
H7 H 0.9110 0.7139 0.6623
H8 H 0.8772 0.8963 0.6015
H9 H 0.7810 0.8952 0.4873
H10 H 0.7178 0.7112 0.4352
H11 H 0.2919 -0.4205 0.2977
H12 H 0.2351 -0.6053 0.2497
H13 H 0.1230 -0.6167 0.1408
H14 H 0.0795 -0.4398 0.0764
H15 H 0.1409 -0.2519 0.1193
H16 H 0.0761 -0.1660 0.2543
H17 H -0.0204 0.0144 0.2323
H18 H 0.0589 0.1949 0.1975
H19 H 0.2326 0.1896 0.1900
H20 H 0.3274 0.0112 0.2085
H21 H 0.4450(50) 0.1874(16) 0.4965(17)
H22 H 0.4190(40) 0.0650(40) 0.4866(14)
H23 H 0.6360(30) -0.0260(40) 0.3770(20)
H24 H 0.6800(11) 0.0741(16) 0.4150(40)
H25 H 0.3125(11) 0.2000(40) 0.3540(40)
H26 H 0.3730(20) 0.3030(13) 0.3510(40)
O9A O 0.5271(4) 0.1268(6) 0.2681(3)
Zn1A Zn 0.5046(1) -0.3716(1) 0.1247(1)
loop_
_geom_bond_atom_site_label_1
_geom_bond_atom_site_label_2
_geom_bond_site_symmetry_1
_geom_bond_site_symmetry_2
Zn1 O1 1_555 1_555
O1 H21 1_555 1_555
O2 Zn1 1_555 1_555
O3 Zn1 1_555 1_555
O4 Zn1 1_555 1_555
O5 C2 1_555 1_555
O6 C3 1_555 1_555
O7 Zn1 1_555 1_555
O8 C6 1_555 1_555
O9 C7 1_555 1_555
N1 C4 1_555 1_555
N2 C8 1_555 1_555
C1 O4 1_555 1_555
C2 C1 1_555 1_555
C3 C2 1_555 1_555
C4 C1 1_555 1_555
C5 O7 1_555 1_555
C6 C5 1_555 1_555
C7 C6 1_555 1_555
C8 C5 1_555 1_555
C9 N1 1_555 1_555
C10 C9 1_555 1_555
C11 C10 1_555 1_555
C12 C11 1_555 1_555
C13 C12 1_555 1_555
C14 C9 1_555 1_555
C15 N1 1_555 1_555
C16 C15 1_555 1_555
C17 C16 1_555 1_555
C18 C17 1_555 1_555
C19 C18 1_555 1_555
C20 C15 1_555 1_555
C21 N2 1_555 1_555
C22 C21 1_555 1_555
C23 C22 1_555 1_555
C24 C23 1_555 1_555
C25 C24 1_555 1_555
C26 C21 1_555 1_555
C27 N2 1_555 1_555
C28 C27 1_555 1_555
C29 C28 1_555 1_555
C30 C29 1_555 1_555
C31 C30 1_555 1_555
C32 C27 1_555 1_555
H1 C10 1_555 1_555
H2 C11 1_555 1_555
H3 C12 1_555 1_555
H4 C13 1_555 1_555
H5 C14 1_555 1_555
H6 C16 1_555 1_555
H7 C17 1_555 1_555
H8 C18 1_555 1_555
H9 C19 1_555 1_555
H10 C20 1_555 1_555
H11 C22 1_555 1_555
H12 C23 1_555 1_555
H13 C24 1_555 1_555
H14 C25 1_555 1_555
H15 C26 1_555 1_555
H16 C28 1_555 1_555
H17 C29 1_555 1_555
H18 C30 1_555 1_555
H19 C31 1_555 1_555
H20 C32 1_555 1_555
H22 O1 1_555 1_555
H23 O2 1_555 1_555
H24 O2 1_555 1_555
H25 O3 1_555 1_555
H26 O3 1_555 1_555
O9A Zn1 1_555 1_555
Zn1A O9 1_555 1_555
C3 C4 1_555 1_555
C7 C8 1_555 1_555
C13 C14 1_555 1_555
C19 C20 1_555 1_555
C25 C26 1_555 1_555
C31 C32 1_555 1_555

#END
