
#######################################################################
#
#                 Cambridge Crystallographic Data Centre
#                                CCDC 
#
#######################################################################
#
# If this CIF has been generated from an entry in the Cambridge 
# Structural Database, then it will include bibliographic, chemical, 
# crystal, experimental, refinement or atomic coordinate data resulting 
# from the CCDC's data processing and validation procedures.
#
#######################################################################

data_QAMCAK
_symmetry_cell_setting           orthorhombic
_symmetry_space_group_name_H-M   'P c a 21'
_symmetry_Int_Tables_number      29
_space_group_name_Hall           'P 2c -2ac'
loop_
_symmetry_equiv_pos_site_id
_symmetry_equiv_pos_as_xyz
1 x,y,z
2 -x,-y,1/2+z
3 1/2-x,y,1/2+z
4 1/2+x,-y,z
_cell_length_a                   20.769(5)
_cell_length_b                   6.405(5)
_cell_length_c                   12.187(5)
_cell_angle_alpha                90
_cell_angle_beta                 90
_cell_angle_gamma                90
_cell_volume                     1621.18
loop_
_atom_site_label
_atom_site_type_symbol
_atom_site_fract_x
_atom_site_fract_y
_atom_site_fract_z
C1 C 0.40922(19) 0.9742(6) 0.7299(3)
C2 C 0.34283(19) 0.9441(5) 0.7283(3)
C3 C 0.40734(19) 0.9553(6) 0.9177(3)
H1 H 0.4288 0.9549 0.9847
C4 C 0.3410(2) 0.9274(5) 0.9152(4)
H2 H 0.3188 0.9114 0.9809
C5 C 0.44789(17) 1.0031(7) 0.6243(3)
C6 C 0.30225(17) 0.9439(5) 0.6244(3)
C7 C 0.56591(17) 0.5739(5) 0.8017(3)
H3 H 0.5329 0.5728 0.7454
H4 H 0.5447 0.5781 0.8726
C8 C 0.65638(17) 0.7590(5) 0.8751(3)
H5 H 0.6830 0.8828 0.8684
H6 H 0.6358 0.7623 0.9466
C9 C 0.65523(17) 0.3879(6) 0.8799(3)
H7 H 0.6348 0.3922 0.9514
H8 H 0.6810 0.2619 0.8760
C10 C 0.72677(18) 0.5644(5) 0.7569(3)
H9 H 0.7532 0.4401 0.7510
H10 H 0.7545 0.6849 0.7476
C11 C 0.63776(16) 0.7516(5) 0.6805(3)
H11 H 0.6050 0.7526 0.6237
H12 H 0.6645 0.8742 0.6706
C12 C 0.63667(17) 0.3790(6) 0.6851(3)
H13 H 0.6627 0.2537 0.6787
H14 H 0.6041 0.3747 0.6282
N1 N 0.44056(14) 0.9825(5) 0.8253(3)
N2 N 0.30822(15) 0.9230(4) 0.8206(3)
N3 N 0.60652(13) 0.7612(4) 0.7887(2)
N4 N 0.60503(14) 0.3817(5) 0.7935(2)
N5 N 0.69725(16) 0.5717(4) 0.8670(3)
N6 N 0.67766(15) 0.5628(4) 0.6686(3)
O1 O 0.49587(12) 1.1210(5) 0.6280(3)
O2 O 0.42767(14) 0.9049(4) 0.5428(2)
O3 O 0.28946(14) 1.1210(4) 0.5871(2)
O4 O 0.28187(12) 0.7711(4) 0.5919(2)
O5 O 0.87778(15) 0.5531(4) 0.8919(3)
Ag1 Ag 0.774850(13) 0.56477(3) 0.99864(2)
Ag2 Ag 0.546314(13) 1.07727(4) 0.82291(3)
N4_2 N 0.60503(14) 1.3817(5) 0.7935(2)
N6B N 0.82234(15) 0.5628(4) 1.1686(3)
Ag1B Ag 0.725150(13) 0.56477(3) 0.49864(2)
Ag2_2 Ag 0.546314(13) 0.07727(4) 0.82291(3)
O6 O 0.50840(15) 0.5394(4) 0.5322(3)
O7 O 0.37241(14) 1.4515(4) 0.6560(3)
loop_
_geom_bond_atom_site_label_1
_geom_bond_atom_site_label_2
_geom_bond_site_symmetry_1
_geom_bond_site_symmetry_2
C1 C2 1_555 1_555
C2 C6 1_555 1_555
C3 H1 1_555 1_555
C4 C3 1_555 1_555
H2 C4 1_555 1_555
C5 C1 1_555 1_555
C6 O3 1_555 1_555
C7 H3 1_555 1_555
H4 C7 1_555 1_555
C8 H5 1_555 1_555
H6 C8 1_555 1_555
C9 H7 1_555 1_555
H8 C9 1_555 1_555
C10 H9 1_555 1_555
H10 C10 1_555 1_555
C11 H11 1_555 1_555
H12 C11 1_555 1_555
C12 H13 1_555 1_555
H14 C12 1_555 1_555
N1 C1 1_555 1_555
N2 C2 1_555 1_555
N3 C7 1_555 1_555
N4 C7 1_555 1_555
N5 C8 1_555 1_555
N6 C10 1_555 1_555
O1 C5 1_555 1_555
O2 C5 1_555 1_555
O4 C6 1_555 1_555
O5 Ag1 1_555 1_555
Ag1 N5 1_555 1_555
Ag2 N1 1_555 1_555
N4_2 Ag2 1_555 1_555
N6B Ag1 1_555 1_555
Ag1B N6 1_555 1_555
Ag2_2 N4 1_555 1_555
C3 N1 1_555 1_555
C4 N2 1_555 1_555
C8 N3 1_555 1_555
C9 N4 1_555 1_555
C9 N5 1_555 1_555
C10 N5 1_555 1_555
C11 N3 1_555 1_555
C11 N6 1_555 1_555
C12 N4 1_555 1_555
C12 N6 1_555 1_555
N3 Ag2 1_555 1_555

#END
