
#######################################################################
#
#                 Cambridge Crystallographic Data Centre
#                                CCDC 
#
#######################################################################
#
# If this CIF has been generated from an entry in the Cambridge 
# Structural Database, then it will include bibliographic, chemical, 
# crystal, experimental, refinement or atomic coordinate data resulting 
# from the CCDC's data processing and validation procedures.
#
#######################################################################

data_QAMFUF01
_symmetry_cell_setting           trigonal
_symmetry_space_group_name_H-M   'P 32 2 1'
_symmetry_Int_Tables_number      154
_space_group_name_Hall           'P 32 2"'
loop_
_symmetry_equiv_pos_site_id
_symmetry_equiv_pos_as_xyz
1 x,y,z
2 -y,x-y,2/3+z
3 -x+y,-x,1/3+z
4 y,x,-z
5 x-y,-y,1/3-z
6 -x,-x+y,2/3-z
_cell_length_a                   11.1241(16)
_cell_length_b                   11.1241(16)
_cell_length_c                   11.620(2)
_cell_angle_alpha                90
_cell_angle_beta                 90
_cell_angle_gamma                120
_cell_volume                     1245.28
loop_
_atom_site_label
_atom_site_type_symbol
_atom_site_fract_x
_atom_site_fract_y
_atom_site_fract_z
Zn1 Zn 0.00000(4) 0.05164(4) 0.3333
O1 O -0.0527(2) 0.1190(2) 0.02979(17)
O2 O 0.0518(2) 0.1791(2) 0.20229(17)
O3 O 0.2091(3) 0.6473(3) 0.3424(2)
O4 O 0.1469(4) 0.7789(3) 0.2559(3)
O5 O -0.1321(3) 0.6235(3) -0.0819(2)
O6 O -0.1812(3) 0.4290(3) -0.1606(2)
C1 C 0.0038(3) 0.3366(3) 0.1051(2)
C2 C 0.0745(3) 0.4379(3) 0.1875(2)
H1 H 0.1197 0.4224 0.2481
C3 C 0.0762(3) 0.5627(3) 0.1776(2)
C4 C 0.0077(3) 0.5907(3) 0.0913(2)
H2 H 0.0077 0.6742 0.0874
C5 C -0.0605(3) 0.4861(3) 0.0116(2)
C6 C -0.0637(3) 0.3617(3) 0.0153(2)
H3 H -0.1101 0.2949 -0.0412
C7 C 0.0005(3) 0.2011(3) 0.1135(2)
N1 N 0.1493(3) 0.6706(3) 0.2659(2)
N2 N -0.1303(3) 0.5145(3) -0.0846(2)
Zn1A Zn -0.05164(4) -0.05164(6) -0.0000
Zn1B Zn 0.05164(6) 0.00000(4) 0.6666
O1B O 0.1717(3) 0.0527(2) 0.36312(17)
O1D O -0.1717(3) -0.1190(2) 0.30354(17)
O2B O 0.1273(3) -0.0518(2) 0.53562(17)
O2E O -0.0518(2) 0.1273(3) 0.46438(17)
O3B O 0.4382(4) -0.2091(3) 0.6757(2)
O4B O 0.6320(5) -0.1469(4) 0.5892(3)
O5B O 0.7556(4) 0.1321(3) 0.2514(2)
O6B O 0.6102(4) 0.1812(3) 0.1727(2)
C1B C 0.3328(4) -0.0038(3) 0.4384(2)
C2B C 0.3634(4) -0.0745(3) 0.5208(2)
H1B H 0.3027 -0.1197 0.5814
C3B C 0.4865(4) -0.0762(3) 0.5109(2)
C4B C 0.5830(4) -0.0077(3) 0.4246(2)
H2B H 0.6665 -0.0077 0.4207
C5B C 0.5466(4) 0.0605(3) 0.3449(2)
C6B C 0.4254(4) 0.0637(3) 0.3486(2)
H3B H 0.4050 0.1101 0.2921
C7B C 0.2006(4) -0.0005(3) 0.4468(2)
N1B N 0.5213(4) -0.1493(3) 0.5992(2)
N2B N 0.6448(4) 0.1303(3) 0.2487(2)
loop_
_geom_bond_atom_site_label_1
_geom_bond_atom_site_label_2
_geom_bond_site_symmetry_1
_geom_bond_site_symmetry_2
Zn1 O2 1_555 1_555
O1 C7 1_555 1_555
O2 C7 1_555 1_555
O3 N1 1_555 1_555
O4 N1 1_555 1_555
O5 N2 1_555 1_555
O6 N2 1_555 1_555
C1 C2 1_555 1_555
C2 H1 1_555 1_555
C3 C2 1_555 1_555
C4 C3 1_555 1_555
H2 C4 1_555 1_555
C5 C4 1_555 1_555
C6 C1 1_555 1_555
H3 C6 1_555 1_555
C7 C1 1_555 1_555
N1 C3 1_555 1_555
N2 C5 1_555 1_555
Zn1A O1 1_555 1_555
Zn1B O2B 1_555 1_555
O1B Zn1 1_555 1_555
O1D Zn1 1_555 1_555
O2B C7B 1_555 1_555
O2E Zn1 1_555 1_555
O3B N1B 1_555 1_555
O4B N1B 1_555 1_555
O5B N2B 1_555 1_555
O6B N2B 1_555 1_555
C1B C2B 1_555 1_555
C2B H1B 1_555 1_555
C3B C2B 1_555 1_555
C4B C3B 1_555 1_555
H2B C4B 1_555 1_555
C5B C4B 1_555 1_555
C6B C1B 1_555 1_555
H3B C6B 1_555 1_555
C7B O1B 1_555 1_555
N1B C3B 1_555 1_555
N2B C5B 1_555 1_555
C5 C6 1_555 1_555
C1B C7B 1_555 1_555
C5B C6B 1_555 1_555

#END
