
#######################################################################
#
#                 Cambridge Crystallographic Data Centre
#                                CCDC 
#
#######################################################################
#
# If this CIF has been generated from an entry in the Cambridge 
# Structural Database, then it will include bibliographic, chemical, 
# crystal, experimental, refinement or atomic coordinate data resulting 
# from the CCDC's data processing and validation procedures.
#
#######################################################################

data_QAMKAR
_symmetry_cell_setting           triclinic
_symmetry_space_group_name_H-M   'P -1'
_symmetry_Int_Tables_number      2
_space_group_name_Hall           '-P 1'
loop_
_symmetry_equiv_pos_site_id
_symmetry_equiv_pos_as_xyz
1 x,y,z
2 -x,-y,-z
_cell_length_a                   5.904(2)
_cell_length_b                   6.530(2)
_cell_length_c                   8.993(3)
_cell_angle_alpha                104.303(7)
_cell_angle_beta                 98.978(9)
_cell_angle_gamma                96.373(7)
_cell_volume                     327.769
loop_
_atom_site_label
_atom_site_type_symbol
_atom_site_fract_x
_atom_site_fract_y
_atom_site_fract_z
Cd1 Cd 0.0000 0.0000 0.0000
N1 N -0.0252(3) 0.2805(2) -0.40282(16)
N2 N -0.2455(3) 0.1706(3) -0.44767(18)
N3 N -0.0733(3) 0.1264(2) -0.21937(16)
N4 N 0.2689(3) -0.1850(3) -0.1113(2)
S1 S 0.67697(7) -0.36239(7) -0.14004(5)
C1 C -0.2666(3) 0.0799(3) -0.3337(2)
H1 H -0.4010 -0.0076 -0.3316
C2 C 0.0737(3) 0.2527(3) -0.2677(2)
H2 H 0.2238 0.3129 -0.2148
C3 C 0.0673(3) 0.4074(3) -0.4984(2)
H3 H 0.0548 0.3182 -0.6039
H4 H 0.2301 0.4625 -0.4556
C4 C 0.4394(3) -0.2553(3) -0.12125(19)
C3A C -0.0673(3) 0.5926(3) -0.5016(2)
N1A N 0.0252(3) 0.7195(2) -0.59718(16)
N2A N 0.2455(3) 0.8294(3) -0.55233(18)
C1A C 0.2666(3) 0.9201(3) -0.6663(2)
N3A N 0.0733(3) 0.8736(2) -0.78063(16)
C2A C -0.0737(3) 0.7473(3) -0.7323(2)
H2A H -0.2238 0.6871 -0.7852
H1A H 0.4010 1.0076 -0.6684
H3A H -0.0548 0.6818 -0.3961
H4A H -0.2301 0.5375 -0.5444
N4A N -0.2689(3) 0.1850(3) 0.1113(2)
S1A S -0.67697(7) 0.36239(7) 0.14004(5)
C4A C -0.4394(3) 0.2553(3) 0.12125(19)
N3A_2 N 0.0733(3) -0.1264(2) 0.21937(16)
S1_2 S -0.32303(7) -0.36239(7) -0.14004(5)
S1A_2 S 0.32303(7) 0.36239(7) 0.14004(5)
Cd1_2 Cd 1.0000 0.0000 0.0000
Cd1_3 Cd 0.0000 1.0000 -1.0000
Cd1_4 Cd -1.0000 0.0000 0.0000
loop_
_geom_bond_atom_site_label_1
_geom_bond_atom_site_label_2
_geom_bond_site_symmetry_1
_geom_bond_site_symmetry_2
Cd1 N3 1_555 1_555
N1 N2 1_555 1_555
N2 C1 1_555 1_555
N3 C1 1_555 1_555
N4 Cd1 1_555 1_555
S1 C4 1_555 1_555
C1 H1 1_555 1_555
C2 N1 1_555 1_555
H2 C2 1_555 1_555
C3 N1 1_555 1_555
H3 C3 1_555 1_555
H4 C3 1_555 1_555
C4 N4 1_555 1_555
C3A C3 1_555 1_555
N1A C3A 1_555 1_555
N2A N1A 1_555 1_555
C1A N2A 1_555 1_555
N3A C1A 1_555 1_555
C2A N1A 1_555 1_555
H2A C2A 1_555 1_555
H1A C1A 1_555 1_555
H3A C3A 1_555 1_555
H4A C3A 1_555 1_555
N4A Cd1 1_555 1_555
S1A C4A 1_555 1_555
C4A N4A 1_555 1_555
N3A_2 Cd1 1_555 1_555
S1_2 Cd1 1_555 1_555
S1A_2 Cd1 1_555 1_555
Cd1_2 S1 1_555 1_555
Cd1_3 N3A 1_555 1_555
Cd1_4 S1A 1_555 1_555
N3 C2 1_555 1_555
N3A C2A 1_555 1_555

#END
