
#######################################################################
#
#                 Cambridge Crystallographic Data Centre
#                                CCDC 
#
#######################################################################
#
# If this CIF has been generated from an entry in the Cambridge 
# Structural Database, then it will include bibliographic, chemical, 
# crystal, experimental, refinement or atomic coordinate data resulting 
# from the CCDC's data processing and validation procedures.
#
#######################################################################

data_QAMXAF
_symmetry_cell_setting           triclinic
_symmetry_space_group_name_H-M   'P -1'
_symmetry_Int_Tables_number      2
_space_group_name_Hall           '-P 1'
loop_
_symmetry_equiv_pos_site_id
_symmetry_equiv_pos_as_xyz
1 x,y,z
2 -x,-y,-z
_cell_length_a                   8.7880(13)
_cell_length_b                   10.9939(16)
_cell_length_c                   11.0850(17)
_cell_angle_alpha                76.825(2)
_cell_angle_beta                 77.100(2)
_cell_angle_gamma                67.533(2)
_cell_volume                     952.538
loop_
_atom_site_label
_atom_site_type_symbol
_atom_site_fract_x
_atom_site_fract_y
_atom_site_fract_z
Co1 Co 0.5000 -0.5000 1.0000
Co2 Co 1.5000 -1.0000 2.0000
N1 N 1.3261(3) -0.8697(2) 1.8747(2)
N2 N 0.6139(3) -0.5010(2) 1.1567(2)
N3 N 0.8342(3) -0.5295(3) 1.6737(2)
N4 N 0.7475(3) -0.4819(3) 1.5761(2)
H1 H 0.664(5) -0.411(4) 1.579(3)
N5 N 0.9575(3) -0.6574(2) 1.5225(2)
C1 C 1.2202(4) -0.8258(3) 1.6817(3)
H2 H 1.2323 -0.8497 1.6040
C2 C 1.3360(4) -0.8981(3) 1.7618(3)
H3 H 1.4257 -0.9706 1.7354
C3 C 1.1963(4) -0.7637(3) 1.9094(3)
H4 H 1.1880 -0.7411 1.9872
C4 C 1.0751(4) -0.6867(3) 1.8368(3)
H5 H 0.9867 -0.6149 1.8657
C5 C 1.0860(4) -0.7172(3) 1.7194(3)
C6 C 0.9585(4) -0.6353(3) 1.6381(3)
C7 C 0.8212(4) -0.5583(3) 1.4868(3)
C8 C 0.7537(4) -0.5350(3) 1.3706(3)
C9 C 0.6007(4) -0.4368(3) 1.3520(3)
H6 H 0.5423 -0.3807 1.4111
C10 C 0.5362(4) -0.4233(3) 1.2452(3)
H7 H 0.4337 -0.3570 1.2340
C11 C 0.7658(4) -0.5899(3) 1.1722(3)
H8 H 0.8255 -0.6400 1.1087
C12 C 0.8386(4) -0.6112(3) 1.2763(3)
H9 H 0.9432 -0.6759 1.2835
C13 C 0.3365(3) -0.1952(3) 0.9958(2)
C14 C 0.1653(3) -0.0874(3) 0.9987(2)
C15 C 0.0755(3) -0.0751(3) 0.9060(3)
H10 H 0.1273 -0.1253 0.8415
C16 C 0.0894(3) -0.0097(3) 1.0944(3)
C17 C 0.1795(4) -0.0052(3) 1.1930(3)
O1 O 0.4674(2) -0.16826(19) 0.9655(2)
O2 O 0.3308(2) -0.31095(18) 1.02052(19)
O3 O 0.1040(3) -0.0017(3) 1.3022(2)
O4 O 0.3212(3) 0.0033(2) 1.16045(19)
O5 O 0.3224(3) -0.5810(2) 1.1082(2)
H11 H 0.358(5) -0.663(4) 1.111(4)
H12 H 0.274(5) -0.564(4) 1.177(4)
Co1_2 Co -0.5000 0.5000 1.0000
Co2_2 Co 0.5000 0.0000 1.0000
Co2_3 Co -0.5000 0.0000 1.0000
Co2_4 Co -0.5000 0.0000 0.0000
N1A N -0.3261(3) -0.1303(2) 0.1253(2)
N1A_2 N 1.6739(3) -1.1303(2) 2.1253(2)
N2A N 0.3861(3) -0.4990(2) 0.8433(2)
N3A N 0.1658(3) -0.4705(3) 0.3263(2)
N4A N 0.2525(3) -0.5181(3) 0.4239(2)
H1A H 0.336(5) -0.589(4) 0.421(3)
N5A N 0.0425(3) -0.3426(2) 0.4775(2)
C1A C -0.2202(4) -0.1742(3) 0.3183(3)
H2A H -0.2323 -0.1503 0.3960
C2A C -0.3360(4) -0.1019(3) 0.2382(3)
H3A H -0.4257 -0.0294 0.2646
C3A C -0.1963(4) -0.2363(3) 0.0906(3)
H4A H -0.1880 -0.2589 0.0128
C4A C -0.0751(4) -0.3133(3) 0.1632(3)
H5A H 0.0133 -0.3851 0.1343
C5A C -0.0860(4) -0.2828(3) 0.2806(3)
C6A C 0.0415(4) -0.3647(3) 0.3619(3)
C7A C 0.1788(4) -0.4417(3) 0.5132(3)
C8A C 0.2463(4) -0.4650(3) 0.6294(3)
C9A C 0.3993(4) -0.5632(3) 0.6480(3)
H6A H 0.4577 -0.6193 0.5889
C10A C 0.4638(4) -0.5767(3) 0.7548(3)
H7A H 0.5663 -0.6430 0.7660
C11A C 0.2342(4) -0.4101(3) 0.8278(3)
H8A H 0.1745 -0.3600 0.8913
C12A C 0.1614(4) -0.3888(3) 0.7237(3)
H9A H 0.0568 -0.3241 0.7165
C13A C -0.3365(3) 0.1952(3) 1.0042(2)
C14A C -0.1653(3) 0.0874(3) 1.0013(2)
C15A C -0.0755(3) 0.0751(3) 1.0940(3)
H10A H -0.1273 0.1253 1.1585
C16A C -0.0894(3) 0.0097(3) 0.9056(3)
C17A C -0.1795(4) 0.0052(3) 0.8070(3)
O1A O -0.4674(2) 0.16826(19) 1.0345(2)
O1_2 O 1.4674(2) -1.16826(19) 1.9655(2)
O1A_2 O 1.5326(2) -0.83174(19) 2.0345(2)
O2A O -0.3308(2) 0.31095(18) 0.97948(19)
O2A_2 O 0.6692(2) -0.68905(18) 0.97948(19)
O3A O -0.1040(3) 0.0017(3) 0.6978(2)
O4A O -0.3212(3) -0.0033(2) 0.83955(19)
O4A_2 O 1.6788(3) -1.0033(2) 1.83955(19)
O4_2 O 1.3212(3) -0.9967(2) 2.16045(19)
O5A O 0.6776(3) -0.4190(2) 0.8918(2)
H11A H 0.642(5) -0.337(4) 0.889(4)
H12A H 0.726(5) -0.436(4) 0.823(4)
O6 O 0.2541(4) 0.1941(3) 0.3402(3)
H13 H 0.2287 0.2690 0.2923
H14 H 0.2280 0.1414 0.3101
O7 O 0.7935(4) 0.0837(4) 0.4584(3)
H15 H 0.8221 0.0997 0.5198
H16 H 0.8776 0.0678 0.4011
O8 O 0.4958(4) 0.7456(3) 0.6115(3)
H17 H 0.4670 0.6918 0.6720
H18 H 0.4574 0.8220 0.6340
loop_
_geom_bond_atom_site_label_1
_geom_bond_atom_site_label_2
_geom_bond_site_symmetry_1
_geom_bond_site_symmetry_2
Co1 N2 1_555 1_555
Co2 N1 1_555 1_555
N1 C2 1_555 1_555
N2 C10 1_555 1_555
N3 N4 1_555 1_555
N4 H1 1_555 1_555
N5 C6 1_555 1_555
C1 H2 1_555 1_555
C2 C1 1_555 1_555
H3 C2 1_555 1_555
C3 N1 1_555 1_555
H4 C3 1_555 1_555
C4 C3 1_555 1_555
H5 C4 1_555 1_555
C5 C1 1_555 1_555
C6 N3 1_555 1_555
C7 N4 1_555 1_555
C8 C7 1_555 1_555
C9 C8 1_555 1_555
H6 C9 1_555 1_555
C10 C9 1_555 1_555
H7 C10 1_555 1_555
C11 N2 1_555 1_555
H8 C11 1_555 1_555
C12 C8 1_555 1_555
H9 C12 1_555 1_555
C13 C14 1_555 1_555
C14 C15 1_555 1_555
C15 H10 1_555 1_555
C16 C14 1_555 1_555
C17 C16 1_555 1_555
O1 C13 1_555 1_555
O2 Co1 1_555 1_555
O3 C17 1_555 1_555
O4 C17 1_555 1_555
O5 Co1 1_555 1_555
H11 O5 1_555 1_555
H12 O5 1_555 1_555
O6 H13 1_555 1_555
H14 O6 1_555 1_555
O7 H15 1_555 1_555
H16 O7 1_555 1_555
O8 H17 1_555 1_555
H18 O8 1_555 1_555
Co1_2 O2A 1_555 1_555
Co2_2 O1 1_555 1_555
Co2_3 O1A 1_555 1_555
Co2_4 N1A 1_555 1_555
N1A C2A 1_555 1_555
N1A_2 Co2 1_555 1_555
N2A Co1 1_555 1_555
N3A N4A 1_555 1_555
N4A H1A 1_555 1_555
N5A C6A 1_555 1_555
C1A H2A 1_555 1_555
C2A C1A 1_555 1_555
H3A C2A 1_555 1_555
C3A N1A 1_555 1_555
H4A C3A 1_555 1_555
C4A C3A 1_555 1_555
H5A C4A 1_555 1_555
C5A C1A 1_555 1_555
C6A N3A 1_555 1_555
C7A N4A 1_555 1_555
C8A C7A 1_555 1_555
C9A C8A 1_555 1_555
H6A C9A 1_555 1_555
C10A N2A 1_555 1_555
H7A C10A 1_555 1_555
C11A N2A 1_555 1_555
H8A C11A 1_555 1_555
C12A C8A 1_555 1_555
H9A C12A 1_555 1_555
C13A C14A 1_555 1_555
C14A C15A 1_555 1_555
C15A C16 1_555 1_555
H10A C15A 1_555 1_555
C16A C15 1_555 1_555
C17A C16A 1_555 1_555
O1A C13A 1_555 1_555
O1_2 Co2 1_555 1_555
O1A_2 Co2 1_555 1_555
O2A C13A 1_555 1_555
O2A_2 Co1 1_555 1_555
O3A C17A 1_555 1_555
O4A Co2_3 1_555 1_555
O4A_2 Co2 1_555 1_555
O4_2 Co2 1_555 1_555
O5A Co1 1_555 1_555
H11A O5A 1_555 1_555
H12A O5A 1_555 1_555
N5 C7 1_555 1_555
C4 C5 1_555 1_555
C5 C6 1_555 1_555
C11 C12 1_555 1_555
C13 O2 1_555 1_555
O4 Co2_2 1_555 1_555
N5A C7A 1_555 1_555
C4A C5A 1_555 1_555
C5A C6A 1_555 1_555
C9A C10A 1_555 1_555
C11A C12A 1_555 1_555
C14A C16A 1_555 1_555
C17A O4A 1_555 1_555

#END
