
#######################################################################
#
#                 Cambridge Crystallographic Data Centre
#                                CCDC 
#
#######################################################################
#
# If this CIF has been generated from an entry in the Cambridge 
# Structural Database, then it will include bibliographic, chemical, 
# crystal, experimental, refinement or atomic coordinate data resulting 
# from the CCDC's data processing and validation procedures.
#
#######################################################################

data_QAMXEJ
_symmetry_cell_setting           monoclinic
_symmetry_space_group_name_H-M   'P 21/n'
_symmetry_Int_Tables_number      14
_space_group_name_Hall           '-P 2yn'
loop_
_symmetry_equiv_pos_site_id
_symmetry_equiv_pos_as_xyz
1 x,y,z
2 1/2-x,1/2+y,1/2-z
3 -x,-y,-z
4 1/2+x,1/2-y,1/2+z
_cell_length_a                   7.3533(5)
_cell_length_b                   19.4938(14)
_cell_length_c                   13.9685(10)
_cell_angle_alpha                90
_cell_angle_beta                 97.5660(10)
_cell_angle_gamma                90
_cell_volume                     1984.87
loop_
_atom_site_label
_atom_site_type_symbol
_atom_site_fract_x
_atom_site_fract_y
_atom_site_fract_z
C1 C 0.1595(4) 0.57262(16) 0.2029(2)
H1 H 0.1816 0.5257 0.2071
C2 C 0.1265(4) 0.60901(16) 0.2829(2)
H2 H 0.1241 0.5854 0.3406
C3 C 0.0940(5) 0.70904(16) 0.1967(2)
H3 H 0.0706 0.7559 0.1943
C4 C 0.1233(4) 0.67651(16) 0.1125(2)
H4 H 0.1189 0.7008 0.0549
C5 C 0.1597(4) 0.60635(15) 0.1159(2)
C6 C 0.1990(4) 0.56838(15) 0.0300(2)
C7 C 0.2664(4) 0.48554(15) -0.0553(2)
C8 C 0.3152(4) 0.41707(15) -0.0862(2)
C9 C 0.3212(4) 0.39770(16) -0.1814(2)
H5 H 0.2961 0.4293 -0.2312
C10 C 0.3650(5) 0.33068(17) -0.2008(2)
H6 H 0.3723 0.3168 -0.2638
C11 C 0.3976(4) 0.28470(16) -0.1258(2)
H7 H 0.4240 0.2394 -0.1398
C12 C 0.3529(4) 0.36781(15) -0.0157(2)
H8 H 0.3505 0.3807 0.0482
C13 C 0.1233(6) 0.07285(17) -0.1617(2)
C14 C 0.0660(4) 0.03622(16) -0.0751(2)
C15 C 0.0265(4) 0.07137(14) 0.0071(2)
C16 C 0.0399(4) -0.03446(15) -0.0800(2)
H9 H 0.0680 -0.0578 -0.1343
C17 C 0.0738(4) 0.14606(15) 0.0253(2)
Co1 Co 0.40963(5) 0.233618(19) 0.08681(3)
H10 H 0.242(5) 0.5451(19) -0.166(3)
H11 H 0.603(5) 0.3239(19) 0.205(3)
H12 H 0.089(4) 0.2622(16) 0.112(3)
H13 H 0.574(5) 0.1363(13) 0.011(2)
H14 H 0.684(5) 0.3170(19) 0.126(3)
H15 H 0.168(5) 0.3171(15) 0.167(2)
H16 H 0.717(3) 0.1768(18) 0.043(3)
N1 N 0.2398(4) 0.54154(13) -0.11055(19)
N2 N 0.1960(4) 0.59575(12) -0.05686(18)
N3 N 0.2408(3) 0.50066(12) 0.03488(17)
N4 N 0.0974(4) 0.67704(13) 0.28215(18)
N5 N 0.3929(3) 0.30237(13) -0.03381(18)
O1 O 0.2296(3) 0.16420(11) 0.00827(15)
O2 O -0.0371(3) 0.18347(11) 0.06201(18)
O3 O 0.0260(5) 0.12138(14) -0.19676(19)
O4 O 0.2592(4) 0.05003(14) -0.19537(19)
O5 O 0.6185(3) 0.29766(12) 0.15944(17)
O6 O 0.1806(3) 0.28796(13) 0.12872(19)
O7 O 0.6024(3) 0.17089(13) 0.03651(19)
C1A C 0.3405(4) 0.07262(16) 0.2971(2)
H1A H 0.3184 0.0257 0.2929
C2A C 0.3735(4) 0.10901(16) 0.2171(2)
H2A H 0.3759 0.0854 0.1594
C3A C 0.4060(5) 0.20904(16) 0.3033(2)
H3A H 0.4294 0.2559 0.3057
C4A C 0.3767(4) 0.17651(16) 0.3875(2)
H4A H 0.3811 0.2008 0.4451
C5A C 0.3403(4) 0.10635(15) 0.3841(2)
C6A C 0.3010(4) 0.06838(15) 0.4700(2)
C7A C 0.2336(4) -0.01446(15) 0.5553(2)
C8A C 0.1848(4) -0.08293(15) 0.5862(2)
C9A C 0.1788(4) -0.10230(16) 0.6814(2)
H5A H 0.2039 -0.0707 0.7312
C10A C 0.1350(5) -0.16932(17) 0.7008(2)
H6A H 0.1277 -0.1832 0.7638
C11A C 0.1024(4) -0.21530(16) 0.6258(2)
H7A H 0.0760 -0.2606 0.6398
C12A C 0.1471(4) -0.13219(15) 0.5157(2)
H8A H 0.1495 -0.1193 0.4518
C13B C -0.1233(6) -0.07285(17) 0.1617(2)
C14B C -0.0660(4) -0.03622(16) 0.0751(2)
C15B C -0.0265(4) -0.07137(14) -0.0071(2)
C16B C -0.0399(4) 0.03446(15) 0.0800(2)
H9B H -0.0680 0.0578 0.1343
C17B C -0.0738(4) -0.14606(15) -0.0253(2)
Co1A Co 0.09037(5) -0.266382(19) 0.41319(3)
Co1A_2 Co 0.09037(5) 0.733618(19) 0.41319(3)
Co1B Co -0.40963(5) -0.233618(19) -0.08681(3)
H10A H 0.258(5) 0.0451(19) 0.666(3)
H11A H -0.103(5) -0.1761(19) 0.295(3)
H12A H 0.411(4) -0.2378(16) 0.388(3)
H13A H -0.074(5) -0.3637(13) 0.489(2)
H14A H -0.184(5) -0.1830(19) 0.374(3)
H15A H 0.332(5) -0.1829(15) 0.333(2)
H16A H -0.217(3) -0.3232(18) 0.457(3)
N1A N 0.2602(4) 0.04154(13) 0.61055(19)
N2A N 0.3040(4) 0.09575(12) 0.55686(18)
N3A N 0.2592(3) 0.00066(12) 0.46512(17)
N4A N 0.4026(4) 0.17704(13) 0.21785(18)
N4_2 N 0.0974(4) -0.32296(13) 0.28215(18)
N5A N 0.1071(3) -0.19763(13) 0.53381(18)
O1B O -0.2296(3) -0.16420(11) -0.00827(15)
O1A O 0.2704(3) -0.33580(11) 0.49173(15)
O2B O 0.0371(3) -0.18347(11) -0.06201(18)
O3B O -0.0260(5) -0.12138(14) 0.19676(19)
O4B O -0.2592(4) -0.05003(14) 0.19537(19)
O5A O -0.1185(3) -0.20234(12) 0.34056(17)
O6A O 0.3194(3) -0.21204(13) 0.37128(19)
O7A O -0.1024(3) -0.32911(13) 0.46349(19)
O8 O 0.1451(9) 0.3739(3) 0.2857(6)
H17 H 0.0958 0.3470 0.2420
H18 H 0.2635 0.3809 0.3037
O9 O 1.0403(9) 0.4547(3) 0.4453(7)
H19 H 1.1179 0.4391 0.4109
H20 H 0.9349 0.4524 0.4121
loop_
_geom_bond_atom_site_label_1
_geom_bond_atom_site_label_2
_geom_bond_site_symmetry_1
_geom_bond_site_symmetry_2
C1 H1 1_555 1_555
C2 C1 1_555 1_555
H2 C2 1_555 1_555
C3 H3 1_555 1_555
C4 C3 1_555 1_555
H4 C4 1_555 1_555
C5 C1 1_555 1_555
C6 C5 1_555 1_555
C7 C8 1_555 1_555
C8 C9 1_555 1_555
C9 H5 1_555 1_555
C10 C9 1_555 1_555
H6 C10 1_555 1_555
C11 C10 1_555 1_555
H7 C11 1_555 1_555
C12 C8 1_555 1_555
H8 C12 1_555 1_555
C13 C14 1_555 1_555
C14 C15 1_555 1_555
C15 C17 1_555 1_555
C16 C14 1_555 1_555
H9 C16 1_555 1_555
C17 O1 1_555 1_555
Co1 N5 1_555 1_555
H10 N1 1_555 1_555
H11 O5 1_555 1_555
H12 O6 1_555 1_555
H13 O7 1_555 1_555
H14 O5 1_555 1_555
H15 O6 1_555 1_555
H16 O7 1_555 1_555
N1 C7 1_555 1_555
N2 C6 1_555 1_555
N3 C6 1_555 1_555
N4 C2 1_555 1_555
N5 C11 1_555 1_555
O1 Co1 1_555 1_555
O2 C17 1_555 1_555
O3 C13 1_555 1_555
O4 C13 1_555 1_555
O5 Co1 1_555 1_555
O6 Co1 1_555 1_555
O7 Co1 1_555 1_555
O8 H17 1_555 1_555
H18 O8 1_555 1_555
O9 H19 1_555 1_555
H20 O9 1_555 1_555
C1A H1A 1_555 1_555
C2A C1A 1_555 1_555
H2A C2A 1_555 1_555
C3A H3A 1_555 1_555
C4A C3A 1_555 1_555
H4A C4A 1_555 1_555
C5A C1A 1_555 1_555
C6A C5A 1_555 1_555
C7A C8A 1_555 1_555
C8A C9A 1_555 1_555
C9A H5A 1_555 1_555
C10A C9A 1_555 1_555
H6A C10A 1_555 1_555
C11A C10A 1_555 1_555
H7A C11A 1_555 1_555
C12A C8A 1_555 1_555
H8A C12A 1_555 1_555
C13B C14B 1_555 1_555
C14B C15B 1_555 1_555
C15B C16 1_555 1_555
C16B C15 1_555 1_555
H9B C16B 1_555 1_555
C17B C15B 1_555 1_555
Co1A N4_2 1_555 1_555
Co1A_2 N4 1_555 1_555
Co1B O1B 1_555 1_555
H10A N1A 1_555 1_555
H11A O5A 1_555 1_555
H12A O6A 1_555 1_555
H13A O7A 1_555 1_555
H14A O5A 1_555 1_555
H15A O6A 1_555 1_555
H16A O7A 1_555 1_555
N1A C7A 1_555 1_555
N2A C6A 1_555 1_555
N3A C6A 1_555 1_555
N4A Co1 1_555 1_555
N5A C11A 1_555 1_555
O1B C17B 1_555 1_555
O1A Co1A 1_555 1_555
O2B C17B 1_555 1_555
O3B C13B 1_555 1_555
O4B C13B 1_555 1_555
O5A Co1A 1_555 1_555
O6A Co1A 1_555 1_555
O7A Co1A 1_555 1_555
C3 N4 1_555 1_555
C4 C5 1_555 1_555
C7 N3 1_555 1_555
C12 N5 1_555 1_555
N1 N2 1_555 1_555
C2A N4A 1_555 1_555
C3A N4A 1_555 1_555
C4A C5A 1_555 1_555
C7A N3A 1_555 1_555
C12A N5A 1_555 1_555
C14B C16B 1_555 1_555
Co1A N5A 1_555 1_555
N1A N2A 1_555 1_555

#END
