
#######################################################################
#
#                 Cambridge Crystallographic Data Centre
#                                CCDC 
#
#######################################################################
#
# If this CIF has been generated from an entry in the Cambridge 
# Structural Database, then it will include bibliographic, chemical, 
# crystal, experimental, refinement or atomic coordinate data resulting 
# from the CCDC's data processing and validation procedures.
#
#######################################################################

data_QANVEH
_symmetry_cell_setting           orthorhombic
_symmetry_space_group_name_H-M   'P b c a'
_symmetry_Int_Tables_number      61
_space_group_name_Hall           '-P 2ac 2ab'
loop_
_symmetry_equiv_pos_site_id
_symmetry_equiv_pos_as_xyz
1 x,y,z
2 1/2-x,-y,1/2+z
3 1/2+x,1/2-y,-z
4 -x,1/2+y,1/2-z
5 -x,-y,-z
6 1/2+x,y,1/2-z
7 1/2-x,1/2+y,z
8 x,1/2-y,1/2+z
_cell_length_a                   7.9131(5)
_cell_length_b                   13.5720(8)
_cell_length_c                   25.0065(14)
_cell_angle_alpha                90
_cell_angle_beta                 90
_cell_angle_gamma                90
_cell_volume                     2685.61
loop_
_atom_site_label
_atom_site_type_symbol
_atom_site_fract_x
_atom_site_fract_y
_atom_site_fract_z
Br1 Br 0.46440(6) 0.86323(3) 0.547054(18)
Cu1 Cu 0.10149(5) 0.53564(3) 0.753583(16)
Cl1 Cl -0.10282(11) 0.42011(7) 0.74146(4)
O1 O 0.1151(3) 0.55397(18) 0.67856(10)
N1 N 0.2257(3) 0.65757(19) 0.76859(11)
N2 N 0.1003(4) 0.5250(2) 0.83355(12)
C1 C 0.1911(4) 0.6237(3) 0.65245(14)
C2 C 0.1897(5) 0.6212(3) 0.59609(15)
H1 H 0.1337 0.5699 0.5789
C3 C 0.2678(5) 0.6915(3) 0.56586(15)
H2 H 0.2662 0.6869 0.5288
C4 C 0.3492(4) 0.7694(3) 0.59041(15)
C5 C 0.3520(4) 0.7776(2) 0.64435(14)
H3 H 0.4049 0.8315 0.6601
C6 C 0.2752(4) 0.7051(2) 0.67700(13)
C7 C 0.2901(4) 0.7156(2) 0.73335(13)
H4 H 0.3519 0.7692 0.7459
C8 C 0.2520(4) 0.6784(3) 0.82466(13)
H5 H 0.1950 0.7393 0.8339
H6 H 0.3718 0.6871 0.8314
C9 C 0.1861(4) 0.5969(3) 0.85895(14)
C10 C 0.2117(5) 0.5940(3) 0.91375(15)
H7 H 0.2718 0.6439 0.9306
C11 C 0.1483(5) 0.5176(4) 0.94265(17)
H8 H 0.1653 0.5148 0.9794
C12 C 0.0592(5) 0.4446(4) 0.91727(18)
H9 H 0.0146 0.3920 0.9364
C13 C 0.0373(5) 0.4511(3) 0.86282(17)
H10 H -0.0239 0.4019 0.8456
Cu1E Cu -0.39851(5) 0.53564(3) 0.746417(16)
Cl1E Cl 0.39718(11) 0.42011(7) 0.75854(4)
loop_
_geom_bond_atom_site_label_1
_geom_bond_atom_site_label_2
_geom_bond_site_symmetry_1
_geom_bond_site_symmetry_2
Br1 C4 1_555 1_555
Cu1 Cl1 1_555 1_555
Cl1 Cu1E 1_555 1_555
O1 Cu1 1_555 1_555
N1 Cu1 1_555 1_555
N2 Cu1 1_555 1_555
C1 O1 1_555 1_555
C2 C1 1_555 1_555
H1 C2 1_555 1_555
C3 C2 1_555 1_555
H2 C3 1_555 1_555
C4 C3 1_555 1_555
C5 C4 1_555 1_555
H3 C5 1_555 1_555
C6 C1 1_555 1_555
C7 N1 1_555 1_555
H4 C7 1_555 1_555
C8 N1 1_555 1_555
H5 C8 1_555 1_555
H6 C8 1_555 1_555
C9 N2 1_555 1_555
C10 C9 1_555 1_555
H7 C10 1_555 1_555
C11 C10 1_555 1_555
H8 C11 1_555 1_555
C12 C11 1_555 1_555
H9 C12 1_555 1_555
C13 N2 1_555 1_555
H10 C13 1_555 1_555
Cl1E Cu1 1_555 1_555
C5 C6 1_555 1_555
C6 C7 1_555 1_555
C8 C9 1_555 1_555
C12 C13 1_555 1_555

#END
