
#######################################################################
#
#                 Cambridge Crystallographic Data Centre
#                                CCDC 
#
#######################################################################
#
# If this CIF has been generated from an entry in the Cambridge 
# Structural Database, then it will include bibliographic, chemical, 
# crystal, experimental, refinement or atomic coordinate data resulting 
# from the CCDC's data processing and validation procedures.
#
#######################################################################

data_QANYAG02
_symmetry_cell_setting           trigonal
_symmetry_space_group_name_H-M   'P 31 2 1'
_symmetry_Int_Tables_number      152
_space_group_name_Hall           'P 31 2"'
loop_
_symmetry_equiv_pos_site_id
_symmetry_equiv_pos_as_xyz
1 x,y,z
2 -y,x-y,1/3+z
3 y,x,-z
4 -x+y,-x,2/3+z
5 -x,-x+y,1/3-z
6 x-y,-y,2/3-z
_cell_length_a                   10.8076(7)
_cell_length_b                   10.8076(7)
_cell_length_c                   6.3880(6)
_cell_angle_alpha                90
_cell_angle_beta                 90
_cell_angle_gamma                120
_cell_volume                     646.181
loop_
_atom_site_label
_atom_site_type_symbol
_atom_site_fract_x
_atom_site_fract_y
_atom_site_fract_z
C1 C 0.60199(11) 0.0000 0.8333
H1 H 0.6880 0.0000 0.8333
C2 C 0.49893(10) -0.07081(11) 0.98526(16)
C3 C 0.36964(10) -0.07231(10) 0.98880(16)
H2 H 0.3030 -0.1210 1.0937
C4 C 0.34147(11) 0.0000 0.8333
C5 C 0.20047(10) 0.0000 0.8333
N1 N 0.52911(10) -0.14687(11) 1.14973(18)
O1 O 0.11812(7) -0.06064(8) 0.98418(12)
O2 O 0.63300(10) -0.16277(13) 1.12615(18)
O3 O 0.45024(15) -0.19126(17) 1.30053(19)
Na1 Na -0.12398(5) -0.12398(5) 1.0000
C2E C 0.56974(15) 0.07081(11) 0.68141(16)
C3E C 0.44195(14) 0.07231(10) 0.67787(16)
H2E H 0.4240 0.1210 0.5730
N1E N 0.67598(15) 0.14687(11) 0.51694(18)
O1E O 0.17876(11) 0.06064(8) 0.68249(12)
O2E O 0.79577(16) 0.16277(13) 0.54052(18)
O3E O 0.64150(23) 0.19126(17) 0.36614(19)
O1B O -0.06064(8) 0.11812(7) 1.01582(12)
O1C O -0.17876(11) -0.11812(7) 0.65085(12)
O1D O -0.11812(7) -0.17876(11) 1.34915(12)
O2_2 O -0.36700(10) -0.16277(13) 1.12615(18)
O2B O -0.16277(13) -0.36700(10) 0.87385(18)
Na1_2 Na 0.87602(5) -0.12398(5) 1.0000
Na1A Na 0.12398(5) 0.00000(7) 0.3333
Na1A_2 Na 0.12398(5) 0.00000(7) 1.3333
Na1C Na 0.00000(7) 0.12398(5) 0.6667
Na1C_2 Na 1.00000(7) 0.12398(5) 0.6667
loop_
_geom_bond_atom_site_label_1
_geom_bond_atom_site_label_2
_geom_bond_site_symmetry_1
_geom_bond_site_symmetry_2
C1 H1 1_555 1_555
C2 C1 1_555 1_555
C3 C2 1_555 1_555
H2 C3 1_555 1_555
C4 C3 1_555 1_555
C5 C4 1_555 1_555
N1 C2 1_555 1_555
O1 C5 1_555 1_555
O2 N1 1_555 1_555
O3 N1 1_555 1_555
Na1 O1 1_555 1_555
C2E C1 1_555 1_555
C3E C4 1_555 1_555
H2E C3E 1_555 1_555
N1E C2E 1_555 1_555
O1E C5 1_555 1_555
O2E N1E 1_555 1_555
O3E N1E 1_555 1_555
O1B Na1 1_555 1_555
O1C Na1 1_555 1_555
O1D Na1 1_555 1_555
O2_2 Na1 1_555 1_555
O2B Na1 1_555 1_555
Na1_2 O2 1_555 1_555
Na1A O1E 1_555 1_555
Na1A_2 O1 1_555 1_555
Na1C O1E 1_555 1_555
Na1C_2 O2E 1_555 1_555
C2E C3E 1_555 1_555
O1B Na1C 1_555 1_555
O1C Na1C 1_555 1_555
O1D Na1A_2 1_555 1_555

#END
