
#######################################################################
#
#                 Cambridge Crystallographic Data Centre
#                                CCDC 
#
#######################################################################
#
# If this CIF has been generated from an entry in the Cambridge 
# Structural Database, then it will include bibliographic, chemical, 
# crystal, experimental, refinement or atomic coordinate data resulting 
# from the CCDC's data processing and validation procedures.
#
#######################################################################

data_QANYAG01
_symmetry_cell_setting           trigonal
_symmetry_space_group_name_H-M   'P 31 2 1'
_symmetry_Int_Tables_number      152
_space_group_name_Hall           'P 31 2"'
loop_
_symmetry_equiv_pos_site_id
_symmetry_equiv_pos_as_xyz
1 x,y,z
2 -y,x-y,1/3+z
3 y,x,-z
4 -x+y,-x,2/3+z
5 -x,-x+y,1/3-z
6 x-y,-y,2/3-z
_cell_length_a                   10.852(4)
_cell_length_b                   10.852(4)
_cell_length_c                   6.403(3)
_cell_angle_alpha                90
_cell_angle_beta                 90
_cell_angle_gamma                120
_cell_volume                     653.031
loop_
_atom_site_label
_atom_site_type_symbol
_atom_site_fract_x
_atom_site_fract_y
_atom_site_fract_z
Na1 Na 0.87627(12) 0.87627(12) 0.5000
O1 O 0.82195(18) 0.88190(18) 0.1511(2)
O2 O 0.3596(3) 0.5505(3) 0.4668(3)
O3 O 0.2056(2) 0.3670(2) 0.2937(3)
N1 N 0.3246(2) 0.4708(2) 0.3162(3)
C1 C 0.8000(3) 0.8000(3) 0.0000
C2 C 0.6586(3) 0.6586(3) 0.0000
C3 C 0.5582(3) 0.6302(3) 0.1555(3)
H1 H 0.5760 0.6964 0.2604
C4 C 0.4311(3) 0.5016(3) 0.1514(3)
C5 C 0.3988(3) 0.3988(3) 0.0000
H2 H 0.3131 0.3131 0.0000
Na1C Na 1.00000(17) 1.12373(12) 0.1667
Na1C_2 Na 0.00000(17) 0.12373(12) 0.1667
Na1_2 Na 0.87627(12) 0.87627(12) -0.5000
Na1A Na 1.12373(12) 1.00000(17) -0.1667
Na1A_2 Na 0.12373(12) 0.00000(17) -0.1667
O1B O 0.88190(18) 0.82195(18) -0.1511(2)
O1A O 1.11810(18) 0.94005(25) 0.4844(2)
O1B_2 O 0.88190(18) 0.82195(18) 0.8489(2)
O1E O 0.94005(25) 1.11810(18) 0.5156(2)
O2B O 0.5505(3) 0.3596(3) -0.4668(3)
O3B O 0.3670(2) 0.2056(2) -0.2937(3)
O3A O 0.6330(2) 0.8386(3) 0.6270(3)
O3E O 0.8386(3) 0.6330(2) 0.3730(3)
N1B N 0.4708(2) 0.3246(2) -0.3162(3)
C3B C 0.6302(3) 0.5582(3) -0.1555(3)
H1B H 0.6964 0.5760 -0.2604
C4B C 0.5016(3) 0.4311(3) -0.1514(3)
loop_
_geom_bond_atom_site_label_1
_geom_bond_atom_site_label_2
_geom_bond_site_symmetry_1
_geom_bond_site_symmetry_2
Na1 O1 1_555 1_555
O1 C1 1_555 1_555
O2 N1 1_555 1_555
O3 N1 1_555 1_555
N1 C4 1_555 1_555
C1 C2 1_555 1_555
C2 C3 1_555 1_555
C3 H1 1_555 1_555
C4 C3 1_555 1_555
C5 C4 1_555 1_555
H2 C5 1_555 1_555
Na1C O1 1_555 1_555
Na1C_2 O3 1_555 1_555
Na1_2 O1B 1_555 1_555
Na1A O1B 1_555 1_555
Na1A_2 O3B 1_555 1_555
O1B C1 1_555 1_555
O1A Na1 1_555 1_555
O1B_2 Na1 1_555 1_555
O1E Na1 1_555 1_555
O2B N1B 1_555 1_555
O3B N1B 1_555 1_555
O3A Na1 1_555 1_555
O3E Na1 1_555 1_555
N1B C4B 1_555 1_555
C3B C2 1_555 1_555
H1B C3B 1_555 1_555
C4B C5 1_555 1_555
Na1C O1E 1_555 1_555
C3B C4B 1_555 1_555

#END
