
#######################################################################
#
#                 Cambridge Crystallographic Data Centre
#                                CCDC 
#
#######################################################################
#
# If this CIF has been generated from an entry in the Cambridge 
# Structural Database, then it will include bibliographic, chemical, 
# crystal, experimental, refinement or atomic coordinate data resulting 
# from the CCDC's data processing and validation procedures.
#
#######################################################################

data_QAPCUH01
_symmetry_cell_setting           orthorhombic
_symmetry_space_group_name_H-M   'P b c a'
_symmetry_Int_Tables_number      61
_space_group_name_Hall           '-P 2ac 2ab'
loop_
_symmetry_equiv_pos_site_id
_symmetry_equiv_pos_as_xyz
1 x,y,z
2 1/2-x,-y,1/2+z
3 1/2+x,1/2-y,-z
4 -x,1/2+y,1/2-z
5 -x,-y,-z
6 1/2+x,y,1/2-z
7 1/2-x,1/2+y,z
8 x,1/2-y,1/2+z
_cell_length_a                   10.2865(9)
_cell_length_b                   7.2113(6)
_cell_length_c                   25.001(3)
_cell_angle_alpha                90
_cell_angle_beta                 90
_cell_angle_gamma                90
_cell_volume                     1854.55
loop_
_atom_site_label
_atom_site_type_symbol
_atom_site_fract_x
_atom_site_fract_y
_atom_site_fract_z
Ga1 Ga 0.307034(15) 0.50838(3) 0.574649(7)
S1 S 0.26433(3) 0.76385(6) 0.633871(16)
C1 C 0.19096(17) 0.5267(3) 0.51154(7)
H1 H 0.2399 0.5693 0.4812
H2 H 0.1220 0.6127 0.5190
H3 H 0.1547 0.4069 0.5038
C2 C 0.49695(16) 0.4660(3) 0.57395(8)
H4 H 0.5168 0.3641 0.5506
H5 H 0.5261 0.4378 0.6095
H6 H 0.5402 0.5756 0.5614
C3 C 0.42511(16) 0.8122(2) 0.65866(7)
C4 C 0.46216(19) 0.7243(3) 0.70600(7)
H7 H 0.4040 0.6473 0.7238
C5 C 0.5874(2) 0.7526(3) 0.72653(9)
H8 H 0.6124 0.6941 0.7580
C6 C 0.67390(19) 0.8675(3) 0.70006(10)
H9 H 0.7572 0.8850 0.7136
C7 C 0.63636(18) 0.9563(3) 0.65346(9)
H10 H 0.6943 1.0349 0.6361
C8 C 0.51239(16) 0.9288(3) 0.63236(8)
H11 H 0.4880 0.9879 0.6009
Ga1F Ga 0.192966(15) 1.00838(3) 0.574649(7)
S1F S 0.23567(3) 0.26385(6) 0.633871(16)
loop_
_geom_bond_atom_site_label_1
_geom_bond_atom_site_label_2
_geom_bond_site_symmetry_1
_geom_bond_site_symmetry_2
Ga1 S1 1_555 1_555
S1 C3 1_555 1_555
C1 Ga1 1_555 1_555
H1 C1 1_555 1_555
H2 C1 1_555 1_555
H3 C1 1_555 1_555
C2 Ga1 1_555 1_555
H4 C2 1_555 1_555
H5 C2 1_555 1_555
H6 C2 1_555 1_555
C3 C4 1_555 1_555
C4 H7 1_555 1_555
C5 C4 1_555 1_555
H8 C5 1_555 1_555
C6 C5 1_555 1_555
H9 C6 1_555 1_555
C7 C6 1_555 1_555
H10 C7 1_555 1_555
C8 C3 1_555 1_555
H11 C8 1_555 1_555
Ga1F S1 1_555 1_555
S1F Ga1 1_555 1_555
C7 C8 1_555 1_555

#END
