
#######################################################################
#
#                 Cambridge Crystallographic Data Centre
#                                CCDC 
#
#######################################################################
#
# If this CIF has been generated from an entry in the Cambridge 
# Structural Database, then it will include bibliographic, chemical, 
# crystal, experimental, refinement or atomic coordinate data resulting 
# from the CCDC's data processing and validation procedures.
#
#######################################################################

data_QAPLIC
_symmetry_cell_setting           monoclinic
_symmetry_space_group_name_H-M   'P 21/c'
_symmetry_Int_Tables_number      14
_space_group_name_Hall           '-P 2ybc'
loop_
_symmetry_equiv_pos_site_id
_symmetry_equiv_pos_as_xyz
1 x,y,z
2 -x,1/2+y,1/2-z
3 -x,-y,-z
4 x,1/2-y,1/2+z
_cell_length_a                   3.9090(8)
_cell_length_b                   12.752(3)
_cell_length_c                   11.905(2)
_cell_angle_alpha                90
_cell_angle_beta                 94.05(3)
_cell_angle_gamma                90
_cell_volume                     591.953
loop_
_atom_site_label
_atom_site_type_symbol
_atom_site_fract_x
_atom_site_fract_y
_atom_site_fract_z
Br1 Br 0.19469(12) 0.50444(4) 0.34746(4)
Cu1 Cu 0.26651(19) 0.42729(5) 0.54390(5)
N1 N 0.6574(10) -0.2726(3) 0.4728(3)
C1 C 0.5322(12) -0.0574(3) 0.4943(4)
C2 C 0.4956(13) -0.2168(4) 0.3896(4)
C3 C 0.4309(12) -0.1117(4) 0.3973(4)
C4 C 0.3022(13) 0.1157(4) 0.4198(4)
C5 C 0.2494(13) 0.2205(4) 0.4341(4)
Cu1B Cu 0.73349(19) -0.42729(5) 0.45610(5)
C1B C 0.4678(12) 0.0574(3) 0.5057(4)
C3B C 0.5691(12) 0.1117(4) 0.6027(4)
C2B C 0.5044(13) 0.2168(4) 0.6104(4)
N1B N 0.3426(10) 0.2726(3) 0.5272(3)
Br1B Br -0.19469(12) 0.49556(4) 0.65254(4)
Br1B_2 Br 0.80531(12) 0.49556(4) 0.65254(4)
Cu1B_2 Cu 0.73349(19) 0.57271(5) 0.45610(5)
C4B C 0.6978(13) -0.1157(4) 0.5802(4)
C5B C 0.7506(13) -0.2205(4) 0.5659(4)
Cu1B_3 Cu -0.26651(19) 0.57271(5) 0.45610(5)
Br1_2 Br -0.80531(12) 0.50444(4) 0.34746(4)
N1_2 N -0.3426(10) 0.7274(3) 0.4728(3)
Cu1_2 Cu -0.73349(19) 0.42729(5) 0.54390(5)
loop_
_geom_bond_atom_site_label_1
_geom_bond_atom_site_label_2
_geom_bond_site_symmetry_1
_geom_bond_site_symmetry_2
Br1 Cu1 1_555 1_555
Cu1 N1B 1_555 1_555
N1 C2 1_555 1_555
C1 C3 1_555 1_555
C2 C3 1_555 1_555
C4 C5 1_555 1_555
C5 N1B 1_555 1_555
Cu1B N1 1_555 1_555
C1B C1 1_555 1_555
C3B C1B 1_555 1_555
C2B C3B 1_555 1_555
N1B C2B 1_555 1_555
Br1B Cu1 1_555 1_555
Br1B_2 Cu1 1_555 1_555
Cu1B_2 Br1 1_555 1_555
C4B C1 1_555 1_555
C5B N1 1_555 1_555
Cu1B_3 Br1 1_555 1_555
Br1_2 Cu1B_3 1_555 1_555
N1_2 Cu1B_3 1_555 1_555
Cu1_2 Br1B 1_555 1_555
C4 C1B 1_555 1_555
Br1B Cu1B_3 1_555 1_555
Br1B_2 Cu1B_2 1_555 1_555
C4B C5B 1_555 1_555
Br1_2 Cu1_2 1_555 1_555

#END
