
#######################################################################
#
#                 Cambridge Crystallographic Data Centre
#                                CCDC 
#
#######################################################################
#
# If this CIF has been generated from an entry in the Cambridge 
# Structural Database, then it will include bibliographic, chemical, 
# crystal, experimental, refinement or atomic coordinate data resulting 
# from the CCDC's data processing and validation procedures.
#
#######################################################################

data_QAPPIH
_symmetry_cell_setting           triclinic
_symmetry_space_group_name_H-M   'P -1'
_symmetry_Int_Tables_number      2
_space_group_name_Hall           '-P 1'
loop_
_symmetry_equiv_pos_site_id
_symmetry_equiv_pos_as_xyz
1 x,y,z
2 -x,-y,-z
_cell_length_a                   6.9481(5)
_cell_length_b                   9.7267(6)
_cell_length_c                   12.8803(8)
_cell_angle_alpha                92.7760(10)
_cell_angle_beta                 99.1170(10)
_cell_angle_gamma                104.4150(10)
_cell_volume                     828.9
loop_
_atom_site_label
_atom_site_type_symbol
_atom_site_fract_x
_atom_site_fract_y
_atom_site_fract_z
Ag1 Ag 0.5000 0.5000 0.0000
Ag2 Ag 0.56230(3) 0.20292(2) 0.464581(18)
C1 C 0.3855(5) 0.1975(4) 0.0660(3)
H1 H 0.4376 0.1757 0.0052
C2 C 0.3253(5) 0.0903(3) 0.1291(3)
H2 H 0.3343 -0.0038 0.1120
C3 C 0.2512(4) 0.1234(3) 0.2186(2)
C4 C 0.2352(5) 0.2605(3) 0.2387(2)
H3 H 0.1820 0.2850 0.2985
C5 C 0.2972(5) 0.3609(3) 0.1710(3)
H4 H 0.2850 0.4549 0.1848
C6 C 0.1994(4) 0.0168(3) 0.2937(2)
C7 C 0.0629(4) -0.1751(3) 0.3624(2)
C8 C -0.2354(4) -0.5590(3) 0.3290(2)
H5 H -0.2737 -0.6381 0.2771
C9 C -0.1231(4) -0.4302(3) 0.3038(2)
H6 H -0.0868 -0.4215 0.2359
C10 C -0.0644(4) -0.3141(3) 0.3791(2)
C11 C -0.1257(4) -0.3322(3) 0.4769(2)
H7 H -0.0904 -0.2546 0.5300
C12 C -0.2376(4) -0.4636(3) 0.4954(2)
H8 H -0.2779 -0.4746 0.5623
N1 N 0.3737(4) 0.3311(3) 0.0865(2)
N2 N 0.2866(4) 0.0306(2) 0.39316(18)
N3 N 0.1987(4) -0.0918(2) 0.43720(18)
N4 N 0.0614(3) -0.1110(2) 0.27037(18)
N5 N -0.0708(4) -0.1500(3) 0.17217(19)
H9 H -0.196(5) -0.181(3) 0.184(2)
H10 H -0.031(5) -0.217(4) 0.141(3)
N6 N -0.2929(4) -0.5774(3) 0.42348(19)
Ag2A Ag 0.43770(3) 0.79708(2) -0.464581(18)
Ag2A_2 Ag 0.43770(3) -0.20292(2) 0.535419(18)
Ag2_2 Ag -0.43770(3) -0.79708(2) 0.464581(18)
Ag2_3 Ag 0.56230(3) 1.20292(2) -0.535419(18)
Ag2A_3 Ag 1.43770(3) 1.79708(2) -0.464581(18)
C1A C 0.6145(5) 0.8025(4) -0.0660(3)
H1A H 0.5624 0.8243 -0.0052
C2A C 0.6747(5) 0.9097(3) -0.1291(3)
H2A H 0.6657 1.0038 -0.1120
C3A C 0.7488(4) 0.8766(3) -0.2186(2)
C4A C 0.7648(5) 0.7395(3) -0.2387(2)
H3A H 0.8180 0.7150 -0.2985
C5A C 0.7028(5) 0.6391(3) -0.1710(3)
H4A H 0.7150 0.5451 -0.1848
C6A C 0.8006(4) 0.9832(3) -0.2937(2)
C7A C 0.9371(4) 1.1751(3) -0.3624(2)
C8A C 1.2354(4) 1.5590(3) -0.3290(2)
H5A H 1.2737 1.6381 -0.2771
C9A C 1.1231(4) 1.4302(3) -0.3038(2)
H6A H 1.0868 1.4215 -0.2359
C10A C 1.0644(4) 1.3141(3) -0.3791(2)
C11A C 1.1257(4) 1.3322(3) -0.4769(2)
H7A H 1.0904 1.2546 -0.5300
C12A C 1.2376(4) 1.4636(3) -0.4954(2)
H8A H 1.2779 1.4746 -0.5623
N1A N 0.6263(4) 0.6689(3) -0.0865(2)
N2A N 0.7134(4) 0.9694(2) -0.39316(18)
N3A N 0.8013(4) 1.0918(2) -0.43720(18)
N3A_2 N 0.8013(4) 0.0918(2) 0.56280(18)
N3_2 N 0.1987(4) 0.9082(2) -0.56280(18)
N4A N 0.9386(3) 1.1110(2) -0.27037(18)
N5A N 1.0708(4) 1.1500(3) -0.17217(19)
H9A H 1.196(5) 1.181(3) -0.184(2)
H10A H 1.031(5) 1.217(4) -0.141(3)
N6A N 1.2929(4) 1.5774(3) -0.42348(19)
N6_2 N 0.7071(4) 0.4226(3) 0.42348(19)
N6A_2 N 0.2929(4) 0.5774(3) -0.42348(19)
N7 N 0.4819(4) 0.7447(3) 0.2834(2)
O1 O 0.5965(4) 0.8435(3) 0.3461(2)
O2 O 0.4997(4) 0.7358(3) 0.18802(19)
O3 O 0.3507(4) 0.6546(3) 0.3154(2)
N8 N 0.8999(11) 0.3392(9) 0.0177(7)
O4 O 0.8562(11) 0.2015(8) 0.0272(7)
O5 O 0.8507(10) 0.4165(7) 0.0822(5)
O6 O 0.9935(12) 0.4035(10) -0.0470(5)
O7 O 0.7961(5) 0.1206(3) 0.3004(3)
H11 H 0.786(7) 0.125(5) 0.231(2)
H12 H 0.727(6) 0.032(3) 0.305(3)
O8? O 0.7731(7) 0.0939(6) 0.0910(4)
O9? O 0.8622(11) 0.3051(8) -0.0470(6)
loop_
_geom_bond_atom_site_label_1
_geom_bond_atom_site_label_2
_geom_bond_site_symmetry_1
_geom_bond_site_symmetry_2
Ag1 N1 1_555 1_555
Ag2 N2 1_555 1_555
C1 H1 1_555 1_555
C2 C1 1_555 1_555
H2 C2 1_555 1_555
C3 C2 1_555 1_555
C4 C3 1_555 1_555
H3 C4 1_555 1_555
C5 C4 1_555 1_555
H4 C5 1_555 1_555
C6 C3 1_555 1_555
C7 C10 1_555 1_555
C8 H5 1_555 1_555
C9 C8 1_555 1_555
H6 C9 1_555 1_555
C10 C9 1_555 1_555
C11 C10 1_555 1_555
H7 C11 1_555 1_555
C12 C11 1_555 1_555
H8 C12 1_555 1_555
N1 C1 1_555 1_555
N2 C6 1_555 1_555
N3 C7 1_555 1_555
N4 C6 1_555 1_555
N5 N4 1_555 1_555
H9 N5 1_555 1_555
H10 N5 1_555 1_555
N6 C8 1_555 1_555
N7 O1 1_555 1_555
O2 N7 1_555 1_555
O3 N7 1_555 1_555
N8 O4 1_555 1_555
O5 N8 1_555 1_555
O6 N8 1_555 1_555
O7 H11 1_555 1_555
H12 O7 1_555 1_555
Ag2A N2A 1_555 1_555
Ag2A_2 N3 1_555 1_555
Ag2_2 N6 1_555 1_555
Ag2_3 N3A 1_555 1_555
Ag2A_3 N6A 1_555 1_555
C1A H1A 1_555 1_555
C2A C1A 1_555 1_555
H2A C2A 1_555 1_555
C3A C2A 1_555 1_555
C4A C3A 1_555 1_555
H3A C4A 1_555 1_555
C5A C4A 1_555 1_555
H4A C5A 1_555 1_555
C6A C3A 1_555 1_555
C7A C10A 1_555 1_555
C8A H5A 1_555 1_555
C9A C8A 1_555 1_555
H6A C9A 1_555 1_555
C10A C9A 1_555 1_555
C11A C10A 1_555 1_555
H7A C11A 1_555 1_555
C12A C11A 1_555 1_555
H8A C12A 1_555 1_555
N1A Ag1 1_555 1_555
N2A C6A 1_555 1_555
N3A C7A 1_555 1_555
N3A_2 Ag2 1_555 1_555
N3_2 Ag2A 1_555 1_555
N4A C6A 1_555 1_555
N5A N4A 1_555 1_555
H9A N5A 1_555 1_555
H10A N5A 1_555 1_555
N6A C8A 1_555 1_555
N6_2 Ag2 1_555 1_555
N6A_2 Ag2A 1_555 1_555
C5 N1 1_555 1_555
C7 N4 1_555 1_555
C12 N6 1_555 1_555
N2 N3 1_555 1_555
C1A N1A 1_555 1_555
C5A N1A 1_555 1_555
C7A N4A 1_555 1_555
C12A N6A 1_555 1_555
N2A N3A 1_555 1_555

#END
