
#######################################################################
#
#                 Cambridge Crystallographic Data Centre
#                                CCDC 
#
#######################################################################
#
# If this CIF has been generated from an entry in the Cambridge 
# Structural Database, then it will include bibliographic, chemical, 
# crystal, experimental, refinement or atomic coordinate data resulting 
# from the CCDC's data processing and validation procedures.
#
#######################################################################

data_QAPQII
_symmetry_cell_setting           monoclinic
_symmetry_space_group_name_H-M   'P 21/c'
_symmetry_Int_Tables_number      14
_space_group_name_Hall           '-P 2ybc'
loop_
_symmetry_equiv_pos_site_id
_symmetry_equiv_pos_as_xyz
1 x,y,z
2 -x,1/2+y,1/2-z
3 -x,-y,-z
4 x,1/2-y,1/2+z
_cell_length_a                   11.3839(6)
_cell_length_b                   16.5163(8)
_cell_length_c                   7.4485(4)
_cell_angle_alpha                90
_cell_angle_beta                 95.5450(10)
_cell_angle_gamma                90
_cell_volume                     1393.91
loop_
_atom_site_label
_atom_site_type_symbol
_atom_site_fract_x
_atom_site_fract_y
_atom_site_fract_z
Ag1 Ag 0.512519(19) 0.132034(14) 0.48811(3)
C1 C 0.3719(3) 0.29538(18) 0.6139(4)
H1 H 0.4484 0.3183 0.6139
C2 C 0.2794(3) 0.34630(18) 0.6471(4)
C3 C 0.1665(3) 0.31334(19) 0.6454(4)
H2 H 0.1008 0.3463 0.6660
C4 C 0.1530(3) 0.2310(2) 0.6128(5)
H3 H 0.0774 0.2066 0.6115
C5 C 0.2504(3) 0.18468(19) 0.5822(4)
H4 H 0.2397 0.1284 0.5604
C6 C 0.3068(2) 0.43132(17) 0.6918(4)
C7 C 0.3042(2) 0.56281(18) 0.6998(4)
C8 C 0.3614(3) 0.70138(18) 0.6326(4)
H5 H 0.4382 0.6802 0.6229
C9 C 0.2726(3) 0.64776(18) 0.6685(4)
C10 C 0.1597(3) 0.67788(19) 0.6828(4)
H6 H 0.0967 0.6429 0.7060
C11 C 0.1420(3) 0.7604(2) 0.6620(5)
H7 H 0.0662 0.7831 0.6715
C12 C 0.2356(3) 0.80986(19) 0.6271(5)
H8 H 0.2220 0.8664 0.6143
N1 N 0.3596(2) 0.21596(15) 0.5820(4)
N2 N 0.4030(2) 0.45494(15) 0.7911(3)
N3 N 0.4015(2) 0.53885(15) 0.7963(3)
N4 N 0.2423(2) 0.49754(14) 0.6353(4)
N5 N 0.1322(2) 0.50209(16) 0.5336(4)
H9 H 0.134(3) 0.477(2) 0.440(5)
H10 H 0.079(3) 0.479(2) 0.596(5)
N6 N 0.3450(2) 0.78141(16) 0.6107(4)
Ag1C Ag 0.512519(19) 0.367966(14) -0.01189(3)
Ag1C_2 Ag 0.512519(19) 0.367966(14) 0.98811(3)
Ag1A Ag 0.487481(19) 0.632034(14) 1.01189(3)
Ag1B Ag 0.487481(19) 0.867966(14) 0.51189(3)
Ag1B_2 Ag 0.487481(19) -0.132034(14) 0.51189(3)
Ag1A_2 Ag 0.487481(19) -0.367966(14) 0.01189(3)
C1C C 0.3719(3) 0.20462(18) 0.1139(4)
H1C H 0.4484 0.1817 0.1139
C2C C 0.2794(3) 0.15370(18) 0.1471(4)
C3C C 0.1665(3) 0.18666(19) 0.1454(4)
H2C H 0.1008 0.1537 0.1660
C4C C 0.1530(3) 0.2690(2) 0.1128(5)
H3C H 0.0774 0.2934 0.1115
C5C C 0.2504(3) 0.31532(19) 0.0822(4)
H4C H 0.2397 0.3716 0.0604
C6C C 0.3068(2) 0.06868(17) 0.1918(4)
C7C C 0.3042(2) -0.06281(18) 0.1998(4)
C8C C 0.3614(3) -0.20138(18) 0.1326(4)
H5C H 0.4382 -0.1802 0.1229
C9C C 0.2726(3) -0.14776(18) 0.1685(4)
C10C C 0.1597(3) -0.17788(19) 0.1828(4)
H6C H 0.0967 -0.1429 0.2060
C11C C 0.1420(3) -0.2604(2) 0.1620(5)
H7C H 0.0662 -0.2831 0.1715
C12C C 0.2356(3) -0.30986(19) 0.1271(5)
H8C H 0.2220 -0.3664 0.1143
N1C N 0.3596(2) 0.28404(15) 0.0820(4)
N2C N 0.4030(2) 0.04506(15) 0.2911(3)
N2_2 N 0.4030(2) 0.45494(15) -0.2089(3)
N3C N 0.4015(2) -0.03885(15) 0.2963(3)
N3A N 0.5985(2) 0.03885(15) 0.7037(3)
N3B N 0.5985(2) 0.46115(15) 0.2037(3)
N4C N 0.2423(2) 0.00246(14) 0.1353(4)
N5C N 0.1322(2) -0.00209(16) 0.0336(4)
H9C H 0.134(3) 0.023(2) -0.060(5)
H10C H 0.079(3) 0.021(2) 0.096(5)
N6C N 0.3450(2) -0.28141(16) 0.1107(4)
N6B N 0.6550(2) 0.21859(16) 0.3893(4)
N6A N 0.6550(2) 0.28141(16) -0.1107(4)
Si1 Si 0.0000 0.5000 0.0000
F1 F 0.14598(15) 0.51717(11) -0.0182(3)
F2 F -0.00350(16) 0.57818(11) 0.1446(3)
F3 F 0.03699(16) 0.43737(11) 0.1762(2)
F1B F -0.14598(15) 0.48283(11) 0.0182(3)
F2B F 0.00350(16) 0.42182(11) -0.1446(3)
F3B F -0.03699(16) 0.56263(11) -0.1762(2)
O1 O 0.6786(3) 0.50558(18) 0.7250(5)
H11 H 0.6097 0.5028 0.7561
H12 H 0.7265 0.5022 0.8178
loop_
_geom_bond_atom_site_label_1
_geom_bond_atom_site_label_2
_geom_bond_site_symmetry_1
_geom_bond_site_symmetry_2
Ag1 N1 1_555 1_555
C1 H1 1_555 1_555
C2 C1 1_555 1_555
C3 C2 1_555 1_555
H2 C3 1_555 1_555
C4 C3 1_555 1_555
H3 C4 1_555 1_555
C5 C4 1_555 1_555
H4 C5 1_555 1_555
C6 C2 1_555 1_555
C7 C9 1_555 1_555
C8 H5 1_555 1_555
C9 C8 1_555 1_555
C10 C9 1_555 1_555
H6 C10 1_555 1_555
C11 C10 1_555 1_555
H7 C11 1_555 1_555
C12 C11 1_555 1_555
H8 C12 1_555 1_555
N1 C1 1_555 1_555
N2 C6 1_555 1_555
N3 C7 1_555 1_555
N4 C6 1_555 1_555
N5 N4 1_555 1_555
H9 N5 1_555 1_555
H10 N5 1_555 1_555
N6 C8 1_555 1_555
Si1 F1 1_555 1_555
F2 Si1 1_555 1_555
F3 Si1 1_555 1_555
O1 H11 1_555 1_555
H12 O1 1_555 1_555
Ag1C N1C 1_555 1_555
Ag1C_2 N2 1_555 1_555
Ag1A N3 1_555 1_555
Ag1B N6 1_555 1_555
Ag1B_2 N3C 1_555 1_555
Ag1A_2 N6C 1_555 1_555
C1C H1C 1_555 1_555
C2C C1C 1_555 1_555
C3C C2C 1_555 1_555
H2C C3C 1_555 1_555
C4C C3C 1_555 1_555
H3C C4C 1_555 1_555
C5C C4C 1_555 1_555
H4C C5C 1_555 1_555
C6C C2C 1_555 1_555
C7C C9C 1_555 1_555
C8C H5C 1_555 1_555
C9C C8C 1_555 1_555
C10C C9C 1_555 1_555
H6C C10C 1_555 1_555
C11C C10C 1_555 1_555
H7C C11C 1_555 1_555
C12C C11C 1_555 1_555
H8C C12C 1_555 1_555
N1C C1C 1_555 1_555
N2C Ag1 1_555 1_555
N2_2 Ag1C 1_555 1_555
N3C C7C 1_555 1_555
N3A Ag1 1_555 1_555
N3B Ag1C 1_555 1_555
N4C C6C 1_555 1_555
N5C N4C 1_555 1_555
H9C N5C 1_555 1_555
H10C N5C 1_555 1_555
N6C C8C 1_555 1_555
N6B Ag1 1_555 1_555
N6A Ag1C 1_555 1_555
F1B Si1 1_555 1_555
F2B Si1 1_555 1_555
F3B Si1 1_555 1_555
C5 N1 1_555 1_555
C7 N4 1_555 1_555
C12 N6 1_555 1_555
N2 N3 1_555 1_555
C5C N1C 1_555 1_555
C6C N2C 1_555 1_555
C7C N4C 1_555 1_555
C12C N6C 1_555 1_555
N2C N3C 1_555 1_555

#END
