
#######################################################################
#
#                 Cambridge Crystallographic Data Centre
#                                CCDC 
#
#######################################################################
#
# If this CIF has been generated from an entry in the Cambridge 
# Structural Database, then it will include bibliographic, chemical, 
# crystal, experimental, refinement or atomic coordinate data resulting 
# from the CCDC's data processing and validation procedures.
#
#######################################################################

data_QAQBOA
_symmetry_cell_setting           triclinic
_symmetry_space_group_name_H-M   'P -1'
_symmetry_Int_Tables_number      2
_space_group_name_Hall           '-P 1'
loop_
_symmetry_equiv_pos_site_id
_symmetry_equiv_pos_as_xyz
1 x,y,z
2 -x,-y,-z
_cell_length_a                   10.8747(19)
_cell_length_b                   12.626(2)
_cell_length_c                   15.749(3)
_cell_angle_alpha                111.839(3)
_cell_angle_beta                 97.442(3)
_cell_angle_gamma                106.239(3)
_cell_volume                     1859.78
loop_
_atom_site_label
_atom_site_type_symbol
_atom_site_fract_x
_atom_site_fract_y
_atom_site_fract_z
Cd1 Cd 0.69206(2) 0.537294(19) 0.717479(15)
S1 S 0.42277(9) 0.32158(8) 0.74620(6)
S2 S 1.05017(13) 0.64769(11) 0.83756(9)
C1 C 0.6623(4) 0.6982(3) 0.6002(3)
H1 H 0.5730 0.6634 0.5962
C2 C 0.6976(4) 0.7768(4) 0.5576(3)
H2 H 0.6326 0.7927 0.5252
C3 C 0.8286(4) 0.8308(3) 0.5635(2)
C4 C 0.9212(4) 0.8028(4) 0.6122(3)
H3 H 1.0112 0.8375 0.6182
C5 C 0.8781(4) 0.7231(4) 0.6517(3)
H4 H 0.9411 0.7046 0.6837
C6 C 0.8691(4) 0.9137(3) 0.5184(3)
H5 H 0.8051 0.9302 0.4855
C7 C 0.6569(4) 0.2607(3) 0.5724(3)
H6 H 0.6306 0.2485 0.6230
C8 C 0.6573(4) 0.1615(3) 0.4958(3)
H7 H 0.6310 0.0846 0.4954
C9 C 0.6966(4) 0.1762(3) 0.4202(2)
C10 C 0.7340(5) 0.2925(4) 0.4247(3)
H8 H 0.7611 0.3068 0.3751
C11 C 0.7308(5) 0.3871(4) 0.5035(3)
H9 H 0.7568 0.4650 0.5056
C12 C 0.6935(4) 0.0711(3) 0.3367(3)
H10 H 0.6587 -0.0072 0.3329
C13 C 0.7527(5) -0.0076(4) 0.1257(3)
H11 H 0.7920 0.0722 0.1336
C14 C 0.7342(4) -0.1092(3) 0.0342(3)
C15 C 0.6486(4) -0.2277(3) 0.0084(3)
H12 H 0.6026 -0.2459 0.0500
C16 C 0.6331(4) -0.3172(3) -0.0792(2)
H13 H 0.5749 -0.3957 -0.0959
C17 C 0.7804(5) -0.1826(4) -0.1159(3)
H14 H 0.8274 -0.1667 -0.1578
C18 C 0.7990(5) -0.0879(4) -0.0302(3)
H15 H 0.8554 -0.0095 -0.0159
C19 C 0.3936(4) 0.4598(3) 0.6732(3)
C20 C 0.2573(4) 0.3918(3) 0.6721(3)
C21 C 0.1390(5) 0.3997(4) 0.6372(3)
H16 H 0.1372 0.4536 0.6102
C22 C 0.0231(5) 0.3255(5) 0.6430(3)
H17 H -0.0576 0.3296 0.6195
C23 C 0.0251(5) 0.2456(4) 0.6832(3)
H18 H -0.0544 0.1967 0.6862
C24 C 0.1427(4) 0.2365(4) 0.7193(3)
H19 H 0.1447 0.1835 0.7471
C25 C 0.2575(4) 0.3108(3) 0.7116(2)
C26 C 0.8739(4) 0.4622(4) 0.8180(3)
C27 C 0.9960(4) 0.4607(4) 0.8723(2)
C28 C 1.0102(5) 0.3779(4) 0.9069(3)
H20 H 0.9368 0.3116 0.8977
C29 C 1.1320(6) 0.3942(5) 0.9542(3)
H21 H 1.1420 0.3385 0.9775
C30 C 1.2408(6) 0.4917(6) 0.9684(3)
H22 H 1.3233 0.5012 1.0016
C31 C 1.2310(5) 0.5765(5) 0.9345(3)
H23 H 1.3049 0.6420 0.9430
C32 C 1.1040(4) 0.5582(4) 0.8867(3)
N1 N 0.7503(3) 0.6707(2) 0.6463(2)
N2 N 0.9904(4) 0.9626(3) 0.5242(2)
N3 N 0.6921(3) 0.3727(3) 0.57732(19)
N4 N 0.7371(4) 0.0854(3) 0.2707(2)
N5 N 0.7172(4) -0.0251(3) 0.1932(2)
N6 N 0.6972(3) 0.7027(3) 0.8579(2)
N7 N 0.4873(3) 0.4285(3) 0.7134(2)
N8 N 0.8965(4) 0.5573(3) 0.7957(2)
O1 O 0.4211(3) 0.5357(3) 0.6409(2)
O2 O 0.4668(3) 0.3645(3) 0.8470(2)
O3 O 0.4377(3) 0.2094(2) 0.6882(2)
O4 O 0.7634(3) 0.3839(3) 0.7943(2)
O5 O 1.1086(4) 0.6542(4) 0.7621(3)
O6 O 1.0634(4) 0.7623(3) 0.9113(3)
Cd1A Cd 1.30794(2) 1.462706(19) 0.282521(15)
Cd1_2 Cd 0.69206(2) -0.462706(19) -0.282521(15)
Cd1_3 Cd 0.69206(2) 1.537294(19) 1.717479(15)
S1A S 1.57723(9) 1.67842(8) 0.25380(6)
S2A S 0.94983(13) 1.35231(11) 0.16244(9)
C1A C 1.3377(4) 1.3018(3) 0.3998(3)
H1A H 1.4270 1.3366 0.4038
C2A C 1.3024(4) 1.2232(4) 0.4424(3)
H2A H 1.3674 1.2073 0.4748
C3A C 1.1714(4) 1.1692(3) 0.4365(2)
C4A C 1.0788(4) 1.1972(4) 0.3878(3)
H3A H 0.9888 1.1625 0.3818
C5A C 1.1219(4) 1.2769(4) 0.3483(3)
H4A H 1.0589 1.2954 0.3163
C6A C 1.1309(4) 1.0863(3) 0.4816(3)
H5A H 1.1949 1.0698 0.5145
C7_2 C 0.6569(4) 1.2607(3) 1.5724(3)
H6_2 H 0.6306 1.2485 1.6230
C8_2 C 0.6573(4) 1.1615(3) 1.4958(3)
H7_2 H 0.6310 1.0846 1.4954
C9_2 C 0.6966(4) 1.1762(3) 1.4202(2)
C10_2 C 0.7340(5) 1.2925(4) 1.4247(3)
H8_2 H 0.7611 1.3068 1.3751
C11_2 C 0.7308(5) 1.3871(4) 1.5035(3)
H9_2 H 0.7568 1.4650 1.5056
C12_2 C 0.6935(4) 1.0711(3) 1.3367(3)
H10_2 H 0.6587 0.9928 1.3329
C13_2 C 0.7527(5) 0.9924(4) 1.1257(3)
H11_2 H 0.7920 1.0722 1.1336
C14_2 C 0.7342(4) 0.8908(3) 1.0342(3)
C15_2 C 0.6486(4) 0.7723(3) 1.0084(3)
H12_2 H 0.6026 0.7541 1.0500
C16_2 C 0.6331(4) 0.6828(3) 0.9208(2)
H13_2 H 0.5749 0.6043 0.9041
C17_2 C 0.7804(5) 0.8174(4) 0.8841(3)
H14_2 H 0.8274 0.8333 0.8422
C18_2 C 0.7990(5) 0.9121(4) 0.9698(3)
H15_2 H 0.8554 0.9905 0.9841
C19A C 1.6064(4) 1.5402(3) 0.3268(3)
C20A C 1.7427(4) 1.6082(3) 0.3279(3)
C21A C 1.8610(5) 1.6003(4) 0.3628(3)
H16A H 1.8628 1.5464 0.3898
C22A C 1.9769(5) 1.6745(5) 0.3570(3)
H17A H 2.0576 1.6704 0.3805
C23A C 1.9749(5) 1.7544(4) 0.3168(3)
H18A H 2.0544 1.8033 0.3138
C24A C 1.8573(4) 1.7635(4) 0.2807(3)
H19A H 1.8553 1.8165 0.2529
C25A C 1.7425(4) 1.6892(3) 0.2884(2)
C26A C 1.1261(4) 1.5378(4) 0.1820(3)
C27A C 1.0040(4) 1.5393(4) 0.1277(2)
C28A C 0.9898(5) 1.6221(4) 0.0931(3)
H20A H 1.0632 1.6884 0.1023
C29A C 0.8680(6) 1.6058(5) 0.0458(3)
H21A H 0.8580 1.6615 0.0225
C30A C 0.7592(6) 1.5083(6) 0.0316(3)
H22A H 0.6767 1.4988 -0.0016
C31A C 0.7690(5) 1.4235(5) 0.0655(3)
H23A H 0.6951 1.3580 0.0570
C32A C 0.8960(4) 1.4418(4) 0.1133(3)
N1A N 1.2497(3) 1.3293(2) 0.3537(2)
N2A N 1.0096(4) 1.0374(3) 0.4758(2)
N3A N 1.3079(3) 1.6273(3) 0.42268(19)
N3_2 N 0.6921(3) 1.3727(3) 1.57732(19)
N4_2 N 0.7371(4) 1.0854(3) 1.2707(2)
N5_2 N 0.7172(4) 0.9749(3) 1.1932(2)
N6A N 1.3028(3) 1.2973(3) 0.1421(2)
N6_2 N 0.6972(3) -0.2973(3) -0.1421(2)
N7A N 1.5127(3) 1.5715(3) 0.2866(2)
N8A N 1.1035(4) 1.4427(3) 0.2043(2)
O1A O 1.5789(3) 1.4643(3) 0.3591(2)
O2A O 1.5332(3) 1.6355(3) 0.1530(2)
O3A O 1.5623(3) 1.7906(2) 0.3118(2)
O4A O 1.2366(3) 1.6161(3) 0.2057(2)
O5A O 0.8914(4) 1.3458(4) 0.2379(3)
O6A O 0.9366(4) 1.2377(3) 0.0887(3)
C33 C 0.6308(9) 0.1336(7) 0.8156(7)
H24 H 0.6856 0.2189 0.8387
H25 H 0.5392 0.1267 0.7972
Cl1 Cl 0.6718(4) 0.0498(3) 0.7148(3)
Cl2 Cl 0.6477(7) 0.0943(4) 0.9039(3)
loop_
_geom_bond_atom_site_label_1
_geom_bond_atom_site_label_2
_geom_bond_site_symmetry_1
_geom_bond_site_symmetry_2
Cd1 N1 1_555 1_555
S1 C25 1_555 1_555
S2 C32 1_555 1_555
C1 H1 1_555 1_555
C2 C1 1_555 1_555
H2 C2 1_555 1_555
C3 C2 1_555 1_555
C4 C3 1_555 1_555
H3 C4 1_555 1_555
C5 C4 1_555 1_555
H4 C5 1_555 1_555
C6 C3 1_555 1_555
H5 C6 1_555 1_555
C7 H6 1_555 1_555
C8 C7 1_555 1_555
H7 C8 1_555 1_555
C9 C8 1_555 1_555
C10 C9 1_555 1_555
H8 C10 1_555 1_555
C11 C10 1_555 1_555
H9 C11 1_555 1_555
C12 C9 1_555 1_555
H10 C12 1_555 1_555
C13 H11 1_555 1_555
C14 C13 1_555 1_555
C15 C14 1_555 1_555
H12 C15 1_555 1_555
C16 C15 1_555 1_555
H13 C16 1_555 1_555
C17 H14 1_555 1_555
C18 C14 1_555 1_555
H15 C18 1_555 1_555
C19 C20 1_555 1_555
C20 C21 1_555 1_555
C21 H16 1_555 1_555
C22 C21 1_555 1_555
H17 C22 1_555 1_555
C23 C22 1_555 1_555
H18 C23 1_555 1_555
C24 C23 1_555 1_555
H19 C24 1_555 1_555
C25 C20 1_555 1_555
C26 C27 1_555 1_555
C27 C28 1_555 1_555
C28 H20 1_555 1_555
C29 C28 1_555 1_555
H21 C29 1_555 1_555
C30 C29 1_555 1_555
H22 C30 1_555 1_555
C31 C30 1_555 1_555
H23 C31 1_555 1_555
C32 C27 1_555 1_555
N1 C1 1_555 1_555
N2 C6 1_555 1_555
N3 Cd1 1_555 1_555
N4 C12 1_555 1_555
N5 C13 1_555 1_555
N6 Cd1 1_555 1_555
N7 Cd1 1_555 1_555
N8 Cd1 1_555 1_555
O1 C19 1_555 1_555
O2 S1 1_555 1_555
O3 S1 1_555 1_555
O4 C26 1_555 1_555
O5 S2 1_555 1_555
O6 S2 1_555 1_555
C33 H24 1_555 1_555
H25 C33 1_555 1_555
Cl1 C33 1_555 1_555
Cl2 C33 1_555 1_555
Cd1A N1A 1_555 1_555
Cd1_2 N6_2 1_555 1_555
Cd1_3 N3_2 1_555 1_555
S1A C25A 1_555 1_555
S2A C32A 1_555 1_555
C1A H1A 1_555 1_555
C2A C1A 1_555 1_555
H2A C2A 1_555 1_555
C3A C2A 1_555 1_555
C4A C3A 1_555 1_555
H3A C4A 1_555 1_555
C5A C4A 1_555 1_555
H4A C5A 1_555 1_555
C6A C3A 1_555 1_555
H5A C6A 1_555 1_555
C7_2 H6_2 1_555 1_555
C8_2 C7_2 1_555 1_555
H7_2 C8_2 1_555 1_555
C9_2 C8_2 1_555 1_555
C10_2 C9_2 1_555 1_555
H8_2 C10_2 1_555 1_555
C11_2 C10_2 1_555 1_555
H9_2 C11_2 1_555 1_555
C12_2 C9_2 1_555 1_555
H10_2 C12_2 1_555 1_555
C13_2 H11_2 1_555 1_555
C14_2 C13_2 1_555 1_555
C15_2 C14_2 1_555 1_555
H12_2 C15_2 1_555 1_555
C16_2 N6 1_555 1_555
H13_2 C16_2 1_555 1_555
C17_2 N6 1_555 1_555
H14_2 C17_2 1_555 1_555
C18_2 C14_2 1_555 1_555
H15_2 C18_2 1_555 1_555
C19A C20A 1_555 1_555
C20A C21A 1_555 1_555
C21A H16A 1_555 1_555
C22A C21A 1_555 1_555
H17A C22A 1_555 1_555
C23A C22A 1_555 1_555
H18A C23A 1_555 1_555
C24A C23A 1_555 1_555
H19A C24A 1_555 1_555
C25A C20A 1_555 1_555
C26A C27A 1_555 1_555
C27A C28A 1_555 1_555
C28A H20A 1_555 1_555
C29A C28A 1_555 1_555
H21A C29A 1_555 1_555
C30A C29A 1_555 1_555
H22A C30A 1_555 1_555
C31A C30A 1_555 1_555
H23A C31A 1_555 1_555
C32A C27A 1_555 1_555
N1A C1A 1_555 1_555
N2A N2 1_555 1_555
N3A Cd1A 1_555 1_555
N3_2 C7_2 1_555 1_555
N4_2 C12_2 1_555 1_555
N5_2 C13_2 1_555 1_555
N6A Cd1A 1_555 1_555
N6_2 C16 1_555 1_555
N7A Cd1A 1_555 1_555
N8A Cd1A 1_555 1_555
O1A C19A 1_555 1_555
O2A S1A 1_555 1_555
O3A S1A 1_555 1_555
O4A C26A 1_555 1_555
O5A S2A 1_555 1_555
O6A S2A 1_555 1_555
S1 N7 1_555 1_555
S2 N8 1_555 1_555
C5 N1 1_555 1_555
C7 N3 1_555 1_555
C11 N3 1_555 1_555
C17 C18 1_555 1_555
C17 N6_2 1_555 1_555
C19 N7 1_555 1_555
C24 C25 1_555 1_555
C26 N8 1_555 1_555
C31 C32 1_555 1_555
N4 N5 1_555 1_555
S1A N7A 1_555 1_555
S2A N8A 1_555 1_555
C5A N1A 1_555 1_555
C6A N2A 1_555 1_555
C11_2 N3_2 1_555 1_555
C15_2 C16_2 1_555 1_555
C17_2 C18_2 1_555 1_555
C19A N7A 1_555 1_555
C24A C25A 1_555 1_555
C26A N8A 1_555 1_555
C31A C32A 1_555 1_555
N4_2 N5_2 1_555 1_555

#END
