
#######################################################################
#
#                 Cambridge Crystallographic Data Centre
#                                CCDC 
#
#######################################################################
#
# If this CIF has been generated from an entry in the Cambridge 
# Structural Database, then it will include bibliographic, chemical, 
# crystal, experimental, refinement or atomic coordinate data resulting 
# from the CCDC's data processing and validation procedures.
#
#######################################################################

data_QAQKOJ
_symmetry_cell_setting           monoclinic
_symmetry_space_group_name_H-M   'C 2/c'
_symmetry_Int_Tables_number      15
_space_group_name_Hall           '-C 2yn'
loop_
_symmetry_equiv_pos_site_id
_symmetry_equiv_pos_as_xyz
1 x,y,z
2 1/2+x,1/2+y,z
3 -x,y,1/2-z
4 1/2-x,1/2+y,1/2-z
5 -x,-y,-z
6 1/2-x,1/2-y,-z
7 x,-y,1/2+z
8 1/2+x,1/2-y,1/2+z
_cell_length_a                   21.5739(10)
_cell_length_b                   9.8443(10)
_cell_length_c                   15.7727(10)
_cell_angle_alpha                90
_cell_angle_beta                 125.341(10)
_cell_angle_gamma                90
_cell_volume                     2732.52
loop_
_atom_site_label
_atom_site_type_symbol
_atom_site_fract_x
_atom_site_fract_y
_atom_site_fract_z
Ag1 Ag 0.422870(14) 0.50383(2) 0.12826(2)
C1 C 0.32915(19) 0.7687(3) 0.0349(3)
H1 H 0.3281 0.8642 0.0166
C2 C 0.3079(2) 0.7609(4) 0.1113(3)
H2 H 0.3128 0.6677 0.1344
H3 H 0.3430 0.8160 0.1717
C3 C 0.2724(2) 0.6906(3) -0.0640(3)
H4 H 0.2846 0.7027 -0.1137
H5 H 0.2759 0.5945 -0.0482
C4 C 0.29879(17) 0.2512(3) -0.0366(3)
H6 H 0.3298 0.2025 -0.0528
H7 H 0.2995 0.3467 -0.0512
C5 C 0.21762(18) 0.1984(3) -0.1049(2)
H8 H 0.1969 0.2155 -0.1773
H9 H 0.2175 0.1011 -0.0956
C6 C 0.33214(17) 0.2333(3) 0.0781(3)
H10 H 0.3343 0.1359 0.0925
N1 N 0.40693(16) 0.7155(3) 0.0826(2)
H11 H 0.4163 0.7222 0.0339
H12 H 0.4448 0.7730 0.1448
N2 N 0.41057(15) 0.2886(3) 0.1441(2)
H13 H 0.4293 0.2763 0.2156
H14 H 0.4442 0.2360 0.1300
Ag1E Ag 0.077130(14) 0.99617(2) -0.12826(2)
Ag1B Ag 0.577130(14) 0.50383(2) 0.37174(2)
Ag1E_2 Ag 0.077130(14) -0.00383(2) -0.12826(2)
Ag1G Ag -0.077130(14) 0.99617(2) -0.37174(2)
C1E C 0.17085(19) 0.7313(3) -0.0349(3)
H1E H 0.1719 0.6358 -0.0166
C2E C 0.1921(2) 0.7391(4) -0.1113(3)
H2E H 0.1872 0.8323 -0.1344
H3E H 0.1570 0.6840 -0.1717
C3E C 0.2276(2) 0.8094(3) 0.0640(3)
H4E H 0.2154 0.7973 0.1137
H5E H 0.2241 0.9055 0.0482
C4E C 0.20121(17) 0.2488(3) 0.0366(3)
H6E H 0.1702 0.2975 0.0528
H7E H 0.2005 0.1533 0.0512
C5E C 0.28238(18) 0.3016(3) 0.1049(2)
H8E H 0.3031 0.2845 0.1773
H9E H 0.2825 0.3989 0.0956
C6E C 0.16786(17) 0.2667(3) -0.0781(3)
H10E H 0.1657 0.3641 -0.0925
N1E N 0.09307(16) 0.7845(3) -0.0826(2)
H11E H 0.0837 0.7778 -0.0339
H12E H 0.0552 0.7270 -0.1448
N2E N 0.08943(15) 0.2114(3) -0.1441(2)
N2E_2 N 0.08943(15) 1.2114(3) -0.1441(2)
H13E H 0.0707 0.2237 -0.2156
H13E_2 H 0.0707 1.2237 -0.2156
H14E H 0.0558 0.2640 -0.1300
H14E_2 H 0.0558 1.2640 -0.1300
C7 C 0.4296(2) 0.1383(4) 0.3763(3)
C8 C 0.3948(4) 0.0126(4) 0.3881(6)
H15 H 0.4059 -0.0650 0.3621
H16 H 0.3407 0.0240 0.3494
H17 H 0.4156 -0.0010 0.4602
O1 O 0.42063(19) 0.2473(3) 0.4071(3)
O2 O 0.46500(17) 0.1259(3) 0.3376(2)
O3 O 0.5593(2) 0.4823(4) 0.1601(3)
H18 H 0.560(3) 0.415(5) 0.138(3)
C9 C 0.5912(3) 0.5753(5) 0.1292(4)
H19 H 0.5767 0.6657 0.1339
H20 H 0.5733 0.5570 0.0587
H21 H 0.6455 0.5674 0.1737
O4 O 0.5000 0.9273(3) 0.2500
loop_
_geom_bond_atom_site_label_1
_geom_bond_atom_site_label_2
_geom_bond_site_symmetry_1
_geom_bond_site_symmetry_2
Ag1 N1 1_555 1_555
C1 H1 1_555 1_555
C2 C1 1_555 1_555
H2 C2 1_555 1_555
H3 C2 1_555 1_555
C3 C1 1_555 1_555
H4 C3 1_555 1_555
H5 C3 1_555 1_555
C4 H6 1_555 1_555
H7 C4 1_555 1_555
C5 C4 1_555 1_555
H8 C5 1_555 1_555
H9 C5 1_555 1_555
C6 C4 1_555 1_555
H10 C6 1_555 1_555
N1 C1 1_555 1_555
H11 N1 1_555 1_555
H12 N1 1_555 1_555
N2 Ag1 1_555 1_555
H13 N2 1_555 1_555
H14 N2 1_555 1_555
C7 C8 1_555 1_555
C8 H15 1_555 1_555
H16 C8 1_555 1_555
H17 C8 1_555 1_555
O1 C7 1_555 1_555
O2 C7 1_555 1_555
O3 H18 1_555 1_555
C9 O3 1_555 1_555
H19 C9 1_555 1_555
H20 C9 1_555 1_555
H21 C9 1_555 1_555
Ag1E Ag1G 1_555 1_555
Ag1B Ag1 1_555 1_555
Ag1E_2 N2E 1_555 1_555
C1E H1E 1_555 1_555
C2E C3 1_555 1_555
H2E C2E 1_555 1_555
H3E C2E 1_555 1_555
C3E C2 1_555 1_555
H4E C3E 1_555 1_555
H5E C3E 1_555 1_555
C4E H6E 1_555 1_555
H7E C4E 1_555 1_555
C5E C6 1_555 1_555
H8E C5E 1_555 1_555
H9E C5E 1_555 1_555
C6E C5 1_555 1_555
H10E C6E 1_555 1_555
N1E Ag1E 1_555 1_555
H11E N1E 1_555 1_555
H12E N1E 1_555 1_555
N2E C6E 1_555 1_555
N2E_2 Ag1E 1_555 1_555
H13E N2E 1_555 1_555
H13E_2 N2E_2 1_555 1_555
H14E N2E 1_555 1_555
H14E_2 N2E_2 1_555 1_555
C6 N2 1_555 1_555
C1E C2E 1_555 1_555
C1E C3E 1_555 1_555
C1E N1E 1_555 1_555
C4E C5E 1_555 1_555
C4E C6E 1_555 1_555

#END
