
#######################################################################
#
#                 Cambridge Crystallographic Data Centre
#                                CCDC 
#
#######################################################################
#
# If this CIF has been generated from an entry in the Cambridge 
# Structural Database, then it will include bibliographic, chemical, 
# crystal, experimental, refinement or atomic coordinate data resulting 
# from the CCDC's data processing and validation procedures.
#
#######################################################################

data_QAQKEZ
_symmetry_cell_setting           triclinic
_symmetry_space_group_name_H-M   'P -1'
_symmetry_Int_Tables_number      2
_space_group_name_Hall           '-P 1'
loop_
_symmetry_equiv_pos_site_id
_symmetry_equiv_pos_as_xyz
1 x,y,z
2 -x,-y,-z
_cell_length_a                   8.7808(13)
_cell_length_b                   12.810(4)
_cell_length_c                   13.706(3)
_cell_angle_alpha                95.35(3)
_cell_angle_beta                 90.898(17)
_cell_angle_gamma                108.90(2)
_cell_volume                     1450.48
loop_
_atom_site_label
_atom_site_type_symbol
_atom_site_fract_x
_atom_site_fract_y
_atom_site_fract_z
C1 C 0.8811(3) 0.0844(2) 0.7778(2)
H1 H 0.8950 0.1268 0.8425
C3 C 0.9399(3) 0.1656(3) 0.7016(2)
H5 H 0.8792 0.2169 0.7046
H6 H 0.9204 0.1252 0.6367
C5 C 1.1200(3) 0.2311(2) 0.7180(2)
H7 H 1.1540 0.2800 0.6669
H8 H 1.1386 0.2764 0.7806
C7 C 1.2187(3) 0.1532(2) 0.7170(2)
H9 H 1.2012 0.1102 0.6524
C9 C 1.1632(4) 0.0731(3) 0.7935(2)
H13 H 1.1841 0.1139 0.8583
H14 H 1.2237 0.0217 0.7899
C10 C 0.9836(4) 0.0086(3) 0.7780(3)
H15 H 0.9649 -0.0379 0.7160
H16 H 0.9505 -0.0397 0.8298
Ag2 Ag 0.55027(3) 0.11772(2) 0.745458(19)
N1 N 0.7082(3) 0.0225(2) 0.75825(19)
N2 N 1.3936(3) 0.2151(2) 0.73288(19)
H27 H 1.4091 0.2590 0.7879
H28 H 1.4274 0.2524 0.6818
H29 H 0.6687 -0.0170 0.8006
H30 H 0.6908 -0.0155 0.7076
Ag2_2 Ag 1.55027(3) 0.11772(2) 0.745458(19)
N2_2 N 0.3936(3) 0.2151(2) 0.73288(19)
C2 C 0.8459(5) 0.3747(3) 0.9129(3)
H2 H 0.8735 0.4481 0.8927
H3 H 0.8730 0.3268 0.8631
H4 H 0.9047 0.3770 0.9731
C4 C 0.6679(4) 0.3311(3) 0.9281(2)
O1 O 0.5858(3) 0.3913(2) 0.9113(2)
O3 O 0.6113(3) 0.23634(19) 0.95467(19)
C6 C -0.6745(4) 0.6630(3) 0.4361(2)
C8 C -0.8547(4) 0.6074(3) 0.4250(3)
H10 H -0.8785 0.5295 0.4061
H11 H -0.8984 0.6394 0.3756
H12 H -0.9018 0.6178 0.4864
O5 O -0.5854(3) 0.6059(2) 0.4168(2)
O7 O -0.6226(3) 0.7655(2) 0.4615(2)
C11 C 1.2378(3) 0.6968(2) 0.7236(2)
H17 H 1.2131 0.6618 0.6559
C12 C 1.2179(3) 0.6062(3) 0.7913(2)
H18 H 1.1090 0.5542 0.7824
H19 H 1.2337 0.6391 0.8589
C13 C 1.4120(3) 0.7744(2) 0.7314(2)
H20 H 1.4354 0.8136 0.7968
H21 H 1.4251 0.8290 0.6849
C14 C 1.5108(3) 0.6230(2) 0.7799(2)
H22 H 1.5327 0.6590 0.8473
C15 C 1.3378(4) 0.5438(2) 0.7711(2)
H23 H 1.3250 0.4891 0.8175
H24 H 1.3154 0.5048 0.7056
C16 C 1.5319(3) 0.7121(2) 0.7111(2)
H25 H 1.5156 0.6784 0.6438
H26 H 1.6409 0.7639 0.7197
Ag1 Ag 0.87461(3) 0.66666(2) 0.755311(18)
N3 N 1.1249(3) 0.7584(2) 0.74690(18)
N4 N 1.6297(3) 0.5634(2) 0.75928(19)
H31 H 1.6299 0.5144 0.8043
H32 H 1.6143 0.5213 0.6929
H33 H 1.1351 0.7955 0.7102
H34 H 1.1600 0.7897 0.7979
Ag1_2 Ag 1.87461(3) 0.66666(2) 0.755311(18)
N4_2 N 0.6297(3) 0.5634(2) 0.75928(19)
O2 O 0.2250(3) 0.8998(2) 0.55801(19)
H43 H 0.2544 0.8579 0.5308
H44 H 0.1296 0.8739 0.5539
O4 O -0.3263(3) 0.91084(19) 0.54120(18)
H47 H -0.2984 0.9606 0.5145
H48 H -0.4184 0.8594 0.5133
O6 O 0.7858(3) 0.1225(2) 0.04135(18)
H41 H 0.7296 0.1583 0.0179
H42 H 0.7381 0.0469 0.0149
O8 O 1.1201(3) 0.2063(2) 0.0606(2)
H35 H 1.0443 0.1954 0.0580
H36 H 1.1526 0.2590 0.0241
O9 O 1.3419(3) 0.09510(19) 0.04442(18)
H39 H 1.4444 0.1555 0.0199
H40 H 1.2787 0.1257 0.0479
O10 O -0.2942(3) 0.5948(2) 0.4876(2)
H37 H -0.3186 0.5258 0.5160
H38 H -0.3905 0.5927 0.4740
O11 O -0.1026(3) 0.8037(2) 0.5619(2)
H49 H -0.1840 0.8288 0.5686
H50 H -0.1570 0.7382 0.5256
O12 O 1.2932(3) 0.3913(2) -0.0186(2)
H45 H 1.3271 0.4595 0.0151
H46 H 1.3866 0.3866 -0.0362
loop_
_geom_bond_atom_site_label_1
_geom_bond_atom_site_label_2
_geom_bond_site_symmetry_1
_geom_bond_site_symmetry_2
C1 H1 1_555 1_555
C2 H2 1_555 1_555
H3 C2 1_555 1_555
H4 C2 1_555 1_555
C3 C1 1_555 1_555
H5 C3 1_555 1_555
H6 C3 1_555 1_555
C4 C2 1_555 1_555
C5 C3 1_555 1_555
H7 C5 1_555 1_555
H8 C5 1_555 1_555
C6 C8 1_555 1_555
C7 C5 1_555 1_555
H9 C7 1_555 1_555
C8 H10 1_555 1_555
H11 C8 1_555 1_555
H12 C8 1_555 1_555
C9 C7 1_555 1_555
H13 C9 1_555 1_555
H14 C9 1_555 1_555
C10 C1 1_555 1_555
H15 C10 1_555 1_555
H16 C10 1_555 1_555
C11 H17 1_555 1_555
C12 C11 1_555 1_555
H18 C12 1_555 1_555
H19 C12 1_555 1_555
C13 C11 1_555 1_555
H20 C13 1_555 1_555
H21 C13 1_555 1_555
C14 H22 1_555 1_555
C15 C12 1_555 1_555
H23 C15 1_555 1_555
H24 C15 1_555 1_555
C16 C13 1_555 1_555
H25 C16 1_555 1_555
H26 C16 1_555 1_555
Ag1 N3 1_555 1_555
Ag2 N1 1_555 1_555
N1 C1 1_555 1_555
N2 C7 1_555 1_555
N3 C11 1_555 1_555
N4 C14 1_555 1_555
O1 C4 1_555 1_555
O2 H43 1_555 1_555
O3 C4 1_555 1_555
O4 H47 1_555 1_555
O5 C6 1_555 1_555
O6 H41 1_555 1_555
O7 C6 1_555 1_555
O8 H35 1_555 1_555
O9 H39 1_555 1_555
O10 H37 1_555 1_555
O11 H49 1_555 1_555
O12 H45 1_555 1_555
H27 N2 1_555 1_555
H28 N2 1_555 1_555
H29 N1 1_555 1_555
H30 N1 1_555 1_555
H31 N4 1_555 1_555
H32 N4 1_555 1_555
H33 N3 1_555 1_555
H34 N3 1_555 1_555
H36 O8 1_555 1_555
H38 O10 1_555 1_555
H40 O9 1_555 1_555
H42 O6 1_555 1_555
H44 O2 1_555 1_555
H46 O12 1_555 1_555
H48 O4 1_555 1_555
H50 O11 1_555 1_555
Ag1_2 N4 1_555 1_555
Ag2_2 N2 1_555 1_555
N2_2 Ag2 1_555 1_555
N4_2 Ag1 1_555 1_555
C9 C10 1_555 1_555
C14 C15 1_555 1_555
C14 C16 1_555 1_555

#END
