
#######################################################################
#
#                 Cambridge Crystallographic Data Centre
#                                CCDC 
#
#######################################################################
#
# If this CIF has been generated from an entry in the Cambridge 
# Structural Database, then it will include bibliographic, chemical, 
# crystal, experimental, refinement or atomic coordinate data resulting 
# from the CCDC's data processing and validation procedures.
#
#######################################################################

data_QAQNUS
_symmetry_cell_setting           monoclinic
_symmetry_space_group_name_H-M   'P 21/c'
_symmetry_Int_Tables_number      14
_space_group_name_Hall           '-P 2ybc'
loop_
_symmetry_equiv_pos_site_id
_symmetry_equiv_pos_as_xyz
1 x,y,z
2 -x,1/2+y,1/2-z
3 -x,-y,-z
4 x,1/2-y,1/2+z
_cell_length_a                   11.277(3)
_cell_length_b                   20.382(5)
_cell_length_c                   7.450(2)
_cell_angle_alpha                90
_cell_angle_beta                 109.193(3)
_cell_angle_gamma                90
_cell_volume                     1617.19
loop_
_atom_site_label
_atom_site_type_symbol
_atom_site_fract_x
_atom_site_fract_y
_atom_site_fract_z
Cu1 Cu -0.16144(5) 0.07967(3) 0.56068(7)
C1 C 0.2788(5) 0.2553(2) 1.0475(7)
C2 C 0.1808(4) 0.2137(2) 0.9245(6)
C3 C 0.1899(5) 0.1458(3) 0.9403(8)
C4 C 0.0938(5) 0.1080(3) 0.8262(8)
C5 C -0.0158(5) 0.1991(3) 0.6812(7)
C6 C 0.0757(5) 0.2406(3) 0.7892(7)
C7 C 0.3729(4) 0.3440(2) 1.1577(6)
C8 C 0.3928(5) 0.4153(2) 1.1721(7)
C9 C 0.5072(5) 0.4421(3) 1.2753(8)
C10 C 0.5196(5) 0.5092(3) 1.2796(9)
C11 C 0.2951(5) 0.4572(3) 1.0769(7)
C12 C 0.4191(5) 0.5477(3) 1.1846(8)
H1 H 0.4283 0.5931 1.1913
N1 N 0.4396(4) 0.2979(2) 1.2566(6)
N2 N 0.3780(4) 0.2389(2) 1.1851(6)
N3 N -0.0085(4) 0.13345(19) 0.6999(5)
N4 N 0.3076(4) 0.5222(2) 1.0823(6)
O1 O 0.2684(3) 0.32159(16) 1.0203(5)
O2 O -0.1275(4) 0.01630(19) 0.7782(5)
O3 O -0.2784(4) 0.1421(2) 0.6698(6)
O4 O -0.1918(4) 0.04631(19) 0.0805(5)
O5 O 0.0089(5) 0.0917(3) 0.2588(10)
O6 O -0.1422(6) 0.1568(3) 0.0431(7)
O7 O -0.1793(4) 0.1283(2) 0.3189(5)
S1 S -0.12252(13) 0.10098(8) 0.1858(2)
H2 H 0.255(5) 0.127(3) 1.013(8)
H3 H 0.093(6) 0.068(3) 0.833(9)
H4 H -0.087(5) 0.213(2) 0.590(7)
H5 H 0.086(9) 0.287(4) 0.787(13)
H6 H 0.567(6) 0.418(2) 1.336(8)
H7 H 0.584(7) 0.529(3) 1.344(10)
H8 H 0.218(5) 0.442(3) 1.005(8)
H9 H -0.244(7) 0.151(3) 0.794(2)
H10 H -0.133(6) 0.026(3) 0.893(4)
H11 H -0.301(7) 0.1828(14) 0.621(8)
H12 H -0.066(5) -0.014(3) 0.805(8)
Cu1A Cu 0.16144(5) 0.57967(3) 0.93932(7)
N4A N -0.3076(4) 0.0222(2) 0.4177(6)
O8 O 0.6652(8) 0.2597(4) 0.5544(13)
loop_
_geom_bond_atom_site_label_1
_geom_bond_atom_site_label_2
_geom_bond_site_symmetry_1
_geom_bond_site_symmetry_2
Cu1 N3 1_555 1_555
C1 C2 1_555 1_555
C2 C3 1_555 1_555
C3 C4 1_555 1_555
C4 N3 1_555 1_555
C5 C6 1_555 1_555
C6 C2 1_555 1_555
C7 C8 1_555 1_555
C8 C9 1_555 1_555
C9 C10 1_555 1_555
C10 C12 1_555 1_555
C11 C8 1_555 1_555
C12 H1 1_555 1_555
N1 C7 1_555 1_555
N2 C1 1_555 1_555
N3 C5 1_555 1_555
N4 C11 1_555 1_555
O1 C1 1_555 1_555
O2 Cu1 1_555 1_555
O3 Cu1 1_555 1_555
O4 S1 1_555 1_555
O5 S1 1_555 1_555
O6 S1 1_555 1_555
O7 Cu1 1_555 1_555
S1 O7 1_555 1_555
H2 C3 1_555 1_555
H3 C4 1_555 1_555
H4 C5 1_555 1_555
H5 C6 1_555 1_555
H6 C9 1_555 1_555
H7 C10 1_555 1_555
H8 C11 1_555 1_555
H9 O3 1_555 1_555
H10 O2 1_555 1_555
H11 O3 1_555 1_555
H12 O2 1_555 1_555
Cu1A N4 1_555 1_555
N4A Cu1 1_555 1_555
C7 O1 1_555 1_555
C12 N4 1_555 1_555
N1 N2 1_555 1_555

#END
