
#######################################################################
#
#                 Cambridge Crystallographic Data Centre
#                                CCDC 
#
#######################################################################
#
# If this CIF has been generated from an entry in the Cambridge 
# Structural Database, then it will include bibliographic, chemical, 
# crystal, experimental, refinement or atomic coordinate data resulting 
# from the CCDC's data processing and validation procedures.
#
#######################################################################

data_QAQQIJ
_symmetry_cell_setting           monoclinic
_symmetry_space_group_name_H-M   'P 21/n'
_symmetry_Int_Tables_number      14
_space_group_name_Hall           '-P 2yn'
loop_
_symmetry_equiv_pos_site_id
_symmetry_equiv_pos_as_xyz
1 x,y,z
2 1/2-x,1/2+y,1/2-z
3 -x,-y,-z
4 1/2+x,1/2-y,1/2+z
_cell_length_a                   10.595(2)
_cell_length_b                   5.0753(10)
_cell_length_c                   14.767(3)
_cell_angle_alpha                90
_cell_angle_beta                 106.02(3)
_cell_angle_gamma                90
_cell_volume                     763.226
loop_
_atom_site_label
_atom_site_type_symbol
_atom_site_fract_x
_atom_site_fract_y
_atom_site_fract_z
Co1 Co 0.5000 0.5000 0.0000
Cl1 Cl 0.67201(7) 0.69668(15) -0.06186(5)
O1 O 0.6277(2) 0.1943(5) 0.05987(16)
H1 H 0.658(4) 0.132(10) 0.021(3)
H2 H 0.608(4) 0.081(8) 0.088(3)
O2 O 0.5676(2) 0.7237(4) 0.12331(12)
N1 N 0.5441(2) 0.6457(5) 0.20385(15)
C1 C 0.6174(3) 0.4531(6) 0.2543(2)
H3 H 0.6833 0.3754 0.2329
C2 C 0.5963(3) 0.3693(6) 0.33719(19)
H4 H 0.6486 0.2372 0.3721
C3 C 0.4969(3) 0.4816(6) 0.36901(19)
C4 C 0.4225(3) 0.6797(7) 0.3146(2)
H5 H 0.3554 0.7592 0.3342
C5 C 0.4469(3) 0.7593(6) 0.2324(2)
H6 H 0.3963 0.8917 0.1964
C6 C 0.4749(3) 0.3976(7) 0.46193(19)
H7 H 0.5196 0.2318 0.4816
H8 H 0.3817 0.3699 0.4536
Co1_2 Co 0.5000 0.5000 1.0000
Cl1B Cl 0.32799(7) 0.30332(15) 0.06186(5)
O1B O 0.3723(2) 0.8057(5) -0.05987(16)
H1B H 0.342(4) 0.868(10) -0.021(3)
H2B H 0.392(4) 0.919(8) -0.088(3)
O2B O 0.4324(2) 0.2763(4) 0.87669(12)
O2B_2 O 0.4324(2) 0.2763(4) -0.12331(12)
N1B N 0.4559(2) 0.3543(5) 0.79615(15)
C1B C 0.3826(3) 0.5469(6) 0.7457(2)
H3B H 0.3167 0.6246 0.7671
C2B C 0.4037(3) 0.6307(6) 0.66281(19)
H4B H 0.3514 0.7628 0.6279
C3B C 0.5031(3) 0.5184(6) 0.63099(19)
C4B C 0.5775(3) 0.3203(7) 0.6854(2)
H5B H 0.6446 0.2408 0.6658
C5B C 0.5531(3) 0.2407(6) 0.7676(2)
H6B H 0.6037 0.1083 0.8036
C6B C 0.5251(3) 0.6024(7) 0.53807(19)
H7B H 0.4804 0.7682 0.5184
H8B H 0.6183 0.6301 0.5464
loop_
_geom_bond_atom_site_label_1
_geom_bond_atom_site_label_2
_geom_bond_site_symmetry_1
_geom_bond_site_symmetry_2
Co1 Cl1 1_555 1_555
O1 Co1 1_555 1_555
H1 O1 1_555 1_555
H2 O1 1_555 1_555
O2 Co1 1_555 1_555
N1 O2 1_555 1_555
C1 N1 1_555 1_555
H3 C1 1_555 1_555
C2 C1 1_555 1_555
H4 C2 1_555 1_555
C3 C2 1_555 1_555
C4 C3 1_555 1_555
H5 C4 1_555 1_555
C5 N1 1_555 1_555
H6 C5 1_555 1_555
C6 C3 1_555 1_555
H7 C6 1_555 1_555
H8 C6 1_555 1_555
Co1_2 O2B 1_555 1_555
Cl1B Co1 1_555 1_555
O1B Co1 1_555 1_555
H1B O1B 1_555 1_555
H2B O1B 1_555 1_555
O2B N1B 1_555 1_555
O2B_2 Co1 1_555 1_555
N1B C1B 1_555 1_555
C1B H3B 1_555 1_555
C2B C1B 1_555 1_555
H4B C2B 1_555 1_555
C3B C2B 1_555 1_555
C4B C3B 1_555 1_555
H5B C4B 1_555 1_555
C5B N1B 1_555 1_555
H6B C5B 1_555 1_555
C6B C6 1_555 1_555
H7B C6B 1_555 1_555
H8B C6B 1_555 1_555
C4 C5 1_555 1_555
C3B C6B 1_555 1_555
C4B C5B 1_555 1_555

#END
