
#######################################################################
#
#                 Cambridge Crystallographic Data Centre
#                                CCDC 
#
#######################################################################
#
# If this CIF has been generated from an entry in the Cambridge 
# Structural Database, then it will include bibliographic, chemical, 
# crystal, experimental, refinement or atomic coordinate data resulting 
# from the CCDC's data processing and validation procedures.
#
#######################################################################

data_QAQTEJ
_symmetry_cell_setting           monoclinic
_symmetry_space_group_name_H-M   'P 2/c'
_symmetry_Int_Tables_number      13
_space_group_name_Hall           '-P 2yc'
loop_
_symmetry_equiv_pos_site_id
_symmetry_equiv_pos_as_xyz
1 x,y,z
2 -x,y,1/2-z
3 -x,-y,-z
4 x,-y,1/2+z
_cell_length_a                   11.499(5)
_cell_length_b                   11.505(4)
_cell_length_c                   17.854(5)
_cell_angle_alpha                90
_cell_angle_beta                 117.939(19)
_cell_angle_gamma                90
_cell_volume                     2086.71
loop_
_atom_site_label
_atom_site_type_symbol
_atom_site_fract_x
_atom_site_fract_y
_atom_site_fract_z
Se1 Se 0.67610(13) -0.31607(12) 0.06643(7)
Fe1 Fe 0.5000 -0.31338(16) -0.2500
N1 N 0.3080(6) -0.3137(6) -0.2480(5)
N2 N 0.5000 -0.1237(8) -0.2500
N3 N 0.5000 0.4911(8) -0.2500
N4 N 0.5976(7) -0.3072(6) -0.1148(5)
C1 C 0.2028(9) -0.2704(9) -0.3126(6)
H1 H 0.2121 -0.2375 -0.3583
C2 C 0.0775(9) -0.2704(9) -0.3171(6)
H2 H 0.0029 -0.2419 -0.3659
C3 C 0.0660(9) -0.3122(9) -0.2498(6)
C4 C 0.1750(10) -0.3568(9) -0.1813(7)
H3 H 0.1698 -0.3870 -0.1334
C5 C 0.2937(9) -0.3559(8) -0.1851(6)
H4 H 0.3690 -0.3883 -0.1387
C6 C 0.4597(9) -0.0616(8) -0.2040(6)
H5 H 0.4294 -0.1024 -0.1702
C7 C 0.4587(9) 0.0582(8) -0.2018(6)
H6 H 0.4292 0.0971 -0.1669
C8 C 0.5000 0.1208(11) -0.2500
C9 C 0.5400(11) 0.4328(8) -0.1790(7)
H7 H 0.5717 0.4749 -0.1274
C10 C 0.5382(10) 0.3122(8) -0.1762(6)
H8 H 0.5629 0.2731 -0.1240
C11 C 0.5000 0.2499(11) -0.2500
C12 C 0.6295(8) -0.3082(8) -0.0436(7)
Se1A Se 0.32390(13) -0.31607(12) -0.56643(7)
Fe1_2 Fe -0.5000 -0.31338(16) -0.2500
Fe1_3 Fe 0.5000 0.68662(16) -0.2500
N1A N -0.3080(6) -0.3137(6) -0.2520(5)
N1A_2 N 0.6920(6) -0.3137(6) -0.2520(5)
N3_2 N 0.5000 -0.5089(8) -0.2500
N4A N 0.4024(7) -0.3072(6) -0.3852(5)
C1A C -0.2028(9) -0.2704(9) -0.1874(6)
H1A H -0.2121 -0.2375 -0.1417
C2A C -0.0775(9) -0.2704(9) -0.1829(6)
H2A H -0.0029 -0.2419 -0.1341
C3A C -0.0660(9) -0.3122(9) -0.2502(6)
C4A C -0.1750(10) -0.3568(9) -0.3187(7)
H3A H -0.1698 -0.3870 -0.3666
C5A C -0.2937(9) -0.3559(8) -0.3149(6)
H4A H -0.3690 -0.3883 -0.3613
C6A C 0.5403(9) -0.0616(8) -0.2960(6)
H5A H 0.5706 -0.1024 -0.3298
C7A C 0.5413(9) 0.0582(8) -0.2982(6)
H6A H 0.5708 0.0971 -0.3331
C9A C 0.4600(11) 0.4328(8) -0.3210(7)
H7A H 0.4283 0.4749 -0.3726
C10A C 0.4618(10) 0.3122(8) -0.3238(6)
H8A H 0.4371 0.2731 -0.3760
C12A C 0.3705(8) -0.3082(8) -0.4564(7)
Cl1 Cl -0.0335(15) -0.6895(15) -0.0349(5)
Cl2 Cl -0.1143(15) -0.5934(9) -0.1961(9)
Cl3 Cl -0.1381(8) -0.8269(8) -0.1769(7)
C13 C -0.0407(15) -0.6972(14) -0.1248(10)
H9 H 0.0493 -0.7082 -0.1192
Cl4 Cl 0.3766(4) -0.1175(3) -0.0236(2)
Cl5 Cl 0.1884(5) 0.0010(5) 0.0123(3)
Cl6 Cl 0.1559(4) -0.0094(4) -0.1593(2)
C14 C 0.2649(13) -0.0008(12) -0.0515(8)
H10 H 0.3160 0.0730 -0.0413
Cl7? Cl -0.135(3) -0.675(4) -0.2187(10)
Cl8? Cl -0.088(2) -0.7843(13) -0.0737(12)
Cl9? Cl -0.026(4) -0.5467(16) -0.070(2)
loop_
_geom_bond_atom_site_label_1
_geom_bond_atom_site_label_2
_geom_bond_site_symmetry_1
_geom_bond_site_symmetry_2
Se1 C12 1_555 1_555
Fe1 N1 1_555 1_555
N1 C1 1_555 1_555
N2 Fe1 1_555 1_555
N3 C9 1_555 1_555
N4 Fe1 1_555 1_555
C1 H1 1_555 1_555
C2 C1 1_555 1_555
H2 C2 1_555 1_555
C3 C2 1_555 1_555
C4 C3 1_555 1_555
H3 C4 1_555 1_555
C5 N1 1_555 1_555
H4 C5 1_555 1_555
C6 N2 1_555 1_555
H5 C6 1_555 1_555
C7 C6 1_555 1_555
H6 C7 1_555 1_555
C8 C7 1_555 1_555
C9 H7 1_555 1_555
C10 C9 1_555 1_555
H8 C10 1_555 1_555
C11 C8 1_555 1_555
C12 N4 1_555 1_555
Cl1 C13 1_555 1_555
Cl2 C13 1_555 1_555
Cl3 C13 1_555 1_555
C13 H9 1_555 1_555
Cl4 C14 1_555 1_555
Cl5 C14 1_555 1_555
Cl6 C14 1_555 1_555
C14 H10 1_555 1_555
Se1A C12A 1_555 1_555
Fe1_2 N1A 1_555 1_555
Fe1_3 N3 1_555 1_555
N1A C1A 1_555 1_555
N1A_2 Fe1 1_555 1_555
N3_2 Fe1 1_555 1_555
N4A Fe1 1_555 1_555
C1A H1A 1_555 1_555
C2A C1A 1_555 1_555
H2A C2A 1_555 1_555
C3A C3 1_555 1_555
C4A C3A 1_555 1_555
H3A C4A 1_555 1_555
C5A N1A 1_555 1_555
H4A C5A 1_555 1_555
C6A N2 1_555 1_555
H5A C6A 1_555 1_555
C7A C8 1_555 1_555
H6A C7A 1_555 1_555
C9A N3 1_555 1_555
H7A C9A 1_555 1_555
C10A C11 1_555 1_555
H8A C10A 1_555 1_555
C12A N4A 1_555 1_555
C4 C5 1_555 1_555
C10 C11 1_555 1_555
C2A C3A 1_555 1_555
C4A C5A 1_555 1_555
C6A C7A 1_555 1_555
C9A C10A 1_555 1_555

#END
