
#######################################################################
#
#                 Cambridge Crystallographic Data Centre
#                                CCDC 
#
#######################################################################
#
# If this CIF has been generated from an entry in the Cambridge 
# Structural Database, then it will include bibliographic, chemical, 
# crystal, experimental, refinement or atomic coordinate data resulting 
# from the CCDC's data processing and validation procedures.
#
#######################################################################

data_QARBUI
_symmetry_cell_setting           monoclinic
_symmetry_space_group_name_H-M   'P 21'
_symmetry_Int_Tables_number      4
_space_group_name_Hall           'P 2yb'
loop_
_symmetry_equiv_pos_site_id
_symmetry_equiv_pos_as_xyz
1 x,y,z
2 -x,1/2+y,-z
_cell_length_a                   11.060(2)
_cell_length_b                   7.7694(16)
_cell_length_c                   12.055(2)
_cell_angle_alpha                90
_cell_angle_beta                 114.69(3)
_cell_angle_gamma                90
_cell_volume                     941.182
loop_
_atom_site_label
_atom_site_type_symbol
_atom_site_fract_x
_atom_site_fract_y
_atom_site_fract_z
Zn1 Zn 1.14354(5) 0.34824(8) 0.91043(5)
C1 C 0.9811(5) 0.5294(6) 1.0210(4)
C2 C 0.6682(4) 0.5960(7) 0.8922(5)
C3 C 0.8928(5) 0.5322(6) 0.8891(4)
C4 C 0.7551(5) 0.5629(6) 0.8303(4)
C5 C 0.7602(5) 0.5107(6) 0.6437(4)
C6 C 0.9002(5) 0.4868(6) 0.7006(4)
C7 C 0.9978(5) 0.4578(6) 0.6468(4)
C8 C 0.9849(6) 0.5242(7) 0.5352(5)
H1 H 0.9057 0.5758 0.4829
C9 C 1.0896(6) 0.5129(8) 0.5030(5)
H2 H 1.0828 0.5593 0.4296
C10 C 1.2043(6) 0.4328(8) 0.5800(5)
H3 H 1.2762 0.4234 0.5594
C11 C 1.2115(5) 0.3664(9) 0.6885(4)
H4 H 1.2893 0.3110 0.7402
C12 C 0.6775(5) 0.4962(8) 0.5097(5)
C13 C 0.5712(6) 0.6064(9) 0.4551(5)
H5 H 0.5510 0.6889 0.5007
C14 C 0.4948(7) 0.5911(11) 0.3297(6)
H6 H 0.4241 0.6652 0.2885
C15 C 0.5280(7) 0.4632(11) 0.2702(6)
H7 H 0.4787 0.4478 0.1867
C16 C 0.6324(6) 0.3585(13) 0.3320(5)
H8 H 0.6513 0.2710 0.2890
C17 C 1.2267(7) 0.7344(9) 0.9245(8)
H9 H 1.3028 0.8089 0.9499
H10 H 1.1746 0.7629 0.9686
H11 H 1.1737 0.7488 0.8386
N1 N 1.0893(4) 0.4309(5) 1.0596(4)
N2 N 1.1524(4) 0.4609(6) 1.1800(4)
N3 N 1.0850(4) 0.5757(6) 1.2118(4)
N4 N 0.9748(4) 0.6193(5) 1.1111(4)
N5 N 0.6978(4) 0.6966(6) 0.9921(4)
N6 N 0.5917(4) 0.6896(6) 1.0186(4)
N7 N 0.5036(4) 0.5858(6) 0.9373(4)
N8 N 0.5475(4) 0.5283(6) 0.8559(4)
N9 N 0.9590(4) 0.4942(5) 0.8229(4)
N10 N 0.6933(4) 0.5490(5) 0.7086(4)
N11 N 1.1110(4) 0.3782(6) 0.7225(3)
N12 N 0.7095(5) 0.3735(8) 0.4504(4)
O1 O 1.2681(4) 0.5671(5) 0.9478(4)
H12 H 1.358(7) 0.566(12) 0.966(8)
Zn1A Zn 0.85646(5) 0.84824(8) 1.08957(5)
N4A N 1.0252(4) 0.1193(5) 0.8889(4)
N5A N 1.3022(4) 0.1966(6) 1.0079(4)
loop_
_geom_bond_atom_site_label_1
_geom_bond_atom_site_label_2
_geom_bond_site_symmetry_1
_geom_bond_site_symmetry_2
Zn1 N1 1_555 1_555
C1 C3 1_555 1_555
C2 C4 1_555 1_555
C3 C4 1_555 1_555
C4 N10 1_555 1_555
C5 C6 1_555 1_555
C6 C7 1_555 1_555
C7 C8 1_555 1_555
C8 H1 1_555 1_555
C9 C8 1_555 1_555
H2 C9 1_555 1_555
C10 C9 1_555 1_555
H3 C10 1_555 1_555
C11 C10 1_555 1_555
H4 C11 1_555 1_555
C12 C5 1_555 1_555
C13 C12 1_555 1_555
H5 C13 1_555 1_555
C14 C13 1_555 1_555
H6 C14 1_555 1_555
C15 C14 1_555 1_555
H7 C15 1_555 1_555
C16 C15 1_555 1_555
H8 C16 1_555 1_555
C17 H9 1_555 1_555
H10 C17 1_555 1_555
H11 C17 1_555 1_555
N1 C1 1_555 1_555
N2 N1 1_555 1_555
N3 N2 1_555 1_555
N4 C1 1_555 1_555
N5 C2 1_555 1_555
N6 N5 1_555 1_555
N7 N6 1_555 1_555
N8 C2 1_555 1_555
N9 Zn1 1_555 1_555
N10 C5 1_555 1_555
N11 Zn1 1_555 1_555
N12 C12 1_555 1_555
O1 Zn1 1_555 1_555
H12 O1 1_555 1_555
Zn1A N4 1_555 1_555
N4A Zn1 1_555 1_555
N5A Zn1 1_555 1_555
C3 N9 1_555 1_555
C6 N9 1_555 1_555
C7 N11 1_555 1_555
C11 N11 1_555 1_555
C16 N12 1_555 1_555
C17 O1 1_555 1_555
N3 N4 1_555 1_555
N5 Zn1A 1_555 1_555
N7 N8 1_555 1_555

#END
