
#######################################################################
#
#                 Cambridge Crystallographic Data Centre
#                                CCDC 
#
#######################################################################
#
# If this CIF has been generated from an entry in the Cambridge 
# Structural Database, then it will include bibliographic, chemical, 
# crystal, experimental, refinement or atomic coordinate data resulting 
# from the CCDC's data processing and validation procedures.
#
#######################################################################

data_QARNOM
_symmetry_cell_setting           triclinic
_symmetry_space_group_name_H-M   'P -1'
_symmetry_Int_Tables_number      2
_space_group_name_Hall           '-P 1'
loop_
_symmetry_equiv_pos_site_id
_symmetry_equiv_pos_as_xyz
1 x,y,z
2 -x,-y,-z
_cell_length_a                   10.486(2)
_cell_length_b                   13.399(4)
_cell_length_c                   17.170(7)
_cell_angle_alpha                84.08(1)
_cell_angle_beta                 87.18(1)
_cell_angle_gamma                76.320(5)
_cell_volume                     2330.71
loop_
_atom_site_label
_atom_site_type_symbol
_atom_site_fract_x
_atom_site_fract_y
_atom_site_fract_z
Ag1 Ag 0.98923(5) 0.26731(5) -0.50179(3)
N1 N 1.1108(5) 0.2579(4) -0.6056(3)
N2 N 1.4937(4) 0.1397(3) -0.9076(2)
N3 N 1.9399(5) -0.2888(4) -0.8954(3)
N4 N 1.6310(4) 0.1508(3) -1.0567(2)
N5 N 1.8710(5) 0.2727(4) -1.3970(3)
N6 N 1.4956(4) 0.3688(3) -1.0925(2)
N7 N 1.0704(6) 0.8025(4) -1.1184(4)
N8 N 1.3573(4) 0.3577(3) -0.9436(2)
C1 C 1.0870(6) 0.2026(5) -0.6624(4)
C2 C 1.1616(6) 0.1926(5) -0.7312(3)
C3 C 1.2603(5) 0.2477(4) -0.7454(3)
C4 C 1.2844(6) 0.3034(5) -0.6866(4)
C5 C 1.2081(7) 0.3081(6) -0.6180(4)
C6 C 1.3329(5) 0.2479(4) -0.8225(3)
C7 C 1.4227(5) 0.1563(4) -0.8390(3)
C8 C 1.4602(5) 0.0653(4) -0.7868(3)
C9 C 1.5538(5) -0.0022(4) -0.8235(3)
C10 C 1.5766(5) 0.0435(4) -0.8996(3)
C11 C 1.6711(5) 0.0015(4) -0.9561(3)
C12 C 1.7622(5) -0.0991(4) -0.9346(3)
C13 C 1.7189(5) -0.1906(4) -0.9185(3)
C14 C 1.8106(6) -0.2819(5) -0.8996(4)
C15 C 1.9777(6) -0.2014(5) -0.9114(4)
C16 C 1.8960(5) -0.1057(4) -0.9307(3)
C17 C 1.6921(5) 0.0517(4) -1.0301(3)
C18 C 1.7845(5) 0.0048(4) -1.0893(3)
C19 C 1.7789(5) 0.0761(4) -1.1511(3)
C20 C 1.6843(5) 0.1687(4) -1.1300(3)
C21 C 1.6576(5) 0.2611(4) -1.1776(3)
C22 C 1.7298(5) 0.2653(4) -1.2546(3)
C23 C 1.7032(6) 0.2187(5) -1.3169(4)
C24 C 1.7742(7) 0.2236(6) -1.3868(3)
C25 C 1.8980(6) 0.3191(6) -1.3363(4)
C26 C 1.8311(6) 0.3163(5) -1.2638(4)
C27 C 1.5700(5) 0.3537(4) -1.1596(3)
C28 C 1.5353(5) 0.4462(4) -1.2113(3)
C29 C 1.4406(5) 0.5135(5) -1.1744(3)
C30 C 1.4147(5) 0.4656(4) -1.0991(3)
C31 C 1.3201(5) 0.5074(4) -1.0442(3)
C32 C 1.2337(5) 0.6108(4) -1.0671(3)
C33 C 1.0996(5) 0.6229(5) -1.0736(4)
C34 C 1.0225(6) 0.7188(5) -1.0983(4)
C35 C 1.1987(7) 0.7904(5) -1.1114(4)
C36 C 1.2839(6) 0.6978(4) -1.0870(4)
C37 C 1.2945(5) 0.4569(4) -0.9709(3)
C38 C 1.2010(5) 0.5038(4) -0.9128(3)
C39 C 1.2069(5) 0.4316(4) -0.8507(3)
C40 C 1.3035(5) 0.3398(4) -0.8714(3)
H1 H 1.0163 0.1692 -0.6548
H2 H 1.1462 0.1492 -0.7682
H3 H 1.3534 0.3386 -0.6931
H4 H 1.2250 0.3479 -0.5787
H5 H 1.4255 0.0542 -0.7353
H6 H 1.5971 -0.0691 -0.8020
H7 H 1.4866 0.1871 -0.9532
H8 H 1.6283 -0.1899 -0.9204
H9 H 1.7801 -0.3434 -0.8890
H10 H 2.0690 -0.2047 -0.9095
H11 H 1.9304 -0.0460 -0.9410
H12 H 1.8387 -0.0631 -1.0851
H13 H 1.8270 0.0676 -1.1993
H14 H 1.6351 0.1824 -1.3122
H15 H 1.7528 0.1906 -1.4291
H16 H 1.9657 0.3558 -1.3428
H17 H 1.8547 0.3487 -1.2217
H18 H 1.5720 0.4582 -1.2621
H19 H 1.3986 0.5811 -1.1952
H20 H 1.4993 0.3197 -1.0481
H21 H 1.0608 0.5657 -1.0611
H22 H 0.9306 0.7258 -1.1011
H23 H 1.2345 0.8491 -1.1239
H24 H 1.3752 0.6936 -1.0839
H25 H 1.1465 0.5716 -0.9172
H26 H 1.1576 0.4392 -0.8029
N1_2 N 0.1108(5) 0.2579(4) 0.3944(3)
N2_2 N 0.4937(4) 0.1397(3) 0.0924(2)
N3_2 N 0.9399(5) -0.2888(4) 0.1046(3)
N4_2 N 0.6310(4) 0.1508(3) -0.0567(2)
N5_2 N 0.8710(5) 0.2727(4) -0.3970(3)
N6_2 N 0.4956(4) 0.3688(3) -0.0925(2)
N7_2 N 0.0704(6) 0.8025(4) -0.1184(4)
N8_2 N 0.3573(4) 0.3577(3) 0.0564(2)
C1_2 C 0.0870(6) 0.2026(5) 0.3376(4)
C2_2 C 0.1616(6) 0.1926(5) 0.2688(3)
C3_2 C 0.2603(5) 0.2477(4) 0.2546(3)
C4_2 C 0.2844(6) 0.3034(5) 0.3134(4)
C5_2 C 0.2081(7) 0.3081(6) 0.3820(4)
C6_2 C 0.3329(5) 0.2479(4) 0.1775(3)
C7_2 C 0.4227(5) 0.1563(4) 0.1610(3)
C8_2 C 0.4602(5) 0.0653(4) 0.2132(3)
C9_2 C 0.5538(5) -0.0022(4) 0.1765(3)
C10_2 C 0.5766(5) 0.0435(4) 0.1004(3)
C11_2 C 0.6711(5) 0.0015(4) 0.0439(3)
C12_2 C 0.7622(5) -0.0991(4) 0.0654(3)
C13_2 C 0.7189(5) -0.1906(4) 0.0815(3)
C14_2 C 0.8106(6) -0.2819(5) 0.1004(4)
C15_2 C 0.9777(6) -0.2014(5) 0.0886(4)
C16_2 C 0.8960(5) -0.1057(4) 0.0693(3)
C17_2 C 0.6921(5) 0.0517(4) -0.0301(3)
C18_2 C 0.7845(5) 0.0048(4) -0.0893(3)
C19_2 C 0.7789(5) 0.0761(4) -0.1511(3)
C20_2 C 0.6843(5) 0.1687(4) -0.1300(3)
C21_2 C 0.6576(5) 0.2611(4) -0.1776(3)
C22_2 C 0.7298(5) 0.2653(4) -0.2546(3)
C23_2 C 0.7032(6) 0.2187(5) -0.3169(4)
C24_2 C 0.7742(7) 0.2236(6) -0.3868(3)
C25_2 C 0.8980(6) 0.3191(6) -0.3363(4)
C26_2 C 0.8311(6) 0.3163(5) -0.2638(4)
C27_2 C 0.5700(5) 0.3537(4) -0.1596(3)
C28_2 C 0.5353(5) 0.4462(4) -0.2113(3)
C29_2 C 0.4406(5) 0.5135(5) -0.1744(3)
C30_2 C 0.4147(5) 0.4656(4) -0.0991(3)
C31_2 C 0.3201(5) 0.5074(4) -0.0442(3)
C32_2 C 0.2337(5) 0.6108(4) -0.0671(3)
C33_2 C 0.0996(5) 0.6229(5) -0.0736(4)
C34_2 C 0.0225(6) 0.7188(5) -0.0983(4)
C35_2 C 0.1987(7) 0.7904(5) -0.1114(4)
C36_2 C 0.2839(6) 0.6978(4) -0.0870(4)
C37_2 C 0.2945(5) 0.4569(4) 0.0291(3)
C38_2 C 0.2010(5) 0.5038(4) 0.0872(3)
C39_2 C 0.2069(5) 0.4316(4) 0.1493(3)
C40_2 C 0.3035(5) 0.3398(4) 0.1286(3)
H1_2 H 0.0163 0.1692 0.3452
H2_2 H 0.1462 0.1492 0.2318
H3_2 H 0.3534 0.3386 0.3069
H4_2 H 0.2250 0.3479 0.4213
H5_2 H 0.4255 0.0542 0.2647
H6_2 H 0.5971 -0.0691 0.1980
H7_2 H 0.4866 0.1871 0.0468
H8_2 H 0.6283 -0.1899 0.0796
H9_2 H 0.7801 -0.3434 0.1110
H10_2 H 1.0690 -0.2047 0.0905
H11_2 H 0.9304 -0.0460 0.0590
H12_2 H 0.8387 -0.0631 -0.0851
H13_2 H 0.8270 0.0676 -0.1993
H14_2 H 0.6351 0.1824 -0.3122
H15_2 H 0.7528 0.1906 -0.4291
H16_2 H 0.9657 0.3558 -0.3428
H17_2 H 0.8547 0.3487 -0.2217
H18_2 H 0.5720 0.4582 -0.2621
H19_2 H 0.3986 0.5811 -0.1952
H20_2 H 0.4993 0.3197 -0.0481
H21_2 H 0.0608 0.5657 -0.0611
H22_2 H -0.0694 0.7258 -0.1011
H23_2 H 0.2345 0.8491 -0.1239
H24_2 H 0.3752 0.6936 -0.0839
H25_2 H 0.1465 0.5716 0.0828
H26_2 H 0.1576 0.4392 0.1971
Ag1_2 Ag -0.01077(5) 0.26731(5) 0.49821(3)
Ag1_3 Ag 1.98923(5) 0.26731(5) -1.50179(3)
N5_3 N -0.1290(5) 0.2727(4) 0.6030(3)
Cl1 Cl 0.1198(3) 0.4653(2) 0.5589(2)
Cl2 Cl 0.4144(3) 0.3891(3) 0.5661(3)
Cl3 Cl 0.2539(4) 0.2844(3) 0.6929(2)
Cl4 Cl 0.1165(3) 0.4985(2) 0.7361(2)
C41 C 0.244(2) 0.467(1) 0.621(1)
C42 C 0.275(2) 0.410(1) 0.6805(10)
H27 H 0.2472 0.5366 0.6273
H28 H 0.3560 0.4158 0.7003
Cl5 Cl 0.3372(3) 0.0121(2) 0.4263(1)
Cl6 Cl 0.6179(4) -0.1028(3) 0.4240(2)
C43 C 0.521(2) 0.0067(10) 0.4686(10)
H29 H 0.5520 0.0680 0.4582
C43A C 0.479(2) -0.0067(10) 0.5314(10)
Cl5A Cl 0.6628(3) -0.0121(2) 0.5737(1)
Cl6A Cl 0.3821(4) 0.1028(3) 0.5760(2)
H29A H 0.4480 -0.0680 0.5418
P1 P 1.6623(2) 0.2579(2) -0.6283(1)
F1 F 1.7271(9) 0.3094(6) -0.5663(5)
F2 F 1.7519(8) 0.1490(6) -0.5984(6)
F3 F 1.5559(7) 0.2420(5) -0.5660(4)
F4 F 1.5972(7) 0.2106(6) -0.6908(5)
F5 F 1.5743(5) 0.3701(4) -0.6547(3)
F6 F 1.7699(6) 0.2785(7) -0.6902(5)
O1 O 0.9783(8) 0.0265(7) 0.2628(7)
C44 C 0.8874(10) -0.0295(8) 0.2758(6)
H30 H 0.8696 -0.0388 0.3306
H31 H 0.8093 0.0057 0.2500
H32 H 0.9195 -0.0948 0.2564
O2 O 1.0000 0.0000 0.5000
O3? O 0.945(3) 0.074(2) 0.490(2)
loop_
_geom_bond_atom_site_label_1
_geom_bond_atom_site_label_2
_geom_bond_site_symmetry_1
_geom_bond_site_symmetry_2
Ag1 N1 1_555 1_555
Cl1 C41 1_555 1_555
Cl2 C41 1_555 1_555
Cl3 C42 1_555 1_555
Cl4 C42 1_555 1_555
Cl5 C43 1_555 1_555
Cl6 C43 1_555 1_555
P1 F1 1_555 1_555
F2 P1 1_555 1_555
F3 P1 1_555 1_555
F4 P1 1_555 1_555
F5 P1 1_555 1_555
F6 P1 1_555 1_555
O1 C44 1_555 1_555
N1 C1 1_555 1_555
N2 C7 1_555 1_555
N3 C14 1_555 1_555
N4 C17 1_555 1_555
N5 C24 1_555 1_555
N6 C27 1_555 1_555
N7 C34 1_555 1_555
N8 C37 1_555 1_555
C1 C2 1_555 1_555
C2 C3 1_555 1_555
C3 C4 1_555 1_555
C4 C5 1_555 1_555
C5 N1 1_555 1_555
C6 C3 1_555 1_555
C7 C6 1_555 1_555
C8 C7 1_555 1_555
C9 C8 1_555 1_555
C10 N2 1_555 1_555
C11 C10 1_555 1_555
C12 C11 1_555 1_555
C13 C12 1_555 1_555
C14 C13 1_555 1_555
C15 N3 1_555 1_555
C16 C12 1_555 1_555
C17 C11 1_555 1_555
C18 C17 1_555 1_555
C19 C18 1_555 1_555
C20 N4 1_555 1_555
C21 C20 1_555 1_555
C22 C21 1_555 1_555
C23 C22 1_555 1_555
C24 C23 1_555 1_555
C25 N5 1_555 1_555
C26 C22 1_555 1_555
C27 C21 1_555 1_555
C28 C27 1_555 1_555
C29 C28 1_555 1_555
C30 N6 1_555 1_555
C31 C30 1_555 1_555
C32 C31 1_555 1_555
C33 C32 1_555 1_555
C34 C33 1_555 1_555
C35 N7 1_555 1_555
C36 C32 1_555 1_555
C37 C31 1_555 1_555
C38 C37 1_555 1_555
C39 C38 1_555 1_555
C40 N8 1_555 1_555
C41 C42 1_555 1_555
C42 H28 1_555 1_555
C43 H29 1_555 1_555
C44 H30 1_555 1_555
H1 C1 1_555 1_555
H2 C2 1_555 1_555
H3 C4 1_555 1_555
H4 C5 1_555 1_555
H5 C8 1_555 1_555
H6 C9 1_555 1_555
H7 N2 1_555 1_555
H8 C13 1_555 1_555
H9 C14 1_555 1_555
H10 C15 1_555 1_555
H11 C16 1_555 1_555
H12 C18 1_555 1_555
H13 C19 1_555 1_555
H14 C23 1_555 1_555
H15 C24 1_555 1_555
H16 C25 1_555 1_555
H17 C26 1_555 1_555
H18 C28 1_555 1_555
H19 C29 1_555 1_555
H20 N6 1_555 1_555
H21 C33 1_555 1_555
H22 C34 1_555 1_555
H23 C35 1_555 1_555
H24 C36 1_555 1_555
H25 C38 1_555 1_555
H26 C39 1_555 1_555
H27 C41 1_555 1_555
H31 C44 1_555 1_555
H32 C44 1_555 1_555
C43A C43 1_555 1_555
Cl5A C43A 1_555 1_555
Cl6A C43A 1_555 1_555
H29A C43A 1_555 1_555
N1_2 C1_2 1_555 1_555
N2_2 C7_2 1_555 1_555
N3_2 C14_2 1_555 1_555
N4_2 C17_2 1_555 1_555
N5_2 Ag1 1_555 1_555
N6_2 C27_2 1_555 1_555
N7_2 C34_2 1_555 1_555
N8_2 C37_2 1_555 1_555
C1_2 C2_2 1_555 1_555
C2_2 C3_2 1_555 1_555
C3_2 C4_2 1_555 1_555
C4_2 C5_2 1_555 1_555
C5_2 N1_2 1_555 1_555
C6_2 C3_2 1_555 1_555
C7_2 C6_2 1_555 1_555
C8_2 C7_2 1_555 1_555
C9_2 C8_2 1_555 1_555
C10_2 N2_2 1_555 1_555
C11_2 C10_2 1_555 1_555
C12_2 C11_2 1_555 1_555
C13_2 C12_2 1_555 1_555
C14_2 C13_2 1_555 1_555
C15_2 N3_2 1_555 1_555
C16_2 C12_2 1_555 1_555
C17_2 C11_2 1_555 1_555
C18_2 C17_2 1_555 1_555
C19_2 C18_2 1_555 1_555
C20_2 N4_2 1_555 1_555
C21_2 C20_2 1_555 1_555
C22_2 C21_2 1_555 1_555
C23_2 C22_2 1_555 1_555
C24_2 N5_2 1_555 1_555
C25_2 N5_2 1_555 1_555
C26_2 C22_2 1_555 1_555
C27_2 C21_2 1_555 1_555
C28_2 C27_2 1_555 1_555
C29_2 C28_2 1_555 1_555
C30_2 N6_2 1_555 1_555
C31_2 C30_2 1_555 1_555
C32_2 C31_2 1_555 1_555
C33_2 C32_2 1_555 1_555
C34_2 C33_2 1_555 1_555
C35_2 N7_2 1_555 1_555
C36_2 C32_2 1_555 1_555
C37_2 C31_2 1_555 1_555
C38_2 C37_2 1_555 1_555
C39_2 C38_2 1_555 1_555
C40_2 N8_2 1_555 1_555
H1_2 C1_2 1_555 1_555
H2_2 C2_2 1_555 1_555
H3_2 C4_2 1_555 1_555
H4_2 C5_2 1_555 1_555
H5_2 C8_2 1_555 1_555
H6_2 C9_2 1_555 1_555
H7_2 N2_2 1_555 1_555
H8_2 C13_2 1_555 1_555
H9_2 C14_2 1_555 1_555
H10_2 C15_2 1_555 1_555
H11_2 C16_2 1_555 1_555
H12_2 C18_2 1_555 1_555
H13_2 C19_2 1_555 1_555
H14_2 C23_2 1_555 1_555
H15_2 C24_2 1_555 1_555
H16_2 C25_2 1_555 1_555
H17_2 C26_2 1_555 1_555
H18_2 C28_2 1_555 1_555
H19_2 C29_2 1_555 1_555
H20_2 N6_2 1_555 1_555
H21_2 C33_2 1_555 1_555
H22_2 C34_2 1_555 1_555
H23_2 C35_2 1_555 1_555
H24_2 C36_2 1_555 1_555
H25_2 C38_2 1_555 1_555
H26_2 C39_2 1_555 1_555
Ag1_2 N1_2 1_555 1_555
Ag1_3 N5 1_555 1_555
N5_3 Ag1_2 1_555 1_555
C6 C40 1_555 1_555
C9 C10 1_555 1_555
C15 C16 1_555 1_555
C19 C20 1_555 1_555
C25 C26 1_555 1_555
C29 C30 1_555 1_555
C35 C36 1_555 1_555
C39 C40 1_555 1_555
C6_2 C40_2 1_555 1_555
C9_2 C10_2 1_555 1_555
C15_2 C16_2 1_555 1_555
C19_2 C20_2 1_555 1_555
C23_2 C24_2 1_555 1_555
C25_2 C26_2 1_555 1_555
C29_2 C30_2 1_555 1_555
C35_2 C36_2 1_555 1_555
C39_2 C40_2 1_555 1_555

#END
