
#######################################################################
#
#                 Cambridge Crystallographic Data Centre
#                                CCDC 
#
#######################################################################
#
# If this CIF has been generated from an entry in the Cambridge 
# Structural Database, then it will include bibliographic, chemical, 
# crystal, experimental, refinement or atomic coordinate data resulting 
# from the CCDC's data processing and validation procedures.
#
#######################################################################

data_QARRAE
_symmetry_cell_setting           triclinic
_symmetry_space_group_name_H-M   'P -1'
_symmetry_Int_Tables_number      2
_space_group_name_Hall           '-P 1'
loop_
_symmetry_equiv_pos_site_id
_symmetry_equiv_pos_as_xyz
1 x,y,z
2 -x,-y,-z
_cell_length_a                   8.9023(7)
_cell_length_b                   13.2521(11)
_cell_length_c                   13.6036(11)
_cell_angle_alpha                94.8260(10)
_cell_angle_beta                 106.5070(10)
_cell_angle_gamma                106.2970(10)
_cell_volume                     1453.3
loop_
_atom_site_label
_atom_site_type_symbol
_atom_site_fract_x
_atom_site_fract_y
_atom_site_fract_z
C1 C 0.8360(7) 0.9165(5) 0.3212(4)
C2 C 0.6680(7) 0.9067(5) 0.2525(5)
C3 C 0.5187(7) 0.9053(5) 0.2660(4)
C4 C 0.4715(7) 0.9192(5) 0.3612(4)
C5 C 0.4741(8) 0.8779(5) 0.1007(5)
C6 C 0.3929(8) 0.8603(5) -0.0121(5)
C7 C 0.4784(9) 0.8693(6) -0.0834(5)
H1 H 0.5931 0.8880 -0.0605
C8 C 0.3929(9) 0.8503(6) -0.1878(5)
H2 H 0.4525 0.8551 -0.2343
C9 C 0.1473(10) 0.8173(7) -0.1582(6)
H3 H 0.0329 0.7995 -0.1839
C10 C 0.2213(9) 0.8337(6) -0.0516(5)
H4 H 0.1581 0.8271 -0.0071
N1 N 0.6370(6) 0.8904(4) 0.1472(4)
N2 N 0.3988(6) 0.8859(4) 0.1709(4)
N3 N 0.2298(8) 0.8254(5) -0.2263(4)
O1 O 0.5787(5) 0.9328(4) 0.4495(3)
O2 O 0.3246(5) 0.9149(4) 0.3479(3)
O3 O 0.8738(5) 0.9360(4) 0.4196(3)
O4 O 0.9386(5) 0.9052(4) 0.2792(3)
O5 O 0.8136(6) 0.9077(4) 0.6298(4)
H10 H 0.8241 0.9196 0.6920
H11 H 0.7316 0.8552 0.6023
O6 O 0.9534(6) 1.2485(4) 0.6246(4)
H12 H 0.9441 1.2863 0.6720
H13 H 0.9954 1.2878 0.5896
O7 O 0.9381(6) 1.1607(4) 0.4243(3)
H14 H 0.9906 1.1224 0.4110
H15 H 0.9004 1.1823 0.3710
O8 O 0.6423(6) 1.1519(4) 0.4461(3)
H16 H 0.5578 1.1196 0.4581
H17 H 0.6307 1.2068 0.4269
Tb1 Tb 0.83305(3) 1.06303(2) 0.54382(2)
O2A O 0.6754(5) 1.0851(4) 0.6521(3)
O3A O 1.1262(5) 1.0640(4) 0.5804(3)
O4A O 1.0614(5) 1.0948(4) 0.7208(3)
Tb1A Tb 0.16695(3) 0.93697(2) 0.45618(2)
Tb1A_2 Tb 1.16695(3) 0.93697(2) 0.45618(2)
C11 C 0.1773(10) 0.5462(6) -0.2082(6)
C12 C 0.3245(9) 0.5799(6) -0.1129(5)
C13 C 0.4913(9) 0.6252(5) -0.0940(5)
C14 C 0.5832(10) 0.6532(6) -0.1691(6)
C15 C 0.4537(9) 0.6155(5) 0.0531(5)
C16 C 0.4795(9) 0.6241(5) 0.1673(5)
C17 C 0.3484(10) 0.6100(6) 0.2040(6)
H5 H 0.2416 0.5927 0.1579
C18 C 0.3762(11) 0.6216(7) 0.3100(6)
H6 H 0.2863 0.6124 0.3341
C19 C 0.6361(9) 0.6508(6) 0.2391(5)
H7 H 0.7285 0.6629 0.2171
C20 C 0.6529(10) 0.6591(7) 0.3428(6)
H8 H 0.7585 0.6751 0.3903
N4 N 0.3053(7) 0.5742(5) -0.0174(4)
H9 H 0.2136 0.5485 -0.0052
N5 N 0.5713(7) 0.6464(5) 0.0113(4)
N6 N 0.5266(9) 0.6455(6) 0.3794(5)
O9 O 0.0387(7) 0.5219(6) -0.1998(5)
O10 O 0.2040(7) 0.5482(6) -0.2955(4)
H18 H 0.3015 0.5550 -0.2867
O11 O 0.5004(7) 0.6293(5) -0.2656(4)
O12 O 0.7349(7) 0.6991(5) -0.1361(4)
H19 H 0.7748 0.6811 -0.0809
O13 O 0.8700(7) 0.8679(5) 0.0464(5)
H20 H 0.7930 0.8538 0.0734
H21 H 0.8401 0.8217 -0.0085
O14 O 0.0546(9) 0.7554(5) 0.1475(4)
H22 H 0.1501 0.7939 0.1496
H23 H 0.0266 0.7869 0.1929
O15 O 0.0594(7) 0.4037(5) 0.0264(5)
H24 H -0.0296 0.3630 0.0314
H25 H 0.0453 0.4061 -0.0377
O16 O 0.1249(8) 0.4260(5) 0.4071(5)
H26 H 0.0737 0.3610 0.4060
H27 H 0.0620 0.4487 0.3611
O17 O 0.1770(8) 1.0337(6) 0.1660(5)
H28 H 0.2466 1.0041 0.1579
H29 H 0.0912 1.0099 0.1121
O18 O 0.3445(8) 0.3010(5) 0.4101(4)
H30 H 0.4042 0.3355 0.4705
H31 H 0.3733 0.3370 0.3660
O19 O 0.8312(8) 0.3721(5) 0.4914(5)
H32 H 0.8144 0.3258 0.5280
H33 H 0.7832 0.3428 0.4296
loop_
_geom_bond_atom_site_label_1
_geom_bond_atom_site_label_2
_geom_bond_site_symmetry_1
_geom_bond_site_symmetry_2
C1 C2 1_555 1_555
C2 C3 1_555 1_555
C3 C4 1_555 1_555
C4 O1 1_555 1_555
C5 C6 1_555 1_555
C6 C7 1_555 1_555
C7 H1 1_555 1_555
C8 C7 1_555 1_555
H2 C8 1_555 1_555
C9 H3 1_555 1_555
C10 C6 1_555 1_555
H4 C10 1_555 1_555
C11 C12 1_555 1_555
C12 C13 1_555 1_555
C13 C14 1_555 1_555
C14 O11 1_555 1_555
C15 C16 1_555 1_555
C16 C17 1_555 1_555
C17 H5 1_555 1_555
C18 C17 1_555 1_555
H6 C18 1_555 1_555
C19 C16 1_555 1_555
H7 C19 1_555 1_555
C20 C19 1_555 1_555
H8 C20 1_555 1_555
N1 C2 1_555 1_555
N2 C3 1_555 1_555
N3 C8 1_555 1_555
N4 C12 1_555 1_555
H9 N4 1_555 1_555
N5 C13 1_555 1_555
N6 C18 1_555 1_555
O1 Tb1 1_555 1_555
O2 C4 1_555 1_555
O3 C1 1_555 1_555
O4 C1 1_555 1_555
O5 H10 1_555 1_555
H11 O5 1_555 1_555
O6 H12 1_555 1_555
H13 O6 1_555 1_555
O7 H14 1_555 1_555
H15 O7 1_555 1_555
O8 H16 1_555 1_555
H17 O8 1_555 1_555
O9 C11 1_555 1_555
O10 C11 1_555 1_555
H18 O10 1_555 1_555
O12 C14 1_555 1_555
H19 O12 1_555 1_555
O13 H20 1_555 1_555
H21 O13 1_555 1_555
O14 H22 1_555 1_555
H23 O14 1_555 1_555
O15 H24 1_555 1_555
H25 O15 1_555 1_555
O16 H26 1_555 1_555
H27 O16 1_555 1_555
O17 H28 1_555 1_555
H29 O17 1_555 1_555
O18 H30 1_555 1_555
H31 O18 1_555 1_555
O19 H32 1_555 1_555
H33 O19 1_555 1_555
Tb1 O3 1_555 1_555
O2A Tb1 1_555 1_555
O3A Tb1 1_555 1_555
O4A Tb1 1_555 1_555
Tb1A O2 1_555 1_555
Tb1A_2 O3 1_555 1_555
C5 N1 1_555 1_555
C5 N2 1_555 1_555
C9 C10 1_555 1_555
C9 N3 1_555 1_555
C15 N4 1_555 1_555
C15 N5 1_555 1_555
C20 N6 1_555 1_555
O4 Tb1A_2 1_555 1_555
O5 Tb1 1_555 1_555
O6 Tb1 1_555 1_555
O7 Tb1 1_555 1_555
O8 Tb1 1_555 1_555
O3A Tb1A_2 1_555 1_555

#END
