
#######################################################################
#
#                 Cambridge Crystallographic Data Centre
#                                CCDC 
#
#######################################################################
#
# If this CIF has been generated from an entry in the Cambridge 
# Structural Database, then it will include bibliographic, chemical, 
# crystal, experimental, refinement or atomic coordinate data resulting 
# from the CCDC's data processing and validation procedures.
#
#######################################################################

data_QARRIM
_symmetry_cell_setting           triclinic
_symmetry_space_group_name_H-M   'P -1'
_symmetry_Int_Tables_number      2
_space_group_name_Hall           '-P 1'
loop_
_symmetry_equiv_pos_site_id
_symmetry_equiv_pos_as_xyz
1 x,y,z
2 -x,-y,-z
_cell_length_a                   7.2373(7)
_cell_length_b                   8.7920(8)
_cell_length_c                   13.2438(13)
_cell_angle_alpha                77.3080(10)
_cell_angle_beta                 84.5060(10)
_cell_angle_gamma                80.4150(10)
_cell_volume                     809.105
loop_
_atom_site_label
_atom_site_type_symbol
_atom_site_fract_x
_atom_site_fract_y
_atom_site_fract_z
C1 C 0.5238(6) 0.4420(5) 0.1837(3)
C2 C 0.4291(6) 0.5130(5) 0.2709(3)
C3 C 0.3668(6) 0.6668(5) 0.2830(3)
C4 C 0.3670(7) 0.8248(5) 0.2103(3)
C5 C 0.3098(6) 0.5069(5) 0.4280(3)
C6 C 0.2408(7) 0.4488(6) 0.5345(3)
C7 C 0.2595(8) 0.2869(6) 0.5767(4)
H1 H 0.3158 0.2148 0.5369
C8 C 0.1947(8) 0.2353(7) 0.6767(4)
H2 H 0.2091 0.1278 0.7053
C9 C 0.0878(8) 0.4941(7) 0.6950(4)
H3 H 0.0266 0.5635 0.7356
C10 C 0.1541(7) 0.5513(6) 0.5964(4)
H4 H 0.1410 0.6596 0.5706
C11 C 0.9701(6) 0.5460(5) -0.0549(3)
C12 C 1.0497(6) 0.0466(5) -0.0489(3)
Gd1 Gd 0.68534(3) 0.29227(2) 0.014706(15)
N1 N 0.3932(5) 0.4147(4) 0.3634(3)
N2 N 0.2933(5) 0.6599(4) 0.3817(3)
H5 H 0.2452 0.7385 0.4093
N3 N 0.1104(6) 0.3384(5) 0.7339(3)
O1 O 0.5865(5) 0.2977(4) 0.2031(2)
O2 O 0.5412(4) 0.5247(4) 0.0931(2)
O3 O 0.3832(5) 0.8295(4) 0.1149(2)
O4 O 0.3503(8) 0.9430(4) 0.2496(3)
H6 H 0.3638 1.0209 0.2040
O5 O 0.8388(4) 0.5010(4) -0.0903(2)
O6 O 1.0589(4) 0.6539(4) -0.0993(2)
O7 O 0.9821(5) 0.1888(4) -0.0767(2)
O8 O 1.1863(4) -0.0260(4) -0.0921(2)
O9 O 0.4011(5) 0.1734(4) 0.0690(3)
C1A C 0.4762(6) 0.5580(5) -0.1837(3)
C2A C 0.5709(6) 0.4870(5) -0.2709(3)
C3A C 0.6332(6) 0.3332(5) -0.2830(3)
C4A C 0.6330(7) 0.1752(5) -0.2103(3)
C5A C 0.6902(6) 0.4931(5) -0.4280(3)
C6A C 0.7592(7) 0.5512(6) -0.5345(3)
C7A C 0.7405(8) 0.7131(6) -0.5767(4)
H1A H 0.6842 0.7852 -0.5369
C8A C 0.8053(8) 0.7647(7) -0.6767(4)
H2A H 0.7909 0.8722 -0.7053
C9A C 0.9122(8) 0.5059(7) -0.6950(4)
H3A H 0.9734 0.4365 -0.7356
C10A C 0.8459(7) 0.4487(6) -0.5964(4)
H4A H 0.8590 0.3404 -0.5706
C11A C 1.0299(6) 0.4540(5) 0.0549(3)
C12A C 0.9503(6) -0.0466(5) 0.0489(3)
Gd1A Gd 0.31466(3) 0.70773(2) -0.014706(15)
Gd1A_2 Gd 1.31466(3) 0.70773(2) -0.014706(15)
Gd1A_3 Gd 1.31466(3) -0.29227(2) -0.014706(15)
N1A N 0.6068(5) 0.5853(4) -0.3634(3)
N2A N 0.7067(5) 0.3401(4) -0.3817(3)
H5A H 0.7548 0.2615 -0.4093
N3A N 0.8896(6) 0.6616(5) -0.7339(3)
O1A O 0.4135(5) 0.7023(4) -0.2031(2)
O2A O 0.4588(4) 0.4753(4) -0.0931(2)
O3A O 0.6168(5) 0.1705(4) -0.1149(2)
O4A O 0.6497(8) 0.0570(4) -0.2496(3)
H6A H 0.6362 -0.0209 -0.2040
O5A O 1.1612(4) 0.4990(4) 0.0903(2)
O5A_2 O 0.1612(4) 0.4990(4) 0.0903(2)
O6A O 0.9411(4) 0.3461(4) 0.0993(2)
O6_2 O 0.0589(4) 0.6539(4) -0.0993(2)
O7A O 1.0179(5) -0.1888(4) 0.0767(2)
O7A_2 O 0.0179(5) 0.8112(4) 0.0767(2)
O8A O 0.8137(4) 0.0260(4) 0.0921(2)
O8_2 O 0.1863(4) 0.9740(4) -0.0921(2)
O9A O 0.5989(5) 0.8266(4) -0.0690(3)
O10 O 0.4901(9) 0.0758(6) 0.3996(3)
H7 H 0.4636 0.1715 0.3688
H8 H 0.4968 0.0190 0.3547
O11 O 0.1288(12) 0.9338(7) 0.4660(5)
H9 H 0.0599 0.8576 0.4839
H10 H 0.1220 0.9639 0.4006
O12 O 0.0613(10) 0.8848(7) 0.6831(4)
H11 H -0.0336 0.9053 0.7235
H12 H 0.1459 0.8253 0.7197
loop_
_geom_bond_atom_site_label_1
_geom_bond_atom_site_label_2
_geom_bond_site_symmetry_1
_geom_bond_site_symmetry_2
C1 C2 1_555 1_555
C2 C3 1_555 1_555
C3 C4 1_555 1_555
C4 O3 1_555 1_555
C5 C6 1_555 1_555
C6 C7 1_555 1_555
C7 H1 1_555 1_555
C8 C7 1_555 1_555
H2 C8 1_555 1_555
C9 H3 1_555 1_555
C10 C6 1_555 1_555
H4 C10 1_555 1_555
C11 O5 1_555 1_555
C12 O7 1_555 1_555
Gd1 O1 1_555 1_555
N1 C2 1_555 1_555
N2 C3 1_555 1_555
H5 N2 1_555 1_555
N3 C8 1_555 1_555
O1 C1 1_555 1_555
O2 C1 1_555 1_555
O3 Gd1A 1_555 1_555
O4 C4 1_555 1_555
H6 O4 1_555 1_555
O5 Gd1 1_555 1_555
O6 C11 1_555 1_555
O7 Gd1 1_555 1_555
O8 C12 1_555 1_555
O9 Gd1 1_555 1_555
O10 H7 1_555 1_555
H8 O10 1_555 1_555
O11 H9 1_555 1_555
H10 O11 1_555 1_555
O12 H11 1_555 1_555
H12 O12 1_555 1_555
C1A C2A 1_555 1_555
C2A C3A 1_555 1_555
C3A C4A 1_555 1_555
C4A O3A 1_555 1_555
C5A C6A 1_555 1_555
C6A C7A 1_555 1_555
C7A H1A 1_555 1_555
C8A C7A 1_555 1_555
H2A C8A 1_555 1_555
C9A H3A 1_555 1_555
C10A C6A 1_555 1_555
H4A C10A 1_555 1_555
C11A C11 1_555 1_555
C12A C12 1_555 1_555
Gd1A O2 1_555 1_555
Gd1A_2 O6 1_555 1_555
Gd1A_3 O8 1_555 1_555
N1A C2A 1_555 1_555
N2A C3A 1_555 1_555
H5A N2A 1_555 1_555
N3A C8A 1_555 1_555
O1A C1A 1_555 1_555
O2A Gd1 1_555 1_555
O3A Gd1 1_555 1_555
O4A C4A 1_555 1_555
H6A O4A 1_555 1_555
O5A C11A 1_555 1_555
O5A_2 Gd1A 1_555 1_555
O6A Gd1 1_555 1_555
O6_2 Gd1A 1_555 1_555
O7A C12A 1_555 1_555
O7A_2 Gd1A 1_555 1_555
O8A Gd1 1_555 1_555
O8_2 Gd1A 1_555 1_555
O9A Gd1A 1_555 1_555
C5 N1 1_555 1_555
C5 N2 1_555 1_555
C9 C10 1_555 1_555
C9 N3 1_555 1_555
Gd1 O2 1_555 1_555
C1A O2A 1_555 1_555
C5A N1A 1_555 1_555
C5A N2A 1_555 1_555
C9A C10A 1_555 1_555
C9A N3A 1_555 1_555
C11A O6A 1_555 1_555
C12A O8A 1_555 1_555
Gd1A O1A 1_555 1_555
Gd1A O2A 1_555 1_555
Gd1A_2 O5A 1_555 1_555
Gd1A_3 O7A 1_555 1_555

#END
