
#######################################################################
#
#                 Cambridge Crystallographic Data Centre
#                                CCDC 
#
#######################################################################
#
# If this CIF has been generated from an entry in the Cambridge 
# Structural Database, then it will include bibliographic, chemical, 
# crystal, experimental, refinement or atomic coordinate data resulting 
# from the CCDC's data processing and validation procedures.
#
#######################################################################

data_QARSIN
_symmetry_cell_setting           monoclinic
_symmetry_space_group_name_H-M   'P 21/c'
_symmetry_Int_Tables_number      14
_space_group_name_Hall           '-P 2ybc'
loop_
_symmetry_equiv_pos_site_id
_symmetry_equiv_pos_as_xyz
1 x,y,z
2 -x,1/2+y,1/2-z
3 -x,-y,-z
4 x,1/2-y,1/2+z
_cell_length_a                   8.3161(10)
_cell_length_b                   14.6487(18)
_cell_length_c                   11.4869(14)
_cell_angle_alpha                90
_cell_angle_beta                 90.761(2)
_cell_angle_gamma                90
_cell_volume                     1399.21
loop_
_atom_site_label
_atom_site_type_symbol
_atom_site_fract_x
_atom_site_fract_y
_atom_site_fract_z
C1 C 0.4658(12) 0.4361(7) 0.3549(8)
C2 C 0.4952(11) 0.3752(6) 0.2536(8)
C3 C 0.5753(11) 0.2944(6) 0.2379(7)
C4 C 0.6858(10) 0.2386(6) 0.3143(7)
C5 C 0.4403(11) 0.3207(6) 0.0804(7)
C6 C 0.3531(11) 0.3100(7) -0.0330(8)
C7 C 0.3582(14) 0.3784(7) -0.1169(8)
H1 H 0.4216 0.4301 -0.1061
C8 C 0.2658(15) 0.3671(8) -0.2168(9)
H2 H 0.2689 0.4126 -0.2731
C9 C 0.1672(14) 0.2305(9) -0.1558(10)
H3 H 0.1007 0.1803 -0.1681
C10 C 0.2571(13) 0.2355(8) -0.0529(8)
H4 H 0.2521 0.1888 0.0018
C11 C 1.0238(13) -0.0012(7) 0.0593(10)
Dy1 Dy 0.72328(5) 0.13153(3) 0.06665(3)
N1 N 0.5402(9) 0.2598(5) 0.1285(6)
N2 N 0.4145(10) 0.3899(5) 0.1511(6)
H5 H 0.3560 0.4368 0.1351
N3 N 0.1730(11) 0.2949(7) -0.2369(8)
O1 O 0.3890(10) 0.5080(5) 0.3326(6)
O2 O 0.5095(9) 0.4094(5) 0.4547(6)
O3 O 0.7216(8) 0.2636(4) 0.4144(5)
O4 O 0.7325(8) 0.1658(4) 0.2684(5)
O5 O 0.9468(10) 0.0408(6) 0.1343(7)
O6 O 1.1461(10) -0.0515(5) 0.0877(6)
O7 O 0.9394(9) 0.2334(5) 0.0957(6)
H6 H 0.9617(10) 0.2781(5) 0.0790(7)
H7 H 1.0182 0.2047 0.1373
C1B C 1.5342(12) -0.4361(7) -0.3549(8)
C2B C 1.5048(11) -0.3752(6) -0.2536(8)
C3B C 1.4247(11) -0.2944(6) -0.2379(7)
C4B C 1.3142(10) -0.2386(6) -0.3143(7)
C5B C 1.5597(11) -0.3207(6) -0.0804(7)
C6B C 1.6469(11) -0.3100(7) 0.0330(8)
C7B C 1.6418(14) -0.3784(7) 0.1169(8)
H1B H 1.5784 -0.4301 0.1061
C8B C 1.7342(15) -0.3671(8) 0.2168(9)
H2B H 1.7311 -0.4126 0.2731
C9B C 1.8328(14) -0.2305(9) 0.1558(10)
H3B H 1.8993 -0.1803 0.1681
C10B C 1.7429(13) -0.2355(8) 0.0529(8)
H4B H 1.7479 -0.1888 -0.0018
C11B C 0.9762(13) 0.0012(7) -0.0593(10)
Dy1B Dy 1.27672(5) -0.13153(3) -0.06665(3)
Dy1A Dy 0.27672(5) 0.63153(3) 0.43335(3)
Dy1A_2 Dy 1.27672(5) -0.36847(3) -0.56665(3)
Dy1C Dy 0.72328(5) 0.36847(3) 0.56665(3)
Dy1C_2 Dy 1.72328(5) -0.63153(3) -0.43335(3)
N1B N 1.4598(9) -0.2598(5) -0.1285(6)
N2B N 1.5855(10) -0.3899(5) -0.1511(6)
H5B H 1.6440 -0.4368 -0.1351
N3B N 1.8270(11) -0.2949(7) 0.2369(8)
O1B O 1.6110(10) -0.5080(5) -0.3326(6)
O1A O 0.6110(10) 0.0080(5) 0.1674(6)
O1C O 1.3890(10) -0.0080(5) -0.1674(6)
O2B O 1.4905(9) -0.4094(5) -0.4547(6)
O2A O 1.4905(9) -0.0906(5) 0.0453(6)
O2C O 0.5095(9) 0.0906(5) -0.0453(6)
O3B O 1.2784(8) -0.2636(4) -0.4144(5)
O3A O 1.2784(8) -0.2364(4) 0.0856(5)
O3C O 0.7216(8) 0.2364(4) -0.0856(5)
O4B O 1.2675(8) -0.1658(4) -0.2684(5)
O5B O 1.0532(10) -0.0408(6) -0.1343(7)
O6B O 0.8539(10) 0.0515(5) -0.0877(6)
O7B O 1.0606(9) -0.2334(5) -0.0957(6)
H6B H 1.0383(10) -0.2781(5) -0.0790(7)
H7B H 0.9818 -0.2047 -0.1373
O8 O 0.8186(10) 0.0161(5) 0.4078(7)
H8 H 0.9014 -0.0104 0.3846
H9 H 0.8424 0.0445 0.4687
O9 O 0.9070(12) 0.4372(6) 0.1515(9)
H10 H 0.8885 0.4486 0.2228
H11 H 0.8732 0.3835 0.1374
loop_
_geom_bond_atom_site_label_1
_geom_bond_atom_site_label_2
_geom_bond_site_symmetry_1
_geom_bond_site_symmetry_2
C1 C2 1_555 1_555
C2 C3 1_555 1_555
C3 C4 1_555 1_555
C4 O3 1_555 1_555
C5 C6 1_555 1_555
C6 C7 1_555 1_555
C7 H1 1_555 1_555
C8 C7 1_555 1_555
H2 C8 1_555 1_555
C9 H3 1_555 1_555
C10 C6 1_555 1_555
H4 C10 1_555 1_555
C11 O5 1_555 1_555
Dy1 N1 1_555 1_555
N1 C3 1_555 1_555
N2 C2 1_555 1_555
H5 N2 1_555 1_555
N3 C8 1_555 1_555
O1 C1 1_555 1_555
O2 C1 1_555 1_555
O3 Dy1C 1_555 1_555
O4 C4 1_555 1_555
O5 Dy1 1_555 1_555
O6 C11 1_555 1_555
O7 Dy1 1_555 1_555
H6 O7 1_555 1_555
H7 O7 1_555 1_555
O8 H8 1_555 1_555
H9 O8 1_555 1_555
O9 H10 1_555 1_555
H11 O9 1_555 1_555
C1B C2B 1_555 1_555
C2B C3B 1_555 1_555
C3B C4B 1_555 1_555
C4B O3B 1_555 1_555
C5B C6B 1_555 1_555
C6B C7B 1_555 1_555
C7B H1B 1_555 1_555
C8B C7B 1_555 1_555
H2B C8B 1_555 1_555
C9B H3B 1_555 1_555
C10B C6B 1_555 1_555
H4B C10B 1_555 1_555
C11B C11 1_555 1_555
Dy1B O6 1_555 1_555
Dy1A O1 1_555 1_555
Dy1A_2 O2B 1_555 1_555
Dy1C O2 1_555 1_555
Dy1C_2 O1B 1_555 1_555
N1B C3B 1_555 1_555
N2B C2B 1_555 1_555
H5B N2B 1_555 1_555
N3B C8B 1_555 1_555
O1B C1B 1_555 1_555
O1A Dy1 1_555 1_555
O1C Dy1B 1_555 1_555
O2B C1B 1_555 1_555
O2A Dy1B 1_555 1_555
O2C Dy1 1_555 1_555
O3B Dy1A_2 1_555 1_555
O3A Dy1B 1_555 1_555
O3C Dy1 1_555 1_555
O4B C4B 1_555 1_555
O5B C11B 1_555 1_555
O6B Dy1 1_555 1_555
O7B Dy1B 1_555 1_555
H6B O7B 1_555 1_555
H7B O7B 1_555 1_555
C5 N1 1_555 1_555
C5 N2 1_555 1_555
C9 C10 1_555 1_555
C9 N3 1_555 1_555
Dy1 O4 1_555 1_555
C5B N1B 1_555 1_555
C5B N2B 1_555 1_555
C9B C10B 1_555 1_555
C9B N3B 1_555 1_555
C11B O6B 1_555 1_555
Dy1B N1B 1_555 1_555
Dy1B O4B 1_555 1_555
Dy1B O5B 1_555 1_555

#END
