
#######################################################################
#
#                 Cambridge Crystallographic Data Centre
#                                CCDC 
#
#######################################################################
#
# If this CIF has been generated from an entry in the Cambridge 
# Structural Database, then it will include bibliographic, chemical, 
# crystal, experimental, refinement or atomic coordinate data resulting 
# from the CCDC's data processing and validation procedures.
#
#######################################################################

data_QARSAF
_symmetry_cell_setting           monoclinic
_symmetry_space_group_name_H-M   'P 21/c'
_symmetry_Int_Tables_number      14
_space_group_name_Hall           '-P 2ybc'
loop_
_symmetry_equiv_pos_site_id
_symmetry_equiv_pos_as_xyz
1 x,y,z
2 -x,1/2+y,1/2-z
3 -x,-y,-z
4 x,1/2-y,1/2+z
_cell_length_a                   8.3211(7)
_cell_length_b                   14.8190(13)
_cell_length_c                   11.5700(10)
_cell_angle_alpha                90
_cell_angle_beta                 90.8900(10)
_cell_angle_gamma                90
_cell_volume                     1426.53
loop_
_atom_site_label
_atom_site_type_symbol
_atom_site_fract_x
_atom_site_fract_y
_atom_site_fract_z
C1 C 0.1818(10) 0.2386(5) 0.3153(7)
C2 C 0.0708(10) 0.2941(6) 0.2395(7)
C3 C -0.0070(11) 0.3744(5) 0.2552(7)
C4 C -0.0359(11) 0.4357(6) 0.3541(8)
C5 C -0.0626(11) 0.3204(6) 0.0814(7)
C6 C -0.1485(11) 0.3113(6) -0.0315(7)
C7 C -0.1421(14) 0.3786(7) -0.1151(9)
H1 H -0.0780 0.4295 -0.1047
C8 C -0.2352(15) 0.3672(7) -0.2149(9)
H2 H -0.2322 0.4119 -0.2712
C9 C -0.3325(14) 0.2329(8) -0.1542(10)
H3 H -0.3986 0.1831 -0.1670
C10 C -0.2438(12) 0.2363(7) -0.0517(8)
H4 H -0.2485 0.1897 0.0019
C11 C 0.4730(13) 0.0020(7) -0.0634(8)
Gd1 Gd 0.22113(5) 0.13164(3) 0.06726(3)
N1 N 0.0360(9) 0.2603(5) 0.1308(6)
N2 N -0.0882(10) 0.3905(5) 0.1524(6)
H5 H -0.1454 0.4374 0.1365
N3 N -0.3287(11) 0.2953(7) -0.2340(7)
O1 O 0.2291(8) 0.1659(4) 0.2692(5)
O2 O 0.2189(8) 0.2633(4) 0.4145(5)
O3 O 0.0035(8) 0.4097(4) 0.4536(5)
O4 O -0.1106(10) 0.5067(5) 0.3310(6)
O5 O 0.3522(9) 0.0516(5) -0.0885(6)
O6 O 0.5522(9) -0.0419(5) -0.1343(6)
O7 O 0.4399(9) 0.2334(5) 0.0979(6)
H6 H 0.5344 0.2212 0.0863
H7 H 0.4373 0.2825 0.1306
C1C C 0.1818(10) 0.2614(5) -0.1847(7)
C2C C 0.0708(10) 0.2059(6) -0.2605(7)
C3C C -0.0070(11) 0.1256(5) -0.2448(7)
C4C C -0.0359(11) 0.0643(6) -0.1459(8)
C5C C -0.0626(11) 0.1796(6) -0.4186(7)
C6C C -0.1485(11) 0.1887(6) -0.5315(7)
C7C C -0.1421(14) 0.1214(7) -0.6151(9)
H1C H -0.0780 0.0705 -0.6047
C8C C -0.2352(15) 0.1328(7) -0.7149(9)
H2C H -0.2322 0.0881 -0.7712
C9C C -0.3325(14) 0.2671(8) -0.6542(10)
H3C H -0.3986 0.3169 -0.6670
C10C C -0.2438(12) 0.2637(7) -0.5517(8)
H4C H -0.2485 0.3103 -0.4981
C11B C 0.5270(13) -0.0020(7) 0.0634(8)
Gd1C Gd 0.22113(5) 0.36836(3) -0.43274(3)
Gd1C_2 Gd 0.22113(5) 0.36836(3) 0.56726(3)
Gd1A Gd -0.22113(5) 0.63164(3) 0.43274(3)
Gd1B Gd 0.77887(5) -0.13164(3) -0.06726(3)
Gd1B_2 Gd -0.22113(5) -0.13164(3) -0.06726(3)
N1C N 0.0360(9) 0.2397(5) -0.3692(6)
N2C N -0.0882(10) 0.1095(5) -0.3476(6)
H5C H -0.1454 0.0626 -0.3635
N3C N -0.3287(11) 0.2047(7) -0.7340(7)
O1C O 0.2291(8) 0.3341(4) -0.2308(5)
O2C O 0.2189(8) 0.2367(4) -0.0855(5)
O2_2 O 0.2189(8) 0.2633(4) -0.5855(5)
O3C O 0.0035(8) 0.0903(4) -0.0464(5)
O3_2 O 0.0035(8) 0.4097(4) -0.5464(5)
O4C O -0.1106(10) -0.0067(5) -0.1690(6)
O4A O 0.1106(10) 0.0067(5) 0.1690(6)
O4B O 0.1106(10) 0.4933(5) -0.3310(6)
O5B O 0.6478(9) -0.0516(5) 0.0885(6)
O5C O 0.3522(9) 0.4484(5) -0.5885(6)
O6B O 0.4478(9) 0.0419(5) 0.1343(6)
O6A O 0.4478(9) 0.4581(5) -0.3657(6)
O7C O 0.4399(9) 0.2666(5) -0.4021(6)
H6C H 0.5344 0.2788 -0.4137
H7C H 0.4373 0.2175 -0.3694
O8 O 0.3537(16) 0.4041(9) 0.1514(12)
H8 H 0.4312 0.4373 0.1336
H9 H 0.2835 0.4107 0.0987
O9 O 0.2987(10) 0.0286(5) 0.4181(7)
H10 H 0.2545 0.0778 0.4003
H11 H 0.3511 0.0112 0.3608
loop_
_geom_bond_atom_site_label_1
_geom_bond_atom_site_label_2
_geom_bond_site_symmetry_1
_geom_bond_site_symmetry_2
C1 C2 1_555 1_555
C2 C3 1_555 1_555
C3 C4 1_555 1_555
C4 O3 1_555 1_555
C5 C6 1_555 1_555
C6 C7 1_555 1_555
C7 H1 1_555 1_555
C8 C7 1_555 1_555
H2 C8 1_555 1_555
C9 H3 1_555 1_555
C10 C6 1_555 1_555
H4 C10 1_555 1_555
C11 O5 1_555 1_555
Gd1 N1 1_555 1_555
N1 C2 1_555 1_555
N2 C3 1_555 1_555
H5 N2 1_555 1_555
N3 C8 1_555 1_555
O1 C1 1_555 1_555
O2 C1 1_555 1_555
O3 Gd1C_2 1_555 1_555
O4 C4 1_555 1_555
O5 Gd1 1_555 1_555
O6 C11 1_555 1_555
O7 Gd1 1_555 1_555
H6 O7 1_555 1_555
H7 O7 1_555 1_555
O8 H8 1_555 1_555
H9 O8 1_555 1_555
O9 H10 1_555 1_555
H11 O9 1_555 1_555
C1C C2C 1_555 1_555
C2C C3C 1_555 1_555
C3C C4C 1_555 1_555
C4C O3C 1_555 1_555
C5C C6C 1_555 1_555
C6C C7C 1_555 1_555
C7C H1C 1_555 1_555
C8C C7C 1_555 1_555
H2C C8C 1_555 1_555
C9C H3C 1_555 1_555
C10C C6C 1_555 1_555
H4C C10C 1_555 1_555
C11B C11 1_555 1_555
Gd1C N1C 1_555 1_555
Gd1C_2 O2 1_555 1_555
Gd1A O4 1_555 1_555
Gd1B O6 1_555 1_555
Gd1B_2 O4C 1_555 1_555
N1C C2C 1_555 1_555
N2C C3C 1_555 1_555
H5C N2C 1_555 1_555
N3C C8C 1_555 1_555
O1C C1C 1_555 1_555
O2C Gd1 1_555 1_555
O2_2 Gd1C 1_555 1_555
O3C Gd1 1_555 1_555
O3_2 Gd1C 1_555 1_555
O4C C4C 1_555 1_555
O4A Gd1 1_555 1_555
O4B Gd1C 1_555 1_555
O5B C11B 1_555 1_555
O5C Gd1C 1_555 1_555
O6B Gd1 1_555 1_555
O6A Gd1C 1_555 1_555
O7C Gd1C 1_555 1_555
H6C O7C 1_555 1_555
H7C O7C 1_555 1_555
C5 N1 1_555 1_555
C5 N2 1_555 1_555
C9 C10 1_555 1_555
C9 N3 1_555 1_555
Gd1 O1 1_555 1_555
C1C O2C 1_555 1_555
C5C N1C 1_555 1_555
C5C N2C 1_555 1_555
C9C C10C 1_555 1_555
C9C N3C 1_555 1_555
C11B O6B 1_555 1_555
Gd1C O1C 1_555 1_555
Gd1B O5B 1_555 1_555

#END
