
#######################################################################
#
#                 Cambridge Crystallographic Data Centre
#                                CCDC 
#
#######################################################################
#
# If this CIF has been generated from an entry in the Cambridge 
# Structural Database, then it will include bibliographic, chemical, 
# crystal, experimental, refinement or atomic coordinate data resulting 
# from the CCDC's data processing and validation procedures.
#
#######################################################################

data_QARWAJ
_symmetry_cell_setting           monoclinic
_symmetry_space_group_name_H-M   'P 21/c'
_symmetry_Int_Tables_number      14
_space_group_name_Hall           '-P 2ybc'
loop_
_symmetry_equiv_pos_site_id
_symmetry_equiv_pos_as_xyz
1 x,y,z
2 -x,1/2+y,1/2-z
3 -x,-y,-z
4 x,1/2-y,1/2+z
_cell_length_a                   5.8542(12)
_cell_length_b                   17.566(4)
_cell_length_c                   6.9170(14)
_cell_angle_alpha                90
_cell_angle_beta                 109.65(3)
_cell_angle_gamma                90
_cell_volume                     669.885
loop_
_atom_site_label
_atom_site_type_symbol
_atom_site_fract_x
_atom_site_fract_y
_atom_site_fract_z
K1 K 0.41893(7) 0.68629(2) 0.76510(6)
P1 P -0.04849(8) 0.66584(2) 0.26422(6)
N1 N -0.2976(3) 0.52652(8) 0.3489(2)
N2 N -0.1373(3) 0.64598(8) 0.4668(2)
N3 N -0.0625(3) 0.57687(8) 0.1677(2)
C1 C -0.1932(3) 0.51732(9) 0.1985(3)
C2 C -0.2708(3) 0.58542(9) 0.4852(3)
O1 O 0.2061(2) 0.69264(7) 0.3383(2)
O2 O -0.2339(2) 0.71621(7) 0.1199(2)
O3 O -0.2180(2) 0.45654(7) 0.1052(2)
O4 O -0.3624(2) 0.58083(7) 0.6217(2)
H1 H -0.148(4) 0.6851(10) 0.538(3)
H2 H -0.397(4) 0.4899(11) 0.355(4)
H3 H 0.017(4) 0.5673(13) 0.086(3)
K1C K 0.41893(7) 0.81371(2) 0.26510(6)
K1_2 K -0.58107(7) 0.68629(2) -0.23490(6)
K1_3 K -0.58107(7) 0.68629(2) 0.76510(6)
O1C O 0.2061(2) 0.80736(7) 0.8383(2)
O2_2 O 0.7661(2) 0.71621(7) 1.1199(2)
O4_2 O 0.6376(2) 0.58083(7) 0.6217(2)
loop_
_geom_bond_atom_site_label_1
_geom_bond_atom_site_label_2
_geom_bond_site_symmetry_1
_geom_bond_site_symmetry_2
K1 O1 1_555 1_555
P1 N2 1_555 1_555
N1 C1 1_555 1_555
N2 C2 1_555 1_555
N3 P1 1_555 1_555
C1 N3 1_555 1_555
C2 N1 1_555 1_555
O1 P1 1_555 1_555
O2 P1 1_555 1_555
O3 C1 1_555 1_555
O4 C2 1_555 1_555
H1 N2 1_555 1_555
H2 N1 1_555 1_555
H3 N3 1_555 1_555
K1C O1 1_555 1_555
K1_2 O2 1_555 1_555
K1_3 O4 1_555 1_555
O1C K1 1_555 1_555
O2_2 K1 1_555 1_555
O4_2 K1 1_555 1_555

#END
