
#######################################################################
#
#                 Cambridge Crystallographic Data Centre
#                                CCDC 
#
#######################################################################
#
# If this CIF has been generated from an entry in the Cambridge 
# Structural Database, then it will include bibliographic, chemical, 
# crystal, experimental, refinement or atomic coordinate data resulting 
# from the CCDC's data processing and validation procedures.
#
#######################################################################

data_QARWEN
_symmetry_cell_setting           monoclinic
_symmetry_space_group_name_H-M   'P 21/c'
_symmetry_Int_Tables_number      14
_space_group_name_Hall           '-P 2ybc'
loop_
_symmetry_equiv_pos_site_id
_symmetry_equiv_pos_as_xyz
1 x,y,z
2 -x,1/2+y,1/2-z
3 -x,-y,-z
4 x,1/2-y,1/2+z
_cell_length_a                   6.7916(14)
_cell_length_b                   14.865(3)
_cell_length_c                   7.4537(15)
_cell_angle_alpha                90
_cell_angle_beta                 93.08(3)
_cell_angle_gamma                90
_cell_volume                     751.417
loop_
_atom_site_label
_atom_site_type_symbol
_atom_site_fract_x
_atom_site_fract_y
_atom_site_fract_z
Cs1 Cs 0.46481(2) 0.625934(11) 0.20632(2)
P1 P 1.24633(9) 0.36246(4) 0.28893(9)
N1 N 1.0768(3) 0.42993(16) 0.1849(3)
N2 N 0.8043(3) 0.38436(15) 0.3389(3)
N3 N 1.0977(3) 0.31029(16) 0.4288(3)
O1 O 0.7701(3) 0.48248(13) 0.1095(3)
O2 O 0.8065(3) 0.27274(14) 0.5450(3)
O3 O 1.3980(3) 0.41618(12) 0.3910(3)
O4 O 1.3209(3) 0.29857(12) 0.1544(3)
C1 C 0.8806(4) 0.43436(17) 0.2069(3)
C2 C 0.9008(4) 0.31885(17) 0.4427(4)
H1 H 1.114(5) 0.460(2) 0.099(3)
H2 H 0.680(3) 0.390(2) 0.347(5)
H3 H 1.152(4) 0.2723(19) 0.501(4)
Cs1B Cs 0.53519(2) 0.374066(11) -0.20632(2)
Cs1B_2 Cs 0.53519(2) 0.374066(11) 0.79368(2)
Cs1B_3 Cs 1.53519(2) 0.374066(11) 0.79368(2)
Cs1A Cs 1.53519(2) 0.125934(11) 0.29368(2)
O1B O 0.2299(3) 0.51752(13) -0.1095(3)
O2B O 0.1935(3) 0.72726(14) 0.4550(3)
O3B O 0.6020(3) 0.58382(12) 0.6090(3)
O4A O 0.6791(3) 0.79857(12) 0.3456(3)
loop_
_geom_bond_atom_site_label_1
_geom_bond_atom_site_label_2
_geom_bond_site_symmetry_1
_geom_bond_site_symmetry_2
Cs1 O1 1_555 1_555
P1 N1 1_555 1_555
N1 C1 1_555 1_555
N2 C1 1_555 1_555
N3 P1 1_555 1_555
O1 C1 1_555 1_555
O2 C2 1_555 1_555
O3 P1 1_555 1_555
O4 P1 1_555 1_555
C2 N2 1_555 1_555
H1 N1 1_555 1_555
H2 N2 1_555 1_555
H3 N3 1_555 1_555
Cs1B O1 1_555 1_555
Cs1B_2 O2 1_555 1_555
Cs1B_3 O3 1_555 1_555
Cs1A O4 1_555 1_555
O1B Cs1 1_555 1_555
O2B Cs1 1_555 1_555
O3B Cs1 1_555 1_555
O4A Cs1 1_555 1_555
N3 C2 1_555 1_555
Cs1B O1B 1_555 1_555

#END
