
#######################################################################
#
#                 Cambridge Crystallographic Data Centre
#                                CCDC 
#
#######################################################################
#
# If this CIF has been generated from an entry in the Cambridge 
# Structural Database, then it will include bibliographic, chemical, 
# crystal, experimental, refinement or atomic coordinate data resulting 
# from the CCDC's data processing and validation procedures.
#
#######################################################################

data_QARZIT
_symmetry_cell_setting           monoclinic
_symmetry_space_group_name_H-M   'P 21/n'
_symmetry_Int_Tables_number      14
_space_group_name_Hall           '-P 2yn'
loop_
_symmetry_equiv_pos_site_id
_symmetry_equiv_pos_as_xyz
1 x,y,z
2 1/2-x,1/2+y,1/2-z
3 -x,-y,-z
4 1/2+x,1/2-y,1/2+z
_cell_length_a                   9.834(2)
_cell_length_b                   5.5508(11)
_cell_length_c                   14.372(3)
_cell_angle_alpha                90
_cell_angle_beta                 104.91(3)
_cell_angle_gamma                90
_cell_volume                     758.104
loop_
_atom_site_label
_atom_site_type_symbol
_atom_site_fract_x
_atom_site_fract_y
_atom_site_fract_z
Pb1 Pb 0.11559(4) -1.73262(7) 0.11857(3)
O1 O -0.0594(9) -1.4904(11) 0.2031(6)
O2 O 0.1734(8) -1.4582(10) 0.2624(5)
O3 O 0.2651(10) -0.5391(11) 0.4989(5)
O4 O 0.3840(8) -0.8534(12) 0.4611(5)
C1 C 0.0462(11) -1.3948(17) 0.2579(7)
C2 C 0.0258(11) -1.1835(16) 0.3192(7)
C3 C -0.1069(11) -1.1045(18) 0.3223(7)
H1 H -0.1872(11) -1.1877(18) 0.2899(7)
C4 C -0.1166(11) -0.8975(21) 0.3750(6)
H2 H -0.2037(11) -0.8430(21) 0.3803(6)
C5 C 0.0044(14) -0.7749(15) 0.4191(7)
H3 H -0.0007(14) -0.6301(15) 0.4505(7)
C6 C 0.1335(10) -0.8683(15) 0.4163(6)
C7 C 0.2701(13) -0.7419(14) 0.4633(7)
N1 N 0.1438(8) -1.0705(12) 0.3679(5)
O2A O 0.3266(8) -1.9582(10) 0.2376(5)
O3A O 0.2349(10) -2.0391(11) 0.0011(5)
O4A O 0.1160(8) -1.3534(12) 0.0389(5)
O4C O -0.1160(8) -1.6466(12) -0.0389(5)
N1A N 0.3562(8) -1.5705(12) 0.1321(5)
Pb1A Pb 0.38441(4) -1.23262(7) 0.38143(3)
Pb1A_2 Pb 0.38441(4) -0.23262(7) 0.38143(3)
Pb1C Pb 0.61559(4) -0.76738(7) 0.61857(3)
loop_
_geom_bond_atom_site_label_1
_geom_bond_atom_site_label_2
_geom_bond_site_symmetry_1
_geom_bond_site_symmetry_2
Pb1 O1 1_555 1_555
O1 C1 1_555 1_555
O2 Pb1 1_555 1_555
O3 C7 1_555 1_555
O4 C7 1_555 1_555
C1 O2 1_555 1_555
C2 C1 1_555 1_555
C3 C2 1_555 1_555
H1 C3 1_555 1_555
C4 C3 1_555 1_555
H2 C4 1_555 1_555
C5 C4 1_555 1_555
H3 C5 1_555 1_555
C6 C5 1_555 1_555
C7 C6 1_555 1_555
N1 C2 1_555 1_555
O2A Pb1 1_555 1_555
O3A Pb1 1_555 1_555
O4A Pb1 1_555 1_555
O4C Pb1 1_555 1_555
N1A Pb1 1_555 1_555
Pb1A O2 1_555 1_555
Pb1A_2 O3 1_555 1_555
Pb1C O4 1_555 1_555
O4 Pb1A 1_555 1_555
C6 N1 1_555 1_555
N1 Pb1A 1_555 1_555

#END
