
#######################################################################
#
#                 Cambridge Crystallographic Data Centre
#                                CCDC 
#
#######################################################################
#
# If this CIF has been generated from an entry in the Cambridge 
# Structural Database, then it will include bibliographic, chemical, 
# crystal, experimental, refinement or atomic coordinate data resulting 
# from the CCDC's data processing and validation procedures.
#
#######################################################################

data_QARZIT02
_symmetry_cell_setting           monoclinic
_symmetry_space_group_name_H-M   'P 21/n'
_symmetry_Int_Tables_number      14
_space_group_name_Hall           '-P 2yn'
loop_
_symmetry_equiv_pos_site_id
_symmetry_equiv_pos_as_xyz
1 x,y,z
2 1/2-x,1/2+y,1/2-z
3 -x,-y,-z
4 1/2+x,1/2-y,1/2+z
_cell_length_a                   9.772(1)
_cell_length_b                   5.540(1)
_cell_length_c                   14.253(2)
_cell_angle_alpha                90
_cell_angle_beta                 104.75(1)
_cell_angle_gamma                90
_cell_volume                     746.185
loop_
_atom_site_label
_atom_site_type_symbol
_atom_site_fract_x
_atom_site_fract_y
_atom_site_fract_z
Pb1 Pb 0.88440(2) 0.26497(4) 0.881882(16)
N1 N 0.6437(4) 0.4265(7) 0.8681(3)
C1 C 0.5256(5) 0.3138(9) 0.8202(4)
C2 C 0.3915(5) 0.3917(9) 0.8233(4)
H1 H 0.3093 0.3040 0.7913
C3 C 0.3814(5) 0.6003(11) 0.8742(4)
H2 H 0.2916 0.6575 0.8786
C4 C 0.5029(6) 0.7246(8) 0.9187(4)
H3 H 0.4975 0.8725 0.9513
C5 C 0.6326(5) 0.6312(8) 0.9152(4)
C6 C 0.5454(5) 0.1015(8) 0.7585(4)
O1 O 0.6721(4) 0.0371(6) 0.7626(3)
O2 O 0.4410(4) 0.0060(6) 0.7039(3)
C7 C 0.7704(6) 0.7568(7) 0.9629(5)
O3 O 0.8834(4) 0.6468(6) 0.9608(3)
O4 O 0.7649(4) 0.9600(6) 0.9986(3)
Pb1A Pb 0.61560(2) -0.23503(4) 0.618118(16)
O1A O 0.8279(4) 0.5371(6) 0.7374(3)
O2A O 1.0590(4) 0.5060(6) 0.7961(3)
loop_
_geom_bond_atom_site_label_1
_geom_bond_atom_site_label_2
_geom_bond_site_symmetry_1
_geom_bond_site_symmetry_2
Pb1 N1 1_555 1_555
N1 C1 1_555 1_555
C1 C2 1_555 1_555
C2 H1 1_555 1_555
C3 C2 1_555 1_555
H2 C3 1_555 1_555
C4 C3 1_555 1_555
H3 C4 1_555 1_555
C5 N1 1_555 1_555
C6 C1 1_555 1_555
O1 Pb1 1_555 1_555
O2 C6 1_555 1_555
C7 C5 1_555 1_555
O3 Pb1 1_555 1_555
O4 C7 1_555 1_555
Pb1A O1 1_555 1_555
O1A Pb1 1_555 1_555
O2A Pb1 1_555 1_555
C4 C5 1_555 1_555
C6 O1 1_555 1_555
O2 Pb1A 1_555 1_555
C7 O3 1_555 1_555

#END
