
#######################################################################
#
#                 Cambridge Crystallographic Data Centre
#                                CCDC 
#
#######################################################################
#
# If this CIF has been generated from an entry in the Cambridge 
# Structural Database, then it will include bibliographic, chemical, 
# crystal, experimental, refinement or atomic coordinate data resulting 
# from the CCDC's data processing and validation procedures.
#
#######################################################################

data_QARZEP01
_symmetry_cell_setting           monoclinic
_symmetry_space_group_name_H-M   'C 2/c'
_symmetry_Int_Tables_number      15
_space_group_name_Hall           '-C 2yn'
loop_
_symmetry_equiv_pos_site_id
_symmetry_equiv_pos_as_xyz
1 x,y,z
2 1/2+x,1/2+y,z
3 -x,y,1/2-z
4 1/2-x,1/2+y,1/2-z
5 -x,-y,-z
6 1/2-x,1/2-y,-z
7 x,-y,1/2+z
8 1/2+x,1/2-y,1/2+z
_cell_length_a                   13.1763(13)
_cell_length_b                   9.7513(10)
_cell_length_c                   13.1510(13)
_cell_angle_alpha                90
_cell_angle_beta                 96.427(2)
_cell_angle_gamma                90
_cell_volume                     1679.1
loop_
_atom_site_label
_atom_site_type_symbol
_atom_site_fract_x
_atom_site_fract_y
_atom_site_fract_z
Mn1 Mn 0.04668(3) 0.01957(4) 0.87334(3)
O1 O 0.09871(12) 0.08881(16) 0.70408(12)
O2 O 0.16289(14) 0.25500(19) 0.61332(13)
O3 O 0.17185(16) -0.1023(2) 0.93574(16)
O4 O 0.10025(16) 0.29078(19) 1.13305(14)
O5 O 0.04275(13) 0.11744(16) 1.02950(13)
O6 O 0.0000 -0.1383(2) 0.7500
N1 N 0.11101(14) 0.2377(2) 0.87038(14)
C1 C 0.08209(18) 0.2351(3) 1.04755(18)
C2 C 0.13324(17) 0.2082(3) 0.69342(18)
C3 C 0.13422(18) 0.3006(2) 0.78526(18)
C4 C 0.1509(2) 0.4409(3) 0.7806(2)
H1 H 0.1671 0.4817 0.7205
C5 C 0.10824(19) 0.3133(2) 0.95497(19)
C6 C 0.1234(2) 0.4546(3) 0.9564(2)
H2 H 0.1204 0.5047 1.0162
C7 C 0.1429(2) 0.5185(3) 0.8670(2)
H3 H 0.1506 0.6132 0.8650
H4 H 0.217(3) -0.132(3) 0.911(3)
H5 H 0.166(3) -0.141(3) 0.991(3)
H6 H -0.039(3) -0.196(3) 0.783(3)
Mn1B Mn -0.04668(3) 0.01957(4) 0.62666(3)
Mn1D Mn -0.04668(3) -0.01957(4) 1.12666(3)
Mn1F Mn 0.04668(3) -0.01957(4) 0.37334(3)
O1B O -0.09871(12) 0.08881(16) 0.79592(12)
O2B O -0.16289(14) 0.25500(19) 0.88668(13)
O3B O -0.17185(16) -0.1023(2) 0.56426(16)
O4B O -0.10025(16) 0.29078(19) 0.36695(14)
O5B O -0.04275(13) 0.11744(16) 0.47050(13)
O5D O -0.04275(13) -0.11744(16) 0.97050(13)
O5F O 0.04275(13) -0.11744(16) 0.52950(13)
N1B N -0.11101(14) 0.2377(2) 0.62962(14)
C1B C -0.08209(18) 0.2351(3) 0.45245(18)
C2B C -0.13324(17) 0.2082(3) 0.80658(18)
C3B C -0.13422(18) 0.3006(2) 0.71474(18)
C4B C -0.1509(2) 0.4409(3) 0.7194(2)
H1B H -0.1671 0.4817 0.7795
C5B C -0.10824(19) 0.3133(2) 0.54503(19)
C6B C -0.1234(2) 0.4546(3) 0.5436(2)
H2B H -0.1204 0.5047 0.4838
C7B C -0.1429(2) 0.5185(3) 0.6330(2)
H3B H -0.1506 0.6132 0.6350
H4B H -0.217(3) -0.132(3) 0.589(3)
H5B H -0.166(3) -0.141(3) 0.509(3)
H6B H 0.039(3) -0.196(3) 0.717(3)
loop_
_geom_bond_atom_site_label_1
_geom_bond_atom_site_label_2
_geom_bond_site_symmetry_1
_geom_bond_site_symmetry_2
Mn1 O1 1_555 1_555
O1 C2 1_555 1_555
O2 C2 1_555 1_555
O3 Mn1 1_555 1_555
O4 C1 1_555 1_555
O5 Mn1 1_555 1_555
O6 Mn1 1_555 1_555
N1 Mn1 1_555 1_555
C1 O5 1_555 1_555
C2 C3 1_555 1_555
C3 N1 1_555 1_555
C4 C3 1_555 1_555
H1 C4 1_555 1_555
C5 N1 1_555 1_555
C6 C5 1_555 1_555
H2 C6 1_555 1_555
C7 C4 1_555 1_555
H3 C7 1_555 1_555
H4 O3 1_555 1_555
H5 O3 1_555 1_555
H6 O6 1_555 1_555
Mn1B O1 1_555 1_555
Mn1D O5 1_555 1_555
Mn1F O5B 1_555 1_555
O1B Mn1 1_555 1_555
O2B C2B 1_555 1_555
O3B Mn1B 1_555 1_555
O4B C1B 1_555 1_555
O5B Mn1B 1_555 1_555
O5D Mn1 1_555 1_555
O5F Mn1B 1_555 1_555
N1B Mn1B 1_555 1_555
C1B O5B 1_555 1_555
C2B O1B 1_555 1_555
C3B N1B 1_555 1_555
C4B C3B 1_555 1_555
H1B C4B 1_555 1_555
C5B N1B 1_555 1_555
C6B C5B 1_555 1_555
H2B C6B 1_555 1_555
C7B C4B 1_555 1_555
H3B C7B 1_555 1_555
H4B O3B 1_555 1_555
H5B O3B 1_555 1_555
H6B O6 1_555 1_555
O6 Mn1B 1_555 1_555
C1 C5 1_555 1_555
C6 C7 1_555 1_555
Mn1B O1B 1_555 1_555
Mn1D O5D 1_555 1_555
Mn1F O5F 1_555 1_555
C1B C5B 1_555 1_555
C2B C3B 1_555 1_555
C6B C7B 1_555 1_555

#END
