
#######################################################################
#
#                 Cambridge Crystallographic Data Centre
#                                CCDC 
#
#######################################################################
#
# If this CIF has been generated from an entry in the Cambridge 
# Structural Database, then it will include bibliographic, chemical, 
# crystal, experimental, refinement or atomic coordinate data resulting 
# from the CCDC's data processing and validation procedures.
#
#######################################################################

data_QASBOC
_symmetry_cell_setting           orthorhombic
_symmetry_space_group_name_H-M   'P 21 21 21'
_symmetry_Int_Tables_number      19
_space_group_name_Hall           'P 2ac 2ab'
loop_
_symmetry_equiv_pos_site_id
_symmetry_equiv_pos_as_xyz
1 x,y,z
2 1/2-x,-y,1/2+z
3 -x,1/2+y,1/2-z
4 1/2+x,1/2-y,-z
_cell_length_a                   12.0706(5)
_cell_length_b                   16.0027(8)
_cell_length_c                   20.1202(8)
_cell_angle_alpha                90
_cell_angle_beta                 90
_cell_angle_gamma                90
_cell_volume                     3886.46
loop_
_atom_site_label
_atom_site_type_symbol
_atom_site_fract_x
_atom_site_fract_y
_atom_site_fract_z
Ag1 Ag 0.39081(3) 0.41541(2) 0.146998(19)
Ag2 Ag -0.11476(3) 0.13535(2) 0.14949(2)
Ag3 Ag 0.39603(3) 0.60816(2) 0.00403(2)
S1 S 0.64297(9) 0.51445(7) 0.09454(6)
S2 S 0.15395(10) 0.02341(8) 0.12584(6)
C1 C -0.0794(4) 0.3281(3) 0.1495(3)
H1 H -0.1552 0.3267 0.1411
C2 C -0.0275(4) 0.4049(3) 0.1529(3)
H2 H -0.0677 0.4538 0.1466
C3 C 0.0876(3) 0.4082(3) 0.1660(2)
C4 C 0.1421(4) 0.3326(3) 0.1737(3)
H3 H 0.2179 0.3315 0.1817
C5 C 0.0832(4) 0.2587(3) 0.1694(3)
H4 H 0.1215 0.2088 0.1747
C6 C 0.1439(4) 0.4888(3) 0.1682(2)
C7 C 0.2671(4) 0.5878(3) 0.1615(2)
C8 C 0.3628(4) 0.6372(3) 0.1525(3)
H5 H 0.4323 0.6129 0.1471
C9 C 0.3493(4) 0.7226(3) 0.1519(3)
H6 H 0.4107 0.7563 0.1442
C10 C 0.2449(5) 0.7609(3) 0.1626(3)
H7 H 0.2394 0.8188 0.1633
C11 C 0.1513(4) 0.7127(3) 0.1721(3)
H8 H 0.0824 0.7371 0.1791
C12 C 0.1637(4) 0.6265(3) 0.1708(2)
C13 C 0.4318(4) 0.7975(4) -0.0236(3)
H9 H 0.3591 0.7931 -0.0385
C14 C 0.4805(4) 0.8768(3) -0.0222(3)
H10 H 0.4407 0.9242 -0.0343
C15 C 0.5915(4) 0.8824(3) -0.0020(2)
C16 C 0.6470(4) 0.8096(3) 0.0139(3)
H11 H 0.7214 0.8113 0.0258
C17 C 0.5908(4) 0.7334(3) 0.0118(3)
H12 H 0.6293 0.6848 0.0223
C18 C 0.6483(3) 0.9633(3) -0.0003(2)
C19 C 0.7697(3) 1.0630(3) 0.0008(2)
C20 C 0.8671(4) 1.1112(3) 0.0011(2)
H13 H 0.9371 1.0870 0.0001
C21 C 0.8523(4) 1.1970(3) 0.0032(3)
H14 H 0.9147 1.2310 0.0029
C22 C 0.7465(4) 1.2352(3) 0.0055(3)
H15 H 0.7412 1.2931 0.0081
C23 C 0.6514(4) 1.1876(3) 0.0041(3)
H16 H 0.5814 1.2119 0.0046
C24 C 0.6653(3) 1.1010(3) 0.0019(2)
C25 C 0.5865(4) 0.2910(3) 0.1696(3)
H17 H 0.6263 0.3405 0.1733
C26 C 0.6415(4) 0.2160(3) 0.1781(3)
H18 H 0.7164 0.2169 0.1888
C27 C 0.5893(3) 0.1399(3) 0.1712(2)
C28 C 0.4736(4) 0.1441(3) 0.1588(3)
H19 H 0.4320 0.0954 0.1552
C29 C 0.4232(4) 0.2218(3) 0.1520(3)
H20 H 0.3473 0.2231 0.1439
C30 C 0.6439(4) 0.0597(3) 0.1747(2)
C31 C 0.7647(4) -0.0397(3) 0.1680(2)
C32 C 0.8588(4) -0.0890(3) 0.1591(3)
H21 H 0.9280 -0.0655 0.1512
C33 C 0.8438(4) -0.1755(3) 0.1627(3)
H22 H 0.9046 -0.2104 0.1563
C34 C 0.7407(5) -0.2112(3) 0.1755(3)
H23 H 0.7349 -0.2691 0.1775
C35 C 0.6476(4) -0.1638(3) 0.1851(3)
H24 H 0.5792 -0.1877 0.1946
C36 C 0.6619(4) -0.0767(3) 0.1799(2)
O1 O 0.7145(3) 0.4410(2) 0.0864(2)
O3 O 0.7094(3) 0.5889(2) 0.1080(2)
O5 O 0.5766(3) 0.5284(2) 0.03270(17)
O7 O 0.5635(3) 0.4992(2) 0.14948(19)
O8 O 0.1650(3) -0.0153(3) 0.19182(19)
O9 O 0.1725(3) -0.0498(2) 0.07646(19)
O10 O 0.2403(3) 0.0852(3) 0.1142(2)
O11 O 0.0440(3) 0.0569(3) 0.1141(2)
N1 N -0.0253(3) 0.2550(2) 0.1580(2)
N2 N 0.0888(3) 0.5617(2) 0.1749(2)
H25 H 0.0185 0.5669 0.1807
N3 N 0.2527(3) 0.5019(2) 0.16037(19)
N4 N 0.4843(3) 0.7275(3) -0.0046(2)
N5 N 0.5908(3) 1.0369(2) 0.0013(2)
H26 H 0.5198 1.0420 0.0018
N6 N 0.7570(3) 0.9767(2) -0.00054(19)
N7 N 0.4770(3) 0.2947(2) 0.1563(2)
N8 N 0.7515(3) 0.0466(2) 0.16576(19)
N9 N 0.5870(3) -0.0117(2) 0.18302(19)
H27 H 0.5167 -0.0162 0.1891
Ag2_2 Ag 0.88524(3) 0.13535(2) 0.14949(2)
Ag3C Ag 0.89603(3) 0.89184(2) -0.00403(2)
N6C N 0.2570(3) 0.5233(2) 0.00054(19)
N8_2 N -0.2485(3) 0.0466(2) 0.16576(19)
O2 O 0.8752(3) 0.4256(2) -0.00497(19)
O4 O -0.1282(3) 0.5937(2) 0.20169(18)
O6 O 0.3826(3) -0.0462(2) 0.22626(18)
loop_
_geom_bond_atom_site_label_1
_geom_bond_atom_site_label_2
_geom_bond_site_symmetry_1
_geom_bond_site_symmetry_2
Ag1 O7 1_555 1_555
Ag2 O11 1_555 1_555
Ag3 O5 1_555 1_555
S1 O1 1_555 1_555
S2 O8 1_555 1_555
C1 H1 1_555 1_555
C2 C1 1_555 1_555
H2 C2 1_555 1_555
C3 C2 1_555 1_555
C4 C3 1_555 1_555
H3 C4 1_555 1_555
C5 C4 1_555 1_555
H4 C5 1_555 1_555
C6 C3 1_555 1_555
C7 C8 1_555 1_555
C8 H5 1_555 1_555
C9 C8 1_555 1_555
H6 C9 1_555 1_555
C10 C9 1_555 1_555
H7 C10 1_555 1_555
C11 C10 1_555 1_555
H8 C11 1_555 1_555
C12 C7 1_555 1_555
C13 H9 1_555 1_555
C14 C13 1_555 1_555
H10 C14 1_555 1_555
C15 C14 1_555 1_555
C16 C15 1_555 1_555
H11 C16 1_555 1_555
C17 C16 1_555 1_555
H12 C17 1_555 1_555
C18 C15 1_555 1_555
C19 C20 1_555 1_555
C20 H13 1_555 1_555
C21 C20 1_555 1_555
H14 C21 1_555 1_555
C22 C21 1_555 1_555
H15 C22 1_555 1_555
C23 C22 1_555 1_555
H16 C23 1_555 1_555
C24 C19 1_555 1_555
C25 H17 1_555 1_555
C26 C25 1_555 1_555
H18 C26 1_555 1_555
C27 C26 1_555 1_555
C28 C27 1_555 1_555
H19 C28 1_555 1_555
C29 C28 1_555 1_555
H20 C29 1_555 1_555
C30 C27 1_555 1_555
C31 C32 1_555 1_555
C32 H21 1_555 1_555
C33 C32 1_555 1_555
H22 C33 1_555 1_555
C34 C33 1_555 1_555
H23 C34 1_555 1_555
C35 C34 1_555 1_555
H24 C35 1_555 1_555
C36 C31 1_555 1_555
O3 S1 1_555 1_555
O5 S1 1_555 1_555
O7 S1 1_555 1_555
O9 S2 1_555 1_555
O10 S2 1_555 1_555
O11 S2 1_555 1_555
N1 Ag2 1_555 1_555
N2 C6 1_555 1_555
H25 N2 1_555 1_555
N3 Ag1 1_555 1_555
N4 Ag3 1_555 1_555
N5 C18 1_555 1_555
H26 N5 1_555 1_555
N6 C18 1_555 1_555
N7 Ag1 1_555 1_555
N8 C30 1_555 1_555
N9 C30 1_555 1_555
H27 N9 1_555 1_555
Ag2_2 N8 1_555 1_555
Ag3C N6 1_555 1_555
N6C Ag3 1_555 1_555
N8_2 Ag2 1_555 1_555
C1 N1 1_555 1_555
C5 N1 1_555 1_555
C6 N3 1_555 1_555
C7 N3 1_555 1_555
C11 C12 1_555 1_555
C12 N2 1_555 1_555
C13 N4 1_555 1_555
C17 N4 1_555 1_555
C19 N6 1_555 1_555
C23 C24 1_555 1_555
C24 N5 1_555 1_555
C25 N7 1_555 1_555
C29 N7 1_555 1_555
C31 N8 1_555 1_555
C35 C36 1_555 1_555
C36 N9 1_555 1_555

#END
