
#######################################################################
#
#                 Cambridge Crystallographic Data Centre
#                                CCDC 
#
#######################################################################
#
# If this CIF has been generated from an entry in the Cambridge 
# Structural Database, then it will include bibliographic, chemical, 
# crystal, experimental, refinement or atomic coordinate data resulting 
# from the CCDC's data processing and validation procedures.
#
#######################################################################

data_QASHEY
_symmetry_cell_setting           triclinic
_symmetry_space_group_name_H-M   'P -1'
_symmetry_Int_Tables_number      2
_space_group_name_Hall           '-P 1'
loop_
_symmetry_equiv_pos_site_id
_symmetry_equiv_pos_as_xyz
1 x,y,z
2 -x,-y,-z
_cell_length_a                   7.3977(12)
_cell_length_b                   14.105(2)
_cell_length_c                   15.280(2)
_cell_angle_alpha                65.785(2)
_cell_angle_beta                 81.183(3)
_cell_angle_gamma                79.495(3)
_cell_volume                     1424.24
loop_
_atom_site_label
_atom_site_type_symbol
_atom_site_fract_x
_atom_site_fract_y
_atom_site_fract_z
O1 O 1.0701(4) 1.53142(18) -0.67208(18)
H1 H 0.969(3) 1.515(3) -0.686(3)
H2 H 1.156(4) 1.476(2) -0.669(3)
Na1 Na 0.86640(19) 1.12164(11) -0.24423(10)
O2 O 0.8309(4) 1.26899(19) -0.19294(18)
H3 H 0.856(6) 1.3335(18) -0.233(2)
H4 H 0.887(6) 1.254(3) -0.1406(19)
O3 O 0.9134(4) 0.97805(19) -0.30172(17)
H5 H 1.035(3) 0.964(3) -0.312(3)
H6 H 0.872(5) 1.001(3) -0.3595(17)
Na2 Na 0.73232(16) 0.74294(8) 0.00644(8)
O4 O 0.5639(4) 0.7142(2) 0.16843(18)
H7 H 0.451(3) 0.702(3) 0.172(3)
H8 H 0.566(5) 0.769(2) 0.180(3)
O5 O 0.8173(4) 0.77985(19) -0.16639(18)
H9 H 0.846(6) 0.8429(16) -0.207(3)
H10 H 0.905(4) 0.733(2) -0.176(3)
Na3 Na 0.61581(19) 0.36956(11) 0.25471(10)
O6 O 0.7001(4) 0.50650(19) 0.29656(18)
H11 H 0.666(5) 0.501(3) 0.3562(13)
H12 H 0.654(4) 0.5718(16) 0.2582(17)
O7 O 0.5424(4) 0.2332(2) 0.20520(17)
H13 H 0.425(3) 0.224(4) 0.208(3)
H14 H 0.576(5) 0.263(3) 0.1432(15)
Na4 Na 0.5000 0.0000 0.5000
O8 O 0.6816(4) 0.0358(2) 0.34318(17)
H15 H 0.645(6) 0.0926(18) 0.292(2)
H16 H 0.685(5) -0.0187(17) 0.329(2)
C1 C 1.2213(5) 1.2339(2) -0.3754(2)
H17 H 0.979(7) 1.300(4) -0.416(3)
O9 O 1.1123(3) 1.31366(17) -0.42652(16)
O10 O 1.1680(3) 1.15019(17) -0.31876(16)
C2 C 1.4194(5) 1.2462(3) -0.3861(2)
H18 H 1.499(5) 1.186(3) -0.345(3)
C3 C 1.4898(5) 1.3326(3) -0.4435(2)
H19 H 1.425(5) 1.390(3) -0.482(2)
C4 C 1.6867(5) 1.3460(2) -0.4498(2)
O11 O 1.7389(3) 1.43058(17) -0.50635(16)
O12 O 1.7935(3) 1.26872(17) -0.39566(16)
C5 C 1.0426(5) 0.8964(2) -0.0368(2)
H20 H 1.766(7) 0.949(4) -0.071(3)
O13 O 0.9379(3) 0.97194(17) -0.09407(16)
O14 O 0.9868(3) 0.81391(17) 0.02409(16)
C6 C 1.2407(5) 0.9092(3) -0.0453(3)
H21 H 1.301(5) 0.857(3) -0.011(2)
C7 C 1.3135(5) 0.9928(3) -0.1063(3)
H22 H 1.245(5) 1.040(3) -0.141(3)
C8 C 1.5109(5) 1.0051(3) -0.1164(2)
O15 O 1.5650(3) 1.08764(17) -0.17688(16)
O16 O 1.6192(3) 0.92809(17) -0.06191(16)
C9 C 0.9615(5) 0.4738(3) 0.1207(2)
H23 H 0.687(6) 0.540(3) 0.091(3)
O17 O 0.8484(3) 0.55699(17) 0.07786(15)
O18 O 0.9115(3) 0.38624(16) 0.16706(16)
C10 C 1.1577(5) 0.4878(3) 0.1126(2)
H24 H 1.218(5) 0.434(3) 0.145(2)
C11 C 1.2267(5) 0.5751(3) 0.0592(2)
H25 H 1.151(5) 0.632(2) 0.024(2)
C12 C 1.4223(5) 0.5898(2) 0.0511(2)
O19 O 1.4733(3) 0.67384(17) -0.00617(16)
O20 O 1.5306(3) 0.51266(17) 0.10608(16)
C13 C 0.8000(5) 0.1525(2) 0.4639(2)
H26 H 1.520(7) 0.202(3) 0.423(3)
O21 O 0.6952(3) 0.22725(17) 0.40585(16)
O22 O 0.7446(3) 0.07145(17) 0.52596(16)
C14 C 0.9987(5) 0.1655(3) 0.4541(2)
H27 H 1.065(5) 0.110(3) 0.497(3)
C15 C 1.0680(5) 0.2520(3) 0.3954(2)
H28 H 0.993(5) 0.310(3) 0.358(3)
C16 C 1.2650(5) 0.2656(2) 0.3861(2)
O23 O 1.3158(3) 0.35232(17) 0.33573(15)
O24 O 1.3761(3) 0.18449(17) 0.43242(16)
Na5 Na 1.0000 1.5000 -0.5000
O1A O 0.9299(4) 1.46858(18) -0.32792(18)
H1A H 1.031(3) 1.485(3) -0.314(3)
H2A H 0.844(4) 1.524(2) -0.331(3)
Na1_2 Na -0.13360(19) 1.12164(11) -0.24423(10)
Na1_3 Na 1.86640(19) 1.12164(11) -0.24423(10)
O2_2 O -0.1691(4) 1.26899(19) -0.19294(18)
H3_2 H -0.144(6) 1.3335(18) -0.233(2)
H4_2 H -0.113(6) 1.254(3) -0.1406(19)
O3_2 O -0.0866(4) 0.97805(19) -0.30172(17)
H5_2 H 0.035(3) 0.964(3) -0.312(3)
H6_2 H -0.128(5) 1.001(3) -0.3595(17)
Na2_2 Na -0.26768(16) 0.74294(8) 0.00644(8)
Na2_3 Na 1.73232(16) 0.74294(8) 0.00644(8)
O4_2 O -0.4361(4) 0.7142(2) 0.16843(18)
H7_2 H -0.549(3) 0.702(3) 0.172(3)
H8_2 H -0.434(5) 0.769(2) 0.180(3)
O5_2 O -0.1827(4) 0.77985(19) -0.16639(18)
H9_2 H -0.154(6) 0.8429(16) -0.207(3)
H10_2 H -0.095(4) 0.733(2) -0.176(3)
Na3A Na 0.38419(19) -0.36956(11) 0.74529(10)
Na3_2 Na 1.61581(19) 0.36956(11) 0.25471(10)
Na3A_2 Na -0.61581(19) -0.36956(11) 0.74529(10)
Na3_3 Na -0.38419(19) 0.36956(11) 0.25471(10)
O6A O 0.2999(4) -0.50650(19) 0.70344(18)
H11A H 0.334(5) -0.501(3) 0.6438(13)
H12A H 0.346(4) -0.5718(16) 0.7418(17)
O7A O 0.4576(4) -0.2332(2) 0.79480(17)
H13A H 0.575(3) -0.224(4) 0.792(3)
H14A H 0.424(5) -0.263(3) 0.8568(15)
Na4_2 Na 1.5000 0.0000 0.5000
Na4_3 Na -0.5000 0.0000 0.5000
O8A O 0.3184(4) -0.0358(2) 0.65682(17)
H15A H 0.355(6) -0.0926(18) 0.708(2)
H16A H 0.315(5) 0.0187(17) 0.671(2)
C1_2 C 0.2213(5) 1.2339(2) -0.3754(2)
H17_2 H -0.021(7) 1.300(4) -0.416(3)
H17A H 1.021(7) 1.700(4) -0.584(3)
O9_2 O 0.1123(3) 1.31366(17) -0.42652(16)
O9A O 0.8877(3) 1.68634(17) -0.57348(16)
O10_2 O 0.1680(3) 1.15019(17) -0.31876(16)
C2_2 C 0.4194(5) 1.2462(3) -0.3861(2)
H18_2 H 0.499(5) 1.186(3) -0.345(3)
C3_2 C 0.4898(5) 1.3326(3) -0.4435(2)
H19_2 H 0.425(5) 1.390(3) -0.482(2)
C4_2 C 0.6867(5) 1.3460(2) -0.4498(2)
O11_2 O 0.7389(3) 1.43058(17) -0.50635(16)
O11A O 1.2611(3) 1.56942(17) -0.49365(16)
O12_2 O 0.7935(3) 1.26872(17) -0.39566(16)
O12_3 O -0.2065(3) 1.26872(17) -0.39566(16)
C5_2 C 0.0426(5) 0.8964(2) -0.0368(2)
H20_2 H 0.766(7) 0.949(4) -0.071(3)
H20_3 H -0.234(7) 0.949(4) -0.071(3)
O13_2 O -0.0621(3) 0.97194(17) -0.09407(16)
O14_2 O -0.0132(3) 0.81391(17) 0.02409(16)
C6_2 C 0.2407(5) 0.9092(3) -0.0453(3)
H21_2 H 0.301(5) 0.857(3) -0.011(2)
C7_2 C 0.3135(5) 0.9928(3) -0.1063(3)
H22_2 H 0.245(5) 1.040(3) -0.141(3)
C8_2 C 0.5109(5) 1.0051(3) -0.1164(2)
O15_2 O 0.5650(3) 1.08764(17) -0.17688(16)
O15_3 O -0.4350(3) 1.08764(17) -0.17688(16)
O16_2 O 0.6192(3) 0.92809(17) -0.06191(16)
O16_3 O -0.3808(3) 0.92809(17) -0.06191(16)
C9_2 C -0.0385(5) 0.4738(3) 0.1207(2)
H23_2 H -0.313(6) 0.540(3) 0.091(3)
O17_2 O -0.1516(3) 0.55699(17) 0.07786(15)
O18_2 O -0.0885(3) 0.38624(16) 0.16706(16)
O18A O 0.0885(3) -0.38624(16) 0.83294(16)
C10_2 C 0.1577(5) 0.4878(3) 0.1126(2)
H24_2 H 0.218(5) 0.434(3) 0.145(2)
C11_2 C 0.2267(5) 0.5751(3) 0.0592(2)
H25_2 H 0.151(5) 0.632(2) 0.024(2)
C12_2 C 0.4223(5) 0.5898(2) 0.0511(2)
O19_2 O 0.4733(3) 0.67384(17) -0.00617(16)
O19_3 O -0.5267(3) 0.67384(17) -0.00617(16)
O20_2 O 0.5306(3) 0.51266(17) 0.10608(16)
O20A O 0.4694(3) -0.51266(17) 0.89392(16)
C13A C 0.2000(5) -0.1525(2) 0.5361(2)
H26A H -0.520(7) -0.202(3) 0.577(3)
H26_2 H 0.520(7) 0.202(3) 0.423(3)
H26A_2 H 0.480(7) -0.202(3) 0.577(3)
O21A O 0.3048(3) -0.22725(17) 0.59415(16)
O22A O 0.2554(3) -0.07145(17) 0.47404(16)
C14A C 0.0013(5) -0.1655(3) 0.5459(2)
H27A H -0.065(5) -0.110(3) 0.503(3)
C15A C -0.0680(5) -0.2520(3) 0.6046(2)
H28A H 0.007(5) -0.310(3) 0.642(3)
C16A C -0.2650(5) -0.2656(2) 0.6139(2)
O23A O -0.3158(3) -0.35232(17) 0.66427(15)
O23_2 O 0.3158(3) 0.35232(17) 0.33573(15)
O23A_2 O 0.6842(3) -0.35232(17) 0.66427(15)
O24A O -0.3761(3) -0.18449(17) 0.56758(16)
O24_2 O 0.3761(3) 0.18449(17) 0.43242(16)
O24A_2 O 0.6239(3) -0.18449(17) 0.56758(16)
Na5_2 Na 2.0000 1.5000 -0.5000
Na5_3 Na 0.0000 1.5000 -0.5000
loop_
_geom_bond_atom_site_label_1
_geom_bond_atom_site_label_2
_geom_bond_site_symmetry_1
_geom_bond_site_symmetry_2
O1 H1 1_555 1_555
H2 O1 1_555 1_555
Na1 O2 1_555 1_555
O2 H3 1_555 1_555
H4 O2 1_555 1_555
O3 Na1 1_555 1_555
H5 O3 1_555 1_555
H6 O3 1_555 1_555
Na2 O4 1_555 1_555
O4 H7 1_555 1_555
H8 O4 1_555 1_555
O5 Na2 1_555 1_555
H9 O5 1_555 1_555
H10 O5 1_555 1_555
Na3 O6 1_555 1_555
O6 H11 1_555 1_555
H12 O6 1_555 1_555
O7 Na3 1_555 1_555
H13 O7 1_555 1_555
H14 O7 1_555 1_555
Na4 O8 1_555 1_555
O8 H15 1_555 1_555
H16 O8 1_555 1_555
C1 O9 1_555 1_555
H17 O9 1_555 1_555
O9 Na5 1_555 1_555
O10 Na1 1_555 1_555
C2 C1 1_555 1_555
H18 C2 1_555 1_555
C3 C2 1_555 1_555
H19 C3 1_555 1_555
C4 C3 1_555 1_555
O11 C4 1_555 1_555
O12 C4 1_555 1_555
C5 O13 1_555 1_555
H20 O16 1_555 1_555
O13 Na1 1_555 1_555
O14 Na2 1_555 1_555
C6 C5 1_555 1_555
H21 C6 1_555 1_555
C7 C6 1_555 1_555
H22 C7 1_555 1_555
C8 C7 1_555 1_555
O15 C8 1_555 1_555
O16 C8 1_555 1_555
C9 O17 1_555 1_555
H23 O17 1_555 1_555
O17 Na2 1_555 1_555
O18 Na3 1_555 1_555
C10 C9 1_555 1_555
H24 C10 1_555 1_555
C11 C10 1_555 1_555
H25 C11 1_555 1_555
C12 C11 1_555 1_555
O19 C12 1_555 1_555
O20 C12 1_555 1_555
C13 O21 1_555 1_555
H26 O24 1_555 1_555
O21 Na3 1_555 1_555
O22 Na4 1_555 1_555
C14 C13 1_555 1_555
H27 C14 1_555 1_555
C15 C14 1_555 1_555
H28 C15 1_555 1_555
C16 C15 1_555 1_555
O23 C16 1_555 1_555
O24 C16 1_555 1_555
Na5 O1 1_555 1_555
O1A Na5 1_555 1_555
H1A O1A 1_555 1_555
H2A O1A 1_555 1_555
Na1_2 O2_2 1_555 1_555
Na1_3 O12 1_555 1_555
O2_2 H3_2 1_555 1_555
H4_2 O2_2 1_555 1_555
O3_2 Na1_2 1_555 1_555
H5_2 O3_2 1_555 1_555
H6_2 O3_2 1_555 1_555
Na2_2 O4_2 1_555 1_555
Na2_3 O16 1_555 1_555
O4_2 H7_2 1_555 1_555
H8_2 O4_2 1_555 1_555
O5_2 Na2_2 1_555 1_555
H9_2 O5_2 1_555 1_555
H10_2 O5_2 1_555 1_555
Na3A O6A 1_555 1_555
Na3_2 O20 1_555 1_555
Na3A_2 O23A 1_555 1_555
Na3_3 O18_2 1_555 1_555
O6A H11A 1_555 1_555
H12A O6A 1_555 1_555
O7A Na3A 1_555 1_555
H13A O7A 1_555 1_555
H14A O7A 1_555 1_555
Na4_2 O24 1_555 1_555
Na4_3 O24A 1_555 1_555
O8A Na4 1_555 1_555
H15A O8A 1_555 1_555
H16A O8A 1_555 1_555
C1_2 O9_2 1_555 1_555
H17_2 O9_2 1_555 1_555
H17A O9A 1_555 1_555
O9_2 Na5_3 1_555 1_555
O9A Na5 1_555 1_555
O10_2 Na1_2 1_555 1_555
C2_2 C1_2 1_555 1_555
H18_2 C2_2 1_555 1_555
C3_2 C2_2 1_555 1_555
H19_2 C3_2 1_555 1_555
C4_2 C3_2 1_555 1_555
O11_2 Na5 1_555 1_555
O11A Na5 1_555 1_555
O12_2 Na1 1_555 1_555
O12_3 Na1_2 1_555 1_555
C5_2 O13_2 1_555 1_555
H20_2 O16_2 1_555 1_555
H20_3 O16_3 1_555 1_555
O13_2 Na1_2 1_555 1_555
O14_2 Na2_2 1_555 1_555
C6_2 C5_2 1_555 1_555
H21_2 C6_2 1_555 1_555
C7_2 C6_2 1_555 1_555
H22_2 C7_2 1_555 1_555
C8_2 C7_2 1_555 1_555
O15_2 Na1 1_555 1_555
O15_3 Na1_2 1_555 1_555
O16_2 Na2 1_555 1_555
O16_3 Na2_2 1_555 1_555
C9_2 O17_2 1_555 1_555
H23_2 O17_2 1_555 1_555
O17_2 Na2_2 1_555 1_555
O18_2 C9_2 1_555 1_555
O18A Na3A 1_555 1_555
C10_2 C9_2 1_555 1_555
H24_2 C10_2 1_555 1_555
C11_2 C10_2 1_555 1_555
H25_2 C11_2 1_555 1_555
C12_2 C11_2 1_555 1_555
O19_2 Na2 1_555 1_555
O19_3 Na2_2 1_555 1_555
O20_2 Na3 1_555 1_555
O20A Na3A 1_555 1_555
C13A O21A 1_555 1_555
H26A O24A 1_555 1_555
H26_2 O24_2 1_555 1_555
H26A_2 O24A_2 1_555 1_555
O21A Na3A 1_555 1_555
O22A Na4 1_555 1_555
C14A C13A 1_555 1_555
H27A C14A 1_555 1_555
C15A C14A 1_555 1_555
H28A C15A 1_555 1_555
C16A C15A 1_555 1_555
O23A C16A 1_555 1_555
O23_2 Na3 1_555 1_555
O23A_2 Na3A 1_555 1_555
O24A C16A 1_555 1_555
O24_2 Na4 1_555 1_555
O24A_2 Na4 1_555 1_555
Na5_2 O11 1_555 1_555
C1 O10 1_555 1_555
C5 O14 1_555 1_555
O15 Na1_3 1_555 1_555
C9 O18 1_555 1_555
O19 Na2_3 1_555 1_555
C13 O22 1_555 1_555
O23 Na3_2 1_555 1_555
C1_2 O10_2 1_555 1_555
C4_2 O11_2 1_555 1_555
C4_2 O12_2 1_555 1_555
C5_2 O14_2 1_555 1_555
C8_2 O15_2 1_555 1_555
C8_2 O16_2 1_555 1_555
C12_2 O19_2 1_555 1_555
C12_2 O20_2 1_555 1_555
C13A O22A 1_555 1_555

#END
