
#######################################################################
#
#                 Cambridge Crystallographic Data Centre
#                                CCDC 
#
#######################################################################
#
# If this CIF has been generated from an entry in the Cambridge 
# Structural Database, then it will include bibliographic, chemical, 
# crystal, experimental, refinement or atomic coordinate data resulting 
# from the CCDC's data processing and validation procedures.
#
#######################################################################

data_QASRIM01
_symmetry_cell_setting           monoclinic
_symmetry_space_group_name_H-M   'C 2/c'
_symmetry_Int_Tables_number      15
_space_group_name_Hall           '-C 2yn'
loop_
_symmetry_equiv_pos_site_id
_symmetry_equiv_pos_as_xyz
1 x,y,z
2 1/2+x,1/2+y,z
3 -x,y,1/2-z
4 1/2-x,1/2+y,1/2-z
5 -x,-y,-z
6 1/2-x,1/2-y,-z
7 x,-y,1/2+z
8 1/2+x,1/2-y,1/2+z
_cell_length_a                   31.6440(10)
_cell_length_b                   10.9900(10)
_cell_length_c                   33.6830(10)
_cell_angle_alpha                90
_cell_angle_beta                 116.3730(10)
_cell_angle_gamma                90
_cell_volume                     10494.7
loop_
_atom_site_label
_atom_site_type_symbol
_atom_site_fract_x
_atom_site_fract_y
_atom_site_fract_z
Rh1 Rh 0.006055(5) 0.507202(13) 0.043799(4)
Rh2 Rh -0.000535(4) 0.507542(13) 0.124181(4)
Rh3 Rh 0.004376(5) 0.487890(13) 0.209543(5)
Cl1 Cl 0.237588(19) 0.65625(7) 0.12235(2)
Cl2 Cl 0.19049(2) 0.89043(6) 0.09410(2)
Cl3 Cl -0.236712(16) 0.48568(5) 0.049536(19)
Cl4 Cl -0.217194(18) 0.74755(5) 0.06334(2)
Cl5 Cl 0.19021(3) 0.13064(10) 0.24810(3)
Cl6 Cl 0.23588(2) 0.37232(10) 0.27709(2)
O1 O 0.03437(5) 0.67369(13) 0.05395(5)
O2 O 0.07416(5) 0.46453(13) 0.07216(4)
O3 O -0.01842(6) 0.24033(14) 0.03679(5)
O4 O -0.09364(5) 0.60000(17) 0.00457(5)
O5 O -0.04457(4) 0.64840(12) 0.10914(4)
O6 O -0.06239(4) 0.41986(12) 0.09658(4)
O7 O 0.05786(6) 0.28115(17) 0.14123(6)
O8 O 0.08389(6) 0.67361(19) 0.16121(5)
O9 O 0.07252(5) 0.53802(13) 0.23803(5)
O10 O 0.03600(6) 0.32465(13) 0.22263(5)
O11 O -0.09437(6) 0.38809(18) 0.17008(6)
O12 O -0.03140(6) 0.74545(15) 0.19809(5)
C1 C 0.08082(6) 0.67594(17) 0.07063(6)
C2 C 0.10320(6) 0.55865(18) 0.08043(6)
C3 C 0.15279(7) 0.5436(2) 0.09851(6)
C4 C 0.17696(7) 0.6533(2) 0.10242(7)
C5 C 0.15451(7) 0.7690(2) 0.09156(7)
C6 C 0.10652(7) 0.78695(18) 0.07855(6)
C7 C 0.17760(7) 0.4196(2) 0.11329(7)
C8 C 0.14487(8) 0.3108(2) 0.10623(9)
C9 C 0.20543(8) 0.3887(3) 0.08672(9)
C10 C 0.20990(9) 0.4240(3) 0.16319(8)
C11 C 0.08458(9) 0.91445(19) 0.07605(8)
C12 C 0.03292(10) 0.9116(2) 0.06804(10)
C13 C 0.11156(11) 0.9784(2) 0.12130(9)
C14 C 0.08561(10) 0.9920(2) 0.03822(9)
C15 C -0.01206(6) 0.34163(17) 0.03745(6)
C16 C -0.05663(6) 0.56269(18) 0.01845(6)
C17 C -0.08964(6) 0.61910(15) 0.09192(5)
C18 C -0.09961(5) 0.49140(14) 0.08407(6)
C19 C -0.14630(6) 0.44529(16) 0.06415(6)
C20 C -0.17983(6) 0.53045(17) 0.06165(6)
C21 C -0.17011(6) 0.65694(17) 0.06924(6)
C22 C -0.12571(6) 0.70733(15) 0.08090(6)
C23 C -0.15945(7) 0.31609(19) 0.04432(8)
C24 C -0.11912(9) 0.2537(2) 0.03826(10)
C25 C -0.17384(9) 0.2356(2) 0.07361(9)
C26 C -0.19895(9) 0.3249(2) -0.00379(8)
C27 C -0.11761(7) 0.84574(17) 0.07932(6)
C28 C -0.06761(8) 0.8791(2) 0.08616(9)
C29 C -0.15037(8) 0.89079(19) 0.03211(7)
C30 C -0.12563(9) 0.9149(2) 0.11480(8)
C31 C 0.03665(6) 0.36783(19) 0.13588(6)
C32 C 0.05305(6) 0.6082(2) 0.14809(6)
C33 C 0.10281(7) 0.44818(19) 0.24789(6)
C34 C 0.08220(8) 0.32903(19) 0.23880(7)
C35 C 0.10965(11) 0.2210(2) 0.24612(8)
C36 C 0.15586(10) 0.2447(3) 0.25428(8)
C37 C 0.17690(8) 0.3634(3) 0.26549(8)
C38 C 0.15231(7) 0.4672(2) 0.26705(7)
C39 C 0.08577(14) 0.0977(2) 0.24589(10)
C40 C 0.06460(15) 0.1096(3) 0.27957(10)
C41 C 0.1180(2) -0.0131(4) 0.26121(16)
C42 C 0.04565(16) 0.0676(2) 0.19955(11)
C43 C 0.17566(7) 0.5905(3) 0.28752(8)
C44 C 0.21777(12) 0.5714(4) 0.33285(9)
C45 C 0.14268(10) 0.6739(3) 0.29687(17)
C46 C 0.19134(13) 0.6567(5) 0.25619(10)
C47 C -0.05735(7) 0.42653(19) 0.18426(7)
C48 C -0.01930(6) 0.64752(18) 0.20080(6)
H1 H 0.1264 0.3236 0.1217
H2 H 0.1245 0.3014 0.0755
H3 H 0.1631 0.2388 0.1171
H4 H 0.2229 0.3159 0.0979
H5 H 0.1841 0.3778 0.0563
H6 H 0.2265 0.4534 0.0894
H7 H 0.2273 0.3505 0.1724
H8 H 0.2312 0.4907 0.1697
H9 H 0.1915 0.4345 0.1789
H10 H 0.0218 0.9924 0.0674
H11 H 0.0140 0.8736 0.0402
H12 H 0.0302 0.8671 0.0909
H13 H 0.1079 0.9337 0.1437
H14 H 0.1442 0.9831 0.1284
H15 H 0.0995 1.0585 0.1198
H16 H 0.1170 0.9974 0.0416
H17 H 0.0660 0.9557 0.0104
H18 H 0.0742 1.0718 0.0391
H19 H -0.1292 0.1761 0.0249
H20 H -0.1103 0.3024 0.0198
H21 H -0.0926 0.2436 0.0663
H22 H -0.1989 0.2737 0.0775
H23 H -0.1841 0.1585 0.0601
H24 H -0.1476 0.2252 0.1019
H25 H -0.2260 0.3632 -0.0039
H26 H -0.1882 0.3719 -0.0213
H27 H -0.2073 0.2458 -0.0162
H28 H -0.0452 0.8542 0.1150
H29 H -0.0610 0.8386 0.0646
H30 H -0.0653 0.9644 0.0834
H31 H -0.1469 0.9762 0.0304
H32 H -0.1423 0.8512 0.0113
H33 H -0.1823 0.8727 0.0253
H34 H -0.1029 0.8899 0.1434
H35 H -0.1228 0.9997 0.1115
H36 H -0.1565 0.8973 0.1118
H37 H 0.0893 0.1214 0.3087
H38 H 0.0436 0.1772 0.2719
H39 H 0.0477 0.0375 0.2792
H40 H 0.1007 -0.0835 0.2611
H41 H 0.1324 -0.0262 0.2418
H42 H 0.1424 0.0002 0.2904
H43 H 0.0245 0.1351 0.1888
H44 H 0.0584 0.0512 0.1793
H45 H 0.0284 -0.0017 0.2013
H46 H 0.2075 0.5349 0.3526
H47 H 0.2404 0.5202 0.3298
H48 H 0.2321 0.6480 0.3446
H49 H 0.1584 0.7484 0.3094
H50 H 0.1152 0.6899 0.2704
H51 H 0.1340 0.6354 0.3177
H52 H 0.2119 0.6049 0.2498
H53 H 0.1646 0.6758 0.2292
H54 H 0.2077 0.7291 0.2696
Rh1D Rh -0.006055(5) 0.492798(13) -0.043799(4)
Rh3B Rh -0.004376(5) 0.487890(13) 0.290457(5)
loop_
_geom_bond_atom_site_label_1
_geom_bond_atom_site_label_2
_geom_bond_site_symmetry_1
_geom_bond_site_symmetry_2
Rh1 Rh2 1_555 1_555
Rh2 Rh3 1_555 1_555
Rh3 O9 1_555 1_555
Cl1 C4 1_555 1_555
Cl2 C5 1_555 1_555
Cl3 C20 1_555 1_555
Cl4 C21 1_555 1_555
Cl5 C36 1_555 1_555
Cl6 C37 1_555 1_555
O1 Rh1 1_555 1_555
O2 Rh1 1_555 1_555
O3 C15 1_555 1_555
O4 C16 1_555 1_555
O5 Rh2 1_555 1_555
O6 Rh2 1_555 1_555
O7 C31 1_555 1_555
O8 C32 1_555 1_555
O9 C33 1_555 1_555
O10 Rh3 1_555 1_555
O11 C47 1_555 1_555
O12 C48 1_555 1_555
C1 O1 1_555 1_555
C2 O2 1_555 1_555
C3 C2 1_555 1_555
C4 C3 1_555 1_555
C5 C4 1_555 1_555
C6 C1 1_555 1_555
C7 C3 1_555 1_555
C8 C7 1_555 1_555
C9 C7 1_555 1_555
C10 C7 1_555 1_555
C11 C6 1_555 1_555
C12 C11 1_555 1_555
C13 C11 1_555 1_555
C14 C11 1_555 1_555
C15 Rh1 1_555 1_555
C16 Rh1 1_555 1_555
C17 O5 1_555 1_555
C18 O6 1_555 1_555
C19 C18 1_555 1_555
C20 C19 1_555 1_555
C21 C20 1_555 1_555
C22 C17 1_555 1_555
C23 C19 1_555 1_555
C24 C23 1_555 1_555
C25 C23 1_555 1_555
C26 C23 1_555 1_555
C27 C22 1_555 1_555
C28 C27 1_555 1_555
C29 C27 1_555 1_555
C30 C27 1_555 1_555
C31 Rh2 1_555 1_555
C32 Rh2 1_555 1_555
C33 C34 1_555 1_555
C34 O10 1_555 1_555
C35 C34 1_555 1_555
C36 C35 1_555 1_555
C37 C36 1_555 1_555
C38 C33 1_555 1_555
C39 C35 1_555 1_555
C40 C39 1_555 1_555
C41 C39 1_555 1_555
C42 C39 1_555 1_555
C43 C38 1_555 1_555
C44 C43 1_555 1_555
C45 C43 1_555 1_555
C46 C43 1_555 1_555
C47 Rh3 1_555 1_555
C48 Rh3 1_555 1_555
H1 C8 1_555 1_555
H2 C8 1_555 1_555
H3 C8 1_555 1_555
H4 C9 1_555 1_555
H5 C9 1_555 1_555
H6 C9 1_555 1_555
H7 C10 1_555 1_555
H8 C10 1_555 1_555
H9 C10 1_555 1_555
H10 C12 1_555 1_555
H11 C12 1_555 1_555
H12 C12 1_555 1_555
H13 C13 1_555 1_555
H14 C13 1_555 1_555
H15 C13 1_555 1_555
H16 C14 1_555 1_555
H17 C14 1_555 1_555
H18 C14 1_555 1_555
H19 C24 1_555 1_555
H20 C24 1_555 1_555
H21 C24 1_555 1_555
H22 C25 1_555 1_555
H23 C25 1_555 1_555
H24 C25 1_555 1_555
H25 C26 1_555 1_555
H26 C26 1_555 1_555
H27 C26 1_555 1_555
H28 C28 1_555 1_555
H29 C28 1_555 1_555
H30 C28 1_555 1_555
H31 C29 1_555 1_555
H32 C29 1_555 1_555
H33 C29 1_555 1_555
H34 C30 1_555 1_555
H35 C30 1_555 1_555
H36 C30 1_555 1_555
H37 C40 1_555 1_555
H38 C40 1_555 1_555
H39 C40 1_555 1_555
H40 C41 1_555 1_555
H41 C41 1_555 1_555
H42 C41 1_555 1_555
H43 C42 1_555 1_555
H44 C42 1_555 1_555
H45 C42 1_555 1_555
H46 C44 1_555 1_555
H47 C44 1_555 1_555
H48 C44 1_555 1_555
H49 C45 1_555 1_555
H50 C45 1_555 1_555
H51 C45 1_555 1_555
H52 C46 1_555 1_555
H53 C46 1_555 1_555
H54 C46 1_555 1_555
Rh1D Rh1 1_555 1_555
Rh3B Rh3 1_555 1_555
C1 C2 1_555 1_555
C5 C6 1_555 1_555
C17 C18 1_555 1_555
C21 C22 1_555 1_555
C37 C38 1_555 1_555

#END
