
#######################################################################
#
#                 Cambridge Crystallographic Data Centre
#                                CCDC 
#
#######################################################################
#
# If this CIF has been generated from an entry in the Cambridge 
# Structural Database, then it will include bibliographic, chemical, 
# crystal, experimental, refinement or atomic coordinate data resulting 
# from the CCDC's data processing and validation procedures.
#
#######################################################################

data_QATBAQ
_symmetry_cell_setting           monoclinic
_symmetry_space_group_name_H-M   'C 2/c'
_symmetry_Int_Tables_number      15
_space_group_name_Hall           '-C 2yn'
loop_
_symmetry_equiv_pos_site_id
_symmetry_equiv_pos_as_xyz
1 x,y,z
2 -x,y,1/2-z
3 1/2+x,1/2+y,z
4 1/2-x,1/2+y,1/2-z
5 -x,-y,-z
6 x,-y,1/2+z
7 1/2-x,1/2-y,-z
8 1/2+x,1/2-y,1/2+z
_cell_length_a                   13.795(3)
_cell_length_b                   14.615(3)
_cell_length_c                   25.803(5)
_cell_angle_alpha                90
_cell_angle_beta                 104.82(3)
_cell_angle_gamma                90
_cell_volume                     5029.19
loop_
_atom_site_label
_atom_site_type_symbol
_atom_site_fract_x
_atom_site_fract_y
_atom_site_fract_z
I1 I 0.54753(3) 0.22969(3) 0.601910(15)
I2 I 0.60142(3) -0.06842(3) 0.669453(16)
I3 I 0.34737(3) -0.01493(3) 0.508379(15)
I4 I 0.17519(3) 0.21220(3) 0.563717(15)
Ag1 Ag 0.68344(3) 0.10719(3) 0.660891(17)
Ag2 Ag 0.54351(4) 0.02265(5) 0.57120(2)
Ag3 Ag 0.35420(4) 0.17806(4) 0.529345(19)
N1 N 0.8533(4) 0.1086(4) 0.65527(18)
N2 N 0.8871(4) 0.1761(3) 0.57985(19)
N3 N 0.8928(4) 0.0166(4) 0.58983(19)
N4 N 0.7961(4) 0.1073(4) 0.74614(18)
N5 N 0.6856(4) 0.1253(4) 0.79963(19)
N6 N 0.7846(4) -0.0056(4) 0.8098(2)
C1 C 0.9268(5) 0.1081(4) 0.6992(2)
C2 C 0.8952(4) 0.1080(4) 0.7513(2)
C3 C 1.0305(5) 0.1085(4) 0.7013(2)
H1 H 1.0494 0.1091 0.6692
C4 C 0.8794(4) 0.1003(4) 0.6060(2)
C5 C 0.8909(6) 0.2650(5) 0.6065(3)
H2 H 0.9183 0.2574 0.6444
H3 H 0.8244 0.2898 0.5999
H4 H 0.9326 0.3061 0.5927
C6 C 0.8792(5) 0.1831(5) 0.5217(2)
H5 H 0.9451 0.1851 0.5159
H6 H 0.8434 0.2378 0.5078
H7 H 0.8438 0.1308 0.5036
C7 C 0.9486(5) -0.0047(5) 0.5498(2)
H8 H 0.9928 0.0451 0.5477
H9 H 0.9023 -0.0137 0.5155
H10 H 0.9872 -0.0595 0.5602
C8 C 0.8578(5) -0.0649(4) 0.6131(2)
H11 H 0.9117 -0.0892 0.6409
H12 H 0.8359 -0.1102 0.5857
H13 H 0.8030 -0.0484 0.6278
C9 C 0.7582(4) 0.0764(5) 0.7868(2)
C10 C 0.6761(5) 0.2229(5) 0.7870(2)
H14 H 0.7412 0.2480 0.7889
H15 H 0.6472 0.2536 0.8124
H16 H 0.6337 0.2312 0.7515
C11 C 0.6015(5) 0.0828(5) 0.8161(2)
H17 H 0.5402 0.1136 0.7989
H18 H 0.6128 0.0875 0.8543
H19 H 0.5965 0.0194 0.8059
C12 C 0.7742(5) -0.0287(5) 0.8638(2)
H20 H 0.7688 0.0266 0.8830
H21 H 0.8319 -0.0626 0.8828
H22 H 0.7150 -0.0651 0.8606
C13 C 0.8339(5) -0.0755(4) 0.7856(2)
H23 H 0.8225 -0.0635 0.7479
H24 H 0.8072 -0.1345 0.7907
H25 H 0.9047 -0.0746 0.8021
I1A I 1.45247(3) 0.22969(3) 0.898090(15)
I2A I 1.39858(3) -0.06842(3) 0.830547(16)
I3D I 0.65263(3) 0.01493(3) 0.491621(15)
I3A I 1.65263(3) -0.01493(3) 0.991621(15)
I3E I 1.34737(3) 0.01493(3) 1.008379(15)
I4F I 0.32481(3) 0.28780(3) 0.436283(15)
I4A I 1.82481(3) 0.21220(3) 0.936283(15)
I4G I 1.67519(3) 0.28780(3) 1.063717(15)
Ag1A Ag 1.31656(3) 0.10719(3) 0.839109(17)
Ag2A Ag 1.45649(4) 0.02265(5) 0.92880(2)
Ag2D Ag 0.45649(4) -0.02265(5) 0.42880(2)
Ag3A Ag 1.64580(4) 0.17806(4) 0.970655(19)
Ag3F Ag 0.14580(4) 0.32194(4) 0.470655(19)
Ag3D Ag 0.64580(4) -0.17806(4) 0.470655(19)
N1A N 1.1467(4) 0.1086(4) 0.84473(18)
N2A N 1.1129(4) 0.1761(3) 0.92015(19)
N3A N 1.1072(4) 0.0166(4) 0.91017(19)
N4A N 1.2039(4) 0.1073(4) 0.75386(18)
N5A N 1.3144(4) 0.1253(4) 0.70037(19)
N6A N 1.2154(4) -0.0056(4) 0.6902(2)
C1A C 1.0732(5) 0.1081(4) 0.8008(2)
C2A C 1.1048(4) 0.1080(4) 0.7487(2)
C3A C 0.9695(5) 0.1085(4) 0.7987(2)
H1A H 0.9506 0.1091 0.8308
C4A C 1.1206(4) 0.1003(4) 0.8940(2)
C5A C 1.1091(6) 0.2650(5) 0.8935(3)
H2A H 1.0817 0.2574 0.8556
H3A H 1.1756 0.2898 0.9001
H4A H 1.0674 0.3061 0.9073
C6A C 1.1208(5) 0.1831(5) 0.9783(2)
H5A H 1.0549 0.1851 0.9841
H6A H 1.1566 0.2378 0.9922
H7A H 1.1562 0.1308 0.9964
C7A C 1.0514(5) -0.0047(5) 0.9502(2)
H8A H 1.0072 0.0451 0.9523
H9A H 1.0977 -0.0137 0.9845
H10A H 1.0128 -0.0595 0.9398
C8A C 1.1422(5) -0.0649(4) 0.8869(2)
H11A H 1.0883 -0.0892 0.8591
H12A H 1.1641 -0.1102 0.9143
H13A H 1.1970 -0.0484 0.8722
C9A C 1.2418(4) 0.0764(5) 0.7132(2)
C10A C 1.3239(5) 0.2229(5) 0.7130(2)
H14A H 1.2588 0.2480 0.7111
H15A H 1.3528 0.2536 0.6876
H16A H 1.3663 0.2312 0.7485
C11A C 1.3985(5) 0.0828(5) 0.6839(2)
H17A H 1.4598 0.1136 0.7011
H18A H 1.3872 0.0875 0.6457
H19A H 1.4035 0.0194 0.6941
C12A C 1.2258(5) -0.0287(5) 0.6362(2)
H20A H 1.2312 0.0266 0.6170
H21A H 1.1681 -0.0626 0.6172
H22A H 1.2850 -0.0651 0.6394
C13A C 1.1661(5) -0.0755(4) 0.7144(2)
H23A H 1.1775 -0.0635 0.7521
H24A H 1.1928 -0.1345 0.7093
H25A H 1.0953 -0.0746 0.6979
loop_
_geom_bond_atom_site_label_1
_geom_bond_atom_site_label_2
_geom_bond_site_symmetry_1
_geom_bond_site_symmetry_2
I1 Ag1 1_555 1_555
I2 Ag1 1_555 1_555
I3 Ag2 1_555 1_555
I4 Ag3 1_555 1_555
Ag1 N1 1_555 1_555
Ag2 I1 1_555 1_555
Ag3 I1 1_555 1_555
N1 C1 1_555 1_555
N2 C4 1_555 1_555
N3 C4 1_555 1_555
N4 Ag1 1_555 1_555
N5 C9 1_555 1_555
N6 C9 1_555 1_555
C1 C2 1_555 1_555
C2 N4 1_555 1_555
C3 C1 1_555 1_555
H1 C3 1_555 1_555
C4 N1 1_555 1_555
C5 N2 1_555 1_555
H2 C5 1_555 1_555
H3 C5 1_555 1_555
H4 C5 1_555 1_555
C6 N2 1_555 1_555
H5 C6 1_555 1_555
H6 C6 1_555 1_555
H7 C6 1_555 1_555
C7 N3 1_555 1_555
H8 C7 1_555 1_555
H9 C7 1_555 1_555
H10 C7 1_555 1_555
C8 N3 1_555 1_555
H11 C8 1_555 1_555
H12 C8 1_555 1_555
H13 C8 1_555 1_555
C9 N4 1_555 1_555
C10 N5 1_555 1_555
H14 C10 1_555 1_555
H15 C10 1_555 1_555
H16 C10 1_555 1_555
C11 N5 1_555 1_555
H17 C11 1_555 1_555
H18 C11 1_555 1_555
H19 C11 1_555 1_555
C12 N6 1_555 1_555
H20 C12 1_555 1_555
H21 C12 1_555 1_555
H22 C12 1_555 1_555
C13 N6 1_555 1_555
H23 C13 1_555 1_555
H24 C13 1_555 1_555
H25 C13 1_555 1_555
I1A Ag1A 1_555 1_555
I2A Ag1A 1_555 1_555
I3D Ag2 1_555 1_555
I3A Ag2A 1_555 1_555
I3E Ag2A 1_555 1_555
I4F Ag3 1_555 1_555
I4A Ag3A 1_555 1_555
I4G Ag3A 1_555 1_555
Ag1A N1A 1_555 1_555
Ag2A I1A 1_555 1_555
Ag2D I3 1_555 1_555
Ag3A I1A 1_555 1_555
Ag3F I4 1_555 1_555
Ag3D I3D 1_555 1_555
N1A C1A 1_555 1_555
N2A C4A 1_555 1_555
N3A C4A 1_555 1_555
N4A Ag1A 1_555 1_555
N5A C9A 1_555 1_555
N6A C9A 1_555 1_555
C1A C2A 1_555 1_555
C2A C3 1_555 1_555
C3A C2 1_555 1_555
H1A C3A 1_555 1_555
C4A N1A 1_555 1_555
C5A N2A 1_555 1_555
H2A C5A 1_555 1_555
H3A C5A 1_555 1_555
H4A C5A 1_555 1_555
C6A N2A 1_555 1_555
H5A C6A 1_555 1_555
H6A C6A 1_555 1_555
H7A C6A 1_555 1_555
C7A N3A 1_555 1_555
H8A C7A 1_555 1_555
H9A C7A 1_555 1_555
H10A C7A 1_555 1_555
C8A N3A 1_555 1_555
H11A C8A 1_555 1_555
H12A C8A 1_555 1_555
H13A C8A 1_555 1_555
C9A N4A 1_555 1_555
C10A N5A 1_555 1_555
H14A C10A 1_555 1_555
H15A C10A 1_555 1_555
H16A C10A 1_555 1_555
C11A N5A 1_555 1_555
H17A C11A 1_555 1_555
H18A C11A 1_555 1_555
H19A C11A 1_555 1_555
C12A N6A 1_555 1_555
H20A C12A 1_555 1_555
H21A C12A 1_555 1_555
H22A C12A 1_555 1_555
C13A N6A 1_555 1_555
H23A C13A 1_555 1_555
H24A C13A 1_555 1_555
H25A C13A 1_555 1_555
I2 Ag2 1_555 1_555
I3 Ag3 1_555 1_555
I2A Ag2A 1_555 1_555
I3D Ag2D 1_555 1_555
I3A Ag3A 1_555 1_555
I4F Ag3F 1_555 1_555
N4A C2A 1_555 1_555
C1A C3A 1_555 1_555

#END
