
#######################################################################
#
#                 Cambridge Crystallographic Data Centre
#                                CCDC 
#
#######################################################################
#
# If this CIF has been generated from an entry in the Cambridge 
# Structural Database, then it will include bibliographic, chemical, 
# crystal, experimental, refinement or atomic coordinate data resulting 
# from the CCDC's data processing and validation procedures.
#
#######################################################################

data_QATDAQ
_symmetry_cell_setting           orthorhombic
_symmetry_space_group_name_H-M   'P n n a'
_symmetry_Int_Tables_number      52
_space_group_name_Hall           '-P 2a 2bc'
loop_
_symmetry_equiv_pos_site_id
_symmetry_equiv_pos_as_xyz
1 x,y,z
2 1/2+x,y,-z
3 1/2+x,1/2-y,1/2+z
4 -x,1/2+y,1/2+z
5 -x,-y,-z
6 1/2-x,-y,z
7 1/2-x,1/2+y,1/2-z
8 x,1/2-y,1/2-z
_cell_length_a                   39.824(3)
_cell_length_b                   15.5840(9)
_cell_length_c                   11.2915(9)
_cell_angle_alpha                90
_cell_angle_beta                 90
_cell_angle_gamma                90
_cell_volume                     7007.7
loop_
_atom_site_label
_atom_site_type_symbol
_atom_site_fract_x
_atom_site_fract_y
_atom_site_fract_z
Ni1 Ni -0.2500 0.5000 -0.47291(3)
N1 N -0.25781(6) 0.30266(14) -0.48950(19)
O1 O -0.25117(7) 0.25230(16) -0.5703(2)
O2 O -0.28206(6) 0.28890(15) -0.4241(2)
O3 O -0.23917(5) 0.36788(12) -0.47404(15)
N2 N 0.19767(5) 0.48995(13) -0.52344(17)
C23 C 0.18057(6) 0.44549(17) -0.4413(2)
H23 H 0.1929 0.4116 -0.3867
C24 C 0.14597(7) 0.44634(19) -0.4319(2)
H24 H 0.1352 0.4138 -0.3717
C25 C 0.12689(7) 0.49493(18) -0.5107(2)
C26 C 0.14465(6) 0.54099(19) -0.5958(2)
H25 H 0.1329 0.5751 -0.6518
C27 C 0.17912(6) 0.53726(18) -0.5991(2)
H26 H 0.1905 0.5698 -0.6578
C28 C 0.08965(7) 0.4973(2) -0.5058(3)
C29 C 0.07220(10) 0.4713(6) -0.4105(5)
H27 H 0.0841 0.4516 -0.3428
C30 C 0.03727(10) 0.4724(7) -0.4077(6)
H28 H 0.0261 0.4536 -0.3381
C31 C 0.01871(8) 0.4995(3) -0.5012(4)
C32 C 0.03609(8) 0.5240(3) -0.5982(3)
H29 H 0.0241 0.5426 -0.6664
C33 C 0.07086(8) 0.5228(3) -0.6009(3)
H30 H 0.0820 0.5402 -0.6712
N3 N -0.2500 0.5000 -0.6600(2)
C34 C -0.23631(7) 0.43543(16) -0.7219(2)
H31 H -0.2262 0.3896 -0.6795
C35 C -0.23624(7) 0.43227(17) -0.8443(2)
H32 H -0.2269 0.3843 -0.8845
C36 C -0.2500 0.5000 -0.9079(3)
N4 N -0.2500 0.5000 -1.2870(2)
C37 C -0.23952(6) 0.56859(16) -1.2254(2)
H33 H -0.2682 0.3827 -1.2678
C38 C -0.23950(7) 0.57168(17) -1.1026(2)
H34 H -0.2676 0.3780 -1.0622
C39 C -0.2500 0.5000 -1.0396(3)
C31D C -0.01871(8) 0.5005(3) -0.4988(4)
C30D C -0.03727(10) 0.5276(7) -0.5923(6)
C29D C -0.07220(10) 0.5287(6) -0.5895(5)
C28D C -0.08965(7) 0.5027(2) -0.4942(3)
C25D C -0.12689(7) 0.50507(18) -0.4893(2)
C24D C -0.14597(7) 0.55366(19) -0.5681(2)
C23D C -0.18057(6) 0.55451(17) -0.5587(2)
N2D N -0.19767(5) 0.51005(13) -0.47656(17)
Ni1A Ni 0.2500 0.5000 -0.52709(3)
O3E O -0.26083(5) 0.63212(12) -0.47404(15)
N1E N -0.24219(6) 0.69734(14) -0.48950(19)
O1E O -0.24883(7) 0.74770(16) -0.5703(2)
O2E O -0.21794(6) 0.71110(15) -0.4241(2)
N2A N -0.30233(5) 0.48995(13) -0.47656(17)
C35E C -0.26376(7) 0.56773(17) -0.8443(2)
C34E C -0.26369(7) 0.56457(16) -0.7219(2)
H31E H -0.2738 0.6104 -0.6795
H32E H -0.2731 0.6157 -0.8845
Ni1_2 Ni -0.2500 0.5000 -1.47291(3)
C37E C -0.26048(6) 0.43141(16) -1.2254(2)
C38E C -0.26050(7) 0.42832(17) -1.1026(2)
H33E H -0.2318 0.6173 -1.2678
H34E H -0.2324 0.6220 -1.0622
N4_2 N -0.2500 0.5000 -0.2870(2)
C27D C -0.17912(6) 0.46274(18) -0.4009(2)
C26D C -0.14465(6) 0.45901(19) -0.4042(2)
H25D H -0.1329 0.4249 -0.3482
H26D H -0.1905 0.4302 -0.3422
H23D H -0.1929 0.5884 -0.6133
H24D H -0.1352 0.5862 -0.6283
C33D C -0.07086(8) 0.4772(3) -0.3991(3)
C32D C -0.03609(8) 0.4760(3) -0.4018(3)
H29D H -0.0241 0.4574 -0.3336
H30D H -0.0820 0.4598 -0.3288
H27D H -0.0841 0.5484 -0.6572
H28D H -0.0261 0.5464 -0.6619
C1 C 0.10904(19) 0.2500 -0.2500
H1 H 0.0852 0.2500 -0.2500
C2 C 0.12679(15) 0.2909(3) -0.1600(4)
H2 H 0.1151 0.3193 -0.0981
C3 C 0.16085(13) 0.2898(3) -0.1611(4)
H3 H 0.1730 0.3171 -0.0992
C4 C 0.17762(17) 0.2500 -0.2500
H4 H 0.2015 0.2500 -0.2500
C3G C 0.16085(13) 0.2102(3) -0.3389(4)
C2G C 0.12679(15) 0.2091(3) -0.3400(4)
H2G H 0.1151 0.1807 -0.4019
H3G H 0.1730 0.1829 -0.4008
C5 C 0.1908(2) 0.7500 -0.7500
H5 H 0.2147 0.7500 -0.7500
C6 C 0.17420(16) 0.7104(3) -0.8390(4)
H6 H 0.1865 0.6834 -0.9007
C7 C 0.14018(17) 0.7091(3) -0.8408(4)
H7 H 0.1287 0.6807 -0.9032
C8 C 0.1219(2) 0.7500 -0.7500
H8 H 0.0980 0.7500 -0.7500
C7G C 0.14018(17) 0.7909(3) -0.6592(4)
C6G C 0.17420(16) 0.7896(3) -0.6610(4)
H6G H 0.1865 0.8166 -0.5993
H7G H 0.1287 0.8193 -0.5968
C9 C 0.08374(19) 0.2500 -0.7500
H9 H 0.0599 0.2500 -0.7500
C10 C 0.10304(15) 0.2817(3) -0.6509(4)
H10 H 0.0921 0.3036 -0.5826
C11 C 0.13665(13) 0.2796(3) -0.6567(4)
H11 H 0.1492 0.3002 -0.5911
C12 C 0.15301(19) 0.2500 -0.7500
H12 H 0.1769 0.2500 -0.7500
C11G C 0.13665(13) 0.2204(3) -0.8433(4)
C10G C 0.10304(15) 0.2183(3) -0.8491(4)
H10G H 0.0921 0.1964 -0.9174
H11G H 0.1492 0.1998 -0.9089
C13 C 0.10545(18) 0.4594(3) 0.0973(4)
H13 H 0.0960 0.4306 0.1634
C14 C 0.14007(16) 0.4605(2) 0.0818(3)
H14 H 0.1542 0.4325 0.1373
C15 C 0.15396(9) 0.5027(2) -0.0150(4)
H15 H 0.1776 0.5035 -0.0256
C16 C 0.13323(13) 0.5437(3) -0.0963(3)
H16 H 0.1427 0.5725 -0.1624
C17 C 0.09861(12) 0.5426(3) -0.0807(5)
H17 H 0.0844 0.5706 -0.1363
C18 C 0.08472(10) 0.5004(4) 0.0160(7)
H18 H 0.0611 0.4996 0.0267
C19 C 0.10925(13) 0.7500 -0.2500
H19 H 0.0854 0.7500 -0.2500
C20 C 0.12676(10) 0.7144(2) -0.3447(3)
H20 H 0.1149 0.6899 -0.4095
C21 C 0.16121(9) 0.7148(2) -0.3443(3)
H21 H 0.1732 0.6908 -0.4090
C22 C 0.17847(12) 0.7500 -0.2500
H22 H 0.2023 0.7500 -0.2500
C21G C 0.16121(9) 0.7852(2) -0.1557(3)
C20G C 0.12676(10) 0.7856(2) -0.1553(3)
H20G H 0.1149 0.8101 -0.0905
H21G H 0.1732 0.8092 -0.0910
C40 C 0.0239(3) 0.310(2) -0.0461(17)
C41 C -0.0368(4) 0.2750(15) -0.0051(15)
C42 C 0.0092(5) 0.3596(16) 0.0506(17)
C43 C -0.0151(6) 0.3097(17) 0.095(2)
C44 C -0.0234(6) 0.2662(14) -0.119(3)
C45 C 0.0052(5) 0.3154(15) -0.146(2)
C46? C 0.0093(5) 0.2254(12) 1.0363(18)
C47? C 0.0086(8) 0.3653(17) 0.922(3)
C48? C -0.0252(6) 0.2353(17) 1.056(2)
C49? C -0.0274(6) 0.3516(16) 0.9256(17)
loop_
_geom_bond_atom_site_label_1
_geom_bond_atom_site_label_2
_geom_bond_site_symmetry_1
_geom_bond_site_symmetry_2
Ni1 O3 1_555 1_555
N1 O1 1_555 1_555
O2 N1 1_555 1_555
O3 N1 1_555 1_555
C1 H1 1_555 1_555
C2 C1 1_555 1_555
H2 C2 1_555 1_555
C3 C2 1_555 1_555
H3 C3 1_555 1_555
C4 C3 1_555 1_555
H4 C4 1_555 1_555
C5 H5 1_555 1_555
C6 C5 1_555 1_555
H6 C6 1_555 1_555
C7 C6 1_555 1_555
H7 C7 1_555 1_555
C8 C7 1_555 1_555
H8 C8 1_555 1_555
C9 H9 1_555 1_555
C10 C9 1_555 1_555
H10 C10 1_555 1_555
C11 C10 1_555 1_555
H11 C11 1_555 1_555
C12 C11 1_555 1_555
H12 C12 1_555 1_555
C13 H13 1_555 1_555
C14 C13 1_555 1_555
H14 C14 1_555 1_555
C15 C14 1_555 1_555
H15 C15 1_555 1_555
C16 C15 1_555 1_555
H16 C16 1_555 1_555
C17 C16 1_555 1_555
H17 C17 1_555 1_555
C18 C13 1_555 1_555
H18 C18 1_555 1_555
C19 H19 1_555 1_555
C20 C19 1_555 1_555
H20 C20 1_555 1_555
C21 C20 1_555 1_555
H21 C21 1_555 1_555
C22 C21 1_555 1_555
H22 C22 1_555 1_555
N2 C23 1_555 1_555
C23 H23 1_555 1_555
C24 C23 1_555 1_555
H24 C24 1_555 1_555
C25 C24 1_555 1_555
C26 C25 1_555 1_555
H25 C26 1_555 1_555
C27 N2 1_555 1_555
H26 C27 1_555 1_555
C28 C25 1_555 1_555
C29 C28 1_555 1_555
H27 C29 1_555 1_555
C30 C29 1_555 1_555
H28 C30 1_555 1_555
C31 C30 1_555 1_555
C32 C31 1_555 1_555
H29 C32 1_555 1_555
C33 C28 1_555 1_555
H30 C33 1_555 1_555
N3 Ni1 1_555 1_555
C34 N3 1_555 1_555
H31 C34 1_555 1_555
C35 C34 1_555 1_555
H32 C35 1_555 1_555
C36 C35 1_555 1_555
N4 C37 1_555 1_555
C37 C38 1_555 1_555
H33 C37E 1_555 1_555
C38 C39 1_555 1_555
H34 C38E 1_555 1_555
C39 C36 1_555 1_555
C40 C42 1_555 1_555
C41 C43 1_555 1_555
C42 C43 1_555 1_555
C44 C41 1_555 1_555
C45 C40 1_555 1_555
C31D C31 1_555 1_555
C30D C31D 1_555 1_555
C29D C30D 1_555 1_555
C28D C29D 1_555 1_555
C25D C28D 1_555 1_555
C24D C25D 1_555 1_555
C23D C24D 1_555 1_555
N2D Ni1 1_555 1_555
Ni1A N2 1_555 1_555
O3E Ni1 1_555 1_555
N1E O3E 1_555 1_555
O1E N1E 1_555 1_555
O2E N1E 1_555 1_555
N2A Ni1 1_555 1_555
C35E C36 1_555 1_555
C34E N3 1_555 1_555
H31E C34E 1_555 1_555
H32E C35E 1_555 1_555
Ni1_2 N4 1_555 1_555
C37E N4 1_555 1_555
C38E C39 1_555 1_555
H33E C37 1_555 1_555
H34E C38 1_555 1_555
N4_2 Ni1 1_555 1_555
C27D N2D 1_555 1_555
C26D C25D 1_555 1_555
H25D C26D 1_555 1_555
H26D C27D 1_555 1_555
H23D C23D 1_555 1_555
H24D C24D 1_555 1_555
C33D C28D 1_555 1_555
C32D C31D 1_555 1_555
H29D C32D 1_555 1_555
H30D C33D 1_555 1_555
H27D C29D 1_555 1_555
H28D C30D 1_555 1_555
C3G C4 1_555 1_555
C2G C1 1_555 1_555
H2G C2G 1_555 1_555
H3G C3G 1_555 1_555
C7G C8 1_555 1_555
C6G C5 1_555 1_555
H6G C6G 1_555 1_555
H7G C7G 1_555 1_555
C11G C12 1_555 1_555
C10G C9 1_555 1_555
H10G C10G 1_555 1_555
H11G C11G 1_555 1_555
C21G C22 1_555 1_555
C20G C19 1_555 1_555
H20G C20G 1_555 1_555
H21G C21G 1_555 1_555
C17 C18 1_555 1_555
C26 C27 1_555 1_555
C32 C33 1_555 1_555
C44 C45 1_555 1_555
C23D N2D 1_555 1_555
C35E C34E 1_555 1_555
C37E C38E 1_555 1_555
C27D C26D 1_555 1_555
C33D C32D 1_555 1_555
C3G C2G 1_555 1_555
C7G C6G 1_555 1_555
C11G C10G 1_555 1_555
C21G C20G 1_555 1_555

#END
