
#######################################################################
#
#                 Cambridge Crystallographic Data Centre
#                                CCDC 
#
#######################################################################
#
# If this CIF has been generated from an entry in the Cambridge 
# Structural Database, then it will include bibliographic, chemical, 
# crystal, experimental, refinement or atomic coordinate data resulting 
# from the CCDC's data processing and validation procedures.
#
#######################################################################

data_QATHAW
_symmetry_cell_setting           monoclinic
_symmetry_space_group_name_H-M   'C 2/c'
_symmetry_Int_Tables_number      15
_space_group_name_Hall           '-C 2yn'
loop_
_symmetry_equiv_pos_site_id
_symmetry_equiv_pos_as_xyz
1 x,y,z
2 -x,y,1/2-z
3 1/2+x,1/2+y,z
4 1/2-x,1/2+y,1/2-z
5 -x,-y,-z
6 x,-y,1/2+z
7 1/2-x,1/2-y,-z
8 1/2+x,1/2-y,1/2+z
_cell_length_a                   11.5045(3)
_cell_length_b                   12.0723(3)
_cell_length_c                   21.0149(6)
_cell_angle_alpha                90
_cell_angle_beta                 98.5970(10)
_cell_angle_gamma                90
_cell_volume                     2885.88
loop_
_atom_site_label
_atom_site_type_symbol
_atom_site_fract_x
_atom_site_fract_y
_atom_site_fract_z
Co1 Co 0.40043(2) 0.091303(18) 0.010484(11)
C1 C 0.25750(18) -0.07213(16) 0.07844(9)
H1 H 0.2288 -0.0920 0.0363
C2 C 0.20752(18) -0.12193(16) 0.12706(9)
H2 H 0.1470 -0.1732 0.1178
C3 C 0.25026(16) -0.09318(15) 0.18986(9)
C4 C 0.34223(18) -0.01873(18) 0.20082(9)
H3 H 0.3744 0.0005 0.2426
C5 C 0.38554(17) 0.02644(17) 0.14917(9)
H4 H 0.4473 0.0766 0.1573
C6 C 0.10240(16) -0.18853(14) 0.24180(9)
H5 H 0.1102 -0.2437 0.2757
H6 H 0.0845 -0.2269 0.2010
C7 C 0.12133(18) 0.30097(15) 0.12216(9)
H7 H 0.1714 0.3605 0.1336
C8 C 0.11651(18) 0.21842(16) 0.16606(9)
H8 H 0.1625 0.2221 0.2064
C9 C 0.04246(16) 0.12903(14) 0.15000(8)
C10 C -0.02930(17) 0.12895(16) 0.09101(9)
H9 H -0.0833 0.0724 0.0795
C11 C -0.01762(17) 0.21621(16) 0.04994(9)
H10 H -0.0655 0.2163 0.0101
C12 C -0.03541(16) -0.03783(14) 0.19040(8)
H11 H -0.0358 -0.0808 0.1514
H12 H -0.1131 -0.0067 0.1905
C13 C 0.0000 -0.11042(18) 0.2500
N1 N 0.58287(13) 0.05677(12) 0.04341(7)
N2 N 0.63589(13) 0.07890(12) 0.09547(8)
N3 N 0.68596(18) 0.10022(16) 0.14544(9)
N4 N 0.39999(15) 0.24012(13) 0.07086(8)
N5 N 0.34109(13) 0.31536(12) 0.05016(7)
N6 N 0.28528(14) 0.39246(13) 0.03074(8)
N7 N 0.34383(13) 0.00226(12) 0.08779(7)
N8 N 0.05734(14) 0.30044(12) 0.06318(7)
O1 O 0.21177(11) -0.13120(11) 0.24380(6)
O2 O 0.05100(11) 0.04798(10) 0.19436(6)
Co1D Co 0.59957(2) -0.091303(18) -0.010484(11)
Co1F Co 0.09957(2) 0.408697(18) -0.010484(11)
Co1A Co -0.40043(2) 0.091303(18) 0.489516(11)
Co1G Co -0.09957(2) 0.408697(18) 0.510484(11)
C1A C -0.25750(18) -0.07213(16) 0.42156(9)
H1A H -0.2288 -0.0920 0.4637
C2A C -0.20752(18) -0.12193(16) 0.37294(9)
H2A H -0.1470 -0.1732 0.3822
C3A C -0.25026(16) -0.09318(15) 0.31014(9)
C4A C -0.34223(18) -0.01873(18) 0.29918(9)
H3A H -0.3744 0.0005 0.2574
C5A C -0.38554(17) 0.02644(17) 0.35083(9)
H4A H -0.4473 0.0766 0.3427
C6A C -0.10240(16) -0.18853(14) 0.25820(9)
H5A H -0.1102 -0.2437 0.2243
H6A H -0.0845 -0.2269 0.2990
C7A C -0.12133(18) 0.30097(15) 0.37784(9)
H7A H -0.1714 0.3605 0.3664
C8A C -0.11651(18) 0.21842(16) 0.33394(9)
H8A H -0.1625 0.2221 0.2936
C9A C -0.04246(16) 0.12903(14) 0.35000(8)
C10A C 0.02930(17) 0.12895(16) 0.40899(9)
H9A H 0.0833 0.0724 0.4205
C11A C 0.01762(17) 0.21621(16) 0.45006(9)
H10A H 0.0655 0.2163 0.4899
C12A C 0.03541(16) -0.03783(14) 0.30960(8)
H11A H 0.0358 -0.0808 0.3486
H12A H 0.1131 -0.0067 0.3095
N1D N 0.41713(13) -0.05677(12) -0.04341(7)
N2D N 0.36411(13) -0.07890(12) -0.09547(8)
N3D N 0.31404(18) -0.10022(16) -0.14544(9)
N4F N 0.10001(15) 0.25988(13) -0.07086(8)
N4D N 0.60001(15) -0.24012(13) -0.07086(8)
N5F N 0.15891(13) 0.18464(12) -0.05016(7)
N6F N 0.21472(14) 0.10754(13) -0.03074(8)
N6B N 0.78528(14) -0.10754(13) 0.03074(8)
N7A N -0.34383(13) 0.00226(12) 0.41221(7)
N7D N 0.65617(13) -0.00226(12) -0.08779(7)
N8A N -0.05734(14) 0.30044(12) 0.43682(7)
N8F N 0.44266(14) 0.19956(12) -0.06318(7)
N8B N 0.55734(14) -0.19956(12) 0.06318(7)
O1A O -0.21177(11) -0.13120(11) 0.25620(6)
O2A O -0.05100(11) 0.04798(10) 0.30564(6)
loop_
_geom_bond_atom_site_label_1
_geom_bond_atom_site_label_2
_geom_bond_site_symmetry_1
_geom_bond_site_symmetry_2
Co1 N1 1_555 1_555
C1 H1 1_555 1_555
C2 C1 1_555 1_555
H2 C2 1_555 1_555
C3 C2 1_555 1_555
C4 C3 1_555 1_555
H3 C4 1_555 1_555
C5 C4 1_555 1_555
H4 C5 1_555 1_555
C6 H5 1_555 1_555
H6 C6 1_555 1_555
C7 H7 1_555 1_555
C8 C7 1_555 1_555
H8 C8 1_555 1_555
C9 C8 1_555 1_555
C10 C9 1_555 1_555
H9 C10 1_555 1_555
C11 C10 1_555 1_555
H10 C11 1_555 1_555
C12 H11 1_555 1_555
H12 C12 1_555 1_555
C13 C6 1_555 1_555
N1 N2 1_555 1_555
N2 N3 1_555 1_555
N4 Co1 1_555 1_555
N5 N4 1_555 1_555
N6 N5 1_555 1_555
N7 Co1 1_555 1_555
N8 C7 1_555 1_555
O1 C3 1_555 1_555
O2 C9 1_555 1_555
Co1D N1 1_555 1_555
Co1F N6 1_555 1_555
Co1A N7A 1_555 1_555
Co1G N8A 1_555 1_555
C1A H1A 1_555 1_555
C2A C1A 1_555 1_555
H2A C2A 1_555 1_555
C3A C2A 1_555 1_555
C4A C3A 1_555 1_555
H3A C4A 1_555 1_555
C5A C4A 1_555 1_555
H4A C5A 1_555 1_555
C6A C13 1_555 1_555
H5A C6A 1_555 1_555
H6A C6A 1_555 1_555
C7A H7A 1_555 1_555
C8A C7A 1_555 1_555
H8A C8A 1_555 1_555
C9A C8A 1_555 1_555
C10A C9A 1_555 1_555
H9A C10A 1_555 1_555
C11A C10A 1_555 1_555
H10A C11A 1_555 1_555
C12A C13 1_555 1_555
H11A C12A 1_555 1_555
H12A C12A 1_555 1_555
N1D Co1 1_555 1_555
N2D N1D 1_555 1_555
N3D N2D 1_555 1_555
N4F Co1F 1_555 1_555
N4D Co1D 1_555 1_555
N5F N4F 1_555 1_555
N6F Co1 1_555 1_555
N6B Co1D 1_555 1_555
N7A C1A 1_555 1_555
N7D Co1D 1_555 1_555
N8A C7A 1_555 1_555
N8F Co1 1_555 1_555
N8B Co1D 1_555 1_555
O1A C3A 1_555 1_555
O2A C9A 1_555 1_555
C1 N7 1_555 1_555
C5 N7 1_555 1_555
C6 O1 1_555 1_555
C11 N8 1_555 1_555
C12 C13 1_555 1_555
C12 O2 1_555 1_555
N8 Co1F 1_555 1_555
Co1D N1D 1_555 1_555
C5A N7A 1_555 1_555
C6A O1A 1_555 1_555
C11A N8A 1_555 1_555
C12A O2A 1_555 1_555
N5F N6F 1_555 1_555

#END
