
#######################################################################
#
#                 Cambridge Crystallographic Data Centre
#                                CCDC 
#
#######################################################################
#
# If this CIF has been generated from an entry in the Cambridge 
# Structural Database, then it will include bibliographic, chemical, 
# crystal, experimental, refinement or atomic coordinate data resulting 
# from the CCDC's data processing and validation procedures.
#
#######################################################################

data_QATJAY01
_symmetry_cell_setting           triclinic
_symmetry_space_group_name_H-M   'P -1'
_symmetry_Int_Tables_number      2
_space_group_name_Hall           '-P 1'
loop_
_symmetry_equiv_pos_site_id
_symmetry_equiv_pos_as_xyz
1 x,y,z
2 -x,-y,-z
_cell_length_a                   9.2247(11)
_cell_length_b                   9.2792(11)
_cell_length_c                   9.4629(11)
_cell_angle_alpha                86.168(1)
_cell_angle_beta                 87.761(1)
_cell_angle_gamma                85.217(1)
_cell_volume                     804.921
loop_
_atom_site_label
_atom_site_type_symbol
_atom_site_fract_x
_atom_site_fract_y
_atom_site_fract_z
Eu1 Eu 0.41032(2) 0.37093(2) 0.14665(2)
O1 O 0.6428(4) 0.4426(4) 0.0575(4)
O2 O 0.8799(4) 0.3966(5) 0.0068(5)
O3 O 0.8157(4) -0.3147(4) 0.2651(4)
H1 H 0.8155 -0.3865 0.3206
O4 O 0.6322(4) -0.2308(4) 0.4082(4)
O5 O 0.2115(4) 0.3725(3) 0.3223(3)
O6 O 0.0325(4) 0.2530(4) 0.4322(4)
O7 O 0.5450(3) -0.2526(3) 0.0802(3)
O8 O 0.4011(4) -0.3865(3) 0.2230(4)
N1 N 0.6198(4) 0.1647(4) 0.1519(4)
N2 N 0.3651(4) 0.1227(4) 0.2709(4)
C1 C 0.7532(6) 0.2047(6) 0.1140(5)
C2 C 0.8771(5) 0.1087(5) 0.1224(6)
H2 H 0.9677 0.1370 0.0906
C3 C 0.8608(5) -0.0300(5) 0.1797(5)
H3 H 0.9421 -0.0959 0.1887
C4 C 0.7240(5) -0.0723(5) 0.2241(5)
C5 C 0.6019(5) 0.0286(5) 0.2024(4)
C6 C 0.7627(6) 0.3598(6) 0.0570(6)
C7 C 0.7168(5) -0.2142(5) 0.3078(5)
C8 C 0.2306(5) 0.1142(5) 0.3296(5)
C9 C 0.1703(5) -0.0166(5) 0.3582(5)
H4 H 0.0815 -0.0214 0.4075
C10 C 0.2465(5) -0.1404(5) 0.3111(5)
H5 H 0.2050 -0.2285 0.3223
C11 C 0.3847(5) -0.1341(5) 0.2472(5)
C12 C 0.4462(5) 0.0004(5) 0.2392(4)
C13 C 0.1496(5) 0.2580(5) 0.3641(5)
C14 C 0.4513(5) -0.2697(5) 0.1790(5)
O9 O 0.1830(3) 0.3011(4) 0.0445(4)
H6 H 0.1950 0.3032 -0.0434
H7 H 0.1168 0.3631 0.0657
O10 O 0.5367(4) 0.3606(4) 0.3737(4)
H8 H 0.6090 0.3984 0.3983
H9 H 0.4904 0.3263 0.4437
Eu1A Eu 0.58968(2) 0.62907(2) -0.14665(2)
Eu1A_2 Eu 0.58968(2) -0.37093(2) -0.14665(2)
Eu1_2 Eu 0.41032(2) -0.62907(2) 0.14665(2)
O1A O 0.3572(4) 0.5574(4) -0.0575(4)
O7A O 0.4550(3) 0.2526(3) -0.0802(3)
O8_2 O 0.4011(4) 0.6135(3) 0.2230(4)
O11 O 0.8092(4) 0.4610(4) 0.4415(4)
H10 H 0.8783 0.3988 0.4285
H11 H 0.8172 0.4976 0.5185
loop_
_geom_bond_atom_site_label_1
_geom_bond_atom_site_label_2
_geom_bond_site_symmetry_1
_geom_bond_site_symmetry_2
Eu1 O1 1_555 1_555
O1 C6 1_555 1_555
O2 C6 1_555 1_555
O3 H1 1_555 1_555
O4 C7 1_555 1_555
O5 Eu1 1_555 1_555
O6 C13 1_555 1_555
O7 C14 1_555 1_555
O8 C14 1_555 1_555
N1 Eu1 1_555 1_555
N2 Eu1 1_555 1_555
C1 N1 1_555 1_555
C2 C1 1_555 1_555
H2 C2 1_555 1_555
C3 C2 1_555 1_555
H3 C3 1_555 1_555
C4 C3 1_555 1_555
C5 N1 1_555 1_555
C6 C1 1_555 1_555
C7 O3 1_555 1_555
C8 N2 1_555 1_555
C9 C8 1_555 1_555
H4 C9 1_555 1_555
C10 C9 1_555 1_555
H5 C10 1_555 1_555
C11 C10 1_555 1_555
C12 N2 1_555 1_555
C13 O5 1_555 1_555
C14 C11 1_555 1_555
O9 Eu1 1_555 1_555
H6 O9 1_555 1_555
H7 O9 1_555 1_555
O10 Eu1 1_555 1_555
H8 O10 1_555 1_555
H9 O10 1_555 1_555
O11 H10 1_555 1_555
H11 O11 1_555 1_555
Eu1A O1 1_555 1_555
Eu1A_2 O7 1_555 1_555
Eu1_2 O8 1_555 1_555
O1A Eu1 1_555 1_555
O7A Eu1 1_555 1_555
O8_2 Eu1 1_555 1_555
C4 C5 1_555 1_555
C4 C7 1_555 1_555
C5 C12 1_555 1_555
C8 C13 1_555 1_555
C11 C12 1_555 1_555
Eu1A O1A 1_555 1_555

#END
