
#######################################################################
#
#                 Cambridge Crystallographic Data Centre
#                                CCDC 
#
#######################################################################
#
# If this CIF has been generated from an entry in the Cambridge 
# Structural Database, then it will include bibliographic, chemical, 
# crystal, experimental, refinement or atomic coordinate data resulting 
# from the CCDC's data processing and validation procedures.
#
#######################################################################

data_QATNIK
_symmetry_cell_setting           monoclinic
_symmetry_space_group_name_H-M   'P 21/c'
_symmetry_Int_Tables_number      14
_space_group_name_Hall           '-P 2ybc'
loop_
_symmetry_equiv_pos_site_id
_symmetry_equiv_pos_as_xyz
1 x,y,z
2 -x,1/2+y,1/2-z
3 -x,-y,-z
4 x,1/2-y,1/2+z
_cell_length_a                   20.664(6)
_cell_length_b                   14.485(4)
_cell_length_c                   32.551(10)
_cell_angle_alpha                90
_cell_angle_beta                 100.174(8)
_cell_angle_gamma                90
_cell_volume                     9589.9
loop_
_atom_site_label
_atom_site_type_symbol
_atom_site_fract_x
_atom_site_fract_y
_atom_site_fract_z
C98 C 0.5083(6) 0.3221(8) 0.2249(3)
H129 H 0.5130 0.3652 0.2020
H130 H 0.5119 0.2585 0.2144
Cl1 Cl 0.57277(16) 0.3416(2) 0.26712(10)
Cl2 Cl 0.43092(15) 0.3368(2) 0.23814(10)
C99 C 0.8846(10) 0.038(2) 0.1709(10)
H131 H 0.8487 0.0806 0.1590
H132 H 0.8691 0.0005 0.1926
Cl3 Cl 0.9026(3) -0.0365(6) 0.1306(2)
Cl4 Cl 0.9507(4) 0.1005(6) 0.1931(3)
C102 C 0.8839(13) 0.5025(16) 0.4401(15)
H137 H 0.8452 0.5086 0.4176
H138 H 0.8720 0.5303 0.4656
Cl9 Cl 0.9477(9) 0.5658(11) 0.4264(4)
Cl10 Cl 0.8993(5) 0.3846(8) 0.4495(4)
Ag1 Ag 0.49336(4) 0.55520(5) 0.32795(2)
Ag2 Ag 0.51223(4) 0.54407(5) 0.42523(2)
Ag3 Ag 0.81730(4) 0.97693(5) 0.55493(2)
C1 C 0.7573(5) 0.4746(6) 0.3405(3)
C2 C 0.7649(5) 0.4075(6) 0.2712(3)
H1 H 0.7197 0.3891 0.2584
H2 H 0.7879 0.4271 0.2485
C3 C 0.7675(4) 0.3075(6) 0.3274(3)
H3 H 0.7925 0.2570 0.3434
H4 H 0.7224 0.2847 0.3172
C4 C 0.7367(4) 0.3665(7) 0.3929(3)
H5 H 0.7491 0.4174 0.4130
H6 H 0.7565 0.3090 0.4059
C5 C 0.6625(4) 0.3565(6) 0.3847(3)
C6 C 0.6226(5) 0.4308(7) 0.3729(3)
H7 H 0.6434 0.4886 0.3706
C7 C 0.5271(5) 0.3474(6) 0.3671(3)
C8 C 0.5630(5) 0.2704(7) 0.3804(3)
H8 H 0.5412 0.2138 0.3836
C9 C 0.6307(4) 0.2743(7) 0.3893(3)
H9 H 0.6554 0.2206 0.3986
C10 C 0.4540(4) 0.3499(6) 0.3558(3)
C11 C 0.3611(5) 0.4275(8) 0.3275(4)
H10 H 0.3424 0.4834 0.3155
C12 C 0.3186(4) 0.3583(7) 0.3311(3)
C13 C 0.3475(5) 0.2800(8) 0.3500(4)
H11 H 0.3209 0.2286 0.3545
C14 C 0.4152(5) 0.2755(8) 0.3627(4)
H12 H 0.4348 0.2215 0.3761
C15 C 0.2452(4) 0.3705(7) 0.3165(3)
H13 H 0.2223 0.3137 0.3230
H14 H 0.2296 0.4220 0.3322
C16 C 0.2341(5) 0.4787(7) 0.2586(3)
C17 C 0.2288(4) 0.3078(6) 0.2444(3)
H15 H 0.2744 0.2840 0.2478
H16 H 0.2011 0.2586 0.2534
C18 C 0.2400(5) 0.4069(7) 0.1902(3)
H17 H 0.2236 0.4229 0.1607
H18 H 0.2872 0.3914 0.1930
C19 C 0.2522(7) 0.5780(8) 0.2028(3)
H19 H 0.2348 0.6273 0.2189
H20 H 0.2332 0.5867 0.1729
C20 C 0.3261(7) 0.5849(8) 0.2088(3)
C21 C 0.3624(7) 0.6046(9) 0.2470(4)
H21 H 0.3384 0.6196 0.2685
C22 C 0.4617(6) 0.5862(7) 0.2272(4)
C23 C 0.4292(7) 0.5691(8) 0.1862(4)
H22 H 0.4536 0.5580 0.1645
C24 C 0.3614(7) 0.5685(7) 0.1779(4)
H23 H 0.3390 0.5566 0.1503
C25 C 0.5340(6) 0.5869(7) 0.2388(3)
C26 C 0.6260(6) 0.5971(7) 0.2900(3)
H24 H 0.6432 0.6068 0.3187
C27 C 0.6702(6) 0.5849(7) 0.2638(3)
C28 C 0.6424(7) 0.5750(9) 0.2211(4)
H25 H 0.6698 0.5661 0.2008
C29 C 0.5748(7) 0.5786(9) 0.2094(4)
H26 H 0.5558 0.5754 0.1806
C30 C 0.7427(6) 0.5770(7) 0.2801(3)
H27 H 0.7669 0.5868 0.2568
H28 H 0.7560 0.6263 0.3010
C31 C 0.8717(5) 0.3389(10) 0.2975(4)
C32 C 0.8873(8) 0.3149(10) 0.2544(4)
H29 H 0.8629 0.2594 0.2437
H30 H 0.9346 0.3036 0.2567
H31 H 0.8744 0.3665 0.2352
C33 C 0.8988(7) 0.4340(8) 0.3112(4)
H32 H 0.8840 0.4790 0.2891
H33 H 0.9469 0.4318 0.3169
H34 H 0.8828 0.4524 0.3367
C34 C 0.9012(8) 0.2658(9) 0.3292(4)
H35 H 0.8833 0.2050 0.3200
H36 H 0.8902 0.2804 0.3565
H37 H 0.9491 0.2649 0.3313
C39 C 0.1335(5) 0.3188(9) 0.1852(4)
C40 C 0.1170(9) 0.3695(11) 0.1425(4)
H47 H 0.1118 0.4357 0.1473
H48 H 0.0760 0.3448 0.1265
H49 H 0.1528 0.3600 0.1268
C41 C 0.0906(7) 0.3604(9) 0.2155(4)
H50 H 0.1002 0.3281 0.2424
H51 H 0.0440 0.3529 0.2035
H52 H 0.1007 0.4261 0.2198
C42 C 0.1194(8) 0.2147(8) 0.1794(5)
H53 H 0.1383 0.1918 0.1558
H54 H 0.0717 0.2044 0.1740
H55 H 0.1390 0.1817 0.2049
C47 C 0.7691(4) 0.6482(7) 0.4960(3)
C48 C 0.7983(4) 0.7559(6) 0.5578(3)
H65 H 0.7583 0.7881 0.5631
H66 H 0.8276 0.7464 0.5850
C49 C 0.7911(4) 0.8155(6) 0.4902(3)
H67 H 0.8129 0.8533 0.4713
H68 H 0.7483 0.8449 0.4918
C50 C 0.7569(4) 0.7147(7) 0.4269(3)
H69 H 0.7691 0.6530 0.4177
H70 H 0.7801 0.7614 0.4128
C51 C 0.6825(4) 0.7281(6) 0.4133(3)
C52 C 0.6390(5) 0.6578(6) 0.4185(3)
H71 H 0.6569 0.6018 0.4308
C53 C 0.5473(5) 0.7432(6) 0.3904(3)
C54 C 0.5875(5) 0.8156(7) 0.3853(3)
H72 H 0.5685 0.8714 0.3735
C55 C 0.6548(5) 0.8100(6) 0.3969(3)
H73 H 0.6819 0.8617 0.3937
C56 C 0.4745(4) 0.7472(6) 0.3784(3)
C57 C 0.3776(5) 0.6728(8) 0.3573(3)
H74 H 0.3562 0.6158 0.3495
C58 C 0.3384(4) 0.7483(7) 0.3574(3)
C59 C 0.3708(6) 0.8279(9) 0.3670(5)
H75 H 0.3468 0.8840 0.3666
C60 C 0.4387(6) 0.8294(8) 0.3776(5)
H76 H 0.4610 0.8863 0.3844
C61 C 0.2636(4) 0.7432(7) 0.3471(3)
H77 H 0.2473 0.7905 0.3258
H78 H 0.2505 0.6819 0.3350
C62 C 0.2448(5) 0.6920(7) 0.4152(3)
C63 C 0.2162(5) 0.8527(7) 0.3933(3)
H79 H 0.1938 0.8827 0.3673
H80 H 0.2573 0.8873 0.4034
C64 C 0.2082(5) 0.8105(7) 0.4621(3)
H81 H 0.1789 0.8069 0.4830
H82 H 0.2474 0.8469 0.4743
C65 C 0.2517(5) 0.6574(7) 0.4881(3)
H83 H 0.2345 0.5942 0.4818
H84 H 0.2341 0.6804 0.5126
C66 C 0.3265(5) 0.6536(6) 0.4990(3)
C67 C 0.3592(5) 0.5784(6) 0.5197(3)
H85 H 0.3334 0.5288 0.5270
C68 C 0.4622(5) 0.6393(6) 0.5199(3)
C69 C 0.4333(5) 0.7164(9) 0.4997(4)
H86 H 0.4601 0.7652 0.4928
C70 C 0.3672(5) 0.7234(8) 0.4896(4)
H87 H 0.3483 0.7773 0.4757
C71 C 0.5348(5) 0.6300(6) 0.5300(3)
C72 C 0.6255(5) 0.5491(6) 0.5628(3)
H88 H 0.6433 0.4972 0.5788
C73 C 0.6706(5) 0.6136(6) 0.5509(3)
C74 C 0.6424(5) 0.6860(7) 0.5271(3)
H89 H 0.6699 0.7306 0.5174
C75 C 0.5753(5) 0.6953(7) 0.5169(3)
H90 H 0.5568 0.7467 0.5008
C76 C 0.7440(5) 0.6041(6) 0.5633(3)
H91 H 0.7569 0.6187 0.5934
H92 H 0.7567 0.5393 0.5591
C77 C 0.9045(5) 0.7904(11) 0.5357(5)
C78 C 0.9395(9) 0.8291(14) 0.5782(4)
H93 H 0.9360 0.8966 0.5780
H94 H 0.9860 0.8113 0.5828
H95 H 0.9187 0.8040 0.6006
C79 C 0.9263(9) 0.8455(15) 0.5004(5)
H96 H 0.9082 0.8169 0.4735
H97 H 0.9744 0.8457 0.5042
H98 H 0.9102 0.9091 0.5008
C80 C 0.9210(9) 0.6884(10) 0.5323(8)
H99 H 0.9068 0.6543 0.5552
H100 H 0.9686 0.6812 0.5341
H101 H 0.8982 0.6642 0.5055
C85 C 0.1037(5) 0.8272(10) 0.4117(5)
C86 C 0.0624(8) 0.8800(10) 0.4384(4)
H111 H 0.0839 0.8772 0.4678
H112 H 0.0186 0.8521 0.4354
H113 H 0.0583 0.9446 0.4294
C87 C 0.0903(8) 0.7239(8) 0.4142(5)
H114 H 0.1144 0.6905 0.3955
H115 H 0.0430 0.7123 0.4058
H116 H 0.1048 0.7026 0.4429
C88 C 0.0821(8) 0.8582(11) 0.3658(4)
H117 H 0.0934 0.9233 0.3631
H118 H 0.0345 0.8502 0.3576
H119 H 0.1047 0.8207 0.3477
N1 N 0.7615(5) 0.4870(6) 0.2995(3)
N2 N 0.7981(3) 0.3297(5) 0.2919(2)
N3 N 0.7643(3) 0.3854(5) 0.3551(2)
N4 N 0.5574(4) 0.4290(5) 0.3645(3)
N5 N 0.4271(4) 0.4261(6) 0.3389(3)
N6 N 0.2278(3) 0.3896(6) 0.2719(2)
N7 N 0.2055(3) 0.3284(5) 0.2009(2)
N8 N 0.2328(5) 0.4882(6) 0.2166(3)
N9 N 0.4268(6) 0.6054(7) 0.2574(3)
N10 N 0.5611(5) 0.5964(6) 0.2787(2)
N11 N 0.7794(4) 0.6655(5) 0.5390(2)
N12 N 0.8319(3) 0.8149(5) 0.5317(2)
N13 N 0.7791(3) 0.7226(5) 0.4724(2)
N14 N 0.5733(4) 0.6638(5) 0.4074(2)
N15 N 0.4425(4) 0.6709(6) 0.3668(3)
N16 N 0.2326(4) 0.7580(5) 0.3841(2)
N17 N 0.1738(3) 0.8577(5) 0.4248(2)
N18 N 0.2290(4) 0.7164(5) 0.4528(2)
N19 N 0.4239(4) 0.5712(5) 0.5298(2)
N20 N 0.5600(4) 0.5557(5) 0.5533(2)
O1 O 0.7485(3) 0.5413(4) 0.36321(19)
O2 O 0.2370(4) 0.5437(5) 0.2825(2)
O3 O 0.7539(3) 0.5720(4) 0.48248(19)
O4 O 0.2655(3) 0.6146(5) 0.4083(2)
S1 S 0.82210(13) 0.91642(17) 0.66980(8)
O5 O 0.8213(3) 0.9116(5) 0.62563(19)
O6 O 0.7804(3) 0.8510(5) 0.6857(2)
O7 O 0.8184(4) 1.0083(4) 0.6863(2)
C93 C 0.9044(6) 0.8777(9) 0.6924(4)
F1 F 0.9142(3) 0.8839(6) 0.7343(2)
F2 F 0.9508(3) 0.9257(6) 0.6789(2)
F3 F 0.9127(4) 0.7892(5) 0.6834(2)
S2 S 0.79059(12) 1.05464(18) 0.43613(8)
O8 O 0.8063(3) 1.0314(4) 0.47954(19)
O9 O 0.7729(4) 0.9779(5) 0.4088(2)
O10 O 0.7522(4) 1.1365(5) 0.4264(3)
C94 C 0.8711(5) 1.0896(8) 0.4255(3)
F4 F 0.8679(3) 1.1103(5) 0.3849(2)
F5 F 0.8934(3) 1.1640(4) 0.4470(2)
F6 F 0.9159(3) 1.0237(5) 0.4346(2)
S3 S 0.6348(6) 0.9732(9) 0.5434(6)
O11 O 0.6951(6) 0.9311(10) 0.5385(4)
O12 O 0.5877(7) 0.9138(10) 0.5566(5)
O13 O 0.6424(8) 1.0674(9) 0.5594(5)
C95 C 0.5938(11) 1.0014(16) 0.4903(6)
F7 F 0.5392(10) 1.0522(15) 0.4920(7)
F8 F 0.6285(9) 1.0477(12) 0.4676(5)
F9 F 0.5740(11) 0.9249(15) 0.4698(7)
Ag2B Ag 0.48777(4) 0.45593(5) 0.57477(2)
Ag3B Ag 0.18270(4) 1.02307(5) 0.44507(2)
N17B N 0.8262(3) 1.1423(5) 0.5752(2)
N19B N 0.5761(4) 0.4288(5) 0.4702(2)
N20B N 0.4400(4) 0.4443(5) 0.4467(2)
C35? C 0.8711(6) 0.3131(15) 0.2965(7)
C36? C 0.9109(13) 0.3483(17) 0.3381(6)
H38? H 0.8932 0.4079 0.3451
H39? H 0.9571 0.3557 0.3354
H40? H 0.9076 0.3036 0.3603
C37? C 0.8851(15) 0.2082(14) 0.2947(8)
H41? H 0.8613 0.1753 0.3138
H42? H 0.9324 0.1971 0.3029
H43? H 0.8703 0.1857 0.2661
C38? C 0.9026(15) 0.3578(18) 0.2615(7)
H44? H 0.8796 0.3363 0.2342
H45? H 0.9490 0.3402 0.2650
H46? H 0.8991 0.4251 0.2630
C43? C 0.1330(5) 0.3413(15) 0.1881(6)
C44? C 0.0946(16) 0.2706(17) 0.2102(8)
H56? H 0.1238 0.2194 0.2209
H57? H 0.0572 0.2468 0.1903
H58? H 0.0787 0.3008 0.2334
C45? C 0.1206(11) 0.3157(15) 0.1415(5)
H59? H 0.1544 0.3441 0.1280
H60? H 0.0772 0.3381 0.1283
H61? H 0.1224 0.2484 0.1386
C46? C 0.1010(15) 0.4362(15) 0.1920(8)
H62? H 0.1092 0.4556 0.2213
H63? H 0.0535 0.4317 0.1820
H64? H 0.1198 0.4816 0.1751
C81? C 0.9051(5) 0.8005(13) 0.5318(6)
C82? C 0.9342(10) 0.8812(15) 0.5112(7)
H102? H 0.9008 0.9065 0.4888
H103? H 0.9720 0.8598 0.4994
H104? H 0.9484 0.9292 0.5320
C83? C 0.9405(12) 0.7954(19) 0.5775(5)
H105? H 0.9206 0.8399 0.5943
H106? H 0.9871 0.8101 0.5790
H107? H 0.9361 0.7330 0.5883
C84? C 0.9223(12) 0.7112(15) 0.5104(10)
H108? H 0.9008 0.6585 0.5213
H109? H 0.9700 0.7021 0.5160
H110? H 0.9069 0.7160 0.4802
C89? C 0.1020(6) 0.8367(15) 0.4113(7)
C90? C 0.0843(15) 0.7454(15) 0.3873(9)
H120? H 0.0923 0.7519 0.3587
H121? H 0.0378 0.7312 0.3868
H122? H 0.1115 0.6953 0.4013
C91? C 0.0683(13) 0.9147(16) 0.3832(8)
H123? H 0.0625 0.9686 0.4003
H124? H 0.0253 0.8935 0.3686
H125? H 0.0957 0.9315 0.3626
C92? C 0.0693(14) 0.8334(19) 0.4501(7)
H126? H 0.0806 0.7753 0.4651
H127? H 0.0214 0.8375 0.4416
H128? H 0.0849 0.8854 0.4685
S4? S 0.6344(7) 0.9702(9) 0.5358(6)
O14? O 0.7026(7) 0.9908(13) 0.5451(5)
O15? O 0.6155(11) 0.9053(15) 0.5021(6)
O16? O 0.5955(9) 1.0548(12) 0.5345(6)
C96? C 0.6165(11) 0.9191(16) 0.5823(7)
F10? F 0.5512(10) 0.9060(18) 0.5808(8)
F11? F 0.6343(12) 0.9739(16) 0.6151(7)
F12? F 0.6518(9) 0.8419(12) 0.5879(6)
O17? O 0.5071(7) 1.0452(10) 0.3962(4)
C97? C 0.5669(13) 1.0399(19) 0.4262(9)
C100? C 0.889(2) 0.027(3) 0.168(2)
H133? H 0.8797 0.0655 0.1423
H134? H 0.8488 0.0256 0.1805
Cl5? Cl 0.9077(8) -0.0858(13) 0.1539(5)
Cl6? Cl 0.9537(9) 0.0733(13) 0.2027(6)
C101? C 0.934(5) 0.002(5) 0.1134(14)
H135? H 0.9824 -0.0004 0.1184
H136? H 0.9210 0.0569 0.1279
Cl7? Cl 0.9071(15) 0.018(2) 0.0600(10)
Cl8? Cl 0.906(2) -0.095(3) 0.1371(13)
C103? C 0.8858(13) 0.492(4) 0.4369(15)
H139? H 0.8670 0.4526 0.4127
H140? H 0.8542 0.5408 0.4408
Cl11? Cl 0.9624(7) 0.5360(11) 0.4323(4)
Cl12? Cl 0.9104(8) 0.4265(13) 0.4823(6)
C104? C 0.9016(19) 0.4886(13) 0.4643(10)
H141? H 0.9361 0.5026 0.4888
H142? H 0.8595 0.5106 0.4713
Cl13? Cl 0.9182(11) 0.5586(15) 0.4231(6)
Cl14? Cl 0.8960(5) 0.3682(8) 0.4609(4)
loop_
_geom_bond_atom_site_label_1
_geom_bond_atom_site_label_2
_geom_bond_site_symmetry_1
_geom_bond_site_symmetry_2
Ag1 N4 1_555 1_555
Ag2 N4 1_555 1_555
Ag3 N12 1_555 1_555
C1 N1 1_555 1_555
C2 H1 1_555 1_555
H2 C2 1_555 1_555
C3 H3 1_555 1_555
H4 C3 1_555 1_555
C4 H5 1_555 1_555
H6 C4 1_555 1_555
C5 C4 1_555 1_555
C6 C5 1_555 1_555
H7 C6 1_555 1_555
C7 C8 1_555 1_555
C8 H8 1_555 1_555
C9 C5 1_555 1_555
H9 C9 1_555 1_555
C10 C7 1_555 1_555
C11 H10 1_555 1_555
C12 C11 1_555 1_555
C13 C12 1_555 1_555
H11 C13 1_555 1_555
C14 C10 1_555 1_555
H12 C14 1_555 1_555
C15 C12 1_555 1_555
H13 C15 1_555 1_555
H14 C15 1_555 1_555
C16 N6 1_555 1_555
C17 H15 1_555 1_555
H16 C17 1_555 1_555
C18 H17 1_555 1_555
H18 C18 1_555 1_555
C19 H19 1_555 1_555
H20 C19 1_555 1_555
C20 C19 1_555 1_555
C21 C20 1_555 1_555
H21 C21 1_555 1_555
C22 C23 1_555 1_555
C23 H22 1_555 1_555
C24 C20 1_555 1_555
H23 C24 1_555 1_555
C25 C22 1_555 1_555
C26 H24 1_555 1_555
C27 C26 1_555 1_555
C28 C27 1_555 1_555
H25 C28 1_555 1_555
C29 C25 1_555 1_555
H26 C29 1_555 1_555
C30 C27 1_555 1_555
H27 C30 1_555 1_555
H28 C30 1_555 1_555
C31 C32 1_555 1_555
C32 H29 1_555 1_555
H30 C32 1_555 1_555
H31 C32 1_555 1_555
C33 C31 1_555 1_555
H32 C33 1_555 1_555
H33 C33 1_555 1_555
H34 C33 1_555 1_555
C34 C31 1_555 1_555
H35 C34 1_555 1_555
H36 C34 1_555 1_555
H37 C34 1_555 1_555
C39 C40 1_555 1_555
C40 H47 1_555 1_555
H48 C40 1_555 1_555
H49 C40 1_555 1_555
C41 C39 1_555 1_555
H50 C41 1_555 1_555
H51 C41 1_555 1_555
H52 C41 1_555 1_555
C42 C39 1_555 1_555
H53 C42 1_555 1_555
H54 C42 1_555 1_555
H55 C42 1_555 1_555
C47 N11 1_555 1_555
C48 H65 1_555 1_555
H66 C48 1_555 1_555
C49 H67 1_555 1_555
H68 C49 1_555 1_555
C50 H69 1_555 1_555
H70 C50 1_555 1_555
C51 C50 1_555 1_555
C52 C51 1_555 1_555
H71 C52 1_555 1_555
C53 C54 1_555 1_555
C54 H72 1_555 1_555
C55 C51 1_555 1_555
H73 C55 1_555 1_555
C56 C53 1_555 1_555
C57 H74 1_555 1_555
C58 C57 1_555 1_555
C59 C58 1_555 1_555
H75 C59 1_555 1_555
C60 C56 1_555 1_555
H76 C60 1_555 1_555
C61 C58 1_555 1_555
H77 C61 1_555 1_555
H78 C61 1_555 1_555
C62 N16 1_555 1_555
C63 H79 1_555 1_555
H80 C63 1_555 1_555
C64 H81 1_555 1_555
H82 C64 1_555 1_555
C65 H83 1_555 1_555
H84 C65 1_555 1_555
C66 C65 1_555 1_555
C67 C66 1_555 1_555
H85 C67 1_555 1_555
C68 C69 1_555 1_555
C69 H86 1_555 1_555
C70 C66 1_555 1_555
H87 C70 1_555 1_555
C71 C68 1_555 1_555
C72 H88 1_555 1_555
C73 C72 1_555 1_555
C74 C73 1_555 1_555
H89 C74 1_555 1_555
C75 C71 1_555 1_555
H90 C75 1_555 1_555
C76 C73 1_555 1_555
H91 C76 1_555 1_555
H92 C76 1_555 1_555
C77 C78 1_555 1_555
C78 H93 1_555 1_555
H94 C78 1_555 1_555
H95 C78 1_555 1_555
C79 C77 1_555 1_555
H96 C79 1_555 1_555
H97 C79 1_555 1_555
H98 C79 1_555 1_555
C80 C77 1_555 1_555
H99 C80 1_555 1_555
H100 C80 1_555 1_555
H101 C80 1_555 1_555
C85 C86 1_555 1_555
C86 H111 1_555 1_555
H112 C86 1_555 1_555
H113 C86 1_555 1_555
C87 C85 1_555 1_555
H114 C87 1_555 1_555
H115 C87 1_555 1_555
H116 C87 1_555 1_555
C88 C85 1_555 1_555
H117 C88 1_555 1_555
H118 C88 1_555 1_555
H119 C88 1_555 1_555
N1 C2 1_555 1_555
N2 C2 1_555 1_555
N3 C1 1_555 1_555
N4 C6 1_555 1_555
N5 Ag1 1_555 1_555
N6 C15 1_555 1_555
N7 C17 1_555 1_555
N8 C16 1_555 1_555
N9 Ag1 1_555 1_555
N10 Ag1 1_555 1_555
N11 C48 1_555 1_555
N12 C48 1_555 1_555
N13 C47 1_555 1_555
N14 Ag2 1_555 1_555
N15 Ag1 1_555 1_555
N16 C61 1_555 1_555
N17 C63 1_555 1_555
N18 C62 1_555 1_555
N19 C67 1_555 1_555
N20 C71 1_555 1_555
O1 C1 1_555 1_555
O2 C16 1_555 1_555
O3 C47 1_555 1_555
O4 C62 1_555 1_555
S1 O5 1_555 1_555
O5 Ag3 1_555 1_555
O6 S1 1_555 1_555
O7 S1 1_555 1_555
C93 S1 1_555 1_555
F1 C93 1_555 1_555
F2 C93 1_555 1_555
F3 C93 1_555 1_555
S2 O8 1_555 1_555
O8 Ag3 1_555 1_555
O9 S2 1_555 1_555
O10 S2 1_555 1_555
C94 S2 1_555 1_555
F4 C94 1_555 1_555
F5 C94 1_555 1_555
F6 C94 1_555 1_555
S3 O11 1_555 1_555
O11 Ag3 1_555 1_555
O12 S3 1_555 1_555
O13 S3 1_555 1_555
C95 S3 1_555 1_555
F7 C95 1_555 1_555
F8 C95 1_555 1_555
F9 C95 1_555 1_555
C98 H129 1_555 1_555
H130 C98 1_555 1_555
Cl1 C98 1_555 1_555
Cl2 C98 1_555 1_555
C99 H131 1_555 1_555
H132 C99 1_555 1_555
Cl3 C99 1_555 1_555
Cl4 C99 1_555 1_555
C102 H137 1_555 1_555
H138 C102 1_555 1_555
Cl9 C102 1_555 1_555
Cl10 C102 1_555 1_555
Ag2B N19 1_555 1_555
Ag3B N17 1_555 1_555
N17B Ag3 1_555 1_555
N19B Ag2 1_555 1_555
N20B Ag2 1_555 1_555
Ag2 N15 1_555 1_555
C3 N2 1_555 1_555
C3 N3 1_555 1_555
C4 N3 1_555 1_555
C7 N4 1_555 1_555
C8 C9 1_555 1_555
C10 N5 1_555 1_555
C11 N5 1_555 1_555
C13 C14 1_555 1_555
C17 N6 1_555 1_555
C18 N7 1_555 1_555
C18 N8 1_555 1_555
C19 N8 1_555 1_555
C21 N9 1_555 1_555
C22 N9 1_555 1_555
C23 C24 1_555 1_555
C25 N10 1_555 1_555
C26 N10 1_555 1_555
C28 C29 1_555 1_555
C30 N1 1_555 1_555
C31 N2 1_555 1_555
C39 N7 1_555 1_555
C49 N12 1_555 1_555
C49 N13 1_555 1_555
C50 N13 1_555 1_555
C52 N14 1_555 1_555
C53 N14 1_555 1_555
C54 C55 1_555 1_555
C56 N15 1_555 1_555
C57 N15 1_555 1_555
C59 C60 1_555 1_555
C63 N16 1_555 1_555
C64 N17 1_555 1_555
C64 N18 1_555 1_555
C65 N18 1_555 1_555
C68 N19 1_555 1_555
C69 C70 1_555 1_555
C72 N20 1_555 1_555
C74 C75 1_555 1_555
C76 N11 1_555 1_555
C77 N12 1_555 1_555
C85 N17 1_555 1_555
N20 Ag2B 1_555 1_555

#END
