
#######################################################################
#
#                 Cambridge Crystallographic Data Centre
#                                CCDC 
#
#######################################################################
#
# If this CIF has been generated from an entry in the Cambridge 
# Structural Database, then it will include bibliographic, chemical, 
# crystal, experimental, refinement or atomic coordinate data resulting 
# from the CCDC's data processing and validation procedures.
#
#######################################################################

data_QATQIM
_symmetry_cell_setting           monoclinic
_symmetry_space_group_name_H-M   'P 21/c'
_symmetry_Int_Tables_number      14
_space_group_name_Hall           '-P 2ybc'
loop_
_symmetry_equiv_pos_site_id
_symmetry_equiv_pos_as_xyz
1 x,y,z
2 -x,1/2+y,1/2-z
3 -x,-y,-z
4 x,1/2-y,1/2+z
_cell_length_a                   7.398(1)
_cell_length_b                   10.451(1)
_cell_length_c                   18.124(2)
_cell_angle_alpha                90
_cell_angle_beta                 91.65(1)
_cell_angle_gamma                90
_cell_volume                     1400.7
loop_
_atom_site_label
_atom_site_type_symbol
_atom_site_fract_x
_atom_site_fract_y
_atom_site_fract_z
Ag1 Ag 0.33049(5) -0.07057(4) 0.03714(2)
N1 N -0.5748(4) -0.0866(3) 0.41141(18)
N2 N 0.2133(4) 0.0427(3) 0.12424(18)
N3 N 0.0209(4) 0.1423(3) 0.19325(19)
N4 N 0.6572(5) -0.0624(4) 0.0757(2)
N5 N -0.6756(5) -0.2450(3) 0.47852(18)
N6 N 0.7619(5) -0.1463(4) 0.0830(2)
N7 N 0.8659(6) -0.2275(5) 0.0922(3)
C1 C 0.0522(6) 0.0928(4) 0.1276(3)
H1 H -0.027(4) 0.095(3) 0.0892(19)
C2 C -0.2492(5) 0.1226(4) 0.2702(2)
C3 C -0.2447(6) -0.0079(5) 0.2699(3)
H2 H -0.182(6) -0.045(4) 0.239(2)
C4 C -0.3511(5) -0.0787(4) 0.3163(2)
H3 H -0.3486 -0.1676 0.3151
C5 C 0.2877(6) 0.0608(4) 0.1939(2)
H4 H 0.401(4) 0.035(3) 0.2041(17)
C6 C -0.4606(5) -0.0150(4) 0.3641(2)
C7 C 0.1717(6) 0.1206(4) 0.2361(2)
H5 H 0.174(4) 0.146(3) 0.2820(18)
C8 C -0.5455(6) -0.2035(4) 0.4391(2)
H6 H -0.440(4) -0.246(3) 0.4312(18)
C9 C -0.4648(5) 0.1153(4) 0.3653(2)
H7 H -0.543(4) 0.161(3) 0.3969(18)
C10 C -0.3591(6) 0.1826(4) 0.3189(2)
H8 H -0.366(4) 0.263(3) 0.3209(17)
C11 C -0.1450(7) 0.2039(6) 0.2170(3)
H9 H -0.201(5) 0.219(4) 0.175(2)
H10 H -0.114(6) 0.288(6) 0.242(3)
C12 C -0.7403(6) -0.0495(5) 0.4361(3)
H11 H -0.784(5) 0.031(4) 0.422(2)
C13 C -0.7999(6) -0.1481(5) 0.4770(2)
H12 H -0.911(5) -0.156(4) 0.503(2)
Ag1B Ag 0.66951(5) 0.07057(4) -0.03714(2)
Ag1C Ag -0.66951(5) -0.42943(4) 0.53714(2)
N4B N 0.3428(5) 0.0624(4) -0.0757(2)
N5C N 0.3244(5) -0.2550(3) -0.02148(18)
loop_
_geom_bond_atom_site_label_1
_geom_bond_atom_site_label_2
_geom_bond_site_symmetry_1
_geom_bond_site_symmetry_2
Ag1 N2 1_555 1_555
N1 C6 1_555 1_555
N2 C1 1_555 1_555
N3 C1 1_555 1_555
N4 Ag1 1_555 1_555
N5 C8 1_555 1_555
N6 N4 1_555 1_555
N7 N6 1_555 1_555
C1 H1 1_555 1_555
C2 C3 1_555 1_555
C3 H2 1_555 1_555
C4 C3 1_555 1_555
H3 C4 1_555 1_555
C5 N2 1_555 1_555
H4 C5 1_555 1_555
C6 C4 1_555 1_555
C7 N3 1_555 1_555
H5 C7 1_555 1_555
C8 N1 1_555 1_555
H6 C8 1_555 1_555
C9 C6 1_555 1_555
H7 C9 1_555 1_555
C10 C2 1_555 1_555
H8 C10 1_555 1_555
C11 N3 1_555 1_555
H9 C11 1_555 1_555
H10 C11 1_555 1_555
C12 N1 1_555 1_555
H11 C12 1_555 1_555
C13 N5 1_555 1_555
H12 C13 1_555 1_555
Ag1B N4 1_555 1_555
Ag1C N5 1_555 1_555
N4B Ag1 1_555 1_555
N5C Ag1 1_555 1_555
C2 C11 1_555 1_555
C5 C7 1_555 1_555
C9 C10 1_555 1_555
C12 C13 1_555 1_555
Ag1B N4B 1_555 1_555

#END
