
#######################################################################
#
#                 Cambridge Crystallographic Data Centre
#                                CCDC 
#
#######################################################################
#
# If this CIF has been generated from an entry in the Cambridge 
# Structural Database, then it will include bibliographic, chemical, 
# crystal, experimental, refinement or atomic coordinate data resulting 
# from the CCDC's data processing and validation procedures.
#
#######################################################################

data_QATROU
_symmetry_cell_setting           triclinic
_symmetry_space_group_name_H-M   'P -1'
_symmetry_Int_Tables_number      2
_space_group_name_Hall           '-P 1'
loop_
_symmetry_equiv_pos_site_id
_symmetry_equiv_pos_as_xyz
1 x,y,z
2 -x,-y,-z
_cell_length_a                   5.0341(4)
_cell_length_b                   8.1151(5)
_cell_length_c                   9.5404(6)
_cell_angle_alpha                69.398(2)
_cell_angle_beta                 80.531(2)
_cell_angle_gamma                75.994(2)
_cell_volume                     352.622
loop_
_atom_site_label
_atom_site_type_symbol
_atom_site_fract_x
_atom_site_fract_y
_atom_site_fract_z
Cd1 Cd 0.5000 0.0000 0.0000
C1 C 0.3654(11) -0.3038(7) -0.1210(6)
H1 H 0.2393 -0.3151 -0.0369
C2 C 0.3767(12) -0.4110(8) -0.2069(6)
H2 H 0.2651 -0.4955 -0.1789
C3 C 0.5564(12) -0.3913(7) -0.3356(6)
H3 H 0.5688 -0.4636 -0.3944
C4 C 0.7191(11) -0.2614(7) -0.3762(6)
C5 C 0.7016(11) -0.1667(7) -0.2775(6)
H4 H 0.8183 -0.0861 -0.2994
C6 C 0.8995(11) -0.2242(7) -0.5175(6)
H5 H 0.9301 -0.1035 -0.5408
H6 H 1.0754 -0.3048 -0.4950
C7 C 0.8369(11) -0.2345(7) -0.6437(5)
H7 H 0.6555 -0.1599 -0.6620
H8 H 0.8168 -0.3573 -0.6211
C8 C 1.0084(10) -0.1880(6) -0.7921(5)
N1 N 0.5276(9) -0.1837(6) -0.1528(5)
O1 O 0.8974(7) -0.1792(5) -0.9039(4)
O2 O 1.2481(7) -0.1643(5) -0.7950(4)
Cd1_2 Cd 0.5000 0.0000 -1.0000
Cd1_3 Cd 1.5000 0.0000 -1.0000
Cd1_4 Cd 0.5000 0.0000 1.0000
Cd1_5 Cd -0.5000 0.0000 1.0000
C1A C 0.6346(11) 0.3038(7) 0.1210(6)
H1A H 0.7607 0.3151 0.0369
C2A C 0.6233(12) 0.4110(8) 0.2069(6)
H2A H 0.7349 0.4955 0.1789
C3A C 0.4436(12) 0.3913(7) 0.3356(6)
H3A H 0.4312 0.4636 0.3944
C4A C 0.2809(11) 0.2614(7) 0.3762(6)
C5A C 0.2984(11) 0.1667(7) 0.2775(6)
H4A H 0.1817 0.0861 0.2994
C6A C 0.1005(11) 0.2242(7) 0.5175(6)
H5A H 0.0699 0.1035 0.5408
H6A H -0.0754 0.3048 0.4950
C7A C 0.1631(11) 0.2345(7) 0.6437(5)
H7A H 0.3445 0.1599 0.6620
H8A H 0.1832 0.3573 0.6211
C8A C -0.0084(10) 0.1880(6) 0.7921(5)
N1A N 0.4724(9) 0.1837(6) 0.1528(5)
O1A O 0.1026(7) 0.1792(5) 0.9039(4)
O1_2 O 0.8974(7) -0.1792(5) 0.0961(4)
O1A_2 O 0.1026(7) 0.1792(5) -0.0961(4)
O2A O -0.2481(7) 0.1643(5) 0.7950(4)
O2_2 O 0.2481(7) -0.1643(5) 0.2050(4)
O2A_2 O 0.7519(7) 0.1643(5) -0.2050(4)
loop_
_geom_bond_atom_site_label_1
_geom_bond_atom_site_label_2
_geom_bond_site_symmetry_1
_geom_bond_site_symmetry_2
Cd1 N1 1_555 1_555
C1 H1 1_555 1_555
C2 C1 1_555 1_555
H2 C2 1_555 1_555
C3 C2 1_555 1_555
H3 C3 1_555 1_555
C4 C3 1_555 1_555
C5 C4 1_555 1_555
H4 C5 1_555 1_555
C6 C4 1_555 1_555
H5 C6 1_555 1_555
H6 C6 1_555 1_555
C7 C6 1_555 1_555
H7 C7 1_555 1_555
H8 C7 1_555 1_555
C8 C7 1_555 1_555
N1 C1 1_555 1_555
O1 C8 1_555 1_555
O2 C8 1_555 1_555
Cd1_2 O1 1_555 1_555
Cd1_3 O2 1_555 1_555
Cd1_4 O1A 1_555 1_555
Cd1_5 O2A 1_555 1_555
C1A H1A 1_555 1_555
C2A C1A 1_555 1_555
H2A C2A 1_555 1_555
C3A C2A 1_555 1_555
H3A C3A 1_555 1_555
C4A C3A 1_555 1_555
C5A C4A 1_555 1_555
H4A C5A 1_555 1_555
C6A C4A 1_555 1_555
H5A C6A 1_555 1_555
H6A C6A 1_555 1_555
C7A C6A 1_555 1_555
H7A C7A 1_555 1_555
H8A C7A 1_555 1_555
C8A C7A 1_555 1_555
N1A Cd1 1_555 1_555
O1A C8A 1_555 1_555
O1_2 Cd1 1_555 1_555
O1A_2 Cd1 1_555 1_555
O2A C8A 1_555 1_555
O2_2 Cd1 1_555 1_555
O2A_2 Cd1 1_555 1_555
C5 N1 1_555 1_555
C1A N1A 1_555 1_555
C5A N1A 1_555 1_555

#END
