
#######################################################################
#
#                 Cambridge Crystallographic Data Centre
#                                CCDC 
#
#######################################################################
#
# If this CIF has been generated from an entry in the Cambridge 
# Structural Database, then it will include bibliographic, chemical, 
# crystal, experimental, refinement or atomic coordinate data resulting 
# from the CCDC's data processing and validation procedures.
#
#######################################################################

data_QATRUA
_symmetry_cell_setting           triclinic
_symmetry_space_group_name_H-M   'P -1'
_symmetry_Int_Tables_number      2
_space_group_name_Hall           '-P 1'
loop_
_symmetry_equiv_pos_site_id
_symmetry_equiv_pos_as_xyz
1 x,y,z
2 -x,-y,-z
_cell_length_a                   7.6497(6)
_cell_length_b                   9.6549(7)
_cell_length_c                   12.0050(9)
_cell_angle_alpha                67.0250(10)
_cell_angle_beta                 81.3320(10)
_cell_angle_gamma                84.8910(10)
_cell_volume                     806.552
loop_
_atom_site_label
_atom_site_type_symbol
_atom_site_fract_x
_atom_site_fract_y
_atom_site_fract_z
Zn1 Zn 0.61494(10) -0.33907(7) 0.26185(6)
C1 C 0.8152(10) -0.3308(7) 0.4573(6)
H1 H 0.8438 -0.4299 0.4664
C2 C 0.8741(10) -0.2776(8) 0.5342(7)
H2 H 0.9389 -0.3404 0.5956
C3 C 0.8365(9) -0.1303(7) 0.5200(6)
H3 H 0.8761 -0.0926 0.5718
C4 C 0.7396(8) -0.0380(6) 0.4283(5)
C5 C 0.6818(8) -0.1013(6) 0.3554(6)
H4 H 0.6151 -0.0411 0.2941
C6 C 0.6993(8) 0.1202(6) 0.4124(6)
H5 H 0.6376 0.1165 0.4903
H6 H 0.8129 0.1632 0.4038
C7 C 0.6117(8) 0.2223(6) 0.3295(6)
H7 H 0.4924 0.1872 0.3431
H8 H 0.6647 0.2215 0.2510
C8 C 0.5949(8) 0.3830(7) 0.3162(6)
C9 C 0.9838(9) -0.2265(7) 0.1139(7)
H9 H 0.9342 -0.1372 0.1188
C10 C 1.1519(10) -0.2246(8) 0.0533(8)
H10 H 1.2118 -0.1351 0.0153
C11 C 1.2305(9) -0.3583(8) 0.0496(7)
H11 H 1.3444 -0.3598 0.0099
C12 C 1.1368(8) -0.4896(7) 0.1060(6)
C13 C 0.9656(8) -0.4786(7) 0.1621(6)
H12 H 0.9013 -0.5658 0.1991
C14 C 1.2178(8) -0.6363(7) 0.1115(6)
H13 H 1.2453 -0.6270 0.0274
H14 H 1.3306 -0.6431 0.1412
C15 C 1.1490(9) -0.7703(7) 0.1714(6)
H15 H 1.0459 -0.7708 0.1333
H16 H 1.1054 -0.7758 0.2531
C16 C 1.2503(10) -0.9147(7) 0.1856(6)
N1 N 0.7174(7) -0.2461(5) 0.3688(5)
N2 N 0.8879(7) -0.3506(5) 0.1663(5)
O1 O 0.6443(6) 0.4215(5) 0.3959(4)
O2 O 0.5465(6) 0.4803(5) 0.2198(4)
O3 O 1.1858(7) -1.0329(5) 0.2655(5)
O4 O 1.3976(7) -0.9093(5) 0.1204(4)
O5 O 0.3549(6) -0.3118(5) 0.3497(4)
O6 O 0.5693(7) -0.1513(5) 0.1176(4)
Zn1_2 Zn 0.61494(10) 0.66093(7) 0.26185(6)
O1_2 O 0.6443(6) -0.5785(5) 0.3959(4)
O2_2 O 0.5465(6) -0.5197(5) 0.2198(4)
loop_
_geom_bond_atom_site_label_1
_geom_bond_atom_site_label_2
_geom_bond_site_symmetry_1
_geom_bond_site_symmetry_2
Zn1 N1 1_555 1_555
C1 H1 1_555 1_555
C2 C1 1_555 1_555
H2 C2 1_555 1_555
C3 C2 1_555 1_555
H3 C3 1_555 1_555
C4 C3 1_555 1_555
C5 C4 1_555 1_555
H4 C5 1_555 1_555
C6 C4 1_555 1_555
H5 C6 1_555 1_555
H6 C6 1_555 1_555
C7 C6 1_555 1_555
H7 C7 1_555 1_555
H8 C7 1_555 1_555
C8 C7 1_555 1_555
C9 H9 1_555 1_555
C10 C9 1_555 1_555
H10 C10 1_555 1_555
C11 C10 1_555 1_555
H11 C11 1_555 1_555
C12 C11 1_555 1_555
C13 C12 1_555 1_555
H12 C13 1_555 1_555
C14 C12 1_555 1_555
H13 C14 1_555 1_555
H14 C14 1_555 1_555
C15 C14 1_555 1_555
H15 C15 1_555 1_555
H16 C15 1_555 1_555
C16 C15 1_555 1_555
N1 C1 1_555 1_555
N2 Zn1 1_555 1_555
O1 C8 1_555 1_555
O2 C8 1_555 1_555
O3 C16 1_555 1_555
O4 C16 1_555 1_555
O5 Zn1 1_555 1_555
O6 Zn1 1_555 1_555
Zn1_2 O1 1_555 1_555
O1_2 Zn1 1_555 1_555
O2_2 Zn1 1_555 1_555
C5 N1 1_555 1_555
C9 N2 1_555 1_555
C13 N2 1_555 1_555
O2 Zn1_2 1_555 1_555

#END
