
#######################################################################
#
#                 Cambridge Crystallographic Data Centre
#                                CCDC 
#
#######################################################################
#
# If this CIF has been generated from an entry in the Cambridge 
# Structural Database, then it will include bibliographic, chemical, 
# crystal, experimental, refinement or atomic coordinate data resulting 
# from the CCDC's data processing and validation procedures.
#
#######################################################################

data_QATTIQ01
_symmetry_cell_setting           monoclinic
_symmetry_space_group_name_H-M   'P 2/c'
_symmetry_Int_Tables_number      13
_space_group_name_Hall           '-P 2yc'
loop_
_symmetry_equiv_pos_site_id
_symmetry_equiv_pos_as_xyz
1 x,y,z
2 -x,y,1/2-z
3 -x,-y,-z
4 x,-y,1/2+z
_cell_length_a                   12.4122(4)
_cell_length_b                   7.4835(6)
_cell_length_c                   20.606(2)
_cell_angle_alpha                90
_cell_angle_beta                 94.844(7)
_cell_angle_gamma                90
_cell_volume                     1907.19
loop_
_atom_site_label
_atom_site_type_symbol
_atom_site_fract_x
_atom_site_fract_y
_atom_site_fract_z
Nd1 Nd 0.559611(12) 0.257837(18) 0.531085(7)
O1 O 0.5301(2) 0.3772(3) 0.64232(11)
O2 O 0.4680(2) 0.5686(3) 0.56720(10)
O3 O 0.36612(19) 0.2725(3) 0.50476(13)
O4 O 0.6739(2) 0.0607(4) 0.60891(13)
O5 O 0.45921(18) -0.0206(3) 0.56176(11)
O6 O 0.70340(19) 0.4745(3) 0.53793(12)
O7 O 0.70574(19) 0.1141(3) 0.47077(11)
C1 C 0.4755(2) 0.5129(4) 0.62585(13)
C2 C 0.2890(2) 0.3729(4) 0.48705(15)
H1 H 0.658(3) -0.045(3) 0.618(3)
H2 H 0.7387(19) 0.083(5) 0.623(3)
C3 C 0.3564(2) -0.0182(4) 0.56560(14)
C4 C 0.4069(3) 0.6019(4) 0.67315(13)
C5 C 0.1765(3) 0.3069(4) 0.49501(15)
C6 C 0.3134(3) 0.0907(4) 0.61828(14)
C7 C 0.4422(2) 0.6443(4) 0.73806(14)
C8 C 0.2991(3) 0.6347(4) 0.65238(16)
C9 C 0.1443(3) 0.2162(4) 0.55028(16)
C10 C 0.0967(3) 0.3493(5) 0.44564(18)
C11 C 0.2157(3) 0.1853(4) 0.61207(15)
C12 C 0.3740(3) 0.0897(4) 0.67836(15)
N1 N 0.3754(2) 0.7060(4) 0.78099(13)
C13 C 0.2303(3) 0.6995(5) 0.69657(18)
H3 H 0.2735 0.6134 0.6094
N2 N 0.0397(2) 0.1729(4) 0.55566(16)
H4 H 0.1151 0.4110 0.4090
C14 C -0.0087(3) 0.3006(6) 0.4509(2)
N3 N 0.1769(3) 0.2654(4) 0.66378(15)
H5 H 0.4405 0.0320 0.6831
C15 C 0.3344(3) 0.1752(5) 0.73117(16)
C16 C 0.2712(3) 0.7284(5) 0.76029(17)
H6 H 0.1581 0.7231 0.6836
C17 C -0.0337(3) 0.2126(6) 0.5063(2)
H7 H -0.0620 0.3264 0.4178
C18 C 0.2348(3) 0.2559(5) 0.72181(17)
H8 H 0.3739 0.1778 0.7716
H9 H 0.2237 0.7652 0.7903
H10 H -0.1052 0.1790 0.5096
H11 H 0.2058 0.3068 0.7577
O2B O 0.5320(2) 0.4314(3) 0.43280(10)
O5B O 0.54079(18) 0.0206(3) 0.43824(11)
Nd1B Nd 0.440389(12) 0.742163(18) 0.468915(7)
Nd1B_2 Nd 0.440389(12) -0.257837(18) 0.468915(7)
C2B C 0.7110(2) 0.6271(4) 0.51295(15)
O6B O 0.29660(19) 0.5255(3) 0.46207(12)
O3B O 0.63388(19) 0.7275(3) 0.49524(13)
O4B O 0.3261(2) 0.9393(4) 0.39109(13)
O5B_2 O 0.54079(18) 1.0206(3) 0.43824(11)
O5_2 O 0.45921(18) 0.9794(3) 0.56176(11)
O7B O 0.29426(19) 0.8859(3) 0.52923(11)
O1B O 0.4699(2) 0.6228(3) 0.35768(11)
O7B_2 O 0.29426(19) -0.1141(3) 0.52923(11)
C5B C 0.8235(3) 0.6931(4) 0.50499(15)
H1B H 0.342(3) 1.045(3) 0.382(3)
H2B H 0.2613(19) 0.917(5) 0.377(3)
C3B C 0.6436(2) 1.0182(4) 0.43440(14)
Nd1_2 Nd 0.559611(12) 1.257837(18) 0.531085(7)
C9B C 0.8557(3) 0.7838(4) 0.44972(16)
C10B C 0.9033(3) 0.6507(5) 0.55436(18)
C7A C 0.5578(2) 0.6443(4) 0.76194(14)
C6B C 0.6866(3) 0.9093(4) 0.38172(14)
O7_2 O 0.70574(19) 1.1141(3) 0.47077(11)
C11B C 0.7843(3) 0.8147(4) 0.38793(15)
N2B N 0.9603(2) 0.8271(4) 0.44434(16)
C14B C 1.0087(3) 0.6994(6) 0.5491(2)
H4B H 0.8849 0.5890 0.5910
N1A N 0.6246(2) 0.7060(4) 0.71901(13)
C4A C 0.5931(3) 0.6019(4) 0.82685(13)
C12B C 0.6260(3) 0.9103(4) 0.32164(15)
N3B N 0.8231(3) 0.7346(4) 0.33622(15)
C17B C 1.0337(3) 0.7874(6) 0.4937(2)
H7B H 1.0620 0.6736 0.5822
C16A C 0.7288(3) 0.7284(5) 0.73971(17)
C1A C 0.5245(2) 0.5129(4) 0.87415(13)
C8A C 0.7009(3) 0.6347(4) 0.84762(16)
C15B C 0.6656(3) 0.8248(5) 0.26883(16)
H5B H 0.5595 0.9680 0.3169
C18B C 0.7652(3) 0.7441(5) 0.27819(17)
H10B H 1.1052 0.8210 0.4904
C13A C 0.7697(3) 0.6995(5) 0.80343(18)
H9A H 0.7763 0.7652 0.7097
O1A O 0.4699(2) 0.3772(3) 0.85768(11)
O2A O 0.5320(2) 0.5686(3) 0.93280(10)
H3A H 0.7265 0.6134 0.8906
H8B H 0.6261 0.8222 0.2284
H11B H 0.7942 0.6932 0.2423
H6A H 0.8419 0.7231 0.8164
Nd1A Nd 0.440389(12) 0.257837(18) 0.968915(7)
Nd1C Nd 0.559611(12) 0.742163(18) 1.031085(7)
O8 O -0.1035(3) 0.0676(6) 0.64922(17)
O9 O -0.0217(3) 0.4222(6) 0.68389(18)
O10 O 0.0000 0.8504(8) 0.7500
loop_
_geom_bond_atom_site_label_1
_geom_bond_atom_site_label_2
_geom_bond_site_symmetry_1
_geom_bond_site_symmetry_2
Nd1 O1 1_555 1_555
O1 C1 1_555 1_555
O2 Nd1 1_555 1_555
O3 Nd1 1_555 1_555
O4 Nd1 1_555 1_555
O5 Nd1 1_555 1_555
O6 Nd1 1_555 1_555
O7 Nd1 1_555 1_555
C1 O2 1_555 1_555
C2 O3 1_555 1_555
H1 O4 1_555 1_555
H2 O4 1_555 1_555
C3 O5 1_555 1_555
C4 C1 1_555 1_555
C5 C2 1_555 1_555
C6 C3 1_555 1_555
C7 C4 1_555 1_555
C8 C4 1_555 1_555
C9 C5 1_555 1_555
C10 C5 1_555 1_555
C11 C6 1_555 1_555
C12 C6 1_555 1_555
N1 C7 1_555 1_555
C13 C8 1_555 1_555
H3 C8 1_555 1_555
N2 C9 1_555 1_555
H4 C10 1_555 1_555
C14 C10 1_555 1_555
N3 C11 1_555 1_555
H5 C12 1_555 1_555
C15 C12 1_555 1_555
C16 N1 1_555 1_555
H6 C13 1_555 1_555
C17 N2 1_555 1_555
H7 C14 1_555 1_555
C18 N3 1_555 1_555
H8 C15 1_555 1_555
H9 C16 1_555 1_555
H10 C17 1_555 1_555
H11 C18 1_555 1_555
O2B Nd1 1_555 1_555
O5B Nd1 1_555 1_555
Nd1B O2 1_555 1_555
Nd1B_2 O5 1_555 1_555
C2B O6 1_555 1_555
O6B C2 1_555 1_555
O3B Nd1B 1_555 1_555
O4B Nd1B 1_555 1_555
O5B_2 Nd1B 1_555 1_555
O5_2 Nd1B 1_555 1_555
O7B Nd1B 1_555 1_555
O1B Nd1B 1_555 1_555
O7B_2 C3 1_555 1_555
C5B C2B 1_555 1_555
H1B O4B 1_555 1_555
H2B O4B 1_555 1_555
C3B O5B_2 1_555 1_555
Nd1_2 O5B_2 1_555 1_555
C9B C5B 1_555 1_555
C10B C5B 1_555 1_555
C7A C7 1_555 1_555
C6B C3B 1_555 1_555
O7_2 C3B 1_555 1_555
C11B C9B 1_555 1_555
N2B C9B 1_555 1_555
C14B C10B 1_555 1_555
H4B C10B 1_555 1_555
N1A C7A 1_555 1_555
C4A C7A 1_555 1_555
C12B C6B 1_555 1_555
N3B C11B 1_555 1_555
C17B N2B 1_555 1_555
H7B C14B 1_555 1_555
C16A N1A 1_555 1_555
C1A C4A 1_555 1_555
C8A C4A 1_555 1_555
C15B C12B 1_555 1_555
H5B C12B 1_555 1_555
C18B N3B 1_555 1_555
H10B C17B 1_555 1_555
C13A C16A 1_555 1_555
H9A C16A 1_555 1_555
O1A C1A 1_555 1_555
O2A C1A 1_555 1_555
H3A C8A 1_555 1_555
H8B C15B 1_555 1_555
H11B C18B 1_555 1_555
H6A C13A 1_555 1_555
Nd1A O1A 1_555 1_555
Nd1C O2A 1_555 1_555
C9 C11 1_555 1_555
C13 C16 1_555 1_555
C14 C17 1_555 1_555
C15 C18 1_555 1_555
O2B Nd1B 1_555 1_555
O5B Nd1B_2 1_555 1_555
Nd1B O6B 1_555 1_555
Nd1B_2 O7B_2 1_555 1_555
C2B O3B 1_555 1_555
O5_2 Nd1_2 1_555 1_555
Nd1_2 O7_2 1_555 1_555
C6B C11B 1_555 1_555
C14B C17B 1_555 1_555
C8A C13A 1_555 1_555
C15B C18B 1_555 1_555
O2A Nd1A 1_555 1_555

#END
