
#######################################################################
#
#                 Cambridge Crystallographic Data Centre
#                                CCDC 
#
#######################################################################
#
# If this CIF has been generated from an entry in the Cambridge 
# Structural Database, then it will include bibliographic, chemical, 
# crystal, experimental, refinement or atomic coordinate data resulting 
# from the CCDC's data processing and validation procedures.
#
#######################################################################

data_QATTIQ
_symmetry_cell_setting           monoclinic
_symmetry_space_group_name_H-M   'P 2/c'
_symmetry_Int_Tables_number      13
_space_group_name_Hall           '-P 2yc'
loop_
_symmetry_equiv_pos_site_id
_symmetry_equiv_pos_as_xyz
1 x,y,z
2 -x,y,1/2-z
3 -x,-y,-z
4 x,-y,1/2+z
_cell_length_a                   12.3802(15)
_cell_length_b                   7.4900(9)
_cell_length_c                   20.572(3)
_cell_angle_alpha                90
_cell_angle_beta                 94.666(2)
_cell_angle_gamma                90
_cell_volume                     1901.27
loop_
_atom_site_label
_atom_site_type_symbol
_atom_site_fract_x
_atom_site_fract_y
_atom_site_fract_z
C1 C -0.3562(4) 0.2164(6) 0.0504(2)
C2 C -0.3241(4) 0.3072(7) -0.0049(2)
C3 C -0.4034(4) 0.3474(8) -0.0544(3)
H1 H -0.3848 0.4070 -0.0916
C4 C -0.5088(4) 0.2993(9) -0.0486(3)
H2 H -0.5625 0.3251 -0.0816
C5 C -0.5333(4) 0.2124(8) 0.0068(3)
H3 H -0.6049 0.1786 0.0104
C6 C -0.2116(4) 0.3726(7) -0.0130(2)
C7 C -0.2848(4) 0.1851(7) 0.1121(2)
C8 C -0.1869(4) 0.0903(6) 0.1185(2)
C9 C -0.1261(4) 0.0902(7) 0.1787(2)
H4 H -0.0590 0.0336 0.1834
C10 C -0.1662(4) 0.1751(7) 0.2315(2)
H5 H -0.1273 0.1763 0.2722
C11 C -0.2656(5) 0.2574(7) 0.2219(3)
H6 H -0.2944 0.3106 0.2575
C12 C -0.1447(4) -0.0193(6) 0.0655(2)
C13 C -0.0578(4) 0.6448(6) 0.2381(2)
C14 C -0.0937(4) 0.6024(6) 0.1733(2)
C15 C -0.2014(4) 0.6351(7) 0.1535(2)
H7 H -0.2274 0.6151 0.1104
C16 C -0.2702(4) 0.6977(8) 0.1982(3)
H8 H -0.3429 0.7191 0.1857
C17 C -0.2290(5) 0.7276(7) 0.2614(3)
H9 H -0.2763 0.7648 0.2915
C18 C -0.0252(4) 0.5130(7) 0.1259(2)
N1 N -0.1245(3) 0.7059(6) 0.2816(2)
N2 N -0.3230(4) 0.2652(5) 0.1640(2)
N3 N -0.4597(3) 0.1734(6) 0.0561(2)
Nd1 Nd -0.059643(19) 0.74196(3) -0.031078(11)
O1 O -0.2032(2) 0.5245(4) -0.03781(16)
O2 O -0.1340(3) 0.2726(4) 0.00505(17)
O3 O -0.0410(2) -0.0207(4) 0.06162(15)
O4 O -0.2062(2) -0.1142(4) 0.02961(15)
O5 O -0.0322(3) 0.5687(4) 0.06704(15)
O6 O 0.0295(3) 0.3774(4) 0.14249(15)
O7 O -0.1730(3) 0.9395(5) -0.10886(16)
H10 H -0.1766 0.9188 -0.1496
H11 H -0.2077 1.0267 -0.0943
C1B C 0.3562(4) 0.7836(6) -0.0504(2)
C2B C 0.3241(4) 0.6928(7) 0.0049(2)
C3B C 0.4034(4) 0.6526(8) 0.0544(3)
H1B H 0.3848 0.5930 0.0916
C4B C 0.5088(4) 0.7007(9) 0.0486(3)
H2B H 0.5625 0.6749 0.0816
C5B C 0.5333(4) 0.7876(8) -0.0068(3)
H3B H 0.6049 0.8214 -0.0104
C6B C 0.2116(4) 0.6274(7) 0.0130(2)
C7B C 0.2848(4) 0.8149(7) -0.1121(2)
C8B C 0.1869(4) 0.9097(6) -0.1185(2)
C9B C 0.1261(4) 0.9098(7) -0.1787(2)
H4B H 0.0590 0.9664 -0.1834
C10B C 0.1662(4) 0.8249(7) -0.2315(2)
H5B H 0.1273 0.8237 -0.2722
C11B C 0.2656(5) 0.7426(7) -0.2219(3)
H6B H 0.2944 0.6894 -0.2575
C12B C 0.1447(4) 1.0193(6) -0.0655(2)
C13A C 0.0578(4) 0.6448(6) 0.2619(2)
C14A C 0.0937(4) 0.6024(6) 0.3267(2)
C15A C 0.2014(4) 0.6351(7) 0.3465(2)
H7A H 0.2274 0.6151 0.3896
C16A C 0.2702(4) 0.6977(8) 0.3018(3)
H8A H 0.3429 0.7191 0.3143
C17A C 0.2290(5) 0.7276(7) 0.2386(3)
H9A H 0.2763 0.7648 0.2085
C18A C 0.0252(4) 0.5130(7) 0.3741(2)
N1A N 0.1245(3) 0.7059(6) 0.2184(2)
N2B N 0.3230(4) 0.7348(5) -0.1640(2)
N3B N 0.4597(3) 0.8266(6) -0.0561(2)
Nd1B Nd 0.059643(19) 0.25804(3) 0.031078(11)
Nd1_2 Nd -0.059643(19) -0.25804(3) -0.031078(11)
Nd1A Nd 0.059643(19) 0.74196(3) 0.531078(11)
Nd1C Nd -0.059643(19) 0.25804(3) 0.468922(11)
Nd1B_2 Nd 0.059643(19) 1.25804(3) 0.031078(11)
O1B O 0.2032(2) 0.4755(4) 0.03781(16)
O2B O 0.1340(3) 0.7274(4) -0.00505(17)
O3B O 0.0410(2) 1.0207(4) -0.06162(15)
O3_2 O -0.0410(2) 0.9793(4) 0.06162(15)
O3B_2 O 0.0410(2) 0.0207(4) -0.06162(15)
O4B O 0.2062(2) 1.1142(4) -0.02961(15)
O4_2 O -0.2062(2) 0.8858(4) 0.02961(15)
O4B_2 O 0.2062(2) 0.1142(4) -0.02961(15)
O5A O 0.0322(3) 0.5687(4) 0.43296(15)
O5B O 0.0322(3) 0.4313(4) -0.06704(15)
O6A O -0.0295(3) 0.3774(4) 0.35751(15)
O6B O -0.0295(3) 0.6226(4) -0.14249(15)
O7B O 0.1730(3) 0.0605(5) 0.10886(16)
H10B H 0.1766 0.0812 0.1496
H11B H 0.2077 -0.0267 0.0943
O8 O 0.6062(3) 0.0689(7) 0.3518(2)
H12 H 0.5849 -0.0382 0.3460
H13 H 0.5766 0.1324 0.3211
O9 O 0.4745(4) 0.5769(7) 0.6832(2)
H14 H 0.5141 0.5131 0.7098
H15 H 0.5115 0.6668 0.6730
O10 O 0.5000 0.856(2) 0.2500
H16? H 0.5233 0.7761 0.2252
H17? H 0.4478 0.8886 0.2233
loop_
_geom_bond_atom_site_label_1
_geom_bond_atom_site_label_2
_geom_bond_site_symmetry_1
_geom_bond_site_symmetry_2
C1 C2 1_555 1_555
C2 C3 1_555 1_555
C3 H1 1_555 1_555
C4 C3 1_555 1_555
H2 C4 1_555 1_555
C5 C4 1_555 1_555
H3 C5 1_555 1_555
C6 C2 1_555 1_555
C7 C1 1_555 1_555
C8 C7 1_555 1_555
C9 C8 1_555 1_555
H4 C9 1_555 1_555
C10 C9 1_555 1_555
H5 C10 1_555 1_555
C11 C10 1_555 1_555
H6 C11 1_555 1_555
C12 C8 1_555 1_555
C13 C14 1_555 1_555
C14 C15 1_555 1_555
C15 H7 1_555 1_555
C16 C15 1_555 1_555
H8 C16 1_555 1_555
C17 C16 1_555 1_555
H9 C17 1_555 1_555
C18 C14 1_555 1_555
N1 C13 1_555 1_555
N2 C7 1_555 1_555
N3 C1 1_555 1_555
Nd1 O1 1_555 1_555
O1 C6 1_555 1_555
O2 C6 1_555 1_555
O3 C12 1_555 1_555
O4 C12 1_555 1_555
O5 C18 1_555 1_555
O6 C18 1_555 1_555
O7 Nd1 1_555 1_555
H10 O7 1_555 1_555
H11 O7 1_555 1_555
O8 H12 1_555 1_555
H13 O8 1_555 1_555
O9 H14 1_555 1_555
H15 O9 1_555 1_555
C1B C2B 1_555 1_555
C2B C3B 1_555 1_555
C3B H1B 1_555 1_555
C4B C3B 1_555 1_555
H2B C4B 1_555 1_555
C5B C4B 1_555 1_555
H3B C5B 1_555 1_555
C6B C2B 1_555 1_555
C7B C1B 1_555 1_555
C8B C7B 1_555 1_555
C9B C8B 1_555 1_555
H4B C9B 1_555 1_555
C10B C9B 1_555 1_555
H5B C10B 1_555 1_555
C11B C10B 1_555 1_555
H6B C11B 1_555 1_555
C12B C8B 1_555 1_555
C13A C13 1_555 1_555
C14A C13A 1_555 1_555
C15A C14A 1_555 1_555
H7A C15A 1_555 1_555
C16A C15A 1_555 1_555
H8A C16A 1_555 1_555
C17A C16A 1_555 1_555
H9A C17A 1_555 1_555
C18A C14A 1_555 1_555
N1A C13A 1_555 1_555
N2B C7B 1_555 1_555
N3B C1B 1_555 1_555
Nd1B O2 1_555 1_555
Nd1_2 O3 1_555 1_555
Nd1A O5A 1_555 1_555
Nd1C O5A 1_555 1_555
Nd1B_2 O3B 1_555 1_555
O1B C6B 1_555 1_555
O2B Nd1 1_555 1_555
O3B Nd1 1_555 1_555
O3_2 Nd1 1_555 1_555
O3B_2 Nd1B 1_555 1_555
O4B C12B 1_555 1_555
O4_2 Nd1 1_555 1_555
O4B_2 Nd1B 1_555 1_555
O5A C18A 1_555 1_555
O5B Nd1 1_555 1_555
O6A C18A 1_555 1_555
O6B Nd1 1_555 1_555
O7B Nd1B 1_555 1_555
H10B O7B 1_555 1_555
H11B O7B 1_555 1_555
C5 N3 1_555 1_555
C11 N2 1_555 1_555
C17 N1 1_555 1_555
Nd1 O5 1_555 1_555
O3 Nd1B 1_555 1_555
O4 Nd1_2 1_555 1_555
O5 Nd1B 1_555 1_555
O6 Nd1B 1_555 1_555
C5B N3B 1_555 1_555
C6B O2B 1_555 1_555
C11B N2B 1_555 1_555
C12B O3B 1_555 1_555
C17A N1A 1_555 1_555
Nd1B O1B 1_555 1_555
Nd1B O5B 1_555 1_555
Nd1_2 O3B_2 1_555 1_555
Nd1C O6A 1_555 1_555
Nd1B_2 O3_2 1_555 1_555
Nd1B_2 O4B 1_555 1_555

#END
