
#######################################################################
#
#                 Cambridge Crystallographic Data Centre
#                                CCDC 
#
#######################################################################
#
# If this CIF has been generated from an entry in the Cambridge 
# Structural Database, then it will include bibliographic, chemical, 
# crystal, experimental, refinement or atomic coordinate data resulting 
# from the CCDC's data processing and validation procedures.
#
#######################################################################

data_QATTUC
_symmetry_cell_setting           monoclinic
_symmetry_space_group_name_H-M   'C 2/c'
_symmetry_Int_Tables_number      15
_space_group_name_Hall           '-C 2yn'
loop_
_symmetry_equiv_pos_site_id
_symmetry_equiv_pos_as_xyz
1 x,y,z
2 -x,y,1/2-z
3 1/2+x,1/2+y,z
4 1/2-x,1/2+y,1/2-z
5 -x,-y,-z
6 x,-y,1/2+z
7 1/2-x,1/2-y,-z
8 1/2+x,1/2-y,1/2+z
_cell_length_a                   25.875(5)
_cell_length_b                   10.882(2)
_cell_length_c                   17.333(4)
_cell_angle_alpha                90
_cell_angle_beta                 108.05(3)
_cell_angle_gamma                90
_cell_volume                     4640.3
loop_
_atom_site_label
_atom_site_type_symbol
_atom_site_fract_x
_atom_site_fract_y
_atom_site_fract_z
Eu1 Eu 0.264349(14) 0.29075(3) 0.18184(2)
C1 C 0.3965(3) 0.2044(9) 0.1982(6)
C2 C 0.4512(3) 0.2708(8) 0.2238(5)
C3 C 0.5000 0.2067(12) 0.2500
H1 H 0.5000 0.1212 0.2500
C4 C 0.5000 0.4609(12) 0.2500
H2 H 0.5000 0.5464 0.2500
C5 C 0.4513(3) 0.3965(8) 0.2235(5)
H3 H 0.4186 0.4391 0.2053
C6 C 0.2914(3) 0.2786(7) 0.3560(4)
C7 C 0.3080(3) 0.2789(7) 0.4471(4)
C8 C 0.3363(3) 0.1799(8) 0.4914(5)
H4 H 0.3449 0.1126 0.4646
C9 C 0.3518(4) 0.1815(8) 0.5758(5)
H5 H 0.3699 0.1142 0.6052
C10 C 0.3406(3) 0.2822(7) 0.6161(4)
H6 H 0.3519 0.2839 0.6725
C11 C 0.3125(3) 0.3810(7) 0.5720(4)
C12 C 0.2970(3) 0.3794(7) 0.4885(4)
H7 H 0.2788 0.4468 0.4595
C13 C 0.2983(3) 0.4913(7) 0.6128(4)
O1 O 0.3946(3) 0.0948(7) 0.1822(6)
O2 O 0.3564(2) 0.2712(6) 0.1973(5)
O3 O 0.2994(3) 0.1865(5) 0.3179(3)
O4 O 0.2688(2) 0.3734(5) 0.3175(3)
O5 O 0.3037(2) 0.4913(5) 0.6874(3)
O6 O 0.2806(3) 0.5853(5) 0.5707(3)
O7 O 0.1920(2) 0.4418(6) 0.1554(4)
H16 H 0.1636 0.4079 0.1549
H17 H 0.198(5) 0.515(3) 0.155(7)
O8 O 0.1879(3) 0.1801(6) 0.1958(4)
H18 H 0.173(4) 0.143(9) 0.161(6)
H19 H 0.192(4) 0.137(9) 0.229(6)
O9 O 0.1984(3) 0.2427(7) 0.0425(4)
H20 H 0.2025 0.1712 0.0305
H21 H 0.199(5) 0.262(11) 0.010(6)
O10 O 0.2832(3) 0.0800(6) 0.1496(4)
H22 H 0.312(4) 0.075(10) 0.150(7)
H23 H 0.283(3) 0.122(7) 0.198(4)
Eu1A Eu 0.735651(14) 0.29075(3) 0.31816(2)
Eu1E Eu 0.264349(14) 0.70925(3) 0.68184(2)
Eu1E_2 Eu 0.264349(14) 0.70925(3) -0.31816(2)
C1A C 0.6035(3) 0.2044(9) 0.3018(6)
C2A C 0.5488(3) 0.2708(8) 0.2762(5)
C5A C 0.5487(3) 0.3965(8) 0.2765(5)
H3A H 0.5814 0.4391 0.2947
C6E C 0.2914(3) 0.7214(7) -0.1440(4)
C7E C 0.3080(3) 0.7211(7) -0.0529(4)
C8E C 0.3363(3) 0.8201(8) -0.0086(5)
H4E H 0.3449 0.8874 -0.0354
C9E C 0.3518(4) 0.8185(8) 0.0758(5)
H5E H 0.3699 0.8858 0.1052
C10E C 0.3406(3) 0.7178(7) 0.1161(4)
H6E H 0.3519 0.7161 0.1725
C11E C 0.3125(3) 0.6190(7) 0.0720(4)
C12E C 0.2970(3) 0.6206(7) -0.0115(4)
H7E H 0.2788 0.5532 -0.0405
C13E C 0.2983(3) 0.5087(7) 0.1128(4)
O1A O 0.6054(3) 0.0948(7) 0.3178(6)
O2A O 0.6436(2) 0.2712(6) 0.3027(5)
O3E O 0.2994(3) 0.8135(5) -0.1821(3)
O3A O 0.7006(3) 0.1865(5) 0.1821(3)
O4E O 0.2688(2) 0.6266(5) -0.1825(3)
O4A O 0.7312(2) 0.3734(5) 0.1825(3)
O5E O 0.3037(2) 0.5087(5) 0.1874(3)
O5D O 0.6963(2) 0.5087(5) 0.3126(3)
O6E O 0.2806(3) 0.4147(5) 0.0707(3)
O6D O 0.7194(3) 0.4147(5) 0.4293(3)
O7A O 0.8080(2) 0.4418(6) 0.3446(4)
H16A H 0.8364 0.4079 0.3451
H17A H 0.802(5) 0.515(3) 0.345(7)
O8A O 0.8121(3) 0.1801(6) 0.3042(4)
H18A H 0.827(4) 0.143(9) 0.339(6)
H19A H 0.808(4) 0.137(9) 0.271(6)
O9A O 0.8016(3) 0.2427(7) 0.4575(4)
H20A H 0.7975 0.1712 0.4695
H21A H 0.801(5) 0.262(11) 0.490(6)
O10A O 0.7168(3) 0.0800(6) 0.3504(4)
H22A H 0.688(4) 0.075(10) 0.350(7)
H23A H 0.717(3) 0.122(7) 0.302(4)
C14 C 0.5241(4) 0.1874(11) 0.4845(7)
H8 H 0.5169 0.2068 0.4300
C15 C 0.5646(5) 0.1006(15) 0.5214(10)
H9 H 0.5821 0.0593 0.4896
C16 C 0.5492(6) 0.1271(16) 0.6424(9)
H10 H 0.5566 0.1051 0.6966
C17 C 0.5077(5) 0.2122(13) 0.6095(8)
H11 H 0.4889 0.2473 0.6418
C18 C 0.4951(4) 0.2434(10) 0.5287(6)
C19 C 0.4556(4) 0.3404(10) 0.4916(6)
C20 C 0.4455(4) 0.4403(10) 0.5360(6)
H12 H 0.4623 0.4439 0.5918
C21 C 0.4115(4) 0.5312(10) 0.4986(6)
H13 H 0.4043 0.5936 0.5305
C22 C 0.3965(4) 0.4439(10) 0.3755(6)
H14 H 0.3795 0.4448 0.3197
C23 C 0.4296(4) 0.3454(10) 0.4085(6)
H15 H 0.4345 0.2825 0.3751
N1 N 0.5785(4) 0.0761(13) 0.6003(9)
N2 N 0.3876(3) 0.5370(7) 0.4187(5)
loop_
_geom_bond_atom_site_label_1
_geom_bond_atom_site_label_2
_geom_bond_site_symmetry_1
_geom_bond_site_symmetry_2
Eu1 O2 1_555 1_555
C1 C2 1_555 1_555
C2 C3 1_555 1_555
C3 H1 1_555 1_555
C4 H2 1_555 1_555
C5 C2 1_555 1_555
H3 C5 1_555 1_555
C6 C7 1_555 1_555
C7 C8 1_555 1_555
C8 H4 1_555 1_555
C9 C8 1_555 1_555
H5 C9 1_555 1_555
C10 C9 1_555 1_555
H6 C10 1_555 1_555
C11 C10 1_555 1_555
C12 C7 1_555 1_555
H7 C12 1_555 1_555
C13 C11 1_555 1_555
C14 H8 1_555 1_555
C15 C14 1_555 1_555
H9 C15 1_555 1_555
C16 H10 1_555 1_555
C17 C16 1_555 1_555
H11 C17 1_555 1_555
C18 C14 1_555 1_555
C19 C18 1_555 1_555
C20 C19 1_555 1_555
H12 C20 1_555 1_555
C21 C20 1_555 1_555
H13 C21 1_555 1_555
C22 H14 1_555 1_555
C23 C19 1_555 1_555
H15 C23 1_555 1_555
N1 C15 1_555 1_555
N2 C21 1_555 1_555
O1 C1 1_555 1_555
O2 C1 1_555 1_555
O3 Eu1 1_555 1_555
O4 Eu1 1_555 1_555
O5 C13 1_555 1_555
O6 C13 1_555 1_555
O7 Eu1 1_555 1_555
H16 O7 1_555 1_555
H17 O7 1_555 1_555
O8 Eu1 1_555 1_555
H18 O8 1_555 1_555
H19 O8 1_555 1_555
O9 Eu1 1_555 1_555
H20 O9 1_555 1_555
H21 O9 1_555 1_555
O10 Eu1 1_555 1_555
H22 O10 1_555 1_555
H23 O10 1_555 1_555
Eu1A O2A 1_555 1_555
Eu1E O5 1_555 1_555
Eu1E_2 O3E 1_555 1_555
C1A C2A 1_555 1_555
C2A C3 1_555 1_555
C5A C4 1_555 1_555
H3A C5A 1_555 1_555
C6E C7E 1_555 1_555
C7E C8E 1_555 1_555
C8E H4E 1_555 1_555
C9E C8E 1_555 1_555
H5E C9E 1_555 1_555
C10E C9E 1_555 1_555
H6E C10E 1_555 1_555
C11E C10E 1_555 1_555
C12E C7E 1_555 1_555
H7E C12E 1_555 1_555
C13E C11E 1_555 1_555
O1A C1A 1_555 1_555
O2A C1A 1_555 1_555
O3E C6E 1_555 1_555
O3A Eu1A 1_555 1_555
O4E Eu1E_2 1_555 1_555
O4A Eu1A 1_555 1_555
O5E Eu1 1_555 1_555
O5D Eu1A 1_555 1_555
O6E Eu1 1_555 1_555
O6D Eu1A 1_555 1_555
O7A Eu1A 1_555 1_555
H16A O7A 1_555 1_555
H17A O7A 1_555 1_555
O8A Eu1A 1_555 1_555
H18A O8A 1_555 1_555
H19A O8A 1_555 1_555
O9A Eu1A 1_555 1_555
H20A O9A 1_555 1_555
H21A O9A 1_555 1_555
O10A Eu1A 1_555 1_555
H22A O10A 1_555 1_555
H23A O10A 1_555 1_555
C4 C5 1_555 1_555
C6 O3 1_555 1_555
C6 O4 1_555 1_555
C11 C12 1_555 1_555
C16 N1 1_555 1_555
C17 C18 1_555 1_555
C22 C23 1_555 1_555
C22 N2 1_555 1_555
O6 Eu1E 1_555 1_555
C2A C5A 1_555 1_555
C6E O4E 1_555 1_555
C11E C12E 1_555 1_555
C13E O5E 1_555 1_555
C13E O6E 1_555 1_555

#END
