
#######################################################################
#
#                 Cambridge Crystallographic Data Centre
#                                CCDC 
#
#######################################################################
#
# If this CIF has been generated from an entry in the Cambridge 
# Structural Database, then it will include bibliographic, chemical, 
# crystal, experimental, refinement or atomic coordinate data resulting 
# from the CCDC's data processing and validation procedures.
#
#######################################################################

data_QAVBEW
_symmetry_cell_setting           monoclinic
_symmetry_space_group_name_H-M   'C 2/c'
_symmetry_Int_Tables_number      15
_space_group_name_Hall           '-C 2yn'
loop_
_symmetry_equiv_pos_site_id
_symmetry_equiv_pos_as_xyz
1 x,y,z
2 -x,y,1/2-z
3 1/2+x,1/2+y,z
4 1/2-x,1/2+y,1/2-z
5 -x,-y,-z
6 x,-y,1/2+z
7 1/2-x,1/2-y,-z
8 1/2+x,1/2-y,1/2+z
_cell_length_a                   13.320(12)
_cell_length_b                   7.828(7)
_cell_length_c                   12.300(11)
_cell_angle_alpha                90
_cell_angle_beta                 94.378(9)
_cell_angle_gamma                90
_cell_volume                     1278.77
loop_
_atom_site_label
_atom_site_type_symbol
_atom_site_fract_x
_atom_site_fract_y
_atom_site_fract_z
Mn1 Mn 0.5000 0.59397(4) 0.7500
O1 O 0.5000 0.3230(2) 0.7500
H1 H 0.4495 0.2626 0.7277
O2 O 0.5000 0.8684(2) 0.7500
H2 H 0.5311 0.9247 0.7040
N1 N 0.34848(9) 0.59861(17) 0.81897(11)
N2 N 0.18102(10) 0.65850(19) 0.82207(11)
N3 N 0.41863(11) 0.40813(19) 1.07775(12)
N4 N 0.10409(12) 0.5037(3) 1.07303(13)
C1 C 0.31505(11) 0.5388(2) 0.91458(12)
C2 C 0.21295(12) 0.5755(2) 0.91549(13)
C3 C 0.26494(12) 0.6681(2) 0.76905(13)
H3 H 0.2654 0.7201 0.7011
C4 C 0.37557(11) 0.4639(2) 1.00229(13)
C5 C 0.15011(12) 0.5364(2) 1.00177(14)
Mn1D Mn 0.5000 0.40603(4) 1.2500
Mn1D_2 Mn 0.5000 0.40603(4) 0.2500
H1A H 0.5505 0.2626 0.7723
H2A H 0.4689 0.9247 0.7960
N1A N 0.65152(9) 0.59861(17) 0.68103(11)
N2A N 0.81898(10) 0.65850(19) 0.67793(11)
N3A N 0.58137(11) 0.40813(19) 0.42225(12)
N3D N 0.58137(11) 0.59187(19) 0.92225(12)
N3E N 0.41863(11) 0.59187(19) 0.57775(12)
N4A N 0.89591(12) 0.5037(3) 0.42697(13)
C1A C 0.68495(11) 0.5388(2) 0.58542(12)
C2A C 0.78705(12) 0.5755(2) 0.58451(13)
C3A C 0.73506(12) 0.6681(2) 0.73095(13)
H3A H 0.7346 0.7201 0.7989
C4A C 0.62443(11) 0.4639(2) 0.49771(13)
C5A C 0.84989(12) 0.5364(2) 0.49823(14)
loop_
_geom_bond_atom_site_label_1
_geom_bond_atom_site_label_2
_geom_bond_site_symmetry_1
_geom_bond_site_symmetry_2
Mn1 O1 1_555 1_555
O1 H1 1_555 1_555
O2 Mn1 1_555 1_555
H2 O2 1_555 1_555
N1 Mn1 1_555 1_555
N2 C2 1_555 1_555
N3 C4 1_555 1_555
N4 C5 1_555 1_555
C1 N1 1_555 1_555
C2 C1 1_555 1_555
C3 N1 1_555 1_555
H3 C3 1_555 1_555
C4 C1 1_555 1_555
C5 C2 1_555 1_555
Mn1D N3 1_555 1_555
Mn1D_2 N3A 1_555 1_555
H1A O1 1_555 1_555
H2A O2 1_555 1_555
N1A Mn1 1_555 1_555
N2A C2A 1_555 1_555
N3A C4A 1_555 1_555
N3D Mn1 1_555 1_555
N3E Mn1 1_555 1_555
N4A C5A 1_555 1_555
C1A N1A 1_555 1_555
C2A C1A 1_555 1_555
C3A N1A 1_555 1_555
H3A C3A 1_555 1_555
C4A C1A 1_555 1_555
C5A C2A 1_555 1_555
N2 C3 1_555 1_555
N2A C3A 1_555 1_555

#END
