
#######################################################################
#
#                 Cambridge Crystallographic Data Centre
#                                CCDC 
#
#######################################################################
#
# If this CIF has been generated from an entry in the Cambridge 
# Structural Database, then it will include bibliographic, chemical, 
# crystal, experimental, refinement or atomic coordinate data resulting 
# from the CCDC's data processing and validation procedures.
#
#######################################################################

data_QAVCAT
_symmetry_cell_setting           monoclinic
_symmetry_space_group_name_H-M   'C 2/c'
_symmetry_Int_Tables_number      15
_space_group_name_Hall           '-C 2yn'
loop_
_symmetry_equiv_pos_site_id
_symmetry_equiv_pos_as_xyz
1 x,y,z
2 -x,y,1/2-z
3 1/2+x,1/2+y,z
4 1/2-x,1/2+y,1/2-z
5 -x,-y,-z
6 x,-y,1/2+z
7 1/2-x,1/2-y,-z
8 1/2+x,1/2-y,1/2+z
_cell_length_a                   16.410(2)
_cell_length_b                   13.2582(18)
_cell_length_c                   25.220(3)
_cell_angle_alpha                90
_cell_angle_beta                 97.835(2)
_cell_angle_gamma                90
_cell_volume                     5435.82
loop_
_atom_site_label
_atom_site_type_symbol
_atom_site_fract_x
_atom_site_fract_y
_atom_site_fract_z
Cu1 Cu 0.04550(3) -0.29082(4) 0.46393(2)
N1 N 0.1391(2) -0.2515(3) 0.42364(15)
N2 N 0.1280(2) -0.3956(3) 0.49456(14)
O2 O -0.02770(19) -0.6319(2) 0.89521(12)
O3 O -0.0592(2) -0.7751(3) 0.85011(14)
O4 O -0.1131(2) -0.2018(3) 0.51221(17)
O5 O -0.02218(18) -0.3274(2) 0.51818(13)
O6 O -0.2520(2) -0.4675(3) 0.68743(14)
O8 O -0.01028(19) -0.1582(2) 0.44626(13)
H2 H -0.0277 -0.1807 0.4152
H3 H -0.0450 -0.1734 0.4671
C1 C 0.1420(3) -0.1800(4) 0.3873(2)
H4 H 0.0949 -0.1423 0.3763
C2 C 0.2133(4) -0.1591(4) 0.3649(2)
H5 H 0.2130 -0.1083 0.3394
C3 C 0.2824(3) -0.2121(4) 0.3800(2)
H6 H 0.3303 -0.1971 0.3657
C4 C 0.2819(3) -0.2908(4) 0.41770(19)
C5 C 0.2076(3) -0.3072(3) 0.43775(17)
C6 C 0.2014(2) -0.3860(3) 0.47611(17)
C7 C 0.2692(3) -0.4482(4) 0.49294(18)
C8 C 0.3445(3) -0.4296(4) 0.4713(2)
H7 H 0.3899 -0.4705 0.4816
C9 C 0.3502(3) -0.3535(4) 0.4361(2)
H8 H 0.4002 -0.3420 0.4237
C10 C 0.2583(3) -0.5246(4) 0.5291(2)
H9 H 0.3012 -0.5686 0.5406
C11 C 0.1837(3) -0.5347(4) 0.5478(2)
H10 H 0.1759 -0.5850 0.5723
C12 C 0.1198(3) -0.4683(3) 0.52940(18)
H11 H 0.0696 -0.4755 0.5422
C13 C -0.0861(3) -0.2831(3) 0.53062(18)
C14 C -0.1297(3) -0.3356(3) 0.57119(17)
C15 C -0.2076(3) -0.3043(4) 0.58037(19)
H12 H -0.2332 -0.2517 0.5602
C16 C -0.2474(3) -0.3497(4) 0.61878(18)
H13 H -0.2997 -0.3285 0.6242
C17 C -0.2090(3) -0.4266(4) 0.64893(17)
C18 C -0.1329(3) -0.4628(4) 0.63982(18)
H14 H -0.1084 -0.5166 0.6596
C19 C -0.0941(3) -0.4172(4) 0.60062(17)
H15 H -0.0434 -0.4414 0.5938
C20 C -0.2052(3) -0.5185(4) 0.72961(18)
C21 C -0.2161(3) -0.6211(4) 0.7340(2)
H16 H -0.2543 -0.6549 0.7097
C22 C -0.1695(3) -0.6732(4) 0.7750(2)
H17 H -0.1756 -0.7426 0.7776
C23 C -0.1140(3) -0.6228(4) 0.81208(17)
C24 C -0.1069(3) -0.5187(4) 0.80788(19)
H18 H -0.0712 -0.4838 0.8333
C25 C -0.1520(3) -0.4662(4) 0.7665(2)
H19 H -0.1464 -0.3966 0.7637
C26 C -0.0626(3) -0.6799(3) 0.85580(18)
Cu1E Cu 0.04550(3) -0.70918(4) 0.96393(2)
O2E O -0.02770(19) -0.3681(2) 0.39521(12)
N3 N 0.9680(4) -0.8703(5) 0.1771(2)
O1 O 1.0675(4) -0.7534(5) 0.1830(3)
C27 C 0.9976(5) -0.7786(5) 0.1852(3)
H20 H 0.9614 -0.7289 0.1933
C28 C 0.8844(6) -0.8945(9) 0.1812(5)
H21 H 0.8825 -0.9484 0.2064
H22 H 0.8571 -0.9151 0.1468
H23 H 0.8573 -0.8362 0.1932
C29 C 1.0209(7) -0.9527(7) 0.1639(4)
H24 H 1.0767 -0.9296 0.1668
H25 H 1.0032 -0.9749 0.1279
H26 H 1.0174 -1.0078 0.1882
O7 O 0.0000 -0.1455(7) 0.2500
H1 H -0.0145 -0.1828 0.2745
H1A H 0.0145 -0.1828 0.2255
loop_
_geom_bond_atom_site_label_1
_geom_bond_atom_site_label_2
_geom_bond_site_symmetry_1
_geom_bond_site_symmetry_2
Cu1 N1 1_555 1_555
N1 C1 1_555 1_555
N2 Cu1 1_555 1_555
N3 C27 1_555 1_555
O1 C27 1_555 1_555
O2 C26 1_555 1_555
O3 C26 1_555 1_555
O4 C13 1_555 1_555
O5 Cu1 1_555 1_555
O6 C17 1_555 1_555
O7 H1 1_555 1_555
O8 Cu1 1_555 1_555
H2 O8 1_555 1_555
H3 O8 1_555 1_555
C1 H4 1_555 1_555
C2 C1 1_555 1_555
H5 C2 1_555 1_555
C3 C2 1_555 1_555
H6 C3 1_555 1_555
C4 C3 1_555 1_555
C5 N1 1_555 1_555
C6 N2 1_555 1_555
C7 C6 1_555 1_555
C8 C7 1_555 1_555
H7 C8 1_555 1_555
C9 C4 1_555 1_555
H8 C9 1_555 1_555
C10 C7 1_555 1_555
H9 C10 1_555 1_555
C11 C10 1_555 1_555
H10 C11 1_555 1_555
C12 N2 1_555 1_555
H11 C12 1_555 1_555
C13 O5 1_555 1_555
C14 C13 1_555 1_555
C15 C14 1_555 1_555
H12 C15 1_555 1_555
C16 C15 1_555 1_555
H13 C16 1_555 1_555
C17 C16 1_555 1_555
C18 C17 1_555 1_555
H14 C18 1_555 1_555
C19 C14 1_555 1_555
H15 C19 1_555 1_555
C20 O6 1_555 1_555
C21 C20 1_555 1_555
H16 C21 1_555 1_555
C22 C21 1_555 1_555
H17 C22 1_555 1_555
C23 C22 1_555 1_555
C24 C23 1_555 1_555
H18 C24 1_555 1_555
C25 C20 1_555 1_555
H19 C25 1_555 1_555
C26 C23 1_555 1_555
C27 H20 1_555 1_555
C28 N3 1_555 1_555
H21 C28 1_555 1_555
H22 C28 1_555 1_555
H23 C28 1_555 1_555
C29 N3 1_555 1_555
H24 C29 1_555 1_555
H25 C29 1_555 1_555
H26 C29 1_555 1_555
Cu1E O2 1_555 1_555
O2E Cu1 1_555 1_555
H1A O7 1_555 1_555
C4 C5 1_555 1_555
C5 C6 1_555 1_555
C8 C9 1_555 1_555
C11 C12 1_555 1_555
C18 C19 1_555 1_555
C24 C25 1_555 1_555

#END
