
#######################################################################
#
#                 Cambridge Crystallographic Data Centre
#                                CCDC 
#
#######################################################################
#
# If this CIF has been generated from an entry in the Cambridge 
# Structural Database, then it will include bibliographic, chemical, 
# crystal, experimental, refinement or atomic coordinate data resulting 
# from the CCDC's data processing and validation procedures.
#
#######################################################################

data_QAVDAU
_symmetry_cell_setting           cubic
_symmetry_space_group_name_H-M   'P a -3'
_symmetry_Int_Tables_number      205
_space_group_name_Hall           '-P 2ac 2ab 3'
loop_
_symmetry_equiv_pos_site_id
_symmetry_equiv_pos_as_xyz
1 x,y,z
2 1/2-x,-y,1/2+z
3 1/2+x,1/2-y,-z
4 -x,1/2+y,1/2-z
5 y,z,x
6 1/2-y,-z,1/2+x
7 1/2+y,1/2-z,-x
8 -y,1/2+z,1/2-x
9 z,x,y
10 -z,1/2+x,1/2-y
11 1/2-z,-x,1/2+y
12 1/2+z,1/2-x,-y
13 -x,-y,-z
14 1/2+x,y,1/2-z
15 1/2-x,1/2+y,z
16 x,1/2-y,1/2+z
17 -y,-z,-x
18 1/2+y,z,1/2-x
19 1/2-y,1/2+z,x
20 y,1/2-z,1/2+x
21 -z,-x,-y
22 z,1/2-x,1/2+y
23 1/2+z,x,1/2-y
24 1/2-z,1/2+x,y
_cell_length_a                   20.8713(2)
_cell_length_b                   20.8713(2)
_cell_length_c                   20.8713(2)
_cell_angle_alpha                90
_cell_angle_beta                 90
_cell_angle_gamma                90
_cell_volume                     9091.77
loop_
_atom_site_label
_atom_site_type_symbol
_atom_site_fract_x
_atom_site_fract_y
_atom_site_fract_z
Co1 Co 0.73308(3) 0.60848(3) 0.02722(3)
Co2 Co 0.87493(3) 0.61015(3) -0.02554(3)
Co3 Co 1.0000 0.5000 0.0000
Co4 Co 0.87515(3) 0.37515(3) 0.12485(3)
P1 P 0.97847(5) 0.48725(5) 0.16130(5)
O1 O 0.67543(14) 0.57261(15) -0.04806(15)
O2 O 0.67107(15) 0.53077(16) 0.04847(15)
O3 O 0.77753(14) 0.62763(16) 0.11241(14)
O4 O 0.87938(13) 0.62866(14) 0.07886(13)
O5 O 0.97989(15) 0.70641(14) 0.16973(14)
O6 O 0.99349(19) 0.73801(17) 0.27093(16)
O7 O 0.98325(14) 0.52481(13) 0.09727(13)
O8 O 0.95911(14) 0.41825(13) 0.15664(14)
O9 O 1.04380(13) 0.49819(14) 0.19400(13)
O10 O 0.66231(16) 0.67881(16) 0.04154(18)
H1 H 0.6269 0.6807 0.0224
H2 H 0.6803 0.7145 0.0370
O11 O 0.89680(19) 0.28863(18) 0.1758(2)
H3 H 0.9304 0.2805 0.1962
H4 H 0.8702 0.2589 0.1817
N1 N 0.92276(16) 0.60048(16) 0.19782(16)
C1 C 0.6522(2) 0.5327(2) -0.0095(2)
C2 C 0.6009(2) 0.4883(2) -0.0311(2)
C3 C 0.5840(2) 0.4353(2) 0.0049(2)
H7 H 0.6083 0.4240 0.0404
C4 C 0.8362(2) 0.6278(2) 0.1219(2)
C5 C 0.8583(2) 0.6301(2) 0.1906(2)
H8 H 0.8599 0.6743 0.2049
H9 H 0.8279 0.6074 0.2174
C6 C 0.9579(2) 0.6304(2) 0.2505(2)
H10 H 0.9952 0.6048 0.2611
H11 H 0.9307 0.6328 0.2882
C7 C 0.9788(2) 0.6979(2) 0.2305(2)
C8 C 0.9163(2) 0.52951(19) 0.2048(2)
H12 H 0.8747 0.5162 0.1889
H13 H 0.9187 0.5182 0.2498
Co1F Co 1.10848(3) 0.47278(3) 0.26692(3)
Co1I Co 0.97278(3) 0.23308(3) -0.10848(3)
Co1L Co 1.26692(3) 0.39152(3) -0.02722(3)
Co1U Co 1.02722(3) 0.76692(3) 0.10848(3)
Co1R Co 0.89152(3) 0.52722(3) -0.26692(3)
Co1J Co 0.47278(3) 0.26692(3) 0.10848(3)
Co1G Co 0.39152(3) 0.52722(3) -0.23308(3)
Co1A Co 0.76692(3) 0.39152(3) 0.52722(3)
Co1H Co 1.02722(3) 0.73308(3) 0.60848(3)
Co2F Co 1.11015(3) 0.52554(3) 0.12507(3)
Co2I Co 1.02554(3) 0.37493(3) -0.11015(3)
Co2L Co 1.12507(3) 0.38985(3) 0.02554(3)
Co2U Co 0.97446(3) 0.62507(3) 0.11015(3)
Co2R Co 0.88985(3) 0.47446(3) -0.12507(3)
Co4L Co 1.12485(3) 0.62485(3) -0.12485(3)
P1F P 0.98725(5) 0.33870(5) 0.02153(5)
P1I P 0.83870(5) 0.47847(5) 0.01275(5)
P1L P 1.02153(5) 0.51275(5) -0.16130(5)
P1U P 1.16130(5) 0.52153(5) -0.01275(5)
P1R P 1.01275(5) 0.66130(5) -0.02153(5)
O1J O 0.54806(15) 0.32457(14) 0.07261(15)
O1G O 0.42739(15) 0.45194(15) -0.17543(14)
O1F O 1.07261(15) 0.54806(15) 0.32457(14)
O1A O 0.82457(14) 0.42739(15) 0.45194(15)
O1H O 0.95194(15) 0.67543(14) 0.57261(15)
O1I O 1.04806(15) 0.17543(14) -0.07261(15)
O1L O 1.32457(14) 0.42739(15) 0.04806(15)
O1U O 0.95194(15) 0.82457(14) 0.07261(15)
O1R O 0.92739(15) 0.45194(15) -0.32457(14)
O2J O 0.45153(15) 0.32893(15) 0.03077(16)
O2G O 0.46923(16) 0.54847(15) -0.17107(15)
O2F O 1.03077(16) 0.45153(15) 0.32893(15)
O2A O 0.82893(15) 0.46923(16) 0.54847(15)
O2H O 1.04847(15) 0.67107(15) 0.53077(16)
O2I O 0.95153(15) 0.17107(15) -0.03077(16)
O2L O 1.32893(15) 0.46923(16) -0.04847(15)
O2U O 1.04847(15) 0.82893(15) 0.03077(16)
O2R O 0.96923(16) 0.54847(15) -0.32893(15)
O3F O 1.12763(16) 0.38759(14) 0.22247(14)
O3I O 0.88759(14) 0.27753(14) -0.12763(16)
O3L O 1.22247(14) 0.37237(16) -0.11241(14)
O3U O 1.11241(14) 0.72247(14) 0.12763(16)
O3R O 0.87237(16) 0.61241(14) -0.22247(14)
O4F O 1.12866(14) 0.42114(13) 0.12062(13)
O4I O 0.92114(13) 0.37938(13) -0.12866(14)
O4L O 1.12062(13) 0.37134(14) -0.07886(13)
O4U O 1.07886(13) 0.62062(13) 0.12866(14)
O4R O 0.87134(14) 0.57886(13) -0.12062(13)
O5F O 1.20641(14) 0.33027(14) 0.02011(15)
O5I O 0.83027(14) 0.47989(15) -0.20641(14)
O5L O 1.02011(15) 0.29359(14) -0.16973(14)
O5U O 1.16973(14) 0.52011(15) 0.20641(14)
O5R O 0.79359(14) 0.66973(14) -0.02011(15)
O6F O 1.23801(17) 0.22907(16) 0.00651(19)
O6I O 0.72907(16) 0.49349(19) -0.23801(17)
O6L O 1.00651(19) 0.26199(17) -0.27093(16)
O6U O 1.27093(16) 0.50651(19) 0.23801(17)
O6R O 0.76199(17) 0.77093(16) -0.00651(19)
O7F O 1.02481(13) 0.40273(13) 0.01675(14)
O7I O 0.90273(13) 0.48325(14) -0.02481(13)
O7L O 1.01675(14) 0.47519(13) -0.09727(13)
O7U O 1.09727(13) 0.51675(14) 0.02481(13)
O7R O 0.97519(13) 0.59727(13) -0.01675(14)
O8F O 0.91825(13) 0.34336(14) 0.04089(14)
O8I O 0.84336(14) 0.45911(14) 0.08175(13)
O8L O 1.04089(14) 0.58175(13) -0.15664(14)
O8U O 1.15664(14) 0.54089(14) -0.08175(13)
O8R O 1.08175(13) 0.65664(14) -0.04089(14)
O9F O 0.99819(14) 0.30600(13) -0.04380(13)
O9I O 0.80600(13) 0.54380(13) 0.00181(14)
O9L O 0.95620(13) 0.50181(14) -0.19400(13)
O9U O 1.19400(13) 0.45620(13) -0.00181(14)
O9R O 1.00181(14) 0.69400(13) 0.04380(13)
O10F O 1.17881(16) 0.45846(18) 0.33769(16)
O10I O 0.95846(18) 0.16231(16) -0.17881(16)
O10L O 1.33769(16) 0.32119(16) -0.04154(18)
O10U O 1.04154(18) 0.83769(16) 0.17881(16)
O10R O 0.82119(16) 0.54154(18) -0.33769(16)
H1F H 1.1807 0.4776 0.3731
H1I H 0.9776 0.1269 -0.1807
H1L H 1.3731 0.3193 -0.0224
H1U H 1.0224 0.8731 0.1807
H1R H 0.8193 0.5224 -0.3731
H2F H 1.2145 0.4630 0.3197
H2I H 0.9630 0.1803 -0.2145
H2L H 1.3197 0.2855 -0.0370
H2U H 1.0370 0.8197 0.2145
H2R H 0.7855 0.5370 -0.3197
O11F O 0.78863(18) 0.3242(2) 0.10320(19)
O11I O 0.8242(2) 0.39680(19) 0.21137(18)
O11L O 1.10320(19) 0.71137(18) -0.1758(2)
O11R O 1.21137(18) 0.6758(2) -0.10320(19)
O11U O 1.1758(2) 0.60320(19) -0.21137(18)
H3F H 0.7805 0.3038 0.0696
H3I H 0.8038 0.4304 0.2195
H3L H 1.0696 0.7195 -0.1962
H3R H 1.2195 0.6962 -0.0696
H3U H 1.1962 0.5696 -0.2195
H4F H 0.7589 0.3183 0.1298
H4I H 0.8183 0.3702 0.2411
H4L H 1.1298 0.7411 -0.1817
H4R H 1.2411 0.6817 -0.1298
H4U H 1.1817 0.6298 -0.2411
N1F N 1.10048(16) 0.30218(16) 0.07724(16)
N1I N 0.80218(16) 0.42276(16) -0.10048(16)
N1L N 1.07724(16) 0.39952(16) -0.19782(16)
N1U N 1.19782(16) 0.57724(16) 0.10048(16)
N1R N 0.89952(16) 0.69782(16) -0.07724(16)
C1J C 0.5095(2) 0.3478(2) 0.0327(2)
C1G C 0.4673(2) 0.4905(2) -0.1522(2)
C1F C 1.0327(2) 0.5095(2) 0.3478(2)
C1A C 0.8478(2) 0.4673(2) 0.4905(2)
C1H C 0.9905(2) 0.6522(2) 0.5327(2)
C2J C 0.5311(2) 0.3991(2) -0.0117(2)
C2G C 0.5117(2) 0.4689(2) -0.1009(2)
C2F C 0.9883(2) 0.5311(2) 0.3991(2)
C2A C 0.8991(2) 0.5117(2) 0.4689(2)
C2H C 0.9689(2) 0.6009(2) 0.4883(2)
C3J C 0.4951(2) 0.4160(2) -0.0647(2)
C3G C 0.5647(2) 0.5049(2) -0.0840(2)
C3F C 0.9353(2) 0.4951(2) 0.4160(2)
C3A C 0.9160(2) 0.5647(2) 0.5049(2)
C3H C 1.0049(2) 0.5840(2) 0.4353(2)
H7G H 0.5760 0.5404 -0.1083
H7J H 0.4596 0.3917 -0.0760
H7F H 0.9240 0.4596 0.3917
H7H H 1.0404 0.6083 0.4240
H7A H 0.8917 0.5760 0.5404
C4F C 1.1278(2) 0.3781(2) 0.1638(2)
C4I C 0.8781(2) 0.3362(2) -0.1278(2)
C4L C 1.1638(2) 0.3722(2) -0.1219(2)
C4U C 1.1219(2) 0.6638(2) 0.1278(2)
C4R C 0.8722(2) 0.6219(2) -0.1638(2)
C5F C 1.1301(2) 0.3094(2) 0.1417(2)
C5I C 0.8094(2) 0.3583(2) -0.1301(2)
C5L C 1.1417(2) 0.3699(2) -0.1906(2)
C5U C 1.1906(2) 0.6417(2) 0.1301(2)
C5R C 0.8699(2) 0.6906(2) -0.1417(2)
H8F H 1.1743 0.2951 0.1401
H8I H 0.7951 0.3599 -0.1743
H8L H 1.1401 0.3257 -0.2049
H8U H 1.2049 0.6401 0.1743
H8R H 0.8257 0.7049 -0.1401
H9F H 1.1074 0.2826 0.1721
H9I H 0.7826 0.3279 -0.1074
H9L H 1.1721 0.3926 -0.2174
H9U H 1.2174 0.6721 0.1074
H9R H 0.8926 0.7174 -0.1721
C6F C 1.1304(2) 0.2495(2) 0.0421(2)
C6I C 0.7495(2) 0.4579(2) -0.1304(2)
C6L C 1.0421(2) 0.3696(2) -0.2505(2)
C6U C 1.2505(2) 0.5421(2) 0.1304(2)
C6R C 0.8696(2) 0.7505(2) -0.0421(2)
H10F H 1.1048 0.2389 0.0048
H10I H 0.7389 0.4952 -0.1048
H10L H 1.0048 0.3952 -0.2611
H10U H 1.2611 0.5048 0.1048
H10R H 0.8952 0.7611 -0.0048
H11F H 1.1328 0.2118 0.0693
H11I H 0.7118 0.4307 -0.1328
H11L H 1.0693 0.3672 -0.2882
H11U H 1.2882 0.5693 0.1328
H11R H 0.8672 0.7882 -0.0693
C7F C 1.1979(2) 0.2695(2) 0.0212(2)
C7I C 0.7695(2) 0.4788(2) -0.1979(2)
C7L C 1.0212(2) 0.3021(2) -0.2305(2)
C7U C 1.2305(2) 0.5212(2) 0.1979(2)
C7R C 0.8021(2) 0.7305(2) -0.0212(2)
C8F C 1.02951(19) 0.2952(2) 0.0837(2)
C8I C 0.7952(2) 0.4163(2) -0.02951(19)
C8L C 1.0837(2) 0.47049(19) -0.2048(2)
C8U C 1.2048(2) 0.5837(2) 0.02951(19)
C8R C 0.97049(19) 0.7048(2) -0.0837(2)
H12F H 1.0162 0.3111 0.1253
H12I H 0.8111 0.3747 -0.0162
H12L H 1.1253 0.4838 -0.1889
H12U H 1.1889 0.6253 0.0162
H12R H 0.9838 0.6889 -0.1253
H13F H 1.0182 0.2502 0.0813
H13I H 0.7502 0.4187 -0.0182
H13L H 1.0813 0.4818 -0.2498
H13U H 1.2498 0.5813 0.0182
H13R H 0.9818 0.7498 -0.0813
O12 O 0.8357(3) 0.1644(3) 0.1968(3)
H5 H 0.8619 0.1342 0.1925
H6 H 0.8033 0.1563 0.1742
loop_
_geom_bond_atom_site_label_1
_geom_bond_atom_site_label_2
_geom_bond_site_symmetry_1
_geom_bond_site_symmetry_2
Co1 O1 1_555 1_555
Co2 O4 1_555 1_555
Co3 O7 1_555 1_555
Co4 O8 1_555 1_555
P1 O7 1_555 1_555
O1 C1 1_555 1_555
O2 Co1 1_555 1_555
O3 Co1 1_555 1_555
O4 C4 1_555 1_555
O5 C7 1_555 1_555
O6 C7 1_555 1_555
O7 Co2U 1_555 1_555
O8 P1 1_555 1_555
O9 P1 1_555 1_555
O10 Co1 1_555 1_555
H1 O10 1_555 1_555
H2 O10 1_555 1_555
O11 Co4 1_555 1_555
H3 O11 1_555 1_555
H4 O11 1_555 1_555
O12 H5 1_555 1_555
H6 O12 1_555 1_555
N1 C5 1_555 1_555
C1 O2 1_555 1_555
C2 C1 1_555 1_555
C3 C2 1_555 1_555
H7 C3 1_555 1_555
C4 O3 1_555 1_555
C5 C4 1_555 1_555
H8 C5 1_555 1_555
H9 C5 1_555 1_555
C6 N1 1_555 1_555
H10 C6 1_555 1_555
H11 C6 1_555 1_555
C7 C6 1_555 1_555
C8 P1 1_555 1_555
H12 C8 1_555 1_555
H13 C8 1_555 1_555
Co1F O9 1_555 1_555
Co1I O1I 1_555 1_555
Co1L O1L 1_555 1_555
Co1U O5 1_555 1_555
Co1R O1R 1_555 1_555
Co1J O1J 1_555 1_555
Co1G O1G 1_555 1_555
Co1A O1A 1_555 1_555
Co1H O1H 1_555 1_555
Co2F O9 1_555 1_555
Co2I O4I 1_555 1_555
Co2L O4F 1_555 1_555
Co2U O4 1_555 1_555
Co2R O4I 1_555 1_555
Co4L O8L 1_555 1_555
P1F O7F 1_555 1_555
P1I O7I 1_555 1_555
P1L O7L 1_555 1_555
P1U O7U 1_555 1_555
P1R O7R 1_555 1_555
O1J C1J 1_555 1_555
O1G C1G 1_555 1_555
O1F Co1F 1_555 1_555
O1A C1A 1_555 1_555
O1H C1H 1_555 1_555
O1U Co1U 1_555 1_555
O2J Co1J 1_555 1_555
O2G Co1G 1_555 1_555
O2F Co1F 1_555 1_555
O2A Co1A 1_555 1_555
O2H Co1H 1_555 1_555
O2I Co1I 1_555 1_555
O2L Co1L 1_555 1_555
O2U Co1U 1_555 1_555
O2R Co1R 1_555 1_555
O3F Co1F 1_555 1_555
O3I Co1I 1_555 1_555
O3L Co1L 1_555 1_555
O3U Co1U 1_555 1_555
O3R Co1R 1_555 1_555
O4F Co2F 1_555 1_555
O4I C4I 1_555 1_555
O4L Co2I 1_555 1_555
O4U Co2F 1_555 1_555
O4R Co2 1_555 1_555
O5F Co1L 1_555 1_555
O5I Co1R 1_555 1_555
O5L Co1I 1_555 1_555
O5U Co1F 1_555 1_555
O5R Co1 1_555 1_555
O6F C7F 1_555 1_555
O6I C7I 1_555 1_555
O6L C7L 1_555 1_555
O6U C7U 1_555 1_555
O6R C7R 1_555 1_555
O7F Co3 1_555 1_555
O7I Co3 1_555 1_555
O7L Co3 1_555 1_555
O7U Co3 1_555 1_555
O7R Co2 1_555 1_555
O8F Co4 1_555 1_555
O8I Co4 1_555 1_555
O8L P1L 1_555 1_555
O8U Co4L 1_555 1_555
O8R Co4L 1_555 1_555
O9F Co1I 1_555 1_555
O9I Co1 1_555 1_555
O9L Co1R 1_555 1_555
O9U Co1L 1_555 1_555
O9R Co1U 1_555 1_555
O10F Co1F 1_555 1_555
O10I Co1I 1_555 1_555
O10L Co1L 1_555 1_555
O10U Co1U 1_555 1_555
O10R Co1R 1_555 1_555
H1F O10F 1_555 1_555
H1I O10I 1_555 1_555
H1L O10L 1_555 1_555
H1U O10U 1_555 1_555
H1R O10R 1_555 1_555
H2F O10F 1_555 1_555
H2I O10I 1_555 1_555
H2L O10L 1_555 1_555
H2U O10U 1_555 1_555
H2R O10R 1_555 1_555
O11F Co4 1_555 1_555
O11I Co4 1_555 1_555
O11L Co4L 1_555 1_555
O11R Co4L 1_555 1_555
O11U Co4L 1_555 1_555
H3F O11F 1_555 1_555
H3I O11I 1_555 1_555
H3L O11L 1_555 1_555
H3R O11R 1_555 1_555
H3U O11U 1_555 1_555
H4F O11F 1_555 1_555
H4I O11I 1_555 1_555
H4L O11L 1_555 1_555
H4R O11R 1_555 1_555
H4U O11U 1_555 1_555
N1F Co2L 1_555 1_555
N1I Co2R 1_555 1_555
N1L Co2I 1_555 1_555
N1U Co2F 1_555 1_555
N1R Co2 1_555 1_555
C1J O2J 1_555 1_555
C1G O2G 1_555 1_555
C1F O1F 1_555 1_555
C1A O2A 1_555 1_555
C1H O2H 1_555 1_555
C2J C3 1_555 1_555
C2G C1G 1_555 1_555
C2F C1F 1_555 1_555
C2A C1A 1_555 1_555
C2H C1H 1_555 1_555
C3J C2J 1_555 1_555
C3G C2 1_555 1_555
C3F C2F 1_555 1_555
C3A C2A 1_555 1_555
C3H C2F 1_555 1_555
H7G C3G 1_555 1_555
H7J C3J 1_555 1_555
H7F C3F 1_555 1_555
H7H C3H 1_555 1_555
H7A C3A 1_555 1_555
C4F O3F 1_555 1_555
C4I O3I 1_555 1_555
C4L O3L 1_555 1_555
C4U O3U 1_555 1_555
C4R O3R 1_555 1_555
C5F N1F 1_555 1_555
C5I N1I 1_555 1_555
C5L N1L 1_555 1_555
C5U N1U 1_555 1_555
C5R N1R 1_555 1_555
H8F C5F 1_555 1_555
H8I C5I 1_555 1_555
H8L C5L 1_555 1_555
H8U C5U 1_555 1_555
H8R C5R 1_555 1_555
H9F C5F 1_555 1_555
H9I C5I 1_555 1_555
H9L C5L 1_555 1_555
H9U C5U 1_555 1_555
H9R C5R 1_555 1_555
C6F N1F 1_555 1_555
C6I N1I 1_555 1_555
C6L N1L 1_555 1_555
C6U N1U 1_555 1_555
C6R N1R 1_555 1_555
H10F C6F 1_555 1_555
H10I C6I 1_555 1_555
H10L C6L 1_555 1_555
H10U C6U 1_555 1_555
H10R C6R 1_555 1_555
H11F C6F 1_555 1_555
H11I C6I 1_555 1_555
H11L C6L 1_555 1_555
H11U C6U 1_555 1_555
H11R C6R 1_555 1_555
C7F O5F 1_555 1_555
C7I O5I 1_555 1_555
C7L O5L 1_555 1_555
C7U O5U 1_555 1_555
C7R O5R 1_555 1_555
C8F P1F 1_555 1_555
C8I P1I 1_555 1_555
C8L P1L 1_555 1_555
C8U P1U 1_555 1_555
C8R P1R 1_555 1_555
H12F C8F 1_555 1_555
H12I C8I 1_555 1_555
H12L C8L 1_555 1_555
H12U C8U 1_555 1_555
H12R C8R 1_555 1_555
H13F C8F 1_555 1_555
H13I C8I 1_555 1_555
H13L C8L 1_555 1_555
H13U C8U 1_555 1_555
H13R C8R 1_555 1_555
Co2 O5R 1_555 1_555
Co2 O9I 1_555 1_555
Co3 O7R 1_555 1_555
O5 Co2U 1_555 1_555
N1 C8 1_555 1_555
N1 Co2U 1_555 1_555
Co2F O5U 1_555 1_555
Co2F O7U 1_555 1_555
Co2I O5L 1_555 1_555
Co2I O7L 1_555 1_555
Co2I O9F 1_555 1_555
Co2L O4L 1_555 1_555
Co2L O5F 1_555 1_555
Co2L O7F 1_555 1_555
Co2L O9U 1_555 1_555
Co2U O4U 1_555 1_555
Co2U O9R 1_555 1_555
Co2R O4R 1_555 1_555
Co2R O5I 1_555 1_555
Co2R O7I 1_555 1_555
Co2R O9L 1_555 1_555
P1F O8F 1_555 1_555
P1F O9F 1_555 1_555
P1I O8I 1_555 1_555
P1I O9I 1_555 1_555
P1L O9L 1_555 1_555
P1U O8U 1_555 1_555
P1U O9U 1_555 1_555
P1R O8R 1_555 1_555
P1R O9R 1_555 1_555
O2F C1F 1_555 1_555
O4F C4F 1_555 1_555
O4L C4L 1_555 1_555
O4U C4U 1_555 1_555
O4R C4R 1_555 1_555
N1F C8F 1_555 1_555
N1I C8I 1_555 1_555
N1L C8L 1_555 1_555
N1U C8U 1_555 1_555
N1R C8R 1_555 1_555
C1J C2J 1_555 1_555
C2G C3J 1_555 1_555
C2G C3G 1_555 1_555
C2A C3F 1_555 1_555
C2H C3A 1_555 1_555
C2H C3H 1_555 1_555
C4F C5F 1_555 1_555
C4I C5I 1_555 1_555
C4L C5L 1_555 1_555
C4U C5U 1_555 1_555
C4R C5R 1_555 1_555
C6F C7F 1_555 1_555
C6I C7I 1_555 1_555
C6L C7L 1_555 1_555
C6U C7U 1_555 1_555
C6R C7R 1_555 1_555

#END
