
#######################################################################
#
#                 Cambridge Crystallographic Data Centre
#                                CCDC 
#
#######################################################################
#
# If this CIF has been generated from an entry in the Cambridge 
# Structural Database, then it will include bibliographic, chemical, 
# crystal, experimental, refinement or atomic coordinate data resulting 
# from the CCDC's data processing and validation procedures.
#
#######################################################################

data_QAVDIC01
_symmetry_cell_setting           monoclinic
_symmetry_space_group_name_H-M   'C 2/c'
_symmetry_Int_Tables_number      15
_space_group_name_Hall           '-C 2yn'
loop_
_symmetry_equiv_pos_site_id
_symmetry_equiv_pos_as_xyz
1 x,y,z
2 -x,y,1/2-z
3 1/2+x,1/2+y,z
4 1/2-x,1/2+y,1/2-z
5 -x,-y,-z
6 x,-y,1/2+z
7 1/2-x,1/2-y,-z
8 1/2+x,1/2-y,1/2+z
_cell_length_a                   25.8352(9)
_cell_length_b                   11.4382(3)
_cell_length_c                   7.3069(3)
_cell_angle_alpha                90
_cell_angle_beta                 98.104(4)
_cell_angle_gamma                90
_cell_volume                     2137.69
loop_
_atom_site_label
_atom_site_type_symbol
_atom_site_fract_x
_atom_site_fract_y
_atom_site_fract_z
Cd1 Cd 1.0000 0.600158(16) 0.7500
O1 O 0.97031(6) 0.61540(13) 0.4347(2)
O2 O 0.92245(6) 0.48800(12) 0.2555(2)
O3 O 0.84055(6) 0.63218(12) 0.2221(2)
N1 N 0.95049(7) 0.77445(14) 0.7951(2)
C1 C 0.90238(10) 0.7749(2) 0.8369(3)
H1 H 0.8868 0.7035 0.8562
C2 C 0.87384(11) 0.8765(2) 0.8535(4)
H2 H 0.8397 0.8729 0.8802
C3 C 0.89684(10) 0.9809(2) 0.8300(4)
H3 H 0.8783 1.0499 0.8394
C4 C 0.94824(10) 0.98531(18) 0.7916(3)
C5 C 0.97362(9) 0.87860(16) 0.7716(3)
C6 C 0.97544(11) 1.09238(17) 0.7695(4)
H4 H 0.9587 1.1632 0.7825
C7 C 0.92799(9) 0.57810(16) 0.3534(3)
C8 C 0.87970(8) 0.64687(18) 0.3786(3)
H5 H 0.8664 0.6203 0.4891
H6 H 0.8885 0.7291 0.3941
C9 C 0.80090(8) 0.71206(16) 0.1979(3)
C10 C 0.79027(9) 0.79085(18) 0.3285(3)
H7 H 0.8101 0.7913 0.4450
C11 C 0.77052(8) 0.70858(16) 0.0201(3)
C12 C 0.78043(9) 0.62739(17) -0.1173(3)
H8 H 0.8073 0.5731 -0.0917
C13 C 0.74902(9) 0.87136(19) 0.2854(3)
H9 H 0.7419 0.9247 0.3746
Cd1D Cd 1.0000 0.399842(16) 0.2500
Cd1F Cd 0.5000 0.899842(16) -0.7500
Cd1B Cd 0.5000 1.100158(16) -0.2500
O1F O 0.52969(6) 0.88460(13) -0.4347(2)
O1A O 1.02969(6) 0.61540(13) 1.0653(2)
O2F O 0.57755(6) 1.01200(12) -0.2555(2)
O2D O 1.07755(6) 0.51200(12) 0.7445(2)
O2E O 0.92245(6) 0.51200(12) 0.7555(2)
O3F O 0.65945(6) 0.86782(12) -0.2221(2)
N1A N 1.04951(7) 0.77445(14) 0.7049(2)
C1A C 1.09762(10) 0.7749(2) 0.6631(3)
H1A H 1.1132 0.7035 0.6438
C2A C 1.12616(11) 0.8765(2) 0.6465(4)
H2A H 1.1603 0.8729 0.6198
C3A C 1.10316(10) 0.9809(2) 0.6700(4)
H3A H 1.1217 1.0499 0.6606
C4A C 1.05176(10) 0.98531(18) 0.7084(3)
C5A C 1.02638(9) 0.87860(16) 0.7284(3)
C6A C 1.02456(11) 1.09238(17) 0.7305(4)
H4A H 1.0413 1.1632 0.7175
C7F C 0.57201(9) 0.92190(16) -0.3534(3)
C8F C 0.62030(8) 0.85313(18) -0.3786(3)
H5F H 0.6336 0.8797 -0.4891
H6F H 0.6115 0.7709 -0.3941
C9F C 0.69910(8) 0.78794(16) -0.1979(3)
C10F C 0.70973(9) 0.70915(18) -0.3285(3)
H7F H 0.6899 0.7087 -0.4450
C11F C 0.72948(8) 0.79142(16) -0.0201(3)
C12F C 0.71957(9) 0.87261(17) 0.1173(3)
H8F H 0.6927 0.9269 0.0917
C13F C 0.75098(9) 0.62864(19) -0.2854(3)
H9F H 0.7581 0.5753 -0.3746
loop_
_geom_bond_atom_site_label_1
_geom_bond_atom_site_label_2
_geom_bond_site_symmetry_1
_geom_bond_site_symmetry_2
Cd1 O1 1_555 1_555
O1 C7 1_555 1_555
O2 C7 1_555 1_555
O3 C8 1_555 1_555
N1 Cd1 1_555 1_555
C1 N1 1_555 1_555
H1 C1 1_555 1_555
C2 C1 1_555 1_555
H2 C2 1_555 1_555
C3 C2 1_555 1_555
H3 C3 1_555 1_555
C4 C3 1_555 1_555
C5 N1 1_555 1_555
C6 C4 1_555 1_555
H4 C6 1_555 1_555
C7 C8 1_555 1_555
C8 H5 1_555 1_555
H6 C8 1_555 1_555
C9 O3 1_555 1_555
C10 C9 1_555 1_555
H7 C10 1_555 1_555
C11 C9 1_555 1_555
C12 C11 1_555 1_555
H8 C12 1_555 1_555
C13 C10 1_555 1_555
H9 C13 1_555 1_555
Cd1D O2 1_555 1_555
Cd1F O1F 1_555 1_555
Cd1B O2F 1_555 1_555
O1F C7F 1_555 1_555
O1A Cd1 1_555 1_555
O2F C7F 1_555 1_555
O2D Cd1 1_555 1_555
O2E Cd1 1_555 1_555
O3F C8F 1_555 1_555
N1A Cd1 1_555 1_555
C1A N1A 1_555 1_555
H1A C1A 1_555 1_555
C2A C1A 1_555 1_555
H2A C2A 1_555 1_555
C3A C2A 1_555 1_555
H3A C3A 1_555 1_555
C4A C3A 1_555 1_555
C5A C5 1_555 1_555
C6A C6 1_555 1_555
H4A C6A 1_555 1_555
C7F C8F 1_555 1_555
C8F H5F 1_555 1_555
H6F C8F 1_555 1_555
C9F O3F 1_555 1_555
C10F C9F 1_555 1_555
H7F C10F 1_555 1_555
C11F C11 1_555 1_555
C12F C13 1_555 1_555
H8F C12F 1_555 1_555
C13F C12 1_555 1_555
H9F C13F 1_555 1_555
C4 C5 1_555 1_555
N1A C5A 1_555 1_555
C4A C5A 1_555 1_555
C4A C6A 1_555 1_555
C9F C11F 1_555 1_555
C10F C13F 1_555 1_555
C11F C12F 1_555 1_555

#END
