
#######################################################################
#
#                 Cambridge Crystallographic Data Centre
#                                CCDC 
#
#######################################################################
#
# If this CIF has been generated from an entry in the Cambridge 
# Structural Database, then it will include bibliographic, chemical, 
# crystal, experimental, refinement or atomic coordinate data resulting 
# from the CCDC's data processing and validation procedures.
#
#######################################################################

data_QAVGOL
_symmetry_cell_setting           monoclinic
_symmetry_space_group_name_H-M   'C 2'
_symmetry_Int_Tables_number      5
_space_group_name_Hall           'C 2y'
loop_
_symmetry_equiv_pos_site_id
_symmetry_equiv_pos_as_xyz
1 x,y,z
2 -x,y,-z
3 1/2+x,1/2+y,z
4 1/2-x,1/2+y,-z
_cell_length_a                   25.153(3)
_cell_length_b                   9.9843(9)
_cell_length_c                   20.0519(17)
_cell_angle_alpha                90
_cell_angle_beta                 99.350(3)
_cell_angle_gamma                90
_cell_volume                     4968.83
loop_
_atom_site_label
_atom_site_type_symbol
_atom_site_fract_x
_atom_site_fract_y
_atom_site_fract_z
Cd1 Cd 0.83477(2) 0.43034(4) 0.27427(2)
Cd2 Cd 0.83539(2) -0.10480(4) -0.22571(2)
Cd3 Cd 0.5000 0.51057(7) 0.0000
Cd4 Cd 0.5000 -0.23446(8) 0.5000
C1 C 0.7463(3) 0.2133(7) 0.4109(3)
C2 C 0.7821(3) 0.1930(7) 0.4699(4)
H1 H 0.8175 0.2233 0.4733
C3 C 0.7656(3) 0.1275(7) 0.5242(3)
C4 C 0.7127(3) 0.0871(7) 0.5207(4)
H2 H 0.7012 0.0455 0.5573
C5 C 0.6775(3) 0.1096(8) 0.4620(4)
C6 C 0.6947(3) 0.1724(7) 0.4074(4)
H3 H 0.6703 0.1865 0.3679
C7 C 0.7661(3) 0.2803(7) 0.3521(4)
C8 C 0.8592(3) 0.0794(10) 0.5867(4)
H4 H 0.8792 0.0915 0.5521
C9 C 0.8775(3) 0.0398(9) 0.6503(4)
H5 H 0.9133 0.0202 0.6675
C10 C 0.7925(3) 0.0689(8) 0.6457(3)
H6 H 0.7584 0.0739 0.6578
C11 C 0.5783(3) 0.1049(10) 0.4146(4)
H7 H 0.5771 0.1751 0.3840
C12 C 0.5366(3) 0.0310(10) 0.4253(5)
H8 H 0.5011 0.0426 0.4044
C13 C 0.6064(3) -0.0417(8) 0.4916(4)
H9 H 0.6287 -0.0886 0.5252
C14 C 0.7494(3) 0.0671(7) -0.0789(3)
C15 C 0.7836(3) 0.0893(7) -0.0184(3)
H10 H 0.8193 0.0612 -0.0132
C16 C 0.7646(3) 0.1533(7) 0.0341(3)
C17 C 0.7119(3) 0.1941(8) 0.0270(4)
H11 H 0.6991 0.2368 0.0624
C18 C 0.6779(3) 0.1706(8) -0.0339(4)
C19 C 0.6957(3) 0.1117(8) -0.0882(4)
H12 H 0.6730 0.1016 -0.1294
C20 C 0.7729(3) 0.0083(7) -0.1371(3)
C21 C 0.8556(3) 0.2225(10) 0.0917(4)
H13 H 0.8749 0.2078 0.0567
C22 C 0.8743(3) 0.2762(10) 0.1527(4)
H14 H 0.9095 0.3052 0.1668
C23 C 0.7906(3) 0.2295(8) 0.1520(3)
H15 H 0.7570 0.2195 0.1651
C24 C 0.5809(3) 0.1735(9) -0.0890(4)
H16 H 0.5806 0.1015 -0.1184
C25 C 0.5396(3) 0.2563(10) -0.0821(4)
H17 H 0.5057 0.2521 -0.1087
C26 C 0.6044(3) 0.3209(8) -0.0093(4)
H18 H 0.6250 0.3677 0.0258
C27 C 0.8824(3) 0.8977(7) 0.3653(4)
C28 C 0.9004(3) 1.0411(7) 0.3496(4)
H19 H 0.8674 1.0936 0.3366
C29 C 0.9265(4) 1.0285(8) 0.2871(4)
H20 H 0.9650 1.0141 0.2993
H21 H 0.9205 1.1088 0.2597
C30 C 0.8994(4) 0.9071(9) 0.2488(4)
H22 H 0.8794 0.9344 0.2054
H23 H 0.9262 0.8414 0.2411
C31 C 0.8612(3) 0.8483(7) 0.2935(4)
C32 C 0.9347(3) 1.1171(8) 0.4069(4)
C33 C 0.8544(3) 0.6954(8) 0.2861(4)
C34 C 0.8404(4) 0.8973(10) 0.4114(5)
H24 H 0.8308 0.8066 0.4199
H25 H 0.8090 0.9449 0.3901
H26 H 0.8548 0.9401 0.4533
C35 C 0.9297(4) 0.8117(8) 0.3972(5)
H27 H 0.9171 0.7240 0.4063
H28 H 0.9467 0.8522 0.4387
H29 H 0.9554 0.8048 0.3667
C36 C 0.8037(4) 0.9003(10) 0.2661(6)
H30 H 0.8034 0.9963 0.2678
H31 H 0.7788 0.8653 0.2933
H32 H 0.7932 0.8713 0.2202
C37 C 0.3953(3) 0.7498(9) -0.1364(4)
H33 H 0.3865 0.6967 -0.1779
C38 C 0.3426(4) 0.8008(10) -0.1186(7)
H34 H 0.3130 0.7441 -0.1390
H35 H 0.3439 0.7997 -0.0700
C39 C 0.3343(3) 0.9412(10) -0.1449(5)
H36 H 0.3385 1.0045 -0.1077
H37 H 0.2984 0.9512 -0.1706
C40 C 0.3770(4) 0.9664(10) -0.1903(5)
C41 C 0.4239(4) 0.8756(9) -0.1545(5)
C42 C 0.4292(3) 0.6616(7) -0.0843(4)
C43 C 0.3876(3) 1.1126(8) -0.1965(4)
C44 C 0.4630(4) 0.8345(11) -0.2014(5)
H38 H 0.4912 0.7802 -0.1769
H39 H 0.4785 0.9131 -0.2180
H40 H 0.4441 0.7842 -0.2386
C45 C 0.4525(4) 0.9430(10) -0.0938(5)
H41 H 0.4270 0.9705 -0.0656
H42 H 0.4711 1.0201 -0.1070
H43 H 0.4780 0.8823 -0.0691
C46 C 0.3550(4) 0.9169(10) -0.2607(5)
H44 H 0.3812 0.9318 -0.2898
H45 H 0.3226 0.9647 -0.2779
H46 H 0.3473 0.8229 -0.2591
N1 N 0.8360(2) 0.0326(7) 0.6857(3)
N2 N 0.8043(2) 0.0984(6) 0.5835(3)
N3 N 0.5548(2) -0.0665(7) 0.4728(3)
N4 N 0.6230(2) 0.0608(7) 0.4559(3)
N5 N 0.8333(2) 0.2818(6) 0.1915(3)
N6 N 0.8014(2) 0.1934(7) 0.0917(3)
N7 N 0.5539(2) 0.3471(6) -0.0311(3)
N8 N 0.6237(2) 0.2199(6) -0.0423(3)
O1 O 0.8126(2) 0.3318(6) 0.3646(3)
O2 O 0.7364(2) 0.2826(6) 0.2968(3)
O3 O 0.74725(19) 0.0160(5) -0.1966(2)
O4 O 0.81912(19) -0.0432(5) -0.1239(2)
O5 O 0.9276(2) 1.1081(7) 0.4674(3)
O6 O 0.9701(2) 1.1961(6) 0.3934(3)
O7 O 0.8281(2) 0.6338(5) 0.3249(2)
O8 O 0.87352(18) 0.6332(5) 0.2410(2)
O9 O 0.4629(2) 0.5822(6) -0.1060(3)
O10 O 0.4255(2) 0.6676(6) -0.0245(3)
O11 O 0.4310(2) 1.1550(6) -0.2120(4)
O12 O 0.3501(2) 1.1899(6) -0.1875(3)
O13 O 0.9274(2) 0.3880(6) 0.3065(3)
O14 O 0.9280(2) -0.0773(6) -0.2132(2)
Cd1A Cd 0.16523(2) 0.43034(4) -0.27427(2)
Cd1C Cd 0.66523(2) -0.06966(4) -0.27427(2)
Cd1B Cd 0.33477(2) -0.06966(4) 0.27427(2)
Cd1_2 Cd 0.83477(2) 0.43034(4) -0.72573(2)
Cd2A Cd 0.16461(2) -0.10480(4) 0.22571(2)
Cd2_2 Cd 0.83539(2) -0.10480(4) 0.77429(2)
Cd2C Cd 0.66461(2) 0.39520(4) 0.22571(2)
Cd2B Cd 0.33539(2) 1.39520(4) -0.22571(2)
Cd2C_2 Cd 0.66461(2) 1.39520(4) 0.22571(2)
Cd2C_3 Cd 0.66461(2) 0.39520(4) -0.77429(2)
Cd4B Cd 1.0000 1.26554(8) 0.5000
Cd4_2 Cd 0.5000 -0.23446(8) -0.5000
Cd4B_2 Cd 0.0000 1.26554(8) -0.5000
C1_2 C 0.7463(3) 0.2133(7) -0.5891(3)
C2_2 C 0.7821(3) 0.1930(7) -0.5301(4)
H1_2 H 0.8175 0.2233 -0.5267
C3_2 C 0.7656(3) 0.1275(7) -0.4758(3)
C4_2 C 0.7127(3) 0.0871(7) -0.4793(4)
H2_2 H 0.7012 0.0455 -0.4427
C5_2 C 0.6775(3) 0.1096(8) -0.5380(4)
C6_2 C 0.6947(3) 0.1724(7) -0.5926(4)
H3_2 H 0.6703 0.1865 -0.6321
C7_2 C 0.7661(3) 0.2803(7) -0.6479(4)
C8_2 C 0.8592(3) 0.0794(10) -0.4133(4)
H4_2 H 0.8792 0.0915 -0.4479
C9_2 C 0.8775(3) 0.0398(9) -0.3497(4)
H5_2 H 0.9133 0.0202 -0.3325
C10_2 C 0.7925(3) 0.0689(8) -0.3543(3)
H6_2 H 0.7584 0.0739 -0.3422
C11_2 C 0.5783(3) 0.1049(10) -0.5854(4)
H7_2 H 0.5771 0.1751 -0.6160
C12_2 C 0.5366(3) 0.0310(10) -0.5747(5)
H8_2 H 0.5011 0.0426 -0.5956
C13_2 C 0.6064(3) -0.0417(8) -0.5084(4)
H9_2 H 0.6287 -0.0886 -0.4748
C14A C 0.2506(3) 0.0671(7) 0.0789(3)
C15A C 0.2164(3) 0.0893(7) 0.0184(3)
H10A H 0.1807 0.0612 0.0132
C16A C 0.2354(3) 0.1533(7) -0.0341(3)
C17A C 0.2881(3) 0.1941(8) -0.0270(4)
H11A H 0.3009 0.2368 -0.0624
C18A C 0.3221(3) 0.1706(8) 0.0339(4)
C19A C 0.3043(3) 0.1117(8) 0.0882(4)
H12A H 0.3270 0.1016 0.1294
C20A C 0.2271(3) 0.0083(7) 0.1371(3)
C21A C 0.1444(3) 0.2225(10) -0.0917(4)
H13A H 0.1251 0.2078 -0.0567
C22A C 0.1257(3) 0.2762(10) -0.1527(4)
H14A H 0.0905 0.3052 -0.1668
C23A C 0.2094(3) 0.2295(8) -0.1520(3)
H15A H 0.2430 0.2195 -0.1651
C24A C 0.4191(3) 0.1735(9) 0.0890(4)
H16A H 0.4194 0.1015 0.1184
C25A C 0.4604(3) 0.2563(10) 0.0821(4)
H17A H 0.4943 0.2521 0.1087
C26A C 0.3956(3) 0.3209(8) 0.0093(4)
H18A H 0.3750 0.3677 -0.0258
C27A C 0.1176(3) 0.8977(7) -0.3653(4)
C28A C 0.0996(3) 1.0411(7) -0.3496(4)
H19A H 0.1326 1.0936 -0.3366
C29A C 0.0735(4) 1.0285(8) -0.2871(4)
H20A H 0.0350 1.0141 -0.2993
H21A H 0.0795 1.1088 -0.2597
C30A C 0.1006(4) 0.9071(9) -0.2488(4)
H22A H 0.1206 0.9344 -0.2054
H23A H 0.0738 0.8414 -0.2411
C31A C 0.1388(3) 0.8483(7) -0.2935(4)
C32A C 0.0653(3) 1.1171(8) -0.4069(4)
C33A C 0.1456(3) 0.6954(8) -0.2861(4)
C34A C 0.1596(4) 0.8973(10) -0.4114(5)
H24A H 0.1692 0.8066 -0.4199
H25A H 0.1910 0.9449 -0.3901
H26A H 0.1452 0.9401 -0.4533
C35A C 0.0703(4) 0.8117(8) -0.3972(5)
H27A H 0.0829 0.7240 -0.4063
H28A H 0.0533 0.8522 -0.4387
H29A H 0.0446 0.8048 -0.3667
C36A C 0.1963(4) 0.9003(10) -0.2661(6)
H30A H 0.1966 0.9963 -0.2678
H31A H 0.2212 0.8653 -0.2933
H32A H 0.2068 0.8713 -0.2202
C37A C 0.6047(3) 0.7498(9) 0.1364(4)
H33A H 0.6135 0.6967 0.1779
C38A C 0.6574(4) 0.8008(10) 0.1186(7)
H34A H 0.6870 0.7441 0.1390
H35A H 0.6561 0.7997 0.0700
C39A C 0.6657(3) 0.9412(10) 0.1449(5)
H36A H 0.6615 1.0045 0.1077
H37A H 0.7016 0.9512 0.1706
C40A C 0.6230(4) 0.9664(10) 0.1903(5)
C41A C 0.5761(4) 0.8756(9) 0.1545(5)
C42A C 0.5708(3) 0.6616(7) 0.0843(4)
C43A C 0.6124(3) 1.1126(8) 0.1965(4)
C44A C 0.5370(4) 0.8345(11) 0.2014(5)
H38A H 0.5088 0.7802 0.1769
H39A H 0.5215 0.9131 0.2180
H40A H 0.5559 0.7842 0.2386
C45A C 0.5475(4) 0.9430(10) 0.0938(5)
H41A H 0.5730 0.9705 0.0656
H42A H 0.5289 1.0201 0.1070
H43A H 0.5220 0.8823 0.0691
C46A C 0.6450(4) 0.9169(10) 0.2607(5)
H44A H 0.6188 0.9318 0.2898
H45A H 0.6774 0.9647 0.2779
H46A H 0.6527 0.8229 0.2591
N1_2 N 0.8360(2) 0.0326(7) -0.3143(3)
N1A N 0.1640(2) 0.0326(7) 0.3143(3)
N2_2 N 0.8043(2) 0.0984(6) -0.4165(3)
N3_2 N 0.5548(2) -0.0665(7) -0.5272(3)
N3A N 0.4452(2) -0.0665(7) 0.5272(3)
N4_2 N 0.6230(2) 0.0608(7) -0.5441(3)
N5A N 0.1667(2) 0.2818(6) -0.1915(3)
N6A N 0.1986(2) 0.1934(7) -0.0917(3)
N7A N 0.4461(2) 0.3471(6) 0.0311(3)
N8A N 0.3763(2) 0.2199(6) 0.0423(3)
O1_2 O 0.8126(2) 0.3318(6) -0.6354(3)
O1A O 0.1874(2) 0.3318(6) -0.3646(3)
O2_2 O 0.7364(2) 0.2826(6) -0.7032(3)
O2C O 0.7636(2) -0.2174(6) -0.2968(3)
O2B O 0.2364(2) -0.2174(6) 0.2968(3)
O3A O 0.25275(19) 0.0160(5) 0.1966(2)
O3C O 0.75275(19) 0.5160(5) 0.1966(2)
O3B O 0.24725(19) 0.5160(5) -0.1966(2)
O4A O 0.18088(19) -0.0432(5) 0.1239(2)
O5A O 0.0724(2) 1.1081(7) -0.4674(3)
O5B O 0.4276(2) -0.3919(7) 0.4674(3)
O5C O 0.5724(2) -0.3919(7) 0.5326(3)
O6A O 0.0299(2) 1.1961(6) -0.3934(3)
O6B O 0.4701(2) -0.3039(6) 0.3934(3)
O6C O 0.5299(2) -0.3039(6) 0.6066(3)
O7A O 0.1719(2) 0.6338(5) -0.3249(2)
O8A O 0.12648(18) 0.6332(5) -0.2410(2)
O9A O 0.5371(2) 0.5822(6) 0.1060(3)
O10A O 0.5745(2) 0.6676(6) 0.0245(3)
O11A O 0.5690(2) 1.1550(6) 0.2120(4)
O12A O 0.6499(2) 1.1899(6) 0.1875(3)
O12B O 0.8501(2) -0.3101(6) -0.1875(3)
O12C O 0.1499(2) -0.3101(6) 0.1875(3)
O13A O 0.0726(2) 0.3880(6) -0.3065(3)
O14A O 0.0720(2) -0.0773(6) 0.2132(2)
O15 O 0.9837(2) 0.6029(8) 0.2729(3)
loop_
_geom_bond_atom_site_label_1
_geom_bond_atom_site_label_2
_geom_bond_site_symmetry_1
_geom_bond_site_symmetry_2
Cd1 N5 1_555 1_555
Cd2 O3 1_555 1_555
Cd3 N7 1_555 1_555
Cd4 N3 1_555 1_555
C1 C2 1_555 1_555
C2 H1 1_555 1_555
C3 C2 1_555 1_555
C4 C3 1_555 1_555
H2 C4 1_555 1_555
C5 C4 1_555 1_555
C6 C1 1_555 1_555
H3 C6 1_555 1_555
C7 C1 1_555 1_555
C8 H4 1_555 1_555
C9 C8 1_555 1_555
H5 C9 1_555 1_555
C10 H6 1_555 1_555
C11 H7 1_555 1_555
C12 C11 1_555 1_555
H8 C12 1_555 1_555
C13 H9 1_555 1_555
C14 C15 1_555 1_555
C15 H10 1_555 1_555
C16 C15 1_555 1_555
C17 C16 1_555 1_555
H11 C17 1_555 1_555
C18 C17 1_555 1_555
C19 C14 1_555 1_555
H12 C19 1_555 1_555
C20 C14 1_555 1_555
C21 H13 1_555 1_555
C22 C21 1_555 1_555
H14 C22 1_555 1_555
C23 H15 1_555 1_555
C24 H16 1_555 1_555
C25 C24 1_555 1_555
H17 C25 1_555 1_555
C26 H18 1_555 1_555
C27 C28 1_555 1_555
C28 H19 1_555 1_555
C29 C28 1_555 1_555
H20 C29 1_555 1_555
H21 C29 1_555 1_555
C30 C29 1_555 1_555
H22 C30 1_555 1_555
H23 C30 1_555 1_555
C31 C27 1_555 1_555
C32 C28 1_555 1_555
C33 C31 1_555 1_555
C34 C27 1_555 1_555
H24 C34 1_555 1_555
H25 C34 1_555 1_555
H26 C34 1_555 1_555
C35 C27 1_555 1_555
H27 C35 1_555 1_555
H28 C35 1_555 1_555
H29 C35 1_555 1_555
C36 C31 1_555 1_555
H30 C36 1_555 1_555
H31 C36 1_555 1_555
H32 C36 1_555 1_555
C37 H33 1_555 1_555
C38 C37 1_555 1_555
H34 C38 1_555 1_555
H35 C38 1_555 1_555
C39 C38 1_555 1_555
H36 C39 1_555 1_555
H37 C39 1_555 1_555
C40 C39 1_555 1_555
C41 C37 1_555 1_555
C42 C37 1_555 1_555
C43 C40 1_555 1_555
C44 C41 1_555 1_555
H38 C44 1_555 1_555
H39 C44 1_555 1_555
H40 C44 1_555 1_555
C45 C41 1_555 1_555
H41 C45 1_555 1_555
H42 C45 1_555 1_555
H43 C45 1_555 1_555
C46 C40 1_555 1_555
H44 C46 1_555 1_555
H45 C46 1_555 1_555
H46 C46 1_555 1_555
N1 C9 1_555 1_555
N2 C3 1_555 1_555
N3 C12 1_555 1_555
N4 C5 1_555 1_555
N5 C22 1_555 1_555
N6 C16 1_555 1_555
N7 C25 1_555 1_555
N8 C18 1_555 1_555
O1 Cd1 1_555 1_555
O2 C7 1_555 1_555
O3 C20 1_555 1_555
O4 Cd2 1_555 1_555
O5 C32 1_555 1_555
O6 C32 1_555 1_555
O7 Cd1 1_555 1_555
O8 Cd1 1_555 1_555
O9 Cd3 1_555 1_555
O10 Cd3 1_555 1_555
O11 C43 1_555 1_555
O12 C43 1_555 1_555
O13 Cd1 1_555 1_555
O14 Cd2 1_555 1_555
Cd1A N5A 1_555 1_555
Cd1C O3 1_555 1_555
Cd1B O3A 1_555 1_555
Cd1_2 O1_2 1_555 1_555
Cd2A N1A 1_555 1_555
Cd2_2 N1 1_555 1_555
Cd2C O2 1_555 1_555
Cd2B O12 1_555 1_555
Cd2C_2 O12A 1_555 1_555
Cd2C_3 O2_2 1_555 1_555
Cd4B O5 1_555 1_555
Cd4_2 N3_2 1_555 1_555
Cd4B_2 O5A 1_555 1_555
C1_2 C2_2 1_555 1_555
C2_2 H1_2 1_555 1_555
C3_2 C2_2 1_555 1_555
C4_2 C3_2 1_555 1_555
H2_2 C4_2 1_555 1_555
C5_2 C4_2 1_555 1_555
C6_2 C1_2 1_555 1_555
H3_2 C6_2 1_555 1_555
C7_2 C1_2 1_555 1_555
C8_2 H4_2 1_555 1_555
C9_2 C8_2 1_555 1_555
H5_2 C9_2 1_555 1_555
C10_2 H6_2 1_555 1_555
C11_2 H7_2 1_555 1_555
C12_2 C11_2 1_555 1_555
H8_2 C12_2 1_555 1_555
C13_2 H9_2 1_555 1_555
C14A C15A 1_555 1_555
C15A H10A 1_555 1_555
C16A C15A 1_555 1_555
C17A C16A 1_555 1_555
H11A C17A 1_555 1_555
C18A C17A 1_555 1_555
C19A C14A 1_555 1_555
H12A C19A 1_555 1_555
C20A C14A 1_555 1_555
C21A H13A 1_555 1_555
C22A C21A 1_555 1_555
H14A C22A 1_555 1_555
C23A H15A 1_555 1_555
C24A H16A 1_555 1_555
C25A C24A 1_555 1_555
H17A C25A 1_555 1_555
C26A H18A 1_555 1_555
C27A C28A 1_555 1_555
C28A H19A 1_555 1_555
C29A C28A 1_555 1_555
H20A C29A 1_555 1_555
H21A C29A 1_555 1_555
C30A C29A 1_555 1_555
H22A C30A 1_555 1_555
H23A C30A 1_555 1_555
C31A C27A 1_555 1_555
C32A C28A 1_555 1_555
C33A C31A 1_555 1_555
C34A C27A 1_555 1_555
H24A C34A 1_555 1_555
H25A C34A 1_555 1_555
H26A C34A 1_555 1_555
C35A C27A 1_555 1_555
H27A C35A 1_555 1_555
H28A C35A 1_555 1_555
H29A C35A 1_555 1_555
C36A C31A 1_555 1_555
H30A C36A 1_555 1_555
H31A C36A 1_555 1_555
H32A C36A 1_555 1_555
C37A H33A 1_555 1_555
C38A C37A 1_555 1_555
H34A C38A 1_555 1_555
H35A C38A 1_555 1_555
C39A C38A 1_555 1_555
H36A C39A 1_555 1_555
H37A C39A 1_555 1_555
C40A C39A 1_555 1_555
C41A C37A 1_555 1_555
C42A C37A 1_555 1_555
C43A C40A 1_555 1_555
C44A C41A 1_555 1_555
H38A C44A 1_555 1_555
H39A C44A 1_555 1_555
H40A C44A 1_555 1_555
C45A C41A 1_555 1_555
H41A C45A 1_555 1_555
H42A C45A 1_555 1_555
H43A C45A 1_555 1_555
C46A C40A 1_555 1_555
H44A C46A 1_555 1_555
H45A C46A 1_555 1_555
H46A C46A 1_555 1_555
N1_2 Cd2 1_555 1_555
N2_2 C3_2 1_555 1_555
N3_2 C12_2 1_555 1_555
N3A Cd4 1_555 1_555
N4_2 C5_2 1_555 1_555
N5A C22A 1_555 1_555
N6A C16A 1_555 1_555
N7A Cd3 1_555 1_555
N8A C18A 1_555 1_555
O1_2 C7_2 1_555 1_555
O1A Cd1A 1_555 1_555
O2_2 C7_2 1_555 1_555
O2C Cd2 1_555 1_555
O2B Cd2A 1_555 1_555
O3A Cd2A 1_555 1_555
O3C Cd1 1_555 1_555
O3B Cd1A 1_555 1_555
O4A Cd2A 1_555 1_555
O5A C32A 1_555 1_555
O5B Cd4 1_555 1_555
O5C Cd4 1_555 1_555
O6A Cd4B_2 1_555 1_555
O6B Cd4 1_555 1_555
O6C Cd4 1_555 1_555
O7A Cd1A 1_555 1_555
O8A Cd1A 1_555 1_555
O9A Cd3 1_555 1_555
O10A Cd3 1_555 1_555
O11A C43A 1_555 1_555
O12A C43A 1_555 1_555
O12B Cd2 1_555 1_555
O12C Cd2A 1_555 1_555
O13A Cd1A 1_555 1_555
O14A Cd2A 1_555 1_555
C5 C6 1_555 1_555
C7 O1 1_555 1_555
C8 N2 1_555 1_555
C10 N1 1_555 1_555
C10 N2 1_555 1_555
C11 N4 1_555 1_555
C13 N3 1_555 1_555
C13 N4 1_555 1_555
C18 C19 1_555 1_555
C20 O4 1_555 1_555
C21 N6 1_555 1_555
C23 N5 1_555 1_555
C23 N6 1_555 1_555
C24 N8 1_555 1_555
C26 N7 1_555 1_555
C26 N8 1_555 1_555
C30 C31 1_555 1_555
C33 O7 1_555 1_555
C33 O8 1_555 1_555
C40 C41 1_555 1_555
C42 O9 1_555 1_555
C42 O10 1_555 1_555
O6 Cd4B 1_555 1_555
Cd2C O3C 1_555 1_555
C5_2 C6_2 1_555 1_555
C8_2 N2_2 1_555 1_555
C9_2 N1_2 1_555 1_555
C10_2 N1_2 1_555 1_555
C10_2 N2_2 1_555 1_555
C11_2 N4_2 1_555 1_555
C13_2 N3_2 1_555 1_555
C13_2 N4_2 1_555 1_555
C18A C19A 1_555 1_555
C20A O3A 1_555 1_555
C20A O4A 1_555 1_555
C21A N6A 1_555 1_555
C23A N5A 1_555 1_555
C23A N6A 1_555 1_555
C24A N8A 1_555 1_555
C25A N7A 1_555 1_555
C26A N7A 1_555 1_555
C26A N8A 1_555 1_555
C30A C31A 1_555 1_555
C32A O6A 1_555 1_555
C33A O7A 1_555 1_555
C33A O8A 1_555 1_555
C40A C41A 1_555 1_555
C42A O9A 1_555 1_555
C42A O10A 1_555 1_555

#END
