
#######################################################################
#
#                 Cambridge Crystallographic Data Centre
#                                CCDC 
#
#######################################################################
#
# If this CIF has been generated from an entry in the Cambridge 
# Structural Database, then it will include bibliographic, chemical, 
# crystal, experimental, refinement or atomic coordinate data resulting 
# from the CCDC's data processing and validation procedures.
#
#######################################################################

data_QAVROW
_symmetry_cell_setting           monoclinic
_symmetry_space_group_name_H-M   'P 21/c'
_symmetry_Int_Tables_number      14
_space_group_name_Hall           '-P 2ybc'
loop_
_symmetry_equiv_pos_site_id
_symmetry_equiv_pos_as_xyz
1 x,y,z
2 -x,1/2+y,1/2-z
3 -x,-y,-z
4 x,1/2-y,1/2+z
_cell_length_a                   16.651(2)
_cell_length_b                   7.5574(13)
_cell_length_c                   11.4300(18)
_cell_angle_alpha                90
_cell_angle_beta                 97.420(17)
_cell_angle_gamma                90
_cell_volume                     1426.29
loop_
_atom_site_label
_atom_site_type_symbol
_atom_site_fract_x
_atom_site_fract_y
_atom_site_fract_z
Cd1 Cd 0.235323(13) 1.17709(3) 0.488203(17)
N1 N 0.15896(15) 1.1795(3) 0.3047(2)
C1 C 0.14484(17) 1.1594(4) 0.2039(3)
S1 S 0.12262(5) 1.12703(10) 0.06023(7)
N2 N 0.30262(15) 1.1319(3) 0.6731(2)
C2 C 0.32345(17) 1.1504(3) 0.7725(3)
S2 S 0.35710(5) 1.17251(10) 0.91487(6)
O1 O 0.21152(12) 0.8850(3) 0.49312(16)
C3 C 0.18315(17) 0.8031(4) 0.3973(2)
N3 N 0.22916(14) 0.7806(3) 0.3072(2)
N4 N 0.18195(14) 0.7024(3) 0.2142(2)
H1 H 0.1974 0.6765 0.1454
C4 C 0.10844(17) 0.6720(3) 0.2454(3)
C5 C 0.10739(17) 0.7304(4) 0.3595(2)
H2 H 0.0631 0.7224 0.4040
C6 C 0.04339(18) 0.5891(4) 0.1604(3)
H3 H 0.0093 0.6819 0.1199
H4 H 0.0101 0.5117 0.2034
H5 H 0.0681 0.5194 0.1022
C7 C 0.31144(17) 0.8294(3) 0.3012(3)
C8 C 0.36787(18) 0.8032(4) 0.3995(3)
H6 H 0.3518 0.7536 0.4693
C9 C 0.44771(19) 0.8496(4) 0.3958(3)
H7 H 0.4865 0.8339 0.4636
C10 C 0.47114(18) 0.9189(4) 0.2935(3)
H8 H 0.5261 0.9506 0.2909
C11 C 0.41442(18) 0.9420(4) 0.1949(3)
H9 H 0.4308 0.9883 0.1244
C12 C 0.33409(18) 0.8981(4) 0.1981(3)
H10 H 0.2951 0.9148 0.1307
Cd1C Cd 0.235323(13) 1.32291(3) -0.011797(17)
Cd1C_2 Cd 0.235323(13) 1.32291(3) 0.988203(17)
S1C S 0.12262(5) 1.37297(10) 0.56023(7)
S2C S 0.35710(5) 1.32749(10) 0.41487(6)
loop_
_geom_bond_atom_site_label_1
_geom_bond_atom_site_label_2
_geom_bond_site_symmetry_1
_geom_bond_site_symmetry_2
Cd1 N1 1_555 1_555
N1 C1 1_555 1_555
C1 S1 1_555 1_555
S1 Cd1C 1_555 1_555
N2 Cd1 1_555 1_555
C2 N2 1_555 1_555
S2 C2 1_555 1_555
O1 Cd1 1_555 1_555
C3 O1 1_555 1_555
N3 C3 1_555 1_555
N4 N3 1_555 1_555
H1 N4 1_555 1_555
C4 N4 1_555 1_555
C5 C3 1_555 1_555
H2 C5 1_555 1_555
C6 C4 1_555 1_555
H3 C6 1_555 1_555
H4 C6 1_555 1_555
H5 C6 1_555 1_555
C7 N3 1_555 1_555
C8 C7 1_555 1_555
H6 C8 1_555 1_555
C9 C8 1_555 1_555
H7 C9 1_555 1_555
C10 C9 1_555 1_555
H8 C10 1_555 1_555
C11 C10 1_555 1_555
H9 C11 1_555 1_555
C12 C7 1_555 1_555
H10 C12 1_555 1_555
Cd1C_2 S2 1_555 1_555
S1C Cd1 1_555 1_555
S2C Cd1 1_555 1_555
C4 C5 1_555 1_555
C11 C12 1_555 1_555

#END
