
#######################################################################
#
#                 Cambridge Crystallographic Data Centre
#                                CCDC 
#
#######################################################################
#
# If this CIF has been generated from an entry in the Cambridge 
# Structural Database, then it will include bibliographic, chemical, 
# crystal, experimental, refinement or atomic coordinate data resulting 
# from the CCDC's data processing and validation procedures.
#
#######################################################################

data_QAVTEO
_symmetry_cell_setting           monoclinic
_symmetry_space_group_name_H-M   'P 21/c'
_symmetry_Int_Tables_number      14
_space_group_name_Hall           '-P 2ybc'
loop_
_symmetry_equiv_pos_site_id
_symmetry_equiv_pos_as_xyz
1 x,y,z
2 -x,1/2+y,1/2-z
3 -x,-y,-z
4 x,1/2-y,1/2+z
_cell_length_a                   11.5627(12)
_cell_length_b                   18.2637(18)
_cell_length_c                   29.833(3)
_cell_angle_alpha                90
_cell_angle_beta                 92.772(2)
_cell_angle_gamma                90
_cell_volume                     6292.69
loop_
_atom_site_label
_atom_site_type_symbol
_atom_site_fract_x
_atom_site_fract_y
_atom_site_fract_z
Ni1 Ni 0.44799(3) 0.27087(2) 0.923549(10)
Ni2 Ni 0.16489(3) 0.24984(2) 0.876120(11)
N1 N 0.0753(2) 0.17036(13) 0.91037(7)
N2 N -0.0191(2) 0.11720(14) 0.96403(7)
N3 N 0.0143(2) 0.20395(14) 1.34904(7)
N4 N -0.1029(2) 0.17099(14) 1.29263(8)
N5 N 0.5683(2) 0.34055(14) 0.95461(7)
N6 N 0.6618(2) 0.39525(14) 1.01142(8)
N7 N 0.5775(2) 0.28987(13) 1.39583(7)
N8 N 0.68088(19) 0.34412(13) 1.34544(7)
O1 O 0.33021(18) 0.33263(13) 0.95448(7)
O2 O 0.14702(18) 0.31337(11) 0.93176(6)
O3 O 0.34399(19) 0.35029(14) 1.31490(7)
O4 O 0.16042(18) 0.31578(12) 1.31895(6)
O5 O 0.43987(16) 0.32964(11) 0.86494(6)
O6 O 0.25528(16) 0.32362(11) 0.83893(6)
O7 O 0.45782(19) 0.29066(12) 0.48254(6)
O8 O 0.3434(2) 0.38432(13) 0.46419(7)
O9 O 0.8187(2) 0.46442(14) 1.18527(7)
O10 O -0.2479(3) 0.0820(3) 1.12162(8)
O11 O 0.32164(16) 0.19958(11) 0.89652(6)
C1 C 0.2245(3) 0.33408(15) 0.95943(9)
C2 C 0.1880(2) 0.36659(15) 1.00314(8)
C3 C 0.2651(3) 0.3685(2) 1.03955(10)
H1 H 0.3383 0.3482 1.0371
C4 C 0.2370(3) 0.3996(2) 1.07961(10)
H2 H 0.2905 0.3988 1.1039
C5 C 0.1313(3) 0.43172(16) 1.08409(9)
C6 C 0.0528(3) 0.4280(2) 1.04819(10)
H3 H -0.0206 0.4479 1.0508
C7 C 0.0800(3) 0.39531(19) 1.00801(10)
H4 H 0.0248 0.3929 0.9843
C8 C 0.1044(3) 0.4723(2) 1.12647(9)
H5 H 0.0213 0.4789 1.1270
H6 H 0.1393 0.5205 1.1255
C9 C 0.2438(3) 0.34306(16) 1.29891(9)
C10 C 0.2145(3) 0.37118(16) 1.25217(9)
C11 C 0.2793(4) 0.4250(2) 1.23405(11)
H7 H 0.3477 0.4399 1.2490
C12 C 0.2443(4) 0.4580(2) 1.19326(12)
H8 H 0.2882 0.4959 1.1820
C13 C 0.1461(3) 0.43504(18) 1.16962(9)
C14 C 0.0888(3) 0.3774(2) 1.18625(11)
H9 H 0.0261 0.3580 1.1695
C15 C 0.1202(3) 0.3465(2) 1.22723(11)
H10 H 0.0764 0.3083 1.2381
C16 C 0.3598(2) 0.33848(14) 0.83553(8)
C17 C 0.3939(2) 0.37185(15) 0.79183(8)
C18 C 0.5073(3) 0.38816(18) 0.78518(9)
H11 H 0.5631 0.3792 0.8080
C19 C 0.5403(3) 0.41757(18) 0.74520(10)
H12 H 0.6183 0.4268 0.7414
C20 C 0.4607(3) 0.43354(15) 0.71093(8)
C21 C 0.3483(3) 0.4167(2) 0.71726(10)
H13 H 0.2928 0.4257 0.6943
C22 C 0.3145(3) 0.3865(2) 0.75709(10)
H14 H 0.2368 0.3759 0.7605
C23 C 0.4980(3) 0.47252(17) 0.66909(9)
H15 H 0.4653 0.5214 0.6691
H16 H 0.5815 0.4778 0.6715
C24 C 0.4068(3) 0.34932(16) 0.49111(9)
C25 C 0.4256(3) 0.37933(15) 0.53788(9)
C26 C 0.4462(3) 0.33473(17) 0.57460(10)
H17 H 0.4482 0.2842 0.5707
C27 C 0.4639(3) 0.36362(17) 0.61725(10)
H18 H 0.4742 0.3322 0.6416
C28 C 0.4664(3) 0.43818(15) 0.62421(9)
C29 C 0.4470(3) 0.48278(17) 0.58740(9)
H19 H 0.4489 0.5333 0.5911
C30 C 0.4247(3) 0.45409(17) 0.54518(9)
H20 H 0.4087 0.4855 0.5212
C31 C 0.0277(3) 0.17972(17) 0.94893(9)
H21 H 0.0262 0.2242 0.9641
C32 C 0.0589(3) 0.09801(17) 0.90039(10)
H22 H 0.0841 0.0749 0.8748
C33 C 0.0009(3) 0.06481(17) 0.93288(10)
H23 H -0.0211 0.0159 0.9338
C34 C -0.0766(3) 0.10945(18) 1.00501(9)
C35 C -0.1729(3) 0.06598(19) 1.00659(10)
H24 H -0.2008 0.0415 0.9810
C36 C -0.2285(3) 0.0587(2) 1.04627(10)
H25 H -0.2943 0.0296 1.0474
C37 C -0.1868(4) 0.0940(4) 1.08359(13)
C38 C -0.0902(4) 0.1379(3) 1.08254(12)
H26 H -0.0629 0.1627 1.1081
C39 C -0.0345(3) 0.1444(2) 1.04297(11)
H27 H 0.0322 0.1727 1.0420
C40 C 0.0051(3) 0.1869(2) 1.30654(10)
H28 H 0.0674 0.1859 1.2880
C41 C -0.0946(3) 0.1992(2) 1.36338(11)
H29 H -0.1156 0.2082 1.3926
C42 C -0.1681(3) 0.1796(2) 1.32921(11)
H30 H -0.2477 0.1732 1.3303
C43 C -0.1385(3) 0.15033(18) 1.24785(10)
C44 C -0.0996(4) 0.0869(3) 1.23115(15)
H31 H -0.0497 0.0574 1.2486
C45 C -0.1337(5) 0.0660(4) 1.18832(18)
H32 H -0.1062 0.0222 1.1770
C46 C -0.2043(4) 0.1064(3) 1.16320(12)
C47 C -0.2432(5) 0.1715(3) 1.17837(15)
H33 H -0.2902 0.2013 1.1599
C48 C -0.2110(4) 0.1935(2) 1.22283(13)
H34 H -0.2393 0.2368 1.2345
C49 C 0.5871(2) 0.30395(17) 1.35299(9)
H35 H 0.5347 0.2878 1.3305
C50 C 0.6716(3) 0.32271(18) 1.41690(10)
H36 H 0.6884 0.3221 1.4477
C51 C 0.7361(3) 0.35584(19) 1.38671(10)
H37 H 0.8045 0.3816 1.3925
C52 C 0.7150(2) 0.37098(16) 1.30317(9)
C53 C 0.8290(3) 0.3884(2) 1.29773(10)
H38 H 0.8843 0.3802 1.3209
C54 C 0.8609(3) 0.4183(2) 1.25758(11)
H39 H 0.9377 0.4313 1.2540
C55 C 0.7804(3) 0.42890(18) 1.22298(10)
C56 C 0.6671(3) 0.40961(19) 1.22774(10)
H40 H 0.6127 0.4158 1.2040
C57 C 0.6344(3) 0.38082(18) 1.26808(9)
H41 H 0.5576 0.3680 1.2716
C58 C 0.5922(3) 0.34020(17) 0.99795(9)
H42 H 0.5638 0.3054 1.0173
C59 C 0.6259(4) 0.3992(2) 0.93936(12)
H43 H 0.6257 0.4137 0.9095
C60 C 0.6833(5) 0.4335(3) 0.97337(12)
H44 H 0.7289 0.4752 0.9714
C61 C 0.6999(3) 0.41193(17) 1.05642(9)
C62 C 0.7299(3) 0.35653(17) 1.08612(10)
H45 H 0.7261 0.3080 1.0768
C63 C 0.7656(3) 0.37311(19) 1.12977(11)
H46 H 0.7845 0.3358 1.1500
C64 C 0.7729(3) 0.44501(18) 1.14314(9)
C65 C 0.7459(3) 0.49998(18) 1.11357(10)
H47 H 0.7535 0.5485 1.1226
C66 C 0.7074(3) 0.48389(17) 1.07047(10)
H48 H 0.6864 0.5215 1.0507
H49 H 0.322(3) 0.1662(16) 0.9159(10)
H50 H 0.338(3) 0.178(2) 0.8717(9)
Ni1C Ni 0.44799(3) 0.22913(2) 1.423549(10)
Ni1C_2 Ni 0.44799(3) 0.22913(2) 0.423549(10)
Ni2C Ni 0.16489(3) 0.25016(2) 1.376120(11)
N3C N 0.0143(2) 0.29605(14) 0.84904(7)
N7C N 0.5775(2) 0.21013(13) 0.89583(7)
O4C O 0.16042(18) 0.18422(12) 0.81895(6)
O7C O 0.45782(19) 0.20934(12) 0.98254(6)
loop_
_geom_bond_atom_site_label_1
_geom_bond_atom_site_label_2
_geom_bond_site_symmetry_1
_geom_bond_site_symmetry_2
Ni1 N5 1_555 1_555
Ni2 N1 1_555 1_555
N1 C31 1_555 1_555
N2 C31 1_555 1_555
N3 C40 1_555 1_555
N4 C40 1_555 1_555
N5 C58 1_555 1_555
N6 C58 1_555 1_555
N7 C49 1_555 1_555
N8 C49 1_555 1_555
O1 Ni1 1_555 1_555
O2 Ni2 1_555 1_555
O3 C9 1_555 1_555
O4 C9 1_555 1_555
O5 Ni1 1_555 1_555
O6 Ni2 1_555 1_555
O7 C24 1_555 1_555
O8 C24 1_555 1_555
O9 C55 1_555 1_555
O10 C37 1_555 1_555
O11 Ni1 1_555 1_555
C1 O1 1_555 1_555
C2 C1 1_555 1_555
C3 C2 1_555 1_555
H1 C3 1_555 1_555
C4 C3 1_555 1_555
H2 C4 1_555 1_555
C5 C4 1_555 1_555
C6 C5 1_555 1_555
H3 C6 1_555 1_555
C7 C2 1_555 1_555
H4 C7 1_555 1_555
C8 C5 1_555 1_555
H5 C8 1_555 1_555
H6 C8 1_555 1_555
C9 C10 1_555 1_555
C10 C11 1_555 1_555
C11 H7 1_555 1_555
C12 C11 1_555 1_555
H8 C12 1_555 1_555
C13 C8 1_555 1_555
C14 C13 1_555 1_555
H9 C14 1_555 1_555
C15 C10 1_555 1_555
H10 C15 1_555 1_555
C16 O5 1_555 1_555
C17 C16 1_555 1_555
C18 C17 1_555 1_555
H11 C18 1_555 1_555
C19 C18 1_555 1_555
H12 C19 1_555 1_555
C20 C19 1_555 1_555
C21 C20 1_555 1_555
H13 C21 1_555 1_555
C22 C17 1_555 1_555
H14 C22 1_555 1_555
C23 C20 1_555 1_555
H15 C23 1_555 1_555
H16 C23 1_555 1_555
C24 C25 1_555 1_555
C25 C26 1_555 1_555
C26 H17 1_555 1_555
C27 C26 1_555 1_555
H18 C27 1_555 1_555
C28 C23 1_555 1_555
C29 C28 1_555 1_555
H19 C29 1_555 1_555
C30 C25 1_555 1_555
H20 C30 1_555 1_555
C31 H21 1_555 1_555
C32 N1 1_555 1_555
H22 C32 1_555 1_555
C33 N2 1_555 1_555
H23 C33 1_555 1_555
C34 N2 1_555 1_555
C35 C34 1_555 1_555
H24 C35 1_555 1_555
C36 C35 1_555 1_555
H25 C36 1_555 1_555
C37 C36 1_555 1_555
C38 C37 1_555 1_555
H26 C38 1_555 1_555
C39 C34 1_555 1_555
H27 C39 1_555 1_555
C40 H28 1_555 1_555
C41 N3 1_555 1_555
H29 C41 1_555 1_555
C42 N4 1_555 1_555
H30 C42 1_555 1_555
C43 N4 1_555 1_555
C44 C43 1_555 1_555
H31 C44 1_555 1_555
C45 C44 1_555 1_555
H32 C45 1_555 1_555
C46 O10 1_555 1_555
C47 C46 1_555 1_555
H33 C47 1_555 1_555
C48 C43 1_555 1_555
H34 C48 1_555 1_555
C49 H35 1_555 1_555
C50 N7 1_555 1_555
H36 C50 1_555 1_555
C51 N8 1_555 1_555
H37 C51 1_555 1_555
C52 N8 1_555 1_555
C53 C52 1_555 1_555
H38 C53 1_555 1_555
C54 C53 1_555 1_555
H39 C54 1_555 1_555
C55 C54 1_555 1_555
C56 C55 1_555 1_555
H40 C56 1_555 1_555
C57 C52 1_555 1_555
H41 C57 1_555 1_555
C58 H42 1_555 1_555
C59 N5 1_555 1_555
H43 C59 1_555 1_555
C60 N6 1_555 1_555
H44 C60 1_555 1_555
C61 N6 1_555 1_555
C62 C61 1_555 1_555
H45 C62 1_555 1_555
C63 C62 1_555 1_555
H46 C63 1_555 1_555
C64 O9 1_555 1_555
C65 C64 1_555 1_555
H47 C65 1_555 1_555
C66 C61 1_555 1_555
H48 C66 1_555 1_555
H49 O11 1_555 1_555
H50 O11 1_555 1_555
Ni1C N7 1_555 1_555
Ni1C_2 O7 1_555 1_555
Ni2C N3 1_555 1_555
N3C Ni2 1_555 1_555
N7C Ni1 1_555 1_555
O4C Ni2 1_555 1_555
O7C Ni1 1_555 1_555
Ni2 O11 1_555 1_555
O2 C1 1_555 1_555
O4 Ni2C 1_555 1_555
O6 C16 1_555 1_555
C6 C7 1_555 1_555
C12 C13 1_555 1_555
C14 C15 1_555 1_555
C21 C22 1_555 1_555
C27 C28 1_555 1_555
C29 C30 1_555 1_555
C32 C33 1_555 1_555
C38 C39 1_555 1_555
C41 C42 1_555 1_555
C45 C46 1_555 1_555
C47 C48 1_555 1_555
C50 C51 1_555 1_555
C56 C57 1_555 1_555
C59 C60 1_555 1_555
C63 C64 1_555 1_555
C65 C66 1_555 1_555

#END
