
#######################################################################
#
#                 Cambridge Crystallographic Data Centre
#                                CCDC 
#
#######################################################################
#
# If this CIF has been generated from an entry in the Cambridge 
# Structural Database, then it will include bibliographic, chemical, 
# crystal, experimental, refinement or atomic coordinate data resulting 
# from the CCDC's data processing and validation procedures.
#
#######################################################################

data_QAVZIY
_symmetry_cell_setting           monoclinic
_symmetry_space_group_name_H-M   'C 2/c'
_symmetry_Int_Tables_number      15
_space_group_name_Hall           '-C 2yn'
loop_
_symmetry_equiv_pos_site_id
_symmetry_equiv_pos_as_xyz
1 x,y,z
2 -x,y,1/2-z
3 1/2+x,1/2+y,z
4 1/2-x,1/2+y,1/2-z
5 -x,-y,-z
6 x,-y,1/2+z
7 1/2-x,1/2-y,-z
8 1/2+x,1/2-y,1/2+z
_cell_length_a                   19.050(4)
_cell_length_b                   15.285(3)
_cell_length_c                   18.824(4)
_cell_angle_alpha                90
_cell_angle_beta                 117.05(3)
_cell_angle_gamma                90
_cell_volume                     4881.57
loop_
_atom_site_label
_atom_site_type_symbol
_atom_site_fract_x
_atom_site_fract_y
_atom_site_fract_z
Tb1 Tb 0.280600(12) 1.119957(12) -0.013227(12)
O1 O 0.2466(2) 1.0978(2) 0.0971(2)
O2 O 0.2234(2) 1.2319(2) 0.0540(2)
O3 O 0.6041(2) 1.1800(2) 0.3993(2)
O4 O 0.5832(2) 1.1189(3) 0.4928(2)
O5 O 0.3330(2) 0.9728(2) 0.0342(3)
O6 O 0.2075(2) 0.9828(2) -0.0494(3)
O7 O 0.2750(3) 1.0942(3) -0.1396(2)
O8 O 0.1442(2) 1.1474(2) -0.1008(2)
H1 H 0.1167 1.1148 -0.0892
H2 H 0.1335 1.2003 -0.0957
C1 C 0.2195(3) 1.1873(4) 0.2339(3)
C2 C 0.1808(3) 1.1894(3) 0.1503(3)
C3 C 0.1005(3) 1.2044(4) 0.1106(4)
H3 H 0.0752 1.2080 0.0553
C4 C 0.0572(4) 1.2143(6) 0.1528(5)
H4 H 0.0030 1.2229 0.1257
C5 C 0.0943(4) 1.2113(7) 0.2339(5)
H5 H 0.0652 1.2173 0.2621
C6 C 0.1751(4) 1.1994(6) 0.2746(4)
H6 H 0.2000 1.1995 0.3301
C7 C 0.2207(3) 1.1722(3) 0.0990(3)
C8 C 0.3063(3) 1.1774(4) 0.2815(3)
C9 C 0.3580(3) 1.2225(4) 0.2611(3)
H7 H 0.3383 1.2581 0.2161
C10 C 0.4389(3) 1.2148(4) 0.3077(3)
H8 H 0.4728 1.2443 0.2928
C11 C 0.4699(3) 1.1635(3) 0.3762(3)
C12 C 0.4181(3) 1.1199(4) 0.3981(3)
H9 H 0.4377 1.0859 0.4441
C13 C 0.3375(3) 1.1277(4) 0.3510(3)
H10 H 0.3035 1.0989 0.3663
C14 C 0.5570(3) 1.1537(3) 0.4260(3)
C15 C 0.2577(3) 0.8405(3) -0.0014(3)
C16 C 0.3246(3) 0.7872(3) 0.0315(3)
H11 H 0.3746 0.8119 0.0527
C17 C 0.1845(3) 0.8030(3) -0.0324(3)
H12 H 0.1400 0.8385 -0.0544
C18 C 0.2671(3) 0.9381(3) -0.0049(3)
N1 N 0.3146(4) 1.0728(4) -0.2351(4)
C19 C 0.3802(7) 1.0514(7) -0.2537(6)
H13 H 0.4292 1.0544 -0.2059
H14 H 0.3808 1.0924 -0.2920
H15 H 0.3730 0.9933 -0.2754
C20 C 0.3286(4) 1.0834(5) -0.1607(4)
H16 H 0.3807 1.0829 -0.1213
C21 C 0.2354(6) 1.0720(7) -0.2988(5)
H17 H 0.1993 1.0871 -0.2780
H18 H 0.2231 1.0147 -0.3221
H19 H 0.2309 1.1138 -0.3387
Tb1F Tb 0.219400(12) 1.380043(12) 0.013227(12)
Tb1A Tb 0.719400(12) 1.119957(12) 0.513227(12)
Tb1G Tb 0.780600(12) 1.380043(12) 0.486773(12)
Tb1F_2 Tb 0.219400(12) 0.380043(12) 0.013227(12)
O1A O 0.7534(2) 1.0978(2) 0.4029(2)
O2F O 0.2766(2) 1.2681(2) -0.0540(2)
O2A O 0.7766(2) 1.2319(2) 0.4460(2)
O2G O 0.7234(2) 1.2681(2) 0.5540(2)
O3A O 0.3959(2) 1.1800(2) 0.1007(2)
O4A O 0.4168(2) 1.1189(3) 0.0072(2)
O5F O 0.1670(2) 0.5272(2) -0.0342(3)
O5A O 0.6670(2) 0.9728(2) 0.4658(3)
O6F O 0.2925(2) 0.5172(2) 0.0494(3)
O6A O 0.7925(2) 0.9828(2) 0.5494(3)
O7A O 0.7250(3) 1.0942(3) 0.6396(2)
O8A O 0.8558(2) 1.1474(2) 0.6008(2)
H1A H 0.8833 1.1148 0.5892
H2A H 0.8665 1.2003 0.5957
C1A C 0.7805(3) 1.1873(4) 0.2661(3)
C2A C 0.8192(3) 1.1894(3) 0.3497(3)
C3A C 0.8995(3) 1.2044(4) 0.3894(4)
H3A H 0.9248 1.2080 0.4447
C4A C 0.9428(4) 1.2143(6) 0.3472(5)
H4A H 0.9970 1.2229 0.3743
C5A C 0.9057(4) 1.2113(7) 0.2661(5)
H5A H 0.9348 1.2173 0.2379
C6A C 0.8249(4) 1.1994(6) 0.2254(4)
H6A H 0.8000 1.1995 0.1699
C7A C 0.7793(3) 1.1722(3) 0.4010(3)
C8A C 0.6937(3) 1.1774(4) 0.2185(3)
C9A C 0.6420(3) 1.2225(4) 0.2389(3)
H7A H 0.6617 1.2581 0.2839
C10A C 0.5611(3) 1.2148(4) 0.1923(3)
H8A H 0.5272 1.2443 0.2072
C11A C 0.5301(3) 1.1635(3) 0.1238(3)
C12A C 0.5819(3) 1.1199(4) 0.1019(3)
H9A H 0.5623 1.0859 0.0559
C13A C 0.6625(3) 1.1277(4) 0.1490(3)
H10A H 0.6965 1.0989 0.1337
C14A C 0.4430(3) 1.1537(3) 0.0740(3)
C15F C 0.2423(3) 0.6595(3) 0.0014(3)
C16F C 0.1754(3) 0.7128(3) -0.0315(3)
H11F H 0.1254 0.6881 -0.0527
C17F C 0.3155(3) 0.6970(3) 0.0324(3)
H12F H 0.3600 0.6615 0.0544
C18F C 0.2329(3) 0.5619(3) 0.0049(3)
N1A N 0.6854(4) 1.0728(4) 0.7351(4)
C19A C 0.6198(7) 1.0514(7) 0.7537(6)
H13A H 0.5708 1.0544 0.7059
H14A H 0.6192 1.0924 0.7920
H15A H 0.6270 0.9933 0.7754
C20A C 0.6714(4) 1.0834(5) 0.6607(4)
H16A H 0.6193 1.0829 0.6213
C21A C 0.7646(6) 1.0720(7) 0.7988(5)
H17A H 0.8007 1.0871 0.7780
H18A H 0.7769 1.0147 0.8221
H19A H 0.7691 1.1138 0.8387
O9 O 0.0000 1.0000 0.0000
H20 H 0.0135 0.9540 -0.0160
H20D H -0.0135 1.0460 0.0160
O10 O 0.4250(12) 0.4774(16) 0.2208(13)
H21 H 0.4053 0.4284 0.1997
H22 H 0.4143 0.4875 0.2592
H23? H -0.0328 0.9868 0.0174
loop_
_geom_bond_atom_site_label_1
_geom_bond_atom_site_label_2
_geom_bond_site_symmetry_1
_geom_bond_site_symmetry_2
Tb1 O1 1_555 1_555
O1 C7 1_555 1_555
O2 Tb1 1_555 1_555
O3 C14 1_555 1_555
O4 C14 1_555 1_555
O5 Tb1 1_555 1_555
O6 Tb1 1_555 1_555
O7 Tb1 1_555 1_555
O8 Tb1 1_555 1_555
H1 O8 1_555 1_555
H2 O8 1_555 1_555
C1 C2 1_555 1_555
C2 C3 1_555 1_555
C3 H3 1_555 1_555
C4 C3 1_555 1_555
H4 C4 1_555 1_555
C5 C4 1_555 1_555
H5 C5 1_555 1_555
C6 C1 1_555 1_555
H6 C6 1_555 1_555
C7 O2 1_555 1_555
C8 C1 1_555 1_555
C9 C8 1_555 1_555
H7 C9 1_555 1_555
C10 C9 1_555 1_555
H8 C10 1_555 1_555
C11 C10 1_555 1_555
C12 C11 1_555 1_555
H9 C12 1_555 1_555
C13 C8 1_555 1_555
H10 C13 1_555 1_555
C14 C11 1_555 1_555
C15 C16 1_555 1_555
C16 H11 1_555 1_555
C17 C15 1_555 1_555
H12 C17 1_555 1_555
C18 O5 1_555 1_555
N1 C19 1_555 1_555
C19 H13 1_555 1_555
H14 C19 1_555 1_555
H15 C19 1_555 1_555
C20 O7 1_555 1_555
H16 C20 1_555 1_555
C21 N1 1_555 1_555
H17 C21 1_555 1_555
H18 C21 1_555 1_555
H19 C21 1_555 1_555
O9 H20 1_555 1_555
O10 H21 1_555 1_555
H22 O10 1_555 1_555
Tb1F O2 1_555 1_555
Tb1A O3 1_555 1_555
Tb1G O2A 1_555 1_555
Tb1F_2 O5F 1_555 1_555
O1A Tb1A 1_555 1_555
O2F Tb1 1_555 1_555
O2A Tb1A 1_555 1_555
O2G Tb1A 1_555 1_555
O3A Tb1 1_555 1_555
O4A Tb1 1_555 1_555
O5F C18F 1_555 1_555
O5A Tb1A 1_555 1_555
O6F Tb1F_2 1_555 1_555
O6A Tb1A 1_555 1_555
O7A Tb1A 1_555 1_555
O8A Tb1A 1_555 1_555
H1A O8A 1_555 1_555
H2A O8A 1_555 1_555
C1A C2A 1_555 1_555
C2A C3A 1_555 1_555
C3A H3A 1_555 1_555
C4A C3A 1_555 1_555
H4A C4A 1_555 1_555
C5A C4A 1_555 1_555
H5A C5A 1_555 1_555
C6A C1A 1_555 1_555
H6A C6A 1_555 1_555
C7A O1A 1_555 1_555
C8A C1A 1_555 1_555
C9A C8A 1_555 1_555
H7A C9A 1_555 1_555
C10A C9A 1_555 1_555
H8A C10A 1_555 1_555
C11A C10A 1_555 1_555
C12A C11A 1_555 1_555
H9A C12A 1_555 1_555
C13A C8A 1_555 1_555
H10A C13A 1_555 1_555
C14A O3A 1_555 1_555
C15F C16F 1_555 1_555
C16F C17 1_555 1_555
H11F C16F 1_555 1_555
C17F C16 1_555 1_555
H12F C17F 1_555 1_555
C18F O6F 1_555 1_555
N1A C19A 1_555 1_555
C19A H13A 1_555 1_555
H14A C19A 1_555 1_555
H15A C19A 1_555 1_555
C20A O7A 1_555 1_555
H16A C20A 1_555 1_555
C21A N1A 1_555 1_555
H17A C21A 1_555 1_555
H18A C21A 1_555 1_555
H19A C21A 1_555 1_555
H20D O9 1_555 1_555
O4 Tb1A 1_555 1_555
O6 C18 1_555 1_555
C2 C7 1_555 1_555
C5 C6 1_555 1_555
C12 C13 1_555 1_555
C15 C18 1_555 1_555
N1 C20 1_555 1_555
Tb1F O2F 1_555 1_555
Tb1G O2G 1_555 1_555
O2A C7A 1_555 1_555
O4A C14A 1_555 1_555
C2A C7A 1_555 1_555
C5A C6A 1_555 1_555
C11A C14A 1_555 1_555
C12A C13A 1_555 1_555
C15F C17F 1_555 1_555
C15F C18F 1_555 1_555
N1A C20A 1_555 1_555

#END
