
#######################################################################
#
#                 Cambridge Crystallographic Data Centre
#                                CCDC 
#
#######################################################################
#
# If this CIF has been generated from an entry in the Cambridge 
# Structural Database, then it will include bibliographic, chemical, 
# crystal, experimental, refinement or atomic coordinate data resulting 
# from the CCDC's data processing and validation procedures.
#
#######################################################################

data_QAVZOE
_symmetry_cell_setting           monoclinic
_symmetry_space_group_name_H-M   'C 2/c'
_symmetry_Int_Tables_number      15
_space_group_name_Hall           '-C 2yn'
loop_
_symmetry_equiv_pos_site_id
_symmetry_equiv_pos_as_xyz
1 x,y,z
2 -x,y,1/2-z
3 1/2+x,1/2+y,z
4 1/2-x,1/2+y,1/2-z
5 -x,-y,-z
6 x,-y,1/2+z
7 1/2-x,1/2-y,-z
8 1/2+x,1/2-y,1/2+z
_cell_length_a                   19.095(4)
_cell_length_b                   15.316(3)
_cell_length_c                   18.879(4)
_cell_angle_alpha                90
_cell_angle_beta                 117.12(3)
_cell_angle_gamma                90
_cell_volume                     4914.28
loop_
_atom_site_label
_atom_site_type_symbol
_atom_site_fract_x
_atom_site_fract_y
_atom_site_fract_z
Gd1 Gd 0.219320(13) 0.879979(13) 0.013085(13)
O1 O 0.2924(2) 1.0180(2) 0.0493(3)
O2 O 0.1670(2) 1.0276(2) -0.0342(3)
O3 O 0.2764(2) 0.7685(2) -0.0544(2)
O4 O 0.2249(3) 0.9055(3) 0.1398(2)
O5 O -0.1029(2) 0.8200(2) -0.3989(2)
O6 O -0.0822(2) 0.8814(3) -0.4926(2)
O7 O 0.2529(3) 0.9021(2) -0.0979(2)
O8 O 0.3571(2) 0.8516(2) 0.1006(2)
H1 H 0.3837 0.8975 0.1049
H2 H 0.3624 0.8368 0.1462
N1 N 0.1852(5) 0.9276(4) 0.2349(4)
C1 C 0.2329(3) 1.0625(3) 0.0048(3)
C2 C 0.2420(3) 1.1601(3) 0.0011(3)
C3 C 0.1757(3) 1.2128(3) -0.0308(4)
H6 H 0.1429 1.1960 -0.0850
C4 C 0.3158(3) 1.1969(3) 0.0317(4)
H7 H 0.3436 1.1837 0.0875
C5 C 0.2789(3) 0.8282(3) -0.0994(3)
C6 C 0.1205(7) 0.9478(8) 0.2549(7)
H8 H 0.0712 0.9458 0.2074
H9 H 0.1282 1.0050 0.2779
H10 H 0.1202 0.9055 0.2923
C7 C 0.2652(7) 0.9273(7) 0.2988(5)
H11 H 0.3010 0.9135 0.2776
H12 H 0.2699 0.8842 0.3377
H13 H 0.2777 0.9838 0.3234
C8 C 0.1713(5) 0.9164(4) 0.1607(4)
H14 H 0.1192 0.9164 0.1215
C9 C -0.0562(3) 0.8465(3) -0.4253(3)
C10 C 0.0308(3) 0.8365(3) -0.3756(3)
C11 C 0.0617(3) 0.7855(4) -0.3074(3)
H15 H 0.0279 0.7560 -0.2925
C12 C 0.1421(3) 0.7778(4) -0.2612(3)
H16 H 0.1617 0.7425 -0.2162
C13 C 0.1940(3) 0.8220(4) -0.2812(3)
C14 C 0.1631(3) 0.8724(4) -0.3506(3)
H17 H 0.1970 0.9017 -0.3654
C15 C 0.0823(3) 0.8795(4) -0.3977(3)
H18 H 0.0626 0.9129 -0.4439
C16 C 0.2808(3) 0.8127(4) -0.2335(3)
C17 C 0.3189(3) 0.8108(3) -0.1507(3)
C18 C 0.3997(3) 0.7953(4) -0.1108(4)
H19 H 0.4250 0.7917 -0.0555
C19 C 0.4426(4) 0.7852(6) -0.1528(5)
H20 H 0.4967 0.7764 -0.1258
C20 C 0.4055(4) 0.7883(7) -0.2335(5)
H21 H 0.4344 0.7819 -0.2617
C21 C 0.3257(4) 0.8009(6) -0.2738(4)
H22 H 0.3010 0.8016 -0.3291
Gd1F Gd 0.280680(13) 1.620021(13) -0.013085(13)
Gd1F_2 Gd 0.280680(13) 0.620021(13) -0.013085(13)
Gd1A Gd -0.219320(13) 0.879979(13) -0.513085(13)
Gd1G Gd -0.280680(13) 0.620021(13) -0.486915(13)
O1F O 0.2076(2) 1.4820(2) -0.0493(3)
O1A O -0.2924(2) 1.0180(2) -0.5493(3)
O2F O 0.3330(2) 1.4724(2) 0.0342(3)
O2A O -0.1670(2) 1.0276(2) -0.4658(3)
O3F O 0.2236(2) 0.7315(2) 0.0544(2)
O3A O -0.2764(2) 0.7685(2) -0.4456(2)
O3G O -0.2236(2) 0.7315(2) -0.5544(2)
O4A O -0.2249(3) 0.9055(3) -0.6398(2)
O5A O 0.1029(2) 0.8200(2) -0.1011(2)
O6A O 0.0822(2) 0.8814(3) -0.0074(2)
O7A O -0.2529(3) 0.9021(2) -0.4021(2)
O8A O -0.3571(2) 0.8516(2) -0.6006(2)
H1A H -0.3837 0.8975 -0.6049
H2A H -0.3624 0.8368 -0.6462
N1A N -0.1852(5) 0.9276(4) -0.7349(4)
C1F C 0.2671(3) 1.4375(3) -0.0048(3)
C2F C 0.2580(3) 1.3399(3) -0.0011(3)
C3F C 0.3243(3) 1.2872(3) 0.0308(4)
H6F H 0.3571 1.3040 0.0850
C4F C 0.1842(3) 1.3031(3) -0.0317(4)
H7F H 0.1564 1.3163 -0.0875
C5A C -0.2789(3) 0.8282(3) -0.4006(3)
C6A C -0.1205(7) 0.9478(8) -0.7549(7)
H8A H -0.0712 0.9458 -0.7074
H9A H -0.1282 1.0050 -0.7779
H10A H -0.1202 0.9055 -0.7923
C7A C -0.2652(7) 0.9273(7) -0.7988(5)
H11A H -0.3010 0.9135 -0.7776
H12A H -0.2699 0.8842 -0.8377
H13A H -0.2777 0.9838 -0.8234
C8A C -0.1713(5) 0.9164(4) -0.6607(4)
H14A H -0.1192 0.9164 -0.6215
C9A C 0.0562(3) 0.8465(3) -0.0747(3)
C10A C -0.0308(3) 0.8365(3) -0.1244(3)
C11A C -0.0617(3) 0.7855(4) -0.1926(3)
H15A H -0.0279 0.7560 -0.2075
C12A C -0.1421(3) 0.7778(4) -0.2388(3)
H16A H -0.1617 0.7425 -0.2838
C13A C -0.1940(3) 0.8220(4) -0.2188(3)
C14A C -0.1631(3) 0.8724(4) -0.1494(3)
H17A H -0.1970 0.9017 -0.1346
C15A C -0.0823(3) 0.8795(4) -0.1023(3)
H18A H -0.0626 0.9129 -0.0561
C16A C -0.2808(3) 0.8127(4) -0.2665(3)
C17A C -0.3189(3) 0.8108(3) -0.3493(3)
C18A C -0.3997(3) 0.7953(4) -0.3892(4)
H19A H -0.4250 0.7917 -0.4445
C19A C -0.4426(4) 0.7852(6) -0.3472(5)
H20A H -0.4967 0.7764 -0.3742
C20A C -0.4055(4) 0.7883(7) -0.2665(5)
H21A H -0.4344 0.7819 -0.2383
C21A C -0.3257(4) 0.8009(6) -0.2262(4)
H22A H -0.3010 0.8016 -0.1709
O9 O 0.4244(11) 0.9762(15) 0.2212(10)
H3 H 0.4182 1.0301 0.2273
H4 H 0.4291 0.9480 0.2619
O10 O -0.5000 1.0000 -0.5000
H5 H -0.5370 1.0287 -0.4977
H5D H -0.4630 0.9713 -0.5023
H23? H -0.5401 0.9673 -0.5140
loop_
_geom_bond_atom_site_label_1
_geom_bond_atom_site_label_2
_geom_bond_site_symmetry_1
_geom_bond_site_symmetry_2
Gd1 O1 1_555 1_555
O1 C1 1_555 1_555
O2 Gd1 1_555 1_555
O3 Gd1 1_555 1_555
O4 Gd1 1_555 1_555
O5 C9 1_555 1_555
O6 C9 1_555 1_555
O7 Gd1 1_555 1_555
O8 Gd1 1_555 1_555
H1 O8 1_555 1_555
H2 O8 1_555 1_555
O9 H3 1_555 1_555
H4 O9 1_555 1_555
O10 H5 1_555 1_555
N1 C6 1_555 1_555
C1 O2 1_555 1_555
C2 C1 1_555 1_555
C3 C2 1_555 1_555
H6 C3 1_555 1_555
C4 C2 1_555 1_555
H7 C4 1_555 1_555
C5 O3 1_555 1_555
C6 H8 1_555 1_555
H9 C6 1_555 1_555
H10 C6 1_555 1_555
C7 N1 1_555 1_555
H11 C7 1_555 1_555
H12 C7 1_555 1_555
H13 C7 1_555 1_555
C8 O4 1_555 1_555
H14 C8 1_555 1_555
C9 C10 1_555 1_555
C10 C11 1_555 1_555
C11 H15 1_555 1_555
C12 C11 1_555 1_555
H16 C12 1_555 1_555
C13 C12 1_555 1_555
C14 C13 1_555 1_555
H17 C14 1_555 1_555
C15 C10 1_555 1_555
H18 C15 1_555 1_555
C16 C13 1_555 1_555
C17 C5 1_555 1_555
C18 C17 1_555 1_555
H19 C18 1_555 1_555
C19 C18 1_555 1_555
H20 C19 1_555 1_555
C20 C19 1_555 1_555
H21 C20 1_555 1_555
C21 C16 1_555 1_555
H22 C21 1_555 1_555
Gd1F O1F 1_555 1_555
Gd1F_2 O3 1_555 1_555
Gd1A O5 1_555 1_555
Gd1G O3A 1_555 1_555
O1F C1F 1_555 1_555
O1A Gd1A 1_555 1_555
O2F Gd1F 1_555 1_555
O2A Gd1A 1_555 1_555
O3F Gd1 1_555 1_555
O3A Gd1A 1_555 1_555
O3G Gd1A 1_555 1_555
O4A Gd1A 1_555 1_555
O5A Gd1 1_555 1_555
O6A Gd1 1_555 1_555
O7A Gd1A 1_555 1_555
O8A Gd1A 1_555 1_555
H1A O8A 1_555 1_555
H2A O8A 1_555 1_555
H5D O10 1_555 1_555
N1A C6A 1_555 1_555
C1F O2F 1_555 1_555
C2F C1F 1_555 1_555
C3F C4 1_555 1_555
H6F C3F 1_555 1_555
C4F C3 1_555 1_555
H7F C4F 1_555 1_555
C5A O3A 1_555 1_555
C6A H8A 1_555 1_555
H9A C6A 1_555 1_555
H10A C6A 1_555 1_555
C7A N1A 1_555 1_555
H11A C7A 1_555 1_555
H12A C7A 1_555 1_555
H13A C7A 1_555 1_555
C8A O4A 1_555 1_555
H14A C8A 1_555 1_555
C9A O5A 1_555 1_555
C10A C9A 1_555 1_555
C11A C10A 1_555 1_555
H15A C11A 1_555 1_555
C12A C11A 1_555 1_555
H16A C12A 1_555 1_555
C13A C12A 1_555 1_555
C14A C13A 1_555 1_555
H17A C14A 1_555 1_555
C15A C10A 1_555 1_555
H18A C15A 1_555 1_555
C16A C13A 1_555 1_555
C17A C5A 1_555 1_555
C18A C17A 1_555 1_555
H19A C18A 1_555 1_555
C19A C18A 1_555 1_555
H20A C19A 1_555 1_555
C20A C19A 1_555 1_555
H21A C20A 1_555 1_555
C21A C16A 1_555 1_555
H22A C21A 1_555 1_555
O6 Gd1A 1_555 1_555
O7 C5 1_555 1_555
N1 C8 1_555 1_555
C14 C15 1_555 1_555
C16 C17 1_555 1_555
C20 C21 1_555 1_555
Gd1F_2 O3F 1_555 1_555
Gd1G O3G 1_555 1_555
O6A C9A 1_555 1_555
O7A C5A 1_555 1_555
N1A C8A 1_555 1_555
C2F C3F 1_555 1_555
C2F C4F 1_555 1_555
C14A C15A 1_555 1_555
C16A C17A 1_555 1_555
C20A C21A 1_555 1_555

#END
