
#######################################################################
#
#                 Cambridge Crystallographic Data Centre
#                                CCDC 
#
#######################################################################
#
# If this CIF has been generated from an entry in the Cambridge 
# Structural Database, then it will include bibliographic, chemical, 
# crystal, experimental, refinement or atomic coordinate data resulting 
# from the CCDC's data processing and validation procedures.
#
#######################################################################

data_QAWBIB
_symmetry_cell_setting           monoclinic
_symmetry_space_group_name_H-M   'P 21/c'
_symmetry_Int_Tables_number      14
_space_group_name_Hall           '-P 2ybc'
loop_
_symmetry_equiv_pos_site_id
_symmetry_equiv_pos_as_xyz
1 x,y,z
2 -x,1/2+y,1/2-z
3 -x,-y,-z
4 x,1/2-y,1/2+z
_cell_length_a                   20.9098(12)
_cell_length_b                   10.9307(6)
_cell_length_c                   17.8599(10)
_cell_angle_alpha                90
_cell_angle_beta                 109.619(1)
_cell_angle_gamma                90
_cell_volume                     3845.06
loop_
_atom_site_label
_atom_site_type_symbol
_atom_site_fract_x
_atom_site_fract_y
_atom_site_fract_z
Ag1 Ag 0.22530(3) 0.80899(5) 0.24955(4)
Ag2 Ag -0.26273(3) 0.31968(6) -0.02633(4)
N1 N 0.1304(3) 0.7362(5) 0.2516(4)
N2 N -0.0520(3) 0.6014(6) 0.2675(4)
N3 N -0.1937(3) 0.4312(6) 0.0705(4)
N4 N 0.6489(3) 1.1748(6) 0.3649(4)
N5 N 0.4744(3) 1.0561(5) 0.1816(3)
N6 N 0.3089(3) 0.9070(5) 0.2341(4)
N7 N -0.1495(4) 0.1469(8) -0.0353(5)
N8 N 0.3309(4) 0.6591(7) 0.4089(5)
O1 O -0.1884(3) 0.1217(6) 0.0049(3)
O2 O -0.1605(3) 0.2423(7) -0.0770(4)
O3 O -0.1031(5) 0.0773(7) -0.0328(5)
O4 O 0.2900(3) 0.6216(6) 0.3441(4)
O5 O 0.3738(3) 0.5876(6) 0.4510(4)
O6 O 0.3287(4) 0.7686(6) 0.4282(4)
C1 C 0.0695(4) 0.6290(7) 0.3237(5)
H1 H 0.0709 0.5863 0.3706
C2 C 0.1282(4) 0.6743(7) 0.3155(5)
H2 H 0.1697 0.6610 0.3577
C3 C 0.0712(4) 0.7556(7) 0.1937(5)
H3 H 0.0713 0.8010 0.1484
C4 C 0.0101(4) 0.7129(7) 0.1966(5)
H4 H -0.0307 0.7286 0.1539
C5 C 0.0084(4) 0.6463(7) 0.2629(5)
C6 C -0.1000(4) 0.5473(7) 0.2018(5)
C7 C -0.1697(4) 0.5490(7) 0.1895(5)
H5 H -0.1865 0.5895 0.2261
C8 C -0.2132(4) 0.4917(8) 0.1242(5)
H6 H -0.2604 0.4951 0.1164
C9 C -0.1269(4) 0.4292(7) 0.0840(5)
H7 H -0.1113 0.3857 0.0474
C10 C -0.0791(4) 0.4855(7) 0.1466(5)
H8 H -0.0324 0.4820 0.1520
C11 C -0.0643(4) 0.6090(7) 0.3450(5)
H9 H -0.1016 0.5525 0.3436
H10 H -0.0230 0.5810 0.3878
C12 C -0.0814(8) 0.7304(13) 0.3642(9)
C13 C -0.0417(8) 0.7668(11) 0.4401(9)
H11 H -0.0133 0.7100 0.4765
C14 C -0.0448(8) 0.8898(11) 0.4616(8)
H12 H -0.0172 0.9187 0.5123
C15 C -0.0887(8) 0.9678(13) 0.4076(8)
H13 H -0.0915 1.0498 0.4237
C16 C -0.1292(9) 0.9342(11) 0.3308(8)
H14 H -0.1643 0.9836 0.2966
C17 C -0.1118(9) 0.8209(11) 0.3112(9)
H15 H -0.1216 0.8037 0.2563
C18 C 0.5280(4) 1.1655(6) 0.3069(4)
H16 H 0.4848 1.1871 0.3097
C19 C 0.5879(4) 1.2001(6) 0.3673(4)
H17 H 0.5844 1.2436 0.4118
C20 C 0.6522(4) 1.1161(7) 0.3030(5)
H18 H 0.6961 1.1004 0.3004
C21 C 0.5984(4) 1.0756(7) 0.2420(5)
H19 H 0.6054 1.0320 0.1994
C22 C 0.5332(4) 1.0975(6) 0.2413(4)
C23 C 0.4193(4) 1.0086(6) 0.1984(4)
C24 C 0.3553(4) 1.0070(6) 0.1432(4)
H20 H 0.3472 1.0391 0.0914
C25 C 0.3036(4) 0.9583(7) 0.1639(5)
H21 H 0.2595 0.9610 0.1250
C26 C 0.3713(4) 0.9053(6) 0.2864(4)
H22 H 0.3779 0.8684 0.3366
C27 C 0.4271(4) 0.9537(6) 0.2727(4)
H23 H 0.4706 0.9503 0.3128
C28 C 0.4706(4) 1.0776(6) 0.0991(4)
H24 H 0.5156 1.0608 0.0945
H25 H 0.4379 1.0190 0.0642
C29 C 0.4494(4) 1.2052(6) 0.0698(4)
C30 C 0.4089(4) 1.2773(7) 0.0984(5)
H26 H 0.3960 1.2491 0.1416
C31 C 0.3863(4) 1.3920(7) 0.0646(5)
H27 H 0.3564 1.4388 0.0831
C32 C 0.4070(5) 1.4365(8) 0.0057(5)
H28 H 0.3926 1.5151 -0.0162
C33 C 0.4489(5) 1.3671(8) -0.0221(6)
H29 H 0.4636 1.3976 -0.0635
C34 C 0.4697(5) 1.2535(8) 0.0098(5)
H30 H 0.4990 1.2067 -0.0099
Ag2C Ag 0.73727(3) 1.18032(6) 0.47367(4)
Ag2A Ag 0.26273(3) 0.81968(6) 0.52633(4)
N4C N -0.3511(3) 0.3252(6) -0.1351(4)
O6A O -0.3287(4) 0.2686(6) 0.0718(4)
C35 C 0.2848(10) 0.3337(15) 0.3764(11)
H31 H 0.3175 0.3770 0.4210
H32 H 0.2654 0.2648 0.3967
H33 H 0.2484 0.3899 0.3474
C36 C 0.3206(14) 0.2860(17) 0.3208(19)
N9 N 0.3401(17) 0.264(2) 0.2726(15)
O7 O -0.1659(9) 0.8161(15) 0.0370(13)
loop_
_geom_bond_atom_site_label_1
_geom_bond_atom_site_label_2
_geom_bond_site_symmetry_1
_geom_bond_site_symmetry_2
Ag1 N1 1_555 1_555
Ag2 N3 1_555 1_555
N1 C2 1_555 1_555
N2 C5 1_555 1_555
N3 C8 1_555 1_555
N4 C19 1_555 1_555
N5 C22 1_555 1_555
N6 Ag1 1_555 1_555
N7 O1 1_555 1_555
N8 O4 1_555 1_555
O1 Ag2 1_555 1_555
O2 N7 1_555 1_555
O3 N7 1_555 1_555
O4 Ag1 1_555 1_555
O5 N8 1_555 1_555
O6 N8 1_555 1_555
C1 H1 1_555 1_555
C2 C1 1_555 1_555
H2 C2 1_555 1_555
C3 N1 1_555 1_555
H3 C3 1_555 1_555
C4 C3 1_555 1_555
H4 C4 1_555 1_555
C5 C1 1_555 1_555
C6 N2 1_555 1_555
C7 C6 1_555 1_555
H5 C7 1_555 1_555
C8 C7 1_555 1_555
H6 C8 1_555 1_555
C9 N3 1_555 1_555
H7 C9 1_555 1_555
C10 C6 1_555 1_555
H8 C10 1_555 1_555
C11 N2 1_555 1_555
H9 C11 1_555 1_555
H10 C11 1_555 1_555
C12 C11 1_555 1_555
C13 C12 1_555 1_555
H11 C13 1_555 1_555
C14 C13 1_555 1_555
H12 C14 1_555 1_555
C15 C14 1_555 1_555
H13 C15 1_555 1_555
C16 C15 1_555 1_555
H14 C16 1_555 1_555
C17 C12 1_555 1_555
H15 C17 1_555 1_555
C18 H16 1_555 1_555
C19 C18 1_555 1_555
H17 C19 1_555 1_555
C20 N4 1_555 1_555
H18 C20 1_555 1_555
C21 C20 1_555 1_555
H19 C21 1_555 1_555
C22 C18 1_555 1_555
C23 N5 1_555 1_555
C24 C23 1_555 1_555
H20 C24 1_555 1_555
C25 N6 1_555 1_555
H21 C25 1_555 1_555
C26 N6 1_555 1_555
H22 C26 1_555 1_555
C27 C23 1_555 1_555
H23 C27 1_555 1_555
C28 N5 1_555 1_555
H24 C28 1_555 1_555
H25 C28 1_555 1_555
C29 C28 1_555 1_555
C30 C29 1_555 1_555
H26 C30 1_555 1_555
C31 C30 1_555 1_555
H27 C31 1_555 1_555
C32 C31 1_555 1_555
H28 C32 1_555 1_555
C33 C32 1_555 1_555
H29 C33 1_555 1_555
C34 C29 1_555 1_555
H30 C34 1_555 1_555
C35 H31 1_555 1_555
H32 C35 1_555 1_555
H33 C35 1_555 1_555
C36 C35 1_555 1_555
N9 C36 1_555 1_555
Ag2C N4 1_555 1_555
Ag2A O6 1_555 1_555
N4C Ag2 1_555 1_555
O6A Ag2 1_555 1_555
C4 C5 1_555 1_555
C9 C10 1_555 1_555
C16 C17 1_555 1_555
C21 C22 1_555 1_555
C24 C25 1_555 1_555
C26 C27 1_555 1_555
C33 C34 1_555 1_555

#END
