
#######################################################################
#
#                 Cambridge Crystallographic Data Centre
#                                CCDC 
#
#######################################################################
#
# If this CIF has been generated from an entry in the Cambridge 
# Structural Database, then it will include bibliographic, chemical, 
# crystal, experimental, refinement or atomic coordinate data resulting 
# from the CCDC's data processing and validation procedures.
#
#######################################################################

data_QAWBEX
_symmetry_cell_setting           monoclinic
_symmetry_space_group_name_H-M   'P 21/n'
_symmetry_Int_Tables_number      14
_space_group_name_Hall           '-P 2yn'
loop_
_symmetry_equiv_pos_site_id
_symmetry_equiv_pos_as_xyz
1 x,y,z
2 1/2-x,1/2+y,1/2-z
3 -x,-y,-z
4 1/2+x,1/2-y,1/2+z
_cell_length_a                   9.2060(1)
_cell_length_b                   18.5023(2)
_cell_length_c                   12.8501(2)
_cell_angle_alpha                90
_cell_angle_beta                 95.181(1)
_cell_angle_gamma                90
_cell_volume                     2179.84
loop_
_atom_site_label
_atom_site_type_symbol
_atom_site_fract_x
_atom_site_fract_y
_atom_site_fract_z
C1 C 0.5243(2) -0.86448(12) -0.07006(18)
C2 C 0.4671(2) -0.79836(11) -0.01927(17)
C3 C 0.3928(2) -0.74423(11) -0.07708(18)
H1 H 0.3736 -0.7493 -0.1490
C4 C 0.3469(2) -0.68254(11) -0.02784(17)
C5 C 0.3731(2) -0.67475(12) 0.08008(17)
C6 C 0.4444(3) -0.72981(12) 0.13704(19)
H2 H 0.4597 -0.7260 0.2094
C7 C 0.4930(3) -0.79033(13) 0.08748(19)
H3 H 0.5438 -0.8260 0.1266
C8 C 0.3346(2) -0.60829(12) 0.14015(17)
C9 C -0.0888(3) -0.02981(15) -0.1718(2)
H4 H -0.0691 -0.0060 -0.2327
C10 C 0.0114(3) -0.07863(15) -0.1288(2)
H5 H 0.0962 -0.0872 -0.1610
C11 C -0.0120(3) -0.11479(13) -0.0394(2)
C12 C -0.1371(3) -0.09657(15) 0.0075(2)
H6 H -0.1553 -0.1173 0.0710
C13 C -0.2338(3) -0.04779(14) -0.0402(2)
H7 H -0.3179 -0.0371 -0.0083
C14 C 0.0897(3) -0.17376(14) 0.0023(2)
H8 H 0.1117 -0.1675 0.0770
H9 H 0.1804 -0.1705 -0.0303
C15 C 0.0223(3) -0.24710(15) -0.0190(3)
H10 H -0.0305 -0.2469 -0.0878
H11 H -0.0472 -0.2566 0.0317
C16 C 0.1341(3) -0.30720(14) -0.0139(3)
C17 C 0.1612(3) -0.34582(15) -0.1017(3)
H12 H 0.1094 -0.3355 -0.1654
C18 C 0.2644(3) -0.39959(14) -0.0953(2)
H13 H 0.2803 -0.4251 -0.1556
C19 C 0.3169(3) -0.37921(14) 0.0781(2)
H14 H 0.3706 -0.3903 0.1408
C20 C 0.2152(3) -0.32488(16) 0.0775(3)
H15 H 0.2013 -0.3001 0.1388
N1 N -0.2131(2) -0.01485(10) -0.13064(15)
N2 N 0.3424(2) -0.41683(10) -0.00684(16)
O1 O 0.37175(17) -0.55891(8) -0.12100(12)
O2 O 0.2047(2) -0.64509(9) -0.20456(13)
O3 O 0.14293(17) -0.58429(9) -0.04799(14)
O4 O 0.51808(19) -0.86633(9) -0.16850(13)
O5 O 0.57786(19) -0.91440(9) -0.01433(13)
O6 O 0.38239(18) -0.54817(8) 0.11401(13)
O7 O 0.26144(19) -0.61844(9) 0.21594(13)
O8 O -0.5506(2) -0.02531(10) -0.17635(14)
O9 O -0.4258(2) 0.00646(11) -0.35869(14)
S1 S 0.25872(6) -0.61275(3) -0.10637(4)
Zn1 Zn 0.5000 -0.5000 0.0000
Zn2 Zn -0.37351(3) 0.046400(13) -0.21087(2)
H16 H -0.589(4) -0.0593(15) -0.2212(19)
H17 H -0.556(4) -0.0419(16) -0.1076(14)
H18 H -0.383(3) 0.0268(17) -0.414(2)
H19 H -0.493(3) -0.0275(15) -0.383(2)
C1B C 0.4757(2) -0.13552(12) 0.07006(18)
C2B C 0.5329(2) -0.20164(11) 0.01927(17)
C3B C 0.6072(2) -0.25577(11) 0.07708(18)
H1B H 0.6264 -0.2507 0.1490
C4B C 0.6531(2) -0.31746(11) 0.02784(17)
C5B C 0.6269(2) -0.32525(12) -0.08008(17)
C6B C 0.5556(3) -0.27019(12) -0.13704(19)
H2B H 0.5403 -0.2740 -0.2094
C7B C 0.5070(3) -0.20967(13) -0.08748(19)
H3B H 0.4562 -0.1740 -0.1266
C8B C 0.6654(2) -0.39171(12) -0.14015(17)
C9B C 1.0888(3) -0.97019(15) 0.1718(2)
H4B H 1.0691 -0.9940 0.2327
C10B C 0.9886(3) -0.92137(15) 0.1288(2)
H5B H 0.9038 -0.9128 0.1610
C11B C 1.0120(3) -0.88521(13) 0.0394(2)
C12B C 1.1371(3) -0.90343(15) -0.0075(2)
H6B H 1.1553 -0.8827 -0.0710
C13B C 1.2338(3) -0.95221(14) 0.0402(2)
H7B H 1.3179 -0.9629 0.0083
C14B C 0.9103(3) -0.82624(14) -0.0023(2)
H8B H 0.8883 -0.8325 -0.0770
H9B H 0.8196 -0.8295 0.0303
C15B C 0.9777(3) -0.75290(15) 0.0190(3)
H10B H 1.0305 -0.7531 0.0878
H11B H 1.0472 -0.7434 -0.0317
C16B C 0.8659(3) -0.69280(14) 0.0139(3)
C17B C 0.8388(3) -0.65418(15) 0.1017(3)
H12B H 0.8906 -0.6645 0.1654
C18B C 0.7356(3) -0.60041(14) 0.0953(2)
H13B H 0.7197 -0.5749 0.1556
C19B C 0.6831(3) -0.62079(14) -0.0781(2)
H14B H 0.6294 -0.6097 -0.1408
C20B C 0.7848(3) -0.67512(16) -0.0775(3)
H15B H 0.7987 -0.6999 -0.1388
N1B N 1.2131(2) -0.98515(10) 0.13064(15)
N2B N 0.6576(2) -0.58317(10) 0.00684(16)
O1B O 0.62825(17) -0.44109(8) 0.12100(12)
O2B O 0.7953(2) -0.35491(9) 0.20456(13)
O3B O 0.85707(17) -0.41571(9) 0.04799(14)
O4B O 0.48192(19) -0.13367(9) 0.16850(13)
O4_2 O -0.48192(19) 0.13367(9) -0.16850(13)
O4B_2 O 1.48192(19) -1.13367(9) 0.16850(13)
O5B O 0.42214(19) -0.08560(9) 0.01433(13)
O6B O 0.61761(18) -0.45183(8) -0.11401(13)
O7B O 0.73856(19) -0.38156(9) -0.21594(13)
O7C O -0.23856(19) 0.11844(9) -0.28406(13)
O7A O 1.23856(19) -1.11844(9) 0.28406(13)
O8B O 1.5506(2) -0.97469(10) 0.17635(14)
O9B O 1.4258(2) -1.00646(11) 0.35869(14)
S1B S 0.74128(6) -0.38725(3) 0.10637(4)
Zn2B Zn 0.37351(3) -0.046400(13) 0.21087(2)
Zn2_2 Zn 0.62649(3) -0.953600(13) -0.21087(2)
Zn2C Zn 0.12649(3) -0.546400(13) 0.28913(2)
Zn2B_2 Zn 1.37351(3) -1.046400(13) 0.21087(2)
Zn2A Zn 0.87351(3) -0.453600(13) -0.28913(2)
H16B H 1.589(4) -0.9407(15) 0.2212(19)
H17B H 1.556(4) -0.9581(16) 0.1076(14)
H18B H 1.383(3) -1.0268(17) 0.414(2)
H19B H 1.493(3) -0.9725(15) 0.383(2)
loop_
_geom_bond_atom_site_label_1
_geom_bond_atom_site_label_2
_geom_bond_site_symmetry_1
_geom_bond_site_symmetry_2
C1 C2 1_555 1_555
C2 C3 1_555 1_555
C3 H1 1_555 1_555
C4 C3 1_555 1_555
C5 C4 1_555 1_555
C6 C5 1_555 1_555
H2 C6 1_555 1_555
C7 C2 1_555 1_555
H3 C7 1_555 1_555
C8 C5 1_555 1_555
C9 H4 1_555 1_555
C10 C9 1_555 1_555
H5 C10 1_555 1_555
C11 C10 1_555 1_555
C12 C11 1_555 1_555
H6 C12 1_555 1_555
C13 C12 1_555 1_555
H7 C13 1_555 1_555
C14 C11 1_555 1_555
H8 C14 1_555 1_555
H9 C14 1_555 1_555
C15 C14 1_555 1_555
H10 C15 1_555 1_555
H11 C15 1_555 1_555
C16 C15 1_555 1_555
C17 C16 1_555 1_555
H12 C17 1_555 1_555
C18 C17 1_555 1_555
H13 C18 1_555 1_555
C19 H14 1_555 1_555
C20 C16 1_555 1_555
H15 C20 1_555 1_555
N1 C9 1_555 1_555
N2 C18 1_555 1_555
O1 S1 1_555 1_555
O2 S1 1_555 1_555
O3 S1 1_555 1_555
O4 C1 1_555 1_555
O5 C1 1_555 1_555
O6 C8 1_555 1_555
O7 C8 1_555 1_555
O8 Zn2 1_555 1_555
O9 Zn2 1_555 1_555
S1 C4 1_555 1_555
Zn1 N2 1_555 1_555
Zn2 N1 1_555 1_555
H16 O8 1_555 1_555
H17 O8 1_555 1_555
H18 O9 1_555 1_555
H19 O9 1_555 1_555
C1B C2B 1_555 1_555
C2B C3B 1_555 1_555
C3B H1B 1_555 1_555
C4B C3B 1_555 1_555
C5B C4B 1_555 1_555
C6B C5B 1_555 1_555
H2B C6B 1_555 1_555
C7B C2B 1_555 1_555
H3B C7B 1_555 1_555
C8B C5B 1_555 1_555
C9B H4B 1_555 1_555
C10B C9B 1_555 1_555
H5B C10B 1_555 1_555
C11B C10B 1_555 1_555
C12B C11B 1_555 1_555
H6B C12B 1_555 1_555
C13B C12B 1_555 1_555
H7B C13B 1_555 1_555
C14B C11B 1_555 1_555
H8B C14B 1_555 1_555
H9B C14B 1_555 1_555
C15B C14B 1_555 1_555
H10B C15B 1_555 1_555
H11B C15B 1_555 1_555
C16B C15B 1_555 1_555
C17B C16B 1_555 1_555
H12B C17B 1_555 1_555
C18B C17B 1_555 1_555
H13B C18B 1_555 1_555
C19B H14B 1_555 1_555
C20B C16B 1_555 1_555
H15B C20B 1_555 1_555
N1B C9B 1_555 1_555
N2B Zn1 1_555 1_555
O1B Zn1 1_555 1_555
O2B S1B 1_555 1_555
O3B S1B 1_555 1_555
O4B C1B 1_555 1_555
O4_2 Zn2 1_555 1_555
O4B_2 Zn2B_2 1_555 1_555
O5B C1B 1_555 1_555
O6B Zn1 1_555 1_555
O7B C8B 1_555 1_555
O7C Zn2 1_555 1_555
O7A Zn2B_2 1_555 1_555
O8B Zn2B_2 1_555 1_555
O9B Zn2B_2 1_555 1_555
S1B C4B 1_555 1_555
Zn2B O4B 1_555 1_555
Zn2_2 O4 1_555 1_555
Zn2C O7 1_555 1_555
Zn2B_2 N1B 1_555 1_555
Zn2A O7B 1_555 1_555
H16B O8B 1_555 1_555
H17B O8B 1_555 1_555
H18B O9B 1_555 1_555
H19B O9B 1_555 1_555
C6 C7 1_555 1_555
C13 N1 1_555 1_555
C19 C20 1_555 1_555
C19 N2 1_555 1_555
O1 Zn1 1_555 1_555
O6 Zn1 1_555 1_555
C6B C7B 1_555 1_555
C8B O6B 1_555 1_555
C13B N1B 1_555 1_555
C18B N2B 1_555 1_555
C19B C20B 1_555 1_555
C19B N2B 1_555 1_555
O1B S1B 1_555 1_555

#END
