
#######################################################################
#
#                 Cambridge Crystallographic Data Centre
#                                CCDC 
#
#######################################################################
#
# If this CIF has been generated from an entry in the Cambridge 
# Structural Database, then it will include bibliographic, chemical, 
# crystal, experimental, refinement or atomic coordinate data resulting 
# from the CCDC's data processing and validation procedures.
#
#######################################################################

data_QAWCEY
_symmetry_cell_setting           monoclinic
_symmetry_space_group_name_H-M   'C 2/c'
_symmetry_Int_Tables_number      15
_space_group_name_Hall           '-C 2yn'
loop_
_symmetry_equiv_pos_site_id
_symmetry_equiv_pos_as_xyz
1 x,y,z
2 -x,y,1/2-z
3 1/2+x,1/2+y,z
4 1/2-x,1/2+y,1/2-z
5 -x,-y,-z
6 x,-y,1/2+z
7 1/2-x,1/2-y,-z
8 1/2+x,1/2-y,1/2+z
_cell_length_a                   16.180(3)
_cell_length_b                   11.7382(16)
_cell_length_c                   26.745(4)
_cell_angle_alpha                90
_cell_angle_beta                 101.836(10)
_cell_angle_gamma                90
_cell_volume                     4971.52
loop_
_atom_site_label
_atom_site_type_symbol
_atom_site_fract_x
_atom_site_fract_y
_atom_site_fract_z
Cd1 Cd 0.11807(2) 0.32691(3) 0.294835(13)
O1 O 0.2659(3) 0.3202(4) 0.33059(14)
O2 O 0.1786(3) 0.3374(4) 0.38276(15)
O3 O 0.6539(2) 0.1858(4) 0.71674(14)
O4 O 0.5167(3) 0.1663(4) 0.69080(18)
N1 N 0.1102(3) 0.1273(4) 0.29265(18)
N2 N 0.1107(3) -0.4760(4) 0.29191(16)
C1 C 0.4602(3) 0.3220(6) 0.5040(2)
C2 C 0.3774(4) 0.3286(6) 0.5111(2)
H1 H 0.3670 0.3293 0.5440
C3 C 0.3097(4) 0.3344(6) 0.4690(2)
H2 H 0.2549 0.3423 0.4741
C4 C 0.3245(3) 0.3282(5) 0.41981(19)
C5 C 0.4062(4) 0.3224(7) 0.4131(2)
H3 H 0.4167 0.3211 0.3802
C6 C 0.4743(4) 0.3184(7) 0.4551(2)
H4 H 0.5292 0.3134 0.4498
C7 C 0.5326(4) 0.3171(5) 0.5486(2)
C8 C 0.5261(4) 0.2579(5) 0.59318(19)
H5 H 0.4759 0.2215 0.5954
C9 C 0.5948(3) 0.2537(5) 0.6342(2)
C10 C 0.6695(4) 0.3095(6) 0.6314(2)
H6 H 0.7149 0.3067 0.6590
C11 C 0.6770(4) 0.3688(6) 0.5880(2)
H7 H 0.7271 0.4058 0.5862
C12 C 0.6079(4) 0.3724(6) 0.5469(2)
H8 H 0.6125 0.4127 0.5176
C13 C 0.2516(4) 0.3282(5) 0.3750(2)
C14 C 0.5870(4) 0.1971(4) 0.68369(19)
C15 C 0.1110(3) -0.1097(5) 0.2926(2)
C16 C 0.0620(5) -0.0485(5) 0.3197(3)
H9 H 0.0283 -0.0861 0.3388
C17 C 0.0632(5) 0.0669(5) 0.3183(3)
H10 H 0.0291 0.1063 0.3365
C18 C 0.1575(4) 0.0675(5) 0.2669(3)
H11 H 0.1914 0.1077 0.2489
C19 C 0.1597(4) -0.0487(5) 0.2652(2)
H12 H 0.1933 -0.0859 0.2459
C20 C 0.1106(3) -0.2361(4) 0.2921(2)
C21 C 0.0987(4) -0.2991(5) 0.3345(2)
H13 H 0.0908 -0.2617 0.3638
C22 C 0.0988(4) -0.4169(5) 0.3327(2)
H14 H 0.0901 -0.4569 0.3612
C23 C 0.1222(4) -0.4160(5) 0.2517(2)
H15 H 0.1300 -0.4558 0.2229
C24 C 0.1232(4) -0.2983(5) 0.2499(2)
H16 H 0.1322 -0.2610 0.2208
Cd1G Cd 0.61807(2) 0.17309(3) 0.794835(13)
Cd1F Cd 0.38193(2) 0.17309(3) 0.705165(13)
Cd1_2 Cd 0.11807(2) -0.67309(3) 0.294835(13)
O3G O 0.1539(2) 0.3142(4) 0.21674(14)
O4F O -0.0167(3) 0.3337(4) 0.30920(18)
N2_2 N 0.1107(3) 0.5240(4) 0.29191(16)
O5 O 0.1876(7) -0.1424(10) 0.4373(4)
N3 N 0.3103(7) -0.0446(8) 0.4521(5)
C25 C 0.2503(11) -0.102(2) 0.4481(12)
H17 H 0.2724 -0.1526 0.4742
C26 C 0.311(2) 0.0114(14) 0.4099(9)
H18 H 0.2609 -0.0076 0.3849
H19 H 0.3599 -0.0089 0.3971
H20 H 0.3112 0.0917 0.4166
C27 C 0.3794(11) -0.037(2) 0.4958(10)
H21 H 0.3701 -0.0890 0.5217
H22 H 0.3828 0.0394 0.5091
H23 H 0.4313 -0.0558 0.4856
loop_
_geom_bond_atom_site_label_1
_geom_bond_atom_site_label_2
_geom_bond_site_symmetry_1
_geom_bond_site_symmetry_2
Cd1 O1 1_555 1_555
O1 C13 1_555 1_555
O2 Cd1 1_555 1_555
O3 C14 1_555 1_555
O4 C14 1_555 1_555
O5 C25 1_555 1_555
N1 Cd1 1_555 1_555
N2 C22 1_555 1_555
N3 C25 1_555 1_555
C1 C2 1_555 1_555
C2 H1 1_555 1_555
C3 C2 1_555 1_555
H2 C3 1_555 1_555
C4 C3 1_555 1_555
C5 C4 1_555 1_555
H3 C5 1_555 1_555
C6 C1 1_555 1_555
H4 C6 1_555 1_555
C7 C1 1_555 1_555
C8 C7 1_555 1_555
H5 C8 1_555 1_555
C9 C8 1_555 1_555
C10 C9 1_555 1_555
H6 C10 1_555 1_555
C11 C10 1_555 1_555
H7 C11 1_555 1_555
C12 C7 1_555 1_555
H8 C12 1_555 1_555
C13 O2 1_555 1_555
C14 C9 1_555 1_555
C15 C16 1_555 1_555
C16 H9 1_555 1_555
C17 N1 1_555 1_555
H10 C17 1_555 1_555
C18 N1 1_555 1_555
H11 C18 1_555 1_555
C19 C15 1_555 1_555
H12 C19 1_555 1_555
C20 C15 1_555 1_555
C21 C20 1_555 1_555
H13 C21 1_555 1_555
C22 C21 1_555 1_555
H14 C22 1_555 1_555
C23 N2 1_555 1_555
H15 C23 1_555 1_555
C24 C20 1_555 1_555
H16 C24 1_555 1_555
C25 H17 1_555 1_555
C26 N3 1_555 1_555
H18 C26 1_555 1_555
H19 C26 1_555 1_555
H20 C26 1_555 1_555
C27 N3 1_555 1_555
H21 C27 1_555 1_555
H22 C27 1_555 1_555
H23 C27 1_555 1_555
Cd1G O3 1_555 1_555
Cd1F O4 1_555 1_555
Cd1_2 N2 1_555 1_555
O3G Cd1 1_555 1_555
O4F Cd1 1_555 1_555
N2_2 Cd1 1_555 1_555
C4 C13 1_555 1_555
C5 C6 1_555 1_555
C11 C12 1_555 1_555
C16 C17 1_555 1_555
C18 C19 1_555 1_555
C23 C24 1_555 1_555

#END
