
#######################################################################
#
#                 Cambridge Crystallographic Data Centre
#                                CCDC 
#
#######################################################################
#
# If this CIF has been generated from an entry in the Cambridge 
# Structural Database, then it will include bibliographic, chemical, 
# crystal, experimental, refinement or atomic coordinate data resulting 
# from the CCDC's data processing and validation procedures.
#
#######################################################################

data_QAWGUS
_symmetry_cell_setting           monoclinic
_symmetry_space_group_name_H-M   'P 21/n'
_symmetry_Int_Tables_number      14
_space_group_name_Hall           '-P 2yn'
loop_
_symmetry_equiv_pos_site_id
_symmetry_equiv_pos_as_xyz
1 x,y,z
2 1/2-x,1/2+y,1/2-z
3 -x,-y,-z
4 1/2+x,1/2-y,1/2+z
_cell_length_a                   15.543(4)
_cell_length_b                   17.497(4)
_cell_length_c                   19.260(5)
_cell_angle_alpha                90
_cell_angle_beta                 110.069(4)
_cell_angle_gamma                90
_cell_volume                     4919.83
loop_
_atom_site_label
_atom_site_type_symbol
_atom_site_fract_x
_atom_site_fract_y
_atom_site_fract_z
Er1 Er 0.48158(2) 0.834688(19) 0.19662(2)
Cu1 Cu 0.19147(7) 1.03737(6) 0.25643(6)
Cu2 Cu 0.78930(7) 0.63396(6) 0.22584(6)
Cu3 Cu 0.07666(6) 0.85619(6) 0.30407(6)
Cu4 Cu -0.06705(7) 0.81566(6) 0.18843(6)
C1 C 0.1642(6) 1.0977(5) 0.1117(5)
H1 H 0.1106 1.1283 0.1075
H2 H 0.1665 1.0905 0.0624
C2 C 0.2488(7) 1.1398(5) 0.1583(5)
H3 H 0.3025 1.1108 0.1595
H4 H 0.2513 1.1889 0.1358
C3 C 0.0616(5) 0.9915(5) 0.1131(5)
H5 H 0.0520 0.9709 0.0643
H6 H 0.0186 1.0331 0.1079
C4 C 0.0431(6) 0.9299(5) 0.1611(5)
C5 C 0.2223(6) 0.9651(5) 0.1342(5)
H7 H 0.2479 0.9852 0.0986
H8 H 0.1898 0.9183 0.1140
C6 C 0.2995(5) 0.9464(5) 0.2049(5)
C7 C 0.1827(7) 1.2086(5) 0.2399(7)
H9 H 0.1637 1.2389 0.1951
H10 H 0.2116 1.2428 0.2809
C8 C 0.0986(7) 1.1745(5) 0.2500(6)
C9 C 0.3411(7) 1.1632(5) 0.2880(5)
H11 H 0.3762 1.1171 0.2888
H12 H 0.3356 1.1683 0.3365
C10 C 0.3963(6) 1.2306(5) 0.2767(5)
C11 C 0.8021(6) 0.5944(5) 0.3735(5)
H13 H 0.7971 0.6099 0.4203
H14 H 0.8530 0.5590 0.3838
C12 C 0.7144(6) 0.5547(5) 0.3271(5)
H15 H 0.7042 0.5104 0.3535
H16 H 0.6631 0.5893 0.3190
C13 C 0.9181(6) 0.6858(5) 0.3686(5)
H17 H 0.9563 0.6406 0.3760
H18 H 0.9275 0.7084 0.4167
C14 C 0.9473(5) 0.7431(4) 0.3208(5)
C15 C 0.7596(6) 0.7284(5) 0.3361(5)
H19 H 0.7966 0.7739 0.3526
H20 H 0.7299 0.7173 0.3718
C16 C 0.6875(6) 0.7441(5) 0.2622(5)
C17 C 0.7860(6) 0.4676(5) 0.2620(5)
H21 H 0.7610 0.4325 0.2210
H22 H 0.7936 0.4395 0.3072
C18 C 0.8793(6) 0.4943(5) 0.2633(6)
C19 C 0.6286(6) 0.5127(5) 0.2023(5)
H23 H 0.6350 0.5036 0.1546
H24 H 0.5905 0.5577 0.1972
C20 C 0.5777(6) 0.4452(5) 0.2194(5)
N1 N 0.1558(4) 1.0215(4) 0.1443(4)
N2 N 0.2512(5) 1.1521(4) 0.2355(5)
N3 N 0.8204(4) 0.6633(4) 0.3341(4)
N4 N 0.7190(5) 0.5304(4) 0.2550(4)
O1 O 0.0965(4) 0.9242(3) 0.2275(3)
O2 O -0.0248(4) 0.8883(4) 0.1312(4)
O3 O 0.2977(4) 0.9736(4) 0.2645(4)
O4 O 0.3590(5) 0.9023(4) 0.1995(4)
O5 O 0.0883(5) 1.1029(3) 0.2501(4)
O6 O 0.0399(5) 1.2203(4) 0.2579(5)
O7 O 0.3564(4) 1.2760(4) 0.2243(4)
O8 O 0.4782(5) 1.2361(4) 0.3204(4)
O9 O 0.2241(6) 1.0346(5) 0.3656(4)
H25 H 0.1907 1.0654 0.3794
H26 H 0.2799 1.0468 0.3869
O10 O 0.7661(5) 0.6255(5) 0.1183(4)
H27 H 0.7088 0.6254 0.0946
H28 H 0.7885 0.5841 0.1090
O11 O 0.8982(4) 0.7457(3) 0.2534(3)
O12 O 1.0182(4) 0.7800(4) 0.3523(4)
O13 O 0.6886(4) 0.7065(3) 0.2070(3)
O14 O 0.6304(4) 0.7955(4) 0.2608(4)
O15 O 0.8910(4) 0.5626(3) 0.2472(4)
O16 O 0.9421(5) 0.4462(4) 0.2796(4)
O17 O 0.6193(4) 0.4025(4) 0.2726(4)
O18 O 0.4967(4) 0.4363(4) 0.1757(4)
O19 O 0.1930(5) 0.8819(5) 0.4012(4)
H29 H 0.2117 0.9276 0.4012
H30 H 0.2369 0.8508 0.4070
O20 O -0.1754(5) 0.7767(4) 0.0926(4)
H31 H -0.1569 0.7754 0.0559
H32 H -0.2203 0.8075 0.0825
O21 O 0.3483(5) 0.7739(5) 0.1081(5)
H33 H 0.3642 0.7341 0.0904
H34 H 0.3222 0.8044 0.0728
O22 O 0.5097(6) 0.8542(5) 0.3246(4)
H35 H 0.5413 0.8950 0.3354
H36 H 0.5455 0.8182 0.3465
O23 O 0.4407(6) 0.9059(4) 0.0815(4)
H37 H 0.4128 0.8770 0.0453
H38 H 0.4888 0.9229 0.0753
O24 O 0.5320(5) 0.7656(5) 0.1125(4)
H39 H 0.5858 0.7486 0.1340
H40 H 0.5325 0.7943 0.0770
Er1A Er 0.01842(2) 1.334688(19) 0.30338(2)
Er1A_2 Er 1.01842(2) 0.334688(19) 0.30338(2)
Cu3A Cu 0.42334(6) 1.35619(6) 0.19593(6)
Cu3_2 Cu 1.07666(6) 0.85619(6) 0.30407(6)
Cu3A_2 Cu 0.42334(6) 0.35619(6) 0.19593(6)
Cu4A Cu 0.56705(7) 1.31566(6) 0.31157(6)
Cu4_2 Cu 0.93295(7) 0.81566(6) 0.18843(6)
Cu4A_2 Cu 0.56705(7) 0.31566(6) 0.31157(6)
O6A O 0.4601(5) 0.7203(4) 0.2421(5)
O7A O 0.1436(4) 0.7760(4) 0.2757(4)
O8A O 0.0218(5) 0.7361(4) 0.1796(4)
O11_2 O -0.1018(4) 0.7457(3) 0.2534(3)
O12_2 O 0.0182(4) 0.7800(4) 0.3523(4)
O16A O 0.5579(5) 0.9462(4) 0.2204(4)
O17A O -0.1193(4) 0.9025(4) 0.2274(4)
O18A O 0.0033(4) 0.9363(4) 0.3243(4)
O25 O 0.3940(8) 0.3596(10) -0.0069(7)
H41 H 0.3843 0.3673 0.0333
H42 H 0.4510 0.3520 0.0031
O26 O 0.123(2) 0.3669(18) 0.0964(18)
H43 H 0.0967 0.3261 0.1024
H44 H 0.1314 0.3952 0.1340
O27 O 0.116(2) 0.5676(18) 0.0312(16)
H45 H 0.1110 0.6153 0.0225
H46 H 0.0716 0.5535 0.0445
O28 O 0.539(2) 0.139(2) 0.445(2)
H47 H 0.5740 0.1613 0.4835
H48 H 0.5237 0.1707 0.4091
O29 O 0.882(2) 0.5119(17) 0.0930(16)
H49 H 0.9240 0.5379 0.0855
H50 H 0.8493 0.4952 0.0507
Cl1 Cl 0.86081(17) 0.40610(15) 0.50601(13)
O30 O 0.8982(7) 0.4356(6) 0.5807(5)
O31 O 0.7655(6) 0.4264(8) 0.4756(7)
O32 O 0.8707(10) 0.3240(5) 0.5090(8)
O33 O 0.9083(9) 0.4378(8) 0.4616(7)
Cl2 Cl -0.1121(2) 0.2004(2) 0.0158(2)
O34 O -0.1951(10) 0.1566(9) 0.0113(10)
O35 O -0.1256(14) 0.2136(11) -0.0626(7)
O36 O -0.1208(16) 0.2721(9) 0.0486(12)
O37 O -0.0318(14) 0.1609(17) 0.0529(18)
Cl3 Cl 0.6358(3) 0.3983(3) 0.0090(2)
O38 O 0.7338(14) 0.369(2) 0.0426(19)
O39 O 0.6046(19) 0.3797(14) -0.0668(8)
O40 O 0.655(2) 0.4832(9) 0.0137(14)
O41 O 0.5903(19) 0.3776(16) 0.0560(13)
Cl4? Cl 0.86081(17) 0.40610(15) 0.50601(13)
Cl5? Cl -0.1121(2) 0.2004(2) 0.0158(2)
Cl6? Cl 0.6358(3) 0.3983(3) 0.0090(2)
O42? O 0.861(3) 0.3426(18) 0.551(2)
O43? O 0.804(2) 0.4687(18) 0.515(2)
O44? O 0.821(3) 0.383(2) 0.4265(12)
O45? O 0.9520(15) 0.435(2) 0.514(2)
O46? O -0.1951(10) 0.1566(9) 0.0113(10)
O47? O -0.136(2) 0.2691(16) -0.026(2)
O48? O -0.0625(19) 0.216(2) 0.0934(10)
O49? O -0.0558(18) 0.1512(18) -0.012(2)
O50? O 0.5877(14) 0.3249(10) 0.0218(12)
O51? O 0.7075(14) 0.4119(15) 0.0759(10)
O52? O 0.5645(14) 0.4546(11) -0.0106(13)
O53? O 0.6651(14) 0.3754(11) -0.0504(9)
loop_
_geom_bond_atom_site_label_1
_geom_bond_atom_site_label_2
_geom_bond_site_symmetry_1
_geom_bond_site_symmetry_2
Er1 O4 1_555 1_555
Cu1 N1 1_555 1_555
Cu2 N3 1_555 1_555
Cu3 Cu4 1_555 1_555
Cu4 O2 1_555 1_555
C1 H1 1_555 1_555
H2 C1 1_555 1_555
C2 C1 1_555 1_555
H3 C2 1_555 1_555
H4 C2 1_555 1_555
C3 H5 1_555 1_555
H6 C3 1_555 1_555
C4 C3 1_555 1_555
C5 H7 1_555 1_555
H8 C5 1_555 1_555
C6 C5 1_555 1_555
C7 H9 1_555 1_555
H10 C7 1_555 1_555
C8 C7 1_555 1_555
C9 H11 1_555 1_555
H12 C9 1_555 1_555
C10 C9 1_555 1_555
C11 H13 1_555 1_555
H14 C11 1_555 1_555
C12 C11 1_555 1_555
H15 C12 1_555 1_555
H16 C12 1_555 1_555
C13 H17 1_555 1_555
H18 C13 1_555 1_555
C14 C13 1_555 1_555
C15 H19 1_555 1_555
H20 C15 1_555 1_555
C16 C15 1_555 1_555
C17 H21 1_555 1_555
H22 C17 1_555 1_555
C18 C17 1_555 1_555
C19 H23 1_555 1_555
H24 C19 1_555 1_555
C20 C19 1_555 1_555
N1 C1 1_555 1_555
N2 Cu1 1_555 1_555
N3 C11 1_555 1_555
N4 Cu2 1_555 1_555
O1 Cu1 1_555 1_555
O2 C4 1_555 1_555
O3 Cu1 1_555 1_555
O4 C6 1_555 1_555
O5 Cu1 1_555 1_555
O6 C8 1_555 1_555
O7 C10 1_555 1_555
O8 C10 1_555 1_555
O9 Cu1 1_555 1_555
H25 O9 1_555 1_555
H26 O9 1_555 1_555
O10 Cu2 1_555 1_555
H27 O10 1_555 1_555
H28 O10 1_555 1_555
O11 Cu2 1_555 1_555
O12 C14 1_555 1_555
O13 Cu2 1_555 1_555
O14 Er1 1_555 1_555
O15 Cu2 1_555 1_555
O16 C18 1_555 1_555
O17 C20 1_555 1_555
O18 C20 1_555 1_555
O19 Cu3 1_555 1_555
H29 O19 1_555 1_555
H30 O19 1_555 1_555
O20 Cu4 1_555 1_555
H31 O20 1_555 1_555
H32 O20 1_555 1_555
O21 Er1 1_555 1_555
H33 O21 1_555 1_555
H34 O21 1_555 1_555
O22 Er1 1_555 1_555
H35 O22 1_555 1_555
H36 O22 1_555 1_555
O23 Er1 1_555 1_555
H37 O23 1_555 1_555
H38 O23 1_555 1_555
O24 Er1 1_555 1_555
H39 O24 1_555 1_555
H40 O24 1_555 1_555
O25 H41 1_555 1_555
H42 O25 1_555 1_555
O26 H43 1_555 1_555
H44 O26 1_555 1_555
O27 H45 1_555 1_555
H46 O27 1_555 1_555
O28 H47 1_555 1_555
H48 O28 1_555 1_555
O29 H49 1_555 1_555
H50 O29 1_555 1_555
Cl1 O30 1_555 1_555
O31 Cl1 1_555 1_555
O32 Cl1 1_555 1_555
O33 Cl1 1_555 1_555
Cl2 O34 1_555 1_555
O35 Cl2 1_555 1_555
O36 Cl2 1_555 1_555
O37 Cl2 1_555 1_555
Cl3 O38 1_555 1_555
O39 Cl3 1_555 1_555
O40 Cl3 1_555 1_555
O41 Cl3 1_555 1_555
Er1A O6 1_555 1_555
Er1A_2 O16 1_555 1_555
Cu3A O7 1_555 1_555
Cu3_2 O12 1_555 1_555
Cu3A_2 O18 1_555 1_555
Cu4A O8 1_555 1_555
Cu4_2 O11 1_555 1_555
Cu4A_2 O17 1_555 1_555
O6A Er1 1_555 1_555
O7A Cu3 1_555 1_555
O8A Cu4 1_555 1_555
O11_2 Cu4 1_555 1_555
O12_2 Cu3 1_555 1_555
O16A Er1 1_555 1_555
O17A Cu4 1_555 1_555
O18A Cu3 1_555 1_555
Cu3 O1 1_555 1_555
C2 N2 1_555 1_555
C3 N1 1_555 1_555
C4 O1 1_555 1_555
C5 N1 1_555 1_555
C6 O3 1_555 1_555
C7 N2 1_555 1_555
C8 O5 1_555 1_555
C9 N2 1_555 1_555
C12 N4 1_555 1_555
C13 N3 1_555 1_555
C14 O11 1_555 1_555
C15 N3 1_555 1_555
C16 O13 1_555 1_555
C16 O14 1_555 1_555
C17 N4 1_555 1_555
C18 O15 1_555 1_555
C19 N4 1_555 1_555
Cu3A Cu4A 1_555 1_555
Cu3_2 Cu4_2 1_555 1_555
Cu3A_2 Cu4A_2 1_555 1_555

#END
