
#######################################################################
#
#                 Cambridge Crystallographic Data Centre
#                                CCDC 
#
#######################################################################
#
# If this CIF has been generated from an entry in the Cambridge 
# Structural Database, then it will include bibliographic, chemical, 
# crystal, experimental, refinement or atomic coordinate data resulting 
# from the CCDC's data processing and validation procedures.
#
#######################################################################

data_QAWJOP01
_symmetry_cell_setting           triclinic
_symmetry_space_group_name_H-M   'P -1'
_symmetry_Int_Tables_number      2
_space_group_name_Hall           '-P 1'
loop_
_symmetry_equiv_pos_site_id
_symmetry_equiv_pos_as_xyz
1 x,y,z
2 -x,-y,-z
_cell_length_a                   9.1890(18)
_cell_length_b                   9.3548(19)
_cell_length_c                   10.390(2)
_cell_angle_alpha                78.74(3)
_cell_angle_beta                 88.64(3)
_cell_angle_gamma                73.68(3)
_cell_volume                     840.191
loop_
_atom_site_label
_atom_site_type_symbol
_atom_site_fract_x
_atom_site_fract_y
_atom_site_fract_z
C1 C -0.1582(2) 0.6886(2) 0.7129(2)
C2 C -0.1920(3) 0.8433(2) 0.6267(2)
C3 C -0.2761(3) 0.8738(2) 0.5103(2)
H1 H -0.3109 0.7991 0.4846
C4 C -0.3067(3) 1.0182(3) 0.4336(2)
C5 C -0.2494(3) 1.1290(3) 0.4646(2)
H2 H -0.2671 1.2232 0.4086
C6 C -0.1647(3) 1.0974(2) 0.5811(2)
C7 C -0.1408(3) 0.9561(2) 0.6638(2)
H3 H -0.0902 0.9370 0.7445
C8 C 0.2058(2) 0.3927(2) 0.7504(2)
C9 C 0.3646(2) 0.3974(2) 0.7775(2)
C10 C 0.4307(3) 0.3616(3) 0.9022(2)
H4 H 0.3769 0.3339 0.9753
C11 C 0.5780(3) 0.3674(3) 0.9166(2)
H5 H 0.6227 0.3388 1.0005
C12 C 0.5920(3) 0.4501(3) 0.6972(2)
H6 H 0.6454 0.4836 0.6259
C13 C 0.4490(3) 0.4422(3) 0.6743(2)
H7 H 0.4085 0.4672 0.5889
C14 C -0.1022(2) 1.2189(2) 0.6151(2)
Co1 Co 0.0000 0.5000 0.5000
Co2 Co -0.10352(3) 0.39808(3) 0.82492(3)
N1 N 0.6596(2) 0.4120(2) 0.81683(18)
N2 N -0.4063(2) 1.0548(2) 0.3153(2)
O1 O -0.1492(2) 0.67118(19) 0.83422(16)
O2 O -0.14157(17) 0.57462(16) 0.65704(15)
O3 O -0.4433(3) 0.9517(2) 0.2817(2)
O4 O -0.4506(3) 1.1871(2) 0.2580(2)
O5 O 0.11919(18) 0.3888(2) 0.84536(16)
O6 O -0.07060(19) 1.21068(17) 0.73447(16)
O7 O -0.08995(18) 1.31976(17) 0.52098(16)
O8 O 0.17412(17) 0.39430(18) 0.63366(15)
O10 O -0.0897(2) 0.2994(2) 1.01711(16)
H10 H -0.0190 0.3181 1.0515
H11 H -0.1021 0.2183 1.0577
C1A C 0.1582(2) 0.3114(2) 0.2871(2)
C2A C 0.1920(3) 0.1567(2) 0.3733(2)
C3A C 0.2761(3) 0.1262(2) 0.4897(2)
H1A H 0.3109 0.2009 0.5154
C4A C 0.3067(3) -0.0182(3) 0.5664(2)
C5A C 0.2494(3) -0.1290(3) 0.5354(2)
H2A H 0.2671 -0.2232 0.5914
C6A C 0.1647(3) -0.0974(2) 0.4189(2)
C7A C 0.1408(3) 0.0439(2) 0.3362(2)
H3A H 0.0902 0.0630 0.2555
C8A C -0.2058(2) 0.6073(2) 0.2496(2)
C9A C -0.3646(2) 0.6026(2) 0.2225(2)
C10A C -0.4307(3) 0.6384(3) 0.0978(2)
H4A H -0.3769 0.6661 0.0247
C11A C -0.5780(3) 0.6326(3) 0.0834(2)
H5A H -0.6227 0.6612 -0.0005
C12A C -0.5920(3) 0.5499(3) 0.3028(2)
H6A H -0.6454 0.5164 0.3741
C13A C -0.4490(3) 0.5578(3) 0.3257(2)
H7A H -0.4085 0.5328 0.4111
C14A C 0.1022(2) -0.2189(2) 0.3849(2)
Co1_2 Co 0.0000 -0.5000 0.5000
Co1_3 Co 0.0000 1.5000 0.5000
Co2A Co 0.10352(3) 0.60192(3) 0.17508(3)
Co2_2 Co -0.10352(3) 1.39808(3) 0.82492(3)
Co2_3 Co 0.89648(3) 0.39808(3) 0.82492(3)
Co2A_2 Co -0.89648(3) 0.60192(3) 0.17508(3)
Co2A_3 Co 0.10352(3) -0.39808(3) 0.17508(3)
N1A N -0.6596(2) 0.5880(2) 0.18317(18)
N1_2 N -0.3404(2) 0.4120(2) 0.81683(18)
N1A_2 N 0.3404(2) 0.5880(2) 0.18317(18)
N2A N 0.4063(2) -0.0548(2) 0.6847(2)
O1A O 0.1492(2) 0.32882(19) 0.16578(16)
O2A O 0.14157(17) 0.42538(16) 0.34296(15)
O3A O 0.4433(3) 0.0483(2) 0.7183(2)
O4A O 0.4506(3) -0.1871(2) 0.7420(2)
O5A O -0.11919(18) 0.6112(2) 0.15464(16)
O6A O 0.07060(19) -0.21068(17) 0.26553(16)
O6_2 O -0.07060(19) 0.21068(17) 0.73447(16)
O6A_2 O 0.07060(19) 0.78932(17) 0.26553(16)
O7A O 0.08995(18) -0.31976(17) 0.47902(16)
O7_2 O -0.08995(18) 0.31976(17) 0.52098(16)
O7A_2 O 0.08995(18) 0.68024(17) 0.47902(16)
O8A O -0.17412(17) 0.60570(18) 0.36634(15)
O10A O 0.0897(2) 0.7006(2) -0.01711(16)
H10A H 0.0190 0.6819 -0.0515
H11A H 0.1021 0.7817 -0.0577
O9 O 0.8479(2) 0.0405(2) 0.1145(2)
H8 H 0.9262 -0.0299 0.1429
H9 H 0.8017 0.0109 0.0599
O11 O 0.3255(3) 0.0491(3) 0.0522(3)
H12 H 0.271(8) 0.114(6) 0.094(7)
H13 H 0.386(8) -0.021(7) 0.103(6)
H14? H 0.415(3) -0.006(6) 0.038(6)
H15? H 0.344(5) 0.096(5) 0.114(5)
loop_
_geom_bond_atom_site_label_1
_geom_bond_atom_site_label_2
_geom_bond_site_symmetry_1
_geom_bond_site_symmetry_2
C1 C2 1_555 1_555
C2 C3 1_555 1_555
C3 H1 1_555 1_555
C4 C3 1_555 1_555
C5 C4 1_555 1_555
H2 C5 1_555 1_555
C6 C5 1_555 1_555
C7 C2 1_555 1_555
H3 C7 1_555 1_555
C8 C9 1_555 1_555
C9 C10 1_555 1_555
C10 H4 1_555 1_555
C11 C10 1_555 1_555
H5 C11 1_555 1_555
C12 H6 1_555 1_555
C13 C9 1_555 1_555
H7 C13 1_555 1_555
C14 C6 1_555 1_555
Co1 O2 1_555 1_555
Co2 O2 1_555 1_555
N1 C11 1_555 1_555
N2 C4 1_555 1_555
O1 C1 1_555 1_555
O2 C1 1_555 1_555
O3 N2 1_555 1_555
O4 N2 1_555 1_555
O5 C8 1_555 1_555
O6 C14 1_555 1_555
O7 C14 1_555 1_555
O8 C8 1_555 1_555
O9 H8 1_555 1_555
H9 O9 1_555 1_555
O10 Co2 1_555 1_555
H10 O10 1_555 1_555
H11 O10 1_555 1_555
O11 H12 1_555 1_555
H13 O11 1_555 1_555
C1A C2A 1_555 1_555
C2A C3A 1_555 1_555
C3A H1A 1_555 1_555
C4A C3A 1_555 1_555
C5A C4A 1_555 1_555
H2A C5A 1_555 1_555
C6A C5A 1_555 1_555
C7A C2A 1_555 1_555
H3A C7A 1_555 1_555
C8A C9A 1_555 1_555
C9A C10A 1_555 1_555
C10A H4A 1_555 1_555
C11A C10A 1_555 1_555
H5A C11A 1_555 1_555
C12A H6A 1_555 1_555
C13A C9A 1_555 1_555
H7A C13A 1_555 1_555
C14A C6A 1_555 1_555
Co1_2 O7A 1_555 1_555
Co1_3 O7 1_555 1_555
Co2A N1A_2 1_555 1_555
Co2_2 O6 1_555 1_555
Co2_3 N1 1_555 1_555
Co2A_2 N1A 1_555 1_555
Co2A_3 O6A 1_555 1_555
N1A C11A 1_555 1_555
N1_2 Co2 1_555 1_555
N2A C4A 1_555 1_555
O1A C1A 1_555 1_555
O2A Co1 1_555 1_555
O3A N2A 1_555 1_555
O4A N2A 1_555 1_555
O5A C8A 1_555 1_555
O6A C14A 1_555 1_555
O6_2 Co2 1_555 1_555
O6A_2 Co2A 1_555 1_555
O7A C14A 1_555 1_555
O7_2 Co1 1_555 1_555
O7A_2 Co1 1_555 1_555
O8A Co1 1_555 1_555
O10A Co2A 1_555 1_555
H10A O10A 1_555 1_555
H11A O10A 1_555 1_555
C6 C7 1_555 1_555
C12 C13 1_555 1_555
C12 N1 1_555 1_555
Co1 O8 1_555 1_555
Co2 O5 1_555 1_555
C1A O2A 1_555 1_555
C6A C7A 1_555 1_555
C8A O8A 1_555 1_555
C12A C13A 1_555 1_555
C12A N1A 1_555 1_555
Co2A O2A 1_555 1_555
Co2A O5A 1_555 1_555

#END
