
#######################################################################
#
#                 Cambridge Crystallographic Data Centre
#                                CCDC 
#
#######################################################################
#
# If this CIF has been generated from an entry in the Cambridge 
# Structural Database, then it will include bibliographic, chemical, 
# crystal, experimental, refinement or atomic coordinate data resulting 
# from the CCDC's data processing and validation procedures.
#
#######################################################################

data_QAWMUY
_symmetry_cell_setting           monoclinic
_symmetry_space_group_name_H-M   'P 21/c'
_symmetry_Int_Tables_number      14
_space_group_name_Hall           '-P 2ybc'
loop_
_symmetry_equiv_pos_site_id
_symmetry_equiv_pos_as_xyz
1 x,y,z
2 -x,1/2+y,1/2-z
3 -x,-y,-z
4 x,1/2-y,1/2+z
_cell_length_a                   14.2780(7)
_cell_length_b                   11.1546(6)
_cell_length_c                   11.3505(6)
_cell_angle_alpha                90
_cell_angle_beta                 104.082(3)
_cell_angle_gamma                90
_cell_volume                     1753.42
loop_
_atom_site_label
_atom_site_type_symbol
_atom_site_fract_x
_atom_site_fract_y
_atom_site_fract_z
Co1 Co 0.16141(3) 0.42156(4) 0.28339(4)
Co2 Co -0.01011(3) 0.06653(4) 0.12375(4)
O1 O 0.05557(14) 0.23230(19) 0.16792(18)
O2 O 0.04528(15) 0.09782(18) -0.02752(18)
O3 O 0.15418(14) 0.6208(2) 0.47001(18)
O4 O 0.25828(15) 0.53958(19) 0.37238(19)
O5 O 0.04937(14) 0.52030(19) 0.22938(18)
O6 O 0.13070(15) -0.0188(2) 0.19175(19)
H1 H 0.1417 -0.0644 0.1396
N1 N 0.18067(17) 0.3396(2) 0.1334(2)
N2 N 0.17268(16) 0.1946(2) -0.0743(2)
C1 C 0.1155(2) 0.2530(3) 0.1038(3)
C2 C 0.1117(2) 0.1786(3) -0.0053(3)
C3 C 0.24286(19) 0.3605(3) 0.0582(3)
C4 C 0.3079(2) 0.4566(3) 0.0835(3)
H2 H 0.3100 0.5056 0.1526
C5 C 0.3686(2) 0.4805(3) 0.0092(3)
H3 H 0.4119 0.5464 0.0264
C6 C 0.3666(2) 0.4079(3) -0.0914(3)
H4 H 0.4089 0.4244 -0.1424
C7 C 0.3038(2) 0.3124(3) -0.1173(3)
H5 H 0.3040 0.2625 -0.1850
C8 C 0.2396(2) 0.2884(3) -0.0444(3)
C9 C 0.3226(2) 0.6392(3) 0.5582(3)
C10 C 0.3109(2) 0.7242(3) 0.6423(3)
H6 H 0.2495 0.7606 0.6347
C11 C 0.3874(2) 0.7569(3) 0.7372(3)
H7 H 0.3787 0.8156 0.7943
C12 C 0.4765(2) 0.7038(3) 0.7485(3)
H8 H 0.5291 0.7254 0.8139
C13 C 0.4893(3) 0.6190(4) 0.6644(4)
H9 H 0.5508 0.5828 0.6719
C14 C 0.4124(2) 0.5870(3) 0.5693(3)
H10 H 0.4213 0.5291 0.5116
C15 C 0.2383(2) 0.5982(3) 0.4588(3)
C16 C 0.0472(3) 0.6018(4) 0.1344(3)
H11 H 0.0724 0.6794 0.1683
H12 H -0.0195 0.6116 0.0867
H13 H 0.0871 0.5712 0.0820
C17 C 0.1510(3) -0.0863(3) 0.3033(3)
H14 H 0.1491 -0.0328 0.3711
H15 H 0.2153 -0.1225 0.3168
H16 H 0.1025 -0.1496 0.2979
Co1C Co 0.16141(3) 0.07844(4) -0.21661(4)
Co2B Co 0.01011(3) -0.06653(4) -0.12375(4)
Co2A Co 0.01011(3) 0.56653(4) 0.37625(4)
O2B O -0.04528(15) -0.09782(18) 0.02752(18)
O3A O -0.15418(14) 0.1208(2) 0.02999(18)
O5A O -0.04937(14) 0.02030(19) 0.27062(18)
N2C N 0.17268(16) 0.3054(2) 0.4257(2)
loop_
_geom_bond_atom_site_label_1
_geom_bond_atom_site_label_2
_geom_bond_site_symmetry_1
_geom_bond_site_symmetry_2
Co1 O4 1_555 1_555
Co2 O1 1_555 1_555
O1 C1 1_555 1_555
O2 Co2 1_555 1_555
O3 C15 1_555 1_555
O4 C15 1_555 1_555
O5 Co1 1_555 1_555
O6 Co2 1_555 1_555
H1 O6 1_555 1_555
N1 Co1 1_555 1_555
N2 C2 1_555 1_555
C1 N1 1_555 1_555
C2 O2 1_555 1_555
C3 N1 1_555 1_555
C4 C3 1_555 1_555
H2 C4 1_555 1_555
C5 C4 1_555 1_555
H3 C5 1_555 1_555
C6 C5 1_555 1_555
H4 C6 1_555 1_555
C7 C6 1_555 1_555
H5 C7 1_555 1_555
C8 N2 1_555 1_555
C9 C10 1_555 1_555
C10 H6 1_555 1_555
C11 C10 1_555 1_555
H7 C11 1_555 1_555
C12 C11 1_555 1_555
H8 C12 1_555 1_555
C13 C12 1_555 1_555
H9 C13 1_555 1_555
C14 C9 1_555 1_555
H10 C14 1_555 1_555
C15 C9 1_555 1_555
C16 O5 1_555 1_555
H11 C16 1_555 1_555
H12 C16 1_555 1_555
H13 C16 1_555 1_555
C17 O6 1_555 1_555
H14 C17 1_555 1_555
H15 C17 1_555 1_555
H16 C17 1_555 1_555
Co1C N2 1_555 1_555
Co2B O2 1_555 1_555
Co2A O3 1_555 1_555
O2B Co2 1_555 1_555
O3A Co2 1_555 1_555
O5A Co2 1_555 1_555
N2C Co1 1_555 1_555
O5 Co2A 1_555 1_555
C1 C2 1_555 1_555
C3 C8 1_555 1_555
C7 C8 1_555 1_555
C13 C14 1_555 1_555
Co2B O2B 1_555 1_555

#END
