
#######################################################################
#
#                 Cambridge Crystallographic Data Centre
#                                CCDC 
#
#######################################################################
#
# If this CIF has been generated from an entry in the Cambridge 
# Structural Database, then it will include bibliographic, chemical, 
# crystal, experimental, refinement or atomic coordinate data resulting 
# from the CCDC's data processing and validation procedures.
#
#######################################################################

data_QAWNUX
_symmetry_cell_setting           triclinic
_symmetry_space_group_name_H-M   'P -1'
_symmetry_Int_Tables_number      2
_space_group_name_Hall           '-P 1'
loop_
_symmetry_equiv_pos_site_id
_symmetry_equiv_pos_as_xyz
1 x,y,z
2 -x,-y,-z
_cell_length_a                   9.2741(12)
_cell_length_b                   11.4833(11)
_cell_length_c                   13.7452(13)
_cell_angle_alpha                107.09(3)
_cell_angle_beta                 90.499(3)
_cell_angle_gamma                93.824(2)
_cell_volume                     1395.46
loop_
_atom_site_label
_atom_site_type_symbol
_atom_site_fract_x
_atom_site_fract_y
_atom_site_fract_z
Gd1 Gd 0.22914(5) 0.01314(4) 0.49093(4)
O1 O 0.1430(6) 0.0456(4) 0.6618(4)
O2 O -0.0929(6) -0.0094(5) 0.6541(4)
O3 O 0.0497(6) -0.1460(4) 0.4671(4)
O4 O -0.1745(6) -0.2251(4) 0.4641(4)
O5 O 0.4329(6) 0.1088(5) 0.5883(4)
O6 O 0.6617(6) 0.1343(4) 0.6423(4)
O7 O 0.3261(6) -0.1367(4) 0.5667(4)
O8 O 0.3784(6) 0.1298(5) 0.3923(4)
O9 O 0.3433(7) 0.0707(6) 1.0145(5)
O10 O 0.2247(8) 0.1675(6) 1.1429(4)
O11 O -0.2767(8) 0.2288(7) 1.0947(5)
O12 O -0.3551(7) 0.2194(6) 0.9459(5)
O13 O -0.2792(7) -0.6607(5) 0.3170(5)
O14 O -0.1104(8) -0.7844(5) 0.2906(5)
O15 O 0.3868(7) -0.6255(5) 0.3598(6)
O16 O 0.4362(7) -0.4326(6) 0.4238(5)
O17 O 0.8185(7) 0.5485(6) 0.8573(5)
O18 O 0.6703(8) 0.6452(5) 0.9690(5)
O19 O 0.1637(8) 0.5260(6) 0.9228(6)
O20 O 0.0880(6) 0.3574(6) 0.8134(5)
N1 N 0.2387(8) 0.1232(6) 1.0517(5)
N2 N -0.2629(9) 0.2070(6) 1.0034(5)
N3 N -0.1531(8) -0.6823(5) 0.3164(5)
N4 N 0.3518(8) -0.5211(6) 0.3902(5)
N5 N 0.7001(8) 0.5619(6) 0.8950(5)
N6 N 0.1816(8) 0.4321(6) 0.8568(6)
C1 C 0.0158(9) 0.0788(6) 0.8145(6)
C2 C 0.1331(9) 0.0822(7) 0.8777(6)
C3 C 0.1161(9) 0.1252(6) 0.9826(6)
C4 C -0.009(1) 0.1690(7) 1.0255(6)
C5 C -0.124(1) 0.1650(7) 0.9606(6)
C6 C -0.1144(9) 0.1203(7) 0.8568(6)
C7 C 0.0224(8) 0.0336(6) 0.7001(6)
C8 C 0.0096(8) -0.3628(6) 0.4164(5)
C9 C -0.0906(9) -0.4606(7) 0.3831(6)
C10 C -0.0443(9) -0.5765(6) 0.3496(5)
C11 C 0.1007(9) -0.6007(7) 0.3504(6)
C12 C 0.1957(9) -0.4996(7) 0.3863(6)
C13 C 0.1544(9) -0.3820(7) 0.4187(6)
C14 C -0.0417(9) -0.2352(6) 0.4514(5)
C15 C 0.5025(8) 0.2770(6) 0.7323(5)
C16 C 0.6135(9) 0.3608(6) 0.7803(6)
C17 C 0.5800(9) 0.4693(7) 0.8494(6)
C18 C 0.443(1) 0.4954(7) 0.8748(6)
C19 C 0.3361(9) 0.4104(7) 0.8290(6)
C20 C 0.3601(9) 0.3010(7) 0.7567(6)
C21 C 0.5324(8) 0.1640(6) 0.6484(6)
O2A O 0.0929(6) 0.0094(5) 0.3459(4)
O4A O 0.1745(6) 0.2251(4) 0.5359(4)
O6A O 0.3383(6) -0.1343(4) 0.3577(4)
Gd1A Gd -0.22914(5) -0.01314(4) 0.50907(4)
Gd1A_2 Gd 0.77086(5) -0.01314(4) 0.50907(4)
O21 O 0.4774(9) 0.9353(9) 0.7915(6)
loop_
_geom_bond_atom_site_label_1
_geom_bond_atom_site_label_2
_geom_bond_site_symmetry_1
_geom_bond_site_symmetry_2
Gd1 O1 1_555 1_555
O1 C7 1_555 1_555
O2 C7 1_555 1_555
O3 Gd1 1_555 1_555
O4 C14 1_555 1_555
O5 Gd1 1_555 1_555
O6 C21 1_555 1_555
O7 Gd1 1_555 1_555
O8 Gd1 1_555 1_555
O9 N1 1_555 1_555
O10 N1 1_555 1_555
O11 N2 1_555 1_555
O12 N2 1_555 1_555
O13 N3 1_555 1_555
O14 N3 1_555 1_555
O15 N4 1_555 1_555
O16 N4 1_555 1_555
O17 N5 1_555 1_555
O18 N5 1_555 1_555
O19 N6 1_555 1_555
O20 N6 1_555 1_555
N1 C3 1_555 1_555
N2 C5 1_555 1_555
N3 C10 1_555 1_555
N4 C12 1_555 1_555
N5 C17 1_555 1_555
N6 C19 1_555 1_555
C1 C2 1_555 1_555
C2 C3 1_555 1_555
C3 C4 1_555 1_555
C4 C5 1_555 1_555
C5 C6 1_555 1_555
C6 C1 1_555 1_555
C7 C1 1_555 1_555
C8 C9 1_555 1_555
C9 C10 1_555 1_555
C10 C11 1_555 1_555
C11 C12 1_555 1_555
C12 C13 1_555 1_555
C13 C8 1_555 1_555
C14 O3 1_555 1_555
C15 C16 1_555 1_555
C16 C17 1_555 1_555
C17 C18 1_555 1_555
C18 C19 1_555 1_555
C19 C20 1_555 1_555
C20 C15 1_555 1_555
C21 O5 1_555 1_555
O2A Gd1 1_555 1_555
O4A Gd1 1_555 1_555
O6A Gd1 1_555 1_555
Gd1A O2 1_555 1_555
Gd1A_2 O6 1_555 1_555
O4 Gd1A 1_555 1_555
C8 C14 1_555 1_555
C15 C21 1_555 1_555

#END
