
#######################################################################
#
#                 Cambridge Crystallographic Data Centre
#                                CCDC 
#
#######################################################################
#
# If this CIF has been generated from an entry in the Cambridge 
# Structural Database, then it will include bibliographic, chemical, 
# crystal, experimental, refinement or atomic coordinate data resulting 
# from the CCDC's data processing and validation procedures.
#
#######################################################################

data_QAWSUD
_symmetry_cell_setting           monoclinic
_symmetry_space_group_name_H-M   'P 21'
_symmetry_Int_Tables_number      4
_space_group_name_Hall           'P 2yb'
loop_
_symmetry_equiv_pos_site_id
_symmetry_equiv_pos_as_xyz
1 x,y,z
2 -x,1/2+y,-z
_cell_length_a                   15.583(2)
_cell_length_b                   7.0050(10)
_cell_length_c                   13.796(2)
_cell_angle_alpha                90.000(10)
_cell_angle_beta                 103.390(10)
_cell_angle_gamma                90.000(10)
_cell_volume                     1465.02
loop_
_atom_site_label
_atom_site_type_symbol
_atom_site_fract_x
_atom_site_fract_y
_atom_site_fract_z
C1 C 0.1651(5) -0.4688(10) 0.7668(6)
C2 C 0.3405(4) 1.1158(10) 0.2473(5)
H1 H 0.3015 1.2182 0.2405
C3 C 0.1244(3) -0.1823(9) 0.6898(4)
C4 C 0.3829(3) 0.8230(9) 0.3144(4)
C5 C 0.0432(3) -0.2006(9) 0.7128(4)
C6 C 0.4539(3) 0.8244(8) 0.2702(4)
C7 C 0.0262(3) -0.3626(9) 0.7664(4)
C8 C 0.4653(3) 0.9839(9) 0.2112(4)
C9 C 0.0504(3) 0.0624(12) 0.6303(4)
H2 H 0.0338 0.1778 0.5981
C10 C 0.4525(3) 0.5650(11) 0.3565(4)
C11 C -0.0664(4) -0.5558(10) 0.8501(5)
H3 H -0.0131 -0.6317 0.8703
H4 H -0.1113 -0.6342 0.8079
C12 C 0.5381(6) 1.1738(11) 0.1072(7)
H5 H 0.5547 1.2795 0.1532
H6 H 0.4814 1.2038 0.0635
C13 C -0.0967(4) -0.4945(10) 0.9392(5)
C14 C 0.6051(4) 1.1515(10) 0.0468(4)
C15 C -0.0607(6) -0.4966(15) 1.0361(6)
C16 C 0.6784(6) 1.2533(16) 0.0512(7)
H7 H 0.7007 1.3521 0.0948
C17 C -0.1261(7) -0.4150(15) 1.0832(5)
H8 H -0.1205 -0.4005 1.1514
C18 C 0.7148(5) 1.1759(16) -0.0264(6)
H9 H 0.7676 1.2136 -0.0412
C19 C -0.1923(7) -0.3667(16) 1.0157(7)
H10 H -0.2426 -0.3069 1.0263
C20 C 0.6631(6) 1.0467(17) -0.0722(6)
H11 H 0.6710 0.9788 -0.1275
N1 N 0.0903(4) -0.4937(10) 0.7901(5)
N2 N 0.4061(3) 1.1291(9) 0.2015(4)
N3 N 0.1864(3) -0.3164(9) 0.7189(4)
H12 H 0.2380 -0.3048 0.7072
N4 N 0.3255(3) 0.9714(9) 0.3014(3)
H13 H 0.2807 0.9707 0.3279
N5 N -0.0486(3) -0.3882(8) 0.7943(4)
N6 N 0.5297(3) 1.0000(8) 0.1637(4)
N7 N -0.0015(3) -0.0409(9) 0.6744(3)
H14 H -0.0543 -0.0116 0.6779
N8 N 0.4959(3) 0.6556(8) 0.2966(4)
N9 N 0.1295(3) -0.0195(8) 0.6379(3)
N10 N 0.3820(3) 0.6615(8) 0.3689(3)
O1 O -0.1779(3) -0.4177(12) 0.9227(3)
O2 O 0.5935(4) 1.0237(10) -0.0266(5)
Cl1 Cl 0.32200(8) 0.1644(2) 0.76386(10)
Cl2 Cl 0.15533(9) 0.3995(2) 0.52895(11)
Cl3 Cl 0.17446(9) -0.1080(2) 0.41384(10)
Cl4 Cl 0.34630(8) -0.2395(2) 0.61296(10)
Cl5 Cl 0.18506(8) 0.4719(2) 0.26755(11)
Cl6 Cl 0.36265(9) 0.2567(2) 0.49694(11)
Cd1 Cd 0.24902(2) 0.08760(5) 0.57687(3)
Cd2 Cd 0.27052(2) 0.56635(5) 0.44909(3)
H15 H 0.195(6) -0.584(19) 0.782(7)
H16 H -0.0950 -0.3074 0.7621
H17 H 0.539(4) 0.622(13) 0.284(5)
H18 H 0.475(3) 0.451(9) 0.387(3)
H19 H -0.0018 -0.5207 1.0784
H20 H 0.5730 0.9074 0.1899
Cl3_2 Cl 0.17446(9) 0.8920(2) 0.41384(10)
Cl4_2 Cl 0.34630(8) 0.7605(2) 0.61296(10)
Cd1_2 Cd 0.24902(2) 1.08760(5) 0.57687(3)
Cd2_2 Cd 0.27052(2) -0.43365(5) 0.44909(3)
loop_
_geom_bond_atom_site_label_1
_geom_bond_atom_site_label_2
_geom_bond_site_symmetry_1
_geom_bond_site_symmetry_2
C1 N1 1_555 1_555
C2 H1 1_555 1_555
C3 C5 1_555 1_555
C4 C6 1_555 1_555
C5 C7 1_555 1_555
C6 C8 1_555 1_555
C7 N1 1_555 1_555
C8 N2 1_555 1_555
C9 H2 1_555 1_555
C10 N8 1_555 1_555
C11 H3 1_555 1_555
H4 C11 1_555 1_555
C12 H5 1_555 1_555
H6 C12 1_555 1_555
C13 C11 1_555 1_555
C14 C12 1_555 1_555
C15 C13 1_555 1_555
C16 C14 1_555 1_555
H7 C16 1_555 1_555
C17 C15 1_555 1_555
H8 C17 1_555 1_555
C18 C16 1_555 1_555
H9 C18 1_555 1_555
C19 C17 1_555 1_555
H10 C19 1_555 1_555
C20 C18 1_555 1_555
H11 C20 1_555 1_555
N2 C2 1_555 1_555
N3 C1 1_555 1_555
H12 N3 1_555 1_555
N4 C2 1_555 1_555
H13 N4 1_555 1_555
N5 C7 1_555 1_555
N6 C8 1_555 1_555
N7 C5 1_555 1_555
H14 N7 1_555 1_555
N8 C6 1_555 1_555
N9 C3 1_555 1_555
N10 C4 1_555 1_555
O1 C13 1_555 1_555
O2 C14 1_555 1_555
Cl1 Cd1 1_555 1_555
Cl2 Cd1 1_555 1_555
Cl3 Cd1 1_555 1_555
Cl4 Cd1 1_555 1_555
Cl5 Cd2 1_555 1_555
Cl6 Cd1 1_555 1_555
Cd1 N9 1_555 1_555
Cd2 N10 1_555 1_555
H15 C1 1_555 1_555
H16 N5 1_555 1_555
H17 N8 1_555 1_555
H18 C10 1_555 1_555
H19 C15 1_555 1_555
H20 N6 1_555 1_555
Cl3_2 Cd2 1_555 1_555
Cl4_2 Cd2 1_555 1_555
Cd1_2 Cl3_2 1_555 1_555
Cd2_2 Cl3 1_555 1_555
C3 N3 1_555 1_555
C4 N4 1_555 1_555
C9 N7 1_555 1_555
C9 N9 1_555 1_555
C10 N10 1_555 1_555
C11 N5 1_555 1_555
C12 N6 1_555 1_555
C19 O1 1_555 1_555
C20 O2 1_555 1_555
Cl2 Cd2 1_555 1_555
Cl4 Cd2_2 1_555 1_555
Cl6 Cd2 1_555 1_555
Cl4_2 Cd1_2 1_555 1_555

#END
