
#######################################################################
#
#                 Cambridge Crystallographic Data Centre
#                                CCDC 
#
#######################################################################
#
# If this CIF has been generated from an entry in the Cambridge 
# Structural Database, then it will include bibliographic, chemical, 
# crystal, experimental, refinement or atomic coordinate data resulting 
# from the CCDC's data processing and validation procedures.
#
#######################################################################

data_QAWWER
_symmetry_cell_setting           triclinic
_symmetry_space_group_name_H-M   'P -1'
_symmetry_Int_Tables_number      2
_space_group_name_Hall           '-P 1'
loop_
_symmetry_equiv_pos_site_id
_symmetry_equiv_pos_as_xyz
1 x,y,z
2 -x,-y,-z
_cell_length_a                   12.2882(2)
_cell_length_b                   12.55970(10)
_cell_length_c                   13.0650(2)
_cell_angle_alpha                71.5783(5)
_cell_angle_beta                 86.4844(4)
_cell_angle_gamma                68.5989(5)
_cell_volume                     1777.83
loop_
_atom_site_label
_atom_site_type_symbol
_atom_site_fract_x
_atom_site_fract_y
_atom_site_fract_z
Bi1 Bi 0.10434(2) 0.32808(2) -0.03658(2)
Bi2 Bi 0.31043(2) 0.64655(2) -0.03742(2)
Br1 Br 0.20366(8) 0.09581(7) 0.06982(8)
Br2 Br 0.28720(7) 0.37418(8) 0.00574(8)
Br3 Br -0.00189(9) 0.37642(7) 0.14080(7)
Br4 Br 0.44943(6) 0.48272(6) 0.14259(6)
Br5 Br -0.13102(6) 0.28135(8) -0.08747(7)
Br6 Br 0.39423(7) 0.80646(7) -0.02570(8)
S1 S 0.58198(16) -0.25358(17) -0.42385(17)
S2 S 0.4631(2) -0.2874(2) -0.6045(2)
S3 S -0.17375(15) 0.11131(14) -0.78871(14)
S4 S -0.29681(14) 0.31523(15) -0.70037(14)
S5 S 0.03190(16) 0.44838(15) -0.31050(15)
S6 S 0.27356(14) 0.27051(15) -0.21596(14)
C1 C 0.2642(6) 0.0223(5) -0.4718(5)
C2 C 0.3801(6) -0.0553(6) -0.4360(5)
H1 H 0.4173 -0.0423 -0.3838
C3 C 0.4409(5) -0.1492(6) -0.4744(6)
C4 C 0.3845(6) -0.1658(6) -0.5555(6)
C5 C 0.2714(6) -0.0888(6) -0.5943(6)
H2 H 0.2363 -0.0990 -0.6498
C6 C 0.2084(5) 0.0047(5) -0.5516(5)
C7 C 0.0870(5) 0.0814(5) -0.5884(5)
C8 C 0.0250(6) 0.0616(5) -0.6637(5)
H3 H 0.0630 -0.0011 -0.6917
C9 C -0.0899(6) 0.1325(5) -0.6967(5)
C10 C -0.1504(5) 0.2280(5) -0.6544(5)
C11 C -0.0908(5) 0.2477(5) -0.5806(5)
H4 H -0.1297 0.3106 -0.5531
C12 C 0.0272(5) 0.1761(5) -0.5451(5)
C13 C 0.0868(5) 0.1979(5) -0.4657(5)
C14 C 0.0340(6) 0.2958(6) -0.4262(5)
H5 H -0.0421 0.3475 -0.4514
C15 C 0.0893(5) 0.3187(5) -0.3525(5)
C16 C 0.2047(5) 0.2376(5) -0.3105(5)
C17 C 0.2580(5) 0.1429(5) -0.3494(5)
H6 H 0.3337 0.0910 -0.3231
C18 C 0.2030(5) 0.1209(5) -0.4274(5)
C19 C 0.6138(7) -0.2060(8) -0.3159(7)
H7 H 0.6903 -0.2583 -0.2827
H8 H 0.5565 -0.2098 -0.2628
H9 H 0.6115 -0.1248 -0.3447
C20 C 0.3610(12) -0.2815(14) -0.6987(14)
H10 H 0.3966 -0.3449 -0.7299
H11 H 0.3378 -0.2050 -0.7547
H12 H 0.2934 -0.2914 -0.6623
C21 C -0.0712(7) 0.0012(7) -0.8413(7)
H13 H -0.1114 -0.0147 -0.8922
H14 H -0.0347 -0.0719 -0.7831
H15 H -0.0125 0.0310 -0.8767
C22 C -0.3243(9) 0.4482(8) -0.6659(11)
H16 H -0.4036 0.5019 -0.6883
H17 H -0.2717 0.4869 -0.7016
H18 H -0.3125 0.4276 -0.5890
C23 C -0.1208(7) 0.5085(7) -0.3483(7)
H19 H -0.1581 0.5798 -0.3277
H20 H -0.1548 0.4497 -0.3123
H21 H -0.1318 0.5283 -0.4251
C24 C 0.3957(6) 0.1342(7) -0.1571(7)
H22 H 0.4380 0.1452 -0.1042
H23 H 0.4466 0.1145 -0.2125
H24 H 0.3681 0.0699 -0.1229
Bi1A Bi -0.10434(2) 0.67192(2) 0.03658(2)
Bi2A Bi 0.68957(2) 0.35345(2) 0.03742(2)
Bi2A_2 Bi -0.31043(2) 0.35345(2) 0.03742(2)
Bi2A_3 Bi -0.31043(2) 0.35345(2) -0.96258(2)
Br3A Br 0.00189(9) 0.62358(7) -0.14080(7)
Br4A Br 0.55057(6) 0.51728(6) -0.14259(6)
Br5A Br 0.13102(6) 0.71865(8) 0.08747(7)
S3A S 0.17375(15) 0.88869(14) -0.21129(14)
S4A S 0.29681(14) 0.68477(15) -0.29963(14)
loop_
_geom_bond_atom_site_label_1
_geom_bond_atom_site_label_2
_geom_bond_site_symmetry_1
_geom_bond_site_symmetry_2
Bi1 Br1 1_555 1_555
Bi2 Br2 1_555 1_555
Br2 Bi1 1_555 1_555
Br3 Bi1 1_555 1_555
Br4 Bi2 1_555 1_555
Br5 Bi1 1_555 1_555
Br6 Bi2 1_555 1_555
S1 C3 1_555 1_555
S2 C4 1_555 1_555
S3 C9 1_555 1_555
S4 C10 1_555 1_555
S5 C15 1_555 1_555
S6 Bi1 1_555 1_555
C1 C2 1_555 1_555
C2 H1 1_555 1_555
C3 C2 1_555 1_555
C4 C3 1_555 1_555
C5 C4 1_555 1_555
H2 C5 1_555 1_555
C6 C1 1_555 1_555
C7 C6 1_555 1_555
C8 C7 1_555 1_555
H3 C8 1_555 1_555
C9 C8 1_555 1_555
C10 C9 1_555 1_555
C11 C10 1_555 1_555
H4 C11 1_555 1_555
C12 C7 1_555 1_555
C13 C12 1_555 1_555
C14 C13 1_555 1_555
H5 C14 1_555 1_555
C15 C14 1_555 1_555
C16 S6 1_555 1_555
C17 C16 1_555 1_555
H6 C17 1_555 1_555
C18 C1 1_555 1_555
C19 S1 1_555 1_555
H7 C19 1_555 1_555
H8 C19 1_555 1_555
H9 C19 1_555 1_555
C20 S2 1_555 1_555
H10 C20 1_555 1_555
H11 C20 1_555 1_555
H12 C20 1_555 1_555
C21 S3 1_555 1_555
H13 C21 1_555 1_555
H14 C21 1_555 1_555
H15 C21 1_555 1_555
C22 S4 1_555 1_555
H16 C22 1_555 1_555
H17 C22 1_555 1_555
H18 C22 1_555 1_555
C23 S5 1_555 1_555
H19 C23 1_555 1_555
H20 C23 1_555 1_555
H21 C23 1_555 1_555
C24 S6 1_555 1_555
H22 C24 1_555 1_555
H23 C24 1_555 1_555
H24 C24 1_555 1_555
Bi1A Br3 1_555 1_555
Bi2A Br4 1_555 1_555
Bi2A_2 Br5 1_555 1_555
Bi2A_3 S3 1_555 1_555
Br3A Bi1 1_555 1_555
Br4A Bi2 1_555 1_555
Br5A Bi2 1_555 1_555
S3A Bi2 1_555 1_555
S4A Bi2 1_555 1_555
S4 Bi2A_3 1_555 1_555
C5 C6 1_555 1_555
C11 C12 1_555 1_555
C13 C18 1_555 1_555
C15 C16 1_555 1_555
C17 C18 1_555 1_555
Bi1A Br3A 1_555 1_555
Bi1A Br5A 1_555 1_555
Bi2A Br4A 1_555 1_555

#END
