
#######################################################################
#
#                 Cambridge Crystallographic Data Centre
#                                CCDC 
#
#######################################################################
#
# If this CIF has been generated from an entry in the Cambridge 
# Structural Database, then it will include bibliographic, chemical, 
# crystal, experimental, refinement or atomic coordinate data resulting 
# from the CCDC's data processing and validation procedures.
#
#######################################################################

data_QAXKUW01
_symmetry_cell_setting           monoclinic
_symmetry_space_group_name_H-M   'P 21/c'
_symmetry_Int_Tables_number      14
_space_group_name_Hall           '-P 2ybc'
loop_
_symmetry_equiv_pos_site_id
_symmetry_equiv_pos_as_xyz
1 x,y,z
2 -x,1/2+y,1/2-z
3 -x,-y,-z
4 x,1/2-y,1/2+z
_cell_length_a                   12.893(3)
_cell_length_b                   5.9756(15)
_cell_length_c                   17.382(4)
_cell_angle_alpha                90
_cell_angle_beta                 104.086(5)
_cell_angle_gamma                90
_cell_volume                     1298.9
loop_
_atom_site_label
_atom_site_type_symbol
_atom_site_fract_x
_atom_site_fract_y
_atom_site_fract_z
C1 C 0.26454(13) 0.4298(3) 0.18540(9)
C2 C 0.31681(13) 0.3877(3) 0.12449(9)
C3 C 0.39761(15) 0.2270(3) 0.13767(11)
C4 C 0.42551(17) 0.1075(4) 0.20784(12)
C5 C 0.37273(16) 0.1461(3) 0.26700(12)
C6 C 0.29311(15) 0.3047(3) 0.25574(10)
C7 C 0.28994(15) 0.5047(2) 0.04592(10)
C8 C 0.35888(16) 0.6732(3) 0.03287(12)
C9 C 0.34189(19) 0.7831(4) -0.03910(13)
C10 C 0.25742(19) 0.7221(4) -0.10105(12)
C11 C 0.19026(18) 0.5514(3) -0.09032(12)
C12 C 0.20467(14) 0.4418(3) -0.01717(9)
C13 C 0.17589(13) 0.5973(3) 0.17576(9)
C14 C 0.12454(13) 0.2632(3) -0.01109(9)
O1 O 0.17743(10) 0.7653(2) 0.13140(7)
O2 O 0.10413(11) 0.5644(2) 0.21236(8)
O3 O 0.10525(10) 0.2270(2) 0.05527(7)
O4 O 0.07965(10) 0.1645(2) -0.07432(7)
O5 O 0.04352(11) 1.1370(2) 0.20611(7)
Zn1 Zn 0.059034(15) 0.97516(3) 0.110444(10)
H1 H 0.4322(15) 0.201(4) 0.0979(11)
H2 H 0.482(2) 0.000(3) 0.2148(15)
H3 H 0.3938(17) 0.066(4) 0.3149(14)
H4 H 0.2528(14) 0.328(3) 0.2961(11)
H5 H 0.4126(18) 0.715(4) 0.0777(14)
H6 H 0.3860(19) 0.896(4) -0.0464(14)
H7 H 0.2443(17) 0.797(4) -0.1497(13)
H8 H 0.1425(19) 0.493(3) -0.1330(15)
H9 H -0.0080(18) 1.126(4) 0.2279(13)
H10 H 0.0669(19) 1.261(4) 0.2112(14)
O3_2 O 0.10525(10) 1.2270(2) 0.05527(7)
O4B O -0.07965(10) 0.8355(2) 0.07432(7)
Zn1_2 Zn 0.059034(15) -0.02484(3) 0.110444(10)
Zn1B Zn -0.059034(15) 0.02484(3) -0.110444(10)
loop_
_geom_bond_atom_site_label_1
_geom_bond_atom_site_label_2
_geom_bond_site_symmetry_1
_geom_bond_site_symmetry_2
C1 C2 1_555 1_555
C2 C3 1_555 1_555
C3 C4 1_555 1_555
C4 C5 1_555 1_555
C5 C6 1_555 1_555
C6 C1 1_555 1_555
C7 C2 1_555 1_555
C8 C7 1_555 1_555
C9 C8 1_555 1_555
C10 C9 1_555 1_555
C11 C10 1_555 1_555
C12 C7 1_555 1_555
C13 C1 1_555 1_555
C14 C12 1_555 1_555
O1 C13 1_555 1_555
O2 C13 1_555 1_555
O3 C14 1_555 1_555
O4 C14 1_555 1_555
O5 Zn1 1_555 1_555
Zn1 O1 1_555 1_555
H1 C3 1_555 1_555
H2 C4 1_555 1_555
H3 C5 1_555 1_555
H4 C6 1_555 1_555
H5 C8 1_555 1_555
H6 C9 1_555 1_555
H7 C10 1_555 1_555
H8 C11 1_555 1_555
H9 O5 1_555 1_555
H10 O5 1_555 1_555
O3_2 Zn1 1_555 1_555
O4B Zn1 1_555 1_555
Zn1_2 O3 1_555 1_555
Zn1B O4 1_555 1_555
C11 C12 1_555 1_555

#END
