
#######################################################################
#
#                 Cambridge Crystallographic Data Centre
#                                CCDC 
#
#######################################################################
#
# If this CIF has been generated from an entry in the Cambridge 
# Structural Database, then it will include bibliographic, chemical, 
# crystal, experimental, refinement or atomic coordinate data resulting 
# from the CCDC's data processing and validation procedures.
#
#######################################################################

data_QAXXOD
_symmetry_cell_setting           tetragonal
_symmetry_space_group_name_H-M   'P 42/n c m'
_symmetry_Int_Tables_number      138
_space_group_name_Hall           '-P 4ac 2ac'
loop_
_symmetry_equiv_pos_site_id
_symmetry_equiv_pos_as_xyz
1 x,y,z
2 1/2+y,1/2+x,-z
3 y,1/2-x,1/2+z
4 1/2-y,x,1/2+z
5 1/2-x,1/2-y,z
6 1/2+x,-y,1/2-z
7 -x,1/2+y,1/2-z
8 -y,-x,-z
9 -x,-y,-z
10 1/2-y,1/2-x,z
11 -y,1/2+x,1/2-z
12 1/2+y,-x,1/2-z
13 1/2+x,1/2+y,-z
14 1/2-x,y,1/2+z
15 x,1/2-y,1/2+z
16 y,x,z
_cell_length_a                   8.4083(8)
_cell_length_b                   8.4083(8)
_cell_length_c                   15.1095(10)
_cell_angle_alpha                90
_cell_angle_beta                 90
_cell_angle_gamma                90
_cell_volume                     1068.23
loop_
_atom_site_label
_atom_site_type_symbol
_atom_site_fract_x
_atom_site_fract_y
_atom_site_fract_z
Hg1 Hg 0.2500 0.2500 0.35006(2)
S1 S 0.0709(2) 0.4291(2) 0.26881(14)
C1 C -0.0260(7) 0.5260(7) 0.3485(5)
N1 N -0.0963(7) 0.5963(7) 0.4004(5)
N2 N 0.3884(5) 0.3884(5) 0.4615(4)
C2 C 0.5613(6) 0.3570(6) 0.4615(4)
H1 H 0.607(9) 0.395(9) 0.406(3)
H2 H 0.579(8) 0.243(8) 0.465(4)
Hg1A Hg 0.7500 0.7500 0.64994(2)
S1O S 0.4291(2) 0.0709(2) 0.26881(14)
C1O C 0.5260(7) -0.0260(7) 0.3485(5)
N1O N 0.5963(7) -0.0963(7) 0.4004(5)
N2H N 0.6116(5) 0.6116(5) 0.5385(4)
N2I N 0.1116(5) 0.1116(5) 0.4615(4)
C2G C 0.6430(6) 0.4387(6) 0.5385(4)
C2H C 0.4387(6) 0.6430(6) 0.5385(4)
C2O C 0.3570(6) 0.5613(6) 0.4615(4)
H1O H 0.395(9) 0.607(9) 0.406(3)
H1H H 0.393(9) 0.605(9) 0.594(3)
H1G H 0.605(9) 0.393(9) 0.594(3)
H2O H 0.243(8) 0.579(8) 0.465(4)
H2H H 0.421(8) 0.757(8) 0.535(4)
H2G H 0.757(8) 0.421(8) 0.535(4)
loop_
_geom_bond_atom_site_label_1
_geom_bond_atom_site_label_2
_geom_bond_site_symmetry_1
_geom_bond_site_symmetry_2
Hg1 S1 1_555 1_555
S1 C1 1_555 1_555
C1 N1 1_555 1_555
N2 Hg1 1_555 1_555
C2 N2 1_555 1_555
H1 C2 1_555 1_555
H2 C2 1_555 1_555
Hg1A N2H 1_555 1_555
S1O Hg1 1_555 1_555
C1O S1O 1_555 1_555
N1O C1O 1_555 1_555
N2H C2G 1_555 1_555
N2I Hg1 1_555 1_555
C2G C2 1_555 1_555
C2H N2H 1_555 1_555
C2O N2 1_555 1_555
H1O C2O 1_555 1_555
H1H C2H 1_555 1_555
H1G C2G 1_555 1_555
H2O C2O 1_555 1_555
H2H C2H 1_555 1_555
H2G C2G 1_555 1_555
C2H C2O 1_555 1_555

#END
