
#######################################################################
#
#                 Cambridge Crystallographic Data Centre
#                                CCDC 
#
#######################################################################
#
# If this CIF has been generated from an entry in the Cambridge 
# Structural Database, then it will include bibliographic, chemical, 
# crystal, experimental, refinement or atomic coordinate data resulting 
# from the CCDC's data processing and validation procedures.
#
#######################################################################

data_QAYWUK
_symmetry_cell_setting           monoclinic
_symmetry_space_group_name_H-M   'P 21/c'
_symmetry_Int_Tables_number      14
_space_group_name_Hall           '-P 2ybc'
loop_
_symmetry_equiv_pos_site_id
_symmetry_equiv_pos_as_xyz
1 x,y,z
2 -x,1/2+y,1/2-z
3 -x,-y,-z
4 x,1/2-y,1/2+z
_cell_length_a                   7.837(12)
_cell_length_b                   18.02(3)
_cell_length_c                   10.191(15)
_cell_angle_alpha                90
_cell_angle_beta                 93.76(2)
_cell_angle_gamma                90
_cell_volume                     1436.1
loop_
_atom_site_label
_atom_site_type_symbol
_atom_site_fract_x
_atom_site_fract_y
_atom_site_fract_z
Cd1 Cd 0.62644(7) 0.79383(3) 0.40425(6)
C1 C 0.4430(9) 0.8863(5) 0.2313(10)
C2 C 0.3546(9) 0.9359(4) 0.1297(9)
C3 C 0.3636(10) 1.0120(5) 0.1441(9)
H1 H 0.4246 1.0320 0.2170
C4 C 0.2826(10) 1.0596(5) 0.0510(9)
C5 C 0.3011(10) 1.1447(5) 0.0685(10)
C6 C 0.1951(10) 1.0296(5) -0.0600(9)
H2 H 0.1429 1.0602 -0.1242
C7 C 0.1877(10) 0.9547(5) -0.0726(9)
C8 C 0.2614(9) 0.9047(5) 0.0183(9)
H3 H 0.2504 0.8537 0.0071
C9 C 0.3133(17) 0.8513(7) 0.5796(14)
H4 H 0.3519 0.8582 0.6702
H5 H 0.1912 0.8458 0.5727
H6 H 0.3449 0.8937 0.5295
C10 C 1.0131(14) 0.7725(8) 0.2961(14)
H7 H 1.0590 0.7749 0.3857
H8 H 1.0955 0.7918 0.2393
H9 H 0.9877 0.7219 0.2731
C11 C 0.8179(19) 0.9390(8) 0.5500(14)
H10 H 0.8887 0.9410 0.4767
H11 H 0.8799 0.9583 0.6269
H12 H 0.7169 0.9682 0.5309
F1 F 0.0989(7) 0.9240(3) -0.1803(5)
O1 O 0.5251(8) 0.9157(3) 0.3268(7)
O2 O 0.4376(8) 0.8155(3) 0.2173(6)
O3 O 0.2529(8) 1.1873(3) -0.0237(6)
O4 O 0.3662(8) 1.1684(3) 0.1763(6)
O5 O 0.3925(8) 0.7846(3) 0.5286(7)
H13 H 0.3958 0.7515 0.5838
O6 O 0.8588(8) 0.8161(4) 0.2815(6)
H14 H 0.8430 0.8198 0.2014
O7 O 0.7668(8) 0.8582(4) 0.5747(7)
H15 H 0.6808 0.8542 0.6158
Cd1A Cd 0.37356(7) 1.29383(3) 0.09575(6)
O3A O 0.7471(8) 0.6873(3) 0.5237(6)
O4A O 0.6338(8) 0.6684(3) 0.3237(6)
loop_
_geom_bond_atom_site_label_1
_geom_bond_atom_site_label_2
_geom_bond_site_symmetry_1
_geom_bond_site_symmetry_2
Cd1 O1 1_555 1_555
C1 C2 1_555 1_555
C2 C3 1_555 1_555
C3 H1 1_555 1_555
C4 C3 1_555 1_555
C5 C4 1_555 1_555
C6 C4 1_555 1_555
H2 C6 1_555 1_555
C7 C6 1_555 1_555
C8 C2 1_555 1_555
H3 C8 1_555 1_555
C9 H4 1_555 1_555
H5 C9 1_555 1_555
H6 C9 1_555 1_555
C10 H7 1_555 1_555
H8 C10 1_555 1_555
H9 C10 1_555 1_555
C11 H10 1_555 1_555
H11 C11 1_555 1_555
H12 C11 1_555 1_555
F1 C7 1_555 1_555
O1 C1 1_555 1_555
O2 Cd1 1_555 1_555
O3 C5 1_555 1_555
O4 C5 1_555 1_555
O5 Cd1 1_555 1_555
H13 O5 1_555 1_555
O6 Cd1 1_555 1_555
H14 O6 1_555 1_555
O7 Cd1 1_555 1_555
H15 O7 1_555 1_555
Cd1A O3 1_555 1_555
O3A Cd1 1_555 1_555
O4A Cd1 1_555 1_555
C1 O2 1_555 1_555
C7 C8 1_555 1_555
C9 O5 1_555 1_555
C10 O6 1_555 1_555
C11 O7 1_555 1_555
O4 Cd1A 1_555 1_555

#END
