
#######################################################################
#
#                 Cambridge Crystallographic Data Centre
#                                CCDC 
#
#######################################################################
#
# If this CIF has been generated from an entry in the Cambridge 
# Structural Database, then it will include bibliographic, chemical, 
# crystal, experimental, refinement or atomic coordinate data resulting 
# from the CCDC's data processing and validation procedures.
#
#######################################################################

data_QAZKIN
_symmetry_cell_setting           triclinic
_symmetry_space_group_name_H-M   'P -1'
_symmetry_Int_Tables_number      2
_space_group_name_Hall           '-P 1'
loop_
_symmetry_equiv_pos_site_id
_symmetry_equiv_pos_as_xyz
1 x,y,z
2 -x,-y,-z
_cell_length_a                   8.5360(17)
_cell_length_b                   10.367(2)
_cell_length_c                   11.278(2)
_cell_angle_alpha                101.85(3)
_cell_angle_beta                 92.35(3)
_cell_angle_gamma                102.60(3)
_cell_volume                     949.374
loop_
_atom_site_label
_atom_site_type_symbol
_atom_site_fract_x
_atom_site_fract_y
_atom_site_fract_z
Cd1 Cd 1.39777(3) 0.95890(3) 0.19109(3)
I1 I 1.51949(3) 1.18177(3) 0.37255(2)
I2 I 1.25364(3) 0.95482(3) -0.03212(3)
N1 N 0.4900(3) 0.7758(3) 0.2060(3)
N2 N 0.6398(4) 0.6361(3) 0.2410(3)
H1 H 0.7198 0.6087 0.2674
N3 N 0.9139(3) 0.8723(3) 0.3264(3)
N4 N 0.9970(4) 0.8509(4) 0.4224(3)
N5 N 1.1558(3) 0.8823(3) 0.2731(3)
C1 C 0.5009(4) 0.5555(4) 0.1744(3)
C2 C 0.4507(5) 0.4165(4) 0.1314(4)
H2 H 0.5140 0.3578 0.1454
C3 C 0.3019(5) 0.3706(4) 0.0669(4)
H3 H 0.2637 0.2779 0.0370
C4 C 0.2067(5) 0.4569(4) 0.0445(4)
H4 H 0.1070 0.4210 0.0001
C5 C 0.2572(4) 0.5949(4) 0.0868(4)
H5 H 0.1937 0.6531 0.0715
C6 C 0.4069(4) 0.6439(3) 0.1532(3)
C7 C 0.6271(4) 0.7650(4) 0.2570(3)
C8 C 0.7462(4) 0.8825(4) 0.3334(4)
H6 H 0.7344 0.9643 0.3085
H7 H 0.7213 0.8913 0.4174
C9 C 1.0092(4) 0.8916(4) 0.2397(3)
H8 H 0.9779 0.9092 0.1658
C10 C 1.1411(4) 0.8567(4) 0.3846(4)
H9 H 1.2265 0.8442 0.4313
Cd1_2 Cd 0.39777(3) 0.95890(3) 0.19109(3)
N1_2 N 1.4900(3) 0.7758(3) 0.2060(3)
N6 N 0.9479(4) 0.6010(4) 0.6719(3)
C11 C 0.9347(7) 0.7406(5) 0.6919(5)
H10 H 1.0245 0.7975 0.7457
H11 H 0.8362 0.7489 0.7276
H12 H 0.9346 0.7680 0.6156
C12 C 0.8190(6) 0.4991(6) 0.6009(5)
H13 H 0.8531 0.4158 0.5783
H14 H 0.7895 0.5274 0.5289
H15 H 0.7278 0.4857 0.6478
C13 C 1.0743(5) 0.5690(5) 0.7205(4)
H16 H 1.1543 0.6393 0.7665
O1 O 1.0934(4) 0.4545(4) 0.7095(4)
loop_
_geom_bond_atom_site_label_1
_geom_bond_atom_site_label_2
_geom_bond_site_symmetry_1
_geom_bond_site_symmetry_2
Cd1 I1 1_555 1_555
I2 Cd1 1_555 1_555
N1 C6 1_555 1_555
N2 H1 1_555 1_555
N3 N4 1_555 1_555
N4 C10 1_555 1_555
N5 Cd1 1_555 1_555
C1 N2 1_555 1_555
C2 C1 1_555 1_555
H2 C2 1_555 1_555
C3 C2 1_555 1_555
H3 C3 1_555 1_555
C4 C3 1_555 1_555
H4 C4 1_555 1_555
C5 C4 1_555 1_555
H5 C5 1_555 1_555
C6 C1 1_555 1_555
C7 N1 1_555 1_555
C8 N3 1_555 1_555
H6 C8 1_555 1_555
H7 C8 1_555 1_555
C9 N3 1_555 1_555
H8 C9 1_555 1_555
C10 N5 1_555 1_555
H9 C10 1_555 1_555
N6 C11 1_555 1_555
C11 H10 1_555 1_555
H11 C11 1_555 1_555
H12 C11 1_555 1_555
C12 N6 1_555 1_555
H13 C12 1_555 1_555
H14 C12 1_555 1_555
H15 C12 1_555 1_555
C13 N6 1_555 1_555
H16 C13 1_555 1_555
O1 C13 1_555 1_555
Cd1_2 N1 1_555 1_555
N1_2 Cd1 1_555 1_555
N2 C7 1_555 1_555
N5 C9 1_555 1_555
C5 C6 1_555 1_555
C7 C8 1_555 1_555

#END
