
#######################################################################
#
#                 Cambridge Crystallographic Data Centre
#                                CCDC 
#
#######################################################################
#
# If this CIF has been generated from an entry in the Cambridge 
# Structural Database, then it will include bibliographic, chemical, 
# crystal, experimental, refinement or atomic coordinate data resulting 
# from the CCDC's data processing and validation procedures.
#
#######################################################################

data_QAZMEL
_symmetry_cell_setting           monoclinic
_symmetry_space_group_name_H-M   'P 21/n'
_symmetry_Int_Tables_number      14
_space_group_name_Hall           '-P 2yn'
loop_
_symmetry_equiv_pos_site_id
_symmetry_equiv_pos_as_xyz
1 x,y,z
2 1/2-x,1/2+y,1/2-z
3 -x,-y,-z
4 1/2+x,1/2-y,1/2+z
_cell_length_a                   10.400(1)
_cell_length_b                   19.294(2)
_cell_length_c                   10.706(1)
_cell_angle_alpha                90
_cell_angle_beta                 96.94(1)
_cell_angle_gamma                90
_cell_volume                     2132.5
loop_
_atom_site_label
_atom_site_type_symbol
_atom_site_fract_x
_atom_site_fract_y
_atom_site_fract_z
Zn1 Zn 0.06783(3) 0.560888(14) 0.36908(3)
N1 N 0.22335(19) 0.56260(11) 0.52764(19)
C1 C 0.3176(2) 0.51530(14) 0.5458(3)
H1 H 0.3211 0.4801 0.4841
C2 C 0.4106(2) 0.51504(14) 0.6500(3)
H2 H 0.4755 0.4802 0.6597
C3 C 0.4073(2) 0.56678(14) 0.7407(2)
C4 C 0.3110(2) 0.61684(14) 0.7212(2)
H3 H 0.3061 0.6532 0.7803
C5 C 0.2224(2) 0.61283(14) 0.6143(2)
H4 H 0.1572 0.6475 0.6015
C6 C 0.5024(2) 0.56744(15) 0.8496(2)
C7 C 0.5869(2) 0.56650(15) 0.9358(2)
C8 C 0.6937(2) 0.56475(14) 1.0339(2)
C9 C 0.7891(3) 0.51438(14) 1.0322(2)
H5 H 0.7838 0.4806 0.9673
C10 C 0.8920(2) 0.51450(14) 1.1274(2)
H6 H 0.9568 0.4799 1.1260
N2 N 0.90487(19) 0.56088(12) 1.22133(18)
C11 C 0.8127(2) 0.60975(14) 1.2214(2)
H7 H 0.8208 0.6432 1.2871
C12 C 0.7069(2) 0.61364(14) 1.1305(2)
H8 H 0.6439 0.6491 1.1337
O1 O 0.10150(17) 0.46217(9) 0.33104(16)
O2 O 0.06229(17) 0.41447(10) 0.51260(16)
C13 C 0.1006(2) 0.41195(13) 0.4064(2)
C14 C 0.1532(2) 0.34460(12) 0.3656(2)
C15 C 0.2352(2) 0.34511(14) 0.2723(2)
H9 H 0.2551 0.3876 0.2341
C16 C 0.2878(3) 0.28376(15) 0.2351(2)
H10 H 0.3464 0.2844 0.1736
C17 C 0.2553(3) 0.22152(14) 0.2872(2)
C18 C 0.1736(3) 0.22097(14) 0.3799(3)
H11 H 0.1513 0.1781 0.4154
C19 C 0.1239(2) 0.28207(14) 0.4215(2)
H12 H 0.0704 0.2816 0.4874
C20 C 0.3128(3) 0.15557(16) 0.2418(3)
O3 O 0.3935(2) 0.16190(11) 0.1631(2)
O4 O 0.2806(2) 0.09844(11) 0.2801(2)
Zn1_2 Zn 1.06783(3) 0.560888(14) 1.36908(3)
Zn1B Zn -0.06783(3) 0.439112(14) 0.63092(3)
Zn1A Zn 0.43217(3) 0.060888(14) 0.13092(3)
N2_2 N -0.09513(19) 0.56088(12) 0.22133(18)
O2B O -0.06229(17) 0.58553(10) 0.48740(16)
O3A O 0.1065(2) 0.66190(11) 0.3369(2)
O4A O 0.2194(2) 0.59844(11) 0.2199(2)
O5 O 0.1590(5) 0.7505(4) 0.8003(5)
C21 C 0.0839(4) 0.7248(2) 0.8692(4)
H13 H 0.0752 0.6758 0.8687
N3 N 0.0148(4) 0.76033(18) 0.9434(4)
C22 C -0.0640(4) 0.7266(3) 1.0281(4)
H14 H -0.0531 0.6762 1.0231
H15 H -0.1553 0.7385 1.0040
H16 H -0.0371 0.7422 1.1144
C23 C 0.0158(4) 0.8354(2) 0.9420(4)
H17 H 0.0781 0.8517 0.8868
H18 H 0.0407 0.8528 1.0275
H19 H -0.0708 0.8526 0.9106
C24? C 0.0300(9) 0.6625(4) 0.9477(9)
C25? C -0.0617(8) 0.7692(5) 1.0279(8)
C26? C 0.0884(8) 0.7740(4) 0.8698(8)
H20? H 0.0655 0.6459 0.8724
H21? H -0.0564 0.6428 0.9502
H22? H 0.0870 0.6481 1.0229
H23? H -0.0589 0.8198 1.0190
H24? H -0.0313 0.7564 1.1150
H25? H -0.1508 0.7530 1.0060
H26? H 0.0927 0.8228 0.8813
N4? N 0.0213(8) 0.7375(3) 0.9443(7)
O6? O 0.1464(11) 0.7483(8) 0.7855(10)
loop_
_geom_bond_atom_site_label_1
_geom_bond_atom_site_label_2
_geom_bond_site_symmetry_1
_geom_bond_site_symmetry_2
Zn1 N1 1_555 1_555
N1 C1 1_555 1_555
C1 H1 1_555 1_555
C2 C1 1_555 1_555
H2 C2 1_555 1_555
C3 C2 1_555 1_555
C4 C3 1_555 1_555
H3 C4 1_555 1_555
C5 N1 1_555 1_555
H4 C5 1_555 1_555
C6 C3 1_555 1_555
C7 C6 1_555 1_555
C8 C7 1_555 1_555
C9 C8 1_555 1_555
H5 C9 1_555 1_555
C10 C9 1_555 1_555
H6 C10 1_555 1_555
N2 C10 1_555 1_555
C11 N2 1_555 1_555
H7 C11 1_555 1_555
C12 C8 1_555 1_555
H8 C12 1_555 1_555
O1 Zn1 1_555 1_555
O2 C13 1_555 1_555
C13 O1 1_555 1_555
C14 C13 1_555 1_555
C15 C14 1_555 1_555
H9 C15 1_555 1_555
C16 C15 1_555 1_555
H10 C16 1_555 1_555
C17 C16 1_555 1_555
C18 C17 1_555 1_555
H11 C18 1_555 1_555
C19 C14 1_555 1_555
H12 C19 1_555 1_555
C20 C17 1_555 1_555
O3 C20 1_555 1_555
O4 C20 1_555 1_555
O5 C21 1_555 1_555
C21 H13 1_555 1_555
N3 C21 1_555 1_555
C22 N3 1_555 1_555
H14 C22 1_555 1_555
H15 C22 1_555 1_555
H16 C22 1_555 1_555
C23 N3 1_555 1_555
H17 C23 1_555 1_555
H18 C23 1_555 1_555
H19 C23 1_555 1_555
Zn1_2 N2 1_555 1_555
Zn1B O2 1_555 1_555
Zn1A O3 1_555 1_555
N2_2 Zn1 1_555 1_555
O2B Zn1 1_555 1_555
O3A Zn1 1_555 1_555
O4A Zn1 1_555 1_555
C4 C5 1_555 1_555
C11 C12 1_555 1_555
C18 C19 1_555 1_555
O4 Zn1A 1_555 1_555

#END
