
#######################################################################
#
#                 Cambridge Crystallographic Data Centre
#                                CCDC 
#
#######################################################################
#
# If this CIF has been generated from an entry in the Cambridge 
# Structural Database, then it will include bibliographic, chemical, 
# crystal, experimental, refinement or atomic coordinate data resulting 
# from the CCDC's data processing and validation procedures.
#
#######################################################################

data_QECVAV
_symmetry_cell_setting           monoclinic
_symmetry_space_group_name_H-M   'P 21/c'
_symmetry_Int_Tables_number      14
_space_group_name_Hall           '-P 2ybc'
loop_
_symmetry_equiv_pos_site_id
_symmetry_equiv_pos_as_xyz
1 x,y,z
2 x,1/2-y,1/2+z
3 -x,-y,-z
4 -x,1/2+y,1/2-z
_cell_length_a                   11.9330(17)
_cell_length_b                   10.8035(10)
_cell_length_c                   18.755(3)
_cell_angle_alpha                90.00
_cell_angle_beta                 100.093(17)
_cell_angle_gamma                90.00
_cell_volume                     2380.44
loop_
_atom_site_label
_atom_site_type_symbol
_atom_site_fract_x
_atom_site_fract_y
_atom_site_fract_z
C1 C 0.1913(3) 0.5749(3) 0.26566(17)
C2 C 0.2384(3) 0.4806(3) 0.31378(19)
H1 H 0.1914 0.4199 0.3276
C3 C 0.3521(3) 0.4777(4) 0.34009(19)
H2 H 0.3820 0.4130 0.3702
C4 C 0.4256(3) 0.5709(4) 0.32261(18)
C5 C 0.5431(3) 0.5746(4) 0.3543(2)
H3 H 0.5741 0.5109 0.3849
C6 C 0.6101(4) 0.6690(5) 0.3406(2)
H4 H 0.6868 0.6690 0.3613
C7 C 0.5653(3) 0.7667(4) 0.2957(2)
H5 H 0.6115 0.8329 0.2881
C8 C 0.4528(3) 0.7648(4) 0.26279(18)
H6 H 0.4243 0.8299 0.2324
C9 C 0.3791(3) 0.6668(3) 0.27387(17)
C10 C 0.2600(3) 0.6630(3) 0.24096(16)
C11 C 0.2126(3) 0.7528(3) 0.18335(16)
C12 C 0.1154(3) 0.8214(3) 0.18838(18)
C13 C 0.0771(3) 0.9157(3) 0.13699(19)
H7 H 0.0154 0.9646 0.1431
C14 C 0.1289(3) 0.9356(3) 0.0795(2)
H8 H 0.1035 0.9994 0.0474
C15 C 0.2213(3) 0.8610(3) 0.06739(18)
C16 C 0.2721(3) 0.8764(4) 0.00540(19)
H9 H 0.2459 0.9387 -0.0276
C17 C 0.3583(3) 0.8026(4) -0.0071(2)
H10 H 0.3909 0.8144 -0.0481
C18 C 0.3981(3) 0.7081(4) 0.04208(18)
H11 H 0.4561 0.6562 0.0329
C19 C 0.3524(3) 0.6913(3) 0.10362(18)
H12 H 0.3804 0.6284 0.1357
C20 C 0.2630(3) 0.7681(3) 0.11940(17)
Li1 Li -0.0131(5) 0.4397(5) 0.2028(3)
O1 O 0.07669(18) 0.5773(2) 0.24409(12)
O2 O 0.05429(17) 0.8003(2) 0.24172(12)
O3 O -0.1584(2) 0.5116(2) 0.16128(14)
C21 C -0.2016(4) 0.6268(5) 0.1793(3)
H13 H -0.1581 0.6939 0.1631
H14 H -0.1969 0.6335 0.2313
C22 C -0.3209(5) 0.6334(7) 0.1427(4)
H15 H -0.3682 0.6663 0.1754
H16 H -0.3279 0.6869 0.1007
C23 C -0.3562(4) 0.5085(5) 0.1210(4)
H17 H -0.3930 0.5070 0.0706
H18 H -0.4093 0.4773 0.1504
C24 C -0.2512(4) 0.4320(4) 0.1317(3)
H19 H -0.2577 0.3643 0.1647
H20 H -0.2391 0.3976 0.0859
O4 O 0.0586(2) 0.3755(3) 0.12528(16)
C25 C 0.1408(4) 0.4434(4) 0.0978(2)
H21 H 0.2128 0.4398 0.1310
H22 H 0.1176 0.5294 0.0917
C26 C 0.1531(5) 0.3900(5) 0.0277(3)
H23 H 0.1306 0.4495 -0.0109
H24 H 0.2314 0.3660 0.0279
C27 C 0.0789(6) 0.2821(5) 0.0173(3)
H25 H 0.1221 0.2087 0.0095
H26 H 0.0192 0.2936 -0.0244
C28 C 0.0302(5) 0.2688(5) 0.0828(3)
H27 H -0.0519 0.2603 0.0706
H28 H 0.0606 0.1956 0.1094
O2C O -0.05429(17) 0.3003(2) 0.25828(12)
Li1C Li 0.0131(5) 0.9397(5) 0.2972(3)
loop_
_geom_bond_atom_site_label_1
_geom_bond_atom_site_label_2
_geom_bond_site_symmetry_1
_geom_bond_site_symmetry_2
C1 C2 1_555 1_555
C2 H1 1_555 1_555
C3 C2 1_555 1_555
H2 C3 1_555 1_555
C4 C3 1_555 1_555
C5 C4 1_555 1_555
H3 C5 1_555 1_555
C6 C5 1_555 1_555
H4 C6 1_555 1_555
C7 C6 1_555 1_555
H5 C7 1_555 1_555
C8 C7 1_555 1_555
H6 C8 1_555 1_555
C9 C4 1_555 1_555
C10 C1 1_555 1_555
C11 C10 1_555 1_555
C12 C11 1_555 1_555
C13 C12 1_555 1_555
H7 C13 1_555 1_555
C14 C13 1_555 1_555
H8 C14 1_555 1_555
C15 C14 1_555 1_555
C16 C15 1_555 1_555
H9 C16 1_555 1_555
C17 C16 1_555 1_555
H10 C17 1_555 1_555
C18 C17 1_555 1_555
H11 C18 1_555 1_555
C19 C18 1_555 1_555
H12 C19 1_555 1_555
C20 C11 1_555 1_555
Li1 O1 1_555 1_555
O1 C1 1_555 1_555
O2 C12 1_555 1_555
O3 Li1 1_555 1_555
C21 O3 1_555 1_555
H13 C21 1_555 1_555
H14 C21 1_555 1_555
C22 C21 1_555 1_555
H15 C22 1_555 1_555
H16 C22 1_555 1_555
C23 C22 1_555 1_555
H17 C23 1_555 1_555
H18 C23 1_555 1_555
C24 O3 1_555 1_555
H19 C24 1_555 1_555
H20 C24 1_555 1_555
O4 Li1 1_555 1_555
C25 O4 1_555 1_555
H21 C25 1_555 1_555
H22 C25 1_555 1_555
C26 C25 1_555 1_555
H23 C26 1_555 1_555
H24 C26 1_555 1_555
C27 C26 1_555 1_555
H25 C27 1_555 1_555
H26 C27 1_555 1_555
C28 O4 1_555 1_555
H27 C28 1_555 1_555
H28 C28 1_555 1_555
O2C Li1 1_555 1_555
Li1C O2 1_555 1_555
C8 C9 1_555 1_555
C9 C10 1_555 1_555
C15 C20 1_555 1_555
C19 C20 1_555 1_555
C23 C24 1_555 1_555
C27 C28 1_555 1_555

#END
