
#######################################################################
#
#                 Cambridge Crystallographic Data Centre
#                                CCDC 
#
#######################################################################
#
# If this CIF has been generated from an entry in the Cambridge 
# Structural Database, then it will include bibliographic, chemical, 
# crystal, experimental, refinement or atomic coordinate data resulting 
# from the CCDC's data processing and validation procedures.
#
#######################################################################

data_QEFSOL
_symmetry_cell_setting           monoclinic
_symmetry_space_group_name_H-M   'C 2/c'
_symmetry_Int_Tables_number      15
_space_group_name_Hall           '-C 2yn'
loop_
_symmetry_equiv_pos_site_id
_symmetry_equiv_pos_as_xyz
1 x,y,z
2 -x,y,1/2-z
3 1/2+x,1/2+y,z
4 1/2-x,1/2+y,1/2-z
5 -x,-y,-z
6 x,-y,1/2+z
7 1/2-x,1/2-y,-z
8 1/2+x,1/2-y,1/2+z
_cell_length_a                   22.657(2)
_cell_length_b                   9.4964(9)
_cell_length_c                   20.628(2)
_cell_angle_alpha                90
_cell_angle_beta                 91.0830(10)
_cell_angle_gamma                90
_cell_volume                     4437.53
loop_
_atom_site_label
_atom_site_type_symbol
_atom_site_fract_x
_atom_site_fract_y
_atom_site_fract_z
Zn1 Zn 0.24986(2) 0.20548(4) 0.15748(2)
Cl1 Cl 0.33537(6) 0.16248(17) 0.20767(7)
O1 O 0.05507(15) 0.0686(3) 0.40881(16)
N1 N 0.18594(15) 0.2005(3) 0.22767(15)
C1 C 0.1895(2) 0.1083(5) 0.27616(19)
H1 H 0.2227 0.0473 0.2785
Cl2 Cl 0.23552(6) 0.39780(11) 0.09985(6)
O2 O -0.15360(16) 0.6641(3) 0.55180(14)
N2 N 0.01964(15) 0.2863(3) 0.38341(17)
H2 H 0.0212 0.3524 0.3536
C2 C 0.1476(2) 0.0970(4) 0.3228(2)
H3 H 0.1513 0.0274 0.3557
N3 N -0.04885(13) 0.4323(3) 0.42521(15)
C3 C 0.09983(18) 0.1878(4) 0.32173(19)
N4 N -0.11424(14) 0.5999(3) 0.45563(16)
H4 H -0.1097 0.6307 0.4158
C4 C 0.0954(2) 0.2825(5) 0.2707(2)
H5 H 0.0626 0.3443 0.2670
N5 N -0.22533(14) 1.0342(3) 0.39631(14)
C5 C 0.1394(2) 0.2855(5) 0.2254(2)
H6 H 0.1362 0.3515 0.1909
C6 C 0.05633(18) 0.1751(4) 0.3752(2)
C7 C -0.02044(17) 0.3095(4) 0.4333(2)
C8 C -0.0295(2) 0.2217(4) 0.4858(2)
H7 H -0.0092 0.1346 0.4902
C9 C -0.0690(2) 0.2657(5) 0.5313(2)
H8 H -0.0766 0.2070 0.5675
C10 C -0.09775(19) 0.3925(4) 0.5257(2)
H9 H -0.1240 0.4245 0.5579
C11 C -0.08663(17) 0.4718(4) 0.47056(18)
C12 C -0.14690(17) 0.6823(4) 0.4942(2)
C13 C -0.17509(17) 0.8057(4) 0.45919(19)
C14 C -0.1688(2) 0.9384(4) 0.4830(2)
H10 H -0.1476 0.9542 0.5225
C15 C -0.2085(2) 0.7876(4) 0.4031(2)
H11 H -0.2139 0.6965 0.3848
C16 C -0.2336(2) 0.9038(4) 0.3741(2)
H12 H -0.2580 0.8907 0.3366
C17 C -0.19325(14) 1.0490(3) 0.44955(12)
H13 H -0.1867 1.1414 0.4657
Zn1A Zn -0.24986(2) 1.20548(4) 0.34252(2)
N5A N 0.22533(14) 0.0342(3) 0.10369(14)
O3 O -0.08081(14) 0.7262(3) 0.32981(12)
C18 C -0.06861(14) 0.8801(3) 0.33273(12)
H14 H -0.1059 0.9321 0.3300
H15 H -0.0437 0.9069 0.2964
H16 H -0.0481 0.9026 0.3737
H17 H -0.106(3) 0.694(9) 0.303(3)
O4 O 0.02389(14) 0.5584(3) 0.31403(12)
loop_
_geom_bond_atom_site_label_1
_geom_bond_atom_site_label_2
_geom_bond_site_symmetry_1
_geom_bond_site_symmetry_2
Zn1 Cl1 1_555 1_555
O1 C6 1_555 1_555
N1 Zn1 1_555 1_555
C1 N1 1_555 1_555
H1 C1 1_555 1_555
Cl2 Zn1 1_555 1_555
O2 C12 1_555 1_555
N2 H2 1_555 1_555
C2 C1 1_555 1_555
H3 C2 1_555 1_555
N3 C7 1_555 1_555
C3 C2 1_555 1_555
N4 H4 1_555 1_555
C4 C3 1_555 1_555
H5 C4 1_555 1_555
N5 C16 1_555 1_555
C5 N1 1_555 1_555
H6 C5 1_555 1_555
C6 N2 1_555 1_555
C7 N2 1_555 1_555
C8 C7 1_555 1_555
H7 C8 1_555 1_555
C9 C8 1_555 1_555
H8 C9 1_555 1_555
C10 C9 1_555 1_555
H9 C10 1_555 1_555
C11 N3 1_555 1_555
C12 N4 1_555 1_555
C13 C12 1_555 1_555
C14 C13 1_555 1_555
H10 C14 1_555 1_555
C15 C13 1_555 1_555
H11 C15 1_555 1_555
C16 C15 1_555 1_555
H12 C16 1_555 1_555
C17 N5 1_555 1_555
H13 C17 1_555 1_555
O3 C18 1_555 1_555
C18 H14 1_555 1_555
H15 C18 1_555 1_555
H16 C18 1_555 1_555
H17 O3 1_555 1_555
Zn1A N5 1_555 1_555
N5A Zn1 1_555 1_555
C3 C6 1_555 1_555
N4 C11 1_555 1_555
C4 C5 1_555 1_555
C10 C11 1_555 1_555
C14 C17 1_555 1_555

#END
