
#######################################################################
#
#                 Cambridge Crystallographic Data Centre
#                                CCDC 
#
#######################################################################
#
# If this CIF has been generated from an entry in the Cambridge 
# Structural Database, then it will include bibliographic, chemical, 
# crystal, experimental, refinement or atomic coordinate data resulting 
# from the CCDC's data processing and validation procedures.
#
#######################################################################

data_QEFZOQ
_symmetry_cell_setting           monoclinic
_symmetry_space_group_name_H-M   'P c'
_symmetry_Int_Tables_number      7
_space_group_name_Hall           'P -2yc'
loop_
_symmetry_equiv_pos_site_id
_symmetry_equiv_pos_as_xyz
1 x,y,z
2 x,-y,1/2+z
_cell_length_a                   9.2499(12)
_cell_length_b                   7.1344(10)
_cell_length_c                   7.1947(11)
_cell_angle_alpha                90
_cell_angle_beta                 100.328(3)
_cell_angle_gamma                90
_cell_volume                     467.103
loop_
_atom_site_label
_atom_site_type_symbol
_atom_site_fract_x
_atom_site_fract_y
_atom_site_fract_z
S1 S 0.9099(2) 0.4579(4) 0.0614(2)
Al1 Al 1.0691(3) 0.5536(4) -0.1400(3)
C1 C 0.7780(13) 0.6383(17) 0.0515(15)
C2 C 0.6386(13) 0.6027(18) -0.0377(16)
C3 C 0.5302(15) 0.7370(21) -0.0501(17)
C4 C 0.5646(15) 0.9146(21) 0.0327(21)
C5 C 0.7017(13) 0.9477(16) 0.1239(15)
C6 C 0.8103(12) 0.8171(14) 0.1322(13)
C7 C 1.2228(13) 0.3611(17) -0.1084(19)
C8 C 1.1130(13) 0.8202(13) -0.1222(14)
H1 H 0.6159(13) 0.4855(18) -0.0915(16)
H2 H 0.4353(15) 0.7109(21) -0.1124(17)
H3 H 0.4930(15) 1.0074(21) 0.0242(21)
H4 H 0.7233(13) 1.0628(16) 0.1830(15)
H5 H 0.9057(12) 0.8459(14) 0.1910(13)
H6 H 1.2664(47) 0.3561(62) -0.2198(39)
H7 H 1.1805(18) 0.2414(22) -0.0888(90)
H8 H 1.2969(37) 0.3914(49) -0.0011(55)
H9 H 1.0233(14) 0.8897(14) -0.1298(85)
H10 H 1.1613(60) 0.8563(22) -0.2242(51)
H11 H 1.1761(55) 0.8461(19) -0.0039(39)
Al1A Al 1.0691(3) 0.4464(4) 0.3600(3)
S1A S 0.9099(2) 0.5421(4) -0.4386(2)
loop_
_geom_bond_atom_site_label_1
_geom_bond_atom_site_label_2
_geom_bond_site_symmetry_1
_geom_bond_site_symmetry_2
S1 Al1 1_555 1_555
Al1 C7 1_555 1_555
C1 S1 1_555 1_555
C2 C1 1_555 1_555
C3 C2 1_555 1_555
C4 C3 1_555 1_555
C5 C4 1_555 1_555
C6 C1 1_555 1_555
C7 H6 1_555 1_555
C8 Al1 1_555 1_555
H1 C2 1_555 1_555
H2 C3 1_555 1_555
H3 C4 1_555 1_555
H4 C5 1_555 1_555
H5 C6 1_555 1_555
H7 C7 1_555 1_555
H8 C7 1_555 1_555
H9 C8 1_555 1_555
H10 C8 1_555 1_555
H11 C8 1_555 1_555
Al1A S1 1_555 1_555
S1A Al1 1_555 1_555
C5 C6 1_555 1_555

#END
