
#######################################################################
#
#                 Cambridge Crystallographic Data Centre
#                                CCDC 
#
#######################################################################
#
# If this CIF has been generated from an entry in the Cambridge 
# Structural Database, then it will include bibliographic, chemical, 
# crystal, experimental, refinement or atomic coordinate data resulting 
# from the CCDC's data processing and validation procedures.
#
#######################################################################

data_QEGCUA
_symmetry_cell_setting           orthorhombic
_symmetry_space_group_name_H-M   'P 21 21 2'
_symmetry_Int_Tables_number      18
_space_group_name_Hall           'P 2 2ab'
loop_
_symmetry_equiv_pos_site_id
_symmetry_equiv_pos_as_xyz
1 x,y,z
2 -x,-y,z
3 1/2-x,1/2+y,-z
4 1/2+x,1/2-y,-z
_cell_length_a                   13.614(5)
_cell_length_b                   28.871(10)
_cell_length_c                   11.523(5)
_cell_angle_alpha                90
_cell_angle_beta                 90
_cell_angle_gamma                90
_cell_volume                     4529.11
loop_
_atom_site_label
_atom_site_type_symbol
_atom_site_fract_x
_atom_site_fract_y
_atom_site_fract_z
Ag1 Ag -0.27940(3) 0.739720(10) -0.50419(3)
N1 N -0.2162(3) 0.41415(11) -0.4537(3)
C1 C -0.2537(3) 0.38687(15) -0.3698(4)
C2 C -0.2988(3) 0.40000(14) -0.2551(4)
H1 H -0.2779 0.4305 -0.2221
C3 C -0.4104(3) 0.39359(15) -0.2743(4)
H2 H -0.4324 0.4099 -0.3452
H3 H -0.4483 0.4053 -0.2071
C4 C -0.4221(3) 0.34020(15) -0.2874(4)
H4 H -0.4662 0.3276 -0.2269
H5 H -0.4488 0.3321 -0.3647
C5 C -0.3162(3) 0.32126(14) -0.2726(4)
C6 C -0.2625(3) 0.33869(15) -0.3797(4)
C7 C -0.2740(4) 0.35605(15) -0.1797(4)
C8 C -0.1630(3) 0.35090(18) -0.1590(5)
H6 H -0.1412 0.3741 -0.1025
H7 H -0.1278 0.3555 -0.2324
H8 H -0.1490 0.3198 -0.1290
C9 C -0.3254(4) 0.35421(16) -0.0627(4)
H9 H -0.2970 0.3776 -0.0111
H10 H -0.3166 0.3234 -0.0284
H11 H -0.3956 0.3604 -0.0731
C10 C -0.3093(3) 0.26985(13) -0.2470(4)
H12 H -0.3375 0.2523 -0.3117
H13 H -0.3458 0.2629 -0.1758
H14 H -0.2403 0.2612 -0.2368
N2 N -0.2300(3) 0.31493(11) -0.4731(3)
C11 C -0.1888(3) 0.34218(14) -0.5550(4)
C12 C -0.1486(3) 0.32818(14) -0.6712(4)
H15 H -0.1270 0.2952 -0.6782
C13 C -0.2267(4) 0.34446(14) -0.7610(4)
H16 H -0.2932 0.3334 -0.7399
H17 H -0.2104 0.3336 -0.8402
C14 C -0.2193(4) 0.39879(14) -0.7520(4)
H18 H -0.2013 0.4126 -0.8277
H19 H -0.2824 0.4123 -0.7259
C15 C -0.1371(3) 0.40711(14) -0.6604(4)
C16 C -0.1823(3) 0.39066(14) -0.5469(4)
C17 C -0.0659(3) 0.36532(14) -0.6858(4)
C18 C 0.0155(3) 0.36051(16) -0.5957(4)
H20 H 0.0558 0.3334 -0.6141
H21 H -0.0137 0.3567 -0.5185
H22 H 0.0566 0.3884 -0.5965
C19 C -0.0207(3) 0.36584(17) -0.8082(4)
H23 H 0.0211 0.3385 -0.8183
H24 H 0.0189 0.3939 -0.8179
H25 H -0.0733 0.3655 -0.8663
C20 C -0.0910(4) 0.45525(14) -0.6612(4)
H26 H -0.0390 0.4567 -0.6024
H27 H -0.1414 0.4785 -0.6438
H28 H -0.0628 0.4615 -0.7379
Ag2 Ag -0.2117(3) 0.49129(12) -0.4228(3)
N3 N -0.2737(3) 0.66517(10) -0.4715(3)
C21 C -0.3039(3) 0.63556(13) -0.5537(4)
C22 C -0.3489(3) 0.64482(15) -0.6702(4)
H29 H -0.3806 0.6758 -0.6797
C23 C -0.2684(4) 0.63271(16) -0.7608(4)
H30 H -0.2891 0.6417 -0.8400
H31 H -0.2056 0.6484 -0.7421
C24 C -0.2581(3) 0.57950(15) -0.7504(4)
H32 H -0.2738 0.5641 -0.8249
H33 H -0.1908 0.5707 -0.7265
C25 C -0.3338(3) 0.56659(14) -0.6557(4)
C26 C -0.2937(3) 0.58695(13) -0.5441(4)
C27 C -0.4188(3) 0.60245(15) -0.6801(4)
C28 C -0.4996(3) 0.60326(17) -0.5881(4)
H34 H -0.5408 0.5756 -0.5963
H35 H -0.5401 0.6310 -0.5984
H36 H -0.4698 0.6036 -0.5107
C29 C -0.4677(3) 0.59742(18) -0.7997(4)
H37 H -0.5088 0.5695 -0.8005
H38 H -0.4169 0.5949 -0.8596
H39 H -0.5086 0.6247 -0.8152
C30 C -0.3629(4) 0.51541(15) -0.6499(5)
H40 H -0.4120 0.5110 -0.5886
H41 H -0.3047 0.4967 -0.6327
H42 H -0.3907 0.5058 -0.7246
N4 N -0.2497(2) 0.56660(12) -0.4522(3)
C31 C -0.2251(4) 0.59621(14) -0.3663(4)
C32 C -0.1765(3) 0.58716(15) -0.2524(4)
H43 H -0.1814 0.5548 -0.2223
C33 C -0.0704(3) 0.60712(15) -0.2655(4)
H44 H -0.0293 0.5992 -0.1974
H45 H -0.0383 0.5953 -0.3367
C34 C -0.0879(3) 0.65987(15) -0.2731(4)
H46 H -0.0634 0.6723 -0.3478
H47 H -0.0543 0.6762 -0.2088
C35 C -0.2023(3) 0.66592(13) -0.2638(4)
C36 C -0.2394(3) 0.64438(14) -0.3762(4)
C37 C -0.2268(4) 0.62534(15) -0.1773(4)
C38 C -0.1806(4) 0.63123(17) -0.0575(4)
H48 H -0.1979 0.6047 -0.0086
H49 H -0.2051 0.6598 -0.0217
H50 H -0.1090 0.6330 -0.0652
C39 C -0.3378(4) 0.61828(17) -0.1613(5)
H51 H -0.3493 0.5925 -0.1076
H52 H -0.3679 0.6112 -0.2365
H53 H -0.3670 0.6466 -0.1296
C40 C -0.2392(3) 0.71401(14) -0.2333(4)
H54 H -0.3111 0.7137 -0.2298
H55 H -0.2177 0.7360 -0.2928
H56 H -0.2126 0.7233 -0.1578
Ag1B Ag -0.22060(3) 0.239720(10) -0.49581(3)
N2B N -0.2700(3) 0.81493(11) -0.5269(3)
N5 N -0.5000 0.0000 -0.6877(7)
O1 O -0.4247(3) -0.01197(13) -0.7391(4)
O2 O -0.5000 0.0000 -0.5798(6)
O1A O -0.5753(3) 0.01197(13) -0.7391(4)
N6 N 0.0034(4) 0.23953(16) -0.4298(5)
O3 O -0.0233(4) 0.24277(15) -0.5357(4)
O4 O -0.0581(2) 0.25026(12) -0.3526(4)
O5 O 0.0852(3) 0.22578(15) -0.4068(5)
C41 C -0.5380(7) 0.2726(3) -0.9439(8)
H57 H -0.5990 0.2711 -0.8991
H58 H -0.5288 0.2435 -0.9863
H59 H -0.5416 0.2984 -0.9991
O9 O -0.4583(4) 0.2796(2) -0.8682(6)
H60 H -0.4719 0.2685 -0.8028
O10 O -0.1646(9) -0.0060(3) -0.0018(9)
H61 H -0.1981 0.0006 0.0819
H62 H -0.2616 -0.0105 -0.0080
O11 O -0.0519(19) 0.4844(8) -0.9974(9)
H63 H -0.0999 0.4719 -1.0455
C42 C 0.0519(19) 0.5156(8) -0.9974(9)
H63A H 0.0999 0.5281 -1.0455
Ag3? Ag 0.739(3) -0.0103(3) 0.4350(12)
N7? N 0.5764(16) 0.5042(4) 0.7183(12)
O6? O 0.5000 0.5000 0.8050(11)
O7? O 0.6681(7) 0.5063(3) 0.7617(14)
O8? O 0.5448(8) 0.5047(4) 0.6331(12)
H64? H 0.9529 0.4599 0.0613
H65? H 0.9386 0.4704 -0.0741
H66? H 0.8923 0.5045 0.0207
loop_
_geom_bond_atom_site_label_1
_geom_bond_atom_site_label_2
_geom_bond_site_symmetry_1
_geom_bond_site_symmetry_2
Ag1 N3 1_555 1_555
N1 C1 1_555 1_555
C1 C2 1_555 1_555
C2 H1 1_555 1_555
C3 C2 1_555 1_555
H2 C3 1_555 1_555
H3 C3 1_555 1_555
C4 C3 1_555 1_555
H4 C4 1_555 1_555
H5 C4 1_555 1_555
C5 C4 1_555 1_555
C6 C1 1_555 1_555
C7 C2 1_555 1_555
C8 C7 1_555 1_555
H6 C8 1_555 1_555
H7 C8 1_555 1_555
H8 C8 1_555 1_555
C9 C7 1_555 1_555
H9 C9 1_555 1_555
H10 C9 1_555 1_555
H11 C9 1_555 1_555
C10 C5 1_555 1_555
H12 C10 1_555 1_555
H13 C10 1_555 1_555
H14 C10 1_555 1_555
N2 C6 1_555 1_555
C11 N2 1_555 1_555
C12 C11 1_555 1_555
H15 C12 1_555 1_555
C13 C12 1_555 1_555
H16 C13 1_555 1_555
H17 C13 1_555 1_555
C14 C13 1_555 1_555
H18 C14 1_555 1_555
H19 C14 1_555 1_555
C15 C14 1_555 1_555
C16 N1 1_555 1_555
C17 C12 1_555 1_555
C18 C17 1_555 1_555
H20 C18 1_555 1_555
H21 C18 1_555 1_555
H22 C18 1_555 1_555
C19 C17 1_555 1_555
H23 C19 1_555 1_555
H24 C19 1_555 1_555
H25 C19 1_555 1_555
C20 C15 1_555 1_555
H26 C20 1_555 1_555
H27 C20 1_555 1_555
H28 C20 1_555 1_555
Ag2 N1 1_555 1_555
N3 C21 1_555 1_555
C21 C22 1_555 1_555
C22 H29 1_555 1_555
C23 C22 1_555 1_555
H30 C23 1_555 1_555
H31 C23 1_555 1_555
C24 C23 1_555 1_555
H32 C24 1_555 1_555
H33 C24 1_555 1_555
C25 C24 1_555 1_555
C26 C21 1_555 1_555
C27 C22 1_555 1_555
C28 C27 1_555 1_555
H34 C28 1_555 1_555
H35 C28 1_555 1_555
H36 C28 1_555 1_555
C29 C27 1_555 1_555
H37 C29 1_555 1_555
H38 C29 1_555 1_555
H39 C29 1_555 1_555
C30 C25 1_555 1_555
H40 C30 1_555 1_555
H41 C30 1_555 1_555
H42 C30 1_555 1_555
N4 Ag2 1_555 1_555
C31 N4 1_555 1_555
C32 C31 1_555 1_555
H43 C32 1_555 1_555
C33 C32 1_555 1_555
H44 C33 1_555 1_555
H45 C33 1_555 1_555
C34 C33 1_555 1_555
H46 C34 1_555 1_555
H47 C34 1_555 1_555
C35 C34 1_555 1_555
C36 N3 1_555 1_555
C37 C32 1_555 1_555
C38 C37 1_555 1_555
H48 C38 1_555 1_555
H49 C38 1_555 1_555
H50 C38 1_555 1_555
C39 C37 1_555 1_555
H51 C39 1_555 1_555
H52 C39 1_555 1_555
H53 C39 1_555 1_555
C40 C35 1_555 1_555
H54 C40 1_555 1_555
H55 C40 1_555 1_555
H56 C40 1_555 1_555
N5 O1 1_555 1_555
O2 N5 1_555 1_555
N6 O3 1_555 1_555
O4 N6 1_555 1_555
O5 N6 1_555 1_555
C41 H57 1_555 1_555
H58 C41 1_555 1_555
H59 C41 1_555 1_555
O9 C41 1_555 1_555
H60 O9 1_555 1_555
O10 H61 1_555 1_555
H62 O10 1_555 1_555
O11 H63 1_555 1_555
C42 O11 1_555 1_555
Ag1B N2 1_555 1_555
N2B Ag1 1_555 1_555
O1A N5 1_555 1_555
H63A C42 1_555 1_555
C5 C7 1_555 1_555
C5 C6 1_555 1_555
C11 C16 1_555 1_555
C15 C17 1_555 1_555
C15 C16 1_555 1_555
C25 C27 1_555 1_555
C25 C26 1_555 1_555
C26 N4 1_555 1_555
C31 C36 1_555 1_555
C35 C37 1_555 1_555
C35 C36 1_555 1_555

#END
