
#######################################################################
#
#                 Cambridge Crystallographic Data Centre
#                                CCDC 
#
#######################################################################
#
# If this CIF has been generated from an entry in the Cambridge 
# Structural Database, then it will include bibliographic, chemical, 
# crystal, experimental, refinement or atomic coordinate data resulting 
# from the CCDC's data processing and validation procedures.
#
#######################################################################

data_QEGPUP
_symmetry_cell_setting           monoclinic
_symmetry_space_group_name_H-M   'C 2/m'
_symmetry_Int_Tables_number      12
_space_group_name_Hall           '-C 2y'
loop_
_symmetry_equiv_pos_site_id
_symmetry_equiv_pos_as_xyz
1 x,y,z
2 -x,y,-z
3 1/2+x,1/2+y,z
4 1/2-x,1/2+y,-z
5 -x,-y,-z
6 x,-y,z
7 1/2-x,1/2-y,-z
8 1/2+x,1/2-y,z
_cell_length_a                   8.328(5)
_cell_length_b                   14.080(9)
_cell_length_c                   5.353(3)
_cell_angle_alpha                90
_cell_angle_beta                 111.469(8)
_cell_angle_gamma                90
_cell_volume                     584.132
loop_
_atom_site_label
_atom_site_type_symbol
_atom_site_fract_x
_atom_site_fract_y
_atom_site_fract_z
Pr1 Pr 0.0000 0.22707(5) 0.5000
P1 P 0.2460(3) 0.38915(14) 0.8719(4)
O1 O 0.2906(7) 0.3095(4) 0.7112(10)
O2 O 0.0492(7) 0.3731(4) 0.8127(11)
O3 O 0.3525(7) 0.3872(4) 1.1688(11)
C1 C 0.2743(13) 0.5000 0.728(2)
H1 H 0.1938 0.5000 0.5383
H2 H 0.3925 0.5000 0.7250
Pr1F Pr 0.5000 0.27293(5) 0.5000
Pr1F_2 Pr 0.5000 0.27293(5) 1.5000
Pr1D Pr 0.0000 0.77293(5) 0.5000
Pr1B Pr 0.5000 0.72707(5) 0.5000
Pr1B_2 Pr 0.5000 0.72707(5) 1.5000
P1E P 0.2460(3) 0.61085(14) 0.8719(4)
O1E O 0.2906(7) 0.6905(4) 0.7112(10)
O1A O -0.2906(7) 0.3095(4) 0.2888(10)
O1F O 0.2094(7) 0.1905(4) 0.2888(10)
O1G O -0.2094(7) 0.1905(4) 0.7112(10)
O2E O 0.0492(7) 0.6269(4) 0.8127(11)
O2A O -0.0492(7) 0.3731(4) 0.1873(11)
O3E O 0.3525(7) 0.6128(4) 1.1688(11)
O3F O 0.1475(7) 0.1128(4) 0.8312(11)
O3G O -0.1475(7) 0.1128(4) 0.1688(11)
loop_
_geom_bond_atom_site_label_1
_geom_bond_atom_site_label_2
_geom_bond_site_symmetry_1
_geom_bond_site_symmetry_2
Pr1 O1 1_555 1_555
P1 O1 1_555 1_555
O1 Pr1F 1_555 1_555
O2 Pr1 1_555 1_555
O3 P1 1_555 1_555
C1 P1 1_555 1_555
H1 C1 1_555 1_555
H2 C1 1_555 1_555
Pr1F O1F 1_555 1_555
Pr1F_2 O3 1_555 1_555
Pr1D O1E 1_555 1_555
Pr1B O1E 1_555 1_555
Pr1B_2 O3E 1_555 1_555
P1E C1 1_555 1_555
O1E P1E 1_555 1_555
O1A Pr1 1_555 1_555
O1F Pr1 1_555 1_555
O1G Pr1 1_555 1_555
O2E Pr1D 1_555 1_555
O2A Pr1 1_555 1_555
O3E P1E 1_555 1_555
O3F Pr1 1_555 1_555
O3G Pr1 1_555 1_555
P1 O2 1_555 1_555
P1E O2E 1_555 1_555

#END
