
#######################################################################
#
#                 Cambridge Crystallographic Data Centre
#                                CCDC 
#
#######################################################################
#
# If this CIF has been generated from an entry in the Cambridge 
# Structural Database, then it will include bibliographic, chemical, 
# crystal, experimental, refinement or atomic coordinate data resulting 
# from the CCDC's data processing and validation procedures.
#
#######################################################################

data_QEGQAV
_symmetry_cell_setting           monoclinic
_symmetry_space_group_name_H-M   'P c'
_symmetry_Int_Tables_number      7
_space_group_name_Hall           'P -2yc'
loop_
_symmetry_equiv_pos_site_id
_symmetry_equiv_pos_as_xyz
1 x,y,z
2 x,-y,1/2+z
_cell_length_a                   11.9414(9)
_cell_length_b                   12.588(2)
_cell_length_c                   7.3551(15)
_cell_angle_alpha                90
_cell_angle_beta                 96.961(15)
_cell_angle_gamma                90
_cell_volume                     1097.46
loop_
_atom_site_label
_atom_site_type_symbol
_atom_site_fract_x
_atom_site_fract_y
_atom_site_fract_z
Hg1 Hg 0.96869(4) 0.12772(5) 0.75582(4)
O1 O 0.4081(9) 0.2877(10) 0.625(2)
O2 O 1.0898(12) 0.4743(12) 1.462(2)
O3 O 0.8911(9) 0.2326(9) 1.0834(16)
O4 O 0.7960(9) 0.3158(9) 0.7180(17)
O5 O 0.9943(9) -0.0498(10) 0.9323(17)
O6 O 1.1345(10) -0.1585(8) 0.9868(17)
O7 O 1.1422(12) -0.0332(11) 0.7868(19)
N1 N 0.6019(11) 0.3014(9) 0.673(2)
N2 N 0.9875(19) 0.3574(9) 1.272(4)
N3 N 0.5097(8) 0.1349(11) 0.6029(17)
N4 N 1.1860(10) 0.3870(9) 1.2646(17)
N5 N 0.7987(8) 0.0772(10) 0.6779(19)
N6 N 1.1035(9) 0.2149(9) 0.8968(19)
N7 N 0.6464(9) -0.0151(10) 0.6112(18)
N8 N 1.2596(9) 0.2908(9) 1.0093(19)
N9 N 1.0934(9) -0.0817(9) 0.8997(17)
C1 C 0.7124(15) 0.2595(12) 0.687(3)
C2 C 0.5873(15) 0.4191(12) 0.694(3)
C3 C 0.8888(18) 0.388(2) 1.357(3)
C4 C 0.5032(12) 0.2455(13) 0.632(2)
C5 C 1.0877(14) 0.4103(13) 1.337(3)
C6 C 0.4045(12) 0.0731(16) 0.544(3)
C7 C 1.2901(14) 0.4468(13) 1.324(3)
C8 C 0.6195(11) 0.0905(11) 0.626(2)
C9 C 1.1802(11) 0.3197(9) 1.1162(19)
C10 C 0.7121(9) 0.1474(10) 0.666(2)
C11 C 1.0803(10) 0.2729(9) 1.0538(18)
C12 C 0.9816(11) 0.2834(9) 1.131(2)
C13 C 0.7602(11) -0.0181(13) 0.641(2)
C14 C 1.2093(14) 0.2228(17) 0.871(3)
Hg1A Hg 0.96869(4) -0.12772(5) 1.25582(4)
O5A O 0.9943(9) 0.0498(10) 0.4323(17)
O8 O 0.6303(11) 0.2500(13) 0.217(3)
O9 O 0.4862(10) 0.3441(9) 0.106(2)
O10 O 0.4984(10) 0.1777(10) 0.042(2)
N10 N 0.5416(10) 0.2597(11) 0.128(2)
loop_
_geom_bond_atom_site_label_1
_geom_bond_atom_site_label_2
_geom_bond_site_symmetry_1
_geom_bond_site_symmetry_2
Hg1 O5 1_555 1_555
O1 C4 1_555 1_555
O2 C5 1_555 1_555
O3 C12 1_555 1_555
O4 C1 1_555 1_555
O5 N9 1_555 1_555
O6 N9 1_555 1_555
O7 N9 1_555 1_555
O8 N10 1_555 1_555
O9 N10 1_555 1_555
O10 N10 1_555 1_555
N1 C1 1_555 1_555
N2 C3 1_555 1_555
N3 C4 1_555 1_555
N4 C5 1_555 1_555
N5 Hg1 1_555 1_555
N6 Hg1 1_555 1_555
N7 C8 1_555 1_555
N8 C9 1_555 1_555
C1 C10 1_555 1_555
C2 N1 1_555 1_555
C4 N1 1_555 1_555
C5 N2 1_555 1_555
C6 N3 1_555 1_555
C7 N4 1_555 1_555
C8 N3 1_555 1_555
C9 N4 1_555 1_555
C10 N5 1_555 1_555
C11 N6 1_555 1_555
C12 N2 1_555 1_555
C13 N5 1_555 1_555
C14 N6 1_555 1_555
Hg1A O5 1_555 1_555
O5A Hg1 1_555 1_555
N7 C13 1_555 1_555
N8 C14 1_555 1_555
C8 C10 1_555 1_555
C9 C11 1_555 1_555
C11 C12 1_555 1_555

#END
