
#######################################################################
#
#                 Cambridge Crystallographic Data Centre
#                                CCDC 
#
#######################################################################
#
# If this CIF has been generated from an entry in the Cambridge 
# Structural Database, then it will include bibliographic, chemical, 
# crystal, experimental, refinement or atomic coordinate data resulting 
# from the CCDC's data processing and validation procedures.
#
#######################################################################

data_QEGVUV
_symmetry_cell_setting           orthorhombic
_symmetry_space_group_name_H-M   'F d d d'
_symmetry_Int_Tables_number      70
_space_group_name_Hall           '-F 2uv 2vw'
loop_
_symmetry_equiv_pos_site_id
_symmetry_equiv_pos_as_xyz
1 x,y,z
2 1/4-x,1/4-y,z
3 x,1/4-y,1/4-z
4 1/4-x,y,1/4-z
5 x,1/2+y,1/2+z
6 1/4-x,3/4-y,1/2+z
7 x,3/4-y,3/4-z
8 1/4-x,1/2+y,3/4-z
9 1/2+x,y,1/2+z
10 3/4-x,1/4-y,1/2+z
11 1/2+x,1/4-y,3/4-z
12 3/4-x,y,3/4-z
13 1/2+x,1/2+y,z
14 3/4-x,3/4-y,z
15 1/2+x,3/4-y,1/4-z
16 3/4-x,1/2+y,1/4-z
17 -x,-y,-z
18 3/4+x,3/4+y,-z
19 -x,3/4+y,3/4+z
20 3/4+x,-y,3/4+z
21 -x,1/2-y,1/2-z
22 3/4+x,1/4+y,1/2-z
23 -x,1/4+y,1/4+z
24 3/4+x,1/2-y,1/4+z
25 1/2-x,-y,1/2-z
26 1/4+x,3/4+y,1/2-z
27 1/2-x,3/4+y,1/4+z
28 1/4+x,-y,1/4+z
29 1/2-x,1/2-y,-z
30 1/4+x,1/4+y,-z
31 1/2-x,1/4+y,3/4+z
32 1/4+x,1/2-y,3/4+z
_cell_length_a                   21.8870(15)
_cell_length_b                   29.461(2)
_cell_length_c                   53.737(4)
_cell_angle_alpha                90
_cell_angle_beta                 90
_cell_angle_gamma                90
_cell_volume                     34650.3
loop_
_atom_site_label
_atom_site_type_symbol
_atom_site_fract_x
_atom_site_fract_y
_atom_site_fract_z
Ag1 Ag 0.24270(3) 0.550983(19) -0.015337(12)
Ag2 Ag 0.37350(4) 0.17914(2) 0.011050(14)
C1 C 0.3983(5) 0.5808(5) -0.0758(2)
C2 C 0.3314(4) 0.5688(3) -0.06691(17)
C3 C 0.2865(4) 0.5675(3) -0.08461(16)
H1 H 0.2980 0.5756 -0.1007
C4 C 0.2261(4) 0.5555(3) -0.08129(14)
C5 C 0.1823(4) 0.5579(3) -0.10301(14)
C6 C 0.1228(5) 0.5620(4) -0.09946(18)
H2 H 0.1081 0.5626 -0.0832
C7 C 0.0814(6) 0.5654(5) -0.1189(2)
H3 H 0.0400 0.5688 -0.1155
C8 C 0.1004(6) 0.5639(4) -0.1421(2)
C9 C 0.1608(7) 0.5594(4) -0.14692(18)
H4 H 0.1745 0.5585 -0.1633
C10 C 0.2483(4) 0.4499(2) -0.02720(14)
H5 H 0.2349 0.4618 -0.0423
C11 C 0.2603(4) 0.4037(3) -0.02583(14)
H6 H 0.2542 0.3851 -0.0396
C12 C 0.2817(3) 0.3854(2) -0.00330(13)
C13 C 0.2976(3) 0.3369(2) -0.00108(13)
C14 C 0.3217(4) 0.3128(2) -0.02074(14)
H7 H 0.3259 0.3267 -0.0362
C15 C 0.3395(4) 0.2686(2) -0.01769(14)
H8 H 0.3550 0.2529 -0.0313
C16 C 0.3110(4) 0.2702(3) 0.02315(16)
H9 H 0.3066 0.2557 0.0384
C17 C 0.2921(4) 0.3144(2) 0.02118(15)
H10 H 0.2755 0.3292 0.0349
C18 C 0.2872(4) 0.4154(2) 0.01634(14)
H11 H 0.3006 0.4048 0.0317
C19 C 0.5323(7) 0.2002(6) 0.0702(3)
C20 C 0.4676(5) 0.1905(3) 0.0623(2)
C21 C 0.4235(5) 0.1907(4) 0.0807(2)
H12 H 0.4369 0.1951 0.0969
C22 C 0.3609(5) 0.1849(3) 0.07718(18)
C23 C 0.3195(5) 0.1866(3) 0.09933(16)
C24 C 0.3399(5) 0.1851(3) 0.1240(2)
H13 H 0.3817 0.1837 0.1272
C25 C 0.2992(6) 0.1855(4) 0.1436(2)
H14 H 0.3137 0.1842 0.1599
C26 C 0.2398(6) 0.1879(4) 0.13932(18)
C27 C 0.2165(6) 0.1899(6) 0.1148(2)
H15 H 0.1746 0.1913 0.1120
C28 C 0.1396(5) 0.8313(3) 0.01205(17)
H16 H 0.1325 0.8463 0.0270
C29 C 0.1515(5) 0.7861(3) 0.01268(16)
H17 H 0.1531 0.7708 0.0278
C30 C 0.1616(3) 0.7621(2) -0.00993(15)
C31 C 0.1767(3) 0.7127(2) -0.01026(14)
C32 C 0.1838(6) 0.6866(3) 0.01118(18)
H18 H 0.1765 0.6996 0.0267
C33 C 0.2014(5) 0.6423(3) 0.00988(18)
H19 H 0.2067 0.6262 0.0246
C34 C 0.2024(6) 0.6453(3) -0.03159(17)
H20 H 0.2081 0.6314 -0.0469
C35 C 0.1850(6) 0.6902(3) -0.03141(18)
H21 H 0.1789 0.7052 -0.0465
C36 C 0.1576(5) 0.7872(3) -0.03073(16)
H22 H 0.1619 0.7731 -0.0461
C37 C 0.2019(5) 0.5562(3) -0.12778(17)
H23 H 0.2433 0.5527 -0.1313
C38 C 0.2734(4) 0.4600(2) 0.01366(14)
H24 H 0.2769 0.4790 0.0274
C39 C 0.2563(6) 0.1898(5) 0.0953(2)
H25 H 0.2414 0.1919 0.0791
C40 C 0.1475(5) 0.8322(3) -0.02985(17)
H26 H 0.1473 0.8482 -0.0447
Cl1 Cl 0.0486(2) 0.56990(14) -0.16656(6)
Cl2 Cl 0.18715(17) 0.18740(17) 0.16367(6)
F1 F 0.4220(4) 0.6135(3) -0.06262(15)
F2 F 0.4034(3) 0.5916(3) -0.09942(12)
F3 F 0.4360(3) 0.5467(3) -0.07226(17)
F4 F 0.5416(4) 0.2092(5) 0.09370(17)
F5 F 0.5571(5) 0.2333(5) 0.0587(2)
F6 F 0.5679(5) 0.1657(5) 0.0656(2)
N1 N 0.2548(3) 0.4780(2) -0.00818(12)
N2 N 0.3353(3) 0.2471(2) 0.00424(13)
N3 N 0.1377(3) 0.8550(2) -0.00892(14)
N4 N 0.2113(3) 0.6211(2) -0.01161(12)
O1 O 0.3307(3) 0.5613(2) -0.04416(11)
O2 O 0.2031(3) 0.5424(2) -0.06116(10)
O3 O 0.4645(3) 0.1857(2) 0.03957(13)
O4 O 0.3354(3) 0.1775(2) 0.05656(12)
Ag2Q Ag 0.12350(4) 0.92914(2) -0.011050(14)
N3CA N 0.3877(3) 0.1050(2) 0.00892(14)
loop_
_geom_bond_atom_site_label_1
_geom_bond_atom_site_label_2
_geom_bond_site_symmetry_1
_geom_bond_site_symmetry_2
Ag1 N1 1_555 1_555
Ag2 N2 1_555 1_555
C1 C2 1_555 1_555
C2 C3 1_555 1_555
C3 H1 1_555 1_555
C4 C3 1_555 1_555
C5 C4 1_555 1_555
C6 C5 1_555 1_555
H2 C6 1_555 1_555
C7 C6 1_555 1_555
H3 C7 1_555 1_555
C8 C7 1_555 1_555
C9 C8 1_555 1_555
H4 C9 1_555 1_555
C10 H5 1_555 1_555
C11 C10 1_555 1_555
H6 C11 1_555 1_555
C12 C11 1_555 1_555
C13 C12 1_555 1_555
C14 C13 1_555 1_555
H7 C14 1_555 1_555
C15 C14 1_555 1_555
H8 C15 1_555 1_555
C16 H9 1_555 1_555
C17 C13 1_555 1_555
H10 C17 1_555 1_555
C18 C12 1_555 1_555
H11 C18 1_555 1_555
C19 C20 1_555 1_555
C20 C21 1_555 1_555
C21 H12 1_555 1_555
C22 C21 1_555 1_555
C23 C22 1_555 1_555
C24 C23 1_555 1_555
H13 C24 1_555 1_555
C25 C24 1_555 1_555
H14 C25 1_555 1_555
C26 C25 1_555 1_555
C27 C26 1_555 1_555
H15 C27 1_555 1_555
C28 H16 1_555 1_555
C29 C28 1_555 1_555
H17 C29 1_555 1_555
C30 C29 1_555 1_555
C31 C30 1_555 1_555
C32 C31 1_555 1_555
H18 C32 1_555 1_555
C33 C32 1_555 1_555
H19 C33 1_555 1_555
C34 H20 1_555 1_555
C35 C31 1_555 1_555
H21 C35 1_555 1_555
C36 C30 1_555 1_555
H22 C36 1_555 1_555
C37 C5 1_555 1_555
H23 C37 1_555 1_555
C38 C18 1_555 1_555
H24 C38 1_555 1_555
C39 C23 1_555 1_555
H25 C39 1_555 1_555
C40 C36 1_555 1_555
H26 C40 1_555 1_555
Cl1 C8 1_555 1_555
Cl2 C26 1_555 1_555
F1 C1 1_555 1_555
F2 C1 1_555 1_555
F3 C1 1_555 1_555
F4 C19 1_555 1_555
F5 C19 1_555 1_555
F6 C19 1_555 1_555
N1 C10 1_555 1_555
N2 C15 1_555 1_555
N3 C28 1_555 1_555
N4 Ag1 1_555 1_555
O1 Ag1 1_555 1_555
O2 C4 1_555 1_555
O3 Ag2 1_555 1_555
O4 C22 1_555 1_555
Ag2Q N3 1_555 1_555
N3CA Ag2 1_555 1_555
C2 O1 1_555 1_555
C9 C37 1_555 1_555
C16 C17 1_555 1_555
C16 N2 1_555 1_555
C20 O3 1_555 1_555
C27 C39 1_555 1_555
C33 N4 1_555 1_555
C34 C35 1_555 1_555
C34 N4 1_555 1_555
C38 N1 1_555 1_555
C40 N3 1_555 1_555

#END
