
#######################################################################
#
#                 Cambridge Crystallographic Data Centre
#                                CCDC 
#
#######################################################################
#
# If this CIF has been generated from an entry in the Cambridge 
# Structural Database, then it will include bibliographic, chemical, 
# crystal, experimental, refinement or atomic coordinate data resulting 
# from the CCDC's data processing and validation procedures.
#
#######################################################################

data_QEGWIK01
_symmetry_cell_setting           monoclinic
_symmetry_space_group_name_H-M   'C 2/c'
_symmetry_Int_Tables_number      15
_space_group_name_Hall           '-C 2yn'
loop_
_symmetry_equiv_pos_site_id
_symmetry_equiv_pos_as_xyz
1 x,y,z
2 -x,y,1/2-z
3 1/2+x,1/2+y,z
4 1/2-x,1/2+y,1/2-z
5 -x,-y,-z
6 x,-y,1/2+z
7 1/2-x,1/2-y,-z
8 1/2+x,1/2-y,1/2+z
_cell_length_a                   14.4247(16)
_cell_length_b                   19.279(2)
_cell_length_c                   16.6099(19)
_cell_angle_alpha                90
_cell_angle_beta                 102.928(2)
_cell_angle_gamma                90
_cell_volume                     4502.02
loop_
_atom_site_label
_atom_site_type_symbol
_atom_site_fract_x
_atom_site_fract_y
_atom_site_fract_z
C1 C 0.8875(3) 0.3587(3) -0.1100(3)
C2 C 0.8640(3) 0.4440(3) -0.3976(3)
C3 C 0.8687(3) 0.3837(2) -0.3389(3)
C4 C 0.8622(3) 0.3160(3) -0.3682(3)
H1 H 0.8556 0.3069 -0.4242
C5 C 0.8657(4) 0.2623(3) -0.3120(4)
C6 C 0.8750(3) 0.2744(3) -0.2284(3)
H2 H 0.8766 0.2376 -0.1919
C7 C 0.8820(3) 0.3429(2) -0.1998(3)
C8 C 0.8791(3) 0.3961(2) -0.2555(3)
H3 H 0.8842 0.4416 -0.2365
C9 C 1.1722(4) 0.0344(2) 0.4312(3)
H4 H 1.2140 0.0072 0.4095
C10 C 1.0757(4) 0.0273(3) 0.3989(4)
H5 H 1.0539 -0.0035 0.3558
C11 C 1.0118(4) 0.0659(3) 0.4307(4)
C12 C 1.0491(4) 0.1105(3) 0.4951(4)
H6 H 1.0087 0.1370 0.5191
C13 C 1.1459(4) 0.1156(3) 0.5235(3)
H7 H 1.1692 0.1461 0.5666
C14 C 0.9068(4) 0.0613(3) 0.3919(4)
H8 H 0.8705 0.0762 0.4314
H9 H 0.8899 0.0135 0.3770
C15 C 0.8818(3) 0.1075(3) 0.3139(4)
H10 H 0.9258 0.0976 0.2789
H11 H 0.8183 0.0961 0.2831
C16 C 0.8863(4) 0.1840(3) 0.3346(3)
H12 H 0.8366 0.1941 0.3637
H13 H 0.9467 0.1931 0.3725
C17 C 0.8760(3) 0.2339(2) 0.2632(3)
C18 C 0.8842(3) 0.3040(3) 0.2805(3)
H14 H 0.8926 0.3195 0.3347
C19 C 0.8798(4) 0.3511(3) 0.2172(3)
H15 H 0.8854 0.3981 0.2302
C20 C 0.8583(3) 0.2647(2) 0.1212(3)
H16 H 0.8491 0.2505 0.0664
C21 C 0.8615(3) 0.2150(2) 0.1812(3)
H17 H 0.8539 0.1685 0.1665
Cd1 Cd 0.87631(2) 0.415216(17) 0.041277(19)
I1 I 0.85067(5) 0.16058(2) -0.35831(4)
N1 N 0.8679(3) 0.33219(19) 0.1379(2)
N2 N 1.2082(3) 0.0788(2) 0.4924(2)
O1 O 0.8914(3) 0.42225(19) -0.0898(2)
O2 O 0.8851(3) 0.3113(2) -0.0610(2)
O3 O 0.8741(3) 0.5026(2) -0.3652(2)
O4 O 0.8500(3) 0.4334(2) -0.4732(2)
O5 O 1.0413(2) 0.43571(19) 0.0852(2)
H18 H 1.0687 0.4288 0.0458
H19 H 1.0448 0.4781 0.0989
Cd1E Cd 0.87631(2) 0.584784(17) -0.458723(19)
Cd1G Cd 1.37631(2) 0.084784(17) 0.541277(19)
N2G N 0.7082(3) 0.4212(2) -0.0076(2)
O3E O 0.8741(3) 0.4974(2) 0.1348(2)
loop_
_geom_bond_atom_site_label_1
_geom_bond_atom_site_label_2
_geom_bond_site_symmetry_1
_geom_bond_site_symmetry_2
C1 C7 1_555 1_555
C2 C3 1_555 1_555
C3 C4 1_555 1_555
C4 H1 1_555 1_555
C5 C4 1_555 1_555
C6 C5 1_555 1_555
H2 C6 1_555 1_555
C7 C6 1_555 1_555
C8 C3 1_555 1_555
H3 C8 1_555 1_555
C9 H4 1_555 1_555
C10 C9 1_555 1_555
H5 C10 1_555 1_555
C11 C10 1_555 1_555
C12 C11 1_555 1_555
H6 C12 1_555 1_555
C13 C12 1_555 1_555
H7 C13 1_555 1_555
C14 C11 1_555 1_555
H8 C14 1_555 1_555
H9 C14 1_555 1_555
C15 C14 1_555 1_555
H10 C15 1_555 1_555
H11 C15 1_555 1_555
C16 C15 1_555 1_555
H12 C16 1_555 1_555
H13 C16 1_555 1_555
C17 C16 1_555 1_555
C18 C17 1_555 1_555
H14 C18 1_555 1_555
C19 C18 1_555 1_555
H15 C19 1_555 1_555
C20 H16 1_555 1_555
C21 C17 1_555 1_555
H17 C21 1_555 1_555
Cd1 N1 1_555 1_555
I1 C5 1_555 1_555
N1 C19 1_555 1_555
N2 C9 1_555 1_555
O1 C1 1_555 1_555
O2 C1 1_555 1_555
O3 C2 1_555 1_555
O4 C2 1_555 1_555
O5 Cd1 1_555 1_555
H18 O5 1_555 1_555
H19 O5 1_555 1_555
Cd1E O3 1_555 1_555
Cd1G N2 1_555 1_555
N2G Cd1 1_555 1_555
O3E Cd1 1_555 1_555
C7 C8 1_555 1_555
C13 N2 1_555 1_555
C20 C21 1_555 1_555
C20 N1 1_555 1_555
Cd1 O1 1_555 1_555
Cd1 O2 1_555 1_555

#END
