
#######################################################################
#
#                 Cambridge Crystallographic Data Centre
#                                CCDC 
#
#######################################################################
#
# If this CIF has been generated from an entry in the Cambridge 
# Structural Database, then it will include bibliographic, chemical, 
# crystal, experimental, refinement or atomic coordinate data resulting 
# from the CCDC's data processing and validation procedures.
#
#######################################################################

data_QEHCEL
_symmetry_cell_setting           orthorhombic
_symmetry_space_group_name_H-M   'P b c a'
_symmetry_Int_Tables_number      61
_space_group_name_Hall           '-P 2ac 2ab'
loop_
_symmetry_equiv_pos_site_id
_symmetry_equiv_pos_as_xyz
1 x,y,z
2 1/2-x,-y,1/2+z
3 1/2+x,1/2-y,-z
4 -x,1/2+y,1/2-z
5 -x,-y,-z
6 1/2+x,y,1/2-z
7 1/2-x,1/2+y,z
8 x,1/2-y,1/2+z
_cell_length_a                   16.680(5)
_cell_length_b                   14.587(4)
_cell_length_c                   26.839(8)
_cell_angle_alpha                90
_cell_angle_beta                 90
_cell_angle_gamma                90
_cell_volume                     6530.23
loop_
_atom_site_label
_atom_site_type_symbol
_atom_site_fract_x
_atom_site_fract_y
_atom_site_fract_z
Ag1 Ag -0.3671(1) -0.0018(1) 0.1181(1)
N1 N -0.4590(3) 0.1067(3) 0.1357(2)
C1 C -0.4405(4) 0.1909(4) 0.1460(2)
S1 S -0.5143(1) 0.2594(1) 0.1716(1)
C2 C -0.5783(4) 0.1661(4) 0.1699(3)
C3 C -0.6577(4) 0.1601(5) 0.1870(3)
C4 C -0.6960(4) 0.0767(5) 0.1810(3)
C5 C -0.6591(4) 0.0021(5) 0.1582(3)
C6 C -0.5806(4) 0.0090(4) 0.1419(2)
C7 C -0.5396(4) 0.0911(4) 0.1481(2)
S2 S -0.3427(1) 0.2370(1) 0.1407(1)
N2 N -0.2418(3) 0.2071(3) 0.0674(2)
C8 C -0.3170(4) 0.2108(4) 0.0780(3)
S3 S -0.3849(1) 0.2014(1) 0.0297(1)
C9 C -0.3031(4) 0.1936(4) -0.0109(3)
C10 C -0.3029(5) 0.1863(5) -0.0623(3)
C11 C -0.2310(5) 0.1817(5) -0.0864(3)
C12 C -0.1591(5) 0.1855(5) -0.0597(3)
C13 C -0.1583(4) 0.1920(5) -0.0087(3)
C14 C -0.2318(4) 0.1975(4) 0.0166(3)
Ag2 Ag -0.1482(1) 0.2171(1) 0.1261(1)
N3 N -0.0750(3) 0.1420(4) 0.1808(2)
C15 C -0.0872(4) 0.0575(4) 0.1947(2)
S4 S -0.0115(1) 0.0045(1) 0.2277(1)
C16 C 0.0440(4) 0.1055(4) 0.2242(2)
C17 C 0.1191(4) 0.1266(5) 0.2444(3)
C18 C 0.1480(4) 0.2144(5) 0.2370(3)
C19 C 0.1035(4) 0.2808(5) 0.2112(3)
C20 C 0.0305(4) 0.2597(5) 0.1911(3)
C21 C 0.0001(4) 0.1712(4) 0.1976(3)
S5 S -0.1785(1) -0.0020(1) 0.1844(1)
N4 N -0.2386(3) -0.0231(3) 0.0924(2)
C22 C -0.1750(4) -0.0161(4) 0.1198(3)
S6 S -0.0834(1) -0.0317(1) 0.0876(1)
C23 C -0.1375(4) -0.0485(4) 0.0333(3)
C24 C -0.1091(6) -0.0671(5) -0.0148(3)
C25 C -0.1654(7) -0.0775(5) -0.0526(3)
C26 C -0.2468(7) -0.0708(5) -0.0429(3)
C27 C -0.2752(5) -0.0538(5) 0.0045(3)
C28 C -0.2205(4) -0.0417(4) 0.0430(3)
N5 N -0.4733(4) -0.1628(5) 0.0644(2)
O1 O -0.4118(3) -0.1488(3) 0.0919(2)
O2 O -0.4985(3) -0.2425(4) 0.0617(2)
O3 O -0.5042(4) -0.0987(4) 0.0429(2)
N6 N -0.3410(3) -0.1240(4) 0.2262(3)
O4 O -0.3858(3) -0.0666(3) 0.2042(2)
O5 O -0.3037(3) -0.1799(4) 0.2005(2)
O6 O -0.3340(4) -0.1218(4) 0.2717(2)
H1 H -0.6839 0.2109 0.2020
H2 H -0.7494 0.0701 0.1928
H3 H -0.6878 -0.0536 0.1539
H4 H -0.5549 -0.0420 0.1267
H5 H -0.3518 0.1845 -0.0804
H6 H -0.2298 0.1760 -0.1216
H7 H -0.1097 0.1834 -0.0773
H8 H -0.1091 0.1928 0.0091
H9 H 0.1491 0.0823 0.2625
H10 H 0.1992 0.2303 0.2498
H11 H 0.1243 0.3411 0.2076
H12 H 0.0009 0.3043 0.1731
H13 H -0.0533 -0.0724 -0.0214
H14 H -0.1478 -0.0893 -0.0856
H15 H -0.2839 -0.0781 -0.0695
H16 H -0.3312 -0.0504 0.0106
O1F O -0.0882(3) 0.3512(3) 0.0919(2)
Ag2F Ag -0.3518(1) -0.2829(1) 0.1261(1)
O5F O -0.1963(3) 0.3201(4) 0.2005(2)
loop_
_geom_bond_atom_site_label_1
_geom_bond_atom_site_label_2
_geom_bond_site_symmetry_1
_geom_bond_site_symmetry_2
Ag1 N1 1_555 1_555
N1 C1 1_555 1_555
C1 S1 1_555 1_555
S1 C2 1_555 1_555
C2 C3 1_555 1_555
C3 C4 1_555 1_555
C4 C5 1_555 1_555
C5 C6 1_555 1_555
C6 C7 1_555 1_555
C7 N1 1_555 1_555
S2 C1 1_555 1_555
N2 C8 1_555 1_555
C8 S2 1_555 1_555
S3 C8 1_555 1_555
C9 S3 1_555 1_555
C10 C9 1_555 1_555
C11 C10 1_555 1_555
C12 C11 1_555 1_555
C13 C12 1_555 1_555
C14 N2 1_555 1_555
Ag2 N2 1_555 1_555
N3 Ag2 1_555 1_555
C15 N3 1_555 1_555
S4 C15 1_555 1_555
C16 S4 1_555 1_555
C17 C16 1_555 1_555
C18 C17 1_555 1_555
C19 C18 1_555 1_555
C20 C19 1_555 1_555
C21 N3 1_555 1_555
S5 C15 1_555 1_555
N4 Ag1 1_555 1_555
C22 S5 1_555 1_555
S6 C22 1_555 1_555
C23 S6 1_555 1_555
C24 C23 1_555 1_555
C25 C24 1_555 1_555
C26 C25 1_555 1_555
C27 C26 1_555 1_555
C28 N4 1_555 1_555
N5 O1 1_555 1_555
O1 Ag1 1_555 1_555
O2 N5 1_555 1_555
O3 N5 1_555 1_555
N6 O4 1_555 1_555
O4 Ag1 1_555 1_555
O5 N6 1_555 1_555
O6 N6 1_555 1_555
H1 C3 1_555 1_555
H2 C4 1_555 1_555
H3 C5 1_555 1_555
H4 C6 1_555 1_555
H5 C10 1_555 1_555
H6 C11 1_555 1_555
H7 C12 1_555 1_555
H8 C13 1_555 1_555
H9 C17 1_555 1_555
H10 C18 1_555 1_555
H11 C19 1_555 1_555
H12 C20 1_555 1_555
H13 C24 1_555 1_555
H14 C25 1_555 1_555
H15 C26 1_555 1_555
H16 C27 1_555 1_555
O1F Ag2 1_555 1_555
Ag2F O1 1_555 1_555
O5F Ag2 1_555 1_555
C2 C7 1_555 1_555
C9 C14 1_555 1_555
C13 C14 1_555 1_555
C16 C21 1_555 1_555
C20 C21 1_555 1_555
N4 C22 1_555 1_555
C23 C28 1_555 1_555
C27 C28 1_555 1_555
O5 Ag2F 1_555 1_555

#END
