
#######################################################################
#
#                 Cambridge Crystallographic Data Centre
#                                CCDC 
#
#######################################################################
#
# If this CIF has been generated from an entry in the Cambridge 
# Structural Database, then it will include bibliographic, chemical, 
# crystal, experimental, refinement or atomic coordinate data resulting 
# from the CCDC's data processing and validation procedures.
#
#######################################################################

data_QEHFAL
_symmetry_cell_setting           monoclinic
_symmetry_space_group_name_H-M   'P 21/n'
_symmetry_Int_Tables_number      14
_space_group_name_Hall           '-P 2yn'
loop_
_symmetry_equiv_pos_site_id
_symmetry_equiv_pos_as_xyz
1 x,y,z
2 1/2-x,1/2+y,1/2-z
3 -x,-y,-z
4 1/2+x,1/2-y,1/2+z
_cell_length_a                   10.5946(16)
_cell_length_b                   26.490(4)
_cell_length_c                   13.620(2)
_cell_angle_alpha                90
_cell_angle_beta                 102.502(2)
_cell_angle_gamma                90
_cell_volume                     3731.83
loop_
_atom_site_label
_atom_site_type_symbol
_atom_site_fract_x
_atom_site_fract_y
_atom_site_fract_z
Sn1 Sn 0.14506(2) 0.231561(9) -0.219680(18)
Sn2 Sn -0.32990(2) -0.032150(9) -0.277590(18)
N1 N 0.0002(3) 0.16700(12) -0.3525(2)
O1 O -0.2305(2) 0.22411(9) -0.61050(18)
O2 O -0.3976(2) 0.17851(11) -0.5866(2)
O3 O -0.2917(2) 0.03403(9) -0.34501(18)
O4 O -0.0853(3) 0.01912(10) -0.2749(2)
C1 C -0.0807(3) 0.18694(14) -0.4321(3)
H1 H -0.0596 0.2180 -0.4560
C2 C -0.1939(3) 0.16386(13) -0.4807(2)
C3 C -0.2257(3) 0.11759(13) -0.4456(2)
H2 H -0.3033 0.1019 -0.4746
C4 C -0.1400(3) 0.09517(13) -0.3666(2)
C5 C -0.0289(3) 0.12098(15) -0.3236(3)
H3 H 0.0292 0.1055 -0.2713
C6 C -0.2840(3) 0.18977(13) -0.5657(3)
C7 C -0.1685(3) 0.04548(13) -0.3249(3)
C8 C 0.0353(3) 0.20089(15) -0.1201(3)
C9 C 0.0954(4) 0.19369(18) -0.0210(3)
H4 H 0.1819 0.2026 0.0007
C10 C 0.0292(6) 0.1732(2) 0.0476(4)
H5 H 0.0715 0.1681 0.1141
C11 C -0.0974(6) 0.1609(2) 0.0166(5)
H6 H -0.1419 0.1472 0.0620
C12 C -0.1592(5) 0.1685(3) -0.0801(5)
H7 H -0.2460 0.1599 -0.1009
C13 C -0.0944(4) 0.1889(2) -0.1479(4)
H8 H -0.1387 0.1948 -0.2136
C14 C 0.0568(3) 0.28784(13) -0.3225(3)
C15 C 0.1030(4) 0.30093(16) -0.4063(3)
H9 H 0.1769 0.2854 -0.4185
C16 C 0.0391(5) 0.33748(19) -0.4730(4)
H10 H 0.0699 0.3459 -0.5299
C17 C -0.0687(5) 0.36092(17) -0.4549(4)
H11 H -0.1098 0.3858 -0.4985
C18 C -0.1155(4) 0.34781(15) -0.3731(3)
H12 H -0.1898 0.3633 -0.3617
C19 C -0.0539(3) 0.31180(14) -0.3072(3)
H13 H -0.0869 0.3034 -0.2514
C20 C 0.3086(3) 0.19287(15) -0.2496(3)
C21 C 0.4029(5) 0.2193(2) -0.2794(4)
H14 H 0.3956 0.2542 -0.2871
C22 C 0.5112(6) 0.1944(4) -0.2986(6)
H15 H 0.5739 0.2126 -0.3219
C23 C 0.5254(7) 0.1448(4) -0.2840(5)
H16 H 0.5992 0.1287 -0.2948
C24 C 0.4319(7) 0.1178(2) -0.2531(5)
H17 H 0.4414 0.0831 -0.2437
C25 C 0.3231(4) 0.14166(19) -0.2359(4)
H18 H 0.2594 0.1230 -0.2148
C26 C -0.5347(3) -0.02856(14) -0.3276(3)
C27 C -0.5947(4) 0.00758(16) -0.3955(3)
H19 H -0.5442 0.0294 -0.4243
C28 C -0.7278(4) 0.0119(2) -0.4214(3)
H20 H -0.7663 0.0368 -0.4663
C29 C -0.8021(4) -0.0205(2) -0.3805(3)
H21 H -0.8917 -0.0177 -0.3976
C30 C -0.7467(4) -0.0569(2) -0.3153(3)
H22 H -0.7986 -0.0791 -0.2887
C31 C -0.6135(4) -0.06133(17) -0.2880(3)
H23 H -0.5764 -0.0863 -0.2429
C32 C -0.2712(4) -0.02048(14) -0.1196(3)
C33 C -0.1606(4) -0.04254(17) -0.0653(3)
H24 H -0.1094 -0.0615 -0.0990
C34 C -0.1232(5) -0.0374(2) 0.0376(3)
H25 H -0.0487 -0.0531 0.0730
C35 C -0.1968(6) -0.0091(2) 0.0864(4)
H26 H -0.1719 -0.0049 0.1557
C36 C -0.3066(7) 0.0132(3) 0.0348(4)
H27 H -0.3565 0.0326 0.0689
C37 C -0.3446(5) 0.0071(2) -0.0685(3)
H28 H -0.4207 0.0221 -0.1032
C38 C -0.2440(3) -0.09393(14) -0.3373(3)
C39 C -0.1113(4) -0.10272(16) -0.3158(3)
H29 H -0.0556 -0.0794 -0.2780
C40 C -0.0618(5) -0.1454(2) -0.3500(4)
H30 H 0.0271 -0.1505 -0.3366
C41 C -0.1428(6) -0.1806(2) -0.4039(5)
H31 H -0.1091 -0.2101 -0.4250
C42 C -0.2738(5) -0.1725(2) -0.4268(4)
H32 H -0.3288 -0.1961 -0.4647
C43 C -0.3235(4) -0.12949(17) -0.3935(3)
H33 H -0.4124 -0.1242 -0.4092
Sn1C Sn -0.35494(2) 0.268439(9) -0.719680(18)
O1C O 0.2695(2) 0.27589(9) -0.11050(18)
loop_
_geom_bond_atom_site_label_1
_geom_bond_atom_site_label_2
_geom_bond_site_symmetry_1
_geom_bond_site_symmetry_2
Sn1 N1 1_555 1_555
Sn2 O3 1_555 1_555
N1 C1 1_555 1_555
O1 C6 1_555 1_555
O2 C6 1_555 1_555
O3 C7 1_555 1_555
O4 C7 1_555 1_555
C1 H1 1_555 1_555
C2 C1 1_555 1_555
C3 C2 1_555 1_555
H2 C3 1_555 1_555
C4 C3 1_555 1_555
C5 N1 1_555 1_555
H3 C5 1_555 1_555
C6 C2 1_555 1_555
C7 C4 1_555 1_555
C8 Sn1 1_555 1_555
C9 C8 1_555 1_555
H4 C9 1_555 1_555
C10 C9 1_555 1_555
H5 C10 1_555 1_555
C11 C10 1_555 1_555
H6 C11 1_555 1_555
C12 C11 1_555 1_555
H7 C12 1_555 1_555
C13 C8 1_555 1_555
H8 C13 1_555 1_555
C14 Sn1 1_555 1_555
C15 C14 1_555 1_555
H9 C15 1_555 1_555
C16 C15 1_555 1_555
H10 C16 1_555 1_555
C17 C16 1_555 1_555
H11 C17 1_555 1_555
C18 C17 1_555 1_555
H12 C18 1_555 1_555
C19 C14 1_555 1_555
H13 C19 1_555 1_555
C20 Sn1 1_555 1_555
C21 C20 1_555 1_555
H14 C21 1_555 1_555
C22 C21 1_555 1_555
H15 C22 1_555 1_555
C23 C22 1_555 1_555
H16 C23 1_555 1_555
C24 C23 1_555 1_555
H17 C24 1_555 1_555
C25 C20 1_555 1_555
H18 C25 1_555 1_555
C26 Sn2 1_555 1_555
C27 C26 1_555 1_555
H19 C27 1_555 1_555
C28 C27 1_555 1_555
H20 C28 1_555 1_555
C29 C28 1_555 1_555
H21 C29 1_555 1_555
C30 C29 1_555 1_555
H22 C30 1_555 1_555
C31 C26 1_555 1_555
H23 C31 1_555 1_555
C32 Sn2 1_555 1_555
C33 C32 1_555 1_555
H24 C33 1_555 1_555
C34 C33 1_555 1_555
H25 C34 1_555 1_555
C35 C34 1_555 1_555
H26 C35 1_555 1_555
C36 C35 1_555 1_555
H27 C36 1_555 1_555
C37 C32 1_555 1_555
H28 C37 1_555 1_555
C38 Sn2 1_555 1_555
C39 C38 1_555 1_555
H29 C39 1_555 1_555
C40 C39 1_555 1_555
H30 C40 1_555 1_555
C41 C40 1_555 1_555
H31 C41 1_555 1_555
C42 C41 1_555 1_555
H32 C42 1_555 1_555
C43 C38 1_555 1_555
H33 C43 1_555 1_555
Sn1C O1 1_555 1_555
O1C Sn1 1_555 1_555
C4 C5 1_555 1_555
C12 C13 1_555 1_555
C18 C19 1_555 1_555
C24 C25 1_555 1_555
C30 C31 1_555 1_555
C36 C37 1_555 1_555
C42 C43 1_555 1_555

#END
