
#######################################################################
#
#                 Cambridge Crystallographic Data Centre
#                                CCDC 
#
#######################################################################
#
# If this CIF has been generated from an entry in the Cambridge 
# Structural Database, then it will include bibliographic, chemical, 
# crystal, experimental, refinement or atomic coordinate data resulting 
# from the CCDC's data processing and validation procedures.
#
#######################################################################

data_QEHHIU
_symmetry_cell_setting           orthorhombic
_symmetry_space_group_name_H-M   'P n m a'
_symmetry_Int_Tables_number      62
_space_group_name_Hall           '-P 2ac 2n'
loop_
_symmetry_equiv_pos_site_id
_symmetry_equiv_pos_as_xyz
1 x,y,z
2 1/2-x,-y,1/2+z
3 1/2+x,1/2-y,1/2-z
4 -x,1/2+y,-z
5 -x,-y,-z
6 1/2+x,y,1/2-z
7 1/2-x,1/2+y,1/2+z
8 x,1/2-y,z
_cell_length_a                   17.5814(7)
_cell_length_b                   11.9453(5)
_cell_length_c                   7.3292(3)
_cell_angle_alpha                90
_cell_angle_beta                 90
_cell_angle_gamma                90
_cell_volume                     1539.24
loop_
_atom_site_label
_atom_site_type_symbol
_atom_site_fract_x
_atom_site_fract_y
_atom_site_fract_z
Fe1 Fe 0.4262(1) 0.2500 0.3863(1)
O1 O 0.3170(2) 0.2500 0.2615(4)
N1 N 0.3775(2) 0.1380(3) 0.5937(4)
N2 N 0.3177(2) 0.1353(3) 0.8855(4)
N3 N 0.4608(2) 0.1193(4) 0.2142(5)
N4 N 0.5209(5) 0.0791(7) -0.0818(9)
N5 N 0.5313(3) 0.2500 0.5293(6)
N6 N 0.6352(7) 0.3088(10) 0.7161(17)
N7 N 0.6961(3) 0.2500 0.9918(6)
C1 C 0.3474(2) 0.1874(3) 0.7420(4)
C2 C 0.3180(3) 0.0245(4) 0.8790(5)
C3 C 0.3469(3) -0.0350(4) 0.7323(6)
C4 C 0.3770(3) 0.0270(3) 0.5912(5)
C5 C 0.4897(5) 0.1023(7) 0.0760(10)
C6 C 0.4697(4) 0.0207(7) 0.1459(9)
C7 C 0.5795(4) 0.2500 0.6245(9)
C8 C 0.6645(4) 0.2500 0.8652(9)
N1G N 0.3775(2) 0.3620(3) 0.5937(4)
N3G N 0.4608(2) 0.3807(4) 0.2142(5)
C6D C 0.5303(4) -0.0207(7) -0.1459(9)
N6G N 0.6352(7) 0.1912(10) 0.7161(17)
C1G C 0.3474(2) 0.3126(3) 0.7420(4)
N4D N 0.4791(5) -0.0791(7) 0.0818(9)
C4G C 0.3770(3) 0.4730(3) 0.5912(5)
N2G N 0.3177(2) 0.3647(3) 0.8855(4)
C5D C 0.5103(5) -0.1023(7) -0.0760(10)
N3D N 0.5392(2) -0.1193(4) -0.2142(5)
C2G C 0.3180(3) 0.4755(4) 0.8790(5)
C3G C 0.3469(3) 0.5350(4) 0.7323(6)
Fe1C Fe 0.5738(1) -0.2500 -0.3863(1)
loop_
_geom_bond_atom_site_label_1
_geom_bond_atom_site_label_2
_geom_bond_site_symmetry_1
_geom_bond_site_symmetry_2
Fe1 O1 1_555 1_555
N1 Fe1 1_555 1_555
N2 C1 1_555 1_555
N3 Fe1 1_555 1_555
N4 C5 1_555 1_555
N5 Fe1 1_555 1_555
N6 C7 1_555 1_555
N7 C8 1_555 1_555
C1 N1 1_555 1_555
C2 N2 1_555 1_555
C3 C2 1_555 1_555
C4 N1 1_555 1_555
C5 N3 1_555 1_555
C6 N3 1_555 1_555
C7 N5 1_555 1_555
C8 N6 1_555 1_555
N1G Fe1 1_555 1_555
N3G Fe1 1_555 1_555
C6D N4 1_555 1_555
N6G N6 1_555 1_555
C1G C1 1_555 1_555
N4D C6 1_555 1_555
C4G N1G 1_555 1_555
N2G C1G 1_555 1_555
C5D C6D 1_555 1_555
N3D C6D 1_555 1_555
C2G N2G 1_555 1_555
C3G C4G 1_555 1_555
Fe1C N3D 1_555 1_555
C3 C4 1_555 1_555
C5 C6 1_555 1_555
C7 N6G 1_555 1_555
C8 N6G 1_555 1_555
N1G C1G 1_555 1_555
N4D C5D 1_555 1_555
C5D N3D 1_555 1_555
C2G C3G 1_555 1_555

#END
