
#######################################################################
#
#                 Cambridge Crystallographic Data Centre
#                                CCDC 
#
#######################################################################
#
# If this CIF has been generated from an entry in the Cambridge 
# Structural Database, then it will include bibliographic, chemical, 
# crystal, experimental, refinement or atomic coordinate data resulting 
# from the CCDC's data processing and validation procedures.
#
#######################################################################

data_QEHJUJ
_symmetry_cell_setting           monoclinic
_symmetry_space_group_name_H-M   'P 21/c'
_symmetry_Int_Tables_number      14
_space_group_name_Hall           '-P 2ybc'
loop_
_symmetry_equiv_pos_site_id
_symmetry_equiv_pos_as_xyz
1 x,y,z
2 -x,1/2+y,1/2-z
3 -x,-y,-z
4 x,1/2-y,1/2+z
_cell_length_a                   6.2417(16)
_cell_length_b                   6.9183(18)
_cell_length_c                   24.587(7)
_cell_angle_alpha                90.00
_cell_angle_beta                 100.485(5)
_cell_angle_gamma                90.00
_cell_volume                     1043.99
loop_
_atom_site_label
_atom_site_type_symbol
_atom_site_fract_x
_atom_site_fract_y
_atom_site_fract_z
Ca1 Ca 0.89212(10) 0.25395(9) 0.96266(2)
C1 C 0.8700(5) 0.3289(4) 0.79826(12)
C2 C 0.6725(5) 0.2354(4) 0.79030(12)
H1 H 0.6388 0.1684 0.8203
C3 C 0.5378(5) 0.2329(4) 0.73878(12)
H2 H 0.4106 0.1688 0.7350
C4 C 0.6035(5) 0.3279(4) 0.69463(12)
C5 C 0.8034(5) 0.4179(4) 0.70246(13)
H3 H 0.8411 0.4789 0.6719
C6 C 0.9374(5) 0.4212(4) 0.75408(13)
H4 H 1.0639 0.4865 0.7580
C7 C 1.2114(5) 0.3891(5) 0.85845(13)
H5 H 1.2103 0.5241 0.8606
H6 H 1.2678 0.3538 0.8255
C8 C 1.3458(5) 0.3004(4) 0.90935(12)
C9 C 0.2891(5) 0.2221(4) 0.63192(12)
H7 H 0.2019 0.2491 0.6597
H8 H 0.3336 0.0934 0.6364
C10 C 0.1655(4) 0.2511(4) 0.57384(12)
O1 O 0.9917(3) 0.3211(3) 0.85124(8)
O2 O 1.2528(3) 0.2233(3) 0.94483(9)
O3 O 1.5468(3) 0.3121(3) 0.91175(9)
O4 O 0.4775(3) 0.3404(3) 0.64242(8)
O5 O 0.0878(3) 0.1025(3) 0.54820(8)
O6 O 0.1361(3) 0.4178(3) 0.55443(9)
O7 O 0.6444(4) 0.2022(4) 1.02683(9)
H9 H 0.6848 0.0945 1.0497
H10 H 0.5063 0.1833 1.0052
Ca1_2 Ca 1.89212(10) 0.25395(9) 0.96266(2)
Ca1C Ca -0.10788(10) 0.24605(9) 0.46266(2)
Ca1A Ca 0.10788(10) -0.24605(9) 0.53734(2)
Ca1A_2 Ca 0.10788(10) 0.75395(9) 0.53734(2)
O3_2 O 0.5468(3) 0.3121(3) 0.91175(9)
O5C O 1.0878(3) 0.3975(3) 1.04820(8)
O5A O 0.9122(3) 0.6025(3) 0.95180(8)
O6C O 1.1361(3) 0.0822(3) 1.05443(9)
O6A O 0.8639(3) -0.0822(3) 0.94557(9)
loop_
_geom_bond_atom_site_label_1
_geom_bond_atom_site_label_2
_geom_bond_site_symmetry_1
_geom_bond_site_symmetry_2
Ca1 O1 1_555 1_555
C1 C2 1_555 1_555
C2 H1 1_555 1_555
C3 C2 1_555 1_555
H2 C3 1_555 1_555
C4 C3 1_555 1_555
C5 C4 1_555 1_555
H3 C5 1_555 1_555
C6 C1 1_555 1_555
H4 C6 1_555 1_555
C7 H5 1_555 1_555
H6 C7 1_555 1_555
C8 C7 1_555 1_555
C9 H7 1_555 1_555
H8 C9 1_555 1_555
C10 C9 1_555 1_555
O1 C1 1_555 1_555
O2 Ca1 1_555 1_555
O3 C8 1_555 1_555
O4 C4 1_555 1_555
O5 C10 1_555 1_555
O6 C10 1_555 1_555
O7 Ca1 1_555 1_555
H9 O7 1_555 1_555
H10 O7 1_555 1_555
Ca1_2 O3 1_555 1_555
Ca1C O5 1_555 1_555
Ca1A O5 1_555 1_555
Ca1A_2 O6 1_555 1_555
O3_2 Ca1 1_555 1_555
O5C Ca1 1_555 1_555
O5A Ca1 1_555 1_555
O6C Ca1 1_555 1_555
O6A Ca1 1_555 1_555
C5 C6 1_555 1_555
C7 O1 1_555 1_555
C8 O2 1_555 1_555
C9 O4 1_555 1_555
O6 Ca1C 1_555 1_555

#END
