
#######################################################################
#
#                 Cambridge Crystallographic Data Centre
#                                CCDC 
#
#######################################################################
#
# If this CIF has been generated from an entry in the Cambridge 
# Structural Database, then it will include bibliographic, chemical, 
# crystal, experimental, refinement or atomic coordinate data resulting 
# from the CCDC's data processing and validation procedures.
#
#######################################################################

data_QEHVEG
_symmetry_cell_setting           triclinic
_symmetry_space_group_name_H-M   'P -1'
_symmetry_Int_Tables_number      2
_space_group_name_Hall           '-P 1'
loop_
_symmetry_equiv_pos_site_id
_symmetry_equiv_pos_as_xyz
1 x,y,z
2 -x,-y,-z
_cell_length_a                   8.6995(6)
_cell_length_b                   8.8588(6)
_cell_length_c                   14.4951(11)
_cell_angle_alpha                96.7690(10)
_cell_angle_beta                 98.0410(10)
_cell_angle_gamma                104.6180(10)
_cell_volume                     1056.54
loop_
_atom_site_label
_atom_site_type_symbol
_atom_site_fract_x
_atom_site_fract_y
_atom_site_fract_z
Cd1 Cd -0.27248(3) 0.52273(3) 0.735709(16)
S1 S 0.27369(14) 0.71202(15) 0.86741(10)
S2 S -0.3160(2) 0.91153(18) 0.55728(14)
N1 N 0.2773(3) 0.3294(3) 1.11939(18)
N2 N -0.0681(3) 0.3301(3) 0.88084(18)
N3 N -0.1247(3) 0.3498(3) 0.79054(17)
N4 N 0.0836(3) 0.2572(3) 0.78320(17)
N5 N -0.1868(3) 0.3828(3) 0.60868(17)
N6 N 0.4937(3) 0.3164(3) 0.73284(19)
N7 N -0.0163(4) 0.7040(4) 0.7568(2)
N8 N -0.4072(4) 0.6536(4) 0.6437(2)
C1 C 0.1989(4) 0.3528(4) 1.0390(2)
H1 H 0.1725 0.4479 1.0373
C2 C 0.3159(4) 0.1926(4) 1.1204(3)
H2 H 0.3707 0.1752 1.1762
C3 C 0.2783(5) 0.0767(5) 1.0427(3)
H3 H 0.3077 -0.0166 1.0461
C4 C 0.1962(5) 0.1007(4) 0.9598(2)
H4 H 0.1690 0.0238 0.9063
C5 C 0.1550(4) 0.2412(4) 0.9576(2)
C6 C 0.0568(4) 0.2749(3) 0.8752(2)
C7 C -0.0347(3) 0.3075(3) 0.7331(2)
C8 C -0.0672(4) 0.3146(4) 0.6312(2)
C9 C 0.0090(4) 0.2557(4) 0.5640(2)
H5 H 0.0912 0.2093 0.5810
C10 C -0.0398(4) 0.2671(4) 0.4700(2)
H6 H 0.0111 0.2303 0.4233
C11 C -0.1639(4) 0.3332(4) 0.4469(2)
H7 H -0.2003 0.3396 0.3844
C12 C -0.2331(4) 0.3899(4) 0.5182(2)
H8 H -0.3166 0.4354 0.5025
C13 C 0.2233(3) 0.2209(3) 0.7538(2)
C14 C 0.2224(4) 0.0667(4) 0.7250(2)
H9 H 0.1313 -0.0166 0.7226
C15 C 0.3620(4) 0.0408(4) 0.6998(3)
H10 H 0.3671 -0.0612 0.6800
C16 C 0.4926(4) 0.1673(4) 0.7044(3)
H11 H 0.5856 0.1483 0.6868
C17 C 0.3588(3) 0.3420(3) 0.7570(2)
H12 H 0.3567 0.4451 0.7766
C18 C 0.1045(5) 0.7064(4) 0.8039(3)
C19 C -0.3655(5) 0.7599(5) 0.6093(3)
Cd1A Cd 0.27248(3) 0.47727(3) 1.264291(16)
Cd1_2 Cd 0.72752(3) 0.52273(3) 0.735709(16)
N1A N -0.2773(3) 0.6706(3) 0.88061(18)
N6_2 N -0.5063(3) 0.3164(3) 0.73284(19)
loop_
_geom_bond_atom_site_label_1
_geom_bond_atom_site_label_2
_geom_bond_site_symmetry_1
_geom_bond_site_symmetry_2
Cd1 N3 1_555 1_555
S1 C18 1_555 1_555
S2 C19 1_555 1_555
N1 C1 1_555 1_555
N2 N3 1_555 1_555
N3 C7 1_555 1_555
N4 C6 1_555 1_555
N5 Cd1 1_555 1_555
N6 C16 1_555 1_555
N7 Cd1 1_555 1_555
N8 Cd1 1_555 1_555
C1 H1 1_555 1_555
C2 N1 1_555 1_555
H2 C2 1_555 1_555
C3 C2 1_555 1_555
H3 C3 1_555 1_555
C4 C3 1_555 1_555
H4 C4 1_555 1_555
C5 C1 1_555 1_555
C6 N2 1_555 1_555
C7 N4 1_555 1_555
C8 N5 1_555 1_555
C9 C8 1_555 1_555
H5 C9 1_555 1_555
C10 C9 1_555 1_555
H6 C10 1_555 1_555
C11 C10 1_555 1_555
H7 C11 1_555 1_555
C12 N5 1_555 1_555
H8 C12 1_555 1_555
C13 N4 1_555 1_555
C14 C13 1_555 1_555
H9 C14 1_555 1_555
C15 C14 1_555 1_555
H10 C15 1_555 1_555
C16 C15 1_555 1_555
H11 C16 1_555 1_555
C17 N6 1_555 1_555
H12 C17 1_555 1_555
C18 N7 1_555 1_555
C19 N8 1_555 1_555
Cd1A N1 1_555 1_555
Cd1_2 N6 1_555 1_555
N1A Cd1 1_555 1_555
N6_2 Cd1 1_555 1_555
C4 C5 1_555 1_555
C5 C6 1_555 1_555
C7 C8 1_555 1_555
C11 C12 1_555 1_555
C13 C17 1_555 1_555

#END
