
#######################################################################
#
#                 Cambridge Crystallographic Data Centre
#                                CCDC 
#
#######################################################################
#
# If this CIF has been generated from an entry in the Cambridge 
# Structural Database, then it will include bibliographic, chemical, 
# crystal, experimental, refinement or atomic coordinate data resulting 
# from the CCDC's data processing and validation procedures.
#
#######################################################################

data_QEJBUD
_symmetry_cell_setting           monoclinic
_symmetry_space_group_name_H-M   'P 21/c'
_symmetry_Int_Tables_number      14
_space_group_name_Hall           '-P 2ybc'
loop_
_symmetry_equiv_pos_site_id
_symmetry_equiv_pos_as_xyz
1 x,y,z
2 -x,1/2+y,1/2-z
3 -x,-y,-z
4 x,1/2-y,1/2+z
_cell_length_a                   14.5933(13)
_cell_length_b                   5.7422(5)
_cell_length_c                   23.212(2)
_cell_angle_alpha                90.00
_cell_angle_beta                 106.128(2)
_cell_angle_gamma                90.00
_cell_volume                     1868.56
loop_
_atom_site_label
_atom_site_type_symbol
_atom_site_fract_x
_atom_site_fract_y
_atom_site_fract_z
Zn1 Zn 0.69515(4) 0.28207(10) 0.67136(2)
N1 N 0.8014(3) 0.4835(7) 0.71197(17)
N2 N 0.5728(3) 0.4178(8) 0.63002(19)
S1 S 0.95199(13) 0.7178(4) 0.78542(9)
C1 C 0.8602(4) 0.5698(10) 0.7429(2)
S2 S 0.41909(10) 0.6995(3) 0.57861(7)
C2 C 0.5098(4) 0.5340(9) 0.6082(2)
N3 N 0.6764(2) 0.0612(7) 0.73572(16)
C3 C 0.5972(4) -0.2662(11) 0.7612(3)
C4 C 0.6603(4) -0.2726(10) 0.8178(3)
C5 C 0.7371(4) 0.0540(9) 0.7908(2)
C6 C 0.6079(3) -0.0986(10) 0.7226(3)
C7 C 0.7327(3) -0.1086(8) 0.8338(2)
N4 N 1.2730(3) 0.5601(7) 0.88776(16)
C8 C 1.1674(3) 0.2780(8) 0.9101(2)
C9 C 1.1864(3) 0.4583(9) 0.8770(2)
C10 C 1.2411(4) 0.1964(11) 0.9567(2)
C11 C 1.3423(4) 0.4814(10) 0.9346(2)
C12 C 1.3287(4) 0.2983(11) 0.9694(2)
N5 N 1.0145(3) 0.2571(8) 0.93394(19)
C13 C 1.0687(4) 0.1665(10) 0.8951(2)
C14 C 0.9279(3) 0.1821(8) 0.9345(2)
N6 N 0.8905(3) 0.0063(7) 0.89836(18)
C15 C 0.8009(4) -0.1064(11) 0.8960(2)
S3 S 0.86909(10) 0.3103(2) 0.97969(6)
H1 H 1.146(3) 0.517(7) 0.8463(19)
H2 H 0.805(3) -0.260(9) 0.910(2)
H3 H 0.778(3) 0.139(7) 0.7986(17)
H4 H 1.080(3) -0.012(8) 0.9028(19)
H5 H 1.038(3) 0.364(8) 0.9544(19)
H6 H 0.922(3) -0.061(7) 0.8801(16)
H7 H 1.033(3) 0.200(8) 0.855(2)
H8 H 1.384(4) 0.241(8) 1.003(2)
H9 H 1.234(3) 0.072(9) 0.977(2)
H10 H 0.651(4) -0.373(10) 0.845(2)
H11 H 0.569(3) -0.096(9) 0.685(2)
H12 H 0.754(4) -0.010(10) 0.919(3)
H13 H 1.405(3) 0.558(8) 0.9423(19)
H14 H 0.548(4) -0.364(11) 0.744(3)
Zn1A Zn 1.30485(4) 0.78207(10) 0.82864(2)
N4A N 0.7270(3) 0.0601(7) 0.61224(16)
loop_
_geom_bond_atom_site_label_1
_geom_bond_atom_site_label_2
_geom_bond_site_symmetry_1
_geom_bond_site_symmetry_2
Zn1 N1 1_555 1_555
N1 C1 1_555 1_555
N2 Zn1 1_555 1_555
S1 C1 1_555 1_555
S2 C2 1_555 1_555
C2 N2 1_555 1_555
N3 Zn1 1_555 1_555
C3 C4 1_555 1_555
C4 C7 1_555 1_555
C5 N3 1_555 1_555
C6 N3 1_555 1_555
C7 C5 1_555 1_555
N4 C9 1_555 1_555
C8 C9 1_555 1_555
C9 H1 1_555 1_555
C10 C8 1_555 1_555
C11 N4 1_555 1_555
C12 C10 1_555 1_555
N5 C13 1_555 1_555
C13 C8 1_555 1_555
C14 N5 1_555 1_555
N6 C14 1_555 1_555
C15 C7 1_555 1_555
S3 C14 1_555 1_555
H2 C15 1_555 1_555
H3 C5 1_555 1_555
H4 C13 1_555 1_555
H5 N5 1_555 1_555
H6 N6 1_555 1_555
H7 C13 1_555 1_555
H8 C12 1_555 1_555
H9 C10 1_555 1_555
H10 C4 1_555 1_555
H11 C6 1_555 1_555
H12 C15 1_555 1_555
H13 C11 1_555 1_555
H14 C3 1_555 1_555
Zn1A N4 1_555 1_555
N4A Zn1 1_555 1_555
C3 C6 1_555 1_555
C11 C12 1_555 1_555
N6 C15 1_555 1_555

#END
