
#######################################################################
#
#                 Cambridge Crystallographic Data Centre
#                                CCDC 
#
#######################################################################
#
# If this CIF has been generated from an entry in the Cambridge 
# Structural Database, then it will include bibliographic, chemical, 
# crystal, experimental, refinement or atomic coordinate data resulting 
# from the CCDC's data processing and validation procedures.
#
#######################################################################

data_QEJCEO
_symmetry_cell_setting           monoclinic
_symmetry_space_group_name_H-M   'C 2/c'
_symmetry_Int_Tables_number      15
_space_group_name_Hall           '-C 2yn'
loop_
_symmetry_equiv_pos_site_id
_symmetry_equiv_pos_as_xyz
1 x,y,z
2 1/2+x,1/2+y,z
3 -x,y,1/2-z
4 1/2-x,1/2+y,1/2-z
5 -x,-y,-z
6 1/2-x,1/2-y,-z
7 x,-y,1/2+z
8 1/2+x,1/2-y,1/2+z
_cell_length_a                   23.4096(14)
_cell_length_b                   11.0338(7)
_cell_length_c                   15.3731(9)
_cell_angle_alpha                90.00
_cell_angle_beta                 126.4110(10)
_cell_angle_gamma                90.00
_cell_volume                     3195.64
loop_
_atom_site_label
_atom_site_type_symbol
_atom_site_fract_x
_atom_site_fract_y
_atom_site_fract_z
Cd1 Cd 0.5000 -0.235328(17) -0.2500
S1 S 0.73806(3) -0.13826(6) -0.11245(5)
N1 N 0.60319(11) -0.24060(19) -0.24233(18)
C1 C 0.61491(10) -0.08849(18) -0.02812(15)
H1 H 0.6419 -0.1556 -0.0195
C2 C 0.64635(10) -0.00059(18) 0.05138(15)
N2 N 0.54765(9) -0.08232(16) -0.11705(14)
C3 C 0.50931(11) 0.0145(2) -0.12920(18)
H2 H 0.4626 0.0200 -0.1907
C4 C 0.60542(12) 0.0985(2) 0.03747(18)
H3 H 0.6243 0.1594 0.0894
C5 C 0.65897(11) -0.1970(2) -0.18816(17)
C6 C 0.53618(12) 0.1061(2) -0.05445(19)
H4 H 0.5082 0.1726 -0.0654
S2 S 0.85086(4) 0.26808(6) 0.23393(6)
N3 N 0.79026(9) 0.10348(17) 0.07570(15)
H5 H 0.7617 0.0434 0.0434
C7 C 0.87796(10) 0.0473(2) -0.05332(16)
H6 H 0.8543 0.1024 -0.1101
N4 N 0.94913(9) -0.11623(16) 0.11504(14)
C8 C 0.79849(10) 0.14770(18) 0.16358(16)
N5 N 0.76269(9) 0.09312(17) 0.19533(14)
H7 H 0.7640 0.1273 0.2468
C9 C 0.90919(10) -0.02847(19) 0.11347(15)
H8 H 0.9061 -0.0236 0.1710
C10 C 0.87230(10) 0.05526(18) 0.03129(15)
C11 C 0.72166(11) -0.0183(2) 0.15148(16)
H9 H 0.7201 -0.0567 0.2068
H10 H 0.7460 -0.0731 0.1341
C12 C 0.82570(13) 0.1489(2) 0.0308(2)
H11 H 0.8543 0.2187 0.0724
H12 H 0.7903 0.1755 -0.0428
C13 C 0.91869(12) -0.0426(2) -0.05269(17)
H13 H 0.9228 -0.0492 -0.1090
C14 C 0.95331(12) -0.1227(2) 0.03233(18)
H14 H 0.9807 -0.1837 0.0322
Cd1G Cd 1.0000 -0.264672(17) 0.2500
Cd1G_2 Cd 0.0000 -0.264672(17) -0.7500
S1B S 0.26194(3) -0.13826(6) -0.38755(5)
N1B N 0.39681(11) -0.24060(19) -0.25767(18)
C1B C 0.38509(10) -0.08849(18) -0.47188(15)
H1B H 0.3581 -0.1556 -0.4805
C2B C 0.35365(10) -0.00059(18) -0.55138(15)
N2B N 0.45235(9) -0.08232(16) -0.38295(14)
C3B C 0.49069(11) 0.0145(2) -0.37080(18)
H2B H 0.5374 0.0200 -0.3093
C4B C 0.39458(12) 0.0985(2) -0.53747(18)
H3B H 0.3757 0.1594 -0.5894
C5B C 0.34103(11) -0.1970(2) -0.31184(17)
C6B C 0.46382(12) 0.1061(2) -0.44555(19)
H4B H 0.4918 0.1726 -0.4346
S2B S 0.14914(4) 0.26808(6) -0.73393(6)
N3B N 0.20974(9) 0.10348(17) -0.57570(15)
H5B H 0.2383 0.0434 -0.5434
C7B C 0.12204(10) 0.0473(2) -0.44668(16)
H6B H 0.1457 0.1024 -0.3899
N4B N 0.05087(9) -0.11623(16) -0.61504(14)
N4G N 0.44913(9) -0.38377(16) -0.38496(14)
N4E N 0.55087(9) -0.38377(16) -0.11504(14)
C8B C 0.20151(10) 0.14770(18) -0.66358(16)
N5B N 0.23731(9) 0.09312(17) -0.69533(14)
H7B H 0.2360 0.1273 -0.7468
C9B C 0.09081(10) -0.02847(19) -0.61347(15)
H8B H 0.0939 -0.0236 -0.6710
C10B C 0.12770(10) 0.05526(18) -0.53129(15)
C11B C 0.27834(11) -0.0183(2) -0.65148(16)
H9B H 0.2799 -0.0567 -0.7068
H10B H 0.2540 -0.0731 -0.6341
C12B C 0.17430(13) 0.1489(2) -0.5308(2)
H11B H 0.1457 0.2187 -0.5724
H12B H 0.2097 0.1755 -0.4572
C13B C 0.08131(12) -0.0426(2) -0.44731(17)
H13B H 0.0772 -0.0492 -0.3910
C14B C 0.04669(12) -0.1227(2) -0.53233(18)
H14B H 0.0193 -0.1837 -0.5322
loop_
_geom_bond_atom_site_label_1
_geom_bond_atom_site_label_2
_geom_bond_site_symmetry_1
_geom_bond_site_symmetry_2
Cd1 N1 1_555 1_555
S1 C5 1_555 1_555
N1 C5 1_555 1_555
C1 H1 1_555 1_555
C2 C1 1_555 1_555
N2 Cd1 1_555 1_555
C3 N2 1_555 1_555
H2 C3 1_555 1_555
C4 C2 1_555 1_555
H3 C4 1_555 1_555
C6 C3 1_555 1_555
H4 C6 1_555 1_555
S2 C8 1_555 1_555
N3 H5 1_555 1_555
C7 H6 1_555 1_555
N4 C9 1_555 1_555
C8 N3 1_555 1_555
N5 C8 1_555 1_555
H7 N5 1_555 1_555
C9 H8 1_555 1_555
C10 C7 1_555 1_555
C11 C2 1_555 1_555
H9 C11 1_555 1_555
H10 C11 1_555 1_555
C12 N3 1_555 1_555
H11 C12 1_555 1_555
H12 C12 1_555 1_555
C13 C7 1_555 1_555
H13 C13 1_555 1_555
C14 N4 1_555 1_555
H14 C14 1_555 1_555
Cd1G N4 1_555 1_555
Cd1G_2 N4B 1_555 1_555
S1B C5B 1_555 1_555
N1B Cd1 1_555 1_555
C1B H1B 1_555 1_555
C2B C1B 1_555 1_555
N2B Cd1 1_555 1_555
C3B N2B 1_555 1_555
H2B C3B 1_555 1_555
C4B C2B 1_555 1_555
H3B C4B 1_555 1_555
C5B N1B 1_555 1_555
C6B C3B 1_555 1_555
H4B C6B 1_555 1_555
S2B C8B 1_555 1_555
N3B H5B 1_555 1_555
C7B H6B 1_555 1_555
N4B C9B 1_555 1_555
N4G Cd1 1_555 1_555
N4E Cd1 1_555 1_555
C8B N3B 1_555 1_555
N5B C8B 1_555 1_555
H7B N5B 1_555 1_555
C9B H8B 1_555 1_555
C10B C7B 1_555 1_555
C11B C2B 1_555 1_555
H9B C11B 1_555 1_555
H10B C11B 1_555 1_555
C12B N3B 1_555 1_555
H11B C12B 1_555 1_555
H12B C12B 1_555 1_555
C13B C7B 1_555 1_555
H13B C13B 1_555 1_555
C14B N4B 1_555 1_555
H14B C14B 1_555 1_555
C1 N2 1_555 1_555
C4 C6 1_555 1_555
N5 C11 1_555 1_555
C9 C10 1_555 1_555
C10 C12 1_555 1_555
C13 C14 1_555 1_555
C1B N2B 1_555 1_555
C4B C6B 1_555 1_555
N5B C11B 1_555 1_555
C9B C10B 1_555 1_555
C10B C12B 1_555 1_555
C13B C14B 1_555 1_555

#END
