
#######################################################################
#
#                 Cambridge Crystallographic Data Centre
#                                CCDC 
#
#######################################################################
#
# If this CIF has been generated from an entry in the Cambridge 
# Structural Database, then it will include bibliographic, chemical, 
# crystal, experimental, refinement or atomic coordinate data resulting 
# from the CCDC's data processing and validation procedures.
#
#######################################################################

data_QEJLUN
_symmetry_cell_setting           orthorhombic
_symmetry_space_group_name_H-M   'P n m a'
_symmetry_Int_Tables_number      62
_space_group_name_Hall           '-P 2ac 2n'
loop_
_symmetry_equiv_pos_site_id
_symmetry_equiv_pos_as_xyz
1 x,y,z
2 1/2-x,-y,1/2+z
3 -x,1/2+y,-z
4 1/2+x,1/2-y,1/2-z
5 -x,-y,-z
6 1/2+x,y,1/2-z
7 x,1/2-y,z
8 1/2-x,1/2+y,1/2+z
_cell_length_a                   9.1400(2)
_cell_length_b                   7.30990(10)
_cell_length_c                   13.0487(3)
_cell_angle_alpha                90
_cell_angle_beta                 90
_cell_angle_gamma                90
_cell_volume                     871.816
loop_
_atom_site_label
_atom_site_type_symbol
_atom_site_fract_x
_atom_site_fract_y
_atom_site_fract_z
Ag1 Ag 0.70679(4) 0.2500 0.34050(3)
N1 N 0.6948(3) -0.0572(4) 0.3629(2)
C1 C 0.8158(3) -0.1529(5) 0.3577(2)
H1 H 0.9066 -0.0902 0.3538
C2 C 0.5660(3) -0.1525(4) 0.3733(2)
C3 C 0.4330(3) -0.0588(4) 0.3861(2)
H2 H 0.4312 0.0711 0.3838
C4 C 0.3059(3) -0.1540(5) 0.4020(3)
H3 H 0.2171 -0.0895 0.4131
Ag1_2 Ag 0.70679(4) -0.7500 0.34050(3)
N1F N 0.6948(3) -0.4428(4) 0.3629(2)
N1F_2 N 0.6948(3) 0.5572(4) 0.3629(2)
C1F C 0.8158(3) -0.3471(5) 0.3577(2)
H1F H 0.9066 -0.4098 0.3538
C2F C 0.5660(3) -0.3475(4) 0.3733(2)
C3F C 0.4330(3) -0.4412(4) 0.3861(2)
H2F H 0.4312 -0.5711 0.3838
C4F C 0.3059(3) -0.3460(5) 0.4020(3)
H3F H 0.2171 -0.4105 0.4131
N2 N 1.0510(4) 0.2500 0.3758(3)
O1 O 0.9819(4) 0.2500 0.4583(3)
O2 O 1.1867(4) 0.2500 0.3740(3)
O3 O 0.9807(4) 0.2500 0.2931(3)
loop_
_geom_bond_atom_site_label_1
_geom_bond_atom_site_label_2
_geom_bond_site_symmetry_1
_geom_bond_site_symmetry_2
Ag1 N1 1_555 1_555
N1 C1 1_555 1_555
C1 H1 1_555 1_555
C2 N1 1_555 1_555
C3 C2 1_555 1_555
H2 C3 1_555 1_555
C4 C3 1_555 1_555
H3 C4 1_555 1_555
N2 O1 1_555 1_555
O2 N2 1_555 1_555
O3 N2 1_555 1_555
Ag1_2 N1F 1_555 1_555
N1F C1F 1_555 1_555
N1F_2 Ag1 1_555 1_555
C1F C1 1_555 1_555
H1F C1F 1_555 1_555
C2F C2 1_555 1_555
C3F C2F 1_555 1_555
H2F C3F 1_555 1_555
C4F C4 1_555 1_555
H3F C4F 1_555 1_555
N1F C2F 1_555 1_555
C3F C4F 1_555 1_555

#END
