
#######################################################################
#
#                 Cambridge Crystallographic Data Centre
#                                CCDC 
#
#######################################################################
#
# If this CIF has been generated from an entry in the Cambridge 
# Structural Database, then it will include bibliographic, chemical, 
# crystal, experimental, refinement or atomic coordinate data resulting 
# from the CCDC's data processing and validation procedures.
#
#######################################################################

data_QEJMAU
_symmetry_cell_setting           monoclinic
_symmetry_space_group_name_H-M   'P 21/c'
_symmetry_Int_Tables_number      14
_space_group_name_Hall           '-P 2ybc'
loop_
_symmetry_equiv_pos_site_id
_symmetry_equiv_pos_as_xyz
1 x,y,z
2 -x,1/2+y,1/2-z
3 -x,-y,-z
4 x,1/2-y,1/2+z
_cell_length_a                   13.1291(2)
_cell_length_b                   14.0159(1)
_cell_length_c                   9.0890(1)
_cell_angle_alpha                90
_cell_angle_beta                 90.101(1)
_cell_angle_gamma                90
_cell_volume                     1672.52
loop_
_atom_site_label
_atom_site_type_symbol
_atom_site_fract_x
_atom_site_fract_y
_atom_site_fract_z
Ag1 Ag -0.08504(4) 0.35233(2) -0.15619(4)
Ag2 Ag 0.41537(4) 0.34945(2) 0.18960(4)
N1 N 0.0710(4) 0.3912(3) -0.0540(5)
C1 C 0.1564(3) 0.3937(3) -0.1320(5)
C2 C 0.2498(4) 0.3872(3) -0.0575(6)
H1 H 0.3107 0.3890 -0.1136
N2 N 0.2573(3) 0.3786(3) 0.0881(4)
C3 C 0.1716(3) 0.3771(3) 0.1671(6)
C4 C 0.0758(5) 0.3857(3) 0.0925(5)
H2 H 0.0147 0.3876 0.1483
C5 C 0.1510(4) 0.4018(3) -0.2946(5)
H3 H 0.1033 0.4527 -0.3215
H4 H 0.2187 0.4168 -0.3335
H5 H 0.1274 0.3412 -0.3363
C6 C 0.1754(4) 0.3653(3) 0.3304(5)
H6 H 0.1973 0.4252 0.3759
H7 H 0.1076 0.3481 0.3667
H8 H 0.2239 0.3146 0.3555
N3 N 0.7576(3) 0.3775(3) -0.0535(5)
C7 C 0.6706(4) 0.3837(3) -0.1319(5)
C8 C 0.5802(6) 0.3881(3) -0.0583(5)
H9 H 0.5198 0.3928 -0.1156
N4 N 0.5699(3) 0.3864(3) 0.0885(4)
C9 C 0.6595(3) 0.3830(3) 0.1661(6)
C10 C 0.7495(4) 0.3775(3) 0.0936(5)
H10 H 0.8102 0.3735 0.1502
C11 C 0.6748(4) 0.3807(4) -0.2953(6)
H11 H 0.7052 0.3202 -0.3270
H12 H 0.6057 0.3860 -0.3354
H13 H 0.7163 0.4339 -0.3313
C12 C 0.6519(4) 0.3822(4) 0.3290(5)
H14 H 0.6089 0.3288 0.3601
H15 H 0.7201 0.3749 0.3717
H16 H 0.6219 0.4423 0.3627
N5 N -0.0860(4) 0.3494(2) -0.4876(3)
O1 O -0.0846(4) 0.3334(2) -0.6234(3)
O2 O -0.0955(4) 0.4307(2) -0.4387(4)
O3 O -0.0777(3) 0.27998(19) -0.4006(3)
N6 N 0.4127(4) 0.3477(2) 0.5193(4)
O4 O 0.4072(4) 0.4268(2) 0.4634(4)
O5 O 0.4227(3) 0.2752(2) 0.4376(3)
O6 O 0.4103(4) 0.3357(2) 0.6559(3)
Ag1C Ag -0.08504(4) 0.14767(2) -0.65619(4)
Ag1_2 Ag 0.91496(4) 0.35233(2) -0.15619(4)
Ag2C Ag 0.41537(4) 0.15055(2) 0.68960(4)
N3_2 N -0.2424(3) 0.3775(3) -0.0535(5)
O1C O -0.0846(4) 0.1666(2) -0.1234(3)
O6C O 0.4103(4) 0.1643(2) 0.1559(3)
loop_
_geom_bond_atom_site_label_1
_geom_bond_atom_site_label_2
_geom_bond_site_symmetry_1
_geom_bond_site_symmetry_2
Ag1 N1 1_555 1_555
Ag2 N2 1_555 1_555
N1 C1 1_555 1_555
C1 C2 1_555 1_555
C2 H1 1_555 1_555
N2 C2 1_555 1_555
C3 N2 1_555 1_555
C4 N1 1_555 1_555
H2 C4 1_555 1_555
C5 C1 1_555 1_555
H3 C5 1_555 1_555
H4 C5 1_555 1_555
H5 C5 1_555 1_555
C6 C3 1_555 1_555
H6 C6 1_555 1_555
H7 C6 1_555 1_555
H8 C6 1_555 1_555
N3 C7 1_555 1_555
C7 C8 1_555 1_555
C8 H9 1_555 1_555
N4 Ag2 1_555 1_555
C9 N4 1_555 1_555
C10 N3 1_555 1_555
H10 C10 1_555 1_555
C11 C7 1_555 1_555
H11 C11 1_555 1_555
H12 C11 1_555 1_555
H13 C11 1_555 1_555
C12 C9 1_555 1_555
H14 C12 1_555 1_555
H15 C12 1_555 1_555
H16 C12 1_555 1_555
N5 O1 1_555 1_555
O1 Ag1C 1_555 1_555
O2 N5 1_555 1_555
O3 Ag1 1_555 1_555
N6 O4 1_555 1_555
O5 Ag2 1_555 1_555
O6 N6 1_555 1_555
Ag1_2 N3 1_555 1_555
Ag2C O6 1_555 1_555
N3_2 Ag1 1_555 1_555
O1C Ag1 1_555 1_555
O6C Ag2 1_555 1_555
C3 C4 1_555 1_555
C8 N4 1_555 1_555
C9 C10 1_555 1_555
N5 O3 1_555 1_555
N6 O5 1_555 1_555

#END
