
#######################################################################
#
#                 Cambridge Crystallographic Data Centre
#                                CCDC 
#
#######################################################################
#
# If this CIF has been generated from an entry in the Cambridge 
# Structural Database, then it will include bibliographic, chemical, 
# crystal, experimental, refinement or atomic coordinate data resulting 
# from the CCDC's data processing and validation procedures.
#
#######################################################################

data_QEJSIJ
_symmetry_cell_setting           monoclinic
_symmetry_space_group_name_H-M   'P 21/c'
_symmetry_Int_Tables_number      14
_space_group_name_Hall           '-P 2ybc'
loop_
_symmetry_equiv_pos_site_id
_symmetry_equiv_pos_as_xyz
1 x,y,z
2 -x,1/2+y,1/2-z
3 -x,-y,-z
4 x,1/2-y,1/2+z
_cell_length_a                   10.546(2)
_cell_length_b                   37.161(7)
_cell_length_c                   19.459(3)
_cell_angle_alpha                90
_cell_angle_beta                 122.469(9)
_cell_angle_gamma                90
_cell_volume                     6433.9
loop_
_atom_site_label
_atom_site_type_symbol
_atom_site_fract_x
_atom_site_fract_y
_atom_site_fract_z
Cu1 Cu -0.02656(5) 0.093610(12) -0.18760(3)
Cu2 Cu -0.52962(6) 0.089300(14) -0.06788(3)
Cu3 Cu 0.01397(6) 0.344230(13) -0.11171(3)
Cu4 Cu -0.50017(5) 0.339280(12) -0.00323(3)
Mn1 Mn -0.26180(7) -0.028270(16) -0.37749(4)
Mn2 Mn -0.80889(7) -0.030140(16) -0.23142(4)
Mn3 Mn 0.25526(6) 0.212520(15) 0.00183(4)
Mn4 Mn -0.28806(7) 0.204560(16) 0.13446(4)
O1 O -0.0365(3) -0.00031(8) -0.29039(18)
O2 O -0.3071(4) 0.00011(8) -0.4847(2)
O3 O 0.0442(3) 0.05311(7) -0.22664(18)
O4 O -0.2280(5) -0.05590(9) -0.2654(2)
O5 O -0.3175(3) 0.01683(8) -0.33155(19)
O6 O -0.5793(4) -0.05715(10) -0.1596(2)
O7 O -0.7428(4) -0.00329(9) -0.12034(18)
O8 O 0.0673(4) 0.05551(10) -0.0685(2)
O9 O -0.6365(3) 0.04792(8) -0.05665(18)
O10 O -0.3006(5) 0.04598(11) -0.0077(2)
O11 O -0.7047(3) 0.01520(8) -0.24298(18)
O12 O 0.2945(4) 0.18223(9) 0.1042(2)
O13 O 0.2898(3) 0.16660(8) -0.05822(18)
O14 O -0.0501(4) 0.19253(9) 0.1879(2)
O15 O 0.1750(3) 0.11765(8) -0.13419(18)
O16 O -0.2710(4) 0.20543(10) 0.2485(2)
O17 O 0.0338(3) 0.18640(8) -0.07010(19)
O18 O -0.5838(4) 0.32264(9) -0.1382(2)
O19 O -0.3952(3) 0.15299(8) 0.12051(18)
O20 O -0.4848(3) 0.10503(8) 0.03958(18)
O21 O -0.3270(4) 0.18412(8) 0.01950(19)
O22 O 0.1765(3) 0.24801(7) -0.10231(17)
O23 O 0.0908(3) 0.30370(8) -0.14300(18)
O24 O 0.1553(3) 0.25685(8) 0.02968(17)
O25 O -0.5168(3) 0.23844(7) 0.06120(18)
O26 O -0.5846(3) 0.29527(7) 0.01673(19)
O27 O -0.2270(3) 0.25632(8) 0.11942(19)
O28 O -0.9786(3) -0.13224(8) -0.28829(18)
O29 O -0.9064(4) -0.07929(8) -0.22509(18)
O30 O -0.8477(4) -0.05603(8) -0.33689(18)
O31 O -0.3062(3) -0.13378(7) -0.45686(18)
O32 O -0.2097(3) -0.07905(8) -0.41141(18)
O33 O -0.4764(3) -0.05557(8) -0.44215(19)
N1 N -0.2208(4) 0.06772(9) -0.2521(2)
N2 N -0.5828(4) 0.06645(9) -0.1708(2)
N3 N -0.0841(4) 0.13841(9) -0.1574(2)
N4 N -0.4285(4) 0.13435(9) -0.0644(2)
N5 N 0.0527(4) 0.31326(9) -0.0211(2)
N6 N -0.3102(4) 0.31182(9) 0.0593(2)
N7 N -0.9166(4) -0.11225(9) -0.3961(2)
N8 N -0.5704(4) -0.11286(9) -0.4869(2)
C1 C -0.0548(4) 0.02949(10) -0.2659(2)
C2 C -0.2133(4) 0.03830(11) -0.2858(2)
C3 C -0.6810(5) 0.02627(11) -0.1147(2)
C4 C -0.6565(4) 0.03664(11) -0.1830(2)
C5 C -0.3674(4) 0.07661(10) -0.2696(2)
C6 C -0.4741(5) 0.09147(12) -0.3440(3)
H1 H -0.4494 0.0970 -0.3820
C7 C -0.6177(5) 0.09801(13) -0.3613(3)
H2 H -0.6897 0.1079 -0.4113
C8 C -0.6550(5) 0.08994(11) -0.3043(3)
H3 H -0.7517 0.0943 -0.3163
C9 C -0.5477(4) 0.07539(10) -0.2298(2)
C10 C -0.4026(4) 0.06876(11) -0.2119(2)
H4 H -0.3301 0.0591 -0.1618
C11 C 0.1789(4) 0.14677(10) -0.0990(2)
C12 C 0.0314(4) 0.15877(10) -0.1085(2)
C13 C -0.4269(4) 0.13627(11) 0.0583(3)
C14 C -0.3915(4) 0.15368(10) -0.0007(2)
C15 C -0.2244(4) 0.14923(10) -0.1683(2)
C16 C -0.3238(5) 0.17094(11) -0.2335(2)
H5 H -0.3013 0.1784 -0.2714
C17 C -0.4581(5) 0.18144(12) -0.2412(3)
H6 H -0.5246 0.1963 -0.2841
C18 C -0.4935(4) 0.16994(11) -0.1855(3)
H7 H -0.5836 0.1768 -0.1913
C19 C -0.3933(4) 0.14803(10) -0.1210(2)
C20 C -0.2588(4) 0.13785(10) -0.1122(2)
H8 H -0.1916 0.1234 -0.0687
C21 C 0.1292(4) 0.27749(11) -0.0940(2)
C22 C 0.1127(4) 0.28232(10) -0.0214(2)
C23 C -0.4908(4) 0.27024(11) 0.0504(2)
C24 C -0.3278(4) 0.27965(10) 0.0797(2)
C25 C 0.0199(4) 0.31922(10) 0.0401(2)
C26 C 0.1284(4) 0.33244(11) 0.1164(3)
H9 H 0.2258 0.3364 0.1293
C27 C 0.0909(5) 0.33969(12) 0.1735(3)
H10 H 0.1632 0.3490 0.2242
C28 C -0.0537(5) 0.33313(11) 0.1555(3)
H11 H -0.0779 0.3376 0.1942
C29 C -0.1620(4) 0.31978(10) 0.0789(2)
C30 C -0.1252(4) 0.31242(10) 0.0217(2)
H12 H -0.1971 0.3030 -0.0289
C31 C -0.9286(4) -0.10082(11) -0.2800(2)
C32 C -0.8942(4) -0.08801(11) -0.3428(2)
C33 C -0.3138(4) -0.10130(10) -0.4403(2)
C34 C -0.4662(4) -0.08800(10) -0.4577(2)
C35 C -0.8836(4) -0.10181(10) -0.4555(2)
C36 C -0.9826(5) -0.08086(12) -0.5215(3)
H13 H -1.0724 -0.0733 -0.5279
C37 C -0.9473(5) -0.07113(13) -0.5784(3)
H14 H -1.0141 -0.0573 -0.6233
C38 C -0.8119(5) -0.08218(12) -0.5679(3)
H15 H -0.7883 -0.0759 -0.6060
C39 C -0.7124(4) -0.10262(10) -0.5005(2)
C40 C -0.7485(4) -0.11296(11) -0.4447(2)
H16 H -0.6828 -0.1272 -0.4003
Cu3A Cu -1.01397(6) -0.155770(13) -0.38829(3)
Cu4A Cu -0.49983(5) -0.160720(12) -0.49677(3)
Mn2_2 Mn 0.19111(7) -0.030140(16) -0.23142(4)
Mn3_2 Mn -0.74474(6) 0.212520(15) 0.00183(4)
O1_2 O -1.0365(3) -0.00031(8) -0.29039(18)
O25_2 O 0.4832(3) 0.23844(7) 0.06120(18)
O28A O -0.0214(3) 0.36776(8) -0.21171(18)
O31A O -0.6938(3) 0.36622(7) -0.04314(18)
N7A N -0.0834(4) 0.38775(9) -0.1039(2)
N8A N -0.4296(4) 0.38714(9) -0.0131(2)
O34 O -0.8401(8) -0.00061(12) -0.4342(4)
O35 O -0.5118(8) -0.01169(18) -0.2878(5)
O36 O -0.3433(6) -0.01052(13) -0.1161(4)
O37 O -1.0891(5) -0.01265(11) -0.1242(2)
O38 O -0.9755(5) -0.42514(12) -0.5361(3)
O39 O -0.254(3) -0.1087(5) -0.0741(10)
O40 O -1.0317(7) -0.35193(16) -0.5868(4)
O41 O -0.4803(8) -0.08790(17) -0.2541(5)
O42 O -0.5238(4) -0.16427(10) -0.2599(2)
O43 O -1.3094(4) -0.25334(10) -0.8085(2)
O44 O -1.6234(4) -0.24490(9) -0.9201(2)
O45 O -1.0737(4) -0.25541(9) -0.6437(2)
O46 O -1.8227(4) -0.24652(9) -0.8681(2)
O47 O -1.1912(5) -0.36970(11) -0.7518(3)
loop_
_geom_bond_atom_site_label_1
_geom_bond_atom_site_label_2
_geom_bond_site_symmetry_1
_geom_bond_site_symmetry_2
Cu1 O3 1_555 1_555
Cu2 O9 1_555 1_555
Cu3 O23 1_555 1_555
Cu4 O18 1_555 1_555
Mn1 O1 1_555 1_555
Mn2 O6 1_555 1_555
Mn3 O12 1_555 1_555
Mn4 O14 1_555 1_555
O1 C1 1_555 1_555
O2 Mn1 1_555 1_555
O3 C1 1_555 1_555
O4 Mn1 1_555 1_555
O5 Mn1 1_555 1_555
O7 Mn2 1_555 1_555
O8 Cu1 1_555 1_555
O9 C3 1_555 1_555
O10 Cu2 1_555 1_555
O11 Mn2 1_555 1_555
O13 Mn3 1_555 1_555
O15 Cu1 1_555 1_555
O16 Mn4 1_555 1_555
O17 Mn3 1_555 1_555
O19 Mn4 1_555 1_555
O20 Cu2 1_555 1_555
O21 Mn4 1_555 1_555
O22 Mn3 1_555 1_555
O23 C21 1_555 1_555
O24 Mn3 1_555 1_555
O25 Mn4 1_555 1_555
O26 Cu4 1_555 1_555
O27 Mn4 1_555 1_555
O28 C31 1_555 1_555
O29 Mn2 1_555 1_555
O30 Mn2 1_555 1_555
O31 C33 1_555 1_555
O32 Mn1 1_555 1_555
O33 Mn1 1_555 1_555
N1 Cu1 1_555 1_555
N2 Cu2 1_555 1_555
N3 Cu1 1_555 1_555
N4 Cu2 1_555 1_555
N5 Cu3 1_555 1_555
N6 Cu4 1_555 1_555
N7 C32 1_555 1_555
N8 C34 1_555 1_555
C1 C2 1_555 1_555
C2 O5 1_555 1_555
C3 O7 1_555 1_555
C4 O11 1_555 1_555
C5 N1 1_555 1_555
C6 C5 1_555 1_555
H1 C6 1_555 1_555
C7 C6 1_555 1_555
H2 C7 1_555 1_555
C8 C7 1_555 1_555
H3 C8 1_555 1_555
C9 N2 1_555 1_555
C10 C5 1_555 1_555
H4 C10 1_555 1_555
C11 O13 1_555 1_555
C12 O17 1_555 1_555
C13 O19 1_555 1_555
C14 O21 1_555 1_555
C15 N3 1_555 1_555
C16 C15 1_555 1_555
H5 C16 1_555 1_555
C17 C16 1_555 1_555
H6 C17 1_555 1_555
C18 C17 1_555 1_555
H7 C18 1_555 1_555
C19 N4 1_555 1_555
C20 C15 1_555 1_555
H8 C20 1_555 1_555
C21 O22 1_555 1_555
C22 O24 1_555 1_555
C23 O25 1_555 1_555
C24 O27 1_555 1_555
C25 N5 1_555 1_555
C26 C25 1_555 1_555
H9 C26 1_555 1_555
C27 C26 1_555 1_555
H10 C27 1_555 1_555
C28 C27 1_555 1_555
H11 C28 1_555 1_555
C29 N6 1_555 1_555
C30 C25 1_555 1_555
H12 C30 1_555 1_555
C31 O29 1_555 1_555
C32 O30 1_555 1_555
C33 O32 1_555 1_555
C34 O33 1_555 1_555
C35 N7 1_555 1_555
C36 C35 1_555 1_555
H13 C36 1_555 1_555
C37 C36 1_555 1_555
H14 C37 1_555 1_555
C38 C37 1_555 1_555
H15 C38 1_555 1_555
C39 N8 1_555 1_555
C40 C35 1_555 1_555
H16 C40 1_555 1_555
Cu3A O28 1_555 1_555
Cu4A O31 1_555 1_555
Mn2_2 O1 1_555 1_555
Mn3_2 O25 1_555 1_555
O1_2 Mn2 1_555 1_555
O25_2 Mn3 1_555 1_555
O28A Cu3 1_555 1_555
O31A Cu4 1_555 1_555
N7A Cu3 1_555 1_555
N8A Cu4 1_555 1_555
O15 C11 1_555 1_555
O20 C13 1_555 1_555
O26 C23 1_555 1_555
N1 C2 1_555 1_555
N2 C4 1_555 1_555
N3 C12 1_555 1_555
N4 C14 1_555 1_555
N5 C22 1_555 1_555
N6 C24 1_555 1_555
N7 Cu3A 1_555 1_555
N8 Cu4A 1_555 1_555
C3 C4 1_555 1_555
C8 C9 1_555 1_555
C9 C10 1_555 1_555
C11 C12 1_555 1_555
C13 C14 1_555 1_555
C18 C19 1_555 1_555
C19 C20 1_555 1_555
C21 C22 1_555 1_555
C23 C24 1_555 1_555
C28 C29 1_555 1_555
C29 C30 1_555 1_555
C31 C32 1_555 1_555
C33 C34 1_555 1_555
C38 C39 1_555 1_555
C39 C40 1_555 1_555

#END
