
#######################################################################
#
#                 Cambridge Crystallographic Data Centre
#                                CCDC 
#
#######################################################################
#
# If this CIF has been generated from an entry in the Cambridge 
# Structural Database, then it will include bibliographic, chemical, 
# crystal, experimental, refinement or atomic coordinate data resulting 
# from the CCDC's data processing and validation procedures.
#
#######################################################################

data_QEJZUB
_symmetry_cell_setting           orthorhombic
_symmetry_space_group_name_H-M   'I m m a'
_symmetry_Int_Tables_number      74
_space_group_name_Hall           '-I 2b 2'
loop_
_symmetry_equiv_pos_site_id
_symmetry_equiv_pos_as_xyz
1 x,y,z
2 1/2+x,1/2+y,1/2+z
3 -x,1/2-y,z
4 -x,1/2+y,-z
5 x,-y,-z
6 1/2-x,-y,1/2+z
7 1/2-x,y,1/2-z
8 1/2+x,1/2-y,1/2-z
9 -x,-y,-z
10 1/2-x,1/2-y,1/2-z
11 x,1/2+y,-z
12 x,1/2-y,z
13 -x,y,z
14 1/2+x,y,1/2-z
15 1/2+x,-y,1/2+z
16 1/2-x,1/2+y,1/2+z
_cell_length_a                   6.764(4)
_cell_length_b                   6.981(4)
_cell_length_c                   12.338(7)
_cell_angle_alpha                90
_cell_angle_beta                 90
_cell_angle_gamma                90
_cell_volume                     582.594
loop_
_atom_site_label
_atom_site_type_symbol
_atom_site_fract_x
_atom_site_fract_y
_atom_site_fract_z
Cu1 Cu 0.0000 0.7500 0.21060(6)
Cu2 Cu 0.2500 0.2500 0.2500
Cl1 Cl 0.0000 0.49428(17) 0.32618(9)
C1 C 0.1558(6) 0.7500 -0.0130(3)
H1 H 0.2867 0.7500 0.0100
N1 N 0.1010(5) 0.7500 -0.1161(2)
N2 N 0.0000 0.7500 0.0541(4)
Cu2L Cu -0.2500 0.2500 0.2500
Cu2J Cu 0.2500 0.7500 -0.2500
Cu2A Cu -0.2500 0.7500 -0.2500
Cu2_2 Cu 0.2500 1.2500 0.2500
Cu2L_2 Cu -0.2500 1.2500 0.2500
Cl1K Cl 0.0000 1.00572(17) 0.32618(9)
Cl1K_2 Cl 0.0000 0.00572(17) 0.32618(9)
Cl1M Cl 0.5000 0.49428(17) 0.17382(9)
Cl1I Cl 0.5000 0.00572(17) 0.17382(9)
C1L C -0.1558(6) 0.7500 -0.0130(3)
H1L H -0.2867 0.7500 0.0100
N1L N -0.1010(5) 0.7500 -0.1161(2)
N1J N 0.1010(5) 0.2500 0.1161(2)
N1O N 0.3990(5) 0.2500 0.3839(2)
loop_
_geom_bond_atom_site_label_1
_geom_bond_atom_site_label_2
_geom_bond_site_symmetry_1
_geom_bond_site_symmetry_2
Cu1 Cl1 1_555 1_555
Cu2 Cl1 1_555 1_555
Cl1 Cu2L 1_555 1_555
C1 H1 1_555 1_555
N1 C1 1_555 1_555
N2 Cu1 1_555 1_555
Cu2L Cl1K_2 1_555 1_555
Cu2J N1 1_555 1_555
Cu2A N1L 1_555 1_555
Cu2_2 Cl1K 1_555 1_555
Cu2L_2 Cl1K 1_555 1_555
Cl1K Cu1 1_555 1_555
Cl1K_2 Cu2 1_555 1_555
Cl1M Cu2 1_555 1_555
Cl1I Cu2 1_555 1_555
C1L N2 1_555 1_555
H1L C1L 1_555 1_555
N1L N1 1_555 1_555
N1J Cu2 1_555 1_555
N1O Cu2 1_555 1_555
C1 N2 1_555 1_555
C1L N1L 1_555 1_555

#END
