
#######################################################################
#
#                 Cambridge Crystallographic Data Centre
#                                CCDC 
#
#######################################################################
#
# If this CIF has been generated from an entry in the Cambridge 
# Structural Database, then it will include bibliographic, chemical, 
# crystal, experimental, refinement or atomic coordinate data resulting 
# from the CCDC's data processing and validation procedures.
#
#######################################################################

data_QEKBEO
_symmetry_cell_setting           orthorhombic
_symmetry_space_group_name_H-M   'F d d 2'
_symmetry_Int_Tables_number      43
_space_group_name_Hall           'F 2 -2d'
loop_
_symmetry_equiv_pos_site_id
_symmetry_equiv_pos_as_xyz
1 x,y,z
2 -x,-y,z
3 1/4+x,1/4-y,1/4+z
4 1/4-x,1/4+y,1/4+z
5 x,1/2+y,1/2+z
6 -x,1/2-y,1/2+z
7 1/4+x,3/4-y,3/4+z
8 1/4-x,3/4+y,3/4+z
9 1/2+x,y,1/2+z
10 1/2-x,-y,1/2+z
11 3/4+x,1/4-y,3/4+z
12 3/4-x,1/4+y,3/4+z
13 1/2+x,1/2+y,z
14 1/2-x,1/2-y,z
15 3/4+x,3/4-y,1/4+z
16 3/4-x,3/4+y,1/4+z
_cell_length_a                   15.7921(3)
_cell_length_b                   20.8796(2)
_cell_length_c                   15.6669(4)
_cell_angle_alpha                90
_cell_angle_beta                 90
_cell_angle_gamma                90
_cell_volume                     5165.89
loop_
_atom_site_label
_atom_site_type_symbol
_atom_site_fract_x
_atom_site_fract_y
_atom_site_fract_z
Cd1 Cd 0.2500 -0.2500 0.02311(2)
Cd2 Cd -0.145530(11) -0.303590(9) 0.026010(11)
S1 S -0.25635(6) -0.40060(4) 0.05284(5)
S2 S -0.05807(4) -0.19403(4) 0.02506(8)
S3 S 0.25845(7) -0.12007(5) 0.00402(6)
O1 O 0.2500 -0.2500 0.43676(18)
O2 O 0.2500 -0.2500 -0.38991(18)
N1 N 0.2500 -0.2500 0.3525(2)
N2 N 0.2500 -0.2500 0.1762(2)
N3 N 0.2500 -0.2500 -0.3057(2)
N4 N 0.2500 -0.2500 -0.1310(3)
N5 N -0.3199(2) -0.41132(18) -0.1130(2)
N6 N 0.10621(14) -0.24384(15) 0.0250(3)
N7 N 0.3351(2) -0.09497(17) 0.1601(2)
C1 C 0.1782(2) -0.26248(17) 0.3091(2)
H1 H 0.1285 -0.2719 0.3383
C2 C 0.1793(2) -0.26122(18) 0.2217(2)
H2 H 0.1289 -0.2684 0.1926
C3 C 0.1872(2) -0.27870(19) -0.2632(3)
H3 H 0.1435 -0.2989 -0.2924
C4 C 0.1885(3) -0.2777(2) -0.1750(3)
H4 H 0.1444 -0.2973 -0.1454
C5 C -0.2932(2) -0.40607(17) -0.0444(2)
C6 C 0.03838(16) -0.22471(14) 0.0251(3)
C7 C 0.3036(2) -0.10579(17) 0.0970(2)
Cd2M Cd 0.645530(11) -0.196410(9) 0.026010(11)
Cd2E Cd 0.145530(11) -0.196410(9) 0.526010(11)
Cd2H Cd 0.354470(11) -0.303590(9) 0.526010(11)
Cd2E_2 Cd 0.145530(11) -0.196410(9) -0.473990(11)
Cd2H_2 Cd 0.354470(11) -0.303590(9) -0.473990(11)
Cd2J Cd -0.395530(11) -0.446410(9) -0.223990(11)
Cd2C Cd 0.395530(11) -0.053590(9) 0.276010(11)
Cd2B Cd 0.104470(11) -0.446410(9) 0.276010(11)
S1B S -0.00635(6) -0.34940(4) 0.30284(5)
S1M S 0.75635(6) -0.09940(4) 0.05284(5)
S2M S 0.55807(4) -0.30597(4) 0.02506(8)
S3M S 0.24155(7) -0.37993(5) 0.00402(6)
O1E O -0.2500 -0.2500 -0.06324(18)
O1E_2 O 0.7500 -0.2500 -0.06324(18)
O2E O -0.2500 -0.2500 0.11009(18)
O2E_2 O 0.7500 -0.2500 0.11009(18)
N5B N -0.0699(2) -0.33868(18) 0.1370(2)
N5C N 0.5699(2) -0.16132(18) 0.1370(2)
N6M N 0.39379(14) -0.25616(15) 0.0250(3)
N7M N 0.1649(2) -0.40503(17) 0.1601(2)
N7G N -0.0851(2) -0.34497(17) -0.0899(2)
N7F N 0.5851(2) -0.15503(17) -0.0899(2)
C1M C 0.3218(2) -0.23752(17) 0.3091(2)
H1M H 0.3715 -0.2281 0.3383
C2M C 0.3207(2) -0.23878(18) 0.2217(2)
H2M H 0.3711 -0.2316 0.1926
C3M C 0.3128(2) -0.22130(19) -0.2632(3)
H3M H 0.3565 -0.2011 -0.2924
C4M C 0.3115(3) -0.2223(2) -0.1750(3)
H4M H 0.3556 -0.2027 -0.1454
C5B C -0.0432(2) -0.34393(17) 0.2056(2)
C6M C 0.46162(16) -0.27529(14) 0.0251(3)
C7M C 0.1964(2) -0.39421(17) 0.0970(2)
loop_
_geom_bond_atom_site_label_1
_geom_bond_atom_site_label_2
_geom_bond_site_symmetry_1
_geom_bond_site_symmetry_2
Cd1 S3 1_555 1_555
Cd2 S1 1_555 1_555
S1 C5 1_555 1_555
S2 Cd2 1_555 1_555
S3 C7 1_555 1_555
O1 N1 1_555 1_555
O2 N3 1_555 1_555
N1 C1 1_555 1_555
N2 Cd1 1_555 1_555
N3 C3 1_555 1_555
N4 Cd1 1_555 1_555
N5 C5 1_555 1_555
N6 Cd1 1_555 1_555
N7 C7 1_555 1_555
C1 H1 1_555 1_555
C2 N2 1_555 1_555
H2 C2 1_555 1_555
C3 H3 1_555 1_555
C4 N4 1_555 1_555
H4 C4 1_555 1_555
C6 S2 1_555 1_555
Cd2M S1M 1_555 1_555
Cd2E O1 1_555 1_555
Cd2H O1 1_555 1_555
Cd2E_2 O2 1_555 1_555
Cd2H_2 O2 1_555 1_555
Cd2J N5 1_555 1_555
Cd2C N7 1_555 1_555
Cd2B S1B 1_555 1_555
S1B C5B 1_555 1_555
S2M Cd2M 1_555 1_555
S3M Cd1 1_555 1_555
O1E Cd2 1_555 1_555
O1E_2 Cd2M 1_555 1_555
O2E Cd2 1_555 1_555
O2E_2 Cd2M 1_555 1_555
N5B Cd2 1_555 1_555
N5C Cd2M 1_555 1_555
N6M Cd1 1_555 1_555
N7M Cd2B 1_555 1_555
N7G Cd2 1_555 1_555
N7F Cd2M 1_555 1_555
C1M N1 1_555 1_555
H1M C1M 1_555 1_555
C2M N2 1_555 1_555
H2M C2M 1_555 1_555
C3M N3 1_555 1_555
H3M C3M 1_555 1_555
C4M N4 1_555 1_555
H4M C4M 1_555 1_555
C5B N5B 1_555 1_555
C6M S2M 1_555 1_555
C7M S3M 1_555 1_555
N6 C6 1_555 1_555
C1 C2 1_555 1_555
C3 C4 1_555 1_555
N6M C6M 1_555 1_555
N7M C7M 1_555 1_555
C1M C2M 1_555 1_555
C3M C4M 1_555 1_555

#END
