
#######################################################################
#
#                 Cambridge Crystallographic Data Centre
#                                CCDC 
#
#######################################################################
#
# If this CIF has been generated from an entry in the Cambridge 
# Structural Database, then it will include bibliographic, chemical, 
# crystal, experimental, refinement or atomic coordinate data resulting 
# from the CCDC's data processing and validation procedures.
#
#######################################################################

data_QEKCAL
_symmetry_cell_setting           monoclinic
_symmetry_space_group_name_H-M   'C 2/c'
_symmetry_Int_Tables_number      15
_space_group_name_Hall           '-C 2yn'
loop_
_symmetry_equiv_pos_site_id
_symmetry_equiv_pos_as_xyz
1 x,y,z
2 1/2+x,1/2+y,z
3 -x,y,1/2-z
4 1/2-x,1/2+y,1/2-z
5 -x,-y,-z
6 1/2-x,1/2-y,-z
7 x,-y,1/2+z
8 1/2+x,1/2-y,1/2+z
_cell_length_a                   31.3049(17)
_cell_length_b                   12.0340(12)
_cell_length_c                   22.227(3)
_cell_angle_alpha                90
_cell_angle_beta                 110.430(3)
_cell_angle_gamma                90
_cell_volume                     7846.73
loop_
_atom_site_label
_atom_site_type_symbol
_atom_site_fract_x
_atom_site_fract_y
_atom_site_fract_z
Ag1 Ag 1.0000 0.79009(4) 0.2500
C1 C 0.90378(15) 0.7097(4) 0.1388(2)
H1 H 0.8971 0.6912 0.1752
C2 C 0.87289(14) 0.6816(3) 0.0811(2)
C3 C 0.88335(16) 0.7107(3) 0.0275(2)
H2 H 0.8625 0.6950 -0.0131
C4 C 0.9246(2) 0.7632(4) 0.0326(3)
H3 H 0.9313 0.7808 -0.0038
C5 C 0.95424(18) 0.7874(4) 0.0921(3)
H4 H 0.9819 0.8208 0.0963
C6 C 0.82737(13) 0.6256(3) 0.0758(2)
H5 H 0.8190 0.6484 0.1120
H6 H 0.8038 0.6514 0.0370
C7 C 0.78177(15) 0.4603(4) 0.0465(2)
H7 H 0.7727 0.4641 0.0001
H8 H 0.7609 0.5051 0.0599
C8 C 0.78187(15) 0.3427(4) 0.0652(2)
H9 H 0.7575 0.3312 0.0820
H10 H 0.8104 0.3268 0.0995
C9 C 0.77607(15) 0.2622(4) 0.0116(2)
H11 H 0.7938 0.1952 0.0268
H12 H 0.7847 0.2952 -0.0223
N1 N 0.94404(12) 0.7631(3) 0.14780(17)
N2 N 0.82929(13) 0.5017(3) 0.07437(18)
H13 H 0.8456 0.4795 0.0503
H14 H 0.8427 0.4750 0.1144
Ag1G Ag 0.5000 -0.29009(4) -0.2500
C1E C 0.59622(15) -0.2097(4) -0.1388(2)
H1E H 0.6029 -0.1912 -0.1752
C2E C 0.62711(14) -0.1816(3) -0.0811(2)
C3E C 0.61665(16) -0.2107(3) -0.0275(2)
H2E H 0.6375 -0.1950 0.0131
C4E C 0.5754(2) -0.2632(4) -0.0326(3)
H3E H 0.5687 -0.2808 0.0038
C5E C 0.54576(18) -0.2874(4) -0.0921(3)
H4E H 0.5181 -0.3208 -0.0963
C6E C 0.67263(13) -0.1256(3) -0.0758(2)
H5E H 0.6810 -0.1484 -0.1120
H6E H 0.6962 -0.1514 -0.0370
C7E C 0.71823(15) 0.0397(4) -0.0465(2)
H7E H 0.7273 0.0359 -0.0001
H8E H 0.7391 -0.0051 -0.0599
C8E C 0.71813(15) 0.1573(4) -0.0652(2)
H9E H 0.7425 0.1688 -0.0820
H10E H 0.6896 0.1732 -0.0995
C9E C 0.72393(15) 0.2378(4) -0.0116(2)
H11E H 0.7062 0.3048 -0.0268
H12E H 0.7153 0.2048 0.0223
N1E N 0.55596(12) -0.2631(3) -0.14780(17)
N1B N 1.05596(12) 0.7631(3) 0.35220(17)
N2E N 0.67071(13) -0.0017(3) -0.07437(18)
H13E H 0.6544 0.0205 -0.0503
H14E H 0.6573 0.0250 -0.1144
C10 C 0.82168(12) 0.1024(3) -0.12876(16)
C11 C 0.84328(12) -0.0393(2) 0.04256(15)
C12 C 0.74392(12) -0.0265(3) 0.12238(17)
C13 C 0.87181(11) 0.3830(3) -0.04312(17)
C14 C 0.89116(11) 0.2478(3) 0.12238(16)
C15 C 0.79301(10) 0.2529(2) 0.21007(15)
C16 C 0.85746(12) 0.2718(3) -0.13673(16)
H15 H 0.8719 0.2860 -0.1687
C17 C 0.88922(11) 0.2093(3) -0.07609(16)
H16 H 0.9183 0.1893 -0.0807
C18 C 0.90816(10) 0.0760(3) 0.07971(16)
H17 H 0.9395 0.0505 0.0883
C19 C 0.88983(11) 0.0496(2) 0.13654(15)
H18 H 0.9127 0.0105 0.1720
C20 C 0.80328(12) 0.0591(3) 0.21341(17)
H19 H 0.8217 0.0186 0.2520
C21 C 0.75361(10) 0.0866(3) 0.21425(16)
H20 H 0.7494 0.0626 0.2539
C22 C 0.87878(12) 0.0112(3) -0.03427(16)
H21 H 0.8627 -0.0555 -0.0544
H22 H 0.9106 0.0017 -0.0292
C23 C 0.82553(11) -0.0773(3) 0.14037(15)
H23 H 0.8476 -0.1041 0.1803
H24 H 0.8103 -0.1417 0.1160
C24 C 0.67406(12) 0.0314(3) 0.13988(18)
H25 H 0.6628 -0.0321 0.1120
H26 H 0.6656 0.0212 0.1775
C25 C 0.92661(11) 0.2645(3) 0.04103(16)
H27 H 0.9356 0.3357 0.0621
H28 H 0.9538 0.2268 0.0403
C26 C 0.87092(11) 0.1829(3) 0.21510(17)
H29 H 0.8787 0.2600 0.2265
H30 H 0.8905 0.1369 0.2495
C27 C 0.78142(12) 0.2243(3) -0.22029(18)
H31 H 0.7933 0.2652 -0.2486
H32 H 0.7686 0.1553 -0.2414
N3 N 0.81928(10) 0.1992(3) -0.15928(15)
N4 N 0.86042(11) 0.1060(2) -0.07687(15)
N5 N 0.87533(10) 0.0223(2) 0.02556(14)
N6 N 0.84965(10) -0.0209(2) 0.10456(13)
N7 N 0.79206(10) -0.0107(2) 0.15524(15)
N8 N 0.72422(10) 0.0338(2) 0.16017(13)
N9 N 0.84690(10) 0.3743(3) -0.10823(14)
N10 N 0.89590(10) 0.2816(3) -0.02333(15)
N11 N 0.90380(10) 0.1954(2) 0.07797(14)
N12 N 0.87906(10) 0.1574(2) 0.15593(14)
N13 N 0.82253(10) 0.1635(3) 0.20853(13)
N14 N 0.74481(10) 0.2911(3) -0.20870(14)
O1 O 0.79766(8) 0.0282(2) -0.14265(12)
O2 O 0.81305(8) -0.0968(2) 0.00854(12)
O3 O 0.72635(9) -0.0861(2) 0.07853(12)
O4 O 0.87376(8) 0.4558(2) -0.00808(11)
O5 O 0.88927(8) 0.34411(18) 0.13522(11)
O6 O 0.80608(8) 0.3482(2) 0.21484(11)
C10E C 0.67832(12) 0.3976(3) 0.12876(16)
C11E C 0.65672(12) 0.5393(2) -0.04256(15)
C12E C 0.75608(12) 0.5265(3) -0.12238(17)
C13E C 0.62819(11) 0.1170(3) 0.04312(17)
C14E C 0.60884(11) 0.2522(3) -0.12238(16)
C15E C 0.70699(10) 0.2471(2) -0.21007(15)
C16E C 0.64254(12) 0.2282(3) 0.13673(16)
H15E H 0.6281 0.2140 0.1687
C17E C 0.61078(11) 0.2907(3) 0.07609(16)
H16E H 0.5817 0.3107 0.0807
C18E C 0.59184(10) 0.4240(3) -0.07971(16)
H17E H 0.5605 0.4495 -0.0883
C19E C 0.61017(11) 0.4504(2) -0.13654(15)
H18E H 0.5873 0.4895 -0.1720
C20E C 0.69672(12) 0.4409(3) -0.21341(17)
H19E H 0.6783 0.4814 -0.2520
C21E C 0.74639(10) 0.4134(3) -0.21425(16)
H20E H 0.7506 0.4374 -0.2539
C22E C 0.62122(12) 0.4888(3) 0.03427(16)
H21E H 0.6373 0.5555 0.0544
H22E H 0.5894 0.4983 0.0292
C23E C 0.67447(11) 0.5773(3) -0.14037(15)
H23E H 0.6524 0.6041 -0.1803
H24E H 0.6897 0.6417 -0.1160
C24E C 0.82594(12) 0.4686(3) -0.13988(18)
H25E H 0.8372 0.5321 -0.1120
H26E H 0.8344 0.4788 -0.1775
C25E C 0.57339(11) 0.2355(3) -0.04103(16)
H27E H 0.5644 0.1643 -0.0621
H28E H 0.5462 0.2732 -0.0403
C26E C 0.62908(11) 0.3171(3) -0.21510(17)
H29E H 0.6213 0.2400 -0.2265
H30E H 0.6095 0.3631 -0.2495
C27E C 0.71858(12) 0.2757(3) 0.22029(18)
H31E H 0.7067 0.2348 0.2486
H32E H 0.7314 0.3447 0.2414
N3E N 0.68072(10) 0.3008(3) 0.15928(15)
N4E N 0.63958(11) 0.3940(2) 0.07687(15)
N5E N 0.62467(10) 0.4777(2) -0.02556(14)
N6E N 0.65035(10) 0.5209(2) -0.10456(13)
N7E N 0.70794(10) 0.5107(2) -0.15524(15)
N8E N 0.77578(10) 0.4662(2) -0.16017(13)
N9E N 0.65310(10) 0.1257(3) 0.10823(14)
N10E N 0.60410(10) 0.2184(3) 0.02333(15)
N11E N 0.59620(10) 0.3046(2) -0.07797(14)
N12E N 0.62094(10) 0.3426(2) -0.15593(14)
N13E N 0.67747(10) 0.3365(3) -0.20853(13)
N14E N 0.75519(10) 0.2089(3) 0.20870(14)
O1E O 0.70234(8) 0.4718(2) 0.14265(12)
O2E O 0.68695(8) 0.5968(2) -0.00854(12)
O3E O 0.77365(9) 0.5861(2) -0.07853(12)
O4E O 0.62624(8) 0.0442(2) 0.00808(11)
O5E O 0.61073(8) 0.15589(18) -0.13522(11)
O6E O 0.69392(8) 0.1518(2) -0.21484(11)
N15 N 0.92673(9) 0.9018(2) 0.29828(12)
O7 O 0.89722(9) 0.9544(2) 0.31262(12)
O8 O 0.92820(8) 0.8025(2) 0.29825(11)
O9 O 0.95745(8) 0.95298(19) 0.28473(11)
N16 N 0.4455(2) 0.0063(5) 0.3055(3)
O10 O 0.48143(19) 0.0034(4) 0.3510(2)
O11 O 0.44042(17) -0.0024(4) 0.2505(2)
O12 O 0.40713(19) 0.0141(5) 0.3168(3)
O13 O 0.77224(15) 0.8016(4) 0.8606(2)
H33 H 0.7740 0.7769 0.8257
H34 H 0.7894 0.8581 0.8727
O14 O 0.5000 0.5000 1.0000
O15 O 0.97615(7) 0.44030(18) 0.94059(10)
H35 H 0.9476 0.4319 0.9219
H36 H 0.9856 0.4910 0.9217
O16 O 0.89822(7) 0.26781(19) 0.37044(11)
H37 H 0.8914 0.1996 0.3715
H38 H 0.9091 0.2782 0.3408
O17 O 0.97420(14) 0.1755(3) 0.38229(19)
H39 H 0.9747 0.1616 0.3451
H40 H 0.9768 0.1153 0.4033
O18 O 0.00373(15) 0.1527(4) 0.3058(2)
H41 H 0.0314 0.1533 0.3080
H42 H -0.0044 0.0862 0.3089
H43? H 0.4876 0.4585 1.0201
H44? H 0.4867 0.5627 0.9930
loop_
_geom_bond_atom_site_label_1
_geom_bond_atom_site_label_2
_geom_bond_site_symmetry_1
_geom_bond_site_symmetry_2
Ag1 N1 1_555 1_555
C1 H1 1_555 1_555
C2 C1 1_555 1_555
C3 C2 1_555 1_555
H2 C3 1_555 1_555
C4 C3 1_555 1_555
H3 C4 1_555 1_555
C5 C4 1_555 1_555
H4 C5 1_555 1_555
C6 C2 1_555 1_555
H5 C6 1_555 1_555
H6 C6 1_555 1_555
C7 H7 1_555 1_555
H8 C7 1_555 1_555
C8 C7 1_555 1_555
H9 C8 1_555 1_555
H10 C8 1_555 1_555
C9 C8 1_555 1_555
H11 C9 1_555 1_555
H12 C9 1_555 1_555
N1 C1 1_555 1_555
N2 C6 1_555 1_555
H13 N2 1_555 1_555
H14 N2 1_555 1_555
C10 N3 1_555 1_555
C11 N5 1_555 1_555
C12 N7 1_555 1_555
C13 N9 1_555 1_555
C14 N11 1_555 1_555
C15 N13 1_555 1_555
C16 H15 1_555 1_555
C17 C16 1_555 1_555
H16 C17 1_555 1_555
C18 H17 1_555 1_555
C19 C18 1_555 1_555
H18 C19 1_555 1_555
C20 H19 1_555 1_555
C21 C20 1_555 1_555
H20 C21 1_555 1_555
C22 H21 1_555 1_555
H22 C22 1_555 1_555
C23 H23 1_555 1_555
H24 C23 1_555 1_555
C24 H25 1_555 1_555
H26 C24 1_555 1_555
C25 H27 1_555 1_555
H28 C25 1_555 1_555
C26 H29 1_555 1_555
H30 C26 1_555 1_555
C27 H31 1_555 1_555
H32 C27 1_555 1_555
N3 C16 1_555 1_555
N4 C10 1_555 1_555
N5 C18 1_555 1_555
N6 C11 1_555 1_555
N7 C20 1_555 1_555
N8 C12 1_555 1_555
N9 C16 1_555 1_555
N10 C13 1_555 1_555
N11 C18 1_555 1_555
N12 C14 1_555 1_555
N13 C20 1_555 1_555
N14 C27 1_555 1_555
O1 C10 1_555 1_555
O2 C11 1_555 1_555
O3 C12 1_555 1_555
O4 C13 1_555 1_555
O5 C14 1_555 1_555
O6 C15 1_555 1_555
N15 O7 1_555 1_555
O8 N15 1_555 1_555
O9 N15 1_555 1_555
N16 O10 1_555 1_555
O11 N16 1_555 1_555
O12 N16 1_555 1_555
O13 H33 1_555 1_555
H34 O13 1_555 1_555
O15 H35 1_555 1_555
H36 O15 1_555 1_555
O16 H37 1_555 1_555
H38 O16 1_555 1_555
O17 H39 1_555 1_555
H40 O17 1_555 1_555
O18 H41 1_555 1_555
H42 O18 1_555 1_555
Ag1G N1E 1_555 1_555
C1E H1E 1_555 1_555
C2E C1E 1_555 1_555
C3E C2E 1_555 1_555
H2E C3E 1_555 1_555
C4E C3E 1_555 1_555
H3E C4E 1_555 1_555
C5E C4E 1_555 1_555
H4E C5E 1_555 1_555
C6E C2E 1_555 1_555
H5E C6E 1_555 1_555
H6E C6E 1_555 1_555
C7E H7E 1_555 1_555
H8E C7E 1_555 1_555
C8E C7E 1_555 1_555
H9E C8E 1_555 1_555
H10E C8E 1_555 1_555
C9E C9 1_555 1_555
H11E C9E 1_555 1_555
H12E C9E 1_555 1_555
N1E C1E 1_555 1_555
N1B Ag1 1_555 1_555
N2E C6E 1_555 1_555
H13E N2E 1_555 1_555
H14E N2E 1_555 1_555
C10E N3E 1_555 1_555
C11E N5E 1_555 1_555
C12E N7E 1_555 1_555
C13E N9E 1_555 1_555
C14E N11E 1_555 1_555
C15E N14 1_555 1_555
C16E H15E 1_555 1_555
C17E C16E 1_555 1_555
H16E C17E 1_555 1_555
C18E H17E 1_555 1_555
C19E C18E 1_555 1_555
H18E C19E 1_555 1_555
C20E H19E 1_555 1_555
C21E N14 1_555 1_555
H20E C21E 1_555 1_555
C22E H21E 1_555 1_555
H22E C22E 1_555 1_555
C23E H23E 1_555 1_555
H24E C23E 1_555 1_555
C24E N9 1_555 1_555
H25E C24E 1_555 1_555
H26E C24E 1_555 1_555
C25E H27E 1_555 1_555
H28E C25E 1_555 1_555
C26E H29E 1_555 1_555
H30E C26E 1_555 1_555
C27E H31E 1_555 1_555
H32E C27E 1_555 1_555
N3E C16E 1_555 1_555
N4E C10E 1_555 1_555
N5E C18E 1_555 1_555
N6E C11E 1_555 1_555
N7E C20E 1_555 1_555
N8E C12E 1_555 1_555
N9E C24 1_555 1_555
N10E C13E 1_555 1_555
N11E C18E 1_555 1_555
N12E C14E 1_555 1_555
N13E C15E 1_555 1_555
N14E C15 1_555 1_555
O1E C10E 1_555 1_555
O2E C11E 1_555 1_555
O3E C12E 1_555 1_555
O4E C13E 1_555 1_555
O5E C14E 1_555 1_555
O6E C15E 1_555 1_555
C5 N1 1_555 1_555
C7 N2 1_555 1_555
C17 N4 1_555 1_555
C17 N10 1_555 1_555
C19 N6 1_555 1_555
C19 N12 1_555 1_555
C21 N8 1_555 1_555
C21 N14E 1_555 1_555
C22 N4 1_555 1_555
C22 N5 1_555 1_555
C23 N6 1_555 1_555
C23 N7 1_555 1_555
C24 N8 1_555 1_555
C25 N10 1_555 1_555
C25 N11 1_555 1_555
C26 N12 1_555 1_555
C26 N13 1_555 1_555
C27 N3 1_555 1_555
C5E N1E 1_555 1_555
C7E N2E 1_555 1_555
C8E C9E 1_555 1_555
C16E N9E 1_555 1_555
C17E N4E 1_555 1_555
C17E N10E 1_555 1_555
C19E N6E 1_555 1_555
C19E N12E 1_555 1_555
C20E C21E 1_555 1_555
C20E N13E 1_555 1_555
C21E N8E 1_555 1_555
C22E N4E 1_555 1_555
C22E N5E 1_555 1_555
C23E N6E 1_555 1_555
C23E N7E 1_555 1_555
C24E N8E 1_555 1_555
C25E N10E 1_555 1_555
C25E N11E 1_555 1_555
C26E N12E 1_555 1_555
C26E N13E 1_555 1_555
C27E N3E 1_555 1_555
C27E N14E 1_555 1_555

#END
