
#######################################################################
#
#                 Cambridge Crystallographic Data Centre
#                                CCDC 
#
#######################################################################
#
# If this CIF has been generated from an entry in the Cambridge 
# Structural Database, then it will include bibliographic, chemical, 
# crystal, experimental, refinement or atomic coordinate data resulting 
# from the CCDC's data processing and validation procedures.
#
#######################################################################

data_QEKGIW
_symmetry_cell_setting           monoclinic
_symmetry_space_group_name_H-M   'P 21/n'
_symmetry_Int_Tables_number      14
_space_group_name_Hall           '-P 2yn'
loop_
_symmetry_equiv_pos_site_id
_symmetry_equiv_pos_as_xyz
1 x,y,z
2 1/2-x,1/2+y,1/2-z
3 -x,-y,-z
4 1/2+x,1/2-y,1/2+z
_cell_length_a                   7.590(2)
_cell_length_b                   8.924(2)
_cell_length_c                   16.961(3)
_cell_angle_alpha                90
_cell_angle_beta                 93.98(3)
_cell_angle_gamma                90
_cell_volume                     1146.05
loop_
_atom_site_label
_atom_site_type_symbol
_atom_site_fract_x
_atom_site_fract_y
_atom_site_fract_z
Mn1 Mn 0.1773(1) 0.3841(1) 0.5308(1)
N1 N 0.0626(4) 0.6063(3) 0.5552(2)
N2 N 0.0673(4) 0.6665(3) 0.6181(2)
N3 N 0.0726(6) 0.7269(5) 0.6782(2)
N4 N 0.4307(5) 0.4251(5) 0.6023(2)
N5 N 0.5497(4) 0.4979(3) 0.5874(2)
N6 N 0.6723(5) 0.5708(4) 0.5757(2)
C1 C 0.2903(6) 0.0923(5) 0.6517(2)
N7 N 0.2747(4) 0.0413(4) 0.5712(2)
C2 C 0.3077(6) -0.0961(5) 0.5424(3)
C3 C 0.2833(6) -0.0880(5) 0.4626(3)
C4 C 0.2367(6) 0.0594(5) 0.4462(2)
N8 N 0.2323(4) 0.1403(3) 0.5120(2)
N9 N 0.1262(5) 0.1573(4) 0.6746(2)
C5 C 0.0199(7) 0.1089(5) 0.7300(2)
C6 C -0.1062(7) 0.2155(6) 0.7370(3)
C7 C -0.0680(6) 0.3274(5) 0.6830(2)
N10 N 0.0736(4) 0.2922(4) 0.6452(2)
H1 H 0.3824 0.1660 0.6579
H2 H 0.3219 0.0095 0.6859
H3 H 0.3431 -0.1827 0.5731
H4 H 0.2953 -0.1678 0.4254
H5 H 0.2097 0.0988 0.3941
H6 H 0.0319 0.0166 0.7589
H7 H -0.2010 0.2137 0.7717
H8 H -0.1349 0.4178 0.6741
N1B N -0.0626(4) 0.3937(3) 0.4448(2)
N6B N 0.3277(5) 0.4292(4) 0.4243(2)
Mn1B Mn -0.1773(1) 0.6159(1) 0.4692(1)
Mn1B_2 Mn 0.8227(1) 0.6159(1) 0.4692(1)
loop_
_geom_bond_atom_site_label_1
_geom_bond_atom_site_label_2
_geom_bond_site_symmetry_1
_geom_bond_site_symmetry_2
Mn1 N1 1_555 1_555
N1 N2 1_555 1_555
N2 N3 1_555 1_555
N4 Mn1 1_555 1_555
N5 N4 1_555 1_555
N6 N5 1_555 1_555
C1 N7 1_555 1_555
N7 C2 1_555 1_555
C2 C3 1_555 1_555
C3 C4 1_555 1_555
C4 N8 1_555 1_555
N8 Mn1 1_555 1_555
N9 C1 1_555 1_555
C5 N9 1_555 1_555
C6 C5 1_555 1_555
C7 C6 1_555 1_555
N10 Mn1 1_555 1_555
H1 C1 1_555 1_555
H2 C1 1_555 1_555
H3 C2 1_555 1_555
H4 C3 1_555 1_555
H5 C4 1_555 1_555
H6 C5 1_555 1_555
H7 C6 1_555 1_555
H8 C7 1_555 1_555
N1B Mn1 1_555 1_555
N6B Mn1 1_555 1_555
Mn1B N1 1_555 1_555
Mn1B_2 N6 1_555 1_555
N7 N8 1_555 1_555
N9 N10 1_555 1_555
C7 N10 1_555 1_555
N1B Mn1B 1_555 1_555

#END
