
#######################################################################
#
#                 Cambridge Crystallographic Data Centre
#                                CCDC 
#
#######################################################################
#
# If this CIF has been generated from an entry in the Cambridge 
# Structural Database, then it will include bibliographic, chemical, 
# crystal, experimental, refinement or atomic coordinate data resulting 
# from the CCDC's data processing and validation procedures.
#
#######################################################################

data_QEKKOI
_symmetry_cell_setting           monoclinic
_symmetry_space_group_name_H-M   'P 21/c'
_symmetry_Int_Tables_number      14
_space_group_name_Hall           '-P 2ybc'
loop_
_symmetry_equiv_pos_site_id
_symmetry_equiv_pos_as_xyz
1 x,y,z
2 -x,1/2+y,1/2-z
3 -x,-y,-z
4 x,1/2-y,1/2+z
_cell_length_a                   8.9107(2)
_cell_length_b                   11.5087(2)
_cell_length_c                   8.8982(2)
_cell_angle_alpha                90
_cell_angle_beta                 106.593(1)
_cell_angle_gamma                90
_cell_volume                     874.516
loop_
_atom_site_label
_atom_site_type_symbol
_atom_site_fract_x
_atom_site_fract_y
_atom_site_fract_z
Co1 Co 0.5000 0.0000 0.0000
O1 O 0.65380(12) 0.14653(8) 0.02576(12)
N1 N 0.30250(13) 0.10971(9) 0.00512(12)
C1 C 0.19723(17) 0.07279(11) 0.07598(17)
C2 C 0.08761(16) 0.26119(12) 0.06998(16)
C3 C 0.19298(18) 0.30033(12) -0.00645(18)
C4 C 0.08662(18) 0.14456(12) 0.10863(18)
C5 C -0.0135(2) 0.34318(14) 0.1164(2)
C6 C 0.29599(17) 0.22106(11) -0.03860(17)
N2 N -0.0868(2) 0.41000(15) 0.1575(2)
O2 O 0.55214(13) -0.01078(7) 0.23842(11)
O3 O 0.61406(14) 0.17225(8) 0.31471(11)
C7 C 0.57267(15) 0.07112(10) 0.33636(13)
C8 C 0.53994(16) 0.04598(11) 0.48913(14)
H1 H 0.206(2) -0.0057(13) 0.110(2)
H2 H 0.366(2) 0.2432(14) -0.093(2)
H3 H 0.197(2) 0.3782(16) -0.034(2)
H4 H 0.014(2) 0.1165(15) 0.157(2)
H5 H 0.654(2) 0.1689(15) 0.108(2)
H6 H 0.642(2) 0.2022(17) -0.038(2)
H7 H 0.5738(17) 0.1014(13) 0.5721(19)
Co1_2 Co 0.5000 0.0000 1.0000
O1B O 0.34620(12) -0.14653(8) -0.02576(12)
N1B N 0.69750(13) -0.10971(9) -0.00512(12)
C1B C 0.80277(17) -0.07279(11) -0.07598(17)
C2B C 0.91239(16) -0.26119(12) -0.06998(16)
C3B C 0.80702(18) -0.30033(12) 0.00645(18)
C4B C 0.91338(18) -0.14456(12) -0.10863(18)
C5B C 1.0135(2) -0.34318(14) -0.1164(2)
C6B C 0.70401(17) -0.22106(11) 0.03860(17)
N2B N 1.0868(2) -0.41000(15) -0.1575(2)
O2B O 0.44786(13) 0.01078(7) 0.76158(11)
O2B_2 O 0.44786(13) 0.01078(7) -0.23842(11)
O3B O 0.38594(14) -0.17225(8) 0.68529(11)
C7B C 0.42733(15) -0.07112(10) 0.66364(13)
C8B C 0.46006(16) -0.04598(11) 0.51087(14)
H1B H 0.794(2) 0.0057(13) -0.110(2)
H2B H 0.634(2) -0.2432(14) 0.093(2)
H3B H 0.803(2) -0.3782(16) 0.034(2)
H4B H 0.986(2) -0.1165(15) -0.157(2)
H5B H 0.346(2) -0.1689(15) -0.108(2)
H6B H 0.358(2) -0.2022(17) 0.038(2)
H7B H 0.4262(17) -0.1014(13) 0.4279(19)
loop_
_geom_bond_atom_site_label_1
_geom_bond_atom_site_label_2
_geom_bond_site_symmetry_1
_geom_bond_site_symmetry_2
Co1 O1 1_555 1_555
O1 H5 1_555 1_555
N1 Co1 1_555 1_555
C1 N1 1_555 1_555
C2 C3 1_555 1_555
C3 C6 1_555 1_555
C4 C1 1_555 1_555
C5 C2 1_555 1_555
C6 N1 1_555 1_555
N2 C5 1_555 1_555
O2 Co1 1_555 1_555
O3 C7 1_555 1_555
C7 O2 1_555 1_555
C8 C7 1_555 1_555
H1 C1 1_555 1_555
H2 C6 1_555 1_555
H3 C3 1_555 1_555
H4 C4 1_555 1_555
H6 O1 1_555 1_555
H7 C8 1_555 1_555
Co1_2 O2B 1_555 1_555
O1B Co1 1_555 1_555
N1B Co1 1_555 1_555
C1B N1B 1_555 1_555
C2B C3B 1_555 1_555
C3B C6B 1_555 1_555
C4B C1B 1_555 1_555
C5B C2B 1_555 1_555
C6B N1B 1_555 1_555
N2B C5B 1_555 1_555
O2B C7B 1_555 1_555
O2B_2 Co1 1_555 1_555
O3B C7B 1_555 1_555
C7B C8B 1_555 1_555
C8B C8 1_555 1_555
H1B C1B 1_555 1_555
H2B C6B 1_555 1_555
H3B C3B 1_555 1_555
H4B C4B 1_555 1_555
H5B O1B 1_555 1_555
H6B O1B 1_555 1_555
H7B C8B 1_555 1_555
C2 C4 1_555 1_555
C2B C4B 1_555 1_555

#END
