
#######################################################################
#
#                 Cambridge Crystallographic Data Centre
#                                CCDC 
#
#######################################################################
#
# If this CIF has been generated from an entry in the Cambridge 
# Structural Database, then it will include bibliographic, chemical, 
# crystal, experimental, refinement or atomic coordinate data resulting 
# from the CCDC's data processing and validation procedures.
#
#######################################################################

data_QEKKUO
_symmetry_cell_setting           triclinic
_symmetry_space_group_name_H-M   'P -1'
_symmetry_Int_Tables_number      2
_space_group_name_Hall           '-P 1'
loop_
_symmetry_equiv_pos_site_id
_symmetry_equiv_pos_as_xyz
1 x,y,z
2 -x,-y,-z
_cell_length_a                   10.1273(11)
_cell_length_b                   10.2920(10)
_cell_length_c                   16.2377(16)
_cell_angle_alpha                82.450(2)
_cell_angle_beta                 76.160(2)
_cell_angle_gamma                77.854(2)
_cell_volume                     1600.67
loop_
_atom_site_label
_atom_site_type_symbol
_atom_site_fract_x
_atom_site_fract_y
_atom_site_fract_z
O1 O 0.1425(4) 0.1340(4) 0.3590(3)
O2 O 0.0596(5) 0.2748(4) 0.2606(3)
C1 C 0.1080(6) 0.2490(6) 0.3258(4)
C2 C 0.1284(6) 0.3652(5) 0.3681(3)
O3 O 0.5860(4) 0.3614(5) 0.7551(3)
C3 C 0.4764(7) 0.3125(6) 0.7671(4)
C4 C 0.3963(6) 0.3502(6) 0.6977(3)
C5 C 0.4258(7) 0.4517(7) 0.6338(4)
Cd1 Cd 0.05929(4) 0.01855(4) 0.28036(3)
Cd2 Cd 0.68864(4) 0.25280(4) 0.85492(3)
Cl1 Cl 0.25437(16) -0.00007(15) 0.13710(10)
O4 O 0.1010(5) 0.8328(4) 0.3743(3)
N1 N -0.1601(5) 0.0743(5) 0.3751(3)
C6 C 0.1117(6) 0.7389(6) 0.3304(4)
C7 C 0.1960(5) 0.4407(5) 0.4854(3)
C8 C 0.2574(5) 0.4121(5) 0.5620(3)
N2 N -0.1187(5) 0.0286(5) 0.2079(3)
C9 C -0.2499(6) 0.0531(5) 0.2544(4)
N3 N 0.5609(5) 0.3129(5) 0.9882(3)
C10 C 0.1308(5) 0.5979(5) 0.3699(3)
C11 C 0.6353(7) 0.3381(5) 1.0424(4)
O5 O 0.4339(6) 0.2412(5) 0.8308(3)
C12 C 0.1728(6) 0.5700(5) 0.4476(4)
C13 C -0.4085(6) 0.1107(6) 0.3906(4)
C14 C -0.2733(6) 0.0797(6) 0.3427(4)
C15 C 0.2293(6) 0.3072(6) 0.6244(4)
N4 N 0.8377(5) 0.3146(5) 0.9276(3)
C16 C 0.1710(6) 0.3386(6) 0.4454(4)
C17 C 0.1110(6) 0.4926(5) 0.3305(4)
C18 C -0.3662(6) 0.0517(6) 0.2205(4)
C19 C 0.2959(7) 0.2818(6) 0.6922(4)
C20 C -0.0989(7) 0.0059(6) 0.1277(4)
C21 C -0.3415(8) 0.0252(7) 0.1356(5)
C22 C 0.3553(6) 0.4849(6) 0.5691(4)
C23 C -0.1801(8) 0.0989(6) 0.4559(4)
C24 C 0.9734(7) 0.3098(7) 0.8996(5)
C25 C 0.7814(7) 0.3343(6) 1.0107(4)
C26 C 0.5739(7) 0.3647(6) 1.1272(4)
C27 C -0.2096(8) 0.0037(7) 0.0885(5)
C28 C -0.5019(7) 0.0779(6) 0.2733(5)
H1 H -0.5780 0.0739 0.2517
C29 C 0.8628(8) 0.3492(6) 1.0675(5)
C30 C -0.4233(8) 0.1377(7) 0.4750(5)
C31 C -0.5209(7) 0.1083(7) 0.3538(5)
C32 C 1.0623(9) 0.3205(8) 0.9498(6)
C33 C 1.0064(9) 0.3370(8) 1.0339(7)
C34 C -0.3099(8) 0.1330(7) 0.5085(5)
C35 C 0.4278(8) 0.3109(8) 1.0180(5)
C36 C 0.6623(10) 0.3790(7) 1.1823(5)
C37 C 0.4333(9) 0.3645(7) 1.1542(5)
C38 C 0.7972(10) 0.3722(7) 1.1541(5)
C39 C 0.3595(8) 0.3392(8) 1.1018(5)
O6 O 0.1067(4) 0.7593(4) 0.2528(3)
H2 H 0.391(6) 0.294(6) 0.978(4)
H3 H 0.267(6) 0.335(5) 1.122(3)
H4 H 0.397(7) 0.390(6) 1.203(4)
H5 H 0.613(6) 0.380(6) 1.241(4)
H6 H 0.850(7) 0.374(6) 1.195(4)
H7 H 1.051(6) 0.345(6) 1.066(4)
H8 H 1.167(8) 0.317(8) 0.926(5)
H9 H -0.005(6) -0.007(5) 0.089(3)
H10 H -0.183(6) -0.015(6) 0.040(4)
H11 H -0.412(6) 0.013(6) 0.114(4)
H12 H -0.601(7) 0.129(7) 0.384(4)
H13 H -0.497(6) 0.155(5) 0.507(3)
H14 H 0.181(5) 0.645(5) 0.474(3)
H15 H 0.085(6) 0.509(5) 0.281(4)
H16 H 0.489(6) 0.497(6) 0.635(4)
H17 H 0.270(6) 0.217(6) 0.738(4)
H18 H 0.160(6) 0.255(6) 0.622(4)
H19 H 0.384(7) 0.550(6) 0.526(4)
H20 H 0.181(5) 0.254(5) 0.470(3)
H21 H -0.326(8) 0.154(7) 0.563(5)
H22 H -0.095(7) 0.104(6) 0.476(4)
H23 H 1.004(7) 0.295(6) 0.842(4)
Cd1_2 Cd 0.05929(4) 1.01855(4) 0.28036(3)
Cd2A Cd 0.31136(4) -0.25280(4) 0.14508(3)
Cd2A_2 Cd 0.31136(4) 0.74720(4) 0.14508(3)
Cl1A Cl 0.74563(16) 0.00007(15) 0.86290(10)
O4_2 O 0.1010(5) -0.1672(4) 0.3743(3)
O6_2 O 0.1067(4) -0.2407(4) 0.2528(3)
O6A O 0.8933(4) 0.2407(4) 0.7472(3)
loop_
_geom_bond_atom_site_label_1
_geom_bond_atom_site_label_2
_geom_bond_site_symmetry_1
_geom_bond_site_symmetry_2
O1 C1 1_555 1_555
O2 C1 1_555 1_555
C1 C2 1_555 1_555
C2 C16 1_555 1_555
O3 C3 1_555 1_555
C3 C4 1_555 1_555
C4 C5 1_555 1_555
C5 C22 1_555 1_555
Cd1 O1 1_555 1_555
Cd2 O3 1_555 1_555
Cl1 Cd1 1_555 1_555
O4 C6 1_555 1_555
N1 Cd1 1_555 1_555
C6 C10 1_555 1_555
C7 C8 1_555 1_555
C8 C15 1_555 1_555
N2 Cd1 1_555 1_555
C9 N2 1_555 1_555
N3 Cd2 1_555 1_555
C10 C12 1_555 1_555
C11 N3 1_555 1_555
O5 C3 1_555 1_555
C12 C7 1_555 1_555
C13 C14 1_555 1_555
C14 N1 1_555 1_555
C15 C19 1_555 1_555
N4 Cd2 1_555 1_555
C16 C7 1_555 1_555
C17 C2 1_555 1_555
C18 C9 1_555 1_555
C19 C4 1_555 1_555
C20 N2 1_555 1_555
C21 C18 1_555 1_555
C22 C8 1_555 1_555
C23 N1 1_555 1_555
C24 N4 1_555 1_555
C25 C11 1_555 1_555
C26 C11 1_555 1_555
C27 C20 1_555 1_555
C28 C18 1_555 1_555
H1 C28 1_555 1_555
C29 C25 1_555 1_555
C30 C13 1_555 1_555
C31 C13 1_555 1_555
C32 C24 1_555 1_555
C33 C29 1_555 1_555
C34 C23 1_555 1_555
C35 N3 1_555 1_555
C36 C26 1_555 1_555
C37 C26 1_555 1_555
C38 C29 1_555 1_555
C39 C35 1_555 1_555
O6 C6 1_555 1_555
H2 C35 1_555 1_555
H3 C39 1_555 1_555
H4 C37 1_555 1_555
H5 C36 1_555 1_555
H6 C38 1_555 1_555
H7 C33 1_555 1_555
H8 C32 1_555 1_555
H9 C20 1_555 1_555
H10 C27 1_555 1_555
H11 C21 1_555 1_555
H12 C31 1_555 1_555
H13 C30 1_555 1_555
H14 C12 1_555 1_555
H15 C17 1_555 1_555
H16 C5 1_555 1_555
H17 C19 1_555 1_555
H18 C15 1_555 1_555
H19 C22 1_555 1_555
H20 C16 1_555 1_555
H21 C34 1_555 1_555
H22 C23 1_555 1_555
H23 C24 1_555 1_555
Cd1_2 O4 1_555 1_555
Cd2A Cl1 1_555 1_555
Cd2A_2 O6 1_555 1_555
Cl1A Cd2 1_555 1_555
O4_2 Cd1 1_555 1_555
O6_2 Cd1 1_555 1_555
O6A Cd2 1_555 1_555
O2 Cd1 1_555 1_555
Cd2 O5 1_555 1_555
C9 C14 1_555 1_555
C10 C17 1_555 1_555
N4 C25 1_555 1_555
C21 C27 1_555 1_555
C28 C31 1_555 1_555
C30 C34 1_555 1_555
C32 C33 1_555 1_555
C36 C38 1_555 1_555
C37 C39 1_555 1_555
O6 Cd1_2 1_555 1_555
Cd2A O6_2 1_555 1_555

#END
