
#######################################################################
#
#                 Cambridge Crystallographic Data Centre
#                                CCDC 
#
#######################################################################
#
# If this CIF has been generated from an entry in the Cambridge 
# Structural Database, then it will include bibliographic, chemical, 
# crystal, experimental, refinement or atomic coordinate data resulting 
# from the CCDC's data processing and validation procedures.
#
#######################################################################

data_QEKLAV
_symmetry_cell_setting           monoclinic
_symmetry_space_group_name_H-M   'P 21/c'
_symmetry_Int_Tables_number      14
_space_group_name_Hall           '-P 2ybc'
loop_
_symmetry_equiv_pos_site_id
_symmetry_equiv_pos_as_xyz
1 x,y,z
2 -x,1/2+y,1/2-z
3 -x,-y,-z
4 x,1/2-y,1/2+z
_cell_length_a                   8.6813(7)
_cell_length_b                   18.4192(15)
_cell_length_c                   15.9817(14)
_cell_angle_alpha                90
_cell_angle_beta                 100.384(2)
_cell_angle_gamma                90
_cell_volume                     2513.66
loop_
_atom_site_label
_atom_site_type_symbol
_atom_site_fract_x
_atom_site_fract_y
_atom_site_fract_z
Cu1 Cu 0.77720(5) 0.455567(19) 0.82122(2)
Cu2 Cu 0.83949(4) 0.295564(18) 0.87293(2)
O1 O 0.5879(2) 0.34596(10) 0.80576(12)
O2 O -0.0584(3) 0.19770(10) 1.27551(13)
O3 O -0.1056(3) 0.08229(11) 1.23553(13)
O4 O 0.3047(3) 0.02856(10) 0.76492(13)
O5 O 0.4126(3) 0.10640(12) 0.68634(15)
O6 O 0.6490(2) 0.49406(10) 0.90229(12)
H1 H 0.6102 0.5322 0.8785
H2 H 0.5864 0.4677 0.9028
O7 O 0.8830(2) 0.39289(10) 0.90959(12)
H3 H 0.9761 0.4051 0.9171
O8 O 0.97859(14) 0.56210(6) 0.88133(8)
H4 H 0.9258 0.5640 0.9212
H5 H 1.0485 0.5305 0.8930
O9 O 0.42838(14) 0.39856(6) 0.88148(8)
N1 N 0.81556(14) 0.18787(6) 0.85246(8)
N2 N 0.74821(14) 0.26975(6) 0.97549(8)
C1 C 0.41400(14) 0.21602(6) 0.80255(8)
H6 H 0.4692 0.2228 0.7584
C2 C 0.2712(3) 0.13812(15) 0.88160(17)
H7 H 0.2304 0.0925 0.8897
C3 C -0.0500(3) 0.14395(16) 1.22802(18)
C4 C 0.3190(3) 0.26192(15) 0.92369(18)
H8 H 0.3075 0.3005 0.9596
C5 C 0.2549(3) 0.19405(14) 0.93817(17)
C6 C 0.7163(3) 0.19789(15) 0.98036(18)
C7 C 0.3567(4) 0.09015(15) 0.74996(19)
C8 C 0.7514(3) 0.15366(15) 0.91300(18)
C9 C 0.3473(3) 0.14922(15) 0.81345(18)
C10 C 0.0986(3) 0.11707(15) 1.02238(17)
H9 H 0.0928 0.0815 0.9806
C11 C 0.4776(4) 0.34479(15) 0.84627(19)
C12 C 0.3987(3) 0.27271(15) 0.85721(18)
C13 C 0.1816(4) 0.23297(17) 1.0772(2)
H10 H 0.2345 0.2764 1.0734
C14 C 0.0288(3) 0.10462(15) 1.09186(18)
H11 H -0.0215 0.0606 1.0967
C15 C 0.6525(4) 0.16720(17) 1.04632(19)
C16 C 0.1775(3) 0.18121(15) 1.01315(17)
C17 C 0.6155(4) 0.21467(19) 1.1082(2)
H12 H 0.5736 0.1968 1.1537
C18 C 0.7101(4) 0.31327(17) 1.03466(19)
H13 H 0.7299 0.3627 1.0318
C19 C 0.0324(3) 0.15656(15) 1.15430(18)
C20 C 0.6581(4) 0.04931(17) 0.9818(2)
H14 H 0.6383 -0.0003 0.9823
C21 C 0.6412(4) 0.28710(19) 1.1011(2)
H15 H 0.6129 0.3192 1.1407
C22 C 0.1092(4) 0.22120(17) 1.1460(2)
H16 H 0.1119 0.2571 1.1871
C23 C 0.7197(4) 0.07990(17) 0.9119(2)
C24 C 0.6287(4) 0.09026(18) 1.0457(2)
H17 H 0.5921 0.0685 1.0909
C25 C 0.8517(4) 0.14735(17) 0.7897(2)
H18 H 0.9002 0.1695 0.7490
C26 C 0.8204(5) 0.07439(18) 0.7826(2)
H19 H 0.8454 0.0483 0.7370
C27 C 0.7525(4) 0.04017(17) 0.8423(2)
H20 H 0.7282 -0.0090 0.8370
Cu1C Cu -0.22280(5) 0.044433(19) 1.32122(2)
Cu1A Cu 0.22280(5) -0.044433(19) 0.67878(2)
Cu2C Cu -0.16051(4) 0.204436(18) 1.37293(2)
O2C O 0.9416(3) 0.30230(10) 0.77551(13)
O3C O 0.8944(3) 0.41771(11) 0.73553(13)
O4A O 0.6953(3) 0.52856(10) 0.73508(13)
O10 O 0.1870(3) 0.04591(16) 0.4452(2)
H21 H 0.2249 0.0536 0.4111
H22 H 0.2554 0.0324 0.4948
loop_
_geom_bond_atom_site_label_1
_geom_bond_atom_site_label_2
_geom_bond_site_symmetry_1
_geom_bond_site_symmetry_2
Cu1 O1 1_555 1_555
Cu2 O1 1_555 1_555
O1 C11 1_555 1_555
O2 C3 1_555 1_555
O3 C3 1_555 1_555
O4 C7 1_555 1_555
O5 C7 1_555 1_555
O6 Cu1 1_555 1_555
H1 O6 1_555 1_555
H2 O6 1_555 1_555
O7 Cu1 1_555 1_555
H3 O7 1_555 1_555
O8 Cu1 1_555 1_555
H4 O8 1_555 1_555
H5 O8 1_555 1_555
O9 C11 1_555 1_555
N1 Cu2 1_555 1_555
N2 Cu2 1_555 1_555
C1 H6 1_555 1_555
C2 H7 1_555 1_555
C3 C19 1_555 1_555
C4 H8 1_555 1_555
C5 C2 1_555 1_555
C6 N2 1_555 1_555
C7 C9 1_555 1_555
C8 N1 1_555 1_555
C9 C1 1_555 1_555
C10 H9 1_555 1_555
C11 C12 1_555 1_555
C12 C1 1_555 1_555
C13 H10 1_555 1_555
C14 C10 1_555 1_555
H11 C14 1_555 1_555
C15 C6 1_555 1_555
C16 C5 1_555 1_555
C17 C15 1_555 1_555
H12 C17 1_555 1_555
C18 N2 1_555 1_555
H13 C18 1_555 1_555
C19 C14 1_555 1_555
C20 H14 1_555 1_555
C21 C17 1_555 1_555
H15 C21 1_555 1_555
C22 C13 1_555 1_555
H16 C22 1_555 1_555
C23 C8 1_555 1_555
C24 C15 1_555 1_555
H17 C24 1_555 1_555
C25 N1 1_555 1_555
H18 C25 1_555 1_555
C26 C25 1_555 1_555
H19 C26 1_555 1_555
C27 C23 1_555 1_555
H20 C27 1_555 1_555
O10 H21 1_555 1_555
H22 O10 1_555 1_555
Cu1C O3 1_555 1_555
Cu1A O4 1_555 1_555
Cu2C O2 1_555 1_555
O2C Cu2 1_555 1_555
O3C Cu1 1_555 1_555
O4A Cu1 1_555 1_555
Cu2 O7 1_555 1_555
C2 C9 1_555 1_555
C4 C5 1_555 1_555
C4 C12 1_555 1_555
C6 C8 1_555 1_555
C10 C16 1_555 1_555
C13 C16 1_555 1_555
C18 C21 1_555 1_555
C19 C22 1_555 1_555
C20 C23 1_555 1_555
C20 C24 1_555 1_555
C26 C27 1_555 1_555

#END
