
#######################################################################
#
#                 Cambridge Crystallographic Data Centre
#                                CCDC 
#
#######################################################################
#
# If this CIF has been generated from an entry in the Cambridge 
# Structural Database, then it will include bibliographic, chemical, 
# crystal, experimental, refinement or atomic coordinate data resulting 
# from the CCDC's data processing and validation procedures.
#
#######################################################################

data_QEKXOU
_symmetry_cell_setting           monoclinic
_symmetry_space_group_name_H-M   'P 21/c'
_symmetry_Int_Tables_number      14
_space_group_name_Hall           '-P 2ybc'
loop_
_symmetry_equiv_pos_site_id
_symmetry_equiv_pos_as_xyz
1 x,y,z
2 -x,1/2+y,1/2-z
3 -x,-y,-z
4 x,1/2-y,1/2+z
_cell_length_a                   9.0955(18)
_cell_length_b                   7.1409(8)
_cell_length_c                   13.462(2)
_cell_angle_alpha                90
_cell_angle_beta                 100.04(2)
_cell_angle_gamma                90
_cell_volume                     860.968
loop_
_atom_site_label
_atom_site_type_symbol
_atom_site_fract_x
_atom_site_fract_y
_atom_site_fract_z
C1 C 0.7361(3) 0.2120(4) 0.46006(18)
H1 H 0.6741 0.0976 0.4578
H2 H 0.7146 0.2722 0.3928
C2 C 0.6961(3) 0.3447(3) 0.53848(18)
C3 C 0.5674(3) 0.3225(4) 0.5794(2)
H3 H 0.5001 0.2231 0.5576
C4 C 0.5380(3) 0.4484(4) 0.6532(2)
H4 H 0.4487 0.4389 0.6804
C5 C 0.6409(3) 0.5858(4) 0.6854(2)
H5 H 0.6247 0.6713 0.7365
C6 C 0.7688(3) 0.5987(4) 0.64263(19)
H6 H 0.8406 0.6922 0.6665
C7 C 0.9274(3) 0.0382(4) 0.39991(19)
H7 H 0.9179 0.1127 0.3371
H8 H 0.8529 -0.0640 0.3884
C8 C 0.9180(3) 0.0453(4) 0.5769(2)
H9 H 0.8434 -0.0569 0.5693
H10 H 0.9014 0.1244 0.6343
Cl1 Cl 0.86559(7) 0.55327(9) 0.33439(4)
Fe1 Fe 1.0000 0.5000 0.5000
N1 N 0.8948(2) 0.1605(3) 0.48329(15)
N2 N 0.7949(3) 0.4827(3) 0.56805(16)
C1B C 1.2639(3) -0.2120(4) 0.53994(18)
H1B H 1.3259 -0.0976 0.5422
H2B H 1.2854 -0.2722 0.6072
C2B C 1.3039(3) -0.3447(3) 0.46152(18)
C3B C 1.4326(3) -0.3225(4) 0.4206(2)
H3B H 1.4999 -0.2231 0.4424
C4B C 1.4620(3) -0.4484(4) 0.3468(2)
H4B H 1.5513 -0.4389 0.3196
C5B C 1.3591(3) -0.5858(4) 0.3146(2)
H5B H 1.3753 -0.6713 0.2635
C6B C 1.2312(3) -0.5987(4) 0.35737(19)
H6B H 1.1594 -0.6922 0.3335
C7B C 1.0726(3) -0.0382(4) 0.60009(19)
H7B H 1.0821 -0.1127 0.6629
H8B H 1.1471 0.0640 0.6116
C8B C 1.0820(3) -0.0453(4) 0.4231(2)
H9B H 1.1566 0.0569 0.4307
H10B H 1.0986 -0.1244 0.3657
Cl1B Cl 1.13441(7) 0.44673(9) 0.66561(4)
Fe1_2 Fe 1.0000 -0.5000 0.5000
N1B N 1.1052(2) -0.1605(3) 0.51671(15)
N2B N 1.2051(3) -0.4827(3) 0.43195(16)
N2B_2 N 1.2051(3) 0.5173(3) 0.43195(16)
loop_
_geom_bond_atom_site_label_1
_geom_bond_atom_site_label_2
_geom_bond_site_symmetry_1
_geom_bond_site_symmetry_2
C1 H1 1_555 1_555
H2 C1 1_555 1_555
C2 C1 1_555 1_555
C3 C2 1_555 1_555
H3 C3 1_555 1_555
C4 C3 1_555 1_555
H4 C4 1_555 1_555
C5 C4 1_555 1_555
H5 C5 1_555 1_555
C6 C5 1_555 1_555
H6 C6 1_555 1_555
C7 H7 1_555 1_555
H8 C7 1_555 1_555
C8 H9 1_555 1_555
H10 C8 1_555 1_555
Cl1 Fe1 1_555 1_555
Fe1 N2 1_555 1_555
N1 C1 1_555 1_555
N2 C2 1_555 1_555
C1B H1B 1_555 1_555
H2B C1B 1_555 1_555
C2B C1B 1_555 1_555
C3B C2B 1_555 1_555
H3B C3B 1_555 1_555
C4B C3B 1_555 1_555
H4B C4B 1_555 1_555
C5B C4B 1_555 1_555
H5B C5B 1_555 1_555
C6B C5B 1_555 1_555
H6B C6B 1_555 1_555
C7B C8 1_555 1_555
H7B C7B 1_555 1_555
H8B C7B 1_555 1_555
C8B C7 1_555 1_555
H9B C8B 1_555 1_555
H10B C8B 1_555 1_555
Cl1B Fe1 1_555 1_555
Fe1_2 N2B 1_555 1_555
N1B C1B 1_555 1_555
N2B C2B 1_555 1_555
N2B_2 Fe1 1_555 1_555
C6 N2 1_555 1_555
C7 N1 1_555 1_555
C8 N1 1_555 1_555
C6B N2B 1_555 1_555
C7B N1B 1_555 1_555
C8B N1B 1_555 1_555

#END
