
#######################################################################
#
#                 Cambridge Crystallographic Data Centre
#                                CCDC 
#
#######################################################################
#
# If this CIF has been generated from an entry in the Cambridge 
# Structural Database, then it will include bibliographic, chemical, 
# crystal, experimental, refinement or atomic coordinate data resulting 
# from the CCDC's data processing and validation procedures.
#
#######################################################################

data_QEMCAN
_symmetry_cell_setting           monoclinic
_symmetry_space_group_name_H-M   'P 21/c'
_symmetry_Int_Tables_number      14
_space_group_name_Hall           '-P 2ybc'
loop_
_symmetry_equiv_pos_site_id
_symmetry_equiv_pos_as_xyz
1 x,y,z
2 -x,1/2+y,1/2-z
3 -x,-y,-z
4 x,1/2-y,1/2+z
_cell_length_a                   14.4739(11)
_cell_length_b                   7.6406(6)
_cell_length_c                   18.9230(15)
_cell_angle_alpha                90
_cell_angle_beta                 107.4130(10)
_cell_angle_gamma                90
_cell_volume                     1996.78
loop_
_atom_site_label
_atom_site_type_symbol
_atom_site_fract_x
_atom_site_fract_y
_atom_site_fract_z
Mn1 Mn 0.27970(4) 0.08302(7) 0.20370(3)
S1 S 0.35380(6) 0.01757(10) 0.65613(4)
O1 O 0.2619(2) -0.1122(4) 0.36332(14)
O2 O 0.3097(2) 0.1260(4) 0.31706(13)
O3 O 0.35674(18) 0.1717(3) 0.70179(12)
O4 O 0.26010(17) -0.0636(3) 0.63016(13)
O5 O 0.42978(17) -0.1042(3) 0.69477(13)
O6 O 0.2072(2) -0.1681(3) 0.21593(14)
O7 O 0.41160(18) -0.0434(3) 0.20236(17)
N1 N 0.1343(2) 0.2153(4) 0.17122(16)
N2 N 0.2223(2) 0.0678(4) 0.07831(15)
C1 C 0.0902(3) 0.2821(6) 0.2168(3)
H1 H 0.1216 0.2777 0.2674
C2 C -0.0007(4) 0.3587(7) 0.1928(3)
H2 H -0.0291 0.4047 0.2268
C3 C -0.0476(3) 0.3660(6) 0.1195(3)
H3 H -0.1088 0.4162 0.1028
C4 C -0.0038(3) 0.2974(5) 0.0685(2)
C5 C -0.0492(3) 0.2971(6) -0.0094(3)
H4 H -0.1100 0.3477 -0.0286
C6 C -0.0054(3) 0.2250(6) -0.0555(3)
H5 H -0.0368 0.2261 -0.1062
C7 C 0.0886(3) 0.1460(5) -0.0288(2)
C8 C 0.1365(4) 0.0652(6) -0.0733(2)
H6 H 0.1085 0.0642 -0.1244
C9 C 0.2242(3) -0.0128(6) -0.0432(2)
H7 H 0.2559 -0.0681 -0.0731
C10 C 0.2650(3) -0.0078(6) 0.0331(2)
H8 H 0.3252 -0.0599 0.0536
C11 C 0.0878(2) 0.2217(4) 0.09750(19)
C12 C 0.1353(2) 0.1438(4) 0.04822(18)
C13 C 0.3051(3) 0.0292(5) 0.36966(18)
C14 C 0.3593(2) 0.0939(4) 0.44666(18)
C15 C 0.3349(2) 0.0322(4) 0.50770(17)
H9 H 0.2851 -0.0487 0.5016
C16 C 0.3850(2) 0.0920(4) 0.57766(17)
C17 C 0.4613(2) 0.2073(4) 0.58794(19)
H10 H 0.4957 0.2445 0.6353
C18 C 0.4862(3) 0.2670(5) 0.5270(2)
H11 H 0.5376 0.3446 0.5334
C19 C 0.4346(3) 0.2114(5) 0.45648(19)
H12 H 0.4508 0.2535 0.4156
H13 H 0.221(3) -0.262(3) 0.198(2)
H14 H 0.220(3) -0.178(5) 0.2626(6)
H15 H 0.420(3) -0.1531(15) 0.202(2)
H16 H 0.460(2) 0.006(4) 0.232(2)
Mn1C Mn 0.27970(4) 0.41698(7) 0.70370(3)
O3C O 0.35674(18) 0.3283(3) 0.20179(12)
O8 O 0.3205(17) -0.016(2) -0.1705(10)
H17 H 0.333(10) 0.093(4) -0.170(8)
H18 H 0.353(10) -0.070(13) -0.194(8)
loop_
_geom_bond_atom_site_label_1
_geom_bond_atom_site_label_2
_geom_bond_site_symmetry_1
_geom_bond_site_symmetry_2
Mn1 O2 1_555 1_555
S1 O3 1_555 1_555
O1 C13 1_555 1_555
O2 C13 1_555 1_555
O3 Mn1C 1_555 1_555
O4 S1 1_555 1_555
O5 S1 1_555 1_555
O6 Mn1 1_555 1_555
O7 Mn1 1_555 1_555
N1 Mn1 1_555 1_555
N2 Mn1 1_555 1_555
C1 N1 1_555 1_555
H1 C1 1_555 1_555
C2 C1 1_555 1_555
H2 C2 1_555 1_555
C3 C2 1_555 1_555
H3 C3 1_555 1_555
C4 C3 1_555 1_555
C5 C4 1_555 1_555
H4 C5 1_555 1_555
C6 C5 1_555 1_555
H5 C6 1_555 1_555
C7 C6 1_555 1_555
C8 C7 1_555 1_555
H6 C8 1_555 1_555
C9 C8 1_555 1_555
H7 C9 1_555 1_555
C10 N2 1_555 1_555
H8 C10 1_555 1_555
C11 N1 1_555 1_555
C12 N2 1_555 1_555
C13 C14 1_555 1_555
C14 C15 1_555 1_555
C15 H9 1_555 1_555
C16 S1 1_555 1_555
C17 C16 1_555 1_555
H10 C17 1_555 1_555
C18 C17 1_555 1_555
H11 C18 1_555 1_555
C19 C14 1_555 1_555
H12 C19 1_555 1_555
O8 H17 1_555 1_555
H13 O6 1_555 1_555
H14 O6 1_555 1_555
H15 O7 1_555 1_555
H16 O7 1_555 1_555
H18 O8 1_555 1_555
O3C Mn1 1_555 1_555
C4 C11 1_555 1_555
C7 C12 1_555 1_555
C9 C10 1_555 1_555
C11 C12 1_555 1_555
C15 C16 1_555 1_555
C18 C19 1_555 1_555

#END
