
#######################################################################
#
#                 Cambridge Crystallographic Data Centre
#                                CCDC 
#
#######################################################################
#
# If this CIF has been generated from an entry in the Cambridge 
# Structural Database, then it will include bibliographic, chemical, 
# crystal, experimental, refinement or atomic coordinate data resulting 
# from the CCDC's data processing and validation procedures.
#
#######################################################################

data_QENFUL
_symmetry_cell_setting           monoclinic
_symmetry_space_group_name_H-M   'P 21/c'
_symmetry_Int_Tables_number      14
_space_group_name_Hall           '-P 2ybc'
loop_
_symmetry_equiv_pos_site_id
_symmetry_equiv_pos_as_xyz
1 x,y,z
2 -x,1/2+y,1/2-z
3 -x,-y,-z
4 x,1/2-y,1/2+z
_cell_length_a                   8.8184(18)
_cell_length_b                   12.627(3)
_cell_length_c                   7.4326(15)
_cell_angle_alpha                90
_cell_angle_beta                 90.86(3)
_cell_angle_gamma                90
_cell_volume                     827.526
loop_
_atom_site_label
_atom_site_type_symbol
_atom_site_fract_x
_atom_site_fract_y
_atom_site_fract_z
Zn1 Zn 0.0000 0.0000 0.0000
O1 O -0.1756(3) -0.09482(19) 0.1292(3)
O2 O -0.0869(3) -0.0708(2) 0.3969(3)
O3 O -0.2334(3) -0.2040(2) 0.3392(4)
O4 O 0.1049(3) 0.0840(2) 0.2193(3)
H1 H 0.092(5) 0.070(3) 0.306(5)
H2 H 0.163(4) 0.140(3) 0.200(5)
N1 N 0.1592(3) -0.12180(19) 0.0364(3)
N2 N 0.4389(3) -0.4636(2) -0.0018(4)
N3 N -0.1653(3) -0.1231(2) 0.2905(4)
C1 C 0.3067(4) -0.1028(3) 0.0590(5)
H3 H 0.3385 -0.0328 0.0702
C2 C 0.4145(4) -0.1816(3) 0.0668(5)
H4 H 0.5165 -0.1649 0.0827
C3 C 0.3691(4) -0.2859(2) 0.0505(4)
C4 C 0.2154(4) -0.3056(3) 0.0306(5)
H5 H 0.1799 -0.3748 0.0214
C5 C 0.1169(4) -0.2227(2) 0.0247(4)
H6 H 0.0139 -0.2374 0.0118
C6 C 0.4796(4) -0.3726(3) 0.0496(4)
H7 H 0.5793 -0.3606 0.0869
Zn1_2 Zn 1.0000 -1.0000 0.0000
O1B O 0.1756(3) 0.09482(19) -0.1292(3)
O2B O 0.0869(3) 0.0708(2) -0.3969(3)
O3B O 0.2334(3) 0.2040(2) -0.3392(4)
O4B O -0.1049(3) -0.0840(2) -0.2193(3)
H1B H -0.092(5) -0.070(3) -0.306(5)
H2B H -0.163(4) -0.140(3) -0.200(5)
N1B N 0.8408(3) -0.87820(19) -0.0364(3)
N1B_2 N -0.1592(3) 0.12180(19) -0.0364(3)
N2B N 0.5611(3) -0.5364(2) 0.0018(4)
N3B N 0.1653(3) 0.1231(2) -0.2905(4)
C1B C 0.6933(4) -0.8972(3) -0.0590(5)
H3B H 0.6615 -0.9672 -0.0702
C2B C 0.5855(4) -0.8184(3) -0.0668(5)
H4B H 0.4835 -0.8351 -0.0827
C3B C 0.6309(4) -0.7141(2) -0.0505(4)
C4B C 0.7846(4) -0.6944(3) -0.0306(5)
H5B H 0.8201 -0.6252 -0.0214
C5B C 0.8831(4) -0.7773(2) -0.0247(4)
H6B H 0.9861 -0.7626 -0.0118
C6B C 0.5204(4) -0.6274(3) -0.0496(4)
H7B H 0.4207 -0.6394 -0.0869
loop_
_geom_bond_atom_site_label_1
_geom_bond_atom_site_label_2
_geom_bond_site_symmetry_1
_geom_bond_site_symmetry_2
Zn1 O1 1_555 1_555
O1 N3 1_555 1_555
O2 N3 1_555 1_555
O3 N3 1_555 1_555
O4 Zn1 1_555 1_555
H1 O4 1_555 1_555
H2 O4 1_555 1_555
N1 Zn1 1_555 1_555
N2 C6 1_555 1_555
C1 N1 1_555 1_555
H3 C1 1_555 1_555
C2 C1 1_555 1_555
H4 C2 1_555 1_555
C3 C2 1_555 1_555
C4 C3 1_555 1_555
H5 C4 1_555 1_555
C5 N1 1_555 1_555
H6 C5 1_555 1_555
C6 C3 1_555 1_555
H7 C6 1_555 1_555
Zn1_2 N1B 1_555 1_555
O1B Zn1 1_555 1_555
O2B N3B 1_555 1_555
O3B N3B 1_555 1_555
O4B Zn1 1_555 1_555
H1B O4B 1_555 1_555
H2B O4B 1_555 1_555
N1B C1B 1_555 1_555
N1B_2 Zn1 1_555 1_555
N2B N2 1_555 1_555
N3B O1B 1_555 1_555
C1B H3B 1_555 1_555
C2B C1B 1_555 1_555
H4B C2B 1_555 1_555
C3B C2B 1_555 1_555
C4B C3B 1_555 1_555
H5B C4B 1_555 1_555
C5B N1B 1_555 1_555
H6B C5B 1_555 1_555
C6B N2B 1_555 1_555
H7B C6B 1_555 1_555
C4 C5 1_555 1_555
C3B C6B 1_555 1_555
C4B C5B 1_555 1_555

#END
