
#######################################################################
#
#                 Cambridge Crystallographic Data Centre
#                                CCDC 
#
#######################################################################
#
# If this CIF has been generated from an entry in the Cambridge 
# Structural Database, then it will include bibliographic, chemical, 
# crystal, experimental, refinement or atomic coordinate data resulting 
# from the CCDC's data processing and validation procedures.
#
#######################################################################

data_QENHUM
_symmetry_cell_setting           monoclinic
_symmetry_space_group_name_H-M   'P 21/c'
_symmetry_Int_Tables_number      14
_space_group_name_Hall           '-P 2ybc'
loop_
_symmetry_equiv_pos_site_id
_symmetry_equiv_pos_as_xyz
1 x,y,z
2 -x,1/2+y,1/2-z
3 -x,-y,-z
4 x,1/2-y,1/2+z
_cell_length_a                   7.882(2)
_cell_length_b                   25.465(5)
_cell_length_c                   18.713(6)
_cell_angle_alpha                90
_cell_angle_beta                 96.63(3)
_cell_angle_gamma                90
_cell_volume                     3730.86
loop_
_atom_site_label
_atom_site_type_symbol
_atom_site_fract_x
_atom_site_fract_y
_atom_site_fract_z
Cu1 Cu 0.0378(1) 0.31850(1) 0.23990(1)
Cu2 Cu -0.0129(1) -0.06510(1) -0.26710(1)
C1 C 0.5392(6) 0.4028(2) 0.2423(3)
C2 C 0.3855(6) 0.3748(2) 0.2395(3)
N1 N 0.2553(5) 0.3549(2) 0.2381(3)
C3 C 0.6960(6) 0.3778(2) 0.2381(3)
N2 N 0.8237(5) 0.3575(2) 0.2342(3)
C4 C 0.5339(6) 0.4572(2) 0.2557(3)
N3 N 0.5214(6) 0.5008(2) 0.2690(3)
C5 C 0.4899(6) -0.1491(2) -0.2591(3)
C6 C 0.3362(6) -0.1217(2) -0.2614(3)
N4 N 0.2052(5) -0.1016(2) -0.2626(2)
C7 C 0.6456(6) -0.1228(2) -0.2630(3)
N5 N 0.7737(5) -0.1029(2) -0.2653(2)
C8 C 0.4886(6) -0.2035(2) -0.2492(3)
N6 N 0.4843(6) -0.2482(2) -0.2407(3)
N7 N -0.0093(5) -0.0102(2) -0.1828(2)
C9 C 0.0827(6) 0.0348(2) -0.1818(3)
C10 C 0.0821(6) 0.0725(2) -0.1302(3)
C11 C -0.0125(6) 0.0653(2) -0.0741(3)
C12 C -0.1094(6) 0.0204(2) -0.0761(3)
C13 C -0.1042(6) -0.0156(2) -0.1295(3)
C14 C -0.0205(6) 0.1032(2) -0.0146(3)
C15 C 0.0654(7) 0.1459(2) -0.0047(3)
C16 C 0.0571(6) 0.1836(2) 0.0555(3)
C17 C 0.1393(7) 0.2313(2) 0.0535(3)
C18 C 0.1308(6) 0.2668(2) 0.1074(3)
C19 C -0.0291(6) 0.2120(2) 0.1678(3)
C20 C -0.0272(6) 0.1739(2) 0.1154(3)
N8 N 0.0454(5) 0.2588(2) 0.1645(2)
N9 N 0.0296(5) 0.2696(2) -0.6693(2)
C21 C -0.1203(6) 0.2592(3) -0.6462(3)
C22 C -0.1451(8) 0.2156(3) -0.6048(3)
C23 C -0.0143(8) 0.1824(3) -0.5852(3)
C24 C 0.1427(8) 0.1932(3) -0.6094(3)
C25 C 0.1584(7) 0.2370(2) -0.6502(3)
C26 C -0.0701(8) 0.1319(4) -0.5327(4)
C27 C 0.0480(8) 0.1130(3) -0.5104(4)
N10 N -0.0157(6) -0.0144(2) -0.3530(2)
C28 C -0.1563(7) 0.0083(2) -0.3847(3)
C29 C -0.1533(8) 0.0478(3) -0.4352(3)
C30 C -0.0003(8) 0.0662(2) -0.4524(3)
C31 C 0.1460(8) 0.0418(3) -0.4215(3)
C32 C 0.1324(7) 0.0034(2) -0.3721(3)
H1 H 0.1613(6) 0.0412(2) -0.2246(3)
H2 H 0.1561(6) 0.1080(2) -0.1335(3)
H3 H -0.1911(6) 0.0136(2) -0.0345(3)
H4 H -0.1819(6) -0.0505(2) -0.1283(3)
H5 H -0.1071(6) 0.0940(2) 0.0243(3)
H6 H 0.1518(7) 0.1553(2) -0.0436(3)
H7 H 0.2105(7) 0.2405(2) 0.0091(3)
H8 H 0.1969(6) 0.3038(2) 0.1040(3)
H9 H -0.0947(6) 0.2034(2) 0.2140(3)
H10 H -0.0909(6) 0.1368(2) 0.1210(3)
H11 H -0.2258(6) 0.2858(3) -0.6603(3)
H12 H -0.2694(8) 0.2080(3) -0.5881(3)
H13 H 0.2503(8) 0.1673(3) -0.5961(3)
H14 H 0.2812(7) 0.2456(2) -0.6678(3)
H15 H -0.1980(8) 0.1207(4) -0.5234(4)
H16 H 0.1744(8) 0.1227(3) -0.5233(4)
H17 H -0.2784(7) -0.0048(2) -0.3705(3)
H18 H -0.2714(8) 0.0642(3) -0.4609(3)
H19 H 0.2694(8) 0.0529(3) -0.4364(3)
H20 H 0.2489(7) -0.0140(2) -0.3465(3)
N2_2 N -0.1763(5) 0.3575(2) 0.2342(3)
N5_2 N -0.2263(5) -0.1029(2) -0.2653(2)
N9_2 N 0.0296(5) 0.2696(2) 0.3307(2)
Cu1_2 Cu 1.0378(1) 0.31850(1) 0.23990(1)
Cu2_2 Cu 0.9871(1) -0.06510(1) -0.26710(1)
Cu1_3 Cu 0.0378(1) 0.31850(1) -0.76010(1)
N11 N 0.5276(6) 0.3153(2) 0.4946(3)
C33 C 0.5211(7) 0.3385(3) 0.5579(4)
C34 C 0.5151(7) 0.3913(3) 0.5683(4)
C35 C 0.5110(6) 0.4248(3) 0.5099(3)
C36 C 0.5151(7) 0.4015(3) 0.4438(3)
C37 C 0.5218(7) 0.3479(3) 0.4383(4)
C38 C 0.5073(7) 0.4827(3) 0.5237(3)
H21 H 0.5205(7) 0.3135(3) 0.6046(4)
H22 H 0.5134(7) 0.4070(3) 0.6218(4)
H23 H 0.5130(7) 0.4256(3) 0.3961(3)
H24 H 0.5224(7) 0.3309(3) 0.3854(4)
H25 H 0.5181(7) 0.4955(3) 0.5791(3)
C38B C 0.4927(7) 0.5173(3) 0.4763(3)
C35B C 0.4890(6) 0.5752(3) 0.4901(3)
C34B C 0.4849(7) 0.6087(3) 0.4317(4)
C33B C 0.4789(7) 0.6615(3) 0.4421(4)
N11B N 0.4724(6) 0.6847(2) 0.5054(3)
C37B C 0.4782(7) 0.6521(3) 0.5617(4)
C36B C 0.4849(7) 0.5985(3) 0.5562(3)
H23B H 0.4870(7) 0.5744(3) 0.6039(3)
H24B H 0.4776(7) 0.6691(3) 0.6146(4)
H21B H 0.4795(7) 0.6865(3) 0.3954(4)
H22B H 0.4866(7) 0.5930(3) 0.3782(4)
H25B H 0.4819(7) 0.5045(3) 0.4209(3)
N12 N 0.4713(7) 0.1304(4) 0.5164(5)
C39 C 0.5434(7) 0.1631(4) 0.5460(4)
C40 C 0.6417(8) 0.2022(3) 0.5818(4)
H26 H 0.5596(8) 0.2308(3) 0.6027(4)
H27 H 0.7179(8) 0.2212(3) 0.5449(4)
H28 H 0.7245(8) 0.1851(3) 0.6257(4)
loop_
_geom_bond_atom_site_label_1
_geom_bond_atom_site_label_2
_geom_bond_site_symmetry_1
_geom_bond_site_symmetry_2
Cu1 N1 1_555 1_555
Cu2 N4 1_555 1_555
C1 C2 1_555 1_555
C2 N1 1_555 1_555
C3 C1 1_555 1_555
N2 C3 1_555 1_555
C4 C1 1_555 1_555
N3 C4 1_555 1_555
C5 C6 1_555 1_555
C6 N4 1_555 1_555
C7 C5 1_555 1_555
N5 C7 1_555 1_555
C8 C5 1_555 1_555
N6 C8 1_555 1_555
N7 Cu2 1_555 1_555
C9 N7 1_555 1_555
C10 C9 1_555 1_555
C11 C10 1_555 1_555
C12 C11 1_555 1_555
C13 N7 1_555 1_555
C14 C11 1_555 1_555
C15 C14 1_555 1_555
C16 C15 1_555 1_555
C17 C16 1_555 1_555
C18 C17 1_555 1_555
C19 C20 1_555 1_555
C20 C16 1_555 1_555
N8 Cu1 1_555 1_555
N9 C21 1_555 1_555
C21 C22 1_555 1_555
C22 C23 1_555 1_555
C23 C24 1_555 1_555
C24 C25 1_555 1_555
C25 N9 1_555 1_555
C26 C23 1_555 1_555
C27 C26 1_555 1_555
N10 Cu2 1_555 1_555
C28 N10 1_555 1_555
C29 C28 1_555 1_555
C30 C27 1_555 1_555
C31 C30 1_555 1_555
C32 N10 1_555 1_555
N11 C33 1_555 1_555
C33 C34 1_555 1_555
C34 C35 1_555 1_555
C35 C36 1_555 1_555
C36 C37 1_555 1_555
C37 N11 1_555 1_555
C38 C35 1_555 1_555
N12 C39 1_555 1_555
C39 C40 1_555 1_555
C40 H26 1_555 1_555
H1 C9 1_555 1_555
H2 C10 1_555 1_555
H3 C12 1_555 1_555
H4 C13 1_555 1_555
H5 C14 1_555 1_555
H6 C15 1_555 1_555
H7 C17 1_555 1_555
H8 C18 1_555 1_555
H9 C19 1_555 1_555
H10 C20 1_555 1_555
H11 C21 1_555 1_555
H12 C22 1_555 1_555
H13 C24 1_555 1_555
H14 C25 1_555 1_555
H15 C26 1_555 1_555
H16 C27 1_555 1_555
H17 C28 1_555 1_555
H18 C29 1_555 1_555
H19 C31 1_555 1_555
H20 C32 1_555 1_555
H21 C33 1_555 1_555
H22 C34 1_555 1_555
H23 C36 1_555 1_555
H24 C37 1_555 1_555
H25 C38 1_555 1_555
H27 C40 1_555 1_555
H28 C40 1_555 1_555
C38B C38 1_555 1_555
C35B C38B 1_555 1_555
C34B C35B 1_555 1_555
C33B C34B 1_555 1_555
N11B C33B 1_555 1_555
C37B N11B 1_555 1_555
C36B C35B 1_555 1_555
H23B C36B 1_555 1_555
H24B C37B 1_555 1_555
H21B C33B 1_555 1_555
H22B C34B 1_555 1_555
H25B C38B 1_555 1_555
N2_2 Cu1 1_555 1_555
N5_2 Cu2 1_555 1_555
N9_2 Cu1 1_555 1_555
Cu1_2 N2 1_555 1_555
Cu2_2 N5 1_555 1_555
Cu1_3 N9 1_555 1_555
C12 C13 1_555 1_555
C18 N8 1_555 1_555
C19 N8 1_555 1_555
C29 C30 1_555 1_555
C31 C32 1_555 1_555
C37B C36B 1_555 1_555

#END
