
#######################################################################
#
#                 Cambridge Crystallographic Data Centre
#                                CCDC 
#
#######################################################################
#
# If this CIF has been generated from an entry in the Cambridge 
# Structural Database, then it will include bibliographic, chemical, 
# crystal, experimental, refinement or atomic coordinate data resulting 
# from the CCDC's data processing and validation procedures.
#
#######################################################################

data_QENNIH
_symmetry_cell_setting           monoclinic
_symmetry_space_group_name_H-M   'P 21'
_symmetry_Int_Tables_number      4
_space_group_name_Hall           'P 2yb'
loop_
_symmetry_equiv_pos_site_id
_symmetry_equiv_pos_as_xyz
1 x,y,z
2 -x,1/2+y,-z
_cell_length_a                   7.9130(17)
_cell_length_b                   25.881(6)
_cell_length_c                   13.642(3)
_cell_angle_alpha                90
_cell_angle_beta                 91.029(5)
_cell_angle_gamma                90
_cell_volume                     2793.38
loop_
_atom_site_label
_atom_site_type_symbol
_atom_site_fract_x
_atom_site_fract_y
_atom_site_fract_z
Mo1 Mo 0.67451(13) 0.32203(3) -0.00533(9)
Mo2 Mo 0.17452(13) 0.31465(3) -0.50538(8)
O1 O 0.5181(11) 0.3214(5) 0.0810(7)
O2 O 0.8519(12) 0.3204(5) 0.0673(8)
O3 O 0.4937(13) 0.3399(4) -0.1208(10)
O4 O 0.4103(17) 0.3973(5) -0.2325(10)
O5 O 0.7066(13) 0.3966(4) -0.0364(9)
O6 O 0.8244(12) 0.3078(4) -0.1354(8)
O7 O 0.8637(17) 0.2528(4) -0.2560(8)
O8 O 0.6208(12) 0.2507(4) -0.0396(8)
O9 O 0.3533(12) 0.3172(5) -0.4338(8)
O10 O 1.0164(11) 0.3155(5) -0.4213(7)
O11 O 0.9867(12) 0.2983(3) 0.3777(9)
O12 O 0.9035(15) 0.2398(5) 0.2681(10)
O13 O 1.2091(12) 0.2423(4) 0.4629(9)
O14 O 0.3200(13) 0.3288(4) 0.3670(8)
O15 O 0.3689(15) 0.3853(4) 0.2452(8)
O16 O 0.1268(13) 0.3876(4) 0.4595(9)
C1 C 0.6099(16) 0.4251(5) -0.1079(11)
C2 C 0.491(2) 0.3845(6) -0.1623(13)
C3 C 0.7170(19) 0.2228(6) -0.1133(13)
C4 C 0.8109(19) 0.2645(6) -0.1756(13)
C5 C 1.1107(17) 0.2158(5) 0.3923(9)
C6 C 0.9930(17) 0.2535(6) 0.3399(12)
C7 C 0.2144(17) 0.4142(5) 0.3880(11)
C8 C 0.306(2) 0.3746(6) 0.3249(13)
C9 C 0.4889(18) 0.4608(5) -0.0574(12)
C10 C 0.4560(19) 0.4577(6) 0.0417(13)
H1 H 0.5172 0.4349 0.0811
C11 C 0.3328(19) 0.4884(7) 0.0822(14)
H2 H 0.3025 0.4829 0.1469
C12 C 0.2533(19) 0.5273(6) 0.0285(13)
H3 H 0.1775 0.5497 0.0576
C13 C 0.290(2) 0.5314(6) -0.0691(12)
H4 H 0.2368 0.5566 -0.1068
C14 C 0.4024(19) 0.4999(5) -0.1113(13)
H5 H 0.4240 0.5038 -0.1777
C15 C 0.7303(15) 0.4495(5) -0.1789(10)
C16 C 0.794(2) 0.4989(5) -0.1608(14)
H6 H 0.7579 0.5181 -0.1075
C17 C 0.913(2) 0.5186(6) -0.2256(14)
H7 H 0.9499 0.5526 -0.2188
C18 C 0.977(2) 0.4885(7) -0.2986(14)
H8 H 1.0633 0.5014 -0.3368
C19 C 0.916(2) 0.4400(6) -0.3165(13)
H9 H 0.9543 0.4205 -0.3689
C20 C 0.797(2) 0.4211(6) -0.2556(12)
H10 H 0.7587 0.3875 -0.2655
C21 C 0.5899(18) 0.1931(4) -0.1795(11)
C22 C 0.4872(19) 0.2206(6) -0.2438(11)
H11 H 0.4936 0.2565 -0.2454
C23 C 0.375(2) 0.1950(6) -0.3056(11)
H12 H 0.3038 0.2139 -0.3471
C24 C 0.368(2) 0.1424(6) -0.3064(15)
H13 H 0.2977 0.1252 -0.3509
C25 C 0.466(2) 0.1154(6) -0.2411(13)
H14 H 0.4581 0.0795 -0.2400
C26 C 0.575(2) 0.1399(5) -0.1762(13)
H15 H 0.6387 0.1209 -0.1309
C27 C 0.8527(17) 0.1901(5) -0.0635(9)
C28 C 0.866(2) 0.1863(6) 0.0344(12)
H16 H 0.7858 0.2030 0.0724
C29 C 0.989(2) 0.1594(6) 0.0797(13)
H17 H 0.9978 0.1597 0.1478
C30 C 1.101(2) 0.1321(6) 0.0277(16)
H18 H 1.1826 0.1121 0.0600
C31 C 1.096(2) 0.1336(6) -0.0736(15)
H19 H 1.1719 0.1149 -0.1106
C32 C 0.9743(18) 0.1633(6) -0.1170(13)
H20 H 0.9717 0.1659 -0.1850
C33 C 0.9926(19) 0.1749(6) 0.4428(13)
C34 C 0.909(2) 0.1396(7) 0.3874(13)
H21 H 0.9320 0.1365 0.3210
C35 C 0.784(2) 0.1069(7) 0.4315(13)
H22 H 0.7278 0.0818 0.3946
C36 C 0.750(2) 0.1135(6) 0.5296(13)
H23 H 0.6653 0.0940 0.5579
C37 C 0.839(2) 0.1484(7) 0.5860(13)
H24 H 0.8229 0.1503 0.6533
C38 C 0.9527(19) 0.1807(6) 0.5404(12)
H25 H 1.0039 0.2070 0.5765
C39 C 1.2340(18) 0.1899(5) 0.3207(12)
C40 C 1.299(2) 0.1412(7) 0.3341(16)
H26 H 1.2586 0.1216 0.3859
C41 C 1.418(2) 0.1197(7) 0.2755(15)
H27 H 1.4594 0.0867 0.2889
C42 C 1.478(2) 0.1472(6) 0.1962(14)
H28 H 1.5555 0.1328 0.1535
C43 C 1.419(2) 0.1962(7) 0.1836(13)
H29 H 1.4629 0.2160 0.1331
C44 C 1.296(2) 0.2184(7) 0.2422(14)
H30 H 1.2557 0.2515 0.2292
C45 C 0.3538(17) 0.4488(5) 0.4366(9)
C46 C 0.4678(16) 0.4747(5) 0.3773(10)
H31 H 0.4569 0.4736 0.3093
C47 C 0.5981(19) 0.5019(6) 0.4228(12)
H32 H 0.6779 0.5179 0.3838
C48 C 0.615(2) 0.5063(6) 0.5226(14)
H33 H 0.7024 0.5255 0.5506
C49 C 0.4990(18) 0.4817(6) 0.5807(12)
H34 H 0.5068 0.4850 0.6485
C50 C 0.369(2) 0.4516(6) 0.5380(9)
H35 H 0.2935 0.4338 0.5774
C51 C 0.0910(17) 0.4452(4) 0.3244(10)
C52 C -0.0159(19) 0.4187(6) 0.2603(12)
H36 H -0.0166 0.3828 0.2617
C53 C -0.122(2) 0.4442(5) 0.1944(13)
H37 H -0.1856 0.4254 0.1491
C54 C -0.132(2) 0.4976(5) 0.1957(12)
H38 H -0.2062 0.5149 0.1535
C55 C -0.029(2) 0.5246(6) 0.2613(14)
H39 H -0.0355 0.5605 0.2636
C56 C 0.0818(19) 0.4987(4) 0.3232(12)
H40 H 0.1521 0.5176 0.3652
K1 K 0.1901(6) 0.3439(2) 0.0788(4)
K2 K 0.6896(5) 0.29300(19) -0.4204(4)
K3 K 0.6468(4) 0.31130(13) 0.2780(2)
K4 K 0.1486(7) 0.3242(3) -0.2226(5)
O17 O 0.7409(18) 0.3766(5) -0.5510(11)
O18 O 0.2350(15) 0.2602(5) -0.0523(11)
O19 O 0.0724(16) 0.4019(5) -0.0682(11)
O20 O 0.5798(14) 0.2322(5) -0.5711(11)
Mo2_2 Mo 1.17452(13) 0.31465(3) -0.50538(8)
Mo2_3 Mo 1.17452(13) 0.31465(3) 0.49462(8)
Mo2_4 Mo 0.17452(13) 0.31465(3) 0.49462(8)
O2_2 O -0.1481(12) 0.3204(5) 0.0673(8)
O6_2 O -0.1756(12) 0.3078(4) -0.1354(8)
O7_2 O -0.1363(17) 0.2528(4) -0.2560(8)
O10_2 O 0.0164(11) 0.3155(5) -0.4213(7)
O11_2 O -0.0133(12) 0.2983(3) -0.6223(9)
O13_2 O 0.2091(12) 0.2423(4) -0.5371(9)
O14_2 O 0.3200(13) 0.3288(4) -0.6330(8)
O16_2 O 0.1268(13) 0.3876(4) -0.5405(9)
K1_2 K 1.1901(6) 0.3439(2) 0.0788(4)
K3_2 K 0.6468(4) 0.31130(13) -0.7220(2)
K4_2 K 1.1486(7) 0.3242(3) -0.2226(5)
O17_2 O 0.7409(18) 0.3766(5) 0.4490(11)
O20_2 O 0.5798(14) 0.2322(5) 0.4289(11)
loop_
_geom_bond_atom_site_label_1
_geom_bond_atom_site_label_2
_geom_bond_site_symmetry_1
_geom_bond_site_symmetry_2
Mo1 O1 1_555 1_555
Mo2 O9 1_555 1_555
O1 K1 1_555 1_555
O2 Mo1 1_555 1_555
O3 Mo1 1_555 1_555
O4 C2 1_555 1_555
O5 Mo1 1_555 1_555
O6 Mo1 1_555 1_555
O7 C4 1_555 1_555
O8 Mo1 1_555 1_555
O9 K2 1_555 1_555
O10 K2 1_555 1_555
O11 C6 1_555 1_555
O12 C6 1_555 1_555
O13 C5 1_555 1_555
O14 C8 1_555 1_555
O15 C8 1_555 1_555
O16 C7 1_555 1_555
C1 O5 1_555 1_555
C2 O3 1_555 1_555
C3 O8 1_555 1_555
C4 O6 1_555 1_555
C5 C6 1_555 1_555
C7 C8 1_555 1_555
C9 C1 1_555 1_555
C10 C9 1_555 1_555
H1 C10 1_555 1_555
C11 C10 1_555 1_555
H2 C11 1_555 1_555
C12 C11 1_555 1_555
H3 C12 1_555 1_555
C13 C12 1_555 1_555
H4 C13 1_555 1_555
C14 C9 1_555 1_555
H5 C14 1_555 1_555
C15 C1 1_555 1_555
C16 C15 1_555 1_555
H6 C16 1_555 1_555
C17 C16 1_555 1_555
H7 C17 1_555 1_555
C18 C17 1_555 1_555
H8 C18 1_555 1_555
C19 C18 1_555 1_555
H9 C19 1_555 1_555
C20 C15 1_555 1_555
H10 C20 1_555 1_555
C21 C3 1_555 1_555
C22 C21 1_555 1_555
H11 C22 1_555 1_555
C23 C22 1_555 1_555
H12 C23 1_555 1_555
C24 C23 1_555 1_555
H13 C24 1_555 1_555
C25 C24 1_555 1_555
H14 C25 1_555 1_555
C26 C21 1_555 1_555
H15 C26 1_555 1_555
C27 C3 1_555 1_555
C28 C27 1_555 1_555
H16 C28 1_555 1_555
C29 C28 1_555 1_555
H17 C29 1_555 1_555
C30 C29 1_555 1_555
H18 C30 1_555 1_555
C31 C30 1_555 1_555
H19 C31 1_555 1_555
C32 C27 1_555 1_555
H20 C32 1_555 1_555
C33 C5 1_555 1_555
C34 C33 1_555 1_555
H21 C34 1_555 1_555
C35 C34 1_555 1_555
H22 C35 1_555 1_555
C36 C35 1_555 1_555
H23 C36 1_555 1_555
C37 C36 1_555 1_555
H24 C37 1_555 1_555
C38 C33 1_555 1_555
H25 C38 1_555 1_555
C39 C5 1_555 1_555
C40 C39 1_555 1_555
H26 C40 1_555 1_555
C41 C40 1_555 1_555
H27 C41 1_555 1_555
C42 C41 1_555 1_555
H28 C42 1_555 1_555
C43 C42 1_555 1_555
H29 C43 1_555 1_555
C44 C39 1_555 1_555
H30 C44 1_555 1_555
C45 C7 1_555 1_555
C46 C45 1_555 1_555
H31 C46 1_555 1_555
C47 C46 1_555 1_555
H32 C47 1_555 1_555
C48 C47 1_555 1_555
H33 C48 1_555 1_555
C49 C48 1_555 1_555
H34 C49 1_555 1_555
C50 C45 1_555 1_555
H35 C50 1_555 1_555
C51 C7 1_555 1_555
C52 C51 1_555 1_555
H36 C52 1_555 1_555
C53 C52 1_555 1_555
H37 C53 1_555 1_555
C54 C53 1_555 1_555
H38 C54 1_555 1_555
C55 C54 1_555 1_555
H39 C55 1_555 1_555
C56 C51 1_555 1_555
H40 C56 1_555 1_555
K1 O15 1_555 1_555
K2 O7 1_555 1_555
K3 O1 1_555 1_555
K4 O3 1_555 1_555
O17 K2 1_555 1_555
O18 K1 1_555 1_555
O19 K1 1_555 1_555
O20 K2 1_555 1_555
Mo2_2 O10 1_555 1_555
Mo2_3 O11 1_555 1_555
Mo2_4 O14 1_555 1_555
O2_2 K1 1_555 1_555
O6_2 K4 1_555 1_555
O7_2 K4 1_555 1_555
O10_2 Mo2 1_555 1_555
O11_2 Mo2 1_555 1_555
O13_2 Mo2 1_555 1_555
O14_2 Mo2 1_555 1_555
O16_2 Mo2 1_555 1_555
K1_2 O2 1_555 1_555
K3_2 O17 1_555 1_555
K4_2 O6 1_555 1_555
O17_2 K3 1_555 1_555
O20_2 K3 1_555 1_555
O4 K4 1_555 1_555
O7 K4_2 1_555 1_555
O10 K4_2 1_555 1_555
O11 K3 1_555 1_555
O12 K3 1_555 1_555
O13 Mo2_3 1_555 1_555
O14 K3 1_555 1_555
O15 K3 1_555 1_555
O16 Mo2_4 1_555 1_555
C1 C2 1_555 1_555
C3 C4 1_555 1_555
C13 C14 1_555 1_555
C19 C20 1_555 1_555
C25 C26 1_555 1_555
C31 C32 1_555 1_555
C37 C38 1_555 1_555
C43 C44 1_555 1_555
C49 C50 1_555 1_555
C55 C56 1_555 1_555
K4 O18 1_555 1_555
K4 O19 1_555 1_555
K4 O10_2 1_555 1_555
O20 K3_2 1_555 1_555
O14_2 K3_2 1_555 1_555

#END
