
#######################################################################
#
#                 Cambridge Crystallographic Data Centre
#                                CCDC 
#
#######################################################################
#
# If this CIF has been generated from an entry in the Cambridge 
# Structural Database, then it will include bibliographic, chemical, 
# crystal, experimental, refinement or atomic coordinate data resulting 
# from the CCDC's data processing and validation procedures.
#
#######################################################################

data_QEPZAN
_symmetry_cell_setting           monoclinic
_symmetry_space_group_name_H-M   'P 21/n'
_symmetry_Int_Tables_number      14
_space_group_name_Hall           '-P 2yn'
loop_
_symmetry_equiv_pos_site_id
_symmetry_equiv_pos_as_xyz
1 x,y,z
2 1/2-x,1/2+y,1/2-z
3 -x,-y,-z
4 1/2+x,1/2-y,1/2+z
_cell_length_a                   11.9818(2)
_cell_length_b                   15.8523(3)
_cell_length_c                   15.1436(3)
_cell_angle_alpha                90
_cell_angle_beta                 99.7510(10)
_cell_angle_gamma                90
_cell_volume                     2834.81
loop_
_atom_site_label
_atom_site_type_symbol
_atom_site_fract_x
_atom_site_fract_y
_atom_site_fract_z
Hg1 Hg 0.122471(18) 0.064891(13) 0.931657(15)
Br1 Br 0.29512(7) -0.01995(5) 0.93078(5)
Br2 Br -0.08662(5) 0.08376(5) 0.90323(5)
N1 N 0.1596(4) 0.1638(3) 0.8128(3)
C1 C 0.0914(5) 0.2301(3) 0.7876(4)
H1 H 0.0349 0.2439 0.8223
C2 C 0.0998(5) 0.2783(4) 0.7141(4)
H2 H 0.0489 0.3237 0.6972
C3 C 0.1835(5) 0.2600(3) 0.6650(4)
H3 H 0.1913 0.2931 0.6141
C4 C 0.2562(4) 0.1932(3) 0.6900(3)
C5 C 0.2391(4) 0.1463(3) 0.7636(3)
H4 H 0.2867 0.0990 0.7801
C6 C 0.3493(4) 0.1712(3) 0.6396(3)
H5 H 0.3779 0.2226 0.6138
H6 H 0.4129 0.1441 0.6799
O1 O 0.3022(3) 0.1142(2) 0.5697(2)
C7 C 0.3625(4) 0.0996(3) 0.5015(3)
C8 C 0.4811(4) 0.1115(3) 0.5133(3)
H7 H 0.5209 0.1337 0.5679
C9 C 0.5376(4) 0.0910(3) 0.4456(4)
H8 H 0.6175 0.0981 0.4540
C10 C 0.4801(4) 0.0595(3) 0.3629(4)
C11 C 0.5375(5) 0.0354(3) 0.2922(4)
H9 H 0.6177 0.0389 0.3003
C12 C 0.4783(4) 0.0071(3) 0.2123(4)
H10 H 0.5181 -0.0104 0.1663
C13 C 0.3607(4) 0.0038(3) 0.1979(4)
H11 H 0.3204 -0.0129 0.1411
C14 C 0.3028(4) 0.0247(3) 0.2657(3)
H12 H 0.2225 0.0209 0.2554
C15 C 0.3596(4) 0.0515(3) 0.3501(3)
C16 C 0.3016(4) 0.0714(3) 0.4225(3)
C17 C 0.1760(4) 0.0650(3) 0.4111(3)
C18 C 0.1081(4) 0.1395(3) 0.4088(3)
C19 C 0.1575(4) 0.2210(3) 0.4200(3)
H13 H 0.2376 0.2266 0.4285
C20 C 0.0916(4) 0.2913(3) 0.4186(3)
H14 H 0.1263 0.3452 0.4269
C21 C -0.0274(5) 0.2848(3) 0.4050(4)
H15 H -0.0728 0.3340 0.4044
C22 C -0.0766(4) 0.2076(3) 0.3927(4)
H16 H -0.1569 0.2036 0.3827
C23 C -0.0120(4) 0.1332(3) 0.3945(3)
C24 C -0.0622(4) 0.0521(3) 0.3821(4)
H17 H -0.1424 0.0471 0.3715
C25 C 0.0025(4) -0.0186(3) 0.3851(4)
H18 H -0.0325 -0.0725 0.3773
C26 C 0.1219(4) -0.0122(3) 0.4000(3)
O2 O 0.1907(3) -0.08216(19) 0.4063(2)
C27 C 0.1407(4) -0.1594(3) 0.3705(4)
H19 H 0.0999 -0.1505 0.3087
H20 H 0.0860 -0.1802 0.4077
C28 C 0.2337(4) -0.2222(3) 0.3706(3)
C29 C 0.2553(4) -0.2823(3) 0.4383(3)
H21 H 0.2075 -0.2834 0.4823
C30 C 0.4043(4) -0.3382(3) 0.3814(3)
H22 H 0.4635 -0.3786 0.3847
N2 N 0.3393(3) -0.3385(2) 0.4449(3)
C31 C 0.3889(4) -0.2817(3) 0.3112(3)
H23 H 0.4370 -0.2831 0.2674
C32 C 0.3026(4) -0.2232(3) 0.3054(3)
H24 H 0.2905 -0.1840 0.2573
Hg1A Hg 0.377529(18) -0.435109(13) 0.568343(15)
N2A N 0.1607(3) 0.1615(2) 1.0551(3)
loop_
_geom_bond_atom_site_label_1
_geom_bond_atom_site_label_2
_geom_bond_site_symmetry_1
_geom_bond_site_symmetry_2
Hg1 Br1 1_555 1_555
Br2 Hg1 1_555 1_555
N1 Hg1 1_555 1_555
C1 N1 1_555 1_555
H1 C1 1_555 1_555
C2 C1 1_555 1_555
H2 C2 1_555 1_555
C3 C2 1_555 1_555
H3 C3 1_555 1_555
C4 C3 1_555 1_555
C5 N1 1_555 1_555
H4 C5 1_555 1_555
C6 C4 1_555 1_555
H5 C6 1_555 1_555
H6 C6 1_555 1_555
O1 C6 1_555 1_555
C7 O1 1_555 1_555
C8 C7 1_555 1_555
H7 C8 1_555 1_555
C9 C8 1_555 1_555
H8 C9 1_555 1_555
C10 C9 1_555 1_555
C11 C10 1_555 1_555
H9 C11 1_555 1_555
C12 C11 1_555 1_555
H10 C12 1_555 1_555
C13 C12 1_555 1_555
H11 C13 1_555 1_555
C14 C13 1_555 1_555
H12 C14 1_555 1_555
C15 C10 1_555 1_555
C16 C7 1_555 1_555
C17 C16 1_555 1_555
C18 C17 1_555 1_555
C19 C18 1_555 1_555
H13 C19 1_555 1_555
C20 C19 1_555 1_555
H14 C20 1_555 1_555
C21 C20 1_555 1_555
H15 C21 1_555 1_555
C22 C21 1_555 1_555
H16 C22 1_555 1_555
C23 C18 1_555 1_555
C24 C23 1_555 1_555
H17 C24 1_555 1_555
C25 C24 1_555 1_555
H18 C25 1_555 1_555
C26 C17 1_555 1_555
O2 C26 1_555 1_555
C27 O2 1_555 1_555
H19 C27 1_555 1_555
H20 C27 1_555 1_555
C28 C27 1_555 1_555
C29 C28 1_555 1_555
H21 C29 1_555 1_555
C30 H22 1_555 1_555
N2 C29 1_555 1_555
C31 C30 1_555 1_555
H23 C31 1_555 1_555
C32 C28 1_555 1_555
H24 C32 1_555 1_555
Hg1A N2 1_555 1_555
N2A Hg1 1_555 1_555
C4 C5 1_555 1_555
C14 C15 1_555 1_555
C15 C16 1_555 1_555
C22 C23 1_555 1_555
C25 C26 1_555 1_555
C30 N2 1_555 1_555
C31 C32 1_555 1_555

#END
