
#######################################################################
#
#                 Cambridge Crystallographic Data Centre
#                                CCDC 
#
#######################################################################
#
# If this CIF has been generated from an entry in the Cambridge 
# Structural Database, then it will include bibliographic, chemical, 
# crystal, experimental, refinement or atomic coordinate data resulting 
# from the CCDC's data processing and validation procedures.
#
#######################################################################

data_QEQBIY
_symmetry_cell_setting           orthorhombic
_symmetry_space_group_name_H-M   'P 21 21 21'
_symmetry_Int_Tables_number      19
_space_group_name_Hall           'P 2ac 2ab'
loop_
_symmetry_equiv_pos_site_id
_symmetry_equiv_pos_as_xyz
1 x,y,z
2 1/2-x,-y,1/2+z
3 1/2+x,1/2-y,-z
4 -x,1/2+y,1/2-z
_cell_length_a                   11.4494(9)
_cell_length_b                   18.8908(14)
_cell_length_c                   34.902(3)
_cell_angle_alpha                90
_cell_angle_beta                 90
_cell_angle_gamma                90
_cell_volume                     7548.9
loop_
_atom_site_label
_atom_site_type_symbol
_atom_site_fract_x
_atom_site_fract_y
_atom_site_fract_z
Zn1 Zn 1.26098(7) -0.47636(4) -0.124188(19)
Zn2 Zn 1.25140(8) -0.27454(3) -0.11064(2)
Zn3 Zn 1.25926(8) -0.67845(3) -0.13406(2)
N1 N 1.4489(5) -0.4763(3) -0.1247(2)
N2 N 2.0705(5) -0.4784(4) -0.12421(19)
N3 N 1.4407(5) -0.2722(4) -0.1079(2)
N4 N 2.0585(5) -0.2751(3) -0.1079(2)
N5 N 1.4502(5) -0.6800(4) -0.1345(2)
N6 N 2.0678(5) -0.6784(4) -0.1355(2)
N7 N 1.2592(6) 0.2089(3) -0.13053(15)
N8 N 1.2470(6) -0.1643(3) -0.11589(15)
O1 O 1.2556(6) -0.4134(2) -0.17414(12)
O2 O 1.2546(5) -0.2960(2) -0.16628(12)
O3 O 1.2600(5) -0.5706(2) -0.16078(12)
O4 O 1.2614(5) -0.6652(2) -0.19680(12)
O5 O 1.2556(6) -0.5415(2) -0.07477(11)
O6 O 1.2582(5) -0.6589(2) -0.07716(12)
O7 O 1.2488(5) -0.2921(2) -0.04941(12)
O8 O 1.2581(5) -0.3836(2) -0.08734(11)
C1 C 1.2543(7) -0.3516(3) -0.18637(16)
C2 C 1.2419(4) -0.3411(2) -0.22919(9)
H1 H 1.2763 -0.3806 -0.2428
H2 H 1.2814 -0.2980 -0.2370
C3 C 1.1091(4) -0.3358(2) -0.23836(9)
C4 C 1.0494(4) -0.2720(2) -0.23499(9)
H3 H 1.0904 -0.2304 -0.2303
C5 C 0.9286(4) -0.2705(2) -0.23867(9)
H4 H 0.8887 -0.2278 -0.2364
C6 C 0.8674(4) -0.3326(2) -0.24573(9)
H5 H 0.7865 -0.3316 -0.2482
C7 C 0.9270(4) -0.3964(2) -0.24910(9)
H6 H 0.8861 -0.4380 -0.2538
C8 C 1.0479(4) -0.3980(2) -0.24542(9)
H7 H 1.0878 -0.4407 -0.2477
C9 C 1.2625(7) -0.5996(3) -0.19386(18)
C10 C 1.2741(2) -0.55447(10) -0.22862(5)
H8 H 1.3551 -0.5548 -0.2367
H9 H 1.2542 -0.5062 -0.2218
C11 C 1.1978(2) -0.57728(10) -0.26237(5)
C12 C 1.0768(2) -0.57668(10) -0.25919(5)
H10 H 1.0419 -0.5660 -0.2358
C13 C 1.0079(2) -0.59200(10) -0.29093(5)
H11 H 0.9270 -0.5916 -0.2888
C14 C 1.0601(2) -0.60791(10) -0.32585(5)
H12 H 1.0140 -0.6182 -0.3471
C15 C 1.1811(2) -0.60852(10) -0.32902(5)
H13 H 1.2160 -0.6192 -0.3524
C16 C 1.2500(2) -0.59320(10) -0.29728(5)
H14 H 1.3309 -0.5936 -0.2994
C17 C 1.2549(2) -0.60141(10) -0.05954(5)
C18 C 1.2402(2) -0.60614(10) -0.01666(5)
H15 H 1.2575 -0.5607 -0.0051
H16 H 1.2942 -0.6408 -0.0063
C19 C 1.1146(2) -0.62779(10) -0.00706(5)
C20 C 1.0300(2) -0.57505(10) -0.00595(5)
H17 H 1.0516 -0.5278 -0.0083
C21 C 0.9131(2) -0.59293(10) -0.00132(5)
H18 H 0.8565 -0.5576 -0.0006
C22 C 0.8807(2) -0.66356(10) 0.00220(5)
H19 H 0.8025 -0.6755 0.0053
C23 C 0.9653(2) -0.71630(10) 0.00109(5)
H20 H 0.9437 -0.7636 0.0034
C24 C 1.0822(2) -0.69842(10) -0.00354(5)
H21 H 1.1388 -0.7337 -0.0043
C25 C 1.2611(2) -0.35650(10) -0.05396(5)
C26 C 1.2865(2) -0.40251(10) -0.01976(5)
H22 H 1.2945 -0.4510 -0.0286
H23 H 1.3613 -0.3883 -0.0092
C27 C 1.1980(2) -0.40130(10) 0.01188(5)
C28 C 1.0833(2) -0.38040(10) 0.00537(5)
H24 H 1.0620 -0.3620 -0.0183
C29 C 1.0005(2) -0.38705(10) 0.03428(5)
H25 H 0.9238 -0.3731 0.0299
C30 C 1.0324(2) -0.41461(10) 0.06969(5)
H26 H 0.9771 -0.4191 0.0890
C31 C 1.1471(2) -0.43552(10) 0.07620(5)
H27 H 1.1685 -0.4540 0.0999
C32 C 1.2299(2) -0.42886(10) 0.04729(5)
H28 H 1.3067 -0.4428 0.0516
C33 C 1.5049(7) -0.2657(5) -0.1404(3)
H29 H 1.4657 -0.2622 -0.1636
C34 C 1.6250(7) -0.2639(6) -0.1407(3)
H30 H 1.6639 -0.2583 -0.1639
C35 C 1.6890(6) -0.2704(5) -0.1074(3)
C36 C 1.6231(7) -0.2750(5) -0.0731(3)
H31 H 1.6606 -0.2772 -0.0495
C37 C 1.5022(7) -0.2760(5) -0.0750(3)
H32 H 1.4608 -0.2796 -0.0522
C38 C 1.8173(6) -0.2723(4) -0.1066(3)
C39 C 1.8790(6) -0.2974(4) -0.1381(2)
H33 H 1.8392 -0.3134 -0.1596
C40 C 1.9975(6) -0.2984(4) -0.1374(2)
H34 H 2.0372 -0.3163 -0.1585
C41 C 1.9982(7) -0.2509(4) -0.0785(3)
H35 H 2.0399 -0.2349 -0.0573
C42 C 1.8810(7) -0.2476(5) -0.0768(3)
H36 H 1.8441 -0.2287 -0.0554
C43 C 1.5092(7) -0.4734(6) -0.1571(3)
H37 H 1.4684 -0.4716 -0.1802
C44 C 1.6312(8) -0.4731(7) -0.1582(3)
H38 H 1.6694 -0.4691 -0.1816
C45 C 1.6959(6) -0.4786(5) -0.1247(2)
C46 C 1.6316(7) -0.4796(7) -0.0915(3)
H39 H 1.6692 -0.4800 -0.0678
C47 C 1.5108(7) -0.4802(6) -0.0931(3)
H40 H 1.4704 -0.4835 -0.0701
C48 C 1.8261(6) -0.4776(4) -0.1249(2)
C49 C 1.8906(6) -0.4917(4) -0.1571(2)
H41 H 1.8536 -0.5028 -0.1801
C50 C 2.0086(7) -0.4893(4) -0.1553(2)
H42 H 2.0494 -0.4958 -0.1781
C51 C 2.0089(6) -0.4682(5) -0.0920(2)
H43 H 2.0492 -0.4607 -0.0692
C52 C 1.8907(6) -0.4683(5) -0.0912(2)
H44 H 1.8519 -0.4620 -0.0680
C53 C 1.5123(9) -0.6924(7) -0.1662(3)
H45 H 1.4717 -0.6992 -0.1890
C54 C 1.6289(9) -0.6957(8) -0.1673(4)
H46 H 1.6661 -0.7065 -0.1903
C55 C 1.6951(6) -0.6833(5) -0.1348(3)
C56 C 1.6336(8) -0.6715(7) -0.1015(3)
H47 H 1.6725 -0.6641 -0.0784
C57 C 1.5103(8) -0.6709(7) -0.1030(3)
H48 H 1.4695 -0.6636 -0.0803
C58 C 1.8243(6) -0.6817(4) -0.1355(3)
C59 C 1.8869(7) -0.6914(7) -0.1675(3)
H49 H 1.8486 -0.6992 -0.1906
C60 C 2.0070(8) -0.6900(6) -0.1666(3)
H50 H 2.0471 -0.6977 -0.1894
C61 C 2.0054(8) -0.6689(7) -0.1052(3)
H51 H 2.0449 -0.6607 -0.0823
C62 C 1.8880(8) -0.6697(7) -0.1039(3)
H52 H 1.8503 -0.6619 -0.0807
C63 C 1.2429(12) 0.1692(4) -0.1618(2)
H53 H 1.2313 0.1917 -0.1852
C64 C 1.2426(11) 0.0981(4) -0.1608(2)
H54 H 1.2362 0.0726 -0.1834
C65 C 1.2518(8) 0.0628(3) -0.12623(18)
C66 C 1.2617(13) 0.1047(4) -0.0953(2)
H55 H 1.2641 0.0846 -0.0710
C67 C 1.2683(12) 0.1763(4) -0.0991(2)
H56 H 1.2803 0.2030 -0.0770
C68 C 1.2501(8) -0.0164(3) -0.12328(17)
C69 C 1.2749(8) -0.0589(4) -0.1535(2)
H57 H 1.2929 -0.0388 -0.1772
C70 C 1.2736(8) -0.1328(4) -0.1495(2)
H58 H 1.2915 -0.1608 -0.1706
C71 C 1.2273(9) -0.1224(4) -0.0869(2)
H59 H 1.2136 -0.1432 -0.0632
C72 C 1.2255(10) -0.0493(4) -0.0890(2)
H60 H 1.2078 -0.0226 -0.0674
Zn1_2 Zn 2.26098(7) -0.47636(4) -0.124188(19)
Zn2_2 Zn 2.25140(8) -0.27454(3) -0.11064(2)
Zn3_2 Zn 2.25926(8) -0.67845(3) -0.13406(2)
Zn3_3 Zn 1.25926(8) 0.32155(3) -0.13406(2)
N2_2 N 1.0705(5) -0.4784(4) -0.12421(19)
N4_2 N 1.0585(5) -0.2751(3) -0.1079(2)
N6_2 N 1.0678(5) -0.6784(4) -0.1355(2)
N7_2 N 1.2592(6) -0.7911(3) -0.13053(15)
N9 N 0.3929(16) 0.0649(9) -0.5016(5)
O9 O 0.2886(15) 0.0850(9) -0.4927(4)
O10 O 0.4371(12) 0.1262(8) -0.5075(4)
O11 O 0.399(2) -0.0025(10) -0.5014(7)
N10 N 0.6552(11) 0.4180(8) -0.2507(2)
O12 O 0.5572(10) 0.4328(11) -0.2501(6)
O13 O 0.7237(13) 0.4625(11) -0.2456(5)
O14 O 0.6834(18) 0.3597(8) -0.2564(4)
O15 O 0.523(3) -0.0302(11) -0.5662(7)
H61 H 0.4873 -0.0262 -0.5460
O16 O 0.491(3) -0.1338(16) -0.5465(6)
C73 C 0.536(3) -0.0976(10) -0.5744(7)
C74 C 0.5665(12) -0.1229(12) -0.6142(5)
H62 H 0.5467 -0.1727 -0.6165
H63 H 0.5207 -0.0969 -0.6328
C75 C 0.6934(8) -0.1133(7) -0.6227(4)
C76 C 0.7332(13) -0.0908(7) -0.6583(3)
H64 H 0.6801 -0.0764 -0.6770
C77 C 0.8522(14) -0.0899(7) -0.6662(3)
H65 H 0.8788 -0.0749 -0.6900
C78 C 0.9315(9) -0.1115(7) -0.6383(4)
H66 H 1.0111 -0.1109 -0.6436
C79 C 0.8917(10) -0.1340(6) -0.6027(4)
H67 H 0.9448 -0.1484 -0.5841
C80 C 0.7727(12) -0.1349(6) -0.5949(3)
H68 H 0.7461 -0.1499 -0.5711
O17 O 0.5753(13) -0.2278(9) -0.2387(5)
H69 H 0.5599 -0.1988 -0.2566
H70 H 0.5377 -0.2661 -0.2422
O18 O 0.522(3) -0.3818(17) -0.2632(9)
H71 H 0.5544 -0.3957 -0.2837
H72 H 0.4484 -0.3880 -0.2647
loop_
_geom_bond_atom_site_label_1
_geom_bond_atom_site_label_2
_geom_bond_site_symmetry_1
_geom_bond_site_symmetry_2
Zn1 N1 1_555 1_555
Zn2 N3 1_555 1_555
Zn3 N5 1_555 1_555
N1 C43 1_555 1_555
N2 C50 1_555 1_555
N3 C33 1_555 1_555
N4 C40 1_555 1_555
N5 C53 1_555 1_555
N6 C60 1_555 1_555
N7 C63 1_555 1_555
N8 Zn2 1_555 1_555
O1 Zn1 1_555 1_555
O2 Zn2 1_555 1_555
O3 Zn1 1_555 1_555
O4 Zn3 1_555 1_555
O5 Zn1 1_555 1_555
O6 Zn3 1_555 1_555
O7 Zn2 1_555 1_555
O8 Zn1 1_555 1_555
C1 O1 1_555 1_555
C2 C1 1_555 1_555
H1 C2 1_555 1_555
H2 C2 1_555 1_555
C3 C2 1_555 1_555
C4 C3 1_555 1_555
H3 C4 1_555 1_555
C5 C4 1_555 1_555
H4 C5 1_555 1_555
C6 C5 1_555 1_555
H5 C6 1_555 1_555
C7 C6 1_555 1_555
H6 C7 1_555 1_555
C8 C3 1_555 1_555
H7 C8 1_555 1_555
C9 O3 1_555 1_555
C10 C9 1_555 1_555
H8 C10 1_555 1_555
H9 C10 1_555 1_555
C11 C10 1_555 1_555
C12 C11 1_555 1_555
H10 C12 1_555 1_555
C13 C12 1_555 1_555
H11 C13 1_555 1_555
C14 C13 1_555 1_555
H12 C14 1_555 1_555
C15 C14 1_555 1_555
H13 C15 1_555 1_555
C16 C11 1_555 1_555
H14 C16 1_555 1_555
C17 O5 1_555 1_555
C18 C17 1_555 1_555
H15 C18 1_555 1_555
H16 C18 1_555 1_555
C19 C18 1_555 1_555
C20 C19 1_555 1_555
H17 C20 1_555 1_555
C21 C20 1_555 1_555
H18 C21 1_555 1_555
C22 C21 1_555 1_555
H19 C22 1_555 1_555
C23 C22 1_555 1_555
H20 C23 1_555 1_555
C24 C19 1_555 1_555
H21 C24 1_555 1_555
C25 O7 1_555 1_555
C26 C25 1_555 1_555
H22 C26 1_555 1_555
H23 C26 1_555 1_555
C27 C26 1_555 1_555
C28 C27 1_555 1_555
H24 C28 1_555 1_555
C29 C28 1_555 1_555
H25 C29 1_555 1_555
C30 C29 1_555 1_555
H26 C30 1_555 1_555
C31 C30 1_555 1_555
H27 C31 1_555 1_555
C32 C27 1_555 1_555
H28 C32 1_555 1_555
C33 H29 1_555 1_555
C34 C33 1_555 1_555
H30 C34 1_555 1_555
C35 C34 1_555 1_555
C36 C35 1_555 1_555
H31 C36 1_555 1_555
C37 N3 1_555 1_555
H32 C37 1_555 1_555
C38 C35 1_555 1_555
C39 C38 1_555 1_555
H33 C39 1_555 1_555
C40 C39 1_555 1_555
H34 C40 1_555 1_555
C41 N4 1_555 1_555
H35 C41 1_555 1_555
C42 C38 1_555 1_555
H36 C42 1_555 1_555
C43 H37 1_555 1_555
C44 C43 1_555 1_555
H38 C44 1_555 1_555
C45 C44 1_555 1_555
C46 C45 1_555 1_555
H39 C46 1_555 1_555
C47 N1 1_555 1_555
H40 C47 1_555 1_555
C48 C45 1_555 1_555
C49 C48 1_555 1_555
H41 C49 1_555 1_555
C50 C49 1_555 1_555
H42 C50 1_555 1_555
C51 N2 1_555 1_555
H43 C51 1_555 1_555
C52 C48 1_555 1_555
H44 C52 1_555 1_555
C53 H45 1_555 1_555
C54 C53 1_555 1_555
H46 C54 1_555 1_555
C55 C54 1_555 1_555
C56 C55 1_555 1_555
H47 C56 1_555 1_555
C57 N5 1_555 1_555
H48 C57 1_555 1_555
C58 C55 1_555 1_555
C59 C58 1_555 1_555
H49 C59 1_555 1_555
C60 C59 1_555 1_555
H50 C60 1_555 1_555
C61 N6 1_555 1_555
H51 C61 1_555 1_555
C62 C58 1_555 1_555
H52 C62 1_555 1_555
C63 H53 1_555 1_555
C64 C63 1_555 1_555
H54 C64 1_555 1_555
C65 C64 1_555 1_555
C66 C65 1_555 1_555
H55 C66 1_555 1_555
C67 N7 1_555 1_555
H56 C67 1_555 1_555
C68 C65 1_555 1_555
C69 C68 1_555 1_555
H57 C69 1_555 1_555
C70 N8 1_555 1_555
H58 C70 1_555 1_555
C71 N8 1_555 1_555
H59 C71 1_555 1_555
C72 C68 1_555 1_555
H60 C72 1_555 1_555
N9 O9 1_555 1_555
O10 N9 1_555 1_555
O11 N9 1_555 1_555
N10 O12 1_555 1_555
O13 N10 1_555 1_555
O14 N10 1_555 1_555
O15 H61 1_555 1_555
O16 C73 1_555 1_555
C73 O15 1_555 1_555
C74 C73 1_555 1_555
H62 C74 1_555 1_555
H63 C74 1_555 1_555
C75 C74 1_555 1_555
C76 C75 1_555 1_555
H64 C76 1_555 1_555
C77 C76 1_555 1_555
H65 C77 1_555 1_555
C78 C77 1_555 1_555
H66 C78 1_555 1_555
C79 C78 1_555 1_555
H67 C79 1_555 1_555
C80 C75 1_555 1_555
H68 C80 1_555 1_555
O17 H69 1_555 1_555
H70 O17 1_555 1_555
O18 H71 1_555 1_555
H72 O18 1_555 1_555
Zn1_2 N2 1_555 1_555
Zn2_2 N4 1_555 1_555
Zn3_2 N6 1_555 1_555
Zn3_3 N7 1_555 1_555
N2_2 Zn1 1_555 1_555
N4_2 Zn2 1_555 1_555
N6_2 Zn3 1_555 1_555
N7_2 Zn3 1_555 1_555
Zn2 O8 1_555 1_555
Zn3 O3 1_555 1_555
O2 C1 1_555 1_555
O4 C9 1_555 1_555
O6 C17 1_555 1_555
O8 C25 1_555 1_555
C7 C8 1_555 1_555
C15 C16 1_555 1_555
C23 C24 1_555 1_555
C31 C32 1_555 1_555
C36 C37 1_555 1_555
C41 C42 1_555 1_555
C46 C47 1_555 1_555
C51 C52 1_555 1_555
C56 C57 1_555 1_555
C61 C62 1_555 1_555
C66 C67 1_555 1_555
C69 C70 1_555 1_555
C71 C72 1_555 1_555
C79 C80 1_555 1_555

#END
