
#######################################################################
#
#                 Cambridge Crystallographic Data Centre
#                                CCDC 
#
#######################################################################
#
# If this CIF has been generated from an entry in the Cambridge 
# Structural Database, then it will include bibliographic, chemical, 
# crystal, experimental, refinement or atomic coordinate data resulting 
# from the CCDC's data processing and validation procedures.
#
#######################################################################

data_QEQSOV
_symmetry_cell_setting           triclinic
_symmetry_space_group_name_H-M   'P -1'
_symmetry_Int_Tables_number      2
_space_group_name_Hall           '-P 1'
loop_
_symmetry_equiv_pos_site_id
_symmetry_equiv_pos_as_xyz
1 x,y,z
2 -x,-y,-z
_cell_length_a                   5.1435(7)
_cell_length_b                   7.2931(10)
_cell_length_c                   7.5198(11)
_cell_angle_alpha                105.940(11)
_cell_angle_beta                 98.731(11)
_cell_angle_gamma                101.981(11)
_cell_volume                     258.708
loop_
_atom_site_label
_atom_site_type_symbol
_atom_site_fract_x
_atom_site_fract_y
_atom_site_fract_z
C1 C 0.4464(10) 0.2651(7) 0.0936(6)
H1 H 0.4117 0.1435 -0.0104
H2 H 0.5600 0.3701 0.0619
C2 C 0.1794(9) 0.3128(7) 0.1185(6)
H3 H 0.0929 0.3338 0.0045
H4 H 0.0587 0.2019 0.1373
C3 C 0.8999(7) 0.8520(6) 0.4620(5)
C4 C 1.1294(8) 0.9654(6) 0.4091(5)
N1 N 0.2221(7) 0.4900(5) 0.2813(5)
H5 H 0.0633 0.4924 0.3171
H6 H 0.2752 0.5979 0.2462
O1 O 0.5870(6) 0.2436(4) 0.2630(4)
O2 O 0.7861(6) 0.6712(4) 0.4122(4)
O3 O 1.2805(6) 0.9200(4) 0.2993(4)
Cu1 Cu 0.5000 0.5000 0.5000
H7 H 0.499(9) 0.141(5) 0.271(8)
C1A C 0.5536(10) 0.7349(7) 0.9064(6)
H1A H 0.5883 0.8565 1.0104
H2A H 0.4400 0.6299 0.9381
C2A C 0.8206(9) 0.6872(7) 0.8815(6)
H3A H 0.9071 0.6662 0.9955
H4A H 0.9413 0.7981 0.8627
C3A C 1.1001(7) 1.1480(6) 0.5380(5)
C4A C 0.8706(8) 1.0346(6) 0.5909(5)
N1A N 0.7779(7) 0.5100(5) 0.7187(5)
H5A H 0.9367 0.5076 0.6829
H6A H 0.7248 0.4021 0.7538
O1A O 0.4130(6) 0.7564(4) 0.7370(4)
O2A O 1.2139(6) 1.3288(4) 0.5878(4)
O2A_2 O 0.2139(6) 0.3288(4) 0.5878(4)
O3A O 0.7195(6) 1.0800(4) 0.7007(4)
Cu1_2 Cu 1.5000 1.5000 0.5000
H7A H 0.501(9) 0.859(5) 0.729(8)
loop_
_geom_bond_atom_site_label_1
_geom_bond_atom_site_label_2
_geom_bond_site_symmetry_1
_geom_bond_site_symmetry_2
C1 H1 1_555 1_555
H2 C1 1_555 1_555
C2 C1 1_555 1_555
H3 C2 1_555 1_555
H4 C2 1_555 1_555
C3 C4 1_555 1_555
C4 O3 1_555 1_555
N1 C2 1_555 1_555
H5 N1 1_555 1_555
H6 N1 1_555 1_555
O1 C1 1_555 1_555
O2 C3 1_555 1_555
Cu1 N1 1_555 1_555
H7 O1 1_555 1_555
C1A H1A 1_555 1_555
H2A C1A 1_555 1_555
C2A C1A 1_555 1_555
H3A C2A 1_555 1_555
H4A C2A 1_555 1_555
C3A C4 1_555 1_555
C4A C3 1_555 1_555
N1A Cu1 1_555 1_555
H5A N1A 1_555 1_555
H6A N1A 1_555 1_555
O1A Cu1 1_555 1_555
O2A C3A 1_555 1_555
O2A_2 Cu1 1_555 1_555
O3A C4A 1_555 1_555
Cu1_2 O2A 1_555 1_555
H7A O1A 1_555 1_555
O1 Cu1 1_555 1_555
O2 Cu1 1_555 1_555
C1A O1A 1_555 1_555
C2A N1A 1_555 1_555
C3A C4A 1_555 1_555

#END
