
#######################################################################
#
#                 Cambridge Crystallographic Data Centre
#                                CCDC 
#
#######################################################################
#
# If this CIF has been generated from an entry in the Cambridge 
# Structural Database, then it will include bibliographic, chemical, 
# crystal, experimental, refinement or atomic coordinate data resulting 
# from the CCDC's data processing and validation procedures.
#
#######################################################################

data_QEQTOW
_symmetry_cell_setting           monoclinic
_symmetry_space_group_name_H-M   'P 21/c'
_symmetry_Int_Tables_number      14
_space_group_name_Hall           '-P 2ybc'
loop_
_symmetry_equiv_pos_site_id
_symmetry_equiv_pos_as_xyz
1 x,y,z
2 -x,1/2+y,1/2-z
3 -x,-y,-z
4 x,1/2-y,1/2+z
_cell_length_a                   9.099(3)
_cell_length_b                   21.406(6)
_cell_length_c                   7.629(2)
_cell_angle_alpha                90
_cell_angle_beta                 110.178(4)
_cell_angle_gamma                90
_cell_volume                     1394.73
loop_
_atom_site_label
_atom_site_type_symbol
_atom_site_fract_x
_atom_site_fract_y
_atom_site_fract_z
Ag1 Ag 0.21440(3) 1.006444(12) 0.35901(4)
S1 S 0.48030(9) 0.92863(3) 0.25687(10)
S2 S -0.07095(10) 0.85640(4) -0.24771(13)
O1 O 0.3891(3) 0.98566(10) 0.1924(3)
O2 O 0.5340(3) 0.92125(11) 0.4583(3)
O3 O 0.6071(3) 0.92264(11) 0.1816(3)
O4 O -0.1512(3) 0.80037(12) -0.3309(4)
O5 O -0.1544(3) 0.89449(13) -0.1517(4)
O6 O -0.0241(3) 0.89529(14) -0.3782(4)
O7 O 0.2393(3) 0.96458(13) 0.6583(4)
O8 O -0.0306(4) 0.9458(2) 0.2266(7)
N1 N 0.5166(4) 0.61119(13) 0.3047(4)
C1 C 0.3500(4) 0.86624(14) 0.1543(4)
C2 C 0.2092(4) 0.88154(15) 0.0239(4)
C3 C 0.1059(4) 0.83398(15) -0.0726(4)
C4 C 0.1428(4) 0.77220(15) -0.0359(5)
C5 C 0.3297(4) 0.69168(15) 0.1379(4)
C6 C 0.4708(4) 0.67681(14) 0.2660(4)
C7 C 0.5781(4) 0.72263(16) 0.3639(4)
C8 C 0.5412(4) 0.78411(16) 0.3302(4)
C9 C 0.3957(4) 0.80255(14) 0.1977(4)
C10 C 0.2881(4) 0.75515(14) 0.0996(4)
H1 H 0.186(4) 0.9237(18) -0.003(5)
H2 H 0.073(4) 0.7430(18) -0.092(5)
H3 H 0.257(5) 0.6588(19) 0.070(6)
H4 H 0.672(5) 0.7083(19) 0.449(6)
H5 H 0.610(5) 0.810(2) 0.396(6)
H6 H 0.552(5) 0.6025(19) 0.432(6)
H7 H 0.444(5) 0.587(2) 0.226(6)
H8 H 0.583(5) 0.602(2) 0.260(6)
H9 H 0.250(6) 0.996(2) 0.721(8)
H10 H 0.167(5) 0.950(2) 0.647(6)
H11 H -0.035(7) 0.968(3) 0.135(8)
H12 H -0.068(6) 0.914(3) 0.157(8)
Ag1B Ag 0.78560(3) 0.993556(12) 0.64099(4)
Ag1B_2 Ag -0.21440(3) 0.993556(12) -0.35901(4)
O2B O 0.4660(3) 1.07875(11) 0.5417(3)
O5B O 0.1544(3) 1.10551(13) 0.1517(4)
O6B O 0.0241(3) 1.10471(14) 0.3782(4)
O9 O 0.9056(13) 0.8413(5) 0.2913(13)
loop_
_geom_bond_atom_site_label_1
_geom_bond_atom_site_label_2
_geom_bond_site_symmetry_1
_geom_bond_site_symmetry_2
Ag1 O1 1_555 1_555
S1 O1 1_555 1_555
S2 O4 1_555 1_555
O2 S1 1_555 1_555
O3 S1 1_555 1_555
O5 S2 1_555 1_555
O6 S2 1_555 1_555
O7 Ag1 1_555 1_555
O8 Ag1 1_555 1_555
N1 C6 1_555 1_555
C1 S1 1_555 1_555
C2 C1 1_555 1_555
C3 S2 1_555 1_555
C4 C3 1_555 1_555
C5 C6 1_555 1_555
C6 C7 1_555 1_555
C7 C8 1_555 1_555
C8 C9 1_555 1_555
C9 C1 1_555 1_555
C10 C4 1_555 1_555
H1 C2 1_555 1_555
H2 C4 1_555 1_555
H3 C5 1_555 1_555
H4 C7 1_555 1_555
H5 C8 1_555 1_555
H6 N1 1_555 1_555
H7 N1 1_555 1_555
H8 N1 1_555 1_555
H9 O7 1_555 1_555
H10 O7 1_555 1_555
H11 O8 1_555 1_555
H12 O8 1_555 1_555
Ag1B O2 1_555 1_555
Ag1B_2 O5 1_555 1_555
O2B Ag1 1_555 1_555
O5B Ag1 1_555 1_555
O6B Ag1 1_555 1_555
O6 Ag1B_2 1_555 1_555
C2 C3 1_555 1_555
C5 C10 1_555 1_555
C9 C10 1_555 1_555

#END
