
#######################################################################
#
#                 Cambridge Crystallographic Data Centre
#                                CCDC 
#
#######################################################################
#
# If this CIF has been generated from an entry in the Cambridge 
# Structural Database, then it will include bibliographic, chemical, 
# crystal, experimental, refinement or atomic coordinate data resulting 
# from the CCDC's data processing and validation procedures.
#
#######################################################################

data_QESPIO
_symmetry_cell_setting           orthorhombic
_symmetry_space_group_name_H-M   'P b c a'
_symmetry_Int_Tables_number      61
_space_group_name_Hall           '-P 2ac 2ab'
loop_
_symmetry_equiv_pos_site_id
_symmetry_equiv_pos_as_xyz
1 x,y,z
2 1/2-x,-y,1/2+z
3 1/2+x,1/2-y,-z
4 -x,1/2+y,1/2-z
5 -x,-y,-z
6 1/2+x,y,1/2-z
7 1/2-x,1/2+y,z
8 x,1/2-y,1/2+z
_cell_length_a                   6.8852
_cell_length_b                   6.7894
_cell_length_c                   27.4113
_cell_angle_alpha                90
_cell_angle_beta                 90
_cell_angle_gamma                90
_cell_volume                     1281.38
loop_
_atom_site_label
_atom_site_type_symbol
_atom_site_fract_x
_atom_site_fract_y
_atom_site_fract_z
Cd1 Cd -0.1000(1) -0.3075(6) -0.2178(5)
Se1 Se 0.0473(6) -0.1846(1) -0.2994(9)
N1 N 0.5650(2) -0.1387(1) -0.3448(2)
C1 C 0.5369(6) -0.0265(6) -0.4308(4)
C2 C 0.4641(5) -0.0760(3) -0.4817(8)
C3 C 0.4979(4) -0.1939(9) -0.3949(2)
Cd1C Cd 0.1000(1) -0.8075(6) -0.2822(5)
Cd1C_2 Cd 0.1000(1) 0.1925(6) -0.2822(5)
Cd1E Cd 0.4000(1) -0.3075(6) -0.2822(5)
Cd1F Cd 0.6000(1) -0.8075(6) -0.2178(5)
Cd1A Cd 0.6000(1) 0.3075(6) -0.7178(5)
Se1C Se -0.0473(6) -0.6846(1) -0.2006(9)
Se1E Se 0.5473(6) -0.1846(1) -0.2006(9)
Se1F Se 0.4527(6) -0.6846(1) -0.2994(9)
Se1E_2 Se -0.4527(6) -0.1846(1) -0.2006(9)
N1D N 0.4350(2) 0.1387(1) -0.6552(2)
N1E N 0.0650(2) -0.1387(1) -0.1552(2)
C1D C 0.4631(6) 0.0265(6) -0.5692(4)
C2D C 0.5359(5) 0.0760(3) -0.5183(8)
C3D C 0.5021(4) 0.1939(9) -0.6051(2)
loop_
_geom_bond_atom_site_label_1
_geom_bond_atom_site_label_2
_geom_bond_site_symmetry_1
_geom_bond_site_symmetry_2
Cd1 Se1 1_555 1_555
Se1 Cd1C_2 1_555 1_555
N1 C3 1_555 1_555
C1 C2 1_555 1_555
C2 C2D 1_555 1_555
C3 C1 1_555 1_555
Cd1C Se1C 1_555 1_555
Cd1E Se1 1_555 1_555
Cd1F Se1F 1_555 1_555
Cd1A N1D 1_555 1_555
Se1C Cd1 1_555 1_555
Se1E Cd1E 1_555 1_555
Se1F Cd1C 1_555 1_555
Se1E_2 Cd1 1_555 1_555
N1D C3D 1_555 1_555
N1E Cd1 1_555 1_555
C1D C2D 1_555 1_555
C3D C1D 1_555 1_555
N1 Cd1E 1_555 1_555
Cd1E Se1F 1_555 1_555

#END
