
#######################################################################
#
#                 Cambridge Crystallographic Data Centre
#                                CCDC 
#
#######################################################################
#
# If this CIF has been generated from an entry in the Cambridge 
# Structural Database, then it will include bibliographic, chemical, 
# crystal, experimental, refinement or atomic coordinate data resulting 
# from the CCDC's data processing and validation procedures.
#
#######################################################################

data_QESTIR
_symmetry_cell_setting           monoclinic
_symmetry_space_group_name_H-M   'P 21/n'
_symmetry_Int_Tables_number      14
_space_group_name_Hall           '-P 2yn'
loop_
_symmetry_equiv_pos_site_id
_symmetry_equiv_pos_as_xyz
1 x,y,z
2 1/2-x,1/2+y,1/2-z
3 -x,-y,-z
4 1/2+x,1/2-y,1/2+z
_cell_length_a                   10.7190(10)
_cell_length_b                   17.846(2)
_cell_length_c                   13.7470(10)
_cell_angle_alpha                90
_cell_angle_beta                 101.230(2)
_cell_angle_gamma                90
_cell_volume                     2579.33
loop_
_atom_site_label
_atom_site_type_symbol
_atom_site_fract_x
_atom_site_fract_y
_atom_site_fract_z
Ag1 Ag -0.53348(2) 0.207330(12) -0.424280(15)
P1 P -0.48953(6) 0.20692(4) -0.58653(5)
C1 C -0.6354(2) 0.18658(15) -0.6799(2)
C2 C -0.7287(3) 0.13710(17) -0.6359(2)
C3 C -0.8569(3) 0.13121(18) -0.7070(2)
C4 C -0.8416(3) 0.10182(18) -0.8075(2)
C5 C -0.7473(3) 0.1488(2) -0.8508(2)
C6 C -0.6192(3) 0.15424(18) -0.7801(2)
C7 C -0.4309(3) 0.29813(15) -0.6224(2)
C8 C -0.4161(3) 0.30576(16) -0.7305(2)
C9 C -0.3602(3) 0.38212(18) -0.7497(3)
C10 C -0.4398(3) 0.44561(18) -0.7208(3)
C11 C -0.4548(4) 0.43821(18) -0.6125(3)
C12 C -0.5108(3) 0.36307(17) -0.5940(2)
C13 C -0.3679(2) 0.13758(15) -0.6036(2)
C14 C -0.2395(3) 0.15731(17) -0.5364(3)
C15 C -0.1382(3) 0.09891(18) -0.5439(3)
C16 C -0.1805(3) 0.02088(18) -0.5208(3)
C17 C -0.3068(3) 0.00060(17) -0.5877(2)
C18 C -0.4077(3) 0.05881(15) -0.5792(2)
N1 N -0.4809(2) 0.12457(13) -0.12292(16)
C19 C -0.5226(3) 0.17023(17) -0.1996(2)
N2 N -0.4749(2) 0.15381(13) -0.27930(17)
C20 C -0.3978(3) 0.09270(18) -0.2508(2)
C21 C -0.4009(3) 0.07470(18) -0.1557(2)
N3 N -0.3810(2) 0.15492(13) 0.05327(16)
C22 C -0.3161(3) 0.21834(18) 0.0490(2)
N4 N -0.2027(2) 0.21970(14) 0.10879(17)
C23 C -0.1962(3) 0.15147(19) 0.1549(2)
C24 C -0.3033(3) 0.11177(18) 0.1218(2)
B1 B -0.5082(3) 0.1326(2) -0.0161(2)
H1 H -0.677(2) 0.2343(15) -0.692(2)
H2 H -0.740(2) 0.1554(15) -0.573(2)
H3 H -0.691(2) 0.0882(15) -0.621(2)
H4 H -0.894(2) 0.1788(16) -0.717(2)
H5 H -0.913(2) 0.1003(14) -0.6784(19)
H6 H -0.920(3) 0.1008(16) -0.851(2)
H7 H -0.812(2) 0.0492(14) -0.8000(18)
H8 H -0.782(3) 0.1986(17) -0.863(2)
H9 H -0.733(2) 0.1295(15) -0.911(2)
H10 H -0.584(3) 0.1052(16) -0.767(2)
H11 H -0.562(3) 0.1830(17) -0.808(2)
H12 H -0.346(3) 0.3018(14) -0.584(2)
H13 H -0.500(3) 0.3025(14) -0.774(2)
H14 H -0.368(3) 0.2675(18) -0.745(2)
H15 H -0.350(3) 0.3849(18) -0.822(2)
H16 H -0.277(3) 0.3849(16) -0.707(2)
H17 H -0.524(3) 0.4452(16) -0.760(2)
H18 H -0.409(3) 0.4951(18) -0.737(2)
H19 H -0.506(3) 0.4807(19) -0.594(2)
H20 H -0.369(4) 0.443(2) -0.577(3)
H21 H -0.525(3) 0.3586(17) -0.528(2)
H22 H -0.599(3) 0.3579(15) -0.631(2)
H23 H -0.355(2) 0.1393(14) -0.670(2)
H24 H -0.254(3) 0.1626(17) -0.469(2)
H25 H -0.212(3) 0.2041(15) -0.552(2)
H26 H -0.060(3) 0.1108(17) -0.496(2)
H27 H -0.122(3) 0.0984(16) -0.610(2)
H28 H -0.191(3) 0.0184(16) -0.449(2)
H29 H -0.120(3) -0.0137(17) -0.530(2)
H30 H -0.334(2) -0.0495(16) -0.571(2)
H31 H -0.299(3) -0.0044(16) -0.655(2)
H32 H -0.487(3) 0.0453(16) -0.624(2)
H33 H -0.424(3) 0.0595(15) -0.510(2)
H34 H -0.580(3) 0.2106(15) -0.199(2)
H35 H -0.358(3) 0.0727(18) -0.295(2)
H36 H -0.361(3) 0.0364(16) -0.117(2)
H37 H -0.348(3) 0.2578(18) 0.010(2)
H38 H -0.129(3) 0.1393(17) 0.199(2)
H39 H -0.327(3) 0.0605(17) 0.140(2)
H40 H -0.583(3) 0.1796(16) -0.020(2)
H41 H -0.540(2) 0.0795(14) 0.0076(18)
N4C N -0.7027(2) 0.28030(14) -0.39121(17)
Ag1C Ag -0.03348(2) 0.292670(12) 0.075720(15)
loop_
_geom_bond_atom_site_label_1
_geom_bond_atom_site_label_2
_geom_bond_site_symmetry_1
_geom_bond_site_symmetry_2
Ag1 P1 1_555 1_555
P1 C1 1_555 1_555
C1 C2 1_555 1_555
C2 C3 1_555 1_555
C3 C4 1_555 1_555
C4 C5 1_555 1_555
C5 C6 1_555 1_555
C6 C1 1_555 1_555
C7 P1 1_555 1_555
C8 C7 1_555 1_555
C9 C8 1_555 1_555
C10 C9 1_555 1_555
C11 C10 1_555 1_555
C12 C7 1_555 1_555
C13 P1 1_555 1_555
C14 C13 1_555 1_555
C15 C14 1_555 1_555
C16 C15 1_555 1_555
C17 C16 1_555 1_555
C18 C13 1_555 1_555
N1 C19 1_555 1_555
C19 N2 1_555 1_555
N2 Ag1 1_555 1_555
C20 N2 1_555 1_555
C21 N1 1_555 1_555
N3 C22 1_555 1_555
C22 N4 1_555 1_555
N4 C23 1_555 1_555
C23 C24 1_555 1_555
C24 N3 1_555 1_555
B1 N1 1_555 1_555
H1 C1 1_555 1_555
H2 C2 1_555 1_555
H3 C2 1_555 1_555
H4 C3 1_555 1_555
H5 C3 1_555 1_555
H6 C4 1_555 1_555
H7 C4 1_555 1_555
H8 C5 1_555 1_555
H9 C5 1_555 1_555
H10 C6 1_555 1_555
H11 C6 1_555 1_555
H12 C7 1_555 1_555
H13 C8 1_555 1_555
H14 C8 1_555 1_555
H15 C9 1_555 1_555
H16 C9 1_555 1_555
H17 C10 1_555 1_555
H18 C10 1_555 1_555
H19 C11 1_555 1_555
H20 C11 1_555 1_555
H21 C12 1_555 1_555
H22 C12 1_555 1_555
H23 C13 1_555 1_555
H24 C14 1_555 1_555
H25 C14 1_555 1_555
H26 C15 1_555 1_555
H27 C15 1_555 1_555
H28 C16 1_555 1_555
H29 C16 1_555 1_555
H30 C17 1_555 1_555
H31 C17 1_555 1_555
H32 C18 1_555 1_555
H33 C18 1_555 1_555
H34 C19 1_555 1_555
H35 C20 1_555 1_555
H36 C21 1_555 1_555
H37 C22 1_555 1_555
H38 C23 1_555 1_555
H39 C24 1_555 1_555
H40 B1 1_555 1_555
H41 B1 1_555 1_555
N4C Ag1 1_555 1_555
Ag1C N4 1_555 1_555
C11 C12 1_555 1_555
C17 C18 1_555 1_555
C20 C21 1_555 1_555
N3 B1 1_555 1_555

#END
