
#######################################################################
#
#                 Cambridge Crystallographic Data Centre
#                                CCDC 
#
#######################################################################
#
# If this CIF has been generated from an entry in the Cambridge 
# Structural Database, then it will include bibliographic, chemical, 
# crystal, experimental, refinement or atomic coordinate data resulting 
# from the CCDC's data processing and validation procedures.
#
#######################################################################

data_QESYIX
_symmetry_cell_setting           triclinic
_symmetry_space_group_name_H-M   'P -1'
_symmetry_Int_Tables_number      2
_space_group_name_Hall           '-P 1'
loop_
_symmetry_equiv_pos_site_id
_symmetry_equiv_pos_as_xyz
1 x,y,z
2 -x,-y,-z
_cell_length_a                   9.777(1)
_cell_length_b                   12.125(1)
_cell_length_c                   12.939(1)
_cell_angle_alpha                78.014(2)
_cell_angle_beta                 76.240(2)
_cell_angle_gamma                89.046(2)
_cell_volume                     1456.5
loop_
_atom_site_label
_atom_site_type_symbol
_atom_site_fract_x
_atom_site_fract_y
_atom_site_fract_z
Cu1 Cu 0.32567(4) 0.94455(3) 0.20372(3)
Cu2 Cu 0.55564(4) 0.89637(4) 0.03696(3)
I1 I 0.43192(2) 0.742886(18) 0.198680(18)
I2 I 0.54403(2) 1.091001(18) 0.135055(16)
N1 N 0.1951(3) 0.9610(2) 0.3511(2)
N2 N 0.1750(3) 0.8639(2) 0.4330(2)
N3 N 0.1935(3) 0.9809(2) 0.09609(19)
N4 N 0.2270(3) 1.0771(2) 0.0140(2)
C1 C 0.1211(3) 1.0510(3) 0.3652(2)
C2 C 0.0123(3) 1.0485(3) 0.4606(2)
C3 C 0.0766(3) 0.8590(3) 0.5232(2)
C4 C 0.0572(4) 0.7541(3) 0.6102(3)
H1 H 0.000(4) 0.701(3) 0.595(3)
H2 H 0.155(5) 0.720(3) 0.609(3)
C5 C -0.0127(3) 0.7772(3) 0.7241(2)
C6 C 0.1499(3) 1.1593(3) 0.2817(3)
H3 H 0.196(4) 1.148(3) 0.213(3)
H4 H 0.213(4) 1.206(3) 0.303(3)
C7 C 0.0877(4) 0.8458(3) 0.7621(3)
H5 H 0.173(6) 0.806(4) 0.763(4)
H6 H 0.112(5) 0.916(4) 0.715(4)
H7 H 0.046(5) 0.855(4) 0.830(4)
C8 C -0.0505(5) 0.6639(3) 0.8048(3)
H8 H -0.108(4) 0.620(3) 0.782(3)
H9 H 0.032(5) 0.620(4) 0.814(4)
H10 H -0.096(5) 0.679(4) 0.876(4)
C9 C 0.0781(3) 0.9204(2) 0.1092(2)
C10 C -0.0153(3) 0.9509(2) 0.0391(2)
C11 C 0.1394(3) 1.1126(3) -0.0491(2)
C12 C 0.1737(3) 1.2193(3) -0.1348(3)
H11 H 0.217(4) 1.271(3) -0.106(3)
H12 H 0.234(4) 1.200(3) -0.195(3)
C13 C 0.0425(3) 1.2724(3) -0.1685(3)
C14 C 0.0404(3) 0.8183(3) 0.1992(3)
H13 H -0.012(5) 0.841(4) 0.262(4)
H14 H 0.120(5) 0.788(4) 0.217(3)
C15 C 0.0915(4) 1.3678(3) -0.2689(3)
H15 H 0.147(5) 1.426(4) -0.249(3)
H16 H 0.146(5) 1.340(4) -0.329(4)
H17 H 0.014(5) 1.397(4) -0.292(4)
C16 C -0.0520(5) 1.3202(3) -0.0776(3)
H18 H -0.093(5) 1.267(4) -0.010(4)
H19 H -0.009(5) 1.371(4) -0.061(4)
H20 H -0.138(5) 1.358(4) -0.096(4)
Cu1A Cu -0.32567(4) 1.05545(3) 0.79628(3)
Cu1A_2 Cu -0.32567(4) 1.05545(3) -0.20372(3)
Cu1A_3 Cu 0.67433(4) 1.05545(3) -0.20372(3)
Cu2A Cu 0.44436(4) 1.10363(4) -0.03696(3)
Cu2_2 Cu -0.44436(4) 0.89637(4) 0.03696(3)
Cu2A_2 Cu -0.55564(4) 1.10363(4) 0.96304(3)
I1A I -0.43192(2) 1.257114(18) 0.801320(18)
I1A_2 I 0.56808(2) 1.257114(18) -0.198680(18)
I2A I 0.45597(2) 0.908999(18) -0.135055(16)
I2A_2 I -0.54403(2) 0.908999(18) 0.864945(16)
N1A N -0.1951(3) 1.0390(2) 0.6489(2)
N2A N -0.1750(3) 1.1361(2) 0.5670(2)
N3A N -0.1935(3) 1.0191(2) -0.09609(19)
N3A_2 N -0.1935(3) 1.0191(2) 0.90391(19)
N4A N -0.2270(3) 0.9229(2) -0.0140(2)
N4A_2 N 0.7730(3) 0.9229(2) -0.0140(2)
C1A C -0.1211(3) 0.9490(3) 0.6348(2)
C2A C -0.0123(3) 0.9515(3) 0.5394(2)
C3A C -0.0766(3) 1.1410(3) 0.4768(2)
C4A C -0.0572(4) 1.2459(3) 0.3898(3)
H1A H 0.000(4) 1.299(3) 0.405(3)
H2A H -0.155(5) 1.280(3) 0.391(3)
C5A C 0.0127(3) 1.2228(3) 0.2759(2)
C6A C -0.1499(3) 0.8407(3) 0.7183(3)
H3A H -0.196(4) 0.852(3) 0.787(3)
H4A H -0.213(4) 0.794(3) 0.697(3)
C7A C -0.0877(4) 1.1542(3) 0.2379(3)
H5A H -0.173(6) 1.194(4) 0.237(4)
H6A H -0.112(5) 1.084(4) 0.285(4)
H7A H -0.046(5) 1.145(4) 0.170(4)
C8A C 0.0505(5) 1.3361(3) 0.1952(3)
H8A H 0.108(4) 1.380(3) 0.218(3)
H9A H -0.032(5) 1.380(4) 0.186(4)
H10A H 0.096(5) 1.321(4) 0.124(4)
C9A C -0.0781(3) 1.0796(2) -0.1092(2)
C10A C 0.0153(3) 1.0491(2) -0.0391(2)
C11A C -0.1394(3) 0.8874(3) 0.0491(2)
C12A C -0.1737(3) 0.7807(3) 0.1348(3)
H11A H -0.217(4) 0.729(3) 0.106(3)
H12A H -0.234(4) 0.800(3) 0.195(3)
C13A C -0.0425(3) 0.7276(3) 0.1685(3)
C14A C -0.0404(3) 1.1817(3) -0.1992(3)
H13A H 0.012(5) 1.159(4) -0.262(4)
H14A H -0.120(5) 1.212(4) -0.217(3)
C15A C -0.0915(4) 0.6322(3) 0.2689(3)
H15A H -0.147(5) 0.574(4) 0.249(3)
H16A H -0.146(5) 0.660(4) 0.329(4)
H17A H -0.014(5) 0.603(4) 0.292(4)
C16A C 0.0520(5) 0.6798(3) 0.0776(3)
H18A H 0.093(5) 0.733(4) 0.010(4)
H19A H 0.009(5) 0.629(4) 0.061(4)
H20A H 0.138(5) 0.642(4) 0.096(4)
N5 N 0.6539(6) 1.3780(5) 0.2740(4)
C17 C 0.5524(5) 1.4852(4) 0.0353(4)
H21 H 0.6242 1.4395 0.0026
H22 H 0.5966 1.5533 0.0404
C18 C 0.4787(6) 1.4219(4) 0.1482(4)
H23 H 0.4369 1.3529 0.1429
H24 H 0.4048 1.4668 0.1795
C19 C 0.5773(6) 1.3959(5) 0.2192(4)
N5A N 0.3461(6) 1.6220(5) -0.2740(4)
C17A C 0.4476(5) 1.5148(4) -0.0353(4)
H21A H 0.3758 1.5605 -0.0026
H22A H 0.4034 1.4467 -0.0404
C18A C 0.5213(6) 1.5781(4) -0.1482(4)
H23A H 0.5631 1.6471 -0.1429
H24A H 0.5952 1.5332 -0.1795
C19A C 0.4227(6) 1.6041(5) -0.2192(4)
N6 N 0.2346(6) 0.4250(5) 0.3818(5)
C20 C 0.4809(5) 0.5559(4) 0.4718(4)
H25 H 0.5122 0.6135 0.5026
H26 H 0.5290 0.5689 0.3962
C21 C 0.3213(5) 0.5638(4) 0.4812(4)
H27 H 0.3003 0.6394 0.4508
H28 H 0.2730 0.5468 0.5568
C22 C 0.2694(5) 0.4862(5) 0.4259(4)
N6A N 0.7654(6) 0.5750(5) 0.6182(5)
C20A C 0.5191(5) 0.4441(4) 0.5282(4)
H25A H 0.4878 0.3865 0.4974
H26A H 0.4710 0.4311 0.6038
C21A C 0.6787(5) 0.4362(4) 0.5188(4)
H27A H 0.6997 0.3606 0.5492
H28A H 0.7270 0.4532 0.4432
C22A C 0.7306(5) 0.5138(5) 0.5741(4)
N7 N 0.2112(5) 0.1566(5) 0.5734(5)
C23 C 0.5264(7) 0.0524(6) 0.4637(7)
H29 H 0.6269 0.0516 0.4379
H30 H 0.4850 0.0610 0.4024
C24 C 0.4837(7) 0.1500(7) 0.5188(10)
H31 H 0.5236 0.2197 0.4718
H32 H 0.5195 0.1387 0.5830
C25 C 0.3280(6) 0.1559(5) 0.5504(6)
N7A N 0.7888(5) -0.1566(5) 0.4266(5)
C23A C 0.4736(7) -0.0524(6) 0.5363(7)
H29A H 0.3731 -0.0516 0.5621
H30A H 0.5150 -0.0610 0.5976
C24A C 0.5163(7) -0.1500(7) 0.4812(10)
H31A H 0.4764 -0.2197 0.5282
H32A H 0.4805 -0.1387 0.4170
C25A C 0.6720(6) -0.1559(5) 0.4496(6)
loop_
_geom_bond_atom_site_label_1
_geom_bond_atom_site_label_2
_geom_bond_site_symmetry_1
_geom_bond_site_symmetry_2
Cu1 I1 1_555 1_555
Cu2 I1 1_555 1_555
I2 Cu1 1_555 1_555
N1 Cu1 1_555 1_555
N2 N1 1_555 1_555
N3 Cu1 1_555 1_555
N4 N3 1_555 1_555
N5 C19 1_555 1_555
N6 C22 1_555 1_555
N7 C25 1_555 1_555
C1 N1 1_555 1_555
C2 C1 1_555 1_555
C3 N2 1_555 1_555
C4 C3 1_555 1_555
H1 C4 1_555 1_555
H2 C4 1_555 1_555
C5 C4 1_555 1_555
C6 C1 1_555 1_555
H3 C6 1_555 1_555
H4 C6 1_555 1_555
C7 C5 1_555 1_555
H5 C7 1_555 1_555
H6 C7 1_555 1_555
H7 C7 1_555 1_555
C8 C5 1_555 1_555
H8 C8 1_555 1_555
H9 C8 1_555 1_555
H10 C8 1_555 1_555
C9 N3 1_555 1_555
C10 C9 1_555 1_555
C11 N4 1_555 1_555
C12 C11 1_555 1_555
H11 C12 1_555 1_555
H12 C12 1_555 1_555
C13 C12 1_555 1_555
C14 C9 1_555 1_555
H13 C14 1_555 1_555
H14 C14 1_555 1_555
C15 C13 1_555 1_555
H15 C15 1_555 1_555
H16 C15 1_555 1_555
H17 C15 1_555 1_555
C16 C13 1_555 1_555
H18 C16 1_555 1_555
H19 C16 1_555 1_555
H20 C16 1_555 1_555
C17 H21 1_555 1_555
H22 C17 1_555 1_555
C18 C17 1_555 1_555
H23 C18 1_555 1_555
H24 C18 1_555 1_555
C19 C18 1_555 1_555
C20 H25 1_555 1_555
H26 C20 1_555 1_555
C21 C20 1_555 1_555
H27 C21 1_555 1_555
H28 C21 1_555 1_555
C22 C21 1_555 1_555
C23 H29 1_555 1_555
H30 C23 1_555 1_555
C24 C23 1_555 1_555
H31 C24 1_555 1_555
H32 C24 1_555 1_555
C25 C24 1_555 1_555
Cu1A I1A 1_555 1_555
Cu1A_2 N3A 1_555 1_555
Cu1A_3 I1A_2 1_555 1_555
Cu2A I2 1_555 1_555
Cu2_2 N4A 1_555 1_555
Cu2A_2 I1A 1_555 1_555
I1A_2 Cu2A 1_555 1_555
I2A Cu2 1_555 1_555
I2A_2 Cu1A 1_555 1_555
N1A Cu1A 1_555 1_555
N2A N1A 1_555 1_555
N3A N4A 1_555 1_555
N3A_2 Cu1A 1_555 1_555
N4A C11A 1_555 1_555
N4A_2 Cu2 1_555 1_555
N5A C19A 1_555 1_555
N6A C22A 1_555 1_555
N7A C25A 1_555 1_555
C1A N1A 1_555 1_555
C2A C2 1_555 1_555
C3A C2 1_555 1_555
C4A C3A 1_555 1_555
H1A C4A 1_555 1_555
H2A C4A 1_555 1_555
C5A C6 1_555 1_555
C6A C5 1_555 1_555
H3A C6A 1_555 1_555
H4A C6A 1_555 1_555
C7A C5A 1_555 1_555
H5A C7A 1_555 1_555
H6A C7A 1_555 1_555
H7A C7A 1_555 1_555
C8A C5A 1_555 1_555
H8A C8A 1_555 1_555
H9A C8A 1_555 1_555
H10A C8A 1_555 1_555
C9A N3A 1_555 1_555
C10A C10 1_555 1_555
C11A C10 1_555 1_555
C12A C11A 1_555 1_555
H11A C12A 1_555 1_555
H12A C12A 1_555 1_555
C13A C14 1_555 1_555
C14A C13 1_555 1_555
H13A C14A 1_555 1_555
H14A C14A 1_555 1_555
C15A C13A 1_555 1_555
H15A C15A 1_555 1_555
H16A C15A 1_555 1_555
H17A C15A 1_555 1_555
C16A C13A 1_555 1_555
H18A C16A 1_555 1_555
H19A C16A 1_555 1_555
H20A C16A 1_555 1_555
C17A C17 1_555 1_555
H21A C17A 1_555 1_555
H22A C17A 1_555 1_555
C18A C17A 1_555 1_555
H23A C18A 1_555 1_555
H24A C18A 1_555 1_555
C19A C18A 1_555 1_555
C20A C20 1_555 1_555
H25A C20A 1_555 1_555
H26A C20A 1_555 1_555
C21A C20A 1_555 1_555
H27A C21A 1_555 1_555
H28A C21A 1_555 1_555
C22A C21A 1_555 1_555
C23A C23 1_555 1_555
H29A C23A 1_555 1_555
H30A C23A 1_555 1_555
C24A C23A 1_555 1_555
H31A C24A 1_555 1_555
H32A C24A 1_555 1_555
C25A C24A 1_555 1_555
Cu2 I2 1_555 1_555
N4 Cu2A 1_555 1_555
C3 C2A 1_555 1_555
C11 C10A 1_555 1_555
Cu1A_3 I2A 1_555 1_555
Cu2A I2A 1_555 1_555
Cu2A_2 I2A_2 1_555 1_555
N2A C3A 1_555 1_555
C1A C2A 1_555 1_555
C1A C6A 1_555 1_555
C4A C5A 1_555 1_555
C9A C10A 1_555 1_555
C9A C14A 1_555 1_555
C12A C13A 1_555 1_555

#END
