
#######################################################################
#
#                 Cambridge Crystallographic Data Centre
#                                CCDC 
#
#######################################################################
#
# If this CIF has been generated from an entry in the Cambridge 
# Structural Database, then it will include bibliographic, chemical, 
# crystal, experimental, refinement or atomic coordinate data resulting 
# from the CCDC's data processing and validation procedures.
#
#######################################################################

data_QETFEA
_symmetry_cell_setting           monoclinic
_symmetry_space_group_name_H-M   'C 2/c'
_symmetry_Int_Tables_number      15
_space_group_name_Hall           '-C 2yn'
loop_
_symmetry_equiv_pos_site_id
_symmetry_equiv_pos_as_xyz
1 x,y,z
2 x,-y,1/2+z
3 1/2+x,1/2+y,z
4 1/2+x,1/2-y,1/2+z
5 -x,-y,-z
6 -x,y,1/2-z
7 1/2-x,1/2-y,-z
8 1/2-x,1/2+y,1/2-z
_cell_length_a                   16.652(4)
_cell_length_b                   11.163(3)
_cell_length_c                   10.081(3)
_cell_angle_alpha                90
_cell_angle_beta                 116.12(2)
_cell_angle_gamma                90
_cell_volume                     1682.54
loop_
_atom_site_label
_atom_site_type_symbol
_atom_site_fract_x
_atom_site_fract_y
_atom_site_fract_z
Co1 Co 0.0000 0.37771(6) 0.2500
Cl1 Cl -0.14708(7) 0.02389(10) -0.0842(1)
O1 O -0.0672(2) 0.2349(2) 0.1173(3)
O2 O -0.0614(2) -0.1855(3) 0.1104(4)
N1 N 0.0787(2) 0.5025(3) 0.4223(3)
N2 N 0.0791(2) 0.6013(3) 0.6326(3)
C1 C 0.1586(3) 0.5508(4) 0.4544(4)
C2 C 0.2016(2) 0.6249(4) 0.5737(4)
C3 C 0.1585(3) 0.6505(3) 0.6599(4)
C4 C 0.0431(2) 0.5287(3) 0.5150(4)
C5 C -0.0376(2) 0.1316(3) 0.1710(4)
C6 C -0.0671(2) 0.0251(3) 0.0998(4)
C7 C -0.0358(3) -0.0868(4) 0.1684(4)
H1 H 0.1815 0.5349 0.3781
H2 H 0.2576 0.6582 0.6023
H3 H -0.1815 0.2967 0.2618
C5E C 0.0376(2) 0.1316(3) 0.3290(4)
O1E O 0.0672(2) 0.2349(2) 0.3827(3)
N2A N 0.0791(2) 0.3987(3) 0.1326(3)
Co1A Co 0.0000 0.62229(6) 0.7500
N1D N -0.0787(2) 0.4975(3) 0.5777(3)
C1D C -0.1586(3) 0.4492(4) 0.5456(4)
C2D C -0.2016(2) 0.3751(4) 0.4263(4)
C3D C -0.1585(3) 0.3495(3) 0.3401(4)
N2D N -0.0791(2) 0.3987(3) 0.3674(3)
N1E N -0.0787(2) 0.5025(3) 0.0777(3)
C4D C -0.0431(2) 0.4713(3) 0.4850(4)
H2D H -0.2576 0.3418 0.3977
H1D H -0.1815 0.4651 0.6219
H3D H 0.1815 0.7033 0.7382
C6E C 0.0671(2) 0.0251(3) 0.4002(4)
Cl1E Cl 0.14708(7) 0.02389(10) 0.5842(1)
C7E C 0.0358(3) -0.0868(4) 0.3316(4)
O2E O 0.0614(2) -0.1855(3) 0.3896(4)
O3 O -0.1253(3) 0.3133(3) -0.1847(3)
H4 H -0.1001 0.2876 -0.0970
H5 H -0.0969 0.2762 -0.2329
loop_
_geom_bond_atom_site_label_1
_geom_bond_atom_site_label_2
_geom_bond_site_symmetry_1
_geom_bond_site_symmetry_2
Co1 O1 1_555 1_555
Cl1 C6 1_555 1_555
O1 C5 1_555 1_555
O2 C7 1_555 1_555
O3 H4 1_555 1_555
N1 Co1 1_555 1_555
N2 C3 1_555 1_555
C1 N1 1_555 1_555
C2 C1 1_555 1_555
C3 C2 1_555 1_555
C4 N1 1_555 1_555
C5 C6 1_555 1_555
C6 C7 1_555 1_555
C7 C7E 1_555 1_555
H1 C1 1_555 1_555
H2 C2 1_555 1_555
H3 C3D 1_555 1_555
H5 O3 1_555 1_555
C5E C5 1_555 1_555
O1E Co1 1_555 1_555
N2A Co1 1_555 1_555
Co1A N2 1_555 1_555
N1D Co1A 1_555 1_555
C1D N1D 1_555 1_555
C2D C1D 1_555 1_555
C3D C2D 1_555 1_555
N2D Co1 1_555 1_555
N1E Co1 1_555 1_555
C4D C4 1_555 1_555
H2D C2D 1_555 1_555
H1D C1D 1_555 1_555
H3D C3 1_555 1_555
C6E C5E 1_555 1_555
Cl1E C6E 1_555 1_555
C7E C6E 1_555 1_555
O2E C7E 1_555 1_555
N2 C4 1_555 1_555
C5E O1E 1_555 1_555
N1D C4D 1_555 1_555
C3D N2D 1_555 1_555
N2D C4D 1_555 1_555

#END
