
#######################################################################
#
#                 Cambridge Crystallographic Data Centre
#                                CCDC 
#
#######################################################################
#
# If this CIF has been generated from an entry in the Cambridge 
# Structural Database, then it will include bibliographic, chemical, 
# crystal, experimental, refinement or atomic coordinate data resulting 
# from the CCDC's data processing and validation procedures.
#
#######################################################################

data_QETSIS
_symmetry_cell_setting           monoclinic
_symmetry_space_group_name_H-M   'P 21/n'
_symmetry_Int_Tables_number      14
_space_group_name_Hall           '-P 2yn'
loop_
_symmetry_equiv_pos_site_id
_symmetry_equiv_pos_as_xyz
1 x,y,z
2 1/2-x,1/2+y,1/2-z
3 -x,-y,-z
4 1/2+x,1/2-y,1/2+z
_cell_length_a                   11.764(2)
_cell_length_b                   8.955(2)
_cell_length_c                   14.051(3)
_cell_angle_alpha                90
_cell_angle_beta                 95.15(3)
_cell_angle_gamma                90
_cell_volume                     1474.25
loop_
_atom_site_label
_atom_site_type_symbol
_atom_site_fract_x
_atom_site_fract_y
_atom_site_fract_z
Co1 Co -0.425620(7) 0.150720(9) 0.225890(6)
Cr1 Cr -0.253900(8) 0.403170(10) 0.391530(7)
O1 O -0.31617(4) 0.26437(5) 0.33147(3)
O2 O -0.21851(4) 0.53314(5) 0.31793(3)
O3 O -0.13651(4) 0.34298(5) 0.45521(4)
O4 O -0.34327(4) 0.47503(5) 0.46256(3)
O5 O -0.53192(4) 0.02474(5) 0.11886(3)
N1 N -0.39667(5) 0.31218(6) 0.12163(4)
C1 C -0.34444(7) 0.42559(9) -0.00949(6)
C2 C -0.39951(6) 0.45956(8) 0.13295(5)
N2 N -0.36873(5) 0.53057(7) 0.05662(5)
C3 C -0.36162(6) 0.29092(8) 0.03158(5)
N3 N -0.56907(4) 0.26794(6) 0.26622(4)
C4 C -0.74733(7) 0.33924(11) 0.28523(6)
C5 C -0.57025(6) 0.34645(8) 0.34547(5)
N4 N -0.67658(5) 0.39195(8) 0.35873(4)
C6 C -0.68074(6) 0.26338(10) 0.22807(6)
N5 N -0.45175(4) -0.02778(6) 0.31991(4)
N6 N -0.43838(6) -0.24702(7) 0.38983(5)
C7 C -0.53897(6) -0.04439(9) 0.37779(5)
C8 C -0.53171(7) -0.18032(10) 0.42074(6)
C9 C -0.39306(6) -0.15333(8) 0.32981(5)
H1 H -0.5058(7) 0.3755(9) 0.3910(6)
H2 H -0.8277(8) 0.3570(10) 0.2830(7)
H3 H -0.5650(6) 0.0763(9) 0.0747(5)
H4 H -0.3534(7) 0.1903(10) 0.0033(6)
H5 H -0.3230(7) -0.1775(9) 0.3008(6)
H6 H -0.5892(7) 0.0333(9) 0.3849(6)
H7 H -0.7048(7) 0.2204(10) 0.1757(6)
H8 H -0.4902(7) -0.0346(10) 0.1006(6)
H9 H -0.4107(7) -0.3206(10) 0.4070(6)
H10 H -0.4148(7) 0.5097(11) 0.1853(7)
H11 H -0.5719(8) -0.2205(11) 0.4607(7)
H12 H -0.3189(8) 0.4415(11) -0.0764(7)
H13 H -0.3682(9) 0.6320(12) 0.0537(8)
H14 H -0.6994(9) 0.4445(12) 0.4045(7)
Co1A Co -0.074380(7) 0.650720(9) 0.274110(6)
O2A O -0.28149(4) 0.03314(5) 0.18207(3)
loop_
_geom_bond_atom_site_label_1
_geom_bond_atom_site_label_2
_geom_bond_site_symmetry_1
_geom_bond_site_symmetry_2
Co1 O1 1_555 1_555
Cr1 O1 1_555 1_555
O2 Cr1 1_555 1_555
O3 Cr1 1_555 1_555
O4 Cr1 1_555 1_555
O5 Co1 1_555 1_555
N1 Co1 1_555 1_555
C1 N2 1_555 1_555
C2 N1 1_555 1_555
N2 C2 1_555 1_555
C3 N1 1_555 1_555
N3 Co1 1_555 1_555
C4 N4 1_555 1_555
C5 N3 1_555 1_555
N4 C5 1_555 1_555
C6 N3 1_555 1_555
N5 Co1 1_555 1_555
N6 C8 1_555 1_555
C7 N5 1_555 1_555
C8 C7 1_555 1_555
C9 N5 1_555 1_555
H1 C5 1_555 1_555
H2 C4 1_555 1_555
H3 O5 1_555 1_555
H4 C3 1_555 1_555
H5 C9 1_555 1_555
H6 C7 1_555 1_555
H7 C6 1_555 1_555
H8 O5 1_555 1_555
H9 N6 1_555 1_555
H10 C2 1_555 1_555
H11 C8 1_555 1_555
H12 C1 1_555 1_555
H13 N2 1_555 1_555
H14 N4 1_555 1_555
Co1A O2 1_555 1_555
O2A Co1 1_555 1_555
C1 C3 1_555 1_555
C4 C6 1_555 1_555
N6 C9 1_555 1_555

#END
