
#######################################################################
#
#                 Cambridge Crystallographic Data Centre
#                                CCDC 
#
#######################################################################
#
# If this CIF has been generated from an entry in the Cambridge 
# Structural Database, then it will include bibliographic, chemical, 
# crystal, experimental, refinement or atomic coordinate data resulting 
# from the CCDC's data processing and validation procedures.
#
#######################################################################

data_QETWOC
_symmetry_cell_setting           triclinic
_symmetry_space_group_name_H-M   'P -1'
_symmetry_Int_Tables_number      2
_space_group_name_Hall           '-P 1'
loop_
_symmetry_equiv_pos_site_id
_symmetry_equiv_pos_as_xyz
1 x,y,z
2 -x,-y,-z
_cell_length_a                   9.3253(6)
_cell_length_b                   10.9646(7)
_cell_length_c                   19.4452(13)
_cell_angle_alpha                76.6040(10)
_cell_angle_beta                 83.5090(10)
_cell_angle_gamma                74.1880(10)
_cell_volume                     1858.31
loop_
_atom_site_label
_atom_site_type_symbol
_atom_site_fract_x
_atom_site_fract_y
_atom_site_fract_z
Co1 Co 1.0000 0.5000 0.0000
Co2 Co 0.32740(5) -0.22351(4) 0.56229(2)
C1 C 0.7020(4) 0.5084(4) -0.0674(2)
H1 H 0.7422 0.4331 -0.0846
C2 C 0.5637(4) 0.5845(3) -0.07811(17)
H2 H 0.4916 0.5717 -0.1031
C3 C 0.6796(4) 0.6634(3) -0.01546(18)
H3 H 0.6998 0.7172 0.0107
C4 C 0.4165(4) 0.7926(4) -0.0405(2)
H4 H 0.3437 0.7619 -0.0060
H5 H 0.3719 0.8232 -0.0861
C5 C 0.4555(4) 0.9022(3) -0.01953(18)
C6 C 0.4240(4) 0.9236(4) 0.04674(19)
H6 H 0.3719 0.8726 0.0794
C7 C 0.5319(4) 0.9797(3) -0.06666(18)
H7 H 0.5542 0.9667 -0.1127
C8 C 0.9469(5) 0.2835(4) 0.1233(2)
H8 H 0.9219 0.3437 0.1522
C9 C 1.0041(4) 0.1983(3) 0.0337(2)
H9 H 1.0277 0.1874 -0.0126
C10 C 0.9935(4) 0.1020(3) 0.09071(17)
H10 H 1.0079 0.0148 0.0905
C11 C 0.9290(4) 0.0935(4) 0.22077(18)
H11 H 0.9285 0.1517 0.2516
H12 H 1.0088 0.0160 0.2341
C12 C 0.7815(4) 0.0572(3) 0.23130(17)
C13 C 0.7763(4) -0.0640(3) 0.22497(18)
H13 H 0.8626 -0.1223 0.2123
C14 C 0.6412(4) -0.0992(4) 0.2377(2)
H14 H 0.6385 -0.1813 0.2336
C15 C 0.5120(4) -0.0143(4) 0.25616(18)
C16 C 0.5179(5) 0.1088(4) 0.2591(2)
H15 H 0.4306 0.1690 0.2688
C17 C 0.6515(4) 0.1440(3) 0.24782(19)
H16 H 0.6538 0.2266 0.2514
C18 C 0.3679(4) -0.0546(3) 0.27466(17)
H17 H 0.2860 0.0213 0.2770
H18 H 0.3493 -0.0945 0.2381
C19 C 0.4190(4) -0.2783(3) 0.3535(2)
H19 H 0.4464 -0.3275 0.3188
C20 C 0.4142(4) -0.3230(4) 0.42433(18)
H20 H 0.4386 -0.4099 0.4470
C21 C 0.3475(4) -0.1153(4) 0.40658(19)
H21 H 0.3177 -0.0308 0.4137
C22 C 0.2641(4) 0.0594(3) 0.57585(19)
H22 H 0.3628 0.0641 0.5675
C23 C 0.0675(4) -0.0100(3) 0.58962(18)
H23 H 0.0035 -0.0630 0.5923
C24 C 0.0260(4) 0.1117(3) 0.60146(18)
H24 H -0.0697 0.1572 0.6137
C25 C 0.1600(4) 0.2813(3) 0.6021(2)
H25 H 0.2638 0.2837 0.5991
H26 H 0.1192 0.2911 0.6492
C26 C 0.1526(4) 0.4648(3) 0.4971(2)
H27 H 0.2564 0.4422 0.4951
C27 C 0.0766(4) 0.3934(3) 0.54880(18)
C28 C -0.0775(4) 0.4301(4) 0.5519(2)
H28 H -0.1311 0.3844 0.5868
C29 C 0.1538(4) -0.3842(4) 0.6578(2)
C30 C 0.0013(4) -0.4080(3) 0.67525(17)
C31 C -0.1206(4) -0.3266(3) 0.63877(18)
H29 H -0.1080 -0.2546 0.6048
C32 C -0.2607(4) -0.3507(3) 0.65204(18)
C33 C -0.3887(4) -0.2658(3) 0.60838(19)
C34 C -0.2793(4) -0.4592(3) 0.70215(18)
H30 H -0.3728 -0.4762 0.7112
C35 C -0.1583(4) -0.5421(3) 0.73859(16)
C36 C -0.0192(4) -0.5161(3) 0.72600(17)
H31 H 0.0609 -0.5709 0.7515
N1 N 0.7755(3) 0.5574(3) -0.02774(16)
N2 N 0.5494(3) 0.6853(3) -0.04481(15)
N3 N 0.9751(3) 0.3136(3) 0.05462(16)
N4 N 0.9583(3) 0.1565(3) 0.14730(17)
N5 N 0.3754(3) -0.1472(3) 0.34335(15)
N6 N 0.3678(3) -0.2202(3) 0.45769(15)
N7 N 0.2174(3) -0.0439(3) 0.57316(15)
N8 N 0.1526(3) 0.1545(3) 0.59185(16)
O1 O 0.9264(3) 0.5784(3) 0.09577(13)
H32 H 0.9269 0.6579 0.0867
H33 H 0.8384 0.5713 0.1087
O2 O 0.1673(3) -0.3058(2) 0.60024(13)
O3 O 0.2517(3) -0.4370(3) 0.69806(13)
O4 O -0.3858(3) -0.1580(2) 0.57327(14)
O5 O -0.4971(3) -0.3191(2) 0.61161(13)
O6 O -0.1368(3) -0.7837(2) 0.74832(14)
O7 O -0.0793(3) -0.7209(2) 0.85088(13)
O8 O -0.3359(3) -0.6684(2) 0.81806(12)
S1 S -0.18025(10) -0.69061(8) 0.79367(5)
Co1_2 Co 0.0000 1.5000 0.0000
Co2A Co 1.67260(5) 1.22351(4) -0.56229(2)
Co2_2 Co -0.67260(5) -0.22351(4) 0.56229(2)
Co2A_2 Co -0.32740(5) 1.22351(4) 0.43771(2)
Co2_3 Co 1.32740(5) -0.22351(4) 0.56229(2)
C1A C 0.2980(4) 1.4916(4) 0.0674(2)
H1A H 0.2578 1.5669 0.0846
C2A C 0.4363(4) 1.4155(3) 0.07811(17)
H2A H 0.5084 1.4283 0.1031
C3A C 0.3204(4) 1.3366(3) 0.01546(18)
H3A H 0.3002 1.2828 -0.0107
C4A C 0.5835(4) 1.2074(4) 0.0405(2)
H4A H 0.6563 1.2381 0.0060
H5A H 0.6281 1.1768 0.0861
C5A C 0.5445(4) 1.0978(3) 0.01953(18)
C6A C 0.5760(4) 1.0764(4) -0.04674(19)
H6A H 0.6281 1.1274 -0.0794
C7A C 0.4681(4) 1.0203(3) 0.06666(18)
H7A H 0.4458 1.0333 0.1127
C8A C 1.0531(5) 0.7165(4) -0.1233(2)
H8A H 1.0781 0.6563 -0.1522
C9A C 0.9959(4) 0.8017(3) -0.0337(2)
H9A H 0.9723 0.8126 0.0126
C10A C 1.0065(4) 0.8980(3) -0.09071(17)
H10A H 0.9921 0.9852 -0.0905
C11A C 1.0710(4) 0.9065(4) -0.22077(18)
H11A H 1.0715 0.8483 -0.2516
H12A H 0.9912 0.9840 -0.2341
C12A C 1.2185(4) 0.9428(3) -0.23130(17)
C13A C 1.2237(4) 1.0640(3) -0.22497(18)
H13A H 1.1374 1.1223 -0.2123
C14A C 1.3588(4) 1.0992(4) -0.2377(2)
H14A H 1.3615 1.1813 -0.2336
C15A C 1.4880(4) 1.0143(4) -0.25616(18)
C16A C 1.4821(5) 0.8912(4) -0.2591(2)
H15A H 1.5694 0.8310 -0.2688
C17A C 1.3485(4) 0.8560(3) -0.24782(19)
H16A H 1.3462 0.7734 -0.2514
C18A C 1.6321(4) 1.0546(3) -0.27466(17)
H17A H 1.7140 0.9787 -0.2770
H18A H 1.6507 1.0945 -0.2381
C19A C 1.5810(4) 1.2783(3) -0.3535(2)
H19A H 1.5536 1.3275 -0.3188
C20A C 1.5858(4) 1.3230(4) -0.42433(18)
H20A H 1.5614 1.4099 -0.4470
C21A C 1.6525(4) 1.1153(4) -0.40658(19)
H21A H 1.6823 1.0308 -0.4137
C22A C -0.2641(4) 0.9406(3) 0.42415(19)
H22A H -0.3628 0.9359 0.4325
C23A C -0.0675(4) 1.0100(3) 0.41038(18)
H23A H -0.0035 1.0630 0.4077
C24A C -0.0260(4) 0.8883(3) 0.39854(18)
H24A H 0.0697 0.8428 0.3863
C25A C -0.1600(4) 0.7187(3) 0.3979(2)
H25A H -0.2638 0.7163 0.4009
H26A H -0.1192 0.7089 0.3508
C26A C -0.1526(4) 0.5352(3) 0.5029(2)
H27A H -0.2564 0.5578 0.5049
C27A C -0.0766(4) 0.6066(3) 0.45120(18)
C28A C 0.0775(4) 0.5699(4) 0.4481(2)
H28A H 0.1311 0.6156 0.4132
C29_2 C 1.1538(4) -0.3842(4) 0.6578(2)
C30_2 C 1.0013(4) -0.4080(3) 0.67525(17)
C31_2 C 0.8794(4) -0.3266(3) 0.63877(18)
H29_2 H 0.8920 -0.2546 0.6048
C32_2 C 0.7393(4) -0.3507(3) 0.65204(18)
C33_2 C 0.6113(4) -0.2658(3) 0.60838(19)
C34_2 C 0.7207(4) -0.4592(3) 0.70215(18)
H30_2 H 0.6272 -0.4762 0.7112
C35_2 C 0.8417(4) -0.5421(3) 0.73859(16)
C36_2 C 0.9808(4) -0.5161(3) 0.72600(17)
H31_2 H 1.0609 -0.5709 0.7515
N1A N 0.2245(3) 1.4426(3) 0.02774(16)
N1A_2 N 1.2245(3) 0.4426(3) 0.02774(16)
N2A N 0.4506(3) 1.3147(3) 0.04481(15)
N3A N 1.0249(3) 0.6864(3) -0.05462(16)
N4A N 1.0417(3) 0.8435(3) -0.14730(17)
N5A N 1.6246(3) 1.1472(3) -0.34335(15)
N6A N 1.6322(3) 1.2202(3) -0.45769(15)
N7A N -0.2174(3) 1.0439(3) 0.42684(15)
N7A_2 N 1.7826(3) 1.0439(3) -0.57316(15)
N8A N -0.1526(3) 0.8455(3) 0.40815(16)
O1A O 1.0736(3) 0.4216(3) -0.09577(13)
H32A H 1.0731 0.3421 -0.0867
H33A H 1.1616 0.4287 -0.1087
O2_2 O 1.1673(3) -0.3058(2) 0.60024(13)
O2A O 1.8327(3) 1.3058(2) -0.60024(13)
O3_2 O 1.2517(3) -0.4370(3) 0.69806(13)
O4_2 O 0.6142(3) -0.1580(2) 0.57327(14)
O5_2 O 0.5029(3) -0.3191(2) 0.61161(13)
O5A O 1.4971(3) 1.3191(2) -0.61161(13)
O6_2 O 0.8632(3) -0.7837(2) 0.74832(14)
O7_2 O 0.9207(3) -0.7209(2) 0.85088(13)
O8_2 O 0.6641(3) -0.6684(2) 0.81806(12)
S1_2 S 0.81975(10) -0.69061(8) 0.79367(5)
O9 O 0.6615(3) -0.4206(2) 0.17547(12)
H34 H 0.7063 -0.4648 0.2125
H35 H 0.5678 -0.4043 0.1846
loop_
_geom_bond_atom_site_label_1
_geom_bond_atom_site_label_2
_geom_bond_site_symmetry_1
_geom_bond_site_symmetry_2
Co1 N1 1_555 1_555
Co2 N6 1_555 1_555
C1 H1 1_555 1_555
C2 C1 1_555 1_555
H2 C2 1_555 1_555
C3 H3 1_555 1_555
C4 H4 1_555 1_555
H5 C4 1_555 1_555
C5 C4 1_555 1_555
C6 C5 1_555 1_555
H6 C6 1_555 1_555
C7 C5 1_555 1_555
H7 C7 1_555 1_555
C8 H8 1_555 1_555
C9 H9 1_555 1_555
C10 C9 1_555 1_555
H10 C10 1_555 1_555
C11 H11 1_555 1_555
H12 C11 1_555 1_555
C12 C11 1_555 1_555
C13 C12 1_555 1_555
H13 C13 1_555 1_555
C14 C13 1_555 1_555
H14 C14 1_555 1_555
C15 C14 1_555 1_555
C16 C15 1_555 1_555
H15 C16 1_555 1_555
C17 C12 1_555 1_555
H16 C17 1_555 1_555
C18 C15 1_555 1_555
H17 C18 1_555 1_555
H18 C18 1_555 1_555
C19 H19 1_555 1_555
C20 C19 1_555 1_555
H20 C20 1_555 1_555
C21 H21 1_555 1_555
C22 H22 1_555 1_555
C23 H23 1_555 1_555
C24 C23 1_555 1_555
H24 C24 1_555 1_555
C25 H25 1_555 1_555
H26 C25 1_555 1_555
C26 H27 1_555 1_555
C27 C25 1_555 1_555
C28 C27 1_555 1_555
H28 C28 1_555 1_555
C29 C30 1_555 1_555
C30 C31 1_555 1_555
C31 H29 1_555 1_555
C32 C31 1_555 1_555
C33 C32 1_555 1_555
C34 C32 1_555 1_555
H30 C34 1_555 1_555
C35 C34 1_555 1_555
C36 C30 1_555 1_555
H31 C36 1_555 1_555
N1 C1 1_555 1_555
N2 C2 1_555 1_555
N3 Co1 1_555 1_555
N4 C8 1_555 1_555
N5 C18 1_555 1_555
N6 C20 1_555 1_555
N7 Co2 1_555 1_555
N8 C22 1_555 1_555
O1 Co1 1_555 1_555
H32 O1 1_555 1_555
H33 O1 1_555 1_555
O2 Co2 1_555 1_555
O3 C29 1_555 1_555
O4 C33 1_555 1_555
O5 C33 1_555 1_555
O6 S1 1_555 1_555
O7 S1 1_555 1_555
O8 S1 1_555 1_555
O9 H34 1_555 1_555
H35 O9 1_555 1_555
S1 C35 1_555 1_555
Co1_2 N1A 1_555 1_555
Co2A N6A 1_555 1_555
Co2_2 O5 1_555 1_555
Co2A_2 N7A 1_555 1_555
Co2_3 O2_2 1_555 1_555
C1A H1A 1_555 1_555
C2A C1A 1_555 1_555
H2A C2A 1_555 1_555
C3A H3A 1_555 1_555
C4A H4A 1_555 1_555
H5A C4A 1_555 1_555
C5A C4A 1_555 1_555
C6A C7 1_555 1_555
H6A C6A 1_555 1_555
C7A C6 1_555 1_555
H7A C7A 1_555 1_555
C8A H8A 1_555 1_555
C9A H9A 1_555 1_555
C10A C9A 1_555 1_555
H10A C10A 1_555 1_555
C11A H11A 1_555 1_555
H12A C11A 1_555 1_555
C12A C11A 1_555 1_555
C13A C12A 1_555 1_555
H13A C13A 1_555 1_555
C14A C13A 1_555 1_555
H14A C14A 1_555 1_555
C15A C14A 1_555 1_555
C16A C15A 1_555 1_555
H15A C16A 1_555 1_555
C17A C12A 1_555 1_555
H16A C17A 1_555 1_555
C18A C15A 1_555 1_555
H17A C18A 1_555 1_555
H18A C18A 1_555 1_555
C19A H19A 1_555 1_555
C20A C19A 1_555 1_555
H20A C20A 1_555 1_555
C21A H21A 1_555 1_555
C22A H22A 1_555 1_555
C23A H23A 1_555 1_555
C24A C23A 1_555 1_555
H24A C24A 1_555 1_555
C25A H25A 1_555 1_555
H26A C25A 1_555 1_555
C26A C28 1_555 1_555
H27A C26A 1_555 1_555
C27A C25A 1_555 1_555
C28A C26 1_555 1_555
H28A C28A 1_555 1_555
C29_2 C30_2 1_555 1_555
C30_2 C31_2 1_555 1_555
C31_2 H29_2 1_555 1_555
C32_2 C31_2 1_555 1_555
C33_2 C32_2 1_555 1_555
C34_2 C32_2 1_555 1_555
H30_2 C34_2 1_555 1_555
C35_2 C34_2 1_555 1_555
C36_2 C30_2 1_555 1_555
H31_2 C36_2 1_555 1_555
N1A C1A 1_555 1_555
N1A_2 Co1 1_555 1_555
N2A C2A 1_555 1_555
N3A Co1 1_555 1_555
N4A C8A 1_555 1_555
N5A C18A 1_555 1_555
N6A C20A 1_555 1_555
N7A C22A 1_555 1_555
N7A_2 Co2A 1_555 1_555
N8A C22A 1_555 1_555
O1A Co1 1_555 1_555
H32A O1A 1_555 1_555
H33A O1A 1_555 1_555
O2_2 C29_2 1_555 1_555
O2A Co2A 1_555 1_555
O3_2 C29_2 1_555 1_555
O4_2 C33_2 1_555 1_555
O5_2 Co2 1_555 1_555
O5A Co2A 1_555 1_555
O6_2 S1_2 1_555 1_555
O7_2 S1_2 1_555 1_555
O8_2 S1_2 1_555 1_555
S1_2 C35_2 1_555 1_555
C3 N1 1_555 1_555
C3 N2 1_555 1_555
C4 N2 1_555 1_555
C8 N3 1_555 1_555
C9 N3 1_555 1_555
C10 N4 1_555 1_555
C11 N4 1_555 1_555
C16 C17 1_555 1_555
C19 N5 1_555 1_555
C21 N5 1_555 1_555
C21 N6 1_555 1_555
C22 N7 1_555 1_555
C23 N7 1_555 1_555
C24 N8 1_555 1_555
C25 N8 1_555 1_555
C26 C27 1_555 1_555
C29 O2 1_555 1_555
C35 C36 1_555 1_555
C3A N1A 1_555 1_555
C3A N2A 1_555 1_555
C4A N2A 1_555 1_555
C5A C6A 1_555 1_555
C5A C7A 1_555 1_555
C8A N3A 1_555 1_555
C9A N3A 1_555 1_555
C10A N4A 1_555 1_555
C11A N4A 1_555 1_555
C16A C17A 1_555 1_555
C19A N5A 1_555 1_555
C21A N5A 1_555 1_555
C21A N6A 1_555 1_555
C23A N7A 1_555 1_555
C24A N8A 1_555 1_555
C25A N8A 1_555 1_555
C26A C27A 1_555 1_555
C27A C28A 1_555 1_555
C33_2 O5_2 1_555 1_555
C35_2 C36_2 1_555 1_555

#END
