
#######################################################################
#
#                 Cambridge Crystallographic Data Centre
#                                CCDC 
#
#######################################################################
#
# If this CIF has been generated from an entry in the Cambridge 
# Structural Database, then it will include bibliographic, chemical, 
# crystal, experimental, refinement or atomic coordinate data resulting 
# from the CCDC's data processing and validation procedures.
#
#######################################################################

data_QEVLEJ
_symmetry_cell_setting           monoclinic
_symmetry_space_group_name_H-M   'P 21/n'
_symmetry_Int_Tables_number      14
_space_group_name_Hall           '-P 2yn'
loop_
_symmetry_equiv_pos_site_id
_symmetry_equiv_pos_as_xyz
1 x,y,z
2 1/2-x,1/2+y,1/2-z
3 -x,-y,-z
4 1/2+x,1/2-y,1/2+z
_cell_length_a                   8.4113(9)
_cell_length_b                   15.8194(17)
_cell_length_c                   14.5418(14)
_cell_angle_alpha                90
_cell_angle_beta                 96.051(4)
_cell_angle_gamma                90
_cell_volume                     1924.18
loop_
_atom_site_label
_atom_site_type_symbol
_atom_site_fract_x
_atom_site_fract_y
_atom_site_fract_z
W1 W -0.22172(4) -0.43104(2) -0.08198(2)
Cu1 Cu -0.13933(13) -0.41636(7) 0.10224(7)
Cu2 Cu -0.17098(14) -0.59900(7) -0.06428(8)
S1 S -0.0640(3) -0.33051(14) -0.01374(16)
S2 S 0.0983(3) -0.48876(15) 0.17946(14)
S3 S -0.3035(2) -0.51446(14) 0.02792(15)
S4 S -0.4201(4) -0.3747(2) -0.1553(2)
N1 N -0.7574(8) -0.6295(5) 0.7915(5)
N2 N -0.5763(8) -0.6428(4) 0.6947(4)
N3 N 0.3005(9) -0.3002(4) 0.1020(5)
N4 N 0.4926(8) -0.2062(5) 0.1098(5)
C1 C 0.2781(11) -0.2437(5) 0.1703(6)
H1 H 0.1947 -0.2451 0.2075
C2 C 0.3945(12) -0.1861(6) 0.1755(7)
H2 H 0.4064 -0.1407 0.2162
C3 C 0.4318(10) -0.2750(6) 0.0674(6)
H3 H 0.4759 -0.3021 0.0193
C4 C 0.6279(11) -0.1554(6) 0.0836(8)
H4 H 0.6853 -0.1869 0.0404
H5 H 0.7013 -0.1434 0.1381
C5 C 0.5671(10) -0.0737(6) 0.0398(7)
C6 C 0.5643(12) -0.0010(6) 0.0903(7)
H6 H 0.6065 -0.0009 0.1520
C7 C 0.5009(13) -0.0726(6) -0.0504(7)
H7 H 0.4996 -0.1218 -0.0854
C8 C -0.7929(10) -0.6970(6) 0.7354(6)
H8 H -0.8814 -0.7318 0.7378
C9 C -0.6822(10) -0.7065(6) 0.6760(6)
H9 H -0.6791 -0.7482 0.6312
C10 C -0.6276(10) -0.5962(6) 0.7640(5)
H10 H -0.5778 -0.5475 0.7885
C11 C -0.4335(9) -0.6234(6) 0.6474(6)
H11 H -0.3946 -0.6751 0.6217
H12 H -0.3498 -0.6018 0.6923
C12 C -0.4678(9) -0.5595(5) 0.5712(5)
C13 C -0.4257(11) -0.4761(6) 0.5850(6)
H13 H -0.3752 -0.4589 0.6419
C14 C -0.5414(12) -0.5829(6) 0.4861(6)
H14 H -0.5700 -0.6391 0.4756
W1B W 0.22172(4) -0.56896(2) 0.08198(2)
Cu1B Cu -0.86067(13) -0.58364(7) 0.89776(7)
Cu1B_2 Cu 0.13933(13) -0.58364(7) -0.10224(7)
Cu2B Cu 0.17098(14) -0.40100(7) 0.06428(8)
Cu2_2 Cu 0.82902(14) 0.40100(7) -0.06428(8)
S1B S 0.0640(3) -0.66949(14) 0.01374(16)
S2B S -0.0983(3) -0.51124(15) -0.17946(14)
S3B S 0.3035(2) -0.48554(14) -0.02792(15)
S4B S 0.4201(4) -0.6253(2) 0.1553(2)
N1B N -0.2426(8) -0.3705(5) 0.2085(5)
N1_2 N 0.2426(8) -0.6295(5) -0.2085(5)
N2B N -0.4237(8) -0.3572(4) 0.3053(4)
N3B N -0.3005(9) -0.6998(4) -0.1020(5)
N3B_2 N 0.6995(9) 0.3002(4) -0.1020(5)
N4B N 0.5074(8) 0.2062(5) -0.1098(5)
C1B C 0.7219(11) 0.2437(5) -0.1703(6)
H1B H 0.8053 0.2451 -0.2075
C2B C 0.6055(12) 0.1861(6) -0.1755(7)
H2B H 0.5936 0.1407 -0.2162
C3B C 0.5682(10) 0.2750(6) -0.0674(6)
H3B H 0.5241 0.3021 -0.0193
C4B C 0.3721(11) 0.1554(6) -0.0836(8)
H4B H 0.3147 0.1869 -0.0404
H5B H 0.2987 0.1434 -0.1381
C5B C 0.4329(10) 0.0737(6) -0.0398(7)
C6B C 0.4357(12) 0.0010(6) -0.0903(7)
H6B H 0.3935 0.0009 -0.1520
C7B C 0.4991(13) 0.0726(6) 0.0504(7)
H7B H 0.5004 0.1218 0.0854
C8B C -0.2071(10) -0.3030(6) 0.2646(6)
H8B H -0.1186 -0.2682 0.2622
C9B C -0.3178(10) -0.2935(6) 0.3240(6)
H9B H -0.3209 -0.2518 0.3688
C10B C -0.3724(10) -0.4038(6) 0.2360(5)
H10B H -0.4222 -0.4525 0.2115
C11B C -0.5665(9) -0.3766(6) 0.3526(6)
H11B H -0.6054 -0.3249 0.3783
H12B H -0.6502 -0.3982 0.3077
C12B C -0.5322(9) -0.4405(5) 0.4288(5)
C13B C -0.5743(11) -0.5239(6) 0.4150(6)
H13B H -0.6248 -0.5411 0.3581
C14B C -0.4586(12) -0.4171(6) 0.5139(6)
H14B H -0.4300 -0.3609 0.5244
loop_
_geom_bond_atom_site_label_1
_geom_bond_atom_site_label_2
_geom_bond_site_symmetry_1
_geom_bond_site_symmetry_2
W1 S1 1_555 1_555
Cu1 S1 1_555 1_555
Cu2 S3 1_555 1_555
S1 Cu2B 1_555 1_555
S2 Cu1 1_555 1_555
S3 W1 1_555 1_555
S4 W1 1_555 1_555
N1 C8 1_555 1_555
N2 C9 1_555 1_555
N3 C1 1_555 1_555
N4 C2 1_555 1_555
C1 H1 1_555 1_555
C2 C1 1_555 1_555
H2 C2 1_555 1_555
C3 N3 1_555 1_555
H3 C3 1_555 1_555
C4 N4 1_555 1_555
H4 C4 1_555 1_555
H5 C4 1_555 1_555
C5 C4 1_555 1_555
C6 C5 1_555 1_555
H6 C6 1_555 1_555
C7 C5 1_555 1_555
H7 C7 1_555 1_555
C8 H8 1_555 1_555
C9 C8 1_555 1_555
H9 C9 1_555 1_555
C10 N1 1_555 1_555
H10 C10 1_555 1_555
C11 N2 1_555 1_555
H11 C11 1_555 1_555
H12 C11 1_555 1_555
C12 C11 1_555 1_555
C13 C12 1_555 1_555
H13 C13 1_555 1_555
C14 C12 1_555 1_555
H14 C14 1_555 1_555
W1B S2 1_555 1_555
Cu1B N1 1_555 1_555
Cu1B_2 S1B 1_555 1_555
Cu2B S2 1_555 1_555
Cu2_2 N3B_2 1_555 1_555
S1B Cu2 1_555 1_555
S2B W1 1_555 1_555
S3B W1B 1_555 1_555
S4B W1B 1_555 1_555
N1B Cu1 1_555 1_555
N1_2 Cu1B_2 1_555 1_555
N2B C9B 1_555 1_555
N3B Cu2 1_555 1_555
N3B_2 C1B 1_555 1_555
N4B C2B 1_555 1_555
C1B H1B 1_555 1_555
C2B C1B 1_555 1_555
H2B C2B 1_555 1_555
C3B N3B_2 1_555 1_555
H3B C3B 1_555 1_555
C4B N4B 1_555 1_555
H4B C4B 1_555 1_555
H5B C4B 1_555 1_555
C5B C4B 1_555 1_555
C6B C7 1_555 1_555
H6B C6B 1_555 1_555
C7B C6 1_555 1_555
H7B C7B 1_555 1_555
C8B N1B 1_555 1_555
H8B C8B 1_555 1_555
C9B C8B 1_555 1_555
H9B C9B 1_555 1_555
C10B N1B 1_555 1_555
H10B C10B 1_555 1_555
C11B N2B 1_555 1_555
H11B C11B 1_555 1_555
H12B C11B 1_555 1_555
C12B C11B 1_555 1_555
C13B C14 1_555 1_555
H13B C13B 1_555 1_555
C14B C13 1_555 1_555
H14B C14B 1_555 1_555
Cu1 S3 1_555 1_555
Cu2 S2B 1_555 1_555
N2 C10 1_555 1_555
N3 Cu2B 1_555 1_555
N4 C3 1_555 1_555
W1B S1B 1_555 1_555
Cu1B_2 S2B 1_555 1_555
Cu1B_2 S3B 1_555 1_555
Cu2B S3B 1_555 1_555
N2B C10B 1_555 1_555
N4B C3B 1_555 1_555
C5B C6B 1_555 1_555
C5B C7B 1_555 1_555
C12B C13B 1_555 1_555
C12B C14B 1_555 1_555

#END
