
#######################################################################
#
#                 Cambridge Crystallographic Data Centre
#                                CCDC 
#
#######################################################################
#
# If this CIF has been generated from an entry in the Cambridge 
# Structural Database, then it will include bibliographic, chemical, 
# crystal, experimental, refinement or atomic coordinate data resulting 
# from the CCDC's data processing and validation procedures.
#
#######################################################################

data_QEVQIR
_symmetry_cell_setting           monoclinic
_symmetry_space_group_name_H-M   'C 2/c'
_symmetry_Int_Tables_number      15
_space_group_name_Hall           '-C 2yn'
loop_
_symmetry_equiv_pos_site_id
_symmetry_equiv_pos_as_xyz
1 x,y,z
2 -x,y,1/2-z
3 1/2+x,1/2+y,z
4 1/2-x,1/2+y,1/2-z
5 -x,-y,-z
6 x,-y,1/2+z
7 1/2-x,1/2-y,-z
8 1/2+x,1/2-y,1/2+z
_cell_length_a                   14.5252(7)
_cell_length_b                   12.1916(8)
_cell_length_c                   8.6850(8)
_cell_angle_alpha                90
_cell_angle_beta                 97.460(6)
_cell_angle_gamma                90
_cell_volume                     1524.97
loop_
_atom_site_label
_atom_site_type_symbol
_atom_site_fract_x
_atom_site_fract_y
_atom_site_fract_z
Zn1 Zn 0.00000 0.13932(9) 0.2500
O1 O 0.0790(3) 0.0048(4) 0.1699(4)
O2 O 0.0677(3) -0.1153(3) -0.0248(4)
N1 N 0.1972(3) 0.3670(5) 0.1116(6)
N2 N 0.1045(3) 0.2497(4) 0.2068(6)
C1 C 0.0427(4) -0.0319(5) 0.0413(6)
C2 C 0.1132(4) 0.3185(5) 0.0931(7)
C3 C 0.1866(4) 0.2550(6) 0.3023(7)
C4 C 0.2443(5) 0.3281(5) 0.2479(8)
C5 C 0.2310(5) 0.4477(6) 0.0091(9)
C6 C 0.0421(5) 0.3367(6) -0.0445(9)
H1 H 0.20130 0.21300 0.39440
H2 H 0.30470 0.34840 0.29420
H3 H 0.24800 0.41090 -0.08340
H4 H 0.28560 0.48480 0.06370
H5 H 0.18220 0.50180 -0.02190
H6 H -0.01520 0.29790 -0.02960
H7 H 0.06550 0.30880 -0.13790
H8 H 0.02930 0.41540 -0.05660
C1D C -0.0427(4) 0.0319(5) -0.0413(6)
O1D O -0.0790(3) -0.0048(4) -0.1699(4)
O2D O -0.0677(3) 0.1153(3) 0.0248(4)
N1A N -0.1972(3) 0.3670(5) 0.3884(6)
N2A N -0.1045(3) 0.2497(4) 0.2932(6)
C2A C -0.1132(4) 0.3185(5) 0.4069(7)
C3A C -0.1866(4) 0.2550(6) 0.1977(7)
C4A C -0.2443(5) 0.3281(5) 0.2521(8)
C5A C -0.2310(5) 0.4477(6) 0.4909(9)
C6A C -0.0421(5) 0.3367(6) 0.5445(9)
H1A H -0.20130 0.21300 0.10560
H2A H -0.30470 0.34840 0.20580
H3A H -0.24800 0.41090 0.58340
H4A H -0.28560 0.48480 0.43630
H5A H -0.18220 0.50180 0.52190
H6A H 0.01520 0.29790 0.52960
H7A H -0.06550 0.30880 0.63790
H8A H -0.02930 0.41540 0.55660
O1A O -0.0790(3) 0.0048(4) 0.3301(4)
O2E O 0.0677(3) 0.1153(3) 0.4752(4)
Zn1D Zn 0.00000 -0.13932(9) -0.2500
loop_
_geom_bond_atom_site_label_1
_geom_bond_atom_site_label_2
_geom_bond_site_symmetry_1
_geom_bond_site_symmetry_2
Zn1 O1 1_555 1_555
O1 C1 1_555 1_555
O2 C1 1_555 1_555
N1 C2 1_555 1_555
N2 Zn1 1_555 1_555
C1 C1D 1_555 1_555
C2 N2 1_555 1_555
C3 N2 1_555 1_555
C4 N1 1_555 1_555
C5 N1 1_555 1_555
C6 C2 1_555 1_555
H1 C3 1_555 1_555
H2 C4 1_555 1_555
H3 C5 1_555 1_555
H4 C5 1_555 1_555
H5 C5 1_555 1_555
H6 C6 1_555 1_555
H7 C6 1_555 1_555
H8 C6 1_555 1_555
C1D O1D 1_555 1_555
O1D Zn1D 1_555 1_555
O2D Zn1 1_555 1_555
N1A C2A 1_555 1_555
N2A Zn1 1_555 1_555
C2A N2A 1_555 1_555
C3A N2A 1_555 1_555
C4A N1A 1_555 1_555
C5A N1A 1_555 1_555
C6A C2A 1_555 1_555
H1A C3A 1_555 1_555
H2A C4A 1_555 1_555
H3A C5A 1_555 1_555
H4A C5A 1_555 1_555
H5A C5A 1_555 1_555
H6A C6A 1_555 1_555
H7A C6A 1_555 1_555
H8A C6A 1_555 1_555
O1A Zn1 1_555 1_555
O2E Zn1 1_555 1_555
Zn1D O2 1_555 1_555
C3 C4 1_555 1_555
C1D O2D 1_555 1_555
C3A C4A 1_555 1_555

#END
