
#######################################################################
#
#                 Cambridge Crystallographic Data Centre
#                                CCDC 
#
#######################################################################
#
# If this CIF has been generated from an entry in the Cambridge 
# Structural Database, then it will include bibliographic, chemical, 
# crystal, experimental, refinement or atomic coordinate data resulting 
# from the CCDC's data processing and validation procedures.
#
#######################################################################

data_QEWBAV
_symmetry_cell_setting           orthorhombic
_symmetry_space_group_name_H-M   'P n n m'
_symmetry_Int_Tables_number      58
_space_group_name_Hall           '-P 2 2n'
loop_
_symmetry_equiv_pos_site_id
_symmetry_equiv_pos_as_xyz
1 x,y,z
2 -x,-y,z
3 1/2+x,1/2-y,1/2-z
4 1/2-x,1/2+y,1/2-z
5 -x,-y,-z
6 x,y,-z
7 1/2-x,1/2+y,1/2+z
8 1/2+x,1/2-y,1/2+z
_cell_length_a                   11.649(2)
_cell_length_b                   11.860(2)
_cell_length_c                   7.944(2)
_cell_angle_alpha                90
_cell_angle_beta                 90
_cell_angle_gamma                90
_cell_volume                     1097.52
loop_
_atom_site_label
_atom_site_type_symbol
_atom_site_fract_x
_atom_site_fract_y
_atom_site_fract_z
Cu1 Cu 0.2015(1) 0.3191(1) 0.0000
Fe1 Fe 0.5000 0.0000 0.0000
O1 O 0.4479(4) 0.6464(4) -0.1021(8)
O2 O -0.1283(6) 0.0584(5) 0.1105(9)
N1 N 0.3297(3) 0.1984(3) 0.0000
N2 N 0.1357(2) 0.3809(2) 0.2221(3)
N3 N 0.3189(3) 0.4444(3) 0.0000
N4 N 0.0857(3) 0.1936(3) 0.0000
C1 C 0.3920(3) 0.1226(3) 0.0000
C2 C 0.0855(2) 0.4256(2) 0.3276(4)
C3 C 0.2762(5) 0.5603(4) 0.0000
C4 C 0.3631(8) 0.6498(5) 0.0000
C5 C -0.0373(4) 0.2212(5) 0.0000
C6 C -0.1142(6) 0.1196(8) 0.0000
N2E N 0.1357(2) 0.3809(2) -0.2221(3)
C1A C 0.6080(3) -0.1226(3) 0.0000
C2B C 0.5855(2) 0.0744(2) 0.1724(4)
C2C C 0.4145(2) -0.0744(2) 0.1724(4)
C2F C 0.4145(2) -0.0744(2) -0.1724(4)
C2G C 0.5855(2) 0.0744(2) -0.1724(4)
O1E O 0.4479(4) 0.6464(4) 0.1021(8)
O2E O -0.1283(6) 0.0584(5) -0.1105(9)
Fe1B Fe 0.0000 0.5000 0.5000
loop_
_geom_bond_atom_site_label_1
_geom_bond_atom_site_label_2
_geom_bond_site_symmetry_1
_geom_bond_site_symmetry_2
Cu1 N1 1_555 1_555
Fe1 C1 1_555 1_555
O1 C4 1_555 1_555
O2 C6 1_555 1_555
N1 C1 1_555 1_555
N2 Cu1 1_555 1_555
N3 Cu1 1_555 1_555
N4 Cu1 1_555 1_555
C2 N2 1_555 1_555
C3 N3 1_555 1_555
C4 C3 1_555 1_555
C5 N4 1_555 1_555
C6 C5 1_555 1_555
N2E Cu1 1_555 1_555
C1A Fe1 1_555 1_555
C2B Fe1 1_555 1_555
C2C Fe1 1_555 1_555
C2F Fe1 1_555 1_555
C2G Fe1 1_555 1_555
O1E O1 1_555 1_555
O2E O2 1_555 1_555
Fe1B C2 1_555 1_555
C4 O1E 1_555 1_555
C6 O2E 1_555 1_555

#END
