
#######################################################################
#
#                 Cambridge Crystallographic Data Centre
#                                CCDC 
#
#######################################################################
#
# If this CIF has been generated from an entry in the Cambridge 
# Structural Database, then it will include bibliographic, chemical, 
# crystal, experimental, refinement or atomic coordinate data resulting 
# from the CCDC's data processing and validation procedures.
#
#######################################################################

data_QEWFUU
_symmetry_cell_setting           monoclinic
_symmetry_space_group_name_H-M   'C 2/m'
_symmetry_Int_Tables_number      12
_space_group_name_Hall           '-C 2y'
loop_
_symmetry_equiv_pos_site_id
_symmetry_equiv_pos_as_xyz
1 x,y,z
2 1/2+x,1/2+y,z
3 -x,y,-z
4 1/2-x,1/2+y,-z
5 -x,-y,-z
6 1/2-x,1/2-y,-z
7 x,-y,z
8 1/2+x,1/2-y,z
_cell_length_a                   9.5517(12)
_cell_length_b                   15.1144(18)
_cell_length_c                   10.5110(13)
_cell_angle_alpha                90
_cell_angle_beta                 113.722(2)
_cell_angle_gamma                90
_cell_volume                     1389.24
loop_
_atom_site_label
_atom_site_type_symbol
_atom_site_fract_x
_atom_site_fract_y
_atom_site_fract_z
C1 C 0.5789(19) -0.3852(10) 0.7060(14)
N1 N 0.620(3) -0.3825(13) 0.8272(16)
Cu1 Cu 0.6001(3) 0.0000 0.76872(19)
N2 N 0.6549(17) -0.1089(8) 0.6666(12)
C2 C 0.6936(18) -0.1626(9) 0.6104(14)
N3 N 0.382(2) 0.0000 0.6323(16)
N4 N 0.815(2) 0.0000 0.908(2)
N5 N 0.5360(15) -0.0886(8) 0.9041(11)
C3 C 0.5000 -0.0480(11) 1.0000
C4 C 0.536(2) -0.1811(11) 0.9028(18)
H1 H 0.5587 -0.2127 0.8379
C5 C 0.5000 -0.2226(16) 1.0000
H2 H 0.5000 -0.2841 1.0000
Au1 Au 0.5000 -0.38531(5) 0.5000
Au2 Au 0.7500 -0.2500 0.5000
C1B C 0.4211(19) -0.3852(10) 0.2940(14)
C1F C 0.5789(19) 0.3852(10) 0.7060(14)
C1D C 0.4211(19) 0.3852(10) 0.2940(14)
N1B N 0.380(3) -0.3825(13) 0.1728(16)
N1F N 0.620(3) 0.3825(13) 0.8272(16)
N1D N 0.380(3) 0.3825(13) 0.1728(16)
Cu1D Cu 0.3999(3) 0.0000 1.23128(19)
Cu1E Cu 0.8999(3) -0.5000 0.23128(19)
N2F N 0.6549(17) 0.1089(8) 0.6666(12)
N2E N 0.8451(17) -0.3911(8) 0.3334(12)
N2B N 0.3451(17) -0.1089(8) 1.3334(12)
N2D N 0.3451(17) 0.1089(8) 1.3334(12)
C2F C 0.6936(18) 0.1626(9) 0.6104(14)
C2E C 0.8064(18) -0.3374(9) 0.3896(14)
C2B C 0.3064(18) -0.1626(9) 1.3896(14)
C2C C 0.8064(18) 0.3374(9) 0.3896(14)
N3D N 0.618(2) 0.0000 1.3677(16)
N4D N 0.185(2) 0.0000 1.092(2)
N5B N 0.4640(15) -0.0886(8) 1.0959(11)
N5F N 0.5360(15) 0.0886(8) 0.9041(11)
N5D N 0.4640(15) 0.0886(8) 1.0959(11)
C3F C 0.5000 0.0480(11) 1.0000
C4B C 0.464(2) -0.1811(11) 1.0972(18)
C4F C 0.536(2) 0.1811(11) 0.9028(18)
C4D C 0.464(2) 0.1811(11) 1.0972(18)
H1B H 0.4413 -0.2127 1.1621
H1F H 0.5587 0.2127 0.8379
H1D H 0.4413 0.2127 1.1621
C5F C 0.5000 0.2226(16) 1.0000
H2F H 0.5000 0.2841 1.0000
Au1F Au 0.5000 0.38531(5) 0.5000
Au1G Au 1.0000 -0.11469(5) 0.5000
Au1A Au 1.0000 0.11469(5) 0.5000
Au2F Au 0.7500 0.2500 0.5000
Au2G Au 0.2500 -0.2500 0.5000
Au2G_2 Au 0.2500 -0.2500 1.5000
Au2A Au 0.2500 0.2500 0.5000
loop_
_geom_bond_atom_site_label_1
_geom_bond_atom_site_label_2
_geom_bond_site_symmetry_1
_geom_bond_site_symmetry_2
C1 N1 1_555 1_555
Cu1 N2 1_555 1_555
N2 C2 1_555 1_555
C2 Au2 1_555 1_555
N3 Cu1 1_555 1_555
N4 Cu1 1_555 1_555
N5 Cu1 1_555 1_555
C3 N5 1_555 1_555
C4 N5 1_555 1_555
H1 C4 1_555 1_555
C5 C4 1_555 1_555
H2 C5 1_555 1_555
Au1 C1 1_555 1_555
Au2 Au1 1_555 1_555
C1B Au1 1_555 1_555
C1F N1F 1_555 1_555
C1D N1D 1_555 1_555
N1B C1B 1_555 1_555
Cu1D N2B 1_555 1_555
Cu1E N2E 1_555 1_555
N2F Cu1 1_555 1_555
N2E C2E 1_555 1_555
N2B C2B 1_555 1_555
N2D Cu1D 1_555 1_555
C2F N2F 1_555 1_555
C2E Au2 1_555 1_555
C2B Au2G_2 1_555 1_555
C2C Au2F 1_555 1_555
N3D Cu1D 1_555 1_555
N4D Cu1D 1_555 1_555
N5B C3 1_555 1_555
N5F Cu1 1_555 1_555
N5D Cu1D 1_555 1_555
C3F C3 1_555 1_555
C4B C5 1_555 1_555
C4F N5F 1_555 1_555
C4D N5D 1_555 1_555
H1B C4B 1_555 1_555
H1F C4F 1_555 1_555
H1D C4D 1_555 1_555
C5F C4F 1_555 1_555
H2F C5F 1_555 1_555
Au1F C1F 1_555 1_555
Au1G Au2 1_555 1_555
Au1A Au2F 1_555 1_555
Au2F C2F 1_555 1_555
Au2G Au1 1_555 1_555
Au2A Au1F 1_555 1_555
C1D Au1F 1_555 1_555
Cu1D N5B 1_555 1_555
N5B C4B 1_555 1_555
N5F C3F 1_555 1_555
N5D C3F 1_555 1_555
C4D C5F 1_555 1_555
Au1F Au2F 1_555 1_555

#END
