
#######################################################################
#
#                 Cambridge Crystallographic Data Centre
#                                CCDC 
#
#######################################################################
#
# If this CIF has been generated from an entry in the Cambridge 
# Structural Database, then it will include bibliographic, chemical, 
# crystal, experimental, refinement or atomic coordinate data resulting 
# from the CCDC's data processing and validation procedures.
#
#######################################################################

data_QEWFII
_symmetry_cell_setting           monoclinic
_symmetry_space_group_name_H-M   'C 2/m'
_symmetry_Int_Tables_number      12
_space_group_name_Hall           '-C 2y'
loop_
_symmetry_equiv_pos_site_id
_symmetry_equiv_pos_as_xyz
1 x,y,z
2 1/2+x,1/2+y,z
3 -x,y,-z
4 1/2-x,1/2+y,-z
5 -x,-y,-z
6 1/2-x,1/2-y,-z
7 x,-y,z
8 1/2+x,1/2-y,z
_cell_length_a                   9.6165(13)
_cell_length_b                   15.040(2)
_cell_length_c                   10.4448(14)
_cell_angle_alpha                90
_cell_angle_beta                 111.160(2)
_cell_angle_gamma                90
_cell_volume                     1408.8
loop_
_atom_site_label
_atom_site_type_symbol
_atom_site_fract_x
_atom_site_fract_y
_atom_site_fract_z
Co1 Co 0.59812(9) 0.0000 0.27017(9)
N1 N 0.6518(5) -0.1044(3) 0.1629(4)
C1 C 0.6882(5) -0.1595(3) 0.1069(5)
N2 N 0.5382(5) -0.0892(2) 0.4040(4)
N3 N 0.3698(6) 0.0000 0.1350(7)
N4 N 0.8224(7) 0.0000 0.4108(7)
C2 C 0.5000 -0.0493(4) 0.5000
C3 C 0.5366(7) -0.1786(3) 0.4047(6)
H1 H 0.5612 -0.2093 0.3385
C4 C 0.5000 -0.2255(5) 0.5000
H2 H 0.5000 -0.2874 0.5000
C5 C 0.9196(7) -0.1172(4) -0.2061(7)
N5 N 0.8746(7) -0.1184(3) -0.3224(6)
Au1 Au 1.0000 -0.115873(18) 0.0000
Au2 Au 0.7500 -0.2500 0.0000
Co1D Co 0.40188(9) 0.0000 0.72983(9)
Co1E Co 0.90188(9) -0.5000 -0.27017(9)
N1F N 0.6518(5) 0.1044(3) 0.1629(4)
N1E N 0.8482(5) -0.3956(3) -0.1629(4)
N1B N 0.3482(5) -0.1044(3) 0.8371(4)
N1D N 0.3482(5) 0.1044(3) 0.8371(4)
C1F C 0.6882(5) 0.1595(3) 0.1069(5)
C1E C 0.8118(5) -0.3405(3) -0.1069(5)
C1B C 0.3118(5) -0.1595(3) 0.8931(5)
C1C C 0.8118(5) 0.3405(3) -0.1069(5)
N2B N 0.4618(5) -0.0892(2) 0.5960(4)
N2F N 0.5382(5) 0.0892(2) 0.4040(4)
N2D N 0.4618(5) 0.0892(2) 0.5960(4)
N3D N 0.6302(6) 0.0000 0.8650(7)
N4D N 0.1776(7) 0.0000 0.5892(7)
C2F C 0.5000 0.0493(4) 0.5000
C3B C 0.4634(7) -0.1786(3) 0.5953(6)
C3F C 0.5366(7) 0.1786(3) 0.4047(6)
C3D C 0.4634(7) 0.1786(3) 0.5953(6)
H1B H 0.4388 -0.2093 0.6615
H1F H 0.5612 0.2093 0.3385
H1D H 0.4388 0.2093 0.6615
C4F C 0.5000 0.2255(5) 0.5000
H2F H 0.5000 0.2874 0.5000
C5B C 1.0804(7) -0.1172(4) 0.2061(7)
C5F C 0.9196(7) 0.1172(4) -0.2061(7)
C5D C 1.0804(7) 0.1172(4) 0.2061(7)
N5B N 1.1254(7) -0.1184(3) 0.3224(6)
N5F N 0.8746(7) 0.1184(3) -0.3224(6)
N5D N 1.1254(7) 0.1184(3) 0.3224(6)
Au1F Au 1.0000 0.115873(18) 0.0000
Au1G Au 0.5000 -0.384127(18) 0.0000
Au1A Au 0.5000 0.384127(18) 0.0000
Au2F Au 0.7500 0.2500 0.0000
Au2G Au 1.2500 -0.2500 0.0000
Au2G_2 Au 0.2500 -0.2500 1.0000
Au2A Au 1.2500 0.2500 0.0000
loop_
_geom_bond_atom_site_label_1
_geom_bond_atom_site_label_2
_geom_bond_site_symmetry_1
_geom_bond_site_symmetry_2
Co1 N1 1_555 1_555
N1 C1 1_555 1_555
C1 Au2 1_555 1_555
N2 Co1 1_555 1_555
N3 Co1 1_555 1_555
N4 Co1 1_555 1_555
C2 N2 1_555 1_555
C3 N2 1_555 1_555
H1 C3 1_555 1_555
C4 C3 1_555 1_555
H2 C4 1_555 1_555
C5 N5 1_555 1_555
Au1 C5 1_555 1_555
Au2 Au1 1_555 1_555
Co1D N1B 1_555 1_555
Co1E N1E 1_555 1_555
N1F Co1 1_555 1_555
N1E C1E 1_555 1_555
N1B C1B 1_555 1_555
N1D Co1D 1_555 1_555
C1F N1F 1_555 1_555
C1E Au2 1_555 1_555
C1B Au2G_2 1_555 1_555
C1C Au2F 1_555 1_555
N2B C2 1_555 1_555
N2F Co1 1_555 1_555
N2D Co1D 1_555 1_555
N3D Co1D 1_555 1_555
N4D Co1D 1_555 1_555
C2F C2 1_555 1_555
C3B C4 1_555 1_555
C3F N2F 1_555 1_555
C3D N2D 1_555 1_555
H1B C3B 1_555 1_555
H1F C3F 1_555 1_555
H1D C3D 1_555 1_555
C4F C3F 1_555 1_555
H2F C4F 1_555 1_555
C5B Au1 1_555 1_555
C5F N5F 1_555 1_555
C5D N5D 1_555 1_555
N5B C5B 1_555 1_555
Au1F C5F 1_555 1_555
Au1G Au2 1_555 1_555
Au1A Au2F 1_555 1_555
Au2F C1F 1_555 1_555
Au2G Au1 1_555 1_555
Au2A Au1F 1_555 1_555
Co1D N2B 1_555 1_555
N2B C3B 1_555 1_555
N2F C2F 1_555 1_555
N2D C2F 1_555 1_555
C3D C4F 1_555 1_555
C5D Au1F 1_555 1_555
Au1F Au2F 1_555 1_555

#END
