
#######################################################################
#
#                 Cambridge Crystallographic Data Centre
#                                CCDC 
#
#######################################################################
#
# If this CIF has been generated from an entry in the Cambridge 
# Structural Database, then it will include bibliographic, chemical, 
# crystal, experimental, refinement or atomic coordinate data resulting 
# from the CCDC's data processing and validation procedures.
#
#######################################################################

data_QEWLOU
_symmetry_cell_setting           triclinic
_symmetry_space_group_name_H-M   'P -1'
_symmetry_Int_Tables_number      2
_space_group_name_Hall           '-P 1'
loop_
_symmetry_equiv_pos_site_id
_symmetry_equiv_pos_as_xyz
1 x,y,z
2 -x,-y,-z
_cell_length_a                   10.020(2)
_cell_length_b                   14.036(2)
_cell_length_c                   17.476(3)
_cell_angle_alpha                69.20(2)
_cell_angle_beta                 82.52(2)
_cell_angle_gamma                72.44(2)
_cell_volume                     2189.85
loop_
_atom_site_label
_atom_site_type_symbol
_atom_site_fract_x
_atom_site_fract_y
_atom_site_fract_z
La1 La 0.25959(9) 0.19785(7) 0.21100(6)
C1 C 0.4269(14) -0.0426(12) 0.1634(10)
O1 O 0.3328(8) 0.0437(7) 0.1642(6)
C2 C 0.5185(12) -0.0993(9) 0.2289(9)
H1 H 0.5136 -0.0748 0.2725
C3 C 0.6187(14) -0.1945(12) 0.2271(10)
H2 H 0.6789 -0.2330 0.2706
C4 C 0.6295(15) -0.2319(12) 0.1623(12)
H3 H 0.6973 -0.2939 0.1617
C5 C 0.5372(15) -0.1753(11) 0.0980(10)
H4 H 0.5441 -0.1994 0.0541
C6 C 0.4362(14) -0.0842(11) 0.0987(10)
C7 C 0.3418(16) -0.0387(11) 0.0352(10)
H5 H 0.3593 -0.0678 -0.0065
N1 N 0.2356(13) 0.0381(10) 0.0295(7)
H6 H 0.2189 0.0664 0.0674
C8 C 0.1369(15) 0.0830(11) -0.0389(9)
H7 H 0.1775 0.0539 -0.0821
H8 H 0.1212 0.1593 -0.0612
C9 C -0.0063(15) 0.0567(9) -0.0088(9)
H9 H -0.0387 0.0749 0.0404
H10 H -0.0754 0.0995 -0.0505
C10 C 0.0398(12) 0.3671(13) 0.3173(10)
O2 O 0.0839(8) 0.2855(7) 0.2926(6)
C11 C 0.0162(10) 0.4694(12) 0.2601(11)
H11 H 0.0348 0.4762 0.2051
C12 C -0.0326(13) 0.5602(14) 0.2797(14)
H12 H -0.0445 0.6261 0.2390
C13 C -0.0631(18) 0.554(2) 0.3580(18)
H13 H -0.0991 0.6145 0.3724
C14 C -0.0394(18) 0.4535(19) 0.4174(14)
H14 H -0.0582 0.4470 0.4723
C15 C 0.0140(14) 0.3596(14) 0.3944(13)
C16 C 0.0399(18) 0.2617(17) 0.4629(12)
H15 H 0.0156 0.2633 0.5158
N2 N 0.0959(13) 0.1727(13) 0.4514(9)
H16 H 0.1103 0.1746 0.4014
C17 C 0.1372(16) 0.0703(14) 0.5130(11)
H17 H 0.1038 0.0770 0.5660
H18 H 0.2387 0.0462 0.5139
C18 C 0.0822(11) -0.0142(12) 0.5006(10)
H19 H 0.1161 -0.0809 0.5442
H20 H 0.1207 -0.0243 0.4492
C19 C 0.3363(10) 0.4433(12) 0.2038(11)
O3 O 0.3207(9) 0.3670(7) 0.1831(5)
C20 C 0.3555(9) 0.4322(13) 0.2836(11)
H21 H 0.3572 0.3685 0.3255
C21 C 0.3714(11) 0.5145(15) 0.2999(11)
H22 H 0.3849 0.5057 0.3539
C22 C 0.3689(12) 0.6153(14) 0.2386(12)
H23 H 0.3784 0.6718 0.2515
C23 C 0.3528(13) 0.6227(13) 0.1644(12)
H24 H 0.3546 0.6863 0.1232
C24 C 0.3318(12) 0.5383(14) 0.1401(11)
C25 C 0.3127(13) 0.5596(11) 0.0572(11)
H25 H 0.3070 0.6280 0.0215
N3 N 0.3025(10) 0.4909(9) 0.0272(8)
H26 H 0.3122 0.4286 0.0629
C26 C 0.2778(13) 0.4971(10) -0.0555(9)
H27 H 0.3441 0.4379 -0.0683
H28 H 0.1843 0.4914 -0.0572
C27 C 0.2930(13) 0.6002(10) -0.1194(9)
H29 H 0.3846 0.6086 -0.1163
H30 H 0.2224 0.6598 -0.1098
C28 C 0.2756(14) 0.5965(10) -0.2027(9)
H31 H 0.3455 0.5348 -0.2096
H32 H 0.1845 0.5859 -0.2032
C29 C 0.1975(14) 0.8661(12) -0.2626(9)
H33 H 0.2882 0.8601 -0.2508
N4 N 0.1729(10) 0.7886(10) -0.2737(7)
H34 H 0.0879 0.7913 -0.2798
C30 C 0.2874(13) 0.6930(10) -0.2766(9)
H35 H 0.2819 0.6793 -0.3266
H36 H 0.3774 0.7058 -0.2769
C31 C 0.0912(18) 0.9621(11) -0.2675(8)
C32 C 0.1351(18) 1.0435(16) -0.2593(9)
H37 H 0.2281 1.0308 -0.2475
C33 C 0.043(2) 1.1432(16) -0.2685(10)
H38 H 0.0745 1.1972 -0.2649
C34 C -0.092(2) 1.1609(12) -0.2825(8)
H39 H -0.1537 1.2272 -0.2875
C35 C -0.1428(14) 1.0824(12) -0.2899(7)
H40 H -0.2368 1.0962 -0.3000
O4 O -0.0939(8) 0.9031(7) -0.2859(5)
C36 C -0.0479(17) 0.9806(12) -0.2815(7)
N5 N 0.0743(13) 0.3009(8) 0.0600(7)
O5 O 0.0964(10) 0.3565(8) 0.0939(7)
O6 O 0.0897(11) 0.2075(8) 0.0984(7)
O7 O 0.0083(10) 0.3387(8) -0.0054(6)
N6 N 0.5300(12) 0.2014(10) 0.1068(8)
O8 O 0.5312(9) 0.1553(8) 0.1809(6)
O9 O 0.4208(10) 0.2442(8) 0.0713(6)
O10 O 0.6424(10) 0.2010(7) 0.0654(6)
N7 N 0.4342(12) 0.0947(9) 0.3607(8)
O11 O 0.4031(15) 0.1908(10) 0.3341(9)
O12 O 0.3747(12) 0.0469(9) 0.3416(8)
O13 O 0.5440(14) 0.0443(11) 0.4022(10)
La1A La -0.25959(9) -0.19785(7) -0.21100(6)
La1A_2 La -0.25959(9) 0.80215(7) -0.21100(6)
La1A_3 La -0.25959(9) -0.19785(7) 0.78900(6)
C1A C -0.4269(14) 0.0426(12) -0.1634(10)
O1A O -0.3328(8) -0.0437(7) -0.1642(6)
C2A C -0.5185(12) 0.0993(9) -0.2289(9)
H1A H -0.5136 0.0748 -0.2725
C3A C -0.6187(14) 0.1945(12) -0.2271(10)
H2A H -0.6789 0.2330 -0.2706
C4A C -0.6295(15) 0.2319(12) -0.1623(12)
H3A H -0.6973 0.2939 -0.1617
C5A C -0.5372(15) 0.1753(11) -0.0980(10)
H4A H -0.5441 0.1994 -0.0541
C6A C -0.4362(14) 0.0842(11) -0.0987(10)
C7A C -0.3418(16) 0.0387(11) -0.0352(10)
H5A H -0.3593 0.0678 0.0065
N1A N -0.2356(13) -0.0381(10) -0.0295(7)
H6A H -0.2189 -0.0664 -0.0674
C8A C -0.1369(15) -0.0830(11) 0.0389(9)
H7A H -0.1775 -0.0539 0.0821
H8A H -0.1212 -0.1593 0.0612
C9A C 0.0063(15) -0.0567(9) 0.0088(9)
H9A H 0.0387 -0.0749 -0.0404
H10A H 0.0754 -0.0995 0.0505
C10A C -0.0398(12) -0.3671(13) 0.6827(10)
O2A O -0.0839(8) -0.2855(7) 0.7074(6)
O2A_2 O -0.0839(8) -0.2855(7) -0.2926(6)
C11A C -0.0162(10) -0.4694(12) 0.7399(11)
H11A H -0.0348 -0.4762 0.7949
C12A C 0.0326(13) -0.5602(14) 0.7203(14)
H12A H 0.0445 -0.6261 0.7610
C13A C 0.0631(18) -0.554(2) 0.6420(18)
H13A H 0.0991 -0.6145 0.6276
C14A C 0.0394(18) -0.4535(19) 0.5826(14)
H14A H 0.0582 -0.4470 0.5277
C15A C -0.0140(14) -0.3596(14) 0.6056(13)
C16A C -0.0399(18) -0.2617(17) 0.5371(12)
H15A H -0.0156 -0.2633 0.4842
N2A N -0.0959(13) -0.1727(13) 0.5486(9)
H16A H -0.1103 -0.1746 0.5986
C17A C -0.1372(16) -0.0703(14) 0.4870(11)
H17A H -0.1038 -0.0770 0.4340
H18A H -0.2387 -0.0462 0.4861
C18A C -0.0822(11) 0.0142(12) 0.4994(10)
H19A H -0.1161 0.0809 0.4558
H20A H -0.1207 0.0243 0.5508
C19A C -0.3363(10) 0.5567(12) -0.2038(11)
O3A O -0.3207(9) 0.6330(7) -0.1831(5)
O3A_2 O -0.3207(9) -0.3670(7) -0.1831(5)
C20A C -0.3555(9) 0.5678(13) -0.2836(11)
H21A H -0.3572 0.6315 -0.3255
C21A C -0.3714(11) 0.4855(15) -0.2999(11)
H22A H -0.3849 0.4943 -0.3539
C22A C -0.3689(12) 0.3847(14) -0.2386(12)
H23A H -0.3784 0.3282 -0.2515
C23A C -0.3528(13) 0.3773(13) -0.1644(12)
H24A H -0.3546 0.3137 -0.1232
C24A C -0.3318(12) 0.4617(14) -0.1401(11)
C25A C -0.3127(13) 0.4404(11) -0.0572(11)
H25A H -0.3070 0.3720 -0.0215
N3A N -0.3025(10) 0.5091(9) -0.0272(8)
H26A H -0.3122 0.5714 -0.0629
C26A C -0.2778(13) 0.5029(10) 0.0555(9)
H27A H -0.3441 0.5621 0.0683
H28A H -0.1843 0.5086 0.0572
C27A C -0.2930(13) 0.3998(10) 0.1194(9)
H29A H -0.3846 0.3914 0.1163
H30A H -0.2224 0.3402 0.1098
C28A C -0.2756(14) 0.4035(10) 0.2027(9)
H31A H -0.3455 0.4652 0.2096
H32A H -0.1845 0.4141 0.2032
C29A C -0.1975(14) 0.1339(12) 0.2626(9)
H33A H -0.2882 0.1399 0.2508
N4A N -0.1729(10) 0.2114(10) 0.2737(7)
H34A H -0.0879 0.2087 0.2798
C30A C -0.2874(13) 0.3070(10) 0.2766(9)
H35A H -0.2819 0.3207 0.3266
H36A H -0.3774 0.2942 0.2769
C31A C -0.0912(18) 0.0379(11) 0.2675(8)
C32A C -0.1351(18) -0.0435(16) 0.2593(9)
H37A H -0.2281 -0.0308 0.2475
C33A C -0.043(2) -0.1432(16) 0.2685(10)
H38A H -0.0745 -0.1972 0.2649
C34A C 0.092(2) -0.1609(12) 0.2825(8)
H39A H 0.1537 -0.2272 0.2875
C35A C 0.1428(14) -0.0824(12) 0.2899(7)
H40A H 0.2368 -0.0962 0.3000
O4A O 0.0939(8) 0.0969(7) 0.2859(5)
O4_2 O -0.0939(8) -0.0969(7) -0.2859(5)
C36A C 0.0479(17) 0.0194(12) 0.2815(7)
N5A N -0.0743(13) -0.3009(8) -0.0600(7)
O5A O -0.0964(10) -0.3565(8) -0.0939(7)
O6A O -0.0897(11) -0.2075(8) -0.0984(7)
O7A O -0.0083(10) -0.3387(8) 0.0054(6)
N6A N -0.5300(12) -0.2014(10) -0.1068(8)
O8A O -0.5312(9) -0.1553(8) -0.1809(6)
O9A O -0.4208(10) -0.2442(8) -0.0713(6)
O10A O -0.6424(10) -0.2010(7) -0.0654(6)
N7A N -0.4342(12) -0.0947(9) -0.3607(8)
O11A O -0.4031(15) -0.1908(10) -0.3341(9)
O12A O -0.3747(12) -0.0469(9) -0.3416(8)
O13A O -0.5440(14) -0.0443(11) -0.4022(10)
O14 O 0.652(3) 0.787(2) 0.446(2)
O15 O 0.484(4) 0.740(3) 0.481(3)
loop_
_geom_bond_atom_site_label_1
_geom_bond_atom_site_label_2
_geom_bond_site_symmetry_1
_geom_bond_site_symmetry_2
La1 O1 1_555 1_555
C1 O1 1_555 1_555
C2 C1 1_555 1_555
H1 C2 1_555 1_555
C3 C2 1_555 1_555
H2 C3 1_555 1_555
C4 C3 1_555 1_555
H3 C4 1_555 1_555
C5 C4 1_555 1_555
H4 C5 1_555 1_555
C6 C1 1_555 1_555
C7 C6 1_555 1_555
H5 C7 1_555 1_555
N1 C7 1_555 1_555
H6 N1 1_555 1_555
C8 N1 1_555 1_555
H7 C8 1_555 1_555
H8 C8 1_555 1_555
C9 C8 1_555 1_555
H9 C9 1_555 1_555
H10 C9 1_555 1_555
C10 O2 1_555 1_555
O2 La1 1_555 1_555
C11 C10 1_555 1_555
H11 C11 1_555 1_555
C12 C11 1_555 1_555
H12 C12 1_555 1_555
C13 C12 1_555 1_555
H13 C13 1_555 1_555
C14 C13 1_555 1_555
H14 C14 1_555 1_555
C15 C10 1_555 1_555
C16 C15 1_555 1_555
H15 C16 1_555 1_555
N2 C16 1_555 1_555
H16 N2 1_555 1_555
C17 N2 1_555 1_555
H17 C17 1_555 1_555
H18 C17 1_555 1_555
C18 C17 1_555 1_555
H19 C18 1_555 1_555
H20 C18 1_555 1_555
C19 O3 1_555 1_555
O3 La1 1_555 1_555
C20 C19 1_555 1_555
H21 C20 1_555 1_555
C21 C20 1_555 1_555
H22 C21 1_555 1_555
C22 C21 1_555 1_555
H23 C22 1_555 1_555
C23 C22 1_555 1_555
H24 C23 1_555 1_555
C24 C19 1_555 1_555
C25 C24 1_555 1_555
H25 C25 1_555 1_555
N3 C25 1_555 1_555
H26 N3 1_555 1_555
C26 N3 1_555 1_555
H27 C26 1_555 1_555
H28 C26 1_555 1_555
C27 C26 1_555 1_555
H29 C27 1_555 1_555
H30 C27 1_555 1_555
C28 C27 1_555 1_555
H31 C28 1_555 1_555
H32 C28 1_555 1_555
C29 H33 1_555 1_555
N4 C29 1_555 1_555
H34 N4 1_555 1_555
C30 C28 1_555 1_555
H35 C30 1_555 1_555
H36 C30 1_555 1_555
C31 C29 1_555 1_555
C32 C31 1_555 1_555
H37 C32 1_555 1_555
C33 C32 1_555 1_555
H38 C33 1_555 1_555
C34 C33 1_555 1_555
H39 C34 1_555 1_555
C35 C34 1_555 1_555
H40 C35 1_555 1_555
O4 C36 1_555 1_555
C36 C31 1_555 1_555
N5 O5 1_555 1_555
O5 La1 1_555 1_555
O6 La1 1_555 1_555
O7 N5 1_555 1_555
N6 O8 1_555 1_555
O8 La1 1_555 1_555
O9 La1 1_555 1_555
O10 N6 1_555 1_555
N7 O11 1_555 1_555
O11 La1 1_555 1_555
O12 La1 1_555 1_555
O13 N7 1_555 1_555
La1A O1A 1_555 1_555
La1A_2 O4 1_555 1_555
La1A_3 O2A 1_555 1_555
C1A O1A 1_555 1_555
C2A C1A 1_555 1_555
H1A C2A 1_555 1_555
C3A C2A 1_555 1_555
H2A C3A 1_555 1_555
C4A C3A 1_555 1_555
H3A C4A 1_555 1_555
C5A C4A 1_555 1_555
H4A C5A 1_555 1_555
C6A C1A 1_555 1_555
C7A C6A 1_555 1_555
H5A C7A 1_555 1_555
N1A C7A 1_555 1_555
H6A N1A 1_555 1_555
C8A N1A 1_555 1_555
H7A C8A 1_555 1_555
H8A C8A 1_555 1_555
C9A C9 1_555 1_555
H9A C9A 1_555 1_555
H10A C9A 1_555 1_555
C10A O2A 1_555 1_555
O2A_2 La1A 1_555 1_555
C11A C10A 1_555 1_555
H11A C11A 1_555 1_555
C12A C11A 1_555 1_555
H12A C12A 1_555 1_555
C13A C12A 1_555 1_555
H13A C13A 1_555 1_555
C14A C13A 1_555 1_555
H14A C14A 1_555 1_555
C15A C10A 1_555 1_555
C16A C15A 1_555 1_555
H15A C16A 1_555 1_555
N2A C16A 1_555 1_555
H16A N2A 1_555 1_555
C17A N2A 1_555 1_555
H17A C17A 1_555 1_555
H18A C17A 1_555 1_555
C18A C18 1_555 1_555
H19A C18A 1_555 1_555
H20A C18A 1_555 1_555
C19A O3A 1_555 1_555
O3A La1A_2 1_555 1_555
O3A_2 La1A 1_555 1_555
C20A C19A 1_555 1_555
H21A C20A 1_555 1_555
C21A C20A 1_555 1_555
H22A C21A 1_555 1_555
C22A C21A 1_555 1_555
H23A C22A 1_555 1_555
C23A C22A 1_555 1_555
H24A C23A 1_555 1_555
C24A C19A 1_555 1_555
C25A C24A 1_555 1_555
H25A C25A 1_555 1_555
N3A C25A 1_555 1_555
H26A N3A 1_555 1_555
C26A N3A 1_555 1_555
H27A C26A 1_555 1_555
H28A C26A 1_555 1_555
C27A C26A 1_555 1_555
H29A C27A 1_555 1_555
H30A C27A 1_555 1_555
C28A C27A 1_555 1_555
H31A C28A 1_555 1_555
H32A C28A 1_555 1_555
C29A H33A 1_555 1_555
N4A C29A 1_555 1_555
H34A N4A 1_555 1_555
C30A C28A 1_555 1_555
H35A C30A 1_555 1_555
H36A C30A 1_555 1_555
C31A C29A 1_555 1_555
C32A C31A 1_555 1_555
H37A C32A 1_555 1_555
C33A C32A 1_555 1_555
H38A C33A 1_555 1_555
C34A C33A 1_555 1_555
H39A C34A 1_555 1_555
C35A C34A 1_555 1_555
H40A C35A 1_555 1_555
O4A La1 1_555 1_555
O4_2 La1A 1_555 1_555
C36A C31A 1_555 1_555
N5A O5A 1_555 1_555
O5A La1A 1_555 1_555
O6A La1A 1_555 1_555
O7A N5A 1_555 1_555
N6A O8A 1_555 1_555
O8A La1A 1_555 1_555
O9A La1A 1_555 1_555
O10A N6A 1_555 1_555
N7A O11A 1_555 1_555
O11A La1A 1_555 1_555
O12A La1A 1_555 1_555
O13A N7A 1_555 1_555
C5 C6 1_555 1_555
C14 C15 1_555 1_555
C23 C24 1_555 1_555
N4 C30 1_555 1_555
C35 C36 1_555 1_555
N5 O6 1_555 1_555
N6 O9 1_555 1_555
N7 O12 1_555 1_555
C5A C6A 1_555 1_555
C8A C9A 1_555 1_555
C14A C15A 1_555 1_555
C17A C18A 1_555 1_555
C23A C24A 1_555 1_555
N4A C30A 1_555 1_555
C35A C36A 1_555 1_555
O4A C36A 1_555 1_555
N5A O6A 1_555 1_555
N6A O9A 1_555 1_555
N7A O12A 1_555 1_555

#END
