
#######################################################################
#
#                 Cambridge Crystallographic Data Centre
#                                CCDC 
#
#######################################################################
#
# If this CIF has been generated from an entry in the Cambridge 
# Structural Database, then it will include bibliographic, chemical, 
# crystal, experimental, refinement or atomic coordinate data resulting 
# from the CCDC's data processing and validation procedures.
#
#######################################################################

data_QEYGIM
_symmetry_cell_setting           triclinic
_symmetry_space_group_name_H-M   'P -1'
_symmetry_Int_Tables_number      2
_space_group_name_Hall           '-P 1'
loop_
_symmetry_equiv_pos_site_id
_symmetry_equiv_pos_as_xyz
1 x,y,z
2 -x,-y,-z
_cell_length_a                   11.0630(3)
_cell_length_b                   15.4190(4)
_cell_length_c                   15.5950(4)
_cell_angle_alpha                111.5400(13)
_cell_angle_beta                 101.4200(13)
_cell_angle_gamma                96.8600(14)
_cell_volume                     2370.96
loop_
_atom_site_label
_atom_site_type_symbol
_atom_site_fract_x
_atom_site_fract_y
_atom_site_fract_z
Sm1 Sm 0.445458(17) 0.596121(13) 0.306969(13)
O1 O 0.2977(3) 0.6017(2) 0.16882(19)
C1 C 0.3588(4) 0.7692(3) 0.2344(3)
N1 N 0.4401(3) 0.7597(2) 0.3051(2)
Sm2 Sm 0.733994(17) 0.235577(13) 0.315323(14)
O2 O 0.1853(3) 0.6805(2) 0.1023(2)
C2 C 0.3512(4) 0.8575(3) 0.2330(3)
H1 H 0.2947 0.8626 0.1832
N2 N 0.4679(3) 0.4708(2) 0.1533(2)
Sr1 Sr 0.00485(3) 0.70801(3) 0.00642(3)
O3 O 0.5815(3) 0.73226(19) 0.44638(19)
N3 N 0.2281(3) 0.8492(2) 0.5725(2)
C3 C 0.4289(4) 0.9379(3) 0.3067(3)
H2 H 0.4273 0.9978 0.3061
Sr2 Sr 0.75299(4) 0.80348(3) 0.63217(3)
N4 N 0.8566(3) 0.4039(2) 0.3636(2)
O4 O 0.6416(3) 0.8882(2) 0.5343(2)
C4 C 0.5089(4) 0.9285(3) 0.3813(3)
H3 H 0.5607 0.9819 0.4323
C5 C 0.5105(4) 0.8378(3) 0.3784(3)
O5 O 0.2893(3) 0.4453(2) 0.2368(2)
N5 N 0.5886(3) 0.1641(2) 0.1487(2)
O6 O 0.1932(3) 0.3068(2) 0.1158(2)
C6 C 0.2738(4) 0.6770(3) 0.1622(3)
O7 O 0.6168(3) 0.6396(2) 0.2400(2)
C7 C 0.5851(4) 0.8192(3) 0.4597(3)
C8 C 0.3844(4) 0.3879(3) 0.1103(3)
O8 O 0.7425(3) 0.6034(3) 0.1438(3)
O9 O 0.2782(2) 0.6672(2) 0.37496(19)
C9 C 0.3945(4) 0.3182(3) 0.0274(3)
H4 H 0.3345 0.2613 -0.0031
O10 O 0.2881(3) 0.68208(19) 0.52405(19)
C10 C 0.4928(5) 0.3332(4) -0.0094(4)
H5 H 0.5009 0.2863 -0.0649
O11 O 0.2221(3) 0.9267(2) 0.7519(2)
C11 C 0.5797(5) 0.4174(3) 0.0354(3)
H6 H 0.6480 0.4284 0.0115
O12 O 0.1537(3) 1.0508(2) 0.7339(2)
C12 C 0.5640(4) 0.4859(3) 0.1169(3)
O13 O 0.5971(3) 0.5097(2) 0.3438(2)
C13 C 0.2804(4) 0.3792(3) 0.1581(3)
O14 O 0.6089(2) 0.3576(2) 0.3076(2)
C14 C 0.6494(4) 0.5838(3) 0.1707(3)
O15 O 1.1551(3) 0.3497(2) 0.4131(2)
C15 C 0.2286(4) 0.8048(3) 0.4810(3)
O16 O 0.9611(3) 0.2677(2) 0.3841(2)
C16 C 0.1930(4) 0.8421(3) 0.4139(3)
H7 H 0.1921 0.8091 0.3504
O17 O 0.8264(3) 0.2427(2) 0.1865(2)
C17 C 0.1589(5) 0.9290(4) 0.4435(4)
H8 H 0.1367 0.9567 0.4004
O18 O 0.8147(3) 0.2134(3) 0.0342(2)
C18 C 0.1578(4) 0.9749(3) 0.5378(4)
H9 H 0.1334 1.0332 0.5587
O19 O 0.5194(3) 0.1628(2) 0.2994(2)
C19 C 0.1930(4) 0.9332(3) 0.6003(3)
O20 O 0.3187(3) 0.1031(2) 0.2182(2)
C20 C 0.2681(3) 0.7108(3) 0.4574(3)
O21 O 0.4287(3) 0.5573(2) 0.4486(2)
H10 H 0.3574 0.5691 0.4557
H11 H 0.4852 0.6038 0.4910
C21 C 0.1899(4) 0.9747(3) 0.7039(3)
C22 C 0.7972(4) 0.4713(3) 0.3540(3)
C23 C 0.8602(4) 0.5563(3) 0.3605(3)
H12 H 0.8168 0.6029 0.3552
O22 O -0.0992(4) 0.7648(3) 0.1443(3)
H13 H -0.1752 0.7429 0.1406
H14 H -0.0842 0.8249 0.1751
C24 C 0.9899(4) 0.5714(3) 0.3750(4)
H15 H 1.0345 0.6277 0.3776
O23 O 0.0333(3) 0.8915(2) 0.0610(3)
H16 H -0.0146 0.9313 0.0726
H17 H 0.0773 0.9099 0.0295
O24 O -0.1312(4) 0.5581(3) 0.0030(3)
H18 H -0.1741 0.5046 -0.0393
H19 H -0.1659 0.5736 0.0489
C25 C 1.0520(4) 0.5026(3) 0.3857(3)
H20 H 1.1391 0.5116 0.3958
O25 O 0.6167(3) 0.6637(2) 0.6412(2)
H21 H 0.5591 0.6892 0.6630
H22 H 0.6521 0.6415 0.6798
C26 C 0.9824(3) 0.4200(3) 0.3812(3)
C27 C 0.6559(4) 0.4444(3) 0.3340(3)
O26 O 0.9105(3) 0.7992(3) 0.7922(3)
H23 H 0.9581 0.7591 0.7851
H24 H 0.8628 0.7887 0.8254
C28 C 1.0388(4) 0.3404(3) 0.3944(3)
O27 O 0.8975(3) 0.8284(3) 0.5309(3)
H25 H 0.9632 0.8058 0.5389
H26 H 0.8736 0.8125 0.4709
O28 O 0.8877(3) 0.9769(2) 0.7260(2)
H27 H 0.8795 1.0010 0.7825
H28 H 0.9621 0.9888 0.7205
C29 C 0.6305(4) 0.1630(3) 0.0737(3)
C30 C 0.5544(5) 0.1240(3) -0.0172(3)
H29 H 0.5864 0.1233 -0.0682
C31 C 0.4288(5) 0.0855(4) -0.0321(3)
H30 H 0.3754 0.0580 -0.0935
C32 C 0.3836(4) 0.0882(3) 0.0446(3)
H31 H 0.2987 0.0647 0.0363
C33 C 0.4670(4) 0.1267(3) 0.1345(3)
C34 C 0.7687(4) 0.2104(3) 0.0997(3)
C35 C 0.4311(4) 0.1311(3) 0.2240(3)
O29 O 0.0167(8) 0.5627(5) -0.1377(4)
Sm2A Sm 0.266006(17) 0.764423(13) 0.684677(14)
Sr1A Sr -0.00485(3) 0.29199(3) -0.00642(3)
Sr1A_2 Sr 0.99515(3) 0.29199(3) -0.00642(3)
N3A N 0.7719(3) 0.1508(2) 0.4275(2)
Sr2A Sr 0.24701(4) 0.19652(3) 0.36783(3)
Sr2A_2 Sr 1.24701(4) 0.19652(3) 0.36783(3)
O6A O -0.1932(3) 0.6932(2) -0.1158(2)
O10A O 0.7119(3) 0.31792(19) 0.47595(19)
O11A O 0.7779(3) 0.0733(2) 0.2481(2)
O15A O 0.8449(3) 0.6503(2) 0.5869(2)
O18A O 0.1853(3) 0.7866(3) -0.0342(2)
O20A O 0.6813(3) 0.8969(2) 0.7818(2)
O30 O 0.9032(3) 0.0351(2) 0.0961(2)
H32 H 0.9584 0.0840 0.1359
H33 H 0.8332 0.0452 0.1078
O31 O 0.1812(4) 0.2062(3) 0.6597(3)
H34 H 0.2346 0.2569 0.6978
H35 H 0.1775 0.1677 0.6871
loop_
_geom_bond_atom_site_label_1
_geom_bond_atom_site_label_2
_geom_bond_site_symmetry_1
_geom_bond_site_symmetry_2
Sm1 O1 1_555 1_555
O1 C6 1_555 1_555
C1 N1 1_555 1_555
N1 Sm1 1_555 1_555
Sm2 N4 1_555 1_555
O2 Sr1 1_555 1_555
C2 C1 1_555 1_555
H1 C2 1_555 1_555
N2 Sm1 1_555 1_555
Sr1 O22 1_555 1_555
O3 Sm1 1_555 1_555
N3 C15 1_555 1_555
C3 C2 1_555 1_555
H2 C3 1_555 1_555
Sr2 O3 1_555 1_555
N4 C22 1_555 1_555
O4 Sr2 1_555 1_555
C4 C3 1_555 1_555
H3 C4 1_555 1_555
C5 N1 1_555 1_555
O5 Sm1 1_555 1_555
N5 Sm2 1_555 1_555
O6 C13 1_555 1_555
C6 C1 1_555 1_555
O7 Sm1 1_555 1_555
C7 O3 1_555 1_555
C8 N2 1_555 1_555
O8 C14 1_555 1_555
O9 Sm1 1_555 1_555
C9 C8 1_555 1_555
H4 C9 1_555 1_555
O10 C20 1_555 1_555
C10 C9 1_555 1_555
H5 C10 1_555 1_555
O11 C21 1_555 1_555
C11 C10 1_555 1_555
H6 C11 1_555 1_555
O12 C21 1_555 1_555
C12 N2 1_555 1_555
O13 Sm1 1_555 1_555
C13 O5 1_555 1_555
O14 Sm2 1_555 1_555
C14 O7 1_555 1_555
O15 C28 1_555 1_555
C15 C16 1_555 1_555
O16 Sm2 1_555 1_555
C16 H7 1_555 1_555
O17 Sm2 1_555 1_555
C17 C16 1_555 1_555
H8 C17 1_555 1_555
O18 C34 1_555 1_555
C18 C17 1_555 1_555
H9 C18 1_555 1_555
O19 Sm2 1_555 1_555
C19 N3 1_555 1_555
O20 C35 1_555 1_555
C20 O9 1_555 1_555
O21 Sm1 1_555 1_555
H10 O21 1_555 1_555
H11 O21 1_555 1_555
C21 C19 1_555 1_555
C22 C23 1_555 1_555
C23 H12 1_555 1_555
O22 H13 1_555 1_555
H14 O22 1_555 1_555
C24 C23 1_555 1_555
H15 C24 1_555 1_555
O23 Sr1 1_555 1_555
H16 O23 1_555 1_555
H17 O23 1_555 1_555
O24 Sr1 1_555 1_555
H18 O24 1_555 1_555
H19 O24 1_555 1_555
C25 C24 1_555 1_555
H20 C25 1_555 1_555
O25 Sr2 1_555 1_555
H21 O25 1_555 1_555
H22 O25 1_555 1_555
C26 N4 1_555 1_555
C27 O13 1_555 1_555
O26 Sr2 1_555 1_555
H23 O26 1_555 1_555
H24 O26 1_555 1_555
C28 O16 1_555 1_555
O27 Sr2 1_555 1_555
H25 O27 1_555 1_555
H26 O27 1_555 1_555
O28 Sr2 1_555 1_555
H27 O28 1_555 1_555
H28 O28 1_555 1_555
C29 N5 1_555 1_555
C30 C29 1_555 1_555
H29 C30 1_555 1_555
C31 C30 1_555 1_555
H30 C31 1_555 1_555
C32 C31 1_555 1_555
H31 C32 1_555 1_555
C33 N5 1_555 1_555
C34 O17 1_555 1_555
C35 O19 1_555 1_555
O29 Sr1 1_555 1_555
O30 H32 1_555 1_555
H33 O30 1_555 1_555
O31 H34 1_555 1_555
H35 O31 1_555 1_555
Sm2A N3 1_555 1_555
Sr1A O6 1_555 1_555
Sr1A_2 O18 1_555 1_555
N3A Sm2 1_555 1_555
Sr2A O20 1_555 1_555
Sr2A_2 O15 1_555 1_555
O6A Sr1 1_555 1_555
O10A Sm2 1_555 1_555
O11A Sm2 1_555 1_555
O15A Sr2 1_555 1_555
O18A Sr1 1_555 1_555
O20A Sr2 1_555 1_555
O2 C6 1_555 1_555
O4 C7 1_555 1_555
C4 C5 1_555 1_555
C5 C7 1_555 1_555
C8 C13 1_555 1_555
O10 Sm2A 1_555 1_555
O11 Sm2A 1_555 1_555
C11 C12 1_555 1_555
C12 C14 1_555 1_555
O14 C27 1_555 1_555
C15 C20 1_555 1_555
C18 C19 1_555 1_555
C22 C27 1_555 1_555
C25 C26 1_555 1_555
C26 C28 1_555 1_555
C29 C34 1_555 1_555
C32 C33 1_555 1_555
C33 C35 1_555 1_555

#END
