
#######################################################################
#
#                 Cambridge Crystallographic Data Centre
#                                CCDC 
#
#######################################################################
#
# If this CIF has been generated from an entry in the Cambridge 
# Structural Database, then it will include bibliographic, chemical, 
# crystal, experimental, refinement or atomic coordinate data resulting 
# from the CCDC's data processing and validation procedures.
#
#######################################################################

data_QEYNOY
_symmetry_cell_setting           triclinic
_symmetry_space_group_name_H-M   'P -1'
_symmetry_Int_Tables_number      2
_space_group_name_Hall           '-P 1'
loop_
_symmetry_equiv_pos_site_id
_symmetry_equiv_pos_as_xyz
1 x,y,z
2 -x,-y,-z
_cell_length_a                   9.7172(11)
_cell_length_b                   10.4777(13)
_cell_length_c                   12.7316(16)
_cell_angle_alpha                98.252(10)
_cell_angle_beta                 97.476(10)
_cell_angle_gamma                114.400(9)
_cell_volume                     1142.17
loop_
_atom_site_label
_atom_site_type_symbol
_atom_site_fract_x
_atom_site_fract_y
_atom_site_fract_z
La1 La 0.232115(17) 0.484192(15) 0.420560(12)
N1 N 0.2949(3) 0.6331(2) 0.61953(18)
N2 N 0.0701(3) 0.6132(2) 0.65584(18)
N3 N 0.1442(3) 0.5847(2) 0.58136(18)
N4 N 0.2409(3) 0.4306(2) 0.22349(19)
N5 N 0.5207(3) 0.6604(2) 0.41829(18)
N6 N 0.1868(3) 0.2987(2) 0.24717(19)
N7 N 0.2057(3) 0.7106(3) 0.3632(2)
N8 N 0.7693(3) 0.7162(3) 0.47559(19)
N9 N 0.6230(3) 0.6340(2) 0.48019(19)
N10 N 0.1594(3) 0.1949(3) 0.1630(2)
C1 C 0.4493(4) 0.8188(3) 0.9084(2)
C2 C 0.4592(3) 0.7645(3) 0.8060(2)
C3 C 0.2496(3) 0.4097(3) 0.1174(2)
C4 C 0.2989(5) 0.5076(3) 0.0495(3)
C5 C 0.3058(4) 0.8060(3) 0.9320(2)
C6 C 0.2452(4) 0.3023(4) -0.0941(3)
C7 C 0.6060(3) 0.7677(3) 0.3701(2)
C8 C 0.2811(4) 0.8443(3) 0.4249(3)
C9 C 0.5619(3) 0.8406(3) 0.2978(2)
C10 C 0.8814(3) 0.9147(3) 0.3760(2)
C11 C 0.1947(4) 0.2058(3) -0.0296(2)
C12 C 0.1797(3) 0.6843(3) 0.7494(2)
C13 C 0.1397(4) 0.8088(4) 0.2160(3)
C14 C 0.8370(4) 0.9879(3) 0.3086(2)
C15 C 0.7629(3) 0.8034(3) 0.4075(2)
C16 C 0.2914(5) 0.9645(4) 0.3858(4)
C17 C 0.2957(5) 0.4510(4) -0.0558(3)
C18 C 0.1357(4) 0.6944(3) 0.2610(3)
C19 C 0.1983(3) 0.2617(3) 0.0792(2)
C20 C 0.6792(4) 0.9506(3) 0.2689(2)
C21 C 0.3229(3) 0.6969(3) 0.7265(2)
C22 C 0.2196(4) 0.9460(4) 0.2802(4)
C23 C 0.1705(3) 0.7396(3) 0.8547(2)
H1 H 0.460(4) 0.816(4) 0.270(3)
H2 H 0.986(4) 0.938(3) 0.403(3)
H3 H 0.077(4) 0.596(4) 0.220(3)
H4 H 0.914(5) 1.063(4) 0.286(3)
H5 H 0.653(4) 1.003(4) 0.220(3)
H6 H 0.336(5) 0.857(4) 0.499(3)
H7 H 0.077(5) 0.734(5) 0.870(4)
H8 H 0.304(4) 0.848(4) 1.005(3)
H9 H 0.540(5) 0.867(4) 0.964(3)
H10 H 0.228(6) 1.023(5) 0.255(4)
H11 H 0.555(5) 0.773(5) 0.788(4)
H12 H 0.321(5) 0.517(5) -0.093(4)
H13 H 0.238(5) 0.268(5) -0.166(4)
H14 H 0.157(6) 0.102(5) -0.059(4)
H15 H 0.346(6) 1.058(6) 0.439(4)
H16 H 0.081(5) 0.785(5) 0.140(4)
H17 H 0.331(8) 0.604(7) 0.082(5)
La1A La -0.232115(17) 0.515808(15) 0.579440(12)
La1A_2 La 0.767885(17) 0.515808(15) 0.579440(12)
N2A N -0.0701(3) 0.3868(2) 0.34416(18)
N8A N 0.2307(3) 0.2838(3) 0.52441(19)
N9A N 0.3770(3) 0.3660(2) 0.51981(19)
loop_
_geom_bond_atom_site_label_1
_geom_bond_atom_site_label_2
_geom_bond_site_symmetry_1
_geom_bond_site_symmetry_2
La1 N1 1_555 1_555
N1 N3 1_555 1_555
N2 N3 1_555 1_555
N3 La1 1_555 1_555
N4 La1 1_555 1_555
N5 La1 1_555 1_555
N6 La1 1_555 1_555
N7 La1 1_555 1_555
N8 N9 1_555 1_555
N9 N5 1_555 1_555
N10 N6 1_555 1_555
C1 C2 1_555 1_555
C2 C21 1_555 1_555
C3 N4 1_555 1_555
C4 C3 1_555 1_555
C5 C1 1_555 1_555
C6 C11 1_555 1_555
C7 N5 1_555 1_555
C8 N7 1_555 1_555
C9 C7 1_555 1_555
C10 C14 1_555 1_555
C11 C19 1_555 1_555
C12 N2 1_555 1_555
C13 C18 1_555 1_555
C14 C20 1_555 1_555
C15 N8 1_555 1_555
C16 C8 1_555 1_555
C17 C4 1_555 1_555
C18 N7 1_555 1_555
C19 N10 1_555 1_555
C20 C9 1_555 1_555
C21 N1 1_555 1_555
C22 C13 1_555 1_555
C23 C5 1_555 1_555
H1 C9 1_555 1_555
H2 C10 1_555 1_555
H3 C18 1_555 1_555
H4 C14 1_555 1_555
H5 C20 1_555 1_555
H6 C8 1_555 1_555
H7 C23 1_555 1_555
H8 C5 1_555 1_555
H9 C1 1_555 1_555
H10 C22 1_555 1_555
H11 C2 1_555 1_555
H12 C17 1_555 1_555
H13 C6 1_555 1_555
H14 C11 1_555 1_555
H15 C16 1_555 1_555
H16 C13 1_555 1_555
H17 C4 1_555 1_555
La1A N2 1_555 1_555
La1A_2 N8 1_555 1_555
N2A La1 1_555 1_555
N8A La1 1_555 1_555
N9A La1 1_555 1_555
N4 N6 1_555 1_555
N9 La1A_2 1_555 1_555
C3 C19 1_555 1_555
C6 C17 1_555 1_555
C7 C15 1_555 1_555
C10 C15 1_555 1_555
C12 C21 1_555 1_555
C12 C23 1_555 1_555
C16 C22 1_555 1_555
N8A N9A 1_555 1_555

#END
