
#######################################################################
#
#                 Cambridge Crystallographic Data Centre
#                                CCDC 
#
#######################################################################
#
# If this CIF has been generated from an entry in the Cambridge 
# Structural Database, then it will include bibliographic, chemical, 
# crystal, experimental, refinement or atomic coordinate data resulting 
# from the CCDC's data processing and validation procedures.
#
#######################################################################

data_QEYPEQ
_symmetry_cell_setting           monoclinic
_symmetry_space_group_name_H-M   'P 21/c'
_symmetry_Int_Tables_number      14
_space_group_name_Hall           '-P 2ybc'
loop_
_symmetry_equiv_pos_site_id
_symmetry_equiv_pos_as_xyz
1 x,y,z
2 -x,1/2+y,1/2-z
3 -x,-y,-z
4 x,1/2-y,1/2+z
_cell_length_a                   8.2624(12)
_cell_length_b                   8.9875(14)
_cell_length_c                   9.2552(14)
_cell_angle_alpha                90.00
_cell_angle_beta                 109.759(2)
_cell_angle_gamma                90.00
_cell_volume                     646.811
loop_
_atom_site_label
_atom_site_type_symbol
_atom_site_fract_x
_atom_site_fract_y
_atom_site_fract_z
Hg1 Hg 0.24522(9) 0.98061(8) 0.19392(7)
S1 S 0.5433(7) 0.9940(6) 0.2229(7)
N1 N 0.0285(19) 0.8364(16) 0.1537(15)
N2 N -0.1336(18) 0.8623(15) 0.0353(14)
N3 N -0.1493(19) 0.6659(17) 0.1788(15)
N4 N 0.655(2) 1.166(2) 0.491(2)
C1 C -0.228(2) 0.758(2) 0.0596(19)
H1 H -0.3429 0.7461 -0.0008
C2 C 0.010(2) 0.723(2) 0.2271(19)
H2 H 0.1001 0.6819 0.3076
C3 C 0.604(2) 1.096(2) 0.383(2)
Hg1B Hg -0.24522(9) 1.01939(8) -0.19392(7)
Hg1A Hg -0.24522(9) 0.48061(8) 0.30608(7)
N2B N 0.1336(18) 1.1377(15) -0.0353(14)
N3A N 0.1493(19) 1.1659(17) 0.3212(15)
loop_
_geom_bond_atom_site_label_1
_geom_bond_atom_site_label_2
_geom_bond_site_symmetry_1
_geom_bond_site_symmetry_2
Hg1 S1 1_555 1_555
S1 C3 1_555 1_555
N1 Hg1 1_555 1_555
N2 N1 1_555 1_555
N3 C1 1_555 1_555
N4 C3 1_555 1_555
C1 N2 1_555 1_555
H1 C1 1_555 1_555
C2 N1 1_555 1_555
H2 C2 1_555 1_555
Hg1B N2 1_555 1_555
Hg1A N3 1_555 1_555
N2B Hg1 1_555 1_555
N3A Hg1 1_555 1_555
N3 C2 1_555 1_555

#END
