
#######################################################################
#
#                 Cambridge Crystallographic Data Centre
#                                CCDC 
#
#######################################################################
#
# If this CIF has been generated from an entry in the Cambridge 
# Structural Database, then it will include bibliographic, chemical, 
# crystal, experimental, refinement or atomic coordinate data resulting 
# from the CCDC's data processing and validation procedures.
#
#######################################################################

data_QEYWIB
_symmetry_cell_setting           monoclinic
_symmetry_space_group_name_H-M   'P 21'
_symmetry_Int_Tables_number      4
_space_group_name_Hall           'P 2yb'
loop_
_symmetry_equiv_pos_site_id
_symmetry_equiv_pos_as_xyz
1 x,y,z
2 -x,1/2+y,-z
_cell_length_a                   7.6811(10)
_cell_length_b                   8.8977(12)
_cell_length_c                   15.151(2)
_cell_angle_alpha                90
_cell_angle_beta                 90.678(2)
_cell_angle_gamma                90
_cell_volume                     1035.41
loop_
_atom_site_label
_atom_site_type_symbol
_atom_site_fract_x
_atom_site_fract_y
_atom_site_fract_z
Zn1 Zn 0.71523(5) 0.05293(5) 0.75825(2)
O1 O 1.0869(4) 0.7147(3) 0.78275(17)
O2 O 1.1890(6) 0.7703(4) 0.9169(2)
O3 O 0.7322(7) -0.1692(4) 0.4238(2)
O4 O 0.6462(4) -0.1121(3) 0.28803(17)
O5 O 0.9751(3) -0.0090(3) 0.73753(17)
H1 H 1.0034 -0.0915 0.7621
H2 H 1.0237 0.0118 0.6889
O6 O 0.4571(3) 0.1192(3) 0.77519(18)
H3 H 0.4003 0.1030 0.8221
H4 H 0.4308 0.1976 0.7459
N1 N 0.9980(4) 0.4347(3) 0.85510(19)
N2 N 0.8417(4) 0.4803(4) 0.8862(2)
N3 N 0.8129(4) 0.2727(3) 0.80262(19)
N4 N 1.2177(4) 0.4778(3) 0.96542(18)
N5 N 1.3542(5) 0.3823(4) 0.9771(2)
N6 N 1.2672(4) 0.4770(4) 1.10674(19)
N7 N 0.7035(4) 0.1259(3) 0.47980(18)
N8 N 0.7430(6) 0.2701(4) 0.5033(2)
N9 N 0.7017(4) 0.1282(3) 0.62301(19)
N10 N 0.5425(4) 0.1659(3) 0.34729(19)
N11 N 0.3787(5) 0.1136(4) 0.3582(3)
N12 N 0.3770(4) 0.3325(3) 0.2844(2)
C1 C 0.9790(5) 0.3117(4) 0.8059(2)
H5 H 1.0689 0.2609 0.7781
C2 C 0.7345(5) 0.3793(4) 0.8526(3)
H6 H 0.6151 0.3808 0.8622
C3 C 1.1583(4) 0.5134(4) 0.8766(2)
H7 H 1.2471 0.4756 0.8363
C4 C 1.1711(4) 0.5340(6) 1.0427(2)
H8 H 1.0826 0.6040 1.0505
C5 C 1.3776(6) 0.3854(5) 1.0630(3)
H9 H 1.4632 0.3291 1.0917
C6 C 1.1399(5) 0.6849(5) 0.8586(2)
C7 C 0.7379(7) 0.2640(5) 0.5898(3)
H10 H 0.7580 0.3476 0.6253
C8 C 0.6773(4) 0.0464(6) 0.5519(2)
H11 H 0.6455 -0.0544 0.5522
C9 C 0.6913(5) 0.0897(4) 0.3860(2)
H12 H 0.7952 0.1314 0.3582
C10 C 0.5387(5) 0.2966(4) 0.3041(2)
H13 H 0.6360 0.3536 0.2901
C11 C 0.2843(6) 0.2163(5) 0.3185(3)
H14 H 0.1637 0.2102 0.3139
C12 C 0.6888(6) -0.0827(5) 0.3652(3)
Zn1A Zn 1.28477(5) 0.55293(5) 1.24175(2)
Zn1A_2 Zn 0.28477(5) 0.55293(5) 0.24175(2)
N6A N 0.7328(4) -0.0230(4) 0.89326(19)
N12A N 0.6230(4) -0.1675(3) 0.7156(2)
O7 O 0.2390(4) 0.0707(4) 0.91119(19)
H15 H 0.2236 -0.0232 0.9044
H16 H 0.2609 0.1015 0.9632
O8 O 0.1390(5) 0.0467(5) 0.5876(2)
H17 H 0.2014 0.1256 0.5869
H18 H 0.1599 -0.0198 0.5489
loop_
_geom_bond_atom_site_label_1
_geom_bond_atom_site_label_2
_geom_bond_site_symmetry_1
_geom_bond_site_symmetry_2
Zn1 O5 1_555 1_555
O1 C6 1_555 1_555
O2 C6 1_555 1_555
O3 C12 1_555 1_555
O4 C12 1_555 1_555
O5 H1 1_555 1_555
H2 O5 1_555 1_555
O6 Zn1 1_555 1_555
H3 O6 1_555 1_555
H4 O6 1_555 1_555
N1 N2 1_555 1_555
N2 C2 1_555 1_555
N3 Zn1 1_555 1_555
N4 N5 1_555 1_555
N5 C5 1_555 1_555
N6 C4 1_555 1_555
N7 N8 1_555 1_555
N8 C7 1_555 1_555
N9 Zn1 1_555 1_555
N10 N11 1_555 1_555
N11 C11 1_555 1_555
N12 C10 1_555 1_555
C1 N1 1_555 1_555
H5 C1 1_555 1_555
C2 N3 1_555 1_555
H6 C2 1_555 1_555
C3 N1 1_555 1_555
H7 C3 1_555 1_555
C4 N4 1_555 1_555
H8 C4 1_555 1_555
C5 N6 1_555 1_555
H9 C5 1_555 1_555
C6 C3 1_555 1_555
C7 N9 1_555 1_555
H10 C7 1_555 1_555
C8 N7 1_555 1_555
H11 C8 1_555 1_555
C9 N7 1_555 1_555
H12 C9 1_555 1_555
C10 N10 1_555 1_555
H13 C10 1_555 1_555
C11 N12 1_555 1_555
H14 C11 1_555 1_555
C12 C9 1_555 1_555
O7 H15 1_555 1_555
H16 O7 1_555 1_555
O8 H17 1_555 1_555
H18 O8 1_555 1_555
Zn1A N6 1_555 1_555
Zn1A_2 N12 1_555 1_555
N6A Zn1 1_555 1_555
N12A Zn1 1_555 1_555
N3 C1 1_555 1_555
N4 C3 1_555 1_555
N9 C8 1_555 1_555
N10 C9 1_555 1_555

#END
