
#######################################################################
#
#                 Cambridge Crystallographic Data Centre
#                                CCDC 
#
#######################################################################
#
# If this CIF has been generated from an entry in the Cambridge 
# Structural Database, then it will include bibliographic, chemical, 
# crystal, experimental, refinement or atomic coordinate data resulting 
# from the CCDC's data processing and validation procedures.
#
#######################################################################

data_QEYZUQ
_symmetry_cell_setting           monoclinic
_symmetry_space_group_name_H-M   'C 2/c'
_symmetry_Int_Tables_number      15
_space_group_name_Hall           '-C 2yn'
loop_
_symmetry_equiv_pos_site_id
_symmetry_equiv_pos_as_xyz
1 x,y,z
2 1/2+x,1/2+y,z
3 -x,y,1/2-z
4 1/2-x,1/2+y,1/2-z
5 -x,-y,-z
6 1/2-x,1/2-y,-z
7 x,-y,1/2+z
8 1/2+x,1/2-y,1/2+z
_cell_length_a                   14.133(3)
_cell_length_b                   5.462(3)
_cell_length_c                   15.281(4)
_cell_angle_alpha                90
_cell_angle_beta                 94.35(2)
_cell_angle_gamma                90
_cell_volume                     1176.21
loop_
_atom_site_label
_atom_site_type_symbol
_atom_site_fract_x
_atom_site_fract_y
_atom_site_fract_z
Co1 Co 1.0000 0.41301(12) 0.7500
N1 N 0.8385(2) 0.2419(6) 0.6302(2)
O1 O 0.86973(18) 0.4314(4) 0.67735(18)
C1 C 0.7685(3) 0.0976(7) 0.6588(3)
H1 H 0.7443 0.1292 0.7126
C2 C 0.7342(3) -0.0931(7) 0.6085(3)
H2 H 0.6862 -0.1896 0.6285
C3 C 0.7689(3) -0.1477(7) 0.5279(3)
C4 C 0.8411(3) 0.0029(8) 0.5018(3)
H3 H 0.8670 -0.0277 0.4487
C5 C 0.8746(3) 0.1942(8) 0.5523(3)
H4 H 0.9226 0.2927 0.5332
C6 C 0.9718(2) -0.0901(6) 0.7921(2)
O2 O 0.95247(18) 0.1160(4) 0.82212(16)
O3 O 0.95200(18) -0.2928(4) 0.82340(16)
Co1_2 Co 1.0000 -0.58699(12) 0.7500
Co1G Co 0.5000 -0.91301(12) 0.2500
N1E N 0.6615(2) -0.7419(6) 0.3698(2)
O1E O 0.63027(18) -0.9314(4) 0.32265(18)
O1B O 1.13027(18) 0.4314(4) 0.82265(18)
C1E C 0.7315(3) -0.5976(7) 0.3412(3)
H1E H 0.7557 -0.6292 0.2874
C2E C 0.7658(3) -0.4069(7) 0.3915(3)
H2E H 0.8138 -0.3104 0.3715
C3E C 0.7311(3) -0.3523(7) 0.4721(3)
C4E C 0.6589(3) -0.5029(8) 0.4982(3)
H3E H 0.6330 -0.4723 0.5513
C5E C 0.6254(3) -0.6942(8) 0.4477(3)
H4E H 0.5774 -0.7927 0.4668
C6B C 1.0282(2) -0.0901(6) 0.7079(2)
O2B O 1.04753(18) 0.1160(4) 0.67788(16)
O3B O 1.04800(18) -0.2928(4) 0.67660(16)
O3_2 O 0.95200(18) 0.7072(4) 0.82340(16)
O3B_2 O 1.04800(18) 0.7072(4) 0.67660(16)
loop_
_geom_bond_atom_site_label_1
_geom_bond_atom_site_label_2
_geom_bond_site_symmetry_1
_geom_bond_site_symmetry_2
Co1 O1 1_555 1_555
N1 O1 1_555 1_555
C1 N1 1_555 1_555
H1 C1 1_555 1_555
C2 C1 1_555 1_555
H2 C2 1_555 1_555
C3 C2 1_555 1_555
C4 C3 1_555 1_555
H3 C4 1_555 1_555
C5 N1 1_555 1_555
H4 C5 1_555 1_555
C6 O2 1_555 1_555
O2 Co1 1_555 1_555
O3 C6 1_555 1_555
Co1_2 O3 1_555 1_555
Co1G O1E 1_555 1_555
N1E O1E 1_555 1_555
O1B Co1 1_555 1_555
C1E N1E 1_555 1_555
H1E C1E 1_555 1_555
C2E C1E 1_555 1_555
H2E C2E 1_555 1_555
C3E C3 1_555 1_555
C4E C3E 1_555 1_555
H3E C4E 1_555 1_555
C5E N1E 1_555 1_555
H4E C5E 1_555 1_555
C6B C6 1_555 1_555
O2B Co1 1_555 1_555
O3B Co1_2 1_555 1_555
O3_2 Co1 1_555 1_555
O3B_2 Co1 1_555 1_555
C4 C5 1_555 1_555
C2E C3E 1_555 1_555
C4E C5E 1_555 1_555
C6B O2B 1_555 1_555
C6B O3B 1_555 1_555

#END
