
#######################################################################
#
#                 Cambridge Crystallographic Data Centre
#                                CCDC 
#
#######################################################################
#
# If this CIF has been generated from an entry in the Cambridge 
# Structural Database, then it will include bibliographic, chemical, 
# crystal, experimental, refinement or atomic coordinate data resulting 
# from the CCDC's data processing and validation procedures.
#
#######################################################################

data_QEZMAK
_symmetry_cell_setting           tetragonal
_symmetry_space_group_name_H-M   'I 41/a c d'
_symmetry_Int_Tables_number      142
_space_group_name_Hall           '-I 4bd 2c'
loop_
_symmetry_equiv_pos_site_id
_symmetry_equiv_pos_as_xyz
1 x,y,z
2 1/4-y,1/4-x,1/4-z
3 3/4+y,1/4+x,1/4-z
4 1/4+y,1/4-x,3/4+z
5 1/4-y,3/4+x,1/4+z
6 1/2+x,1/2+y,1/2+z
7 1/4+y,3/4+x,3/4-z
8 3/4+y,3/4-x,1/4+z
9 3/4-y,1/4+x,3/4+z
10 -x,1/2-y,z
11 x,-y,1/2-z
12 1/2-x,y,-z
13 1/2-x,-y,1/2+z
14 1/2+x,1/2-y,-z
15 -x,1/2+y,1/2-z
16 3/4-y,3/4-x,3/4-z
17 -x,-y,-z
18 3/4+y,3/4+x,3/4+z
19 1/4-y,3/4-x,3/4+z
20 3/4-y,3/4+x,1/4-z
21 3/4+y,1/4-x,3/4-z
22 1/2-x,1/2-y,1/2-z
23 3/4-y,1/4-x,1/4+z
24 1/4-y,1/4+x,3/4-z
25 1/4+y,3/4-x,1/4-z
26 x,1/2+y,-z
27 -x,y,1/2+z
28 1/2+x,-y,z
29 1/2+x,y,1/2-z
30 1/2-x,1/2+y,z
31 x,1/2-y,1/2+z
32 1/4+y,1/4+x,1/4+z
_cell_length_a                   16.2170(11)
_cell_length_b                   16.2170(11)
_cell_length_c                   29.604(3)
_cell_angle_alpha                90
_cell_angle_beta                 90
_cell_angle_gamma                90
_cell_volume                     7785.59
loop_
_atom_site_label
_atom_site_type_symbol
_atom_site_fract_x
_atom_site_fract_y
_atom_site_fract_z
C1 C 0.5581(2) 0.3472(2) -0.02950(14)
C2 C 0.6232(2) 0.3201(2) -0.06394(13)
H1 H 0.5998 0.2777 -0.0837
H2 H 0.6711 0.2976 -0.0480
H3 H 0.6402 0.3676 -0.0821
C3 C 0.6000(3) 0.4087(3) 0.00245(14)
H4 H 0.6238 0.4540 -0.0152
H5 H 0.6438 0.3806 0.0193
H6 H 0.5592 0.4308 0.0236
C4 C 0.4911(2) 0.3939(2) -0.05526(14)
H7 H 0.4499 0.4146 -0.0339
H8 H 0.4646 0.3566 -0.0769
H9 H 0.5160 0.4403 -0.0715
C5 C 0.3367(3) 0.3065(2) 0.04653(13)
H10 H 0.3142 0.2730 0.0233
C6 C 0.2832(2) 0.3507(2) 0.07332(15)
H11 H 0.2254 0.3464 0.0685
C7 C 0.3132(3) 0.4009(2) 0.10707(14)
C8 C 0.3977(3) 0.4041(2) 0.11150(13)
H12 H 0.4219 0.4385 0.1338
C9 C 0.4471(3) 0.3573(2) 0.08362(14)
H13 H 0.5051 0.3604 0.0878
C10 C 0.2573(2) 0.4502(3) 0.13799(13)
H14 H 0.2915 0.4833 0.1589
H15 H 0.2238 0.4117 0.1563
Zn1 Zn 0.5000 0.2500 0.00011(2)
N1 N 0.41863(19) 0.30821(18) 0.05131(11)
C1I C 0.4419(2) 0.1528(2) -0.02950(14)
C2I C 0.3768(2) 0.1799(2) -0.06394(13)
H1I H 0.4002 0.2223 -0.0837
H2I H 0.3289 0.2024 -0.0480
H3I H 0.3598 0.1324 -0.0821
C3I C 0.4000(3) 0.0913(3) 0.00245(14)
H4I H 0.3762 0.0460 -0.0152
H5I H 0.3562 0.1194 0.0193
H6I H 0.4408 0.0692 0.0236
C4I C 0.5089(2) 0.1061(2) -0.05526(14)
H7I H 0.5501 0.0854 -0.0339
H8I H 0.5354 0.1434 -0.0769
H9I H 0.4840 0.0597 -0.0715
C5B C 0.0565(2) 0.5867(3) 0.20347(13)
H10B H 0.0230 0.5642 0.2267
C6B C 0.1007(2) 0.5332(2) 0.17668(15)
H11B H 0.0964 0.4754 0.1815
C7B C 0.1509(2) 0.5632(3) 0.14293(14)
C8B C 0.1541(2) 0.6477(3) 0.13850(13)
H12B H 0.1885 0.6719 0.1162
C9B C 0.1073(2) 0.6971(3) 0.16638(14)
H13B H 0.1104 0.7551 0.1622
C10B C 0.2002(3) 0.5073(2) 0.11201(13)
H14B H 0.2333 0.5415 0.0911
H15B H 0.1617 0.4738 0.0937
Zn1A Zn 0.0000 0.7500 0.24989(2)
N1B N 0.05821(18) 0.66863(19) 0.19869(11)
N1I N 0.58137(19) 0.19179(18) 0.05131(11)
loop_
_geom_bond_atom_site_label_1
_geom_bond_atom_site_label_2
_geom_bond_site_symmetry_1
_geom_bond_site_symmetry_2
C1 C2 1_555 1_555
C2 H1 1_555 1_555
H2 C2 1_555 1_555
H3 C2 1_555 1_555
C3 C1 1_555 1_555
H4 C3 1_555 1_555
H5 C3 1_555 1_555
H6 C3 1_555 1_555
C4 C1 1_555 1_555
H7 C4 1_555 1_555
H8 C4 1_555 1_555
H9 C4 1_555 1_555
C5 H10 1_555 1_555
C6 C5 1_555 1_555
H11 C6 1_555 1_555
C7 C6 1_555 1_555
C8 C7 1_555 1_555
H12 C8 1_555 1_555
C9 C8 1_555 1_555
H13 C9 1_555 1_555
C10 C7 1_555 1_555
H14 C10 1_555 1_555
H15 C10 1_555 1_555
Zn1 C1 1_555 1_555
N1 C5 1_555 1_555
C1I Zn1 1_555 1_555
C2I C1I 1_555 1_555
H1I C2I 1_555 1_555
H2I C2I 1_555 1_555
H3I C2I 1_555 1_555
C3I C1I 1_555 1_555
H4I C3I 1_555 1_555
H5I C3I 1_555 1_555
H6I C3I 1_555 1_555
C4I C1I 1_555 1_555
H7I C4I 1_555 1_555
H8I C4I 1_555 1_555
H9I C4I 1_555 1_555
C5B H10B 1_555 1_555
C6B C5B 1_555 1_555
H11B C6B 1_555 1_555
C7B C6B 1_555 1_555
C8B C7B 1_555 1_555
H12B C8B 1_555 1_555
C9B C8B 1_555 1_555
H13B C9B 1_555 1_555
C10B C10 1_555 1_555
H14B C10B 1_555 1_555
H15B C10B 1_555 1_555
Zn1A N1B 1_555 1_555
N1B C5B 1_555 1_555
N1I Zn1 1_555 1_555
C9 N1 1_555 1_555
Zn1 N1 1_555 1_555
C7B C10B 1_555 1_555
C9B N1B 1_555 1_555

#END
