
#######################################################################
#
#                 Cambridge Crystallographic Data Centre
#                                CCDC 
#
#######################################################################
#
# If this CIF has been generated from an entry in the Cambridge 
# Structural Database, then it will include bibliographic, chemical, 
# crystal, experimental, refinement or atomic coordinate data resulting 
# from the CCDC's data processing and validation procedures.
#
#######################################################################

data_QEZNIU
_symmetry_cell_setting           monoclinic
_symmetry_space_group_name_H-M   'P 21/c'
_symmetry_Int_Tables_number      14
_space_group_name_Hall           '-P 2ybc'
loop_
_symmetry_equiv_pos_site_id
_symmetry_equiv_pos_as_xyz
1 x,y,z
2 -x,1/2+y,1/2-z
3 -x,-y,-z
4 x,1/2-y,1/2+z
_cell_length_a                   7.1019(11)
_cell_length_b                   11.2071(19)
_cell_length_c                   16.435(2)
_cell_angle_alpha                90
_cell_angle_beta                 91.144(12)
_cell_angle_gamma                90
_cell_volume                     1307.83
loop_
_atom_site_label
_atom_site_type_symbol
_atom_site_fract_x
_atom_site_fract_y
_atom_site_fract_z
C1 C 0.0666(12) 0.5078(7) -0.1062(6)
H1 H 0.1107 0.4333 -0.1219
C2 C 0.1788(12) 0.5786(7) -0.0560(6)
H2 H 0.2951 0.5494 -0.0383
C3 C -0.0454(11) 0.7213(7) -0.0574(5)
H3 H -0.0918 0.7943 -0.0399
C4 C -0.1554(11) 0.6525(6) -0.1085(5)
C5 C -0.3430(11) 0.6970(7) -0.1366(5)
C6 C -0.6041(11) 0.6394(7) -0.2320(5)
C7 C -0.7178(12) 0.7413(7) -0.2236(5)
H4 H -0.6817 0.8019 -0.1879
C8 C -0.8840(12) 0.7509(8) -0.2689(5)
H5 H -0.9554 0.8202 -0.2653
C9 C -0.9462(16) 0.6591(10) -0.3195(7)
H6 H -1.0597 0.6653 -0.3484
C10 C -0.8351(14) 0.5578(9) -0.3259(6)
H7 H -0.8752 0.4955 -0.3594
C11 C -0.6665(12) 0.5479(8) -0.2838(5)
H8 H -0.5933 0.4798 -0.2897
N1 N -0.1003(9) 0.5430(6) -0.1323(5)
N2 N 0.1259(10) 0.6871(7) -0.0322(5)
N3 N -0.4331(9) 0.6228(6) -0.1908(5)
H9 H -0.3761 0.5569 -0.2008
O1 O -0.4042(8) 0.7934(6) -0.1151(4)
Hg1 Hg 0.39321(4) 0.83350(3) 0.02300(2)
Cl1 Cl 0.5490(4) 0.6850(2) 0.09222(19)
Cl2 Cl 0.2549(3) 0.99016(18) -0.04642(16)
O1_2 O 0.5958(8) 0.7934(6) -0.1151(4)
Hg1_2 Hg -0.60679(4) 0.83350(3) 0.02300(2)
loop_
_geom_bond_atom_site_label_1
_geom_bond_atom_site_label_2
_geom_bond_site_symmetry_1
_geom_bond_site_symmetry_2
C1 H1 1_555 1_555
C2 C1 1_555 1_555
H2 C2 1_555 1_555
C3 H3 1_555 1_555
C4 C3 1_555 1_555
C5 C4 1_555 1_555
C6 C7 1_555 1_555
C7 H4 1_555 1_555
C8 C7 1_555 1_555
H5 C8 1_555 1_555
C9 C8 1_555 1_555
H6 C9 1_555 1_555
C10 C9 1_555 1_555
H7 C10 1_555 1_555
C11 C6 1_555 1_555
H8 C11 1_555 1_555
N1 C1 1_555 1_555
N2 C2 1_555 1_555
N3 C5 1_555 1_555
H9 N3 1_555 1_555
O1 C5 1_555 1_555
Hg1 N2 1_555 1_555
Cl1 Hg1 1_555 1_555
Cl2 Hg1 1_555 1_555
O1_2 Hg1 1_555 1_555
Hg1_2 O1 1_555 1_555
C3 N2 1_555 1_555
C4 N1 1_555 1_555
C6 N3 1_555 1_555
C10 C11 1_555 1_555

#END
