
#######################################################################
#
#                 Cambridge Crystallographic Data Centre
#                                CCDC 
#
#######################################################################
#
# If this CIF has been generated from an entry in the Cambridge 
# Structural Database, then it will include bibliographic, chemical, 
# crystal, experimental, refinement or atomic coordinate data resulting 
# from the CCDC's data processing and validation procedures.
#
#######################################################################

data_QEZTIY
_symmetry_cell_setting           hexagonal
_symmetry_space_group_name_H-M   'P 61'
_symmetry_Int_Tables_number      169
_space_group_name_Hall           'P 61'
loop_
_symmetry_equiv_pos_site_id
_symmetry_equiv_pos_as_xyz
1 x,y,z
2 -y,x-y,1/3+z
3 -x+y,-x,2/3+z
4 -x,-y,1/2+z
5 y,-x+y,5/6+z
6 x-y,x,1/6+z
_cell_length_a                   14.8050(6)
_cell_length_b                   14.8050(6)
_cell_length_c                   41.608(2)
_cell_angle_alpha                90
_cell_angle_beta                 90
_cell_angle_gamma                120
_cell_volume                     7898.13
loop_
_atom_site_label
_atom_site_type_symbol
_atom_site_fract_x
_atom_site_fract_y
_atom_site_fract_z
Pt1 Pt 0.27977(3) 0.26688(3) 0.695394(8)
Pt2 Pt 0.48199(3) 0.26658(3) 0.598160(9)
Ag1 Ag 0.40060(7) 0.34564(8) 0.63937(2)
Ag2 Ag 0.34859(6) 0.40789(6) 0.746792(19)
O1 O 0.5634(7) 0.5037(7) 0.6283(2)
O2 O 0.4861(7) 0.5775(7) 0.7598(2)
N1 N 0.2520(7) 0.1474(6) 0.72841(18)
N2 N 0.1427(7) 0.1880(9) 0.6664(2)
N3 N 0.5799(7) 0.3641(6) 0.5611(2)
N4 N 0.5941(6) 0.2875(6) 0.63374(19)
C1 C 0.4267(8) 0.3266(8) 0.7149(2)
C2 C 0.5191(8) 0.4171(8) 0.7063(3)
H1 H 0.5154 0.4652 0.6915
C3 C 0.6147(9) 0.4397(9) 0.7186(3)
H2 H 0.6776 0.5032 0.7125
C4 C 0.6183(9) 0.3709(10) 0.7402(3)
H3 H 0.6857 0.3869 0.7485
C5 C 0.5313(9) 0.2826(9) 0.7494(3)
H4 H 0.5358 0.2369 0.7654
C6 C 0.4348(8) 0.2578(8) 0.7359(2)
C7 C 0.3392(8) 0.1595(7) 0.7435(2)
C8 C 0.3362(9) 0.0842(9) 0.7635(3)
H5 H 0.3994 0.0916 0.7719
C9 C 0.2378(12) -0.0026(10) 0.7714(3)
H6 H 0.2335 -0.0576 0.7861
C10 C 0.1502(10) -0.0106(9) 0.7571(3)
H7 H 0.0820 -0.0692 0.7619
C11 C 0.1592(8) 0.0662(8) 0.7358(3)
H8 H 0.0977 0.0612 0.7264
C12 C 0.2898(11) 0.3851(11) 0.6698(3)
C13 C 0.3587(12) 0.4941(12) 0.6744(3)
H9 H 0.4144 0.5169 0.6907
C14 C 0.3517(14) 0.5700(14) 0.6580(4)
H10 H 0.4025 0.6433 0.6610
C15 C 0.272(2) 0.542(2) 0.6363(5)
H11 H 0.2623 0.5937 0.6262
C16 C 0.1973(17) 0.435(2) 0.6307(5)
H12 H 0.1423 0.4147 0.6149
C17 C 0.2078(13) 0.3585(15) 0.6480(3)
C18 C 0.1330(12) 0.2505(17) 0.6462(3)
C19 C 0.0474(14) 0.203(2) 0.6231(4)
H13 H 0.0383 0.2491 0.6083
C20 C -0.0195(15) 0.098(2) 0.6233(4)
H14 H -0.0806 0.0659 0.6097
C21 C -0.0024(10) 0.0362(14) 0.6437(3)
H15 H -0.0465 -0.0420 0.6442
C22 C 0.0836(10) 0.0898(13) 0.6642(3)
H16 H 0.1013 0.0484 0.6788
C23 C 0.3748(7) 0.2745(7) 0.5701(2)
C24 C 0.2686(8) 0.2323(9) 0.5746(3)
H17 H 0.2370 0.1883 0.5930
C25 C 0.2081(9) 0.2501(9) 0.5538(3)
H18 H 0.1342 0.2179 0.5578
C26 C 0.2495(9) 0.3110(10) 0.5277(3)
H19 H 0.2049 0.3191 0.5127
C27 C 0.3574(8) 0.3601(9) 0.5213(2)
H20 H 0.3888 0.4052 0.5029
C28 C 0.4177(8) 0.3424(8) 0.5437(2)
C29 C 0.5327(8) 0.3940(8) 0.5392(3)
C30 C 0.5932(11) 0.4680(10) 0.5157(3)
H21 H 0.5614 0.4947 0.5015
C31 C 0.6962(11) 0.5012(10) 0.5131(3)
H22 H 0.7371 0.5518 0.4972
C32 C 0.7420(12) 0.4631(8) 0.5337(3)
H23 H 0.8133 0.4810 0.5311
C33 C 0.6797(8) 0.3915(8) 0.5574(3)
H24 H 0.7102 0.3646 0.5720
C34 C 0.3906(8) 0.1507(8) 0.6293(2)
C35 C 0.2854(8) 0.0698(7) 0.6265(2)
H25 H 0.2450 0.0687 0.6082
C36 C 0.2399(10) -0.0074(9) 0.6492(3)
H26 H 0.1678 -0.0592 0.6467
C37 C 0.2945(9) -0.0130(10) 0.6753(3)
H27 H 0.2610 -0.0669 0.6914
C38 C 0.3965(8) 0.0582(9) 0.6782(3)
H28 H 0.4363 0.0559 0.6963
C39 C 0.4476(7) 0.1403(7) 0.6558(2)
C40 C 0.5605(7) 0.2188(8) 0.6578(2)
C41 C 0.6265(9) 0.2238(9) 0.6813(3)
H29 H 0.6008 0.1705 0.6976
C42 C 0.7264(11) 0.3003(10) 0.6822(3)
H30 H 0.7730 0.3014 0.6981
C43 C 0.7596(10) 0.3799(8) 0.6591(3)
H31 H 0.8275 0.4418 0.6604
C44 C 0.6919(9) 0.3676(8) 0.6348(3)
H32 H 0.7146 0.4194 0.6179
C45 C 0.5935(9) 0.5743(10) 0.6092(3)
C46 C 0.7074(11) 0.6464(12) 0.6049(4)
H33 H 0.7406 0.6074 0.5977
H34 H 0.7392 0.6802 0.6243
H35 H 0.7192 0.6968 0.5887
C47 C 0.5194(13) 0.5925(13) 0.5906(3)
H36 H 0.5543 0.6500 0.5760
H37 H 0.4742 0.6042 0.6039
H38 H 0.4745 0.5314 0.5771
C48 C 0.5544(12) 0.6037(11) 0.7798(4)
C49 C 0.6228(19) 0.7176(15) 0.7889(6)
H39 H 0.6609 0.7572 0.7705
H40 H 0.5831 0.7451 0.7974
H41 H 0.6750 0.7263 0.8050
C50 C 0.5703(12) 0.5267(12) 0.7984(3)
H42 H 0.5841 0.4840 0.7839
H43 H 0.6267 0.5596 0.8130
H44 H 0.5082 0.4808 0.8102
Ag2D Ag 0.40789(6) 0.05930(8) 0.580125(19)
Pt2E Pt 0.21541(4) 0.48199(3) 0.764827(9)
C34E C 0.2399(11) 0.3906(8) 0.7960(2)
Cl1 Cl 0.5625(2) 0.5262(2) 0.91800(7)
O4 O 0.5958(17) 0.5192(15) 0.8853(4)
O5 O 0.5097(11) 0.4214(10) 0.9254(5)
O6 O 0.5032(15) 0.5672(13) 0.9158(4)
O7 O 0.6545(11) 0.5871(11) 0.9354(4)
Cl2 Cl -0.0720(3) -0.2380(5) 0.69251(11)
O8 O 0.0296(12) -0.1856(16) 0.6940(5)
O9 O -0.098(2) -0.213(4) 0.7240(5)
O10 O -0.1259(13) -0.2225(16) 0.6671(3)
O11 O -0.119(3) -0.3310(14) 0.6981(12)
O3 O -0.3315(14) -0.1706(12) 0.6499(3)
C51 C -0.3193(15) -0.1758(14) 0.6776(3)
C52 C -0.2472(15) -0.0832(12) 0.6955(5)
H45 H -0.2659 -0.0312 0.6946
H46 H -0.1770 -0.0543 0.6868
H47 H -0.2437 -0.1001 0.7176
C53 C -0.3629(16) -0.2779(17) 0.6939(7)
H48 H -0.4368 -0.3175 0.6922
H49 H -0.3353 -0.3196 0.6847
H50 H -0.3453 -0.2709 0.7166
loop_
_geom_bond_atom_site_label_1
_geom_bond_atom_site_label_2
_geom_bond_site_symmetry_1
_geom_bond_site_symmetry_2
Pt1 Ag1 1_555 1_555
Pt2 Ag1 1_555 1_555
Ag1 O1 1_555 1_555
Ag2 Pt1 1_555 1_555
Cl1 O4 1_555 1_555
Cl2 O8 1_555 1_555
O1 C45 1_555 1_555
O2 Ag2 1_555 1_555
O3 C51 1_555 1_555
O5 Cl1 1_555 1_555
O6 Cl1 1_555 1_555
O7 Cl1 1_555 1_555
O9 Cl2 1_555 1_555
O10 Cl2 1_555 1_555
O11 Cl2 1_555 1_555
N1 Pt1 1_555 1_555
N2 Pt1 1_555 1_555
N3 Pt2 1_555 1_555
N4 Pt2 1_555 1_555
C1 Pt1 1_555 1_555
C2 C1 1_555 1_555
H1 C2 1_555 1_555
C3 C2 1_555 1_555
H2 C3 1_555 1_555
C4 C3 1_555 1_555
H3 C4 1_555 1_555
C5 C4 1_555 1_555
H4 C5 1_555 1_555
C6 C1 1_555 1_555
C7 N1 1_555 1_555
C8 C7 1_555 1_555
H5 C8 1_555 1_555
C9 C8 1_555 1_555
H6 C9 1_555 1_555
C10 C9 1_555 1_555
H7 C10 1_555 1_555
C11 N1 1_555 1_555
H8 C11 1_555 1_555
C12 Pt1 1_555 1_555
C13 C12 1_555 1_555
H9 C13 1_555 1_555
C14 C13 1_555 1_555
H10 C14 1_555 1_555
C15 C14 1_555 1_555
H11 C15 1_555 1_555
C16 C15 1_555 1_555
H12 C16 1_555 1_555
C17 C12 1_555 1_555
C18 N2 1_555 1_555
C19 C18 1_555 1_555
H13 C19 1_555 1_555
C20 C19 1_555 1_555
H14 C20 1_555 1_555
C21 C20 1_555 1_555
H15 C21 1_555 1_555
C22 N2 1_555 1_555
H16 C22 1_555 1_555
C23 Pt2 1_555 1_555
C24 C23 1_555 1_555
H17 C24 1_555 1_555
C25 C24 1_555 1_555
H18 C25 1_555 1_555
C26 C25 1_555 1_555
H19 C26 1_555 1_555
C27 C26 1_555 1_555
H20 C27 1_555 1_555
C28 C23 1_555 1_555
C29 N3 1_555 1_555
C30 C29 1_555 1_555
H21 C30 1_555 1_555
C31 C30 1_555 1_555
H22 C31 1_555 1_555
C32 C31 1_555 1_555
H23 C32 1_555 1_555
C33 N3 1_555 1_555
H24 C33 1_555 1_555
C34 Pt2 1_555 1_555
C35 C34 1_555 1_555
H25 C35 1_555 1_555
C36 C35 1_555 1_555
H26 C36 1_555 1_555
C37 C36 1_555 1_555
H27 C37 1_555 1_555
C38 C37 1_555 1_555
H28 C38 1_555 1_555
C39 C34 1_555 1_555
C40 N4 1_555 1_555
C41 C40 1_555 1_555
H29 C41 1_555 1_555
C42 C41 1_555 1_555
H30 C42 1_555 1_555
C43 C42 1_555 1_555
H31 C43 1_555 1_555
C44 N4 1_555 1_555
H32 C44 1_555 1_555
C45 C46 1_555 1_555
C46 H33 1_555 1_555
H34 C46 1_555 1_555
H35 C46 1_555 1_555
C47 C45 1_555 1_555
H36 C47 1_555 1_555
H37 C47 1_555 1_555
H38 C47 1_555 1_555
C48 O2 1_555 1_555
C49 C48 1_555 1_555
H39 C49 1_555 1_555
H40 C49 1_555 1_555
H41 C49 1_555 1_555
C50 C48 1_555 1_555
H42 C50 1_555 1_555
H43 C50 1_555 1_555
H44 C50 1_555 1_555
C51 C52 1_555 1_555
C52 H45 1_555 1_555
H46 C52 1_555 1_555
H47 C52 1_555 1_555
C53 C51 1_555 1_555
H48 C53 1_555 1_555
H49 C53 1_555 1_555
H50 C53 1_555 1_555
Ag2D Pt2 1_555 1_555
Pt2E Ag2 1_555 1_555
C34E Ag2 1_555 1_555
Ag1 C12 1_555 1_555
Ag2 C1 1_555 1_555
C5 C6 1_555 1_555
C6 C7 1_555 1_555
C10 C11 1_555 1_555
C16 C17 1_555 1_555
C17 C18 1_555 1_555
C21 C22 1_555 1_555
C27 C28 1_555 1_555
C28 C29 1_555 1_555
C32 C33 1_555 1_555
C34 Ag2D 1_555 1_555
C38 C39 1_555 1_555
C39 C40 1_555 1_555
C43 C44 1_555 1_555
Pt2E C34E 1_555 1_555

#END
