
#######################################################################
#
#                 Cambridge Crystallographic Data Centre
#                                CCDC 
#
#######################################################################
#
# If this CIF has been generated from an entry in the Cambridge 
# Structural Database, then it will include bibliographic, chemical, 
# crystal, experimental, refinement or atomic coordinate data resulting 
# from the CCDC's data processing and validation procedures.
#
#######################################################################

data_QIBTEA
_symmetry_cell_setting           orthorhombic
_symmetry_space_group_name_H-M   'P b c n'
_symmetry_Int_Tables_number      60
_space_group_name_Hall           '-P 2n 2ab'
loop_
_symmetry_equiv_pos_site_id
_symmetry_equiv_pos_as_xyz
1 x,y,z
2 1/2-x,1/2-y,1/2+z
3 -x,y,1/2-z
4 1/2+x,1/2-y,-z
5 -x,-y,-z
6 1/2+x,1/2+y,1/2-z
7 x,-y,1/2+z
8 1/2-x,1/2+y,z
_cell_length_a                   48.422(7)
_cell_length_b                   21.958(3)
_cell_length_c                   15.814(2)
_cell_angle_alpha                90
_cell_angle_beta                 90
_cell_angle_gamma                90
_cell_volume                     16814.2
loop_
_atom_site_label
_atom_site_type_symbol
_atom_site_fract_x
_atom_site_fract_y
_atom_site_fract_z
La1 La 0.134189(9) 0.24945(2) -0.11064(3)
O1 O 0.09306(11) 0.2388(2) -0.0174(4)
C1 C 0.07137(19) 0.2745(4) 0.0153(7)
H1 H 0.0540 0.2570 -0.0008
H2 H 0.0727 0.3151 -0.0070
H3 H 0.0727 0.2758 0.0758
O2 O 0.12237(13) 0.1577(3) -0.0298(4)
C2 C 0.1311(2) 0.0953(4) -0.0273(7)
H4 H 0.1300 0.0805 0.0297
H5 H 0.1498 0.0924 -0.0470
H6 H 0.1193 0.0714 -0.0631
O3 O 0.14511(12) 0.1633(3) -0.2185(4)
H7 H 0.1318 0.1528 -0.2470
C3 C 0.1658(2) 0.1157(5) -0.2200(8)
H8 H 0.1735 0.1125 -0.2759
H9 H 0.1575 0.0776 -0.2045
H10 H 0.1803 0.1254 -0.1806
B1 B 0.0986(2) 0.1759(5) 0.0259(8)
O4 O 0.09960(11) 0.2401(2) -0.2263(4)
O5 O 0.11196(11) 0.3541(2) -0.1204(4)
O6 O 0.17951(13) 0.2048(3) -0.0766(5)
O7 O 0.15100(13) 0.6927(3) -0.4904(4)
O8 O 0.33477(12) 0.1887(3) 0.3015(5)
N1 N 0.07210(12) 0.2423(3) -0.2333(4)
C4 C 0.05947(14) 0.1999(3) -0.2804(4)
H11 H 0.0698 0.1702 -0.3080
C5 C 0.03123(14) 0.2006(3) -0.2877(5)
H12 H 0.0226 0.1712 -0.3207
C6 C 0.01526(13) 0.2440(3) -0.2471(4)
C7 C 0.02928(14) 0.2871(3) -0.1995(5)
H13 H 0.0194 0.3174 -0.1715
C8 C 0.05759(14) 0.2855(3) -0.1933(5)
H14 H 0.0667 0.3147 -0.1611
N2 N 0.11491(14) 0.3998(3) -0.1754(4)
C9 C 0.11407(18) 0.4573(3) -0.1466(5)
H15 H 0.1110 0.4647 -0.0895
C10 C 0.11769(18) 0.5050(3) -0.2015(5)
H16 H 0.1171 0.5447 -0.1807
C11 C 0.12220(18) 0.4957(3) -0.2869(5)
C12 C 0.12195(18) 0.4356(3) -0.3145(5)
H17 H 0.1244 0.4271 -0.3716
C13 C 0.11818(17) 0.3885(3) -0.2582(5)
H18 H 0.1179 0.3485 -0.2777
N3 N 0.19838(15) 0.2043(3) -0.0148(6)
C14 C 0.15180(18) 0.5895(3) -0.4648(5)
H19 H 0.1629 0.5841 -0.5122
C15 C 0.14493(17) 0.5406(3) -0.4149(5)
H20 H 0.1515 0.5021 -0.4286
C16 C 0.12824(16) 0.5479(3) -0.3442(5)
C17 C 0.11812(18) 0.6062(3) -0.3284(6)
H21 H 0.1062 0.6126 -0.2832
C18 C 0.12566(17) 0.6541(3) -0.3790(6)
H22 H 0.1191 0.6930 -0.3673
N4 N 0.14238(15) 0.6453(3) -0.4446(5)
C19 C 0.2049(3) 0.1511(4) 0.0229(9)
H23 H 0.1957 0.1156 0.0076
C20 C 0.2251(2) 0.1491(4) 0.0838(8)
H24 H 0.2288 0.1126 0.1113
C21 C 0.23994(18) 0.2009(3) 0.1047(7)
C22 C 0.23074(16) 0.2550(3) 0.0693(6)
H25 H 0.2389 0.2915 0.0856
C23 C 0.20985(17) 0.2557(4) 0.0106(6)
H26 H 0.2037 0.2926 -0.0114
N5 N 0.31131(14) 0.1935(3) 0.2580(5)
C24 C 0.30869(15) 0.2369(3) 0.1988(5)
H27 H 0.3227 0.2654 0.1912
C25 C 0.28539(15) 0.2393(3) 0.1497(5)
H28 H 0.2840 0.2688 0.1077
C26 C 0.26392(15) 0.1985(3) 0.1618(6)
C27 C 0.26703(17) 0.1562(4) 0.2265(6)
H29 H 0.2528 0.1291 0.2381
C28 C 0.29088(16) 0.1539(4) 0.2734(6)
H30 H 0.2928 0.1249 0.3158
C29 C 0.10822(17) 0.1848(3) 0.1211(5)
C30 C 0.09014(18) 0.1969(3) 0.1880(6)
H31 H 0.0712 0.1947 0.1784
C31 C 0.0995(2) 0.2119(4) 0.2682(6)
H32 H 0.0867 0.2196 0.3108
C32 C 0.1273(2) 0.2156(4) 0.2861(6)
H33 H 0.1335 0.2256 0.3400
C33 C 0.14584(19) 0.2040(4) 0.2212(6)
H34 H 0.1647 0.2064 0.2312
C34 C 0.13615(17) 0.1890(3) 0.1413(5)
H35 H 0.1490 0.1812 0.0990
C35 C 0.0733(2) 0.1296(4) 0.0089(6)
C36 C 0.0647(2) 0.0832(4) 0.0637(7)
H36 H 0.0712 0.0837 0.1190
C37 C 0.0470(3) 0.0364(5) 0.0395(9)
H37 H 0.0417 0.0067 0.0782
C38 C 0.0374(3) 0.0345(5) -0.0429(9)
H38 H 0.0253 0.0039 -0.0599
C39 C 0.0458(3) 0.0786(5) -0.0999(7)
H39 H 0.0397 0.0774 -0.1557
C40 C 0.0635(2) 0.1246(4) -0.0735(6)
H40 H 0.0690 0.1536 -0.1129
C6B C -0.01526(13) 0.2440(3) -0.2529(4)
C5B C -0.03123(14) 0.2006(3) -0.2123(5)
C4B C -0.05947(14) 0.1999(3) -0.2196(4)
N1B N -0.07210(12) 0.2423(3) -0.2667(4)
O4B O -0.09960(11) 0.2401(2) -0.2737(4)
C8B C -0.05759(14) 0.2855(3) -0.3067(5)
C7B C -0.02928(14) 0.2871(3) -0.3005(5)
H13B H -0.0194 0.3174 -0.3285
H14B H -0.0667 0.3147 -0.3389
H11B H -0.0698 0.1702 -0.1920
H12B H -0.0226 0.1712 -0.1793
O5F O 0.11196(11) 0.6459(2) 0.3796(4)
O7F O 0.15100(13) 0.3073(3) 0.0096(4)
N2F N 0.11491(14) 0.6002(3) 0.3246(4)
C9F C 0.11407(18) 0.5427(3) 0.3534(5)
H15F H 0.1110 0.5353 0.4105
C10F C 0.11769(18) 0.4950(3) 0.2985(5)
H16F H 0.1171 0.4553 0.3193
C11F C 0.12220(18) 0.5043(3) 0.2131(5)
C12F C 0.12195(18) 0.5644(3) 0.1855(5)
H17F H 0.1244 0.5729 0.1284
C13F C 0.11818(17) 0.6115(3) 0.2418(5)
H18F H 0.1179 0.6515 0.2223
C14F C 0.15180(18) 0.4105(3) 0.0352(5)
H19F H 0.1629 0.4159 -0.0122
C15F C 0.14493(17) 0.4594(3) 0.0851(5)
H20F H 0.1515 0.4979 0.0714
C16F C 0.12824(16) 0.4521(3) 0.1558(5)
C17F C 0.11812(18) 0.3938(3) 0.1716(6)
H21F H 0.1062 0.3874 0.2168
C18F C 0.12566(17) 0.3459(3) 0.1210(6)
H22F H 0.1191 0.3070 0.1327
N4F N 0.14238(15) 0.3547(3) 0.0554(5)
O6A O 0.32049(13) 0.2952(3) -0.5766(5)
O8A O 0.16523(12) 0.3113(3) -0.1985(5)
N3A N 0.30162(15) 0.2957(3) -0.5148(6)
C19A C 0.2951(3) 0.3489(4) -0.4771(9)
H23A H 0.3043 0.3844 -0.4924
C20A C 0.2749(2) 0.3509(4) -0.4162(8)
H24A H 0.2712 0.3874 -0.3887
C21A C 0.26006(18) 0.2991(3) -0.3953(7)
C22A C 0.26926(16) 0.2450(3) -0.4307(6)
H25A H 0.2611 0.2085 -0.4144
C23A C 0.29015(17) 0.2443(4) -0.4894(6)
H26A H 0.2963 0.2074 -0.5114
N5A N 0.18869(14) 0.3065(3) -0.2420(5)
C24A C 0.19131(15) 0.2631(3) -0.3012(5)
H27A H 0.1773 0.2346 -0.3088
C25A C 0.21461(15) 0.2607(3) -0.3503(5)
H28A H 0.2160 0.2312 -0.3923
C26A C 0.23608(15) 0.3015(3) -0.3382(6)
C27A C 0.23297(17) 0.3438(4) -0.2735(6)
H29A H 0.2472 0.3709 -0.2619
C28A C 0.20912(16) 0.3461(4) -0.2266(6)
H30A H 0.2072 0.3751 -0.1842
La1B La -0.134189(9) 0.24945(2) -0.38936(3)
La1F La 0.134189(9) 0.75055(2) 0.38936(3)
La1A La 0.365811(9) 0.25055(2) -0.61064(3)
La1F_2 La 0.134189(9) 0.75055(2) -0.61064(3)
La1A_2 La 0.365811(9) 0.25055(2) 0.38936(3)
O1B O -0.09306(11) 0.2388(2) -0.4826(4)
C1B C -0.07137(19) 0.2745(4) -0.5153(7)
H1B H -0.0540 0.2570 -0.4992
H2B H -0.0727 0.3151 -0.4930
H3B H -0.0727 0.2758 -0.5758
O2B O -0.12237(13) 0.1577(3) -0.4702(4)
C2B C -0.1311(2) 0.0953(4) -0.4727(7)
H4B H -0.1300 0.0805 -0.5297
H5B H -0.1498 0.0924 -0.4530
H6B H -0.1193 0.0714 -0.4369
B1B B -0.0986(2) 0.1759(5) -0.5259(8)
C29B C -0.10822(17) 0.1848(3) -0.6211(5)
C30B C -0.09014(18) 0.1969(3) -0.6880(6)
H31B H -0.0712 0.1947 -0.6784
C31B C -0.0995(2) 0.2119(4) -0.7682(6)
H32B H -0.0867 0.2196 -0.8108
C32B C -0.1273(2) 0.2156(4) -0.7861(6)
H33B H -0.1335 0.2256 -0.8400
C33B C -0.14584(19) 0.2040(4) -0.7212(6)
H34B H -0.1647 0.2064 -0.7312
C34B C -0.13615(17) 0.1890(3) -0.6413(5)
H35B H -0.1490 0.1812 -0.5990
C35B C -0.0733(2) 0.1296(4) -0.5089(6)
C36B C -0.0647(2) 0.0832(4) -0.5637(7)
H36B H -0.0712 0.0837 -0.6190
C37B C -0.0470(3) 0.0364(5) -0.5395(9)
H37B H -0.0417 0.0067 -0.5782
C38B C -0.0374(3) 0.0345(5) -0.4571(9)
H38B H -0.0253 0.0039 -0.4401
C39B C -0.0458(3) 0.0786(5) -0.4001(7)
H39B H -0.0397 0.0774 -0.3443
C40B C -0.0635(2) 0.1246(4) -0.4265(6)
H40B H -0.0690 0.1536 -0.3871
O3B O -0.14511(12) 0.1633(3) -0.2815(4)
H7B H -0.1318 0.1528 -0.2530
C3B C -0.1658(2) 0.1157(5) -0.2800(8)
H8B H -0.1735 0.1125 -0.2241
H9B H -0.1575 0.0776 -0.2955
H10B H -0.1803 0.1254 -0.3194
O5B O -0.11196(11) 0.3541(2) -0.3796(4)
O6B O -0.17951(13) 0.2048(3) -0.4234(5)
O7D O -0.15100(13) 0.3073(3) -0.5096(4)
O8C O -0.16523(12) 0.3113(3) -0.3015(5)
B2 B 0.0566(2) 0.3186(5) 0.4622(8)
C41 C 0.04990(19) 0.3411(4) 0.3654(5)
C42 C 0.0537(2) 0.4015(4) 0.3406(6)
H41 H 0.0605 0.4289 0.3803
C43 C 0.0480(2) 0.4228(4) 0.2600(6)
H42 H 0.0505 0.4639 0.2476
C44 C 0.0387(2) 0.3836(5) 0.1983(6)
H43 H 0.0352 0.3973 0.1437
C45 C 0.0348(2) 0.3232(5) 0.2196(6)
H44 H 0.0284 0.2958 0.1792
C46 C 0.0405(2) 0.3030(4) 0.3009(6)
H45 H 0.0379 0.2620 0.3130
C47 C 0.04333(14) 0.2490(3) 0.4767(6)
C48 C 0.05898(16) 0.1958(3) 0.4727(7)
H46 H 0.0778 0.1991 0.4618
C49 C 0.04788(18) 0.1381(3) 0.4843(9)
H47 H 0.0593 0.1041 0.4842
C50 C 0.01972(17) 0.1312(4) 0.4960(9)
H48 H 0.0120 0.0927 0.5024
C51 C 0.00343(17) 0.1826(3) 0.4980(9)
H49 H -0.0155 0.1789 0.5060
C52 C 0.01512(15) 0.2398(3) 0.4884(8)
H50 H 0.0036 0.2737 0.4897
C53 C 0.04032(16) 0.3647(4) 0.5285(5)
C54 C 0.04845(17) 0.3756(4) 0.6115(5)
H51 H 0.0644 0.3568 0.6311
C55 C 0.0339(2) 0.4129(4) 0.6665(6)
H52 H 0.0404 0.4188 0.7213
C56 C 0.00999(19) 0.4414(4) 0.6401(6)
H53 H 0.0003 0.4670 0.6762
C57 C 0.00082(19) 0.4307(5) 0.5590(7)
H54 H -0.0154 0.4489 0.5401
C58 C 0.01564(17) 0.3930(4) 0.5052(6)
H55 H 0.0088 0.3863 0.4511
C59 C 0.08962(14) 0.3166(4) 0.4809(5)
C60 C 0.10065(14) 0.2892(4) 0.5533(5)
H56 H 0.0885 0.2724 0.5923
C61 C 0.12854(14) 0.2858(4) 0.5699(6)
H57 H 0.1347 0.2650 0.6176
C62 C 0.14748(16) 0.3130(4) 0.5163(6)
H58 H 0.1663 0.3131 0.5287
C63 C 0.13751(16) 0.3400(4) 0.4438(6)
H59 H 0.1498 0.3571 0.4052
C64 C 0.10940(15) 0.3420(4) 0.4276(5)
H60 H 0.1034 0.3614 0.3786
B3 B 0.2611(2) 0.4464(5) 1.1068(8)
C65 C 0.2428(2) 0.4980(4) 1.0574(6)
C66 C 0.2509(2) 0.5203(5) 0.9790(6)
H61 H 0.2656 0.5016 0.9512
C67 C 0.2380(2) 0.5696(5) 0.9408(7)
H62 H 0.2443 0.5839 0.8889
C68 C 0.2158(2) 0.5976(5) 0.9799(7)
H63 H 0.2071 0.6306 0.9546
C69 C 0.2068(2) 0.5757(5) 1.0571(6)
H64 H 0.1912 0.5924 1.0827
C70 C 0.22108(19) 0.5288(4) 1.0962(6)
H65 H 0.2159 0.5174 1.1506
C71 C 0.28299(17) 0.4873(3) 1.1646(5)
C72 C 0.30680(19) 0.5138(4) 1.1309(6)
H66 H 0.3109 0.5067 1.0743
C73 C 0.3246(2) 0.5502(5) 1.1774(6)
H67 H 0.3406 0.5654 1.1524
C74 C 0.3188(2) 0.5639(5) 1.2607(6)
H68 H 0.3306 0.5882 1.2925
C75 C 0.29491(19) 0.5403(4) 1.2953(6)
H69 H 0.2903 0.5498 1.3509
C76 C 0.27777(18) 0.5028(4) 1.2486(5)
H70 H 0.2620 0.4871 1.2744
C77 C 0.27756(16) 0.4007(3) 1.0411(5)
C78 C 0.30512(16) 0.3834(4) 1.0483(6)
H71 H 0.3157 0.4012 1.0908
C79 C 0.31770(17) 0.3414(4) 0.9958(6)
H72 H 0.3363 0.3321 1.0029
C80 C 0.30261(18) 0.3134(4) 0.9329(6)
H73 H 0.3109 0.2852 0.8970
C81 C 0.27508(19) 0.3279(4) 0.9243(6)
H74 H 0.2645 0.3088 0.8831
C82 C 0.26312(16) 0.3710(4) 0.9769(6)
H75 H 0.2446 0.3805 0.9690
C83 C 0.24237(15) 0.4016(4) 1.1667(6)
C84 C 0.25474(16) 0.3654(4) 1.2289(6)
H76 H 0.2737 0.3689 1.2373
C85 C 0.24015(17) 0.3245(4) 1.2785(6)
H77 H 0.2493 0.3017 1.3194
C86 C 0.21207(17) 0.3177(4) 1.2673(6)
H78 H 0.2021 0.2903 1.3002
C87 C 0.19908(16) 0.3522(4) 1.2064(7)
H79 H 0.1801 0.3485 1.1984
C88 C 0.21404(15) 0.3923(4) 1.1570(6)
H80 H 0.2048 0.4141 1.1153
O9 O 0.10730(17) 0.0980(4) -0.3110(6)
H81 H 0.1017 0.0681 -0.2852
C89 C 0.1153(3) 0.0805(7) -0.3942(10)
H82 H 0.1196 0.1162 -0.4266
H83 H 0.1003 0.0590 -0.4207
H84 H 0.1312 0.0546 -0.3913
O10 O 0.1967(2) 0.4587(4) 0.8984(6)
H85 H 0.2083 0.4757 0.9280
C90 C 0.1890(3) 0.4982(7) 0.8301(10)
H86 H 0.1786 0.4756 0.7890
H87 H 0.2053 0.5144 0.8040
H88 H 0.1779 0.5310 0.8515
O11 O 0.09227(15) 0.4744(3) 0.5127(6)
H89 H 0.0868 0.4393 0.5184
C91 C 0.0708(2) 0.5151(5) 0.5324(9)
H90 H 0.0698 0.5462 0.4898
H91 H 0.0743 0.5336 0.5864
H92 H 0.0536 0.4934 0.5345
O12 O 0.0885(3) -0.0010(8) 0.7726(11)
C92 C 0.1018(4) -0.0440(9) 0.8148(14)
O13? O 0.0162(8) 0.1347(17) 0.290(2)
C93? C 0.0000 0.1545(18) 0.2500
O14? O 0.0318(6) -0.0212(12) 0.7550(18)
C94? C 0.0081(10) 0.008(2) 0.728(3)
loop_
_geom_bond_atom_site_label_1
_geom_bond_atom_site_label_2
_geom_bond_site_symmetry_1
_geom_bond_site_symmetry_2
La1 O1 1_555 1_555
O1 C1 1_555 1_555
C1 H1 1_555 1_555
H2 C1 1_555 1_555
H3 C1 1_555 1_555
O2 La1 1_555 1_555
C2 O2 1_555 1_555
H4 C2 1_555 1_555
H5 C2 1_555 1_555
H6 C2 1_555 1_555
O3 La1 1_555 1_555
H7 O3 1_555 1_555
C3 O3 1_555 1_555
H8 C3 1_555 1_555
H9 C3 1_555 1_555
H10 C3 1_555 1_555
B1 O1 1_555 1_555
O4 La1 1_555 1_555
O5 La1 1_555 1_555
O6 La1 1_555 1_555
O7 N4 1_555 1_555
O8 N5 1_555 1_555
N1 O4 1_555 1_555
C4 N1 1_555 1_555
H11 C4 1_555 1_555
C5 C4 1_555 1_555
H12 C5 1_555 1_555
C6 C5 1_555 1_555
C7 C6 1_555 1_555
H13 C7 1_555 1_555
C8 N1 1_555 1_555
H14 C8 1_555 1_555
N2 O5 1_555 1_555
C9 N2 1_555 1_555
H15 C9 1_555 1_555
C10 C9 1_555 1_555
H16 C10 1_555 1_555
C11 C10 1_555 1_555
C12 C11 1_555 1_555
H17 C12 1_555 1_555
C13 N2 1_555 1_555
H18 C13 1_555 1_555
N3 O6 1_555 1_555
C14 H19 1_555 1_555
C15 C14 1_555 1_555
H20 C15 1_555 1_555
C16 C11 1_555 1_555
C17 C16 1_555 1_555
H21 C17 1_555 1_555
C18 C17 1_555 1_555
H22 C18 1_555 1_555
N4 C14 1_555 1_555
C19 N3 1_555 1_555
H23 C19 1_555 1_555
C20 C19 1_555 1_555
H24 C20 1_555 1_555
C21 C20 1_555 1_555
C22 C21 1_555 1_555
H25 C22 1_555 1_555
C23 N3 1_555 1_555
H26 C23 1_555 1_555
N5 C24 1_555 1_555
C24 H27 1_555 1_555
C25 C24 1_555 1_555
H28 C25 1_555 1_555
C26 C21 1_555 1_555
C27 C26 1_555 1_555
H29 C27 1_555 1_555
C28 N5 1_555 1_555
H30 C28 1_555 1_555
C29 B1 1_555 1_555
C30 C29 1_555 1_555
H31 C30 1_555 1_555
C31 C30 1_555 1_555
H32 C31 1_555 1_555
C32 C31 1_555 1_555
H33 C32 1_555 1_555
C33 C32 1_555 1_555
H34 C33 1_555 1_555
C34 C29 1_555 1_555
H35 C34 1_555 1_555
C35 B1 1_555 1_555
C36 C35 1_555 1_555
H36 C36 1_555 1_555
C37 C36 1_555 1_555
H37 C37 1_555 1_555
C38 C37 1_555 1_555
H38 C38 1_555 1_555
C39 C38 1_555 1_555
H39 C39 1_555 1_555
C40 C35 1_555 1_555
H40 C40 1_555 1_555
B2 C41 1_555 1_555
C41 C42 1_555 1_555
C42 H41 1_555 1_555
C43 C42 1_555 1_555
H42 C43 1_555 1_555
C44 C43 1_555 1_555
H43 C44 1_555 1_555
C45 C44 1_555 1_555
H44 C45 1_555 1_555
C46 C41 1_555 1_555
H45 C46 1_555 1_555
C47 B2 1_555 1_555
C48 C47 1_555 1_555
H46 C48 1_555 1_555
C49 C48 1_555 1_555
H47 C49 1_555 1_555
C50 C49 1_555 1_555
H48 C50 1_555 1_555
C51 C50 1_555 1_555
H49 C51 1_555 1_555
C52 C47 1_555 1_555
H50 C52 1_555 1_555
C53 B2 1_555 1_555
C54 C53 1_555 1_555
H51 C54 1_555 1_555
C55 C54 1_555 1_555
H52 C55 1_555 1_555
C56 C55 1_555 1_555
H53 C56 1_555 1_555
C57 C56 1_555 1_555
H54 C57 1_555 1_555
C58 C53 1_555 1_555
H55 C58 1_555 1_555
C59 B2 1_555 1_555
C60 C59 1_555 1_555
H56 C60 1_555 1_555
C61 C60 1_555 1_555
H57 C61 1_555 1_555
C62 C61 1_555 1_555
H58 C62 1_555 1_555
C63 C62 1_555 1_555
H59 C63 1_555 1_555
C64 C59 1_555 1_555
H60 C64 1_555 1_555
B3 C65 1_555 1_555
C65 C66 1_555 1_555
C66 H61 1_555 1_555
C67 C66 1_555 1_555
H62 C67 1_555 1_555
C68 C67 1_555 1_555
H63 C68 1_555 1_555
C69 C68 1_555 1_555
H64 C69 1_555 1_555
C70 C65 1_555 1_555
H65 C70 1_555 1_555
C71 B3 1_555 1_555
C72 C71 1_555 1_555
H66 C72 1_555 1_555
C73 C72 1_555 1_555
H67 C73 1_555 1_555
C74 C73 1_555 1_555
H68 C74 1_555 1_555
C75 C74 1_555 1_555
H69 C75 1_555 1_555
C76 C71 1_555 1_555
H70 C76 1_555 1_555
C77 B3 1_555 1_555
C78 C77 1_555 1_555
H71 C78 1_555 1_555
C79 C78 1_555 1_555
H72 C79 1_555 1_555
C80 C79 1_555 1_555
H73 C80 1_555 1_555
C81 C80 1_555 1_555
H74 C81 1_555 1_555
C82 C77 1_555 1_555
H75 C82 1_555 1_555
C83 B3 1_555 1_555
C84 C83 1_555 1_555
H76 C84 1_555 1_555
C85 C84 1_555 1_555
H77 C85 1_555 1_555
C86 C85 1_555 1_555
H78 C86 1_555 1_555
C87 C86 1_555 1_555
H79 C87 1_555 1_555
C88 C83 1_555 1_555
H80 C88 1_555 1_555
O9 H81 1_555 1_555
C89 O9 1_555 1_555
H82 C89 1_555 1_555
H83 C89 1_555 1_555
H84 C89 1_555 1_555
O10 H85 1_555 1_555
C90 O10 1_555 1_555
H86 C90 1_555 1_555
H87 C90 1_555 1_555
H88 C90 1_555 1_555
O11 H89 1_555 1_555
C91 O11 1_555 1_555
H90 C91 1_555 1_555
H91 C91 1_555 1_555
H92 C91 1_555 1_555
O12 C92 1_555 1_555
C6B C6 1_555 1_555
C5B C6B 1_555 1_555
C4B C5B 1_555 1_555
N1B C4B 1_555 1_555
O4B N1B 1_555 1_555
C8B N1B 1_555 1_555
C7B C6B 1_555 1_555
H13B C7B 1_555 1_555
H14B C8B 1_555 1_555
H11B C4B 1_555 1_555
H12B C5B 1_555 1_555
O5F N2F 1_555 1_555
O7F La1 1_555 1_555
N2F C9F 1_555 1_555
C9F H15F 1_555 1_555
C10F C9F 1_555 1_555
H16F C10F 1_555 1_555
C11F C10F 1_555 1_555
C12F C11F 1_555 1_555
H17F C12F 1_555 1_555
C13F N2F 1_555 1_555
H18F C13F 1_555 1_555
C14F H19F 1_555 1_555
C15F C14F 1_555 1_555
H20F C15F 1_555 1_555
C16F C11F 1_555 1_555
C17F C16F 1_555 1_555
H21F C17F 1_555 1_555
C18F C17F 1_555 1_555
H22F C18F 1_555 1_555
N4F O7F 1_555 1_555
O6A N3A 1_555 1_555
O8A La1 1_555 1_555
N3A C19A 1_555 1_555
C19A H23A 1_555 1_555
C20A C19A 1_555 1_555
H24A C20A 1_555 1_555
C21A C20A 1_555 1_555
C22A C21A 1_555 1_555
H25A C22A 1_555 1_555
C23A N3A 1_555 1_555
H26A C23A 1_555 1_555
N5A O8A 1_555 1_555
C24A N5A 1_555 1_555
H27A C24A 1_555 1_555
C25A C24A 1_555 1_555
H28A C25A 1_555 1_555
C26A C21A 1_555 1_555
C27A C26A 1_555 1_555
H29A C27A 1_555 1_555
C28A N5A 1_555 1_555
H30A C28A 1_555 1_555
La1B O4B 1_555 1_555
La1F O5F 1_555 1_555
La1A O6A 1_555 1_555
La1F_2 O7 1_555 1_555
La1A_2 O8 1_555 1_555
O1B La1B 1_555 1_555
C1B O1B 1_555 1_555
H1B C1B 1_555 1_555
H2B C1B 1_555 1_555
H3B C1B 1_555 1_555
O2B La1B 1_555 1_555
C2B O2B 1_555 1_555
H4B C2B 1_555 1_555
H5B C2B 1_555 1_555
H6B C2B 1_555 1_555
B1B O1B 1_555 1_555
C29B B1B 1_555 1_555
C30B C29B 1_555 1_555
H31B C30B 1_555 1_555
C31B C30B 1_555 1_555
H32B C31B 1_555 1_555
C32B C31B 1_555 1_555
H33B C32B 1_555 1_555
C33B C32B 1_555 1_555
H34B C33B 1_555 1_555
C34B C29B 1_555 1_555
H35B C34B 1_555 1_555
C35B B1B 1_555 1_555
C36B C35B 1_555 1_555
H36B C36B 1_555 1_555
C37B C36B 1_555 1_555
H37B C37B 1_555 1_555
C38B C37B 1_555 1_555
H38B C38B 1_555 1_555
C39B C38B 1_555 1_555
H39B C39B 1_555 1_555
C40B C35B 1_555 1_555
H40B C40B 1_555 1_555
O3B La1B 1_555 1_555
H7B O3B 1_555 1_555
C3B O3B 1_555 1_555
H8B C3B 1_555 1_555
H9B C3B 1_555 1_555
H10B C3B 1_555 1_555
O5B La1B 1_555 1_555
O6B La1B 1_555 1_555
O7D La1B 1_555 1_555
O8C La1B 1_555 1_555
O2 B1 1_555 1_555
C7 C8 1_555 1_555
C12 C13 1_555 1_555
C15 C16 1_555 1_555
C18 N4 1_555 1_555
C22 C23 1_555 1_555
C25 C26 1_555 1_555
C27 C28 1_555 1_555
C33 C34 1_555 1_555
C39 C40 1_555 1_555
C45 C46 1_555 1_555
C51 C52 1_555 1_555
C57 C58 1_555 1_555
C63 C64 1_555 1_555
C69 C70 1_555 1_555
C75 C76 1_555 1_555
C81 C82 1_555 1_555
C87 C88 1_555 1_555
C8B C7B 1_555 1_555
C12F C13F 1_555 1_555
C14F N4F 1_555 1_555
C15F C16F 1_555 1_555
C18F N4F 1_555 1_555
C22A C23A 1_555 1_555
C25A C26A 1_555 1_555
C27A C28A 1_555 1_555
O2B B1B 1_555 1_555
C33B C34B 1_555 1_555
C39B C40B 1_555 1_555

#END
