
#######################################################################
#
#                 Cambridge Crystallographic Data Centre
#                                CCDC 
#
#######################################################################
#
# If this CIF has been generated from an entry in the Cambridge 
# Structural Database, then it will include bibliographic, chemical, 
# crystal, experimental, refinement or atomic coordinate data resulting 
# from the CCDC's data processing and validation procedures.
#
#######################################################################

data_QIDCOV01
_symmetry_cell_setting           monoclinic
_symmetry_space_group_name_H-M   'P 2/n'
_symmetry_Int_Tables_number      13
_space_group_name_Hall           '-P 2yac'
loop_
_symmetry_equiv_pos_site_id
_symmetry_equiv_pos_as_xyz
1 x,y,z
2 1/2-x,y,1/2-z
3 -x,-y,-z
4 1/2+x,-y,1/2+z
_cell_length_a                   13.0330
_cell_length_b                   16.8650
_cell_length_c                   21.5790
_cell_angle_alpha                90.0
_cell_angle_beta                 94.19
_cell_angle_gamma                90.0
_cell_volume                     4730.42
loop_
_atom_site_label
_atom_site_type_symbol
_atom_site_fract_x
_atom_site_fract_y
_atom_site_fract_z
Cd1 Cd 0.25000 0.25430 0.25000
Cd2 Cd 0.75000 0.24600 0.75000
F1 F 0.50750 -0.06750 0.41000
F2 F 0.82950 0.00750 0.33535
F3 F 0.59300 -0.08300 0.52350
F4 F 0.91600 -0.01200 0.45050
F5 F 0.51000 0.58200 0.44130
F6 F 0.78250 0.51300 0.31625
F7 F 0.63800 0.56650 0.54350
F8 F 0.90950 0.50450 0.41750
O1 O 0.25200 0.21800 0.35950
O2 O 0.15400 0.32150 0.35600
O3 O 0.20450 0.26350 0.44400
O4 O 0.58400 0.28350 0.69500
O5 O 0.54600 0.17800 0.74250
O6 O 0.42750 0.23850 0.67900
N1 N 0.40000 0.16800 0.26150
N2 N 0.36650 0.35600 0.28100
N3 N 0.20250 0.27100 0.38800
N4 N 0.76200 0.14250 0.67500
N5 N 0.79750 0.33500 0.67250
N6 N 0.51750 0.23200 0.70550
C1 C 0.39800 0.10700 0.22450
C2 C 0.45450 0.16950 0.31450
C3 C 0.47650 0.04300 0.23600
C4 C 0.52800 0.10900 0.33050
C5 C 0.54950 0.04350 0.29150
C6 C 0.61350 -0.02100 0.29850
C7 C 0.66600 -0.02700 0.36700
C8 C 0.61000 -0.05400 0.41850
C9 C 0.76750 -0.00950 0.38250
C10 C 0.65250 -0.06450 0.47650
C11 C 0.81550 -0.02350 0.44150
C12 C 0.76400 -0.04900 0.49000
C13 C 0.81900 -0.06500 0.56050
C14 C 0.79600 0.00800 0.59650
C15 C 0.70800 0.00450 0.63550
C16 C 0.85750 0.07550 0.59450
C17 C 0.69950 0.07500 0.67350
C18 C 0.84100 0.13900 0.63650
C19 C 0.33650 0.42050 0.31500
C20 C 0.46600 0.35750 0.26000
C21 C 0.40000 0.49000 0.32550
C22 C 0.54100 0.41750 0.27100
C23 C 0.50500 0.48550 0.30400
C24 C 0.57050 0.56400 0.31450
C25 C 0.65750 0.55000 0.37600
C26 C 0.60900 0.56250 0.43550
C27 C 0.75300 0.52800 0.37450
C28 C 0.67750 0.55150 0.48750
C29 C 0.81050 0.51300 0.42500
C30 C 0.78550 0.53050 0.48250
C31 C 0.85850 0.52000 0.54200
C32 C 0.83050 0.45600 0.58300
C33 C 0.76250 0.39300 0.56650
C34 C 0.87950 0.45700 0.64700
C35 C 0.75100 0.33150 0.61350
C36 C 0.86000 0.39400 0.68850
O1A O 0.24800 0.21800 0.14050
O2A O 0.34600 0.32150 0.14400
O3A O 0.29550 0.26350 0.05600
N3A N 0.29750 0.27100 0.11200
F1A F -0.00750 -0.06750 0.09000
F2A F -0.32950 0.00750 0.16465
F3A F -0.09300 -0.08300 -0.02350
F4A F -0.41600 -0.01200 0.04950
N1A N 0.10000 0.16800 0.23850
N4A N -0.26200 0.14250 -0.17500
C1A C 0.10200 0.10700 0.27550
C2A C 0.04550 0.16950 0.18550
C3A C 0.02350 0.04300 0.26400
C4A C -0.02800 0.10900 0.16950
C5A C -0.04950 0.04350 0.20850
C6A C -0.11350 -0.02100 0.20150
C7A C -0.16600 -0.02700 0.13300
C8A C -0.11000 -0.05400 0.08150
C9A C -0.26750 -0.00950 0.11750
C10A C -0.15250 -0.06450 0.02350
C11A C -0.31550 -0.02350 0.05850
C12A C -0.26400 -0.04900 0.01000
C13A C -0.31900 -0.06500 -0.06050
C14A C -0.29600 0.00800 -0.09650
C15A C -0.20800 0.00450 -0.13550
C16A C -0.35750 0.07550 -0.09450
C17A C -0.19950 0.07500 -0.17350
C18A C -0.34100 0.13900 -0.13650
F5A F -0.01000 0.58200 0.05870
F6A F -0.28250 0.51300 0.18375
F7A F -0.13800 0.56650 -0.04350
F8A F -0.40950 0.50450 0.08250
N2A N 0.13350 0.35600 0.21900
N5A N -0.29750 0.33500 -0.17250
C19A C 0.16350 0.42050 0.18500
C20A C 0.03400 0.35750 0.24000
C21A C 0.10000 0.49000 0.17450
C22A C -0.04100 0.41750 0.22900
C23A C -0.00500 0.48550 0.19600
C24A C -0.07050 0.56400 0.18550
C25A C -0.15750 0.55000 0.12400
C26A C -0.10900 0.56250 0.06450
C27A C -0.25300 0.52800 0.12550
C28A C -0.17750 0.55150 0.01250
C29A C -0.31050 0.51300 0.07500
C30A C -0.28550 0.53050 0.01750
C31A C -0.35850 0.52000 -0.04200
C32A C -0.33050 0.45600 -0.08300
C33A C -0.26250 0.39300 -0.06650
C34A C -0.37950 0.45700 -0.14700
C35A C -0.25100 0.33150 -0.11350
C36A C -0.36000 0.39400 -0.18850
O4A O 0.91600 0.28350 0.80500
O5A O 0.95400 0.17800 0.75750
O6A O 1.07250 0.23850 0.82100
N6A N 0.98250 0.23200 0.79450
N4A_2 N 0.73800 0.14250 0.82500
N5A_2 N 0.70250 0.33500 0.82750
Cd2_2 Cd -0.25000 0.24600 -0.25000
C37 C 0.74450 0.25300 0.41950
C38 C 0.72250 0.19650 0.46600
C39 C 0.66650 0.31100 0.40600
C40 C 0.62450 0.20150 0.49750
C41 C 0.57000 0.31250 0.43500
C42 C 0.54050 0.26150 0.47950
C43 C 0.83800 0.25100 0.38550
C44 C 0.90650 0.19150 0.39500
C45 C 0.79900 0.22600 0.31100
C46 C 0.87050 0.33100 0.36800
loop_
_geom_bond_atom_site_label_1
_geom_bond_atom_site_label_2
_geom_bond_site_symmetry_1
_geom_bond_site_symmetry_2
Cd1 O1 1_555 1_555
Cd2 O4 1_555 1_555
F1 C8 1_555 1_555
F2 C9 1_555 1_555
F3 C10 1_555 1_555
F4 C11 1_555 1_555
F5 C26 1_555 1_555
F6 C27 1_555 1_555
F7 C28 1_555 1_555
F8 C29 1_555 1_555
O1 N3 1_555 1_555
O2 N3 1_555 1_555
O3 N3 1_555 1_555
O4 N6 1_555 1_555
O5 N6 1_555 1_555
O6 N6 1_555 1_555
N1 Cd1 1_555 1_555
N2 Cd1 1_555 1_555
N4 Cd2 1_555 1_555
N5 Cd2 1_555 1_555
C1 N1 1_555 1_555
C2 N1 1_555 1_555
C3 C1 1_555 1_555
C4 C2 1_555 1_555
C5 C3 1_555 1_555
C6 C5 1_555 1_555
C7 C6 1_555 1_555
C8 C7 1_555 1_555
C9 C7 1_555 1_555
C10 C8 1_555 1_555
C11 C9 1_555 1_555
C12 C10 1_555 1_555
C13 C12 1_555 1_555
C14 C13 1_555 1_555
C15 C14 1_555 1_555
C16 C14 1_555 1_555
C17 N4 1_555 1_555
C18 N4 1_555 1_555
C19 N2 1_555 1_555
C20 N2 1_555 1_555
C21 C19 1_555 1_555
C22 C20 1_555 1_555
C23 C21 1_555 1_555
C24 C23 1_555 1_555
C25 C24 1_555 1_555
C26 C25 1_555 1_555
C27 C25 1_555 1_555
C28 C26 1_555 1_555
C29 C27 1_555 1_555
C30 C28 1_555 1_555
C31 C30 1_555 1_555
C32 C31 1_555 1_555
C33 C32 1_555 1_555
C34 C32 1_555 1_555
C35 N5 1_555 1_555
C36 N5 1_555 1_555
C37 C38 1_555 1_555
C38 C40 1_555 1_555
C39 C37 1_555 1_555
C40 C42 1_555 1_555
C41 C39 1_555 1_555
C42 C41 1_555 1_555
C43 C37 1_555 1_555
C44 C43 1_555 1_555
C45 C43 1_555 1_555
C46 C43 1_555 1_555
O1A Cd1 1_555 1_555
O2A N3A 1_555 1_555
O3A N3A 1_555 1_555
N3A O1A 1_555 1_555
F1A C8A 1_555 1_555
F2A C9A 1_555 1_555
F3A C10A 1_555 1_555
F4A C11A 1_555 1_555
N1A Cd1 1_555 1_555
N4A C17A 1_555 1_555
C1A N1A 1_555 1_555
C2A N1A 1_555 1_555
C3A C1A 1_555 1_555
C4A C2A 1_555 1_555
C5A C3A 1_555 1_555
C6A C5A 1_555 1_555
C7A C6A 1_555 1_555
C8A C7A 1_555 1_555
C9A C7A 1_555 1_555
C10A C8A 1_555 1_555
C11A C9A 1_555 1_555
C12A C10A 1_555 1_555
C13A C12A 1_555 1_555
C14A C13A 1_555 1_555
C15A C14A 1_555 1_555
C16A C14A 1_555 1_555
C17A C15A 1_555 1_555
C18A N4A 1_555 1_555
F5A C26A 1_555 1_555
F6A C27A 1_555 1_555
F7A C28A 1_555 1_555
F8A C29A 1_555 1_555
N2A Cd1 1_555 1_555
N5A C35A 1_555 1_555
C19A N2A 1_555 1_555
C20A N2A 1_555 1_555
C21A C19A 1_555 1_555
C22A C20A 1_555 1_555
C23A C21A 1_555 1_555
C24A C23A 1_555 1_555
C25A C24A 1_555 1_555
C26A C25A 1_555 1_555
C27A C25A 1_555 1_555
C28A C26A 1_555 1_555
C29A C27A 1_555 1_555
C30A C28A 1_555 1_555
C31A C30A 1_555 1_555
C32A C31A 1_555 1_555
C33A C32A 1_555 1_555
C34A C32A 1_555 1_555
C35A C33A 1_555 1_555
C36A N5A 1_555 1_555
O4A Cd2 1_555 1_555
O5A N6A 1_555 1_555
O6A N6A 1_555 1_555
N6A O4A 1_555 1_555
N4A_2 Cd2 1_555 1_555
N5A_2 Cd2 1_555 1_555
Cd2_2 N4A 1_555 1_555
C4 C5 1_555 1_555
C11 C12 1_555 1_555
C15 C17 1_555 1_555
C16 C18 1_555 1_555
C22 C23 1_555 1_555
C29 C30 1_555 1_555
C33 C35 1_555 1_555
C34 C36 1_555 1_555
C4A C5A 1_555 1_555
C11A C12A 1_555 1_555
C16A C18A 1_555 1_555
N5A Cd2_2 1_555 1_555
C22A C23A 1_555 1_555
C29A C30A 1_555 1_555
C34A C36A 1_555 1_555

#END
