
#######################################################################
#
#                 Cambridge Crystallographic Data Centre
#                                CCDC 
#
#######################################################################
#
# If this CIF has been generated from an entry in the Cambridge 
# Structural Database, then it will include bibliographic, chemical, 
# crystal, experimental, refinement or atomic coordinate data resulting 
# from the CCDC's data processing and validation procedures.
#
#######################################################################

data_QIDCUB01
_symmetry_cell_setting           triclinic
_symmetry_space_group_name_H-M   'P -1'
_symmetry_Int_Tables_number      2
_space_group_name_Hall           '-P 1'
loop_
_symmetry_equiv_pos_site_id
_symmetry_equiv_pos_as_xyz
1 x,y,z
2 -x,-y,-z
_cell_length_a                   10.202(5)
_cell_length_b                   10.333(5)
_cell_length_c                   10.717(5)
_cell_angle_alpha                76.981(5)
_cell_angle_beta                 72.501(5)
_cell_angle_gamma                80.762(5)
_cell_volume                     1044.53
loop_
_atom_site_label
_atom_site_type_symbol
_atom_site_fract_x
_atom_site_fract_y
_atom_site_fract_z
N4 N 0.0769(10) 0.5193(8) 0.6155(8)
C19 C 0.0258(8) 0.4911(8) 0.5172(9)
C20 C 0.1132(11) 0.4891(8) 0.4745(11)
C21 C 0.1633(15) 0.5154(10) 0.5739(14)
C22 C 0.0705(18) 0.5595(11) 0.6835(17)
C23 C -0.0725(14) 0.5798(10) 0.6959(10)
C24 C 0.1211(9) 0.4459(8) 0.4070(8)
C25 C 0.2249(12) 0.5068(9) 0.5986(10)
C26 C -0.0151(18) 0.5591(13) 0.7337(13)
N4A N -0.0769(10) 0.4807(8) 0.3845(8)
C19A C -0.0258(8) 0.5089(8) 0.4828(9)
C20A C -0.1132(11) 0.5109(8) 0.5255(11)
C21A C -0.1633(15) 0.4846(10) 0.4261(14)
C22A C -0.0705(18) 0.4405(11) 0.3165(17)
C23A C 0.0725(14) 0.4202(10) 0.3041(10)
C24A C -0.1211(9) 0.5541(8) 0.5930(8)
C25A C -0.2249(12) 0.4932(9) 0.4014(10)
C26A C 0.0151(18) 0.4409(13) 0.2663(13)
Cd1 Cd 0.0000 0.0000 0.0000
F1 F 0.4725(2) -0.25072(19) 0.4815(2)
F2 F 0.7236(2) -0.1784(2) 0.4429(3)
F3 F 0.4914(2) 0.2378(2) 0.1084(3)
F4 F 0.4387(3) 0.4148(3) 0.2667(2)
O1 O 0.1116(4) -0.1737(4) -0.1267(4)
O2 O 0.1576(5) -0.2565(7) 0.0402(4)
O3 O 0.2296(6) -0.3618(6) -0.1194(8)
N1 N 0.0871(3) -0.0321(3) 0.1911(3)
N2 N 0.1913(3) 0.1144(2) -0.1126(3)
N3 N 0.1690(3) -0.2766(3) -0.0684(3)
C1 C 0.1504(4) 0.0627(3) 0.2109(3)
H1 H 0.1631 0.1422 0.1456
C2 C 0.0693(3) -0.1419(4) 0.2860(3)
H2 H 0.0246 -0.2104 0.2743
C3 C 0.1981(3) 0.0509(3) 0.3214(3)
H3 H 0.2438 0.1203 0.3300
C4 C 0.1122(3) -0.1613(4) 0.4002(3)
H4 H 0.0964 -0.2410 0.4648
C5 C 0.1786(3) -0.0633(3) 0.4197(3)
C6 C 0.2245(3) -0.0820(4) 0.5453(3)
H5 H 0.1564 -0.0303 0.6080
H6 H 0.2246 -0.1774 0.5883
C7 C 0.3659(3) -0.0388(3) 0.5215(3)
C8 C 0.4838(3) -0.1264(3) 0.4922(3)
C9 C 0.6132(3) -0.0879(3) 0.4715(3)
C10 C 0.1867(3) 0.2459(3) -0.1204(4)
H7 H 0.0998 0.2979 -0.1119
C11 C 0.3155(3) 0.0433(3) -0.1291(3)
H8 H 0.3207 -0.0499 -0.1263
C12 C 0.3021(3) 0.3098(3) -0.1401(4)
H9 H 0.2939 0.4034 -0.1440
C13 C 0.4360(3) 0.0998(3) -0.1502(3)
H10 H 0.5219 0.0459 -0.1618
C14 C 0.4310(3) 0.2359(3) -0.1543(3)
C15 C 0.5593(3) 0.3021(4) -0.1725(4)
H11 H 0.6327 0.2333 -0.1505
H12 H 0.5932 0.3457 -0.2669
C16 C 0.5304(3) 0.4050(3) -0.0847(3)
C17 C 0.4961(3) 0.3688(3) 0.0521(3)
C18 C 0.4673(3) 0.4607(3) 0.1347(3)
Cd1_2 Cd 1.0000 0.0000 1.0000
Cd1_3 Cd 1.0000 1.0000 0.0000
F1A F 0.5275(2) 0.25072(19) 0.5185(2)
F2A F 0.2764(2) 0.1784(2) 0.5571(3)
F3A F 0.5086(2) 0.7622(2) -0.1084(3)
F4A F 0.5613(3) 0.5852(3) -0.2667(2)
O1A O -0.1116(4) 0.1737(4) 0.1267(4)
O2A O -0.1576(5) 0.2565(7) -0.0402(4)
O3A O -0.2296(6) 0.3618(6) 0.1194(8)
N1A N 0.9129(3) 0.0321(3) 0.8089(3)
N1A_2 N -0.0871(3) 0.0321(3) -0.1911(3)
N2A N 0.8087(3) 0.8856(2) 0.1126(3)
N2A_2 N -0.1913(3) -0.1144(2) 0.1126(3)
N3A N -0.1690(3) 0.2766(3) 0.0684(3)
C1A C 0.8496(4) -0.0627(3) 0.7891(3)
H1A H 0.8369 -0.1422 0.8544
C2A C 0.9307(3) 0.1419(4) 0.7140(3)
H2A H 0.9754 0.2104 0.7257
C3A C 0.8019(3) -0.0509(3) 0.6786(3)
H3A H 0.7562 -0.1203 0.6700
C4A C 0.8878(3) 0.1613(4) 0.5998(3)
H4A H 0.9036 0.2410 0.5352
C5A C 0.8214(3) 0.0633(3) 0.5803(3)
C6A C 0.7755(3) 0.0820(4) 0.4547(3)
H5A H 0.8436 0.0303 0.3920
H6A H 0.7754 0.1774 0.4117
C7A C 0.6341(3) 0.0388(3) 0.4785(3)
C8A C 0.5162(3) 0.1264(3) 0.5078(3)
C9A C 0.3868(3) 0.0879(3) 0.5285(3)
C10A C 0.8133(3) 0.7541(3) 0.1204(4)
H7A H 0.9002 0.7021 0.1119
C11A C 0.6845(3) 0.9567(3) 0.1291(3)
H8A H 0.6793 1.0499 0.1263
C12A C 0.6979(3) 0.6902(3) 0.1401(4)
H9A H 0.7061 0.5966 0.1440
C13A C 0.5640(3) 0.9002(3) 0.1502(3)
H10A H 0.4781 0.9541 0.1618
C14A C 0.5690(3) 0.7641(3) 0.1543(3)
C15A C 0.4407(3) 0.6979(4) 0.1725(4)
H11A H 0.3673 0.7667 0.1505
H12A H 0.4068 0.6543 0.2669
C16A C 0.4696(3) 0.5950(3) 0.0847(3)
C17A C 0.5039(3) 0.6312(3) -0.0521(3)
C18A C 0.5327(3) 0.5393(3) -0.1347(3)
loop_
_geom_bond_atom_site_label_1
_geom_bond_atom_site_label_2
_geom_bond_site_symmetry_1
_geom_bond_site_symmetry_2
Cd1 O1 1_555 1_555
F1 C8 1_555 1_555
F2 C9 1_555 1_555
F3 C17 1_555 1_555
F4 C18 1_555 1_555
O1 N3 1_555 1_555
O2 N3 1_555 1_555
O3 N3 1_555 1_555
N1 Cd1 1_555 1_555
N2 Cd1 1_555 1_555
N4 C19 1_555 1_555
C1 N1 1_555 1_555
H1 C1 1_555 1_555
C2 N1 1_555 1_555
H2 C2 1_555 1_555
C3 C1 1_555 1_555
H3 C3 1_555 1_555
C4 C2 1_555 1_555
H4 C4 1_555 1_555
C5 C3 1_555 1_555
C6 C5 1_555 1_555
H5 C6 1_555 1_555
H6 C6 1_555 1_555
C7 C6 1_555 1_555
C8 C7 1_555 1_555
C9 C8 1_555 1_555
C10 N2 1_555 1_555
H7 C10 1_555 1_555
C11 N2 1_555 1_555
H8 C11 1_555 1_555
C12 C10 1_555 1_555
H9 C12 1_555 1_555
C13 C11 1_555 1_555
H10 C13 1_555 1_555
C14 C12 1_555 1_555
C15 C14 1_555 1_555
H11 C15 1_555 1_555
H12 C15 1_555 1_555
C16 C15 1_555 1_555
C17 C16 1_555 1_555
C18 C17 1_555 1_555
C19 C20 1_555 1_555
C20 N4 1_555 1_555
C21 N4 1_555 1_555
C22 N4 1_555 1_555
C23 N4 1_555 1_555
C24 C19 1_555 1_555
C25 N4 1_555 1_555
C26 N4 1_555 1_555
Cd1_2 N1A 1_555 1_555
Cd1_3 N2A 1_555 1_555
F1A C8A 1_555 1_555
F2A C9A 1_555 1_555
F3A C17A 1_555 1_555
F4A C18A 1_555 1_555
O1A Cd1 1_555 1_555
O2A N3A 1_555 1_555
O3A N3A 1_555 1_555
N1A C1A 1_555 1_555
N1A_2 Cd1 1_555 1_555
N2A C10A 1_555 1_555
N2A_2 Cd1 1_555 1_555
N3A O1A 1_555 1_555
N4A C19A 1_555 1_555
C1A H1A 1_555 1_555
C2A N1A 1_555 1_555
H2A C2A 1_555 1_555
C3A C1A 1_555 1_555
H3A C3A 1_555 1_555
C4A C2A 1_555 1_555
H4A C4A 1_555 1_555
C5A C3A 1_555 1_555
C6A C5A 1_555 1_555
H5A C6A 1_555 1_555
H6A C6A 1_555 1_555
C7A C9 1_555 1_555
C8A C7A 1_555 1_555
C9A C7 1_555 1_555
C10A H7A 1_555 1_555
C11A N2A 1_555 1_555
H8A C11A 1_555 1_555
C12A C10A 1_555 1_555
H9A C12A 1_555 1_555
C13A C11A 1_555 1_555
H10A C13A 1_555 1_555
C14A C12A 1_555 1_555
C15A C14A 1_555 1_555
H11A C15A 1_555 1_555
H12A C15A 1_555 1_555
C16A C18 1_555 1_555
C17A C16A 1_555 1_555
C18A C16 1_555 1_555
C19A C19 1_555 1_555
C20A C19 1_555 1_555
C21A N4A 1_555 1_555
C22A N4A 1_555 1_555
C23A C24 1_555 1_555
C24A C19 1_555 1_555
C25A N4A 1_555 1_555
C26A N4A 1_555 1_555
C4 C5 1_555 1_555
C13 C14 1_555 1_555
C19 C21 1_555 1_555
C20 C21 1_555 1_555
C20 C24 1_555 1_555
C20 C19A 1_555 1_555
C21 C22 1_555 1_555
C21 C25 1_555 1_555
C22 C23 1_555 1_555
C22 C25 1_555 1_555
C22 C26 1_555 1_555
C23 C26 1_555 1_555
C23 C24A 1_555 1_555
C24 C19A 1_555 1_555
N4A C20A 1_555 1_555
N4A C23A 1_555 1_555
C4A C5A 1_555 1_555
C6A C7A 1_555 1_555
C8A C9A 1_555 1_555
C13A C14A 1_555 1_555
C15A C16A 1_555 1_555
C17A C18A 1_555 1_555
C19A C20A 1_555 1_555
C19A C21A 1_555 1_555
C19A C24A 1_555 1_555
C20A C21A 1_555 1_555
C20A C24A 1_555 1_555
C21A C22A 1_555 1_555
C21A C25A 1_555 1_555
C22A C23A 1_555 1_555
C22A C25A 1_555 1_555
C22A C26A 1_555 1_555
C23A C26A 1_555 1_555

#END
