
#######################################################################
#
#                 Cambridge Crystallographic Data Centre
#                                CCDC 
#
#######################################################################
#
# If this CIF has been generated from an entry in the Cambridge 
# Structural Database, then it will include bibliographic, chemical, 
# crystal, experimental, refinement or atomic coordinate data resulting 
# from the CCDC's data processing and validation procedures.
#
#######################################################################

data_QIDDAI02
_symmetry_cell_setting           monoclinic
_symmetry_space_group_name_H-M   'C 2/c'
_symmetry_Int_Tables_number      15
_space_group_name_Hall           '-C 2yn'
loop_
_symmetry_equiv_pos_site_id
_symmetry_equiv_pos_as_xyz
1 x,y,z
2 1/2+x,1/2+y,z
3 -x,y,1/2-z
4 1/2-x,1/2+y,1/2-z
5 -x,-y,-z
6 1/2-x,1/2-y,-z
7 x,-y,1/2+z
8 1/2+x,1/2-y,1/2+z
_cell_length_a                   17.902(5)
_cell_length_b                   18.977(5)
_cell_length_c                   16.758(5)
_cell_angle_alpha                90
_cell_angle_beta                 119.512(5)
_cell_angle_gamma                90
_cell_volume                     4954.46
loop_
_atom_site_label
_atom_site_type_symbol
_atom_site_fract_x
_atom_site_fract_y
_atom_site_fract_z
Cd1 Cd 1.0000 0.122405(7) 0.7500
F1 F 1.16242(6) 0.45444(5) 1.05880(8)
F2 F 1.11778(6) 0.58535(5) 0.99277(8)
F3 F 0.92328(6) -0.24348(6) 0.59060(8)
F4 F 0.84534(7) -0.34068(6) 0.63798(8)
O1 O 0.86955(8) 0.10104(7) 0.76847(9)
O2 O 0.82400(13) 0.17592(8) 0.65896(11)
O3 O 0.75206(8) 0.15760(10) 0.72838(9)
N1 N 1.01818(9) 0.20741(7) 0.86012(9)
N2 N 0.94040(8) 0.03156(6) 0.63786(9)
N3 N 0.81361(8) 0.14495(7) 0.71809(9)
C1 C 0.96064(10) 0.25873(8) 0.84200(11)
H1 H 0.9130 0.2618 0.7817
C2 C 1.08545(11) 0.20507(9) 0.94561(11)
H2 H 1.1271 0.1691 0.9602
C3 C 0.96679(10) 0.30749(8) 0.90627(11)
H3 H 0.9237 0.3424 0.8902
C4 C 1.09701(11) 0.25245(9) 1.01354(11)
H4 H 1.1461 0.2491 1.0728
C5 C 1.03657(9) 0.30496(7) 0.99461(10)
C6 C 1.04800(10) 0.35590(8) 1.06946(11)
H5 H 1.0122 0.3402 1.0961
H6 H 1.1087 0.3551 1.1188
C7 C 1.02360(9) 0.43026(8) 1.03480(10)
C8 C 1.08147(9) 0.47612(8) 1.02978(11)
C9 C 1.05851(9) 0.54359(8) 0.99605(11)
C10 C 0.85858(12) 0.01233(11) 0.59963(16)
H7 H 0.8218 0.0386 0.6143
C11 C 0.98944(11) -0.00617(10) 0.61411(14)
H8 H 1.0481 0.0066 0.6395
C12 C 0.82383(12) -0.04385(12) 0.53945(17)
H9 H 0.7648 -0.0553 0.5144
C13 C 0.95944(12) -0.06286(10) 0.55451(14)
H10 H 0.9972 -0.0879 0.5401
C14 C 0.87468(10) -0.08290(8) 0.51602(10)
C15 C 0.83920(12) -0.14385(9) 0.44909(12)
H11 H 0.7992 -0.1252 0.3873
H12 H 0.8871 -0.1673 0.4460
C16 C 0.79250(10) -0.19788(8) 0.47488(11)
C17 C 0.83637(10) -0.24620(8) 0.54393(11)
C18 C 0.79609(11) -0.29660(8) 0.56878(11)
Cd1F Cd 1.0000 0.877595(7) 1.2500
Cd1G Cd 0.5000 -0.622405(7) 0.2500
F1D F 0.83758(6) 0.54556(5) 0.94120(8)
F2D F 0.88222(6) 0.41465(5) 1.00723(8)
F3E F 0.57672(6) -0.25652(6) 0.40940(8)
F4E F 0.65466(7) -0.15932(6) 0.36202(8)
O1B O 1.13045(8) 0.10104(7) 0.73153(9)
O2B O 1.17600(13) 0.17592(8) 0.84104(11)
O3B O 1.24794(8) 0.15760(10) 0.77162(9)
N1D N 0.98182(9) 0.79259(7) 1.13988(9)
N1B N 0.98182(9) 0.20741(7) 0.63988(9)
N2E N 0.55960(8) -0.53156(6) 0.36214(9)
N2B N 1.05960(8) 0.03156(6) 0.86214(9)
N3B N 1.18639(8) 0.14495(7) 0.78191(9)
C1D C 1.03936(10) 0.74127(8) 1.15800(11)
H1D H 1.0870 0.7382 1.2183
C2D C 0.91455(11) 0.79493(9) 1.05439(11)
H2D H 0.8729 0.8309 1.0398
C3D C 1.03321(10) 0.69251(8) 1.09373(11)
H3D H 1.0763 0.6576 1.1098
C4D C 0.90299(11) 0.74755(9) 0.98646(11)
H4D H 0.8539 0.7509 0.9272
C5D C 0.96343(9) 0.69504(7) 1.00539(10)
C6D C 0.95200(10) 0.64410(8) 0.93054(11)
H5D H 0.9878 0.6598 0.9039
H6D H 0.8913 0.6449 0.8812
C7D C 0.97640(9) 0.56974(8) 0.96520(10)
C8D C 0.91853(9) 0.52388(8) 0.97022(11)
C9D C 0.94149(9) 0.45641(8) 1.00395(11)
C10E C 0.64142(12) -0.51233(11) 0.40037(16)
H7E H 0.6782 -0.5386 0.3857
C11E C 0.51056(11) -0.49383(10) 0.38589(14)
H8E H 0.4519 -0.5066 0.3605
C12E C 0.67617(12) -0.45615(12) 0.46055(17)
H9E H 0.7352 -0.4447 0.4856
C13E C 0.54056(12) -0.43714(10) 0.44549(14)
H10E H 0.5028 -0.4121 0.4599
C14E C 0.62532(10) -0.41710(8) 0.48398(10)
C15E C 0.66080(12) -0.35615(9) 0.55091(12)
H11E H 0.7008 -0.3748 0.6127
H12E H 0.6129 -0.3327 0.5540
C16E C 0.70750(10) -0.30212(8) 0.52512(11)
C17E C 0.66363(10) -0.25380(8) 0.45607(11)
C18E C 0.70391(11) -0.20340(8) 0.43122(11)
O4 O 0.81932(9) 0.87809(8) 0.82223(10)
O5 O 0.74428(11) 0.84407(13) 0.67625(12)
C19 C 0.74580(11) 0.90823(10) 0.81809(12)
C20 C 0.70208(15) 0.87011(12) 0.85157(15)
H13 H 0.7183 0.8231 0.8725
C21 C 0.63386(17) 0.9019(2) 0.85405(18)
H14 H 0.6028 0.8768 0.8774
C22 C 0.61067(17) 0.9699(2) 0.82276(18)
H15 H 0.5640 0.9917 0.8251
C23 C 0.65455(19) 1.00619(14) 0.78843(17)
H16 H 0.6374 1.0527 0.7659
C24 C 0.72345(15) 0.97591(11) 0.78625(14)
H17 H 0.7547 1.0012 0.7633
C25 C 0.80964(13) 0.84630(13) 0.74519(14)
C26 C 0.89292(17) 0.8159(2) 0.76085(19)
H18 H 0.8845 0.7932 0.7044
H19 H 0.9132 0.7809 0.8102
H20 H 0.9355 0.8536 0.7782
loop_
_geom_bond_atom_site_label_1
_geom_bond_atom_site_label_2
_geom_bond_site_symmetry_1
_geom_bond_site_symmetry_2
Cd1 O1 1_555 1_555
F1 C8 1_555 1_555
F2 C9 1_555 1_555
F3 C17 1_555 1_555
F4 C18 1_555 1_555
O1 N3 1_555 1_555
O2 N3 1_555 1_555
O3 N3 1_555 1_555
O4 C19 1_555 1_555
O5 C25 1_555 1_555
N1 Cd1 1_555 1_555
N2 Cd1 1_555 1_555
C1 N1 1_555 1_555
H1 C1 1_555 1_555
C2 N1 1_555 1_555
H2 C2 1_555 1_555
C3 C1 1_555 1_555
H3 C3 1_555 1_555
C4 C2 1_555 1_555
H4 C4 1_555 1_555
C5 C3 1_555 1_555
C6 C5 1_555 1_555
H5 C6 1_555 1_555
H6 C6 1_555 1_555
C7 C6 1_555 1_555
C8 C7 1_555 1_555
C9 C8 1_555 1_555
C10 N2 1_555 1_555
H7 C10 1_555 1_555
C11 N2 1_555 1_555
H8 C11 1_555 1_555
C12 C10 1_555 1_555
H9 C12 1_555 1_555
C13 C11 1_555 1_555
H10 C13 1_555 1_555
C14 C12 1_555 1_555
C15 C14 1_555 1_555
H11 C15 1_555 1_555
H12 C15 1_555 1_555
C16 C15 1_555 1_555
C17 C16 1_555 1_555
C18 C17 1_555 1_555
C19 C20 1_555 1_555
C20 H13 1_555 1_555
C21 C20 1_555 1_555
H14 C21 1_555 1_555
C22 C21 1_555 1_555
H15 C22 1_555 1_555
C23 C22 1_555 1_555
H16 C23 1_555 1_555
C24 C19 1_555 1_555
H17 C24 1_555 1_555
C25 O4 1_555 1_555
C26 C25 1_555 1_555
H18 C26 1_555 1_555
H19 C26 1_555 1_555
H20 C26 1_555 1_555
Cd1F N1D 1_555 1_555
Cd1G N2E 1_555 1_555
F1D C8D 1_555 1_555
F2D C9D 1_555 1_555
F3E C17E 1_555 1_555
F4E C18E 1_555 1_555
O1B Cd1 1_555 1_555
O2B N3B 1_555 1_555
O3B N3B 1_555 1_555
N1D C1D 1_555 1_555
N1B Cd1 1_555 1_555
N2E C10E 1_555 1_555
N2B Cd1 1_555 1_555
N3B O1B 1_555 1_555
C1D H1D 1_555 1_555
C2D N1D 1_555 1_555
H2D C2D 1_555 1_555
C3D C1D 1_555 1_555
H3D C3D 1_555 1_555
C4D C2D 1_555 1_555
H4D C4D 1_555 1_555
C5D C3D 1_555 1_555
C6D C5D 1_555 1_555
H5D C6D 1_555 1_555
H6D C6D 1_555 1_555
C7D C9 1_555 1_555
C8D C7D 1_555 1_555
C9D C7 1_555 1_555
C10E H7E 1_555 1_555
C11E N2E 1_555 1_555
H8E C11E 1_555 1_555
C12E C10E 1_555 1_555
H9E C12E 1_555 1_555
C13E C11E 1_555 1_555
H10E C13E 1_555 1_555
C14E C12E 1_555 1_555
C15E C14E 1_555 1_555
H11E C15E 1_555 1_555
H12E C15E 1_555 1_555
C16E C18 1_555 1_555
C17E C16E 1_555 1_555
C18E C16 1_555 1_555
C4 C5 1_555 1_555
C13 C14 1_555 1_555
C23 C24 1_555 1_555
C4D C5D 1_555 1_555
C6D C7D 1_555 1_555
C8D C9D 1_555 1_555
C13E C14E 1_555 1_555
C15E C16E 1_555 1_555
C17E C18E 1_555 1_555

#END
