
#######################################################################
#
#                 Cambridge Crystallographic Data Centre
#                                CCDC 
#
#######################################################################
#
# If this CIF has been generated from an entry in the Cambridge 
# Structural Database, then it will include bibliographic, chemical, 
# crystal, experimental, refinement or atomic coordinate data resulting 
# from the CCDC's data processing and validation procedures.
#
#######################################################################

data_QIDDEM
_symmetry_cell_setting           monoclinic
_symmetry_space_group_name_H-M   'P 2/n'
_symmetry_Int_Tables_number      13
_space_group_name_Hall           '-P 2yac'
loop_
_symmetry_equiv_pos_site_id
_symmetry_equiv_pos_as_xyz
1 x,y,z
2 1/2-x,y,1/2-z
3 -x,-y,-z
4 1/2+x,-y,1/2+z
_cell_length_a                   15.583(4)
_cell_length_b                   27.280(3)
_cell_length_c                   13.401(2)
_cell_angle_alpha                90
_cell_angle_beta                 90.37(2)
_cell_angle_gamma                90
_cell_volume                     5696.7
loop_
_atom_site_label
_atom_site_type_symbol
_atom_site_fract_x
_atom_site_fract_y
_atom_site_fract_z
Cd1 Cd -0.2500 -0.75001(5) -0.2500
Cd2 Cd -0.2500 -0.25012(5) 0.2500
F1 F -0.4656(5) -0.4802(3) -0.4068(6)
F2 F -0.5844(5) -0.5711(3) -0.1423(6)
F3 F -0.5953(4) -0.4911(3) -0.0270(5)
F4 F -0.4445(5) -0.3873(3) -0.3863(6)
F5 F -0.4696(6) -0.3072(3) -0.2734(7)
F6 F -0.5923(5) -0.3980(2) -0.0100(6)
F7 F -0.5840(5) 0.0715(3) 0.6438(6)
F8 F -0.4682(5) -0.0205(3) 0.9061(6)
F9 F -0.5947(4) -0.0084(2) 0.5271(5)
F10 F -0.4464(5) -0.1125(3) 0.8863(6)
F11 F -0.5918(4) -0.1022(2) 0.5109(6)
F12 F -0.4694(6) -0.1933(3) 0.7734(6)
O1 O -0.2928(5) -0.7805(3) -0.4242(6)
O2 O -0.2059(5) -0.7189(3) -0.4253(6)
O3 O -0.2492(5) -0.7505(4) -0.5674(6)
O4 O -0.2500 -0.4088(5) 0.2500
O5 O -0.2915(6) -0.3401(3) 0.3166(7)
O6 O -0.2500 -0.0912(5) 0.2500
O7 O -0.2109(6) -0.1597(3) 0.3159(7)
N1 N -0.3550(6) 0.1883(3) 0.7785(8)
N2 N -0.3544(6) -0.6880(3) -0.2782(8)
N3 N -0.2497(6) -0.7497(5) -0.4731(7)
N4 N -0.3554(6) -0.2355(3) 0.3691(7)
N5 N -0.3559(6) -0.2647(3) 0.1291(7)
N6 N -0.2500 -0.3638(6) 0.2500
N7 N -0.2500 -0.1363(6) 0.2500
C1 C -0.3498(7) 0.1460(4) 0.7247(9)
C2 C -0.4155(8) 0.1930(4) 0.8534(10)
C3 C -0.4065(7) 0.1061(4) 0.7476(9)
C4 C -0.4726(8) 0.1553(4) 0.8794(9)
C5 C -0.4678(8) 0.1108(4) 0.8223(9)
C6 C -0.5335(8) 0.0714(4) 0.8492(10)
C7 C -0.5273(8) 0.0257(5) 0.782(1)
C8 C -0.5601(8) 0.0287(4) 0.683(1)
C9 C -0.5001(8) -0.0173(5) 0.8144(10)
C10 C -0.5638(8) -0.0123(5) 0.623(1)
C11 C -0.5047(8) -0.0637(5) 0.756(1)
C12 C -0.5407(7) -0.0594(4) 0.6572(9)
C13 C -0.4813(9) -0.1086(5) 0.793(1)
C14 C -0.5536(8) -0.1044(5) 0.607(1)
C15 C -0.4936(9) -0.1491(5) 0.735(1)
C16 C -0.5334(8) -0.1483(4) 0.6410(9)
C17 C -0.5529(8) -0.1970(4) 0.5866(10)
C18 C -0.4828(8) -0.2097(4) 0.5104(10)
C19 C -0.4737(8) -0.1843(4) 0.423(1)
C20 C -0.4233(7) -0.2485(5) 0.5304(9)
C21 C -0.4108(8) -0.1977(4) 0.353(1)
C22 C -0.3607(8) -0.2602(4) 0.4559(9)
C23 C -0.4135(7) -0.6931(4) -0.3536(9)
C24 C -0.3505(7) -0.6457(4) -0.2263(9)
C25 C -0.4725(8) -0.6553(4) -0.3775(9)
C26 C -0.4050(7) -0.6064(4) -0.2472(9)
C27 C -0.4667(7) -0.6105(4) -0.3217(9)
C28 C -0.5343(8) -0.5701(4) -0.3517(10)
C29 C -0.5268(8) -0.5250(5) -0.283(1)
C30 C -0.5000(9) -0.4828(5) -0.312(1)
C31 C -0.5613(8) -0.5283(5) -0.182(1)
C32 C -0.5046(9) -0.4373(4) -0.255(1)
C33 C -0.5635(8) -0.4882(5) -0.122(1)
C34 C -0.4830(9) -0.3913(6) -0.289(1)
C35 C -0.5416(7) -0.4419(4) -0.158(1)
C36 C -0.4913(9) -0.3500(5) -0.236(1)
C37 C -0.5546(8) -0.3955(5) -0.102(1)
C38 C -0.5338(8) -0.3506(4) -0.1399(10)
C39 C -0.3609(8) -0.2400(4) 0.0439(9)
C40 C -0.4109(8) -0.3016(4) 0.1473(10)
C41 C -0.4236(7) -0.2511(5) -0.0306(8)
C42 C -0.4742(8) -0.3168(4) 0.078(1)
C43 C -0.4806(8) -0.2910(4) -0.0142(9)
C44 C -0.5530(8) -0.3033(4) -0.0868(9)
O5A O -0.2085(6) -0.3401(3) 0.1834(7)
O7A O -0.2891(6) -0.1597(3) 0.1841(7)
N4A N -0.1446(6) -0.2355(3) 0.1309(7)
N5A N -0.1441(6) -0.2647(3) 0.3709(7)
C21A C -0.0892(8) -0.1977(4) 0.147(1)
C22A C -0.1393(8) -0.2602(4) 0.0441(9)
C39A C -0.1391(8) -0.2400(4) 0.4561(9)
C40A C -0.0891(8) -0.3016(4) 0.3527(10)
C19A C -0.0263(8) -0.1843(4) 0.077(1)
C20A C -0.0767(7) -0.2485(5) -0.0304(9)
C41A C -0.0764(7) -0.2511(5) 0.5306(8)
C42A C -0.0258(8) -0.3168(4) 0.422(1)
C18A C -0.0172(8) -0.2097(4) -0.0104(10)
C43A C -0.0194(8) -0.2910(4) 0.5142(9)
C17A C 0.0529(8) -0.1970(4) -0.0866(10)
C44A C 0.0530(8) -0.3033(4) 0.5868(9)
C16A C 0.0334(8) -0.1483(4) -0.1410(9)
C38A C 0.0338(8) -0.3506(4) 0.6399(10)
C14A C 0.0536(8) -0.1044(5) -0.107(1)
C15A C -0.0064(9) -0.1491(5) -0.235(1)
C36A C -0.0087(9) -0.3500(5) 0.736(1)
C37A C 0.0546(8) -0.3955(5) 0.602(1)
F11A F 0.0918(4) -0.1022(2) -0.0109(6)
C12A C 0.0407(7) -0.0594(4) -0.1572(9)
F12A F -0.0306(6) -0.1933(3) -0.2734(6)
C13A C -0.0187(9) -0.1086(5) -0.293(1)
F5A F -0.0304(6) -0.3072(3) 0.7734(7)
C34A C -0.0170(9) -0.3913(6) 0.789(1)
F6A F 0.0923(5) -0.3980(2) 0.5100(6)
C35A C 0.0416(7) -0.4419(4) 0.658(1)
C10A C 0.0638(8) -0.0123(5) -0.123(1)
C11A C 0.0047(8) -0.0637(5) -0.256(1)
F10A F -0.0536(5) -0.1125(3) -0.3863(6)
F4A F -0.0555(5) -0.3873(3) 0.8863(6)
C32A C 0.0046(9) -0.4373(4) 0.755(1)
C33A C 0.0635(8) -0.4882(5) 0.622(1)
F9A F 0.0947(4) -0.0084(2) -0.0271(5)
C8A C 0.0601(8) 0.0287(4) -0.183(1)
C9A C 0.0001(8) -0.0173(5) -0.3144(10)
C30A C 0.0000(9) -0.4828(5) 0.812(1)
F3A F 0.0953(4) -0.4911(3) 0.5270(5)
C31A C 0.0613(8) -0.5283(5) 0.682(1)
F7A F 0.0840(5) 0.0715(3) -0.1438(6)
C7A C 0.0273(8) 0.0257(5) -0.282(1)
F8A F -0.0318(5) -0.0205(3) -0.4061(6)
F1A F -0.0344(5) -0.4802(3) 0.9068(6)
C29A C 0.0268(8) -0.5250(5) 0.783(1)
F2A F 0.0844(5) -0.5711(3) 0.6423(6)
C6A C 0.0335(8) 0.0714(4) -0.3492(10)
C28A C 0.0343(8) -0.5701(4) 0.8517(10)
C5A C -0.0322(8) 0.1108(4) -0.3223(9)
C27A C -0.0333(7) -0.6105(4) 0.8217(9)
Cd1_2 Cd -0.2500 0.24999(5) 0.7500
C3A C -0.0935(7) 0.1061(4) -0.2476(9)
C4A C -0.0274(8) 0.1553(4) -0.3794(9)
C25A C -0.0275(8) -0.6553(4) 0.8775(9)
C26A C -0.0950(7) -0.6064(4) 0.7472(9)
O1A O -0.2072(5) -0.7805(3) -0.0758(6)
O2A O -0.2941(5) -0.7189(3) -0.0747(6)
N1_2 N -0.3550(6) -0.8117(3) -0.2215(8)
N1A N -0.1450(6) -0.8117(3) -0.2785(8)
N2A N -0.1456(6) -0.6880(3) -0.2218(8)
C1A C -0.1502(7) 0.1460(4) -0.2247(9)
C2A C -0.0845(8) 0.1930(4) -0.3534(10)
C23A C -0.0865(7) -0.6931(4) 0.8536(9)
C24A C -0.1495(7) -0.6457(4) 0.7263(9)
N3A N -0.2503(6) -0.7497(5) -0.0269(7)
N1A_2 N -0.1450(6) 0.1883(3) -0.2785(8)
N2A_2 N -0.1456(6) -0.6880(3) 0.7782(8)
O3A O -0.2508(5) -0.7505(4) 0.0674(6)
Cd1_3 Cd -0.2500 0.24999(5) -0.2500
Cd1_4 Cd -0.2500 -0.75001(5) 0.7500
C45 C -0.698(3) 0.606(2) 0.578(3)
C46 C -0.698(1) 0.554(1) 0.578(2)
C47 C -0.722(2) 0.633(1) 0.657(3)
C48 C -0.7233(10) 0.5297(7) 0.662(1)
C49 C -0.7500 0.611(1) 0.7500
C50 C -0.7500 0.5555(7) 0.7500
C47A C -0.778(2) 0.633(1) 0.843(3)
C48A C -0.7767(10) 0.5297(7) 0.838(1)
C45A C -0.802(3) 0.606(2) 0.922(3)
C46A C -0.802(1) 0.554(1) 0.922(2)
C51 C -0.777(2) 0.429(1) 0.404(2)
C52 C -0.783(2) 0.366(1) 0.414(2)
C53 C -0.770(2) 0.462(2) 0.331(2)
C54 C -0.766(1) 0.336(1) 0.327(2)
C55 C -0.7500 0.416(1) 0.2500
C56 C -0.7500 0.365(1) 0.2500
C53A C -0.730(2) 0.462(2) 0.169(2)
C54A C -0.734(1) 0.336(1) 0.173(2)
C51A C -0.723(2) 0.429(1) 0.096(2)
C52A C -0.717(2) 0.366(1) 0.086(2)
C57 C -0.719(1) 0.1348(9) 0.424(2)
C58 C -0.720(2) 0.076(1) 0.425(2)
C59 C -0.735(1) 0.1615(9) 0.337(2)
C60 C -0.734(1) 0.0445(10) 0.335(2)
C61 C -0.7500 0.133(2) 0.2500
C62 C -0.7500 0.083(1) 0.2500
C59A C -0.765(1) 0.1615(9) 0.163(2)
C60A C -0.766(1) 0.0445(10) 0.165(2)
C57A C -0.781(1) 0.1348(9) 0.076(2)
C58A C -0.780(2) 0.076(1) 0.075(2)
C63 C -0.202(3) 0.111(2) 0.414(4)
C64 C -0.1980(9) 0.059(1) 0.425(2)
C65 C -0.218(3) 0.136(2) 0.348(4)
C66 C -0.2226(9) 0.0300(7) 0.338(1)
C67 C -0.2500 0.108(1) 0.2500
C68 C -0.2500 0.0568(8) 0.2500
C65A C -0.282(3) 0.136(2) 0.152(4)
C66A C -0.2774(9) 0.0300(7) 0.162(1)
C63A C -0.298(3) 0.111(2) 0.086(4)
C64A C -0.3020(9) 0.059(1) 0.075(2)
loop_
_geom_bond_atom_site_label_1
_geom_bond_atom_site_label_2
_geom_bond_site_symmetry_1
_geom_bond_site_symmetry_2
Cd1 O1 1_555 1_555
Cd2 O5 1_555 1_555
F1 C30 1_555 1_555
F2 C31 1_555 1_555
F3 C33 1_555 1_555
F4 C34 1_555 1_555
F5 C36 1_555 1_555
F6 C37 1_555 1_555
F7 C8 1_555 1_555
F8 C9 1_555 1_555
F9 C10 1_555 1_555
F10 C13 1_555 1_555
F11 C14 1_555 1_555
F12 C15 1_555 1_555
O1 N3 1_555 1_555
O2 Cd1 1_555 1_555
O3 N3 1_555 1_555
O4 N6 1_555 1_555
O5 N6 1_555 1_555
O6 N7 1_555 1_555
O7 Cd2 1_555 1_555
N1 C1 1_555 1_555
N2 Cd1 1_555 1_555
N3 O2 1_555 1_555
N4 Cd2 1_555 1_555
N5 Cd2 1_555 1_555
N6 O5A 1_555 1_555
N7 O7 1_555 1_555
C1 C3 1_555 1_555
C2 N1 1_555 1_555
C3 C5 1_555 1_555
C4 C2 1_555 1_555
C5 C4 1_555 1_555
C6 C5 1_555 1_555
C7 C6 1_555 1_555
C8 C7 1_555 1_555
C9 C7 1_555 1_555
C10 C8 1_555 1_555
C11 C9 1_555 1_555
C12 C10 1_555 1_555
C13 C11 1_555 1_555
C14 C12 1_555 1_555
C15 C13 1_555 1_555
C16 C14 1_555 1_555
C17 C16 1_555 1_555
C18 C17 1_555 1_555
C19 C18 1_555 1_555
C20 C18 1_555 1_555
C21 N4 1_555 1_555
C22 N4 1_555 1_555
C23 N2 1_555 1_555
C24 N2 1_555 1_555
C25 C23 1_555 1_555
C26 C24 1_555 1_555
C27 C25 1_555 1_555
C28 C27 1_555 1_555
C29 C28 1_555 1_555
C30 C29 1_555 1_555
C31 C29 1_555 1_555
C32 C30 1_555 1_555
C33 C31 1_555 1_555
C34 C32 1_555 1_555
C35 C32 1_555 1_555
C36 C34 1_555 1_555
C37 C35 1_555 1_555
C38 C36 1_555 1_555
C39 N5 1_555 1_555
C40 N5 1_555 1_555
C41 C39 1_555 1_555
C42 C40 1_555 1_555
C43 C41 1_555 1_555
C44 C38 1_555 1_555
C45 C46 1_555 1_555
C46 C48 1_555 1_555
C47 C45 1_555 1_555
C48 C50 1_555 1_555
C49 C47 1_555 1_555
C50 C49 1_555 1_555
C51 C52 1_555 1_555
C52 C54 1_555 1_555
C53 C51 1_555 1_555
C54 C56 1_555 1_555
C55 C53 1_555 1_555
C56 C55 1_555 1_555
C57 C58 1_555 1_555
C58 C60 1_555 1_555
C59 C57 1_555 1_555
C60 C62 1_555 1_555
C61 C59 1_555 1_555
C62 C61 1_555 1_555
C63 C64 1_555 1_555
C64 C66 1_555 1_555
C65 C63 1_555 1_555
C66 C68 1_555 1_555
C67 C65 1_555 1_555
C68 C67 1_555 1_555
O5A Cd2 1_555 1_555
O7A Cd2 1_555 1_555
N4A Cd2 1_555 1_555
N5A Cd2 1_555 1_555
C47A C49 1_555 1_555
C48A C50 1_555 1_555
C53A C55 1_555 1_555
C54A C56 1_555 1_555
C59A C61 1_555 1_555
C60A C62 1_555 1_555
C65A C67 1_555 1_555
C66A C68 1_555 1_555
C21A N4A 1_555 1_555
C22A N4A 1_555 1_555
C39A N5A 1_555 1_555
C40A N5A 1_555 1_555
C45A C47A 1_555 1_555
C46A C48A 1_555 1_555
C51A C53A 1_555 1_555
C52A C54A 1_555 1_555
C57A C59A 1_555 1_555
C58A C60A 1_555 1_555
C63A C65A 1_555 1_555
C64A C66A 1_555 1_555
C19A C21A 1_555 1_555
C20A C22A 1_555 1_555
C41A C39A 1_555 1_555
C42A C40A 1_555 1_555
C18A C19A 1_555 1_555
C43A C41A 1_555 1_555
C17A C18A 1_555 1_555
C44A C43A 1_555 1_555
C16A C17A 1_555 1_555
C38A C44A 1_555 1_555
C14A C16A 1_555 1_555
C15A C16A 1_555 1_555
C36A C38A 1_555 1_555
C37A C38A 1_555 1_555
F11A C14A 1_555 1_555
C12A C14A 1_555 1_555
F12A C15A 1_555 1_555
C13A C15A 1_555 1_555
F5A C36A 1_555 1_555
C34A C36A 1_555 1_555
F6A C37A 1_555 1_555
C35A C37A 1_555 1_555
C10A C12A 1_555 1_555
C11A C12A 1_555 1_555
F10A C13A 1_555 1_555
F4A C34A 1_555 1_555
C32A C34A 1_555 1_555
C33A C35A 1_555 1_555
F9A C10A 1_555 1_555
C8A C10A 1_555 1_555
C9A C11A 1_555 1_555
C30A C32A 1_555 1_555
F3A C33A 1_555 1_555
C31A C33A 1_555 1_555
F7A C8A 1_555 1_555
C7A C8A 1_555 1_555
F8A C9A 1_555 1_555
F1A C30A 1_555 1_555
C29A C30A 1_555 1_555
F2A C31A 1_555 1_555
C6A C7A 1_555 1_555
C28A C29A 1_555 1_555
C5A C6A 1_555 1_555
C27A C28A 1_555 1_555
Cd1_2 N1 1_555 1_555
C3A C5A 1_555 1_555
C4A C5A 1_555 1_555
C25A C27A 1_555 1_555
C26A C27A 1_555 1_555
O1A Cd1 1_555 1_555
O2A Cd1 1_555 1_555
N1_2 Cd1 1_555 1_555
N1A Cd1 1_555 1_555
N2A Cd1 1_555 1_555
C1A C3A 1_555 1_555
C2A C4A 1_555 1_555
C23A C25A 1_555 1_555
C24A C26A 1_555 1_555
N3A O1A 1_555 1_555
N1A_2 C1A 1_555 1_555
N2A_2 C23A 1_555 1_555
O3A N3A 1_555 1_555
Cd1_3 N1A_2 1_555 1_555
Cd1_4 N2A_2 1_555 1_555
N7 O7A 1_555 1_555
C11 C12 1_555 1_555
C15 C16 1_555 1_555
C19 C21 1_555 1_555
C20 C22 1_555 1_555
C26 C27 1_555 1_555
C33 C35 1_555 1_555
C37 C38 1_555 1_555
C42 C43 1_555 1_555
C43 C44 1_555 1_555
C45A C46A 1_555 1_555
C51A C52A 1_555 1_555
C57A C58A 1_555 1_555
C63A C64A 1_555 1_555
C20A C18A 1_555 1_555
C42A C43A 1_555 1_555
C13A C11A 1_555 1_555
C35A C32A 1_555 1_555
C9A C7A 1_555 1_555
C31A C29A 1_555 1_555
O2A N3A 1_555 1_555
C2A N1A_2 1_555 1_555
C24A N2A_2 1_555 1_555

#END
