
#######################################################################
#
#                 Cambridge Crystallographic Data Centre
#                                CCDC 
#
#######################################################################
#
# If this CIF has been generated from an entry in the Cambridge 
# Structural Database, then it will include bibliographic, chemical, 
# crystal, experimental, refinement or atomic coordinate data resulting 
# from the CCDC's data processing and validation procedures.
#
#######################################################################

data_QIFDUE
_symmetry_cell_setting           triclinic
_symmetry_space_group_name_H-M   'P -1'
_symmetry_Int_Tables_number      2
_space_group_name_Hall           '-P 1'
loop_
_symmetry_equiv_pos_site_id
_symmetry_equiv_pos_as_xyz
1 x,y,z
2 -x,-y,-z
_cell_length_a                   9.646(2)
_cell_length_b                   10.352(2)
_cell_length_c                   17.031(3)
_cell_angle_alpha                79.02(3)
_cell_angle_beta                 86.88(3)
_cell_angle_gamma                77.16(3)
_cell_volume                     1627.63
loop_
_atom_site_label
_atom_site_type_symbol
_atom_site_fract_x
_atom_site_fract_y
_atom_site_fract_z
N3 N 0.8173(5) 0.6852(5) -0.1179(3)
C25 C 0.9457(7) 0.6267(6) -0.0910(3)
H23 H 0.9484 0.5233 -0.0842
C26 C 1.0436(6) 0.6932(8) -0.0763(4)
H24 H 1.1592 0.6379 -0.0763
C27 C 1.0104(8) 0.8287(8) -0.0912(4)
H25 H 1.0767 0.8923 -0.0833
C28 C 0.8797(8) 0.8936(6) -0.1197(4)
H26 H 0.8247 0.9981 -0.1249
C29 C 0.7845(6) 0.8170(6) -0.1325(4)
H27 H 0.6741 0.8681 -0.1458
N4 N 1.1891(5) 0.8006(5) 0.6228(3)
C30 C 1.1395(7) 0.8018(6) 0.5537(4)
H28 H 1.1828 0.8447 0.5053
C31 C 1.0353(9) 0.7359(9) 0.5439(4)
H29 H 1.0135 0.7341 0.4886
C32 C 0.9790(8) 0.6695(8) 0.6083(5)
H30 H 0.9190 0.6059 0.5970
C33 C 1.0312(8) 0.6631(7) 0.6813(4)
H31 H 0.9994 0.5850 0.7220
C34 C 1.1355(7) 0.7322(6) 0.6849(4)
H32 H 1.1673 0.7284 0.7423
Co1 Co 0.5000 0.5000 0.0000
Co2 Co 1.5000 1.0000 0.5000
O1 O 0.6305(3) 0.5622(3) 0.07044(16)
O2 O 0.5095(3) 0.5698(3) 0.18478(18)
O3 O 1.3616(3) 0.9686(3) 0.42035(18)
O4 O 1.4991(4) 0.9333(4) 0.31386(18)
O5 O 0.6661(3) 0.4764(3) -0.08492(17)
H1 H 0.6291 0.4629 -0.1290
H2 H 0.6892 0.5504 -0.1010
O6 O 1.3364(3) 1.0105(3) 0.58696(17)
H3 H 1.3824 1.0273 0.6349
H4 H 1.2964 0.9331 0.6069
N1 N 0.4269(4) 0.7098(3) -0.0559(2)
N2 N 1.4305(4) 1.2193(4) 0.4618(2)
C1 C 0.6131(5) 0.5872(4) 0.1398(3)
C2 C 0.7251(5) 0.6436(4) 0.1708(2)
C3 C 0.7242(5) 0.6572(5) 0.2495(3)
H5 H 0.6131 0.6775 0.2792
C4 C 0.8292(5) 0.7097(5) 0.2770(3)
H6 H 0.8323 0.7178 0.3403
C5 C 0.9383(5) 0.7444(4) 0.2276(2)
C6 C 0.9386(5) 0.7304(4) 0.1486(2)
H7 H 1.0128 0.7526 0.1124
C7 C 0.8327(4) 0.6795(4) 0.1208(2)
H8 H 0.8298 0.6823 0.0625
C8 C 1.0517(5) 0.7980(4) 0.2582(2)
C9 C 1.0201(5) 0.8848(5) 0.3123(3)
H9 H 0.9094 0.9142 0.3362
C10 C 1.1278(5) 0.9303(4) 0.3424(3)
H10 H 1.1088 1.0023 0.3854
C11 C 1.2667(5) 0.8929(4) 0.3175(2)
C12 C 1.2975(5) 0.8096(4) 0.2614(2)
H11 H 1.3913 0.7835 0.2455
C13 C 1.1917(5) 0.7605(4) 0.2324(3)
H12 H 1.2224 0.6987 0.1858
C14 C 1.3866(5) 0.9366(5) 0.3528(3)
C15 C 0.4132(5) 0.7444(5) -0.1354(3)
H13 H 0.4179 0.6617 -0.1662
C16 C 0.3786(5) 0.8751(5) -0.1738(3)
H14 H 0.3859 0.8854 -0.2342
C17 C 0.3565(6) 0.9761(5) -0.1320(4)
H15 H 0.3149 1.0773 -0.1553
C18 C 0.3665(6) 0.9444(5) -0.0510(4)
H16 H 0.3503 0.9998 -0.0108
C19 C 0.4011(5) 0.8090(5) -0.0147(3)
H17 H 0.4142 0.7803 0.0531
C20 C 1.4289(6) 1.2794(6) 0.3865(3)
H18 H 1.4530 1.2232 0.3446
C21 C 1.3902(7) 1.4164(7) 0.3607(4)
H19 H 1.3738 1.4597 0.2971
C22 C 1.3447(7) 1.4944(7) 0.4166(4)
H20 H 1.3264 1.5897 0.4029
C23 C 1.3426(7) 1.4360(6) 0.4952(4)
H21 H 1.3010 1.4981 0.5398
C24 C 1.3872(6) 1.2990(5) 0.5153(3)
H22 H 1.3941 1.2461 0.5793
O1A O 0.3695(3) 0.4378(3) -0.07044(16)
O5A O 0.3339(3) 0.5236(3) 0.08492(17)
N1A N 0.5731(4) 0.2902(3) 0.0559(2)
O3A O 1.6384(3) 1.0314(3) 0.57965(18)
O6A O 1.6636(3) 0.9895(3) 0.41304(17)
N2A N 1.5695(4) 0.7807(4) 0.5382(2)
C20A C 1.5711(6) 0.7206(6) 0.6135(3)
C24A C 1.6128(6) 0.7010(5) 0.4847(3)
C23A C 1.6574(7) 0.5640(6) 0.5048(4)
H22A H 1.6059 0.7539 0.4207
H18A H 1.5470 0.7768 0.6554
C21A C 1.6098(7) 0.5836(7) 0.6393(4)
C22A C 1.6553(7) 0.5056(7) 0.5834(4)
H21A H 1.6990 0.5019 0.4602
H19A H 1.6262 0.5403 0.7029
H20A H 1.6736 0.4103 0.5971
C15A C 0.5868(5) 0.2556(5) 0.1354(3)
C19A C 0.5989(5) 0.1910(5) 0.0147(3)
C18A C 0.6335(6) 0.0556(5) 0.0510(4)
H17A H 0.5858 0.2197 -0.0531
H13A H 0.5821 0.3383 0.1662
C16A C 0.6214(5) 0.1249(5) 0.1738(3)
H14A H 0.6141 0.1146 0.2342
C17A C 0.6435(6) 0.0239(5) 0.1320(4)
H16A H 0.6497 0.0002 0.0108
H15A H 0.6851 -0.0773 0.1553
C1A C 0.3869(5) 0.4128(4) -0.1398(3)
H1A H 0.3709 0.5371 0.1290
H2A H 0.3108 0.4496 0.1010
O2A O 0.4905(3) 0.4302(3) -0.18478(18)
C2A C 0.2749(5) 0.3564(4) -0.1708(2)
C3A C 0.2758(5) 0.3428(5) -0.2495(3)
C7A C 0.1673(4) 0.3205(4) -0.1208(2)
H5A H 0.3869 0.3225 -0.2792
C4A C 0.1708(5) 0.2903(5) -0.2770(3)
C6A C 0.0614(5) 0.2696(4) -0.1486(2)
H8A H 0.1702 0.3177 -0.0625
H6A H 0.1677 0.2822 -0.3403
C5A C 0.0617(5) 0.2556(4) -0.2276(2)
H7A H -0.0128 0.2474 -0.1124
C8A C -0.0517(5) 0.2020(4) -0.2582(2)
C9A C -0.0201(5) 0.1152(5) -0.3123(3)
C13A C -0.1917(5) 0.2395(4) -0.2324(3)
H9A H 0.0906 0.0858 -0.3362
C10A C -0.1278(5) 0.0697(4) -0.3424(3)
C12A C -0.2975(5) 0.1904(4) -0.2614(2)
H12A H -0.2224 0.3013 -0.1858
H10A H -0.1088 -0.0023 -0.3854
C11A C -0.2667(5) 0.1071(4) -0.3175(2)
H11A H -0.3913 0.2165 -0.2455
C14A C -0.3866(5) 0.0634(5) -0.3528(3)
O3A_2 O -0.3616(3) 0.0314(3) -0.42035(18)
O4A O -0.4991(4) 0.0667(4) -0.31386(18)
Co2_2 Co -0.5000 0.0000 -0.5000
loop_
_geom_bond_atom_site_label_1
_geom_bond_atom_site_label_2
_geom_bond_site_symmetry_1
_geom_bond_site_symmetry_2
Co1 O1 1_555 1_555
Co2 O3 1_555 1_555
O1 C1 1_555 1_555
O2 C1 1_555 1_555
O3 C14 1_555 1_555
O4 C14 1_555 1_555
O5 Co1 1_555 1_555
H1 O5 1_555 1_555
H2 O5 1_555 1_555
O6 Co2 1_555 1_555
H3 O6 1_555 1_555
H4 O6 1_555 1_555
N1 Co1 1_555 1_555
N2 Co2 1_555 1_555
N3 C25 1_555 1_555
N4 C30 1_555 1_555
C1 C2 1_555 1_555
C2 C3 1_555 1_555
C3 H5 1_555 1_555
C4 C3 1_555 1_555
H6 C4 1_555 1_555
C5 C4 1_555 1_555
C6 C5 1_555 1_555
H7 C6 1_555 1_555
C7 C2 1_555 1_555
H8 C7 1_555 1_555
C8 C5 1_555 1_555
C9 C8 1_555 1_555
H9 C9 1_555 1_555
C10 C9 1_555 1_555
H10 C10 1_555 1_555
C11 C10 1_555 1_555
C12 C11 1_555 1_555
H11 C12 1_555 1_555
C13 C8 1_555 1_555
H12 C13 1_555 1_555
C14 C11 1_555 1_555
C15 N1 1_555 1_555
H13 C15 1_555 1_555
C16 C15 1_555 1_555
H14 C16 1_555 1_555
C17 C16 1_555 1_555
H15 C17 1_555 1_555
C18 C17 1_555 1_555
H16 C18 1_555 1_555
C19 N1 1_555 1_555
H17 C19 1_555 1_555
C20 N2 1_555 1_555
H18 C20 1_555 1_555
C21 C20 1_555 1_555
H19 C21 1_555 1_555
C22 C21 1_555 1_555
H20 C22 1_555 1_555
C23 C22 1_555 1_555
H21 C23 1_555 1_555
C24 N2 1_555 1_555
H22 C24 1_555 1_555
C25 H23 1_555 1_555
C26 C25 1_555 1_555
H24 C26 1_555 1_555
C27 C26 1_555 1_555
H25 C27 1_555 1_555
C28 C27 1_555 1_555
H26 C28 1_555 1_555
C29 N3 1_555 1_555
H27 C29 1_555 1_555
C30 H28 1_555 1_555
C31 C30 1_555 1_555
H29 C31 1_555 1_555
C32 C31 1_555 1_555
H30 C32 1_555 1_555
C33 C32 1_555 1_555
H31 C33 1_555 1_555
C34 N4 1_555 1_555
H32 C34 1_555 1_555
O1A Co1 1_555 1_555
O5A Co1 1_555 1_555
N1A Co1 1_555 1_555
O3A Co2 1_555 1_555
O6A Co2 1_555 1_555
N2A Co2 1_555 1_555
C20A N2A 1_555 1_555
C24A N2A 1_555 1_555
C23A C24A 1_555 1_555
H22A C24A 1_555 1_555
H18A C20A 1_555 1_555
C21A C20A 1_555 1_555
C22A C23A 1_555 1_555
H21A C23A 1_555 1_555
H19A C21A 1_555 1_555
H20A C22A 1_555 1_555
C15A N1A 1_555 1_555
C19A N1A 1_555 1_555
C18A C19A 1_555 1_555
H17A C19A 1_555 1_555
H13A C15A 1_555 1_555
C16A C15A 1_555 1_555
H14A C16A 1_555 1_555
C17A C18A 1_555 1_555
H16A C18A 1_555 1_555
H15A C17A 1_555 1_555
C1A O1A 1_555 1_555
H1A O5A 1_555 1_555
H2A O5A 1_555 1_555
O2A C1A 1_555 1_555
C2A C1A 1_555 1_555
C3A C2A 1_555 1_555
C7A C2A 1_555 1_555
H5A C3A 1_555 1_555
C4A C3A 1_555 1_555
C6A C7A 1_555 1_555
H8A C7A 1_555 1_555
H6A C4A 1_555 1_555
C5A C4A 1_555 1_555
H7A C6A 1_555 1_555
C8A C5A 1_555 1_555
C9A C8A 1_555 1_555
C13A C8A 1_555 1_555
H9A C9A 1_555 1_555
C10A C9A 1_555 1_555
C12A C13A 1_555 1_555
H12A C13A 1_555 1_555
H10A C10A 1_555 1_555
C11A C10A 1_555 1_555
H11A C12A 1_555 1_555
C14A C11A 1_555 1_555
O3A_2 C14A 1_555 1_555
O4A C14A 1_555 1_555
Co2_2 O3A_2 1_555 1_555
C6 C7 1_555 1_555
C12 C13 1_555 1_555
C18 C19 1_555 1_555
C23 C24 1_555 1_555
C28 C29 1_555 1_555
C33 C34 1_555 1_555
C21A C22A 1_555 1_555
C16A C17A 1_555 1_555
C6A C5A 1_555 1_555
C12A C11A 1_555 1_555

#END
