
#######################################################################
#
#                 Cambridge Crystallographic Data Centre
#                                CCDC 
#
#######################################################################
#
# If this CIF has been generated from an entry in the Cambridge 
# Structural Database, then it will include bibliographic, chemical, 
# crystal, experimental, refinement or atomic coordinate data resulting 
# from the CCDC's data processing and validation procedures.
#
#######################################################################

data_QIFKOH
_symmetry_cell_setting           monoclinic
_symmetry_space_group_name_H-M   'C 2/c'
_symmetry_Int_Tables_number      15
_space_group_name_Hall           '-C 2yn'
loop_
_symmetry_equiv_pos_site_id
_symmetry_equiv_pos_as_xyz
1 x,y,z
2 -x,y,1/2-z
3 1/2+x,1/2+y,z
4 1/2-x,1/2+y,1/2-z
5 -x,-y,-z
6 x,-y,1/2+z
7 1/2-x,1/2-y,-z
8 1/2+x,1/2-y,1/2+z
_cell_length_a                   14.754(2)
_cell_length_b                   24.039(3)
_cell_length_c                   25.304(3)
_cell_angle_alpha                90
_cell_angle_beta                 101.283(3)
_cell_angle_gamma                90
_cell_volume                     8801.15
loop_
_atom_site_label
_atom_site_type_symbol
_atom_site_fract_x
_atom_site_fract_y
_atom_site_fract_z
C1 C 0.0109(4) 0.0779(2) 0.6711(3)
H1 H 0.0202 0.0396 0.6710
C2 C -0.0731(4) 0.0982(3) 0.6454(3)
H2 H -0.1165 0.0736 0.6267
C3 C -0.0947(3) 0.1521(2) 0.64629(18)
C4 C -0.0246(4) 0.1845(2) 0.6727(2)
H3 H -0.0342 0.2225 0.6754
C5 C 0.0590(4) 0.1626(2) 0.6952(2)
H4 H 0.1052 0.1870 0.7112
C6 C -0.1846(3) 0.1729(2) 0.61855(18)
C7 C -0.2545(3) 0.1350(2) 0.59796(18)
H5 H -0.2448 0.0971 0.6040
C8 C -0.3371(3) 0.1534(2) 0.56911(19)
C9 C -0.3542(3) 0.2094(2) 0.55948(19)
H6 H -0.4100 0.2211 0.5387
C10 C -0.2872(4) 0.2477(2) 0.5812(2)
C11 C -0.2033(3) 0.2287(2) 0.6109(2)
H7 H -0.1586 0.2545 0.6259
C12 C -0.3083(4) 0.3077(3) 0.5725(3)
C13 C -0.3470(4) 0.3268(3) 0.5222(3)
H8 H -0.3558 0.3030 0.4926
C14 C -0.3722(6) 0.3810(4) 0.5161(4)
H9 H -0.3974 0.3933 0.4815
C15 C -0.3268(5) 0.3997(3) 0.6041(4)
H10 H -0.3206 0.4244 0.6329
C16 C -0.2964(5) 0.3454(3) 0.6143(3)
H11 H -0.2683 0.3346 0.6489
C17 C -0.3906(3) 0.0620(2) 0.5425(2)
C18 C -0.4083(3) 0.0227(3) 0.5776(2)
H12 H -0.4288 0.0336 0.6086
C19 C -0.3962(3) -0.0339(3) 0.5679(2)
C20 C -0.3627(3) -0.0484(2) 0.5220(2)
H13 H -0.3528 -0.0857 0.5154
C21 C -0.3436(3) -0.0087(2) 0.48590(19)
C22 C -0.3574(3) 0.0476(2) 0.4957(2)
H14 H -0.3451 0.0748 0.4720
C23 C -0.4217(4) -0.0777(3) 0.6041(2)
C24 C -0.4090(5) -0.0706(3) 0.6598(3)
H15 H -0.3829 -0.0386 0.6770
C25 C -0.4394(6) -0.1171(4) 0.6895(3)
H16 H -0.4299 -0.1148 0.7269
C26 C -0.4880(5) -0.1662(4) 0.6150(3)
H17 H -0.5135 -0.1992 0.5995
C27 C -0.4627(4) -0.1259(3) 0.5818(3)
H18 H -0.4733 -0.1313 0.5447
C28 C -0.3116(3) -0.02542(19) 0.43643(19)
C29 C -0.2462(3) -0.0667(2) 0.4365(2)
H19 H -0.2214 -0.0850 0.4685
C30 C -0.2177(4) -0.0809(2) 0.3896(2)
H20 H -0.1723 -0.1080 0.3911
C31 C -0.3170(3) -0.0192(2) 0.3418(2)
H21 H -0.3431 -0.0032 0.3089
C32 C -0.3479(3) -0.0016(2) 0.3868(2)
H22 H -0.3927 0.0260 0.3840
C33 C 0.3461(3) 0.1243(2) 0.77866(17)
C34 C 0.4209(3) 0.16322(19) 0.80561(16)
C35 C 0.4032(3) 0.21876(19) 0.81092(16)
H23 H 0.3441 0.2325 0.7982
C36 C 0.4728(3) 0.25450(18) 0.83509(16)
H24 H 0.4601 0.2921 0.8384
C37 C 0.5612(3) 0.23461(18) 0.85438(16)
C38 C 0.5783(3) 0.17900(19) 0.84947(19)
H25 H 0.6370 0.1650 0.8628
C39 C 0.5088(3) 0.14362(19) 0.82486(18)
H26 H 0.5216 0.1061 0.8213
C40 C 0.6359(3) 0.27566(18) 0.88306(17)
C41 C 0.6327(3) 0.33106(18) 0.85318(18)
C42 C 0.6465(3) 0.3818(2) 0.8774(2)
H27 H 0.6501 0.3845 0.9144
C43 C 0.6552(4) 0.4294(2) 0.8479(3)
H28 H 0.6679 0.4632 0.8657
C44 C 0.6452(3) 0.4275(2) 0.7927(3)
C45 C 0.6295(4) 0.3770(2) 0.7685(2)
H29 H 0.6232 0.3746 0.7313
C46 C 0.6226(3) 0.3293(2) 0.7978(2)
H30 H 0.6109 0.2955 0.7800
C47 C 0.6586(4) 0.4782(3) 0.7598(3)
C48 C 0.7346(3) 0.2527(2) 0.8863(3)
C49 C 0.6176(4) 0.2827(3) 0.9398(2)
F1 F 0.74902(19) 0.23637(13) 0.83958(15)
F2 F 0.7533(2) 0.21011(13) 0.92060(14)
F3 F 0.7971(2) 0.29150(13) 0.90533(16)
F4 F 0.6061(2) 0.23443(14) 0.96360(11)
F5 F 0.6847(2) 0.30966(14) 0.97294(12)
F6 F 0.5404(2) 0.31219(14) 0.93985(11)
N1 N 0.0789(3) 0.10929(19) 0.69582(15)
N2 N -0.3637(5) 0.4178(3) 0.5557(4)
N3 N -0.4782(6) -0.1604(4) 0.6666(4)
N4 N -0.2523(3) -0.05761(15) 0.34239(15)
O1 O -0.4104(2) 0.11798(16) 0.54963(16)
O2 O 0.3648(2) 0.07383(15) 0.77544(14)
O3 O 0.2679(2) 0.14383(13) 0.76010(12)
O4 O 0.6475(5) 0.4742(2) 0.7116(3)
O5 O 0.6794(3) 0.52270(17) 0.7851(2)
Zn1 Zn 0.20520(4) 0.07442(2) 0.72802(2)
N4D N 0.2523(3) 0.05761(15) 0.65761(15)
O4B O 0.1475(5) -0.0258(2) 0.7116(3)
O5B O 0.1794(3) 0.02270(17) 0.7851(2)
Zn1B Zn 0.70520(4) 0.57442(2) 0.72802(2)
Zn1D Zn -0.20520(4) -0.07442(2) 0.27198(2)
O6 O 0.5000 0.0025(6) 0.7500
H31 H 0.5059 0.0084 0.7177
H31A H 0.4941 0.0084 0.7823
O7 O 0.0547(14) 0.0109(6) 0.4640(5)
H32 H 0.0583 0.0242 0.4955
H33 H 0.0044 0.0214 0.4440
H34? H 0.4588 0.0240 0.7578
loop_
_geom_bond_atom_site_label_1
_geom_bond_atom_site_label_2
_geom_bond_site_symmetry_1
_geom_bond_site_symmetry_2
C1 H1 1_555 1_555
C2 C1 1_555 1_555
H2 C2 1_555 1_555
C3 C2 1_555 1_555
C4 C3 1_555 1_555
H3 C4 1_555 1_555
C5 C4 1_555 1_555
H4 C5 1_555 1_555
C6 C3 1_555 1_555
C7 C6 1_555 1_555
H5 C7 1_555 1_555
C8 C7 1_555 1_555
C9 C8 1_555 1_555
H6 C9 1_555 1_555
C10 C9 1_555 1_555
C11 C6 1_555 1_555
H7 C11 1_555 1_555
C12 C10 1_555 1_555
C13 C12 1_555 1_555
H8 C13 1_555 1_555
C14 C13 1_555 1_555
H9 C14 1_555 1_555
C15 H10 1_555 1_555
C16 C12 1_555 1_555
H11 C16 1_555 1_555
C17 C18 1_555 1_555
C18 H12 1_555 1_555
C19 C18 1_555 1_555
C20 C19 1_555 1_555
H13 C20 1_555 1_555
C21 C20 1_555 1_555
C22 C17 1_555 1_555
H14 C22 1_555 1_555
C23 C19 1_555 1_555
C24 C23 1_555 1_555
H15 C24 1_555 1_555
C25 C24 1_555 1_555
H16 C25 1_555 1_555
C26 H17 1_555 1_555
C27 C23 1_555 1_555
H18 C27 1_555 1_555
C28 C21 1_555 1_555
C29 C28 1_555 1_555
H19 C29 1_555 1_555
C30 C29 1_555 1_555
H20 C30 1_555 1_555
C31 H21 1_555 1_555
C32 C28 1_555 1_555
H22 C32 1_555 1_555
C33 C34 1_555 1_555
C34 C35 1_555 1_555
C35 H23 1_555 1_555
C36 C35 1_555 1_555
H24 C36 1_555 1_555
C37 C36 1_555 1_555
C38 C37 1_555 1_555
H25 C38 1_555 1_555
C39 C34 1_555 1_555
H26 C39 1_555 1_555
C40 C37 1_555 1_555
C41 C40 1_555 1_555
C42 C41 1_555 1_555
H27 C42 1_555 1_555
C43 C42 1_555 1_555
H28 C43 1_555 1_555
C44 C43 1_555 1_555
C45 C44 1_555 1_555
H29 C45 1_555 1_555
C46 C41 1_555 1_555
H30 C46 1_555 1_555
C47 C44 1_555 1_555
C48 C40 1_555 1_555
C49 C40 1_555 1_555
F1 C48 1_555 1_555
F2 C48 1_555 1_555
F3 C48 1_555 1_555
F4 C49 1_555 1_555
F5 C49 1_555 1_555
F6 C49 1_555 1_555
N1 C1 1_555 1_555
N2 C14 1_555 1_555
N3 C25 1_555 1_555
N4 C30 1_555 1_555
O1 C8 1_555 1_555
O2 C33 1_555 1_555
O3 C33 1_555 1_555
O4 C47 1_555 1_555
O5 C47 1_555 1_555
Zn1 N1 1_555 1_555
O6 H31 1_555 1_555
O7 H32 1_555 1_555
H33 O7 1_555 1_555
N4D Zn1 1_555 1_555
O4B Zn1 1_555 1_555
O5B Zn1 1_555 1_555
Zn1B O4 1_555 1_555
Zn1D N4 1_555 1_555
H31A O6 1_555 1_555
C5 N1 1_555 1_555
C10 C11 1_555 1_555
C15 C16 1_555 1_555
C15 N2 1_555 1_555
C17 O1 1_555 1_555
C21 C22 1_555 1_555
C26 C27 1_555 1_555
C26 N3 1_555 1_555
C31 C32 1_555 1_555
C31 N4 1_555 1_555
C38 C39 1_555 1_555
C45 C46 1_555 1_555
O2 Zn1 1_555 1_555
O3 Zn1 1_555 1_555
O5 Zn1B 1_555 1_555

#END
