
#######################################################################
#
#                 Cambridge Crystallographic Data Centre
#                                CCDC 
#
#######################################################################
#
# If this CIF has been generated from an entry in the Cambridge 
# Structural Database, then it will include bibliographic, chemical, 
# crystal, experimental, refinement or atomic coordinate data resulting 
# from the CCDC's data processing and validation procedures.
#
#######################################################################

data_QIFKUN
_symmetry_cell_setting           hexagonal
_symmetry_space_group_name_H-M   'P 65'
_symmetry_Int_Tables_number      170
_space_group_name_Hall           'P 65'
loop_
_symmetry_equiv_pos_site_id
_symmetry_equiv_pos_as_xyz
1 x,y,z
2 -y,x-y,2/3+z
3 -x+y,-x,1/3+z
4 -x,-y,1/2+z
5 y,-x+y,1/6+z
6 x-y,x,5/6+z
_cell_length_a                   13.5717(12)
_cell_length_b                   13.5717(12)
_cell_length_c                   37.332(7)
_cell_angle_alpha                90
_cell_angle_beta                 90
_cell_angle_gamma                120
_cell_volume                     5954.98
loop_
_atom_site_label
_atom_site_type_symbol
_atom_site_fract_x
_atom_site_fract_y
_atom_site_fract_z
C1 C 0.7047(4) 0.9853(4) 0.93233(14)
H1 H 0.7833 1.0326 0.9326
C2 C 0.6466(4) 0.9665(4) 0.89993(12)
H2 H 0.6867 0.9991 0.8790
C3 C 0.5307(4) 0.9002(4) 0.89895(12)
C4 C 0.4762(4) 0.8555(4) 0.93117(13)
H3 H 0.3973 0.8119 0.9320
C5 C 0.5391(4) 0.8756(4) 0.96210(12)
H4 H 0.5007 0.8439 0.9834
C6 C 0.4671(4) 0.8782(3) 0.86464(12)
C7 C 0.5173(4) 0.8703(4) 0.83263(14)
H5 H 0.5903 0.8804 0.8323
C8 C 0.4535(5) 0.8469(4) 0.80148(13)
C9 C 0.3481(4) 0.8346(4) 0.80041(12)
H6 H 0.3101 0.8225 0.7787
C10 C 0.2971(4) 0.8403(4) 0.83216(13)
C11 C 0.3583(4) 0.8615(4) 0.86397(12)
H7 H 0.3248 0.8646 0.8853
C12 C 0.1778(4) 0.8180(4) 0.83266(13)
C13 C 0.1357(4) 0.8569(4) 0.80634(12)
H8 H 0.1816 0.8996 0.7874
C14 C 0.0220(4) 0.8315(4) 0.80840(12)
H9 H -0.0059 0.8595 0.7908
C15 C -0.0054(4) 0.7309(4) 0.85987(12)
H10 H -0.0531 0.6868 0.8783
C16 C 0.1049(4) 0.7534(4) 0.86002(12)
H11 H 0.1307 0.7257 0.8783
C17 C 0.4537(4) 0.7167(5) 0.76075(14)
C18 C 0.4381(4) 0.6911(5) 0.72457(13)
H12 H 0.4598 0.7488 0.7077
C19 C 0.3904(4) 0.5794(5) 0.71374(14)
C20 C 0.3566(4) 0.4938(4) 0.73942(15)
H13 H 0.3234 0.4183 0.7322
C21 C 0.3721(4) 0.5200(5) 0.77569(14)
C22 C 0.4218(4) 0.6328(5) 0.78592(14)
H14 H 0.4337 0.6519 0.8101
C23 C 0.3349(5) 0.4291(5) 0.80343(16)
C24 C 0.2479(5) 0.3198(6) 0.79655(16)
H15 H 0.2137 0.3011 0.7741
C25 C 0.2118(5) 0.2379(6) 0.8234(2)
H16 H 0.1518 0.1656 0.8182
C26 C 0.3405(6) 0.3600(7) 0.86193(17)
H17 H 0.3738 0.3767 0.8845
C27 C 0.3836(5) 0.4488(5) 0.83660(17)
H18 H 0.4445 0.5200 0.8424
C28 C 0.3741(5) 0.5498(5) 0.67516(14)
C29 C 0.4465(5) 0.6241(5) 0.64984(15)
H19 H 0.5079 0.6941 0.6564
C30 C 0.4257(5) 0.5920(6) 0.61418(16)
H20 H 0.4764 0.6423 0.5974
C31 C 0.2710(6) 0.4256(6) 0.62596(18)
H21 H 0.2104 0.3568 0.6182
C32 C 0.2838(5) 0.4484(5) 0.66205(16)
H22 H 0.2315 0.3954 0.6780
C33 C 1.0823(4) 1.1712(4) 1.01779(13)
C34 C 1.1515(4) 1.1949(4) 1.04814(12)
H23 H 1.1210 1.1538 1.0691
C35 C 1.2639(5) 1.2780(4) 1.04712(14)
H24 H 1.3093 1.2940 1.0674
C36 C 1.3090(4) 1.3375(4) 1.01582(17)
C37 C 1.2444(5) 1.3123(5) 0.98597(14)
H25 H 1.2767 1.3496 0.9646
C38 C 1.1297(4) 1.2305(4) 0.98732(13)
H26 H 1.0847 1.2162 0.9670
C39 C 1.4779(4) 1.4663(5) 0.98524(13)
C40 C 1.4936(5) 1.5674(5) 0.97286(17)
H27 H 1.4624 1.6043 0.9855
C41 C 1.5533(5) 1.6159(5) 0.94256(17)
H28 H 1.5640 1.6859 0.9350
C42 C 1.5984(4) 1.5612(5) 0.92285(16)
C43 C 1.5795(5) 1.4557(6) 0.93503(17)
H29 H 1.6082 1.4168 0.9222
C44 C 1.5185(5) 1.4095(5) 0.96595(17)
H30 H 1.5049 1.3387 0.9737
C45 C 0.9595(4) 1.0839(4) 1.02033(15)
C46 C 1.6672(5) 1.6131(7) 0.89235(15)
Zn1 Zn 0.74672(4) 0.95395(4) 1.007653(15)
N1 N 0.6513(3) 0.9375(3) 0.96291(10)
N2 N -0.0477(4) 0.7681(3) 0.83500(10)
N3 N 0.2578(5) 0.2562(5) 0.85644(17)
N4 N 0.3406(6) 0.4967(6) 0.60217(13)
O1 O 0.4996(2) 0.8301(3) 0.77003(8)
O2 O 1.4216(2) 1.4223(3) 1.01784(7)
O3 O 0.8998(2) 1.0804(2) 0.99389(8)
O4 O 0.9215(3) 1.0222(3) 1.04754(9)
O5 O 1.6620(6) 1.6908(4) 0.87556(13)
O6 O 1.7341(3) 1.5873(4) 0.88015(9)
Zn1E Zn -0.20723(6) 0.74672(4) 0.840986(15)
Zn1E_2 Zn 1.79277(6) 1.74672(4) 0.840986(15)
N2D N 0.7681(3) 0.8158(5) 1.00167(10)
O5D O 0.6908(4) 1.0288(7) 1.04223(13)
O6D O 0.5873(4) 0.8532(5) 1.04682(9)
O7 O 0.1515(4) 0.0413(4) 0.89778(13)
H31 H 0.1662 0.0878 0.8806
H32 H 0.0804 -0.0054 0.8985
loop_
_geom_bond_atom_site_label_1
_geom_bond_atom_site_label_2
_geom_bond_site_symmetry_1
_geom_bond_site_symmetry_2
C1 H1 1_555 1_555
C2 C1 1_555 1_555
H2 C2 1_555 1_555
C3 C2 1_555 1_555
C4 C3 1_555 1_555
H3 C4 1_555 1_555
C5 C4 1_555 1_555
H4 C5 1_555 1_555
C6 C3 1_555 1_555
C7 C6 1_555 1_555
H5 C7 1_555 1_555
C8 C7 1_555 1_555
C9 C8 1_555 1_555
H6 C9 1_555 1_555
C10 C9 1_555 1_555
C11 C6 1_555 1_555
H7 C11 1_555 1_555
C12 C10 1_555 1_555
C13 C12 1_555 1_555
H8 C13 1_555 1_555
C14 C13 1_555 1_555
H9 C14 1_555 1_555
C15 H10 1_555 1_555
C16 C12 1_555 1_555
H11 C16 1_555 1_555
C17 C18 1_555 1_555
C18 H12 1_555 1_555
C19 C18 1_555 1_555
C20 C19 1_555 1_555
H13 C20 1_555 1_555
C21 C20 1_555 1_555
C22 C17 1_555 1_555
H14 C22 1_555 1_555
C23 C21 1_555 1_555
C24 C23 1_555 1_555
H15 C24 1_555 1_555
C25 C24 1_555 1_555
H16 C25 1_555 1_555
C26 H17 1_555 1_555
C27 C23 1_555 1_555
H18 C27 1_555 1_555
C28 C19 1_555 1_555
C29 C28 1_555 1_555
H19 C29 1_555 1_555
C30 C29 1_555 1_555
H20 C30 1_555 1_555
C31 H21 1_555 1_555
C32 C28 1_555 1_555
H22 C32 1_555 1_555
C33 C34 1_555 1_555
C34 H23 1_555 1_555
C35 C34 1_555 1_555
H24 C35 1_555 1_555
C36 C35 1_555 1_555
C37 C36 1_555 1_555
H25 C37 1_555 1_555
C38 C33 1_555 1_555
H26 C38 1_555 1_555
C39 C40 1_555 1_555
C40 H27 1_555 1_555
C41 C40 1_555 1_555
H28 C41 1_555 1_555
C42 C41 1_555 1_555
C43 C42 1_555 1_555
H29 C43 1_555 1_555
C44 C39 1_555 1_555
H30 C44 1_555 1_555
C45 C33 1_555 1_555
C46 C42 1_555 1_555
Zn1 N1 1_555 1_555
N1 C1 1_555 1_555
N2 C14 1_555 1_555
N3 C25 1_555 1_555
N4 C30 1_555 1_555
O1 C8 1_555 1_555
O2 C36 1_555 1_555
O3 C45 1_555 1_555
O4 C45 1_555 1_555
O5 C46 1_555 1_555
O6 C46 1_555 1_555
O7 H31 1_555 1_555
H32 O7 1_555 1_555
Zn1E N2 1_555 1_555
Zn1E_2 O5 1_555 1_555
N2D Zn1 1_555 1_555
O5D Zn1 1_555 1_555
O6D Zn1 1_555 1_555
C5 N1 1_555 1_555
C10 C11 1_555 1_555
C15 C16 1_555 1_555
C15 N2 1_555 1_555
C17 O1 1_555 1_555
C21 C22 1_555 1_555
C26 C27 1_555 1_555
C26 N3 1_555 1_555
C31 C32 1_555 1_555
C31 N4 1_555 1_555
C37 C38 1_555 1_555
C39 O2 1_555 1_555
C43 C44 1_555 1_555
Zn1 O3 1_555 1_555
Zn1 O4 1_555 1_555
O6 Zn1E_2 1_555 1_555

#END
