
#######################################################################
#
#                 Cambridge Crystallographic Data Centre
#                                CCDC 
#
#######################################################################
#
# If this CIF has been generated from an entry in the Cambridge 
# Structural Database, then it will include bibliographic, chemical, 
# crystal, experimental, refinement or atomic coordinate data resulting 
# from the CCDC's data processing and validation procedures.
#
#######################################################################

data_QIFLAU
_symmetry_cell_setting           triclinic
_symmetry_space_group_name_H-M   'P -1'
_symmetry_Int_Tables_number      2
_space_group_name_Hall           '-P 1'
loop_
_symmetry_equiv_pos_site_id
_symmetry_equiv_pos_as_xyz
1 x,y,z
2 -x,-y,-z
_cell_length_a                   13.2457(8)
_cell_length_b                   13.2560(7)
_cell_length_c                   15.0285(15)
_cell_angle_alpha                91.851(1)
_cell_angle_beta                 102.530(1)
_cell_angle_gamma                119.010(1)
_cell_volume                     2223.32
loop_
_atom_site_label
_atom_site_type_symbol
_atom_site_fract_x
_atom_site_fract_y
_atom_site_fract_z
C1 C 0.2184(4) 0.3356(4) 1.1329(3)
H1 H 0.2565 0.3908 1.1865
C2 C 0.2175(4) 0.3733(4) 1.0477(3)
H2 H 0.2526 0.4526 1.0441
C3 C 0.1627(3) 0.2896(3) 0.9667(3)
C4 C 0.1088(4) 0.1718(4) 0.9749(3)
H3 H 0.0705 0.1157 0.9220
C5 C 0.1116(4) 0.1372(4) 1.0605(3)
H4 H 0.0777 0.0581 1.0650
C6 C 0.1619(3) 0.3235(3) 0.8723(3)
C7 C 0.2655(4) 0.4180(4) 0.8587(3)
H5 H 0.3305 0.4632 0.9093
C8 C 0.2728(4) 0.4449(3) 0.7733(3)
C9 C 0.1727(3) 0.3799(3) 0.6972(3)
H6 H 0.1752 0.3996 0.6386
C10 C 0.0700(3) 0.2859(3) 0.7105(3)
C11 C 0.0655(4) 0.2605(3) 0.7973(3)
H7 H -0.0046 0.1992 0.8058
C12 C 0.5721(4) 0.7266(4) 0.8066(4)
H8 H 0.6251 0.7920 0.8514
C13 C 0.4659(4) 0.6438(4) 0.8226(3)
H9 H 0.4463 0.6564 0.8761
C14 C 0.3879(3) 0.5415(3) 0.7594(3)
C15 C 0.4193(4) 0.5298(4) 0.6774(3)
H10 H 0.3683 0.4634 0.6331
C16 C 0.5238(4) 0.6146(4) 0.6618(3)
H11 H 0.5426 0.6046 0.6073
C17 C -0.0770(3) 0.2660(4) 0.5828(3)
C18 C -0.0784(4) 0.3675(4) 0.6127(3)
H12 H -0.0381 0.4073 0.6727
C19 C -0.1408(3) 0.4069(3) 0.5512(3)
C20 C -0.1984(4) 0.3496(4) 0.4604(3)
H13 H -0.2380 0.3783 0.4195
C21 C -0.1972(4) 0.2503(4) 0.4306(3)
C22 C -0.1376(4) 0.2086(4) 0.4906(3)
H14 H -0.1371 0.1418 0.4703
C23 C -0.0836(4) 0.6800(4) 0.6986(3)
H15 H -0.0289 0.7320 0.7516
C24 C -0.0698(4) 0.5892(4) 0.6653(3)
H16 H -0.0063 0.5811 0.6972
C25 C -0.1499(4) 0.5096(3) 0.5844(3)
C26 C -0.2412(4) 0.5273(4) 0.5401(3)
H17 H -0.2957 0.4767 0.4864
C27 C -0.2549(4) 0.6166(3) 0.5723(3)
H18 H -0.3168 0.6264 0.5396
C28 C -0.3001(4) 0.2114(4) 0.1699(3)
H19 H -0.2900 0.2560 0.1225
C29 C -0.2440(5) 0.2671(4) 0.2611(3)
H20 H -0.1973 0.3480 0.2763
C30 C -0.2623(4) 0.1920(4) 0.3315(3)
C31 C -0.3296(4) 0.0748(4) 0.3048(3)
H21 H -0.3413 0.0268 0.3498
C32 C -0.3819(6) 0.0233(5) 0.2124(3)
H22 H -0.4242 -0.0576 0.1957
C33 C 0.2726(4) -0.0031(4) 1.3067(3)
C34 C 0.3171(3) -0.0887(3) 1.3197(3)
C35 C 0.3016(4) -0.1631(4) 1.2442(3)
H23 H 0.2583 -0.1640 1.1862
C36 C 0.3488(4) -0.2347(4) 1.2539(3)
H24 H 0.3409 -0.2819 1.2027
C37 C 0.4087(3) -0.2357(3) 1.3413(3)
C38 C 0.4216(4) -0.1658(3) 1.4189(3)
H25 H 0.4613 -0.1683 1.4773
C39 C 0.3747(4) -0.0932(4) 1.4079(3)
H26 H 0.3813 -0.0470 1.4592
C40 C 0.6195(4) -0.2313(3) 1.3368(3)
C41 C 0.7141(3) -0.1644(4) 1.4138(3)
H27 H 0.7022 -0.1697 1.4727
C42 C 0.8268(4) -0.0895(4) 1.4023(3)
H28 H 0.8908 -0.0440 1.4535
C43 C 0.8438(4) -0.0825(4) 1.3128(3)
C44 C 0.7474(4) -0.1509(4) 1.2369(3)
H29 H 0.7578 -0.1455 1.1777
C45 C 0.6363(4) -0.2268(4) 1.2490(3)
H30 H 0.5728 -0.2749 1.1982
Cd1 Cd 0.19261(3) 0.15167(3) 1.28317(2)
C46 C 0.9674(4) 0.0012(4) 1.3043(3)
O1 O 0.9768(3) 0.0186(2) 1.2204(2)
N1 N 0.1648(3) 0.2200(3) 1.1400(2)
N2 N 0.6016(3) 0.7147(3) 0.7261(3)
N3 N -0.1769(3) 0.6929(3) 0.6538(3)
N4 N -0.3697(4) 0.0927(4) 0.1487(3)
O2 O -0.0267(3) 0.2160(2) 0.63584(19)
O3 O 0.2193(3) -0.0027(2) 1.2245(2)
O4 O 0.2941(3) 0.0656(3) 1.3743(2)
O5 O 0.4931(3) -0.3507(3) 1.4415(2)
O6 O 0.4080(3) -0.4175(3) 1.2752(2)
O7 O 1.0519(3) 0.0517(3) 1.3701(2)
S1 S 0.47716(9) -0.32427(9) 1.35198(8)
Cd1_2 Cd 1.19261(3) 0.15167(3) 1.28317(2)
Cd1A Cd -0.19261(3) 0.84833(3) 0.71683(2)
Cd1A_2 Cd 0.80739(3) 0.84833(3) 0.71683(2)
O1_2 O -0.0232(3) 0.0186(2) 1.2204(2)
N2A N 0.3984(3) 0.2853(3) 1.2739(3)
N3A N 0.1769(3) 0.3071(3) 1.3462(3)
O7_2 O 0.0519(3) 0.0517(3) 1.3701(2)
O8 O 0.4479(6) 0.9828(6) 0.0174(5)
H31 H 0.4755 1.0306 0.0672
H32 H 0.3900 0.9859 -0.0174
loop_
_geom_bond_atom_site_label_1
_geom_bond_atom_site_label_2
_geom_bond_site_symmetry_1
_geom_bond_site_symmetry_2
C1 H1 1_555 1_555
C2 C1 1_555 1_555
H2 C2 1_555 1_555
C3 C2 1_555 1_555
C4 C3 1_555 1_555
H3 C4 1_555 1_555
C5 C4 1_555 1_555
H4 C5 1_555 1_555
C6 C3 1_555 1_555
C7 C6 1_555 1_555
H5 C7 1_555 1_555
C8 C7 1_555 1_555
C9 C8 1_555 1_555
H6 C9 1_555 1_555
C10 C9 1_555 1_555
C11 C6 1_555 1_555
H7 C11 1_555 1_555
C12 H8 1_555 1_555
C13 C12 1_555 1_555
H9 C13 1_555 1_555
C14 C8 1_555 1_555
C15 C14 1_555 1_555
H10 C15 1_555 1_555
C16 C15 1_555 1_555
H11 C16 1_555 1_555
C17 C18 1_555 1_555
C18 H12 1_555 1_555
C19 C18 1_555 1_555
C20 C19 1_555 1_555
H13 C20 1_555 1_555
C21 C20 1_555 1_555
C22 C17 1_555 1_555
H14 C22 1_555 1_555
C23 H15 1_555 1_555
C24 C23 1_555 1_555
H16 C24 1_555 1_555
C25 C19 1_555 1_555
C26 C25 1_555 1_555
H17 C26 1_555 1_555
C27 C26 1_555 1_555
H18 C27 1_555 1_555
C28 H19 1_555 1_555
C29 C28 1_555 1_555
H20 C29 1_555 1_555
C30 C21 1_555 1_555
C31 C30 1_555 1_555
H21 C31 1_555 1_555
C32 C31 1_555 1_555
H22 C32 1_555 1_555
C33 C34 1_555 1_555
C34 C35 1_555 1_555
C35 H23 1_555 1_555
C36 C35 1_555 1_555
H24 C36 1_555 1_555
C37 C36 1_555 1_555
C38 C37 1_555 1_555
H25 C38 1_555 1_555
C39 C34 1_555 1_555
H26 C39 1_555 1_555
C40 C41 1_555 1_555
C41 H27 1_555 1_555
C42 C41 1_555 1_555
H28 C42 1_555 1_555
C43 C42 1_555 1_555
C44 C43 1_555 1_555
H29 C44 1_555 1_555
C45 C40 1_555 1_555
H30 C45 1_555 1_555
Cd1 N1 1_555 1_555
C46 C43 1_555 1_555
O1 C46 1_555 1_555
N1 C1 1_555 1_555
N2 C12 1_555 1_555
N3 C23 1_555 1_555
N4 C28 1_555 1_555
O2 C10 1_555 1_555
O3 C33 1_555 1_555
O4 C33 1_555 1_555
O5 S1 1_555 1_555
O6 S1 1_555 1_555
O7 C46 1_555 1_555
S1 C37 1_555 1_555
O8 H31 1_555 1_555
H32 O8 1_555 1_555
Cd1_2 O1 1_555 1_555
Cd1A N3 1_555 1_555
Cd1A_2 N2 1_555 1_555
O1_2 Cd1 1_555 1_555
N2A Cd1 1_555 1_555
N3A Cd1 1_555 1_555
O7_2 Cd1 1_555 1_555
C5 N1 1_555 1_555
C10 C11 1_555 1_555
C13 C14 1_555 1_555
C16 N2 1_555 1_555
C17 O2 1_555 1_555
C21 C22 1_555 1_555
C24 C25 1_555 1_555
C27 N3 1_555 1_555
C29 C30 1_555 1_555
C32 N4 1_555 1_555
C38 C39 1_555 1_555
C40 S1 1_555 1_555
C44 C45 1_555 1_555
Cd1 O3 1_555 1_555
Cd1 O4 1_555 1_555
O7 Cd1_2 1_555 1_555

#END
