
#######################################################################
#
#                 Cambridge Crystallographic Data Centre
#                                CCDC 
#
#######################################################################
#
# If this CIF has been generated from an entry in the Cambridge 
# Structural Database, then it will include bibliographic, chemical, 
# crystal, experimental, refinement or atomic coordinate data resulting 
# from the CCDC's data processing and validation procedures.
#
#######################################################################

data_QIFMUN
_symmetry_cell_setting           orthorhombic
_symmetry_space_group_name_H-M   'P n m a'
_symmetry_Int_Tables_number      62
_space_group_name_Hall           '-P 2ac 2n'
loop_
_symmetry_equiv_pos_site_id
_symmetry_equiv_pos_as_xyz
1 x,y,z
2 1/2-x,-y,1/2+z
3 -x,1/2+y,-z
4 1/2+x,1/2-y,1/2-z
5 -x,-y,-z
6 1/2+x,y,1/2-z
7 x,1/2-y,z
8 1/2-x,1/2+y,1/2+z
_cell_length_a                   20.121(10)
_cell_length_b                   6.4910(10)
_cell_length_c                   11.417(6)
_cell_angle_alpha                90
_cell_angle_beta                 90
_cell_angle_gamma                90
_cell_volume                     1491.12
loop_
_atom_site_label
_atom_site_type_symbol
_atom_site_fract_x
_atom_site_fract_y
_atom_site_fract_z
Ag1 Ag 0.07393(6) 0.2500 0.13641(10)
O1 O -0.0481(5) 0.2500 0.1299(10)
H1 H -0.0729 0.1012 0.1382
O2 O 0.1195(4) 0.0796(12) -0.0477(6)
C1 C 0.1304(6) 0.2500 -0.0989(11)
C2 C 0.1608(6) 0.2500 -0.2178(10)
C3 C 0.1770(4) 0.0703(14) -0.2737(7)
H2 H 0.1638 -0.0569 -0.2376
C4 C 0.2112(4) 0.0661(15) -0.3787(8)
H3 H 0.2211 -0.0631 -0.4156
C5 C 0.2316(7) 0.2500 -0.4305(10)
N1 N 0.2681(6) 0.2500 -0.5337(9)
H4 H 0.2794 0.1037 -0.5800
N2 N 0.0791(4) -0.0589(11) 0.2515(6)
N3 N 0.0232(5) -0.2500 0.4103(9)
N4 N 0.1447(5) -0.2500 0.3958(9)
C6 C 0.1409(4) -0.0681(15) 0.3225(8)
H5 H 0.1437 0.0524 0.3710
H6 H 0.1784 -0.0676 0.2706
C7 C 0.0860(6) -0.2500 0.4768(10)
H7 H 0.0877 -0.3697 0.5261
C8 C 0.0216(4) -0.0651(15) 0.3328(7)
H8 H -0.0187 -0.0666 0.2879
H9 H 0.0216 0.0567 0.3805
C9 C 0.0760(8) -0.2500 0.1798(11)
H10 H 0.1121 -0.2500 0.1248
H11 H 0.0352 -0.2500 0.1361
H1F H -0.0729 0.3988 0.1382
O2F O 0.1195(4) 0.4204(12) -0.0477(6)
C4F C 0.2112(4) 0.4339(15) -0.3787(8)
C3F C 0.1770(4) 0.4297(14) -0.2737(7)
H2F H 0.1638 0.5569 -0.2376
H3F H 0.2211 0.5631 -0.4156
H4F H 0.2794 0.3963 -0.5800
C6F C 0.1409(4) -0.4319(15) 0.3225(8)
N2F N 0.0791(4) -0.4411(11) 0.2515(6)
C8F C 0.0216(4) -0.4349(15) 0.3328(7)
H7F H 0.0877 -0.1303 0.5261
H8F H -0.0187 -0.4334 0.2879
H9F H 0.0216 -0.5567 0.3805
H5F H 0.1437 -0.5524 0.3710
H6F H 0.1784 -0.4324 0.2706
N2F_2 N 0.0791(4) 0.5589(11) 0.2515(6)
Ag1_2 Ag 0.07393(6) -0.7500 0.13641(10)
loop_
_geom_bond_atom_site_label_1
_geom_bond_atom_site_label_2
_geom_bond_site_symmetry_1
_geom_bond_site_symmetry_2
Ag1 O1 1_555 1_555
O1 H1 1_555 1_555
O2 Ag1 1_555 1_555
C1 O2 1_555 1_555
C2 C1 1_555 1_555
C3 C2 1_555 1_555
H2 C3 1_555 1_555
C4 C3 1_555 1_555
H3 C4 1_555 1_555
C5 C4 1_555 1_555
N1 C5 1_555 1_555
H4 N1 1_555 1_555
N2 Ag1 1_555 1_555
N3 C7 1_555 1_555
N4 C6 1_555 1_555
C6 N2 1_555 1_555
H5 C6 1_555 1_555
H6 C6 1_555 1_555
C7 N4 1_555 1_555
H7 C7 1_555 1_555
C8 N2 1_555 1_555
H8 C8 1_555 1_555
H9 C8 1_555 1_555
C9 N2 1_555 1_555
H10 C9 1_555 1_555
H11 C9 1_555 1_555
H1F O1 1_555 1_555
O2F Ag1 1_555 1_555
C4F C5 1_555 1_555
C3F C2 1_555 1_555
H2F C3F 1_555 1_555
H3F C4F 1_555 1_555
H4F N1 1_555 1_555
C6F N4 1_555 1_555
N2F C9 1_555 1_555
C8F N3 1_555 1_555
H7F C7 1_555 1_555
H8F C8F 1_555 1_555
H9F C8F 1_555 1_555
H5F C6F 1_555 1_555
H6F C6F 1_555 1_555
N2F_2 Ag1 1_555 1_555
Ag1_2 N2F 1_555 1_555
C1 O2F 1_555 1_555
N3 C8 1_555 1_555
C4F C3F 1_555 1_555
C6F N2F 1_555 1_555
N2F C8F 1_555 1_555

#END
