
#######################################################################
#
#                 Cambridge Crystallographic Data Centre
#                                CCDC 
#
#######################################################################
#
# If this CIF has been generated from an entry in the Cambridge 
# Structural Database, then it will include bibliographic, chemical, 
# crystal, experimental, refinement or atomic coordinate data resulting 
# from the CCDC's data processing and validation procedures.
#
#######################################################################

data_QIFMID
_symmetry_cell_setting           orthorhombic
_symmetry_space_group_name_H-M   'P b c a'
_symmetry_Int_Tables_number      61
_space_group_name_Hall           '-P 2ac 2ab'
loop_
_symmetry_equiv_pos_site_id
_symmetry_equiv_pos_as_xyz
1 x,y,z
2 1/2-x,-y,1/2+z
3 -x,1/2+y,1/2-z
4 1/2+x,1/2-y,-z
5 -x,-y,-z
6 1/2+x,y,1/2-z
7 x,1/2-y,1/2+z
8 1/2-x,1/2+y,z
_cell_length_a                   20.619(4)
_cell_length_b                   13.453(3)
_cell_length_c                   21.059(4)
_cell_angle_alpha                90
_cell_angle_beta                 90
_cell_angle_gamma                90
_cell_volume                     5841.5
loop_
_atom_site_label
_atom_site_type_symbol
_atom_site_fract_x
_atom_site_fract_y
_atom_site_fract_z
Ag1 Ag 0.271296(14) 0.61048(2) 0.440851(14)
Br1 Br 0.31658(2) 0.55937(3) 0.55077(2)
P1 P 0.32059(5) 0.53697(7) 0.34790(5)
P2 P 0.32900(5) 0.20503(7) 0.44778(5)
N1 N 0.15792(17) 0.4170(3) 0.37762(18)
N2 N 0.26444(14) 0.3669(2) 0.39656(16)
C1 C 0.20008(18) 0.3723(3) 0.4165(2)
C2 C 0.1814(2) 0.3295(3) 0.4734(2)
H1 H 0.2120 0.2984 0.4998
C3 C 0.1171(2) 0.3334(4) 0.4906(3)
H2 H 0.1033 0.3042 0.5288
C4 C 0.0735(2) 0.3799(4) 0.4520(3)
H3 H 0.0294 0.3836 0.4632
C5 C 0.0952(2) 0.4207(4) 0.3966(3)
H4 H 0.0650 0.4532 0.3703
C6 C 0.28415(19) 0.4111(3) 0.33655(19)
H5 H 0.2463 0.4165 0.3086
H6 H 0.3159 0.3676 0.3158
C7 C 0.31443(18) 0.3407(3) 0.44210(17)
H7 H 0.3019 0.3658 0.4840
H8 H 0.3550 0.3737 0.4300
C8 C 0.30950(19) 0.6014(3) 0.27250(19)
C9 C 0.2823(3) 0.5614(4) 0.2188(2)
H9 H 0.2695 0.4943 0.2186
C10 C 0.2735(3) 0.6188(4) 0.1645(3)
H10 H 0.2553 0.5901 0.1280
C11 C 0.2910(3) 0.7166(4) 0.1641(3)
H11 H 0.2841 0.7555 0.1277
C12 C 0.3188(3) 0.7579(4) 0.2169(3)
H12 H 0.3317 0.8249 0.2164
C13 C 0.3279(2) 0.7010(3) 0.2713(2)
H13 H 0.3467 0.7299 0.3075
C14 C 0.40734(17) 0.5092(3) 0.34925(17)
C15 C 0.43770(19) 0.4676(3) 0.2968(2)
H14 H 0.4145 0.4585 0.2589
C16 C 0.5022(2) 0.4394(4) 0.3003(2)
H15 H 0.5226 0.4109 0.2648
C17 C 0.5366(2) 0.4530(4) 0.3555(2)
H16 H 0.5805 0.4346 0.3574
C18 C 0.5073(2) 0.4931(4) 0.4075(2)
H17 H 0.5308 0.5008 0.4454
C19 C 0.44251(19) 0.5226(3) 0.4047(2)
H18 H 0.4227 0.5517 0.4404
C20 C 0.37132(17) 0.1929(3) 0.52298(18)
C21 C 0.4030(2) 0.2715(3) 0.5528(2)
H19 H 0.4044 0.3341 0.5330
C22 C 0.4326(2) 0.2585(4) 0.6114(2)
H20 H 0.4542 0.3118 0.6310
C23 C 0.4302(2) 0.1674(4) 0.6406(2)
H21 H 0.4492 0.1586 0.6808
C24 C 0.4001(2) 0.0895(4) 0.6112(2)
H22 H 0.4000 0.0268 0.6309
C25 C 0.3700(2) 0.1012(3) 0.5533(2)
H23 H 0.3485 0.0472 0.5343
C26 C 0.38985(18) 0.1861(3) 0.38652(18)
C27 C 0.4560(2) 0.1993(3) 0.3965(2)
H24 H 0.4714 0.2166 0.4370
C28 C 0.4991(2) 0.1869(4) 0.3467(3)
H25 H 0.5437 0.1960 0.3537
C29 C 0.4776(3) 0.1614(4) 0.2874(3)
H26 H 0.5073 0.1528 0.2540
C30 C 0.4127(3) 0.1486(4) 0.2769(2)
H27 H 0.3978 0.1318 0.2361
C31 C 0.3689(2) 0.1604(3) 0.3262(2)
H28 H 0.3244 0.1509 0.3186
Ag1G Ag 0.228704(14) 0.11048(2) 0.440851(14)
P2G P 0.17100(5) 0.70503(7) 0.44778(5)
loop_
_geom_bond_atom_site_label_1
_geom_bond_atom_site_label_2
_geom_bond_site_symmetry_1
_geom_bond_site_symmetry_2
Ag1 Br1 1_555 1_555
P1 Ag1 1_555 1_555
P2 C7 1_555 1_555
N1 C1 1_555 1_555
N2 C1 1_555 1_555
C1 C2 1_555 1_555
C2 H1 1_555 1_555
C3 C2 1_555 1_555
H2 C3 1_555 1_555
C4 C3 1_555 1_555
H3 C4 1_555 1_555
C5 N1 1_555 1_555
H4 C5 1_555 1_555
C6 P1 1_555 1_555
H5 C6 1_555 1_555
H6 C6 1_555 1_555
C7 N2 1_555 1_555
H7 C7 1_555 1_555
H8 C7 1_555 1_555
C8 P1 1_555 1_555
C9 C8 1_555 1_555
H9 C9 1_555 1_555
C10 C9 1_555 1_555
H10 C10 1_555 1_555
C11 C10 1_555 1_555
H11 C11 1_555 1_555
C12 C11 1_555 1_555
H12 C12 1_555 1_555
C13 C8 1_555 1_555
H13 C13 1_555 1_555
C14 P1 1_555 1_555
C15 C14 1_555 1_555
H14 C15 1_555 1_555
C16 C15 1_555 1_555
H15 C16 1_555 1_555
C17 C16 1_555 1_555
H16 C17 1_555 1_555
C18 C17 1_555 1_555
H17 C18 1_555 1_555
C19 C14 1_555 1_555
H18 C19 1_555 1_555
C20 P2 1_555 1_555
C21 C20 1_555 1_555
H19 C21 1_555 1_555
C22 C21 1_555 1_555
H20 C22 1_555 1_555
C23 C22 1_555 1_555
H21 C23 1_555 1_555
C24 C23 1_555 1_555
H22 C24 1_555 1_555
C25 C20 1_555 1_555
H23 C25 1_555 1_555
C26 P2 1_555 1_555
C27 C26 1_555 1_555
H24 C27 1_555 1_555
C28 C27 1_555 1_555
H25 C28 1_555 1_555
C29 C28 1_555 1_555
H26 C29 1_555 1_555
C30 C29 1_555 1_555
H27 C30 1_555 1_555
C31 C26 1_555 1_555
H28 C31 1_555 1_555
Ag1G P2 1_555 1_555
P2G Ag1 1_555 1_555
N2 C6 1_555 1_555
C4 C5 1_555 1_555
C12 C13 1_555 1_555
C18 C19 1_555 1_555
C24 C25 1_555 1_555
C30 C31 1_555 1_555

#END
