
#######################################################################
#
#                 Cambridge Crystallographic Data Centre
#                                CCDC 
#
#######################################################################
#
# If this CIF has been generated from an entry in the Cambridge 
# Structural Database, then it will include bibliographic, chemical, 
# crystal, experimental, refinement or atomic coordinate data resulting 
# from the CCDC's data processing and validation procedures.
#
#######################################################################

data_QIFMEZ
_symmetry_cell_setting           orthorhombic
_symmetry_space_group_name_H-M   'P b c a'
_symmetry_Int_Tables_number      61
_space_group_name_Hall           '-P 2ac 2ab'
loop_
_symmetry_equiv_pos_site_id
_symmetry_equiv_pos_as_xyz
1 x,y,z
2 1/2-x,-y,1/2+z
3 -x,1/2+y,1/2-z
4 1/2+x,1/2-y,-z
5 -x,-y,-z
6 1/2+x,y,1/2-z
7 x,1/2-y,1/2+z
8 1/2-x,1/2+y,z
_cell_length_a                   20.415(4)
_cell_length_b                   13.369(3)
_cell_length_c                   20.967(4)
_cell_angle_alpha                90
_cell_angle_beta                 90
_cell_angle_gamma                90
_cell_volume                     5722.48
loop_
_atom_site_label
_atom_site_type_symbol
_atom_site_fract_x
_atom_site_fract_y
_atom_site_fract_z
Ag1 Ag 0.273639(13) 0.614493(18) 0.555800(12)
Cl1 Cl 0.31707(5) 0.56202(7) 0.45076(4)
P1 P 0.32195(4) 0.54133(6) 0.65023(4)
P2 P 0.32808(4) 0.20843(6) 0.54833(4)
N1 N 0.15647(16) 0.4208(2) 0.62017(15)
N2 N 0.26453(13) 0.3719(2) 0.59959(13)
C1 C 0.19946(17) 0.3760(2) 0.58078(17)
C2 C 0.17986(19) 0.3331(3) 0.52364(18)
H1 H 0.2105 0.3019 0.4967
C3 C 0.1153(2) 0.3370(4) 0.5075(2)
H2 H 0.1013 0.3080 0.4690
C4 C 0.0706(2) 0.3826(4) 0.5464(2)
H3 H 0.0260 0.3853 0.5355
C5 C 0.0930(2) 0.4243(3) 0.6019(2)
H4 H 0.0628 0.4569 0.6286
C6 C 0.28484(17) 0.4147(2) 0.66004(16)
H5 H 0.3168 0.3702 0.6802
H6 H 0.2468 0.4196 0.6883
C7 C 0.31441(17) 0.3458(2) 0.55319(15)
H7 H 0.3556 0.3787 0.5648
H8 H 0.3012 0.3707 0.5112
C8 C 0.40933(16) 0.5137(2) 0.64935(15)
C9 C 0.44109(18) 0.4746(3) 0.70212(16)
H9 H 0.4181 0.4673 0.7407
C10 C 0.50626(19) 0.4463(3) 0.69880(18)
H10 H 0.5272 0.4205 0.7352
C11 C 0.54062(19) 0.4557(3) 0.64270(18)
H11 H 0.5847 0.4358 0.6405
C12 C 0.50990(18) 0.4942(3) 0.59014(18)
H12 H 0.5332 0.5006 0.5517
C13 C 0.44500(18) 0.5238(3) 0.59278(16)
H13 H 0.4248 0.5509 0.5564
C14 C 0.30975(17) 0.6043(2) 0.72640(15)
C15 C 0.3274(2) 0.7047(3) 0.72891(18)
H14 H 0.3463 0.7354 0.6931
C16 C 0.3171(3) 0.7597(3) 0.7841(2)
H15 H 0.3298 0.8273 0.7855
C17 C 0.2891(3) 0.7172(4) 0.8360(2)
H16 H 0.2822 0.7553 0.8730
C18 C 0.2708(3) 0.6182(4) 0.8345(2)
H17 H 0.2513 0.5888 0.8706
C19 C 0.2811(2) 0.5617(3) 0.77988(17)
H18 H 0.2686 0.4941 0.7791
C20 C 0.38971(17) 0.1895(2) 0.61016(16)
C21 C 0.3678(2) 0.1632(3) 0.67047(17)
H19 H 0.3229 0.1527 0.6778
C22 C 0.4122(2) 0.1524(3) 0.7198(2)
H20 H 0.3971 0.1346 0.7606
C23 C 0.4774(2) 0.1671(3) 0.7101(2)
H21 H 0.5071 0.1596 0.7440
C24 C 0.4998(2) 0.1930(3) 0.6500(2)
H22 H 0.5448 0.2030 0.6431
C25 C 0.45624(19) 0.2043(3) 0.60033(18)
H23 H 0.4716 0.2222 0.5596
C26 C 0.37135(17) 0.1947(2) 0.47267(15)
C27 C 0.4039(2) 0.2732(3) 0.44299(17)
H24 H 0.4057 0.3363 0.4627
C28 C 0.4339(2) 0.2584(3) 0.38438(18)
H25 H 0.4561 0.3114 0.3644
C29 C 0.4308(2) 0.1666(3) 0.35585(19)
H26 H 0.4513 0.1567 0.3162
C30 C 0.3987(2) 0.0893(3) 0.3842(2)
H27 H 0.3969 0.0265 0.3641
C31 C 0.3684(2) 0.1031(3) 0.44288(17)
H28 H 0.3459 0.0498 0.4623
Ag1G Ag 0.226361(13) 0.114493(18) 0.555800(12)
P2G P 0.17192(4) 0.70843(6) 0.54833(4)
loop_
_geom_bond_atom_site_label_1
_geom_bond_atom_site_label_2
_geom_bond_site_symmetry_1
_geom_bond_site_symmetry_2
Ag1 Cl1 1_555 1_555
P1 Ag1 1_555 1_555
P2 C7 1_555 1_555
N1 C1 1_555 1_555
N2 C1 1_555 1_555
C1 C2 1_555 1_555
C2 H1 1_555 1_555
C3 C2 1_555 1_555
H2 C3 1_555 1_555
C4 C3 1_555 1_555
H3 C4 1_555 1_555
C5 N1 1_555 1_555
H4 C5 1_555 1_555
C6 P1 1_555 1_555
H5 C6 1_555 1_555
H6 C6 1_555 1_555
C7 N2 1_555 1_555
H7 C7 1_555 1_555
H8 C7 1_555 1_555
C8 P1 1_555 1_555
C9 C8 1_555 1_555
H9 C9 1_555 1_555
C10 C9 1_555 1_555
H10 C10 1_555 1_555
C11 C10 1_555 1_555
H11 C11 1_555 1_555
C12 C11 1_555 1_555
H12 C12 1_555 1_555
C13 C8 1_555 1_555
H13 C13 1_555 1_555
C14 P1 1_555 1_555
C15 C14 1_555 1_555
H14 C15 1_555 1_555
C16 C15 1_555 1_555
H15 C16 1_555 1_555
C17 C16 1_555 1_555
H16 C17 1_555 1_555
C18 C17 1_555 1_555
H17 C18 1_555 1_555
C19 C14 1_555 1_555
H18 C19 1_555 1_555
C20 P2 1_555 1_555
C21 C20 1_555 1_555
H19 C21 1_555 1_555
C22 C21 1_555 1_555
H20 C22 1_555 1_555
C23 C22 1_555 1_555
H21 C23 1_555 1_555
C24 C23 1_555 1_555
H22 C24 1_555 1_555
C25 C20 1_555 1_555
H23 C25 1_555 1_555
C26 P2 1_555 1_555
C27 C26 1_555 1_555
H24 C27 1_555 1_555
C28 C27 1_555 1_555
H25 C28 1_555 1_555
C29 C28 1_555 1_555
H26 C29 1_555 1_555
C30 C29 1_555 1_555
H27 C30 1_555 1_555
C31 C26 1_555 1_555
H28 C31 1_555 1_555
Ag1G P2 1_555 1_555
P2G Ag1 1_555 1_555
N2 C6 1_555 1_555
C4 C5 1_555 1_555
C12 C13 1_555 1_555
C18 C19 1_555 1_555
C24 C25 1_555 1_555
C30 C31 1_555 1_555

#END
