
#######################################################################
#
#                 Cambridge Crystallographic Data Centre
#                                CCDC 
#
#######################################################################
#
# If this CIF has been generated from an entry in the Cambridge 
# Structural Database, then it will include bibliographic, chemical, 
# crystal, experimental, refinement or atomic coordinate data resulting 
# from the CCDC's data processing and validation procedures.
#
#######################################################################

data_QIFNAU
_symmetry_cell_setting           monoclinic
_symmetry_space_group_name_H-M   'C 2/m'
_symmetry_Int_Tables_number      12
_space_group_name_Hall           '-C 2y'
loop_
_symmetry_equiv_pos_site_id
_symmetry_equiv_pos_as_xyz
1 x,y,z
2 1/2+x,1/2+y,z
3 -x,y,-z
4 1/2-x,1/2+y,-z
5 -x,-y,-z
6 1/2-x,1/2-y,-z
7 x,-y,z
8 1/2+x,1/2-y,z
_cell_length_a                   21.562(8)
_cell_length_b                   6.522(2)
_cell_length_c                   11.146(4)
_cell_angle_alpha                90
_cell_angle_beta                 91.90(2)
_cell_angle_gamma                90
_cell_volume                     1566.57
loop_
_atom_site_label
_atom_site_type_symbol
_atom_site_fract_x
_atom_site_fract_y
_atom_site_fract_z
Ag1 Ag 0.68763(3) 0.5000 0.12772(4)
O2 O 0.6455(3) 0.6583(8) -0.0623(4)
C1 C 0.6297(3) 0.5000 -0.1089(5)
C2 C 0.5938(3) 0.5000 -0.2277(5)
C3 C 0.5741(3) 0.6802(9) -0.2814(5)
H2 H 0.5841 0.8084 -0.2432
C4 C 0.5393(3) 0.6800(8) -0.3891(4)
H3 H 0.5289 0.8080 -0.4273
C5 C 0.5202(3) 0.5000 -0.4436(5)
C6 C 0.7291(2) 0.8184(7) 0.3357(4)
H4 H 0.7682 0.8192 0.2972
H5 H 0.7274 0.6973 0.3845
C7 C 0.6820(3) 1.0000 0.1670(5)
H6 H 0.6493 1.0000 0.1064
H7 H 0.7209 1.0000 0.1275
C8 C 0.6172(2) 0.8177(7) 0.3037(4)
H8 H 0.6137 0.6974 0.3526
H9 H 0.5839 0.8152 0.2443
C9 C 0.6627(3) 1.0000 0.4691(5)
H10 H 0.6597 1.1190 0.5192
N1 N 0.67754(17) 0.8110(6) 0.2419(3)
N2 N 0.7247(3) 1.0000 0.4130(4)
N3 N 0.6106(3) 1.0000 0.3798(5)
O3 O 0.8022(3) 0.5000 0.1532(5)
H11 H 0.8104 0.6160 0.1151
O2F O 0.6455(3) 0.3417(8) -0.0623(4)
N1F N 0.67754(17) 0.1890(6) 0.2419(3)
C3F C 0.5741(3) 0.3198(9) -0.2814(5)
C5D C 0.4798(3) 0.5000 -0.5564(5)
C4F C 0.5393(3) 0.3200(8) -0.3891(4)
N1F_2 N 0.67754(17) 1.1890(6) 0.2419(3)
H10F H 0.6597 0.8810 0.5192
C6F C 0.7291(2) 1.1816(7) 0.3357(4)
C8F C 0.6172(2) 1.1823(7) 0.3037(4)
H11F H 0.8104 0.3840 0.1151
C4D C 0.4607(3) 0.3200(8) -0.6109(4)
C4B C 0.4607(3) 0.6800(8) -0.6109(4)
C3B C 0.4259(3) 0.6802(9) -0.7186(5)
H3B H 0.4711 0.8080 -0.5727
C3D C 0.4259(3) 0.3198(9) -0.7186(5)
H3D H 0.4711 0.1920 -0.5727
C2D C 0.4062(3) 0.5000 -0.7723(5)
H2B H 0.4159 0.8084 -0.7568
H2D H 0.4159 0.1916 -0.7568
C1D C 0.3703(3) 0.5000 -0.8911(5)
O2D O 0.3545(3) 0.3417(8) -0.9377(4)
O2B O 0.3545(3) 0.6583(8) -0.9377(4)
Ag1D Ag 0.31237(3) 0.5000 -1.12772(4)
Ag1_2 Ag 0.68763(3) 1.5000 0.12772(4)
C6F_2 C 0.7291(2) 0.1816(7) 0.3357(4)
C7_2 C 0.6820(3) 0.0000 0.1670(5)
C8F_2 C 0.6172(2) 0.1823(7) 0.3037(4)
H8F H 0.6137 0.3026 0.3526
H9F H 0.5839 0.1848 0.2443
N3_2 N 0.6106(3) 0.0000 0.3798(5)
H4F H 0.7682 0.1808 0.2972
H5F H 0.7274 0.3027 0.3845
N2_2 N 0.7247(3) 0.0000 0.4130(4)
H6_2 H 0.6493 0.0000 0.1064
H7_2 H 0.7209 0.0000 0.1275
N1_2 N 0.67754(17) -0.1890(6) 0.2419(3)
C6_2 C 0.7291(2) -0.1816(7) 0.3357(4)
C9_2 C 0.6627(3) 0.0000 0.4691(5)
Ag1_3 Ag 0.68763(3) -0.5000 0.12772(4)
C8_2 C 0.6172(2) -0.1823(7) 0.3037(4)
H4_2 H 0.7682 -0.1808 0.2972
H5_2 H 0.7274 -0.3027 0.3845
H10_2 H 0.6597 0.1190 0.5192
H10F_2 H 0.6597 -0.1190 0.5192
O2_2 O 0.6455(3) -0.3417(8) -0.0623(4)
O2F_2 O 0.6455(3) -0.6583(8) -0.0623(4)
N1F_3 N 0.67754(17) -0.8110(6) 0.2419(3)
O3_2 O 0.8022(3) -0.5000 0.1532(5)
H11_2 H 0.8104 -0.3840 0.1151
H11F_2 H 0.8104 -0.6160 0.1151
O1 O 0.5000(3) 0.8557 0.0000(5)
H1 H 0.5383 0.7620 -0.0164
H1B H 0.4617 0.7620 0.0164
loop_
_geom_bond_atom_site_label_1
_geom_bond_atom_site_label_2
_geom_bond_site_symmetry_1
_geom_bond_site_symmetry_2
O1 H1 1_555 1_555
Ag1 O2 1_555 1_555
O2 C1 1_555 1_555
C1 C2 1_555 1_555
C2 C3 1_555 1_555
C3 H2 1_555 1_555
C4 C3 1_555 1_555
H3 C4 1_555 1_555
C5 C4 1_555 1_555
C6 H4 1_555 1_555
H5 C6 1_555 1_555
C7 H6 1_555 1_555
H7 C7 1_555 1_555
C8 H8 1_555 1_555
H9 C8 1_555 1_555
C9 H10 1_555 1_555
N1 Ag1 1_555 1_555
N2 C6 1_555 1_555
N3 C8 1_555 1_555
O3 Ag1 1_555 1_555
H11 O3 1_555 1_555
H1B O1 1_555 1_555
O2F Ag1 1_555 1_555
N1F Ag1 1_555 1_555
C3F C2 1_555 1_555
C5D C5 1_555 1_555
C4F C5 1_555 1_555
N1F_2 C7 1_555 1_555
H10F C9 1_555 1_555
C6F N2 1_555 1_555
C8F N3 1_555 1_555
H11F O3 1_555 1_555
C4D C5D 1_555 1_555
C4B C5D 1_555 1_555
C3B C4B 1_555 1_555
H3B C4B 1_555 1_555
C3D C4D 1_555 1_555
H3D C4D 1_555 1_555
C2D C3B 1_555 1_555
H2B C3B 1_555 1_555
H2D C3D 1_555 1_555
C1D C2D 1_555 1_555
O2D C1D 1_555 1_555
O2B C1D 1_555 1_555
Ag1D O2D 1_555 1_555
Ag1_2 N1F_2 1_555 1_555
C6F_2 N1F 1_555 1_555
C7_2 N1F 1_555 1_555
C8F_2 N1F 1_555 1_555
H8F C8F_2 1_555 1_555
H9F C8F_2 1_555 1_555
N3_2 C8F_2 1_555 1_555
H4F C6F_2 1_555 1_555
H5F C6F_2 1_555 1_555
N2_2 C6F_2 1_555 1_555
H6_2 C7_2 1_555 1_555
H7_2 C7_2 1_555 1_555
N1_2 C7_2 1_555 1_555
C6_2 N2_2 1_555 1_555
C9_2 N3_2 1_555 1_555
Ag1_3 N1_2 1_555 1_555
C8_2 N3_2 1_555 1_555
H4_2 C6_2 1_555 1_555
H5_2 C6_2 1_555 1_555
H10_2 C9_2 1_555 1_555
H10F_2 C9_2 1_555 1_555
O2_2 Ag1_3 1_555 1_555
O2F_2 Ag1_3 1_555 1_555
N1F_3 Ag1_3 1_555 1_555
O3_2 Ag1_3 1_555 1_555
H11_2 O3_2 1_555 1_555
H11F_2 O3_2 1_555 1_555
C1 O2F 1_555 1_555
C6 N1 1_555 1_555
C7 N1 1_555 1_555
C8 N1 1_555 1_555
C9 N2 1_555 1_555
C9 N3 1_555 1_555
C3F C4F 1_555 1_555
N1F_2 C6F 1_555 1_555
N1F_2 C8F 1_555 1_555
C3D C2D 1_555 1_555
O2B Ag1D 1_555 1_555
N2_2 C9_2 1_555 1_555
N1_2 C6_2 1_555 1_555
N1_2 C8_2 1_555 1_555

#END
