
#######################################################################
#
#                 Cambridge Crystallographic Data Centre
#                                CCDC 
#
#######################################################################
#
# If this CIF has been generated from an entry in the Cambridge 
# Structural Database, then it will include bibliographic, chemical, 
# crystal, experimental, refinement or atomic coordinate data resulting 
# from the CCDC's data processing and validation procedures.
#
#######################################################################

data_QIHVEI01
_symmetry_cell_setting           monoclinic
_symmetry_space_group_name_H-M   'P 21/c'
_symmetry_Int_Tables_number      14
_space_group_name_Hall           '-P 2ybc'
loop_
_symmetry_equiv_pos_site_id
_symmetry_equiv_pos_as_xyz
1 x,y,z
2 x,1/2-y,1/2+z
3 -x,-y,-z
4 -x,1/2+y,1/2-z
_cell_length_a                   15.503(3)
_cell_length_b                   14.748(3)
_cell_length_c                   10.467(2)
_cell_angle_alpha                90
_cell_angle_beta                 92.01(3)
_cell_angle_gamma                90
_cell_volume                     2391.68
loop_
_atom_site_label
_atom_site_type_symbol
_atom_site_fract_x
_atom_site_fract_y
_atom_site_fract_z
Ni1 Ni 0.233168(17) 0.020928(19) 0.70081(3)
V1 V 0.31298(2) -0.19855(3) 0.81429(3)
V2 V 0.25046(2) -0.35676(3) 0.60418(3)
V3 V 0.08534(2) -0.05783(3) 0.92480(4)
N1 N 0.15101(11) -0.03180(13) 0.56144(18)
N2 N 0.17767(12) 0.13840(13) 0.62506(19)
N3 N 0.33473(12) 0.03804(14) 0.57154(18)
N4 N 0.32605(12) 0.08354(13) 0.81563(18)
O1 O 0.41313(10) -0.21090(13) 0.78375(17)
O2 O 0.27749(11) -0.10231(12) 0.75782(17)
O3 O 0.24997(12) -0.28954(12) 0.74155(16)
O4 O 0.30480(12) -0.20035(15) 0.98611(16)
O5 O 0.29799(19) -0.44879(16) 0.6371(2)
O6 O 0.14598(12) -0.12104(15) 1.04692(18)
O7 O 0.14681(10) 0.01425(11) 0.84842(16)
O8 O 0.04686(13) -0.13070(13) 0.82338(19)
O9 O 0.0000 0.0000 1.0000
C1 C 0.14092(14) -0.12001(17) 0.5353(2)
H1 H 0.1634 -0.1623 0.5934
C2 C 0.09830(15) -0.15079(19) 0.4254(2)
H2 H 0.0921 -0.2126 0.4098
C3 C 0.06556(16) -0.0886(2) 0.3402(2)
H3 H 0.0378 -0.1075 0.2647
C4 C 0.07402(16) 0.0027(2) 0.3671(2)
H4 H 0.0509 0.0457 0.3107
C5 C 0.11702(14) 0.02954(17) 0.4785(2)
C6 C 0.12879(14) 0.12512(16) 0.5167(2)
C7 C 0.09231(17) 0.19717(19) 0.4497(3)
H5 H 0.0594 0.1871 0.3750
C8 C 0.1053(2) 0.2841(2) 0.4950(3)
H6 H 0.0816 0.3333 0.4509
C9 C 0.1536(2) 0.29702(19) 0.6056(3)
H7 H 0.1625 0.3551 0.6382
C10 C 0.18866(17) 0.22280(17) 0.6675(3)
H8 H 0.2215 0.2320 0.7424
C11 C 0.33426(16) 0.0173(2) 0.4475(2)
H9 H 0.2900 -0.0192 0.4142
C12 C 0.39618(18) 0.0473(2) 0.3666(3)
H10 H 0.3936 0.0314 0.2805
C13 C 0.46202(19) 0.1012(2) 0.4150(3)
H11 H 0.5040 0.1235 0.3620
C14 C 0.46452(17) 0.1214(2) 0.5432(3)
H12 H 0.5085 0.1575 0.5782
C15 C 0.40097(15) 0.08740(17) 0.6200(2)
C16 C 0.40069(15) 0.10330(17) 0.7594(2)
C17 C 0.47261(17) 0.1328(2) 0.8292(3)
H13 H 0.5244 0.1433 0.7894
C18 C 0.4662(2) 0.1466(2) 0.9589(3)
H14 H 0.5133 0.1678 1.0075
C19 C 0.3898(2) 0.1286(2) 1.0152(3)
H15 H 0.3841 0.1380 1.1024
C20 C 0.32136(18) 0.09656(19) 0.9411(2)
H16 H 0.2698 0.0834 0.9801
V2A V 0.25046(2) -0.14324(3) 1.10418(3)
V3B V -0.08534(2) 0.05783(3) 1.07520(4)
O4A O 0.30480(12) -0.29965(15) 0.48611(16)
O6A O 0.14598(12) -0.37896(15) 0.54692(18)
O7B O -0.14681(10) -0.01425(11) 1.15158(16)
O8B O -0.04686(13) 0.13070(13) 1.17662(19)
Ni1B Ni -0.233168(17) -0.020928(19) 1.29919(3)
V1A V 0.31298(2) -0.30145(3) 0.31429(3)
N1B N -0.15101(11) 0.03180(13) 1.43856(18)
N2B N -0.17767(12) -0.13840(13) 1.37494(19)
C1B C -0.14092(14) 0.12001(17) 1.4647(2)
H1B H -0.1634 0.1623 1.4066
C2B C -0.09830(15) 0.15079(19) 1.5746(2)
H2B H -0.0921 0.2126 1.5902
C3B C -0.06556(16) 0.0886(2) 1.6598(2)
H3B H -0.0378 0.1075 1.7353
C4B C -0.07402(16) -0.0027(2) 1.6329(2)
H4B H -0.0509 -0.0457 1.6893
C5B C -0.11702(14) -0.02954(17) 1.5215(2)
C6B C -0.12879(14) -0.12512(16) 1.4833(2)
C7B C -0.09231(17) -0.19717(19) 1.5503(3)
H5B H -0.0594 -0.1871 1.6250
C8B C -0.1053(2) -0.2841(2) 1.5050(3)
H6B H -0.0816 -0.3333 1.5491
C9B C -0.1536(2) -0.29702(19) 1.3944(3)
H7B H -0.1625 -0.3551 1.3618
C10B C -0.18866(17) -0.22280(17) 1.3325(3)
H8B H -0.2215 -0.2320 1.2576
N3B N -0.33473(12) -0.03804(14) 1.42846(18)
N4B N -0.32605(12) -0.08354(13) 1.18437(18)
C11B C -0.33426(16) -0.0173(2) 1.5525(2)
H9B H -0.2900 0.0192 1.5858
C12B C -0.39618(18) -0.0473(2) 1.6334(3)
H10B H -0.3936 -0.0314 1.7195
C13B C -0.46202(19) -0.1012(2) 1.5850(3)
H11B H -0.5040 -0.1235 1.6380
C14B C -0.46452(17) -0.1214(2) 1.4568(3)
H12B H -0.5085 -0.1575 1.4218
C15B C -0.40097(15) -0.08740(17) 1.3800(2)
C16B C -0.40069(15) -0.10330(17) 1.2406(2)
C17B C -0.47261(17) -0.1328(2) 1.1708(3)
H13B H -0.5244 -0.1433 1.2106
C18B C -0.4662(2) -0.1466(2) 1.0411(3)
H14B H -0.5133 -0.1678 0.9925
C19B C -0.3898(2) -0.1286(2) 0.9848(3)
H15B H -0.3841 -0.1380 0.8976
C20B C -0.32136(18) -0.09656(19) 1.0589(2)
H16B H -0.2698 -0.0834 1.0199
O2B O -0.27749(11) 0.10231(12) 1.24218(17)
O3A O 0.24997(12) -0.21046(12) 1.24155(16)
O5A O 0.29799(19) -0.05121(16) 1.1371(2)
O6B O -0.14598(12) 0.12104(15) 0.95308(18)
V3A V 0.08534(2) -0.44217(3) 0.42480(4)
O1A O 0.41313(10) -0.28910(13) 0.28375(17)
O2A O 0.27749(11) -0.39769(12) 0.25782(17)
O3A_2 O 0.24997(12) -0.21046(12) 0.24155(16)
V1B V -0.31298(2) 0.19855(3) 1.18571(3)
V1A_2 V 0.31298(2) -0.30145(3) 1.31429(3)
loop_
_geom_bond_atom_site_label_1
_geom_bond_atom_site_label_2
_geom_bond_site_symmetry_1
_geom_bond_site_symmetry_2
Ni1 N1 1_555 1_555
V1 O1 1_555 1_555
V2 O3 1_555 1_555
V3 O6 1_555 1_555
N1 C1 1_555 1_555
N2 Ni1 1_555 1_555
N3 Ni1 1_555 1_555
N4 Ni1 1_555 1_555
O2 Ni1 1_555 1_555
O3 V1 1_555 1_555
O4 V1 1_555 1_555
O5 V2 1_555 1_555
O6 V2A 1_555 1_555
O7 Ni1 1_555 1_555
O8 V3 1_555 1_555
O9 V3 1_555 1_555
C1 H1 1_555 1_555
C2 C1 1_555 1_555
H2 C2 1_555 1_555
C3 C2 1_555 1_555
H3 C3 1_555 1_555
C4 C3 1_555 1_555
H4 C4 1_555 1_555
C5 N1 1_555 1_555
C6 N2 1_555 1_555
C7 C6 1_555 1_555
H5 C7 1_555 1_555
C8 C7 1_555 1_555
H6 C8 1_555 1_555
C9 C8 1_555 1_555
H7 C9 1_555 1_555
C10 N2 1_555 1_555
H8 C10 1_555 1_555
C11 N3 1_555 1_555
H9 C11 1_555 1_555
C12 C11 1_555 1_555
H10 C12 1_555 1_555
C13 C12 1_555 1_555
H11 C13 1_555 1_555
C14 C13 1_555 1_555
H12 C14 1_555 1_555
C15 N3 1_555 1_555
C16 N4 1_555 1_555
C17 C16 1_555 1_555
H13 C17 1_555 1_555
C18 C17 1_555 1_555
H14 C18 1_555 1_555
C19 C18 1_555 1_555
H15 C19 1_555 1_555
C20 N4 1_555 1_555
H16 C20 1_555 1_555
V2A O4 1_555 1_555
V3B O9 1_555 1_555
O4A V2 1_555 1_555
O6A V2 1_555 1_555
O7B V3B 1_555 1_555
O8B V3B 1_555 1_555
Ni1B O7B 1_555 1_555
V1A O4A 1_555 1_555
N1B Ni1B 1_555 1_555
N2B Ni1B 1_555 1_555
C1B N1B 1_555 1_555
H1B C1B 1_555 1_555
C2B C1B 1_555 1_555
H2B C2B 1_555 1_555
C3B C2B 1_555 1_555
H3B C3B 1_555 1_555
C4B C3B 1_555 1_555
H4B C4B 1_555 1_555
C5B N1B 1_555 1_555
C6B N2B 1_555 1_555
C7B C6B 1_555 1_555
H5B C7B 1_555 1_555
C8B C7B 1_555 1_555
H6B C8B 1_555 1_555
C9B C8B 1_555 1_555
H7B C9B 1_555 1_555
C10B N2B 1_555 1_555
H8B C10B 1_555 1_555
N3B Ni1B 1_555 1_555
N4B Ni1B 1_555 1_555
C11B N3B 1_555 1_555
H9B C11B 1_555 1_555
C12B C11B 1_555 1_555
H10B C12B 1_555 1_555
C13B C12B 1_555 1_555
H11B C13B 1_555 1_555
C14B C13B 1_555 1_555
H12B C14B 1_555 1_555
C15B N3B 1_555 1_555
C16B N4B 1_555 1_555
C17B C16B 1_555 1_555
H13B C17B 1_555 1_555
C18B C17B 1_555 1_555
H14B C18B 1_555 1_555
C19B C18B 1_555 1_555
H15B C19B 1_555 1_555
C20B N4B 1_555 1_555
H16B C20B 1_555 1_555
O2B Ni1B 1_555 1_555
O3A V2A 1_555 1_555
O5A V2A 1_555 1_555
O6B V3B 1_555 1_555
V3A O6A 1_555 1_555
O1A V1A 1_555 1_555
O2A V1A 1_555 1_555
O3A_2 V1A 1_555 1_555
V1B O2B 1_555 1_555
V1A_2 O3A 1_555 1_555
V1 O2 1_555 1_555
V3 O7 1_555 1_555
C4 C5 1_555 1_555
C5 C6 1_555 1_555
C9 C10 1_555 1_555
C14 C15 1_555 1_555
C15 C16 1_555 1_555
C19 C20 1_555 1_555
C4B C5B 1_555 1_555
C5B C6B 1_555 1_555
C9B C10B 1_555 1_555
C14B C15B 1_555 1_555
C15B C16B 1_555 1_555
C19B C20B 1_555 1_555

#END
