
#######################################################################
#
#                 Cambridge Crystallographic Data Centre
#                                CCDC 
#
#######################################################################
#
# If this CIF has been generated from an entry in the Cambridge 
# Structural Database, then it will include bibliographic, chemical, 
# crystal, experimental, refinement or atomic coordinate data resulting 
# from the CCDC's data processing and validation procedures.
#
#######################################################################

data_QIHXIO
_symmetry_cell_setting           monoclinic
_symmetry_space_group_name_H-M   'P 21/c'
_symmetry_Int_Tables_number      14
_space_group_name_Hall           '-P 2ybc'
loop_
_symmetry_equiv_pos_site_id
_symmetry_equiv_pos_as_xyz
1 x,y,z
2 x,1/2-y,1/2+z
3 -x,-y,-z
4 -x,1/2+y,1/2-z
_cell_length_a                   16.0884(4)
_cell_length_b                   23.1083(5)
_cell_length_c                   25.8233(6)
_cell_angle_alpha                90
_cell_angle_beta                 104.0900(10)
_cell_angle_gamma                90
_cell_volume                     9311.64
loop_
_atom_site_label
_atom_site_type_symbol
_atom_site_fract_x
_atom_site_fract_y
_atom_site_fract_z
Rh1 Rh 0.236790(18) -0.260830(11) -0.294190(10)
Rh2 Rh 0.253940(18) -0.247260(11) -0.199600(10)
Fe1 Fe 0.24944(3) -0.26650(2) -0.496520(18)
O1 O 0.11733(16) -0.22421(10) -0.30593(9)
O2 O 0.13363(16) -0.21358(10) -0.21720(9)
O3 O 0.18367(16) -0.33992(10) -0.28445(9)
O4 O 0.19748(16) -0.32528(10) -0.19614(9)
O5 O 0.35729(16) -0.29485(10) -0.27660(9)
O6 O 0.37202(16) -0.28541(10) -0.18752(9)
O7 O 0.29242(16) -0.18238(10) -0.29772(9)
O8 O 0.31019(16) -0.16924(10) -0.20902(9)
N1 N 0.22889(19) -0.27043(12) -0.38029(11)
N2 N 0.0523(2) -0.26147(13) -0.54009(12)
N3 N 0.2475(2) -0.40082(14) -0.49903(12)
N4 N 0.4473(2) -0.26696(13) -0.45488(12)
N5 N 0.2524(2) -0.13234(14) -0.49254(13)
N6 N 0.2647(2) -0.26334(12) -0.61357(11)
C1 C 0.0902(2) -0.21184(15) -0.26528(14)
C2 C 0.1752(2) -0.35483(15) -0.23888(14)
C3 C 0.3993(2) -0.29877(14) -0.22827(14)
C4 C 0.3194(2) -0.15413(15) -0.25447(13)
C5 C 0.2366(2) -0.26896(14) -0.42340(13)
C6 C 0.1254(3) -0.26424(15) -0.52303(13)
C7 C 0.2483(2) -0.35060(16) -0.49836(13)
C8 C 0.3736(3) -0.26734(15) -0.47106(13)
C9 C 0.2512(2) -0.18233(16) -0.49369(14)
C10 C 0.2597(2) -0.26507(14) -0.56998(14)
C11 C -0.0028(3) -0.19560(15) -0.27423(14)
C12 C -0.0453(3) -0.20904(18) -0.23431(16)
H1 H -0.0146 -0.2252 -0.2014
C13 C -0.1328(3) -0.1986(2) -0.24335(17)
H2 H -0.1623 -0.2084 -0.2169
C14 C -0.1768(3) -0.17390(19) -0.29085(17)
H3 H -0.2365 -0.1667 -0.2970
C15 C -0.1338(3) -0.15962(17) -0.32954(16)
H4 H -0.1642 -0.1419 -0.3618
C16 C -0.0473(3) -0.17099(16) -0.32162(15)
H5 H -0.0185 -0.1619 -0.3487
C17 C 0.1352(2) -0.41263(14) -0.23453(14)
C18 C 0.1354(3) -0.43570(16) -0.18471(15)
H6 H 0.1593 -0.4141 -0.1533
C19 C 0.1010(3) -0.48977(17) -0.18063(17)
H7 H 0.1015 -0.5052 -0.1465
C20 C 0.0659(3) -0.52156(17) -0.22613(17)
H8 H 0.0426 -0.5589 -0.2233
C21 C 0.0651(3) -0.49850(16) -0.27591(16)
H9 H 0.0407 -0.5201 -0.3073
C22 C 0.0995(2) -0.44416(15) -0.28016(15)
H10 H 0.0986 -0.4286 -0.3143
C23 C 0.4898(3) -0.31945(15) -0.21823(14)
C24 C 0.5308(3) -0.34370(16) -0.16960(15)
H11 H 0.5002 -0.3497 -0.1429
C25 C 0.6158(3) -0.35905(18) -0.16012(17)
H12 H 0.6432 -0.3763 -0.1269
C26 C 0.5361(3) -0.31063(17) -0.25681(15)
H13 H 0.5086 -0.2944 -0.2904
C27 C 0.6619(3) -0.34996(18) -0.19775(18)
H14 H 0.7207 -0.3604 -0.1905
C28 C 0.6217(3) -0.32540(19) -0.24626(17)
H15 H 0.6532 -0.3187 -0.2724
C29 C 0.3649(2) -0.09852(15) -0.25802(14)
C30 C 0.3929(3) -0.06427(15) -0.21269(14)
H16 H 0.3855 -0.0771 -0.1791
C31 C 0.4314(3) -0.01129(16) -0.21675(16)
H17 H 0.4493 0.0123 -0.1859
C32 C 0.4442(3) 0.00758(17) -0.26501(16)
H18 H 0.4709 0.0438 -0.2674
C33 C 0.4176(3) -0.02718(17) -0.31006(16)
H19 H 0.4265 -0.0146 -0.3433
C34 C 0.3785(3) -0.07979(16) -0.30677(15)
H20 H 0.3607 -0.1033 -0.3377
N6A N 0.2647(2) -0.23666(12) -0.11357(11)
Rh2A Rh 0.253940(18) -0.252740(11) -0.699600(10)
Rh1A Rh 0.236790(18) -0.239170(11) -0.794190(10)
O2A O 0.13363(16) -0.28642(10) -0.71720(9)
O4A O 0.19748(16) -0.17472(10) -0.69614(9)
O6A O 0.37202(16) -0.21459(10) -0.68752(9)
O8A O 0.31019(16) -0.33076(10) -0.70902(9)
K1 K 0.58215(6) -0.04095(4) -0.11208(3)
O9 O 0.62998(18) -0.13258(12) -0.17460(11)
O10 O 0.53774(18) -0.15793(11) -0.09661(10)
O11 O 0.43597(18) -0.06697(11) -0.07673(10)
O12 O 0.47653(18) 0.04801(11) -0.08625(10)
O13 O 0.59106(18) 0.07197(11) -0.14784(10)
O14 O 0.69074(19) -0.01759(12) -0.17601(11)
O15 O 0.6850(2) -0.10764(13) -0.02893(13)
H21 H 0.7282(11) -0.1193(12) -0.0396(7)
H22 H 0.6553(8) -0.1369(8) -0.0242(10)
C35 C 0.7011(3) -0.0605(2) -0.21322(18)
H23 H 0.7530 -0.0523 -0.2261
H24 H 0.6510 -0.0603 -0.2443
C36 C 0.7091(3) -0.1182(2) -0.18683(19)
H25 H 0.7237 -0.1478 -0.2109
H26 H 0.7555 -0.1173 -0.1537
C37 C 0.6342(3) -0.18761(18) -0.14870(19)
H27 H 0.6812 -0.1876 -0.1158
H28 H 0.6461 -0.2183 -0.1726
C38 C 0.5506(3) -0.19924(18) -0.13506(18)
H29 H 0.5033 -0.1966 -0.1677
H30 H 0.5508 -0.2388 -0.1204
C39 C 0.4581(3) -0.16775(16) -0.08321(16)
H31 H 0.4597 -0.2054 -0.0646
H32 H 0.4112 -0.1691 -0.1161
C40 C 0.4421(3) -0.12023(17) -0.04792(16)
H33 H 0.3882 -0.1276 -0.0370
H34 H 0.4897 -0.1182 -0.0154
C41 C 0.3965(3) -0.02287(17) -0.05228(16)
H35 H 0.4304 -0.0160 -0.0153
H36 H 0.3381 -0.0350 -0.0509
C42 C 0.3922(3) 0.03115(17) -0.08452(17)
H37 H 0.3572 0.0243 -0.1212
H38 H 0.3649 0.0624 -0.0683
C43 C 0.4792(3) 0.10354(16) -0.11021(16)
H39 H 0.4605 0.1338 -0.0883
H40 H 0.4400 0.1042 -0.1463
C44 C 0.5679(3) 0.11517(16) -0.11392(16)
H41 H 0.5717 0.1542 -0.1290
H42 H 0.6075 0.1136 -0.0780
C45 C 0.6745(3) 0.08168(18) -0.15616(17)
H43 H 0.7186 0.0758 -0.1224
H44 H 0.6792 0.1218 -0.1685
C46 C 0.6868(3) 0.0398(2) -0.19716(18)
H45 H 0.6387 0.0428 -0.2293
H46 H 0.7406 0.0488 -0.2077
K2 K -0.08470(6) -0.46196(3) -0.38593(3)
O16 O -0.05323(19) -0.34543(11) -0.40912(11)
O17 O 0.06294(18) -0.43401(11) -0.41852(10)
O18 O 0.01956(18) -0.55043(11) -0.41319(10)
O19 O -0.08988(19) -0.57605(11) -0.34862(11)
O20 O -0.1796(2) -0.48642(13) -0.31135(12)
O21 O -0.1323(2) -0.37330(12) -0.32489(12)
O22 O -0.2086(2) -0.48005(12) -0.47122(12)
H47 H -0.2270(15) -0.5134(3) -0.4831(10)
H48 H -0.2442(15) -0.4545(4) -0.4869(10)
C47 C -0.1507(4) -0.3221(2) -0.3558(2)
H49 H -0.1676 -0.2910 -0.3340
H50 H -0.1992 -0.3292 -0.3870
C48 C -0.0762(4) -0.30368(19) -0.3740(2)
H51 H -0.0887 -0.2662 -0.3929
H52 H -0.0273 -0.2979 -0.3428
C49 C 0.0312(3) -0.33414(17) -0.41550(17)
H53 H 0.0721 -0.3321 -0.3801
H54 H 0.0321 -0.2965 -0.4337
C50 C 0.0568(3) -0.38093(17) -0.44750(17)
H55 H 0.0138 -0.3847 -0.4820
H56 H 0.1128 -0.3716 -0.4550
C51 C 0.1015(3) -0.47791(17) -0.44353(15)
H57 H 0.1603 -0.4661 -0.4443
H58 H 0.0679 -0.4834 -0.4808
C52 C 0.1045(3) -0.53309(17) -0.41346(16)
H59 H 0.1322 -0.5635 -0.4304
H60 H 0.1387 -0.5277 -0.3763
C53 C 0.0166(3) -0.60657(16) -0.39057(16)
H61 H 0.0573 -0.6086 -0.3551
H62 H 0.0332 -0.6363 -0.4138
C54 C -0.0722(3) -0.61781(17) -0.38530(16)
H63 H -0.1137 -0.6139 -0.4204
H64 H -0.0767 -0.6575 -0.3717
C55 C -0.1716(3) -0.58410(19) -0.3377(2)
H65 H -0.1787 -0.6248 -0.3276
H66 H -0.2177 -0.5746 -0.3695
C56 C -0.1752(3) -0.5448(2) -0.2928(2)
H67 H -0.2263 -0.5538 -0.2793
H68 H -0.1236 -0.5501 -0.2632
C57 C -0.1765(4) -0.4443(2) -0.2709(2)
H69 H -0.1191 -0.4444 -0.2458
H70 H -0.2196 -0.4535 -0.2505
C58 C -0.1945(4) -0.3865(2) -0.2963(2)
H71 H -0.2522 -0.3865 -0.3210
H72 H -0.1934 -0.3568 -0.2686
K3 K 0.0000 0.0000 -0.5000
O23 O -0.1395(2) 0.04363(13) -0.57035(12)
O24 O -0.1418(2) -0.07428(14) -0.53789(14)
O25 O -0.0085(2) -0.11027(13) -0.44588(12)
O26 O -0.0924(2) 0.07034(13) -0.44534(12)
H73 H -0.0609(7) 0.0978(8) -0.4303(11)
H74 H -0.1366(11) 0.0832(11) -0.4672(5)
C59 C -0.2047(4) 0.0041(2) -0.5939(2)
H75 H -0.1883 -0.0169 -0.6234
H76 H -0.2587 0.0253 -0.6090
C60 C -0.2177(3) -0.0386(2) -0.5518(2)
H77 H -0.2260 -0.0177 -0.5200
H78 H -0.2690 -0.0627 -0.5662
C61 C -0.1519(4) -0.1169(2) -0.4993(2)
H79 H -0.1977 -0.1446 -0.5157
H80 H -0.1679 -0.0979 -0.4688
C62 C -0.0678(3) -0.1481(2) -0.4807(2)
H81 H -0.0760 -0.1838 -0.4614
H82 H -0.0452 -0.1590 -0.5117
C63 C 0.0734(3) -0.13573(19) -0.43018(18)
H83 H 0.0941 -0.1462 -0.4621
H84 H 0.0708 -0.1714 -0.4093
C64 C -0.1329(3) 0.0930(2) -0.60315(18)
H85 H -0.1106 0.0809 -0.6340
H86 H -0.1901 0.1107 -0.6169
C64B C 0.1329(3) -0.0930(2) -0.39685(18)
O23B O 0.1395(2) -0.04363(13) -0.42965(12)
C59B C 0.2047(4) -0.0041(2) -0.4061(2)
H75B H 0.1883 0.0169 -0.3766
H76B H 0.2587 -0.0253 -0.3910
C60B C 0.2177(3) 0.0386(2) -0.4482(2)
O24B O 0.1418(2) 0.07428(14) -0.46211(14)
C61B C 0.1519(4) 0.1169(2) -0.5007(2)
H79B H 0.1977 0.1446 -0.4843
H80B H 0.1679 0.0979 -0.5312
C62B C 0.0678(3) 0.1481(2) -0.5193(2)
O25B O 0.0085(2) 0.11027(13) -0.55412(12)
C63B C -0.0734(3) 0.13573(19) -0.56982(18)
H83B H -0.0941 0.1462 -0.5379
H84B H -0.0708 0.1714 -0.5907
H81B H 0.0760 0.1838 -0.5386
H82B H 0.0452 0.1590 -0.4883
H77B H 0.2260 0.0177 -0.4800
H78B H 0.2690 0.0627 -0.4338
H85B H 0.1106 -0.0809 -0.3660
H86B H 0.1901 -0.1107 -0.3831
O26B O 0.0924(2) -0.07034(13) -0.55466(12)
H73B H 0.0609(7) -0.0978(8) -0.5697(11)
H74B H 0.1366(11) -0.0832(11) -0.5328(5)
K4 K 0.5000 0.0000 -0.5000
O27 O 0.6303(2) -0.01051(12) -0.40663(11)
O28 O 0.54822(19) 0.09840(11) -0.43445(11)
O29 O 0.44526(19) 0.11088(12) -0.54061(11)
O30 O 0.3935(2) -0.05586(13) -0.44403(12)
H87 H 0.3471(9) -0.0655(13) -0.4661(5)
H88 H 0.4189(9) -0.0863(9) -0.4294(12)
C65 C 0.6344(3) 0.03636(18) -0.36990(16)
H89 H 0.6877 0.0338 -0.3412
H90 H 0.5849 0.0346 -0.3534
C66 C 0.6326(3) 0.09211(18) -0.40008(17)
H91 H 0.6457 0.1251 -0.3749
H92 H 0.6760 0.0912 -0.4215
C67 C 0.5393(3) 0.15149(17) -0.46338(17)
H93 H 0.5829 0.1538 -0.4845
H94 H 0.5479 0.1846 -0.4383
C68 C 0.4517(3) 0.15404(18) -0.49957(17)
H95 H 0.4082 0.1467 -0.4790
H96 H 0.4412 0.1929 -0.5159
C69 C 0.3643(3) 0.1117(2) -0.57843(19)
H97 H 0.3545 0.1500 -0.5960
H98 H 0.3178 0.1044 -0.5602
C70 C 0.6360(3) -0.06560(19) -0.38076(18)
H99 H 0.6893 -0.0679 -0.3520
H100 H 0.5867 -0.0710 -0.3646
C70B C 0.3640(3) 0.06560(19) -0.61924(18)
O27B O 0.3697(2) 0.01051(12) -0.59337(11)
C65B C 0.3656(3) -0.03636(18) -0.63010(16)
H89B H 0.3123 -0.0338 -0.6588
H90B H 0.4151 -0.0346 -0.6466
C66B C 0.3674(3) -0.09211(18) -0.59992(17)
O28B O 0.45178(19) -0.09840(11) -0.56555(11)
C67B C 0.4607(3) -0.15149(17) -0.53662(17)
H93B H 0.4171 -0.1538 -0.5155
H94B H 0.4521 -0.1846 -0.5617
C68B C 0.5483(3) -0.15404(18) -0.50043(17)
O29B O 0.55474(19) -0.11088(12) -0.45939(11)
C69B C 0.6357(3) -0.1117(2) -0.42157(19)
H97B H 0.6455 -0.1500 -0.4040
H98B H 0.6822 -0.1044 -0.4398
H95B H 0.5918 -0.1467 -0.5210
H96B H 0.5588 -0.1929 -0.4841
H91B H 0.3543 -0.1251 -0.6251
H92B H 0.3240 -0.0912 -0.5785
H99B H 0.3107 0.0679 -0.6480
H100B H 0.4133 0.0710 -0.6354
O30B O 0.6065(2) 0.05586(13) -0.55597(12)
H87B H 0.6529(9) 0.0655(13) -0.5339(5)
H88B H 0.5811(9) 0.0863(9) -0.5706(12)
O31 O 0.0634(2) -0.17536(13) -0.62771(12)
H101 H 0.069(3) -0.2001(13) -0.6027(11)
H102 H 0.098(2) -0.1837(16) -0.6468(14)
O32 O -0.1266(2) -0.25974(15) -0.58797(16)
H103 H -0.0722(4) -0.2612(19) -0.5782(19)
H104 H -0.142(2) -0.2298(13) -0.6071(17)
O33 O 0.4301(2) -0.20083(19) -0.35699(15)
H105 H 0.3824(16) -0.205(2) -0.3490(18)
H106 H 0.429(3) -0.218(2) -0.3863(11)
O34 O -0.1165(2) -0.14399(17) -0.63234(17)
H107 H -0.0687(16) -0.150(2) -0.640(2)
H108 H -0.113(3) -0.1140(14) -0.6126(18)
O35 O 0.5858(3) -0.16727(17) -0.29709(17)
H109 H 0.5334(8) -0.175(2) -0.311(2)
H110 H 0.617(2) -0.1938(17) -0.305(2)
O36 O -0.1807(2) -0.31678(19) -0.50759(18)
H111 H -0.1326(15) -0.326(2) -0.4873(18)
H112 H -0.174(3) -0.2903(19) -0.5291(17)
O37 O 0.6227(3) -0.2592(2) -0.3795(3)
H113 H 0.621(4) -0.230(2) -0.359(2)
H114 H 0.5727(19) -0.264(3) -0.400(2)
O38 O 0.2612(8) 0.2259(3) -0.5491(4)
H115 H 0.249(9) 0.225(5) -0.519(3)
H116 H 0.270(9) 0.2609(18) -0.557(5)
loop_
_geom_bond_atom_site_label_1
_geom_bond_atom_site_label_2
_geom_bond_site_symmetry_1
_geom_bond_site_symmetry_2
Rh1 Rh2 1_555 1_555
Rh2 O2 1_555 1_555
Fe1 C5 1_555 1_555
O1 Rh1 1_555 1_555
O2 C1 1_555 1_555
O3 Rh1 1_555 1_555
O4 Rh2 1_555 1_555
O5 Rh1 1_555 1_555
O6 Rh2 1_555 1_555
O7 Rh1 1_555 1_555
O8 Rh2 1_555 1_555
N1 Rh1 1_555 1_555
N2 C6 1_555 1_555
N3 C7 1_555 1_555
N4 C8 1_555 1_555
N5 C9 1_555 1_555
N6 C10 1_555 1_555
C1 O1 1_555 1_555
C2 O3 1_555 1_555
C3 O5 1_555 1_555
C4 O7 1_555 1_555
C5 N1 1_555 1_555
C6 Fe1 1_555 1_555
C7 Fe1 1_555 1_555
C8 Fe1 1_555 1_555
C9 Fe1 1_555 1_555
C10 Fe1 1_555 1_555
C11 C1 1_555 1_555
C12 C11 1_555 1_555
H1 C12 1_555 1_555
C13 C12 1_555 1_555
H2 C13 1_555 1_555
C14 C13 1_555 1_555
H3 C14 1_555 1_555
C15 C14 1_555 1_555
H4 C15 1_555 1_555
C16 C11 1_555 1_555
H5 C16 1_555 1_555
C17 C2 1_555 1_555
C18 C17 1_555 1_555
H6 C18 1_555 1_555
C19 C18 1_555 1_555
H7 C19 1_555 1_555
C20 C19 1_555 1_555
H8 C20 1_555 1_555
C21 C20 1_555 1_555
H9 C21 1_555 1_555
C22 C17 1_555 1_555
H10 C22 1_555 1_555
C23 C3 1_555 1_555
C24 C23 1_555 1_555
H11 C24 1_555 1_555
C25 C24 1_555 1_555
H12 C25 1_555 1_555
C26 C23 1_555 1_555
H13 C26 1_555 1_555
C27 C25 1_555 1_555
H14 C27 1_555 1_555
C28 C26 1_555 1_555
H15 C28 1_555 1_555
C29 C4 1_555 1_555
C30 C29 1_555 1_555
H16 C30 1_555 1_555
C31 C30 1_555 1_555
H17 C31 1_555 1_555
C32 C31 1_555 1_555
H18 C32 1_555 1_555
C33 C32 1_555 1_555
H19 C33 1_555 1_555
C34 C29 1_555 1_555
H20 C34 1_555 1_555
K1 O9 1_555 1_555
O9 C36 1_555 1_555
O10 K1 1_555 1_555
O11 K1 1_555 1_555
O12 K1 1_555 1_555
O13 K1 1_555 1_555
O14 K1 1_555 1_555
O15 K1 1_555 1_555
H21 O15 1_555 1_555
H22 O15 1_555 1_555
C35 O14 1_555 1_555
H23 C35 1_555 1_555
H24 C35 1_555 1_555
C36 C35 1_555 1_555
H25 C36 1_555 1_555
H26 C36 1_555 1_555
C37 O9 1_555 1_555
H27 C37 1_555 1_555
H28 C37 1_555 1_555
C38 O10 1_555 1_555
H29 C38 1_555 1_555
H30 C38 1_555 1_555
C39 O10 1_555 1_555
H31 C39 1_555 1_555
H32 C39 1_555 1_555
C40 O11 1_555 1_555
H33 C40 1_555 1_555
H34 C40 1_555 1_555
C41 O11 1_555 1_555
H35 C41 1_555 1_555
H36 C41 1_555 1_555
C42 O12 1_555 1_555
H37 C42 1_555 1_555
H38 C42 1_555 1_555
C43 O12 1_555 1_555
H39 C43 1_555 1_555
H40 C43 1_555 1_555
C44 O13 1_555 1_555
H41 C44 1_555 1_555
H42 C44 1_555 1_555
C45 O13 1_555 1_555
H43 C45 1_555 1_555
H44 C45 1_555 1_555
C46 O14 1_555 1_555
H45 C46 1_555 1_555
H46 C46 1_555 1_555
K2 O16 1_555 1_555
O16 C48 1_555 1_555
O17 K2 1_555 1_555
O18 K2 1_555 1_555
O19 K2 1_555 1_555
O20 K2 1_555 1_555
O21 K2 1_555 1_555
O22 K2 1_555 1_555
H47 O22 1_555 1_555
H48 O22 1_555 1_555
C47 O21 1_555 1_555
H49 C47 1_555 1_555
H50 C47 1_555 1_555
C48 C47 1_555 1_555
H51 C48 1_555 1_555
H52 C48 1_555 1_555
C49 O16 1_555 1_555
H53 C49 1_555 1_555
H54 C49 1_555 1_555
C50 O17 1_555 1_555
H55 C50 1_555 1_555
H56 C50 1_555 1_555
C51 O17 1_555 1_555
H57 C51 1_555 1_555
H58 C51 1_555 1_555
C52 O18 1_555 1_555
H59 C52 1_555 1_555
H60 C52 1_555 1_555
C53 O18 1_555 1_555
H61 C53 1_555 1_555
H62 C53 1_555 1_555
C54 O19 1_555 1_555
H63 C54 1_555 1_555
H64 C54 1_555 1_555
C55 O19 1_555 1_555
H65 C55 1_555 1_555
H66 C55 1_555 1_555
C56 O20 1_555 1_555
H67 C56 1_555 1_555
H68 C56 1_555 1_555
C57 O20 1_555 1_555
H69 C57 1_555 1_555
H70 C57 1_555 1_555
C58 O21 1_555 1_555
H71 C58 1_555 1_555
H72 C58 1_555 1_555
K3 O23 1_555 1_555
O23 C59 1_555 1_555
O24 K3 1_555 1_555
O25 K3 1_555 1_555
O26 K3 1_555 1_555
H73 O26 1_555 1_555
H74 O26 1_555 1_555
C59 H75 1_555 1_555
H76 C59 1_555 1_555
C60 O24 1_555 1_555
H77 C60 1_555 1_555
H78 C60 1_555 1_555
C61 O24 1_555 1_555
H79 C61 1_555 1_555
H80 C61 1_555 1_555
C62 O25 1_555 1_555
H81 C62 1_555 1_555
H82 C62 1_555 1_555
C63 O25 1_555 1_555
H83 C63 1_555 1_555
H84 C63 1_555 1_555
C64 O23 1_555 1_555
H85 C64 1_555 1_555
H86 C64 1_555 1_555
K4 O27 1_555 1_555
O27 C65 1_555 1_555
O28 K4 1_555 1_555
O29 K4 1_555 1_555
O30 K4 1_555 1_555
H87 O30 1_555 1_555
H88 O30 1_555 1_555
C65 H89 1_555 1_555
H90 C65 1_555 1_555
C66 O28 1_555 1_555
H91 C66 1_555 1_555
H92 C66 1_555 1_555
C67 O28 1_555 1_555
H93 C67 1_555 1_555
H94 C67 1_555 1_555
C68 O29 1_555 1_555
H95 C68 1_555 1_555
H96 C68 1_555 1_555
C69 O29 1_555 1_555
H97 C69 1_555 1_555
H98 C69 1_555 1_555
C70 O27 1_555 1_555
H99 C70 1_555 1_555
H100 C70 1_555 1_555
O31 H101 1_555 1_555
H102 O31 1_555 1_555
O32 H103 1_555 1_555
H104 O32 1_555 1_555
O33 H105 1_555 1_555
H106 O33 1_555 1_555
O34 H107 1_555 1_555
H108 O34 1_555 1_555
O35 H109 1_555 1_555
H110 O35 1_555 1_555
O36 H111 1_555 1_555
H112 O36 1_555 1_555
O37 H113 1_555 1_555
H114 O37 1_555 1_555
O38 H115 1_555 1_555
H116 O38 1_555 1_555
C64B C63 1_555 1_555
O23B K3 1_555 1_555
C59B O23B 1_555 1_555
H75B C59B 1_555 1_555
H76B C59B 1_555 1_555
C60B C59B 1_555 1_555
O24B K3 1_555 1_555
C61B O24B 1_555 1_555
H79B C61B 1_555 1_555
H80B C61B 1_555 1_555
C62B C61B 1_555 1_555
O25B K3 1_555 1_555
C63B C64 1_555 1_555
H83B C63B 1_555 1_555
H84B C63B 1_555 1_555
H81B C62B 1_555 1_555
H82B C62B 1_555 1_555
H77B C60B 1_555 1_555
H78B C60B 1_555 1_555
H85B C64B 1_555 1_555
H86B C64B 1_555 1_555
C70B C69 1_555 1_555
O27B K4 1_555 1_555
C65B O27B 1_555 1_555
H89B C65B 1_555 1_555
H90B C65B 1_555 1_555
C66B C65B 1_555 1_555
O28B K4 1_555 1_555
C67B O28B 1_555 1_555
H93B C67B 1_555 1_555
H94B C67B 1_555 1_555
C68B C67B 1_555 1_555
O29B K4 1_555 1_555
C69B C70 1_555 1_555
H97B C69B 1_555 1_555
H98B C69B 1_555 1_555
H95B C68B 1_555 1_555
H96B C68B 1_555 1_555
H91B C66B 1_555 1_555
H92B C66B 1_555 1_555
H99B C70B 1_555 1_555
H100B C70B 1_555 1_555
O26B K3 1_555 1_555
H73B O26B 1_555 1_555
H74B O26B 1_555 1_555
O30B K4 1_555 1_555
H87B O30B 1_555 1_555
H88B O30B 1_555 1_555
N6A Rh2 1_555 1_555
Rh2A N6 1_555 1_555
Rh1A Rh2A 1_555 1_555
O2A Rh2A 1_555 1_555
O4A Rh2A 1_555 1_555
O6A Rh2A 1_555 1_555
O8A Rh2A 1_555 1_555
O4 C2 1_555 1_555
O6 C3 1_555 1_555
O8 C4 1_555 1_555
C15 C16 1_555 1_555
C21 C22 1_555 1_555
C27 C28 1_555 1_555
C33 C34 1_555 1_555
C37 C38 1_555 1_555
C39 C40 1_555 1_555
C41 C42 1_555 1_555
C43 C44 1_555 1_555
C45 C46 1_555 1_555
C49 C50 1_555 1_555
C51 C52 1_555 1_555
C53 C54 1_555 1_555
C55 C56 1_555 1_555
C57 C58 1_555 1_555
C59 C60 1_555 1_555
C61 C62 1_555 1_555
C65 C66 1_555 1_555
C67 C68 1_555 1_555
C64B O23B 1_555 1_555
C60B O24B 1_555 1_555
C62B O25B 1_555 1_555
O25B C63B 1_555 1_555
C70B O27B 1_555 1_555
C66B O28B 1_555 1_555
C68B O29B 1_555 1_555
O29B C69B 1_555 1_555

#END
