
#######################################################################
#
#                 Cambridge Crystallographic Data Centre
#                                CCDC 
#
#######################################################################
#
# If this CIF has been generated from an entry in the Cambridge 
# Structural Database, then it will include bibliographic, chemical, 
# crystal, experimental, refinement or atomic coordinate data resulting 
# from the CCDC's data processing and validation procedures.
#
#######################################################################

data_QIJHEY
_symmetry_cell_setting           monoclinic
_symmetry_space_group_name_H-M   'C c'
_symmetry_Int_Tables_number      9
_space_group_name_Hall           'C -2yc'
loop_
_symmetry_equiv_pos_site_id
_symmetry_equiv_pos_as_xyz
1 x,y,z
2 x,-y,1/2+z
3 1/2+x,1/2+y,z
4 1/2+x,1/2-y,1/2+z
_cell_length_a                   39.181(2)
_cell_length_b                   16.5180(9)
_cell_length_c                   25.5638(14)
_cell_angle_alpha                90
_cell_angle_beta                 129.465(3)
_cell_angle_gamma                90
_cell_volume                     12772.7
loop_
_atom_site_label
_atom_site_type_symbol
_atom_site_fract_x
_atom_site_fract_y
_atom_site_fract_z
Zn1 Zn 0.22797(2) -0.05729(3) -0.22812(2)
Zn2 Zn 0.36683(2) 0.02240(2) -0.07174(2)
Zn3 Zn 0.49147(2) -0.00309(3) 0.06853(2)
Zn4 Zn 0.61810(2) -0.02640(2) 0.21218(2)
N1 N 0.48159(6) 0.06886(13) 0.12665(9)
N2 N 0.43324(5) 0.17048(12) 0.25541(8)
N3 N 0.37712(7) 0.05820(14) 0.36968(9)
N4 N 0.60782(5) 0.05424(13) 0.26861(8)
N5 N 0.55557(5) 0.16869(14) 0.38853(8)
N6 N 0.50126(5) 0.07125(13) 0.50968(8)
F1 F 0.48031(6) 0.69225(10) 0.22044(8)
F2 F 0.48426(9) 0.85503(12) 0.22562(9)
F3 F 0.45274(9) 0.93759(11) 0.27535(10)
F4 F 0.40987(8) 0.85814(13) 0.31366(9)
F5 F 0.40469(7) 0.69781(12) 0.30956(8)
F6 F 0.60181(6) 0.69466(12) 0.34928(8)
F7 F 0.60429(7) 0.85479(13) 0.35153(9)
F8 F 0.56791(8) 0.93818(12) 0.39690(10)
F9 F 0.52419(7) 0.85552(13) 0.43345(9)
F10 F 0.52371(6) 0.69636(11) 0.43337(8)
C1 C 0.49190(6) 0.14358(16) 0.13951(10)
H1 H 0.5078 0.1659 0.1264
C2 C 0.48190(7) 0.19508(15) 0.17090(10)
H2 H 0.4896 0.2508 0.1771
C3 C 0.45978(7) 0.16225(16) 0.19366(11)
C4 C 0.45044(7) 0.08120(16) 0.18308(10)
H3 H 0.4363 0.0557 0.1981
C5 C 0.46189(7) 0.03631(16) 0.15002(10)
H4 H 0.4555 -0.0200 0.1436
C6 C 0.44573(6) 0.21141(14) 0.22597(10)
C7 C 0.44834(6) 0.29571(16) 0.22766(10)
H5 H 0.4584 0.3234 0.2072
C8 C 0.43584(7) 0.33825(15) 0.26000(9)
C9 C 0.41948(7) 0.29460(16) 0.28641(11)
H6 H 0.4085 0.3219 0.3057
C10 C 0.41945(6) 0.21128(15) 0.28417(9)
C11 C 0.39855(8) 0.03148(17) 0.34918(11)
H7 H 0.4049 -0.0248 0.3542
C12 C 0.41217(8) 0.07610(18) 0.32191(11)
H8 H 0.4274 0.0519 0.3083
C13 C 0.40352(7) 0.15888(16) 0.31390(10)
C14 C 0.38156(7) 0.19006(15) 0.33497(10)
H9 H 0.3750 0.2463 0.3300
C15 C 0.36891(6) 0.13988(15) 0.36342(9)
H10 H 0.3543 0.1623 0.3788
C16 C 0.43698(7) 0.42959(16) 0.26125(11)
C17 C 0.42797(7) 0.47351(16) 0.20638(11)
H11 H 0.4213 0.4449 0.1687
C18 C 0.42854(8) 0.55576(16) 0.20615(11)
H12 H 0.4201 0.5848 0.1674
C19 C 0.44182(8) 0.59648(16) 0.26415(11)
C20 C 0.45127(9) 0.55508(17) 0.31823(12)
H13 H 0.4599 0.5838 0.3572
C21 C 0.44835(9) 0.47105(17) 0.31650(11)
H14 H 0.4543 0.4425 0.3538
C22 C 0.44210(11) 0.68895(19) 0.26546(12)
C23 C 0.46210(12) 0.73094(17) 0.24373(13)
C24 C 0.46644(14) 0.8120(2) 0.24636(15)
C25 C 0.45091(14) 0.8554(2) 0.27209(16)
C26 C 0.43087(14) 0.8172(2) 0.29337(15)
C27 C 0.42791(11) 0.73483(18) 0.29079(13)
C28 C 0.62055(7) 0.12919(18) 0.28395(11)
H15 H 0.6395 0.1485 0.2756
C29 C 0.60898(7) 0.18281(17) 0.31122(10)
H16 H 0.6186 0.2375 0.3187
C30 C 0.58298(6) 0.15700(14) 0.32803(10)
C31 C 0.57192(8) 0.07706(17) 0.31640(12)
H17 H 0.5560 0.0551 0.3296
C32 C 0.58321(8) 0.02615(18) 0.28574(11)
H18 H 0.5737 -0.0286 0.2767
C33 C 0.57037(6) 0.20721(15) 0.36022(9)
C34 C 0.57186(6) 0.29377(13) 0.35979(9)
H19 H 0.5813 0.3207 0.3381
C35 C 0.55955(6) 0.33758(16) 0.39100(11)
C36 C 0.54361(7) 0.29663(15) 0.41876(10)
H20 H 0.5343 0.3258 0.4398
C37 C 0.54126(6) 0.21163(15) 0.41562(10)
C38 C 0.52020(8) 0.03835(16) 0.48598(11)
H21 H 0.5245 -0.0186 0.4900
C39 C 0.53365(7) 0.08016(17) 0.45690(11)
H22 H 0.5483 0.0535 0.4432
C40 C 0.52567(6) 0.16486(14) 0.44699(9)
C41 C 0.50558(6) 0.20003(16) 0.46927(10)
H23 H 0.4994 0.2564 0.4627
C42 C 0.49421(7) 0.15486(15) 0.50119(11)
H24 H 0.4813 0.1810 0.5179
C43 C 0.56009(8) 0.42747(16) 0.39120(11)
C44 C 0.55034(8) 0.46864(17) 0.33513(12)
H25 H 0.5426 0.4392 0.2970
C45 C 0.55209(8) 0.55324(17) 0.33565(11)
H26 H 0.5464 0.5810 0.2983
C46 C 0.56221(8) 0.59789(17) 0.39107(12)
C47 C 0.57055(8) 0.55436(17) 0.44501(11)
H27 H 0.5771 0.5832 0.4826
C48 C 0.56958(7) 0.46941(15) 0.44557(10)
H28 H 0.5754 0.4413 0.4829
C49 C 0.56246(11) 0.68733(18) 0.39195(14)
C50 C 0.58328(9) 0.73005(17) 0.37026(13)
C51 C 0.58354(11) 0.81534(19) 0.37061(12)
C52 C 0.56501(11) 0.85788(18) 0.39247(14)
C53 C 0.54399(11) 0.81738(19) 0.41291(13)
C54 C 0.54455(10) 0.7319(2) 0.41419(12)
O1 O 0.16222(13) -0.0737(5) -0.3106(2)
O2 O 0.09429(19) -0.0764(5) -0.3610(3)
C55 C 0.13206(13) -0.0875(4) -0.3083(2)
C56 C 0.13764(15) -0.1138(5) -0.2443(2)
H29 H 0.1095 -0.1066 -0.2532
H30 H 0.1605 -0.0805 -0.2055
H31 H 0.1464 -0.1709 -0.2342
O3 O 0.23949(7) -0.05904(19) -0.13958(11)
O4 O 0.25940(7) -0.18069(15) -0.14196(10)
C57 C 0.25518(8) -0.12601(19) -0.11293(13)
C58 C 0.27224(10) -0.1399(2) -0.04148(14)
H32 H 0.2597 -0.0991 -0.0301
H33 H 0.3046 -0.1355 -0.0098
H34 H 0.2635 -0.1940 -0.0381
O5 O 0.23319(5) 0.06012(13) -0.24250(8)
O6 O 0.30185(5) 0.02835(11) -0.15678(8)
C59 C 0.27371(8) 0.0810(2) -0.19639(12)
C60 C 0.28457(15) 0.1666(2) -0.1895(2)
H35 H 0.3031 0.1821 -0.1416
H36 H 0.2573 0.1986 -0.2157
H37 H 0.3007 0.1767 -0.2064
O7 O 0.35934(5) -0.08198(12) -0.03137(7)
O8 O 0.42590(5) -0.04625(11) 0.01638(8)
C61 C 0.39881(7) -0.09685(17) 0.00874(10)
C62 C 0.41539(9) -0.17714(17) 0.04355(13)
H38 H 0.3970 -0.1960 0.0547
H39 H 0.4461 -0.1716 0.0853
H40 H 0.4140 -0.2164 0.0135
O9 O 0.39576(5) 0.11684(11) -0.07773(8)
O10 O 0.46861(5) 0.09497(12) 0.00057(8)
C63 C 0.43468(7) 0.13710(15) -0.04155(11)
C64 C 0.44576(8) 0.22670(18) -0.04427(13)
H41 H 0.4209 0.2510 -0.0874
H42 H 0.4723 0.2286 -0.0403
H43 H 0.4510 0.2570 -0.0068
O11 O 0.51571(5) -0.09922(12) 0.13718(8)
O12 O 0.58752(5) -0.12163(12) 0.21613(8)
C65 C 0.54667(7) -0.14414(17) 0.17645(10)
C66 C 0.53911(10) -0.2305(2) 0.17989(16)
H44 H 0.5228 -0.2363 0.1969
H45 H 0.5676 -0.2584 0.2105
H46 H 0.5219 -0.2544 0.1345
O13 O 0.55712(5) 0.04009(11) 0.12172(7)
O14 O 0.62434(5) 0.07918(12) 0.17115(7)
C67 C 0.58306(7) 0.09434(16) 0.12955(10)
C68 C 0.56805(8) 0.17365(17) 0.09281(12)
H47 H 0.5509 0.1640 0.0442
H48 H 0.5939 0.2072 0.1097
H49 H 0.5495 0.2016 0.1005
Zn5 Zn 0.76353(2) 0.04757(3) 0.37824(2)
O15 O 0.74934(7) -0.06491(12) 0.38548(10)
O16 O 0.68330(5) -0.03176(12) 0.29430(8)
C69 C 0.70995(9) -0.08116(17) 0.33800(12)
C70 C 0.69386(12) -0.1699(2) 0.33466(18)
H50 H 0.6631 -0.1685 0.3168
H51 H 0.7126 -0.1935 0.3802
H52 H 0.6959 -0.2030 0.3048
O17 O 0.7804(2) -0.0385(4) 0.2779(4)
O18 O 0.74872(9) 0.0715(3) 0.28931(13)
C71 C 0.76412(17) 0.0323(4) 0.2698(2)
C72 C 0.74861(16) 0.0693(6) 0.2036(2)
H53 H 0.7281 0.1139 0.1910
H54 H 0.7335 0.0280 0.1680
H55 H 0.7741 0.0900 0.2090
O19 O 0.82424(7) 0.0594(3) 0.46234(12)
O20 O 0.89599(11) 0.0792(3) 0.54117(18)
C73 C 0.8596(2) 0.0770(3) 0.4768(2)
C74 C 0.86380(16) 0.1040(4) 0.4247(3)
H56 H 0.8783 0.0615 0.4184
H57 H 0.8815 0.1537 0.4403
H58 H 0.8343 0.1144 0.3816
N7 N 0.62913(6) 0.10171(14) 0.65304(9)
N8 N 0.67843(6) 0.21248(14) 0.52871(9)
N9 N 0.73547(6) 0.11511(13) 0.40930(9)
F11 F 0.63236(4) 0.73495(11) 0.56110(7)
F12 F 0.62563(6) 0.89557(13) 0.55239(9)
F13 F 0.66578(7) 0.98149(13) 0.51462(11)
F14 F 0.71508(5) 0.90293(13) 0.48929(10)
F15 F 0.72326(5) 0.74324(12) 0.50047(9)
C75 C 0.61778(8) 0.1799(2) 0.63952(12)
H59 H 0.6020 0.2024 0.6528
C76 C 0.62757(7) 0.22935(18) 0.60765(11)
H60 H 0.6180 0.2841 0.5983
C77 C 0.65141(7) 0.19908(16) 0.58925(10)
C78 C 0.66534(10) 0.1210(2) 0.60655(15)
H61 H 0.6833 0.0979 0.5975
C79 C 0.65318(8) 0.07675(17) 0.63694(11)
H62 H 0.6630 0.0222 0.6477
C80 C 0.66495(6) 0.25246(16) 0.55739(10)
C81 C 0.66348(7) 0.33599(17) 0.55857(11)
H63 H 0.6519 0.3618 0.5775
C82 C 0.67909(8) 0.38261(17) 0.53195(11)
C83 C 0.69264(7) 0.34205(16) 0.49963(11)
H64 H 0.7014 0.3713 0.4780
C84 C 0.69283(7) 0.25451(17) 0.50014(11)
C85 C 0.72055(7) 0.08181(18) 0.43820(12)
H65 H 0.7198 0.0244 0.4391
C86 C 0.70563(8) 0.12533(17) 0.46793(11)
H66 H 0.6942 0.0982 0.4866
C87 C 0.70830(6) 0.20751(16) 0.46868(9)
C88 C 0.72232(8) 0.24411(17) 0.43818(12)
H67 H 0.7226 0.3015 0.4363
C89 C 0.73632(8) 0.19793(18) 0.40950(12)
H68 H 0.7468 0.2248 0.3893
C90 C 0.67974(8) 0.47230(19) 0.53316(13)
C91 C 0.68249(8) 0.51468(19) 0.58240(12)
H69 H 0.6838 0.4865 0.6161
C92 C 0.68330(8) 0.5997(2) 0.58233(12)
H70 H 0.6858 0.6280 0.6170
C93 C 0.68077(8) 0.6409(2) 0.53708(14)
C94 C 0.67776(9) 0.5977(2) 0.48553(13)
H71 H 0.6760 0.6273 0.4520
C95 C 0.67741(9) 0.5152(2) 0.48355(13)
H72 H 0.6756 0.4873 0.4494
C96 C 0.67803(8) 0.72991(19) 0.53378(13)
C97 C 0.65527(9) 0.7743(2) 0.54762(13)
C98 C 0.65193(10) 0.8561(2) 0.54290(16)
C99 C 0.67144(10) 0.90096(19) 0.52298(16)
C100 C 0.69569(8) 0.8609(2) 0.51039(15)
C101 C 0.69967(9) 0.7787(2) 0.51493(16)
N10 N 0.25449(6) 0.12517(15) 0.23686(9)
N11 N 0.31025(5) 0.21292(13) 0.11785(8)
N12 N 0.35550(6) 0.10279(14) -0.01392(8)
F16 F 0.28284(6) 0.74145(15) 0.17348(10)
F17 F 0.29099(6) 0.90305(13) 0.18537(11)
F18 F 0.33470(8) 0.98516(13) 0.15182(12)
F19 F 0.37390(6) 0.90221(12) 0.11019(10)
F20 F 0.36935(5) 0.74049(11) 0.10222(8)
C102 C 0.25356(7) 0.20328(18) 0.23731(11)
H73 H 0.2432 0.2292 0.2580
C103 C 0.26693(7) 0.25021(17) 0.20928(10)
H74 H 0.2643 0.3074 0.2088
C104 C 0.28454(7) 0.21396(17) 0.18107(11)
C105 C 0.28511(7) 0.12608(17) 0.18222(11)
H75 H 0.2951 0.0971 0.1622
C106 C 0.27175(8) 0.08640(18) 0.21101(11)
H76 H 0.2742 0.0291 0.2139
C107 C 0.30004(6) 0.25925(16) 0.14973(9)
C108 C 0.30160(7) 0.33921(17) 0.15135(11)
H77 H 0.2919 0.3679 0.1721
C109 C 0.31728(6) 0.38293(16) 0.12301(10)
C110 C 0.32822(7) 0.33719(16) 0.08996(10)
H78 H 0.3376 0.3631 0.0678
C111 C 0.32539(7) 0.25295(17) 0.08956(10)
C112 C 0.32841(8) 0.0764(2) -0.00308(14)
H79 H 0.3154 0.0243 -0.0194
C113 C 0.31826(7) 0.12309(18) 0.03189(11)
H80 H 0.2997 0.1019 0.0406
C114 C 0.33640(7) 0.20261(17) 0.05387(11)
C115 C 0.36335(7) 0.22679(18) 0.04124(12)
H81 H 0.3767 0.2788 0.0556
C116 C 0.37180(7) 0.17604(17) 0.00722(12)
H82 H 0.3906 0.1957 -0.0013
C117 C 0.31927(7) 0.47290(16) 0.12510(10)
C118 C 0.32617(8) 0.51362(19) 0.17715(12)
H83 H 0.3294 0.4833 0.2116
C119 C 0.32883(9) 0.59885(19) 0.18260(13)
H84 H 0.3357 0.6249 0.2214
C120 C 0.32133(9) 0.64325(18) 0.13086(13)
C121 C 0.31559(8) 0.60187(19) 0.07658(14)
H85 H 0.3130 0.6319 0.0425
C122 C 0.31382(7) 0.51923(19) 0.07369(12)
H86 H 0.3088 0.4924 0.0365
C123 C 0.32418(11) 0.7365(2) 0.13654(15)
C124 C 0.30624(10) 0.7786(2) 0.15670(16)
C125 C 0.31029(11) 0.8630(2) 0.16543(19)
C126 C 0.33302(11) 0.9060(2) 0.14930(18)
C127 C 0.35106(10) 0.8625(2) 0.12668(17)
C128 C 0.34851(9) 0.78005(19) 0.12240(14)
Zn1A Zn 0.22797(2) 0.05729(3) 0.27188(2)
Zn2A Zn 0.36683(2) -0.02240(2) 0.42826(2)
Zn3A Zn 0.49147(2) 0.00309(3) 0.56853(2)
Zn4A Zn 0.61810(2) 0.02640(2) 0.71218(2)
N3A N 0.37712(7) -0.05820(14) -0.13032(9)
N6A N 0.50126(5) -0.07125(13) 0.00968(8)
N7A N 0.62913(6) -0.10171(14) 0.15304(9)
N10A N 0.25449(6) -0.12517(15) -0.26314(9)
O25 O 0.63102(11) 0.3713(2) 0.28022(14)
O26 O 0.31962(11) -0.3217(3) -0.06430(16)
O27 O 0.35510(14) -0.3710(2) -0.1383(2)
O28 O 0.20478(8) 0.06423(16) -0.10585(10)
O29 O 0.58339(14) -0.5862(3) 0.09205(19)
O30 O 0.68504(9) 0.1961(2) 0.21178(16)
O31 O 0.16407(11) 0.1681(3) -0.28447(19)
O32 O 0.39961(13) -0.3965(4) 0.0492(2)
O33 O 0.49178(11) -0.5790(3) -0.00300(15)
O34 O 0.44318(15) -0.3465(4) -0.0090(3)
O35 O 0.47345(18) -0.6391(3) 0.0885(3)
O36 O 0.5416(2) -0.5816(7) 0.1864(4)
O37 O 0.51042(16) -0.3742(6) 0.0641(3)
O21? O 0.16759(12) -0.0717(3) -0.3012(3)
O22? O 0.09309(11) -0.0781(4) -0.39571(15)
C129? C 0.12715(12) -0.0787(5) -0.33720(18)
C130? C 0.1290(2) -0.0803(8) -0.2756(3)
H87? H 0.1292 -0.1366 -0.2633
H88? H 0.1031 -0.0524 -0.2866
H89? H 0.1560 -0.0530 -0.2374
O23? O 0.7792(2) -0.0112(4) 0.3042(3)
O24? O 0.75263(13) 0.1068(4) 0.30455(17)
C131? C 0.75938(18) 0.0574(3) 0.2761(3)
C132? C 0.73063(19) 0.1118(5) 0.2032(2)
H90? H 0.7494 0.1551 0.2077
H91? H 0.7044 0.1355 0.1942
H92? H 0.7214 0.0762 0.1656
O38? O 0.50903(14) -0.4095(3) 0.0025(2)
loop_
_geom_bond_atom_site_label_1
_geom_bond_atom_site_label_2
_geom_bond_site_symmetry_1
_geom_bond_site_symmetry_2
Zn1 O1 1_555 1_555
Zn2 O6 1_555 1_555
Zn3 N1 1_555 1_555
Zn4 N4 1_555 1_555
N1 C1 1_555 1_555
N2 C6 1_555 1_555
N3 C11 1_555 1_555
N4 C28 1_555 1_555
N5 C33 1_555 1_555
N6 C38 1_555 1_555
F1 C23 1_555 1_555
F2 C24 1_555 1_555
F3 C25 1_555 1_555
F4 C26 1_555 1_555
F5 C27 1_555 1_555
F6 C50 1_555 1_555
F7 C51 1_555 1_555
F8 C52 1_555 1_555
F9 C53 1_555 1_555
F10 C54 1_555 1_555
C1 H1 1_555 1_555
C2 C1 1_555 1_555
H2 C2 1_555 1_555
C3 C2 1_555 1_555
C4 C3 1_555 1_555
H3 C4 1_555 1_555
C5 N1 1_555 1_555
H4 C5 1_555 1_555
C6 C3 1_555 1_555
C7 C6 1_555 1_555
H5 C7 1_555 1_555
C8 C7 1_555 1_555
C9 C8 1_555 1_555
H6 C9 1_555 1_555
C10 N2 1_555 1_555
C11 H7 1_555 1_555
C12 C11 1_555 1_555
H8 C12 1_555 1_555
C13 C10 1_555 1_555
C14 C13 1_555 1_555
H9 C14 1_555 1_555
C15 N3 1_555 1_555
H10 C15 1_555 1_555
C16 C8 1_555 1_555
C17 C16 1_555 1_555
H11 C17 1_555 1_555
C18 C17 1_555 1_555
H12 C18 1_555 1_555
C19 C18 1_555 1_555
C20 C19 1_555 1_555
H13 C20 1_555 1_555
C21 C16 1_555 1_555
H14 C21 1_555 1_555
C22 C19 1_555 1_555
C23 C22 1_555 1_555
C24 C23 1_555 1_555
C25 C24 1_555 1_555
C26 C25 1_555 1_555
C27 C22 1_555 1_555
C28 H15 1_555 1_555
C29 C28 1_555 1_555
H16 C29 1_555 1_555
C30 C29 1_555 1_555
C31 C30 1_555 1_555
H17 C31 1_555 1_555
C32 N4 1_555 1_555
H18 C32 1_555 1_555
C33 C30 1_555 1_555
C34 C33 1_555 1_555
H19 C34 1_555 1_555
C35 C34 1_555 1_555
C36 C35 1_555 1_555
H20 C36 1_555 1_555
C37 N5 1_555 1_555
C38 H21 1_555 1_555
C39 C38 1_555 1_555
H22 C39 1_555 1_555
C40 C37 1_555 1_555
C41 C40 1_555 1_555
H23 C41 1_555 1_555
C42 N6 1_555 1_555
H24 C42 1_555 1_555
C43 C35 1_555 1_555
C44 C43 1_555 1_555
H25 C44 1_555 1_555
C45 C44 1_555 1_555
H26 C45 1_555 1_555
C46 C45 1_555 1_555
C47 C46 1_555 1_555
H27 C47 1_555 1_555
C48 C43 1_555 1_555
H28 C48 1_555 1_555
C49 C46 1_555 1_555
C50 C49 1_555 1_555
C51 C50 1_555 1_555
C52 C51 1_555 1_555
C53 C52 1_555 1_555
C54 C49 1_555 1_555
O1 C55 1_555 1_555
O2 C55 1_555 1_555
C55 C56 1_555 1_555
C56 H29 1_555 1_555
H30 C56 1_555 1_555
H31 C56 1_555 1_555
O3 Zn1 1_555 1_555
O4 C57 1_555 1_555
C57 O3 1_555 1_555
C58 C57 1_555 1_555
H32 C58 1_555 1_555
H33 C58 1_555 1_555
H34 C58 1_555 1_555
O5 Zn1 1_555 1_555
O6 C59 1_555 1_555
C59 O5 1_555 1_555
C60 C59 1_555 1_555
H35 C60 1_555 1_555
H36 C60 1_555 1_555
H37 C60 1_555 1_555
O7 Zn2 1_555 1_555
O8 Zn2 1_555 1_555
C61 O7 1_555 1_555
C62 C61 1_555 1_555
H38 C62 1_555 1_555
H39 C62 1_555 1_555
H40 C62 1_555 1_555
O9 Zn2 1_555 1_555
O10 Zn3 1_555 1_555
C63 O9 1_555 1_555
C64 C63 1_555 1_555
H41 C64 1_555 1_555
H42 C64 1_555 1_555
H43 C64 1_555 1_555
O11 Zn3 1_555 1_555
O12 Zn4 1_555 1_555
C65 O11 1_555 1_555
C66 C65 1_555 1_555
H44 C66 1_555 1_555
H45 C66 1_555 1_555
H46 C66 1_555 1_555
O13 Zn3 1_555 1_555
O14 Zn4 1_555 1_555
C67 O13 1_555 1_555
C68 C67 1_555 1_555
H47 C68 1_555 1_555
H48 C68 1_555 1_555
H49 C68 1_555 1_555
Zn5 O15 1_555 1_555
O15 C69 1_555 1_555
O16 Zn4 1_555 1_555
C69 O16 1_555 1_555
C70 C69 1_555 1_555
H50 C70 1_555 1_555
H51 C70 1_555 1_555
H52 C70 1_555 1_555
O17 C71 1_555 1_555
O18 Zn5 1_555 1_555
C71 O18 1_555 1_555
C72 C71 1_555 1_555
H53 C72 1_555 1_555
H54 C72 1_555 1_555
H55 C72 1_555 1_555
O19 Zn5 1_555 1_555
O20 C73 1_555 1_555
C73 O19 1_555 1_555
C74 C73 1_555 1_555
H56 C74 1_555 1_555
H57 C74 1_555 1_555
H58 C74 1_555 1_555
N7 C75 1_555 1_555
N8 C80 1_555 1_555
N9 Zn5 1_555 1_555
F11 C97 1_555 1_555
F12 C98 1_555 1_555
F13 C99 1_555 1_555
F14 C100 1_555 1_555
F15 C101 1_555 1_555
C75 H59 1_555 1_555
C76 C75 1_555 1_555
H60 C76 1_555 1_555
C77 C76 1_555 1_555
C78 C77 1_555 1_555
H61 C78 1_555 1_555
C79 N7 1_555 1_555
H62 C79 1_555 1_555
C80 C77 1_555 1_555
C81 C80 1_555 1_555
H63 C81 1_555 1_555
C82 C81 1_555 1_555
C83 C82 1_555 1_555
H64 C83 1_555 1_555
C84 N8 1_555 1_555
C85 N9 1_555 1_555
H65 C85 1_555 1_555
C86 C85 1_555 1_555
H66 C86 1_555 1_555
C87 C84 1_555 1_555
C88 C87 1_555 1_555
H67 C88 1_555 1_555
C89 N9 1_555 1_555
H68 C89 1_555 1_555
C90 C82 1_555 1_555
C91 C90 1_555 1_555
H69 C91 1_555 1_555
C92 C91 1_555 1_555
H70 C92 1_555 1_555
C93 C92 1_555 1_555
C94 C93 1_555 1_555
H71 C94 1_555 1_555
C95 C90 1_555 1_555
H72 C95 1_555 1_555
C96 C93 1_555 1_555
C97 C96 1_555 1_555
C98 C97 1_555 1_555
C99 C98 1_555 1_555
C100 C99 1_555 1_555
C101 C96 1_555 1_555
N10 C102 1_555 1_555
N11 C107 1_555 1_555
N12 Zn2 1_555 1_555
F16 C124 1_555 1_555
F17 C125 1_555 1_555
F18 C126 1_555 1_555
F19 C127 1_555 1_555
F20 C128 1_555 1_555
C102 H73 1_555 1_555
C103 C102 1_555 1_555
H74 C103 1_555 1_555
C104 C103 1_555 1_555
C105 C104 1_555 1_555
H75 C105 1_555 1_555
C106 N10 1_555 1_555
H76 C106 1_555 1_555
C107 C104 1_555 1_555
C108 C107 1_555 1_555
H77 C108 1_555 1_555
C109 C108 1_555 1_555
C110 C109 1_555 1_555
H78 C110 1_555 1_555
C111 N11 1_555 1_555
C112 N12 1_555 1_555
H79 C112 1_555 1_555
C113 C112 1_555 1_555
H80 C113 1_555 1_555
C114 C111 1_555 1_555
C115 C114 1_555 1_555
H81 C115 1_555 1_555
C116 N12 1_555 1_555
H82 C116 1_555 1_555
C117 C109 1_555 1_555
C118 C117 1_555 1_555
H83 C118 1_555 1_555
C119 C118 1_555 1_555
H84 C119 1_555 1_555
C120 C119 1_555 1_555
C121 C120 1_555 1_555
H85 C121 1_555 1_555
C122 C117 1_555 1_555
H86 C122 1_555 1_555
C123 C120 1_555 1_555
C124 C123 1_555 1_555
C125 C124 1_555 1_555
C126 C125 1_555 1_555
C127 C126 1_555 1_555
C128 C123 1_555 1_555
Zn1A N10 1_555 1_555
Zn2A N3 1_555 1_555
Zn3A N6 1_555 1_555
Zn4A N7 1_555 1_555
N3A Zn2 1_555 1_555
N6A Zn3 1_555 1_555
N7A Zn4 1_555 1_555
N10A Zn1 1_555 1_555
Zn3 O8 1_555 1_555
Zn4 O13 1_555 1_555
C4 C5 1_555 1_555
C9 C10 1_555 1_555
C12 C13 1_555 1_555
C14 C15 1_555 1_555
C20 C21 1_555 1_555
C26 C27 1_555 1_555
C31 C32 1_555 1_555
C36 C37 1_555 1_555
C39 C40 1_555 1_555
C41 C42 1_555 1_555
C47 C48 1_555 1_555
C53 C54 1_555 1_555
O8 C61 1_555 1_555
O10 C63 1_555 1_555
O12 C65 1_555 1_555
O14 C67 1_555 1_555
C78 C79 1_555 1_555
C83 C84 1_555 1_555
C86 C87 1_555 1_555
C88 C89 1_555 1_555
C94 C95 1_555 1_555
C100 C101 1_555 1_555
C105 C106 1_555 1_555
C110 C111 1_555 1_555
C113 C114 1_555 1_555
C115 C116 1_555 1_555
C121 C122 1_555 1_555
C127 C128 1_555 1_555

#END
