
#######################################################################
#
#                 Cambridge Crystallographic Data Centre
#                                CCDC 
#
#######################################################################
#
# If this CIF has been generated from an entry in the Cambridge 
# Structural Database, then it will include bibliographic, chemical, 
# crystal, experimental, refinement or atomic coordinate data resulting 
# from the CCDC's data processing and validation procedures.
#
#######################################################################

data_QIJKUP
_symmetry_cell_setting           monoclinic
_symmetry_space_group_name_H-M   'P 2/n'
_symmetry_Int_Tables_number      13
_space_group_name_Hall           '-P 2yac'
loop_
_symmetry_equiv_pos_site_id
_symmetry_equiv_pos_as_xyz
1 x,y,z
2 1/2+x,-y,1/2+z
3 -x,-y,-z
4 1/2-x,y,1/2-z
_cell_length_a                   13.3943(4)
_cell_length_b                   7.58410(10)
_cell_length_c                   14.3076(4)
_cell_angle_alpha                90
_cell_angle_beta                 99.8930(10)
_cell_angle_gamma                90
_cell_volume                     1431.81
loop_
_atom_site_label
_atom_site_type_symbol
_atom_site_fract_x
_atom_site_fract_y
_atom_site_fract_z
As1 As -0.2500 0.28141(3) 0.2500
C5 C -0.16644(13) 0.1341(2) 0.18722(12)
C6 C -0.06244(14) 0.1592(3) 0.19990(14)
H1 H -0.0313 0.2513 0.2396
C7 C -0.00443(15) 0.0475(3) 0.15360(15)
H2 H 0.0669 0.0633 0.1616
C8 C -0.05006(15) -0.0862(3) 0.09605(14)
H3 H -0.0099 -0.1621 0.0648
C9 C -0.15418(15) -0.1103(3) 0.08358(15)
H4 H -0.1851 -0.2026 0.0440
C10 C -0.21300(14) 0.0002(3) 0.12889(15)
H5 H -0.2844 -0.0153 0.1203
C11 C -0.32940(13) 0.4393(2) 0.16380(12)
C12 C -0.32737(13) 0.4338(2) 0.06725(12)
H6 H -0.2930 0.3414 0.0411
C13 C -0.37648(15) 0.5655(2) 0.00934(14)
H7 H -0.3764 0.5629 -0.0570
C14 C -0.42567(15) 0.7009(2) 0.04818(15)
H8 H -0.4583 0.7913 0.0083
C15 C -0.42769(15) 0.7055(2) 0.14488(16)
H9 H -0.4620 0.7983 0.1708
C16 C -0.37957(14) 0.5745(3) 0.20347(14)
H10 H -0.3806 0.5764 0.2697
C5C C -0.33356(13) 0.1341(2) 0.31278(12)
C11C C -0.17060(13) 0.4393(2) 0.33620(12)
C6C C -0.43756(14) 0.1592(3) 0.30010(14)
C10C C -0.28700(14) 0.0002(3) 0.37111(15)
C12C C -0.17263(13) 0.4338(2) 0.43275(12)
C16C C -0.12043(14) 0.5745(3) 0.29653(14)
H1C H -0.4687 0.2513 0.2604
C7C C -0.49557(15) 0.0475(3) 0.34640(15)
C9C C -0.34582(15) -0.1103(3) 0.41642(15)
H5C H -0.2156 -0.0153 0.3797
H6C H -0.2070 0.3414 0.4589
C13C C -0.12352(15) 0.5655(2) 0.49066(14)
C15C C -0.07231(15) 0.7055(2) 0.35512(16)
H10C H -0.1194 0.5764 0.2303
H2C H -0.5669 0.0633 0.3384
C8C C -0.44994(15) -0.0862(3) 0.40395(14)
H4C H -0.3149 -0.2026 0.4560
H7C H -0.1236 0.5629 0.5570
C14C C -0.07433(15) 0.7009(2) 0.45182(15)
H9C H -0.0380 0.7983 0.3292
H3C H -0.4901 -0.1621 0.4352
H8C H -0.0417 0.7913 0.4917
Mn1 Mn 0.2500 0.45405(4) 0.2500
N1 N 0.31722(14) 0.23765(19) 0.17666(12)
N2 N 0.35102(15) -0.04744(18) 0.10687(12)
N3 N 0.31850(13) 0.6652(2) 0.17589(12)
N4 N 0.11719(14) 0.4584(2) 0.12961(13)
N5 N -0.0603(2) 0.4628(5) 0.0424(2)
C1 C 0.33067(13) 0.0999(2) 0.14661(12)
C2 C 0.33142(14) 0.8038(2) 0.14682(12)
C3 C 0.0332(3) 0.4616(4) 0.0864(2)
C4 C 0.0889(3) 0.4959(5) 0.0469(3)
N1C N 0.18278(14) 0.23765(19) 0.32334(12)
N3C N 0.18150(13) 0.6652(2) 0.32411(12)
N4C N 0.38281(14) 0.4584(2) 0.37039(13)
C2_2 C 0.33142(14) -0.1962(2) 0.14682(12)
C4B C -0.0889(3) 0.5041(5) -0.0469(3)
N2_2 N 0.35102(15) 0.95256(18) 0.10687(12)
N5B N 0.0603(2) 0.5372(5) -0.0424(2)
C1C C 0.16933(13) 0.0999(2) 0.35339(12)
C2C C 0.16858(14) 0.8038(2) 0.35318(12)
C3C C 0.4668(3) 0.4616(4) 0.4136(2)
C4C C 0.4111(3) 0.4959(5) 0.4531(3)
N3_2 N 0.31850(13) -0.3348(2) 0.17589(12)
N4B N -0.11719(14) 0.5416(2) -0.12961(13)
C3B C -0.0332(3) 0.5384(4) -0.0864(2)
C1_2 C 0.33067(13) 1.0999(2) 0.14661(12)
N2C N 0.14898(15) -0.04744(18) 0.39313(12)
N2C_2 N 0.14898(15) 0.95256(18) 0.39313(12)
N5C N 0.5603(2) 0.4628(5) 0.4576(2)
N5A N 0.4397(2) 0.5372(5) 0.5424(2)
Mn1_2 Mn 0.2500 -0.54595(4) 0.2500
Mn1A Mn -0.2500 0.54595(4) -0.2500
N1_2 N 0.31722(14) 1.23765(19) 0.17666(12)
C2C_2 C 0.16858(14) -0.1962(2) 0.35318(12)
C1C_2 C 0.16933(13) 1.0999(2) 0.35339(12)
C4A C 0.5889(3) 0.5041(5) 0.5469(3)
C3A C 0.5332(3) 0.5384(4) 0.5864(2)
Mn1_3 Mn 0.2500 1.45405(4) 0.2500
N3C_2 N 0.18150(13) -0.3348(2) 0.32411(12)
N1C_2 N 0.18278(14) 1.23765(19) 0.32334(12)
N4A N 0.61719(14) 0.5416(2) 0.62961(13)
Mn1A_2 Mn 0.7500 0.54595(4) 0.7500
loop_
_geom_bond_atom_site_label_1
_geom_bond_atom_site_label_2
_geom_bond_site_symmetry_1
_geom_bond_site_symmetry_2
Mn1 N1 1_555 1_555
As1 C5 1_555 1_555
N1 C1 1_555 1_555
N2 C1 1_555 1_555
N3 Mn1 1_555 1_555
N4 Mn1 1_555 1_555
N5 C3 1_555 1_555
C2 N3 1_555 1_555
C3 N4 1_555 1_555
C4 N4 1_555 1_555
C5 C6 1_555 1_555
C6 H1 1_555 1_555
C7 C6 1_555 1_555
H2 C7 1_555 1_555
C8 C7 1_555 1_555
H3 C8 1_555 1_555
C9 C8 1_555 1_555
H4 C9 1_555 1_555
C10 C5 1_555 1_555
H5 C10 1_555 1_555
C11 As1 1_555 1_555
C12 C11 1_555 1_555
H6 C12 1_555 1_555
C13 C12 1_555 1_555
H7 C13 1_555 1_555
C14 C13 1_555 1_555
H8 C14 1_555 1_555
C15 C14 1_555 1_555
H9 C15 1_555 1_555
C16 C11 1_555 1_555
H10 C16 1_555 1_555
N1C Mn1 1_555 1_555
N3C Mn1 1_555 1_555
N4C Mn1 1_555 1_555
C5C As1 1_555 1_555
C11C As1 1_555 1_555
C2_2 N2 1_555 1_555
C4B N5 1_555 1_555
N2_2 C2 1_555 1_555
N5B C4 1_555 1_555
C1C N1C 1_555 1_555
C2C N3C 1_555 1_555
C3C N4C 1_555 1_555
C4C N4C 1_555 1_555
C6C C5C 1_555 1_555
C10C C5C 1_555 1_555
C12C C11C 1_555 1_555
C16C C11C 1_555 1_555
N3_2 C2_2 1_555 1_555
N4B C4B 1_555 1_555
C3B C4B 1_555 1_555
C1_2 N2_2 1_555 1_555
N2C C1C 1_555 1_555
N2C_2 C2C 1_555 1_555
N5C C3C 1_555 1_555
N5A C4C 1_555 1_555
H1C C6C 1_555 1_555
C7C C6C 1_555 1_555
C9C C10C 1_555 1_555
H5C C10C 1_555 1_555
H6C C12C 1_555 1_555
C13C C12C 1_555 1_555
C15C C16C 1_555 1_555
H10C C16C 1_555 1_555
Mn1_2 N3_2 1_555 1_555
Mn1A N4B 1_555 1_555
N1_2 C1_2 1_555 1_555
C2C_2 N2C 1_555 1_555
C1C_2 N2C_2 1_555 1_555
C4A N5C 1_555 1_555
C3A N5A 1_555 1_555
H2C C7C 1_555 1_555
C8C C7C 1_555 1_555
H4C C9C 1_555 1_555
H7C C13C 1_555 1_555
C14C C13C 1_555 1_555
H9C C15C 1_555 1_555
Mn1_3 N1_2 1_555 1_555
N3C_2 Mn1_2 1_555 1_555
N1C_2 C1C_2 1_555 1_555
N4A C4A 1_555 1_555
H3C C8C 1_555 1_555
H8C C14C 1_555 1_555
Mn1A_2 N4A 1_555 1_555
C3 C4 1_555 1_555
C9 C10 1_555 1_555
C15 C16 1_555 1_555
N5B C3B 1_555 1_555
C3C C4C 1_555 1_555
N4B C3B 1_555 1_555
C9C C8C 1_555 1_555
C15C C14C 1_555 1_555
C2C_2 N3C_2 1_555 1_555
C4A C3A 1_555 1_555
C3A N4A 1_555 1_555
Mn1_3 N1C_2 1_555 1_555

#END
