
#######################################################################
#
#                 Cambridge Crystallographic Data Centre
#                                CCDC 
#
#######################################################################
#
# If this CIF has been generated from an entry in the Cambridge 
# Structural Database, then it will include bibliographic, chemical, 
# crystal, experimental, refinement or atomic coordinate data resulting 
# from the CCDC's data processing and validation procedures.
#
#######################################################################

data_QIJKIF
_symmetry_cell_setting           monoclinic
_symmetry_space_group_name_H-M   'P 21/n'
_symmetry_Int_Tables_number      14
_space_group_name_Hall           '-P 2yn'
loop_
_symmetry_equiv_pos_site_id
_symmetry_equiv_pos_as_xyz
1 x,y,z
2 1/2-x,1/2+y,1/2-z
3 -x,-y,-z
4 1/2+x,1/2-y,1/2+z
_cell_length_a                   13.2988(12)
_cell_length_b                   11.2133(10)
_cell_length_c                   15.1344(14)
_cell_angle_alpha                90
_cell_angle_beta                 98.3580(10)
_cell_angle_gamma                90
_cell_volume                     2232.92
loop_
_atom_site_label
_atom_site_type_symbol
_atom_site_fract_x
_atom_site_fract_y
_atom_site_fract_z
Cu1 Cu 0.5000 0.0000 0.0000
Cu2 Cu 0.0000 -0.5000 0.0000
V1 V 0.61456(4) -0.32559(5) 0.03947(4)
V2 V 0.43610(4) -0.47274(5) 0.11422(4)
O1 O 0.4048(2) -0.4583(3) 0.21451(18)
O2 O 0.36358(19) -0.3853(2) 0.04553(19)
O3 O 0.5820(2) -0.3755(2) -0.07548(16)
O4 O 0.7378(2) -0.3148(3) 0.0667(2)
O5 O 0.56447(19) -0.1928(2) 0.04645(16)
O6 O 0.56693(18) -0.4282(2) 0.11597(16)
N1 N 0.6056(2) 0.0778(3) 0.08887(19)
N2 N 0.6955(2) 0.2120(3) 0.1704(2)
N3 N 0.8183(2) 0.3698(3) 0.1842(2)
N4 N 0.9253(2) 0.4399(3) 0.09936(18)
N5 N 0.0545(2) -0.3651(3) 0.08258(19)
N6 N 0.1582(2) -0.2478(3) 0.16816(18)
N7 N 0.2974(2) -0.1051(2) 0.16888(18)
N8 N 0.3994(2) -0.0153(2) 0.08863(19)
C1 C 0.7011(3) 0.0306(4) 0.1176(3)
H1 H 0.7238 -0.0441 0.1026
C2 C 0.7559(4) 0.1115(4) 0.1712(4)
H2 H 0.8210 0.1014 0.2022
C3 C 0.6079(3) 0.1873(3) 0.1189(2)
H3 H 0.5549 0.2414 0.1059
C4 C 0.7248(3) 0.3274(4) 0.2116(3)
H4 H 0.6711 0.3850 0.1944
H5 H 0.7338 0.3194 0.2761
C5 C 0.9108(3) 0.3741(4) 0.2364(3)
H6 H 0.9261 0.3520 0.2961
C6 C 0.9754(3) 0.4173(5) 0.1833(3)
H7 H 1.0444 0.4300 0.2012
C7 C 0.8306(3) 0.4124(3) 0.1034(2)
H8 H 0.7781 0.4212 0.0561
C8 C -0.0018(3) -0.2867(4) 0.1248(3)
H9 H -0.0724 -0.2835 0.1174
C9 C 0.0616(3) -0.2146(4) 0.1790(3)
H10 H 0.0432 -0.1547 0.2160
C10 C 0.1498(3) -0.3392(3) 0.1107(2)
H11 H 0.2048 -0.3793 0.0929
C11 C 0.2529(3) -0.2013(3) 0.2162(2)
H12 H 0.3017 -0.2659 0.2267
H13 H 0.2405 -0.1718 0.2739
C12 C 0.3677(2) -0.1186(3) 0.1142(2)
H14 H 0.3910 -0.1919 0.0968
C13 C 0.3468(3) 0.0697(3) 0.1298(3)
H15 H 0.3539 0.1518 0.1244
C14 C 0.2836(3) 0.0147(3) 0.1789(3)
H16 H 0.2393 0.0511 0.2129
O7 O -0.1449(3) -0.3711(3) -0.0671(2)
H17 H -0.190(3) -0.367(5) -0.033(3)
H18 H -0.134(5) -0.301(3) -0.081(4)
N5B N -0.0545(2) -0.6349(3) -0.08258(19)
N6B N -0.1582(2) -0.7522(3) -0.16816(18)
N7B N -0.2974(2) -0.8949(2) -0.16888(18)
N8B N -0.3994(2) -0.9847(2) -0.08863(19)
C8B C 0.0018(3) -0.7133(4) -0.1248(3)
H9B H 0.0724 -0.7165 -0.1174
C9B C -0.0616(3) -0.7854(4) -0.1790(3)
H10B H -0.0432 -0.8453 -0.2160
C10B C -0.1498(3) -0.6608(3) -0.1107(2)
H11B H -0.2048 -0.6207 -0.0929
C11B C -0.2529(3) -0.7987(3) -0.2162(2)
H12B H -0.3017 -0.7341 -0.2267
H13B H -0.2405 -0.8282 -0.2739
C12B C -0.3677(2) -0.8814(3) -0.1142(2)
H14B H -0.3910 -0.8081 -0.0968
C13B C -0.3468(3) -1.0697(3) -0.1298(3)
H15B H -0.3539 -1.1518 -0.1244
C14B C -0.2836(3) -1.0147(3) -0.1789(3)
H16B H -0.2393 -1.0511 -0.2129
O7B O 0.1449(3) -0.6289(3) 0.0671(2)
H17B H 0.190(3) -0.633(5) 0.033(3)
H18B H 0.134(5) -0.699(3) 0.081(4)
N1B N 0.3944(2) -0.0778(3) -0.08887(19)
N2B N 0.3045(2) -0.2120(3) -0.1704(2)
N3B N 0.1817(2) -0.3698(3) -0.1842(2)
N4B N 0.0747(2) -0.4399(3) -0.09936(18)
C1B C 0.2989(3) -0.0306(4) -0.1176(3)
H1B H 0.2762 0.0441 -0.1026
C2B C 0.2441(4) -0.1115(4) -0.1712(4)
H2B H 0.1790 -0.1014 -0.2022
C3B C 0.3921(3) -0.1873(3) -0.1189(2)
H3B H 0.4451 -0.2414 -0.1059
C4B C 0.2752(3) -0.3274(4) -0.2116(3)
H4B H 0.3289 -0.3850 -0.1944
H5B H 0.2662 -0.3194 -0.2761
C5B C 0.0892(3) -0.3741(4) -0.2364(3)
H6B H 0.0739 -0.3520 -0.2961
C6B C 0.0246(3) -0.4173(5) -0.1833(3)
H7B H -0.0444 -0.4300 -0.2012
C7B C 0.1694(3) -0.4124(3) -0.1034(2)
H8B H 0.2219 -0.4212 -0.0561
V1B V 0.38544(4) 0.32559(5) -0.03947(4)
V2B V 0.56390(4) 0.47274(5) -0.11422(4)
O1B O 0.5952(2) 0.4583(3) -0.21451(18)
O2B O 0.63642(19) 0.3853(2) -0.04553(19)
O3B O 0.4180(2) 0.3755(2) 0.07548(16)
O4B O 0.2622(2) 0.3148(3) -0.0667(2)
O5B O 0.43553(19) 0.1928(2) -0.04645(16)
O6B O 0.43307(18) 0.4282(2) -0.11597(16)
Cu1_2 Cu -0.5000 -1.0000 0.0000
Cu2_2 Cu 1.0000 0.5000 0.0000
V2_2 V 0.43610(4) 0.52726(5) 0.11422(4)
V2B_2 V 0.56390(4) -0.52726(5) -0.11422(4)
O3_2 O 0.5820(2) 0.6245(2) -0.07548(16)
O3B_2 O 0.4180(2) -0.6245(2) 0.07548(16)
N4_2 N -0.0747(2) -0.5601(3) 0.09936(18)
N8B_2 N 0.6006(2) 0.0153(2) -0.08863(19)
O8 O 0.9504(6) -0.1557(7) -0.1185(5)
C15 C 1.0759(11) -0.0288(13) -0.0253(9)
C16 C 0.9720(11) -0.0702(11) -0.0496(8)
O8B O 1.0496(6) 0.1557(7) 0.1185(5)
C15B C 0.9241(11) 0.0288(13) 0.0253(9)
C16B C 1.0280(11) 0.0702(11) 0.0496(8)
loop_
_geom_bond_atom_site_label_1
_geom_bond_atom_site_label_2
_geom_bond_site_symmetry_1
_geom_bond_site_symmetry_2
Cu1 O5 1_555 1_555
Cu2 N5 1_555 1_555
V1 O3 1_555 1_555
V2 O1 1_555 1_555
O2 V2 1_555 1_555
O3 V2B_2 1_555 1_555
O4 V1 1_555 1_555
O5 V1 1_555 1_555
O6 V1 1_555 1_555
N1 Cu1 1_555 1_555
N2 C2 1_555 1_555
N3 C4 1_555 1_555
N4 C6 1_555 1_555
N5 C8 1_555 1_555
N6 C9 1_555 1_555
N7 C11 1_555 1_555
N8 Cu1 1_555 1_555
C1 N1 1_555 1_555
H1 C1 1_555 1_555
C2 C1 1_555 1_555
H2 C2 1_555 1_555
C3 N1 1_555 1_555
H3 C3 1_555 1_555
C4 N2 1_555 1_555
H4 C4 1_555 1_555
H5 C4 1_555 1_555
C5 N3 1_555 1_555
H6 C5 1_555 1_555
C6 C5 1_555 1_555
H7 C6 1_555 1_555
C7 N3 1_555 1_555
H8 C7 1_555 1_555
C8 H9 1_555 1_555
C9 C8 1_555 1_555
H10 C9 1_555 1_555
C10 N5 1_555 1_555
H11 C10 1_555 1_555
C11 N6 1_555 1_555
H12 C11 1_555 1_555
H13 C11 1_555 1_555
C12 N7 1_555 1_555
H14 C12 1_555 1_555
C13 N8 1_555 1_555
H15 C13 1_555 1_555
C14 N7 1_555 1_555
H16 C14 1_555 1_555
O7 Cu2 1_555 1_555
H17 O7 1_555 1_555
H18 O7 1_555 1_555
O8 C16 1_555 1_555
C15 C16 1_555 1_555
N5B Cu2 1_555 1_555
N6B C9B 1_555 1_555
N7B C11B 1_555 1_555
N8B C12B 1_555 1_555
C8B N5B 1_555 1_555
H9B C8B 1_555 1_555
C9B C8B 1_555 1_555
H10B C9B 1_555 1_555
C10B N5B 1_555 1_555
H11B C10B 1_555 1_555
C11B N6B 1_555 1_555
H12B C11B 1_555 1_555
H13B C11B 1_555 1_555
C12B N7B 1_555 1_555
H14B C12B 1_555 1_555
C13B N8B 1_555 1_555
H15B C13B 1_555 1_555
C14B N7B 1_555 1_555
H16B C14B 1_555 1_555
O7B Cu2 1_555 1_555
H17B O7B 1_555 1_555
H18B O7B 1_555 1_555
N1B Cu1 1_555 1_555
N2B C2B 1_555 1_555
N3B C4B 1_555 1_555
N4B Cu2 1_555 1_555
C1B N1B 1_555 1_555
H1B C1B 1_555 1_555
C2B C1B 1_555 1_555
H2B C2B 1_555 1_555
C3B N1B 1_555 1_555
H3B C3B 1_555 1_555
C4B N2B 1_555 1_555
H4B C4B 1_555 1_555
H5B C4B 1_555 1_555
C5B N3B 1_555 1_555
H6B C5B 1_555 1_555
C6B N4B 1_555 1_555
H7B C6B 1_555 1_555
C7B N3B 1_555 1_555
H8B C7B 1_555 1_555
V1B O3B 1_555 1_555
V2B O1B 1_555 1_555
O2B V2B 1_555 1_555
O3B V2_2 1_555 1_555
O4B V1B 1_555 1_555
O5B Cu1 1_555 1_555
O6B V1B 1_555 1_555
Cu1_2 N8B 1_555 1_555
Cu2_2 N4 1_555 1_555
O3_2 V2B 1_555 1_555
O3B_2 V2 1_555 1_555
N4_2 Cu2 1_555 1_555
N8B_2 Cu1 1_555 1_555
O8B C16B 1_555 1_555
C15B C16B 1_555 1_555
V2 O6 1_555 1_555
N2 C3 1_555 1_555
N4 C7 1_555 1_555
N6 C10 1_555 1_555
N8 C12 1_555 1_555
C13 C14 1_555 1_555
N6B C10B 1_555 1_555
C13B C14B 1_555 1_555
N2B C3B 1_555 1_555
N4B C7B 1_555 1_555
C5B C6B 1_555 1_555
V1B O5B 1_555 1_555
V2B O6B 1_555 1_555

#END
