
#######################################################################
#
#                 Cambridge Crystallographic Data Centre
#                                CCDC 
#
#######################################################################
#
# If this CIF has been generated from an entry in the Cambridge 
# Structural Database, then it will include bibliographic, chemical, 
# crystal, experimental, refinement or atomic coordinate data resulting 
# from the CCDC's data processing and validation procedures.
#
#######################################################################

data_QIJKEB
_symmetry_cell_setting           triclinic
_symmetry_space_group_name_H-M   'P -1'
_symmetry_Int_Tables_number      2
_space_group_name_Hall           '-P 1'
loop_
_symmetry_equiv_pos_site_id
_symmetry_equiv_pos_as_xyz
1 x,y,z
2 -x,-y,-z
_cell_length_a                   8.466(5)
_cell_length_b                   10.357(6)
_cell_length_c                   15.391(8)
_cell_angle_alpha                92.394(7)
_cell_angle_beta                 105.807(7)
_cell_angle_gamma                112.067(7)
_cell_volume                     1187.55
loop_
_atom_site_label
_atom_site_type_symbol
_atom_site_fract_x
_atom_site_fract_y
_atom_site_fract_z
Zn1 Zn 0.74838(5) 0.26632(4) 0.20214(3)
Zn2 Zn 1.25133(6) 0.73344(4) 0.29811(3)
V1 V 0.91681(7) 0.55001(6) 0.39351(4)
V2 V 1.08443(8) 0.45081(6) 0.10671(5)
V3 V 0.51822(7) 0.54644(6) 0.39356(4)
V4 V 1.48091(9) 0.45261(7) 0.10683(5)
N1 N 0.8848(3) 0.1553(3) 0.2917(2)
N2 N 0.5781(3) 0.0583(3) 0.15416(19)
N3 N 0.5225(4) -0.1671(3) 0.1513(2)
H1 H 0.5298 -0.2452 0.1638
N4 N 1.1172(4) 0.8470(3) 0.2065(2)
N5 N 1.4211(4) 0.9403(3) 0.3465(2)
N6 N 1.4727(4) 1.1647(3) 0.3471(2)
H2 H 1.4560 1.2377 0.3296
C1 C 1.0318(5) 0.2086(4) 0.3624(3)
H3 H 1.0927 0.3061 0.3784
C2 C 1.0977(5) 0.1221(4) 0.4134(3)
H4 H 1.1995 0.1640 0.4642
C3 C 1.0245(5) -0.0133(4) 0.3937(3)
H5 H 1.0771 -0.0681 0.4263
C4 C 0.8584(4) -0.0780(4) 0.3195(2)
H6 H 0.7945 -0.1754 0.3046
C5 C 0.8018(4) 0.0138(3) 0.2727(2)
C6 C 0.6380(4) -0.0355(3) 0.1951(3)
C7 C 0.4249(5) -0.0131(4) 0.0845(3)
H7 H 0.3583 0.0281 0.0463
C8 C 0.3843(5) -0.1500(4) 0.0792(3)
H8 H 0.2858 -0.2217 0.0372
C9 C 0.9671(5) 0.7950(4) 0.1351(3)
H9 H 0.9081 0.6973 0.1200
C10 C 0.8941(5) 0.8728(4) 0.0832(3)
H10 H 0.7882 0.8326 0.0346
C11 C 0.9946(5) 1.0235(4) 0.1095(3)
H11 H 0.9548 1.0843 0.0762
C12 C 1.1412(5) 1.0756(4) 0.1798(3)
H12 H 1.2024 1.1731 0.1958
C13 C 1.2080(5) 0.9893(4) 0.2311(3)
C14 C 1.3677(5) 1.0309(4) 0.3083(3)
C15 C 1.5787(5) 1.0236(4) 0.4166(3)
H13 H 1.6533 0.9904 0.4567
C16 C 1.6051(5) 1.1669(4) 0.4162(3)
H14 H 1.6966 1.2454 0.4562
O1 O 0.5000 0.5000 0.5000
O2 O 1.5000 0.5000 0.0000
O3 O 1.5938(3) 0.5932(2) 0.1808(2)
O4 O 0.4056(4) 0.4074(3) 0.3152(2)
O5 O 1.4440(3) 0.6688(2) 0.36600(19)
O6 O 0.5600(3) 0.3302(3) 0.1293(2)
O7 O 1.0000 0.5000 0.5000
O8 O 1.0000 0.5000 0.0000
O9 O 0.9196(3) 0.3251(2) 0.12880(17)
O10 O 1.0841(3) 0.6760(3) 0.37085(19)
O11 O 1.1756(3) 0.5886(2) 0.18666(17)
O12 O 0.8271(3) 0.4114(3) 0.31311(19)
O13 O 0.7524(3) 0.6133(2) 0.40237(17)
O14 O 1.2424(3) 0.3864(3) 0.09589(19)
Zn1A Zn 0.25162(5) 0.73368(4) 0.79786(3)
Zn2A Zn -0.25133(6) 0.26656(4) 0.70189(3)
V1A V 0.08319(7) 0.44999(6) 0.60649(4)
V2A V -0.08443(8) 0.54919(6) 0.89329(5)
V3A V 0.48178(7) 0.45356(6) 0.60644(4)
V4A V -0.48091(9) 0.54739(7) 0.89317(5)
N1A N 0.1152(3) 0.8447(3) 0.7083(2)
N2A N 0.4219(3) 0.9417(3) 0.84584(19)
N3A N 0.4775(4) 1.1671(3) 0.8487(2)
H1A H 0.4702 1.2452 0.8362
N4A N -0.1172(4) 0.1530(3) 0.7935(2)
N5A N -0.4211(4) 0.0597(3) 0.6535(2)
N6A N -0.4727(4) -0.1647(3) 0.6529(2)
H2A H -0.4560 -0.2377 0.6704
C1A C -0.0318(5) 0.7914(4) 0.6376(3)
H3A H -0.0927 0.6939 0.6216
C2A C -0.0977(5) 0.8779(4) 0.5866(3)
H4A H -0.1995 0.8360 0.5358
C3A C -0.0245(5) 1.0133(4) 0.6063(3)
H5A H -0.0771 1.0681 0.5737
C4A C 0.1416(4) 1.0780(4) 0.6805(2)
H6A H 0.2055 1.1754 0.6954
C5A C 0.1982(4) 0.9862(3) 0.7273(2)
C6A C 0.3620(4) 1.0355(3) 0.8049(3)
C7A C 0.5751(5) 1.0131(4) 0.9155(3)
H7A H 0.6417 0.9719 0.9537
C8A C 0.6157(5) 1.1500(4) 0.9208(3)
H8A H 0.7142 1.2217 0.9628
C9A C 0.0329(5) 0.2050(4) 0.8649(3)
H9A H 0.0919 0.3027 0.8800
C10A C 0.1059(5) 0.1272(4) 0.9168(3)
H10A H 0.2118 0.1674 0.9654
C11A C 0.0054(5) -0.0235(4) 0.8905(3)
H11A H 0.0452 -0.0843 0.9238
C12A C -0.1412(5) -0.0756(4) 0.8202(3)
H12A H -0.2024 -0.1731 0.8042
C13A C -0.2080(5) 0.0107(4) 0.7689(3)
C14A C -0.3677(5) -0.0309(4) 0.6917(3)
C15A C -0.5787(5) -0.0236(4) 0.5834(3)
H13A H -0.6533 0.0096 0.5433
C16A C -0.6051(5) -0.1669(4) 0.5838(3)
H14A H -0.6966 -0.2454 0.5438
O3A O -0.5938(3) 0.4068(2) 0.8192(2)
O4A O 0.5944(4) 0.5926(3) 0.6848(2)
O5A O -0.4440(3) 0.3312(2) 0.63400(19)
O6A O 0.4400(3) 0.6698(3) 0.8707(2)
O9A O 0.0804(3) 0.6749(2) 0.87120(17)
O10A O -0.0841(3) 0.3240(3) 0.62915(19)
O11A O -0.1756(3) 0.4114(2) 0.81334(17)
O12A O 0.1729(3) 0.5886(3) 0.68689(19)
O13A O 0.2476(3) 0.3867(2) 0.59763(17)
O14A O -0.2424(3) 0.6136(3) 0.90411(19)
V1A_2 V 1.08319(7) 0.44999(6) 0.60649(4)
V2A_2 V 0.91557(8) 0.54919(6) -0.10671(5)
V3_2 V 1.51822(7) 0.54644(6) 0.39356(4)
V3A_2 V -0.51822(7) 0.45356(6) 0.60644(4)
V4_2 V 0.48091(9) 0.45261(7) 0.10683(5)
V4A_2 V 0.51909(9) 0.54739(7) 0.89317(5)
V4A_3 V 1.51909(9) 0.54739(7) -0.10683(5)
O2_2 O -0.5000 0.5000 1.0000
O5_2 O 0.4440(3) 0.6688(2) 0.36600(19)
O5A_2 O 0.5560(3) 0.3312(2) 0.63400(19)
O6_2 O 1.5600(3) 0.3302(3) 0.1293(2)
O6A_2 O -0.5600(3) 0.6698(3) 0.8707(2)
O7_2 O 0.0000 0.5000 0.5000
O8_2 O 0.0000 0.5000 1.0000
loop_
_geom_bond_atom_site_label_1
_geom_bond_atom_site_label_2
_geom_bond_site_symmetry_1
_geom_bond_site_symmetry_2
Zn1 N1 1_555 1_555
Zn2 N4 1_555 1_555
V1 O7 1_555 1_555
V2 O8 1_555 1_555
V3 O1 1_555 1_555
V4 O2 1_555 1_555
N1 C1 1_555 1_555
N2 Zn1 1_555 1_555
N3 H1 1_555 1_555
N4 C9 1_555 1_555
N5 Zn2 1_555 1_555
N6 H2 1_555 1_555
C1 H3 1_555 1_555
C2 C1 1_555 1_555
H4 C2 1_555 1_555
C3 C2 1_555 1_555
H5 C3 1_555 1_555
C4 C3 1_555 1_555
H6 C4 1_555 1_555
C5 N1 1_555 1_555
C6 N2 1_555 1_555
C7 N2 1_555 1_555
H7 C7 1_555 1_555
C8 N3 1_555 1_555
H8 C8 1_555 1_555
C9 H9 1_555 1_555
C10 C9 1_555 1_555
H10 C10 1_555 1_555
C11 C10 1_555 1_555
H11 C11 1_555 1_555
C12 C11 1_555 1_555
H12 C12 1_555 1_555
C13 N4 1_555 1_555
C14 N5 1_555 1_555
C15 N5 1_555 1_555
H13 C15 1_555 1_555
C16 N6 1_555 1_555
H14 C16 1_555 1_555
O1 V3A 1_555 1_555
O2 V4A_3 1_555 1_555
O3 V4 1_555 1_555
O4 V3 1_555 1_555
O5 Zn2 1_555 1_555
O6 Zn1 1_555 1_555
O7 V1A_2 1_555 1_555
O8 V2A_2 1_555 1_555
O9 Zn1 1_555 1_555
O10 Zn2 1_555 1_555
O11 Zn2 1_555 1_555
O12 Zn1 1_555 1_555
O13 V1 1_555 1_555
O14 V2 1_555 1_555
Zn1A N1A 1_555 1_555
Zn2A N4A 1_555 1_555
V1A O10A 1_555 1_555
V2A O9A 1_555 1_555
V3A O4A 1_555 1_555
V4A O3A 1_555 1_555
N1A C1A 1_555 1_555
N2A Zn1A 1_555 1_555
N3A H1A 1_555 1_555
N4A C9A 1_555 1_555
N5A Zn2A 1_555 1_555
N6A H2A 1_555 1_555
C1A H3A 1_555 1_555
C2A C1A 1_555 1_555
H4A C2A 1_555 1_555
C3A C2A 1_555 1_555
H5A C3A 1_555 1_555
C4A C3A 1_555 1_555
H6A C4A 1_555 1_555
C5A N1A 1_555 1_555
C6A N2A 1_555 1_555
C7A N2A 1_555 1_555
H7A C7A 1_555 1_555
C8A N3A 1_555 1_555
H8A C8A 1_555 1_555
C9A H9A 1_555 1_555
C10A C9A 1_555 1_555
H10A C10A 1_555 1_555
C11A C10A 1_555 1_555
H11A C11A 1_555 1_555
C12A C11A 1_555 1_555
H12A C12A 1_555 1_555
C13A N4A 1_555 1_555
C14A N5A 1_555 1_555
C15A N5A 1_555 1_555
H13A C15A 1_555 1_555
C16A N6A 1_555 1_555
H14A C16A 1_555 1_555
O5A Zn2A 1_555 1_555
O6A Zn1A 1_555 1_555
O9A Zn1A 1_555 1_555
O10A Zn2A 1_555 1_555
O11A Zn2A 1_555 1_555
O12A Zn1A 1_555 1_555
O13A V1A 1_555 1_555
O14A V2A 1_555 1_555
V3_2 O5 1_555 1_555
V3A_2 O5A 1_555 1_555
V4_2 O6 1_555 1_555
V4A_2 O6A 1_555 1_555
O2_2 V4A 1_555 1_555
O5_2 V3 1_555 1_555
O5A_2 V3A 1_555 1_555
O6_2 V4 1_555 1_555
O6A_2 V4A 1_555 1_555
O7_2 V1A 1_555 1_555
O8_2 V2A 1_555 1_555
V1 O10 1_555 1_555
V1 O12 1_555 1_555
V2 O9 1_555 1_555
V2 O11 1_555 1_555
V3 O13 1_555 1_555
V4 O14 1_555 1_555
N3 C6 1_555 1_555
N6 C14 1_555 1_555
C4 C5 1_555 1_555
C5 C6 1_555 1_555
C7 C8 1_555 1_555
C12 C13 1_555 1_555
C13 C14 1_555 1_555
C15 C16 1_555 1_555
V1A O12A 1_555 1_555
V2A O11A 1_555 1_555
V3A O13A 1_555 1_555
V4A O14A 1_555 1_555
N3A C6A 1_555 1_555
N6A C14A 1_555 1_555
C4A C5A 1_555 1_555
C5A C6A 1_555 1_555
C7A C8A 1_555 1_555
C12A C13A 1_555 1_555
C13A C14A 1_555 1_555
C15A C16A 1_555 1_555

#END
