
#######################################################################
#
#                 Cambridge Crystallographic Data Centre
#                                CCDC 
#
#######################################################################
#
# If this CIF has been generated from an entry in the Cambridge 
# Structural Database, then it will include bibliographic, chemical, 
# crystal, experimental, refinement or atomic coordinate data resulting 
# from the CCDC's data processing and validation procedures.
#
#######################################################################

data_QIJKUR
_symmetry_cell_setting           orthorhombic
_symmetry_space_group_name_H-M   'P b c a'
_symmetry_Int_Tables_number      61
_space_group_name_Hall           '-P 2ac 2ab'
loop_
_symmetry_equiv_pos_site_id
_symmetry_equiv_pos_as_xyz
1 x,y,z
2 1/2-x,-y,1/2+z
3 -x,1/2+y,1/2-z
4 1/2+x,1/2-y,-z
5 -x,-y,-z
6 1/2+x,y,1/2-z
7 x,1/2-y,1/2+z
8 1/2-x,1/2+y,z
_cell_length_a                   19.765(2)
_cell_length_b                   20.851(2)
_cell_length_c                   28.856(3)
_cell_angle_alpha                90
_cell_angle_beta                 90
_cell_angle_gamma                90
_cell_volume                     11892.1
loop_
_atom_site_label
_atom_site_type_symbol
_atom_site_fract_x
_atom_site_fract_y
_atom_site_fract_z
Cu1 Cu 0.09926(2) 0.40679(2) 1.008538(16)
Cu2 Cu 0.05346(2) 0.47639(2) 0.923625(16)
Si1 Si 0.19374(5) 0.49813(5) 1.07333(4)
Si2 Si 0.19003(5) 0.52767(5) 0.97209(4)
Si3 Si 0.11695(5) 0.61772(5) 0.91041(4)
Si4 Si 0.08444(5) 0.57867(5) 1.12153(4)
Si5 Si 0.00767(5) 0.66591(5) 1.05913(4)
Si6 Si 0.01144(5) 0.70041(5) 0.95906(4)
Na1 Na 0.05087(8) 0.41966(7) 1.10815(5)
O1 O 0.14815(13) 0.43809(12) 1.06163(9)
O2 O 0.15857(13) 0.54834(13) 1.10926(9)
O3 O 0.20933(13) 0.54135(12) 1.02631(9)
O4 O 0.12978(12) 0.47687(12) 0.96698(9)
O5 O 0.16759(13) 0.59874(12) 0.95386(9)
O6 O 0.06879(13) 0.55926(12) 0.89857(9)
O7 O 0.02532(13) 0.52857(12) 1.11402(9)
O8 O 0.07542(13) 0.64152(12) 1.08712(9)
O9 O -0.03981(13) 0.60629(12) 1.04600(9)
O10 O 0.03892(13) 0.70109(13) 1.01323(9)
O11 O -0.04971(13) 0.65199(12) 0.95318(9)
O12 O 0.07613(13) 0.68151(12) 0.92685(9)
C1 C 0.27617(19) 0.47645(18) 1.10101(14)
C2 C 0.2845(2) 0.4796(2) 1.14854(15)
H1 H 0.2493 0.4969 1.1671
C3 C 0.3438(2) 0.4578(2) 1.16998(16)
H2 H 0.3483 0.4602 1.2027
C4 C 0.3956(2) 0.4327(2) 1.14368(17)
H3 H 0.4356 0.4174 1.1582
C5 C 0.3892(2) 0.4300(2) 1.09659(16)
H4 H 0.4251 0.4131 1.0784
C6 C 0.3306(2) 0.45197(19) 1.07522(15)
H5 H 0.3273 0.4504 1.0424
C7 C 0.26694(19) 0.50067(18) 0.94098(14)
C8 C 0.3308(2) 0.5254(3) 0.95255(18)
H6 H 0.3345 0.5581 0.9753
C9 C 0.3884(3) 0.5026(3) 0.9311(2)
H7 H 0.4313 0.5198 0.9392
C10 C 0.3842(3) 0.4546(3) 0.8978(2)
H8 H 0.4241 0.4387 0.8835
C11 C 0.3233(3) 0.4309(3) 0.88607(19)
H9 H 0.3203 0.3983 0.8632
C12 C 0.2647(2) 0.4535(2) 0.90697(16)
H10 H 0.2222 0.4365 0.8978
C13 C 0.16669(19) 0.64207(19) 0.85863(13)
C14 C 0.1706(2) 0.7065(2) 0.84414(15)
H11 H 0.1513 0.7392 0.8628
C15 C 0.2024(2) 0.7226(2) 0.80272(16)
H12 H 0.2035 0.7661 0.7929
C16 C 0.2322(2) 0.6759(3) 0.77593(16)
H13 H 0.2545 0.6873 0.7479
C17 C 0.2299(2) 0.6121(3) 0.78974(16)
H14 H 0.2508 0.5799 0.7713
C18 C 0.1970(2) 0.5956(2) 0.83035(15)
H15 H 0.1950 0.5518 0.8393
C19 C 0.08975(18) 0.60540(18) 1.18302(13)
C20 C 0.1092(2) 0.5613(2) 1.21650(14)
H16 H 0.1215 0.5192 1.2072
C21 C 0.1111(2) 0.5770(2) 1.26318(15)
H17 H 0.1249 0.5460 1.2854
C22 C 0.0928(2) 0.6381(2) 1.27714(15)
H18 H 0.0933 0.6489 1.3091
C23 C 0.0739(2) 0.6833(2) 1.24477(15)
H19 H 0.0625 0.7256 1.2542
C24 C 0.0717(2) 0.6665(2) 1.19799(15)
H20 H 0.0576 0.6975 1.1759
C25 C -0.0390(2) 0.72621(19) 1.09368(14)
C26 C -0.0997(2) 0.7097(2) 1.11612(17)
H21 H -0.1156 0.6667 1.1149
C27 C -0.1365(3) 0.7552(3) 1.13986(19)
H22 H -0.1769 0.7431 1.1553
C28 C -0.1155(3) 0.8180(3) 1.14146(18)
H23 H -0.1422 0.8494 1.1568
C29 C -0.0557(3) 0.8350(2) 1.12085(18)
H24 H -0.0404 0.8781 1.1224
C30 C -0.0175(2) 0.7892(2) 1.09767(16)
H25 H 0.0245 0.8013 1.0842
C31 C -0.01071(19) 0.78345(17) 0.93997(14)
C32 C -0.0321(2) 0.8325(2) 0.96901(17)
H26 H -0.0306 0.8263 1.0016
C33 C -0.0557(2) 0.8905(2) 0.9513(2)
H27 H -0.0699 0.9234 0.9719
C34 C -0.0583(2) 0.9003(2) 0.9038(2)
H28 H -0.0759 0.9392 0.8916
C35 C -0.0357(2) 0.8538(2) 0.87474(17)
H29 H -0.0361 0.8609 0.8422
C36 C -0.0121(2) 0.7959(2) 0.89215(15)
H30 H 0.0036 0.7639 0.8712
O13 O 0.05887(16) 0.40118(16) 1.18682(10)
O14 O 0.00718(19) 0.32948(17) 1.26207(12)
C37 C 0.1028(2) 0.3673(2) 1.21772(16)
H31 H 0.1173 0.3962 1.2430
H32 H 0.1436 0.3530 1.2007
C38 C 0.0674(3) 0.3102(2) 1.23783(19)
H33 H 0.0552 0.2800 1.2127
H34 H 0.0981 0.2877 1.2595
C39 C -0.0359(2) 0.3627(2) 1.23076(17)
H35 H -0.0773 0.3765 1.2473
H36 H -0.0495 0.3334 1.2054
C40 C -0.0016(2) 0.4200(2) 1.21065(15)
H37 H -0.0326 0.4418 1.1888
H38 H 0.0098 0.4505 1.2357
Na2 Na 0.33718(8) 0.15756(8) 1.02861(6)
O15 O 0.27375(15) 0.20645(15) 1.08900(11)
O16 O 0.22124(16) 0.26909(16) 1.16796(11)
O17 O 0.28831(15) 0.23514(15) 0.98471(12)
O18 O 0.18520(14) 0.32986(13) 0.98244(10)
C41 C 0.2313(3) 0.1737(2) 1.12190(19)
H39 H 0.2598 0.1522 1.1454
H40 H 0.2043 0.1405 1.1058
C42 C 0.1844(2) 0.2209(2) 1.14540(18)
H41 H 0.1542 0.2405 1.1220
H42 H 0.1559 0.1979 1.1682
C43 C 0.2617(3) 0.3027(2) 1.13502(19)
H43 H 0.2878 0.3368 1.1509
H44 H 0.2322 0.3233 1.1116
C44 C 0.3100(2) 0.2566(2) 1.11127(18)
H45 H 0.3373 0.2802 1.0881
H46 H 0.3413 0.2381 1.1345
C45 C 0.2207(2) 0.2201(2) 0.9704(2)
H47 H 0.2100 0.1752 0.9788
H48 H 0.2170 0.2243 0.9364
C46 C 0.1702(2) 0.2648(2) 0.99360(17)
H49 H 0.1239 0.2542 0.9831
H50 H 0.1721 0.2589 1.0276
C47 C 0.2526(2) 0.3448(2) 0.99683(16)
H51 H 0.2561 0.3405 1.0309
H52 H 0.2633 0.3897 0.9885
C48 C 0.3028(2) 0.3005(2) 0.97395(18)
H53 H 0.3012 0.3066 0.9399
H54 H 0.3490 0.3111 0.9846
Cu1D Cu -0.09926(2) 0.59321(2) 0.991462(16)
Cu2D Cu -0.05346(2) 0.52361(2) 1.076375(16)
Na1D Na -0.05087(8) 0.58034(7) 0.89185(5)
O3G O 0.29067(13) 0.04135(12) 1.02631(9)
O5G O 0.33241(13) 0.09874(12) 0.95386(9)
O6D O -0.06879(13) 0.44074(12) 1.10143(9)
O7D O -0.02532(13) 0.47143(12) 0.88598(9)
O8G O 0.42458(13) 0.14152(12) 1.08712(9)
O9D O 0.03981(13) 0.39371(12) 0.95400(9)
O10G O 0.46108(13) 0.20109(13) 1.01323(9)
O11D O 0.04971(13) 0.34801(12) 1.04682(9)
Na2G Na 0.16282(8) 0.65756(8) 1.02861(6)
loop_
_geom_bond_atom_site_label_1
_geom_bond_atom_site_label_2
_geom_bond_site_symmetry_1
_geom_bond_site_symmetry_2
Cu1 O1 1_555 1_555
Cu2 O4 1_555 1_555
Si1 O1 1_555 1_555
Si2 O3 1_555 1_555
Si3 O5 1_555 1_555
Si4 O2 1_555 1_555
Si5 O8 1_555 1_555
Si6 O10 1_555 1_555
Na1 O1 1_555 1_555
O2 Si1 1_555 1_555
O3 Si1 1_555 1_555
O4 Cu1 1_555 1_555
O5 Si2 1_555 1_555
O6 Cu2 1_555 1_555
O7 Si4 1_555 1_555
O8 Si4 1_555 1_555
O9 Si5 1_555 1_555
O10 Si5 1_555 1_555
O11 Si6 1_555 1_555
O12 Si3 1_555 1_555
C1 Si1 1_555 1_555
C2 C1 1_555 1_555
H1 C2 1_555 1_555
C3 C2 1_555 1_555
H2 C3 1_555 1_555
C4 C3 1_555 1_555
H3 C4 1_555 1_555
C5 C4 1_555 1_555
H4 C5 1_555 1_555
C6 C1 1_555 1_555
H5 C6 1_555 1_555
C7 Si2 1_555 1_555
C8 C7 1_555 1_555
H6 C8 1_555 1_555
C9 C8 1_555 1_555
H7 C9 1_555 1_555
C10 C9 1_555 1_555
H8 C10 1_555 1_555
C11 C10 1_555 1_555
H9 C11 1_555 1_555
C12 C7 1_555 1_555
H10 C12 1_555 1_555
C13 Si3 1_555 1_555
C14 C13 1_555 1_555
H11 C14 1_555 1_555
C15 C14 1_555 1_555
H12 C15 1_555 1_555
C16 C15 1_555 1_555
H13 C16 1_555 1_555
C17 C16 1_555 1_555
H14 C17 1_555 1_555
C18 C13 1_555 1_555
H15 C18 1_555 1_555
C19 Si4 1_555 1_555
C20 C19 1_555 1_555
H16 C20 1_555 1_555
C21 C20 1_555 1_555
H17 C21 1_555 1_555
C22 C21 1_555 1_555
H18 C22 1_555 1_555
C23 C22 1_555 1_555
H19 C23 1_555 1_555
C24 C19 1_555 1_555
H20 C24 1_555 1_555
C25 Si5 1_555 1_555
C26 C25 1_555 1_555
H21 C26 1_555 1_555
C27 C26 1_555 1_555
H22 C27 1_555 1_555
C28 C27 1_555 1_555
H23 C28 1_555 1_555
C29 C28 1_555 1_555
H24 C29 1_555 1_555
C30 C25 1_555 1_555
H25 C30 1_555 1_555
C31 Si6 1_555 1_555
C32 C31 1_555 1_555
H26 C32 1_555 1_555
C33 C32 1_555 1_555
H27 C33 1_555 1_555
C34 C33 1_555 1_555
H28 C34 1_555 1_555
C35 C34 1_555 1_555
H29 C35 1_555 1_555
C36 C31 1_555 1_555
H30 C36 1_555 1_555
O13 Na1 1_555 1_555
O14 C38 1_555 1_555
C37 O13 1_555 1_555
H31 C37 1_555 1_555
H32 C37 1_555 1_555
C38 C37 1_555 1_555
H33 C38 1_555 1_555
H34 C38 1_555 1_555
C39 O14 1_555 1_555
H35 C39 1_555 1_555
H36 C39 1_555 1_555
C40 O13 1_555 1_555
H37 C40 1_555 1_555
H38 C40 1_555 1_555
Na2 O15 1_555 1_555
O15 C41 1_555 1_555
O16 C42 1_555 1_555
O17 Na2 1_555 1_555
O18 Cu1 1_555 1_555
C41 H39 1_555 1_555
H40 C41 1_555 1_555
C42 C41 1_555 1_555
H41 C42 1_555 1_555
H42 C42 1_555 1_555
C43 O16 1_555 1_555
H43 C43 1_555 1_555
H44 C43 1_555 1_555
C44 O15 1_555 1_555
H45 C44 1_555 1_555
H46 C44 1_555 1_555
C45 O17 1_555 1_555
H47 C45 1_555 1_555
H48 C45 1_555 1_555
C46 O18 1_555 1_555
H49 C46 1_555 1_555
H50 C46 1_555 1_555
C47 O18 1_555 1_555
H51 C47 1_555 1_555
H52 C47 1_555 1_555
C48 O17 1_555 1_555
H53 C48 1_555 1_555
H54 C48 1_555 1_555
Cu1D O9 1_555 1_555
Cu2D O7 1_555 1_555
Na1D O6 1_555 1_555
O3G Na2 1_555 1_555
O5G Na2 1_555 1_555
O6D Na1 1_555 1_555
O7D Cu2 1_555 1_555
O8G Na2 1_555 1_555
O9D Cu1 1_555 1_555
O10G Na2 1_555 1_555
O11D Cu1 1_555 1_555
Na2G O3 1_555 1_555
Cu2 O9D 1_555 1_555
Si2 O4 1_555 1_555
Si3 O6 1_555 1_555
Si6 O12 1_555 1_555
Na1 O7 1_555 1_555
Na1 O11D 1_555 1_555
O5 Na2G 1_555 1_555
O8 Na2G 1_555 1_555
O9 Cu2D 1_555 1_555
O10 Na2G 1_555 1_555
O11 Cu1D 1_555 1_555
O11 Na1D 1_555 1_555
C5 C6 1_555 1_555
C11 C12 1_555 1_555
C17 C18 1_555 1_555
C23 C24 1_555 1_555
C29 C30 1_555 1_555
C35 C36 1_555 1_555
C39 C40 1_555 1_555
C43 C44 1_555 1_555
C45 C46 1_555 1_555
C47 C48 1_555 1_555
Cu2D O6D 1_555 1_555
Na1D O7D 1_555 1_555

#END
