
#######################################################################
#
#                 Cambridge Crystallographic Data Centre
#                                CCDC 
#
#######################################################################
#
# If this CIF has been generated from an entry in the Cambridge 
# Structural Database, then it will include bibliographic, chemical, 
# crystal, experimental, refinement or atomic coordinate data resulting 
# from the CCDC's data processing and validation procedures.
#
#######################################################################

data_QIJKOJ01
_symmetry_cell_setting           monoclinic
_symmetry_space_group_name_H-M   'P 2/n'
_symmetry_Int_Tables_number      13
_space_group_name_Hall           '-P 2yac'
loop_
_symmetry_equiv_pos_site_id
_symmetry_equiv_pos_as_xyz
1 x,y,z
2 1/2+x,-y,1/2+z
3 -x,-y,-z
4 1/2-x,y,1/2-z
_cell_length_a                   13.3903(6)
_cell_length_b                   7.5745(3)
_cell_length_c                   14.3935(6)
_cell_angle_alpha                90.00
_cell_angle_beta                 99.663(2)
_cell_angle_gamma                90.00
_cell_volume                     1439.15
loop_
_atom_site_label
_atom_site_type_symbol
_atom_site_fract_x
_atom_site_fract_y
_atom_site_fract_z
P1 P 0.7500 0.21553(8) 0.2500
C5 C 0.67103(12) 0.3545(2) 0.30803(12)
C6 C 0.56728(13) 0.3313(3) 0.29777(13)
H1 H 0.5360 0.2413 0.2595
C7 C 0.51041(15) 0.4413(3) 0.34419(15)
H2 H 0.4407 0.4251 0.3374
C8 C 0.55585(16) 0.5750(3) 0.40055(15)
H3 H 0.5169 0.6492 0.4315
C9 C 0.65893(16) 0.5992(3) 0.41117(15)
H4 H 0.6895 0.6897 0.4494
C10 C 0.71700(15) 0.4899(3) 0.36544(15)
H5 H 0.7867 0.5064 0.3728
C11 C 0.82417(12) 0.0685(2) 0.33226(12)
C12 C 0.87645(14) -0.0667(3) 0.29532(14)
H6 H 0.8784 -0.0705 0.2311
C13 C 0.92509(14) -0.1943(3) 0.35426(16)
H7 H 0.9605 -0.2842 0.3301
C14 C 0.92106(15) -0.1883(3) 0.44895(16)
H8 H 0.9529 -0.2759 0.4885
C15 C 0.87067(17) -0.0546(3) 0.48586(14)
H9 H 0.8698 -0.0510 0.5503
C16 C 0.82120(14) 0.0746(2) 0.42771(12)
H10 H 0.7864 0.1645 0.4525
C5C C 0.82897(12) 0.3545(2) 0.19197(12)
C6C C 0.93272(13) 0.3313(3) 0.20223(13)
H1C H 0.9640 0.2413 0.2405
C7C C 0.98959(15) 0.4413(3) 0.15581(15)
H2C H 1.0593 0.4251 0.1626
C8C C 0.94415(16) 0.5750(3) 0.09945(15)
H3C H 0.9831 0.6492 0.0685
C9C C 0.84107(16) 0.5992(3) 0.08883(15)
H4C H 0.8105 0.6897 0.0506
C10C C 0.78300(15) 0.4899(3) 0.13456(15)
H5C H 0.7133 0.5064 0.1272
C11C C 0.67583(12) 0.0685(2) 0.16774(12)
C12C C 0.62355(14) -0.0667(3) 0.20468(14)
H6C H 0.6216 -0.0705 0.2689
C13C C 0.57491(14) -0.1943(3) 0.14574(16)
H7C H 0.5395 -0.2842 0.1699
C14C C 0.57894(15) -0.1883(3) 0.05105(16)
H8C H 0.5471 -0.2759 0.0115
C15C C 0.62933(17) -0.0546(3) 0.01414(14)
H9C H 0.6302 -0.0510 -0.0503
C16C C 0.67880(14) 0.0746(2) 0.07229(12)
H10C H 0.7136 0.1645 0.0475
Mn1 Mn 0.2500 0.03256(4) 0.2500
N1 N 0.31815(13) -0.1795(2) 0.17597(12)
N2 N 0.35152(17) -0.4656(2) 0.11037(13)
N3 N 0.31766(12) -0.75110(19) 0.17719(11)
C1 C 0.33072(14) -0.3173(2) 0.14847(12)
C2 C 0.33064(14) -0.6134(2) 0.14853(12)
N5 N -0.0540(3) 0.0317(6) 0.0373(3)
N6 N 0.1275(3) 0.0335(5) 0.1192(3)
C3 C 0.0384(3) 0.0299(6) 0.0824(3)
N1C N 0.18185(13) -0.1795(2) 0.32403(12)
N2C N 0.14848(17) -0.4656(2) 0.38963(13)
N3C N 0.18234(12) -0.75110(19) 0.32281(11)
C1C C 0.16928(14) -0.3173(2) 0.35153(12)
C2C C 0.16936(14) -0.6134(2) 0.35147(12)
N5C N 0.5540(3) 0.0317(6) 0.4627(3)
N6C N 0.3725(3) 0.0335(5) 0.3808(3)
C3C C 0.4616(3) 0.0299(6) 0.4176(3)
N3_2 N 0.31766(12) 0.24890(19) 0.17719(11)
N3C_2 N 0.18234(12) 0.24890(19) 0.32281(11)
Mn1_2 Mn 0.2500 -0.96744(4) 0.2500
N4? N 0.3933(3) 0.0251(5) 0.3600(3)
C4? C 0.5829(3) 0.0004(5) 0.5506(3)
loop_
_geom_bond_atom_site_label_1
_geom_bond_atom_site_label_2
_geom_bond_site_symmetry_1
_geom_bond_site_symmetry_2
Mn1 N1 1_555 1_555
N1 C1 1_555 1_555
N2 C1 1_555 1_555
N3 C2 1_555 1_555
C2 N2 1_555 1_555
N5 C3 1_555 1_555
N6 Mn1 1_555 1_555
C3 N6 1_555 1_555
P1 C5 1_555 1_555
C5 C6 1_555 1_555
C6 H1 1_555 1_555
C7 C6 1_555 1_555
H2 C7 1_555 1_555
C8 C7 1_555 1_555
H3 C8 1_555 1_555
C9 C8 1_555 1_555
H4 C9 1_555 1_555
C10 C5 1_555 1_555
H5 C10 1_555 1_555
C11 P1 1_555 1_555
C12 C11 1_555 1_555
H6 C12 1_555 1_555
C13 C12 1_555 1_555
H7 C13 1_555 1_555
C14 C13 1_555 1_555
H8 C14 1_555 1_555
C15 C14 1_555 1_555
H9 C15 1_555 1_555
C16 C11 1_555 1_555
H10 C16 1_555 1_555
C5C P1 1_555 1_555
C6C C5C 1_555 1_555
H1C C6C 1_555 1_555
C7C C6C 1_555 1_555
H2C C7C 1_555 1_555
C8C C7C 1_555 1_555
H3C C8C 1_555 1_555
C9C C8C 1_555 1_555
H4C C9C 1_555 1_555
C10C C5C 1_555 1_555
H5C C10C 1_555 1_555
C11C P1 1_555 1_555
C12C C11C 1_555 1_555
H6C C12C 1_555 1_555
C13C C12C 1_555 1_555
H7C C13C 1_555 1_555
C14C C13C 1_555 1_555
H8C C14C 1_555 1_555
C15C C14C 1_555 1_555
H9C C15C 1_555 1_555
C16C C11C 1_555 1_555
H10C C16C 1_555 1_555
N1C Mn1 1_555 1_555
N2C C1C 1_555 1_555
N3C C2C 1_555 1_555
C1C N1C 1_555 1_555
C2C N2C 1_555 1_555
N5C C3C 1_555 1_555
N6C Mn1 1_555 1_555
C3C N6C 1_555 1_555
N3_2 Mn1 1_555 1_555
N3C_2 Mn1 1_555 1_555
Mn1_2 N3 1_555 1_555
C9 C10 1_555 1_555
C15 C16 1_555 1_555
C9C C10C 1_555 1_555
C15C C16C 1_555 1_555
N3C Mn1_2 1_555 1_555

#END
