
#######################################################################
#
#                 Cambridge Crystallographic Data Centre
#                                CCDC 
#
#######################################################################
#
# If this CIF has been generated from an entry in the Cambridge 
# Structural Database, then it will include bibliographic, chemical, 
# crystal, experimental, refinement or atomic coordinate data resulting 
# from the CCDC's data processing and validation procedures.
#
#######################################################################

data_QIJWIP
_symmetry_cell_setting           monoclinic
_symmetry_space_group_name_H-M   'P 21/c'
_symmetry_Int_Tables_number      14
_space_group_name_Hall           '-P 2ybc'
loop_
_symmetry_equiv_pos_site_id
_symmetry_equiv_pos_as_xyz
1 x,y,z
2 x,1/2-y,1/2+z
3 -x,-y,-z
4 -x,1/2+y,1/2-z
_cell_length_a                   16.703(3)
_cell_length_b                   3.6340(10)
_cell_length_c                   20.248(3)
_cell_angle_alpha                90
_cell_angle_beta                 117.380(10)
_cell_angle_gamma                90
_cell_volume                     1091.35
loop_
_atom_site_label
_atom_site_type_symbol
_atom_site_fract_x
_atom_site_fract_y
_atom_site_fract_z
Na1 Na 0.5465(3) 0.4571(16) 0.4216(3)
O1 O 0.4312(4) -0.009(2) 0.3849(3)
O2 O 0.6156(5) -0.086(2) 0.5105(4)
O3 O 0.3703(4) -0.207(2) 0.1337(4)
N1 N 0.1959(6) -0.526(3) 0.1020(4)
N2 N 0.2192(5) -0.485(2) 0.0501(4)
N3 N 0.1893(5) -0.6700(10) -0.0631(5)
C1 C 0.3816(5) -0.128(3) 0.3216(4)
C2 C 0.4014(5) -0.108(2) 0.2600(4)
C3 C 0.3435(5) -0.244(3) 0.1899(4)
C4 C 0.2536(5) -0.394(2) 0.1707(4)
C5 C 0.2331(5) -0.395(3) 0.2316(4)
C6 C 0.2932(5) -0.279(2) 0.3033(4)
C7 C 0.1602(6) -0.649(2) -0.0127(4)
C8 C 0.1328(6) -0.787(2) -0.1336(5)
C9 C 0.0425(6) -0.900(2) -0.1573(4)
C10 C 0.0161(6) -0.860(3) -0.1047(5)
C11 C 0.0698(5) -0.720(2) -0.0343(4)
H1 H 0.3138 -0.3160 0.0877
H2 H 0.4651 0.0146 0.2684
H3 H 0.2740 -0.2901 0.3475
H4 H 0.1679 -0.5187 0.2234
H5 H 0.1650 -0.8304 -0.1687
H6 H 0.0052 -1.0114 -0.2136
H7 H -0.0558 -0.9295 -0.1181
H8 H 0.0426 -0.6865 0.0046
O1_2 O 0.4312(4) 0.991(2) 0.3849(3)
O2_2 O 0.6156(5) 0.914(2) 0.5105(4)
O3C O 0.6297(4) 0.293(2) 0.3663(4)
Na1_2 Na 0.5465(3) -0.5429(16) 0.4216(3)
Na1C Na 0.4535(3) -0.0429(16) 0.0784(3)
H1C H 0.6862 0.1840 0.4123
loop_
_geom_bond_atom_site_label_1
_geom_bond_atom_site_label_2
_geom_bond_site_symmetry_1
_geom_bond_site_symmetry_2
Na1 O1 1_555 1_555
O1 C1 1_555 1_555
O2 Na1 1_555 1_555
O3 C3 1_555 1_555
N1 N2 1_555 1_555
N2 C7 1_555 1_555
N3 C7 1_555 1_555
C1 C2 1_555 1_555
C2 C3 1_555 1_555
C3 C4 1_555 1_555
C4 N1 1_555 1_555
C5 C4 1_555 1_555
C6 C1 1_555 1_555
C7 C11 1_555 1_555
C8 N3 1_555 1_555
C9 C8 1_555 1_555
C10 C9 1_555 1_555
C11 C10 1_555 1_555
H1 O3 1_555 1_555
H2 C2 1_555 1_555
H3 C6 1_555 1_555
H4 C5 1_555 1_555
H5 C8 1_555 1_555
H6 C9 1_555 1_555
H7 C10 1_555 1_555
H8 C11 1_555 1_555
O1_2 Na1 1_555 1_555
O2_2 Na1 1_555 1_555
O3C Na1 1_555 1_555
Na1_2 O1 1_555 1_555
Na1C O3 1_555 1_555
H1C O3C 1_555 1_555
O2 Na1_2 1_555 1_555
C5 C6 1_555 1_555

#END
