
#######################################################################
#
#                 Cambridge Crystallographic Data Centre
#                                CCDC 
#
#######################################################################
#
# If this CIF has been generated from an entry in the Cambridge 
# Structural Database, then it will include bibliographic, chemical, 
# crystal, experimental, refinement or atomic coordinate data resulting 
# from the CCDC's data processing and validation procedures.
#
#######################################################################

data_QIJXIS
_symmetry_cell_setting           monoclinic
_symmetry_space_group_name_H-M   'P 21/n'
_symmetry_Int_Tables_number      14
_space_group_name_Hall           '-P 2yn'
loop_
_symmetry_equiv_pos_site_id
_symmetry_equiv_pos_as_xyz
1 x,y,z
2 1/2-x,1/2+y,1/2-z
3 -x,-y,-z
4 1/2+x,1/2-y,1/2+z
_cell_length_a                   6.9417(14)
_cell_length_b                   22.088(4)
_cell_length_c                   9.5508(19)
_cell_angle_alpha                90
_cell_angle_beta                 91.17(3)
_cell_angle_gamma                90
_cell_volume                     1464.1
loop_
_atom_site_label
_atom_site_type_symbol
_atom_site_fract_x
_atom_site_fract_y
_atom_site_fract_z
Ce1 Ce 0.26859(3) 0.812124(8) 0.204034(19)
N1 N 0.1905(5) 0.93229(13) 0.2443(3)
N2 N 0.1294(5) 1.02963(13) 0.2611(3)
H1 H 0.0923 1.0655 0.2381
O1 O 0.3254(4) 0.85444(12) 0.4488(3)
O2 O 0.3440(4) 0.92658(12) 0.6091(3)
O3 O 0.2844(4) 1.03675(12) 0.6220(3)
O4 O 0.1686(4) 1.11013(12) 0.4821(3)
O5 O -0.0204(4) 0.83304(12) 0.0572(3)
O6 O -0.2815(4) 0.86733(13) -0.0870(4)
O7 O 0.0249(4) 0.85114(11) -0.1879(3)
O8 O -0.1606(4) 0.76556(12) -0.1125(3)
O9 O 0.3590(4) 0.8361(2) -0.0421(3)
H2 H 0.4736 0.8382 -0.0714
H3 H 0.2849 0.8522 -0.1035
O10 O 0.1198(5) 0.71398(13) 0.1156(3)
H4 H 0.1813 0.6808 0.1116
H5 H 0.0188 0.7134 0.0638
O11 O 0.5536(5) 0.74534(13) 0.1317(3)
H6 H 0.5970 0.7159 0.1803
H7 H 0.5935 0.7427 0.0484
O12 O 0.5855(4) 0.86910(15) 0.2101(3)
H8 H 0.6916 0.8570 0.1770
H9 H 0.6090 0.9021 0.2528
O13 O -0.0422(4) 0.80191(12) 0.3430(3)
H10 H -0.0359 0.8112 0.2568
H11 H -0.0904 0.8310 0.3888
C1 C 0.3036(5) 0.90804(15) 0.4836(4)
C2 C 0.2295(5) 0.95147(15) 0.3791(3)
C3 C 0.1926(5) 1.01234(15) 0.3902(4)
C4 C 0.2166(5) 1.05659(15) 0.5056(4)
C5 C 0.1344(6) 0.98079(16) 0.1733(4)
C6 C 0.0962(7) 0.98555(19) 0.0190(4)
H12 H 0.1002 0.9453 -0.0215
H13 H 0.1982 1.0092 -0.0223
S1 S -0.11081(12) 0.82901(4) -0.08297(9)
N1B N -0.1905(5) 1.06771(13) -0.2443(3)
N2B N -0.1294(5) 0.97037(13) -0.2611(3)
H1B H -0.0923 0.9345 -0.2381
O1B O -0.3254(4) 1.14556(12) -0.4488(3)
O2B O -0.3440(4) 1.07342(12) -0.6091(3)
O3B O -0.2844(4) 0.96325(12) -0.6220(3)
O4B O -0.1686(4) 0.88987(12) -0.4821(3)
C1B C -0.3036(5) 1.09196(15) -0.4836(4)
C2B C -0.2295(5) 1.04853(15) -0.3791(3)
C3B C -0.1926(5) 0.98766(15) -0.3902(4)
C4B C -0.2166(5) 0.94341(15) -0.5056(4)
C5B C -0.1344(6) 1.01921(16) -0.1733(4)
C6B C -0.0962(7) 1.01445(19) -0.0190(4)
H12B H -0.1002 1.0547 0.0215
H13B H -0.1982 0.9908 0.0223
Ce1B Ce -0.26859(3) 1.187876(8) -0.204034(19)
O5B O 0.0204(4) 1.16696(12) -0.0572(3)
O6B O 0.2815(4) 1.13267(13) 0.0870(4)
O7B O -0.0249(4) 1.14886(11) 0.1879(3)
O8B O 0.1606(4) 1.23444(12) 0.1125(3)
O9B O -0.3590(4) 1.1639(2) 0.0421(3)
H2B H -0.4736 1.1618 0.0714
H3B H -0.2849 1.1478 0.1035
O10B O -0.1198(5) 1.28602(13) -0.1156(3)
H4B H -0.1813 1.3192 -0.1116
H5B H -0.0188 1.2866 -0.0638
O11B O -0.5536(5) 1.25466(13) -0.1317(3)
H6B H -0.5970 1.2841 -0.1803
H7B H -0.5935 1.2573 -0.0484
O12B O -0.5855(4) 1.13090(15) -0.2101(3)
H8B H -0.6916 1.1430 -0.1770
H9B H -0.6090 1.0979 -0.2528
O13B O 0.0422(4) 1.19809(12) -0.3430(3)
H10B H 0.0359 1.1888 -0.2568
H11B H 0.0904 1.1690 -0.3888
S1B S 0.11081(12) 1.17099(4) 0.08297(9)
Ce1A Ce 0.23141(3) 1.312124(8) 0.295966(19)
Ce1C Ce -0.23141(3) 0.687876(8) -0.295966(19)
O8A O -0.3394(4) 1.26556(12) -0.3875(3)
O8C O 0.3394(4) 0.73444(12) 0.3875(3)
loop_
_geom_bond_atom_site_label_1
_geom_bond_atom_site_label_2
_geom_bond_site_symmetry_1
_geom_bond_site_symmetry_2
Ce1 N1 1_555 1_555
N1 C2 1_555 1_555
N2 H1 1_555 1_555
O1 Ce1 1_555 1_555
O2 C1 1_555 1_555
O3 C4 1_555 1_555
O4 C4 1_555 1_555
O5 Ce1 1_555 1_555
O6 S1 1_555 1_555
O7 S1 1_555 1_555
O8 S1 1_555 1_555
O9 Ce1 1_555 1_555
H2 O9 1_555 1_555
H3 O9 1_555 1_555
O10 Ce1 1_555 1_555
H4 O10 1_555 1_555
H5 O10 1_555 1_555
O11 Ce1 1_555 1_555
H6 O11 1_555 1_555
H7 O11 1_555 1_555
O12 Ce1 1_555 1_555
H8 O12 1_555 1_555
H9 O12 1_555 1_555
O13 Ce1 1_555 1_555
H10 O13 1_555 1_555
H11 O13 1_555 1_555
C1 O1 1_555 1_555
C2 C1 1_555 1_555
C3 N2 1_555 1_555
C4 C3 1_555 1_555
C5 N1 1_555 1_555
C6 C5 1_555 1_555
H12 C6 1_555 1_555
H13 C6 1_555 1_555
S1 O5 1_555 1_555
N1B C2B 1_555 1_555
N2B H1B 1_555 1_555
O1B C1B 1_555 1_555
O2B C1B 1_555 1_555
O3B C4B 1_555 1_555
O4B C4B 1_555 1_555
C1B C2B 1_555 1_555
C2B C3B 1_555 1_555
C3B N2B 1_555 1_555
C4B C3B 1_555 1_555
C5B N1B 1_555 1_555
C6B C6 1_555 1_555
H12B C6B 1_555 1_555
H13B C6B 1_555 1_555
Ce1B N1B 1_555 1_555
O5B Ce1B 1_555 1_555
O6B S1B 1_555 1_555
O7B S1B 1_555 1_555
O8B S1B 1_555 1_555
O9B Ce1B 1_555 1_555
H2B O9B 1_555 1_555
H3B O9B 1_555 1_555
O10B Ce1B 1_555 1_555
H4B O10B 1_555 1_555
H5B O10B 1_555 1_555
O11B Ce1B 1_555 1_555
H6B O11B 1_555 1_555
H7B O11B 1_555 1_555
O12B Ce1B 1_555 1_555
H8B O12B 1_555 1_555
H9B O12B 1_555 1_555
O13B Ce1B 1_555 1_555
H10B O13B 1_555 1_555
H11B O13B 1_555 1_555
S1B O5B 1_555 1_555
Ce1A O8B 1_555 1_555
Ce1C O8 1_555 1_555
O8A Ce1B 1_555 1_555
O8C Ce1 1_555 1_555
N2 C5 1_555 1_555
C2 C3 1_555 1_555
N2B C5B 1_555 1_555
O1B Ce1B 1_555 1_555
C5B C6B 1_555 1_555

#END
