
#######################################################################
#
#                 Cambridge Crystallographic Data Centre
#                                CCDC 
#
#######################################################################
#
# If this CIF has been generated from an entry in the Cambridge 
# Structural Database, then it will include bibliographic, chemical, 
# crystal, experimental, refinement or atomic coordinate data resulting 
# from the CCDC's data processing and validation procedures.
#
#######################################################################

data_QIKDAR
_symmetry_cell_setting           monoclinic
_symmetry_space_group_name_H-M   'P 21/c'
_symmetry_Int_Tables_number      14
_space_group_name_Hall           '-P 2ybc'
loop_
_symmetry_equiv_pos_site_id
_symmetry_equiv_pos_as_xyz
1 x,y,z
2 -x,1/2+y,1/2-z
3 -x,-y,-z
4 x,1/2-y,1/2+z
_cell_length_a                   9.6277(6)
_cell_length_b                   6.4382(4)
_cell_length_c                   9.7615(6)
_cell_angle_alpha                90
_cell_angle_beta                 95.393(5)
_cell_angle_gamma                90
_cell_volume                     602.389
loop_
_atom_site_label
_atom_site_type_symbol
_atom_site_fract_x
_atom_site_fract_y
_atom_site_fract_z
Cu1 Cu 0.0000 0.5000 0.5000
N1 N 0.1089(3) 0.3341(4) 0.3754(3)
N2 N 0.0568(3) 0.1656(5) 0.3054(3)
N3 N 0.1388(3) 0.1209(5) 0.2093(3)
N4 N 0.2454(3) 0.2587(5) 0.2135(3)
N5 N 0.4816(3) 0.7808(5) 0.4183(3)
N6 N 0.3703(3) 0.8579(5) 0.4799(3)
N7 N 0.1311(3) 0.7533(4) 0.4902(3)
H1 H 0.1413 0.8114 0.5744
H2 H 0.0868 0.8469 0.4332
C1 C 0.2250(4) 0.3864(5) 0.3174(3)
C2 C 0.3095(4) 0.5608(5) 0.3643(3)
C3 C 0.2683(4) 0.7241(5) 0.4467(3)
C4 C 0.4479(4) 0.6036(6) 0.3481(3)
H3 H 0.5068 0.5252 0.2982
H4 H -0.577333 0.151937 0.575502
N1B N -0.1089(3) 0.6659(4) 0.6246(3)
N2B N -0.0568(3) 0.8344(5) 0.6946(3)
N3B N -0.1388(3) 0.8791(5) 0.7907(3)
N4B N -0.2454(3) 0.7413(5) 0.7865(3)
N5B N -0.4816(3) 0.2192(5) 0.5817(3)
N6B N -0.3703(3) 0.1421(5) 0.5201(3)
N7B N -0.1311(3) 0.2467(4) 0.5098(3)
H1B H -0.1413 0.1886 0.4256
H2B H -0.0868 0.1531 0.5668
C1B C -0.2250(4) 0.6136(5) 0.6826(3)
C2B C -0.3095(4) 0.4392(5) 0.6357(3)
C3B C -0.2683(4) 0.2759(5) 0.5533(3)
C4B C -0.4479(4) 0.3964(6) 0.6519(3)
H3B H -0.5068 0.4748 0.7018
Cu1A Cu 0.0000 0.0000 0.0000
Cu1A_2 Cu 0.0000 1.0000 1.0000
N3A N -0.1388(3) 0.6209(5) 0.2907(3)
N3C N 0.1388(3) 0.3791(5) 0.7093(3)
H4B H 0.577333 0.848063 0.424498
loop_
_geom_bond_atom_site_label_1
_geom_bond_atom_site_label_2
_geom_bond_site_symmetry_1
_geom_bond_site_symmetry_2
Cu1 N1 1_555 1_555
N1 N2 1_555 1_555
N2 N3 1_555 1_555
N3 N4 1_555 1_555
N4 C1 1_555 1_555
N5 N6 1_555 1_555
N6 C3 1_555 1_555
N7 Cu1 1_555 1_555
H1 N7 1_555 1_555
H2 N7 1_555 1_555
C1 N1 1_555 1_555
C2 C1 1_555 1_555
C3 N7 1_555 1_555
C4 N5 1_555 1_555
H3 C4 1_555 1_555
H4 N5B 1_555 1_555
N1B Cu1 1_555 1_555
N2B N1B 1_555 1_555
N3B N2B 1_555 1_555
N4B N3B 1_555 1_555
N5B N6B 1_555 1_555
N6B C3B 1_555 1_555
N7B Cu1 1_555 1_555
H1B N7B 1_555 1_555
H2B N7B 1_555 1_555
C1B N1B 1_555 1_555
C2B C1B 1_555 1_555
C3B N7B 1_555 1_555
C4B N5B 1_555 1_555
H3B C4B 1_555 1_555
Cu1A N3 1_555 1_555
Cu1A_2 N3B 1_555 1_555
N3A Cu1 1_555 1_555
N3C Cu1 1_555 1_555
H4B N5 1_555 1_555
C2 C3 1_555 1_555
C2 C4 1_555 1_555
N4B C1B 1_555 1_555
C2B C3B 1_555 1_555
C2B C4B 1_555 1_555

#END
