
#######################################################################
#
#                 Cambridge Crystallographic Data Centre
#                                CCDC 
#
#######################################################################
#
# If this CIF has been generated from an entry in the Cambridge 
# Structural Database, then it will include bibliographic, chemical, 
# crystal, experimental, refinement or atomic coordinate data resulting 
# from the CCDC's data processing and validation procedures.
#
#######################################################################

data_QIKQUY
_symmetry_cell_setting           triclinic
_symmetry_space_group_name_H-M   'P -1'
_symmetry_Int_Tables_number      2
_space_group_name_Hall           '-P 1'
loop_
_symmetry_equiv_pos_site_id
_symmetry_equiv_pos_as_xyz
1 x,y,z
2 -x,-y,-z
_cell_length_a                   10.0641(10)
_cell_length_b                   10.2026(9)
_cell_length_c                   11.1551(11)
_cell_angle_alpha                70.675(7)
_cell_angle_beta                 71.120(5)
_cell_angle_gamma                77.773(6)
_cell_volume                     1015.66
loop_
_atom_site_label
_atom_site_type_symbol
_atom_site_fract_x
_atom_site_fract_y
_atom_site_fract_z
Co1 Co 0.66238(6) 0.33815(5) 0.32264(5)
Co2 Co 1.0000 0.0000 0.0000
S1 S 0.38861(12) 0.36026(12) 0.40594(11)
S2 S 0.93371(12) 0.32396(12) 0.25007(11)
S3 S 0.73061(11) 0.00263(12) 0.08476(11)
O1 O 0.6713(3) 0.1552(3) 0.4797(3)
O2 O 0.6527(3) 0.5082(3) 0.1555(3)
O3 O 1.0227(3) -0.1720(3) 0.1629(3)
N1 N 0.3348(4) 0.5341(4) 0.5701(4)
N2 N 1.0061(4) 0.1354(4) 0.0980(4)
N3 N 0.6604(4) 0.2105(4) 0.2151(4)
C1 C 0.3568(4) 0.4626(4) 0.5023(4)
C2 C 0.9767(4) 0.2144(4) 0.1604(4)
C3 C 0.6901(4) 0.1246(4) 0.1613(4)
C4 C 0.7500(5) 0.0216(5) 0.4638(5)
H1 H 0.8370 0.0360 0.3895
H2 H 0.6914 -0.0338 0.4474
C5 C 0.7852(5) -0.0499(5) 0.5926(5)
H3 H 0.8686 -0.0156 0.5957
H4 H 0.8031 -0.1527 0.6086
C6 C 0.6526(5) -0.0085(5) 0.6907(5)
H5 H 0.6728 -0.0120 0.7730
H6 H 0.5794 -0.0705 0.7129
C7 C 0.6056(5) 0.1405(5) 0.6189(4)
H7 H 0.5013 0.1566 0.6374
H8 H 0.6367 0.2084 0.6473
C8 C 0.5748(6) 0.6437(5) 0.1558(5)
H9 H 0.6106 0.6890 0.2034
H10 H 0.4732 0.6351 0.2000
C9 C 0.5953(10) 0.7266(7) 0.0170(7)
H11 H 0.5028 0.7714 0.0010
H12 H 0.6552 0.8009 -0.0040
C10 C 0.6626(6) 0.6348(6) -0.0663(5)
H13 H 0.7332 0.6816 -0.1463
H14 H 0.5919 0.6054 -0.0935
C11 C 0.7328(6) 0.5116(5) 0.0200(4)
H15 H 0.7299 0.4239 0.0016
H16 H 0.8328 0.5235 0.0043
C12 C 0.9509(6) -0.2976(5) 0.2160(5)
H17 H 0.9680 -0.3446 0.1468
H18 H 0.8477 -0.2737 0.2498
C13 C 1.0118(6) -0.3908(6) 0.3263(6)
H19 H 0.9376 -0.4393 0.4012
H20 H 1.0874 -0.4616 0.2954
C14 C 1.0693(7) -0.2952(6) 0.3650(6)
H21 H 1.1516 -0.3434 0.3991
H22 H 0.9966 -0.2587 0.4343
C15 C 1.1124(6) -0.1803(5) 0.2430(5)
H23 H 1.1000 -0.0910 0.2644
H24 H 1.2128 -0.2006 0.1960
Co1A Co 0.33762(6) 0.66185(5) 0.67736(5)
S1A S 0.61139(12) 0.63974(12) 0.59406(11)
S2A S 0.06629(12) 0.67604(12) 0.74993(11)
S3A S 0.26939(11) 0.99737(12) 0.91524(11)
O1A O 0.3287(3) 0.8448(3) 0.5203(3)
O2A O 0.3473(3) 0.4918(3) 0.8445(3)
N1A N 0.6652(4) 0.4659(4) 0.4299(4)
N2A N -0.0061(4) 0.8646(4) 0.9020(4)
N3A N 0.3396(4) 0.7895(4) 0.7849(4)
C1A C 0.6432(4) 0.5374(4) 0.4977(4)
C2A C 0.0233(4) 0.7856(4) 0.8396(4)
C3A C 0.3099(4) 0.8754(4) 0.8387(4)
C4A C 0.2500(5) 0.9784(5) 0.5362(5)
H1A H 0.1630 0.9640 0.6105
H2A H 0.3086 1.0338 0.5526
C5A C 0.2148(5) 1.0499(5) 0.4074(5)
H3A H 0.1314 1.0156 0.4043
H4A H 0.1969 1.1527 0.3914
C6A C 0.3474(5) 1.0085(5) 0.3093(5)
H5A H 0.3272 1.0120 0.2270
H6A H 0.4206 1.0705 0.2871
C7A C 0.3944(5) 0.8595(5) 0.3811(4)
H7A H 0.4987 0.8434 0.3626
H8A H 0.3633 0.7916 0.3527
C8A C 0.4252(6) 0.3563(5) 0.8442(5)
H9A H 0.3894 0.3110 0.7966
H10A H 0.5268 0.3649 0.8000
C9A C 0.4047(10) 0.2734(7) 0.9830(7)
H11A H 0.4972 0.2286 0.9990
H12A H 0.3448 0.1991 1.0040
C10A C 0.3374(6) 0.3652(6) 1.0663(5)
H13A H 0.2668 0.3184 1.1463
H14A H 0.4081 0.3946 1.0935
C11A C 0.2672(6) 0.4884(5) 0.9800(4)
H15A H 0.2701 0.5761 0.9984
H16A H 0.1672 0.4765 0.9957
O3A O 0.9773(3) 0.1720(3) -0.1629(3)
C12A C 1.0491(6) 0.2976(5) -0.2160(5)
H17A H 1.0320 0.3446 -0.1468
H18A H 1.1523 0.2737 -0.2498
C13A C 0.9882(6) 0.3908(6) -0.3263(6)
H19A H 1.0624 0.4393 -0.4012
H20A H 0.9126 0.4616 -0.2954
C14A C 0.9307(7) 0.2952(6) -0.3650(6)
H21A H 0.8484 0.3434 -0.3991
H22A H 1.0034 0.2587 -0.4343
C15A C 0.8876(6) 0.1803(5) -0.2430(5)
H23A H 0.9000 0.0910 -0.2644
H24A H 0.7872 0.2006 -0.1960
Co2_2 Co 0.0000 1.0000 1.0000
S3A_2 S 1.26939(11) -0.00263(12) -0.08476(11)
N2A_2 N 0.9939(4) -0.1354(4) -0.0980(4)
loop_
_geom_bond_atom_site_label_1
_geom_bond_atom_site_label_2
_geom_bond_site_symmetry_1
_geom_bond_site_symmetry_2
Co1 S1 1_555 1_555
Co2 S3 1_555 1_555
S1 C1 1_555 1_555
S2 Co1 1_555 1_555
S3 C3 1_555 1_555
O1 Co1 1_555 1_555
O2 Co1 1_555 1_555
O3 Co2 1_555 1_555
N1 C1 1_555 1_555
N2 Co2 1_555 1_555
N3 Co1 1_555 1_555
C2 S2 1_555 1_555
C3 N3 1_555 1_555
C4 O1 1_555 1_555
H1 C4 1_555 1_555
H2 C4 1_555 1_555
C5 C4 1_555 1_555
H3 C5 1_555 1_555
H4 C5 1_555 1_555
C6 C5 1_555 1_555
H5 C6 1_555 1_555
H6 C6 1_555 1_555
C7 O1 1_555 1_555
H7 C7 1_555 1_555
H8 C7 1_555 1_555
C8 O2 1_555 1_555
H9 C8 1_555 1_555
H10 C8 1_555 1_555
C9 C8 1_555 1_555
H11 C9 1_555 1_555
H12 C9 1_555 1_555
C10 C9 1_555 1_555
H13 C10 1_555 1_555
H14 C10 1_555 1_555
C11 O2 1_555 1_555
H15 C11 1_555 1_555
H16 C11 1_555 1_555
C12 O3 1_555 1_555
H17 C12 1_555 1_555
H18 C12 1_555 1_555
C13 C12 1_555 1_555
H19 C13 1_555 1_555
H20 C13 1_555 1_555
C14 C13 1_555 1_555
H21 C14 1_555 1_555
H22 C14 1_555 1_555
C15 O3 1_555 1_555
H23 C15 1_555 1_555
H24 C15 1_555 1_555
Co1A N1 1_555 1_555
S1A Co1A 1_555 1_555
S2A Co1A 1_555 1_555
S3A C3A 1_555 1_555
O1A Co1A 1_555 1_555
O2A Co1A 1_555 1_555
N1A Co1 1_555 1_555
N2A C2A 1_555 1_555
N3A Co1A 1_555 1_555
C1A S1A 1_555 1_555
C2A S2A 1_555 1_555
C3A N3A 1_555 1_555
C4A O1A 1_555 1_555
H1A C4A 1_555 1_555
H2A C4A 1_555 1_555
C5A C4A 1_555 1_555
H3A C5A 1_555 1_555
H4A C5A 1_555 1_555
C6A C5A 1_555 1_555
H5A C6A 1_555 1_555
H6A C6A 1_555 1_555
C7A O1A 1_555 1_555
H7A C7A 1_555 1_555
H8A C7A 1_555 1_555
C8A O2A 1_555 1_555
H9A C8A 1_555 1_555
H10A C8A 1_555 1_555
C9A C8A 1_555 1_555
H11A C9A 1_555 1_555
H12A C9A 1_555 1_555
C10A C9A 1_555 1_555
H13A C10A 1_555 1_555
H14A C10A 1_555 1_555
C11A O2A 1_555 1_555
H15A C11A 1_555 1_555
H16A C11A 1_555 1_555
O3A Co2 1_555 1_555
C12A O3A 1_555 1_555
H17A C12A 1_555 1_555
H18A C12A 1_555 1_555
C13A C12A 1_555 1_555
H19A C13A 1_555 1_555
H20A C13A 1_555 1_555
C14A C13A 1_555 1_555
H21A C14A 1_555 1_555
H22A C14A 1_555 1_555
C15A O3A 1_555 1_555
H23A C15A 1_555 1_555
H24A C15A 1_555 1_555
Co2_2 S3A 1_555 1_555
S3A_2 Co2 1_555 1_555
N2A_2 Co2 1_555 1_555
N2 C2 1_555 1_555
C6 C7 1_555 1_555
C10 C11 1_555 1_555
C14 C15 1_555 1_555
N1A C1A 1_555 1_555
N2A Co2_2 1_555 1_555
C6A C7A 1_555 1_555
C10A C11A 1_555 1_555
C14A C15A 1_555 1_555

#END
