
#######################################################################
#
#                 Cambridge Crystallographic Data Centre
#                                CCDC 
#
#######################################################################
#
# If this CIF has been generated from an entry in the Cambridge 
# Structural Database, then it will include bibliographic, chemical, 
# crystal, experimental, refinement or atomic coordinate data resulting 
# from the CCDC's data processing and validation procedures.
#
#######################################################################

data_QIKXEN
_symmetry_cell_setting           orthorhombic
_symmetry_space_group_name_H-M   'P 21 21 21'
_symmetry_Int_Tables_number      19
_space_group_name_Hall           'P 2ac 2ab'
loop_
_symmetry_equiv_pos_site_id
_symmetry_equiv_pos_as_xyz
1 x,y,z
2 1/2-x,-y,1/2+z
3 -x,1/2+y,1/2-z
4 1/2+x,1/2-y,-z
_cell_length_a                   8.3600(10)
_cell_length_b                   10.981(2)
_cell_length_c                   14.717(3)
_cell_angle_alpha                90
_cell_angle_beta                 90
_cell_angle_gamma                90
_cell_volume                     1351.04
loop_
_atom_site_label
_atom_site_type_symbol
_atom_site_fract_x
_atom_site_fract_y
_atom_site_fract_z
Zn1 Zn 0.19233(8) 0.87169(7) 0.82535(5)
S1 S 0.0292(2) 0.99912(15) 0.74355(16)
S2 S 0.0943(3) 0.7479(2) 0.94161(12)
C1 C -0.1412(7) 0.9167(6) 0.7234(5)
C2 C 0.1097(8) 0.8302(7) 1.0407(5)
C3 C 0.4421(7) 1.0529(5) 0.8592(4)
C4 C 0.6590(6) 1.2671(5) 0.8275(4)
C5 C 0.6737(7) 1.1809(6) 0.9064(4)
C6 C 0.5790(7) 1.0854(6) 0.9188(4)
H1 H 0.5998 1.0352 0.9684
C7 C 0.8113(11) 1.2108(9) 0.9681(6)
H2 H 0.7953 1.2900 0.9942
H3 H 0.9090 1.2103 0.9339
H4 H 0.8175 1.1512 1.0157
N1 N -0.2756(6) 0.9740(5) 0.7090(5)
H5 H -0.272(7) 1.052(2) 0.718(6)
H6 H -0.359(5) 0.927(5) 0.708(5)
N2 N -0.1385(8) 0.7957(6) 0.7174(6)
H7 H -0.046(5) 0.760(7) 0.733(8)
H8 H -0.226(5) 0.750(6) 0.712(5)
N3 N 0.0440(10) 0.7865(8) 1.1130(4)
H9 H -0.014(6) 0.718(4) 1.114(4)
H10 H 0.059(8) 0.827(5) 1.165(3)
N4 N 0.1947(12) 0.9288(8) 1.0479(5)
H11 H 0.270(6) 0.952(7) 1.009(4)
H12 H 0.177(11) 0.971(8) 1.098(4)
O1 O 0.3714(5) 0.9548(4) 0.8830(3)
O2 O 0.4009(5) 1.1175(4) 0.7947(3)
O3 O 0.7405(5) 1.2389(4) 0.7576(3)
O4 O 0.5814(5) 1.3623(4) 0.8365(3)
O3B O 0.2595(5) 0.7389(4) 0.7424(3)
Zn1B Zn 0.80767(8) 1.37169(7) 0.67465(5)
loop_
_geom_bond_atom_site_label_1
_geom_bond_atom_site_label_2
_geom_bond_site_symmetry_1
_geom_bond_site_symmetry_2
Zn1 S1 1_555 1_555
S1 C1 1_555 1_555
S2 Zn1 1_555 1_555
C1 N1 1_555 1_555
C2 S2 1_555 1_555
C3 C6 1_555 1_555
C4 C5 1_555 1_555
C5 C6 1_555 1_555
C6 H1 1_555 1_555
C7 C5 1_555 1_555
H2 C7 1_555 1_555
H3 C7 1_555 1_555
H4 C7 1_555 1_555
N1 H5 1_555 1_555
H6 N1 1_555 1_555
N2 C1 1_555 1_555
H7 N2 1_555 1_555
H8 N2 1_555 1_555
N3 C2 1_555 1_555
H9 N3 1_555 1_555
H10 N3 1_555 1_555
N4 C2 1_555 1_555
H11 N4 1_555 1_555
H12 N4 1_555 1_555
O1 Zn1 1_555 1_555
O2 C3 1_555 1_555
O3 C4 1_555 1_555
O4 C4 1_555 1_555
O3B Zn1 1_555 1_555
Zn1B O3 1_555 1_555
C3 O1 1_555 1_555

#END
