
#######################################################################
#
#                 Cambridge Crystallographic Data Centre
#                                CCDC 
#
#######################################################################
#
# If this CIF has been generated from an entry in the Cambridge 
# Structural Database, then it will include bibliographic, chemical, 
# crystal, experimental, refinement or atomic coordinate data resulting 
# from the CCDC's data processing and validation procedures.
#
#######################################################################

data_QILJEC
_symmetry_cell_setting           monoclinic
_symmetry_space_group_name_H-M   'P 21/n'
_symmetry_Int_Tables_number      14
_space_group_name_Hall           '-P 2yn'
loop_
_symmetry_equiv_pos_site_id
_symmetry_equiv_pos_as_xyz
1 x,y,z
2 1/2-x,1/2+y,1/2-z
3 -x,-y,-z
4 1/2+x,1/2-y,1/2+z
_cell_length_a                   9.1584(17)
_cell_length_b                   14.075(3)
_cell_length_c                   13.856(3)
_cell_angle_alpha                90
_cell_angle_beta                 90.106(3)
_cell_angle_gamma                90
_cell_volume                     1786.1
loop_
_atom_site_label
_atom_site_type_symbol
_atom_site_fract_x
_atom_site_fract_y
_atom_site_fract_z
In1 In 0.12136(4) 0.57110(3) 0.43640(3)
In2 In 0.11428(4) 0.39665(3) 1.01934(3)
O1 O 0.0623(4) 0.5253(3) 0.5809(2)
O2 O 0.0754(3) 0.5316(2) 0.9254(2)
N1 N 0.0635(5) 0.2789(3) 1.1488(3)
C1 C 0.0184(8) 0.7054(5) 0.4259(6)
H1 H 0.0580 0.7480 0.4755
H2 H -0.0870 0.6980 0.4356
H3 H 0.0365 0.7325 0.3619
C2 C 0.3108(7) 0.4920(5) 0.3979(5)
H4 H 0.3153 0.4856 0.3276
H5 H 0.3060 0.4288 0.4275
H6 H 0.3981 0.5253 0.4211
C3 C 0.0431(7) 0.3018(4) 0.9068(4)
H7 H 0.1234 0.2910 0.8616
H8 H -0.0397 0.3302 0.8724
H9 H 0.0130 0.2412 0.9353
C4 C 0.3053(6) 0.4553(4) 1.0846(4)
H10 H 0.3067 0.5242 1.0746
H11 H 0.3923 0.4269 1.0553
H12 H 0.3047 0.4417 1.1540
C5 C 0.1383(5) 0.5416(3) 0.6650(3)
C6 C 0.0693(5) 0.5259(3) 0.7530(3)
H13 H -0.0282 0.5029 0.7544
C7 C 0.1435(5) 0.5439(3) 0.8395(3)
C8 C 0.2872(5) 0.5754(4) 0.8361(4)
H14 H 0.3395 0.5870 0.8941
C9 C 0.3536(6) 0.5897(4) 0.7479(4)
H15 H 0.4518 0.6115 0.7462
C10 C 0.2808(5) 0.5731(3) 0.6622(3)
H16 H 0.3282 0.5832 0.6022
C11 C -0.0627(6) 0.2311(4) 1.1471(5)
H17 H -0.1250 0.2380 1.0927
C12 C -0.1062(7) 0.1719(4) 1.2216(5)
H18 H -0.1960 0.1383 1.2176
C13 C -0.0192(8) 0.1624(5) 1.3002(5)
H19 H -0.0476 0.1223 1.3520
C14 C 0.1099(8) 0.2112(5) 1.3044(5)
H20 H 0.1723 0.2061 1.3590
C15 C 0.1467(7) 0.2677(4) 1.2274(4)
H21 H 0.2369 0.3010 1.2302
In1B In -0.12136(4) 0.42890(3) 0.56360(3)
In2B In -0.11428(4) 0.60335(3) 0.98066(3)
O1B O -0.0623(4) 0.4747(3) 0.4191(2)
O2B O -0.0754(3) 0.4684(2) 1.0746(2)
loop_
_geom_bond_atom_site_label_1
_geom_bond_atom_site_label_2
_geom_bond_site_symmetry_1
_geom_bond_site_symmetry_2
In1 O1 1_555 1_555
In2 O2 1_555 1_555
O1 C5 1_555 1_555
O2 C7 1_555 1_555
N1 In2 1_555 1_555
C1 In1 1_555 1_555
H1 C1 1_555 1_555
H2 C1 1_555 1_555
H3 C1 1_555 1_555
C2 In1 1_555 1_555
H4 C2 1_555 1_555
H5 C2 1_555 1_555
H6 C2 1_555 1_555
C3 In2 1_555 1_555
H7 C3 1_555 1_555
H8 C3 1_555 1_555
H9 C3 1_555 1_555
C4 In2 1_555 1_555
H10 C4 1_555 1_555
H11 C4 1_555 1_555
H12 C4 1_555 1_555
C5 C6 1_555 1_555
C6 H13 1_555 1_555
C7 C6 1_555 1_555
C8 C7 1_555 1_555
H14 C8 1_555 1_555
C9 C8 1_555 1_555
H15 C9 1_555 1_555
C10 C5 1_555 1_555
H16 C10 1_555 1_555
C11 N1 1_555 1_555
H17 C11 1_555 1_555
C12 C11 1_555 1_555
H18 C12 1_555 1_555
C13 C12 1_555 1_555
H19 C13 1_555 1_555
C14 C13 1_555 1_555
H20 C14 1_555 1_555
C15 N1 1_555 1_555
H21 C15 1_555 1_555
In1B O1 1_555 1_555
In2B O2 1_555 1_555
O1B In1 1_555 1_555
O2B In2 1_555 1_555
C9 C10 1_555 1_555
C14 C15 1_555 1_555
In1B O1B 1_555 1_555
In2B O2B 1_555 1_555

#END
