
#######################################################################
#
#                 Cambridge Crystallographic Data Centre
#                                CCDC 
#
#######################################################################
#
# If this CIF has been generated from an entry in the Cambridge 
# Structural Database, then it will include bibliographic, chemical, 
# crystal, experimental, refinement or atomic coordinate data resulting 
# from the CCDC's data processing and validation procedures.
#
#######################################################################

data_QILRIO
_symmetry_cell_setting           monoclinic
_symmetry_space_group_name_H-M   'P 21'
_symmetry_Int_Tables_number      4
_space_group_name_Hall           'P 2yb'
loop_
_symmetry_equiv_pos_site_id
_symmetry_equiv_pos_as_xyz
1 x,y,z
2 -x,1/2+y,-z
_cell_length_a                   6.2086(5)
_cell_length_b                   17.8205(13)
_cell_length_c                   6.7436(5)
_cell_angle_alpha                90
_cell_angle_beta                 102.9200(10)
_cell_angle_gamma                90
_cell_volume                     727.225
loop_
_atom_site_label
_atom_site_type_symbol
_atom_site_fract_x
_atom_site_fract_y
_atom_site_fract_z
Cu1 Cu 0.64158(6) 0.24011(2) 0.85574(6)
Cu2 Cu 0.63969(6) 0.24073(2) 0.35504(6)
S1 S 0.76263(13) 0.42465(6) 0.43757(13)
O1 O 0.8625(4) 0.34988(15) 0.4345(4)
O2 O 0.8906(4) 0.46757(15) 0.6136(4)
O3 O 0.5337(4) 0.41741(15) 0.4637(4)
O4 O 0.7678(4) 0.46407(15) 0.2465(4)
O5 O 0.5051(3) 0.26595(14) 0.5788(3)
H1 H 0.5080 0.3133 0.5639
O6 O 0.7615(4) 0.20791(15) 1.1310(3)
H2 H 0.7751 0.1606 1.1244
N1 N 0.8835(4) 0.18685(17) 0.7562(4)
N2 N 0.8778(4) 0.18745(17) 0.5507(4)
N3 N 1.1862(4) 0.13866(17) 0.7053(4)
N4 N 1.4098(4) 0.11359(17) 0.7485(5)
H3 H 1.4051 0.0660 0.7918
H4 H 1.4570 0.1170 0.6320
N5 N 0.3961(4) 0.29031(17) 0.9539(4)
N6 N 0.3851(4) 0.28309(18) 1.1538(4)
N7 N 0.0846(4) 0.33708(17) 0.9903(4)
N8 N -0.1382(4) 0.36114(18) 0.9395(5)
H5 H -0.1453 0.3962 0.8421
H6 H -0.1597 0.3802 1.0571
C1 C 1.0628(5) 0.1586(2) 0.5248(5)
H7 H 1.1031 0.1528 0.3978
C2 C 1.0720(5) 0.15655(19) 0.8461(5)
H8 H 1.1205 0.1485 0.9883
C3 C 0.1943(5) 0.3108(2) 1.1730(5)
H9 H 0.1423 0.3121 1.2951
C4 C 0.2114(6) 0.3236(2) 0.8576(5)
H10 H 0.1748 0.3360 0.7170
Cu1_2 Cu -0.35842(6) 0.24011(2) 0.85574(6)
Cu1_3 Cu 1.64158(6) 0.24011(2) 0.85574(6)
Cu2_2 Cu 0.63969(6) 0.24073(2) 1.35504(6)
O6_2 O 0.7615(4) 0.20791(15) 0.1310(3)
N4_2 N 0.4098(4) 0.11359(17) 0.7485(5)
N6_2 N 0.3851(4) 0.28309(18) 0.1538(4)
N8_2 N 0.8618(4) 0.36114(18) 0.9395(5)
O7 O 0.7918(4) 1.00494(17) 0.7725(4)
H11 H 0.7028 0.9717 0.7117
H12 H 0.9127 0.9965 0.7370
O8 O 0.7631(4) 0.04935(15) 0.1520(4)
H13 H 0.7715 0.0326 0.0359
H14 H 0.8638 0.0264 0.2364
O9 O 0.3731(4) 0.08631(16) 0.2776(4)
H15 H 0.3176 0.0451 0.3053
H16 H 0.4917 0.0743 0.2425
loop_
_geom_bond_atom_site_label_1
_geom_bond_atom_site_label_2
_geom_bond_site_symmetry_1
_geom_bond_site_symmetry_2
Cu1 O5 1_555 1_555
Cu2 O1 1_555 1_555
S1 O1 1_555 1_555
O2 S1 1_555 1_555
O3 S1 1_555 1_555
O4 S1 1_555 1_555
O5 Cu2 1_555 1_555
H1 O5 1_555 1_555
O6 Cu1 1_555 1_555
H2 O6 1_555 1_555
N1 Cu1 1_555 1_555
N2 Cu2 1_555 1_555
N3 N4 1_555 1_555
N4 H3 1_555 1_555
H4 N4 1_555 1_555
N5 Cu1 1_555 1_555
N6 N5 1_555 1_555
N7 N8 1_555 1_555
N8 H5 1_555 1_555
H6 N8 1_555 1_555
C1 N2 1_555 1_555
H7 C1 1_555 1_555
C2 N1 1_555 1_555
H8 C2 1_555 1_555
C3 N6 1_555 1_555
H9 C3 1_555 1_555
C4 N5 1_555 1_555
H10 C4 1_555 1_555
O7 H11 1_555 1_555
H12 O7 1_555 1_555
O8 H13 1_555 1_555
H14 O8 1_555 1_555
O9 H15 1_555 1_555
H16 O9 1_555 1_555
Cu1_2 N8 1_555 1_555
Cu1_3 N4 1_555 1_555
Cu2_2 O6 1_555 1_555
O6_2 Cu2 1_555 1_555
N4_2 Cu1 1_555 1_555
N6_2 Cu2 1_555 1_555
N8_2 Cu1 1_555 1_555
N1 N2 1_555 1_555
N3 C1 1_555 1_555
N3 C2 1_555 1_555
N6 Cu2_2 1_555 1_555
N7 C3 1_555 1_555
N7 C4 1_555 1_555

#END
