
#######################################################################
#
#                 Cambridge Crystallographic Data Centre
#                                CCDC 
#
#######################################################################
#
# If this CIF has been generated from an entry in the Cambridge 
# Structural Database, then it will include bibliographic, chemical, 
# crystal, experimental, refinement or atomic coordinate data resulting 
# from the CCDC's data processing and validation procedures.
#
#######################################################################

data_QILRAG
_symmetry_cell_setting           triclinic
_symmetry_space_group_name_H-M   'P -1'
_symmetry_Int_Tables_number      2
_space_group_name_Hall           '-P 1'
loop_
_symmetry_equiv_pos_site_id
_symmetry_equiv_pos_as_xyz
1 x,y,z
2 -x,-y,-z
_cell_length_a                   8.380(3)
_cell_length_b                   11.188(4)
_cell_length_c                   14.137(5)
_cell_angle_alpha                110.125(6)
_cell_angle_beta                 96.370(6)
_cell_angle_gamma                92.405(6)
_cell_volume                     1232.24
loop_
_atom_site_label
_atom_site_type_symbol
_atom_site_fract_x
_atom_site_fract_y
_atom_site_fract_z
Cu1 Cu 0.0000 0.5000 0.5000
Cu2 Cu 0.03109(9) 0.11377(7) 0.13067(6)
Cu3 Cu 0.42516(9) 0.20915(7) 0.22943(6)
Cu4 Cu 0.23624(9) -0.04505(7) 0.26273(6)
S1 S 0.12504(19) 0.24201(15) 0.37786(13)
S2 S -0.30827(19) 0.18943(16) 0.05243(13)
S3 S 0.2757(2) -0.28643(16) 0.31588(14)
O1 O 0.1418(6) 0.1149(4) 0.3835(3)
O2 O 0.2796(5) 0.3031(4) 0.3719(3)
O3 O 0.0077(5) 0.2328(4) 0.2883(3)
O4 O 0.0558(5) 0.3216(4) 0.4704(3)
O5 O -0.1588(5) 0.1182(4) 0.0382(3)
O6 O -0.2650(6) 0.3238(4) 0.1159(4)
O7 O -0.3796(6) 0.1741(6) -0.0509(4)
O8 O -0.4158(5) 0.1294(4) 0.1012(4)
O9 O 0.2190(5) -0.1538(4) 0.3444(4)
O10 O 0.1323(5) -0.3786(4) 0.2844(4)
O11 O 0.3761(6) -0.2925(5) 0.4055(4)
O12 O 0.3676(6) -0.3043(4) 0.2313(4)
O13 O 0.2487(5) 0.0639(4) 0.1762(3)
H1 H 0.2825 0.0067 0.1133
O14 O -0.0451(5) 0.4817(4) 0.3558(3)
H2 H 0.0009 0.5324 0.3322
H3 H -0.0382 0.4072 0.3133
O15 O 0.5850(5) 0.3617(4) 0.2891(3)
H4 H 0.6222 0.3988 0.3514
H5 H 0.6662 0.3569 0.2572
N1 N 0.4654(6) 0.0099(5) 0.3194(4)
N2 N 0.5409(6) 0.1146(5) 0.3073(4)
N3 N 0.7128(6) 0.0385(5) 0.3940(4)
N4 N 0.8524(6) 0.0175(6) 0.4494(4)
H6 H 0.9396 0.0532 0.4341
H7 H 0.8350 0.0560 0.5142
N5 N 0.0163(6) -0.1128(5) 0.1916(4)
N6 N -0.0723(6) -0.0431(5) 0.1441(4)
N7 N -0.2298(6) -0.2000(5) 0.1479(4)
N8 N -0.3620(6) -0.2920(5) 0.1302(4)
H8 H -0.4514 -0.2647 0.1056
H9 H -0.3719 -0.3059 0.1884
N9 N 0.1429(6) 0.2646(5) 0.1106(4)
N10 N 0.3029(6) 0.2990(5) 0.1502(4)
N11 N 0.2189(6) 0.4295(5) 0.0749(4)
N12 N 0.2096(6) 0.5280(6) 0.0344(5)
H10 H 0.2572 0.5082 -0.0225
H11 H 0.2606 0.5962 0.0854
C1 C 0.6866(8) 0.1299(6) 0.3534(5)
H12 H 0.7629 0.1950 0.3578
C2 C 0.5706(8) -0.0347(6) 0.3714(5)
H13 H 0.5511 -0.1054 0.3901
C3 C -0.2215(8) -0.0969(6) 0.1192(5)
H14 H -0.3069 -0.0683 0.0872
C4 C -0.0820(7) -0.2060(6) 0.1936(5)
H15 H -0.0539 -0.2669 0.2223
C5 C 0.3468(8) 0.3988(6) 0.1276(5)
H16 H 0.4492 0.4418 0.1449
C6 C 0.0939(7) 0.3447(6) 0.0671(5)
H17 H -0.0100 0.3435 0.0358
O16 O -0.2950(5) 0.4449(4) 0.4896(3)
H18 H -0.3143 0.3972 0.5234
H19 H -0.3417 0.5121 0.5162
Cu2A Cu -0.03109(9) 0.88623(7) 0.86933(6)
Cu3A Cu -0.42516(9) 0.79085(7) 0.77057(6)
Cu4A Cu -0.23624(9) 1.04505(7) 0.73727(6)
S1A S -0.12504(19) 0.75799(15) 0.62214(13)
S2A S 0.30827(19) 0.81057(16) 0.94757(13)
S3A S -0.2757(2) 1.28643(16) 0.68412(14)
O1A O -0.1418(6) 0.8851(4) 0.6165(3)
O2A O -0.2796(5) 0.6969(4) 0.6281(3)
O3A O -0.0077(5) 0.7672(4) 0.7117(3)
O4A O -0.0558(5) 0.6784(4) 0.5296(3)
O5A O 0.1588(5) 0.8818(4) 0.9618(3)
O6A O 0.2650(6) 0.6762(4) 0.8841(4)
O7A O 0.3796(6) 0.8259(6) 1.0509(4)
O8A O 0.4158(5) 0.8706(4) 0.8988(4)
O9A O -0.2190(5) 1.1538(4) 0.6556(4)
O10A O -0.1323(5) 1.3786(4) 0.7156(4)
O11A O -0.3761(6) 1.2925(5) 0.5945(4)
O12A O -0.3676(6) 1.3043(4) 0.7687(4)
O13A O -0.2487(5) 0.9361(4) 0.8238(3)
H1A H -0.2825 0.9933 0.8867
O14A O 0.0451(5) 0.5183(4) 0.6442(3)
H2A H -0.0009 0.4676 0.6678
H3A H 0.0382 0.5928 0.6867
O15A O -0.5850(5) 0.6383(4) 0.7109(3)
H4A H -0.6222 0.6012 0.6486
H5A H -0.6662 0.6431 0.7428
N1A N -0.4654(6) 0.9901(5) 0.6806(4)
N2A N -0.5409(6) 0.8854(5) 0.6927(4)
N3A N -0.7128(6) 0.9615(5) 0.6060(4)
N4A N -0.8524(6) 0.9825(6) 0.5506(4)
H6A H -0.9396 0.9468 0.5659
H7A H -0.8350 0.9440 0.4858
N5A N -0.0163(6) 1.1128(5) 0.8084(4)
N6A N 0.0723(6) 1.0431(5) 0.8559(4)
N7A N 0.2298(6) 1.2000(5) 0.8521(4)
N8A N 0.3620(6) 1.2920(5) 0.8698(4)
H8A H 0.4514 1.2647 0.8944
H9A H 0.3719 1.3059 0.8116
N9A N -0.1429(6) 0.7354(5) 0.8894(4)
N10A N -0.3029(6) 0.7010(5) 0.8498(4)
N11A N -0.2189(6) 0.5705(5) 0.9251(4)
N12A N -0.2096(6) 0.4720(6) 0.9656(5)
H10A H -0.2572 0.4918 1.0225
H11A H -0.2606 0.4038 0.9146
C1A C -0.6866(8) 0.8701(6) 0.6466(5)
H12A H -0.7629 0.8050 0.6422
C2A C -0.5706(8) 1.0347(6) 0.6286(5)
H13A H -0.5511 1.1054 0.6099
C3A C 0.2215(8) 1.0969(6) 0.8808(5)
H14A H 0.3069 1.0683 0.9128
C4A C 0.0820(7) 1.2060(6) 0.8064(5)
H15A H 0.0539 1.2669 0.7777
C5A C -0.3468(8) 0.6012(6) 0.8724(5)
H16A H -0.4492 0.5582 0.8551
C6A C -0.0939(7) 0.6553(6) 0.9329(5)
H17A H 0.0100 0.6565 0.9642
O16A O 0.2950(5) 0.5551(4) 0.5104(3)
H18A H 0.3143 0.6028 0.4766
H19A H 0.3417 0.4879 0.4838
Cu3_2 Cu -0.57484(9) 0.20915(7) 0.22943(6)
Cu3A_2 Cu 0.57484(9) 0.79085(7) 0.77057(6)
O8_2 O 0.5842(5) 0.1294(4) 0.1012(4)
O8A_2 O -0.5842(5) 0.8706(4) 0.8988(4)
O17 O 0.7081(8) 0.6884(7) 0.3384(5)
H20 H 0.7791 0.6707 0.3782
H21 H 0.6191 0.6787 0.3596
loop_
_geom_bond_atom_site_label_1
_geom_bond_atom_site_label_2
_geom_bond_site_symmetry_1
_geom_bond_site_symmetry_2
Cu1 O4 1_555 1_555
Cu2 O3 1_555 1_555
Cu3 O2 1_555 1_555
Cu4 O1 1_555 1_555
S1 O1 1_555 1_555
S2 O5 1_555 1_555
S3 O9 1_555 1_555
O2 S1 1_555 1_555
O3 S1 1_555 1_555
O4 S1 1_555 1_555
O5 Cu2 1_555 1_555
O6 S2 1_555 1_555
O7 S2 1_555 1_555
O8 S2 1_555 1_555
O9 Cu4 1_555 1_555
O10 S3 1_555 1_555
O11 S3 1_555 1_555
O12 S3 1_555 1_555
O13 Cu2 1_555 1_555
H1 O13 1_555 1_555
O14 Cu1 1_555 1_555
H2 O14 1_555 1_555
H3 O14 1_555 1_555
O15 Cu3 1_555 1_555
H4 O15 1_555 1_555
H5 O15 1_555 1_555
N1 Cu4 1_555 1_555
N2 Cu3 1_555 1_555
N3 N4 1_555 1_555
N4 H6 1_555 1_555
H7 N4 1_555 1_555
N5 Cu4 1_555 1_555
N6 Cu2 1_555 1_555
N7 N8 1_555 1_555
N8 H8 1_555 1_555
H9 N8 1_555 1_555
N9 Cu2 1_555 1_555
N10 Cu3 1_555 1_555
N11 N12 1_555 1_555
N12 H10 1_555 1_555
H11 N12 1_555 1_555
C1 N2 1_555 1_555
H12 C1 1_555 1_555
C2 N1 1_555 1_555
H13 C2 1_555 1_555
C3 N6 1_555 1_555
H14 C3 1_555 1_555
C4 N5 1_555 1_555
H15 C4 1_555 1_555
C5 N10 1_555 1_555
H16 C5 1_555 1_555
C6 N9 1_555 1_555
H17 C6 1_555 1_555
O16 Cu1 1_555 1_555
H18 O16 1_555 1_555
H19 O16 1_555 1_555
O17 H20 1_555 1_555
H21 O17 1_555 1_555
Cu2A O3A 1_555 1_555
Cu3A O2A 1_555 1_555
Cu4A O1A 1_555 1_555
S1A O1A 1_555 1_555
S2A O5A 1_555 1_555
S3A O9A 1_555 1_555
O2A S1A 1_555 1_555
O3A S1A 1_555 1_555
O4A Cu1 1_555 1_555
O5A Cu2A 1_555 1_555
O6A S2A 1_555 1_555
O7A S2A 1_555 1_555
O8A S2A 1_555 1_555
O9A Cu4A 1_555 1_555
O10A S3A 1_555 1_555
O11A S3A 1_555 1_555
O12A S3A 1_555 1_555
O13A Cu2A 1_555 1_555
H1A O13A 1_555 1_555
O14A Cu1 1_555 1_555
H2A O14A 1_555 1_555
H3A O14A 1_555 1_555
O15A Cu3A 1_555 1_555
H4A O15A 1_555 1_555
H5A O15A 1_555 1_555
N1A Cu4A 1_555 1_555
N2A Cu3A 1_555 1_555
N3A N4A 1_555 1_555
N4A H6A 1_555 1_555
H7A N4A 1_555 1_555
N5A Cu4A 1_555 1_555
N6A Cu2A 1_555 1_555
N7A N8A 1_555 1_555
N8A H8A 1_555 1_555
H9A N8A 1_555 1_555
N9A Cu2A 1_555 1_555
N10A Cu3A 1_555 1_555
N11A N12A 1_555 1_555
N12A H10A 1_555 1_555
H11A N12A 1_555 1_555
C1A N2A 1_555 1_555
H12A C1A 1_555 1_555
C2A N1A 1_555 1_555
H13A C2A 1_555 1_555
C3A N6A 1_555 1_555
H14A C3A 1_555 1_555
C4A N5A 1_555 1_555
H15A C4A 1_555 1_555
C5A N10A 1_555 1_555
H16A C5A 1_555 1_555
C6A N9A 1_555 1_555
H17A C6A 1_555 1_555
O16A Cu1 1_555 1_555
H18A O16A 1_555 1_555
H19A O16A 1_555 1_555
Cu3_2 O8 1_555 1_555
Cu3A_2 O8A 1_555 1_555
O8_2 Cu3 1_555 1_555
O8A_2 Cu3A 1_555 1_555
Cu3 O13 1_555 1_555
Cu4 O13 1_555 1_555
N1 N2 1_555 1_555
N3 C1 1_555 1_555
N3 C2 1_555 1_555
N5 N6 1_555 1_555
N7 C3 1_555 1_555
N7 C4 1_555 1_555
N9 N10 1_555 1_555
N11 C5 1_555 1_555
N11 C6 1_555 1_555
Cu3A O13A 1_555 1_555
Cu4A O13A 1_555 1_555
S1A O4A 1_555 1_555
N1A N2A 1_555 1_555
N3A C1A 1_555 1_555
N3A C2A 1_555 1_555
N5A N6A 1_555 1_555
N7A C3A 1_555 1_555
N7A C4A 1_555 1_555
N9A N10A 1_555 1_555
N11A C5A 1_555 1_555
N11A C6A 1_555 1_555

#END
