
#######################################################################
#
#                 Cambridge Crystallographic Data Centre
#                                CCDC 
#
#######################################################################
#
# If this CIF has been generated from an entry in the Cambridge 
# Structural Database, then it will include bibliographic, chemical, 
# crystal, experimental, refinement or atomic coordinate data resulting 
# from the CCDC's data processing and validation procedures.
#
#######################################################################

data_QILROU
_symmetry_cell_setting           monoclinic
_symmetry_space_group_name_H-M   'P 21/c'
_symmetry_Int_Tables_number      14
_space_group_name_Hall           '-P 2ybc'
loop_
_symmetry_equiv_pos_site_id
_symmetry_equiv_pos_as_xyz
1 x,y,z
2 -x,1/2+y,1/2-z
3 -x,-y,-z
4 x,1/2-y,1/2+z
_cell_length_a                   10.7689(5)
_cell_length_b                   16.2241(7)
_cell_length_c                   26.4529(11)
_cell_angle_alpha                90
_cell_angle_beta                 98.2040(10)
_cell_angle_gamma                90
_cell_volume                     4574.44
loop_
_atom_site_label
_atom_site_type_symbol
_atom_site_fract_x
_atom_site_fract_y
_atom_site_fract_z
Cu1 Cu 0.18143(4) 0.38014(3) 0.181192(17)
Cu2 Cu 0.30719(4) 0.28222(3) 0.296208(17)
Cu3 Cu 0.07770(4) 0.18377(3) 0.349951(17)
Cu4 Cu 0.16073(5) 0.37421(3) 0.386592(18)
Cu5 Cu 0.41503(4) 0.48870(3) 0.140510(17)
Cu6 Cu 0.32058(5) 0.31158(3) 0.081196(18)
S1 S 0.22743(10) 0.46941(6) 0.47841(4)
S2 S 0.48880(9) 0.15751(6) 0.38036(4)
S3 S 0.48219(9) 0.31010(6) 0.20511(4)
S4 S 0.00310(9) 0.52169(6) 0.10596(4)
S5 S 0.00007(9) 0.34113(6) 0.26687(4)
O1 O 0.1409(2) 0.47264(16) 0.42855(9)
O2 O 0.2932(3) 0.3896(2) 0.47816(12)
O3 O 0.1527(3) 0.4727(2) 0.52001(11)
O4 O 0.3145(3) 0.5380(2) 0.48004(12)
H1 H -0.2877 0.2879 0.4660
H2 H -0.2154 0.2302 0.5036
O5 O 0.4887(3) 0.22591(16) 0.34370(10)
O6 O 0.3875(3) 0.16938(17) 0.41155(10)
O7 O 0.4632(2) 0.07918(15) 0.34986(10)
O8 O 0.6104(3) 0.14935(18) 0.41200(11)
O9 O 0.5080(3) 0.39822(16) 0.19714(11)
O10 O 0.3629(2) 0.30524(17) 0.22829(10)
O11 O 0.5842(3) 0.27475(19) 0.24022(11)
O12 O 0.4616(3) 0.26726(17) 0.15629(11)
O13 O 0.1072(3) 0.51970(18) 0.07553(10)
O14 O -0.0031(3) 0.44225(16) 0.13227(11)
O15 O -0.1160(3) 0.54090(19) 0.07436(11)
O16 O 0.0302(2) 0.58748(16) 0.14584(10)
O17 O 0.1237(2) 0.34376(16) 0.24658(10)
O18 O -0.0998(3) 0.36376(18) 0.22661(11)
O19 O 0.0090(3) 0.39744(18) 0.31023(11)
O20 O -0.0186(3) 0.25533(16) 0.28331(11)
O21 O 0.2139(2) 0.26939(15) 0.35792(9)
H3 H 0.2772 0.2473 0.3848
O22 O 0.2740(2) 0.40803(15) 0.12110(9)
H4 H 0.2126 0.4384 0.0972
O23 O 0.3874(3) 0.21061(18) 0.05210(12)
H5 H 0.3542 0.1871 0.0248
H6 H 0.4645 0.2009 0.0621
N1 N 0.0282(3) 0.3182(2) 0.41708(12)
N2 N -0.0082(3) 0.24042(19) 0.40027(12)
N3 N -0.1271(3) 0.2797(2) 0.45478(13)
N4 N -0.2185(4) 0.2806(3) 0.48837(17)
N5 N 0.2555(3) 0.16784(18) 0.27702(11)
N6 N 0.1744(3) 0.12528(19) 0.30355(12)
N7 N 0.2558(3) 0.03882(19) 0.25580(12)
N8 N 0.2894(3) -0.0337(2) 0.23154(13)
H7 H 0.2146 -0.0540 0.2176
H8 H 0.3259 -0.0636 0.2582
N9 N 0.3579(3) 0.39358(19) 0.32143(12)
N10 N 0.2957(3) 0.4313(2) 0.35715(12)
N11 N 0.4390(3) 0.51418(19) 0.33911(12)
N12 N 0.5183(4) 0.5831(2) 0.33715(14)
H9 H 0.5889 0.5714 0.3585
H10 H 0.4777 0.6275 0.3469
N13 N 0.3173(3) 0.53604(19) 0.19149(12)
N14 N 0.2306(3) 0.48772(19) 0.21151(11)
N15 N 0.2405(3) 0.60661(18) 0.24911(12)
N16 N 0.2151(3) 0.6692(2) 0.28363(13)
H11 H 0.2871 0.6975 0.2918
H12 H 0.1563 0.6980 0.2634
N17 N 0.1357(3) 0.27314(19) 0.14953(12)
N18 N 0.1841(3) 0.24674(19) 0.10666(12)
N19 N 0.0740(3) 0.1480(2) 0.13351(14)
N20 N 0.0203(4) 0.0705(2) 0.14264(16)
H13 H -0.0377 0.0695 0.1145
H14 H 0.0802 0.0319 0.1421
N21 N 0.4591(3) 0.37726(19) 0.05787(12)
N22 N 0.4994(3) 0.44815(19) 0.08387(12)
N23 N 0.6276(3) 0.4203(2) 0.03003(12)
N24 N 0.7376(4) 0.4176(2) 0.00622(15)
H15 H 0.7965 0.4536 0.0200
H16 H 0.7025 0.4320 -0.0255
C1 C -0.0452(4) 0.3405(3) 0.45013(15)
H17 H -0.0412 0.3904 0.4675
C2 C -0.1028(4) 0.2189(3) 0.42318(16)
H18 H -0.1464 0.1694 0.4184
C3 C 0.1762(4) 0.0475(2) 0.29029(14)
H19 H 0.1302 0.0054 0.3026
C4 C 0.3034(4) 0.1133(2) 0.24873(15)
H20 H 0.3618 0.1248 0.2270
C5 C 0.3468(4) 0.5032(2) 0.36742(16)
H21 H 0.3231 0.5409 0.3907
C6 C 0.4434(4) 0.4456(2) 0.31083(15)
H22 H 0.4987 0.4366 0.2874
C7 C 0.1867(4) 0.5319(2) 0.24643(14)
H23 H 0.1273 0.5142 0.2663
C8 C 0.3208(4) 0.6078(2) 0.21452(14)
H24 H 0.3707 0.6522 0.2080
C9 C 0.1448(4) 0.1710(3) 0.09755(16)
H25 H 0.1626 0.1383 0.0706
C10 C 0.0701(4) 0.2128(2) 0.16492(17)
H26 H 0.0275 0.2144 0.1931
C11 C 0.6006(4) 0.4730(2) 0.06636(15)
H27 H 0.6468 0.5198 0.0773
C12 C 0.5379(4) 0.3619(3) 0.02584(15)
H28 H 0.5328 0.3174 0.0035
O24 O 0.2129(8) 0.3324(5) -0.0032(2)
H29 H 0.2320 0.2877 -0.0246
H30 H 0.1242 0.3338 -0.0021
Cu3A Cu -0.07770(4) 0.68377(3) 0.150049(17)
Cu5A Cu 0.58497(4) -0.01130(3) 0.359490(17)
O7A O 0.5368(2) 0.57918(15) 0.15014(10)
O16A O -0.0302(2) 0.08748(16) 0.35416(10)
O26 O 0.6380(3) 0.1848(2) 0.08126(13)
H33 H 0.6825 0.2168 0.1019
H34 H 0.6738 0.1620 0.0583
O27 O 0.2574(3) 0.5072(2) 0.61805(13)
H35 H 0.2330 0.5012 0.5863
H36 H 0.2736 0.5559 0.6287
O28 O 0.7040(4) 0.3275(2) 0.34957(16)
H37 H 0.6850 0.3533 0.3753
H38 H 0.6581 0.2866 0.3390
O29 O 0.4567(4) 0.6341(3) 0.55399(19)
H39 H 0.5312 0.6473 0.5503
H40 H 0.4274 0.5900 0.5396
O30 O 0.7737(5) 0.3239(3) 0.12549(18)
H41 H 0.7982 0.3598 0.1481
H42 H 0.8269 0.2879 0.1194
O31 O 0.9454(18) 0.1796(13) 0.5523(8)
O25? O 0.1567(10) 0.3531(7) 0.0140(4)
H31? H 0.0817 0.3641 0.0286
H32? H 0.1408 0.3107 -0.0104
loop_
_geom_bond_atom_site_label_1
_geom_bond_atom_site_label_2
_geom_bond_site_symmetry_1
_geom_bond_site_symmetry_2
Cu1 O10 1_555 1_555
Cu2 O5 1_555 1_555
Cu3 O20 1_555 1_555
Cu4 O1 1_555 1_555
Cu5 O9 1_555 1_555
Cu6 O12 1_555 1_555
S1 O1 1_555 1_555
S2 O5 1_555 1_555
S3 O9 1_555 1_555
S4 O13 1_555 1_555
S5 O17 1_555 1_555
O2 Cu4 1_555 1_555
O3 S1 1_555 1_555
O4 S1 1_555 1_555
H1 N4 1_555 1_555
H2 N4 1_555 1_555
O6 S2 1_555 1_555
O7 S2 1_555 1_555
O8 S2 1_555 1_555
O10 Cu2 1_555 1_555
O11 S3 1_555 1_555
O12 S3 1_555 1_555
O14 Cu1 1_555 1_555
O15 S4 1_555 1_555
O16 S4 1_555 1_555
O17 Cu1 1_555 1_555
O18 S5 1_555 1_555
O19 Cu4 1_555 1_555
O20 S5 1_555 1_555
O21 Cu2 1_555 1_555
H3 O21 1_555 1_555
O22 Cu1 1_555 1_555
H4 O22 1_555 1_555
O23 Cu6 1_555 1_555
H5 O23 1_555 1_555
H6 O23 1_555 1_555
N1 Cu4 1_555 1_555
N2 Cu3 1_555 1_555
N3 N4 1_555 1_555
N5 Cu2 1_555 1_555
N6 Cu3 1_555 1_555
N7 N8 1_555 1_555
N8 H7 1_555 1_555
H8 N8 1_555 1_555
N9 Cu2 1_555 1_555
N10 Cu4 1_555 1_555
N11 N12 1_555 1_555
N12 H9 1_555 1_555
H10 N12 1_555 1_555
N13 Cu5 1_555 1_555
N14 Cu1 1_555 1_555
N15 N16 1_555 1_555
N16 H11 1_555 1_555
H12 N16 1_555 1_555
N17 Cu1 1_555 1_555
N18 Cu6 1_555 1_555
N19 N20 1_555 1_555
N20 H13 1_555 1_555
H14 N20 1_555 1_555
N21 Cu6 1_555 1_555
N22 Cu5 1_555 1_555
N23 N24 1_555 1_555
N24 H15 1_555 1_555
H16 N24 1_555 1_555
C1 N1 1_555 1_555
H17 C1 1_555 1_555
C2 N2 1_555 1_555
H18 C2 1_555 1_555
C3 N6 1_555 1_555
H19 C3 1_555 1_555
C4 N5 1_555 1_555
H20 C4 1_555 1_555
C5 N10 1_555 1_555
H21 C5 1_555 1_555
C6 N9 1_555 1_555
H22 C6 1_555 1_555
C7 N14 1_555 1_555
H23 C7 1_555 1_555
C8 N13 1_555 1_555
H24 C8 1_555 1_555
C9 N18 1_555 1_555
H25 C9 1_555 1_555
C10 N17 1_555 1_555
H26 C10 1_555 1_555
C11 N22 1_555 1_555
H27 C11 1_555 1_555
C12 N21 1_555 1_555
H28 C12 1_555 1_555
O24 Cu6 1_555 1_555
H29 O24 1_555 1_555
H30 O24 1_555 1_555
O26 H33 1_555 1_555
H34 O26 1_555 1_555
O27 H35 1_555 1_555
H36 O27 1_555 1_555
O28 H37 1_555 1_555
H38 O28 1_555 1_555
O29 H39 1_555 1_555
H40 O29 1_555 1_555
O30 H41 1_555 1_555
H42 O30 1_555 1_555
Cu3A O16 1_555 1_555
Cu5A O7 1_555 1_555
O7A Cu5 1_555 1_555
O16A Cu3 1_555 1_555
Cu2 O17 1_555 1_555
Cu3 O21 1_555 1_555
Cu4 O21 1_555 1_555
Cu5 O22 1_555 1_555
Cu6 O22 1_555 1_555
S1 O2 1_555 1_555
S3 O10 1_555 1_555
S4 O14 1_555 1_555
S5 O19 1_555 1_555
N1 N2 1_555 1_555
N3 C1 1_555 1_555
N3 C2 1_555 1_555
N5 N6 1_555 1_555
N7 C3 1_555 1_555
N7 C4 1_555 1_555
N9 N10 1_555 1_555
N11 C5 1_555 1_555
N11 C6 1_555 1_555
N13 N14 1_555 1_555
N15 C7 1_555 1_555
N15 C8 1_555 1_555
N17 N18 1_555 1_555
N19 C9 1_555 1_555
N19 C10 1_555 1_555
N21 N22 1_555 1_555
N23 C11 1_555 1_555
N23 C12 1_555 1_555

#END
