
#######################################################################
#
#                 Cambridge Crystallographic Data Centre
#                                CCDC 
#
#######################################################################
#
# If this CIF has been generated from an entry in the Cambridge 
# Structural Database, then it will include bibliographic, chemical, 
# crystal, experimental, refinement or atomic coordinate data resulting 
# from the CCDC's data processing and validation procedures.
#
#######################################################################

data_QIMNEH
_symmetry_cell_setting           monoclinic
_symmetry_space_group_name_H-M   'C 2/c'
_symmetry_Int_Tables_number      15
_space_group_name_Hall           '-C 2yn'
loop_
_symmetry_equiv_pos_site_id
_symmetry_equiv_pos_as_xyz
1 x,y,z
2 -x,y,1/2-z
3 1/2+x,1/2+y,z
4 1/2-x,1/2+y,1/2-z
5 -x,-y,-z
6 x,-y,1/2+z
7 1/2-x,1/2-y,-z
8 1/2+x,1/2-y,1/2+z
_cell_length_a                   11.1072(8)
_cell_length_b                   13.4631(9)
_cell_length_c                   15.5981(11)
_cell_angle_alpha                90
_cell_angle_beta                 109.5660(10)
_cell_angle_gamma                90
_cell_volume                     2197.81
loop_
_atom_site_label
_atom_site_type_symbol
_atom_site_fract_x
_atom_site_fract_y
_atom_site_fract_z
Cd1 Cd 0.2500 0.2500 0.5000
N1 N 0.04508(13) 0.20191(11) 0.49459(10)
N2 N -0.34108(14) -0.10585(11) 0.41896(10)
N3 N -0.22466(14) 0.15712(11) 0.13278(9)
B1 B -0.27568(18) 0.13816(14) 0.34846(12)
N4 N -0.15027(13) 0.16024(10) 0.42851(9)
N5 N -0.24099(13) 0.11921(10) 0.26190(9)
N6 N -0.26715(13) 0.18964(11) 0.19727(9)
N7 N -0.33534(13) 0.04448(11) 0.37462(9)
N8 N -0.04182(13) 0.18535(11) 0.41418(10)
N9 N -0.26542(14) -0.03799(11) 0.40389(10)
C1 C -0.13193(16) 0.16127(13) 0.51869(11)
H1 H -0.1933 0.1467 0.5471
C2 C -0.00732(16) 0.18759(13) 0.56061(11)
H2 H 0.0349 0.1946 0.6243
C3 C -0.17133(17) 0.06633(13) 0.15603(12)
H3 H -0.1335 0.0269 0.1214
C4 C -0.18161(17) 0.04162(13) 0.23826(12)
H4 H -0.1530 -0.0177 0.2718
C5 C -0.45968(18) -0.06698(15) 0.39952(15)
H5 H -0.5323 -0.1004 0.4045
C6 C -0.45650(17) 0.02856(15) 0.37154(14)
H6 H -0.5254 0.0744 0.3536
H7 H -0.3444(18) 0.1986(15) 0.3362(13)
N1A N -0.04508(13) 0.20191(11) 0.00541(10)
N2A N 0.34108(14) -0.10585(11) 0.08104(10)
N3A N 0.22466(14) 0.15712(11) 0.36722(9)
B1A B 0.27568(18) 0.13816(14) 0.15154(12)
N4A N 0.15027(13) 0.16024(10) 0.07149(9)
N5A N 0.24099(13) 0.11921(10) 0.23810(9)
N6A N 0.26715(13) 0.18964(11) 0.30273(9)
N7A N 0.33534(13) 0.04448(11) 0.12538(9)
N8A N 0.04182(13) 0.18535(11) 0.08582(10)
N9A N 0.26542(14) -0.03799(11) 0.09611(10)
C1A C 0.13193(16) 0.16127(13) -0.01869(11)
H1A H 0.1933 0.1467 -0.0471
C2A C 0.00732(16) 0.18759(13) -0.06061(11)
H2A H -0.0349 0.1946 -0.1243
C3A C 0.17133(17) 0.06633(13) 0.34397(12)
H3A H 0.1335 0.0269 0.3786
C4A C 0.18161(17) 0.04162(13) 0.26174(12)
H4A H 0.1530 -0.0177 0.2282
C5A C 0.45968(18) -0.06698(15) 0.10048(15)
H5A H 0.5323 -0.1004 0.0955
C6A C 0.45650(17) 0.02856(15) 0.12846(14)
H6A H 0.5254 0.0744 0.1464
H7A H 0.3444(18) 0.1986(15) 0.1638(13)
Cd1A Cd -0.2500 0.2500 0.0000
Cd1B Cd -0.2500 -0.2500 0.5000
Cd1C Cd 0.2500 -0.2500 0.0000
N1F N 0.45492(13) 0.29809(11) 0.50541(10)
N2B N 0.15892(14) 0.39415(11) 0.41896(10)
N2D N 0.34108(14) 0.10585(11) 0.58104(10)
N3G N 0.27534(14) 0.34288(11) 0.63278(9)
loop_
_geom_bond_atom_site_label_1
_geom_bond_atom_site_label_2
_geom_bond_site_symmetry_1
_geom_bond_site_symmetry_2
Cd1 N1 1_555 1_555
N1 N8 1_555 1_555
N2 N9 1_555 1_555
N3 N6 1_555 1_555
B1 N4 1_555 1_555
N4 N8 1_555 1_555
N5 B1 1_555 1_555
N6 N5 1_555 1_555
N7 B1 1_555 1_555
N9 N7 1_555 1_555
C1 N4 1_555 1_555
H1 C1 1_555 1_555
C2 N1 1_555 1_555
H2 C2 1_555 1_555
C3 N3 1_555 1_555
H3 C3 1_555 1_555
C4 N5 1_555 1_555
H4 C4 1_555 1_555
C5 N2 1_555 1_555
H5 C5 1_555 1_555
C6 N7 1_555 1_555
H6 C6 1_555 1_555
H7 B1 1_555 1_555
N1A N8A 1_555 1_555
N2A N9A 1_555 1_555
N3A Cd1 1_555 1_555
B1A N4A 1_555 1_555
N4A N8A 1_555 1_555
N5A B1A 1_555 1_555
N6A N3A 1_555 1_555
N7A B1A 1_555 1_555
N9A N7A 1_555 1_555
C1A N4A 1_555 1_555
H1A C1A 1_555 1_555
C2A N1A 1_555 1_555
H2A C2A 1_555 1_555
C3A N3A 1_555 1_555
H3A C3A 1_555 1_555
C4A N5A 1_555 1_555
H4A C4A 1_555 1_555
C5A N2A 1_555 1_555
H5A C5A 1_555 1_555
C6A N7A 1_555 1_555
H6A C6A 1_555 1_555
H7A B1A 1_555 1_555
Cd1A N3 1_555 1_555
Cd1B N2 1_555 1_555
Cd1C N2A 1_555 1_555
N1F Cd1 1_555 1_555
N2B Cd1 1_555 1_555
N2D Cd1 1_555 1_555
N3G Cd1 1_555 1_555
C1 C2 1_555 1_555
C3 C4 1_555 1_555
C5 C6 1_555 1_555
N1A Cd1A 1_555 1_555
N5A N6A 1_555 1_555
C1A C2A 1_555 1_555
C3A C4A 1_555 1_555
C5A C6A 1_555 1_555

#END
