
#######################################################################
#
#                 Cambridge Crystallographic Data Centre
#                                CCDC 
#
#######################################################################
#
# If this CIF has been generated from an entry in the Cambridge 
# Structural Database, then it will include bibliographic, chemical, 
# crystal, experimental, refinement or atomic coordinate data resulting 
# from the CCDC's data processing and validation procedures.
#
#######################################################################

data_QIMNUX
_symmetry_cell_setting           triclinic
_symmetry_space_group_name_H-M   'P -1'
_symmetry_Int_Tables_number      2
_space_group_name_Hall           '-P 1'
loop_
_symmetry_equiv_pos_site_id
_symmetry_equiv_pos_as_xyz
1 x,y,z
2 -x,-y,-z
_cell_length_a                   9.779(2)
_cell_length_b                   9.887(2)
_cell_length_c                   10.880(2)
_cell_angle_alpha                109.80(3)
_cell_angle_beta                 116.23(3)
_cell_angle_gamma                93.79(3)
_cell_volume                     858.31
loop_
_atom_site_label
_atom_site_type_symbol
_atom_site_fract_x
_atom_site_fract_y
_atom_site_fract_z
Zn1 Zn 0.55119(4) 0.79555(4) 0.57743(4)
Zn2 Zn 0.46504(4) 0.68791(4) 0.22600(4)
C1 C 0.7174(4) 0.6071(4) 0.4417(4)
C2 C 0.8604(4) 0.5455(4) 0.4714(4)
C3 C 0.9867(4) 0.6302(4) 0.4796(4)
C4 C 0.8738(4) 0.4139(4) 0.4914(4)
C5 C 0.7430(4) 0.3143(4) 0.4799(4)
C6 C 1.1693(4) 1.4461(4) 0.9552(4)
H1 H 1.1853 1.4826 0.8931
C7 C 1.0428(4) 1.3266(4) 0.8906(4)
H2 H 0.9758 1.2833 0.7871
C8 C 1.0169(4) 1.2720(4) 0.9817(4)
C9 C 1.1231(4) 1.3398(4) 1.1357(4)
H3 H 1.1097 1.3057 1.2005
C10 C 1.2470(4) 1.4567(4) 1.1907(4)
H4 H 1.3180 1.4994 1.2934
C11 C 0.8848(4) 1.1457(4) 0.9266(4)
C12 C 0.7343(4) 0.9907(4) 0.9311(4)
C13 C 0.6621(4) 0.9145(4) 0.9910(4)
C14 C 0.5453(5) 0.7822(5) 0.9046(4)
H5 H 0.5078 0.7357 0.8017
C15 C 0.4848(5) 0.7197(5) 0.9715(4)
H6 H 0.4057 0.6313 0.9111
C16 C 0.6463(6) 0.9079(5) 1.2026(5)
H7 H 0.6802 0.9526 1.3049
C17 C 0.7134(6) 0.9761(5) 1.1442(5)
H8 H 0.7932 1.0637 1.2073
N1 N 1.2709(3) 1.5125(3) 1.1040(3)
N2 N 0.7892(3) 1.0563(3) 0.7830(3)
N3 N 0.6897(3) 0.9540(3) 0.7853(3)
N4 N 0.8558(4) 1.1101(4) 1.0234(3)
N5 N 0.5337(4) 0.7791(3) 1.1176(3)
O1 O 0.7017(3) 0.6761(3) 0.5514(3)
O2 O 0.6328(3) 0.5904(3) 0.3078(3)
O3 O 0.7643(4) 0.2021(3) 0.5052(4)
O4 O 0.6119(3) 0.3504(3) 0.4412(3)
O5 O 0.4764(3) 0.8340(3) 0.4001(3)
H9 H 0.9782 0.7298 0.4701
H10 H 0.3926 0.8717 0.3915
C1A C 1.2826(4) 0.3929(4) 0.5583(4)
C2A C 1.1396(4) 0.4545(4) 0.5286(4)
C3A C 1.0133(4) 0.3698(4) 0.5204(4)
C4A C 1.1262(4) 0.5861(4) 0.5086(4)
C5A C 1.2570(4) 0.6857(4) 0.5201(4)
O1A O 1.2983(3) 0.3239(3) 0.4486(3)
O2A O 1.3672(3) 0.4096(3) 0.6922(3)
O3A O 1.2357(4) 0.7979(3) 0.4948(4)
O4A O 1.3881(3) 0.6496(3) 0.5588(3)
H9A H 1.0218 0.2702 0.5299
Zn1A Zn 0.44881(4) 0.20445(4) 0.42257(4)
Zn2A Zn 0.53496(4) 0.31209(4) 0.77400(4)
C6A C -0.1693(4) -0.4461(4) 0.0448(4)
H1A H -0.1853 -0.4826 0.1069
C7A C -0.0428(4) -0.3266(4) 0.1094(4)
H2A H 0.0242 -0.2833 0.2129
C8A C -0.0169(4) -0.2720(4) 0.0183(4)
C9A C -0.1231(4) -0.3398(4) -0.1357(4)
H3A H -0.1097 -0.3057 -0.2005
C10A C -0.2470(4) -0.4567(4) -0.1907(4)
H4A H -0.3180 -0.4994 -0.2934
C11A C 0.1152(4) -0.1457(4) 0.0734(4)
C12A C 0.2657(4) 0.0093(4) 0.0689(4)
C13A C 0.3379(4) 0.0855(4) 0.0090(4)
C14A C 0.4547(5) 0.2178(5) 0.0954(4)
H5A H 0.4922 0.2643 0.1983
C15A C 0.5152(5) 0.2803(5) 0.0285(4)
H6A H 0.5943 0.3687 0.0889
C16A C 0.3537(6) 0.0921(5) -0.2026(5)
H7A H 0.3198 0.0474 -0.3049
C17A C 0.2866(6) 0.0239(5) -0.1442(5)
H8A H 0.2068 -0.0637 -0.2073
N1A N -0.2709(3) -0.5125(3) -0.1040(3)
N2A N 0.2108(3) -0.0563(3) 0.2170(3)
N3A N 0.3103(3) 0.0460(3) 0.2147(3)
N4A N 0.1442(4) -0.1101(4) -0.0234(3)
N5A N 0.4663(4) 0.2209(3) -0.1176(3)
O5A O 0.5236(3) 0.1660(3) 0.5999(3)
H10A H 0.6074 0.1283 0.6085
Zn1_2 Zn 1.55119(4) 0.79555(4) 0.57743(4)
Zn1A_2 Zn 1.44881(4) 0.20445(4) 0.42257(4)
Zn2_2 Zn 0.46504(4) 0.68791(4) 1.22600(4)
Zn2_3 Zn 1.46504(4) 1.68791(4) 1.22600(4)
Zn2A_2 Zn -0.46504(4) -0.68791(4) -0.22600(4)
Zn2A_3 Zn 0.53496(4) 0.31209(4) -0.22600(4)
Zn2A_4 Zn 1.53496(4) 0.31209(4) 0.77400(4)
N1_2 N 0.2709(3) 0.5125(3) 0.1040(3)
N1A_2 N 0.7291(3) 0.4875(3) 0.8960(3)
N5_2 N 0.5337(4) 0.7791(3) 0.1176(3)
N5A_2 N 0.4663(4) 0.2209(3) 0.8824(3)
O1A_2 O 0.2983(3) 0.3239(3) 0.4486(3)
O2A_2 O 0.3672(3) 0.4096(3) 0.6922(3)
O4A_2 O 0.3881(3) 0.6496(3) 0.5588(3)
O6 O 0.0875(6) 0.0387(6) 0.4366(6)
H11 H 0.1412 0.1121 0.4395
H12 H 0.1294 -0.0304 0.4531
loop_
_geom_bond_atom_site_label_1
_geom_bond_atom_site_label_2
_geom_bond_site_symmetry_1
_geom_bond_site_symmetry_2
Zn1 N3 1_555 1_555
Zn2 O2 1_555 1_555
C1 C2 1_555 1_555
C2 C3 1_555 1_555
C3 H9 1_555 1_555
C4 C2 1_555 1_555
C5 C4 1_555 1_555
C6 H1 1_555 1_555
C7 C6 1_555 1_555
H2 C7 1_555 1_555
C8 C7 1_555 1_555
C9 C8 1_555 1_555
H3 C9 1_555 1_555
C10 C9 1_555 1_555
H4 C10 1_555 1_555
C11 C8 1_555 1_555
C12 C13 1_555 1_555
C13 C14 1_555 1_555
C14 H5 1_555 1_555
C15 C14 1_555 1_555
H6 C15 1_555 1_555
C16 H7 1_555 1_555
C17 C13 1_555 1_555
H8 C17 1_555 1_555
N1 C6 1_555 1_555
N2 C11 1_555 1_555
N3 C12 1_555 1_555
N4 C11 1_555 1_555
N5 C15 1_555 1_555
O1 Zn1 1_555 1_555
O2 C1 1_555 1_555
O3 C5 1_555 1_555
O4 C5 1_555 1_555
O5 Zn1 1_555 1_555
H10 O5 1_555 1_555
O6 H11 1_555 1_555
H12 O6 1_555 1_555
C1A C2A 1_555 1_555
C2A C3A 1_555 1_555
C3A C4 1_555 1_555
C4A C3 1_555 1_555
C5A C4A 1_555 1_555
O1A C1A 1_555 1_555
O2A C1A 1_555 1_555
O3A C5A 1_555 1_555
O4A C5A 1_555 1_555
H9A C3A 1_555 1_555
Zn1A O4 1_555 1_555
Zn2A O5A 1_555 1_555
C6A H1A 1_555 1_555
C7A C6A 1_555 1_555
H2A C7A 1_555 1_555
C8A C7A 1_555 1_555
C9A C8A 1_555 1_555
H3A C9A 1_555 1_555
C10A C9A 1_555 1_555
H4A C10A 1_555 1_555
C11A C8A 1_555 1_555
C12A C13A 1_555 1_555
C13A C14A 1_555 1_555
C14A H5A 1_555 1_555
C15A C14A 1_555 1_555
H6A C15A 1_555 1_555
C16A H7A 1_555 1_555
C17A C13A 1_555 1_555
H8A C17A 1_555 1_555
N1A C6A 1_555 1_555
N2A C11A 1_555 1_555
N3A Zn1A 1_555 1_555
N4A C11A 1_555 1_555
N5A C15A 1_555 1_555
O5A Zn1A 1_555 1_555
H10A O5A 1_555 1_555
Zn1_2 O4A 1_555 1_555
Zn1A_2 O1A 1_555 1_555
Zn2_2 N5 1_555 1_555
Zn2_3 N1 1_555 1_555
Zn2A_2 N1A 1_555 1_555
Zn2A_3 N5A 1_555 1_555
Zn2A_4 O2A 1_555 1_555
N1_2 Zn2 1_555 1_555
N1A_2 Zn2A 1_555 1_555
N5_2 Zn2 1_555 1_555
N5A_2 Zn2A 1_555 1_555
O1A_2 Zn1A 1_555 1_555
O2A_2 Zn2A 1_555 1_555
O4A_2 Zn1 1_555 1_555
Zn2 O5 1_555 1_555
C1 O1 1_555 1_555
C10 N1 1_555 1_555
C12 N4 1_555 1_555
C16 C17 1_555 1_555
C16 N5 1_555 1_555
N2 N3 1_555 1_555
C2A C4A 1_555 1_555
C10A N1A 1_555 1_555
C12A N3A 1_555 1_555
C12A N4A 1_555 1_555
C16A C17A 1_555 1_555
C16A N5A 1_555 1_555
N2A N3A 1_555 1_555

#END
