
#######################################################################
#
#                 Cambridge Crystallographic Data Centre
#                                CCDC 
#
#######################################################################
#
# If this CIF has been generated from an entry in the Cambridge 
# Structural Database, then it will include bibliographic, chemical, 
# crystal, experimental, refinement or atomic coordinate data resulting 
# from the CCDC's data processing and validation procedures.
#
#######################################################################

data_QIMPAF
_symmetry_cell_setting           triclinic
_symmetry_space_group_name_H-M   'P -1'
_symmetry_Int_Tables_number      2
_space_group_name_Hall           '-P 1'
loop_
_symmetry_equiv_pos_site_id
_symmetry_equiv_pos_as_xyz
1 x,y,z
2 -x,-y,-z
_cell_length_a                   6.3490(13)
_cell_length_b                   8.4780(17)
_cell_length_c                   13.862(3)
_cell_angle_alpha                96.71(3)
_cell_angle_beta                 95.43(3)
_cell_angle_gamma                97.15(3)
_cell_volume                     730.748
loop_
_atom_site_label
_atom_site_type_symbol
_atom_site_fract_x
_atom_site_fract_y
_atom_site_fract_z
Zn1 Zn 0.5000 1.0000 0.5000
Zn2 Zn 0.66303(5) 0.80833(4) 0.76671(2)
C1 C 0.2998(4) 0.7411(3) 0.6253(2)
C2 C 0.1383(4) 0.6174(3) 0.5631(2)
C3 C 0.2063(4) 0.4747(3) 0.5256(2)
H1 H 0.3457 0.4574 0.5434
C4 C 0.0718(4) 0.3578(3) 0.4624(2)
C5 C 0.1630(4) 0.2108(3) 0.4235(2)
C6 C 0.5332(5) 0.2610(3) 0.6688(2)
H2 H 0.3854 0.2388 0.6556
C7 C 0.6179(5) 0.3855(4) 0.7408(2)
H3 H 0.5286 0.4456 0.7744
C8 C 0.8379(5) 0.4196(3) 0.7621(2)
C9 C 0.9622(5) 0.3226(4) 0.7114(2)
H4 H 1.1101 0.3395 0.7253
C10 C 0.8649(5) 0.2006(4) 0.6402(2)
H5 H 0.9505 0.1366 0.6069
C11 C 0.9343(5) 0.5554(4) 0.8349(2)
C12 C 1.1329(5) 0.7086(4) 0.9443(2)
C13 C 1.3052(5) 0.7829(4) 1.0202(2)
C14 C 1.5059(5) 0.7352(4) 1.0312(2)
H6 H 1.5375 0.6474 0.9911
C15 C 1.6592(5) 0.8198(4) 1.1028(2)
H7 H 1.7949 0.7894 1.1107
C16 C 1.6097(5) 0.9496(4) 1.1624(2)
H8 H 1.7140 1.0067 1.2096
C17 C 1.2667(5) 0.9125(4) 1.0843(2)
H9 H 1.1311 0.9435 1.0787
N1 N 0.6527(4) 0.1705(3) 0.61709(17)
N2 N 0.8424(4) 0.6890(3) 0.85054(18)
N3 N 0.9729(4) 0.7900(3) 0.92157(19)
N4 N 1.1187(4) 0.5621(3) 0.89158(19)
N5 N 1.4136(4) 0.9951(3) 1.15347(18)
O1 O 0.3232(3) 0.8812(2) 0.60708(16)
O2 O 0.4070(4) 0.6872(3) 0.69352(17)
O3 O 0.1340(4) 0.1661(3) 0.33234(15)
O4 O 0.2638(4) 0.1466(3) 0.48559(16)
C1A C -0.2998(4) 0.2589(3) 0.3747(2)
C2A C -0.1383(4) 0.3826(3) 0.4369(2)
C3A C -0.2063(4) 0.5253(3) 0.4744(2)
H1A H -0.3457 0.5426 0.4566
C4A C -0.0718(4) 0.6422(3) 0.5376(2)
C5A C -0.1630(4) 0.7892(3) 0.5765(2)
O1A O -0.3232(3) 0.1188(2) 0.39292(16)
O2A O -0.4070(4) 0.3128(3) 0.30648(17)
O3A O -0.1340(4) 0.8339(3) 0.66766(15)
O4A O -0.2638(4) 0.8534(3) 0.51441(16)
Zn2A Zn -0.66303(5) 0.19167(4) 0.23329(2)
C6A C -0.5332(5) 0.7390(3) 0.3312(2)
H2A H -0.3854 0.7612 0.3444
C7A C -0.6179(5) 0.6145(4) 0.2592(2)
H3A H -0.5286 0.5544 0.2256
C8A C -0.8379(5) 0.5804(3) 0.2379(2)
C9A C -0.9622(5) 0.6774(4) 0.2886(2)
H4A H -1.1101 0.6605 0.2747
C10A C -0.8649(5) 0.7994(4) 0.3598(2)
H5A H -0.9505 0.8634 0.3931
C11A C -0.9343(5) 0.4446(4) 0.1651(2)
C12A C -1.1329(5) 0.2914(4) 0.0557(2)
C13A C -1.3052(5) 0.2171(4) -0.0202(2)
C14A C -1.5059(5) 0.2648(4) -0.0312(2)
H6A H -1.5375 0.3526 0.0089
C15A C -1.6592(5) 0.1802(4) -0.1028(2)
H7A H -1.7949 0.2106 -0.1107
C16A C -1.6097(5) 0.0504(4) -0.1624(2)
H8A H -1.7140 -0.0067 -0.2096
C17A C -1.2667(5) 0.0875(4) -0.0843(2)
H9A H -1.1311 0.0565 -0.0787
N1A N -0.6527(4) 0.8295(3) 0.38291(17)
N2A N -0.8424(4) 0.3110(3) 0.14946(18)
N3A N -0.9729(4) 0.2100(3) 0.07843(19)
N4A N -1.1187(4) 0.4379(3) 0.10842(19)
N5A N -1.4136(4) 0.0049(3) -0.15347(18)
Zn1_2 Zn -0.5000 0.0000 0.5000
Zn1_3 Zn -0.5000 1.0000 0.5000
Zn1_4 Zn 0.5000 0.0000 0.5000
Zn2_2 Zn -1.33697(5) -0.19167(4) -0.23329(2)
Zn2_3 Zn -0.33697(5) 0.80833(4) 0.76671(2)
Zn2A_2 Zn 0.33697(5) 0.19167(4) 0.23329(2)
Zn2A_3 Zn 1.33697(5) 1.19167(4) 1.23329(2)
N1_2 N 0.6527(4) 1.1705(3) 0.61709(17)
N1A_2 N 0.3473(4) 0.8295(3) 0.38291(17)
N5_2 N -0.5864(4) -0.0049(3) 0.15347(18)
N5A_2 N 0.5864(4) 1.0049(3) 0.84653(18)
O1A_2 O 0.6768(3) 1.1188(2) 0.39292(16)
O3_2 O -0.8660(4) 0.1661(3) 0.33234(15)
O3A_2 O 0.8660(4) 0.8339(3) 0.66766(15)
O4_2 O 0.2638(4) 1.1466(3) 0.48559(16)
O4A_2 O 0.7362(4) 0.8534(3) 0.51441(16)
loop_
_geom_bond_atom_site_label_1
_geom_bond_atom_site_label_2
_geom_bond_site_symmetry_1
_geom_bond_site_symmetry_2
Zn1 O1 1_555 1_555
Zn2 N2 1_555 1_555
C1 C2 1_555 1_555
C2 C3 1_555 1_555
C3 H1 1_555 1_555
C4 C3 1_555 1_555
C5 C4 1_555 1_555
C6 H2 1_555 1_555
C7 C6 1_555 1_555
H3 C7 1_555 1_555
C8 C7 1_555 1_555
C9 C8 1_555 1_555
H4 C9 1_555 1_555
C10 C9 1_555 1_555
H5 C10 1_555 1_555
C11 C8 1_555 1_555
C12 C13 1_555 1_555
C13 C14 1_555 1_555
C14 H6 1_555 1_555
C15 C14 1_555 1_555
H7 C15 1_555 1_555
C16 C15 1_555 1_555
H8 C16 1_555 1_555
C17 C13 1_555 1_555
H9 C17 1_555 1_555
N1 C6 1_555 1_555
N2 C11 1_555 1_555
N3 C12 1_555 1_555
N4 C11 1_555 1_555
N5 C16 1_555 1_555
O1 C1 1_555 1_555
O2 Zn2 1_555 1_555
O3 C5 1_555 1_555
O4 C5 1_555 1_555
C1A C2A 1_555 1_555
C2A C4 1_555 1_555
C3A C2A 1_555 1_555
H1A C3A 1_555 1_555
C4A C2 1_555 1_555
C5A C4A 1_555 1_555
O1A C1A 1_555 1_555
O2A C1A 1_555 1_555
O3A C5A 1_555 1_555
O4A C5A 1_555 1_555
Zn2A O2A 1_555 1_555
C6A H2A 1_555 1_555
C7A C6A 1_555 1_555
H3A C7A 1_555 1_555
C8A C7A 1_555 1_555
C9A C8A 1_555 1_555
H4A C9A 1_555 1_555
C10A C9A 1_555 1_555
H5A C10A 1_555 1_555
C11A C8A 1_555 1_555
C12A C13A 1_555 1_555
C13A C14A 1_555 1_555
C14A H6A 1_555 1_555
C15A C14A 1_555 1_555
H7A C15A 1_555 1_555
C16A C15A 1_555 1_555
H8A C16A 1_555 1_555
C17A C13A 1_555 1_555
H9A C17A 1_555 1_555
N1A C6A 1_555 1_555
N2A Zn2A 1_555 1_555
N3A C12A 1_555 1_555
N4A C11A 1_555 1_555
N5A C16A 1_555 1_555
Zn1_2 O1A 1_555 1_555
Zn1_3 O4A 1_555 1_555
Zn1_4 N1 1_555 1_555
Zn2_2 N5A 1_555 1_555
Zn2_3 O3A 1_555 1_555
Zn2A_2 O3 1_555 1_555
Zn2A_3 N5 1_555 1_555
N1_2 Zn1 1_555 1_555
N1A_2 Zn1 1_555 1_555
N5_2 Zn2A 1_555 1_555
N5A_2 Zn2 1_555 1_555
O1A_2 Zn1 1_555 1_555
O3_2 Zn2A 1_555 1_555
O3A_2 Zn2 1_555 1_555
O4_2 Zn1 1_555 1_555
O4A_2 Zn1 1_555 1_555
C1 O2 1_555 1_555
C10 N1 1_555 1_555
C12 N4 1_555 1_555
C17 N5 1_555 1_555
N2 N3 1_555 1_555
O4 Zn1_4 1_555 1_555
C3A C4A 1_555 1_555
C10A N1A 1_555 1_555
C11A N2A 1_555 1_555
C12A N4A 1_555 1_555
C17A N5A 1_555 1_555
N1A Zn1_3 1_555 1_555
N2A N3A 1_555 1_555

#END
