
#######################################################################
#
#                 Cambridge Crystallographic Data Centre
#                                CCDC 
#
#######################################################################
#
# If this CIF has been generated from an entry in the Cambridge 
# Structural Database, then it will include bibliographic, chemical, 
# crystal, experimental, refinement or atomic coordinate data resulting 
# from the CCDC's data processing and validation procedures.
#
#######################################################################

data_QINLUU
_symmetry_cell_setting           monoclinic
_symmetry_space_group_name_H-M   'P 21/n'
_symmetry_Int_Tables_number      14
_space_group_name_Hall           '-P 2yn'
loop_
_symmetry_equiv_pos_site_id
_symmetry_equiv_pos_as_xyz
1 x,y,z
2 1/2-x,1/2+y,1/2-z
3 -x,-y,-z
4 1/2+x,1/2-y,1/2+z
_cell_length_a                   8.2003(3)
_cell_length_b                   9.4047(4)
_cell_length_c                   19.9483(7)
_cell_angle_alpha                90
_cell_angle_beta                 96.603(1)
_cell_angle_gamma                90
_cell_volume                     1528.24
loop_
_atom_site_label
_atom_site_type_symbol
_atom_site_fract_x
_atom_site_fract_y
_atom_site_fract_z
Cu1 Cu -0.1109(1) -0.6165(1) 0.1086(1)
V1 V -0.1980(1) -0.1604(1) 0.2504(1)
P1 P 0.5354(1) -0.3822(1) 0.2998(1)
P2 P 0.0063(1) -0.4632(1) 0.2474(1)
O1 O -0.0412(2) -0.3074(2) 0.2334(1)
O2 O 0.0348(2) -0.5389(2) 0.1817(1)
O3 O -0.1139(2) -0.5413(2) 0.2877(1)
O4 O -0.3422(2) -0.6136(2) 0.1717(1)
O5 O 0.5685(2) -0.5429(2) 0.3053(1)
O6 O 0.5584(2) -0.3137(2) 0.3697(1)
O7 O 0.6371(2) -0.3106(2) 0.2496(1)
N1 N -0.1358(2) -0.4283(2) 0.0587(1)
N2 N -0.2548(2) -0.6779(2) 0.0256(1)
C1 C 0.3244(3) -0.3663(2) 0.2638(1)
C2 C 0.2023(3) -0.4566(2) 0.2981(1)
C3 C -0.4022(3) -0.6020(2) -0.0795(1)
C4 C -0.2503(3) -0.3143(2) -0.0436(1)
C5 C -0.2992(3) -0.5748(2) -0.0205(1)
C6 C -0.3124(3) -0.8105(2) 0.0138(1)
C7 C -0.0908(3) -0.1798(2) 0.0426(1)
C8 C -0.1805(3) -0.1860(2) -0.0205(1)
C9 C -0.2281(3) -0.4333(2) -0.0022(1)
C10 C -0.4132(3) -0.8452(2) -0.0448(1)
C11 C -0.0684(3) -0.3041(2) 0.0805(1)
C12 C -0.4579(3) -0.7397(3) -0.0921(1)
H1 H 0.2921 -0.2673 0.2659
H2 H 0.3168 -0.3928 0.2166
H3 H 0.1889 -0.4165 0.3419
H4 H 0.2451 -0.5523 0.3050
H5 H -0.4332 -0.5293 -0.1099
H6 H -0.3107 -0.3204 -0.0859
H7 H -0.2841 -0.8810 0.0457
H8 H -0.0463 -0.0942 0.0594
H9 H -0.1940 -0.1049 -0.0473
H10 H -0.4502 -0.9380 -0.0522
H11 H -0.0048 -0.3010 0.1221
H12 H -0.5245 -0.7611 -0.1317
O3A O -0.3861(2) -0.0413(2) 0.2123(1)
V1_2 V 0.8020(1) -0.1604(1) 0.2504(1)
Cu1A Cu 0.6109(1) -0.1165(1) 0.3914(1)
O6A O -0.0584(2) -0.8137(2) 0.1303(1)
O5A O -0.0685(2) -0.0429(2) 0.1947(1)
O7_2 O -0.3629(2) -0.3106(2) 0.2496(1)
O4A O -0.1578(2) -0.1136(2) 0.3283(1)
V1A V -0.3020(1) -0.6604(1) 0.2496(1)
V1A_2 V 0.6980(1) -0.6604(1) 0.2496(1)
loop_
_geom_bond_atom_site_label_1
_geom_bond_atom_site_label_2
_geom_bond_site_symmetry_1
_geom_bond_site_symmetry_2
Cu1 O2 1_555 1_555
V1 O1 1_555 1_555
P1 O5 1_555 1_555
P2 O1 1_555 1_555
O2 P2 1_555 1_555
O3 P2 1_555 1_555
O4 Cu1 1_555 1_555
O5 V1A_2 1_555 1_555
O6 P1 1_555 1_555
O7 P1 1_555 1_555
N1 Cu1 1_555 1_555
N2 Cu1 1_555 1_555
C1 P1 1_555 1_555
C2 P2 1_555 1_555
C3 C5 1_555 1_555
C4 C8 1_555 1_555
C5 N2 1_555 1_555
C6 N2 1_555 1_555
C7 C8 1_555 1_555
C8 H9 1_555 1_555
C9 N1 1_555 1_555
C10 C6 1_555 1_555
C11 N1 1_555 1_555
C12 C3 1_555 1_555
H1 C1 1_555 1_555
H2 C1 1_555 1_555
H3 C2 1_555 1_555
H4 C2 1_555 1_555
H5 C3 1_555 1_555
H6 C4 1_555 1_555
H7 C6 1_555 1_555
H8 C7 1_555 1_555
H10 C10 1_555 1_555
H11 C11 1_555 1_555
H12 C12 1_555 1_555
O3A V1 1_555 1_555
V1_2 O7 1_555 1_555
Cu1A O6 1_555 1_555
O6A Cu1 1_555 1_555
O5A V1 1_555 1_555
O7_2 V1 1_555 1_555
O4A V1 1_555 1_555
V1A O3 1_555 1_555
O4 V1A 1_555 1_555
C1 C2 1_555 1_555
C4 C9 1_555 1_555
C5 C9 1_555 1_555
C7 C11 1_555 1_555
C10 C12 1_555 1_555

#END
