
#######################################################################
#
#                 Cambridge Crystallographic Data Centre
#                                CCDC 
#
#######################################################################
#
# If this CIF has been generated from an entry in the Cambridge 
# Structural Database, then it will include bibliographic, chemical, 
# crystal, experimental, refinement or atomic coordinate data resulting 
# from the CCDC's data processing and validation procedures.
#
#######################################################################

data_QIPXIY
_symmetry_cell_setting           triclinic
_symmetry_space_group_name_H-M   'P -1'
_symmetry_Int_Tables_number      2
_space_group_name_Hall           '-P 1'
loop_
_symmetry_equiv_pos_site_id
_symmetry_equiv_pos_as_xyz
1 x,y,z
2 -x,-y,-z
_cell_length_a                   10.750(5)
_cell_length_b                   12.813(5)
_cell_length_c                   20.012(5)
_cell_angle_alpha                73.540(5)
_cell_angle_beta                 80.240(5)
_cell_angle_gamma                65.257(5)
_cell_volume                     2396.69
loop_
_atom_site_label
_atom_site_type_symbol
_atom_site_fract_x
_atom_site_fract_y
_atom_site_fract_z
Ag1 Ag 0.75468(3) 0.24051(3) 0.996329(19)
Ag2 Ag 1.33776(4) 0.24757(4) 0.85832(3)
N1 N 1.1406(3) 0.0734(3) 0.89512(18)
N2 N 0.3838(4) 0.4463(3) 1.0960(2)
N3 N 0.9672(4) 0.1735(3) 0.9567(2)
C1 C 0.2986(4) 0.5278(4) 1.1368(2)
N4 N 1.1756(4) 0.1578(3) 0.9068(2)
C2 C 1.2301(4) -0.0124(4) 0.8571(2)
C3 C 1.3998(5) -0.1765(4) 0.7804(2)
N5 N 0.5559(4) 0.3346(3) 1.0401(2)
C4 C 0.3454(4) 0.6056(4) 1.1498(2)
H1 H 0.4315 0.6046 1.1321
C5 C -0.0207(5) 0.9361(4) 1.3160(2)
C6 C 0.0124(5) 1.0253(5) 1.3198(3)
H2 H 0.0938 1.0292 1.2971
C7 C 0.2616(5) 0.6850(4) 1.1895(2)
H3 H 0.2925 0.7374 1.1984
C8 C 0.5188(4) 0.4090(4) 1.0801(2)
H4 H 0.5780 0.4326 1.0952
C9 C 0.0667(5) 0.8547(4) 1.2734(2)
H5 H 0.1484 0.8624 1.2540
N6 N 0.3283(4) 0.3950(5) 1.0643(3)
C10 C -0.1481(5) 0.9225(5) 1.3535(3)
H6 H -0.1298 0.8389 1.3701
H7 H -0.2198 0.9571 1.3207
C11 C 1.1821(4) -0.0850(4) 0.8406(2)
H8 H 1.0928 -0.0791 0.8547
C12 C 1.5449(5) -0.4258(4) 0.6829(2)
C13 C 1.4890(5) -0.2600(4) 0.7382(2)
H9 H 1.5696 -0.2517 0.7175
C14 C 0.1320(5) 0.6876(4) 1.2166(2)
C15 C 1.5138(6) -0.5167(5) 0.6825(3)
H10 H 1.4378 -0.5247 0.7099
C16 C -0.2006(5) 0.9810(5) 1.4160(3)
C17 C 1.0680(5) 0.2138(4) 0.9445(3)
H11 H 1.0623 0.2764 0.9613
C18 C 1.4458(5) -0.1036(5) 0.7985(3)
H12 H 1.5347 -0.1086 0.7843
C19 C 0.1700(5) 0.5290(5) 1.1626(3)
H13 H 0.1387 0.4773 1.1533
C20 C -0.0716(5) 1.1136(5) 1.3568(2)
C21 C 0.0899(5) 0.6080(5) 1.2022(3)
H14 H 0.0041 0.6081 1.2200
C22 C 1.4631(5) -0.3461(4) 0.7275(2)
H15 H 1.3851 -0.3567 0.7507
C23 C 0.0414(5) 0.7699(4) 1.2592(2)
H16 H -0.0406 0.7624 1.2779
C24 C 1.5915(6) -0.6019(5) 0.6422(3)
C25 C 1.0159(4) 0.0859(4) 0.9249(2)
H17 H 0.9698 0.0394 0.9233
C26 C 1.6632(6) -0.4074(6) 0.6390(3)
H18 H 1.7427 -0.4441 0.6670
H19 H 1.6426 -0.3232 0.6241
C27 C -0.2042(5) 1.1071(5) 1.3921(3)
H20 H -0.2768 1.1548 1.3601
H21 H -0.2267 1.1410 1.4324
C28 C 1.5654(7) -0.6991(5) 0.6485(3)
C29 C 1.2651(5) -0.1665(4) 0.8033(2)
H22 H 1.2317 -0.2160 0.7929
C30 C 1.3630(5) -0.0224(5) 0.8377(3)
H23 H 1.3970 0.0245 0.8506
C31 C 1.7105(6) -0.5868(5) 0.5965(3)
H24 H 1.7188 -0.6155 0.5553
H25 H 1.7936 -0.6352 0.6213
C32 C -0.0374(6) 1.2038(5) 1.3572(3)
C33 C 0.4360(5) 0.3281(5) 1.0322(3)
H26 H 0.4311 0.2804 1.0062
C34 C 1.6989(6) -0.4591(6) 0.5736(3)
C35 C 1.6436(8) -0.7872(6) 0.6092(3)
C36 C -0.1028(7) 0.9088(6) 1.4763(3)
H27 H -0.0122 0.9060 1.4604
H28 H -0.1003 0.8299 1.4908
H29 H -0.1353 0.9459 1.5149
C37 C -0.3439(7) 0.9867(7) 1.4403(4)
H30 H -0.3783 1.0273 1.4774
H31 H -0.3416 0.9080 1.4569
H32 H -0.4028 1.0286 1.4021
C38 C 1.5855(8) -0.3868(6) 0.5222(3)
H33 H 1.6083 -0.4188 0.4817
H34 H 1.5769 -0.3060 0.5084
H35 H 1.5001 -0.3900 0.5441
C39 C 0.0889(8) 1.2124(7) 1.3257(4)
C40 C -0.1255(7) 1.2987(6) 1.3897(3)
C41 C 1.8341(8) -0.4542(9) 0.5386(5)
H36 H 1.9040 -0.4951 0.5718
H37 H 1.8239 -0.3731 0.5220
H38 H 1.8597 -0.4911 0.5001
N7 N 1.7049(8) -0.8571(6) 0.5784(4)
N8 N -0.1955(8) 1.3738(6) 1.4147(4)
N9 N 0.1920(8) 1.2172(8) 1.3030(5)
C42 C 1.4616(10) -0.7221(6) 0.6967(4)
N10 N 1.3792(10) -0.7385(6) 0.7376(4)
O1 O 1.5386(4) 0.1620(5) 0.9153(3)
C43 C 1.1967(5) 0.4962(5) 0.8736(3)
O2 O 1.3084(4) 0.4994(5) 0.8538(3)
O3 O 1.7386(4) 0.0734(4) 0.9623(2)
F1 F 1.1263(5) 0.6645(5) 0.9200(3)
F2 F 0.9772(5) 0.5978(5) 0.9242(4)
F3 F 1.6557(6) 0.0255(6) 0.8217(3)
C44 C 1.6542(5) 0.0832(5) 0.9251(3)
C45 C 1.0843(6) 0.6098(6) 0.8889(4)
C46 C 1.7026(7) -0.0175(6) 0.8869(4)
F4 F 1.0388(7) 0.6893(6) 0.8304(4)
O4 O 1.1595(5) 0.4155(4) 0.8815(3)
F5 F 1.8368(5) -0.0661(6) 0.8784(4)
F6 F 1.6586(7) -0.0988(5) 0.9165(4)
Ag1_2 Ag 1.75468(3) 0.24051(3) 0.996329(19)
Ag2_2 Ag 1.33776(4) -0.75243(4) 0.85832(3)
N10_2 N 1.3792(10) 0.2615(6) 0.7376(4)
O3_2 O 0.7386(4) 0.0734(4) 0.9623(2)
loop_
_geom_bond_atom_site_label_1
_geom_bond_atom_site_label_2
_geom_bond_site_symmetry_1
_geom_bond_site_symmetry_2
Ag1 N3 1_555 1_555
Ag2 N4 1_555 1_555
N1 N4 1_555 1_555
N2 C1 1_555 1_555
N3 C17 1_555 1_555
C1 C4 1_555 1_555
N4 C17 1_555 1_555
C2 N1 1_555 1_555
C3 C13 1_555 1_555
N5 Ag1 1_555 1_555
C4 H1 1_555 1_555
C5 C6 1_555 1_555
C6 H2 1_555 1_555
C7 C4 1_555 1_555
H3 C7 1_555 1_555
C8 N2 1_555 1_555
H4 C8 1_555 1_555
C9 C5 1_555 1_555
H5 C9 1_555 1_555
N6 N2 1_555 1_555
C10 C5 1_555 1_555
H6 C10 1_555 1_555
H7 C10 1_555 1_555
C11 C2 1_555 1_555
H8 C11 1_555 1_555
C12 C15 1_555 1_555
C13 H9 1_555 1_555
C14 C7 1_555 1_555
C15 H10 1_555 1_555
C16 C10 1_555 1_555
C17 H11 1_555 1_555
C18 C3 1_555 1_555
H12 C18 1_555 1_555
C19 C1 1_555 1_555
H13 C19 1_555 1_555
C20 C6 1_555 1_555
C21 C14 1_555 1_555
H14 C21 1_555 1_555
C22 C12 1_555 1_555
H15 C22 1_555 1_555
C23 C9 1_555 1_555
H16 C23 1_555 1_555
C24 C15 1_555 1_555
C25 N1 1_555 1_555
H17 C25 1_555 1_555
C26 C12 1_555 1_555
H18 C26 1_555 1_555
H19 C26 1_555 1_555
C27 C16 1_555 1_555
H20 C27 1_555 1_555
H21 C27 1_555 1_555
C28 C24 1_555 1_555
C29 C3 1_555 1_555
H22 C29 1_555 1_555
C30 C2 1_555 1_555
H23 C30 1_555 1_555
C31 C24 1_555 1_555
H24 C31 1_555 1_555
H25 C31 1_555 1_555
C32 C20 1_555 1_555
C33 N5 1_555 1_555
H26 C33 1_555 1_555
C34 C26 1_555 1_555
C35 C28 1_555 1_555
C36 C16 1_555 1_555
H27 C36 1_555 1_555
H28 C36 1_555 1_555
H29 C36 1_555 1_555
C37 C16 1_555 1_555
H30 C37 1_555 1_555
H31 C37 1_555 1_555
H32 C37 1_555 1_555
C38 C34 1_555 1_555
H33 C38 1_555 1_555
H34 C38 1_555 1_555
H35 C38 1_555 1_555
C39 C32 1_555 1_555
C40 C32 1_555 1_555
C41 C34 1_555 1_555
H36 C41 1_555 1_555
H37 C41 1_555 1_555
H38 C41 1_555 1_555
N7 C35 1_555 1_555
N8 C40 1_555 1_555
N9 C39 1_555 1_555
C42 C28 1_555 1_555
N10 C42 1_555 1_555
O1 Ag2 1_555 1_555
C43 O2 1_555 1_555
O3 C44 1_555 1_555
F1 C45 1_555 1_555
F2 C45 1_555 1_555
F3 C46 1_555 1_555
C44 O1 1_555 1_555
C45 C43 1_555 1_555
C46 C44 1_555 1_555
F4 C45 1_555 1_555
O4 Ag2 1_555 1_555
F5 C46 1_555 1_555
F6 C46 1_555 1_555
Ag1_2 O3 1_555 1_555
Ag2_2 N10 1_555 1_555
N10_2 Ag2 1_555 1_555
O3_2 Ag1 1_555 1_555
N3 C25 1_555 1_555
N5 C8 1_555 1_555
N6 C33 1_555 1_555
C11 C29 1_555 1_555
C13 C22 1_555 1_555
C14 C23 1_555 1_555
C18 C30 1_555 1_555
C19 C21 1_555 1_555
C20 C27 1_555 1_555
C31 C34 1_555 1_555
C43 O4 1_555 1_555

#END
