
#######################################################################
#
#                 Cambridge Crystallographic Data Centre
#                                CCDC 
#
#######################################################################
#
# If this CIF has been generated from an entry in the Cambridge 
# Structural Database, then it will include bibliographic, chemical, 
# crystal, experimental, refinement or atomic coordinate data resulting 
# from the CCDC's data processing and validation procedures.
#
#######################################################################

data_QIPXIW
_symmetry_cell_setting           monoclinic
_symmetry_space_group_name_H-M   'P 21/c'
_symmetry_Int_Tables_number      14
_space_group_name_Hall           '-P 2ybc'
loop_
_symmetry_equiv_pos_site_id
_symmetry_equiv_pos_as_xyz
1 x,y,z
2 x,1/2-y,1/2+z
3 -x,-y,-z
4 -x,1/2+y,1/2-z
_cell_length_a                   6.0670(10)
_cell_length_b                   11.017(3)
_cell_length_c                   14.434(3)
_cell_angle_alpha                90
_cell_angle_beta                 98.31(2)
_cell_angle_gamma                90
_cell_volume                     954.641
loop_
_atom_site_label
_atom_site_type_symbol
_atom_site_fract_x
_atom_site_fract_y
_atom_site_fract_z
Cd1 Cd 0.0000 0.0000 0.0000
S1 S 0.3121(2) 0.06021(10) 0.15695(7)
N1 N 0.0152(5) 0.1953(3) -0.0587(2)
N2 N 0.0488(6) 0.5545(3) -0.1523(2)
N3 N 0.7095(5) 0.0558(3) 0.0801(2)
C1 C 0.2046(6) 0.2594(4) -0.0476(3)
H1 H 0.3361(6) 0.2196(4) -0.0170(3)
C2 C 0.2237(7) 0.3759(4) -0.0770(3)
H2 H 0.3658(7) 0.4157(4) -0.0651(3)
C3 C 0.0367(6) 0.4381(3) -0.1231(2)
C4 C -0.1605(6) 0.3693(3) -0.1377(3)
H3 H -0.2933(6) 0.4027(3) -0.1727(3)
C5 C -0.1622(6) 0.2538(4) -0.1045(3)
H4 H -0.3019(6) 0.2113(4) -0.1128(3)
C6 C 0.2490(8) 0.6248(4) -0.1323(3)
H5 H 0.3664(8) 0.5746(4) -0.1011(3)
H6 H 0.2909(8) 0.6550(4) -0.1897(3)
H7 H 0.2239(8) 0.6919(4) -0.0926(3)
C7 C -0.1447(8) 0.6171(4) -0.1998(3)
H8 H -0.2711(8) 0.5638(4) -0.2107(3)
H9 H -0.1780(8) 0.6841(4) -0.1615(3)
H10 H -0.1111(8) 0.6472(4) -0.2586(3)
C8 C 0.5452(6) 0.0567(3) 0.1109(2)
S1B S -0.3121(2) -0.06021(10) -0.15695(7)
N3B N -0.7095(5) -0.0558(3) -0.0801(2)
C8B C -0.5452(6) -0.0567(3) -0.1109(2)
N1B N -0.0152(5) -0.1953(3) 0.0587(2)
N2B N -0.0488(6) -0.5545(3) 0.1523(2)
C1B C -0.2046(6) -0.2594(4) 0.0476(3)
H1B H -0.3361(6) -0.2196(4) 0.0170(3)
C2B C -0.2237(7) -0.3759(4) 0.0770(3)
H2B H -0.3658(7) -0.4157(4) 0.0651(3)
C3B C -0.0367(6) -0.4381(3) 0.1231(2)
C4B C 0.1605(6) -0.3693(3) 0.1377(3)
H3B H 0.2933(6) -0.4027(3) 0.1727(3)
C5B C 0.1622(6) -0.2538(4) 0.1045(3)
H4B H 0.3019(6) -0.2113(4) 0.1128(3)
C6B C -0.2490(8) -0.6248(4) 0.1323(3)
H5B H -0.3664(8) -0.5746(4) 0.1011(3)
H6B H -0.2909(8) -0.6550(4) 0.1897(3)
H7B H -0.2239(8) -0.6919(4) 0.0926(3)
C7B C 0.1447(8) -0.6171(4) 0.1998(3)
H8B H 0.2711(8) -0.5638(4) 0.2107(3)
H9B H 0.1780(8) -0.6841(4) 0.1615(3)
H10B H 0.1111(8) -0.6472(4) 0.2586(3)
N3_2 N -0.2905(5) 0.0558(3) 0.0801(2)
N3B_2 N 0.2905(5) -0.0558(3) -0.0801(2)
Cd1_2 Cd 1.0000 0.0000 0.0000
Cd1_3 Cd -1.0000 0.0000 0.0000
loop_
_geom_bond_atom_site_label_1
_geom_bond_atom_site_label_2
_geom_bond_site_symmetry_1
_geom_bond_site_symmetry_2
Cd1 S1 1_555 1_555
S1 C8 1_555 1_555
N1 Cd1 1_555 1_555
N2 C3 1_555 1_555
N3 C8 1_555 1_555
C1 N1 1_555 1_555
H1 C1 1_555 1_555
C2 C1 1_555 1_555
H2 C2 1_555 1_555
C3 C2 1_555 1_555
C4 C3 1_555 1_555
H3 C4 1_555 1_555
C5 N1 1_555 1_555
H4 C5 1_555 1_555
C6 N2 1_555 1_555
H5 C6 1_555 1_555
H6 C6 1_555 1_555
H7 C6 1_555 1_555
C7 N2 1_555 1_555
H8 C7 1_555 1_555
H9 C7 1_555 1_555
H10 C7 1_555 1_555
S1B Cd1 1_555 1_555
N3B C8B 1_555 1_555
C8B S1B 1_555 1_555
N1B Cd1 1_555 1_555
N2B C3B 1_555 1_555
C1B N1B 1_555 1_555
H1B C1B 1_555 1_555
C2B C1B 1_555 1_555
H2B C2B 1_555 1_555
C3B C2B 1_555 1_555
C4B C3B 1_555 1_555
H3B C4B 1_555 1_555
C5B N1B 1_555 1_555
H4B C5B 1_555 1_555
C6B N2B 1_555 1_555
H5B C6B 1_555 1_555
H6B C6B 1_555 1_555
H7B C6B 1_555 1_555
C7B N2B 1_555 1_555
H8B C7B 1_555 1_555
H9B C7B 1_555 1_555
H10B C7B 1_555 1_555
N3_2 Cd1 1_555 1_555
N3B_2 Cd1 1_555 1_555
Cd1_2 N3 1_555 1_555
Cd1_3 N3B 1_555 1_555
C4 C5 1_555 1_555
C4B C5B 1_555 1_555

#END
