
#######################################################################
#
#                 Cambridge Crystallographic Data Centre
#                                CCDC 
#
#######################################################################
#
# If this CIF has been generated from an entry in the Cambridge 
# Structural Database, then it will include bibliographic, chemical, 
# crystal, experimental, refinement or atomic coordinate data resulting 
# from the CCDC's data processing and validation procedures.
#
#######################################################################

data_QIQGEC
_symmetry_cell_setting           triclinic
_symmetry_space_group_name_H-M   'P -1'
_symmetry_Int_Tables_number      2
_space_group_name_Hall           '-P 1'
loop_
_symmetry_equiv_pos_site_id
_symmetry_equiv_pos_as_xyz
1 x,y,z
2 -x,-y,-z
_cell_length_a                   8.8595(18)
_cell_length_b                   9.7766(18)
_cell_length_c                   10.1781(18)
_cell_angle_alpha                66.169(16)
_cell_angle_beta                 65.737(16)
_cell_angle_gamma                76.252(18)
_cell_volume                     732.473
loop_
_atom_site_label
_atom_site_type_symbol
_atom_site_fract_x
_atom_site_fract_y
_atom_site_fract_z
Ni1 Ni 0.5000 0.0000 0.5000
O1 O 0.3235(4) 0.1889(4) 0.4959(4)
O2 O 0.3951(4) 0.3596(4) 0.2597(4)
N1 N 0.3835(5) -0.0832(4) 0.7340(4)
H1 H 0.4379 -0.1739 0.7689
N2 N 0.3159(5) -0.0939(4) 0.4950(4)
H2 H 0.2406 -0.0139 0.4765
C1 C 0.2104(6) -0.1126(5) 0.7633(5)
H3 H 0.1450 -0.0158 0.7392
C2 C 0.1195(6) -0.2079(6) 0.9267(5)
H4 H 0.1074 -0.1570 0.9954
H5 H 0.1853 -0.3025 0.9538
C3 C -0.0511(7) -0.2388(6) 0.9492(6)
H6 H -0.1018 -0.3051 1.0537
H7 H -0.1215 -0.1455 0.9335
C4 C -0.0389(7) -0.3094(6) 0.8396(6)
H8 H -0.1498 -0.3220 0.8519
H9 H 0.0201 -0.4082 0.8640
C5 C 0.0499(7) -0.2173(6) 0.6745(6)
H10 H -0.0148 -0.1223 0.6460
H11 H 0.0604 -0.2702 0.6081
C6 C 0.2261(6) -0.1878(6) 0.6517(5)
H12 H 0.2914 -0.2847 0.6758
C7 C 0.3501(7) -0.1527(5) 0.3700(5)
H13 H 0.2426 -0.1600 0.3682
C8 C 0.4400(7) -0.3084(6) 0.3993(6)
H14 H 0.3762 -0.3750 0.4970
H15 H 0.5471 -0.3047 0.3998
H16 H 0.4537 -0.3443 0.3198
C9 C 0.4432(7) -0.0407(6) 0.2150(5)
H17 H 0.4494 -0.0753 0.1359
H18 H 0.3754 0.0543 0.2027
C10 C 0.3876(6) 0.0101(6) 0.8171(6)
H19 H 0.3358 -0.0408 0.9266
H20 H 0.3225 0.1048 0.7886
C11 C 0.3039(6) 0.3112(6) 0.3987(6)
C12 C 0.1420(6) 0.4138(5) 0.4481(6)
C13 C 0.0422(6) 0.3685(5) 0.6032(6)
H21 H 0.0723 0.2813 0.6735
C14 C 0.1032(6) 0.5435(5) 0.3498(6)
H22 H 0.1746 0.5756 0.2481
C14A C -0.1032(6) 0.4565(5) 0.6502(6)
C12A C -0.1420(6) 0.5862(5) 0.5519(6)
C11A C -0.3039(6) 0.6888(6) 0.6013(6)
O1A O -0.3235(4) 0.8111(4) 0.5041(4)
O2A O -0.3951(4) 0.6404(4) 0.7403(4)
C13A C -0.0422(6) 0.6315(5) 0.3968(6)
H21A H -0.0723 0.7187 0.3265
H22A H -0.1746 0.4244 0.7519
C10A C 0.6124(6) -0.0101(6) 0.1829(6)
N1A N 0.6165(5) 0.0832(4) 0.2660(4)
H1A H 0.5621 0.1739 0.2311
C1A C 0.7896(6) 0.1126(5) 0.2367(5)
H3A H 0.8550 0.0158 0.2608
C2A C 0.8805(6) 0.2079(6) 0.0733(5)
H4A H 0.8926 0.1570 0.0046
H5A H 0.8147 0.3025 0.0462
C3A C 1.0511(7) 0.2388(6) 0.0508(6)
H6A H 1.1018 0.3051 -0.0537
H7A H 1.1215 0.1455 0.0665
C4A C 1.0389(7) 0.3094(6) 0.1604(6)
H8A H 1.1498 0.3220 0.1481
H9A H 0.9799 0.4082 0.1360
C5A C 0.9501(7) 0.2173(6) 0.3255(6)
H10A H 1.0148 0.1223 0.3540
H11A H 0.9396 0.2702 0.3919
C6A C 0.7739(6) 0.1878(6) 0.3483(5)
N2A N 0.6841(5) 0.0939(4) 0.5050(4)
H2A H 0.7594 0.0139 0.5235
C7A C 0.6499(7) 0.1527(5) 0.6300(5)
H13A H 0.7574 0.1600 0.6318
C8A C 0.5600(7) 0.3084(6) 0.6007(6)
H14A H 0.6238 0.3750 0.5030
H15A H 0.4529 0.3047 0.6002
H16A H 0.5463 0.3443 0.6802
C9A C 0.5568(7) 0.0407(6) 0.7850(5)
H17A H 0.5506 0.0753 0.8641
H18A H 0.6246 -0.0543 0.7973
H12A H 0.7086 0.2847 0.3242
H19A H 0.6642 0.0408 0.0734
H20A H 0.6775 -0.1048 0.2114
O1A_2 O 0.6765(4) -0.1889(4) 0.5041(4)
Ni1_2 Ni -0.5000 1.0000 0.5000
O3 O 0.5139(6) 0.6468(5) 0.0461(5)
loop_
_geom_bond_atom_site_label_1
_geom_bond_atom_site_label_2
_geom_bond_site_symmetry_1
_geom_bond_site_symmetry_2
Ni1 O1 1_555 1_555
O1 C11 1_555 1_555
O2 C11 1_555 1_555
N1 Ni1 1_555 1_555
H1 N1 1_555 1_555
N2 Ni1 1_555 1_555
H2 N2 1_555 1_555
C1 N1 1_555 1_555
H3 C1 1_555 1_555
C2 C1 1_555 1_555
H4 C2 1_555 1_555
H5 C2 1_555 1_555
C3 C2 1_555 1_555
H6 C3 1_555 1_555
H7 C3 1_555 1_555
C4 C3 1_555 1_555
H8 C4 1_555 1_555
H9 C4 1_555 1_555
C5 C4 1_555 1_555
H10 C5 1_555 1_555
H11 C5 1_555 1_555
C6 N2 1_555 1_555
H12 C6 1_555 1_555
C7 N2 1_555 1_555
H13 C7 1_555 1_555
C8 C7 1_555 1_555
H14 C8 1_555 1_555
H15 C8 1_555 1_555
H16 C8 1_555 1_555
C9 C7 1_555 1_555
H17 C9 1_555 1_555
H18 C9 1_555 1_555
C10 N1 1_555 1_555
H19 C10 1_555 1_555
H20 C10 1_555 1_555
C11 C12 1_555 1_555
C12 C13 1_555 1_555
C13 H21 1_555 1_555
C14 C12 1_555 1_555
H22 C14 1_555 1_555
C14A C13 1_555 1_555
C12A C14A 1_555 1_555
C11A C12A 1_555 1_555
O1A C11A 1_555 1_555
O2A C11A 1_555 1_555
C13A C14 1_555 1_555
H21A C13A 1_555 1_555
H22A C14A 1_555 1_555
C10A C9 1_555 1_555
N1A Ni1 1_555 1_555
H1A N1A 1_555 1_555
C1A N1A 1_555 1_555
H3A C1A 1_555 1_555
C2A C1A 1_555 1_555
H4A C2A 1_555 1_555
H5A C2A 1_555 1_555
C3A C2A 1_555 1_555
H6A C3A 1_555 1_555
H7A C3A 1_555 1_555
C4A C3A 1_555 1_555
H8A C4A 1_555 1_555
H9A C4A 1_555 1_555
C5A C4A 1_555 1_555
H10A C5A 1_555 1_555
H11A C5A 1_555 1_555
C6A C1A 1_555 1_555
N2A Ni1 1_555 1_555
H2A N2A 1_555 1_555
C7A N2A 1_555 1_555
H13A C7A 1_555 1_555
C8A C7A 1_555 1_555
H14A C8A 1_555 1_555
H15A C8A 1_555 1_555
H16A C8A 1_555 1_555
C9A C10 1_555 1_555
H17A C9A 1_555 1_555
H18A C9A 1_555 1_555
H12A C6A 1_555 1_555
H19A C10A 1_555 1_555
H20A C10A 1_555 1_555
O1A_2 Ni1 1_555 1_555
Ni1_2 O1A 1_555 1_555
C1 C6 1_555 1_555
C5 C6 1_555 1_555
C12A C13A 1_555 1_555
C10A N1A 1_555 1_555
C5A C6A 1_555 1_555
C6A N2A 1_555 1_555
C7A C9A 1_555 1_555

#END
