
#######################################################################
#
#                 Cambridge Crystallographic Data Centre
#                                CCDC 
#
#######################################################################
#
# If this CIF has been generated from an entry in the Cambridge 
# Structural Database, then it will include bibliographic, chemical, 
# crystal, experimental, refinement or atomic coordinate data resulting 
# from the CCDC's data processing and validation procedures.
#
#######################################################################

data_QIQRUF
_symmetry_cell_setting           triclinic
_symmetry_space_group_name_H-M   'P -1'
_symmetry_Int_Tables_number      2
_space_group_name_Hall           '-P 1'
loop_
_symmetry_equiv_pos_site_id
_symmetry_equiv_pos_as_xyz
1 x,y,z
2 -x,-y,-z
_cell_length_a                   8.5997(5)
_cell_length_b                   11.1264(6)
_cell_length_c                   11.6962(6)
_cell_angle_alpha                85.020(4)
_cell_angle_beta                 85.720(4)
_cell_angle_gamma                74.647(5)
_cell_volume                     1073.57
loop_
_atom_site_label
_atom_site_type_symbol
_atom_site_fract_x
_atom_site_fract_y
_atom_site_fract_z
C1 C 0.3290(2) 0.77888(18) 0.07033(17)
H1 H 0.2724 0.8378 0.0141
C2 C 0.3252(2) 0.65569(18) 0.07011(17)
H2 H 0.2678 0.6311 0.0139
C3 C 0.4058(2) 0.56697(18) 0.15264(16)
C4 C 0.4862(2) 0.60964(18) 0.23363(17)
H3 H 0.5406 0.5534 0.2925
C5 C 0.4860(2) 0.73492(18) 0.22753(17)
H4 H 0.5423 0.7623 0.2827
C6 C 0.4059(2) 0.43335(18) 0.15306(16)
C7 C 0.2971(2) 0.39649(18) 0.09054(17)
H5 H 0.2201 0.4573 0.0475
C8 C 0.3011(2) 0.27117(18) 0.09106(17)
H6 H 0.2256 0.2479 0.048
C9 C 0.5124(2) 0.21556(19) 0.21152(17)
H7 H 0.5874 0.1528 0.2543
C10 C 0.5155(2) 0.33907(18) 0.21498(16)
H8 H 0.5918 0.3597 0.2592
C11 C 0.1514(3) 0.04433(18) 0.28875(17)
C12 C -0.0214(3) 0.0856(2) 0.3342(2)
H9 H -0.0244 0.0995 0.416
H10 H -0.0764 0.0208 0.3242
H11 H -0.076 0.1635 0.2919
C13 C 0.7420(2) -0.07518(17) 0.13950(17)
C14 C 0.9128(2) -0.1142(2) 0.08973(18)
H12 H 0.9817 -0.077 0.1309
H13 H 0.9159 -0.0855 0.0082
H14 H 0.9521 -0.2054 0.0977
N1 N 0.4099(2) 0.81902(15) 0.14720(14)
N2 N 0.4076(2) 0.18126(15) 0.15010(14)
O1 O 0.17622(16) 0.04564(12) 0.18014(12)
O2 O 0.2636(2) 0.01075(15) 0.35565(13)
O3 O 0.62988(16) -0.03629(12) 0.06744(12)
O4 O 0.71288(17) -0.08257(13) 0.24466(12)
Cu1 Cu 0.40800(3) 0.00157(2) 0.13693(2)
N1_2 N 0.4099(2) -0.18098(15) 0.14720(14)
O3A O 0.37012(16) 0.03629(12) -0.06744(12)
Cu1_2 Cu 0.40800(3) 1.00157(2) 0.13693(2)
Cu1A Cu 0.59200(3) -0.00157(2) -0.13693(2)
C15 C 0.7709(3) 0.4181(2) 0.53230(18)
C16 C 0.8745(3) 0.3210(2) 0.59573(18)
H15 H 0.8775 0.2366 0.5857
C17 C 0.9723(3) 0.3483(2) 0.67288(18)
H16 H 1.0435 0.283 0.7159
C18 C 0.9651(3) 0.4723(2) 0.68673(19)
C19 C 0.8663(3) 0.5700(2) 0.62192(19)
H17 H 0.8661 0.6542 0.6305
C20 C 0.7691(3) 0.5423(2) 0.54517(19)
H18 H 0.7004 0.6079 0.5008
N3 N 1.0623(2) 0.50077(19) 0.77231(17)
O5 O 0.6718(2) 0.39693(15) 0.45734(13)
H19 H 0.6524 0.3274 0.4754
O6 O 1.0695(2) 0.60947(17) 0.77630(17)
O7 O 1.1316(2) 0.41520(18) 0.83938(16)
O8 O 0.3136(2) 0.15819(15) 0.52155(14)
H20 H 0.305(4) 0.126(3) 0.5870(18)
H21 H 0.293(4) 0.113(3) 0.477(2)
O9 O 0.6227(2) 0.17469(16) 0.47748(14)
H22 H 0.677(3) 0.121(2) 0.523(2)
H23 H 0.528(2) 0.176(3) 0.493(3)
loop_
_geom_bond_atom_site_label_1
_geom_bond_atom_site_label_2
_geom_bond_site_symmetry_1
_geom_bond_site_symmetry_2
C1 H1 1_555 1_555
C2 C1 1_555 1_555
H2 C2 1_555 1_555
C3 C2 1_555 1_555
C4 C3 1_555 1_555
H3 C4 1_555 1_555
C5 C4 1_555 1_555
H4 C5 1_555 1_555
C6 C3 1_555 1_555
C7 C6 1_555 1_555
H5 C7 1_555 1_555
C8 C7 1_555 1_555
H6 C8 1_555 1_555
C9 H7 1_555 1_555
C10 C6 1_555 1_555
H8 C10 1_555 1_555
C11 C12 1_555 1_555
C12 H9 1_555 1_555
H10 C12 1_555 1_555
H11 C12 1_555 1_555
C13 C14 1_555 1_555
C14 H12 1_555 1_555
H13 C14 1_555 1_555
H14 C14 1_555 1_555
N1 C1 1_555 1_555
N2 C8 1_555 1_555
O1 C11 1_555 1_555
O2 C11 1_555 1_555
O3 C13 1_555 1_555
O4 C13 1_555 1_555
Cu1 N2 1_555 1_555
C15 C16 1_555 1_555
C16 H15 1_555 1_555
C17 C16 1_555 1_555
H16 C17 1_555 1_555
C18 C17 1_555 1_555
C19 C18 1_555 1_555
H17 C19 1_555 1_555
C20 C15 1_555 1_555
H18 C20 1_555 1_555
N3 C18 1_555 1_555
O5 C15 1_555 1_555
H19 O5 1_555 1_555
O6 N3 1_555 1_555
O7 N3 1_555 1_555
O8 H20 1_555 1_555
H21 O8 1_555 1_555
O9 H22 1_555 1_555
H23 O9 1_555 1_555
N1_2 Cu1 1_555 1_555
O3A Cu1 1_555 1_555
Cu1_2 N1 1_555 1_555
Cu1A O3 1_555 1_555
C5 N1 1_555 1_555
C9 C10 1_555 1_555
C9 N2 1_555 1_555
O1 Cu1 1_555 1_555
O2 Cu1 1_555 1_555
O3 Cu1 1_555 1_555
C19 C20 1_555 1_555
O3A Cu1A 1_555 1_555

#END
