
#######################################################################
#
#                 Cambridge Crystallographic Data Centre
#                                CCDC 
#
#######################################################################
#
# If this CIF has been generated from an entry in the Cambridge 
# Structural Database, then it will include bibliographic, chemical, 
# crystal, experimental, refinement or atomic coordinate data resulting 
# from the CCDC's data processing and validation procedures.
#
#######################################################################

data_QIQTER
_symmetry_cell_setting           monoclinic
_symmetry_space_group_name_H-M   'P 21/n'
_symmetry_Int_Tables_number      14
_space_group_name_Hall           '-P 2yn'
loop_
_symmetry_equiv_pos_site_id
_symmetry_equiv_pos_as_xyz
1 x,y,z
2 1/2-x,1/2+y,1/2-z
3 -x,-y,-z
4 1/2+x,1/2-y,1/2+z
_cell_length_a                   9.5262(19)
_cell_length_b                   21.006(4)
_cell_length_c                   12.489(2)
_cell_angle_alpha                90
_cell_angle_beta                 111.832(9)
_cell_angle_gamma                90
_cell_volume                     2319.9
loop_
_atom_site_label
_atom_site_type_symbol
_atom_site_fract_x
_atom_site_fract_y
_atom_site_fract_z
Pb1 Pb 0.976192(18) 0.039043(8) 0.842243(15)
N1 N 0.8974(5) 0.0457(2) 0.6259(4)
N2 N 0.7560(5) -0.0344(2) 0.7269(4)
O1 O 0.8022(4) 0.14728(19) 0.7954(4)
O2 O 0.9127(4) 0.22414(19) 0.7344(4)
H1 H 0.9894 0.2040 0.7710
O3 O 0.3006(4) 0.47295(15) 0.4796(3)
O4 O 0.4005(3) 0.43982(15) 0.6611(3)
O5 O -0.2721(4) 0.42828(19) 0.3349(3)
O6 O -0.3378(4) 0.3299(2) 0.3601(4)
C1 C 0.7970(5) 0.1990(2) 0.7508(4)
C2 C 0.6569(5) 0.2370(2) 0.7091(4)
C3 C 0.5536(5) 0.2259(2) 0.7608(4)
H2 H 0.5773 0.1975 0.8222
C4 C 0.4152(5) 0.2567(2) 0.7223(4)
H3 H 0.3481 0.2496 0.7593
C5 C 0.3755(5) 0.2979(2) 0.6292(4)
C6 C 0.4807(5) 0.3085(2) 0.5780(4)
H4 H 0.4566 0.3359 0.5153
C7 C 0.6201(5) 0.2789(2) 0.6186(4)
H5 H 0.6896 0.2875 0.5844
C8 C 0.2198(5) 0.3232(2) 0.5778(4)
C9 C 0.1839(4) 0.3851(2) 0.5347(4)
C10 C 0.0344(5) 0.4015(2) 0.4721(4)
H6 H 0.0117 0.4426 0.4431
C11 C -0.0817(5) 0.3576(2) 0.4518(4)
C12 C -0.0477(5) 0.2973(2) 0.4987(4)
H7 H -0.1248 0.2680 0.4887
C13 C 0.1014(5) 0.2804(2) 0.5607(4)
H8 H 0.1228 0.2396 0.5917
C14 C 0.3035(5) 0.4360(2) 0.5584(4)
C15 C -0.2423(5) 0.3734(3) 0.3765(4)
C16 C 0.9618(7) 0.0863(3) 0.5771(6)
H9 H 1.0367 0.1136 0.6234
C17 C 0.9194(9) 0.0890(4) 0.4568(6)
H10 H 0.9648 0.1182 0.4238
C18 C 0.8122(9) 0.0489(5) 0.3893(6)
H11 H 0.7848 0.0501 0.3097
C19 C 0.7421(7) 0.0056(4) 0.4384(6)
C20 C 0.7871(6) 0.0059(3) 0.5578(5)
C21 C 0.6308(9) -0.0382(5) 0.3698(7)
H12 H 0.6038 -0.0389 0.2902
C22 C 0.5653(9) -0.0784(5) 0.4201(8)
H13 H 0.4912 -0.1059 0.3736
C23 C 0.6040(7) -0.0809(4) 0.5422(6)
C24 C 0.7152(6) -0.0374(3) 0.6106(5)
C25 C 0.5393(8) -0.1214(4) 0.6001(8)
H14 H 0.4675 -0.1512 0.5586
C26 C 0.5798(7) -0.1176(3) 0.7144(7)
H15 H 0.5356 -0.1442 0.7525
C27 C 0.6887(6) -0.0733(3) 0.7762(6)
H16 H 0.7153 -0.0709 0.8557
Pb1A Pb 0.523808(18) 0.539043(8) 0.657757(15)
Pb1C Pb -0.523808(18) 0.460957(8) 0.342243(15)
Pb1C_2 Pb 0.476192(18) 0.460957(8) 0.342243(15)
O3A O 1.1994(4) -0.02705(15) 1.0204(3)
O3C O 0.8006(4) 0.02705(15) 0.9796(3)
O4A O 1.0995(3) -0.06018(15) 0.8389(3)
O5C O 1.2279(4) 0.07172(19) 0.8349(3)
loop_
_geom_bond_atom_site_label_1
_geom_bond_atom_site_label_2
_geom_bond_site_symmetry_1
_geom_bond_site_symmetry_2
Pb1 N1 1_555 1_555
N1 C16 1_555 1_555
N2 Pb1 1_555 1_555
O1 Pb1 1_555 1_555
O2 H1 1_555 1_555
O3 C14 1_555 1_555
O4 C14 1_555 1_555
O5 C15 1_555 1_555
O6 C15 1_555 1_555
C1 O1 1_555 1_555
C2 C1 1_555 1_555
C3 C2 1_555 1_555
H2 C3 1_555 1_555
C4 C3 1_555 1_555
H3 C4 1_555 1_555
C5 C4 1_555 1_555
C6 C5 1_555 1_555
H4 C6 1_555 1_555
C7 C2 1_555 1_555
H5 C7 1_555 1_555
C8 C5 1_555 1_555
C9 C8 1_555 1_555
C10 C9 1_555 1_555
H6 C10 1_555 1_555
C11 C10 1_555 1_555
C12 C11 1_555 1_555
H7 C12 1_555 1_555
C13 C8 1_555 1_555
H8 C13 1_555 1_555
C14 C9 1_555 1_555
C15 C11 1_555 1_555
C16 H9 1_555 1_555
C17 C16 1_555 1_555
H10 C17 1_555 1_555
C18 C17 1_555 1_555
H11 C18 1_555 1_555
C19 C18 1_555 1_555
C20 N1 1_555 1_555
C21 C19 1_555 1_555
H12 C21 1_555 1_555
C22 C21 1_555 1_555
H13 C22 1_555 1_555
C23 C22 1_555 1_555
C24 N2 1_555 1_555
C25 C23 1_555 1_555
H14 C25 1_555 1_555
C26 C25 1_555 1_555
H15 C26 1_555 1_555
C27 N2 1_555 1_555
H16 C27 1_555 1_555
Pb1A O3 1_555 1_555
Pb1C O5 1_555 1_555
Pb1C_2 O3 1_555 1_555
O3A Pb1 1_555 1_555
O3C Pb1 1_555 1_555
O4A Pb1 1_555 1_555
O5C Pb1 1_555 1_555
O2 C1 1_555 1_555
O4 Pb1A 1_555 1_555
C6 C7 1_555 1_555
C12 C13 1_555 1_555
C19 C20 1_555 1_555
C20 C24 1_555 1_555
C23 C24 1_555 1_555
C26 C27 1_555 1_555

#END
