
#######################################################################
#
#                 Cambridge Crystallographic Data Centre
#                                CCDC 
#
#######################################################################
#
# If this CIF has been generated from an entry in the Cambridge 
# Structural Database, then it will include bibliographic, chemical, 
# crystal, experimental, refinement or atomic coordinate data resulting 
# from the CCDC's data processing and validation procedures.
#
#######################################################################

data_QIRBOK
_symmetry_cell_setting           tetragonal
_symmetry_space_group_name_H-M   'I -4'
_symmetry_Int_Tables_number      82
_space_group_name_Hall           'I -4'
loop_
_symmetry_equiv_pos_site_id
_symmetry_equiv_pos_as_xyz
1 x,y,z
2 -x,-y,z
3 y,-x,-z
4 -y,x,-z
5 1/2+x,1/2+y,1/2+z
6 1/2-x,1/2-y,1/2+z
7 1/2+y,1/2-x,1/2-z
8 1/2-y,1/2+x,1/2-z
_cell_length_a                   20.6044(9)
_cell_length_b                   20.6044(9)
_cell_length_c                   16.2760(14)
_cell_angle_alpha                90
_cell_angle_beta                 90
_cell_angle_gamma                90
_cell_volume                     6909.83
loop_
_atom_site_label
_atom_site_type_symbol
_atom_site_fract_x
_atom_site_fract_y
_atom_site_fract_z
Mn1 Mn 0.59210(4) 0.25775(4) 0.85260(5)
N1 N 0.6424(3) 0.1957(3) 0.7802(4)
O1 O 0.6091(3) 0.0598(3) 0.9144(4)
H1 H 0.6264 0.0360 0.8806
O2 O 0.7142(3) 0.0012(2) 0.6924(3)
C1 C 0.6117(4) 0.1206(4) 0.8883(5)
O3 O 0.5916(3) 0.1651(3) 0.9311(3)
C2 C 0.6414(3) 0.1326(3) 0.8104(5)
C3 C 0.6196(4) 0.3264(4) 0.5656(6)
H2 H 0.5811 0.3474 0.5518
C4 C 0.6705(3) 0.1912(3) 0.7050(4)
C5 C 0.7334(4) 0.3101(4) 0.5504(5)
H3 H 0.7727 0.3213 0.5262
C6 C 0.6741(3) 0.2457(3) 0.6458(5)
C7 C 0.6185(4) 0.2778(4) 0.6276(5)
H4 H 0.5803 0.2681 0.6553
C8 C 0.6766(4) 0.3435(4) 0.5252(5)
C9 C 0.7329(3) 0.2635(3) 0.6070(5)
H5 H 0.7713 0.2426 0.6210
C10 C 0.7291(6) 0.4456(5) 0.4717(8)
H6 H 0.7706 0.4256 0.4807
H7 H 0.7168 0.4696 0.5198
H8 H 0.7318 0.4744 0.4256
C11 C 0.6784(5) 0.3932(5) 0.4545(7)
O4 O 0.6634(3) -0.0105(3) 0.8129(4)
N2 N 0.6903(3) 0.1296(3) 0.6875(4)
O5 O 0.5552(3) 0.3380(3) 0.7852(4)
C12 C 0.6709(3) 0.0936(3) 0.7533(5)
C13 C 0.6828(3) 0.0227(4) 0.7536(5)
C14 C 0.5756(7) 0.4037(5) 0.7904(11)
H9 H 0.5988 0.4152 0.7413
H10 H 0.6036 0.4090 0.8371
H11 H 0.5384 0.4313 0.7963
C15 C 0.6114(6) 0.4265(6) 0.4464(9)
H12 H 0.6060 0.4574 0.4901
H13 H 0.5777 0.3944 0.4497
H14 H 0.6088 0.4484 0.3945
C16 C 0.6974(6) 0.3558(6) 0.3747(6)
H15 H 0.6756 0.3146 0.3737
H16 H 0.7434 0.3490 0.3738
H17 H 0.6847 0.3808 0.3276
Mn2 Mn 0.76193(4) 0.42519(4) 1.09958(5)
O6 O 0.5167(2) 0.2795(2) 0.9419(3)
N3 N 0.7049(3) 0.3689(3) 1.0265(4)
C17 C 0.7045(4) 0.3371(3) 0.9559(5)
C18 C 0.6424(3) 0.3647(3) 1.0561(4)
O7 O 0.5655(3) 0.3985(3) 1.1577(4)
H18 H 0.5421 0.4121 1.1207
C19 C 0.6244(3) 0.3981(3) 1.1334(5)
O8 O 0.6677(2) 0.4262(3) 1.1729(3)
C20 C 0.8761(4) 0.3204(5) 0.8040(6)
C21 C 0.8223(4) 0.3221(4) 0.9378(5)
H19 H 0.8258 0.3199 0.9947
C22 C 0.7624(3) 0.3296(3) 0.9031(5)
C23 C 0.8150(4) 0.3299(5) 0.7706(5)
H20 H 0.8114 0.3342 0.7139
C24 C 0.8781(4) 0.3177(4) 0.8904(6)
H21 H 0.9180 0.3129 0.9164
C25 C 0.7589(4) 0.3333(4) 0.8177(5)
H22 H 0.7188 0.3381 0.7921
O9 O 0.8411(3) 0.4600(3) 1.0321(4)
N4 N 0.6449(3) 0.3136(3) 0.9348(4)
C26 C 0.6058(3) 0.3317(4) 1.0000(5)
C27 C 0.9377(5) 0.3116(5) 0.7561(7)
C28 C 0.9074(5) 0.4426(7) 1.0472(11)
H23 H 0.9191 0.4549 1.1022
H24 H 0.9126 0.3966 1.0409
H25 H 0.9350 0.4647 1.0088
C29 C 0.9866(6) 0.3658(7) 0.7794(10)
H26 H 0.9713 0.3884 0.8273
H27 H 1.0282 0.3468 0.7908
H28 H 0.9906 0.3959 0.7346
C30 C 0.9645(8) 0.2464(7) 0.7703(12)
H29 H 0.9647 0.2374 0.8281
H30 H 0.9382 0.2148 0.7425
H31 H 1.0080 0.2445 0.7495
O10 O 0.4999(3) 0.3336(3) 1.0590(4)
C31 C 0.5367(3) 0.3139(4) 1.0006(5)
C32 C 0.9246(8) 0.3153(12) 0.6625(9)
H32 H 0.8989 0.2787 0.6459
H33 H 0.9016 0.3546 0.6501
H34 H 0.9651 0.3148 0.6334
Mn1F Mn 0.75775(4) -0.09210(4) 0.64740(5)
O2E O 0.7858(3) 0.4988(2) 1.1924(3)
O2G O 0.4988(2) 0.2142(3) 0.8076(3)
N2E N 0.8097(3) 0.3704(3) 1.1875(4)
Mn2B Mn 0.42519(4) 0.23807(4) 0.90042(5)
Mn2E Mn 0.73807(4) 0.07481(4) 0.59958(5)
O6C O 0.7205(2) 0.5167(2) 1.0581(3)
loop_
_geom_bond_atom_site_label_1
_geom_bond_atom_site_label_2
_geom_bond_site_symmetry_1
_geom_bond_site_symmetry_2
Mn1 N1 1_555 1_555
N1 C2 1_555 1_555
O1 H1 1_555 1_555
O2 C13 1_555 1_555
C1 O1 1_555 1_555
O3 Mn1 1_555 1_555
C2 C1 1_555 1_555
C3 H2 1_555 1_555
C4 N1 1_555 1_555
C5 H3 1_555 1_555
C6 C4 1_555 1_555
C7 C3 1_555 1_555
H4 C7 1_555 1_555
C8 C3 1_555 1_555
C9 C5 1_555 1_555
H5 C9 1_555 1_555
C10 H6 1_555 1_555
H7 C10 1_555 1_555
H8 C10 1_555 1_555
C11 C8 1_555 1_555
O4 C13 1_555 1_555
N2 C4 1_555 1_555
O5 Mn1 1_555 1_555
C12 C2 1_555 1_555
C13 C12 1_555 1_555
C14 O5 1_555 1_555
H9 C14 1_555 1_555
H10 C14 1_555 1_555
H11 C14 1_555 1_555
C15 C11 1_555 1_555
H12 C15 1_555 1_555
H13 C15 1_555 1_555
H14 C15 1_555 1_555
C16 C11 1_555 1_555
H15 C16 1_555 1_555
H16 C16 1_555 1_555
H17 C16 1_555 1_555
Mn2 N3 1_555 1_555
O6 Mn1 1_555 1_555
N3 C17 1_555 1_555
C17 C22 1_555 1_555
C18 N3 1_555 1_555
O7 H18 1_555 1_555
C19 C18 1_555 1_555
O8 Mn2 1_555 1_555
C20 C23 1_555 1_555
C21 H19 1_555 1_555
C22 C21 1_555 1_555
C23 H20 1_555 1_555
C24 C20 1_555 1_555
H21 C24 1_555 1_555
C25 C22 1_555 1_555
H22 C25 1_555 1_555
O9 Mn2 1_555 1_555
N4 Mn1 1_555 1_555
C26 C18 1_555 1_555
C27 C20 1_555 1_555
C28 O9 1_555 1_555
H23 C28 1_555 1_555
H24 C28 1_555 1_555
H25 C28 1_555 1_555
C29 C27 1_555 1_555
H26 C29 1_555 1_555
H27 C29 1_555 1_555
H28 C29 1_555 1_555
C30 C27 1_555 1_555
H29 C30 1_555 1_555
H30 C30 1_555 1_555
H31 C30 1_555 1_555
O10 C31 1_555 1_555
C31 O6 1_555 1_555
C32 C27 1_555 1_555
H32 C32 1_555 1_555
H33 C32 1_555 1_555
H34 C32 1_555 1_555
Mn1F O2 1_555 1_555
O2E Mn2 1_555 1_555
O2G Mn1 1_555 1_555
N2E Mn2 1_555 1_555
Mn2B O6 1_555 1_555
Mn2E O2 1_555 1_555
O6C Mn2 1_555 1_555
C1 O3 1_555 1_555
C5 C8 1_555 1_555
C6 C7 1_555 1_555
C6 C9 1_555 1_555
C10 C11 1_555 1_555
N2 C12 1_555 1_555
N2 Mn2E 1_555 1_555
C17 N4 1_555 1_555
O7 C19 1_555 1_555
C19 O8 1_555 1_555
C21 C24 1_555 1_555
C23 C25 1_555 1_555
N4 C26 1_555 1_555
C26 C31 1_555 1_555
O2G Mn2B 1_555 1_555

#END
