
#######################################################################
#
#                 Cambridge Crystallographic Data Centre
#                                CCDC 
#
#######################################################################
#
# If this CIF has been generated from an entry in the Cambridge 
# Structural Database, then it will include bibliographic, chemical, 
# crystal, experimental, refinement or atomic coordinate data resulting 
# from the CCDC's data processing and validation procedures.
#
#######################################################################

data_QISFAA
_symmetry_cell_setting           monoclinic
_symmetry_space_group_name_H-M   'P 21/c'
_symmetry_Int_Tables_number      14
_space_group_name_Hall           '-P 2ybc'
loop_
_symmetry_equiv_pos_site_id
_symmetry_equiv_pos_as_xyz
1 x,y,z
2 -x,1/2+y,1/2-z
3 -x,-y,-z
4 x,1/2-y,1/2+z
_cell_length_a                   12.650(4)
_cell_length_b                   8.565(3)
_cell_length_c                   17.176(5)
_cell_angle_alpha                90
_cell_angle_beta                 91.554(10)
_cell_angle_gamma                90
_cell_volume                     1860.29
loop_
_atom_site_label
_atom_site_type_symbol
_atom_site_fract_x
_atom_site_fract_y
_atom_site_fract_z
Ag1 Ag 0.33088(5) 0.52137(7) 0.50433(4)
S1 S 0.53059(15) 0.6769(3) 0.62938(12)
F1 F 0.3342(4) 0.6535(9) 0.6731(4)
F2 F 0.4499(6) 0.5486(8) 0.7526(4)
F3 F 0.4291(5) 0.7922(8) 0.7475(4)
O1 O 0.2007(4) 0.0861(7) 0.5958(4)
O2 O 0.0964(5) 0.5575(8) 0.3190(4)
O3 O -0.1731(4) 0.0592(7) 0.5828(3)
O4 O 0.5118(5) 0.5329(8) 0.5861(4)
O5 O 0.6298(5) 0.6802(9) 0.6724(4)
O6 O 0.5028(5) 0.8173(8) 0.5873(4)
N1 N 0.2915(5) 0.2892(8) 0.5503(4)
N2 N -0.0819(6) 0.5442(9) 0.3067(4)
N3 N -0.2751(5) 0.2479(8) 0.5329(4)
C1 C 0.1045(5) 0.2568(9) 0.5087(4)
C2 C 0.4316(7) 0.6667(10) 0.7043(5)
C3 C 0.1036(6) 0.3521(8) 0.4445(4)
H1 H 0.1681 0.3882 0.4239
C4 C 0.0071(6) 0.3956(9) 0.4096(4)
C5 C -0.0885(6) 0.3408(9) 0.4394(4)
H2 H -0.1542 0.3711 0.4160
C6 C -0.0859(5) 0.2408(8) 0.5042(4)
C7 C 0.0105(6) 0.1975(9) 0.5377(4)
H3 H 0.0127 0.1274 0.5806
C8 C 0.2054(6) 0.2145(9) 0.5513(4)
C9 C 0.3682(7) 0.2055(12) 0.5992(6)
H4 H 0.3993 0.2750 0.6398
H5 H 0.4258 0.1628 0.5676
C10 C 0.3045(7) 0.0743(12) 0.6356(6)
H6 H 0.3374 -0.0286 0.6262
H7 H 0.2986 0.0900 0.6925
C11 C 0.0037(6) 0.5028(9) 0.3417(4)
C12 C -0.0503(8) 0.6551(12) 0.2461(5)
H8 H -0.0790 0.7604 0.2564
H9 H -0.0760 0.6201 0.1940
C13 C 0.0696(8) 0.6566(13) 0.2509(6)
H10 H 0.0995 0.6128 0.2029
H11 H 0.0967 0.7641 0.2586
C14 C -0.1841(6) 0.1876(9) 0.5378(4)
C15 C -0.3481(6) 0.1476(11) 0.5776(5)
H12 H -0.3978 0.0908 0.5423
H13 H -0.3890 0.2105 0.6146
C16 C -0.2742(6) 0.0360(13) 0.6202(6)
H14 H -0.2686 0.0617 0.6764
H15 H -0.2987 -0.0732 0.6142
Ag1B Ag 0.66912(5) 0.47863(7) 0.49567(4)
Ag1B_2 Ag -0.33088(5) 0.47863(7) 0.49567(4)
O4B O 0.4882(5) 0.4671(8) 0.4139(4)
N3B N 0.2751(5) 0.7521(8) 0.4671(4)
loop_
_geom_bond_atom_site_label_1
_geom_bond_atom_site_label_2
_geom_bond_site_symmetry_1
_geom_bond_site_symmetry_2
Ag1 O4 1_555 1_555
S1 O4 1_555 1_555
F1 C2 1_555 1_555
F2 C2 1_555 1_555
F3 C2 1_555 1_555
O1 C8 1_555 1_555
O2 C11 1_555 1_555
O3 C14 1_555 1_555
O4 Ag1B 1_555 1_555
O5 S1 1_555 1_555
O6 S1 1_555 1_555
N1 Ag1 1_555 1_555
N2 C11 1_555 1_555
N3 C14 1_555 1_555
C1 C3 1_555 1_555
C2 S1 1_555 1_555
C3 H1 1_555 1_555
C4 C3 1_555 1_555
C5 C4 1_555 1_555
H2 C5 1_555 1_555
C6 C5 1_555 1_555
C7 C1 1_555 1_555
H3 C7 1_555 1_555
C8 N1 1_555 1_555
C9 N1 1_555 1_555
H4 C9 1_555 1_555
H5 C9 1_555 1_555
C10 O1 1_555 1_555
H6 C10 1_555 1_555
H7 C10 1_555 1_555
C11 C4 1_555 1_555
C12 N2 1_555 1_555
H8 C12 1_555 1_555
H9 C12 1_555 1_555
C13 O2 1_555 1_555
H10 C13 1_555 1_555
H11 C13 1_555 1_555
C14 C6 1_555 1_555
C15 N3 1_555 1_555
H12 C15 1_555 1_555
H13 C15 1_555 1_555
C16 O3 1_555 1_555
H14 C16 1_555 1_555
H15 C16 1_555 1_555
Ag1B O4B 1_555 1_555
Ag1B_2 N3 1_555 1_555
O4B Ag1 1_555 1_555
N3B Ag1 1_555 1_555
C1 C8 1_555 1_555
C6 C7 1_555 1_555
C9 C10 1_555 1_555
C12 C13 1_555 1_555
C15 C16 1_555 1_555

#END
