
#######################################################################
#
#                 Cambridge Crystallographic Data Centre
#                                CCDC 
#
#######################################################################
#
# If this CIF has been generated from an entry in the Cambridge 
# Structural Database, then it will include bibliographic, chemical, 
# crystal, experimental, refinement or atomic coordinate data resulting 
# from the CCDC's data processing and validation procedures.
#
#######################################################################

data_QISFIJ
_symmetry_cell_setting           monoclinic
_symmetry_space_group_name_H-M   'P 21'
_symmetry_Int_Tables_number      4
_space_group_name_Hall           'P 2yb'
loop_
_symmetry_equiv_pos_site_id
_symmetry_equiv_pos_as_xyz
1 x,y,z
2 -x,1/2+y,-z
_cell_length_a                   11.049(3)
_cell_length_b                   20.781(7)
_cell_length_c                   20.875(7)
_cell_angle_alpha                90
_cell_angle_beta                 90.239(5)
_cell_angle_gamma                90
_cell_volume                     4793.05
loop_
_atom_site_label
_atom_site_type_symbol
_atom_site_fract_x
_atom_site_fract_y
_atom_site_fract_z
C1 C 2.1470(6) 0.8717(4) 0.1891(4)
C2 C 2.0556(6) 0.8560(4) 0.1368(3)
C3 C 2.0543(7) 0.7987(4) 0.1021(3)
H1 H 2.1175 0.7696 0.1077
C4 C 1.9643(7) 0.8993(4) 0.1255(4)
H2 H 1.9649 0.9385 0.1470
C5 C 1.9622(7) 0.7838(4) 0.0598(4)
H3 H 1.9623 0.7448 0.0379
C6 C 1.8695(7) 0.8859(4) 0.0820(4)
H4 H 1.8080 0.9157 0.0749
C7 C 1.8697(7) 0.8276(5) 0.0503(4)
C8 C 1.7616(7) 0.8083(5) 0.0073(4)
H5 H 1.7252 0.8467 -0.0110
H6 H 1.7901 0.7816 -0.0277
C9 C 1.6680(7) 0.7720(4) 0.0454(3)
C10 C 1.6828(7) 0.7087(4) 0.0602(4)
H7 H 1.7497 0.6869 0.0443
C11 C 1.5661(7) 0.8027(4) 0.0675(4)
H8 H 1.5523 0.8453 0.0557
C12 C 1.6011(7) 0.6757(4) 0.0984(4)
H9 H 1.6130 0.6322 0.1067
C13 C 1.4838(7) 0.7721(4) 0.1066(3)
H10 H 1.4165 0.7943 0.1213
C14 C 1.5010(6) 0.7074(4) 0.1244(3)
C15 C 1.4197(7) 0.6728(4) 0.1693(4)
C16 C 1.4200(6) 0.5628(4) 0.3298(4)
C17 C 1.5004(6) 0.5289(4) 0.3760(3)
C18 C 1.4836(7) 0.4651(4) 0.3917(4)
H11 H 1.4164 0.4434 0.3758
C19 C 1.6018(7) 0.5602(4) 0.4015(4)
H12 H 1.6152 0.6034 0.3923
C20 C 1.6820(7) 0.5272(5) 0.4404(4)
H13 H 1.7471 0.5494 0.4581
C21 C 1.5664(7) 0.4323(4) 0.4314(4)
H14 H 1.5518 0.3896 0.4426
C22 C 1.6693(7) 0.4629(5) 0.4539(4)
C23 C 1.7638(6) 0.4273(5) 0.4931(4)
H15 H 1.7282 0.3890 0.5118
H16 H 1.7928 0.4546 0.5275
C24 C 1.8700(7) 0.4082(4) 0.4494(4)
C25 C 1.8709(7) 0.3496(4) 0.4173(4)
H17 H 1.8102 0.3195 0.4246
C26 C 1.9638(6) 0.4513(4) 0.4403(4)
H18 H 1.9654 0.4897 0.4631
C27 C 1.9629(7) 0.3362(4) 0.3741(3)
H19 H 1.9626 0.2970 0.3526
C28 C 2.0542(7) 0.4377(4) 0.3978(4)
H20 H 2.1168 0.4671 0.3919
C29 C 2.0537(6) 0.3792(4) 0.3625(3)
C30 C 2.1482(6) 0.3667(4) 0.3116(3)
C31 C 1.1576(6) 0.7023(4) 0.3358(3)
C32 C 1.0600(6) 0.7174(4) 0.3844(3)
C33 C 1.0494(7) 0.7809(4) 0.4058(4)
H21 H 1.1049 0.8117 0.3924
C34 C 0.9801(7) 0.6736(4) 0.4061(4)
H22 H 0.9889 0.6309 0.3936
C35 C 0.9546(6) 0.7987(4) 0.4477(3)
H23 H 0.9488 0.8408 0.4624
C36 C 0.8850(6) 0.6897(4) 0.4466(3)
H24 H 0.8316 0.6579 0.4602
C37 C 0.8693(6) 0.7525(4) 0.4669(3)
C38 C 0.7661(7) 0.7719(4) 0.5100(3)
H25 H 0.7960 0.8008 0.5429
H26 H 0.7339 0.7340 0.5310
C39 C 0.6654(7) 0.8050(4) 0.4724(3)
C40 C 0.6686(6) 0.8715(4) 0.4636(3)
H27 H 0.7301 0.8956 0.4825
C41 C 0.5736(6) 0.7704(3) 0.4445(3)
H28 H 0.5708 0.7260 0.4504
C42 C 0.5792(7) 0.9021(4) 0.4264(4)
H29 H 0.5823 0.9465 0.4204
C43 C 0.4851(7) 0.7997(4) 0.4080(3)
H30 H 0.4238 0.7753 0.3894
C44 C 0.4879(7) 0.8674(4) 0.3989(3)
C45 C 0.3951(6) 0.9001(4) 0.3564(3)
C46 C 0.5979(7) 0.7556(4) 0.2682(4)
H31 H 0.5787 0.7141 0.2813
C47 C 0.7480(10) 0.8367(7) 0.2403(5)
H32 H 0.7901 0.8343 0.1997
H33 H 0.6759 0.8627 0.2343
C48 C 0.8278(12) 0.8669(6) 0.2893(5)
H34 H 0.7812 0.8771 0.3267
H35 H 0.8623 0.9057 0.2722
H36 H 0.8915 0.8376 0.3006
C49 C 0.8038(9) 0.7225(6) 0.2755(5)
H37 H 0.8549 0.7384 0.3100
H38 H 0.7646 0.6836 0.2905
C50 C 0.8791(11) 0.7066(7) 0.2219(6)
H39 H 0.8294 0.7000 0.1846
H40 H 0.9235 0.6680 0.2311
H41 H 0.9347 0.7412 0.2140
C51 C 1.1583(6) 0.5355(4) 0.1641(4)
C52 C 1.0607(6) 0.5176(4) 0.1150(3)
C53 C 0.9803(6) 0.5631(4) 0.0942(3)
H42 H 0.9890 0.6057 0.1069
C54 C 1.0491(6) 0.4548(4) 0.0939(4)
H43 H 1.1045 0.4237 0.1071
C55 C 0.8852(6) 0.5454(4) 0.0538(3)
H44 H 0.8292 0.5765 0.0415
C56 C 0.9558(6) 0.4382(4) 0.0535(3)
H45 H 0.9482 0.3957 0.0402
C57 C 0.8716(6) 0.4840(4) 0.0319(3)
C58 C 0.7657(6) 0.4641(4) -0.0099(3)
H46 H 0.7941 0.4355 -0.0433
H47 H 0.7316 0.5020 -0.0304
C59 C 0.5728(6) 0.4648(4) 0.0561(3)
H48 H 0.5686 0.5090 0.0493
C60 C 0.6678(6) 0.4305(4) 0.0285(3)
C61 C 0.6676(6) 0.3659(4) 0.0364(3)
H49 H 0.7274 0.3416 0.0166
C62 C 0.5807(7) 0.3344(4) 0.0732(4)
H50 H 0.5844 0.2901 0.0787
C63 C 0.4869(7) 0.4364(4) 0.0921(3)
H51 H 0.4264 0.4612 0.1107
C64 C 0.4884(6) 0.3699(4) 0.1016(3)
C65 C 0.3957(6) 0.3362(4) 0.1421(3)
C66 C 0.5969(8) 0.4780(5) 0.2311(4)
H52 H 0.5774 0.5194 0.2177
C67 C 0.8015(9) 0.5132(7) 0.2223(5)
H53 H 0.7591 0.5517 0.2085
H54 H 0.8517 0.4988 0.1871
C68 C 0.8823(11) 0.5296(7) 0.2797(6)
H55 H 0.8358 0.5523 0.3112
H56 H 0.9483 0.5562 0.2659
H57 H 0.9136 0.4906 0.2981
C69 C 0.7467(9) 0.4033(5) 0.2604(5)
H58 H 0.6744 0.3780 0.2680
H59 H 0.7889 0.4083 0.3009
C70 C 0.8268(12) 0.3683(7) 0.2140(6)
H60 H 0.7977 0.3751 0.1712
H61 H 0.8257 0.3231 0.2236
H62 H 0.9080 0.3842 0.2178
C71 C 0.3355(7) 0.2023(4) 0.3160(3)
C72 C 0.4263(6) 0.1878(4) 0.3673(3)
C73 C 0.5119(6) 0.2345(4) 0.3836(4)
H63 H 0.5100 0.2751 0.3648
C74 C 0.4287(6) 0.1300(4) 0.3979(3)
H64 H 0.3677 0.1003 0.3895
C75 C 0.5195(6) 0.1140(4) 0.4414(3)
H65 H 0.5215 0.0731 0.4594
C76 C 0.5991(6) 0.2190(4) 0.4282(4)
H66 H 0.6559 0.2502 0.4392
C77 C 0.6069(6) 0.1589(4) 0.4578(3)
C78 C 0.7103(6) 0.1423(4) 0.5020(3)
H67 H 0.6812 0.1148 0.5362
H68 H 0.7421 0.1813 0.5212
C79 C 0.9062(7) 0.1416(4) 0.4391(3)
H69 H 0.9116 0.1857 0.4459
C80 C 0.8109(6) 0.1078(4) 0.4657(3)
C81 C 0.8089(6) 0.0414(4) 0.4572(4)
H70 H 0.7469 0.0175 0.4754
C82 C 0.8962(7) 0.0108(4) 0.4225(4)
H71 H 0.8937 -0.0337 0.4181
C83 C 0.9933(6) 0.1115(4) 0.4029(3)
H72 H 1.0553 0.1353 0.3844
C84 C 0.9879(6) 0.0451(4) 0.3940(3)
C85 C 1.0809(6) 0.0087(4) 0.3535(3)
C86 C -0.1053(12) 0.0909(7) 0.2448(6)
H73 H -0.0865 0.0480 0.2368
C87 C -0.3049(14) 0.0549(8) 0.2332(8)
H74 H -0.2576 0.0221 0.2116
H75 H -0.3685 0.0687 0.2041
C88 C -0.3564(14) 0.0288(8) 0.2880(8)
H76 H -0.3070 -0.0059 0.3033
H77 H -0.4360 0.0130 0.2781
H78 H -0.3619 0.0614 0.3204
C89 C -0.2680(12) 0.1671(7) 0.2594(7)
H79 H -0.2386 0.1868 0.2963
H80 H -0.3084 0.1649 0.3005
C90 C -0.3547(13) 0.2068(8) 0.2159(7)
H81 H -0.3107 0.2230 0.1798
H82 H -0.3874 0.2421 0.2398
H83 H -0.4194 0.1797 0.2011
C91 C 0.0826(6) 0.2266(4) 0.1453(3)
C92 C -0.0103(6) 0.1908(4) 0.1062(3)
C93 C -0.1023(6) 0.2260(4) 0.0775(3)
H84 H -0.1042 0.2705 0.0819
C94 C -0.0079(6) 0.1254(4) 0.0973(3)
H85 H 0.0534 0.1014 0.1164
C95 C -0.1912(6) 0.1950(4) 0.0425(4)
H86 H -0.2535 0.2190 0.0242
C96 C -0.0955(6) 0.0939(4) 0.0601(3)
H87 H -0.0902 0.0498 0.0532
C97 C -0.1894(6) 0.1286(5) 0.0339(3)
C98 C -0.2892(6) 0.0939(4) -0.0021(3)
H88 H -0.2569 0.0549 -0.0211
H89 H -0.3189 0.1211 -0.0365
C99 C -0.4806(6) 0.1210(5) 0.0581(4)
H90 H -0.4792 0.1613 0.0387
C100 C -0.3940(6) 0.0765(4) 0.0423(3)
C101 C -0.4004(7) 0.0169(4) 0.0709(4)
H91 H -0.3449 -0.0146 0.0593
C102 C -0.5712(6) 0.1072(4) 0.1029(3)
H92 H -0.6294 0.1379 0.1128
C103 C -0.4855(7) 0.0028(4) 0.1156(4)
H93 H -0.4849 -0.0373 0.1354
C104 C -0.5730(6) 0.0476(4) 0.1320(3)
C105 C -0.6643(6) 0.0338(4) 0.1845(4)
Mg1 Mg 1.28447(19) 0.61831(14) 0.25020(13)
Mg2 Mg 0.2408(2) 0.95433(11) 0.28934(12)
Mg3 Mg 0.3322(2) 0.78897(12) 0.25834(12)
Mg4 Mg 0.3329(2) 0.44728(12) 0.24173(11)
Mg5 Mg 0.2409(2) 0.28195(11) 0.21013(11)
Mg6 Mg 0.14791(18) 0.11780(13) 0.24943(11)
N1 N 0.7126(6) 0.7698(4) 0.2618(3)
N2 N 0.7138(6) 0.4635(5) 0.2373(3)
N3 N -0.2322(8) 0.1060(5) 0.2477(5)
O1 O 2.1289(5) 0.9178(3) 0.2239(3)
O2 O 2.2334(5) 0.8311(2) 0.1925(2)
O3 O 1.3422(4) 0.7044(3) 0.2034(2)
O4 O 1.4278(4) 0.6130(3) 0.1768(2)
O5 O 1.4271(4) 0.6218(3) 0.3239(2)
O6 O 1.3439(4) 0.5307(2) 0.2966(2)
O7 O 2.2339(5) 0.4052(3) 0.3080(2)
O8 O 2.1300(5) 0.3180(3) 0.2766(2)
O9 O 1.2297(5) 0.7459(3) 0.3210(2)
O10 O 1.1593(4) 0.6465(3) 0.3147(3)
O11 O 0.3786(4) 0.9598(3) 0.3637(2)
O12 O 0.3322(4) 0.8682(2) 0.3166(2)
O13 O 0.5125(4) 0.7935(3) 0.2580(2)
O14 O 1.1583(4) 0.5902(3) 0.1867(3)
O15 O 1.2303(5) 0.4905(3) 0.1786(3)
O16 O 0.3335(4) 0.3675(2) 0.1826(2)
O17 O 0.3790(4) 0.2763(2) 0.1360(2)
O18 O 0.5122(4) 0.4406(3) 0.2419(2)
O19 O 0.3551(4) 0.2483(3) 0.2785(3)
O20 O 0.2450(4) 0.1646(3) 0.3127(2)
O21 O 1.1432(4) 0.0404(2) 0.3118(2)
O22 O 1.0991(4) -0.0491(3) 0.3620(2)
O23 O -0.0322(5) 0.1215(3) 0.2505(3)
O24 O 0.1435(4) 0.1952(2) 0.1871(2)
O25 O 0.0999(4) 0.2849(2) 0.1376(2)
O26 O -0.7554(5) 0.0708(3) 0.1879(3)
O27 O -0.6455(4) -0.0125(3) 0.2218(3)
Mg2_2 Mg -0.7592(2) -0.04567(11) 0.28934(12)
Mg2_3 Mg 1.2408(2) -0.04567(11) 0.28934(12)
Mg2_4 Mg 2.2408(2) 0.95433(11) 0.28934(12)
Mg3_2 Mg 1.3322(2) 0.78897(12) 0.25834(12)
Mg3_3 Mg 2.3322(2) 0.78897(12) 0.25834(12)
Mg4_2 Mg 1.3329(2) 0.44728(12) 0.24173(11)
Mg4_3 Mg 2.3329(2) 0.44728(12) 0.24173(11)
Mg5_2 Mg 2.2409(2) 0.28195(11) 0.21013(11)
Mg6_2 Mg -0.85209(18) 0.11780(13) 0.24943(11)
Mg6_3 Mg 1.14791(18) 0.11780(13) 0.24943(11)
O1_2 O 0.1289(5) 0.9178(3) 0.2239(3)
O2_2 O 0.2334(5) 0.8311(2) 0.1925(2)
O3_2 O 0.3422(4) 0.7044(3) 0.2034(2)
O6_2 O 0.3439(4) 0.5307(2) 0.2966(2)
O7_2 O 0.2339(5) 0.4052(3) 0.3080(2)
O8_2 O 0.1300(5) 0.3180(3) 0.2766(2)
O9_2 O 0.2297(5) 0.7459(3) 0.3210(2)
O15_2 O 0.2303(5) 0.4905(3) 0.1786(3)
O21_2 O 0.1432(4) 0.0404(2) 0.3118(2)
O21_3 O 0.1432(4) 1.0404(2) 0.3118(2)
O22_2 O 0.0991(4) 0.9509(3) 0.3620(2)
O26_2 O 0.2446(5) 0.0708(3) 0.1879(3)
O27_2 O 0.3545(4) 0.9875(3) 0.2218(3)
loop_
_geom_bond_atom_site_label_1
_geom_bond_atom_site_label_2
_geom_bond_site_symmetry_1
_geom_bond_site_symmetry_2
C1 C2 1_555 1_555
C2 C3 1_555 1_555
C3 H1 1_555 1_555
C4 C2 1_555 1_555
H2 C4 1_555 1_555
C5 C3 1_555 1_555
H3 C5 1_555 1_555
C6 C4 1_555 1_555
H4 C6 1_555 1_555
C7 C5 1_555 1_555
C8 C7 1_555 1_555
H5 C8 1_555 1_555
H6 C8 1_555 1_555
C9 C8 1_555 1_555
C10 C9 1_555 1_555
H7 C10 1_555 1_555
C11 C9 1_555 1_555
H8 C11 1_555 1_555
C12 C10 1_555 1_555
H9 C12 1_555 1_555
C13 C11 1_555 1_555
H10 C13 1_555 1_555
C14 C12 1_555 1_555
C15 C14 1_555 1_555
C16 C17 1_555 1_555
C17 C18 1_555 1_555
C18 H11 1_555 1_555
C19 C17 1_555 1_555
H12 C19 1_555 1_555
C20 C19 1_555 1_555
H13 C20 1_555 1_555
C21 C18 1_555 1_555
H14 C21 1_555 1_555
C22 C20 1_555 1_555
C23 C22 1_555 1_555
H15 C23 1_555 1_555
H16 C23 1_555 1_555
C24 C23 1_555 1_555
C25 C24 1_555 1_555
H17 C25 1_555 1_555
C26 C24 1_555 1_555
H18 C26 1_555 1_555
C27 C25 1_555 1_555
H19 C27 1_555 1_555
C28 C26 1_555 1_555
H20 C28 1_555 1_555
C29 C27 1_555 1_555
C30 C29 1_555 1_555
C31 C32 1_555 1_555
C32 C33 1_555 1_555
C33 H21 1_555 1_555
C34 C32 1_555 1_555
H22 C34 1_555 1_555
C35 C33 1_555 1_555
H23 C35 1_555 1_555
C36 C34 1_555 1_555
H24 C36 1_555 1_555
C37 C35 1_555 1_555
C38 C37 1_555 1_555
H25 C38 1_555 1_555
H26 C38 1_555 1_555
C39 C38 1_555 1_555
C40 C39 1_555 1_555
H27 C40 1_555 1_555
C41 C39 1_555 1_555
H28 C41 1_555 1_555
C42 C40 1_555 1_555
H29 C42 1_555 1_555
C43 C41 1_555 1_555
H30 C43 1_555 1_555
C44 C42 1_555 1_555
C45 C44 1_555 1_555
C46 H31 1_555 1_555
C47 H32 1_555 1_555
H33 C47 1_555 1_555
C48 C47 1_555 1_555
H34 C48 1_555 1_555
H35 C48 1_555 1_555
H36 C48 1_555 1_555
C49 H37 1_555 1_555
H38 C49 1_555 1_555
C50 C49 1_555 1_555
H39 C50 1_555 1_555
H40 C50 1_555 1_555
H41 C50 1_555 1_555
C51 C52 1_555 1_555
C52 C53 1_555 1_555
C53 H42 1_555 1_555
C54 C52 1_555 1_555
H43 C54 1_555 1_555
C55 C53 1_555 1_555
H44 C55 1_555 1_555
C56 C54 1_555 1_555
H45 C56 1_555 1_555
C57 C55 1_555 1_555
C58 C57 1_555 1_555
H46 C58 1_555 1_555
H47 C58 1_555 1_555
C59 H48 1_555 1_555
C60 C58 1_555 1_555
C61 C60 1_555 1_555
H49 C61 1_555 1_555
C62 C61 1_555 1_555
H50 C62 1_555 1_555
C63 C59 1_555 1_555
H51 C63 1_555 1_555
C64 C62 1_555 1_555
C65 C64 1_555 1_555
C66 H52 1_555 1_555
C67 H53 1_555 1_555
H54 C67 1_555 1_555
C68 C67 1_555 1_555
H55 C68 1_555 1_555
H56 C68 1_555 1_555
H57 C68 1_555 1_555
C69 H58 1_555 1_555
H59 C69 1_555 1_555
C70 C69 1_555 1_555
H60 C70 1_555 1_555
H61 C70 1_555 1_555
H62 C70 1_555 1_555
C71 C72 1_555 1_555
C72 C73 1_555 1_555
C73 H63 1_555 1_555
C74 C72 1_555 1_555
H64 C74 1_555 1_555
C75 C74 1_555 1_555
H65 C75 1_555 1_555
C76 C73 1_555 1_555
H66 C76 1_555 1_555
C77 C75 1_555 1_555
C78 C77 1_555 1_555
H67 C78 1_555 1_555
H68 C78 1_555 1_555
C79 H69 1_555 1_555
C80 C78 1_555 1_555
C81 C80 1_555 1_555
H70 C81 1_555 1_555
C82 C81 1_555 1_555
H71 C82 1_555 1_555
C83 C79 1_555 1_555
H72 C83 1_555 1_555
C84 C82 1_555 1_555
C85 C84 1_555 1_555
C86 H73 1_555 1_555
C87 H74 1_555 1_555
H75 C87 1_555 1_555
C88 C87 1_555 1_555
H76 C88 1_555 1_555
H77 C88 1_555 1_555
H78 C88 1_555 1_555
C89 H79 1_555 1_555
H80 C89 1_555 1_555
C90 C89 1_555 1_555
H81 C90 1_555 1_555
H82 C90 1_555 1_555
H83 C90 1_555 1_555
C91 C92 1_555 1_555
C92 C93 1_555 1_555
C93 H84 1_555 1_555
C94 C92 1_555 1_555
H85 C94 1_555 1_555
C95 C93 1_555 1_555
H86 C95 1_555 1_555
C96 C94 1_555 1_555
H87 C96 1_555 1_555
C97 C95 1_555 1_555
C98 C97 1_555 1_555
H88 C98 1_555 1_555
H89 C98 1_555 1_555
C99 H90 1_555 1_555
C100 C98 1_555 1_555
C101 C100 1_555 1_555
H91 C101 1_555 1_555
C102 C99 1_555 1_555
H92 C102 1_555 1_555
C103 C101 1_555 1_555
H93 C103 1_555 1_555
C104 C102 1_555 1_555
C105 C104 1_555 1_555
Mg1 O3 1_555 1_555
Mg2 O11 1_555 1_555
Mg3 O12 1_555 1_555
Mg4 O16 1_555 1_555
Mg5 O16 1_555 1_555
Mg6 O20 1_555 1_555
N1 C46 1_555 1_555
N2 C66 1_555 1_555
N3 C86 1_555 1_555
O1 C1 1_555 1_555
O2 C1 1_555 1_555
O3 C15 1_555 1_555
O4 C15 1_555 1_555
O5 C16 1_555 1_555
O6 C16 1_555 1_555
O7 C30 1_555 1_555
O8 C30 1_555 1_555
O9 C31 1_555 1_555
O10 C31 1_555 1_555
O11 C45 1_555 1_555
O12 C45 1_555 1_555
O13 C46 1_555 1_555
O14 C51 1_555 1_555
O15 C51 1_555 1_555
O16 C65 1_555 1_555
O17 C65 1_555 1_555
O18 C66 1_555 1_555
O19 C71 1_555 1_555
O20 C71 1_555 1_555
O21 C85 1_555 1_555
O22 C85 1_555 1_555
O23 C86 1_555 1_555
O24 C91 1_555 1_555
O25 C91 1_555 1_555
O26 C105 1_555 1_555
O27 C105 1_555 1_555
Mg2_2 O27 1_555 1_555
Mg2_3 O21 1_555 1_555
Mg2_4 O1 1_555 1_555
Mg3_2 O3 1_555 1_555
Mg3_3 O2 1_555 1_555
Mg4_2 O6 1_555 1_555
Mg4_3 O7 1_555 1_555
Mg5_2 O8 1_555 1_555
Mg6_2 O26 1_555 1_555
Mg6_3 O21 1_555 1_555
O1_2 Mg2 1_555 1_555
O2_2 Mg3 1_555 1_555
O3_2 Mg3 1_555 1_555
O6_2 Mg4 1_555 1_555
O7_2 Mg4 1_555 1_555
O8_2 Mg5 1_555 1_555
O9_2 Mg3 1_555 1_555
O15_2 Mg4 1_555 1_555
O21_2 Mg6 1_555 1_555
O21_3 Mg2 1_555 1_555
O22_2 Mg2 1_555 1_555
O26_2 Mg6 1_555 1_555
O27_2 Mg2 1_555 1_555
C6 C7 1_555 1_555
C13 C14 1_555 1_555
C21 C22 1_555 1_555
C28 C29 1_555 1_555
C36 C37 1_555 1_555
C43 C44 1_555 1_555
C47 N1 1_555 1_555
C49 N1 1_555 1_555
C56 C57 1_555 1_555
C59 C60 1_555 1_555
C63 C64 1_555 1_555
C67 N2 1_555 1_555
C69 N2 1_555 1_555
C76 C77 1_555 1_555
C79 C80 1_555 1_555
C83 C84 1_555 1_555
C87 N3 1_555 1_555
C89 N3 1_555 1_555
C96 C97 1_555 1_555
C99 C100 1_555 1_555
C103 C104 1_555 1_555
Mg1 O4 1_555 1_555
Mg1 O5 1_555 1_555
Mg1 O6 1_555 1_555
Mg1 O10 1_555 1_555
Mg1 O14 1_555 1_555
Mg2 O12 1_555 1_555
Mg3 O13 1_555 1_555
Mg4 O18 1_555 1_555
Mg5 O17 1_555 1_555
Mg5 O19 1_555 1_555
Mg5 O24 1_555 1_555
Mg5 O25 1_555 1_555
Mg6 O23 1_555 1_555
Mg6 O24 1_555 1_555
O9 Mg3_2 1_555 1_555
O15 Mg4_2 1_555 1_555
O22 Mg2_3 1_555 1_555

#END
