
#######################################################################
#
#                 Cambridge Crystallographic Data Centre
#                                CCDC 
#
#######################################################################
#
# If this CIF has been generated from an entry in the Cambridge 
# Structural Database, then it will include bibliographic, chemical, 
# crystal, experimental, refinement or atomic coordinate data resulting 
# from the CCDC's data processing and validation procedures.
#
#######################################################################

data_QISFII
_symmetry_cell_setting           monoclinic
_symmetry_space_group_name_H-M   'P 21/c'
_symmetry_Int_Tables_number      14
_space_group_name_Hall           '-P 2ybc'
loop_
_symmetry_equiv_pos_site_id
_symmetry_equiv_pos_as_xyz
1 x,y,z
2 -x,1/2+y,1/2-z
3 -x,-y,-z
4 x,1/2-y,1/2+z
_cell_length_a                   14.1559(15)
_cell_length_b                   18.0657(18)
_cell_length_c                   14.3223(13)
_cell_angle_alpha                90
_cell_angle_beta                 109.526(3)
_cell_angle_gamma                90
_cell_volume                     3452.09
loop_
_atom_site_label
_atom_site_type_symbol
_atom_site_fract_x
_atom_site_fract_y
_atom_site_fract_z
Ag1 Ag 0.27536(7) 0.60156(5) 0.67633(6)
Ag2 Ag 0.18657(7) 0.47113(5) 0.87403(7)
O1 O -0.1309(6) 0.4528(4) 0.6404(5)
O2 O 0.3096(6) 0.4072(4) 0.5067(6)
O3 O 0.0037(6) 0.2869(4) 0.3200(5)
O4 O 0.7404(5) 0.3489(4) 0.9077(5)
O5 O 0.5700(6) 0.6616(4) 0.9093(6)
O6 O 0.3803(6) 0.2917(4) 0.8390(6)
N1 N 0.0147(7) 0.4785(5) 0.7602(6)
N2 N 0.3189(7) 0.4962(5) 0.6192(6)
N3 N -0.1458(7) 0.3307(5) 0.3154(6)
N4 N 0.7965(7) 0.4345(4) 1.0284(6)
N5 N 0.4192(7) 0.6498(4) 0.7906(6)
N6 N 0.2661(6) 0.3767(4) 0.8378(6)
C1 C 0.0165(8) 0.4337(5) 0.5992(8)
C2 C 0.1152(8) 0.4500(5) 0.6142(7)
H1 H 0.1519 0.4772 0.6696
C3 C 0.1609(8) 0.4261(6) 0.5467(8)
C4 C 0.1049(8) 0.3850(5) 0.4655(8)
H2 H 0.1348 0.3671 0.4213
C5 C 0.0065(8) 0.3706(5) 0.4498(7)
C6 C -0.0398(8) 0.3938(5) 0.5147(7)
H3 H -0.1071 0.3834 0.5030
C7 C -0.0296(8) 0.4552(5) 0.6733(9)
C8 C -0.1614(9) 0.4765(7) 0.7232(8)
H4 H -0.1968 0.4371 0.7436
H5 H -0.2048 0.5195 0.7053
C9 C -0.0653(9) 0.4951(8) 0.8047(9)
H6 H -0.0639 0.5468 0.8232
H7 H -0.0570 0.4647 0.8628
C10 C 0.2655(8) 0.4466(6) 0.5616(8)
C11 C 0.4061(9) 0.4429(7) 0.5218(10)
H8 H 0.4046 0.4718 0.4643
H9 H 0.4594 0.4066 0.5351
C12 C 0.4200(8) 0.4913(7) 0.6092(10)
H10 H 0.4437 0.5399 0.5985
H11 H 0.4679 0.4697 0.6682
C13 C -0.0524(8) 0.3295(5) 0.3587(8)
C14 C -0.0666(9) 0.2472(6) 0.2389(8)
H12 H -0.0642 0.1946 0.2529
H13 H -0.0519 0.2549 0.1782
C15 C -0.1683(9) 0.2789(6) 0.2301(9)
H14 H -0.1974 0.3049 0.1678
H15 H -0.2139 0.2402 0.2349
C16 C 0.6193(8) 0.4361(6) 0.9223(8)
C17 C 0.6040(9) 0.5116(6) 0.9112(8)
H16 H 0.6586 0.5435 0.9260
C18 C 0.5062(8) 0.5401(6) 0.8775(7)
C19 C 0.4257(8) 0.4906(5) 0.8584(7)
H17 H 0.3607 0.5092 0.8380
C20 C 0.4402(8) 0.4152(5) 0.8692(7)
C21 C 0.5377(8) 0.3869(6) 0.9005(7)
H18 H 0.5486 0.3361 0.9068
C22 C 0.7232(8) 0.4062(6) 0.9560(8)
C23 C 0.8434(9) 0.3286(6) 0.9599(9)
H19 H 0.8803 0.3237 0.9140
H20 H 0.8466 0.2820 0.9944
C24 C 0.8858(8) 0.3894(6) 1.0315(9)
H21 H 0.9333 0.4186 1.0115
H22 H 0.9191 0.3700 1.0975
C25 C 0.4921(8) 0.6187(6) 0.8562(8)
C26 C 0.5446(9) 0.7378(6) 0.8736(10)
H23 H 0.5963 0.7589 0.8512
H24 H 0.5355 0.7691 0.9249
C27 C 0.4479(8) 0.7284(6) 0.7888(9)
H25 H 0.3964 0.7606 0.7973
H26 H 0.4572 0.7404 0.7264
C28 C 0.3552(8) 0.3631(6) 0.8484(7)
C29 C 0.2881(10) 0.2494(6) 0.8267(10)
H27 H 0.2941 0.2212 0.8861
H28 H 0.2744 0.2155 0.7712
C30 C 0.2063(9) 0.3066(6) 0.8077(9)
H29 H 0.1647 0.3077 0.7384
H30 H 0.1644 0.2977 0.8480
Ag1B Ag -0.27536(7) 0.39844(5) 0.32367(6)
Ag2B Ag 0.81343(7) 0.52887(5) 1.12597(7)
N3B N 0.1458(7) 0.6693(5) 0.6846(6)
N4B N 0.2035(7) 0.5655(4) 0.9716(6)
B1 B 0.3492(14) 0.6816(10) 0.4784(13)
F1 F 0.2626(8) 0.6719(5) 0.4983(9)
F2 F 0.4279(9) 0.6664(5) 0.5622(7)
F3 F 0.3555(6) 0.7566(4) 0.4582(5)
F4 F 0.3532(7) 0.6379(4) 0.4049(6)
B2 B 0.1396(17) 0.3316(11) 0.0575(16)
F5 F 0.0790(8) 0.3044(6) 0.0998(9)
F6 F 0.2054(6) 0.2832(5) 0.0457(7)
F7 F 0.1962(10) 0.3849(7) 0.1246(10)
F8 F 0.0913(8) 0.3695(7) -0.0244(8)
loop_
_geom_bond_atom_site_label_1
_geom_bond_atom_site_label_2
_geom_bond_site_symmetry_1
_geom_bond_site_symmetry_2
Ag1 N2 1_555 1_555
Ag2 N1 1_555 1_555
B1 F1 1_555 1_555
B2 F5 1_555 1_555
F2 B1 1_555 1_555
F3 B1 1_555 1_555
F4 B1 1_555 1_555
F6 B2 1_555 1_555
F7 B2 1_555 1_555
F8 B2 1_555 1_555
O1 C7 1_555 1_555
O2 C10 1_555 1_555
O3 C13 1_555 1_555
O4 C22 1_555 1_555
O5 C25 1_555 1_555
O6 C28 1_555 1_555
N1 C7 1_555 1_555
N2 C10 1_555 1_555
N3 C13 1_555 1_555
N4 C22 1_555 1_555
N5 Ag1 1_555 1_555
N6 Ag2 1_555 1_555
C1 C2 1_555 1_555
C2 H1 1_555 1_555
C3 C2 1_555 1_555
C4 C3 1_555 1_555
H2 C4 1_555 1_555
C5 C4 1_555 1_555
C6 C1 1_555 1_555
H3 C6 1_555 1_555
C7 C1 1_555 1_555
C8 O1 1_555 1_555
H4 C8 1_555 1_555
H5 C8 1_555 1_555
C9 N1 1_555 1_555
H6 C9 1_555 1_555
H7 C9 1_555 1_555
C10 C3 1_555 1_555
C11 O2 1_555 1_555
H8 C11 1_555 1_555
H9 C11 1_555 1_555
C12 N2 1_555 1_555
H10 C12 1_555 1_555
H11 C12 1_555 1_555
C13 C5 1_555 1_555
C14 O3 1_555 1_555
H12 C14 1_555 1_555
H13 C14 1_555 1_555
C15 N3 1_555 1_555
H14 C15 1_555 1_555
H15 C15 1_555 1_555
C16 C17 1_555 1_555
C17 H16 1_555 1_555
C18 C17 1_555 1_555
C19 C18 1_555 1_555
H17 C19 1_555 1_555
C20 C19 1_555 1_555
C21 C16 1_555 1_555
H18 C21 1_555 1_555
C22 C16 1_555 1_555
C23 O4 1_555 1_555
H19 C23 1_555 1_555
H20 C23 1_555 1_555
C24 N4 1_555 1_555
H21 C24 1_555 1_555
H22 C24 1_555 1_555
C25 N5 1_555 1_555
C26 O5 1_555 1_555
H23 C26 1_555 1_555
H24 C26 1_555 1_555
C27 N5 1_555 1_555
H25 C27 1_555 1_555
H26 C27 1_555 1_555
C28 N6 1_555 1_555
C29 O6 1_555 1_555
H27 C29 1_555 1_555
H28 C29 1_555 1_555
C30 N6 1_555 1_555
H29 C30 1_555 1_555
H30 C30 1_555 1_555
Ag1B N3 1_555 1_555
Ag2B N4 1_555 1_555
N3B Ag1 1_555 1_555
N4B Ag2 1_555 1_555
C5 C6 1_555 1_555
C8 C9 1_555 1_555
C11 C12 1_555 1_555
C14 C15 1_555 1_555
C18 C25 1_555 1_555
C20 C21 1_555 1_555
C20 C28 1_555 1_555
C23 C24 1_555 1_555
C26 C27 1_555 1_555
C29 C30 1_555 1_555

#END
