
#######################################################################
#
#                 Cambridge Crystallographic Data Centre
#                                CCDC 
#
#######################################################################
#
# If this CIF has been generated from an entry in the Cambridge 
# Structural Database, then it will include bibliographic, chemical, 
# crystal, experimental, refinement or atomic coordinate data resulting 
# from the CCDC's data processing and validation procedures.
#
#######################################################################

data_QISFUU
_symmetry_cell_setting           triclinic
_symmetry_space_group_name_H-M   'P -1'
_symmetry_Int_Tables_number      2
_space_group_name_Hall           '-P 1'
loop_
_symmetry_equiv_pos_site_id
_symmetry_equiv_pos_as_xyz
1 x,y,z
2 -x,-y,-z
_cell_length_a                   8.3073(10)
_cell_length_b                   11.3195(19)
_cell_length_c                   12.486(2)
_cell_angle_alpha                116.370(4)
_cell_angle_beta                 96.813(3)
_cell_angle_gamma                98.940(4)
_cell_volume                     1015.54
loop_
_atom_site_label
_atom_site_type_symbol
_atom_site_fract_x
_atom_site_fract_y
_atom_site_fract_z
Ag1 Ag 0.92934(12) 0.05060(12) 0.33803(8)
Ag2 Ag 0.91952(15) -0.32588(13) 0.15086(10)
N1 N 1.1955(11) 0.1317(10) 0.3734(7)
N2 N 0.8917(11) -0.3346(10) -0.0280(8)
N3 N 1.3092(11) 0.0617(10) -0.2079(8)
N4 N 0.8512(15) 0.1621(11) 0.6094(10)
N5 N 0.7136(16) -0.5110(13) 0.2104(10)
O1 O 1.4473(9) 0.2083(8) 0.3505(6)
O2 O 0.9012(9) -0.3140(8) -0.1967(6)
O3 O 1.5075(9) 0.1815(8) -0.0380(6)
O4 O 0.7607(13) 0.0981(11) 0.5087(8)
O5 O 0.7960(12) 0.2253(10) 0.7008(8)
O6 O 1.0026(12) 0.1657(11) 0.6253(9)
O7 O 0.6499(13) -0.4388(13) 0.1814(12)
O8 O 0.8545(15) -0.5137(13) 0.1982(13)
O9 O 0.6353(13) -0.5765(11) 0.2515(10)
C1 C 1.2524(13) 0.0511(11) 0.1666(9)
C2 C 1.1313(13) -0.0687(11) 0.1101(9)
H1 H 1.0785 -0.1007 0.1569
C3 C 1.0884(13) -0.1410(11) -0.0162(9)
C4 C 1.1687(13) -0.0913(11) -0.0846(9)
H2 H 1.1418 -0.1405 -0.1695
C5 C 1.2868(13) 0.0290(11) -0.0290(9)
C6 C 1.3316(12) 0.0996(11) 0.0989(9)
H3 H 1.4149 0.1792 0.1378
C7 C 1.2954(14) 0.1334(12) 0.3028(9)
C8 C 1.4543(16) 0.2783(15) 0.4829(10)
H4 H 1.4682 0.3751 0.5126
H5 H 1.5466 0.2632 0.5268
C9 C 1.2960(15) 0.2203(15) 0.4997(10)
H6 H 1.3124 0.1679 0.5423
H7 H 1.2417 0.2910 0.5461
C10 C 1.3658(13) 0.0876(11) -0.0974(9)
C11 C 1.5497(14) 0.2381(11) -0.1177(9)
H8 H 1.5309 0.3288 -0.0877
H9 H 1.6654 0.2417 -0.1242
C12 C 1.4333(13) 0.1411(12) -0.2404(10)
H10 H 1.4922 0.0833 -0.2972
H11 H 1.3812 0.1900 -0.2762
C13 C 0.9572(15) -0.2689(13) -0.0784(11)
C14 C 0.7766(16) -0.4415(13) -0.2434(11)
H12 H 0.6709 -0.4374 -0.2822
H13 H 0.8141 -0.5173 -0.3014
C15 C 0.7629(16) -0.4526(14) -0.1256(11)
H14 H 0.7853 -0.5373 -0.1332
H15 H 0.6526 -0.4475 -0.1084
Ag1A Ag 1.07066(12) -0.05060(12) -0.33803(8)
Ag2A Ag 1.08048(15) 0.32588(13) 0.84914(10)
N3A N 0.6908(11) -0.0617(10) 0.2079(8)
O5A O 1.2040(12) -0.2253(10) 0.2992(8)
O6A O 0.9974(12) -0.1657(11) 0.3747(9)
O10 O 0.891(2) 0.3445(14) 0.4457(14)
C16 C 0.876(4) 0.460(5) 0.457(3)
loop_
_geom_bond_atom_site_label_1
_geom_bond_atom_site_label_2
_geom_bond_site_symmetry_1
_geom_bond_site_symmetry_2
Ag1 N1 1_555 1_555
Ag2 N2 1_555 1_555
N1 C7 1_555 1_555
N2 C13 1_555 1_555
N3 C10 1_555 1_555
N4 O4 1_555 1_555
N5 O7 1_555 1_555
O1 C7 1_555 1_555
O2 C13 1_555 1_555
O3 C10 1_555 1_555
O4 Ag1 1_555 1_555
O5 N4 1_555 1_555
O6 N4 1_555 1_555
O7 Ag2 1_555 1_555
O8 Ag2 1_555 1_555
O9 N5 1_555 1_555
O10 C16 1_555 1_555
C1 C2 1_555 1_555
C2 H1 1_555 1_555
C3 C2 1_555 1_555
C4 C3 1_555 1_555
H2 C4 1_555 1_555
C5 C4 1_555 1_555
C6 C1 1_555 1_555
H3 C6 1_555 1_555
C7 C1 1_555 1_555
C8 O1 1_555 1_555
H4 C8 1_555 1_555
H5 C8 1_555 1_555
C9 N1 1_555 1_555
H6 C9 1_555 1_555
H7 C9 1_555 1_555
C10 C5 1_555 1_555
C11 O3 1_555 1_555
H8 C11 1_555 1_555
H9 C11 1_555 1_555
C12 N3 1_555 1_555
H10 C12 1_555 1_555
H11 C12 1_555 1_555
C13 C3 1_555 1_555
C14 O2 1_555 1_555
H12 C14 1_555 1_555
H13 C14 1_555 1_555
C15 N2 1_555 1_555
H14 C15 1_555 1_555
H15 C15 1_555 1_555
Ag1A N3 1_555 1_555
Ag2A O5 1_555 1_555
N3A Ag1 1_555 1_555
O5A Ag2 1_555 1_555
O6A Ag2 1_555 1_555
N5 O8 1_555 1_555
O6 Ag2A 1_555 1_555
C5 C6 1_555 1_555
C8 C9 1_555 1_555
C11 C12 1_555 1_555
C14 C15 1_555 1_555

#END
