
#######################################################################
#
#                 Cambridge Crystallographic Data Centre
#                                CCDC 
#
#######################################################################
#
# If this CIF has been generated from an entry in the Cambridge 
# Structural Database, then it will include bibliographic, chemical, 
# crystal, experimental, refinement or atomic coordinate data resulting 
# from the CCDC's data processing and validation procedures.
#
#######################################################################

data_QISGAC
_symmetry_cell_setting           monoclinic
_symmetry_space_group_name_H-M   'P 21/c'
_symmetry_Int_Tables_number      14
_space_group_name_Hall           '-P 2ybc'
loop_
_symmetry_equiv_pos_site_id
_symmetry_equiv_pos_as_xyz
1 x,y,z
2 -x,1/2+y,1/2-z
3 -x,-y,-z
4 x,1/2-y,1/2+z
_cell_length_a                   5.646(1)
_cell_length_b                   25.054(3)
_cell_length_c                   27.393(5)
_cell_angle_alpha                90
_cell_angle_beta                 90.24(2)
_cell_angle_gamma                90
_cell_volume                     3874.84
loop_
_atom_site_label
_atom_site_type_symbol
_atom_site_fract_x
_atom_site_fract_y
_atom_site_fract_z
C1 C 0.76710 0.07300 0.58870
C2 C 0.71660 0.04550 0.63570
C3 C 0.88750 0.01560 0.66010
H1 H 1.02860 0.01220 0.64610
C4 C 0.50940 0.04750 0.65540
H2 H 0.39090 0.06520 0.63870
C5 C 0.85210 -0.00920 0.70460
H3 H 0.96720 -0.02890 0.72040
C6 C 0.46930 0.02370 0.70010
H4 H 0.32650 0.02630 0.71350
C7 C 0.64210 -0.00390 0.72450
C8 C 0.59110 -0.02920 0.77420
H5 H 0.44280 -0.04610 0.77130
H6 H 0.70340 -0.05660 0.78130
C9 C 0.59220 0.00860 0.81700
C10 C 0.78780 0.01410 0.84740
H7 H 0.91740 -0.00540 0.84090
C11 C 0.40660 0.03920 0.82640
H8 H 0.27600 0.03720 0.80600
C12 C 0.79230 0.04750 0.88640
H9 H 0.92450 0.05010 0.90630
C13 C 0.41230 0.07350 0.86650
H10 H 0.28510 0.09390 0.87280
C14 C 0.60730 0.07720 0.89710
C15 C 0.61160 0.11460 0.93950
C16 C -0.31850 0.08960 1.08650
C17 C -0.29820 0.11670 1.13480
C18 C -0.09730 0.11500 1.16310
H11 H 0.02820 0.09680 1.15200
C19 C -0.48160 0.14490 1.15120
H12 H -0.61770 0.14580 1.13250
C20 C -0.08350 0.14050 1.20800
H13 H 0.05030 0.13810 1.22730
C21 C -0.46380 0.17190 1.19580
H14 H -0.58660 0.19170 1.20610
C22 C -0.26490 0.16960 1.22470
C23 C -0.23900 0.19720 1.27350
H15 H -0.35650 0.22410 1.27530
H16 H -0.09230 0.21490 1.27570
C24 C -0.25570 0.16020 1.31690
C25 C -0.05960 0.15240 1.34890
H17 H 0.07480 0.17050 1.34320
C26 C -0.44540 0.13150 1.32670
H18 H -0.57420 0.13500 1.30590
C27 C -0.06890 0.11800 1.38830
H19 H 0.05990 0.11280 1.40870
C28 C -0.45430 0.09790 1.36590
H20 H -0.58690 0.07900 1.37130
C29 C -0.26480 0.09210 1.39720
C30 C -0.27230 0.05450 1.43900
C31 C 0.14890 0.24290 0.91930
C32 C 0.13810 0.21790 0.87020
C33 C 0.31470 0.22020 0.83840
H21 H 0.44590 0.23900 0.84740
C34 C -0.05840 0.18920 0.85520
H22 H -0.18260 0.18760 0.87520
C35 C 0.30130 0.19560 0.79430
H23 H 0.42410 0.19810 0.77390
C36 C -0.06530 0.16310 0.80980
H24 H -0.19190 0.14280 0.80060
C37 C 0.11280 0.16720 0.77860
C38 C 0.09700 0.13900 0.72990
H25 H -0.04560 0.11970 0.72720
H26 H 0.22050 0.11340 0.72880
C39 C 0.11100 0.17630 0.68680
C40 C 0.30920 0.17930 0.65890
H27 H 0.43510 0.15820 0.66690
C41 C -0.06930 0.20920 0.67370
H28 H -0.19910 0.20800 0.69210
C42 C 0.31400 0.21340 0.61990
H29 H 0.44380 0.21530 0.60160
C43 C -0.06530 0.24340 0.63480
H30 H -0.18970 0.26500 0.62700
C44 C 0.12700 0.24500 0.60750
C45 C 0.13570 0.28320 0.56480
O1 O 0.97300 0.07670 0.57610
O2 O 0.59930 0.09110 0.56290
O3 O 1.21180 0.15390 0.49810
O4 O 0.80330 0.12560 0.96120
O5 O 0.42810 0.13810 0.95180
O6 O 0.73420 0.31600 1.01890
O7 O 0.25570 0.01760 0.98680
O8 O -0.13570 0.06890 1.06870
O9 O -0.50790 0.08630 1.06350
O10 O -0.46540 0.03470 1.45230
O11 O -0.08650 0.03910 1.46050
O12 O 0.33590 0.26380 0.93510
O13 O -0.03270 0.24550 0.94360
O14 O 0.32810 0.29250 0.54520
O15 O -0.04360 0.30650 0.55020
Ca1 Ca 1.25571 0.05520 0.51607
Ca2 Ca 0.64226 0.22233 0.98980
Ca3 Ca 0.15031 0.10986 1.01435
H31 H 0.75040 0.32060 1.05580
H32 H 0.68340 0.35120 1.00710
H33 H 1.24890 0.17250 0.53010
H34 H 1.25580 0.17940 0.47180
H35 H 0.28430 -0.01500 1.00680
H36 H 0.24760 0.00510 0.95210
O2_2 O 1.59930 0.09110 0.56290
O4_2 O -0.19670 0.12560 0.96120
O9_2 O 0.49210 0.08630 1.06350
O10_2 O 1.53460 0.03470 0.45230
O10B O 1.46540 -0.03470 0.54770
O11_2 O 0.91350 0.03910 0.46050
O11B O 1.08650 -0.03910 0.53950
O13_2 O 0.96730 0.24550 0.94360
O14C O 0.32810 0.20750 1.04520
O15C O -0.04360 0.19350 1.05020
O15C_2 O 0.95640 0.19350 1.05020
Ca1_2 Ca -0.74429 0.05520 1.51607
Ca1_3 Ca 0.25571 0.05520 0.51607
Ca1_4 Ca 0.25571 0.05520 1.51607
Ca1B Ca -0.25571 -0.05520 1.48393
Ca2_2 Ca -0.35774 0.22233 0.98980
Ca2C Ca -0.35774 0.27767 0.48980
Ca2C_2 Ca 0.64226 0.27767 0.48980
Ca3_2 Ca -0.84969 0.10986 1.01435
Ca3_3 Ca 1.15031 0.10986 1.01435
Ca3C Ca 0.15031 0.39014 0.51435
loop_
_geom_bond_atom_site_label_1
_geom_bond_atom_site_label_2
_geom_bond_site_symmetry_1
_geom_bond_site_symmetry_2
C1 C2 1_555 1_555
C2 C3 1_555 1_555
C3 H1 1_555 1_555
C4 C2 1_555 1_555
H2 C4 1_555 1_555
C5 C3 1_555 1_555
H3 C5 1_555 1_555
C6 C4 1_555 1_555
H4 C6 1_555 1_555
C7 C5 1_555 1_555
C8 C7 1_555 1_555
H5 C8 1_555 1_555
H6 C8 1_555 1_555
C9 C8 1_555 1_555
C10 C9 1_555 1_555
H7 C10 1_555 1_555
C11 C9 1_555 1_555
H8 C11 1_555 1_555
C12 C10 1_555 1_555
H9 C12 1_555 1_555
C13 C11 1_555 1_555
H10 C13 1_555 1_555
C14 C12 1_555 1_555
C15 C14 1_555 1_555
C16 C17 1_555 1_555
C17 C18 1_555 1_555
C18 H11 1_555 1_555
C19 C17 1_555 1_555
H12 C19 1_555 1_555
C20 C18 1_555 1_555
H13 C20 1_555 1_555
C21 C19 1_555 1_555
H14 C21 1_555 1_555
C22 C20 1_555 1_555
C23 C22 1_555 1_555
H15 C23 1_555 1_555
H16 C23 1_555 1_555
C24 C23 1_555 1_555
C25 C24 1_555 1_555
H17 C25 1_555 1_555
C26 C24 1_555 1_555
H18 C26 1_555 1_555
C27 C25 1_555 1_555
H19 C27 1_555 1_555
C28 C26 1_555 1_555
H20 C28 1_555 1_555
C29 C27 1_555 1_555
C30 C29 1_555 1_555
C31 C32 1_555 1_555
C32 C33 1_555 1_555
C33 H21 1_555 1_555
C34 C32 1_555 1_555
H22 C34 1_555 1_555
C35 C33 1_555 1_555
H23 C35 1_555 1_555
C36 C34 1_555 1_555
H24 C36 1_555 1_555
C37 C35 1_555 1_555
C38 C37 1_555 1_555
H25 C38 1_555 1_555
H26 C38 1_555 1_555
C39 C38 1_555 1_555
C40 C39 1_555 1_555
H27 C40 1_555 1_555
C41 C39 1_555 1_555
H28 C41 1_555 1_555
C42 C40 1_555 1_555
H29 C42 1_555 1_555
C43 C41 1_555 1_555
H30 C43 1_555 1_555
C44 C42 1_555 1_555
C45 C44 1_555 1_555
O1 C1 1_555 1_555
O2 C1 1_555 1_555
O3 Ca1 1_555 1_555
O4 C15 1_555 1_555
O5 C15 1_555 1_555
O6 Ca2 1_555 1_555
O7 Ca3 1_555 1_555
O8 C16 1_555 1_555
O9 C16 1_555 1_555
O10 C30 1_555 1_555
O11 C30 1_555 1_555
O12 C31 1_555 1_555
O13 C31 1_555 1_555
O14 C45 1_555 1_555
O15 C45 1_555 1_555
Ca1 O1 1_555 1_555
Ca2 O4 1_555 1_555
Ca3 O5 1_555 1_555
H31 O6 1_555 1_555
H32 O6 1_555 1_555
H33 O3 1_555 1_555
H34 O3 1_555 1_555
H35 O7 1_555 1_555
H36 O7 1_555 1_555
O2_2 Ca1 1_555 1_555
O4_2 Ca3 1_555 1_555
O9_2 Ca3 1_555 1_555
O10_2 Ca1 1_555 1_555
O10B Ca1 1_555 1_555
O11_2 Ca1 1_555 1_555
O11B Ca1 1_555 1_555
O13_2 Ca2 1_555 1_555
O14C Ca2 1_555 1_555
O15C Ca3 1_555 1_555
O15C_2 Ca2 1_555 1_555
Ca1_2 O10 1_555 1_555
Ca1_3 O2 1_555 1_555
Ca1_4 O11 1_555 1_555
Ca1B O10 1_555 1_555
Ca2_2 O13 1_555 1_555
Ca2C O15 1_555 1_555
Ca2C_2 O14 1_555 1_555
Ca3_2 O9 1_555 1_555
Ca3_3 O4 1_555 1_555
Ca3C O14 1_555 1_555
C6 C7 1_555 1_555
C13 C14 1_555 1_555
C21 C22 1_555 1_555
C28 C29 1_555 1_555
C36 C37 1_555 1_555
C43 C44 1_555 1_555
O5 Ca2 1_555 1_555
O8 Ca3 1_555 1_555
O11 Ca1B 1_555 1_555
O12 Ca2 1_555 1_555
O15 Ca3C 1_555 1_555
Ca3 O14C 1_555 1_555
O4_2 Ca2_2 1_555 1_555
O15C Ca2_2 1_555 1_555
O15C_2 Ca3_3 1_555 1_555

#END
