
#######################################################################
#
#                 Cambridge Crystallographic Data Centre
#                                CCDC 
#
#######################################################################
#
# If this CIF has been generated from an entry in the Cambridge 
# Structural Database, then it will include bibliographic, chemical, 
# crystal, experimental, refinement or atomic coordinate data resulting 
# from the CCDC's data processing and validation procedures.
#
#######################################################################

data_QISKIN
_symmetry_cell_setting           triclinic
_symmetry_space_group_name_H-M   'P -1'
_symmetry_Int_Tables_number      2
_space_group_name_Hall           '-P 1'
loop_
_symmetry_equiv_pos_site_id
_symmetry_equiv_pos_as_xyz
1 x,y,z
2 -x,-y,-z
_cell_length_a                   8.7578(17)
_cell_length_b                   11.143(2)
_cell_length_c                   12.529(2)
_cell_angle_alpha                84.479(4)
_cell_angle_beta                 81.501(4)
_cell_angle_gamma                71.648(4)
_cell_volume                     1146.14
loop_
_atom_site_label
_atom_site_type_symbol
_atom_site_fract_x
_atom_site_fract_y
_atom_site_fract_z
Cu1 Cu 1.32033(3) 0.02281(2) 0.03196(2)
N1 N 1.1802(2) 0.04938(17) 0.17356(14)
K1 K 0.68070(6) 0.35995(5) 0.04690(4)
K2 K 1.05565(7) 0.41460(5) -0.15032(4)
O1 O 1.52955(19) 0.01438(15) 0.09760(12)
O2 O 1.21767(19) 0.21889(15) 0.01322(13)
O3 O 0.9852(2) 0.36224(15) 0.07047(14)
O4 O 1.2250(2) -0.11469(17) 0.02459(14)
O5 O 1.0944(2) -0.23467(17) 0.12629(15)
O6 O 1.6151(3) -0.3426(2) 0.71805(16)
O7 O 1.3502(3) -0.3079(2) 0.73392(17)
C1 C 1.5486(3) -0.0343(2) 0.19879(17)
C2 C 1.7024(3) -0.1120(2) 0.22411(18)
H1 H 1.7922 -0.1241 0.1718
C3 C 1.7199(3) -0.1692(2) 0.32446(19)
H2 H 1.8221 -0.2189 0.3401
C4 C 1.5859(3) -0.1545(2) 0.40508(18)
C5 C 1.6004(3) -0.2227(2) 0.50648(19)
H3 H 1.7014 -0.2760 0.5212
C6 C 1.4687(3) -0.2118(2) 0.58324(19)
C7 C 1.3187(3) -0.1264(2) 0.56249(19)
H4 H 1.2296 -0.1171 0.6152
C8 C 1.3000(3) -0.0566(2) 0.46659(19)
H5 H 1.1995 0.0006 0.4558
C9 C 1.4327(3) -0.0704(2) 0.38328(17)
C10 C 1.4168(3) -0.0070(2) 0.27870(17)
C11 C 1.2627(3) 0.0906(2) 0.25324(17)
H6 H 1.1892 0.1099 0.3196
H7 H 1.2866 0.1676 0.2246
C12 C 1.0349(3) 0.1532(2) 0.14854(18)
H8 H 0.9753 0.1907 0.2150
H9 H 0.9648 0.1197 0.1153
C13 C 1.0815(3) 0.2543(2) 0.07264(18)
C14 C 1.1390(3) -0.0680(2) 0.20990(18)
H10 H 1.0298 -0.0468 0.2478
H11 H 1.2129 -0.1177 0.2597
C15 C 1.1506(3) -0.1455(2) 0.11381(19)
C16 C 1.4795(3) -0.2929(2) 0.6863(2)
O8 O 0.9350(4) 0.5365(4) -0.3271(2)
H12 H 0.989(7) 0.600(5) -0.348(4)
H13 H 0.830(7) 0.575(5) -0.332(4)
O9 O 0.6565(3) 0.5791(2) -0.07391(19)
H14 H 0.660(5) 0.595(4) -0.135(3)
H15 H 0.681(5) 0.633(4) -0.049(3)
O10 O 1.3512(3) 0.4512(2) -0.1982(2)
H16 H 1.3468 0.5107 -0.2428
C17 C 1.5014(4) 0.3582(3) -0.2176(4)
H17 H 1.5162 0.3318 -0.2901
H18 H 1.5864 0.3921 -0.2085
H19 H 1.5047 0.2868 -0.1676
Cu1A Cu 1.67967(3) -0.02281(2) -0.03196(2)
K1A K 1.31930(6) -0.35995(5) -0.04690(4)
K1A_2 K 1.31930(6) -0.35995(5) 0.95310(4)
K1A_3 K 0.31930(6) 0.64005(5) -0.04690(4)
K2A K 0.94435(7) 0.58540(5) 0.15032(4)
K2A_2 K 0.94435(7) -0.41460(5) 0.15032(4)
O1A O 1.47045(19) -0.01438(15) -0.09760(12)
O3A O 1.0148(2) 0.63776(15) -0.07047(14)
O4A O 0.7750(2) 0.11469(17) -0.02459(14)
O5A O 0.9056(2) 0.23467(17) -0.12629(15)
O7A O 0.6498(3) 0.3079(2) 0.26608(17)
O9A O 0.3435(3) 0.4209(2) 0.07391(19)
H14A H 0.340(5) 0.405(4) 0.135(3)
H15A H 0.319(5) 0.367(4) 0.049(3)
O11 O 0.8720(8) 0.3273(7) 0.4079(5)
C18 C 0.9258(12) 0.3726(8) 0.5198(6)
O12? O 0.7707(13) 0.3857(10) 0.5109(7)
loop_
_geom_bond_atom_site_label_1
_geom_bond_atom_site_label_2
_geom_bond_site_symmetry_1
_geom_bond_site_symmetry_2
Cu1 N1 1_555 1_555
N1 C11 1_555 1_555
K1 O3 1_555 1_555
K2 O3 1_555 1_555
O1 Cu1 1_555 1_555
O2 Cu1 1_555 1_555
O3 C13 1_555 1_555
O4 Cu1 1_555 1_555
O5 C15 1_555 1_555
O6 C16 1_555 1_555
O7 C16 1_555 1_555
C1 O1 1_555 1_555
C2 C1 1_555 1_555
H1 C2 1_555 1_555
C3 C2 1_555 1_555
H2 C3 1_555 1_555
C4 C3 1_555 1_555
C5 C4 1_555 1_555
H3 C5 1_555 1_555
C6 C5 1_555 1_555
C7 C6 1_555 1_555
H4 C7 1_555 1_555
C8 C7 1_555 1_555
H5 C8 1_555 1_555
C9 C4 1_555 1_555
C10 C1 1_555 1_555
C11 C10 1_555 1_555
H6 C11 1_555 1_555
H7 C11 1_555 1_555
C12 N1 1_555 1_555
H8 C12 1_555 1_555
H9 C12 1_555 1_555
C13 O2 1_555 1_555
C14 N1 1_555 1_555
H10 C14 1_555 1_555
H11 C14 1_555 1_555
C15 O4 1_555 1_555
C16 C6 1_555 1_555
O8 K2 1_555 1_555
H12 O8 1_555 1_555
H13 O8 1_555 1_555
O9 K1 1_555 1_555
H14 O9 1_555 1_555
H15 O9 1_555 1_555
O10 K2 1_555 1_555
H16 O10 1_555 1_555
C17 O10 1_555 1_555
H17 C17 1_555 1_555
H18 C17 1_555 1_555
H19 C17 1_555 1_555
O11 C18 1_555 1_555
Cu1A O1 1_555 1_555
K1A O4 1_555 1_555
K1A_2 O7 1_555 1_555
K1A_3 O9 1_555 1_555
K2A O3 1_555 1_555
K2A_2 O5 1_555 1_555
O1A Cu1 1_555 1_555
O3A K2 1_555 1_555
O4A K1 1_555 1_555
O5A K2 1_555 1_555
O7A K1 1_555 1_555
O9A K1 1_555 1_555
H14A O9A 1_555 1_555
H15A O9A 1_555 1_555
C8 C9 1_555 1_555
C9 C10 1_555 1_555
C12 C13 1_555 1_555
C14 C15 1_555 1_555
Cu1A O1A 1_555 1_555
K1A_3 O9A 1_555 1_555
K2A O3A 1_555 1_555

#END
