
#######################################################################
#
#                 Cambridge Crystallographic Data Centre
#                                CCDC 
#
#######################################################################
#
# If this CIF has been generated from an entry in the Cambridge 
# Structural Database, then it will include bibliographic, chemical, 
# crystal, experimental, refinement or atomic coordinate data resulting 
# from the CCDC's data processing and validation procedures.
#
#######################################################################

data_QISNIR
_symmetry_cell_setting           orthorhombic
_symmetry_space_group_name_H-M   'P 21 21 21'
_symmetry_Int_Tables_number      19
_space_group_name_Hall           'P 2ac 2ab'
loop_
_symmetry_equiv_pos_site_id
_symmetry_equiv_pos_as_xyz
1 x,y,z
2 1/2-x,-y,1/2+z
3 -x,1/2+y,1/2-z
4 1/2+x,1/2-y,-z
_cell_length_a                   12.9179(4)
_cell_length_b                   15.2839(4)
_cell_length_c                   15.4266(4)
_cell_angle_alpha                90
_cell_angle_beta                 90
_cell_angle_gamma                90
_cell_volume                     3045.76
loop_
_atom_site_label
_atom_site_type_symbol
_atom_site_fract_x
_atom_site_fract_y
_atom_site_fract_z
Cd1 Cd 0.25899(5) 0.71115(4) -0.27524(4)
I1 I 0.41148(7) 0.78646(7) -0.17752(6)
O1 O 0.3472(5) 0.6692(4) -0.3890(4)
O2 O 0.2353(5) 0.5650(4) -0.4241(5)
O3 O 0.2930(5) 0.3954(4) -0.6925(4)
O4 O 0.4313(6) 0.4235(5) -0.7727(4)
O5 O 0.6317(6) 0.6888(4) -0.7230(5)
O6 O 0.6134(5) 0.7653(3) -0.6013(4)
O7 O -0.1033(7) 0.6284(7) -0.3958(8)
O8 O 0.0062(10) 0.4534(6) -0.4342(8)
O9 O 0.0538(9) 0.6114(8) -0.5602(5)
N1 N -0.2598(8) 0.5705(8) -0.3794(9)
N2 N -0.0288(13) 0.3154(6) -0.4406(10)
N3 N 0.1086(10) 0.5744(10) -0.6895(7)
C1 C 0.3133(7) 0.6122(6) -0.4389(6)
C2 C 0.3733(8) 0.4388(5) -0.7118(6)
C3 C 0.5858(7) 0.7041(6) -0.6514(6)
C4 C 0.3716(6) 0.5974(6) -0.5229(6)
C5 C 0.3474(6) 0.5266(5) -0.5759(6)
H1 H 0.2959 0.4876 -0.5592
C6 C 0.3977(7) 0.5142(5) -0.6512(5)
C7 C 0.4773(7) 0.5709(5) -0.6783(6)
H2 H 0.5128 0.5611 -0.7298
C8 C 0.5020(7) 0.6441(5) -0.6242(5)
C9 C 0.4499(7) 0.6548(5) -0.5468(5)
H3 H 0.4675 0.7010 -0.5104
C10 C -0.1868(10) 0.6003(11) -0.4246(11)
C11 C -0.2124(10) 0.6113(10) -0.5200(10)
H4 H -0.1526 0.6330 -0.5501
H5 H -0.2684 0.6520 -0.5262
H6 H -0.2322 0.5558 -0.5439
C12 C -0.2288(11) 0.5503(10) -0.2874(9)
H7 H -0.1632 0.5771 -0.2751
H8 H -0.2233 0.4881 -0.2801
H9 H -0.2802 0.5728 -0.2484
C13 C -0.3588(9) 0.5359(10) -0.4141(12)
H10 H -0.3672 0.5547 -0.4731
H11 H -0.4153 0.5576 -0.3799
H12 H -0.3580 0.4732 -0.4119
C14 C 0.0209(15) 0.3795(9) -0.4324(13)
C15 C 0.1334(14) 0.3546(9) -0.4196(13)
H13 H 0.1396 0.2920 -0.4183
H14 H 0.1580 0.3785 -0.3659
H15 H 0.1740 0.3775 -0.4666
C16 C -0.0168(14) 0.2189(6) -0.4329(11)
H16 H 0.0549 0.2049 -0.4238
H17 H -0.0406 0.1914 -0.4851
H18 H -0.0568 0.1982 -0.3846
C17 C -0.1420(16) 0.3427(9) -0.4558(12)
H19 H -0.1460 0.4052 -0.4610
H20 H -0.1837 0.3238 -0.4078
H21 H -0.1670 0.3162 -0.5082
C18 C 0.0986(14) 0.6164(11) -0.6260(9)
C19 C 0.0492(13) 0.4907(10) -0.6738(8)
H22 H 0.0191 0.4921 -0.6169
H23 H 0.0954 0.4417 -0.6782
H24 H -0.0047 0.4852 -0.7163
C20 C 0.1611(12) 0.5804(12) -0.7734(7)
H25 H 0.1959 0.6357 -0.7778
H26 H 0.1111 0.5754 -0.8192
H27 H 0.2108 0.5339 -0.7783
C21 C 0.1576(13) 0.7011(11) -0.6442(9)
H28 H 0.1516 0.7395 -0.5952
H29 H 0.1290 0.7291 -0.6945
H30 H 0.2293 0.6880 -0.6542
Cd2 Cd 0.06313(5) 0.59298(4) -0.41762(4)
Cd1A Cd 0.24101(5) 0.28885(4) -0.77524(4)
Cd1C Cd 0.75899(5) 0.78885(4) -0.72476(4)
O3A O 0.2070(5) 0.6046(4) -0.1925(4)
O4A O 0.0687(6) 0.5765(5) -0.2727(4)
O5C O 0.1317(6) 0.8112(4) -0.2770(5)
O6C O 0.1134(5) 0.7347(3) -0.3987(4)
Cd2A Cd 0.43687(5) 0.40702(4) -0.91762(4)
Cd2C Cd 0.56313(5) 0.90702(4) -0.58238(4)
loop_
_geom_bond_atom_site_label_1
_geom_bond_atom_site_label_2
_geom_bond_site_symmetry_1
_geom_bond_site_symmetry_2
Cd1 I1 1_555 1_555
O1 Cd1 1_555 1_555
O2 C1 1_555 1_555
O3 C2 1_555 1_555
O4 C2 1_555 1_555
O5 C3 1_555 1_555
O6 C3 1_555 1_555
O7 C10 1_555 1_555
O8 C14 1_555 1_555
O9 C18 1_555 1_555
N1 C10 1_555 1_555
N2 C14 1_555 1_555
N3 C18 1_555 1_555
C1 O1 1_555 1_555
C2 C6 1_555 1_555
C3 C8 1_555 1_555
C4 C1 1_555 1_555
C5 C4 1_555 1_555
H1 C5 1_555 1_555
C6 C5 1_555 1_555
C7 C6 1_555 1_555
H2 C7 1_555 1_555
C8 C7 1_555 1_555
C9 C4 1_555 1_555
H3 C9 1_555 1_555
C10 C11 1_555 1_555
C11 H4 1_555 1_555
H5 C11 1_555 1_555
H6 C11 1_555 1_555
C12 N1 1_555 1_555
H7 C12 1_555 1_555
H8 C12 1_555 1_555
H9 C12 1_555 1_555
C13 N1 1_555 1_555
H10 C13 1_555 1_555
H11 C13 1_555 1_555
H12 C13 1_555 1_555
C14 C15 1_555 1_555
C15 H13 1_555 1_555
H14 C15 1_555 1_555
H15 C15 1_555 1_555
C16 N2 1_555 1_555
H16 C16 1_555 1_555
H17 C16 1_555 1_555
H18 C16 1_555 1_555
C17 N2 1_555 1_555
H19 C17 1_555 1_555
H20 C17 1_555 1_555
H21 C17 1_555 1_555
C18 C21 1_555 1_555
C19 N3 1_555 1_555
H22 C19 1_555 1_555
H23 C19 1_555 1_555
H24 C19 1_555 1_555
C20 N3 1_555 1_555
H25 C20 1_555 1_555
H26 C20 1_555 1_555
H27 C20 1_555 1_555
C21 H28 1_555 1_555
H29 C21 1_555 1_555
H30 C21 1_555 1_555
Cd2 O2 1_555 1_555
Cd1A O3 1_555 1_555
Cd1C O5 1_555 1_555
O3A Cd1 1_555 1_555
O4A Cd2 1_555 1_555
O5C Cd1 1_555 1_555
O6C Cd1 1_555 1_555
Cd2A O4 1_555 1_555
Cd2C O6 1_555 1_555
O6 Cd1C 1_555 1_555
O7 Cd2 1_555 1_555
O8 Cd2 1_555 1_555
O9 Cd2 1_555 1_555
C8 C9 1_555 1_555
Cd2 O6C 1_555 1_555

#END
