
#######################################################################
#
#                 Cambridge Crystallographic Data Centre
#                                CCDC 
#
#######################################################################
#
# If this CIF has been generated from an entry in the Cambridge 
# Structural Database, then it will include bibliographic, chemical, 
# crystal, experimental, refinement or atomic coordinate data resulting 
# from the CCDC's data processing and validation procedures.
#
#######################################################################

data_QISSOC
_symmetry_cell_setting           triclinic
_symmetry_space_group_name_H-M   'P -1'
_symmetry_Int_Tables_number      2
_space_group_name_Hall           '-P 1'
loop_
_symmetry_equiv_pos_site_id
_symmetry_equiv_pos_as_xyz
1 x,y,z
2 -x,-y,-z
_cell_length_a                   7.221(2)
_cell_length_b                   12.633(4)
_cell_length_c                   13.785(5)
_cell_angle_alpha                112.122(5)
_cell_angle_beta                 95.235(3)
_cell_angle_gamma                90.445(5)
_cell_volume                     1158.87
loop_
_atom_site_label
_atom_site_type_symbol
_atom_site_fract_x
_atom_site_fract_y
_atom_site_fract_z
Mn1 Mn 0.22212(4) 0.26898(2) 0.01427(2)
O1 O 0.38782(19) 0.39389(11) 0.14687(10)
O2 O 0.4771(2) 0.30301(11) 0.25336(11)
O3 O 0.4379(2) 0.79666(12) 0.27322(11)
O4 O 0.5852(2) 0.90309(11) 0.42260(11)
O5 O 0.9170(3) 0.68699(14) 0.63174(15)
O6 O 0.8280(3) 0.51307(13) 0.58501(13)
O7 O 1.1670(2) 0.85534(13) 0.42774(12)
O8 O 1.0250(2) 0.69761(13) 0.40917(13)
O9 O 0.40390(18) 0.79286(12) 0.57934(11)
O10 O 0.43726(19) 0.92451(12) 0.73570(11)
O11 O 1.02887(18) 1.14934(11) 0.88731(10)
O12 O 1.1949(2) 1.16299(14) 0.76467(12)
O13 O -0.02366(18) 0.35110(11) 0.09287(10)
H1 H -0.0702 0.3205 0.1299
H2 H -0.1050 0.3522 0.0451
O14 O 0.22535(19) 0.16026(11) 0.10379(11)
O15 O 0.4645(2) 0.19367(13) -0.07031(11)
O16 O 0.2486(2) 0.39047(12) -0.05945(12)
N1 N 0.5319(2) 0.80999(13) 0.35623(12)
N2 N 0.8290(2) 0.60289(13) 0.57233(13)
N3 N 1.0547(2) 0.80042(14) 0.45352(13)
N4 N 0.4973(2) 0.86769(13) 0.65227(12)
C1 C 0.4638(2) 0.39000(15) 0.23097(14)
C2 C 0.5447(2) 0.50190(15) 0.31349(14)
C3 C 0.5153(2) 0.60341(15) 0.29877(14)
H3 H 0.4489 0.6023 0.2356
C4 C 0.5826(2) 0.70605(15) 0.37587(14)
C5 C 0.6871(2) 0.71317(15) 0.46907(14)
C6 C 0.7141(2) 0.60865(15) 0.48018(14)
C7 C 0.6435(2) 0.50466(15) 0.40512(14)
H4 H 0.6629 0.4359 0.4167
C8 C 1.0424(2) 0.95849(15) 0.61864(14)
H5 H 1.1610 0.9835 0.6086
C9 C 0.9511(2) 0.86233(15) 0.54298(14)
C10 C 0.7734(2) 0.82309(15) 0.54986(14)
C11 C 0.6908(2) 0.89122(15) 0.63841(14)
C12 C 0.7816(2) 0.98518(15) 0.71841(14)
H6 H 0.7215 1.0266 0.7791
C13 C 0.9601(2) 1.01821(15) 0.70917(14)
C14 C 1.0690(3) 1.11872(16) 0.79298(15)
H7 H 0.237(3) 0.0891(8) 0.0792(15)
H8 H 0.301(3) 0.1907(17) 0.1573(14)
H9 H 0.533(3) 0.1445(16) -0.0603(17)
H10 H 0.425(4) 0.171(2) -0.1342(10)
H11 H 0.268(4) 0.4604(10) -0.026(2)
H12 H 0.187(4) 0.382(3) -0.1159(14)
Mn1_2 Mn 1.22212(4) 1.26898(2) 1.01427(2)
O11_2 O 0.02887(18) 0.14934(11) -0.11269(10)
O17 O 0.75745(19) 0.07259(12) -0.02558(11)
H13 H 0.849(2) 0.090(2) -0.0493(17)
H14 H 0.777(3) 0.1023(19) 0.0394(8)
O18 O 0.2804(2) 0.62120(12) 0.04964(12)
H15 H 0.228(3) 0.632(2) 0.1025(14)
H16 H 0.367(3) 0.668(2) 0.057(2)
O19 O 0.0595(2) 0.58998(12) 0.19078(11)
H17 H 0.059(4) 0.6200(18) 0.2562(8)
H18 H 0.068(4) 0.5189(9) 0.1744(18)
O20 O 0.8159(2) 0.21685(14) 0.18291(11)
H19 H 0.721(2) 0.245(3) 0.2132(19)
H20 H 0.900(2) 0.212(2) 0.2266(16)
loop_
_geom_bond_atom_site_label_1
_geom_bond_atom_site_label_2
_geom_bond_site_symmetry_1
_geom_bond_site_symmetry_2
Mn1 O1 1_555 1_555
O1 C1 1_555 1_555
O2 C1 1_555 1_555
O3 N1 1_555 1_555
O4 N1 1_555 1_555
O5 N2 1_555 1_555
O6 N2 1_555 1_555
O7 N3 1_555 1_555
O8 N3 1_555 1_555
O9 N4 1_555 1_555
O10 N4 1_555 1_555
O11 C14 1_555 1_555
O12 C14 1_555 1_555
O13 Mn1 1_555 1_555
H1 O13 1_555 1_555
H2 O13 1_555 1_555
O14 Mn1 1_555 1_555
O15 Mn1 1_555 1_555
O16 Mn1 1_555 1_555
N1 C4 1_555 1_555
N2 C6 1_555 1_555
N3 C9 1_555 1_555
N4 C11 1_555 1_555
C1 C2 1_555 1_555
C2 C3 1_555 1_555
C3 H3 1_555 1_555
C4 C3 1_555 1_555
C5 C4 1_555 1_555
C6 C5 1_555 1_555
C7 C2 1_555 1_555
H4 C7 1_555 1_555
C8 H5 1_555 1_555
C9 C8 1_555 1_555
C10 C5 1_555 1_555
C11 C10 1_555 1_555
C12 C11 1_555 1_555
H6 C12 1_555 1_555
C13 C8 1_555 1_555
C14 C13 1_555 1_555
H7 O14 1_555 1_555
H8 O14 1_555 1_555
H9 O15 1_555 1_555
H10 O15 1_555 1_555
H11 O16 1_555 1_555
H12 O16 1_555 1_555
O17 H13 1_555 1_555
H14 O17 1_555 1_555
O18 H15 1_555 1_555
H16 O18 1_555 1_555
O19 H17 1_555 1_555
H18 O19 1_555 1_555
O20 H19 1_555 1_555
H20 O20 1_555 1_555
Mn1_2 O11 1_555 1_555
O11_2 Mn1 1_555 1_555
C6 C7 1_555 1_555
C9 C10 1_555 1_555
C12 C13 1_555 1_555

#END
