
#######################################################################
#
#                 Cambridge Crystallographic Data Centre
#                                CCDC 
#
#######################################################################
#
# If this CIF has been generated from an entry in the Cambridge 
# Structural Database, then it will include bibliographic, chemical, 
# crystal, experimental, refinement or atomic coordinate data resulting 
# from the CCDC's data processing and validation procedures.
#
#######################################################################

data_QISVIZ
_symmetry_cell_setting           triclinic
_symmetry_space_group_name_H-M   'P -1'
_symmetry_Int_Tables_number      2
_space_group_name_Hall           '-P 1'
loop_
_symmetry_equiv_pos_site_id
_symmetry_equiv_pos_as_xyz
1 x,y,z
2 -x,-y,-z
_cell_length_a                   11.7475(14)
_cell_length_b                   12.1487(14)
_cell_length_c                   12.8053(15)
_cell_angle_alpha                106.587(2)
_cell_angle_beta                 110.981(2)
_cell_angle_gamma                104.562(2)
_cell_volume                     1502.23
loop_
_atom_site_label
_atom_site_type_symbol
_atom_site_fract_x
_atom_site_fract_y
_atom_site_fract_z
Er1 Er 0.452840(17) 0.010639(15) 0.120938(15)
O1 O 0.4386(3) 0.1944(3) 0.2369(3)
O2 O 0.4119(3) 0.0452(3) 0.3015(3)
O3 O 0.3499(3) 0.0815(3) 0.6356(3)
O4 O 0.5117(3) 0.1468(3) 0.8251(3)
O5 O 0.6637(3) 0.1083(3) 0.2912(3)
O6 O 0.5770(3) 0.1208(2) 0.0594(2)
N1 N 0.2754(3) 0.0526(3) -0.0285(3)
N2 N 0.2142(3) -0.1364(3) 0.0407(3)
C1 C 0.4315(4) 0.1574(4) 0.3172(4)
C2 C 0.4487(4) 0.2496(4) 0.4325(4)
H1 H 0.4350 0.3216 0.4316
C3 C 0.4823(4) 0.2350(4) 0.5362(4)
H2 H 0.4893 0.1601 0.5349
C4 C 0.5095(4) 0.3290(4) 0.6533(4)
C5 C 0.5515(4) 0.4561(4) 0.6761(4)
H3 H 0.5654 0.4800 0.6174
C6 C 0.5729(4) 0.5466(4) 0.7833(4)
H4 H 0.5965 0.6298 0.7947
C7 C 0.5588(5) 0.5123(4) 0.8730(4)
H5 H 0.5730 0.5727 0.9454
C8 C 0.5238(5) 0.3892(4) 0.8562(4)
H6 H 0.5184 0.3678 0.9190
C9 C 0.4963(4) 0.2960(4) 0.7461(4)
C10 C 0.4483(4) 0.1632(4) 0.7315(4)
C11 C 0.3041(5) 0.1443(4) -0.0621(4)
H7 H 0.3929 0.1964 -0.0284
C12 C 0.2093(5) 0.1681(5) -0.1453(5)
H8 H 0.2350 0.2338 -0.1666
C13 C 0.0787(5) 0.0936(5) -0.1949(5)
H9 H 0.0140 0.1086 -0.2497
C14 C 0.0426(4) -0.0060(4) -0.1628(4)
C15 C -0.0911(5) -0.0910(6) -0.2134(5)
H10 H -0.1592 -0.0801 -0.2692
C16 C -0.1203(5) -0.1861(6) -0.1819(6)
H11 H -0.2085 -0.2405 -0.2174
C17 C -0.0204(4) -0.2074(5) -0.0954(5)
C18 C -0.0463(5) -0.3033(5) -0.0576(5)
H12 H -0.1330 -0.3603 -0.0909
C19 C 0.0536(5) -0.3142(5) 0.0272(5)
H13 H 0.0367 -0.3770 0.0542
C20 C 0.1839(5) -0.2284(4) 0.0736(5)
H14 H 0.2526 -0.2371 0.1309
C21 C 0.1138(4) -0.1248(4) -0.0432(4)
C22 C 0.1453(4) -0.0239(4) -0.0782(4)
H15 H 0.739(2) 0.150(4) 0.301(4)
H16 H 0.662(4) 0.065(4) 0.332(4)
H17 H 0.6528(19) 0.177(3) 0.108(3)
Er1A Er 0.547160(17) -0.010639(15) -0.120938(15)
Er1A_2 Er 0.547160(17) -0.010639(15) 0.879062(15)
O4A O 0.4883(3) -0.1468(3) 0.1749(3)
O6A O 0.4230(3) -0.1208(2) -0.0594(2)
O7 O 0.7602(5) 0.0942(5) 0.6229(4)
H18 H 0.734(5) 0.049(5) 0.5476(19)
H19 H 0.704(4) 0.078(6) 0.650(4)
N3 N -0.1671(4) 0.3549(4) 0.2313(4)
N4 N -0.0688(4) 0.2367(4) 0.3750(4)
C23 C -0.2106(6) 0.4153(5) 0.1654(6)
H20 H -0.2981 0.3767 0.1038
C24 C -0.1342(7) 0.5327(6) 0.1820(6)
H21 H -0.1699 0.5703 0.1321
C25 C -0.0071(7) 0.5913(5) 0.2719(6)
H22 H 0.0453 0.6703 0.2851
C26 C 0.0447(5) 0.5326(5) 0.3443(5)
C27 C 0.1779(6) 0.5893(6) 0.4411(6)
H23 H 0.2327 0.6684 0.4565
C28 C 0.2252(6) 0.5317(6) 0.5095(6)
H24 H 0.3120 0.5718 0.5725
C29 C 0.1462(5) 0.4097(6) 0.4887(5)
C30 C 0.1935(6) 0.3444(7) 0.5559(6)
H25 H 0.2805 0.3809 0.6184
C31 C 0.1142(6) 0.2289(7) 0.5309(6)
H26 H 0.1473 0.1833 0.5720
C32 C -0.0183(6) 0.1786(6) 0.4423(5)
H27 H -0.0740 0.1012 0.4295
C33 C 0.0113(4) 0.3494(4) 0.3955(4)
C34 C -0.0400(5) 0.4131(4) 0.3213(4)
loop_
_geom_bond_atom_site_label_1
_geom_bond_atom_site_label_2
_geom_bond_site_symmetry_1
_geom_bond_site_symmetry_2
Er1 O1 1_555 1_555
O1 C1 1_555 1_555
O2 Er1 1_555 1_555
O3 C10 1_555 1_555
O4 C10 1_555 1_555
O5 Er1 1_555 1_555
O6 Er1 1_555 1_555
N1 Er1 1_555 1_555
N2 Er1 1_555 1_555
C1 O2 1_555 1_555
C2 C1 1_555 1_555
H1 C2 1_555 1_555
C3 C2 1_555 1_555
H2 C3 1_555 1_555
C4 C3 1_555 1_555
C5 C4 1_555 1_555
H3 C5 1_555 1_555
C6 C5 1_555 1_555
H4 C6 1_555 1_555
C7 C6 1_555 1_555
H5 C7 1_555 1_555
C8 C7 1_555 1_555
H6 C8 1_555 1_555
C9 C4 1_555 1_555
C10 C9 1_555 1_555
C11 N1 1_555 1_555
H7 C11 1_555 1_555
C12 C11 1_555 1_555
H8 C12 1_555 1_555
C13 C12 1_555 1_555
H9 C13 1_555 1_555
C14 C13 1_555 1_555
C15 C14 1_555 1_555
H10 C15 1_555 1_555
C16 C15 1_555 1_555
H11 C16 1_555 1_555
C17 C16 1_555 1_555
C18 C17 1_555 1_555
H12 C18 1_555 1_555
C19 C18 1_555 1_555
H13 C19 1_555 1_555
C20 N2 1_555 1_555
H14 C20 1_555 1_555
C21 N2 1_555 1_555
C22 N1 1_555 1_555
H15 O5 1_555 1_555
H16 O5 1_555 1_555
H17 O6 1_555 1_555
O7 H18 1_555 1_555
H19 O7 1_555 1_555
N3 C23 1_555 1_555
N4 C32 1_555 1_555
C23 H20 1_555 1_555
C24 C23 1_555 1_555
H21 C24 1_555 1_555
C25 C24 1_555 1_555
H22 C25 1_555 1_555
C26 C25 1_555 1_555
C27 C26 1_555 1_555
H23 C27 1_555 1_555
C28 C27 1_555 1_555
H24 C28 1_555 1_555
C29 C28 1_555 1_555
C30 C29 1_555 1_555
H25 C30 1_555 1_555
C31 C30 1_555 1_555
H26 C31 1_555 1_555
C32 C31 1_555 1_555
H27 C32 1_555 1_555
C33 N4 1_555 1_555
C34 N3 1_555 1_555
Er1A O6 1_555 1_555
Er1A_2 O4 1_555 1_555
O4A Er1 1_555 1_555
O6A Er1 1_555 1_555
C8 C9 1_555 1_555
C14 C22 1_555 1_555
C17 C21 1_555 1_555
C19 C20 1_555 1_555
C21 C22 1_555 1_555
C26 C34 1_555 1_555
C29 C33 1_555 1_555
C33 C34 1_555 1_555
Er1A O6A 1_555 1_555

#END
