
#######################################################################
#
#                 Cambridge Crystallographic Data Centre
#                                CCDC 
#
#######################################################################
#
# If this CIF has been generated from an entry in the Cambridge 
# Structural Database, then it will include bibliographic, chemical, 
# crystal, experimental, refinement or atomic coordinate data resulting 
# from the CCDC's data processing and validation procedures.
#
#######################################################################

data_QISWOG
_symmetry_cell_setting           orthorhombic
_symmetry_space_group_name_H-M   'P 21 21 21'
_symmetry_Int_Tables_number      19
_space_group_name_Hall           'P 2ac 2ab'
loop_
_symmetry_equiv_pos_site_id
_symmetry_equiv_pos_as_xyz
1 x,y,z
2 1/2-x,-y,1/2+z
3 -x,1/2+y,1/2-z
4 1/2+x,1/2-y,-z
_cell_length_a                   14.9927(4)
_cell_length_b                   24.6112(5)
_cell_length_c                   30.6670(6)
_cell_angle_alpha                90
_cell_angle_beta                 90
_cell_angle_gamma                90
_cell_volume                     11315.8
loop_
_atom_site_label
_atom_site_type_symbol
_atom_site_fract_x
_atom_site_fract_y
_atom_site_fract_z
O49 O 0.7427(15) 0.4607(9) 0.2436(7)
O50 O 0.3752(18) 0.3993(10) 0.1266(8)
O51 O 0.506(2) 0.6510(12) -0.0020(9)
O52 O 0.999(3) 0.5022(16) 0.0634(12)
O53 O 0.551(3) 0.4698(16) 0.4560(12)
O54 O 1.136(4) 0.525(2) 0.3640(17)
Ge1 Ge 0.52181(8) 0.42207(5) 0.33955(4)
Ge2 Ge 0.85099(8) 0.63960(4) 0.24433(4)
Ge3 Ge 0.77059(8) 0.28018(4) 0.20817(4)
Ge4 Ge 0.95738(8) 0.32571(4) 0.22164(4)
Ge5 Ge 0.91450(8) 0.58037(5) 0.16385(4)
Ge6 Ge 0.47121(8) 0.52072(5) 0.28827(4)
V1 V 0.95694(13) 0.42157(8) 0.30184(6)
V2 V 0.64438(13) 0.60271(7) 0.27167(6)
V3 V 0.74126(13) 0.41815(7) 0.36049(6)
V4 V 0.50402(13) 0.40200(7) 0.22917(6)
V5 V 0.76171(13) 0.49217(7) 0.12652(6)
V6 V 0.62491(13) 0.32653(7) 0.28063(7)
V7 V 0.84555(13) 0.55110(7) 0.33052(6)
V8 V 0.81772(13) 0.33129(7) 0.31055(6)
V9 V 0.98656(13) 0.52641(7) 0.26086(7)
V10 V 0.97622(13) 0.45133(7) 0.18247(7)
V11 V 0.66179(14) 0.53198(7) 0.35161(6)
V12 V 0.63268(13) 0.37243(7) 0.16376(6)
V13 V 0.82991(13) 0.38547(7) 0.13961(6)
V14 V 0.54802(13) 0.51057(7) 0.18609(6)
V15 V 0.68623(13) 0.59028(7) 0.17528(6)
O1 O 0.7298(5) 0.5807(3) 0.3147(2)
O2 O 1.0862(6) 0.5480(4) 0.2725(3)
O3 O 0.9755(6) 0.5924(4) 0.1173(3)
O4 O 1.0676(6) 0.4457(3) 0.1567(3)
O5 O 0.5716(5) 0.5496(3) 0.3059(2)
O6 O 0.7456(5) 0.4010(3) 0.4097(2)
O7 O 0.9250(5) 0.3494(3) 0.2729(3)
O8 O 1.0432(5) 0.4097(3) 0.3315(3)
O9 O 0.8872(5) 0.5850(3) 0.3697(3)
O10 O 0.4825(6) 0.3830(4) 0.3819(3)
O11 O 0.3876(6) 0.5656(3) 0.2809(3)
O12 O 0.9917(5) 0.4503(3) 0.2446(3)
O13 O 0.9642(5) 0.5304(3) 0.1972(3)
O14 O 0.6357(6) 0.5587(3) 0.3968(3)
O15 O 0.8984(5) 0.5874(3) 0.2756(3)
O16 O 0.8485(6) 0.2816(3) 0.3417(3)
O17 O 0.4630(5) 0.5306(3) 0.1596(3)
O18 O 0.8042(5) 0.5616(3) 0.1536(2)
O19 O 0.7193(5) 0.2211(3) 0.1942(3)
O20 O 0.8874(5) 0.2703(3) 0.2092(3)
O21 O 0.6041(6) 0.6615(3) 0.2832(3)
O22 O 0.6226(5) 0.4549(3) 0.3515(3)
O23 O 0.5781(6) 0.2715(3) 0.2962(3)
O24 O 0.5829(6) 0.3396(3) 0.1264(3)
O25 O 0.8552(6) 0.3583(4) 0.0944(3)
O26 O 0.6997(5) 0.3574(3) 0.3255(2)
O27 O 0.7456(5) 0.3040(3) 0.2605(3)
O28 O 0.5958(5) 0.5724(3) 0.2182(3)
O29 O 0.4439(5) 0.4727(3) 0.3297(2)
O30 O 0.8738(5) 0.4587(3) 0.1435(2)
O31 O 0.9104(5) 0.6400(3) 0.1949(3)
O32 O 0.7613(5) 0.5004(3) 0.0747(2)
O33 O 0.4064(5) 0.3785(3) 0.2171(3)
O34 O 0.7722(5) 0.4946(3) 0.3564(2)
O35 O 0.8535(5) 0.4002(3) 0.3338(2)
O36 O 0.5942(5) 0.3465(3) 0.2208(2)
O37 O 0.8496(5) 0.7040(3) 0.2650(3)
O38 O 0.4968(5) 0.4818(3) 0.2422(2)
O39 O 0.5588(5) 0.4325(3) 0.1786(2)
O40 O 0.9281(5) 0.4975(3) 0.3101(3)
O41 O 0.7517(5) 0.3348(3) 0.1723(2)
O42 O 1.0653(5) 0.3041(3) 0.2182(3)
O43 O 0.6558(6) 0.6383(3) 0.1439(3)
O44 O 0.6540(5) 0.5210(3) 0.1504(2)
O45 O 0.9301(5) 0.3756(3) 0.1836(2)
O46 O 0.7164(5) 0.4214(3) 0.1353(2)
O47 O 0.7444(5) 0.6170(3) 0.2299(2)
O48 O 0.5339(5) 0.3846(3) 0.2917(2)
Mn1 Mn 1.11480(14) 0.23974(7) 0.17494(6)
Mn2 Mn 1.16480(12) 0.28815(7) 0.26664(6)
Mn3 Mn 0.32857(14) 0.59310(8) 0.22579(8)
Mn4 Mn 0.63944(18) 0.20788(11) 0.14339(8)
Mn5 Mn 0.68826(18) 0.51708(10) 0.01169(7)
N1 N 1.0703(9) 0.2571(5) 0.1040(4)
N2 N 1.2148(8) 0.1913(5) 0.1367(4)
H1 H 1.2690 0.1938 0.1492
H2 H 1.1988 0.1560 0.1362
N3 N 1.1937(11) 0.3250(5) 0.1510(5)
H3 H 1.1814 0.3521 0.1697
H4 H 1.2530 0.3194 0.1512
N4 N 0.9941(7) 0.1859(4) 0.1687(4)
H5 H 1.0084 0.1518 0.1767
H6 H 0.9508 0.1979 0.1866
C1 C 1.1253(16) 0.2235(12) 0.0731(7)
H7 H 1.0963 0.1887 0.0687
H8 H 1.1284 0.2418 0.0451
C2 C 1.2180(11) 0.2142(6) 0.0899(5)
H9 H 1.2508 0.2482 0.0897
H10 H 1.2489 0.1888 0.0710
C3 C 1.0796(15) 0.3179(8) 0.0970(7)
H11 H 1.0645 0.3258 0.0669
H12 H 1.0359 0.3360 0.1153
C4 C 1.1643(14) 0.3408(8) 0.1059(6)
H13 H 1.1610 0.3801 0.1037
H14 H 1.2074 0.3280 0.0847
C5 C 0.9715(13) 0.2383(8) 0.1012(5)
H15 H 0.9335 0.2649 0.1154
H16 H 0.9537 0.2359 0.0708
C6 C 0.9601(12) 0.1857(7) 0.1220(6)
H17 H 0.9921 0.1584 0.1054
H18 H 0.8974 0.1761 0.1219
N5 N 1.2498(8) 0.3033(5) 0.3306(4)
N6 N 1.3090(7) 0.2732(4) 0.2462(4)
H19 H 1.3115 0.2499 0.2237
H20 H 1.3355 0.3045 0.2384
N7 N 1.1944(8) 0.3811(4) 0.2669(4)
H21 H 1.2181 0.3907 0.2411
H22 H 1.1429 0.3995 0.2703
N8 N 1.0714(7) 0.2635(4) 0.3199(3)
H23 H 1.0195 0.2814 0.3167
H24 H 1.0600 0.2277 0.3176
C7 C 1.3454(10) 0.2879(7) 0.3239(5)
H25 H 1.3682 0.2707 0.3501
H26 H 1.3805 0.3202 0.3183
C8 C 1.3537(10) 0.2493(5) 0.2861(6)
H27 H 1.3259 0.2149 0.2934
H28 H 1.4162 0.2426 0.2799
C9 C 1.2466(9) 0.3629(6) 0.3397(5)
H29 H 1.1906 0.3715 0.3540
H30 H 1.2944 0.3721 0.3597
C10 C 1.2550(9) 0.3958(5) 0.3014(5)
H31 H 1.3156 0.3929 0.2906
H32 H 1.2447 0.4334 0.3093
C11 C 1.2106(13) 0.2721(9) 0.3637(7)
H33 H 1.2328 0.2845 0.3917
H34 H 1.2287 0.2345 0.3601
C12 C 1.1081(12) 0.2749(8) 0.3639(5)
H35 H 1.0847 0.2487 0.3846
H36 H 1.0893 0.3108 0.3733
N9 N 0.2583(8) 0.6230(5) 0.1622(5)
N10 N 0.2140(7) 0.6361(4) 0.2497(4)
H37 H 0.1732 0.6117 0.2588
H38 H 0.2303 0.6560 0.2729
N11 N 0.4277(7) 0.6490(4) 0.1966(4)
H39 H 0.4257 0.6811 0.2107
H40 H 0.4827 0.6350 0.2002
N12 N 0.2792(9) 0.5138(5) 0.1978(5)
H41 H 0.3257 0.4918 0.1917
H42 H 0.2438 0.4968 0.2172
C13 C 0.1705(11) 0.6426(7) 0.1757(5)
H43 H 0.1300 0.6120 0.1779
H44 H 0.1474 0.6670 0.1535
C14 C 0.1730(11) 0.6714(7) 0.2179(6)
H45 H 0.2072 0.7047 0.2151
H46 H 0.1130 0.6808 0.2270
C15 C 0.3164(11) 0.6632(7) 0.1427(6)
H47 H 0.2971 0.6989 0.1522
H48 H 0.3089 0.6617 0.1113
C16 C 0.4121(10) 0.6575(5) 0.1526(5)
H49 H 0.4361 0.6272 0.1361
H50 H 0.4430 0.6902 0.1434
C17 C 0.2284(14) 0.5261(9) 0.1572(8)
H51 H 0.2333 0.4954 0.1375
H52 H 0.1659 0.5304 0.1645
C18 C 0.2596(15) 0.5755(9) 0.1345(7)
H53 H 0.3199 0.5696 0.1240
H54 H 0.2218 0.5820 0.1093
N13 N 0.5413(10) 0.1936(6) 0.0860(4)
N14 N 0.5128(8) 0.2362(6) 0.1708(5)
H55 H 0.4918 0.2108 0.1893
H56 H 0.5227 0.2666 0.1863
N15 N 0.7082(10) 0.2497(5) 0.0881(4)
H57 H 0.7078 0.2858 0.0930
H58 H 0.7655 0.2389 0.0873
N16 N 0.6483(11) 0.1205(7) 0.1366(5)
H59 H 0.7001 0.1116 0.1236
H60 H 0.6474 0.1049 0.1632
C19 C 0.4513(14) 0.2046(10) 0.1048(7)
H61 H 0.4113 0.2130 0.0808
H62 H 0.4300 0.1713 0.1181
C20 C 0.4430(13) 0.2477(9) 0.1368(6)
H63 H 0.3840 0.2475 0.1498
H64 H 0.4533 0.2829 0.1235
C21 C 0.5686(13) 0.2325(8) 0.0529(5)
H65 H 0.5435 0.2676 0.0604
H66 H 0.5428 0.2216 0.0253
C22 C 0.6682(12) 0.2393(8) 0.0467(5)
H67 H 0.6933 0.2066 0.0341
H68 H 0.6799 0.2694 0.0270
C23 C 0.5480(15) 0.1356(9) 0.0722(6)
H69 H 0.5932 0.1321 0.0498
H70 H 0.4914 0.1240 0.0600
C24 C 0.5713(14) 0.0999(9) 0.1099(7)
H71 H 0.5860 0.0640 0.0989
H72 H 0.5195 0.0963 0.1286
N17 N 0.5954(10) 0.4423(6) 0.0135(4)
N18 N 0.6201(11) 0.5225(6) -0.0528(4)
H73 H 0.6100 0.5575 -0.0595
H74 H 0.6553 0.5082 -0.0736
N19 N 0.5741(12) 0.5442(7) 0.0541(5)
H75 H 0.5949 0.5516 0.0810
H76 H 0.5511 0.5750 0.0431
N20 N 0.7803(12) 0.4495(8) -0.0097(5)
H77 H 0.8066 0.4587 -0.0350
H78 H 0.8233 0.4448 0.0104
C25 C 0.5438(14) 0.4402(7) -0.0271(5)
H79 H 0.4845 0.4268 -0.0204
H80 H 0.5717 0.4140 -0.0464
C26 C 0.5344(12) 0.4927(8) -0.0513(6)
H81 H 0.5144 0.4854 -0.0808
H82 H 0.4897 0.5150 -0.0372
C27 C 0.5420(16) 0.4491(9) 0.0517(6)
H83 H 0.5779 0.4403 0.0771
H84 H 0.4930 0.4235 0.0507
C28 C 0.5052(13) 0.5045(9) 0.0573(6)
H85 H 0.4606 0.5113 0.0351
H86 H 0.4765 0.5073 0.0856
C29 C 0.6567(16) 0.3955(7) 0.0189(8)
H87 H 0.6240 0.3618 0.0153
H88 H 0.6823 0.3958 0.0480
C30 C 0.7316(19) 0.3989(9) -0.0154(9)
H89 H 0.7719 0.3684 -0.0120
H90 H 0.7062 0.3975 -0.0444
N21 N 0.7912(18) 0.7121(10) -0.0089(8)
N22 N 0.7761(13) 0.5888(7) 0.0049(6)
H91 H 0.8333 0.5777 0.0054
H92 H 0.7660 0.6044 -0.0212
N23 N 0.9054(12) 0.6967(7) -0.0928(5)
H93 H 0.9503 0.6801 -0.1063
H94 H 0.8870 0.7247 -0.1088
H95 H 0.8606 0.6734 -0.0892
N24 N 0.617(2) 0.6890(12) -0.0625(9)
H96 H 0.6567 0.6623 -0.0644
H97 H 0.5897 0.6931 -0.0881
H98 H 0.5768 0.6810 -0.0422
C31 C 0.8136(19) 0.6808(11) 0.0309(9)
H99 H 0.8764 0.6715 0.0295
H100 H 0.8058 0.7047 0.0558
C32 C 0.7630(16) 0.6303(9) 0.0396(7)
H101 H 0.7000 0.6388 0.0418
H102 H 0.7819 0.6153 0.0674
C33 C 0.874(3) 0.7507(16) -0.0250(13)
H103 H 0.8519 0.7792 -0.0440
H104 H 0.9025 0.7674 0.0000
C34 C 0.937(2) 0.7172(14) -0.0481(11)
H105 H 0.9512 0.6860 -0.0301
H106 H 0.9914 0.7378 -0.0522
C35 C 0.704(3) 0.7457(16) -0.0081(13)
H107 H 0.6656 0.7336 0.0154
H108 H 0.7172 0.7839 -0.0039
C36 C 0.660(2) 0.7366(15) -0.0516(11)
H109 H 0.6164 0.7655 -0.0551
H110 H 0.7052 0.7425 -0.0736
O37B O 1.1504(5) 0.2040(3) 0.2350(3)
Mn1B Mn 0.88520(14) 0.73974(7) 0.32506(6)
Mn2B Mn 0.83520(12) 0.78815(7) 0.23336(6)
loop_
_geom_bond_atom_site_label_1
_geom_bond_atom_site_label_2
_geom_bond_site_symmetry_1
_geom_bond_site_symmetry_2
Ge1 O10 1_555 1_555
Ge2 O15 1_555 1_555
Ge3 O19 1_555 1_555
Ge4 O7 1_555 1_555
Ge5 O3 1_555 1_555
Ge6 O5 1_555 1_555
V1 O7 1_555 1_555
V2 O1 1_555 1_555
V3 O6 1_555 1_555
V4 O33 1_555 1_555
V5 O18 1_555 1_555
V6 O23 1_555 1_555
V7 O1 1_555 1_555
V8 O7 1_555 1_555
V9 O2 1_555 1_555
V10 O4 1_555 1_555
V11 O1 1_555 1_555
V12 O24 1_555 1_555
V13 O25 1_555 1_555
V14 O17 1_555 1_555
V15 O18 1_555 1_555
O5 V2 1_555 1_555
O8 V1 1_555 1_555
O9 V7 1_555 1_555
O11 Ge6 1_555 1_555
O12 V1 1_555 1_555
O13 Ge5 1_555 1_555
O14 V11 1_555 1_555
O15 V7 1_555 1_555
O16 V8 1_555 1_555
O18 Ge5 1_555 1_555
O19 Mn4 1_555 1_555
O20 Ge3 1_555 1_555
O21 V2 1_555 1_555
O22 Ge1 1_555 1_555
O26 V3 1_555 1_555
O27 Ge3 1_555 1_555
O28 V2 1_555 1_555
O29 Ge1 1_555 1_555
O30 V5 1_555 1_555
O31 Ge2 1_555 1_555
O32 V5 1_555 1_555
O34 V3 1_555 1_555
O35 V1 1_555 1_555
O36 V4 1_555 1_555
O37 Ge2 1_555 1_555
O38 Ge6 1_555 1_555
O39 V4 1_555 1_555
O40 V1 1_555 1_555
O41 Ge3 1_555 1_555
O42 Ge4 1_555 1_555
O43 V15 1_555 1_555
O44 V5 1_555 1_555
O45 Ge4 1_555 1_555
O46 V5 1_555 1_555
O47 Ge2 1_555 1_555
O48 Ge1 1_555 1_555
Mn1 O42 1_555 1_555
Mn2 O42 1_555 1_555
Mn3 O11 1_555 1_555
Mn4 N13 1_555 1_555
Mn5 O32 1_555 1_555
N1 Mn1 1_555 1_555
N2 Mn1 1_555 1_555
H1 N2 1_555 1_555
H2 N2 1_555 1_555
N3 H3 1_555 1_555
H4 N3 1_555 1_555
N4 Mn1 1_555 1_555
H5 N4 1_555 1_555
H6 N4 1_555 1_555
C1 N1 1_555 1_555
H7 C1 1_555 1_555
H8 C1 1_555 1_555
C2 N2 1_555 1_555
H9 C2 1_555 1_555
H10 C2 1_555 1_555
C3 N1 1_555 1_555
H11 C3 1_555 1_555
H12 C3 1_555 1_555
C4 N3 1_555 1_555
H13 C4 1_555 1_555
H14 C4 1_555 1_555
C5 N1 1_555 1_555
H15 C5 1_555 1_555
H16 C5 1_555 1_555
C6 N4 1_555 1_555
H17 C6 1_555 1_555
H18 C6 1_555 1_555
N5 Mn2 1_555 1_555
N6 Mn2 1_555 1_555
H19 N6 1_555 1_555
H20 N6 1_555 1_555
N7 Mn2 1_555 1_555
H21 N7 1_555 1_555
H22 N7 1_555 1_555
N8 Mn2 1_555 1_555
H23 N8 1_555 1_555
H24 N8 1_555 1_555
C7 N5 1_555 1_555
H25 C7 1_555 1_555
H26 C7 1_555 1_555
C8 N6 1_555 1_555
H27 C8 1_555 1_555
H28 C8 1_555 1_555
C9 N5 1_555 1_555
H29 C9 1_555 1_555
H30 C9 1_555 1_555
C10 N7 1_555 1_555
H31 C10 1_555 1_555
H32 C10 1_555 1_555
C11 N5 1_555 1_555
H33 C11 1_555 1_555
H34 C11 1_555 1_555
C12 N8 1_555 1_555
H35 C12 1_555 1_555
H36 C12 1_555 1_555
N9 Mn3 1_555 1_555
N10 Mn3 1_555 1_555
H37 N10 1_555 1_555
H38 N10 1_555 1_555
N11 Mn3 1_555 1_555
H39 N11 1_555 1_555
H40 N11 1_555 1_555
N12 Mn3 1_555 1_555
H41 N12 1_555 1_555
H42 N12 1_555 1_555
C13 N9 1_555 1_555
H43 C13 1_555 1_555
H44 C13 1_555 1_555
C14 N10 1_555 1_555
H45 C14 1_555 1_555
H46 C14 1_555 1_555
C15 N9 1_555 1_555
H47 C15 1_555 1_555
H48 C15 1_555 1_555
C16 N11 1_555 1_555
H49 C16 1_555 1_555
H50 C16 1_555 1_555
C17 N12 1_555 1_555
H51 C17 1_555 1_555
H52 C17 1_555 1_555
C18 N9 1_555 1_555
H53 C18 1_555 1_555
H54 C18 1_555 1_555
N13 C19 1_555 1_555
N14 Mn4 1_555 1_555
H55 N14 1_555 1_555
H56 N14 1_555 1_555
N15 Mn4 1_555 1_555
H57 N15 1_555 1_555
H58 N15 1_555 1_555
N16 Mn4 1_555 1_555
H59 N16 1_555 1_555
H60 N16 1_555 1_555
C19 H61 1_555 1_555
H62 C19 1_555 1_555
C20 N14 1_555 1_555
H63 C20 1_555 1_555
H64 C20 1_555 1_555
C21 N13 1_555 1_555
H65 C21 1_555 1_555
H66 C21 1_555 1_555
C22 N15 1_555 1_555
H67 C22 1_555 1_555
H68 C22 1_555 1_555
C23 N13 1_555 1_555
H69 C23 1_555 1_555
H70 C23 1_555 1_555
C24 N16 1_555 1_555
H71 C24 1_555 1_555
H72 C24 1_555 1_555
N17 Mn5 1_555 1_555
N18 Mn5 1_555 1_555
H73 N18 1_555 1_555
H74 N18 1_555 1_555
N19 Mn5 1_555 1_555
H75 N19 1_555 1_555
H76 N19 1_555 1_555
N20 Mn5 1_555 1_555
H77 N20 1_555 1_555
H78 N20 1_555 1_555
C25 N17 1_555 1_555
H79 C25 1_555 1_555
H80 C25 1_555 1_555
C26 N18 1_555 1_555
H81 C26 1_555 1_555
H82 C26 1_555 1_555
C27 N17 1_555 1_555
H83 C27 1_555 1_555
H84 C27 1_555 1_555
C28 N19 1_555 1_555
H85 C28 1_555 1_555
H86 C28 1_555 1_555
C29 N17 1_555 1_555
H87 C29 1_555 1_555
H88 C29 1_555 1_555
C30 N20 1_555 1_555
H89 C30 1_555 1_555
H90 C30 1_555 1_555
N21 C31 1_555 1_555
N22 Mn5 1_555 1_555
H91 N22 1_555 1_555
H92 N22 1_555 1_555
N23 H93 1_555 1_555
H94 N23 1_555 1_555
H95 N23 1_555 1_555
N24 H96 1_555 1_555
H97 N24 1_555 1_555
H98 N24 1_555 1_555
C31 H99 1_555 1_555
H100 C31 1_555 1_555
C32 N22 1_555 1_555
H101 C32 1_555 1_555
H102 C32 1_555 1_555
C33 N21 1_555 1_555
H103 C33 1_555 1_555
H104 C33 1_555 1_555
C34 N23 1_555 1_555
H105 C34 1_555 1_555
H106 C34 1_555 1_555
C35 N21 1_555 1_555
H107 C35 1_555 1_555
H108 C35 1_555 1_555
C36 N24 1_555 1_555
H109 C36 1_555 1_555
H110 C36 1_555 1_555
O37B Mn1 1_555 1_555
Mn1B O37 1_555 1_555
Mn2B O37 1_555 1_555
Ge4 O20 1_555 1_555
Ge5 O31 1_555 1_555
Ge6 O29 1_555 1_555
V2 O47 1_555 1_555
V3 O22 1_555 1_555
V3 O35 1_555 1_555
V4 O38 1_555 1_555
V4 O48 1_555 1_555
V6 O26 1_555 1_555
V6 O27 1_555 1_555
V6 O36 1_555 1_555
V6 O48 1_555 1_555
V7 O34 1_555 1_555
V7 O40 1_555 1_555
V8 O26 1_555 1_555
V8 O27 1_555 1_555
V8 O35 1_555 1_555
V9 O12 1_555 1_555
V9 O13 1_555 1_555
V9 O15 1_555 1_555
V9 O40 1_555 1_555
V10 O12 1_555 1_555
V10 O13 1_555 1_555
V10 O30 1_555 1_555
V10 O45 1_555 1_555
V11 O5 1_555 1_555
V11 O22 1_555 1_555
V11 O34 1_555 1_555
V12 O36 1_555 1_555
V12 O39 1_555 1_555
V12 O41 1_555 1_555
V12 O46 1_555 1_555
V13 O30 1_555 1_555
V13 O41 1_555 1_555
V13 O45 1_555 1_555
V13 O46 1_555 1_555
V14 O28 1_555 1_555
V14 O38 1_555 1_555
V14 O39 1_555 1_555
V14 O44 1_555 1_555
V15 O28 1_555 1_555
V15 O44 1_555 1_555
V15 O47 1_555 1_555
Mn2 O37B 1_555 1_555
C1 C2 1_555 1_555
C3 C4 1_555 1_555
C5 C6 1_555 1_555
C7 C8 1_555 1_555
C9 C10 1_555 1_555
C11 C12 1_555 1_555
C13 C14 1_555 1_555
C15 C16 1_555 1_555
C17 C18 1_555 1_555
C19 C20 1_555 1_555
C21 C22 1_555 1_555
C23 C24 1_555 1_555
C25 C26 1_555 1_555
C27 C28 1_555 1_555
C29 C30 1_555 1_555
C31 C32 1_555 1_555
C33 C34 1_555 1_555
C35 C36 1_555 1_555

#END
