
#######################################################################
#
#                 Cambridge Crystallographic Data Centre
#                                CCDC 
#
#######################################################################
#
# If this CIF has been generated from an entry in the Cambridge 
# Structural Database, then it will include bibliographic, chemical, 
# crystal, experimental, refinement or atomic coordinate data resulting 
# from the CCDC's data processing and validation procedures.
#
#######################################################################

data_QISXUN
_symmetry_cell_setting           triclinic
_symmetry_space_group_name_H-M   'P -1'
_symmetry_Int_Tables_number      2
_space_group_name_Hall           '-P 1'
loop_
_symmetry_equiv_pos_site_id
_symmetry_equiv_pos_as_xyz
1 x,y,z
2 -x,-y,-z
_cell_length_a                   9.0654(6)
_cell_length_b                   10.4079(7)
_cell_length_c                   19.6210(13)
_cell_angle_alpha                86.4340(10)
_cell_angle_beta                 78.9580(10)
_cell_angle_gamma                75.2090(10)
_cell_volume                     1756.62
loop_
_atom_site_label
_atom_site_type_symbol
_atom_site_fract_x
_atom_site_fract_y
_atom_site_fract_z
Zn1 Zn 0.33044(2) 0.47851(2) 0.386749(11)
Zn2 Zn 1.36051(3) -0.23828(2) 0.054489(11)
O1 O 0.26145(18) 0.29949(18) 0.44055(8)
O2 O 0.4624(2) 0.36158(15) 0.45832(8)
O3 O 0.61348(15) 0.35335(13) 0.59584(7)
O4 O 0.81088(18) 0.34652(16) 0.50915(8)
O5 O 1.5734(2) -0.34765(16) -0.01094(8)
O6 O 1.44770(19) -0.15159(17) -0.04124(9)
O7 O 1.7304(2) -0.61075(15) -0.11828(9)
O8 O 1.7810(2) -0.64043(17) -0.01407(9)
N1 N 1.17146(19) -0.07502(17) 0.07625(9)
N2 N 0.8124(2) 0.26969(18) 0.11853(9)
H1 H 0.794(3) 0.314(2) 0.0808(10)
N3 N 0.48680(18) 0.41047(16) 0.29677(8)
N4 N 0.11411(18) 0.54622(16) 0.35928(8)
N5 N -0.33440(18) 0.67228(17) 0.31396(8)
H2 H -0.406(2) 0.663(2) 0.3483(10)
N6 N -0.51721(19) 0.77946(17) 0.13239(8)
C1 C 1.1641(2) 0.0351(2) 0.03649(10)
H3 H 1.2428 0.0348 -0.0017
C2 C 1.0462(2) 0.1484(2) 0.04923(10)
H4 H 1.0447 0.2214 0.0193
C3 C 0.9286(2) 0.1536(2) 0.10736(10)
C4 C 0.9340(2) 0.0381(2) 0.14781(11)
H5 H 0.8571 0.0353 0.1864
C5 C 1.0544(2) -0.0715(2) 0.12999(11)
H6 H 1.0548 -0.1483 0.1570
C6 C 0.4619(2) 0.44643(19) 0.23197(10)
H7 H 0.3676 0.5043 0.2269
C7 C 0.5674(2) 0.40261(19) 0.17298(10)
H8 H 0.5457 0.4333 0.1295
C8 C 0.7075(2) 0.31164(19) 0.17859(10)
C9 C 0.7348(2) 0.2741(2) 0.24571(10)
H9 H 0.8269 0.2145 0.2522
C10 C 0.6241(2) 0.3264(2) 0.30183(10)
H10 H 0.6455 0.3021 0.3460
C11 C 0.2677(3) 0.1355(2) 0.56161(11)
H11 H 0.1729 0.1668 0.5471
C12 C 0.2801(3) 0.0439(2) 0.61608(11)
H12 H 0.1936 0.0158 0.6387
C13 C 0.4223(3) -0.0053(2) 0.63645(11)
H13 H 0.4316 -0.0664 0.6730
C14 C 0.5496(3) 0.0365(2) 0.60243(10)
H14 H 0.6452 0.0005 0.6155
C15 C 0.5394(2) 0.13100(19) 0.54905(10)
C16 C 0.3953(2) 0.18119(19) 0.52840(10)
C17 C 0.3727(3) 0.2854(2) 0.47235(10)
C18 C 0.6846(2) 0.1713(2) 0.51584(11)
H15 H 0.6874 0.1793 0.4661
H16 H 0.7730 0.1004 0.5236
C19 C 0.7040(2) 0.30008(19) 0.54089(10)
C20 C 0.0838(2) 0.6323(2) 0.30699(10)
H17 H 0.1649 0.6645 0.2816
C21 C -0.0600(2) 0.6760(2) 0.28860(10)
H18 H -0.0743 0.7354 0.2516
C22 C -0.1840(2) 0.63026(19) 0.32600(10)
C23 C -0.1548(2) 0.54388(19) 0.38198(10)
H19 H -0.2346 0.5126 0.4092
C24 C -0.0075(2) 0.50554(19) 0.39654(10)
H20 H 0.0095 0.4484 0.4342
C25 C -0.6006(2) 0.8103(2) 0.19632(10)
H21 H -0.7048 0.8545 0.2000
C26 C -0.5416(2) 0.78071(19) 0.25626(10)
H22 H -0.6054 0.8035 0.2991
C27 C -0.3847(2) 0.71602(19) 0.25280(10)
C28 C -0.2947(2) 0.6924(2) 0.18641(11)
H23 H -0.1881 0.6566 0.1809
C29 C -0.3651(2) 0.7227(2) 0.12928(11)
H24 H -0.3037 0.7026 0.0857
C30 C 1.6348(3) -0.1624(2) -0.17100(11)
H25 H 1.5446 -0.0946 -0.1611
C31 C 1.7284(3) -0.1654(2) -0.23556(12)
H26 H 1.7011 -0.1008 -0.2689
C32 C 1.8631(3) -0.2657(2) -0.25010(12)
H27 H 1.9263 -0.2698 -0.2937
C33 C 1.9034(2) -0.3596(2) -0.19951(11)
H28 H 1.9955 -0.4253 -0.2095
C34 C 1.8108(2) -0.35922(19) -0.13435(10)
C35 C 1.6726(2) -0.2586(2) -0.12032(10)
C36 C 1.5593(2) -0.2523(2) -0.05358(11)
C37 C 1.8650(2) -0.4644(2) -0.08177(11)
H29 H 1.8500 -0.4217 -0.0375
H30 H 1.9756 -0.5015 -0.0962
C38 C 1.7855(2) -0.5774(2) -0.07086(11)
Zn1A Zn 0.66956(2) 0.52149(2) 0.613251(11)
Zn2_2 Zn -0.63949(3) 0.76172(2) 0.054489(11)
Zn2A Zn 1.63949(3) -0.76172(2) -0.054489(11)
O3A O 0.38652(15) 0.64665(13) 0.40416(7)
O7A O 1.2696(2) -0.38925(15) 0.11828(9)
O8A O 1.2190(2) -0.35957(17) 0.01407(9)
N6_2 N 1.48279(19) -0.22054(17) 0.13239(8)
O9 O 0.0450(2) 0.16110(18) 0.42117(9)
O10 O 0.1008(3) -0.0628(3) 0.34214(15)
loop_
_geom_bond_atom_site_label_1
_geom_bond_atom_site_label_2
_geom_bond_site_symmetry_1
_geom_bond_site_symmetry_2
Zn1 O1 1_555 1_555
Zn2 O5 1_555 1_555
O1 C17 1_555 1_555
O2 Zn1 1_555 1_555
O3 C19 1_555 1_555
O4 C19 1_555 1_555
O5 C36 1_555 1_555
O6 Zn2 1_555 1_555
O7 C38 1_555 1_555
O8 C38 1_555 1_555
N1 Zn2 1_555 1_555
N2 H1 1_555 1_555
N3 Zn1 1_555 1_555
N4 Zn1 1_555 1_555
N5 H2 1_555 1_555
N6 C25 1_555 1_555
C1 N1 1_555 1_555
H3 C1 1_555 1_555
C2 C1 1_555 1_555
H4 C2 1_555 1_555
C3 N2 1_555 1_555
C4 C3 1_555 1_555
H5 C4 1_555 1_555
C5 N1 1_555 1_555
H6 C5 1_555 1_555
C6 N3 1_555 1_555
H7 C6 1_555 1_555
C7 C6 1_555 1_555
H8 C7 1_555 1_555
C8 N2 1_555 1_555
C9 C8 1_555 1_555
H9 C9 1_555 1_555
C10 N3 1_555 1_555
H10 C10 1_555 1_555
C11 H11 1_555 1_555
C12 C11 1_555 1_555
H12 C12 1_555 1_555
C13 C12 1_555 1_555
H13 C13 1_555 1_555
C14 C13 1_555 1_555
H14 C14 1_555 1_555
C15 C14 1_555 1_555
C16 C11 1_555 1_555
C17 O2 1_555 1_555
C18 C15 1_555 1_555
H15 C18 1_555 1_555
H16 C18 1_555 1_555
C19 C18 1_555 1_555
C20 N4 1_555 1_555
H17 C20 1_555 1_555
C21 C20 1_555 1_555
H18 C21 1_555 1_555
C22 N5 1_555 1_555
C23 C22 1_555 1_555
H19 C23 1_555 1_555
C24 N4 1_555 1_555
H20 C24 1_555 1_555
C25 H21 1_555 1_555
C26 C25 1_555 1_555
H22 C26 1_555 1_555
C27 N5 1_555 1_555
C28 C27 1_555 1_555
H23 C28 1_555 1_555
C29 N6 1_555 1_555
H24 C29 1_555 1_555
C30 H25 1_555 1_555
C31 C30 1_555 1_555
H26 C31 1_555 1_555
C32 C31 1_555 1_555
H27 C32 1_555 1_555
C33 C32 1_555 1_555
H28 C33 1_555 1_555
C34 C33 1_555 1_555
C35 C30 1_555 1_555
C36 O6 1_555 1_555
C37 C34 1_555 1_555
H29 C37 1_555 1_555
H30 C37 1_555 1_555
C38 C37 1_555 1_555
Zn1A O3 1_555 1_555
Zn2_2 N6 1_555 1_555
Zn2A O7 1_555 1_555
O3A Zn1 1_555 1_555
O7A Zn2 1_555 1_555
O8A Zn2 1_555 1_555
N6_2 Zn2 1_555 1_555
O8 Zn2A 1_555 1_555
C2 C3 1_555 1_555
C4 C5 1_555 1_555
C7 C8 1_555 1_555
C9 C10 1_555 1_555
C15 C16 1_555 1_555
C16 C17 1_555 1_555
C21 C22 1_555 1_555
C23 C24 1_555 1_555
C26 C27 1_555 1_555
C28 C29 1_555 1_555
C34 C35 1_555 1_555
C35 C36 1_555 1_555

#END
