
#######################################################################
#
#                 Cambridge Crystallographic Data Centre
#                                CCDC 
#
#######################################################################
#
# If this CIF has been generated from an entry in the Cambridge 
# Structural Database, then it will include bibliographic, chemical, 
# crystal, experimental, refinement or atomic coordinate data resulting 
# from the CCDC's data processing and validation procedures.
#
#######################################################################

data_QISXEX
_symmetry_cell_setting           monoclinic
_symmetry_space_group_name_H-M   'P 21/c'
_symmetry_Int_Tables_number      14
_space_group_name_Hall           '-P 2ybc'
loop_
_symmetry_equiv_pos_site_id
_symmetry_equiv_pos_as_xyz
1 x,y,z
2 -x,1/2+y,1/2-z
3 -x,-y,-z
4 x,1/2-y,1/2+z
_cell_length_a                   7.3032(14)
_cell_length_b                   8.521(2)
_cell_length_c                   17.015(3)
_cell_angle_alpha                90
_cell_angle_beta                 93.194(11)
_cell_angle_gamma                90
_cell_volume                     1057.21
loop_
_atom_site_label
_atom_site_type_symbol
_atom_site_fract_x
_atom_site_fract_y
_atom_site_fract_z
Zn1 Zn 0.23547(4) 0.80377(4) 1.197305(19)
Br1 Br 0.53463(4) 0.87810(4) 1.23458(2)
N1 N 0.2765(3) 0.8190(3) 1.03528(14)
N2 N 0.2345(3) 0.7135(3) 1.08743(14)
N3 N 0.2986(3) 0.7444(3) 0.96773(14)
C1 C 0.3439(4) 0.8329(3) 0.89846(17)
H1 H 0.4184 0.7680 0.8660
H2 H 0.4162 0.9238 0.9149
C2 C 0.2297(4) 0.5674(3) 1.05295(17)
C3 C 0.2742(4) 0.5871(3) 0.97505(16)
C4 C 0.2543(5) 0.3178(4) 0.9532(2)
H3 H 0.2639 0.2302 0.9210
C5 C 0.2874(4) 0.4618(4) 0.92288(19)
H4 H 0.3169 0.4760 0.8709
C6 C 0.1938(4) 0.4184(4) 1.08281(19)
H5 H 0.1632 0.4035 1.1346
C7 C 0.2060(4) 0.2958(4) 1.0315(2)
H6 H 0.1817 0.1948 1.0489
C8 C 0.1777(4) 0.8864(3) 0.85040(16)
N4 N 0.1292(3) 0.8398(3) 0.77702(13)
N5 N 0.0650(3) 0.9954(3) 0.87415(14)
N6 N -0.0184(3) 0.9246(3) 0.75358(14)
N7 N -0.0537(3) 1.0170(3) 0.81242(14)
Zn1B Zn -0.23547(4) 1.19623(4) 0.802695(19)
Zn1C Zn 0.23547(4) 0.69623(4) 0.697305(19)
N4C N 0.1292(3) 0.6602(3) 1.27702(13)
N7B N 0.0537(3) 0.9830(3) 1.18758(14)
loop_
_geom_bond_atom_site_label_1
_geom_bond_atom_site_label_2
_geom_bond_site_symmetry_1
_geom_bond_site_symmetry_2
Zn1 Br1 1_555 1_555
N1 N2 1_555 1_555
N2 Zn1 1_555 1_555
N3 N1 1_555 1_555
C1 N3 1_555 1_555
H1 C1 1_555 1_555
H2 C1 1_555 1_555
C2 N2 1_555 1_555
C3 N3 1_555 1_555
C4 H3 1_555 1_555
C5 C3 1_555 1_555
H4 C5 1_555 1_555
C6 C2 1_555 1_555
H5 C6 1_555 1_555
C7 C4 1_555 1_555
H6 C7 1_555 1_555
C8 C1 1_555 1_555
N4 C8 1_555 1_555
N5 C8 1_555 1_555
N6 N4 1_555 1_555
N7 N5 1_555 1_555
Zn1B N7 1_555 1_555
Zn1C N4 1_555 1_555
N4C Zn1 1_555 1_555
N7B Zn1 1_555 1_555
C2 C3 1_555 1_555
C4 C5 1_555 1_555
C6 C7 1_555 1_555
N6 N7 1_555 1_555

#END
