
#######################################################################
#
#                 Cambridge Crystallographic Data Centre
#                                CCDC 
#
#######################################################################
#
# If this CIF has been generated from an entry in the Cambridge 
# Structural Database, then it will include bibliographic, chemical, 
# crystal, experimental, refinement or atomic coordinate data resulting 
# from the CCDC's data processing and validation procedures.
#
#######################################################################

data_QITCOM
_symmetry_cell_setting           orthorhombic
_symmetry_space_group_name_H-M   'P 21 21 21'
_symmetry_Int_Tables_number      19
_space_group_name_Hall           'P 2ac 2ab'
loop_
_symmetry_equiv_pos_site_id
_symmetry_equiv_pos_as_xyz
1 x,y,z
2 1/2-x,-y,1/2+z
3 -x,1/2+y,1/2-z
4 1/2+x,1/2-y,-z
_cell_length_a                   6.5897(3)
_cell_length_b                   10.7397(5)
_cell_length_c                   26.9228(12)
_cell_angle_alpha                90
_cell_angle_beta                 90
_cell_angle_gamma                90
_cell_volume                     1905.36
loop_
_atom_site_label
_atom_site_type_symbol
_atom_site_fract_x
_atom_site_fract_y
_atom_site_fract_z
Os1 Os -0.67476(3) 1.02058(2) 0.857929(8)
Na1 Na -1.0239(4) 0.8511(2) 0.75230(9)
Na2 Na -0.2523(3) 1.1105(2) 0.71856(9)
C1 C -0.3449(10) 0.8896(5) 0.9197(2)
H1 H -0.2851 0.8734 0.8882
C2 C -0.2465(10) 0.8465(6) 0.9616(2)
H2 H -0.1212 0.8031 0.9591
C3 C -0.3370(10) 0.8688(5) 1.0078(2)
H3 H -0.2755 0.8394 1.0375
C4 C -0.5160(10) 0.9337(6) 1.0095(2)
H4 H -0.5779 0.9518 1.0405
C5 C -0.6059(8) 0.9727(6) 0.9659(2)
C6 C -0.8001(8) 1.0409(5) 0.9637(2)
C7 C -0.9118(9) 1.0735(6) 1.0062(2)
H5 H -0.8657 1.0510 1.0384
C8 C -1.0910(9) 1.1394(6) 1.0000(2)
H6 H -1.1679 1.1638 1.0282
C9 C -1.1580(11) 1.1696(5) 0.9531(2)
H7 H -1.2799 1.2154 0.9486
C10 C -1.0436(9) 1.1319(5) 0.9127(2)
H8 H -1.0911 1.1522 0.8804
C11 C -0.5504(8) 1.1932(5) 0.8659(2)
C12 C -0.4663(8) 0.9685(6) 0.8096(2)
C13 C -0.8368(10) 1.0851(5) 0.8016(2)
C14 C -0.8181(10) 0.8521(5) 0.8492(2)
N1 N -0.5195(6) 0.9526(4) 0.92091(18)
N2 N -0.8702(7) 1.0684(4) 0.91671(17)
N3 N -0.4917(8) 1.2934(4) 0.87053(17)
N4 N -0.3429(9) 0.9320(4) 0.78206(18)
N5 N -0.9283(8) 1.1188(5) 0.76711(19)
N6 N -0.9045(8) 0.7600(5) 0.84178(19)
O1 O -1.1380(6) 0.9316(4) 0.67455(14)
H9 H -1.0329 0.9509 0.6580
H10 H -1.2195 0.8837 0.6603
O2 O -0.6927(7) 0.8004(4) 0.73127(14)
H11 H -0.6298 0.7844 0.7045
H12 H -0.6214 0.8647 0.7371
O3 O -0.6001(6) 1.1475(4) 0.69273(15)
H13 H -0.6934 1.1158 0.7069
H14 H -0.5980 1.2199 0.6859
Na1_2 Na -0.0239(4) 0.8511(2) 0.75230(9)
Na1B Na 0.0239(4) 1.3511(2) 0.74770(9)
Na1B_2 Na -0.9761(4) 1.3511(2) 0.74770(9)
Na2_2 Na -1.2523(3) 1.1105(2) 0.71856(9)
Na2B Na -0.7477(3) 0.6105(2) 0.78144(9)
N4_2 N -1.3429(9) 0.9320(4) 0.78206(18)
N5B N -1.0717(8) 0.6188(5) 0.73289(19)
N5_2 N 0.0717(8) 1.1188(5) 0.76711(19)
N6B N -0.0955(8) 1.2600(5) 0.65822(19)
O1_2 O -0.1380(6) 0.9316(4) 0.67455(14)
H9_2 H -0.0329 0.9509 0.6580
H10_2 H -0.2195 0.8837 0.6603
O2B O -0.3073(7) 1.3004(4) 0.76873(14)
H11B H -0.3702 1.2844 0.7955
H12B H -0.3786 1.3647 0.7629
O4 O -1.7931(6) 0.9934(4) 0.62015(14)
H15 H -1.7734 1.0524 0.6376
H16 H -1.6862 0.9584 0.6185
loop_
_geom_bond_atom_site_label_1
_geom_bond_atom_site_label_2
_geom_bond_site_symmetry_1
_geom_bond_site_symmetry_2
Os1 C11 1_555 1_555
Na1 C13 1_555 1_555
Na2 N4 1_555 1_555
C1 H1 1_555 1_555
C2 C1 1_555 1_555
H2 C2 1_555 1_555
C3 C2 1_555 1_555
H3 C3 1_555 1_555
C4 C3 1_555 1_555
H4 C4 1_555 1_555
C5 C4 1_555 1_555
C6 C5 1_555 1_555
C7 C6 1_555 1_555
H5 C7 1_555 1_555
C8 C7 1_555 1_555
H6 C8 1_555 1_555
C9 C8 1_555 1_555
H7 C9 1_555 1_555
C10 C9 1_555 1_555
H8 C10 1_555 1_555
C11 N3 1_555 1_555
C12 Os1 1_555 1_555
C13 Os1 1_555 1_555
C14 Os1 1_555 1_555
N1 Os1 1_555 1_555
N2 Os1 1_555 1_555
N4 C12 1_555 1_555
N5 Na1 1_555 1_555
N6 Na1 1_555 1_555
O1 Na1 1_555 1_555
H9 O1 1_555 1_555
H10 O1 1_555 1_555
O2 Na1 1_555 1_555
H11 O2 1_555 1_555
H12 O2 1_555 1_555
O3 Na2 1_555 1_555
H13 O3 1_555 1_555
H14 O3 1_555 1_555
O4 H15 1_555 1_555
H16 O4 1_555 1_555
Na1_2 N4 1_555 1_555
Na1B N5_2 1_555 1_555
Na1B_2 N5 1_555 1_555
Na2_2 N5 1_555 1_555
Na2B N6 1_555 1_555
N4_2 Na1 1_555 1_555
N5B Na1 1_555 1_555
N5_2 Na2 1_555 1_555
N6B Na2 1_555 1_555
O1_2 Na2 1_555 1_555
H9_2 O1_2 1_555 1_555
H10_2 O1_2 1_555 1_555
O2B Na2 1_555 1_555
H11B O2B 1_555 1_555
H12B O2B 1_555 1_555
Na1 C14 1_555 1_555
C1 N1 1_555 1_555
C5 N1 1_555 1_555
C6 N2 1_555 1_555
C10 N2 1_555 1_555
C13 N5 1_555 1_555
C14 N6 1_555 1_555
O1 Na2_2 1_555 1_555
O2 Na2B 1_555 1_555
Na1_2 N5_2 1_555 1_555
Na1_2 O1_2 1_555 1_555
Na1B N6B 1_555 1_555
Na1B O2B 1_555 1_555
Na2_2 N4_2 1_555 1_555
Na2B N5B 1_555 1_555

#END
