
#######################################################################
#
#                 Cambridge Crystallographic Data Centre
#                                CCDC 
#
#######################################################################
#
# If this CIF has been generated from an entry in the Cambridge 
# Structural Database, then it will include bibliographic, chemical, 
# crystal, experimental, refinement or atomic coordinate data resulting 
# from the CCDC's data processing and validation procedures.
#
#######################################################################

data_QITCED
_symmetry_cell_setting           orthorhombic
_symmetry_space_group_name_H-M   'P n m a'
_symmetry_Int_Tables_number      62
_space_group_name_Hall           '-P 2ac 2n'
loop_
_symmetry_equiv_pos_site_id
_symmetry_equiv_pos_as_xyz
1 x,y,z
2 1/2-x,-y,1/2+z
3 -x,1/2+y,-z
4 1/2+x,1/2-y,1/2-z
5 -x,-y,-z
6 1/2+x,y,1/2-z
7 x,1/2-y,z
8 1/2-x,1/2+y,1/2+z
_cell_length_a                   15.785(2)
_cell_length_b                   19.772(3)
_cell_length_c                   5.2115(8)
_cell_angle_alpha                90
_cell_angle_beta                 90
_cell_angle_gamma                90
_cell_volume                     1626.51
loop_
_atom_site_label
_atom_site_type_symbol
_atom_site_fract_x
_atom_site_fract_y
_atom_site_fract_z
Cu1 Cu 0.61876(5) 0.7500 0.62387(14)
Cu2 Cu 0.51005(4) 0.67076(3) 0.16442(10)
C1 C 0.6494(3) 0.60700(19) 0.7523(7)
H1 H 0.6815 0.6143 0.8995
C2 C 0.6279(3) 0.54455(18) 0.6559(8)
C3 C 0.5813(3) 0.55813(19) 0.4394(9)
H2 H 0.5580 0.5257 0.3315
C4 C 0.3888(3) 0.6953(2) -0.2550(8)
H3 H 0.3768 0.6504 -0.2942
C5 C 0.3530(4) 0.7500 -0.3740(10)
N1 N 0.6174(2) 0.65555(16) 0.6024(6)
N2 N 0.5746(2) 0.62501(17) 0.4069(7)
N3 N 0.4432(2) 0.71518(17) -0.0760(6)
I1 I 0.26020(3) 0.7500 -0.65627(7)
I2 I 0.66038(2) 0.450256(13) 0.79499(6)
C4F C 0.3888(3) 0.8047(2) -0.2550(8)
H3F H 0.3768 0.8496 -0.2942
N3F N 0.4432(2) 0.78482(17) -0.0760(6)
Cu2F Cu 0.51005(4) 0.82924(3) 0.16442(10)
C1F C 0.6494(3) 0.89300(19) 0.7523(7)
H1F H 0.6815 0.8857 0.8995
C2F C 0.6279(3) 0.95545(18) 0.6559(8)
C3F C 0.5813(3) 0.94187(19) 0.4394(9)
H2F H 0.5580 0.9743 0.3315
N1F N 0.6174(2) 0.84445(16) 0.6024(6)
N2F N 0.5746(2) 0.87499(17) 0.4069(7)
I2F I 0.66038(2) 1.049744(13) 0.79499(6)
Cu1C Cu 0.11876(5) 0.7500 -1.12387(14)
I1C I 0.76020(3) 0.7500 0.15627(7)
loop_
_geom_bond_atom_site_label_1
_geom_bond_atom_site_label_2
_geom_bond_site_symmetry_1
_geom_bond_site_symmetry_2
Cu1 N1 1_555 1_555
Cu2 N2 1_555 1_555
C1 H1 1_555 1_555
C2 C1 1_555 1_555
C3 C2 1_555 1_555
H2 C3 1_555 1_555
C4 H3 1_555 1_555
C5 C4 1_555 1_555
N1 C1 1_555 1_555
N2 C3 1_555 1_555
N3 Cu2 1_555 1_555
I1 C5 1_555 1_555
I2 C2 1_555 1_555
C4F C5 1_555 1_555
H3F C4F 1_555 1_555
N3F N3 1_555 1_555
Cu2F N3F 1_555 1_555
C1F H1F 1_555 1_555
C2F C1F 1_555 1_555
C3F C2F 1_555 1_555
H2F C3F 1_555 1_555
N1F Cu1 1_555 1_555
N2F Cu2F 1_555 1_555
I2F C2F 1_555 1_555
Cu1C I1 1_555 1_555
I1C Cu1 1_555 1_555
C4 N3 1_555 1_555
N1 N2 1_555 1_555
C4F N3F 1_555 1_555
C1F N1F 1_555 1_555
C3F N2F 1_555 1_555
N1F N2F 1_555 1_555

#END
