
#######################################################################
#
#                 Cambridge Crystallographic Data Centre
#                                CCDC 
#
#######################################################################
#
# If this CIF has been generated from an entry in the Cambridge 
# Structural Database, then it will include bibliographic, chemical, 
# crystal, experimental, refinement or atomic coordinate data resulting 
# from the CCDC's data processing and validation procedures.
#
#######################################################################

data_QITDAZ
_symmetry_cell_setting           monoclinic
_symmetry_space_group_name_H-M   'P 21/n'
_symmetry_Int_Tables_number      14
_space_group_name_Hall           '-P 2yn'
loop_
_symmetry_equiv_pos_site_id
_symmetry_equiv_pos_as_xyz
1 x,y,z
2 1/2-x,1/2+y,1/2-z
3 -x,-y,-z
4 1/2+x,1/2-y,1/2+z
_cell_length_a                   6.6192(5)
_cell_length_b                   11.4117(11)
_cell_length_c                   23.612(2)
_cell_angle_alpha                90
_cell_angle_beta                 92.371(5)
_cell_angle_gamma                90
_cell_volume                     1782.04
loop_
_atom_site_label
_atom_site_type_symbol
_atom_site_fract_x
_atom_site_fract_y
_atom_site_fract_z
Os1 Os 0.27399(3) 0.742273(15) 0.105743(8)
N1 N 0.4225(6) 0.6855(4) 0.03343(19)
N2 N 0.0814(6) 0.8023(3) 0.03842(18)
N3 N 0.3903(6) 0.6720(4) -0.0677(2)
N4 N 0.0320(6) 0.7974(4) -0.06263(19)
N5 N 0.5301(6) 0.9815(4) 0.1053(2)
N6 N 0.0378(7) 0.8348(4) 0.2097(2)
N7 N 0.0066(6) 0.5093(4) 0.1179(2)
N8 N 0.5966(7) 0.6301(5) 0.1911(2)
C1 C 0.6050(7) 0.6326(4) 0.0323(2)
H1 H 0.6792 0.6182 0.0669
C2 C 0.6850(8) 0.5994(4) -0.0180(2)
H2 H 0.8150 0.5643 -0.0187
C3 C 0.5709(8) 0.6186(4) -0.0677(2)
H3 H 0.6219 0.5933 -0.1027
C4 C 0.3260(7) 0.7052(4) -0.0170(2)
C5 C 0.1348(7) 0.7720(4) -0.0147(2)
C6 C -0.1358(8) 0.8621(4) -0.0576(2)
H4 H -0.2119 0.8835 -0.0910
C7 C -0.2018(8) 0.8986(4) -0.0057(2)
H5 H -0.3215 0.9440 -0.0032
C8 C -0.0884(7) 0.8673(4) 0.0423(2)
H6 H -0.1302 0.8916 0.0785
C9 C 0.1023(7) 0.5922(4) 0.1112(2)
C10 C 0.1228(7) 0.8020(5) 0.1702(2)
C11 C 0.4384(7) 0.8951(4) 0.1055(2)
C12 C 0.4783(7) 0.6733(4) 0.1599(2)
Na1 Na 0.1196(3) 0.68327(17) -0.15008(9)
Na2 Na -0.0770(3) 0.58764(18) 0.22787(9)
O1 O -0.2192(6) 0.7325(3) -0.18312(17)
H7 H -0.2899 0.6950 -0.2082
H8 H -0.2138 0.8076 -0.1981
O2 O 0.2629(6) 0.5555(3) 0.26029(17)
H9 H 0.2652 0.4765 0.2706
H10 H 0.3778 0.5651 0.2487
O3 O 0.1581(6) 0.6113(3) -0.24522(17)
H11 H 0.2603 0.6120 -0.2692
H12 H 0.0714 0.6445 -0.2694
O4 O 0.3473(9) 0.8368(4) -0.1791(2)
H13 H 0.3832 0.8921 -0.1568
H14 H 0.4656 0.8081 -0.1803
N7B N -0.0066(6) 0.4907(4) -0.1179(2)
N8_2 N -0.4034(7) 0.6301(5) 0.1911(2)
Na1B Na -0.1196(3) 0.31673(17) 0.15008(9)
Na2_2 Na 0.9230(3) 0.58764(18) 0.22787(9)
Na2B Na 0.0770(3) 0.41236(18) -0.22787(9)
Na2C Na 0.4230(3) 0.91236(18) -0.27213(9)
O3B O -0.1581(6) 0.3887(3) 0.24522(17)
H11B H -0.2603 0.3880 0.2692
H12B H -0.0714 0.3555 0.2694
O4C O -0.1527(9) 0.6632(4) 0.3209(2)
H13C H -0.1168 0.6079 0.3432
H14C H -0.0344 0.6919 0.3197
loop_
_geom_bond_atom_site_label_1
_geom_bond_atom_site_label_2
_geom_bond_site_symmetry_1
_geom_bond_site_symmetry_2
Os1 N1 1_555 1_555
N1 C1 1_555 1_555
N2 Os1 1_555 1_555
N3 C3 1_555 1_555
N4 C5 1_555 1_555
N5 C11 1_555 1_555
N6 C10 1_555 1_555
N7 C9 1_555 1_555
N8 C12 1_555 1_555
C1 H1 1_555 1_555
C2 C1 1_555 1_555
H2 C2 1_555 1_555
C3 C2 1_555 1_555
H3 C3 1_555 1_555
C4 N1 1_555 1_555
C5 N2 1_555 1_555
C6 N4 1_555 1_555
H4 C6 1_555 1_555
C7 C6 1_555 1_555
H5 C7 1_555 1_555
C8 N2 1_555 1_555
H6 C8 1_555 1_555
C9 Os1 1_555 1_555
C10 Os1 1_555 1_555
C11 Os1 1_555 1_555
C12 Os1 1_555 1_555
Na1 N3 1_555 1_555
Na2 N6 1_555 1_555
O1 Na1 1_555 1_555
H7 O1 1_555 1_555
H8 O1 1_555 1_555
O2 Na2 1_555 1_555
H9 O2 1_555 1_555
H10 O2 1_555 1_555
O3 Na1 1_555 1_555
H11 O3 1_555 1_555
H12 O3 1_555 1_555
O4 Na1 1_555 1_555
H13 O4 1_555 1_555
H14 O4 1_555 1_555
N7B Na1 1_555 1_555
N8_2 Na2 1_555 1_555
Na1B N7 1_555 1_555
Na2_2 N8 1_555 1_555
Na2B O3 1_555 1_555
Na2C O4 1_555 1_555
O3B Na2 1_555 1_555
H11B O3B 1_555 1_555
H12B O3B 1_555 1_555
O4C Na2 1_555 1_555
H13C O4C 1_555 1_555
H14C O4C 1_555 1_555
N3 C4 1_555 1_555
N4 Na1 1_555 1_555
N7 Na2 1_555 1_555
C4 C5 1_555 1_555
C7 C8 1_555 1_555
C9 Na2 1_555 1_555
C10 Na2 1_555 1_555
N7B Na2B 1_555 1_555
Na1B O3B 1_555 1_555

#END
