
#######################################################################
#
#                 Cambridge Crystallographic Data Centre
#                                CCDC 
#
#######################################################################
#
# If this CIF has been generated from an entry in the Cambridge 
# Structural Database, then it will include bibliographic, chemical, 
# crystal, experimental, refinement or atomic coordinate data resulting 
# from the CCDC's data processing and validation procedures.
#
#######################################################################

data_QITLEM
_symmetry_cell_setting           triclinic
_symmetry_space_group_name_H-M   'P -1'
_symmetry_Int_Tables_number      2
_space_group_name_Hall           '-P 1'
loop_
_symmetry_equiv_pos_site_id
_symmetry_equiv_pos_as_xyz
1 x,y,z
2 -x,-y,-z
_cell_length_a                   8.760(5)
_cell_length_b                   9.392(5)
_cell_length_c                   10.012(5)
_cell_angle_alpha                84.213(5)
_cell_angle_beta                 64.615(5)
_cell_angle_gamma                82.318(5)
_cell_volume                     736.643
loop_
_atom_site_label
_atom_site_type_symbol
_atom_site_fract_x
_atom_site_fract_y
_atom_site_fract_z
Zn1 Zn 1.0000 0.5000 0.0000
O1 O 1.0500(2) 0.12596(17) 0.1214(2)
O2 O 1.0656(2) 0.2101(2) 0.30673(17)
O3 O 1.13635(16) 0.33658(14) 0.10048(16)
N1 N 0.89156(18) 0.61175(16) 0.19943(16)
N2 N 0.74250(19) 0.77184(16) 0.36436(16)
N3 N 0.77743(18) 0.39279(16) 0.06990(17)
N4 N 0.61041(18) 0.24056(16) 0.06390(18)
N5 N 1.08199(19) 0.22223(18) 0.17780(19)
C1 C 0.6119(2) 0.4529(2) 0.1307(2)
H1 H 0.5768 0.5441 0.1683
C2 C 0.5073(2) 0.3608(2) 0.1283(2)
H2 H 0.3898 0.3757 0.1631
C3 C 0.7712(2) 0.2644(2) 0.0315(2)
H3 H 0.8656 0.1987 -0.0123
C4 C 0.5579(2) 0.11616(19) 0.0281(2)
C5 C 0.4392(2) 0.0409(2) 0.1434(2)
H4 H 0.3999 0.0702 0.2396
C6 C 0.6225(2) 0.0782(2) -0.1178(2)
C7 C 0.7538(3) 0.1564(2) -0.2456(2)
H5 H 0.8634 0.1300 -0.2455
H6 H 0.7254 0.2583 -0.2358
H7 H 0.7560 0.1308 -0.3369
C8 C 0.7871(2) 0.73025(19) 0.2265(2)
H8 H 0.7489 0.7791 0.1593
C9 C 0.9162(3) 0.5758(2) 0.3255(2)
H9 H 0.9848 0.4962 0.3385
C10 C 0.8253(3) 0.6738(2) 0.4281(2)
H10 H 0.8201 0.6746 0.5228
C11 C 0.6168(2) 0.88862(19) 0.43498(19)
C12 C 0.4489(2) 0.85905(19) 0.51660(19)
C13 C 0.3942(3) 0.7107(2) 0.5332(2)
H11 H 0.4430 0.6487 0.5901
H12 H 0.4320 0.6734 0.4371
H13 H 0.2726 0.7153 0.5829
C14 C 0.6684(2) 1.0247(2) 0.4176(2)
H14 H 0.7821 1.0388 0.3618
N1A N 0.10844(18) 1.38825(16) 0.80057(16)
N2A N 0.25750(19) 1.22816(16) 0.63564(16)
C8A C 0.2129(2) 1.26975(19) 0.7735(2)
H8A H 0.2511 1.2209 0.8407
C9A C 0.0838(3) 1.4242(2) 0.6745(2)
H9A H 0.0152 1.5038 0.6615
C10A C 0.1747(3) 1.3262(2) 0.5719(2)
H10A H 0.1799 1.3254 0.4772
C11A C 0.3832(2) 1.11138(19) 0.56502(19)
C12A C 0.5511(2) 1.14095(19) 0.48340(19)
C13A C 0.6058(3) 1.2893(2) 0.4668(2)
H11A H 0.5570 1.3513 0.4099
H12A H 0.5680 1.3266 0.5629
H13A H 0.7274 1.2847 0.4171
C14A C 0.3316(2) 0.9753(2) 0.5824(2)
H14A H 0.2179 0.9612 0.6382
N3A N 0.22257(18) -0.39279(16) -0.06990(17)
N4A N 0.38959(18) -0.24056(16) -0.06390(18)
C1A C 0.3881(2) -0.4529(2) -0.1307(2)
H1A H 0.4232 -0.5441 -0.1683
C2A C 0.4927(2) -0.3608(2) -0.1283(2)
H2A H 0.6102 -0.3757 -0.1631
C3A C 0.2288(2) -0.2644(2) -0.0315(2)
H3A H 0.1344 -0.1987 0.0123
C4A C 0.4421(2) -0.11616(19) -0.0281(2)
C5A C 0.5608(2) -0.0409(2) -0.1434(2)
H4A H 0.6001 -0.0702 -0.2396
C6A C 0.3775(2) -0.0782(2) 0.1178(2)
C7A C 0.2462(3) -0.1564(2) 0.2456(2)
H5A H 0.1366 -0.1300 0.2455
H6A H 0.2746 -0.2583 0.2358
H7A H 0.2440 -0.1308 0.3369
O1A O 0.9500(2) 0.87404(17) -0.1214(2)
O2A O 0.9344(2) 0.7899(2) -0.30673(17)
O3A O 0.86365(16) 0.66342(14) -0.10048(16)
N5A N 0.91801(19) 0.77777(18) -0.17780(19)
Zn1_2 Zn 0.0000 -0.5000 0.0000
Zn1_3 Zn 0.0000 1.5000 1.0000
N1A_2 N 1.10844(18) 0.38825(16) -0.19943(16)
N3A_2 N 1.22257(18) 0.60721(16) -0.06990(17)
loop_
_geom_bond_atom_site_label_1
_geom_bond_atom_site_label_2
_geom_bond_site_symmetry_1
_geom_bond_site_symmetry_2
Zn1 O3 1_555 1_555
O1 N5 1_555 1_555
O2 N5 1_555 1_555
O3 N5 1_555 1_555
N1 Zn1 1_555 1_555
N2 C8 1_555 1_555
N3 Zn1 1_555 1_555
N4 C2 1_555 1_555
C1 N3 1_555 1_555
H1 C1 1_555 1_555
C2 C1 1_555 1_555
H2 C2 1_555 1_555
C3 N3 1_555 1_555
H3 C3 1_555 1_555
C4 N4 1_555 1_555
C5 C4 1_555 1_555
H4 C5 1_555 1_555
C6 C4 1_555 1_555
C7 C6 1_555 1_555
H5 C7 1_555 1_555
H6 C7 1_555 1_555
H7 C7 1_555 1_555
C8 N1 1_555 1_555
H8 C8 1_555 1_555
C9 N1 1_555 1_555
H9 C9 1_555 1_555
C10 N2 1_555 1_555
H10 C10 1_555 1_555
C11 N2 1_555 1_555
C12 C11 1_555 1_555
C13 C12 1_555 1_555
H11 C13 1_555 1_555
H12 C13 1_555 1_555
H13 C13 1_555 1_555
C14 C11 1_555 1_555
H14 C14 1_555 1_555
N1A C8A 1_555 1_555
N2A C8A 1_555 1_555
C8A H8A 1_555 1_555
C9A N1A 1_555 1_555
H9A C9A 1_555 1_555
C10A N2A 1_555 1_555
H10A C10A 1_555 1_555
C11A N2A 1_555 1_555
C12A C14 1_555 1_555
C13A C12A 1_555 1_555
H11A C13A 1_555 1_555
H12A C13A 1_555 1_555
H13A C13A 1_555 1_555
C14A C12 1_555 1_555
H14A C14A 1_555 1_555
N3A C1A 1_555 1_555
N4A C2A 1_555 1_555
C1A H1A 1_555 1_555
C2A C1A 1_555 1_555
H2A C2A 1_555 1_555
C3A N3A 1_555 1_555
H3A C3A 1_555 1_555
C4A N4A 1_555 1_555
C5A C6 1_555 1_555
H4A C5A 1_555 1_555
C6A C5 1_555 1_555
C7A C6A 1_555 1_555
H5A C7A 1_555 1_555
H6A C7A 1_555 1_555
H7A C7A 1_555 1_555
O1A N5A 1_555 1_555
O2A N5A 1_555 1_555
O3A Zn1 1_555 1_555
N5A O3A 1_555 1_555
Zn1_2 N3A 1_555 1_555
Zn1_3 N1A 1_555 1_555
N1A_2 Zn1 1_555 1_555
N3A_2 Zn1 1_555 1_555
N4 C3 1_555 1_555
C9 C10 1_555 1_555
C9A C10A 1_555 1_555
C11A C12A 1_555 1_555
C11A C14A 1_555 1_555
N4A C3A 1_555 1_555
C4A C5A 1_555 1_555
C4A C6A 1_555 1_555

#END
