
#######################################################################
#
#                 Cambridge Crystallographic Data Centre
#                                CCDC 
#
#######################################################################
#
# If this CIF has been generated from an entry in the Cambridge 
# Structural Database, then it will include bibliographic, chemical, 
# crystal, experimental, refinement or atomic coordinate data resulting 
# from the CCDC's data processing and validation procedures.
#
#######################################################################

data_QITLAI
_symmetry_cell_setting           triclinic
_symmetry_space_group_name_H-M   'P -1'
_symmetry_Int_Tables_number      2
_space_group_name_Hall           '-P 1'
loop_
_symmetry_equiv_pos_site_id
_symmetry_equiv_pos_as_xyz
1 x,y,z
2 -x,-y,-z
_cell_length_a                   9.191(5)
_cell_length_b                   16.420(5)
_cell_length_c                   12.062(5)
_cell_angle_alpha                90.000(5)
_cell_angle_beta                 98.506(5)
_cell_angle_gamma                90.000(5)
_cell_volume                     1800.33
loop_
_atom_site_label
_atom_site_type_symbol
_atom_site_fract_x
_atom_site_fract_y
_atom_site_fract_z
Zn1 Zn 0.37373(3) 0.489181(17) 0.56306(3)
Zn2 Zn 0.87376(3) 0.010824(17) 1.06307(2)
N1 N 0.0743(3) 0.47987(17) 0.7846(2)
N2 N 0.5746(3) 0.02030(17) 1.2847(2)
O1 O 0.1830(2) 0.09552(12) 0.01815(18)
O2 O 0.3117(3) 0.42980(13) 0.41649(19)
O3 O 0.4984(3) 0.44101(14) 0.31951(19)
O4 O 0.6831(3) 0.40451(12) 0.51867(19)
C1 C 0.8234(3) 0.16424(17) 0.6465(2)
C2 C 0.3234(3) 0.33569(16) 0.1459(2)
N3 N 0.2033(3) 0.47257(15) 0.6461(2)
O5 O -0.0028(3) 0.10965(13) 0.1162(2)
O6 O 0.4971(3) 0.39068(13) 0.6157(2)
O7 O 0.8121(3) 0.07030(13) 0.91646(19)
C3 C 0.8099(3) 0.15646(17) 0.7629(2)
N4 N 0.7030(3) 0.02715(15) 1.1460(2)
C4 C 0.3096(3) 0.34362(16) 0.2624(2)
C5 C 0.2591(3) 0.26676(16) 0.0853(2)
C6 C 0.6727(4) 0.28206(18) 0.7528(3)
H1 H 0.6227 0.3207 0.7891
C7 C 0.2354(4) 0.28494(18) 0.3128(3)
H2 H 0.2270 0.2901 0.3884
C8 C 0.1724(4) 0.21773(18) 0.2530(3)
H3 H 0.1219 0.1793 0.2891
C9 C 0.1839(3) 0.20766(16) 0.1422(2)
C10 C 0.7595(3) 0.23338(16) 0.5852(2)
C11 C 0.6839(3) 0.29247(16) 0.6421(2)
C12 C 0.2021(3) 0.49726(19) 0.7490(2)
H4 H 0.2803 0.5236 0.7922
C13 C 0.7345(4) 0.21473(18) 0.8125(3)
H5 H 0.7244 0.2092 0.8877
C14 C 0.3782(4) 0.41052(17) 0.3372(3)
C15 C 0.7024(3) 0.00254(19) 1.2493(2)
H6 H 0.7807 -0.0238 1.2925
C16 C 0.0374(3) 0.4927(2) 0.8953(3)
C17 C 0.2692(4) 0.26157(19) -0.0311(3)
H7 H 0.2280 0.2171 -0.0721
C18 C 0.8782(4) 0.08946(17) 0.8375(2)
C19 C 0.7684(4) 0.23813(19) 0.4687(3)
H8 H 0.7255 0.2821 0.4276
C20 C 0.3924(4) 0.39560(19) 0.0877(3)
H9 H 0.4321 0.4416 0.1259
C21 C -0.0193(4) 0.4269(2) 0.9460(3)
H10 H -0.0313 0.3777 0.9076
C22 C 0.0690(4) 0.4369(2) 0.6131(3)
H11 H 0.0380 0.4136 0.5433
C23 C 0.4802(4) 0.0730(2) 1.4457(3)
H12 H 0.4665 0.1220 1.4069
C24 C 0.5385(3) 0.0076(2) 1.3956(3)
C25 C 0.8926(4) 0.10460(19) 0.5873(3)
H13 H 0.9332 0.0588 0.6253
C26 C 0.5689(4) 0.0632(2) 1.1132(3)
H14 H 0.5378 0.0866 1.0436
C27 C -0.0591(4) 0.4322(2) 1.0533(3)
C28 C 0.4411(4) 0.0678(2) 1.5529(3)
C29 C 0.8376(4) 0.1802(2) 0.4162(3)
H15 H 0.8433 0.1851 0.3402
C30 C 0.3376(4) 0.3202(2) -0.0834(3)
H16 H 0.3420 0.3159 -0.1597
C31 C 0.6158(3) 0.36852(16) 0.5869(2)
C32 C 0.1150(3) 0.13181(16) 0.0869(2)
C33 C 0.9012(4) 0.1126(2) 0.4767(3)
H17 H 0.9494 0.0732 0.4405
C34 C 0.3823(4) 0.1421(2) 1.6052(3)
H18 H 0.4120 0.1902 1.5692
H19 H 0.4207 0.1439 1.6836
H20 H 0.2769 0.1396 1.5959
C35 C 0.4896(4) 0.0590(3) 1.1985(3)
H21 H 0.3949 0.0789 1.1986
C36 C 0.4016(4) 0.3872(2) -0.0232(3)
H22 H 0.4508 0.4263 -0.0593
C37 C -0.1176(5) 0.3577(2) 1.1052(3)
H23 H -0.0803 0.3563 1.1838
H24 H -0.0865 0.3097 1.0698
H25 H -0.2231 0.3598 1.0950
C38 C -0.0107(4) 0.4411(3) 0.6980(3)
H26 H -0.1056 0.4214 0.6978
O8 O 0.9980(3) 0.05902(14) 0.81948(18)
N1A N -0.0743(3) 0.52013(17) 1.2154(2)
N3A N -0.2033(3) 0.52743(15) 1.3539(2)
C12A C -0.2021(3) 0.50274(19) 1.2510(2)
H4A H -0.2803 0.4764 1.2078
C16A C -0.0374(3) 0.5073(2) 1.1047(3)
C21A C 0.0193(4) 0.5731(2) 1.0540(3)
H10A H 0.0313 0.6223 1.0924
C22A C -0.0690(4) 0.5631(2) 1.3869(3)
H11A H -0.0380 0.5864 1.4567
C27A C 0.0591(4) 0.5678(2) 0.9467(3)
C37A C 0.1176(5) 0.6423(2) 0.8948(3)
H23A H 0.0803 0.6437 0.8162
H24A H 0.0865 0.6903 0.9302
H25A H 0.2231 0.6402 0.9050
C38A C 0.0107(4) 0.5589(3) 1.3020(3)
H26A H 0.1056 0.5786 1.3022
N2A N 0.4254(3) -0.02030(17) 1.7153(2)
N4A N 0.2970(3) -0.02715(15) 1.8540(2)
C15A C 0.2976(3) -0.00254(19) 1.7507(2)
H6A H 0.2193 0.0238 1.7075
C23A C 0.5198(4) -0.0730(2) 1.5543(3)
H12A H 0.5335 -0.1220 1.5931
C24A C 0.4615(3) -0.0076(2) 1.6044(3)
C26A C 0.4311(4) -0.0632(2) 1.8868(3)
H14A H 0.4622 -0.0866 1.9564
C28A C 0.5589(4) -0.0678(2) 1.4471(3)
C34A C 0.6177(4) -0.1421(2) 1.3948(3)
H18A H 0.5880 -0.1902 1.4308
H19A H 0.5793 -0.1439 1.3164
H20A H 0.7231 -0.1396 1.4041
C35A C 0.5104(4) -0.0590(3) 1.8015(3)
H21A H 0.6051 -0.0789 1.8014
Zn1A Zn -0.37373(3) 0.510819(17) 1.43694(3)
Zn2A Zn -0.87376(3) 0.989176(17) 0.93693(2)
O1A O -0.1830(2) 0.90448(12) 1.98185(18)
O2A O -0.3117(3) 0.57020(13) 1.58351(19)
O3A O -0.4984(3) 0.55899(14) 1.68049(19)
O4A O -0.6831(3) 0.59549(12) 1.48133(19)
C1A C -0.8234(3) 0.83576(17) 1.3535(2)
C2A C -0.3234(3) 0.66431(16) 1.8541(2)
O5A O 0.0028(3) 0.89035(13) 1.8838(2)
O6A O -0.4971(3) 0.60932(13) 1.3843(2)
O7A O -0.8121(3) 0.92970(13) 1.08354(19)
C3A C -0.8099(3) 0.84354(17) 1.2371(2)
C4A C -0.3096(3) 0.65638(16) 1.7376(2)
C5A C -0.2591(3) 0.73324(16) 1.9147(2)
C6A C -0.6727(4) 0.71794(18) 1.2472(3)
H1A H -0.6227 0.6793 1.2109
C7A C -0.2354(4) 0.71506(18) 1.6872(3)
H2A H -0.2270 0.7099 1.6116
C8A C -0.1724(4) 0.78227(18) 1.7470(3)
H3A H -0.1219 0.8207 1.7109
C9A C -0.1839(3) 0.79234(16) 1.8578(2)
C10A C -0.7595(3) 0.76662(16) 1.4148(2)
C11A C -0.6839(3) 0.70753(16) 1.3579(2)
C13A C -0.7345(4) 0.78527(18) 1.1875(3)
H5A H -0.7244 0.7908 1.1123
C14A C -0.3782(4) 0.58948(17) 1.6628(3)
C17A C -0.2692(4) 0.73843(19) 2.0311(3)
H7A H -0.2280 0.7829 2.0721
C18A C -0.8782(4) 0.91054(17) 1.1625(2)
C19A C -0.7684(4) 0.76187(19) 1.5313(3)
H8A H -0.7255 0.7179 1.5724
C20A C -0.3924(4) 0.60440(19) 1.9123(3)
H9A H -0.4321 0.5584 1.8741
C25A C -0.8926(4) 0.89540(19) 1.4127(3)
H13A H -0.9332 0.9412 1.3747
C29A C -0.8376(4) 0.8198(2) 1.5838(3)
H15A H -0.8433 0.8149 1.6598
C30A C -0.3376(4) 0.6798(2) 2.0834(3)
H16A H -0.3420 0.6841 2.1597
C31A C -0.6158(3) 0.63148(16) 1.4131(2)
C32A C -0.1150(3) 0.86819(16) 1.9131(2)
C33A C -0.9012(4) 0.8874(2) 1.5233(3)
H17A H -0.9494 0.9268 1.5595
C36A C -0.4016(4) 0.6128(2) 2.0232(3)
H22A H -0.4508 0.5737 2.0593
O8A O -0.9980(3) 0.94098(14) 1.18052(18)
Zn1_2 Zn -0.62627(3) 0.489181(17) 1.56306(3)
Zn1A_2 Zn 0.62627(3) 0.510819(17) 0.43694(3)
Zn2_2 Zn -1.12624(3) 1.010824(17) 1.06307(2)
Zn2_3 Zn -0.12624(3) 0.010824(17) 0.06307(2)
Zn2_4 Zn -0.12624(3) 1.010824(17) 2.06307(2)
Zn2A_2 Zn 0.12624(3) -0.010824(17) -0.06307(2)
Zn2A_3 Zn 0.12624(3) -0.010824(17) 1.93693(2)
Zn2A_4 Zn 0.12624(3) 0.989176(17) 1.93693(2)
Zn2A_5 Zn 1.12624(3) -0.010824(17) 0.93693(2)
O1_2 O -0.8170(2) 1.09552(12) 1.01815(18)
O1A_2 O 0.8170(2) -0.09552(12) 0.98185(18)
O3_2 O -0.5016(3) 0.44101(14) 1.31951(19)
O3A_2 O 0.5016(3) 0.55899(14) 0.68049(19)
O4_2 O -0.3169(3) 0.40451(12) 1.51867(19)
O4A_2 O 0.3169(3) 0.59549(12) 0.48133(19)
O5_2 O 0.9972(3) 0.10965(13) 1.1162(2)
O5A_2 O -0.9972(3) 0.89035(13) 0.8838(2)
N4A_2 N -0.7030(3) 0.97285(15) 0.8540(2)
O8_2 O -1.0020(3) 1.05902(14) 0.81948(18)
O8A_2 O 1.0020(3) -0.05902(14) 1.18052(18)
loop_
_geom_bond_atom_site_label_1
_geom_bond_atom_site_label_2
_geom_bond_site_symmetry_1
_geom_bond_site_symmetry_2
Zn1 O2 1_555 1_555
Zn2 O7 1_555 1_555
N1 C12 1_555 1_555
N2 C15 1_555 1_555
O1 C32 1_555 1_555
O2 C14 1_555 1_555
O3 C14 1_555 1_555
O4 C31 1_555 1_555
C1 C3 1_555 1_555
C2 C4 1_555 1_555
N3 Zn1 1_555 1_555
O5 C32 1_555 1_555
O6 Zn1 1_555 1_555
O7 C18 1_555 1_555
C3 C13 1_555 1_555
N4 Zn2 1_555 1_555
C4 C7 1_555 1_555
C5 C2 1_555 1_555
C6 H1 1_555 1_555
C7 H2 1_555 1_555
C8 C7 1_555 1_555
H3 C8 1_555 1_555
C9 C5 1_555 1_555
C10 C1 1_555 1_555
C11 C6 1_555 1_555
C12 N3 1_555 1_555
H4 C12 1_555 1_555
C13 C6 1_555 1_555
H5 C13 1_555 1_555
C14 C4 1_555 1_555
C15 N4 1_555 1_555
H6 C15 1_555 1_555
C16 N1 1_555 1_555
C17 C5 1_555 1_555
H7 C17 1_555 1_555
C18 C3 1_555 1_555
C19 C10 1_555 1_555
H8 C19 1_555 1_555
C20 C2 1_555 1_555
H9 C20 1_555 1_555
C21 C16 1_555 1_555
H10 C21 1_555 1_555
C22 N3 1_555 1_555
H11 C22 1_555 1_555
C23 H12 1_555 1_555
C24 N2 1_555 1_555
C25 C1 1_555 1_555
H13 C25 1_555 1_555
C26 N4 1_555 1_555
H14 C26 1_555 1_555
C27 C21 1_555 1_555
C28 C23 1_555 1_555
C29 C19 1_555 1_555
H15 C29 1_555 1_555
C30 C17 1_555 1_555
H16 C30 1_555 1_555
C31 O6 1_555 1_555
C32 C9 1_555 1_555
C33 C25 1_555 1_555
H17 C33 1_555 1_555
C34 C28 1_555 1_555
H18 C34 1_555 1_555
H19 C34 1_555 1_555
H20 C34 1_555 1_555
C35 N2 1_555 1_555
H21 C35 1_555 1_555
C36 C20 1_555 1_555
H22 C36 1_555 1_555
C37 C27 1_555 1_555
H23 C37 1_555 1_555
H24 C37 1_555 1_555
H25 C37 1_555 1_555
C38 N1 1_555 1_555
H26 C38 1_555 1_555
O8 C18 1_555 1_555
N1A C12A 1_555 1_555
N3A C12A 1_555 1_555
C12A H4A 1_555 1_555
C16A C27 1_555 1_555
C21A C16A 1_555 1_555
H10A C21A 1_555 1_555
C22A N3A 1_555 1_555
H11A C22A 1_555 1_555
C27A C16 1_555 1_555
C37A C27A 1_555 1_555
H23A C37A 1_555 1_555
H24A C37A 1_555 1_555
H25A C37A 1_555 1_555
C38A N1A 1_555 1_555
H26A C38A 1_555 1_555
N2A C15A 1_555 1_555
N4A C15A 1_555 1_555
C15A H6A 1_555 1_555
C23A H12A 1_555 1_555
C24A C28 1_555 1_555
C26A N4A 1_555 1_555
H14A C26A 1_555 1_555
C28A C24 1_555 1_555
C34A C28A 1_555 1_555
H18A C34A 1_555 1_555
H19A C34A 1_555 1_555
H20A C34A 1_555 1_555
C35A N2A 1_555 1_555
H21A C35A 1_555 1_555
Zn1A N3A 1_555 1_555
Zn2A O7A 1_555 1_555
O1A C32A 1_555 1_555
O2A Zn1A 1_555 1_555
O3A C14A 1_555 1_555
O4A C31A 1_555 1_555
C1A C3A 1_555 1_555
C2A C4A 1_555 1_555
O5A C32A 1_555 1_555
O6A Zn1A 1_555 1_555
O7A C18A 1_555 1_555
C3A C13A 1_555 1_555
C4A C7A 1_555 1_555
C5A C2A 1_555 1_555
C6A H1A 1_555 1_555
C7A H2A 1_555 1_555
C8A C7A 1_555 1_555
H3A C8A 1_555 1_555
C9A C5A 1_555 1_555
C10A C1A 1_555 1_555
C11A C6A 1_555 1_555
C13A C6A 1_555 1_555
H5A C13A 1_555 1_555
C14A O2A 1_555 1_555
C17A C5A 1_555 1_555
H7A C17A 1_555 1_555
C18A C3A 1_555 1_555
C19A C10A 1_555 1_555
H8A C19A 1_555 1_555
C20A C2A 1_555 1_555
H9A C20A 1_555 1_555
C25A C1A 1_555 1_555
H13A C25A 1_555 1_555
C29A C19A 1_555 1_555
H15A C29A 1_555 1_555
C30A C17A 1_555 1_555
H16A C30A 1_555 1_555
C31A O6A 1_555 1_555
C32A C9A 1_555 1_555
C33A C25A 1_555 1_555
H17A C33A 1_555 1_555
C36A C20A 1_555 1_555
H22A C36A 1_555 1_555
O8A C18A 1_555 1_555
Zn1_2 O3A 1_555 1_555
Zn1A_2 O3 1_555 1_555
Zn2_2 O8A 1_555 1_555
Zn2_3 O5 1_555 1_555
Zn2_4 O1A 1_555 1_555
Zn2A_2 O1 1_555 1_555
Zn2A_3 N4A 1_555 1_555
Zn2A_4 O5A 1_555 1_555
Zn2A_5 O8 1_555 1_555
O1_2 Zn2A 1_555 1_555
O1A_2 Zn2 1_555 1_555
O3_2 Zn1A 1_555 1_555
O3A_2 Zn1 1_555 1_555
O4_2 Zn1A 1_555 1_555
O4A_2 Zn1 1_555 1_555
O5_2 Zn2 1_555 1_555
O5A_2 Zn2A 1_555 1_555
N4A_2 Zn2A 1_555 1_555
O8_2 Zn2A 1_555 1_555
O8A_2 Zn2 1_555 1_555
O4 Zn1A_2 1_555 1_555
C8 C9 1_555 1_555
C10 C11 1_555 1_555
C11 C31 1_555 1_555
C22 C38 1_555 1_555
C23 C24 1_555 1_555
C26 C35 1_555 1_555
C29 C33 1_555 1_555
C30 C36 1_555 1_555
N1A C16A 1_555 1_555
C21A C27A 1_555 1_555
C22A C38A 1_555 1_555
N2A C24A 1_555 1_555
C23A C24A 1_555 1_555
C23A C28A 1_555 1_555
C26A C35A 1_555 1_555
O4A Zn1_2 1_555 1_555
C4A C14A 1_555 1_555
C8A C9A 1_555 1_555
C10A C11A 1_555 1_555
C11A C31A 1_555 1_555
C29A C33A 1_555 1_555
C30A C36A 1_555 1_555

#END
