
#######################################################################
#
#                 Cambridge Crystallographic Data Centre
#                                CCDC 
#
#######################################################################
#
# If this CIF has been generated from an entry in the Cambridge 
# Structural Database, then it will include bibliographic, chemical, 
# crystal, experimental, refinement or atomic coordinate data resulting 
# from the CCDC's data processing and validation procedures.
#
#######################################################################

data_QITVIZ
_symmetry_cell_setting           monoclinic
_symmetry_space_group_name_H-M   'C c'
_symmetry_Int_Tables_number      9
_space_group_name_Hall           'C -2yc'
loop_
_symmetry_equiv_pos_site_id
_symmetry_equiv_pos_as_xyz
1 x,y,z
2 x,-y,1/2+z
3 1/2+x,1/2+y,z
4 1/2+x,1/2-y,1/2+z
_cell_length_a                   17.2837(14)
_cell_length_b                   9.9314(8)
_cell_length_c                   7.0022(6)
_cell_angle_alpha                90
_cell_angle_beta                 97.464(2)
_cell_angle_gamma                90
_cell_volume                     1191.75
loop_
_atom_site_label
_atom_site_type_symbol
_atom_site_fract_x
_atom_site_fract_y
_atom_site_fract_z
Sr1 Sr 0.75562(7) 0.11532(4) 0.75621(10)
N1 N 0.7328(3) 0.3847(5) 0.7446(9)
C1 C 0.7921(4) 0.4632(8) 0.7048(10)
H1 H 0.8384 0.4206 0.6756
C2 C 0.7895(5) 0.6019(7) 0.7041(12)
H2 H 0.8320 0.6530 0.6693
C3 C 0.7247(4) 0.6644(8) 0.7544(10)
C4 C 0.6618(4) 0.5871(6) 0.8005(10)
H3 H 0.6168 0.6284 0.8391
C5 C 0.6677(4) 0.4477(7) 0.7877(9)
C6 C 0.6028(4) 0.3572(6) 0.8269(10)
C7 C 0.5320(4) 0.4110(6) 0.8687(10)
H4 H 0.5225 0.5051 0.8591
C8 C 0.4756(4) 0.3239(7) 0.9247(10)
C9 C 0.4908(4) 0.1873(7) 0.9296(11)
H5 H 0.4542 0.1257 0.9704
C10 C 0.5599(4) 0.1419(7) 0.8742(11)
H6 H 0.5682 0.0475 0.8699
N2 N 0.6166(4) 0.2242(6) 0.8258(9)
C11 C 0.7212(4) 0.8165(7) 0.7594(9)
O1 O 0.7484(3) 0.8752(4) 0.6225(7)
O2 O 0.6938(3) 0.8761(4) 0.8911(7)
C12 C 0.3999(4) 0.3778(7) 0.9793(10)
O3 O 0.3805(3) 0.4950(5) 0.9223(7)
O4 O 0.3621(3) 0.3021(5) 1.0745(8)
Sr1_2 Sr 0.75562(7) 1.11532(4) 0.75621(10)
Sr1A Sr 0.75562(7) 0.88468(4) 0.25621(10)
Sr1A_2 Sr 0.75562(7) 0.88468(4) 1.25621(10)
Sr1B Sr 0.25562(7) 0.61532(4) 0.75621(10)
Sr1C Sr 0.25562(7) 0.38468(4) 1.25621(10)
O1_2 O 0.7484(3) -0.1248(4) 0.6225(7)
O1A O 0.7484(3) 0.1248(4) 1.1225(7)
O2_2 O 0.6938(3) -0.1239(4) 0.8911(7)
O2A O 0.6938(3) 0.1239(4) 0.3911(7)
O3B O 0.8805(3) -0.0050(5) 0.9223(7)
O4C O 0.8621(3) 0.1979(5) 0.5745(8)
O5 O 0.4596(11) 0.2284(16) 1.435(2)
O6? O 0.4210(15) 0.242(2) 1.460(3)
loop_
_geom_bond_atom_site_label_1
_geom_bond_atom_site_label_2
_geom_bond_site_symmetry_1
_geom_bond_site_symmetry_2
Sr1 N1 1_555 1_555
N1 C1 1_555 1_555
C1 H1 1_555 1_555
C2 C1 1_555 1_555
H2 C2 1_555 1_555
C3 C2 1_555 1_555
C4 C3 1_555 1_555
H3 C4 1_555 1_555
C5 N1 1_555 1_555
C6 C5 1_555 1_555
C7 C6 1_555 1_555
H4 C7 1_555 1_555
C8 C7 1_555 1_555
C9 C8 1_555 1_555
H5 C9 1_555 1_555
C10 C9 1_555 1_555
H6 C10 1_555 1_555
N2 Sr1 1_555 1_555
C11 C3 1_555 1_555
O1 C11 1_555 1_555
O2 C11 1_555 1_555
C12 C8 1_555 1_555
O3 C12 1_555 1_555
O4 C12 1_555 1_555
Sr1_2 O1 1_555 1_555
Sr1A O1 1_555 1_555
Sr1A_2 O2 1_555 1_555
Sr1B O3 1_555 1_555
Sr1C O4 1_555 1_555
O1_2 Sr1 1_555 1_555
O1A Sr1 1_555 1_555
O2_2 Sr1 1_555 1_555
O2A Sr1 1_555 1_555
O3B Sr1 1_555 1_555
O4C Sr1 1_555 1_555
C4 C5 1_555 1_555
C6 N2 1_555 1_555
C10 N2 1_555 1_555
O2 Sr1_2 1_555 1_555

#END
