
#######################################################################
#
#                 Cambridge Crystallographic Data Centre
#                                CCDC 
#
#######################################################################
#
# If this CIF has been generated from an entry in the Cambridge 
# Structural Database, then it will include bibliographic, chemical, 
# crystal, experimental, refinement or atomic coordinate data resulting 
# from the CCDC's data processing and validation procedures.
#
#######################################################################

data_QITXEY
_symmetry_cell_setting           triclinic
_symmetry_space_group_name_H-M   'P -1'
_symmetry_Int_Tables_number      2
_space_group_name_Hall           '-P 1'
loop_
_symmetry_equiv_pos_site_id
_symmetry_equiv_pos_as_xyz
1 x,y,z
2 -x,-y,-z
_cell_length_a                   9.8033(17)
_cell_length_b                   12.462(2)
_cell_length_c                   13.8706(14)
_cell_angle_alpha                65.881(14)
_cell_angle_beta                 74.327(16)
_cell_angle_gamma                86.14(2)
_cell_volume                     1487.32
loop_
_atom_site_label
_atom_site_type_symbol
_atom_site_fract_x
_atom_site_fract_y
_atom_site_fract_z
Zn1 Zn 1.5000 1.0000 0.0000
Zn2 Zn 0.62452(6) 0.06817(6) 0.55577(5)
S1 S 0.01871(15) -0.21595(14) 0.99805(12)
O1 O 0.4288(4) 0.0378(4) 0.6463(3)
O2 O 0.3531(4) 0.0595(3) 0.5024(3)
O3 O -0.1772(4) 0.0861(4) 0.5689(4)
O4 O -0.3059(4) -0.0550(4) 0.7126(3)
O5 O -0.1296(4) -0.2178(5) 1.0526(4)
O6 O 0.1104(6) -0.1654(5) 1.0353(4)
O7 O 0.0635(6) -0.3288(4) 0.9978(4)
O8 O 1.7065(4) 0.9767(4) 0.0284(4)
H1 H 1.773(5) 1.033(3) 0.007(5)
H2 H 1.753(5) 0.911(3) 0.045(6)
O9 O 1.4660(5) 1.1223(4) 0.0717(4)
H3 H 1.418(6) 1.101(5) 0.142(2)
H4 H 1.497(7) 1.196(3) 0.051(4)
N1 N 1.2981(6) 0.7250(5) 0.3050(4)
N2 N 1.4091(6) 0.7533(5) 0.3323(4)
N3 N 1.4184(5) 0.8627(4) 0.1558(4)
N4 N 0.7619(6) 0.3618(5) 0.2687(4)
N5 N 0.6444(6) 0.3391(5) 0.2440(5)
N6 N 0.6510(5) 0.2115(4) 0.4118(4)
C1 C 1.1050(8) 0.5842(6) 0.3425(5)
C2 C 1.1637(7) 0.5030(6) 0.2985(6)
C3 C 1.0837(7) 0.4597(6) 0.2516(6)
C4 C 0.9482(7) 0.4956(5) 0.2505(5)
C5 C 0.8868(7) 0.5710(5) 0.2996(5)
C6 C 0.9670(8) 0.6166(5) 0.3437(5)
C7 C 1.1929(9) 0.6334(7) 0.3908(6)
H5 H 1.1308 0.6665 0.4379
H6 H 1.2415 0.5701 0.4353
C8 C 1.3142(9) 0.4666(9) 0.2978(9)
H7 H 1.3327 0.4590 0.3648
H8 H 1.3791 0.5252 0.2368
H9 H 1.3263 0.3925 0.2914
C9 C 1.1447(11) 0.3714(9) 0.2030(9)
H10 H 1.0689 0.3322 0.1964
H11 H 1.1950 0.3145 0.2501
H12 H 1.2085 0.4120 0.1319
C10 C 0.8649(9) 0.4592(7) 0.1907(6)
H13 H 0.8152 0.5258 0.1515
H14 H 0.9293 0.4347 0.1376
C11 C 0.7340(8) 0.6035(7) 0.3049(7)
H15 H 0.6828 0.5863 0.3795
H16 H 0.6913 0.5588 0.2774
H17 H 0.7312 0.6859 0.2610
C12 C 0.9075(11) 0.7092(8) 0.3866(9)
H18 H 0.9780 0.7717 0.3601
H19 H 0.8818 0.6741 0.4653
H20 H 0.8251 0.7401 0.3616
C13 C 1.4792(6) 0.8360(6) 0.2390(5)
H21 H 1.5635 0.8729 0.2309
C14 C 1.3041(7) 0.7904(6) 0.2019(5)
H22 H 1.2378 0.7866 0.1664
C15 C 0.5823(7) 0.2495(5) 0.3330(5)
H23 H 0.4967 0.2144 0.3412
C16 C 0.7652(7) 0.2849(6) 0.3673(5)
H24 H 0.8365 0.2824 0.4007
C17 C 0.1879(5) -0.0117(5) 0.6786(4)
C18 C 0.0708(5) 0.0122(5) 0.6363(4)
H25 H 0.0819 0.0555 0.5617
C19 C -0.0631(5) -0.0292(5) 0.7064(4)
C20 C -0.0787(5) -0.0977(5) 0.8164(4)
H26 H -0.1681 -0.1281 0.8625
C21 C 0.0384(5) -0.1214(5) 0.8585(4)
C22 C 0.1713(5) -0.0780(5) 0.7895(5)
H27 H 0.2500 -0.0933 0.8176
C23 C 0.3329(5) 0.0321(5) 0.6034(4)
C24 C -0.1901(6) 0.0010(6) 0.6609(5)
Zn2A Zn 0.37548(6) -0.06817(6) 0.44423(5)
S1A S 0.98129(15) 0.21595(14) 0.00195(12)
O1A O 0.5712(4) -0.0378(4) 0.3537(3)
O2A O 0.6469(4) -0.0595(3) 0.4976(3)
O3A O 1.1772(4) -0.0861(4) 0.4311(4)
O4A O 1.3059(4) 0.0550(4) 0.2874(3)
O5A O 1.1296(4) 0.2178(5) -0.0526(4)
O6A O 0.8896(6) 0.1654(5) -0.0353(4)
O7A O 0.9365(6) 0.3288(4) 0.0022(4)
N1A N -0.2981(6) -0.7250(5) 0.6950(4)
N2A N -0.4091(6) -0.7533(5) 0.6677(4)
N3A N -0.4184(5) -0.8627(4) 0.8442(4)
N4A N 0.2381(6) -0.3618(5) 0.7313(4)
N5A N 0.3556(6) -0.3391(5) 0.7560(5)
N6A N 0.3490(5) -0.2115(4) 0.5882(4)
C1A C -0.1050(8) -0.5842(6) 0.6575(5)
C2A C -0.1637(7) -0.5030(6) 0.7015(6)
C3A C -0.0837(7) -0.4597(6) 0.7484(6)
C4A C 0.0518(7) -0.4956(5) 0.7495(5)
C5A C 0.1132(7) -0.5710(5) 0.7004(5)
C6A C 0.0330(8) -0.6166(5) 0.6563(5)
C7A C -0.1929(9) -0.6334(7) 0.6092(6)
H5A H -0.1308 -0.6665 0.5621
H6A H -0.2415 -0.5701 0.5647
C8A C -0.3142(9) -0.4666(9) 0.7022(9)
H7A H -0.3327 -0.4590 0.6352
H8A H -0.3791 -0.5252 0.7632
H9A H -0.3263 -0.3925 0.7086
C9A C -0.1447(11) -0.3714(9) 0.7970(9)
H10A H -0.0689 -0.3322 0.8036
H11A H -0.1950 -0.3145 0.7499
H12A H -0.2085 -0.4120 0.8681
C10A C 0.1351(9) -0.4592(7) 0.8093(6)
H13A H 0.1848 -0.5258 0.8485
H14A H 0.0707 -0.4347 0.8624
C11A C 0.2660(8) -0.6035(7) 0.6951(7)
H15A H 0.3172 -0.5863 0.6205
H16A H 0.3087 -0.5588 0.7226
H17A H 0.2688 -0.6859 0.7390
C12A C 0.0925(11) -0.7092(8) 0.6134(9)
H18A H 0.0220 -0.7717 0.6399
H19A H 0.1182 -0.6741 0.5347
H20A H 0.1749 -0.7401 0.6384
C13A C -0.4792(6) -0.8360(6) 0.7610(5)
H21A H -0.5635 -0.8729 0.7691
C14A C -0.3041(7) -0.7904(6) 0.7981(5)
H22A H -0.2378 -0.7866 0.8336
C15A C 0.4177(7) -0.2495(5) 0.6670(5)
H23A H 0.5033 -0.2144 0.6588
C16A C 0.2348(7) -0.2849(6) 0.6327(5)
H24A H 0.1635 -0.2824 0.5993
C17A C 0.8121(5) 0.0117(5) 0.3214(4)
C18A C 0.9292(5) -0.0122(5) 0.3637(4)
H25A H 0.9181 -0.0555 0.4383
C19A C 1.0631(5) 0.0292(5) 0.2936(4)
C20A C 1.0787(5) 0.0977(5) 0.1836(4)
H26A H 1.1681 0.1281 0.1375
C21A C 0.9616(5) 0.1214(5) 0.1415(4)
C22A C 0.8287(5) 0.0780(5) 0.2105(5)
H27A H 0.7500 0.0933 0.1824
C23A C 0.6671(5) -0.0321(5) 0.3966(4)
C24A C 1.1901(6) -0.0010(6) 0.3391(5)
O8A O 1.2935(4) 1.0233(4) -0.0284(4)
H1A H 1.227(5) 0.967(3) -0.007(5)
H2A H 1.247(5) 1.089(3) -0.045(6)
O9A O 1.5340(5) 0.8777(4) -0.0717(4)
H3A H 1.582(6) 0.899(5) -0.142(2)
H4A H 1.503(7) 0.804(3) -0.051(4)
Zn1_2 Zn -0.5000 -1.0000 1.0000
Zn2_2 Zn -0.37548(6) 0.06817(6) 0.55577(5)
Zn2A_2 Zn 1.37548(6) -0.06817(6) 0.44423(5)
O3_2 O 0.8228(4) 0.0861(4) 0.5689(4)
O3A_2 O 0.1772(4) -0.0861(4) 0.4311(4)
O4_2 O 0.6941(4) -0.0550(4) 0.7126(3)
O4A_2 O 0.3059(4) 0.0550(4) 0.2874(3)
N3A_2 N 1.5816(5) 1.1373(4) -0.1558(4)
O10 O 0.3710(8) -0.3254(7) 0.9894(8)
O11? O 0.340(5) -0.425(3) 0.984(2)
loop_
_geom_bond_atom_site_label_1
_geom_bond_atom_site_label_2
_geom_bond_site_symmetry_1
_geom_bond_site_symmetry_2
Zn1 O8 1_555 1_555
Zn2 O1 1_555 1_555
S1 O5 1_555 1_555
O1 C23 1_555 1_555
O2 C23 1_555 1_555
O3 C24 1_555 1_555
O4 C24 1_555 1_555
O6 S1 1_555 1_555
O7 S1 1_555 1_555
O8 H1 1_555 1_555
H2 O8 1_555 1_555
O9 Zn1 1_555 1_555
H3 O9 1_555 1_555
H4 O9 1_555 1_555
N1 N2 1_555 1_555
N2 C13 1_555 1_555
N3 Zn1 1_555 1_555
N4 N5 1_555 1_555
N5 C15 1_555 1_555
N6 Zn2 1_555 1_555
C1 C2 1_555 1_555
C2 C3 1_555 1_555
C3 C4 1_555 1_555
C4 C5 1_555 1_555
C5 C6 1_555 1_555
C6 C1 1_555 1_555
C7 N1 1_555 1_555
H5 C7 1_555 1_555
H6 C7 1_555 1_555
C8 C2 1_555 1_555
H7 C8 1_555 1_555
H8 C8 1_555 1_555
H9 C8 1_555 1_555
C9 C3 1_555 1_555
H10 C9 1_555 1_555
H11 C9 1_555 1_555
H12 C9 1_555 1_555
C10 N4 1_555 1_555
H13 C10 1_555 1_555
H14 C10 1_555 1_555
C11 C5 1_555 1_555
H15 C11 1_555 1_555
H16 C11 1_555 1_555
H17 C11 1_555 1_555
C12 C6 1_555 1_555
H18 C12 1_555 1_555
H19 C12 1_555 1_555
H20 C12 1_555 1_555
C13 N3 1_555 1_555
H21 C13 1_555 1_555
C14 N1 1_555 1_555
H22 C14 1_555 1_555
C15 N6 1_555 1_555
H23 C15 1_555 1_555
C16 N4 1_555 1_555
H24 C16 1_555 1_555
C17 C18 1_555 1_555
C18 H25 1_555 1_555
C19 C18 1_555 1_555
C20 C19 1_555 1_555
H26 C20 1_555 1_555
C21 S1 1_555 1_555
C22 C17 1_555 1_555
H27 C22 1_555 1_555
C23 C17 1_555 1_555
C24 C19 1_555 1_555
Zn2A O2 1_555 1_555
S1A O5A 1_555 1_555
O1A Zn2A 1_555 1_555
O2A Zn2 1_555 1_555
O3A C24A 1_555 1_555
O4A C24A 1_555 1_555
O6A S1A 1_555 1_555
O7A S1A 1_555 1_555
N1A N2A 1_555 1_555
N2A C13A 1_555 1_555
N3A C13A 1_555 1_555
N4A N5A 1_555 1_555
N5A C15A 1_555 1_555
N6A Zn2A 1_555 1_555
C1A C2A 1_555 1_555
C2A C3A 1_555 1_555
C3A C4A 1_555 1_555
C4A C5A 1_555 1_555
C5A C6A 1_555 1_555
C6A C1A 1_555 1_555
C7A N1A 1_555 1_555
H5A C7A 1_555 1_555
H6A C7A 1_555 1_555
C8A C2A 1_555 1_555
H7A C8A 1_555 1_555
H8A C8A 1_555 1_555
H9A C8A 1_555 1_555
C9A C3A 1_555 1_555
H10A C9A 1_555 1_555
H11A C9A 1_555 1_555
H12A C9A 1_555 1_555
C10A N4A 1_555 1_555
H13A C10A 1_555 1_555
H14A C10A 1_555 1_555
C11A C5A 1_555 1_555
H15A C11A 1_555 1_555
H16A C11A 1_555 1_555
H17A C11A 1_555 1_555
C12A C6A 1_555 1_555
H18A C12A 1_555 1_555
H19A C12A 1_555 1_555
H20A C12A 1_555 1_555
C13A H21A 1_555 1_555
C14A N1A 1_555 1_555
H22A C14A 1_555 1_555
C15A N6A 1_555 1_555
H23A C15A 1_555 1_555
C16A N4A 1_555 1_555
H24A C16A 1_555 1_555
C17A C18A 1_555 1_555
C18A H25A 1_555 1_555
C19A C18A 1_555 1_555
C20A C19A 1_555 1_555
H26A C20A 1_555 1_555
C21A S1A 1_555 1_555
C22A C17A 1_555 1_555
H27A C22A 1_555 1_555
C23A O1A 1_555 1_555
C24A C19A 1_555 1_555
O8A Zn1 1_555 1_555
H1A O8A 1_555 1_555
H2A O8A 1_555 1_555
O9A Zn1 1_555 1_555
H3A O9A 1_555 1_555
H4A O9A 1_555 1_555
Zn1_2 N3A 1_555 1_555
Zn2_2 O3 1_555 1_555
Zn2A_2 O3A 1_555 1_555
O3_2 Zn2 1_555 1_555
O3A_2 Zn2A 1_555 1_555
O4_2 Zn2 1_555 1_555
O4A_2 Zn2A 1_555 1_555
N3A_2 Zn1 1_555 1_555
O4 Zn2_2 1_555 1_555
N3 C14 1_555 1_555
N6 C16 1_555 1_555
C1 C7 1_555 1_555
C4 C10 1_555 1_555
C20 C21 1_555 1_555
C21 C22 1_555 1_555
O2A C23A 1_555 1_555
O4A Zn2A_2 1_555 1_555
N3A C14A 1_555 1_555
N6A C16A 1_555 1_555
C1A C7A 1_555 1_555
C4A C10A 1_555 1_555
C17A C23A 1_555 1_555
C20A C21A 1_555 1_555
C21A C22A 1_555 1_555

#END
