
#######################################################################
#
#                 Cambridge Crystallographic Data Centre
#                                CCDC 
#
#######################################################################
#
# If this CIF has been generated from an entry in the Cambridge 
# Structural Database, then it will include bibliographic, chemical, 
# crystal, experimental, refinement or atomic coordinate data resulting 
# from the CCDC's data processing and validation procedures.
#
#######################################################################

data_QITZIE
_symmetry_cell_setting           triclinic
_symmetry_space_group_name_H-M   'P -1'
_symmetry_Int_Tables_number      2
_space_group_name_Hall           '-P 1'
loop_
_symmetry_equiv_pos_site_id
_symmetry_equiv_pos_as_xyz
1 x,y,z
2 -x,-y,-z
_cell_length_a                   11.624(2)
_cell_length_b                   13.395(3)
_cell_length_c                   21.378(4)
_cell_angle_alpha                108.23(3)
_cell_angle_beta                 96.32(3)
_cell_angle_gamma                103.03(3)
_cell_volume                     3020.92
loop_
_atom_site_label
_atom_site_type_symbol
_atom_site_fract_x
_atom_site_fract_y
_atom_site_fract_z
Ni1 Ni 0.51739(8) 0.36318(7) -0.08464(5)
Ni2 Ni 0.90426(9) 0.30028(8) 0.61212(5)
O1 O 0.5532(5) 0.4144(4) 0.0178(2)
O2 O 0.5934(5) 0.5568(4) 0.1142(2)
O3 O 0.6952(7) 0.1615(5) 0.2002(3)
O4 O 0.6617(7) 0.1439(7) 0.4914(3)
O5 O 0.8483(5) 0.2486(4) 0.5089(2)
O6 O 0.9635(6) 0.1625(4) 0.6050(3)
O7 O 0.6243(5) 0.2490(4) -0.0917(3)
O8 O 0.5281(5) 0.2621(4) -0.1819(3)
O9 O 0.8027(10) -0.0894(7) -0.3131(5)
O10 O 0.8479(5) -0.5621(4) -0.3779(3)
O11 O 0.6883(6) -0.5877(5) -0.3291(4)
O12 O 0.7359(5) 0.2182(4) 0.6224(3)
H1 H 0.6849 0.2460 0.6112
H2 H 0.7804 0.1765 0.5982
N1 N -0.3395(5) -0.5123(5) -0.0864(3)
N2 N 0.3716(5) 0.2362(5) -0.0859(3)
N3 N 1.0708(6) 0.3772(5) 0.5967(3)
N4 N 0.9605(6) 0.3523(5) 0.7164(3)
N5 N 0.9454(11) -0.0186(7) 0.5692(5)
C1 C 1.0813(7) 0.5574(7) 0.9735(4)
H3 H 1.1359 0.5979 0.9558
C2 C 0.9988(7) 0.4627(7) 0.9305(4)
C3 C 0.9145(8) 0.4059(7) 0.9584(4)
H4 H 0.8556 0.3432 0.9307
C4 C 0.9331(8) 0.2826(7) 0.7492(4)
H5 H 0.9028 0.2084 0.7242
C5 C 0.9474(8) 0.3148(7) 0.8174(4)
H6 H 0.9257 0.2624 0.8372
C6 C 0.9935(7) 0.4236(7) 0.8580(4)
C7 C 1.0287(8) 0.4962(7) 0.8230(4)
H7 H 1.0635 0.5703 0.8469
C8 C 1.0123(8) 0.4588(7) 0.7549(4)
H8 H 1.0376 0.5084 0.7337
C9 C 0.9041(11) 0.0683(9) 0.5736(5)
H9 H 0.8261 0.0565 0.5515
C10 C 1.0608(11) -0.0039(11) 0.6092(8)
H10 H 1.1109 0.0686 0.6182
H11 H 1.0989 -0.0565 0.5850
H12 H 1.0493 -0.0140 0.6508
C11 C 0.8725(15) -0.1278(9) 0.5294(7)
H13 H 0.8134 -0.1519 0.5535
H14 H 0.9228 -0.1764 0.5207
H15 H 0.8327 -0.1277 0.4877
C12 C 1.0768(7) 0.4300(6) 0.5531(4)
H16 H 1.0071 0.4444 0.5367
C13 C 1.1798(7) 0.4642(8) 0.5310(4)
H17 H 1.1784 0.5019 0.5012
C14 C 1.2836(7) 0.4439(7) 0.5519(4)
C15 C 1.2805(8) 0.3954(7) 0.6005(4)
H18 H 1.3508 0.3856 0.6198
C16 C 1.1740(8) 0.3617(7) 0.6206(4)
H19 H 1.1741 0.3268 0.6519
C17 C 1.4235(8) 0.5659(7) 0.5086(5)
H20 H 1.3733 0.6119 0.5148
C18 C 1.3961(7) 0.4742(7) 0.5262(4)
C19 C 1.4751(8) 0.4091(7) 0.5184(5)
H21 H 1.4598 0.3481 0.5314
C20 C 0.7489(9) 0.1946(7) 0.4729(4)
C21 C 0.7319(8) 0.1910(7) 0.4007(4)
C22 C 0.6332(10) 0.1203(10) 0.3549(5)
H22 H 0.5748 0.0755 0.3680
C23 C 0.6196(11) 0.1150(10) 0.2877(5)
H23 H 0.5515 0.0678 0.2565
C24 C 0.7046(9) 0.1781(7) 0.2689(4)
C25 C 0.8051(9) 0.2487(8) 0.3128(4)
H24 H 0.8643 0.2921 0.2992
C26 C 0.8153(8) 0.2528(8) 0.3798(4)
H25 H 0.8830 0.3007 0.4110
C27 C 0.6266(7) 0.3892(6) 0.1161(4)
C28 C 0.6570(6) 0.2941(6) 0.0799(4)
H26 H 0.6598 0.2784 0.0346
C29 C 0.6826(8) 0.2244(7) 0.1117(4)
H27 H 0.7061 0.1637 0.0881
C30 C 0.6743(8) 0.2427(7) 0.1754(4)
C31 C 0.6498(9) 0.3365(7) 0.2141(4)
H28 H 0.6494 0.3505 0.2595
C32 C 0.6253(8) 0.4108(7) 0.1834(4)
H29 H 0.6083 0.4742 0.2086
C33 C 0.5898(7) 0.4587(6) 0.0800(3)
C34 C -0.3124(8) -0.5035(6) -0.1445(4)
H30 H -0.3530 -0.5600 -0.1842
C35 C -0.2278(8) -0.4157(7) -0.1491(4)
H31 H -0.2147 -0.4133 -0.1909
C36 C -0.1625(7) -0.3309(6) -0.0902(4)
C37 C -0.1901(8) -0.3406(6) -0.0314(4)
H32 H -0.1504 -0.2857 0.0092
C38 C -0.2761(8) -0.4308(6) -0.0313(4)
H33 H -0.2905 -0.4345 0.0100
C39 C -0.0635(9) -0.2095(7) -0.1498(4)
H34 H -0.1168 -0.2541 -0.1896
C40 C 0.0214(8) -0.1184(7) -0.1488(4)
H35 H 0.0242 -0.1028 -0.1882
C41 C 0.1031(7) -0.0492(6) -0.0905(4)
C42 C 0.0953(9) -0.0748(8) -0.0347(5)
H36 H 0.1482 -0.0303 0.0053
C43 C 0.0109(9) -0.1650(7) -0.0358(4)
H37 H 0.0084 -0.1794 0.0039
C44 C -0.0705(7) -0.2356(6) -0.0925(4)
C45 C 0.5964(7) 0.2181(6) -0.1552(4)
C46 C 0.6442(8) 0.1329(6) -0.1964(5)
C47 C 0.7016(9) 0.0729(8) -0.1694(5)
H38 H 0.7102 0.0861 -0.1235
C48 C 0.7466(12) -0.0059(9) -0.2082(6)
H39 H 0.7824 -0.0473 -0.1887
C49 C 0.7395(12) -0.0245(8) -0.2749(7)
C50 C 0.6854(10) 0.0336(8) -0.3026(5)
H40 H 0.6808 0.0216 -0.3482
C51 C 0.6354(8) 0.1125(7) -0.2643(5)
H41 H 0.5963 0.1510 -0.2847
C52 C 0.7862(12) -0.1948(8) -0.3164(6)
C53 C 0.8784(10) -0.2383(8) -0.3358(5)
H42 H 0.9464 -0.1946 -0.3431
C54 C 0.8709(8) -0.3450(7) -0.3446(4)
H43 H 0.9359 -0.3721 -0.3552
C55 C 0.7688(8) -0.4132(7) -0.3381(4)
C56 C 0.6767(9) -0.3710(8) -0.3184(5)
H44 H 0.6090 -0.4156 -0.3116
C57 C 0.6831(11) -0.2623(9) -0.3085(6)
H45 H 0.6189 -0.2348 -0.2966
C58 C 0.7679(8) -0.5306(7) -0.3495(4)
C59 C 0.2720(8) 0.1942(7) -0.1325(5)
H46 H 0.2602 0.2288 -0.1632
C60 C 0.1833(9) 0.0997(8) -0.1378(5)
H47 H 0.1167 0.0706 -0.1728
C61 C 0.1964(7) 0.0502(6) -0.0899(4)
C62 C 0.2964(8) 0.0934(7) -0.0428(5)
H48 H 0.3103 0.0616 -0.0108
C63 C 0.3809(8) 0.1875(7) -0.0418(5)
H49 H 0.4484 0.2174 -0.0074
N3A N 1.9292(6) 0.6228(5) 0.4033(3)
C12A C 1.9232(7) 0.5700(6) 0.4469(4)
H16A H 1.9929 0.5556 0.4633
C13A C 1.8202(7) 0.5358(8) 0.4690(4)
H17A H 1.8216 0.4981 0.4988
C14A C 1.7164(7) 0.5561(7) 0.4481(4)
C15A C 1.7195(8) 0.6046(7) 0.3995(4)
H18A H 1.6492 0.6144 0.3802
C16A C 1.8260(8) 0.6383(7) 0.3794(4)
H19A H 1.8259 0.6732 0.3481
C17A C 1.5765(8) 0.4341(7) 0.4914(5)
H20A H 1.6267 0.3881 0.4852
C18A C 1.6039(7) 0.5258(7) 0.4738(4)
C19A C 1.5249(8) 0.5909(7) 0.4816(5)
H21A H 1.5402 0.6519 0.4686
N4A N 1.0395(6) 0.6477(5) 1.2836(3)
C1A C 0.9187(7) 0.4426(7) 1.0265(4)
H3A H 0.8641 0.4021 1.0442
C2A C 1.0012(7) 0.5373(7) 1.0695(4)
C3A C 1.0855(8) 0.5941(7) 1.0416(4)
H4A H 1.1444 0.6568 1.0693
C4A C 1.0669(8) 0.7174(7) 1.2508(4)
H5A H 1.0972 0.7916 1.2758
C5A C 1.0526(8) 0.6852(7) 1.1826(4)
H6A H 1.0743 0.7376 1.1628
C6A C 1.0065(7) 0.5764(7) 1.1420(4)
C7A C 0.9713(8) 0.5038(7) 1.1770(4)
H7A H 0.9365 0.4297 1.1531
C8A C 0.9877(8) 0.5412(7) 1.2451(4)
H8A H 0.9624 0.4916 1.2663
Ni1A Ni 0.48261(8) 0.63682(7) 0.08464(5)
Ni2A Ni 0.09574(9) 0.69972(8) -0.61212(5)
O1A O 0.4468(5) 0.5856(4) -0.0178(2)
O2A O 0.4066(5) 0.4432(4) -0.1142(2)
O3A O 0.3048(7) 0.8385(5) -0.2002(3)
O4A O 0.3383(7) 0.8561(7) -0.4914(3)
O5A O 0.1517(5) 0.7514(4) -0.5089(2)
O6A O 0.0365(6) 0.8375(4) -0.6050(3)
O7A O 0.3757(5) 0.7510(4) 0.0917(3)
O8A O 0.4719(5) 0.7379(4) 0.1819(3)
O9A O 0.1973(10) 1.0894(7) 0.3131(5)
O10A O 0.1521(5) 1.5621(4) 0.3779(3)
O11A O 0.3117(6) 1.5877(5) 0.3291(4)
O12A O 0.2641(5) 0.7818(4) -0.6224(3)
H1A H 0.3151 0.7540 -0.6112
H2A H 0.2196 0.8235 -0.5982
N1A N 1.3395(5) 1.5123(5) 0.0864(3)
N2A N 0.6284(5) 0.7638(5) 0.0859(3)
N5A N 0.0546(11) 1.0186(7) -0.5692(5)
C9A C 0.0959(11) 0.9317(9) -0.5736(5)
H9A H 0.1739 0.9435 -0.5515
C10A C -0.0608(11) 1.0039(11) -0.6092(8)
H10A H -0.1109 0.9314 -0.6182
H11A H -0.0989 1.0565 -0.5850
H12A H -0.0493 1.0140 -0.6508
C11A C 0.1275(15) 1.1278(9) -0.5294(7)
H13A H 0.1866 1.1519 -0.5535
H14A H 0.0772 1.1764 -0.5207
H15A H 0.1673 1.1277 -0.4877
C20A C 0.2511(9) 0.8054(7) -0.4729(4)
C21A C 0.2681(8) 0.8090(7) -0.4007(4)
C22A C 0.3668(10) 0.8797(10) -0.3549(5)
H22A H 0.4252 0.9245 -0.3680
C23A C 0.3804(11) 0.8850(10) -0.2877(5)
H23A H 0.4485 0.9322 -0.2565
C24A C 0.2954(9) 0.8219(7) -0.2689(4)
C25A C 0.1949(9) 0.7513(8) -0.3128(4)
H24A H 0.1357 0.7079 -0.2992
C26A C 0.1847(8) 0.7472(8) -0.3798(4)
H25A H 0.1170 0.6993 -0.4110
C27A C 0.3734(7) 0.6108(6) -0.1161(4)
C28A C 0.3430(6) 0.7059(6) -0.0799(4)
H26A H 0.3402 0.7216 -0.0346
C29A C 0.3174(8) 0.7756(7) -0.1117(4)
H27A H 0.2939 0.8363 -0.0881
C30A C 0.3257(8) 0.7573(7) -0.1754(4)
C31A C 0.3502(9) 0.6635(7) -0.2141(4)
H28A H 0.3506 0.6495 -0.2595
C32A C 0.3747(8) 0.5892(7) -0.1834(4)
H29A H 0.3917 0.5258 -0.2086
C33A C 0.4102(7) 0.5413(6) -0.0800(3)
C34A C 1.3124(8) 1.5035(6) 0.1445(4)
H30A H 1.3530 1.5600 0.1842
C35A C 1.2278(8) 1.4157(7) 0.1491(4)
H31A H 1.2147 1.4133 0.1909
C36A C 1.1625(7) 1.3309(6) 0.0902(4)
C37A C 1.1901(8) 1.3406(6) 0.0314(4)
H32A H 1.1504 1.2857 -0.0092
C38A C 1.2761(8) 1.4308(6) 0.0313(4)
H33A H 1.2905 1.4345 -0.0100
C39A C 1.0635(9) 1.2095(7) 0.1498(4)
H34A H 1.1168 1.2541 0.1896
C40A C 0.9786(8) 1.1184(7) 0.1488(4)
H35A H 0.9758 1.1028 0.1882
C41A C 0.8969(7) 1.0492(6) 0.0905(4)
C42A C 0.9047(9) 1.0748(8) 0.0347(5)
H36A H 0.8518 1.0303 -0.0053
C43A C 0.9891(9) 1.1650(7) 0.0358(4)
H37A H 0.9916 1.1794 -0.0039
C44A C 1.0705(7) 1.2356(6) 0.0925(4)
C45A C 0.4036(7) 0.7819(6) 0.1552(4)
C46A C 0.3558(8) 0.8671(6) 0.1964(5)
C47A C 0.2984(9) 0.9271(8) 0.1694(5)
H38A H 0.2898 0.9139 0.1235
C48A C 0.2534(12) 1.0059(9) 0.2082(6)
H39A H 0.2176 1.0473 0.1887
C49A C 0.2605(12) 1.0245(8) 0.2749(7)
C50A C 0.3146(10) 0.9664(8) 0.3026(5)
H40A H 0.3192 0.9784 0.3482
C51A C 0.3646(8) 0.8875(7) 0.2643(5)
H41A H 0.4037 0.8490 0.2847
C52A C 0.2138(12) 1.1948(8) 0.3164(6)
C53A C 0.1216(10) 1.2383(8) 0.3358(5)
H42A H 0.0536 1.1946 0.3431
C54A C 0.1291(8) 1.3450(7) 0.3446(4)
H43A H 0.0641 1.3721 0.3552
C55A C 0.2312(8) 1.4132(7) 0.3381(4)
C56A C 0.3233(9) 1.3710(8) 0.3184(5)
H44A H 0.3910 1.4156 0.3116
C57A C 0.3169(11) 1.2623(9) 0.3085(6)
H45A H 0.3811 1.2348 0.2966
C58A C 0.2321(8) 1.5306(7) 0.3495(4)
C59A C 0.7280(8) 0.8058(7) 0.1325(5)
H46A H 0.7398 0.7712 0.1632
C60A C 0.8167(9) 0.9003(8) 0.1378(5)
H47A H 0.8833 0.9294 0.1728
C61A C 0.8036(7) 0.9498(6) 0.0899(4)
C62A C 0.7036(8) 0.9066(7) 0.0428(5)
H48A H 0.6897 0.9384 0.0108
C63A C 0.6191(8) 0.8125(7) 0.0418(5)
H49A H 0.5516 0.7826 0.0074
Ni1_2 Ni -0.48261(8) -0.63682(7) -0.08464(5)
Ni1A_2 Ni 1.48261(8) 1.63682(7) 0.08464(5)
Ni2_2 Ni 0.90426(9) -0.69972(8) -0.38788(5)
Ni2A_2 Ni 0.09574(9) 1.69972(8) 0.38788(5)
Ni2A_3 Ni 1.09574(9) 0.69972(8) 1.38788(5)
Ni2A_4 Ni 2.09574(9) 0.69972(8) 0.38788(5)
O10_2 O 0.8479(5) 0.4379(4) 0.6221(3)
O10A_2 O 0.1521(5) 0.5621(4) -0.6221(3)
N1_2 N 0.6605(5) 0.4877(5) -0.0864(3)
N1A_2 N 0.3395(5) 0.5123(5) 0.0864(3)
N3A_2 N -0.0708(6) 0.6228(5) -0.5967(3)
N4A_2 N 0.0395(6) 0.6477(5) -0.7164(3)
O13 O 0.4649(10) 0.3068(12) 0.6945(7)
O14 O 0.424(2) 0.072(2) 0.4928(15)
O15 O 0.641(3) 0.883(2) 0.4168(17)
O16 O 0.295(3) 0.287(2) 0.7366(13)
loop_
_geom_bond_atom_site_label_1
_geom_bond_atom_site_label_2
_geom_bond_site_symmetry_1
_geom_bond_site_symmetry_2
Ni1 O1 1_555 1_555
Ni2 O5 1_555 1_555
O1 C33 1_555 1_555
O2 C33 1_555 1_555
O3 C24 1_555 1_555
O4 C20 1_555 1_555
O5 C20 1_555 1_555
O6 Ni2 1_555 1_555
O7 Ni1 1_555 1_555
O8 Ni1 1_555 1_555
O9 C49 1_555 1_555
O10 C58 1_555 1_555
O11 C58 1_555 1_555
O12 Ni2 1_555 1_555
H1 O12 1_555 1_555
H2 O12 1_555 1_555
N1 C34 1_555 1_555
N2 Ni1 1_555 1_555
N3 Ni2 1_555 1_555
N4 Ni2 1_555 1_555
N5 C9 1_555 1_555
C1 H3 1_555 1_555
C2 C1 1_555 1_555
C3 C2 1_555 1_555
H4 C3 1_555 1_555
C4 N4 1_555 1_555
H5 C4 1_555 1_555
C5 C4 1_555 1_555
H6 C5 1_555 1_555
C6 C2 1_555 1_555
C7 C6 1_555 1_555
H7 C7 1_555 1_555
C8 N4 1_555 1_555
H8 C8 1_555 1_555
C9 O6 1_555 1_555
H9 C9 1_555 1_555
C10 N5 1_555 1_555
H10 C10 1_555 1_555
H11 C10 1_555 1_555
H12 C10 1_555 1_555
C11 N5 1_555 1_555
H13 C11 1_555 1_555
H14 C11 1_555 1_555
H15 C11 1_555 1_555
C12 N3 1_555 1_555
H16 C12 1_555 1_555
C13 C12 1_555 1_555
H17 C13 1_555 1_555
C14 C13 1_555 1_555
C15 C14 1_555 1_555
H18 C15 1_555 1_555
C16 N3 1_555 1_555
H19 C16 1_555 1_555
C17 H20 1_555 1_555
C18 C14 1_555 1_555
C19 C18 1_555 1_555
H21 C19 1_555 1_555
C20 C21 1_555 1_555
C21 C22 1_555 1_555
C22 H22 1_555 1_555
C23 C22 1_555 1_555
H23 C23 1_555 1_555
C24 C23 1_555 1_555
C25 C24 1_555 1_555
H24 C25 1_555 1_555
C26 C21 1_555 1_555
H25 C26 1_555 1_555
C27 C28 1_555 1_555
C28 H26 1_555 1_555
C29 C28 1_555 1_555
H27 C29 1_555 1_555
C30 O3 1_555 1_555
C31 C30 1_555 1_555
H28 C31 1_555 1_555
C32 C27 1_555 1_555
H29 C32 1_555 1_555
C33 C27 1_555 1_555
C34 H30 1_555 1_555
C35 C34 1_555 1_555
H31 C35 1_555 1_555
C36 C35 1_555 1_555
C37 C36 1_555 1_555
H32 C37 1_555 1_555
C38 N1 1_555 1_555
H33 C38 1_555 1_555
C39 H34 1_555 1_555
C40 C39 1_555 1_555
H35 C40 1_555 1_555
C41 C40 1_555 1_555
C42 C41 1_555 1_555
H36 C42 1_555 1_555
C43 C42 1_555 1_555
H37 C43 1_555 1_555
C44 C36 1_555 1_555
C45 O7 1_555 1_555
C46 C45 1_555 1_555
C47 C46 1_555 1_555
H38 C47 1_555 1_555
C48 C47 1_555 1_555
H39 C48 1_555 1_555
C49 C48 1_555 1_555
C50 C49 1_555 1_555
H40 C50 1_555 1_555
C51 C46 1_555 1_555
H41 C51 1_555 1_555
C52 O9 1_555 1_555
C53 C52 1_555 1_555
H42 C53 1_555 1_555
C54 C53 1_555 1_555
H43 C54 1_555 1_555
C55 C54 1_555 1_555
C56 C55 1_555 1_555
H44 C56 1_555 1_555
C57 C52 1_555 1_555
H45 C57 1_555 1_555
C58 C55 1_555 1_555
C59 N2 1_555 1_555
H46 C59 1_555 1_555
C60 C59 1_555 1_555
H47 C60 1_555 1_555
C61 C41 1_555 1_555
C62 C61 1_555 1_555
H48 C62 1_555 1_555
C63 N2 1_555 1_555
H49 C63 1_555 1_555
N3A C12A 1_555 1_555
C12A H16A 1_555 1_555
C13A C12A 1_555 1_555
H17A C13A 1_555 1_555
C14A C13A 1_555 1_555
C15A C14A 1_555 1_555
H18A C15A 1_555 1_555
C16A N3A 1_555 1_555
H19A C16A 1_555 1_555
C17A C19 1_555 1_555
H20A C17A 1_555 1_555
C18A C14A 1_555 1_555
C19A C17 1_555 1_555
H21A C19A 1_555 1_555
N4A C4A 1_555 1_555
C1A C3 1_555 1_555
H3A C1A 1_555 1_555
C2A C1A 1_555 1_555
C3A C1 1_555 1_555
H4A C3A 1_555 1_555
C4A H5A 1_555 1_555
C5A C4A 1_555 1_555
H6A C5A 1_555 1_555
C6A C2A 1_555 1_555
C7A C6A 1_555 1_555
H7A C7A 1_555 1_555
C8A N4A 1_555 1_555
H8A C8A 1_555 1_555
Ni1A O2 1_555 1_555
Ni2A O5A 1_555 1_555
O1A Ni1A 1_555 1_555
O2A Ni1 1_555 1_555
O3A C24A 1_555 1_555
O4A C20A 1_555 1_555
O5A C20A 1_555 1_555
O6A Ni2A 1_555 1_555
O7A Ni1A 1_555 1_555
O8A Ni1A 1_555 1_555
O9A C49A 1_555 1_555
O10A C58A 1_555 1_555
O11A C58A 1_555 1_555
O12A Ni2A 1_555 1_555
H1A O12A 1_555 1_555
H2A O12A 1_555 1_555
N1A C34A 1_555 1_555
N2A Ni1A 1_555 1_555
N5A C9A 1_555 1_555
C9A O6A 1_555 1_555
H9A C9A 1_555 1_555
C10A N5A 1_555 1_555
H10A C10A 1_555 1_555
H11A C10A 1_555 1_555
H12A C10A 1_555 1_555
C11A N5A 1_555 1_555
H13A C11A 1_555 1_555
H14A C11A 1_555 1_555
H15A C11A 1_555 1_555
C20A C21A 1_555 1_555
C21A C22A 1_555 1_555
C22A H22A 1_555 1_555
C23A C22A 1_555 1_555
H23A C23A 1_555 1_555
C24A C23A 1_555 1_555
C25A C24A 1_555 1_555
H24A C25A 1_555 1_555
C26A C21A 1_555 1_555
H25A C26A 1_555 1_555
C27A C28A 1_555 1_555
C28A H26A 1_555 1_555
C29A C28A 1_555 1_555
H27A C29A 1_555 1_555
C30A O3A 1_555 1_555
C31A C30A 1_555 1_555
H28A C31A 1_555 1_555
C32A C27A 1_555 1_555
H29A C32A 1_555 1_555
C33A O1A 1_555 1_555
C34A H30A 1_555 1_555
C35A C34A 1_555 1_555
H31A C35A 1_555 1_555
C36A C35A 1_555 1_555
C37A C36A 1_555 1_555
H32A C37A 1_555 1_555
C38A N1A 1_555 1_555
H33A C38A 1_555 1_555
C39A H34A 1_555 1_555
C40A C39A 1_555 1_555
H35A C40A 1_555 1_555
C41A C40A 1_555 1_555
C42A C41A 1_555 1_555
H36A C42A 1_555 1_555
C43A C42A 1_555 1_555
H37A C43A 1_555 1_555
C44A C36A 1_555 1_555
C45A O7A 1_555 1_555
C46A C45A 1_555 1_555
C47A C46A 1_555 1_555
H38A C47A 1_555 1_555
C48A C47A 1_555 1_555
H39A C48A 1_555 1_555
C49A C48A 1_555 1_555
C50A C49A 1_555 1_555
H40A C50A 1_555 1_555
C51A C46A 1_555 1_555
H41A C51A 1_555 1_555
C52A O9A 1_555 1_555
C53A C52A 1_555 1_555
H42A C53A 1_555 1_555
C54A C53A 1_555 1_555
H43A C54A 1_555 1_555
C55A C54A 1_555 1_555
C56A C55A 1_555 1_555
H44A C56A 1_555 1_555
C57A C52A 1_555 1_555
H45A C57A 1_555 1_555
C58A C55A 1_555 1_555
C59A N2A 1_555 1_555
H46A C59A 1_555 1_555
C60A C59A 1_555 1_555
H47A C60A 1_555 1_555
C61A C41A 1_555 1_555
C62A C61A 1_555 1_555
H48A C62A 1_555 1_555
C63A N2A 1_555 1_555
H49A C63A 1_555 1_555
Ni1_2 N1 1_555 1_555
Ni1A_2 N1A 1_555 1_555
Ni2_2 O10 1_555 1_555
Ni2A_2 O10A 1_555 1_555
Ni2A_3 N4A 1_555 1_555
Ni2A_4 N3A 1_555 1_555
O10_2 Ni2 1_555 1_555
O10A_2 Ni2A 1_555 1_555
N1_2 Ni1 1_555 1_555
N1A_2 Ni1A 1_555 1_555
N3A_2 Ni2A 1_555 1_555
N4A_2 Ni2A 1_555 1_555
O8 C45 1_555 1_555
C5 C6 1_555 1_555
C7 C8 1_555 1_555
C15 C16 1_555 1_555
C17 C18 1_555 1_555
C25 C26 1_555 1_555
C29 C30 1_555 1_555
C31 C32 1_555 1_555
C37 C38 1_555 1_555
C39 C44 1_555 1_555
C43 C44 1_555 1_555
C50 C51 1_555 1_555
C56 C57 1_555 1_555
C60 C61 1_555 1_555
C62 C63 1_555 1_555
C15A C16A 1_555 1_555
C17A C18A 1_555 1_555
C18A C19A 1_555 1_555
C2A C3A 1_555 1_555
C5A C6A 1_555 1_555
C7A C8A 1_555 1_555
O2A C33A 1_555 1_555
O8A C45A 1_555 1_555
C25A C26A 1_555 1_555
C27A C33A 1_555 1_555
C29A C30A 1_555 1_555
C31A C32A 1_555 1_555
C37A C38A 1_555 1_555
C39A C44A 1_555 1_555
C43A C44A 1_555 1_555
C50A C51A 1_555 1_555
C56A C57A 1_555 1_555
C60A C61A 1_555 1_555
C62A C63A 1_555 1_555

#END
