
#######################################################################
#
#                 Cambridge Crystallographic Data Centre
#                                CCDC 
#
#######################################################################
#
# If this CIF has been generated from an entry in the Cambridge 
# Structural Database, then it will include bibliographic, chemical, 
# crystal, experimental, refinement or atomic coordinate data resulting 
# from the CCDC's data processing and validation procedures.
#
#######################################################################

data_QIVSEU
_symmetry_cell_setting           triclinic
_symmetry_space_group_name_H-M   'P 1'
_symmetry_Int_Tables_number      1
_space_group_name_Hall           'P 1'
loop_
_symmetry_equiv_pos_site_id
_symmetry_equiv_pos_as_xyz
1 x,y,z
_cell_length_a                   6.4653(12)
_cell_length_b                   8.2956(15)
_cell_length_c                   8.7113(15)
_cell_angle_alpha                65.794(19)
_cell_angle_beta                 73.47(2)
_cell_angle_gamma                82.88(2)
_cell_volume                     408.513
loop_
_atom_site_label
_atom_site_type_symbol
_atom_site_fract_x
_atom_site_fract_y
_atom_site_fract_z
Cd1 Cd 0.50388(3) -0.15648(3) 0.03640(3)
O1 O 0.3261(9) 0.0835(8) 0.1134(8)
O2 O 0.1720(6) -0.2142(6) 0.0251(5)
O3 O 0.4158(6) -0.4012(5) 0.4515(5)
O4 O -0.1860(6) -0.0094(5) 0.9800(5)
O5 O -0.3554(5) 0.0990(5) 0.7700(4)
O6 O -0.3306(6) 0.5481(5) 1.1311(5)
O7 O -0.3509(7) 0.6853(6) 0.8601(6)
N1 N 0.1945(7) 0.1839(7) 0.3279(6)
N2 N 0.1525(7) -0.0054(7) 0.6274(6)
N3 N 0.2652(7) -0.2919(6) 0.7080(6)
N4 N 0.3876(6) -0.2461(6) 0.3444(6)
N5 N 0.0375(6) 0.2795(6) 0.5496(6)
C1 C 0.2763(8) 0.0502(8) 0.2697(7)
C2 C 0.2997(7) -0.1219(7) 0.4048(7)
C3 C 0.2382(12) -0.1383(12) 0.5822(11)
C4 C 0.1286(7) 0.1490(7) 0.5019(7)
C5 C 0.1902(8) 0.3638(8) 0.1992(8)
C6 C -0.0367(8) 0.2470(7) 0.7343(7)
C7 C -0.2016(7) 0.0998(7) 0.8321(6)
C8 C -0.1389(9) 0.4177(9) 0.7547(8)
C9 C -0.2021(8) 0.3908(8) 0.9445(7)
C10 C -0.2978(12) 0.5524(12) 0.9808(11)
H1 H 0.099(10) -0.282(8) 0.123(5)
H2 H 0.115(9) -0.122(5) -0.031(7)
H3 H 0.22670 -0.30280 0.81720
H4 H 0.32160 -0.38270 0.68230
H5 H 0.02200 0.38490 0.47030
H6 H 0.04020 0.40350 0.20390
H7 H 0.26230 0.36690 0.08270
H8 H 0.26520 0.44200 0.22450
H9 H 0.09000 0.21270 0.78580
H10 H -0.03440 0.51560 0.68700
H11 H -0.26810 0.45030 0.70840
H12 H -0.07270 0.35200 0.99030
H13 H -0.30840 0.29400 1.00980
O4_2 O 0.8140(6) -0.0094(5) -0.0200(5)
O5_2 O 0.6446(5) 0.0990(5) -0.2300(4)
O6_2 O 0.6694(6) -0.4519(5) 0.1311(5)
O7_2 O 0.6491(7) -0.3147(6) -0.1399(6)
Cd1_2 Cd -0.49612(3) -0.15648(3) 1.03640(3)
Cd1_3 Cd -0.49612(3) 0.84352(3) 1.03640(3)
O8 O 0.6246(7) 0.2048(6) 0.4199(5)
H14 H 0.665(11) 0.300(6) 0.334(5)
H15 H 0.602(11) 0.199(9) 0.521(4)
O9 O 0.8976(5) 0.6306(5) 0.3383(5)
H16 H 0.789(6) 0.603(8) 0.321(8)
H17 H 0.875(11) 0.694(10) 0.396(10)
O10 O 0.7895(10) 0.8584(9) 0.4924(9)
H18 H 0.734(11) 0.800(8) 0.599(4)
H19 H 0.756(11) 0.964(4) 0.446(8)
loop_
_geom_bond_atom_site_label_1
_geom_bond_atom_site_label_2
_geom_bond_site_symmetry_1
_geom_bond_site_symmetry_2
Cd1 O1 1_555 1_555
O1 C1 1_555 1_555
O2 Cd1 1_555 1_555
O3 N4 1_555 1_555
O4 C7 1_555 1_555
O5 C7 1_555 1_555
O6 C10 1_555 1_555
O7 C10 1_555 1_555
N1 C1 1_555 1_555
N2 C3 1_555 1_555
N3 C3 1_555 1_555
N4 Cd1 1_555 1_555
N5 C4 1_555 1_555
C1 C2 1_555 1_555
C2 N4 1_555 1_555
C3 C2 1_555 1_555
C4 N1 1_555 1_555
C5 N1 1_555 1_555
C6 N5 1_555 1_555
C7 C6 1_555 1_555
C8 C6 1_555 1_555
C9 C8 1_555 1_555
C10 C9 1_555 1_555
H1 O2 1_555 1_555
H2 O2 1_555 1_555
H3 N3 1_555 1_555
H4 N3 1_555 1_555
H5 N5 1_555 1_555
H6 C5 1_555 1_555
H7 C5 1_555 1_555
H8 C5 1_555 1_555
H9 C6 1_555 1_555
H10 C8 1_555 1_555
H11 C8 1_555 1_555
H12 C9 1_555 1_555
H13 C9 1_555 1_555
O8 H14 1_555 1_555
H15 O8 1_555 1_555
O9 H16 1_555 1_555
H17 O9 1_555 1_555
O10 H18 1_555 1_555
H19 O10 1_555 1_555
O4_2 Cd1 1_555 1_555
O5_2 Cd1 1_555 1_555
O6_2 Cd1 1_555 1_555
O7_2 Cd1 1_555 1_555
Cd1_2 O4 1_555 1_555
Cd1_3 O6 1_555 1_555
O5 Cd1_2 1_555 1_555
O7 Cd1_3 1_555 1_555
N2 C4 1_555 1_555

#END
