
#######################################################################
#
#                 Cambridge Crystallographic Data Centre
#                                CCDC 
#
#######################################################################
#
# If this CIF has been generated from an entry in the Cambridge 
# Structural Database, then it will include bibliographic, chemical, 
# crystal, experimental, refinement or atomic coordinate data resulting 
# from the CCDC's data processing and validation procedures.
#
#######################################################################

data_QIVSET
_symmetry_cell_setting           orthorhombic
_symmetry_space_group_name_H-M   'P 21 21 2'
_symmetry_Int_Tables_number      18
_space_group_name_Hall           'P 2 2ab'
loop_
_symmetry_equiv_pos_site_id
_symmetry_equiv_pos_as_xyz
1 x,y,z
2 -x,-y,z
3 1/2-x,1/2+y,-z
4 1/2+x,1/2-y,-z
_cell_length_a                   12.5550(10)
_cell_length_b                   21.2380(10)
_cell_length_c                   5.4150(10)
_cell_angle_alpha                90
_cell_angle_beta                 90
_cell_angle_gamma                90
_cell_volume                     1443.87
loop_
_atom_site_label
_atom_site_type_symbol
_atom_site_fract_x
_atom_site_fract_y
_atom_site_fract_z
Sn1 Sn 0.0000 0.0000 0.10115(6)
S1 S 0.04997(8) -0.10728(4) -0.3937(2)
O1 O 0.0091(6) -0.07575(15) -0.1749(6)
O2 O -0.0008(6) -0.08039(15) -0.6108(5)
O3 O 0.1628(2) -0.10704(15) -0.4073(8)
C1 C 0.0038(4) -0.18672(17) -0.3571(6)
C2 C -0.0824(4) -0.2106(2) -0.4942(10)
C3 C -0.1129(4) -0.2727(2) -0.4475(11)
H1 H -0.1691 -0.2898 -0.5372
C4 C -0.0627(4) -0.3097(2) -0.2730(11)
C5 C 0.0200(4) -0.2842(2) -0.1422(9)
H2 H 0.0540 -0.3090 -0.0248
C6 C 0.0555(4) -0.22323(19) -0.1764(9)
C7 C -0.1456(4) -0.1759(2) -0.6834(13)
H3 H -0.1002 -0.1646 -0.8189
H4 H -0.1750 -0.1385 -0.6110
H5 H -0.2022 -0.2023 -0.7420
C8 C -0.1001(4) -0.3771(2) -0.2258(16)
H6 H -0.1531 -0.3884 -0.3457
H7 H -0.1300 -0.3800 -0.0631
H8 H -0.0406 -0.4053 -0.2390
C9 C 0.1441(4) -0.2003(2) -0.0125(10)
H9 H 0.1211 -0.1634 0.0749
H10 H 0.2052 -0.1902 -0.1116
H11 H 0.1626 -0.2326 0.1037
C10 C 0.1682(3) 0.0040(2) 0.1130(7)
H12 H 0.1892 0.0251 0.2643
H13 H 0.1955 -0.0386 0.1202
C11 C 0.2206(4) 0.0375(2) -0.1025(10)
H14 H 0.1988 0.0170 -0.2543
H15 H 0.1946 0.0805 -0.1080
C12 C 0.3390(4) 0.0389(3) -0.0935(12)
H16 H 0.3649 -0.0039 -0.0797
H17 H 0.3608 0.0613 0.0542
C13 C 0.3906(5) 0.0693(4) -0.3122(13)
H18 H 0.4666 0.0674 -0.2944
H19 H 0.3685 0.1125 -0.3228
H20 H 0.3698 0.0474 -0.4598
S1A S -0.04997(8) 0.10728(4) -0.3937(2)
O1A O -0.0091(6) 0.07575(15) -0.1749(6)
O2A O 0.0008(6) 0.08039(15) -0.6108(5)
O3A O -0.1628(2) 0.10704(15) -0.4073(8)
C1A C -0.0038(4) 0.18672(17) -0.3571(6)
C2A C 0.0824(4) 0.2106(2) -0.4942(10)
C3A C 0.1129(4) 0.2727(2) -0.4475(11)
H1A H 0.1691 0.2898 -0.5372
C4A C 0.0627(4) 0.3097(2) -0.2730(11)
C5A C -0.0200(4) 0.2842(2) -0.1422(9)
H2A H -0.0540 0.3090 -0.0248
C6A C -0.0555(4) 0.22323(19) -0.1764(9)
C7A C 0.1456(4) 0.1759(2) -0.6834(13)
H3A H 0.1002 0.1646 -0.8189
H4A H 0.1750 0.1385 -0.6110
H5A H 0.2022 0.2023 -0.7420
C8A C 0.1001(4) 0.3771(2) -0.2258(16)
H6A H 0.1531 0.3884 -0.3457
H7A H 0.1300 0.3800 -0.0631
H8A H 0.0406 0.4053 -0.2390
C9A C -0.1441(4) 0.2003(2) -0.0125(10)
H9A H -0.1211 0.1634 0.0749
H10A H -0.2052 0.1902 -0.1116
H11A H -0.1626 0.2326 0.1037
C10A C -0.1682(3) -0.0040(2) 0.1130(7)
H12A H -0.1892 -0.0251 0.2643
H13A H -0.1955 0.0386 0.1202
C11A C -0.2206(4) -0.0375(2) -0.1025(10)
H14A H -0.1988 -0.0170 -0.2543
H15A H -0.1946 -0.0805 -0.1080
C12A C -0.3390(4) -0.0389(3) -0.0935(12)
H16A H -0.3649 0.0039 -0.0797
H17A H -0.3608 -0.0613 0.0542
C13A C -0.3906(5) -0.0693(4) -0.3122(13)
H18A H -0.4666 -0.0674 -0.2944
H19A H -0.3685 -0.1125 -0.3228
H20A H -0.3698 -0.0474 -0.4598
O2_2 O -0.0008(6) -0.08039(15) 0.3892(5)
O2A_2 O 0.0008(6) 0.08039(15) 0.3892(5)
Sn1_2 Sn 0.0000 0.0000 -0.89885(6)
loop_
_geom_bond_atom_site_label_1
_geom_bond_atom_site_label_2
_geom_bond_site_symmetry_1
_geom_bond_site_symmetry_2
Sn1 O1 1_555 1_555
S1 O1 1_555 1_555
O2 S1 1_555 1_555
O3 S1 1_555 1_555
C1 S1 1_555 1_555
C2 C1 1_555 1_555
C3 C2 1_555 1_555
H1 C3 1_555 1_555
C4 C3 1_555 1_555
C5 C4 1_555 1_555
H2 C5 1_555 1_555
C6 C1 1_555 1_555
C7 C2 1_555 1_555
H3 C7 1_555 1_555
H4 C7 1_555 1_555
H5 C7 1_555 1_555
C8 C4 1_555 1_555
H6 C8 1_555 1_555
H7 C8 1_555 1_555
H8 C8 1_555 1_555
C9 C6 1_555 1_555
H9 C9 1_555 1_555
H10 C9 1_555 1_555
H11 C9 1_555 1_555
C10 Sn1 1_555 1_555
H12 C10 1_555 1_555
H13 C10 1_555 1_555
C11 C10 1_555 1_555
H14 C11 1_555 1_555
H15 C11 1_555 1_555
C12 C11 1_555 1_555
H16 C12 1_555 1_555
H17 C12 1_555 1_555
C13 C12 1_555 1_555
H18 C13 1_555 1_555
H19 C13 1_555 1_555
H20 C13 1_555 1_555
S1A O1A 1_555 1_555
O1A Sn1 1_555 1_555
O2A S1A 1_555 1_555
O3A S1A 1_555 1_555
C1A S1A 1_555 1_555
C2A C1A 1_555 1_555
C3A C2A 1_555 1_555
H1A C3A 1_555 1_555
C4A C3A 1_555 1_555
C5A C4A 1_555 1_555
H2A C5A 1_555 1_555
C6A C1A 1_555 1_555
C7A C2A 1_555 1_555
H3A C7A 1_555 1_555
H4A C7A 1_555 1_555
H5A C7A 1_555 1_555
C8A C4A 1_555 1_555
H6A C8A 1_555 1_555
H7A C8A 1_555 1_555
H8A C8A 1_555 1_555
C9A C6A 1_555 1_555
H9A C9A 1_555 1_555
H10A C9A 1_555 1_555
H11A C9A 1_555 1_555
C10A Sn1 1_555 1_555
H12A C10A 1_555 1_555
H13A C10A 1_555 1_555
C11A C10A 1_555 1_555
H14A C11A 1_555 1_555
H15A C11A 1_555 1_555
C12A C11A 1_555 1_555
H16A C12A 1_555 1_555
H17A C12A 1_555 1_555
C13A C12A 1_555 1_555
H18A C13A 1_555 1_555
H19A C13A 1_555 1_555
H20A C13A 1_555 1_555
O2_2 Sn1 1_555 1_555
O2A_2 Sn1 1_555 1_555
Sn1_2 O2 1_555 1_555
C5 C6 1_555 1_555
O2A Sn1_2 1_555 1_555
C5A C6A 1_555 1_555

#END
