
#######################################################################
#
#                 Cambridge Crystallographic Data Centre
#                                CCDC 
#
#######################################################################
#
# If this CIF has been generated from an entry in the Cambridge 
# Structural Database, then it will include bibliographic, chemical, 
# crystal, experimental, refinement or atomic coordinate data resulting 
# from the CCDC's data processing and validation procedures.
#
#######################################################################

data_QIVTIZ
_symmetry_cell_setting           monoclinic
_symmetry_space_group_name_H-M   'C 2/c'
_symmetry_Int_Tables_number      15
_space_group_name_Hall           '-C 2yn'
loop_
_symmetry_equiv_pos_site_id
_symmetry_equiv_pos_as_xyz
1 x,y,z
2 1/2+x,1/2+y,z
3 -x,y,1/2-z
4 1/2-x,1/2+y,1/2-z
5 -x,-y,-z
6 1/2-x,1/2-y,-z
7 x,-y,1/2+z
8 1/2+x,1/2-y,1/2+z
_cell_length_a                   17.785(4)
_cell_length_b                   10.345(2)
_cell_length_c                   23.744(5)
_cell_angle_alpha                90
_cell_angle_beta                 110.12(3)
_cell_angle_gamma                90
_cell_volume                     4101.96
loop_
_atom_site_label
_atom_site_type_symbol
_atom_site_fract_x
_atom_site_fract_y
_atom_site_fract_z
Co1 Co 0.557113(15) 0.36094(2) 0.870045(11)
O1 O 0.45270(8) 0.29670(14) 0.81432(6)
O2 O 0.43611(8) 0.24313(14) 0.89940(6)
O3 O 0.20877(9) -0.01835(16) 0.90243(6)
O4 O 0.11428(8) -0.07241(14) 0.81777(6)
O5 O 0.17227(11) -0.00526(19) 0.62960(7)
O6 O 0.22954(10) 0.17593(18) 0.62507(7)
N1 N 0.21281(10) 0.0884(2) 0.65300(7)
N2 N 0.61405(10) 0.20572(16) 0.91713(7)
N3 N 0.68527(13) 0.0726(2) 0.98812(9)
H1 H 0.7138 0.0451 1.0231
N4 N 0.54954(10) 0.50813(16) 0.92332(7)
N5 N 0.57022(13) 0.62973(18) 1.00395(8)
H2 H 0.5880 0.6532 1.0409
C1 C 0.33709(11) 0.17539(17) 0.80938(8)
C2 C 0.29484(11) 0.11211(17) 0.84080(8)
H3 H 0.3126 0.1182 0.8824
C3 C 0.22690(11) 0.04017(17) 0.81147(8)
C4 C 0.20102(11) 0.02891(19) 0.74941(8)
H4 H 0.1572 -0.0223 0.7289
C5 C 0.24248(11) 0.0962(2) 0.71913(8)
C6 C 0.30897(11) 0.17131(18) 0.74720(8)
H5 H 0.3341 0.2177 0.7252
C7 C 0.41355(11) 0.24422(17) 0.84378(8)
C8 C 0.18126(11) -0.02226(18) 0.84719(8)
C9 C 0.65618(14) 0.1916(3) 0.97463(10)
H6 H 0.6646 0.2576 1.0027
C10 C 0.61699(12) 0.0849(2) 0.89217(10)
C11 C 0.58296(15) 0.0443(3) 0.83272(12)
H7 H 0.5520 0.0998 0.8029
C12 C 0.5970(2) -0.0806(3) 0.82012(17)
H8 H 0.5753 -0.1104 0.7809
C13 C 0.6425(2) -0.1631(3) 0.8641(2)
H9 H 0.6506 -0.2473 0.8537
C14 C 0.6761(2) -0.1259(3) 0.9226(2)
H10 H 0.7070 -0.1823 0.9520
C15 C 0.66179(15) 0.0022(2) 0.93641(12)
C16 C 0.58384(14) 0.5173(2) 0.98223(10)
H11 H 0.6144 0.4517 1.0060
C17 C 0.52275(14) 0.7014(2) 0.95667(10)
C18 C 0.49101(18) 0.8245(2) 0.95445(15)
H12 H 0.4995 0.8740 0.9888
C19 C 0.4472(2) 0.8678(3) 0.89949(17)
H13 H 0.4248 0.9499 0.8960
C20 C 0.43385(18) 0.7948(3) 0.84741(15)
H14 H 0.4026 0.8295 0.8107
C21 C 0.46602(15) 0.6720(3) 0.84914(12)
H15 H 0.4582 0.6235 0.8146
C22 C 0.51065(13) 0.6262(2) 0.90574(10)
Co1A Co 0.057113(15) -0.13906(2) 0.870045(11)
O4A O 0.61428(8) 0.42759(14) 0.81777(6)
loop_
_geom_bond_atom_site_label_1
_geom_bond_atom_site_label_2
_geom_bond_site_symmetry_1
_geom_bond_site_symmetry_2
Co1 O1 1_555 1_555
O1 C7 1_555 1_555
O2 C7 1_555 1_555
O3 C8 1_555 1_555
O4 C8 1_555 1_555
O5 N1 1_555 1_555
O6 N1 1_555 1_555
N1 C5 1_555 1_555
N2 Co1 1_555 1_555
N3 H1 1_555 1_555
N4 Co1 1_555 1_555
N5 H2 1_555 1_555
C1 C2 1_555 1_555
C2 H3 1_555 1_555
C3 C2 1_555 1_555
C4 C3 1_555 1_555
H4 C4 1_555 1_555
C5 C4 1_555 1_555
C6 C1 1_555 1_555
H5 C6 1_555 1_555
C7 C1 1_555 1_555
C8 C3 1_555 1_555
C9 N2 1_555 1_555
H6 C9 1_555 1_555
C10 N2 1_555 1_555
C11 C10 1_555 1_555
H7 C11 1_555 1_555
C12 C11 1_555 1_555
H8 C12 1_555 1_555
C13 C12 1_555 1_555
H9 C13 1_555 1_555
C14 C13 1_555 1_555
H10 C14 1_555 1_555
C15 N3 1_555 1_555
C16 N4 1_555 1_555
H11 C16 1_555 1_555
C17 N5 1_555 1_555
C18 C17 1_555 1_555
H12 C18 1_555 1_555
C19 C18 1_555 1_555
H13 C19 1_555 1_555
C20 C19 1_555 1_555
H14 C20 1_555 1_555
C21 C20 1_555 1_555
H15 C21 1_555 1_555
C22 N4 1_555 1_555
Co1A O4 1_555 1_555
O4A Co1 1_555 1_555
N3 C9 1_555 1_555
N5 C16 1_555 1_555
C5 C6 1_555 1_555
C10 C15 1_555 1_555
C14 C15 1_555 1_555
C17 C22 1_555 1_555
C21 C22 1_555 1_555

#END
