
#######################################################################
#
#                 Cambridge Crystallographic Data Centre
#                                CCDC 
#
#######################################################################
#
# If this CIF has been generated from an entry in the Cambridge 
# Structural Database, then it will include bibliographic, chemical, 
# crystal, experimental, refinement or atomic coordinate data resulting 
# from the CCDC's data processing and validation procedures.
#
#######################################################################

data_QIVVAT
_symmetry_cell_setting           triclinic
_symmetry_space_group_name_H-M   'P -1'
_symmetry_Int_Tables_number      2
_space_group_name_Hall           '-P 1'
loop_
_symmetry_equiv_pos_site_id
_symmetry_equiv_pos_as_xyz
1 x,y,z
2 -x,-y,-z
_cell_length_a                   12.512(3)
_cell_length_b                   12.994(3)
_cell_length_c                   13.599(3)
_cell_angle_alpha                74.74(3)
_cell_angle_beta                 86.44(3)
_cell_angle_gamma                85.92(3)
_cell_volume                     2125.42
loop_
_atom_site_label
_atom_site_type_symbol
_atom_site_fract_x
_atom_site_fract_y
_atom_site_fract_z
Cu1 Cu 0.75800(3) 0.63480(2) 0.35578(3)
Cu2 Cu 1.09711(3) 0.05633(3) 0.25877(3)
O1 O 0.7016(2) 0.59310(17) 0.1689(2)
O2 O 0.78374(19) 0.50502(16) 0.30784(17)
O3 O 0.97717(17) 0.16137(16) 0.24823(18)
O4 O 0.8896(2) 0.06935(18) 0.1656(2)
O5 O 0.4992(2) 0.1916(3) 0.1136(3)
O6 O 0.4930(3) 0.3571(3) 0.0238(3)
O7 O 0.70367(16) 0.77087(15) 0.38363(18)
O8 O 0.55171(18) 0.73219(16) 0.33043(18)
O9 O 0.23862(16) 0.98660(16) 0.29747(16)
O10 O 0.24287(17) 1.13102(17) 0.35424(18)
O11 O 0.5951(2) 1.24040(19) 0.4132(3)
O12 O 0.72963(19) 1.1267(2) 0.4374(2)
N1 N 0.5352(3) 0.2811(3) 0.0842(3)
N2 N 0.6847(2) 0.54612(19) 0.4795(2)
N3 N 0.5936(3) 0.4131(2) 0.5734(3)
N4 N 0.8704(2) 0.71405(19) 0.2624(2)
N5 N 0.9427(3) 0.8550(2) 0.1597(2)
N6 N 0.6379(2) 1.15257(19) 0.4144(2)
N7 N 1.2232(3) 0.2563(3) -0.0015(3)
N8 N 1.1612(2) 0.1287(2) 0.1251(2)
N9 N 0.9113(2) -0.1231(3) 0.4912(2)
N10 N 1.0244(2) -0.05251(19) 0.36420(19)
C1 C 0.7373(2) 0.4077(2) 0.1949(2)
C2 C 0.8159(2) 0.3249(2) 0.2185(2)
C3 C 0.8063(2) 0.2307(2) 0.1905(2)
C4 C 0.7134(3) 0.2142(2) 0.1491(2)
C5 C 0.6360(3) 0.2967(3) 0.1276(2)
C6 C 0.6485(3) 0.3954(3) 0.1442(3)
C7 C 0.7420(2) 0.5116(2) 0.2240(2)
C8 C 0.8975(3) 0.1453(2) 0.2025(2)
C9 C 0.6682(2) 0.5600(2) 0.5779(3)
C10 C 0.7001(3) 0.6393(3) 0.6206(3)
C11 C 0.6754(3) 0.6273(3) 0.7233(3)
C12 C 0.6206(4) 0.5405(4) 0.7821(4)
C13 C 0.5857(3) 0.4648(3) 0.7398(3)
C14 C 0.6117(3) 0.4757(3) 0.6377(3)
C15 C 0.6383(3) 0.4572(3) 0.4824(3)
C16 C 0.9575(3) 0.6793(3) 0.2086(2)
C17 C 1.0028(3) 0.5768(3) 0.2156(3)
C18 C 1.0935(4) 0.5683(4) 0.1530(5)
C19 C 1.1353(4) 0.6575(5) 0.0867(5)
C20 C 1.0939(4) 0.7587(4) 0.0802(4)
C21 C 1.0031(3) 0.7688(3) 0.1432(3)
C22 C 0.8664(3) 0.8193(2) 0.2298(3)
C23 C 0.5590(2) 0.9016(2) 0.3629(2)
C24 C 0.4522(2) 0.9271(2) 0.3434(2)
C25 C 0.4047(2) 1.0250(2) 0.3491(2)
C26 C 0.4661(2) 1.0998(2) 0.3718(2)
C27 C 0.5729(2) 1.0742(2) 0.3883(2)
C28 C 0.6218(2) 0.9756(2) 0.3854(2)
C29 C 0.6068(2) 0.7923(2) 0.3589(2)
C30 C 0.2874(2) 1.0505(2) 0.3330(2)
C31 C 1.2369(3) 0.0829(3) 0.0671(2)
C32 C 1.2752(3) -0.0225(3) 0.0794(3)
C33 C 1.3512(4) -0.0425(4) 0.0092(3)
C34 C 1.3886(4) 0.0378(4) -0.0722(3)
C35 C 1.3531(3) 0.1439(4) -0.0846(3)
C36 C 1.2760(3) 0.1634(3) -0.0129(3)
C37 C 1.1570(3) 0.2319(3) 0.0794(3)
C38 C 1.0506(2) -0.1615(2) 0.3981(2)
C39 C 1.1289(3) -0.2259(3) 0.3618(3)
C40 C 1.1335(3) -0.3330(3) 0.4100(3)
C41 C 1.0647(3) -0.3762(3) 0.4926(3)
C42 C 0.9860(3) -0.3145(3) 0.5284(3)
C43 C 0.9806(3) -0.2057(3) 0.4782(2)
C44 C 0.9402(2) -0.0357(3) 0.4225(3)
H1 H 0.879(3) 0.335(2) 0.252(2)
H2 H 0.563(3) 0.368(3) 0.592(3)
H3 H 0.708(3) 0.156(3) 0.132(3)
H4 H 0.958(5) 0.913(4) 0.138(4)
H5 H 0.592(3) 0.452(3) 0.127(2)
H6 H 1.244(4) 0.303(3) -0.037(3)
H7 H 0.872(4) -0.127(4) 0.536(4)
H8 H 0.734(3) 0.691(3) 0.582(3)
H9 H 0.698(4) 0.674(3) 0.753(3)
H10 H 0.594(4) 0.537(4) 0.841(3)
H11 H 0.550(3) 0.414(3) 0.777(3)
H12 H 0.631(3) 0.431(3) 0.423(3)
H13 H 0.978(3) 0.516(3) 0.260(2)
H14 H 1.128(4) 0.504(4) 0.162(4)
H15 H 1.209(5) 0.645(4) 0.045(4)
H16 H 1.122(4) 0.815(4) 0.029(4)
H17 H 0.818(3) 0.862(3) 0.251(3)
H18 H 0.408(3) 0.870(3) 0.334(3)
H19 H 0.440(3) 1.161(3) 0.380(2)
H20 H 0.692(3) 0.952(2) 0.407(2)
H21 H 1.250(4) -0.077(3) 0.136(3)
H22 H 1.377(3) -0.112(3) 0.017(3)
H23 H 1.449(4) 0.022(4) -0.121(4)
H24 H 1.373(3) 0.198(3) -0.140(3)
H25 H 1.114(4) 0.273(3) 0.107(3)
H26 H 1.172(3) -0.202(3) 0.306(3)
H27 H 1.184(3) -0.377(3) 0.393(3)
H28 H 1.071(4) -0.457(4) 0.528(4)
H29 H 0.945(4) -0.343(3) 0.575(3)
H30 H 0.915(3) 0.022(3) 0.419(3)
Cu2_2 Cu 0.09711(3) 1.05633(3) 0.25877(3)
O9_2 O 1.23862(16) -0.01340(16) 0.29747(16)
loop_
_geom_bond_atom_site_label_1
_geom_bond_atom_site_label_2
_geom_bond_site_symmetry_1
_geom_bond_site_symmetry_2
Cu1 O2 1_555 1_555
Cu2 O3 1_555 1_555
O1 C7 1_555 1_555
O2 C7 1_555 1_555
O3 C8 1_555 1_555
O4 C8 1_555 1_555
O5 N1 1_555 1_555
O6 N1 1_555 1_555
O7 Cu1 1_555 1_555
O8 C29 1_555 1_555
O9 C30 1_555 1_555
O10 C30 1_555 1_555
O11 N6 1_555 1_555
O12 N6 1_555 1_555
N1 C5 1_555 1_555
N2 Cu1 1_555 1_555
N3 C14 1_555 1_555
N4 Cu1 1_555 1_555
N5 C21 1_555 1_555
N6 C27 1_555 1_555
N7 C36 1_555 1_555
N8 Cu2 1_555 1_555
N9 C43 1_555 1_555
N10 Cu2 1_555 1_555
C1 C2 1_555 1_555
C2 C3 1_555 1_555
C3 C4 1_555 1_555
C4 C5 1_555 1_555
C5 C6 1_555 1_555
C6 C1 1_555 1_555
C7 C1 1_555 1_555
C8 C3 1_555 1_555
C9 N2 1_555 1_555
C10 C9 1_555 1_555
C11 C10 1_555 1_555
C12 C11 1_555 1_555
C13 C12 1_555 1_555
C14 C9 1_555 1_555
C15 N2 1_555 1_555
C16 N4 1_555 1_555
C17 C16 1_555 1_555
C18 C17 1_555 1_555
C19 C18 1_555 1_555
C20 C19 1_555 1_555
C21 C16 1_555 1_555
C22 N4 1_555 1_555
C23 C24 1_555 1_555
C24 C25 1_555 1_555
C25 C26 1_555 1_555
C26 C27 1_555 1_555
C27 C28 1_555 1_555
C28 C23 1_555 1_555
C29 O7 1_555 1_555
C30 C25 1_555 1_555
C31 N8 1_555 1_555
C32 C31 1_555 1_555
C33 C32 1_555 1_555
C34 C33 1_555 1_555
C35 C34 1_555 1_555
C36 C31 1_555 1_555
C37 N7 1_555 1_555
C38 N10 1_555 1_555
C39 C38 1_555 1_555
C40 C39 1_555 1_555
C41 C40 1_555 1_555
C42 C41 1_555 1_555
C43 C38 1_555 1_555
C44 N9 1_555 1_555
H1 C2 1_555 1_555
H2 N3 1_555 1_555
H3 C4 1_555 1_555
H4 N5 1_555 1_555
H5 C6 1_555 1_555
H6 N7 1_555 1_555
H7 N9 1_555 1_555
H8 C10 1_555 1_555
H9 C11 1_555 1_555
H10 C12 1_555 1_555
H11 C13 1_555 1_555
H12 C15 1_555 1_555
H13 C17 1_555 1_555
H14 C18 1_555 1_555
H15 C19 1_555 1_555
H16 C20 1_555 1_555
H17 C22 1_555 1_555
H18 C24 1_555 1_555
H19 C26 1_555 1_555
H20 C28 1_555 1_555
H21 C32 1_555 1_555
H22 C33 1_555 1_555
H23 C34 1_555 1_555
H24 C35 1_555 1_555
H25 C37 1_555 1_555
H26 C39 1_555 1_555
H27 C40 1_555 1_555
H28 C41 1_555 1_555
H29 C42 1_555 1_555
H30 C44 1_555 1_555
Cu2_2 O9 1_555 1_555
O9_2 Cu2 1_555 1_555
N3 C15 1_555 1_555
N5 C22 1_555 1_555
N8 C37 1_555 1_555
N10 C44 1_555 1_555
C13 C14 1_555 1_555
C20 C21 1_555 1_555
C23 C29 1_555 1_555
C35 C36 1_555 1_555
C42 C43 1_555 1_555

#END
