
#######################################################################
#
#                 Cambridge Crystallographic Data Centre
#                                CCDC 
#
#######################################################################
#
# If this CIF has been generated from an entry in the Cambridge 
# Structural Database, then it will include bibliographic, chemical, 
# crystal, experimental, refinement or atomic coordinate data resulting 
# from the CCDC's data processing and validation procedures.
#
#######################################################################

data_QIVZAY
_symmetry_cell_setting           monoclinic
_symmetry_space_group_name_H-M   'C 2/c'
_symmetry_Int_Tables_number      15
_space_group_name_Hall           '-C 2yn'
loop_
_symmetry_equiv_pos_site_id
_symmetry_equiv_pos_as_xyz
1 x,y,z
2 -x,y,1/2-z
3 1/2+x,1/2+y,z
4 1/2-x,1/2+y,1/2-z
5 -x,-y,-z
6 x,-y,1/2+z
7 1/2-x,1/2-y,-z
8 1/2+x,1/2-y,1/2+z
_cell_length_a                   16.000(5)
_cell_length_b                   5.452(5)
_cell_length_c                   22.025(5)
_cell_angle_alpha                90
_cell_angle_beta                 107.704(5)
_cell_angle_gamma                90
_cell_volume                     1830.29
loop_
_atom_site_label
_atom_site_type_symbol
_atom_site_fract_x
_atom_site_fract_y
_atom_site_fract_z
Zn1 Zn 0.5000 0.09087(3) 0.7500
C1 C 0.38147(8) -0.3095(2) 0.76446(6)
H1 H 0.4117 -0.2911 0.8075
O1 O 0.51988(6) 0.31114(18) 0.82178(4)
O2 O 0.46796(9) 0.0447(2) 0.87783(5)
C2 C 0.27689(8) -0.5281(2) 0.68155(6)
H2 H 0.2365 -0.6547 0.6681
N1 N 0.39714(7) -0.1512(2) 0.72253(5)
C3 C 0.32179(8) -0.4993(3) 0.74563(6)
H3 H 0.3120 -0.6062 0.7756
N2 N 0.27054(8) -0.2337(2) 0.53266(5)
C4 C 0.24857(8) -0.3935(2) 0.56777(6)
C5 C 0.29255(8) -0.3662(2) 0.63733(6)
C6 C 0.49699(8) 0.2474(2) 0.87087(6)
C7 C 0.35377(8) -0.1799(2) 0.66040(6)
H4 H 0.3650 -0.0707 0.6314
C8 C 0.49326(8) 0.4066(2) 0.97569(6)
C9 C 0.51006(8) 0.4417(2) 0.92045(6)
C10 C 0.18518(10) -0.5999(3) 0.54569(7)
H5 H 0.1618 -0.5959 0.5001
H6 H 0.1382 -0.5834 0.5641
H7 H 0.2148 -0.7531 0.5588
H8 H 0.5297(13) 0.592(3) 0.9105(10)
H9 H 0.4727(11) 0.253(4) 0.9849(8)
C1F C 0.11853(8) -0.1905(2) 0.23554(6)
H1F H 0.0883 -0.2089 0.1925
C2F C 0.22311(8) 0.0281(2) 0.31845(6)
H2F H 0.2635 0.1547 0.3319
N1F N 0.10286(7) -0.3488(2) 0.27747(5)
C3F C 0.17821(8) -0.0007(3) 0.25437(6)
H3F H 0.1880 0.1062 0.2244
N2F N 0.22946(8) -0.2663(2) 0.46734(5)
C4F C 0.25143(8) -0.1065(2) 0.43223(6)
C5F C 0.20745(8) -0.1338(2) 0.36267(6)
C7F C 0.14623(8) -0.3201(2) 0.33960(6)
H4F H 0.1350 -0.4293 0.3686
C10F C 0.31482(10) 0.0999(3) 0.45431(7)
H5F H 0.3382 0.0959 0.4999
H6F H 0.3618 0.0834 0.4359
H7F H 0.2852 0.2531 0.4412
O1D O 0.48012(6) 0.68886(18) 1.17822(4)
O2D O 0.53204(9) 0.9553(2) 1.12217(5)
C6D C 0.50301(8) 0.7526(2) 1.12913(6)
C8D C 0.50674(8) 0.5934(2) 1.02431(6)
C9D C 0.48994(8) 0.5583(2) 1.07955(6)
H8D H 0.4703(13) 0.408(3) 1.0895(10)
H9D H 0.5273(11) 0.747(4) 1.0151(8)
Zn1D Zn 0.5000 0.90913(3) 1.2500
Zn1F Zn 0.0000 -0.59087(3) 0.2500
O1A O 0.48012(6) 0.31114(18) 0.67822(4)
N1A N 0.60286(7) -0.1512(2) 0.77747(5)
loop_
_geom_bond_atom_site_label_1
_geom_bond_atom_site_label_2
_geom_bond_site_symmetry_1
_geom_bond_site_symmetry_2
Zn1 O1 1_555 1_555
C1 H1 1_555 1_555
O1 C6 1_555 1_555
O2 C6 1_555 1_555
C2 H2 1_555 1_555
N1 Zn1 1_555 1_555
C3 C1 1_555 1_555
H3 C3 1_555 1_555
N2 C4 1_555 1_555
C4 C5 1_555 1_555
C5 C2 1_555 1_555
C6 C9 1_555 1_555
C7 N1 1_555 1_555
H4 C7 1_555 1_555
C8 C9 1_555 1_555
C9 H8 1_555 1_555
C10 C4 1_555 1_555
H5 C10 1_555 1_555
H6 C10 1_555 1_555
H7 C10 1_555 1_555
H9 C8 1_555 1_555
C1F H1F 1_555 1_555
C2F H2F 1_555 1_555
N1F C1F 1_555 1_555
C3F C1F 1_555 1_555
H3F C3F 1_555 1_555
N2F N2 1_555 1_555
C4F N2F 1_555 1_555
C5F C2F 1_555 1_555
C7F N1F 1_555 1_555
H4F C7F 1_555 1_555
C10F C4F 1_555 1_555
H5F C10F 1_555 1_555
H6F C10F 1_555 1_555
H7F C10F 1_555 1_555
O1D C6D 1_555 1_555
O2D C6D 1_555 1_555
C6D C9D 1_555 1_555
C8D C8 1_555 1_555
C9D C8D 1_555 1_555
H8D C9D 1_555 1_555
H9D C8D 1_555 1_555
Zn1D O1D 1_555 1_555
Zn1F N1F 1_555 1_555
O1A Zn1 1_555 1_555
N1A Zn1 1_555 1_555
C1 N1 1_555 1_555
C2 C3 1_555 1_555
C5 C7 1_555 1_555
C2F C3F 1_555 1_555
C4F C5F 1_555 1_555
C5F C7F 1_555 1_555

#END
