
#######################################################################
#
#                 Cambridge Crystallographic Data Centre
#                                CCDC 
#
#######################################################################
#
# If this CIF has been generated from an entry in the Cambridge 
# Structural Database, then it will include bibliographic, chemical, 
# crystal, experimental, refinement or atomic coordinate data resulting 
# from the CCDC's data processing and validation procedures.
#
#######################################################################

data_QIWQET
_symmetry_cell_setting           monoclinic
_symmetry_space_group_name_H-M   'P 21/n'
_symmetry_Int_Tables_number      14
_space_group_name_Hall           '-P 2yn'
loop_
_symmetry_equiv_pos_site_id
_symmetry_equiv_pos_as_xyz
1 x,y,z
2 1/2-x,1/2+y,1/2-z
3 -x,-y,-z
4 1/2+x,1/2-y,1/2+z
_cell_length_a                   10.939(1)
_cell_length_b                   19.123(2)
_cell_length_c                   11.686(1)
_cell_angle_alpha                90
_cell_angle_beta                 94.755(2)
_cell_angle_gamma                90
_cell_volume                     2436.14
loop_
_atom_site_label
_atom_site_type_symbol
_atom_site_fract_x
_atom_site_fract_y
_atom_site_fract_z
Ag1 Ag 0.255773(14) 0.576197(8) 0.201268(13)
Ag2 Ag 0.003190(16) 0.281480(9) 0.494560(15)
P1 P 0.26029(5) 0.45392(3) 0.17791(4)
N1 N 0.39132(16) 0.41802(9) 0.22874(15)
N2 N 0.52255(17) 0.34473(10) 0.41129(16)
N3 N 0.24886(15) 0.42319(8) 0.04090(14)
N4 N 0.23348(17) 0.42465(10) -0.20542(14)
N5 N 0.13676(16) 0.41550(9) 0.22534(14)
N6 N -0.07473(16) 0.35542(10) 0.31595(15)
N7 N 0.15741(19) 0.63440(10) 0.33153(17)
N8 N 0.3297(2) 0.66276(11) 0.10816(19)
C1 C 0.48010(19) 0.45423(11) 0.30760(17)
H1 H 0.4535 0.5032 0.3172
H2 H 0.5609 0.4549 0.2753
C2 C 0.4918(2) 0.41802(12) 0.42354(18)
H3 H 0.5565 0.4413 0.4743
H4 H 0.4134 0.4221 0.4597
C3 C 0.4299(2) 0.30911(12) 0.3355(2)
H5 H 0.3497 0.3112 0.3687
H6 H 0.4527 0.2593 0.3278
C4 C 0.4201(2) 0.34367(11) 0.21850(19)
H7 H 0.4986 0.3383 0.1829
H8 H 0.3550 0.3205 0.1682
C5 C 0.5378(3) 0.31037(17) 0.5227(2)
H9 H 0.4601 0.3116 0.5587
H10 H 0.6011 0.3347 0.5719
H11 H 0.5626 0.2617 0.5125
C6 C 0.35629(19) 0.43886(11) -0.02351(17)
H12 H 0.4321 0.4232 0.0213
H13 H 0.3622 0.4900 -0.0355
C7 C 0.3442(2) 0.40201(12) -0.13825(18)
H14 H 0.4166 0.4125 -0.1807
H15 H 0.3410 0.3508 -0.1261
C8 C 0.1275(2) 0.40800(12) -0.14372(18)
H16 H 0.1230 0.3568 -0.1322
H17 H 0.0518 0.4230 -0.1895
C9 C 0.13614(19) 0.44457(12) -0.02806(17)
H18 H 0.1367 0.4958 -0.0396
H19 H 0.0637 0.4325 0.0134
C10 C 0.2239(3) 0.39297(15) -0.31937(19)
H20 H 0.2187 0.3420 -0.3120
H21 H 0.2963 0.4052 -0.3591
H22 H 0.1500 0.4104 -0.3635
C11 C 0.10596(19) 0.34151(11) 0.20602(18)
H23 H 0.1494 0.3126 0.2668
H24 H 0.1325 0.3263 0.1310
C12 C -0.0313(2) 0.33163(12) 0.20769(19)
H25 H -0.0739 0.3582 0.1434
H26 H -0.0517 0.2815 0.1964
C13 C -0.0427(2) 0.42902(11) 0.33483(19)
H27 H -0.0704 0.4445 0.4093
H28 H -0.0854 0.4578 0.2734
C14 C 0.0947(2) 0.43964(11) 0.33502(17)
H29 H 0.1147 0.4898 0.3462
H30 H 0.1374 0.4131 0.3992
C15 C -0.2084(2) 0.34657(15) 0.3129(2)
H31 H -0.2480 0.3741 0.2495
H32 H -0.2372 0.3627 0.3856
H33 H -0.2291 0.2971 0.3016
C16 C 0.3853(2) 0.70573(12) 0.0685(2)
C17 C 0.0996(2) 0.66383(12) 0.39326(19)
Ag2A Ag 0.496810(16) 0.781480(9) 0.005440(15)
Ag2B Ag -0.003190(16) 0.718520(9) 0.505440(15)
C16A C 0.1147(2) 0.20573(12) 0.4315(2)
C17B C -0.0996(2) 0.33617(12) 0.60674(19)
loop_
_geom_bond_atom_site_label_1
_geom_bond_atom_site_label_2
_geom_bond_site_symmetry_1
_geom_bond_site_symmetry_2
Ag1 P1 1_555 1_555
Ag2 N6 1_555 1_555
P1 N1 1_555 1_555
N1 C1 1_555 1_555
N2 C2 1_555 1_555
N3 P1 1_555 1_555
N4 C7 1_555 1_555
N5 P1 1_555 1_555
N6 C12 1_555 1_555
N7 Ag1 1_555 1_555
N8 Ag1 1_555 1_555
C1 H1 1_555 1_555
H2 C1 1_555 1_555
C2 C1 1_555 1_555
H3 C2 1_555 1_555
H4 C2 1_555 1_555
C3 N2 1_555 1_555
H5 C3 1_555 1_555
H6 C3 1_555 1_555
C4 N1 1_555 1_555
H7 C4 1_555 1_555
H8 C4 1_555 1_555
C5 N2 1_555 1_555
H9 C5 1_555 1_555
H10 C5 1_555 1_555
H11 C5 1_555 1_555
C6 N3 1_555 1_555
H12 C6 1_555 1_555
H13 C6 1_555 1_555
C7 C6 1_555 1_555
H14 C7 1_555 1_555
H15 C7 1_555 1_555
C8 N4 1_555 1_555
H16 C8 1_555 1_555
H17 C8 1_555 1_555
C9 N3 1_555 1_555
H18 C9 1_555 1_555
H19 C9 1_555 1_555
C10 N4 1_555 1_555
H20 C10 1_555 1_555
H21 C10 1_555 1_555
H22 C10 1_555 1_555
C11 N5 1_555 1_555
H23 C11 1_555 1_555
H24 C11 1_555 1_555
C12 C11 1_555 1_555
H25 C12 1_555 1_555
H26 C12 1_555 1_555
C13 N6 1_555 1_555
H27 C13 1_555 1_555
H28 C13 1_555 1_555
C14 N5 1_555 1_555
H29 C14 1_555 1_555
H30 C14 1_555 1_555
C15 N6 1_555 1_555
H31 C15 1_555 1_555
H32 C15 1_555 1_555
H33 C15 1_555 1_555
C16 N8 1_555 1_555
C17 N7 1_555 1_555
Ag2A C16 1_555 1_555
Ag2B C17 1_555 1_555
C16A Ag2 1_555 1_555
C17B Ag2 1_555 1_555
C3 C4 1_555 1_555
C8 C9 1_555 1_555
C13 C14 1_555 1_555

#END
