
#######################################################################
#
#                 Cambridge Crystallographic Data Centre
#                                CCDC 
#
#######################################################################
#
# If this CIF has been generated from an entry in the Cambridge 
# Structural Database, then it will include bibliographic, chemical, 
# crystal, experimental, refinement or atomic coordinate data resulting 
# from the CCDC's data processing and validation procedures.
#
#######################################################################

data_QIWSIZ
_symmetry_cell_setting           monoclinic
_symmetry_space_group_name_H-M   'P 2/c'
_symmetry_Int_Tables_number      13
_space_group_name_Hall           '-P 2yc'
loop_
_symmetry_equiv_pos_site_id
_symmetry_equiv_pos_as_xyz
1 x,y,z
2 -x,y,1/2-z
3 -x,-y,-z
4 x,-y,1/2+z
_cell_length_a                   10.796(3)
_cell_length_b                   8.987(3)
_cell_length_c                   19.052(7)
_cell_angle_alpha                90
_cell_angle_beta                 94.203(15)
_cell_angle_gamma                90
_cell_volume                     1843.52
loop_
_atom_site_label
_atom_site_type_symbol
_atom_site_fract_x
_atom_site_fract_y
_atom_site_fract_z
Zn1 Zn 0.5000 0.07742(4) 0.7500
C1 C 0.6145(3) -0.0980(2) 0.95043(13)
C2 C 0.6344(2) -0.0113(2) 0.89165(12)
C3 C 0.7332(3) 0.0873(3) 0.89263(15)
H1 H 0.7466 0.1467 0.8540
C4 C 0.8112(3) 0.0936(3) 0.95359(18)
H2 H 0.8793 0.1573 0.9554
C5 C 0.7904(3) 0.0065(4) 1.01247(16)
H3 H 0.8443 0.0143 1.0527
C6 C 0.6918(3) -0.0901(3) 1.01205(15)
H4 H 0.6773 -0.1477 1.0512
C7 C 0.4707(2) -0.1476(3) 0.86543(13)
C8 C 0.3596(3) -0.2142(4) 0.82749(18)
H5 H 0.3237 -0.2864 0.8571
H6 H 0.3832 -0.2619 0.7854
H7 H 0.2999 -0.1376 0.8153
C9 C 0.4587(3) -0.2958(3) 0.97757(14)
H8 H 0.3718 -0.3112 0.9627
H9 H 0.4634 -0.2592 1.0256
C10 C 0.5268(3) -0.4430(3) 0.97553(14)
H10 H 0.6141 -0.4276 0.9895
H11 H 0.5205 -0.4811 0.9278
C11 C 0.6667(3) 0.2598(3) 0.68597(13)
C12 C 0.7960(3) 0.3105(4) 0.67476(16)
H12 H 0.8619 0.2642 0.7003
C13 C 0.8208(3) 0.4158(3) 0.63121(18)
H13 H 0.7541 0.4546 0.6033
C14 C 0.9436(3) 0.4795(4) 0.62175(18)
C15 C 0.9528(5) 0.6028(5) 0.5797(3)
H14 H 0.8811 0.6412 0.5564
C16 C 1.0630(5) 0.6705(6) 0.5711(4)
H15 H 1.0663 0.7535 0.5421
C17 C 1.1685(4) 0.6165(5) 0.6050(3)
H16 H 1.2433 0.6661 0.6014
C18 C 1.1656(4) 0.4887(6) 0.6448(3)
H17 H 1.2385 0.4494 0.6664
C19 C 1.0530(4) 0.4199(4) 0.6522(3)
H18 H 1.0506 0.3322 0.6780
N1 N 0.5109(2) -0.1834(2) 0.93194(11)
N2 N 0.5416(2) -0.0440(2) 0.83859(11)
O1 O 0.6619(2) 0.1626(3) 0.73435(11)
O2 O 0.5760(2) 0.3070(3) 0.65105(13)
Zn1C Zn 0.5000 -1.07742(4) 1.2500
C1B C 0.3855(3) -0.9020(2) 1.04957(13)
C2B C 0.3656(2) -0.9887(2) 1.10835(12)
C3B C 0.2668(3) -1.0873(3) 1.10737(15)
H1B H 0.2534 -1.1467 1.1460
C4B C 0.1888(3) -1.0936(3) 1.04641(18)
H2B H 0.1207 -1.1573 1.0446
C5B C 0.2096(3) -1.0065(4) 0.98753(16)
H3B H 0.1557 -1.0143 0.9473
C6B C 0.3082(3) -0.9099(3) 0.98795(15)
H4B H 0.3227 -0.8523 0.9488
C7B C 0.5293(2) -0.8524(3) 1.13457(13)
C8B C 0.6404(3) -0.7858(4) 1.17251(18)
H5B H 0.6763 -0.7136 1.1429
H6B H 0.6168 -0.7381 1.2146
H7B H 0.7001 -0.8624 1.1847
C9B C 0.5413(3) -0.7042(3) 1.02243(14)
H8B H 0.6282 -0.6888 1.0373
H9B H 0.5366 -0.7408 0.9744
C10B C 0.4732(3) -0.5570(3) 1.02447(14)
H10B H 0.3859 -0.5724 1.0105
H11B H 0.4795 -0.5189 1.0722
C11A C 0.3333(3) 0.2598(3) 0.81403(13)
C12A C 0.2040(3) 0.3105(4) 0.82524(16)
H12A H 0.1381 0.2642 0.7997
C13A C 0.1792(3) 0.4158(3) 0.86879(18)
H13A H 0.2459 0.4546 0.8967
C14A C 0.0564(3) 0.4795(4) 0.87825(18)
C15A C 0.0472(5) 0.6028(5) 0.9203(3)
H14A H 0.1189 0.6412 0.9436
C16A C -0.0630(5) 0.6705(6) 0.9289(4)
H15A H -0.0663 0.7535 0.9579
C17A C -0.1685(4) 0.6165(5) 0.8950(3)
H16A H -0.2433 0.6661 0.8986
C18A C -0.1656(4) 0.4887(6) 0.8552(3)
H17A H -0.2385 0.4494 0.8336
C19A C -0.0530(4) 0.4199(4) 0.8478(3)
H18A H -0.0506 0.3322 0.8220
N1B N 0.4891(2) -0.8166(2) 1.06806(11)
N2B N 0.4584(2) -0.9560(2) 1.16141(11)
N2A N 0.4584(2) -0.0440(2) 0.66141(11)
O1A O 0.3381(2) 0.1626(3) 0.76565(11)
O2A O 0.4240(2) 0.3070(3) 0.84895(13)
O3 O 0.5000 0.5245(9) 0.7500
H19 H 0.476(17) 0.445(10) 0.721(6)
H19A H 0.524(17) 0.445(10) 0.779(6)
loop_
_geom_bond_atom_site_label_1
_geom_bond_atom_site_label_2
_geom_bond_site_symmetry_1
_geom_bond_site_symmetry_2
Zn1 N2 1_555 1_555
C1 C2 1_555 1_555
C2 C3 1_555 1_555
C3 H1 1_555 1_555
C4 C3 1_555 1_555
H2 C4 1_555 1_555
C5 C4 1_555 1_555
H3 C5 1_555 1_555
C6 C1 1_555 1_555
H4 C6 1_555 1_555
C7 C8 1_555 1_555
C8 H5 1_555 1_555
H6 C8 1_555 1_555
H7 C8 1_555 1_555
C9 H8 1_555 1_555
H9 C9 1_555 1_555
C10 C9 1_555 1_555
H10 C10 1_555 1_555
H11 C10 1_555 1_555
C11 C12 1_555 1_555
C12 H12 1_555 1_555
C13 C12 1_555 1_555
H13 C13 1_555 1_555
C14 C13 1_555 1_555
C15 C14 1_555 1_555
H14 C15 1_555 1_555
C16 C15 1_555 1_555
H15 C16 1_555 1_555
C17 C16 1_555 1_555
H16 C17 1_555 1_555
C18 C17 1_555 1_555
H17 C18 1_555 1_555
C19 C14 1_555 1_555
H18 C19 1_555 1_555
N1 C1 1_555 1_555
N2 C2 1_555 1_555
O1 Zn1 1_555 1_555
O2 C11 1_555 1_555
O3 H19 1_555 1_555
Zn1C N2B 1_555 1_555
C1B C2B 1_555 1_555
C2B C3B 1_555 1_555
C3B H1B 1_555 1_555
C4B C3B 1_555 1_555
H2B C4B 1_555 1_555
C5B C4B 1_555 1_555
H3B C5B 1_555 1_555
C6B C1B 1_555 1_555
H4B C6B 1_555 1_555
C7B C8B 1_555 1_555
C8B H5B 1_555 1_555
H6B C8B 1_555 1_555
H7B C8B 1_555 1_555
C9B H8B 1_555 1_555
H9B C9B 1_555 1_555
C10B C10 1_555 1_555
H10B C10B 1_555 1_555
H11B C10B 1_555 1_555
C11A C12A 1_555 1_555
C12A H12A 1_555 1_555
C13A C12A 1_555 1_555
H13A C13A 1_555 1_555
C14A C13A 1_555 1_555
C15A C14A 1_555 1_555
H14A C15A 1_555 1_555
C16A C15A 1_555 1_555
H15A C16A 1_555 1_555
C17A C16A 1_555 1_555
H16A C17A 1_555 1_555
C18A C17A 1_555 1_555
H17A C18A 1_555 1_555
C19A C14A 1_555 1_555
H18A C19A 1_555 1_555
N1B C1B 1_555 1_555
N2B C2B 1_555 1_555
N2A Zn1 1_555 1_555
O1A Zn1 1_555 1_555
O2A C11A 1_555 1_555
H19A O3 1_555 1_555
C5 C6 1_555 1_555
C7 N1 1_555 1_555
C7 N2 1_555 1_555
C9 N1 1_555 1_555
C11 O1 1_555 1_555
C18 C19 1_555 1_555
C5B C6B 1_555 1_555
C7B N1B 1_555 1_555
C7B N2B 1_555 1_555
C9B C10B 1_555 1_555
C9B N1B 1_555 1_555
C11A O1A 1_555 1_555
C18A C19A 1_555 1_555

#END
