
#######################################################################
#
#                 Cambridge Crystallographic Data Centre
#                                CCDC 
#
#######################################################################
#
# If this CIF has been generated from an entry in the Cambridge 
# Structural Database, then it will include bibliographic, chemical, 
# crystal, experimental, refinement or atomic coordinate data resulting 
# from the CCDC's data processing and validation procedures.
#
#######################################################################

data_QIWSIY
_symmetry_cell_setting           monoclinic
_symmetry_space_group_name_H-M   'P 21/n'
_symmetry_Int_Tables_number      14
_space_group_name_Hall           '-P 2yn'
loop_
_symmetry_equiv_pos_site_id
_symmetry_equiv_pos_as_xyz
1 x,y,z
2 1/2-x,1/2+y,1/2-z
3 -x,-y,-z
4 1/2+x,1/2-y,1/2+z
_cell_length_a                   10.437(2)
_cell_length_b                   18.516(4)
_cell_length_c                   15.190(3)
_cell_angle_alpha                90
_cell_angle_beta                 90.119(4)
_cell_angle_gamma                90
_cell_volume                     2935.48
loop_
_atom_site_label
_atom_site_type_symbol
_atom_site_fract_x
_atom_site_fract_y
_atom_site_fract_z
Zn1 Zn 0.09870(9) -0.29905(6) 0.05531(7)
O1 O 0.2493(6) -0.2937(3) 0.1329(4)
O2 O 0.3502(6) -0.3726(4) 0.0465(5)
O3 O 0.6410(5) -0.2442(3) 0.4423(4)
O4 O 0.4405(6) -0.2107(4) 0.4092(4)
C1 C 0.3462(10) -0.3298(6) 0.1112(7)
C2 C 0.4647(8) -0.3205(5) 0.1679(6)
C3 C 0.4536(8) -0.2829(5) 0.2466(6)
H1 H 0.3740 -0.2620 0.2628
C4 C 0.5590(8) -0.2761(5) 0.3012(6)
C5 C 0.6776(9) -0.3037(5) 0.2758(6)
H2 H 0.7505 -0.2990 0.3129
C6 C 0.6863(9) -0.3383(6) 0.1947(7)
H3 H 0.7671 -0.3564 0.1762
C7 C 0.5829(8) -0.3472(5) 0.1408(6)
H4 H 0.5913 -0.3711 0.0857
C8 C 0.5429(9) -0.2394(5) 0.3902(6)
N1 N -0.0166(7) -0.2298(4) 0.1236(6)
C9 C -0.1036(10) -0.1871(6) 0.0850(7)
H5 H -0.1196 -0.1938 0.0240
C10 C -0.1715(11) -0.1339(7) 0.1282(8)
H6 H -0.2338 -0.1061 0.0976
C11 C -0.1475(12) -0.1216(6) 0.2169(9)
C12 C -0.0663(12) -0.1675(6) 0.2587(8)
H7 H -0.0537 -0.1638 0.3205
C13 C -0.0016(10) -0.2200(6) 0.2106(7)
H8 H 0.0565 -0.2506 0.2411
C14 C -0.2109(11) -0.0616(6) 0.2659(8)
H9 H -0.1448 -0.0354 0.3001
H10 H -0.2477 -0.0273 0.2227
C15 C -0.3098(11) -0.0840(6) 0.3245(8)
H11 H -0.2714 -0.1113 0.3739
H12 H -0.3693 -0.1166 0.2929
C16 C -0.3849(11) -0.0199(6) 0.3610(7)
C17 C -0.4913(11) 0.0087(6) 0.3188(8)
H13 H -0.5217 -0.0145 0.2670
C18 C -0.5542(10) 0.0682(5) 0.3479(7)
H14 H -0.6275 0.0845 0.3165
C19 C -0.4129(9) 0.0785(5) 0.4653(6)
H15 H -0.3861 0.1021 0.5177
C20 C -0.3459(9) 0.0170(5) 0.4355(7)
H16 H -0.2728 0.0008 0.4672
N2 N -0.5167(7) 0.1048(4) 0.4192(5)
O3C O 0.1410(5) -0.2558(3) -0.0577(4)
Zn1C Zn 0.59870(9) -0.20095(6) 0.55531(7)
Zn1A Zn -0.59870(9) 0.20095(6) 0.44469(7)
N2A N 0.0167(7) -0.3952(4) 0.0808(5)
C21 C -1.0177(14) -0.3950(9) 0.4212(9)
C22 C -0.8940(13) -0.4021(7) 0.3964(8)
H17 H -0.8635 -0.4481 0.3782
C23 C -0.8141(11) -0.3462(8) 0.3970(8)
H18 H -0.7271 -0.3532 0.3808
C24 C -0.8548(14) -0.2793(8) 0.4203(9)
H19 H -0.7973 -0.2396 0.4178
C25 C -0.9743(16) -0.2692(8) 0.4465(9)
H20 H -1.0007 -0.2228 0.4662
C26 C -1.0602(12) -0.3252(11) 0.4454(9)
H21 H -1.1472 -0.3172 0.4608
C27 C -1.1318(19) -0.4560(10) 0.4232(13)
H22 H -1.2194 -0.4491 0.4379
O5 O -1.0802(13) -0.5109(8) 0.4019(10)
C28 C 0.0980(8) -0.0081(4) 0.1761(6)
C29 C 0.1122(11) -0.0084(6) 0.2671(6)
H23 H 0.0657 0.0250 0.3021
C30 C 0.1947(13) -0.0576(8) 0.3070(6)
H24 H 0.2044 -0.0577 0.3692
C31 C 0.2628(10) -0.1065(6) 0.2558(8)
H25 H 0.3191 -0.1401 0.2830
C32 C 0.2485(9) -0.1062(5) 0.1648(8)
H26 H 0.2951 -0.1396 0.1298
C33 C 0.1661(9) -0.0570(5) 0.1250(6)
H27 H 0.1563 -0.0569 0.0628
C34 C 0.0214(10) 0.0366(5) 0.1574(9)
H28 H -0.0145 0.0663 0.2020
O6 O -0.0135(12) 0.0453(7) 0.0756(10)
loop_
_geom_bond_atom_site_label_1
_geom_bond_atom_site_label_2
_geom_bond_site_symmetry_1
_geom_bond_site_symmetry_2
Zn1 O1 1_555 1_555
O1 C1 1_555 1_555
O2 C1 1_555 1_555
O3 C8 1_555 1_555
O4 C8 1_555 1_555
C1 C2 1_555 1_555
C2 C3 1_555 1_555
C3 H1 1_555 1_555
C4 C3 1_555 1_555
C5 C4 1_555 1_555
H2 C5 1_555 1_555
C6 C5 1_555 1_555
H3 C6 1_555 1_555
C7 C2 1_555 1_555
H4 C7 1_555 1_555
C8 C4 1_555 1_555
N1 Zn1 1_555 1_555
C9 N1 1_555 1_555
H5 C9 1_555 1_555
C10 C9 1_555 1_555
H6 C10 1_555 1_555
C11 C10 1_555 1_555
C12 C11 1_555 1_555
H7 C12 1_555 1_555
C13 N1 1_555 1_555
H8 C13 1_555 1_555
C14 C11 1_555 1_555
H9 C14 1_555 1_555
H10 C14 1_555 1_555
C15 C14 1_555 1_555
H11 C15 1_555 1_555
H12 C15 1_555 1_555
C16 C15 1_555 1_555
C17 C16 1_555 1_555
H13 C17 1_555 1_555
C18 C17 1_555 1_555
H14 C18 1_555 1_555
C19 H15 1_555 1_555
C20 C16 1_555 1_555
H16 C20 1_555 1_555
N2 C18 1_555 1_555
C21 C22 1_555 1_555
C22 H17 1_555 1_555
C23 C22 1_555 1_555
H18 C23 1_555 1_555
C24 C23 1_555 1_555
H19 C24 1_555 1_555
C25 C24 1_555 1_555
H20 C25 1_555 1_555
C26 C21 1_555 1_555
H21 C26 1_555 1_555
C27 C21 1_555 1_555
H22 C27 1_555 1_555
O5 C27 1_555 1_555
C28 C29 1_555 1_555
C29 H23 1_555 1_555
C30 C29 1_555 1_555
H24 C30 1_555 1_555
C31 C30 1_555 1_555
H25 C31 1_555 1_555
C32 C31 1_555 1_555
H26 C32 1_555 1_555
C33 C28 1_555 1_555
H27 C33 1_555 1_555
C34 C28 1_555 1_555
H28 C34 1_555 1_555
O6 C34 1_555 1_555
O3C Zn1 1_555 1_555
Zn1C O3 1_555 1_555
Zn1A N2 1_555 1_555
N2A Zn1 1_555 1_555
C6 C7 1_555 1_555
C12 C13 1_555 1_555
C19 C20 1_555 1_555
C19 N2 1_555 1_555
C25 C26 1_555 1_555
C32 C33 1_555 1_555

#END
