
#######################################################################
#
#                 Cambridge Crystallographic Data Centre
#                                CCDC 
#
#######################################################################
#
# If this CIF has been generated from an entry in the Cambridge 
# Structural Database, then it will include bibliographic, chemical, 
# crystal, experimental, refinement or atomic coordinate data resulting 
# from the CCDC's data processing and validation procedures.
#
#######################################################################

data_QIWSAQ
_symmetry_cell_setting           monoclinic
_symmetry_space_group_name_H-M   'P 21/n'
_symmetry_Int_Tables_number      14
_space_group_name_Hall           '-P 2yn'
loop_
_symmetry_equiv_pos_site_id
_symmetry_equiv_pos_as_xyz
1 x,y,z
2 1/2-x,1/2+y,1/2-z
3 -x,-y,-z
4 1/2+x,1/2-y,1/2+z
_cell_length_a                   10.5457(15)
_cell_length_b                   18.400(3)
_cell_length_c                   15.209(2)
_cell_angle_alpha                90
_cell_angle_beta                 90.971(3)
_cell_angle_gamma                90
_cell_volume                     2950.74
loop_
_atom_site_label
_atom_site_type_symbol
_atom_site_fract_x
_atom_site_fract_y
_atom_site_fract_z
Zn1 Zn 0.59441(7) -0.20239(5) 0.55994(5)
O1 O 0.6371(4) -0.2497(3) 0.4494(3)
O2 O 0.4402(5) -0.2162(3) 0.4175(3)
O3 O 0.2422(5) -0.2945(3) 0.1396(3)
O4 O 0.3407(5) -0.3692(4) 0.0499(4)
C1 C 0.5409(7) -0.2467(4) 0.3983(4)
C2 C 0.5522(6) -0.2831(4) 0.3102(4)
C3 C 0.4481(6) -0.2873(4) 0.2541(4)
H1 H 0.3705 -0.2656 0.2710
C4 C 0.4545(6) -0.3227(4) 0.1737(4)
C5 C 0.5676(7) -0.3517(4) 0.1493(4)
H2 H 0.5735 -0.3761 0.0944
C6 C 0.6743(7) -0.3460(5) 0.2034(5)
H3 H 0.7531 -0.3652 0.1850
C7 C 0.6658(7) -0.3123(4) 0.2842(5)
H4 H 0.7383 -0.3093 0.3219
C8 C 0.3370(7) -0.3285(5) 0.1157(5)
N1 N 0.4779(6) -0.2690(3) 0.6295(4)
C9 C 0.4867(9) -0.2750(5) 0.7161(5)
H5 H 0.5418 -0.2427 0.7471
C10 C 0.4199(11) -0.3259(6) 0.7637(6)
H6 H 0.4282 -0.3266 0.8260
C11 C 0.3425(8) -0.3747(5) 0.7228(5)
C12 C 0.3261(10) -0.3651(6) 0.6348(6)
H7 H 0.2679 -0.3949 0.6028
C13 C 0.3938(10) -0.3124(6) 0.5920(6)
H8 H 0.3787 -0.3068 0.5306
C14 C 0.2792(9) -0.4368(5) 0.7725(6)
H9 H 0.2406 -0.4709 0.7294
H10 H 0.3447 -0.4637 0.8066
C15 C 0.1829(8) -0.4121(5) 0.8314(6)
H11 H 0.1242 -0.3787 0.7999
H12 H 0.2228 -0.3852 0.8809
C16 C 0.1096(9) -0.4766(4) 0.8663(5)
C17 C 0.1532(8) -0.5171(5) 0.9377(5)
H13 H 0.2273 -0.5022 0.9692
C18 C 0.0898(7) -0.5788(4) 0.9631(4)
H14 H 0.1203 -0.6049 1.0130
C19 C -0.0565(7) -0.5656(4) 0.8521(5)
H15 H -0.1301 -0.5822 0.8213
C20 C 0.0011(9) -0.5031(5) 0.8241(5)
H16 H -0.0336 -0.4775 0.7752
N2 N -0.0142(5) -0.6034(3) 0.9197(3)
O3C O 0.7422(5) -0.2055(3) 0.6396(3)
Zn1C Zn 0.09441(7) -0.29761(5) 0.05994(5)
Zn1A Zn -0.09441(7) -0.70239(5) 0.94006(5)
N2A N 0.5142(5) -0.1034(3) 0.5803(3)
C21 C -0.0090(8) -0.3988(5) 0.4205(5)
C22 C 0.1137(10) -0.4047(6) 0.3969(5)
H17 H 0.1468 -0.4497 0.3769
C23 C 0.1858(10) -0.3467(6) 0.4026(6)
H18 H 0.2725 -0.3506 0.3871
C24 C 0.1418(11) -0.2823(6) 0.4293(6)
H19 H 0.1971 -0.2416 0.4305
C25 C 0.0167(11) -0.2736(6) 0.4553(5)
H20 H -0.0143 -0.2283 0.4759
C26 C -0.0618(8) -0.3359(6) 0.4495(5)
H21 H -0.1485 -0.3339 0.4653
N3 N -0.0892(9) -0.4660(5) 0.4142(5)
O5 O -0.0436(8) -0.5219(4) 0.3994(4)
O6 O -0.2065(8) -0.4565(5) 0.4257(6)
C27 C 0.3400(7) -0.5445(4) 0.2032(5)
C28 C 0.2612(7) -0.6015(5) 0.2271(6)
H22 H 0.2169 -0.6285 0.1831
C29 C 0.2473(9) -0.6189(5) 0.3153(6)
H23 H 0.1935 -0.6579 0.3316
C30 C 0.3122(9) -0.5794(6) 0.3797(5)
H24 H 0.3027 -0.5914 0.4400
C31 C 0.3910(10) -0.5224(6) 0.3558(5)
H25 H 0.4353 -0.4954 0.3998
C32 C 0.4048(9) -0.5049(4) 0.2676(6)
H26 H 0.4587 -0.4660 0.2512
N4 N 0.3792(9) -0.5556(5) 0.1210(5)
O7 O 0.3337(12) -0.5977(7) 0.0598(5)
O8 O 0.4679(11) -0.5289(6) 0.0684(6)
loop_
_geom_bond_atom_site_label_1
_geom_bond_atom_site_label_2
_geom_bond_site_symmetry_1
_geom_bond_site_symmetry_2
Zn1 O1 1_555 1_555
O1 C1 1_555 1_555
O2 C1 1_555 1_555
O3 C8 1_555 1_555
O4 C8 1_555 1_555
C1 C2 1_555 1_555
C2 C3 1_555 1_555
C3 H1 1_555 1_555
C4 C3 1_555 1_555
C5 C4 1_555 1_555
H2 C5 1_555 1_555
C6 C5 1_555 1_555
H3 C6 1_555 1_555
C7 C2 1_555 1_555
H4 C7 1_555 1_555
C8 C4 1_555 1_555
N1 Zn1 1_555 1_555
C9 N1 1_555 1_555
H5 C9 1_555 1_555
C10 C9 1_555 1_555
H6 C10 1_555 1_555
C11 C10 1_555 1_555
C12 C11 1_555 1_555
H7 C12 1_555 1_555
C13 N1 1_555 1_555
H8 C13 1_555 1_555
C14 C11 1_555 1_555
H9 C14 1_555 1_555
H10 C14 1_555 1_555
C15 C14 1_555 1_555
H11 C15 1_555 1_555
H12 C15 1_555 1_555
C16 C15 1_555 1_555
C17 C16 1_555 1_555
H13 C17 1_555 1_555
C18 C17 1_555 1_555
H14 C18 1_555 1_555
C19 H15 1_555 1_555
C20 C16 1_555 1_555
H16 C20 1_555 1_555
N2 C18 1_555 1_555
C21 C22 1_555 1_555
C22 H17 1_555 1_555
C23 C22 1_555 1_555
H18 C23 1_555 1_555
C24 C23 1_555 1_555
H19 C24 1_555 1_555
C25 C24 1_555 1_555
H20 C25 1_555 1_555
C26 C21 1_555 1_555
H21 C26 1_555 1_555
N3 C21 1_555 1_555
O5 N3 1_555 1_555
O6 N3 1_555 1_555
C27 C28 1_555 1_555
C28 H22 1_555 1_555
C29 C28 1_555 1_555
H23 C29 1_555 1_555
C30 C29 1_555 1_555
H24 C30 1_555 1_555
C31 C30 1_555 1_555
H25 C31 1_555 1_555
C32 C27 1_555 1_555
H26 C32 1_555 1_555
N4 C27 1_555 1_555
O7 N4 1_555 1_555
O8 N4 1_555 1_555
O3C Zn1 1_555 1_555
Zn1C O3 1_555 1_555
Zn1A N2 1_555 1_555
N2A Zn1 1_555 1_555
C6 C7 1_555 1_555
C12 C13 1_555 1_555
C19 C20 1_555 1_555
C19 N2 1_555 1_555
C25 C26 1_555 1_555
C31 C32 1_555 1_555

#END
