
#######################################################################
#
#                 Cambridge Crystallographic Data Centre
#                                CCDC 
#
#######################################################################
#
# If this CIF has been generated from an entry in the Cambridge 
# Structural Database, then it will include bibliographic, chemical, 
# crystal, experimental, refinement or atomic coordinate data resulting 
# from the CCDC's data processing and validation procedures.
#
#######################################################################

data_QIWTAR
_symmetry_cell_setting           orthorhombic
_symmetry_space_group_name_H-M   'P n n a'
_symmetry_Int_Tables_number      52
_space_group_name_Hall           '-P 2a 2bc'
loop_
_symmetry_equiv_pos_site_id
_symmetry_equiv_pos_as_xyz
1 x,y,z
2 1/2-x,-y,z
3 x,1/2-y,1/2-z
4 1/2-x,1/2+y,1/2-z
5 -x,-y,-z
6 1/2+x,y,-z
7 -x,1/2+y,1/2+z
8 1/2+x,1/2-y,1/2+z
_cell_length_a                   9.676(3)
_cell_length_b                   15.470(5)
_cell_length_c                   13.547(5)
_cell_angle_alpha                90
_cell_angle_beta                 90
_cell_angle_gamma                90
_cell_volume                     2027.82
loop_
_atom_site_label
_atom_site_type_symbol
_atom_site_fract_x
_atom_site_fract_y
_atom_site_fract_z
Zn1 Zn -0.06926(9) 0.2500 -0.7500
O2 O 0.0052(4) 0.1732(2) -0.6448(3)
O3 O 0.0938(5) 0.1282(3) -0.7844(3)
C2 C 0.0859(6) 0.1233(4) -0.6934(5)
C3 C 0.1682(6) 0.0590(3) -0.6376(4)
C4 C 0.1682(7) 0.0591(4) -0.5356(4)
H4 H 0.1126 0.0993 -0.5005
C5 C 0.2500 0.0000 -0.4843(7)
H5 H 0.2500 0.0000 -0.4142
C6 C 0.2500 0.0000 -0.6861(6)
H6 H 0.2500 0.0000 -0.7562
N1 N -0.7828(5) 0.6852(3) -0.3303(3)
C7 C -0.7477(6) 0.7048(3) -0.4236(4)
H7 H -0.7960 0.7499 -0.4564
C8 C -0.6438(6) 0.6619(4) -0.4733(4)
H8 H -0.6209 0.6785 -0.5388
C9 C -0.5740(6) 0.5959(3) -0.4291(4)
C10 C -0.6084(6) 0.5765(4) -0.3331(4)
H9 H -0.5606 0.5319 -0.2990
C11 C -0.7120(6) 0.6215(4) -0.2867(4)
H10 H -0.7343 0.6068 -0.2205
C12 C -0.4682(6) 0.5426(3) -0.4829(4)
H11 H -0.3889 0.5307 -0.4387
H12 H -0.4335 0.5751 -0.5408
C12D C -0.5318(6) 0.4574(3) -0.5171(4)
C9D C -0.4260(6) 0.4041(3) -0.5709(4)
C8D C -0.3562(6) 0.3381(4) -0.5267(4)
C7D C -0.2523(6) 0.2952(3) -0.5764(4)
N1D N -0.2172(5) 0.3148(3) -0.6697(3)
Zn1F Zn -0.93074(9) 0.7500 -0.2500
O2B O 0.0052(4) 0.3268(2) -0.8552(3)
O3B O 0.0938(5) 0.3718(3) -0.7156(3)
N1F N -0.2172(5) 0.1852(3) -0.8303(3)
C4A C 0.3318(7) -0.0591(4) -0.5356(4)
C3A C 0.3318(6) -0.0590(3) -0.6376(4)
C2A C 0.4141(6) -0.1233(4) -0.6934(5)
O2A O 0.4948(4) -0.1732(2) -0.6448(3)
Zn1A Zn 0.56926(9) -0.2500 -0.7500
O3A O 0.4062(5) -0.1282(3) -0.7844(3)
H4A H 0.3874 -0.0993 -0.5005
C11D C -0.2880(6) 0.3785(4) -0.7133(4)
C10D C -0.3916(6) 0.4235(4) -0.6669(4)
H9D H -0.4394 0.4681 -0.7010
H10D H -0.2657 0.3932 -0.7795
H7D H -0.2040 0.2501 -0.5436
H8D H -0.3791 0.3215 -0.4612
H11D H -0.6111 0.4693 -0.5613
H12D H -0.5665 0.4249 -0.4592
O1 O -0.4024(15) 0.7500 -0.2500
C1 C -0.3370(11) 0.7242(7) -0.3482(9)
H1 H -0.3400 0.7734 -0.3937
H2 H -0.3884 0.6756 -0.3767
H3 H -0.2407 0.7070 -0.3373
C1B C -0.3370(11) 0.7758(7) -0.1518(9)
H1B H -0.3400 0.7266 -0.1063
H2B H -0.3884 0.8244 -0.1233
H3B H -0.2407 0.7930 -0.1627
loop_
_geom_bond_atom_site_label_1
_geom_bond_atom_site_label_2
_geom_bond_site_symmetry_1
_geom_bond_site_symmetry_2
O1 C1 1_555 1_555
C1 H1 1_555 1_555
H2 C1 1_555 1_555
H3 C1 1_555 1_555
Zn1 O2 1_555 1_555
O2 C2 1_555 1_555
O3 Zn1 1_555 1_555
C2 O3 1_555 1_555
C3 C2 1_555 1_555
C4 C3 1_555 1_555
H4 C4 1_555 1_555
C5 C4 1_555 1_555
H5 C5 1_555 1_555
C6 C3 1_555 1_555
H6 C6 1_555 1_555
N1 C7 1_555 1_555
C7 H7 1_555 1_555
C8 C7 1_555 1_555
H8 C8 1_555 1_555
C9 C8 1_555 1_555
C10 C9 1_555 1_555
H9 C10 1_555 1_555
C11 N1 1_555 1_555
H10 C11 1_555 1_555
C12 C9 1_555 1_555
H11 C12 1_555 1_555
H12 C12 1_555 1_555
C1B O1 1_555 1_555
H1B C1B 1_555 1_555
H2B C1B 1_555 1_555
H3B C1B 1_555 1_555
C12D C12 1_555 1_555
C9D C12D 1_555 1_555
C8D C9D 1_555 1_555
C7D C8D 1_555 1_555
N1D Zn1 1_555 1_555
Zn1F N1 1_555 1_555
O2B Zn1 1_555 1_555
O3B Zn1 1_555 1_555
N1F Zn1 1_555 1_555
C4A C5 1_555 1_555
C3A C6 1_555 1_555
C2A C3A 1_555 1_555
O2A C2A 1_555 1_555
Zn1A O2A 1_555 1_555
O3A C2A 1_555 1_555
H4A C4A 1_555 1_555
C11D N1D 1_555 1_555
C10D C9D 1_555 1_555
H9D C10D 1_555 1_555
H10D C11D 1_555 1_555
H7D C7D 1_555 1_555
H8D C8D 1_555 1_555
H11D C12D 1_555 1_555
H12D C12D 1_555 1_555
C10 C11 1_555 1_555
C7D N1D 1_555 1_555
C4A C3A 1_555 1_555
Zn1A O3A 1_555 1_555
C11D C10D 1_555 1_555

#END
