
#######################################################################
#
#                 Cambridge Crystallographic Data Centre
#                                CCDC 
#
#######################################################################
#
# If this CIF has been generated from an entry in the Cambridge 
# Structural Database, then it will include bibliographic, chemical, 
# crystal, experimental, refinement or atomic coordinate data resulting 
# from the CCDC's data processing and validation procedures.
#
#######################################################################

data_QIWTUM
_symmetry_cell_setting           triclinic
_symmetry_space_group_name_H-M   'P -1'
_symmetry_Int_Tables_number      2
_space_group_name_Hall           '-P 1'
loop_
_symmetry_equiv_pos_site_id
_symmetry_equiv_pos_as_xyz
1 x,y,z
2 -x,-y,-z
_cell_length_a                   9.040(5)
_cell_length_b                   9.366(5)
_cell_length_c                   11.322(5)
_cell_angle_alpha                101.65(2)
_cell_angle_beta                 112.24(2)
_cell_angle_gamma                99.872(18)
_cell_volume                     835.907
loop_
_atom_site_label
_atom_site_type_symbol
_atom_site_fract_x
_atom_site_fract_y
_atom_site_fract_z
Zn1 Zn 0.55269(7) 0.02478(5) 0.39281(5)
C1 C 0.6895(5) 0.1716(4) 0.1097(4)
C2 C 0.6439(5) 0.1947(4) 0.2154(4)
C3 C 0.6068(5) 0.3277(4) 0.2583(4)
H1 H 0.5783 0.3448 0.3296
C4 C 0.6142(6) 0.4329(5) 0.1904(5)
H2 H 0.5896 0.5231 0.2167
C5 C 0.6570(6) 0.4093(5) 0.0839(5)
H3 H 0.6605 0.4839 0.0411
C6 C 0.6942(5) 0.2788(5) 0.0404(4)
H4 H 0.7212 0.2622 -0.0318
C7 C 0.6941(5) -0.0256(4) 0.1882(4)
C8 C 0.7200(5) -0.1724(4) 0.2068(4)
H5 H 0.6905 -0.2429 0.1206
H6 H 0.6466 -0.2136 0.2432
C9 C 0.8993(6) -0.1588(6) 0.2999(5)
H7 H 0.9098 -0.2567 0.3089
H8 H 0.9284 -0.0907 0.3859
H9 H 0.9722 -0.1203 0.2633
C10 C 0.7826(5) -0.0339(5) -0.0013(4)
H10 H 0.7234 -0.0172 -0.0865
H11 H 0.7611 -0.1424 -0.0148
C11 C 0.9685(5) 0.0361(5) 0.0486(4)
H12 H 0.9898 0.1441 0.0594
H13 H 1.0277 0.0220 0.1350
C12 C 0.6975(5) -0.1677(4) 0.5700(4)
C13 C 0.8012(6) -0.2794(5) 0.5906(4)
H14 H 0.9165 -0.2229 0.6457
H15 H 0.7933 -0.3326 0.5046
C14 C 0.7533(5) -0.3964(4) 0.6551(4)
H16 H 0.7413 -0.3454 0.7331
H17 H 0.6466 -0.4666 0.5926
C15 C 0.8801(6) -0.4845(5) 0.6961(5)
H18 H 0.9874 -0.4139 0.7566
H19 H 0.8901 -0.5373 0.6175
C16 C 0.8354(6) -0.6002(4) 0.7644(4)
H20 H 0.9366 -0.6213 0.8190
H21 H 0.7911 -0.5545 0.8236
C17 C 0.7108(5) -0.7496(4) 0.6707(4)
N1 N 0.7207(4) 0.0318(3) 0.0939(3)
N2 N 0.6442(4) 0.0666(3) 0.2611(3)
O1 O 0.6903(4) -0.1081(3) 0.4796(3)
O2 O 0.6266(4) -0.1399(3) 0.6447(3)
O3 O 0.6953(4) -0.7888(3) 0.5539(3)
O4 O 0.6344(4) -0.8265(3) 0.7189(3)
Zn1A Zn 1.44731(7) -0.02478(5) -0.39281(5)
Zn1A_2 Zn 0.44731(7) -0.02478(5) 0.60719(5)
Zn1_2 Zn 0.55269(7) -0.97522(5) 0.39281(5)
Zn1A_3 Zn 0.44731(7) -1.02478(5) 0.60719(5)
Zn1A_4 Zn 0.44731(7) 0.97522(5) 0.60719(5)
Zn1_3 Zn 0.55269(7) 1.02478(5) 0.39281(5)
C1A C 1.3105(5) -0.1716(4) -0.1097(4)
C2A C 1.3561(5) -0.1947(4) -0.2154(4)
C3A C 1.3932(5) -0.3277(4) -0.2583(4)
H1A H 1.4217 -0.3448 -0.3296
C4A C 1.3858(6) -0.4329(5) -0.1904(5)
H2A H 1.4104 -0.5231 -0.2167
C5A C 1.3430(6) -0.4093(5) -0.0839(5)
H3A H 1.3395 -0.4839 -0.0411
C6A C 1.3058(5) -0.2788(5) -0.0404(4)
H4A H 1.2788 -0.2622 0.0318
C7A C 1.3059(5) 0.0256(4) -0.1882(4)
C8A C 1.2800(5) 0.1724(4) -0.2068(4)
H5A H 1.3095 0.2429 -0.1206
H6A H 1.3534 0.2136 -0.2432
C9A C 1.1007(6) 0.1588(6) -0.2999(5)
H7A H 1.0902 0.2567 -0.3089
H8A H 1.0716 0.0907 -0.3859
H9A H 1.0278 0.1203 -0.2633
C10A C 1.2174(5) 0.0339(5) 0.0013(4)
H10A H 1.2766 0.0172 0.0865
H11A H 1.2389 0.1424 0.0148
C11A C 1.0315(5) -0.0361(5) -0.0486(4)
H12A H 1.0102 -0.1441 -0.0594
H13A H 0.9723 -0.0220 -0.1350
C12A C 0.3025(5) 0.1677(4) 0.4300(4)
C13A C 0.1988(6) 0.2794(5) 0.4094(4)
H14A H 0.0835 0.2229 0.3543
H15A H 0.2067 0.3326 0.4954
C14A C 0.2467(5) 0.3964(4) 0.3449(4)
H16A H 0.2587 0.3454 0.2669
H17A H 0.3534 0.4666 0.4074
C15A C 0.1199(6) 0.4845(5) 0.3039(5)
H18A H 0.0126 0.4139 0.2434
H19A H 0.1099 0.5373 0.3825
C16A C 0.1646(6) 0.6002(4) 0.2356(4)
H20A H 0.0634 0.6213 0.1810
H21A H 0.2089 0.5545 0.1764
C17A C 0.2892(5) 0.7496(4) 0.3293(4)
N1A N 1.2793(4) -0.0318(3) -0.0939(3)
N2A N 1.3558(4) -0.0666(3) -0.2611(3)
O1A O 0.3097(4) 0.1081(3) 0.5204(3)
O1A_2 O 1.3097(4) 0.1081(3) -0.4796(3)
O2A O 0.3734(4) 0.1399(3) 0.3553(3)
O2_2 O 1.6266(4) -0.1399(3) -0.3553(3)
O3A O 0.3047(4) 0.7888(3) 0.4461(3)
O3_2 O 0.6953(4) 0.2112(3) 0.5539(3)
O3A_2 O 1.3047(4) -0.2112(3) -0.5539(3)
O4A O 0.3656(4) 0.8265(3) 0.2811(3)
O4A_2 O 0.3656(4) -0.1735(3) 0.2811(3)
O4_2 O 1.6344(4) 0.1735(3) -0.2811(3)
loop_
_geom_bond_atom_site_label_1
_geom_bond_atom_site_label_2
_geom_bond_site_symmetry_1
_geom_bond_site_symmetry_2
Zn1 N2 1_555 1_555
C1 C2 1_555 1_555
C2 C3 1_555 1_555
C3 H1 1_555 1_555
C4 C3 1_555 1_555
H2 C4 1_555 1_555
C5 C4 1_555 1_555
H3 C5 1_555 1_555
C6 C1 1_555 1_555
H4 C6 1_555 1_555
C7 C8 1_555 1_555
C8 H5 1_555 1_555
H6 C8 1_555 1_555
C9 C8 1_555 1_555
H7 C9 1_555 1_555
H8 C9 1_555 1_555
H9 C9 1_555 1_555
C10 H10 1_555 1_555
H11 C10 1_555 1_555
C11 C10 1_555 1_555
H12 C11 1_555 1_555
H13 C11 1_555 1_555
C12 C13 1_555 1_555
C13 H14 1_555 1_555
H15 C13 1_555 1_555
C14 C13 1_555 1_555
H16 C14 1_555 1_555
H17 C14 1_555 1_555
C15 C14 1_555 1_555
H18 C15 1_555 1_555
H19 C15 1_555 1_555
C16 C15 1_555 1_555
H20 C16 1_555 1_555
H21 C16 1_555 1_555
C17 C16 1_555 1_555
N1 C1 1_555 1_555
N2 C2 1_555 1_555
O1 Zn1 1_555 1_555
O2 C12 1_555 1_555
O3 C17 1_555 1_555
O4 C17 1_555 1_555
Zn1A N2A 1_555 1_555
Zn1A_2 O2 1_555 1_555
Zn1_2 O3 1_555 1_555
Zn1A_3 O4 1_555 1_555
Zn1A_4 O3A 1_555 1_555
Zn1_3 O4A 1_555 1_555
C1A C2A 1_555 1_555
C2A C3A 1_555 1_555
C3A H1A 1_555 1_555
C4A C3A 1_555 1_555
H2A C4A 1_555 1_555
C5A C4A 1_555 1_555
H3A C5A 1_555 1_555
C6A C1A 1_555 1_555
H4A C6A 1_555 1_555
C7A C8A 1_555 1_555
C8A H5A 1_555 1_555
H6A C8A 1_555 1_555
C9A C8A 1_555 1_555
H7A C9A 1_555 1_555
H8A C9A 1_555 1_555
H9A C9A 1_555 1_555
C10A H10A 1_555 1_555
H11A C10A 1_555 1_555
C11A C11 1_555 1_555
H12A C11A 1_555 1_555
H13A C11A 1_555 1_555
C12A C13A 1_555 1_555
C13A H14A 1_555 1_555
H15A C13A 1_555 1_555
C14A C13A 1_555 1_555
H16A C14A 1_555 1_555
H17A C14A 1_555 1_555
C15A C14A 1_555 1_555
H18A C15A 1_555 1_555
H19A C15A 1_555 1_555
C16A C15A 1_555 1_555
H20A C16A 1_555 1_555
H21A C16A 1_555 1_555
C17A C16A 1_555 1_555
N1A C1A 1_555 1_555
N2A C2A 1_555 1_555
O1A Zn1A_2 1_555 1_555
O1A_2 Zn1A 1_555 1_555
O2A Zn1 1_555 1_555
O2_2 Zn1A 1_555 1_555
O3A C17A 1_555 1_555
O3_2 Zn1 1_555 1_555
O3A_2 Zn1A 1_555 1_555
O4A C17A 1_555 1_555
O4A_2 Zn1 1_555 1_555
O4_2 Zn1A 1_555 1_555
C5 C6 1_555 1_555
C7 N1 1_555 1_555
C7 N2 1_555 1_555
C10 N1 1_555 1_555
C12 O1 1_555 1_555
C5A C6A 1_555 1_555
C7A N1A 1_555 1_555
C7A N2A 1_555 1_555
C10A C11A 1_555 1_555
C10A N1A 1_555 1_555
C12A O1A 1_555 1_555
C12A O2A 1_555 1_555

#END
