
#######################################################################
#
#                 Cambridge Crystallographic Data Centre
#                                CCDC 
#
#######################################################################
#
# If this CIF has been generated from an entry in the Cambridge 
# Structural Database, then it will include bibliographic, chemical, 
# crystal, experimental, refinement or atomic coordinate data resulting 
# from the CCDC's data processing and validation procedures.
#
#######################################################################

data_QIWTEW
_symmetry_cell_setting           monoclinic
_symmetry_space_group_name_H-M   'C 2/c'
_symmetry_Int_Tables_number      15
_space_group_name_Hall           '-C 2yn'
loop_
_symmetry_equiv_pos_site_id
_symmetry_equiv_pos_as_xyz
1 x,y,z
2 1/2+x,1/2+y,z
3 -x,y,1/2-z
4 1/2-x,1/2+y,1/2-z
5 -x,-y,-z
6 1/2-x,1/2-y,-z
7 x,-y,1/2+z
8 1/2+x,1/2-y,1/2+z
_cell_length_a                   21.379(9)
_cell_length_b                   9.867(3)
_cell_length_c                   19.558(6)
_cell_angle_alpha                90
_cell_angle_beta                 117.363(14)
_cell_angle_gamma                90
_cell_volume                     3664.08
loop_
_atom_site_label
_atom_site_type_symbol
_atom_site_fract_x
_atom_site_fract_y
_atom_site_fract_z
Ag1 Ag 0.731135(8) -0.062979(16) 0.595558(10)
C1 C 0.53718(10) 0.11811(19) 0.57398(11)
C2 C 0.59392(10) 0.02810(19) 0.60448(11)
C3 C 0.59903(12) -0.0684(2) 0.65870(12)
H1 H 0.6361 -0.1298 0.6787
C4 C 0.54690(14) -0.0693(2) 0.68166(14)
H2 H 0.5491 -0.1321 0.7182
C5 C 0.49079(13) 0.0223(3) 0.65109(14)
H3 H 0.4568 0.0191 0.6682
C6 C 0.48420(11) 0.1171(2) 0.59647(13)
H4 H 0.4465 0.1771 0.5758
C7 C 0.60884(11) 0.15530(19) 0.52281(12)
C8 C 0.63890(14) 0.2158(2) 0.47499(15)
H5 H 0.6089 0.2878 0.4443
H6 H 0.6424 0.1476 0.4419
H7 H 0.6849 0.2513 0.5078
C9 C 0.50286(11) 0.31058(19) 0.47762(12)
H8 H 0.4540 0.2881 0.4619
H9 H 0.5082 0.3245 0.4315
C10 C 0.52126(11) 0.44054(18) 0.52409(12)
H10 H 0.5711 0.4593 0.5434
H11 H 0.5121 0.4293 0.5680
C11 C 0.80888(11) -0.3668(2) 0.61455(14)
H12 H 0.8381 -0.4465 0.6232
H13 H 0.8205 -0.3037 0.5841
C12 C 0.82697(13) -0.3015(2) 0.69203(13)
H14 H 0.7913 -0.3263 0.7073
H15 H 0.8716 -0.3375 0.7303
C13 C 0.84072(14) -0.0997(3) 0.76637(13)
H16 H 0.8809 -0.1433 0.8079
H17 H 0.7992 -0.1214 0.7723
C14 C 0.85161(16) 0.0516(3) 0.77146(16)
H18 H 0.8101 0.0953 0.7319
H19 H 0.8577 0.0832 0.8211
C15 C 0.90346(15) 0.0413(3) 0.69013(15)
H20 H 0.9445 0.0665 0.6842
H21 H 0.8626 0.0841 0.6491
C16 C 0.89449(11) -0.1103(3) 0.68343(14)
H22 H 0.8894 -0.1396 0.6338
H23 H 0.9361 -0.1535 0.7231
N1 N 0.54770(9) 0.19696(16) 0.52164(10)
N2 N 0.63796(9) 0.05353(16) 0.57130(10)
N3 N 0.83192(9) -0.15207(17) 0.69151(9)
O1 O 0.91154(11) 0.08901(19) 0.76218(11)
O2 O 0.67775(9) -0.29232(19) 0.54699(14)
O3 O 0.70528(12) -0.5128(2) 0.60653(11)
O4 O 0.71408(10) -0.4733(2) 0.49053(10)
S1 S 0.71924(3) -0.41471(5) 0.56095(3)
Ag1D Ag 0.268865(8) 1.062979(16) 0.404442(10)
Ag1E Ag 0.768865(8) -0.437021(16) 0.404442(10)
C1D C 0.46282(10) 0.88189(19) 0.42602(11)
C2D C 0.40608(10) 0.97190(19) 0.39552(11)
C3D C 0.40097(12) 1.0684(2) 0.34130(12)
H1D H 0.3639 1.1298 0.3213
C4D C 0.45310(14) 1.0693(2) 0.31834(14)
H2D H 0.4509 1.1321 0.2818
C5D C 0.50921(13) 0.9777(3) 0.34891(14)
H3D H 0.5432 0.9809 0.3318
C6D C 0.51580(11) 0.8829(2) 0.40353(13)
H4D H 0.5535 0.8229 0.4242
C7D C 0.39116(11) 0.84470(19) 0.47719(12)
C8D C 0.36110(14) 0.7842(2) 0.52501(15)
H5D H 0.3911 0.7122 0.5557
H6D H 0.3576 0.8524 0.5581
H7D H 0.3151 0.7487 0.4922
C9D C 0.49714(11) 0.68942(19) 0.52238(12)
H8D H 0.5460 0.7119 0.5381
H9D H 0.4918 0.6755 0.5685
C10D C 0.47874(11) 0.55946(18) 0.47591(12)
H10D H 0.4289 0.5407 0.4566
H11D H 0.4879 0.5707 0.4320
C11E C 0.69112(11) -0.1332(2) 0.38545(14)
H12E H 0.6619 -0.0535 0.3768
H13E H 0.6795 -0.1963 0.4159
C12E C 0.67303(13) -0.1985(2) 0.30797(13)
H14E H 0.7087 -0.1737 0.2927
H15E H 0.6284 -0.1625 0.2697
C13E C 0.65928(14) -0.4003(3) 0.23363(13)
H16E H 0.6191 -0.3567 0.1921
H17E H 0.7008 -0.3786 0.2277
C14E C 0.64839(16) -0.5516(3) 0.22854(16)
H18E H 0.6899 -0.5953 0.2681
H19E H 0.6423 -0.5832 0.1789
C15E C 0.59654(15) -0.5413(3) 0.30987(15)
H20E H 0.5555 -0.5665 0.3158
H21E H 0.6374 -0.5841 0.3509
C16E C 0.60551(11) -0.3897(3) 0.31657(14)
H22E H 0.6106 -0.3604 0.3662
H23E H 0.5639 -0.3465 0.2769
N1D N 0.45230(9) 0.80304(16) 0.47836(10)
N2D N 0.36204(9) 0.94647(16) 0.42870(10)
N3E N 0.66808(9) -0.34793(17) 0.30849(9)
N3D N 0.16808(9) 1.15207(17) 0.30849(9)
O1E O 0.58846(11) -0.58901(19) 0.23782(11)
O2E O 0.82225(9) -0.20768(19) 0.45301(14)
O2D O 0.32225(9) 1.29232(19) 0.45301(14)
O3E O 0.79472(12) 0.0128(2) 0.39347(11)
O4E O 0.78592(10) -0.0267(2) 0.50947(10)
O4A O 0.21408(10) 1.0267(2) 0.49053(10)
S1E S 0.78076(3) -0.08529(5) 0.43905(3)
loop_
_geom_bond_atom_site_label_1
_geom_bond_atom_site_label_2
_geom_bond_site_symmetry_1
_geom_bond_site_symmetry_2
Ag1 N2 1_555 1_555
C1 C2 1_555 1_555
C2 C3 1_555 1_555
C3 H1 1_555 1_555
C4 C3 1_555 1_555
H2 C4 1_555 1_555
C5 C4 1_555 1_555
H3 C5 1_555 1_555
C6 C1 1_555 1_555
H4 C6 1_555 1_555
C7 C8 1_555 1_555
C8 H5 1_555 1_555
H6 C8 1_555 1_555
H7 C8 1_555 1_555
C9 H8 1_555 1_555
H9 C9 1_555 1_555
C10 C9 1_555 1_555
H10 C10 1_555 1_555
H11 C10 1_555 1_555
C11 H12 1_555 1_555
H13 C11 1_555 1_555
C12 C11 1_555 1_555
H14 C12 1_555 1_555
H15 C12 1_555 1_555
C13 H16 1_555 1_555
H17 C13 1_555 1_555
C14 C13 1_555 1_555
H18 C14 1_555 1_555
H19 C14 1_555 1_555
C15 H20 1_555 1_555
H21 C15 1_555 1_555
C16 C15 1_555 1_555
H22 C16 1_555 1_555
H23 C16 1_555 1_555
N1 C1 1_555 1_555
N2 C2 1_555 1_555
N3 Ag1 1_555 1_555
O1 C14 1_555 1_555
O2 Ag1 1_555 1_555
O3 S1 1_555 1_555
O4 S1 1_555 1_555
S1 C11 1_555 1_555
Ag1D N2D 1_555 1_555
Ag1E O4 1_555 1_555
C1D C2D 1_555 1_555
C2D C3D 1_555 1_555
C3D H1D 1_555 1_555
C4D C3D 1_555 1_555
H2D C4D 1_555 1_555
C5D C4D 1_555 1_555
H3D C5D 1_555 1_555
C6D C1D 1_555 1_555
H4D C6D 1_555 1_555
C7D C8D 1_555 1_555
C8D H5D 1_555 1_555
H6D C8D 1_555 1_555
H7D C8D 1_555 1_555
C9D H8D 1_555 1_555
H9D C9D 1_555 1_555
C10D C10 1_555 1_555
H10D C10D 1_555 1_555
H11D C10D 1_555 1_555
C11E H12E 1_555 1_555
H13E C11E 1_555 1_555
C12E C11E 1_555 1_555
H14E C12E 1_555 1_555
H15E C12E 1_555 1_555
C13E H16E 1_555 1_555
H17E C13E 1_555 1_555
C14E C13E 1_555 1_555
H18E C14E 1_555 1_555
H19E C14E 1_555 1_555
C15E H20E 1_555 1_555
H21E C15E 1_555 1_555
C16E C15E 1_555 1_555
H22E C16E 1_555 1_555
H23E C16E 1_555 1_555
N1D C1D 1_555 1_555
N2D C2D 1_555 1_555
N3E Ag1E 1_555 1_555
N3D Ag1D 1_555 1_555
O1E C14E 1_555 1_555
O2E Ag1E 1_555 1_555
O2D Ag1D 1_555 1_555
O3E S1E 1_555 1_555
O4E Ag1 1_555 1_555
O4A Ag1D 1_555 1_555
S1E C11E 1_555 1_555
C5 C6 1_555 1_555
C7 N1 1_555 1_555
C7 N2 1_555 1_555
C9 N1 1_555 1_555
C12 N3 1_555 1_555
C13 N3 1_555 1_555
C15 O1 1_555 1_555
C16 N3 1_555 1_555
O2 S1 1_555 1_555
C5D C6D 1_555 1_555
C7D N1D 1_555 1_555
C7D N2D 1_555 1_555
C9D C10D 1_555 1_555
C9D N1D 1_555 1_555
C12E N3E 1_555 1_555
C13E N3E 1_555 1_555
C15E O1E 1_555 1_555
C16E N3E 1_555 1_555
O2E S1E 1_555 1_555
O4E S1E 1_555 1_555

#END
