
#######################################################################
#
#                 Cambridge Crystallographic Data Centre
#                                CCDC 
#
#######################################################################
#
# If this CIF has been generated from an entry in the Cambridge 
# Structural Database, then it will include bibliographic, chemical, 
# crystal, experimental, refinement or atomic coordinate data resulting 
# from the CCDC's data processing and validation procedures.
#
#######################################################################

data_QIWVUP
_symmetry_cell_setting           triclinic
_symmetry_space_group_name_H-M   'P -1'
_symmetry_Int_Tables_number      2
_space_group_name_Hall           '-P 1'
loop_
_symmetry_equiv_pos_site_id
_symmetry_equiv_pos_as_xyz
1 x,y,z
2 -x,-y,-z
_cell_length_a                   7.8851(8)
_cell_length_b                   9.8789(14)
_cell_length_c                   12.8450(14)
_cell_angle_alpha                70.470(11)
_cell_angle_beta                 76.100(9)
_cell_angle_gamma                85.477(10)
_cell_volume                     915.393
loop_
_atom_site_label
_atom_site_type_symbol
_atom_site_fract_x
_atom_site_fract_y
_atom_site_fract_z
Mn1 Mn 0.67341(5) 0.56145(4) 0.19918(3)
O1 O 0.7514(3) 0.3457(2) 0.23539(16)
O2 O 0.5709(3) 0.2053(2) 0.38996(17)
O3 O 0.4479(2) 0.3496(2) -0.04388(16)
O4 O 0.6089(2) 0.4857(2) -0.20362(16)
N1 N 1.0662(3) 0.3583(2) -0.08943(18)
N2 N 0.7327(3) 0.5466(2) 0.36539(18)
N3 N 0.6543(3) 0.6111(3) 0.5184(2)
N4 N 0.4766(3) 0.8729(3) 0.3668(2)
N5 N 0.5639(3) 0.7700(3) 0.2352(2)
C1 C 0.7026(3) 0.2266(3) 0.3092(2)
C2 C 0.8145(3) 0.0986(3) 0.2997(2)
C3 C 0.8362(4) -0.0094(3) 0.3985(2)
H1 H 0.7787 -0.0014 0.4684
C4 C 0.9401(4) -0.1274(3) 0.3956(3)
H2 H 0.9565 -0.1958 0.4626
C5 C 1.0195(4) -0.1429(3) 0.2924(3)
H3 H 1.0860 -0.2241 0.2894
C6 C 1.0005(4) -0.0379(3) 0.1934(3)
H4 H 1.0543 -0.0496 0.1241
C7 C 0.9023(3) 0.0851(3) 0.1951(2)
C8 C 0.8976(3) 0.1976(3) 0.0841(2)
C9 C 1.0544(3) 0.2566(3) 0.0125(2)
H5 H 1.1571 0.2240 0.0363
C10 C 0.9181(3) 0.4027(3) -0.1241(2)
H6 H 0.9251 0.4719 -0.1950
C11 C 0.7547(3) 0.3505(3) -0.0593(2)
C12 C 0.7450(3) 0.2468(3) 0.0463(2)
H7 H 0.6370 0.2102 0.0917
C13 C 0.5928(3) 0.3995(3) -0.1042(2)
C14 C 0.7999(4) 0.4516(3) 0.4508(2)
H8 H 0.8682 0.3722 0.4447
C15 C 0.7523(4) 0.4904(3) 0.5455(2)
H9 H 0.7810 0.4439 0.6150
C16 C 0.6458(3) 0.6420(3) 0.4102(2)
C17 C 0.5608(3) 0.7608(3) 0.3404(2)
C18 C 0.4240(4) 0.9596(3) 0.2725(3)
H10 H 0.3631 1.0456 0.2650
C19 C 0.4778(4) 0.8958(3) 0.1926(3)
H11 H 0.4596 0.9315 0.1193
H12 H 0.606(4) 0.649(4) 0.558(3)
H13 H 0.458(4) 0.881(4) 0.430(3)
Mn1A Mn 0.32659(5) 0.43855(4) -0.19918(3)
Mn1A_2 Mn 1.32659(5) 0.43855(4) -0.19918(3)
O3A O 0.5521(2) 0.6504(2) 0.04388(16)
O4A O 0.3911(2) 0.5143(2) 0.20362(16)
N1A N 0.9338(3) 0.6417(2) 0.08943(18)
O5 O 0.8173(5) 0.7480(4) 0.6973(3)
H14 H 0.7568 0.6714 0.7257
H15 H 0.7496 0.7272 0.7787
loop_
_geom_bond_atom_site_label_1
_geom_bond_atom_site_label_2
_geom_bond_site_symmetry_1
_geom_bond_site_symmetry_2
Mn1 O1 1_555 1_555
O1 C1 1_555 1_555
O2 C1 1_555 1_555
O3 C13 1_555 1_555
O4 C13 1_555 1_555
N1 C9 1_555 1_555
N2 Mn1 1_555 1_555
N3 C15 1_555 1_555
N4 C17 1_555 1_555
N5 Mn1 1_555 1_555
C1 C2 1_555 1_555
C2 C3 1_555 1_555
C3 H1 1_555 1_555
C4 C3 1_555 1_555
H2 C4 1_555 1_555
C5 C4 1_555 1_555
H3 C5 1_555 1_555
C6 C5 1_555 1_555
H4 C6 1_555 1_555
C7 C2 1_555 1_555
C8 C7 1_555 1_555
C9 C8 1_555 1_555
H5 C9 1_555 1_555
C10 N1 1_555 1_555
H6 C10 1_555 1_555
C11 C10 1_555 1_555
C12 C8 1_555 1_555
H7 C12 1_555 1_555
C13 C11 1_555 1_555
C14 N2 1_555 1_555
H8 C14 1_555 1_555
C15 C14 1_555 1_555
H9 C15 1_555 1_555
C16 N2 1_555 1_555
C17 N5 1_555 1_555
C18 N4 1_555 1_555
H10 C18 1_555 1_555
C19 N5 1_555 1_555
H11 C19 1_555 1_555
H12 N3 1_555 1_555
H13 N4 1_555 1_555
O5 H14 1_555 1_555
H15 O5 1_555 1_555
Mn1A O3 1_555 1_555
Mn1A_2 N1 1_555 1_555
O3A Mn1 1_555 1_555
O4A Mn1 1_555 1_555
N1A Mn1 1_555 1_555
O4 Mn1A 1_555 1_555
N3 C16 1_555 1_555
C6 C7 1_555 1_555
C11 C12 1_555 1_555
C16 C17 1_555 1_555
C18 C19 1_555 1_555

#END
