
#######################################################################
#
#                 Cambridge Crystallographic Data Centre
#                                CCDC 
#
#######################################################################
#
# If this CIF has been generated from an entry in the Cambridge 
# Structural Database, then it will include bibliographic, chemical, 
# crystal, experimental, refinement or atomic coordinate data resulting 
# from the CCDC's data processing and validation procedures.
#
#######################################################################

data_QIXBOQ01
_symmetry_cell_setting           triclinic
_symmetry_space_group_name_H-M   'P -1'
_symmetry_Int_Tables_number      2
_space_group_name_Hall           '-P 1'
loop_
_symmetry_equiv_pos_site_id
_symmetry_equiv_pos_as_xyz
1 x,y,z
2 -x,-y,-z
_cell_length_a                   10.3458(7)
_cell_length_b                   11.1304(8)
_cell_length_c                   13.4575(9)
_cell_angle_alpha                91.8370(10)
_cell_angle_beta                 101.9800(10)
_cell_angle_gamma                111.8680(10)
_cell_volume                     1396.59
loop_
_atom_site_label
_atom_site_type_symbol
_atom_site_fract_x
_atom_site_fract_y
_atom_site_fract_z
C1 C 0.5546(5) 0.6896(5) 0.6708(4)
H1 H 0.5112 0.6652 0.6015
C2 C 0.6154(6) 0.8223(5) 0.7087(4)
H2 H 0.6113 0.8843 0.6648
C3 C 0.6812(5) 0.8610(5) 0.8106(4)
H3 H 0.7226 0.9489 0.8363
C4 C 0.6846(5) 0.7656(4) 0.8750(3)
C5 C 0.6225(4) 0.6342(4) 0.8322(3)
C6 C 0.6205(4) 0.5297(4) 0.8929(3)
C7 C 0.6803(4) 0.5524(4) 0.9990(3)
C8 C 0.6724(4) 0.4446(4) 1.0518(3)
H4 H 0.7095 0.4559 1.1221
C9 C 0.6091(5) 0.3220(4) 0.9983(3)
H5 H 0.6043 0.2496 1.0323
C10 C 0.5518(5) 0.3061(4) 0.8928(4)
H6 H 0.5092 0.2224 0.8576
C11 C 0.7394(4) 0.6871(4) 1.0418(3)
C12 C 0.7436(5) 0.7885(4) 0.9844(3)
C13 C 0.8328(5) 0.8729(4) 1.1400(4)
C14 C 0.8978(5) 0.9682(5) 1.2333(4)
C15 C 0.8489(6) 1.0652(5) 1.2523(4)
C16 C 0.9176(7) 1.1600(6) 1.3362(5)
H7 H 0.8846 1.2257 1.3458
C17 C 1.0326(7) 1.1568(6) 1.4040(5)
H8 H 1.0790 1.2214 1.4595
C18 C 1.0823(7) 1.0588(6) 1.3920(4)
H9 H 1.1588 1.0546 1.4402
C19 C 1.0152(5) 0.9678(5) 1.3067(4)
C20 C 0.2226(5) 0.4346(4) 0.6231(3)
C21 C 0.1067(5) 0.4680(4) 0.5589(3)
C22 C 0.1170(5) 0.5046(5) 0.4627(4)
H10 H 0.1954 0.5078 0.4376
C23 C 0.0101(5) 0.5366(5) 0.4035(4)
H11 H 0.0168 0.5610 0.3387
C24 C 0.5046(5) 0.2289(4) 0.6104(3)
C25 C 0.5038(5) 0.1085(4) 0.5550(3)
C26 C 0.3910(5) -0.0103(4) 0.5483(4)
H12 H 0.3181 -0.0170 0.5809
C27 C 0.3873(5) -0.1194(4) 0.4928(4)
H13 H 0.3117 -0.1994 0.4879
N1 N 0.5569(4) 0.5982(4) 0.7306(3)
N2 N 0.5563(4) 0.4070(3) 0.8413(3)
N3 N 0.8034(4) 0.9051(3) 1.0464(3)
N4 N 0.7980(4) 0.7430(3) 1.1408(3)
H14 H 0.8104 0.7035 1.1936
O1 O 0.4052(3) 0.2168(3) 0.6569(2)
O2 O 0.5973(4) 0.3368(3) 0.6078(3)
O3 O 0.3168(3) 0.4217(3) 0.5818(2)
O4 O 0.2235(4) 0.4224(3) 0.7160(2)
Cu1 Cu 0.46254(6) 0.40560(5) 0.69439(4)
F1 F 1.0781(3) 0.8625(3) 1.2967(2)
Cl1 Cl 0.7008(2) 1.06918(19) 1.17927(15)
C20A C -0.2226(5) 0.5654(4) 0.3769(3)
C21A C -0.1067(5) 0.5320(4) 0.4411(3)
C22A C -0.1170(5) 0.4954(5) 0.5373(4)
H10A H -0.1954 0.4922 0.5624
C23A C -0.0101(5) 0.4634(5) 0.5965(4)
H11A H -0.0168 0.4390 0.6613
O3A O -0.3168(3) 0.5783(3) 0.4182(2)
O4A O -0.2235(4) 0.5776(3) 0.2840(2)
C24A C 0.4954(5) -0.2289(4) 0.3896(3)
C25A C 0.4962(5) -0.1085(4) 0.4450(3)
C26A C 0.6090(5) 0.0103(4) 0.4517(4)
H12A H 0.6819 0.0170 0.4191
C27A C 0.6127(5) 0.1194(4) 0.5072(4)
H13A H 0.6883 0.1994 0.5121
O1A O 0.5948(3) -0.2168(3) 0.3431(2)
O2A O 0.4027(4) -0.3368(3) 0.3922(3)
C1A C -0.5546(5) 0.3104(5) 0.3292(4)
H1A H -0.5112 0.3348 0.3985
C2A C -0.6154(6) 0.1777(5) 0.2913(4)
H2A H -0.6113 0.1157 0.3352
C3A C -0.6812(5) 0.1390(5) 0.1894(4)
H3A H -0.7226 0.0511 0.1637
C4A C -0.6846(5) 0.2344(4) 0.1250(3)
C5A C -0.6225(4) 0.3658(4) 0.1678(3)
C6A C -0.6205(4) 0.4703(4) 0.1071(3)
C7A C -0.6803(4) 0.4476(4) 0.0010(3)
C8A C -0.6724(4) 0.5554(4) -0.0518(3)
H4A H -0.7095 0.5441 -0.1221
C9A C -0.6091(5) 0.6780(4) 0.0017(3)
H5A H -0.6043 0.7504 -0.0323
C10A C -0.5518(5) 0.6939(4) 0.1072(4)
H6A H -0.5092 0.7776 0.1424
C11A C -0.7394(4) 0.3129(4) -0.0418(3)
C12A C -0.7436(5) 0.2115(4) 0.0156(3)
C13A C -0.8328(5) 0.1271(4) -0.1400(4)
C14A C -0.8978(5) 0.0318(5) -0.2333(4)
C15A C -0.8489(6) -0.0652(5) -0.2523(4)
C16A C -0.9176(7) -0.1600(6) -0.3362(5)
H7A H -0.8846 -0.2257 -0.3458
C17A C -1.0326(7) -0.1568(6) -0.4040(5)
H8A H -1.0790 -0.2214 -0.4595
C18A C -1.0823(7) -0.0588(6) -0.3920(4)
H9A H -1.1588 -0.0546 -0.4402
C19A C -1.0152(5) 0.0322(5) -0.3067(4)
N1A N -0.5569(4) 0.4018(4) 0.2694(3)
N2A N -0.5563(4) 0.5930(3) 0.1587(3)
N3A N -0.8034(4) 0.0949(3) -0.0464(3)
N4A N -0.7980(4) 0.2570(3) -0.1408(3)
H14A H -0.8104 0.2965 -0.1936
Cu1A Cu -0.46254(6) 0.59440(5) 0.30561(4)
F1A F -1.0781(3) 0.1375(3) -0.2967(2)
Cl1A Cl -0.7008(2) -0.06918(19) -0.17927(15)
O1A_2 O -0.4052(3) 0.7832(3) 0.3431(2)
O2A_2 O -0.5973(4) 0.6632(3) 0.3922(3)
Cu1A_2 Cu 0.53746(6) -0.40560(5) 0.30561(4)
C28 C 1.1235(5) 0.7808(5) 1.0330(4)
C29 C 1.0563(5) 0.6353(5) 1.0151(4)
C30 C 1.0792(5) 0.5657(5) 1.0959(4)
H15 H 1.1325 0.6098 1.1601
C31 C 1.0228(5) 0.4304(5) 1.0815(4)
H16 H 1.0377 0.3838 1.1359
O5 O 1.0669(4) 0.8369(3) 0.9630(3)
H17 H 1.1076 0.9164 0.9766
O6 O 1.2252(5) 0.8392(4) 1.1034(3)
C28A C 0.8765(5) 0.2192(5) 0.9670(4)
C29A C 0.9437(5) 0.3647(5) 0.9849(4)
C30A C 0.9208(5) 0.4343(5) 0.9041(4)
H15A H 0.8675 0.3902 0.8399
C31A C 0.9772(5) 0.5696(5) 0.9185(4)
H16A H 0.9623 0.6162 0.8641
O5A O 0.9331(4) 0.1631(3) 1.0370(3)
H17A H 0.8924 0.0836 1.0234
O6A O 0.7748(5) 0.1608(4) 0.8966(3)
loop_
_geom_bond_atom_site_label_1
_geom_bond_atom_site_label_2
_geom_bond_site_symmetry_1
_geom_bond_site_symmetry_2
C1 H1 1_555 1_555
C2 C1 1_555 1_555
H2 C2 1_555 1_555
C3 C2 1_555 1_555
H3 C3 1_555 1_555
C4 C3 1_555 1_555
C5 C4 1_555 1_555
C6 C5 1_555 1_555
C7 C6 1_555 1_555
C8 C7 1_555 1_555
H4 C8 1_555 1_555
C9 C8 1_555 1_555
H5 C9 1_555 1_555
C10 C9 1_555 1_555
H6 C10 1_555 1_555
C11 C7 1_555 1_555
C12 C4 1_555 1_555
C13 C14 1_555 1_555
C14 C15 1_555 1_555
C15 C16 1_555 1_555
C16 H7 1_555 1_555
C17 C16 1_555 1_555
H8 C17 1_555 1_555
C18 C17 1_555 1_555
H9 C18 1_555 1_555
C19 C14 1_555 1_555
C20 C21 1_555 1_555
C21 C22 1_555 1_555
C22 H10 1_555 1_555
C23 C22 1_555 1_555
H11 C23 1_555 1_555
C24 C25 1_555 1_555
C25 C26 1_555 1_555
C26 H12 1_555 1_555
C27 C26 1_555 1_555
H13 C27 1_555 1_555
N1 C1 1_555 1_555
N2 C6 1_555 1_555
N3 C12 1_555 1_555
N4 C11 1_555 1_555
H14 N4 1_555 1_555
O1 C24 1_555 1_555
O2 C24 1_555 1_555
O3 C20 1_555 1_555
O4 C20 1_555 1_555
Cu1 N1 1_555 1_555
F1 C19 1_555 1_555
Cl1 C15 1_555 1_555
C28 C29 1_555 1_555
C29 C30 1_555 1_555
C30 H15 1_555 1_555
C31 C30 1_555 1_555
H16 C31 1_555 1_555
O5 C28 1_555 1_555
H17 O5 1_555 1_555
O6 C28 1_555 1_555
C20A C21A 1_555 1_555
C21A C23 1_555 1_555
C22A C21A 1_555 1_555
H10A C22A 1_555 1_555
C23A C21 1_555 1_555
H11A C23A 1_555 1_555
O3A C20A 1_555 1_555
O4A C20A 1_555 1_555
C24A C25A 1_555 1_555
C25A C27 1_555 1_555
C26A C25A 1_555 1_555
H12A C26A 1_555 1_555
C27A C25 1_555 1_555
H13A C27A 1_555 1_555
O1A C24A 1_555 1_555
O2A C24A 1_555 1_555
C1A H1A 1_555 1_555
C2A C1A 1_555 1_555
H2A C2A 1_555 1_555
C3A C2A 1_555 1_555
H3A C3A 1_555 1_555
C4A C3A 1_555 1_555
C5A C4A 1_555 1_555
C6A C5A 1_555 1_555
C7A C6A 1_555 1_555
C8A C7A 1_555 1_555
H4A C8A 1_555 1_555
C9A C8A 1_555 1_555
H5A C9A 1_555 1_555
C10A C9A 1_555 1_555
H6A C10A 1_555 1_555
C11A C7A 1_555 1_555
C12A C4A 1_555 1_555
C13A C14A 1_555 1_555
C14A C15A 1_555 1_555
C15A C16A 1_555 1_555
C16A H7A 1_555 1_555
C17A C16A 1_555 1_555
H8A C17A 1_555 1_555
C18A C17A 1_555 1_555
H9A C18A 1_555 1_555
C19A C14A 1_555 1_555
N1A C1A 1_555 1_555
N2A C6A 1_555 1_555
N3A C12A 1_555 1_555
N4A C11A 1_555 1_555
H14A N4A 1_555 1_555
Cu1A O3A 1_555 1_555
F1A C19A 1_555 1_555
Cl1A C15A 1_555 1_555
O1A_2 Cu1A 1_555 1_555
O2A_2 Cu1A 1_555 1_555
Cu1A_2 O1A 1_555 1_555
C28A C29A 1_555 1_555
C29A C31 1_555 1_555
C30A C29A 1_555 1_555
H15A C30A 1_555 1_555
C31A C29 1_555 1_555
H16A C31A 1_555 1_555
O5A C28A 1_555 1_555
H17A O5A 1_555 1_555
O6A C28A 1_555 1_555
C5 N1 1_555 1_555
C10 N2 1_555 1_555
C11 C12 1_555 1_555
C13 N3 1_555 1_555
C13 N4 1_555 1_555
C18 C19 1_555 1_555
N2 Cu1 1_555 1_555
O1 Cu1 1_555 1_555
O2 Cu1 1_555 1_555
O3 Cu1 1_555 1_555
O4 Cu1 1_555 1_555
C22A C23A 1_555 1_555
O4A Cu1A 1_555 1_555
C26A C27A 1_555 1_555
O2A Cu1A_2 1_555 1_555
C5A N1A 1_555 1_555
C10A N2A 1_555 1_555
C11A C12A 1_555 1_555
C13A N3A 1_555 1_555
C13A N4A 1_555 1_555
C18A C19A 1_555 1_555
N1A Cu1A 1_555 1_555
N2A Cu1A 1_555 1_555
C30A C31A 1_555 1_555

#END
