
#######################################################################
#
#                 Cambridge Crystallographic Data Centre
#                                CCDC 
#
#######################################################################
#
# If this CIF has been generated from an entry in the Cambridge 
# Structural Database, then it will include bibliographic, chemical, 
# crystal, experimental, refinement or atomic coordinate data resulting 
# from the CCDC's data processing and validation procedures.
#
#######################################################################

data_QIXBAC
_symmetry_cell_setting           triclinic
_symmetry_space_group_name_H-M   'P -1'
_symmetry_Int_Tables_number      2
_space_group_name_Hall           '-P 1'
loop_
_symmetry_equiv_pos_site_id
_symmetry_equiv_pos_as_xyz
1 x,y,z
2 -x,-y,-z
_cell_length_a                   11.175(2)
_cell_length_b                   13.791(3)
_cell_length_c                   16.842(3)
_cell_angle_alpha                92.520(3)
_cell_angle_beta                 95.221(3)
_cell_angle_gamma                111.443(3)
_cell_volume                     2397.54
loop_
_atom_site_label
_atom_site_type_symbol
_atom_site_fract_x
_atom_site_fract_y
_atom_site_fract_z
Mn1 Mn 0.97536(5) 1.19516(4) 0.16935(3)
Mn2 Mn 1.02705(5) 0.77636(4) 0.31346(3)
N1 N 1.0041(3) 0.6133(2) 0.34796(17)
N2 N 0.8394(3) 0.6617(2) 0.24172(17)
N3 N 0.8982(3) 0.4414(2) 0.32574(19)
H1 H 0.8399 0.3826 0.3064
N4 N 0.9065(3) 0.8006(2) 0.41344(16)
N5 N 0.9113(3) 0.8739(2) 0.53530(16)
H2 H 0.9428 0.9077 0.5813
N6 N 1.1743(3) 0.8632(2) 0.42273(16)
N7 N 1.1583(3) 1.3043(2) 0.24648(16)
N8 N 0.9927(3) 1.3608(2) 0.14374(16)
N9 N 1.1026(3) 1.5316(2) 0.16975(17)
H3 H 1.1627 1.5889 0.1902
N10 N 1.0983(3) 1.1856(2) 0.06584(16)
N11 N 1.0963(3) 1.1197(3) -0.05805(17)
H4 H 1.0662 1.0887 -0.1051
N12 N 0.8312(3) 1.1201(2) 0.05699(16)
O1 O 0.8321(2) 1.1836(2) 0.24476(16)
O2 O 0.6978(3) 1.2640(2) 0.2652(2)
O3 O 0.3166(3) 0.7023(2) 0.2289(2)
O4 O 0.1833(2) 0.7851(2) 0.24771(15)
O5 O 1.1566(3) 1.0561(2) 0.28482(19)
O6 O 0.9473(3) 1.0123(2) 0.32789(15)
O7 O 0.9920(3) 0.88958(18) 0.24033(13)
O8 O 0.9754(3) 1.04154(19) 0.19028(14)
S1 S 0.61663(11) 0.56114(10) 0.16483(7)
S2 S 1.35483(9) 0.93506(9) 0.53864(6)
S3 S 0.64929(10) 1.04927(9) -0.05765(6)
S4 S 1.37472(11) 1.40468(9) 0.32982(7)
S5 S 1.01852(8) 1.00046(6) 0.26214(5)
C1 C 1.0706(4) 0.5634(3) 0.3926(2)
C2 C 1.1821(4) 0.6033(3) 0.4461(2)
H5 H 1.2265 0.6750 0.4563
C3 C 1.2252(5) 0.5331(4) 0.4837(3)
H6 H 1.2993 0.5578 0.5203
C4 C 1.1578(5) 0.4240(4) 0.4671(3)
H7 H 1.1900 0.3785 0.4923
C5 C 1.0491(4) 0.3846(3) 0.4164(3)
H8 H 1.0048 0.3128 0.4065
C6 C 1.0049(4) 0.4548(3) 0.3790(2)
C7 C 0.9012(3) 0.5365(3) 0.3094(2)
C8 C 0.8063(3) 0.5579(3) 0.2568(2)
C9 C 0.6891(4) 0.4926(3) 0.2205(2)
H9 H 0.6535 0.4210 0.2251
C10 C 0.7466(4) 0.6739(3) 0.1936(2)
H10 H 0.7516 0.7385 0.1768
C11 C 0.7804(3) 0.7857(3) 0.4283(2)
C12 C 0.6619(4) 0.7326(3) 0.3830(2)
H11 H 0.6572 0.7008 0.3323
C13 C 0.5515(4) 0.7285(3) 0.4155(3)
H12 H 0.4717 0.6938 0.3855
C14 C 0.5549(4) 0.7738(3) 0.4905(2)
H13 H 0.4776 0.7675 0.5102
C15 C 0.6709(3) 0.8285(3) 0.5371(2)
H14 H 0.6739 0.8612 0.5871
C16 C 0.7831(3) 0.8321(3) 0.5052(2)
C17 C 0.9790(3) 0.8520(3) 0.47905(19)
C18 C 1.1194(3) 0.8821(3) 0.48992(19)
C19 C 1.2021(3) 0.9190(3) 0.5568(2)
H15 H 1.1790 0.9337 0.6063
C20 C 1.2995(3) 0.8919(3) 0.4418(2)
H16 H 1.3545 0.8887 0.4043
C21 C 1.2253(3) 1.2021(3) 0.0516(2)
C22 C 1.3427(4) 1.2519(3) 0.0990(2)
H17 H 1.3455 1.2798 0.1507
C23 C 1.4538(4) 1.2587(4) 0.0676(3)
H18 H 1.5327 1.2911 0.0991
C24 C 1.4524(4) 1.2189(4) -0.0096(3)
H19 H 1.5303 1.2272 -0.0293
C25 C 1.3370(4) 1.1670(3) -0.0580(2)
H20 H 1.3351 1.1380 -0.1092
C26 C 1.2243(3) 1.1607(3) -0.0261(2)
C27 C 1.0272(3) 1.1375(3) -0.0011(2)
C28 C 0.8874(3) 1.1069(3) -0.0109(2)
C29 C 0.8039(4) 1.0702(3) -0.0777(2)
H21 H 0.8269 1.0579 -0.1278
C30 C 0.7063(3) 1.0907(3) 0.0401(2)
H22 H 0.6522 1.0922 0.0786
C31 C 0.8137(4) 1.3789(3) 0.0489(2)
H23 H 0.7663 1.3077 0.0378
C32 C 0.9275(3) 1.4147(3) 0.1014(2)
C33 C 0.9973(3) 1.5230(3) 0.1183(2)
C34 C 0.9561(4) 1.5960(3) 0.0824(2)
H24 H 1.0033 1.6673 0.0931
C35 C 0.8447(4) 1.5604(3) 0.0312(3)
H25 H 0.8152 1.6082 0.0072
C36 C 0.7730(4) 1.4520(3) 0.0138(2)
H26 H 0.6976 1.4297 -0.0217
C37 C 1.0959(3) 1.4345(3) 0.1828(2)
C38 C 1.1897(3) 1.4090(3) 0.2350(2)
C39 C 1.3027(4) 1.4727(3) 0.2748(2)
H27 H 1.3372 1.5448 0.2726
C40 C 1.2478(4) 1.2912(3) 0.2951(2)
H28 H 1.2433 1.2258 0.3097
C41 C 0.7228(3) 1.1844(3) 0.2537(2)
C42 C 0.6118(3) 1.0807(3) 0.25222(18)
C43 C 0.6334(3) 0.9875(2) 0.24395(19)
H29 H 0.7166 0.9894 0.2396
C44 C 0.5316(3) 0.8922(3) 0.2422(2)
H30 H 0.5470 0.8305 0.2369
C45 C 0.4065(3) 0.8879(2) 0.24818(18)
C46 C 0.3860(3) 0.9815(3) 0.25882(19)
H31 H 0.3036 0.9800 0.2652
C47 C 0.4875(3) 1.0757(3) 0.25982(19)
H32 H 0.4722 1.1374 0.2657
C48 C 0.2935(3) 0.7837(3) 0.2417(2)
Mn2_2 Mn 0.02705(5) 0.77636(4) 0.31346(3)
O4_2 O 1.1833(2) 0.7851(2) 0.24771(15)
loop_
_geom_bond_atom_site_label_1
_geom_bond_atom_site_label_2
_geom_bond_site_symmetry_1
_geom_bond_site_symmetry_2
Mn1 N7 1_555 1_555
Mn2 N1 1_555 1_555
N1 C1 1_555 1_555
N2 Mn2 1_555 1_555
N3 H1 1_555 1_555
N4 Mn2 1_555 1_555
N5 H2 1_555 1_555
N6 Mn2 1_555 1_555
N7 C38 1_555 1_555
N8 Mn1 1_555 1_555
N9 H3 1_555 1_555
N10 Mn1 1_555 1_555
N11 H4 1_555 1_555
N12 Mn1 1_555 1_555
O1 Mn1 1_555 1_555
O2 C41 1_555 1_555
O3 C48 1_555 1_555
O4 C48 1_555 1_555
O5 S5 1_555 1_555
O6 S5 1_555 1_555
O7 Mn2 1_555 1_555
O8 Mn1 1_555 1_555
S1 C9 1_555 1_555
S2 C19 1_555 1_555
S3 C29 1_555 1_555
S4 C39 1_555 1_555
S5 O7 1_555 1_555
C1 C2 1_555 1_555
C2 H5 1_555 1_555
C3 C2 1_555 1_555
H6 C3 1_555 1_555
C4 C3 1_555 1_555
H7 C4 1_555 1_555
C5 C4 1_555 1_555
H8 C5 1_555 1_555
C6 N3 1_555 1_555
C7 N1 1_555 1_555
C8 N2 1_555 1_555
C9 C8 1_555 1_555
H9 C9 1_555 1_555
C10 N2 1_555 1_555
H10 C10 1_555 1_555
C11 N4 1_555 1_555
C12 C11 1_555 1_555
H11 C12 1_555 1_555
C13 C12 1_555 1_555
H12 C13 1_555 1_555
C14 C13 1_555 1_555
H13 C14 1_555 1_555
C15 C14 1_555 1_555
H14 C15 1_555 1_555
C16 N5 1_555 1_555
C17 N4 1_555 1_555
C18 N6 1_555 1_555
C19 C18 1_555 1_555
H15 C19 1_555 1_555
C20 N6 1_555 1_555
H16 C20 1_555 1_555
C21 N10 1_555 1_555
C22 C21 1_555 1_555
H17 C22 1_555 1_555
C23 C22 1_555 1_555
H18 C23 1_555 1_555
C24 C23 1_555 1_555
H19 C24 1_555 1_555
C25 C24 1_555 1_555
H20 C25 1_555 1_555
C26 N11 1_555 1_555
C27 N10 1_555 1_555
C28 N12 1_555 1_555
C29 C28 1_555 1_555
H21 C29 1_555 1_555
C30 N12 1_555 1_555
H22 C30 1_555 1_555
C31 H23 1_555 1_555
C32 N8 1_555 1_555
C33 N9 1_555 1_555
C34 C33 1_555 1_555
H24 C34 1_555 1_555
C35 C34 1_555 1_555
H25 C35 1_555 1_555
C36 C31 1_555 1_555
H26 C36 1_555 1_555
C37 N8 1_555 1_555
C38 C37 1_555 1_555
C39 C38 1_555 1_555
H27 C39 1_555 1_555
C40 N7 1_555 1_555
H28 C40 1_555 1_555
C41 O1 1_555 1_555
C42 C41 1_555 1_555
C43 C42 1_555 1_555
H29 C43 1_555 1_555
C44 C43 1_555 1_555
H30 C44 1_555 1_555
C45 C44 1_555 1_555
C46 C45 1_555 1_555
H31 C46 1_555 1_555
C47 C42 1_555 1_555
H32 C47 1_555 1_555
C48 C45 1_555 1_555
Mn2_2 O4 1_555 1_555
O4_2 Mn2 1_555 1_555
N3 C7 1_555 1_555
N5 C17 1_555 1_555
N9 C37 1_555 1_555
N11 C27 1_555 1_555
O8 S5 1_555 1_555
S1 C10 1_555 1_555
S2 C20 1_555 1_555
S3 C30 1_555 1_555
S4 C40 1_555 1_555
C1 C6 1_555 1_555
C5 C6 1_555 1_555
C7 C8 1_555 1_555
C11 C16 1_555 1_555
C15 C16 1_555 1_555
C17 C18 1_555 1_555
C21 C26 1_555 1_555
C25 C26 1_555 1_555
C27 C28 1_555 1_555
C31 C32 1_555 1_555
C32 C33 1_555 1_555
C35 C36 1_555 1_555
C46 C47 1_555 1_555

#END
