
#######################################################################
#
#                 Cambridge Crystallographic Data Centre
#                                CCDC 
#
#######################################################################
#
# If this CIF has been generated from an entry in the Cambridge 
# Structural Database, then it will include bibliographic, chemical, 
# crystal, experimental, refinement or atomic coordinate data resulting 
# from the CCDC's data processing and validation procedures.
#
#######################################################################

data_QIXBEG
_symmetry_cell_setting           orthorhombic
_symmetry_space_group_name_H-M   'P b c n'
_symmetry_Int_Tables_number      60
_space_group_name_Hall           '-P 2n 2ab'
loop_
_symmetry_equiv_pos_site_id
_symmetry_equiv_pos_as_xyz
1 x,y,z
2 1/2-x,1/2-y,1/2+z
3 -x,y,1/2-z
4 1/2+x,1/2-y,-z
5 -x,-y,-z
6 1/2+x,1/2+y,1/2-z
7 x,-y,1/2+z
8 1/2-x,1/2+y,z
_cell_length_a                   12.778(4)
_cell_length_b                   10.465(3)
_cell_length_c                   20.000(5)
_cell_angle_alpha                90
_cell_angle_beta                 90
_cell_angle_gamma                90
_cell_volume                     2674.44
loop_
_atom_site_label
_atom_site_type_symbol
_atom_site_fract_x
_atom_site_fract_y
_atom_site_fract_z
Co1 Co 1.0000 -0.24722(3) 0.7500
N1 N 1.16845(13) -0.26968(15) 0.73511(8)
N2 N 1.03980(12) -0.39862(15) 0.81855(8)
N3 N 1.15990(13) -0.53702(17) 0.85351(9)
H1 H 1.2191 -0.5756 0.8569
O1 O 1.00564(10) -0.11485(14) 0.67321(7)
O2 O 0.84635(11) -0.14841(16) 0.63171(8)
S1 S 1.35973(4) -0.28569(7) 0.70032(3)
C1 C 1.04888(19) -0.6566(2) 0.93675(12)
H2 H 1.0993 -0.7149 0.9507
C2 C 0.9496(2) -0.6560(2) 0.96334(12)
H3 H 0.9329 -0.7141 0.9969
C3 C 0.87353(18) -0.5706(2) 0.94142(12)
H4 H 0.8069 -0.5742 0.9600
C4 C 0.89438(16) -0.4807(2) 0.89287(10)
H5 H 0.8433 -0.4235 0.8787
C5 C 0.99456(14) -0.47872(19) 0.86583(10)
C6 C 1.06990(16) -0.5658(2) 0.88803(10)
C7 C 1.13805(14) -0.43726(19) 0.81353(9)
C8 C 1.21075(15) -0.37216(19) 0.76927(10)
C9 C 1.31293(17) -0.3951(2) 0.75596(11)
H6 H 1.3520 -0.4611 0.7745
C10 C 1.23874(16) -0.2156(2) 0.69777(10)
H7 H 1.2245 -0.1443 0.6716
C11 C 0.93806(16) -0.10850(18) 0.62716(9)
C12 C 0.97066(15) -0.05068(18) 0.56200(9)
C13 C 0.89668(17) -0.0260(2) 0.51312(11)
H8 H 0.8265 -0.0428 0.5216
C14 C 1.07385(16) -0.0235(2) 0.54816(10)
H9 H 1.1245 -0.0387 0.5806
O1D O 0.99436(10) 0.11485(14) 0.32679(7)
O2D O 1.15365(11) 0.14841(16) 0.36829(8)
C11D C 1.06194(16) 0.10850(18) 0.37284(9)
C12D C 1.02934(15) 0.05068(18) 0.43800(9)
C13D C 1.10332(17) 0.0260(2) 0.48688(11)
H8D H 1.1735 0.0428 0.4784
C14D C 0.92615(16) 0.0235(2) 0.45184(10)
H9D H 0.8755 0.0387 0.4194
N1B N 0.83155(13) -0.26968(15) 0.76489(8)
N2B N 0.96020(12) -0.39862(15) 0.68145(8)
N3B N 0.84010(13) -0.53702(17) 0.64649(9)
H1B H 0.7809 -0.5756 0.6431
S1B S 0.64027(4) -0.28569(7) 0.79968(3)
C1B C 0.95112(19) -0.6566(2) 0.56325(12)
H2B H 0.9007 -0.7149 0.5493
C2B C 1.0504(2) -0.6560(2) 0.53666(12)
H3B H 1.0671 -0.7141 0.5031
C3B C 1.12647(18) -0.5706(2) 0.55858(12)
H4B H 1.1931 -0.5742 0.5400
C4B C 1.10562(16) -0.4807(2) 0.60713(10)
H5B H 1.1567 -0.4235 0.6213
C5B C 1.00544(14) -0.47872(19) 0.63417(10)
C6B C 0.93010(16) -0.5658(2) 0.61197(10)
C7B C 0.86195(14) -0.43726(19) 0.68647(9)
C8B C 0.78925(15) -0.37216(19) 0.73073(10)
C9B C 0.68707(17) -0.3951(2) 0.74404(11)
H6B H 0.6480 -0.4611 0.7255
C10B C 0.76126(16) -0.2156(2) 0.80223(10)
H7B H 0.7755 -0.1443 0.8284
Co1D Co 1.0000 0.24722(3) 0.2500
O1B O 0.99436(10) -0.11485(14) 0.82679(7)
loop_
_geom_bond_atom_site_label_1
_geom_bond_atom_site_label_2
_geom_bond_site_symmetry_1
_geom_bond_site_symmetry_2
Co1 N1 1_555 1_555
N1 C8 1_555 1_555
N2 Co1 1_555 1_555
N3 H1 1_555 1_555
O1 Co1 1_555 1_555
O2 C11 1_555 1_555
S1 C9 1_555 1_555
C1 H2 1_555 1_555
C2 C1 1_555 1_555
H3 C2 1_555 1_555
C3 C2 1_555 1_555
H4 C3 1_555 1_555
C4 C3 1_555 1_555
H5 C4 1_555 1_555
C5 N2 1_555 1_555
C6 N3 1_555 1_555
C7 N2 1_555 1_555
C8 C7 1_555 1_555
C9 C8 1_555 1_555
H6 C9 1_555 1_555
C10 N1 1_555 1_555
H7 C10 1_555 1_555
C11 O1 1_555 1_555
C12 C11 1_555 1_555
C13 C12 1_555 1_555
H8 C13 1_555 1_555
C14 C12 1_555 1_555
H9 C14 1_555 1_555
O1D C11D 1_555 1_555
O2D C11D 1_555 1_555
C11D C12D 1_555 1_555
C12D C13D 1_555 1_555
C13D C14 1_555 1_555
H8D C13D 1_555 1_555
C14D C13 1_555 1_555
H9D C14D 1_555 1_555
N1B Co1 1_555 1_555
N2B Co1 1_555 1_555
N3B H1B 1_555 1_555
S1B C9B 1_555 1_555
C1B H2B 1_555 1_555
C2B C1B 1_555 1_555
H3B C2B 1_555 1_555
C3B C2B 1_555 1_555
H4B C3B 1_555 1_555
C4B C3B 1_555 1_555
H5B C4B 1_555 1_555
C5B N2B 1_555 1_555
C6B N3B 1_555 1_555
C7B N2B 1_555 1_555
C8B N1B 1_555 1_555
C9B C8B 1_555 1_555
H6B C9B 1_555 1_555
C10B N1B 1_555 1_555
H7B C10B 1_555 1_555
Co1D O1D 1_555 1_555
O1B Co1 1_555 1_555
N3 C7 1_555 1_555
S1 C10 1_555 1_555
C1 C6 1_555 1_555
C4 C5 1_555 1_555
C5 C6 1_555 1_555
C12D C14D 1_555 1_555
N3B C7B 1_555 1_555
S1B C10B 1_555 1_555
C1B C6B 1_555 1_555
C4B C5B 1_555 1_555
C5B C6B 1_555 1_555
C7B C8B 1_555 1_555

#END
