
#######################################################################
#
#                 Cambridge Crystallographic Data Centre
#                                CCDC 
#
#######################################################################
#
# If this CIF has been generated from an entry in the Cambridge 
# Structural Database, then it will include bibliographic, chemical, 
# crystal, experimental, refinement or atomic coordinate data resulting 
# from the CCDC's data processing and validation procedures.
#
#######################################################################

data_QIXGUZ
_symmetry_cell_setting           orthorhombic
_symmetry_space_group_name_H-M   'P c a 21'
_symmetry_Int_Tables_number      29
_space_group_name_Hall           'P 2c -2ac'
loop_
_symmetry_equiv_pos_site_id
_symmetry_equiv_pos_as_xyz
1 x,y,z
2 -x,-y,1/2+z
3 1/2+x,-y,z
4 1/2-x,y,1/2+z
_cell_length_a                   9.204(4)
_cell_length_b                   8.125(2)
_cell_length_c                   26.304(6)
_cell_angle_alpha                90
_cell_angle_beta                 90
_cell_angle_gamma                90
_cell_volume                     1967.08
loop_
_atom_site_label
_atom_site_type_symbol
_atom_site_fract_x
_atom_site_fract_y
_atom_site_fract_z
Cu1 Cu 0.78808(9) 0.10713(11) 0.41452(12)
N1 N 0.4736(4) 0.0070(6) 0.4086(5)
C1 C 0.5929(6) 0.0437(9) 0.4116(5)
N2 N 0.8598(5) 0.3404(5) 0.4267(2)
C2 C 0.8358(8) 0.4776(6) 0.4015(2)
N3 N 0.9130(8) 0.6020(5) 0.4222(3)
H1 H 0.9129 0.7028 0.4123
C3 C 0.9912(11) 0.5391(8) 0.4616(4)
H2 H 1.0546 0.5965 0.4826
C4 C 0.9589(9) 0.3779(7) 0.4642(3)
H3 H 0.9972 0.3037 0.4876
C5 C 0.7407(9) 0.4974(8) 0.3571(2)
C6 C 0.6762(9) 0.6490(9) 0.3463(3)
H4 H 0.6953 0.7384 0.3673
C7 C 0.5866(11) 0.6691(11) 0.3059(4)
H5 H 0.5471 0.7718 0.2987
C8 C 0.5551(11) 0.5369(13) 0.2759(3)
H6 H 0.4957 0.5511 0.2476
C9 C 0.6091(11) 0.3844(11) 0.2865(3)
H7 H 0.5819 0.2941 0.2670
C10 C 0.7053(9) 0.3657(9) 0.3269(3)
H8 H 0.7459 0.2631 0.3335
Cu1B Cu 0.28808(9) -0.10713(11) 0.41452(12)
N1B N 0.9736(4) -0.0070(6) 0.4086(5)
Cu2 Cu -1.54445(9) 0.38953(11) 0.58580(12)
N4 N -1.2289(4) 0.4933(7) 0.5891(5)
C11 C -1.3488(6) 0.4579(9) 0.5894(5)
N5 N -1.6177(5) 0.1571(5) 0.57322(19)
C12 C -1.5964(8) 0.0193(6) 0.5984(2)
N6 N -1.6750(8) -0.1034(5) 0.5774(3)
H9 H -1.6757 -0.2046 0.5870
C13 C -1.7530(11) -0.0384(8) 0.5383(3)
H10 H -1.8179 -0.0941 0.5174
C14 C -1.7181(9) 0.1222(7) 0.5358(3)
H11 H -1.7556 0.1974 0.5127
C15 C -1.4952(9) -0.0054(8) 0.6409(2)
C16 C -1.4431(10) -0.1622(9) 0.6527(3)
H12 H -1.4709 -0.2511 0.6327
C17 C -1.3530(11) -0.1882(11) 0.6927(4)
H13 H -1.3176 -0.2931 0.6994
C18 C -1.3149(12) -0.0587(13) 0.7229(4)
H14 H -1.2540 -0.0766 0.7505
C19 C -1.3642(11) 0.0965(11) 0.7132(3)
H15 H -1.3356 0.1841 0.7337
C20 C -1.4579(10) 0.1222(9) 0.6725(3)
H16 H -1.4956 0.2267 0.6666
Cu2B Cu -1.04445(9) 0.61047(11) 0.58580(12)
N4B N -1.7289(4) 0.5067(7) 0.5891(5)
loop_
_geom_bond_atom_site_label_1
_geom_bond_atom_site_label_2
_geom_bond_site_symmetry_1
_geom_bond_site_symmetry_2
Cu1 C1 1_555 1_555
N1 C1 1_555 1_555
N2 Cu1 1_555 1_555
C2 N2 1_555 1_555
N3 C2 1_555 1_555
H1 N3 1_555 1_555
C3 N3 1_555 1_555
H2 C3 1_555 1_555
C4 N2 1_555 1_555
H3 C4 1_555 1_555
C5 C2 1_555 1_555
C6 C5 1_555 1_555
H4 C6 1_555 1_555
C7 C6 1_555 1_555
H5 C7 1_555 1_555
C8 C7 1_555 1_555
H6 C8 1_555 1_555
C9 C8 1_555 1_555
H7 C9 1_555 1_555
C10 C5 1_555 1_555
H8 C10 1_555 1_555
Cu2 C11 1_555 1_555
N4 C11 1_555 1_555
N5 Cu2 1_555 1_555
C12 N5 1_555 1_555
N6 C12 1_555 1_555
H9 N6 1_555 1_555
C13 N6 1_555 1_555
H10 C13 1_555 1_555
C14 N5 1_555 1_555
H11 C14 1_555 1_555
C15 C12 1_555 1_555
C16 C15 1_555 1_555
H12 C16 1_555 1_555
C17 C16 1_555 1_555
H13 C17 1_555 1_555
C18 C17 1_555 1_555
H14 C18 1_555 1_555
C19 C18 1_555 1_555
H15 C19 1_555 1_555
C20 C15 1_555 1_555
H16 C20 1_555 1_555
Cu1B N1 1_555 1_555
N1B Cu1 1_555 1_555
Cu2B N4 1_555 1_555
N4B Cu2 1_555 1_555
C3 C4 1_555 1_555
C9 C10 1_555 1_555
C13 C14 1_555 1_555
C19 C20 1_555 1_555

#END
