
#######################################################################
#
#                 Cambridge Crystallographic Data Centre
#                                CCDC 
#
#######################################################################
#
# If this CIF has been generated from an entry in the Cambridge 
# Structural Database, then it will include bibliographic, chemical, 
# crystal, experimental, refinement or atomic coordinate data resulting 
# from the CCDC's data processing and validation procedures.
#
#######################################################################

data_QIXJAK
_symmetry_cell_setting           triclinic
_symmetry_space_group_name_H-M   'P -1'
_symmetry_Int_Tables_number      2
_space_group_name_Hall           '-P 1'
loop_
_symmetry_equiv_pos_site_id
_symmetry_equiv_pos_as_xyz
1 x,y,z
2 -x,-y,-z
_cell_length_a                   11.031(3)
_cell_length_b                   11.425(4)
_cell_length_c                   16.625(4)
_cell_angle_alpha                94.330(3)
_cell_angle_beta                 94.600(3)
_cell_angle_gamma                113.926(3)
_cell_volume                     1895.56
loop_
_atom_site_label
_atom_site_type_symbol
_atom_site_fract_x
_atom_site_fract_y
_atom_site_fract_z
Cd1 Cd 0.49905(3) 0.76790(3) 0.790140(17)
Cd2 Cd 1.15349(3) 0.23284(3) 0.705827(18)
N1 N 1.1558(4) 0.0851(3) 0.6065(2)
N2 N 1.1808(4) 0.0327(4) 0.4794(2)
H1 H 1.1974 0.0406 0.4300
N3 N 1.2379(4) 0.3453(4) 0.5916(2)
N4 N 0.5938(4) 0.9148(3) 0.9056(2)
N5 N 0.6289(4) 0.9576(3) 1.0407(2)
H2 H 0.6212 0.9467 1.0910
N6 N 0.4163(4) 0.6585(4) 0.9077(2)
O1 O 1.3672(3) 0.3072(3) 0.7699(2)
H3 H 1.3247 0.2964 0.8111
H4 H 1.4117 0.3876 0.7689
O2 O 1.0784(4) 0.0995(3) 0.79941(19)
O3 O 1.2272(4) 0.2513(3) 0.8934(2)
O4 O 1.1228(3) 0.4306(3) 0.7511(2)
O5 O 0.9518(4) 0.2487(3) 0.7040(2)
O6 O 0.5146(3) 0.5543(3) 0.7550(2)
O7 O 0.6929(3) 0.7390(3) 0.78202(19)
O8 O 0.4964(4) 0.9274(3) 0.71185(18)
O9 O 0.4917(4) 0.7596(3) 0.6367(2)
O10 O 0.2687(3) 0.6879(4) 0.7530(2)
H5 H 0.3279 0.7032 0.7208
H6 H 0.2253 0.6067 0.7506
S1 S 0.32417(16) 0.51885(13) 1.01878(9)
S2 S 1.3255(2) 0.48561(15) 0.48126(10)
C1 C 1.0829(5) -0.1383(5) 0.6485(3)
H7 H 1.0720 -0.1169 0.7017
C2 C 1.0584(6) -0.2640(5) 0.6195(4)
H8 H 1.0282 -0.3287 0.6532
C3 C 1.0784(6) -0.2938(5) 0.5407(4)
H9 H 1.0630 -0.3786 0.5235
C4 C 1.1197(6) -0.2046(5) 0.4869(3)
H10 H 1.1325 -0.2265 0.4342
C5 C 1.1415(4) -0.0788(4) 0.5155(3)
C6 C 1.1245(5) -0.0459(4) 0.5951(3)
C7 C 1.1886(4) 0.1273(4) 0.5355(2)
C8 C 1.2339(5) 0.2630(5) 0.5245(3)
C9 C 1.2779(7) 0.3236(5) 0.4591(3)
H11 H 1.2817 0.2831 0.4093
C10 C 1.2848(6) 0.4644(5) 0.5763(3)
H12 H 1.2950 0.5324 0.6146
C11 C 1.1263(5) 0.1467(4) 0.8728(3)
C12 C 1.0589(4) 0.0696(4) 0.9375(2)
C13 C 1.1100(4) 0.1174(4) 1.0196(3)
H13 H 1.1839 0.1960 1.0324
C14 C 0.9489(5) -0.0484(4) 0.9198(3)
H14 H 0.9148 -0.0810 0.8659
C15 C 0.9988(5) 0.3658(4) 0.7326(2)
C16 C 0.9046(5) 0.4286(4) 0.7441(2)
C17 C 0.7727(5) 0.3676(5) 0.7084(3)
H15 H 0.7422 0.2865 0.6790
C18 C 0.6866(5) 0.4269(4) 0.7164(3)
H16 H 0.5984 0.3850 0.6925
C19 C 0.7302(5) 0.5485(4) 0.7598(3)
C20 C 0.8614(5) 0.6078(4) 0.7978(3)
H17 H 0.8914 0.6880 0.8285
C21 C 0.9467(5) 0.5479(4) 0.7900(3)
H18 H 1.0338 0.5880 0.8158
C22 C 0.6401(5) 0.6178(4) 0.7661(3)
C23 C 0.4944(5) 0.8699(4) 0.6437(3)
C24 C 0.4962(4) 0.9374(4) 0.5697(2)
C25 C 0.5049(5) 1.0635(4) 0.5745(2)
H19 H 0.5086 1.1065 0.6250
C26 C 0.4920(5) 0.8752(4) 0.4930(3)
H20 H 0.4871 0.7917 0.4880
C27 C 0.8480(6) 1.2516(5) 0.9152(3)
H21 H 0.8971 1.3148 0.8842
C28 C 0.8700(6) 1.2766(5) 1.0009(3)
H22 H 0.9334 1.3565 1.0250
C29 C 0.8012(5) 1.1873(4) 1.0498(3)
H23 H 0.8152 1.2050 1.1061
C30 C 0.7093(5) 1.0686(4) 1.0105(3)
C31 C 0.6859(5) 1.0423(4) 0.9255(3)
C32 C 0.7545(6) 1.1344(5) 0.8769(3)
H24 H 0.7383 1.1180 0.8205
C33 C 0.5645(4) 0.8694(4) 0.9755(2)
C34 C 0.4707(5) 0.7352(4) 0.9817(3)
C35 C 0.4309(5) 0.6763(5) 1.0468(3)
H25 H 0.4575 0.7154 1.1002
C36 C 0.3387(5) 0.5440(5) 0.9195(3)
H26 H 0.2935 0.4790 0.8769
O2A O 0.9216(4) -0.0995(3) 1.20059(19)
O3A O 0.7728(4) -0.2513(3) 1.1066(2)
C11A C 0.8737(5) -0.1467(4) 1.1272(3)
C12A C 0.9411(4) -0.0696(4) 1.0625(2)
C13A C 0.8900(4) -0.1174(4) 0.9804(3)
H13A H 0.8161 -0.1960 0.9676
C14A C 1.0511(5) 0.0484(4) 1.0802(3)
H14A H 1.0852 0.0810 1.1341
O8A O 0.5036(4) 1.0726(3) 0.28815(18)
O9A O 0.5083(4) 1.2404(3) 0.3633(2)
C23A C 0.5056(5) 1.1301(4) 0.3563(3)
C24A C 0.5038(4) 1.0626(4) 0.4303(2)
C25A C 0.4951(5) 0.9365(4) 0.4255(2)
H19A H 0.4914 0.8935 0.3750
C26A C 0.5080(5) 1.1248(4) 0.5070(3)
H20A H 0.5129 1.2083 0.5120
Cd1A Cd 0.50095(3) 1.23210(3) 0.209860(17)
Cd2A Cd -0.15349(3) 1.76716(3) 0.294173(18)
N1A N -0.1558(4) 1.9149(3) 0.3935(2)
N2A N -0.1808(4) 1.9673(4) 0.5206(2)
H1A H -0.1974 1.9594 0.5700
N3A N -0.2379(4) 1.6547(4) 0.4084(2)
N4A N 0.4062(4) 1.0852(3) 0.0944(2)
N5A N 0.3711(4) 1.0424(3) -0.0407(2)
H2A H 0.3788 1.0533 -0.0910
N6A N 0.5837(4) 1.3415(4) 0.0923(2)
O1A O -0.3672(3) 1.6928(3) 0.2301(2)
H3A H -0.3247 1.7036 0.1889
H4A H -0.4117 1.6124 0.2311
O4A O -0.1228(3) 1.5694(3) 0.2489(2)
O5A O 0.0482(4) 1.7513(3) 0.2960(2)
O6A O 0.4854(3) 1.4457(3) 0.2450(2)
O7A O 0.3071(3) 1.2610(3) 0.21798(19)
O10A O 0.7313(3) 1.3121(4) 0.2470(2)
H5A H 0.6721 1.2968 0.2792
H6A H 0.7747 1.3933 0.2494
S1A S 0.67583(16) 1.48115(13) -0.01878(9)
S2A S -0.3255(2) 1.51439(15) 0.51874(10)
C1A C -0.0829(5) 2.1383(5) 0.3515(3)
H7A H -0.0720 2.1169 0.2983
C2A C -0.0584(6) 2.2640(5) 0.3805(4)
H8A H -0.0282 2.3287 0.3468
C3A C -0.0784(6) 2.2938(5) 0.4593(4)
H9A H -0.0630 2.3786 0.4765
C4A C -0.1197(6) 2.2046(5) 0.5131(3)
H10A H -0.1325 2.2265 0.5658
C5A C -0.1415(4) 2.0788(4) 0.4845(3)
C6A C -0.1245(5) 2.0459(4) 0.4049(3)
C7A C -0.1886(4) 1.8727(4) 0.4645(2)
C8A C -0.2339(5) 1.7370(5) 0.4755(3)
C9A C -0.2779(7) 1.6764(5) 0.5409(3)
H11A H -0.2817 1.7169 0.5907
C10A C -0.2848(6) 1.5356(5) 0.4237(3)
H12A H -0.2950 1.4676 0.3854
C15A C 0.0012(5) 1.6342(4) 0.2674(2)
C16A C 0.0954(5) 1.5714(4) 0.2559(2)
C17A C 0.2273(5) 1.6324(5) 0.2916(3)
H15A H 0.2578 1.7135 0.3210
C18A C 0.3134(5) 1.5731(4) 0.2836(3)
H16A H 0.4016 1.6150 0.3075
C19A C 0.2698(5) 1.4515(4) 0.2402(3)
C20A C 0.1386(5) 1.3922(4) 0.2022(3)
H17A H 0.1086 1.3120 0.1715
C21A C 0.0533(5) 1.4521(4) 0.2100(3)
H18A H -0.0338 1.4120 0.1842
C22A C 0.3599(5) 1.3822(4) 0.2339(3)
C27A C 0.1520(6) 0.7484(5) 0.0848(3)
H21A H 0.1029 0.6852 0.1158
C28A C 0.1300(6) 0.7234(5) -0.0009(3)
H22A H 0.0666 0.6435 -0.0250
C29A C 0.1988(5) 0.8127(4) -0.0498(3)
H23A H 0.1848 0.7950 -0.1061
C30A C 0.2907(5) 0.9314(4) -0.0105(3)
C31A C 0.3141(5) 0.9577(4) 0.0745(3)
C32A C 0.2455(6) 0.8656(5) 0.1231(3)
H24A H 0.2617 0.8820 0.1795
C33A C 0.4355(4) 1.1306(4) 0.0245(2)
C34A C 0.5293(5) 1.2648(4) 0.0183(3)
C35A C 0.5691(5) 1.3237(5) -0.0468(3)
H25A H 0.5425 1.2846 -0.1002
C36A C 0.6613(5) 1.4560(5) 0.0805(3)
H26A H 0.7065 1.5210 0.1231
Cd2A_2 Cd 0.84651(3) -0.23284(3) 1.294173(18)
O2A_2 O -0.0784(4) 1.9005(3) 0.20059(19)
O11 O 0.1827(4) 0.0485(4) 0.3119(2)
H27 H 0.1501 -0.0310 0.2935
H28 H 0.2133 0.0932 0.2736
O12 O 0.3921(6) 0.0709(4) 0.7970(2)
H29 H 0.3925 0.1397 0.7804
H30 H 0.4279 0.0381 0.7639
loop_
_geom_bond_atom_site_label_1
_geom_bond_atom_site_label_2
_geom_bond_site_symmetry_1
_geom_bond_site_symmetry_2
Cd1 N4 1_555 1_555
Cd2 N1 1_555 1_555
N1 C6 1_555 1_555
N2 H1 1_555 1_555
N3 Cd2 1_555 1_555
N4 C31 1_555 1_555
N5 H2 1_555 1_555
N6 Cd1 1_555 1_555
O1 Cd2 1_555 1_555
H3 O1 1_555 1_555
H4 O1 1_555 1_555
O2 Cd2 1_555 1_555
O3 C11 1_555 1_555
O4 Cd2 1_555 1_555
O5 Cd2 1_555 1_555
O6 Cd1 1_555 1_555
O7 Cd1 1_555 1_555
O8 Cd1 1_555 1_555
O9 Cd1 1_555 1_555
O10 Cd1 1_555 1_555
H5 O10 1_555 1_555
H6 O10 1_555 1_555
S1 C35 1_555 1_555
S2 C9 1_555 1_555
C1 H7 1_555 1_555
C2 C1 1_555 1_555
H8 C2 1_555 1_555
C3 C2 1_555 1_555
H9 C3 1_555 1_555
C4 C3 1_555 1_555
H10 C4 1_555 1_555
C5 N2 1_555 1_555
C6 C1 1_555 1_555
C7 N1 1_555 1_555
C8 N3 1_555 1_555
C9 C8 1_555 1_555
H11 C9 1_555 1_555
C10 N3 1_555 1_555
H12 C10 1_555 1_555
C11 O2 1_555 1_555
C12 C11 1_555 1_555
C13 C12 1_555 1_555
H13 C13 1_555 1_555
C14 C12 1_555 1_555
H14 C14 1_555 1_555
C15 O4 1_555 1_555
C16 C15 1_555 1_555
C17 C16 1_555 1_555
H15 C17 1_555 1_555
C18 C17 1_555 1_555
H16 C18 1_555 1_555
C19 C18 1_555 1_555
C20 C19 1_555 1_555
H17 C20 1_555 1_555
C21 C16 1_555 1_555
H18 C21 1_555 1_555
C22 O6 1_555 1_555
C23 O8 1_555 1_555
C24 C23 1_555 1_555
C25 C24 1_555 1_555
H19 C25 1_555 1_555
C26 C24 1_555 1_555
H20 C26 1_555 1_555
C27 H21 1_555 1_555
C28 C27 1_555 1_555
H22 C28 1_555 1_555
C29 C28 1_555 1_555
H23 C29 1_555 1_555
C30 N5 1_555 1_555
C31 C30 1_555 1_555
C32 C27 1_555 1_555
H24 C32 1_555 1_555
C33 N4 1_555 1_555
C34 N6 1_555 1_555
C35 C34 1_555 1_555
H25 C35 1_555 1_555
C36 N6 1_555 1_555
H26 C36 1_555 1_555
O11 H27 1_555 1_555
H28 O11 1_555 1_555
O12 H29 1_555 1_555
H30 O12 1_555 1_555
O2A C11A 1_555 1_555
O3A C11A 1_555 1_555
C11A C12A 1_555 1_555
C12A C13A 1_555 1_555
C13A C14 1_555 1_555
H13A C13A 1_555 1_555
C14A C13 1_555 1_555
H14A C14A 1_555 1_555
O8A C23A 1_555 1_555
O9A C23A 1_555 1_555
C23A C24A 1_555 1_555
C24A C25A 1_555 1_555
C25A C26 1_555 1_555
H19A C25A 1_555 1_555
C26A C25 1_555 1_555
H20A C26A 1_555 1_555
Cd1A O8A 1_555 1_555
Cd2A N1A 1_555 1_555
N1A C6A 1_555 1_555
N2A H1A 1_555 1_555
N3A Cd2A 1_555 1_555
N4A Cd1A 1_555 1_555
N5A H2A 1_555 1_555
N6A Cd1A 1_555 1_555
O1A Cd2A 1_555 1_555
H3A O1A 1_555 1_555
H4A O1A 1_555 1_555
O4A Cd2A 1_555 1_555
O5A Cd2A 1_555 1_555
O6A Cd1A 1_555 1_555
O7A Cd1A 1_555 1_555
O10A Cd1A 1_555 1_555
H5A O10A 1_555 1_555
H6A O10A 1_555 1_555
S1A C35A 1_555 1_555
S2A C9A 1_555 1_555
C1A H7A 1_555 1_555
C2A C1A 1_555 1_555
H8A C2A 1_555 1_555
C3A C2A 1_555 1_555
H9A C3A 1_555 1_555
C4A C3A 1_555 1_555
H10A C4A 1_555 1_555
C5A N2A 1_555 1_555
C6A C1A 1_555 1_555
C7A N1A 1_555 1_555
C8A N3A 1_555 1_555
C9A C8A 1_555 1_555
H11A C9A 1_555 1_555
C10A N3A 1_555 1_555
H12A C10A 1_555 1_555
C15A O4A 1_555 1_555
C16A C15A 1_555 1_555
C17A C16A 1_555 1_555
H15A C17A 1_555 1_555
C18A C17A 1_555 1_555
H16A C18A 1_555 1_555
C19A C18A 1_555 1_555
C20A C19A 1_555 1_555
H17A C20A 1_555 1_555
C21A C16A 1_555 1_555
H18A C21A 1_555 1_555
C22A O6A 1_555 1_555
C27A H21A 1_555 1_555
C28A C27A 1_555 1_555
H22A C28A 1_555 1_555
C29A C28A 1_555 1_555
H23A C29A 1_555 1_555
C30A N5A 1_555 1_555
C31A N4A 1_555 1_555
C32A C27A 1_555 1_555
H24A C32A 1_555 1_555
C33A N4A 1_555 1_555
C34A N6A 1_555 1_555
C35A C34A 1_555 1_555
H25A C35A 1_555 1_555
C36A N6A 1_555 1_555
H26A C36A 1_555 1_555
Cd2A_2 O2A 1_555 1_555
O2A_2 Cd2A 1_555 1_555
N2 C7 1_555 1_555
N5 C33 1_555 1_555
O5 C15 1_555 1_555
O7 C22 1_555 1_555
O9 C23 1_555 1_555
S1 C36 1_555 1_555
S2 C10 1_555 1_555
C4 C5 1_555 1_555
C5 C6 1_555 1_555
C7 C8 1_555 1_555
C19 C22 1_555 1_555
C20 C21 1_555 1_555
C29 C30 1_555 1_555
C31 C32 1_555 1_555
C33 C34 1_555 1_555
C12A C14A 1_555 1_555
O9A Cd1A 1_555 1_555
C24A C26A 1_555 1_555
N2A C7A 1_555 1_555
N5A C33A 1_555 1_555
O5A C15A 1_555 1_555
O7A C22A 1_555 1_555
S1A C36A 1_555 1_555
S2A C10A 1_555 1_555
C4A C5A 1_555 1_555
C5A C6A 1_555 1_555
C7A C8A 1_555 1_555
C19A C22A 1_555 1_555
C20A C21A 1_555 1_555
C29A C30A 1_555 1_555
C30A C31A 1_555 1_555
C31A C32A 1_555 1_555
C33A C34A 1_555 1_555

#END
