
#######################################################################
#
#                 Cambridge Crystallographic Data Centre
#                                CCDC 
#
#######################################################################
#
# If this CIF has been generated from an entry in the Cambridge 
# Structural Database, then it will include bibliographic, chemical, 
# crystal, experimental, refinement or atomic coordinate data resulting 
# from the CCDC's data processing and validation procedures.
#
#######################################################################

data_QIXVUQ
_symmetry_cell_setting           monoclinic
_symmetry_space_group_name_H-M   'P 21/n'
_symmetry_Int_Tables_number      14
_space_group_name_Hall           '-P 2yn'
loop_
_symmetry_equiv_pos_site_id
_symmetry_equiv_pos_as_xyz
1 x,y,z
2 1/2-x,1/2+y,1/2-z
3 -x,-y,-z
4 1/2+x,1/2-y,1/2+z
_cell_length_a                   7.66900(10)
_cell_length_b                   8.86610(10)
_cell_length_c                   25.0062(3)
_cell_angle_alpha                90
_cell_angle_beta                 97.8000(10)
_cell_angle_gamma                90
_cell_volume                     1684.54
loop_
_atom_site_label
_atom_site_type_symbol
_atom_site_fract_x
_atom_site_fract_y
_atom_site_fract_z
Cd1 Cd 0.82921(3) 0.25794(2) 0.139071(8)
N1 N 1.1124(3) 0.5986(3) 0.28193(9)
N2 N 0.9672(4) 0.6835(4) 0.28266(12)
N3 N 0.9352(3) 0.6864(3) 0.33350(10)
N4 N 1.0640(3) 0.6053(3) 0.36253(9)
N5 N 0.9389(3) -0.0518(3) 0.16006(10)
N6 N 0.8176(3) 0.3034(3) 0.04694(9)
N7 N 0.6979(3) 0.4965(3) 0.11868(9)
O1 O 0.9296(3) 0.3821(2) 0.22399(8)
O2 O 1.1088(3) 0.3750(2) 0.16184(7)
O3 O 0.9022(3) 0.0122(2) 0.11475(8)
O4 O 0.9198(3) 0.0231(3) 0.20122(9)
O5 O 0.9896(3) -0.1838(3) 0.16332(10)
C1 C 1.1838(4) 0.5397(3) 0.23475(11)
H1 H 1.2987 0.4958 0.2462
H2 H 1.1987 0.6220 0.2102
C2 C 1.1678(3) 0.5524(3) 0.33164(10)
H3 H 1.2654 0.4918 0.3422
C3 C 1.0649(4) 0.4219(3) 0.20554(11)
C4 C 0.8745(5) 0.2094(4) 0.01160(13)
H4 H 0.9102 0.1133 0.0233
C5 C 0.8835(6) 0.2477(3) -0.04203(15)
H5 H 0.9237 0.1786 -0.0656
C6 C 0.8321(4) 0.3885(4) -0.05910(11)
H6 H 0.8388 0.4169 -0.0946
C7 C 0.7696(4) 0.4903(3) -0.02391(11)
C8 C 0.7111(4) 0.6399(4) -0.03912(13)
H7 H 0.7175 0.6727 -0.0741
C9 C 0.6483(5) 0.7330(3) -0.00486(16)
H8 H 0.6080 0.8279 -0.0165
C10 C 0.6417(4) 0.6889(4) 0.04984(13)
C11 C 0.5760(5) 0.7833(4) 0.08873(16)
H9 H 0.5364 0.8802 0.0794
C12 C 0.5717(5) 0.7306(3) 0.13964(18)
H10 H 0.5269 0.7905 0.1651
C13 C 0.6340(4) 0.5881(4) 0.15328(12)
H11 H 0.6312 0.5544 0.1884
C14 C 0.7639(4) 0.4436(3) 0.02956(11)
C15 C 0.6993(4) 0.5453(3) 0.06741(11)
Cd1A Cd 0.67079(3) 0.75794(2) 0.360929(8)
N3A N 0.5648(3) 0.1864(3) 0.16650(10)
loop_
_geom_bond_atom_site_label_1
_geom_bond_atom_site_label_2
_geom_bond_site_symmetry_1
_geom_bond_site_symmetry_2
Cd1 N6 1_555 1_555
N1 N2 1_555 1_555
N2 N3 1_555 1_555
N3 N4 1_555 1_555
N4 C2 1_555 1_555
N5 O3 1_555 1_555
N6 C4 1_555 1_555
N7 Cd1 1_555 1_555
O1 Cd1 1_555 1_555
O2 Cd1 1_555 1_555
O3 Cd1 1_555 1_555
O4 Cd1 1_555 1_555
O5 N5 1_555 1_555
C1 N1 1_555 1_555
H1 C1 1_555 1_555
H2 C1 1_555 1_555
C2 N1 1_555 1_555
H3 C2 1_555 1_555
C3 O1 1_555 1_555
C4 H4 1_555 1_555
C5 C4 1_555 1_555
H5 C5 1_555 1_555
C6 C5 1_555 1_555
H6 C6 1_555 1_555
C7 C6 1_555 1_555
C8 C7 1_555 1_555
H7 C8 1_555 1_555
C9 C8 1_555 1_555
H8 C9 1_555 1_555
C10 C9 1_555 1_555
C11 C10 1_555 1_555
H9 C11 1_555 1_555
C12 C11 1_555 1_555
H10 C12 1_555 1_555
C13 N7 1_555 1_555
H11 C13 1_555 1_555
C14 N6 1_555 1_555
C15 N7 1_555 1_555
Cd1A N3 1_555 1_555
N3A Cd1 1_555 1_555
N5 O4 1_555 1_555
O2 C3 1_555 1_555
C1 C3 1_555 1_555
C7 C14 1_555 1_555
C10 C15 1_555 1_555
C12 C13 1_555 1_555
C14 C15 1_555 1_555

#END
