
#######################################################################
#
#                 Cambridge Crystallographic Data Centre
#                                CCDC 
#
#######################################################################
#
# If this CIF has been generated from an entry in the Cambridge 
# Structural Database, then it will include bibliographic, chemical, 
# crystal, experimental, refinement or atomic coordinate data resulting 
# from the CCDC's data processing and validation procedures.
#
#######################################################################

data_QIXWUR
_symmetry_cell_setting           triclinic
_symmetry_space_group_name_H-M   'P -1'
_symmetry_Int_Tables_number      2
_space_group_name_Hall           '-P 1'
loop_
_symmetry_equiv_pos_site_id
_symmetry_equiv_pos_as_xyz
1 x,y,z
2 -x,-y,-z
_cell_length_a                   8.4187(10)
_cell_length_b                   9.2340(10)
_cell_length_c                   13.6679(15)
_cell_angle_alpha                70.848(2)
_cell_angle_beta                 78.286(2)
_cell_angle_gamma                88.682(2)
_cell_volume                     981.713
loop_
_atom_site_label
_atom_site_type_symbol
_atom_site_fract_x
_atom_site_fract_y
_atom_site_fract_z
Zn1 Zn 0.37863(4) 0.61475(4) 0.33312(3)
O1 O 0.5377(3) 0.3594(2) 0.27612(17)
O2 O 0.9515(3) 1.1484(3) 0.1369(2)
O3 O 0.2943(3) 0.8871(2) 0.30292(18)
O4 O 0.2289(3) 0.6815(2) 0.44380(17)
O5 O 0.3867(3) 0.3984(2) 0.41781(16)
N1 N 0.6129(3) 0.6992(3) 0.29072(19)
N2 N 0.7335(3) 1.3784(3) -0.21239(19)
N3 N 0.8018(3) 1.0950(3) 0.0307(2)
H1 H 0.7504 1.0078 0.0352
C1 C 0.3809(4) 0.0872(3) 0.5357(2)
H2 H 0.2988 0.1469 0.5601
C2 C 0.8169(4) 1.2403(3) -0.0513(2)
C3 C 0.9230(4) 0.8263(4) 0.2568(2)
H3 H 1.0278 0.8713 0.2472
C4 C 0.4702(4) 0.3135(3) 0.3712(2)
C5 C 0.1041(3) 0.9142(3) 0.4498(2)
C6 C 0.9087(5) 1.3678(4) -0.0598(3)
H4 H 0.9711 1.3642 -0.0085
C7 C 0.2177(3) 0.8232(3) 0.3954(2)
C8 C 0.6046(3) 0.0626(3) 0.4027(2)
H5 H 0.6761 0.1053 0.3359
C9 C 0.8777(4) 0.6837(4) 0.3307(2)
H6 H 0.9520 0.6276 0.3711
C10 C 0.6586(3) 0.8368(3) 0.2174(2)
H7 H 0.5822 0.8907 0.1779
C11 C 0.8136(4) 0.9036(3) 0.1967(2)
C12 C 0.7226(4) 0.6229(3) 0.3452(2)
H8 H 0.6925 0.5238 0.3956
C13 C 0.0692(4) 1.0628(3) 0.3930(2)
H9 H 0.1162 1.1058 0.3197
C14 C 0.4853(3) 0.1511(3) 0.4384(2)
C15 C 0.8621(4) 1.0613(4) 0.1193(2)
C16 C 0.0340(4) 0.8522(3) 0.5566(2)
H10 H 0.0567 0.7508 0.5955
C17 C 0.8185(4) 1.5030(4) -0.2190(2)
H11 H 0.8170 1.5951 -0.2762
C18 C 0.9082(5) 1.5010(4) -0.1449(3)
H12 H 0.9694 1.5902 -0.1519
C19 C 0.7320(4) 1.2505(3) -0.1299(2)
H13 H 0.6700 1.1628 -0.1251
O1A O 0.4623(3) -0.3594(2) 0.72388(17)
O5A O 0.6133(3) -0.3984(2) 0.58219(16)
C1A C 0.6191(4) -0.0872(3) 0.4643(2)
H2A H 0.7012 -0.1469 0.4399
C4A C 0.5298(4) -0.3135(3) 0.6288(2)
C8A C 0.3954(3) -0.0626(3) 0.5973(2)
H5A H 0.3239 -0.1053 0.6641
C14A C 0.5147(3) -0.1511(3) 0.5616(2)
O3A O -0.2943(3) 1.1129(2) 0.69708(18)
O4A O -0.2289(3) 1.3185(2) 0.55620(17)
C5A C -0.1041(3) 1.0858(3) 0.5502(2)
C7A C -0.2177(3) 1.1768(3) 0.6046(2)
C13A C -0.0692(4) 0.9372(3) 0.6070(2)
H9A H -0.1162 0.8942 0.6803
C16A C -0.0340(4) 1.1478(3) 0.4434(2)
H10A H -0.0567 1.2492 0.4045
Zn1A Zn -0.37863(4) 1.38525(4) 0.66688(3)
O2A O -0.9515(3) 0.8516(3) 0.8631(2)
N1A N -0.6129(3) 1.3008(3) 0.70928(19)
N2A N -0.7335(3) 0.6216(3) 1.21239(19)
N3A N -0.8018(3) 0.9050(3) 0.9693(2)
H1A H -0.7504 0.9922 0.9648
C2A C -0.8169(4) 0.7597(3) 1.0513(2)
C3A C -0.9230(4) 1.1737(4) 0.7432(2)
H3A H -1.0278 1.1287 0.7528
C6A C -0.9087(5) 0.6322(4) 1.0598(3)
H4A H -0.9711 0.6358 1.0085
C9A C -0.8777(4) 1.3163(4) 0.6693(2)
H6A H -0.9520 1.3724 0.6289
C10A C -0.6586(3) 1.1632(3) 0.7826(2)
H7A H -0.5822 1.1093 0.8221
C11A C -0.8136(4) 1.0964(3) 0.8033(2)
C12A C -0.7226(4) 1.3771(3) 0.6548(2)
H8A H -0.6925 1.4762 0.6044
C15A C -0.8621(4) 0.9387(4) 0.8807(2)
C17A C -0.8185(4) 0.4970(4) 1.2190(2)
H11A H -0.8170 0.4049 1.2762
C18A C -0.9082(5) 0.4990(4) 1.1449(3)
H12A H -0.9694 0.4098 1.1519
C19A C -0.7320(4) 0.7495(3) 1.1299(2)
H13A H -0.6700 0.8372 1.1251
Zn1_2 Zn -0.62137(4) 0.61475(4) 1.33312(3)
Zn1A_2 Zn 0.62137(4) -0.61475(4) 0.66688(3)
Zn1A_3 Zn 0.62137(4) 1.38525(4) -0.33312(3)
O5A_2 O -0.3867(3) 1.6016(2) 0.58219(16)
N2_2 N -0.2665(3) 1.3784(3) 0.78761(19)
N2A_2 N 0.2665(3) 0.6216(3) 0.21239(19)
O6 O 0.3672(9) 0.1325(8) 0.0080(6)
O8 O 0.6472(10) 0.5579(7) 0.0692(5)
O10 O 0.4608(4) 0.1515(3) 0.1772(2)
H14 H 0.4174 0.0700 0.2276
H15 H 0.4895 0.2168 0.2013
O7? O 0.2942(8) 0.1675(8) 0.0249(6)
O9? O 0.5632(9) 0.5188(7) 0.0512(5)
loop_
_geom_bond_atom_site_label_1
_geom_bond_atom_site_label_2
_geom_bond_site_symmetry_1
_geom_bond_site_symmetry_2
Zn1 O3 1_555 1_555
O1 C4 1_555 1_555
O2 C15 1_555 1_555
O3 C7 1_555 1_555
O4 Zn1 1_555 1_555
O5 Zn1 1_555 1_555
N1 Zn1 1_555 1_555
N2 C17 1_555 1_555
N3 H1 1_555 1_555
C1 H2 1_555 1_555
C2 N3 1_555 1_555
C3 H3 1_555 1_555
C4 O5 1_555 1_555
C5 C7 1_555 1_555
C6 C2 1_555 1_555
H4 C6 1_555 1_555
C7 O4 1_555 1_555
C8 H5 1_555 1_555
C9 C3 1_555 1_555
H6 C9 1_555 1_555
C10 N1 1_555 1_555
H7 C10 1_555 1_555
C11 C3 1_555 1_555
C12 N1 1_555 1_555
H8 C12 1_555 1_555
C13 C5 1_555 1_555
H9 C13 1_555 1_555
C14 C1 1_555 1_555
C15 N3 1_555 1_555
C16 C5 1_555 1_555
H10 C16 1_555 1_555
C17 H11 1_555 1_555
C18 C6 1_555 1_555
H12 C18 1_555 1_555
C19 N2 1_555 1_555
H13 C19 1_555 1_555
O10 H14 1_555 1_555
H15 O10 1_555 1_555
O1A C4A 1_555 1_555
O5A C4A 1_555 1_555
C1A C8 1_555 1_555
H2A C1A 1_555 1_555
C4A C14A 1_555 1_555
C8A C1 1_555 1_555
H5A C8A 1_555 1_555
C14A C1A 1_555 1_555
O3A C7A 1_555 1_555
O4A C7A 1_555 1_555
C5A C7A 1_555 1_555
C13A C16 1_555 1_555
H9A C13A 1_555 1_555
C16A C13 1_555 1_555
H10A C16A 1_555 1_555
Zn1A O3A 1_555 1_555
O2A C15A 1_555 1_555
N1A Zn1A 1_555 1_555
N2A C17A 1_555 1_555
N3A H1A 1_555 1_555
C2A N3A 1_555 1_555
C3A H3A 1_555 1_555
C6A C2A 1_555 1_555
H4A C6A 1_555 1_555
C9A C3A 1_555 1_555
H6A C9A 1_555 1_555
C10A N1A 1_555 1_555
H7A C10A 1_555 1_555
C11A C3A 1_555 1_555
C12A N1A 1_555 1_555
H8A C12A 1_555 1_555
C15A N3A 1_555 1_555
C17A H11A 1_555 1_555
C18A C6A 1_555 1_555
H12A C18A 1_555 1_555
C19A N2A 1_555 1_555
H13A C19A 1_555 1_555
Zn1_2 N2A 1_555 1_555
Zn1A_2 O5A 1_555 1_555
Zn1A_3 N2 1_555 1_555
O5A_2 Zn1A 1_555 1_555
N2_2 Zn1A 1_555 1_555
N2A_2 Zn1 1_555 1_555
C2 C19 1_555 1_555
C4 C14 1_555 1_555
C8 C14 1_555 1_555
C9 C12 1_555 1_555
C10 C11 1_555 1_555
C11 C15 1_555 1_555
C17 C18 1_555 1_555
C8A C14A 1_555 1_555
O4A Zn1A 1_555 1_555
C5A C13A 1_555 1_555
C5A C16A 1_555 1_555
C2A C19A 1_555 1_555
C9A C12A 1_555 1_555
C10A C11A 1_555 1_555
C11A C15A 1_555 1_555
C17A C18A 1_555 1_555

#END
