
#######################################################################
#
#                 Cambridge Crystallographic Data Centre
#                                CCDC 
#
#######################################################################
#
# If this CIF has been generated from an entry in the Cambridge 
# Structural Database, then it will include bibliographic, chemical, 
# crystal, experimental, refinement or atomic coordinate data resulting 
# from the CCDC's data processing and validation procedures.
#
#######################################################################

data_QIXYAY
_symmetry_cell_setting           monoclinic
_symmetry_space_group_name_H-M   'C 2/c'
_symmetry_Int_Tables_number      15
_space_group_name_Hall           '-C 2yn'
loop_
_symmetry_equiv_pos_site_id
_symmetry_equiv_pos_as_xyz
1 x,y,z
2 1/2+x,1/2+y,z
3 -x,y,1/2-z
4 1/2-x,1/2+y,1/2-z
5 -x,-y,-z
6 1/2-x,1/2-y,-z
7 x,-y,1/2+z
8 1/2+x,1/2-y,1/2+z
_cell_length_a                   28.127(6)
_cell_length_b                   3.8140(8)
_cell_length_c                   19.595(4)
_cell_angle_alpha                90
_cell_angle_beta                 98.61(3)
_cell_angle_gamma                90
_cell_volume                     2078.39
loop_
_atom_site_label
_atom_site_type_symbol
_atom_site_fract_x
_atom_site_fract_y
_atom_site_fract_z
Cu1 Cu 0.21287(6) -0.3717(4) 0.94250(7)
Cu2 Cu 0.08754(8) -0.8940(5) 0.82415(10)
Cu3 Cu 0.00585(9) -0.3862(4) 0.82707(9)
Cl1 Cl 0.16572(11) -0.8745(7) 0.86390(14)
Cl2 Cl 0.02441(10) -0.8848(5) 0.89698(12)
Cl3 Cl 0.06828(11) -1.3773(6) 0.74250(12)
N1 N 0.1696(4) -0.330(2) 1.0112(4)
N2 N 0.2297(4) -0.090(2) 1.1004(4)
N3 N 0.1552(4) -0.117(2) 1.1220(4)
C1 C 0.1861(4) -0.177(2) 1.0754(5)
C2 C 0.1226(4) -0.406(3) 0.9985(5)
H1 H 0.1107 -0.5161 0.9571
C3 C 0.0900(5) -0.327(3) 1.0454(5)
H2 H 0.0574 -0.3765 1.0336
C4 C 0.1061(5) -0.184(3) 1.1051(5)
H3 H 0.0851 -0.1287 1.1359
C5 C 0.2256(5) 0.048(3) 1.1662(5)
H4 H 0.2464 -0.0831 1.2012
H5 H 0.2361 0.2901 1.1686
C6 C 0.1809(5) 0.029(3) 1.1786(5)
H6 H 0.1688 0.2613 1.1866
H7 H 0.1791 -0.1142 1.2190
Cu1_2 Cu 0.21287(6) -1.3717(4) 0.94250(7)
Cu1E Cu 0.28713(6) -0.1283(4) 1.05750(7)
Cu2_2 Cu 0.08754(8) -1.8940(5) 0.82415(10)
Cu3_2 Cu 0.00585(9) -1.3862(4) 0.82707(9)
Cu3B Cu -0.00585(9) -1.3862(4) 0.67293(9)
Cl1_2 Cl 0.16572(11) 0.1255(7) 0.86390(14)
Cl2_2 Cl 0.02441(10) 0.1152(5) 0.89698(12)
Cl3_2 Cl 0.06828(11) -0.3773(6) 0.74250(12)
Cl3B Cl -0.06828(11) -0.3773(6) 0.75750(12)
N2E N 0.2703(4) -0.410(2) 0.8996(4)
loop_
_geom_bond_atom_site_label_1
_geom_bond_atom_site_label_2
_geom_bond_site_symmetry_1
_geom_bond_site_symmetry_2
Cu1 Cl1 1_555 1_555
Cu2 Cl1 1_555 1_555
Cu3 Cl2 1_555 1_555
Cl1 Cu1_2 1_555 1_555
Cl2 Cu2 1_555 1_555
Cl3 Cu2 1_555 1_555
N1 Cu1 1_555 1_555
N2 C1 1_555 1_555
N3 C1 1_555 1_555
C1 N1 1_555 1_555
C2 N1 1_555 1_555
H1 C2 1_555 1_555
C3 C2 1_555 1_555
H2 C3 1_555 1_555
C4 N3 1_555 1_555
H3 C4 1_555 1_555
C5 N2 1_555 1_555
H4 C5 1_555 1_555
H5 C5 1_555 1_555
C6 N3 1_555 1_555
H6 C6 1_555 1_555
H7 C6 1_555 1_555
Cu1E N2 1_555 1_555
Cu2_2 Cl3 1_555 1_555
Cu3_2 Cl2 1_555 1_555
Cu3B Cl3 1_555 1_555
Cl1_2 Cu1 1_555 1_555
Cl2_2 Cu3 1_555 1_555
Cl3_2 Cu2 1_555 1_555
Cl3B Cu3 1_555 1_555
N2E Cu1 1_555 1_555
Cu3 Cl3_2 1_555 1_555
Cl3 Cu3_2 1_555 1_555
C3 C4 1_555 1_555
C5 C6 1_555 1_555

#END
