
#######################################################################
#
#                 Cambridge Crystallographic Data Centre
#                                CCDC 
#
#######################################################################
#
# If this CIF has been generated from an entry in the Cambridge 
# Structural Database, then it will include bibliographic, chemical, 
# crystal, experimental, refinement or atomic coordinate data resulting 
# from the CCDC's data processing and validation procedures.
#
#######################################################################

data_QIXZAZ
_symmetry_cell_setting           monoclinic
_symmetry_space_group_name_H-M   'C 2/c'
_symmetry_Int_Tables_number      15
_space_group_name_Hall           '-C 2yn'
loop_
_symmetry_equiv_pos_site_id
_symmetry_equiv_pos_as_xyz
1 x,y,z
2 1/2+x,1/2+y,z
3 -x,y,1/2-z
4 1/2-x,1/2+y,1/2-z
5 -x,-y,-z
6 1/2-x,1/2-y,-z
7 x,-y,1/2+z
8 1/2+x,1/2-y,1/2+z
_cell_length_a                   32.855(5)
_cell_length_b                   8.3309(14)
_cell_length_c                   18.313(3)
_cell_angle_alpha                90
_cell_angle_beta                 118.628(3)
_cell_angle_gamma                90
_cell_volume                     4399.7
loop_
_atom_site_label
_atom_site_type_symbol
_atom_site_fract_x
_atom_site_fract_y
_atom_site_fract_z
C1 C 0.0351(3) 1.0384(10) 0.3741(5)
H1 H 0.0288 1.0711 0.4180
H2 H 0.0170 0.9450 0.3471
H3 H 0.0270 1.1239 0.3343
O1 O 0.11614(17) 1.0563(7) 0.4788(3)
C2 C 0.0887(3) 0.9977(9) 0.4118(5)
C17 C 0.0990(2) 0.8902(7) 0.3581(4)
H17 H 0.1282 0.9201 0.3618
H18 H 0.0749 0.9000 0.3014
H19 H 0.1006 0.7812 0.3761
Zn1 Zn 0.2500 0.7500 0.0000
N1 N 0.36339(11) 0.6768(4) 0.24747(18)
N2 N 0.31238(10) 0.7425(4) 0.12129(18)
N3 N 0.40117(11) 0.9019(4) 0.49117(19)
C3 C 0.38258(12) 0.8110(5) 0.4246(2)
N4 N 0.45534(11) 0.7035(4) 0.4461(2)
C4 C 0.32046(13) 0.6578(5) 0.1886(2)
H4 H 0.2986 0.5939 0.1932
C5 C 0.38857(14) 0.5961(5) 0.3288(2)
H5 H 0.4130 0.5306 0.3289
H6 H 0.3673 0.5250 0.3359
C6 C 0.40972(13) 0.7098(5) 0.4017(2)
C7 C 0.47557(14) 0.7997(6) 0.5157(2)
N5 N 0.38649(13) 0.7754(5) 0.2210(2)
C8 C 0.44836(14) 0.8971(5) 0.5378(2)
C9 C 0.35420(15) 0.8116(6) 0.1452(3)
H7 H 0.3597 0.8796 0.1105
C10 C 0.52420(16) 0.7991(7) 0.5667(3)
H8 H 0.5427 0.7358 0.5526
C11 C 0.47015(17) 0.9910(7) 0.6112(3)
H9 H 0.4523 1.0552 0.6266
C12 C 0.54381(17) 0.8913(8) 0.6363(3)
H10 H 0.5758 0.8904 0.6697
C13 C 0.51680(19) 0.9876(8) 0.6589(3)
H11 H 0.5310 1.0496 0.7069
O2 O 0.21742(14) 0.9020(4) 0.0544(2)
H12 H 0.2374 0.9404 0.0982
N6 N 0.30834(10) 0.8846(4) 0.41713(19)
C14 C 0.33007(13) 0.8138(5) 0.3724(2)
H13 H 0.3215 0.8747 0.3220
H14 H 0.3188 0.7050 0.3564
N7 N 0.30149(14) 0.7956(4) 0.4725(2)
C15 C 0.29559(13) 1.0350(5) 0.4180(2)
H15 H 0.2981 1.1180 0.3865
N8 N 0.27862(11) 1.0500(4) 0.47049(18)
C16 C 0.28359(17) 0.9002(5) 0.5020(3)
H16 H 0.2749 0.8736 0.5419
H20 H 0.1951(19) 0.923(7) 0.038(4)
Zn1F Zn 0.2500 1.2500 0.5000
Zn1F_2 Zn 0.2500 0.2500 -0.5000
N1E N 0.13661(11) 0.8232(4) -0.24747(18)
N2E N 0.18762(10) 0.7575(4) -0.12129(18)
N3E N 0.09883(11) 0.5981(4) -0.49117(19)
C3E C 0.11742(12) 0.6890(5) -0.4246(2)
N4E N 0.04466(11) 0.7965(4) -0.4461(2)
C4E C 0.17954(13) 0.8422(5) -0.1886(2)
H4E H 0.2014 0.9061 -0.1932
C5E C 0.11143(14) 0.9039(5) -0.3288(2)
H5E H 0.0870 0.9694 -0.3289
H6E H 0.1327 0.9750 -0.3359
C6E C 0.09028(13) 0.7902(5) -0.4017(2)
C7E C 0.02443(14) 0.7003(6) -0.5157(2)
N5E N 0.11351(13) 0.7246(5) -0.2210(2)
C8E C 0.05164(14) 0.6029(5) -0.5378(2)
C9E C 0.14580(15) 0.6884(6) -0.1452(3)
H7E H 0.1403 0.6204 -0.1105
C10E C -0.02420(16) 0.7009(7) -0.5667(3)
H8E H -0.0427 0.7642 -0.5526
C11E C 0.02985(17) 0.5090(7) -0.6112(3)
H9E H 0.0477 0.4448 -0.6266
C12E C -0.04381(17) 0.6087(8) -0.6363(3)
H10E H -0.0758 0.6096 -0.6697
C13E C -0.01680(19) 0.5124(8) -0.6589(3)
H11E H -0.0310 0.4504 -0.7069
O2E O 0.28258(14) 0.5980(4) -0.0544(2)
H12E H 0.2626 0.5596 -0.0982
N6E N 0.19166(10) 0.6154(4) -0.41713(19)
C14E C 0.16993(13) 0.6862(5) -0.3724(2)
H13E H 0.1785 0.6253 -0.3220
H14E H 0.1812 0.7950 -0.3564
N7E N 0.19851(14) 0.7044(4) -0.4725(2)
C15E C 0.20441(13) 0.4650(5) -0.4180(2)
H15E H 0.2019 0.3820 -0.3865
N8E N 0.22138(11) 0.4500(4) -0.47049(18)
N8F N 0.27862(11) 0.9500(4) -0.02951(18)
N8C N 0.22138(11) 0.5500(4) 0.02951(18)
C16E C 0.21641(17) 0.5998(5) -0.5020(3)
H16E H 0.2251 0.6264 -0.5419
H20E H 0.3049(19) 0.577(7) -0.038(4)
Cl1 Cl 0.19368(4) 0.71276(14) 0.26138(7)
O3 O 0.1857(2) 0.7852(6) 0.3210(3)
O4 O 0.15367(14) 0.6763(6) 0.1862(3)
O5 O 0.21618(18) 0.8335(7) 0.2377(3)
O6 O 0.22461(19) 0.5849(6) 0.2909(3)
loop_
_geom_bond_atom_site_label_1
_geom_bond_atom_site_label_2
_geom_bond_site_symmetry_1
_geom_bond_site_symmetry_2
C1 H1 1_555 1_555
H2 C1 1_555 1_555
H3 C1 1_555 1_555
O1 C2 1_555 1_555
C2 C1 1_555 1_555
Zn1 N2 1_555 1_555
N1 C4 1_555 1_555
N2 C4 1_555 1_555
N3 C3 1_555 1_555
C3 C6 1_555 1_555
N4 C6 1_555 1_555
C4 H4 1_555 1_555
C5 N1 1_555 1_555
H5 C5 1_555 1_555
H6 C5 1_555 1_555
C6 C5 1_555 1_555
C7 N4 1_555 1_555
N5 N1 1_555 1_555
C8 N3 1_555 1_555
C9 N2 1_555 1_555
H7 C9 1_555 1_555
C10 C7 1_555 1_555
H8 C10 1_555 1_555
C11 C8 1_555 1_555
H9 C11 1_555 1_555
C12 C10 1_555 1_555
H10 C12 1_555 1_555
C13 C11 1_555 1_555
H11 C13 1_555 1_555
O2 Zn1 1_555 1_555
H12 O2 1_555 1_555
N6 C14 1_555 1_555
C14 C3 1_555 1_555
H13 C14 1_555 1_555
H14 C14 1_555 1_555
N7 N6 1_555 1_555
C15 N6 1_555 1_555
H15 C15 1_555 1_555
N8 C15 1_555 1_555
C16 N7 1_555 1_555
H16 C16 1_555 1_555
Cl1 O3 1_555 1_555
O4 Cl1 1_555 1_555
O5 Cl1 1_555 1_555
O6 Cl1 1_555 1_555
C17 C2 1_555 1_555
H17 C17 1_555 1_555
H18 C17 1_555 1_555
H19 C17 1_555 1_555
H20 O2 1_555 1_555
Zn1F N8 1_555 1_555
Zn1F_2 N8E 1_555 1_555
N1E C4E 1_555 1_555
N2E Zn1 1_555 1_555
N3E C3E 1_555 1_555
C3E C6E 1_555 1_555
N4E C6E 1_555 1_555
C4E N2E 1_555 1_555
H4E C4E 1_555 1_555
C5E N1E 1_555 1_555
H5E C5E 1_555 1_555
H6E C5E 1_555 1_555
C6E C5E 1_555 1_555
C7E N4E 1_555 1_555
N5E N1E 1_555 1_555
C8E N3E 1_555 1_555
C9E N2E 1_555 1_555
H7E C9E 1_555 1_555
C10E C7E 1_555 1_555
H8E C10E 1_555 1_555
C11E C8E 1_555 1_555
H9E C11E 1_555 1_555
C12E C10E 1_555 1_555
H10E C12E 1_555 1_555
C13E C11E 1_555 1_555
H11E C13E 1_555 1_555
O2E Zn1 1_555 1_555
H12E O2E 1_555 1_555
N6E C14E 1_555 1_555
C14E C3E 1_555 1_555
H13E C14E 1_555 1_555
H14E C14E 1_555 1_555
N7E N6E 1_555 1_555
C15E N6E 1_555 1_555
H15E C15E 1_555 1_555
N8E C15E 1_555 1_555
N8F Zn1 1_555 1_555
N8C Zn1 1_555 1_555
C16E N7E 1_555 1_555
H16E C16E 1_555 1_555
H20E O2E 1_555 1_555
C7 C8 1_555 1_555
N5 C9 1_555 1_555
C12 C13 1_555 1_555
N8 C16 1_555 1_555
C7E C8E 1_555 1_555
N5E C9E 1_555 1_555
C12E C13E 1_555 1_555
N8E C16E 1_555 1_555

#END
