
#######################################################################
#
#                 Cambridge Crystallographic Data Centre
#                                CCDC 
#
#######################################################################
#
# If this CIF has been generated from an entry in the Cambridge 
# Structural Database, then it will include bibliographic, chemical, 
# crystal, experimental, refinement or atomic coordinate data resulting 
# from the CCDC's data processing and validation procedures.
#
#######################################################################

data_QIXZIH
_symmetry_cell_setting           monoclinic
_symmetry_space_group_name_H-M   'C 2/c'
_symmetry_Int_Tables_number      15
_space_group_name_Hall           '-C 2yn'
loop_
_symmetry_equiv_pos_site_id
_symmetry_equiv_pos_as_xyz
1 x,y,z
2 1/2+x,1/2+y,z
3 -x,y,1/2-z
4 1/2-x,1/2+y,1/2-z
5 -x,-y,-z
6 1/2-x,1/2-y,-z
7 x,-y,1/2+z
8 1/2+x,1/2-y,1/2+z
_cell_length_a                   33.199(7)
_cell_length_b                   8.4704(17)
_cell_length_c                   18.515(4)
_cell_angle_alpha                90
_cell_angle_beta                 118.096(3)
_cell_angle_gamma                90
_cell_volume                     4593.04
loop_
_atom_site_label
_atom_site_type_symbol
_atom_site_fract_x
_atom_site_fract_y
_atom_site_fract_z
N1 N 0.21968(15) 0.0357(5) 0.5306(2)
C1 C 0.2124(2) -0.1105(8) 0.4967(4)
H1 H 0.2193 -0.1357 0.4549
Cd1 Cd 0.2500 0.2500 0.5000
N2 N 0.19018(13) -0.1260(5) 0.5830(2)
N3 N 0.13428(14) -0.3232(5) 0.7502(2)
N4 N 0.09833(14) -0.1047(5) 0.5106(2)
C2 C 0.08871(17) -0.2964(6) 0.5986(3)
C3 C 0.11633(16) -0.1965(6) 0.5765(3)
N5 N 0.04349(15) -0.3007(6) 0.5539(3)
C4 C 0.16802(17) -0.1947(7) 0.6283(3)
H2 H 0.1789 -0.3018 0.6445
H3 H 0.1762 -0.1336 0.6776
C5 C 0.1092(2) -0.4068(7) 0.6712(3)
H4 H 0.1299 -0.4789 0.6645
H5 H 0.0850 -0.4691 0.6724
N6 N 0.18486(15) -0.2565(5) 0.8740(3)
C6 C 0.02447(18) -0.2031(8) 0.4858(3)
C7 C 0.17593(18) -0.3493(7) 0.8106(3)
H6 H 0.1962 -0.4229 0.8088
C8 C 0.05161(18) -0.1074(7) 0.4646(3)
C9 C 0.20389(17) 0.0196(7) 0.5838(3)
H7 H 0.2027 0.0998 0.6170
N7 N 0.11335(18) -0.2112(7) 0.7728(3)
O1 O 0.28332(16) 0.0924(6) 0.4392(3)
C10 C -0.0241(2) -0.2048(10) 0.4346(4)
H8 H -0.0425 -0.2701 0.4471
C11 C 0.1456(2) -0.1741(9) 0.8475(4)
H9 H 0.1414 -0.0970 0.8791
C12 C 0.0315(2) -0.0096(9) 0.3941(4)
H10 H 0.0492 0.0558 0.3801
C13 C -0.0431(2) -0.1090(11) 0.3671(4)
H11 H -0.0746 -0.1073 0.3347
C14 C -0.0165(3) -0.0156(11) 0.3462(4)
H12 H -0.0304 0.0456 0.2991
N8 N 0.1952(2) -0.2126(6) 0.5267(3)
N1E N 0.28032(15) 0.4643(5) 0.4694(2)
C1E C 0.2876(2) 0.6105(8) 0.5033(4)
H1E H 0.2807 0.6357 0.5451
Cd1F Cd 0.2500 -0.2500 1.0000
Cd1F_2 Cd 0.2500 0.7500 0.0000
N2E N 0.30982(13) 0.6260(5) 0.4170(2)
N3E N 0.36572(14) 0.8232(5) 0.2498(2)
N4E N 0.40167(14) 0.6047(5) 0.4894(2)
C2E C 0.41129(17) 0.7964(6) 0.4014(3)
C3E C 0.38367(16) 0.6965(6) 0.4235(3)
N5E N 0.45651(15) 0.8007(6) 0.4461(3)
C4E C 0.33198(17) 0.6947(7) 0.3717(3)
H2E H 0.3211 0.8018 0.3555
H3E H 0.3238 0.6336 0.3224
C5E C 0.3908(2) 0.9068(7) 0.3288(3)
H4E H 0.3701 0.9789 0.3355
H5E H 0.4150 0.9691 0.3276
N6E N 0.31514(15) 0.7565(5) 0.1260(3)
N6F N 0.18486(15) 0.2565(5) 0.3740(3)
N6C N 0.31514(15) 0.2435(5) 0.6260(3)
C6E C 0.47553(18) 0.7031(8) 0.5142(3)
C7E C 0.32407(18) 0.8493(7) 0.1894(3)
H6E H 0.3038 0.9229 0.1912
C8E C 0.44839(18) 0.6074(7) 0.5354(3)
C9E C 0.29611(17) 0.4804(7) 0.4162(3)
H7E H 0.2973 0.4002 0.3830
N7E N 0.38665(18) 0.7112(7) 0.2272(3)
O1E O 0.21668(16) 0.4076(6) 0.5608(3)
C10E C 0.5241(2) 0.7048(10) 0.5654(4)
H8E H 0.5425 0.7701 0.5529
C11E C 0.3544(2) 0.6741(9) 0.1525(4)
H9E H 0.3586 0.5970 0.1209
C12E C 0.4685(2) 0.5096(9) 0.6059(4)
H10E H 0.4508 0.4442 0.6199
C13E C 0.5431(2) 0.6090(11) 0.6329(4)
H11E H 0.5746 0.6073 0.6653
C14E C 0.5165(3) 0.5156(11) 0.6538(4)
H12E H 0.5304 0.4544 0.7009
N8E N 0.3048(2) 0.7126(6) 0.4733(3)
Cl1 Cl 0.19416(6) 0.78622(18) 0.26048(9)
O2 O 0.15450(19) 0.8186(9) 0.1870(4)
O3 O 0.1861(4) 0.7211(8) 0.3214(5)
O4 O 0.2241(3) 0.9139(9) 0.2867(4)
O5 O 0.2152(3) 0.6637(11) 0.2389(5)
O6 O 0.0920(4) 0.6229(12) 0.3411(7)
O7 O 0.1076(6) 0.4396(18) 0.4657(11)
O8 O 0.0240(8) 0.457(2) 0.3591(14)
loop_
_geom_bond_atom_site_label_1
_geom_bond_atom_site_label_2
_geom_bond_site_symmetry_1
_geom_bond_site_symmetry_2
N1 C1 1_555 1_555
C1 H1 1_555 1_555
Cd1 N1 1_555 1_555
Cl1 O2 1_555 1_555
N2 C4 1_555 1_555
N3 C5 1_555 1_555
N4 C3 1_555 1_555
C2 C3 1_555 1_555
C3 C4 1_555 1_555
N5 C2 1_555 1_555
C4 H2 1_555 1_555
H3 C4 1_555 1_555
C5 C2 1_555 1_555
H4 C5 1_555 1_555
H5 C5 1_555 1_555
N6 C7 1_555 1_555
C6 N5 1_555 1_555
C7 N3 1_555 1_555
H6 C7 1_555 1_555
C8 N4 1_555 1_555
C9 N1 1_555 1_555
H7 C9 1_555 1_555
N7 N3 1_555 1_555
O1 Cd1 1_555 1_555
C10 C6 1_555 1_555
H8 C10 1_555 1_555
C11 N6 1_555 1_555
H9 C11 1_555 1_555
C12 C8 1_555 1_555
H10 C12 1_555 1_555
C13 C10 1_555 1_555
H11 C13 1_555 1_555
C14 C12 1_555 1_555
H12 C14 1_555 1_555
N8 C1 1_555 1_555
O3 Cl1 1_555 1_555
O4 Cl1 1_555 1_555
O5 Cl1 1_555 1_555
N1E Cd1 1_555 1_555
C1E N1E 1_555 1_555
H1E C1E 1_555 1_555
Cd1F N6 1_555 1_555
Cd1F_2 N6E 1_555 1_555
N2E C4E 1_555 1_555
N3E C5E 1_555 1_555
N4E C3E 1_555 1_555
C2E C3E 1_555 1_555
C3E C4E 1_555 1_555
N5E C2E 1_555 1_555
C4E H2E 1_555 1_555
H3E C4E 1_555 1_555
C5E C2E 1_555 1_555
H4E C5E 1_555 1_555
H5E C5E 1_555 1_555
N6E C7E 1_555 1_555
N6F Cd1 1_555 1_555
N6C Cd1 1_555 1_555
C6E N5E 1_555 1_555
C7E N3E 1_555 1_555
H6E C7E 1_555 1_555
C8E N4E 1_555 1_555
C9E N1E 1_555 1_555
H7E C9E 1_555 1_555
N7E N3E 1_555 1_555
O1E Cd1 1_555 1_555
C10E C6E 1_555 1_555
H8E C10E 1_555 1_555
C11E N6E 1_555 1_555
H9E C11E 1_555 1_555
C12E C8E 1_555 1_555
H10E C12E 1_555 1_555
C13E C10E 1_555 1_555
H11E C13E 1_555 1_555
C14E C12E 1_555 1_555
H12E C14E 1_555 1_555
N8E C1E 1_555 1_555
N2 C9 1_555 1_555
N2 N8 1_555 1_555
C6 C8 1_555 1_555
N7 C11 1_555 1_555
C13 C14 1_555 1_555
N2E C9E 1_555 1_555
N2E N8E 1_555 1_555
C6E C8E 1_555 1_555
N7E C11E 1_555 1_555
C13E C14E 1_555 1_555

#END
