
#######################################################################
#
#                 Cambridge Crystallographic Data Centre
#                                CCDC 
#
#######################################################################
#
# If this CIF has been generated from an entry in the Cambridge 
# Structural Database, then it will include bibliographic, chemical, 
# crystal, experimental, refinement or atomic coordinate data resulting 
# from the CCDC's data processing and validation procedures.
#
#######################################################################

data_QIXZED
_symmetry_cell_setting           monoclinic
_symmetry_space_group_name_H-M   'C 2/c'
_symmetry_Int_Tables_number      15
_space_group_name_Hall           '-C 2yn'
loop_
_symmetry_equiv_pos_site_id
_symmetry_equiv_pos_as_xyz
1 x,y,z
2 1/2+x,1/2+y,z
3 -x,y,1/2-z
4 1/2-x,1/2+y,1/2-z
5 -x,-y,-z
6 1/2-x,1/2-y,-z
7 x,-y,1/2+z
8 1/2+x,1/2-y,1/2+z
_cell_length_a                   33.190(7)
_cell_length_b                   8.3257(17)
_cell_length_c                   18.598(4)
_cell_angle_alpha                90
_cell_angle_beta                 118.91(3)
_cell_angle_gamma                90
_cell_volume                     4498.74
loop_
_atom_site_label
_atom_site_type_symbol
_atom_site_fract_x
_atom_site_fract_y
_atom_site_fract_z
C1 C 0.0976(3) 0.8924(8) 0.8556(4)
H1 H 0.1224 0.9358 0.8491
H2 H 0.0705 0.8847 0.8029
H3 H 0.1059 0.7875 0.8799
O1 O 0.11463(19) 1.0656(8) 0.9757(4)
C16 C 0.0882(4) 1.0002(11) 0.9102(6)
C17 C 0.0330(4) 1.0410(12) 0.8726(6)
H16 H 0.0276 1.0793 0.9158
H17 H 0.0153 0.9454 0.8492
H18 H 0.0241 1.1220 0.8309
N1 N 0.18995(11) 0.6257(4) 0.0833(2)
C2 C 0.16855(14) 0.6965(6) 0.1280(3)
H4 H 0.1795 0.8057 0.1435
H5 H 0.1773 0.6357 0.1779
Mn1 Mn 0.2500 0.7500 0.5000
N2 N 0.13475(12) 0.8264(4) 0.25054(19)
C3 C 0.11639(14) 0.6976(5) 0.0762(2)
N3 N 0.04370(12) 0.8001(5) 0.0540(2)
C4 C 0.08890(14) 0.7958(5) 0.0982(2)
C5 C 0.10978(15) 0.9088(5) 0.1711(2)
H6 H 0.1308 0.9812 0.1648
H7 H 0.0854 0.9732 0.1711
N4 N 0.09825(11) 0.6060(4) 0.0101(2)
N5 N 0.18565(12) 0.7576(4) 0.3749(2)
C6 C 0.17751(14) 0.8465(6) 0.3100(2)
H8 H 0.1990 0.9138 0.3068
C7 C 0.02391(15) 0.7037(6) -0.0150(3)
N6 N 0.11219(14) 0.7229(6) 0.2752(3)
C8 C 0.05130(14) 0.6078(6) -0.0362(3)
C9 C -0.02461(17) 0.7030(8) -0.0655(3)
H9 H -0.0432 0.7643 -0.0515
C10 C 0.03015(18) 0.5135(8) -0.1090(3)
H10 H 0.0479 0.4501 -0.1240
C11 C 0.14445(16) 0.6850(7) 0.3499(3)
H11 H 0.1393 0.6136 0.3830
C12 C -0.04364(17) 0.6107(9) -0.1350(3)
H12 H -0.0754 0.6107 -0.1685
C13 C -0.0167(2) 0.5172(9) -0.1566(3)
H13 H -0.0306 0.4558 -0.2042
N7 N 0.21894(12) 0.4601(4) 0.0300(2)
N8 N 0.19582(16) 0.7161(5) 0.0279(3)
C14 C 0.21350(17) 0.6094(6) -0.0019(3)
H14 H 0.2216 0.6354 -0.0418
C15 C 0.20310(14) 0.4753(5) 0.0828(2)
H15 H 0.2014 0.3925 0.1148
O2 O 0.28230(12) 0.5915(4) 0.4450(2)
N1E N 0.31005(11) 0.8743(4) 0.9167(2)
C2E C 0.33145(14) 0.8035(6) 0.8720(3)
H4E H 0.3205 0.6943 0.8565
H5E H 0.3227 0.8643 0.8221
Mn1F Mn 0.2500 0.2500 0.0000
Mn1F_2 Mn 0.2500 1.2500 1.0000
N2E N 0.36525(12) 0.6736(4) 0.74946(19)
C3E C 0.38361(14) 0.8024(5) 0.9238(2)
N3E N 0.45630(12) 0.6999(5) 0.9460(2)
C4E C 0.41110(14) 0.7042(5) 0.9018(2)
C5E C 0.39022(15) 0.5912(5) 0.8289(2)
H6E H 0.3692 0.5188 0.8352
H7E H 0.4146 0.5268 0.8289
N4E N 0.40175(11) 0.8940(4) 0.9899(2)
N5E N 0.31435(12) 0.7424(4) 0.6251(2)
C6E C 0.32249(14) 0.6535(6) 0.6900(2)
H8E H 0.3010 0.5862 0.6932
C7E C 0.47609(15) 0.7963(6) 1.0150(3)
N6E N 0.38781(14) 0.7771(6) 0.7248(3)
C8E C 0.44870(14) 0.8922(6) 1.0362(3)
C9E C 0.52461(17) 0.7970(8) 1.0655(3)
H9E H 0.5432 0.7357 1.0515
C10E C 0.46985(18) 0.9865(8) 1.1090(3)
H10E H 0.4521 1.0499 1.1240
C11E C 0.35555(16) 0.8150(7) 0.6501(3)
H11E H 0.3607 0.8864 0.6170
C12E C 0.54364(17) 0.8893(9) 1.1350(3)
H12E H 0.5754 0.8893 1.1685
C13E C 0.5167(2) 0.9828(9) 1.1566(3)
H13E H 0.5306 1.0442 1.2042
N7E N 0.28106(12) 1.0399(4) 0.9700(2)
N7F N 0.21894(12) 0.5399(4) 0.5300(2)
N7C N 0.28106(12) 0.9601(4) 0.4700(2)
N8E N 0.30418(16) 0.7839(5) 0.9721(3)
C14E C 0.28650(17) 0.8906(6) 1.0019(3)
H14E H 0.2784 0.8646 1.0418
C15E C 0.29690(14) 1.0247(5) 0.9172(2)
H15E H 0.2986 1.1075 0.8852
O2E O 0.21770(12) 0.9085(4) 0.5550(2)
Cl1 Cl 0.19403(4) 0.29188(16) 0.26173(7)
O3 O 0.2253(2) 0.4183(7) 0.2898(3)
O4 O 0.2149(2) 0.1692(9) 0.2376(4)
O5 O 0.15427(16) 0.3286(8) 0.1876(3)
O6 O 0.1874(3) 0.2195(7) 0.3219(4)
loop_
_geom_bond_atom_site_label_1
_geom_bond_atom_site_label_2
_geom_bond_site_symmetry_1
_geom_bond_site_symmetry_2
C1 H1 1_555 1_555
H2 C1 1_555 1_555
H3 C1 1_555 1_555
O1 C16 1_555 1_555
N1 C2 1_555 1_555
C2 H4 1_555 1_555
H5 C2 1_555 1_555
Mn1 N5 1_555 1_555
N2 C5 1_555 1_555
C3 C2 1_555 1_555
N3 C4 1_555 1_555
C4 C3 1_555 1_555
C5 C4 1_555 1_555
H6 C5 1_555 1_555
H7 C5 1_555 1_555
N4 C3 1_555 1_555
N5 C6 1_555 1_555
C6 N2 1_555 1_555
H8 C6 1_555 1_555
C7 N3 1_555 1_555
N6 N2 1_555 1_555
C8 N4 1_555 1_555
C9 C7 1_555 1_555
H9 C9 1_555 1_555
C10 C8 1_555 1_555
H10 C10 1_555 1_555
C11 N5 1_555 1_555
H11 C11 1_555 1_555
C12 C9 1_555 1_555
H12 C12 1_555 1_555
C13 C10 1_555 1_555
H13 C13 1_555 1_555
N7 C14 1_555 1_555
N8 N1 1_555 1_555
C14 N8 1_555 1_555
H14 C14 1_555 1_555
C15 N1 1_555 1_555
H15 C15 1_555 1_555
O2 Mn1 1_555 1_555
C16 C1 1_555 1_555
C17 C16 1_555 1_555
H16 C17 1_555 1_555
H17 C17 1_555 1_555
H18 C17 1_555 1_555
Cl1 O3 1_555 1_555
O4 Cl1 1_555 1_555
O5 Cl1 1_555 1_555
O6 Cl1 1_555 1_555
N1E C2E 1_555 1_555
C2E H4E 1_555 1_555
H5E C2E 1_555 1_555
Mn1F N7 1_555 1_555
Mn1F_2 N7E 1_555 1_555
N2E C5E 1_555 1_555
C3E C2E 1_555 1_555
N3E C4E 1_555 1_555
C4E C3E 1_555 1_555
C5E C4E 1_555 1_555
H6E C5E 1_555 1_555
H7E C5E 1_555 1_555
N4E C3E 1_555 1_555
N5E Mn1 1_555 1_555
C6E N2E 1_555 1_555
H8E C6E 1_555 1_555
C7E N3E 1_555 1_555
N6E N2E 1_555 1_555
C8E N4E 1_555 1_555
C9E C7E 1_555 1_555
H9E C9E 1_555 1_555
C10E C8E 1_555 1_555
H10E C10E 1_555 1_555
C11E N5E 1_555 1_555
H11E C11E 1_555 1_555
C12E C9E 1_555 1_555
H12E C12E 1_555 1_555
C13E C10E 1_555 1_555
H13E C13E 1_555 1_555
N7E C14E 1_555 1_555
N7F Mn1 1_555 1_555
N7C Mn1 1_555 1_555
N8E N1E 1_555 1_555
C14E N8E 1_555 1_555
H14E C14E 1_555 1_555
C15E N1E 1_555 1_555
H15E C15E 1_555 1_555
O2E Mn1 1_555 1_555
C7 C8 1_555 1_555
N6 C11 1_555 1_555
C12 C13 1_555 1_555
N7 C15 1_555 1_555
N5E C6E 1_555 1_555
C7E C8E 1_555 1_555
N6E C11E 1_555 1_555
C12E C13E 1_555 1_555
N7E C15E 1_555 1_555

#END
