
#######################################################################
#
#                 Cambridge Crystallographic Data Centre
#                                CCDC 
#
#######################################################################
#
# If this CIF has been generated from an entry in the Cambridge 
# Structural Database, then it will include bibliographic, chemical, 
# crystal, experimental, refinement or atomic coordinate data resulting 
# from the CCDC's data processing and validation procedures.
#
#######################################################################

data_QIYGOW
_symmetry_cell_setting           monoclinic
_symmetry_space_group_name_H-M   'P 21/c'
_symmetry_Int_Tables_number      14
_space_group_name_Hall           '-P 2ybc'
loop_
_symmetry_equiv_pos_site_id
_symmetry_equiv_pos_as_xyz
1 x,y,z
2 -x,1/2+y,1/2-z
3 -x,-y,-z
4 x,1/2-y,1/2+z
_cell_length_a                   6.776(2)
_cell_length_b                   19.777(4)
_cell_length_c                   10.694(3)
_cell_angle_alpha                90
_cell_angle_beta                 107.235(14)
_cell_angle_gamma                90
_cell_volume                     1368.74
loop_
_atom_site_label
_atom_site_type_symbol
_atom_site_fract_x
_atom_site_fract_y
_atom_site_fract_z
Ag1 Ag 0.99114(3) 0.044212(10) 0.661108(17)
Ag2 Ag 0.55704(3) 0.007888(10) 0.345007(16)
O1 O 0.6209(2) 0.06490(8) 0.53107(15)
O2 O 0.2337(2) 0.09931(8) 0.58648(15)
O3 O 0.0086(2) 0.07887(8) 0.38931(16)
O4 O 0.7655(3) 0.15776(10) 0.63512(17)
N1 N 0.5142(3) 0.00430(10) 0.13193(17)
N2 N 0.9990(3) 0.02031(10) 0.87507(18)
C1 C 0.6317(3) 0.12934(12) 0.5465(2)
C2 C 0.1622(3) 0.10843(11) 0.4643(2)
C3 C 0.5593(4) 0.12612(12) 0.1345(2)
H1 H 0.4424 0.1355 0.1651
H2 H 0.5738 0.1615 0.0764
H3 H 0.6820 0.1238 0.2078
C4 C 0.4880(3) -0.05489(11) 0.0687(2)
H4 H 0.4799 -0.0940 0.1150
C5 C 0.5276(3) 0.06032(11) 0.0634(2)
C6 C 0.4812(3) 0.17278(11) 0.4469(2)
C7 C 0.4403(4) 0.26473(12) 0.2913(2)
H5 H 0.4990 0.2983 0.2528
C8 C 0.5648(4) 0.22481(12) 0.3900(2)
H6 H 0.7064 0.2328 0.4189
C9 C 0.9850(3) -0.04466(12) 0.9052(2)
H7 H 0.9740 -0.0770 0.8403
C10 C 0.1439(4) 0.20344(12) 0.3069(2)
H8 H 0.0016 0.1968 0.2793
C11 C 0.2291(4) 0.25459(12) 0.2500(2)
H9 H 0.1447 0.2817 0.1848
C12 C 1.0138(3) 0.06630(12) 0.9707(2)
C13 C 1.0263(4) 0.13936(12) 0.9391(2)
H10 H 1.1511 0.1475 0.9164
H11 H 1.0267 0.1662 1.0139
H12 H 0.9093 0.1513 0.8666
C14 C 0.2673(3) 0.16187(11) 0.4047(2)
N1B N 0.4858(3) -0.00430(10) -0.13193(17)
C3B C 0.4407(4) -0.12612(12) -0.1345(2)
H1B H 0.5576 -0.1355 -0.1651
H2B H 0.4262 -0.1615 -0.0764
H3B H 0.3180 -0.1238 -0.2078
C4B C 0.5120(3) 0.05489(11) -0.0687(2)
H4B H 0.5201 0.0940 -0.1150
C5B C 0.4724(3) -0.06032(11) -0.0634(2)
N2B N 1.0010(3) -0.02031(10) 1.12493(18)
C9B C 1.0150(3) 0.04466(12) 1.0948(2)
H7B H 1.0260 0.0770 1.1597
C12B C 0.9862(3) -0.06630(12) 1.0293(2)
C13B C 0.9737(4) -0.13936(12) 1.0609(2)
H10B H 0.8489 -0.1475 1.0836
H11B H 0.9733 -0.1662 0.9861
H12B H 1.0907 -0.1513 1.1334
Ag1B Ag 0.00886(3) -0.044212(10) -0.661108(17)
Ag2B Ag 0.44296(3) -0.007888(10) -0.345007(16)
O1B O 0.3791(2) -0.06490(8) -0.53107(15)
O2B O 0.7663(2) -0.09931(8) -0.58648(15)
O3B O 0.9914(2) -0.07887(8) -0.38931(16)
O4B O 0.2345(3) -0.15776(10) -0.63512(17)
C1B C 0.3683(3) -0.12934(12) -0.5465(2)
C2B C 0.8378(3) -0.10843(11) -0.4643(2)
C6B C 0.5188(3) -0.17278(11) -0.4469(2)
C7B C 0.5597(4) -0.26473(12) -0.2913(2)
H5B H 0.5010 -0.2983 -0.2528
C8B C 0.4352(4) -0.22481(12) -0.3900(2)
H6B H 0.2936 -0.2328 -0.4189
C10B C 0.8561(4) -0.20344(12) -0.3069(2)
H8B H 0.9984 -0.1968 -0.2793
C11B C 0.7709(4) -0.25459(12) -0.2500(2)
H9B H 0.8553 -0.2817 -0.1848
C14B C 0.7327(3) -0.16187(11) -0.4047(2)
Ag1_2 Ag -0.00886(3) 0.044212(10) 0.661108(17)
Ag1_3 Ag 0.99114(3) 0.044212(10) -0.338892(17)
Ag1B_2 Ag 0.00886(3) -0.044212(10) 0.338892(17)
Ag1B_3 Ag 1.00886(3) -0.044212(10) -0.661108(17)
Ag1B_4 Ag 1.00886(3) -0.044212(10) 1.338892(17)
Ag2_2 Ag 0.55704(3) 0.007888(10) -0.654993(16)
Ag2B_2 Ag 0.44296(3) -0.007888(10) 0.654993(16)
O1_2 O 0.6209(2) 0.06490(8) -0.46893(15)
O1B_2 O 0.3791(2) -0.06490(8) 0.46893(15)
O2_2 O 0.2337(2) 0.09931(8) -0.41352(15)
O2_3 O 1.2337(2) 0.09931(8) 0.58648(15)
O2B_2 O -0.2337(2) -0.09931(8) -0.58648(15)
O2B_3 O 0.7663(2) -0.09931(8) 0.41352(15)
O3_2 O 0.0086(2) 0.07887(8) -0.61069(16)
O3B_2 O 0.9914(2) -0.07887(8) 0.61069(16)
N2B_2 N 0.0010(3) -0.02031(10) -0.87507(18)
loop_
_geom_bond_atom_site_label_1
_geom_bond_atom_site_label_2
_geom_bond_site_symmetry_1
_geom_bond_site_symmetry_2
Ag1 O1 1_555 1_555
Ag2 O1 1_555 1_555
O1 C1 1_555 1_555
O2 C2 1_555 1_555
O3 C2 1_555 1_555
O4 Ag1 1_555 1_555
N1 Ag2 1_555 1_555
N2 Ag1 1_555 1_555
C1 O4 1_555 1_555
C2 C14 1_555 1_555
C3 H1 1_555 1_555
H2 C3 1_555 1_555
H3 C3 1_555 1_555
C4 N1 1_555 1_555
H4 C4 1_555 1_555
C5 N1 1_555 1_555
C6 C1 1_555 1_555
C7 H5 1_555 1_555
C8 C6 1_555 1_555
H6 C8 1_555 1_555
C9 N2 1_555 1_555
H7 C9 1_555 1_555
C10 H8 1_555 1_555
C11 C7 1_555 1_555
H9 C11 1_555 1_555
C12 N2 1_555 1_555
C13 C12 1_555 1_555
H10 C13 1_555 1_555
H11 C13 1_555 1_555
H12 C13 1_555 1_555
C14 C6 1_555 1_555
N1B C4B 1_555 1_555
C3B H1B 1_555 1_555
H2B C3B 1_555 1_555
H3B C3B 1_555 1_555
C4B C5 1_555 1_555
H4B C4B 1_555 1_555
C5B C4 1_555 1_555
N2B C9B 1_555 1_555
C9B C12 1_555 1_555
H7B C9B 1_555 1_555
C12B C9 1_555 1_555
C13B C12B 1_555 1_555
H10B C13B 1_555 1_555
H11B C13B 1_555 1_555
H12B C13B 1_555 1_555
Ag1B O1B 1_555 1_555
Ag2B N1B 1_555 1_555
O1B Ag2B 1_555 1_555
O2B C2B 1_555 1_555
O3B C2B 1_555 1_555
O4B Ag1B 1_555 1_555
C1B O1B 1_555 1_555
C2B C14B 1_555 1_555
C6B C1B 1_555 1_555
C7B H5B 1_555 1_555
C8B C6B 1_555 1_555
H6B C8B 1_555 1_555
C10B H8B 1_555 1_555
C11B C7B 1_555 1_555
H9B C11B 1_555 1_555
C14B C6B 1_555 1_555
Ag1_2 O2 1_555 1_555
Ag1_3 O3B 1_555 1_555
Ag1B_2 O3 1_555 1_555
Ag1B_3 O2B 1_555 1_555
Ag1B_4 N2B 1_555 1_555
Ag2_2 O1B 1_555 1_555
Ag2B_2 O1 1_555 1_555
O1_2 Ag2B 1_555 1_555
O1B_2 Ag2 1_555 1_555
O2_2 Ag2B 1_555 1_555
O2_3 Ag1 1_555 1_555
O2B_2 Ag1B 1_555 1_555
O2B_3 Ag2 1_555 1_555
O3_2 Ag1B 1_555 1_555
O3B_2 Ag1 1_555 1_555
N2B_2 Ag1B 1_555 1_555
O2 Ag2B_2 1_555 1_555
C3 C5 1_555 1_555
C7 C8 1_555 1_555
C10 C11 1_555 1_555
C10 C14 1_555 1_555
N1B C5B 1_555 1_555
C3B C5B 1_555 1_555
N2B C12B 1_555 1_555
O2B Ag2_2 1_555 1_555
O4B C1B 1_555 1_555
C7B C8B 1_555 1_555
C10B C11B 1_555 1_555
C10B C14B 1_555 1_555
Ag1_3 O1_2 1_555 1_555
Ag1B_2 O1B_2 1_555 1_555
Ag2_2 O1_2 1_555 1_555
Ag2B_2 O1B_2 1_555 1_555

#END
