
#######################################################################
#
#                 Cambridge Crystallographic Data Centre
#                                CCDC 
#
#######################################################################
#
# If this CIF has been generated from an entry in the Cambridge 
# Structural Database, then it will include bibliographic, chemical, 
# crystal, experimental, refinement or atomic coordinate data resulting 
# from the CCDC's data processing and validation procedures.
#
#######################################################################

data_QIYHEM
_symmetry_cell_setting           monoclinic
_symmetry_space_group_name_H-M   'C 2/c'
_symmetry_Int_Tables_number      15
_space_group_name_Hall           '-C 2yn'
loop_
_symmetry_equiv_pos_site_id
_symmetry_equiv_pos_as_xyz
1 x,y,z
2 1/2+x,1/2+y,z
3 -x,y,1/2-z
4 1/2-x,1/2+y,1/2-z
5 -x,-y,-z
6 1/2-x,1/2-y,-z
7 x,-y,1/2+z
8 1/2+x,1/2-y,1/2+z
_cell_length_a                   18.144(2)
_cell_length_b                   10.9400(13)
_cell_length_c                   13.3020(16)
_cell_angle_alpha                90
_cell_angle_beta                 123.219(2)
_cell_angle_gamma                90
_cell_volume                     2208.9
loop_
_atom_site_label
_atom_site_type_symbol
_atom_site_fract_x
_atom_site_fract_y
_atom_site_fract_z
B1 B 0.5000 0.8453(9) 0.2500
F1 F 0.5138(5) 0.8421(6) 0.1524(7)
F2 F 0.4119(6) 0.8663(8) 0.1879(8)
F3 F 0.4702(10) 0.7383(9) 0.1952(12)
F4 F 0.4547(8) 0.9492(11) 0.1914(10)
F1B F 0.4862(5) 0.8421(6) 0.3476(7)
F2B F 0.5881(6) 0.8663(8) 0.3121(8)
F3B F 0.5298(10) 0.7383(9) 0.3048(12)
F4B F 0.5453(8) 0.9492(11) 0.3086(10)
Ag1 Ag 0.2500 0.7500 0.0000
Si1 Si 0.40313(11) 0.63083(18) 0.50633(12)
N1 N 0.2393(3) 0.6733(4) 0.1376(3)
C1 C 0.3064(3) 0.6745(5) 0.2526(4)
H1 H 0.3594 0.7158 0.2722
C2 C 0.3051(3) 0.6200(5) 0.3467(4)
C3 C 0.2278(4) 0.5623(6) 0.3134(5)
H2 H 0.2226 0.5224 0.3735
C4 C 0.1576(4) 0.5607(7) 0.1956(5)
H3 H 0.1034 0.5210 0.1732
C5 C 0.1666(4) 0.6170(6) 0.1108(5)
H4 H 0.1179 0.6153 0.0285
C6 C 0.5028(4) 0.5653(6) 0.5148(6)
H5 H 0.5122 0.6106 0.4610
H6 H 0.5533 0.5776 0.5947
C7 C 0.4230(7) 0.7979(9) 0.5469(8)
H7 H 0.4375 0.8387 0.4961
H8 H 0.4709 0.8064 0.6293
H9 H 0.3708 0.8336 0.5360
C8 C 0.3760(6) 0.5512(10) 0.6041(6)
H10 H 0.4253 0.5557 0.6860
H11 H 0.3629 0.4670 0.5802
H12 H 0.3257 0.5892 0.5971
Ag1A Ag 0.7500 0.2500 1.0000
Si1D Si 0.59687(11) 0.36917(18) 0.49367(12)
N1D N 0.7607(3) 0.3267(4) 0.8624(3)
N1E N 0.2607(3) 0.8267(4) -0.1376(3)
C1D C 0.6936(3) 0.3255(5) 0.7474(4)
H1D H 0.6406 0.2842 0.7278
C2D C 0.6949(3) 0.3800(5) 0.6533(4)
C3D C 0.7722(4) 0.4377(6) 0.6866(5)
H2D H 0.7774 0.4776 0.6265
C4D C 0.8424(4) 0.4393(7) 0.8044(5)
H3D H 0.8966 0.4790 0.8268
C5D C 0.8334(4) 0.3830(6) 0.8892(5)
H4D H 0.8821 0.3847 0.9715
C6D C 0.4972(4) 0.4347(6) 0.4852(6)
H5D H 0.4878 0.3894 0.5390
H6D H 0.4467 0.4224 0.4053
C7D C 0.5770(7) 0.2021(9) 0.4531(8)
H7D H 0.5625 0.1613 0.5039
H8D H 0.5291 0.1936 0.3707
H9D H 0.6292 0.1664 0.4640
C8D C 0.6240(6) 0.4488(10) 0.3959(6)
H10D H 0.5747 0.4443 0.3140
H11D H 0.6371 0.5330 0.4198
H12D H 0.6743 0.4108 0.4029
loop_
_geom_bond_atom_site_label_1
_geom_bond_atom_site_label_2
_geom_bond_site_symmetry_1
_geom_bond_site_symmetry_2
Ag1 N1 1_555 1_555
Si1 C2 1_555 1_555
N1 C1 1_555 1_555
C1 H1 1_555 1_555
C2 C1 1_555 1_555
C3 C2 1_555 1_555
H2 C3 1_555 1_555
C4 C3 1_555 1_555
H3 C4 1_555 1_555
C5 N1 1_555 1_555
H4 C5 1_555 1_555
C6 Si1 1_555 1_555
H5 C6 1_555 1_555
H6 C6 1_555 1_555
C7 Si1 1_555 1_555
H7 C7 1_555 1_555
H8 C7 1_555 1_555
H9 C7 1_555 1_555
C8 Si1 1_555 1_555
H10 C8 1_555 1_555
H11 C8 1_555 1_555
H12 C8 1_555 1_555
B1 F1 1_555 1_555
F1 F3 1_555 1_555
F2 B1 1_555 1_555
F3 B1 1_555 1_555
F4 B1 1_555 1_555
Ag1A N1D 1_555 1_555
Si1D C2D 1_555 1_555
N1D C1D 1_555 1_555
N1E Ag1 1_555 1_555
C1D H1D 1_555 1_555
C2D C1D 1_555 1_555
C3D C2D 1_555 1_555
H2D C3D 1_555 1_555
C4D C3D 1_555 1_555
H3D C4D 1_555 1_555
C5D N1D 1_555 1_555
H4D C5D 1_555 1_555
C6D C6 1_555 1_555
H5D C6D 1_555 1_555
H6D C6D 1_555 1_555
C7D Si1D 1_555 1_555
H7D C7D 1_555 1_555
H8D C7D 1_555 1_555
H9D C7D 1_555 1_555
C8D Si1D 1_555 1_555
H10D C8D 1_555 1_555
H11D C8D 1_555 1_555
H12D C8D 1_555 1_555
F1B B1 1_555 1_555
F2B B1 1_555 1_555
F3B B1 1_555 1_555
F4B B1 1_555 1_555
C4 C5 1_555 1_555
F2 F4 1_555 1_555
F3 F3B 1_555 1_555
F4 F4B 1_555 1_555
Si1D C6D 1_555 1_555
C4D C5D 1_555 1_555
F1B F3B 1_555 1_555
F2B F4B 1_555 1_555

#END
