
#######################################################################
#
#                 Cambridge Crystallographic Data Centre
#                                CCDC 
#
#######################################################################
#
# If this CIF has been generated from an entry in the Cambridge 
# Structural Database, then it will include bibliographic, chemical, 
# crystal, experimental, refinement or atomic coordinate data resulting 
# from the CCDC's data processing and validation procedures.
#
#######################################################################

data_QIYJEO
_symmetry_cell_setting           monoclinic
_symmetry_space_group_name_H-M   'P 21/c'
_symmetry_Int_Tables_number      14
_space_group_name_Hall           '-P 2ybc'
loop_
_symmetry_equiv_pos_site_id
_symmetry_equiv_pos_as_xyz
1 x,y,z
2 -x,1/2+y,1/2-z
3 -x,-y,-z
4 x,1/2-y,1/2+z
_cell_length_a                   14.975(3)
_cell_length_b                   23.151(5)
_cell_length_c                   32.488(6)
_cell_angle_alpha                90
_cell_angle_beta                 92.59(3)
_cell_angle_gamma                90
_cell_volume                     11251.6
loop_
_atom_site_label
_atom_site_type_symbol
_atom_site_fract_x
_atom_site_fract_y
_atom_site_fract_z
Bi1 Bi 0.31015(7) 0.36672(4) 0.31645(3)
Bi2 Bi 0.17519(7) 0.36617(4) 0.18248(3)
W1 W 0.36382(8) 0.38457(4) 0.12176(3)
W2 W 0.12061(8) 0.35771(5) 0.38041(3)
W3 W 0.54412(8) 0.38494(4) 0.29581(3)
W4 W 0.51769(8) 0.41886(4) 0.39383(3)
W5 W 0.20311(8) 0.48894(4) 0.36380(3)
W6 W 0.18413(8) 0.41987(4) 0.06227(3)
W7 W -0.05862(8) 0.35600(4) 0.20111(3)
W8 W 0.27100(8) 0.23810(4) 0.13849(3)
W9 W 0.42578(8) 0.50213(4) 0.31961(3)
W10 W 0.02515(8) 0.48702(4) 0.18500(3)
W11 W 0.29424(8) 0.40677(5) 0.43919(3)
W12 W 0.24863(8) 0.50364(4) 0.14221(3)
W13 W 0.24821(8) 0.22641(4) 0.35427(3)
W14 W -0.04148(8) 0.40489(4) 0.10474(3)
W15 W 0.44989(8) 0.24050(4) 0.31506(3)
W16 W 0.08838(8) 0.27310(4) 0.08021(3)
W17 W 0.06969(8) 0.22525(4) 0.17699(3)
W18 W 0.42175(8) 0.27378(4) 0.41328(3)
Mn1 Mn 0.0860(3) 0.28928(17) 0.28012(13)
Mn2 Mn 0.2243(3) 0.50395(17) 0.25333(14)
Mn3 Mn 0.4147(3) 0.30798(16) 0.21658(13)
Na1 Na 0.2617(9) 0.2020(5) 0.2467(4)
Na2 Na 0.0342(9) 0.4368(5) 0.2907(4)
Na3 Na 0.4240(9) 0.4622(5) 0.2140(4)
Na4 Na 0.2926(9) 0.2951(5) 0.0369(4)
Na5 Na -0.2700(9) 0.4089(5) 0.0436(4)
Na6 Na -0.4349(9) 0.5124(5) 0.0423(4)
Na7 Na 0.6729(9) 0.4899(5) 0.1565(4)
Na8 Na 0.1984(11) 0.4765(6) 0.5998(5)
Na9 Na 0.3040(19) 0.3432(10) 0.5486(9)
Na10 Na -0.175(3) 0.5244(14) 0.2802(12)
O1 O 0.1735(15) 0.4349(8) 0.0120(6)
O2 O 0.1596(16) 0.5559(9) 0.3718(7)
O3 O 0.1815(14) 0.4772(8) 0.3109(6)
O4 O 0.2128(10) 0.4947(6) 0.0832(5)
O5 O 0.0337(13) 0.2202(7) 0.1161(6)
O6 O 0.4830(12) 0.2335(7) 0.3766(5)
O7 O 0.1828(16) 0.1660(9) 0.3610(7)
O8 O 0.3489(12) 0.1914(7) 0.3298(6)
O9 O 0.3082(12) 0.3996(7) 0.0645(5)
O10 O 0.1792(12) 0.3712(7) 0.4369(5)
O11 O 0.0138(15) 0.3394(8) 0.3995(7)
O12 O 0.2426(13) 0.4795(7) 0.4233(6)
O13 O 0.5945(13) 0.3977(7) 0.3525(6)
O14 O 0.0157(17) 0.1616(10) 0.1891(8)
O15 O -0.0415(13) 0.4779(7) 0.1305(6)
O16 O 0.1033(13) 0.3540(7) 0.3254(6)
O17 O 0.1813(12) 0.1873(7) 0.1605(5)
O18 O 0.4732(12) 0.2458(7) 0.4579(5)
O19 O 0.0997(14) 0.4420(8) 0.3783(6)
O20 O 0.1012(13) 0.4724(7) 0.2260(6)
O21 O 0.2551(13) 0.3981(7) 0.3710(6)
O22 O 0.4092(13) 0.4306(7) 0.4214(6)
O23 O 0.4574(12) 0.3740(7) 0.2550(5)
O24 O -0.0690(14) 0.4395(8) 0.2067(6)
O25 O -0.1178(15) 0.4168(8) 0.0648(7)
O26 O 0.0470(12) 0.3955(7) 0.1639(5)
O27 O 0.3548(13) 0.2934(7) 0.3508(6)
O28 O 0.1970(13) 0.2323(7) 0.0839(6)
O29 O 0.3084(13) 0.2623(7) 0.1861(6)
O30 O 0.1516(13) 0.2922(7) 0.1448(6)
O31 O 0.3628(14) 0.4682(8) 0.1278(6)
O32 O 0.5025(13) 0.4948(7) 0.3716(6)
O33 O 0.6440(16) 0.3819(9) 0.2688(7)
O34 O 0.2184(13) 0.4100(7) 0.1317(5)
O35 O 0.2086(14) 0.2528(8) 0.3040(6)
O36 O 0.1580(14) 0.3373(8) 0.0627(6)
O37 O 0.1191(14) 0.2486(8) 0.2250(6)
O38 O 0.3254(13) 0.2222(7) 0.4076(6)
O39 O -0.1109(14) 0.3695(8) 0.1446(6)
O40 O 0.2723(13) 0.4873(7) 0.1947(6)
O41 O 0.5926(15) 0.4359(8) 0.4337(6)
O42 O 0.4492(15) 0.5717(8) 0.3089(7)
O43 O 0.4722(14) 0.3791(7) 0.1088(6)
O44 O 0.1774(13) 0.2839(7) 0.3832(6)
O45 O 0.0622(13) 0.4316(7) 0.0776(6)
O46 O 0.4991(14) 0.3394(7) 0.4040(6)
O47 O 0.3514(13) 0.4786(7) 0.2785(6)
O48 O 0.3115(14) 0.4147(7) 0.4912(6)
O49 O -0.0237(13) 0.2816(7) 0.1778(5)
O50 O 0.0262(14) 0.3501(7) 0.2411(6)
O51 O 0.1203(13) 0.5097(7) 0.1498(6)
O52 O 0.5164(16) 0.1857(9) 0.2982(7)
O53 O 0.3482(14) 0.1858(8) 0.1241(6)
O54 O 0.5300(11) 0.3051(6) 0.3135(5)
O55 O 0.2740(14) 0.5752(8) 0.1390(6)
O56 O 0.5288(12) 0.4671(6) 0.2917(5)
O57 O -0.1585(15) 0.3384(8) 0.2229(7)
O58 O 0.3717(14) 0.3762(8) 0.1765(6)
O59 O 0.0485(14) 0.2472(8) 0.0339(6)
O60 O -0.0218(15) 0.5527(8) 0.1965(7)
O61 O 0.3431(15) 0.3292(8) 0.4347(7)
O62 O 0.3868(15) 0.2663(8) 0.2712(7)
O63 O 0.4311(13) 0.4080(7) 0.3367(6)
O64 O 0.3271(15) 0.5113(8) 0.3534(7)
O65 O 0.0013(15) 0.3273(8) 0.0914(7)
O66 O 0.3240(14) 0.3059(7) 0.1134(6)
O67 O -0.011(2) 0.5396(13) 0.2908(11)
O68 O -0.122(2) 0.4151(12) 0.3040(10)
O69 O 0.190(2) 0.1093(13) 0.2658(11)
O70 O 0.3763(17) 0.1395(9) 0.2235(8)
O71 O 0.559(2) 0.4318(13) 0.1865(10)
O72 O 0.4616(17) 0.5643(9) 0.2182(7)
O73 O 0.2186(19) 0.2203(10) -0.0059(8)
O74 O 0.410(3) 0.2245(15) 0.0351(13)
O75 O 0.3047(17) 0.3464(9) -0.0275(8)
O76 O 0.355(2) 0.4333(12) 0.6121(9)
O77 O 0.1682(19) 0.3834(10) 0.5635(8)
O78 O 0.166(2) 0.4299(13) 0.6599(10)
O79 O 0.047(3) 0.5071(16) 0.5806(13)
O80 O 0.255(2) 0.5142(11) 0.5349(9)
O81 O 0.227(2) 0.5702(12) 0.6293(10)
O82 O -0.4097(15) 0.5070(9) -0.0277(7)
O83 O -0.4842(17) 0.6114(9) 0.0331(7)
O84 O -0.2760(16) 0.5173(9) 0.0502(7)
O85 O -0.4576(18) 0.5156(9) 0.1131(8)
O86 O -0.4247(15) 0.4102(8) 0.0419(7)
O87 O 0.7947(15) 0.5397(8) 0.1290(7)
O88 O -0.2900(18) 0.3993(10) 0.1205(8)
O89 O 0.756(2) 0.4594(12) 0.2221(10)
O90 O 0.642(2) 0.5777(12) 0.1881(10)
O91 O -0.2799(16) 0.4173(9) -0.0298(7)
O92 O -0.278(2) 0.3036(12) 0.0424(10)
O93 O -0.318(2) 0.5286(13) 0.2923(11)
N1 N -0.0192(18) 0.2374(10) 0.3052(8)
N2 N -0.101(2) 0.2006(12) 0.3539(9)
N3 N 0.2212(17) 0.5963(9) 0.2544(7)
N4 N 0.2485(17) 0.6872(10) 0.2384(8)
N5 N 0.533(2) 0.2697(12) 0.1923(10)
N6 N 0.616(3) 0.2115(14) 0.1559(11)
C1 C -0.025(2) 0.1785(12) 0.2993(10)
H1 H 0.0025 0.1569 0.2795
C2 C -0.063(3) 0.2489(17) 0.3369(13)
H2 H -0.0684 0.2859 0.3475
C3 C -0.084(3) 0.1567(17) 0.3304(13)
H3 H -0.1046 0.1191 0.3330
C4 C -0.167(3) 0.198(2) 0.3882(13)
H4 H -0.1804 0.1588 0.3941
H5 H -0.2203 0.2184 0.3797
H6 H -0.1403 0.2163 0.4124
C5 C 0.177(3) 0.6295(14) 0.2810(12)
H7 H 0.1444 0.6147 0.3025
C6 C 0.184(2) 0.6856(13) 0.2730(10)
H8 H 0.1566 0.7165 0.2856
C7 C 0.269(2) 0.6304(14) 0.2296(11)
H9 H 0.3077 0.6179 0.2101
C8 C 0.276(3) 0.7395(14) 0.2189(11)
H10 H 0.2495 0.7720 0.2323
H11 H 0.2556 0.7389 0.1904
H12 H 0.3395 0.7426 0.2209
C9 C 0.623(3) 0.297(2) 0.1914(16)
H13 H 0.6425 0.3310 0.2040
C10 C 0.533(3) 0.2227(14) 0.1711(11)
H14 H 0.4829 0.1992 0.1665
C11 C 0.672(3) 0.2594(14) 0.1675(12)
H15 H 0.7309 0.2647 0.1603
C12 C 0.658(4) 0.168(2) 0.1261(16)
H16 H 0.7210 0.1760 0.1246
H17 H 0.6297 0.1716 0.0992
H18 H 0.6504 0.1294 0.1362
W8C W 0.27100(8) 0.26190(4) 0.63849(3)
Na1A Na -0.2617(9) 0.7020(5) 0.2533(4)
Na4C Na 0.2926(9) 0.2049(5) 0.5369(4)
Na5_2 Na 0.7300(9) 0.4089(5) 0.0436(4)
Na6B Na -0.5651(9) 0.4876(5) -0.0423(4)
Na6_2 Na 0.5651(9) 0.5124(5) 0.0423(4)
Na7_2 Na -0.3271(9) 0.4899(5) 0.1565(4)
Na8B Na -0.1984(11) 0.5235(6) 0.4002(5)
Na9C Na 0.3040(19) 0.1568(10) 0.0486(9)
Na10A Na 0.175(3) 0.0244(14) 0.2198(12)
Na10_2 Na 0.825(3) 0.5244(14) 0.2802(12)
Na10B Na 0.175(3) 0.4756(14) 0.7198(12)
O9C O 0.3082(12) 0.1004(7) 0.5645(5)
O28C O 0.1970(13) 0.2677(7) 0.5839(6)
O36C O 0.1580(14) 0.1627(8) 0.5627(6)
O53C O 0.3482(14) 0.3142(8) 0.6241(6)
O66C O 0.3240(14) 0.1941(7) 0.6134(6)
O67A O 0.011(2) 0.0396(13) 0.2092(11)
O69A O -0.190(2) 0.6093(13) 0.2342(11)
O71_2 O -0.441(2) 0.4318(13) 0.1865(10)
O73C O 0.2186(19) 0.2797(10) 0.4941(8)
O74C O 0.410(3) 0.2755(15) 0.5351(13)
O75C O 0.3047(17) 0.1536(9) 0.4725(8)
O76B O -0.355(2) 0.5667(12) 0.3879(9)
O77B O -0.1682(19) 0.6166(10) 0.4365(8)
O78B O -0.166(2) 0.5701(13) 0.3401(10)
O78C O 0.166(2) 0.0701(13) 0.1599(10)
O79B O -0.047(3) 0.4929(16) 0.4194(13)
O80B O -0.255(2) 0.4858(11) 0.4651(9)
O81B O -0.227(2) 0.4298(12) 0.3707(10)
O82B O -0.5903(15) 0.4930(9) 0.0277(7)
O82_2 O 0.5903(15) 0.5070(9) -0.0277(7)
O82B_2 O 0.4097(15) 0.4930(9) 0.0277(7)
O83B O -0.5158(17) 0.3886(9) -0.0331(7)
O83_2 O 0.5158(17) 0.6114(9) 0.0331(7)
O84B O -0.7240(16) 0.4827(9) -0.0502(7)
O84_2 O 0.7240(16) 0.5173(9) 0.0502(7)
O85_2 O 0.5424(18) 0.5156(9) 0.1131(8)
O85B O -0.5424(18) 0.4844(9) -0.1131(8)
O86B O -0.5753(15) 0.5898(8) -0.0419(7)
O86_2 O 0.5753(15) 0.4102(8) 0.0419(7)
O87_2 O -0.2053(15) 0.5397(8) 0.1290(7)
O88_2 O 0.7100(18) 0.3993(10) 0.1205(8)
O89_2 O -0.244(2) 0.4594(12) 0.2221(10)
O89A O 0.244(2) -0.0406(12) 0.2779(10)
O90_2 O -0.358(2) 0.5777(12) 0.1881(10)
O93A O 0.318(2) 0.0286(13) 0.2077(11)
loop_
_geom_bond_atom_site_label_1
_geom_bond_atom_site_label_2
_geom_bond_site_symmetry_1
_geom_bond_site_symmetry_2
Bi1 O21 1_555 1_555
Bi2 O26 1_555 1_555
W1 O9 1_555 1_555
W2 O10 1_555 1_555
W3 O13 1_555 1_555
W4 O13 1_555 1_555
W5 O2 1_555 1_555
W6 O1 1_555 1_555
W7 O24 1_555 1_555
W8 O17 1_555 1_555
W9 O32 1_555 1_555
W10 O15 1_555 1_555
W11 O10 1_555 1_555
W12 O4 1_555 1_555
W13 O7 1_555 1_555
W14 O15 1_555 1_555
W15 O6 1_555 1_555
W16 O5 1_555 1_555
W17 O5 1_555 1_555
W18 O6 1_555 1_555
Mn1 O16 1_555 1_555
Mn2 O3 1_555 1_555
Mn3 O23 1_555 1_555
Na1 O29 1_555 1_555
Na2 O3 1_555 1_555
Na3 O23 1_555 1_555
Na4 O9 1_555 1_555
Na5 O25 1_555 1_555
Na6 O82 1_555 1_555
Na7 O71 1_555 1_555
Na8 O76 1_555 1_555
Na9 O48 1_555 1_555
Na10 O67 1_555 1_555
O3 W5 1_555 1_555
O4 W6 1_555 1_555
O8 W13 1_555 1_555
O9 W6 1_555 1_555
O11 W2 1_555 1_555
O12 W5 1_555 1_555
O14 W17 1_555 1_555
O16 W2 1_555 1_555
O17 W17 1_555 1_555
O18 W18 1_555 1_555
O19 W2 1_555 1_555
O20 W10 1_555 1_555
O21 W2 1_555 1_555
O22 W4 1_555 1_555
O23 W3 1_555 1_555
O24 W10 1_555 1_555
O25 W14 1_555 1_555
O26 W7 1_555 1_555
O27 Bi1 1_555 1_555
O28 W8 1_555 1_555
O29 W8 1_555 1_555
O30 Bi2 1_555 1_555
O31 W1 1_555 1_555
O32 W4 1_555 1_555
O33 W3 1_555 1_555
O34 Bi2 1_555 1_555
O35 W13 1_555 1_555
O36 W6 1_555 1_555
O37 W17 1_555 1_555
O38 W13 1_555 1_555
O39 W7 1_555 1_555
O40 W12 1_555 1_555
O41 W4 1_555 1_555
O42 W9 1_555 1_555
O43 W1 1_555 1_555
O44 W2 1_555 1_555
O45 W6 1_555 1_555
O46 W4 1_555 1_555
O47 W9 1_555 1_555
O48 W11 1_555 1_555
O49 W7 1_555 1_555
O50 W7 1_555 1_555
O51 W10 1_555 1_555
O52 W15 1_555 1_555
O53 W8 1_555 1_555
O54 W3 1_555 1_555
O55 W12 1_555 1_555
O56 W3 1_555 1_555
O57 W7 1_555 1_555
O58 W1 1_555 1_555
O59 W16 1_555 1_555
O60 W10 1_555 1_555
O61 W11 1_555 1_555
O62 W15 1_555 1_555
O63 Bi1 1_555 1_555
O64 W5 1_555 1_555
O65 W14 1_555 1_555
O66 W1 1_555 1_555
O67 Na2 1_555 1_555
O68 Na2 1_555 1_555
O69 Na1 1_555 1_555
O70 Na1 1_555 1_555
O71 Na3 1_555 1_555
O72 Na3 1_555 1_555
O73 Na4 1_555 1_555
O74 Na4 1_555 1_555
O75 Na4 1_555 1_555
O77 Na8 1_555 1_555
O78 Na8 1_555 1_555
O79 Na8 1_555 1_555
O80 Na8 1_555 1_555
O81 Na8 1_555 1_555
O82 Na6B 1_555 1_555
O83 Na6 1_555 1_555
O84 Na5 1_555 1_555
O85 Na6 1_555 1_555
O86 Na5 1_555 1_555
O87 Na7 1_555 1_555
O88 Na5 1_555 1_555
O89 Na7 1_555 1_555
O90 Na7 1_555 1_555
O91 Na5 1_555 1_555
O92 Na5 1_555 1_555
O93 Na10 1_555 1_555
N1 Mn1 1_555 1_555
N2 C2 1_555 1_555
N3 Mn2 1_555 1_555
N4 C6 1_555 1_555
N5 Mn3 1_555 1_555
N6 C10 1_555 1_555
C1 N1 1_555 1_555
H1 C1 1_555 1_555
C2 N1 1_555 1_555
H2 C2 1_555 1_555
C3 N2 1_555 1_555
H3 C3 1_555 1_555
C4 N2 1_555 1_555
H4 C4 1_555 1_555
H5 C4 1_555 1_555
H6 C4 1_555 1_555
C5 N3 1_555 1_555
H7 C5 1_555 1_555
C6 C5 1_555 1_555
H8 C6 1_555 1_555
C7 N3 1_555 1_555
H9 C7 1_555 1_555
C8 N4 1_555 1_555
H10 C8 1_555 1_555
H11 C8 1_555 1_555
H12 C8 1_555 1_555
C9 N5 1_555 1_555
H13 C9 1_555 1_555
C10 N5 1_555 1_555
H14 C10 1_555 1_555
C11 N6 1_555 1_555
H15 C11 1_555 1_555
C12 N6 1_555 1_555
H16 C12 1_555 1_555
H17 C12 1_555 1_555
H18 C12 1_555 1_555
W8C O28C 1_555 1_555
Na1A O69A 1_555 1_555
Na4C O9C 1_555 1_555
Na5_2 O84_2 1_555 1_555
Na6B O82B 1_555 1_555
Na6_2 O82_2 1_555 1_555
Na7_2 O85 1_555 1_555
Na8B O76B 1_555 1_555
Na9C O53 1_555 1_555
Na10A O69 1_555 1_555
Na10_2 O89 1_555 1_555
Na10B O78 1_555 1_555
O28C Na4C 1_555 1_555
O36C Na4C 1_555 1_555
O53C Na9 1_555 1_555
O66C W8C 1_555 1_555
O67A Na10A 1_555 1_555
O69A Na10 1_555 1_555
O71_2 Na7_2 1_555 1_555
O73C Na9 1_555 1_555
O74C Na9 1_555 1_555
O75C Na4C 1_555 1_555
O77B Na8B 1_555 1_555
O78B Na10 1_555 1_555
O78C Na10A 1_555 1_555
O79B Na8B 1_555 1_555
O80B Na8B 1_555 1_555
O81B Na8B 1_555 1_555
O82B Na6 1_555 1_555
O82B_2 Na6_2 1_555 1_555
O83B Na6B 1_555 1_555
O83_2 Na6_2 1_555 1_555
O84B Na6B 1_555 1_555
O84_2 Na6_2 1_555 1_555
O85_2 Na7 1_555 1_555
O85B Na6B 1_555 1_555
O86B Na6B 1_555 1_555
O86_2 Na5_2 1_555 1_555
O87_2 Na7_2 1_555 1_555
O88_2 Na7 1_555 1_555
O89_2 Na10 1_555 1_555
O89A Na10A 1_555 1_555
O90_2 Na7_2 1_555 1_555
O93A Na10A 1_555 1_555
W1 O34 1_555 1_555
W3 O63 1_555 1_555
W4 O63 1_555 1_555
W5 O19 1_555 1_555
W5 O21 1_555 1_555
W6 O34 1_555 1_555
W8 O30 1_555 1_555
W8 O66 1_555 1_555
W9 O56 1_555 1_555
W9 O63 1_555 1_555
W9 O64 1_555 1_555
W10 O26 1_555 1_555
W11 O12 1_555 1_555
W11 O21 1_555 1_555
W11 O22 1_555 1_555
W12 O31 1_555 1_555
W12 O34 1_555 1_555
W12 O51 1_555 1_555
W13 O27 1_555 1_555
W13 O44 1_555 1_555
W14 O26 1_555 1_555
W14 O39 1_555 1_555
W14 O45 1_555 1_555
W15 O8 1_555 1_555
W15 O27 1_555 1_555
W15 O54 1_555 1_555
W16 O28 1_555 1_555
W16 O30 1_555 1_555
W16 O36 1_555 1_555
W16 O65 1_555 1_555
W17 O30 1_555 1_555
W17 O49 1_555 1_555
W18 O27 1_555 1_555
W18 O38 1_555 1_555
W18 O46 1_555 1_555
W18 O61 1_555 1_555
Mn1 O35 1_555 1_555
Mn1 O37 1_555 1_555
Mn1 O50 1_555 1_555
Mn2 O20 1_555 1_555
Mn2 O40 1_555 1_555
Mn2 O47 1_555 1_555
Mn3 O29 1_555 1_555
Mn3 O58 1_555 1_555
Mn3 O62 1_555 1_555
Na1 O35 1_555 1_555
Na1 O37 1_555 1_555
Na1 O62 1_555 1_555
Na2 O16 1_555 1_555
Na2 O20 1_555 1_555
Na2 O50 1_555 1_555
Na3 O40 1_555 1_555
Na3 O47 1_555 1_555
Na3 O58 1_555 1_555
Na4 O28 1_555 1_555
Na4 O36 1_555 1_555
Na4 O66 1_555 1_555
Na6 O84 1_555 1_555
Na6 O86 1_555 1_555
Na9 O77 1_555 1_555
O73 Na9C 1_555 1_555
O74 Na9C 1_555 1_555
O88 Na7_2 1_555 1_555
N4 C7 1_555 1_555
C1 C3 1_555 1_555
C9 C11 1_555 1_555
W8C O53C 1_555 1_555
Na4C O66C 1_555 1_555
Na4C O73C 1_555 1_555
Na4C O74C 1_555 1_555
Na5_2 O88_2 1_555 1_555
Na6_2 O85_2 1_555 1_555
Na6_2 O86_2 1_555 1_555
Na7_2 O89_2 1_555 1_555
Na8B O78B 1_555 1_555

#END
