
#######################################################################
#
#                 Cambridge Crystallographic Data Centre
#                                CCDC 
#
#######################################################################
#
# If this CIF has been generated from an entry in the Cambridge 
# Structural Database, then it will include bibliographic, chemical, 
# crystal, experimental, refinement or atomic coordinate data resulting 
# from the CCDC's data processing and validation procedures.
#
#######################################################################

data_QIYJIT
_symmetry_cell_setting           monoclinic
_symmetry_space_group_name_H-M   'P n'
_symmetry_Int_Tables_number      7
_space_group_name_Hall           'P -2yac'
loop_
_symmetry_equiv_pos_site_id
_symmetry_equiv_pos_as_xyz
1 x,y,z
2 1/2+x,-y,1/2+z
_cell_length_a                   13.112(5)
_cell_length_b                   15.777(5)
_cell_length_c                   14.797(5)
_cell_angle_alpha                90
_cell_angle_beta                 94.721(5)
_cell_angle_gamma                90
_cell_volume                     3050.64
loop_
_atom_site_label
_atom_site_type_symbol
_atom_site_fract_x
_atom_site_fract_y
_atom_site_fract_z
W1 W 0.65624(9) -0.47034(7) 0.49949(9)
W2 W 0.84177(9) -0.38991(7) 0.34947(9)
W3 W 0.87020(9) -0.16390(7) 0.68724(8)
W4 W 0.57096(9) -0.33411(7) 0.30747(8)
W5 W 0.98603(9) -0.31005(8) 0.53385(9)
W6 W 0.54475(9) -0.33415(7) 0.64225(8)
W7 W 0.91041(9) -0.18057(8) 0.35651(8)
W8 W 0.63961(10) -0.12429(8) 0.31122(9)
W9 W 0.79912(10) -0.38807(7) 0.68439(9)
W10 W 0.46315(9) -0.19617(8) 0.45269(9)
W11 W 0.61469(10) -0.11181(8) 0.64837(10)
W12 W 0.78969(9) -0.03643(7) 0.50894(9)
Cu1 Cu 0.8049(2) 0.2084(2) 0.4380(2)
P1 P 0.7241(5) -0.2535(4) 0.4978(5)
Cu2 Cu 0.6437(2) 0.2695(2) 0.5664(2)
N1 N 0.6516(15) 0.3295(13) 0.6863(15)
N2 N 0.7263(19) 0.5363(15) 1.1072(19)
N3 N 0.4917(15) 0.2763(12) 0.5398(15)
N4 N -0.0390(15) 0.2092(12) 0.4491(16)
N5 N 0.7876(17) 0.1577(14) 0.3100(17)
N6 N 0.706(2) -0.0337(16) -0.114(2)
O1 O 0.6340(15) 0.1399(12) 0.6454(14)
O2 O 0.7402(11) -0.1761(9) 0.5568(10)
O3 O 0.6935(11) -0.3296(9) 0.5539(11)
O4 O 0.8072(16) 0.3567(13) 0.3619(15)
O5 O 0.6392(11) -0.2349(9) 0.4269(11)
O6 O 0.8220(11) -0.2736(9) 0.4538(11)
O7 O 0.5958(11) -0.2265(10) 0.2522(11)
O8 O 0.5085(12) -0.1208(10) 0.3613(12)
O9 O 0.4634(11) -0.2821(10) 0.3591(11)
O10 O 0.3381(12) -0.1759(9) 0.4470(11)
O11 O 0.5142(13) -0.3881(10) 0.2193(13)
O12 O 0.4744(11) -0.2874(9) 0.5387(11)
O13 O 0.5806(11) -0.2238(9) 0.6781(11)
O14 O 0.4503(14) -0.3599(11) 0.7059(14)
O15 O 0.5817(11) -0.4147(9) 0.4008(11)
O16 O 0.7709(12) -0.4538(9) 0.4325(11)
O17 O 0.6317(13) -0.5730(10) 0.4855(13)
O18 O 0.8523(14) -0.4418(11) 0.7754(14)
O19 O 0.8256(11) -0.2725(10) 0.7164(11)
O20 O 0.9097(12) -0.3750(10) 0.6078(11)
O21 O 1.1052(13) -0.3393(10) 0.5729(12)
O22 O 0.9484(12) -0.1390(10) 0.7796(12)
O23 O 0.9578(11) -0.2166(10) 0.6076(11)
O24 O 1.0097(11) -0.2276(9) 0.4433(11)
O25 O 0.9589(11) -0.3918(9) 0.4398(11)
O26 O 0.8764(12) -0.4616(10) 0.2757(13)
O27 O 0.7132(12) -0.3598(10) 0.2934(11)
O28 O 0.8999(11) -0.2887(10) 0.3012(11)
O29 O 0.9848(14) -0.1325(11) 0.2839(14)
O30 O 0.7764(11) -0.1595(10) 0.3010(11)
O31 O 0.7484(11) -0.4798(9) 0.6083(11)
O32 O 0.5548(11) -0.4383(9) 0.5752(11)
O33 O 0.6900(12) -0.0564(9) 0.4115(11)
O34 O 0.8856(11) -0.0979(9) 0.4417(11)
O35 O 0.5226(11) -0.1263(9) 0.5417(11)
O36 O 0.6785(12) -0.0254(9) 0.5841(11)
O37 O 0.8764(12) -0.0628(10) 0.6172(11)
O38 O 0.7411(12) -0.1211(10) 0.7237(12)
O39 O 0.6623(12) -0.3738(9) 0.7159(11)
O40 O 0.5508(13) -0.0535(10) 0.7200(13)
O41 O 0.6181(13) -0.0566(11) 0.2275(13)
O42 O 0.8220(14) 0.0676(11) 0.4971(13)
O43 O 0.6602(13) 0.2230(10) 0.4478(12)
O44 O 0.8034(14) 0.2617(11) 0.5713(13)
C1 C 0.6069(19) 0.3983(14) 0.7010(19)
H1 H 0.5632 0.4204 0.6542
C2 C 0.7046(18) 0.2985(16) 0.7581(18)
H2 H 0.7324 0.2449 0.7514
C3 C 0.7244(18) 0.3361(15) 0.8427(18)
H3 H 0.7604 0.3088 0.8910
C4 C 0.618(2) 0.4427(16) 0.780(2)
H4 H 0.5773 0.4904 0.7866
C5 C 0.685(2) 0.4198(17) 0.850(2)
C6 C 0.703(2) 0.4661(16) 0.934(2)
C7 C 0.7888(18) 0.4530(16) 0.9924(19)
H5 H 0.8336 0.4122 0.9736
C8 C 0.816(2) 0.4870(16) 1.0673(19)
C9 C 0.646(2) 0.5504(16) 1.0488(18)
H6 H 0.5985 0.5887 1.0678
C10 C 0.626(2) 0.5185(15) 0.9695(19)
H7 H 0.5633 0.5286 0.9365
C11 C 0.4483(17) 0.2888(14) 0.4572(17)
H8 H 0.4887 0.3064 0.4119
C12 C 0.429(2) 0.2577(15) 0.603(2)
H9 H 0.4576 0.2506 0.6625
C13 C 0.325(2) 0.2483(15) 0.586(2)
H10 H 0.2848 0.2390 0.6340
C14 C 0.3454(17) 0.2765(14) 0.4360(18)
H11 H 0.3189 0.2846 0.3764
C15 C 0.278(2) 0.2520(15) 0.5012(19)
C16 C 0.167(2) 0.2393(15) 0.4812(19)
C17 C 0.117(2) 0.2640(15) 0.399(2)
H12 H 0.1515 0.2913 0.3551
C18 C 0.009(2) 0.2453(15) 0.386(2)
H13 H -0.0266 0.2594 0.3315
C19 C 0.0112(17) 0.1773(14) 0.5242(17)
H14 H -0.0240 0.1471 0.5658
C20 C 0.1178(17) 0.1900(14) 0.5394(17)
H15 H 0.1542 0.1649 0.5890
C21 C 0.8427(19) 0.0854(14) 0.2884(18)
H16 H 0.8921 0.0639 0.3311
C22 C 0.8264(19) 0.0461(15) 0.2081(19)
H17 H 0.8614 -0.0034 0.1961
C23 C 0.7149(16) 0.1856(14) 0.2502(16)
H18 H 0.6733 0.2307 0.2644
C24 C 0.7017(18) 0.1471(14) 0.1670(17)
H19 H 0.6518 0.1682 0.1246
C25 C 0.757(2) 0.0808(16) 0.144(2)
C26 C 0.740(2) 0.0364(16) 0.0529(19)
C27 C 0.809(2) -0.0080(15) 0.016(2)
H20 H 0.8702 -0.0182 0.0511
C28 C 0.800(2) -0.0419(16) -0.0727(19)
H21 H 0.8535 -0.0673 -0.0996
C29 C 0.646(2) 0.0039(17) -0.087(2)
H22 H 0.5895 0.0136 -0.1279
C30 C 0.6369(19) 0.0421(15) 0.0024(19)
H23 H 0.5783 0.0655 0.0235
H24 H 0.8687 0.4739 1.1059
Cu1_2 Cu -0.1951(2) 0.2084(2) 0.4380(2)
Cu2_2 Cu 0.6437(2) -0.7305(2) 0.5664(2)
N4_2 N 0.9610(15) 0.2092(12) 0.4491(16)
O17_2 O 0.6317(13) 0.4270(10) 0.4855(13)
O45 O 0.8999(15) 0.4023(12) 0.5354(14)
O46 O 0.6133(15) 0.4118(13) 0.2635(15)
O47 O 0.8660(13) 0.1330(11) 0.6961(13)
O48 O 0.5396(13) 0.0769(10) 0.4353(13)
loop_
_geom_bond_atom_site_label_1
_geom_bond_atom_site_label_2
_geom_bond_site_symmetry_1
_geom_bond_site_symmetry_2
W1 O3 1_555 1_555
W2 O6 1_555 1_555
W3 O2 1_555 1_555
W4 O5 1_555 1_555
W5 O6 1_555 1_555
W6 O3 1_555 1_555
W7 O6 1_555 1_555
W8 O5 1_555 1_555
W9 O3 1_555 1_555
W10 O5 1_555 1_555
W11 O2 1_555 1_555
W12 O2 1_555 1_555
Cu1 N5 1_555 1_555
P1 O2 1_555 1_555
Cu2 N1 1_555 1_555
N1 C1 1_555 1_555
N2 C8 1_555 1_555
N3 Cu2 1_555 1_555
N4 C18 1_555 1_555
N5 C21 1_555 1_555
N6 C28 1_555 1_555
O1 Cu2 1_555 1_555
O3 P1 1_555 1_555
O4 Cu1 1_555 1_555
O5 P1 1_555 1_555
O6 P1 1_555 1_555
O7 W4 1_555 1_555
O8 W8 1_555 1_555
O9 W4 1_555 1_555
O10 W10 1_555 1_555
O11 W4 1_555 1_555
O12 W6 1_555 1_555
O13 W6 1_555 1_555
O14 W6 1_555 1_555
O15 W1 1_555 1_555
O16 W1 1_555 1_555
O17 W1 1_555 1_555
O18 W9 1_555 1_555
O19 W3 1_555 1_555
O20 W5 1_555 1_555
O21 W5 1_555 1_555
O22 W3 1_555 1_555
O23 W3 1_555 1_555
O24 W5 1_555 1_555
O25 W2 1_555 1_555
O26 W2 1_555 1_555
O27 W2 1_555 1_555
O28 W2 1_555 1_555
O29 W7 1_555 1_555
O30 W7 1_555 1_555
O31 W1 1_555 1_555
O32 W1 1_555 1_555
O33 W8 1_555 1_555
O34 W7 1_555 1_555
O35 W10 1_555 1_555
O36 W11 1_555 1_555
O37 W3 1_555 1_555
O38 W3 1_555 1_555
O39 W6 1_555 1_555
O40 W11 1_555 1_555
O41 W8 1_555 1_555
O42 W12 1_555 1_555
O43 Cu1 1_555 1_555
O44 Cu1 1_555 1_555
C1 H1 1_555 1_555
C2 N1 1_555 1_555
H2 C2 1_555 1_555
C3 C2 1_555 1_555
H3 C3 1_555 1_555
C4 C1 1_555 1_555
H4 C4 1_555 1_555
C5 C3 1_555 1_555
C6 C5 1_555 1_555
C7 C6 1_555 1_555
H5 C7 1_555 1_555
C8 C7 1_555 1_555
C9 N2 1_555 1_555
H6 C9 1_555 1_555
C10 C6 1_555 1_555
H7 C10 1_555 1_555
C11 N3 1_555 1_555
H8 C11 1_555 1_555
C12 N3 1_555 1_555
H9 C12 1_555 1_555
C13 C12 1_555 1_555
H10 C13 1_555 1_555
C14 C11 1_555 1_555
H11 C14 1_555 1_555
C15 C13 1_555 1_555
C16 C15 1_555 1_555
C17 C16 1_555 1_555
H12 C17 1_555 1_555
C18 C17 1_555 1_555
H13 C18 1_555 1_555
C19 N4 1_555 1_555
H14 C19 1_555 1_555
C20 C16 1_555 1_555
H15 C20 1_555 1_555
C21 H16 1_555 1_555
C22 C21 1_555 1_555
H17 C22 1_555 1_555
C23 N5 1_555 1_555
H18 C23 1_555 1_555
C24 C23 1_555 1_555
H19 C24 1_555 1_555
C25 C22 1_555 1_555
C26 C25 1_555 1_555
C27 C26 1_555 1_555
H20 C27 1_555 1_555
C28 C27 1_555 1_555
H21 C28 1_555 1_555
C29 N6 1_555 1_555
H22 C29 1_555 1_555
C30 C26 1_555 1_555
H23 C30 1_555 1_555
H24 C8 1_555 1_555
Cu1_2 N4 1_555 1_555
Cu2_2 O17 1_555 1_555
N4_2 Cu1 1_555 1_555
O17_2 Cu2 1_555 1_555
W2 O16 1_555 1_555
W4 O15 1_555 1_555
W4 O27 1_555 1_555
W5 O23 1_555 1_555
W5 O25 1_555 1_555
W6 O32 1_555 1_555
W7 O24 1_555 1_555
W7 O28 1_555 1_555
W8 O7 1_555 1_555
W8 O30 1_555 1_555
W9 O19 1_555 1_555
W9 O20 1_555 1_555
W9 O31 1_555 1_555
W9 O39 1_555 1_555
W10 O8 1_555 1_555
W10 O9 1_555 1_555
W10 O12 1_555 1_555
W11 O13 1_555 1_555
W11 O35 1_555 1_555
W11 O38 1_555 1_555
W12 O33 1_555 1_555
W12 O34 1_555 1_555
W12 O36 1_555 1_555
W12 O37 1_555 1_555
Cu1 O42 1_555 1_555
Cu2 O43 1_555 1_555
Cu2 O44 1_555 1_555
C4 C5 1_555 1_555
C9 C10 1_555 1_555
C14 C15 1_555 1_555
C19 C20 1_555 1_555
C24 C25 1_555 1_555
C29 C30 1_555 1_555

#END
