
#######################################################################
#
#                 Cambridge Crystallographic Data Centre
#                                CCDC 
#
#######################################################################
#
# If this CIF has been generated from an entry in the Cambridge 
# Structural Database, then it will include bibliographic, chemical, 
# crystal, experimental, refinement or atomic coordinate data resulting 
# from the CCDC's data processing and validation procedures.
#
#######################################################################

data_QIYPUK
_symmetry_cell_setting           monoclinic
_symmetry_space_group_name_H-M   'P 21/c'
_symmetry_Int_Tables_number      14
_space_group_name_Hall           '-P 2ybc'
loop_
_symmetry_equiv_pos_site_id
_symmetry_equiv_pos_as_xyz
1 x,y,z
2 -x,1/2+y,1/2-z
3 -x,-y,-z
4 x,1/2-y,1/2+z
_cell_length_a                   6.8138(6)
_cell_length_b                   21.219(2)
_cell_length_c                   8.5434(10)
_cell_angle_alpha                90
_cell_angle_beta                 105.176(7)
_cell_angle_gamma                90
_cell_volume                     1192.15
loop_
_atom_site_label
_atom_site_type_symbol
_atom_site_fract_x
_atom_site_fract_y
_atom_site_fract_z
Eu1 Eu 0.12548(6) 0.648911(19) 0.47998(5)
C1 C 0.4836(11) 0.6487(5) 0.7439(9)
C2 C 0.6753(12) 0.6483(5) 0.8821(9)
H1 H 0.7400 0.6897 0.8849
C3 C 0.7920(12) 0.6499(5) 1.1915(10)
C4 C 0.6184(14) 0.6397(5) 1.0408(10)
H2 H 0.5658 0.5974 1.0440
H3 H 0.5099 0.6690 1.0435
C5 C 0.9157(13) 0.6130(4) 0.7163(11)
C6 C 0.8296(13) 0.5978(4) 0.8572(11)
H4 H 0.9400 0.5947 0.9551
H5 H 0.7624 0.5571 0.8387
O1 O 0.4373(10) 0.6022(3) 0.6487(8)
O2 O 0.3675(10) 0.6956(3) 0.7261(8)
O3 O 0.9596(10) 0.6729(3) 1.1857(7)
O4 O 0.7649(9) 0.6333(3) 1.3269(7)
O5 O 0.9829(10) 0.5701(3) 0.6442(8)
O6 O 0.9349(10) 0.6703(3) 0.6797(8)
O7 O 0.0837(10) 0.7601(3) 0.4584(7)
O8 O 0.1549(10) 0.5517(3) 0.3441(8)
O9 O 0.3957(10) 0.6852(3) 0.3635(8)
Eu1_2 Eu 1.12548(6) 0.648911(19) 1.47998(5)
Eu1_3 Eu 1.12548(6) 0.648911(19) 0.47998(5)
O3_2 O -0.0404(10) 0.6729(3) 0.1857(7)
O4_2 O -0.2351(9) 0.6333(3) 0.3269(7)
O5_2 O -0.0171(10) 0.5701(3) 0.6442(8)
O6_2 O -0.0651(10) 0.6703(3) 0.6797(8)
O10 O 0.4835(12) 0.4742(3) 0.7088(10)
loop_
_geom_bond_atom_site_label_1
_geom_bond_atom_site_label_2
_geom_bond_site_symmetry_1
_geom_bond_site_symmetry_2
Eu1 O1 1_555 1_555
C1 C2 1_555 1_555
C2 H1 1_555 1_555
C3 C4 1_555 1_555
C4 C2 1_555 1_555
H2 C4 1_555 1_555
H3 C4 1_555 1_555
C5 C6 1_555 1_555
C6 C2 1_555 1_555
H4 C6 1_555 1_555
H5 C6 1_555 1_555
O1 C1 1_555 1_555
O2 Eu1 1_555 1_555
O3 C3 1_555 1_555
O4 C3 1_555 1_555
O5 C5 1_555 1_555
O6 C5 1_555 1_555
O7 Eu1 1_555 1_555
O8 Eu1 1_555 1_555
O9 Eu1 1_555 1_555
Eu1_2 O3 1_555 1_555
Eu1_3 O5 1_555 1_555
O3_2 Eu1 1_555 1_555
O4_2 Eu1 1_555 1_555
O5_2 Eu1 1_555 1_555
O6_2 Eu1 1_555 1_555
C1 O2 1_555 1_555
O4 Eu1_2 1_555 1_555
O6 Eu1_3 1_555 1_555

#END
