
#######################################################################
#
#                 Cambridge Crystallographic Data Centre
#                                CCDC 
#
#######################################################################
#
# If this CIF has been generated from an entry in the Cambridge 
# Structural Database, then it will include bibliographic, chemical, 
# crystal, experimental, refinement or atomic coordinate data resulting 
# from the CCDC's data processing and validation procedures.
#
#######################################################################

data_QIYQAR
_symmetry_cell_setting           monoclinic
_symmetry_space_group_name_H-M   'P 21/n'
_symmetry_Int_Tables_number      14
_space_group_name_Hall           '-P 2yn'
loop_
_symmetry_equiv_pos_site_id
_symmetry_equiv_pos_as_xyz
1 x,y,z
2 1/2-x,1/2+y,1/2-z
3 -x,-y,-z
4 1/2+x,1/2-y,1/2+z
_cell_length_a                   9.5386(6)
_cell_length_b                   14.0679(11)
_cell_length_c                   17.0679(15)
_cell_angle_alpha                90
_cell_angle_beta                 97.466(7)
_cell_angle_gamma                90
_cell_volume                     2270.89
loop_
_atom_site_label
_atom_site_type_symbol
_atom_site_fract_x
_atom_site_fract_y
_atom_site_fract_z
La1 La 0.11727(3) 0.12959(3) 0.471439(17)
La2 La -0.68230(3) 0.37108(3) 0.359600(17)
C1 C -0.1688(6) 0.1292(4) 0.5318(3)
C2 C -0.3196(6) 0.1365(4) 0.5484(3)
H1 H -0.3495 0.0746 0.5666
C3 C -0.4099(6) 0.1611(5) 0.4695(3)
H2 H -0.3845 0.2242 0.4531
H3 H -0.3883 0.1165 0.4294
C4 C -0.5665(6) 0.1584(4) 0.4743(3)
C5 C -0.3369(7) 0.2105(4) 0.6112(3)
H4 H -0.2937 0.2692 0.5966
H5 H -0.4371 0.2226 0.6107
C6 C -0.2747(6) 0.1856(5) 0.6951(4)
C7 C 0.0004(6) 0.3462(4) 0.3597(3)
C8 C -0.1564(6) 0.3403(5) 0.3628(3)
H6 H -0.1804 0.3825 0.4040
H7 H -0.1797 0.2761 0.3772
C9 C -0.2476(6) 0.3666(4) 0.2850(3)
H8 H -0.2191 0.4294 0.2679
C10 C -0.2241(6) 0.2934(4) 0.2216(3)
H9 H -0.1231 0.2852 0.2217
H10 H -0.2622 0.2329 0.2360
C11 C -0.2895(6) 0.3179(4) 0.1380(3)
C12 C -0.3991(6) 0.3709(5) 0.3007(3)
O1 O -0.1159(4) 0.0479(3) 0.5209(2)
O2 O -0.0982(4) 0.2028(3) 0.5239(2)
O3 O -0.6473(4) 0.2192(3) 0.4364(2)
O4 O -0.6184(4) 0.0929(3) 0.5111(2)
O5 O -0.2234(5) 0.1031(3) 0.7106(2)
O6 O -0.2789(5) 0.2470(3) 0.7478(2)
O7 O 0.0807(4) 0.2847(3) 0.3985(2)
O8 O 0.0500(4) 0.4091(3) 0.3204(2)
O9 O -0.2835(5) 0.2558(3) 0.0854(2)
O10 O -0.3442(5) 0.3978(3) 0.1221(2)
O11 O -0.4512(5) 0.4494(3) 0.3167(3)
O12 O -0.4704(4) 0.2952(3) 0.3033(2)
O13 O 0.1989(5) 0.0786(3) 0.3400(3)
O14 O -0.0921(5) 0.0881(3) 0.3547(3)
O15 O -0.4793(5) 0.3993(3) 0.4761(2)
O16 O -0.7127(5) 0.5529(3) 0.3397(3)
O17 O -0.7828(5) 0.4609(3) 0.4811(3)
La1B La -0.11727(3) -0.12959(3) 0.528561(17)
La1_2 La -0.88273(3) 0.12959(3) 0.471439(17)
La1C La -0.38273(3) 0.37041(3) -0.028561(17)
La2C La -0.18230(3) 0.12892(3) 0.859600(17)
La2_2 La 0.31770(3) 0.37108(3) 0.359600(17)
O1B O 0.1159(4) -0.0479(3) 0.4791(2)
O3_2 O 0.3527(4) 0.2192(3) 0.4364(2)
O4_2 O 0.3816(4) 0.0929(3) 0.5111(2)
O5C O -0.7234(5) 0.3969(3) 0.2106(2)
O6C O -0.7789(5) 0.2530(3) 0.2478(2)
O7_2 O -0.9193(4) 0.2847(3) 0.3985(2)
O8_2 O -0.9500(4) 0.4091(3) 0.3204(2)
O9C O 0.2165(5) 0.2442(3) 0.5854(2)
O10C O 0.1558(5) 0.1022(3) 0.6221(2)
O18 O 0.4818(6) 0.1223(4) 0.2256(3)
O19 O 0.4831(6) 0.1025(3) 0.0628(3)
O20 O 0.9254(5) 0.1235(3) 0.1207(3)
O21 O 0.4631(8) 0.0143(5) 0.6649(4)
loop_
_geom_bond_atom_site_label_1
_geom_bond_atom_site_label_2
_geom_bond_site_symmetry_1
_geom_bond_site_symmetry_2
La1 O1 1_555 1_555
La2 O3 1_555 1_555
C1 C2 1_555 1_555
C2 H1 1_555 1_555
C3 C2 1_555 1_555
H2 C3 1_555 1_555
H3 C3 1_555 1_555
C4 C3 1_555 1_555
C5 C2 1_555 1_555
H4 C5 1_555 1_555
H5 C5 1_555 1_555
C6 C5 1_555 1_555
C7 C8 1_555 1_555
C8 H6 1_555 1_555
H7 C8 1_555 1_555
C9 C8 1_555 1_555
H8 C9 1_555 1_555
C10 C9 1_555 1_555
H9 C10 1_555 1_555
H10 C10 1_555 1_555
C11 C10 1_555 1_555
C12 C9 1_555 1_555
O1 C1 1_555 1_555
O2 La1 1_555 1_555
O3 C4 1_555 1_555
O4 C4 1_555 1_555
O5 C6 1_555 1_555
O6 C6 1_555 1_555
O7 La1 1_555 1_555
O8 C7 1_555 1_555
O9 C11 1_555 1_555
O10 C11 1_555 1_555
O11 La2 1_555 1_555
O12 La2 1_555 1_555
O13 La1 1_555 1_555
O14 La1 1_555 1_555
O15 La2 1_555 1_555
O16 La2 1_555 1_555
O17 La2 1_555 1_555
La1B O1 1_555 1_555
La1_2 O3 1_555 1_555
La1C O9 1_555 1_555
La2C O5 1_555 1_555
La2_2 O7 1_555 1_555
O1B La1 1_555 1_555
O3_2 La1 1_555 1_555
O4_2 La1 1_555 1_555
O5C La2 1_555 1_555
O6C La2 1_555 1_555
O7_2 La2 1_555 1_555
O8_2 La2 1_555 1_555
O9C La1 1_555 1_555
O10C La1 1_555 1_555
C1 O2 1_555 1_555
C7 O7 1_555 1_555
C12 O11 1_555 1_555
C12 O12 1_555 1_555
O4 La1_2 1_555 1_555
O6 La2C 1_555 1_555
O8 La2_2 1_555 1_555
O10 La1C 1_555 1_555
La1B O1B 1_555 1_555
La1_2 O7_2 1_555 1_555
La2_2 O3_2 1_555 1_555

#END
