
#######################################################################
#
#                 Cambridge Crystallographic Data Centre
#                                CCDC 
#
#######################################################################
#
# If this CIF has been generated from an entry in the Cambridge 
# Structural Database, then it will include bibliographic, chemical, 
# crystal, experimental, refinement or atomic coordinate data resulting 
# from the CCDC's data processing and validation procedures.
#
#######################################################################

data_QIYRIA
_symmetry_cell_setting           triclinic
_symmetry_space_group_name_H-M   'P -1'
_symmetry_Int_Tables_number      2
_space_group_name_Hall           '-P 1'
loop_
_symmetry_equiv_pos_site_id
_symmetry_equiv_pos_as_xyz
1 x,y,z
2 -x,-y,-z
_cell_length_a                   8.849(3)
_cell_length_b                   11.699(6)
_cell_length_c                   15.111(9)
_cell_angle_alpha                70.49(2)
_cell_angle_beta                 85.952(19)
_cell_angle_gamma                73.763(17)
_cell_volume                     1415.27
loop_
_atom_site_label
_atom_site_type_symbol
_atom_site_fract_x
_atom_site_fract_y
_atom_site_fract_z
Cu1 Cu 1.0000 1.0000 1.0000
C9 C 1.1803(3) 0.8677(3) 0.86680(19)
H8 H 1.0971 0.8370 0.8600
C10 C 1.3205(3) 0.9653(3) 0.9070(2)
H9 H 1.3518 1.0162 0.9339
C11 C 1.4107(3) 0.9031(3) 0.8530(2)
H10 H 1.5141 0.9023 0.8365
C12 C 1.3615(3) 0.7665(3) 0.7637(2)
H11 H 1.2787 0.7270 0.7637
H12 H 1.4577 0.7002 0.7870
C13 C 1.3847(4) 0.8445(3) 0.6650(2)
H13 H 1.4841 0.8652 0.6622
H14 H 1.3014 0.9229 0.6478
C14 C 1.3843(3) 0.7781(3) 0.5945(2)
H15 H 1.2814 0.7647 0.5927
H16 H 1.4609 0.6962 0.6146
C15 C 1.4231(4) 0.8532(3) 0.4966(2)
H17 H 1.3607 0.9401 0.4820
H18 H 1.5332 0.8522 0.4960
C16 C 1.3928(4) 0.8036(3) 0.4210(2)
H19 H 1.4541 0.7164 0.4352
H20 H 1.2823 0.8065 0.4198
C17 C 1.4367(4) 0.8811(3) 0.3262(2)
H21 H 1.3992 0.9695 0.3205
H22 H 1.5506 0.8602 0.3228
C18 C 1.2371(3) 0.9308(3) 0.2020(2)
H23 H 1.1690 0.9969 0.2181
C19 C 1.4371(4) 0.7747(4) 0.2045(3)
H24 H 1.5320 0.7123 0.2204
C20 C 1.3351(4) 0.7959(4) 0.1351(2)
H25 H 1.3491 0.7493 0.0945
C21 C 0.8761(3) 0.7831(3) 0.9862(2)
H26 H 0.8422 0.8230 0.9238
C22 C 0.9691(4) 0.7448(3) 1.1223(2)
H27 H 1.0144 0.7531 1.1727
C23 C 0.9231(4) 0.6441(3) 1.1246(2)
H28 H 0.9288 0.5719 1.1761
C24 C 0.8082(3) 0.5829(3) 1.0055(3)
H29 H 0.8720 0.4973 1.0347
H30 H 0.8207 0.6039 0.9381
C25 C 0.6383(3) 0.5885(3) 1.0273(2)
H31 H 0.5732 0.6735 0.9974
H32 H 0.6246 0.5671 1.0945
C26 C 0.5862(3) 0.4967(3) 0.9921(2)
H33 H 0.6060 0.5155 0.9255
H34 H 0.6488 0.4116 1.0242
N1 N 0.9397(3) 0.8333(2) 1.03535(16)
N2 N 0.8666(3) 0.6678(2) 1.03760(18)
N3 N 1.1745(2) 0.9421(2) 0.91663(15)
N4 N 1.3199(2) 0.8415(2) 0.82726(16)
N5 N 1.3736(3) 0.8627(2) 0.24692(17)
N6 N 1.2082(3) 0.8955(2) 0.13268(18)
Cu1_2 Cu 1.0000 1.0000 0.0000
Cu1_3 Cu 0.0000 0.0000 1.0000
Cu1_4 Cu 1.0000 1.0000 2.0000
C9A C 0.8197(3) 1.1323(3) 1.13320(19)
H8A H 0.9029 1.1630 1.1400
C10A C 0.6795(3) 1.0347(3) 1.0930(2)
H9A H 0.6482 0.9838 1.0661
C11A C 0.5893(3) 1.0969(3) 1.1470(2)
H10A H 0.4859 1.0977 1.1635
C12A C 0.6385(3) 1.2335(3) 1.2363(2)
H11A H 0.7213 1.2730 1.2363
H12A H 0.5423 1.2998 1.2130
C13A C 0.6153(4) 1.1555(3) 1.3350(2)
H13A H 0.5159 1.1348 1.3378
H14A H 0.6986 1.0771 1.3522
C14A C 0.6157(3) 1.2219(3) 1.4055(2)
H15A H 0.7186 1.2353 1.4073
H16A H 0.5391 1.3038 1.3854
C15A C 0.5769(4) 1.1468(3) 1.5034(2)
H17A H 0.6393 1.0599 1.5180
H18A H 0.4668 1.1478 1.5040
C16A C 0.6072(4) 1.1964(3) 1.5790(2)
H19A H 0.5459 1.2836 1.5648
H20A H 0.7177 1.1935 1.5802
C17A C 0.5633(4) 1.1189(3) 1.6738(2)
H21A H 0.6008 1.0305 1.6795
H22A H 0.4494 1.1398 1.6772
C18A C 0.7629(3) 1.0692(3) 1.7980(2)
H23A H 0.8310 1.0031 1.7819
C19A C 0.5629(4) 1.2253(4) 1.7955(3)
H24A H 0.4680 1.2877 1.7796
C20A C 0.6649(4) 1.2041(4) 1.8649(2)
H25A H 0.6509 1.2507 1.9055
C21A C 0.1239(3) 0.2169(3) 1.0138(2)
H26A H 0.1578 0.1770 1.0762
C22A C 0.0309(4) 0.2552(3) 0.8777(2)
H27A H -0.0144 0.2469 0.8273
C23A C 0.0769(4) 0.3559(3) 0.8754(2)
H28A H 0.0712 0.4281 0.8239
C24A C 0.1918(3) 0.4171(3) 0.9945(3)
H29A H 0.1280 0.5027 0.9653
H30A H 0.1793 0.3961 1.0619
C25A C 0.3617(3) 0.4115(3) 0.9727(2)
H31A H 0.4268 0.3265 1.0026
H32A H 0.3754 0.4329 0.9055
C26A C 0.4138(3) 0.5033(3) 1.0079(2)
H33A H 0.3940 0.4845 1.0745
H34A H 0.3512 0.5884 0.9758
N1A N 0.0603(3) 0.1667(2) 0.96465(16)
N1A_2 N 1.0603(3) 1.1667(2) 0.96465(16)
N2A N 0.1334(3) 0.3322(2) 0.96240(18)
N3A N 0.8255(2) 1.0579(2) 1.08337(15)
N4A N 0.6801(2) 1.1585(2) 1.17274(16)
N5A N 0.6264(3) 1.1373(2) 1.75308(17)
N6A N 0.7918(3) 1.1045(2) 1.86732(18)
N6_2 N 1.2082(3) 0.8955(2) 1.13268(18)
N6A_2 N 0.7918(3) 1.1045(2) 0.86732(18)
C1 C 0.8731(3) 0.7254(3) 0.6205(2)
C2 C 0.8133(3) 0.6220(3) 0.6342(2)
C3 C 0.7925(4) 0.5870(3) 0.5571(3)
C4 C 0.8313(4) 0.6551(3) 0.4701(3)
H1 H 0.8192 0.6302 0.4193
C5 C 0.8875(3) 0.7592(3) 0.4539(2)
C6 C 0.9090(3) 0.7944(3) 0.5305(2)
C7 C 0.7267(5) 0.4770(4) 0.5691(4)
H2 H 0.7662 0.4116 0.6271
H3 H 0.7581 0.4453 0.5177
H4 H 0.6139 0.5042 0.5700
C8 C 0.9271(4) 0.8309(4) 0.3561(3)
H5 H 0.8373 0.8565 0.3149
H6 H 1.0139 0.7777 0.3342
H7 H 0.9552 0.9040 0.3570
N7 N 0.7689(5) 0.5503(4) 0.7213(3)
O1 O 0.9568(3) 0.8788(2) 0.68528(18)
O2 O 1.0273(3) 0.6601(2) 0.77660(18)
O4 O 0.7590(3) 0.7829(3) 0.76818(18)
S1 S 0.90612(8) 0.76530(7) 0.71961(5)
O3 O 1.7283(11) 0.4971(7) 0.3097(7)
N8? N 0.9690(8) 0.8982(7) 0.5089(5)
loop_
_geom_bond_atom_site_label_1
_geom_bond_atom_site_label_2
_geom_bond_site_symmetry_1
_geom_bond_site_symmetry_2
Cu1 N1 1_555 1_555
C1 C2 1_555 1_555
C2 C3 1_555 1_555
C3 C4 1_555 1_555
C4 H1 1_555 1_555
C5 C4 1_555 1_555
C6 C1 1_555 1_555
C7 C3 1_555 1_555
H2 C7 1_555 1_555
H3 C7 1_555 1_555
H4 C7 1_555 1_555
C8 C5 1_555 1_555
H5 C8 1_555 1_555
H6 C8 1_555 1_555
H7 C8 1_555 1_555
C9 H8 1_555 1_555
C10 H9 1_555 1_555
C11 C10 1_555 1_555
H10 C11 1_555 1_555
C12 H11 1_555 1_555
H12 C12 1_555 1_555
C13 C12 1_555 1_555
H13 C13 1_555 1_555
H14 C13 1_555 1_555
C14 C13 1_555 1_555
H15 C14 1_555 1_555
H16 C14 1_555 1_555
C15 C14 1_555 1_555
H17 C15 1_555 1_555
H18 C15 1_555 1_555
C16 C15 1_555 1_555
H19 C16 1_555 1_555
H20 C16 1_555 1_555
C17 C16 1_555 1_555
H21 C17 1_555 1_555
H22 C17 1_555 1_555
C18 H23 1_555 1_555
C19 H24 1_555 1_555
C20 C19 1_555 1_555
H25 C20 1_555 1_555
C21 H26 1_555 1_555
C22 H27 1_555 1_555
C23 C22 1_555 1_555
H28 C23 1_555 1_555
C24 H29 1_555 1_555
H30 C24 1_555 1_555
C25 C24 1_555 1_555
H31 C25 1_555 1_555
H32 C25 1_555 1_555
C26 C25 1_555 1_555
H33 C26 1_555 1_555
H34 C26 1_555 1_555
N1 C21 1_555 1_555
N2 C21 1_555 1_555
N3 Cu1 1_555 1_555
N4 C9 1_555 1_555
N5 C17 1_555 1_555
N6 C18 1_555 1_555
N7 C2 1_555 1_555
O1 S1 1_555 1_555
O2 S1 1_555 1_555
O4 S1 1_555 1_555
S1 C1 1_555 1_555
Cu1_2 N6 1_555 1_555
Cu1_3 N1A 1_555 1_555
Cu1_4 N6A 1_555 1_555
C9A H8A 1_555 1_555
C10A H9A 1_555 1_555
C11A C10A 1_555 1_555
H10A C11A 1_555 1_555
C12A H11A 1_555 1_555
H12A C12A 1_555 1_555
C13A C12A 1_555 1_555
H13A C13A 1_555 1_555
H14A C13A 1_555 1_555
C14A C13A 1_555 1_555
H15A C14A 1_555 1_555
H16A C14A 1_555 1_555
C15A C14A 1_555 1_555
H17A C15A 1_555 1_555
H18A C15A 1_555 1_555
C16A C15A 1_555 1_555
H19A C16A 1_555 1_555
H20A C16A 1_555 1_555
C17A C16A 1_555 1_555
H21A C17A 1_555 1_555
H22A C17A 1_555 1_555
C18A H23A 1_555 1_555
C19A H24A 1_555 1_555
C20A C19A 1_555 1_555
H25A C20A 1_555 1_555
C21A H26A 1_555 1_555
C22A H27A 1_555 1_555
C23A C22A 1_555 1_555
H28A C23A 1_555 1_555
C24A H29A 1_555 1_555
H30A C24A 1_555 1_555
C25A C24A 1_555 1_555
H31A C25A 1_555 1_555
H32A C25A 1_555 1_555
C26A C26 1_555 1_555
H33A C26A 1_555 1_555
H34A C26A 1_555 1_555
N1A C21A 1_555 1_555
N1A_2 Cu1 1_555 1_555
N2A C21A 1_555 1_555
N3A Cu1 1_555 1_555
N4A C9A 1_555 1_555
N5A C17A 1_555 1_555
N6A C18A 1_555 1_555
N6_2 Cu1 1_555 1_555
N6A_2 Cu1 1_555 1_555
C5 C6 1_555 1_555
C9 N3 1_555 1_555
C10 N3 1_555 1_555
C11 N4 1_555 1_555
C12 N4 1_555 1_555
C18 N5 1_555 1_555
C19 N5 1_555 1_555
C20 N6 1_555 1_555
C22 N1 1_555 1_555
C23 N2 1_555 1_555
C24 N2 1_555 1_555
C9A N3A 1_555 1_555
C10A N3A 1_555 1_555
C11A N4A 1_555 1_555
C12A N4A 1_555 1_555
C18A N5A 1_555 1_555
C19A N5A 1_555 1_555
C20A N6A 1_555 1_555
C22A N1A 1_555 1_555
C23A N2A 1_555 1_555
C24A N2A 1_555 1_555
C25A C26A 1_555 1_555

#END
