
#######################################################################
#
#                 Cambridge Crystallographic Data Centre
#                                CCDC 
#
#######################################################################
#
# If this CIF has been generated from an entry in the Cambridge 
# Structural Database, then it will include bibliographic, chemical, 
# crystal, experimental, refinement or atomic coordinate data resulting 
# from the CCDC's data processing and validation procedures.
#
#######################################################################

data_QIYSAU
_symmetry_cell_setting           monoclinic
_symmetry_space_group_name_H-M   'P 21/n'
_symmetry_Int_Tables_number      14
_space_group_name_Hall           '-P 2yn'
loop_
_symmetry_equiv_pos_site_id
_symmetry_equiv_pos_as_xyz
1 x,y,z
2 1/2-x,1/2+y,1/2-z
3 -x,-y,-z
4 1/2+x,1/2-y,1/2+z
_cell_length_a                   9.0826(7)
_cell_length_b                   21.2107(17)
_cell_length_c                   11.7667(9)
_cell_angle_alpha                90
_cell_angle_beta                 100.466(2)
_cell_angle_gamma                90
_cell_volume                     2229.12
loop_
_atom_site_label
_atom_site_type_symbol
_atom_site_fract_x
_atom_site_fract_y
_atom_site_fract_z
Pb1 Pb 0.42164(4) 0.951027(15) 0.67446(3)
Pb2 Pb 0.24970(4) 0.990240(16) 0.97893(3)
Pb3 Pb 0.93599(4) 0.954976(15) 0.63316(3)
Br1 Br 0.44121(11) 1.06350(4) 0.85860(8)
Br2 Br -0.00180(10) 1.05866(4) 0.86919(7)
Br3 Br 0.30319(10) 1.08646(4) 1.16575(7)
Br4 Br 0.64518(10) 0.92335(4) 0.49812(7)
O1 O 0.2348(7) 0.9269(3) 0.7843(5)
O2 O 1.0963(8) 0.9525(3) 0.5001(6)
N1 N 0.3871(8) 0.8367(4) 0.6887(6)
N2 N 0.9760(9) 0.8456(4) 0.5720(6)
C1 C 0.2858(10) 0.8181(4) 0.7559(7)
C2 C 0.2083(10) 0.8662(4) 0.8062(7)
C3 C 0.1046(11) 0.8489(5) 0.8718(8)
H1 H 0.0502 0.8803 0.9041
C4 C 0.0783(11) 0.7838(5) 0.8916(8)
H2 H 0.0074 0.7724 0.9383
C5 C 0.1528(11) 0.7377(5) 0.8449(8)
H3 H 0.1339 0.6946 0.8592
C6 C 0.2573(10) 0.7538(4) 0.7759(7)
C7 C 0.3376(10) 0.7079(4) 0.7248(8)
H4 H 0.3207 0.6643 0.7352
C8 C 0.4410(11) 0.7276(4) 0.6596(7)
H5 H 0.4969 0.6974 0.6254
C9 C 0.4636(11) 0.7927(4) 0.6437(8)
H6 H 0.5359 0.8055 0.5993
C10 C 1.0759(10) 0.8399(4) 0.4978(7)
C11 C 1.1380(10) 0.8947(4) 0.4622(7)
C12 C 1.2460(11) 0.8916(4) 0.3924(7)
H7 H 1.2932 0.9288 0.3718
C13 C 1.2839(11) 0.8318(5) 0.3527(8)
H8 H 1.3538 0.8293 0.3018
C14 C 1.2216(10) 0.7769(5) 0.3863(8)
H9 H 1.2506 0.7372 0.3603
C15 C 1.1161(10) 0.7803(4) 0.4584(8)
C16 C 1.0475(11) 0.7267(4) 0.4979(8)
H10 H 1.0733 0.6858 0.4753
C17 C 0.9442(11) 0.7335(4) 0.5683(8)
H11 H 0.8957 0.6976 0.5927
C18 C 0.9113(10) 0.7931(4) 0.6034(8)
H12 H 0.8394 0.7972 0.6523
Pb1B Pb 0.57836(4) 1.048973(15) 0.32554(3)
Pb1B_2 Pb 0.57836(4) 1.048973(15) 1.32554(3)
Pb2B Pb -0.24970(4) 1.009760(16) 1.02107(3)
Pb2B_2 Pb 0.75030(4) 1.009760(16) 1.02107(3)
Pb3B Pb 1.06401(4) 1.045024(15) 0.36684(3)
Br1B Br 0.55879(11) 0.93650(4) 1.14140(8)
Br2B Br 0.00180(10) 0.94134(4) 1.13081(7)
Br3B Br 0.69681(10) 0.91354(4) 0.83425(7)
Br4B Br 0.35482(10) 1.07665(4) 0.50188(7)
O2B O 0.9037(8) 1.0475(3) 0.4999(6)
loop_
_geom_bond_atom_site_label_1
_geom_bond_atom_site_label_2
_geom_bond_site_symmetry_1
_geom_bond_site_symmetry_2
Pb1 Br1 1_555 1_555
Pb2 Br1 1_555 1_555
Pb3 Br4 1_555 1_555
Br1 Pb2B_2 1_555 1_555
Br2 Pb2 1_555 1_555
Br3 Pb2 1_555 1_555
Br4 Pb1 1_555 1_555
O1 Pb1 1_555 1_555
O2 Pb3 1_555 1_555
N1 Pb1 1_555 1_555
N2 Pb3 1_555 1_555
C1 N1 1_555 1_555
C2 O1 1_555 1_555
C3 C2 1_555 1_555
H1 C3 1_555 1_555
C4 C3 1_555 1_555
H2 C4 1_555 1_555
C5 C4 1_555 1_555
H3 C5 1_555 1_555
C6 C1 1_555 1_555
C7 C6 1_555 1_555
H4 C7 1_555 1_555
C8 C7 1_555 1_555
H5 C8 1_555 1_555
C9 N1 1_555 1_555
H6 C9 1_555 1_555
C10 N2 1_555 1_555
C11 O2 1_555 1_555
C12 C11 1_555 1_555
H7 C12 1_555 1_555
C13 C12 1_555 1_555
H8 C13 1_555 1_555
C14 C13 1_555 1_555
H9 C14 1_555 1_555
C15 C10 1_555 1_555
C16 C15 1_555 1_555
H10 C16 1_555 1_555
C17 C16 1_555 1_555
H11 C17 1_555 1_555
C18 N2 1_555 1_555
H12 C18 1_555 1_555
Pb1B Br4 1_555 1_555
Pb1B_2 Br3 1_555 1_555
Pb2B Br2 1_555 1_555
Pb2B_2 Br1B 1_555 1_555
Pb3B O2 1_555 1_555
Br1B Pb2 1_555 1_555
Br2B Pb2 1_555 1_555
Br3B Pb1 1_555 1_555
Br4B Pb1 1_555 1_555
O2B Pb3 1_555 1_555
Pb2 O1 1_555 1_555
C1 C2 1_555 1_555
C5 C6 1_555 1_555
C8 C9 1_555 1_555
C10 C11 1_555 1_555
C14 C15 1_555 1_555
C17 C18 1_555 1_555
Pb1B Br4B 1_555 1_555
Pb1B_2 Br1B 1_555 1_555
Pb2B Br2B 1_555 1_555
Pb2B_2 Br3B 1_555 1_555
Pb3B O2B 1_555 1_555

#END
