
#######################################################################
#
#                 Cambridge Crystallographic Data Centre
#                                CCDC 
#
#######################################################################
#
# If this CIF has been generated from an entry in the Cambridge 
# Structural Database, then it will include bibliographic, chemical, 
# crystal, experimental, refinement or atomic coordinate data resulting 
# from the CCDC's data processing and validation procedures.
#
#######################################################################

data_QIYXON
_symmetry_cell_setting           triclinic
_symmetry_space_group_name_H-M   'P -1'
_symmetry_Int_Tables_number      2
_space_group_name_Hall           '-P 1'
loop_
_symmetry_equiv_pos_site_id
_symmetry_equiv_pos_as_xyz
1 x,y,z
2 -x,-y,-z
_cell_length_a                   8.2280(4)
_cell_length_b                   10.4465(5)
_cell_length_c                   13.3444(7)
_cell_angle_alpha                92.4270(10)
_cell_angle_beta                 90.6310(10)
_cell_angle_gamma                94.1050(10)
_cell_volume                     1142.92
loop_
_atom_site_label
_atom_site_type_symbol
_atom_site_fract_x
_atom_site_fract_y
_atom_site_fract_z
Ag1 Ag 0.83750(4) 0.86947(3) 0.71387(2)
S1 S 0.74698(13) 1.15961(9) 0.81541(7)
N1 N 0.6090(4) 0.7833(3) 0.7638(2)
N2 N 0.5631(4) 0.6576(3) 0.7527(2)
N3 N 1.0553(4) 0.9015(3) 0.6285(2)
N4 N 1.0848(4) 0.8590(3) 0.5333(2)
O1 O 0.7962(4) 1.7559(3) 1.0213(2)
H1 H 0.811(7) 1.833(2) 1.042(4)
O2 O 0.9743(4) 1.7877(3) 0.8983(2)
O3 O 0.8940(4) 1.1051(3) 0.7856(3)
O4 O 0.6700(5) 1.0973(3) 0.8984(2)
O5 O 0.6337(4) 1.1703(3) 0.7331(2)
C1 C 0.4888(5) 0.8364(4) 0.8134(3)
H2 H 0.4879 0.9231 0.8319
C2 C 0.3646(5) 0.7429(4) 0.8334(3)
H3 H 0.2683 0.7544 0.8675
C3 C 0.4157(5) 0.6310(4) 0.7921(3)
H4 H 0.3586 0.5508 0.7913
C4 C 0.6556(5) 0.5690(4) 0.6925(3)
H5 H 0.6673 0.4918 0.7290
H6 H 0.7637 0.6087 0.6814
C5 C 0.5734(4) 0.5332(4) 0.5926(3)
C6 C 0.5233(5) 0.6279(4) 0.5318(3)
H7 H 0.5388 0.7139 0.5530
C7 C 0.4502(5) 0.5943(4) 0.4394(3)
H8 H 0.4169 0.6579 0.3988
C8 C 1.1918(5) 0.9719(4) 0.6593(3)
H9 H 1.2070 1.0126 0.7224
C9 C 1.3057(5) 0.9751(4) 0.5844(4)
H10 H 1.4088 1.0179 0.5869
C10 C 1.2366(6) 0.9029(4) 0.5059(3)
H11 H 1.2846 0.8865 0.4444
C11 C 0.9681(5) 0.7730(4) 0.4769(3)
H12 H 0.9781 0.7899 0.4062
H13 H 0.8591 0.7919 0.4970
C12 C 0.9883(5) 0.6320(3) 0.4906(3)
C13 C 0.9039(5) 0.5432(4) 0.4248(3)
H14 H 0.8389 0.5717 0.3741
C14 C 0.9160(5) 0.4122(4) 0.4345(3)
H15 H 0.8592 0.3539 0.3901
C15 C 0.8820(4) 1.7163(3) 0.9463(3)
C16 C 0.8564(4) 1.5765(3) 0.9201(2)
C17 C 0.7267(5) 1.5036(3) 0.9588(3)
H16 H 0.6602 1.5409 1.0060
C18 C 0.6948(5) 1.3761(4) 0.9281(3)
H17 H 0.6047 1.3285 0.9521
C19 C 0.7993(4) 1.3201(3) 0.8608(3)
C20 C 0.9340(4) 1.3902(4) 0.8252(3)
H18 H 1.0060 1.3514 0.7823
C21 C 0.9599(4) 1.5182(3) 0.8542(3)
H19 H 1.0485 1.5664 0.8290
N1A N 0.3910(4) 0.2167(3) 0.2362(2)
N2A N 0.4369(4) 0.3424(3) 0.2473(2)
C1A C 0.5112(5) 0.1636(4) 0.1866(3)
H2A H 0.5121 0.0769 0.1681
C2A C 0.6354(5) 0.2571(4) 0.1666(3)
H3A H 0.7317 0.2456 0.1325
C3A C 0.5843(5) 0.3690(4) 0.2079(3)
H4A H 0.6414 0.4492 0.2087
C4A C 0.3444(5) 0.4310(4) 0.3075(3)
H5A H 0.3327 0.5082 0.2710
H6A H 0.2363 0.3913 0.3186
C5A C 0.4266(4) 0.4668(4) 0.4074(3)
C6A C 0.4767(5) 0.3721(4) 0.4682(3)
H7A H 0.4612 0.2861 0.4470
C7A C 0.5498(5) 0.4057(4) 0.5606(3)
H8A H 0.5831 0.3421 0.6012
N3A N 0.9447(4) 0.0985(3) 0.3715(2)
N4A N 0.9152(4) 0.1410(3) 0.4667(2)
C8A C 0.8082(5) 0.0281(4) 0.3407(3)
H9A H 0.7930 -0.0126 0.2776
C9A C 0.6943(5) 0.0249(4) 0.4156(4)
H10A H 0.5912 -0.0179 0.4131
C10A C 0.7634(6) 0.0971(4) 0.4941(3)
H11A H 0.7154 0.1135 0.5556
C11A C 1.0319(5) 0.2270(4) 0.5231(3)
H12A H 1.0219 0.2101 0.5938
H13A H 1.1409 0.2081 0.5030
C12A C 1.0117(5) 0.3680(3) 0.5094(3)
C13A C 1.0961(5) 0.4568(4) 0.5752(3)
H14A H 1.1611 0.4283 0.6259
C14A C 1.0840(5) 0.5878(4) 0.5655(3)
H15A H 1.1408 0.6461 0.6099
Ag1A Ag 0.16250(4) 0.13053(3) 0.28613(2)
S1A S 0.25302(13) -0.15961(9) 0.18459(7)
O1A O 0.2038(4) -0.7559(3) -0.0213(2)
H1A H 0.189(7) -0.833(2) -0.042(4)
O2A O 0.0257(4) -0.7877(3) 0.1017(2)
O3A O 0.1060(4) -0.1051(3) 0.2144(3)
O4A O 0.3300(5) -0.0973(3) 0.1016(2)
O5A O 0.3663(4) -0.1703(3) 0.2669(2)
C15A C 0.1180(4) -0.7163(3) 0.0537(3)
C16A C 0.1436(4) -0.5765(3) 0.0799(2)
C17A C 0.2733(5) -0.5036(3) 0.0412(3)
H16A H 0.3398 -0.5409 -0.0060
C18A C 0.3052(5) -0.3761(4) 0.0719(3)
H17A H 0.3953 -0.3285 0.0479
C19A C 0.2007(4) -0.3201(3) 0.1392(3)
C20A C 0.0660(4) -0.3902(4) 0.1748(3)
H18A H -0.0060 -0.3514 0.2177
C21A C 0.0401(4) -0.5182(3) 0.1458(3)
H19A H -0.0485 -0.5664 0.1710
Ag1A_2 Ag 1.16250(4) 0.13053(3) 0.28613(2)
N3A_2 N -0.0553(4) 0.0985(3) 0.3715(2)
O6 O 0.8091(4) 1.9935(3) 1.0614(2)
H20 H 0.898(4) 2.038(4) 1.076(4)
H21 H 0.776(6) 2.022(5) 1.006(2)
O7 O 0.6721(5) 1.6972(4) 1.2292(3)
H22 H 0.592(5) 1.740(5) 1.246(4)
H23 H 0.712(6) 1.730(5) 1.176(3)
loop_
_geom_bond_atom_site_label_1
_geom_bond_atom_site_label_2
_geom_bond_site_symmetry_1
_geom_bond_site_symmetry_2
Ag1 N1 1_555 1_555
S1 O3 1_555 1_555
N1 N2 1_555 1_555
N2 C3 1_555 1_555
N3 Ag1 1_555 1_555
N4 N3 1_555 1_555
O1 H1 1_555 1_555
O2 C15 1_555 1_555
O3 Ag1 1_555 1_555
O4 S1 1_555 1_555
O5 S1 1_555 1_555
C1 N1 1_555 1_555
H2 C1 1_555 1_555
C2 C1 1_555 1_555
H3 C2 1_555 1_555
C3 C2 1_555 1_555
H4 C3 1_555 1_555
C4 N2 1_555 1_555
H5 C4 1_555 1_555
H6 C4 1_555 1_555
C5 C4 1_555 1_555
C6 C5 1_555 1_555
H7 C6 1_555 1_555
C7 C6 1_555 1_555
H8 C7 1_555 1_555
C8 N3 1_555 1_555
H9 C8 1_555 1_555
C9 C8 1_555 1_555
H10 C9 1_555 1_555
C10 N4 1_555 1_555
H11 C10 1_555 1_555
C11 N4 1_555 1_555
H12 C11 1_555 1_555
H13 C11 1_555 1_555
C12 C11 1_555 1_555
C13 C12 1_555 1_555
H14 C13 1_555 1_555
C14 C13 1_555 1_555
H15 C14 1_555 1_555
C15 O1 1_555 1_555
C16 C15 1_555 1_555
C17 C16 1_555 1_555
H16 C17 1_555 1_555
C18 C17 1_555 1_555
H17 C18 1_555 1_555
C19 S1 1_555 1_555
C20 C19 1_555 1_555
H18 C20 1_555 1_555
C21 C16 1_555 1_555
H19 C21 1_555 1_555
O6 H20 1_555 1_555
H21 O6 1_555 1_555
O7 H22 1_555 1_555
H23 O7 1_555 1_555
N1A N2A 1_555 1_555
N2A C3A 1_555 1_555
C1A N1A 1_555 1_555
H2A C1A 1_555 1_555
C2A C1A 1_555 1_555
H3A C2A 1_555 1_555
C3A C2A 1_555 1_555
H4A C3A 1_555 1_555
C4A N2A 1_555 1_555
H5A C4A 1_555 1_555
H6A C4A 1_555 1_555
C5A C7 1_555 1_555
C6A C5A 1_555 1_555
H7A C6A 1_555 1_555
C7A C5 1_555 1_555
H8A C7A 1_555 1_555
N3A N4A 1_555 1_555
N4A C10A 1_555 1_555
C8A N3A 1_555 1_555
H9A C8A 1_555 1_555
C9A C8A 1_555 1_555
H10A C9A 1_555 1_555
C10A C9A 1_555 1_555
H11A C10A 1_555 1_555
C11A N4A 1_555 1_555
H12A C11A 1_555 1_555
H13A C11A 1_555 1_555
C12A C14 1_555 1_555
C13A C12A 1_555 1_555
H14A C13A 1_555 1_555
C14A C12 1_555 1_555
H15A C14A 1_555 1_555
Ag1A N1A 1_555 1_555
S1A O3A 1_555 1_555
O1A H1A 1_555 1_555
O2A C15A 1_555 1_555
O3A Ag1A 1_555 1_555
O4A S1A 1_555 1_555
O5A S1A 1_555 1_555
C15A O1A 1_555 1_555
C16A C15A 1_555 1_555
C17A C16A 1_555 1_555
H16A C17A 1_555 1_555
C18A C17A 1_555 1_555
H17A C18A 1_555 1_555
C19A S1A 1_555 1_555
C20A C19A 1_555 1_555
H18A C20A 1_555 1_555
C21A C16A 1_555 1_555
H19A C21A 1_555 1_555
Ag1A_2 N3A 1_555 1_555
N3A_2 Ag1A 1_555 1_555
C9 C10 1_555 1_555
C18 C19 1_555 1_555
C20 C21 1_555 1_555
C4A C5A 1_555 1_555
C6A C7A 1_555 1_555
C11A C12A 1_555 1_555
C13A C14A 1_555 1_555
C18A C19A 1_555 1_555
C20A C21A 1_555 1_555

#END
