
#######################################################################
#
#                 Cambridge Crystallographic Data Centre
#                                CCDC 
#
#######################################################################
#
# If this CIF has been generated from an entry in the Cambridge 
# Structural Database, then it will include bibliographic, chemical, 
# crystal, experimental, refinement or atomic coordinate data resulting 
# from the CCDC's data processing and validation procedures.
#
#######################################################################

data_QOBNOM
_symmetry_cell_setting           triclinic
_symmetry_space_group_name_H-M   'P -1'
_symmetry_Int_Tables_number      2
_space_group_name_Hall           '-P 1'
loop_
_symmetry_equiv_pos_site_id
_symmetry_equiv_pos_as_xyz
1 x,y,z
2 -x,-y,-z
_cell_length_a                   10.4154(8)
_cell_length_b                   11.0057(8)
_cell_length_c                   11.9310(9)
_cell_angle_alpha                71.442(2)
_cell_angle_beta                 66.430(2)
_cell_angle_gamma                65.456(2)
_cell_volume                     1121.12
loop_
_atom_site_label
_atom_site_type_symbol
_atom_site_fract_x
_atom_site_fract_y
_atom_site_fract_z
Zn1 Zn 0.09998(4) 0.05506(3) 0.38745(3)
F1 F 0.1844(2) 0.5621(2) -0.08884(17)
O1 O 0.1927(3) 0.0207(2) 0.5232(2)
O2 O 0.0327(2) -0.0529(2) 0.6978(2)
O3 O 0.0700(3) -0.2114(2) 0.5263(2)
O4 O 0.2355(3) -0.1376(2) 0.3590(2)
N1 N 0.2131(3) 0.1743(2) 0.2526(2)
C1 C 0.2524(3) 0.1779(3) 0.1303(3)
H1 H 0.2201 0.1262 0.1034
C2 C 0.3379(3) 0.2536(3) 0.0418(3)
H2 H 0.3636 0.2529 -0.0440
C3 C 0.3865(3) 0.3310(3) 0.0783(3)
C4 C 0.3408(3) 0.3302(3) 0.2056(3)
H3 H 0.3677 0.3841 0.2350
C5 C 0.2568(3) 0.2511(3) 0.2883(3)
H4 H 0.2283 0.2509 0.3745
C6 C 0.4777(3) 0.4162(3) -0.0148(3)
H5 H 0.5195 0.3904 -0.0985
C7 C 0.4000(3) 0.5763(3) -0.0240(3)
H6 H 0.4098 0.6213 -0.1128
C8 C 0.2409(3) 0.6228(3) 0.0543(3)
C9 C 0.1869(3) 0.6721(3) 0.1646(3)
H7 H 0.2538 0.6832 0.1932
C10 C 0.0359(4) 0.7057(3) 0.2339(3)
H8 H 0.0012 0.7398 0.3083
C11 C -0.0622(4) 0.6890(3) 0.1939(3)
H9 H -0.1642 0.7104 0.2417
C12 C -0.0128(4) 0.6415(3) 0.0847(3)
H10 H -0.0797 0.6307 0.0560
C13 C 0.1351(3) 0.6105(3) 0.0189(3)
C14 C 0.1455(3) -0.0170(3) 0.6395(3)
C15 C 0.2307(3) -0.0149(3) 0.7154(3)
C16 C 0.1850(4) -0.0509(3) 0.8443(3)
H11 H 0.1028 -0.0830 0.8851
C17 C 0.2586(4) -0.0406(3) 0.9143(3)
H12 H 0.2262 -0.0643 1.0024
C18 C 0.3799(4) 0.0049(3) 0.8538(3)
H13 H 0.4302 0.0123 0.9012
C19 C 0.4284(4) 0.0397(3) 0.7249(3)
H14 H 0.5119 0.0700 0.6842
C20 C 0.3535(3) 0.0297(3) 0.6560(3)
H15 H 0.3861 0.0534 0.5679
C21 C 0.1909(3) -0.2303(3) 0.4396(3)
C22 C 0.2894(3) -0.3745(3) 0.4306(3)
C23 C 0.4382(4) -0.4044(3) 0.3565(3)
H16 H 0.4766 -0.3327 0.3083
C24 C 0.5303(4) -0.5388(4) 0.3530(3)
H17 H 0.6315 -0.5586 0.3033
C25 C 0.4743(4) -0.6437(4) 0.4218(3)
H18 H 0.5372 -0.7353 0.4190
C26 C 0.3265(4) -0.6153(3) 0.4948(3)
H19 H 0.2883 -0.6874 0.5416
C27 C 0.2337(4) -0.4803(3) 0.4993(3)
H20 H 0.1326 -0.4609 0.5493
F1A F 0.8156(2) 0.4379(2) 0.08884(17)
N1A N 0.7869(3) 0.8257(2) -0.2526(2)
C1A C 0.7476(3) 0.8221(3) -0.1303(3)
H1A H 0.7799 0.8738 -0.1034
C2A C 0.6621(3) 0.7464(3) -0.0418(3)
H2A H 0.6364 0.7471 0.0440
C3A C 0.6135(3) 0.6690(3) -0.0783(3)
C4A C 0.6592(3) 0.6698(3) -0.2056(3)
H3A H 0.6323 0.6159 -0.2350
C5A C 0.7432(3) 0.7489(3) -0.2883(3)
H4A H 0.7717 0.7491 -0.3745
C6A C 0.5223(3) 0.5838(3) 0.0148(3)
H5A H 0.4805 0.6096 0.0985
C7A C 0.6000(3) 0.4237(3) 0.0240(3)
H6A H 0.5902 0.3787 0.1128
C8A C 0.7591(3) 0.3772(3) -0.0543(3)
C9A C 0.8131(3) 0.3279(3) -0.1646(3)
H7A H 0.7462 0.3168 -0.1932
C10A C 0.9641(4) 0.2943(3) -0.2339(3)
H8A H 0.9988 0.2602 -0.3083
C11A C 1.0622(4) 0.3110(3) -0.1939(3)
H9A H 1.1642 0.2896 -0.2417
C12A C 1.0128(4) 0.3585(3) -0.0847(3)
H10A H 1.0797 0.3693 -0.0560
C13A C 0.8649(3) 0.3895(3) -0.0189(3)
Zn1A Zn -0.09998(4) -0.05506(3) 0.61255(3)
O1A O -0.1927(3) -0.0207(2) 0.4768(2)
O2A O -0.0327(2) 0.0529(2) 0.3022(2)
O3A O -0.0700(3) 0.2114(2) 0.4737(2)
O4A O -0.2355(3) 0.1376(2) 0.6410(2)
C14A C -0.1455(3) 0.0170(3) 0.3605(3)
C15A C -0.2307(3) 0.0149(3) 0.2846(3)
C16A C -0.1850(4) 0.0509(3) 0.1557(3)
H11A H -0.1028 0.0830 0.1149
C17A C -0.2586(4) 0.0406(3) 0.0857(3)
H12A H -0.2262 0.0643 -0.0024
C18A C -0.3799(4) -0.0049(3) 0.1462(3)
H13A H -0.4302 -0.0123 0.0988
C19A C -0.4284(4) -0.0397(3) 0.2751(3)
H14A H -0.5119 -0.0700 0.3158
C20A C -0.3535(3) -0.0297(3) 0.3440(3)
H15A H -0.3861 -0.0534 0.4321
C21A C -0.1909(3) 0.2303(3) 0.5604(3)
C22A C -0.2894(3) 0.3745(3) 0.5694(3)
C23A C -0.4382(4) 0.4044(3) 0.6435(3)
H16A H -0.4766 0.3327 0.6917
C24A C -0.5303(4) 0.5388(4) 0.6470(3)
H17A H -0.6315 0.5586 0.6967
C25A C -0.4743(4) 0.6437(4) 0.5782(3)
H18A H -0.5372 0.7353 0.5810
C26A C -0.3265(4) 0.6153(3) 0.5052(3)
H19A H -0.2883 0.6874 0.4584
C27A C -0.2337(4) 0.4803(3) 0.5007(3)
H20A H -0.1326 0.4609 0.4507
Zn1A_2 Zn 0.90002(4) 0.94494(3) -0.38745(3)
N1A_2 N -0.2131(3) -0.1743(2) 0.7474(2)
loop_
_geom_bond_atom_site_label_1
_geom_bond_atom_site_label_2
_geom_bond_site_symmetry_1
_geom_bond_site_symmetry_2
Zn1 O1 1_555 1_555
F1 C13 1_555 1_555
O1 C14 1_555 1_555
O2 C14 1_555 1_555
O3 C21 1_555 1_555
O4 Zn1 1_555 1_555
N1 Zn1 1_555 1_555
C1 N1 1_555 1_555
H1 C1 1_555 1_555
C2 C1 1_555 1_555
H2 C2 1_555 1_555
C3 C2 1_555 1_555
C4 C3 1_555 1_555
H3 C4 1_555 1_555
C5 N1 1_555 1_555
H4 C5 1_555 1_555
C6 C3 1_555 1_555
H5 C6 1_555 1_555
C7 C6 1_555 1_555
H6 C7 1_555 1_555
C8 C7 1_555 1_555
C9 C8 1_555 1_555
H7 C9 1_555 1_555
C10 C9 1_555 1_555
H8 C10 1_555 1_555
C11 C10 1_555 1_555
H9 C11 1_555 1_555
C12 C11 1_555 1_555
H10 C12 1_555 1_555
C13 C8 1_555 1_555
C14 C15 1_555 1_555
C15 C16 1_555 1_555
C16 H11 1_555 1_555
C17 C16 1_555 1_555
H12 C17 1_555 1_555
C18 C17 1_555 1_555
H13 C18 1_555 1_555
C19 C18 1_555 1_555
H14 C19 1_555 1_555
C20 C15 1_555 1_555
H15 C20 1_555 1_555
C21 O4 1_555 1_555
C22 C21 1_555 1_555
C23 C22 1_555 1_555
H16 C23 1_555 1_555
C24 C23 1_555 1_555
H17 C24 1_555 1_555
C25 C24 1_555 1_555
H18 C25 1_555 1_555
C26 C25 1_555 1_555
H19 C26 1_555 1_555
C27 C22 1_555 1_555
H20 C27 1_555 1_555
F1A C13A 1_555 1_555
N1A C1A 1_555 1_555
C1A H1A 1_555 1_555
C2A C1A 1_555 1_555
H2A C2A 1_555 1_555
C3A C2A 1_555 1_555
C4A C3A 1_555 1_555
H3A C4A 1_555 1_555
C5A N1A 1_555 1_555
H4A C5A 1_555 1_555
C6A C7 1_555 1_555
H5A C6A 1_555 1_555
C7A C6 1_555 1_555
H6A C7A 1_555 1_555
C8A C7A 1_555 1_555
C9A C8A 1_555 1_555
H7A C9A 1_555 1_555
C10A C9A 1_555 1_555
H8A C10A 1_555 1_555
C11A C10A 1_555 1_555
H9A C11A 1_555 1_555
C12A C11A 1_555 1_555
H10A C12A 1_555 1_555
C13A C8A 1_555 1_555
Zn1A O2 1_555 1_555
O1A Zn1A 1_555 1_555
O2A Zn1 1_555 1_555
O3A Zn1 1_555 1_555
O4A Zn1A 1_555 1_555
C14A O1A 1_555 1_555
C15A C14A 1_555 1_555
C16A C15A 1_555 1_555
H11A C16A 1_555 1_555
C17A C16A 1_555 1_555
H12A C17A 1_555 1_555
C18A C17A 1_555 1_555
H13A C18A 1_555 1_555
C19A C18A 1_555 1_555
H14A C19A 1_555 1_555
C20A C15A 1_555 1_555
H15A C20A 1_555 1_555
C21A O3A 1_555 1_555
C22A C21A 1_555 1_555
C23A C22A 1_555 1_555
H16A C23A 1_555 1_555
C24A C23A 1_555 1_555
H17A C24A 1_555 1_555
C25A C24A 1_555 1_555
H18A C25A 1_555 1_555
C26A C25A 1_555 1_555
H19A C26A 1_555 1_555
C27A C22A 1_555 1_555
H20A C27A 1_555 1_555
Zn1A_2 N1A 1_555 1_555
N1A_2 Zn1A 1_555 1_555
O3 Zn1A 1_555 1_555
C4 C5 1_555 1_555
C12 C13 1_555 1_555
C19 C20 1_555 1_555
C26 C27 1_555 1_555
C3A C6A 1_555 1_555
C4A C5A 1_555 1_555
C6A C7A 1_555 1_555
C12A C13A 1_555 1_555
O2A C14A 1_555 1_555
O4A C21A 1_555 1_555
C19A C20A 1_555 1_555
C26A C27A 1_555 1_555

#END
