
#######################################################################
#
#                 Cambridge Crystallographic Data Centre
#                                CCDC 
#
#######################################################################
#
# If this CIF has been generated from an entry in the Cambridge 
# Structural Database, then it will include bibliographic, chemical, 
# crystal, experimental, refinement or atomic coordinate data resulting 
# from the CCDC's data processing and validation procedures.
#
#######################################################################

data_QOBWIO
_symmetry_cell_setting           monoclinic
_symmetry_space_group_name_H-M   'P 21/c'
_symmetry_Int_Tables_number      14
_space_group_name_Hall           '-P 2ybc'
loop_
_symmetry_equiv_pos_site_id
_symmetry_equiv_pos_as_xyz
1 x,y,z
2 -x,1/2+y,1/2-z
3 -x,-y,-z
4 x,1/2-y,1/2+z
_cell_length_a                   11.175(2)
_cell_length_b                   6.3807(13)
_cell_length_c                   7.9800(16)
_cell_angle_alpha                90
_cell_angle_beta                 103.96(3)
_cell_angle_gamma                90
_cell_volume                     552.202
loop_
_atom_site_label
_atom_site_type_symbol
_atom_site_fract_x
_atom_site_fract_y
_atom_site_fract_z
Ag1 Ag 0.47373(3) 0.18855(6) 0.08629(5)
S1 S 0.60499(11) 0.14715(17) 0.41845(14)
S2 S 0.84954(11) 0.24249(19) 0.34615(16)
N1 N 0.6988(3) 0.5340(6) 0.3936(4)
C1 C 0.7107(4) 0.3348(7) 0.3900(5)
C2 C 0.8831(4) 0.5043(7) 0.2839(6)
H1 H 0.9703 0.5349 0.3244
H2 H 0.8597 0.5197 0.1593
C3 C 0.8068(5) 0.6504(7) 0.3691(7)
Ag1B Ag 0.52627(3) -0.18855(6) -0.08629(5)
Ag1C Ag 0.47373(3) 0.31145(6) 0.58629(5)
Ag1A Ag 0.52627(3) 0.68855(6) 0.41371(5)
S1C S 0.60499(11) 0.35285(17) -0.08155(14)
N1A N 0.3012(3) 0.0340(6) 0.1064(4)
loop_
_geom_bond_atom_site_label_1
_geom_bond_atom_site_label_2
_geom_bond_site_symmetry_1
_geom_bond_site_symmetry_2
Ag1 S1 1_555 1_555
S1 C1 1_555 1_555
S2 C1 1_555 1_555
N1 C1 1_555 1_555
C2 S2 1_555 1_555
H1 C2 1_555 1_555
H2 C2 1_555 1_555
C3 N1 1_555 1_555
Ag1B Ag1 1_555 1_555
Ag1C S1 1_555 1_555
Ag1A N1 1_555 1_555
S1C Ag1 1_555 1_555
N1A Ag1 1_555 1_555
C2 C3 1_555 1_555
Ag1C Ag1A 1_555 1_555

#END
