
#######################################################################
#
#                 Cambridge Crystallographic Data Centre
#                                CCDC 
#
#######################################################################
#
# If this CIF has been generated from an entry in the Cambridge 
# Structural Database, then it will include bibliographic, chemical, 
# crystal, experimental, refinement or atomic coordinate data resulting 
# from the CCDC's data processing and validation procedures.
#
#######################################################################

data_QOBZUD
_symmetry_cell_setting           monoclinic
_symmetry_space_group_name_H-M   'C 2/c'
_symmetry_Int_Tables_number      15
_space_group_name_Hall           '-C 2yn'
loop_
_symmetry_equiv_pos_site_id
_symmetry_equiv_pos_as_xyz
1 x,y,z
2 1/2+x,1/2+y,z
3 -x,y,1/2-z
4 1/2-x,1/2+y,1/2-z
5 -x,-y,-z
6 1/2-x,1/2-y,-z
7 x,-y,1/2+z
8 1/2+x,1/2-y,1/2+z
_cell_length_a                   23.2321(10)
_cell_length_b                   17.7019(7)
_cell_length_c                   16.8224(7)
_cell_angle_alpha                90
_cell_angle_beta                 129.237(2)
_cell_angle_gamma                90
_cell_volume                     5358.44
loop_
_atom_site_label
_atom_site_type_symbol
_atom_site_fract_x
_atom_site_fract_y
_atom_site_fract_z
Cd1 Cd 0.0000 0.0000 0.0000
O1 O 0.0410(5) -0.0272(8) -0.0933(5)
O2 O 0.0991(4) -0.0098(3) -0.1462(5)
O3 O 0.0492(4) 0.0723(6) -0.1251(10)
N1 N 0.1181(3) -0.0524(2) 0.1384(3)
N2 N 0.2764(3) -0.1326(3) 0.4872(3)
N3 N 0.3674(3) -0.2222(3) 1.1415(3)
N4 N 0.4469(2) -0.3802(2) 1.4248(3)
N5 N 0.0650(3) 0.0060(5) -0.1233(5)
C1 C 0.1742(4) -0.0522(4) 0.1364(4)
H1 H 0.1650 -0.0370 0.0764
C2 C 0.2447(4) -0.0733(4) 0.2178(5)
H2 H 0.2821 -0.0728 0.2122
C3 C 0.2603(3) -0.0951(3) 0.3074(4)
H3 H 0.3083 -0.1086 0.3642
C4 C 0.2024(3) -0.0965(3) 0.3116(4)
C5 C 0.1326(3) -0.0746(3) 0.2250(4)
H4 H 0.0937 -0.0755 0.2275
C6 C 0.2130(4) -0.1195(3) 0.4038(4)
H5 H 0.1717 -0.1245 0.4005
C7 C 0.2851(3) -0.1489(3) 0.5776(4)
C8 C 0.3444(3) -0.1925(3) 0.6513(4)
C9 C 0.3550(3) -0.2070(3) 0.7415(4)
H6 H 0.3944 -0.2378 0.7911
C10 C 0.3089(3) -0.1773(3) 0.7600(4)
C11 C 0.2479(3) -0.1369(3) 0.6816(4)
H7 H 0.2135 -0.1196 0.6886
C12 C 0.2373(3) -0.1218(4) 0.5921(4)
H8 H 0.1969 -0.0927 0.5410
C13 C 0.3231(3) -0.1911(3) 0.8583(4)
C14 C 0.3634(3) -0.2521(3) 0.9189(4)
H9 H 0.3813 -0.2864 0.8973
C15 C 0.3781(4) -0.2640(3) 1.0117(4)
H10 H 0.4068 -0.3052 1.0522
C16 C 0.3508(3) -0.2155(3) 1.0446(4)
C17 C 0.3098(3) -0.1525(3) 0.9853(4)
C18 C 0.2953(3) -0.1421(3) 0.8926(4)
H11 H 0.2662 -0.1012 0.8517
C19 C 0.3967(3) -0.2246(4) 0.6374(5)
H12 H 0.4354 -0.2518 0.6981
H13 H 0.4182 -0.1844 0.6255
H14 H 0.3703 -0.2583 0.5797
C20 C 0.2803(4) -0.0970(4) 1.0199(5)
H15 H 0.2953 -0.1123 1.0853
H16 H 0.2270 -0.0956 0.9705
H17 H 0.2998 -0.0476 1.0258
C21 C 0.3799(3) -0.2864(3) 1.1826(4)
H18 H 0.3751 -0.3291 1.1465
C22 C 0.4016(3) -0.2956(3) 1.2837(4)
C23 C 0.4033(4) -0.2376(3) 1.3391(5)
H19 H 0.3888 -0.1893 1.3111
C24 C 0.4264(4) -0.2507(3) 1.4354(5)
H20 H 0.4271 -0.2116 1.4729
C25 C 0.4487(3) -0.3224(3) 1.4766(4)
H21 H 0.4655 -0.3305 1.5429
C26 C 0.4235(3) -0.3665(3) 1.3297(4)
H22 H 0.4219 -0.4066 1.2927
Cd1G Cd 0.5000 -0.5000 1.5000
Cd1G_2 Cd -0.5000 0.5000 -1.5000
O1D O -0.0410(5) 0.0272(8) 0.0933(5)
O2D O -0.0991(4) 0.0098(3) 0.1462(5)
O3D O -0.0492(4) -0.0723(6) 0.1251(10)
N1D N -0.1181(3) 0.0524(2) -0.1384(3)
N2D N -0.2764(3) 0.1326(3) -0.4872(3)
N3D N -0.3674(3) 0.2222(3) -1.1415(3)
N4D N -0.4469(2) 0.3802(2) -1.4248(3)
N4G N -0.0531(2) -0.1198(2) -0.0752(3)
N4C N 0.0531(2) 0.1198(2) 0.0752(3)
N5D N -0.0650(3) -0.0060(5) 0.1233(5)
C1D C -0.1742(4) 0.0522(4) -0.1364(4)
H1D H -0.1650 0.0370 -0.0764
C2D C -0.2447(4) 0.0733(4) -0.2178(5)
H2D H -0.2821 0.0728 -0.2122
C3D C -0.2603(3) 0.0951(3) -0.3074(4)
H3D H -0.3083 0.1086 -0.3642
C4D C -0.2024(3) 0.0965(3) -0.3116(4)
C5D C -0.1326(3) 0.0746(3) -0.2250(4)
H4D H -0.0937 0.0755 -0.2275
C6D C -0.2130(4) 0.1195(3) -0.4038(4)
H5D H -0.1717 0.1245 -0.4005
C7D C -0.2851(3) 0.1489(3) -0.5776(4)
C8D C -0.3444(3) 0.1925(3) -0.6513(4)
C9D C -0.3550(3) 0.2070(3) -0.7415(4)
H6D H -0.3944 0.2378 -0.7911
C10D C -0.3089(3) 0.1773(3) -0.7600(4)
C11D C -0.2479(3) 0.1369(3) -0.6816(4)
H7D H -0.2135 0.1196 -0.6886
C12D C -0.2373(3) 0.1218(4) -0.5921(4)
H8D H -0.1969 0.0927 -0.5410
C13D C -0.3231(3) 0.1911(3) -0.8583(4)
C14D C -0.3634(3) 0.2521(3) -0.9189(4)
H9D H -0.3813 0.2864 -0.8973
C15D C -0.3781(4) 0.2640(3) -1.0117(4)
H10D H -0.4068 0.3052 -1.0522
C16D C -0.3508(3) 0.2155(3) -1.0446(4)
C17D C -0.3098(3) 0.1525(3) -0.9853(4)
C18D C -0.2953(3) 0.1421(3) -0.8926(4)
H11D H -0.2662 0.1012 -0.8517
C19D C -0.3967(3) 0.2246(4) -0.6374(5)
H12D H -0.4354 0.2518 -0.6981
H13D H -0.4182 0.1844 -0.6255
H14D H -0.3703 0.2583 -0.5797
C20D C -0.2803(4) 0.0970(4) -1.0199(5)
H15D H -0.2953 0.1123 -1.0853
H16D H -0.2270 0.0956 -0.9705
H17D H -0.2998 0.0476 -1.0258
C21D C -0.3799(3) 0.2864(3) -1.1826(4)
H18D H -0.3751 0.3291 -1.1465
C22D C -0.4016(3) 0.2956(3) -1.2837(4)
C23D C -0.4033(4) 0.2376(3) -1.3391(5)
H19D H -0.3888 0.1893 -1.3111
C24D C -0.4264(4) 0.2507(3) -1.4354(5)
H20D H -0.4271 0.2116 -1.4729
C25D C -0.4487(3) 0.3224(3) -1.4766(4)
H21D H -0.4655 0.3305 -1.5429
C26D C -0.4235(3) 0.3665(3) -1.3297(4)
H22D H -0.4219 0.4066 -1.2927
O4 O 0.0651(7) 0.5549(7) 0.6519(9)
C27 C 0.0811(11) 0.4766(11) 0.6747(16)
H23 H 0.1146 0.4677 0.7482
H24 H 0.1027 0.4558 0.6455
C28 C 0.0066(11) 0.4443(11) 0.6252(15)
H25 H 0.0094 0.4126 0.6745
H26 H -0.0072 0.4124 0.5686
C29 C -0.0526(14) 0.5021(9) 0.586(2)
H27 H -0.0892 0.5010 0.5114
H28 H -0.0773 0.4958 0.6149
C30 C -0.0076(11) 0.5710(11) 0.6227(16)
H29 H -0.0327 0.6091 0.5691
H30 H -0.0016 0.5907 0.6814
loop_
_geom_bond_atom_site_label_1
_geom_bond_atom_site_label_2
_geom_bond_site_symmetry_1
_geom_bond_site_symmetry_2
Cd1 O1 1_555 1_555
O1 N5 1_555 1_555
O2 N5 1_555 1_555
O3 N5 1_555 1_555
N1 Cd1 1_555 1_555
N2 C6 1_555 1_555
N3 C16 1_555 1_555
N4 C25 1_555 1_555
C1 N1 1_555 1_555
H1 C1 1_555 1_555
C2 C1 1_555 1_555
H2 C2 1_555 1_555
C3 C2 1_555 1_555
H3 C3 1_555 1_555
C4 C3 1_555 1_555
C5 N1 1_555 1_555
H4 C5 1_555 1_555
C6 C4 1_555 1_555
H5 C6 1_555 1_555
C7 N2 1_555 1_555
C8 C7 1_555 1_555
C9 C8 1_555 1_555
H6 C9 1_555 1_555
C10 C9 1_555 1_555
C11 C10 1_555 1_555
H7 C11 1_555 1_555
C12 C7 1_555 1_555
H8 C12 1_555 1_555
C13 C10 1_555 1_555
C14 C13 1_555 1_555
H9 C14 1_555 1_555
C15 C14 1_555 1_555
H10 C15 1_555 1_555
C16 C15 1_555 1_555
C17 C16 1_555 1_555
C18 C13 1_555 1_555
H11 C18 1_555 1_555
C19 C8 1_555 1_555
H12 C19 1_555 1_555
H13 C19 1_555 1_555
H14 C19 1_555 1_555
C20 C17 1_555 1_555
H15 C20 1_555 1_555
H16 C20 1_555 1_555
H17 C20 1_555 1_555
C21 N3 1_555 1_555
H18 C21 1_555 1_555
C22 C21 1_555 1_555
C23 C22 1_555 1_555
H19 C23 1_555 1_555
C24 C23 1_555 1_555
H20 C24 1_555 1_555
C25 C24 1_555 1_555
H21 C25 1_555 1_555
C26 N4 1_555 1_555
H22 C26 1_555 1_555
O4 C27 1_555 1_555
C27 H23 1_555 1_555
H24 C27 1_555 1_555
C28 C27 1_555 1_555
H25 C28 1_555 1_555
H26 C28 1_555 1_555
C29 C28 1_555 1_555
H27 C29 1_555 1_555
H28 C29 1_555 1_555
C30 O4 1_555 1_555
H29 C30 1_555 1_555
H30 C30 1_555 1_555
Cd1G N4 1_555 1_555
Cd1G_2 N4D 1_555 1_555
O1D Cd1 1_555 1_555
O2D N5D 1_555 1_555
O3D N5D 1_555 1_555
N1D Cd1 1_555 1_555
N2D C6D 1_555 1_555
N3D C16D 1_555 1_555
N4D C25D 1_555 1_555
N4G Cd1 1_555 1_555
N4C Cd1 1_555 1_555
N5D O1D 1_555 1_555
C1D N1D 1_555 1_555
H1D C1D 1_555 1_555
C2D C1D 1_555 1_555
H2D C2D 1_555 1_555
C3D C2D 1_555 1_555
H3D C3D 1_555 1_555
C4D C3D 1_555 1_555
C5D N1D 1_555 1_555
H4D C5D 1_555 1_555
C6D C4D 1_555 1_555
H5D C6D 1_555 1_555
C7D N2D 1_555 1_555
C8D C7D 1_555 1_555
C9D C8D 1_555 1_555
H6D C9D 1_555 1_555
C10D C9D 1_555 1_555
C11D C10D 1_555 1_555
H7D C11D 1_555 1_555
C12D C7D 1_555 1_555
H8D C12D 1_555 1_555
C13D C10D 1_555 1_555
C14D C13D 1_555 1_555
H9D C14D 1_555 1_555
C15D C14D 1_555 1_555
H10D C15D 1_555 1_555
C16D C15D 1_555 1_555
C17D C16D 1_555 1_555
C18D C13D 1_555 1_555
H11D C18D 1_555 1_555
C19D C8D 1_555 1_555
H12D C19D 1_555 1_555
H13D C19D 1_555 1_555
H14D C19D 1_555 1_555
C20D C17D 1_555 1_555
H15D C20D 1_555 1_555
H16D C20D 1_555 1_555
H17D C20D 1_555 1_555
C21D N3D 1_555 1_555
H18D C21D 1_555 1_555
C22D C21D 1_555 1_555
C23D C22D 1_555 1_555
H19D C23D 1_555 1_555
C24D C23D 1_555 1_555
H20D C24D 1_555 1_555
C25D C24D 1_555 1_555
H21D C25D 1_555 1_555
C26D N4D 1_555 1_555
H22D C26D 1_555 1_555
C4 C5 1_555 1_555
C11 C12 1_555 1_555
C17 C18 1_555 1_555
C22 C26 1_555 1_555
C29 C30 1_555 1_555
C4D C5D 1_555 1_555
C11D C12D 1_555 1_555
C17D C18D 1_555 1_555
C22D C26D 1_555 1_555

#END
