
#######################################################################
#
#                 Cambridge Crystallographic Data Centre
#                                CCDC 
#
#######################################################################
#
# If this CIF has been generated from an entry in the Cambridge 
# Structural Database, then it will include bibliographic, chemical, 
# crystal, experimental, refinement or atomic coordinate data resulting 
# from the CCDC's data processing and validation procedures.
#
#######################################################################

data_QOBZIR
_symmetry_cell_setting           triclinic
_symmetry_space_group_name_H-M   'P -1'
_symmetry_Int_Tables_number      2
_space_group_name_Hall           '-P 1'
loop_
_symmetry_equiv_pos_site_id
_symmetry_equiv_pos_as_xyz
1 x,y,z
2 -x,-y,-z
_cell_length_a                   10.5657(12)
_cell_length_b                   12.5313(18)
_cell_length_c                   14.284(3)
_cell_angle_alpha                83.420(4)
_cell_angle_beta                 86.458(4)
_cell_angle_gamma                84.280(7)
_cell_volume                     1866.99
loop_
_atom_site_label
_atom_site_type_symbol
_atom_site_fract_x
_atom_site_fract_y
_atom_site_fract_z
Cd1 Cd 0.02848(6) 0.34808(5) 0.72938(4)
O1 O -0.1098(7) 0.3071(5) 0.8680(5)
O2 O 0.0867(9) 0.3318(6) 0.8913(5)
O3 O -0.0510(10) 0.2980(10) 1.0121(6)
O4 O -0.0290(6) 0.3603(5) 0.5660(4)
O5 O -0.1876(6) 0.3227(5) 0.6634(4)
O6 O -0.2023(6) 0.3177(6) 0.5120(5)
N1 N -0.0340(6) 0.5323(5) 0.7369(4)
N2 N -0.2627(6) 0.8119(5) 0.9034(4)
N3 N -0.7619(7) 1.0463(5) 1.4761(5)
N4 N -0.9324(6) 1.1583(5) 1.7243(5)
N5 N 0.2317(6) 0.3684(5) 0.6507(5)
N6 N 0.4794(6) 0.4182(5) 0.3533(4)
N7 N -0.0267(11) 0.3100(8) 0.9285(7)
N8 N -0.1427(7) 0.3325(5) 0.5806(5)
C1 C -0.0990(8) 0.5700(7) 0.8141(6)
H1 H -0.1073 0.5231 0.8690
C2 C -0.1537(8) 0.6766(6) 0.8136(5)
C3 C -0.1417(8) 0.7438(7) 0.7306(6)
H2 H -0.1782 0.8147 0.7269
C4 C -0.0756(9) 0.7057(7) 0.6529(6)
H3 H -0.0663 0.7511 0.5972
C5 C -0.0237(8) 0.6009(7) 0.6582(5)
H4 H 0.0204 0.5763 0.6053
C6 C -0.2242(8) 0.7123(7) 0.8997(6)
H5 H -0.2403 0.6620 0.9511
C7 C -0.3363(8) 0.8414(7) 0.9856(5)
C8 C -0.3109(8) 0.9348(7) 1.0223(5)
C9 C -0.3846(7) 0.9657(6) 1.1012(5)
H6 H -0.3660 1.0269 1.1269
C10 C -0.4839(8) 0.9096(6) 1.1431(5)
C11 C -0.5100(8) 0.8169(6) 1.1038(5)
H7 H -0.5770 0.7784 1.1294
C12 C -0.4365(8) 0.7824(6) 1.0270(5)
H8 H -0.4534 0.7199 1.0026
C13 C -0.5610(8) 0.9447(6) 1.2287(5)
C14 C -0.6774(8) 0.9034(7) 1.2602(6)
H9 H -0.7104 0.8545 1.2261
C15 C -0.7440(8) 0.9344(6) 1.3415(6)
H10 H -0.8201 0.9056 1.3615
C16 C -0.6964(8) 1.0093(6) 1.3934(5)
C17 C -0.5823(9) 1.0552(6) 1.3622(6)
C18 C -0.5166(8) 1.0202(6) 1.2818(6)
H11 H -0.4397 1.0481 1.2624
C19 C -0.2051(9) 1.0010(8) 0.9791(6)
H12 H -0.2016 1.0620 1.0135
H13 H -0.2215 1.0256 0.9144
H14 H -0.1252 0.9572 0.9819
C20 C -0.5320(10) 1.1363(8) 1.4176(7)
H15 H -0.5904 1.1501 1.4699
H16 H -0.5231 1.2023 1.3774
H17 H -0.4505 1.1080 1.4405
C21 C -0.8038(8) 0.9789(7) 1.5396(6)
H18 H -0.7962 0.9063 1.5303
C22 C -0.8653(8) 1.0129(6) 1.6293(6)
C23 C -0.9005(8) 0.9399(7) 1.7014(6)
H19 H -0.8884 0.8667 1.6945
C24 C -0.9552(9) 0.9741(7) 1.7868(6)
H20 H -0.9811 0.9250 1.8363
C25 C -0.9688(8) 1.0848(7) 1.7936(6)
H21 H -1.0051 1.1089 1.8493
C26 C -0.8807(8) 1.1221(7) 1.6428(6)
H22 H -0.8545 1.1722 1.5940
C27 C 0.2491(8) 0.4002(6) 0.5577(5)
H23 H 0.1772 0.4280 0.5253
C28 C 0.3648(7) 0.3951(6) 0.5063(5)
C29 C 0.4716(8) 0.3521(6) 0.5570(6)
H24 H 0.5512 0.3434 0.5258
C30 C 0.4589(9) 0.3232(7) 0.6513(6)
H25 H 0.5298 0.2986 0.6858
C31 C 0.3358(8) 0.3311(7) 0.6960(6)
H26 H 0.3273 0.3091 0.7603
C32 C 0.3742(8) 0.4259(6) 0.4023(5)
H27 H 0.3003 0.4519 0.3717
C33 C 0.4807(7) 0.4465(6) 0.2531(5)
C34 C 0.5880(8) 0.4030(7) 0.2004(6)
C35 C 0.5931(8) 0.4262(7) 0.1024(6)
H28 H 0.6639 0.3981 0.0681
C36 C 0.4959(7) 0.4906(6) 0.0524(5)
C37 C 0.3960(7) 0.5365(6) 0.1072(5)
H29 H 0.3324 0.5825 0.0775
C38 C 0.3886(8) 0.5154(6) 0.2057(6)
H30 H 0.3208 0.5480 0.2400
C39 C 0.6960(9) 0.3331(9) 0.2488(7)
H31 H 0.6774 0.3251 0.3157
H32 H 0.7738 0.3666 0.2351
H33 H 0.7049 0.2634 0.2261
Cd1_2 Cd 1.02848(6) -0.65192(5) -0.27062(4)
Cd1_3 Cd -0.97152(6) 1.34808(5) 1.72938(4)
Cd1A Cd 0.97152(6) 0.65192(5) -0.72938(4)
O1_2 O 0.8902(7) -0.6929(5) -0.1320(5)
O2_2 O 1.0867(9) -0.6682(6) -0.1087(5)
O3_2 O 0.9490(10) -0.7020(10) 0.0121(6)
O4_2 O 0.9710(6) -0.6397(5) -0.4340(4)
O5_2 O 0.8124(6) -0.6773(5) -0.3366(4)
O6_2 O 0.7977(6) -0.6823(6) -0.4880(5)
N1_2 N 0.9660(6) -0.4677(5) -0.2631(4)
N2_2 N 0.7373(6) -0.1881(5) -0.0966(4)
N3_2 N 0.2381(7) 0.0463(5) 0.4761(5)
N4_2 N 0.0676(6) 0.1583(5) 0.7243(5)
N4_3 N 1.0676(6) -0.8417(5) -0.2757(5)
N5A N 0.7683(6) 0.6316(5) -0.6507(5)
N5_2 N 1.2317(6) -0.6316(5) -0.3493(5)
N6A N 0.5206(6) 0.5818(5) -0.3533(4)
N7_2 N 0.9733(11) -0.6900(8) -0.0715(7)
N8_2 N 0.8573(7) -0.6675(5) -0.4194(5)
C1_2 C 0.9010(8) -0.4300(7) -0.1859(6)
H1_2 H 0.8927 -0.4769 -0.1310
C2_2 C 0.8463(8) -0.3234(6) -0.1864(5)
C3_2 C 0.8583(8) -0.2562(7) -0.2694(6)
H2_2 H 0.8218 -0.1853 -0.2731
C4_2 C 0.9244(9) -0.2943(7) -0.3471(6)
H3_2 H 0.9337 -0.2489 -0.4028
C5_2 C 0.9763(8) -0.3991(7) -0.3418(5)
H4_2 H 1.0204 -0.4237 -0.3947
C6_2 C 0.7758(8) -0.2877(7) -0.1003(6)
H5_2 H 0.7597 -0.3380 -0.0489
C7_2 C 0.6637(8) -0.1586(7) -0.0144(5)
C8_2 C 0.6891(8) -0.0652(7) 0.0223(5)
C9_2 C 0.6154(7) -0.0343(6) 0.1012(5)
H6_2 H 0.6340 0.0269 0.1269
C10_2 C 0.5161(8) -0.0904(6) 0.1431(5)
C11_2 C 0.4900(8) -0.1831(6) 0.1038(5)
H7_2 H 0.4230 -0.2216 0.1294
C12_2 C 0.5635(8) -0.2176(6) 0.0270(5)
H8_2 H 0.5466 -0.2801 0.0026
C13_2 C 0.4390(8) -0.0553(6) 0.2287(5)
C14_2 C 0.3226(8) -0.0966(7) 0.2602(6)
H9_2 H 0.2896 -0.1455 0.2261
C15_2 C 0.2560(8) -0.0656(6) 0.3415(6)
H10_2 H 0.1799 -0.0944 0.3615
C16_2 C 0.3036(8) 0.0093(6) 0.3934(5)
C17_2 C 0.4177(9) 0.0552(6) 0.3622(6)
C18_2 C 0.4834(8) 0.0202(6) 0.2818(6)
H11_2 H 0.5603 0.0481 0.2624
C19_2 C 0.7949(9) 0.0010(8) -0.0209(6)
H12_2 H 0.7984 0.0620 0.0135
H13_2 H 0.7785 0.0256 -0.0856
H14_2 H 0.8748 -0.0428 -0.0181
C20_2 C 0.4680(10) 0.1363(8) 0.4176(7)
H15_2 H 0.4096 0.1501 0.4699
H16_2 H 0.4769 0.2023 0.3774
H17_2 H 0.5495 0.1080 0.4405
C21_2 C 0.1962(8) -0.0211(7) 0.5396(6)
H18_2 H 0.2038 -0.0937 0.5303
C22_2 C 0.1347(8) 0.0129(6) 0.6293(6)
C23_2 C 0.0995(8) -0.0601(7) 0.7014(6)
H19_2 H 0.1116 -0.1333 0.6945
C24_2 C 0.0448(9) -0.0259(7) 0.7868(6)
H20_2 H 0.0189 -0.0750 0.8363
C25_2 C 0.0312(8) 0.0848(7) 0.7936(6)
H21_2 H -0.0051 0.1089 0.8493
C26_2 C 0.1193(8) 0.1221(7) 0.6428(6)
H22_2 H 0.1455 0.1722 0.5940
C27A C 0.7509(8) 0.5998(6) -0.5577(5)
H23A H 0.8228 0.5720 -0.5253
C28A C 0.6352(7) 0.6049(6) -0.5063(5)
C29A C 0.5284(8) 0.6479(6) -0.5570(6)
H24A H 0.4488 0.6566 -0.5258
C30A C 0.5411(9) 0.6768(7) -0.6513(6)
H25A H 0.4702 0.7014 -0.6858
C31A C 0.6642(8) 0.6689(7) -0.6960(6)
H26A H 0.6727 0.6909 -0.7603
C32A C 0.6258(8) 0.5741(6) -0.4023(5)
H27A H 0.6997 0.5481 -0.3717
C33A C 0.5193(7) 0.5535(6) -0.2531(5)
C34A C 0.4120(8) 0.5970(7) -0.2004(6)
C35A C 0.4069(8) 0.5738(7) -0.1024(6)
H28A H 0.3361 0.6019 -0.0681
C36A C 0.5041(7) 0.5094(6) -0.0524(5)
C37A C 0.6040(7) 0.4635(6) -0.1072(5)
H29A H 0.6676 0.4175 -0.0775
C38A C 0.6114(8) 0.4846(6) -0.2057(6)
H30A H 0.6792 0.4520 -0.2400
C39A C 0.3040(9) 0.6669(9) -0.2488(7)
H31A H 0.3226 0.6749 -0.3157
H32A H 0.2262 0.6334 -0.2351
H33A H 0.2951 0.7366 -0.2261
loop_
_geom_bond_atom_site_label_1
_geom_bond_atom_site_label_2
_geom_bond_site_symmetry_1
_geom_bond_site_symmetry_2
Cd1 O1 1_555 1_555
O1 N7 1_555 1_555
O2 Cd1 1_555 1_555
O3 N7 1_555 1_555
O4 Cd1 1_555 1_555
O5 Cd1 1_555 1_555
O6 N8 1_555 1_555
N1 Cd1 1_555 1_555
N2 C6 1_555 1_555
N3 C16 1_555 1_555
N4 C25 1_555 1_555
N5 Cd1 1_555 1_555
N6 C32 1_555 1_555
N7 O2 1_555 1_555
N8 O4 1_555 1_555
C1 N1 1_555 1_555
H1 C1 1_555 1_555
C2 C1 1_555 1_555
C3 C2 1_555 1_555
H2 C3 1_555 1_555
C4 C3 1_555 1_555
H3 C4 1_555 1_555
C5 N1 1_555 1_555
H4 C5 1_555 1_555
C6 C2 1_555 1_555
H5 C6 1_555 1_555
C7 N2 1_555 1_555
C8 C7 1_555 1_555
C9 C8 1_555 1_555
H6 C9 1_555 1_555
C10 C9 1_555 1_555
C11 C10 1_555 1_555
H7 C11 1_555 1_555
C12 C7 1_555 1_555
H8 C12 1_555 1_555
C13 C10 1_555 1_555
C14 C13 1_555 1_555
H9 C14 1_555 1_555
C15 C14 1_555 1_555
H10 C15 1_555 1_555
C16 C15 1_555 1_555
C17 C16 1_555 1_555
C18 C13 1_555 1_555
H11 C18 1_555 1_555
C19 C8 1_555 1_555
H12 C19 1_555 1_555
H13 C19 1_555 1_555
H14 C19 1_555 1_555
C20 C17 1_555 1_555
H15 C20 1_555 1_555
H16 C20 1_555 1_555
H17 C20 1_555 1_555
C21 N3 1_555 1_555
H18 C21 1_555 1_555
C22 C21 1_555 1_555
C23 C22 1_555 1_555
H19 C23 1_555 1_555
C24 C23 1_555 1_555
H20 C24 1_555 1_555
C25 C24 1_555 1_555
H21 C25 1_555 1_555
C26 N4 1_555 1_555
H22 C26 1_555 1_555
C27 N5 1_555 1_555
H23 C27 1_555 1_555
C28 C27 1_555 1_555
C29 C28 1_555 1_555
H24 C29 1_555 1_555
C30 C29 1_555 1_555
H25 C30 1_555 1_555
C31 N5 1_555 1_555
H26 C31 1_555 1_555
C32 C28 1_555 1_555
H27 C32 1_555 1_555
C33 N6 1_555 1_555
C34 C33 1_555 1_555
C35 C34 1_555 1_555
H28 C35 1_555 1_555
C36 C35 1_555 1_555
C37 C36 1_555 1_555
H29 C37 1_555 1_555
C38 C33 1_555 1_555
H30 C38 1_555 1_555
C39 C34 1_555 1_555
H31 C39 1_555 1_555
H32 C39 1_555 1_555
H33 C39 1_555 1_555
Cd1_2 O1_2 1_555 1_555
Cd1_3 N4 1_555 1_555
Cd1A N5A 1_555 1_555
O1_2 N7_2 1_555 1_555
O2_2 Cd1_2 1_555 1_555
O3_2 N7_2 1_555 1_555
O4_2 Cd1_2 1_555 1_555
O5_2 Cd1_2 1_555 1_555
O6_2 N8_2 1_555 1_555
N1_2 Cd1_2 1_555 1_555
N2_2 C6_2 1_555 1_555
N3_2 C16_2 1_555 1_555
N4_2 Cd1 1_555 1_555
N4_3 Cd1_2 1_555 1_555
N5A C27A 1_555 1_555
N5_2 Cd1_2 1_555 1_555
N6A C32A 1_555 1_555
N7_2 O2_2 1_555 1_555
N8_2 O4_2 1_555 1_555
C1_2 N1_2 1_555 1_555
H1_2 C1_2 1_555 1_555
C2_2 C1_2 1_555 1_555
C3_2 C2_2 1_555 1_555
H2_2 C3_2 1_555 1_555
C4_2 C3_2 1_555 1_555
H3_2 C4_2 1_555 1_555
C5_2 N1_2 1_555 1_555
H4_2 C5_2 1_555 1_555
C6_2 C2_2 1_555 1_555
H5_2 C6_2 1_555 1_555
C7_2 N2_2 1_555 1_555
C8_2 C7_2 1_555 1_555
C9_2 C8_2 1_555 1_555
H6_2 C9_2 1_555 1_555
C10_2 C9_2 1_555 1_555
C11_2 C10_2 1_555 1_555
H7_2 C11_2 1_555 1_555
C12_2 C7_2 1_555 1_555
H8_2 C12_2 1_555 1_555
C13_2 C10_2 1_555 1_555
C14_2 C13_2 1_555 1_555
H9_2 C14_2 1_555 1_555
C15_2 C14_2 1_555 1_555
H10_2 C15_2 1_555 1_555
C16_2 C15_2 1_555 1_555
C17_2 C16_2 1_555 1_555
C18_2 C13_2 1_555 1_555
H11_2 C18_2 1_555 1_555
C19_2 C8_2 1_555 1_555
H12_2 C19_2 1_555 1_555
H13_2 C19_2 1_555 1_555
H14_2 C19_2 1_555 1_555
C20_2 C17_2 1_555 1_555
H15_2 C20_2 1_555 1_555
H16_2 C20_2 1_555 1_555
H17_2 C20_2 1_555 1_555
C21_2 N3_2 1_555 1_555
H18_2 C21_2 1_555 1_555
C22_2 C21_2 1_555 1_555
C23_2 C22_2 1_555 1_555
H19_2 C23_2 1_555 1_555
C24_2 C23_2 1_555 1_555
H20_2 C24_2 1_555 1_555
C25_2 N4_2 1_555 1_555
H21_2 C25_2 1_555 1_555
C26_2 N4_2 1_555 1_555
H22_2 C26_2 1_555 1_555
C27A H23A 1_555 1_555
C28A C27A 1_555 1_555
C29A C28A 1_555 1_555
H24A C29A 1_555 1_555
C30A C29A 1_555 1_555
H25A C30A 1_555 1_555
C31A N5A 1_555 1_555
H26A C31A 1_555 1_555
C32A C28A 1_555 1_555
H27A C32A 1_555 1_555
C33A N6A 1_555 1_555
C34A C33A 1_555 1_555
C35A C34A 1_555 1_555
H28A C35A 1_555 1_555
C36A C36 1_555 1_555
C37A C36A 1_555 1_555
H29A C37A 1_555 1_555
C38A C33A 1_555 1_555
H30A C38A 1_555 1_555
C39A C34A 1_555 1_555
H31A C39A 1_555 1_555
H32A C39A 1_555 1_555
H33A C39A 1_555 1_555
O5 N8 1_555 1_555
C4 C5 1_555 1_555
C11 C12 1_555 1_555
C17 C18 1_555 1_555
C22 C26 1_555 1_555
C30 C31 1_555 1_555
C37 C38 1_555 1_555
O5_2 N8_2 1_555 1_555
C4_2 C5_2 1_555 1_555
C11_2 C12_2 1_555 1_555
C17_2 C18_2 1_555 1_555
C22_2 C26_2 1_555 1_555
C24_2 C25_2 1_555 1_555
C30A C31A 1_555 1_555
C35A C36A 1_555 1_555
C37A C38A 1_555 1_555

#END
