
#######################################################################
#
#                 Cambridge Crystallographic Data Centre
#                                CCDC 
#
#######################################################################
#
# If this CIF has been generated from an entry in the Cambridge 
# Structural Database, then it will include bibliographic, chemical, 
# crystal, experimental, refinement or atomic coordinate data resulting 
# from the CCDC's data processing and validation procedures.
#
#######################################################################

data_QOCHOG
_symmetry_cell_setting           monoclinic
_symmetry_space_group_name_H-M   'P 21'
_symmetry_Int_Tables_number      4
_space_group_name_Hall           'P 2yb'
loop_
_symmetry_equiv_pos_site_id
_symmetry_equiv_pos_as_xyz
1 x,y,z
2 -x,1/2+y,-z
_cell_length_a                   7.07290(10)
_cell_length_b                   12.3075(3)
_cell_length_c                   9.5745(2)
_cell_angle_alpha                90
_cell_angle_beta                 104.8000(10)
_cell_angle_gamma                90
_cell_volume                     805.806
loop_
_atom_site_label
_atom_site_type_symbol
_atom_site_fract_x
_atom_site_fract_y
_atom_site_fract_z
Cu1 Cu 0.16765(7) 0.08967(4) 0.82761(6)
Cu2 Cu 0.83888(8) 0.44814(5) 0.71051(7)
Cu3 Cu 0.49764(9) 0.26480(6) 0.75307(7)
O1 O 0.4174(4) 0.1210(3) 0.7919(4)
O2 O 0.5826(5) 0.4080(3) 0.7216(4)
O3 O 0.2434(5) 0.3334(3) 0.7313(4)
O4 O 0.7558(5) 0.1998(3) 0.7844(4)
O5 O 0.7537(5) 0.5874(3) 0.6051(4)
O6 O 0.2635(5) -0.0690(3) 0.9092(4)
C1 C 0.7644(6) 0.1041(4) 0.8320(5)
C2 C 0.2460(6) 0.4350(4) 0.7147(5)
O7 O 0.7946(6) 0.3466(4) 0.5218(5)
O8 O 0.9602(5) 0.3848(3) 0.9057(4)
O9 O 0.2304(6) 0.1698(4) 1.0158(5)
C3 C 0.4391(6) 0.4892(4) 0.7106(5)
H1 H 0.4791 0.5372 0.7947
O10 O 0.5502(5) 0.7221(3) 0.5195(5)
O11 O 0.4405(5) -0.2176(3) 0.9325(5)
C4 C 0.5812(7) 0.6277(4) 0.5674(5)
C5 C 0.4101(7) -0.1209(4) 0.8942(6)
O12 O 0.0527(6) 0.0605(5) 0.6203(5)
C6 C 0.5549(7) -0.0634(4) 0.8264(6)
H2 H 0.5109 -0.0703 0.7222
H3 H 0.6809 -0.0991 0.8575
C7 C 0.5799(6) 0.0567(4) 0.8654(5)
H4 H 0.5934 0.0638 0.9694
C8 C 0.4105(7) 0.5579(4) 0.5746(6)
H5 H 0.3813 0.5099 0.4915
H6 H 0.2976 0.6044 0.5672
O13 O 0.0997(5) 0.4951(3) 0.7015(4)
O14 O 0.9154(5) 0.0468(3) 0.8595(4)
H7 H 0.703(8) 0.300(5) 0.510(8)
H8 H 0.868(6) 0.333(4) 0.467(4)
H9 H -0.032(8) 0.013(5) 0.581(8)
H10 H 0.034(7) 0.1285(14) 0.603(5)
Cu1_2 Cu 1.16765(7) 0.08967(4) 0.82761(6)
Cu2_2 Cu -0.16112(8) 0.44814(5) 0.71051(7)
Cu3A Cu 0.50236(9) 0.76480(6) 0.24693(7)
O10A O 0.4498(5) 0.2221(3) 0.4805(5)
O13_2 O 1.0997(5) 0.4951(3) 0.7015(4)
O14_2 O -0.0846(5) 0.0468(3) 0.8595(4)
O15 O 0.0599(6) -0.2988(4) 0.8446(5)
O16 O 1.1031(6) 0.3462(4) 0.3889(5)
loop_
_geom_bond_atom_site_label_1
_geom_bond_atom_site_label_2
_geom_bond_site_symmetry_1
_geom_bond_site_symmetry_2
Cu1 O1 1_555 1_555
Cu2 O2 1_555 1_555
Cu3 O1 1_555 1_555
O1 C7 1_555 1_555
O2 Cu3 1_555 1_555
O3 Cu3 1_555 1_555
O4 Cu3 1_555 1_555
O5 Cu2 1_555 1_555
O6 Cu1 1_555 1_555
C1 O4 1_555 1_555
C2 O3 1_555 1_555
O7 Cu2 1_555 1_555
O8 Cu2 1_555 1_555
O9 Cu1 1_555 1_555
C3 O2 1_555 1_555
H1 C3 1_555 1_555
O10 C4 1_555 1_555
O11 C5 1_555 1_555
C4 O5 1_555 1_555
C5 O6 1_555 1_555
O12 Cu1 1_555 1_555
C6 C5 1_555 1_555
H2 C6 1_555 1_555
H3 C6 1_555 1_555
C7 C1 1_555 1_555
H4 C7 1_555 1_555
C8 C3 1_555 1_555
H5 C8 1_555 1_555
H6 C8 1_555 1_555
O13 C2 1_555 1_555
O14 C1 1_555 1_555
H7 O7 1_555 1_555
H8 O7 1_555 1_555
H9 O12 1_555 1_555
H10 O12 1_555 1_555
Cu1_2 O14 1_555 1_555
Cu2_2 O13 1_555 1_555
Cu3A O10 1_555 1_555
O10A Cu3 1_555 1_555
O13_2 Cu2 1_555 1_555
O14_2 Cu1 1_555 1_555
C2 C3 1_555 1_555
C4 C8 1_555 1_555
C6 C7 1_555 1_555

#END
