
#######################################################################
#
#                 Cambridge Crystallographic Data Centre
#                                CCDC 
#
#######################################################################
#
# If this CIF has been generated from an entry in the Cambridge 
# Structural Database, then it will include bibliographic, chemical, 
# crystal, experimental, refinement or atomic coordinate data resulting 
# from the CCDC's data processing and validation procedures.
#
#######################################################################

data_QOCKAV
_symmetry_cell_setting           monoclinic
_symmetry_space_group_name_H-M   'C 2/c'
_symmetry_Int_Tables_number      15
_space_group_name_Hall           '-C 2yn'
loop_
_symmetry_equiv_pos_site_id
_symmetry_equiv_pos_as_xyz
1 x,y,z
2 1/2+x,1/2+y,z
3 -x,y,1/2-z
4 1/2-x,1/2+y,1/2-z
5 -x,-y,-z
6 1/2-x,1/2-y,-z
7 x,-y,1/2+z
8 1/2+x,1/2-y,1/2+z
_cell_length_a                   21.055(5)
_cell_length_b                   7.0414(14)
_cell_length_c                   14.554(3)
_cell_angle_alpha                90
_cell_angle_beta                 90.49(3)
_cell_angle_gamma                90
_cell_volume                     2157.65
loop_
_atom_site_label
_atom_site_type_symbol
_atom_site_fract_x
_atom_site_fract_y
_atom_site_fract_z
C1 C 0.0326(3) 0.0078(8) 0.3756(5)
C2 C -0.0024(3) 0.1737(9) 0.3708(5)
H1 H 0.0186 0.2895 0.3673
C3 C -0.0684(3) 0.1710(9) 0.3711(5)
H2 H -0.0915 0.2835 0.3693
C4 C -0.0991(3) -0.0031(8) 0.3742(5)
C5 C -0.0650(3) -0.1717(9) 0.3793(5)
H3 H -0.0860 -0.2875 0.3831
C6 C 0.0005(3) -0.1651(9) 0.3787(5)
H4 H 0.0236 -0.2777 0.3803
C7 C 0.1039(3) 0.0123(8) 0.3756(4)
O1 O 0.1337(2) -0.1405(6) 0.3886(4)
O2 O 0.1312(2) 0.1726(6) 0.3638(3)
O3 O -0.2017(2) -0.1217(7) 0.4547(3)
O4 O -0.2060(3) 0.1802(7) 0.3733(5)
O5 O -0.2027(2) -0.1186(7) 0.2912(3)
O6 O 0.3520(3) -0.0079(6) 0.5056(4)
H5 H 0.358(4) 0.082(9) 0.543(5)
H6 H 0.360(4) -0.111(7) 0.533(5)
O7 O 0.3534(3) 0.0105(6) 0.2447(4)
H7 H 0.366(4) -0.069(9) 0.205(5)
H8 H 0.361(4) 0.105(8) 0.211(5)
S1 S -0.18307(7) -0.0119(2) 0.37400(12)
Ba1 Ba 0.253095(18) 0.03315(5) 0.37330(3)
O3A O 0.2983(2) 0.3783(7) 0.4547(3)
O3D O 0.2017(2) 0.1217(7) 0.5453(3)
O4A O 0.2940(3) -0.3198(7) 0.3733(5)
O5A O 0.2973(2) 0.3814(7) 0.2912(3)
O5B O 0.2027(2) -0.1186(7) 0.2088(3)
Ba1A Ba -0.246905(18) -0.46685(5) 0.37330(3)
Ba1D Ba -0.253095(18) -0.03315(5) 0.62670(3)
Ba1A_2 Ba -0.246905(18) 0.53315(5) 0.37330(3)
Ba1B Ba -0.253095(18) 0.03315(5) 0.12670(3)
loop_
_geom_bond_atom_site_label_1
_geom_bond_atom_site_label_2
_geom_bond_site_symmetry_1
_geom_bond_site_symmetry_2
C1 C2 1_555 1_555
C2 H1 1_555 1_555
C3 C2 1_555 1_555
H2 C3 1_555 1_555
C4 C3 1_555 1_555
C5 C4 1_555 1_555
H3 C5 1_555 1_555
C6 C1 1_555 1_555
H4 C6 1_555 1_555
C7 C1 1_555 1_555
O1 C7 1_555 1_555
O2 C7 1_555 1_555
O3 S1 1_555 1_555
O4 S1 1_555 1_555
O5 S1 1_555 1_555
O6 H5 1_555 1_555
H6 O6 1_555 1_555
O7 H7 1_555 1_555
H8 O7 1_555 1_555
S1 C4 1_555 1_555
Ba1 O1 1_555 1_555
O3A Ba1 1_555 1_555
O3D Ba1 1_555 1_555
O4A Ba1 1_555 1_555
O5A Ba1 1_555 1_555
O5B Ba1 1_555 1_555
Ba1A O3 1_555 1_555
Ba1D O3 1_555 1_555
Ba1A_2 O4 1_555 1_555
Ba1B O5 1_555 1_555
C5 C6 1_555 1_555
O2 Ba1 1_555 1_555
O5 Ba1A 1_555 1_555
O6 Ba1 1_555 1_555
O7 Ba1 1_555 1_555

#END
