
#######################################################################
#
#                 Cambridge Crystallographic Data Centre
#                                CCDC 
#
#######################################################################
#
# If this CIF has been generated from an entry in the Cambridge 
# Structural Database, then it will include bibliographic, chemical, 
# crystal, experimental, refinement or atomic coordinate data resulting 
# from the CCDC's data processing and validation procedures.
#
#######################################################################

data_QOCKEZ
_symmetry_cell_setting           triclinic
_symmetry_space_group_name_H-M   'P -1'
_symmetry_Int_Tables_number      2
_space_group_name_Hall           '-P 1'
loop_
_symmetry_equiv_pos_site_id
_symmetry_equiv_pos_as_xyz
1 x,y,z
2 -x,-y,-z
_cell_length_a                   7.196(7)
_cell_length_b                   11.369(6)
_cell_length_c                   12.497(10)
_cell_angle_alpha                102.81(5)
_cell_angle_beta                 91.73(7)
_cell_angle_gamma                106.95(6)
_cell_volume                     948.7
loop_
_atom_site_label
_atom_site_type_symbol
_atom_site_fract_x
_atom_site_fract_y
_atom_site_fract_z
C1 C 0.2523(3) 0.49553(19) 0.48886(15)
C2 C 0.2232(4) 0.38608(19) 0.52664(17)
H1 H 0.201(5) 0.306(3) 0.480(3)
C3 C 0.2283(4) 0.39280(19) 0.63963(17)
H2 H 0.215(5) 0.316(3) 0.657(3)
C4 C 0.2695(3) 0.50972(18) 0.71340(15)
C5 C 0.3009(4) 0.6203(2) 0.67643(17)
H3 H 0.336(6) 0.701(4) 0.725(3)
C6 C 0.2916(4) 0.6126(2) 0.56403(18)
H4 H 0.300(5) 0.687(3) 0.536(3)
C7 C 0.2426(3) 0.4860(2) 0.36756(16)
C8 C -0.2593(3) -0.00545(19) 0.49886(16)
C9 C -0.1603(4) 0.1047(2) 0.46905(18)
H5 H -0.101(6) 0.179(4) 0.520(3)
C10 C -0.1534(3) 0.1069(2) 0.35845(17)
H6 H -0.089(5) 0.182(4) 0.341(3)
C11 C -0.2483(3) -0.00262(18) 0.27828(15)
C12 C -0.3511(3) -0.11266(19) 0.30777(17)
H7 H -0.426(6) -0.193(4) 0.242(3)
C13 C -0.3567(3) -0.1143(2) 0.41861(17)
H8 H -0.430(4) -0.188(3) 0.440(3)
C14 C -0.2555(3) -0.0027(2) 0.61914(17)
O1 O 0.2832(3) 0.59681(17) 0.34284(14)
H9 H 0.272(5) 0.595(3) 0.276(3)
O2 O 0.2007(3) 0.38538(16) 0.29832(13)
O3 O 0.2792(2) 0.40094(15) 0.87623(13)
O4 O 0.1027(2) 0.55476(17) 0.89124(13)
O5 O 0.4562(2) 0.62443(15) 0.90576(13)
O6 O -0.3419(3) -0.11369(19) 0.63982(15)
H10 H -0.348(6) -0.098(4) 0.709(4)
O7 O -0.1761(3) 0.09281(19) 0.68986(15)
O8 O -0.1602(3) 0.12779(16) 0.13125(15)
O9 O -0.1007(3) -0.07487(17) 0.09815(14)
O10 O -0.4321(3) -0.0661(2) 0.08248(16)
O11 O -0.1890(2) 0.22601(16) -0.09538(13)
H11 H -0.176(5) 0.186(3) -0.1578(19)
H12 H -0.298(4) 0.184(3) -0.080(3)
O12 O 0.3146(2) 0.57266(15) 0.13142(13)
H13 H 0.435(5) 0.593(3) 0.125(3)
H14 H 0.262(5) 0.618(3) 0.106(3)
O13 O 0.2829(3) 0.10846(18) 0.14526(14)
H15 H 0.173(6) 0.044(4) 0.125(3)
H16 H 0.364(7) 0.090(4) 0.108(4)
S1 S 0.27729(6) 0.52373(4) 0.85780(4)
S2 S -0.23611(7) -0.00375(4) 0.13673(4)
Ba1 Ba 0.140355(14) 0.300383(9) 0.061748(8)
O3_2 O 0.2792(2) 0.40094(15) -0.12377(13)
O4A O -0.1027(2) 0.44524(17) 0.10876(13)
O5A O 0.5438(2) 0.37557(15) 0.09424(13)
O9A O 0.1007(3) 0.07487(17) -0.09815(14)
Ba1_2 Ba 0.140355(14) 0.300383(9) 1.061748(8)
Ba1A Ba -0.140355(14) 0.699617(9) 0.938252(8)
Ba1A_2 Ba 0.859645(14) 0.699617(9) 0.938252(8)
Ba1A_3 Ba -0.140355(14) -0.300383(9) -0.061748(8)
loop_
_geom_bond_atom_site_label_1
_geom_bond_atom_site_label_2
_geom_bond_site_symmetry_1
_geom_bond_site_symmetry_2
C1 C2 1_555 1_555
C2 H1 1_555 1_555
C3 C2 1_555 1_555
H2 C3 1_555 1_555
C4 C3 1_555 1_555
C5 C4 1_555 1_555
H3 C5 1_555 1_555
C6 C1 1_555 1_555
H4 C6 1_555 1_555
C7 C1 1_555 1_555
C8 C9 1_555 1_555
C9 H5 1_555 1_555
C10 C9 1_555 1_555
H6 C10 1_555 1_555
C11 C10 1_555 1_555
C12 C11 1_555 1_555
H7 C12 1_555 1_555
C13 C8 1_555 1_555
H8 C13 1_555 1_555
C14 C8 1_555 1_555
O1 C7 1_555 1_555
H9 O1 1_555 1_555
O2 C7 1_555 1_555
O3 S1 1_555 1_555
O4 S1 1_555 1_555
O5 S1 1_555 1_555
O6 C14 1_555 1_555
H10 O6 1_555 1_555
O7 C14 1_555 1_555
O8 S2 1_555 1_555
O9 S2 1_555 1_555
O10 S2 1_555 1_555
O11 H11 1_555 1_555
H12 O11 1_555 1_555
O12 H13 1_555 1_555
H14 O12 1_555 1_555
O13 H15 1_555 1_555
H16 O13 1_555 1_555
S1 C4 1_555 1_555
S2 C11 1_555 1_555
Ba1 O2 1_555 1_555
O3_2 Ba1 1_555 1_555
O4A Ba1 1_555 1_555
O5A Ba1 1_555 1_555
O9A Ba1 1_555 1_555
Ba1_2 O3 1_555 1_555
Ba1A O4 1_555 1_555
Ba1A_2 O5 1_555 1_555
Ba1A_3 O9 1_555 1_555
C5 C6 1_555 1_555
C12 C13 1_555 1_555
O8 Ba1 1_555 1_555
O11 Ba1 1_555 1_555
O12 Ba1 1_555 1_555
O13 Ba1 1_555 1_555

#END
