
#######################################################################
#
#                 Cambridge Crystallographic Data Centre
#                                CCDC 
#
#######################################################################
#
# If this CIF has been generated from an entry in the Cambridge 
# Structural Database, then it will include bibliographic, chemical, 
# crystal, experimental, refinement or atomic coordinate data resulting 
# from the CCDC's data processing and validation procedures.
#
#######################################################################

data_QOCLOL
_symmetry_cell_setting           orthorhombic
_symmetry_space_group_name_H-M   'P 21 21 21'
_symmetry_Int_Tables_number      19
_space_group_name_Hall           'P 2ac 2ab'
loop_
_symmetry_equiv_pos_site_id
_symmetry_equiv_pos_as_xyz
1 x,y,z
2 1/2-x,-y,1/2+z
3 -x,1/2+y,1/2-z
4 1/2+x,1/2-y,-z
_cell_length_a                   5.6619(15)
_cell_length_b                   14.198(4)
_cell_length_c                   19.180(5)
_cell_angle_alpha                90
_cell_angle_beta                 90
_cell_angle_gamma                90
_cell_volume                     1541.84
loop_
_atom_site_label
_atom_site_type_symbol
_atom_site_fract_x
_atom_site_fract_y
_atom_site_fract_z
Co1 Co 0.05949(19) 0.31432(7) 0.02346(5)
N1 N -0.0482(14) 0.4270(4) 0.0953(3)
H1 H 0.0496 0.4773 0.0897
O1 O -0.1627(11) 0.7274(4) 0.3965(3)
O2 O -0.4322(12) 0.6209(3) 0.4347(2)
O3 O -0.6246(9) 0.3885(4) 0.0209(3)
O4 O -0.3182(10) 0.2941(3) 0.0422(2)
C1 C -0.2189(14) 0.5874(5) 0.3310(4)
C2 C -0.3103(16) 0.4522(6) 0.2612(4)
H2 H -0.4108 0.4026 0.2501
C3 C -0.3724(16) 0.5125(5) 0.3149(4)
H3 H -0.5118 0.5037 0.3397
C4 C -0.2212(15) 0.6313(5) 0.0660(4)
C5 C -0.2852(15) 0.5425(5) 0.0278(4)
H4 H -0.1713 0.5320 -0.0092
H5 H -0.4391 0.5505 0.0064
C6 C 0.0434(17) 0.5392(5) 0.2400(4)
H6 H 0.1816 0.5482 0.2146
C7 C -0.1079(15) 0.4630(6) 0.2243(4)
C8 C -0.0147(15) 0.6005(6) 0.2934(4)
H7 H 0.0847 0.6507 0.3039
C9 C -0.0161(15) 0.6799(6) 0.0531(4)
H8 H 0.0893 0.6574 0.0199
C10 C -0.2915(14) 0.4546(5) 0.0757(4)
H9 H -0.3751 0.4721 0.1185
C11 C -0.0310(16) 0.3931(5) 0.1681(4)
H10 H 0.1316 0.3752 0.1771
H11 H -0.1267 0.3367 0.1725
C12 C -0.4232(15) 0.3735(5) 0.0430(3)
C13 C 0.0364(19) 0.7630(6) 0.0895(5)
H12 H 0.1760 0.7953 0.0804
C14 C -0.1190(19) 0.7964(6) 0.1384(5)
H13 H -0.0837 0.8515 0.1625
C15 C -0.2791(14) 0.6512(5) 0.3924(4)
C16 C -0.3786(15) 0.6671(6) 0.1163(5)
H14 H -0.5191 0.6356 0.1256
C17 C -0.324(2) 0.7500(7) 0.1524(6)
H15 H -0.4278 0.7733 0.1858
Co1_2 Co -0.94051(19) 0.31432(7) 0.02346(5)
Co1A Co -0.55949(19) 0.68568(7) 0.52346(5)
Co1B Co -0.05949(19) 0.81432(7) 0.47654(5)
Co1C Co -0.44051(19) 0.18568(7) -0.02346(5)
O1B O 0.1627(11) 0.2274(4) 0.1035(3)
O2A O -0.0678(12) 0.3791(3) -0.0653(2)
O3_2 O 0.3754(9) 0.3885(4) 0.0209(3)
O4C O 0.1818(10) 0.2059(3) -0.0422(2)
loop_
_geom_bond_atom_site_label_1
_geom_bond_atom_site_label_2
_geom_bond_site_symmetry_1
_geom_bond_site_symmetry_2
Co1 N1 1_555 1_555
N1 H1 1_555 1_555
O1 C15 1_555 1_555
O2 C15 1_555 1_555
O3 C12 1_555 1_555
O4 Co1 1_555 1_555
C1 C3 1_555 1_555
C2 H2 1_555 1_555
C3 C2 1_555 1_555
H3 C3 1_555 1_555
C4 C5 1_555 1_555
C5 H4 1_555 1_555
H5 C5 1_555 1_555
C6 H6 1_555 1_555
C7 C2 1_555 1_555
C8 C1 1_555 1_555
H7 C8 1_555 1_555
C9 C4 1_555 1_555
H8 C9 1_555 1_555
C10 N1 1_555 1_555
H9 C10 1_555 1_555
C11 N1 1_555 1_555
H10 C11 1_555 1_555
H11 C11 1_555 1_555
C12 O4 1_555 1_555
C13 C9 1_555 1_555
H12 C13 1_555 1_555
C14 C13 1_555 1_555
H13 C14 1_555 1_555
C15 C1 1_555 1_555
C16 C4 1_555 1_555
H14 C16 1_555 1_555
C17 C14 1_555 1_555
H15 C17 1_555 1_555
Co1_2 O3 1_555 1_555
Co1A O2 1_555 1_555
Co1B O1 1_555 1_555
Co1C O4 1_555 1_555
O1B Co1 1_555 1_555
O2A Co1 1_555 1_555
O3_2 Co1 1_555 1_555
O4C Co1 1_555 1_555
C5 C10 1_555 1_555
C6 C7 1_555 1_555
C6 C8 1_555 1_555
C7 C11 1_555 1_555
C10 C12 1_555 1_555
C16 C17 1_555 1_555

#END
