
#######################################################################
#
#                 Cambridge Crystallographic Data Centre
#                                CCDC 
#
#######################################################################
#
# If this CIF has been generated from an entry in the Cambridge 
# Structural Database, then it will include bibliographic, chemical, 
# crystal, experimental, refinement or atomic coordinate data resulting 
# from the CCDC's data processing and validation procedures.
#
#######################################################################

data_QOCPUU
_symmetry_cell_setting           monoclinic
_symmetry_space_group_name_H-M   'C 2/c'
_symmetry_Int_Tables_number      15
_space_group_name_Hall           '-C 2yn'
loop_
_symmetry_equiv_pos_site_id
_symmetry_equiv_pos_as_xyz
1 x,y,z
2 1/2+x,1/2+y,z
3 -x,y,1/2-z
4 1/2-x,1/2+y,1/2-z
5 -x,-y,-z
6 1/2-x,1/2-y,-z
7 x,-y,1/2+z
8 1/2+x,1/2-y,1/2+z
_cell_length_a                   9.2237(18)
_cell_length_b                   11.158(2)
_cell_length_c                   12.358(3)
_cell_angle_alpha                90
_cell_angle_beta                 108.16(3)
_cell_angle_gamma                90
_cell_volume                     1208.51
loop_
_atom_site_label
_atom_site_type_symbol
_atom_site_fract_x
_atom_site_fract_y
_atom_site_fract_z
Ni1 Ni 0.0000 0.5000 0.5000
O1 O 0.0673(6) 0.3581(4) 0.6111(4)
O2 O 0.4691(5) 0.6245(4) 0.5642(4)
N1 N 0.2199(6) 0.5395(4) 0.5167(4)
N2 N -0.0098(5) 0.3837(4) 0.3479(4)
N3 N 0.1383(6) 0.2275(4) 0.2878(4)
C1 C 0.3397(7) 0.5816(5) 0.5393(5)
C2 C 0.0000 0.4569(8) 0.2500
H1 H 0.0910 0.5092 0.2756
H2 H -0.0910 0.5092 0.2244
C3 C 0.1261(7) 0.3034(5) 0.3811(5)
H3 H 0.2193 0.3530 0.4088
H4 H 0.1208 0.2516 0.4448
C4 C -0.1461(7) 0.3056(5) 0.3067(5)
H5 H -0.1546 0.2552 0.3704
H6 H -0.2387 0.3561 0.2807
C5 C 0.0000 0.1521(8) 0.2500
H7 H -0.0053 0.1000 0.3135
H8 H 0.0053 0.1000 0.1865
H9 H 0.029(9) 0.289(7) 0.599(6)
H10 H 0.151(10) 0.349(8) 0.638(7)
Ni1F Ni 0.0000 0.5000 0.0000
O1D O -0.0673(6) 0.6419(4) 0.3889(4)
O2D O -0.4691(5) 0.3755(4) 0.4358(4)
N1D N -0.2199(6) 0.4605(4) 0.4833(4)
N2B N 0.0098(5) 0.3837(4) 0.1521(4)
N2D N 0.0098(5) 0.6163(4) 0.6521(4)
N3B N -0.1383(6) 0.2275(4) 0.2122(4)
C1D C -0.3397(7) 0.4184(5) 0.4607(5)
C3B C -0.1261(7) 0.3034(5) 0.1189(5)
H3B H -0.2193 0.3530 0.0912
H4B H -0.1208 0.2516 0.0552
C4B C 0.1461(7) 0.3056(5) 0.1933(5)
H5B H 0.1546 0.2552 0.1296
H6B H 0.2387 0.3561 0.2193
H9D H -0.029(9) 0.711(7) 0.401(6)
H10D H -0.151(10) 0.651(8) 0.362(7)
loop_
_geom_bond_atom_site_label_1
_geom_bond_atom_site_label_2
_geom_bond_site_symmetry_1
_geom_bond_site_symmetry_2
Ni1 O1 1_555 1_555
O1 H9 1_555 1_555
O2 C1 1_555 1_555
N1 Ni1 1_555 1_555
N2 Ni1 1_555 1_555
N3 C3 1_555 1_555
C1 N1 1_555 1_555
C2 N2 1_555 1_555
H1 C2 1_555 1_555
H2 C2 1_555 1_555
C3 N2 1_555 1_555
H3 C3 1_555 1_555
H4 C3 1_555 1_555
C4 N2 1_555 1_555
H5 C4 1_555 1_555
H6 C4 1_555 1_555
C5 N3 1_555 1_555
H7 C5 1_555 1_555
H8 C5 1_555 1_555
H10 O1 1_555 1_555
Ni1F N2B 1_555 1_555
O1D Ni1 1_555 1_555
O2D C1D 1_555 1_555
N1D Ni1 1_555 1_555
N2B C2 1_555 1_555
N2D Ni1 1_555 1_555
N3B C4 1_555 1_555
C1D N1D 1_555 1_555
C3B N2B 1_555 1_555
H3B C3B 1_555 1_555
H4B C3B 1_555 1_555
C4B N3 1_555 1_555
H5B C4B 1_555 1_555
H6B C4B 1_555 1_555
H9D O1D 1_555 1_555
H10D O1D 1_555 1_555
C5 N3B 1_555 1_555
N2B C4B 1_555 1_555
N3B C3B 1_555 1_555

#END
