
#######################################################################
#
#                 Cambridge Crystallographic Data Centre
#                                CCDC 
#
#######################################################################
#
# If this CIF has been generated from an entry in the Cambridge 
# Structural Database, then it will include bibliographic, chemical, 
# crystal, experimental, refinement or atomic coordinate data resulting 
# from the CCDC's data processing and validation procedures.
#
#######################################################################

data_QOCYEO
_symmetry_cell_setting           tetragonal
_symmetry_space_group_name_H-M   'I 41/a'
_symmetry_Int_Tables_number      88
_space_group_name_Hall           '-I 4ad'
loop_
_symmetry_equiv_pos_site_id
_symmetry_equiv_pos_as_xyz
1 x,y,z
2 3/4-y,1/4+x,1/4+z
3 1/2-x,-y,1/2+z
4 3/4+y,3/4-x,3/4+z
5 1/2+x,1/2+y,1/2+z
6 1/4-y,3/4+x,3/4+z
7 -x,1/2-y,z
8 1/4+y,1/4-x,1/4+z
9 -x,-y,-z
10 1/4+y,3/4-x,3/4-z
11 1/2+x,y,1/2-z
12 1/4-y,1/4+x,1/4-z
13 1/2-x,1/2-y,1/2-z
14 3/4+y,1/4-x,1/4-z
15 x,1/2+y,-z
16 3/4-y,3/4+x,3/4-z
_cell_length_a                   18.8840(17)
_cell_length_b                   18.8840(17)
_cell_length_c                   22.448(3)
_cell_angle_alpha                90
_cell_angle_beta                 90
_cell_angle_gamma                90
_cell_volume                     8005.08
loop_
_atom_site_label
_atom_site_type_symbol
_atom_site_fract_x
_atom_site_fract_y
_atom_site_fract_z
Er1 Er 0.09774(3) 0.23591(3) 0.18383(3)
Zn1 Zn 0.5000 0.7500 0.1250
O1 O 0.1646(6) 0.3324(6) 0.1682(6)
O2 O 0.1188(7) 0.3922(6) 0.0943(6)
O3 O 0.2250(14) 0.2210(16) 0.1493(12)
H1 H 0.229(7) 0.259(9) 0.129(15)
H2 H 0.220(5) 0.184(11) 0.128(14)
O4 O 0.0707(5) 0.2403(5) 0.0812(5)
O5 O 0.1805(12) 0.2226(11) 0.2588(10)
O6 O 0.0782(12) 0.2989(13) 0.2800(10)
H3 H 0.073(19) 0.342(4) 0.2687(17)
H4 H 0.117(8) 0.291(16) 0.298(6)
O7 O 0.0704(11) 0.1795(13) 0.2747(8)
H5 H 0.0260(13) 0.175(16) 0.280(7)
H6 H 0.095(12) 0.142(10) 0.280(7)
N1 N 0.3453(6) 0.6165(6) 0.1876(6)
N2 N 0.4249(5) 0.6992(5) 0.1717(5)
C1 C 0.1617(9) 0.3849(9) 0.1357(9)
C2 C 0.2122(8) 0.4463(9) 0.1496(9)
C3 C 0.2092(11) 0.5053(10) 0.1144(9)
H7 H 0.1777 0.5082 0.0826
C4 C 0.2563(11) 0.5626(9) 0.1282(11)
H8 H 0.2574 0.6028 0.1043
C5 C 0.2995(7) 0.5575(8) 0.1767(7)
C6 C 0.3019(10) 0.4993(9) 0.2100(9)
H9 H 0.3328 0.4958 0.2421
C7 C 0.2565(10) 0.4435(10) 0.1952(9)
H10 H 0.2575 0.4027 0.2184
C8 C 0.3961(7) 0.6414(7) 0.1512(7)
H11 H 0.4091 0.6199 0.1155
C9 C 0.3406(8) 0.6637(9) 0.2353(8)
C10 C 0.2968(10) 0.6609(12) 0.2854(8)
H12 H 0.2634 0.6255 0.2918
C11 C 0.3083(14) 0.7163(15) 0.3243(11)
H13 H 0.2821 0.7174 0.3594
C12 C 0.3574(14) 0.7715(14) 0.3143(11)
H14 H 0.3606 0.8082 0.3417
C13 C 0.4016(10) 0.7723(10) 0.2637(9)
H15 H 0.4345 0.8080 0.2567
C14 C 0.3921(8) 0.7147(7) 0.2244(7)
H16 H 0.100(6) 0.213(7) 0.068(6)
Er1F Er 0.90226(3) 1.26409(3) 0.18383(3)
O1F O 0.8354(6) 1.1676(6) 0.1682(6)
O2F O 0.8812(7) 1.1078(6) 0.0943(6)
O3F O 0.7750(14) 1.2790(16) 0.1493(12)
H1F H 0.771(7) 1.241(9) 0.129(15)
H2F H 0.780(5) 1.316(11) 0.128(14)
O4F O 0.9293(5) 1.2597(5) 0.0812(5)
O5F O 0.8195(12) 1.2774(11) 0.2588(10)
O6F O 0.9218(12) 1.2011(13) 0.2800(10)
H3F H 0.927(19) 1.158(4) 0.2687(17)
H4F H 0.883(8) 1.209(16) 0.298(6)
O7F O 0.9296(11) 1.3205(13) 0.2747(8)
H5F H 0.9740(13) 1.325(16) 0.280(7)
H6F H 0.905(12) 1.358(10) 0.280(7)
N1F N 0.6547(6) 0.8835(6) 0.1876(6)
N2F N 0.5751(5) 0.8008(5) 0.1717(5)
C1F C 0.8383(9) 1.1151(9) 0.1357(9)
C2F C 0.7878(8) 1.0537(9) 0.1496(9)
C3F C 0.7908(11) 0.9947(10) 0.1144(9)
H7F H 0.8223 0.9918 0.0826
C4F C 0.7437(11) 0.9374(9) 0.1282(11)
H8F H 0.7426 0.8972 0.1043
C5F C 0.7005(7) 0.9425(8) 0.1767(7)
C6F C 0.6981(10) 1.0007(9) 0.2100(9)
H9F H 0.6672 1.0042 0.2421
C7F C 0.7435(10) 1.0565(10) 0.1952(9)
H10F H 0.7425 1.0973 0.2184
C8F C 0.6039(7) 0.8586(7) 0.1512(7)
H11F H 0.5909 0.8801 0.1155
C9F C 0.6594(8) 0.8363(9) 0.2353(8)
C10F C 0.7032(10) 0.8391(12) 0.2854(8)
H12F H 0.7366 0.8745 0.2918
C11F C 0.6917(14) 0.7837(15) 0.3243(11)
H13F H 0.7179 0.7826 0.3594
C12F C 0.6426(14) 0.7285(14) 0.3143(11)
H14F H 0.6394 0.6918 0.3417
C13F C 0.5984(10) 0.7277(10) 0.2637(9)
H15F H 0.5655 0.6920 0.2567
C14F C 0.6079(8) 0.7853(7) 0.2244(7)
H16F H 0.900(6) 1.287(7) 0.068(6)
Er1K Er 0.01409(3) 0.34774(3) 0.06617(3)
O1K O -0.0824(6) 0.4146(6) 0.0818(6)
O2K O -0.1422(6) 0.3688(7) 0.1557(6)
O3K O 0.0290(16) 0.4750(14) 0.1007(12)
H1K H -0.009(9) 0.479(7) 0.121(15)
H2K H 0.066(11) 0.470(5) 0.122(14)
O4K O 0.0097(5) 0.3207(5) 0.1688(5)
O5K O 0.0274(11) 0.4305(12) -0.0088(10)
O6K O -0.0489(13) 0.3282(12) -0.0300(10)
H3K H -0.092(4) 0.323(19) -0.0187(17)
H4K H -0.041(16) 0.367(8) -0.048(6)
O7K O 0.0705(13) 0.3204(11) -0.0247(8)
H5K H 0.075(16) 0.2760(13) -0.030(7)
H6K H 0.108(10) 0.345(12) -0.030(7)
N1K N -0.3665(6) 0.5953(6) 0.0624(6)
N2K N -0.4492(5) 0.6749(5) 0.0783(5)
C1K C -0.1349(9) 0.4117(9) 0.1143(9)
C2K C -0.1963(9) 0.4622(8) 0.1004(9)
C3K C -0.2553(10) 0.4592(11) 0.1356(9)
H7K H -0.2582 0.4277 0.1674
C4K C -0.3126(9) 0.5063(11) 0.1218(11)
H8K H -0.3528 0.5074 0.1457
C5K C -0.3075(8) 0.5495(7) 0.0733(7)
C6K C -0.2493(9) 0.5519(10) 0.0400(9)
H9K H -0.2458 0.5828 0.0079
C7K C -0.1935(10) 0.5065(10) 0.0548(9)
H10K H -0.1527 0.5075 0.0316
C8K C -0.3914(7) 0.6461(7) 0.0988(7)
H11K H -0.3699 0.6591 0.1345
C9K C -0.4137(9) 0.5906(8) 0.0147(8)
C10K C -0.4109(12) 0.5468(10) -0.0354(8)
H12K H -0.3755 0.5134 -0.0418
C11K C -0.4663(15) 0.5583(14) -0.0743(11)
H13K H -0.4674 0.5321 -0.1094
C12K C -0.5215(14) 0.6074(14) -0.0643(11)
H14K H -0.5582 0.6106 -0.0917
C13K C -0.5223(10) 0.6516(10) -0.0137(9)
H15K H -0.5580 0.6845 -0.0067
C14K C -0.4647(7) 0.6421(8) 0.0256(7)
H16K H 0.037(7) 0.350(6) 0.182(6)
Er1M Er -0.01409(3) 0.15226(3) 0.06617(3)
O1M O 0.0824(6) 0.0854(6) 0.0818(6)
O2M O 0.1422(6) 0.1312(7) 0.1557(6)
O3M O -0.0290(16) 0.0250(14) 0.1007(12)
H1M H 0.009(9) 0.021(7) 0.121(15)
H2M H -0.066(11) 0.030(5) 0.122(14)
O4M O -0.0097(5) 0.1793(5) 0.1688(5)
O5M O -0.0274(11) 0.0695(12) -0.0088(10)
O6M O 0.0489(13) 0.1718(12) -0.0300(10)
H3M H 0.092(4) 0.177(19) -0.0187(17)
H4M H 0.041(16) 0.133(8) -0.048(6)
O7M O -0.0705(13) 0.1796(11) -0.0247(8)
H5M H -0.075(16) 0.2240(13) -0.030(7)
H6M H -0.108(10) 0.155(12) -0.030(7)
N1M N 0.3665(6) -0.0953(6) 0.0624(6)
N2M N 0.4492(5) -0.1749(5) 0.0783(5)
C1M C 0.1349(9) 0.0883(9) 0.1143(9)
C2M C 0.1963(9) 0.0378(8) 0.1004(9)
C3M C 0.2553(10) 0.0408(11) 0.1356(9)
H7M H 0.2582 0.0723 0.1674
C4M C 0.3126(9) -0.0063(11) 0.1218(11)
H8M H 0.3528 -0.0074 0.1457
C5M C 0.3075(8) -0.0495(7) 0.0733(7)
C6M C 0.2493(9) -0.0519(10) 0.0400(9)
H9M H 0.2458 -0.0828 0.0079
C7M C 0.1935(10) -0.0065(10) 0.0548(9)
H10M H 0.1527 -0.0075 0.0316
C8M C 0.3914(7) -0.1461(7) 0.0988(7)
H11M H 0.3699 -0.1591 0.1345
C9M C 0.4137(9) -0.0906(8) 0.0147(8)
C10M C 0.4109(12) -0.0468(10) -0.0354(8)
H12M H 0.3755 -0.0134 -0.0418
C11M C 0.4663(15) -0.0583(14) -0.0743(11)
H13M H 0.4674 -0.0321 -0.1094
C12M C 0.5215(14) -0.1074(14) -0.0643(11)
H14M H 0.5582 -0.1106 -0.0917
C13M C 0.5223(10) -0.1516(10) -0.0137(9)
H15M H 0.5580 -0.1845 -0.0067
C14M C 0.4647(7) -0.1421(8) 0.0256(7)
H16M H -0.037(7) 0.150(6) 0.182(6)
Er1F_2 Er -0.09774(3) 0.26409(3) 0.18383(3)
Er1K_2 Er 1.01409(3) 1.34774(3) 0.06617(3)
Er1M_2 Er 0.98591(3) 1.15226(3) 0.06617(3)
Zn1_2 Zn -0.5000 0.7500 0.1250
Zn1_3 Zn 0.5000 -0.2500 0.1250
O2F_2 O -0.1188(7) 0.1078(6) 0.0943(6)
O2K_2 O 0.8578(6) 1.3688(7) 0.1557(6)
O4F_2 O -0.0707(5) 0.2597(5) 0.0812(5)
O4K_2 O 1.0097(5) 1.3207(5) 0.1688(5)
O4M_2 O 0.9903(5) 1.1793(5) 0.1688(5)
N2K_2 N 0.5508(5) 0.6749(5) 0.0783(5)
N2M_2 N 0.4492(5) 0.8251(5) 0.0783(5)
Cl1 Cl 0.0285(3) 0.5087(3) 0.2546(3)
O8 O 0.0570(19) 0.4489(11) 0.2702(13)
O9 O -0.0355(14) 0.510(2) 0.2314(13)
O10 O 0.0246(14) 0.5451(13) 0.3038(12)
O11 O 0.0768(13) 0.5429(15) 0.2222(12)
Cl2 Cl 0.3617(16) 0.2877(15) 0.1289(10)
loop_
_geom_bond_atom_site_label_1
_geom_bond_atom_site_label_2
_geom_bond_site_symmetry_1
_geom_bond_site_symmetry_2
Er1 O1 1_555 1_555
Zn1 N2 1_555 1_555
O1 C1 1_555 1_555
O2 C1 1_555 1_555
O3 Er1 1_555 1_555
H1 O3 1_555 1_555
H2 O3 1_555 1_555
O4 Er1 1_555 1_555
O5 Er1 1_555 1_555
O6 Er1 1_555 1_555
H3 O6 1_555 1_555
H4 O6 1_555 1_555
O7 Er1 1_555 1_555
H5 O7 1_555 1_555
H6 O7 1_555 1_555
N1 C5 1_555 1_555
N2 C8 1_555 1_555
C1 C2 1_555 1_555
C2 C3 1_555 1_555
C3 H7 1_555 1_555
C4 C3 1_555 1_555
H8 C4 1_555 1_555
C5 C4 1_555 1_555
C6 C5 1_555 1_555
H9 C6 1_555 1_555
C7 C2 1_555 1_555
H10 C7 1_555 1_555
C8 N1 1_555 1_555
H11 C8 1_555 1_555
C9 N1 1_555 1_555
C10 C9 1_555 1_555
H12 C10 1_555 1_555
C11 C10 1_555 1_555
H13 C11 1_555 1_555
C12 C11 1_555 1_555
H14 C12 1_555 1_555
C13 C12 1_555 1_555
H15 C13 1_555 1_555
C14 N2 1_555 1_555
H16 O4 1_555 1_555
Cl1 O8 1_555 1_555
O9 Cl1 1_555 1_555
O10 Cl1 1_555 1_555
O11 Cl1 1_555 1_555
Er1F O1F 1_555 1_555
O1F C1F 1_555 1_555
O2F C1F 1_555 1_555
O3F Er1F 1_555 1_555
H1F O3F 1_555 1_555
H2F O3F 1_555 1_555
O4F Er1F 1_555 1_555
O5F Er1F 1_555 1_555
O6F Er1F 1_555 1_555
H3F O6F 1_555 1_555
H4F O6F 1_555 1_555
O7F Er1F 1_555 1_555
H5F O7F 1_555 1_555
H6F O7F 1_555 1_555
N1F C5F 1_555 1_555
N2F Zn1 1_555 1_555
C1F C2F 1_555 1_555
C2F C3F 1_555 1_555
C3F H7F 1_555 1_555
C4F C3F 1_555 1_555
H8F C4F 1_555 1_555
C5F C4F 1_555 1_555
C6F C5F 1_555 1_555
H9F C6F 1_555 1_555
C7F C2F 1_555 1_555
H10F C7F 1_555 1_555
C8F N1F 1_555 1_555
H11F C8F 1_555 1_555
C9F N1F 1_555 1_555
C10F C9F 1_555 1_555
H12F C10F 1_555 1_555
C11F C10F 1_555 1_555
H13F C11F 1_555 1_555
C12F C11F 1_555 1_555
H14F C12F 1_555 1_555
C13F C12F 1_555 1_555
H15F C13F 1_555 1_555
C14F N2F 1_555 1_555
H16F O4F 1_555 1_555
Er1K O2 1_555 1_555
O1K Er1K 1_555 1_555
O2K C1K 1_555 1_555
O3K Er1K 1_555 1_555
H1K O3K 1_555 1_555
H2K O3K 1_555 1_555
O4K Er1 1_555 1_555
O5K Er1K 1_555 1_555
O6K Er1K 1_555 1_555
H3K O6K 1_555 1_555
H4K O6K 1_555 1_555
O7K Er1K 1_555 1_555
H5K O7K 1_555 1_555
H6K O7K 1_555 1_555
N1K C5K 1_555 1_555
N2K C8K 1_555 1_555
C1K O1K 1_555 1_555
C2K C1K 1_555 1_555
C3K C2K 1_555 1_555
H7K C3K 1_555 1_555
C4K C3K 1_555 1_555
H8K C4K 1_555 1_555
C5K C4K 1_555 1_555
C6K C5K 1_555 1_555
H9K C6K 1_555 1_555
C7K C2K 1_555 1_555
H10K C7K 1_555 1_555
C8K N1K 1_555 1_555
H11K C8K 1_555 1_555
C9K N1K 1_555 1_555
C10K C9K 1_555 1_555
H12K C10K 1_555 1_555
C11K C10K 1_555 1_555
H13K C11K 1_555 1_555
C12K C11K 1_555 1_555
H14K C12K 1_555 1_555
C13K C12K 1_555 1_555
H15K C13K 1_555 1_555
C14K N2K 1_555 1_555
H16K O4K 1_555 1_555
Er1M O4 1_555 1_555
O1M Er1M 1_555 1_555
O2M Er1 1_555 1_555
O3M Er1M 1_555 1_555
H1M O3M 1_555 1_555
H2M O3M 1_555 1_555
O4M Er1 1_555 1_555
O5M Er1M 1_555 1_555
O6M Er1M 1_555 1_555
H3M O6M 1_555 1_555
H4M O6M 1_555 1_555
O7M Er1M 1_555 1_555
H5M O7M 1_555 1_555
H6M O7M 1_555 1_555
N1M C5M 1_555 1_555
N2M C8M 1_555 1_555
C1M O1M 1_555 1_555
C2M C1M 1_555 1_555
C3M C2M 1_555 1_555
H7M C3M 1_555 1_555
C4M C3M 1_555 1_555
H8M C4M 1_555 1_555
C5M C4M 1_555 1_555
C6M C5M 1_555 1_555
H9M C6M 1_555 1_555
C7M C2M 1_555 1_555
H10M C7M 1_555 1_555
C8M N1M 1_555 1_555
H11M C8M 1_555 1_555
C9M N1M 1_555 1_555
C10M C9M 1_555 1_555
H12M C10M 1_555 1_555
C11M C10M 1_555 1_555
H13M C11M 1_555 1_555
C12M C11M 1_555 1_555
H14M C12M 1_555 1_555
C13M C12M 1_555 1_555
H15M C13M 1_555 1_555
C14M N2M 1_555 1_555
H16M O4M 1_555 1_555
Er1F_2 O2K 1_555 1_555
Er1K_2 O4F 1_555 1_555
Er1M_2 O2F 1_555 1_555
Zn1_2 N2K 1_555 1_555
Zn1_3 N2M 1_555 1_555
O2F_2 Er1M 1_555 1_555
O2K_2 Er1F 1_555 1_555
O4F_2 Er1K 1_555 1_555
O4K_2 Er1F 1_555 1_555
O4M_2 Er1F 1_555 1_555
N2K_2 Zn1 1_555 1_555
N2M_2 Zn1 1_555 1_555
O4 Er1K 1_555 1_555
C6 C7 1_555 1_555
C9 C14 1_555 1_555
C13 C14 1_555 1_555
O4F Er1M_2 1_555 1_555
N2F C8F 1_555 1_555
C6F C7F 1_555 1_555
C9F C14F 1_555 1_555
C13F C14F 1_555 1_555
Er1K O4K 1_555 1_555
O4K Er1F_2 1_555 1_555
C6K C7K 1_555 1_555
C9K C14K 1_555 1_555
C13K C14K 1_555 1_555
Er1M O4M 1_555 1_555
Er1M O4F_2 1_555 1_555
O2M C1M 1_555 1_555
O4M Er1F_2 1_555 1_555
C6M C7M 1_555 1_555
C9M C14M 1_555 1_555
C13M C14M 1_555 1_555
Er1F_2 O4F_2 1_555 1_555
Er1K_2 O4K_2 1_555 1_555
Er1M_2 O4M_2 1_555 1_555

#END
