
#######################################################################
#
#                 Cambridge Crystallographic Data Centre
#                                CCDC 
#
#######################################################################
#
# If this CIF has been generated from an entry in the Cambridge 
# Structural Database, then it will include bibliographic, chemical, 
# crystal, experimental, refinement or atomic coordinate data resulting 
# from the CCDC's data processing and validation procedures.
#
#######################################################################

data_QOCYAK
_symmetry_cell_setting           monoclinic
_symmetry_space_group_name_H-M   'P 21/c'
_symmetry_Int_Tables_number      14
_space_group_name_Hall           '-P 2ybc'
loop_
_symmetry_equiv_pos_site_id
_symmetry_equiv_pos_as_xyz
1 x,y,z
2 -x,1/2+y,1/2-z
3 -x,-y,-z
4 x,1/2-y,1/2+z
_cell_length_a                   11.359(3)
_cell_length_b                   14.308(6)
_cell_length_c                   18.162(7)
_cell_angle_alpha                90
_cell_angle_beta                 127.87(2)
_cell_angle_gamma                90
_cell_volume                     2330.14
loop_
_atom_site_label
_atom_site_type_symbol
_atom_site_fract_x
_atom_site_fract_y
_atom_site_fract_z
Zn1 Zn 0.19509(9) 0.51356(5) 0.82453(6)
O1 O 0.0058(8) 0.5850(6) 0.7828(7)
O2 O 0.1284(7) 0.5378(4) 0.9265(7)
O3 O 0.3591(5) 0.4255(4) 0.8974(4)
O4 O 0.2276(6) 0.3041(4) 0.8879(4)
N1 N -0.4871(6) 0.6679(4) 0.8354(4)
N2 N -0.6793(6) 0.6189(4) 0.8289(4)
N3 N 0.8719(6) 0.1197(4) 1.0730(4)
N4 N 1.0686(6) 0.0434(4) 1.1918(4)
C1 C 0.0185(12) 0.5771(7) 0.8539(11)
C2 C -0.1075(9) 0.6121(5) 0.8556(8)
C3 C -0.1005(8) 0.6060(5) 0.9324(6)
H1 H -0.0126 0.5866 0.9887
C4 C -0.2237(8) 0.6283(5) 0.9280(6)
H2 H -0.2185 0.6239 0.9810
C5 C -0.3522(7) 0.6566(4) 0.8454(5)
C6 C -0.3591(9) 0.6666(6) 0.7665(6)
H3 H -0.4462 0.6866 0.7102
C7 C -0.2337(9) 0.6460(6) 0.7740(7)
H4 H -0.2347 0.6553 0.7230
C8 C -0.5429(7) 0.6012(5) 0.8593(5)
H5 H -0.4898 0.5482 0.8937
C9 C -0.5996(7) 0.7348(5) 0.7837(5)
C10 C -0.6042(8) 0.8182(5) 0.7443(5)
H6 H -0.5233 0.8394 0.7480
C11 C -0.7374(9) 0.8696(5) 0.6981(6)
H7 H -0.7453 0.9260 0.6700
C12 C -0.8571(8) 0.8382(5) 0.6934(6)
H8 H -0.9446 0.8731 0.6612
C13 C -0.8480(7) 0.7552(5) 0.7363(5)
H9 H -0.9277 0.7351 0.7344
C14 C -0.7178(7) 0.7026(5) 0.7821(5)
C15 C 0.3415(8) 0.3388(6) 0.9070(5)
C16 C 0.4786(7) 0.2793(5) 0.9475(5)
C17 C 0.6013(8) 0.3131(5) 0.9575(5)
H10 H 0.5990 0.3742 0.9391
C18 C 0.7268(7) 0.2604(5) 0.9935(5)
H11 H 0.8055 0.2848 0.9966
C19 C 0.7359(8) 0.1713(5) 1.0251(5)
C20 C 0.6140(8) 0.1339(5) 1.0156(5)
H12 H 0.6171 0.0728 1.0341
C21 C 0.4885(8) 0.1880(5) 0.9785(5)
H13 H 0.4087 0.1632 0.9739
C22 C 0.9344(8) 0.0736(5) 1.1544(5)
H14 H 0.8865 0.0644 1.1808
C23 C 0.9793(8) 0.1192(5) 1.0567(5)
C24 C 0.9766(9) 0.1533(5) 0.9857(5)
H15 H 0.8941 0.1846 0.9352
C25 C 1.1056(10) 0.1384(6) 0.9933(6)
H16 H 1.1092 0.1612 0.9467
C26 C 1.2283(9) 0.0908(5) 1.0681(7)
H17 H 1.3120 0.0824 1.0708
C27 C 1.2275(8) 0.0557(5) 1.1384(6)
H18 H 1.3085 0.0231 1.1885
C28 C 1.0999(7) 0.0716(5) 1.1307(5)
Zn1_2 Zn -0.80491(9) 0.51356(5) 0.82453(6)
Zn1C Zn 1.19509(9) -0.01356(5) 1.32453(6)
N2_2 N 0.3207(6) 0.6189(4) 0.8289(4)
N4C N 0.0686(6) 0.4566(4) 0.6918(4)
loop_
_geom_bond_atom_site_label_1
_geom_bond_atom_site_label_2
_geom_bond_site_symmetry_1
_geom_bond_site_symmetry_2
Zn1 O1 1_555 1_555
O1 C1 1_555 1_555
O2 Zn1 1_555 1_555
O3 Zn1 1_555 1_555
O4 C15 1_555 1_555
N1 C5 1_555 1_555
N2 C8 1_555 1_555
N3 C19 1_555 1_555
N4 C22 1_555 1_555
C1 O2 1_555 1_555
C2 C1 1_555 1_555
C3 C2 1_555 1_555
H1 C3 1_555 1_555
C4 C3 1_555 1_555
H2 C4 1_555 1_555
C5 C4 1_555 1_555
C6 C5 1_555 1_555
H3 C6 1_555 1_555
C7 C2 1_555 1_555
H4 C7 1_555 1_555
C8 N1 1_555 1_555
H5 C8 1_555 1_555
C9 N1 1_555 1_555
C10 C9 1_555 1_555
H6 C10 1_555 1_555
C11 C10 1_555 1_555
H7 C11 1_555 1_555
C12 C11 1_555 1_555
H8 C12 1_555 1_555
C13 C12 1_555 1_555
H9 C13 1_555 1_555
C14 N2 1_555 1_555
C15 O3 1_555 1_555
C16 C15 1_555 1_555
C17 C16 1_555 1_555
H10 C17 1_555 1_555
C18 C17 1_555 1_555
H11 C18 1_555 1_555
C19 C18 1_555 1_555
C20 C19 1_555 1_555
H12 C20 1_555 1_555
C21 C16 1_555 1_555
H13 C21 1_555 1_555
C22 N3 1_555 1_555
H14 C22 1_555 1_555
C23 N3 1_555 1_555
C24 C23 1_555 1_555
H15 C24 1_555 1_555
C25 C24 1_555 1_555
H16 C25 1_555 1_555
C26 C25 1_555 1_555
H17 C26 1_555 1_555
C27 C26 1_555 1_555
H18 C27 1_555 1_555
C28 N4 1_555 1_555
Zn1_2 N2 1_555 1_555
Zn1C N4 1_555 1_555
N2_2 Zn1 1_555 1_555
N4C Zn1 1_555 1_555
C6 C7 1_555 1_555
C9 C14 1_555 1_555
C13 C14 1_555 1_555
C20 C21 1_555 1_555
C23 C28 1_555 1_555
C27 C28 1_555 1_555

#END
