
#######################################################################
#
#                 Cambridge Crystallographic Data Centre
#                                CCDC 
#
#######################################################################
#
# If this CIF has been generated from an entry in the Cambridge 
# Structural Database, then it will include bibliographic, chemical, 
# crystal, experimental, refinement or atomic coordinate data resulting 
# from the CCDC's data processing and validation procedures.
#
#######################################################################

data_QODGOF
_symmetry_cell_setting           triclinic
_symmetry_space_group_name_H-M   'P -1'
_symmetry_Int_Tables_number      2
_space_group_name_Hall           '-P 1'
loop_
_symmetry_equiv_pos_site_id
_symmetry_equiv_pos_as_xyz
1 x,y,z
2 -x,-y,-z
_cell_length_a                   7.308(1)
_cell_length_b                   8.738(2)
_cell_length_c                   9.247(2)
_cell_angle_alpha                71.92(2)
_cell_angle_beta                 81.66(1)
_cell_angle_gamma                65.47(2)
_cell_volume                     510.579
loop_
_atom_site_label
_atom_site_type_symbol
_atom_site_fract_x
_atom_site_fract_y
_atom_site_fract_z
Co1 Co 0.0000 0.0000 0.0000
C1 C 0.6665(2) -0.2932(2) -0.1140(2)
C2 C 0.4641(2) -0.2292(2) -0.0683(2)
N1 N 0.3000(2) -0.1724(2) -0.0304(2)
C3 C 0.7909(2) -0.2245(2) -0.0785(2)
N2 N 0.8862(2) -0.1646(2) -0.0481(2)
C4 C 0.7380(2) -0.4104(2) -0.2036(2)
N3 N 0.7937(2) -0.5057(2) -0.2769(2)
O1 O -0.0100(2) 0.1288(2) -0.2267(2)
H7 H -0.0651(3) 0.2313(3) -0.2533(3)
H8 H 0.0931(3) 0.1018(3) -0.2686(3)
C1A C -0.6665(2) 0.2932(2) 0.1140(2)
C2A C -0.4641(2) 0.2292(2) 0.0683(2)
N1A N -0.3000(2) 0.1724(2) 0.0304(2)
C3A C -0.7909(2) 0.2245(2) 0.0785(2)
N2A N -0.8862(2) 0.1646(2) 0.0481(2)
C4A C -0.7380(2) 0.4104(2) 0.2036(2)
N3A N -0.7937(2) 0.5057(2) 0.2769(2)
O1A O 0.0100(2) -0.1288(2) 0.2267(2)
H7A H 0.0651(3) -0.2313(3) 0.2533(3)
H8A H -0.0931(3) -0.1018(3) 0.2686(3)
N2_2 N -0.1138(2) -0.1646(2) -0.0481(2)
N2A_2 N 0.1138(2) 0.1646(2) 0.0481(2)
Co1_2 Co 1.0000 0.0000 0.0000
Co1_3 Co -1.0000 0.0000 0.0000
N4 N 0.3371(2) 0.0385(2) -0.4034(2)
C5 C 0.4551(2) 0.1283(2) -0.4339(2)
C6 C 0.4025(2) 0.2691(2) -0.3558(2)
C7 C 0.3796(2) -0.0903(2) -0.4680(2)
C8 C 0.2487(2) -0.1914(2) -0.4270(2)
H1 H 0.5090(2) 0.3306(2) -0.3903(2)
H2 H 0.4078(2) 0.2118(2) -0.2340(2)
H3 H 0.2528(2) 0.3659(2) -0.3869(2)
H4 H 0.3010(2) -0.2901(2) -0.4876(2)
H5 H 0.0955(2) -0.1036(2) -0.4578(2)
H6 H 0.2550(2) -0.2537(2) -0.3060(2)
C7A C 0.6204(2) 0.0903(2) -0.5320(2)
N4A N 0.6629(2) -0.0385(2) -0.5966(2)
C5A C 0.5449(2) -0.1283(2) -0.5661(2)
C6A C 0.5975(2) -0.2691(2) -0.6442(2)
H1A H 0.4910(2) -0.3306(2) -0.6097(2)
H2A H 0.5922(2) -0.2118(2) -0.7660(2)
H3A H 0.7472(2) -0.3659(2) -0.6131(2)
C8A C 0.7513(2) 0.1914(2) -0.5730(2)
H4A H 0.6990(2) 0.2901(2) -0.5124(2)
H5A H 0.9045(2) 0.1036(2) -0.5422(2)
H6A H 0.7450(2) 0.2537(2) -0.6940(2)
loop_
_geom_bond_atom_site_label_1
_geom_bond_atom_site_label_2
_geom_bond_site_symmetry_1
_geom_bond_site_symmetry_2
Co1 N1 1_555 1_555
C1 C2 1_555 1_555
C2 N1 1_555 1_555
C3 C1 1_555 1_555
N2 C3 1_555 1_555
C4 C1 1_555 1_555
N3 C4 1_555 1_555
N4 C5 1_555 1_555
C5 C6 1_555 1_555
C6 H1 1_555 1_555
C7 N4 1_555 1_555
C8 C7 1_555 1_555
O1 Co1 1_555 1_555
H2 C6 1_555 1_555
H3 C6 1_555 1_555
H4 C8 1_555 1_555
H5 C8 1_555 1_555
H6 C8 1_555 1_555
H7 O1 1_555 1_555
H8 O1 1_555 1_555
C7A C5 1_555 1_555
N4A C7A 1_555 1_555
C5A C7 1_555 1_555
C6A C5A 1_555 1_555
H1A C6A 1_555 1_555
H2A C6A 1_555 1_555
H3A C6A 1_555 1_555
C8A C7A 1_555 1_555
H4A C8A 1_555 1_555
H5A C8A 1_555 1_555
H6A C8A 1_555 1_555
C1A C2A 1_555 1_555
C2A N1A 1_555 1_555
N1A Co1 1_555 1_555
C3A C1A 1_555 1_555
N2A C3A 1_555 1_555
C4A C1A 1_555 1_555
N3A C4A 1_555 1_555
O1A Co1 1_555 1_555
H7A O1A 1_555 1_555
H8A O1A 1_555 1_555
N2_2 Co1 1_555 1_555
N2A_2 Co1 1_555 1_555
Co1_2 N2 1_555 1_555
Co1_3 N2A 1_555 1_555
N4A C5A 1_555 1_555

#END
