
#######################################################################
#
#                 Cambridge Crystallographic Data Centre
#                                CCDC 
#
#######################################################################
#
# If this CIF has been generated from an entry in the Cambridge 
# Structural Database, then it will include bibliographic, chemical, 
# crystal, experimental, refinement or atomic coordinate data resulting 
# from the CCDC's data processing and validation procedures.
#
#######################################################################

data_QODHEW
_symmetry_cell_setting           monoclinic
_symmetry_space_group_name_H-M   'P 21/c'
_symmetry_Int_Tables_number      14
_space_group_name_Hall           '-P 2ybc'
loop_
_symmetry_equiv_pos_site_id
_symmetry_equiv_pos_as_xyz
1 x,y,z
2 -x,1/2+y,1/2-z
3 -x,-y,-z
4 x,1/2-y,1/2+z
_cell_length_a                   15.2397(2)
_cell_length_b                   30.4642(5)
_cell_length_c                   11.2657(1)
_cell_angle_alpha                90
_cell_angle_beta                 93.212(1)
_cell_angle_gamma                90
_cell_volume                     5222.06
loop_
_atom_site_label
_atom_site_type_symbol
_atom_site_fract_x
_atom_site_fract_y
_atom_site_fract_z
Hg1 Hg -0.1869(1) 1.3172(1) 0.5947(1)
Hg2 Hg 0.8453(1) 0.9752(1) 1.3335(1)
Br1 Br -0.1806(2) 1.3930(1) 0.6774(2)
Br2 Br -0.1837(1) 1.2748(1) 0.4026(2)
Br3 Br 0.8358(2) 1.0056(1) 1.5375(2)
Br4 Br 0.8427(2) 0.9067(1) 1.2152(3)
N1 N 0.1938(9) 1.1609(5) 1.0126(12)
N2 N 0.3233(12) 1.2141(6) 0.8897(14)
N3 N 0.4611(10) 1.1530(6) 0.9783(13)
N4 N 0.3312(11) 1.1001(6) 1.0980(13)
N5 N -0.0650(11) 1.2834(6) 0.6982(15)
N6 N 0.6873(11) 1.2867(6) 0.6764(16)
N7 N 0.7092(12) 1.0098(6) 1.2475(16)
N8 N -0.0324(11) 1.0152(6) 1.2676(15)
C1 C 0.1432(12) 1.1304(7) 1.0685(17)
C2 C 0.0533(14) 1.1406(7) 1.0465(17)
C3 C 0.0502(13) 1.1773(7) 0.9739(18)
C4 C 0.1380(12) 1.1881(6) 0.9521(16)
C5 C 0.1648(14) 1.2230(7) 0.8747(15)
C6 C 0.2467(14) 1.2345(8) 0.8482(19)
C7 C 0.2698(15) 1.2683(8) 0.7672(22)
C8 C 0.3603(15) 1.2682(7) 0.7611(19)
C9 C 0.3910(15) 1.2331(7) 0.8386(17)
C10 C 0.4796(14) 1.2189(8) 0.8497(18)
C11 C 0.5094(12) 1.1818(7) 0.9150(17)
C12 C 0.6010(14) 1.1668(8) 0.9258(18)
C13 C 0.6038(14) 1.1300(7) 0.9939(18)
C14 C 0.5167(12) 1.1216(7) 1.0279(17)
C15 C 0.4925(13) 1.0868(8) 1.0994(17)
C16 C 0.4063(13) 1.0762(6) 1.1305(16)
C17 C 0.3804(13) 1.0390(8) 1.2006(18)
C18 C 0.2948(14) 1.0407(7) 1.2035(18)
C19 C 0.2621(12) 1.0776(7) 1.1422(18)
C20 C 0.1755(15) 1.0925(7) 1.1329(18)
C21 C 0.0889(13) 1.2464(7) 0.8133(17)
C22 C 0.0558(14) 1.2846(7) 0.8508(17)
C23 C -0.0211(14) 1.3034(8) 0.7930(19)
C24 C -0.0271(15) 1.2465(7) 0.6584(18)
C25 C 0.0460(14) 1.2260(8) 0.7138(19)
C26 C 0.5487(12) 1.2427(6) 0.7873(16)
C27 C 0.5897(14) 1.2249(9) 0.6924(18)
C28 C 0.6606(14) 1.2481(9) 0.6431(18)
C29 C 0.6467(16) 1.3063(7) 0.7650(19)
C30 C 0.5758(14) 1.2850(7) 0.8211(18)
C31 C 0.5651(12) 1.0570(7) 1.1497(17)
C32 C 0.6097(15) 1.0299(7) 1.0807(18)
C33 C 0.6835(15) 1.0044(8) 1.1323(20)
C34 C 0.6646(13) 1.0370(8) 1.3164(18)
C35 C 0.5945(15) 1.0607(8) 1.2670(18)
C36 C 0.1042(14) 1.0640(7) 1.1831(19)
C37 C 0.0590(14) 1.0786(8) 1.2781(18)
C38 C -0.0073(13) 1.0534(6) 1.3162(16)
C39 C 0.0141(14) 1.0008(9) 1.1784(22)
C40 C 0.0820(15) 1.0250(10) 1.1322(20)
N6_2 N -0.3127(11) 1.2867(6) 0.6764(16)
N8_2 N 0.9676(11) 1.0152(6) 1.2676(15)
Hg1_2 Hg 0.8131(1) 1.3172(1) 0.5947(1)
Hg2_2 Hg -0.1547(1) 0.9752(1) 1.3335(1)
Cl1 Cl -0.5680(16) 1.0650(10) 1.5026(17)
Cl2 Cl -0.5667(10) 1.0971(5) 1.7359(11)
Cl3 Cl -0.7490(12) 1.1240(6) 1.4529(17)
Cl4 Cl -0.5995(17) 1.1737(7) 1.5476(14)
C41 C -0.6798(56) 1.1336(22) 1.5699(44)
C42 C -0.6256(22) 1.0889(13) 1.6118(37)
Cl5 Cl -0.0692(8) 1.1193(3) 1.7121(14)
Cl6 Cl -0.2243(11) 1.0805(4) 1.8215(13)
Cl7 Cl -0.3422(7) 1.1119(5) 1.6050(20)
Cl8 Cl -0.1906(8) 1.1611(4) 1.5125(9)
C43 C -0.1892(37) 1.1226(15) 1.7065(47)
C44 C -0.2204(36) 1.1206(14) 1.5788(79)
loop_
_geom_bond_atom_site_label_1
_geom_bond_atom_site_label_2
_geom_bond_site_symmetry_1
_geom_bond_site_symmetry_2
Hg1 Br1 1_555 1_555
Hg2 Br3 1_555 1_555
Br2 Hg1 1_555 1_555
Br4 Hg2 1_555 1_555
Cl1 C42 1_555 1_555
Cl2 C42 1_555 1_555
Cl3 C41 1_555 1_555
Cl4 C41 1_555 1_555
Cl5 C43 1_555 1_555
Cl6 C43 1_555 1_555
Cl7 C44 1_555 1_555
Cl8 C44 1_555 1_555
N1 C1 1_555 1_555
N2 C6 1_555 1_555
N3 C11 1_555 1_555
N4 C16 1_555 1_555
N5 Hg1 1_555 1_555
N6 C28 1_555 1_555
N7 Hg2 1_555 1_555
N8 C38 1_555 1_555
C1 C2 1_555 1_555
C2 C3 1_555 1_555
C3 C4 1_555 1_555
C4 N1 1_555 1_555
C5 C4 1_555 1_555
C6 C5 1_555 1_555
C7 C6 1_555 1_555
C8 C7 1_555 1_555
C9 N2 1_555 1_555
C10 C9 1_555 1_555
C11 C10 1_555 1_555
C12 C11 1_555 1_555
C13 C12 1_555 1_555
C14 N3 1_555 1_555
C15 C14 1_555 1_555
C16 C15 1_555 1_555
C17 C16 1_555 1_555
C18 C17 1_555 1_555
C19 N4 1_555 1_555
C20 C1 1_555 1_555
C21 C5 1_555 1_555
C22 C21 1_555 1_555
C23 N5 1_555 1_555
C24 N5 1_555 1_555
C25 C21 1_555 1_555
C26 C10 1_555 1_555
C27 C26 1_555 1_555
C28 C27 1_555 1_555
C29 N6 1_555 1_555
C30 C26 1_555 1_555
C31 C15 1_555 1_555
C32 C31 1_555 1_555
C33 N7 1_555 1_555
C34 N7 1_555 1_555
C35 C31 1_555 1_555
C36 C20 1_555 1_555
C37 C36 1_555 1_555
C38 C37 1_555 1_555
C39 N8 1_555 1_555
C40 C36 1_555 1_555
C41 C42 1_555 1_555
C43 C44 1_555 1_555
N6_2 Hg1 1_555 1_555
N8_2 Hg2 1_555 1_555
Hg1_2 N6 1_555 1_555
Hg2_2 N8 1_555 1_555
C8 C9 1_555 1_555
C13 C14 1_555 1_555
C18 C19 1_555 1_555
C19 C20 1_555 1_555
C22 C23 1_555 1_555
C24 C25 1_555 1_555
C29 C30 1_555 1_555
C32 C33 1_555 1_555
C34 C35 1_555 1_555
C39 C40 1_555 1_555

#END
