
#######################################################################
#
#                 Cambridge Crystallographic Data Centre
#                                CCDC 
#
#######################################################################
#
# If this CIF has been generated from an entry in the Cambridge 
# Structural Database, then it will include bibliographic, chemical, 
# crystal, experimental, refinement or atomic coordinate data resulting 
# from the CCDC's data processing and validation procedures.
#
#######################################################################

data_QODVIQ
_symmetry_cell_setting           monoclinic
_symmetry_space_group_name_H-M   'P 2/c'
_symmetry_Int_Tables_number      13
_space_group_name_Hall           '-P 2yc'
loop_
_symmetry_equiv_pos_site_id
_symmetry_equiv_pos_as_xyz
1 x,y,z
2 -x,y,1/2-z
3 -x,-y,-z
4 x,-y,1/2+z
_cell_length_a                   11.4622(15)
_cell_length_b                   9.4091(12)
_cell_length_c                   22.611(3)
_cell_angle_alpha                90
_cell_angle_beta                 91.698(2)
_cell_angle_gamma                90
_cell_volume                     2437.5
loop_
_atom_site_label
_atom_site_type_symbol
_atom_site_fract_x
_atom_site_fract_y
_atom_site_fract_z
C1 C 0.2892(4) 1.2146(5) 0.3033(2)
H1 H 0.2929 1.2864 0.3316
C2 C 0.2098(4) 1.1087(5) 0.3100(2)
H2 H 0.1614 1.1078 0.3423
C3 C 0.2025(3) 1.0018(4) 0.26767(19)
C4 C 0.2758(4) 1.0075(4) 0.2209(2)
H3 H 0.2731 0.9377 0.1917
C5 C 0.3531(4) 1.1186(5) 0.2180(2)
H4 H 0.4021 1.1224 0.1860
C6 C 0.1017(3) 0.7984(4) 0.23053(16)
H5 H 0.1701 0.7401 0.2245
H6 H 0.0816 0.8472 0.1938
C7 C 0.0000 0.7070(5) 0.2500
C8 C 0.0423(3) 0.6146(4) 0.30156(17)
H7 H 0.1063 0.5546 0.2896
H8 H 0.0694 0.6736 0.3343
C9 C -0.0368(3) 0.4289(4) 0.3603(2)
C10 C 0.0615(4) 0.4162(5) 0.3973(2)
H9 H 0.1223 0.4814 0.3956
C11 C 0.0662(4) 0.3057(5) 0.4360(2)
H10 H 0.1328 0.2977 0.4603
C12 C -0.1093(4) 0.2232(6) 0.4063(3)
H11 H -0.1685 0.1559 0.4086
C13 C -0.1241(4) 0.3309(6) 0.3665(3)
H12 H -0.1927 0.3379 0.3437
C14 C 0.2594(3) -0.0701(4) 0.46789(19)
C15 C 0.3898(3) -0.0663(4) 0.47977(18)
H13 H 0.4222 -0.1550 0.4645
C16 C 0.4438(3) 0.0555(5) 0.4460(2)
H14 H 0.4240 0.0459 0.4042
H15 H 0.4121 0.1449 0.4596
C17 C 0.5751(3) 0.0565(5) 0.4549(2)
H16 H 0.6073 0.1369 0.4340
H17 H 0.6073 -0.0296 0.4384
C18 C 0.5611(4) 1.5258(6) 0.3772(2)
Cd1 Cd 0.5000 1.39987(4) 0.2500
Cd2 Cd 0.0000 0.0000 0.5000
N1 N 0.3620(3) 1.2211(4) 0.25842(15)
N2 N -0.0168(3) 0.2080(4) 0.44199(17)
O1 O 0.2215(3) -0.1508(4) 0.42797(17)
O2 O 0.1976(2) 0.0107(3) 0.49775(14)
O3 O 0.0054(3) 0.1170(4) 0.58827(16)
H18 H 0.0637 0.1729 0.5896
H19 H -0.0570 0.1647 0.5916
O4 O 0.3491(3) 1.5621(4) 0.25762(14)
H20 H 0.3765 1.6459 0.2557
H21 H 0.2998 1.5491 0.2293
O5 O -0.0543(2) 0.5290(3) 0.31884(15)
O6 O 0.1238(3) 0.8994(3) 0.27757(13)
O7 O 0.5260(3) 1.4185(4) 0.34968(14)
O8 O 0.6155(4) 1.6270(4) 0.35464(16)
C19 C 0.4080(4) 1.5036(6) 0.4547(2)
H22 H 0.3538 1.5609 0.4311
H23 H 0.3962 1.4050 0.4436
C20 C 0.6179(5) 1.4785(8) 0.4811(2)
H24 H 0.6946 1.5173 0.4740
H25 H 0.6201 1.3778 0.4720
C21 C 0.5331(4) 1.5472(7) 0.4412(2)
H26 H 0.5388 1.6495 0.4488
C1A C -0.2892(4) 1.2146(5) 0.1967(2)
H1A H -0.2929 1.2864 0.1684
C2A C -0.2098(4) 1.1087(5) 0.1900(2)
H2A H -0.1614 1.1078 0.1577
C3A C -0.2025(3) 1.0018(4) 0.23233(19)
C4A C -0.2758(4) 1.0075(4) 0.2791(2)
H3A H -0.2731 0.9377 0.3083
C5A C -0.3531(4) 1.1186(5) 0.2820(2)
H4A H -0.4021 1.1224 0.3140
C6A C -0.1017(3) 0.7984(4) 0.26947(16)
H5A H -0.1701 0.7401 0.2755
H6A H -0.0816 0.8472 0.3062
C8A C -0.0423(3) 0.6146(4) 0.19844(17)
H7A H -0.1063 0.5546 0.2104
H8A H -0.0694 0.6736 0.1657
C9A C 0.0368(3) 0.4289(4) 0.1397(2)
C10A C -0.0615(4) 0.4162(5) 0.1027(2)
H9A H -0.1223 0.4814 0.1044
C11A C -0.0662(4) 0.3057(5) 0.0640(2)
H10A H -0.1328 0.2977 0.0397
C12A C 0.1093(4) 0.2232(6) 0.0937(3)
H11A H 0.1685 0.1559 0.0914
C13A C 0.1241(4) 0.3309(6) 0.1335(3)
H12A H 0.1927 0.3379 0.1563
N1A N -0.3620(3) 1.2211(4) 0.24158(15)
N2A N 0.0168(3) 0.2080(4) 0.05801(17)
O5A O 0.0543(2) 0.5290(3) 0.18116(15)
O6A O -0.1238(3) 0.8994(3) 0.22243(13)
C14B C 0.7406(3) 0.0701(4) 0.53211(19)
C15B C 0.6102(3) 0.0663(4) 0.52023(18)
H13B H 0.5778 0.1550 0.5355
C16B C 0.5562(3) -0.0555(5) 0.5540(2)
H14B H 0.5760 -0.0459 0.5958
H15B H 0.5879 -0.1449 0.5404
C17B C 0.4249(3) -0.0565(5) 0.5451(2)
H16B H 0.3927 -0.1369 0.5660
H17B H 0.3927 0.0296 0.5616
O1B O 0.7785(3) 0.1508(4) 0.57203(17)
O2B O 0.8024(2) -0.0107(3) 0.50225(14)
C18B C 0.4389(4) 1.4742(6) 0.6228(2)
O7B O 0.4740(3) 1.5815(4) 0.65032(14)
O8B O 0.3845(4) 1.3730(4) 0.64536(16)
C19B C 0.5920(4) 1.4964(6) 0.5453(2)
H22B H 0.6462 1.4391 0.5689
H23B H 0.6038 1.5950 0.5564
C20B C 0.3821(5) 1.5215(8) 0.5189(2)
H24B H 0.3054 1.4827 0.5260
H25B H 0.3799 1.6222 0.5280
C21B C 0.4669(4) 1.4528(7) 0.5588(2)
H26B H 0.4612 1.3505 0.5512
O3B O -0.0054(3) -0.1170(4) 0.41173(16)
H18B H -0.0637 -0.1729 0.4104
H19B H 0.0570 -0.1647 0.4084
O4A O 0.6509(3) 1.5621(4) 0.24238(14)
H20A H 0.6235 1.6459 0.2443
H21A H 0.7002 1.5491 0.2707
Cd1_2 Cd -0.5000 1.39987(4) 0.2500
Cd1B Cd 0.5000 1.60013(4) 0.7500
Cd2_2 Cd 1.0000 0.0000 0.5000
Cd2A Cd 0.0000 0.0000 0.0000
N1A_2 N 0.6380(3) 1.2211(4) 0.24158(15)
N2B N 0.0168(3) -0.2080(4) 0.55801(17)
O2B_2 O -0.1976(2) -0.0107(3) 0.50225(14)
O7A O 0.4740(3) 1.4185(4) 0.15032(14)
O9 O 0.2104(3) 0.2414(5) 0.5801(2)
H27 H 0.2714 0.1956 0.5712
H28 H 0.2290 0.3085 0.6037
O10 O 0.6232(4) 0.2187(5) 0.66419(19)
H29 H 0.5881 0.2664 0.6371
H30 H 0.6861 0.1850 0.6510
loop_
_geom_bond_atom_site_label_1
_geom_bond_atom_site_label_2
_geom_bond_site_symmetry_1
_geom_bond_site_symmetry_2
C1 H1 1_555 1_555
C2 C1 1_555 1_555
H2 C2 1_555 1_555
C3 C2 1_555 1_555
C4 C3 1_555 1_555
H3 C4 1_555 1_555
C5 C4 1_555 1_555
H4 C5 1_555 1_555
C6 H5 1_555 1_555
H6 C6 1_555 1_555
C7 C6 1_555 1_555
C8 C7 1_555 1_555
H7 C8 1_555 1_555
H8 C8 1_555 1_555
C9 C10 1_555 1_555
C10 H9 1_555 1_555
C11 C10 1_555 1_555
H10 C11 1_555 1_555
C12 H11 1_555 1_555
C13 C9 1_555 1_555
H12 C13 1_555 1_555
C14 C15 1_555 1_555
C15 H13 1_555 1_555
C16 C15 1_555 1_555
H14 C16 1_555 1_555
H15 C16 1_555 1_555
C17 C16 1_555 1_555
H16 C17 1_555 1_555
H17 C17 1_555 1_555
C18 O7 1_555 1_555
Cd1 N1 1_555 1_555
Cd2 N2 1_555 1_555
N1 C1 1_555 1_555
N2 C11 1_555 1_555
O1 C14 1_555 1_555
O2 C14 1_555 1_555
O3 Cd2 1_555 1_555
H18 O3 1_555 1_555
H19 O3 1_555 1_555
O4 Cd1 1_555 1_555
H20 O4 1_555 1_555
H21 O4 1_555 1_555
O5 C8 1_555 1_555
O6 C3 1_555 1_555
O7 Cd1 1_555 1_555
O8 C18 1_555 1_555
C19 H22 1_555 1_555
H23 C19 1_555 1_555
C20 H24 1_555 1_555
H25 C20 1_555 1_555
C21 C18 1_555 1_555
H26 C21 1_555 1_555
O9 H27 1_555 1_555
H28 O9 1_555 1_555
O10 H29 1_555 1_555
H30 O10 1_555 1_555
C1A H1A 1_555 1_555
C2A C1A 1_555 1_555
H2A C2A 1_555 1_555
C3A C2A 1_555 1_555
C4A C3A 1_555 1_555
H3A C4A 1_555 1_555
C5A C4A 1_555 1_555
H4A C5A 1_555 1_555
C6A C7 1_555 1_555
H5A C6A 1_555 1_555
H6A C6A 1_555 1_555
C8A C7 1_555 1_555
H7A C8A 1_555 1_555
H8A C8A 1_555 1_555
C9A C10A 1_555 1_555
C10A H9A 1_555 1_555
C11A C10A 1_555 1_555
H10A C11A 1_555 1_555
C12A H11A 1_555 1_555
C13A C9A 1_555 1_555
H12A C13A 1_555 1_555
N1A C1A 1_555 1_555
N2A C11A 1_555 1_555
O5A C8A 1_555 1_555
O6A C3A 1_555 1_555
C14B C15B 1_555 1_555
C15B C17 1_555 1_555
H13B C15B 1_555 1_555
C16B C15B 1_555 1_555
H14B C16B 1_555 1_555
H15B C16B 1_555 1_555
C17B C15 1_555 1_555
H16B C17B 1_555 1_555
H17B C17B 1_555 1_555
O1B C14B 1_555 1_555
O2B C14B 1_555 1_555
C18B O7B 1_555 1_555
O7B Cd1B 1_555 1_555
O8B C18B 1_555 1_555
C19B C20 1_555 1_555
H22B C19B 1_555 1_555
H23B C19B 1_555 1_555
C20B C19 1_555 1_555
H24B C20B 1_555 1_555
H25B C20B 1_555 1_555
C21B C18B 1_555 1_555
H26B C21B 1_555 1_555
O3B Cd2 1_555 1_555
H18B O3B 1_555 1_555
H19B O3B 1_555 1_555
O4A Cd1 1_555 1_555
H20A O4A 1_555 1_555
H21A O4A 1_555 1_555
Cd1_2 N1A 1_555 1_555
Cd2_2 O2B 1_555 1_555
Cd2A N2A 1_555 1_555
N1A_2 Cd1 1_555 1_555
N2B Cd2 1_555 1_555
O2B_2 Cd2 1_555 1_555
O7A Cd1 1_555 1_555
C5 N1 1_555 1_555
C6 O6 1_555 1_555
C9 O5 1_555 1_555
C12 C13 1_555 1_555
C12 N2 1_555 1_555
Cd2 O2 1_555 1_555
C19 C21 1_555 1_555
C20 C21 1_555 1_555
C5A N1A 1_555 1_555
C6A O6A 1_555 1_555
C9A O5A 1_555 1_555
C12A C13A 1_555 1_555
C12A N2A 1_555 1_555
C16B C17B 1_555 1_555
C19B C21B 1_555 1_555
C20B C21B 1_555 1_555

#END
