
#######################################################################
#
#                 Cambridge Crystallographic Data Centre
#                                CCDC 
#
#######################################################################
#
# If this CIF has been generated from an entry in the Cambridge 
# Structural Database, then it will include bibliographic, chemical, 
# crystal, experimental, refinement or atomic coordinate data resulting 
# from the CCDC's data processing and validation procedures.
#
#######################################################################

data_QOFBUJ
_symmetry_cell_setting           monoclinic
_symmetry_space_group_name_H-M   'P m'
_symmetry_Int_Tables_number      6
_space_group_name_Hall           'P -2y'
loop_
_symmetry_equiv_pos_site_id
_symmetry_equiv_pos_as_xyz
1 x,y,z
2 x,-y,z
_cell_length_a                   5.364(1)
_cell_length_b                   6.631(1)
_cell_length_c                   5.648(1)
_cell_angle_alpha                90
_cell_angle_beta                 105.68(3)
_cell_angle_gamma                90
_cell_volume                     193.416
loop_
_atom_site_label
_atom_site_type_symbol
_atom_site_fract_x
_atom_site_fract_y
_atom_site_fract_z
Ag1 Ag 0.0000 0.0000 0.0000
N1 N 0.0812(7) 0.3210(5) -0.1434(6)
N2 N -0.3941(12) 0.0000 0.2739(11)
N3 N -0.2868(14) 0.5000 0.2174(11)
O1 O -0.5859(15) 0.0000 0.3630(14)
O2 O -0.4362(11) 0.0000 0.0464(9)
O3 O -0.1660(14) 0.0000 0.4011(12)
C1 C 0.0133(11) 0.5000 -0.0762(8)
C2 C 0.3112(14) 0.5000 -0.3807(11)
H1 H 0.4142(14) 0.5000 -0.4957(11)
C3 C 0.2332(9) 0.3226(6) -0.2988(7)
H2 H 0.2894(9) 0.1969(6) -0.3510(7)
C4 C -0.1558(13) 0.5000 0.0894(10)
Ag1_2 Ag 0.0000 1.0000 0.0000
Ag1_3 Ag -1.0000 0.0000 0.0000
N1A N 0.0812(7) 0.6790(5) -0.1434(6)
N1A_2 N 0.0812(7) -0.3210(5) -0.1434(6)
O1_2 O 0.4141(15) 0.0000 0.3630(14)
C3A C 0.2332(9) 0.6774(6) -0.2988(7)
H2A H 0.2894(9) 0.8031(6) -0.3510(7)
loop_
_geom_bond_atom_site_label_1
_geom_bond_atom_site_label_2
_geom_bond_site_symmetry_1
_geom_bond_site_symmetry_2
Ag1 N1 1_555 1_555
N1 C1 1_555 1_555
N2 O1 1_555 1_555
N3 C4 1_555 1_555
O1 Ag1_3 1_555 1_555
O2 Ag1 1_555 1_555
O3 Ag1 1_555 1_555
C1 C4 1_555 1_555
C2 H1 1_555 1_555
C3 N1 1_555 1_555
H2 C3 1_555 1_555
Ag1_2 N1A 1_555 1_555
N1A C1 1_555 1_555
N1A_2 Ag1 1_555 1_555
O1_2 Ag1 1_555 1_555
C3A C2 1_555 1_555
H2A C3A 1_555 1_555
N2 O2 1_555 1_555
N2 O3 1_555 1_555
C2 C3 1_555 1_555
N1A C3A 1_555 1_555

#END
