
#######################################################################
#
#                 Cambridge Crystallographic Data Centre
#                                CCDC 
#
#######################################################################
#
# If this CIF has been generated from an entry in the Cambridge 
# Structural Database, then it will include bibliographic, chemical, 
# crystal, experimental, refinement or atomic coordinate data resulting 
# from the CCDC's data processing and validation procedures.
#
#######################################################################

data_QOFCIX
_symmetry_cell_setting           monoclinic
_symmetry_space_group_name_H-M   'P 21/c'
_symmetry_Int_Tables_number      14
_space_group_name_Hall           '-P 2ybc'
loop_
_symmetry_equiv_pos_site_id
_symmetry_equiv_pos_as_xyz
1 x,y,z
2 x,1/2-y,1/2+z
3 -x,-y,-z
4 -x,1/2+y,1/2-z
_cell_length_a                   8.177(2)
_cell_length_b                   10.2910(10)
_cell_length_c                   14.771(2)
_cell_angle_alpha                90.000(10)
_cell_angle_beta                 102.190(10)
_cell_angle_gamma                90.000(10)
_cell_volume                     1214.95
loop_
_atom_site_label
_atom_site_type_symbol
_atom_site_fract_x
_atom_site_fract_y
_atom_site_fract_z
Ag1 Ag -0.03337(4) 0.27307(3) 0.20731(2)
S1 S -0.27758(12) 0.24709(9) 0.30347(6)
N1 N -0.1535(4) 0.3445(3) 0.5690(2)
N2 N -0.7605(4) 0.3311(4) 0.1972(2)
N3 N 0.1097(4) 0.0718(3) 0.3579(2)
O1 O 0.1304(4) -0.0162(3) 0.41612(19)
O2 O 0.1198(4) 0.1866(3) 0.3815(2)
O3 O 0.0791(5) 0.0430(3) 0.27394(19)
C1 C -0.1891(5) 0.2832(4) 0.4876(3)
H1 H -0.1719 0.1939 0.4869
C2 C -0.2499(4) 0.3449(4) 0.4046(2)
C3 C -0.2767(6) 0.4776(4) 0.4054(3)
H2 H -0.3172 0.5229 0.3508
C4 C -0.2419(7) 0.5400(5) 0.4886(3)
H3 H -0.2591 0.6292 0.4912
C5 C -0.1817(6) 0.4718(5) 0.5688(3)
H4 H -0.1598 0.5163 0.6249
C6 C -0.6176(5) 0.2933(4) 0.2533(3)
H5 H -0.6229 0.2540 0.3093
C7 C -0.4621(5) 0.3101(4) 0.2316(2)
C8 C -0.4556(5) 0.3668(5) 0.1481(3)
H6 H -0.3535 0.3794 0.1312
C9 C -0.6018(5) 0.4043(5) 0.0903(3)
H7 H -0.6001 0.4425 0.0335
C10 C -0.7500(5) 0.3853(4) 0.1169(3)
H8 H -0.8482 0.4115 0.0770
N1A N -0.1535(4) 0.1555(3) 0.0690(2)
N2_2 N 0.2395(4) 0.3311(4) 0.1972(2)
Ag1A Ag -0.03337(4) 0.22693(3) 0.70731(2)
Ag1_2 Ag -1.03337(4) 0.27307(3) 0.20731(2)
loop_
_geom_bond_atom_site_label_1
_geom_bond_atom_site_label_2
_geom_bond_site_symmetry_1
_geom_bond_site_symmetry_2
Ag1 S1 1_555 1_555
S1 C2 1_555 1_555
N1 C1 1_555 1_555
N2 C6 1_555 1_555
N3 O1 1_555 1_555
O2 N3 1_555 1_555
O3 Ag1 1_555 1_555
C1 H1 1_555 1_555
C2 C1 1_555 1_555
C3 C2 1_555 1_555
H2 C3 1_555 1_555
C4 C3 1_555 1_555
H3 C4 1_555 1_555
C5 N1 1_555 1_555
H4 C5 1_555 1_555
C6 H5 1_555 1_555
C7 S1 1_555 1_555
C8 C7 1_555 1_555
H6 C8 1_555 1_555
C9 C8 1_555 1_555
H7 C9 1_555 1_555
C10 N2 1_555 1_555
H8 C10 1_555 1_555
N1A Ag1 1_555 1_555
N2_2 Ag1 1_555 1_555
Ag1A N1 1_555 1_555
Ag1_2 N2 1_555 1_555
N3 O3 1_555 1_555
C4 C5 1_555 1_555
C6 C7 1_555 1_555
C9 C10 1_555 1_555

#END
