
#######################################################################
#
#                 Cambridge Crystallographic Data Centre
#                                CCDC 
#
#######################################################################
#
# If this CIF has been generated from an entry in the Cambridge 
# Structural Database, then it will include bibliographic, chemical, 
# crystal, experimental, refinement or atomic coordinate data resulting 
# from the CCDC's data processing and validation procedures.
#
#######################################################################

data_QOFDAQ
_symmetry_cell_setting           monoclinic
_symmetry_space_group_name_H-M   'P 21/c'
_symmetry_Int_Tables_number      14
_space_group_name_Hall           '-P 2ybc'
loop_
_symmetry_equiv_pos_site_id
_symmetry_equiv_pos_as_xyz
1 x,y,z
2 x,1/2-y,1/2+z
3 -x,-y,-z
4 -x,1/2+y,1/2-z
_cell_length_a                   10.959(2)
_cell_length_b                   9.808(2)
_cell_length_c                   14.065(3)
_cell_angle_alpha                90.00(2)
_cell_angle_beta                 112.03(2)
_cell_angle_gamma                90.000(10)
_cell_volume                     1401.41
loop_
_atom_site_label
_atom_site_type_symbol
_atom_site_fract_x
_atom_site_fract_y
_atom_site_fract_z
Ag1 Ag 0.07865(3) -0.60482(4) 0.09043(3)
S1 S 0.42534(13) -0.26720(19) 0.42049(13)
N1 N 0.2539(4) -0.4886(4) 0.1630(3)
N2 N 0.0896(4) -0.2362(4) 0.4668(3)
C1 C 0.2734(4) -0.4215(4) 0.2505(3)
H1 H 0.2064 -0.4204 0.2759
C2 C 0.3897(4) -0.3536(5) 0.3043(4)
C3 C 0.4883(4) -0.3552(5) 0.2645(4)
H2 H 0.5674 -0.3101 0.2982
C4 C 0.4672(5) -0.4241(6) 0.1747(5)
H3 H 0.5317 -0.4254 0.1467
C5 C 0.3503(5) -0.4910(5) 0.1267(4)
H4 H 0.3377 -0.5396 0.0670
C6 C 0.1842(4) -0.2222(5) 0.4291(4)
H5 H 0.1762 -0.1537 0.3813
C7 C 0.2933(5) -0.3060(5) 0.4587(4)
C8 C 0.3025(6) -0.4088(6) 0.5262(5)
H6 H 0.3740 -0.4680 0.5462
C9 C 0.2047(7) -0.4238(7) 0.5646(6)
H7 H 0.2088 -0.4937 0.6104
C10 C 0.1020(5) -0.3352(6) 0.5345(4)
H8 H 0.0377 -0.3441 0.5623
N2C N -0.0896(4) -0.7362(4) 0.0332(3)
Ag1C Ag -0.07865(3) -0.10482(4) 0.40957(3)
P1 P 0.17426(13) -0.70377(14) -0.15777(11)
F1 F 0.0783(4) -0.8281(4) -0.2010(3)
F2 F 0.2725(4) -0.5801(4) -0.1121(3)
F3 F 0.2022(5) -0.7540(5) -0.0427(3)
F4 F 0.0606(5) -0.6177(5) -0.1475(5)
F5 F 0.1574(7) -0.6614(7) -0.2668(3)
F6 F 0.2957(4) -0.7935(5) -0.1544(5)
loop_
_geom_bond_atom_site_label_1
_geom_bond_atom_site_label_2
_geom_bond_site_symmetry_1
_geom_bond_site_symmetry_2
Ag1 N1 1_555 1_555
S1 C2 1_555 1_555
P1 F1 1_555 1_555
N1 C1 1_555 1_555
N2 C6 1_555 1_555
F2 P1 1_555 1_555
F3 P1 1_555 1_555
F4 P1 1_555 1_555
F5 P1 1_555 1_555
F6 P1 1_555 1_555
C1 H1 1_555 1_555
C2 C1 1_555 1_555
C3 C2 1_555 1_555
H2 C3 1_555 1_555
C4 C3 1_555 1_555
H3 C4 1_555 1_555
C5 N1 1_555 1_555
H4 C5 1_555 1_555
C6 H5 1_555 1_555
C7 S1 1_555 1_555
C8 C7 1_555 1_555
H6 C8 1_555 1_555
C9 C8 1_555 1_555
H7 C9 1_555 1_555
C10 N2 1_555 1_555
H8 C10 1_555 1_555
N2C Ag1 1_555 1_555
Ag1C N2 1_555 1_555
C4 C5 1_555 1_555
C6 C7 1_555 1_555
C9 C10 1_555 1_555

#END
