
#######################################################################
#
#                 Cambridge Crystallographic Data Centre
#                                CCDC 
#
#######################################################################
#
# If this CIF has been generated from an entry in the Cambridge 
# Structural Database, then it will include bibliographic, chemical, 
# crystal, experimental, refinement or atomic coordinate data resulting 
# from the CCDC's data processing and validation procedures.
#
#######################################################################

data_QOFMUU
_symmetry_cell_setting           rhombohedral
_symmetry_space_group_name_H-M   'R -3'
_symmetry_Int_Tables_number      148
_space_group_name_Hall           '-R 3'
loop_
_symmetry_equiv_pos_site_id
_symmetry_equiv_pos_as_xyz
1 x,y,z
2 -y,x-y,z
3 -x+y,-x,z
4 2/3+x,1/3+y,1/3+z
5 2/3-y,1/3+x-y,1/3+z
6 2/3-x+y,1/3-x,1/3+z
7 1/3+x,2/3+y,2/3+z
8 1/3-y,2/3+x-y,2/3+z
9 1/3-x+y,2/3-x,2/3+z
10 -x,-y,-z
11 y,-x+y,-z
12 x-y,x,-z
13 1/3-x,2/3-y,2/3-z
14 1/3+y,2/3-x+y,2/3-z
15 1/3+x-y,2/3+x,2/3-z
16 2/3-x,1/3-y,1/3-z
17 2/3+y,1/3-x+y,1/3-z
18 2/3+x-y,1/3+x,1/3-z
_cell_length_a                   19.0308(13)
_cell_length_b                   19.0308(13)
_cell_length_c                   25.288(3)
_cell_angle_alpha                90
_cell_angle_beta                 90
_cell_angle_gamma                120.00
_cell_volume                     7931.57
loop_
_atom_site_label
_atom_site_type_symbol
_atom_site_fract_x
_atom_site_fract_y
_atom_site_fract_z
Fe1 Fe 1.0000 0.0000 0.33736(6)
C1 C 1.1795(3) 0.0996(3) 0.3857(2)
H1 H 1.1960 0.1402 0.3602
C2 C 1.1125(4) -0.0031(3) 0.4313(3)
H2 H 1.0692 -0.0515 0.4436
C3 C 1.5519(3) 0.3447(3) 0.5833(3)
H3 H 1.5952 0.3934 0.5714
C4 C 1.4852(3) 0.2377(3) 0.6250(2)
H4 H 1.4692 0.1945 0.6482
C5 C 1.3132(3) 0.1546(3) 0.4333(2)
H5 H 1.3343 0.1942 0.4050
H6 H 1.3416 0.1242 0.4322
C6 C 1.3314(3) 0.1992(3) 0.4856(3)
H7 H 1.2931 0.2180 0.4909
H8 H 1.3853 0.2465 0.4840
C7 C 1.3485(3) 0.1908(4) 0.5852(3)
H9 H 1.3212 0.2222 0.5882
H10 H 1.3290 0.1512 0.6135
C8 C 1.3271(3) 0.1470(3) 0.5326(3)
H11 H 1.2725 0.1009 0.5348
H12 H 1.3636 0.1262 0.5263
N1 N 1.1064(3) 0.0357(3) 0.38854(19)
N2 N 1.2263(3) 0.0985(3) 0.4238(2)
N3 N 1.1839(3) 0.0321(3) 0.4544(2)
N4 N 1.5603(3) 0.3003(3) 0.62122(18)
N5 N 1.4365(3) 0.2453(3) 0.5912(2)
N6 N 1.4786(3) 0.3149(3) 0.5640(2)
Fe1F Fe 0.3333 -0.3333 0.00403(6)
Fe1C Fe 1.6667 0.3333 0.67069(6)
Fe1C_2 Fe 0.6667 0.3333 0.67069(6)
Fe1C_3 Fe 0.6667 -0.6667 0.67069(6)
Fe1F_2 Fe 1.3333 -0.3333 0.00403(6)
Fe1F_3 Fe 1.3333 0.6667 0.00403(6)
C1A C 0.9004(3) 0.0799(4) 0.3857(2)
C1B C 0.9201(4) -0.1795(3) 0.3857(2)
C1F C 0.5128(3) -0.2337(3) 0.0524(2)
C1G C 1.2337(3) -0.2534(4) 0.0524(2)
C1H C 1.2534(4) 0.4872(3) 0.0524(2)
H1A H 0.8598 0.0558 0.3602
H1B H 0.9442 -0.1960 0.3602
H1F H 0.5293 -0.1931 0.0269
H1G H 1.1931 -0.2775 0.0269
H1H H 1.2775 0.4707 0.0269
C2A C 1.0031(3) 0.1156(5) 0.4313(3)
C2B C 0.8844(5) -0.1125(4) 0.4313(3)
C2F C 0.4458(4) -0.3364(3) 0.0980(3)
C2G C 1.3364(3) -0.2177(5) 0.0980(3)
C2H C 1.2177(5) 0.5542(4) 0.0980(3)
H2A H 1.0515 0.1207 0.4436
H2B H 0.8793 -0.0692 0.4436
H2F H 0.4025 -0.3848 0.1103
H2G H 1.3848 -0.2126 0.1103
H2H H 1.2126 0.5975 0.1103
C3A C 0.6553(3) 0.2072(4) 0.5833(3)
C3B C 0.7928(4) -0.5519(3) 0.5833(3)
C3F C 0.8852(3) 0.0114(3) 0.2500(3)
C3G C 0.9886(3) -0.1261(4) 0.2500(3)
C3H C 1.1261(4) 0.1148(3) 0.2500(3)
H3A H 0.6066 0.2018 0.5714
H3B H 0.7982 -0.5952 0.5714
H3F H 0.9285 0.0601 0.2381
H3G H 0.9399 -0.1315 0.2381
H3H H 1.1315 0.0715 0.2381
C4A C 0.7623(3) 0.2475(4) 0.6250(2)
C4B C 0.7525(4) -0.4852(3) 0.6250(2)
C4F C 0.8185(3) -0.0956(3) 0.2917(2)
C4G C 1.0956(3) -0.0858(4) 0.2917(2)
C4H C 1.0858(4) 0.1815(3) 0.2917(2)
H4A H 0.8055 0.2747 0.6482
H4B H 0.7253 -0.4692 0.6482
H4F H 0.8025 -0.1388 0.3149
H4G H 1.1388 -0.0586 0.3149
H4H H 1.0586 0.1975 0.3149
C5A C 0.8454(3) 0.1586(4) 0.4333(2)
C5B C 0.8414(4) -0.3132(3) 0.4333(2)
C5F C 0.6465(3) -0.1787(3) 0.1000(2)
C5G C 1.1787(3) -0.1747(4) 0.1000(2)
C5H C 1.1747(4) 0.3535(3) 0.1000(2)
H5A H 0.8058 0.1401 0.4050
H5B H 0.8599 -0.3343 0.4050
H5F H 0.6676 -0.1391 0.0717
H5G H 1.1391 -0.1932 0.0717
H5H H 1.1932 0.3324 0.0717
H6A H 0.8758 0.2174 0.4322
H6B H 0.7826 -0.3416 0.4322
H6F H 0.6749 -0.2091 0.0989
H6G H 1.2091 -0.1159 0.0989
H6H H 1.1159 0.3251 0.0989
C6A C 0.8008(3) 0.1322(4) 0.4856(3)
C6B C 0.8678(4) -0.3314(3) 0.4856(3)
C6F C 0.6647(3) -0.1341(3) 0.1523(3)
C6G C 1.1341(3) -0.2011(4) 0.1523(3)
C6H C 1.2011(4) 0.3353(3) 0.1523(3)
H7A H 0.7820 0.0751 0.4909
H7B H 0.9249 -0.2931 0.4909
H7F H 0.6264 -0.1153 0.1576
H7G H 1.1153 -0.2582 0.1576
H7H H 1.2582 0.3736 0.1576
H8A H 0.7535 0.1388 0.4840
H8B H 0.8612 -0.3853 0.4840
H8F H 0.7186 -0.0868 0.1507
H8G H 1.0868 -0.1945 0.1507
H8H H 1.1945 0.2814 0.1507
C7A C 0.8092(4) 0.1577(5) 0.5852(3)
C7B C 0.8423(5) -0.3485(3) 0.5852(3)
C7F C 0.6818(3) -0.1425(4) 0.2519(3)
C7G C 1.1425(4) -0.1756(5) 0.2519(3)
C7H C 1.1756(5) 0.3182(3) 0.2519(3)
H9A H 0.7778 0.0990 0.5882
H9B H 0.9010 -0.3212 0.5882
H9F H 0.6545 -0.1111 0.2549
H9G H 1.1111 -0.2343 0.2549
H9H H 1.2343 0.3455 0.2549
H10A H 0.8488 0.1778 0.6135
H10B H 0.8222 -0.3290 0.6135
H10F H 0.6623 -0.1821 0.2802
H10G H 1.1821 -0.1555 0.2802
H10H H 1.1555 0.3377 0.2802
C8A C 0.8530(3) 0.1801(4) 0.5326(3)
C8B C 0.8199(4) -0.3271(3) 0.5326(3)
C8F C 0.6604(3) -0.1863(3) 0.1993(3)
C8G C 1.1863(3) -0.1532(4) 0.1993(3)
C8H C 1.1532(4) 0.3396(3) 0.1993(3)
H11A H 0.8991 0.1716 0.5348
H11B H 0.8284 -0.2725 0.5348
H11F H 0.6058 -0.2324 0.2015
H11G H 1.2324 -0.1617 0.2015
H11H H 1.1617 0.3942 0.2015
H12A H 0.8738 0.2374 0.5263
H12B H 0.7626 -0.3636 0.5263
H12F H 0.6969 -0.2071 0.1930
H12G H 1.2071 -0.0959 0.1930
H12H H 1.0959 0.3031 0.1930
N1A N 0.9643(3) 0.0707(4) 0.38854(19)
N1B N 0.9293(4) -0.1064(3) 0.38854(19)
N1F N 0.4397(3) -0.2976(3) 0.05521(19)
N1G N 1.2976(3) -0.2626(4) 0.05521(19)
N1H N 1.2626(4) 0.5603(3) 0.05521(19)
N1C N 0.7731(3) -0.6310(3) 0.72187(19)
N1D N 0.6310(3) -0.5960(4) 0.72187(19)
N1E N 0.5960(4) -0.7731(3) 0.72187(19)
N2A N 0.9015(3) 0.1278(4) 0.4238(2)
N2B N 0.8722(4) -0.2263(3) 0.4238(2)
N2F N 0.5596(3) -0.2348(3) 0.0905(2)
N2G N 1.2348(3) -0.2055(4) 0.0905(2)
N2H N 1.2055(4) 0.4404(3) 0.0905(2)
N3A N 0.9679(3) 0.1518(4) 0.4544(2)
N3B N 0.8482(4) -0.1839(3) 0.4544(2)
N3F N 0.5172(3) -0.3012(3) 0.1211(2)
N3G N 1.3012(3) -0.1815(4) 0.1211(2)
N3H N 1.1815(4) 0.4828(3) 0.1211(2)
N4A N 0.6997(3) 0.2600(4) 0.62122(18)
N4B N 0.7400(4) -0.5603(3) 0.62122(18)
N4F N 0.8936(3) -0.0330(3) 0.28789(18)
N4G N 1.0330(3) -0.0733(4) 0.28789(18)
N4H N 1.0733(4) 0.1064(3) 0.28789(18)
N4_2 N 0.5603(3) -0.6997(3) 0.62122(18)
N4A_2 N 0.6997(3) -0.7400(4) 0.62122(18)
N5A N 0.7547(3) 0.1912(4) 0.5912(2)
N5B N 0.8088(4) -0.4365(3) 0.5912(2)
N5F N 0.7698(3) -0.0880(3) 0.2579(2)
N5G N 1.0880(3) -0.1421(4) 0.2579(2)
N5H N 1.1421(4) 0.2302(3) 0.2579(2)
N6A N 0.6851(3) 0.1637(4) 0.5640(2)
N6B N 0.8363(4) -0.4786(3) 0.5640(2)
N6F N 0.8119(3) -0.0184(3) 0.2307(2)
N6G N 1.0184(3) -0.1696(4) 0.2307(2)
N6H N 1.1696(4) 0.1881(3) 0.2307(2)
Fe2 Fe 0.6667 0.3333 0.3333
C9 C 0.5543(5) 0.1611(5) 0.3839(4)
H13 H 0.5696 0.1360 0.3584
C10 C 0.5414(4) 0.2454(5) 0.4297(4)
H14 H 0.5467 0.2941 0.4414
C11 C 0.4691(5) 0.0388(4) 0.4410(3)
H15 H 0.4760 0.0071 0.4136
H16 H 0.4115 0.0171 0.4468
C12 C 0.5109(7) 0.0359(4) 0.4925(4)
H17 H 0.5692 0.0653 0.4871
H18 H 0.4986 0.0633 0.5202
N7 N 0.5758(3) 0.2396(4) 0.3845(3)
N8 N 0.5083(4) 0.1249(4) 0.4253(3)
N9 N 0.5000(4) 0.1775(5) 0.4559(3)
Fe2C Fe 0.3334 -0.3334 0.6666
Fe2C_2 Fe 1.3334 0.6666 0.6666
Fe2C_3 Fe 0.3334 0.6666 0.6666
Fe2F Fe 1.0000 1.0000 -0.0000
Fe2F_2 Fe 0.0000 -0.0000 -0.0000
Fe2F_3 Fe 1.0000 -0.0000 -0.0000
C9I C 0.4457(5) -0.1611(5) 0.6161(4)
C9A C 0.8389(5) 0.3932(7) 0.3839(4)
C9J C 1.1611(5) 0.6068(7) 0.6161(4)
C9B C 0.6068(7) 0.4457(5) 0.3839(4)
C9K C 0.3932(7) 0.5543(5) 0.6161(4)
C9L C 0.7790(5) 0.5056(5) 0.2828(4)
C9M C 0.4944(5) 0.2735(7) 0.2828(4)
C9N C 0.7265(7) 0.2210(5) 0.2828(4)
C9F C 0.8876(5) 0.8278(5) 0.0506(4)
C9G C 0.1722(5) 0.0599(7) 0.0506(4)
C9H C 0.9401(7) 0.1124(5) 0.0506(4)
H13I H 0.4304 -0.1360 0.6416
H13A H 0.8640 0.4336 0.3584
H13J H 1.1360 0.5664 0.6416
H13B H 0.5664 0.4304 0.3584
H13K H 0.4336 0.5696 0.6416
H13L H 0.7637 0.5307 0.3083
H13M H 0.4693 0.2331 0.3083
H13N H 0.7669 0.2363 0.3083
H13F H 0.9029 0.8027 0.0251
H13G H 0.1973 0.1003 0.0251
H13H H 0.8997 0.0971 0.0251
C10I C 0.4586(4) -0.2454(5) 0.5703(4)
C10A C 0.7546(5) 0.2960(6) 0.4297(4)
C10J C 1.2454(5) 0.7040(6) 0.5703(4)
C10B C 0.7040(6) 0.4586(4) 0.4297(4)
C10K C 0.2960(6) 0.5414(4) 0.5703(4)
C10L C 0.7919(4) 0.4213(5) 0.2370(4)
C10M C 0.5787(5) 0.3707(6) 0.2370(4)
C10N C 0.6293(6) 0.2081(4) 0.2370(4)
C10F C 0.8747(4) 0.9121(5) 0.0964(4)
C10G C 0.0879(5) -0.0373(6) 0.0964(4)
C10H C 1.0373(6) 0.1253(4) 0.0964(4)
H14I H 0.4533 -0.2941 0.5586
H14A H 0.7059 0.2526 0.4414
H14J H 1.2941 0.7474 0.5586
H14B H 0.7474 0.4533 0.4414
H14K H 0.2526 0.5467 0.5586
H14L H 0.7866 0.3726 0.2253
H14M H 0.6274 0.4141 0.2253
H14N H 0.5859 0.2134 0.2253
H14F H 0.8800 0.9608 0.1081
H14G H 0.0392 -0.0807 0.1081
H14H H 1.0807 0.1200 0.1081
C11I C 0.5309(5) -0.0388(4) 0.5590(3)
C11A C 0.9612(4) 0.4303(6) 0.4410(3)
C11J C 1.0388(4) 0.5697(6) 0.5590(3)
C11B C 0.5697(6) 0.5309(5) 0.4410(3)
C11K C 0.4303(6) 0.4691(5) 0.5590(3)
C11L C 0.8642(5) 0.6279(4) 0.2257(3)
C11M C 0.3721(4) 0.2364(6) 0.2257(3)
C11N C 0.7636(6) 0.1358(5) 0.2257(3)
C11F C 0.8024(5) 0.7055(4) 0.1077(3)
C11G C 0.2945(4) 0.0970(6) 0.1077(3)
C11H C 0.9030(6) 0.1976(5) 0.1077(3)
H15I H 0.5240 -0.0071 0.5864
H15A H 0.9929 0.4689 0.4136
H15J H 1.0071 0.5311 0.5864
H15B H 0.5311 0.5240 0.4136
H15K H 0.4689 0.4760 0.5864
H15L H 0.8573 0.6596 0.2531
H15M H 0.3404 0.1978 0.2531
H15N H 0.8022 0.1427 0.2531
H15F H 0.8093 0.6738 0.0803
H15G H 0.3262 0.1356 0.0803
H15H H 0.8644 0.1907 0.0803
H16I H 0.5885 -0.0171 0.5532
H16A H 0.9829 0.3944 0.4468
H16J H 1.0171 0.6056 0.5532
H16B H 0.6056 0.5885 0.4468
H16K H 0.3944 0.4115 0.5532
H16L H 0.9218 0.6496 0.2199
H16M H 0.3504 0.2723 0.2199
H16N H 0.7277 0.0782 0.2199
H16F H 0.7448 0.6838 0.1135
H16G H 0.3162 0.0611 0.1135
H16H H 0.9389 0.2552 0.1135
C12I C 0.4891(7) -0.0359(4) 0.5075(4)
C12A C 0.9641(4) 0.4750(8) 0.4925(4)
C12J C 1.0359(4) 0.5250(8) 0.5075(4)
C12B C 0.5250(8) 0.4891(7) 0.4925(4)
C12K C 0.4750(8) 0.5109(7) 0.5075(4)
C12L C 0.8224(7) 0.6308(4) 0.1742(4)
C12M C 0.3692(4) 0.1917(8) 0.1742(4)
C12N C 0.8083(8) 0.1776(7) 0.1742(4)
C12F C 0.8442(7) 0.7026(4) 0.1592(4)
C12G C 0.2974(4) 0.1417(8) 0.1592(4)
C12H C 0.8583(8) 0.1558(7) 0.1592(4)
H17I H 0.4308 -0.0653 0.5129
H17A H 0.9347 0.5039 0.4871
H17J H 1.0653 0.4961 0.5129
H17B H 0.4961 0.4308 0.4871
H17K H 0.5039 0.5692 0.5129
H17L H 0.7641 0.6014 0.1796
H17M H 0.3986 0.1628 0.1796
H17N H 0.8372 0.2359 0.1796
H17F H 0.9025 0.7320 0.1538
H17G H 0.2680 0.1706 0.1538
H17H H 0.8294 0.0975 0.1538
H18I H 0.5014 -0.0633 0.4798
H18A H 0.9367 0.4353 0.5202
H18J H 1.0633 0.5647 0.4798
H18B H 0.5647 0.5014 0.5202
H18K H 0.4353 0.4986 0.4798
H18L H 0.8347 0.6034 0.1465
H18M H 0.3966 0.2314 0.1465
H18N H 0.7686 0.1653 0.1465
H18F H 0.8319 0.7300 0.1869
H18G H 0.2700 0.1020 0.1869
H18H H 0.8980 0.1681 0.1869
N7I N 0.4242(3) -0.2396(4) 0.6155(3)
N7A N 0.7604(4) 0.3362(5) 0.3845(3)
N7J N 1.2396(4) 0.6638(5) 0.6155(3)
N7B N 0.6638(5) 0.4242(3) 0.3845(3)
N7K N 0.3362(5) 0.5758(3) 0.6155(3)
N7L N 0.7575(3) 0.4271(4) 0.2822(3)
N7M N 0.5729(4) 0.3305(5) 0.2822(3)
N7N N 0.6695(5) 0.2425(3) 0.2822(3)
N7C N 0.2425(3) 0.5729(4) 0.7178(3)
N7D N 0.4271(4) 0.6695(5) 0.7178(3)
N7E N 0.3305(5) 0.7575(3) 0.7178(3)
N7I_2 N 0.4242(3) 0.7604(4) 0.6155(3)
N7J_2 N 0.2396(4) 0.6638(5) 0.6155(3)
N7F N 0.9091(3) 0.9063(4) 0.0512(3)
N7G N 0.0937(4) 0.0029(5) 0.0512(3)
N7H N 0.9971(5) 0.0909(3) 0.0512(3)
N8I N 0.4917(4) -0.1249(4) 0.5747(3)
N8A N 0.8751(4) 0.3834(6) 0.4253(3)
N8J N 1.1249(4) 0.6166(6) 0.5747(3)
N8B N 0.6166(6) 0.4917(4) 0.4253(3)
N8K N 0.3834(6) 0.5083(4) 0.5747(3)
N8L N 0.8250(4) 0.5418(4) 0.2414(3)
N8M N 0.4582(4) 0.2833(6) 0.2414(3)
N8N N 0.7167(6) 0.1750(4) 0.2414(3)
N8F N 0.8416(4) 0.7916(4) 0.0920(3)
N8G N 0.2084(4) 0.0501(6) 0.0920(3)
N8H N 0.9499(6) 0.1584(4) 0.0920(3)
N9I N 0.5000(4) -0.1775(5) 0.5441(3)
N9A N 0.8225(5) 0.3225(6) 0.4559(3)
N9J N 1.1775(5) 0.6775(6) 0.5441(3)
N9B N 0.6775(6) 0.5000(4) 0.4559(3)
N9K N 0.3225(6) 0.5000(4) 0.5441(3)
N9L N 0.8333(4) 0.4892(5) 0.2108(3)
N9M N 0.5108(5) 0.3442(6) 0.2108(3)
N9N N 0.6558(6) 0.1667(4) 0.2108(3)
N9F N 0.8333(4) 0.8442(5) 0.1226(3)
N9G N 0.1558(5) -0.0108(6) 0.1226(3)
N9H N 1.0108(6) 0.1667(4) 0.1226(3)
B1 B 0.3332(4) 0.0254(4) 0.3087(3)
F1 F 0.3331(4) -0.0442(4) 0.3145(3)
F2 F 0.4021(9) 0.0909(8) 0.3240(8)
F3 F 0.2789(8) 0.0428(12) 0.2881(13)
F4 F 0.2716(6) 0.0129(8) 0.3405(6)
F5? F 0.4064(8) 0.0811(9) 0.2900(12)
F6? F 0.3176(12) 0.0163(8) 0.2569(4)
F7? F 0.332(3) 0.0352(18) 0.3611(4)
loop_
_geom_bond_atom_site_label_1
_geom_bond_atom_site_label_2
_geom_bond_site_symmetry_1
_geom_bond_site_symmetry_2
Fe1 N1 1_555 1_555
Fe2 N7 1_555 1_555
C1 H1 1_555 1_555
C2 H2 1_555 1_555
C3 H3 1_555 1_555
C4 H4 1_555 1_555
C5 H5 1_555 1_555
H6 C5 1_555 1_555
C6 C5 1_555 1_555
H7 C6 1_555 1_555
H8 C6 1_555 1_555
C7 H9 1_555 1_555
H10 C7 1_555 1_555
C8 C6 1_555 1_555
H11 C8 1_555 1_555
H12 C8 1_555 1_555
C9 H13 1_555 1_555
C10 H14 1_555 1_555
C11 H15 1_555 1_555
H16 C11 1_555 1_555
C12 C11 1_555 1_555
H17 C12 1_555 1_555
H18 C12 1_555 1_555
N1 C1 1_555 1_555
N2 C1 1_555 1_555
N3 C2 1_555 1_555
N4 C3 1_555 1_555
N5 C4 1_555 1_555
N6 C3 1_555 1_555
N7 C9 1_555 1_555
N8 C9 1_555 1_555
N9 C10 1_555 1_555
B1 F1 1_555 1_555
F2 B1 1_555 1_555
F3 B1 1_555 1_555
F4 B1 1_555 1_555
Fe1F N1F 1_555 1_555
Fe1C N4 1_555 1_555
Fe1C_2 N4A 1_555 1_555
Fe1C_3 N1C 1_555 1_555
Fe1F_2 N1G 1_555 1_555
Fe1F_3 N1H 1_555 1_555
Fe2C N7I 1_555 1_555
Fe2C_2 N7J 1_555 1_555
Fe2C_3 N7K 1_555 1_555
Fe2F N7F 1_555 1_555
Fe2F_2 N7G 1_555 1_555
Fe2F_3 N7H 1_555 1_555
C1A H1A 1_555 1_555
C1B H1B 1_555 1_555
C1F H1F 1_555 1_555
C1G H1G 1_555 1_555
C1H H1H 1_555 1_555
C2A H2A 1_555 1_555
C2B H2B 1_555 1_555
C2F H2F 1_555 1_555
C2G H2G 1_555 1_555
C2H H2H 1_555 1_555
C3A H3A 1_555 1_555
C3B H3B 1_555 1_555
C3F H3F 1_555 1_555
C3G H3G 1_555 1_555
C3H H3H 1_555 1_555
C4A H4A 1_555 1_555
C4B H4B 1_555 1_555
C4F H4F 1_555 1_555
C4G H4G 1_555 1_555
C4H H4H 1_555 1_555
C5A H5A 1_555 1_555
C5B H5B 1_555 1_555
C5F H5F 1_555 1_555
C5G H5G 1_555 1_555
C5H H5H 1_555 1_555
H6A C5A 1_555 1_555
H6B C5B 1_555 1_555
H6F C5F 1_555 1_555
H6G C5G 1_555 1_555
H6H C5H 1_555 1_555
C6A C5A 1_555 1_555
C6B C5B 1_555 1_555
C6F C5F 1_555 1_555
C6G C5G 1_555 1_555
C6H C5H 1_555 1_555
H7A C6A 1_555 1_555
H7B C6B 1_555 1_555
H7F C6F 1_555 1_555
H7G C6G 1_555 1_555
H7H C6H 1_555 1_555
H8A C6A 1_555 1_555
H8B C6B 1_555 1_555
H8F C6F 1_555 1_555
H8G C6G 1_555 1_555
H8H C6H 1_555 1_555
C7A H9A 1_555 1_555
C7B H9B 1_555 1_555
C7F H9F 1_555 1_555
C7G H9G 1_555 1_555
C7H H9H 1_555 1_555
H10A C7A 1_555 1_555
H10B C7B 1_555 1_555
H10F C7F 1_555 1_555
H10G C7G 1_555 1_555
H10H C7H 1_555 1_555
C8A C6A 1_555 1_555
C8B C6B 1_555 1_555
C8F C6F 1_555 1_555
C8G C6G 1_555 1_555
C8H C6H 1_555 1_555
H11A C8A 1_555 1_555
H11B C8B 1_555 1_555
H11F C8F 1_555 1_555
H11G C8G 1_555 1_555
H11H C8H 1_555 1_555
H12A C8A 1_555 1_555
H12B C8B 1_555 1_555
H12F C8F 1_555 1_555
H12G C8G 1_555 1_555
H12H C8H 1_555 1_555
C9I H13I 1_555 1_555
C9A H13A 1_555 1_555
C9J H13J 1_555 1_555
C9B H13B 1_555 1_555
C9K H13K 1_555 1_555
C9L H13L 1_555 1_555
C9M H13M 1_555 1_555
C9N H13N 1_555 1_555
C9F H13F 1_555 1_555
C9G H13G 1_555 1_555
C9H H13H 1_555 1_555
C10I H14I 1_555 1_555
C10A H14A 1_555 1_555
C10J H14J 1_555 1_555
C10B H14B 1_555 1_555
C10K H14K 1_555 1_555
C10L H14L 1_555 1_555
C10M H14M 1_555 1_555
C10N H14N 1_555 1_555
C10F H14F 1_555 1_555
C10G H14G 1_555 1_555
C10H H14H 1_555 1_555
C11I H15I 1_555 1_555
C11A H15A 1_555 1_555
C11J H15J 1_555 1_555
C11B H15B 1_555 1_555
C11K H15K 1_555 1_555
C11L H15L 1_555 1_555
C11M H15M 1_555 1_555
C11N H15N 1_555 1_555
C11F H15F 1_555 1_555
C11G H15G 1_555 1_555
C11H H15H 1_555 1_555
H16I C11I 1_555 1_555
H16A C11A 1_555 1_555
H16J C11J 1_555 1_555
H16B C11B 1_555 1_555
H16K C11K 1_555 1_555
H16L C11L 1_555 1_555
H16M C11M 1_555 1_555
H16N C11N 1_555 1_555
H16F C11F 1_555 1_555
H16G C11G 1_555 1_555
H16H C11H 1_555 1_555
C12I C12 1_555 1_555
C12A C11A 1_555 1_555
C12J C11J 1_555 1_555
C12B C11B 1_555 1_555
C12K C11K 1_555 1_555
C12L C11L 1_555 1_555
C12M C11M 1_555 1_555
C12N C11N 1_555 1_555
C12F C11F 1_555 1_555
C12G C11G 1_555 1_555
C12H C11H 1_555 1_555
H17I C12I 1_555 1_555
H17A C12A 1_555 1_555
H17J C12J 1_555 1_555
H17B C12B 1_555 1_555
H17K C12K 1_555 1_555
H17L C12L 1_555 1_555
H17M C12M 1_555 1_555
H17N C12N 1_555 1_555
H17F C12F 1_555 1_555
H17G C12G 1_555 1_555
H17H C12H 1_555 1_555
H18I C12I 1_555 1_555
H18A C12A 1_555 1_555
H18J C12J 1_555 1_555
H18B C12B 1_555 1_555
H18K C12K 1_555 1_555
H18L C12L 1_555 1_555
H18M C12M 1_555 1_555
H18N C12N 1_555 1_555
H18F C12F 1_555 1_555
H18G C12G 1_555 1_555
H18H C12H 1_555 1_555
N1A Fe1 1_555 1_555
N1B Fe1 1_555 1_555
N1F C1F 1_555 1_555
N1G C1G 1_555 1_555
N1H C1H 1_555 1_555
N1D Fe1C_3 1_555 1_555
N1E Fe1C_3 1_555 1_555
N2A C1A 1_555 1_555
N2B C1B 1_555 1_555
N2F C1F 1_555 1_555
N2G C1G 1_555 1_555
N2H C1H 1_555 1_555
N3A C2A 1_555 1_555
N3B C2B 1_555 1_555
N3F C2F 1_555 1_555
N3G C2G 1_555 1_555
N3H C2H 1_555 1_555
N4A C3A 1_555 1_555
N4B Fe1C_3 1_555 1_555
N4F Fe1 1_555 1_555
N4G Fe1 1_555 1_555
N4H Fe1 1_555 1_555
N4_2 Fe1C_3 1_555 1_555
N4A_2 Fe1C_3 1_555 1_555
N5A C4A 1_555 1_555
N5B C4B 1_555 1_555
N5F C4F 1_555 1_555
N5G C4G 1_555 1_555
N5H C4H 1_555 1_555
N6A C3A 1_555 1_555
N6B C3B 1_555 1_555
N6F C3F 1_555 1_555
N6G C3G 1_555 1_555
N6H C3H 1_555 1_555
N7I C9I 1_555 1_555
N7A Fe2 1_555 1_555
N7J C9J 1_555 1_555
N7B Fe2 1_555 1_555
N7K C9K 1_555 1_555
N7L Fe2 1_555 1_555
N7M Fe2 1_555 1_555
N7N Fe2 1_555 1_555
N7C Fe2C_3 1_555 1_555
N7D Fe2C_3 1_555 1_555
N7E Fe2C_3 1_555 1_555
N7I_2 Fe2C_3 1_555 1_555
N7J_2 Fe2C_3 1_555 1_555
N7F C9F 1_555 1_555
N7G C9G 1_555 1_555
N7H C9H 1_555 1_555
N8I C9I 1_555 1_555
N8A C9A 1_555 1_555
N8J C9J 1_555 1_555
N8B C9B 1_555 1_555
N8K C9K 1_555 1_555
N8L C9L 1_555 1_555
N8M C9M 1_555 1_555
N8N C9N 1_555 1_555
N8F C9F 1_555 1_555
N8G C9G 1_555 1_555
N8H C9H 1_555 1_555
N9I C10I 1_555 1_555
N9A C10A 1_555 1_555
N9J C10J 1_555 1_555
N9B C10B 1_555 1_555
N9K C10K 1_555 1_555
N9L C10L 1_555 1_555
N9M C10M 1_555 1_555
N9N C10N 1_555 1_555
N9F C10F 1_555 1_555
N9G C10G 1_555 1_555
N9H C10H 1_555 1_555
C2 N1 1_555 1_555
C4 N4 1_555 1_555
C5 N2 1_555 1_555
C7 C8 1_555 1_555
C7 N5 1_555 1_555
C10 N7 1_555 1_555
C11 N8 1_555 1_555
N2 N3 1_555 1_555
N5 N6 1_555 1_555
N8 N9 1_555 1_555
C1A N1A 1_555 1_555
C1B N1B 1_555 1_555
C2A N1A 1_555 1_555
C2B N1B 1_555 1_555
C2F N1F 1_555 1_555
C2G N1G 1_555 1_555
C2H N1H 1_555 1_555
C3B N4B 1_555 1_555
C3F N4F 1_555 1_555
C3G N4G 1_555 1_555
C3H N4H 1_555 1_555
C4A N4A 1_555 1_555
C4B N4B 1_555 1_555
C4F N4F 1_555 1_555
C4G N4G 1_555 1_555
C4H N4H 1_555 1_555
C5A N2A 1_555 1_555
C5B N2B 1_555 1_555
C5F N2F 1_555 1_555
C5G N2G 1_555 1_555
C5H N2H 1_555 1_555
C7A C8A 1_555 1_555
C7A N5A 1_555 1_555
C7B C8B 1_555 1_555
C7B N5B 1_555 1_555
C7F C8F 1_555 1_555
C7F N5F 1_555 1_555
C7G C8G 1_555 1_555
C7G N5G 1_555 1_555
C7H C8H 1_555 1_555
C7H N5H 1_555 1_555
C9A N7A 1_555 1_555
C9B N7B 1_555 1_555
C9L N7L 1_555 1_555
C9M N7M 1_555 1_555
C9N N7N 1_555 1_555
C10I N7I 1_555 1_555
C10A N7A 1_555 1_555
C10J N7J 1_555 1_555
C10B N7B 1_555 1_555
C10K N7K 1_555 1_555
C10L N7L 1_555 1_555
C10M N7M 1_555 1_555
C10N N7N 1_555 1_555
C10F N7F 1_555 1_555
C10G N7G 1_555 1_555
C10H N7H 1_555 1_555
C11I C12I 1_555 1_555
C11I N8I 1_555 1_555
C11A N8A 1_555 1_555
C11J N8J 1_555 1_555
C11B N8B 1_555 1_555
C11K N8K 1_555 1_555
C11L N8L 1_555 1_555
C11M N8M 1_555 1_555
C11N N8N 1_555 1_555
C11F N8F 1_555 1_555
C11G N8G 1_555 1_555
C11H N8H 1_555 1_555
C12A C12J 1_555 1_555
C12B C12K 1_555 1_555
C12L C12F 1_555 1_555
C12M C12G 1_555 1_555
C12N C12H 1_555 1_555
N2A N3A 1_555 1_555
N2B N3B 1_555 1_555
N2F N3F 1_555 1_555
N2G N3G 1_555 1_555
N2H N3H 1_555 1_555
N5A N6A 1_555 1_555
N5B N6B 1_555 1_555
N5F N6F 1_555 1_555
N5G N6G 1_555 1_555
N5H N6H 1_555 1_555
N8I N9I 1_555 1_555
N8A N9A 1_555 1_555
N8J N9J 1_555 1_555
N8B N9B 1_555 1_555
N8K N9K 1_555 1_555
N8L N9L 1_555 1_555
N8M N9M 1_555 1_555
N8N N9N 1_555 1_555
N8F N9F 1_555 1_555
N8G N9G 1_555 1_555
N8H N9H 1_555 1_555

#END
