
#######################################################################
#
#                 Cambridge Crystallographic Data Centre
#                                CCDC 
#
#######################################################################
#
# If this CIF has been generated from an entry in the Cambridge 
# Structural Database, then it will include bibliographic, chemical, 
# crystal, experimental, refinement or atomic coordinate data resulting 
# from the CCDC's data processing and validation procedures.
#
#######################################################################

data_QOFQUY
_symmetry_cell_setting           monoclinic
_symmetry_space_group_name_H-M   'P 21/c'
_symmetry_Int_Tables_number      14
_space_group_name_Hall           '-P 2ybc'
loop_
_symmetry_equiv_pos_site_id
_symmetry_equiv_pos_as_xyz
1 x,y,z
2 -x,1/2+y,1/2-z
3 -x,-y,-z
4 x,1/2-y,1/2+z
_cell_length_a                   7.8655(6)
_cell_length_b                   21.1761(17)
_cell_length_c                   9.4726(7)
_cell_angle_alpha                90.00
_cell_angle_beta                 112.8630(10)
_cell_angle_gamma                90.00
_cell_volume                     1453.81
loop_
_atom_site_label
_atom_site_type_symbol
_atom_site_fract_x
_atom_site_fract_y
_atom_site_fract_z
Zn1 Zn 0.47439(9) 0.68242(3) 0.25505(7)
V1 V 0.91786(11) 0.66885(4) 0.52972(9)
V2 V 0.16192(11) 0.73019(4) -0.11236(8)
C1 C 0.2730(7) 0.5748(3) 0.3517(6)
H1 H 0.2096 0.6066 0.3787
C2 C 0.2363(8) 0.5120(3) 0.3747(6)
H2 H 0.1489 0.5024 0.4151
C3 C 0.3288(8) 0.4653(3) 0.3380(7)
H3 H 0.3057 0.4234 0.3540
C4 C 0.4599(8) 0.4798(3) 0.2756(6)
C5 C 0.4867(7) 0.5449(2) 0.2545(5)
C6 C 0.5674(8) 0.4342(3) 0.2362(7)
H4 H 0.5516 0.3916 0.2517
C7 C 0.6902(9) 0.4510(3) 0.1777(7)
H5 H 0.7591 0.4201 0.1544
C8 C 0.7173(7) 0.5162(3) 0.1502(6)
C9 C 0.6152(6) 0.5631(2) 0.1874(5)
C10 C 0.8391(8) 0.5374(3) 0.0849(7)
H6 H 0.9099 0.5082 0.0580
C11 C 0.8551(8) 0.6000(3) 0.0602(7)
H7 H 0.9351 0.6141 0.0161
C12 C 0.7487(8) 0.6424(3) 0.1028(6)
H8 H 0.7600 0.6852 0.0862
N1 N 0.3947(6) 0.5910(2) 0.2928(4)
N2 N 0.6325(5) 0.62527(19) 0.1654(5)
O1 O 1.0273(5) 0.68125(19) 0.7331(4)
O2 O 1.0042(7) 0.7196(3) 0.4230(5)
O3 O 0.2667(5) 0.68667(17) 0.0398(4)
O4 O 0.3143(6) 0.7293(2) 0.3482(5)
O5 O 0.6930(5) 0.68429(18) 0.4700(4)
O6 O 0.9479(6) 0.59691(19) 0.4921(5)
O7 O 0.5924(6) 0.77077(18) 0.2145(5)
V2_2 V 1.16192(11) 0.73019(4) 0.88764(8)
V2C V 1.16192(11) 0.76981(4) 0.38764(8)
V2C_2 V 0.16192(11) 0.76981(4) 0.38764(8)
O1_2 O 0.0273(5) 0.68125(19) -0.2669(4)
O2C O 0.0042(7) 0.7804(3) -0.0770(5)
O4C O 0.3143(6) 0.7707(2) -0.1518(5)
loop_
_geom_bond_atom_site_label_1
_geom_bond_atom_site_label_2
_geom_bond_site_symmetry_1
_geom_bond_site_symmetry_2
Zn1 N1 1_555 1_555
V1 O1 1_555 1_555
V2 O3 1_555 1_555
C1 H1 1_555 1_555
C2 C1 1_555 1_555
H2 C2 1_555 1_555
C3 C2 1_555 1_555
H3 C3 1_555 1_555
C4 C3 1_555 1_555
C5 C4 1_555 1_555
C6 C4 1_555 1_555
H4 C6 1_555 1_555
C7 C6 1_555 1_555
H5 C7 1_555 1_555
C8 C7 1_555 1_555
C9 C5 1_555 1_555
C10 C8 1_555 1_555
H6 C10 1_555 1_555
C11 C10 1_555 1_555
H7 C11 1_555 1_555
C12 C11 1_555 1_555
H8 C12 1_555 1_555
N1 C1 1_555 1_555
N2 Zn1 1_555 1_555
O1 V2_2 1_555 1_555
O2 V1 1_555 1_555
O3 Zn1 1_555 1_555
O4 Zn1 1_555 1_555
O5 Zn1 1_555 1_555
O6 V1 1_555 1_555
O7 Zn1 1_555 1_555
V2C O2 1_555 1_555
V2C_2 O4 1_555 1_555
O1_2 V2 1_555 1_555
O2C V2 1_555 1_555
O4C V2 1_555 1_555
V1 O5 1_555 1_555
C5 N1 1_555 1_555
C8 C9 1_555 1_555
C9 N2 1_555 1_555
C12 N2 1_555 1_555

#END
