
#######################################################################
#
#                 Cambridge Crystallographic Data Centre
#                                CCDC 
#
#######################################################################
#
# If this CIF has been generated from an entry in the Cambridge 
# Structural Database, then it will include bibliographic, chemical, 
# crystal, experimental, refinement or atomic coordinate data resulting 
# from the CCDC's data processing and validation procedures.
#
#######################################################################

data_QOGFUN01
_symmetry_cell_setting           monoclinic
_symmetry_space_group_name_H-M   'P 21/n'
_symmetry_Int_Tables_number      14
_space_group_name_Hall           '-P 2yn'
loop_
_symmetry_equiv_pos_site_id
_symmetry_equiv_pos_as_xyz
1 x,y,z
2 1/2-x,1/2+y,1/2-z
3 -x,-y,-z
4 1/2+x,1/2-y,1/2+z
_cell_length_a                   13.8417(4)
_cell_length_b                   22.4998(7)
_cell_length_c                   21.8170(7)
_cell_angle_alpha                90
_cell_angle_beta                 96.490(2)
_cell_angle_gamma                90
_cell_volume                     6751.05
loop_
_atom_site_label
_atom_site_type_symbol
_atom_site_fract_x
_atom_site_fract_y
_atom_site_fract_z
Eu1 Eu 0.204866(18) 0.640991(10) 0.239152(11)
Eu2 Eu 0.247652(17) 0.477164(10) 0.251356(11)
Eu3 Eu 0.282169(18) 0.806685(10) 0.279298(11)
C1 C 0.0871(4) 0.5670(2) 0.1535(2)
C2 C 0.0180(4) 0.5315(2) 0.1117(2)
C3 C -0.0730(4) 0.5541(3) 0.0921(3)
H1 H -0.0890 0.5924 0.1037
C4 C -0.1403(4) 0.5209(3) 0.0556(3)
H2 H -0.2014 0.5367 0.0431
C5 C -0.1178(5) 0.4643(3) 0.0374(3)
C6 C -0.0265(5) 0.4420(2) 0.0558(3)
H3 H -0.0105 0.4041 0.0433
C7 C 0.3894(7) 0.3672(4) -0.1070(3)
H4 H 0.4113 0.3268 -0.1086
H5 H 0.4393 0.3935 -0.1181
H6 H 0.3317 0.3724 -0.1353
C8 C -0.1926(5) 0.4269(3) -0.0015(3)
H7 H -0.2337 0.4074 0.0248
H8 H -0.1600 0.3977 -0.0238
H9 H -0.2313 0.4521 -0.0301
C9 C 0.0347(4) 0.3962(3) 0.2248(3)
C10 C -0.0702(4) 0.4102(2) 0.2115(2)
C11 C -0.1052(5) 0.4660(3) 0.2248(3)
H10 H -0.0646 0.4943 0.2452
C12 C -0.2030(5) 0.4784(3) 0.2066(3)
H11 H -0.2273 0.5154 0.2159
C13 C -0.2285(4) 0.3826(3) 0.1648(3)
H12 H -0.2699 0.3541 0.1455
C14 C -0.1325(4) 0.3685(3) 0.1820(3)
H13 H -0.1095 0.3308 0.1739
C15 C -0.2642(4) 0.4382(3) 0.1756(3)
C16 C -0.0177(4) 0.7830(2) 0.2281(2)
C17 C -0.0661(5) 0.8349(3) 0.2367(3)
H14 H -0.0365 0.8639 0.2627
C18 C -0.1579(6) 0.8445(4) 0.2074(4)
H15 H -0.1894 0.8801 0.2134
C19 C -0.0620(4) 0.7407(3) 0.1889(3)
H16 H -0.0294 0.7058 0.1815
C20 C -0.1542(5) 0.7502(4) 0.1608(3)
H17 H -0.1842 0.7208 0.1354
C21 C 0.0982(4) 0.5835(2) 0.3264(2)
C22 C 0.0341(4) 0.5525(2) 0.3654(2)
C23 C 0.0410(5) 0.4923(3) 0.3761(3)
H18 H 0.0889 0.4705 0.3595
C24 C -0.0221(5) 0.4639(3) 0.4108(3)
H19 H -0.0169 0.4231 0.4172
C25 C -0.0932(5) 0.4955(3) 0.4364(3)
C26 C -0.0985(5) 0.5558(3) 0.4267(3)
H20 H -0.1455 0.5777 0.4440
C27 C -0.0362(4) 0.5844(3) 0.3921(3)
H21 H -0.0409 0.6253 0.3865
C28 C -0.1626(5) 0.4640(4) 0.4741(3)
H22 H -0.1904 0.4922 0.5001
H23 H -0.1281 0.4341 0.4991
H24 H -0.2135 0.4456 0.4469
C29 C 0.3319(4) 0.7273(3) 0.1543(2)
C30 C 0.3748(4) 0.7327(2) 0.0949(2)
C31 C 0.4263(5) 0.7827(3) 0.0815(3)
H25 H 0.4338 0.8140 0.1095
C32 C 0.4671(5) 0.7866(3) 0.0263(3)
H26 H 0.5011 0.8207 0.0176
C33 C 0.4578(5) 0.7410(3) -0.0155(3)
C34 C 0.4053(5) 0.6922(3) -0.0018(3)
H27 H 0.3970 0.6612 -0.0302
C35 C 0.3646(4) 0.6876(3) 0.0525(3)
H28 H 0.3298 0.6536 0.0605
C36 C 0.3956(4) 0.4401(3) 0.0509(3)
H29 H 0.4295 0.4706 0.0726
C37 C 0.3671(5) 0.3816(3) -0.0418(3)
C38 C 0.4155(5) 0.4259(3) -0.0085(3)
H30 H 0.4630 0.4473 -0.0259
C39 C 0.3260(4) 0.4090(2) 0.0775(2)
C40 C 0.3049(4) 0.4258(2) 0.1406(2)
C41 C 0.2774(5) 0.3635(3) 0.0448(2)
H31 H 0.2304 0.3417 0.0622
C42 C 0.2991(6) 0.3506(3) -0.0142(3)
H32 H 0.2662 0.3196 -0.0358
C43 C 0.5085(4) 0.5867(2) 0.2799(2)
C44 C 0.5100(4) 0.6460(2) 0.2636(3)
H33 H 0.4524 0.6643 0.2475
C45 C 0.5941(4) 0.6785(3) 0.2707(3)
H34 H 0.5927 0.7183 0.2592
C46 C 0.6804(5) 0.6534(3) 0.2945(3)
C47 C 0.6805(4) 0.5936(3) 0.3102(3)
H35 H 0.7385 0.5757 0.3262
C48 C 0.5969(4) 0.5606(3) 0.3028(3)
H36 H 0.5989 0.5205 0.3131
C49 C 0.0825(4) 0.7758(2) 0.2578(2)
C50 C 0.3291(4) 0.7149(2) 0.3703(2)
C51 C 0.3793(5) 0.6917(3) 0.4805(3)
H37 H 0.3812 0.7323 0.4886
C52 C 0.3513(4) 0.6720(2) 0.4208(2)
C53 C 0.4184(4) 0.5513(2) 0.2748(2)
C54 C 0.4040(5) 0.6525(3) 0.5276(3)
H38 H 0.4216 0.6670 0.5672
C55 C 0.4032(4) 0.5920(3) 0.5173(3)
C56 C 0.3745(4) 0.5723(2) 0.4583(3)
H39 H 0.3728 0.5317 0.4503
C57 C 0.3482(4) 0.6113(2) 0.4109(3)
H40 H 0.3281 0.5967 0.3716
C58 C 0.2899(3) 0.3950(2) 0.3515(2)
C59 C 0.3184(4) 0.3574(2) 0.4065(2)
C60 C 0.0417(4) 0.4747(2) 0.0924(2)
H41 H 0.1032 0.4590 0.1042
C61 C 0.7732(5) 0.6895(4) 0.3054(4)
H42 H 0.8253 0.6682 0.2899
H43 H 0.7888 0.6964 0.3488
H44 H 0.7642 0.7269 0.2844
C62 C 0.4348(5) 0.5500(3) 0.5699(3)
H45 H 0.5042 0.5517 0.5793
H46 H 0.4157 0.5102 0.5582
H47 H 0.4046 0.5614 0.6056
C63 C 0.3086(5) 0.3789(3) 0.4644(3)
H48 H 0.2851 0.4172 0.4690
C64 C 0.3542(4) 0.3007(2) 0.4009(2)
H49 H 0.3622 0.2857 0.3621
C65 C 0.3782(4) 0.2659(3) 0.4527(3)
H50 H 0.4031 0.2279 0.4483
C66 C 0.3656(5) 0.2869(3) 0.5104(3)
C67 C 0.3333(6) 0.3441(3) 0.5159(3)
H51 H 0.3279 0.3597 0.5549
C68 C -0.2037(5) 0.8020(4) 0.1691(4)
C69 C -0.3064(6) 0.8120(4) 0.1374(5)
H52 H -0.3066 0.8078 0.0936
H53 H -0.3277 0.8512 0.1467
H54 H -0.3496 0.7832 0.1521
C70 C -0.3693(5) 0.4546(4) 0.1534(4)
H55 H -0.4004 0.4697 0.1873
H56 H -0.4034 0.4199 0.1368
H57 H -0.3704 0.4845 0.1219
C71 C 0.5037(7) 0.7442(4) -0.0751(3)
H58 H 0.5535 0.7741 -0.0716
H59 H 0.4549 0.7541 -0.1084
H60 H 0.5318 0.7063 -0.0831
C72 C 0.3893(6) 0.2477(3) 0.5677(3)
H61 H 0.3355 0.2218 0.5721
H62 H 0.4012 0.2724 0.6036
H63 H 0.4462 0.2244 0.5632
O1 O 0.3381(3) 0.76936(15) 0.37999(17)
O2 O 0.3002(3) 0.69761(14) 0.31548(15)
O3 O 0.2908(2) 0.37436(14) 0.29681(14)
O4 O 0.2653(3) 0.44765(15) 0.35869(16)
O5 O 0.1154(3) 0.80769(16) 0.30228(17)
O6 O 0.1398(2) 0.73859(13) 0.23484(15)
O7 O 0.3440(3) 0.76835(19) 0.19304(17)
O8 O 0.2850(3) 0.68048(18) 0.16297(19)
O9 O 0.3385(2) 0.57569(15) 0.25196(15)
O10 O 0.4184(3) 0.49851(16) 0.29149(18)
O11 O 0.0666(3) 0.61844(17) 0.1673(2)
O12 O 0.1683(2) 0.54461(15) 0.17555(15)
O13 O 0.3485(3) 0.46824(17) 0.16781(18)
O14 O 0.2391(2) 0.39781(14) 0.16678(15)
O15 O 0.1642(3) 0.55402(15) 0.30270(16)
O16 O 0.0899(3) 0.63751(16) 0.3154(2)
O17 O 0.0931(3) 0.43705(19) 0.24689(18)
O18 O 0.0624(3) 0.34538(19) 0.2124(2)
Eu3A Eu 0.217831(18) 0.306685(10) 0.220702(11)
O3A O 0.2092(2) 0.87436(14) 0.20319(14)
O14A O 0.2609(2) 0.89781(14) 0.33322(15)
O18A O 0.4376(3) 0.84538(19) 0.2876(2)
loop_
_geom_bond_atom_site_label_1
_geom_bond_atom_site_label_2
_geom_bond_site_symmetry_1
_geom_bond_site_symmetry_2
Eu1 O2 1_555 1_555
Eu2 O3 1_555 1_555
Eu3 O1 1_555 1_555
C1 C2 1_555 1_555
C2 C3 1_555 1_555
C3 H1 1_555 1_555
C4 C3 1_555 1_555
H2 C4 1_555 1_555
C5 C4 1_555 1_555
C6 C5 1_555 1_555
H3 C6 1_555 1_555
C7 H4 1_555 1_555
H5 C7 1_555 1_555
H6 C7 1_555 1_555
C8 C5 1_555 1_555
H7 C8 1_555 1_555
H8 C8 1_555 1_555
H9 C8 1_555 1_555
C9 C10 1_555 1_555
C10 C11 1_555 1_555
C11 H10 1_555 1_555
C12 C11 1_555 1_555
H11 C12 1_555 1_555
C13 H12 1_555 1_555
C14 C10 1_555 1_555
H13 C14 1_555 1_555
C15 C12 1_555 1_555
C16 C17 1_555 1_555
C17 H14 1_555 1_555
C18 C17 1_555 1_555
H15 C18 1_555 1_555
C19 C16 1_555 1_555
H16 C19 1_555 1_555
C20 C19 1_555 1_555
H17 C20 1_555 1_555
C21 C22 1_555 1_555
C22 C23 1_555 1_555
C23 H18 1_555 1_555
C24 C23 1_555 1_555
H19 C24 1_555 1_555
C25 C24 1_555 1_555
C26 C25 1_555 1_555
H20 C26 1_555 1_555
C27 C22 1_555 1_555
H21 C27 1_555 1_555
C28 C25 1_555 1_555
H22 C28 1_555 1_555
H23 C28 1_555 1_555
H24 C28 1_555 1_555
C29 C30 1_555 1_555
C30 C31 1_555 1_555
C31 H25 1_555 1_555
C32 C31 1_555 1_555
H26 C32 1_555 1_555
C33 C32 1_555 1_555
C34 C33 1_555 1_555
H27 C34 1_555 1_555
C35 C30 1_555 1_555
H28 C35 1_555 1_555
C36 H29 1_555 1_555
C37 C7 1_555 1_555
C38 C36 1_555 1_555
H30 C38 1_555 1_555
C39 C36 1_555 1_555
C40 C39 1_555 1_555
C41 C39 1_555 1_555
H31 C41 1_555 1_555
C42 C37 1_555 1_555
H32 C42 1_555 1_555
C43 C44 1_555 1_555
C44 H33 1_555 1_555
C45 C44 1_555 1_555
H34 C45 1_555 1_555
C46 C45 1_555 1_555
C47 C46 1_555 1_555
H35 C47 1_555 1_555
C48 C43 1_555 1_555
H36 C48 1_555 1_555
C49 C16 1_555 1_555
C50 C52 1_555 1_555
C51 H37 1_555 1_555
C52 C51 1_555 1_555
C53 C43 1_555 1_555
C54 C51 1_555 1_555
H38 C54 1_555 1_555
C55 C54 1_555 1_555
C56 C55 1_555 1_555
H39 C56 1_555 1_555
C57 C52 1_555 1_555
H40 C57 1_555 1_555
C58 C59 1_555 1_555
C59 C63 1_555 1_555
C60 C2 1_555 1_555
H41 C60 1_555 1_555
C61 C46 1_555 1_555
H42 C61 1_555 1_555
H43 C61 1_555 1_555
H44 C61 1_555 1_555
C62 C55 1_555 1_555
H45 C62 1_555 1_555
H46 C62 1_555 1_555
H47 C62 1_555 1_555
C63 H48 1_555 1_555
C64 C59 1_555 1_555
H49 C64 1_555 1_555
C65 C64 1_555 1_555
H50 C65 1_555 1_555
C66 C65 1_555 1_555
C67 C63 1_555 1_555
H51 C67 1_555 1_555
C68 C18 1_555 1_555
C69 C68 1_555 1_555
H52 C69 1_555 1_555
H53 C69 1_555 1_555
H54 C69 1_555 1_555
C70 C15 1_555 1_555
H55 C70 1_555 1_555
H56 C70 1_555 1_555
H57 C70 1_555 1_555
C71 C33 1_555 1_555
H58 C71 1_555 1_555
H59 C71 1_555 1_555
H60 C71 1_555 1_555
C72 C66 1_555 1_555
H61 C72 1_555 1_555
H62 C72 1_555 1_555
H63 C72 1_555 1_555
O1 C50 1_555 1_555
O2 Eu3 1_555 1_555
O3 C58 1_555 1_555
O4 Eu2 1_555 1_555
O5 Eu3 1_555 1_555
O6 Eu1 1_555 1_555
O7 Eu3 1_555 1_555
O8 Eu1 1_555 1_555
O9 Eu1 1_555 1_555
O10 Eu2 1_555 1_555
O11 Eu1 1_555 1_555
O12 Eu1 1_555 1_555
O13 Eu2 1_555 1_555
O14 Eu2 1_555 1_555
O15 Eu1 1_555 1_555
O16 Eu1 1_555 1_555
O17 Eu2 1_555 1_555
O18 C9 1_555 1_555
Eu3A O3 1_555 1_555
O3A Eu3 1_555 1_555
O14A Eu3 1_555 1_555
O18A Eu3 1_555 1_555
Eu2 O9 1_555 1_555
Eu2 O12 1_555 1_555
Eu2 O15 1_555 1_555
Eu3 O6 1_555 1_555
C1 O11 1_555 1_555
C1 O12 1_555 1_555
C6 C60 1_555 1_555
C9 O17 1_555 1_555
C13 C14 1_555 1_555
C13 C15 1_555 1_555
C20 C68 1_555 1_555
C21 O15 1_555 1_555
C21 O16 1_555 1_555
C26 C27 1_555 1_555
C29 O7 1_555 1_555
C29 O8 1_555 1_555
C34 C35 1_555 1_555
C37 C38 1_555 1_555
C40 O13 1_555 1_555
C40 O14 1_555 1_555
C41 C42 1_555 1_555
C47 C48 1_555 1_555
C49 O5 1_555 1_555
C49 O6 1_555 1_555
C50 O2 1_555 1_555
C53 O9 1_555 1_555
C53 O10 1_555 1_555
C56 C57 1_555 1_555
C58 O4 1_555 1_555
C66 C67 1_555 1_555
O14 Eu3A 1_555 1_555
O18 Eu3A 1_555 1_555

#END
