
#######################################################################
#
#                 Cambridge Crystallographic Data Centre
#                                CCDC 
#
#######################################################################
#
# If this CIF has been generated from an entry in the Cambridge 
# Structural Database, then it will include bibliographic, chemical, 
# crystal, experimental, refinement or atomic coordinate data resulting 
# from the CCDC's data processing and validation procedures.
#
#######################################################################

data_QOGHIF
_symmetry_cell_setting           triclinic
_symmetry_space_group_name_H-M   'P -1'
_symmetry_Int_Tables_number      2
_space_group_name_Hall           '-P 1'
loop_
_symmetry_equiv_pos_site_id
_symmetry_equiv_pos_as_xyz
1 x,y,z
2 -x,-y,-z
_cell_length_a                   9.1192(8)
_cell_length_b                   15.1586(13)
_cell_length_c                   15.9218(14)
_cell_angle_alpha                90.4750(10)
_cell_angle_beta                 95.3310(10)
_cell_angle_gamma                98.1590(10)
_cell_volume                     2168.72
loop_
_atom_site_label
_atom_site_type_symbol
_atom_site_fract_x
_atom_site_fract_y
_atom_site_fract_z
Cu1 Cu 0.25929(5) 0.84727(3) 0.21750(3)
Cu2 Cu 0.27503(5) 0.64423(3) 0.77449(3)
O1 O 0.1678(3) 0.8100(2) 0.33281(18)
O2 O 0.3714(4) 0.7473(3) 0.3473(2)
O3 O 0.3783(5) 0.6696(3) 0.6534(2)
O4 O 0.1583(6) 0.7096(3) 0.6311(3)
O5 O 0.1032(3) 0.93308(19) 0.16577(16)
O6 O 0.1867(3) 0.8973(2) 0.04547(18)
O7 O 0.4461(3) 0.5818(2) 0.83504(18)
O8 O 0.3045(3) 0.59065(19) 0.93952(17)
N1 N 0.1306(4) 0.7424(2) 0.1644(2)
N2 N 0.3092(4) 0.7014(2) 0.0792(2)
H1 H 0.3188 0.6643 0.0396
N3 N 0.4429(3) 0.8234(2) 0.1612(2)
N4 N 0.6976(5) 0.8674(3) 0.1327(3)
N5 N 0.6067(4) 0.9352(2) 0.2424(2)
H2 H 0.6998 0.9550 0.2531
N6 N 0.3703(4) 0.9502(2) 0.2837(2)
N7 N 0.1898(4) 0.5298(2) 0.7186(2)
N8 N -0.0602(4) 0.5458(3) 0.7293(3)
H3 H -0.1497 0.5250 0.7099
N9 N -0.1855(5) 0.6179(3) 0.8244(3)
N10 N 0.0749(3) 0.6656(2) 0.8135(2)
N11 N 0.1847(4) 0.7914(2) 0.8985(2)
H4 H 0.1687 0.8236 0.9404
N12 N 0.3788(4) 0.7599(2) 0.8198(2)
C1 C 0.2603(5) 0.7707(3) 0.3757(3)
C2 C 0.2307(6) 0.7532(3) 0.4654(3)
H5 H 0.1514 0.7764 0.4857
C3 C 0.3071(6) 0.7083(3) 0.5161(3)
H6 H 0.3833 0.6820 0.4957
C4 C 0.2788(8) 0.6961(4) 0.6077(4)
C5 C 0.1056(4) 0.9368(3) 0.0857(2)
C6 C 0.0048(5) 0.9944(3) 0.0403(2)
H7 H -0.0545 1.0238 0.0721
C7 C 0.4131(4) 0.5658(3) 0.9093(2)
C8 C 0.5118(4) 0.5130(3) 0.9620(2)
H8 H 0.5951 0.4976 0.9391
C9 C 0.2888(5) 0.9931(3) 0.3337(3)
H9 H 0.1856 0.9798 0.3259
C10 C 0.3496(6) 1.0542(3) 0.3940(3)
H10 H 0.2896 1.0823 0.4265
C11 C 0.5024(6) 1.0739(4) 0.4061(3)
H11 H 0.5470 1.1144 0.4483
C12 C 0.5874(6) 1.0336(3) 0.3562(3)
H12 H 0.6907 1.0467 0.3633
C13 C 0.5175(5) 0.9723(3) 0.2940(3)
C14 C 0.5778(4) 0.8736(3) 0.1778(3)
C15 C 0.6747(5) 0.8043(3) 0.0689(3)
H13 H 0.7527 0.7988 0.0364
C16 C 0.5467(4) 0.7505(3) 0.0508(3)
H14 H 0.5348 0.7078 0.0075
C17 C 0.4342(4) 0.7610(3) 0.0988(2)
C18 C 0.1712(5) 0.6875(3) 0.1083(2)
C19 C 0.0735(5) 0.6130(3) 0.0754(3)
H15 H 0.1045 0.5747 0.0369
C20 C -0.0667(5) 0.5967(3) 0.0998(3)
H16 H -0.1318 0.5469 0.0789
C21 C -0.1107(5) 0.6552(3) 0.1559(3)
H17 H -0.2066 0.6464 0.1727
C22 C -0.0102(5) 0.7262(3) 0.1863(3)
H18 H -0.0403 0.7656 0.2241
C23 C 0.2876(6) 0.4819(4) 0.6869(4)
H19 H 0.3879 0.4956 0.7060
C24 C 0.2464(8) 0.4152(4) 0.6289(5)
H20 H 0.3172 0.3840 0.6090
C25 C 0.1004(8) 0.3944(5) 0.6000(5)
H21 H 0.0705 0.3497 0.5591
C26 C -0.0012(7) 0.4398(4) 0.6317(4)
H22 H -0.1014 0.4266 0.6124
C27 C 0.0458(5) 0.5064(3) 0.6932(3)
C28 C -0.0530(5) 0.6115(3) 0.7898(3)
C29 C -0.1793(5) 0.6827(3) 0.8851(3)
H23 H -0.2650 0.6877 0.9112
C30 C -0.0581(4) 0.7383(3) 0.9086(3)
H24 H -0.0578 0.7824 0.9496
C31 C 0.0650(5) 0.7293(3) 0.8715(3)
C32 C 0.3249(5) 0.8132(3) 0.8729(3)
C33 C 0.4093(5) 0.8918(3) 0.9056(3)
H25 H 0.3688 0.9288 0.9411
C34 C 0.5512(6) 0.9141(3) 0.8853(3)
H26 H 0.6088 0.9661 0.9075
C35 C 0.6091(5) 0.8592(3) 0.8315(3)
H27 H 0.7061 0.8731 0.8170
C36 C 0.5200(5) 0.7839(3) 0.8001(3)
H28 H 0.5584 0.7471 0.7633
O5A O -0.1032(3) 1.06692(19) -0.16577(16)
O6A O -0.1867(3) 1.1027(2) -0.04547(18)
C5A C -0.1056(4) 1.0632(3) -0.0857(2)
C6A C -0.0048(5) 1.0056(3) -0.0403(2)
H7A H 0.0545 0.9762 -0.0721
O7A O 0.5539(3) 0.4182(2) 1.16496(18)
O8A O 0.6955(3) 0.40935(19) 1.06048(17)
C7A C 0.5869(4) 0.4342(3) 1.0907(2)
C8A C 0.4882(4) 0.4870(3) 1.0380(2)
H8A H 0.4049 0.5024 1.0609
Cu1A Cu -0.25929(5) 1.15273(3) -0.21750(3)
Cu2A Cu -0.27503(5) 1.35577(3) -0.77449(3)
O1A O -0.1678(3) 1.1900(2) -0.33281(18)
O2A O -0.3714(4) 1.2527(3) -0.3473(2)
O3A O -0.3783(5) 1.3304(3) -0.6534(2)
O4A O -0.1583(6) 1.2904(3) -0.6311(3)
N1A N -0.1306(4) 1.2576(2) -0.1644(2)
N2A N -0.3092(4) 1.2986(2) -0.0792(2)
H1A H -0.3188 1.3357 -0.0396
N3A N -0.4429(3) 1.1766(2) -0.1612(2)
N4A N -0.6976(5) 1.1326(3) -0.1327(3)
N5A N -0.6067(4) 1.0648(2) -0.2424(2)
H2A H -0.6998 1.0450 -0.2531
N6A N -0.3703(4) 1.0498(2) -0.2837(2)
N7A N -0.1898(4) 1.4702(2) -0.7186(2)
N8A N 0.0602(4) 1.4542(3) -0.7293(3)
H3A H 0.1497 1.4750 -0.7099
N9A N 0.1855(5) 1.3821(3) -0.8244(3)
N10A N -0.0749(3) 1.3344(2) -0.8135(2)
N11A N -0.1847(4) 1.2086(2) -0.8985(2)
H4A H -0.1687 1.1764 -0.9404
N12A N -0.3788(4) 1.2401(2) -0.8198(2)
C1A C -0.2603(5) 1.2293(3) -0.3757(3)
C2A C -0.2307(6) 1.2468(3) -0.4654(3)
H5A H -0.1514 1.2236 -0.4857
C3A C -0.3071(6) 1.2917(3) -0.5161(3)
H6A H -0.3833 1.3180 -0.4957
C4A C -0.2788(8) 1.3039(4) -0.6077(4)
C9A C -0.2888(5) 1.0069(3) -0.3337(3)
H9A H -0.1856 1.0202 -0.3259
C10A C -0.3496(6) 0.9458(3) -0.3940(3)
H10A H -0.2896 0.9177 -0.4265
C11A C -0.5024(6) 0.9261(4) -0.4061(3)
H11A H -0.5470 0.8856 -0.4483
C12A C -0.5874(6) 0.9664(3) -0.3562(3)
H12A H -0.6907 0.9533 -0.3633
C13A C -0.5175(5) 1.0277(3) -0.2940(3)
C14A C -0.5778(4) 1.1264(3) -0.1778(3)
C15A C -0.6747(5) 1.1957(3) -0.0689(3)
H13A H -0.7527 1.2012 -0.0364
C16A C -0.5467(4) 1.2495(3) -0.0508(3)
H14A H -0.5348 1.2922 -0.0075
C17A C -0.4342(4) 1.2390(3) -0.0988(2)
C18A C -0.1712(5) 1.3125(3) -0.1083(2)
C19A C -0.0735(5) 1.3870(3) -0.0754(3)
H15A H -0.1045 1.4253 -0.0369
C20A C 0.0667(5) 1.4033(3) -0.0998(3)
H16A H 0.1318 1.4531 -0.0789
C21A C 0.1107(5) 1.3448(3) -0.1559(3)
H17A H 0.2066 1.3536 -0.1727
C22A C 0.0102(5) 1.2738(3) -0.1863(3)
H18A H 0.0403 1.2344 -0.2241
C23A C -0.2876(6) 1.5181(4) -0.6869(4)
H19A H -0.3879 1.5044 -0.7060
C24A C -0.2464(8) 1.5848(4) -0.6289(5)
H20A H -0.3172 1.6160 -0.6090
C25A C -0.1004(8) 1.6056(5) -0.6000(5)
H21A H -0.0705 1.6503 -0.5591
C26A C 0.0012(7) 1.5602(4) -0.6317(4)
H22A H 0.1014 1.5734 -0.6124
C27A C -0.0458(5) 1.4936(3) -0.6932(3)
C28A C 0.0530(5) 1.3885(3) -0.7898(3)
C29A C 0.1793(5) 1.3173(3) -0.8851(3)
H23A H 0.2650 1.3123 -0.9112
C30A C 0.0581(4) 1.2617(3) -0.9086(3)
H24A H 0.0578 1.2176 -0.9496
C31A C -0.0650(5) 1.2707(3) -0.8715(3)
C32A C -0.3249(5) 1.1868(3) -0.8729(3)
C33A C -0.4093(5) 1.1082(3) -0.9056(3)
H25A H -0.3688 1.0712 -0.9411
C34A C -0.5512(6) 1.0859(3) -0.8853(3)
H26A H -0.6088 1.0339 -0.9075
C35A C -0.6091(5) 1.1408(3) -0.8315(3)
H27A H -0.7061 1.1269 -0.8170
C36A C -0.5200(5) 1.2161(3) -0.8001(3)
H28A H -0.5584 1.2529 -0.7633
Cu2A_2 Cu 0.72497(5) 0.35577(3) 1.22551(3)
O7A_2 O -0.4461(3) 1.4182(2) -0.83504(18)
O8A_2 O -0.3045(3) 1.40935(19) -0.93952(17)
O9 O 0.0914(4) 0.9769(3) 0.7488(3)
H29 H 0.0244 0.9964 0.7744
H30 H 0.0371 0.9291 0.7306
O10 O 0.6553(5) 0.7894(3) 0.4432(3)
H31 H 0.7315 0.8077 0.4178
H32 H 0.5746 0.7784 0.4113
O11 O 0.9118(5) 0.8760(3) 0.3820(3)
H33 H 0.9554 0.8740 0.4313
H34 H 0.9931 0.8563 0.3761
O12 O 0.6537(5) 0.4356(3) 0.7049(4)
H35 H 0.6058 0.4587 0.7406
H36 H 0.6460 0.3812 0.6895
O13 O 0.9647(7) 0.8157(4) 0.6735(4)
H37 H 1.0449 0.8092 0.6524
H38 H 0.8873 0.7850 0.6488
O14 O 0.6997(11) 0.7110(4) 0.5932(4)
H39 H 0.7473 0.6699 0.5787
H40 H 0.6894 0.7414 0.5491
O15 O 0.5910(11) 0.5313(6) 0.5680(5)
H41 H 0.5959 0.4909 0.6045
H42 H 0.5477 0.5710 0.5893
O16 O 1.0290(13) 0.9456(8) 0.5483(7)
H43 H 1.0099 0.9065 0.5853
H44 H 1.0467 0.9984 0.5688
loop_
_geom_bond_atom_site_label_1
_geom_bond_atom_site_label_2
_geom_bond_site_symmetry_1
_geom_bond_site_symmetry_2
Cu1 O1 1_555 1_555
Cu2 O3 1_555 1_555
O1 C1 1_555 1_555
O2 Cu1 1_555 1_555
O3 C4 1_555 1_555
O4 Cu2 1_555 1_555
O5 Cu1 1_555 1_555
O6 C5 1_555 1_555
O7 Cu2 1_555 1_555
O8 Cu2 1_555 1_555
N1 Cu1 1_555 1_555
N2 H1 1_555 1_555
N3 Cu1 1_555 1_555
N4 C14 1_555 1_555
N5 H2 1_555 1_555
N6 Cu1 1_555 1_555
N7 Cu2 1_555 1_555
N8 H3 1_555 1_555
N9 C28 1_555 1_555
N10 Cu2 1_555 1_555
N11 H4 1_555 1_555
N12 Cu2 1_555 1_555
C1 O2 1_555 1_555
C2 C1 1_555 1_555
H5 C2 1_555 1_555
C3 C2 1_555 1_555
H6 C3 1_555 1_555
C4 O4 1_555 1_555
C5 O5 1_555 1_555
C6 C5 1_555 1_555
H7 C6 1_555 1_555
C7 O7 1_555 1_555
C8 C7 1_555 1_555
H8 C8 1_555 1_555
C9 N6 1_555 1_555
H9 C9 1_555 1_555
C10 C9 1_555 1_555
H10 C10 1_555 1_555
C11 C10 1_555 1_555
H11 C11 1_555 1_555
C12 C11 1_555 1_555
H12 C12 1_555 1_555
C13 N5 1_555 1_555
C14 N3 1_555 1_555
C15 N4 1_555 1_555
H13 C15 1_555 1_555
C16 C15 1_555 1_555
H14 C16 1_555 1_555
C17 N2 1_555 1_555
C18 N1 1_555 1_555
C19 C18 1_555 1_555
H15 C19 1_555 1_555
C20 C19 1_555 1_555
H16 C20 1_555 1_555
C21 C20 1_555 1_555
H17 C21 1_555 1_555
C22 N1 1_555 1_555
H18 C22 1_555 1_555
C23 N7 1_555 1_555
H19 C23 1_555 1_555
C24 C23 1_555 1_555
H20 C24 1_555 1_555
C25 C24 1_555 1_555
H21 C25 1_555 1_555
C26 C25 1_555 1_555
H22 C26 1_555 1_555
C27 N7 1_555 1_555
C28 N8 1_555 1_555
C29 N9 1_555 1_555
H23 C29 1_555 1_555
C30 C29 1_555 1_555
H24 C30 1_555 1_555
C31 N10 1_555 1_555
C32 N11 1_555 1_555
C33 C32 1_555 1_555
H25 C33 1_555 1_555
C34 C33 1_555 1_555
H26 C34 1_555 1_555
C35 C34 1_555 1_555
H27 C35 1_555 1_555
C36 N12 1_555 1_555
H28 C36 1_555 1_555
O9 H29 1_555 1_555
H30 O9 1_555 1_555
O10 H31 1_555 1_555
H32 O10 1_555 1_555
O11 H33 1_555 1_555
H34 O11 1_555 1_555
O12 H35 1_555 1_555
H36 O12 1_555 1_555
O13 H37 1_555 1_555
H38 O13 1_555 1_555
O14 H39 1_555 1_555
H40 O14 1_555 1_555
O15 H41 1_555 1_555
H42 O15 1_555 1_555
O16 H43 1_555 1_555
H44 O16 1_555 1_555
O5A C5A 1_555 1_555
O6A C5A 1_555 1_555
C5A C6A 1_555 1_555
C6A C6 1_555 1_555
H7A C6A 1_555 1_555
O7A C7A 1_555 1_555
O8A C7A 1_555 1_555
C7A C8A 1_555 1_555
C8A C8 1_555 1_555
H8A C8A 1_555 1_555
Cu1A O5A 1_555 1_555
Cu2A O3A 1_555 1_555
O1A Cu1A 1_555 1_555
O2A Cu1A 1_555 1_555
O3A C4A 1_555 1_555
O4A Cu2A 1_555 1_555
N1A Cu1A 1_555 1_555
N2A H1A 1_555 1_555
N3A Cu1A 1_555 1_555
N4A C14A 1_555 1_555
N5A H2A 1_555 1_555
N6A Cu1A 1_555 1_555
N7A Cu2A 1_555 1_555
N8A H3A 1_555 1_555
N9A C28A 1_555 1_555
N10A Cu2A 1_555 1_555
N11A H4A 1_555 1_555
N12A Cu2A 1_555 1_555
C1A O1A 1_555 1_555
C2A C1A 1_555 1_555
H5A C2A 1_555 1_555
C3A C2A 1_555 1_555
H6A C3A 1_555 1_555
C4A O4A 1_555 1_555
C9A N6A 1_555 1_555
H9A C9A 1_555 1_555
C10A C9A 1_555 1_555
H10A C10A 1_555 1_555
C11A C10A 1_555 1_555
H11A C11A 1_555 1_555
C12A C11A 1_555 1_555
H12A C12A 1_555 1_555
C13A N5A 1_555 1_555
C14A N3A 1_555 1_555
C15A N4A 1_555 1_555
H13A C15A 1_555 1_555
C16A C15A 1_555 1_555
H14A C16A 1_555 1_555
C17A N2A 1_555 1_555
C18A N1A 1_555 1_555
C19A C18A 1_555 1_555
H15A C19A 1_555 1_555
C20A C19A 1_555 1_555
H16A C20A 1_555 1_555
C21A C20A 1_555 1_555
H17A C21A 1_555 1_555
C22A N1A 1_555 1_555
H18A C22A 1_555 1_555
C23A N7A 1_555 1_555
H19A C23A 1_555 1_555
C24A C23A 1_555 1_555
H20A C24A 1_555 1_555
C25A C24A 1_555 1_555
H21A C25A 1_555 1_555
C26A C25A 1_555 1_555
H22A C26A 1_555 1_555
C27A N7A 1_555 1_555
C28A N8A 1_555 1_555
C29A N9A 1_555 1_555
H23A C29A 1_555 1_555
C30A C29A 1_555 1_555
H24A C30A 1_555 1_555
C31A N10A 1_555 1_555
C32A N11A 1_555 1_555
C33A C32A 1_555 1_555
H25A C33A 1_555 1_555
C34A C33A 1_555 1_555
H26A C34A 1_555 1_555
C35A C34A 1_555 1_555
H27A C35A 1_555 1_555
C36A N12A 1_555 1_555
H28A C36A 1_555 1_555
Cu2A_2 O7A 1_555 1_555
O7A_2 Cu2A 1_555 1_555
O8A_2 Cu2A 1_555 1_555
O8 C7 1_555 1_555
N2 C18 1_555 1_555
N3 C17 1_555 1_555
N5 C14 1_555 1_555
N6 C13 1_555 1_555
N8 C27 1_555 1_555
N10 C28 1_555 1_555
N11 C31 1_555 1_555
N12 C32 1_555 1_555
C3 C4 1_555 1_555
C12 C13 1_555 1_555
C16 C17 1_555 1_555
C21 C22 1_555 1_555
C26 C27 1_555 1_555
C30 C31 1_555 1_555
C35 C36 1_555 1_555
O8A Cu2A_2 1_555 1_555
O2A C1A 1_555 1_555
N2A C18A 1_555 1_555
N3A C17A 1_555 1_555
N5A C14A 1_555 1_555
N6A C13A 1_555 1_555
N8A C27A 1_555 1_555
N10A C28A 1_555 1_555
N11A C31A 1_555 1_555
N12A C32A 1_555 1_555
C3A C4A 1_555 1_555
C12A C13A 1_555 1_555
C16A C17A 1_555 1_555
C21A C22A 1_555 1_555
C26A C27A 1_555 1_555
C30A C31A 1_555 1_555
C35A C36A 1_555 1_555

#END
