
#######################################################################
#
#                 Cambridge Crystallographic Data Centre
#                                CCDC 
#
#######################################################################
#
# If this CIF has been generated from an entry in the Cambridge 
# Structural Database, then it will include bibliographic, chemical, 
# crystal, experimental, refinement or atomic coordinate data resulting 
# from the CCDC's data processing and validation procedures.
#
#######################################################################

data_QOGHIE
_symmetry_cell_setting           orthorhombic
_symmetry_space_group_name_H-M   'I b c a'
_symmetry_Int_Tables_number      73
_space_group_name_Hall           '-I 2b 2c'
loop_
_symmetry_equiv_pos_site_id
_symmetry_equiv_pos_as_xyz
1 x,y,z
2 1/2+x,1/2+y,1/2+z
3 -x,1/2-y,z
4 x,-y,1/2-z
5 1/2-x,y,-z
6 1/2-x,-y,1/2+z
7 1/2+x,1/2-y,-z
8 -x,1/2+y,1/2-z
9 -x,-y,-z
10 1/2-x,1/2-y,1/2-z
11 x,1/2+y,-z
12 -x,y,1/2+z
13 1/2+x,-y,z
14 1/2+x,y,1/2-z
15 1/2-x,1/2+y,z
16 x,1/2-y,1/2+z
_cell_length_a                   8.7535(14)
_cell_length_b                   13.673(2)
_cell_length_c                   43.743(7)
_cell_angle_alpha                90
_cell_angle_beta                 90
_cell_angle_gamma                90
_cell_volume                     5235.45
loop_
_atom_site_label
_atom_site_type_symbol
_atom_site_fract_x
_atom_site_fract_y
_atom_site_fract_z
O1 O 0.5000 0.2500 0.0802(6)
O2 O 0.5000 0.2500 0.2154(6)
O3 O 0.5000 0.2500 0.2745(5)
O4 O 0.0000 0.2500 0.0735(5)
N6 N 0.0934 0.2603 0.0493(5)
O5 O 0.2638 0.2760 0.0395(5)
O6 O 0.0000 0.2500 0.0256(5)
N6B N -0.0934 0.2397 0.0493(5)
O5B O -0.2638 0.2240 0.0395(5)
Ag1 Ag 0.5000 0.2500 0.14162(4)
N1 N 0.5222(11) 0.4479(11) 0.1958(2)
H1 H 0.5235 0.3861 0.1922
N2 N 0.2561(14) 0.6255(10) 0.1395(2)
N3 N 0.4365(12) 0.6020(10) 0.1807(2)
N4 N 0.3321(13) 0.3685(10) 0.1431(2)
N5 N 0.1872(12) 0.4705(10) 0.1153(2)
C1 C 0.5104(18) 0.5000 0.2500
H2 H 0.4454 0.4434 0.2531
H3 H 0.4454 0.5566 0.2469
C2 C 0.0904(15) 0.5022(13) 0.0900(3)
H4 H 0.0357 0.5609 0.0960
H5 H 0.0157 0.4518 0.0856
C3 C 0.4395(14) 0.5046(12) 0.1771(3)
C4 C 0.2646(14) 0.5277(13) 0.1364(3)
C5 C 0.6103(14) 0.4843(13) 0.2218(3)
H6 H 0.6585 0.5456 0.2162
H7 H 0.6904 0.4378 0.2266
C6 C 0.3468(15) 0.6555(12) 0.1622(3)
H8 H 0.3481 0.7226 0.1657
C7 C 0.2321(15) 0.3778(12) 0.1203(3)
H9 H 0.1967 0.3250 0.1089
C8 C 0.3502(13) 0.4641(11) 0.1529(3)
C9 C 0.1832(19) 0.5227(16) 0.0618(3)
H10 H 0.2515 0.4681 0.0580
H11 H 0.2453 0.5805 0.0652
C10 C 0.083(2) 0.539(2) 0.0340(4)
H12 H 0.0403 0.4773 0.0277
H13 H 0.1436 0.5654 0.0177
H14 H 0.0025 0.5833 0.0391
Ag1C Ag 0.5000 0.7500 0.35838(4)
N1C N 0.5222(11) 0.5521(11) 0.3042(2)
H1C H 0.5235 0.6139 0.3078
N2C N 0.2561(14) 0.3745(10) 0.3605(2)
N3C N 0.4365(12) 0.3980(10) 0.3193(2)
N4C N 0.3321(13) 0.6315(10) 0.3569(2)
N4B N 0.6679(13) 0.1315(10) 0.1431(2)
N5C N 0.1872(12) 0.5295(10) 0.3847(2)
C2C C 0.0904(15) 0.4978(13) 0.4100(3)
H4C H 0.0357 0.4391 0.4040
H5C H 0.0157 0.5482 0.4144
C3C C 0.4395(14) 0.4954(12) 0.3229(3)
C4C C 0.2646(14) 0.4723(13) 0.3636(3)
C5C C 0.6103(14) 0.5157(13) 0.2782(3)
H6C H 0.6585 0.4544 0.2838
H7C H 0.6904 0.5622 0.2734
C6C C 0.3468(15) 0.3445(12) 0.3378(3)
H8C H 0.3481 0.2774 0.3343
C7C C 0.2321(15) 0.6222(12) 0.3797(3)
H9C H 0.1967 0.6750 0.3911
C8C C 0.3502(13) 0.5359(11) 0.3471(3)
C9C C 0.1832(19) 0.4773(16) 0.4382(3)
H10C H 0.2515 0.5319 0.4420
H11C H 0.2453 0.4195 0.4348
C10C C 0.083(2) 0.461(2) 0.4660(4)
H12C H 0.0403 0.5227 0.4723
H13C H 0.1436 0.4346 0.4823
H14C H 0.0025 0.4167 0.4609
loop_
_geom_bond_atom_site_label_1
_geom_bond_atom_site_label_2
_geom_bond_site_symmetry_1
_geom_bond_site_symmetry_2
Ag1 N4 1_555 1_555
N1 H1 1_555 1_555
N2 C4 1_555 1_555
N3 C3 1_555 1_555
N4 C7 1_555 1_555
N5 C2 1_555 1_555
C1 H2 1_555 1_555
H3 C1 1_555 1_555
C2 H4 1_555 1_555
H5 C2 1_555 1_555
C3 N1 1_555 1_555
C4 N5 1_555 1_555
C5 N1 1_555 1_555
H6 C5 1_555 1_555
H7 C5 1_555 1_555
C6 N2 1_555 1_555
H8 C6 1_555 1_555
C7 N5 1_555 1_555
H9 C7 1_555 1_555
C8 N4 1_555 1_555
C9 C2 1_555 1_555
H10 C9 1_555 1_555
H11 C9 1_555 1_555
C10 C9 1_555 1_555
H12 C10 1_555 1_555
H13 C10 1_555 1_555
H14 C10 1_555 1_555
O4 N6 1_555 1_555
N6 O5 1_555 1_555
O6 N6 1_555 1_555
Ag1C N4C 1_555 1_555
N1C H1C 1_555 1_555
N2C C4C 1_555 1_555
N3C C3C 1_555 1_555
N4C C7C 1_555 1_555
N4B Ag1 1_555 1_555
N5C C2C 1_555 1_555
C2C H4C 1_555 1_555
H5C C2C 1_555 1_555
C3C N1C 1_555 1_555
C4C N5C 1_555 1_555
C5C C1 1_555 1_555
H6C C5C 1_555 1_555
H7C C5C 1_555 1_555
C6C N2C 1_555 1_555
H8C C6C 1_555 1_555
C7C N5C 1_555 1_555
H9C C7C 1_555 1_555
C8C N4C 1_555 1_555
C9C C2C 1_555 1_555
H10C C9C 1_555 1_555
H11C C9C 1_555 1_555
C10C C9C 1_555 1_555
H12C C10C 1_555 1_555
H13C C10C 1_555 1_555
H14C C10C 1_555 1_555
N6B O4 1_555 1_555
O5B N6B 1_555 1_555
N3 C6 1_555 1_555
C1 C5 1_555 1_555
C3 C8 1_555 1_555
C4 C8 1_555 1_555
N6 N6B 1_555 1_555
O6 N6B 1_555 1_555
N1C C5C 1_555 1_555
N3C C6C 1_555 1_555
C3C C8C 1_555 1_555
C4C C8C 1_555 1_555

#END
