
#######################################################################
#
#                 Cambridge Crystallographic Data Centre
#                                CCDC 
#
#######################################################################
#
# If this CIF has been generated from an entry in the Cambridge 
# Structural Database, then it will include bibliographic, chemical, 
# crystal, experimental, refinement or atomic coordinate data resulting 
# from the CCDC's data processing and validation procedures.
#
#######################################################################

data_QOGLAA
_symmetry_cell_setting           monoclinic
_symmetry_space_group_name_H-M   'P 21/c'
_symmetry_Int_Tables_number      14
_space_group_name_Hall           '-P 2ybc'
loop_
_symmetry_equiv_pos_site_id
_symmetry_equiv_pos_as_xyz
1 x,y,z
2 -x,1/2+y,1/2-z
3 -x,-y,-z
4 x,1/2-y,1/2+z
_cell_length_a                   7.014(4)
_cell_length_b                   15.506(9)
_cell_length_c                   12.546(6)
_cell_angle_alpha                90
_cell_angle_beta                 115.50(3)
_cell_angle_gamma                90
_cell_volume                     1231.57
loop_
_atom_site_label
_atom_site_type_symbol
_atom_site_fract_x
_atom_site_fract_y
_atom_site_fract_z
Tb1 Tb 0.56447(3) 0.903758(11) 0.405191(15)
S1 S -0.01586(14) 0.86102(6) 0.27902(8)
O1 O 0.3212(4) 1.01136(18) 0.3979(2)
O2 O 0.1072(5) 1.10900(19) 0.4102(2)
O3 O -0.0624(5) 0.88762(19) 0.3771(3)
O4 O 0.2076(4) 0.84069(19) 0.3164(3)
O5 O -0.1500(4) 0.78991(18) 0.2126(2)
O6 O -0.4670(5) 0.91983(19) -0.1800(3)
O7 O -0.4474(5) 1.06112(19) -0.2096(2)
O8 O 0.7185(4) 1.03831(19) 0.4034(3)
H1 H 0.8267 1.0645 0.4531
H2 H 0.6675 1.0712 0.3434
O9 O 0.5150(4) 0.80294(19) 0.5380(3)
H3 H 0.6192 0.7769 0.5912
H4 H 0.4106 0.7928 0.5536
O10 O 0.6186(5) 0.7612(2) 0.3473(3)
H5 H 0.5653 0.7117 0.3460
H6 H 0.7079 0.7543 0.3190
C1 C 0.1467(6) 1.0521(2) 0.3521(3)
C2 C -0.0064(6) 1.0340(2) 0.2264(3)
C3 C -0.0786(6) 0.9507(2) 0.1818(3)
C4 C -0.2080(6) 0.9380(2) 0.0632(3)
H7 H -0.2544 0.8828 0.0350
C5 C -0.2686(6) 1.0076(3) -0.0138(3)
C6 C -0.2040(7) 1.0899(2) 0.0293(4)
H8 H -0.2466 1.1367 -0.0221
C7 C -0.0754(7) 1.1033(3) 0.1490(4)
H9 H -0.0357 1.1591 0.1772
C8 C -0.4048(6) 0.9938(3) -0.1442(3)
Tb1B Tb 0.43553(3) 1.096242(11) 0.594809(15)
Tb1_2 Tb -0.43553(3) 0.903758(11) 0.405191(15)
Tb1B_2 Tb -0.56447(3) 1.096242(11) -0.405191(15)
O1B O 0.6788(4) 0.98864(18) 0.6021(2)
O2B O 0.8928(5) 0.89100(19) 0.5898(2)
O3_2 O 0.9376(5) 0.88762(19) 0.3771(3)
O7B O 0.4474(5) 0.93888(19) 0.2096(2)
O11 O 0.2062(6) 0.7324(2) 0.1122(3)
H10 H 0.1059 0.6976 0.1016
H11 H 0.2177 0.7607 0.1727
loop_
_geom_bond_atom_site_label_1
_geom_bond_atom_site_label_2
_geom_bond_site_symmetry_1
_geom_bond_site_symmetry_2
Tb1 O1 1_555 1_555
S1 O3 1_555 1_555
O1 C1 1_555 1_555
O2 C1 1_555 1_555
O3 Tb1_2 1_555 1_555
O4 Tb1 1_555 1_555
O5 S1 1_555 1_555
O6 C8 1_555 1_555
O7 C8 1_555 1_555
O8 Tb1 1_555 1_555
H1 O8 1_555 1_555
H2 O8 1_555 1_555
O9 Tb1 1_555 1_555
H3 O9 1_555 1_555
H4 O9 1_555 1_555
O10 Tb1 1_555 1_555
H5 O10 1_555 1_555
H6 O10 1_555 1_555
C1 C2 1_555 1_555
C2 C3 1_555 1_555
C3 S1 1_555 1_555
C4 C3 1_555 1_555
H7 C4 1_555 1_555
C5 C4 1_555 1_555
C6 C5 1_555 1_555
H8 C6 1_555 1_555
C7 C2 1_555 1_555
H9 C7 1_555 1_555
C8 C5 1_555 1_555
O11 H10 1_555 1_555
H11 O11 1_555 1_555
Tb1B O1 1_555 1_555
Tb1B_2 O7 1_555 1_555
O1B Tb1 1_555 1_555
O2B Tb1 1_555 1_555
O3_2 Tb1 1_555 1_555
O7B Tb1 1_555 1_555
S1 O4 1_555 1_555
O2 Tb1B 1_555 1_555
C6 C7 1_555 1_555
Tb1B O1B 1_555 1_555

#END
