
#######################################################################
#
#                 Cambridge Crystallographic Data Centre
#                                CCDC 
#
#######################################################################
#
# If this CIF has been generated from an entry in the Cambridge 
# Structural Database, then it will include bibliographic, chemical, 
# crystal, experimental, refinement or atomic coordinate data resulting 
# from the CCDC's data processing and validation procedures.
#
#######################################################################

data_QOGRIO
_symmetry_cell_setting           rhombohedral
_symmetry_space_group_name_H-M   'R -3'
_symmetry_Int_Tables_number      148
_space_group_name_Hall           '-R 3'
loop_
_symmetry_equiv_pos_site_id
_symmetry_equiv_pos_as_xyz
1 x,y,z
2 -y,x-y,z
3 -x+y,-x,z
4 2/3+x,1/3+y,1/3+z
5 2/3-y,1/3+x-y,1/3+z
6 2/3-x+y,1/3-x,1/3+z
7 1/3+x,2/3+y,2/3+z
8 1/3-y,2/3+x-y,2/3+z
9 1/3-x+y,2/3-x,2/3+z
10 -x,-y,-z
11 y,-x+y,-z
12 x-y,x,-z
13 1/3-x,2/3-y,2/3-z
14 1/3+y,2/3-x+y,2/3-z
15 1/3+x-y,2/3+x,2/3-z
16 2/3-x,1/3-y,1/3-z
17 2/3+y,1/3-x+y,1/3-z
18 2/3+x-y,1/3+x,1/3-z
_cell_length_a                   19.306(2)
_cell_length_b                   19.306(2)
_cell_length_c                   25.751(3)
_cell_angle_alpha                90
_cell_angle_beta                 90
_cell_angle_gamma                120.00
_cell_volume                     8312.07
loop_
_atom_site_label
_atom_site_type_symbol
_atom_site_fract_x
_atom_site_fract_y
_atom_site_fract_z
Cd1 Cd 0.6667 0.3333 0.497083(14)
N1 N 0.7963(2) 0.2327(2) 0.40746(12)
N2 N 0.8192(3) 0.2990(2) 0.37803(16)
N3 N 0.73923(19) 0.2935(2) 0.44261(12)
N4 N 0.8506(2) 0.0859(2) 0.24156(12)
N5 N 0.8209(3) 0.0155(2) 0.26684(18)
N6 N 0.92121(19) 0.0341(2) 0.21496(12)
C1 C 0.8265(3) 0.1775(3) 0.39791(17)
H1 H 0.8088 0.1380 0.4265
H2 H 0.8857 0.2081 0.3982
C2 C 0.7986(3) 0.1333(3) 0.34687(16)
H3 H 0.8063 0.0863 0.3479
H4 H 0.7406 0.1132 0.3432
C3 C 0.8407(3) 0.1826(3) 0.29981(17)
H5 H 0.8990 0.2050 0.3045
H6 H 0.8307 0.2281 0.2980
C4 C 0.8168(3) 0.1388(3) 0.24854(17)
H7 H 0.7578 0.1066 0.2467
H8 H 0.8354 0.1783 0.2199
C5 C 0.7835(3) 0.3332(2) 0.40086(17)
H9 H 0.7883 0.3820 0.3890
C6 C 0.7492(3) 0.2305(3) 0.44503(15)
H10 H 0.7255 0.1894 0.4704
C7 C 0.8652(3) -0.0133(3) 0.25015(18)
H11 H 0.8588 -0.0629 0.2616
C8 C 0.9095(2) 0.0957(2) 0.21095(15)
H12 H 0.9394 0.1406 0.1891
Cd1F Cd 1.0000 -0.0000 0.163750(14)
Cd1F_2 Cd 1.0000 1.0000 0.163750(14)
Cd1F_3 Cd 0.0000 -0.0000 0.163750(14)
N1A N 0.7673(2) 0.5636(3) 0.40746(12)
N1B N 0.4364(3) 0.2037(2) 0.40746(12)
N2A N 0.7010(2) 0.5202(4) 0.37803(16)
N2B N 0.4798(4) 0.1808(3) 0.37803(16)
N3A N 0.7065(2) 0.44573(28) 0.44261(12)
N3B N 0.55427(28) 0.26077(19) 0.44261(12)
N4A N 0.9141(2) 0.7647(3) 0.24156(12)
N4B N 0.2353(3) 0.1494(2) 0.24156(12)
N5A N 0.9845(2) 0.8054(4) 0.26684(18)
N5B N 0.1946(4) 0.1791(3) 0.26684(18)
N6A N 0.9659(2) 0.88711(28) 0.21496(12)
N6B N 0.11289(28) 0.07879(19) 0.21496(12)
N6C N 0.58788(19) 0.3674(2) 0.54829(12)
N6D N 0.6326(2) 0.22044(28) 0.54829(12)
N6E N 0.77956(28) 0.41212(19) 0.54829(12)
C1A C 0.8225(3) 0.6490(4) 0.39791(17)
C1B C 0.3510(4) 0.1735(3) 0.39791(17)
H1A H 0.8620 0.6708 0.4265
H1B H 0.3292 0.1912 0.4265
H2A H 0.7919 0.6776 0.3982
H2B H 0.3224 0.1143 0.3982
C2A C 0.8667(3) 0.6653(4) 0.34687(16)
C2B C 0.3347(4) 0.2014(3) 0.34687(16)
H3A H 0.9137 0.7200 0.3479
H3B H 0.2800 0.1937 0.3479
H4A H 0.8868 0.6274 0.3432
H4B H 0.3726 0.2594 0.3432
C3A C 0.8174(3) 0.6581(4) 0.29981(17)
C3B C 0.3419(4) 0.1593(3) 0.29981(17)
H5A H 0.7950 0.6940 0.3045
H5B H 0.3060 0.1010 0.3045
H6A H 0.7719 0.6026 0.2980
H6B H 0.3974 0.1693 0.2980
C4A C 0.8612(3) 0.6780(4) 0.24854(17)
C4B C 0.3220(4) 0.1832(3) 0.24854(17)
H7A H 0.8934 0.6512 0.2467
H7B H 0.3488 0.2422 0.2467
H8A H 0.8217 0.6571 0.2199
H8B H 0.3429 0.1646 0.2199
C5A C 0.6668(2) 0.4503(4) 0.40086(17)
C5B C 0.5497(4) 0.2165(3) 0.40086(17)
H9A H 0.6180 0.4063 0.3890
H9B H 0.5937 0.2117 0.3890
C6A C 0.7695(3) 0.5187(4) 0.44503(15)
C6B C 0.4813(4) 0.2508(3) 0.44503(15)
H10A H 0.8106 0.5361 0.4704
H10B H 0.4639 0.2745 0.4704
C7A C 1.0133(3) 0.8785(4) 0.25015(18)
C7B C 0.1215(4) 0.1348(3) 0.25015(18)
H11A H 1.0629 0.9217 0.2616
H11B H 0.0783 0.1412 0.2616
C8A C 0.9043(2) 0.8138(3) 0.21095(15)
C8B C 0.1862(3) 0.0905(2) 0.21095(15)
H12A H 0.8594 0.7988 0.1891
H12B H 0.2012 0.0606 0.1891
Cd2 Cd 0.6667 0.3333 0.8333
N7 N 0.5030(3) 0.3743(3) 0.9307(2)
N8 N 0.5014(3) 0.3164(3) 0.9621(2)
N9 N 0.5672(3) 0.3278(3) 0.8874(2)
C9 C 0.5154(4) 0.4735(4) 0.9918(2)
H13 H 0.5131 0.4397 1.0214
H14 H 0.5719 0.5064 0.9809
C10 C 0.4664(4) 0.4207(4) 0.9471(2)
H15 H 0.4106 0.3846 0.9584
H16 H 0.4658 0.4538 0.9180
C11 C 0.5409(3) 0.2912(4) 0.9342(3)
H17 H 0.5506 0.2501 0.9459
C12 C 0.5415(3) 0.3802(4) 0.8879(2)
H18 H 0.5502 0.4169 0.8608
Cd2C Cd 0.3334 0.6666 1.1666
Cd2C_2 Cd 0.3334 -0.3334 1.1666
Cd2C_3 Cd 1.3334 0.6666 1.1666
N7I N 0.4970(3) 0.6257(3) 1.0693(2)
N7A N 0.6257(3) 0.1287(4) 0.9307(2)
N7J N 0.3743(3) -0.1287(4) 1.0693(2)
N7B N 0.8713(4) 0.4970(3) 0.9307(2)
N7K N 1.1287(4) 0.5030(3) 1.0693(2)
N8I N 0.4986(3) 0.6836(3) 1.0379(2)
N8A N 0.6836(3) 0.1850(4) 0.9621(2)
N8J N 0.3164(3) -0.1850(4) 1.0379(2)
N8B N 0.8150(4) 0.4986(3) 0.9621(2)
N8K N 1.1850(4) 0.5014(3) 1.0379(2)
N9I N 0.4328(3) 0.6722(3) 1.1126(2)
N9A N 0.6722(3) 0.2394(4) 0.8874(2)
N9J N 0.3278(3) -0.2394(4) 1.1126(2)
N9B N 0.7606(4) 0.4328(3) 0.8874(2)
N9K N 1.2394(4) 0.5672(3) 1.1126(2)
N9L N 0.7661(3) 0.3389(3) 0.7793(2)
N9M N 0.6611(3) 0.4273(4) 0.7793(2)
N9N N 0.5727(4) 0.2339(3) 0.7793(2)
C9I C 0.4846(4) 0.5265(4) 1.0082(2)
C9A C 0.5265(4) 0.0419(6) 0.9918(2)
C9J C 0.4735(4) -0.0419(6) 1.0082(2)
C9B C 0.9581(6) 0.4846(4) 0.9918(2)
C9K C 1.0419(6) 0.5154(4) 1.0082(2)
H13I H 0.4869 0.5603 0.9786
H13A H 0.5603 0.0734 1.0214
H13J H 0.4397 -0.0734 0.9786
H13B H 0.9266 0.4869 1.0214
H13K H 1.0734 0.5131 0.9786
H14I H 0.4281 0.4936 1.0191
H14A H 0.4936 0.0655 0.9809
H14J H 0.5064 -0.0655 1.0191
H14B H 0.9345 0.4281 0.9809
H14K H 1.0655 0.5719 1.0191
C10I C 0.5336(4) 0.5793(4) 1.0529(2)
C10A C 0.5793(4) 0.0457(6) 0.9471(2)
C10J C 0.4207(4) -0.0457(6) 1.0529(2)
C10B C 0.9543(6) 0.5336(4) 0.9471(2)
C10K C 1.0457(6) 0.4664(4) 1.0529(2)
H15I H 0.5894 0.6154 1.0416
H15A H 0.6154 0.0260 0.9584
H15J H 0.3846 -0.0260 1.0416
H15B H 0.9740 0.5894 0.9584
H15K H 1.0260 0.4106 1.0416
H16I H 0.5342 0.5462 1.0820
H16A H 0.5462 0.0120 0.9180
H16J H 0.4538 -0.0120 1.0820
H16B H 0.9880 0.5342 0.9180
H16K H 1.0120 0.4658 1.0820
C11I C 0.4591(3) 0.7088(4) 1.0658(3)
C11A C 0.7088(4) 0.2497(5) 0.9342(3)
C11J C 0.2912(4) -0.2497(5) 1.0658(3)
C11B C 0.7503(5) 0.4591(3) 0.9342(3)
C11K C 1.2497(5) 0.5409(3) 1.0658(3)
H17I H 0.4494 0.7499 1.0541
H17A H 0.7499 0.3005 0.9459
H17J H 0.2501 -0.3005 1.0541
H17B H 0.6995 0.4494 0.9459
H17K H 1.3005 0.5506 1.0541
C12I C 0.4585(3) 0.6198(4) 1.1121(2)
C12A C 0.6198(4) 0.1613(5) 0.8879(2)
C12J C 0.3802(4) -0.1613(5) 1.1121(2)
C12B C 0.8387(5) 0.4585(3) 0.8879(2)
C12K C 1.1613(5) 0.5415(3) 1.1121(2)
H18I H 0.4498 0.5831 1.1392
H18A H 0.5831 0.1333 0.8608
H18J H 0.4169 -0.1333 1.1392
H18B H 0.8667 0.4498 0.8608
H18K H 1.1333 0.5502 1.1392
Cl1 Cl 0.36391(10) 0.00289(8) 0.85943(5)
O1 O 0.4267(4) 0.0767(4) 0.8683(5)
O2 O 0.2949(7) -0.0038(7) 0.8576(6)
O3 O 0.3714(9) -0.0385(11) 0.8238(7)
O4 O 0.3625(9) -0.0347(9) 0.9011(7)
loop_
_geom_bond_atom_site_label_1
_geom_bond_atom_site_label_2
_geom_bond_site_symmetry_1
_geom_bond_site_symmetry_2
Cd1 N3 1_555 1_555
Cd2 N9 1_555 1_555
Cl1 O1 1_555 1_555
O2 Cl1 1_555 1_555
O3 Cl1 1_555 1_555
O4 Cl1 1_555 1_555
N1 N2 1_555 1_555
N2 C5 1_555 1_555
N3 C5 1_555 1_555
N4 N5 1_555 1_555
N5 C7 1_555 1_555
N6 C7 1_555 1_555
N7 N8 1_555 1_555
N8 C11 1_555 1_555
N9 C11 1_555 1_555
C1 N1 1_555 1_555
H1 C1 1_555 1_555
H2 C1 1_555 1_555
C2 C1 1_555 1_555
H3 C2 1_555 1_555
H4 C2 1_555 1_555
C3 C2 1_555 1_555
H5 C3 1_555 1_555
H6 C3 1_555 1_555
C4 N4 1_555 1_555
H7 C4 1_555 1_555
H8 C4 1_555 1_555
C5 H9 1_555 1_555
C6 N1 1_555 1_555
H10 C6 1_555 1_555
C7 H11 1_555 1_555
C8 N4 1_555 1_555
H12 C8 1_555 1_555
C9 H13 1_555 1_555
H14 C9 1_555 1_555
C10 N7 1_555 1_555
H15 C10 1_555 1_555
H16 C10 1_555 1_555
C11 H17 1_555 1_555
C12 N7 1_555 1_555
H18 C12 1_555 1_555
Cd1F N6 1_555 1_555
Cd1F_2 N6A 1_555 1_555
Cd1F_3 N6B 1_555 1_555
Cd2C N9I 1_555 1_555
Cd2C_2 N9J 1_555 1_555
Cd2C_3 N9K 1_555 1_555
N1A N2A 1_555 1_555
N1B N2B 1_555 1_555
N2A C5A 1_555 1_555
N2B C5B 1_555 1_555
N3A Cd1 1_555 1_555
N3B Cd1 1_555 1_555
N4A N5A 1_555 1_555
N4B N5B 1_555 1_555
N5A C7A 1_555 1_555
N5B C7B 1_555 1_555
N6A C7A 1_555 1_555
N6B C7B 1_555 1_555
N6C Cd1 1_555 1_555
N6D Cd1 1_555 1_555
N6E Cd1 1_555 1_555
N7I N8I 1_555 1_555
N7A N8A 1_555 1_555
N7J N8J 1_555 1_555
N7B N8B 1_555 1_555
N7K N8K 1_555 1_555
N8I C11I 1_555 1_555
N8A C11A 1_555 1_555
N8J C11J 1_555 1_555
N8B C11B 1_555 1_555
N8K C11K 1_555 1_555
N9I C11I 1_555 1_555
N9A Cd2 1_555 1_555
N9J C11J 1_555 1_555
N9B Cd2 1_555 1_555
N9K C11K 1_555 1_555
N9L Cd2 1_555 1_555
N9M Cd2 1_555 1_555
N9N Cd2 1_555 1_555
C1A N1A 1_555 1_555
C1B N1B 1_555 1_555
H1A C1A 1_555 1_555
H1B C1B 1_555 1_555
H2A C1A 1_555 1_555
H2B C1B 1_555 1_555
C2A C1A 1_555 1_555
C2B C1B 1_555 1_555
H3A C2A 1_555 1_555
H3B C2B 1_555 1_555
H4A C2A 1_555 1_555
H4B C2B 1_555 1_555
C3A C2A 1_555 1_555
C3B C2B 1_555 1_555
H5A C3A 1_555 1_555
H5B C3B 1_555 1_555
H6A C3A 1_555 1_555
H6B C3B 1_555 1_555
C4A N4A 1_555 1_555
C4B N4B 1_555 1_555
H7A C4A 1_555 1_555
H7B C4B 1_555 1_555
H8A C4A 1_555 1_555
H8B C4B 1_555 1_555
C5A N3A 1_555 1_555
C5B N3B 1_555 1_555
H9A C5A 1_555 1_555
H9B C5B 1_555 1_555
C6A N1A 1_555 1_555
C6B N1B 1_555 1_555
H10A C6A 1_555 1_555
H10B C6B 1_555 1_555
C7A H11A 1_555 1_555
C7B H11B 1_555 1_555
C8A N4A 1_555 1_555
C8B N4B 1_555 1_555
H12A C8A 1_555 1_555
H12B C8B 1_555 1_555
C9I C9 1_555 1_555
C9A C9J 1_555 1_555
C9J H13J 1_555 1_555
C9B C9K 1_555 1_555
C9K H13K 1_555 1_555
H13I C9I 1_555 1_555
H13A C9A 1_555 1_555
H13B C9B 1_555 1_555
H14I C9I 1_555 1_555
H14A C9A 1_555 1_555
H14J C9J 1_555 1_555
H14B C9B 1_555 1_555
H14K C9K 1_555 1_555
C10I N7I 1_555 1_555
C10A N7A 1_555 1_555
C10J N7J 1_555 1_555
C10B N7B 1_555 1_555
C10K N7K 1_555 1_555
H15I C10I 1_555 1_555
H15A C10A 1_555 1_555
H15J C10J 1_555 1_555
H15B C10B 1_555 1_555
H15K C10K 1_555 1_555
H16I C10I 1_555 1_555
H16A C10A 1_555 1_555
H16J C10J 1_555 1_555
H16B C10B 1_555 1_555
H16K C10K 1_555 1_555
C11I H17I 1_555 1_555
C11A N9A 1_555 1_555
C11J H17J 1_555 1_555
C11B N9B 1_555 1_555
C11K H17K 1_555 1_555
H17A C11A 1_555 1_555
H17B C11B 1_555 1_555
C12I N7I 1_555 1_555
C12A N7A 1_555 1_555
C12J N7J 1_555 1_555
C12B N7B 1_555 1_555
C12K N7K 1_555 1_555
H18I C12I 1_555 1_555
H18A C12A 1_555 1_555
H18J C12J 1_555 1_555
H18B C12B 1_555 1_555
H18K C12K 1_555 1_555
N3 C6 1_555 1_555
N6 C8 1_555 1_555
N9 C12 1_555 1_555
C3 C4 1_555 1_555
C9 C10 1_555 1_555
N3A C6A 1_555 1_555
N3B C6B 1_555 1_555
N6A C8A 1_555 1_555
N6B C8B 1_555 1_555
N9I C12I 1_555 1_555
N9A C12A 1_555 1_555
N9J C12J 1_555 1_555
N9B C12B 1_555 1_555
N9K C12K 1_555 1_555
C3A C4A 1_555 1_555
C3B C4B 1_555 1_555
C9I C10I 1_555 1_555
C9A C10A 1_555 1_555
C9J C10J 1_555 1_555
C9B C10B 1_555 1_555
C9K C10K 1_555 1_555

#END
