
#######################################################################
#
#                 Cambridge Crystallographic Data Centre
#                                CCDC 
#
#######################################################################
#
# If this CIF has been generated from an entry in the Cambridge 
# Structural Database, then it will include bibliographic, chemical, 
# crystal, experimental, refinement or atomic coordinate data resulting 
# from the CCDC's data processing and validation procedures.
#
#######################################################################

data_QOGSEL
_symmetry_cell_setting           monoclinic
_symmetry_space_group_name_H-M   'P 21/c'
_symmetry_Int_Tables_number      14
_space_group_name_Hall           '-P 2ybc'
loop_
_symmetry_equiv_pos_site_id
_symmetry_equiv_pos_as_xyz
1 x,y,z
2 -x,1/2+y,1/2-z
3 -x,-y,-z
4 x,1/2-y,1/2+z
_cell_length_a                   8.9023(3)
_cell_length_b                   7.8954(1)
_cell_length_c                   17.6249(5)
_cell_angle_alpha                90
_cell_angle_beta                 91.857(1)
_cell_angle_gamma                90
_cell_volume                     1238.15
loop_
_atom_site_label
_atom_site_type_symbol
_atom_site_fract_x
_atom_site_fract_y
_atom_site_fract_z
Nd1 Nd 0.71641(4) 1.02430(5) 0.69850(2)
K1 K 0.2654(2) 1.0340(2) 0.71260(11)
O1 O 0.5349(6) 0.9935(7) 0.7946(3)
O2 O 0.1662(10) 1.0430(11) 0.5560(4)
H1 H 0.077(4) 1.024(17) 0.5502(17)
H2 H 0.228(7) 0.999(15) 0.5280(14)
O3 O 0.9724(6) 0.9243(8) 0.6654(3)
H3 H 0.999(5) 0.825(4) 0.672(5)
H4 H 1.012(5) 0.950(10) 0.626(3)
O4 O 0.4796(6) 0.7322(7) 0.8293(3)
O5 O 0.8334(6) 0.8544(7) 0.8156(3)
O6 O 0.8672(7) 1.1298(7) 0.8104(3)
O7 O 1.2105(6) 0.6403(7) 0.9264(3)
O8 O 1.1614(6) 0.8102(7) 0.8294(3)
O9 O 0.3035(6) 1.2250(7) 0.8438(3)
O10 O 0.4977(7) 1.3811(7) 0.8788(3)
C1 C 0.5010(7) 0.8870(9) 0.8444(4)
C2 C 1.1507(8) 0.7729(9) 0.8981(4)
C3 C 0.4227(9) 1.2478(9) 0.8830(4)
C4 C 0.8835(8) 1.1015(9) 0.9752(4)
H5 H 0.8051 1.1712 0.9584
C5 C 1.0697(9) 0.8915(9) 0.9495(4)
C6 C 0.4691(8) 1.1172(9) 0.9415(4)
C7 C 0.8826(8) 0.9878(10) 0.8441(4)
C8 C 0.5245(8) 0.8319(9) 0.9823(4)
H6 H 0.5407 0.7187 0.9704
C9 C 0.4944(7) 0.9475(9) 0.9241(4)
C10 C 0.9505(8) 0.9925(9) 0.9231(4)
Nd1B Nd 0.28359(4) 0.97570(5) 1.30150(2)
Nd1A Nd 0.28359(4) 0.52430(5) 0.80150(2)
Nd1A_2 Nd 1.28359(4) 0.52430(5) 0.80150(2)
Nd1A_3 Nd 0.28359(4) 1.52430(5) 0.80150(2)
Nd1C Nd 0.71641(4) 1.47570(5) 1.19850(2)
Nd1C_2 Nd 0.71641(4) 0.47570(5) 1.19850(2)
Nd1B_2 Nd 1.28359(4) 0.97570(5) 1.30150(2)
Nd1_2 Nd -0.28359(4) 1.02430(5) 0.69850(2)
K1B K 0.7346(2) 0.9660(2) 1.28740(11)
K1_2 K 1.2654(2) 1.0340(2) 0.71260(11)
K1A K 0.7346(2) 0.5340(2) 0.78740(11)
K1A_2 K 0.7346(2) 1.5340(2) 0.78740(11)
K1C K 0.2654(2) 1.4660(2) 1.21260(11)
K1C_2 K 0.2654(2) 0.4660(2) 1.21260(11)
K1C_3 K 1.2654(2) 1.4660(2) 1.21260(11)
O1B O 0.4651(6) 1.0065(7) 1.2054(3)
O2B O 0.8338(10) 0.9570(11) 1.4440(4)
H1B H 0.923(4) 0.976(17) 1.4498(17)
H2B H 0.772(7) 1.001(15) 1.4720(14)
O3_2 O -0.0276(6) 0.9243(8) 0.6654(3)
O3B O 0.0276(6) 1.0757(8) 1.3346(3)
O3B_2 O 1.0276(6) 1.0757(8) 1.3346(3)
H3_2 H -0.001(5) 0.825(4) 0.672(5)
H3B H 0.001(5) 1.175(4) 1.328(5)
H3B_2 H 1.001(5) 1.175(4) 1.328(5)
H4_2 H 0.012(5) 0.950(10) 0.626(3)
H4B H -0.012(5) 1.050(10) 1.374(3)
H4B_2 H 0.988(5) 1.050(10) 1.374(3)
O4B O 0.5204(6) 1.2678(7) 1.1707(3)
O4A O 0.5204(6) 1.2322(7) 0.6707(3)
O4C O 0.4796(6) 0.7678(7) 1.3293(3)
O5B O 1.1666(6) 1.1456(7) 1.1844(3)
O5A O 0.1666(6) 1.3544(7) 0.6844(3)
O5B_2 O 0.1666(6) 1.1456(7) 1.1844(3)
O5C O 0.8334(6) 0.6456(7) 1.3156(3)
O6B O 1.1328(7) 0.8702(7) 1.1896(3)
O6B_2 O 0.1328(7) 0.8702(7) 1.1896(3)
O7B O 0.7895(6) 1.3597(7) 1.0736(3)
O7A O 0.7895(6) 1.1403(7) 0.5736(3)
O7C O 0.2105(6) 0.8597(7) 1.4264(3)
O8B O 0.8386(6) 1.1898(7) 1.1706(3)
O8A O 0.8386(6) 1.3102(7) 0.6706(3)
O8_2 O 0.1614(6) 0.8102(7) 0.8294(3)
O8C O 0.1614(6) 0.6898(7) 1.3294(3)
O9B O 0.6965(6) 0.7750(7) 1.1562(3)
O9A O 0.6965(6) 0.7250(7) 0.6562(3)
O9C O 0.3035(6) 1.2750(7) 1.3438(3)
O10B O 0.5023(7) 0.6189(7) 1.1212(3)
O10A O 0.5023(7) 0.8811(7) 0.6212(3)
O10C O 0.4977(7) 1.1189(7) 1.3788(3)
C1B C 0.4990(7) 1.1130(9) 1.1556(4)
C2B C 0.8493(8) 1.2271(9) 1.1019(4)
C3B C 0.5773(9) 0.7522(9) 1.1170(4)
C4B C 1.1165(8) 0.8985(9) 1.0248(4)
H5B H 1.1949 0.8288 1.0416
C5B C 0.9303(9) 1.1085(9) 1.0505(4)
C6B C 0.5309(8) 0.8828(9) 1.0585(4)
C7B C 1.1174(8) 1.0122(10) 1.1559(4)
C8B C 0.4755(8) 1.1681(9) 1.0177(4)
H6B H 0.4593 1.2813 1.0296
C9B C 0.5056(7) 1.0525(9) 1.0759(4)
C10B C 1.0495(8) 1.0075(9) 1.0769(4)
loop_
_geom_bond_atom_site_label_1
_geom_bond_atom_site_label_2
_geom_bond_site_symmetry_1
_geom_bond_site_symmetry_2
Nd1 O1 1_555 1_555
K1 O1 1_555 1_555
O1 C1 1_555 1_555
O2 K1 1_555 1_555
H1 O2 1_555 1_555
H2 O2 1_555 1_555
O3 Nd1 1_555 1_555
H3 O3 1_555 1_555
H4 O3 1_555 1_555
O4 C1 1_555 1_555
O5 Nd1 1_555 1_555
O6 Nd1 1_555 1_555
O7 C2 1_555 1_555
O8 C2 1_555 1_555
O9 K1 1_555 1_555
O10 C3 1_555 1_555
C1 C9 1_555 1_555
C2 C5 1_555 1_555
C3 O9 1_555 1_555
C4 H5 1_555 1_555
C5 C10 1_555 1_555
C6 C3 1_555 1_555
C7 O5 1_555 1_555
C8 H6 1_555 1_555
C9 C6 1_555 1_555
C10 C4 1_555 1_555
Nd1B O1B 1_555 1_555
Nd1A O4 1_555 1_555
Nd1A_2 O7 1_555 1_555
Nd1A_3 O9 1_555 1_555
Nd1C O4B 1_555 1_555
Nd1C_2 O5C 1_555 1_555
Nd1B_2 O3B_2 1_555 1_555
Nd1_2 O3_2 1_555 1_555
K1B O1B 1_555 1_555
K1_2 O3 1_555 1_555
K1A O4 1_555 1_555
K1A_2 O10 1_555 1_555
K1C O4B 1_555 1_555
K1C_2 O8C 1_555 1_555
K1C_3 O5B 1_555 1_555
O1B C1B 1_555 1_555
O2B K1B 1_555 1_555
H1B O2B 1_555 1_555
H2B O2B 1_555 1_555
O3_2 K1 1_555 1_555
O3B Nd1B 1_555 1_555
O3B_2 K1B 1_555 1_555
H3_2 O3_2 1_555 1_555
H3B O3B 1_555 1_555
H3B_2 O3B_2 1_555 1_555
H4_2 O3_2 1_555 1_555
H4B O3B 1_555 1_555
H4B_2 O3B_2 1_555 1_555
O4B C1B 1_555 1_555
O4A Nd1 1_555 1_555
O4C Nd1B 1_555 1_555
O5B Nd1B_2 1_555 1_555
O5A K1 1_555 1_555
O5B_2 Nd1B 1_555 1_555
O5C K1B 1_555 1_555
O6B Nd1B_2 1_555 1_555
O6B_2 Nd1B 1_555 1_555
O7B Nd1C 1_555 1_555
O7A Nd1 1_555 1_555
O7C Nd1B 1_555 1_555
O8B Nd1C 1_555 1_555
O8A Nd1 1_555 1_555
O8_2 K1 1_555 1_555
O8C Nd1B 1_555 1_555
O9B Nd1C_2 1_555 1_555
O9A Nd1 1_555 1_555
O9C Nd1B 1_555 1_555
O10B Nd1C_2 1_555 1_555
O10A Nd1 1_555 1_555
O10C Nd1B 1_555 1_555
C1B C9B 1_555 1_555
C2B O7B 1_555 1_555
C3B O9B 1_555 1_555
C4B C5 1_555 1_555
H5B C4B 1_555 1_555
C5B C4 1_555 1_555
C6B C8 1_555 1_555
C7B O5B 1_555 1_555
C8B C6 1_555 1_555
H6B C8B 1_555 1_555
C9B C6B 1_555 1_555
C10B C4B 1_555 1_555
K1 O4A 1_555 1_555
K1 O10A 1_555 1_555
O5 K1A 1_555 1_555
O6 C7 1_555 1_555
O8 Nd1A_2 1_555 1_555
O8 K1_2 1_555 1_555
O10 Nd1A_3 1_555 1_555
C7 C10 1_555 1_555
C8 C9 1_555 1_555
Nd1A O8_2 1_555 1_555
Nd1A_3 O5A 1_555 1_555
K1B O4C 1_555 1_555
K1B O8B 1_555 1_555
K1B O9B 1_555 1_555
K1B O10C 1_555 1_555
K1A O9A 1_555 1_555
K1A_2 O8A 1_555 1_555
K1C O5B_2 1_555 1_555
K1C O9C 1_555 1_555
K1C_2 O10B 1_555 1_555
O6B C7B 1_555 1_555
O8B C2B 1_555 1_555
O10B C3B 1_555 1_555
C2B C5B 1_555 1_555
C3B C6B 1_555 1_555
C5B C10B 1_555 1_555
C7B C10B 1_555 1_555
C8B C9B 1_555 1_555

#END
