
#######################################################################
#
#                 Cambridge Crystallographic Data Centre
#                                CCDC 
#
#######################################################################
#
# If this CIF has been generated from an entry in the Cambridge 
# Structural Database, then it will include bibliographic, chemical, 
# crystal, experimental, refinement or atomic coordinate data resulting 
# from the CCDC's data processing and validation procedures.
#
#######################################################################

data_QOHDEY
_symmetry_cell_setting           triclinic
_symmetry_space_group_name_H-M   'P -1'
_symmetry_Int_Tables_number      2
_space_group_name_Hall           '-P 1'
loop_
_symmetry_equiv_pos_site_id
_symmetry_equiv_pos_as_xyz
1 x,y,z
2 -x,-y,-z
_cell_length_a                   8.5478(9)
_cell_length_b                   9.1738(8)
_cell_length_c                   9.7808(9)
_cell_angle_alpha                79.865(8)
_cell_angle_beta                 85.467(8)
_cell_angle_gamma                62.052(10)
_cell_volume                     666.943
loop_
_atom_site_label
_atom_site_type_symbol
_atom_site_fract_x
_atom_site_fract_y
_atom_site_fract_z
V1 V 0.67192(5) 0.17350(5) 0.82920(4)
O1 O 0.4611(2) 0.2683(2) 0.72285(19)
O2 O 0.1804(3) -0.1673(2) 0.74029(19)
H1 H 0.0799 -0.0784 0.7178
O3 O 0.6294(2) 0.3464(2) 0.8875(2)
O4 O 0.8400(2) 0.1263(2) 0.7224(2)
N1 N 0.7859(3) 0.0316(3) 1.0041(2)
H2 H 0.8348 0.0557 1.0602
N2 N 0.7355(3) -0.1808(2) 0.9547(2)
N3 N 0.6272(2) -0.0466(2) 0.8570(2)
N4 N 0.9449(3) -0.2417(3) 1.1195(2)
H3 H 0.952 -0.3392 1.1379
H4 H 0.996 -0.2078 1.1628
N5 N 0.1890(3) 0.2754(3) 0.4597(2)
C1 C 0.8216(3) -0.1277(3) 1.0264(2)
C2 C 0.3850(3) 0.2098(3) 0.6488(2)
C3 C 0.2774(3) 0.3203(3) 0.5345(2)
C4 C 0.2007(3) 0.1229(3) 0.4950(3)
H5 H 0.1346 0.0949 0.4437
C5 C 0.3034(3) 0.0047(3) 0.6017(2)
C6 C 0.4041(3) 0.0469(3) 0.6801(2)
C7 C 0.5227(3) -0.0738(3) 0.7893(2)
H6 H 0.5235 -0.1769 0.8118
C8 C 0.2983(3) -0.1597(3) 0.6293(3)
H7 H 0.2612 -0.1778 0.5454
H8 H 0.4168 -0.249 0.6524
C9 C 0.2627(3) 0.4918(3) 0.4943(3)
H9 H 0.379 0.4832 0.4803
H10 H 0.2045 0.5566 0.567
H11 H 0.1953 0.5455 0.41
K1 K 0.27167(7) 0.52726(7) 0.91743(7)
O5 O -0.0288(3) 0.5801(2) 0.7999(2)
H12 H -0.1128 0.6553 0.8489
H13 H -0.077 0.6109 0.714
O2_2 O 0.1804(3) 0.8327(2) 0.74029(19)
O3A O 0.3706(2) 0.6536(2) 1.1125(2)
N2A N 0.2645(3) 0.1808(2) 1.0453(2)
N4_2 N -0.0551(3) 0.7583(3) 1.1195(2)
K1_2 K 0.27167(7) -0.47274(7) 0.91743(7)
K1_3 K 1.27167(7) -0.47274(7) 0.91743(7)
K1A K 0.72833(7) -0.52726(7) 1.08257(7)
K1A_2 K 0.72833(7) 0.47274(7) 1.08257(7)
loop_
_geom_bond_atom_site_label_1
_geom_bond_atom_site_label_2
_geom_bond_site_symmetry_1
_geom_bond_site_symmetry_2
V1 O1 1_555 1_555
O1 C2 1_555 1_555
O2 H1 1_555 1_555
O3 V1 1_555 1_555
O4 V1 1_555 1_555
N1 V1 1_555 1_555
H2 N1 1_555 1_555
N2 N3 1_555 1_555
N3 V1 1_555 1_555
N4 H3 1_555 1_555
H4 N4 1_555 1_555
N5 C3 1_555 1_555
C1 N1 1_555 1_555
C2 C3 1_555 1_555
C3 C9 1_555 1_555
C4 N5 1_555 1_555
H5 C4 1_555 1_555
C5 C4 1_555 1_555
C6 C2 1_555 1_555
C7 N3 1_555 1_555
H6 C7 1_555 1_555
C8 O2 1_555 1_555
H7 C8 1_555 1_555
H8 C8 1_555 1_555
C9 H9 1_555 1_555
H10 C9 1_555 1_555
H11 C9 1_555 1_555
K1 O1 1_555 1_555
O5 K1 1_555 1_555
H12 O5 1_555 1_555
H13 O5 1_555 1_555
O2_2 K1 1_555 1_555
O3A K1 1_555 1_555
N2A K1 1_555 1_555
N4_2 K1 1_555 1_555
K1_2 O2 1_555 1_555
K1_3 N4 1_555 1_555
K1A N2 1_555 1_555
K1A_2 O3 1_555 1_555
O3 K1 1_555 1_555
N2 C1 1_555 1_555
N4 C1 1_555 1_555
C5 C6 1_555 1_555
C5 C8 1_555 1_555
C6 C7 1_555 1_555
O3A K1A_2 1_555 1_555

#END
