
#######################################################################
#
#                 Cambridge Crystallographic Data Centre
#                                CCDC 
#
#######################################################################
#
# If this CIF has been generated from an entry in the Cambridge 
# Structural Database, then it will include bibliographic, chemical, 
# crystal, experimental, refinement or atomic coordinate data resulting 
# from the CCDC's data processing and validation procedures.
#
#######################################################################

data_QOHHEB
_symmetry_cell_setting           monoclinic
_symmetry_space_group_name_H-M   'C 2/c'
_symmetry_Int_Tables_number      15
_space_group_name_Hall           '-C 2yn'
loop_
_symmetry_equiv_pos_site_id
_symmetry_equiv_pos_as_xyz
1 x,y,z
2 1/2+x,1/2+y,z
3 -x,y,1/2-z
4 1/2-x,1/2+y,1/2-z
5 -x,-y,-z
6 1/2-x,1/2-y,-z
7 x,-y,1/2+z
8 1/2+x,1/2-y,1/2+z
_cell_length_a                   27.308(16)
_cell_length_b                   12.723(5)
_cell_length_c                   6.745(3)
_cell_angle_alpha                90
_cell_angle_beta                 96.73(2)
_cell_angle_gamma                90
_cell_volume                     2327.33
loop_
_atom_site_label
_atom_site_type_symbol
_atom_site_fract_x
_atom_site_fract_y
_atom_site_fract_z
Cd1 Cd 0.5000 0.626912(11) 0.7500
N1 N 0.25696(6) 0.51360(17) 0.6850(3)
N2 N 0.54769(5) 0.77812(11) 0.8294(2)
O1 O 0.43714(5) 0.53404(10) 0.6056(2)
O2 O 0.46002(5) 0.37036(9) 0.5420(2)
O3 O 0.40279(6) 0.21923(10) 0.6060(3)
O4 O 0.21644(6) 0.48267(18) 0.7182(3)
O5 O 0.26667(7) 0.60634(15) 0.6657(3)
C1 C 0.37894(6) 0.39939(14) 0.6169(3)
C2 C 0.36844(7) 0.29171(14) 0.6248(3)
C3 C 0.32112(7) 0.25853(16) 0.6576(3)
H1 H 0.3143 0.1871 0.6640
C4 C 0.28506(7) 0.33026(18) 0.6801(3)
H2 H 0.2538 0.3082 0.7036
C5 C 0.29550(6) 0.43595(16) 0.6674(3)
C6 C 0.34180(6) 0.47104(14) 0.6384(3)
H3 H 0.3481 0.5428 0.6332
C7 C 0.42919(6) 0.43792(13) 0.5870(3)
C8 C 0.59620(7) 0.77331(15) 0.8887(3)
H4 H 0.6103 0.7081 0.9216
C9 C 0.62626(8) 0.86108(17) 0.9031(4)
H5 H 0.6599 0.8552 0.9425
C10 C 0.60516(8) 0.95626(17) 0.8579(4)
H6 H 0.6243 1.0169 0.8675
C11 C 0.55507(8) 0.96256(15) 0.7977(3)
H7 H 0.5403 1.0273 0.7667
C12 C 0.52701(7) 0.87163(11) 0.7840(3)
H8 H 0.4268(6) 0.2523(15) 0.582(3)
Cd1F Cd 0.5000 0.373088(11) 0.2500
Cd1F_2 Cd 0.5000 0.373088(11) 1.2500
N1B N 0.74304(6) 0.51360(17) 0.8150(3)
N2B N 0.45231(5) 0.77812(11) 0.6706(2)
O1B O 0.56286(5) 0.53404(10) 0.8944(2)
O2B O 0.53998(5) 0.37036(9) 0.9580(2)
O2F O 0.46002(5) 0.62964(9) 1.0420(2)
O2D O 0.53998(5) 0.62964(9) 0.4580(2)
O3B O 0.59721(6) 0.21923(10) 0.8940(3)
O4B O 0.78356(6) 0.48267(18) 0.7818(3)
O5B O 0.73333(7) 0.60634(15) 0.8343(3)
C1B C 0.62106(6) 0.39939(14) 0.8831(3)
C2B C 0.63156(7) 0.29171(14) 0.8752(3)
C3B C 0.67888(7) 0.25853(16) 0.8424(3)
H1B H 0.6857 0.1871 0.8360
C4B C 0.71494(7) 0.33026(18) 0.8199(3)
H2B H 0.7462 0.3082 0.7964
C5B C 0.70450(6) 0.43595(16) 0.8326(3)
C6B C 0.65820(6) 0.47104(14) 0.8616(3)
H3B H 0.6519 0.5428 0.8668
C7B C 0.57081(6) 0.43792(13) 0.9130(3)
C8B C 0.40380(7) 0.77331(15) 0.6113(3)
H4B H 0.3897 0.7081 0.5784
C9B C 0.37374(8) 0.86108(17) 0.5969(4)
H5B H 0.3401 0.8552 0.5575
C10B C 0.39484(8) 0.95626(17) 0.6421(4)
H6B H 0.3757 1.0169 0.6325
C11B C 0.44493(8) 0.96256(15) 0.7023(3)
H7B H 0.4597 1.0273 0.7333
C12B C 0.47299(7) 0.87163(11) 0.7160(3)
H8B H 0.5732(6) 0.2523(15) 0.918(3)
loop_
_geom_bond_atom_site_label_1
_geom_bond_atom_site_label_2
_geom_bond_site_symmetry_1
_geom_bond_site_symmetry_2
Cd1 N2 1_555 1_555
N1 O4 1_555 1_555
N2 C8 1_555 1_555
O1 Cd1 1_555 1_555
O2 C7 1_555 1_555
O3 C2 1_555 1_555
O5 N1 1_555 1_555
C1 C2 1_555 1_555
C2 C3 1_555 1_555
C3 H1 1_555 1_555
C4 C3 1_555 1_555
H2 C4 1_555 1_555
C5 N1 1_555 1_555
C6 C1 1_555 1_555
H3 C6 1_555 1_555
C7 O1 1_555 1_555
C8 H4 1_555 1_555
C9 C8 1_555 1_555
H5 C9 1_555 1_555
C10 C9 1_555 1_555
H6 C10 1_555 1_555
C11 C10 1_555 1_555
H7 C11 1_555 1_555
C12 N2 1_555 1_555
H8 O3 1_555 1_555
Cd1F O2 1_555 1_555
Cd1F_2 O2B 1_555 1_555
N1B O4B 1_555 1_555
N2B Cd1 1_555 1_555
O1B Cd1 1_555 1_555
O2B C7B 1_555 1_555
O2F Cd1 1_555 1_555
O2D Cd1 1_555 1_555
O3B C2B 1_555 1_555
O5B N1B 1_555 1_555
C1B C2B 1_555 1_555
C2B C3B 1_555 1_555
C3B H1B 1_555 1_555
C4B C3B 1_555 1_555
H2B C4B 1_555 1_555
C5B N1B 1_555 1_555
C6B C1B 1_555 1_555
H3B C6B 1_555 1_555
C7B O1B 1_555 1_555
C8B N2B 1_555 1_555
H4B C8B 1_555 1_555
C9B C8B 1_555 1_555
H5B C9B 1_555 1_555
C10B C9B 1_555 1_555
H6B C10B 1_555 1_555
C11B C10B 1_555 1_555
H7B C11B 1_555 1_555
C12B C12 1_555 1_555
H8B O3B 1_555 1_555
C1 C7 1_555 1_555
C4 C5 1_555 1_555
C5 C6 1_555 1_555
C11 C12 1_555 1_555
N2B C12B 1_555 1_555
C1B C7B 1_555 1_555
C4B C5B 1_555 1_555
C5B C6B 1_555 1_555
C11B C12B 1_555 1_555

#END
