
#######################################################################
#
#                 Cambridge Crystallographic Data Centre
#                                CCDC 
#
#######################################################################
#
# If this CIF has been generated from an entry in the Cambridge 
# Structural Database, then it will include bibliographic, chemical, 
# crystal, experimental, refinement or atomic coordinate data resulting 
# from the CCDC's data processing and validation procedures.
#
#######################################################################

data_QOHHUS
_symmetry_cell_setting           monoclinic
_symmetry_space_group_name_H-M   'C 2/c'
_symmetry_Int_Tables_number      15
_space_group_name_Hall           '-C 2yn'
loop_
_symmetry_equiv_pos_site_id
_symmetry_equiv_pos_as_xyz
1 x,y,z
2 -x,y,1/2-z
3 1/2+x,1/2+y,z
4 1/2-x,1/2+y,1/2-z
5 -x,-y,-z
6 x,-y,1/2+z
7 1/2-x,1/2-y,-z
8 1/2+x,1/2-y,1/2+z
_cell_length_a                   23.664(3)
_cell_length_b                   14.0766(17)
_cell_length_c                   14.3858(17)
_cell_angle_alpha                90
_cell_angle_beta                 106.281(5)
_cell_angle_gamma                90
_cell_volume                     4599.87
loop_
_atom_site_label
_atom_site_type_symbol
_atom_site_fract_x
_atom_site_fract_y
_atom_site_fract_z
U1 U 0.364019(6) 0.324398(9) 0.362254(9)
O1 O 0.33374(12) 0.38676(19) 0.49310(19)
O2 O 0.41598(13) 0.4477(3) 0.5913(2)
O3 O 0.20696(13) 0.29170(19) 0.6006(2)
O4 O 0.16751(14) 0.33166(19) 0.7169(2)
O5 O 0.08141(11) 1.03338(18) 0.6191(2)
O6 O 0.14777(13) 0.9234(2) 0.6097(2)
O7 O 0.08457(12) 0.8082(2) 0.2528(2)
O8 O 0.15016(13) 0.8113(2) 0.3988(2)
O9 O 0.42342(12) 0.26658(19) 0.4456(2)
O10 O 0.30365(11) 0.38063(19) 0.28029(19)
N1 N 0.26532(13) 0.4511(2) 0.6011(2)
H1 H 0.2554 0.3993 0.5621
N2 N 0.06964(13) 0.8078(2) 0.4962(2)
H2 H 0.1093 0.8163 0.5120
C1 C 0.18220(17) 0.5495(3) 0.4973(3)
C2 C 0.15022(19) 0.4888(3) 0.4240(3)
C3 C 0.0899(2) 0.4992(3) 0.3915(3)
H3 H 0.0687 0.4579 0.3439
C4 C 0.05928(19) 0.5686(3) 0.4265(3)
C5 C 0.09161(17) 0.6322(3) 0.4955(3)
C6 C 0.15313(17) 0.6222(3) 0.5323(3)
C7 C 0.1793(2) 0.4124(4) 0.3788(4)
H4 H 0.1498 0.3792 0.3301
H5 H 0.1995 0.3684 0.4279
H6 H 0.2069 0.4412 0.3497
C8 C -0.0076(2) 0.5707(4) 0.3854(4)
H7 H -0.0234 0.6212 0.4152
H8 H -0.0237 0.5112 0.3984
H9 H -0.0177 0.5809 0.3167
C9 C 0.18799(19) 0.6912(3) 0.6089(3)
H10 H 0.2290 0.6750 0.6257
H11 H 0.1742 0.6873 0.6656
H12 H 0.1827 0.7548 0.5838
C10 C 0.24819(17) 0.5373(3) 0.5361(3)
H13 H 0.2648 0.5937 0.5722
H14 H 0.2649 0.5312 0.4821
C11 C 0.33060(16) 0.4469(3) 0.6445(3)
H15 H 0.3397 0.3979 0.6938
H16 H 0.3440 0.5071 0.6758
C12 C 0.36386(17) 0.4264(3) 0.5705(3)
C13 C 0.23310(18) 0.4420(3) 0.6768(3)
H17 H 0.2055 0.4942 0.6709
H18 H 0.2609 0.4449 0.7408
C14 C 0.20050(17) 0.3490(3) 0.6642(3)
C15 C 0.04681(17) 0.8862(3) 0.5471(3)
H19 H 0.0295 0.8593 0.5949
H20 H 0.0165 0.9217 0.5006
C16 C 0.09716(17) 0.9520(3) 0.5965(3)
C17 C 0.04888(18) 0.8149(3) 0.3889(3)
H21 H 0.0281 0.8745 0.3707
H22 H 0.0217 0.7635 0.3633
C18 C 0.10049(17) 0.8100(3) 0.3454(3)
C19 C 0.06072(17) 0.7106(3) 0.5350(3)
H23 H 0.0189 0.6969 0.5182
H24 H 0.0755 0.7114 0.6051
U1C U 0.135981(6) 0.824398(9) 0.137746(9)
U1F U 0.135981(6) 0.175602(9) 0.637746(9)
U1F_2 U 0.135981(6) 1.175602(9) 0.637746(9)
O3F O 0.29304(13) 0.20830(19) 0.3994(2)
O4F O 0.33249(14) 0.16834(19) 0.2831(2)
O5F O 0.41859(11) 0.46662(18) 0.3809(2)
O7C O 0.41543(12) 0.3082(2) 0.2472(2)
O11 O 0.5000 0.3839(6) 0.7500
H25 H 0.5000 0.3235 0.7500
H26? H 0.5235 0.4249 0.7833
loop_
_geom_bond_atom_site_label_1
_geom_bond_atom_site_label_2
_geom_bond_site_symmetry_1
_geom_bond_site_symmetry_2
U1 O1 1_555 1_555
O1 C12 1_555 1_555
O2 C12 1_555 1_555
O3 C14 1_555 1_555
O4 C14 1_555 1_555
O5 C16 1_555 1_555
O6 C16 1_555 1_555
O7 C18 1_555 1_555
O8 C18 1_555 1_555
O9 U1 1_555 1_555
O10 U1 1_555 1_555
N1 H1 1_555 1_555
N2 H2 1_555 1_555
C1 C2 1_555 1_555
C2 C3 1_555 1_555
C3 H3 1_555 1_555
C4 C3 1_555 1_555
C5 C4 1_555 1_555
C6 C1 1_555 1_555
C7 C2 1_555 1_555
H4 C7 1_555 1_555
H5 C7 1_555 1_555
H6 C7 1_555 1_555
C8 C4 1_555 1_555
H7 C8 1_555 1_555
H8 C8 1_555 1_555
H9 C8 1_555 1_555
C9 C6 1_555 1_555
H10 C9 1_555 1_555
H11 C9 1_555 1_555
H12 C9 1_555 1_555
C10 N1 1_555 1_555
H13 C10 1_555 1_555
H14 C10 1_555 1_555
C11 N1 1_555 1_555
H15 C11 1_555 1_555
H16 C11 1_555 1_555
C12 C11 1_555 1_555
C13 N1 1_555 1_555
H17 C13 1_555 1_555
H18 C13 1_555 1_555
C14 C13 1_555 1_555
C15 N2 1_555 1_555
H19 C15 1_555 1_555
H20 C15 1_555 1_555
C16 C15 1_555 1_555
C17 N2 1_555 1_555
H21 C17 1_555 1_555
H22 C17 1_555 1_555
C18 C17 1_555 1_555
C19 N2 1_555 1_555
H23 C19 1_555 1_555
H24 C19 1_555 1_555
O11 H25 1_555 1_555
U1C O7 1_555 1_555
U1F O3 1_555 1_555
U1F_2 O5 1_555 1_555
O3F U1 1_555 1_555
O4F U1 1_555 1_555
O5F U1 1_555 1_555
O7C U1 1_555 1_555
O4 U1F 1_555 1_555
C1 C10 1_555 1_555
C5 C6 1_555 1_555
C5 C19 1_555 1_555

#END
