
#######################################################################
#
#                 Cambridge Crystallographic Data Centre
#                                CCDC 
#
#######################################################################
#
# If this CIF has been generated from an entry in the Cambridge 
# Structural Database, then it will include bibliographic, chemical, 
# crystal, experimental, refinement or atomic coordinate data resulting 
# from the CCDC's data processing and validation procedures.
#
#######################################################################

data_QOHJIH
_symmetry_cell_setting           monoclinic
_symmetry_space_group_name_H-M   'C 2/c'
_symmetry_Int_Tables_number      15
_space_group_name_Hall           '-C 2yn'
loop_
_symmetry_equiv_pos_site_id
_symmetry_equiv_pos_as_xyz
1 x,y,z
2 1/2+x,1/2+y,z
3 -x,y,1/2-z
4 1/2-x,1/2+y,1/2-z
5 -x,-y,-z
6 1/2-x,1/2-y,-z
7 x,-y,1/2+z
8 1/2+x,1/2-y,1/2+z
_cell_length_a                   12.721(9)
_cell_length_b                   13.578(8)
_cell_length_c                   9.624(9)
_cell_angle_alpha                90
_cell_angle_beta                 99.761(1)
_cell_angle_gamma                90
_cell_volume                     1638.25
loop_
_atom_site_label
_atom_site_type_symbol
_atom_site_fract_x
_atom_site_fract_y
_atom_site_fract_z
Cu1 Cu 0.0000 0.395657(19) 0.7500
C1 C -0.04836(13) 0.47143(12) 0.45754(17)
C2 C -0.09827(16) 0.24220(14) 0.9136(2)
H1 H -0.0486 0.2528 0.9950
C3 C -0.18592(18) 0.25382(18) 0.7034(2)
H2 H -0.2084 0.2749 0.6112
C4 C -0.23073(19) 0.17994(19) 0.7679(3)
H3 H -0.2883 0.1411 0.7284
C5 C -0.1888(2) 0.09903(17) 1.0081(4)
H4 H -0.2628 0.0978 1.0213
H5 H -0.1454 0.1170 1.0973
C6 C -0.1570(2) -0.00210(18) 0.9653(3)
H6 H -0.2055 -0.0219 0.8811
H7 H -0.1655 -0.0483 1.0395
C7 C -0.0428(2) -0.00935(18) 0.9365(3)
H8 H -0.0323 -0.0746 0.9003
H9 H -0.0341 0.0377 0.8635
N1 N -0.17561(14) 0.17345(12) 0.9009(2)
N2 N -0.10223(13) 0.29241(11) 0.79575(17)
O1 O -0.08813(12) 0.40436(10) 0.51852(15)
O2 O -0.07951(11) 0.49738(10) 0.33187(13)
Cu1F Cu 0.0000 0.604343(19) 0.2500
Cu1F_2 Cu 0.0000 -0.395657(19) 1.2500
C1D C 0.04836(13) 0.52857(12) 0.54246(17)
C2D C 0.09827(16) -0.24220(14) 1.0864(2)
H1D H 0.0486 -0.2528 1.0050
C3D C 0.18592(18) -0.25382(18) 1.2966(2)
H2D H 0.2084 -0.2749 1.3888
C4D C 0.23073(19) -0.17994(19) 1.2321(3)
H3D H 0.2883 -0.1411 1.2716
C5D C 0.1888(2) -0.09903(17) 0.9919(4)
H4D H 0.2628 -0.0978 0.9787
H5D H 0.1454 -0.1170 0.9027
C6D C 0.1570(2) 0.00210(18) 1.0347(3)
H6D H 0.2055 0.0219 1.1189
H7D H 0.1655 0.0483 0.9605
C7D C 0.0428(2) 0.00935(18) 1.0635(3)
H8D H 0.0323 0.0746 1.0997
H9D H 0.0341 -0.0377 1.1365
N1D N 0.17561(14) -0.17345(12) 1.0991(2)
N2D N 0.10223(13) -0.29241(11) 1.20425(17)
N2B N 0.10223(13) 0.29241(11) 0.70425(17)
O1D O 0.08813(12) 0.59564(10) 0.48148(15)
O1B O 0.08813(12) 0.40436(10) 0.98148(15)
O2D O 0.07951(11) 0.50262(10) 0.66813(13)
O2F O -0.07951(11) 0.50262(10) 0.83187(13)
O3 O 0.0000 0.2821(3) 0.2500
loop_
_geom_bond_atom_site_label_1
_geom_bond_atom_site_label_2
_geom_bond_site_symmetry_1
_geom_bond_site_symmetry_2
Cu1 N2 1_555 1_555
C1 O1 1_555 1_555
C2 H1 1_555 1_555
C3 H2 1_555 1_555
C4 C3 1_555 1_555
H3 C4 1_555 1_555
C5 H4 1_555 1_555
H5 C5 1_555 1_555
C6 C5 1_555 1_555
H6 C6 1_555 1_555
H7 C6 1_555 1_555
C7 C6 1_555 1_555
H8 C7 1_555 1_555
H9 C7 1_555 1_555
N1 C2 1_555 1_555
N2 C2 1_555 1_555
O1 Cu1 1_555 1_555
O2 C1 1_555 1_555
Cu1F O2 1_555 1_555
Cu1F_2 N2D 1_555 1_555
C1D C1 1_555 1_555
C2D H1D 1_555 1_555
C3D H2D 1_555 1_555
C4D C3D 1_555 1_555
H3D C4D 1_555 1_555
C5D H4D 1_555 1_555
H5D C5D 1_555 1_555
C6D C5D 1_555 1_555
H6D C6D 1_555 1_555
H7D C6D 1_555 1_555
C7D C7 1_555 1_555
H8D C7D 1_555 1_555
H9D C7D 1_555 1_555
N1D C2D 1_555 1_555
N2D C2D 1_555 1_555
N2B Cu1 1_555 1_555
O1D Cu1F 1_555 1_555
O1B Cu1 1_555 1_555
O2D Cu1 1_555 1_555
O2F Cu1 1_555 1_555
C3 N2 1_555 1_555
C4 N1 1_555 1_555
C5 N1 1_555 1_555
C1D O1D 1_555 1_555
C1D O2D 1_555 1_555
C3D N2D 1_555 1_555
C4D N1D 1_555 1_555
C5D N1D 1_555 1_555
C6D C7D 1_555 1_555

#END
