
#######################################################################
#
#                 Cambridge Crystallographic Data Centre
#                                CCDC 
#
#######################################################################
#
# If this CIF has been generated from an entry in the Cambridge 
# Structural Database, then it will include bibliographic, chemical, 
# crystal, experimental, refinement or atomic coordinate data resulting 
# from the CCDC's data processing and validation procedures.
#
#######################################################################

data_QOHRIO
_symmetry_cell_setting           monoclinic
_symmetry_space_group_name_H-M   'P 21/c'
_symmetry_Int_Tables_number      14
_space_group_name_Hall           '-P 2ybc'
loop_
_symmetry_equiv_pos_site_id
_symmetry_equiv_pos_as_xyz
1 x,y,z
2 x,1/2-y,1/2+z
3 -x,-y,-z
4 -x,1/2+y,1/2-z
_cell_length_a                   11.000(1)
_cell_length_b                   30.312(3)
_cell_length_c                   9.833(1)
_cell_angle_alpha                90
_cell_angle_beta                 114.82(1)
_cell_angle_gamma                90
_cell_volume                     2975.79
loop_
_atom_site_label
_atom_site_type_symbol
_atom_site_fract_x
_atom_site_fract_y
_atom_site_fract_z
Fe1 Fe 0.03044(7) 0.14028(2) 0.04571(8)
Fe2 Fe 0.23308(7) 0.11200(2) 0.00632(8)
C1 C 0.1005(5) 0.15408(16) -0.1040(6)
O1 O 0.0737(4) 0.17972(12) -0.2059(5)
C2 C 0.0832(5) 0.08196(16) 0.0218(5)
O2 O 0.0500(3) 0.04368(9) 0.0255(4)
C3 C -0.1333(6) 0.14421(17) -0.0947(7)
O3 O -0.2406(4) 0.14910(14) -0.1884(5)
C4 C 0.0820(5) 0.19379(17) 0.1196(6)
O4 O 0.1165(5) 0.22888(13) 0.1655(5)
C5 C 0.0074(6) 0.12072(17) 0.2055(7)
O5 O -0.0125(5) 0.10753(15) 0.3039(5)
C6 C 0.2292(5) 0.07916(16) -0.1426(6)
O6 O 0.2273(4) 0.05793(13) -0.2407(5)
C7 C 0.3533(5) 0.15371(18) 0.0174(7)
O7 O 0.4269(4) 0.17977(14) 0.0144(6)
C8 C 0.3442(5) 0.08556(18) 0.1755(7)
O8 O 0.4168(5) 0.06835(17) 0.2834(6)
Li1 Li 0.0901(10) 0.2057(3) -0.3707(13)
O9 O -0.0829(4) 0.20279(15) -0.5314(5)
C9 C -0.1902(10) 0.1784(4) -0.5286(11)
H1 H -0.1719 0.1464 -0.5290
H2 H -0.2022 0.1853 -0.4367
C10 C -0.3055(10) 0.1895(6) -0.6550(13)
H3 H -0.3709 0.2041 -0.6249
H4 H -0.3476 0.1626 -0.7128
C11 C -0.2666(10) 0.2190(5) -0.7451(15)
H5 H -0.2898 0.2059 -0.8452
H6 H -0.3149 0.2474 -0.7588
C12 C -0.1284(8) 0.2261(3) -0.6723(9)
H7 H -0.1088 0.2580 -0.6549
H8 H -0.0832 0.2146 -0.7334
O10 O 0.2404(4) 0.19152(13) -0.4118(5)
C13 C 0.3231(9) 0.2236(2) -0.4380(12)
H9 H 0.3727 0.2410 -0.3460
H10 H 0.2677 0.2440 -0.5189
C14 C 0.4190(11) 0.1990(4) -0.4826(16)
H11 H 0.4050 0.2069 -0.5858
H12 H 0.5127 0.2057 -0.4134
C15 C 0.3906(12) 0.1540(4) -0.4742(15)
H13 H 0.4747 0.1380 -0.4148
H14 H 0.3510 0.1412 -0.5762
C16 C 0.2976(9) 0.1487(2) -0.4047(10)
H15 H 0.2273 0.1268 -0.4601
H16 H 0.3453 0.1388 -0.2994
Li2 Li 0.0431(8) -0.0048(3) -0.1144(9)
O11 O -0.0833(4) 0.01182(12) -0.3104(4)
C17 C -0.1815(6) -0.0179(2) -0.4149(7)
H17 H -0.1981 -0.0432 -0.3613
H18 H -0.1503 -0.0292 -0.4892
C18 C -0.3068(6) 0.0093(2) -0.4908(7)
H19 H -0.3708 0.0033 -0.4462
H20 H -0.3508 0.0025 -0.5992
C19 C -0.2612(6) 0.0575(2) -0.4657(6)
H21 H -0.2865 0.0729 -0.5624
H22 H -0.3014 0.0732 -0.4063
C20 C -0.1100(6) 0.0548(2) -0.3805(7)
H23 H -0.0662 0.0578 -0.4497
H24 H -0.0766 0.0784 -0.3040
O12 O 0.2176(4) -0.02852(12) -0.0553(4)
C21 C 0.2892(7) -0.0461(2) -0.1351(9)
H25 H 0.3426 -0.0229 -0.1554
H26 H 0.2270 -0.0593 -0.2313
C22 C 0.3784(9) -0.0806(3) -0.0318(13)
H27 H 0.3308 -0.1092 -0.0453
H28 H 0.4599 -0.0850 -0.0493
C23 C 0.4127(7) -0.0622(3) 0.1201(11)
H29 H 0.4317 -0.0861 0.1951
H30 H 0.4915 -0.0425 0.1514
C24 C 0.2911(6) -0.0374(2) 0.1021(7)
H31 H 0.2358 -0.0550 0.1397
H32 H 0.3161 -0.0094 0.1591
Li2B Li -0.0431(8) 0.0048(3) 0.1144(9)
Li1A Li 0.0901(10) 0.2943(3) 0.1293(13)
O4A O 0.1165(5) 0.27112(13) -0.3345(5)
O2B O -0.0500(3) -0.04368(9) -0.0255(4)
loop_
_geom_bond_atom_site_label_1
_geom_bond_atom_site_label_2
_geom_bond_site_symmetry_1
_geom_bond_site_symmetry_2
Fe1 Fe2 1_555 1_555
Fe2 C1 1_555 1_555
C1 Fe1 1_555 1_555
O1 C1 1_555 1_555
C2 Fe1 1_555 1_555
O2 C2 1_555 1_555
C3 Fe1 1_555 1_555
O3 C3 1_555 1_555
C4 Fe1 1_555 1_555
O4 C4 1_555 1_555
C5 Fe1 1_555 1_555
O5 C5 1_555 1_555
C6 Fe2 1_555 1_555
O6 C6 1_555 1_555
C7 Fe2 1_555 1_555
O7 C7 1_555 1_555
C8 Fe2 1_555 1_555
O8 C8 1_555 1_555
Li1 O1 1_555 1_555
O9 Li1 1_555 1_555
C9 O9 1_555 1_555
H1 C9 1_555 1_555
H2 C9 1_555 1_555
C10 C9 1_555 1_555
H3 C10 1_555 1_555
H4 C10 1_555 1_555
C11 C10 1_555 1_555
H5 C11 1_555 1_555
H6 C11 1_555 1_555
C12 O9 1_555 1_555
H7 C12 1_555 1_555
H8 C12 1_555 1_555
O10 Li1 1_555 1_555
C13 O10 1_555 1_555
H9 C13 1_555 1_555
H10 C13 1_555 1_555
C14 C13 1_555 1_555
H11 C14 1_555 1_555
H12 C14 1_555 1_555
C15 C14 1_555 1_555
H13 C15 1_555 1_555
H14 C15 1_555 1_555
C16 O10 1_555 1_555
H15 C16 1_555 1_555
H16 C16 1_555 1_555
Li2 O2 1_555 1_555
O11 Li2 1_555 1_555
C17 O11 1_555 1_555
H17 C17 1_555 1_555
H18 C17 1_555 1_555
C18 C17 1_555 1_555
H19 C18 1_555 1_555
H20 C18 1_555 1_555
C19 C18 1_555 1_555
H21 C19 1_555 1_555
H22 C19 1_555 1_555
C20 O11 1_555 1_555
H23 C20 1_555 1_555
H24 C20 1_555 1_555
O12 Li2 1_555 1_555
C21 O12 1_555 1_555
H25 C21 1_555 1_555
H26 C21 1_555 1_555
C22 C21 1_555 1_555
H27 C22 1_555 1_555
H28 C22 1_555 1_555
C23 C22 1_555 1_555
H29 C23 1_555 1_555
H30 C23 1_555 1_555
C24 O12 1_555 1_555
H31 C24 1_555 1_555
H32 C24 1_555 1_555
Li2B O2 1_555 1_555
Li1A O4 1_555 1_555
O4A Li1 1_555 1_555
O2B Li2 1_555 1_555
Fe2 C2 1_555 1_555
C11 C12 1_555 1_555
C15 C16 1_555 1_555
C19 C20 1_555 1_555
C23 C24 1_555 1_555
Li2B O2B 1_555 1_555

#END
