
#######################################################################
#
#                 Cambridge Crystallographic Data Centre
#                                CCDC 
#
#######################################################################
#
# If this CIF has been generated from an entry in the Cambridge 
# Structural Database, then it will include bibliographic, chemical, 
# crystal, experimental, refinement or atomic coordinate data resulting 
# from the CCDC's data processing and validation procedures.
#
#######################################################################

data_QOHZUJ
_symmetry_cell_setting           triclinic
_symmetry_space_group_name_H-M   'P -1'
_symmetry_Int_Tables_number      2
_space_group_name_Hall           '-P 1'
loop_
_symmetry_equiv_pos_site_id
_symmetry_equiv_pos_as_xyz
1 x,y,z
2 -x,-y,-z
_cell_length_a                   9.180(2)
_cell_length_b                   10.517(2)
_cell_length_c                   13.026(3)
_cell_angle_alpha                66.45(3)
_cell_angle_beta                 85.96(3)
_cell_angle_gamma                78.70(3)
_cell_volume                     1130.47
loop_
_atom_site_label
_atom_site_type_symbol
_atom_site_fract_x
_atom_site_fract_y
_atom_site_fract_z
Nd1 Nd -0.222208(11) -0.002763(11) 0.966834(9)
C1 C -0.0153(2) 0.1487(2) 0.78232(19)
C2 C 0.0613(2) 0.2288(2) 0.67852(19)
C3 C -0.0032(3) 0.2754(3) 0.5713(2)
H1 H -0.0946 0.2537 0.5648
C4 C 0.0659(3) 0.3512(3) 0.4779(2)
H2 H 0.0228 0.3787 0.4080
C5 C 0.2047(3) 0.3895(3) 0.4857(2)
C6 C 0.1971(3) 0.2588(3) 0.6845(2)
H3 H 0.2441 0.2261 0.7536
C7 C 0.0909(2) -0.2348(2) 0.94723(19)
C8 C 0.1485(3) -0.3695(2) 0.9311(2)
C9 C 0.2865(3) -0.4537(3) 0.9784(3)
H4 H 0.3464 -0.4206 1.0131
C10 C 0.3326(3) -0.5818(3) 0.9740(3)
H5 H 0.4237 -0.6352 1.0057
C11 C 0.2443(3) -0.6357(2) 0.9219(2)
C12 C 0.0656(3) -0.4206(2) 0.8795(2)
H6 H -0.0253 -0.3675 0.8473
C13 C -0.4980(2) -0.0579(2) 0.83831(19)
C14 C -0.5510(3) -0.0941(3) 0.7487(2)
C15 C -0.4515(3) -0.1408(4) 0.6779(3)
H7 H -0.3497 -0.1545 0.6888
C16 C -0.5033(4) -0.1660(5) 0.5941(4)
H8 H -0.4357 -0.1982 0.5492
C17 C -0.6580(3) -0.1447(4) 0.5728(3)
C18 C -0.6980(3) -0.0798(3) 0.7313(2)
H9 H -0.7659 -0.0521 0.7782
N1 N 0.2644(2) 0.3357(2) 0.59082(17)
H10 H 0.3507 0.3517 0.5980
N2 N 0.1141(2) -0.5481(2) 0.87448(18)
H11 H 0.0598 -0.5759 0.8393
N3 N -0.7488(2) -0.1049(3) 0.6472(2)
H12 H -0.8432 -0.0954 0.6401
O1 O -0.41245(18) 0.21439(17) 0.86161(14)
O2 O -0.14494(18) 0.13356(18) 0.77401(14)
O3 O 0.05208(19) 0.09786(17) 0.87544(13)
O5 O 0.2733(2) 0.4653(2) 0.40582(16)
O7 O -0.03956(17) -0.17320(17) 0.91448(15)
O9 O 0.17790(18) -0.19752(17) 0.99492(15)
O10 O 0.27866(19) -0.75501(16) 0.91754(14)
O11 O -0.36120(18) -0.06922(19) 0.84750(15)
O12 O -0.59414(19) -0.01645(18) 0.89792(14)
O13 O -0.7148(3) -0.1578(3) 0.4936(2)
H13 H -0.4055 0.2418 0.7915
H14 H -0.4988 0.2088 0.8893
Nd1A Nd 0.222208(11) 0.002763(11) 1.033166(9)
Nd1A_2 Nd 0.222208(11) -0.997237(11) 1.033166(9)
Nd1A_3 Nd -0.777792(11) 0.002763(11) 1.033166(9)
O3A O -0.05208(19) -0.09786(17) 1.12456(13)
O9A O -0.17790(18) 0.19752(17) 1.00508(15)
O10A O -0.27866(19) -0.24499(16) 1.08246(14)
O12A O -0.40586(19) 0.01645(18) 1.10208(14)
O4 O 0.1484(2) 0.5654(2) 0.20232(17)
H15 H 0.1976 0.5416 0.2626
H16 H 0.1916 0.6297 0.1578
O6 O -1.0654(3) -0.0805(3) 0.6582(2)
H19 H -1.1195 -0.0077 0.6107
H20 H -1.0995 -0.0555 0.7117
O8 O 0.5643(2) 0.3241(2) 0.62331(17)
H17 H 0.6023 0.2634 0.5961
H18 H 0.6210 0.3837 0.6030
loop_
_geom_bond_atom_site_label_1
_geom_bond_atom_site_label_2
_geom_bond_site_symmetry_1
_geom_bond_site_symmetry_2
Nd1 O1 1_555 1_555
C1 C2 1_555 1_555
C2 C3 1_555 1_555
C3 H1 1_555 1_555
C4 C3 1_555 1_555
H2 C4 1_555 1_555
C5 C4 1_555 1_555
C6 C2 1_555 1_555
H3 C6 1_555 1_555
C7 C8 1_555 1_555
C8 C9 1_555 1_555
C9 H4 1_555 1_555
C10 C9 1_555 1_555
H5 C10 1_555 1_555
C11 C10 1_555 1_555
C12 C8 1_555 1_555
H6 C12 1_555 1_555
C13 C14 1_555 1_555
C14 C15 1_555 1_555
C15 H7 1_555 1_555
C16 C15 1_555 1_555
H8 C16 1_555 1_555
C17 C16 1_555 1_555
C18 C14 1_555 1_555
H9 C18 1_555 1_555
N1 C5 1_555 1_555
H10 N1 1_555 1_555
N2 C11 1_555 1_555
H11 N2 1_555 1_555
N3 C17 1_555 1_555
H12 N3 1_555 1_555
O1 H13 1_555 1_555
O2 Nd1 1_555 1_555
O3 Nd1 1_555 1_555
O4 H15 1_555 1_555
O5 C5 1_555 1_555
O6 H19 1_555 1_555
O7 Nd1 1_555 1_555
O8 H17 1_555 1_555
O9 C7 1_555 1_555
O10 C11 1_555 1_555
O11 Nd1 1_555 1_555
O12 C13 1_555 1_555
O13 C17 1_555 1_555
H14 O1 1_555 1_555
H16 O4 1_555 1_555
H18 O8 1_555 1_555
H20 O6 1_555 1_555
Nd1A O3 1_555 1_555
Nd1A_2 O10 1_555 1_555
Nd1A_3 O12 1_555 1_555
O3A Nd1 1_555 1_555
O9A Nd1 1_555 1_555
O10A Nd1 1_555 1_555
O12A Nd1 1_555 1_555
C1 O2 1_555 1_555
C1 O3 1_555 1_555
C6 N1 1_555 1_555
C7 O7 1_555 1_555
C12 N2 1_555 1_555
C13 O11 1_555 1_555
C18 N3 1_555 1_555
O9 Nd1A 1_555 1_555
Nd1A O3A 1_555 1_555

#END
