
#######################################################################
#
#                 Cambridge Crystallographic Data Centre
#                                CCDC 
#
#######################################################################
#
# If this CIF has been generated from an entry in the Cambridge 
# Structural Database, then it will include bibliographic, chemical, 
# crystal, experimental, refinement or atomic coordinate data resulting 
# from the CCDC's data processing and validation procedures.
#
#######################################################################

data_QOJLOR
_symmetry_cell_setting           triclinic
_symmetry_space_group_name_H-M   'P -1'
_symmetry_Int_Tables_number      2
_space_group_name_Hall           '-P 1'
loop_
_symmetry_equiv_pos_site_id
_symmetry_equiv_pos_as_xyz
1 x,y,z
2 -x,-y,-z
_cell_length_a                   8.872(5)
_cell_length_b                   11.163(6)
_cell_length_c                   12.589(7)
_cell_angle_alpha                94.687(7)
_cell_angle_beta                 99.930(6)
_cell_angle_gamma                103.074(7)
_cell_volume                     1186.77
loop_
_atom_site_label
_atom_site_type_symbol
_atom_site_fract_x
_atom_site_fract_y
_atom_site_fract_z
Cu1 Cu 0.52215(6) 0.43060(5) 0.22447(4)
O1 O 0.3525(4) 0.2671(3) 0.0805(3)
O2 O 0.5574(4) 0.2649(3) 0.2066(2)
O3 O 0.6664(4) 0.4853(4) 0.1307(3)
O4 O 0.8730(4) 0.4909(3) 0.2614(3)
O5 O -0.0705(5) 1.0546(4) 0.8618(3)
N1 N 0.4010(4) 0.4004(3) 0.3441(3)
N2 N 0.4679(4) 0.5931(4) 0.2391(3)
N3 N 0.1654(4) 0.6541(3) 0.5750(3)
H3 H 0.1313 0.6097 0.6226
N4 N 0.2206(5) 0.8170(4) 0.4840(3)
C1 C 0.3751(5) 0.3017(4) 0.3945(3)
H4 H 0.4111 0.2338 0.3717
C2 C 0.2957(5) 0.2950(4) 0.4812(3)
H5 H 0.2782 0.2234 0.5149
C3 C 0.2435(5) 0.3958(4) 0.5161(3)
H6 H 0.1902 0.3928 0.5737
C4 C 0.2708(4) 0.5024(4) 0.4646(3)
C5 C 0.2330(5) 0.6176(4) 0.4920(3)
C6 C 0.1629(5) 0.7743(4) 0.5672(4)
C7 C 0.1020(6) 0.8488(5) 0.6438(4)
C8 C 0.0204(5) 0.7950(4) 0.7205(3)
H7 H 0.0055 0.7104 0.7244
C9 C -0.0383(5) 0.8660(5) 0.7901(4)
H8 H -0.0962 0.8286 0.8387
C10 C -0.0115(6) 0.9909(5) 0.7879(4)
C11 C -0.0178(8) 1.1852(6) 0.8798(6)
H9 H -0.0677 1.2172 0.9338
H10 H -0.0445 1.2186 0.8132
H11 H 0.0946 1.2083 0.9047
C12 C 0.0698(8) 1.0468(6) 0.7143(6)
H12 H 0.0863 1.1317 0.7117
C13 C 0.1267(8) 0.9741(5) 0.6439(5)
H13 H 0.1836 1.0120 0.5951
C14 C 0.2642(5) 0.7181(4) 0.4375(3)
C15 C 0.3432(5) 0.7155(4) 0.3464(3)
C16 C 0.3832(6) 0.8133(5) 0.2862(4)
H14 H 0.3555 0.8874 0.3017
C17 C 0.4640(7) 0.7997(5) 0.2037(4)
H15 H 0.4924 0.8644 0.1633
C18 C 0.5024(6) 0.6868(5) 0.1818(4)
H16 H 0.5543 0.6768 0.1247
C19 C 0.3868(5) 0.6055(4) 0.3193(3)
C20 C 0.3515(4) 0.5018(4) 0.3766(3)
C21 C 0.4575(5) 0.2183(4) 0.1185(4)
C22 C 0.4791(5) 0.1027(4) 0.0598(3)
C23 C 0.6269(5) 0.0788(4) 0.0698(3)
H17 H 0.7127 0.1315 0.1171
C24 C 0.3534(5) 0.0230(4) -0.0099(4)
H18 H 0.2536 0.0382 -0.0166
C25 C 0.8109(6) 0.4904(4) 0.1652(4)
C26 C 0.9101(5) 0.4965(4) 0.0800(3)
C27 C 0.8507(5) 0.5171(4) -0.0231(4)
H19 H 0.7489 0.5284 -0.0395
C28 C 1.0601(5) 0.4787(5) 0.1023(3)
H20 H 1.1016 0.4637 0.1716
Cu1A Cu 0.47785(6) -0.43060(5) -0.22447(4)
Cu1A_2 Cu 1.47785(6) 0.56940(5) -0.22447(4)
O1A O 0.6475(4) -0.2671(3) -0.0805(3)
O2A O 0.4426(4) -0.2649(3) -0.2066(2)
O3A O 1.3336(4) 0.5147(4) -0.1307(3)
O3A_2 O 0.3336(4) -0.4853(4) -0.1307(3)
O4A O 1.1270(4) 0.5091(3) -0.2614(3)
O5A O 1.0705(5) -1.0546(4) -0.8618(3)
N1A N 0.5990(4) -0.4004(3) -0.3441(3)
N2A N 0.5321(4) -0.5931(4) -0.2391(3)
N3A N 0.8346(4) -0.6541(3) -0.5750(3)
H3A H 0.8687 -0.6097 -0.6226
N4A N 0.7794(5) -0.8170(4) -0.4840(3)
C1A C 0.6249(5) -0.3017(4) -0.3945(3)
H4A H 0.5889 -0.2338 -0.3717
C2A C 0.7043(5) -0.2950(4) -0.4812(3)
H5A H 0.7218 -0.2234 -0.5149
C3A C 0.7565(5) -0.3958(4) -0.5161(3)
H6A H 0.8098 -0.3928 -0.5737
C4A C 0.7292(4) -0.5024(4) -0.4646(3)
C5A C 0.7670(5) -0.6176(4) -0.4920(3)
C6A C 0.8371(5) -0.7743(4) -0.5672(4)
C7A C 0.8980(6) -0.8488(5) -0.6438(4)
C8A C 0.9796(5) -0.7950(4) -0.7205(3)
H7A H 0.9945 -0.7104 -0.7244
C9A C 1.0383(5) -0.8660(5) -0.7901(4)
H8A H 1.0962 -0.8286 -0.8387
C10A C 1.0115(6) -0.9909(5) -0.7879(4)
C11A C 1.0178(8) -1.1852(6) -0.8798(6)
H9A H 1.0677 -1.2172 -0.9338
H10A H 1.0445 -1.2186 -0.8132
H11A H 0.9054 -1.2083 -0.9047
C12A C 0.9302(8) -1.0468(6) -0.7143(6)
H12A H 0.9137 -1.1317 -0.7117
C13A C 0.8733(8) -0.9741(5) -0.6439(5)
H13A H 0.8164 -1.0120 -0.5951
C14A C 0.7358(5) -0.7181(4) -0.4375(3)
C15A C 0.6568(5) -0.7155(4) -0.3464(3)
C16A C 0.6168(6) -0.8133(5) -0.2862(4)
H14A H 0.6445 -0.8874 -0.3017
C17A C 0.5360(7) -0.7997(5) -0.2037(4)
H15A H 0.5076 -0.8644 -0.1633
C18A C 0.4976(6) -0.6868(5) -0.1818(4)
H16A H 0.4457 -0.6768 -0.1247
C19A C 0.6132(5) -0.6055(4) -0.3193(3)
C20A C 0.6485(4) -0.5018(4) -0.3766(3)
C21A C 0.5425(5) -0.2183(4) -0.1185(4)
C22A C 0.5209(5) -0.1027(4) -0.0598(3)
C23A C 0.3731(5) -0.0788(4) -0.0698(3)
H17A H 0.2873 -0.1315 -0.1171
C24A C 0.6466(5) -0.0230(4) 0.0099(4)
H18A H 0.7464 -0.0382 0.0166
C25A C 1.1891(6) 0.5096(4) -0.1652(4)
C26A C 1.0899(5) 0.5035(4) -0.0800(3)
C27A C 1.1493(5) 0.4829(4) 0.0231(4)
H19A H 1.2511 0.4716 0.0395
C28A C 0.9399(5) 0.5213(5) -0.1023(3)
H20A H 0.8984 0.5363 -0.1716
O6 O 0.4168(14) 0.0482(10) 0.4684(11)
H1 H 0.5254 0.0813 0.4598
H2 H 0.3523 -0.0344 0.4715
loop_
_geom_bond_atom_site_label_1
_geom_bond_atom_site_label_2
_geom_bond_site_symmetry_1
_geom_bond_site_symmetry_2
Cu1 O1 1_555 1_555
O1 C21 1_555 1_555
O2 Cu1 1_555 1_555
O3 Cu1 1_555 1_555
O4 C25 1_555 1_555
O5 C10 1_555 1_555
O6 H1 1_555 1_555
H2 O6 1_555 1_555
N1 Cu1 1_555 1_555
N2 Cu1 1_555 1_555
N3 H3 1_555 1_555
N4 C6 1_555 1_555
C1 N1 1_555 1_555
H4 C1 1_555 1_555
C2 C1 1_555 1_555
H5 C2 1_555 1_555
C3 C2 1_555 1_555
H6 C3 1_555 1_555
C4 C3 1_555 1_555
C5 N3 1_555 1_555
C6 N3 1_555 1_555
C7 C6 1_555 1_555
C8 C7 1_555 1_555
H7 C8 1_555 1_555
C9 C8 1_555 1_555
H8 C9 1_555 1_555
C10 C9 1_555 1_555
C11 O5 1_555 1_555
H9 C11 1_555 1_555
H10 C11 1_555 1_555
H11 C11 1_555 1_555
C12 C10 1_555 1_555
H12 C12 1_555 1_555
C13 C7 1_555 1_555
H13 C13 1_555 1_555
C14 N4 1_555 1_555
C15 C14 1_555 1_555
C16 C15 1_555 1_555
H14 C16 1_555 1_555
C17 C16 1_555 1_555
H15 C17 1_555 1_555
C18 N2 1_555 1_555
H16 C18 1_555 1_555
C19 N2 1_555 1_555
C20 N1 1_555 1_555
C21 O2 1_555 1_555
C22 C21 1_555 1_555
C23 C22 1_555 1_555
H17 C23 1_555 1_555
C24 C22 1_555 1_555
H18 C24 1_555 1_555
C25 O3 1_555 1_555
C26 C25 1_555 1_555
C27 C26 1_555 1_555
H19 C27 1_555 1_555
C28 C26 1_555 1_555
H20 C28 1_555 1_555
Cu1A O1A 1_555 1_555
Cu1A_2 O3A 1_555 1_555
O1A C21A 1_555 1_555
O2A Cu1A 1_555 1_555
O3A C25A 1_555 1_555
O3A_2 Cu1A 1_555 1_555
O4A C25A 1_555 1_555
O5A C10A 1_555 1_555
N1A Cu1A 1_555 1_555
N2A Cu1A 1_555 1_555
N3A H3A 1_555 1_555
N4A C6A 1_555 1_555
C1A N1A 1_555 1_555
H4A C1A 1_555 1_555
C2A C1A 1_555 1_555
H5A C2A 1_555 1_555
C3A C2A 1_555 1_555
H6A C3A 1_555 1_555
C4A C3A 1_555 1_555
C5A N3A 1_555 1_555
C6A N3A 1_555 1_555
C7A C6A 1_555 1_555
C8A C7A 1_555 1_555
H7A C8A 1_555 1_555
C9A C8A 1_555 1_555
H8A C9A 1_555 1_555
C10A C9A 1_555 1_555
C11A O5A 1_555 1_555
H9A C11A 1_555 1_555
H10A C11A 1_555 1_555
H11A C11A 1_555 1_555
C12A C10A 1_555 1_555
H12A C12A 1_555 1_555
C13A C7A 1_555 1_555
H13A C13A 1_555 1_555
C14A N4A 1_555 1_555
C15A C14A 1_555 1_555
C16A C15A 1_555 1_555
H14A C16A 1_555 1_555
C17A C16A 1_555 1_555
H15A C17A 1_555 1_555
C18A N2A 1_555 1_555
H16A C18A 1_555 1_555
C19A N2A 1_555 1_555
C20A N1A 1_555 1_555
C21A O2A 1_555 1_555
C22A C21A 1_555 1_555
C23A C24 1_555 1_555
H17A C23A 1_555 1_555
C24A C23 1_555 1_555
H18A C24A 1_555 1_555
C25A C26A 1_555 1_555
C26A C27A 1_555 1_555
C27A C28 1_555 1_555
H19A C27A 1_555 1_555
C28A C27 1_555 1_555
H20A C28A 1_555 1_555
C4 C5 1_555 1_555
C4 C20 1_555 1_555
C5 C14 1_555 1_555
C12 C13 1_555 1_555
C15 C19 1_555 1_555
C17 C18 1_555 1_555
C19 C20 1_555 1_555
C4A C5A 1_555 1_555
C4A C20A 1_555 1_555
C5A C14A 1_555 1_555
C12A C13A 1_555 1_555
C15A C19A 1_555 1_555
C17A C18A 1_555 1_555
C19A C20A 1_555 1_555
C22A C23A 1_555 1_555
C22A C24A 1_555 1_555
C26A C28A 1_555 1_555

#END
