
#######################################################################
#
#                 Cambridge Crystallographic Data Centre
#                                CCDC 
#
#######################################################################
#
# If this CIF has been generated from an entry in the Cambridge 
# Structural Database, then it will include bibliographic, chemical, 
# crystal, experimental, refinement or atomic coordinate data resulting 
# from the CCDC's data processing and validation procedures.
#
#######################################################################

data_QOJYAR
_symmetry_cell_setting           triclinic
_symmetry_space_group_name_H-M   'P -1'
_symmetry_Int_Tables_number      2
_space_group_name_Hall           '-P 1'
loop_
_symmetry_equiv_pos_site_id
_symmetry_equiv_pos_as_xyz
1 x,y,z
2 -x,-y,-z
_cell_length_a                   10.4229(5)
_cell_length_b                   10.5611(6)
_cell_length_c                   12.2119(6)
_cell_angle_alpha                114.782(3)
_cell_angle_beta                 109.889(4)
_cell_angle_gamma                96.087(3)
_cell_volume                     1097.92
loop_
_atom_site_label
_atom_site_type_symbol
_atom_site_fract_x
_atom_site_fract_y
_atom_site_fract_z
C1 C 1.0452(4) 0.6439(4) 0.4375(4)
H1 H 1.0727 0.7068 0.5296
C2 C 1.0861(4) 0.5180(4) 0.3995(4)
H2 H 1.1419 0.4956 0.4648
C3 C 1.0459(4) 0.4256(4) 0.2671(4)
H3 H 1.0722 0.3378 0.2403
C4 C 0.9661(4) 0.4602(4) 0.1715(3)
C5 C 0.9301(4) 0.5899(3) 0.2181(3)
H4 H 0.8763 0.6162 0.1551
C6 C 0.9287(4) 0.3599(4) 0.0320(3)
C7 C 0.9916(4) 0.2559(4) -0.0161(3)
H5 H 1.0715 0.2404 0.0381
C8 C 0.8190(3) 0.2300(4) -0.1923(3)
C9 C 0.7196(4) 0.1886(4) -0.3210(4)
H6 H 0.7232 0.1134 -0.3968
C10 C 0.6174(4) 0.2585(4) -0.3353(4)
H7 H 0.5497 0.2332 -0.4218
C11 C 0.6120(4) 0.3688(4) -0.2212(4)
H8 H 0.5386 0.4148 -0.2322
C12 C 0.7089(4) 0.4096(4) -0.0974(4)
H9 H 0.7037 0.4835 -0.0218
C13 C 0.6566(4) 0.8627(4) 0.2528(4)
C14 C 0.5341(3) 0.8746(4) 0.1519(4)
C15 C 0.4998(4) 0.7921(4) 0.0166(4)
H10 H 0.5530 0.7276 -0.0114
C16 C 0.3884(4) 0.8035(4) -0.0773(4)
H11 H 0.3669 0.7482 -0.1693
C17 C 0.3077(4) 0.8958(4) -0.0379(3)
C18 C 0.3405(4) 0.9758(4) 0.0971(4)
H12 H 0.2845 1.0370 0.1247
C19 C 0.4541(4) 0.9674(4) 0.1919(4)
H13 H 0.4773 1.0248 0.2840
C20 C 0.1905(4) 0.9086(4) -0.1410(4)
C21 C 0.7286(4) 0.7304(3) 0.5534(3)
C22 C 0.6111(4) 0.6111(3) 0.5275(3)
C23 C 0.5572(4) 0.4785(4) 0.4084(3)
H14 H 0.5961 0.4637 0.3456
C24 C 0.5529(4) 0.6309(4) 0.6177(4)
H15 H 0.5889 0.7207 0.6985
N1 N 0.9681(3) 0.6800(3) 0.3486(3)
N2 N 0.9257(3) 0.1766(3) -0.1520(3)
N3 N 0.8162(3) 0.3429(3) -0.0813(3)
O1 O 0.7175(3) 0.7675(3) 0.2113(3)
O2 O 0.6983(3) 0.9475(3) 0.3755(3)
O3 O 0.1728(3) 0.8450(3) -0.2583(3)
O4 O 0.1128(3) 0.9876(3) -0.1017(3)
O5 O 0.7571(3) 0.7161(3) 0.4582(2)
O6 O 0.7899(3) 0.8357(3) 0.6717(2)
O7 O 0.9843(2) 1.0194(2) 0.3947(2)
Zn1 Zn 0.87353(4) 0.84696(4) 0.41137(4)
Zn2 Zn 0.96635(4) 0.99234(4) 0.74884(4)
H16 H 0.9223 1.0472 0.3779
C21A C 0.2714(4) 0.2696(3) 0.4466(3)
C22A C 0.3889(4) 0.3889(3) 0.4725(3)
C23A C 0.4428(4) 0.5215(4) 0.5916(3)
H14A H 0.4039 0.5363 0.6544
C24A C 0.4471(4) 0.3691(4) 0.3823(4)
H15A H 0.4111 0.2793 0.3015
O5A O 0.2429(3) 0.2839(3) 0.5418(2)
O6A O 0.2101(3) 0.1643(3) 0.3283(2)
C1A C -0.0452(4) 0.3561(4) 0.5625(4)
H1A H -0.0727 0.2932 0.4704
C2A C -0.0861(4) 0.4820(4) 0.6005(4)
H2A H -0.1419 0.5044 0.5352
C3A C -0.0459(4) 0.5744(4) 0.7329(4)
H3A H -0.0722 0.6622 0.7597
C4A C 0.0339(4) 0.5398(4) 0.8285(3)
C5A C 0.0699(4) 0.4101(3) 0.7819(3)
H4A H 0.1237 0.3838 0.8449
C6A C 0.0713(4) 0.6401(4) 0.9680(3)
C7A C 0.0084(4) 0.7441(4) 1.0161(3)
H5A H -0.0715 0.7596 0.9619
C8A C 0.1810(3) 0.7700(4) 1.1923(3)
C9A C 0.2804(4) 0.8114(4) 1.3210(4)
H6A H 0.2768 0.8866 1.3968
C10A C 0.3826(4) 0.7415(4) 1.3353(4)
H7A H 0.4503 0.7668 1.4218
C11A C 0.3880(4) 0.6312(4) 1.2212(4)
H8A H 0.4614 0.5852 1.2322
C12A C 0.2911(4) 0.5904(4) 1.0974(4)
H9A H 0.2963 0.5165 1.0218
C13A C 0.3434(4) 0.1373(4) 0.7472(4)
C14A C 0.4659(3) 0.1254(4) 0.8481(4)
C15A C 0.5002(4) 0.2079(4) 0.9834(4)
H10A H 0.4470 0.2724 1.0114
C16A C 0.6116(4) 0.1965(4) 1.0773(4)
H11A H 0.6331 0.2518 1.1693
C17A C 0.6923(4) 0.1042(4) 1.0379(3)
C18A C 0.6595(4) 0.0242(4) 0.9029(4)
H12A H 0.7155 -0.0370 0.8753
C19A C 0.5459(4) 0.0326(4) 0.8081(4)
H13A H 0.5227 -0.0248 0.7160
C20A C 0.8095(4) 0.0914(4) 1.1410(4)
N1A N 0.0319(3) 0.3200(3) 0.6514(3)
N2A N 0.0743(3) 0.8234(3) 1.1520(3)
N3A N 0.1838(3) 0.6571(3) 1.0813(3)
O1A O 0.2825(3) 0.2325(3) 0.7887(3)
O2A O 0.3017(3) 0.0525(3) 0.6245(3)
O3A O 0.8272(3) 0.1550(3) 1.2583(3)
O4A O 0.8872(3) 0.0124(3) 1.1017(3)
O7A O 0.0157(2) -0.0194(2) 0.6053(2)
Zn1A Zn 0.12647(4) 0.15304(4) 0.58863(4)
Zn2A Zn 0.03365(4) 0.00766(4) 0.25116(4)
H16A H 0.0777 -0.0472 0.6221
N2_2 N 0.9257(3) 1.1766(3) 0.8480(3)
N2A_2 N 0.0743(3) -0.1766(3) 0.1520(3)
O4_2 O 1.1128(3) 0.9876(3) 0.8983(3)
O4A_2 O -0.1128(3) 0.0124(3) 0.1017(3)
O7_2 O -0.0157(2) 0.0194(2) 0.3947(2)
O7A_2 O 1.0157(2) 0.9806(2) 0.6053(2)
Zn1_2 Zn -0.12647(4) -0.15304(4) 0.41137(4)
Zn1A_2 Zn 1.12647(4) 1.15304(4) 0.58863(4)
Zn2_2 Zn -0.03365(4) -0.00766(4) 0.74884(4)
Zn2_3 Zn -0.03365(4) 0.99234(4) -0.25116(4)
Zn2_4 Zn 0.96635(4) -0.00766(4) -0.25116(4)
Zn2A_2 Zn 0.03365(4) 1.00766(4) 1.25116(4)
Zn2A_3 Zn 1.03365(4) 0.00766(4) 1.25116(4)
Zn2A_4 Zn 1.03365(4) 1.00766(4) 0.25116(4)
loop_
_geom_bond_atom_site_label_1
_geom_bond_atom_site_label_2
_geom_bond_site_symmetry_1
_geom_bond_site_symmetry_2
C1 H1 1_555 1_555
C2 C1 1_555 1_555
H2 C2 1_555 1_555
C3 C2 1_555 1_555
H3 C3 1_555 1_555
C4 C3 1_555 1_555
C5 C4 1_555 1_555
H4 C5 1_555 1_555
C6 C4 1_555 1_555
C7 C6 1_555 1_555
H5 C7 1_555 1_555
C8 C9 1_555 1_555
C9 H6 1_555 1_555
C10 C9 1_555 1_555
H7 C10 1_555 1_555
C11 C10 1_555 1_555
H8 C11 1_555 1_555
C12 C11 1_555 1_555
H9 C12 1_555 1_555
C13 C14 1_555 1_555
C14 C15 1_555 1_555
C15 H10 1_555 1_555
C16 C15 1_555 1_555
H11 C16 1_555 1_555
C17 C16 1_555 1_555
C18 C17 1_555 1_555
H12 C18 1_555 1_555
C19 C14 1_555 1_555
H13 C19 1_555 1_555
C20 C17 1_555 1_555
C21 C22 1_555 1_555
C22 C23 1_555 1_555
C23 H14 1_555 1_555
C24 C22 1_555 1_555
H15 C24 1_555 1_555
N1 C1 1_555 1_555
N2 C7 1_555 1_555
N3 C6 1_555 1_555
O1 C13 1_555 1_555
O2 C13 1_555 1_555
O3 C20 1_555 1_555
O4 C20 1_555 1_555
O5 C21 1_555 1_555
O6 C21 1_555 1_555
O7 Zn1 1_555 1_555
Zn1 N1 1_555 1_555
Zn2 O6 1_555 1_555
H16 O7 1_555 1_555
C21A C22A 1_555 1_555
C22A C23A 1_555 1_555
C23A C24 1_555 1_555
H14A C23A 1_555 1_555
C24A C23 1_555 1_555
H15A C24A 1_555 1_555
O5A C21A 1_555 1_555
O6A C21A 1_555 1_555
C1A H1A 1_555 1_555
C2A C1A 1_555 1_555
H2A C2A 1_555 1_555
C3A C2A 1_555 1_555
H3A C3A 1_555 1_555
C4A C3A 1_555 1_555
C5A C4A 1_555 1_555
H4A C5A 1_555 1_555
C6A C4A 1_555 1_555
C7A C6A 1_555 1_555
H5A C7A 1_555 1_555
C8A C9A 1_555 1_555
C9A H6A 1_555 1_555
C10A C9A 1_555 1_555
H7A C10A 1_555 1_555
C11A C10A 1_555 1_555
H8A C11A 1_555 1_555
C12A C11A 1_555 1_555
H9A C12A 1_555 1_555
C13A C14A 1_555 1_555
C14A C15A 1_555 1_555
C15A H10A 1_555 1_555
C16A C15A 1_555 1_555
H11A C16A 1_555 1_555
C17A C16A 1_555 1_555
C18A C17A 1_555 1_555
H12A C18A 1_555 1_555
C19A C14A 1_555 1_555
H13A C19A 1_555 1_555
C20A C17A 1_555 1_555
N1A C1A 1_555 1_555
N2A C7A 1_555 1_555
N3A C6A 1_555 1_555
O1A C13A 1_555 1_555
O2A C13A 1_555 1_555
O3A C20A 1_555 1_555
O4A C20A 1_555 1_555
O7A Zn1A 1_555 1_555
Zn1A O5A 1_555 1_555
Zn2A O6A 1_555 1_555
H16A O7A 1_555 1_555
N2_2 Zn2 1_555 1_555
N2A_2 Zn2A 1_555 1_555
O4_2 Zn2 1_555 1_555
O4A_2 Zn2A 1_555 1_555
O7_2 Zn1A 1_555 1_555
O7A_2 Zn1 1_555 1_555
Zn1_2 O7A 1_555 1_555
Zn1A_2 O7 1_555 1_555
Zn2_2 O7A 1_555 1_555
Zn2_3 O4 1_555 1_555
Zn2_4 N2 1_555 1_555
Zn2A_2 N2A 1_555 1_555
Zn2A_3 O4A 1_555 1_555
Zn2A_4 O7 1_555 1_555
C5 N1 1_555 1_555
C8 N2 1_555 1_555
C8 N3 1_555 1_555
C12 N3 1_555 1_555
C18 C19 1_555 1_555
O1 Zn1 1_555 1_555
O2 Zn1 1_555 1_555
O5 Zn1 1_555 1_555
Zn2 O7A_2 1_555 1_555
C22A C24A 1_555 1_555
C5A N1A 1_555 1_555
C8A N2A 1_555 1_555
C8A N3A 1_555 1_555
C12A N3A 1_555 1_555
C18A C19A 1_555 1_555
N1A Zn1A 1_555 1_555
O1A Zn1A 1_555 1_555
O2A Zn1A 1_555 1_555
Zn2A O7_2 1_555 1_555
O7_2 Zn1_2 1_555 1_555
O7A_2 Zn1A_2 1_555 1_555

#END
