
#######################################################################
#
#                 Cambridge Crystallographic Data Centre
#                                CCDC 
#
#######################################################################
#
# If this CIF has been generated from an entry in the Cambridge 
# Structural Database, then it will include bibliographic, chemical, 
# crystal, experimental, refinement or atomic coordinate data resulting 
# from the CCDC's data processing and validation procedures.
#
#######################################################################

data_QOKCID
_symmetry_cell_setting           monoclinic
_symmetry_space_group_name_H-M   'C 2/c'
_symmetry_Int_Tables_number      15
_space_group_name_Hall           '-C 2yn'
loop_
_symmetry_equiv_pos_site_id
_symmetry_equiv_pos_as_xyz
1 x,y,z
2 1/2+x,1/2+y,z
3 -x,y,1/2-z
4 1/2-x,1/2+y,1/2-z
5 -x,-y,-z
6 1/2-x,1/2-y,-z
7 x,-y,1/2+z
8 1/2+x,1/2-y,1/2+z
_cell_length_a                   18.392(4)
_cell_length_b                   16.462(4)
_cell_length_c                   7.6238(17)
_cell_angle_alpha                90
_cell_angle_beta                 95.587(5)
_cell_angle_gamma                90
_cell_volume                     2297.29
loop_
_atom_site_label
_atom_site_type_symbol
_atom_site_fract_x
_atom_site_fract_y
_atom_site_fract_z
C1 C 0.1740(2) 0.1583(3) 1.1292(6)
C2 C 0.1823(2) 0.2404(3) 1.1768(6)
H1 H 0.2021 0.2550 1.2892
C3 C 0.1605(2) 0.2985(3) 1.0539(6)
C4 C 0.1296(2) 0.2787(3) 0.8855(6)
H2 H 0.1157 0.3192 0.8039
C5 C 0.1201(2) 0.1974(3) 0.8419(6)
C6 C 0.1420(2) 0.1360(3) 0.9632(6)
H3 H 0.1353 0.0815 0.9335
C7 C 0.2003(3) 0.0934(3) 1.2565(7)
C8 C 0.0689(2) 0.2242(2) 0.5490(6)
H4 H 0.1119 0.2523 0.5160
H5 H 0.0348 0.2642 0.5862
C9 C 0.0337(2) 0.1751(3) 0.3945(6)
C10 C 0.0345(2) 0.0908(3) 0.3926(6)
H6 H 0.0582 0.0627 0.4873
C11 C 0.0000 0.0477(4) 0.2500
H7 H 0.0000 -0.0088 0.2500
C12 C 0.0000 0.2168(4) 0.2500
H8 H 0.0000 0.2733 0.2500
C13 C 0.1719(2) 0.3869(3) 1.1037(7)
O1 O 0.22514(17) 0.1162(2) 1.4097(4)
O2 O 0.19818(16) 0.01994(19) 1.2128(4)
O3 O 0.17640(17) 0.4026(2) 1.2637(5)
O4 O 0.17551(16) 0.43679(18) 0.9802(4)
O5 O 0.08836(16) 0.16808(17) 0.6868(4)
Zn1 Zn 0.26600(3) 0.03122(3) 1.56318(7)
C1B C -0.1740(2) 0.1583(3) -0.6292(6)
C2B C -0.1823(2) 0.2404(3) -0.6768(6)
H1B H -0.2021 0.2550 -0.7892
C3B C -0.1605(2) 0.2985(3) -0.5539(6)
C4B C -0.1296(2) 0.2787(3) -0.3855(6)
H2B H -0.1157 0.3192 -0.3039
C5B C -0.1201(2) 0.1974(3) -0.3419(6)
C6B C -0.1420(2) 0.1360(3) -0.4632(6)
H3B H -0.1353 0.0815 -0.4335
C7B C -0.2003(3) 0.0934(3) -0.7565(7)
C8B C -0.0689(2) 0.2242(2) -0.0490(6)
H4B H -0.1119 0.2523 -0.0160
H5B H -0.0348 0.2642 -0.0862
C9B C -0.0337(2) 0.1751(3) 0.1055(6)
C10B C -0.0345(2) 0.0908(3) 0.1074(6)
H6B H -0.0582 0.0627 0.0127
C13B C -0.1719(2) 0.3869(3) -0.6037(7)
O1B O -0.22514(17) 0.1162(2) -0.9097(4)
O2B O -0.19818(16) 0.01994(19) -0.7128(4)
O2F O 0.19818(16) -0.01994(19) 1.7128(4)
O2D O -0.19818(16) -0.01994(19) -1.2128(4)
O3B O -0.17640(17) 0.4026(2) -0.7637(5)
O3E O 0.32360(17) 0.0974(2) 1.7363(5)
O3G O -0.32360(17) 0.0974(2) -1.2363(5)
O4B O -0.17551(16) 0.43679(18) -0.4802(4)
O4C O 0.32449(16) -0.06321(18) 1.5198(4)
O4A O -0.32449(16) -0.06321(18) -1.0198(4)
O5B O -0.08836(16) 0.16808(17) -0.1868(4)
Zn1B Zn -0.26600(3) 0.03122(3) -1.06318(7)
Zn1F Zn 0.26600(3) -0.03122(3) 1.06318(7)
Zn1E Zn 0.23400(3) 0.46878(3) 1.43682(7)
Zn1C Zn 0.23400(3) 0.53122(3) 0.93682(7)
Zn1D Zn -0.26600(3) -0.03122(3) -0.56318(7)
Zn1G Zn -0.23400(3) 0.46878(3) -0.93682(7)
Zn1A Zn -0.23400(3) 0.53122(3) -0.43682(7)
O6 O 0.0000 0.5069(5) 0.2500
H10 H 0.0255 0.5023 0.1633
H10B H -0.0255 0.5023 0.3367
O7 O 0.0797(10) 0.5768(11) 1.029(2)
H11 H 0.0529 0.6067 0.9582
H12 H 0.0999 0.5405 0.9708
H9? H 0.0026 0.5554 0.2882
loop_
_geom_bond_atom_site_label_1
_geom_bond_atom_site_label_2
_geom_bond_site_symmetry_1
_geom_bond_site_symmetry_2
C1 C2 1_555 1_555
C2 H1 1_555 1_555
C3 C2 1_555 1_555
C4 C3 1_555 1_555
H2 C4 1_555 1_555
C5 C4 1_555 1_555
C6 C1 1_555 1_555
H3 C6 1_555 1_555
C7 C1 1_555 1_555
C8 H4 1_555 1_555
H5 C8 1_555 1_555
C9 C8 1_555 1_555
C10 C9 1_555 1_555
H6 C10 1_555 1_555
C11 C10 1_555 1_555
H7 C11 1_555 1_555
C12 C9 1_555 1_555
H8 C12 1_555 1_555
C13 C3 1_555 1_555
O1 C7 1_555 1_555
O2 C7 1_555 1_555
O3 C13 1_555 1_555
O4 C13 1_555 1_555
O5 C5 1_555 1_555
O6 H10 1_555 1_555
O7 H11 1_555 1_555
H12 O7 1_555 1_555
Zn1 O1 1_555 1_555
C1B C2B 1_555 1_555
C2B H1B 1_555 1_555
C3B C2B 1_555 1_555
C4B C3B 1_555 1_555
H2B C4B 1_555 1_555
C5B C4B 1_555 1_555
C6B C1B 1_555 1_555
H3B C6B 1_555 1_555
C7B C1B 1_555 1_555
C8B H4B 1_555 1_555
H5B C8B 1_555 1_555
C9B C12 1_555 1_555
C10B C11 1_555 1_555
H6B C10B 1_555 1_555
C13B C3B 1_555 1_555
O1B C7B 1_555 1_555
O2B C7B 1_555 1_555
O2F Zn1 1_555 1_555
O2D Zn1B 1_555 1_555
O3B C13B 1_555 1_555
O3E Zn1 1_555 1_555
O3G Zn1B 1_555 1_555
O4B C13B 1_555 1_555
O4C Zn1 1_555 1_555
O4A Zn1B 1_555 1_555
O5B C5B 1_555 1_555
H10B O6 1_555 1_555
Zn1B O1B 1_555 1_555
Zn1F O2 1_555 1_555
Zn1E O3 1_555 1_555
Zn1C O4 1_555 1_555
Zn1D O2B 1_555 1_555
Zn1G O3B 1_555 1_555
Zn1A O4B 1_555 1_555
C5 C6 1_555 1_555
C8 O5 1_555 1_555
C5B C6B 1_555 1_555
C8B C9B 1_555 1_555
C8B O5B 1_555 1_555
C9B C10B 1_555 1_555

#END
