
#######################################################################
#
#                 Cambridge Crystallographic Data Centre
#                                CCDC 
#
#######################################################################
#
# If this CIF has been generated from an entry in the Cambridge 
# Structural Database, then it will include bibliographic, chemical, 
# crystal, experimental, refinement or atomic coordinate data resulting 
# from the CCDC's data processing and validation procedures.
#
#######################################################################

data_QOKCOK
_symmetry_cell_setting           rhombohedral
_symmetry_space_group_name_H-M   'R -3'
_symmetry_Int_Tables_number      148
_space_group_name_Hall           '-R 3'
loop_
_symmetry_equiv_pos_site_id
_symmetry_equiv_pos_as_xyz
1 x,y,z
2 -y,x-y,z
3 -x+y,-x,z
4 2/3+x,1/3+y,1/3+z
5 2/3-y,1/3+x-y,1/3+z
6 2/3-x+y,1/3-x,1/3+z
7 1/3+x,2/3+y,2/3+z
8 1/3-y,2/3+x-y,2/3+z
9 1/3-x+y,2/3-x,2/3+z
10 -x,-y,-z
11 y,-x+y,-z
12 x-y,x,-z
13 1/3-x,2/3-y,2/3-z
14 1/3+y,2/3-x+y,2/3-z
15 1/3+x-y,2/3+x,2/3-z
16 2/3-x,1/3-y,1/3-z
17 2/3+y,1/3-x+y,1/3-z
18 2/3+x-y,1/3+x,1/3-z
_cell_length_a                   28.4090(8)
_cell_length_b                   28.4090(8)
_cell_length_c                   18.2259(11)
_cell_angle_alpha                90
_cell_angle_beta                 90
_cell_angle_gamma                120
_cell_volume                     12738.9
loop_
_atom_site_label
_atom_site_type_symbol
_atom_site_fract_x
_atom_site_fract_y
_atom_site_fract_z
Cu1 Cu 0.31018(2) 0.05366(2) 0.27256(3)
Cu2 Cu 0.233168(19) 0.10322(2) 0.20579(3)
Cu3 Cu 0.18955(2) -0.03254(2) 0.20306(4)
O1 O 0.36403(11) 0.04626(12) 0.15852(17)
O2 O 0.38676(11) 0.06728(11) 0.27534(17)
C1 C 0.39675(16) 0.06175(16) 0.2087(3)
O3 O 0.23653(11) 0.04037(12) 0.24643(19)
N1 N 0.28062(13) -0.02331(14) 0.2851(2)
N2 N 0.30338(14) 0.15094(14) 0.2485(2)
N3 N 0.33602(14) 0.13070(14) 0.2701(2)
O4 O 0.25512(12) -0.02032(13) 0.10187(19)
N4 N 0.16914(14) 0.05207(14) 0.1502(2)
C2 C 0.45447(15) 0.07554(16) 0.1918(2)
N5 N 0.15500(15) -0.00072(14) 0.1429(2)
N6 N 0.22801(14) -0.06026(14) 0.2614(2)
C3 C 0.48898(17) 0.11860(17) 0.1466(3)
C4 C 0.38491(18) 0.17279(17) 0.2850(3)
H1 H 0.4148 0.1701 0.2998
C5 C 0.47306(17) 0.04125(19) 0.2169(3)
H2 H 0.4510 0.0116 0.2464
C6 C 0.33243(17) 0.20471(17) 0.2524(2)
H3 H 0.3196 0.2282 0.2413
C7 C 0.1202(2) -0.0219(2) 0.0886(4)
H4 H 0.1034 -0.0583 0.0749
C8 C 0.38486(18) 0.22068(18) 0.2754(3)
H5 H 0.4135 0.2559 0.2826
C9 C 0.3003(2) -0.0516(2) 0.3179(3)
H6 H 0.3350 -0.0368 0.3378
C10 C 0.1426(2) 0.06378(19) 0.0990(4)
H7 H 0.1443 0.0972 0.0939
C11 C 0.2610(2) -0.1071(2) 0.3182(3)
H8 H 0.2639 -0.1356 0.3386
C12 C 0.2173(2) -0.1100(2) 0.2816(3)
H9 H 0.1849 -0.1419 0.2723
C13 C 0.1113(2) 0.01736(19) 0.0535(3)
H10 H 0.0907 0.0139 0.0121
O5 O 0.1348(3) -0.0304(3) 0.3245(3)
O6 O 0.2907(6) 0.0616(6) 0.4194(8)
C14 C 0.54083(17) 0.12625(17) 0.1319(3)
H11 H 0.5645 0.1559 0.1035
C15 C 0.52449(18) 0.05170(19) 0.1975(3)
H12 H 0.5360 0.0282 0.2143
N7 N 0.55785(15) 0.09323(16) 0.1565(3)
C16 C 0.47547(17) 0.16041(18) 0.1157(3)
O7 O 0.44467(11) 0.16920(11) 0.15292(18)
O8 O 0.49596(19) 0.1815(2) 0.0539(3)
C17 C 0.2542(6) 0.0151(6) 0.4540(7)
Cu2O Cu 0.433499(19) 0.23011(2) 0.12754(3)
Cu3P Cu 0.63413(2) 0.11124(3) 0.13027(4)
N7Q N 0.13129(22) -0.10882(15) 0.1768(3)
O7O O 0.22200(11) 0.16413(11) 0.18041(18)
loop_
_geom_bond_atom_site_label_1
_geom_bond_atom_site_label_2
_geom_bond_site_symmetry_1
_geom_bond_site_symmetry_2
Cu1 O1 1_555 1_555
Cu2 O3 1_555 1_555
Cu3 O3 1_555 1_555
O1 C1 1_555 1_555
O2 Cu1 1_555 1_555
C1 O2 1_555 1_555
O3 Cu1 1_555 1_555
N1 Cu1 1_555 1_555
N2 Cu2 1_555 1_555
N3 Cu1 1_555 1_555
O4 Cu3 1_555 1_555
N4 Cu2 1_555 1_555
C2 C1 1_555 1_555
N5 Cu3 1_555 1_555
N6 Cu3 1_555 1_555
C3 C2 1_555 1_555
C4 N3 1_555 1_555
H1 C4 1_555 1_555
C5 C2 1_555 1_555
H2 C5 1_555 1_555
C6 N2 1_555 1_555
H3 C6 1_555 1_555
C7 N5 1_555 1_555
H4 C7 1_555 1_555
C8 C4 1_555 1_555
H5 C8 1_555 1_555
C9 N1 1_555 1_555
H6 C9 1_555 1_555
C10 N4 1_555 1_555
H7 C10 1_555 1_555
C11 C9 1_555 1_555
H8 C11 1_555 1_555
C12 N6 1_555 1_555
H9 C12 1_555 1_555
C13 C7 1_555 1_555
H10 C13 1_555 1_555
O5 Cu3 1_555 1_555
O6 Cu1 1_555 1_555
C14 C3 1_555 1_555
H11 C14 1_555 1_555
C15 C5 1_555 1_555
H12 C15 1_555 1_555
N7 C14 1_555 1_555
C16 C3 1_555 1_555
O7 C16 1_555 1_555
O8 C16 1_555 1_555
C17 O6 1_555 1_555
Cu2O O7 1_555 1_555
Cu3P N7 1_555 1_555
N7Q Cu3 1_555 1_555
O7O Cu2 1_555 1_555
N1 N6 1_555 1_555
N2 N3 1_555 1_555
N4 N5 1_555 1_555
C6 C8 1_555 1_555
C10 C13 1_555 1_555
C11 C12 1_555 1_555
C15 N7 1_555 1_555

#END
