
#######################################################################
#
#                 Cambridge Crystallographic Data Centre
#                                CCDC 
#
#######################################################################
#
# If this CIF has been generated from an entry in the Cambridge 
# Structural Database, then it will include bibliographic, chemical, 
# crystal, experimental, refinement or atomic coordinate data resulting 
# from the CCDC's data processing and validation procedures.
#
#######################################################################

data_QOKGII
_symmetry_cell_setting           monoclinic
_symmetry_space_group_name_H-M   'P 21/n'
_symmetry_Int_Tables_number      14
_space_group_name_Hall           '-P 2yn'
loop_
_symmetry_equiv_pos_site_id
_symmetry_equiv_pos_as_xyz
1 x,y,z
2 1/2-x,1/2+y,1/2-z
3 -x,-y,-z
4 1/2+x,1/2-y,1/2+z
_cell_length_a                   10.756(4)
_cell_length_b                   10.542(4)
_cell_length_c                   18.338(6)
_cell_angle_alpha                90
_cell_angle_beta                 97.22(3)
_cell_angle_gamma                90
_cell_volume                     2062.85
loop_
_atom_site_label
_atom_site_type_symbol
_atom_site_fract_x
_atom_site_fract_y
_atom_site_fract_z
C1 C -0.0228(5) 0.2427(7) 0.3495(4)
H1 H -0.0519 0.2509 0.2980
H2 H -0.0081 0.3254 0.3707
H3 H -0.0849 0.1995 0.3735
C2 C 0.2309(6) 0.1072(7) 0.4563(3)
H4 H 0.2914 0.0428 0.4494
H5 H 0.1765 0.0774 0.4903
H6 H 0.2735 0.1824 0.4756
C3 C 0.2261(7) 0.5390(7) 0.4788(3)
H7 H 0.1673 0.4713 0.4670
H8 H 0.1821 0.6138 0.4910
H9 H 0.2853 0.5148 0.5201
C4 C 0.4340(8) 0.7118(7) 0.3962(4)
H10 H 0.5064 0.6927 0.4306
H11 H 0.3960 0.7887 0.4107
H12 H 0.4586 0.7224 0.3480
C5 C 0.2947(6) 0.1038(5) 0.2526(3)
C6 C 0.4126(5) 0.1159(5) 0.3052(3)
C7 C 0.4976(7) 0.0195(7) 0.3036(4)
H13 H 0.4809 -0.0473 0.2707
C8 C 0.6087(7) 0.0215(8) 0.3512(5)
H14 H 0.6650 -0.0456 0.3521
C9 C 0.6344(6) 0.1232(9) 0.3965(4)
H15 H 0.7091 0.1250 0.4281
C10 C 0.5533(6) 0.2221(7) 0.3965(3)
H16 H 0.5738 0.2924 0.4263
C11 C 0.4389(5) 0.2167(6) 0.3515(3)
C12 C 0.3494(6) 0.3238(6) 0.3567(3)
C13 C 0.0377(7) -0.1196(8) 0.4042(4)
H17 H 0.0929 -0.1070 0.4468
C14 C -0.0353(7) -0.2251(8) 0.4003(5)
H18 H -0.0309 -0.2808 0.4399
C15 C -0.1148(7) -0.2484(6) 0.3382(4)
C16 C -0.1166(6) -0.1642(7) 0.2831(4)
H19 H -0.1695 -0.1771 0.2395
C17 C -0.0404(6) -0.0587(7) 0.2907(4)
H20 H -0.0427 -0.0027 0.2514
C18 C -0.1972(7) -0.3650(8) 0.3322(5)
H21 H -0.1823 -0.4131 0.3770
H22 H -0.1782 -0.4163 0.2918
H23 H -0.2836 -0.3398 0.3241
N1 N 0.0361(4) -0.0331(5) 0.3515(3)
O1 O 0.1885(4) 0.0966(4) 0.27439(19)
O2 O 0.3068(4) 0.0931(4) 0.1853(2)
O3 O 0.2330(4) 0.3068(4) 0.3458(2)
O4 O 0.3977(3) 0.4322(4) 0.3722(2)
Al1 Al 0.13204(16) 0.14617(19) 0.36207(10)
Al2 Al 0.31444(19) 0.57360(18) 0.39469(10)
O2A O 0.1932(4) 0.5931(4) 0.3147(2)
Al2A Al 0.18556(19) 0.07360(18) 0.10531(10)
loop_
_geom_bond_atom_site_label_1
_geom_bond_atom_site_label_2
_geom_bond_site_symmetry_1
_geom_bond_site_symmetry_2
C1 H1 1_555 1_555
H2 C1 1_555 1_555
H3 C1 1_555 1_555
C2 H4 1_555 1_555
H5 C2 1_555 1_555
H6 C2 1_555 1_555
C3 H7 1_555 1_555
H8 C3 1_555 1_555
H9 C3 1_555 1_555
C4 H10 1_555 1_555
H11 C4 1_555 1_555
H12 C4 1_555 1_555
C5 C6 1_555 1_555
C6 C7 1_555 1_555
C7 H13 1_555 1_555
C8 C7 1_555 1_555
H14 C8 1_555 1_555
C9 C8 1_555 1_555
H15 C9 1_555 1_555
C10 C9 1_555 1_555
H16 C10 1_555 1_555
C11 C6 1_555 1_555
C12 C11 1_555 1_555
C13 H17 1_555 1_555
C14 C13 1_555 1_555
H18 C14 1_555 1_555
C15 C14 1_555 1_555
C16 C15 1_555 1_555
H19 C16 1_555 1_555
C17 C16 1_555 1_555
H20 C17 1_555 1_555
C18 C15 1_555 1_555
H21 C18 1_555 1_555
H22 C18 1_555 1_555
H23 C18 1_555 1_555
N1 C13 1_555 1_555
O1 C5 1_555 1_555
O2 C5 1_555 1_555
O3 C12 1_555 1_555
O4 C12 1_555 1_555
Al1 C1 1_555 1_555
Al2 C3 1_555 1_555
O2A Al2 1_555 1_555
Al2A O2 1_555 1_555
C2 Al1 1_555 1_555
C4 Al2 1_555 1_555
C10 C11 1_555 1_555
C17 N1 1_555 1_555
N1 Al1 1_555 1_555
O1 Al1 1_555 1_555
O3 Al1 1_555 1_555
O4 Al2 1_555 1_555

#END
