
#######################################################################
#
#                 Cambridge Crystallographic Data Centre
#                                CCDC 
#
#######################################################################
#
# If this CIF has been generated from an entry in the Cambridge 
# Structural Database, then it will include bibliographic, chemical, 
# crystal, experimental, refinement or atomic coordinate data resulting 
# from the CCDC's data processing and validation procedures.
#
#######################################################################

data_QOKHED
_symmetry_cell_setting           triclinic
_symmetry_space_group_name_H-M   'P -1'
_symmetry_Int_Tables_number      2
_space_group_name_Hall           '-P 1'
loop_
_symmetry_equiv_pos_site_id
_symmetry_equiv_pos_as_xyz
1 x,y,z
2 -x,-y,-z
_cell_length_a                   8.679(2)
_cell_length_b                   8.721(2)
_cell_length_c                   8.978(2)
_cell_angle_alpha                82.50(3)
_cell_angle_beta                 73.78(3)
_cell_angle_gamma                70.24(3)
_cell_volume                     613.582
loop_
_atom_site_label
_atom_site_type_symbol
_atom_site_fract_x
_atom_site_fract_y
_atom_site_fract_z
N2 N 0.5384(23) -0.3577(25) 0.5252(16)
C2 C 0.6303(23) -0.5258(25) 0.5588(18)
C4 C 0.4121(24) -0.3526(25) 0.4681(23)
H1 H 0.7225(23) -0.5475(25) 0.6008(18)
H3 H 0.3449(24) -0.2492(25) 0.4440(23)
C4A C 0.5879(24) -0.6474(25) 0.5319(23)
N2A N 0.4616(23) -0.6423(25) 0.4748(16)
C2A C 0.3697(23) -0.4742(25) 0.4412(18)
H1A H 0.2775(23) -0.4525(25) 0.3992(18)
H3A H 0.6551(24) -0.7508(25) 0.5560(23)
Ti1 Ti 1.0000 0.0000 0.0000
O1 O 0.9974(8) -0.0564(8) -0.1900(7)
O2 O 0.9869(8) -0.2049(8) 0.0870(6)
N1 N 0.7243(11) 0.0987(11) 0.0565(9)
C1 C 0.9995(12) -0.0275(12) -0.3414(11)
C3 C 0.9722(12) -0.1373(12) -0.4249(10)
C5 C 1.0261(12) 0.1064(12) -0.4204(11)
C6 C 0.9933(12) -0.3493(11) 0.0426(11)
C7 C 0.9006(12) -0.4359(11) 0.1383(11)
C8 C 1.1000(12) -0.4171(12) -0.1010(11)
C9 C 0.6248(13) 0.0411(15) 0.1686(13)
C10 C 0.4578(18) 0.0874(19) 0.1965(12)
C11 C 0.3737(17) 0.2179(18) 0.1064(13)
C12 C 0.4772(12) 0.2843(14) -0.0050(12)
C13 C 0.6463(12) 0.2246(13) -0.0273(12)
H2 H 0.9528(12) -0.2319(12) -0.3751(10)
H4 H 1.0441(12) 0.1818(12) -0.3685(11)
H5 H 0.8342(12) -0.3940(11) 0.2338(11)
H6 H 1.1689(12) -0.3624(12) -0.1682(11)
H7 H 0.6749(13) -0.0394(15) 0.2349(13)
H8 H 0.3960(18) 0.0347(19) 0.2748(12)
H9 H 0.2567(17) 0.2550(18) 0.1223(13)
H10 H 0.4306(12) 0.3724(14) -0.0668(12)
H11 H 0.7127(12) 0.2735(13) -0.1051(12)
C5A C 0.9739(12) -0.1064(12) -0.5796(11)
C1A C 1.0005(12) 0.0275(12) -0.6586(11)
O1A O 1.0026(8) 0.0564(8) -0.8100(7)
C3A C 1.0278(12) 0.1373(12) -0.5751(10)
H2A H 1.0472(12) 0.2319(12) -0.6249(10)
H4A H 0.9559(12) -0.1818(12) -0.6315(11)
C8A C 0.9000(12) -0.5829(12) 0.1010(11)
C6A C 1.0067(12) -0.6507(11) -0.0426(11)
O2A O 1.0131(8) -0.7951(8) -0.0870(6)
C7A C 1.0994(12) -0.5641(11) -0.1383(11)
H5A H 1.1658(12) -0.6060(11) -0.2338(11)
H6A H 0.8311(12) -0.6376(12) 0.1682(11)
N1A N 1.2757(11) -0.0987(11) -0.0565(9)
C9A C 1.3752(13) -0.0411(15) -0.1686(13)
C10A C 1.5422(18) -0.0874(19) -0.1965(12)
C11A C 1.6263(17) -0.2179(18) -0.1064(13)
C12A C 1.5228(12) -0.2843(14) 0.0050(12)
C13A C 1.3537(12) -0.2246(13) 0.0273(12)
H7A H 1.3251(13) 0.0394(15) -0.2349(13)
H8A H 1.6040(18) -0.0347(19) -0.2748(12)
H9A H 1.7433(17) -0.2550(18) -0.1223(13)
H10A H 1.5694(12) -0.3724(14) 0.0668(12)
H11A H 1.2873(12) -0.2735(13) 0.1051(12)
O1A_2 O 1.0026(8) 0.0564(8) 0.1900(7)
O2A_2 O 1.0131(8) 0.2049(8) -0.0870(6)
Ti1_2 Ti 1.0000 0.0000 -1.0000
Ti1_3 Ti 1.0000 -1.0000 0.0000
loop_
_geom_bond_atom_site_label_1
_geom_bond_atom_site_label_2
_geom_bond_site_symmetry_1
_geom_bond_site_symmetry_2
Ti1 O1 1_555 1_555
O1 C1 1_555 1_555
O2 Ti1 1_555 1_555
N1 Ti1 1_555 1_555
N2 C2 1_555 1_555
C1 C3 1_555 1_555
C2 H1 1_555 1_555
C3 H2 1_555 1_555
C4 N2 1_555 1_555
C5 C1 1_555 1_555
C6 O2 1_555 1_555
C7 C6 1_555 1_555
C8 C6 1_555 1_555
C9 N1 1_555 1_555
C10 C9 1_555 1_555
C11 C10 1_555 1_555
C12 C11 1_555 1_555
C13 N1 1_555 1_555
H3 C4 1_555 1_555
H4 C5 1_555 1_555
H5 C7 1_555 1_555
H6 C8 1_555 1_555
H7 C9 1_555 1_555
H8 C10 1_555 1_555
H9 C11 1_555 1_555
H10 C12 1_555 1_555
H11 C13 1_555 1_555
C5A C3 1_555 1_555
C1A C5A 1_555 1_555
O1A C1A 1_555 1_555
C3A C5 1_555 1_555
H2A C3A 1_555 1_555
H4A C5A 1_555 1_555
C8A C7 1_555 1_555
C6A C8A 1_555 1_555
O2A C6A 1_555 1_555
C7A C8 1_555 1_555
H5A C7A 1_555 1_555
H6A C8A 1_555 1_555
C4A C2 1_555 1_555
N2A C4A 1_555 1_555
C2A C4 1_555 1_555
H1A C2A 1_555 1_555
H3A C4A 1_555 1_555
N1A Ti1 1_555 1_555
C9A N1A 1_555 1_555
C10A C9A 1_555 1_555
C11A C10A 1_555 1_555
C12A C11A 1_555 1_555
C13A N1A 1_555 1_555
H7A C9A 1_555 1_555
H8A C10A 1_555 1_555
H9A C11A 1_555 1_555
H10A C12A 1_555 1_555
H11A C13A 1_555 1_555
O1A_2 Ti1 1_555 1_555
O2A_2 Ti1 1_555 1_555
Ti1_2 O1A 1_555 1_555
Ti1_3 O2A 1_555 1_555
C12 C13 1_555 1_555
C1A C3A 1_555 1_555
C6A C7A 1_555 1_555
N2A C2A 1_555 1_555
C12A C13A 1_555 1_555

#END
