
#######################################################################
#
#                 Cambridge Crystallographic Data Centre
#                                CCDC 
#
#######################################################################
#
# If this CIF has been generated from an entry in the Cambridge 
# Structural Database, then it will include bibliographic, chemical, 
# crystal, experimental, refinement or atomic coordinate data resulting 
# from the CCDC's data processing and validation procedures.
#
#######################################################################

data_QOKHUT
_symmetry_cell_setting           monoclinic
_symmetry_space_group_name_H-M   'P 21/c'
_symmetry_Int_Tables_number      14
_space_group_name_Hall           '-P 2ybc'
loop_
_symmetry_equiv_pos_site_id
_symmetry_equiv_pos_as_xyz
1 x,y,z
2 -x,1/2+y,1/2-z
3 -x,-y,-z
4 x,1/2-y,1/2+z
_cell_length_a                   12.843(3)
_cell_length_b                   29.449(6)
_cell_length_c                   10.963(2)
_cell_angle_alpha                90
_cell_angle_beta                 96.91(3)
_cell_angle_gamma                90
_cell_volume                     4116.24
loop_
_atom_site_label
_atom_site_type_symbol
_atom_site_fract_x
_atom_site_fract_y
_atom_site_fract_z
Ti1 Ti 1.0000 0.0000 0.0000
Ti2 Ti 0.9835(1) 0.1751(1) 0.4870(1)
O1 O 1.0635(2) 0.0289(1) 0.1423(2)
O2 O 1.0317(2) 0.1147(1) 0.5022(2)
O3 O 1.0281(2) 0.1835(1) -0.3439(2)
O4 O 1.0026(2) 0.0539(1) -0.0915(2)
O5 O 0.9406(2) 0.2359(1) 0.4768(2)
O6 O 0.9344(2) 0.3344(1) 0.8215(2)
N1 N 0.8447(2) 0.0153(1) 0.0530(2)
N2 N 1.1418(2) 0.1934(1) 0.4440(2)
N3 N 0.8291(2) 0.1546(1) 0.5357(2)
C1 C 0.8230(3) 0.0070(1) 0.1677(3)
C2 C 0.7267(3) 0.0140(1) 0.2050(3)
C3 C 0.6444(2) 0.0304(1) 0.1226(3)
C4 C 0.5385(2) 0.0384(1) 0.1597(3)
C5 C 0.5023(3) 0.0134(1) 0.2542(3)
C6 C 0.4024(3) 0.0214(2) 0.2871(4)
C7 C 0.3387(3) 0.0541(2) 0.2280(4)
C8 C 0.3736(3) 0.0787(1) 0.1350(5)
C9 C 0.4731(3) 0.0711(1) 0.1013(4)
C10 C 0.6672(3) 0.0390(1) 0.0043(3)
C11 C 0.7661(2) 0.0311(1) -0.0268(3)
C12 C 1.0774(2) 0.0316(1) 0.2657(2)
C13 C 1.0462(2) 0.0717(1) 0.3200(3)
C14 C 1.0603(2) 0.0766(1) 0.4475(3)
C15 C 1.1056(2) 0.0413(1) 0.5201(3)
C16 C 1.1348(2) 0.0018(1) 0.4651(3)
C17 C 1.1213(2) -0.0037(1) 0.3391(3)
C18 C 1.1741(2) 0.1832(1) 0.3352(3)
C19 C 1.2752(3) 0.1907(1) 0.3108(3)
C20 C 1.3500(2) 0.2092(1) 0.3984(3)
C21 C 1.4608(2) 0.2159(1) 0.3765(3)
C22 C 1.5062(3) 0.1881(1) 0.2948(3)
C23 C 1.6114(3) 0.1933(1) 0.2781(4)
C24 C 1.6715(3) 0.2260(1) 0.3409(4)
C25 C 1.6276(3) 0.2540(1) 0.4208(4)
C26 C 1.5230(3) 0.2490(1) 0.4387(4)
C27 C 1.3148(3) 0.2202(1) 0.5101(3)
C28 C 1.2126(3) 0.2123(1) 0.5288(3)
C29 C 1.0566(2) 0.1607(1) -0.2386(2)
C30 C 1.1230(3) 0.1816(1) -0.1449(3)
C31 C 1.1483(3) 0.1593(1) -0.0357(3)
C32 C 1.1096(3) 0.1167(1) -0.0138(3)
C33 C 1.0437(2) 0.0955(1) -0.1066(3)
C34 C 1.0176(2) 0.1174(1) -0.2189(3)
C35 C 0.7837(2) 0.1792(1) 0.6176(3)
C36 C 0.6860(3) 0.1694(1) 0.6496(3)
C37 C 0.6297(2) 0.1325(1) 0.5976(3)
C38 C 0.5220(3) 0.1228(1) 0.6279(3)
C39 C 0.4927(3) 0.1345(1) 0.7423(4)
C40 C 0.3908(3) 0.1274(2) 0.7674(4)
C41 C 0.3163(3) 0.1092(1) 0.6808(4)
C42 C 0.3449(3) 0.0971(1) 0.5675(4)
C43 C 0.4465(3) 0.1038(1) 0.5418(4)
C44 C 0.6779(3) 0.1071(1) 0.5128(3)
C45 C 0.7756(2) 0.1189(1) 0.4844(3)
C46 C 0.8663(2) 0.3088(1) 0.4513(3)
C47 C 0.8350(2) 0.3492(1) 0.5007(3)
C48 C 0.8542(2) 0.3573(1) 0.6260(3)
C49 C 0.9077(2) 0.3249(1) 0.7022(2)
C50 C 0.9373(2) 0.2837(1) 0.6534(3)
C51 C 0.9160(2) 0.2756(1) 0.5274(2)
H1 H 0.8812(24) -0.0060(9) 0.2179(28)
H2 H 0.7183(22) 0.0077(9) 0.2882(27)
H3 H 0.5421(27) -0.0103(11) 0.2928(31)
H4 H 0.3820(32) 0.0032(13) 0.3562(37)
H5 H 0.2712(32) 0.0596(12) 0.2517(34)
H6 H 0.3327(32) 0.1016(14) 0.0890(37)
H7 H 0.4966(28) 0.0877(12) 0.0393(33)
H8 H 0.6176(24) 0.0495(10) -0.0507(28)
H9 H 0.7820(20) 0.0356(8) -0.1071(25)
H10 H 1.0180(20) 0.0959(9) 0.2689(23)
H11 H 1.1117(22) 0.0439(9) 0.6039(28)
H12 H 1.1654(25) -0.0227(11) 0.5190(29)
H13 H 1.1377(21) -0.0303(9) 0.2985(24)
H14 H 1.1228(24) 0.1687(9) 0.2730(28)
H15 H 1.2929(25) 0.1838(10) 0.2371(30)
H16 H 1.4673(25) 0.1636(10) 0.2572(28)
H17 H 1.6341(27) 0.1748(11) 0.2235(31)
H18 H 1.7470(29) 0.2283(12) 0.3255(31)
H19 H 1.6700(33) 0.2784(14) 0.4657(37)
H20 H 1.4941(27) 0.2692(11) 0.4939(31)
H21 H 1.3599(26) 0.2322(10) 0.5730(30)
H22 H 1.1888(24) 0.2210(10) 0.6081(29)
H23 H 1.1459(23) 0.2098(10) -0.1568(26)
H24 H 1.1903(25) 0.1754(10) 0.0297(30)
H25 H 1.1267(22) 0.1023(9) 0.0637(27)
H26 H 0.9718(20) 0.1009(8) -0.2799(23)
H27 H 0.8217(24) 0.2052(10) 0.6452(27)
H28 H 0.6590(24) 0.1885(10) 0.7047(29)
H29 H 0.5412(29) 0.1473(12) 0.8012(34)
H30 H 0.3700(30) 0.1354(12) 0.8415(36)
H31 H 0.2425(30) 0.1065(12) 0.6937(33)
H32 H 0.2905(31) 0.0852(13) 0.5060(35)
H33 H 0.4671(25) 0.0973(10) 0.4645(30)
H34 H 0.6432(23) 0.0807(10) 0.4758(27)
H35 H 0.8124(24) 0.1008(10) 0.4264(28)
H36 H 0.8584(22) 0.3023(9) 0.3673(27)
H37 H 0.7974(22) 0.3733(9) 0.4421(26)
H38 H 0.8334(22) 0.3843(10) 0.6596(25)
H39 H 0.9771(21) 0.2607(9) 0.7078(25)
O1B O 0.9365(2) -0.0289(1) -0.1423(2)
O2B O 0.9683(2) -0.1147(1) -0.5022(2)
C12B C 0.9226(2) -0.0316(1) -0.2657(2)
C13B C 0.9538(2) -0.0717(1) -0.3200(3)
C14B C 0.9397(2) -0.0766(1) -0.4475(3)
C15B C 0.8944(2) -0.0413(1) -0.5201(3)
C16B C 0.8652(2) -0.0018(1) -0.4651(3)
C17B C 0.8787(2) 0.0037(1) -0.3391(3)
H10B H 0.9820(20) -0.0959(9) -0.2689(23)
H11B H 0.8883(22) -0.0439(9) -0.6039(28)
H12B H 0.8346(25) 0.0227(11) -0.5190(29)
H13B H 0.8623(21) 0.0303(9) -0.2985(24)
O3B O 0.9719(2) -0.1835(1) 0.3439(2)
O4B O 0.9974(2) -0.0539(1) 0.0915(2)
C29B C 0.9434(2) -0.1607(1) 0.2386(2)
C30B C 0.8770(3) -0.1816(1) 0.1449(3)
C31B C 0.8517(3) -0.1593(1) 0.0357(3)
C32B C 0.8904(3) -0.1167(1) 0.0138(3)
C33B C 0.9563(2) -0.0955(1) 0.1066(3)
C34B C 0.9824(2) -0.1174(1) 0.2189(3)
H23B H 0.8541(23) -0.2098(10) 0.1568(26)
H24B H 0.8097(25) -0.1754(10) -0.0297(30)
H25B H 0.8733(22) -0.1023(9) -0.0637(27)
H26B H 1.0282(20) -0.1009(8) 0.2799(23)
N1B N 1.1553(2) -0.0153(1) -0.0530(2)
C1B C 1.1770(3) -0.0070(1) -0.1677(3)
C2B C 1.2733(3) -0.0140(1) -0.2050(3)
C3B C 1.3556(2) -0.0304(1) -0.1226(3)
C4B C 1.4615(2) -0.0384(1) -0.1597(3)
C5B C 1.4977(3) -0.0134(1) -0.2542(3)
C6B C 1.5976(3) -0.0214(2) -0.2871(4)
C7B C 1.6613(3) -0.0541(2) -0.2280(4)
C8B C 1.6264(3) -0.0787(1) -0.1350(5)
C9B C 1.5269(3) -0.0711(1) -0.1013(4)
C10B C 1.3328(3) -0.0390(1) -0.0043(3)
C11B C 1.2339(2) -0.0311(1) 0.0268(3)
H1B H 1.1188(24) 0.0060(9) -0.2179(28)
H2B H 1.2817(22) -0.0077(9) -0.2882(27)
H3B H 1.4579(27) 0.0103(11) -0.2928(31)
H4B H 1.6180(32) -0.0032(13) -0.3562(37)
H5B H 1.7288(32) -0.0596(12) -0.2517(34)
H6B H 1.6673(32) -0.1016(14) -0.0890(37)
H7B H 1.5034(28) -0.0877(12) -0.0393(33)
H8B H 1.3824(24) -0.0495(10) 0.0507(28)
H9B H 1.2180(20) -0.0356(8) 0.1071(25)
Ti2B Ti 1.0165(1) -0.1751(1) -0.4870(1)
O5C O 0.9406(2) 0.2641(1) -0.0232(2)
O6C O 0.9344(2) 0.1656(1) 0.3215(2)
C46C C 0.8663(2) 0.1912(1) -0.0487(3)
C47C C 0.8350(2) 0.1508(1) 0.0007(3)
C48C C 0.8542(2) 0.1427(1) 0.1260(3)
C49C C 0.9077(2) 0.1751(1) 0.2022(2)
C50C C 0.9373(2) 0.2163(1) 0.1534(3)
C51C C 0.9160(2) 0.2244(1) 0.0274(2)
H36C H 0.8584(22) 0.1977(9) -0.1327(27)
H37C H 0.7974(22) 0.1267(9) -0.0579(26)
H38C H 0.8334(22) 0.1157(10) 0.1596(25)
H39C H 0.9771(21) 0.2393(9) 0.2078(25)
N2B N 0.8582(2) -0.1934(1) -0.4440(2)
C18B C 0.8259(2) -0.1832(1) -0.3352(3)
C19B C 0.7248(3) -0.1907(1) -0.3108(3)
C20B C 0.6500(2) -0.2092(1) -0.3984(3)
C21B C 0.5392(2) -0.2159(1) -0.3765(3)
C22B C 0.4938(3) -0.1881(1) -0.2948(3)
C23B C 0.3886(3) -0.1933(1) -0.2781(4)
C24B C 0.3285(3) -0.2260(1) -0.3409(4)
C25B C 0.3724(3) -0.2540(1) -0.4208(4)
C26B C 0.4770(3) -0.2490(1) -0.4387(4)
C27B C 0.6852(3) -0.2202(1) -0.5101(3)
C28B C 0.7874(3) -0.2123(1) -0.5288(3)
H14B H 0.8772(24) -0.1687(9) -0.2730(28)
H15B H 0.7071(25) -0.1838(10) -0.2371(30)
H16B H 0.5327(25) -0.1636(10) -0.2572(28)
H17B H 0.3659(27) -0.1748(11) -0.2235(31)
H18B H 0.2530(29) -0.2283(12) -0.3255(31)
H19B H 0.3300(33) -0.2784(14) -0.4657(37)
H20B H 0.5059(27) -0.2692(11) -0.4939(31)
H21B H 0.6401(26) -0.2322(10) -0.5730(30)
H22B H 0.8112(24) -0.2210(10) -0.6081(29)
N3B N 1.1709(2) -0.1546(1) -0.5357(2)
C35B C 1.2163(2) -0.1792(1) -0.6176(3)
C36B C 1.3140(3) -0.1694(1) -0.6496(3)
C37B C 1.3703(2) -0.1325(1) -0.5976(3)
C38B C 1.4780(3) -0.1228(1) -0.6279(3)
C39B C 1.5073(3) -0.1345(1) -0.7423(4)
C40B C 1.6092(3) -0.1274(2) -0.7674(4)
C41B C 1.6837(3) -0.1092(1) -0.6808(4)
C42B C 1.6551(3) -0.0971(1) -0.5675(4)
C43B C 1.5535(3) -0.1038(1) -0.5418(4)
C44B C 1.3221(3) -0.1071(1) -0.5128(3)
C45B C 1.2244(2) -0.1189(1) -0.4844(3)
H27B H 1.1783(24) -0.2052(10) -0.6452(27)
H28B H 1.3410(24) -0.1885(10) -0.7047(29)
H29B H 1.4588(29) -0.1473(12) -0.8012(34)
H30B H 1.6300(30) -0.1354(12) -0.8415(36)
H31B H 1.7575(30) -0.1065(12) -0.6937(33)
H32B H 1.7095(31) -0.0852(13) -0.5060(35)
H33B H 1.5329(25) -0.0973(10) -0.4645(30)
H34B H 1.3568(23) -0.0807(10) -0.4758(27)
H35B H 1.1876(24) -0.1008(10) -0.4264(28)
O3_2 O 1.0281(2) 0.1835(1) 0.6561(2)
Ti2_2 Ti 0.9835(1) 0.1751(1) -0.5130(1)
Ti2C Ti 0.9835(1) 0.3249(1) 0.9870(1)
Ti2B_2 Ti 1.0165(1) -0.1751(1) 0.5130(1)
O3B_2 O 0.9719(2) -0.1835(1) -0.6561(2)
O5B O 1.0594(2) -0.2359(1) -0.4768(2)
O6A O 1.0656(2) -0.1656(1) -0.3215(2)
Ti2C_2 Ti 0.9835(1) 0.3249(1) -0.0130(1)
loop_
_geom_bond_atom_site_label_1
_geom_bond_atom_site_label_2
_geom_bond_site_symmetry_1
_geom_bond_site_symmetry_2
Ti1 O1 1_555 1_555
Ti2 O2 1_555 1_555
O1 C12 1_555 1_555
O2 C14 1_555 1_555
O3 C29 1_555 1_555
O4 Ti1 1_555 1_555
O5 Ti2 1_555 1_555
O6 C49 1_555 1_555
N1 Ti1 1_555 1_555
N2 Ti2 1_555 1_555
N3 Ti2 1_555 1_555
C1 N1 1_555 1_555
C2 C1 1_555 1_555
C3 C2 1_555 1_555
C4 C3 1_555 1_555
C5 C4 1_555 1_555
C6 C5 1_555 1_555
C7 C6 1_555 1_555
C8 C7 1_555 1_555
C9 C4 1_555 1_555
C10 C3 1_555 1_555
C11 N1 1_555 1_555
C12 C13 1_555 1_555
C13 C14 1_555 1_555
C14 C15 1_555 1_555
C15 C16 1_555 1_555
C16 C17 1_555 1_555
C17 C12 1_555 1_555
C18 N2 1_555 1_555
C19 C18 1_555 1_555
C20 C19 1_555 1_555
C21 C20 1_555 1_555
C22 C21 1_555 1_555
C23 C22 1_555 1_555
C24 C23 1_555 1_555
C25 C24 1_555 1_555
C26 C21 1_555 1_555
C27 C20 1_555 1_555
C28 N2 1_555 1_555
C29 C30 1_555 1_555
C30 C31 1_555 1_555
C31 C32 1_555 1_555
C32 C33 1_555 1_555
C33 O4 1_555 1_555
C34 C29 1_555 1_555
C35 N3 1_555 1_555
C36 C35 1_555 1_555
C37 C36 1_555 1_555
C38 C37 1_555 1_555
C39 C38 1_555 1_555
C40 C39 1_555 1_555
C41 C40 1_555 1_555
C42 C41 1_555 1_555
C43 C38 1_555 1_555
C44 C37 1_555 1_555
C45 N3 1_555 1_555
C46 C47 1_555 1_555
C47 C48 1_555 1_555
C48 C49 1_555 1_555
C49 C50 1_555 1_555
C50 C51 1_555 1_555
C51 O5 1_555 1_555
H1 C1 1_555 1_555
H2 C2 1_555 1_555
H3 C5 1_555 1_555
H4 C6 1_555 1_555
H5 C7 1_555 1_555
H6 C8 1_555 1_555
H7 C9 1_555 1_555
H8 C10 1_555 1_555
H9 C11 1_555 1_555
H10 C13 1_555 1_555
H11 C15 1_555 1_555
H12 C16 1_555 1_555
H13 C17 1_555 1_555
H14 C18 1_555 1_555
H15 C19 1_555 1_555
H16 C22 1_555 1_555
H17 C23 1_555 1_555
H18 C24 1_555 1_555
H19 C25 1_555 1_555
H20 C26 1_555 1_555
H21 C27 1_555 1_555
H22 C28 1_555 1_555
H23 C30 1_555 1_555
H24 C31 1_555 1_555
H25 C32 1_555 1_555
H26 C34 1_555 1_555
H27 C35 1_555 1_555
H28 C36 1_555 1_555
H29 C39 1_555 1_555
H30 C40 1_555 1_555
H31 C41 1_555 1_555
H32 C42 1_555 1_555
H33 C43 1_555 1_555
H34 C44 1_555 1_555
H35 C45 1_555 1_555
H36 C46 1_555 1_555
H37 C47 1_555 1_555
H38 C48 1_555 1_555
H39 C50 1_555 1_555
O1B Ti1 1_555 1_555
O2B C14B 1_555 1_555
C12B O1B 1_555 1_555
C13B C12B 1_555 1_555
C14B C13B 1_555 1_555
C15B C14B 1_555 1_555
C16B C15B 1_555 1_555
C17B C12B 1_555 1_555
H10B C13B 1_555 1_555
H11B C15B 1_555 1_555
H12B C16B 1_555 1_555
H13B C17B 1_555 1_555
O3B C29B 1_555 1_555
O4B Ti1 1_555 1_555
C29B C30B 1_555 1_555
C30B C31B 1_555 1_555
C31B C32B 1_555 1_555
C32B C33B 1_555 1_555
C33B O4B 1_555 1_555
C34B C29B 1_555 1_555
H23B C30B 1_555 1_555
H24B C31B 1_555 1_555
H25B C32B 1_555 1_555
H26B C34B 1_555 1_555
N1B Ti1 1_555 1_555
C1B N1B 1_555 1_555
C2B C1B 1_555 1_555
C3B C2B 1_555 1_555
C4B C3B 1_555 1_555
C5B C4B 1_555 1_555
C6B C5B 1_555 1_555
C7B C6B 1_555 1_555
C8B C7B 1_555 1_555
C9B C4B 1_555 1_555
C10B C3B 1_555 1_555
C11B N1B 1_555 1_555
H1B C1B 1_555 1_555
H2B C2B 1_555 1_555
H3B C5B 1_555 1_555
H4B C6B 1_555 1_555
H5B C7B 1_555 1_555
H6B C8B 1_555 1_555
H7B C9B 1_555 1_555
H8B C10B 1_555 1_555
H9B C11B 1_555 1_555
Ti2B O2B 1_555 1_555
O5C C51C 1_555 1_555
O6C Ti2 1_555 1_555
C46C C47C 1_555 1_555
C47C C48C 1_555 1_555
C48C C49C 1_555 1_555
C49C O6C 1_555 1_555
C50C C49C 1_555 1_555
C51C C46C 1_555 1_555
H36C C46C 1_555 1_555
H37C C47C 1_555 1_555
H38C C48C 1_555 1_555
H39C C50C 1_555 1_555
N2B Ti2B 1_555 1_555
C18B N2B 1_555 1_555
C19B C18B 1_555 1_555
C20B C19B 1_555 1_555
C21B C20B 1_555 1_555
C22B C21B 1_555 1_555
C23B C22B 1_555 1_555
C24B C23B 1_555 1_555
C25B C24B 1_555 1_555
C26B C21B 1_555 1_555
C27B C20B 1_555 1_555
C28B N2B 1_555 1_555
H14B C18B 1_555 1_555
H15B C19B 1_555 1_555
H16B C22B 1_555 1_555
H17B C23B 1_555 1_555
H18B C24B 1_555 1_555
H19B C25B 1_555 1_555
H20B C26B 1_555 1_555
H21B C27B 1_555 1_555
H22B C28B 1_555 1_555
N3B Ti2B 1_555 1_555
C35B N3B 1_555 1_555
C36B C35B 1_555 1_555
C37B C36B 1_555 1_555
C38B C37B 1_555 1_555
C39B C38B 1_555 1_555
C40B C39B 1_555 1_555
C41B C40B 1_555 1_555
C42B C41B 1_555 1_555
C43B C38B 1_555 1_555
C44B C37B 1_555 1_555
C45B N3B 1_555 1_555
H27B C35B 1_555 1_555
H28B C36B 1_555 1_555
H29B C39B 1_555 1_555
H30B C40B 1_555 1_555
H31B C41B 1_555 1_555
H32B C42B 1_555 1_555
H33B C43B 1_555 1_555
H34B C44B 1_555 1_555
H35B C45B 1_555 1_555
O3_2 Ti2 1_555 1_555
Ti2_2 O3 1_555 1_555
Ti2C O6 1_555 1_555
Ti2B_2 O3B 1_555 1_555
O3B_2 Ti2B 1_555 1_555
O5B Ti2B 1_555 1_555
O6A Ti2B 1_555 1_555
Ti2C_2 O5C 1_555 1_555
C8 C9 1_555 1_555
C10 C11 1_555 1_555
C25 C26 1_555 1_555
C27 C28 1_555 1_555
C33 C34 1_555 1_555
C42 C43 1_555 1_555
C44 C45 1_555 1_555
C46 C51 1_555 1_555
C16B C17B 1_555 1_555
C33B C34B 1_555 1_555
C8B C9B 1_555 1_555
C10B C11B 1_555 1_555
C50C C51C 1_555 1_555
C25B C26B 1_555 1_555
C27B C28B 1_555 1_555
C42B C43B 1_555 1_555
C44B C45B 1_555 1_555

#END
