
#######################################################################
#
#                 Cambridge Crystallographic Data Centre
#                                CCDC 
#
#######################################################################
#
# If this CIF has been generated from an entry in the Cambridge 
# Structural Database, then it will include bibliographic, chemical, 
# crystal, experimental, refinement or atomic coordinate data resulting 
# from the CCDC's data processing and validation procedures.
#
#######################################################################

data_QOKVAN01
_symmetry_cell_setting           monoclinic
_symmetry_space_group_name_H-M   'P 21/m'
_symmetry_Int_Tables_number      11
_space_group_name_Hall           '-P 2yb'
loop_
_symmetry_equiv_pos_site_id
_symmetry_equiv_pos_as_xyz
1 x,y,z
2 x,1/2-y,z
3 -x,-y,-z
4 -x,1/2+y,-z
_cell_length_a                   8.8730(10)
_cell_length_b                   6.5670(10)
_cell_length_c                   10.629(2)
_cell_angle_alpha                90
_cell_angle_beta                 100.437(2)
_cell_angle_gamma                90
_cell_volume                     609.094
loop_
_atom_site_label
_atom_site_type_symbol
_atom_site_fract_x
_atom_site_fract_y
_atom_site_fract_z
Mo1 Mo 0.99329(3) 0.7500 0.83276(3)
Fe1 Fe 0.80930(5) 0.2500 0.81847(5)
O1 O 0.8794(2) 0.5295(3) 0.7894(2)
O2 O 1.0671(3) 0.7500 0.9968(2)
O3 O 1.1433(4) 0.7500 0.7522(3)
N1 N 0.5842(3) 0.2500 0.8650(3)
N2 N 0.6595(3) 0.2500 0.6304(3)
C1 C 0.5498(4) 0.2500 0.9819(3)
C2 C 0.3985(4) 0.2500 1.0016(4)
C3 C 0.2805(4) 0.2500 0.8997(4)
C4 C 0.3128(4) 0.2500 0.7733(4)
C5 C 0.4679(4) 0.2500 0.7622(3)
C6 C 0.1979(4) 0.2500 0.6619(4)
C7 C 0.2347(4) 0.2500 0.5446(4)
C8 C 0.3922(4) 0.2500 0.5289(3)
C9 C 0.5077(3) 0.2500 0.6361(3)
C10 C 0.4368(4) 0.2500 0.4078(3)
C11 C 0.5889(4) 0.2500 0.4024(4)
C12 C 0.6965(4) 0.2500 0.5146(3)
H1 H 0.6289 0.2500 1.0525
H2 H 0.3782 0.2500 1.0844
H3 H 0.1796 0.2500 0.9126
H4 H 0.0953 0.2500 0.6699
H5 H 0.1572 0.2500 0.4727
H6 H 0.3635 0.2500 0.3332
H7 H 0.6205 0.2500 0.3236
H8 H 0.7998 0.2500 0.5086
O1A O 0.8794(2) 0.9705(3) 0.7894(2)
Fe1A Fe 0.80930(5) 1.2500 0.81847(5)
Fe1B Fe 1.19070(5) 0.7500 1.18153(5)
O1A_2 O 0.8794(2) -0.0295(3) 0.7894(2)
O2B O 0.9329(3) 0.2500 1.0032(2)
loop_
_geom_bond_atom_site_label_1
_geom_bond_atom_site_label_2
_geom_bond_site_symmetry_1
_geom_bond_site_symmetry_2
Mo1 O1 1_555 1_555
Fe1 O1 1_555 1_555
O2 Mo1 1_555 1_555
O3 Mo1 1_555 1_555
N1 Fe1 1_555 1_555
N2 Fe1 1_555 1_555
C1 N1 1_555 1_555
C2 C1 1_555 1_555
C3 C2 1_555 1_555
C4 C3 1_555 1_555
C5 N1 1_555 1_555
C6 C4 1_555 1_555
C7 C6 1_555 1_555
C8 C7 1_555 1_555
C9 N2 1_555 1_555
C10 C8 1_555 1_555
C11 C10 1_555 1_555
C12 N2 1_555 1_555
H1 C1 1_555 1_555
H2 C2 1_555 1_555
H3 C3 1_555 1_555
H4 C6 1_555 1_555
H5 C7 1_555 1_555
H6 C10 1_555 1_555
H7 C11 1_555 1_555
H8 C12 1_555 1_555
O1A Mo1 1_555 1_555
Fe1A O1A 1_555 1_555
Fe1B O2 1_555 1_555
O1A_2 Fe1 1_555 1_555
O2B Fe1 1_555 1_555
C4 C5 1_555 1_555
C5 C9 1_555 1_555
C8 C9 1_555 1_555
C11 C12 1_555 1_555

#END
