
#######################################################################
#
#                 Cambridge Crystallographic Data Centre
#                                CCDC 
#
#######################################################################
#
# If this CIF has been generated from an entry in the Cambridge 
# Structural Database, then it will include bibliographic, chemical, 
# crystal, experimental, refinement or atomic coordinate data resulting 
# from the CCDC's data processing and validation procedures.
#
#######################################################################

data_QOLHAB01
_symmetry_cell_setting           monoclinic
_symmetry_space_group_name_H-M   'C 2/c'
_symmetry_Int_Tables_number      15
_space_group_name_Hall           '-C 2yn'
loop_
_symmetry_equiv_pos_site_id
_symmetry_equiv_pos_as_xyz
1 x,y,z
2 1/2+x,1/2+y,z
3 -x,y,1/2-z
4 1/2-x,1/2+y,1/2-z
5 -x,-y,-z
6 1/2-x,1/2-y,-z
7 x,-y,1/2+z
8 1/2+x,1/2-y,1/2+z
_cell_length_a                   17.7919(18)
_cell_length_b                   9.9259(10)
_cell_length_c                   12.9670(13)
_cell_angle_alpha                90
_cell_angle_beta                 112.414(1)
_cell_angle_gamma                90
_cell_volume                     2116.98
loop_
_atom_site_label
_atom_site_type_symbol
_atom_site_fract_x
_atom_site_fract_y
_atom_site_fract_z
Tb1 Tb 0.824056(12) 0.03238(2) 0.574780(18)
O1 O 0.9618(2) -0.0185(4) 0.6050(3)
O2 O 0.6877(2) 0.0558(4) 0.4672(3)
O3 O 0.8029(2) -0.1491(3) 0.4403(3)
C1 C 1.0149(3) -0.0110(5) 0.7019(4)
O4 O 0.9095(2) -0.0055(4) 0.7709(3)
C2 C 0.6278(3) 0.1294(5) 0.4198(4)
C3 C 0.5442(3) 0.0692(5) 0.3902(4)
C4 C 0.4756(3) 0.1501(6) 0.3627(4)
H1 H 0.4800 0.2434 0.3618
C5 C 0.5336(3) -0.0690(5) 0.3874(4)
H2 H 0.5781 -0.1263 0.4050
C6 C 0.4010(3) 0.0890(6) 0.3366(4)
H3 H 0.3556 0.1438 0.3206
C7 C 0.4563(3) -0.1211(5) 0.3584(5)
H4 H 0.4500 -0.2142 0.3564
N1 N 0.3903(3) -0.0438(5) 0.3330(4)
C8 C 0.7582(3) -0.2447(5) 0.4457(4)
O5 O 0.7739(2) -0.1680(3) 0.6276(3)
O6 O 0.8692(2) 0.2493(4) 0.6074(3)
O7 O 0.75857(19) 0.1250(3) 0.6941(3)
H5 H 0.7146 0.0877 0.6885
H6 H 0.7794 0.1546 0.7598
O8 O 0.8300(2) 0.1188(4) 0.4029(3)
H7 H 0.8554 0.0794 0.3691
H8 H 0.8051 0.1834 0.3631
Tb1B Tb 1.175944(12) 0.03238(2) 0.925220(18)
Tb1E Tb 0.675944(12) -0.53238(2) 0.425220(18)
Tb1E_2 Tb 0.675944(12) 0.46762(2) 0.425220(18)
O1B O 1.0382(2) -0.0185(4) 0.8950(3)
O1E O 0.5382(2) 0.5185(4) 0.3950(3)
O2E O 0.8123(2) 0.4442(4) 0.5328(3)
O3E O 0.6971(2) -0.3509(3) 0.5597(3)
O3E_2 O 0.6971(2) 0.6491(3) 0.5597(3)
C1B C 0.9851(3) -0.0110(5) 0.7981(4)
O4B O 1.0905(2) -0.0055(4) 0.7291(3)
O4E O 0.5905(2) 0.5055(4) 0.2291(3)
C2E C 0.8722(3) 0.3706(5) 0.5802(4)
C3E C 0.9558(3) 0.4308(5) 0.6098(4)
C4E C 1.0244(3) 0.3499(6) 0.6373(4)
H1E H 1.0200 0.2566 0.6382
C5E C 0.9664(3) 0.5690(5) 0.6126(4)
H2E H 0.9219 0.6263 0.5950
C6E C 1.0990(3) 0.4110(6) 0.6634(4)
H3E H 1.1444 0.3562 0.6794
C7E C 1.0437(3) 0.6211(5) 0.6416(5)
H4E H 1.0500 0.7142 0.6436
N1E N 1.1097(3) 0.5438(5) 0.6670(4)
C8E C 0.7418(3) -0.2553(5) 0.5543(4)
O5E O 0.7261(2) -0.3320(3) 0.3724(3)
O5E_2 O 0.7261(2) 0.6680(3) 0.3724(3)
O6E O 0.6308(2) 0.2507(4) 0.3926(3)
O7E O 0.74143(19) 0.3750(3) 0.3059(3)
H5E H 0.7854 0.4123 0.3115
H6E H 0.7206 0.3454 0.2402
O8E O 0.6700(2) 0.3812(4) 0.5971(3)
H7E H 0.6446 0.4206 0.6309
H8E H 0.6949 0.3166 0.6369
loop_
_geom_bond_atom_site_label_1
_geom_bond_atom_site_label_2
_geom_bond_site_symmetry_1
_geom_bond_site_symmetry_2
Tb1 O1 1_555 1_555
O1 C1 1_555 1_555
O2 Tb1 1_555 1_555
O3 Tb1 1_555 1_555
C1 C1B 1_555 1_555
O4 Tb1 1_555 1_555
C2 O2 1_555 1_555
C3 C2 1_555 1_555
C4 C3 1_555 1_555
H1 C4 1_555 1_555
C5 C3 1_555 1_555
H2 C5 1_555 1_555
C6 C4 1_555 1_555
H3 C6 1_555 1_555
C7 C5 1_555 1_555
H4 C7 1_555 1_555
N1 C6 1_555 1_555
C8 O3 1_555 1_555
O5 Tb1 1_555 1_555
O6 Tb1 1_555 1_555
O7 Tb1 1_555 1_555
H5 O7 1_555 1_555
H6 O7 1_555 1_555
O8 Tb1 1_555 1_555
H7 O8 1_555 1_555
H8 O8 1_555 1_555
Tb1B O1B 1_555 1_555
Tb1E O3E 1_555 1_555
Tb1E_2 O1E 1_555 1_555
O1B C1B 1_555 1_555
O2E Tb1E_2 1_555 1_555
O3E C8E 1_555 1_555
O3E_2 Tb1E_2 1_555 1_555
C1B O4 1_555 1_555
O4B C1 1_555 1_555
O4E Tb1E_2 1_555 1_555
C2E O6 1_555 1_555
C3E C2E 1_555 1_555
C4E C3E 1_555 1_555
H1E C4E 1_555 1_555
C5E C3E 1_555 1_555
H2E C5E 1_555 1_555
C6E C4E 1_555 1_555
H3E C6E 1_555 1_555
C7E C5E 1_555 1_555
H4E C7E 1_555 1_555
N1E C6E 1_555 1_555
C8E C8 1_555 1_555
O5E C8 1_555 1_555
O5E_2 Tb1E_2 1_555 1_555
O6E C2 1_555 1_555
O7E Tb1E_2 1_555 1_555
H5E O7E 1_555 1_555
H6E O7E 1_555 1_555
O8E Tb1E_2 1_555 1_555
H7E O8E 1_555 1_555
H8E O8E 1_555 1_555
C7 N1 1_555 1_555
O5 C8E 1_555 1_555
Tb1B O4B 1_555 1_555
Tb1E O5E 1_555 1_555
Tb1E_2 O6E 1_555 1_555
O2E C2E 1_555 1_555
C7E N1E 1_555 1_555

#END
