
#######################################################################
#
#                 Cambridge Crystallographic Data Centre
#                                CCDC 
#
#######################################################################
#
# If this CIF has been generated from an entry in the Cambridge 
# Structural Database, then it will include bibliographic, chemical, 
# crystal, experimental, refinement or atomic coordinate data resulting 
# from the CCDC's data processing and validation procedures.
#
#######################################################################

data_QOLLAF
_symmetry_cell_setting           orthorhombic
_symmetry_space_group_name_H-M   'P c c n'
_symmetry_Int_Tables_number      56
_space_group_name_Hall           '-P 2ab 2ac'
loop_
_symmetry_equiv_pos_site_id
_symmetry_equiv_pos_as_xyz
1 x,y,z
2 1/2-x,1/2-y,z
3 -x,1/2+y,1/2-z
4 1/2+x,-y,1/2-z
5 -x,-y,-z
6 1/2+x,1/2+y,-z
7 x,1/2-y,1/2+z
8 1/2-x,y,1/2+z
_cell_length_a                   19.0846(19)
_cell_length_b                   20.6555(19)
_cell_length_c                   7.5148(7)
_cell_angle_alpha                90
_cell_angle_beta                 90
_cell_angle_gamma                90
_cell_volume                     2962.35
loop_
_atom_site_label
_atom_site_type_symbol
_atom_site_fract_x
_atom_site_fract_y
_atom_site_fract_z
K1 K 0.13853(4) 0.30967(3) 0.70530(10)
S1 S -0.15766(5) 0.64546(4) 0.76710(12)
O1 O -0.24816(13) 0.53863(12) 0.5774(4)
H1 H -0.2561 0.5759 0.6087
O2 O -0.07320(14) 0.38226(10) 0.5406(4)
H2 H -0.0318 0.3765 0.5649
O3 O 0.04849(13) 0.40648(11) 0.6826(3)
O4 O -0.02313(11) 0.58473(10) 0.8207(3)
O5 O -0.14317(13) 0.65442(12) 0.9531(3)
O6 O -0.11604(17) 0.68786(11) 0.6568(3)
O7 O -0.23185(16) 0.65035(14) 0.7284(4)
C1 C -0.06796(17) 0.54231(15) 0.7389(4)
C2 C -0.13557(17) 0.56564(15) 0.7072(4)
C3 C -0.18152(19) 0.52311(16) 0.6185(4)
C4 C -0.15971(19) 0.46187(16) 0.5657(5)
H3 H -0.1910 0.4347 0.5072
C5 C -0.09334(19) 0.44116(15) 0.5984(4)
C6 C -0.04475(17) 0.48120(14) 0.6893(4)
C7 C 0.02559(19) 0.46143(15) 0.7283(4)
C8 C 0.06835(18) 0.50808(16) 0.8190(4)
H4 H 0.1140 0.4971 0.8505
C9 C 0.04401(17) 0.56696(15) 0.8591(4)
C10 C 0.08112(18) 0.61991(16) 0.9483(4)
C11 C 0.1517(2) 0.6162(2) 0.9812(6)
H5 H 0.1761 0.5795 0.9451
C12 C 0.1872(3) 0.6650(2) 1.0658(8)
H6 H 0.2352 0.6616 1.0857
C13 C 0.1515(3) 0.7188(2) 1.1205(6)
H7 H 0.1751 0.7515 1.1806
C14 C 0.0811(3) 0.72500(18) 1.0878(6)
H8 H 0.0572 0.7620 1.1237
C15 C 0.0457(2) 0.67562(16) 1.0007(4)
H9 H -0.0019 0.6798 0.9771
K1D K -0.13853(4) 0.69033(3) 1.29470(10)
K1D_2 K -0.13853(4) 0.69033(3) 0.29470(10)
K1B K -0.13853(4) 0.80967(3) 0.79470(10)
K1C K -0.36147(4) 0.69033(3) 0.79470(10)
O5D O 0.14317(13) 0.34558(12) 1.0469(3)
O6D O 0.11604(17) 0.31214(11) 0.3432(3)
O6B O 0.11604(17) 0.18786(11) 0.8432(3)
O7C O 0.26815(16) 0.34965(14) 0.7716(4)
loop_
_geom_bond_atom_site_label_1
_geom_bond_atom_site_label_2
_geom_bond_site_symmetry_1
_geom_bond_site_symmetry_2
K1 O3 1_555 1_555
S1 O5 1_555 1_555
O1 H1 1_555 1_555
O2 H2 1_555 1_555
O3 C7 1_555 1_555
O4 C1 1_555 1_555
O5 K1D 1_555 1_555
O6 S1 1_555 1_555
O7 S1 1_555 1_555
C1 C2 1_555 1_555
C2 S1 1_555 1_555
C3 O1 1_555 1_555
C4 C3 1_555 1_555
H3 C4 1_555 1_555
C5 O2 1_555 1_555
C6 C1 1_555 1_555
C7 C6 1_555 1_555
C8 C7 1_555 1_555
H4 C8 1_555 1_555
C9 O4 1_555 1_555
C10 C9 1_555 1_555
C11 C10 1_555 1_555
H5 C11 1_555 1_555
C12 C11 1_555 1_555
H6 C12 1_555 1_555
C13 C12 1_555 1_555
H7 C13 1_555 1_555
C14 C13 1_555 1_555
H8 C14 1_555 1_555
C15 C10 1_555 1_555
H9 C15 1_555 1_555
K1D_2 O6 1_555 1_555
K1B O6 1_555 1_555
K1C O7 1_555 1_555
O5D K1 1_555 1_555
O6D K1 1_555 1_555
O6B K1 1_555 1_555
O7C K1 1_555 1_555
C2 C3 1_555 1_555
C4 C5 1_555 1_555
C5 C6 1_555 1_555
C8 C9 1_555 1_555
C14 C15 1_555 1_555

#END
