
#######################################################################
#
#                 Cambridge Crystallographic Data Centre
#                                CCDC 
#
#######################################################################
#
# If this CIF has been generated from an entry in the Cambridge 
# Structural Database, then it will include bibliographic, chemical, 
# crystal, experimental, refinement or atomic coordinate data resulting 
# from the CCDC's data processing and validation procedures.
#
#######################################################################

data_QOMVIZ
_symmetry_cell_setting           monoclinic
_symmetry_space_group_name_H-M   'C 2/c'
_symmetry_Int_Tables_number      15
_space_group_name_Hall           '-C 2yn'
loop_
_symmetry_equiv_pos_site_id
_symmetry_equiv_pos_as_xyz
1 x,y,z
2 -x,y,1/2-z
3 1/2+x,1/2+y,z
4 1/2-x,1/2+y,1/2-z
5 -x,-y,-z
6 x,-y,1/2+z
7 1/2-x,1/2-y,-z
8 1/2+x,1/2-y,1/2+z
_cell_length_a                   15.976(5)
_cell_length_b                   6.097(5)
_cell_length_c                   20.824(5)
_cell_angle_alpha                90
_cell_angle_beta                 100.578(5)
_cell_angle_gamma                90
_cell_volume                     1993.91
loop_
_atom_site_label
_atom_site_type_symbol
_atom_site_fract_x
_atom_site_fract_y
_atom_site_fract_z
Cd1 Cd 1.0000 0.17065(3) 0.7500
O1 O 1.03059(11) 0.1272(3) 0.63983(8)
O2 O 1.02223(12) 0.4591(3) 0.67792(7)
N1 N 1.14345(13) 0.1936(3) 0.80544(10)
N2 N 1.23208(16) -0.1989(5) 0.96999(11)
C1 C 1.17017(16) 0.0711(5) 0.85807(12)
H1 H 1.1365 -0.0466 0.8660
C2 C 1.19291(18) 0.3594(5) 0.79356(14)
H2 H 1.1751 0.4461 0.7569
C3 C 1.24525(15) 0.1089(5) 0.90172(13)
C4 C 1.27101(17) -0.0260(5) 0.96057(13)
C5 C 1.29476(18) 0.2815(5) 0.88821(15)
H3 H 1.3456 0.3132 0.9163
C6 C 1.26912(19) 0.4070(6) 0.83338(16)
H4 H 1.3027 0.5221 0.8234
C7 C 1.02336(14) 0.3293(4) 0.63146(10)
C8 C 0.98769(15) 0.6364(3) 0.55061(11)
H5 H 0.9795 0.7285 0.5845
C9 C 1.02481(14) 0.2857(3) 0.51267(10)
H6 H 1.0417 0.1410 0.5211
C10 C 1.01255(13) 0.4197(4) 0.56359(10)
O3 O 1.0000 -0.1931(5) 0.7500
H7 H 1.009(3) -0.268(6) 0.7210(19)
H8 H 1.3159(18) 0.032(5) 0.9904(15)
O1D O 0.96941(11) 0.8728(3) 0.36017(8)
O2D O 0.97777(12) 0.5409(3) 0.32208(7)
C7D C 0.97664(14) 0.6707(4) 0.36854(10)
C8D C 1.01231(15) 0.3636(3) 0.44939(11)
H5D H 1.0205 0.2715 0.4155
C9D C 0.97519(14) 0.7143(3) 0.48733(10)
H6D H 0.9583 0.8590 0.4789
C10D C 0.98745(13) 0.5803(4) 0.43641(10)
N1F N 1.35655(13) -0.6936(3) 1.19456(10)
N2F N 1.26792(16) -0.3011(5) 1.03001(11)
C1F C 1.32983(16) -0.5711(5) 1.14193(12)
H1F H 1.3635 -0.4534 1.1340
C2F C 1.30709(18) -0.8594(5) 1.20644(14)
H2F H 1.3249 -0.9461 1.2431
C3F C 1.25475(15) -0.6089(5) 1.09828(13)
C4F C 1.22899(17) -0.4740(5) 1.03943(13)
C5F C 1.20524(18) -0.7815(5) 1.11179(15)
H3F H 1.1544 -0.8132 1.0837
C6F C 1.23088(19) -0.9070(6) 1.16662(16)
H4F H 1.1973 -1.0221 1.1766
H8F H 1.1841(18) -0.532(5) 1.0096(15)
H7A H 0.991(3) -0.268(6) 0.7790(19)
Cd1D Cd 1.0000 0.82935(3) 0.2500
Cd1F Cd 1.5000 -0.67065(3) 1.2500
O1A O 0.96941(11) 0.1272(3) 0.86017(8)
O2A O 0.97777(12) 0.4591(3) 0.82208(7)
N1A N 0.85655(13) 0.1936(3) 0.69456(10)
loop_
_geom_bond_atom_site_label_1
_geom_bond_atom_site_label_2
_geom_bond_site_symmetry_1
_geom_bond_site_symmetry_2
Cd1 O1 1_555 1_555
O1 C7 1_555 1_555
O2 Cd1 1_555 1_555
N1 Cd1 1_555 1_555
N2 C4 1_555 1_555
C1 N1 1_555 1_555
H1 C1 1_555 1_555
C2 N1 1_555 1_555
H2 C2 1_555 1_555
C3 C1 1_555 1_555
C4 C3 1_555 1_555
C5 C3 1_555 1_555
H3 C5 1_555 1_555
C6 C2 1_555 1_555
H4 C6 1_555 1_555
C7 O2 1_555 1_555
C8 H5 1_555 1_555
C9 H6 1_555 1_555
C10 C7 1_555 1_555
O3 Cd1 1_555 1_555
H7 O3 1_555 1_555
H8 C4 1_555 1_555
O1D C7D 1_555 1_555
O2D C7D 1_555 1_555
C7D C10D 1_555 1_555
C8D C9 1_555 1_555
H5D C8D 1_555 1_555
C9D C8 1_555 1_555
H6D C9D 1_555 1_555
C10D C8D 1_555 1_555
N1F C1F 1_555 1_555
N2F N2 1_555 1_555
C1F H1F 1_555 1_555
C2F N1F 1_555 1_555
H2F C2F 1_555 1_555
C3F C1F 1_555 1_555
C4F N2F 1_555 1_555
C5F C3F 1_555 1_555
H3F C5F 1_555 1_555
C6F C2F 1_555 1_555
H4F C6F 1_555 1_555
H8F C4F 1_555 1_555
H7A O3 1_555 1_555
Cd1D O1D 1_555 1_555
Cd1F N1F 1_555 1_555
O1A Cd1 1_555 1_555
O2A Cd1 1_555 1_555
N1A Cd1 1_555 1_555
C5 C6 1_555 1_555
C8 C10 1_555 1_555
C9 C10 1_555 1_555
O2D Cd1D 1_555 1_555
C9D C10D 1_555 1_555
C3F C4F 1_555 1_555
C5F C6F 1_555 1_555

#END
