
#######################################################################
#
#                 Cambridge Crystallographic Data Centre
#                                CCDC 
#
#######################################################################
#
# If this CIF has been generated from an entry in the Cambridge 
# Structural Database, then it will include bibliographic, chemical, 
# crystal, experimental, refinement or atomic coordinate data resulting 
# from the CCDC's data processing and validation procedures.
#
#######################################################################

data_QOPCED
_symmetry_cell_setting           monoclinic
_symmetry_space_group_name_H-M   'C 2/m'
_symmetry_Int_Tables_number      12
_space_group_name_Hall           '-C 2y'
loop_
_symmetry_equiv_pos_site_id
_symmetry_equiv_pos_as_xyz
1 x,y,z
2 x,-y,z
3 1/2+x,1/2+y,z
4 1/2+x,1/2-y,z
5 -x,-y,-z
6 -x,y,-z
7 1/2-x,1/2-y,-z
8 1/2-x,1/2+y,-z
_cell_length_a                   17.0438(9)
_cell_length_b                   7.634(1)
_cell_length_c                   7.077(1)
_cell_angle_alpha                90
_cell_angle_beta                 112.547(7)
_cell_angle_gamma                90
_cell_volume                     850.424
loop_
_atom_site_label
_atom_site_type_symbol
_atom_site_fract_x
_atom_site_fract_y
_atom_site_fract_z
Co1 Co 0.32006(3) 0.0000 0.74366(6)
O1 O 0.22702(9) 0.1763(2) 0.7432(2)
O2 O 0.2777(2) 0.0000 0.4305(4)
O3 O 0.3751(2) 0.0000 1.0529(4)
N1 N 0.0948(1) 0.1851(2) 0.7496(3)
N2 N -0.0964(1) 0.2865(3) 0.7474(3)
C1 C 0.1619(1) 0.0977(3) 0.7471(3)
C2 C 0.0274(1) 0.0901(3) 0.7501(3)
C3 C -0.0438(1) 0.1935(3) 0.7484(3)
H1 H 0.2782 0.0927 0.3639
H2 H 0.3873 0.1001 1.1279
C2A C 0.0274(1) -0.0901(3) 0.7501(3)
N1A N 0.0948(1) -0.1851(2) 0.7496(3)
C1A C 0.1619(1) -0.0977(3) 0.7471(3)
O1A O 0.22702(9) -0.1763(2) 0.7432(2)
C3A C -0.0438(1) -0.1935(3) 0.7484(3)
N2A N -0.0964(1) -0.2865(3) 0.7474(3)
H1A H 0.2782 -0.0927 0.3639
H2A H 0.3873 -0.1001 1.1279
N2B N 0.4036(1) -0.2135(3) 0.7474(3)
N2C N 0.4036(1) 0.2135(3) 0.7474(3)
Co1B Co -0.17994(3) 0.5000 0.74366(6)
Co1B_2 Co -0.17994(3) -0.5000 0.74366(6)
loop_
_geom_bond_atom_site_label_1
_geom_bond_atom_site_label_2
_geom_bond_site_symmetry_1
_geom_bond_site_symmetry_2
Co1 O1 1_555 1_555
O1 C1 1_555 1_555
O2 Co1 1_555 1_555
O3 Co1 1_555 1_555
N1 C1 1_555 1_555
N2 C3 1_555 1_555
C1 C1A 1_555 1_555
C2 N1 1_555 1_555
C3 C2 1_555 1_555
H1 O2 1_555 1_555
H2 O3 1_555 1_555
C2A C2 1_555 1_555
N1A C2A 1_555 1_555
C1A N1A 1_555 1_555
O1A Co1 1_555 1_555
C3A C2A 1_555 1_555
N2A C3A 1_555 1_555
H1A O2 1_555 1_555
H2A O3 1_555 1_555
N2B Co1 1_555 1_555
N2C Co1 1_555 1_555
Co1B N2 1_555 1_555
Co1B_2 N2A 1_555 1_555
C1A O1A 1_555 1_555

#END
