
#######################################################################
#
#                 Cambridge Crystallographic Data Centre
#                                CCDC 
#
#######################################################################
#
# If this CIF has been generated from an entry in the Cambridge 
# Structural Database, then it will include bibliographic, chemical, 
# crystal, experimental, refinement or atomic coordinate data resulting 
# from the CCDC's data processing and validation procedures.
#
#######################################################################

data_QOPHUZ
_symmetry_cell_setting           monoclinic
_symmetry_space_group_name_H-M   'P 21/c'
_symmetry_Int_Tables_number      14
_space_group_name_Hall           '-P 2ybc'
loop_
_symmetry_equiv_pos_site_id
_symmetry_equiv_pos_as_xyz
1 x,y,z
2 -x,1/2+y,1/2-z
3 -x,-y,-z
4 x,1/2-y,1/2+z
_cell_length_a                   10.503(2)
_cell_length_b                   9.0860(18)
_cell_length_c                   10.179(2)
_cell_angle_alpha                90
_cell_angle_beta                 96.75(3)
_cell_angle_gamma                90
_cell_volume                     964.651
loop_
_atom_site_label
_atom_site_type_symbol
_atom_site_fract_x
_atom_site_fract_y
_atom_site_fract_z
Co1 Co 0.00777(2) 0.19932(3) 0.39985(2)
O1 O 0.09732(13) 0.27790(16) 0.58691(14)
O2 O 0.13052(13) 0.17736(14) 0.78852(14)
O3 O -0.09461(15) 0.12999(18) 0.22330(15)
N1 N 0.86382(15) 0.09492(17) 0.50322(16)
N2 N 0.76058(15) -0.01758(18) 0.64676(17)
N3 N 0.86881(15) -0.01462(17) 0.58928(16)
O4 O -0.11146(16) 0.38714(18) 0.40966(17)
N4 N 0.75172(15) 0.16487(19) 0.50130(17)
C1 C 0.30436(18) 0.1816(2) 0.65822(19)
C2 C 0.37737(19) 0.0786(2) 0.7357(2)
H1 H 0.3416 0.0285 0.8021
C3 C 0.55870(18) 0.1280(2) 0.61705(19)
C4 C 0.35945(19) 0.2571(2) 0.5596(2)
H2 H 0.3108 0.3246 0.5064
C5 C 0.16830(18) 0.21384(19) 0.67919(18)
C6 C 0.48653(19) 0.2320(2) 0.5405(2)
H3 H 0.5234 0.2848 0.4764
C7 C 0.69019(17) 0.0934(2) 0.59008(18)
C8 C 0.50325(19) 0.0507(2) 0.7142(2)
H4 H 0.5508 -0.0199 0.7647
H5 H -0.055(3) 0.156(4) 0.165(3)
H6 H -0.120(5) 0.458(6) 0.372(5)
H7 H -0.182(4) 0.358(4) 0.427(4)
H8 H -0.111(4) 0.046(4) 0.211(4)
Co1C Co 0.00777(2) 0.30068(3) 0.89985(2)
Co1_2 Co 1.00777(2) 0.19932(3) 0.39985(2)
Co1B Co 0.99223(2) -0.19932(3) 0.60015(2)
O2C O 0.13052(13) 0.32264(14) 0.28852(14)
N1_2 N -0.13618(15) 0.09492(17) 0.50322(16)
N3B N 0.13119(15) 0.01462(17) 0.41072(16)
loop_
_geom_bond_atom_site_label_1
_geom_bond_atom_site_label_2
_geom_bond_site_symmetry_1
_geom_bond_site_symmetry_2
Co1 O1 1_555 1_555
O1 C5 1_555 1_555
O2 C5 1_555 1_555
O3 Co1 1_555 1_555
N1 N3 1_555 1_555
N2 N3 1_555 1_555
N3 Co1B 1_555 1_555
O4 Co1 1_555 1_555
N4 N1 1_555 1_555
C1 C2 1_555 1_555
C2 H1 1_555 1_555
C3 C6 1_555 1_555
C4 C1 1_555 1_555
H2 C4 1_555 1_555
C5 C1 1_555 1_555
C6 C4 1_555 1_555
H3 C6 1_555 1_555
C7 N2 1_555 1_555
C8 C2 1_555 1_555
H4 C8 1_555 1_555
H5 O3 1_555 1_555
H6 O4 1_555 1_555
H7 O4 1_555 1_555
H8 O3 1_555 1_555
Co1C O2 1_555 1_555
Co1_2 N1 1_555 1_555
O2C Co1 1_555 1_555
N1_2 Co1 1_555 1_555
N3B Co1 1_555 1_555
N4 C7 1_555 1_555
C3 C7 1_555 1_555
C3 C8 1_555 1_555

#END
