
#######################################################################
#
#                 Cambridge Crystallographic Data Centre
#                                CCDC 
#
#######################################################################
#
# If this CIF has been generated from an entry in the Cambridge 
# Structural Database, then it will include bibliographic, chemical, 
# crystal, experimental, refinement or atomic coordinate data resulting 
# from the CCDC's data processing and validation procedures.
#
#######################################################################

data_QOPJEL
_symmetry_cell_setting           orthorhombic
_symmetry_space_group_name_H-M   'P c c a'
_symmetry_Int_Tables_number      54
_space_group_name_Hall           '-P 2a 2ac'
loop_
_symmetry_equiv_pos_site_id
_symmetry_equiv_pos_as_xyz
1 x,y,z
2 1/2-x,-y,z
3 1/2+x,-y,1/2-z
4 -x,y,1/2-z
5 -x,-y,-z
6 1/2+x,y,-z
7 1/2-x,y,1/2+z
8 x,-y,1/2+z
_cell_length_a                   12.575(2)
_cell_length_b                   6.2874(9)
_cell_length_c                   17.436(3)
_cell_angle_alpha                90
_cell_angle_beta                 90
_cell_angle_gamma                90
_cell_volume                     1378.56
loop_
_atom_site_label
_atom_site_type_symbol
_atom_site_fract_x
_atom_site_fract_y
_atom_site_fract_z
Ag1 Ag 0.32398(2) 0.24320(4) 0.031482(15)
O1 O 0.2500 0.5000 0.13153(16)
H1 H 0.1994 0.5041 0.1637
O2 O 0.2500 0.0000 0.13701(16)
H2 H 0.2944 -0.0617 0.1656
N1 N 0.1699(2) 0.2308(4) -0.02875(14)
N2 N 0.14876(19) 0.1679(4) -0.10245(13)
N3 N -0.0051(2) 0.2266(3) -0.04894(16)
C1 C 0.0744(3) 0.2627(4) 0.00104(18)
H3 H 0.0633 0.3058 0.0514
C2 C 0.0450(2) 0.1684(5) -0.11290(17)
H4 H 0.0113 0.1330 -0.1587
C3 C 0.2332(2) 0.1166(4) -0.15760(16)
H5 H 0.2089 0.1540 -0.2087
H6 H 0.2949 0.2037 -0.1462
Ag1A Ag 0.17602(2) -0.24320(4) 0.031482(15)
Ag1A_2 Ag 0.17602(2) 0.75680(4) 0.031482(15)
Ag1E Ag -0.17602(2) 0.24320(4) -0.031482(15)
Ag1D Ag 0.67602(2) -0.24320(4) -0.031482(15)
O1_2 O 0.2500 -0.5000 0.13153(16)
H1A H 0.3006 0.4959 0.1637
H1A_2 H 0.3006 -0.5041 0.1637
H1_2 H 0.1994 -0.4959 0.1637
H2A H 0.2056 0.0617 0.1656
N1A N 0.3301(2) -0.2308(4) -0.02875(14)
N2A N 0.35124(19) -0.1679(4) -0.10245(13)
N3A N 0.5051(2) -0.2266(3) -0.04894(16)
N3E N 0.4949(2) 0.2266(3) 0.04894(16)
N3D N 0.0051(2) -0.2266(3) 0.04894(16)
C1A C 0.4256(3) -0.2627(4) 0.00104(18)
H3A H 0.4367 -0.3058 0.0514
C2A C 0.4550(2) -0.1684(5) -0.11290(17)
H4A H 0.4887 -0.1330 -0.1587
C3A C 0.2668(2) -0.1166(4) -0.15760(16)
H5A H 0.2911 -0.1540 -0.2087
H6A H 0.2051 -0.2037 -0.1462
Si1 Si 0.0000 0.3484(2) 0.2500
F1 F -0.09081(16) 0.1574(3) 0.26936(11)
F2 F -0.03675(16) 0.3469(3) 0.15797(10)
F3 F -0.09077(17) 0.5381(3) 0.26861(10)
F1C F 0.09081(16) 0.1574(3) 0.23064(11)
F2C F 0.03675(16) 0.3469(3) 0.34203(10)
F3C F 0.09077(17) 0.5381(3) 0.23139(10)
loop_
_geom_bond_atom_site_label_1
_geom_bond_atom_site_label_2
_geom_bond_site_symmetry_1
_geom_bond_site_symmetry_2
Ag1 O1 1_555 1_555
O1 H1 1_555 1_555
O2 Ag1 1_555 1_555
H2 O2 1_555 1_555
N1 Ag1 1_555 1_555
N2 N1 1_555 1_555
N3 C1 1_555 1_555
C1 N1 1_555 1_555
H3 C1 1_555 1_555
C2 N2 1_555 1_555
H4 C2 1_555 1_555
C3 N2 1_555 1_555
H5 C3 1_555 1_555
H6 C3 1_555 1_555
Si1 F1 1_555 1_555
F2 Si1 1_555 1_555
F3 Si1 1_555 1_555
Ag1A O2 1_555 1_555
Ag1A_2 O1 1_555 1_555
Ag1E N3 1_555 1_555
Ag1D N3A 1_555 1_555
O1_2 Ag1A 1_555 1_555
H1A O1 1_555 1_555
H1A_2 O1_2 1_555 1_555
H1_2 O1_2 1_555 1_555
H2A O2 1_555 1_555
N1A Ag1A 1_555 1_555
N2A N1A 1_555 1_555
N3A C1A 1_555 1_555
N3E Ag1 1_555 1_555
N3D Ag1A 1_555 1_555
C1A N1A 1_555 1_555
H3A C1A 1_555 1_555
C2A N2A 1_555 1_555
H4A C2A 1_555 1_555
C3A C3 1_555 1_555
H5A C3A 1_555 1_555
H6A C3A 1_555 1_555
F1C Si1 1_555 1_555
F2C Si1 1_555 1_555
F3C Si1 1_555 1_555
N3 C2 1_555 1_555
N2A C3A 1_555 1_555
N3A C2A 1_555 1_555

#END
