
#######################################################################
#
#                 Cambridge Crystallographic Data Centre
#                                CCDC 
#
#######################################################################
#
# If this CIF has been generated from an entry in the Cambridge 
# Structural Database, then it will include bibliographic, chemical, 
# crystal, experimental, refinement or atomic coordinate data resulting 
# from the CCDC's data processing and validation procedures.
#
#######################################################################

data_QOQDEH
_symmetry_cell_setting           monoclinic
_symmetry_space_group_name_H-M   'C 2/c'
_symmetry_Int_Tables_number      15
_space_group_name_Hall           '-C 2yn'
loop_
_symmetry_equiv_pos_site_id
_symmetry_equiv_pos_as_xyz
1 x,y,z
2 -x,y,1/2-z
3 1/2+x,1/2+y,z
4 1/2-x,1/2+y,1/2-z
5 -x,-y,-z
6 x,-y,1/2+z
7 1/2-x,1/2-y,-z
8 1/2+x,1/2-y,1/2+z
_cell_length_a                   26.484(13)
_cell_length_b                   17.289(7)
_cell_length_c                   21.036(10)
_cell_angle_alpha                90
_cell_angle_beta                 111.992(8)
_cell_angle_gamma                90
_cell_volume                     8931.14
loop_
_atom_site_label
_atom_site_type_symbol
_atom_site_fract_x
_atom_site_fract_y
_atom_site_fract_z
C1 C 0.9938(2) 0.4161(3) 0.7817(3)
C2 C 0.99673(19) 0.2021(2) 0.7838(3)
Co1 Co 0.86932(2) 0.18552(3) 1.08078(3)
Co2 Co 0.7500 0.2500 1.0000
Co3 Co 0.83194(2) 0.38687(3) 1.04168(3)
O1 O 0.78510(13) 0.40399(18) 0.93447(15)
O2 O 0.62692(12) 0.12317(17) 0.85487(15)
O3 O 0.59437(14) 0.24376(17) 0.83536(14)
O4 O 0.82905(10) 0.27165(15) 1.01618(12)
O5 O 0.71966(12) 0.31253(16) 0.90631(13)
O6 O 0.83286(11) 0.10614(16) 0.99949(14)
O7 O 0.74588(10) 0.14371(15) 0.94749(13)
O8 O 0.68375(16) 0.0400(3) 0.75596(19)
O9 O 0.64404(18) 0.2921(3) 0.70067(19)
O10 O 0.81075(12) 0.2263(2) 0.85617(15)
O11 O 0.82326(17) 0.5081(2) 1.0509(2)
N1 N 0.90303(16) 0.4016(2) 1.0206(2)
N2 N 0.95442(17) 0.4059(2) 0.9583(2)
N3 N 0.93560(15) 0.1900(2) 1.0482(2)
N4 N 0.97717(15) 0.1997(2) 0.9748(2)
N5 N 0.74897(16) 0.1317(3) 0.80362(18)
N6 N 0.72943(18) 0.2612(3) 0.77387(19)
N7 N 0.66073(17) 0.1674(3) 0.73385(19)
N8 N 0.88892(14) 0.0918(2) 1.14731(18)
C3 C 0.78659(16) 0.0995(2) 0.9543(2)
C4 C 0.98715(17) 0.0045(3) 1.4618(2)
C5 C 0.93957(19) 0.2164(3) 0.8503(3)
H1 H 0.9056 0.2265 0.8520
C6 C 0.59962(17) 0.1761(3) 0.8169(2)
N9 N 0.91517(15) 0.0315(2) 1.2473(2)
C7 C 0.92966(17) 0.1862(3) 0.9832(2)
H2 H 0.8968 0.1757 0.9475
C8 C 0.98434(19) 0.2010(2) 0.9109(3)
C9 C 0.76566(19) 0.2079(3) 0.8148(2)
C10 C 0.88481(17) -0.0209(3) 1.1983(2)
H3 H 0.8765 -0.0716 1.2058
C11 C 0.93949(17) 0.0204(3) 1.3204(2)
C12 C 0.99003(19) 0.2054(3) 1.0833(3)
H4 H 1.0065 0.2111 1.1306
C13 C 0.86928(17) 0.0167(2) 1.1364(2)
H5 H 0.8489 -0.0047 1.0940
C14 C 0.9887(2) 0.4137(3) 1.0264(3)
H6 H 1.0264 0.4197 1.0432
C15 C 0.7877(2) 0.0704(3) 0.8384(2)
H7 H 0.8244 0.0908 0.8531
H8 H 0.7845 0.0288 0.8062
C16 C 0.9460(2) 0.2164(3) 0.7883(3)
H9 H 0.9160 0.2262 0.7484
C17 C 0.9296(2) 0.4343(3) 0.8372(3)
H10 H 0.8952 0.4490 0.8350
C18 C 0.9682(2) 0.4097(3) 0.8989(3)
C19 C 1.01735(19) -0.0014(3) 1.4215(2)
H11 H 1.0546 -0.0105 1.4419
C20 C 1.0346(2) 0.1869(3) 0.9074(3)
H12 H 1.0645 0.1764 0.9472
C21 C 0.6023(2) 0.1471(4) 0.6989(2)
H13 H 0.5869 0.1791 0.6583
H14 H 0.5998 0.0937 0.6840
C22 C 0.7473(2) 0.3412(3) 0.7756(2)
H15 H 0.7353 0.3608 0.7291
H16 H 0.7867 0.3428 0.7948
C23 C 0.6754(2) 0.2414(4) 0.7333(2)
C24 C 0.95688(18) 0.4110(3) 1.0637(3)
H17 H 0.9693 0.4149 1.1112
C25 C 0.7783(2) 0.0380(3) 0.9004(2)
H18 H 0.7415 0.0179 0.8861
H19 H 0.8033 -0.0044 0.9198
C26 C 0.9936(2) 0.0061(3) 1.3508(2)
H20 H 1.0147 0.0012 1.3243
C27 C 0.9420(2) 0.4371(3) 0.7787(3)
H21 H 0.9157 0.4529 0.7373
C28 C 1.01593(19) 0.2113(3) 1.0396(3)
H22 H 1.0528 0.2211 1.0507
C29 C 0.9034(2) 0.3993(3) 0.9580(3)
H23 H 0.8724 0.3938 0.9185
C30 C 0.6963(2) 0.1081(4) 0.7630(2)
C31 C 1.0406(2) 0.1883(3) 0.8451(3)
H24 H 1.0749 0.1799 0.8439
C32 C 1.0319(2) 0.3930(3) 0.8438(3)
H25 H 1.0667 0.3796 0.8466
C33 C 1.0194(2) 0.3893(3) 0.9025(3)
H26 H 1.0456 0.3732 0.9439
C34 C 0.9324(2) 0.0189(5) 1.4299(3)
H27 H 0.9110 0.0217 1.4562
C35 C 0.5692(2) 0.1568(4) 0.7413(2)
H28 H 0.5489 0.1094 0.7386
H29 H 0.5429 0.1976 0.7211
C36 C 0.7255(2) 0.3937(3) 0.8176(2)
H30 H 0.6860 0.3933 0.7978
H31 H 0.7375 0.4463 0.8152
C37 C 0.74450(18) 0.3693(3) 0.8925(2)
C38 C 0.9083(2) 0.0292(5) 1.3597(3)
H32 H 0.8716 0.0419 1.3393
C39 C 0.91626(19) 0.0981(3) 1.2144(2)
H33 H 0.9340 0.1428 1.2360
C1A C 1.0062(2) 0.4161(3) 0.7183(3)
N1A N 1.09697(16) 0.4016(2) 0.4794(2)
N2A N 1.04558(17) 0.4059(2) 0.5417(2)
C14A C 1.0113(2) 0.4137(3) 0.4736(3)
H6A H 0.9736 0.4197 0.4568
C17A C 1.0704(2) 0.4343(3) 0.6628(3)
H10A H 1.1048 0.4490 0.6650
C18A C 1.0318(2) 0.4097(3) 0.6011(3)
C24A C 1.04312(18) 0.4110(3) 0.4363(3)
H17A H 1.0307 0.4149 0.3888
C27A C 1.0580(2) 0.4371(3) 0.7213(3)
H21A H 1.0843 0.4529 0.7627
C29A C 1.0966(2) 0.3993(3) 0.5420(3)
H23A H 1.1276 0.3938 0.5815
C32A C 0.9681(2) 0.3930(3) 0.6562(3)
H25A H 0.9333 0.3796 0.6534
C33A C 0.9806(2) 0.3893(3) 0.5975(3)
H26A H 0.9544 0.3732 0.5561
C2A C 1.00327(19) 0.2021(2) 0.7162(3)
N3A N 1.06440(15) 0.1900(2) 0.4518(2)
N4A N 1.02283(15) 0.1997(2) 0.5252(2)
C5A C 1.06043(19) 0.2164(3) 0.6497(3)
H1A H 1.0944 0.2265 0.6480
C7A C 1.07034(17) 0.1862(3) 0.5168(2)
H2A H 1.1032 0.1757 0.5525
C8A C 1.01566(19) 0.2010(2) 0.5891(3)
C12A C 1.00997(19) 0.2054(3) 0.4167(3)
H4A H 0.9935 0.2111 0.3694
C16A C 1.0540(2) 0.2164(3) 0.7117(3)
H9A H 1.0840 0.2262 0.7516
C20A C 0.9654(2) 0.1869(3) 0.5926(3)
H12A H 0.9355 0.1764 0.5528
C28A C 0.98407(19) 0.2113(3) 0.4604(3)
H22A H 0.9472 0.2211 0.4493
C31A C 0.9594(2) 0.1883(3) 0.6549(3)
H24A H 0.9251 0.1799 0.6561
N8D N 1.11108(14) -0.0918(2) 1.85269(18)
C4D C 1.01285(17) -0.0045(3) 1.5382(2)
N9D N 1.08483(15) -0.0315(2) 1.7527(2)
C10D C 1.11519(17) 0.0209(3) 1.8017(2)
H3D H 1.1235 0.0716 1.7942
C11D C 1.06051(17) -0.0204(3) 1.6796(2)
C13D C 1.13072(17) -0.0167(2) 1.8636(2)
H5D H 1.1511 0.0047 1.9060
C19D C 0.98265(19) 0.0014(3) 1.5785(2)
H11D H 0.9454 0.0105 1.5581
C26D C 1.0064(2) -0.0061(3) 1.6492(2)
H20D H 0.9853 -0.0012 1.6757
C34D C 1.0676(2) -0.0189(5) 1.5701(3)
H27D H 1.0890 -0.0217 1.5438
C38D C 1.0917(2) -0.0292(5) 1.6403(3)
H32D H 1.1284 -0.0419 1.6607
C39D C 1.08374(19) -0.0981(3) 1.7856(2)
H33D H 1.0660 -0.1428 1.7640
Co1A Co 1.13068(2) 0.18552(3) 0.41922(3)
Co3A Co 1.16806(2) 0.38687(3) 0.45832(3)
O1A O 1.21490(13) 0.40399(18) 0.56553(15)
O2A O 1.37308(12) 0.12317(17) 0.64513(15)
O3A O 1.40563(14) 0.24376(17) 0.66464(14)
O4A O 1.17095(10) 0.27165(15) 0.48382(12)
O5A O 1.28034(12) 0.31253(16) 0.59369(13)
O6A O 1.16714(11) 0.10614(16) 0.50051(14)
O7A O 1.25412(10) 0.14371(15) 0.55251(13)
O8A O 1.31625(16) 0.0400(3) 0.74404(19)
O9A O 1.35596(18) 0.2921(3) 0.79933(19)
O10A O 1.18925(12) 0.2263(2) 0.64383(15)
O11A O 1.17674(17) 0.5081(2) 0.4491(2)
N5A N 1.25103(16) 0.1317(3) 0.69638(18)
N6A N 1.27057(18) 0.2612(3) 0.72613(19)
N7A N 1.33927(17) 0.1674(3) 0.76615(19)
C3A C 1.21341(16) 0.0995(2) 0.5457(2)
C6A C 1.40038(17) 0.1761(3) 0.6831(2)
C9A C 1.23434(19) 0.2079(3) 0.6852(2)
C15A C 1.2123(2) 0.0704(3) 0.6616(2)
H7A H 1.1756 0.0908 0.6469
H8A H 1.2155 0.0288 0.6938
C21A C 1.3977(2) 0.1471(4) 0.8011(2)
H13A H 1.4131 0.1791 0.8417
H14A H 1.4002 0.0937 0.8160
C22A C 1.2527(2) 0.3412(3) 0.7244(2)
H15A H 1.2647 0.3608 0.7709
H16A H 1.2133 0.3428 0.7052
C23A C 1.3246(2) 0.2414(4) 0.7667(2)
C25A C 1.2217(2) 0.0380(3) 0.5996(2)
H18A H 1.2585 0.0179 0.6139
H19A H 1.1967 -0.0044 0.5802
C30A C 1.3037(2) 0.1081(4) 0.7370(2)
C35A C 1.4308(2) 0.1568(4) 0.7587(2)
H28A H 1.4511 0.1094 0.7614
H29A H 1.4571 0.1976 0.7789
C36A C 1.2745(2) 0.3937(3) 0.6824(2)
H30A H 1.3140 0.3933 0.7022
H31A H 1.2625 0.4463 0.6848
C37A C 1.25550(18) 0.3693(3) 0.6075(2)
Co1D Co 1.13068(2) -0.18552(3) 1.91922(3)
Co1F Co 0.63068(2) 0.31448(3) 0.91922(3)
Co1G Co 1.36932(2) 0.31448(3) 0.58078(3)
Co2A Co 1.2500 0.2500 0.5000
Co3F Co 0.66806(2) 0.11313(3) 0.95832(3)
Co3G Co 1.33194(2) 0.11313(3) 0.54168(3)
O2F O 0.87308(12) 0.37683(17) 1.14513(15)
O2G O 1.12692(12) 0.37683(17) 0.35487(15)
O3F O 0.90563(14) 0.25624(17) 1.16464(14)
O3G O 1.09437(14) 0.25624(17) 0.33536(14)
O4F O 0.67095(10) 0.22835(15) 0.98382(12)
O5F O 0.78034(12) 0.18747(16) 1.09369(13)
O7F O 0.75412(10) 0.35629(15) 1.05251(13)
O7G O 1.24588(10) 0.35629(15) 0.44749(13)
N8A N 1.11108(14) 0.0918(2) 0.35269(18)
loop_
_geom_bond_atom_site_label_1
_geom_bond_atom_site_label_2
_geom_bond_site_symmetry_1
_geom_bond_site_symmetry_2
C1 C27 1_555 1_555
C2 C16 1_555 1_555
Co1 O4 1_555 1_555
Co2 O4 1_555 1_555
Co3 O1 1_555 1_555
O1 C37 1_555 1_555
O2 C6 1_555 1_555
O3 C6 1_555 1_555
O4 Co3 1_555 1_555
O5 Co2 1_555 1_555
O6 Co1 1_555 1_555
O7 Co2 1_555 1_555
O8 C30 1_555 1_555
O9 C23 1_555 1_555
O10 C9 1_555 1_555
O11 Co3 1_555 1_555
N1 Co3 1_555 1_555
N2 C14 1_555 1_555
N3 Co1 1_555 1_555
N4 C7 1_555 1_555
N5 C9 1_555 1_555
N6 C9 1_555 1_555
N7 C21 1_555 1_555
N8 Co1 1_555 1_555
C3 O6 1_555 1_555
C4 C19 1_555 1_555
C5 H1 1_555 1_555
C6 C35 1_555 1_555
N9 C10 1_555 1_555
C7 N3 1_555 1_555
H2 C7 1_555 1_555
C8 N4 1_555 1_555
C10 H3 1_555 1_555
C11 N9 1_555 1_555
C12 N3 1_555 1_555
H4 C12 1_555 1_555
C13 N8 1_555 1_555
H5 C13 1_555 1_555
C14 H6 1_555 1_555
C15 N5 1_555 1_555
H7 C15 1_555 1_555
H8 C15 1_555 1_555
C16 C5 1_555 1_555
H9 C16 1_555 1_555
C17 H10 1_555 1_555
C18 N2 1_555 1_555
C19 H11 1_555 1_555
C20 C8 1_555 1_555
H12 C20 1_555 1_555
C21 H13 1_555 1_555
H14 C21 1_555 1_555
C22 N6 1_555 1_555
H15 C22 1_555 1_555
H16 C22 1_555 1_555
C23 N6 1_555 1_555
C24 N1 1_555 1_555
H17 C24 1_555 1_555
C25 C3 1_555 1_555
H18 C25 1_555 1_555
H19 C25 1_555 1_555
C26 C11 1_555 1_555
H20 C26 1_555 1_555
C27 C17 1_555 1_555
H21 C27 1_555 1_555
C28 N4 1_555 1_555
H22 C28 1_555 1_555
C29 N1 1_555 1_555
H23 C29 1_555 1_555
C30 N5 1_555 1_555
C31 C2 1_555 1_555
H24 C31 1_555 1_555
C32 C1 1_555 1_555
H25 C32 1_555 1_555
C33 C18 1_555 1_555
H26 C33 1_555 1_555
C34 C4 1_555 1_555
H27 C34 1_555 1_555
C35 C21 1_555 1_555
H28 C35 1_555 1_555
H29 C35 1_555 1_555
C36 C22 1_555 1_555
H30 C36 1_555 1_555
H31 C36 1_555 1_555
C37 O5 1_555 1_555
C38 C11 1_555 1_555
H32 C38 1_555 1_555
C39 N8 1_555 1_555
H33 C39 1_555 1_555
C1A C1 1_555 1_555
N1A C24A 1_555 1_555
N2A C14A 1_555 1_555
C14A H6A 1_555 1_555
C17A H10A 1_555 1_555
C18A N2A 1_555 1_555
C24A C14A 1_555 1_555
H17A C24A 1_555 1_555
C27A C1A 1_555 1_555
H21A C27A 1_555 1_555
C29A N1A 1_555 1_555
H23A C29A 1_555 1_555
C32A C1A 1_555 1_555
H25A C32A 1_555 1_555
C33A C18A 1_555 1_555
H26A C33A 1_555 1_555
C2A C2 1_555 1_555
N3A C7A 1_555 1_555
N4A C7A 1_555 1_555
C5A H1A 1_555 1_555
C7A H2A 1_555 1_555
C8A N4A 1_555 1_555
C12A N3A 1_555 1_555
H4A C12A 1_555 1_555
C16A C2A 1_555 1_555
H9A C16A 1_555 1_555
C20A C8A 1_555 1_555
H12A C20A 1_555 1_555
C28A N4A 1_555 1_555
H22A C28A 1_555 1_555
C31A C2A 1_555 1_555
H24A C31A 1_555 1_555
N8D C13D 1_555 1_555
C4D C4 1_555 1_555
N9D C10D 1_555 1_555
C10D H3D 1_555 1_555
C11D N9D 1_555 1_555
C13D C10D 1_555 1_555
H5D C13D 1_555 1_555
C19D C4D 1_555 1_555
H11D C19D 1_555 1_555
C26D C11D 1_555 1_555
H20D C26D 1_555 1_555
C34D C4D 1_555 1_555
H27D C34D 1_555 1_555
C38D C11D 1_555 1_555
H32D C38D 1_555 1_555
C39D N8D 1_555 1_555
H33D C39D 1_555 1_555
Co1A N3A 1_555 1_555
Co3A N1A 1_555 1_555
O1A Co3A 1_555 1_555
O2A C6A 1_555 1_555
O3A C6A 1_555 1_555
O4A Co1A 1_555 1_555
O5A C37A 1_555 1_555
O6A Co1A 1_555 1_555
O7A C3A 1_555 1_555
O8A C30A 1_555 1_555
O9A C23A 1_555 1_555
O10A C9A 1_555 1_555
O11A Co3A 1_555 1_555
N5A C9A 1_555 1_555
N6A C9A 1_555 1_555
N7A C21A 1_555 1_555
C3A O6A 1_555 1_555
C6A C35A 1_555 1_555
C15A N5A 1_555 1_555
H7A C15A 1_555 1_555
H8A C15A 1_555 1_555
C21A H13A 1_555 1_555
H14A C21A 1_555 1_555
C22A N6A 1_555 1_555
H15A C22A 1_555 1_555
H16A C22A 1_555 1_555
C23A N6A 1_555 1_555
C25A C3A 1_555 1_555
H18A C25A 1_555 1_555
H19A C25A 1_555 1_555
C30A N5A 1_555 1_555
C35A C21A 1_555 1_555
H28A C35A 1_555 1_555
H29A C35A 1_555 1_555
C36A C22A 1_555 1_555
H30A C36A 1_555 1_555
H31A C36A 1_555 1_555
C37A O1A 1_555 1_555
Co1D N8D 1_555 1_555
Co1F O3 1_555 1_555
Co1G O3A 1_555 1_555
Co2A O4A 1_555 1_555
Co3F O2 1_555 1_555
Co3G O2A 1_555 1_555
O2F Co3 1_555 1_555
O2G Co3A 1_555 1_555
O3F Co1 1_555 1_555
O3G Co1A 1_555 1_555
O4F Co2 1_555 1_555
O5F Co2 1_555 1_555
O7F Co2 1_555 1_555
O7G Co3A 1_555 1_555
N8A Co1A 1_555 1_555
Co3 O7F 1_555 1_555
O7 C3 1_555 1_555
O7 Co3F 1_555 1_555
N2 C29 1_555 1_555
N7 C23 1_555 1_555
N7 C30 1_555 1_555
C5 C8 1_555 1_555
N9 C39 1_555 1_555
C10 C13 1_555 1_555
C12 C28 1_555 1_555
C14 C24 1_555 1_555
C15 C25 1_555 1_555
C17 C18 1_555 1_555
C19 C26 1_555 1_555
C20 C31 1_555 1_555
C32 C33 1_555 1_555
C34 C38 1_555 1_555
C36 C37 1_555 1_555
N2A C29A 1_555 1_555
C17A C18A 1_555 1_555
C17A C27A 1_555 1_555
C32A C33A 1_555 1_555
C5A C8A 1_555 1_555
C5A C16A 1_555 1_555
C12A C28A 1_555 1_555
C20A C31A 1_555 1_555
N9D C39D 1_555 1_555
C19D C26D 1_555 1_555
C34D C38D 1_555 1_555
Co3A O4A 1_555 1_555
O5A Co2A 1_555 1_555
O7A Co2A 1_555 1_555
O7A Co3G 1_555 1_555
N7A C23A 1_555 1_555
N7A C30A 1_555 1_555
C15A C25A 1_555 1_555
C36A C37A 1_555 1_555
Co1F O4F 1_555 1_555
Co2A O7G 1_555 1_555
Co3F O4F 1_555 1_555

#END
