
#######################################################################
#
#                 Cambridge Crystallographic Data Centre
#                                CCDC 
#
#######################################################################
#
# If this CIF has been generated from an entry in the Cambridge 
# Structural Database, then it will include bibliographic, chemical, 
# crystal, experimental, refinement or atomic coordinate data resulting 
# from the CCDC's data processing and validation procedures.
#
#######################################################################

data_QOQLUD
_symmetry_cell_setting           monoclinic
_symmetry_space_group_name_H-M   'C 2/c'
_symmetry_Int_Tables_number      15
_space_group_name_Hall           '-C 2yn'
loop_
_symmetry_equiv_pos_site_id
_symmetry_equiv_pos_as_xyz
1 x,y,z
2 1/2+x,1/2+y,z
3 x,-y,1/2+z
4 1/2+x,1/2-y,1/2+z
5 -x,-y,-z
6 1/2-x,1/2-y,-z
7 -x,y,1/2-z
8 1/2-x,1/2+y,1/2-z
_cell_length_a                   26.1127(18)
_cell_length_b                   10.1535(6)
_cell_length_c                   14.6165(9)
_cell_angle_alpha                90
_cell_angle_beta                 92.367(7)
_cell_angle_gamma                90
_cell_volume                     3872.04
loop_
_atom_site_label
_atom_site_type_symbol
_atom_site_fract_x
_atom_site_fract_y
_atom_site_fract_z
Ba1 Ba 0.0000 0.19519(4) 0.2500
Cr1 Cr 0.12873(2) -0.30660(7) 0.31223(5)
O1 O 0.08888(13) -0.2245(3) 0.2111(2)
O2 O 0.13193(12) 0.5227(3) 0.2522(2)
O3 O 0.12214(13) -0.1320(3) 0.3675(2)
O4 O 0.06779(12) 0.6197(3) 0.3649(2)
O5 O 0.01774(13) 0.4423(4) 0.3532(3)
O6 O 0.08790(14) 0.3377(3) 0.2355(3)
O7 O 0.08312(15) 0.0601(4) 0.3428(3)
O8 O 0.04474(17) -0.0415(4) 0.1793(3)
N1 N 0.19900(14) -0.2695(3) 0.2577(3)
C1 C 0.22668(16) -0.3678(4) 0.3985(3)
N2 N 0.17661(14) -0.3707(4) 0.4188(3)
C2 C 0.32903(18) -0.3626(5) 0.3474(4)
H1 H 0.3629 -0.3627 0.3300
C3 C 0.26598(18) -0.4108(4) 0.4587(3)
C4 C 0.31785(18) -0.4081(5) 0.4308(4)
H2 H 0.3440 -0.4380 0.4706
C5 C 0.23855(16) -0.3161(4) 0.3115(3)
C6 C 0.2588(2) -0.2188(5) 0.1437(3)
H3 H 0.2646 -0.1862 0.0856
C7 C 0.1640(2) -0.4145(5) 0.5008(3)
H4 H 0.1297 -0.4172 0.5153
C8 C 0.2519(2) -0.4555(5) 0.5455(3)
H5 H 0.2767 -0.4840 0.5884
C9 C 0.09358(18) -0.0522(5) 0.3209(4)
C10 C 0.2987(2) -0.2629(5) 0.1989(4)
H6 H 0.3320 -0.2586 0.1787
C11 C 0.2089(2) -0.2232(5) 0.1754(3)
H7 H 0.1820 -0.1928 0.1377
C12 C 0.2015(2) -0.4564(5) 0.5655(4)
H8 H 0.1919 -0.4851 0.6227
C13 C 0.07281(18) -0.1075(5) 0.2282(4)
C14 C 0.28988(17) -0.3142(4) 0.2850(3)
C15 C 0.05581(17) 0.5049(5) 0.3340(4)
C16 C 0.09411(16) 0.4462(5) 0.2681(4)
O11 O 0.0172(3) 0.1943(6) 0.0574(5)
O2F O -0.13193(12) 0.5227(3) 0.2478(2)
O4F O -0.06779(12) 0.6197(3) 0.1351(2)
O5F O -0.01774(13) 0.4423(4) 0.1468(3)
O6F O -0.08790(14) 0.3377(3) 0.2645(3)
C15F C -0.05581(17) 0.5049(5) 0.1660(4)
C16F C -0.09411(16) 0.4462(5) 0.2319(4)
O1F O -0.08888(13) -0.2245(3) 0.2889(2)
O3F O -0.12214(13) -0.1320(3) 0.1325(2)
O7F O -0.08312(15) 0.0601(4) 0.1572(3)
O8F O -0.04474(17) -0.0415(4) 0.3207(3)
C9F C -0.09358(18) -0.0522(5) 0.1791(4)
C13F C -0.07281(18) -0.1075(5) 0.2718(4)
O11F O -0.0172(3) 0.1943(6) 0.4426(5)
Cr1F Cr -0.12873(2) -0.30660(7) 0.18777(5)
N1F N -0.19900(14) -0.2695(3) 0.2423(3)
C1F C -0.22668(16) -0.3678(4) 0.1015(3)
N2F N -0.17661(14) -0.3707(4) 0.0812(3)
C2F C -0.32903(18) -0.3626(5) 0.1526(4)
H1F H -0.3629 -0.3627 0.1700
C3F C -0.26598(18) -0.4108(4) 0.0413(3)
C4F C -0.31785(18) -0.4081(5) 0.0692(4)
H2F H -0.3440 -0.4380 0.0294
C5F C -0.23855(16) -0.3161(4) 0.1885(3)
C6F C -0.2588(2) -0.2188(5) 0.3563(3)
H3F H -0.2646 -0.1862 0.4144
C7F C -0.1640(2) -0.4145(5) -0.0008(3)
H4F H -0.1297 -0.4172 -0.0153
C8F C -0.2519(2) -0.4555(5) -0.0455(3)
H5F H -0.2767 -0.4840 -0.0884
C10F C -0.2987(2) -0.2629(5) 0.3011(4)
H6F H -0.3320 -0.2586 0.3213
C11F C -0.2089(2) -0.2232(5) 0.3246(3)
H7F H -0.1820 -0.1928 0.3623
C12F C -0.2015(2) -0.4564(5) -0.0655(4)
H8F H -0.1919 -0.4851 -0.1227
C14F C -0.28988(17) -0.3142(4) 0.2150(3)
O2_2 O 0.13193(12) -0.4773(3) 0.2522(2)
O4_2 O 0.06779(12) -0.3803(3) 0.3649(2)
Cr1_2 Cr 0.12873(2) 0.69340(7) 0.31223(5)
Cr1F_2 Cr -0.12873(2) 0.69340(7) 0.18777(5)
O2F_2 O -0.13193(12) -0.4773(3) 0.2478(2)
O4F_2 O -0.06779(12) -0.3803(3) 0.1351(2)
O9 O 0.36785(19) 0.2633(7) 0.5205(3)
O10 O 0.4493(2) 0.1237(7) 0.4398(3)
loop_
_geom_bond_atom_site_label_1
_geom_bond_atom_site_label_2
_geom_bond_site_symmetry_1
_geom_bond_site_symmetry_2
Ba1 O5 1_555 1_555
Cr1 O1 1_555 1_555
O1 C13 1_555 1_555
O2 C16 1_555 1_555
O3 Cr1 1_555 1_555
O4 C15 1_555 1_555
O5 C15 1_555 1_555
O6 Ba1 1_555 1_555
O7 Ba1 1_555 1_555
O8 Ba1 1_555 1_555
N1 Cr1 1_555 1_555
C1 N2 1_555 1_555
N2 Cr1 1_555 1_555
C2 H1 1_555 1_555
C3 C1 1_555 1_555
C4 C2 1_555 1_555
H2 C4 1_555 1_555
C5 N1 1_555 1_555
C6 H3 1_555 1_555
C7 N2 1_555 1_555
H4 C7 1_555 1_555
C8 C3 1_555 1_555
H5 C8 1_555 1_555
C9 O3 1_555 1_555
C10 C6 1_555 1_555
H6 C10 1_555 1_555
C11 N1 1_555 1_555
H7 C11 1_555 1_555
C12 C7 1_555 1_555
H8 C12 1_555 1_555
C13 O8 1_555 1_555
C14 C2 1_555 1_555
C15 C16 1_555 1_555
C16 O6 1_555 1_555
O11 Ba1 1_555 1_555
O2F C16F 1_555 1_555
O4F C15F 1_555 1_555
O5F Ba1 1_555 1_555
O6F Ba1 1_555 1_555
C15F O5F 1_555 1_555
C16F O6F 1_555 1_555
O1F C13F 1_555 1_555
O3F C9F 1_555 1_555
O7F Ba1 1_555 1_555
O8F Ba1 1_555 1_555
C9F O7F 1_555 1_555
C13F O8F 1_555 1_555
O11F Ba1 1_555 1_555
Cr1F O1F 1_555 1_555
N1F Cr1F 1_555 1_555
C1F N2F 1_555 1_555
N2F Cr1F 1_555 1_555
C2F H1F 1_555 1_555
C3F C1F 1_555 1_555
C4F C2F 1_555 1_555
H2F C4F 1_555 1_555
C5F N1F 1_555 1_555
C6F H3F 1_555 1_555
C7F N2F 1_555 1_555
H4F C7F 1_555 1_555
C8F C3F 1_555 1_555
H5F C8F 1_555 1_555
C10F C6F 1_555 1_555
H6F C10F 1_555 1_555
C11F N1F 1_555 1_555
H7F C11F 1_555 1_555
C12F C7F 1_555 1_555
H8F C12F 1_555 1_555
C14F C2F 1_555 1_555
O2_2 Cr1 1_555 1_555
O4_2 Cr1 1_555 1_555
Cr1_2 O2 1_555 1_555
Cr1F_2 O2F 1_555 1_555
O2F_2 Cr1F 1_555 1_555
O4F_2 Cr1F 1_555 1_555
O4 Cr1_2 1_555 1_555
O7 C9 1_555 1_555
C1 C5 1_555 1_555
C3 C4 1_555 1_555
C5 C14 1_555 1_555
C6 C11 1_555 1_555
C8 C12 1_555 1_555
C9 C13 1_555 1_555
C10 C14 1_555 1_555
O4F Cr1F_2 1_555 1_555
C15F C16F 1_555 1_555
O3F Cr1F 1_555 1_555
C9F C13F 1_555 1_555
C1F C5F 1_555 1_555
C3F C4F 1_555 1_555
C5F C14F 1_555 1_555
C6F C11F 1_555 1_555
C8F C12F 1_555 1_555
C10F C14F 1_555 1_555

#END
