
#######################################################################
#
#                 Cambridge Crystallographic Data Centre
#                                CCDC 
#
#######################################################################
#
# If this CIF has been generated from an entry in the Cambridge 
# Structural Database, then it will include bibliographic, chemical, 
# crystal, experimental, refinement or atomic coordinate data resulting 
# from the CCDC's data processing and validation procedures.
#
#######################################################################

data_QOQMAM
_symmetry_cell_setting           hexagonal
_symmetry_space_group_name_H-M   'P 61'
_symmetry_Int_Tables_number      169
_space_group_name_Hall           'P 61'
loop_
_symmetry_equiv_pos_site_id
_symmetry_equiv_pos_as_xyz
1 x,y,z
2 -y,x-y,1/3+z
3 -x+y,-x,2/3+z
4 -x,-y,1/2+z
5 y,-x+y,5/6+z
6 x-y,x,1/6+z
_cell_length_a                   11.1793(3)
_cell_length_b                   11.1793(3)
_cell_length_c                   26.6236(15)
_cell_angle_alpha                90
_cell_angle_beta                 90
_cell_angle_gamma                120
_cell_volume                     2881.55
loop_
_atom_site_label
_atom_site_type_symbol
_atom_site_fract_x
_atom_site_fract_y
_atom_site_fract_z
Tb1 Tb 0.17070(2) 0.14312(2) 0.59603(2)
O1 O 0.0183(4) -0.0724(4) 0.63779(13)
O2 O -0.0363(4) -0.0202(4) 0.71177(13)
C1 C -0.0347(5) -0.1029(5) 0.68027(18)
C2 C -0.1056(5) -0.2528(5) 0.6958(2)
C3 C -0.1433(6) -0.3593(6) 0.66177(19)
H1 H -0.1245 -0.3401 0.6270
C4 C -0.2090(6) -0.4944(6) 0.6789(2)
H2 H -0.2368 -0.5687 0.6560
C5 C -0.2335(6) -0.5200(6) 0.7296(2)
H3 H -0.2781 -0.6129 0.7411
N1 N -0.1963(4) -0.4175(4) 0.7634(2)
C6 C -0.1341(6) -0.2875(5) 0.74652(18)
H4 H -0.1081 -0.2151 0.7702
O3 O 0.0332(4) 0.2150(4) 0.63187(14)
O4 O -0.1092(4) 0.1851(4) 0.69547(14)
C7 C -0.0796(5) 0.1943(5) 0.65007(18)
C8 C -0.1891(6) 0.1800(5) 0.61362(19)
C9 C -0.3219(6) 0.1412(6) 0.6304(2)
H5 H -0.3426 0.1269 0.6653
C10 C -0.4238(5) 0.1233(5) 0.5965(2)
H6 H -0.5141 0.0972 0.6078
C11 C -0.3923(6) 0.1439(6) 0.5462(2)
H7 H -0.4614 0.1304 0.5225
N2 N -0.2628(5) 0.1834(5) 0.53067(17)
H8 H -0.255(11) 0.194(10) 0.498(4)
C12 C -0.1613(6) 0.2032(6) 0.5625(2)
H9 H -0.0710 0.2331 0.5502
O5 O 0.2890(4) 0.1323(4) 0.66802(14)
O6 O 0.2396(4) 0.2395(4) 0.72830(14)
C13 C 0.3012(5) 0.1795(5) 0.71167(18)
C14 C 0.3973(5) 0.1627(6) 0.74667(19)
C15 C 0.4244(5) 0.2170(6) 0.7949(2)
H10 H 0.3802 0.2645 0.8075
C16 C 0.5171(6) 0.2005(6) 0.8241(2)
H11 H 0.5372 0.2360 0.8574
C17 C 0.5808(6) 0.1313(6) 0.8042(2)
H12 H 0.6490 0.1261 0.8239
N3 N 0.5509(5) 0.0712(5) 0.7585(2)
C18 C 0.4606(6) 0.0892(6) 0.7311(2)
H13 H 0.4381 0.0486 0.6986
N4 N 0.4404(5) 0.3918(4) 0.60237(17)
O7 O 0.3342(4) 0.3874(4) 0.62170(14)
O8 O 0.4199(4) 0.2852(4) 0.57778(14)
O9 O 0.5560(4) 0.4920(4) 0.60734(17)
Tb1E Tb 0.02758(3) 0.17070(2) 0.76270(2)
O2D O -0.0202(4) 0.0161(6) 0.54510(13)
O4D O 0.1851(4) 0.2943(6) 0.52880(14)
O6D O 0.2395(4) -0.0001(6) 0.56163(14)
loop_
_geom_bond_atom_site_label_1
_geom_bond_atom_site_label_2
_geom_bond_site_symmetry_1
_geom_bond_site_symmetry_2
Tb1 O1 1_555 1_555
O1 C1 1_555 1_555
O2 C1 1_555 1_555
C1 C2 1_555 1_555
C2 C3 1_555 1_555
C3 H1 1_555 1_555
C4 C3 1_555 1_555
H2 C4 1_555 1_555
C5 C4 1_555 1_555
H3 C5 1_555 1_555
N1 C5 1_555 1_555
C6 C2 1_555 1_555
H4 C6 1_555 1_555
O3 Tb1 1_555 1_555
O4 C7 1_555 1_555
C7 O3 1_555 1_555
C8 C7 1_555 1_555
C9 C8 1_555 1_555
H5 C9 1_555 1_555
C10 C9 1_555 1_555
H6 C10 1_555 1_555
C11 C10 1_555 1_555
H7 C11 1_555 1_555
N2 C11 1_555 1_555
H8 N2 1_555 1_555
C12 C8 1_555 1_555
H9 C12 1_555 1_555
O5 Tb1 1_555 1_555
O6 C13 1_555 1_555
C13 O5 1_555 1_555
C14 C13 1_555 1_555
C15 C14 1_555 1_555
H10 C15 1_555 1_555
C16 C15 1_555 1_555
H11 C16 1_555 1_555
C17 C16 1_555 1_555
H12 C17 1_555 1_555
N3 C17 1_555 1_555
C18 C14 1_555 1_555
H13 C18 1_555 1_555
N4 O7 1_555 1_555
O7 Tb1 1_555 1_555
O8 Tb1 1_555 1_555
O9 N4 1_555 1_555
Tb1E O2 1_555 1_555
O2D Tb1 1_555 1_555
O4D Tb1 1_555 1_555
O6D Tb1 1_555 1_555
N1 C6 1_555 1_555
O4 Tb1E 1_555 1_555
N2 C12 1_555 1_555
O6 Tb1E 1_555 1_555
N3 C18 1_555 1_555
N4 O8 1_555 1_555

#END
