
#######################################################################
#
#                 Cambridge Crystallographic Data Centre
#                                CCDC 
#
#######################################################################
#
# If this CIF has been generated from an entry in the Cambridge 
# Structural Database, then it will include bibliographic, chemical, 
# crystal, experimental, refinement or atomic coordinate data resulting 
# from the CCDC's data processing and validation procedures.
#
#######################################################################

data_QOQYUR01
_symmetry_cell_setting           orthorhombic
_symmetry_space_group_name_H-M   'P b c n'
_symmetry_Int_Tables_number      60
_space_group_name_Hall           '-P 2n 2ab'
loop_
_symmetry_equiv_pos_site_id
_symmetry_equiv_pos_as_xyz
1 x,y,z
2 1/2-x,1/2-y,1/2+z
3 -x,y,1/2-z
4 1/2+x,1/2-y,-z
5 -x,-y,-z
6 1/2+x,1/2+y,1/2-z
7 x,-y,1/2+z
8 1/2-x,1/2+y,z
_cell_length_a                   16.1206(12)
_cell_length_b                   9.3720(7)
_cell_length_c                   14.6367(11)
_cell_angle_alpha                90
_cell_angle_beta                 90
_cell_angle_gamma                90
_cell_volume                     2211.35
loop_
_atom_site_label
_atom_site_type_symbol
_atom_site_fract_x
_atom_site_fract_y
_atom_site_fract_z
Zn1 Zn 0.5000 -0.00874(3) 0.7500
N1 N 0.56706(10) -0.22486(17) 0.62224(10)
N2 N 0.50779(9) -0.12643(17) 0.63732(11)
N3 N 0.45760(9) -0.11431(16) 0.56620(10)
N4 N 0.48338(10) -0.20502(19) 0.50222(9)
N5 N 0.78108(9) -0.70455(15) 0.30116(10)
N6 N 0.89739(10) -0.60890(17) 0.25437(9)
C1 C 0.59424(12) -0.3877(2) 0.49151(11)
C2 C 0.65678(12) -0.4625(2) 0.53566(13)
H1 H 0.6729 -0.4359 0.5942
C3 C 0.69536(13) -0.5767(2) 0.49300(12)
H2 H 0.7372 -0.6260 0.5232
C4 C 0.67212(11) -0.61812(19) 0.40553(12)
C5 C 0.61043(12) -0.5417(2) 0.36076(13)
H3 H 0.5949 -0.5677 0.3019
C6 C 0.57190(11) -0.4272(2) 0.40282(12)
H4 H 0.5310 -0.3764 0.3719
C7 C 0.54942(11) -0.27135(19) 0.53796(12)
C8 C 0.71159(12) -0.74616(19) 0.36103(13)
H5 H 0.7317 -0.8105 0.4079
H6 H 0.6702 -0.7966 0.3253
C9 C 0.84655(11) -0.62443(18) 0.32411(12)
H7 H 0.8550 -0.5850 0.3817
C10 C 0.86280(13) -0.6845(2) 0.18321(13)
H8 H 0.8853 -0.6934 0.1250
C11 C 0.79073(13) -0.7436(2) 0.21178(14)
H9 H 0.7548 -0.7997 0.1774
Zn1A Zn 0.0000 -0.49126(3) 1.2500
Zn1A_2 Zn 1.0000 -0.49126(3) 0.2500
N1B N 0.43294(10) -0.22486(17) 0.87776(10)
N2B N 0.49221(9) -0.12643(17) 0.86268(11)
N3B N 0.54240(9) -0.11431(16) 0.93380(10)
N4B N 0.51662(10) -0.20502(19) 0.99778(9)
N5B N 0.21892(9) -0.70455(15) 1.19884(10)
N6B N 0.10261(10) -0.60890(17) 1.24563(9)
N6A N 0.60261(10) 0.10890(17) 0.75437(9)
N6C N 0.39739(10) 0.10890(17) 0.74563(9)
C1B C 0.40576(12) -0.3877(2) 1.00849(11)
C2B C 0.34322(12) -0.4625(2) 0.96434(13)
H1B H 0.3271 -0.4359 0.9058
C3B C 0.30464(13) -0.5767(2) 1.00700(12)
H2B H 0.2628 -0.6260 0.9768
C4B C 0.32788(11) -0.61812(19) 1.09447(12)
C5B C 0.38957(12) -0.5417(2) 1.13924(13)
H3B H 0.4051 -0.5677 1.1981
C6B C 0.42810(11) -0.4272(2) 1.09718(12)
H4B H 0.4690 -0.3764 1.1281
C7B C 0.45058(11) -0.27135(19) 0.96204(12)
C8B C 0.28841(12) -0.74616(19) 1.13897(13)
H5B H 0.2683 -0.8105 1.0921
H6B H 0.3298 -0.7966 1.1747
C9B C 0.15345(11) -0.62443(18) 1.17589(12)
H7B H 0.1450 -0.5850 1.1183
C10B C 0.13720(13) -0.6845(2) 1.31679(13)
H8B H 0.1147 -0.6934 1.3750
C11B C 0.20927(13) -0.7436(2) 1.28822(14)
H9B H 0.2452 -0.7997 1.3226
loop_
_geom_bond_atom_site_label_1
_geom_bond_atom_site_label_2
_geom_bond_site_symmetry_1
_geom_bond_site_symmetry_2
Zn1 N2 1_555 1_555
N1 N2 1_555 1_555
N2 N3 1_555 1_555
N3 N4 1_555 1_555
N4 C7 1_555 1_555
N5 C8 1_555 1_555
N6 C9 1_555 1_555
C1 C2 1_555 1_555
C2 H1 1_555 1_555
C3 C2 1_555 1_555
H2 C3 1_555 1_555
C4 C3 1_555 1_555
C5 C4 1_555 1_555
H3 C5 1_555 1_555
C6 C1 1_555 1_555
H4 C6 1_555 1_555
C7 N1 1_555 1_555
C8 C4 1_555 1_555
H5 C8 1_555 1_555
H6 C8 1_555 1_555
C9 N5 1_555 1_555
H7 C9 1_555 1_555
C10 N6 1_555 1_555
H8 C10 1_555 1_555
C11 N5 1_555 1_555
H9 C11 1_555 1_555
Zn1A N6B 1_555 1_555
Zn1A_2 N6 1_555 1_555
N1B N2B 1_555 1_555
N2B Zn1 1_555 1_555
N3B N2B 1_555 1_555
N4B N3B 1_555 1_555
N5B C8B 1_555 1_555
N6B C9B 1_555 1_555
N6A Zn1 1_555 1_555
N6C Zn1 1_555 1_555
C1B C2B 1_555 1_555
C2B H1B 1_555 1_555
C3B C2B 1_555 1_555
H2B C3B 1_555 1_555
C4B C3B 1_555 1_555
C5B C4B 1_555 1_555
H3B C5B 1_555 1_555
C6B C1B 1_555 1_555
H4B C6B 1_555 1_555
C7B N1B 1_555 1_555
C8B C4B 1_555 1_555
H5B C8B 1_555 1_555
H6B C8B 1_555 1_555
C9B N5B 1_555 1_555
H7B C9B 1_555 1_555
C10B N6B 1_555 1_555
H8B C10B 1_555 1_555
C11B N5B 1_555 1_555
H9B C11B 1_555 1_555
C1 C7 1_555 1_555
C5 C6 1_555 1_555
C10 C11 1_555 1_555
N4B C7B 1_555 1_555
C1B C7B 1_555 1_555
C5B C6B 1_555 1_555
C10B C11B 1_555 1_555

#END
