
#######################################################################
#
#                 Cambridge Crystallographic Data Centre
#                                CCDC 
#
#######################################################################
#
# If this CIF has been generated from an entry in the Cambridge 
# Structural Database, then it will include bibliographic, chemical, 
# crystal, experimental, refinement or atomic coordinate data resulting 
# from the CCDC's data processing and validation procedures.
#
#######################################################################

data_QORTIB
_symmetry_cell_setting           monoclinic
_symmetry_space_group_name_H-M   'P 21/c'
_symmetry_Int_Tables_number      14
_space_group_name_Hall           '-P 2ybc'
loop_
_symmetry_equiv_pos_site_id
_symmetry_equiv_pos_as_xyz
1 x,y,z
2 -x,1/2+y,1/2-z
3 -x,-y,-z
4 x,1/2-y,1/2+z
_cell_length_a                   11.2781(4)
_cell_length_b                   11.5931(4)
_cell_length_c                   12.4737(4)
_cell_angle_alpha                90
_cell_angle_beta                 110.387(2)
_cell_angle_gamma                90
_cell_volume                     1528.75
loop_
_atom_site_label
_atom_site_type_symbol
_atom_site_fract_x
_atom_site_fract_y
_atom_site_fract_z
C1 C 0.8227(4) 0.5028(4) 0.2091(4)
H1 H 0.7411 0.5075 0.1560
C2 C 0.8985(5) 0.4134(4) 0.2002(4)
H2 H 0.8683 0.3584 0.1429
C3 C 1.0202(4) 0.4064(4) 0.2778(4)
H3 H 1.0732 0.3466 0.2734
C4 C 1.0626(4) 0.4895(4) 0.3623(4)
H4 H 1.1444 0.4866 0.4153
C5 C 0.9807(4) 0.5772(3) 0.3667(3)
C6 C 1.0151(4) 0.6706(3) 0.4523(3)
C7 C 1.1361(4) 0.6853(4) 0.5314(4)
H5 H 1.2008 0.6347 0.5334
C8 C 1.1586(4) 0.7766(4) 0.6069(4)
H6 H 1.2387 0.7876 0.6611
C9 C 1.0620(5) 0.8510(4) 0.6016(4)
H7 H 1.0765 0.9136 0.6511
C10 C 0.9423(4) 0.8318(4) 0.5214(4)
H8 H 0.8768 0.8820 0.5180
C11 C 0.5468(4) 0.6914(4) 0.1039(3)
H9 H 0.5875 0.7536 0.0846
C12 C 0.4402(4) 0.6451(4) 0.0235(4)
H10 H 0.4113 0.6760 -0.0499
C13 C 0.4221(4) 0.5139(3) 0.1544(3)
C14 C 0.5313(4) 0.5578(3) 0.2360(3)
C15 C 0.5933(4) 0.5079(4) 0.3557(4)
C16 C 0.3426(4) 0.4177(4) 0.1769(3)
N1 N 0.8611(3) 0.5834(3) 0.2907(3)
N2 N 0.9194(3) 0.7421(3) 0.4488(3)
N3 N 0.5919(3) 0.6477(3) 0.2088(3)
N4 N 0.3770(3) 0.5573(3) 0.0476(3)
O1 O 0.6839(3) 0.5647(3) 0.4223(2)
O2 O 0.5529(3) 0.4147(3) 0.3761(3)
O3 O 0.2767(3) 0.4364(3) 0.2351(3)
O4 O 0.3454(3) 0.3240(2) 0.1246(3)
Cu1 Cu 0.74957(4) 0.69830(4) 0.33705(4)
O4A O 0.6546(3) 0.8240(2) 0.3754(3)
Cu1A Cu 0.25043(4) 0.19830(4) 0.16295(4)
O5 O 0.3317(4) 0.8672(3) -0.1206(3)
H11 H 0.371(5) 0.880(5) -0.0512(19)
H12 H 0.315(6) 0.926(3) -0.161(4)
loop_
_geom_bond_atom_site_label_1
_geom_bond_atom_site_label_2
_geom_bond_site_symmetry_1
_geom_bond_site_symmetry_2
C1 H1 1_555 1_555
C2 C1 1_555 1_555
H2 C2 1_555 1_555
C3 C2 1_555 1_555
H3 C3 1_555 1_555
C4 C3 1_555 1_555
H4 C4 1_555 1_555
C5 C4 1_555 1_555
C6 C5 1_555 1_555
C7 C6 1_555 1_555
H5 C7 1_555 1_555
C8 C7 1_555 1_555
H6 C8 1_555 1_555
C9 C8 1_555 1_555
H7 C9 1_555 1_555
C10 C9 1_555 1_555
H8 C10 1_555 1_555
C11 H9 1_555 1_555
C12 C11 1_555 1_555
H10 C12 1_555 1_555
C13 C14 1_555 1_555
C14 C15 1_555 1_555
C15 O1 1_555 1_555
C16 C13 1_555 1_555
N1 C1 1_555 1_555
N2 C6 1_555 1_555
N3 C11 1_555 1_555
N4 C12 1_555 1_555
O1 Cu1 1_555 1_555
O2 C15 1_555 1_555
O3 C16 1_555 1_555
O4 C16 1_555 1_555
O5 H11 1_555 1_555
Cu1 N1 1_555 1_555
H12 O5 1_555 1_555
O4A Cu1 1_555 1_555
Cu1A O4 1_555 1_555
C5 N1 1_555 1_555
C10 N2 1_555 1_555
C13 N4 1_555 1_555
C14 N3 1_555 1_555
N2 Cu1 1_555 1_555
N3 Cu1 1_555 1_555

#END
