
#######################################################################
#
#                 Cambridge Crystallographic Data Centre
#                                CCDC 
#
#######################################################################
#
# If this CIF has been generated from an entry in the Cambridge 
# Structural Database, then it will include bibliographic, chemical, 
# crystal, experimental, refinement or atomic coordinate data resulting 
# from the CCDC's data processing and validation procedures.
#
#######################################################################

data_QORTOH
_symmetry_cell_setting           monoclinic
_symmetry_space_group_name_H-M   'P 21/c'
_symmetry_Int_Tables_number      14
_space_group_name_Hall           '-P 2ybc'
loop_
_symmetry_equiv_pos_site_id
_symmetry_equiv_pos_as_xyz
1 x,y,z
2 -x,1/2+y,1/2-z
3 -x,-y,-z
4 x,1/2-y,1/2+z
_cell_length_a                   7.4592(11)
_cell_length_b                   7.4487(10)
_cell_length_c                   21.500(4)
_cell_angle_alpha                90
_cell_angle_beta                 90.777(14)
_cell_angle_gamma                90
_cell_volume                     1194.46
loop_
_atom_site_label
_atom_site_type_symbol
_atom_site_fract_x
_atom_site_fract_y
_atom_site_fract_z
C1 C 0.7187(4) 0.5416(4) 0.53467(17)
C2 C 0.6540(4) 0.5105(4) 0.59413(17)
C3 C 0.6240(5) 0.8126(5) 0.60852(19)
H1 H 0.5958 0.9095 0.6338
C4 C 0.6779(5) 0.8453(4) 0.54895(19)
H2 H 0.6799 0.9625 0.5341
C5 C 0.7856(4) 0.3984(4) 0.49167(17)
C6 C 0.6255(4) 0.3237(4) 0.62096(17)
C7 C 0.1481(6) -0.0718(5) 0.6399(2)
H3 H 0.2763 -0.0938 0.6407
H4 H 0.0880 -0.1870 0.6366
C8 C 0.0960(6) 0.0165(5) 0.6995(2)
H5 H 0.1249 -0.0644 0.7336
H6 H -0.0329 0.0335 0.6990
C9 C 0.1838(5) 0.1946(5) 0.71253(18)
H7 H 0.1510 0.2349 0.7537
H8 H 0.3129 0.1799 0.7121
N1 N 0.7277(3) 0.7104(4) 0.51193(13)
N2 N 0.6103(4) 0.6466(4) 0.63167(15)
N3 N 0.1017(4) 0.0381(4) 0.58453(15)
H9 H -0.0186 0.0464 0.5821
H10 H 0.1376 -0.0223 0.5507
N4 N 0.1306(4) 0.3330(3) 0.66630(15)
H11 H 0.1779 0.4386 0.6785
H12 H 0.0105 0.3445 0.6670
O1 O 0.8214(4) 0.4500(3) 0.43723(12)
O2 O 0.8061(4) 0.2436(3) 0.51157(13)
O3 O 0.4866(3) 0.2418(3) 0.60509(13)
O4 O 0.7418(3) 0.2703(4) 0.65897(13)
Cu1 Cu 0.20211(6) 0.28822(5) 0.57960(2)
N1B N 0.2723(3) 0.2896(4) 0.48807(13)
O1B O 0.1786(4) 0.5500(3) 0.56277(12)
Cu1B Cu 0.79789(6) 0.71178(5) 0.42040(2)
O5 O 0.3594(6) 0.9236(6) 0.2358(2)
H13 H 0.340(7) 0.856(7) 0.260(3)
H14 H 0.433(8) 0.887(7) 0.216(3)
loop_
_geom_bond_atom_site_label_1
_geom_bond_atom_site_label_2
_geom_bond_site_symmetry_1
_geom_bond_site_symmetry_2
C1 C2 1_555 1_555
C2 C6 1_555 1_555
C3 H1 1_555 1_555
C4 C3 1_555 1_555
H2 C4 1_555 1_555
C5 C1 1_555 1_555
C6 O3 1_555 1_555
C7 H3 1_555 1_555
H4 C7 1_555 1_555
C8 C7 1_555 1_555
H5 C8 1_555 1_555
H6 C8 1_555 1_555
C9 C8 1_555 1_555
H7 C9 1_555 1_555
H8 C9 1_555 1_555
N1 C1 1_555 1_555
N2 C2 1_555 1_555
N3 C7 1_555 1_555
H9 N3 1_555 1_555
H10 N3 1_555 1_555
N4 C9 1_555 1_555
H11 N4 1_555 1_555
H12 N4 1_555 1_555
O1 C5 1_555 1_555
O2 C5 1_555 1_555
O3 Cu1 1_555 1_555
O4 C6 1_555 1_555
O5 H13 1_555 1_555
Cu1 N3 1_555 1_555
H14 O5 1_555 1_555
N1B Cu1 1_555 1_555
O1B Cu1 1_555 1_555
Cu1B N1 1_555 1_555
C3 N2 1_555 1_555
C4 N1 1_555 1_555
N4 Cu1 1_555 1_555
O1 Cu1B 1_555 1_555

#END
