
#######################################################################
#
#                 Cambridge Crystallographic Data Centre
#                                CCDC 
#
#######################################################################
#
# If this CIF has been generated from an entry in the Cambridge 
# Structural Database, then it will include bibliographic, chemical, 
# crystal, experimental, refinement or atomic coordinate data resulting 
# from the CCDC's data processing and validation procedures.
#
#######################################################################

data_QORYAZ
_symmetry_cell_setting           orthorhombic
_symmetry_space_group_name_H-M   'P c c n'
_symmetry_Int_Tables_number      56
_space_group_name_Hall           '-P 2ab 2ac'
loop_
_symmetry_equiv_pos_site_id
_symmetry_equiv_pos_as_xyz
1 x,y,z
2 1/2-x,1/2-y,z
3 -x,1/2+y,1/2-z
4 1/2+x,-y,1/2-z
5 -x,-y,-z
6 1/2+x,1/2+y,-z
7 x,1/2-y,1/2+z
8 1/2-x,y,1/2+z
_cell_length_a                   24.922(5)
_cell_length_b                   7.6730(15)
_cell_length_c                   15.780(3)
_cell_angle_alpha                90
_cell_angle_beta                 90
_cell_angle_gamma                90
_cell_volume                     3017.55
loop_
_atom_site_label
_atom_site_type_symbol
_atom_site_fract_x
_atom_site_fract_y
_atom_site_fract_z
O1 O 0.60389(17) 1.3278(5) 0.3953(2)
O2 O 0.55950(16) 1.2387(5) 0.2842(2)
N1 N 0.5268(2) 0.5998(6) 0.3276(3)
C1 C 0.5766(2) 1.2117(7) 0.3579(3)
C2 C 0.5375(2) 0.7422(7) 0.3835(3)
Ni1 Ni 0.59671(3) 1.01993(8) 0.77802(4)
O3 O 0.58116(17) 0.9552(5) 0.6579(2)
O4 O 0.66324(19) 1.1495(6) 0.7174(3)
N2 N 0.7500 0.2500 0.8405(4)
O5 O 0.56067(19) 0.6740(5) 0.6440(2)
C3 C 0.5643(2) 1.0406(7) 0.3997(3)
C4 C 0.5595(2) 0.8556(7) 0.5217(3)
C5 C 0.5671(2) 0.8250(7) 0.6157(3)
C6 C 0.5704(2) 1.0164(7) 0.4867(3)
H1 H 0.5817 1.1080 0.5209
C7 C 0.6616(2) 0.8050(7) 0.8942(4)
H2 H 0.6513 0.8897 0.9330
N3 N 0.64985(18) 0.8285(6) 0.8124(3)
C8 C 0.5474(2) 0.9054(7) 0.3491(3)
H3 H 0.5427 0.9235 0.2913
C9 C 0.7317(2) 0.3735(7) 0.8937(4)
N4 N 0.7382(3) 0.3301(7) 0.9743(3)
C10 C 0.7055(2) 0.5356(7) 0.8662(4)
C11 C 0.6959(2) 0.5650(7) 0.7811(4)
H4 H 0.7085 0.4870 0.7406
C12 C 0.6673(3) 0.7106(7) 0.7565(4)
H5 H 0.6600 0.7272 0.6993
C13 C 0.6885(2) 0.6601(7) 0.9232(4)
H6 H 0.6951 0.6463 0.9808
C14 C 0.5432(2) 0.7172(7) 0.4703(3)
H7 H 0.5361 0.6087 0.4941
H8 H 0.508(5) 0.523(16) 0.349(8)
H9 H 0.502(5) 0.635(14) 0.278(7)
H10 H 0.650(4) 1.230(10) 0.687(6)
H11 H 0.689(3) 1.192(12) 0.747(6)
C7A C 0.8384(2) -0.3050(7) 0.8942(4)
H2A H 0.8487 -0.3897 0.9330
N3A N 0.85015(18) -0.3285(6) 0.8124(3)
C9A C 0.7683(2) 0.1265(7) 0.8937(4)
N4A N 0.7618(3) 0.1699(7) 0.9743(3)
C10A C 0.7945(2) -0.0356(7) 0.8662(4)
C11A C 0.8041(2) -0.0650(7) 0.7811(4)
H4A H 0.7915 0.0130 0.7406
C12A C 0.8327(3) -0.2106(7) 0.7565(4)
H5A H 0.8400 -0.2272 0.6993
C13A C 0.8115(2) -0.1601(7) 0.9232(4)
H6A H 0.8049 -0.1463 0.9808
O1A O 0.89611(17) -0.8278(5) 0.3953(2)
O2A O 0.94050(16) -0.7387(5) 0.2842(2)
N1A N 0.9732(2) -0.0998(6) 0.3276(3)
C1A C 0.9234(2) -0.7117(7) 0.3579(3)
C2A C 0.9625(2) -0.2422(7) 0.3835(3)
Ni1A Ni 0.90329(3) -0.51993(8) 0.77802(4)
O3A O 0.91884(17) -0.4552(5) 0.6579(2)
O4A O 0.83676(19) -0.6495(6) 0.7174(3)
O5A O 0.93933(19) -0.1740(5) 0.6440(2)
C3A C 0.9357(2) -0.5406(7) 0.3997(3)
C4A C 0.9405(2) -0.3556(7) 0.5217(3)
C5A C 0.9329(2) -0.3250(7) 0.6157(3)
C6A C 0.9296(2) -0.5164(7) 0.4867(3)
H1A H 0.9183 -0.6080 0.5209
C8A C 0.9526(2) -0.4054(7) 0.3491(3)
H3A H 0.9573 -0.4235 0.2913
C14A C 0.9568(2) -0.2172(7) 0.4703(3)
H7A H 0.9639 -0.1087 0.4941
H8A H 0.992(5) -0.023(16) 0.349(8)
H9A H 0.998(5) -0.135(14) 0.278(7)
H10A H 0.850(4) -0.730(10) 0.687(6)
H11A H 0.811(3) -0.692(12) 0.747(6)
O1F O 0.60389(17) 1.1722(5) 0.8953(2)
O1G O 0.89611(17) -0.6722(5) 0.8953(2)
O2F O 0.55950(16) 1.2613(5) 0.7842(2)
O2G O 0.94050(16) -0.7613(5) 0.7842(2)
N1F N 0.5268(2) 0.9002(6) 0.8276(3)
N1G N 0.9732(2) -0.4002(6) 0.8276(3)
Ni1F Ni 0.59671(3) 0.48007(8) 0.27802(4)
Ni1F_2 Ni 0.59671(3) 1.48007(8) 0.27802(4)
Ni1G Ni 0.90329(3) -0.98007(8) 0.27802(4)
Ni1G_2 Ni 0.90329(3) 0.01993(8) 0.27802(4)
O6 O 0.6320(3) 0.4014(7) 0.5909(4)
H12 H 0.625(4) 0.377(12) 0.540(3)
H13 H 0.610(2) 0.479(5) 0.608(2)
O7 O 0.7356(4) 0.9315(10) 0.6111(4)
H14 H 0.7124 0.9914 0.6382
H15 H 0.7333 1.0005 0.5685
loop_
_geom_bond_atom_site_label_1
_geom_bond_atom_site_label_2
_geom_bond_site_symmetry_1
_geom_bond_site_symmetry_2
O1 C1 1_555 1_555
O2 C1 1_555 1_555
N1 C2 1_555 1_555
C1 C3 1_555 1_555
C2 C8 1_555 1_555
Ni1 O3 1_555 1_555
O3 C5 1_555 1_555
O4 Ni1 1_555 1_555
N2 C9 1_555 1_555
O5 C5 1_555 1_555
C3 C6 1_555 1_555
C4 C5 1_555 1_555
C6 C4 1_555 1_555
H1 C6 1_555 1_555
C7 H2 1_555 1_555
N3 Ni1 1_555 1_555
C8 C3 1_555 1_555
H3 C8 1_555 1_555
C9 N4 1_555 1_555
N4 N4A 1_555 1_555
C10 C9 1_555 1_555
C11 C10 1_555 1_555
H4 C11 1_555 1_555
C12 N3 1_555 1_555
H5 C12 1_555 1_555
C13 C7 1_555 1_555
H6 C13 1_555 1_555
C14 C2 1_555 1_555
H7 C14 1_555 1_555
H8 N1 1_555 1_555
H9 N1 1_555 1_555
H10 O4 1_555 1_555
H11 O4 1_555 1_555
O6 H12 1_555 1_555
H13 O6 1_555 1_555
O7 H14 1_555 1_555
H15 O7 1_555 1_555
C7A H2A 1_555 1_555
N3A C7A 1_555 1_555
C9A N2 1_555 1_555
N4A C9A 1_555 1_555
C10A C9A 1_555 1_555
C11A C10A 1_555 1_555
H4A C11A 1_555 1_555
C12A N3A 1_555 1_555
H5A C12A 1_555 1_555
C13A C7A 1_555 1_555
H6A C13A 1_555 1_555
O1A C1A 1_555 1_555
O2A C1A 1_555 1_555
N1A C2A 1_555 1_555
C1A C3A 1_555 1_555
C2A C8A 1_555 1_555
Ni1A N3A 1_555 1_555
O3A Ni1A 1_555 1_555
O4A Ni1A 1_555 1_555
O5A C5A 1_555 1_555
C3A C6A 1_555 1_555
C4A C5A 1_555 1_555
C5A O3A 1_555 1_555
C6A C4A 1_555 1_555
H1A C6A 1_555 1_555
C8A C3A 1_555 1_555
H3A C8A 1_555 1_555
C14A C2A 1_555 1_555
H7A C14A 1_555 1_555
H8A N1A 1_555 1_555
H9A N1A 1_555 1_555
H10A O4A 1_555 1_555
H11A O4A 1_555 1_555
O1F Ni1 1_555 1_555
O1G Ni1A 1_555 1_555
O2F Ni1 1_555 1_555
O2G Ni1A 1_555 1_555
N1F Ni1 1_555 1_555
N1G Ni1A 1_555 1_555
Ni1F N1 1_555 1_555
Ni1F_2 O1 1_555 1_555
Ni1G O1A 1_555 1_555
Ni1G_2 N1A 1_555 1_555
O2 Ni1F_2 1_555 1_555
C4 C14 1_555 1_555
C7 N3 1_555 1_555
C10 C13 1_555 1_555
C11 C12 1_555 1_555
C10A C13A 1_555 1_555
C11A C12A 1_555 1_555
O2A Ni1G 1_555 1_555
C4A C14A 1_555 1_555

#END
