
#######################################################################
#
#                 Cambridge Crystallographic Data Centre
#                                CCDC 
#
#######################################################################
#
# If this CIF has been generated from an entry in the Cambridge 
# Structural Database, then it will include bibliographic, chemical, 
# crystal, experimental, refinement or atomic coordinate data resulting 
# from the CCDC's data processing and validation procedures.
#
#######################################################################

data_QOSGIO
_symmetry_cell_setting           monoclinic
_symmetry_space_group_name_H-M   'P 21/n'
_symmetry_Int_Tables_number      14
_space_group_name_Hall           '-P 2yn'
loop_
_symmetry_equiv_pos_site_id
_symmetry_equiv_pos_as_xyz
1 x,y,z
2 1/2+x,1/2-y,1/2+z
3 -x,-y,-z
4 1/2-x,1/2+y,1/2-z
_cell_length_a                   9.722(3)
_cell_length_b                   23.218(3)
_cell_length_c                   15.305(2)
_cell_angle_alpha                90
_cell_angle_beta                 93.62(2)
_cell_angle_gamma                90
_cell_volume                     3447.83
loop_
_atom_site_label
_atom_site_type_symbol
_atom_site_fract_x
_atom_site_fract_y
_atom_site_fract_z
Cu1 Cu 0.70145(6) 0.00818(2) 0.21627(4)
Cu2 Cu 0.56223(6) 0.20886(2) 0.25161(4)
Cu3 Cu 0.53443(6) 0.42116(2) 0.21783(4)
O1 O 0.7917(4) 0.0737(1) 0.1606(2)
O2 O 0.6469(4) 0.3702(1) 0.1479(2)
O3 O 0.8026(3) -0.0542(1) 0.1697(2)
O4 O 0.6357(4) -0.0595(2) 0.0666(2)
O5 O 0.3738(3) 0.1920(1) 0.2815(2)
O6 O 0.2982(5) 0.1523(2) 0.1557(3)
O7 O 0.6093(4) 0.2150(2) 0.3890(2)
O8 O 0.8209(4) 0.2381(2) 0.3566(3)
O9 O 0.8902(3) -0.0083(1) 0.3256(2)
O10 O 1.0825(4) 0.0082(2) 0.4046(3)
N1 N 0.5681(4) -0.0376(2) 0.2832(3)
N2 N 0.4832(5) 0.0952(2) 0.3894(3)
N3 N 0.6013(4) 0.0703(2) 0.2653(3)
N4 N 0.6387(4) 0.1256(2) 0.2415(2)
N5 N 0.6985(4) 0.2200(2) 0.1665(2)
N6 N 0.5356(4) 0.2985(2) 0.2222(3)
N7 N 0.4679(4) 0.3473(2) 0.2531(2)
N8 N 0.3044(5) 0.2990(2) 0.3327(3)
N9 N 0.3843(4) 0.4479(2) 0.2915(3)
C1 C 0.5424(6) -0.0929(2) 0.2799(4)
C2 C 0.4488(6) -0.1199(2) 0.3319(4)
C3 C 0.3797(6) -0.0860(3) 0.3881(4)
C4 C 0.4068(6) -0.0271(2) 0.3911(4)
C5 C 0.4976(5) -0.0042(2) 0.3392(3)
C6 C 0.5277(5) 0.0585(2) 0.3318(3)
C7 C 0.7345(5) 0.1208(2) 0.1827(3)
C8 C 0.7722(5) 0.1757(2) 0.1419(3)
C9 C 0.8702(5) 0.1816(2) 0.0818(3)
C10 C 0.8901(6) 0.2351(2) 0.0448(3)
C11 C 0.8099(5) 0.2813(2) 0.0693(3)
C12 C 0.7175(5) 0.2726(2) 0.1322(3)
C13 C 0.6267(5) 0.3175(2) 0.1682(3)
C14 C 0.3656(5) 0.3450(2) 0.3032(3)
C15 C 0.3203(5) 0.4043(2) 0.3295(3)
C16 C 0.2243(6) 0.4139(2) 0.3906(4)
C17 C 0.1919(6) 0.4691(3) 0.4118(4)
C18 C 0.2566(7) 0.5141(2) 0.3707(4)
C19 C 0.3535(6) 0.5019(2) 0.3119(4)
C20 C 0.7479(6) -0.0758(2) 0.0981(3)
C21 C 0.8322(7) -0.1215(3) 0.0566(4)
C22 C 0.2810(6) 0.1683(2) 0.2300(4)
C23 C 0.1447(7) 0.1607(3) 0.2702(5)
C24 C 0.7347(6) 0.2252(2) 0.4089(4)
C25 C 0.7796(7) 0.2222(3) 0.5051(4)
C26 C 0.9650(5) 0.0220(2) 0.3797(3)
C27 C 0.8983(6) 0.0756(2) 0.4141(4)
H1 H 0.5890 -0.1155 0.2393
H2 H 0.4340 -0.1602 0.3283
H3 H 0.3149 -0.1025 0.4246
H4 H 0.3601 -0.0031 0.4295
H5 H 0.9244 0.1494 0.0664
H6 H 0.9568 0.2400 0.0027
H7 H 0.8187 0.3181 0.0431
H8 H 0.1818 0.3821 0.4178
H9 H 0.1261 0.4767 0.4537
H10 H 0.2358 0.5531 0.3836
H11 H 0.4000 0.5327 0.2851
H12 H 0.4311 0.0822 0.4210
H13 H 0.4936 0.1219 0.3880
H14 H 0.2332 0.2989 0.3555
H15 H 0.3358 0.2623 0.3211
H16 H 0.8735 -0.1452 0.1005
H17 H 0.7729 -0.1437 0.0177
H18 H 0.9003 -0.1033 0.0244
H19 H 0.1545 0.1621 0.3332
H20 H 0.0804 0.1906 0.2515
H21 H 0.1027 0.1245 0.2540
H22 H 0.7036 0.2267 0.5414
H23 H 0.8229 0.1856 0.5203
H24 H 0.8463 0.2517 0.5218
H25 H 0.8672 0.0992 0.3668
H26 H 0.8227 0.0647 0.4471
H27 H 0.9641 0.0958 0.4511
O3C O 0.6974(3) 0.4458(1) 0.3303(2)
O9C O 0.6098(3) 0.4917(1) 0.1744(2)
Cu3C Cu 0.96557(6) -0.07884(2) 0.28217(4)
O11 O 0.5082(4) 0.1343(2) 0.0443(3)
H30 H 0.4476 0.1151 0.0136
H31 H 0.4463 0.1449 0.0733
O12 O 0.2643(4) 0.0736(2) 0.5042(2)
H28 H 0.2382 0.0816 0.5494
H29 H 0.2009 0.0630 0.4766
O13 O 0.5563(5) 0.2114(2) 0.9152(3)
loop_
_geom_bond_atom_site_label_1
_geom_bond_atom_site_label_2
_geom_bond_site_symmetry_1
_geom_bond_site_symmetry_2
Cu1 O1 1_555 1_555
Cu2 O5 1_555 1_555
Cu3 O2 1_555 1_555
O1 C7 1_555 1_555
O2 C13 1_555 1_555
O3 Cu1 1_555 1_555
O4 C20 1_555 1_555
O5 C22 1_555 1_555
O6 C22 1_555 1_555
O7 Cu2 1_555 1_555
O8 C24 1_555 1_555
O9 Cu1 1_555 1_555
O10 C26 1_555 1_555
O11 H30 1_555 1_555
O12 H28 1_555 1_555
N1 Cu1 1_555 1_555
N2 C6 1_555 1_555
N3 Cu1 1_555 1_555
N4 Cu2 1_555 1_555
N5 Cu2 1_555 1_555
N6 Cu2 1_555 1_555
N7 Cu3 1_555 1_555
N8 C14 1_555 1_555
N9 Cu3 1_555 1_555
C1 N1 1_555 1_555
C2 C1 1_555 1_555
C3 C2 1_555 1_555
C4 C3 1_555 1_555
C5 N1 1_555 1_555
C6 N3 1_555 1_555
C7 N4 1_555 1_555
C8 N5 1_555 1_555
C9 C8 1_555 1_555
C10 C9 1_555 1_555
C11 C10 1_555 1_555
C12 N5 1_555 1_555
C13 N6 1_555 1_555
C14 N7 1_555 1_555
C15 N9 1_555 1_555
C16 C15 1_555 1_555
C17 C16 1_555 1_555
C18 C17 1_555 1_555
C19 N9 1_555 1_555
C20 O3 1_555 1_555
C21 C20 1_555 1_555
C22 C23 1_555 1_555
C23 H19 1_555 1_555
C24 O7 1_555 1_555
C25 C24 1_555 1_555
C26 O9 1_555 1_555
C27 C26 1_555 1_555
H1 C1 1_555 1_555
H2 C2 1_555 1_555
H3 C3 1_555 1_555
H4 C4 1_555 1_555
H5 C9 1_555 1_555
H6 C10 1_555 1_555
H7 C11 1_555 1_555
H8 C16 1_555 1_555
H9 C17 1_555 1_555
H10 C18 1_555 1_555
H11 C19 1_555 1_555
H12 N2 1_555 1_555
H13 N2 1_555 1_555
H14 N8 1_555 1_555
H15 N8 1_555 1_555
H16 C21 1_555 1_555
H17 C21 1_555 1_555
H18 C21 1_555 1_555
H20 C23 1_555 1_555
H21 C23 1_555 1_555
H22 C25 1_555 1_555
H23 C25 1_555 1_555
H24 C25 1_555 1_555
H25 C27 1_555 1_555
H26 C27 1_555 1_555
H27 C27 1_555 1_555
H29 O12 1_555 1_555
H31 O11 1_555 1_555
O3C Cu3 1_555 1_555
O9C Cu3 1_555 1_555
Cu3C O3 1_555 1_555
O9 Cu3C 1_555 1_555
N3 N4 1_555 1_555
N6 N7 1_555 1_555
C4 C5 1_555 1_555
C5 C6 1_555 1_555
C7 C8 1_555 1_555
C11 C12 1_555 1_555
C12 C13 1_555 1_555
C14 C15 1_555 1_555
C18 C19 1_555 1_555

#END
