
#######################################################################
#
#                 Cambridge Crystallographic Data Centre
#                                CCDC 
#
#######################################################################
#
# If this CIF has been generated from an entry in the Cambridge 
# Structural Database, then it will include bibliographic, chemical, 
# crystal, experimental, refinement or atomic coordinate data resulting 
# from the CCDC's data processing and validation procedures.
#
#######################################################################

data_QOSPAR
_symmetry_cell_setting           monoclinic
_symmetry_space_group_name_H-M   'P 2/n'
_symmetry_Int_Tables_number      13
_space_group_name_Hall           '-P 2yac'
loop_
_symmetry_equiv_pos_site_id
_symmetry_equiv_pos_as_xyz
1 x,y,z
2 1/2-x,y,1/2-z
3 -x,-y,-z
4 1/2+x,-y,1/2+z
_cell_length_a                   10.3949(2)
_cell_length_b                   11.3275(2)
_cell_length_c                   18.6129(3)
_cell_angle_alpha                90
_cell_angle_beta                 102.9990(10)
_cell_angle_gamma                90
_cell_volume                     2135.47
loop_
_atom_site_label
_atom_site_type_symbol
_atom_site_fract_x
_atom_site_fract_y
_atom_site_fract_z
Ni1 Ni 0.2500 0.28913(3) 0.7500
Ni2 Ni 0.7500 0.32594(3) 0.7500
N1 N 0.14726(19) 0.4139(2) 0.54091(11)
N2 N 0.3239(2) 0.4816(2) 0.49319(13)
N3 N 0.2500 0.4793(2) 0.7500
N4 N 0.2500 1.1035(2) 0.7500
N5 N 0.7500 0.5133(2) 0.7500
N6 N 0.7500 1.1410(2) 0.7500
O1 O 0.16508(16) 0.30042(14) 0.64125(9)
O2 O 0.43007(14) 0.28674(13) 0.72698(9)
O3 O 0.58274(15) 0.33074(14) 0.66603(9)
O4 O 0.64798(16) 0.31593(15) 0.83438(9)
O5 O 0.11177(19) 0.5352(2) 0.44261(12)
C1 C 0.4642(2) 0.32392(19) 0.66946(13)
C2 C 0.3624(2) 0.3657(2) 0.60610(13)
C3 C 0.2243(2) 0.3555(2) 0.60022(13)
C4 C 0.1932(3) 0.4801(3) 0.48998(15)
C5 C 0.4004(3) 0.4275(3) 0.54966(15)
H1 H 0.4906 0.4310 0.5521
C6 C 0.1421(3) 0.5405(2) 0.71978(17)
H2 H 0.0660 0.4991 0.6981
C7 C 0.1377(3) 0.6613(2) 0.7190(2)
H3 H 0.0594 0.6998 0.6977
C8 C 0.2500 0.7268(3) 0.7500
C9 C 0.2500 0.8568(3) 0.7500
C10 C 0.3639(3) 0.9206(3) 0.7571(3)
H4 H 0.4446 0.8820 0.7633
C11 C 0.3589(3) 1.0408(3) 0.7552(3)
H5 H 0.4375 1.0815 0.7577
C12 C 0.7937(3) 0.5742(2) 0.81159(16)
H6 H 0.8234 0.5332 0.8554
C13 C 0.7967(3) 0.6968(2) 0.81320(16)
H7 H 0.8305 0.7359 0.8573
C14 C 0.7500 0.7602(3) 0.7500
C15 C 0.7500 0.8930(3) 0.7500
C16 C 0.7825(4) 0.9577(2) 0.81374(17)
H8 H 0.8053 0.9192 0.8589
C17 C 0.7817(3) 1.0785(2) 0.81148(16)
H9 H 0.8048 1.1191 0.8559
C6A C 0.3579(3) 0.5405(2) 0.78022(17)
H2A H 0.4340 0.4991 0.8019
C7A C 0.3623(3) 0.6613(2) 0.7810(2)
H3A H 0.4406 0.6998 0.8023
C10A C 0.1361(3) 0.9206(3) 0.7429(3)
H4A H 0.0554 0.8820 0.7367
C11A C 0.1411(3) 1.0408(3) 0.7448(3)
H5A H 0.0625 1.0815 0.7423
C12A C 0.7063(3) 0.5742(2) 0.68841(16)
H6A H 0.6766 0.5332 0.6446
C13A C 0.7033(3) 0.6968(2) 0.68680(16)
H7A H 0.6695 0.7359 0.6427
C16A C 0.7175(4) 0.9577(2) 0.68626(17)
H8A H 0.6947 0.9192 0.6411
C17A C 0.7183(3) 1.0785(2) 0.68852(16)
H9A H 0.6952 1.1191 0.6441
N1A N 0.35274(19) 0.4139(2) 0.95909(11)
N2A N 0.1761(2) 0.4816(2) 1.00681(13)
O1A O 0.33492(16) 0.30042(14) 0.85875(9)
O2A O 0.06993(14) 0.28674(13) 0.77302(9)
O3A O -0.08274(15) 0.33074(14) 0.83397(9)
O5A O 0.38823(19) 0.5352(2) 1.05739(12)
C1A C 0.0358(2) 0.32392(19) 0.83054(13)
C2A C 0.1376(2) 0.3657(2) 0.89390(13)
C3A C 0.2757(2) 0.3555(2) 0.89978(13)
C4A C 0.3068(3) 0.4801(3) 1.01002(15)
C5A C 0.0996(3) 0.4275(3) 0.95034(15)
H1A H 0.0094 0.4310 0.9479
O4A O 0.85202(16) 0.31593(15) 0.66562(9)
Ni1_2 Ni 0.2500 1.28913(3) 0.7500
Ni2_2 Ni -0.2500 0.32594(3) 0.7500
Ni2_3 Ni 0.7500 1.32594(3) 0.7500
N4_2 N 0.2500 0.1035(2) 0.7500
N6_2 N 0.7500 0.1410(2) 0.7500
O3A_2 O 0.91726(15) 0.33074(14) 0.83397(9)
C18 C 0.0681(3) 0.9750(7) 0.5131(4)
C19 C 0.0973(9) 0.8606(7) 0.4961(4)
H10 H 0.0300 0.8106 0.4726
C20 C 0.2293(10) 0.8193(6) 0.5143(4)
H11 H 0.2499 0.7422 0.5040
N7 N 0.3255(7) 0.8967(7) 0.5477(4)
C21 C 0.2995(9) 1.0110(8) 0.5639(4)
H12 H 0.3678 1.0616 0.5854
C22 C 0.1686(9) 1.0505(7) 0.5474(4)
H13 H 0.1490 1.1271 0.5594
C18B C -0.0681(3) 1.0250(7) 0.4869(4)
C19B C -0.0973(9) 1.1394(7) 0.5039(4)
H10B H -0.0300 1.1894 0.5274
C20B C -0.2293(10) 1.1807(6) 0.4857(4)
H11B H -0.2499 1.2578 0.4960
N7B N -0.3255(7) 1.1033(7) 0.4523(4)
C21B C -0.2995(9) 0.9890(8) 0.4361(4)
H12B H -0.3678 0.9384 0.4146
C22B C -0.1686(9) 0.9495(7) 0.4526(4)
H13B H -0.1490 0.8729 0.4406
loop_
_geom_bond_atom_site_label_1
_geom_bond_atom_site_label_2
_geom_bond_site_symmetry_1
_geom_bond_site_symmetry_2
Ni1 N3 1_555 1_555
Ni2 N5 1_555 1_555
N1 C3 1_555 1_555
N2 C4 1_555 1_555
N3 C6 1_555 1_555
N4 C11 1_555 1_555
N5 C12 1_555 1_555
N6 C17 1_555 1_555
O1 Ni1 1_555 1_555
O2 Ni1 1_555 1_555
O3 Ni2 1_555 1_555
O4 Ni2 1_555 1_555
O5 C4 1_555 1_555
C1 O2 1_555 1_555
C2 C1 1_555 1_555
C3 O1 1_555 1_555
C4 N1 1_555 1_555
C5 N2 1_555 1_555
H1 C5 1_555 1_555
C6 H2 1_555 1_555
C7 C6 1_555 1_555
H3 C7 1_555 1_555
C8 C7 1_555 1_555
C9 C8 1_555 1_555
C10 C9 1_555 1_555
H4 C10 1_555 1_555
C11 C10 1_555 1_555
H5 C11 1_555 1_555
C12 H6 1_555 1_555
C13 C12 1_555 1_555
H7 C13 1_555 1_555
C14 C13 1_555 1_555
C15 C14 1_555 1_555
C16 C15 1_555 1_555
H8 C16 1_555 1_555
C17 C16 1_555 1_555
H9 C17 1_555 1_555
C18 C19 1_555 1_555
C19 H10 1_555 1_555
C20 C19 1_555 1_555
H11 C20 1_555 1_555
N7 C20 1_555 1_555
C21 N7 1_555 1_555
H12 C21 1_555 1_555
C22 C18 1_555 1_555
H13 C22 1_555 1_555
C6A N3 1_555 1_555
H2A C6A 1_555 1_555
C7A C8 1_555 1_555
H3A C7A 1_555 1_555
C10A C9 1_555 1_555
H4A C10A 1_555 1_555
C11A N4 1_555 1_555
H5A C11A 1_555 1_555
C12A N5 1_555 1_555
H6A C12A 1_555 1_555
C13A C14 1_555 1_555
H7A C13A 1_555 1_555
C16A C15 1_555 1_555
H8A C16A 1_555 1_555
C17A N6 1_555 1_555
H9A C17A 1_555 1_555
N1A C3A 1_555 1_555
N2A C4A 1_555 1_555
O1A Ni1 1_555 1_555
O2A Ni1 1_555 1_555
O3A C1A 1_555 1_555
O5A C4A 1_555 1_555
C1A O2A 1_555 1_555
C2A C1A 1_555 1_555
C3A O1A 1_555 1_555
C4A N1A 1_555 1_555
C5A N2A 1_555 1_555
H1A C5A 1_555 1_555
O4A Ni2 1_555 1_555
Ni1_2 N4 1_555 1_555
Ni2_2 O3A 1_555 1_555
Ni2_3 N6 1_555 1_555
N4_2 Ni1 1_555 1_555
N6_2 Ni2 1_555 1_555
O3A_2 Ni2 1_555 1_555
C18B C18 1_555 1_555
C19B C18B 1_555 1_555
H10B C19B 1_555 1_555
C20B C19B 1_555 1_555
H11B C20B 1_555 1_555
N7B C20B 1_555 1_555
C21B N7B 1_555 1_555
H12B C21B 1_555 1_555
C22B C18B 1_555 1_555
H13B C22B 1_555 1_555
O3 C1 1_555 1_555
C2 C3 1_555 1_555
C2 C5 1_555 1_555
C21 C22 1_555 1_555
C6A C7A 1_555 1_555
C10A C11A 1_555 1_555
C12A C13A 1_555 1_555
C16A C17A 1_555 1_555
C2A C3A 1_555 1_555
C2A C5A 1_555 1_555
C21B C22B 1_555 1_555

#END
