
#######################################################################
#
#                 Cambridge Crystallographic Data Centre
#                                CCDC 
#
#######################################################################
#
# If this CIF has been generated from an entry in the Cambridge 
# Structural Database, then it will include bibliographic, chemical, 
# crystal, experimental, refinement or atomic coordinate data resulting 
# from the CCDC's data processing and validation procedures.
#
#######################################################################

data_QOSTUP
_symmetry_cell_setting           triclinic
_symmetry_space_group_name_H-M   'P -1'
_symmetry_Int_Tables_number      2
_space_group_name_Hall           '-P 1'
loop_
_symmetry_equiv_pos_site_id
_symmetry_equiv_pos_as_xyz
1 x,y,z
2 -x,-y,-z
_cell_length_a                   11.7907(8)
_cell_length_b                   13.2246(9)
_cell_length_c                   13.9109(10)
_cell_angle_alpha                71.3254(14)
_cell_angle_beta                 70.1036(13)
_cell_angle_gamma                80.0314(15)
_cell_volume                     1927.22
loop_
_atom_site_label
_atom_site_type_symbol
_atom_site_fract_x
_atom_site_fract_y
_atom_site_fract_z
Ni1 Ni 0.74530(2) 0.28387(2) 0.42026(2)
S1 S 0.74236(3) 0.40865(2) 0.58997(2)
S2 S 0.76861(3) 0.05473(2) 0.36575(2)
O1 O 0.71675(8) 0.39820(7) 0.49752(7)
O2 O 0.66302(9) 0.49235(9) 0.63015(9)
O3 O 0.74746(9) 0.30749(8) 0.66984(7)
O4 O 0.76909(8) 0.17208(7) 0.33574(7)
O5 O 0.84244(8) 0.00156(8) 0.43576(7)
O6 O 0.79573(9) 0.01681(8) 0.27330(7)
O7 O 0.80734(9) 0.16181(8) 0.53170(8)
H1 H 0.7989(19) 0.1513(17) 0.5892(18)
H2 H 0.828(2) 0.1075(19) 0.5109(18)
O8 O 0.92093(8) 0.31914(8) 0.34200(7)
O9 O 0.56736(8) 0.25295(7) 0.50054(7)
N1 N 0.69322(9) 0.39943(8) 0.28806(8)
N2 N 0.63473(10) 0.53085(8) 0.12907(8)
H3 H 0.6141(18) 0.5754(16) 0.0750(16)
N3 N 1.12022(10) 0.31832(9) 0.31495(10)
N4 N 0.41656(10) 0.20252(9) 0.65635(9)
C1 C 0.88887(11) 0.45673(10) 0.53845(9)
C2 C 0.91292(11) 0.54438(10) 0.44835(10)
H4 H 0.8535 0.5741 0.4130
C3 C 0.97587(11) 0.41169(10) 0.58985(10)
H5 H 0.9594 0.3512 0.6507
C4 C 0.61786(11) 0.02406(9) 0.44174(9)
C5 C 0.52829(12) 0.05400(10) 0.39150(10)
H6 H 0.5481 0.0907 0.3176
C6 C 0.40999(11) 0.02984(10) 0.45014(10)
H7 H 0.3483 0.0500 0.4166
C7 C 0.59443(11) 0.35988(10) 0.26826(10)
H8 H 0.5273 0.3404 0.3355
H9 H 0.6253 0.2949 0.2440
C8 C 0.54673(11) 0.44586(10) 0.18335(10)
H10 H 0.5390 0.4137 0.1308
H11 H 0.4661 0.4770 0.2174
C9 C 0.64954(12) 0.50587(10) 0.30765(10)
H12 H 0.7088 0.5297 0.3304
H13 H 0.5718 0.4997 0.3657
C10 C 0.63222(12) 0.58911(10) 0.20625(10)
H14 H 0.5539 0.6314 0.2239
H15 H 0.6977 0.6387 0.1743
C11 C 0.79876(11) 0.41562(10) 0.18917(9)
H16 H 0.8373 0.3452 0.1801
H17 H 0.8592 0.4542 0.1959
C12 C 0.75919(11) 0.48000(10) 0.09078(9)
H18 H 0.8161 0.5357 0.0446
H19 H 0.7586 0.4321 0.0490
C13 C 1.01095(11) 0.28774(10) 0.37402(10)
H20 H 1.0007 0.2401 0.4435
C14 C 1.13575(14) 0.39362(13) 0.20843(13)
H21 H 1.1178 0.3594 0.1628
H22 H 1.2193 0.4143 0.1774
H23 H 1.0805 0.4575 0.2139
C15 C 1.22479(13) 0.28236(13) 0.35390(14)
H24 H 1.2541 0.3434 0.3616
H25 H 1.2890 0.2510 0.3031
H26 H 1.2015 0.2285 0.4232
C16 C 0.53159(11) 0.21124(11) 0.59861(10)
H27 H 0.5909 0.1838 0.6344
C17 C 0.32040(13) 0.24514(12) 0.60798(12)
H28 H 0.3483 0.3055 0.5449
H29 H 0.2497 0.2696 0.6594
H30 H 0.2983 0.1891 0.5869
C18 C 0.38187(13) 0.14025(12) 0.76814(11)
H31 H 0.3523 0.0726 0.7752
H32 H 0.3178 0.1809 0.8101
H33 H 0.4522 0.1255 0.7942
S1A S 1.25764(3) 0.59135(2) 0.41003(2)
O1A O 1.28325(8) 0.60180(7) 0.50248(7)
O2A O 1.33698(9) 0.50765(9) 0.36985(9)
O3A O 1.25254(9) 0.69251(8) 0.33016(7)
C1A C 1.11113(11) 0.54327(10) 0.46155(9)
C2A C 1.08708(11) 0.45562(10) 0.55165(10)
H4A H 1.1465 0.4259 0.5870
C3A C 1.02413(11) 0.58831(10) 0.41015(10)
H5A H 1.0406 0.6488 0.3493
S2A S 0.23139(3) -0.05473(2) 0.63425(2)
O4A O 0.23091(8) -0.17208(7) 0.66426(7)
O5A O 0.15756(8) -0.00156(8) 0.56424(7)
O6A O 0.20427(9) -0.01681(8) 0.72670(7)
C4A C 0.38214(11) -0.02406(9) 0.55826(9)
C5A C 0.47171(12) -0.05400(10) 0.60850(10)
H6A H 0.4519 -0.0907 0.6824
C6A C 0.59001(11) -0.02984(10) 0.54986(10)
H7A H 0.6517 -0.0500 0.5834
Ni1A Ni 0.25470(2) -0.28387(2) 0.57974(2)
O7A O 0.19266(9) -0.16181(8) 0.46830(8)
H1A H 0.2011(19) -0.1513(17) 0.4108(18)
H2A H 0.172(2) -0.1075(19) 0.4891(18)
O8A O 0.07907(8) -0.31914(8) 0.65800(7)
O9A O 0.43264(8) -0.25295(7) 0.49946(7)
N1A N 0.30678(9) -0.39943(8) 0.71194(8)
N2A N 0.36527(10) -0.53085(8) 0.87093(8)
H3A H 0.3859(18) -0.5754(16) 0.9250(16)
N3A N -0.12022(10) -0.31832(9) 0.68505(10)
N4A N 0.58344(10) -0.20252(9) 0.34365(9)
C7A C 0.40557(11) -0.35988(10) 0.73174(10)
H8A H 0.4727 -0.3404 0.6645
H9A H 0.3747 -0.2949 0.7560
C8A C 0.45327(11) -0.44586(10) 0.81665(10)
H10A H 0.4610 -0.4137 0.8692
H11A H 0.5339 -0.4770 0.7826
C9A C 0.35046(12) -0.50587(10) 0.69235(10)
H12A H 0.2912 -0.5297 0.6696
H13A H 0.4282 -0.4997 0.6343
C10A C 0.36778(12) -0.58911(10) 0.79375(10)
H14A H 0.4461 -0.6314 0.7761
H15A H 0.3023 -0.6387 0.8257
C11A C 0.20124(11) -0.41562(10) 0.81083(9)
H16A H 0.1627 -0.3452 0.8199
H17A H 0.1408 -0.4542 0.8041
C12A C 0.24081(11) -0.48000(10) 0.90922(9)
H18A H 0.1839 -0.5357 0.9554
H19A H 0.2414 -0.4321 0.9510
C13A C -0.01095(11) -0.28774(10) 0.62598(10)
H20A H -0.0007 -0.2401 0.5565
C14A C -0.13575(14) -0.39362(13) 0.79157(13)
H21A H -0.1178 -0.3594 0.8372
H22A H -0.2193 -0.4143 0.8226
H23A H -0.0805 -0.4575 0.7861
C15A C -0.22479(13) -0.28236(13) 0.64610(14)
H24A H -0.2541 -0.3434 0.6384
H25A H -0.2890 -0.2510 0.6969
H26A H -0.2015 -0.2285 0.5768
C16A C 0.46841(11) -0.21124(11) 0.40139(10)
H27A H 0.4091 -0.1838 0.3656
C17A C 0.67960(13) -0.24514(12) 0.39202(12)
H28A H 0.6517 -0.3055 0.4551
H29A H 0.7503 -0.2696 0.3406
H30A H 0.7017 -0.1891 0.4131
C18A C 0.61813(13) -0.14025(12) 0.23186(11)
H31A H 0.6477 -0.0726 0.2248
H32A H 0.6822 -0.1809 0.1899
H33A H 0.5478 -0.1255 0.2058
Ni1A_2 Ni 1.25470(2) 0.71613(2) 0.57974(2)
O1A_2 O 0.28325(8) -0.39820(7) 0.50248(7)
S3 S 1.03861(3) 0.28715(2) -0.08670(2)
S4 S 0.47721(3) 0.23522(2) 0.04954(2)
O10 O 1.05581(9) 0.32482(8) -0.00565(8)
O11 O 1.07215(9) 0.35985(8) -0.19343(8)
O12 O 1.09328(8) 0.17762(8) -0.08312(7)
O13 O 0.42039(8) 0.34331(7) 0.05034(7)
O14 O 0.44497(9) 0.15882(8) 0.15428(8)
O15 O 0.46035(9) 0.20202(9) -0.03442(8)
C19 C 0.88065(10) 0.27416(9) -0.04921(9)
C20 C 0.81433(11) 0.32708(10) -0.11901(9)
H34 H 0.8532 0.3715 -0.1876
C21 C 0.69113(11) 0.31491(10) -0.08840(9)
H35 H 0.6456 0.3511 -0.1358
C22 C 0.63488(10) 0.24918(9) 0.01233(9)
C23 C 0.70138(11) 0.19523(10) 0.08187(9)
H36 H 0.6628 0.1498 0.1500
C24 C 0.82437(11) 0.20806(10) 0.05135(9)
H37 H 0.8699 0.1720 0.0988
N5 N 0.81133(10) 0.06190(8) 0.73614(8)
N6 N 0.84497(10) -0.05798(8) 0.90790(9)
H38 H 0.8557(18) -0.0996(16) 0.9669(16)
C25 C 0.69862(11) 0.06022(10) 0.82512(10)
H39 H 0.6357 0.0293 0.8130
H40 H 0.6695 0.1344 0.8280
C26 C 0.71894(12) -0.00645(10) 0.93212(10)
H41 H 0.7087 0.0403 0.9781
H42 H 0.6597 -0.0618 0.9698
C27 C 0.90715(12) 0.10156(10) 0.75800(10)
H43 H 0.8815 0.1744 0.7664
H44 H 0.9820 0.1060 0.6969
C28 C 0.93310(12) 0.02688(11) 0.85992(11)
H45 H 1.0169 -0.0060 0.8424
H46 H 0.9237 0.0679 0.9109
C29 C 0.84844(13) -0.04809(10) 0.72781(10)
H47 H 0.9264 -0.0485 0.6707
H48 H 0.7872 -0.0735 0.7085
C30 C 0.86208(13) -0.12414(10) 0.83360(11)
H49 H 0.8007 -0.1777 0.8645
H50 H 0.9433 -0.1625 0.8217
loop_
_geom_bond_atom_site_label_1
_geom_bond_atom_site_label_2
_geom_bond_site_symmetry_1
_geom_bond_site_symmetry_2
Ni1 O1 1_555 1_555
S1 O1 1_555 1_555
S2 O4 1_555 1_555
O2 S1 1_555 1_555
O3 S1 1_555 1_555
O4 Ni1 1_555 1_555
O5 S2 1_555 1_555
O6 S2 1_555 1_555
O7 Ni1 1_555 1_555
H1 O7 1_555 1_555
H2 O7 1_555 1_555
O8 Ni1 1_555 1_555
O9 Ni1 1_555 1_555
N1 Ni1 1_555 1_555
N2 H3 1_555 1_555
N3 C13 1_555 1_555
N4 C16 1_555 1_555
C1 S1 1_555 1_555
C2 C1 1_555 1_555
H4 C2 1_555 1_555
C3 C1 1_555 1_555
H5 C3 1_555 1_555
C4 S2 1_555 1_555
C5 C4 1_555 1_555
H6 C5 1_555 1_555
C6 C5 1_555 1_555
H7 C6 1_555 1_555
C7 N1 1_555 1_555
H8 C7 1_555 1_555
H9 C7 1_555 1_555
C8 N2 1_555 1_555
H10 C8 1_555 1_555
H11 C8 1_555 1_555
C9 N1 1_555 1_555
H12 C9 1_555 1_555
H13 C9 1_555 1_555
C10 N2 1_555 1_555
H14 C10 1_555 1_555
H15 C10 1_555 1_555
C11 N1 1_555 1_555
H16 C11 1_555 1_555
H17 C11 1_555 1_555
C12 N2 1_555 1_555
H18 C12 1_555 1_555
H19 C12 1_555 1_555
C13 O8 1_555 1_555
H20 C13 1_555 1_555
C14 N3 1_555 1_555
H21 C14 1_555 1_555
H22 C14 1_555 1_555
H23 C14 1_555 1_555
C15 N3 1_555 1_555
H24 C15 1_555 1_555
H25 C15 1_555 1_555
H26 C15 1_555 1_555
C16 O9 1_555 1_555
H27 C16 1_555 1_555
C17 N4 1_555 1_555
H28 C17 1_555 1_555
H29 C17 1_555 1_555
H30 C17 1_555 1_555
C18 N4 1_555 1_555
H31 C18 1_555 1_555
H32 C18 1_555 1_555
H33 C18 1_555 1_555
S3 O10 1_555 1_555
S4 O13 1_555 1_555
O11 S3 1_555 1_555
O12 S3 1_555 1_555
O14 S4 1_555 1_555
O15 S4 1_555 1_555
C19 S3 1_555 1_555
C20 C19 1_555 1_555
H34 C20 1_555 1_555
C21 C20 1_555 1_555
H35 C21 1_555 1_555
C22 S4 1_555 1_555
C23 C22 1_555 1_555
H36 C23 1_555 1_555
C24 C19 1_555 1_555
H37 C24 1_555 1_555
N5 C25 1_555 1_555
N6 H38 1_555 1_555
C25 H39 1_555 1_555
H40 C25 1_555 1_555
C26 N6 1_555 1_555
H41 C26 1_555 1_555
H42 C26 1_555 1_555
C27 N5 1_555 1_555
H43 C27 1_555 1_555
H44 C27 1_555 1_555
C28 N6 1_555 1_555
H45 C28 1_555 1_555
H46 C28 1_555 1_555
C29 N5 1_555 1_555
H47 C29 1_555 1_555
H48 C29 1_555 1_555
C30 N6 1_555 1_555
H49 C30 1_555 1_555
H50 C30 1_555 1_555
S1A O1A 1_555 1_555
O1A Ni1A_2 1_555 1_555
O2A S1A 1_555 1_555
O3A S1A 1_555 1_555
C1A S1A 1_555 1_555
C2A C3 1_555 1_555
H4A C2A 1_555 1_555
C3A C2 1_555 1_555
H5A C3A 1_555 1_555
S2A O4A 1_555 1_555
O4A Ni1A 1_555 1_555
O5A S2A 1_555 1_555
O6A S2A 1_555 1_555
C4A C6 1_555 1_555
C5A C4A 1_555 1_555
H6A C5A 1_555 1_555
C6A C4 1_555 1_555
H7A C6A 1_555 1_555
Ni1A O7A 1_555 1_555
O7A H1A 1_555 1_555
H2A O7A 1_555 1_555
O8A Ni1A 1_555 1_555
O9A Ni1A 1_555 1_555
N1A Ni1A 1_555 1_555
N2A H3A 1_555 1_555
N3A C13A 1_555 1_555
N4A C16A 1_555 1_555
C7A N1A 1_555 1_555
H8A C7A 1_555 1_555
H9A C7A 1_555 1_555
C8A N2A 1_555 1_555
H10A C8A 1_555 1_555
H11A C8A 1_555 1_555
C9A N1A 1_555 1_555
H12A C9A 1_555 1_555
H13A C9A 1_555 1_555
C10A N2A 1_555 1_555
H14A C10A 1_555 1_555
H15A C10A 1_555 1_555
C11A N1A 1_555 1_555
H16A C11A 1_555 1_555
H17A C11A 1_555 1_555
C12A N2A 1_555 1_555
H18A C12A 1_555 1_555
H19A C12A 1_555 1_555
C13A O8A 1_555 1_555
H20A C13A 1_555 1_555
C14A N3A 1_555 1_555
H21A C14A 1_555 1_555
H22A C14A 1_555 1_555
H23A C14A 1_555 1_555
C15A N3A 1_555 1_555
H24A C15A 1_555 1_555
H25A C15A 1_555 1_555
H26A C15A 1_555 1_555
C16A O9A 1_555 1_555
H27A C16A 1_555 1_555
C17A N4A 1_555 1_555
H28A C17A 1_555 1_555
H29A C17A 1_555 1_555
H30A C17A 1_555 1_555
C18A N4A 1_555 1_555
H31A C18A 1_555 1_555
H32A C18A 1_555 1_555
H33A C18A 1_555 1_555
O1A_2 Ni1A 1_555 1_555
C7 C8 1_555 1_555
C9 C10 1_555 1_555
C11 C12 1_555 1_555
C21 C22 1_555 1_555
C23 C24 1_555 1_555
C25 C26 1_555 1_555
C27 C28 1_555 1_555
C29 C30 1_555 1_555
C1A C2A 1_555 1_555
C1A C3A 1_555 1_555
S2A C4A 1_555 1_555
C5A C6A 1_555 1_555
C7A C8A 1_555 1_555
C9A C10A 1_555 1_555
C11A C12A 1_555 1_555

#END
