
#######################################################################
#
#                 Cambridge Crystallographic Data Centre
#                                CCDC 
#
#######################################################################
#
# If this CIF has been generated from an entry in the Cambridge 
# Structural Database, then it will include bibliographic, chemical, 
# crystal, experimental, refinement or atomic coordinate data resulting 
# from the CCDC's data processing and validation procedures.
#
#######################################################################

data_QOSXON
_symmetry_cell_setting           orthorhombic
_symmetry_space_group_name_H-M   'P 21 21 2'
_symmetry_Int_Tables_number      18
_space_group_name_Hall           'P 2 2ab'
loop_
_symmetry_equiv_pos_site_id
_symmetry_equiv_pos_as_xyz
1 x,y,z
2 -x,-y,z
3 1/2+x,1/2-y,-z
4 1/2-x,1/2+y,-z
_cell_length_a                   7.73900(10)
_cell_length_b                   12.8030(2)
_cell_length_c                   5.82900(10)
_cell_angle_alpha                90
_cell_angle_beta                 90
_cell_angle_gamma                90
_cell_volume                     577.551
loop_
_atom_site_label
_atom_site_type_symbol
_atom_site_fract_x
_atom_site_fract_y
_atom_site_fract_z
Ca1 Ca 0.0000 0.5000 0.31079(6)
O1 O -0.01771(16) 0.37975(10) -0.00915(19)
O2 O 0.18578(15) 0.53433(11) 0.6286(2)
O3 O 0.42004(16) 0.60400(11) 0.7860(2)
O4 O 0.31487(15) 0.53668(11) 0.2164(2)
O5 O 0.1153(3) 0.32751(12) 0.4185(3)
C1 C 0.34089(18) 0.56254(11) 0.6220(2)
C2 C 0.43903(19) 0.54806(11) 0.3954(2)
H1 H 0.079(3) 0.3486(18) -0.059(5)
H2 H -0.065(3) 0.4106(17) -0.129(4)
H3 H 0.166(4) 0.311(3) 0.551(5)
H4 H 0.141(4) 0.275(2) 0.323(6)
H5 H 0.508(3) 0.6119(16) 0.376(4)
H6 H 0.359(3) 0.560(2) 0.085(4)
O2A O 0.81422(15) 0.46567(11) 0.6286(2)
O3A O 0.57996(16) 0.39600(11) 0.7860(2)
O4A O 0.68513(15) 0.46332(11) 0.2164(2)
C1A C 0.65911(18) 0.43746(11) 0.6220(2)
C2A C 0.56097(19) 0.45194(11) 0.3954(2)
H5A H 0.492(3) 0.3881(16) 0.376(4)
H6A H 0.641(3) 0.440(2) 0.085(4)
O1A O 0.01771(16) 0.62025(10) -0.00915(19)
O5A O -0.1153(3) 0.67249(12) 0.4185(3)
H1A H -0.079(3) 0.6514(18) -0.059(5)
H2A H 0.065(3) 0.5894(17) -0.129(4)
H3A H -0.166(4) 0.689(3) 0.551(5)
H4A H -0.141(4) 0.725(2) 0.323(6)
Ca1_2 Ca 1.0000 0.5000 0.31079(6)
O2A_2 O -0.18578(15) 0.46567(11) 0.6286(2)
O4A_2 O -0.31487(15) 0.46332(11) 0.2164(2)
O6 O 0.22163(16) 0.79013(10) 0.1646(3)
H7 H 0.132(3) 0.833(2) 0.165(6)
H8 H 0.188(4) 0.7346(19) 0.092(5)
loop_
_geom_bond_atom_site_label_1
_geom_bond_atom_site_label_2
_geom_bond_site_symmetry_1
_geom_bond_site_symmetry_2
Ca1 O1 1_555 1_555
O1 H1 1_555 1_555
O2 Ca1 1_555 1_555
O3 C1 1_555 1_555
O4 Ca1 1_555 1_555
O5 Ca1 1_555 1_555
C1 O2 1_555 1_555
C2 O4 1_555 1_555
H2 O1 1_555 1_555
H3 O5 1_555 1_555
H4 O5 1_555 1_555
H5 C2 1_555 1_555
H6 O4 1_555 1_555
O6 H7 1_555 1_555
H8 O6 1_555 1_555
O2A C1A 1_555 1_555
O3A C1A 1_555 1_555
O4A C2A 1_555 1_555
C1A C2A 1_555 1_555
C2A C2 1_555 1_555
H5A C2A 1_555 1_555
H6A O4A 1_555 1_555
O1A Ca1 1_555 1_555
O5A Ca1 1_555 1_555
H1A O1A 1_555 1_555
H2A O1A 1_555 1_555
H3A O5A 1_555 1_555
H4A O5A 1_555 1_555
Ca1_2 O2A 1_555 1_555
O2A_2 Ca1 1_555 1_555
O4A_2 Ca1 1_555 1_555
C1 C2 1_555 1_555
O4A Ca1_2 1_555 1_555

#END
