
#######################################################################
#
#                 Cambridge Crystallographic Data Centre
#                                CCDC 
#
#######################################################################
#
# If this CIF has been generated from an entry in the Cambridge 
# Structural Database, then it will include bibliographic, chemical, 
# crystal, experimental, refinement or atomic coordinate data resulting 
# from the CCDC's data processing and validation procedures.
#
#######################################################################

data_QOSYED
_symmetry_cell_setting           tetragonal
_symmetry_space_group_name_H-M   'I 41/a'
_symmetry_Int_Tables_number      88
_space_group_name_Hall           '-I 4ad'
loop_
_symmetry_equiv_pos_site_id
_symmetry_equiv_pos_as_xyz
1 x,y,z
2 1/2-x,-y,1/2+z
3 3/4-y,1/4+x,1/4+z
4 3/4+y,3/4-x,3/4+z
5 1/2+x,1/2+y,1/2+z
6 -x,1/2-y,z
7 1/4-y,3/4+x,3/4+z
8 1/4+y,1/4-x,1/4+z
9 -x,-y,-z
10 1/2+x,y,1/2-z
11 1/4+y,3/4-x,3/4-z
12 1/4-y,1/4+x,1/4-z
13 1/2-x,1/2-y,1/2-z
14 x,1/2+y,-z
15 3/4+y,1/4-x,1/4-z
16 3/4-y,3/4+x,3/4-z
_cell_length_a                   16.6286(2)
_cell_length_b                   16.6286(2)
_cell_length_c                   21.4148(4)
_cell_angle_alpha                90
_cell_angle_beta                 90
_cell_angle_gamma                90
_cell_volume                     5921.41
loop_
_atom_site_label
_atom_site_type_symbol
_atom_site_fract_x
_atom_site_fract_y
_atom_site_fract_z
Co1 Co -0.20113(5) 0.09104(5) -0.39297(4)
N1 N -0.2666(3) 0.0383(3) -0.3279(2)
N2 N -0.3095(3) 0.0174(3) -0.2287(2)
N3 N -0.1997(4) 0.3415(4) -0.3746(3)
N4 N -0.2162(4) 0.2094(5) -0.3871(4)
C1 C -0.3141(4) -0.0557(4) -0.2603(3)
C2 C -0.3405(5) -0.1318(5) -0.2414(4)
H1 H -0.3591 -0.1399 -0.1999
C3 C -0.3392(5) -0.1965(5) -0.2839(4)
C4 C -0.3095(6) -0.1838(6) -0.3439(4)
C5 C -0.2838(6) -0.1083(6) -0.3637(4)
H2 H -0.2645 -0.1003 -0.4050
C6 C -0.2872(4) -0.0438(4) -0.3209(3)
C7 C -0.2810(4) 0.0692(4) -0.2710(3)
H3 H -0.2715 0.1242 -0.2615
C8 C -0.3696(6) -0.2776(5) -0.2638(6)
H4 H -0.4092 -0.2709 -0.2303
H5 H -0.3245 -0.3101 -0.2486
H6 H -0.3949 -0.3047 -0.2994
C9 C -0.3072(8) -0.2544(6) -0.3883(5)
H7 H -0.3622 -0.2691 -0.4002
H8 H -0.2812 -0.3002 -0.3678
H9 H -0.2767 -0.2396 -0.4257
C10 C -0.1738(5) 0.2696(5) -0.3672(3)
H10 H -0.1237 0.2603 -0.3473
C11 C -0.2632(7) 0.3295(8) -0.4148(8)
H11 H -0.2941 0.3706 -0.4342
C12 C -0.2738(7) 0.2515(8) -0.4218(8)
H12 H -0.3145 0.2274 -0.4467
Co1B Co -0.34104(5) 0.04887(5) -0.14297(4)
Co1N Co -0.15896(5) 0.45113(5) -0.35703(4)
N2C N -0.2326(3) 0.0595(3) -0.4787(2)
N3K N -0.0915(4) 0.0503(4) -0.3754(3)
O1 O 0.063(3) -0.803(4) -0.557(3)
O4 O 0.0000 -0.7500 -0.4756(17)
O2? O 0.080(4) -0.728(4) -0.573(4)
O3? O -0.072(3) -0.748(3) -0.522(3)
loop_
_geom_bond_atom_site_label_1
_geom_bond_atom_site_label_2
_geom_bond_site_symmetry_1
_geom_bond_site_symmetry_2
Co1 N1 1_555 1_555
N1 C6 1_555 1_555
N2 C1 1_555 1_555
N3 C10 1_555 1_555
N4 Co1 1_555 1_555
C1 C2 1_555 1_555
C2 H1 1_555 1_555
C3 C2 1_555 1_555
C4 C3 1_555 1_555
C5 C4 1_555 1_555
H2 C5 1_555 1_555
C6 C1 1_555 1_555
C7 N1 1_555 1_555
H3 C7 1_555 1_555
C8 C3 1_555 1_555
H4 C8 1_555 1_555
H5 C8 1_555 1_555
H6 C8 1_555 1_555
C9 C4 1_555 1_555
H7 C9 1_555 1_555
H8 C9 1_555 1_555
H9 C9 1_555 1_555
C10 N4 1_555 1_555
H10 C10 1_555 1_555
C11 N3 1_555 1_555
H11 C11 1_555 1_555
C12 N4 1_555 1_555
H12 C12 1_555 1_555
Co1B N2 1_555 1_555
Co1N N3 1_555 1_555
N2C Co1 1_555 1_555
N3K Co1 1_555 1_555
N2 C7 1_555 1_555
C5 C6 1_555 1_555
C11 C12 1_555 1_555

#END
