
#######################################################################
#
#                 Cambridge Crystallographic Data Centre
#                                CCDC 
#
#######################################################################
#
# If this CIF has been generated from an entry in the Cambridge 
# Structural Database, then it will include bibliographic, chemical, 
# crystal, experimental, refinement or atomic coordinate data resulting 
# from the CCDC's data processing and validation procedures.
#
#######################################################################

data_QOSZOO
_symmetry_cell_setting           monoclinic
_symmetry_space_group_name_H-M   'P 21'
_symmetry_Int_Tables_number      4
_space_group_name_Hall           'P 2yb'
loop_
_symmetry_equiv_pos_site_id
_symmetry_equiv_pos_as_xyz
1 x,y,z
2 -x,1/2+y,-z
_cell_length_a                   15.154(4)
_cell_length_b                   8.887(2)
_cell_length_c                   15.525(3)
_cell_angle_alpha                90
_cell_angle_beta                 93.895(5)
_cell_angle_gamma                90
_cell_volume                     2085.98
loop_
_atom_site_label
_atom_site_type_symbol
_atom_site_fract_x
_atom_site_fract_y
_atom_site_fract_z
C1 C 0.2733(2) 0.1804(3) 0.03665(18)
C2 C 0.3554(2) 0.2000(3) 0.00557(18)
C3 C 0.3787(2) 0.1188(4) -0.06804(18)
H1 H 0.4356 0.1307 -0.0877
C4 C 0.3204(2) 0.0237(4) -0.11089(19)
H2 H 0.3383 -0.0339 -0.1574
C5 C 0.1670(2) -0.0720(4) -0.1346(2)
H3 H 0.1825 -0.1262 -0.1833
C6 C 0.0812(2) -0.0739(4) -0.1114(2)
H4 H 0.0378 -0.1266 -0.1454
C7 C 0.0584(2) 0.0018(4) -0.0380(2)
H5 H -0.0004 -0.0014 -0.0224
C8 C 0.1198(2) 0.0810(4) 0.0119(2)
H6 H 0.1030 0.1296 0.0620
C9 C 0.2087(2) 0.0908(4) -0.01074(18)
C10 C 0.2326(2) 0.0116(4) -0.08528(18)
C11 C 0.24525(19) 0.2555(4) 0.11695(17)
C12 C 0.2539(2) 0.1879(4) 0.19657(19)
C13 C 0.2231(3) 0.2595(5) 0.2707(2)
H7 H 0.2279 0.2103 0.3244
C14 C 0.1868(3) 0.3983(5) 0.2640(2)
H8 H 0.1676 0.4450 0.3138
C15 C 0.1449(3) 0.6244(4) 0.1762(2)
H9 H 0.1287 0.6755 0.2257
C16 C 0.1374(3) 0.6947(4) 0.0981(3)
H10 H 0.1171 0.7946 0.0941
C17 C 0.1598(2) 0.6180(4) 0.0232(2)
H11 H 0.1528 0.6660 -0.0308
C18 C 0.1917(2) 0.4741(4) 0.0285(2)
H12 H 0.2059 0.4242 -0.0221
C19 C 0.2036(2) 0.3991(4) 0.10899(19)
C20 C 0.1769(2) 0.4759(4) 0.1833(2)
S1 S 0.43801(5) 0.32495(9) 0.05171(5)
O1 O 0.39449(16) 0.4476(3) 0.09338(18)
O2 O 0.48428(18) 0.3747(3) -0.02123(15)
O3 O 0.49380(18) 0.2389(3) 0.11176(16)
S2 S 0.31126(5) 0.01543(9) 0.22157(5)
O4 O 0.24980(18) -0.0729(3) 0.26841(16)
O5 O 0.33654(16) -0.0549(3) 0.14273(14)
O6 O 0.38849(16) 0.0642(3) 0.27590(14)
K1 K 0.43068(6) 0.38899(10) 0.27901(6)
K2 K 0.35817(6) 0.72620(9) 0.02222(5)
K3 K 0.46679(5) 0.47467(8) -0.18743(5)
K4 K 0.45495(5) 0.01167(10) 0.44613(5)
C21 C 0.7702(2) -0.0276(4) 0.38887(18)
C22 C 0.7182(2) -0.1503(4) 0.40108(18)
C23 C 0.7201(2) -0.2773(4) 0.3451(2)
H13 H 0.6837 -0.3608 0.3539
C24 C 0.7748(2) -0.2775(4) 0.2789(2)
H14 H 0.7751 -0.3615 0.2422
C25 C 0.8905(3) -0.1573(5) 0.1979(2)
H15 H 0.8910 -0.2402 0.1602
C26 C 0.9469(3) -0.0412(5) 0.1882(2)
H16 H 0.9863 -0.0444 0.1440
C27 C 0.9471(3) 0.0836(5) 0.2434(2)
H17 H 0.9877 0.1620 0.2371
C28 C 0.8886(2) 0.0920(4) 0.3065(2)
H18 H 0.8879 0.1779 0.3418
C29 C 0.8288(2) -0.0276(4) 0.31928(18)
C30 C 0.8307(2) -0.1550(4) 0.26432(19)
C31 C 0.7801(2) 0.1051(3) 0.44890(17)
C32 C 0.7317(2) 0.2349(4) 0.43922(17)
C33 C 0.7547(2) 0.3634(4) 0.4899(2)
H19 H 0.7206 0.4515 0.4830
C34 C 0.8261(3) 0.3602(4) 0.5487(2)
H20 H 0.8407 0.4464 0.5817
C35 C 0.9549(3) 0.2234(5) 0.6186(2)
H21 H 0.9716 0.3089 0.6514
C36 C 1.0043(3) 0.0976(6) 0.6273(3)
H22 H 1.0545 0.0961 0.6663
C37 C 0.9813(3) -0.0302(5) 0.5790(2)
H23 H 1.0166 -0.1171 0.5849
C38 C 0.9081(2) -0.0298(4) 0.5233(2)
H24 H 0.8927 -0.1175 0.4919
C39 C 0.8548(2) 0.0992(4) 0.51169(18)
C40 C 0.8779(2) 0.2297(4) 0.56048(19)
S3 S 0.64755(5) -0.17570(9) 0.48678(5)
O7 O 0.63615(17) -0.0339(3) 0.53156(15)
O8 O 0.56401(15) -0.2288(3) 0.44441(15)
O9 O 0.68930(17) -0.2926(3) 0.54045(14)
S4 S 0.64285(5) 0.25827(9) 0.35892(5)
O10 O 0.58758(19) 0.3769(4) 0.39054(17)
O11 O 0.59525(17) 0.1182(3) 0.34619(15)
O12 O 0.68619(18) 0.3043(3) 0.28229(15)
O13 O 0.50182(19) 0.6983(3) 0.26811(17)
O15 O 0.30395(18) 0.6079(3) -0.14434(16)
O2A O 0.51572(18) 0.8747(3) 0.02123(15)
O3A O 0.50620(18) 0.7389(3) -0.11176(16)
O5_2 O 0.33654(16) 0.9451(3) 0.14273(14)
O6A O 0.61151(16) 0.5642(3) -0.27590(14)
K2A K 0.64183(6) 0.22620(9) -0.02222(5)
K2_2 K 0.35817(6) -0.27380(9) 0.02222(5)
K3A K 0.53321(5) -0.02533(8) 0.18743(5)
K3A_2 K 0.53321(5) 0.97467(8) 0.18743(5)
K4A K 0.54505(5) -0.48833(10) 0.55387(5)
K4A_2 K 0.54505(5) 0.51167(10) 0.55387(5)
O8A O 0.43599(15) 0.2712(3) 0.55559(15)
O9A O 0.31070(17) 0.2074(3) 0.45955(14)
O10A O 0.41242(19) -0.1231(4) 0.60946(17)
O11A O 0.40475(17) 0.6182(3) -0.34619(15)
O13A O 0.49818(19) 0.1983(3) -0.26811(17)
O14 O 0.3392(2) 0.6705(5) 0.3337(2)
loop_
_geom_bond_atom_site_label_1
_geom_bond_atom_site_label_2
_geom_bond_site_symmetry_1
_geom_bond_site_symmetry_2
C1 C2 1_555 1_555
C2 C3 1_555 1_555
C3 H1 1_555 1_555
C4 C3 1_555 1_555
H2 C4 1_555 1_555
C5 H3 1_555 1_555
C6 C5 1_555 1_555
H4 C6 1_555 1_555
C7 C6 1_555 1_555
H5 C7 1_555 1_555
C8 C7 1_555 1_555
H6 C8 1_555 1_555
C9 C1 1_555 1_555
C10 C4 1_555 1_555
C11 C1 1_555 1_555
C12 C11 1_555 1_555
C13 C12 1_555 1_555
H7 C13 1_555 1_555
C14 C13 1_555 1_555
H8 C14 1_555 1_555
C15 H9 1_555 1_555
C16 C15 1_555 1_555
H10 C16 1_555 1_555
C17 C16 1_555 1_555
H11 C17 1_555 1_555
C18 C17 1_555 1_555
H12 C18 1_555 1_555
C19 C11 1_555 1_555
C20 C14 1_555 1_555
S1 C2 1_555 1_555
O1 S1 1_555 1_555
O2 S1 1_555 1_555
O3 S1 1_555 1_555
S2 C12 1_555 1_555
O4 S2 1_555 1_555
O5 S2 1_555 1_555
O6 S2 1_555 1_555
K1 O1 1_555 1_555
K2 O1 1_555 1_555
K3 O2 1_555 1_555
K4 O6 1_555 1_555
C21 C22 1_555 1_555
C22 C23 1_555 1_555
C23 H13 1_555 1_555
C24 C23 1_555 1_555
H14 C24 1_555 1_555
C25 H15 1_555 1_555
C26 C25 1_555 1_555
H16 C26 1_555 1_555
C27 C26 1_555 1_555
H17 C27 1_555 1_555
C28 C27 1_555 1_555
H18 C28 1_555 1_555
C29 C21 1_555 1_555
C30 C24 1_555 1_555
C31 C21 1_555 1_555
C32 C31 1_555 1_555
C33 C32 1_555 1_555
H19 C33 1_555 1_555
C34 C33 1_555 1_555
H20 C34 1_555 1_555
C35 H21 1_555 1_555
C36 C35 1_555 1_555
H22 C36 1_555 1_555
C37 C36 1_555 1_555
H23 C37 1_555 1_555
C38 C37 1_555 1_555
H24 C38 1_555 1_555
C39 C31 1_555 1_555
C40 C34 1_555 1_555
S3 C22 1_555 1_555
O7 S3 1_555 1_555
O8 K4 1_555 1_555
O9 S3 1_555 1_555
S4 C32 1_555 1_555
O10 K1 1_555 1_555
O11 K4 1_555 1_555
O12 S4 1_555 1_555
O13 K1 1_555 1_555
O15 K2 1_555 1_555
O2A K2 1_555 1_555
O3A K3 1_555 1_555
O5_2 K2 1_555 1_555
O6A K3 1_555 1_555
K2A O2 1_555 1_555
K2_2 O5 1_555 1_555
K3A O3 1_555 1_555
K3A_2 O13 1_555 1_555
K4A O8 1_555 1_555
K4A_2 O10 1_555 1_555
O8A K4 1_555 1_555
O9A K4 1_555 1_555
O10A K4 1_555 1_555
O11A K3 1_555 1_555
O13A K3 1_555 1_555
C5 C10 1_555 1_555
C8 C9 1_555 1_555
C9 C10 1_555 1_555
C15 C20 1_555 1_555
C18 C19 1_555 1_555
C19 C20 1_555 1_555
O6 K1 1_555 1_555
O6 K3A 1_555 1_555
K3 O15 1_555 1_555
C25 C30 1_555 1_555
C28 C29 1_555 1_555
C29 C30 1_555 1_555
C35 C40 1_555 1_555
C38 C39 1_555 1_555
C39 C40 1_555 1_555
S3 O8 1_555 1_555
O9 K4A 1_555 1_555
S4 O10 1_555 1_555
S4 O11 1_555 1_555
O11 K3A 1_555 1_555
O2A K3A_2 1_555 1_555
K4A_2 O8A 1_555 1_555

#END
