
#######################################################################
#
#                 Cambridge Crystallographic Data Centre
#                                CCDC 
#
#######################################################################
#
# If this CIF has been generated from an entry in the Cambridge 
# Structural Database, then it will include bibliographic, chemical, 
# crystal, experimental, refinement or atomic coordinate data resulting 
# from the CCDC's data processing and validation procedures.
#
#######################################################################

data_QOTHUC
_symmetry_cell_setting           monoclinic
_symmetry_space_group_name_H-M   'C 2/c'
_symmetry_Int_Tables_number      15
_space_group_name_Hall           '-C 2yn'
loop_
_symmetry_equiv_pos_site_id
_symmetry_equiv_pos_as_xyz
1 x,y,z
2 x,-y,1/2+z
3 1/2+x,1/2+y,z
4 1/2+x,1/2-y,1/2+z
5 -x,-y,-z
6 -x,y,1/2-z
7 1/2-x,1/2-y,-z
8 1/2-x,1/2+y,1/2-z
_cell_length_a                   12.580(3)
_cell_length_b                   16.176(3)
_cell_length_c                   15.632(3)
_cell_angle_alpha                90
_cell_angle_beta                 112.16(3)
_cell_angle_gamma                90
_cell_volume                     2946.05
loop_
_atom_site_label
_atom_site_type_symbol
_atom_site_fract_x
_atom_site_fract_y
_atom_site_fract_z
Cd1 Cd 0.5000 0.70806(2) 0.2500
O1 O 0.5742(3) 0.6898(2) 0.4166(2)
O2 O 0.5316(5) 0.6721(3) 0.5343(4)
O3 O 0.6239(3) 0.7782(2) 0.5245(2)
N1 N 0.6342(3) 0.8150(2) 0.2908(2)
N2 N 0.6601(3) 0.8522(2) 0.3737(2)
N3 N 0.6416(2) 0.6192(2) 0.2546(2)
N4 N 0.7521(2) 0.6351(2) 0.3103(2)
N5 N 0.5730(3) 0.7129(2) 0.4925(2)
C1 C 0.6600(3) 0.8706(2) 0.2390(2)
C2 C 0.7025(3) 0.9434(2) 0.2892(2)
C3 C 0.7021(3) 0.9285(2) 0.3759(2)
C4 C 0.6457(5) 0.8511(3) 0.1419(3)
H1 H 0.5707(5) 0.8729(3) 0.0977(3)
H2 H 0.6501(5) 0.7899(3) 0.1352(3)
H3 H 0.7109(5) 0.8764(3) 0.1293(3)
C5 C 0.7397(4) 0.9806(2) 0.4611(3)
H4 H 0.7161(4) 1.0392(2) 0.4438(3)
H5 H 0.8249(4) 0.9778(2) 0.4936(3)
H6 H 0.7035(4) 0.9601(2) 0.5041(3)
C6 C 0.6451(3) 0.5479(2) 0.2128(2)
C7 C 0.7420(3) 1.0189(2) 0.2579(2)
C8 C 0.8239(3) 0.5767(2) 0.3044(2)
C9 C 0.5397(3) 0.5084(2) 0.1458(3)
H7 H 0.4701(3) 0.5306(2) 0.1542(3)
H8 H 0.5450(3) 0.4472(2) 0.1557(3)
H9 H 0.5350(3) 0.5194(2) 0.0815(3)
C10 C 0.9498(3) 0.5789(3) 0.3597(3)
H10 H 0.9659(3) 0.5912(3) 0.4261(3)
H11 H 0.9846(3) 0.6217(3) 0.3321(3)
H12 H 0.9828(3) 0.5242(3) 0.3527(3)
H13 H 0.7718(29) 0.6778(22) 0.3495(24)
H14 H 0.6548(31) 0.8253(23) 0.4174(25)
O1E O 0.4258(3) 0.6898(2) 0.0834(2)
N1E N 0.3658(3) 0.8150(2) 0.2092(2)
N3E N 0.3584(2) 0.6192(2) 0.2454(2)
C7G C 0.7580(3) 0.5189(2) 0.2421(2)
C8G C 0.6761(3) 1.0767(2) 0.1956(2)
C6G C 0.8549(3) 1.0479(2) 0.2872(2)
N4G N 0.7479(2) 1.1351(2) 0.1897(2)
C10G C 0.5502(3) 1.0789(3) 0.1403(3)
N3G N 0.8584(2) 1.1192(2) 0.2454(2)
C9G C 0.9603(3) 1.0084(2) 0.3542(3)
N5E N 0.4270(3) 0.7129(2) 0.0075(2)
C2G C 0.7975(3) 0.4434(2) 0.2108(2)
H13G H 0.7282(29) 1.1778(22) 0.1505(24)
Cd1B Cd 1.0000 1.20806(2) 0.2500
O2E O 0.4684(5) 0.6721(3) -0.0343(4)
O3E O 0.3761(3) 0.7782(2) -0.0245(2)
C1G C 0.8400(3) 0.3706(2) 0.2610(2)
C3G C 0.7979(3) 0.4285(2) 0.1241(2)
N1G N 0.8658(3) 0.3150(2) 0.2092(2)
C4G C 0.8543(5) 0.3511(3) 0.3581(3)
N2G N 0.8399(3) 0.3522(2) 0.1263(2)
C5G C 0.7603(4) 0.4806(2) 0.0389(3)
Cd1B_2 Cd 1.0000 0.20806(2) 0.2500
H14G H 0.8452(31) 0.3253(23) 0.0826(25)
H10G H 0.5341(3) 1.0912(3) 0.0739(3)
H11G H 0.5154(3) 1.1217(3) 0.1679(3)
H12G H 0.5172(3) 1.0242(3) 0.1473(3)
H7G H 1.0299(3) 1.0306(2) 0.3458(3)
H8G H 0.9550(3) 0.9472(2) 0.3443(3)
H9G H 0.9650(3) 1.0194(2) 0.4185(3)
H1G H 0.9293(5) 0.3729(3) 0.4023(3)
H2G H 0.8499(5) 0.2899(3) 0.3648(3)
H3G H 0.7891(5) 0.3764(3) 0.3707(3)
H4G H 0.7839(4) 0.5392(2) 0.0562(3)
H5G H 0.6751(4) 0.4778(2) 0.0064(3)
H6G H 0.7965(4) 0.4601(2) -0.0041(3)
loop_
_geom_bond_atom_site_label_1
_geom_bond_atom_site_label_2
_geom_bond_site_symmetry_1
_geom_bond_site_symmetry_2
Cd1 O1 1_555 1_555
O1 N5 1_555 1_555
O2 N5 1_555 1_555
O3 N5 1_555 1_555
N1 Cd1 1_555 1_555
N2 N1 1_555 1_555
N3 Cd1 1_555 1_555
N4 N3 1_555 1_555
C1 N1 1_555 1_555
C2 C1 1_555 1_555
C3 N2 1_555 1_555
C4 C1 1_555 1_555
H1 C4 1_555 1_555
H2 C4 1_555 1_555
H3 C4 1_555 1_555
C5 C3 1_555 1_555
H4 C5 1_555 1_555
H5 C5 1_555 1_555
H6 C5 1_555 1_555
C6 N3 1_555 1_555
C7 C2 1_555 1_555
C8 N4 1_555 1_555
C9 C6 1_555 1_555
H7 C9 1_555 1_555
H8 C9 1_555 1_555
H9 C9 1_555 1_555
C10 C8 1_555 1_555
H10 C10 1_555 1_555
H11 C10 1_555 1_555
H12 C10 1_555 1_555
H13 N4 1_555 1_555
H14 N2 1_555 1_555
O1E Cd1 1_555 1_555
N1E Cd1 1_555 1_555
N3E Cd1 1_555 1_555
C7G C6 1_555 1_555
C8G C7 1_555 1_555
C6G C7 1_555 1_555
N4G C8G 1_555 1_555
C10G C8G 1_555 1_555
N3G C6G 1_555 1_555
C9G C6G 1_555 1_555
N5E O1E 1_555 1_555
C2G C7G 1_555 1_555
H13G N4G 1_555 1_555
Cd1B N3G 1_555 1_555
O2E N5E 1_555 1_555
O3E N5E 1_555 1_555
C1G C2G 1_555 1_555
C3G C2G 1_555 1_555
N1G C1G 1_555 1_555
C4G C1G 1_555 1_555
N2G C3G 1_555 1_555
C5G C3G 1_555 1_555
Cd1B_2 N1G 1_555 1_555
H14G N2G 1_555 1_555
H10G C10G 1_555 1_555
H11G C10G 1_555 1_555
H12G C10G 1_555 1_555
H7G C9G 1_555 1_555
H8G C9G 1_555 1_555
H9G C9G 1_555 1_555
H1G C4G 1_555 1_555
H2G C4G 1_555 1_555
H3G C4G 1_555 1_555
H4G C5G 1_555 1_555
H5G C5G 1_555 1_555
H6G C5G 1_555 1_555
C2 C3 1_555 1_555
C8 C7G 1_555 1_555
N4G N3G 1_555 1_555
N1G N2G 1_555 1_555

#END
