
#######################################################################
#
#                 Cambridge Crystallographic Data Centre
#                                CCDC 
#
#######################################################################
#
# If this CIF has been generated from an entry in the Cambridge 
# Structural Database, then it will include bibliographic, chemical, 
# crystal, experimental, refinement or atomic coordinate data resulting 
# from the CCDC's data processing and validation procedures.
#
#######################################################################

data_QOTMOC
_symmetry_cell_setting           triclinic
_symmetry_space_group_name_H-M   'P -1'
_symmetry_Int_Tables_number      2
_space_group_name_Hall           '-P 1'
loop_
_symmetry_equiv_pos_site_id
_symmetry_equiv_pos_as_xyz
1 x,y,z
2 -x,-y,-z
_cell_length_a                   10.00840(10)
_cell_length_b                   10.07810(10)
_cell_length_c                   11.39410(10)
_cell_angle_alpha                81.1960(10)
_cell_angle_beta                 67.6850(10)
_cell_angle_gamma                69.4720(10)
_cell_volume                     995.429
loop_
_atom_site_label
_atom_site_type_symbol
_atom_site_fract_x
_atom_site_fract_y
_atom_site_fract_z
Co1 Co 0.0000 1.0000 0.5000
Co2 Co 0.29863(3) 0.66172(3) 0.34001(3)
N1 N 0.5014(2) 0.4947(2) 0.26205(19)
N2 N 0.2395(2) 0.5533(2) 0.23098(19)
C1 C 0.3533(3) 0.4463(2) 0.1610(2)
O1 O 0.38924(18) 0.74188(17) 0.43457(16)
O2 O 0.10814(18) 0.86327(17) 0.34394(15)
C2 C 0.5544(3) 0.8074(2) 0.5603(2)
H1 H 0.6088 0.7353 0.5017
C3 C 0.3124(3) 0.8272(2) 0.5243(2)
C4 C 0.3980(3) 0.8686(2) 0.5891(2)
C5 C 0.8024(3) 0.7950(3) 0.5801(2)
C6 C 0.6310(3) 0.8526(2) 0.6180(2)
O3 O 0.8695(2) 0.67757(19) 0.5289(2)
C7 C 0.5033(3) 0.4180(2) 0.1738(2)
C8 C 0.6363(3) 0.3199(3) 0.1018(2)
H2 H 0.6361 0.2703 0.0395
C9 C 0.3935(3) 1.0141(2) 0.7364(2)
C10 C 0.5491(3) 0.9578(3) 0.7079(2)
H3 H 0.5977 0.9894 0.7478
C11 C 0.3160(3) 0.9740(2) 0.6786(2)
H4 H 0.2114 1.0163 0.6989
C12 C 0.0689(3) 0.5133(3) 0.1519(3)
H5 H -0.0288 0.5389 0.1495
C13 C 0.3293(3) 0.3687(3) 0.0849(3)
H6 H 0.4092 0.2951 0.0369
C14 C 0.1008(3) 0.5858(3) 0.2260(3)
H7 H 0.0225 0.6601 0.2742
C15 C 0.6309(3) 0.4698(3) 0.2832(3)
H8 H 0.6295 0.5217 0.3447
C16 C 0.1844(3) 0.4028(3) 0.0818(3)
H9 H 0.1652 0.3512 0.0324
C17 C 0.7661(3) 0.3707(3) 0.2180(3)
H10 H 0.8533 0.3539 0.2369
N3 N 0.3069(3) 1.1250(3) 0.8321(2)
C18 C 0.7690(3) 0.2970(3) 0.1241(3)
H11 H 0.8598 0.2323 0.0761
O4 O 0.1710(3) 1.1769(3) 0.8577(3)
O5 O 0.17072(18) 0.88101(19) 0.56665(16)
O6 O 0.8652(2) 0.8704(2) 0.60355(17)
O7 O 0.3732(3) 1.1514(4) 0.8890(3)
O8 O 0.17349(19) 0.56964(19) 0.50084(18)
H12 H 0.0831(15) 0.620(2) 0.523(3)
H13 H 0.180(3) 0.4895(15) 0.486(3)
O9 O 0.31763(19) 0.80788(18) 0.17845(16)
C19 C 0.1871(3) 0.8911(2) 0.2305(2)
C20 C 0.1213(4) 1.0190(3) 0.1602(3)
H14 H 0.1949 1.0239 0.0772
H15 H 0.0952 1.1025 0.2056
H16 H 0.0314 1.0129 0.1524
Co1_2 Co -1.0000 1.0000 0.5000
Co1_3 Co 1.0000 1.0000 0.5000
Co2A Co -0.29863(3) 1.33828(3) 0.65999(3)
N1A N -0.5014(2) 1.5053(2) 0.73795(19)
N2A N -0.2395(2) 1.4467(2) 0.76902(19)
C1A C -0.3533(3) 1.5537(2) 0.8390(2)
O1A O -0.38924(18) 1.25812(17) 0.56543(16)
O2A O -0.10814(18) 1.13673(17) 0.65606(15)
C2A C -0.5544(3) 1.1926(2) 0.4397(2)
H1A H -0.6088 1.2647 0.4983
C3A C -0.3124(3) 1.1728(2) 0.4757(2)
C4A C -0.3980(3) 1.1314(2) 0.4109(2)
C5A C -0.8024(3) 1.2050(3) 0.4199(2)
C6A C -0.6310(3) 1.1474(2) 0.3820(2)
O3A O -0.8695(2) 1.32243(19) 0.4711(2)
C7A C -0.5033(3) 1.5820(2) 0.8262(2)
C8A C -0.6363(3) 1.6801(3) 0.8982(2)
H2A H -0.6361 1.7297 0.9605
C9A C -0.3935(3) 0.9859(2) 0.2636(2)
C10A C -0.5491(3) 1.0422(3) 0.2921(2)
H3A H -0.5977 1.0106 0.2522
C11A C -0.3160(3) 1.0260(2) 0.3214(2)
H4A H -0.2114 0.9837 0.3011
C12A C -0.0689(3) 1.4867(3) 0.8481(3)
H5A H 0.0288 1.4611 0.8505
C13A C -0.3293(3) 1.6313(3) 0.9151(3)
H6A H -0.4092 1.7049 0.9631
C14A C -0.1008(3) 1.4142(3) 0.7740(3)
H7A H -0.0225 1.3399 0.7258
C15A C -0.6309(3) 1.5302(3) 0.7168(3)
H8A H -0.6295 1.4783 0.6553
C16A C -0.1844(3) 1.5972(3) 0.9182(3)
H9A H -0.1652 1.6488 0.9676
C17A C -0.7661(3) 1.6293(3) 0.7820(3)
H10A H -0.8533 1.6461 0.7631
N3A N -0.3069(3) 0.8750(3) 0.1679(2)
C18A C -0.7690(3) 1.7030(3) 0.8759(3)
H11A H -0.8598 1.7677 0.9239
O4A O -0.1710(3) 0.8231(3) 0.1423(3)
O5A O -0.17072(18) 1.11899(19) 0.43335(16)
O6A O -0.8652(2) 1.1296(2) 0.39645(17)
O6_2 O -0.1348(2) 0.8704(2) 0.60355(17)
O6A_2 O 0.1348(2) 1.1296(2) 0.39645(17)
O7A O -0.3732(3) 0.8486(4) 0.1110(3)
O8A O -0.17349(19) 1.43036(19) 0.49916(18)
H12A H -0.0831(15) 1.380(2) 0.477(3)
H13A H -0.180(3) 1.5105(15) 0.514(3)
O9A O -0.31763(19) 1.19212(18) 0.82155(16)
C19A C -0.1871(3) 1.1089(2) 0.7695(2)
C20A C -0.1213(4) 0.9810(3) 0.8398(3)
H14A H -0.1949 0.9761 0.9228
H15A H -0.0952 0.8975 0.7944
H16A H -0.0314 0.9871 0.8476
loop_
_geom_bond_atom_site_label_1
_geom_bond_atom_site_label_2
_geom_bond_site_symmetry_1
_geom_bond_site_symmetry_2
Co1 O2 1_555 1_555
Co2 N1 1_555 1_555
N1 C7 1_555 1_555
N2 Co2 1_555 1_555
C1 N2 1_555 1_555
O1 Co2 1_555 1_555
O2 Co2 1_555 1_555
C2 H1 1_555 1_555
C3 O1 1_555 1_555
C4 C2 1_555 1_555
C5 C6 1_555 1_555
C6 C2 1_555 1_555
O3 C5 1_555 1_555
C7 C1 1_555 1_555
C8 C7 1_555 1_555
H2 C8 1_555 1_555
C9 C10 1_555 1_555
C10 C6 1_555 1_555
H3 C10 1_555 1_555
C11 C4 1_555 1_555
H4 C11 1_555 1_555
C12 H5 1_555 1_555
C13 C1 1_555 1_555
H6 C13 1_555 1_555
C14 N2 1_555 1_555
H7 C14 1_555 1_555
C15 N1 1_555 1_555
H8 C15 1_555 1_555
C16 C12 1_555 1_555
H9 C16 1_555 1_555
C17 C15 1_555 1_555
H10 C17 1_555 1_555
N3 C9 1_555 1_555
C18 C8 1_555 1_555
H11 C18 1_555 1_555
O4 N3 1_555 1_555
O5 Co1 1_555 1_555
O6 C5 1_555 1_555
O7 N3 1_555 1_555
O8 Co2 1_555 1_555
H12 O8 1_555 1_555
H13 O8 1_555 1_555
O9 Co2 1_555 1_555
C19 O2 1_555 1_555
C20 C19 1_555 1_555
H14 C20 1_555 1_555
H15 C20 1_555 1_555
H16 C20 1_555 1_555
Co1_2 O6A 1_555 1_555
Co1_3 O6 1_555 1_555
Co2A N1A 1_555 1_555
N1A C7A 1_555 1_555
N2A Co2A 1_555 1_555
C1A N2A 1_555 1_555
O1A Co2A 1_555 1_555
O2A Co1 1_555 1_555
C2A H1A 1_555 1_555
C3A O1A 1_555 1_555
C4A C2A 1_555 1_555
C5A C6A 1_555 1_555
C6A C2A 1_555 1_555
O3A C5A 1_555 1_555
C7A C1A 1_555 1_555
C8A C7A 1_555 1_555
H2A C8A 1_555 1_555
C9A C10A 1_555 1_555
C10A C6A 1_555 1_555
H3A C10A 1_555 1_555
C11A C4A 1_555 1_555
H4A C11A 1_555 1_555
C12A H5A 1_555 1_555
C13A C1A 1_555 1_555
H6A C13A 1_555 1_555
C14A N2A 1_555 1_555
H7A C14A 1_555 1_555
C15A N1A 1_555 1_555
H8A C15A 1_555 1_555
C16A C12A 1_555 1_555
H9A C16A 1_555 1_555
C17A C15A 1_555 1_555
H10A C17A 1_555 1_555
N3A C9A 1_555 1_555
C18A C8A 1_555 1_555
H11A C18A 1_555 1_555
O4A N3A 1_555 1_555
O5A Co1 1_555 1_555
O6A C5A 1_555 1_555
O6_2 Co1 1_555 1_555
O6A_2 Co1 1_555 1_555
O7A N3A 1_555 1_555
O8A Co2A 1_555 1_555
H12A O8A 1_555 1_555
H13A O8A 1_555 1_555
O9A Co2A 1_555 1_555
C19A O2A 1_555 1_555
C20A C19A 1_555 1_555
H14A C20A 1_555 1_555
H15A C20A 1_555 1_555
H16A C20A 1_555 1_555
C3 C4 1_555 1_555
C3 O5 1_555 1_555
C9 C11 1_555 1_555
C12 C14 1_555 1_555
C13 C16 1_555 1_555
C17 C18 1_555 1_555
O9 C19 1_555 1_555
Co2A O2A 1_555 1_555
C3A C4A 1_555 1_555
C3A O5A 1_555 1_555
C9A C11A 1_555 1_555
C12A C14A 1_555 1_555
C13A C16A 1_555 1_555
C17A C18A 1_555 1_555
O9A C19A 1_555 1_555

#END
