
#######################################################################
#
#                 Cambridge Crystallographic Data Centre
#                                CCDC 
#
#######################################################################
#
# If this CIF has been generated from an entry in the Cambridge 
# Structural Database, then it will include bibliographic, chemical, 
# crystal, experimental, refinement or atomic coordinate data resulting 
# from the CCDC's data processing and validation procedures.
#
#######################################################################

data_QOTRIC
_symmetry_cell_setting           monoclinic
_symmetry_space_group_name_H-M   'P 21/n'
_symmetry_Int_Tables_number      14
_space_group_name_Hall           '-P 2yn'
loop_
_symmetry_equiv_pos_site_id
_symmetry_equiv_pos_as_xyz
1 x,y,z
2 1/2-x,1/2+y,1/2-z
3 -x,-y,-z
4 1/2+x,1/2-y,1/2+z
_cell_length_a                   8.2156(10)
_cell_length_b                   19.161(2)
_cell_length_c                   13.7259(18)
_cell_angle_alpha                90
_cell_angle_beta                 103.651(4)
_cell_angle_gamma                90
_cell_volume                     2099.68
loop_
_atom_site_label
_atom_site_type_symbol
_atom_site_fract_x
_atom_site_fract_y
_atom_site_fract_z
Zn1 Zn 0.28866(4) 0.701603(15) 0.07743(2)
O1 O 0.3171(3) 0.62190(10) -0.00314(13)
O2 O 0.1584(3) 0.67181(11) -0.13884(15)
O3 O 0.0812(2) 0.74069(10) 0.09286(14)
O4 O 0.0383(3) 0.64473(10) 0.17480(14)
N1 N 0.4281(3) 0.66686(11) 0.21350(16)
N2 N 0.7432(3) 0.50046(11) 0.46598(16)
N3 N 0.6794(3) 0.62539(13) 0.77499(18)
N4 N 1.0848(3) 0.28506(11) 0.46241(16)
C1 C 0.2452(4) 0.62363(15) -0.0968(2)
C2 C 0.2770(5) 0.56032(16) -0.1553(2)
H1 H 0.3338 0.5747 -0.2073
H2 H 0.1701 0.5380 -0.1866
H3 H 0.3479 0.5272 -0.1098
C3 C -0.0019(4) 0.70407(14) 0.1430(2)
C4 C -0.1551(4) 0.73967(17) 0.1602(2)
H4 H -0.1219 0.7810 0.2023
H5 H -0.2166 0.7075 0.1939
H6 H -0.2271 0.7538 0.0957
C5 C 0.5107(4) 0.60640(15) 0.2126(2)
H7 H 0.5167 0.5870 0.1498
C6 C 0.5863(4) 0.57162(15) 0.2982(2)
H8 H 0.6439 0.5292 0.2938
C7 C 0.5794(3) 0.59785(14) 0.39153(19)
C8 C 0.4968(3) 0.66088(14) 0.39301(19)
H9 H 0.4903 0.6815 0.4549
C9 C 0.4240(4) 0.69335(14) 0.3034(2)
H10 H 0.3682 0.7366 0.3055
C10 C 0.6618(3) 0.55792(13) 0.48356(19)
C11 C 0.6568(3) 0.57896(13) 0.57977(19)
H11 H 0.5979 0.6200 0.5898
C12 C 0.7398(3) 0.53886(13) 0.66139(19)
C13 C 0.8225(3) 0.47874(13) 0.64254(19)
H12 H 0.8786 0.4499 0.6963
C14 C 0.8220(3) 0.46144(13) 0.54364(19)
C15 C 0.7399(3) 0.56116(14) 0.76504(19)
C16 C 0.8009(4) 0.51830(15) 0.8476(2)
H13 H 0.8434 0.4732 0.8391
C17 C 0.7983(4) 0.54279(17) 0.9424(2)
H14 H 0.8394 0.5144 0.9997
C18 C 0.7364(4) 0.60776(16) 0.9530(2)
H15 H 0.7330 0.6255 1.0171
C19 C 0.6790(4) 0.64695(16) 0.8670(2)
H16 H 0.6365 0.6923 0.8743
C20 C 0.9116(3) 0.39939(13) 0.51744(19)
C21 C 0.9195(3) 0.38793(14) 0.41845(19)
H17 H 0.8654 0.4194 0.3675
C22 C 1.0051(3) 0.33135(14) 0.39390(19)
H18 H 1.0079 0.3247 0.3257
C23 C 1.0782(4) 0.29613(13) 0.5588(2)
H19 H 1.1346 0.2642 0.6084
C24 C 0.9946(3) 0.35099(14) 0.58848(19)
H20 H 0.9928 0.3562 0.6571
Zn1A Zn 1.21134(4) 0.201603(15) 0.42257(2)
N4A N 0.4152(3) 0.78506(11) 0.03759(16)
loop_
_geom_bond_atom_site_label_1
_geom_bond_atom_site_label_2
_geom_bond_site_symmetry_1
_geom_bond_site_symmetry_2
Zn1 O1 1_555 1_555
O1 C1 1_555 1_555
O2 C1 1_555 1_555
O3 Zn1 1_555 1_555
O4 C3 1_555 1_555
N1 Zn1 1_555 1_555
N2 C10 1_555 1_555
N3 C15 1_555 1_555
N4 C22 1_555 1_555
C1 C2 1_555 1_555
C2 H1 1_555 1_555
H2 C2 1_555 1_555
H3 C2 1_555 1_555
C3 O3 1_555 1_555
C4 C3 1_555 1_555
H4 C4 1_555 1_555
H5 C4 1_555 1_555
H6 C4 1_555 1_555
C5 N1 1_555 1_555
H7 C5 1_555 1_555
C6 C5 1_555 1_555
H8 C6 1_555 1_555
C7 C6 1_555 1_555
C8 C7 1_555 1_555
H9 C8 1_555 1_555
C9 N1 1_555 1_555
H10 C9 1_555 1_555
C10 C7 1_555 1_555
C11 C10 1_555 1_555
H11 C11 1_555 1_555
C12 C11 1_555 1_555
C13 C12 1_555 1_555
H12 C13 1_555 1_555
C14 N2 1_555 1_555
C15 C12 1_555 1_555
C16 C15 1_555 1_555
H13 C16 1_555 1_555
C17 C16 1_555 1_555
H14 C17 1_555 1_555
C18 C17 1_555 1_555
H15 C18 1_555 1_555
C19 N3 1_555 1_555
H16 C19 1_555 1_555
C20 C14 1_555 1_555
C21 C20 1_555 1_555
H17 C21 1_555 1_555
C22 C21 1_555 1_555
H18 C22 1_555 1_555
C23 N4 1_555 1_555
H19 C23 1_555 1_555
C24 C20 1_555 1_555
H20 C24 1_555 1_555
Zn1A N4 1_555 1_555
N4A Zn1 1_555 1_555
C8 C9 1_555 1_555
C13 C14 1_555 1_555
C18 C19 1_555 1_555
C23 C24 1_555 1_555

#END
