
#######################################################################
#
#                 Cambridge Crystallographic Data Centre
#                                CCDC 
#
#######################################################################
#
# If this CIF has been generated from an entry in the Cambridge 
# Structural Database, then it will include bibliographic, chemical, 
# crystal, experimental, refinement or atomic coordinate data resulting 
# from the CCDC's data processing and validation procedures.
#
#######################################################################

data_QOTWON
_symmetry_cell_setting           tetragonal
_symmetry_space_group_name_H-M   'I 41/a'
_symmetry_Int_Tables_number      88
_space_group_name_Hall           '-I 4ad'
loop_
_symmetry_equiv_pos_site_id
_symmetry_equiv_pos_as_xyz
1 x,y,z
2 1/2-x,-y,1/2+z
3 3/4-y,1/4+x,1/4+z
4 3/4+y,3/4-x,3/4+z
5 1/2+x,1/2+y,1/2+z
6 -x,1/2-y,z
7 1/4-y,3/4+x,3/4+z
8 1/4+y,1/4-x,1/4+z
9 -x,-y,-z
10 1/2+x,y,1/2-z
11 1/4+y,3/4-x,3/4-z
12 1/4-y,1/4+x,1/4-z
13 1/2-x,1/2-y,1/2-z
14 x,1/2+y,-z
15 3/4+y,1/4-x,1/4-z
16 3/4-y,3/4+x,3/4-z
_cell_length_a                   24.0204(2)
_cell_length_b                   24.0204(2)
_cell_length_c                   12.7228(2)
_cell_angle_alpha                90
_cell_angle_beta                 90
_cell_angle_gamma                90
_cell_volume                     7340.8
loop_
_atom_site_label
_atom_site_type_symbol
_atom_site_fract_x
_atom_site_fract_y
_atom_site_fract_z
Mn1 Mn 0.267944(16) 0.049636(16) 0.46969(3)
Mn2 Mn 0.290758(16) 0.117161(16) 0.25595(3)
Mn3 Mn 0.2500 0.2500 0.2500
O1 O 0.22615(7) 0.07441(7) 0.33364(14)
H1 H 0.1990 0.0959 0.3458
O2 O 0.27235(9) 0.13777(8) 0.51097(15)
O3 O 0.28125(8) 0.18957(7) 0.36614(15)
C1 C 0.27343(12) 0.18321(11) 0.4656(2)
C2 C 0.26522(19) 0.23462(13) 0.5308(3)
H2 H 0.2420 0.2257 0.5918
H3 H 0.2469 0.2633 0.4884
H4 H 0.3015 0.2484 0.5548
O4 O 0.34808(7) 0.07367(8) 0.36532(15)
O5 O 0.41988(7) 0.02608(8) 0.42805(15)
C3 C 0.39879(11) 0.07019(11) 0.3889(2)
C4 C 0.43583(13) 0.11991(13) 0.3700(3)
H5 H 0.4327 0.1316 0.2964
H6 H 0.4745 0.1099 0.3854
H7 H 0.4243 0.1506 0.4159
O6 O 0.30596(8) -0.02803(9) 0.05090(18)
O7 O 0.28617(8) 0.04179(8) 0.15878(15)
C5 C 0.31976(12) 0.01202(12) 0.1066(2)
C6 C 0.38067(15) 0.02455(19) 0.1142(5)
H8 H 0.3966 0.0047 0.1744
H9 H 0.3860 0.0647 0.1235
H10 H 0.3993 0.0125 0.0496
O8 O 0.35411(8) 0.15689(8) 0.17058(17)
O9 O 0.32818(8) 0.24605(8) 0.16405(17)
C7 C 0.36237(12) 0.20695(12) 0.1486(2)
C8 C 0.41832(16) 0.22125(15) 0.1014(4)
H11 H 0.4416 0.1878 0.0989
H12 H 0.4366 0.2496 0.1447
H13 H 0.4130 0.2356 0.0300
Mn1J Mn 0.299636(16) 0.482056(16) 0.28031(3)
Mn2J Mn 0.367161(16) 0.459242(16) 0.49405(3)
O1J O 0.32441(7) 0.52385(7) 0.41636(14)
H1J H 0.3459 0.5510 0.4042
O2J O 0.38777(8) 0.47765(9) 0.23903(15)
O3J O 0.43957(7) 0.46875(8) 0.38386(15)
C1J C 0.43321(11) 0.47657(12) 0.2844(2)
C2J C 0.48462(13) 0.48478(19) 0.2192(3)
H2J H 0.4757 0.5080 0.1582
H3J H 0.5133 0.5031 0.2616
H4J H 0.4984 0.4485 0.1952
O4J O 0.32367(8) 0.40192(7) 0.38468(15)
O5J O 0.27608(8) 0.33012(7) 0.32195(15)
C3J C 0.32019(11) 0.35121(11) 0.3611(2)
C4J C 0.36991(13) 0.31417(13) 0.3800(3)
H5J H 0.3816 0.3173 0.4536
H6J H 0.3599 0.2755 0.3646
H7J H 0.4006 0.3257 0.3341
O6J O 0.22197(9) 0.44404(8) 0.69910(18)
O7J O 0.29179(8) 0.46383(8) 0.59122(15)
C5J C 0.26202(12) 0.43024(12) 0.6434(2)
C6J C 0.27455(19) 0.36933(15) 0.6358(5)
H8J H 0.2547 0.3534 0.5756
H9J H 0.3147 0.3640 0.6265
H10J H 0.2625 0.3507 0.7004
O8J O 0.40689(8) 0.39589(8) 0.57942(17)
O9J O 0.49605(8) 0.42182(8) 0.58595(17)
C7J C 0.45695(12) 0.38763(12) 0.6014(2)
C8J C 0.47125(15) 0.33168(16) 0.6486(4)
H11J H 0.4378 0.3084 0.6511
H12J H 0.4996 0.3134 0.6053
H13J H 0.4856 0.3370 0.7200
Mn1A Mn 0.232056(16) -0.049636(16) -0.03031(3)
Mn1F Mn 0.200364(16) 0.017944(16) 0.21969(3)
Mn1K Mn 0.200364(16) 0.517944(16) 0.78031(3)
Mn1M Mn 0.267944(16) 0.549636(16) 0.53031(3)
Mn2G Mn 0.367161(16) -0.040758(16) 0.50595(3)
Mn2L Mn 0.209242(16) 0.382839(16) 0.24405(3)
Mn3B Mn 0.5000 0.5000 0.5000
Mn3G Mn 0.5000 0.0000 0.5000
O1G O 0.32441(7) 0.02385(7) 0.58364(14)
O1L O 0.27385(7) 0.42559(7) 0.16636(14)
O3L O 0.21875(8) 0.31043(7) 0.13386(15)
O5F O 0.22392(8) 0.16988(7) 0.17805(15)
O5M O 0.41988(7) 0.52608(8) 0.57195(15)
O6A O 0.19404(8) 0.02803(9) 0.55090(18)
O6K O 0.27803(9) 0.55596(8) 0.19910(18)
O7G O 0.29179(8) -0.03617(8) 0.40878(15)
O7L O 0.21383(8) 0.45821(8) 0.34122(15)
O9L O 0.17182(8) 0.25395(8) 0.33595(17)
O10 O 0.13940(11) 0.14508(9) 0.3802(2)
H14 H 0.1439 0.1798 0.3799
C9 C 0.1030(3) 0.1299(2) 0.4646(5)
H15 H 0.0966 0.0893 0.4609
H16 H 0.0667 0.1483 0.4525
C10 C 0.1209(3) 0.1432(3) 0.5699(6)
H17 H 0.1574 0.1264 0.5830
H18 H 0.0938 0.1285 0.6205
H19 H 0.1235 0.1837 0.5778
loop_
_geom_bond_atom_site_label_1
_geom_bond_atom_site_label_2
_geom_bond_site_symmetry_1
_geom_bond_site_symmetry_2
Mn1 O1 1_555 1_555
Mn2 O1 1_555 1_555
Mn3 O3 1_555 1_555
O1 H1 1_555 1_555
O2 Mn1 1_555 1_555
O3 Mn2 1_555 1_555
C1 O2 1_555 1_555
C2 C1 1_555 1_555
H2 C2 1_555 1_555
H3 C2 1_555 1_555
H4 C2 1_555 1_555
O4 Mn1 1_555 1_555
O5 C3 1_555 1_555
C3 O4 1_555 1_555
C4 C3 1_555 1_555
H5 C4 1_555 1_555
H6 C4 1_555 1_555
H7 C4 1_555 1_555
O6 C5 1_555 1_555
O7 Mn2 1_555 1_555
C5 O7 1_555 1_555
C6 C5 1_555 1_555
H8 C6 1_555 1_555
H9 C6 1_555 1_555
H10 C6 1_555 1_555
O8 Mn2 1_555 1_555
O9 Mn3 1_555 1_555
C7 O8 1_555 1_555
C8 C7 1_555 1_555
H11 C8 1_555 1_555
H12 C8 1_555 1_555
H13 C8 1_555 1_555
O10 H14 1_555 1_555
C9 O10 1_555 1_555
H15 C9 1_555 1_555
H16 C9 1_555 1_555
C10 C9 1_555 1_555
H17 C10 1_555 1_555
H18 C10 1_555 1_555
H19 C10 1_555 1_555
Mn1J O1J 1_555 1_555
Mn2J O1J 1_555 1_555
O1J H1J 1_555 1_555
O2J Mn1J 1_555 1_555
O3J Mn2J 1_555 1_555
C1J O2J 1_555 1_555
C2J C1J 1_555 1_555
H2J C2J 1_555 1_555
H3J C2J 1_555 1_555
H4J C2J 1_555 1_555
O4J Mn1J 1_555 1_555
O5J Mn3 1_555 1_555
C3J O4J 1_555 1_555
C4J C3J 1_555 1_555
H5J C4J 1_555 1_555
H6J C4J 1_555 1_555
H7J C4J 1_555 1_555
O6J C5J 1_555 1_555
O7J Mn2J 1_555 1_555
C5J O7J 1_555 1_555
C6J C5J 1_555 1_555
H8J C6J 1_555 1_555
H9J C6J 1_555 1_555
H10J C6J 1_555 1_555
O8J Mn2J 1_555 1_555
O9J C7J 1_555 1_555
C7J O8J 1_555 1_555
C8J C7J 1_555 1_555
H11J C8J 1_555 1_555
H12J C8J 1_555 1_555
H13J C8J 1_555 1_555
Mn1A O6 1_555 1_555
Mn1F O1 1_555 1_555
Mn1K O6J 1_555 1_555
Mn1M O1J 1_555 1_555
Mn2G O5 1_555 1_555
Mn2L O5J 1_555 1_555
Mn3B O3J 1_555 1_555
Mn3G O5 1_555 1_555
O1G Mn1 1_555 1_555
O1L Mn1J 1_555 1_555
O3L Mn3 1_555 1_555
O5F Mn2 1_555 1_555
O5M Mn2J 1_555 1_555
O6A Mn1 1_555 1_555
O6K Mn1J 1_555 1_555
O7G Mn1 1_555 1_555
O7L Mn1J 1_555 1_555
O9L Mn3 1_555 1_555
Mn2 O4 1_555 1_555
Mn3 O5F 1_555 1_555
O3 C1 1_555 1_555
O7 Mn1F 1_555 1_555
O9 C7 1_555 1_555
Mn2J O4J 1_555 1_555
O3J C1J 1_555 1_555
O5J C3J 1_555 1_555
O7J Mn1M 1_555 1_555
O9J Mn3B 1_555 1_555
Mn2G O1G 1_555 1_555
Mn2G O7G 1_555 1_555
Mn2L O1L 1_555 1_555
Mn2L O3L 1_555 1_555
Mn2L O7L 1_555 1_555
Mn3B O5M 1_555 1_555

#END
