
#######################################################################
#
#                 Cambridge Crystallographic Data Centre
#                                CCDC 
#
#######################################################################
#
# If this CIF has been generated from an entry in the Cambridge 
# Structural Database, then it will include bibliographic, chemical, 
# crystal, experimental, refinement or atomic coordinate data resulting 
# from the CCDC's data processing and validation procedures.
#
#######################################################################

data_QOTWED
_symmetry_cell_setting           monoclinic
_symmetry_space_group_name_H-M   'P 21/c'
_symmetry_Int_Tables_number      14
_space_group_name_Hall           '-P 2ybc'
loop_
_symmetry_equiv_pos_site_id
_symmetry_equiv_pos_as_xyz
1 x,y,z
2 -x,1/2+y,1/2-z
3 -x,-y,-z
4 x,1/2-y,1/2+z
_cell_length_a                   8.9864(4)
_cell_length_b                   15.9532(8)
_cell_length_c                   20.1727(10)
_cell_angle_alpha                90
_cell_angle_beta                 101.4630(10)
_cell_angle_gamma                90
_cell_volume                     2834.31
loop_
_atom_site_label
_atom_site_type_symbol
_atom_site_fract_x
_atom_site_fract_y
_atom_site_fract_z
C1 C 0.1726(3) 0.0683(2) 0.35900(16)
O1 O 0.2793(3) 0.11683(18) 0.36680(15)
O2 O 0.1582(3) 0.00908(17) 0.31866(14)
N1 N 1.3168(2) 0.33515(13) 0.19171(11)
N2 N 1.4823(2) 0.43634(13) 0.19479(11)
C2 C 1.3944(2) 0.39565(16) 0.22967(13)
C3 C 1.3551(3) 0.33766(19) 0.12955(15)
H1 H 1.3179 0.3032 0.0928
C4 C 1.4572(3) 0.39977(18) 0.13208(14)
H2 H 1.5037 0.4155 0.0967
C5 C 1.3834(4) 0.4145(2) 0.30030(15)
H3 H 1.3002 0.4522 0.3005
H4 H 1.4761 0.4402 0.3232
H5 H 1.3669 0.3635 0.3230
Cd1 Cd 0.354271(18) 0.039162(11) 0.265518(9)
N3 N 0.5187(2) 0.14499(13) 0.26791(11)
N4 N 0.6813(2) 0.23974(14) 0.24849(12)
C6 C 1.0530(3) 0.31493(16) 0.20829(15)
H6 H 1.0131 0.3321 0.1621
H7 H 1.0617 0.3645 0.2367
C7 C 0.5907(3) 0.17635(16) 0.22311(14)
C8 C 0.6669(3) 0.2491(2) 0.31495(14)
H8 H 0.7166 0.2882 0.3458
C9 C 0.7847(3) 0.28870(16) 0.21650(15)
H9 H 0.7872 0.3460 0.2329
H10 H 0.7466 0.2898 0.1680
C10 C 0.9440(3) 0.25368(16) 0.23061(16)
H11 H 0.9458 0.2011 0.2066
H12 H 0.9758 0.2427 0.2786
C11 C 0.5687(3) 0.19167(19) 0.32607(14)
H13 H 0.5376 0.1837 0.3669
C12 C 0.1411(3) 0.00953(18) 0.15285(14)
C13 C 0.0000(3) -0.00479(17) 0.10209(13)
C14 C -0.0958(3) 0.05247(18) 0.06686(13)
H14 H -0.0829 0.1102 0.0706
C15 C -0.2170(3) 0.0125(2) 0.02406(13)
C16 C -0.2150(4) -0.0719(2) 0.02702(15)
H15 H -0.2880 -0.1066 0.0017
S1 S -0.06161(10) -0.10575(5) 0.08291(4)
O3 O 0.2181(2) -0.05245(12) 0.17641(11)
O4 O 0.1750(2) 0.08266(13) 0.17107(12)
C17 C 1.2082(3) 0.27659(17) 0.21260(17)
H16 H 1.2472 0.2588 0.2588
H17 H 1.1991 0.2273 0.1840
S2 S -0.10147(10) 0.01282(6) 0.38542(5)
C18 C 0.5722(4) 0.1467(2) 0.15174(15)
H18 H 0.6547 0.1100 0.1478
H19 H 0.5723 0.1941 0.1223
H20 H 0.4779 0.1171 0.1392
C19 C 0.0496(3) 0.08039(18) 0.39836(14)
C20 C 0.0373(3) 0.13888(19) 0.44507(14)
H21 H 0.1084 0.1808 0.4593
C21 C -0.0971(3) 0.12817(19) 0.46945(13)
C22 C -0.1822(4) 0.0631(2) 0.44275(18)
H22 H -0.2737 0.0478 0.4543
N5 N -0.1398(4) 0.1823(2) 0.52058(14)
O5 O -0.0503(4) 0.23703(19) 0.54435(14)
O6 O -0.2620(4) 0.1699(2) 0.53617(17)
N6 N -0.3372(3) 0.0585(3) -0.02032(13)
O7 O -0.4333(3) 0.0184(2) -0.05849(12)
O8 O -0.3341(3) 0.1347(2) -0.01724(15)
N2A N 0.5177(2) -0.06366(13) 0.30521(11)
Cd1A Cd 1.645729(18) 0.539162(11) 0.234482(9)
O9 O 0.3746(3) 0.2433(2) 0.47148(17)
H23 H 0.3538 0.2180 0.4337
H24 H 0.4516 0.2751 0.4747
loop_
_geom_bond_atom_site_label_1
_geom_bond_atom_site_label_2
_geom_bond_site_symmetry_1
_geom_bond_site_symmetry_2
C1 O1 1_555 1_555
O1 Cd1 1_555 1_555
O2 C1 1_555 1_555
N1 C2 1_555 1_555
N2 C2 1_555 1_555
C2 C5 1_555 1_555
C3 N1 1_555 1_555
H1 C3 1_555 1_555
C4 N2 1_555 1_555
H2 C4 1_555 1_555
C5 H3 1_555 1_555
H4 C5 1_555 1_555
H5 C5 1_555 1_555
Cd1 O2 1_555 1_555
N3 Cd1 1_555 1_555
N4 C7 1_555 1_555
C6 H6 1_555 1_555
H7 C6 1_555 1_555
C7 N3 1_555 1_555
C8 N4 1_555 1_555
H8 C8 1_555 1_555
C9 N4 1_555 1_555
H9 C9 1_555 1_555
H10 C9 1_555 1_555
C10 C6 1_555 1_555
H11 C10 1_555 1_555
H12 C10 1_555 1_555
C11 N3 1_555 1_555
H13 C11 1_555 1_555
C12 C13 1_555 1_555
C13 C14 1_555 1_555
C14 H14 1_555 1_555
C15 C14 1_555 1_555
C16 C15 1_555 1_555
H15 C16 1_555 1_555
S1 C13 1_555 1_555
O3 Cd1 1_555 1_555
O4 Cd1 1_555 1_555
C17 N1 1_555 1_555
H16 C17 1_555 1_555
H17 C17 1_555 1_555
S2 C19 1_555 1_555
C18 C7 1_555 1_555
H18 C18 1_555 1_555
H19 C18 1_555 1_555
H20 C18 1_555 1_555
C19 C1 1_555 1_555
C20 C19 1_555 1_555
H21 C20 1_555 1_555
C21 C20 1_555 1_555
C22 S2 1_555 1_555
H22 C22 1_555 1_555
N5 C21 1_555 1_555
O5 N5 1_555 1_555
O6 N5 1_555 1_555
N6 C15 1_555 1_555
O7 N6 1_555 1_555
O8 N6 1_555 1_555
O9 H23 1_555 1_555
H24 O9 1_555 1_555
N2A Cd1 1_555 1_555
Cd1A N2 1_555 1_555
C3 C4 1_555 1_555
C6 C17 1_555 1_555
C8 C11 1_555 1_555
C9 C10 1_555 1_555
C12 O3 1_555 1_555
C12 O4 1_555 1_555
C16 S1 1_555 1_555
C21 C22 1_555 1_555

#END
