
#######################################################################
#
#                 Cambridge Crystallographic Data Centre
#                                CCDC 
#
#######################################################################
#
# If this CIF has been generated from an entry in the Cambridge 
# Structural Database, then it will include bibliographic, chemical, 
# crystal, experimental, refinement or atomic coordinate data resulting 
# from the CCDC's data processing and validation procedures.
#
#######################################################################

data_QOVWIJ
_symmetry_cell_setting           monoclinic
_symmetry_space_group_name_H-M   'C 2/c'
_symmetry_Int_Tables_number      15
_space_group_name_Hall           '-C 2yn'
loop_
_symmetry_equiv_pos_site_id
_symmetry_equiv_pos_as_xyz
1 x,y,z
2 -x,y,1/2-z
3 1/2+x,1/2+y,z
4 1/2-x,1/2+y,1/2-z
5 -x,-y,-z
6 x,-y,1/2+z
7 1/2-x,1/2-y,-z
8 1/2+x,1/2-y,1/2+z
_cell_length_a                   24.350(7)
_cell_length_b                   13.403(4)
_cell_length_c                   14.137(4)
_cell_angle_alpha                90
_cell_angle_beta                 123.397(4)
_cell_angle_gamma                90
_cell_volume                     3851.95
loop_
_atom_site_label
_atom_site_type_symbol
_atom_site_fract_x
_atom_site_fract_y
_atom_site_fract_z
C1 C 0.94894(15) 0.0250(3) 0.3555(3)
H1 H 0.9855 -0.0131 0.3743
C2 C 0.90375(15) -0.0150(3) 0.3748(3)
H2 H 0.9100 -0.0786 0.4055
C3 C 0.84881(14) 0.0405(2) 0.3482(2)
C4 C 0.84251(15) 0.1351(3) 0.3020(3)
H3 H 0.8065 0.1749 0.2827
C5 C 0.88997(16) 0.1695(2) 0.2849(3)
H4 H 0.8849 0.2327 0.2540
C6 C 0.79813(15) -0.0021(2) 0.3652(3)
C7 C 0.73217(15) 0.0071(2) 0.2789(3)
H5 H 0.7204 0.0421 0.2135
C8 C 0.68326(15) -0.0353(3) 0.2886(3)
C9 C 0.70138(15) -0.0880(3) 0.3868(3)
H6 H 0.6692 -0.1168 0.3942
C10 C 0.76697(16) -0.0977(3) 0.4731(3)
H7 H 0.7784 -0.1334 0.5379
C11 C 0.81638(15) -0.0544(2) 0.4645(3)
C12 C 0.88708(15) -0.0564(3) 0.5666(3)
C13 C 0.61186(15) -0.0264(2) 0.1940(3)
C14 C 0.48047(18) 0.2116(3) 0.0410(3)
H8 H 0.5005 0.2380 0.0064
C15 C 0.45063(19) 0.2645(3) 0.0821(3)
H9 H 0.4463 0.3335 0.0804
C16 C 0.44409(17) 0.1068(3) 0.1098(3)
H10 H 0.4338 0.0476 0.1312
C17 C 0.38920(19) 0.2225(4) 0.1728(3)
H11 H 0.4061 0.2833 0.2170
H12 H 0.3939 0.1694 0.2232
C18 C 0.31670(18) 0.2366(3) 0.0814(3)
C19 C 0.2802(2) 0.2978(5) 0.0999(4)
H13 H 0.2998 0.3321 0.1683
C20 C 0.2863(2) 0.1888(5) -0.0195(4)
H14 H 0.3105 0.1461 -0.0351
Cu1 Cu 1.0000 -0.14382(4) 0.7500
Cu2 Cu 0.5000 0.0000 0.0000
N1 N 0.94299(12) 0.1156(2) 0.3111(2)
N2 N 0.47604(13) 0.1121(2) 0.0595(2)
N3 N 0.42823(14) 0.1983(3) 0.1261(3)
O1 O 0.91537(10) -0.14238(17) 0.59622(18)
O2 O 0.91250(11) 0.02217(18) 0.61597(19)
O3 O 0.56907(11) -0.0723(2) 0.1991(2)
O4 O 0.59715(10) 0.02806(18) 0.1089(2)
O5 O 1.0000 -0.3070(3) 0.7500
H15 H 1.018(2) -0.341(3) 0.726(4)
C14F C 0.01953(18) 0.2884(3) -0.0410(3)
H8F H -0.0005 0.2620 -0.0064
C15F C 0.04937(19) 0.2355(3) -0.0821(3)
H9F H 0.0537 0.1665 -0.0804
C16F C 0.05591(17) 0.3932(3) -0.1098(3)
H10F H 0.0662 0.4524 -0.1312
C17F C 0.11080(19) 0.2775(4) -0.1728(3)
H11F H 0.0939 0.2167 -0.2170
H12F H 0.1061 0.3306 -0.2232
C18F C 0.18330(18) 0.2634(3) -0.0814(3)
C19F C 0.2198(2) 0.2022(5) -0.0999(4)
H13F H 0.2002 0.1679 -0.1683
C20F C 0.2137(2) 0.3112(5) 0.0195(4)
H14F H 0.1895 0.3539 0.0351
N2F N 0.02396(13) 0.3879(2) -0.0595(2)
N3F N 0.07177(14) 0.3017(3) -0.1261(3)
H15A H 0.982(2) -0.341(3) 0.774(4)
C1A C 1.05106(15) 0.0250(3) 1.1445(3)
H1A H 1.0145 -0.0131 1.1257
C2A C 1.09625(15) -0.0150(3) 1.1252(3)
H2A H 1.0900 -0.0786 1.0945
C3A C 1.15119(14) 0.0405(2) 1.1518(2)
C4A C 1.15749(15) 0.1351(3) 1.1980(3)
H3A H 1.1935 0.1749 1.2173
C5A C 1.11003(16) 0.1695(2) 1.2151(3)
H4A H 1.1151 0.2327 1.2460
C6A C 1.20187(15) -0.0021(2) 1.1348(3)
C7A C 1.26783(15) 0.0071(2) 1.2211(3)
H5A H 1.2796 0.0421 1.2865
C8A C 1.31674(15) -0.0353(3) 1.2114(3)
C9A C 1.29862(15) -0.0880(3) 1.1132(3)
H6A H 1.3308 -0.1168 1.1058
C10A C 1.23303(16) -0.0977(3) 1.0269(3)
H7A H 1.2216 -0.1334 0.9621
C11A C 1.18362(15) -0.0544(2) 1.0355(3)
C12A C 1.11292(15) -0.0564(3) 0.9334(3)
C13A C 1.38814(15) -0.0264(2) 1.3060(3)
N1A N 1.05701(12) 0.1156(2) 1.1889(2)
O1A O 1.08463(10) -0.14238(17) 0.90378(18)
O2A O 1.08750(11) 0.02217(18) 0.88403(19)
O3A O 1.43093(11) -0.0723(2) 1.3009(2)
O4A O 1.40285(10) 0.02806(18) 1.3911(2)
Cu1D Cu 1.0000 0.14382(4) 0.2500
Cu1D_2 Cu 1.0000 0.14382(4) 1.2500
Cu2A Cu 1.5000 0.0000 1.5000
Cu2B Cu 0.0000 0.5000 0.0000
N1D N 1.05701(12) -0.1156(2) 0.6889(2)
N1E N 0.94299(12) -0.1156(2) 0.8111(2)
N2D N 0.52396(13) -0.1121(2) -0.0595(2)
O3D O 0.43093(11) 0.0723(2) -0.1991(2)
O4D O 0.40285(10) -0.02806(18) -0.1089(2)
O6 O 0.8430(2) 0.7072(4) 0.4168(6)
H16 H 0.8686(16) 0.744(3) 0.413(4)
H17 H 0.8608(18) 0.664(3) 0.466(3)
loop_
_geom_bond_atom_site_label_1
_geom_bond_atom_site_label_2
_geom_bond_site_symmetry_1
_geom_bond_site_symmetry_2
C1 H1 1_555 1_555
C2 C1 1_555 1_555
H2 C2 1_555 1_555
C3 C2 1_555 1_555
C4 C3 1_555 1_555
H3 C4 1_555 1_555
C5 C4 1_555 1_555
H4 C5 1_555 1_555
C6 C3 1_555 1_555
C7 C6 1_555 1_555
H5 C7 1_555 1_555
C8 C7 1_555 1_555
C9 C8 1_555 1_555
H6 C9 1_555 1_555
C10 C9 1_555 1_555
H7 C10 1_555 1_555
C11 C6 1_555 1_555
C12 C11 1_555 1_555
C13 C8 1_555 1_555
C14 H8 1_555 1_555
C15 C14 1_555 1_555
H9 C15 1_555 1_555
C16 H10 1_555 1_555
C17 H11 1_555 1_555
H12 C17 1_555 1_555
C18 C17 1_555 1_555
C19 C18 1_555 1_555
H13 C19 1_555 1_555
C20 C18 1_555 1_555
H14 C20 1_555 1_555
Cu1 O1 1_555 1_555
Cu2 N2 1_555 1_555
N1 C1 1_555 1_555
N2 C14 1_555 1_555
N3 C15 1_555 1_555
O1 C12 1_555 1_555
O2 C12 1_555 1_555
O3 C13 1_555 1_555
O4 C13 1_555 1_555
O5 Cu1 1_555 1_555
H15 O5 1_555 1_555
O6 H16 1_555 1_555
H17 O6 1_555 1_555
C14F H8F 1_555 1_555
C15F C14F 1_555 1_555
H9F C15F 1_555 1_555
C16F H10F 1_555 1_555
C17F H11F 1_555 1_555
H12F C17F 1_555 1_555
C18F C17F 1_555 1_555
C19F C20 1_555 1_555
H13F C19F 1_555 1_555
C20F C19 1_555 1_555
H14F C20F 1_555 1_555
N2F C14F 1_555 1_555
N3F C15F 1_555 1_555
H15A O5 1_555 1_555
C1A H1A 1_555 1_555
C2A C1A 1_555 1_555
H2A C2A 1_555 1_555
C3A C2A 1_555 1_555
C4A C3A 1_555 1_555
H3A C4A 1_555 1_555
C5A C4A 1_555 1_555
H4A C5A 1_555 1_555
C6A C3A 1_555 1_555
C7A C6A 1_555 1_555
H5A C7A 1_555 1_555
C8A C7A 1_555 1_555
C9A C8A 1_555 1_555
H6A C9A 1_555 1_555
C10A C9A 1_555 1_555
H7A C10A 1_555 1_555
C11A C6A 1_555 1_555
C12A C11A 1_555 1_555
C13A C8A 1_555 1_555
N1A C1A 1_555 1_555
O1A Cu1 1_555 1_555
O2A C12A 1_555 1_555
O3A C13A 1_555 1_555
O4A C13A 1_555 1_555
Cu1D N1 1_555 1_555
Cu1D_2 N1A 1_555 1_555
Cu2A O3A 1_555 1_555
Cu2B N2F 1_555 1_555
N1D Cu1 1_555 1_555
N1E Cu1 1_555 1_555
N2D Cu2 1_555 1_555
O3D Cu2 1_555 1_555
O4D Cu2 1_555 1_555
C5 N1 1_555 1_555
C10 C11 1_555 1_555
C16 N2 1_555 1_555
C16 N3 1_555 1_555
C17 N3 1_555 1_555
Cu2 O3 1_555 1_555
Cu2 O4 1_555 1_555
C16F N2F 1_555 1_555
C16F N3F 1_555 1_555
C17F N3F 1_555 1_555
C18F C19F 1_555 1_555
C18F C20F 1_555 1_555
C5A N1A 1_555 1_555
C10A C11A 1_555 1_555
C12A O1A 1_555 1_555
O4A Cu2A 1_555 1_555

#END
