
#######################################################################
#
#                 Cambridge Crystallographic Data Centre
#                                CCDC 
#
#######################################################################
#
# If this CIF has been generated from an entry in the Cambridge 
# Structural Database, then it will include bibliographic, chemical, 
# crystal, experimental, refinement or atomic coordinate data resulting 
# from the CCDC's data processing and validation procedures.
#
#######################################################################

data_QOVWOO01
_symmetry_cell_setting           monoclinic
_symmetry_space_group_name_H-M   'P 21/c'
_symmetry_Int_Tables_number      14
_space_group_name_Hall           '-P 2ybc'
loop_
_symmetry_equiv_pos_site_id
_symmetry_equiv_pos_as_xyz
1 x,y,z
2 -x,1/2+y,1/2-z
3 -x,-y,-z
4 x,1/2-y,1/2+z
_cell_length_a                   19.6801(2)
_cell_length_b                   15.1165(1)
_cell_length_c                   6.6716(1)
_cell_angle_alpha                90
_cell_angle_beta                 103.757(1)
_cell_angle_gamma                90
_cell_volume                     1927.83
loop_
_atom_site_label
_atom_site_type_symbol
_atom_site_fract_x
_atom_site_fract_y
_atom_site_fract_z
Ga1 Ga 0.4963(2) 0.2500(4) 0.5141(5)
Ga2 Ga 0.0000 0.5000 0.0000
Ga3 Ga 0.0000 0.5000 0.5000
O1 O 0.4996(13) 0.3147(10) 0.2581(29)
O2 O 0.0009(11) 0.5553(9) 0.2518(17)
O3 O 0.9157(8) 0.0777(5) 0.8691(19)
O4 O 0.9318(7) 0.0821(5) 0.5493(20)
O5 O 0.5559(8) 0.1485(5) 0.4429(23)
O6 O 0.5867(9) 0.1836(5) 0.147(2)
C1 C 0.8182(7) 0.1063(3) 0.5875(23)
C2 C 0.7708(7) 0.1045(3) 0.7114(24)
C3 C 0.6997(7) 0.1201(3) 0.6337(25)
C4 C 0.6749(7) 0.1382(3) 0.4266(24)
C5 C 0.7215(8) 0.1400(3) 0.3038(24)
C6 C 0.7925(8) 0.1245(3) 0.3810(24)
C7 C 0.8939(6) 0.0878(2) 0.6759(19)
C8 C 0.6004(7) 0.1573(3) 0.3335(20)
H1 H 0.7879(11) 0.0913(4) 0.8584(27)
H2 H 0.6679(10) 0.1186(4) 0.7269(32)
H3 H 0.7039(11) 0.1534(4) 0.1576(27)
H4 H 0.8241(11) 0.1262(4) 0.2873(31)
O7 O 0.4080(7) 0.3003(5) 0.8712(18)
O8 O 0.4357(8) 0.3518(5) 0.5756(20)
O9 O 0.0568(9) 0.3993(5) 0.4448(23)
O10 O 0.0885(9) 0.4314(5) 0.1405(20)
C9 C 0.3175(7) 0.3548(4) 0.5989(20)
C10 C 0.2661(8) 0.3390(4) 0.709(2)
C11 C 0.1948(7) 0.3560(4) 0.6237(21)
C12 C 0.1760(7) 0.3893(4) 0.4251(20)
C13 C 0.2266(8) 0.4049(4) 0.3156(20)
C14 C 0.2979(8) 0.3882(4) 0.3993(21)
C15 C 0.3930(6) 0.3350(3) 0.6893(17)
C16 C 0.1012(7) 0.4085(3) 0.3313(19)
H5 H 0.2803(11) 0.3152(4) 0.8492(23)
H6 H 0.1594(10) 0.3451(5) 0.7028(29)
H7 H 0.2120(12) 0.4288(5) 0.1757(23)
H8 H 0.333(1) 0.3995(5) 0.3191(29)
H9 H 0.495(11) 0.3737(15) 0.276(15)
H10 H -0.005(10) 0.6146(20) 0.263(14)
Ga1B Ga -0.4963(2) 0.7500(4) -0.5141(5)
O1B O -0.4996(13) 0.6853(10) -0.2581(29)
O2B O -0.0009(11) 0.4447(9) -0.2518(17)
O3B O -0.9157(8) 0.9223(5) -0.8691(19)
O4B O -0.9318(7) 0.9179(5) -0.5493(20)
O5B O -0.5559(8) 0.8515(5) -0.4429(23)
O6B O -0.5867(9) 0.8164(5) -0.147(2)
C1B C -0.8182(7) 0.8937(3) -0.5875(23)
C2B C -0.7708(7) 0.8955(3) -0.7114(24)
C3B C -0.6997(7) 0.8799(3) -0.6337(25)
C4B C -0.6749(7) 0.8618(3) -0.4266(24)
C5B C -0.7215(8) 0.8600(3) -0.3038(24)
C6B C -0.7925(8) 0.8755(3) -0.3810(24)
C7B C -0.8939(6) 0.9122(2) -0.6759(19)
C8B C -0.6004(7) 0.8427(3) -0.3335(20)
H1B H -0.7879(11) 0.9087(4) -0.8584(27)
H2B H -0.6679(10) 0.8814(4) -0.7269(32)
H3B H -0.7039(11) 0.8466(4) -0.1576(27)
H4B H -0.8241(11) 0.8738(4) -0.2873(31)
O7B O -0.4080(7) 0.6997(5) -0.8712(18)
O8B O -0.4357(8) 0.6482(5) -0.5756(20)
O9B O -0.0568(9) 0.6007(5) -0.4448(23)
O10B O -0.0885(9) 0.5686(5) -0.1405(20)
C9B C -0.3175(7) 0.6452(4) -0.5989(20)
C10B C -0.2661(8) 0.6610(4) -0.709(2)
C11B C -0.1948(7) 0.6440(4) -0.6237(21)
C12B C -0.1760(7) 0.6107(4) -0.4251(20)
C13B C -0.2266(8) 0.5951(4) -0.3156(20)
C14B C -0.2979(8) 0.6118(4) -0.3993(21)
C15B C -0.3930(6) 0.6650(3) -0.6893(17)
C16B C -0.1012(7) 0.5915(3) -0.3313(19)
H5B H -0.2803(11) 0.6848(4) -0.8492(23)
H6B H -0.1594(10) 0.6549(5) -0.7028(29)
H7B H -0.2120(12) 0.5712(5) -0.1757(23)
H8B H -0.333(1) 0.6005(5) -0.3191(29)
H9B H -0.495(11) 0.6263(15) -0.276(15)
H10B H 0.005(10) 0.3854(20) -0.263(14)
Ga1A Ga -0.4963(2) 0.7500(4) -1.0141(5)
Ga1A_2 Ga -0.4963(2) 0.7500(4) -0.0141(5)
Ga1C Ga 0.4963(2) 0.2500(4) 0.0141(5)
Ga1C_2 Ga 0.4963(2) 0.2500(4) 1.0141(5)
Ga2A Ga -1.0000 1.0000 -0.5000
Ga2A_2 Ga 1.0000 0.0000 0.5000
Ga3_2 Ga 0.0000 0.5000 -0.5000
Ga3A Ga -1.0000 1.0000 -1.0000
Ga3A_2 Ga 1.0000 0.0000 1.0000
O1A O -0.4996(13) 0.8147(10) -0.7581(29)
O1C O 0.4996(13) 0.1853(10) 0.7581(29)
O2B_2 O -0.0009(11) 0.4447(9) 0.7482(17)
O3A O 0.0843(8) 0.5777(5) 0.6309(19)
O3C O -0.0843(8) 0.4223(5) 0.3691(19)
O4A O 0.0682(7) 0.5821(5) -0.0493(20)
O4C O -0.0682(7) 0.4179(5) 0.0493(20)
O6A O -0.5867(9) 0.6836(5) -0.647(2)
O6C O 0.5867(9) 0.3164(5) 0.647(2)
O7A O -0.4080(7) 0.8003(5) -0.3712(18)
O7C O 0.4080(7) 0.1997(5) 0.3712(18)
O9B_2 O -0.0568(9) 0.6007(5) 0.5552(23)
O11 O 0.5282(9) 0.4899(13) 0.2158(35)
H11 H 0.523(8) 0.492(15) 0.363(6)
H12 H 0.479(4) 0.483(13) 0.130(22)
O12 O 0.0250(9) 0.7346(12) 0.1587(26)
H13 H 0.045(5) 0.795(4) 0.159(20)
H14 H -0.0251(28) 0.741(8) 0.082(26)
loop_
_geom_bond_atom_site_label_1
_geom_bond_atom_site_label_2
_geom_bond_site_symmetry_1
_geom_bond_site_symmetry_2
Ga1 O1 1_555 1_555
Ga2 O2 1_555 1_555
Ga3 O2 1_555 1_555
O1 H9 1_555 1_555
O2 H10 1_555 1_555
O3 C7 1_555 1_555
O4 C7 1_555 1_555
O5 Ga1 1_555 1_555
O6 C8 1_555 1_555
C1 C2 1_555 1_555
C2 C3 1_555 1_555
C3 C4 1_555 1_555
C4 C5 1_555 1_555
C5 C6 1_555 1_555
C6 C1 1_555 1_555
C7 C1 1_555 1_555
C8 O5 1_555 1_555
H1 C2 1_555 1_555
H2 C3 1_555 1_555
H3 C5 1_555 1_555
H4 C6 1_555 1_555
O7 C15 1_555 1_555
O8 Ga1 1_555 1_555
O9 Ga3 1_555 1_555
O10 Ga2 1_555 1_555
C9 C10 1_555 1_555
C10 C11 1_555 1_555
C11 C12 1_555 1_555
C12 C13 1_555 1_555
C13 C14 1_555 1_555
C14 C9 1_555 1_555
C15 O8 1_555 1_555
C16 O9 1_555 1_555
H5 C10 1_555 1_555
H6 C11 1_555 1_555
H7 C13 1_555 1_555
H8 C14 1_555 1_555
O11 H11 1_555 1_555
H12 O11 1_555 1_555
O12 H13 1_555 1_555
H14 O12 1_555 1_555
Ga1B O1B 1_555 1_555
O1B H9B 1_555 1_555
O2B Ga2 1_555 1_555
O3B C7B 1_555 1_555
O4B C7B 1_555 1_555
O5B Ga1B 1_555 1_555
O6B C8B 1_555 1_555
C1B C2B 1_555 1_555
C2B C3B 1_555 1_555
C3B C4B 1_555 1_555
C4B C5B 1_555 1_555
C5B C6B 1_555 1_555
C6B C1B 1_555 1_555
C7B C1B 1_555 1_555
C8B O5B 1_555 1_555
H1B C2B 1_555 1_555
H2B C3B 1_555 1_555
H3B C5B 1_555 1_555
H4B C6B 1_555 1_555
O7B C15B 1_555 1_555
O8B Ga1B 1_555 1_555
O9B C16B 1_555 1_555
O10B Ga2 1_555 1_555
C9B C10B 1_555 1_555
C10B C11B 1_555 1_555
C11B C12B 1_555 1_555
C12B C13B 1_555 1_555
C13B C14B 1_555 1_555
C14B C9B 1_555 1_555
C15B O8B 1_555 1_555
C16B O10B 1_555 1_555
H5B C10B 1_555 1_555
H6B C11B 1_555 1_555
H7B C13B 1_555 1_555
H8B C14B 1_555 1_555
H10B O2B 1_555 1_555
Ga1A O7B 1_555 1_555
Ga1A_2 O1B 1_555 1_555
Ga1C O1 1_555 1_555
Ga1C_2 O7 1_555 1_555
Ga2A O4B 1_555 1_555
Ga2A_2 O4 1_555 1_555
Ga3_2 O2B 1_555 1_555
Ga3A O3B 1_555 1_555
Ga3A_2 O3 1_555 1_555
O1A Ga1B 1_555 1_555
O1C Ga1 1_555 1_555
O2B_2 Ga3 1_555 1_555
O3A Ga3 1_555 1_555
O3C Ga3 1_555 1_555
O4A Ga2 1_555 1_555
O4C Ga2 1_555 1_555
O6A Ga1B 1_555 1_555
O6C Ga1 1_555 1_555
O7A Ga1B 1_555 1_555
O7C Ga1 1_555 1_555
O9B_2 Ga3 1_555 1_555
O6 Ga1C 1_555 1_555
C4 C8 1_555 1_555
O10 C16 1_555 1_555
C9 C15 1_555 1_555
C12 C16 1_555 1_555
O6B Ga1A_2 1_555 1_555
C4B C8B 1_555 1_555
O9B Ga3_2 1_555 1_555
C9B C15B 1_555 1_555
C12B C16B 1_555 1_555
Ga1A O1A 1_555 1_555
Ga1C_2 O1C 1_555 1_555

#END
