
#######################################################################
#
#                 Cambridge Crystallographic Data Centre
#                                CCDC 
#
#######################################################################
#
# If this CIF has been generated from an entry in the Cambridge 
# Structural Database, then it will include bibliographic, chemical, 
# crystal, experimental, refinement or atomic coordinate data resulting 
# from the CCDC's data processing and validation procedures.
#
#######################################################################

data_QOVXEG
_symmetry_cell_setting           rhombohedral
_symmetry_space_group_name_H-M   'R -3'
_symmetry_Int_Tables_number      148
_space_group_name_Hall           '-R 3'
loop_
_symmetry_equiv_pos_site_id
_symmetry_equiv_pos_as_xyz
1 x,y,z
2 1/3+x,2/3+y,2/3+z
3 2/3+x,1/3+y,1/3+z
4 -y,x-y,z
5 1/3-y,2/3+x-y,2/3+z
6 2/3-y,1/3+x-y,1/3+z
7 -x+y,-x,z
8 1/3-x+y,2/3-x,2/3+z
9 2/3-x+y,1/3-x,1/3+z
10 -x,-y,-z
11 2/3-x,1/3-y,1/3-z
12 1/3-x,2/3-y,2/3-z
13 y,-x+y,-z
14 2/3+y,1/3-x+y,1/3-z
15 1/3+y,2/3-x+y,2/3-z
16 x-y,x,-z
17 2/3+x-y,1/3+x,1/3-z
18 1/3+x-y,2/3+x,2/3-z
_cell_length_a                   22.4424(18)
_cell_length_b                   22.4424(18)
_cell_length_c                   15.8063(19)
_cell_angle_alpha                90
_cell_angle_beta                 90
_cell_angle_gamma                120
_cell_volume                     6894.45
loop_
_atom_site_label
_atom_site_type_symbol
_atom_site_fract_x
_atom_site_fract_y
_atom_site_fract_z
Co1 Co 0.40124(9) 0.06123(9) 0.32262(10)
C1 C 0.3392(4) 0.0284(4) 0.1542(5)
C2 C 0.3622(3) -0.0493(4) 0.1831(4)
C3 C 0.3816(4) -0.0927(4) 0.2187(5)
C4 C 0.3700(4) -0.1474(4) 0.1721(6)
C5 C 0.3896(4) 0.1891(4) 0.3352(4)
C6 C 0.4525(4) 0.1966(4) 0.2310(4)
C7 C 0.4897(4) 0.1869(5) 0.1694(5)
C8 C 0.5263(4) 0.2421(5) 0.1140(5)
C9 C 0.4515(3) 0.2571(4) 0.2379(4)
C10 C 0.4883(4) 0.3105(4) 0.1830(5)
C11 C 0.5255(4) 0.3014(5) 0.1211(5)
C12 C 0.3318(3) -0.0618(3) 0.1039(4)
C13 C 0.3203(4) -0.1179(4) 0.0562(5)
C14 C 0.3406(4) -0.1602(4) 0.0921(6)
N1 N 0.3666(3) 0.0093(4) 0.2154(4)
N2 N 0.4115(4) 0.1535(3) 0.2952(5)
N3 N 0.4100(3) 0.2513(4) 0.3060(4)
N4 N 0.3177(3) -0.0106(4) 0.0861(5)
H1 H 0.3353 0.0676 0.1592
H2 H 0.4015 -0.0847 0.2721
H3 H 0.3823 -0.1782 0.1943
H4 H 0.3609 0.1717 0.3821
H5 H 0.4906 0.1460 0.1646
H6 H 0.5520 0.2376 0.0709
H7 H 0.4879 0.3516 0.1877
H8 H 0.5508 0.3369 0.0832
H9 H 0.3000 -0.1264 0.0030
H10 H 0.3346 -0.1985 0.0622
Co1D Co 0.27210(9) 0.00668(13) -0.01071(10)
Co1N Co 0.39456(9) 0.32666(13) 0.34405(10)
N3Q N 0.4920(5) 0.0767(3) 0.3607(4)
N4H N 0.3384(5) 0.0156(3) 0.4194(5)
loop_
_geom_bond_atom_site_label_1
_geom_bond_atom_site_label_2
_geom_bond_site_symmetry_1
_geom_bond_site_symmetry_2
Co1 N1 1_555 1_555
C1 N1 1_555 1_555
C2 C3 1_555 1_555
C3 C4 1_555 1_555
C4 C14 1_555 1_555
C5 N2 1_555 1_555
C6 C7 1_555 1_555
C7 C8 1_555 1_555
C8 C11 1_555 1_555
C9 C6 1_555 1_555
C10 C9 1_555 1_555
C11 C10 1_555 1_555
C12 C2 1_555 1_555
C13 C12 1_555 1_555
C14 C13 1_555 1_555
N1 C2 1_555 1_555
N2 Co1 1_555 1_555
N3 C5 1_555 1_555
N4 C1 1_555 1_555
H1 C1 1_555 1_555
H2 C3 1_555 1_555
H3 C4 1_555 1_555
H4 C5 1_555 1_555
H5 C7 1_555 1_555
H6 C8 1_555 1_555
H7 C10 1_555 1_555
H8 C11 1_555 1_555
H9 C13 1_555 1_555
H10 C14 1_555 1_555
Co1D N4 1_555 1_555
Co1N N3 1_555 1_555
N3Q Co1 1_555 1_555
N4H Co1 1_555 1_555
C6 N2 1_555 1_555
C9 N3 1_555 1_555
C12 N4 1_555 1_555

#END
