
#######################################################################
#
#                 Cambridge Crystallographic Data Centre
#                                CCDC 
#
#######################################################################
#
# If this CIF has been generated from an entry in the Cambridge 
# Structural Database, then it will include bibliographic, chemical, 
# crystal, experimental, refinement or atomic coordinate data resulting 
# from the CCDC's data processing and validation procedures.
#
#######################################################################

data_QOVXIK
_symmetry_cell_setting           rhombohedral
_symmetry_space_group_name_H-M   'R -3'
_symmetry_Int_Tables_number      148
_space_group_name_Hall           '-R 3'
loop_
_symmetry_equiv_pos_site_id
_symmetry_equiv_pos_as_xyz
1 x,y,z
2 1/3+x,2/3+y,2/3+z
3 2/3+x,1/3+y,1/3+z
4 -y,x-y,z
5 1/3-y,2/3+x-y,2/3+z
6 2/3-y,1/3+x-y,1/3+z
7 -x+y,-x,z
8 1/3-x+y,2/3-x,2/3+z
9 2/3-x+y,1/3-x,1/3+z
10 -x,-y,-z
11 2/3-x,1/3-y,1/3-z
12 1/3-x,2/3-y,2/3-z
13 y,-x+y,-z
14 2/3+y,1/3-x+y,1/3-z
15 1/3+y,2/3-x+y,2/3-z
16 x-y,x,-z
17 2/3+x-y,1/3+x,1/3-z
18 1/3+x-y,2/3+x,2/3-z
_cell_length_a                   21.926(3)
_cell_length_b                   21.926(3)
_cell_length_c                   15.704(4)
_cell_angle_alpha                90
_cell_angle_beta                 90
_cell_angle_gamma                120
_cell_volume                     6538.22
loop_
_atom_site_label
_atom_site_type_symbol
_atom_site_fract_x
_atom_site_fract_y
_atom_site_fract_z
Co1 Co 0.39962(17) 0.05811(16) 0.3218(2)
C1 C 0.3408(5) 0.0274(5) 0.1521(9)
C2 C 0.3639(4) -0.0524(5) 0.1790(6)
C3 C 0.3845(4) -0.0964(7) 0.2126(8)
C4 C 0.3724(5) -0.1514(6) 0.1647(10)
C5 C 0.3838(4) 0.1840(7) 0.3357(6)
C6 C 0.4491(4) 0.1918(5) 0.2314(6)
C7 C 0.4870(5) 0.1818(7) 0.1693(7)
C8 C 0.5250(5) 0.2383(9) 0.1145(6)
C9 C 0.4487(4) 0.2537(5) 0.2390(6)
C10 C 0.4869(5) 0.3084(5) 0.1841(7)
C11 C 0.5247(5) 0.2990(8) 0.1217(7)
C12 C 0.3325(4) -0.0642(5) 0.0998(6)
C13 C 0.3201(4) -0.1209(6) 0.0505(7)
C14 C 0.3410(5) -0.1643(5) 0.0854(10)
N1 N 0.3694(4) 0.0072(5) 0.2125(7)
N2 N 0.4065(5) 0.1478(5) 0.2953(7)
N3 N 0.4060(5) 0.2478(7) 0.3073(7)
N4 N 0.3178(4) -0.0120(6) 0.0838(7)
H1 H 0.3358 0.0660 0.1558
H2 H 0.4035 -0.0897 0.2663
H3 H 0.3853 -0.1835 0.1864
H4 H 0.3562 0.1670 0.3846
H5 H 0.4886 0.1421 0.1636
H6 H 0.5512 0.2364 0.0707
H7 H 0.4866 0.3522 0.1913
H8 H 0.5498 0.3375 0.0842
H9 H 0.3013 -0.1299 -0.0052
H10 H 0.3358 -0.2042 0.0545
Co1D Co 0.27522(16) 0.00818(23) -0.0115(2)
Co1N Co 0.39144(16) 0.32516(23) 0.3449(2)
N3Q N 0.4915(9) 0.0727(5) 0.3594(7)
N4H N 0.3369(7) 0.0155(4) 0.4171(7)
loop_
_geom_bond_atom_site_label_1
_geom_bond_atom_site_label_2
_geom_bond_site_symmetry_1
_geom_bond_site_symmetry_2
Co1 N1 1_555 1_555
C1 N1 1_555 1_555
C2 C3 1_555 1_555
C3 C4 1_555 1_555
C4 C14 1_555 1_555
C5 N2 1_555 1_555
C6 C7 1_555 1_555
C7 C8 1_555 1_555
C8 C11 1_555 1_555
C9 C6 1_555 1_555
C10 C9 1_555 1_555
C11 C10 1_555 1_555
C12 C2 1_555 1_555
C13 C12 1_555 1_555
C14 C13 1_555 1_555
N1 C2 1_555 1_555
N2 Co1 1_555 1_555
N3 C5 1_555 1_555
N4 C1 1_555 1_555
H1 C1 1_555 1_555
H2 C3 1_555 1_555
H3 C4 1_555 1_555
H4 C5 1_555 1_555
H5 C7 1_555 1_555
H6 C8 1_555 1_555
H7 C10 1_555 1_555
H8 C11 1_555 1_555
H9 C13 1_555 1_555
H10 C14 1_555 1_555
Co1D N4 1_555 1_555
Co1N N3 1_555 1_555
N3Q Co1 1_555 1_555
N4H Co1 1_555 1_555
C6 N2 1_555 1_555
C9 N3 1_555 1_555
C12 N4 1_555 1_555

#END
