
#######################################################################
#
#                 Cambridge Crystallographic Data Centre
#                                CCDC 
#
#######################################################################
#
# If this CIF has been generated from an entry in the Cambridge 
# Structural Database, then it will include bibliographic, chemical, 
# crystal, experimental, refinement or atomic coordinate data resulting 
# from the CCDC's data processing and validation procedures.
#
#######################################################################

data_QOWCIP
_symmetry_cell_setting           monoclinic
_symmetry_space_group_name_H-M   'P 21/c'
_symmetry_Int_Tables_number      14
_space_group_name_Hall           '-P 2ybc'
loop_
_symmetry_equiv_pos_site_id
_symmetry_equiv_pos_as_xyz
1 x,y,z
2 -x,1/2+y,1/2-z
3 -x,-y,-z
4 x,1/2-y,1/2+z
_cell_length_a                   7.4875(16)
_cell_length_b                   9.811(2)
_cell_length_c                   21.090(4)
_cell_angle_alpha                90
_cell_angle_beta                 110.462(7)
_cell_angle_gamma                90
_cell_volume                     1451.52
loop_
_atom_site_label
_atom_site_type_symbol
_atom_site_fract_x
_atom_site_fract_y
_atom_site_fract_z
C1 C 0.2656(8) 0.9155(6) 0.7359(3)
C2 C 0.2605(10) 1.0531(6) 0.7236(3)
H1 H 0.2608 1.1161 0.7566
C3 C 0.2550(10) 1.0934(7) 0.6619(4)
H2 H 0.2490 1.1860 0.6520
C4 C 0.2581(11) 1.0010(8) 0.6130(4)
H3 H 0.2573 1.0335 0.5715
C5 C 0.2623(10) 0.8655(7) 0.6233(3)
H4 H 0.2621 0.8036 0.5899
C6 C 0.2669(9) 0.8242(6) 0.6857(3)
C7 C 0.2643(8) 0.7120(6) 0.7758(3)
C8 C 0.2602(9) 0.6082(6) 0.8258(3)
C9 C 0.2421(10) 0.4719(7) 0.8154(3)
H5 H 0.2318 0.4351 0.7736
C10 C 0.2393(11) 0.3881(7) 0.8678(4)
H6 H 0.2258 0.2941 0.8627
C11 C 0.2572(12) 0.4504(8) 0.9271(4)
H7 H 0.2590 0.3971 0.9638
C12 C 0.2721(12) 0.5845(7) 0.9346(4)
H8 H 0.2812 0.6226 0.9760
C13 C 0.2552(9) 0.5695(6) 0.6746(3)
H9 H 0.3415 0.5024 0.7031
H10 H 0.2946 0.5873 0.6362
C14 C 0.0548(11) 0.5130(7) 0.6497(3)
C15 C 0.4540(9) 0.9648(6) 1.0216(3)
N1 N 0.2743(8) 0.6649(5) 0.8850(3)
N2 N 0.2649(7) 0.8423(5) 0.7915(2)
N3 N 0.2677(7) 0.6946(5) 0.7127(2)
O1 O -0.0776(7) 0.5814(5) 0.6507(2)
O2 O 0.0323(7) 0.3925(4) 0.6307(2)
O3 O 0.3223(7) 0.8829(4) 0.9925(2)
O4 O 0.5103(6) 0.9918(4) 1.0828(2)
Zn1 Zn 0.26013(11) 0.88107(7) 0.88736(3)
C1A C -0.2656(8) 1.4155(6) 0.7641(3)
C2A C -0.2605(10) 1.5531(6) 0.7764(3)
H1A H -0.2608 1.6161 0.7434
C3A C -0.2550(10) 1.5934(7) 0.8381(4)
H2A H -0.2490 1.6860 0.8480
C4A C -0.2581(11) 1.5010(8) 0.8870(4)
H3A H -0.2573 1.5335 0.9285
C5A C -0.2623(10) 1.3655(7) 0.8767(3)
H4A H -0.2621 1.3036 0.9101
C6A C -0.2669(9) 1.3242(6) 0.8143(3)
C7A C -0.2643(8) 1.2120(6) 0.7242(3)
C8A C -0.2602(9) 1.1082(6) 0.6742(3)
C9A C -0.2421(10) 0.9719(7) 0.6846(3)
H5A H -0.2318 0.9351 0.7264
C10A C -0.2393(11) 0.8881(7) 0.6322(4)
H6A H -0.2258 0.7941 0.6373
C11A C -0.2572(12) 0.9504(8) 0.5729(4)
H7A H -0.2590 0.8971 0.5362
C12A C -0.2721(12) 1.0845(7) 0.5654(4)
H8A H -0.2812 1.1226 0.5240
C13A C -0.2552(9) 1.0695(6) 0.8254(3)
H9A H -0.3415 1.0024 0.7969
H10A H -0.2946 1.0873 0.8638
C14A C -0.0548(11) 1.0130(7) 0.8503(3)
C15B C 0.5460(9) 1.0352(6) 0.9784(3)
N1A N -0.2743(8) 1.1649(5) 0.6150(3)
N1B N 0.7257(8) 1.3351(5) 1.1150(3)
N2A N -0.2649(7) 1.3423(5) 0.7085(2)
N2B N 0.7351(7) 1.1577(5) 1.2085(2)
N3A N -0.2677(7) 1.1946(5) 0.7873(2)
O1A O 0.0776(7) 1.0814(5) 0.8493(2)
O1C O 0.9224(7) 0.9186(5) 1.1507(2)
O2A O -0.0323(7) 0.8925(4) 0.8693(2)
O2C O 1.0323(7) 1.1075(4) 1.1307(2)
O3B O 0.6777(7) 1.1171(4) 1.0075(2)
O4B O 0.4897(6) 1.0082(4) 0.9172(2)
Zn1A Zn -0.26013(11) 1.38107(7) 0.61264(3)
Zn1A_2 Zn -0.26013(11) 0.38107(7) 0.61264(3)
Zn1B Zn 0.73987(11) 1.11893(7) 1.11264(3)
O5 O 0.1169(15) 0.3121(8) 0.5102(4)
H11 H 0.2133 0.3028 0.4981
H12 H 0.0240 0.3447 0.4776
loop_
_geom_bond_atom_site_label_1
_geom_bond_atom_site_label_2
_geom_bond_site_symmetry_1
_geom_bond_site_symmetry_2
C1 C2 1_555 1_555
C2 H1 1_555 1_555
C3 C2 1_555 1_555
H2 C3 1_555 1_555
C4 C3 1_555 1_555
H3 C4 1_555 1_555
C5 C4 1_555 1_555
H4 C5 1_555 1_555
C6 C1 1_555 1_555
C7 C8 1_555 1_555
C8 C9 1_555 1_555
C9 H5 1_555 1_555
C10 C9 1_555 1_555
H6 C10 1_555 1_555
C11 C10 1_555 1_555
H7 C11 1_555 1_555
C12 C11 1_555 1_555
H8 C12 1_555 1_555
C13 H9 1_555 1_555
H10 C13 1_555 1_555
C14 C13 1_555 1_555
C15 O3 1_555 1_555
N1 C8 1_555 1_555
N2 C1 1_555 1_555
N3 C6 1_555 1_555
O1 C14 1_555 1_555
O2 C14 1_555 1_555
O3 Zn1 1_555 1_555
O4 C15 1_555 1_555
O5 H11 1_555 1_555
H12 O5 1_555 1_555
Zn1 N1 1_555 1_555
C1A C2A 1_555 1_555
C2A H1A 1_555 1_555
C3A C2A 1_555 1_555
H2A C3A 1_555 1_555
C4A C3A 1_555 1_555
H3A C4A 1_555 1_555
C5A C4A 1_555 1_555
H4A C5A 1_555 1_555
C6A C1A 1_555 1_555
C7A C8A 1_555 1_555
C8A C9A 1_555 1_555
C9A H5A 1_555 1_555
C10A C9A 1_555 1_555
H6A C10A 1_555 1_555
C11A C10A 1_555 1_555
H7A C11A 1_555 1_555
C12A C11A 1_555 1_555
H8A C12A 1_555 1_555
C13A H9A 1_555 1_555
H10A C13A 1_555 1_555
C14A C13A 1_555 1_555
C15B C15 1_555 1_555
N1A C8A 1_555 1_555
N1B Zn1B 1_555 1_555
N2A C1A 1_555 1_555
N2B Zn1B 1_555 1_555
N3A C6A 1_555 1_555
O1A Zn1 1_555 1_555
O1C Zn1B 1_555 1_555
O2A Zn1 1_555 1_555
O2C Zn1B 1_555 1_555
O3B C15B 1_555 1_555
O4B Zn1 1_555 1_555
Zn1A N1A 1_555 1_555
Zn1A_2 O1 1_555 1_555
Zn1B O4 1_555 1_555
C5 C6 1_555 1_555
C7 N2 1_555 1_555
C7 N3 1_555 1_555
C12 N1 1_555 1_555
C13 N3 1_555 1_555
N2 Zn1 1_555 1_555
O2 Zn1A_2 1_555 1_555
C5A C6A 1_555 1_555
C7A N2A 1_555 1_555
C7A N3A 1_555 1_555
C12A N1A 1_555 1_555
C13A N3A 1_555 1_555
C14A O1A 1_555 1_555
C14A O2A 1_555 1_555
C15B O4B 1_555 1_555
N2A Zn1A 1_555 1_555
O3B Zn1B 1_555 1_555

#END
