
#######################################################################
#
#                 Cambridge Crystallographic Data Centre
#                                CCDC 
#
#######################################################################
#
# If this CIF has been generated from an entry in the Cambridge 
# Structural Database, then it will include bibliographic, chemical, 
# crystal, experimental, refinement or atomic coordinate data resulting 
# from the CCDC's data processing and validation procedures.
#
#######################################################################

data_QOWDUC
_symmetry_cell_setting           orthorhombic
_symmetry_space_group_name_H-M   'P 21 21 21'
_symmetry_Int_Tables_number      19
_space_group_name_Hall           'P 2ac 2ab'
loop_
_symmetry_equiv_pos_site_id
_symmetry_equiv_pos_as_xyz
1 x,y,z
2 1/2-x,-y,1/2+z
3 -x,1/2+y,1/2-z
4 1/2+x,1/2-y,-z
_cell_length_a                   17.774(9)
_cell_length_b                   18.964(10)
_cell_length_c                   23.806(12)
_cell_angle_alpha                90
_cell_angle_beta                 90
_cell_angle_gamma                90
_cell_volume                     8024.2
loop_
_atom_site_label
_atom_site_type_symbol
_atom_site_fract_x
_atom_site_fract_y
_atom_site_fract_z
Co1 Co 0.42135(7) 0.38426(8) 0.54937(4)
Co2 Co 0.22733(6) 0.60862(8) 0.53807(5)
Co3 Co 0.42660(7) 0.84435(7) 0.46448(5)
Co4 Co 0.25122(6) 0.11570(7) 0.49424(4)
N1 N 0.3403(4) 0.4329(4) 0.5933(3)
N2 N 0.2533(4) 0.5211(4) 0.5811(3)
N3 N 0.3201(4) 0.5488(4) 0.4734(3)
N4 N 0.3923(4) 0.4491(4) 0.4849(3)
N5 N 0.3981(4) 0.2807(4) 0.5464(3)
N6 N 0.3326(4) 0.1758(4) 0.5407(3)
N7 N 0.2674(4) 0.2105(4) 0.4417(3)
N8 N 0.3191(4) 0.3171(4) 0.4362(3)
H1 H 0.3462 0.3531 0.4451
N9 N 0.5289(4) 0.4008(5) 0.5670(3)
N10 N 0.6539(4) 0.4160(4) 0.5533(3)
N11 N 0.6582(4) 0.3328(4) 0.4605(3)
N12 N 0.5414(4) 0.2947(4) 0.4691(3)
H2 H 0.4970 0.2890 0.4827
N13 N 0.3070(4) 0.6855(4) 0.5425(3)
N14 N 0.3873(4) 0.7749(4) 0.5232(3)
N15 N 0.3350(4) 0.7952(4) 0.4190(3)
N16 N 0.2409(4) 0.7189(4) 0.4256(3)
H3 H 0.2109 0.6882 0.4399
N17 N 0.1435(4) 0.6602(4) 0.5873(3)
N18 N 0.0170(4) 0.6822(4) 0.5803(3)
N19 N 0.0177(4) 0.6104(5) 0.4756(3)
N20 N 0.1442(4) 0.6023(4) 0.4797(3)
N21 N 0.3899(4) -0.0551(4) 0.4473(2)
N22 N 0.3277(4) 0.0501(4) 0.4496(3)
N23 N 0.2595(4) 0.0234(4) 0.5487(3)
N24 N 0.3135(4) -0.0803(4) 0.5618(3)
H4 H 0.3407 -0.1169 0.5554
C1 C 0.2998(5) 0.4401(5) 0.6438(4)
C2 C 0.3074(6) 0.4056(6) 0.6946(4)
H5 H 0.3434 0.3707 0.7000
C3 C 0.2592(6) 0.4255(6) 0.7365(4)
H6 H 0.2621 0.4027 0.7710
C4 C 0.2055(6) 0.4790(6) 0.7292(4)
H7 H 0.1743 0.4910 0.7590
C5 C 0.1980(6) 0.5130(6) 0.6804(4)
H8 H 0.1619 0.5481 0.6758
C6 C 0.2465(5) 0.4941(5) 0.6358(3)
C7 C 0.3095(5) 0.4822(5) 0.5595(3)
C8 C 0.3396(5) 0.4942(5) 0.5039(3)
C9 C 0.3677(5) 0.5422(6) 0.4277(3)
C10 C 0.3769(6) 0.5856(6) 0.3803(4)
H9 H 0.3484 0.6263 0.3753
C11 C 0.4309(7) 0.5646(8) 0.3412(4)
H10 H 0.4378 0.5914 0.3089
C12 C 0.4741(7) 0.5056(7) 0.3489(4)
H11 H 0.5109 0.4953 0.3224
C13 C 0.4658(6) 0.4603(7) 0.3944(4)
H12 H 0.4942 0.4194 0.3980
C14 C 0.4118(5) 0.4801(6) 0.4345(3)
C15 C 0.4155(5) 0.2387(5) 0.5928(3)
C16 C 0.4646(6) 0.2535(6) 0.6380(4)
H13 H 0.4914 0.2954 0.6408
C17 C 0.4696(6) 0.2002(7) 0.6777(4)
H14 H 0.5022 0.2063 0.7079
C18 C 0.4284(7) 0.1384(6) 0.6748(4)
H15 H 0.4322 0.1057 0.7037
C19 C 0.3826(5) 0.1247(6) 0.6306(4)
H16 H 0.3560 0.0825 0.6289
C20 C 0.3758(5) 0.1735(5) 0.5886(3)
C21 C 0.3487(4) 0.2385(5) 0.5180(3)
C22 C 0.3123(5) 0.2568(5) 0.4656(3)
C23 C 0.2421(5) 0.2431(5) 0.3929(3)
C24 C 0.1960(6) 0.2188(6) 0.3495(3)
H17 H 0.1748 0.1740 0.3510
C25 C 0.1826(6) 0.2626(7) 0.3045(3)
H18 H 0.1520 0.2473 0.2753
C26 C 0.2147(6) 0.3303(7) 0.3021(4)
H19 H 0.2035 0.3596 0.2718
C27 C 0.2626(6) 0.3542(6) 0.3439(4)
H20 H 0.2857 0.3981 0.3413
C28 C 0.2750(5) 0.3105(5) 0.3895(3)
C29 C 0.5557(5) 0.4487(6) 0.6064(4)
C30 C 0.5170(6) 0.4861(7) 0.6490(4)
H21 H 0.4655 0.4812 0.6545
C31 C 0.5596(7) 0.5296(7) 0.6814(5)
H22 H 0.5358 0.5559 0.7091
C32 C 0.6367(6) 0.5367(7) 0.6752(5)
H23 H 0.6634 0.5656 0.6996
C33 C 0.6732(6) 0.5020(6) 0.6341(4)
H24 H 0.7248 0.5076 0.6296
C34 C 0.6325(5) 0.4572(5) 0.5981(4)
C35 C 0.5914(4) 0.3854(5) 0.5372(3)
C36 C 0.5949(5) 0.3375(5) 0.4895(3)
C37 C 0.6437(5) 0.2862(5) 0.4174(3)
C38 C 0.6908(6) 0.2625(7) 0.3732(4)
H25 H 0.7395 0.2795 0.3688
C39 C 0.6614(7) 0.2133(7) 0.3372(4)
H26 H 0.6909 0.1971 0.3076
C40 C 0.5884(7) 0.1865(6) 0.3434(4)
H27 H 0.5706 0.1523 0.3187
C41 C 0.5432(6) 0.2106(7) 0.3858(4)
H28 H 0.4947 0.1930 0.3900
C42 C 0.5703(5) 0.2615(5) 0.4222(3)
C43 C 0.3540(5) 0.6932(5) 0.5878(3)
C44 C 0.3572(5) 0.6547(6) 0.6393(4)
H29 H 0.3222 0.6198 0.6477
C45 C 0.4147(6) 0.6719(6) 0.6758(4)
H30 H 0.4205 0.6464 0.7089
C46 C 0.4648(6) 0.7278(7) 0.6634(4)
H31 H 0.5016 0.7392 0.6897
C47 C 0.4616(6) 0.7657(6) 0.6146(4)
H32 H 0.4953 0.8021 0.6073
C48 C 0.4047(5) 0.7472(5) 0.5756(4)
C49 C 0.3293(5) 0.7350(5) 0.5071(3)
C50 C 0.3006(5) 0.7482(5) 0.4512(3)
C51 C 0.2964(5) 0.7953(5) 0.3685(4)
C52 C 0.3064(6) 0.8319(6) 0.3189(4)
H33 H 0.3458 0.8638 0.3154
C53 C 0.2584(7) 0.8210(6) 0.2753(4)
H34 H 0.2651 0.8459 0.2421
C54 C 0.1997(6) 0.7735(6) 0.2795(4)
H35 H 0.1680 0.7673 0.2488
C55 C 0.1865(6) 0.7349(6) 0.3274(4)
H36 H 0.1470 0.7030 0.3299
C56 C 0.2363(5) 0.7465(5) 0.3724(3)
C57 C 0.1208(5) 0.6936(5) 0.6371(3)
C58 C 0.1600(6) 0.7109(6) 0.6854(4)
H37 H 0.2115 0.7033 0.6882
C59 C 0.1201(7) 0.7397(7) 0.7289(4)
H38 H 0.1455 0.7523 0.7616
C60 C 0.0451(7) 0.7504(7) 0.7260(4)
H39 H 0.0204 0.7687 0.7571
C61 C 0.0037(6) 0.7350(6) 0.6784(4)
H40 H -0.0479 0.7429 0.6768
C62 C 0.0424(5) 0.7076(5) 0.6339(3)
C63 C 0.0796(5) 0.6558(5) 0.5570(3)
C64 C 0.0792(5) 0.6231(5) 0.5034(3)
C65 C 0.0421(5) 0.5772(5) 0.4276(3)
C66 C 0.0021(6) 0.5535(7) 0.3812(4)
H41 H -0.0499 0.5581 0.3792
C67 C 0.0432(7) 0.5221(7) 0.3369(5)
H42 H 0.0183 0.5055 0.3052
C68 C 0.1206(8) 0.5161(7) 0.3409(4)
H43 H 0.1462 0.4943 0.3116
C69 C 0.1610(6) 0.5402(6) 0.3850(4)
H44 H 0.2132 0.5366 0.3859
C70 C 0.1198(5) 0.5714(5) 0.4299(3)
C71 C 0.4076(5) -0.0174(5) 0.3998(3)
C72 C 0.4572(5) -0.0323(6) 0.3550(3)
H45 H 0.4855 -0.0735 0.3544
C73 C 0.4620(5) 0.0156(6) 0.3130(4)
H46 H 0.4935 0.0056 0.2829
C74 C 0.4216(6) 0.0801(5) 0.3123(3)
H47 H 0.4271 0.1116 0.2827
C75 C 0.3743(5) 0.0952(5) 0.3564(3)
H48 H 0.3460 0.1364 0.3568
C76 C 0.3698(5) 0.0466(5) 0.4009(3)
C77 C 0.3423(4) -0.0104(5) 0.4748(3)
C78 C 0.3054(5) -0.0245(5) 0.5276(3)
C79 C 0.2376(5) -0.0032(5) 0.5998(4)
C80 C 0.1921(6) 0.0260(7) 0.6432(4)
H49 H 0.1669 0.0686 0.6386
C81 C 0.1874(8) -0.0116(7) 0.6920(5)
H50 H 0.1623 0.0088 0.7222
C82 C 0.2165(8) -0.0762(8) 0.6991(5)
H51 H 0.2062 -0.1012 0.7318
C83 C 0.2618(7) -0.1061(7) 0.6581(4)
H52 H 0.2850 -0.1495 0.6637
C84 C 0.2712(6) -0.0688(6) 0.6086(3)
Co3C Co -0.07340(7) 0.65565(7) 0.53552(5)
Co3_2 Co 0.42660(7) -0.15565(7) 0.46448(5)
Co4C Co 0.75122(6) 0.38430(7) 0.50576(4)
N10C N 0.1539(4) 0.0840(4) 0.4467(3)
N11C N 0.1582(4) 0.1672(4) 0.5395(3)
N18C N 0.5170(4) 0.8178(4) 0.4197(3)
N19C N 0.5177(4) 0.8896(5) 0.5244(3)
N21_2 N 0.3899(4) 0.9449(4) 0.4473(2)
O1 O 0.138(2) 0.8300(19) 0.496(2)
O2 O 0.5096(18) 0.1228(16) 0.5007(7)
O3? O 0.084(3) 0.8777(18) 0.5016(16)
O4? O 0.603(2) 0.1131(16) 0.5175(12)
loop_
_geom_bond_atom_site_label_1
_geom_bond_atom_site_label_2
_geom_bond_site_symmetry_1
_geom_bond_site_symmetry_2
Co1 N1 1_555 1_555
Co2 N2 1_555 1_555
Co3 N14 1_555 1_555
Co4 N6 1_555 1_555
N1 C1 1_555 1_555
N2 C6 1_555 1_555
N3 Co2 1_555 1_555
N4 Co1 1_555 1_555
N5 Co1 1_555 1_555
N6 C20 1_555 1_555
N7 Co4 1_555 1_555
N8 H1 1_555 1_555
N9 Co1 1_555 1_555
N10 C34 1_555 1_555
N11 C36 1_555 1_555
N12 H2 1_555 1_555
N13 Co2 1_555 1_555
N14 C48 1_555 1_555
N15 Co3 1_555 1_555
N16 H3 1_555 1_555
N17 Co2 1_555 1_555
N18 C62 1_555 1_555
N19 C64 1_555 1_555
N20 Co2 1_555 1_555
N21 C71 1_555 1_555
N22 Co4 1_555 1_555
N23 Co4 1_555 1_555
N24 H4 1_555 1_555
C1 C2 1_555 1_555
C2 H5 1_555 1_555
C3 C2 1_555 1_555
H6 C3 1_555 1_555
C4 C3 1_555 1_555
H7 C4 1_555 1_555
C5 C4 1_555 1_555
H8 C5 1_555 1_555
C6 C1 1_555 1_555
C7 N1 1_555 1_555
C8 N3 1_555 1_555
C9 N3 1_555 1_555
C10 C9 1_555 1_555
H9 C10 1_555 1_555
C11 C10 1_555 1_555
H10 C11 1_555 1_555
C12 C11 1_555 1_555
H11 C12 1_555 1_555
C13 C12 1_555 1_555
H12 C13 1_555 1_555
C14 N4 1_555 1_555
C15 N5 1_555 1_555
C16 C15 1_555 1_555
H13 C16 1_555 1_555
C17 C16 1_555 1_555
H14 C17 1_555 1_555
C18 C17 1_555 1_555
H15 C18 1_555 1_555
C19 C18 1_555 1_555
H16 C19 1_555 1_555
C20 C15 1_555 1_555
C21 N5 1_555 1_555
C22 N7 1_555 1_555
C23 N7 1_555 1_555
C24 C23 1_555 1_555
H17 C24 1_555 1_555
C25 C24 1_555 1_555
H18 C25 1_555 1_555
C26 C25 1_555 1_555
H19 C26 1_555 1_555
C27 C26 1_555 1_555
H20 C27 1_555 1_555
C28 N8 1_555 1_555
C29 N9 1_555 1_555
C30 C29 1_555 1_555
H21 C30 1_555 1_555
C31 C30 1_555 1_555
H22 C31 1_555 1_555
C32 C31 1_555 1_555
H23 C32 1_555 1_555
C33 C32 1_555 1_555
H24 C33 1_555 1_555
C34 C29 1_555 1_555
C35 N9 1_555 1_555
C36 N12 1_555 1_555
C37 N11 1_555 1_555
C38 C37 1_555 1_555
H25 C38 1_555 1_555
C39 C38 1_555 1_555
H26 C39 1_555 1_555
C40 C39 1_555 1_555
H27 C40 1_555 1_555
C41 C40 1_555 1_555
H28 C41 1_555 1_555
C42 N12 1_555 1_555
C43 N13 1_555 1_555
C44 C43 1_555 1_555
H29 C44 1_555 1_555
C45 C44 1_555 1_555
H30 C45 1_555 1_555
C46 C45 1_555 1_555
H31 C46 1_555 1_555
C47 C46 1_555 1_555
H32 C47 1_555 1_555
C48 C43 1_555 1_555
C49 N13 1_555 1_555
C50 N15 1_555 1_555
C51 N15 1_555 1_555
C52 C51 1_555 1_555
H33 C52 1_555 1_555
C53 C52 1_555 1_555
H34 C53 1_555 1_555
C54 C53 1_555 1_555
H35 C54 1_555 1_555
C55 C54 1_555 1_555
H36 C55 1_555 1_555
C56 N16 1_555 1_555
C57 N17 1_555 1_555
C58 C57 1_555 1_555
H37 C58 1_555 1_555
C59 C58 1_555 1_555
H38 C59 1_555 1_555
C60 C59 1_555 1_555
H39 C60 1_555 1_555
C61 C60 1_555 1_555
H40 C61 1_555 1_555
C62 C57 1_555 1_555
C63 N17 1_555 1_555
C64 N20 1_555 1_555
C65 N19 1_555 1_555
C66 C65 1_555 1_555
H41 C66 1_555 1_555
C67 C66 1_555 1_555
H42 C67 1_555 1_555
C68 C67 1_555 1_555
H43 C68 1_555 1_555
C69 C68 1_555 1_555
H44 C69 1_555 1_555
C70 N20 1_555 1_555
C71 C72 1_555 1_555
C72 H45 1_555 1_555
C73 C72 1_555 1_555
H46 C73 1_555 1_555
C74 C73 1_555 1_555
H47 C74 1_555 1_555
C75 C74 1_555 1_555
H48 C75 1_555 1_555
C76 N22 1_555 1_555
C77 N21 1_555 1_555
C78 N23 1_555 1_555
C79 N23 1_555 1_555
C80 C79 1_555 1_555
H49 C80 1_555 1_555
C81 C80 1_555 1_555
H50 C81 1_555 1_555
C82 C81 1_555 1_555
H51 C82 1_555 1_555
C83 C82 1_555 1_555
H52 C83 1_555 1_555
C84 N24 1_555 1_555
Co3C N18 1_555 1_555
Co3_2 N21 1_555 1_555
Co4C N10 1_555 1_555
N10C Co4 1_555 1_555
N11C Co4 1_555 1_555
N18C Co3 1_555 1_555
N19C Co3 1_555 1_555
N21_2 Co3 1_555 1_555
N2 C7 1_555 1_555
N4 C8 1_555 1_555
N6 C21 1_555 1_555
N8 C22 1_555 1_555
N10 C35 1_555 1_555
N11 Co4C 1_555 1_555
N14 C49 1_555 1_555
N16 C50 1_555 1_555
N18 C63 1_555 1_555
N19 Co3C 1_555 1_555
N22 C77 1_555 1_555
N24 C78 1_555 1_555
C5 C6 1_555 1_555
C7 C8 1_555 1_555
C9 C14 1_555 1_555
C13 C14 1_555 1_555
C19 C20 1_555 1_555
C21 C22 1_555 1_555
C23 C28 1_555 1_555
C27 C28 1_555 1_555
C33 C34 1_555 1_555
C35 C36 1_555 1_555
C37 C42 1_555 1_555
C41 C42 1_555 1_555
C47 C48 1_555 1_555
C49 C50 1_555 1_555
C51 C56 1_555 1_555
C55 C56 1_555 1_555
C61 C62 1_555 1_555
C63 C64 1_555 1_555
C65 C70 1_555 1_555
C69 C70 1_555 1_555
C71 C76 1_555 1_555
C75 C76 1_555 1_555
C77 C78 1_555 1_555
C79 C84 1_555 1_555
C83 C84 1_555 1_555

#END
