
#######################################################################
#
#                 Cambridge Crystallographic Data Centre
#                                CCDC 
#
#######################################################################
#
# If this CIF has been generated from an entry in the Cambridge 
# Structural Database, then it will include bibliographic, chemical, 
# crystal, experimental, refinement or atomic coordinate data resulting 
# from the CCDC's data processing and validation procedures.
#
#######################################################################

data_QOWFIS
_symmetry_cell_setting           monoclinic
_symmetry_space_group_name_H-M   'C 2/c'
_symmetry_Int_Tables_number      15
_space_group_name_Hall           '-C 2yn'
loop_
_symmetry_equiv_pos_site_id
_symmetry_equiv_pos_as_xyz
1 x,y,z
2 -x,y,1/2-z
3 1/2+x,1/2+y,z
4 1/2-x,1/2+y,1/2-z
5 -x,-y,-z
6 x,-y,1/2+z
7 1/2-x,1/2-y,-z
8 1/2+x,1/2-y,1/2+z
_cell_length_a                   14.371(3)
_cell_length_b                   14.218(3)
_cell_length_c                   17.119(4)
_cell_angle_alpha                90
_cell_angle_beta                 93.107(13)
_cell_angle_gamma                90
_cell_volume                     3492.73
loop_
_atom_site_label
_atom_site_type_symbol
_atom_site_fract_x
_atom_site_fract_y
_atom_site_fract_z
Ag1 Ag 1.0000 0.938642(17) 1.2500
N1 N 0.86311(11) 0.90873(12) 1.30723(9)
N2 N 0.77717(11) 0.91272(11) 1.26897(9)
N3 N 0.89752(12) 1.03214(12) 1.16672(10)
N4 N 0.80397(11) 1.01692(11) 1.16333(9)
O1 O 0.91663(12) 0.63096(11) 0.92746(9)
O2 O 0.95533(14) 0.55475(11) 1.03824(10)
C1 C 0.60720(15) 0.91756(19) 1.29544(17)
H1 H 0.5706 0.9199 1.3413
H2 H 0.5916 0.8611 1.2657
H3 H 0.5937 0.9724 1.2631
C2 C 0.70823(13) 0.91634(14) 1.32019(13)
C3 C 0.75082(15) 0.91409(16) 1.39313(13)
H4 H 0.7217 0.9155 1.4410
C4 C 0.84670(14) 0.90923(15) 1.38269(12)
C5 C 0.92535(18) 0.9035(2) 1.44236(14)
H5 H 0.9837 0.9008 1.4165
H6 H 0.9188 0.8473 1.4738
H7 H 0.9250 0.9586 1.4758
C6 C 0.65138(19) 1.0996(2) 1.1345(2)
H8 H 0.6261 1.0383 1.1463
H9 H 0.6319 1.1172 1.0814
H10 H 0.6287 1.1458 1.1706
C7 C 0.75542(16) 1.09596(15) 1.14269(13)
C8 C 0.82090(19) 1.16341(16) 1.13283(14)
H11 H 0.8097 1.2263 1.1182
C9 C 0.90751(17) 1.12189(15) 1.14837(12)
C10 C 1.0029(2) 1.1628(2) 1.14452(16)
H12 H 1.0490 1.1151 1.1585
H13 H 1.0098 1.2152 1.1807
H14 H 1.0117 1.1848 1.0918
C11 C 0.76901(13) 0.92491(12) 1.18463(11)
H15 H 0.7017 0.9238 1.1690
C12 C 0.81467(12) 0.84704(13) 1.13925(11)
C13 C 0.84374(18) 0.76379(15) 1.17359(12)
H16 H 0.8396 0.7553 1.2277
C14 C 0.87924(18) 0.69226(16) 1.12859(13)
H17 H 0.9003 0.6363 1.1529
C15 C 0.88395(13) 0.70223(13) 1.04893(12)
C16 C 0.85216(13) 0.78516(13) 1.01434(11)
H18 H 0.8530 0.7923 0.9598
C17 C 0.81930(13) 0.85735(13) 1.05921(11)
H19 H 0.7999 0.9140 1.0352
C18 C 0.92084(13) 0.62480(14) 0.99908(12)
H20 H 1.0000 0.5000 1.0000
Ag1D Ag 1.0000 0.061358(17) 0.7500
N1D N 1.13689(11) 0.09127(12) 0.69277(9)
N1A N 1.13689(11) 0.90873(12) 1.19277(9)
N2D N 1.22283(11) 0.08728(11) 0.73103(9)
N3D N 1.10248(12) -0.03214(12) 0.83328(10)
N3A N 1.10248(12) 1.03214(12) 1.33328(10)
N4D N 1.19603(11) -0.01692(11) 0.83667(9)
O1D O 1.08337(12) 0.36904(11) 1.07254(9)
O2D O 1.04467(14) 0.44525(11) 0.96176(10)
C1D C 1.39280(15) 0.08244(19) 0.70456(17)
H1D H 1.4294 0.0801 0.6587
H2D H 1.4084 0.1389 0.7343
H3D H 1.4063 0.0276 0.7369
C2D C 1.29177(13) 0.08366(14) 0.67981(13)
C3D C 1.24918(15) 0.08591(16) 0.60687(13)
H4D H 1.2783 0.0845 0.5590
C4D C 1.15330(14) 0.09077(15) 0.61731(12)
C5D C 1.07465(18) 0.0965(2) 0.55764(14)
H5D H 1.0163 0.0992 0.5835
H6D H 1.0812 0.1527 0.5262
H7D H 1.0750 0.0414 0.5242
C6D C 1.34862(19) -0.0996(2) 0.8655(2)
H8D H 1.3739 -0.0383 0.8537
H9D H 1.3681 -0.1172 0.9186
H10D H 1.3713 -0.1458 0.8294
C7D C 1.24458(16) -0.09596(15) 0.85731(13)
C8D C 1.17910(19) -0.16341(16) 0.86717(14)
H11D H 1.1903 -0.2263 0.8818
C9D C 1.09249(17) -0.12189(15) 0.85163(12)
C10D C 0.9971(2) -0.1628(2) 0.85548(16)
H12D H 0.9510 -0.1151 0.8415
H13D H 0.9902 -0.2152 0.8193
H14D H 0.9883 -0.1848 0.9082
C11D C 1.23099(13) 0.07509(12) 0.81537(11)
H15D H 1.2983 0.0762 0.8310
C12D C 1.18533(12) 0.15296(13) 0.86075(11)
C13D C 1.15626(18) 0.23621(15) 0.82641(12)
H16D H 1.1604 0.2447 0.7723
C14D C 1.12076(18) 0.30774(16) 0.87141(13)
H17D H 1.0997 0.3637 0.8471
C15D C 1.11605(13) 0.29777(13) 0.95107(12)
C16D C 1.14784(13) 0.21484(13) 0.98566(11)
H18D H 1.1470 0.2077 1.0402
C17D C 1.18070(13) 0.14265(13) 0.94079(11)
H19D H 1.2001 0.0860 0.9648
C18D C 1.07916(13) 0.37520(14) 1.00092(12)
loop_
_geom_bond_atom_site_label_1
_geom_bond_atom_site_label_2
_geom_bond_site_symmetry_1
_geom_bond_site_symmetry_2
Ag1 N1 1_555 1_555
N1 N2 1_555 1_555
N2 C2 1_555 1_555
N3 Ag1 1_555 1_555
N4 N3 1_555 1_555
O1 C18 1_555 1_555
O2 C18 1_555 1_555
C1 H1 1_555 1_555
H2 C1 1_555 1_555
H3 C1 1_555 1_555
C2 C1 1_555 1_555
C3 C2 1_555 1_555
H4 C3 1_555 1_555
C4 N1 1_555 1_555
C5 C4 1_555 1_555
H5 C5 1_555 1_555
H6 C5 1_555 1_555
H7 C5 1_555 1_555
C6 H8 1_555 1_555
H9 C6 1_555 1_555
H10 C6 1_555 1_555
C7 N4 1_555 1_555
C8 C7 1_555 1_555
H11 C8 1_555 1_555
C9 N3 1_555 1_555
C10 C9 1_555 1_555
H12 C10 1_555 1_555
H13 C10 1_555 1_555
H14 C10 1_555 1_555
C11 N2 1_555 1_555
H15 C11 1_555 1_555
C12 C11 1_555 1_555
C13 C12 1_555 1_555
H16 C13 1_555 1_555
C14 C13 1_555 1_555
H17 C14 1_555 1_555
C15 C14 1_555 1_555
C16 C15 1_555 1_555
H18 C16 1_555 1_555
C17 C12 1_555 1_555
H19 C17 1_555 1_555
C18 C15 1_555 1_555
H20 O2 1_555 1_555
Ag1D N1D 1_555 1_555
N1D N2D 1_555 1_555
N1A Ag1 1_555 1_555
N2D C2D 1_555 1_555
N3D Ag1D 1_555 1_555
N3A Ag1 1_555 1_555
N4D N3D 1_555 1_555
O1D C18D 1_555 1_555
O2D H20 1_555 1_555
C1D H1D 1_555 1_555
H2D C1D 1_555 1_555
H3D C1D 1_555 1_555
C2D C1D 1_555 1_555
C3D C2D 1_555 1_555
H4D C3D 1_555 1_555
C4D N1D 1_555 1_555
C5D C4D 1_555 1_555
H5D C5D 1_555 1_555
H6D C5D 1_555 1_555
H7D C5D 1_555 1_555
C6D H8D 1_555 1_555
H9D C6D 1_555 1_555
H10D C6D 1_555 1_555
C7D N4D 1_555 1_555
C8D C7D 1_555 1_555
H11D C8D 1_555 1_555
C9D N3D 1_555 1_555
C10D C9D 1_555 1_555
H12D C10D 1_555 1_555
H13D C10D 1_555 1_555
H14D C10D 1_555 1_555
C11D N2D 1_555 1_555
H15D C11D 1_555 1_555
C12D C11D 1_555 1_555
C13D C12D 1_555 1_555
H16D C13D 1_555 1_555
C14D C13D 1_555 1_555
H17D C14D 1_555 1_555
C15D C14D 1_555 1_555
C16D C15D 1_555 1_555
H18D C16D 1_555 1_555
C17D C12D 1_555 1_555
H19D C17D 1_555 1_555
C18D O2D 1_555 1_555
N4 C11 1_555 1_555
C3 C4 1_555 1_555
C6 C7 1_555 1_555
C8 C9 1_555 1_555
C16 C17 1_555 1_555
N4D C11D 1_555 1_555
C3D C4D 1_555 1_555
C6D C7D 1_555 1_555
C8D C9D 1_555 1_555
C15D C18D 1_555 1_555
C16D C17D 1_555 1_555

#END
