
#######################################################################
#
#                 Cambridge Crystallographic Data Centre
#                                CCDC 
#
#######################################################################
#
# If this CIF has been generated from an entry in the Cambridge 
# Structural Database, then it will include bibliographic, chemical, 
# crystal, experimental, refinement or atomic coordinate data resulting 
# from the CCDC's data processing and validation procedures.
#
#######################################################################

data_QOWRIE02
_symmetry_cell_setting           monoclinic
_symmetry_space_group_name_H-M   'I 2/a'
_symmetry_Int_Tables_number      15
_space_group_name_Hall           '-I 2ya'
loop_
_symmetry_equiv_pos_site_id
_symmetry_equiv_pos_as_xyz
1 x,y,z
2 1/2-x,y,-z
3 1/2+x,1/2+y,1/2+z
4 -x,1/2+y,1/2-z
5 -x,-y,-z
6 1/2+x,-y,z
7 1/2-x,1/2-y,1/2-z
8 x,1/2-y,1/2+z
_cell_length_a                   10.1192(16)
_cell_length_b                   11.7954(12)
_cell_length_c                   24.897(2)
_cell_angle_alpha                90
_cell_angle_beta                 91.787(11)
_cell_angle_gamma                90
_cell_volume                     2970.26
loop_
_atom_site_label
_atom_site_type_symbol
_atom_site_fract_x
_atom_site_fract_y
_atom_site_fract_z
Cu1 Cu 0.7500 0.11839(5) 0.50000
O1 O 0.6338(3) 0.4473(2) 0.28820(10)
N1 N 0.4663(3) 0.1121(3) 0.36448(12)
N2 N 0.5594(3) 0.1034(2) 0.54752(10)
N3 N 0.3559(3) 0.0044(2) 0.54085(11)
C1 C 0.602(4) 0.5022(16) 0.4045(9)
N4 N 0.586(5) 0.5902(12) 0.4234(4)
N5 N 0.5846(4) 0.2153(3) 0.20513(12)
N6 N 0.6792(3) 0.2371(3) 0.44993(11)
C2 C 0.3148(4) 0.0606(3) 0.58412(13)
C3 C 0.6553(5) 0.3068(3) 0.41912(14)
C4 C 0.5171(4) 0.1585(3) 0.59110(13)
C5 C 0.6302(6) 0.3947(3) 0.38152(15)
C6 C 0.6137(4) 0.3696(3) 0.32590(13)
C7 C 0.5140(4) 0.1812(3) 0.33860(13)
C8 C 0.5809(4) 0.2392(3) 0.25014(13)
C9 C 0.5720(4) 0.2649(3) 0.30600(13)
C10 C 0.7334(6) 0.5363(4) 0.29672(19)
C11 C 0.7853(6) 0.5643(4) 0.2426(2)
C12 C 0.4768(4) 0.0298(3) 0.52435(12)
C13 C 0.3918(4) 0.1395(3) 0.61030(14)
H1 H 0.817(4) 0.504(3) 0.3154(17)
H2 H 0.229(5) 0.044(4) 0.5974(18)
H3 H 0.687(5) 0.604(4) 0.3113(19)
H4 H 0.354(4) 0.180(4) 0.6370(18)
H5 H 0.844(6) 0.626(5) 0.247(2)
H6 H 0.820(5) 0.500(5) 0.231(2)
H7 H 0.707(6) 0.597(5) 0.220(2)
H8 H 0.578(4) 0.211(3) 0.6054(15)
Cu1D Cu 0.2500 -0.11839(5) 0.50000
O1A O 0.8662(3) 0.4473(2) 0.71180(10)
N1A N 1.0337(3) 0.1121(3) 0.63552(12)
N2D N 0.4406(3) -0.1034(2) 0.45248(10)
N2A N 0.9406(3) 0.1034(2) 0.45248(10)
N3D N 0.6441(3) -0.0044(2) 0.45915(11)
N3E N 0.8559(3) -0.0044(2) 0.54085(11)
C1A C 0.898(4) 0.5022(16) 0.5955(9)
N4A N 0.914(5) 0.5902(12) 0.5766(4)
N5A N 0.9154(4) 0.2153(3) 0.79487(12)
N6A N 0.8208(3) 0.2371(3) 0.55007(11)
C2D C 0.6852(4) -0.0606(3) 0.41588(13)
C3A C 0.8447(5) 0.3068(3) 0.58088(14)
C4D C 0.4829(4) -0.1585(3) 0.40890(13)
C5A C 0.8698(6) 0.3947(3) 0.61848(15)
C6A C 0.8863(4) 0.3696(3) 0.67410(13)
C7A C 0.9860(4) 0.1812(3) 0.66140(13)
C8A C 0.9191(4) 0.2392(3) 0.74986(13)
C9A C 0.9280(4) 0.2649(3) 0.69400(13)
C10A C 0.7666(6) 0.5363(4) 0.70328(19)
C11A C 0.7147(6) 0.5643(4) 0.7574(2)
C12D C 0.5232(4) -0.0298(3) 0.47565(12)
C13D C 0.6082(4) -0.1395(3) 0.38970(14)
H1A H 0.683(4) 0.504(3) 0.6846(17)
H2D H 0.771(5) -0.044(4) 0.4026(18)
H3A H 0.813(5) 0.604(4) 0.6887(19)
H4D H 0.646(4) -0.180(4) 0.3630(18)
H5A H 0.656(6) 0.626(5) 0.753(2)
H6A H 0.680(5) 0.500(5) 0.769(2)
H7A H 0.793(6) 0.597(5) 0.780(2)
H8D H 0.422(4) -0.211(3) 0.3946(15)
O3 O 0.8371(14) 0.7554(10) 0.4882(5)
O2? O 0.7870(10) 0.7573(8) 0.4955(4)
loop_
_geom_bond_atom_site_label_1
_geom_bond_atom_site_label_2
_geom_bond_site_symmetry_1
_geom_bond_site_symmetry_2
Cu1 N2 1_555 1_555
O1 C6 1_555 1_555
N1 C7 1_555 1_555
N2 C4 1_555 1_555
N3 C2 1_555 1_555
C1 N4 1_555 1_555
N5 C8 1_555 1_555
N6 Cu1 1_555 1_555
C2 C13 1_555 1_555
C3 N6 1_555 1_555
C4 C13 1_555 1_555
C5 C1 1_555 1_555
C6 C5 1_555 1_555
C7 C9 1_555 1_555
C8 C9 1_555 1_555
C9 C6 1_555 1_555
C10 O1 1_555 1_555
C11 C10 1_555 1_555
C12 N2 1_555 1_555
C13 H4 1_555 1_555
H1 C10 1_555 1_555
H2 C2 1_555 1_555
H3 C10 1_555 1_555
H5 C11 1_555 1_555
H6 C11 1_555 1_555
H7 C11 1_555 1_555
H8 C4 1_555 1_555
Cu1D N3 1_555 1_555
O1A C6A 1_555 1_555
N1A C7A 1_555 1_555
N2D Cu1D 1_555 1_555
N2A Cu1 1_555 1_555
N3D Cu1 1_555 1_555
N3E Cu1 1_555 1_555
C1A N4A 1_555 1_555
N5A C8A 1_555 1_555
N6A Cu1 1_555 1_555
C2D N3D 1_555 1_555
C3A N6A 1_555 1_555
C4D N2D 1_555 1_555
C5A C1A 1_555 1_555
C6A C5A 1_555 1_555
C7A C9A 1_555 1_555
C8A C9A 1_555 1_555
C9A C6A 1_555 1_555
C10A O1A 1_555 1_555
C11A C10A 1_555 1_555
C12D C12 1_555 1_555
C13D C2D 1_555 1_555
H1A C10A 1_555 1_555
H2D C2D 1_555 1_555
H3A C10A 1_555 1_555
H4D C13D 1_555 1_555
H5A C11A 1_555 1_555
H6A C11A 1_555 1_555
H7A C11A 1_555 1_555
H8D C4D 1_555 1_555
N3 C12 1_555 1_555
C3 C5 1_555 1_555
N2D C12D 1_555 1_555
N3D C12D 1_555 1_555
C3A C5A 1_555 1_555
C4D C13D 1_555 1_555

#END
