
#######################################################################
#
#                 Cambridge Crystallographic Data Centre
#                                CCDC 
#
#######################################################################
#
# If this CIF has been generated from an entry in the Cambridge 
# Structural Database, then it will include bibliographic, chemical, 
# crystal, experimental, refinement or atomic coordinate data resulting 
# from the CCDC's data processing and validation procedures.
#
#######################################################################

data_QOWSUS
_symmetry_cell_setting           monoclinic
_symmetry_space_group_name_H-M   'P 21/c'
_symmetry_Int_Tables_number      14
_space_group_name_Hall           '-P 2ybc'
loop_
_symmetry_equiv_pos_site_id
_symmetry_equiv_pos_as_xyz
1 x,y,z
2 -x,1/2+y,1/2-z
3 -x,-y,-z
4 x,1/2-y,1/2+z
_cell_length_a                   8.1413(16)
_cell_length_b                   15.045(3)
_cell_length_c                   10.796(2)
_cell_angle_alpha                90
_cell_angle_beta                 110.84(3)
_cell_angle_gamma                90
_cell_volume                     1235.85
loop_
_atom_site_label
_atom_site_type_symbol
_atom_site_fract_x
_atom_site_fract_y
_atom_site_fract_z
N1 N 1.2380(6) 0.3203(4) 0.5041(5)
C1 C 1.1894(7) 0.2690(4) 0.5901(6)
Cd1 Cd 0.99891(6) 0.12788(3) 0.82576(4)
I1 I 1.10200(7) -0.04838(3) 0.84437(6)
N2 N 0.7397(6) 0.2230(3) 0.4257(5)
N3 N 0.9388(6) 0.1892(3) 0.6236(4)
N4 N 1.3183(6) 0.2529(4) 0.7034(5)
C2 C 0.6363(8) 0.1329(4) 0.5777(6)
C3 C 0.4641(8) 0.1231(4) 0.4962(6)
H1 H 0.4242 0.1488 0.4123
C4 C 0.5837(9) 0.0526(5) 0.7412(7)
H2 H 0.6231 0.0291 0.8264
C5 C 0.7681(8) 0.1812(4) 0.5407(6)
N5 N 0.6974(7) 0.0983(3) 0.7013(5)
N6 N 0.8962(6) 0.2601(3) 0.4336(5)
C6 C 1.0094(7) 0.2382(4) 0.5520(6)
C7 C 0.4138(9) 0.0393(5) 0.6628(8)
H3 H 0.3400 0.0056 0.6932
C8 C 0.3518(9) 0.0756(5) 0.5392(7)
H4 H 0.2349 0.0681 0.4850
N7 N 1.4573(7) 0.2948(4) 0.6881(5)
C9 C 1.4084(8) 0.3353(5) 0.5705(6)
H5 H 1.4818 0.3689 0.5396
H6 H 1.563(12) 0.297(6) 0.768(9)
N1C N 1.2380(6) 0.1797(4) 1.0041(5)
Cd1C Cd 0.99891(6) 0.37212(3) 0.32576(4)
N6C N 0.8962(6) 0.2399(3) 0.9336(5)
loop_
_geom_bond_atom_site_label_1
_geom_bond_atom_site_label_2
_geom_bond_site_symmetry_1
_geom_bond_site_symmetry_2
N1 C1 1_555 1_555
C1 N4 1_555 1_555
Cd1 I1 1_555 1_555
N2 C5 1_555 1_555
N3 Cd1 1_555 1_555
N4 N7 1_555 1_555
C2 C3 1_555 1_555
C3 H1 1_555 1_555
C4 H2 1_555 1_555
C5 N3 1_555 1_555
N5 Cd1 1_555 1_555
N6 N2 1_555 1_555
C6 C1 1_555 1_555
C7 C4 1_555 1_555
H3 C7 1_555 1_555
C8 C3 1_555 1_555
H4 C8 1_555 1_555
N7 C9 1_555 1_555
C9 N1 1_555 1_555
H5 C9 1_555 1_555
H6 N7 1_555 1_555
N1C Cd1 1_555 1_555
Cd1C N1 1_555 1_555
N6C Cd1 1_555 1_555
N3 C6 1_555 1_555
C2 C5 1_555 1_555
C2 N5 1_555 1_555
C4 N5 1_555 1_555
N6 C6 1_555 1_555
N6 Cd1C 1_555 1_555
C7 C8 1_555 1_555

#END
