
#######################################################################
#
#                 Cambridge Crystallographic Data Centre
#                                CCDC 
#
#######################################################################
#
# If this CIF has been generated from an entry in the Cambridge 
# Structural Database, then it will include bibliographic, chemical, 
# crystal, experimental, refinement or atomic coordinate data resulting 
# from the CCDC's data processing and validation procedures.
#
#######################################################################

data_QOWSIF
_symmetry_cell_setting           monoclinic
_symmetry_space_group_name_H-M   'P 21/n'
_symmetry_Int_Tables_number      14
_space_group_name_Hall           '-P 2yn'
loop_
_symmetry_equiv_pos_site_id
_symmetry_equiv_pos_as_xyz
1 x,y,z
2 1/2-x,1/2+y,1/2-z
3 -x,-y,-z
4 1/2+x,1/2-y,1/2+z
_cell_length_a                   9.4540(2)
_cell_length_b                   7.3571(2)
_cell_length_c                   17.9903(4)
_cell_angle_alpha                90
_cell_angle_beta                 99.8856(12)
_cell_angle_gamma                90
_cell_volume                     1232.72
loop_
_atom_site_label
_atom_site_type_symbol
_atom_site_fract_x
_atom_site_fract_y
_atom_site_fract_z
Co1 Co 0.62354(3) 0.32937(4) 0.510601(15)
N1 N 0.41550(19) 0.0478(3) 0.42746(9)
N2 N 0.4856(2) 0.1774(3) 0.42702(11)
N3 N 0.77386(18) 0.4315(2) 0.60306(9)
N4 N 0.79996(18) 0.2831(2) 0.45515(10)
C1 C 0.9096(2) 0.3718(3) 0.61945(12)
N5 N 0.3423(2) -0.0814(3) 0.42424(11)
N6 N 0.97418(18) 0.2860(3) 0.56635(10)
H1 H 1.0575 0.2431 0.5846
C2 C 0.7225(2) 0.5212(3) 0.65888(12)
H2 H 0.6287 0.5645 0.6484
C3 C 0.9346(2) 0.2534(3) 0.48999(12)
C4 C 0.9383(3) 0.4855(3) 0.74579(13)
H3 H 0.9931 0.5024 0.7934
C5 C 0.7989(3) 0.5520(3) 0.72910(12)
H4 H 0.7588 0.6159 0.7649
C6 C 0.9930(2) 0.3952(3) 0.69122(13)
H5 H 1.0858 0.3488 0.7015
C7 C 1.0071(3) 0.1517(3) 0.37651(15)
H6 H 1.0756 0.1040 0.3506
C8 C 0.8702(3) 0.1876(3) 0.33902(14)
H7 H 0.8456 0.1681 0.2873
C9 C 0.7715(2) 0.2524(3) 0.37980(13)
H8 H 0.6794 0.2770 0.3543
C10 C 1.0415(2) 0.1868(3) 0.45192(14)
H9 H 1.1342 0.1669 0.4777
N7 N 0.36522(19) 0.3367(2) 0.58908(10)
N8 N 0.43420(19) 0.4212(2) 0.55178(10)
N9 N 0.2983(2) 0.2556(3) 0.62543(13)
Co1B Co 0.37646(3) -0.32937(4) 0.489399(15)
Co1B_2 Co 0.37646(3) 0.67063(4) 0.489399(15)
N5B N 0.6577(2) 0.0814(3) 0.57576(11)
N8B N 0.56580(19) 0.5788(2) 0.44822(10)
loop_
_geom_bond_atom_site_label_1
_geom_bond_atom_site_label_2
_geom_bond_site_symmetry_1
_geom_bond_site_symmetry_2
Co1 N2 1_555 1_555
N1 N2 1_555 1_555
N3 Co1 1_555 1_555
N4 Co1 1_555 1_555
C1 N3 1_555 1_555
N5 N1 1_555 1_555
N6 C1 1_555 1_555
H1 N6 1_555 1_555
C2 N3 1_555 1_555
H2 C2 1_555 1_555
C3 N4 1_555 1_555
C4 H3 1_555 1_555
C5 C2 1_555 1_555
H4 C5 1_555 1_555
C6 C1 1_555 1_555
H5 C6 1_555 1_555
C7 H6 1_555 1_555
C8 C7 1_555 1_555
H7 C8 1_555 1_555
C9 N4 1_555 1_555
H8 C9 1_555 1_555
C10 C3 1_555 1_555
H9 C10 1_555 1_555
N7 N8 1_555 1_555
N8 Co1 1_555 1_555
N9 N7 1_555 1_555
Co1B N5 1_555 1_555
Co1B_2 N8 1_555 1_555
N5B Co1 1_555 1_555
N8B Co1 1_555 1_555
N6 C3 1_555 1_555
C4 C5 1_555 1_555
C4 C6 1_555 1_555
C7 C10 1_555 1_555
C8 C9 1_555 1_555
Co1B_2 N8B 1_555 1_555

#END
