
#######################################################################
#
#                 Cambridge Crystallographic Data Centre
#                                CCDC 
#
#######################################################################
#
# If this CIF has been generated from an entry in the Cambridge 
# Structural Database, then it will include bibliographic, chemical, 
# crystal, experimental, refinement or atomic coordinate data resulting 
# from the CCDC's data processing and validation procedures.
#
#######################################################################

data_QOXFAK03
_symmetry_cell_setting           triclinic
_symmetry_space_group_name_H-M   'P -1'
_symmetry_Int_Tables_number      2
_space_group_name_Hall           '-P 1'
loop_
_symmetry_equiv_pos_site_id
_symmetry_equiv_pos_as_xyz
1 x,y,z
2 -x,-y,-z
_cell_length_a                   8.1599(7)
_cell_length_b                   8.5826(7)
_cell_length_c                   10.2031(8)
_cell_angle_alpha                87.111(2)
_cell_angle_beta                 75.305(2)
_cell_angle_gamma                74.784(2)
_cell_volume                     666.851
loop_
_atom_site_label
_atom_site_type_symbol
_atom_site_fract_x
_atom_site_fract_y
_atom_site_fract_z
Co1 Co -1.15462(5) 1.33837(5) -0.05914(4)
V1 V -0.76778(7) 1.22828(6) 0.02957(6)
V2 V -1.36921(7) 1.08926(6) -0.19603(5)
O1 O -0.9567(3) 1.2092(3) 0.0102(3)
O2 O -0.7216(3) 1.1231(3) 0.1757(2)
O3 O -0.6005(3) 1.1452(3) -0.1139(3)
O4 O -1.2188(3) 1.5780(3) -0.0485(2)
O5 O -1.2678(3) 1.1965(3) -0.1286(3)
O6 O -1.3431(4) 1.1268(3) -0.3546(2)
N1 N -0.9780(4) 1.3444(3) -0.2532(3)
N2 N -0.3322(4) 1.3357(3) -0.8667(3)
C1 C -0.9107(6) 1.4697(5) -0.2932(4)
C2 C -0.7843(6) 1.4705(5) -0.4107(4)
C3 C -0.7184(4) 1.3352(4) -0.4946(3)
C4 C -0.7867(5) 1.2042(4) -0.4535(4)
C5 C -0.9140(5) 1.2140(4) -0.3339(4)
C6 C -0.3270(5) 1.2024(4) -0.7913(4)
C7 C -0.4483(5) 1.1969(4) -0.6709(4)
C8 C -0.5827(4) 1.3325(4) -0.6224(3)
C9 C -0.5874(5) 1.4699(4) -0.7000(4)
C10 C -0.4616(5) 1.4657(4) -0.8200(4)
Co1_2 Co -0.15462(5) 1.33837(5) -1.05914(4)
V1A V -1.23222(7) 1.77172(6) -0.02957(6)
V2_2 V -0.36921(7) 1.08926(6) -0.19603(5)
V2A V -0.63079(7) 0.91074(6) 0.19603(5)
O2A O -1.2784(3) 0.8769(3) -0.1757(2)
O3_2 O -1.6005(3) 1.1452(3) -0.1139(3)
O4A O -0.7812(3) 1.4220(3) 0.0485(2)
N2_2 N -1.3322(4) 1.3357(3) 0.1333(3)
loop_
_geom_bond_atom_site_label_1
_geom_bond_atom_site_label_2
_geom_bond_site_symmetry_1
_geom_bond_site_symmetry_2
Co1 O1 1_555 1_555
V1 O1 1_555 1_555
V2 O5 1_555 1_555
O2 V1 1_555 1_555
O3 V1 1_555 1_555
O4 Co1 1_555 1_555
O5 Co1 1_555 1_555
O6 V2 1_555 1_555
N1 Co1 1_555 1_555
N2 C6 1_555 1_555
C1 N1 1_555 1_555
C2 C1 1_555 1_555
C3 C2 1_555 1_555
C4 C3 1_555 1_555
C5 N1 1_555 1_555
C6 C7 1_555 1_555
C7 C8 1_555 1_555
C8 C3 1_555 1_555
C9 C8 1_555 1_555
C10 N2 1_555 1_555
Co1_2 N2 1_555 1_555
V1A O4 1_555 1_555
V2_2 O3 1_555 1_555
V2A O2 1_555 1_555
O2A V2 1_555 1_555
O3_2 V2 1_555 1_555
O4A V1 1_555 1_555
N2_2 Co1 1_555 1_555
C4 C5 1_555 1_555
C9 C10 1_555 1_555

#END
