
#######################################################################
#
#                 Cambridge Crystallographic Data Centre
#                                CCDC 
#
#######################################################################
#
# If this CIF has been generated from an entry in the Cambridge 
# Structural Database, then it will include bibliographic, chemical, 
# crystal, experimental, refinement or atomic coordinate data resulting 
# from the CCDC's data processing and validation procedures.
#
#######################################################################

data_QOXFOY
_symmetry_cell_setting           triclinic
_symmetry_space_group_name_H-M   'P 1'
_symmetry_Int_Tables_number      1
_space_group_name_Hall           'P 1'
loop_
_symmetry_equiv_pos_site_id
_symmetry_equiv_pos_as_xyz
1 x,y,z
_cell_length_a                   5.5106(7)
_cell_length_b                   8.922(1)
_cell_length_c                   13.306(2)
_cell_angle_alpha                90.43(2)
_cell_angle_beta                 100.70(2)
_cell_angle_gamma                90.16(2)
_cell_volume                     642.799
loop_
_atom_site_label
_atom_site_type_symbol
_atom_site_fract_x
_atom_site_fract_y
_atom_site_fract_z
Zn1 Zn 0.2233 0.339 -0.03721
Zn2 Zn -0.2288(3) -0.1643(2) 0.0373(1)
P1 P -0.2763(5) 0.5078(3) -0.0556(2)
P2 P 0.2725(5) 0.0076(3) 0.0559(2)
P3 P -0.1798(6) 0.3074(3) -0.2316(2)
P4 P 0.1753(6) -0.1963(3) 0.2310(2)
O1 O -0.008(1) 0.4873(8) -0.0082(5)
O2 O 0.077(1) -0.0990(8) 0.0007(5)
O3 O 0.195(2) 0.1708(7) 0.0456(5)
O4 O -0.363(1) 0.6669(7) -0.0430(5)
O5 O -0.437(1) 0.3913(8) -0.0162(5)
O6 O 0.517(1) -0.0176(8) 0.0232(5)
O7 O 0.091(1) 0.2978(8) -0.1835(5)
O8 O -0.101(1) -0.2042(8) 0.1852(6)
C1 C -0.312(2) 0.476(1) -0.1927(9)
C2 C 0.312(3) -0.028(1) 0.1934(9)
C3 C -0.352(3) 0.153(1) -0.2007(9)
C4 C 0.343(3) -0.352(1) 0.1974(9)
C5 C -0.251(3) 0.001(1) -0.2310(9)
C6 C 0.249(3) -0.504(1) 0.2301(9)
C7 C -0.213(3) 0.317(1) -0.3684(9)
C8 C 0.208(3) -0.187(1) 0.369(1)
C9 C -0.036(3) 0.399(2) -0.4089(9)
C10 C 0.400(2) -0.253(1) 0.4332(8)
C11 C -0.055(4) 0.406(3) -0.515(1)
C12 C 0.413(3) -0.247(2) 0.539(1)
C13 C -0.243(4) 0.329(3) -0.580(1)
C14 C 0.232(4) -0.169(2) 0.578(1)
C15 C -0.417(4) 0.254(2) -0.541(1)
C16 C 0.047(3) -0.097(2) 0.513(1)
C17 C -0.402(2) 0.246(1) -0.4362(8)
C18 C 0.037(3) -0.109(2) 0.410(1)
H1 H -0.492 0.474 -0.222
H2 H -0.232 0.562 -0.223
H3 H 0.493 -0.034 0.221
H4 H 0.239 0.058 0.225
H5 H -0.343 0.149 -0.125
H6 H -0.525 0.160 -0.237
H7 H 0.337 -0.361 0.121
H8 H 0.524 -0.349 0.232
H9 H -0.362(3) -0.074(1) -0.2004(9)
H10 H -0.067(3) -0.016(1) -0.1971(9)
H11 H -0.272(3) -0.016(1) -0.3095(9)
H12 H 0.330(3) -0.593(1) 0.1969(9)
H13 H 0.058(3) -0.511(1) 0.2082(9)
H14 H 0.297(3) -0.510(1) 0.3093(9)
H15 H 0.102 0.447 -0.356
H16 H 0.062 0.472 -0.552
H17 H -0.250 0.298 -0.653
H18 H -0.550 0.212 -0.598
H19 H -0.535 0.193 -0.405
H20 H 0.531 -0.307 0.399
H21 H 0.549 -0.292 0.594
H22 H 0.261 -0.197 0.654
H23 H -0.079 -0.042 0.548
H24 H -0.100 -0.055 0.359
Zn2_2 Zn -0.2288(3) 0.8357(2) 0.0373(1)
O5_2 O 0.563(1) 0.3913(8) -0.0162(5)
O4_2 O -0.363(1) -0.3331(7) -0.0430(5)
O6_2 O -0.483(1) -0.0176(8) 0.0232(5)
Zn2_3 Zn 0.7712(3) -0.1643(2) 0.0373(1)
Zn1_2 Zn -0.7767 0.339 -0.03721
O9 O -0.194(2) 0.221(1) 0.1808(6)
O10 O -0.815(2) 0.7298(9) -0.1811(6)
loop_
_geom_bond_atom_site_label_1
_geom_bond_atom_site_label_2
_geom_bond_site_symmetry_1
_geom_bond_site_symmetry_2
Zn1 O1 1_555 1_555
Zn2 O2 1_555 1_555
P1 O1 1_555 1_555
P2 O2 1_555 1_555
P3 O7 1_555 1_555
P4 O8 1_555 1_555
O3 Zn1 1_555 1_555
O4 P1 1_555 1_555
O5 P1 1_555 1_555
O6 P2 1_555 1_555
O7 Zn1 1_555 1_555
O8 Zn2 1_555 1_555
C1 P1 1_555 1_555
C2 P2 1_555 1_555
C3 P3 1_555 1_555
C4 P4 1_555 1_555
C5 C3 1_555 1_555
C6 C4 1_555 1_555
C7 P3 1_555 1_555
C8 P4 1_555 1_555
C9 C7 1_555 1_555
C10 C8 1_555 1_555
C11 C9 1_555 1_555
C12 C10 1_555 1_555
C13 C11 1_555 1_555
C14 C12 1_555 1_555
C15 C13 1_555 1_555
C16 C14 1_555 1_555
C17 C7 1_555 1_555
C18 C8 1_555 1_555
H1 C1 1_555 1_555
H2 C1 1_555 1_555
H3 C2 1_555 1_555
H4 C2 1_555 1_555
H5 C3 1_555 1_555
H6 C3 1_555 1_555
H7 C4 1_555 1_555
H8 C4 1_555 1_555
H9 C5 1_555 1_555
H10 C5 1_555 1_555
H11 C5 1_555 1_555
H12 C6 1_555 1_555
H13 C6 1_555 1_555
H14 C6 1_555 1_555
H15 C9 1_555 1_555
H16 C11 1_555 1_555
H17 C13 1_555 1_555
H18 C15 1_555 1_555
H19 C17 1_555 1_555
H20 C10 1_555 1_555
H21 C12 1_555 1_555
H22 C14 1_555 1_555
H23 C16 1_555 1_555
H24 C18 1_555 1_555
Zn2_2 O4 1_555 1_555
O5_2 Zn1 1_555 1_555
O4_2 Zn2 1_555 1_555
O6_2 Zn2 1_555 1_555
Zn2_3 O6 1_555 1_555
Zn1_2 O5 1_555 1_555
P2 O3 1_555 1_555
P3 C1 1_555 1_555
P4 C2 1_555 1_555
C15 C17 1_555 1_555
C16 C18 1_555 1_555

#END
