
#######################################################################
#
#                 Cambridge Crystallographic Data Centre
#                                CCDC 
#
#######################################################################
#
# If this CIF has been generated from an entry in the Cambridge 
# Structural Database, then it will include bibliographic, chemical, 
# crystal, experimental, refinement or atomic coordinate data resulting 
# from the CCDC's data processing and validation procedures.
#
#######################################################################

data_QOXFIS
_symmetry_cell_setting           orthorhombic
_symmetry_space_group_name_H-M   'P n a 21'
_symmetry_Int_Tables_number      33
_space_group_name_Hall           'P 2c -2n'
loop_
_symmetry_equiv_pos_site_id
_symmetry_equiv_pos_as_xyz
1 x,y,z
2 -x,-y,1/2+z
3 1/2+x,1/2-y,z
4 1/2-x,1/2+y,1/2+z
_cell_length_a                   15.2530(12)
_cell_length_b                   8.2554(7)
_cell_length_c                   10.6784(9)
_cell_angle_alpha                90
_cell_angle_beta                 90
_cell_angle_gamma                90
_cell_volume                     1344.62
loop_
_atom_site_label
_atom_site_type_symbol
_atom_site_fract_x
_atom_site_fract_y
_atom_site_fract_z
Co1 Co -0.36478(5) -0.06147(10) 0.32439(7)
Co2 Co -0.38768(5) -0.43531(11) -0.26835(7)
V1 V -0.39340(6) 0.30306(12) 0.16134(10)
V2 V -0.30035(6) -0.04591(12) 0.64365(9)
V3 V -0.58271(6) -0.18156(12) 0.36996(9)
N1 N -0.3892(3) -0.1514(6) 0.1350(5)
N2 N -0.3873(3) -0.3066(7) -0.0948(5)
O1 O -0.1659(3) -0.0721(5) 0.0650(4)
O2 O -0.3391(3) -0.3007(6) 0.3762(5)
H1 H -0.3498(49) -0.3166(88) 0.4577(75)
H2 H -0.3312(43) -0.3919(87) 0.3040(70)
O3 O -0.2418(2) -0.0408(5) 0.2396(4)
O4 O -0.5069(3) -0.3798(5) -0.3384(5)
O5 O -0.3683(3) 0.1934(5) 0.0221(4)
O6 O -0.3829(3) 0.1798(5) 0.2805(4)
O7 O -0.3156(3) 0.4682(5) 0.1743(4)
O8 O -0.3311(3) -0.2365(5) -0.3450(5)
O9 O -0.3233(3) 0.0157(5) 0.5012(4)
O10 O -0.3497(3) 0.0789(5) 0.7603(4)
O11 O -0.4380(3) -0.6354(5) -0.1835(4)
O12 O -0.4904(3) -0.0810(5) 0.3825(4)
C1 C -0.4628(4) -0.2135(8) 0.0857(6)
H3 H -0.5157(4) -0.2034(8) 0.1282(6)
C2 C -0.4600(4) -0.2922(8) -0.0282(6)
H4 H -0.5114(4) -0.3371(8) -0.0595(6)
C3 C -0.3142(4) -0.2389(8) -0.0481(6)
H5 H -0.2623(4) -0.2429(8) -0.0937(6)
C4 C -0.3158(4) -0.1631(7) 0.0679(5)
C5 C -0.2352(4) -0.0901(7) 0.1248(6)
V1A V -0.60660(6) -0.30306(12) -0.33866(10)
Co2C Co -0.11232(5) 0.06469(11) 0.23165(7)
O4A O -0.4931(3) 0.3798(5) 0.1616(5)
O1C O -0.3341(3) -0.5721(5) -0.4350(4)
O3C O -0.2582(2) -0.5408(5) -0.2604(4)
O11A O -0.5620(3) -0.3646(5) 0.3165(4)
V3A V -0.41729(6) 0.18156(12) 0.86996(9)
V2C V -0.19965(6) 0.45409(12) 0.14365(9)
V2_2 V -0.30035(6) -0.04591(12) -0.35635(9)
V3A_2 V -0.41729(6) -0.81844(12) -0.13004(9)
V3A_3 V -0.41729(6) 0.18156(12) -0.13004(9)
O10A O -0.6503(3) -0.0789(5) 0.2603(4)
O7C O -0.1844(3) -0.0318(5) 0.6743(4)
O8_2 O -0.3311(3) -0.2365(5) 0.6550(5)
O5A O -0.6317(3) -0.1934(5) 0.5221(4)
loop_
_geom_bond_atom_site_label_1
_geom_bond_atom_site_label_2
_geom_bond_site_symmetry_1
_geom_bond_site_symmetry_2
Co1 N1 1_555 1_555
Co2 N2 1_555 1_555
V1 O5 1_555 1_555
V2 O9 1_555 1_555
V3 O12 1_555 1_555
N1 C1 1_555 1_555
N2 C2 1_555 1_555
O1 C5 1_555 1_555
O2 Co1 1_555 1_555
H1 O2 1_555 1_555
H2 O2 1_555 1_555
O3 Co1 1_555 1_555
O4 Co2 1_555 1_555
O5 V3A_3 1_555 1_555
O6 Co1 1_555 1_555
O7 V1 1_555 1_555
O8 Co2 1_555 1_555
O9 Co1 1_555 1_555
O10 V2 1_555 1_555
O11 Co2 1_555 1_555
O12 Co1 1_555 1_555
C1 H3 1_555 1_555
C2 C1 1_555 1_555
H4 C2 1_555 1_555
C3 N2 1_555 1_555
H5 C3 1_555 1_555
C4 N1 1_555 1_555
C5 O3 1_555 1_555
V1A O4 1_555 1_555
Co2C O1 1_555 1_555
O4A V1 1_555 1_555
O1C Co2 1_555 1_555
O3C Co2 1_555 1_555
O11A V3 1_555 1_555
V3A O10 1_555 1_555
V2C O7 1_555 1_555
V2_2 O8 1_555 1_555
V3A_2 O11 1_555 1_555
O10A V3 1_555 1_555
O7C V2 1_555 1_555
O8_2 V2 1_555 1_555
O5A V3 1_555 1_555
V1 O6 1_555 1_555
O3 Co2C 1_555 1_555
C3 C4 1_555 1_555
C4 C5 1_555 1_555

#END
