
#######################################################################
#
#                 Cambridge Crystallographic Data Centre
#                                CCDC 
#
#######################################################################
#
# If this CIF has been generated from an entry in the Cambridge 
# Structural Database, then it will include bibliographic, chemical, 
# crystal, experimental, refinement or atomic coordinate data resulting 
# from the CCDC's data processing and validation procedures.
#
#######################################################################

data_QOXNEX
_symmetry_cell_setting           cubic
_symmetry_space_group_name_H-M   'P a 3'
_symmetry_Int_Tables_number      205
_space_group_name_Hall           '-P 2ac 2ab 3'
loop_
_symmetry_equiv_pos_site_id
_symmetry_equiv_pos_as_xyz
1 x,y,z
2 z,x,y
3 y,z,x
4 1/2-x,-y,1/2+z
5 -x,1/2+y,1/2-z
6 1/2+x,1/2-y,-z
7 1/2+z,1/2-x,-y
8 1/2-z,-x,1/2+y
9 -z,1/2+x,1/2-y
10 -y,1/2+z,1/2-x
11 1/2+y,1/2-z,-x
12 1/2-y,-z,1/2+x
13 -x,-y,-z
14 -z,-x,-y
15 -y,-z,-x
16 1/2+x,y,1/2-z
17 x,1/2-y,1/2+z
18 1/2-x,1/2+y,z
19 1/2-z,1/2+x,y
20 1/2+z,x,1/2-y
21 z,1/2-x,1/2+y
22 y,1/2-z,1/2+x
23 1/2-y,1/2+z,x
24 1/2+y,z,1/2-x
_cell_length_a                   17.9174(12)
_cell_length_b                   17.9174(12)
_cell_length_c                   17.9174(12)
_cell_angle_alpha                90
_cell_angle_beta                 90
_cell_angle_gamma                90
_cell_volume                     5752.08
loop_
_atom_site_label
_atom_site_type_symbol
_atom_site_fract_x
_atom_site_fract_y
_atom_site_fract_z
Cu1 Cu 0.27407(3) 0.23221(3) 0.12756(3)
S1 S 0.28856(6) 0.28856(6) 0.28856(6)
O1 O 0.2816(3) 0.0778(3) 0.0422(3)
O2 O 0.22620(19) 0.1867(2) 0.0422(2)
O3 O 0.19413(16) 0.19413(16) 0.19413(16)
H1 H 0.1675 0.1675 0.1675
O4 O 0.31804(18) 0.28862(19) 0.21105(18)
O5 O 0.33517(17) 0.33517(17) 0.33517(17)
N1 N 0.2318(2) -0.0618(2) -0.1429(2)
N2 N 0.1959(3) -0.0882(3) -0.0809(3)
N3 N 0.1748(3) -0.0335(3) -0.0396(3)
N4 N 0.1970(2) 0.0295(2) -0.0745(2)
C1 C 0.2352(3) 0.1224(3) 0.0203(3)
C2 C 0.1805(3) 0.1029(3) -0.0440(3)
H2 H 0.1297 0.1038 -0.0254
H3 H 0.1847 0.1401 -0.0831
C3 C 0.2313(3) 0.0109(3) -0.1369(3)
H4 H 0.2518 0.0441 -0.1711
Cu1F Cu 0.62756(3) 0.22593(3) -0.23221(3)
Cu1A Cu 0.12756(3) 0.27407(3) 0.23221(3)
Cu1B Cu 0.23221(3) 0.12756(3) 0.27407(3)
Cu1K Cu 0.26779(3) -0.12756(3) -0.22593(3)
O1F O 0.5422(3) 0.2184(3) -0.0778(3)
O1K O 0.4222(3) -0.0422(3) -0.2184(3)
O2F O 0.5422(2) 0.27380(19) -0.1867(2)
O2K O 0.3133(2) -0.0422(2) -0.27380(19)
O2A O 0.0422(2) 0.22620(19) 0.1867(2)
O3E O 0.69413(16) 0.30587(16) -0.19413(16)
H1E H 0.6675 0.3325 -0.1675
O4A O 0.21105(18) 0.31804(18) 0.28862(19)
O4B O 0.28862(19) 0.21105(18) 0.31804(18)
O4F O 0.71105(18) 0.18196(18) -0.28862(19)
N1F N 0.3571(2) 0.2682(2) 0.0618(2)
N1K N 0.5618(2) 0.1429(2) -0.2682(2)
N1I N 0.0618(2) 0.3571(2) 0.2682(2)
N2F N 0.4191(3) 0.3041(3) 0.0882(3)
N2K N 0.5882(3) 0.0809(3) -0.3041(3)
N3F N 0.4604(3) 0.3252(3) 0.0335(3)
N3K N 0.5335(3) 0.0396(3) -0.3252(3)
N4F N 0.4255(2) 0.3030(2) -0.0295(2)
N4K N 0.4705(2) 0.0745(2) -0.3030(2)
C1F C 0.5203(3) 0.2648(3) -0.1224(3)
C1K C 0.3776(3) -0.0203(3) -0.2648(3)
C2F C 0.4560(3) 0.3195(3) -0.1029(3)
C2K C 0.3971(3) 0.0440(3) -0.3195(3)
H2F H 0.4746 0.3703 -0.1038
H2K H 0.3962 0.0254 -0.3703
H3F H 0.4169 0.3153 -0.1401
H3K H 0.3599 0.0831 -0.3153
C3F C 0.3631(3) 0.2687(3) -0.0109(3)
C3K C 0.4891(3) 0.1369(3) -0.2687(3)
H4F H 0.3289 0.2482 -0.0441
H4K H 0.4559 0.1711 -0.2482
O6 O 0.3341(2) 0.1169(2) 0.1786(2)
H5 H 0.3249 0.1129 0.1339
C4 C 0.4118(4) 0.1144(5) 0.1900(5)
H6 H 0.4264 0.1548 0.2220
H7 H 0.4369 0.1189 0.1429
H8 H 0.4250 0.0678 0.2129
O7 O 0.4547(17) 0.4547(17) 0.4547(17)
loop_
_geom_bond_atom_site_label_1
_geom_bond_atom_site_label_2
_geom_bond_site_symmetry_1
_geom_bond_site_symmetry_2
Cu1 O2 1_555 1_555
S1 O4 1_555 1_555
O1 C1 1_555 1_555
O2 C1 1_555 1_555
O3 Cu1 1_555 1_555
H1 O3 1_555 1_555
O4 Cu1 1_555 1_555
O5 S1 1_555 1_555
N1 N2 1_555 1_555
N2 N3 1_555 1_555
N3 N4 1_555 1_555
N4 C2 1_555 1_555
C1 C2 1_555 1_555
C2 H2 1_555 1_555
H3 C2 1_555 1_555
C3 N1 1_555 1_555
H4 C3 1_555 1_555
O6 H5 1_555 1_555
C4 O6 1_555 1_555
H6 C4 1_555 1_555
H7 C4 1_555 1_555
H8 C4 1_555 1_555
Cu1F O2F 1_555 1_555
Cu1A O3 1_555 1_555
Cu1B O3 1_555 1_555
Cu1K N1 1_555 1_555
O1F C1F 1_555 1_555
O1K C1K 1_555 1_555
O2F C1F 1_555 1_555
O2K Cu1K 1_555 1_555
O2A Cu1A 1_555 1_555
O3E Cu1F 1_555 1_555
H1E O3E 1_555 1_555
O4A S1 1_555 1_555
O4B S1 1_555 1_555
O4F Cu1F 1_555 1_555
N1F Cu1 1_555 1_555
N1K Cu1F 1_555 1_555
N1I Cu1A 1_555 1_555
N2F N1F 1_555 1_555
N2K N1K 1_555 1_555
N3F N2F 1_555 1_555
N3K N2K 1_555 1_555
N4F N3F 1_555 1_555
N4K N3K 1_555 1_555
C1F C2F 1_555 1_555
C1K O2K 1_555 1_555
C2F N4F 1_555 1_555
C2K N4K 1_555 1_555
H2F C2F 1_555 1_555
H2K C2K 1_555 1_555
H3F C2F 1_555 1_555
H3K C2K 1_555 1_555
C3F N1F 1_555 1_555
C3K N1K 1_555 1_555
H4F C3F 1_555 1_555
H4K C3K 1_555 1_555
N4 C3 1_555 1_555
Cu1A O4A 1_555 1_555
Cu1B O4B 1_555 1_555
N4F C3F 1_555 1_555
N4K C3K 1_555 1_555
C1K C2K 1_555 1_555

#END
