
#######################################################################
#
#                 Cambridge Crystallographic Data Centre
#                                CCDC 
#
#######################################################################
#
# If this CIF has been generated from an entry in the Cambridge 
# Structural Database, then it will include bibliographic, chemical, 
# crystal, experimental, refinement or atomic coordinate data resulting 
# from the CCDC's data processing and validation procedures.
#
#######################################################################

data_QOXQOJ01
_symmetry_cell_setting           monoclinic
_symmetry_space_group_name_H-M   'C 2/c'
_symmetry_Int_Tables_number      15
_space_group_name_Hall           '-C 2yn'
loop_
_symmetry_equiv_pos_site_id
_symmetry_equiv_pos_as_xyz
1 x,y,z
2 -x,y,1/2-z
3 1/2+x,1/2+y,z
4 1/2-x,1/2+y,1/2-z
5 -x,-y,-z
6 x,-y,1/2+z
7 1/2-x,1/2-y,-z
8 1/2+x,1/2-y,1/2+z
_cell_length_a                   10.1285(16)
_cell_length_b                   12.0669(19)
_cell_length_c                   7.2770(11)
_cell_angle_alpha                90
_cell_angle_beta                 101.584(2)
_cell_angle_gamma                90
_cell_volume                     871.276
loop_
_atom_site_label
_atom_site_type_symbol
_atom_site_fract_x
_atom_site_fract_y
_atom_site_fract_z
Cu1 Cu 0.5000 0.16047(5) 0.2500
O1 O 0.4771(4) 0.1611(2) -0.0245(5)
H1 H 0.5216 0.1161 -0.0782
H2 H 0.4226 0.2065 -0.0896
O2 O 0.6503(3) 0.0232(3) 0.2667(5)
O3 O 0.7647(4) 0.1761(3) 0.2777(7)
C1 C 0.7562(4) 0.0748(4) 0.2691(6)
C2 C 0.8837(3) 0.0104(3) 0.2610(5)
C3 C 1.0000 0.0672(4) 0.2500
H3 H 1.0000 0.1443 0.2500
C4 C 0.8885(3) -0.1037(3) 0.2620(5)
H4 H 0.8109 -0.1426 0.2713
N1 N 1.0000 -0.1614(3) 0.2500
Cu1B Cu 1.0000 -0.33953(5) 0.2500
Cu1_2 Cu 1.5000 0.16047(5) 0.2500
O1A O 0.5229(4) 0.1611(2) 0.5245(5)
H1A H 0.4784 0.1161 0.5782
H2A H 0.5774 0.2065 0.5896
O2A O 1.3497(3) 0.0232(3) 0.2333(5)
O2A_2 O 0.3497(3) 0.0232(3) 0.2333(5)
O3A O 1.2353(4) 0.1761(3) 0.2223(7)
C1A C 1.2438(4) 0.0748(4) 0.2309(6)
C2A C 1.1163(3) 0.0104(3) 0.2390(5)
C4A C 1.1115(3) -0.1037(3) 0.2380(5)
H4A H 1.1891 -0.1426 0.2287
N1B N 0.5000 0.3386(3) 0.2500
loop_
_geom_bond_atom_site_label_1
_geom_bond_atom_site_label_2
_geom_bond_site_symmetry_1
_geom_bond_site_symmetry_2
Cu1 O1 1_555 1_555
O1 H1 1_555 1_555
H2 O1 1_555 1_555
O2 Cu1 1_555 1_555
O3 C1 1_555 1_555
C1 O2 1_555 1_555
C2 C1 1_555 1_555
C3 C2 1_555 1_555
H3 C3 1_555 1_555
C4 C2 1_555 1_555
H4 C4 1_555 1_555
N1 C4 1_555 1_555
Cu1B N1 1_555 1_555
Cu1_2 O2A 1_555 1_555
O1A Cu1 1_555 1_555
H1A O1A 1_555 1_555
H2A O1A 1_555 1_555
O2A C1A 1_555 1_555
O2A_2 Cu1 1_555 1_555
O3A C1A 1_555 1_555
C1A C2A 1_555 1_555
C2A C3 1_555 1_555
C4A N1 1_555 1_555
H4A C4A 1_555 1_555
N1B Cu1 1_555 1_555
C2A C4A 1_555 1_555

#END
