
#######################################################################
#
#                 Cambridge Crystallographic Data Centre
#                                CCDC 
#
#######################################################################
#
# If this CIF has been generated from an entry in the Cambridge 
# Structural Database, then it will include bibliographic, chemical, 
# crystal, experimental, refinement or atomic coordinate data resulting 
# from the CCDC's data processing and validation procedures.
#
#######################################################################

data_QOXSON
_symmetry_cell_setting           monoclinic
_symmetry_space_group_name_H-M   'P 21/c'
_symmetry_Int_Tables_number      14
_space_group_name_Hall           '-P 2ybc'
loop_
_symmetry_equiv_pos_site_id
_symmetry_equiv_pos_as_xyz
1 x,y,z
2 -x,1/2+y,1/2-z
3 -x,-y,-z
4 x,1/2-y,1/2+z
_cell_length_a                   11.9813(11)
_cell_length_b                   22.629(2)
_cell_length_c                   13.4193(13)
_cell_angle_alpha                90
_cell_angle_beta                 103.465(2)
_cell_angle_gamma                90
_cell_volume                     3538.3
loop_
_atom_site_label
_atom_site_type_symbol
_atom_site_fract_x
_atom_site_fract_y
_atom_site_fract_z
C25 C 0.2629(3) 0.48796(15) 0.2776(3)
H21 H 0.3255 0.4630 0.2734
C26 C 0.2658(3) 0.51983(14) 0.3660(3)
H22 H 0.3302 0.5170 0.4226
C27 C 0.1735(3) 0.55615(14) 0.3713(2)
H23 H 0.1742 0.5779 0.4321
C28 C 0.0814(3) 0.56059(15) 0.2886(3)
H24 H 0.0190 0.5858 0.2921
C29 C 0.0790(3) 0.52865(15) 0.2009(3)
H25 H 0.0146 0.5320 0.1445
C30 C 0.1676(4) 0.49224(15) 0.1936(3)
C31 C 0.1599(6) 0.4582(2) 0.0950(4)
H26 H 0.0984 0.4288 0.0870
H27 H 0.2331 0.4382 0.0975
H28 H 0.1433 0.4856 0.0369
C1 C 0.5186(2) 0.61477(11) 0.50372(18)
H1 H 0.5777 0.5868 0.5280
C2 C 0.4463(2) 0.62991(11) 0.56701(19)
H2 H 0.4579 0.6138 0.6340
C3 C 0.3567(2) 0.66906(11) 0.5303(2)
C4 C 0.3430(2) 0.69071(12) 0.4310(2)
H3 H 0.2803 0.7159 0.4023
C5 C 0.4213(2) 0.67514(12) 0.3749(2)
H4 H 0.4130 0.6916 0.3084
C6 C 0.2790(2) 0.68735(12) 0.5954(2)
H5 H 0.2874 0.6715 0.6623
C7 C 0.0557(3) 0.77643(13) 0.5908(3)
H6 H 0.0514 0.7900 0.5230
C8 C -0.0277(2) 0.79868(11) 0.6469(2)
C9 C -0.0289(2) 0.78049(11) 0.7460(2)
H7 H 0.0271 0.7537 0.7820
C10 C -0.1102(2) 0.83915(12) 0.5979(2)
H8 H -0.1119 0.8521 0.5303
C11 C -0.1902(2) 0.86024(11) 0.64979(19)
H9 H -0.2447 0.8888 0.6172
C12 C -0.1137(2) 0.80242(11) 0.79055(19)
H10 H -0.1157 0.7891 0.8573
C13 C 0.8828(2) 0.58416(11) 0.47850(18)
H11 H 0.8880 0.5627 0.4189
C14 C 0.9665(2) 0.57537(11) 0.56768(18)
H12 H 1.0281 0.5487 0.5688
C15 C 0.95881(19) 0.60624(10) 0.65582(17)
C16 C 0.8670(2) 0.64501(11) 0.65025(18)
H13 H 0.8587 0.6663 0.7091
C17 C 0.78818(19) 0.65196(10) 0.55758(17)
H14 H 0.7269 0.6792 0.5537
C18 C 1.0479(2) 0.59787(11) 0.75108(18)
H15 H 1.1026 0.5670 0.7558
C19 C 1.2354(2) 0.64324(12) 0.91261(19)
H16 H 1.2455 0.6634 0.8532
C20 C 1.3330(2) 0.63770(12) 1.00248(18)
C21 C 1.4341(2) 0.66749(13) 1.0039(2)
H17 H 1.4422 0.6899 0.9461
C22 C 1.5234(2) 0.66436(12) 1.0905(2)
H18 H 1.5913 0.6863 1.0918
C23 C 1.4209(2) 0.60083(13) 1.16942(19)
H19 H 1.4173 0.5762 1.2259
C24 C 1.3264(2) 0.60356(13) 1.0873(2)
H20 H 1.2582 0.5825 1.0888
Cd1 Cd 0.65724(2) 0.63166(2) 0.32186(2)
Cl1 Cl 0.62667(6) 0.78802(3) 0.30361(5)
Cl2 Cl 0.67389(6) 0.48641(3) 0.29969(5)
N1 N 0.50895(16) 0.63776(9) 0.41003(16)
N2 N 0.2004(3) 0.72492(12) 0.5598(2)
N3 N 0.1338(2) 0.73923(11) 0.6310(2)
N4 N -0.19314(17) 0.84164(9) 0.74389(15)
N5 N 0.79475(16) 0.62177(9) 0.47266(14)
N6 N 1.05130(19) 0.63218(10) 0.82722(16)
N7 N 1.13804(19) 0.62133(10) 0.91380(16)
N8 N 1.51784(17) 0.63166(9) 1.17237(15)
O1 O 0.66043(16) 0.73628(8) 0.36842(14)
O2 O 0.5028(2) 0.79183(13) 0.27866(19)
O3 O 0.6623(2) 0.78000(12) 0.2091(2)
O4 O 0.6747(4) 0.83857(13) 0.3556(3)
O5 O 0.5996(3) 0.51905(13) 0.3489(2)
O6 O 0.75416(17) 0.45295(9) 0.37378(17)
O7 O 0.6091(2) 0.44841(10) 0.22395(17)
O8 O 0.7354(3) 0.52978(13) 0.2538(2)
Cd1_2 Cd 1.65724(2) 0.63166(2) 1.32186(2)
Cd1C Cd -0.34276(2) 0.86834(2) 0.82186(2)
N4C N 0.80686(17) 0.65836(9) 0.24389(15)
N8_2 N 0.51784(17) 0.63166(9) 0.17237(15)
loop_
_geom_bond_atom_site_label_1
_geom_bond_atom_site_label_2
_geom_bond_site_symmetry_1
_geom_bond_site_symmetry_2
C1 H1 1_555 1_555
C2 C1 1_555 1_555
H2 C2 1_555 1_555
C3 C2 1_555 1_555
C4 C3 1_555 1_555
H3 C4 1_555 1_555
C5 C4 1_555 1_555
H4 C5 1_555 1_555
C6 C3 1_555 1_555
H5 C6 1_555 1_555
C7 H6 1_555 1_555
C8 C7 1_555 1_555
C9 C8 1_555 1_555
H7 C9 1_555 1_555
C10 C8 1_555 1_555
H8 C10 1_555 1_555
C11 C10 1_555 1_555
H9 C11 1_555 1_555
C12 C9 1_555 1_555
H10 C12 1_555 1_555
C13 H11 1_555 1_555
C14 C13 1_555 1_555
H12 C14 1_555 1_555
C15 C14 1_555 1_555
C16 C15 1_555 1_555
H13 C16 1_555 1_555
C17 C16 1_555 1_555
H14 C17 1_555 1_555
C18 C15 1_555 1_555
H15 C18 1_555 1_555
C19 H16 1_555 1_555
C20 C19 1_555 1_555
C21 C20 1_555 1_555
H17 C21 1_555 1_555
C22 C21 1_555 1_555
H18 C22 1_555 1_555
C23 H19 1_555 1_555
C24 C20 1_555 1_555
H20 C24 1_555 1_555
Cd1 N1 1_555 1_555
Cl1 O1 1_555 1_555
Cl2 O5 1_555 1_555
N1 C1 1_555 1_555
N2 C6 1_555 1_555
N3 C7 1_555 1_555
N4 C11 1_555 1_555
N5 C13 1_555 1_555
N6 C18 1_555 1_555
N7 C19 1_555 1_555
N8 C22 1_555 1_555
O1 Cd1 1_555 1_555
O2 Cl1 1_555 1_555
O3 Cl1 1_555 1_555
O4 Cl1 1_555 1_555
O5 Cd1 1_555 1_555
O6 Cl2 1_555 1_555
O7 Cl2 1_555 1_555
O8 Cd1 1_555 1_555
C25 H21 1_555 1_555
C26 C25 1_555 1_555
H22 C26 1_555 1_555
C27 C26 1_555 1_555
H23 C27 1_555 1_555
C28 C27 1_555 1_555
H24 C28 1_555 1_555
C29 C28 1_555 1_555
H25 C29 1_555 1_555
C30 C25 1_555 1_555
C31 C30 1_555 1_555
H26 C31 1_555 1_555
H27 C31 1_555 1_555
H28 C31 1_555 1_555
Cd1_2 N8 1_555 1_555
Cd1C N4 1_555 1_555
N4C Cd1 1_555 1_555
N8_2 Cd1 1_555 1_555
C5 N1 1_555 1_555
C12 N4 1_555 1_555
C17 N5 1_555 1_555
C23 C24 1_555 1_555
C23 N8 1_555 1_555
Cd1 N5 1_555 1_555
Cl2 O8 1_555 1_555
N2 N3 1_555 1_555
N6 N7 1_555 1_555
C29 C30 1_555 1_555

#END
