
#######################################################################
#
#                 Cambridge Crystallographic Data Centre
#                                CCDC 
#
#######################################################################
#
# If this CIF has been generated from an entry in the Cambridge 
# Structural Database, then it will include bibliographic, chemical, 
# crystal, experimental, refinement or atomic coordinate data resulting 
# from the CCDC's data processing and validation procedures.
#
#######################################################################

data_QOYDIR
_symmetry_cell_setting           monoclinic
_symmetry_space_group_name_H-M   'C 2/c'
_symmetry_Int_Tables_number      15
_space_group_name_Hall           '-C 2yn'
loop_
_symmetry_equiv_pos_site_id
_symmetry_equiv_pos_as_xyz
1 x,y,z
2 1/2+x,1/2+y,z
3 -x,y,1/2-z
4 1/2-x,1/2+y,1/2-z
5 -x,-y,-z
6 1/2-x,1/2-y,-z
7 x,-y,1/2+z
8 1/2+x,1/2-y,1/2+z
_cell_length_a                   12.408(8)
_cell_length_b                   11.511(9)
_cell_length_c                   7.518(9)
_cell_angle_alpha                90
_cell_angle_beta                 114.99(5)
_cell_angle_gamma                90
_cell_volume                     973.259
loop_
_atom_site_label
_atom_site_type_symbol
_atom_site_fract_x
_atom_site_fract_y
_atom_site_fract_z
Cu1 Cu 0.2500 0.2500 0.0000
O1 O 0.30255(14) 0.12893(12) 0.2740(2)
O2 O 0.3659(2) 0.26462(14) 0.4942(3)
O3 O 0.36386(14) 0.08531(12) 0.58062(19)
O4 O 0.34933(12) 0.13604(12) -0.0687(2)
N1 N 0.34458(13) 0.16213(14) 0.4501(2)
N2 N 0.39930(12) 0.34724(12) 0.1354(2)
C1 C 0.5000 0.2939(2) 0.2500
C2 C 0.40005(15) 0.46374(15) 0.1327(3)
C3 C 0.5000 0.5262(2) 0.2500
H1 H 0.5000 0.207(5) 0.2500
H2 H 0.331(3) 0.502(2) 0.053(4)
H3 H 0.5000 0.600(3) 0.2500
H4 H 0.354(2) 0.068(2) -0.029(4)
H5 H 0.349(3) 0.132(3) -0.172(6)
N2B N 0.60070(12) 0.34724(12) 0.3646(2)
C2B C 0.59995(15) 0.46374(15) 0.3673(3)
H2B H 0.669(3) 0.502(2) 0.447(4)
O1E O 0.19745(14) 0.37107(12) -0.2740(2)
O2E O 0.1341(2) 0.23538(14) -0.4942(3)
O3E O 0.13614(14) 0.41469(12) -0.58062(19)
N1E N 0.15542(13) 0.33787(14) -0.4501(2)
O4E O 0.15067(12) 0.36396(12) 0.0687(2)
H4E H 0.146(2) 0.432(2) 0.029(4)
H5E H 0.151(3) 0.368(3) 0.172(6)
N2E N 0.10070(12) 0.15276(12) -0.1354(2)
Cu1G Cu 0.7500 0.2500 0.5000
loop_
_geom_bond_atom_site_label_1
_geom_bond_atom_site_label_2
_geom_bond_site_symmetry_1
_geom_bond_site_symmetry_2
Cu1 O1 1_555 1_555
O1 N1 1_555 1_555
O2 N1 1_555 1_555
O3 N1 1_555 1_555
O4 Cu1 1_555 1_555
N2 Cu1 1_555 1_555
C1 N2 1_555 1_555
C2 N2 1_555 1_555
C3 C2 1_555 1_555
H1 C1 1_555 1_555
H2 C2 1_555 1_555
H3 C3 1_555 1_555
H4 O4 1_555 1_555
H5 O4 1_555 1_555
N2B C1 1_555 1_555
C2B C3 1_555 1_555
H2B C2B 1_555 1_555
O1E Cu1 1_555 1_555
O2E N1E 1_555 1_555
O3E N1E 1_555 1_555
N1E O1E 1_555 1_555
O4E Cu1 1_555 1_555
H4E O4E 1_555 1_555
H5E O4E 1_555 1_555
N2E Cu1 1_555 1_555
Cu1G N2B 1_555 1_555
N2B C2B 1_555 1_555

#END
