
#######################################################################
#
#                 Cambridge Crystallographic Data Centre
#                                CCDC 
#
#######################################################################
#
# If this CIF has been generated from an entry in the Cambridge 
# Structural Database, then it will include bibliographic, chemical, 
# crystal, experimental, refinement or atomic coordinate data resulting 
# from the CCDC's data processing and validation procedures.
#
#######################################################################

data_QOYMUN
_symmetry_cell_setting           monoclinic
_symmetry_space_group_name_H-M   'P 21/c'
_symmetry_Int_Tables_number      14
_space_group_name_Hall           '-P 2ybc'
loop_
_symmetry_equiv_pos_site_id
_symmetry_equiv_pos_as_xyz
1 x,y,z
2 -x,1/2+y,1/2-z
3 -x,-y,-z
4 x,1/2-y,1/2+z
_cell_length_a                   12.8574(10)
_cell_length_b                   17.8503(14)
_cell_length_c                   8.5621(7)
_cell_angle_alpha                90
_cell_angle_beta                 108.193(5)
_cell_angle_gamma                90
_cell_volume                     1866.84
loop_
_atom_site_label
_atom_site_type_symbol
_atom_site_fract_x
_atom_site_fract_y
_atom_site_fract_z
Mn1 Mn 0.83514(4) 0.75602(2) 0.47532(6)
N1 N 0.8358(2) 0.69649(14) 0.2146(3)
N2 N 0.8401(2) 0.62957(16) 0.2403(3)
N3 N 0.8445(3) 0.56604(16) 0.2683(4)
N4 N 0.7155(2) 0.82572(14) 0.3413(3)
N5 N 0.9547(2) 0.82597(13) 0.4522(3)
O1 O 0.72592(17) 0.68417(11) 0.4727(3)
O2 O 0.94409(17) 0.68542(11) 0.5787(3)
C1 C 0.6416(3) 0.66876(18) 0.3410(4)
C2 C 0.6019(3) 0.59513(19) 0.3165(5)
H1 H 0.6344 0.5584 0.3933
C3 C 0.5157(3) 0.5765(2) 0.1806(5)
H2 H 0.4913 0.5272 0.1646
C4 C 0.4652(3) 0.6311(2) 0.0674(5)
C5 C 0.5007(3) 0.7041(2) 0.0889(5)
H3 H 0.4655 0.7406 0.0134
C6 C 0.5901(3) 0.72318(18) 0.2245(4)
C7 C 0.6253(3) 0.80063(19) 0.2433(4)
H4 H 0.5777 0.8356 0.1777
C8 C 0.7309(3) 0.90791(17) 0.3449(5)
H5 H 0.7336 0.9267 0.4524
H6 H 0.6685 0.9308 0.2642
C9 C 0.8353(3) 0.93047(18) 0.3086(5)
H7 H 0.8345 0.9080 0.2051
H8 H 0.8352 0.9844 0.2951
C10 C 0.9397(3) 0.90811(17) 0.4387(5)
H9 H 1.0013 0.9303 0.4131
H10 H 0.9390 0.9279 0.5440
C11 C 1.0460(3) 0.80086(17) 0.4429(4)
H11 H 1.0934 0.8357 0.4211
C12 C 1.0825(3) 0.72429(17) 0.4629(4)
C13 C 1.1756(3) 0.70508(19) 0.4197(5)
H12 H 1.2103 0.7410 0.3749
C14 C 1.2157(3) 0.63324(19) 0.4435(5)
C15 C 1.1662(3) 0.57909(17) 0.5128(4)
H13 H 1.1943 0.5307 0.5289
C16 C 1.0754(3) 0.59738(18) 0.5578(4)
H14 H 1.0430 0.5611 0.6054
C17 C 1.0312(3) 0.66974(17) 0.5328(4)
Br1 Br 0.34349(4) 0.60509(3) -0.11771(6)
Br2 Br 1.34145(3) 0.60770(2) 0.38253(6)
Mn1C Mn 0.83514(4) 0.74398(2) -0.02468(6)
N1C N 0.8358(2) 0.80351(14) 0.7146(3)
loop_
_geom_bond_atom_site_label_1
_geom_bond_atom_site_label_2
_geom_bond_site_symmetry_1
_geom_bond_site_symmetry_2
Mn1 N1 1_555 1_555
N1 N2 1_555 1_555
N2 N3 1_555 1_555
N4 Mn1 1_555 1_555
N5 Mn1 1_555 1_555
O1 Mn1 1_555 1_555
O2 Mn1 1_555 1_555
C1 O1 1_555 1_555
C2 C1 1_555 1_555
H1 C2 1_555 1_555
C3 C2 1_555 1_555
H2 C3 1_555 1_555
C4 C3 1_555 1_555
C5 C4 1_555 1_555
H3 C5 1_555 1_555
C6 C1 1_555 1_555
C7 N4 1_555 1_555
H4 C7 1_555 1_555
C8 N4 1_555 1_555
H5 C8 1_555 1_555
H6 C8 1_555 1_555
C9 C8 1_555 1_555
H7 C9 1_555 1_555
H8 C9 1_555 1_555
C10 N5 1_555 1_555
H9 C10 1_555 1_555
H10 C10 1_555 1_555
C11 N5 1_555 1_555
H11 C11 1_555 1_555
C12 C11 1_555 1_555
C13 C12 1_555 1_555
H12 C13 1_555 1_555
C14 C13 1_555 1_555
C15 C14 1_555 1_555
H13 C15 1_555 1_555
C16 C15 1_555 1_555
H14 C16 1_555 1_555
C17 O2 1_555 1_555
Br1 C4 1_555 1_555
Br2 C14 1_555 1_555
Mn1C N1 1_555 1_555
N1C Mn1 1_555 1_555
C5 C6 1_555 1_555
C6 C7 1_555 1_555
C9 C10 1_555 1_555
C12 C17 1_555 1_555
C16 C17 1_555 1_555

#END
