
#######################################################################
#
#                 Cambridge Crystallographic Data Centre
#                                CCDC 
#
#######################################################################
#
# If this CIF has been generated from an entry in the Cambridge 
# Structural Database, then it will include bibliographic, chemical, 
# crystal, experimental, refinement or atomic coordinate data resulting 
# from the CCDC's data processing and validation procedures.
#
#######################################################################

data_QOYYOU
_symmetry_cell_setting           cubic
_symmetry_space_group_name_H-M   'I a -3'
_symmetry_Int_Tables_number      206
_space_group_name_Hall           '-I 2b 2c 3'
loop_
_symmetry_equiv_pos_site_id
_symmetry_equiv_pos_as_xyz
1 x,y,z
2 1/2-x,-y,1/2+z
3 -x,1/2+y,1/2-z
4 1/2+x,1/2-y,-z
5 z,x,y
6 1/2+z,1/2-x,-y
7 1/2-z,-x,1/2+y
8 -z,1/2+x,1/2-y
9 y,z,x
10 -y,1/2+z,1/2-x
11 1/2+y,1/2-z,-x
12 1/2-y,-z,1/2+x
13 1/2+x,1/2+y,1/2+z
14 -x,1/2-y,z
15 1/2-x,y,-z
16 x,-y,1/2-z
17 1/2+z,1/2+x,1/2+y
18 z,-x,1/2-y
19 -z,1/2-x,y
20 1/2-z,x,-y
21 1/2+y,1/2+z,1/2+x
22 1/2-y,z,-x
23 y,-z,1/2-x
24 -y,1/2-z,x
25 -x,-y,-z
26 1/2+x,y,1/2-z
27 x,1/2-y,1/2+z
28 1/2-x,1/2+y,z
29 -z,-x,-y
30 1/2-z,1/2+x,y
31 1/2+z,x,1/2-y
32 z,1/2-x,1/2+y
33 -y,-z,-x
34 y,1/2-z,1/2+x
35 1/2-y,1/2+z,x
36 1/2+y,z,1/2-x
37 1/2-x,1/2-y,1/2-z
38 x,1/2+y,-z
39 1/2+x,-y,z
40 -x,y,1/2+z
41 1/2-z,1/2-x,1/2-y
42 -z,x,1/2+y
43 z,1/2+x,-y
44 1/2+z,-x,y
45 1/2-y,1/2-z,1/2-x
46 1/2+y,-z,x
47 -y,z,1/2+x
48 y,1/2+z,-x
_cell_length_a                   52.623(3)
_cell_length_b                   52.623(3)
_cell_length_c                   52.623(3)
_cell_angle_alpha                90
_cell_angle_beta                 90
_cell_angle_gamma                90
_cell_volume                     145723
loop_
_atom_site_label
_atom_site_type_symbol
_atom_site_fract_x
_atom_site_fract_y
_atom_site_fract_z
Zn1 Zn 0.21976(2) 0.37890(2) 0.87599(2)
Zn2 Zn 0.27720(3) 0.37437(3) 0.88053(2)
Zn3 Zn 0.24899(2) 0.42790(2) 0.87944(2)
Zn4 Zn 0.24980(2) 0.39437(2) 0.92958(2)
Zn5 Zn 0.11862(2) 0.37313(2) 0.76855(2)
Zn6 Zn 0.11224(2) 0.38376(2) 0.70935(2)
Zn7 Zn 0.09781(2) 0.42855(2) 0.74644(2)
Zn8 Zn 0.06424(2) 0.37974(2) 0.74368(2)
O1 O 0.24089(15) 0.38302(19) 0.83831(13)
O2 O 0.34290(13) 0.37023(17) 0.78185(13)
O3 O 0.33466(13) 0.38467(17) 0.74299(14)
O4 O 0.15573(13) 0.37604(17) 0.75524(14)
O5 O 0.14911(14) 0.3931(2) 0.71670(19)
O6 O 0.25271(14) 0.38646(17) 0.66219(13)
O7 O 0.21180(17) 0.3796(2) 0.65316(15)
O8 O 0.19440(12) 0.40102(11) 0.85969(11)
O9 O 0.21654(14) 0.43710(12) 0.86345(15)
O10 O 0.12692(13) 0.40207(12) 0.79365(12)
O11 O 0.11558(13) 0.43939(13) 0.77680(14)
O12 O 0.11475(13) 0.55246(12) 0.78107(14)
O13 O 0.18700(14) 0.58122(14) 0.87288(14)
O14 O 0.21523(17) 0.55170(15) 0.8607(2)
O15 O 0.19694(16) 0.37479(16) 0.90851(14)
O16 O 0.22069(18) 0.37793(17) 0.94362(14)
O17 O 0.1390(2) 0.27657(18) 0.94078(16)
O18 O 0.13026(18) 0.30355(17) 0.90919(16)
O19 O 0.19874(12) 0.36438(12) 1.09392(11)
O20 O 0.21882(16) 0.37745(15) 1.05812(13)
O21 O 0.13746(18) 0.27334(15) 1.05211(14)
O22 O 0.13733(13) 0.29439(12) 1.08841(11)
O23 O 0.04068(14) 0.40836(13) 0.7433(2)
O24 O 0.06346(12) 0.44336(11) 0.74781(14)
O25 O -0.04881(14) 0.40782(13) 0.74678(19)
O26 O -0.07135(11) 0.44378(12) 0.75155(14)
O27 O 0.09821(10) 0.39243(10) 0.74300(10)
O28 O 0.24912(11) 0.39401(11) 0.89306(11)
C1 C 0.2617(2) 0.3758(2) 0.83172(18)
C2 C 0.2683(2) 0.3767(3) 0.80378(19)
C3 C 0.2938(2) 0.3758(2) 0.79671(19)
H1 H 0.3067 0.3742 0.8093
C4 C 0.30026(18) 0.3773(2) 0.77135(19)
C5 C 0.32818(19) 0.3778(2) 0.7649(2)
C6 C 0.2814(2) 0.3789(2) 0.75301(19)
H2 H 0.2860 0.3796 0.7356
C7 C 0.24958(18) 0.3788(3) 0.78524(19)
H3 H 0.2323 0.3799 0.7902
C8 C 0.25573(18) 0.3794(2) 0.75966(18)
C9 C 0.23546(18) 0.3805(2) 0.73980(18)
C10 C 0.24142(19) 0.3819(2) 0.71433(18)
H4 H 0.2588 0.3821 0.7094
C11 C 0.20955(19) 0.3807(2) 0.74590(18)
H5 H 0.2045 0.3791 0.7632
C12 C 0.19107(18) 0.3830(2) 0.7273(2)
C13 C 0.1632(2) 0.3834(2) 0.7337(2)
C14 C 0.1978(2) 0.3845(2) 0.7026(2)
H6 H 0.1851 0.3867 0.6899
C15 C 0.22295(19) 0.3830(2) 0.69569(18)
C16 C 0.2299(2) 0.3836(2) 0.66802(19)
C17 C 0.19782(17) 0.42453(15) 0.85589(16)
C18 C 0.17762(18) 0.43866(16) 0.84154(17)
C19 C 0.16109(17) 0.42548(16) 0.82584(16)
H7 H 0.1614 0.4074 0.8252
C20 C 0.14411(17) 0.43927(16) 0.81099(17)
C21 C 0.12749(16) 0.42571(16) 0.79229(17)
C22 C 0.14289(18) 0.46546(17) 0.81291(18)
H8 H 0.1308 0.4746 0.8031
C23 C 0.17666(18) 0.46505(17) 0.84303(18)
H9 H 0.1882 0.4738 0.8538
C24 C 0.15920(18) 0.47850(17) 0.82904(19)
C25 C 0.15759(18) 0.50731(17) 0.83082(19)
C26 C 0.13979(18) 0.52100(16) 0.81695(19)
H10 H 0.1285 0.5122 0.8059
C27 C 0.13819(19) 0.54744(18) 0.81887(19)
O29 O 0.11170(15) 0.58271(14) 0.81034(15)
C28 C 0.15457(18) 0.56039(17) 0.83470(18)
H11 H 0.1530 0.5783 0.8368
C29 C 0.1732(2) 0.54711(18) 0.8474(2)
C30 C 0.1928(2) 0.56120(18) 0.8620(2)
C31 C 0.1747(2) 0.52124(17) 0.8453(2)
H12 H 0.1879 0.5125 0.8540
C32 C 0.2012(2) 0.3705(2) 0.9310(2)
C33 C 0.1831(2) 0.3533(2) 0.94510(19)
C34 C 0.1678(2) 0.3369(2) 0.93122(19)
H13 H 0.1668 0.3381 0.9132
C35 C 0.1540(2) 0.3185(2) 0.94433(18)
C36 C 0.1395(2) 0.2985(2) 0.93015(19)
C37 C 0.1549(2) 0.3179(2) 0.97095(18)
H14 H 0.1453 0.3054 0.9797
C38 C 0.1838(2) 0.35218(19) 0.97182(18)
H15 H 0.1945 0.3635 0.9809
C39 C 0.1692(2) 0.33501(19) 0.98495(17)
C40 C 0.1697(2) 0.33356(19) 1.01376(18)
C41 C 0.18423(19) 0.35022(19) 1.02835(17)
H16 H 0.1941 0.3629 1.0200
C42 C 0.18472(18) 0.34884(17) 1.05464(17)
C43 C 0.2022(2) 0.36515(19) 1.06979(18)
C44 C 0.17039(18) 0.33080(17) 1.06715(16)
H17 H 0.1700 0.3302 1.0852
C45 C 0.15639(18) 0.31338(18) 1.05246(17)
C46 C 0.14259(19) 0.29214(18) 1.06586(18)
C47 C 0.1565(2) 0.31468(19) 1.02626(18)
H18 H 0.1473 0.3024 1.0167
C48 C 0.04304(18) 0.43151(17) 0.7463(2)
C49 C 0.01866(18) 0.44624(18) 0.7472(2)
C50 C -0.00421(19) 0.43314(19) 0.7475(2)
H19 H -0.0044 0.4151 0.7466
C51 C -0.02643(19) 0.44632(19) 0.7490(2)
C52 C -0.05069(18) 0.43162(18) 0.7492(2)
C53 C -0.02662(19) 0.4725(2) 0.7500(3)
H20 H -0.0423 0.4813 0.7514
C54 C -0.00383(18) 0.48598(18) 0.7490(2)
C55 C 0.01882(18) 0.4724(2) 0.7484(2)
H21 H 0.0346 0.4812 0.7489
O30 O 0.1402(3) 0.3496(3) 0.7964(3)
O31 O 0.1300(7) 0.3775(8) 0.6729(4)
O32 O 0.27918(14) 0.36707(16) 0.84533(12)
C56 C 0.11995(19) 0.56176(19) 0.8022(2)
O23O O 0.04068(14) 0.59164(13) 0.7567(2)
O24O O 0.06346(12) 0.55664(11) 0.75219(14)
O25O O -0.04881(14) 0.59218(13) 0.75322(19)
O26O O -0.07135(11) 0.55622(12) 0.74845(14)
C48O C 0.04304(18) 0.56849(17) 0.7537(2)
C49O C 0.01866(18) 0.55376(18) 0.7528(2)
C50O C -0.00421(19) 0.56686(19) 0.7525(2)
H19O H -0.0044 0.5849 0.7534
C51O C -0.02643(19) 0.55368(19) 0.7510(2)
C52O C -0.05069(18) 0.56838(18) 0.7508(2)
C53O C -0.02662(19) 0.5275(2) 0.7500(3)
H20O H -0.0423 0.5187 0.7486
C54O C -0.00383(18) 0.51402(18) 0.7510(2)
C55O C 0.01882(18) 0.5276(2) 0.7516(2)
H21O H 0.0346 0.5188 0.7511
Zn1E Zn 0.37599(2) 0.28024(2) 0.62110(2)
Zn2E Zn 0.38053(2) 0.22280(3) 0.62563(3)
Zn3E Zn 0.37944(2) 0.25101(2) 0.57210(2)
Zn4E Zn 0.42958(2) 0.25020(2) 0.60563(2)
Zn5E Zn 0.26855(2) 0.38138(2) 0.62687(2)
Zn6E Zn 0.20935(2) 0.38776(2) 0.61624(2)
Zn7E Zn 0.24644(2) 0.40219(2) 0.57145(2)
Zn8E Zn 0.24368(2) 0.43576(2) 0.62026(2)
O1E O 0.33831(13) 0.25911(15) 0.61698(19)
O2E O 0.28185(13) 0.15710(13) 0.62977(17)
O3E O 0.24299(14) 0.16534(13) 0.61533(17)
O4E O 0.25524(14) 0.34427(13) 0.62396(17)
O5E O 0.21670(19) 0.35089(14) 0.6069(2)
O6E O 0.16219(13) 0.24729(14) 0.61354(17)
O7E O 0.15316(15) 0.28820(17) 0.6204(2)
O8E O 0.35969(11) 0.30560(12) 0.59898(11)
O9E O 0.36345(15) 0.28346(14) 0.56290(12)
O10E O 0.29365(12) 0.37308(13) 0.59793(12)
O11E O 0.27680(14) 0.38442(13) 0.56061(13)
O12E O 0.28107(14) 0.38525(13) 0.44754(12)
O13E O 0.37288(14) 0.31300(14) 0.41878(14)
O14E O 0.3607(2) 0.28477(17) 0.44830(15)
O15E O 0.40851(14) 0.30306(16) 0.62521(16)
O16E O 0.44362(14) 0.27931(18) 0.62207(17)
O17E O 0.44078(16) 0.3610(2) 0.72343(18)
O18E O 0.40919(16) 0.36974(18) 0.69645(17)
O19E O 0.59392(11) 0.30126(12) 0.63562(12)
O20E O 0.55812(13) 0.28118(16) 0.62255(15)
O21E O 0.55211(14) 0.36254(18) 0.72666(15)
O22E O 0.58841(11) 0.36267(13) 0.70561(12)
O27E O 0.24300(10) 0.40179(10) 0.60757(10)
O28E O 0.39306(11) 0.25088(11) 0.60599(11)
C1E C 0.33172(18) 0.2383(2) 0.6242(2)
C2E C 0.30378(19) 0.2317(2) 0.6233(3)
C3E C 0.29671(19) 0.2062(2) 0.6242(2)
H1E H 0.3093 0.1933 0.6258
C4E C 0.27135(19) 0.19974(18) 0.6227(2)
C5E C 0.2649(2) 0.17182(19) 0.6222(2)
C6E C 0.25301(19) 0.2186(2) 0.6211(2)
H2E H 0.2356 0.2140 0.6204
C7E C 0.28524(19) 0.25042(18) 0.6212(3)
H3E H 0.2902 0.2677 0.6201
C8E C 0.25966(18) 0.24427(18) 0.6206(2)
C9E C 0.23980(18) 0.26454(18) 0.6195(2)
C10E C 0.21433(18) 0.25858(19) 0.6181(2)
H4E H 0.2094 0.2412 0.6179
C11E C 0.24590(18) 0.29045(19) 0.6193(2)
H5E H 0.2632 0.2955 0.6209
C12E C 0.2273(2) 0.30893(18) 0.6170(2)
C13E C 0.2337(2) 0.3368(2) 0.6166(2)
C14E C 0.2026(2) 0.3022(2) 0.6155(2)
H6E H 0.1899 0.3149 0.6133
C15E C 0.19569(18) 0.27705(19) 0.6170(2)
C16E C 0.16802(19) 0.2701(2) 0.6164(2)
C17E C 0.35589(16) 0.30218(17) 0.57547(15)
C18E C 0.34154(17) 0.32238(18) 0.56134(16)
C19E C 0.32584(16) 0.33891(17) 0.57452(16)
H7E H 0.3252 0.3386 0.5926
C20E C 0.31099(17) 0.35589(17) 0.56073(16)
C21E C 0.29229(17) 0.37251(16) 0.57429(16)
C22E C 0.31291(18) 0.35711(18) 0.53454(17)
H8E H 0.3031 0.3692 0.5254
C23E C 0.34303(18) 0.32334(18) 0.53495(17)
H9E H 0.3538 0.3118 0.5262
C24E C 0.32904(19) 0.34080(18) 0.52150(17)
C25E C 0.33082(19) 0.34241(18) 0.49269(17)
C26E C 0.31695(19) 0.36021(18) 0.47900(16)
H10E H 0.3059 0.3715 0.4878
C27E C 0.31887(19) 0.36181(19) 0.45256(18)
O29E O 0.31034(15) 0.38830(15) 0.41729(14)
C28E C 0.33470(18) 0.34543(18) 0.43961(17)
H11E H 0.3368 0.3470 0.4217
C29E C 0.3474(2) 0.3268(2) 0.45289(18)
C30E C 0.3620(2) 0.3072(2) 0.43880(18)
C31E C 0.3453(2) 0.3253(2) 0.47876(17)
H12E H 0.3540 0.3121 0.4875
C32E C 0.4310(2) 0.2988(2) 0.6295(2)
C33E C 0.44510(19) 0.3169(2) 0.6467(2)
C34E C 0.43122(19) 0.3322(2) 0.6631(2)
H13E H 0.4132 0.3332 0.6619
C35E C 0.44433(18) 0.3460(2) 0.6815(2)
C36E C 0.43015(19) 0.3605(2) 0.7015(2)
C37E C 0.47095(18) 0.3451(2) 0.6821(2)
H14E H 0.4797 0.3547 0.6946
C38E C 0.47182(18) 0.3162(2) 0.64782(19)
H15E H 0.4809 0.3055 0.6365
C39E C 0.48495(17) 0.3308(2) 0.66499(19)
C40E C 0.51376(18) 0.3303(2) 0.66644(19)
C41E C 0.52835(17) 0.31577(19) 0.64978(19)
H16E H 0.5200 0.3059 0.6371
C42E C 0.55464(17) 0.31528(18) 0.65116(17)
C43E C 0.56979(18) 0.2978(2) 0.63485(19)
C44E C 0.56715(16) 0.32961(18) 0.66920(17)
H17E H 0.5852 0.3300 0.6698
C45E C 0.55246(17) 0.34361(18) 0.68662(18)
C46E C 0.56586(18) 0.35741(19) 0.70786(18)
C47E C 0.52626(18) 0.3435(2) 0.68532(19)
H18E H 0.5167 0.3527 0.6976
O30E O 0.2964(3) 0.3598(3) 0.6504(3)
O31E O 0.1729(4) 0.3700(7) 0.6225(8)
O32E O 0.34533(12) 0.22082(14) 0.63293(16)
C56E C 0.3022(2) 0.38005(19) 0.43824(19)
Zn1JA Zn 0.28024(2) 0.12110(2) 0.62401(2)
Zn1UA Zn 0.37890(2) 0.37599(2) 0.78024(2)
Zn2N Zn 0.22280(3) 0.37437(3) 1.11947(2)
Zn2S Zn 0.61947(2) 0.27720(3) 0.62563(3)
Zn2JA Zn 0.22280(3) 0.12563(3) 0.61947(2)
Zn2OA Zn 0.11947(2) 0.27720(3) 0.87437(3)
Zn2UA Zn 0.37437(3) 0.38053(2) 0.72280(3)
Zn3J Zn -0.07210(2) 0.62056(2) 0.75101(2)
Zn3T Zn -0.07210(2) 0.37944(2) 0.74899(2)
Zn3OA Zn 0.12056(2) 0.24899(2) 0.92790(2)
Zn3UA Zn 0.42790(2) 0.37944(2) 0.75101(2)
Zn4J Zn -0.10563(2) 0.57042(2) 0.75020(2)
Zn4N Zn 0.25020(2) 0.39437(2) 1.07042(2)
Zn4S Zn 0.57042(2) 0.24980(2) 0.60563(2)
Zn4T Zn -0.10563(2) 0.42958(2) 0.74980(2)
Zn5K Zn 0.12687(2) 0.23145(2) 0.61862(2)
Zn5Y Zn 0.61862(2) 0.37313(2) 0.73145(2)
Zn5HA Zn 0.12687(2) 0.26855(2) 1.11862(2)
Zn6K Zn 0.11624(2) 0.29065(2) 0.61224(2)
Zn6O Zn 0.11224(2) 0.61624(2) 0.79065(2)
Zn6P Zn 0.20935(2) 0.61224(2) 0.88376(2)
Zn6R Zn 0.29065(2) 0.38776(2) 0.38376(2)
Zn6V Zn 0.38376(2) 0.29065(2) 0.38776(2)
Zn7O Zn 0.09781(2) 0.57145(2) 0.75356(2)
Zn7R Zn 0.25356(2) 0.40219(2) 0.42855(2)
Zn8O Zn 0.06424(2) 0.62026(2) 0.75632(2)
Zn8P Zn 0.24368(2) 0.56424(2) 0.87974(2)
Zn8V Zn 0.37974(2) 0.25632(2) 0.43576(2)
Zn8Y Zn 0.56424(2) 0.37974(2) 0.75632(2)
Zn8HA Zn 0.12026(2) 0.24368(2) 1.06424(2)
O2OA O 0.21815(13) 0.34290(13) 0.87023(17)
O2UA O 0.37023(17) 0.28185(13) 0.65710(13)
O3OA O 0.25701(14) 0.33466(13) 0.88467(17)
O3UA O 0.38467(17) 0.24299(14) 0.66534(13)
O6K O 0.11354(17) 0.33781(13) 0.75271(14)
O7K O 0.1204(2) 0.34684(15) 0.71180(17)
O12O O 0.11475(13) 0.44754(12) 0.71893(14)
O12R O 0.21893(14) 0.38525(13) 0.55246(12)
O13O O 0.18700(14) 0.41878(14) 0.62712(14)
O13T O 0.08122(14) 0.37288(14) 0.68700(14)
O14O O 0.21523(17) 0.44830(15) 0.6393(2)
O14T O 0.05170(15) 0.3607(2) 0.71523(17)
O17JA O 0.3610(2) 0.22343(18) 0.55922(16)
O17UA O 0.27657(18) 0.44078(16) 0.8610(2)
O18JA O 0.36974(18) 0.19645(17) 0.59081(16)
O18UA O 0.30355(17) 0.40919(16) 0.86974(18)
O19N O 0.30126(12) 0.36438(12) 0.90608(11)
O19S O 0.40608(11) 0.19874(12) 0.63562(12)
O20N O 0.28118(16) 0.37745(15) 0.94188(13)
O20S O 0.44188(13) 0.21882(16) 0.62255(15)
O21EA O 0.05211(14) 0.36254(18) 0.77334(15)
O21GA O 0.27334(15) 0.44789(14) 0.63746(18)
O22EA O 0.08841(11) 0.36267(13) 0.79439(12)
O22GA O 0.29439(12) 0.41159(11) 0.63733(13)
O23E O 0.2433(2) 0.45932(14) 0.59164(13)
O24E O 0.24781(14) 0.43654(12) 0.55664(11)
O25P O 0.24678(19) 0.45119(14) 0.90782(13)
O25V O 0.40782(13) 0.25322(19) 0.54881(14)
O26P O 0.25155(14) 0.42865(11) 0.94378(12)
O26V O 0.44378(12) 0.24845(14) 0.57135(11)
O29O O 0.11170(15) 0.41729(14) 0.68966(15)
O29R O 0.18966(15) 0.38830(15) 0.58271(14)
C57 C 0.1159(9) 0.3772(8) 0.8666(9)
N1 N 0.1374(6) 0.3576(6) 0.8618(5)
C58 C 0.2474(10) 0.4972(11) 0.8176(9)
N2 N 0.2464(6) 0.4948(5) 0.8468(9)
O33 O 0.1296(3) 0.3704(3) 0.6296(3)
O34 O 0.1872(12) 0.3128(12) 0.6872(12)
O35 O 0.2195(7) 0.4091(7) 0.0008(4)
O36 O 0.0799(7) 0.4970(5) 0.7812(7)
O37 O 0.2499(10) 0.3019(11) 0.9547(11)
O38 O 0.124(2) 0.5000 0.7500
loop_
_geom_bond_atom_site_label_1
_geom_bond_atom_site_label_2
_geom_bond_site_symmetry_1
_geom_bond_site_symmetry_2
Zn1 O1 1_555 1_555
Zn2 O28 1_555 1_555
Zn3 O9 1_555 1_555
Zn4 O16 1_555 1_555
Zn5 O4 1_555 1_555
Zn6 O5 1_555 1_555
Zn7 O11 1_555 1_555
Zn8 O23 1_555 1_555
O1 C1 1_555 1_555
O2 C5 1_555 1_555
O3 C5 1_555 1_555
O4 C13 1_555 1_555
O5 C13 1_555 1_555
O6 C16 1_555 1_555
O7 C16 1_555 1_555
O8 Zn1 1_555 1_555
O9 C17 1_555 1_555
O10 Zn5 1_555 1_555
O11 C21 1_555 1_555
O12 C56 1_555 1_555
O13 C30 1_555 1_555
O14 C30 1_555 1_555
O15 Zn1 1_555 1_555
O16 C32 1_555 1_555
O17 C36 1_555 1_555
O18 C36 1_555 1_555
O19 C43 1_555 1_555
O20 C43 1_555 1_555
O21 C46 1_555 1_555
O22 C46 1_555 1_555
O23 C48 1_555 1_555
O24 Zn7 1_555 1_555
O25 C52 1_555 1_555
O26 C52 1_555 1_555
O27 Zn5 1_555 1_555
O28 Zn1 1_555 1_555
C1 C2 1_555 1_555
C2 C3 1_555 1_555
C3 H1 1_555 1_555
C4 C3 1_555 1_555
C5 C4 1_555 1_555
C6 C4 1_555 1_555
H2 C6 1_555 1_555
C7 C2 1_555 1_555
H3 C7 1_555 1_555
C8 C6 1_555 1_555
C9 C8 1_555 1_555
C10 C9 1_555 1_555
H4 C10 1_555 1_555
C11 C9 1_555 1_555
H5 C11 1_555 1_555
C12 C11 1_555 1_555
C13 C12 1_555 1_555
C14 C12 1_555 1_555
H6 C14 1_555 1_555
C15 C10 1_555 1_555
C16 C15 1_555 1_555
C17 O8 1_555 1_555
C18 C17 1_555 1_555
C19 C18 1_555 1_555
H7 C19 1_555 1_555
C20 C19 1_555 1_555
C21 O10 1_555 1_555
C22 C20 1_555 1_555
H8 C22 1_555 1_555
C23 C18 1_555 1_555
H9 C23 1_555 1_555
C24 C22 1_555 1_555
C25 C24 1_555 1_555
C26 C25 1_555 1_555
H10 C26 1_555 1_555
C27 C26 1_555 1_555
O29 C56 1_555 1_555
C28 C27 1_555 1_555
H11 C28 1_555 1_555
C29 C28 1_555 1_555
C30 C29 1_555 1_555
C31 C25 1_555 1_555
H12 C31 1_555 1_555
C32 O15 1_555 1_555
C33 C32 1_555 1_555
C34 C33 1_555 1_555
H13 C34 1_555 1_555
C35 C34 1_555 1_555
C36 C35 1_555 1_555
C37 C35 1_555 1_555
H14 C37 1_555 1_555
C38 C33 1_555 1_555
H15 C38 1_555 1_555
C39 C37 1_555 1_555
C40 C39 1_555 1_555
C41 C40 1_555 1_555
H16 C41 1_555 1_555
C42 C41 1_555 1_555
C43 C42 1_555 1_555
C44 C42 1_555 1_555
H17 C44 1_555 1_555
C45 C44 1_555 1_555
C46 C45 1_555 1_555
C47 C40 1_555 1_555
H18 C47 1_555 1_555
C48 O24 1_555 1_555
C49 C48 1_555 1_555
C50 C49 1_555 1_555
H19 C50 1_555 1_555
C51 C50 1_555 1_555
C52 C51 1_555 1_555
C53 C51 1_555 1_555
H20 C53 1_555 1_555
C54 C53 1_555 1_555
C55 C49 1_555 1_555
H21 C55 1_555 1_555
O30 Zn5 1_555 1_555
O31 Zn6 1_555 1_555
O32 Zn2 1_555 1_555
C56 C27 1_555 1_555
C57 N1 1_555 1_555
C58 N2 1_555 1_555
O23O C48O 1_555 1_555
O24O C48O 1_555 1_555
O25O C52O 1_555 1_555
O26O C52O 1_555 1_555
C48O C49O 1_555 1_555
C49O C50O 1_555 1_555
C50O H19O 1_555 1_555
C51O C50O 1_555 1_555
C52O C51O 1_555 1_555
C53O C51O 1_555 1_555
H20O C53O 1_555 1_555
C54O C54 1_555 1_555
C55O C49O 1_555 1_555
H21O C55O 1_555 1_555
Zn1E O1E 1_555 1_555
Zn2E O28E 1_555 1_555
Zn3E O9E 1_555 1_555
Zn4E O16E 1_555 1_555
Zn5E O6 1_555 1_555
Zn6E O7 1_555 1_555
Zn7E O11E 1_555 1_555
Zn8E O27E 1_555 1_555
O1E C1E 1_555 1_555
O2E C5E 1_555 1_555
O3E C5E 1_555 1_555
O4E Zn5E 1_555 1_555
O5E Zn6E 1_555 1_555
O6E C16E 1_555 1_555
O7E C16E 1_555 1_555
O8E Zn1E 1_555 1_555
O9E C17E 1_555 1_555
O10E Zn5E 1_555 1_555
O11E C21E 1_555 1_555
O12E C56E 1_555 1_555
O13E C30E 1_555 1_555
O14E C30E 1_555 1_555
O15E Zn1E 1_555 1_555
O16E C32E 1_555 1_555
O17E C36E 1_555 1_555
O18E C36E 1_555 1_555
O19E C43E 1_555 1_555
O20E C43E 1_555 1_555
O21E C46E 1_555 1_555
O22E C46E 1_555 1_555
O27E Zn5E 1_555 1_555
O28E Zn1E 1_555 1_555
C1E C2E 1_555 1_555
C2E C3E 1_555 1_555
C3E H1E 1_555 1_555
C4E C3E 1_555 1_555
C5E C4E 1_555 1_555
C6E C4E 1_555 1_555
H2E C6E 1_555 1_555
C7E C2E 1_555 1_555
H3E C7E 1_555 1_555
C8E C6E 1_555 1_555
C9E C8E 1_555 1_555
C10E C9E 1_555 1_555
H4E C10E 1_555 1_555
C11E C9E 1_555 1_555
H5E C11E 1_555 1_555
C12E C11E 1_555 1_555
C13E O4E 1_555 1_555
C14E C12E 1_555 1_555
H6E C14E 1_555 1_555
C15E C10E 1_555 1_555
C16E C15E 1_555 1_555
C17E O8E 1_555 1_555
C18E C17E 1_555 1_555
C19E C18E 1_555 1_555
H7E C19E 1_555 1_555
C20E C19E 1_555 1_555
C21E O10E 1_555 1_555
C22E C20E 1_555 1_555
H8E C22E 1_555 1_555
C23E C18E 1_555 1_555
H9E C23E 1_555 1_555
C24E C22E 1_555 1_555
C25E C24E 1_555 1_555
C26E C25E 1_555 1_555
H10E C26E 1_555 1_555
C27E C26E 1_555 1_555
O29E C56E 1_555 1_555
C28E C27E 1_555 1_555
H11E C28E 1_555 1_555
C29E C28E 1_555 1_555
C30E C29E 1_555 1_555
C31E C25E 1_555 1_555
H12E C31E 1_555 1_555
C32E O15E 1_555 1_555
C33E C32E 1_555 1_555
C34E C33E 1_555 1_555
H13E C34E 1_555 1_555
C35E C34E 1_555 1_555
C36E C35E 1_555 1_555
C37E C35E 1_555 1_555
H14E C37E 1_555 1_555
C38E C33E 1_555 1_555
H15E C38E 1_555 1_555
C39E C37E 1_555 1_555
C40E C39E 1_555 1_555
C41E C40E 1_555 1_555
H16E C41E 1_555 1_555
C42E C41E 1_555 1_555
C43E C42E 1_555 1_555
C44E C42E 1_555 1_555
H17E C44E 1_555 1_555
C45E C44E 1_555 1_555
C46E C45E 1_555 1_555
C47E C40E 1_555 1_555
H18E C47E 1_555 1_555
O30E Zn5E 1_555 1_555
O31E Zn6E 1_555 1_555
O32E Zn2E 1_555 1_555
C56E C27E 1_555 1_555
Zn1JA O2E 1_555 1_555
Zn1UA O2 1_555 1_555
Zn2N O19 1_555 1_555
Zn2S O19E 1_555 1_555
Zn2JA O3E 1_555 1_555
Zn2OA O18 1_555 1_555
Zn2UA O3 1_555 1_555
Zn3J O25O 1_555 1_555
Zn3T O25 1_555 1_555
Zn3OA O17 1_555 1_555
Zn3UA O17E 1_555 1_555
Zn4J O26O 1_555 1_555
Zn4N O20 1_555 1_555
Zn4S O20E 1_555 1_555
Zn4T O26 1_555 1_555
Zn5K O6E 1_555 1_555
Zn5Y O22E 1_555 1_555
Zn5HA O22 1_555 1_555
Zn6K O7E 1_555 1_555
Zn6O O29 1_555 1_555
Zn6P O13 1_555 1_555
Zn6R O29E 1_555 1_555
Zn6V O13E 1_555 1_555
Zn7O O12 1_555 1_555
Zn7R O12E 1_555 1_555
Zn8O O23O 1_555 1_555
Zn8P O14 1_555 1_555
Zn8V O14E 1_555 1_555
Zn8Y O21E 1_555 1_555
Zn8HA O21 1_555 1_555
O2OA Zn1 1_555 1_555
O2UA Zn1E 1_555 1_555
O3OA Zn2 1_555 1_555
O3UA Zn2E 1_555 1_555
O6K Zn5 1_555 1_555
O7K Zn6 1_555 1_555
O12O Zn7 1_555 1_555
O12R Zn7E 1_555 1_555
O13O Zn6E 1_555 1_555
O13T Zn6 1_555 1_555
O14O Zn8E 1_555 1_555
O14T Zn8 1_555 1_555
O17JA Zn3E 1_555 1_555
O17UA Zn3 1_555 1_555
O18JA Zn2E 1_555 1_555
O18UA Zn2 1_555 1_555
O19N Zn2 1_555 1_555
O19S Zn2E 1_555 1_555
O20N Zn4 1_555 1_555
O20S Zn4E 1_555 1_555
O21EA Zn8 1_555 1_555
O21GA Zn8E 1_555 1_555
O22EA Zn5 1_555 1_555
O22GA Zn5E 1_555 1_555
O23E Zn8E 1_555 1_555
O24E Zn7E 1_555 1_555
O25P Zn3 1_555 1_555
O25V Zn3E 1_555 1_555
O26P Zn4 1_555 1_555
O26V Zn4E 1_555 1_555
O29O Zn6 1_555 1_555
O29R Zn6E 1_555 1_555
Zn3 O28 1_555 1_555
Zn4 O28 1_555 1_555
Zn6 O27 1_555 1_555
Zn7 O27 1_555 1_555
Zn8 O27 1_555 1_555
C1 O32 1_555 1_555
C7 C8 1_555 1_555
C14 C15 1_555 1_555
C20 C21 1_555 1_555
C23 C24 1_555 1_555
C29 C31 1_555 1_555
C38 C39 1_555 1_555
C45 C47 1_555 1_555
C54 C55 1_555 1_555
O24O Zn7O 1_555 1_555
C53O C54O 1_555 1_555
C54O C55O 1_555 1_555
Zn3E O28E 1_555 1_555
Zn4E O28E 1_555 1_555
Zn6E O27E 1_555 1_555
Zn7E O27E 1_555 1_555
O5E C13E 1_555 1_555
O18E Zn2UA 1_555 1_555
C1E O32E 1_555 1_555
C7E C8E 1_555 1_555
C12E C13E 1_555 1_555
C14E C15E 1_555 1_555
C20E C21E 1_555 1_555
C23E C24E 1_555 1_555
C29E C31E 1_555 1_555
C38E C39E 1_555 1_555
C45E C47E 1_555 1_555

#END
