
#######################################################################
#
#                 Cambridge Crystallographic Data Centre
#                                CCDC 
#
#######################################################################
#
# If this CIF has been generated from an entry in the Cambridge 
# Structural Database, then it will include bibliographic, chemical, 
# crystal, experimental, refinement or atomic coordinate data resulting 
# from the CCDC's data processing and validation procedures.
#
#######################################################################

data_QOZBOW
_symmetry_cell_setting           monoclinic
_symmetry_space_group_name_H-M   'P 21/n'
_symmetry_Int_Tables_number      14
_space_group_name_Hall           '-P 2yn'
loop_
_symmetry_equiv_pos_site_id
_symmetry_equiv_pos_as_xyz
1 x,y,z
2 1/2+x,1/2-y,1/2+z
3 -x,-y,-z
4 1/2-x,1/2+y,1/2-z
_cell_length_a                   12.5336(8)
_cell_length_b                   7.1979(5)
_cell_length_c                   18.7487(12)
_cell_angle_alpha                90
_cell_angle_beta                 102.7720(10)
_cell_angle_gamma                90
_cell_volume                     1649.58
loop_
_atom_site_label
_atom_site_type_symbol
_atom_site_fract_x
_atom_site_fract_y
_atom_site_fract_z
Pb1 Pb 0.22383(2) 0.01973(2) 0.182647(12)
O1 O 0.2230(4) -0.1214(5) 0.2997(2)
O2 O 0.2214(4) 0.1775(5) 0.3182(2)
C1 C 0.2284(4) 0.0169(7) 0.3420(3)
C2 C 0.2553(5) -0.0186(6) 0.4231(3)
C3 C 0.1861(5) 0.0284(7) 0.4691(3)
N1 N 0.0762(5) 0.0992(7) 0.4384(3)
O3 O 0.0324(4) 0.0521(8) 0.3769(3)
O4 O 0.0320(4) 0.1940(6) 0.4774(3)
C4 C 0.2177(5) 0.0038(8) 0.5450(3)
H1 H 0.1716 0.0376 0.5754
C5 C 0.3186(6) -0.0715(8) 0.5728(3)
H2 H 0.3404 -0.0902 0.6230
C6 C 0.3886(6) -0.1203(8) 0.5291(4)
H3 H 0.4569 -0.1703 0.5497
C7 C 0.3573(5) -0.0947(7) 0.4543(3)
H4 H 0.4045 -0.1285 0.4245
O5 O 0.0357(4) -0.1262(5) 0.1616(3)
O6 O 0.0325(4) 0.1769(5) 0.1764(3)
C8 C -0.0148(5) 0.0238(8) 0.1648(3)
C9 C -0.1354(5) 0.0105(7) 0.1598(3)
C10 C -0.2173(5) 0.0228(7) 0.0960(3)
N2 N -0.1877(6) 0.0549(7) 0.0263(3)
O7 O -0.0945(5) 0.0943(8) 0.0250(3)
O8 O -0.2612(5) 0.0346(8) -0.0294(3)
C11 C -0.3267(6) 0.0008(9) 0.0978(4)
H5 H -0.3803 0.0112 0.0549
C12 C -0.3557(7) -0.0358(11) 0.1620(5)
H6 H -0.4291 -0.0505 0.1629
C13 C -0.2779(8) -0.0510(12) 0.2250(5)
H7 H -0.2983 -0.0782 0.2686
C14 C -0.1704(7) -0.0266(10) 0.2246(4)
H8 H -0.1186 -0.0347 0.2684
O9 O 0.4339(4) 0.0268(7) 0.2538(3)
H9 H 0.448(6) 0.122(8) 0.274(4)
H10 H 0.445(8) -0.066(12) 0.284(5)
O1C O 0.2770(4) 0.3786(5) 0.2003(2)
O2C O 0.2786(4) -0.3225(5) 0.1818(2)
Pb1C Pb 0.27617(2) -0.48027(2) 0.317353(12)
Pb1C_2 Pb 0.27617(2) 0.51973(2) 0.317353(12)
loop_
_geom_bond_atom_site_label_1
_geom_bond_atom_site_label_2
_geom_bond_site_symmetry_1
_geom_bond_site_symmetry_2
Pb1 O1 1_555 1_555
O1 C1 1_555 1_555
O2 C1 1_555 1_555
C1 C2 1_555 1_555
C2 C3 1_555 1_555
C3 N1 1_555 1_555
N1 O3 1_555 1_555
O4 N1 1_555 1_555
C4 C3 1_555 1_555
H1 C4 1_555 1_555
C5 C4 1_555 1_555
H2 C5 1_555 1_555
C6 C5 1_555 1_555
H3 C6 1_555 1_555
C7 C2 1_555 1_555
H4 C7 1_555 1_555
O5 Pb1 1_555 1_555
O6 Pb1 1_555 1_555
C8 O5 1_555 1_555
C9 C8 1_555 1_555
C10 C9 1_555 1_555
N2 C10 1_555 1_555
O7 N2 1_555 1_555
O8 N2 1_555 1_555
C11 C10 1_555 1_555
H5 C11 1_555 1_555
C12 C11 1_555 1_555
H6 C12 1_555 1_555
C13 C12 1_555 1_555
H7 C13 1_555 1_555
C14 C9 1_555 1_555
H8 C14 1_555 1_555
O9 Pb1 1_555 1_555
H9 O9 1_555 1_555
H10 O9 1_555 1_555
O1C Pb1 1_555 1_555
O2C Pb1 1_555 1_555
Pb1C O1 1_555 1_555
Pb1C_2 O2 1_555 1_555
C6 C7 1_555 1_555
O6 C8 1_555 1_555
C13 C14 1_555 1_555
O1C Pb1C_2 1_555 1_555

#END
