
#######################################################################
#
#                 Cambridge Crystallographic Data Centre
#                                CCDC 
#
#######################################################################
#
# If this CIF has been generated from an entry in the Cambridge 
# Structural Database, then it will include bibliographic, chemical, 
# crystal, experimental, refinement or atomic coordinate data resulting 
# from the CCDC's data processing and validation procedures.
#
#######################################################################

data_QOZGER
_symmetry_cell_setting           monoclinic
_symmetry_space_group_name_H-M   'P 21/n'
_symmetry_Int_Tables_number      14
_space_group_name_Hall           '-P 2yn'
loop_
_symmetry_equiv_pos_site_id
_symmetry_equiv_pos_as_xyz
1 x,y,z
2 1/2+x,1/2-y,1/2+z
3 -x,-y,-z
4 1/2-x,1/2+y,1/2-z
_cell_length_a                   20.685(4)
_cell_length_b                   7.337(2)
_cell_length_c                   11.692(2)
_cell_angle_alpha                90
_cell_angle_beta                 95.730(10)
_cell_angle_gamma                90
_cell_volume                     1765.58
loop_
_atom_site_label
_atom_site_type_symbol
_atom_site_fract_x
_atom_site_fract_y
_atom_site_fract_z
Cu1 Cu -0.30172(5) 0.21790(10) -0.42662(9)
N1 N -0.3919(3) 0.1480(8) -0.3833(5)
N2 N -0.3061(3) -0.0336(8) -0.4803(5)
N3 N -0.2120(3) 0.2138(9) -0.4926(5)
N4 N -0.3092(3) 0.4718(9) -0.3849(6)
N5 N -0.2682(3) 0.5595(9) -0.3308(5)
N6 N -0.2300(4) 0.6510(10) -0.2798(6)
C1 C -0.4060(3) -0.0290(10) -0.4057(6)
C2 C -0.4616(4) -0.1110(10) -0.3752(8)
C3 C -0.5035(4) -0.0080(10) -0.3160(8)
C4 C -0.4895(4) 0.1710(10) -0.2924(8)
C5 C -0.4337(4) 0.2450(10) -0.3288(8)
C6 C -0.3571(4) -0.1248(10) -0.4662(7)
C7 C -0.2510(4) -0.0990(10) -0.5376(7)
C8 C -0.2188(4) 0.0680(10) -0.5824(7)
C9 C -0.1599(4) 0.1680(10) -0.3989(8)
C10 C -0.0922(5) 0.170(2) -0.4372(9)
C11 C -0.0773(5) 0.349(2) -0.4920(10)
C12 C -0.1289(6) 0.396(2) -0.5881(10)
C13 C -0.1961(4) 0.3910(10) -0.5457(8)
H1 H -0.47100 -0.23510 -0.39410
H2 H -0.54170 -0.06100 -0.29190
H3 H -0.51770 0.24340 -0.25170
H4 H -0.42470 0.37070 -0.31430
H5 H -0.36310 -0.24650 -0.49300
H6 H -0.22130 -0.16300 -0.48470
H7 H -0.26560 -0.17790 -0.59940
H8 H -0.24470 0.11310 -0.64820
H9 H -0.17700 0.03650 -0.60290
H10 H -0.16160 0.25430 -0.33870
H11 H -0.16830 0.04960 -0.37090
H12 H -0.06160 0.15020 -0.37220
H13 H -0.08870 0.07490 -0.49140
H14 H -0.07560 0.44180 -0.43520
H15 H -0.03640 0.33990 -0.52200
H16 H -0.12090 0.51490 -0.61560
H17 H -0.12730 0.31060 -0.64890
H18 H -0.22740 0.41320 -0.60920
H19 H -0.19840 0.48420 -0.49000
N6C N -0.2700(4) 0.1510(10) -0.2202(6)
Cu1C Cu -0.19828(5) 0.71790(10) -0.07338(9)
Cl1 Cl -0.39290(10) 0.4321(3) -0.6747(2)
O1 O -0.4377(3) 0.4660(10) -0.5898(6)
O2 O -0.4278(3) 0.4120(10) -0.7838(6)
O3 O -0.3511(3) 0.5851(8) -0.6755(5)
O4 O -0.3573(3) 0.2718(9) -0.6420(6)
loop_
_geom_bond_atom_site_label_1
_geom_bond_atom_site_label_2
_geom_bond_site_symmetry_1
_geom_bond_site_symmetry_2
Cu1 N1 1_555 1_555
Cl1 O1 1_555 1_555
O2 Cl1 1_555 1_555
O3 Cl1 1_555 1_555
O4 Cl1 1_555 1_555
N1 C1 1_555 1_555
N2 Cu1 1_555 1_555
N3 Cu1 1_555 1_555
N4 Cu1 1_555 1_555
N5 N4 1_555 1_555
N6 N5 1_555 1_555
C1 C2 1_555 1_555
C2 C3 1_555 1_555
C3 C4 1_555 1_555
C4 C5 1_555 1_555
C5 N1 1_555 1_555
C6 N2 1_555 1_555
C7 N2 1_555 1_555
C8 N3 1_555 1_555
C9 N3 1_555 1_555
C10 C9 1_555 1_555
C11 C10 1_555 1_555
C12 C11 1_555 1_555
C13 N3 1_555 1_555
H1 C2 1_555 1_555
H2 C3 1_555 1_555
H3 C4 1_555 1_555
H4 C5 1_555 1_555
H5 C6 1_555 1_555
H6 C7 1_555 1_555
H7 C7 1_555 1_555
H8 C8 1_555 1_555
H9 C8 1_555 1_555
H10 C9 1_555 1_555
H11 C9 1_555 1_555
H12 C10 1_555 1_555
H13 C10 1_555 1_555
H14 C11 1_555 1_555
H15 C11 1_555 1_555
H16 C12 1_555 1_555
H17 C12 1_555 1_555
H18 C13 1_555 1_555
H19 C13 1_555 1_555
N6C Cu1 1_555 1_555
Cu1C N6 1_555 1_555
C1 C6 1_555 1_555
C7 C8 1_555 1_555
C12 C13 1_555 1_555

#END
