
#######################################################################
#
#                 Cambridge Crystallographic Data Centre
#                                CCDC 
#
#######################################################################
#
# If this CIF has been generated from an entry in the Cambridge 
# Structural Database, then it will include bibliographic, chemical, 
# crystal, experimental, refinement or atomic coordinate data resulting 
# from the CCDC's data processing and validation procedures.
#
#######################################################################

data_QOZLIB
_symmetry_cell_setting           triclinic
_symmetry_space_group_name_H-M   'P -1'
_symmetry_Int_Tables_number      2
_space_group_name_Hall           '-P 1'
loop_
_symmetry_equiv_pos_site_id
_symmetry_equiv_pos_as_xyz
1 x,y,z
2 -x,-y,-z
_cell_length_a                   8.6861(10)
_cell_length_b                   9.3756(15)
_cell_length_c                   13.8320(15)
_cell_angle_alpha                84.9700(10)
_cell_angle_beta                 77.8850(10)
_cell_angle_gamma                73.8590(10)
_cell_volume                     1057.42
loop_
_atom_site_label
_atom_site_type_symbol
_atom_site_fract_x
_atom_site_fract_y
_atom_site_fract_z
Y1 Y -0.67258(3) -0.05472(3) 0.41548(2)
C1 C -0.9719(3) -0.2234(3) 0.5176(2)
C2 C -0.9451(3) -0.3735(3) 0.5696(2)
C3 C -0.7891(4) -0.4680(3) 0.5635(2)
H1 H -0.7003 -0.4411 0.5240
C4 C -0.7654(4) -0.6029(3) 0.6166(2)
C5 C -0.8977(4) -0.6442(3) 0.6737(2)
H2 H -0.8831 -0.7324 0.7113
C6 C -1.0519(4) -0.5517(3) 0.6736(2)
C7 C -1.0791(4) -0.4157(3) 0.6244(2)
H3 H -1.1843 -0.3540 0.6278
C8 C -0.5987(4) -0.7075(3) 0.6100(2)
C9 C -0.3993(4) 0.1011(3) 0.3585(2)
C10 C -0.2777(4) 0.1728(3) 0.2926(2)
C11 C -0.1113(3) 0.1086(3) 0.2872(2)
H4 H -0.0762 0.0252 0.3267
C12 C 0.0028(4) 0.1683(3) 0.2231(2)
C13 C -0.0499(4) 0.2970(4) 0.1679(2)
H5 H 0.0249 0.3398 0.1261
C14 C -0.2148(4) 0.3597(4) 0.1764(2)
C15 C -0.3308(4) 0.2987(3) 0.2365(2)
H6 H -0.4417 0.3417 0.2389
C16 C 0.1829(4) 0.0953(4) 0.2114(2)
N1 N -1.1932(4) -0.6012(4) 0.7285(3)
N2 N -0.2698(4) 0.4953(4) 0.1165(3)
O1 O -0.8523(3) -0.1924(2) 0.46066(17)
O2 O -1.1123(3) -0.1387(2) 0.53406(18)
O3 O -0.4959(3) -0.7127(2) 0.53091(17)
O4 O -0.5662(3) -0.7943(2) 0.68258(16)
O5 O -1.1710(4) -0.7012(4) 0.7891(3)
O6 O -1.3264(3) -0.5445(3) 0.7052(3)
O7 O -0.5383(2) 0.1249(2) 0.33851(17)
O8 O -0.3523(3) 0.0171(2) 0.42860(15)
O9 O 0.2328(3) -0.0032(3) 0.27268(16)
O10 O 0.2717(3) 0.1388(3) 0.13767(18)
O11 O -0.4054(4) 0.5240(4) 0.0983(3)
O12 O -0.1753(4) 0.5701(4) 0.0865(3)
Y1A Y -0.32742(3) -0.94528(3) 0.58452(2)
Y1A_2 Y -1.32742(3) 0.05472(3) 0.58452(2)
Y1_2 Y 0.32742(3) -0.05472(3) 0.41548(2)
Y1A_3 Y -0.32742(3) 0.05472(3) 0.58452(2)
O2A O -0.8877(3) 0.1387(2) 0.46594(18)
O3A O -0.5041(3) -0.2873(2) 0.46909(17)
O4A O -0.4338(3) -0.2057(2) 0.31742(16)
O8A O -0.6477(3) -0.0171(2) 0.57140(15)
O9_2 O -0.7672(3) -0.0032(3) 0.27268(16)
C17 C -0.3180(4) -1.0648(4) 0.1131(3)
H7 H -0.3589 -1.1347 0.1547
C18 C -0.1523(4) -1.0903(4) 0.0803(3)
H8 H -0.0818 -1.1769 0.1002
C19 C -0.0898(4) -0.9879(4) 0.0180(2)
C20 C -0.2006(4) -0.8625(4) -0.0090(3)
H9 H -0.1637 -0.7910 -0.0511
C21 C -0.3657(4) -0.8419(5) 0.0258(3)
H10 H -0.4396 -0.7571 0.0068
N3 N -0.4191(3) -0.9427(3) 0.0863(2)
H11 H -0.5222 -0.9279 0.1086
C17A C 0.3180(4) -0.9352(4) -0.1131(3)
H7A H 0.3589 -0.8653 -0.1547
C18A C 0.1523(4) -0.9097(4) -0.0803(3)
H8A H 0.0818 -0.8231 -0.1002
C19A C 0.0898(4) -1.0121(4) -0.0180(2)
C20A C 0.2006(4) -1.1375(4) 0.0090(3)
H9A H 0.1637 -1.2090 0.0511
C21A C 0.3657(4) -1.1581(5) -0.0258(3)
H10A H 0.4396 -1.2429 -0.0068
N3A N 0.4191(3) -1.0573(3) -0.0863(2)
H11A H 0.5222 -1.0721 -0.1086
loop_
_geom_bond_atom_site_label_1
_geom_bond_atom_site_label_2
_geom_bond_site_symmetry_1
_geom_bond_site_symmetry_2
Y1 O1 1_555 1_555
C1 C2 1_555 1_555
C2 C3 1_555 1_555
C3 H1 1_555 1_555
C4 C3 1_555 1_555
C5 C4 1_555 1_555
H2 C5 1_555 1_555
C6 C5 1_555 1_555
C7 C2 1_555 1_555
H3 C7 1_555 1_555
C8 C4 1_555 1_555
C9 C10 1_555 1_555
C10 C11 1_555 1_555
C11 H4 1_555 1_555
C12 C11 1_555 1_555
C13 C12 1_555 1_555
H5 C13 1_555 1_555
C14 C13 1_555 1_555
C15 C10 1_555 1_555
H6 C15 1_555 1_555
C16 C12 1_555 1_555
C17 H7 1_555 1_555
C18 C17 1_555 1_555
H8 C18 1_555 1_555
C19 C18 1_555 1_555
C20 C19 1_555 1_555
H9 C20 1_555 1_555
C21 C20 1_555 1_555
H10 C21 1_555 1_555
N1 C6 1_555 1_555
N2 C14 1_555 1_555
N3 C17 1_555 1_555
H11 N3 1_555 1_555
O1 C1 1_555 1_555
O2 C1 1_555 1_555
O3 C8 1_555 1_555
O4 C8 1_555 1_555
O5 N1 1_555 1_555
O6 N1 1_555 1_555
O7 Y1 1_555 1_555
O8 C9 1_555 1_555
O9 C16 1_555 1_555
O10 C16 1_555 1_555
O11 N2 1_555 1_555
O12 N2 1_555 1_555
Y1A O3 1_555 1_555
Y1A_2 O2 1_555 1_555
Y1_2 O9 1_555 1_555
Y1A_3 O8 1_555 1_555
C17A H7A 1_555 1_555
C18A C17A 1_555 1_555
H8A C18A 1_555 1_555
C19A C19 1_555 1_555
C20A C19A 1_555 1_555
H9A C20A 1_555 1_555
C21A C20A 1_555 1_555
H10A C21A 1_555 1_555
N3A C17A 1_555 1_555
H11A N3A 1_555 1_555
O2A Y1 1_555 1_555
O3A Y1 1_555 1_555
O4A Y1 1_555 1_555
O8A Y1 1_555 1_555
O9_2 Y1 1_555 1_555
C6 C7 1_555 1_555
C9 O7 1_555 1_555
C14 C15 1_555 1_555
C21 N3 1_555 1_555
O4 Y1A 1_555 1_555
C18A C19A 1_555 1_555
C21A N3A 1_555 1_555

#END
