
#######################################################################
#
#                 Cambridge Crystallographic Data Centre
#                                CCDC 
#
#######################################################################
#
# If this CIF has been generated from an entry in the Cambridge 
# Structural Database, then it will include bibliographic, chemical, 
# crystal, experimental, refinement or atomic coordinate data resulting 
# from the CCDC's data processing and validation procedures.
#
#######################################################################

data_QOZLUN
_symmetry_cell_setting           triclinic
_symmetry_space_group_name_H-M   'P -1'
_symmetry_Int_Tables_number      2
_space_group_name_Hall           '-P 1'
loop_
_symmetry_equiv_pos_site_id
_symmetry_equiv_pos_as_xyz
1 x,y,z
2 -x,-y,-z
_cell_length_a                   9.6561(14)
_cell_length_b                   10.4608(12)
_cell_length_c                   13.5963(14)
_cell_angle_alpha                67.4990(10)
_cell_angle_beta                 69.7850(10)
_cell_angle_gamma                65.0350(10)
_cell_volume                     1122.16
loop_
_atom_site_label
_atom_site_type_symbol
_atom_site_fract_x
_atom_site_fract_y
_atom_site_fract_z
Tb1 Tb 0.225617(19) 0.530413(17) 0.513176(14)
C1 C 0.4212(4) 0.9110(4) 0.4139(3)
C2 C 0.5628(4) 0.9372(4) 0.3665(3)
H1 H 0.6564 0.8609 0.3553
C3 C 0.5605(4) 1.0793(4) 0.3365(3)
C4 C 0.4272(4) 1.1959(4) 0.3557(3)
H2 H 0.4316 1.2897 0.3371
C5 C 0.2863(4) 1.1689(4) 0.4039(3)
C6 C 0.2826(4) 1.0279(4) 0.4300(3)
H3 H 0.1873 1.0113 0.4584
C7 C 0.4195(4) 0.7575(4) 0.4502(3)
C8 C 0.1407(4) 1.2904(4) 0.4326(3)
C9 C 0.3188(5) 0.7486(5) 0.1709(3)
C10 C 0.2019(5) 0.8730(5) 0.1305(3)
H4 H 0.1008 0.8976 0.1730
C11 C 0.2373(5) 0.9596(5) 0.0264(3)
C12 C 0.3848(6) 0.9307(5) -0.0392(4)
H5 H 0.4050 0.9921 -0.1092
C13 C 0.5025(5) 0.8075(5) 0.0015(3)
C14 C 0.4683(5) 0.7168(5) 0.1061(3)
H6 H 0.5475 0.6333 0.1328
C15 C 0.2835(4) 0.6551(4) 0.2851(3)
C16 C 0.6659(6) 0.7756(7) -0.0654(4)
N1 N 0.7112(4) 1.1068(4) 0.2884(3)
N2 N 0.1131(6) 1.0939(5) -0.0164(4)
O1 O 0.2920(3) 0.7421(3) 0.4641(2)
O2 O 0.5445(3) 0.6546(3) 0.4657(2)
O3 O 0.0120(3) 1.2905(3) 0.4297(2)
O4 O 0.1538(3) 1.3868(3) 0.4585(2)
O5 O 0.7090(4) 1.2319(4) 0.2456(4)
O6 O 0.8309(4) 1.0026(4) 0.2950(3)
O7 O 0.3943(3) 0.5512(3) 0.3260(2)
O8 O 0.1447(3) 0.6847(3) 0.3397(2)
O9 O 0.7734(5) 0.6729(6) -0.0326(3)
O10 O 0.6795(4) 0.8727(4) -0.1592(3)
H7 H 0.7758 0.8567 -0.1901
O11 O 0.1427(6) 1.1583(5) -0.1128(3)
O12 O -0.0129(5) 1.1312(4) 0.0434(3)
O13 O 0.2814(3) 0.5317(4) 0.6716(2)
O14 O 0.1025(3) 0.3777(3) 0.6731(2)
H8 H 0.3764 0.5106 0.6715
H9 H 0.2263 0.5348 0.7346
H10 H 0.0355 0.3480 0.6689
H11 H 0.0886 0.3831 0.7365
Tb1A Tb 0.774383(19) 0.469587(17) 0.486824(14)
Tb1A_2 Tb -0.225617(19) 1.469587(17) 0.486824(14)
Tb1_2 Tb 0.225617(19) 1.530413(17) 0.513176(14)
O2A O 0.4555(3) 0.3454(3) 0.5343(2)
O3A O -0.0120(3) 0.7095(3) 0.5703(2)
O4_2 O 0.1538(3) 0.3868(3) 0.4585(2)
O15 O 0.0669(6) 0.4903(5) 0.8544(3)
H12 H 0.0883 0.5455 0.8744
H15 H 0.0501 0.4202 0.9109
O16 O 0.0412(4) 0.1707(4) 0.2708(3)
H13 H -0.0299 0.1542 0.2591
H14 H 0.0211 0.2088 0.3214
loop_
_geom_bond_atom_site_label_1
_geom_bond_atom_site_label_2
_geom_bond_site_symmetry_1
_geom_bond_site_symmetry_2
Tb1 O1 1_555 1_555
C1 C2 1_555 1_555
C2 H1 1_555 1_555
C3 C2 1_555 1_555
C4 C3 1_555 1_555
H2 C4 1_555 1_555
C5 C4 1_555 1_555
C6 C1 1_555 1_555
H3 C6 1_555 1_555
C7 C1 1_555 1_555
C8 C5 1_555 1_555
C9 C10 1_555 1_555
C10 H4 1_555 1_555
C11 C10 1_555 1_555
C12 C11 1_555 1_555
H5 C12 1_555 1_555
C13 C12 1_555 1_555
C14 C9 1_555 1_555
H6 C14 1_555 1_555
C15 C9 1_555 1_555
C16 C13 1_555 1_555
N1 C3 1_555 1_555
N2 C11 1_555 1_555
O1 C7 1_555 1_555
O2 C7 1_555 1_555
O3 C8 1_555 1_555
O4 C8 1_555 1_555
O5 N1 1_555 1_555
O6 N1 1_555 1_555
O7 Tb1 1_555 1_555
O8 Tb1 1_555 1_555
O9 C16 1_555 1_555
O10 C16 1_555 1_555
H7 O10 1_555 1_555
O11 N2 1_555 1_555
O12 N2 1_555 1_555
O13 Tb1 1_555 1_555
O14 Tb1 1_555 1_555
O15 H12 1_555 1_555
O16 H13 1_555 1_555
H8 O13 1_555 1_555
H9 O13 1_555 1_555
H10 O14 1_555 1_555
H11 O14 1_555 1_555
H14 O16 1_555 1_555
H15 O15 1_555 1_555
Tb1A O2 1_555 1_555
Tb1A_2 O3 1_555 1_555
Tb1_2 O4 1_555 1_555
O2A Tb1 1_555 1_555
O3A Tb1 1_555 1_555
O4_2 Tb1 1_555 1_555
C5 C6 1_555 1_555
C13 C14 1_555 1_555
C15 O7 1_555 1_555
C15 O8 1_555 1_555

#END
