
#######################################################################
#
#                 Cambridge Crystallographic Data Centre
#                                CCDC 
#
#######################################################################
#
# If this CIF has been generated from an entry in the Cambridge 
# Structural Database, then it will include bibliographic, chemical, 
# crystal, experimental, refinement or atomic coordinate data resulting 
# from the CCDC's data processing and validation procedures.
#
#######################################################################

data_QOZNAV
_symmetry_cell_setting           orthorhombic
_symmetry_space_group_name_H-M   'A m a 2'
_symmetry_Int_Tables_number      40
_space_group_name_Hall           'A 2 -2a'
loop_
_symmetry_equiv_pos_site_id
_symmetry_equiv_pos_as_xyz
1 x,y,z
2 -x,-y,z
3 1/2+x,-y,z
4 1/2-x,y,z
5 x,1/2+y,1/2+z
6 -x,1/2-y,1/2+z
7 1/2+x,1/2-y,1/2+z
8 1/2-x,1/2+y,1/2+z
_cell_length_a                   14.8053(6)
_cell_length_b                   9.9076(4)
_cell_length_c                   8.9399(3)
_cell_angle_alpha                90
_cell_angle_beta                 90
_cell_angle_gamma                90
_cell_volume                     1311.35
loop_
_atom_site_label
_atom_site_type_symbol
_atom_site_fract_x
_atom_site_fract_y
_atom_site_fract_z
C1 C 0.5000 0.5000 0.4096(5)
N1 N 0.5000 0.5000 0.5710(4)
H1 H 0.356(3) 0.551(3) 0.992(4)
H2 H 0.349(3) 0.593(4) 0.828(5)
Na1 Na 0.53217(7) 0.66673(11) 0.93125(14)
O1 O 0.51104(14) 0.60865(19) 0.6344(2)
O2 O 0.39064(12) 0.5518(2) 0.9107(3)
C2 C 0.7500 0.7692(4) 0.9481(5)
N2 N 0.48758(16) 0.3890(2) 0.3294(3)
N3 N 0.49226(17) 0.4332(2) 0.1885(3)
O3 O 0.67660(15) 0.6970(2) 0.7386(2)
N4 N 0.67415(15) 0.7960(2) 1.0215(3)
N5 N 0.7500 0.7166(4) 0.7978(4)
N6 N 0.70545(17) 0.8462(3) 1.1515(3)
H1A H 0.644(3) 0.449(3) 0.992(4)
H2A H 0.651(3) 0.407(4) 0.828(5)
Na1A Na 0.46783(7) 0.33327(11) 0.93125(14)
Na1D Na 0.53217(7) 0.16673(11) 0.43125(14)
Na1A_2 Na 0.46783(7) 0.33327(11) -0.06875(14)
Na1_2 Na 0.53217(7) 0.66673(11) -0.06875(14)
Na1E Na 0.46783(7) 0.83327(11) 0.43125(14)
Na1C Na 0.96783(7) 0.66673(11) 0.93125(14)
O1A O 0.48896(14) 0.39135(19) 0.6344(2)
O2A O 0.60936(12) 0.4482(2) 0.9107(3)
N2A N 0.51242(16) 0.6110(2) 0.3294(3)
N2D N 0.48758(16) 0.8890(2) 0.8294(3)
N2E N 0.51242(16) 0.1110(2) 0.8294(3)
N3A N 0.50774(17) 0.5668(2) 0.1885(3)
N3A_2 N 0.50774(17) 0.5668(2) 1.1885(3)
N3_2 N 0.49226(17) 0.4332(2) 1.1885(3)
O3C O 0.82340(15) 0.6970(2) 0.7386(2)
O3A O 0.32340(15) 0.3030(2) 0.7386(2)
N4C N 0.82585(15) 0.7960(2) 1.0215(3)
N4A N 0.32585(15) 0.2040(2) 1.0215(3)
N6C N 0.79455(17) 0.8462(3) 1.1515(3)
H3 H 0.2500 0.462(7) 0.491(8)
H4 H 0.314(3) 0.341(4) 0.414(7)
N7 N 0.2500 0.5078(4) 0.1532(5)
C3 C 0.2500 0.4509(5) 0.2648(6)
C4 C 0.2500 0.3802(5) 0.4079(6)
H4C H 0.186(3) 0.341(4) 0.414(7)
loop_
_geom_bond_atom_site_label_1
_geom_bond_atom_site_label_2
_geom_bond_site_symmetry_1
_geom_bond_site_symmetry_2
C1 N1 1_555 1_555
N1 O1 1_555 1_555
H1 O2 1_555 1_555
H2 O2 1_555 1_555
H3 C4 1_555 1_555
H4 C4 1_555 1_555
Na1 O1 1_555 1_555
O2 Na1 1_555 1_555
C2 N4 1_555 1_555
N2 C1 1_555 1_555
N3 N2 1_555 1_555
O3 Na1 1_555 1_555
N4 Na1 1_555 1_555
N5 C2 1_555 1_555
N6 N4 1_555 1_555
N7 C3 1_555 1_555
C3 C4 1_555 1_555
C4 H4C 1_555 1_555
H1A O2A 1_555 1_555
H2A O2A 1_555 1_555
Na1A O2 1_555 1_555
Na1D N2 1_555 1_555
Na1A_2 N3 1_555 1_555
Na1_2 N3A 1_555 1_555
Na1E N2A 1_555 1_555
Na1C O3C 1_555 1_555
O1A N1 1_555 1_555
O2A Na1 1_555 1_555
N2A C1 1_555 1_555
N2D Na1 1_555 1_555
N2E Na1A 1_555 1_555
N3A N3 1_555 1_555
N3A_2 Na1 1_555 1_555
N3_2 Na1A 1_555 1_555
O3C N5 1_555 1_555
O3A Na1A 1_555 1_555
N4C C2 1_555 1_555
N4A Na1A 1_555 1_555
N6C N6 1_555 1_555
O3 N5 1_555 1_555
Na1A O1A 1_555 1_555
Na1A O2A 1_555 1_555
Na1C N4C 1_555 1_555
N2A N3A 1_555 1_555
N3A_2 N3_2 1_555 1_555
N4C N6C 1_555 1_555

#END
