
#######################################################################
#
#                 Cambridge Crystallographic Data Centre
#                                CCDC 
#
#######################################################################
#
# If this CIF has been generated from an entry in the Cambridge 
# Structural Database, then it will include bibliographic, chemical, 
# crystal, experimental, refinement or atomic coordinate data resulting 
# from the CCDC's data processing and validation procedures.
#
#######################################################################

data_QOZRUU
_symmetry_cell_setting           monoclinic
_symmetry_space_group_name_H-M   'P 21/c'
_symmetry_Int_Tables_number      14
_space_group_name_Hall           '-P 2ybc'
loop_
_symmetry_equiv_pos_site_id
_symmetry_equiv_pos_as_xyz
1 x,y,z
2 -x,1/2+y,1/2-z
3 -x,-y,-z
4 x,1/2-y,1/2+z
_cell_length_a                   22.252(5)
_cell_length_b                   16.508(3)
_cell_length_c                   23.322(5)
_cell_angle_alpha                90
_cell_angle_beta                 117.44(3)
_cell_angle_gamma                90
_cell_volume                     7603.17
loop_
_atom_site_label
_atom_site_type_symbol
_atom_site_fract_x
_atom_site_fract_y
_atom_site_fract_z
Dy1 Dy 0.009019(16) 0.63314(2) 0.738437(16)
O1 O -0.0554(3) 1.0028(3) 0.7434(3)
O2 O -0.0046(3) 0.7369(3) 0.8022(2)
O3 O 0.0998(3) 0.8478(4) 0.8906(2)
O4 O 0.2462(3) 0.8880(4) 0.7903(3)
O5 O 0.0109(3) 0.5841(3) 0.8353(2)
O6 O 0.1204(3) 0.6454(3) 0.8185(2)
O7 O -0.1039(2) 0.5967(3) 0.7004(2)
O8 O -0.0254(3) 0.5699(3) 0.6371(2)
O9 O -0.0519(3) 0.7377(3) 0.6661(2)
O10 O 0.0765(3) 0.6820(3) 0.6935(2)
N1 N -0.0574(3) 0.9323(4) 0.7654(3)
N2 N -0.0337(3) 0.8063(4) 0.7918(3)
F1 F 0.0826(3) 0.5327(4) 0.9988(2)
F2 F -0.0021(3) 0.6127(3) 0.9490(3)
F3 F -0.1381(3) 0.4945(4) 0.4844(2)
F4 F -0.2273(2) 0.5780(3) 0.6896(2)
F5 F -0.2398(2) 0.6682(3) 0.6187(2)
F6 F -0.2684(2) 0.5456(3) 0.5896(2)
F7 F -0.0088(3) 0.4892(4) 0.9204(2)
F8 F -0.1670(2) 0.7909(3) 0.5678(2)
F9 F -0.1149(3) 0.8323(4) 0.5155(2)
F10 F -0.0326(3) 0.4742(4) 0.5387(2)
F11 F -0.1025(3) 0.8944(3) 0.6010(2)
F12 F 0.2582(3) 0.6792(4) 0.9396(4)
F13 F 0.2469(3) 0.6177(6) 0.8539(3)
F14 F 0.2584(3) 0.5522(4) 0.9353(3)
F15 F 0.1806(3) 0.7297(6) 0.6746(3)
F16 F 0.1165(3) 0.7737(5) 0.5826(4)
F17 F 0.1257(4) 0.6473(5) 0.6004(4)
C1 C -0.0103(4) 0.8746(5) 0.7788(4)
C2 C 0.1777(4) 0.8643(5) 0.8452(4)
H1 H 0.2152 0.8509 0.8838
C3 C 0.1855(4) 0.8857(5) 0.7913(4)
C4 C 0.0575(4) 0.5765(5) 0.8916(3)
C5 C -0.0485(4) 0.7668(5) 0.6175(3)
C6 C -0.1499(4) 0.5778(4) 0.6456(3)
C7 C 0.0568(4) 0.8828(5) 0.7823(3)
C8 C -0.1444(4) 0.5531(5) 0.5915(3)
H2 H -0.1831 0.5380 0.5544
F18 F -0.0704(4) 0.5933(4) 0.5015(3)
C9 C -0.0821(4) 0.5506(5) 0.5917(4)
C10 C 0.1295(4) 0.9071(5) 0.7333(4)
H3 H 0.1351 0.9224 0.6977
C11 C 0.0636(4) 0.7189(5) 0.6423(4)
C12 C -0.0679(5) 0.8190(6) 0.8756(4)
H4 H -0.0466 0.7680 0.8932
H5 H -0.1047 0.8276 0.8856
H6 H -0.0354 0.8619 0.8940
C13 C 0.1136(4) 0.8633(5) 0.8406(3)
C14 C 0.0326(4) 0.5524(6) 0.9404(4)
C15 C -0.0807(4) 0.5275(6) 0.5285(4)
C16 C -0.1084(4) 0.8213(5) 0.5747(4)
C17 C -0.2217(4) 0.5917(5) 0.6367(4)
C18 C 0.1268(4) 0.5876(6) 0.9138(4)
H7 H 0.1566 0.5743 0.9563
C19 C 0.0659(4) 0.9053(5) 0.7296(4)
H8 H 0.0285 0.9194 0.6910
C20 C -0.0949(4) 0.8182(5) 0.8024(4)
C21 C 0.1522(4) 0.6179(5) 0.8740(4)
C22 C 0.0040(4) 0.7592(5) 0.6012(4)
H9 H -0.0007 0.7811 0.5627
C23 C 0.1548(5) 0.8247(6) 0.9515(4)
H10 H 0.1766 0.7774 0.9457
H11 H 0.1378 0.8129 0.9816
H12 H 0.1870 0.8682 0.9679
C24 C -0.1195(4) 0.9016(5) 0.7687(4)
C25 C -0.1370(5) 0.9650(6) 0.8072(5)
H13 H -0.1734 0.9451 0.8146
H14 H -0.1506 1.0146 0.7831
H15 H -0.0979 0.9747 0.8479
C26 C -0.1757(4) 0.8972(6) 0.6991(4)
H16 H -0.1650 0.8560 0.6762
H17 H -0.1796 0.9485 0.6783
H18 H -0.2178 0.8843 0.6990
C27 C 0.2301(5) 0.6184(7) 0.9003(4)
C28 C -0.1439(4) 0.7489(5) 0.7735(5)
H19 H -0.1548 0.7428 0.7289
H20 H -0.1845 0.7599 0.7769
H21 H -0.1236 0.6998 0.7964
C29 C 0.3061(4) 0.8698(6) 0.8488(5)
H22 H 0.3452 0.8770 0.8421
H23 H 0.3042 0.8147 0.8611
H24 H 0.3090 0.9055 0.8825
C30 C 0.1221(5) 0.7184(6) 0.6246(4)
Dy1A Dy -0.009019(16) 1.13314(2) 0.761563(16)
O1A O 0.0554(3) 0.5028(3) 0.7566(3)
Dy2 Dy 0.488360(16) 0.32325(2) 0.752564(14)
O11 O 0.4912(3) 0.7151(3) 0.8027(2)
O12 O 0.4399(3) 0.4540(3) 0.7276(2)
O13 O 0.5927(3) 0.6038(4) 0.8885(2)
O14 O 0.7483(3) 0.5636(4) 0.7990(3)
O15 O 0.5117(2) 0.3912(3) 0.8497(2)
O16 O 0.6019(2) 0.3613(3) 0.7996(2)
O17 O 0.4940(3) 0.3700(3) 0.6594(2)
O18 O 0.3802(3) 0.3088(3) 0.6669(2)
O19 O 0.4159(3) 0.2739(4) 0.7916(2)
O20 O 0.5493(2) 0.2233(3) 0.8318(2)
N3 N 0.4610(3) 0.6458(4) 0.7873(3)
N4 N 0.4375(3) 0.5233(4) 0.7521(3)
F19 F 0.6620(2) 0.1834(3) 0.9395(2)
F20 F 0.6040(3) 0.1468(4) 0.9870(2)
F21 F 0.7374(2) 0.2875(3) 0.8916(3)
F22 F 0.5221(3) 0.4726(4) 0.5840(2)
F23 F 0.6014(3) 0.0751(3) 0.9096(3)
F24 F 0.4947(3) 0.4238(5) 0.9492(2)
F25 F 0.2500(3) 0.3839(5) 0.6048(5)
F26 F 0.4324(3) 0.4342(4) 0.4998(2)
F27 F 0.5828(4) 0.3543(4) 1.0023(3)
F28 F 0.7605(2) 0.4127(4) 0.9213(2)
F29 F 0.7296(2) 0.3783(3) 0.8229(2)
F30 F 0.5921(3) 0.4793(4) 0.9948(3)
F31 F 0.3099(3) 0.2267(5) 0.8080(3)
F32 F 0.3570(4) 0.3195(6) 0.8740(5)
F33 F 0.3727(3) 0.2006(6) 0.9059(4)
C31 C 0.5676(4) 0.5490(5) 0.7282(4)
C32 C 0.4867(4) 0.5798(4) 0.7724(3)
C33 C 0.4501(4) 0.3811(5) 0.6020(3)
C34 C 0.5658(4) 0.3995(5) 0.9004(3)
C35 C 0.7185(4) 0.3633(5) 0.8727(4)
C36 C 0.5422(4) 0.1990(5) 0.8799(3)
C37 C 0.6864(4) 0.5668(5) 0.7959(4)
H25 H 0.5318 0.5345 0.6887
C38 C 0.3979(4) 0.6287(5) 0.7931(4)
C39 C 0.6439(4) 0.3746(5) 0.8568(3)
F34 F 0.2522(3) 0.2596(4) 0.5909(3)
C40 C 0.3217(4) 0.5680(6) 0.6805(4)
H26 H 0.3378 0.6122 0.6645
H27 H 0.2787 0.5820 0.6779
H28 H 0.3167 0.5207 0.6548
C41 C 0.5547(4) 0.5724(5) 0.7793(3)
C42 C 0.6315(4) 0.3947(5) 0.9083(4)
H29 H 0.6678 0.4050 0.9486
C43 C 0.6092(4) 0.5882(5) 0.8398(3)
C44 C 0.3471(4) 0.4848(5) 0.7796(4)
H30 H 0.3339 0.4384 0.7516
H31 H 0.3087 0.5045 0.7838
H32 H 0.3824 0.4698 0.8213
C45 C 0.4794(5) 0.4099(6) 0.5581(4)
C46 C 0.6324(4) 0.5474(5) 0.7360(4)
H33 H 0.6405 0.5334 0.7015
F35 F 0.5144(4) 0.3516(4) 0.5485(3)
C47 C 0.6751(4) 0.5863(5) 0.8482(4)
H34 H 0.7113 0.5979 0.8883
C48 C 0.6032(4) 0.1525(5) 0.9299(4)
C49 C 0.3807(5) 0.3686(5) 0.5751(4)
H35 H 0.3533 0.3831 0.5323
C50 C 0.3510(4) 0.3348(5) 0.6107(4)
C51 C 0.4269(4) 0.2433(5) 0.8443(4)
C52 C 0.4864(4) 0.2087(5) 0.8908(4)
H36 H 0.4889 0.1918 0.9299
C53 C 0.3726(4) 0.5507(5) 0.7511(4)
C54 C 0.6463(5) 0.6253(6) 0.9506(4)
H37 H 0.6677 0.6741 0.9470
H38 H 0.6791 0.5823 0.9662
H39 H 0.6281 0.6337 0.9803
C55 C 0.4215(5) 0.6157(6) 0.8651(4)
H40 H 0.4532 0.5716 0.8802
H41 H 0.3833 0.6033 0.8721
H42 H 0.4430 0.6641 0.8883
C56 C 0.5576(4) 0.4160(5) 0.9615(3)
F36 F 0.2429(3) 0.3373(5) 0.5181(3)
C57 C 0.8061(4) 0.5825(6) 0.8581(5)
H43 H 0.8460 0.5794 0.8523
H44 H 0.8097 0.5445 0.8907
H45 H 0.8016 0.6363 0.8713
C58 C 0.3511(5) 0.7008(5) 0.7689(5)
H46 H 0.3724 0.7469 0.7957
H47 H 0.3096 0.6889 0.7702
H48 H 0.3417 0.7126 0.7252
C59 C 0.2740(5) 0.3306(6) 0.5804(4)
C60 C 0.3666(4) 0.2461(7) 0.8585(4)
Dy2A Dy 0.511640(16) 0.82325(2) 0.747436(14)
O11A O 0.5088(3) 0.2151(3) 0.6973(2)
loop_
_geom_bond_atom_site_label_1
_geom_bond_atom_site_label_2
_geom_bond_site_symmetry_1
_geom_bond_site_symmetry_2
Dy1 O2 1_555 1_555
O1 N1 1_555 1_555
O2 N2 1_555 1_555
O3 C13 1_555 1_555
O4 C3 1_555 1_555
O5 Dy1 1_555 1_555
O6 Dy1 1_555 1_555
O7 Dy1 1_555 1_555
O8 Dy1 1_555 1_555
O9 Dy1 1_555 1_555
O10 Dy1 1_555 1_555
N1 C1 1_555 1_555
N2 C1 1_555 1_555
F1 C14 1_555 1_555
F2 C14 1_555 1_555
F3 C15 1_555 1_555
F4 C17 1_555 1_555
F5 C17 1_555 1_555
F6 C17 1_555 1_555
F7 C14 1_555 1_555
F8 C16 1_555 1_555
F9 C16 1_555 1_555
F10 C15 1_555 1_555
F11 C16 1_555 1_555
F12 C27 1_555 1_555
F13 C27 1_555 1_555
F14 C27 1_555 1_555
F15 C30 1_555 1_555
F16 C30 1_555 1_555
F17 C30 1_555 1_555
C1 C7 1_555 1_555
C2 H1 1_555 1_555
C3 C2 1_555 1_555
C4 O5 1_555 1_555
C5 O9 1_555 1_555
C6 O7 1_555 1_555
C7 C13 1_555 1_555
C8 C6 1_555 1_555
H2 C8 1_555 1_555
F18 C15 1_555 1_555
C9 O8 1_555 1_555
C10 C3 1_555 1_555
H3 C10 1_555 1_555
C11 O10 1_555 1_555
C12 H4 1_555 1_555
H5 C12 1_555 1_555
H6 C12 1_555 1_555
C13 C2 1_555 1_555
C14 C4 1_555 1_555
C15 C9 1_555 1_555
C16 C5 1_555 1_555
C17 C6 1_555 1_555
C18 C4 1_555 1_555
H7 C18 1_555 1_555
C19 C7 1_555 1_555
H8 C19 1_555 1_555
C20 N2 1_555 1_555
C21 O6 1_555 1_555
C22 C5 1_555 1_555
H9 C22 1_555 1_555
C23 O3 1_555 1_555
H10 C23 1_555 1_555
H11 C23 1_555 1_555
H12 C23 1_555 1_555
C24 N1 1_555 1_555
C25 C24 1_555 1_555
H13 C25 1_555 1_555
H14 C25 1_555 1_555
H15 C25 1_555 1_555
C26 C24 1_555 1_555
H16 C26 1_555 1_555
H17 C26 1_555 1_555
H18 C26 1_555 1_555
C27 C21 1_555 1_555
C28 C20 1_555 1_555
H19 C28 1_555 1_555
H20 C28 1_555 1_555
H21 C28 1_555 1_555
C29 O4 1_555 1_555
H22 C29 1_555 1_555
H23 C29 1_555 1_555
H24 C29 1_555 1_555
C30 C11 1_555 1_555
Dy2 O12 1_555 1_555
O11 N3 1_555 1_555
O12 N4 1_555 1_555
O13 C43 1_555 1_555
O14 C37 1_555 1_555
O15 Dy2 1_555 1_555
O16 Dy2 1_555 1_555
O17 Dy2 1_555 1_555
O18 Dy2 1_555 1_555
O19 Dy2 1_555 1_555
O20 Dy2 1_555 1_555
N3 C32 1_555 1_555
N4 C32 1_555 1_555
F19 C48 1_555 1_555
F20 C48 1_555 1_555
F21 C35 1_555 1_555
F22 C45 1_555 1_555
F23 C48 1_555 1_555
F24 C56 1_555 1_555
F25 C59 1_555 1_555
F26 C45 1_555 1_555
F27 C56 1_555 1_555
F28 C35 1_555 1_555
F29 C35 1_555 1_555
F30 C56 1_555 1_555
F31 C60 1_555 1_555
F32 C60 1_555 1_555
F33 C60 1_555 1_555
C31 H25 1_555 1_555
C32 C41 1_555 1_555
C33 O17 1_555 1_555
C34 O15 1_555 1_555
C35 C39 1_555 1_555
C36 O20 1_555 1_555
C37 C46 1_555 1_555
C38 N3 1_555 1_555
C39 O16 1_555 1_555
F34 C59 1_555 1_555
C40 H26 1_555 1_555
H27 C40 1_555 1_555
H28 C40 1_555 1_555
C41 C31 1_555 1_555
C42 C34 1_555 1_555
H29 C42 1_555 1_555
C43 C41 1_555 1_555
C44 H30 1_555 1_555
H31 C44 1_555 1_555
H32 C44 1_555 1_555
C45 C33 1_555 1_555
C46 C31 1_555 1_555
H33 C46 1_555 1_555
F35 C45 1_555 1_555
C47 C37 1_555 1_555
H34 C47 1_555 1_555
C48 C36 1_555 1_555
C49 C33 1_555 1_555
H35 C49 1_555 1_555
C50 O18 1_555 1_555
C51 O19 1_555 1_555
C52 C36 1_555 1_555
H36 C52 1_555 1_555
C53 N4 1_555 1_555
C54 O13 1_555 1_555
H37 C54 1_555 1_555
H38 C54 1_555 1_555
H39 C54 1_555 1_555
C55 C38 1_555 1_555
H40 C55 1_555 1_555
H41 C55 1_555 1_555
H42 C55 1_555 1_555
C56 C34 1_555 1_555
F36 C59 1_555 1_555
C57 O14 1_555 1_555
H43 C57 1_555 1_555
H44 C57 1_555 1_555
H45 C57 1_555 1_555
C58 C38 1_555 1_555
H46 C58 1_555 1_555
H47 C58 1_555 1_555
H48 C58 1_555 1_555
C59 C50 1_555 1_555
C60 C51 1_555 1_555
Dy1A O1 1_555 1_555
O1A Dy1 1_555 1_555
Dy2A O11 1_555 1_555
O11A Dy2 1_555 1_555
C8 C9 1_555 1_555
C10 C19 1_555 1_555
C11 C22 1_555 1_555
C12 C20 1_555 1_555
C18 C21 1_555 1_555
C20 C24 1_555 1_555
C38 C53 1_555 1_555
C39 C42 1_555 1_555
C40 C53 1_555 1_555
C43 C47 1_555 1_555
C44 C53 1_555 1_555
C49 C50 1_555 1_555
C51 C52 1_555 1_555

#END
