
#######################################################################
#
#                 Cambridge Crystallographic Data Centre
#                                CCDC 
#
#######################################################################
#
# If this CIF has been generated from an entry in the Cambridge 
# Structural Database, then it will include bibliographic, chemical, 
# crystal, experimental, refinement or atomic coordinate data resulting 
# from the CCDC's data processing and validation procedures.
#
#######################################################################

data_QOZXEJ
_symmetry_cell_setting           monoclinic
_symmetry_space_group_name_H-M   'P 21/n'
_symmetry_Int_Tables_number      14
_space_group_name_Hall           '-P 2yn'
loop_
_symmetry_equiv_pos_site_id
_symmetry_equiv_pos_as_xyz
1 x,y,z
2 1/2-x,1/2+y,1/2-z
3 -x,-y,-z
4 1/2+x,1/2-y,1/2+z
_cell_length_a                   16.855(3)
_cell_length_b                   20.274(3)
_cell_length_c                   20.262(3)
_cell_angle_alpha                90
_cell_angle_beta                 107.2800(18)
_cell_angle_gamma                90
_cell_volume                     6611.38
loop_
_atom_site_label
_atom_site_type_symbol
_atom_site_fract_x
_atom_site_fract_y
_atom_site_fract_z
Ni1 Ni 0.45987(2) 0.074012(19) 0.715609(18)
Mn1 Mn 0.27321(3) 0.23674(2) 0.54859(2)
Mn2 Mn 0.64247(3) 0.24151(2) 0.87860(2)
O1 O 0.22982(13) 0.17716(10) 0.47289(10)
O2 O 0.35899(12) 0.26586(10) 0.51454(10)
O3 O 0.33856(12) 0.16350(10) 0.61722(10)
O4 O 0.58159(12) 0.16561(10) 0.81131(10)
O5 O 0.18713(12) 0.31633(10) 0.45427(10)
O6 O 0.05647(12) 0.23246(10) 0.41403(10)
N1 N 0.17973(16) 0.21623(14) 0.58621(13)
N2 N 0.28848(16) 0.31046(13) 0.61591(12)
N3 N 0.41700(15) 0.14151(12) 0.63730(12)
N4 N 0.56265(15) 0.08247(12) 0.67953(12)
N5 N 0.50672(15) 0.13815(12) 0.79669(12)
N6 N 0.36009(15) 0.08130(12) 0.75533(12)
N7 N 0.40697(16) -0.00188(12) 0.64598(12)
N8 N 0.50949(16) -0.01039(13) 0.77552(13)
N9 N 0.23520(15) 0.27675(12) 0.34019(12)
N10 N 0.12360(15) 0.18431(12) 0.31184(12)
C1 C 0.19274(19) 0.12024(15) 0.47857(15)
C2 C 0.19279(19) 0.06872(16) 0.43251(16)
C3 C 0.1487(2) 0.01077(17) 0.43279(17)
C4 C 0.1060(2) 0.00192(18) 0.48032(19)
C5 C 0.1054(2) 0.05095(18) 0.52674(19)
C6 C 0.14780(19) 0.11080(17) 0.52698(16)
C7 C 0.1391(2) 0.16151(17) 0.57387(17)
C8 C 0.1568(2) 0.26873(18) 0.62956(17)
C9 C 0.1175(2) 0.2386(2) 0.68205(19)
C10 C 0.0938(2) 0.31253(18) 0.57980(18)
C11 C 0.2398(2) 0.30505(18) 0.66722(16)
C12 C 0.2219(2) 0.37295(19) 0.69336(18)
C13 C 0.2947(2) 0.2646(2) 0.72872(17)
C14 C 0.3432(2) 0.35647(17) 0.62212(16)
C15 C 0.4002(2) 0.36423(17) 0.58339(17)
C16 C 0.4515(2) 0.42098(18) 0.5964(2)
C17 C 0.5082(2) 0.43196(19) 0.5616(2)
C18 C 0.5167(2) 0.38648(19) 0.5126(2)
C19 C 0.4667(2) 0.33105(18) 0.49758(18)
C20 C 0.40733(19) 0.31937(16) 0.53198(16)
C21 C 0.46701(19) 0.15397(15) 0.60136(15)
C22 C 0.54987(19) 0.12478(15) 0.62582(15)
C23 C 0.6133(2) 0.14121(16) 0.59732(16)
C24 C 0.6909(2) 0.11411(16) 0.62506(16)
C25 C 0.7047(2) 0.07105(16) 0.68039(16)
C26 C 0.63933(19) 0.05697(16) 0.70615(16)
C27 C 0.46064(19) 0.14689(16) 0.83674(15)
C28 C 0.37764(19) 0.11700(15) 0.81448(15)
C29 C 0.3195(2) 0.12694(17) 0.84957(17)
C30 C 0.2405(2) 0.10089(19) 0.82299(18)
C31 C 0.2215(2) 0.06539(18) 0.76143(18)
C32 C 0.2831(2) 0.05687(17) 0.73003(17)
C33 C 0.35394(19) 0.00315(16) 0.58247(15)
C34 C 0.3260(2) -0.05216(18) 0.54032(17)
C35 C 0.3522(2) -0.11339(17) 0.56413(17)
C36 C 0.4077(2) -0.12065(16) 0.63065(16)
C37 C 0.43287(19) -0.06281(15) 0.67006(15)
C38 C 0.4397(2) -0.18355(16) 0.65960(17)
C39 C 0.4924(2) -0.18749(16) 0.72412(17)
C40 C 0.51754(19) -0.12973(16) 0.76644(16)
C41 C 0.48800(18) -0.06785(15) 0.73904(15)
C42 C 0.5693(2) -0.13176(17) 0.83473(16)
C43 C 0.5901(2) -0.07432(17) 0.87129(17)
C44 C 0.5594(2) -0.01416(17) 0.83973(16)
C45 C 0.21874(18) 0.37496(15) 0.44461(15)
C46 C 0.21290(19) 0.42806(15) 0.48734(16)
C47 C 0.2480(2) 0.48846(16) 0.48130(17)
C48 C 0.2884(2) 0.49860(16) 0.43162(17)
C49 C 0.29584(19) 0.44708(16) 0.38939(17)
C50 C 0.26041(18) 0.38514(15) 0.39407(16)
C51 C 0.27324(18) 0.33246(16) 0.34995(16)
C52 C 0.25734(19) 0.22275(16) 0.29794(16)
C53 C 0.2981(2) 0.24969(16) 0.24523(16)
C54 C 0.32062(18) 0.17887(16) 0.34949(15)
C55 C 0.17417(19) 0.18610(15) 0.26125(14)
C56 C 0.1900(2) 0.11664(17) 0.23690(17)
C57 C 0.1204(2) 0.22579(17) 0.19931(16)
C58 C 0.06629(19) 0.14040(15) 0.30546(15)
C59 C 0.00545(19) 0.13796(15) 0.34195(15)
C60 C -0.0544(2) 0.08660(16) 0.32503(17)
C61 C -0.1175(2) 0.08360(17) 0.35504(17)
C62 C -0.1235(2) 0.13174(18) 0.40230(17)
C63 C -0.0651(2) 0.18099(17) 0.42106(16)
C64 C 0.00081(18) 0.18489(15) 0.39243(15)
H1 H 0.2236 0.0735 0.4004
H2 H 0.1481 -0.0228 0.4000
H3 H 0.0769 -0.0381 0.4810
H4 H 0.0757 0.0444 0.5594
H5 H 0.0996 0.1540 0.5981
H6 H 0.0577 0.2474 0.6674
H7 H 0.1429 0.2582 0.7276
H8 H 0.1270 0.1908 0.6846
H9 H 0.0612 0.3363 0.6049
H10 H 0.0567 0.2853 0.5436
H11 H 0.1228 0.3443 0.5587
H12 H 0.2012 0.4029 0.6540
H13 H 0.2732 0.3909 0.7249
H14 H 0.1801 0.3684 0.7178
H15 H 0.2865 0.2174 0.7184
H16 H 0.2791 0.2748 0.7705
H17 H 0.3532 0.2759 0.7362
H18 H 0.3456 0.3888 0.6566
H19 H 0.4464 0.4520 0.6301
H20 H 0.5418 0.4705 0.5707
H21 H 0.5572 0.3936 0.4892
H22 H 0.4728 0.3007 0.4637
H23 H 0.4507 0.1807 0.5611
H24 H 0.6029 0.1707 0.5593
H25 H 0.7347 0.1249 0.6064
H26 H 0.7578 0.0517 0.7001
H27 H 0.6489 0.0279 0.7445
H28 H 0.4795 0.1714 0.8784
H29 H 0.3337 0.1514 0.8915
H30 H 0.1998 0.1071 0.8464
H31 H 0.1676 0.0475 0.7416
H32 H 0.2703 0.0324 0.6882
H33 H 0.3345 0.0456 0.5652
H34 H 0.2888 -0.0468 0.4951
H35 H 0.3331 -0.1510 0.5359
H36 H 0.4236 -0.2226 0.6330
H37 H 0.5134 -0.2294 0.7421
H38 H 0.5898 -0.1728 0.8556
H39 H 0.6251 -0.0752 0.9177
H40 H 0.5749 0.0254 0.8654
H41 H 0.1844 0.4224 0.5210
H42 H 0.2444 0.5234 0.5115
H43 H 0.3107 0.5407 0.4267
H44 H 0.3254 0.4536 0.3566
H45 H 0.3133 0.3398 0.3262
H46 H 0.2565 0.2732 0.2086
H47 H 0.3430 0.2800 0.2683
H48 H 0.3208 0.2131 0.2250
H49 H 0.3040 0.1737 0.3916
H50 H 0.3226 0.1355 0.3287
H51 H 0.3757 0.1994 0.3610
H52 H 0.2397 0.1175 0.2212
H53 H 0.1984 0.0854 0.2753
H54 H 0.1420 0.1028 0.1987
H55 H 0.0620 0.2134 0.1903
H56 H 0.1270 0.2730 0.2098
H57 H 0.1381 0.2162 0.1584
H58 H 0.0643 0.1061 0.2731
H59 H -0.0508 0.0538 0.2925
H60 H -0.1569 0.0488 0.3436
H61 H -0.1683 0.1305 0.4217
H62 H -0.0695 0.2130 0.4540
Mn2C Mn 0.14247(3) 0.25849(2) 0.37860(2)
O1C O 0.72982(13) 0.32284(10) 0.97289(10)
O5C O 0.68713(12) 0.18367(10) 0.95427(10)
O6C O 0.55647(12) 0.26754(10) 0.91403(10)
N9C N 0.73520(15) 0.22325(12) 0.84019(12)
N10C N 0.62360(15) 0.31569(12) 0.81184(12)
P1 P 0.52500(6) 0.58721(5) 0.74471(5)
F1 F 0.57732(14) 0.51981(12) 0.75968(15)
F2 F 0.49284(13) 0.57307(11) 0.81030(11)
F3 F 0.60325(14) 0.62566(12) 0.79370(13)
F4 F 0.47317(14) 0.65347(10) 0.73043(11)
F5 F 0.55809(15) 0.60109(13) 0.67981(13)
F6 F 0.44757(12) 0.54776(11) 0.69697(11)
P2 P 0.25631(6) 0.70934(5) 0.49387(4)
F7 F 0.29152(15) 0.64192(11) 0.53173(11)
F8 F 0.34939(13) 0.73401(10) 0.50222(10)
F9 F 0.26020(14) 0.74177(11) 0.56675(10)
F10 F 0.22154(15) 0.77706(13) 0.45576(12)
F11 F 0.16327(13) 0.68553(12) 0.48537(10)
F12 F 0.25282(14) 0.67656(12) 0.42103(10)
O7 O 0.5618(4) 0.6707(5) 0.9138(4)
O8 O 0.5000 0.0000 0.5000
O9 O 0.5841(7) 0.0123(5) 1.0790(6)
O10? O 0.5217(12) -0.0141(14) 1.0190(7)
loop_
_geom_bond_atom_site_label_1
_geom_bond_atom_site_label_2
_geom_bond_site_symmetry_1
_geom_bond_site_symmetry_2
Ni1 N3 1_555 1_555
Mn1 O1 1_555 1_555
Mn2 O4 1_555 1_555
P1 F1 1_555 1_555
P2 F7 1_555 1_555
F2 P1 1_555 1_555
F3 P1 1_555 1_555
F4 P1 1_555 1_555
F5 P1 1_555 1_555
F6 P1 1_555 1_555
F8 P2 1_555 1_555
F9 P2 1_555 1_555
F10 P2 1_555 1_555
F11 P2 1_555 1_555
F12 P2 1_555 1_555
O1 C1 1_555 1_555
O2 Mn1 1_555 1_555
O3 Mn1 1_555 1_555
O4 N5 1_555 1_555
O5 Mn1 1_555 1_555
O6 C64 1_555 1_555
N1 Mn1 1_555 1_555
N2 Mn1 1_555 1_555
N3 O3 1_555 1_555
N4 Ni1 1_555 1_555
N5 Ni1 1_555 1_555
N6 Ni1 1_555 1_555
N7 Ni1 1_555 1_555
N8 Ni1 1_555 1_555
N9 C51 1_555 1_555
N10 C55 1_555 1_555
C1 C2 1_555 1_555
C2 C3 1_555 1_555
C3 C4 1_555 1_555
C4 C5 1_555 1_555
C5 C6 1_555 1_555
C6 C1 1_555 1_555
C7 N1 1_555 1_555
C8 N1 1_555 1_555
C9 C8 1_555 1_555
C10 C8 1_555 1_555
C11 N2 1_555 1_555
C12 C11 1_555 1_555
C13 C11 1_555 1_555
C14 N2 1_555 1_555
C15 C14 1_555 1_555
C16 C15 1_555 1_555
C17 C16 1_555 1_555
C18 C17 1_555 1_555
C19 C18 1_555 1_555
C20 O2 1_555 1_555
C21 N3 1_555 1_555
C22 N4 1_555 1_555
C23 C22 1_555 1_555
C24 C23 1_555 1_555
C25 C24 1_555 1_555
C26 N4 1_555 1_555
C27 N5 1_555 1_555
C28 N6 1_555 1_555
C29 C28 1_555 1_555
C30 C29 1_555 1_555
C31 C30 1_555 1_555
C32 N6 1_555 1_555
C33 N7 1_555 1_555
C34 C33 1_555 1_555
C35 C34 1_555 1_555
C36 C35 1_555 1_555
C37 N7 1_555 1_555
C38 C36 1_555 1_555
C39 C38 1_555 1_555
C40 C39 1_555 1_555
C41 N8 1_555 1_555
C42 C40 1_555 1_555
C43 C42 1_555 1_555
C44 N8 1_555 1_555
C45 O5 1_555 1_555
C46 C45 1_555 1_555
C47 C46 1_555 1_555
C48 C47 1_555 1_555
C49 C48 1_555 1_555
C50 C45 1_555 1_555
C51 C50 1_555 1_555
C52 N9 1_555 1_555
C53 C52 1_555 1_555
C54 C52 1_555 1_555
C55 C52 1_555 1_555
C56 C55 1_555 1_555
C57 C55 1_555 1_555
C58 N10 1_555 1_555
C59 C58 1_555 1_555
C60 C59 1_555 1_555
C61 C60 1_555 1_555
C62 C61 1_555 1_555
C63 C62 1_555 1_555
C64 C59 1_555 1_555
H1 C2 1_555 1_555
H2 C3 1_555 1_555
H3 C4 1_555 1_555
H4 C5 1_555 1_555
H5 C7 1_555 1_555
H6 C9 1_555 1_555
H7 C9 1_555 1_555
H8 C9 1_555 1_555
H9 C10 1_555 1_555
H10 C10 1_555 1_555
H11 C10 1_555 1_555
H12 C12 1_555 1_555
H13 C12 1_555 1_555
H14 C12 1_555 1_555
H15 C13 1_555 1_555
H16 C13 1_555 1_555
H17 C13 1_555 1_555
H18 C14 1_555 1_555
H19 C16 1_555 1_555
H20 C17 1_555 1_555
H21 C18 1_555 1_555
H22 C19 1_555 1_555
H23 C21 1_555 1_555
H24 C23 1_555 1_555
H25 C24 1_555 1_555
H26 C25 1_555 1_555
H27 C26 1_555 1_555
H28 C27 1_555 1_555
H29 C29 1_555 1_555
H30 C30 1_555 1_555
H31 C31 1_555 1_555
H32 C32 1_555 1_555
H33 C33 1_555 1_555
H34 C34 1_555 1_555
H35 C35 1_555 1_555
H36 C38 1_555 1_555
H37 C39 1_555 1_555
H38 C42 1_555 1_555
H39 C43 1_555 1_555
H40 C44 1_555 1_555
H41 C46 1_555 1_555
H42 C47 1_555 1_555
H43 C48 1_555 1_555
H44 C49 1_555 1_555
H45 C51 1_555 1_555
H46 C53 1_555 1_555
H47 C53 1_555 1_555
H48 C53 1_555 1_555
H49 C54 1_555 1_555
H50 C54 1_555 1_555
H51 C54 1_555 1_555
H52 C56 1_555 1_555
H53 C56 1_555 1_555
H54 C56 1_555 1_555
H55 C57 1_555 1_555
H56 C57 1_555 1_555
H57 C57 1_555 1_555
H58 C58 1_555 1_555
H59 C60 1_555 1_555
H60 C61 1_555 1_555
H61 C62 1_555 1_555
H62 C63 1_555 1_555
Mn2C O1 1_555 1_555
O1C Mn2 1_555 1_555
O5C Mn2 1_555 1_555
O6C Mn2 1_555 1_555
N9C Mn2 1_555 1_555
N10C Mn2 1_555 1_555
O5 Mn2C 1_555 1_555
O6 Mn2C 1_555 1_555
N9 Mn2C 1_555 1_555
N10 Mn2C 1_555 1_555
C6 C7 1_555 1_555
C8 C11 1_555 1_555
C15 C20 1_555 1_555
C19 C20 1_555 1_555
C21 C22 1_555 1_555
C25 C26 1_555 1_555
C27 C28 1_555 1_555
C31 C32 1_555 1_555
C36 C37 1_555 1_555
C37 C41 1_555 1_555
C40 C41 1_555 1_555
C43 C44 1_555 1_555
C49 C50 1_555 1_555
C63 C64 1_555 1_555

#END
