
#######################################################################
#
#                 Cambridge Crystallographic Data Centre
#                                CCDC 
#
#######################################################################
#
# If this CIF has been generated from an entry in the Cambridge 
# Structural Database, then it will include bibliographic, chemical, 
# crystal, experimental, refinement or atomic coordinate data resulting 
# from the CCDC's data processing and validation procedures.
#
#######################################################################

data_QOZXAF
_symmetry_cell_setting           monoclinic
_symmetry_space_group_name_H-M   'P 21/n'
_symmetry_Int_Tables_number      14
_space_group_name_Hall           '-P 2yn'
loop_
_symmetry_equiv_pos_site_id
_symmetry_equiv_pos_as_xyz
1 x,y,z
2 1/2-x,1/2+y,1/2-z
3 -x,-y,-z
4 1/2+x,1/2-y,1/2+z
_cell_length_a                   16.810(4)
_cell_length_b                   20.638(4)
_cell_length_c                   19.855(4)
_cell_angle_alpha                90
_cell_angle_beta                 106.504(3)
_cell_angle_gamma                90
_cell_volume                     6604.4
loop_
_atom_site_label
_atom_site_type_symbol
_atom_site_fract_x
_atom_site_fract_y
_atom_site_fract_z
Ni1 Ni 0.04289(5) 0.07100(4) 0.28104(4)
Mn1 Mn -0.14069(5) 0.23258(5) 0.11329(5)
Mn2 Mn 0.22587(6) 0.24237(5) 0.43703(5)
O1 O -0.1867(2) 0.1752(2) 0.0374(2)
O2 O -0.0553(2) 0.2571(2) 0.0752(2)
O3 O -0.0781(2) 0.1592(2) 0.1815(2)
O4 O 0.1616(2) 0.1684(2) 0.3710(2)
O5 O -0.2297(2) 0.3138(2) 0.0145(2)
O6 O -0.3586(2) 0.2286(2) -0.0264(2)
N1 N -0.2341(3) 0.2170(2) 0.1539(2)
N2 N -0.1222(3) 0.3073(2) 0.1797(2)
N3 N -0.0021(2) 0.1325(2) 0.1974(2)
N4 N 0.1428(2) 0.0767(2) 0.2409(2)
N5 N 0.0859(2) 0.1414(2) 0.3562(2)
N6 N -0.0590(3) 0.0814(2) 0.3197(2)
N7 N -0.0068(3) -0.0134(2) 0.2235(2)
N8 N 0.0931(3) -0.0021(2) 0.3533(2)
N9 N -0.1790(3) 0.2755(2) -0.1011(2)
N10 N -0.2904(3) 0.1857(2) -0.1321(2)
C1 C -0.2190(3) 0.1182(3) 0.0478(3)
C2 C -0.2155(3) 0.0658(3) 0.0047(3)
C3 C -0.2522(3) 0.0066(3) 0.0110(3)
C4 C -0.2929(4) -0.0026(3) 0.0633(4)
C5 C -0.2965(3) 0.0491(3) 0.1051(3)
C6 C -0.2617(3) 0.1101(3) 0.0996(3)
C7 C -0.2730(3) 0.1618(3) 0.1447(3)
C8 C -0.2563(3) 0.2709(3) 0.1959(3)
C9 C -0.2967(4) 0.2448(3) 0.2518(3)
C10 C -0.3189(3) 0.3132(3) 0.1438(3)
C11 C -0.1720(3) 0.3049(3) 0.2325(3)
C12 C -0.1870(4) 0.3744(3) 0.2566(3)
C13 C -0.1193(4) 0.2668(3) 0.2946(3)
C14 C -0.0667(4) 0.3513(3) 0.1830(3)
C15 C -0.0075(3) 0.3535(3) 0.1441(3)
C16 C 0.0496(3) 0.4050(3) 0.1588(4)
C17 C 0.1120(4) 0.4088(3) 0.1259(4)
C18 C 0.1187(4) 0.3610(3) 0.0785(4)
C19 C 0.0630(3) 0.3101(3) 0.0621(3)
C20 C -0.0010(3) 0.3061(3) 0.0950(3)
C21 C 0.0463(3) 0.1416(3) 0.1587(3)
C22 C 0.1287(3) 0.1121(3) 0.1826(3)
C23 C 0.1892(4) 0.1223(3) 0.1478(4)
C24 C 0.2667(4) 0.0967(3) 0.1763(4)
C25 C 0.2830(3) 0.0614(3) 0.2372(3)
C26 C 0.2192(3) 0.0524(3) 0.2675(3)
C27 C 0.0354(3) 0.1545(3) 0.3931(3)
C28 C -0.0452(3) 0.1243(3) 0.3728(3)
C29 C -0.1072(3) 0.1407(3) 0.4044(3)
C30 C -0.1857(4) 0.1126(3) 0.3779(3)
C31 C -0.1990(4) 0.0690(3) 0.3230(3)
C32 C -0.1341(3) 0.0551(3) 0.2954(3)
C33 C -0.0587(3) -0.0159(3) 0.1588(3)
C34 C -0.0927(4) -0.0738(3) 0.1284(4)
C35 C -0.0781(4) -0.1297(3) 0.1662(4)
C36 C -0.0273(3) -0.1277(3) 0.2341(3)
C37 C 0.0108(3) -0.0697(3) 0.2612(3)
C38 C 0.0700(4) -0.0632(3) 0.3318(3)
C39 C 0.1008(4) -0.1158(3) 0.3733(4)
C40 C 0.1571(4) -0.1079(3) 0.4389(3)
C41 C 0.1789(4) -0.0460(3) 0.4606(4)
C42 C 0.1482(3) 0.0047(3) 0.4167(3)
C43 C -0.1920(3) 0.3695(3) 0.0097(3)
C44 C -0.1929(4) 0.4203(3) 0.0559(3)
C45 C -0.1475(4) 0.4758(3) 0.0569(4)
C46 C -0.1024(4) 0.4845(3) 0.0091(4)
C47 C -0.1022(4) 0.4362(3) -0.0381(4)
C48 C -0.1463(3) 0.3782(3) -0.0400(3)
C49 C -0.1377(3) 0.3296(3) -0.0881(3)
C50 C -0.1578(4) 0.2243(3) -0.1463(3)
C51 C -0.1149(4) 0.2512(3) -0.1985(4)
C52 C -0.0960(4) 0.1794(3) -0.0943(3)
C53 C -0.2419(4) 0.1897(3) -0.1846(3)
C54 C -0.2935(4) 0.2319(3) -0.2449(3)
C55 C -0.2251(4) 0.1231(3) -0.2122(4)
C56 C -0.3436(3) 0.1402(3) -0.1371(3)
C57 C -0.4001(3) 0.1321(3) -0.0950(3)
C58 C -0.4514(4) 0.0770(3) -0.1081(4)
C59 C -0.5072(4) 0.0652(4) -0.0703(5)
C60 C -0.5126(4) 0.1085(4) -0.0191(4)
C61 C -0.4629(4) 0.1638(3) -0.0051(4)
C62 C -0.4057(3) 0.1750(3) -0.0424(3)
H1 H -0.1870 0.0706 -0.0301
H2 H -0.2499 -0.0278 -0.0202
H3 H -0.3168 -0.0431 0.0692
H4 H -0.3243 0.0435 0.1402
H5 H -0.3125 0.1550 0.1700
H6 H -0.3507 0.2288 0.2291
H7 H -0.3006 0.2789 0.2829
H8 H -0.2636 0.2108 0.2777
H9 H -0.3725 0.2943 0.1342
H10 H -0.3035 0.3166 0.1015
H11 H -0.3197 0.3552 0.1633
H12 H -0.2044 0.4019 0.2167
H13 H -0.1371 0.3906 0.2875
H14 H -0.2289 0.3730 0.2802
H15 H -0.1250 0.2218 0.2845
H16 H -0.1370 0.2759 0.3350
H17 H -0.0627 0.2790 0.3032
H18 H -0.0653 0.3860 0.2147
H19 H 0.0454 0.4374 0.1915
H20 H 0.1500 0.4440 0.1357
H21 H 0.1623 0.3634 0.0570
H22 H 0.0679 0.2782 0.0290
H23 H 0.0295 0.1662 0.1166
H24 H 0.1768 0.1464 0.1053
H25 H 0.3091 0.1034 0.1540
H26 H 0.3364 0.0436 0.2580
H27 H 0.2301 0.0276 0.3094
H28 H 0.0510 0.1830 0.4322
H29 H -0.0962 0.1701 0.4428
H30 H -0.2294 0.1233 0.3976
H31 H -0.2516 0.0491 0.3045
H32 H -0.1435 0.0254 0.2574
H33 H -0.0728 0.0232 0.1327
H34 H -0.1263 -0.0745 0.0810
H35 H -0.1024 -0.1693 0.1462
H36 H -0.0182 -0.1657 0.2623
H37 H 0.0833 -0.1582 0.3568
H38 H 0.1797 -0.1441 0.4676
H39 H 0.2153 -0.0382 0.5060
H40 H 0.1669 0.0471 0.4319
H41 H -0.2257 0.4163 0.0875
H42 H -0.1470 0.5085 0.0907
H43 H -0.0721 0.5234 0.0090
H44 H -0.0711 0.4421 -0.0707
H45 H -0.0982 0.3374 -0.1131
H46 H -0.0605 0.2650 -0.1740
H47 H -0.1119 0.2184 -0.2313
H48 H -0.1457 0.2870 -0.2227
H49 H -0.0423 0.1985 -0.0818
H50 H -0.1136 0.1737 -0.0533
H51 H -0.0940 0.1385 -0.1158
H52 H -0.2852 0.2763 -0.2323
H53 H -0.2766 0.2240 -0.2860
H54 H -0.3506 0.2214 -0.2538
H55 H -0.2760 0.1045 -0.2390
H56 H -0.1890 0.1281 -0.2411
H57 H -0.1998 0.0956 -0.1738
H58 H -0.3462 0.1084 -0.1723
H59 H -0.4476 0.0473 -0.1437
H60 H -0.5414 0.0278 -0.0795
H61 H -0.5508 0.1006 0.0072
H62 H -0.4681 0.1937 0.0298
Mn2C Mn -0.27413(6) 0.25763(5) -0.06297(5)
O1C O 0.3133(2) 0.3248(2) 0.5374(2)
O5C O 0.2703(2) 0.1862(2) 0.5145(2)
O6C O 0.1414(2) 0.2714(2) 0.4736(2)
N9C N 0.3210(3) 0.2245(2) 0.3989(2)
N10C N 0.2096(3) 0.3143(2) 0.3679(2)
P1 P 0.26605(12) 0.20990(9) -0.00606(10)
F1 F 0.2661(2) 0.1777(2) -0.0791(2)
F2 F 0.2256(2) 0.2738(2) -0.0458(2)
F3 F 0.1758(2) 0.1811(2) -0.0131(2)
F4 F 0.2669(2) 0.2420(2) 0.0678(2)
F5 F 0.3078(2) 0.1461(2) 0.0341(2)
F6 F 0.3565(2) 0.2399(2) 0.0016(2)
P2 P 0.53824(11) 0.07961(10) 0.26535(11)
F7 F 0.5797(3) 0.0965(2) 0.2045(3)
F8 F 0.4591(2) 0.0540(3) 0.2075(2)
F9 F 0.4955(3) 0.1488(2) 0.2574(3)
F10 F 0.4965(2) 0.0644(2) 0.3251(2)
F11 F 0.6169(2) 0.1059(2) 0.3223(3)
F12 F 0.5787(3) 0.0101(2) 0.2707(2)
O7 O 0.4768(3) 0.2362(2) 0.1444(3)
loop_
_geom_bond_atom_site_label_1
_geom_bond_atom_site_label_2
_geom_bond_site_symmetry_1
_geom_bond_site_symmetry_2
Ni1 N3 1_555 1_555
Mn1 O1 1_555 1_555
Mn2 O4 1_555 1_555
P1 F1 1_555 1_555
P2 F7 1_555 1_555
F2 P1 1_555 1_555
F3 P1 1_555 1_555
F4 P1 1_555 1_555
F5 P1 1_555 1_555
F6 P1 1_555 1_555
F8 P2 1_555 1_555
F9 P2 1_555 1_555
F10 P2 1_555 1_555
F11 P2 1_555 1_555
F12 P2 1_555 1_555
O1 C1 1_555 1_555
O2 Mn1 1_555 1_555
O3 Mn1 1_555 1_555
O4 N5 1_555 1_555
O5 Mn1 1_555 1_555
O6 C62 1_555 1_555
N1 Mn1 1_555 1_555
N2 Mn1 1_555 1_555
N3 O3 1_555 1_555
N4 Ni1 1_555 1_555
N5 Ni1 1_555 1_555
N6 Ni1 1_555 1_555
N7 Ni1 1_555 1_555
N8 Ni1 1_555 1_555
N9 C49 1_555 1_555
N10 C53 1_555 1_555
C1 C2 1_555 1_555
C2 C3 1_555 1_555
C3 C4 1_555 1_555
C4 C5 1_555 1_555
C5 C6 1_555 1_555
C6 C1 1_555 1_555
C7 N1 1_555 1_555
C8 N1 1_555 1_555
C9 C8 1_555 1_555
C10 C8 1_555 1_555
C11 N2 1_555 1_555
C12 C11 1_555 1_555
C13 C11 1_555 1_555
C14 N2 1_555 1_555
C15 C14 1_555 1_555
C16 C15 1_555 1_555
C17 C16 1_555 1_555
C18 C17 1_555 1_555
C19 C18 1_555 1_555
C20 O2 1_555 1_555
C21 N3 1_555 1_555
C22 N4 1_555 1_555
C23 C22 1_555 1_555
C24 C23 1_555 1_555
C25 C24 1_555 1_555
C26 N4 1_555 1_555
C27 N5 1_555 1_555
C28 N6 1_555 1_555
C29 C28 1_555 1_555
C30 C29 1_555 1_555
C31 C30 1_555 1_555
C32 N6 1_555 1_555
C33 N7 1_555 1_555
C34 C33 1_555 1_555
C35 C34 1_555 1_555
C36 C35 1_555 1_555
C37 N7 1_555 1_555
C38 N8 1_555 1_555
C39 C38 1_555 1_555
C40 C39 1_555 1_555
C41 C40 1_555 1_555
C42 N8 1_555 1_555
C43 O5 1_555 1_555
C44 C43 1_555 1_555
C45 C44 1_555 1_555
C46 C45 1_555 1_555
C47 C46 1_555 1_555
C48 C43 1_555 1_555
C49 C48 1_555 1_555
C50 N9 1_555 1_555
C51 C50 1_555 1_555
C52 C50 1_555 1_555
C53 C50 1_555 1_555
C54 C53 1_555 1_555
C55 C53 1_555 1_555
C56 N10 1_555 1_555
C57 C56 1_555 1_555
C58 C57 1_555 1_555
C59 C58 1_555 1_555
C60 C59 1_555 1_555
C61 C60 1_555 1_555
C62 C57 1_555 1_555
H1 C2 1_555 1_555
H2 C3 1_555 1_555
H3 C4 1_555 1_555
H4 C5 1_555 1_555
H5 C7 1_555 1_555
H6 C9 1_555 1_555
H7 C9 1_555 1_555
H8 C9 1_555 1_555
H9 C10 1_555 1_555
H10 C10 1_555 1_555
H11 C10 1_555 1_555
H12 C12 1_555 1_555
H13 C12 1_555 1_555
H14 C12 1_555 1_555
H15 C13 1_555 1_555
H16 C13 1_555 1_555
H17 C13 1_555 1_555
H18 C14 1_555 1_555
H19 C16 1_555 1_555
H20 C17 1_555 1_555
H21 C18 1_555 1_555
H22 C19 1_555 1_555
H23 C21 1_555 1_555
H24 C23 1_555 1_555
H25 C24 1_555 1_555
H26 C25 1_555 1_555
H27 C26 1_555 1_555
H28 C27 1_555 1_555
H29 C29 1_555 1_555
H30 C30 1_555 1_555
H31 C31 1_555 1_555
H32 C32 1_555 1_555
H33 C33 1_555 1_555
H34 C34 1_555 1_555
H35 C35 1_555 1_555
H36 C36 1_555 1_555
H37 C39 1_555 1_555
H38 C40 1_555 1_555
H39 C41 1_555 1_555
H40 C42 1_555 1_555
H41 C44 1_555 1_555
H42 C45 1_555 1_555
H43 C46 1_555 1_555
H44 C47 1_555 1_555
H45 C49 1_555 1_555
H46 C51 1_555 1_555
H47 C51 1_555 1_555
H48 C51 1_555 1_555
H49 C52 1_555 1_555
H50 C52 1_555 1_555
H51 C52 1_555 1_555
H52 C54 1_555 1_555
H53 C54 1_555 1_555
H54 C54 1_555 1_555
H55 C55 1_555 1_555
H56 C55 1_555 1_555
H57 C55 1_555 1_555
H58 C56 1_555 1_555
H59 C58 1_555 1_555
H60 C59 1_555 1_555
H61 C60 1_555 1_555
H62 C61 1_555 1_555
Mn2C O1 1_555 1_555
O1C Mn2 1_555 1_555
O5C Mn2 1_555 1_555
O6C Mn2 1_555 1_555
N9C Mn2 1_555 1_555
N10C Mn2 1_555 1_555
O5 Mn2C 1_555 1_555
O6 Mn2C 1_555 1_555
N9 Mn2C 1_555 1_555
N10 Mn2C 1_555 1_555
C6 C7 1_555 1_555
C8 C11 1_555 1_555
C15 C20 1_555 1_555
C19 C20 1_555 1_555
C21 C22 1_555 1_555
C25 C26 1_555 1_555
C27 C28 1_555 1_555
C31 C32 1_555 1_555
C36 C37 1_555 1_555
C37 C38 1_555 1_555
C41 C42 1_555 1_555
C47 C48 1_555 1_555
C61 C62 1_555 1_555

#END
