
#######################################################################
#
#                 Cambridge Crystallographic Data Centre
#                                CCDC 
#
#######################################################################
#
# If this CIF has been generated from an entry in the Cambridge 
# Structural Database, then it will include bibliographic, chemical, 
# crystal, experimental, refinement or atomic coordinate data resulting 
# from the CCDC's data processing and validation procedures.
#
#######################################################################

data_QQQBNA11
_symmetry_cell_setting           monoclinic
_symmetry_space_group_name_H-M   'P 21/n'
_symmetry_Int_Tables_number      14
_space_group_name_Hall           '-P 2yn'
loop_
_symmetry_equiv_pos_site_id
_symmetry_equiv_pos_as_xyz
1 x,y,z
2 1/2-x,1/2+y,1/2-z
3 -x,-y,-z
4 1/2+x,1/2-y,1/2+z
_cell_length_a                   5.7314(5)
_cell_length_b                   18.0329(16)
_cell_length_c                   6.5770(6)
_cell_angle_alpha                90
_cell_angle_beta                 98.045(2)
_cell_angle_gamma                90
_cell_volume                     673.068
loop_
_atom_site_label
_atom_site_type_symbol
_atom_site_fract_x
_atom_site_fract_y
_atom_site_fract_z
Ba1 Ba 0.22930(4) 0.084846(11) 0.37913(3)
C1 C 0.5652(7) 0.2366(2) 0.6465(6)
O1 O 0.5638(6) 0.16909(16) 0.6061(5)
O2 O 0.1440(5) 0.22699(18) 0.6241(5)
H1 H 0.0201 0.2477 0.6497
C2 C 0.3219(7) 0.2735(2) 0.6620(6)
O3 O -0.0838(5) 0.06471(17) 0.6549(4)
H2 H -0.192(9) 0.097(3) 0.648(8)
H3 H -0.025(14) 0.056(5) 0.776(5)
O4 O 0.7395(5) 0.27898(17) 0.6775(5)
O5 O 0.5817(5) -0.00303(16) 0.2670(4)
C3 C 0.5971(7) -0.0164(2) 0.0828(5)
O6 O 0.3074(6) 0.33861(17) 0.7075(5)
O7 O 0.7592(5) -0.05261(19) 0.0183(4)
Ba1C Ba -0.27070(4) 0.415154(11) -0.12087(3)
Ba1B Ba -0.22930(4) -0.084846(11) 0.62087(3)
Ba1C_2 Ba 0.72930(4) 0.415154(11) 0.87913(3)
Ba1B_2 Ba 0.77070(4) -0.084846(11) 0.62087(3)
Ba1B_3 Ba 0.77070(4) -0.084846(11) -0.37913(3)
Ba1_2 Ba 0.22930(4) 0.084846(11) -0.62087(3)
C1C C 0.0652(7) 0.2634(2) 0.1465(6)
O1C O 0.0638(6) 0.33091(16) 0.1061(5)
O2C O -0.3560(5) 0.27301(18) 0.1241(5)
H1C H -0.4799 0.2523 0.1497
C2C C -0.1781(7) 0.2265(2) 0.1620(6)
O3B O 0.0838(5) -0.06471(17) 0.3451(4)
O3C O -0.5838(5) 0.43529(17) 0.1549(4)
O3A O -0.4162(5) 0.56471(17) -0.1549(4)
H2B H 0.192(9) -0.097(3) 0.352(8)
H2C H -0.692(9) 0.403(3) 0.148(8)
H2A H -0.308(9) 0.597(3) -0.148(8)
H3B H 0.025(14) -0.056(5) 0.224(5)
H3C H -0.525(14) 0.444(5) 0.276(5)
H3A H -0.475(14) 0.556(5) -0.276(5)
O4C O 0.2395(5) 0.22102(17) 0.1775(5)
O4_2 O -0.2605(5) 0.27898(17) -0.3225(5)
O5B O 0.4183(5) 0.00303(16) -0.2670(4)
O5B_2 O 0.4183(5) 0.00303(16) 0.7330(4)
O5C O 0.0817(5) 0.50303(16) -0.2330(4)
O5A O -0.0817(5) 0.49697(16) 0.2330(4)
C3B C 0.4029(7) 0.0164(2) -0.0828(5)
O6C O -0.1926(6) 0.16139(17) 0.2075(5)
O6_2 O -0.6926(6) 0.33861(17) -0.2925(5)
O7B O 0.2408(5) 0.05261(19) -0.0183(4)
O7A O -0.2592(5) 0.44739(19) -0.5183(4)
loop_
_geom_bond_atom_site_label_1
_geom_bond_atom_site_label_2
_geom_bond_site_symmetry_1
_geom_bond_site_symmetry_2
Ba1 O1 1_555 1_555
C1 O1 1_555 1_555
O2 Ba1 1_555 1_555
H1 O2 1_555 1_555
C2 C1 1_555 1_555
O3 Ba1 1_555 1_555
H2 O3 1_555 1_555
H3 O3 1_555 1_555
O4 C1 1_555 1_555
O5 Ba1 1_555 1_555
C3 O5 1_555 1_555
O6 C2 1_555 1_555
O7 C3 1_555 1_555
Ba1C O1C 1_555 1_555
Ba1B O3 1_555 1_555
Ba1C_2 O4 1_555 1_555
Ba1B_2 O5 1_555 1_555
Ba1B_3 O7 1_555 1_555
Ba1_2 O5B 1_555 1_555
C1C O1C 1_555 1_555
O2C Ba1C 1_555 1_555
H1C O2C 1_555 1_555
C2C C1C 1_555 1_555
O3B Ba1 1_555 1_555
O3C Ba1C 1_555 1_555
O3A Ba1C 1_555 1_555
H2B O3B 1_555 1_555
H2C O3C 1_555 1_555
H2A O3A 1_555 1_555
H3B O3B 1_555 1_555
H3C O3C 1_555 1_555
H3A O3A 1_555 1_555
O4C Ba1 1_555 1_555
O4_2 Ba1C 1_555 1_555
O5B Ba1B_3 1_555 1_555
O5B_2 Ba1 1_555 1_555
O5C Ba1C 1_555 1_555
O5A Ba1C 1_555 1_555
C3B C3 1_555 1_555
O6C Ba1 1_555 1_555
O6_2 Ba1C 1_555 1_555
O7B Ba1 1_555 1_555
O7A Ba1C 1_555 1_555
O2 C2 1_555 1_555
O6 Ba1C_2 1_555 1_555
Ba1B O3B 1_555 1_555
Ba1B_2 O5B_2 1_555 1_555
C1C O4C 1_555 1_555
O2C C2C 1_555 1_555
C2C O6C 1_555 1_555
O5B C3B 1_555 1_555
C3B O7B 1_555 1_555

#END
