
#######################################################################
#
#                 Cambridge Crystallographic Data Centre
#                                CCDC 
#
#######################################################################
#
# If this CIF has been generated from an entry in the Cambridge 
# Structural Database, then it will include bibliographic, chemical, 
# crystal, experimental, refinement or atomic coordinate data resulting 
# from the CCDC's data processing and validation procedures.
#
#######################################################################

data_QQQBNS06
_symmetry_cell_setting           monoclinic
_symmetry_space_group_name_H-M   'C 2/c'
_symmetry_Int_Tables_number      15
_space_group_name_Hall           '-C 2yn'
loop_
_symmetry_equiv_pos_site_id
_symmetry_equiv_pos_as_xyz
1 x,y,z
2 1/2+x,1/2+y,z
3 x,-y,1/2+z
4 1/2+x,1/2-y,1/2+z
5 -x,-y,-z
6 1/2-x,1/2-y,-z
7 -x,y,1/2-z
8 1/2-x,1/2+y,1/2-z
_cell_length_a                   11.707(2)
_cell_length_b                   5.4487(10)
_cell_length_c                   9.6477(19)
_cell_angle_alpha                90
_cell_angle_beta                 126.155(8)
_cell_angle_gamma                90
_cell_volume                     496.894
loop_
_atom_site_label
_atom_site_type_symbol
_atom_site_fract_x
_atom_site_fract_y
_atom_site_fract_z
Co1 Co 0.5000 0.07229(10) 0.7500
O1 O 0.4127(2) 0.3672(4) 0.5768(3)
O2 O 0.4122(2) 0.7782(4) 0.5769(3)
O3 O 0.3249(2) 0.0646(4) 0.7572(3)
C1 C 0.4487(3) 0.5748(5) 0.6492(4)
H1 H 0.235(3) 0.111(9) 0.650(4)
H2 H 0.339(6) 0.136(10) 0.859(4)
C1F C 0.5513(3) 0.5748(5) 0.8508(4)
O1F O 0.5873(2) 0.3672(4) 0.9232(3)
O2F O 0.5878(2) 0.7782(4) 0.9231(3)
O3F O 0.6751(2) 0.0646(4) 0.7428(3)
H1F H 0.765(3) 0.111(9) 0.850(4)
H2F H 0.661(6) 0.136(10) 0.641(4)
O2_2 O 0.4122(2) -0.2218(4) 0.5769(3)
O2F_2 O 0.5878(2) -0.2218(4) 0.9231(3)
Co1_2 Co 0.5000 1.07229(10) 0.7500
loop_
_geom_bond_atom_site_label_1
_geom_bond_atom_site_label_2
_geom_bond_site_symmetry_1
_geom_bond_site_symmetry_2
Co1 O1 1_555 1_555
O1 C1 1_555 1_555
O2 C1 1_555 1_555
O3 Co1 1_555 1_555
C1 C1F 1_555 1_555
H1 O3 1_555 1_555
H2 O3 1_555 1_555
C1F O1F 1_555 1_555
O1F Co1 1_555 1_555
O2F C1F 1_555 1_555
O3F Co1 1_555 1_555
H1F O3F 1_555 1_555
H2F O3F 1_555 1_555
O2_2 Co1 1_555 1_555
O2F_2 Co1 1_555 1_555
Co1_2 O2 1_555 1_555
O2F Co1_2 1_555 1_555

#END
