
#######################################################################
#
#                 Cambridge Crystallographic Data Centre
#                                CCDC 
#
#######################################################################
#
# If this CIF has been generated from an entry in the Cambridge 
# Structural Database, then it will include bibliographic, chemical, 
# crystal, experimental, refinement or atomic coordinate data resulting 
# from the CCDC's data processing and validation procedures.
#
#######################################################################

data_QQQBDJ04
_symmetry_cell_setting           orthorhombic
_symmetry_space_group_name_H-M   'F d d d'
_symmetry_Int_Tables_number      70
_space_group_name_Hall           '-F 2uv 2vw'
loop_
_symmetry_equiv_pos_site_id
_symmetry_equiv_pos_as_xyz
1 x,y,z
2 x,1/2+y,1/2+z
3 x,1/4-y,1/4-z
4 1/2+x,y,1/2+z
5 1/4-x,y,1/4-z
6 1/2+x,1/2+y,z
7 1/4-x,1/4-y,z
8 3/4-x,3/4-y,z
9 3/4-x,y,3/4-z
10 x,3/4-y,3/4-z
11 3/4-x,1/4-y,1/2+z
12 3/4-x,1/2+y,1/4-z
13 1/4-x,3/4-y,1/2+z
14 1/2+x,3/4-y,1/4-z
15 1/4-x,1/2+y,3/4-z
16 1/2+x,1/4-y,3/4-z
17 -x,-y,-z
18 -x,1/2-y,1/2-z
19 -x,3/4+y,3/4+z
20 1/2-x,-y,1/2-z
21 3/4+x,-y,3/4+z
22 1/2-x,1/2-y,-z
23 3/4+x,3/4+y,-z
24 1/4+x,1/4+y,-z
25 1/4+x,-y,1/4+z
26 -x,1/4+y,1/4+z
27 1/4+x,3/4+y,1/2-z
28 1/4+x,1/2-y,3/4+z
29 3/4+x,1/4+y,1/2-z
30 1/2-x,1/4+y,3/4+z
31 3/4+x,1/2-y,1/4+z
32 1/2-x,3/4+y,1/4+z
_cell_length_a                   5.3940(11)
_cell_length_b                   12.691(3)
_cell_length_c                   15.399(3)
_cell_angle_alpha                90
_cell_angle_beta                 90
_cell_angle_gamma                90
_cell_volume                     1054.14
loop_
_atom_site_label
_atom_site_type_symbol
_atom_site_fract_x
_atom_site_fract_y
_atom_site_fract_z
Mg1 Mg 0.3750 0.3750 0.3750
C1 C 0.8750 0.3750 0.32406(10)
O1 O 0.66783(15) 0.37630(11) 0.28779(5)
O2 O 0.3750 0.53689(11) 0.3750
H1 H 0.399(6) 0.578(2) 0.3335(16)
Mg1_2 Mg 1.3750 0.3750 0.3750
C1H C 0.8750 0.3750 0.42594(10)
O1H O 1.08217(15) 0.37630(11) 0.46221(5)
O1I O 0.66783(15) 0.37370(11) 0.46221(5)
O1G O 1.08217(15) 0.37370(11) 0.28779(5)
O1G_2 O 0.08217(15) 0.37370(11) 0.28779(5)
O1H_2 O 0.08217(15) 0.37630(11) 0.46221(5)
O2G O 0.3750 0.21311(11) 0.3750
H1H H 0.351(6) 0.578(2) 0.4165(16)
H1G H 0.351(6) 0.172(2) 0.3335(16)
H1I H 0.399(6) 0.172(2) 0.4165(16)
loop_
_geom_bond_atom_site_label_1
_geom_bond_atom_site_label_2
_geom_bond_site_symmetry_1
_geom_bond_site_symmetry_2
Mg1 O1 1_555 1_555
C1 O1 1_555 1_555
O2 Mg1 1_555 1_555
H1 O2 1_555 1_555
Mg1_2 O1H 1_555 1_555
C1H C1 1_555 1_555
O1H C1H 1_555 1_555
O1I Mg1 1_555 1_555
O1G C1 1_555 1_555
O1G_2 Mg1 1_555 1_555
O1H_2 Mg1 1_555 1_555
O2G Mg1 1_555 1_555
H1H O2 1_555 1_555
H1G O2G 1_555 1_555
H1I O2G 1_555 1_555
Mg1_2 O1G 1_555 1_555
C1H O1I 1_555 1_555

#END
