
#######################################################################
#
#                 Cambridge Crystallographic Data Centre
#                                CCDC 
#
#######################################################################
#
# If this CIF has been generated from an entry in the Cambridge 
# Structural Database, then it will include bibliographic, chemical, 
# crystal, experimental, refinement or atomic coordinate data resulting 
# from the CCDC's data processing and validation procedures.
#
#######################################################################

data_QQQFJD02
_symmetry_cell_setting           triclinic
_symmetry_space_group_name_H-M   'P -1'
_symmetry_Int_Tables_number      2
_space_group_name_Hall           '-P 1'
loop_
_symmetry_equiv_pos_site_id
_symmetry_equiv_pos_as_xyz
1 x,y,z
2 -x,-y,-z
_cell_length_a                   6.5669(10)
_cell_length_b                   8.4725(8)
_cell_length_c                   9.8165(11)
_cell_angle_alpha                106.708(9)
_cell_angle_beta                 92.041(13)
_cell_angle_gamma                92.48(11)
_cell_volume                     521.964
loop_
_atom_site_label
_atom_site_type_symbol
_atom_site_fract_x
_atom_site_fract_y
_atom_site_fract_z
Cl1 Cl 0.25428(8) 0.40720(5) 0.23075(5)
Cl2 Cl 0.23446(9) 0.48153(6) -0.39536(5)
O1 O 0.2644(2) 0.71534(15) 0.14309(14)
O2 O 0.2420(2) 0.7479(2) -0.11860(14)
O3 O 0.2251(2) 0.1705(2) -0.30864(14)
O4 O 0.1879(3) 0.1391(2) -0.04831(14)
C1 C 0.2455(3) 0.4254(2) 0.0591(2)
C2 C 0.2532(3) 0.5851(2) 0.0430(2)
C3 C 0.2425(3) 0.6038(2) -0.1087(2)
C4 C 0.2357(3) 0.4604(2) -0.2241(2)
C5 C 0.2265(3) 0.3020(2) -0.2078(2)
C6 C 0.2189(3) 0.2832(2) -0.0565(2)
Na1 Na 0.20496(13) 0.96721(9) 0.09544(8)
Na2 Na 0.33187(14) 0.13453(10) -0.54002(8)
O5 O 0.3179(3) -0.1597(2) -0.5646(2)
O6 O 0.4991(2) 1.0699(2) 0.2437(2)
O7 O 0.0196(3) 1.1090(2) 0.3203(2)
H1 H 0.2991(51) -0.2188(36) -0.6486(35)
H2 H 0.2379(65) -0.1912(44) -0.5231(40)
H3 H 0.5701(51) 0.9967(37) 0.2291(30)
H4 H 0.5714(49) 1.1349(35) 0.2151(29)
H5 H -0.0479(62) 1.1746(45) 0.2921(38)
H6 H -0.0514(58) 1.0310(43) 0.3051(34)
Na1_2 Na 0.20496(13) -0.03279(9) 0.09544(8)
Na1A Na -0.20496(13) 0.03279(9) -0.09544(8)
O4_2 O 0.1879(3) 1.1391(2) -0.04831(14)
O4A O -0.1879(3) 0.8609(2) 0.04831(14)
O5A O 0.6821(3) 0.1597(2) -0.4354(2)
O6_2 O 0.4991(2) 0.0699(2) -0.7563(2)
O7_2 O 0.0196(3) 0.1090(2) -0.6797(2)
Na2A Na 0.66813(14) -0.13453(10) -0.45998(8)
Na2_2 Na 0.33187(14) 1.13453(10) 0.45998(8)
loop_
_geom_bond_atom_site_label_1
_geom_bond_atom_site_label_2
_geom_bond_site_symmetry_1
_geom_bond_site_symmetry_2
Cl1 C1 1_555 1_555
Cl2 C4 1_555 1_555
O1 C2 1_555 1_555
O2 C3 1_555 1_555
O3 C5 1_555 1_555
O4 C6 1_555 1_555
C1 C2 1_555 1_555
C2 C3 1_555 1_555
C3 C4 1_555 1_555
C4 C5 1_555 1_555
C5 C6 1_555 1_555
C6 C1 1_555 1_555
Na1 O1 1_555 1_555
Na2 Cl2 1_555 1_555
O5 Na2 1_555 1_555
O6 Na1 1_555 1_555
O7 Na1 1_555 1_555
H1 O5 1_555 1_555
H2 O5 1_555 1_555
H3 O6 1_555 1_555
H4 O6 1_555 1_555
H5 O7 1_555 1_555
H6 O7 1_555 1_555
Na1_2 O4 1_555 1_555
Na1A O4 1_555 1_555
O4_2 Na1 1_555 1_555
O4A Na1 1_555 1_555
O5A Na2 1_555 1_555
O6_2 Na2 1_555 1_555
O7_2 Na2 1_555 1_555
Na2A O5 1_555 1_555
Na2_2 O6 1_555 1_555
O2 Na1 1_555 1_555
O3 Na2 1_555 1_555
O7 Na2_2 1_555 1_555
O5A Na2A 1_555 1_555

#END
