
#######################################################################
#
#                 Cambridge Crystallographic Data Centre
#                                CCDC 
#
#######################################################################
#
# If this CIF has been generated from an entry in the Cambridge 
# Structural Database, then it will include bibliographic, chemical, 
# crystal, experimental, refinement or atomic coordinate data resulting 
# from the CCDC's data processing and validation procedures.
#
#######################################################################

data_QQQGMA01
_symmetry_cell_setting           monoclinic
_symmetry_space_group_name_H-M   'P 21/c'
_symmetry_Int_Tables_number      14
_space_group_name_Hall           '-P 2ybc'
loop_
_symmetry_equiv_pos_site_id
_symmetry_equiv_pos_as_xyz
1 x,y,z
2 -x,1/2+y,1/2-z
3 -x,-y,-z
4 x,1/2-y,1/2+z
_cell_length_a                   5.8941(12)
_cell_length_b                   14.565(3)
_cell_length_c                   22.299(5)
_cell_angle_alpha                90
_cell_angle_beta                 97.30(3)
_cell_angle_gamma                90
_cell_volume                     1898.8
loop_
_atom_site_label
_atom_site_type_symbol
_atom_site_fract_x
_atom_site_fract_y
_atom_site_fract_z
Na1 Na 0.40621(14) 0.61478(5) 0.48724(3)
O1 O 0.1409(3) 0.69643(10) 0.41852(6)
O2 O -0.2097(2) 0.65908(10) 0.43679(6)
H1 H -0.1402 0.6431 0.4693
O3 O 0.2916(2) 0.46721(9) 0.45348(6)
O4 O -0.0151(2) 0.38038(9) 0.45927(6)
O5 O 0.4843(3) 0.74654(10) 0.54715(7)
O6 O 0.1627(3) 0.78425(11) 0.58331(8)
H2 H 0.1205 0.7343 0.5691
C1 C -0.0633(4) 0.68961(13) 0.40144(8)
C2 C -0.1648(3) 0.71381(12) 0.33871(8)
C3 C -0.3900(4) 0.69474(14) 0.31655(9)
H3 H -0.4874 0.6694 0.3418
C4 C -0.4695(4) 0.71348(16) 0.25683(10)
H4 H -0.6206 0.7003 0.2419
C5 C -0.3278(4) 0.75130(15) 0.21934(10)
H5 H -0.3826 0.7630 0.1791
C6 C -0.1053(4) 0.77187(15) 0.24101(10)
H6 H -0.0093 0.7980 0.2157
C7 C -0.0252(4) 0.75341(14) 0.30068(9)
H7 H 0.1252 0.7679 0.3155
C8 C 0.1041(3) 0.43484(12) 0.43070(8)
C9 C 0.0120(3) 0.45852(12) 0.36672(8)
C10 C -0.2114(3) 0.43824(13) 0.34264(9)
H8 H -0.3094 0.4107 0.3668
C11 C -0.2893(4) 0.45869(15) 0.28292(9)
H9 H -0.4390 0.4448 0.2672
C12 C -0.1451(4) 0.49969(15) 0.24671(9)
H10 H -0.1975 0.5133 0.2066
C13 C 0.0753(4) 0.52031(15) 0.27008(9)
H11 H 0.1726 0.5478 0.2457
C14 C 0.1539(4) 0.50050(13) 0.32968(9)
H12 H 0.3033 0.5154 0.3452
C15 C 0.3687(4) 0.80322(15) 0.56888(9)
C16 C 0.4408(4) 0.89977(13) 0.58155(9)
C17 C 0.6427(4) 0.93092(15) 0.56293(10)
H13 H 0.7370 0.8903 0.5455
C18 C 0.7045(5) 1.02231(17) 0.57017(11)
H14 H 0.8399 1.0429 0.5574
C19 C 0.5663(6) 1.08288(17) 0.59615(12)
H15 H 0.6062 1.1446 0.6000
C20 C 0.3696(6) 1.05179(16) 0.61626(13)
H16 H 0.2791 1.0924 0.6350
C21 C 0.3041(4) 0.96058(15) 0.60898(10)
H17 H 0.1697 0.9402 0.6224
Na1_2 Na -0.59379(14) 0.61478(5) 0.48724(3)
Na1B Na 0.59379(14) 0.38522(5) 0.51276(3)
Na1B_2 Na -0.40621(14) 0.38522(5) 0.51276(3)
O2_2 O 0.7903(2) 0.65908(10) 0.43679(6)
H1_2 H 0.8598 0.6431 0.4693
O3B O 0.7084(2) 0.53279(9) 0.54652(6)
O4B O 0.0151(2) 0.61962(9) 0.54073(6)
loop_
_geom_bond_atom_site_label_1
_geom_bond_atom_site_label_2
_geom_bond_site_symmetry_1
_geom_bond_site_symmetry_2
Na1 O1 1_555 1_555
O1 C1 1_555 1_555
O2 H1 1_555 1_555
O3 Na1 1_555 1_555
O4 C8 1_555 1_555
O5 Na1 1_555 1_555
O6 H2 1_555 1_555
C1 O2 1_555 1_555
C2 C1 1_555 1_555
C3 C2 1_555 1_555
H3 C3 1_555 1_555
C4 C3 1_555 1_555
H4 C4 1_555 1_555
C5 C4 1_555 1_555
H5 C5 1_555 1_555
C6 C5 1_555 1_555
H6 C6 1_555 1_555
C7 C2 1_555 1_555
H7 C7 1_555 1_555
C8 O3 1_555 1_555
C9 C8 1_555 1_555
C10 C9 1_555 1_555
H8 C10 1_555 1_555
C11 C10 1_555 1_555
H9 C11 1_555 1_555
C12 C11 1_555 1_555
H10 C12 1_555 1_555
C13 C12 1_555 1_555
H11 C13 1_555 1_555
C14 C9 1_555 1_555
H12 C14 1_555 1_555
C15 O5 1_555 1_555
C16 C15 1_555 1_555
C17 C16 1_555 1_555
H13 C17 1_555 1_555
C18 C17 1_555 1_555
H14 C18 1_555 1_555
C19 C18 1_555 1_555
H15 C19 1_555 1_555
C20 C19 1_555 1_555
H16 C20 1_555 1_555
C21 C16 1_555 1_555
H17 C21 1_555 1_555
Na1_2 O2 1_555 1_555
Na1B O3 1_555 1_555
Na1B_2 O4 1_555 1_555
O2_2 Na1 1_555 1_555
H1_2 O2_2 1_555 1_555
O3B Na1 1_555 1_555
O4B Na1 1_555 1_555
O6 C15 1_555 1_555
C6 C7 1_555 1_555
C13 C14 1_555 1_555
C20 C21 1_555 1_555
Na1B O3B 1_555 1_555

#END
