
#######################################################################
#
#                 Cambridge Crystallographic Data Centre
#                                CCDC 
#
#######################################################################
#
# If this CIF has been generated from an entry in the Cambridge 
# Structural Database, then it will include bibliographic, chemical, 
# crystal, experimental, refinement or atomic coordinate data resulting 
# from the CCDC's data processing and validation procedures.
#
#######################################################################

data_QQQGMA05
_symmetry_cell_setting           monoclinic
_symmetry_space_group_name_H-M   'P 21/c'
_symmetry_Int_Tables_number      14
_space_group_name_Hall           '-P 2ybc'
loop_
_symmetry_equiv_pos_site_id
_symmetry_equiv_pos_as_xyz
1 x,y,z
2 -x,1/2+y,1/2-z
3 -x,-y,-z
4 x,1/2-y,1/2+z
_cell_length_a                   5.80770(10)
_cell_length_b                   14.4331(4)
_cell_length_c                   22.0139(6)
_cell_angle_alpha                90
_cell_angle_beta                 97.047(2)
_cell_angle_gamma                90
_cell_volume                     1831.33
loop_
_atom_site_label
_atom_site_type_symbol
_atom_site_fract_x
_atom_site_fract_y
_atom_site_fract_z
Na1 Na 0.41188(9) 0.38482(4) 0.98674(2)
O1 O 0.02415(16) 0.38149(6) 1.04046(4)
O2 O -0.28857(15) 0.46829(6) 1.04742(4)
C1 C -0.0012(2) 0.46076(9) 1.13424(6)
C2 C 0.2264(2) 0.43890(9) 1.15800(6)
H1 H 0.3268 0.4103 1.1326
C3 C 0.3062(2) 0.45897(10) 1.21872(7)
H2 H 0.4612 0.4440 1.2347
C4 C 0.1607(2) 0.50078(10) 1.25606(6)
H3 H 0.2156 0.5142 1.2976
C5 C -0.0659(2) 0.52291(10) 1.23257(7)
H4 H -0.1658 0.5517 1.2580
C6 C -0.1462(2) 0.50305(9) 1.17206(6)
H5 H -0.3011 0.5183 1.1562
C7 C -0.0969(2) 0.43644(9) 1.06976(6)
O3 O 0.79092(16) 0.34214(7) 0.93723(5)
O4 O 1.14684(15) 0.30221(7) 0.91828(4)
C8 C 0.8359(2) 0.28536(9) 0.83810(6)
C9 C 0.6065(2) 0.30552(9) 0.81559(6)
H6 H 0.5059 0.3323 0.8417
C10 C 0.5256(2) 0.28635(10) 0.75489(7)
H7 H 0.3698 0.3007 0.7394
C11 C 0.6710(2) 0.24645(10) 0.71675(7)
H8 H 0.6150 0.2340 0.6752
C12 C 0.8983(2) 0.22463(10) 0.73929(7)
H9 H 0.9973 0.1964 0.7134
C13 C 0.9804(2) 0.24406(10) 0.79972(7)
H10 H 1.1360 0.2292 0.8151
C14 C 0.9385(2) 0.31004(9) 0.90129(6)
O5 O 0.16706(18) 0.21606(8) 1.08356(5)
O6 O 0.49749(17) 0.25314(7) 1.04668(5)
C15 C 0.4473(2) 0.09834(9) 1.08128(6)
C16 C 0.3055(2) 0.03742(10) 1.10859(7)
H11 H 0.1668 0.0593 1.1225
C17 C 0.3664(3) -0.05551(10) 1.11557(7)
H12 H 0.2702 -0.0970 1.1346
C18 C 0.5677(3) -0.08761(11) 1.09469(7)
H13 H 0.6069 -0.1514 1.0982
C19 C 0.7117(2) -0.02657(11) 1.06869(7)
H14 H 0.8510 -0.0486 1.0553
C20 C 0.6540(2) 0.06672(10) 1.06208(7)
H15 H 0.7540 0.1085 1.0447
C21 C 0.3764(2) 0.19648(9) 1.06885(6)
H16 H 0.878(4) 0.3548(16) 0.9740(11)
H17 H 0.129(4) 0.2719(17) 1.0719(11)
Na1_2 Na -0.58812(9) 0.38482(4) 0.98674(2)
Na1_3 Na 1.41188(9) 0.38482(4) 0.98674(2)
Na1B Na -0.41188(9) 0.61518(4) 1.01326(2)
O2_2 O 0.71143(15) 0.46829(6) 1.04742(4)
O2B O 0.28857(15) 0.53171(6) 0.95258(4)
O4_2 O 0.14684(15) 0.30221(7) 0.91828(4)
loop_
_geom_bond_atom_site_label_1
_geom_bond_atom_site_label_2
_geom_bond_site_symmetry_1
_geom_bond_site_symmetry_2
Na1 O1 1_555 1_555
O1 C7 1_555 1_555
O2 C7 1_555 1_555
C1 C2 1_555 1_555
C2 H1 1_555 1_555
C3 C2 1_555 1_555
H2 C3 1_555 1_555
C4 C3 1_555 1_555
H3 C4 1_555 1_555
C5 C4 1_555 1_555
H4 C5 1_555 1_555
C6 C1 1_555 1_555
H5 C6 1_555 1_555
C7 C1 1_555 1_555
O3 Na1 1_555 1_555
O4 C14 1_555 1_555
C8 C9 1_555 1_555
C9 H6 1_555 1_555
C10 C9 1_555 1_555
H7 C10 1_555 1_555
C11 C10 1_555 1_555
H8 C11 1_555 1_555
C12 C11 1_555 1_555
H9 C12 1_555 1_555
C13 C8 1_555 1_555
H10 C13 1_555 1_555
C14 O3 1_555 1_555
O5 C21 1_555 1_555
O6 Na1 1_555 1_555
C15 C16 1_555 1_555
C16 H11 1_555 1_555
C17 C16 1_555 1_555
H12 C17 1_555 1_555
C18 C17 1_555 1_555
H13 C18 1_555 1_555
C19 C18 1_555 1_555
H14 C19 1_555 1_555
C20 C15 1_555 1_555
H15 C20 1_555 1_555
C21 O6 1_555 1_555
H16 O3 1_555 1_555
H17 O5 1_555 1_555
Na1_2 O2 1_555 1_555
Na1_3 O4 1_555 1_555
Na1B O2 1_555 1_555
O2_2 Na1 1_555 1_555
O2B Na1 1_555 1_555
O4_2 Na1 1_555 1_555
C5 C6 1_555 1_555
C8 C14 1_555 1_555
C12 C13 1_555 1_555
C15 C21 1_555 1_555
C19 C20 1_555 1_555

#END
