
#######################################################################
#
#                 Cambridge Crystallographic Data Centre
#                                CCDC 
#
#######################################################################
#
# If this CIF has been generated from an entry in the Cambridge 
# Structural Database, then it will include bibliographic, chemical, 
# crystal, experimental, refinement or atomic coordinate data resulting 
# from the CCDC's data processing and validation procedures.
#
#######################################################################

data_QQQHFY01
_symmetry_cell_setting           monoclinic
_symmetry_space_group_name_H-M   'P 21/c'
_symmetry_Int_Tables_number      14
_space_group_name_Hall           '-P 2ybc'
loop_
_symmetry_equiv_pos_site_id
_symmetry_equiv_pos_as_xyz
1 x,y,z
2 -x,1/2+y,1/2-z
3 -x,-y,-z
4 x,1/2-y,1/2+z
_cell_length_a                   9.5110(19)
_cell_length_b                   19.010(4)
_cell_length_c                   10.770(2)
_cell_angle_alpha                90
_cell_angle_beta                 91.98(3)
_cell_angle_gamma                90
_cell_volume                     1946.1
loop_
_atom_site_label
_atom_site_type_symbol
_atom_site_fract_x
_atom_site_fract_y
_atom_site_fract_z
Pr1 Pr 0.748072(17) 0.010899(8) 0.544470(15)
O1 O 0.6114(2) -0.02779(12) 0.7261(2)
O2 O 0.8649(2) -0.09560(11) 0.6372(2)
O3 O 0.8561(2) 0.11370(11) 0.4128(2)
O4 O 0.6538(2) 0.06791(12) 0.3476(2)
O5 O 0.9013(2) -0.03810(12) 0.3907(2)
O6 O 1.0980(2) -0.06251(13) 0.2953(2)
O7 O 0.5807(2) -0.07310(11) 0.4609(2)
O8 O 0.3769(2) -0.11666(12) 0.3879(2)
N1 N 0.7596(3) 0.22201(18) -0.0133(3)
N2 N 0.7383(3) -0.07441(16) -0.0536(3)
N3 N 0.7236(3) -0.29412(15) 0.2428(3)
C1 C 0.6943(5) 0.1601(2) -0.0029(4)
H1 H 0.6493 0.1406 -0.0751
C2 C 0.6886(4) 0.1228(2) 0.1072(3)
H2 H 0.6360 0.0804 0.1109
C3 C 0.7611(3) 0.14833(17) 0.2124(3)
C4 C 0.8328(3) 0.21172(18) 0.2015(3)
H3 H 0.8851 0.2306 0.2704
C5 C 0.8266(4) 0.24693(19) 0.0885(3)
H4 H 0.8726 0.2912 0.0834
C6 C 0.7575(3) 0.10841(16) 0.3321(3)
C7 C 0.6721(4) -0.06577(19) 0.0532(3)
H5 H 0.5724 -0.0628 0.0495
C8 C 0.7401(3) -0.06097(17) 0.1680(3)
H6 H 0.6883 -0.0541 0.2409
C9 C 0.8859(3) -0.06645(16) 0.1751(3)
C10 C 0.9545(4) -0.0783(2) 0.0663(3)
H7 H 1.0538 -0.0841 0.0678
C11 C 0.8781(4) -0.0815(2) -0.0448(3)
H8 H 0.9273 -0.0892 -0.1188
C12 C 0.9673(3) -0.05525(16) 0.2962(3)
C13 C 0.7869(4) -0.25278(19) 0.3284(4)
H9 H 0.8819 -0.2628 0.3522
C14 C 0.7228(3) -0.19676(18) 0.3841(3)
H10 H 0.7730 -0.1684 0.4432
C15 C 0.5830(3) -0.18249(16) 0.3519(3)
C16 C 0.5143(3) -0.22572(17) 0.2659(3)
H11 H 0.4180 -0.2184 0.2433
C17 C 0.5899(4) -0.28032(18) 0.2133(3)
H12 H 0.5431 -0.3092 0.1529
C18 C 0.5075(3) -0.11980(16) 0.4051(3)
Pr1B Pr 1.251928(17) -0.010899(8) 0.455530(15)
Pr1B_2 Pr 0.251928(17) -0.010899(8) 0.455530(15)
O6B O 0.9020(2) 0.06251(13) 0.7047(2)
O8B O 0.6231(2) 0.11666(12) 0.6121(2)
loop_
_geom_bond_atom_site_label_1
_geom_bond_atom_site_label_2
_geom_bond_site_symmetry_1
_geom_bond_site_symmetry_2
Pr1 O1 1_555 1_555
O2 Pr1 1_555 1_555
O3 Pr1 1_555 1_555
O4 Pr1 1_555 1_555
O5 Pr1 1_555 1_555
O6 C12 1_555 1_555
O7 Pr1 1_555 1_555
O8 C18 1_555 1_555
N1 C1 1_555 1_555
N2 C7 1_555 1_555
N3 C13 1_555 1_555
C1 H1 1_555 1_555
C2 C1 1_555 1_555
H2 C2 1_555 1_555
C3 C2 1_555 1_555
C4 C3 1_555 1_555
H3 C4 1_555 1_555
C5 N1 1_555 1_555
H4 C5 1_555 1_555
C6 O3 1_555 1_555
C7 H5 1_555 1_555
C8 C7 1_555 1_555
H6 C8 1_555 1_555
C9 C8 1_555 1_555
C10 C9 1_555 1_555
H7 C10 1_555 1_555
C11 N2 1_555 1_555
H8 C11 1_555 1_555
C12 O5 1_555 1_555
C13 H9 1_555 1_555
C14 C13 1_555 1_555
H10 C14 1_555 1_555
C15 C14 1_555 1_555
C16 C15 1_555 1_555
H11 C16 1_555 1_555
C17 N3 1_555 1_555
H12 C17 1_555 1_555
C18 O7 1_555 1_555
Pr1B O6 1_555 1_555
Pr1B_2 O8 1_555 1_555
O6B Pr1 1_555 1_555
O8B Pr1 1_555 1_555
O4 C6 1_555 1_555
C3 C6 1_555 1_555
C4 C5 1_555 1_555
C9 C12 1_555 1_555
C10 C11 1_555 1_555
C15 C18 1_555 1_555
C16 C17 1_555 1_555

#END
