
#######################################################################
#
#                 Cambridge Crystallographic Data Centre
#                                CCDC 
#
#######################################################################
#
# If this CIF has been generated from an entry in the Cambridge 
# Structural Database, then it will include bibliographic, chemical, 
# crystal, experimental, refinement or atomic coordinate data resulting 
# from the CCDC's data processing and validation procedures.
#
#######################################################################

data_QUBBEU
_symmetry_cell_setting           triclinic
_symmetry_space_group_name_H-M   'P -1'
_symmetry_Int_Tables_number      2
_space_group_name_Hall           '-P 1'
loop_
_symmetry_equiv_pos_site_id
_symmetry_equiv_pos_as_xyz
1 x,y,z
2 -x,-y,-z
_cell_length_a                   10.181(2)
_cell_length_b                   10.668(2)
_cell_length_c                   12.857(3)
_cell_angle_alpha                112.97(3)
_cell_angle_beta                 91.24(3)
_cell_angle_gamma                117.96(3)
_cell_volume                     1099.09
loop_
_atom_site_label
_atom_site_type_symbol
_atom_site_fract_x
_atom_site_fract_y
_atom_site_fract_z
Co1 Co -0.2004(1) -0.6548(1) 0.1490(1)
Co2 Co 0.0188(1) -0.3955(1) -0.3701(1)
Co3 Co 0.0000 -0.5000 0.0000
Co4 Co -0.5000 -1.0000 0.0000
Co5 Co 0.7501(1) 0.5099(1) 0.4317(1)
O1 O -0.4150(3) -1.0308(3) 0.1266(2)
O2 O -0.1910(3) -0.8019(3) 0.2215(2)
O3 O 0.0537(3) -0.7256(3) 0.4292(2)
O4 O 0.1005(3) -0.9059(3) 0.4345(2)
O5 O -0.1873(2) -0.5162(3) 0.0682(2)
O6 O -0.3219(3) -0.4131(4) 0.1605(2)
O7 O -0.1460(3) -0.4243(3) -0.2673(2)
O8 O -0.0285(2) -0.4289(3) -0.1237(2)
O9 O 0.5634(2) 0.2279(3) 0.1269(2)
O10 O 0.5465(3) 0.3129(3) 0.3107(2)
O11 O 0.1277(3) -0.2600(3) 0.1173(2)
O12 O 0.2729(2) -0.1453(3) 0.0165(2)
O13 O 0.1544(2) -0.4089(3) 0.5125(2)
O14 O -0.1140(2) -0.4959(3) 0.3165(2)
O15 O 0.6774(3) 0.6428(3) 0.3891(2)
O16 O 0.6299(3) 0.5096(4) 0.5627(2)
C1 C -0.2924(3) -0.9411(4) 0.2051(2)
C2 C -0.2611(4) -1.0007(4) 0.2859(3)
C3 C -0.1087(5) -0.9976(5) 0.2853(4)
C4 C 0.0241(4) -0.8681(4) 0.3911(3)
C5 C -0.2616(3) -0.4440(4) 0.0795(3)
C6 C -0.2718(5) -0.3901(5) -0.0122(3)
C7 C -0.2923(4) -0.5048(5) -0.1379(3)
C8 C -0.1462(3) -0.4491(4) -0.1800(2)
C9 C 0.4886(3) 0.2403(3) 0.2050(3)
C10 C 0.2385(5) 0.0154(4) 0.1920(3)
C11 C 0.3169(4) 0.1567(4) 0.1648(3)
C12 C 0.2142(3) -0.1402(4) 0.1021(2)
H1 H -0.3350(57) -1.1021(65) 0.2584(42)
H2 H -0.2608(57) -0.9333(64) 0.3590(45)
H3 H -0.1285(58) -1.0936(67) 0.2688(41)
H4 H -0.0851(57) -0.9858(61) 0.2175(43)
H5 H -0.3644(57) -0.3811(61) -0.0088(40)
H6 H -0.1961(59) -0.3064(65) 0.0040(42)
H7 H -0.3771(54) -0.5211(60) -0.1923(41)
H8 H -0.3281(57) -0.6229(64) -0.1542(42)
H9 H 0.2880(55) 0.1232(62) 0.0848(44)
H10 H 0.2886(56) 0.2350(63) 0.2104(41)
H11 H 0.3094(56) 0.0396(60) 0.2682(42)
H12 H 0.1543(59) 0.0003(64) 0.2030(43)
H13 H 0.2143(59) -0.3266(67) 0.5033(43)
H14 H -0.0620(59) -0.4100(64) 0.3247(44)
H15 H 0.6892(58) 0.6381(64) 0.3277(46)
H16 H 0.7399(61) 0.7207(67) 0.4298(48)
H17 H 0.5428(63) 0.4694(64) 0.5732(43)
H18 H 0.6769(60) 0.5359(65) 0.6220(46)
O5A O 0.1873(2) -0.4838(3) -0.0682(2)
O6A O 0.3219(3) -0.5869(4) -0.1605(2)
O7A O 0.1460(3) -0.5757(3) 0.2673(2)
O8A O 0.0285(2) -0.5711(3) 0.1237(2)
C5A C 0.2616(3) -0.5560(4) -0.0795(3)
C6A C 0.2718(5) -0.6099(5) 0.0122(3)
C7A C 0.2923(4) -0.4952(5) 0.1379(3)
C8A C 0.1462(3) -0.5509(4) 0.1800(2)
H5A H 0.3644(57) -0.6189(61) 0.0088(40)
H6A H 0.1961(59) -0.6936(65) -0.0040(42)
H7A H 0.3771(54) -0.4789(60) 0.1923(41)
H8A H 0.3281(57) -0.3771(64) 0.1542(42)
O9A O -0.5634(2) -1.2279(3) -0.1269(2)
O10A O -0.5465(3) -1.3129(3) -0.3107(2)
O11A O -0.1277(3) -0.7400(3) -0.1173(2)
O12A O -0.2729(2) -0.8547(3) -0.0165(2)
C9A C -0.4886(3) -1.2403(3) -0.2050(3)
C10A C -0.2385(5) -1.0154(4) -0.1920(3)
C11A C -0.3169(4) -1.1567(4) -0.1648(3)
C12A C -0.2142(3) -0.8598(4) -0.1021(2)
H9A H -0.2880(55) -1.1232(62) -0.0848(44)
H10A H -0.2886(56) -1.2350(63) -0.2104(41)
H11A H -0.3094(56) -1.0396(60) -0.2682(42)
H12A H -0.1543(59) -1.0003(64) -0.2030(43)
Co1A Co 0.2004(1) -0.3452(1) -0.1490(1)
Co2A Co -0.0188(1) -0.6045(1) 0.3701(1)
Co5A Co -0.7501(1) -1.5099(1) -0.4317(1)
O1A O 0.4150(3) 0.0308(3) -0.1266(2)
O2A O 0.1910(3) -0.1981(3) -0.2215(2)
O3A O -0.0537(3) -0.2744(3) -0.4292(2)
O4A O -0.1005(3) -0.0941(3) -0.4345(2)
C1A C 0.2924(3) -0.0589(4) -0.2051(2)
C2A C 0.2611(4) 0.0007(4) -0.2859(3)
C3A C 0.1087(5) -0.0024(5) -0.2853(4)
C4A C -0.0241(4) -0.1319(4) -0.3911(3)
H1A H 0.3350(57) 0.1021(65) -0.2584(42)
H2A H 0.2608(57) -0.0667(64) -0.3590(45)
H3A H 0.1285(58) 0.0936(67) -0.2688(41)
H4A H 0.0851(57) -0.0142(61) -0.2175(43)
O13A O -0.1544(2) -0.5911(3) -0.5125(2)
H13A H -0.2143(59) -0.6734(67) -0.5033(43)
O14A O 0.1140(2) -0.5041(3) -0.3165(2)
H14A H 0.0620(59) -0.5900(64) -0.3247(44)
O15A O -0.6774(3) -1.6428(3) -0.3891(2)
H15A H -0.6892(58) -1.6381(64) -0.3277(46)
H16A H -0.7399(61) -1.7207(67) -0.4298(48)
O16A O -0.6299(3) -1.5096(4) -0.5627(2)
H17A H -0.5428(63) -1.4694(64) -0.5732(43)
H18A H -0.6769(60) -1.5359(65) -0.6220(46)
O9_2 O -0.4366(2) -0.7721(3) 0.1269(2)
O9A_2 O 0.4366(2) -0.2279(3) -0.1269(2)
O3A_2 O 0.9463(3) 0.7256(3) 0.5708(2)
O13A_2 O 0.8456(2) 0.4089(3) 0.4875(2)
O14_2 O 0.8860(2) 0.5041(3) 0.3165(2)
Co4_2 Co 0.5000 0.0000 0.0000
Co5A_2 Co 0.2499(1) -0.5099(1) 0.5683(1)
Co1_2 Co 0.7996(1) 0.3452(1) 0.1490(1)
Co5A_3 Co 0.2499(1) -0.5099(1) -0.4317(1)
Co5_2 Co -0.2499(1) -0.4901(1) 0.4317(1)
Co1A_2 Co -0.7996(1) -1.3452(1) -0.1490(1)
O13_2 O 0.1544(2) -0.4089(3) -0.4875(2)
O13A_3 O -0.1544(2) -0.5911(3) 0.4875(2)
O3_2 O -0.9463(3) -1.7256(3) -0.5708(2)
O13_3 O -0.8456(2) -1.4089(3) -0.4875(2)
O14A_2 O -0.8860(2) -1.5041(3) -0.3165(2)
Co5_3 Co -0.2499(1) -0.4901(1) -0.5683(1)
H13A_2 H 0.7857(59) 0.3266(67) 0.4967(43)
H14_2 H 0.9380(59) 0.5900(64) 0.3247(44)
H13_2 H 0.2143(59) -0.3266(67) -0.4967(43)
H13A_3 H -0.2143(59) -0.6734(67) 0.4967(43)
H13_3 H -0.7857(59) -1.3266(67) -0.4967(43)
H14A_2 H -0.9380(59) -1.5900(64) -0.3247(44)
O1A_2 O -0.5850(3) -0.9692(3) -0.1266(2)
O12_2 O -0.7271(2) -1.1453(3) 0.0165(2)
Co2_2 Co 0.0188(1) -0.3955(1) 0.6299(1)
O17 O 0.1006(4) -0.1903(4) 0.3469(3)
H19 H 0.0954(58) -0.1021(69) 0.3802(44)
H20 H 0.1128(57) -0.1970(63) 0.2848(44)
O18 O 0.3609(6) -0.1663(6) 0.4437(5)
H21 H 0.2304(58) -0.1806(61) 0.4061(41)
H22 H 0.4754(59) -0.1764(61) 0.4402(41)
loop_
_geom_bond_atom_site_label_1
_geom_bond_atom_site_label_2
_geom_bond_site_symmetry_1
_geom_bond_site_symmetry_2
Co1 O2 1_555 1_555
Co2 O7 1_555 1_555
Co3 O5 1_555 1_555
Co4 O1 1_555 1_555
Co5 O10 1_555 1_555
O1 C1 1_555 1_555
O2 C1 1_555 1_555
O3 C4 1_555 1_555
O4 C4 1_555 1_555
O5 Co1 1_555 1_555
O6 C5 1_555 1_555
O7 C8 1_555 1_555
O8 Co3 1_555 1_555
O9 C9 1_555 1_555
O10 C9 1_555 1_555
O11 Co3 1_555 1_555
O12 C12 1_555 1_555
O13 H13 1_555 1_555
O14 Co1 1_555 1_555
O15 Co5 1_555 1_555
O16 Co5 1_555 1_555
C1 C2 1_555 1_555
C2 C3 1_555 1_555
C3 C4 1_555 1_555
C5 O5 1_555 1_555
C6 C5 1_555 1_555
C7 C6 1_555 1_555
C8 O8 1_555 1_555
C9 C11 1_555 1_555
C10 C11 1_555 1_555
C11 H9 1_555 1_555
C12 O11 1_555 1_555
O17 H19 1_555 1_555
O18 H21 1_555 1_555
H1 C2 1_555 1_555
H2 C2 1_555 1_555
H3 C3 1_555 1_555
H4 C3 1_555 1_555
H5 C6 1_555 1_555
H6 C6 1_555 1_555
H7 C7 1_555 1_555
H8 C7 1_555 1_555
H10 C11 1_555 1_555
H11 C10 1_555 1_555
H12 C10 1_555 1_555
H14 O14 1_555 1_555
H15 O15 1_555 1_555
H16 O15 1_555 1_555
H17 O16 1_555 1_555
H18 O16 1_555 1_555
H20 O17 1_555 1_555
H22 O18 1_555 1_555
O5A Co3 1_555 1_555
O6A C5A 1_555 1_555
O7A C8A 1_555 1_555
O8A Co1 1_555 1_555
C5A O5A 1_555 1_555
C6A C5A 1_555 1_555
C7A C6A 1_555 1_555
C8A O8A 1_555 1_555
H5A C6A 1_555 1_555
H6A C6A 1_555 1_555
H7A C7A 1_555 1_555
H8A C7A 1_555 1_555
O9A Co4 1_555 1_555
O10A C9A 1_555 1_555
O11A Co3 1_555 1_555
O12A Co1 1_555 1_555
C9A O9A 1_555 1_555
C10A C11A 1_555 1_555
C11A C9A 1_555 1_555
C12A O11A 1_555 1_555
H9A C11A 1_555 1_555
H10A C11A 1_555 1_555
H11A C10A 1_555 1_555
H12A C10A 1_555 1_555
Co1A O8 1_555 1_555
Co2A O2 1_555 1_555
Co5A O10A 1_555 1_555
O1A C1A 1_555 1_555
O2A Co2 1_555 1_555
O3A Co2 1_555 1_555
O4A C4A 1_555 1_555
C1A O2A 1_555 1_555
C2A C1A 1_555 1_555
C3A C2A 1_555 1_555
C4A O3A 1_555 1_555
H1A C2A 1_555 1_555
H2A C2A 1_555 1_555
H3A C3A 1_555 1_555
H4A C3A 1_555 1_555
O13A Co2 1_555 1_555
H13A O13A 1_555 1_555
O14A Co2 1_555 1_555
H14A O14A 1_555 1_555
O15A Co5A 1_555 1_555
H15A O15A 1_555 1_555
H16A O15A 1_555 1_555
O16A Co5A 1_555 1_555
H17A O16A 1_555 1_555
H18A O16A 1_555 1_555
O9_2 Co1 1_555 1_555
O9A_2 Co1A 1_555 1_555
O3A_2 Co5 1_555 1_555
O13A_2 Co5 1_555 1_555
O14_2 Co5 1_555 1_555
Co4_2 O9 1_555 1_555
Co5A_2 O3 1_555 1_555
Co1_2 O9 1_555 1_555
Co5A_3 O14A 1_555 1_555
Co5_2 O14 1_555 1_555
Co1A_2 O9A 1_555 1_555
O13_2 Co2 1_555 1_555
O13A_3 Co2A 1_555 1_555
O3_2 Co5A 1_555 1_555
O13_3 Co5A 1_555 1_555
O14A_2 Co5A 1_555 1_555
Co5_3 O3A 1_555 1_555
H13A_2 O13A_2 1_555 1_555
H14_2 O14_2 1_555 1_555
H13_2 O13_2 1_555 1_555
H13A_3 O13A_3 1_555 1_555
H13_3 O13_3 1_555 1_555
H14A_2 O14A_2 1_555 1_555
O1A_2 Co4 1_555 1_555
O12_2 Co4 1_555 1_555
Co2_2 O13 1_555 1_555
Co3 O8A 1_555 1_555
Co4 O12A 1_555 1_555
Co4 O9_2 1_555 1_555
O3 Co2A 1_555 1_555
O12 Co4_2 1_555 1_555
O12 Co1A 1_555 1_555
O13 Co2A 1_555 1_555
O13 Co5A_2 1_555 1_555
O14 Co2A 1_555 1_555
C7 C8 1_555 1_555
C10 C12 1_555 1_555
O5A Co1A 1_555 1_555
O7A Co2A 1_555 1_555
C7A C8A 1_555 1_555
O12A C12A 1_555 1_555
C10A C12A 1_555 1_555
Co1A O2A 1_555 1_555
Co1A O14A 1_555 1_555
O1A Co4_2 1_555 1_555
C3A C4A 1_555 1_555
O13A Co5_3 1_555 1_555
O9A_2 Co4_2 1_555 1_555
O14_2 Co1_2 1_555 1_555
Co5A_3 O13_2 1_555 1_555
Co5_2 O13A_3 1_555 1_555
Co1A_2 O14A_2 1_555 1_555
Co1A_2 O12_2 1_555 1_555
O13A_3 Co2_2 1_555 1_555

#END
