
#######################################################################
#
#                 Cambridge Crystallographic Data Centre
#                                CCDC 
#
#######################################################################
#
# If this CIF has been generated from an entry in the Cambridge 
# Structural Database, then it will include bibliographic, chemical, 
# crystal, experimental, refinement or atomic coordinate data resulting 
# from the CCDC's data processing and validation procedures.
#
#######################################################################

data_QUBKEE
_symmetry_cell_setting           monoclinic
_symmetry_space_group_name_H-M   'P 21/c'
_symmetry_Int_Tables_number      14
_space_group_name_Hall           '-P 2ybc'
loop_
_symmetry_equiv_pos_site_id
_symmetry_equiv_pos_as_xyz
1 x,y,z
2 -x,1/2+y,1/2-z
3 -x,-y,-z
4 x,1/2-y,1/2+z
_cell_length_a                   13.495(3)
_cell_length_b                   6.5202(13)
_cell_length_c                   14.103(3)
_cell_angle_alpha                90
_cell_angle_beta                 113.49(3)
_cell_angle_gamma                90
_cell_volume                     1138.09
loop_
_atom_site_label
_atom_site_type_symbol
_atom_site_fract_x
_atom_site_fract_y
_atom_site_fract_z
Ag1 Ag 0.505184(17) -0.05560(3) 0.363312(16)
O1 O 0.31897(15) 0.0875(3) 0.29507(14)
O2 O 0.30387(16) -0.2039(3) 0.20966(15)
O3 O -0.11448(18) 0.5458(3) 0.11212(16)
O4 O 0.05387(17) 0.5604(3) 0.23040(16)
N1 N 0.55486(17) -0.0520(3) 0.20288(15)
H1 H 0.5950 0.0601 0.2060
H2 H 0.5955 -0.1629 0.2053
N2 N 0.42832(16) -0.2350(3) 0.06723(14)
N3 N 0.42247(16) 0.1315(3) 0.07246(14)
N4 N 0.11408(15) 0.2039(3) 0.18785(15)
H3 H 0.1638 0.2995 0.1923
H4 H 0.1130 0.1914 0.2510
C1 C 0.3308(2) 0.1276(4) -0.01377(18)
H5 H 0.2975 0.2513 -0.0415
C2 C 0.2844(2) -0.0514(4) -0.0626(2)
H6 H 0.2205 -0.0516 -0.1216
C3 C 0.3373(2) -0.2313(4) -0.01952(18)
H7 H 0.3088 -0.3549 -0.0519
C4 C 0.4667(2) -0.0517(3) 0.11073(18)
C5 C 0.2670(2) -0.0402(3) 0.22768(18)
C6 C 0.1489(2) 0.0054(4) 0.1599(2)
H8 H 0.1393 0.0093 0.0880
H9 H 0.1039 -0.1038 0.1677
C7 C 0.00698(18) 0.2783(4) 0.11535(17)
H10 H -0.0478 0.1766 0.1088
H11 H 0.0077 0.3003 0.0476
C8 C -0.0195(2) 0.4798(4) 0.15619(19)
Ag1A Ag 0.494816(17) -0.55560(3) 0.136688(16)
Ag1A_2 Ag 0.494816(17) 0.44440(3) 0.136688(16)
N2A N 0.57168(16) 0.2650(3) 0.43277(14)
N3A N 0.57753(16) -0.3685(3) 0.42754(14)
O5 O -0.2232(2) 0.5509(3) -0.09963(17)
H12 H -0.247(3) 0.435(3) -0.126(3)
H13 H -0.186(3) 0.542(6) -0.0349(10)
loop_
_geom_bond_atom_site_label_1
_geom_bond_atom_site_label_2
_geom_bond_site_symmetry_1
_geom_bond_site_symmetry_2
Ag1 O1 1_555 1_555
O1 C5 1_555 1_555
O2 C5 1_555 1_555
O3 C8 1_555 1_555
O4 C8 1_555 1_555
N1 Ag1 1_555 1_555
H1 N1 1_555 1_555
H2 N1 1_555 1_555
N2 C3 1_555 1_555
N3 C1 1_555 1_555
N4 H3 1_555 1_555
H4 N4 1_555 1_555
C1 H5 1_555 1_555
C2 C1 1_555 1_555
H6 C2 1_555 1_555
C3 C2 1_555 1_555
H7 C3 1_555 1_555
C4 N1 1_555 1_555
C5 C6 1_555 1_555
C6 N4 1_555 1_555
H8 C6 1_555 1_555
H9 C6 1_555 1_555
C7 N4 1_555 1_555
H10 C7 1_555 1_555
H11 C7 1_555 1_555
C8 C7 1_555 1_555
O5 H12 1_555 1_555
H13 O5 1_555 1_555
Ag1A N2 1_555 1_555
Ag1A_2 N3 1_555 1_555
N2A Ag1 1_555 1_555
N3A Ag1 1_555 1_555
N2 C4 1_555 1_555
N3 C4 1_555 1_555

#END
