
#######################################################################
#
#                 Cambridge Crystallographic Data Centre
#                                CCDC 
#
#######################################################################
#
# If this CIF has been generated from an entry in the Cambridge 
# Structural Database, then it will include bibliographic, chemical, 
# crystal, experimental, refinement or atomic coordinate data resulting 
# from the CCDC's data processing and validation procedures.
#
#######################################################################

data_QUBXUG
_symmetry_cell_setting           orthorhombic
_symmetry_space_group_name_H-M   'P b c a'
_symmetry_Int_Tables_number      61
_space_group_name_Hall           '-P 2ac 2ab'
loop_
_symmetry_equiv_pos_site_id
_symmetry_equiv_pos_as_xyz
1 x,y,z
2 1/2+x,y,1/2-z
3 x,1/2-y,1/2+z
4 1/2-x,1/2+y,z
5 -x,-y,-z
6 1/2-x,-y,1/2+z
7 -x,1/2+y,1/2-z
8 1/2+x,1/2-y,-z
_cell_length_a                   15.5608(3)
_cell_length_b                   10.9574(2)
_cell_length_c                   27.1908(5)
_cell_angle_alpha                90
_cell_angle_beta                 90
_cell_angle_gamma                90
_cell_volume                     4636.19
loop_
_atom_site_label
_atom_site_type_symbol
_atom_site_fract_x
_atom_site_fract_y
_atom_site_fract_z
K1 K 0.71425(3) 0.03978(4) 0.651737(18)
B1 B 0.93637(15) -0.1853(2) 0.59279(9)
H1 H 0.9696(12) -0.1632(18) 0.5564(8)
N1 N 0.93399(11) -0.06817(15) 0.62378(6)
N2 N 0.89851(11) -0.06443(16) 0.67009(6)
C1 C 0.91313(13) 0.04632(19) 0.68830(8)
H2 H 0.8954 0.0724 0.7192
C2 C 0.95918(13) 0.11895(19) 0.65449(8)
C3 C 0.99011(14) 0.2403(2) 0.65305(9)
H3 H 0.9817 0.2927 0.6795
C4 C 1.03272(14) 0.2790(2) 0.61181(10)
H4 H 1.0534 0.3585 0.6104
C5 C 1.04574(14) 0.2000(2) 0.57149(9)
H5 H 1.0752 0.2288 0.5441
C6 C 1.01623(13) 0.0817(2) 0.57146(8)
H6 H 1.0252 0.0302 0.5447
C7 C 0.97180(12) 0.04184(18) 0.61364(8)
N3 N 0.84510(10) -0.23407(15) 0.58252(6)
N4 N 0.77043(10) -0.18197(17) 0.59977(6)
C8 C 0.70552(13) -0.2426(2) 0.57933(8)
H7 H 0.6478 -0.2254 0.5849
C9 C 0.73537(13) -0.3367(2) 0.54802(8)
C10 C 0.69782(15) -0.4283(2) 0.51849(8)
H8 H 0.6384 -0.4361 0.5165
C11 C 0.75030(17) -0.5049(2) 0.49304(9)
H9 H 0.7262 -0.5648 0.4731
C12 C 0.84078(16) -0.4952(2) 0.49632(9)
H10 H 0.8748 -0.5492 0.4785
C13 C 0.87986(14) -0.4081(2) 0.52521(8)
H11 H 0.9394 -0.4026 0.5275
C14 C 0.82573(13) -0.32776(19) 0.55110(7)
N5 N 0.98924(10) -0.28554(15) 0.61927(6)
N6 N 0.95362(11) -0.36934(15) 0.65045(7)
C15 C 1.01775(14) -0.43393(19) 0.66950(9)
H12 H 1.0107 -0.4969 0.6921
C16 C 1.09813(13) -0.39470(19) 0.65101(8)
C17 C 1.18498(15) -0.4290(2) 0.65700(9)
H13 H 1.2000 -0.4941 0.6772
C18 C 1.24667(15) -0.3639(2) 0.63225(9)
H14 H 1.3042 -0.3854 0.6357
C19 C 1.22427(14) -0.2648(2) 0.60156(9)
H15 H 1.2676 -0.2216 0.5857
C20 C 1.14025(13) -0.2304(2) 0.59460(8)
H16 H 1.1260 -0.1651 0.5743
C21 C 1.07665(12) -0.29767(18) 0.61929(7)
O1 O 0.70242(10) 0.24813(15) 0.71253(6)
H17 H 0.6722(18) 0.296(3) 0.6922(11)
C22 C 0.65021(18) 0.2282(3) 0.75500(9)
H18 H 0.6757 0.1660 0.7751
H19 H 0.5939 0.2027 0.7449
H20 H 0.6459 0.3026 0.7735
O2 O 0.66217(13) -0.09775(17) 0.72933(7)
H21 H 0.7011(19) -0.149(3) 0.7268(11)
C23 C 0.61921(17) -0.1181(3) 0.77456(10)
H22 H 0.6607 -0.1345 0.7998
H23 H 0.5813 -0.1867 0.7713
H24 H 0.5866 -0.0469 0.7832
C9C C 0.76463(13) 0.1633(2) 0.54802(8)
C14C C 0.67427(13) 0.17224(19) 0.55110(7)
N6C N 0.54638(11) 0.13066(15) 0.65045(7)
K1C K 0.78575(3) -0.46022(4) 0.651737(18)
loop_
_geom_bond_atom_site_label_1
_geom_bond_atom_site_label_2
_geom_bond_site_symmetry_1
_geom_bond_site_symmetry_2
K1 N2 1_555 1_555
B1 H1 1_555 1_555
N1 B1 1_555 1_555
N2 N1 1_555 1_555
C1 K1 1_555 1_555
H2 C1 1_555 1_555
C2 C1 1_555 1_555
C3 C2 1_555 1_555
H3 C3 1_555 1_555
C4 C3 1_555 1_555
H4 C4 1_555 1_555
C5 C4 1_555 1_555
H5 C5 1_555 1_555
C6 C5 1_555 1_555
H6 C6 1_555 1_555
C7 N1 1_555 1_555
N3 B1 1_555 1_555
N4 K1 1_555 1_555
C8 N4 1_555 1_555
H7 C8 1_555 1_555
C9 C8 1_555 1_555
C10 C9 1_555 1_555
H8 C10 1_555 1_555
C11 C10 1_555 1_555
H9 C11 1_555 1_555
C12 C11 1_555 1_555
H10 C12 1_555 1_555
C13 C12 1_555 1_555
H11 C13 1_555 1_555
C14 N3 1_555 1_555
N5 B1 1_555 1_555
N6 N5 1_555 1_555
C15 N6 1_555 1_555
H12 C15 1_555 1_555
C16 C15 1_555 1_555
C17 C16 1_555 1_555
H13 C17 1_555 1_555
C18 C17 1_555 1_555
H14 C18 1_555 1_555
C19 C18 1_555 1_555
H15 C19 1_555 1_555
C20 C19 1_555 1_555
H16 C20 1_555 1_555
C21 N5 1_555 1_555
O1 K1 1_555 1_555
H17 O1 1_555 1_555
C22 O1 1_555 1_555
H18 C22 1_555 1_555
H19 C22 1_555 1_555
H20 C22 1_555 1_555
O2 K1 1_555 1_555
H21 O2 1_555 1_555
C23 O2 1_555 1_555
H22 C23 1_555 1_555
H23 C23 1_555 1_555
H24 C23 1_555 1_555
C9C K1 1_555 1_555
C14C K1 1_555 1_555
N6C K1 1_555 1_555
K1C C9 1_555 1_555
N2 C1 1_555 1_555
C2 C7 1_555 1_555
C6 C7 1_555 1_555
N3 N4 1_555 1_555
C9 C14 1_555 1_555
C13 C14 1_555 1_555
C14 K1C 1_555 1_555
N6 K1C 1_555 1_555
C16 C21 1_555 1_555
C20 C21 1_555 1_555
C9C C14C 1_555 1_555

#END
