
#######################################################################
#
#                 Cambridge Crystallographic Data Centre
#                                CCDC 
#
#######################################################################
#
# If this CIF has been generated from an entry in the Cambridge 
# Structural Database, then it will include bibliographic, chemical, 
# crystal, experimental, refinement or atomic coordinate data resulting 
# from the CCDC's data processing and validation procedures.
#
#######################################################################

data_QUBYAO
_symmetry_cell_setting           monoclinic
_symmetry_space_group_name_H-M   'P 21/n'
_symmetry_Int_Tables_number      14
_space_group_name_Hall           '-P 2yn'
loop_
_symmetry_equiv_pos_site_id
_symmetry_equiv_pos_as_xyz
1 x,y,z
2 1/2-x,1/2+y,1/2-z
3 -x,-y,-z
4 1/2+x,1/2-y,1/2+z
_cell_length_a                   13.7248(6)
_cell_length_b                   7.4407(3)
_cell_length_c                   19.3497(8)
_cell_angle_alpha                90
_cell_angle_beta                 103.046(2)
_cell_angle_gamma                90
_cell_volume                     1925.03
loop_
_atom_site_label
_atom_site_type_symbol
_atom_site_fract_x
_atom_site_fract_y
_atom_site_fract_z
Eu1 Eu 0.803543(10) 0.929188(19) 0.141883(7)
Ag1 Ag 0.88550(3) 1.46644(6) 0.01257(3)
O1 O 0.88245(16) 0.6643(3) 0.20358(12)
O2 O 0.9984(2) 0.4488(3) 0.21804(16)
O3 O 0.87825(17) 1.1466(3) 0.07434(12)
O4 O 0.7323(2) 0.6037(4) -0.06263(14)
O5 O 0.79905(17) 0.7153(3) 0.04381(12)
O6 O 1.0113(2) 1.2693(4) 0.04524(16)
O7 O 0.70244(17) 1.1954(3) 0.13929(11)
O8 O 0.5992(2) 1.4050(3) 0.08108(16)
O9 O 0.66458(16) 0.7241(3) 0.13936(10)
H1 H 0.6585(11) 0.709(3) 0.1813(3)
H2 H 0.654(2) 0.6324(9) 0.1133(4)
O10 O 0.74538(17) 0.9291(3) 0.25077(12)
H3 H 0.7835(7) 0.8789(14) 0.2850(4)
H4 H 0.7125(6) 1.0193(9) 0.2569(5)
O11 O 0.91626(17) 1.1228(3) 0.23183(12)
H5 H 0.9620(6) 1.0565(11) 0.2545(8)
H6 H 0.9346(10) 1.2252(8) 0.2214(9)
N1 N 0.98176(19) 0.8692(4) 0.13423(14)
N2 N 0.67940(18) 0.9918(3) 0.02637(13)
C1 C 0.9652(2) 0.5995(4) 0.19767(18)
C2 C 1.0280(2) 0.7191(5) 0.1620(2)
C3 C 1.1244(3) 0.6782(6) 0.1570(3)
H9 H 1.1545 0.5709 0.1750
C4 C 1.1742(3) 0.8008(7) 0.1245(3)
H10 H 1.2392 0.7770 0.1202
C5 C 1.1281(3) 0.9591(6) 0.0981(3)
H11 H 1.1624 1.0450 0.0779
C6 C 1.0300(2) 0.9877(5) 0.10218(19)
C7 C 0.9705(3) 1.1471(5) 0.07255(19)
C8 C 0.7371(2) 0.7207(4) -0.01583(16)
C9 C 0.6693(2) 0.8817(4) -0.02945(16)
C10 C 0.6063(3) 0.9208(5) -0.09419(19)
H12 H 0.6014 0.8429 -0.1324
C11 C 0.5506(3) 1.0780(5) -0.10122(19)
H13 H 0.5074 1.1070 -0.1441
C12 C 0.5606(3) 1.1907(5) -0.04331(19)
H14 H 0.5240 1.2967 -0.0465
C13 C 0.6256(2) 1.1434(4) 0.01913(17)
C14 C 0.6433(2) 1.2592(4) 0.08442(17)
Ag1_2 Ag 0.88550(3) 0.46644(6) 0.01257(3)
O4_2 O 0.7323(2) 1.6037(4) -0.06263(14)
O5_2 O 0.79905(17) 1.7153(3) 0.04381(12)
H7 H 0.1091(5) 0.991(4) 0.3023(4)
O12 O 0.0656(4) 0.9735(7) 0.3269(2)
H8 H 0.0889(16) 0.963(6) 0.3708(3)
loop_
_geom_bond_atom_site_label_1
_geom_bond_atom_site_label_2
_geom_bond_site_symmetry_1
_geom_bond_site_symmetry_2
Eu1 O1 1_555 1_555
Ag1 O3 1_555 1_555
O1 C1 1_555 1_555
O2 C1 1_555 1_555
O3 Eu1 1_555 1_555
O4 C8 1_555 1_555
O5 Eu1 1_555 1_555
O6 Ag1 1_555 1_555
O7 Eu1 1_555 1_555
O8 C14 1_555 1_555
O9 Eu1 1_555 1_555
H1 O9 1_555 1_555
H2 O9 1_555 1_555
O10 Eu1 1_555 1_555
H3 O10 1_555 1_555
H4 O10 1_555 1_555
O11 Eu1 1_555 1_555
H5 O11 1_555 1_555
H6 O11 1_555 1_555
H7 O12 1_555 1_555
O12 H8 1_555 1_555
N1 Eu1 1_555 1_555
N2 Eu1 1_555 1_555
C1 C2 1_555 1_555
C2 N1 1_555 1_555
C3 C2 1_555 1_555
H9 C3 1_555 1_555
C4 C3 1_555 1_555
H10 C4 1_555 1_555
C5 C4 1_555 1_555
H11 C5 1_555 1_555
C6 N1 1_555 1_555
C7 O3 1_555 1_555
C8 O5 1_555 1_555
C9 N2 1_555 1_555
C10 C9 1_555 1_555
H12 C10 1_555 1_555
C11 C10 1_555 1_555
H13 C11 1_555 1_555
C12 C11 1_555 1_555
H14 C12 1_555 1_555
C13 N2 1_555 1_555
C14 O7 1_555 1_555
Ag1_2 O4 1_555 1_555
O4_2 Ag1 1_555 1_555
O5_2 Ag1 1_555 1_555
O5 Ag1_2 1_555 1_555
O6 C7 1_555 1_555
C5 C6 1_555 1_555
C6 C7 1_555 1_555
C8 C9 1_555 1_555
C12 C13 1_555 1_555
C13 C14 1_555 1_555

#END
