
#######################################################################
#
#                 Cambridge Crystallographic Data Centre
#                                CCDC 
#
#######################################################################
#
# If this CIF has been generated from an entry in the Cambridge 
# Structural Database, then it will include bibliographic, chemical, 
# crystal, experimental, refinement or atomic coordinate data resulting 
# from the CCDC's data processing and validation procedures.
#
#######################################################################

data_QUCCIB
_symmetry_cell_setting           monoclinic
_symmetry_space_group_name_H-M   'C 2/c'
_symmetry_Int_Tables_number      15
_space_group_name_Hall           '-C 2yn'
loop_
_symmetry_equiv_pos_site_id
_symmetry_equiv_pos_as_xyz
1 x,y,z
2 -x,y,1/2-z
3 1/2+x,1/2+y,z
4 1/2-x,1/2+y,1/2-z
5 -x,-y,-z
6 x,-y,1/2+z
7 1/2-x,1/2-y,-z
8 1/2+x,1/2-y,1/2+z
_cell_length_a                   11.177(3)
_cell_length_b                   12.449(3)
_cell_length_c                   17.312(4)
_cell_angle_alpha                90
_cell_angle_beta                 91.655(4)
_cell_angle_gamma                90
_cell_volume                     2407.83
loop_
_atom_site_label
_atom_site_type_symbol
_atom_site_fract_x
_atom_site_fract_y
_atom_site_fract_z
Cu1 Cu 1.0000 0.5000 0.0000
N1 N 1.1092(2) 0.1933(2) 0.06359(16)
N2 N 1.1152(3) 0.1788(2) -0.01363(17)
N3 N 1.0493(2) 0.3437(2) 0.01382(15)
N4 N 0.8317(2) 0.0666(2) 0.09733(15)
N5 N 0.8401(2) 0.1305(2) 0.03421(16)
N6 N 0.6637(2) 0.0474(2) 0.03457(16)
C1 C 1.0779(3) 0.2711(3) -0.0409(2)
H1 H 1.0716 0.2857 -0.0936
C2 C 1.0699(3) 0.2906(2) 0.07910(19)
H2 H 1.0585 0.3178 0.1284
C3 C 1.1409(3) 0.1067(3) 0.1175(2)
H3 H 1.1547 0.1370 0.1686
H4 H 1.2151 0.0740 0.1018
C4 C 1.0458(3) 0.0208(3) 0.1216(2)
H5 H 1.0769 -0.0380 0.1531
H6 H 1.0297 -0.0070 0.0700
C5 C 0.9283(3) 0.0588(3) 0.1550(2)
H7 H 0.9050 0.0093 0.1951
H8 H 0.9406 0.1287 0.1787
C6 C 0.7370(3) 0.1162(3) -0.0014(2)
H9 H 0.7158 0.1505 -0.0476
C7 C 0.7269(3) 0.0179(3) 0.0965(2)
H10 H 0.7015 -0.0299 0.1339
O4 O 0.9447(3) 0.5006(2) 0.13626(15)
H11 H 0.9082 0.4529 0.1616
H12 H 0.9664 0.5569 0.1606
Cu1B Cu 0.5000 0.0000 0.0000
Cu1B_2 Cu 1.5000 1.0000 0.0000
N1D N 0.8908(2) 0.8067(2) -0.06359(16)
N2D N 0.8848(3) 0.8212(2) 0.01363(17)
N3D N 0.9507(2) 0.6563(2) -0.01382(15)
N4D N 1.1683(2) 0.9334(2) -0.09733(15)
N5D N 1.1599(2) 0.8695(2) -0.03421(16)
N6D N 1.3363(2) 0.9526(2) -0.03457(16)
N6B N 1.1637(2) 0.5474(2) 0.03457(16)
N6F N 0.8363(2) 0.4526(2) -0.03457(16)
C1D C 0.9221(3) 0.7289(3) 0.0409(2)
H1D H 0.9284 0.7143 0.0936
C2D C 0.9301(3) 0.7094(2) -0.07910(19)
H2D H 0.9415 0.6822 -0.1284
C3D C 0.8591(3) 0.8933(3) -0.1175(2)
H3D H 0.8453 0.8630 -0.1686
H4D H 0.7849 0.9260 -0.1018
C4D C 0.9542(3) 0.9792(3) -0.1216(2)
H5D H 0.9231 1.0380 -0.1531
H6D H 0.9703 1.0070 -0.0700
C5D C 1.0717(3) 0.9412(3) -0.1550(2)
H7D H 1.0950 0.9907 -0.1951
H8D H 1.0594 0.8713 -0.1787
C6D C 1.2630(3) 0.8838(3) 0.0014(2)
H9D H 1.2842 0.8495 0.0476
C7D C 1.2731(3) 0.9821(3) -0.0965(2)
H10D H 1.2985 1.0299 -0.1339
O4D O 1.0553(3) 0.4994(2) -0.13626(15)
H11D H 1.0918 0.5471 -0.1616
H12D H 1.0336 0.4431 -0.1606
N7 N 0.2452(3) 0.3129(3) 0.2674(2)
O1 O 0.2728(6) 0.2639(6) 0.3235(3)
O2 O 0.3137(4) 0.3107(5) 0.2130(3)
O3 O 0.1580(7) 0.3633(8) 0.2599(3)
O5 O 0.0000 0.6545(3) 0.2500
H13 H 0.0564 0.7003 0.2495
H13A H -0.0564 0.7003 0.2505
O6? O 0.293(2) 0.2228(13) 0.2776(16)
O7? O 0.1369(11) 0.3192(19) 0.2856(14)
O8? O 0.2982(18) 0.3883(13) 0.2421(14)
loop_
_geom_bond_atom_site_label_1
_geom_bond_atom_site_label_2
_geom_bond_site_symmetry_1
_geom_bond_site_symmetry_2
Cu1 N3 1_555 1_555
N1 N2 1_555 1_555
N2 C1 1_555 1_555
N3 C1 1_555 1_555
N4 N5 1_555 1_555
N5 C6 1_555 1_555
N6 C6 1_555 1_555
C1 H1 1_555 1_555
C2 N1 1_555 1_555
H2 C2 1_555 1_555
C3 N1 1_555 1_555
H3 C3 1_555 1_555
H4 C3 1_555 1_555
C4 C3 1_555 1_555
H5 C4 1_555 1_555
H6 C4 1_555 1_555
C5 N4 1_555 1_555
H7 C5 1_555 1_555
H8 C5 1_555 1_555
C6 H9 1_555 1_555
C7 N4 1_555 1_555
H10 C7 1_555 1_555
N7 O1 1_555 1_555
O2 N7 1_555 1_555
O3 N7 1_555 1_555
O4 Cu1 1_555 1_555
H11 O4 1_555 1_555
H12 O4 1_555 1_555
O5 H13 1_555 1_555
Cu1B N6 1_555 1_555
Cu1B_2 N6D 1_555 1_555
N1D N2D 1_555 1_555
N2D C1D 1_555 1_555
N3D Cu1 1_555 1_555
N4D N5D 1_555 1_555
N5D C6D 1_555 1_555
N6D C6D 1_555 1_555
N6B Cu1 1_555 1_555
N6F Cu1 1_555 1_555
C1D N3D 1_555 1_555
H1D C1D 1_555 1_555
C2D N1D 1_555 1_555
H2D C2D 1_555 1_555
C3D N1D 1_555 1_555
H3D C3D 1_555 1_555
H4D C3D 1_555 1_555
C4D C3D 1_555 1_555
H5D C4D 1_555 1_555
H6D C4D 1_555 1_555
C5D N4D 1_555 1_555
H7D C5D 1_555 1_555
H8D C5D 1_555 1_555
C6D H9D 1_555 1_555
C7D N4D 1_555 1_555
H10D C7D 1_555 1_555
O4D Cu1 1_555 1_555
H11D O4D 1_555 1_555
H12D O4D 1_555 1_555
H13A O5 1_555 1_555
N3 C2 1_555 1_555
N6 C7 1_555 1_555
C4 C5 1_555 1_555
N3D C2D 1_555 1_555
N6D C7D 1_555 1_555
C4D C5D 1_555 1_555

#END
