
#######################################################################
#
#                 Cambridge Crystallographic Data Centre
#                                CCDC 
#
#######################################################################
#
# If this CIF has been generated from an entry in the Cambridge 
# Structural Database, then it will include bibliographic, chemical, 
# crystal, experimental, refinement or atomic coordinate data resulting 
# from the CCDC's data processing and validation procedures.
#
#######################################################################

data_QUCGEB
_symmetry_cell_setting           monoclinic
_symmetry_space_group_name_H-M   'P 21/c'
_symmetry_Int_Tables_number      14
_space_group_name_Hall           '-P 2ybc'
loop_
_symmetry_equiv_pos_site_id
_symmetry_equiv_pos_as_xyz
1 x,y,z
2 -x,1/2+y,1/2-z
3 -x,-y,-z
4 x,1/2-y,1/2+z
_cell_length_a                   12.8267(11)
_cell_length_b                   18.3219(15)
_cell_length_c                   16.7197(10)
_cell_angle_alpha                90
_cell_angle_beta                 119.989(4)
_cell_angle_gamma                90
_cell_volume                     3403.24
loop_
_atom_site_label
_atom_site_type_symbol
_atom_site_fract_x
_atom_site_fract_y
_atom_site_fract_z
Mn1 Mn -0.17651(4) -0.34583(2) 0.22410(3)
S1 S 0.49716(7) -0.28167(4) 0.58988(5)
S2 S 0.31804(6) -0.29936(4) 0.49668(5)
O1 O 0.08644(17) -0.31820(12) 0.38122(14)
O2 O -0.01362(17) -0.31846(12) 0.22892(14)
O3 O 0.73250(18) -0.25437(11) 0.69145(16)
O4 O 0.8689(2) -0.32620(13) 0.79592(17)
N1 N -0.2507(2) -0.37311(13) 0.07076(15)
N2 N -0.38325(19) -0.39268(12) 0.15489(15)
N3 N -0.1817(2) -0.36620(14) 0.35626(16)
N4 N -0.1148(2) -0.46339(13) 0.26842(18)
C1 C -0.1851(3) -0.36745(17) 0.0302(2)
C2 C -0.2331(3) -0.3758(2) -0.0646(2)
C3 C -0.3531(4) -0.38746(18) -0.1191(2)
C4 C -0.4252(3) -0.39356(16) -0.07957(19)
C5 C -0.5516(3) -0.40680(18) -0.1320(2)
C6 C -0.6177(3) -0.41452(18) -0.0915(2)
C7 C -0.5644(3) -0.41030(15) 0.0066(2)
C8 C -0.6300(3) -0.42031(17) 0.0518(3)
C9 C -0.5729(3) -0.41726(18) 0.1452(3)
C10 C -0.4496(3) -0.40331(17) 0.1942(2)
C11 C -0.4404(2) -0.39659(14) 0.06130(19)
C12 C -0.3696(2) -0.38726(13) 0.01737(18)
C13 C -0.2132(3) -0.3183(2) 0.4003(2)
C14 C -0.2331(3) -0.3376(3) 0.4723(2)
C15 C -0.2183(3) -0.4079(3) 0.5000(3)
C16 C -0.1834(3) -0.4606(2) 0.4572(2)
C17 C -0.1619(3) -0.5365(3) 0.4840(3)
C18 C -0.1265(4) -0.5835(3) 0.4415(3)
C19 C -0.1097(3) -0.56169(19) 0.3673(3)
C20 C -0.0700(3) -0.6082(2) 0.3213(4)
C21 C -0.0507(3) -0.5831(2) 0.2538(3)
C22 C -0.0754(3) -0.50955(18) 0.2286(3)
C23 C -0.1305(2) -0.48828(16) 0.3376(2)
C24 C -0.1663(2) -0.43674(18) 0.3844(2)
C25 C 0.0819(2) -0.31284(14) 0.3061(2)
C26 C 0.1968(2) -0.29911(13) 0.30474(18)
C27 C 0.1924(3) -0.29218(15) 0.2204(2)
C28 C 0.2948(3) -0.28131(18) 0.2144(2)
C29 C 0.4040(3) -0.27815(18) 0.2940(2)
C30 C 0.4127(3) -0.28476(16) 0.3790(2)
C31 C 0.3091(2) -0.29420(13) 0.38594(19)
C32 C 0.5624(2) -0.37108(14) 0.62171(18)
C33 C 0.4918(3) -0.43378(17) 0.5900(2)
C34 C 0.5419(3) -0.50228(18) 0.6173(3)
C35 C 0.6624(3) -0.50987(17) 0.6763(2)
C36 C 0.7333(3) -0.44861(16) 0.7096(2)
C37 C 0.6853(2) -0.37882(14) 0.68310(17)
C38 C 0.7696(2) -0.31497(16) 0.7255(2)
H1 H -0.10340 -0.35750 0.06660
H2 H -0.18350 -0.37340 -0.09040
H3 H -0.38680 -0.39130 -0.18270
H4 H -0.58870 -0.41010 -0.19600
H5 H -0.70000 -0.42280 -0.12760
H6 H -0.71240 -0.42900 0.01800
H7 H -0.61540 -0.42440 0.17630
H8 H -0.41170 -0.40140 0.25820
H9 H -0.22250 -0.26970 0.38210
H10 H -0.25610 -0.30260 0.50070
H11 H -0.23130 -0.42150 0.54790
H12 H -0.17290 -0.55290 0.53190
H13 H -0.11240 -0.63180 0.46100
H14 H -0.05670 -0.65720 0.33760
H15 H -0.02200 -0.61380 0.22490
H16 H -0.06350 -0.49230 0.18150
H17 H 0.11820 -0.29490 0.16630
H18 H 0.28970 -0.27620 0.15720
H19 H 0.47340 -0.27140 0.29050
H20 H 0.48790 -0.28300 0.43220
H21 H 0.40940 -0.42940 0.54980
H22 H 0.49320 -0.54350 0.59530
H23 H 0.69640 -0.55610 0.69390
H24 H 0.81530 -0.45390 0.75070
Mn1C Mn 0.82349(4) -0.15417(2) 0.72410(3)
O3C O -0.26750(18) -0.24563(11) 0.19145(16)
O5 O 0.0758(8) -0.0482(5) 0.4927(9)
C39 C 0.0897(12) -0.0435(7) 0.5697(8)
H25 H 0.09040 -0.09100 0.48120
H26 H 0.03240 -0.00960 0.56930
H27 H 0.16980 -0.02660 0.61150
H28 H 0.07810 -0.09050 0.58930
O6 O 0.0555(3) -0.1944(2) 0.4728(2)
H29 H -0.00090 -0.18860 0.41740
H30 H 0.11950 -0.21100 0.47610
loop_
_geom_bond_atom_site_label_1
_geom_bond_atom_site_label_2
_geom_bond_site_symmetry_1
_geom_bond_site_symmetry_2
Mn1 O2 1_555 1_555
S1 S2 1_555 1_555
S2 C31 1_555 1_555
O1 C25 1_555 1_555
O2 C25 1_555 1_555
O3 C38 1_555 1_555
O4 C38 1_555 1_555
N1 Mn1 1_555 1_555
N2 Mn1 1_555 1_555
N3 Mn1 1_555 1_555
N4 Mn1 1_555 1_555
C1 N1 1_555 1_555
C2 C1 1_555 1_555
C3 C2 1_555 1_555
C4 C3 1_555 1_555
C5 C4 1_555 1_555
C6 C5 1_555 1_555
C7 C6 1_555 1_555
C8 C7 1_555 1_555
C9 C8 1_555 1_555
C10 N2 1_555 1_555
C11 N2 1_555 1_555
C12 N1 1_555 1_555
C13 N3 1_555 1_555
C14 C13 1_555 1_555
C15 C14 1_555 1_555
C16 C15 1_555 1_555
C17 C16 1_555 1_555
C18 C17 1_555 1_555
C19 C18 1_555 1_555
C20 C19 1_555 1_555
C21 C20 1_555 1_555
C22 N4 1_555 1_555
C23 N4 1_555 1_555
C24 N3 1_555 1_555
C25 C26 1_555 1_555
C26 C27 1_555 1_555
C27 C28 1_555 1_555
C28 C29 1_555 1_555
C29 C30 1_555 1_555
C30 C31 1_555 1_555
C31 C26 1_555 1_555
C32 S1 1_555 1_555
C33 C32 1_555 1_555
C34 C33 1_555 1_555
C35 C34 1_555 1_555
C36 C35 1_555 1_555
C37 C32 1_555 1_555
C38 C37 1_555 1_555
O5 C39 1_555 1_555
C39 H26 1_555 1_555
O6 H29 1_555 1_555
H1 C1 1_555 1_555
H2 C2 1_555 1_555
H3 C3 1_555 1_555
H4 C5 1_555 1_555
H5 C6 1_555 1_555
H6 C8 1_555 1_555
H7 C9 1_555 1_555
H8 C10 1_555 1_555
H9 C13 1_555 1_555
H10 C14 1_555 1_555
H11 C15 1_555 1_555
H12 C17 1_555 1_555
H13 C18 1_555 1_555
H14 C20 1_555 1_555
H15 C21 1_555 1_555
H16 C22 1_555 1_555
H17 C27 1_555 1_555
H18 C28 1_555 1_555
H19 C29 1_555 1_555
H20 C30 1_555 1_555
H21 C33 1_555 1_555
H22 C34 1_555 1_555
H23 C35 1_555 1_555
H24 C36 1_555 1_555
H25 O5 1_555 1_555
H27 C39 1_555 1_555
H28 C39 1_555 1_555
H30 O6 1_555 1_555
Mn1C O3 1_555 1_555
O3C Mn1 1_555 1_555
C4 C12 1_555 1_555
C7 C11 1_555 1_555
C9 C10 1_555 1_555
C11 C12 1_555 1_555
C16 C24 1_555 1_555
C19 C23 1_555 1_555
C21 C22 1_555 1_555
C23 C24 1_555 1_555
C36 C37 1_555 1_555

#END
