
#######################################################################
#
#                 Cambridge Crystallographic Data Centre
#                                CCDC 
#
#######################################################################
#
# If this CIF has been generated from an entry in the Cambridge 
# Structural Database, then it will include bibliographic, chemical, 
# crystal, experimental, refinement or atomic coordinate data resulting 
# from the CCDC's data processing and validation procedures.
#
#######################################################################

data_QUCJIJ
_symmetry_cell_setting           triclinic
_symmetry_space_group_name_H-M   'P 1'
_symmetry_Int_Tables_number      1
_space_group_name_Hall           'P 1'
loop_
_symmetry_equiv_pos_site_id
_symmetry_equiv_pos_as_xyz
1 x,y,z
_cell_length_a                   10.2968(6)
_cell_length_b                   13.7993(8)
_cell_length_c                   17.7819(9)
_cell_angle_alpha                80.207(4)
_cell_angle_beta                 84.697(4)
_cell_angle_gamma                69.378(5)
_cell_volume                     2328.81
loop_
_atom_site_label
_atom_site_type_symbol
_atom_site_fract_x
_atom_site_fract_y
_atom_site_fract_z
Cu1 Cu 0.49555(12) 0.91451(9) -0.27660(8)
Cu2 Cu 0.85923(12) 0.93891(9) 0.30127(7)
Fe1 Fe -0.01820(12) 0.93002(9) -0.26370(8)
Fe2 Fe 0.36498(12) 0.93611(9) 0.28674(7)
N1 N -0.3201(11) 0.9540(9) -0.2069(7)
N2 N -0.1257(11) 0.9261(7) -0.4188(6)
N3 N 0.2793(12) 0.8995(8) -0.3256(6)
N4 N 0.0462(9) 0.9302(7) -0.1630(5)
N5 N -0.0331(9) 1.2078(6) -0.2069(6)
N6 N -0.0561(9) 1.0796(6) -0.2675(5)
N7 N 0.1236(10) 0.6526(7) -0.1208(6)
N8 N 0.0354(10) 0.7815(7) -0.2235(6)
N9 N 0.0593(11) 0.9661(8) 0.3530(6)
N10 N 0.4746(10) 0.9378(7) 0.4444(6)
N11 N 0.6741(11) 0.9046(8) 0.2369(7)
N12 N 0.3000(9) 0.9337(7) 0.1900(5)
N13 N 0.3108(9) 1.0854(6) 0.2457(5)
N14 N 0.2256(11) 1.2096(7) 0.1454(6)
N15 N 0.4043(9) 0.7857(7) 0.2923(5)
N16 N 0.3830(11) 0.6566(7) 0.2336(6)
N17 N 0.7225(10) 1.0847(7) 0.3068(6)
H1 H 0.6360 1.0873 0.2992
H2 H 0.7234 1.1026 0.3531
N18 N 0.9131(10) 0.9986(7) 0.1966(6)
H3 H 0.9974 1.0042 0.1974
H4 H 0.9171 0.9558 0.1628
N19 N 0.8040(10) 0.8725(7) 0.4058(5)
H5 H 0.8411 0.8891 0.4436
H6 H 0.7110 0.8950 0.4129
N20 N 0.9982(11) 0.7938(7) 0.2938(6)
H7 H 0.9704 0.7636 0.2603
H8 H 1.0820 0.7976 0.2779
N21 N 0.5386(10) 0.9806(7) -0.3803(7)
H9 H 0.6264 0.9803 -0.3827
H10 H 0.5311 0.9435 -0.4157
N22 N 0.3698(10) 1.0606(7) -0.2653(6)
H11 H 0.2811 1.0675 -0.2718
H12 H 0.3759 1.0743 -0.2183
N23 N 0.4380(11) 0.8481(8) -0.1743(7)
H13 H 0.4675 0.8697 -0.1362
H14 H 0.3449 0.8675 -0.1700
N24 N 0.6418(10) 0.7722(7) -0.2766(7)
H15 H 0.6237 0.7398 -0.3121
H16 H 0.7255 0.7787 -0.2882
C1 C -0.2105(13) 0.9469(9) -0.2259(7)
C2 C -0.0826(13) 0.9272(8) -0.3642(8)
C3 C 0.1694(14) 0.9115(9) -0.3061(7)
C4 C 0.0965(14) 0.6106(8) -0.1802(8)
C5 C 0.0459(12) 0.6882(8) -0.2443(7)
C6 C 0.0104(12) 0.6612(9) -0.3095(7)
H17 H -0.0271 0.7118 -0.3509
C7 C 0.0324(12) 0.5582(8) -0.3106(7)
H18 H 0.0093 0.5398 -0.3542
C8 C 0.0865(12) 0.4798(9) -0.2513(7)
H19 H 0.1016 0.4108 -0.2568
C9 C 0.1191(12) 0.5014(9) -0.1837(8)
H20 H 0.1536 0.4491 -0.1428
C10 C 0.0953(10) 0.8392(8) -0.1162(6)
C11 C 0.0836(12) 0.7534(8) -0.1523(7)
C12 C 0.1407(11) 0.8373(8) -0.0448(6)
H21 H 0.1646 0.7761 -0.0097
C13 C 0.1499(10) 0.9290(7) -0.0266(6)
C14 C 0.0979(10) 1.0229(8) -0.0749(6)
H22 H 0.0946 1.0856 -0.0607
C15 C 0.0488(11) 1.0206(8) -0.1481(7)
C16 C -0.0066(12) 1.1053(9) -0.2057(7)
C17 C -0.1018(11) 1.2561(8) -0.2754(7)
C18 C -0.1200(11) 1.1740(9) -0.3117(7)
C19 C -0.1924(11) 1.2009(9) -0.3805(7)
H23 H -0.2026 1.1503 -0.4056
C20 C -0.2471(12) 1.3064(9) -0.4083(7)
H24 H -0.2934 1.3271 -0.4540
C21 C -0.2343(13) 1.3863(9) -0.3681(8)
H25 H -0.2766 1.4567 -0.3870
C22 C -0.1631(13) 1.3596(8) -0.3052(7)
H26 H -0.1545 1.4114 -0.2808
C23 C 0.4123(10) 1.1335(7) -0.3230(6)
H27 H 0.5001 1.1353 -0.3072
C24 C 0.4414(10) 1.0896(7) -0.3964(5)
H28 H 0.3541 1.0869 -0.4121
C25 C 0.4913(14) 1.1576(10) -0.4592(8)
H29 H 0.5008 1.1294 -0.5066
H30 H 0.5821 1.1559 -0.4473
C26 C 0.3902(14) 1.2734(9) -0.4702(7)
H31 H 0.4314 1.3159 -0.5067
H32 H 0.3041 1.2769 -0.4906
C27 C 0.3588(14) 1.3174(8) -0.3934(7)
H33 H 0.2880 1.3864 -0.4005
H34 H 0.4420 1.3247 -0.3774
C28 C 0.3082(13) 1.2452(9) -0.3297(8)
H35 H 0.2987 1.2711 -0.2814
H36 H 0.2181 1.2456 -0.3418
C29 C 0.6427(11) 0.7105(7) -0.2015(6)
H37 H 0.6949 0.7322 -0.1682
C30 C 0.4995(12) 0.7339(8) -0.1690(7)
H38 H 0.4477 0.7117 -0.2021
C31 C 0.4874(18) 0.6793(13) -0.0895(11)
H39 H 0.3905 0.6946 -0.0735
H40 H 0.5323 0.7025 -0.0541
C32 C 0.5634(15) 0.5533(11) -0.0912(9)
H41 H 0.5627 0.5150 -0.0402
H42 H 0.5146 0.5294 -0.1241
C33 C 0.7144(14) 0.5343(10) -0.1216(8)
H43 H 0.7625 0.5590 -0.0888
H44 H 0.7629 0.4600 -0.1215
C34 C 0.7136(13) 0.5918(9) -0.2016(8)
H45 H 0.6642 0.5678 -0.2341
H46 H 0.8082 0.5773 -0.2219
C35 C 0.2026(12) 0.9305(9) 0.0473(7)
C36 C 0.2003(11) 1.0257(8) 0.0708(6)
H47 H 0.1637 1.0891 0.0390
C37 C 0.2499(12) 0.8393(8) 0.1034(7)
H48 H 0.2457 0.7761 0.0942
C38 C 0.3002(11) 0.8436(8) 0.1691(7)
C39 C 0.2519(12) 1.0238(8) 0.1400(7)
C40 C 0.2554(12) 1.1111(8) 0.1733(6)
C41 C 0.2535(11) 1.2580(8) 0.2013(7)
C42 C 0.2426(13) 1.3592(9) 0.2019(8)
H49 H 0.2115 1.4090 0.1592
C43 C 0.2769(13) 1.3870(8) 0.2643(8)
H50 H 0.2667 1.4567 0.2645
C44 C 0.3287(14) 1.3119(9) 0.3304(8)
H51 H 0.3525 1.3323 0.3729
C45 C 0.3434(12) 1.2048(8) 0.3300(7)
H52 H 0.3743 1.1539 0.3722
C46 C 0.3097(11) 1.1813(7) 0.2644(6)
C47 C 0.3612(10) 0.7571(7) 0.2318(6)
C48 C 0.4522(12) 0.6153(8) 0.3006(7)
C49 C 0.4653(11) 0.6902(8) 0.3380(6)
C50 C 0.5334(12) 0.6656(9) 0.4049(7)
H53 H 0.5427 0.7173 0.4291
C51 C 0.5884(14) 0.5602(9) 0.4353(7)
H54 H 0.6366 0.5415 0.4803
C52 C 0.5734(12) 0.4826(8) 0.4007(6)
H55 H 0.6095 0.4132 0.4235
C53 C 0.5051(13) 0.5061(8) 0.3319(7)
H56 H 0.4946 0.4545 0.3080
C54 C 0.1748(11) 0.9567(8) 0.3315(6)
C55 C 0.4294(11) 0.9374(8) 0.3835(6)
C56 C 0.5561(14) 0.9161(8) 0.2513(7)
C57 C 0.8596(10) 0.7574(7) 0.4047(5)
H57 H 0.8040 0.7409 0.3702
C58 C 1.0059(10) 0.7316(6) 0.3715(5)
H58 H 1.0598 0.7540 0.4032
C59 C 1.0773(13) 0.6131(9) 0.3695(8)
H59 H 1.0322 0.5915 0.3332
H60 H 1.1737 0.5990 0.3526
C60 C 1.0706(13) 0.5509(8) 0.4470(7)
H61 H 1.1104 0.4767 0.4435
H62 H 1.1247 0.5667 0.4820
C61 C 0.9233(13) 0.5765(10) 0.4769(8)
H63 H 0.9214 0.5350 0.5266
H64 H 0.8706 0.5578 0.4428
C62 C 0.8560(14) 0.6905(10) 0.4841(7)
H65 H 0.9051 0.7089 0.5203
H66 H 0.7607 0.7043 0.5028
C63 C 0.7646(12) 1.1574(8) 0.2467(7)
H67 H 0.8460 1.1680 0.2634
C64 C 0.8053(13) 1.1062(10) 0.1730(8)
H68 H 0.7233 1.0968 0.1558
C65 C 0.8517(15) 1.1804(12) 0.1110(9)
H69 H 0.9344 1.1887 0.1269
H70 H 0.8752 1.1499 0.0641
C66 C 0.7411(17) 1.2851(11) 0.0963(10)
H71 H 0.7755 1.3300 0.0579
H72 H 0.6619 1.2772 0.0758
C67 C 0.6952(17) 1.3360(10) 0.1651(10)
H73 H 0.6175 1.4004 0.1532
H74 H 0.7702 1.3538 0.1815
C68 C 0.6508(18) 1.2623(12) 0.2312(12)
H75 H 0.6290 1.2949 0.2772
H76 H 0.5678 1.2524 0.2175
Cu1_2 Cu -0.50445(12) 0.91451(9) -0.27660(8)
Cu2_2 Cu -0.14077(12) 0.93891(9) 0.30127(7)
N1_2 N 0.6799(11) 0.9540(9) -0.2069(7)
N9_2 N 1.0593(11) 0.9661(8) 0.3530(6)
O1 O 0.5745(10) 0.6628(8) 0.6156(6)
N25 N 0.3658(11) 0.6852(8) 0.5730(7)
C69 C 0.4702(15) 0.7201(10) 0.5824(8)
H77 H 0.4620 0.7890 0.5633
C70 C 0.2461(17) 0.7531(13) 0.5261(10)
H78 H 0.2496 0.8227 0.5145
H79 H 0.1611 0.7549 0.5540
H80 H 0.2503 0.7257 0.4794
C71 C 0.3741(17) 0.5815(11) 0.6016(11)
H81 H 0.3583 0.5491 0.5613
H82 H 0.3051 0.5819 0.6418
H83 H 0.4647 0.5427 0.6212
O2 O 0.7627(10) 0.2026(7) 0.4153(6)
N26 N 0.9832(12) 0.1803(9) 0.4510(7)
C72 C 0.8778(12) 0.1493(9) 0.4457(7)
H84 H 0.8891 0.0804 0.4666
C73 C 0.9739(16) 0.2916(12) 0.4194(12)
H85 H 0.8981 0.3228 0.3854
H86 H 1.0590 0.2911 0.3921
H87 H 0.9586 0.3315 0.4607
C74 C 1.1013(13) 0.1149(10) 0.4897(9)
H88 H 1.0900 0.0491 0.5100
H89 H 1.1146 0.1471 0.5308
H90 H 1.1808 0.1032 0.4551
O3 O 0.0789(11) 0.3678(7) 0.0261(6)
H91 H 0.0404 0.4249 0.0440
H92 H 0.1229 0.3221 0.0618
O4 O 0.1914(18) 0.5263(9) 0.0219(6)
H93 H 0.2751 0.5174 0.0300
H94 H 0.1707 0.5655 -0.0208
O5 O 0.3802(9) 0.5872(6) 0.0872(4)
O6 O 0.0940(15) 0.2633(7) 0.9065(7)
H95 H 0.0121 0.2749 0.8930
H96 H 0.1503 0.2281 0.8749
O7 O 0.3780(18) 0.122(3) 0.8980(14)
O8 O 0.642(4) 0.968(3) 0.013(3)
H97 H 0.6078 0.9539 -0.0216
C75 C 0.536(3) 1.070(3) 0.0418(13)
H98 H 0.5026 1.0531 0.0927
H99 H 0.4588 1.1002 0.0085
H100 H 0.5815 1.1203 0.0415
O9 O -0.0160(16) 0.7385(16) 0.1435(9)
O10 O 0.852(2) 0.9278(16) 0.0600(12)
O11 O 0.763(3) 0.613(3) 0.1794(16)
H101 H 0.6894 0.6186 0.1618
C76 C 0.855(2) 0.625(3) 0.1209(15)
H102 H 0.8312 0.6067 0.0757
H103 H 0.9472 0.5806 0.1347
H104 H 0.8509 0.6968 0.1113
loop_
_geom_bond_atom_site_label_1
_geom_bond_atom_site_label_2
_geom_bond_site_symmetry_1
_geom_bond_site_symmetry_2
Cu1 N3 1_555 1_555
Cu2 N11 1_555 1_555
Fe1 N4 1_555 1_555
Fe2 N12 1_555 1_555
N1 C1 1_555 1_555
N2 C2 1_555 1_555
N3 C3 1_555 1_555
N4 C10 1_555 1_555
N5 C16 1_555 1_555
N6 Fe1 1_555 1_555
N7 C4 1_555 1_555
N8 Fe1 1_555 1_555
N9 C54 1_555 1_555
N10 C55 1_555 1_555
N11 C56 1_555 1_555
N12 C38 1_555 1_555
N13 Fe2 1_555 1_555
N14 C40 1_555 1_555
N15 Fe2 1_555 1_555
N16 C47 1_555 1_555
N17 Cu2 1_555 1_555
H1 N17 1_555 1_555
H2 N17 1_555 1_555
N18 Cu2 1_555 1_555
H3 N18 1_555 1_555
H4 N18 1_555 1_555
N19 Cu2 1_555 1_555
H5 N19 1_555 1_555
H6 N19 1_555 1_555
N20 Cu2 1_555 1_555
H7 N20 1_555 1_555
H8 N20 1_555 1_555
N21 Cu1 1_555 1_555
H9 N21 1_555 1_555
H10 N21 1_555 1_555
N22 Cu1 1_555 1_555
H11 N22 1_555 1_555
H12 N22 1_555 1_555
N23 Cu1 1_555 1_555
H13 N23 1_555 1_555
H14 N23 1_555 1_555
N24 Cu1 1_555 1_555
H15 N24 1_555 1_555
H16 N24 1_555 1_555
C1 Fe1 1_555 1_555
C2 Fe1 1_555 1_555
C3 Fe1 1_555 1_555
C4 C5 1_555 1_555
C5 N8 1_555 1_555
C6 C5 1_555 1_555
H17 C6 1_555 1_555
C7 C6 1_555 1_555
H18 C7 1_555 1_555
C8 C7 1_555 1_555
H19 C8 1_555 1_555
C9 C4 1_555 1_555
H20 C9 1_555 1_555
C10 C11 1_555 1_555
C11 N7 1_555 1_555
C12 C10 1_555 1_555
H21 C12 1_555 1_555
C13 C12 1_555 1_555
C14 C13 1_555 1_555
H22 C14 1_555 1_555
C15 N4 1_555 1_555
C16 N6 1_555 1_555
C17 N5 1_555 1_555
C18 N6 1_555 1_555
C19 C18 1_555 1_555
H23 C19 1_555 1_555
C20 C19 1_555 1_555
H24 C20 1_555 1_555
C21 C20 1_555 1_555
H25 C21 1_555 1_555
C22 C17 1_555 1_555
H26 C22 1_555 1_555
C23 N22 1_555 1_555
H27 C23 1_555 1_555
C24 N21 1_555 1_555
H28 C24 1_555 1_555
C25 C24 1_555 1_555
H29 C25 1_555 1_555
H30 C25 1_555 1_555
C26 C25 1_555 1_555
H31 C26 1_555 1_555
H32 C26 1_555 1_555
C27 C26 1_555 1_555
H33 C27 1_555 1_555
H34 C27 1_555 1_555
C28 C23 1_555 1_555
H35 C28 1_555 1_555
H36 C28 1_555 1_555
C29 N24 1_555 1_555
H37 C29 1_555 1_555
C30 N23 1_555 1_555
H38 C30 1_555 1_555
C31 C30 1_555 1_555
H39 C31 1_555 1_555
H40 C31 1_555 1_555
C32 C31 1_555 1_555
H41 C32 1_555 1_555
H42 C32 1_555 1_555
C33 C32 1_555 1_555
H43 C33 1_555 1_555
H44 C33 1_555 1_555
C34 C29 1_555 1_555
H45 C34 1_555 1_555
H46 C34 1_555 1_555
C35 C13 1_555 1_555
C36 C35 1_555 1_555
H47 C36 1_555 1_555
C37 C35 1_555 1_555
H48 C37 1_555 1_555
C38 C37 1_555 1_555
C39 N12 1_555 1_555
C40 N13 1_555 1_555
C41 N14 1_555 1_555
C42 C41 1_555 1_555
H49 C42 1_555 1_555
C43 C42 1_555 1_555
H50 C43 1_555 1_555
C44 C43 1_555 1_555
H51 C44 1_555 1_555
C45 C44 1_555 1_555
H52 C45 1_555 1_555
C46 N13 1_555 1_555
C47 N15 1_555 1_555
C48 N16 1_555 1_555
C49 N15 1_555 1_555
C50 C49 1_555 1_555
H53 C50 1_555 1_555
C51 C50 1_555 1_555
H54 C51 1_555 1_555
C52 C51 1_555 1_555
H55 C52 1_555 1_555
C53 C48 1_555 1_555
H56 C53 1_555 1_555
C54 Fe2 1_555 1_555
C55 Fe2 1_555 1_555
C56 Fe2 1_555 1_555
C57 N19 1_555 1_555
H57 C57 1_555 1_555
C58 N20 1_555 1_555
H58 C58 1_555 1_555
C59 C58 1_555 1_555
H59 C59 1_555 1_555
H60 C59 1_555 1_555
C60 C59 1_555 1_555
H61 C60 1_555 1_555
H62 C60 1_555 1_555
C61 C60 1_555 1_555
H63 C61 1_555 1_555
H64 C61 1_555 1_555
C62 C57 1_555 1_555
H65 C62 1_555 1_555
H66 C62 1_555 1_555
C63 N17 1_555 1_555
H67 C63 1_555 1_555
C64 N18 1_555 1_555
H68 C64 1_555 1_555
C65 C64 1_555 1_555
H69 C65 1_555 1_555
H70 C65 1_555 1_555
C66 C65 1_555 1_555
H71 C66 1_555 1_555
H72 C66 1_555 1_555
C67 C66 1_555 1_555
H73 C67 1_555 1_555
H74 C67 1_555 1_555
C68 C63 1_555 1_555
H75 C68 1_555 1_555
H76 C68 1_555 1_555
O1 C69 1_555 1_555
N25 C69 1_555 1_555
C69 H77 1_555 1_555
C70 N25 1_555 1_555
H78 C70 1_555 1_555
H79 C70 1_555 1_555
H80 C70 1_555 1_555
C71 N25 1_555 1_555
H81 C71 1_555 1_555
H82 C71 1_555 1_555
H83 C71 1_555 1_555
O2 C72 1_555 1_555
N26 C72 1_555 1_555
C72 H84 1_555 1_555
C73 N26 1_555 1_555
H85 C73 1_555 1_555
H86 C73 1_555 1_555
H87 C73 1_555 1_555
C74 N26 1_555 1_555
H88 C74 1_555 1_555
H89 C74 1_555 1_555
H90 C74 1_555 1_555
O3 H91 1_555 1_555
H92 O3 1_555 1_555
O4 H93 1_555 1_555
H94 O4 1_555 1_555
O6 H95 1_555 1_555
H96 O6 1_555 1_555
O8 H97 1_555 1_555
C75 O8 1_555 1_555
H98 C75 1_555 1_555
H99 C75 1_555 1_555
H100 C75 1_555 1_555
O11 H101 1_555 1_555
C76 O11 1_555 1_555
H102 C76 1_555 1_555
H103 C76 1_555 1_555
H104 C76 1_555 1_555
Cu1_2 N1 1_555 1_555
Cu2_2 N9 1_555 1_555
N1_2 Cu1 1_555 1_555
N9_2 Cu2 1_555 1_555
N8 C11 1_555 1_555
C8 C9 1_555 1_555
C14 C15 1_555 1_555
C15 C16 1_555 1_555
C17 C18 1_555 1_555
C21 C22 1_555 1_555
C23 C24 1_555 1_555
C27 C28 1_555 1_555
C29 C30 1_555 1_555
C33 C34 1_555 1_555
C36 C39 1_555 1_555
C38 C47 1_555 1_555
C39 C40 1_555 1_555
C41 C46 1_555 1_555
C45 C46 1_555 1_555
C48 C49 1_555 1_555
C52 C53 1_555 1_555
C57 C58 1_555 1_555
C61 C62 1_555 1_555
C63 C64 1_555 1_555
C67 C68 1_555 1_555

#END
