
#######################################################################
#
#                 Cambridge Crystallographic Data Centre
#                                CCDC 
#
#######################################################################
#
# If this CIF has been generated from an entry in the Cambridge 
# Structural Database, then it will include bibliographic, chemical, 
# crystal, experimental, refinement or atomic coordinate data resulting 
# from the CCDC's data processing and validation procedures.
#
#######################################################################

data_QUCRIQ
_symmetry_cell_setting           orthorhombic
_symmetry_space_group_name_H-M   'P 21 21 21'
_symmetry_Int_Tables_number      19
_space_group_name_Hall           'P 2ac 2ab'
loop_
_symmetry_equiv_pos_site_id
_symmetry_equiv_pos_as_xyz
1 x,y,z
2 1/2-x,-y,1/2+z
3 -x,1/2+y,1/2-z
4 1/2+x,1/2-y,-z
_cell_length_a                   12.1540(5)
_cell_length_b                   12.3292(7)
_cell_length_c                   12.8100(8)
_cell_angle_alpha                90
_cell_angle_beta                 90
_cell_angle_gamma                90
_cell_volume                     1919.57
loop_
_atom_site_label
_atom_site_type_symbol
_atom_site_fract_x
_atom_site_fract_y
_atom_site_fract_z
Zn1 Zn 0.88271(9) 0.73392(10) 0.92913(11)
Zn2 Zn 1.12956(10) 0.81170(11) 1.01303(11)
O1 O 1.0530(6) 0.9473(7) 1.0278(8)
O2 O 0.8803(6) 0.8885(6) 0.9932(6)
O3 O 0.8727(6) 1.2429(9) 1.3506(7)
O4 O 0.6983(5) 1.2227(7) 1.3005(6)
O5 O 0.7804(5) 0.6645(7) 1.0276(6)
O6 O 1.0475(6) 0.7334(7) 0.9102(7)
O7 O 0.9419(9) 0.3372(12) 0.7841(13)
H1 H 0.9508 0.3037 0.7295
N1 N 0.9100(7) 0.5576(9) 0.8825(9)
C1 C 0.9081(9) 1.0746(9) 1.0449(10)
C2 C 0.9123(8) 1.0982(10) 1.1642(9)
C3 C 0.8421(9) 1.2013(11) 1.1719(10)
H2 H 0.8866 1.2631 1.1489
C4 C 0.7456(9) 1.1851(12) 1.0928(11)
H3 H 0.7283 1.2528 1.0578
H4 H 0.6803 1.1591 1.1283
C5 C 0.7880(8) 1.0989(9) 1.0125(9)
H5 H 0.7437 1.0335 1.0157
H6 H 0.7853 1.1274 0.9420
C6 C 0.987(2) 1.158(3) 0.981(2)
H7 H 0.9818 1.1437 0.9073
H8 H 1.0619 1.1493 1.0030
H9 H 0.9641 1.2316 0.9941
C7 C 1.0312(10) 1.1117(16) 1.2063(11)
H10 H 1.0289 1.1240 1.2803
H11 H 1.0656 1.1725 1.1727
H12 H 1.0726 1.0471 1.1921
C8 C 0.8665(12) 1.0069(10) 1.2233(11)
H13 H 0.8712 1.0220 1.2967
H14 H 0.9075 0.9423 1.2078
H15 H 0.7909 0.9965 1.2041
C9 C 0.9469(7) 0.9614(10) 1.0172(11)
C10 C 0.8001(11) 1.2242(11) 1.2835(10)
C11 C 0.8318(14) 0.4954(15) 0.9570(13)
H16 H 0.7638 0.4792 0.9205
H17 H 0.8656 0.4271 0.9765
C12 C 1.0172(14) 0.539(2) 0.9331(18)
H18 H 1.0457 0.4677 0.9176
H19 H 1.0122 0.5484 1.0082
C13 C 0.8757(19) 0.5200(13) 0.7832(13)
H20 H 0.9340 0.5340 0.7333
H21 H 0.8119 0.5615 0.7616
C14 C 0.8076(9) 0.5549(14) 1.0479(10)
H22 H 0.8708 0.5527 1.0941
H23 H 0.7465 0.5207 1.0838
C15 C 1.0917(10) 0.6325(11) 0.8811(13)
H24 H 1.1670 0.6263 0.9054
H25 H 1.0913 0.6252 0.8057
C16 C 0.8456(17) 0.3945(16) 0.779(2)
H26 H 0.7985 0.3755 0.8375
H27 H 0.8070 0.3779 0.7149
Zn1A Zn 0.61729(9) 1.26608(10) 1.42913(11)
Zn2B Zn 0.87044(10) 1.31170(11) 1.48697(11)
Zn2C Zn 0.62956(10) 0.68830(11) 0.98697(11)
O3B O 1.1273(6) 0.7429(9) 1.1494(7)
O4A O 0.8017(5) 0.7773(7) 0.8005(6)
O5C O 1.2804(5) 0.8355(7) 0.9724(6)
loop_
_geom_bond_atom_site_label_1
_geom_bond_atom_site_label_2
_geom_bond_site_symmetry_1
_geom_bond_site_symmetry_2
Zn1 O2 1_555 1_555
Zn2 O1 1_555 1_555
O1 C9 1_555 1_555
O2 C9 1_555 1_555
O3 C10 1_555 1_555
O4 C10 1_555 1_555
O5 Zn1 1_555 1_555
O6 Zn1 1_555 1_555
O7 H1 1_555 1_555
N1 Zn1 1_555 1_555
C1 C2 1_555 1_555
C2 C3 1_555 1_555
C3 H2 1_555 1_555
C4 C3 1_555 1_555
H3 C4 1_555 1_555
H4 C4 1_555 1_555
C5 C1 1_555 1_555
H5 C5 1_555 1_555
H6 C5 1_555 1_555
C6 C1 1_555 1_555
H7 C6 1_555 1_555
H8 C6 1_555 1_555
H9 C6 1_555 1_555
C7 C2 1_555 1_555
H10 C7 1_555 1_555
H11 C7 1_555 1_555
H12 C7 1_555 1_555
C8 C2 1_555 1_555
H13 C8 1_555 1_555
H14 C8 1_555 1_555
H15 C8 1_555 1_555
C9 C1 1_555 1_555
C10 C3 1_555 1_555
C11 N1 1_555 1_555
H16 C11 1_555 1_555
H17 C11 1_555 1_555
C12 N1 1_555 1_555
H18 C12 1_555 1_555
H19 C12 1_555 1_555
C13 N1 1_555 1_555
H20 C13 1_555 1_555
H21 C13 1_555 1_555
C14 O5 1_555 1_555
H22 C14 1_555 1_555
H23 C14 1_555 1_555
C15 O6 1_555 1_555
H24 C15 1_555 1_555
H25 C15 1_555 1_555
C16 O7 1_555 1_555
H26 C16 1_555 1_555
H27 C16 1_555 1_555
Zn1A O4 1_555 1_555
Zn2B O3 1_555 1_555
Zn2C O5 1_555 1_555
O3B Zn2 1_555 1_555
O4A Zn1 1_555 1_555
O5C Zn2 1_555 1_555
Zn2 O6 1_555 1_555
C4 C5 1_555 1_555
C11 C14 1_555 1_555
C12 C15 1_555 1_555
C13 C16 1_555 1_555

#END
