
#######################################################################
#
#                 Cambridge Crystallographic Data Centre
#                                CCDC 
#
#######################################################################
#
# If this CIF has been generated from an entry in the Cambridge 
# Structural Database, then it will include bibliographic, chemical, 
# crystal, experimental, refinement or atomic coordinate data resulting 
# from the CCDC's data processing and validation procedures.
#
#######################################################################

data_QUCTIS
_symmetry_cell_setting           triclinic
_symmetry_space_group_name_H-M   'P 1'
_symmetry_Int_Tables_number      1
_space_group_name_Hall           'P 1'
loop_
_symmetry_equiv_pos_site_id
_symmetry_equiv_pos_as_xyz
1 x,y,z
_cell_length_a                   6.7115(19)
_cell_length_b                   12.100(4)
_cell_length_c                   12.426(4)
_cell_angle_alpha                113.727(4)
_cell_angle_beta                 93.701(5)
_cell_angle_gamma                100.604(5)
_cell_volume                     897.197
loop_
_atom_site_label
_atom_site_type_symbol
_atom_site_fract_x
_atom_site_fract_y
_atom_site_fract_z
C1 C 0.6747(15) 0.5600(10) 0.5600(9)
C2 C 0.7858(13) 0.6176(9) 0.4870(9)
C3 C 0.6473(17) 0.6851(11) 0.4409(10)
H1 H 0.5038 0.6456 0.4316
H2 H 0.6696 0.7711 0.4975
C4 C 0.7027(15) 0.6775(9) 0.3222(9)
H3 H 0.5858 0.6322 0.2597
H4 H 0.7478 0.7598 0.3255
C5 C 0.8742(14) 0.6100(8) 0.3001(9)
H5 H 1.0046 0.6705 0.3391
C6 C 0.8317(15) 0.5221(9) 0.3651(9)
C7 C 0.8860(15) 0.5410(9) 0.1700(9)
C8 C 0.9739(16) 0.7135(11) 0.5688(10)
H6 H 1.0938 0.6991 0.5320
H7 H 0.9888 0.7068 0.6431
H8 H 0.9576 0.7952 0.5827
C9 C 1.0228(17) 0.4779(12) 0.3890(12)
H9 H 1.0056 0.3918 0.3367
H10 H 1.0416 0.4884 0.4701
H11 H 1.1409 0.5257 0.3752
C10 C 0.6393(17) 0.4161(10) 0.3025(10)
H12 H 0.6739 0.3505 0.2368
H13 H 0.5353 0.4468 0.2738
H14 H 0.5888 0.3850 0.3579
C11 C 0.5080(14) 0.3066(8) 0.8089(9)
C12 C 0.5358(13) 0.2232(8) 0.8735(8)
H15 H 0.6644 0.2634 0.9294
C13 C 0.5544(13) 0.0905(8) 0.7907(8)
C14 C 0.5153(13) 0.0281(8) 0.8777(9)
C15 C 0.3434(14) 0.0782(9) 0.9400(8)
H16 H 0.3546 0.0807 1.0192
H17 H 0.2112 0.0259 0.8955
C16 C 0.3649(16) 0.2089(10) 0.9469(11)
H18 H 0.4028 0.2705 1.0287
H19 H 0.2374 0.2177 0.9134
C17 C 0.4577(12) -0.1148(8) 0.8134(8)
C18 C 0.7101(14) 0.0571(9) 0.9650(9)
H20 H 0.6759 0.0323 1.0271
H21 H 0.7702 0.1445 0.9990
H22 H 0.8064 0.0125 0.9234
C19 C 0.3829(13) 0.0352(9) 0.6871(8)
H23 H 0.4327 0.0442 0.6197
H24 H 0.2735 0.0773 0.7079
H25 H 0.3330 -0.0513 0.6676
C20 C 0.7594(13) 0.0950(8) 0.7465(8)
H26 H 0.8022 0.0198 0.7341
H27 H 0.8595 0.1646 0.8045
H28 H 0.7464 0.1032 0.6728
C21 C 0.5620(14) 0.6735(9) 0.9857(9)
H29 H 0.4332 0.6410 0.9979
C22 C 0.8186(14) 0.6989(9) 0.8986(9)
H30 H 0.9100 0.6914 0.8443
C23 C 1.0420(17) 0.8794(9) 1.0732(9)
H31 H 1.0128 0.9612 1.1045
H32 H 1.1374 0.8764 1.0172
C24 C 1.1400(13) 0.8571(8) 1.1754(8)
H33 H 1.1565 0.7724 1.1457
H34 H 1.0513 0.8689 1.2358
C25 C 1.3514(13) 0.9481(9) 1.2305(10)
H35 H 1.4445 0.9288 1.1725
H36 H 1.3366 1.0319 1.2496
H37 H 1.3716 0.9819 1.4087
H38 H 1.4248 0.8556 1.3309
C26 C 1.4447(15) 0.9419(8) 1.3444(9)
C27 C 1.6712(15) 1.0029(9) 1.3819(10)
H39 H 1.7437 0.9687 1.3155
H40 H 1.7251 0.9852 1.4461
C28 C 1.7079(13) 1.1437(9) 1.4234(10)
H41 H 1.6510 1.1618 1.3602
H42 H 1.6394 1.1786 1.4916
C29 C 2.2269(12) 1.2485(9) 1.4324(9)
H43 H 2.3460 1.2544 1.3988
C30 C 2.0292(13) 1.2759(8) 1.5596(8)
H44 H 1.9765 1.3000 1.6308
Cd1 Cd 0.471654(19) 0.461753(19) 0.701133(19)
N1 N 0.6345(11) 0.6266(7) 0.8788(7)
N2 N 0.6921(12) 0.7675(7) 1.0673(7)
N3 N 0.8499(12) 0.7848(8) 1.0110(8)
N4 N 1.9233(11) 1.1988(7) 1.4550(7)
N5 N 2.0538(12) 1.1772(8) 1.3719(8)
N6 N 2.2205(11) 1.3140(7) 1.5492(8)
O1 O 0.7159(8) 0.4676(5) 0.5675(5)
O2 O 0.5386(13) 0.6001(8) 0.6167(7)
O3 O 0.7236(11) 0.4989(7) 0.0947(6)
H45 H 0.7550 0.4633 0.0259
O4 O 1.0545(10) 0.5281(7) 0.1393(7)
O5 O 0.6493(9) 0.3362(6) 0.7588(6)
O6 O 0.3461(12) 0.3416(8) 0.8092(8)
O7 O 0.5843(10) -0.1619(6) 0.7417(7)
H46 H 0.5440 -0.2405 0.7083
O8 O 0.3123(10) -0.1776(6) 0.8288(6)
O9 O 0.1859(8) 0.5636(6) 0.7528(6)
H47 H 0.2092 0.6369 0.7385
H48 H 0.1762 0.5860 0.8354
Cd1_2 Cd 2.471654(19) 1.461753(19) 1.701133(19)
N6_2 N 0.2205(11) 0.3140(7) 0.5492(8)
O10 O 0.0356(10) 0.4369(6) 0.9032(6)
H49 H 0.1254 0.3939 0.8850
H50 H 0.0578 0.4811 0.9779
loop_
_geom_bond_atom_site_label_1
_geom_bond_atom_site_label_2
_geom_bond_site_symmetry_1
_geom_bond_site_symmetry_2
C1 C2 1_555 1_555
C2 C3 1_555 1_555
C3 H1 1_555 1_555
H2 C3 1_555 1_555
C4 C3 1_555 1_555
H3 C4 1_555 1_555
H4 C4 1_555 1_555
C5 C4 1_555 1_555
H5 C5 1_555 1_555
C6 C2 1_555 1_555
C7 C5 1_555 1_555
C8 C2 1_555 1_555
H6 C8 1_555 1_555
H7 C8 1_555 1_555
H8 C8 1_555 1_555
C9 C6 1_555 1_555
H9 C9 1_555 1_555
H10 C9 1_555 1_555
H11 C9 1_555 1_555
C10 C6 1_555 1_555
H12 C10 1_555 1_555
H13 C10 1_555 1_555
H14 C10 1_555 1_555
C11 C12 1_555 1_555
C12 H15 1_555 1_555
C13 C12 1_555 1_555
C14 C13 1_555 1_555
C15 C14 1_555 1_555
H16 C15 1_555 1_555
H17 C15 1_555 1_555
C16 C12 1_555 1_555
H18 C16 1_555 1_555
H19 C16 1_555 1_555
C17 C14 1_555 1_555
C18 C14 1_555 1_555
H20 C18 1_555 1_555
H21 C18 1_555 1_555
H22 C18 1_555 1_555
C19 C13 1_555 1_555
H23 C19 1_555 1_555
H24 C19 1_555 1_555
H25 C19 1_555 1_555
C20 C13 1_555 1_555
H26 C20 1_555 1_555
H27 C20 1_555 1_555
H28 C20 1_555 1_555
C21 H29 1_555 1_555
C22 H30 1_555 1_555
C23 H31 1_555 1_555
H32 C23 1_555 1_555
C24 C23 1_555 1_555
H33 C24 1_555 1_555
H34 C24 1_555 1_555
C25 C24 1_555 1_555
H35 C25 1_555 1_555
H36 C25 1_555 1_555
H37 C26 1_555 1_555
H38 C26 1_555 1_555
C26 C25 1_555 1_555
C27 C26 1_555 1_555
H39 C27 1_555 1_555
H40 C27 1_555 1_555
C28 C27 1_555 1_555
H41 C28 1_555 1_555
H42 C28 1_555 1_555
C29 H43 1_555 1_555
C30 H44 1_555 1_555
Cd1 N1 1_555 1_555
N1 C21 1_555 1_555
N2 C21 1_555 1_555
N3 C22 1_555 1_555
N4 C28 1_555 1_555
N5 C29 1_555 1_555
N6 C29 1_555 1_555
O1 C1 1_555 1_555
O2 C1 1_555 1_555
O3 C7 1_555 1_555
H45 O3 1_555 1_555
O4 C7 1_555 1_555
O5 C11 1_555 1_555
O6 C11 1_555 1_555
O7 C17 1_555 1_555
H46 O7 1_555 1_555
O8 C17 1_555 1_555
O9 Cd1 1_555 1_555
H47 O9 1_555 1_555
H48 O9 1_555 1_555
O10 H49 1_555 1_555
H50 O10 1_555 1_555
Cd1_2 N6 1_555 1_555
N6_2 Cd1 1_555 1_555
C5 C6 1_555 1_555
C15 C16 1_555 1_555
C22 N1 1_555 1_555
C23 N3 1_555 1_555
C30 N4 1_555 1_555
C30 N6 1_555 1_555
Cd1 O1 1_555 1_555
Cd1 O2 1_555 1_555
Cd1 O5 1_555 1_555
Cd1 O6 1_555 1_555
N2 N3 1_555 1_555
N4 N5 1_555 1_555

#END
