
#######################################################################
#
#                 Cambridge Crystallographic Data Centre
#                                CCDC 
#
#######################################################################
#
# If this CIF has been generated from an entry in the Cambridge 
# Structural Database, then it will include bibliographic, chemical, 
# crystal, experimental, refinement or atomic coordinate data resulting 
# from the CCDC's data processing and validation procedures.
#
#######################################################################

data_QUCTOY
_symmetry_cell_setting           monoclinic
_symmetry_space_group_name_H-M   'P 21/n'
_symmetry_Int_Tables_number      14
_space_group_name_Hall           '-P 2yn'
loop_
_symmetry_equiv_pos_site_id
_symmetry_equiv_pos_as_xyz
1 x,y,z
2 1/2-x,1/2+y,1/2-z
3 -x,-y,-z
4 1/2+x,1/2-y,1/2+z
_cell_length_a                   9.6339(9)
_cell_length_b                   14.4436(13)
_cell_length_c                   10.0795(9)
_cell_angle_alpha                90
_cell_angle_beta                 101.7320(10)
_cell_angle_gamma                90
_cell_volume                     1373.24
loop_
_atom_site_label
_atom_site_type_symbol
_atom_site_fract_x
_atom_site_fract_y
_atom_site_fract_z
Cu1 Cu 0.70955(3) 0.10595(2) 0.68077(3)
C1 C 0.8450(3) -0.04232(19) 0.8742(3)
H1 H 0.7661 -0.0309 0.9117
C2 C 0.9347(3) -0.11267(19) 0.9271(3)
H2 H 0.9166 -0.1475 0.9993
C3 C 1.0520(3) -0.13168(19) 0.8727(3)
H3 H 1.1134 -0.1796 0.9068
C4 C 1.0757(2) -0.07748(17) 0.7662(2)
C5 C 0.9812(2) -0.00671(17) 0.7199(2)
H4 H 0.9988 0.0305 0.6499
C6 C 1.5883(2) -0.23996(17) 0.7132(2)
H5 H 1.5331 -0.2693 0.7663
C7 C 1.5311(2) -0.16480(16) 0.6352(2)
C8 C 1.6134(3) -0.12106(16) 0.5559(2)
H6 H 1.5787 -0.0701 0.5032
C9 C 1.7479(3) -0.15455(17) 0.5566(2)
H7 H 1.8045 -0.1272 0.5030
C10 C 1.7966(2) -0.22905(17) 0.6379(2)
H8 H 1.8878 -0.2505 0.6390
C11 C 1.1869(2) -0.09592(16) 0.6898(2)
C12 C 1.3851(2) -0.13395(16) 0.6306(2)
C13 C 0.4401(3) 0.10318(19) 0.7928(3)
H9 H 1.403(7) -0.180(4) 0.895(6)
H10 H 1.446(7) -0.099(4) 0.904(7)
N1 N 0.8657(2) 0.01090(14) 0.77069(19)
N2 N 1.7192(2) -0.27236(14) 0.7156(2)
N3 N 1.2926(2) -0.11140(14) 0.5200(2)
N4 N 1.1665(2) -0.08752(15) 0.5576(2)
N5 N 1.3221(2) -0.12493(14) 0.73954(19)
N6 N 1.3837(3) -0.1302(3) 0.8783(3)
N7 N 0.5359(2) 0.07357(18) 0.7565(3)
S1 S 0.30775(11) 0.14356(9) 0.85120(12)
Cu1A Cu 1.79045(3) -0.39405(2) 0.81923(3)
Cu1B Cu 1.29045(3) -0.10595(2) 0.31923(3)
N2A N 0.7808(2) 0.22764(14) 0.7844(2)
N3B N 0.7074(2) 0.11140(14) 0.4800(2)
loop_
_geom_bond_atom_site_label_1
_geom_bond_atom_site_label_2
_geom_bond_site_symmetry_1
_geom_bond_site_symmetry_2
Cu1 N1 1_555 1_555
C1 H1 1_555 1_555
C2 C1 1_555 1_555
H2 C2 1_555 1_555
C3 C2 1_555 1_555
H3 C3 1_555 1_555
C4 C3 1_555 1_555
C5 C4 1_555 1_555
H4 C5 1_555 1_555
C6 H5 1_555 1_555
C7 C6 1_555 1_555
C8 C7 1_555 1_555
H6 C8 1_555 1_555
C9 C8 1_555 1_555
H7 C9 1_555 1_555
C10 C9 1_555 1_555
H8 C10 1_555 1_555
C11 C4 1_555 1_555
C12 C7 1_555 1_555
C13 N7 1_555 1_555
H9 N6 1_555 1_555
H10 N6 1_555 1_555
N1 C1 1_555 1_555
N2 C6 1_555 1_555
N3 C12 1_555 1_555
N4 C11 1_555 1_555
N5 C11 1_555 1_555
N6 N5 1_555 1_555
N7 Cu1 1_555 1_555
S1 C13 1_555 1_555
Cu1A N2 1_555 1_555
Cu1B N3 1_555 1_555
N2A Cu1 1_555 1_555
N3B Cu1 1_555 1_555
C5 N1 1_555 1_555
C10 N2 1_555 1_555
C12 N5 1_555 1_555
N3 N4 1_555 1_555

#END
