
#######################################################################
#
#                 Cambridge Crystallographic Data Centre
#                                CCDC 
#
#######################################################################
#
# If this CIF has been generated from an entry in the Cambridge 
# Structural Database, then it will include bibliographic, chemical, 
# crystal, experimental, refinement or atomic coordinate data resulting 
# from the CCDC's data processing and validation procedures.
#
#######################################################################

data_QUDCEZ
_symmetry_cell_setting           triclinic
_symmetry_space_group_name_H-M   'P -1'
_symmetry_Int_Tables_number      2
_space_group_name_Hall           '-P 1'
loop_
_symmetry_equiv_pos_site_id
_symmetry_equiv_pos_as_xyz
1 x,y,z
2 -x,-y,-z
_cell_length_a                   13.3928(2)
_cell_length_b                   23.6053(4)
_cell_length_c                   24.1974(4)
_cell_angle_alpha                64.238(1)
_cell_angle_beta                 81.839(1)
_cell_angle_gamma                83.903(1)
_cell_volume                     6811.18
loop_
_atom_site_label
_atom_site_type_symbol
_atom_site_fract_x
_atom_site_fract_y
_atom_site_fract_z
Cu1 Cu 0.77117(8) 0.28747(4) 0.52937(4)
Cu2 Cu 1.16067(6) 0.29628(4) 0.93024(4)
Cu3 Cu 0.33826(6) 0.21002(4) 0.04395(4)
Cu4 Cu 0.67825(7) 0.19349(4) 0.46497(4)
Cl1 Cl 0.74260(18) 0.18427(9) 0.57900(9)
Cl2 Cl 1.17214(16) 0.19132(9) 0.98934(11)
Cl3 Cl 0.32804(15) 0.31420(9) -0.01789(10)
Cl4 Cl 0.70853(17) 0.29599(9) 0.41716(8)
O1 O 0.5231(9) 0.5980(4) 0.6482(4)
O2 O 0.5396(4) 0.4950(3) 0.9179(3)
O3 O 1.0110(3) 0.2861(2) 0.8789(2)
O4 O 0.7913(4) 0.2990(2) 0.6320(2)
O5 O 0.4834(4) 0.2228(2) 0.0918(2)
O6 O 0.6680(4) 0.1898(2) 0.3558(2)
O7 O 0.9575(9) -0.1063(4) 0.3469(4)
O8 O 0.9593(4) 0.0083(3) 0.0752(3)
N1 N 0.7977(6) 0.3813(3) 0.4836(3)
N2 N 0.6331(5) 0.3200(3) 0.5461(3)
N3 N 0.9158(6) 0.2771(4) 0.5018(3)
N4 N 0.5222(6) 0.5862(3) 0.7967(4)
N5 N 1.1452(4) 0.3907(3) 0.8752(3)
N6 N 1.0615(4) 0.3179(3) 0.9884(3)
N7 N 1.2606(5) 0.2996(4) 0.8577(4)
N8 N 0.3528(4) 0.1154(3) 0.1032(3)
N9 N 0.4361(4) 0.1851(3) -0.0127(3)
N10 N 0.2378(5) 0.2101(4) 0.1129(3)
N11 N 0.9715(7) -0.0896(4) 0.1988(5)
N12 N 0.6462(4) 0.1013(3) 0.5047(3)
N13 N 0.5332(5) 0.2048(3) 0.4922(3)
N14 N 0.8155(5) 0.1602(3) 0.4495(3)
C1 C 0.6982(7) 0.4139(4) 0.4639(4)
H1 H 0.6973 0.4571 0.4587
H2 H 0.6890 0.4148 0.4245
C2 C 0.6154(7) 0.3810(4) 0.5104(4)
C3 C 0.5228(9) 0.4117(5) 0.5174(5)
H3 H 0.5113 0.4544 0.4925
C4 C 0.4475(9) 0.3771(6) 0.5626(6)
H4 H 0.3847 0.3964 0.5674
C5 C 0.4665(8) 0.3165(7) 0.5987(6)
H5 H 0.4177 0.2935 0.6296
C6 C 0.5606(7) 0.2876(5) 0.5898(4)
H6 H 0.5732 0.2451 0.6147
C7 C 0.8814(9) 0.3848(4) 0.4330(4)
H7 H 0.8524 0.3856 0.3982
H8 H 0.9162 0.4234 0.4191
C8 C 0.9531(7) 0.3313(5) 0.4551(4)
C9 C 1.0444(10) 0.3388(7) 0.4262(6)
H9 H 1.0639 0.3776 0.3954
C10 C 1.1019(14) 0.2934(11) 0.4415(6)
H10 H 1.1666 0.2984 0.4206
C11 C 1.0799(10) 0.2319(8) 0.4890(7)
H11 H 1.1276 0.1984 0.4989
C12 C 0.9782(8) 0.2256(6) 0.5206(5)
H12 H 0.9574 0.1876 0.5524
C13 C 0.8416(7) 0.4035(4) 0.5240(3)
H13 H 0.8693 0.4442 0.4982
H14 H 0.8972 0.3744 0.5422
C14 C 0.7698(7) 0.4095(4) 0.5751(3)
C15 C 0.7298(8) 0.4649(4) 0.5711(4)
H15 H 0.7442 0.5003 0.5344
C16 C 0.6669(7) 0.4735(4) 0.6188(4)
C17 C 0.6248(9) 0.5312(5) 0.6126(4)
H16 H 0.6343 0.5663 0.5750
C18 C 0.5679(11) 0.5369(6) 0.6627(6)
C19 C 0.5547(9) 0.4859(5) 0.7216(5)
H17 H 0.5176 0.4904 0.7551
C20 C 0.5994(7) 0.4303(5) 0.7262(4)
H18 H 0.5955 0.3966 0.7651
C21 C 0.6520(6) 0.4189(4) 0.6763(4)
C22 C 0.6931(6) 0.3604(4) 0.6821(4)
H19 H 0.6825 0.3252 0.7195
C23 C 0.7497(6) 0.3543(4) 0.6326(3)
C24 C 0.7721(6) 0.2427(3) 0.6896(3)
H20 H 0.7874 0.2059 0.6814
H21 H 0.7008 0.2433 0.7041
C25 C 0.8316(5) 0.2366(3) 0.7397(3)
C26 C 0.8017(5) 0.1971(3) 0.7989(3)
H22 H 0.7466 0.1726 0.8076
C27 C 0.8524(5) 0.1932(3) 0.8462(3)
H23 H 0.8310 0.1659 0.8866
C28 C 0.9323(5) 0.2284(3) 0.8351(3)
C29 C 0.9643(6) 0.2653(4) 0.7756(4)
H24 H 1.0216 0.2880 0.7671
C30 C 0.9153(6) 0.2706(4) 0.7270(3)
H25 H 0.9387 0.2967 0.6865
C31 C 0.9870(6) 0.2236(3) 0.8884(4)
H26 H 0.9444 0.2041 0.9270
H27 H 1.0487 0.1974 0.8908
C32 C 0.9324(5) 0.3274(3) 0.8813(3)
C33 C 0.9607(5) 0.3900(3) 0.8584(3)
C34 C 0.8910(5) 0.4348(3) 0.8612(3)
H28 H 0.9113 0.4757 0.8474
C35 C 0.7875(5) 0.4223(3) 0.8843(3)
C36 C 0.7149(6) 0.4684(4) 0.8888(4)
H29 H 0.7343 0.5088 0.8781
C37 C 0.6176(6) 0.4543(3) 0.9085(3)
C38 C 0.5884(6) 0.3922(4) 0.9268(3)
H30 H 0.5213 0.3825 0.9409
C39 C 0.6555(5) 0.3475(3) 0.9241(3)
H31 H 0.6343 0.3072 0.9359
C40 C 0.7602(6) 0.3603(3) 0.9032(3)
C41 C 0.8337(5) 0.3129(3) 0.9018(3)
H32 H 0.8148 0.2719 0.9147
C42 C 0.5623(7) 0.5579(4) 0.9007(4)
H33 H 0.6212 0.5583 0.9196
H34 H 0.5061 0.5788 0.9157
C43 C 0.5825(7) 0.5933(4) 0.8313(5)
C44 C 0.6600(11) 0.6330(6) 0.8070(8)
H35 H 0.7038 0.6394 0.8301
C45 C 0.6656(13) 0.6669(6) 0.7340(8)
H36 H 0.7164 0.6948 0.7123
C46 C 0.6095(14) 0.6586(10) 0.7063(9)
H37 H 0.6140 0.6802 0.6636
C47 C 0.5380(11) 0.6173(6) 0.7373(6)
C48 C 0.4682(12) 0.6089(6) 0.6991(6)
H38 H 0.4269 0.5735 0.7247
H39 H 0.4237 0.6463 0.6830
C49 C 1.0681(6) 0.4056(3) 0.8297(4)
H40 H 1.0689 0.4502 0.8023
H41 H 1.0890 0.3827 0.8048
C50 C 1.1141(6) 0.4204(4) 0.9176(4)
H42 H 1.0793 0.4608 0.8957
H43 H 1.1736 0.4281 0.9314
C51 C 1.0468(6) 0.3807(4) 0.9718(4)
C52 C 0.9766(7) 0.4011(6) 1.0057(5)
H44 H 0.9650 0.4440 0.9951
C53 C 0.9225(9) 0.3575(9) 1.0563(6)
H45 H 0.8748 0.3711 1.0804
C54 C 0.9370(10) 0.2967(8) 1.0712(5)
H46 H 0.8985 0.2674 1.1044
C55 C 1.0070(6) 0.2791(5) 1.0379(4)
H47 H 1.0196 0.2361 1.0499
C56 C 1.2420(6) 0.4084(4) 0.8391(4)
H48 H 1.2870 0.4161 0.8629
H49 H 1.2332 0.4471 0.8022
C57 C 1.2882(6) 0.3568(5) 0.8211(4)
C58 C 1.3601(8) 0.3603(7) 0.7698(5)
H50 H 1.3842 0.3990 0.7415
C59 C 1.3922(15) 0.3088(11) 0.7624(9)
H51 H 1.4336 0.3148 0.7262
C60 C 1.3730(15) 0.2512(10) 0.7995(9)
H52 H 1.4018 0.2162 0.7938
C61 C 1.3026(8) 0.2485(6) 0.8497(6)
H53 H 1.2836 0.2090 0.8792
C62 C 0.2512(6) 0.1015(4) 0.1365(4)
H54 H 0.2079 0.0951 0.1110
H55 H 0.2551 0.0628 0.1739
C63 C 0.2070(6) 0.1518(4) 0.1523(4)
C64 C 0.1373(8) 0.1449(7) 0.1991(5)
H56 H 0.1163 0.1049 0.2262
C65 C 0.0962(10) 0.1962(9) 0.2079(6)
H57 H 0.0449 0.1915 0.2396
C66 C 0.1318(9) 0.2558(8) 0.1690(7)
H58 H 0.1079 0.2907 0.1761
C67 C 0.2006(6) 0.2617(5) 0.1213(4)
H59 H 0.2230 0.3012 0.0939
C68 C 0.3850(7) 0.0835(4) 0.0625(4)
H60 H 0.4191 0.0433 0.0858
H61 H 0.3257 0.0751 0.0489
C69 C 0.4526(6) 0.1206(4) 0.0084(4)
C70 C 0.5262(8) 0.0965(5) -0.0238(5)
H62 H 0.5358 0.0531 -0.0103
C71 C 0.5855(9) 0.1364(6) -0.0760(5)
H63 H 0.6357 0.1202 -0.0967
C72 C 0.5677(7) 0.1983(6) -0.0951(4)
H64 H 0.6050 0.2261 -0.1302
C73 C 0.4928(6) 0.2218(4) -0.0622(4)
H65 H 0.4828 0.2652 -0.0761
C74 C 0.4279(6) 0.1012(4) 0.1489(4)
H66 H 0.4063 0.1246 0.1734
H67 H 0.4273 0.0567 0.1767
C75 C 0.5341(6) 0.1170(3) 0.1203(3)
C76 C 0.6061(6) 0.0710(4) 0.1213(4)
H68 H 0.5870 0.0296 0.1382
C77 C 0.7078(6) 0.0834(3) 0.0978(3)
C78 C 0.7829(6) 0.0360(4) 0.0997(4)
H69 H 0.7649 -0.0057 0.1161
C79 C 0.8811(6) 0.0500(4) 0.0780(4)
C80 C 0.9077(6) 0.1118(4) 0.0564(4)
H70 H 0.9750 0.1214 0.0428
C81 C 0.8409(6) 0.1570(4) 0.0547(3)
H71 H 0.8626 0.1976 0.0405
C82 C 0.7378(5) 0.1467(3) 0.0735(3)
C83 C 0.6615(6) 0.1933(3) 0.0722(3)
H72 H 0.6791 0.2351 0.0556
C84 C 0.5629(5) 0.1797(3) 0.0944(3)
C85 C 0.5050(5) 0.2834(3) 0.0873(3)
H73 H 0.4429 0.3092 0.0849
H74 H 0.5499 0.3049 0.0502
C86 C 0.5538(5) 0.2746(3) 0.1431(3)
C87 C 0.6410(6) 0.3037(3) 0.1369(3)
H75 H 0.6699 0.3300 0.0979
C88 C 0.6861(6) 0.2938(3) 0.1889(3)
H76 H 0.7462 0.3127 0.1842
C89 C 0.6433(6) 0.2567(3) 0.2469(3)
C90 C 0.5527(6) 0.2308(4) 0.2522(4)
H77 H 0.5195 0.2077 0.2910
C91 C 0.5115(6) 0.2395(4) 0.1996(3)
H78 H 0.4521 0.2201 0.2038
C92 C 0.6945(7) 0.2467(3) 0.3022(3)
H79 H 0.7671 0.2455 0.2916
H80 H 0.6766 0.2823 0.3122
C93 C 0.7120(6) 0.1339(3) 0.3556(3)
C94 C 0.6791(6) 0.0792(3) 0.4094(4)
C95 C 0.7238(8) 0.0238(4) 0.4147(4)
H81 H 0.7044 -0.0121 0.4498
C96 C 0.7974(8) 0.0161(4) 0.3711(4)
C97 C 0.8457(10) -0.0402(5) 0.3768(5)
H82 H 0.8327 -0.0751 0.4142
C98 C 0.9086(10) -0.0495(5) 0.3343(5)
C99 C 0.9339(9) 0.0048(5) 0.2773(5)
H83 H 0.9827 0.0012 0.2475
C100 C 0.8852(8) 0.0619(5) 0.2678(5)
H84 H 0.8955 0.0956 0.2292
C101 C 0.8203(7) 0.0710(4) 0.3142(4)
C102 C 0.7757(6) 0.1296(4) 0.3085(3)
H85 H 0.7898 0.1655 0.2723
C103 C 1.0169(11) -0.1192(7) 0.2992(6)
H86 H 1.0617 -0.0852 0.2750
H87 H 1.0579 -0.1578 0.3175
C104 C 0.9524(14) -0.1252(6) 0.2607(7)
C105 C 0.8732(14) -0.1656(8) 0.2836(8)
H88 H 0.8626 -0.1908 0.3258
C106 C 0.8124(14) -0.1688(7) 0.2463(9)
H89 H 0.7590 -0.1955 0.2632
C107 C 0.8270(10) -0.1316(6) 0.1794(8)
H90 H 0.7854 -0.1327 0.1522
C108 C 0.9123(10) -0.0933(5) 0.1605(6)
C109 C 0.9397(7) -0.0534(5) 0.0931(5)
H91 H 0.9989 -0.0734 0.0794
H92 H 0.8850 -0.0541 0.0711
C110 C 0.6050(6) 0.0834(4) 0.4606(3)
H93 H 0.5511 0.1139 0.4422
H94 H 0.5753 0.0429 0.4839
C111 C 0.5662(6) 0.0944(4) 0.5560(3)
H95 H 0.5966 0.0896 0.5919
H96 H 0.5297 0.0569 0.5670
C112 C 0.4945(6) 0.1512(4) 0.5369(4)
C113 C 0.3973(8) 0.1508(6) 0.5624(4)
H97 H 0.3704 0.1136 0.5924
C114 C 0.3399(8) 0.2060(9) 0.5431(6)
H98 H 0.2737 0.2062 0.5610
C115 C 0.3771(10) 0.2608(6) 0.4982(5)
H99 H 0.3380 0.2983 0.4847
C116 C 0.4749(8) 0.2574(5) 0.4743(4)
H100 H 0.5023 0.2941 0.4437
C117 C 0.7430(6) 0.0655(4) 0.5262(4)
H101 H 0.7421 0.0232 0.5291
H102 H 0.7502 0.0622 0.5668
C118 C 0.8312(7) 0.0991(4) 0.4810(5)
C119 C 0.9200(9) 0.0677(7) 0.4698(8)
H103 H 0.9286 0.0241 0.4894
C120 C 0.9951(11) 0.1046(8) 0.4280(11)
H104 H 1.0568 0.0848 0.4219
C121 C 0.9841(8) 0.1659(6) 0.3965(6)
H105 H 1.0354 0.1890 0.3679
C122 C 0.8948(7) 0.1939(4) 0.4073(4)
H106 H 0.8857 0.2374 0.3860
Cu2_2 Cu 0.16067(6) 0.29628(4) -0.06976(4)
Cu3_2 Cu 1.33826(6) 0.21002(4) 1.04395(4)
Cl2_2 Cl 0.17214(16) 0.19132(9) -0.01066(11)
Cl3_2 Cl 1.32804(15) 0.31420(9) 0.98211(10)
S1 S 0.9320(2) 0.38890(12) 0.20044(12)
O9 O 1.0027(8) 0.4256(5) 0.1504(3)
O10 O 0.8417(6) 0.4274(5) 0.2004(6)
O11 O 0.9202(5) 0.3259(3) 0.2088(4)
C123 C 0.9888(8) 0.3766(4) 0.2663(5)
F1 F 1.0724(7) 0.3426(6) 0.2721(5)
F2 F 1.0104(9) 0.4278(4) 0.2682(4)
F3 F 0.9337(10) 0.3457(4) 0.3172(4)
S2 S 0.3174(2) 0.12972(16) 0.41010(14)
O12 O 0.3771(4) 0.0726(2) 0.4310(3)
O13 O 0.3766(5) 0.1815(2) 0.3955(2)
O14 O 0.2347(4) 0.1274(3) 0.4540(2)
C124 C 0.3147(4) 0.1122(2) 0.3549(2)
F4 F 0.2307(5) 0.1772(3) 0.3311(3)
F5 F 0.3572(6) 0.1347(4) 0.3013(3)
F6 F 0.2361(6) 0.0812(4) 0.3549(3)
S3 S 0.5432(3) 0.10419(15) 0.79175(13)
O15 O 0.5607(6) 0.1668(3) 0.7697(4)
O16 O 0.4652(9) 0.0830(7) 0.8379(5)
O17 O 0.6256(9) 0.0626(6) 0.8030(8)
C125 C 0.4816(10) 0.1018(4) 0.7306(5)
F7 F 0.5421(10) 0.1223(6) 0.6798(4)
F8 F 0.4153(10) 0.1483(8) 0.7099(7)
F9 F 0.409(2) 0.0632(15) 0.7489(13)
S4 S 0.1597(3) 0.3915(2) 0.6278(2)
O18 O 0.2178(5) 0.4437(3) 0.5921(3)
O19 O 0.2071(7) 0.3337(2) 0.6639(3)
O20 O 0.0843(6) 0.3909(4) 0.6745(3)
C126 C 0.1397(5) 0.3677(3) 0.5726(3)
F10 F 0.2152(7) 0.3556(4) 0.5353(4)
F11 F 0.0859(7) 0.4155(4) 0.5319(3)
F12 F 0.0804(6) 0.3186(4) 0.5901(4)
O21 O 0.6652(7) 0.4755(4) 0.1422(5)
O22 O 0.1862(9) 0.4144(6) 0.0715(7)
O23 O 0.1647(11) 0.9745(5) 0.1458(7)
O24 O 1.040(3) 0.4993(11) 0.3789(16)
F13? F 0.4899(14) 0.0446(5) 0.7353(6)
O25? O 0.6802(18) 0.9231(11) 0.0665(10)
O26? O 0.721(2) 0.4958(16) 0.0277(9)
O27? O 0.220(3) 0.9943(15) 0.0376(14)
O28? O 0.1567(5) 0.4245(3) 0.6451(3)
loop_
_geom_bond_atom_site_label_1
_geom_bond_atom_site_label_2
_geom_bond_site_symmetry_1
_geom_bond_site_symmetry_2
Cu1 Cl1 1_555 1_555
Cu2 Cl2 1_555 1_555
Cu3 Cl3 1_555 1_555
Cu4 Cl1 1_555 1_555
Cl2 Cu3_2 1_555 1_555
Cl3 Cu2_2 1_555 1_555
Cl4 Cu1 1_555 1_555
O1 C18 1_555 1_555
O2 C37 1_555 1_555
O3 Cu2 1_555 1_555
O4 Cu1 1_555 1_555
O5 Cu3 1_555 1_555
O6 Cu4 1_555 1_555
O7 C98 1_555 1_555
O8 C79 1_555 1_555
N1 Cu1 1_555 1_555
N2 Cu1 1_555 1_555
N3 Cu1 1_555 1_555
N4 C43 1_555 1_555
N5 Cu2 1_555 1_555
N6 Cu2 1_555 1_555
N7 Cu2 1_555 1_555
N8 Cu3 1_555 1_555
N9 Cu3 1_555 1_555
N10 Cu3 1_555 1_555
N11 C104 1_555 1_555
N12 Cu4 1_555 1_555
N13 Cu4 1_555 1_555
N14 Cu4 1_555 1_555
C1 N1 1_555 1_555
H1 C1 1_555 1_555
H2 C1 1_555 1_555
C2 N2 1_555 1_555
C3 C2 1_555 1_555
H3 C3 1_555 1_555
C4 C3 1_555 1_555
H4 C4 1_555 1_555
C5 C4 1_555 1_555
H5 C5 1_555 1_555
C6 N2 1_555 1_555
H6 C6 1_555 1_555
C7 N1 1_555 1_555
H7 C7 1_555 1_555
H8 C7 1_555 1_555
C8 N3 1_555 1_555
C9 C8 1_555 1_555
H9 C9 1_555 1_555
C10 C9 1_555 1_555
H10 C10 1_555 1_555
C11 C10 1_555 1_555
H11 C11 1_555 1_555
C12 N3 1_555 1_555
H12 C12 1_555 1_555
C13 N1 1_555 1_555
H13 C13 1_555 1_555
H14 C13 1_555 1_555
C14 C13 1_555 1_555
C15 C14 1_555 1_555
H15 C15 1_555 1_555
C16 C15 1_555 1_555
C17 C16 1_555 1_555
H16 C17 1_555 1_555
C18 C17 1_555 1_555
C19 C18 1_555 1_555
H17 C19 1_555 1_555
C20 C19 1_555 1_555
H18 C20 1_555 1_555
C21 C16 1_555 1_555
C22 C21 1_555 1_555
H19 C22 1_555 1_555
C23 O4 1_555 1_555
C24 O4 1_555 1_555
H20 C24 1_555 1_555
H21 C24 1_555 1_555
C25 C24 1_555 1_555
C26 C25 1_555 1_555
H22 C26 1_555 1_555
C27 C26 1_555 1_555
H23 C27 1_555 1_555
C28 C27 1_555 1_555
C29 C28 1_555 1_555
H24 C29 1_555 1_555
C30 C25 1_555 1_555
H25 C30 1_555 1_555
C31 O3 1_555 1_555
H26 C31 1_555 1_555
H27 C31 1_555 1_555
C32 O3 1_555 1_555
C33 C32 1_555 1_555
C34 C33 1_555 1_555
H28 C34 1_555 1_555
C35 C34 1_555 1_555
C36 C35 1_555 1_555
H29 C36 1_555 1_555
C37 C36 1_555 1_555
C38 C37 1_555 1_555
H30 C38 1_555 1_555
C39 C38 1_555 1_555
H31 C39 1_555 1_555
C40 C35 1_555 1_555
C41 C32 1_555 1_555
H32 C41 1_555 1_555
C42 O2 1_555 1_555
H33 C42 1_555 1_555
H34 C42 1_555 1_555
C43 C42 1_555 1_555
C44 C43 1_555 1_555
H35 C44 1_555 1_555
C45 C44 1_555 1_555
H36 C45 1_555 1_555
C46 C45 1_555 1_555
H37 C46 1_555 1_555
C47 N4 1_555 1_555
C48 O1 1_555 1_555
H38 C48 1_555 1_555
H39 C48 1_555 1_555
C49 N5 1_555 1_555
H40 C49 1_555 1_555
H41 C49 1_555 1_555
C50 N5 1_555 1_555
H42 C50 1_555 1_555
H43 C50 1_555 1_555
C51 N6 1_555 1_555
C52 C51 1_555 1_555
H44 C52 1_555 1_555
C53 C52 1_555 1_555
H45 C53 1_555 1_555
C54 C53 1_555 1_555
H46 C54 1_555 1_555
C55 N6 1_555 1_555
H47 C55 1_555 1_555
C56 N5 1_555 1_555
H48 C56 1_555 1_555
H49 C56 1_555 1_555
C57 N7 1_555 1_555
C58 C57 1_555 1_555
H50 C58 1_555 1_555
C59 C58 1_555 1_555
H51 C59 1_555 1_555
C60 C59 1_555 1_555
H52 C60 1_555 1_555
C61 N7 1_555 1_555
H53 C61 1_555 1_555
C62 N8 1_555 1_555
H54 C62 1_555 1_555
H55 C62 1_555 1_555
C63 N10 1_555 1_555
C64 C63 1_555 1_555
H56 C64 1_555 1_555
C65 C64 1_555 1_555
H57 C65 1_555 1_555
C66 C65 1_555 1_555
H58 C66 1_555 1_555
C67 N10 1_555 1_555
H59 C67 1_555 1_555
C68 N8 1_555 1_555
H60 C68 1_555 1_555
H61 C68 1_555 1_555
C69 N9 1_555 1_555
C70 C69 1_555 1_555
H62 C70 1_555 1_555
C71 C70 1_555 1_555
H63 C71 1_555 1_555
C72 C71 1_555 1_555
H64 C72 1_555 1_555
C73 N9 1_555 1_555
H65 C73 1_555 1_555
C74 N8 1_555 1_555
H66 C74 1_555 1_555
H67 C74 1_555 1_555
C75 C74 1_555 1_555
C76 C75 1_555 1_555
H68 C76 1_555 1_555
C77 C76 1_555 1_555
C78 C77 1_555 1_555
H69 C78 1_555 1_555
C79 C78 1_555 1_555
C80 C79 1_555 1_555
H70 C80 1_555 1_555
C81 C80 1_555 1_555
H71 C81 1_555 1_555
C82 C77 1_555 1_555
C83 C82 1_555 1_555
H72 C83 1_555 1_555
C84 O5 1_555 1_555
C85 O5 1_555 1_555
H73 C85 1_555 1_555
H74 C85 1_555 1_555
C86 C85 1_555 1_555
C87 C86 1_555 1_555
H75 C87 1_555 1_555
C88 C87 1_555 1_555
H76 C88 1_555 1_555
C89 C88 1_555 1_555
C90 C89 1_555 1_555
H77 C90 1_555 1_555
C91 C86 1_555 1_555
H78 C91 1_555 1_555
C92 O6 1_555 1_555
H79 C92 1_555 1_555
H80 C92 1_555 1_555
C93 O6 1_555 1_555
C94 C93 1_555 1_555
C95 C94 1_555 1_555
H81 C95 1_555 1_555
C96 C95 1_555 1_555
C97 C96 1_555 1_555
H82 C97 1_555 1_555
C98 C97 1_555 1_555
C99 C98 1_555 1_555
H83 C99 1_555 1_555
C100 C99 1_555 1_555
H84 C100 1_555 1_555
C101 C96 1_555 1_555
C102 C93 1_555 1_555
H85 C102 1_555 1_555
C103 O7 1_555 1_555
H86 C103 1_555 1_555
H87 C103 1_555 1_555
C104 C103 1_555 1_555
C105 C104 1_555 1_555
H88 C105 1_555 1_555
C106 C105 1_555 1_555
H89 C106 1_555 1_555
C107 C106 1_555 1_555
H90 C107 1_555 1_555
C108 N11 1_555 1_555
C109 O8 1_555 1_555
H91 C109 1_555 1_555
H92 C109 1_555 1_555
C110 N12 1_555 1_555
H93 C110 1_555 1_555
H94 C110 1_555 1_555
C111 N12 1_555 1_555
H95 C111 1_555 1_555
H96 C111 1_555 1_555
C112 N13 1_555 1_555
C113 C112 1_555 1_555
H97 C113 1_555 1_555
C114 C113 1_555 1_555
H98 C114 1_555 1_555
C115 C114 1_555 1_555
H99 C115 1_555 1_555
C116 N13 1_555 1_555
H100 C116 1_555 1_555
C117 N12 1_555 1_555
H101 C117 1_555 1_555
H102 C117 1_555 1_555
C118 N14 1_555 1_555
C119 C118 1_555 1_555
H103 C119 1_555 1_555
C120 C119 1_555 1_555
H104 C120 1_555 1_555
C121 C120 1_555 1_555
H105 C121 1_555 1_555
C122 N14 1_555 1_555
H106 C122 1_555 1_555
S1 O9 1_555 1_555
O10 S1 1_555 1_555
O11 S1 1_555 1_555
C123 S1 1_555 1_555
F1 C123 1_555 1_555
F2 C123 1_555 1_555
F3 C123 1_555 1_555
S2 O12 1_555 1_555
O13 S2 1_555 1_555
O14 S2 1_555 1_555
C124 S2 1_555 1_555
F4 C124 1_555 1_555
F5 C124 1_555 1_555
F6 C124 1_555 1_555
S3 O15 1_555 1_555
O16 S3 1_555 1_555
O17 S3 1_555 1_555
C125 S3 1_555 1_555
F7 C125 1_555 1_555
F8 C125 1_555 1_555
F9 C125 1_555 1_555
S4 O18 1_555 1_555
O19 S4 1_555 1_555
O20 S4 1_555 1_555
C126 S4 1_555 1_555
F10 C126 1_555 1_555
F11 C126 1_555 1_555
F12 C126 1_555 1_555
Cu2_2 Cl2_2 1_555 1_555
Cu3_2 Cl3_2 1_555 1_555
Cl2_2 Cu3 1_555 1_555
Cl3_2 Cu2 1_555 1_555
Cu4 Cl4 1_555 1_555
C1 C2 1_555 1_555
C5 C6 1_555 1_555
C7 C8 1_555 1_555
C11 C12 1_555 1_555
C14 C23 1_555 1_555
C20 C21 1_555 1_555
C22 C23 1_555 1_555
C28 C31 1_555 1_555
C29 C30 1_555 1_555
C33 C49 1_555 1_555
C39 C40 1_555 1_555
C40 C41 1_555 1_555
C46 C47 1_555 1_555
C47 C48 1_555 1_555
C50 C51 1_555 1_555
C54 C55 1_555 1_555
C56 C57 1_555 1_555
C60 C61 1_555 1_555
C62 C63 1_555 1_555
C66 C67 1_555 1_555
C68 C69 1_555 1_555
C72 C73 1_555 1_555
C75 C84 1_555 1_555
C81 C82 1_555 1_555
C83 C84 1_555 1_555
C89 C92 1_555 1_555
C90 C91 1_555 1_555
C94 C110 1_555 1_555
C100 C101 1_555 1_555
C101 C102 1_555 1_555
C107 C108 1_555 1_555
C108 C109 1_555 1_555
C111 C112 1_555 1_555
C115 C116 1_555 1_555
C117 C118 1_555 1_555
C121 C122 1_555 1_555

#END
