
#######################################################################
#
#                 Cambridge Crystallographic Data Centre
#                                CCDC 
#
#######################################################################
#
# If this CIF has been generated from an entry in the Cambridge 
# Structural Database, then it will include bibliographic, chemical, 
# crystal, experimental, refinement or atomic coordinate data resulting 
# from the CCDC's data processing and validation procedures.
#
#######################################################################

data_QUDJIJ
_symmetry_cell_setting           monoclinic
_symmetry_space_group_name_H-M   'P 21/c'
_symmetry_Int_Tables_number      14
_space_group_name_Hall           '-P 2ybc'
loop_
_symmetry_equiv_pos_site_id
_symmetry_equiv_pos_as_xyz
1 x,y,z
2 -x,1/2+y,1/2-z
3 -x,-y,-z
4 x,1/2-y,1/2+z
_cell_length_a                   9.869(2)
_cell_length_b                   19.785(4)
_cell_length_c                   11.900(5)
_cell_angle_alpha                90
_cell_angle_beta                 119.65(2)
_cell_angle_gamma                90
_cell_volume                     2019.33
loop_
_atom_site_label
_atom_site_type_symbol
_atom_site_fract_x
_atom_site_fract_y
_atom_site_fract_z
C1 C 0.1578(4) 0.71298(16) 0.3355(3)
C2 C 0.2495(3) 0.65055(15) 0.3453(3)
C3 C 0.3374(4) 0.62342(15) 0.4648(3)
H1 H 0.3435 0.6459 0.5358
C4 C 0.4209(4) 0.56146(15) 0.4852(3)
C5 C 0.4124(4) 0.52799(15) 0.3756(3)
C6 C 0.3210(4) 0.55801(15) 0.2514(3)
H2 H 0.3148 0.5366 0.1794
C7 C 0.2424(3) 0.61698(15) 0.2349(3)
C8 C 0.5078(4) 0.53308(16) 0.6078(3)
H3 H 0.5129 0.5548 0.6791
C9 C 0.1584(3) 0.64896(15) 0.1036(3)
C10 C 0.0342(4) 0.86197(16) 0.1295(3)
H4 H 0.0634 0.8175 0.1272
C11 C 0.0336(4) 0.90733(16) 0.0414(3)
H5 H 0.0579 0.8926 -0.0208
C12 C -0.0027(4) 0.97433(15) 0.0445(3)
C13 C -0.0461(5) 0.99137(19) 0.1352(4)
H6 H -0.0749 1.0355 0.1401
C14 C -0.0464(5) 0.94266(18) 0.2184(4)
H7 H -0.0770 0.9552 0.2779
C15 C -0.2157(4) 0.78324(17) 0.4223(3)
H8 H -0.1318 0.7807 0.5060
C16 C -0.3697(5) 0.7386(3) 0.5115(4)
H9 H -0.3857 0.6906 0.5028
H10 H -0.4579 0.7599 0.5102
H11 H -0.2773 0.7485 0.5919
C17 C -0.4903(4) 0.7671(3) 0.2764(3)
H12 H -0.4630 0.7844 0.2148
H13 H -0.5663 0.7962 0.2794
H14 H -0.5330 0.7225 0.2512
N1 N -0.0050(3) 0.87875(12) 0.2174(2)
N2 N -0.3517(3) 0.76442(16) 0.4036(3)
O1 O 0.2321(3) 0.76620(11) 0.3895(2)
O2 O 0.0135(3) 0.70931(14) 0.2843(3)
O3 O 0.1340(2) 0.71104(11) 0.0936(2)
O4 O 0.1198(3) 0.61125(11) 0.0057(2)
O5 O -0.1896(2) 0.80453(11) 0.3358(2)
Zn1 Zn 0.03000(4) 0.815287(16) 0.36681(3)
C1B C 0.8422(4) 0.28702(16) 0.6645(3)
C2B C 0.7505(3) 0.34945(15) 0.6547(3)
C3B C 0.6626(4) 0.37658(15) 0.5352(3)
H1B H 0.6565 0.3541 0.4642
C4B C 0.5791(4) 0.43854(15) 0.5148(3)
C5B C 0.5876(4) 0.47201(15) 0.6244(3)
C6B C 0.6790(4) 0.44199(15) 0.7486(3)
H2B H 0.6852 0.4634 0.8206
C7B C 0.7576(3) 0.38302(15) 0.7651(3)
C8B C 0.4922(4) 0.46692(16) 0.3922(3)
H3B H 0.4871 0.4452 0.3209
C9B C 0.8416(3) 0.35104(15) 0.8964(3)
C10B C -0.0342(4) 1.13803(16) -0.1295(3)
H4B H -0.0634 1.1825 -0.1272
C11B C -0.0336(4) 1.09267(16) -0.0414(3)
H5B H -0.0579 1.1074 0.0208
C12B C 0.0027(4) 1.02567(15) -0.0445(3)
C13B C 0.0461(5) 1.00863(19) -0.1352(4)
H6B H 0.0749 0.9645 -0.1401
C14B C 0.0464(5) 1.05734(18) -0.2184(4)
H7B H 0.0770 1.0448 -0.2779
C15B C 0.2157(4) 1.21676(17) -0.4223(3)
H8B H 0.1318 1.2193 -0.5060
C16B C 0.3697(5) 1.2614(3) -0.5115(4)
H9B H 0.3857 1.3094 -0.5028
H10B H 0.4579 1.2401 -0.5102
H11B H 0.2773 1.2515 -0.5919
C17B C 0.4903(4) 1.2329(3) -0.2764(3)
H12B H 0.4630 1.2156 -0.2148
H13B H 0.5663 1.2038 -0.2794
H14B H 0.5330 1.2775 -0.2512
N1B N 0.0050(3) 1.12125(12) -0.2174(2)
N2B N 0.3517(3) 1.23558(16) -0.4036(3)
O1B O 0.7679(3) 0.23380(11) 0.6105(2)
O1B_2 O -0.2321(3) 1.23380(11) -0.3895(2)
O2B O 0.9865(3) 0.29069(14) 0.7157(3)
O2B_2 O -0.0135(3) 1.29069(14) -0.2843(3)
O3B O 0.8660(2) 0.28896(11) 0.9064(2)
O4B O 0.8802(3) 0.38875(11) 0.9943(2)
O4C O 0.1198(3) 0.88875(11) 0.5057(2)
O4A O -0.1198(3) 1.11125(11) -0.5057(2)
O5B O 0.1896(2) 1.19547(11) -0.3358(2)
Zn1B Zn -0.03000(4) 1.184713(16) -0.36681(3)
Zn1C Zn 0.03000(4) 0.684713(16) -0.13319(3)
Zn1B_2 Zn 0.97000(4) 0.184713(16) 0.63319(3)
Zn1A Zn 0.97000(4) 0.315287(16) 1.13319(3)
C18 C 0.7600(9) 0.9358(3) 0.5471(7)
C19 C 0.6532(8) 0.9057(4) 0.6889(6)
C20 C 0.4735(9) 0.9111(3) 0.4572(6)
H15 H 0.3967 0.8937 0.4726
H17 H 0.718(6) 0.923(3) 0.446(5)
H18 H 0.746(6) 0.877(3) 0.742(5)
H19 H 0.843(7) 0.909(3) 0.602(5)
H20 H 0.664(5) 0.941(2) 0.747(4)
H21 H 0.796(6) 0.977(3) 0.560(5)
H22 H 0.563(9) 0.885(4) 0.680(6)
N3 N 0.6167(6) 0.9122(3) 0.5559(5)
O6 O 0.4293(5) 0.9317(2) 0.3417(3)
C21? C 0.3352(13) 0.9695(7) 0.3774(10)
H16? H 0.2964 0.9429 0.4195
N4? N 0.7127(11) 0.9664(6) 0.6337(9)
loop_
_geom_bond_atom_site_label_1
_geom_bond_atom_site_label_2
_geom_bond_site_symmetry_1
_geom_bond_site_symmetry_2
C1 C2 1_555 1_555
C2 C3 1_555 1_555
C3 H1 1_555 1_555
C4 C3 1_555 1_555
C5 C4 1_555 1_555
C6 C5 1_555 1_555
H2 C6 1_555 1_555
C7 C2 1_555 1_555
C8 C4 1_555 1_555
H3 C8 1_555 1_555
C9 C7 1_555 1_555
C10 H4 1_555 1_555
C11 C10 1_555 1_555
H5 C11 1_555 1_555
C12 C11 1_555 1_555
C13 C12 1_555 1_555
H6 C13 1_555 1_555
C14 C13 1_555 1_555
H7 C14 1_555 1_555
C15 H8 1_555 1_555
C16 H9 1_555 1_555
H10 C16 1_555 1_555
H11 C16 1_555 1_555
C17 H12 1_555 1_555
H13 C17 1_555 1_555
H14 C17 1_555 1_555
C18 H17 1_555 1_555
C19 H18 1_555 1_555
C20 H15 1_555 1_555
H19 C18 1_555 1_555
H20 C19 1_555 1_555
H21 C18 1_555 1_555
H22 C19 1_555 1_555
N1 C10 1_555 1_555
N2 C15 1_555 1_555
N3 C18 1_555 1_555
O1 C1 1_555 1_555
O2 C1 1_555 1_555
O3 C9 1_555 1_555
O4 C9 1_555 1_555
O5 C15 1_555 1_555
O6 C20 1_555 1_555
Zn1 N1 1_555 1_555
C1B C2B 1_555 1_555
C2B C3B 1_555 1_555
C3B H1B 1_555 1_555
C4B C3B 1_555 1_555
C5B C8 1_555 1_555
C6B C5B 1_555 1_555
H2B C6B 1_555 1_555
C7B C2B 1_555 1_555
C8B C5 1_555 1_555
H3B C8B 1_555 1_555
C9B C7B 1_555 1_555
C10B H4B 1_555 1_555
C11B C10B 1_555 1_555
H5B C11B 1_555 1_555
C12B C12 1_555 1_555
C13B C12B 1_555 1_555
H6B C13B 1_555 1_555
C14B C13B 1_555 1_555
H7B C14B 1_555 1_555
C15B H8B 1_555 1_555
C16B H9B 1_555 1_555
H10B C16B 1_555 1_555
H11B C16B 1_555 1_555
C17B H12B 1_555 1_555
H13B C17B 1_555 1_555
H14B C17B 1_555 1_555
N1B C10B 1_555 1_555
N2B C15B 1_555 1_555
O1B C1B 1_555 1_555
O1B_2 Zn1B 1_555 1_555
O2B C1B 1_555 1_555
O2B_2 Zn1B 1_555 1_555
O3B C9B 1_555 1_555
O4B C9B 1_555 1_555
O4C Zn1 1_555 1_555
O4A Zn1B 1_555 1_555
O5B C15B 1_555 1_555
Zn1B N1B 1_555 1_555
Zn1C O4 1_555 1_555
Zn1B_2 O1B 1_555 1_555
Zn1A O4B 1_555 1_555
C6 C7 1_555 1_555
C14 N1 1_555 1_555
C16 N2 1_555 1_555
C17 N2 1_555 1_555
C19 N3 1_555 1_555
C20 N3 1_555 1_555
O1 Zn1 1_555 1_555
O2 Zn1 1_555 1_555
O5 Zn1 1_555 1_555
C4B C5B 1_555 1_555
C4B C8B 1_555 1_555
C6B C7B 1_555 1_555
C11B C12B 1_555 1_555
C14B N1B 1_555 1_555
C16B N2B 1_555 1_555
C17B N2B 1_555 1_555
O2B Zn1B_2 1_555 1_555
O5B Zn1B 1_555 1_555

#END
