
#######################################################################
#
#                 Cambridge Crystallographic Data Centre
#                                CCDC 
#
#######################################################################
#
# If this CIF has been generated from an entry in the Cambridge 
# Structural Database, then it will include bibliographic, chemical, 
# crystal, experimental, refinement or atomic coordinate data resulting 
# from the CCDC's data processing and validation procedures.
#
#######################################################################

data_QUDKUW
_symmetry_cell_setting           monoclinic
_symmetry_space_group_name_H-M   'P 21/c'
_symmetry_Int_Tables_number      14
_space_group_name_Hall           '-P 2ybc'
loop_
_symmetry_equiv_pos_site_id
_symmetry_equiv_pos_as_xyz
1 x,y,z
2 -x,1/2+y,1/2-z
3 -x,-y,-z
4 x,1/2-y,1/2+z
_cell_length_a                   9.4679(6)
_cell_length_b                   11.8326(7)
_cell_length_c                   14.2259(9)
_cell_angle_alpha                90
_cell_angle_beta                 90.7110(10)
_cell_angle_gamma                90
_cell_volume                     1593.6
loop_
_atom_site_label
_atom_site_type_symbol
_atom_site_fract_x
_atom_site_fract_y
_atom_site_fract_z
Cd1 Cd 0.371970(17) 0.376982(13) 0.712641(10)
Cd2 Cd 0.5000 0.5000 0.5000
O1 O 0.31945(17) 0.52869(14) 0.61319(12)
O2 O 0.1425(2) 0.49545(18) 0.70661(13)
O3 O 0.4058(2) 0.57554(16) 0.35768(13)
O4 O 0.4070(2) 0.73824(18) 0.28786(15)
O5 O 0.4348(3) 0.52796(19) 0.82023(15)
H1 H 0.4112 0.5972 0.8168
H2 H 0.5125 0.5128 0.8480
N1 N 0.1248(2) 0.10539(18) 0.55064(14)
N2 N 0.1350(3) 0.1632(2) 0.70277(14)
H5 H 0.0732 0.1122 0.7149
H6 H 0.1671 0.2059 0.7471
N3 N 0.27739(19) 0.25782(16) 0.59754(12)
N4 N 0.1046(3) 0.0402(2) 0.39916(16)
H7 H 0.0413 -0.0067 0.4176
H8 H 0.1286 0.0417 0.3411
N5 N 0.3305(2) 0.21660(16) 0.35113(12)
N6 N 0.4079(2) 0.33603(16) 0.46518(13)
C1 C 0.1821(2) 0.1764(2) 0.61346(15)
C2 C 0.3161(2) 0.26208(18) 0.50522(14)
C3 C 0.2677(2) 0.18945(19) 0.43567(15)
C4 C 0.1649(3) 0.1099(2) 0.46000(17)
C5 C 0.4114(3) 0.30406(19) 0.37410(16)
H9 H 0.4670 0.3410 0.3303
C6 C 0.1986(3) 0.5534(2) 0.64406(15)
C7 C 0.1238(3) 0.6575(3) 0.60831(19)
H10 H 0.1353 0.7170 0.6547
H11 H 0.0236 0.6410 0.6031
C8 C 0.1736(3) 0.7018(2) 0.51410(19)
H12 H 0.1352 0.7769 0.5040
H13 H 0.2757 0.7081 0.5157
C9 C 0.1298(3) 0.6270(3) 0.43294(19)
H14 H 0.0275 0.6226 0.4301
H15 H 0.1658 0.5513 0.4438
C10 C 0.1840(3) 0.6701(3) 0.33921(19)
H16 H 0.1390 0.6273 0.2890
H17 H 0.1559 0.7484 0.3318
C11 C 0.3412(3) 0.6620(2) 0.32862(16)
Cd1B Cd 0.628030(17) 0.623018(13) 0.287359(10)
Cd1C Cd 0.371970(17) 0.123018(13) 0.212641(10)
Cd1A Cd 0.628030(17) 0.876982(13) 0.787359(10)
O1B O 0.68055(17) 0.47131(14) 0.38681(12)
O2B O 0.8575(2) 0.50455(18) 0.29339(13)
O3B O 0.5942(2) 0.42446(16) 0.64232(13)
O4B O 0.5930(2) 0.26176(18) 0.71214(15)
O5B O 0.5652(3) 0.47204(19) 0.17977(15)
H1B H 0.5888 0.4028 0.1832
H2B H 0.4875 0.4872 0.1520
N1B N 0.8752(2) 0.89461(18) 0.44936(14)
N2B N 0.8650(3) 0.8368(2) 0.29723(14)
H5B H 0.9268 0.8878 0.2851
H6B H 0.8329 0.7941 0.2529
N3B N 0.72261(19) 0.74218(16) 0.40246(12)
N4B N 0.8954(3) 0.9598(2) 0.60084(16)
H7B H 0.9587 1.0067 0.5824
H8B H 0.8714 0.9583 0.6589
N5B N 0.6695(2) 0.78340(16) 0.64887(12)
N5C N 0.3305(2) 0.28340(16) 0.85113(12)
N5A N 0.6695(2) 0.71660(16) 0.14887(12)
N6B N 0.5921(2) 0.66397(16) 0.53482(13)
C1B C 0.8179(2) 0.8236(2) 0.38654(15)
C2B C 0.6839(2) 0.73792(18) 0.49478(14)
C3B C 0.7323(2) 0.81055(19) 0.56433(15)
C4B C 0.8351(3) 0.8901(2) 0.54000(17)
C5B C 0.5886(3) 0.69594(19) 0.62590(16)
H9B H 0.5330 0.6590 0.6697
C6B C 0.8014(3) 0.4466(2) 0.35594(15)
C7B C 0.8762(3) 0.3425(3) 0.39169(19)
H10B H 0.8647 0.2830 0.3453
H11B H 0.9764 0.3590 0.3969
C8B C 0.8264(3) 0.2982(2) 0.48590(19)
H12B H 0.8648 0.2231 0.4960
H13B H 0.7243 0.2919 0.4843
C9B C 0.8702(3) 0.3730(3) 0.56706(19)
H14B H 0.9725 0.3774 0.5699
H15B H 0.8342 0.4487 0.5562
C10B C 0.8160(3) 0.3299(3) 0.66079(19)
H16B H 0.8610 0.3727 0.7110
H17B H 0.8441 0.2516 0.6682
C11B C 0.6588(3) 0.3380(2) 0.67138(16)
O6 O 0.5941(9) 0.4402(6) 0.9641(7)
H3 H 0.6513 0.4260 0.9200
H4 H 0.5221 0.4800 0.9502
loop_
_geom_bond_atom_site_label_1
_geom_bond_atom_site_label_2
_geom_bond_site_symmetry_1
_geom_bond_site_symmetry_2
Cd1 O1 1_555 1_555
Cd2 O1 1_555 1_555
O1 C6 1_555 1_555
O2 Cd1 1_555 1_555
O3 Cd2 1_555 1_555
O4 C11 1_555 1_555
O5 Cd1 1_555 1_555
H1 O5 1_555 1_555
H2 O5 1_555 1_555
O6 H3 1_555 1_555
H4 O6 1_555 1_555
N1 C1 1_555 1_555
N2 H5 1_555 1_555
H6 N2 1_555 1_555
N3 Cd1 1_555 1_555
N4 H7 1_555 1_555
H8 N4 1_555 1_555
N5 C3 1_555 1_555
N6 Cd2 1_555 1_555
C1 N2 1_555 1_555
C2 N3 1_555 1_555
C3 C2 1_555 1_555
C4 N1 1_555 1_555
C5 N5 1_555 1_555
H9 C5 1_555 1_555
C6 O2 1_555 1_555
C7 C6 1_555 1_555
H10 C7 1_555 1_555
H11 C7 1_555 1_555
C8 C7 1_555 1_555
H12 C8 1_555 1_555
H13 C8 1_555 1_555
C9 C8 1_555 1_555
H14 C9 1_555 1_555
H15 C9 1_555 1_555
C10 C9 1_555 1_555
H16 C10 1_555 1_555
H17 C10 1_555 1_555
C11 O3 1_555 1_555
Cd1B O3 1_555 1_555
Cd1C N5 1_555 1_555
Cd1A N5B 1_555 1_555
O1B Cd2 1_555 1_555
O2B Cd1B 1_555 1_555
O3B Cd1 1_555 1_555
O4B Cd1 1_555 1_555
O5B Cd1B 1_555 1_555
H1B O5B 1_555 1_555
H2B O5B 1_555 1_555
N1B C1B 1_555 1_555
N2B H5B 1_555 1_555
H6B N2B 1_555 1_555
N3B Cd1B 1_555 1_555
N4B H7B 1_555 1_555
H8B N4B 1_555 1_555
N5B C3B 1_555 1_555
N5C Cd1 1_555 1_555
N5A Cd1B 1_555 1_555
N6B Cd2 1_555 1_555
C1B N2B 1_555 1_555
C2B N3B 1_555 1_555
C3B C2B 1_555 1_555
C4B N1B 1_555 1_555
C5B N5B 1_555 1_555
H9B C5B 1_555 1_555
C6B O1B 1_555 1_555
C7B C6B 1_555 1_555
H10B C7B 1_555 1_555
H11B C7B 1_555 1_555
C8B C7B 1_555 1_555
H12B C8B 1_555 1_555
H13B C8B 1_555 1_555
C9B C8B 1_555 1_555
H14B C9B 1_555 1_555
H15B C9B 1_555 1_555
C10B C9B 1_555 1_555
H16B C10B 1_555 1_555
H17B C10B 1_555 1_555
C11B O3B 1_555 1_555
Cd2 O3B 1_555 1_555
O4 Cd1B 1_555 1_555
N3 C1 1_555 1_555
N4 C4 1_555 1_555
N6 C2 1_555 1_555
N6 C5 1_555 1_555
C3 C4 1_555 1_555
C10 C11 1_555 1_555
Cd1B O1B 1_555 1_555
O2B C6B 1_555 1_555
O4B C11B 1_555 1_555
N3B C1B 1_555 1_555
N4B C4B 1_555 1_555
N6B C2B 1_555 1_555
N6B C5B 1_555 1_555
C3B C4B 1_555 1_555
C10B C11B 1_555 1_555

#END
