
#######################################################################
#
#                 Cambridge Crystallographic Data Centre
#                                CCDC 
#
#######################################################################
#
# If this CIF has been generated from an entry in the Cambridge 
# Structural Database, then it will include bibliographic, chemical, 
# crystal, experimental, refinement or atomic coordinate data resulting 
# from the CCDC's data processing and validation procedures.
#
#######################################################################

data_QUDLEH
_symmetry_cell_setting           orthorhombic
_symmetry_space_group_name_H-M   'P b c a'
_symmetry_Int_Tables_number      61
_space_group_name_Hall           '-P 2ac 2ab'
loop_
_symmetry_equiv_pos_site_id
_symmetry_equiv_pos_as_xyz
1 x,y,z
2 1/2-x,-y,1/2+z
3 -x,1/2+y,1/2-z
4 1/2+x,1/2-y,-z
5 -x,-y,-z
6 1/2+x,y,1/2-z
7 x,1/2-y,1/2+z
8 1/2-x,1/2+y,z
_cell_length_a                   7.376(3)
_cell_length_b                   18.396(7)
_cell_length_c                   24.237(8)
_cell_angle_alpha                90
_cell_angle_beta                 90
_cell_angle_gamma                90
_cell_volume                     3288.69
loop_
_atom_site_label
_atom_site_type_symbol
_atom_site_fract_x
_atom_site_fract_y
_atom_site_fract_z
Ag1 Ag 0.25028(4) 0.116719(18) 0.706611(12)
Ag2 Ag -0.53290(4) 0.250950(17) 0.714110(13)
N1 N 0.3444(4) 0.07575(17) 0.62617(12)
C1 C -0.1965(5) 0.2139(2) 0.59510(15)
C2 C -0.1610(5) 0.1455(2) 0.61839(14)
C3 C -0.1187(6) 0.0869(3) 0.58425(18)
H1 H -0.0891 0.0423 0.5998
C4 C -0.1202(7) 0.0946(4) 0.5275(2)
H2 H -0.0906 0.0553 0.5050
C5 C -0.1653(8) 0.1601(4) 0.50446(19)
H3 H -0.1724 0.1646 0.4663
C6 C -0.2002(8) 0.2190(4) 0.53727(18)
H4 H -0.2269 0.2635 0.5209
C7 C -0.2274(5) 0.2807(2) 0.62789(16)
C8 C -0.0920(4) 0.31207(18) 0.66111(14)
C9 C -0.1304(6) 0.3740(2) 0.69131(19)
H5 H -0.0429 0.3930 0.7149
C10 C -0.2981(7) 0.4085(3) 0.6870(3)
H6 H -0.3213 0.4511 0.7064
C11 C -0.4284(7) 0.3785(3) 0.6537(3)
H7 H -0.5408 0.4010 0.6504
C12 C -0.3948(6) 0.3159(3) 0.6253(2)
H8 H -0.4862 0.2962 0.6035
C13 C -0.1763(5) 0.13004(18) 0.67900(14)
C14 C 0.0977(4) 0.28229(18) 0.66285(15)
C15 C 0.3961(8) 0.0061(3) 0.62222(16)
H9 H 0.3906 -0.0228 0.6537
C16 C 0.4566(8) -0.0246(2) 0.57415(17)
H10 H 0.4918 -0.0732 0.5738
C17 C 0.4659(4) 0.01553(19) 0.52652(13)
C18 C 0.4081(6) 0.0864(2) 0.53064(16)
H11 H 0.4089 0.1160 0.4996
C19 C 0.3494(6) 0.1137(2) 0.58010(18)
H12 H 0.3109 0.1618 0.5812
O1 O -0.0746(4) 0.08263(16) 0.69941(12)
O2 O -0.2899(5) 0.16348(19) 0.70734(10)
O3 O 0.1655(4) 0.27209(19) 0.71004(11)
O4 O 0.1787(4) 0.2711(2) 0.61929(13)
Ag1D Ag 0.74972(4) -0.116719(18) 0.293389(12)
Ag1E Ag -0.24972(4) 0.116719(18) 0.793389(12)
Ag1E_2 Ag 0.75028(4) 0.116719(18) 0.793389(12)
Ag2E Ag -0.03290(4) 0.250950(17) 0.785890(13)
Ag2_2 Ag 0.46710(4) 0.250950(17) 0.714110(13)
Ag2E_2 Ag 0.96710(4) 0.250950(17) 0.785890(13)
N1D N 0.6556(4) -0.07575(17) 0.37383(12)
C1E C 0.3035(5) 0.2139(2) 0.90490(15)
C2E C 0.3390(5) 0.1455(2) 0.88161(14)
C3E C 0.3813(6) 0.0869(3) 0.91575(18)
H1E H 0.4109 0.0423 0.9002
C4E C 0.3798(7) 0.0946(4) 0.9725(2)
H2E H 0.4094 0.0553 0.9950
C5E C 0.3347(8) 0.1601(4) 0.99554(19)
H3E H 0.3276 0.1646 1.0337
C6E C 0.2998(8) 0.2190(4) 0.96273(18)
H4E H 0.2731 0.2635 0.9791
C7E C 0.2726(5) 0.2807(2) 0.87211(16)
C8E C 0.4080(4) 0.31207(18) 0.83889(14)
C9E C 0.3696(6) 0.3740(2) 0.80869(19)
H5E H 0.4571 0.3930 0.7851
C10E C 0.2019(7) 0.4085(3) 0.8130(3)
H6E H 0.1787 0.4511 0.7936
C11E C 0.0716(7) 0.3785(3) 0.8463(3)
H7E H -0.0408 0.4010 0.8496
C12E C 0.1052(6) 0.3159(3) 0.8747(2)
H8E H 0.0138 0.2962 0.8965
C13E C 0.3237(5) 0.13004(18) 0.82100(14)
C14E C 0.5977(4) 0.28229(18) 0.83715(15)
C15D C 0.6039(8) -0.0061(3) 0.37778(16)
H9D H 0.6094 0.0228 0.3463
C16D C 0.5434(8) 0.0246(2) 0.42585(17)
H10D H 0.5082 0.0732 0.4262
C17D C 0.5341(4) -0.01553(19) 0.47348(13)
C18D C 0.5919(6) -0.0864(2) 0.46936(16)
H11D H 0.5911 -0.1160 0.5004
C19D C 0.6506(6) -0.1137(2) 0.41990(18)
H12D H 0.6891 -0.1618 0.4188
O1E O 0.4254(4) 0.08263(16) 0.80059(12)
O1D O 1.0746(4) -0.08263(16) 0.30059(12)
O2E O 0.2101(5) 0.16348(19) 0.79266(10)
O2A O 0.7899(5) -0.16348(19) 0.20734(10)
O3E O 0.6655(4) 0.27209(19) 0.78996(11)
O3_2 O -0.8345(4) 0.27209(19) 0.71004(11)
O3E_2 O -0.3345(4) 0.27209(19) 0.78996(11)
O4E O 0.6787(4) 0.2711(2) 0.88071(13)
loop_
_geom_bond_atom_site_label_1
_geom_bond_atom_site_label_2
_geom_bond_site_symmetry_1
_geom_bond_site_symmetry_2
Ag1 N1 1_555 1_555
Ag2 O2 1_555 1_555
N1 C15 1_555 1_555
C1 C2 1_555 1_555
C2 C3 1_555 1_555
C3 H1 1_555 1_555
C4 C3 1_555 1_555
H2 C4 1_555 1_555
C5 C4 1_555 1_555
H3 C5 1_555 1_555
C6 C1 1_555 1_555
H4 C6 1_555 1_555
C7 C1 1_555 1_555
C8 C7 1_555 1_555
C9 C8 1_555 1_555
H5 C9 1_555 1_555
C10 C9 1_555 1_555
H6 C10 1_555 1_555
C11 C10 1_555 1_555
H7 C11 1_555 1_555
C12 C7 1_555 1_555
H8 C12 1_555 1_555
C13 C2 1_555 1_555
C14 C8 1_555 1_555
C15 H9 1_555 1_555
C16 C15 1_555 1_555
H10 C16 1_555 1_555
C17 C16 1_555 1_555
C18 C17 1_555 1_555
H11 C18 1_555 1_555
C19 N1 1_555 1_555
H12 C19 1_555 1_555
O1 Ag1 1_555 1_555
O2 C13 1_555 1_555
O3 C14 1_555 1_555
O4 C14 1_555 1_555
Ag1D N1D 1_555 1_555
Ag1E O2 1_555 1_555
Ag1E_2 O1E 1_555 1_555
Ag2E O3 1_555 1_555
Ag2_2 O3 1_555 1_555
Ag2E_2 O3E 1_555 1_555
N1D C15D 1_555 1_555
C1E C2E 1_555 1_555
C2E C3E 1_555 1_555
C3E H1E 1_555 1_555
C4E C3E 1_555 1_555
H2E C4E 1_555 1_555
C5E C4E 1_555 1_555
H3E C5E 1_555 1_555
C6E C1E 1_555 1_555
H4E C6E 1_555 1_555
C7E C1E 1_555 1_555
C8E C7E 1_555 1_555
C9E C8E 1_555 1_555
H5E C9E 1_555 1_555
C10E C9E 1_555 1_555
H6E C10E 1_555 1_555
C11E C10E 1_555 1_555
H7E C11E 1_555 1_555
C12E C7E 1_555 1_555
H8E C12E 1_555 1_555
C13E C2E 1_555 1_555
C14E C8E 1_555 1_555
C15D H9D 1_555 1_555
C16D C15D 1_555 1_555
H10D C16D 1_555 1_555
C17D C17 1_555 1_555
C18D C17D 1_555 1_555
H11D C18D 1_555 1_555
C19D N1D 1_555 1_555
H12D C19D 1_555 1_555
O1E C13E 1_555 1_555
O1D Ag1D 1_555 1_555
O2E Ag1 1_555 1_555
O2A Ag1D 1_555 1_555
O3E Ag2_2 1_555 1_555
O3_2 Ag2 1_555 1_555
O3E_2 Ag2 1_555 1_555
O4E C14E 1_555 1_555
C5 C6 1_555 1_555
C11 C12 1_555 1_555
C13 O1 1_555 1_555
C18 C19 1_555 1_555
Ag2E O2E 1_555 1_555
Ag2E O3E_2 1_555 1_555
C5E C6E 1_555 1_555
C11E C12E 1_555 1_555
C13E O2E 1_555 1_555
C14E O3E 1_555 1_555
C16D C17D 1_555 1_555
C18D C19D 1_555 1_555

#END
