
#######################################################################
#
#                 Cambridge Crystallographic Data Centre
#                                CCDC 
#
#######################################################################
#
# If this CIF has been generated from an entry in the Cambridge 
# Structural Database, then it will include bibliographic, chemical, 
# crystal, experimental, refinement or atomic coordinate data resulting 
# from the CCDC's data processing and validation procedures.
#
#######################################################################

data_QUDSEN
_symmetry_cell_setting           triclinic
_symmetry_space_group_name_H-M   'P -1'
_symmetry_Int_Tables_number      2
_space_group_name_Hall           '-P 1'
loop_
_symmetry_equiv_pos_site_id
_symmetry_equiv_pos_as_xyz
1 x,y,z
2 -x,-y,-z
_cell_length_a                   8.2275(11)
_cell_length_b                   9.8614(11)
_cell_length_c                   19.282(2)
_cell_angle_alpha                94.381(7)
_cell_angle_beta                 92.918(7)
_cell_angle_gamma                104.839(12)
_cell_volume                     1503.81
loop_
_atom_site_label
_atom_site_type_symbol
_atom_site_fract_x
_atom_site_fract_y
_atom_site_fract_z
Tb1 Tb 0.74262(4) 0.44562(3) 0.361762(15)
O1 O 0.9440(4) 0.3986(4) 0.2871(2)
C1 C 1.0994(6) 0.4194(5) 0.2900(3)
C2 C 1.2390(7) 0.4475(5) 0.3489(3)
O2 O 1.2496(5) 0.4608(5) 0.4118(2)
C3 C 1.3581(7) 0.4503(5) 0.2920(3)
O3 O 1.5138(5) 0.4670(4) 0.2915(2)
C4 C 1.2223(6) 0.4258(5) 0.2401(3)
C5 C 1.2146(7) 0.4111(5) 0.1646(3)
C6 C 1.3583(8) 0.4141(7) 0.1297(3)
H1 H 1.4616(8) 0.4281(7) 0.1549(3)
C7 C 1.3493(11) 0.3963(8) 0.0578(4)
H2 H 1.4467(11) 0.3998(8) 0.0348(4)
C8 C 1.1962(11) 0.3733(9) 0.0199(3)
H3 H 1.1901(11) 0.3580(9) -0.0285(3)
C9 C 1.0528(10) 0.3732(8) 0.0536(4)
H4 H 0.9507(10) 0.3613(8) 0.0278(4)
C10 C 1.0594(8) 0.3906(7) 0.1256(3)
H5 H 0.9618(8) 0.3888(7) 0.1481(3)
O4 O 0.8472(5) 0.6459(4) 0.3001(2)
C11 C 0.9034(7) 0.7738(5) 0.3138(3)
C12 C 1.0163(8) 0.8684(6) 0.3725(3)
O5 O 1.0861(7) 0.8523(4) 0.4271(3)
C13 C 1.0011(7) 0.9912(6) 0.3325(3)
O6 O 1.0622(6) 1.1200(4) 0.3446(2)
C14 C 0.8923(7) 0.8960(5) 0.2798(3)
C15 C 0.8020(8) 0.9118(6) 0.2158(3)
C16 C 0.8174(10) 1.0439(7) 0.1914(4)
H6 H 0.8862(10) 1.1245(7) 0.2162(4)
C17 C 0.7298(12) 1.0531(9) 0.1306(5)
H7 H 0.7387(12) 1.1410(9) 0.1143(5)
C18 C 0.6279(12) 0.9339(10) 0.0926(4)
H8 H 0.5731(12) 0.9415(10) 0.0503(4)
C19 C 0.6084(10) 0.8067(8) 0.1173(4)
H9 H 0.5367(10) 0.7274(8) 0.0926(4)
C20 C 0.6931(10) 0.7929(7) 0.1783(4)
H10 H 0.6783(10) 0.7047(7) 0.1949(4)
O7 O 0.5788(6) 0.2198(4) 0.3189(2)
C21 C 0.5359(7) 0.0929(5) 0.3288(3)
C22 C 0.5793(8) 0.0056(6) 0.3843(3)
O8 O 0.6666(7) 0.0274(4) 0.4387(3)
C23 C 0.4686(8) -0.1218(6) 0.3411(3)
O9 O 0.4333(6) -0.2489(4) 0.3463(3)
C24 C 0.4294(7) -0.0303(5) 0.2909(3)
C25 C 0.3269(7) -0.0542(6) 0.2260(3)
C26 C 0.2422(9) -0.1919(6) 0.1992(4)
H11 H 0.2506(9) -0.2684(6) 0.2232(4)
C27 C 0.1455(11) -0.2121(7) 0.1362(4)
H12 H 0.0872(11) -0.3030(7) 0.1186(4)
C28 C 0.1346(11) -0.1026(8) 0.1000(5)
H13 H 0.0714(11) -0.1188(8) 0.0574(5)
C29 C 0.2162(11) 0.0323(8) 0.1259(4)
H14 H 0.2069(11) 0.1075(8) 0.1011(4)
C30 C 0.3116(9) 0.0568(6) 0.1881(4)
H15 H 0.3667(9) 0.1488(6) 0.2052(4)
O10 O 0.8788(5) 0.2837(4) 0.4171(2)
H16 H 0.7948(57) 0.2200(45) 0.4340(33)
H17 H 0.9345(68) 0.2347(52) 0.3903(30)
O11 O 0.9705(5) 0.5722(4) 0.4386(2)
H18 H 1.0496(53) 0.5251(52) 0.4451(37)
H19 H 1.0213(69) 0.6640(17) 0.4504(38)
O12 O 0.6561(6) 0.6414(4) 0.4178(2)
H20 H 0.5687(57) 0.6704(67) 0.4003(32)
H21 H 0.6922(82) 0.6920(63) 0.4591(18)
O13 O 0.5988(6) 0.3626(4) 0.4610(2)
H22 H 0.5971(79) 0.4095(63) 0.5027(18)
H23 H 0.4938(32) 0.3066(61) 0.4513(33)
O3_2 O 0.5138(5) 0.4670(4) 0.2915(2)
Tb1_2 Tb 1.74262(4) 0.44562(3) 0.361762(15)
O14 O 0.2971(6) 0.1701(4) 0.4631(2)
H24 H 0.2846(85) 0.0871(34) 0.4814(33)
H25 H 0.2183(66) 0.1545(66) 0.4272(25)
loop_
_geom_bond_atom_site_label_1
_geom_bond_atom_site_label_2
_geom_bond_site_symmetry_1
_geom_bond_site_symmetry_2
Tb1 O1 1_555 1_555
O1 C1 1_555 1_555
C1 C2 1_555 1_555
C2 O2 1_555 1_555
C3 C2 1_555 1_555
O3 C3 1_555 1_555
C4 C1 1_555 1_555
C5 C4 1_555 1_555
C6 C5 1_555 1_555
H1 C6 1_555 1_555
C7 C6 1_555 1_555
H2 C7 1_555 1_555
C8 C7 1_555 1_555
H3 C8 1_555 1_555
C9 C8 1_555 1_555
H4 C9 1_555 1_555
C10 C5 1_555 1_555
H5 C10 1_555 1_555
O4 Tb1 1_555 1_555
C11 O4 1_555 1_555
C12 C11 1_555 1_555
O5 C12 1_555 1_555
C13 C12 1_555 1_555
O6 C13 1_555 1_555
C14 C11 1_555 1_555
C15 C14 1_555 1_555
C16 C15 1_555 1_555
H6 C16 1_555 1_555
C17 C16 1_555 1_555
H7 C17 1_555 1_555
C18 C17 1_555 1_555
H8 C18 1_555 1_555
C19 C18 1_555 1_555
H9 C19 1_555 1_555
C20 C15 1_555 1_555
H10 C20 1_555 1_555
O7 Tb1 1_555 1_555
C21 O7 1_555 1_555
C22 C21 1_555 1_555
O8 C22 1_555 1_555
C23 C22 1_555 1_555
O9 C23 1_555 1_555
C24 C21 1_555 1_555
C25 C24 1_555 1_555
C26 C25 1_555 1_555
H11 C26 1_555 1_555
C27 C26 1_555 1_555
H12 C27 1_555 1_555
C28 C27 1_555 1_555
H13 C28 1_555 1_555
C29 C28 1_555 1_555
H14 C29 1_555 1_555
C30 C25 1_555 1_555
H15 C30 1_555 1_555
O10 Tb1 1_555 1_555
H16 O10 1_555 1_555
H17 O10 1_555 1_555
O11 Tb1 1_555 1_555
H18 O11 1_555 1_555
H19 O11 1_555 1_555
O12 Tb1 1_555 1_555
H20 O12 1_555 1_555
H21 O12 1_555 1_555
O13 Tb1 1_555 1_555
H22 O13 1_555 1_555
H23 O13 1_555 1_555
O14 H24 1_555 1_555
H25 O14 1_555 1_555
O3_2 Tb1 1_555 1_555
Tb1_2 O3 1_555 1_555
C3 C4 1_555 1_555
C9 C10 1_555 1_555
C13 C14 1_555 1_555
C19 C20 1_555 1_555
C23 C24 1_555 1_555
C29 C30 1_555 1_555

#END
