
#######################################################################
#
#                 Cambridge Crystallographic Data Centre
#                                CCDC 
#
#######################################################################
#
# If this CIF has been generated from an entry in the Cambridge 
# Structural Database, then it will include bibliographic, chemical, 
# crystal, experimental, refinement or atomic coordinate data resulting 
# from the CCDC's data processing and validation procedures.
#
#######################################################################

data_QUFFIH
_symmetry_cell_setting           monoclinic
_symmetry_space_group_name_H-M   'P 21/c'
_symmetry_Int_Tables_number      14
_space_group_name_Hall           '-P 2ybc'
loop_
_symmetry_equiv_pos_site_id
_symmetry_equiv_pos_as_xyz
1 x,y,z
2 -x,1/2+y,1/2-z
3 -x,-y,-z
4 x,1/2-y,1/2+z
_cell_length_a                   10.4707(7)
_cell_length_b                   19.842(2)
_cell_length_c                   8.8702(8)
_cell_angle_alpha                90
_cell_angle_beta                 103.723(9)
_cell_angle_gamma                90
_cell_volume                     1790.26
loop_
_atom_site_label
_atom_site_type_symbol
_atom_site_fract_x
_atom_site_fract_y
_atom_site_fract_z
C1 C 0.45633(19) 0.17422(10) 0.4287(3)
C2 C 0.52997(19) 0.14902(10) 0.5680(3)
C3 C 0.44261(19) 0.14751(10) 0.6688(3)
C4 C 0.4876(3) 0.18357(13) 0.2747(3)
H1 H 0.4949 0.1430 0.2320
H2 H 0.5641 0.2061 0.2870
H3 H 0.4228 0.2073 0.2121
C5 C 0.4698(2) 0.12623(14) 0.8355(3)
H4 H 0.4228 0.1517 0.8857
H5 H 0.5555 0.1313 0.8793
H6 H 0.4473 0.0830 0.8410
C6 C 0.72652(19) 0.06657(10) 0.6364(3)
C7 C 0.67057(19) 0.13025(10) 0.6024(3)
C8 C 0.77871(19) 0.17376(10) 0.6021(3)
C9 C 0.6658(2) -0.00063(12) 0.6508(4)
H7 H 0.6859 -0.0296 0.581
H8 H 0.5771 0.0039 0.632
H9 H 0.6975 -0.0170 0.748
C10 C 0.7771(2) 0.24829(12) 0.5727(4)
H10 H 0.8300 0.2706 0.6610
H11 H 0.6890 0.2645 0.555
H12 H 0.8111 0.2571 0.484
C11 C 0.1530(2) -0.00322(10) 0.7156(3)
C12 C 0.2642(2) -0.05353(13) 0.7651(4)
H13 H 0.3336 -0.0395 0.734
H14 H 0.2391 -0.0932 0.723
H15 H 0.2845 -0.0572 0.867
C13 C 0.1158(2) 0.31968(9) 0.5064(2)
C14 C 0.0840(4) 0.39384(12) 0.5147(4)
H16 H -0.001 0.3999 0.480
H17 H 0.108 0.4076 0.611
H18 H 0.126 0.4170 0.457
N1 N 0.32417(17) 0.17136(9) 0.5958(2)
N2 N 0.33514(18) 0.18699(9) 0.4498(2)
N3 N 0.89148(16) 0.13853(9) 0.6331(2)
N4 N 0.85717(17) 0.07359(9) 0.6529(2)
O1 O 0.18270(15) 0.05649(7) 0.6942(2)
O2 O 0.03833(15) -0.02517(7) 0.7013(2)
O3 O 0.15021(15) 0.29748(7) 0.38968(17)
O4 O 0.10541(15) 0.28340(7) 0.62143(17)
O5 O 0.02553(18) 0.15534(9) 0.3695(2)
Cd1 Cd 0.109365(13) 0.165590(6) 0.634347(16)
H19 H 0.275(3) 0.2063(14) 0.392(3)
H20 H 0.912(3) 0.0406(15) 0.669(4)
H21 H 0.043(3) 0.1759(14) 0.300(4)
H22 H 0.005(3) 0.1177(19) 0.342(4)
N3_2 N -0.10852(16) 0.13853(9) 0.6331(2)
O3C O 0.15021(15) 0.20252(7) 0.88968(17)
Cd1_2 Cd 1.109365(13) 0.165590(6) 0.634347(16)
Cd1C Cd 0.109365(13) 0.334410(6) 0.134347(16)
loop_
_geom_bond_atom_site_label_1
_geom_bond_atom_site_label_2
_geom_bond_site_symmetry_1
_geom_bond_site_symmetry_2
C1 C2 1_555 1_555
C2 C3 1_555 1_555
C3 C5 1_555 1_555
C4 C1 1_555 1_555
H1 C4 1_555 1_555
H2 C4 1_555 1_555
H3 C4 1_555 1_555
C5 H4 1_555 1_555
H5 C5 1_555 1_555
H6 C5 1_555 1_555
C6 C7 1_555 1_555
C7 C2 1_555 1_555
C8 C7 1_555 1_555
C9 C6 1_555 1_555
H7 C9 1_555 1_555
H8 C9 1_555 1_555
H9 C9 1_555 1_555
C10 C8 1_555 1_555
H10 C10 1_555 1_555
H11 C10 1_555 1_555
H12 C10 1_555 1_555
C11 C12 1_555 1_555
C12 H13 1_555 1_555
H14 C12 1_555 1_555
H15 C12 1_555 1_555
C13 C14 1_555 1_555
C14 H16 1_555 1_555
H17 C14 1_555 1_555
H18 C14 1_555 1_555
N1 C3 1_555 1_555
N2 C1 1_555 1_555
N3 C8 1_555 1_555
N4 C6 1_555 1_555
O1 C11 1_555 1_555
O2 C11 1_555 1_555
O3 C13 1_555 1_555
O4 C13 1_555 1_555
O5 Cd1 1_555 1_555
Cd1 N1 1_555 1_555
H19 N2 1_555 1_555
H20 N4 1_555 1_555
H21 O5 1_555 1_555
H22 O5 1_555 1_555
N3_2 Cd1 1_555 1_555
O3C Cd1 1_555 1_555
Cd1_2 N3 1_555 1_555
Cd1C O3 1_555 1_555
N1 N2 1_555 1_555
N3 N4 1_555 1_555
O1 Cd1 1_555 1_555
O4 Cd1 1_555 1_555

#END
