
#######################################################################
#
#                 Cambridge Crystallographic Data Centre
#                                CCDC 
#
#######################################################################
#
# If this CIF has been generated from an entry in the Cambridge 
# Structural Database, then it will include bibliographic, chemical, 
# crystal, experimental, refinement or atomic coordinate data resulting 
# from the CCDC's data processing and validation procedures.
#
#######################################################################

data_QUFGUU
_symmetry_cell_setting           triclinic
_symmetry_space_group_name_H-M   'P -1'
_symmetry_Int_Tables_number      2
_space_group_name_Hall           '-P 1'
loop_
_symmetry_equiv_pos_site_id
_symmetry_equiv_pos_as_xyz
1 x,y,z
2 -x,-y,-z
_cell_length_a                   12.5277(8)
_cell_length_b                   13.8353(11)
_cell_length_c                   14.8675(11)
_cell_angle_alpha                96.549(3)
_cell_angle_beta                 107.962(3)
_cell_angle_gamma                97.212(3)
_cell_volume                     2399.84
loop_
_atom_site_label
_atom_site_type_symbol
_atom_site_fract_x
_atom_site_fract_y
_atom_site_fract_z
Mn1 Mn 0.40023(4) 0.04405(4) 0.33239(4)
Mn2 Mn 0.37508(4) 0.08248(3) 0.09999(4)
F1 F -0.13599(18) 0.29033(15) 0.43403(17)
F2 F -0.1810(2) 0.61460(16) 0.41272(17)
F3 F -0.21162(17) 0.23198(16) 0.16001(16)
F4 F -0.3392(2) 0.53073(19) 0.18328(17)
F5 F 0.8443(2) -0.22924(15) 0.16222(16)
F6 F 1.2110(2) -0.30336(18) 0.2640(2)
F7 F 0.69288(19) 0.50801(15) -0.13650(17)
F8 F 0.6808(2) 0.5201(2) -0.44944(18)
O1 O 0.0931(2) 0.30707(16) 0.28643(17)
O2 O 0.0121(2) 0.34379(18) 0.0293(2)
O3 O 0.8782(3) -0.0999(2) 0.4305(2)
O4 O 0.4267(2) 0.27167(17) -0.22631(18)
N1 N 0.2257(2) 0.06285(19) 0.3300(2)
N2 N 0.0375(2) 0.0661(2) 0.2691(2)
N3 N 0.0873(2) 0.13424(19) 0.3500(2)
N4 N 0.1941(2) 0.11194(19) 0.0520(2)
N5 N 0.0122(2) 0.1030(2) -0.04284(19)
N6 N 0.0308(2) 0.15522(19) 0.0461(2)
N7 N 0.5813(2) 0.0348(2) 0.34558(19)
N8 N 0.7587(2) 0.0758(2) 0.3401(2)
N9 N 0.7189(2) -0.0219(2) 0.30747(19)
N10 N 0.4206(2) 0.2156(2) 0.0368(2)
N11 N 0.4267(3) 0.3720(2) 0.0073(2)
N12 N 0.4924(2) 0.32346(19) -0.03375(19)
N13 N 0.3347(2) -0.0349(2) 0.18158(19)
N14 N 0.3187(2) -0.1206(3) 0.1495(2)
N15 N 0.3015(3) -0.2032(3) 0.1170(3)
N16 N 0.4088(2) 0.1700(2) 0.2452(2)
N17 N 0.4753(3) 0.2459(3) 0.2797(2)
N18 N 0.5395(3) 0.3181(3) 0.3123(3)
N19 N 0.3231(3) -0.0180(2) -0.0403(2)
N20 N 0.3865(2) -0.03661(19) -0.0810(2)
N21 N 0.4476(3) -0.0556(2) -0.1229(2)
N22 N 0.4650(3) 0.1422(2) 0.4745(2)
N23 N 0.5305(3) 0.1179(2) 0.5405(3)
N24 N 0.5972(3) 0.0963(2) 0.6073(2)
C1 C 0.1978(3) 0.1315(2) 0.3837(2)
H1 H 0.2488 0.1725 0.4378
C2 C 0.1242(3) 0.0249(2) 0.2616(3)
H2 H 0.1164 -0.0267 0.2128
C3 C 0.0240(3) 0.2044(2) 0.3808(2)
H3 H 0.0517 0.2203 0.4501
H4 H -0.0558 0.1749 0.3610
C4 C 0.0356(3) 0.2985(2) 0.3386(2)
C5 C -0.0232(3) 0.3803(2) 0.3610(2)
C6 C -0.1066(3) 0.3742(3) 0.4040(2)
C7 C -0.1625(3) 0.4500(3) 0.4206(3)
H5 H -0.2198 0.4422 0.4481
C8 C -0.1297(4) 0.5375(3) 0.3946(3)
C9 C -0.0477(3) 0.5503(3) 0.3522(3)
H6 H -0.0279 0.6110 0.3352
C10 C 0.0055(3) 0.4719(3) 0.3349(2)
H7 H 0.0610 0.4799 0.3055
C11 C 0.1126(3) 0.0789(2) -0.0341(3)
H8 H 0.1268 0.0414 -0.0839
C12 C 0.1388(3) 0.1598(2) 0.1003(3)
H9 H 0.1707 0.1922 0.1632
C13 C -0.0593(3) 0.1954(2) 0.0710(2)
H10 H -0.0525 0.1882 0.1366
H11 H -0.1323 0.1582 0.0297
C14 C -0.0552(3) 0.3026(3) 0.0610(2)
C15 C -0.1366(3) 0.3591(3) 0.0919(2)
C16 C -0.2096(3) 0.3239(3) 0.1381(3)
C17 C -0.2799(3) 0.3794(3) 0.1684(3)
H12 H -0.3285 0.3537 0.1994
C18 C -0.2739(4) 0.4740(4) 0.1504(3)
C19 C -0.2052(4) 0.5142(3) 0.1043(3)
H13 H -0.2048 0.5790 0.0930
C20 C -0.1364(3) 0.4568(3) 0.0746(3)
H14 H -0.0891 0.4831 0.0428
C21 C 0.6142(3) -0.0442(3) 0.3113(2)
H15 H 0.5702 -0.1069 0.2924
C22 C 0.6723(3) 0.1058(3) 0.3613(3)
H16 H 0.6739 0.1712 0.3855
C23 C 0.7841(3) -0.0850(2) 0.2694(2)
H17 H 0.8199 -0.0497 0.2307
H18 H 0.7331 -0.1428 0.2284
C24 C 0.8743(3) -0.1172(3) 0.3477(3)
C25 C 0.9608(3) -0.1680(2) 0.3216(3)
C26 C 0.9460(3) -0.2194(3) 0.2327(3)
C27 C 1.0290(4) -0.2649(3) 0.2102(3)
H19 H 1.0166 -0.2989 0.1492
C28 C 1.1296(4) -0.2573(3) 0.2822(4)
C29 C 1.1508(3) -0.2081(3) 0.3717(3)
H20 H 1.2208 -0.2048 0.4188
C30 C 1.0662(3) -0.1629(3) 0.3915(3)
H21 H 1.0800 -0.1284 0.4525
C31 C 0.3855(3) 0.3031(3) 0.0477(3)
H22 H 0.3356 0.3140 0.0814
C32 C 0.4872(3) 0.2320(2) -0.0159(3)
H23 H 0.5250 0.1855 -0.0374
C33 C 0.5549(3) 0.3751(2) -0.0872(2)
H24 H 0.6334 0.3651 -0.0653
H25 H 0.5546 0.4453 -0.0738
C34 C 0.5053(3) 0.3407(3) -0.1941(3)
C35 C 0.5560(3) 0.3905(2) -0.2578(3)
C36 C 0.6420(3) 0.4694(3) -0.2308(3)
C37 C 0.6856(4) 0.5161(3) -0.2919(3)
H26 H 0.7433 0.5709 -0.2698
C38 C 0.6392(4) 0.4772(4) -0.3866(4)
C39 C 0.5545(4) 0.3974(4) -0.4209(3)
H27 H 0.5256 0.3721 -0.4860
C40 C 0.5124(3) 0.3547(3) -0.3559(3)
H28 H 0.4536 0.3008 -0.3784
Mn1A Mn 0.59977(4) -0.04405(4) 0.66761(4)
Mn2A Mn 0.62492(4) -0.08248(3) -0.09999(4)
N21A N 0.5524(3) 0.0556(2) 0.1229(2)
N24A N 0.4028(3) -0.0963(2) 0.3927(2)
loop_
_geom_bond_atom_site_label_1
_geom_bond_atom_site_label_2
_geom_bond_site_symmetry_1
_geom_bond_site_symmetry_2
Mn1 N1 1_555 1_555
Mn2 N4 1_555 1_555
F1 C6 1_555 1_555
F2 C8 1_555 1_555
F3 C16 1_555 1_555
F4 C18 1_555 1_555
F5 C26 1_555 1_555
F6 C28 1_555 1_555
F7 C36 1_555 1_555
F8 C38 1_555 1_555
O1 C4 1_555 1_555
O2 C14 1_555 1_555
O3 C24 1_555 1_555
O4 C34 1_555 1_555
N1 C1 1_555 1_555
N2 N3 1_555 1_555
N3 C1 1_555 1_555
N4 C11 1_555 1_555
N5 N6 1_555 1_555
N6 C12 1_555 1_555
N7 Mn1 1_555 1_555
N8 N9 1_555 1_555
N9 C21 1_555 1_555
N10 Mn2 1_555 1_555
N11 N12 1_555 1_555
N12 C32 1_555 1_555
N13 Mn1 1_555 1_555
N14 N13 1_555 1_555
N15 N14 1_555 1_555
N16 Mn1 1_555 1_555
N17 N16 1_555 1_555
N18 N17 1_555 1_555
N19 Mn2 1_555 1_555
N20 N19 1_555 1_555
N21 N20 1_555 1_555
N22 Mn1 1_555 1_555
N23 N22 1_555 1_555
N24 N23 1_555 1_555
C1 H1 1_555 1_555
C2 N1 1_555 1_555
H2 C2 1_555 1_555
C3 N3 1_555 1_555
H3 C3 1_555 1_555
H4 C3 1_555 1_555
C4 C3 1_555 1_555
C5 C4 1_555 1_555
C6 C5 1_555 1_555
C7 C6 1_555 1_555
H5 C7 1_555 1_555
C8 C7 1_555 1_555
C9 C8 1_555 1_555
H6 C9 1_555 1_555
C10 C5 1_555 1_555
H7 C10 1_555 1_555
C11 N5 1_555 1_555
H8 C11 1_555 1_555
C12 N4 1_555 1_555
H9 C12 1_555 1_555
C13 N6 1_555 1_555
H10 C13 1_555 1_555
H11 C13 1_555 1_555
C14 C13 1_555 1_555
C15 C14 1_555 1_555
C16 C15 1_555 1_555
C17 C16 1_555 1_555
H12 C17 1_555 1_555
C18 C17 1_555 1_555
C19 C18 1_555 1_555
H13 C19 1_555 1_555
C20 C15 1_555 1_555
H14 C20 1_555 1_555
C21 N7 1_555 1_555
H15 C21 1_555 1_555
C22 N7 1_555 1_555
H16 C22 1_555 1_555
C23 N9 1_555 1_555
H17 C23 1_555 1_555
H18 C23 1_555 1_555
C24 C23 1_555 1_555
C25 C24 1_555 1_555
C26 C25 1_555 1_555
C27 C26 1_555 1_555
H19 C27 1_555 1_555
C28 C27 1_555 1_555
C29 C28 1_555 1_555
H20 C29 1_555 1_555
C30 C25 1_555 1_555
H21 C30 1_555 1_555
C31 N10 1_555 1_555
H22 C31 1_555 1_555
C32 N10 1_555 1_555
H23 C32 1_555 1_555
C33 N12 1_555 1_555
H24 C33 1_555 1_555
H25 C33 1_555 1_555
C34 C33 1_555 1_555
C35 C34 1_555 1_555
C36 C35 1_555 1_555
C37 C36 1_555 1_555
H26 C37 1_555 1_555
C38 C37 1_555 1_555
C39 C38 1_555 1_555
H27 C39 1_555 1_555
C40 C35 1_555 1_555
H28 C40 1_555 1_555
Mn1A N24 1_555 1_555
Mn2A N21 1_555 1_555
N21A Mn2 1_555 1_555
N24A Mn1 1_555 1_555
Mn2 N13 1_555 1_555
Mn2 N16 1_555 1_555
N2 C2 1_555 1_555
N8 C22 1_555 1_555
N11 C31 1_555 1_555
C9 C10 1_555 1_555
C19 C20 1_555 1_555
C29 C30 1_555 1_555
C39 C40 1_555 1_555

#END
