
#######################################################################
#
#                 Cambridge Crystallographic Data Centre
#                                CCDC 
#
#######################################################################
#
# If this CIF has been generated from an entry in the Cambridge 
# Structural Database, then it will include bibliographic, chemical, 
# crystal, experimental, refinement or atomic coordinate data resulting 
# from the CCDC's data processing and validation procedures.
#
#######################################################################

data_QUFGOO
_symmetry_cell_setting           monoclinic
_symmetry_space_group_name_H-M   'P 21/c'
_symmetry_Int_Tables_number      14
_space_group_name_Hall           '-P 2ybc'
loop_
_symmetry_equiv_pos_site_id
_symmetry_equiv_pos_as_xyz
1 x,y,z
2 -x,1/2+y,1/2-z
3 -x,-y,-z
4 x,1/2-y,1/2+z
_cell_length_a                   13.3578(8)
_cell_length_b                   18.3162(8)
_cell_length_c                   7.7720(5)
_cell_angle_alpha                90
_cell_angle_beta                 98.421(5)
_cell_angle_gamma                90
_cell_volume                     1881.03
loop_
_atom_site_label
_atom_site_type_symbol
_atom_site_fract_x
_atom_site_fract_y
_atom_site_fract_z
C1 C 0.72268(10) -0.16597(7) 0.77119(17)
C2 C 0.81536(10) -0.13055(7) 0.81175(17)
C3 C 0.79389(10) -0.06707(7) 0.90260(17)
C4 C 0.69422(10) -0.23406(8) 0.67104(18)
H1 H 0.6781 -0.2704 0.7466
H2 H 0.7485 -0.2495 0.6168
H3 H 0.6382 -0.22495 0.5869
C5 C 0.86392(10) -0.00630(8) 0.96588(19)
H4 H 0.8297 0.0382 0.9484
H5 H 0.9191 -0.0064 0.9045
H6 H 0.8869 -0.0126 1.0845
C6 C 1.00516(10) -0.15599(7) 0.88205(18)
C7 C 0.91562(10) -0.14815(7) 0.76612(18)
C8 C 0.94629(10) -0.14774(7) 0.59993(18)
C9 C 1.02395(11) -0.16230(8) 1.07540(18)
H7 H 1.0934 -0.1749 1.1123
H8 H 0.9811 -0.1995 1.1119
H9 H 1.0094 -0.1166 1.1263
C10 C 0.88025(11) -0.14395(9) 0.42778(19)
H10 H 0.8988 -0.1023 0.3645
H11 H 0.8109 -0.1395 0.4452
H12 H 0.8886 -0.1875 0.3630
C11 C 0.47647(10) 0.41259(7) 1.22097(17)
C12 C 0.56581(10) 0.37123(7) 1.17422(17)
C13 C 0.56007(10) 0.29545(7) 1.15908(17)
C14 C 0.64180(10) 0.25646(7) 1.11469(17)
C15 C 0.63606(10) 0.17490(7) 1.10177(17)
C16 C 0.72848(10) 0.29316(7) 1.07992(17)
C17 C 0.73362(10) 0.36890(7) 1.09452(17)
C18 C 0.65294(10) 0.40791(7) 1.14422(17)
N1 N 0.69616(8) -0.06420(6) 0.91932(15)
N2 N 0.65392(9) -0.12491(6) 0.83818(15)
N3 N 1.04696(9) -0.15390(6) 0.61179(15)
N4 N 1.08062(9) -0.15898(6) 0.78547(15)
O1 O 0.49605(7) 0.46796(5) 1.32390(12)
O2 O 0.39060(8) 0.39237(6) 1.15810(15)
O3 O 0.71333(7) 0.13967(5) 1.07038(13)
O4 O 0.55517(7) 0.14249(5) 1.12084(14)
O5 O 0.81553(7) 0.40802(5) 1.06122(13)
O6 O 0.74092(8) -0.00295(6) 1.29595(14)
Cd1 Cd 0.627253(7) 0.027826(5) 1.059266(12)
H13 H 0.5945(16) -0.1323(11) 0.837(3)
H14 H 1.1457(15) -0.1578(10) 0.825(2)
H15 H 0.8605(17) 0.3820(13) 1.018(3)
H16 H 0.7122(16) -0.0362(12) 1.331(3)
H17 H 0.7597(18) 0.0245(13) 1.375(3)
H18 H 0.5030 0.2714 1.181
H19 H 0.7824 0.2675 1.049
H20 H 0.6568 0.4578 1.157
O1A O 0.50395(7) -0.03204(5) 1.17610(12)
O1C O 0.49605(7) 0.03204(5) 0.82390(12)
Cd1A Cd 0.372747(7) 0.527826(5) 1.440734(12)
Cd1C Cd 0.627253(7) 0.472174(5) 1.559266(12)
loop_
_geom_bond_atom_site_label_1
_geom_bond_atom_site_label_2
_geom_bond_site_symmetry_1
_geom_bond_site_symmetry_2
C1 C2 1_555 1_555
C2 C3 1_555 1_555
C3 C5 1_555 1_555
C4 C1 1_555 1_555
H1 C4 1_555 1_555
H2 C4 1_555 1_555
H3 C4 1_555 1_555
C5 H4 1_555 1_555
H5 C5 1_555 1_555
H6 C5 1_555 1_555
C6 C7 1_555 1_555
C7 C2 1_555 1_555
C8 C7 1_555 1_555
C9 C6 1_555 1_555
H7 C9 1_555 1_555
H8 C9 1_555 1_555
H9 C9 1_555 1_555
C10 C8 1_555 1_555
H10 C10 1_555 1_555
H11 C10 1_555 1_555
H12 C10 1_555 1_555
C11 C12 1_555 1_555
C12 C13 1_555 1_555
C13 C14 1_555 1_555
C14 C15 1_555 1_555
C15 O3 1_555 1_555
C16 C14 1_555 1_555
C17 C16 1_555 1_555
C18 C12 1_555 1_555
N1 C3 1_555 1_555
N2 C1 1_555 1_555
N3 C8 1_555 1_555
N4 C6 1_555 1_555
O1 C11 1_555 1_555
O2 C11 1_555 1_555
O3 Cd1 1_555 1_555
O4 C15 1_555 1_555
O5 C17 1_555 1_555
O6 Cd1 1_555 1_555
Cd1 N1 1_555 1_555
H13 N2 1_555 1_555
H14 N4 1_555 1_555
H15 O5 1_555 1_555
H16 O6 1_555 1_555
H17 O6 1_555 1_555
H18 C13 1_555 1_555
H19 C16 1_555 1_555
H20 C18 1_555 1_555
O1A Cd1 1_555 1_555
O1C Cd1 1_555 1_555
Cd1A O1 1_555 1_555
Cd1C O1 1_555 1_555
C17 C18 1_555 1_555
N1 N2 1_555 1_555
N3 N4 1_555 1_555
O4 Cd1 1_555 1_555

#END
