
#######################################################################
#
#                 Cambridge Crystallographic Data Centre
#                                CCDC 
#
#######################################################################
#
# If this CIF has been generated from an entry in the Cambridge 
# Structural Database, then it will include bibliographic, chemical, 
# crystal, experimental, refinement or atomic coordinate data resulting 
# from the CCDC's data processing and validation procedures.
#
#######################################################################

data_QUFGII
_symmetry_cell_setting           monoclinic
_symmetry_space_group_name_H-M   'C 2/c'
_symmetry_Int_Tables_number      15
_space_group_name_Hall           '-C 2yn'
loop_
_symmetry_equiv_pos_site_id
_symmetry_equiv_pos_as_xyz
1 x,y,z
2 -x,y,1/2-z
3 1/2+x,1/2+y,z
4 1/2-x,1/2+y,1/2-z
5 -x,-y,-z
6 x,-y,1/2+z
7 1/2-x,1/2-y,-z
8 1/2+x,1/2-y,1/2+z
_cell_length_a                   13.9736(15)
_cell_length_b                   21.3073(16)
_cell_length_c                   27.066(3)
_cell_angle_alpha                90
_cell_angle_beta                 100.549(13)
_cell_angle_gamma                90
_cell_volume                     7922.42
loop_
_atom_site_label
_atom_site_type_symbol
_atom_site_fract_x
_atom_site_fract_y
_atom_site_fract_z
C1 C 0.35654(16) -0.26146(11) 0.33302(8)
C2 C 0.32607(15) -0.31954(10) 0.34827(8)
C3 C 0.34746(14) -0.31843(9) 0.40121(8)
C4 C 0.3552(2) -0.23531(14) 0.28168(9)
H1 H 0.2963 -0.2395 0.2634
H2 H 0.3976 -0.2558 0.2672
H3 H 0.3710 -0.1951 0.28405
C5 C 0.3271(2) -0.36924(11) 0.43607(9)
H4 H 0.3868 -0.3834 0.4557
H5 H 0.2953 -0.4033 0.4170
H6 H 0.2863 -0.3533 0.4577
C6 C 0.17859(19) -0.37773(15) 0.30013(14)
C7 C 0.27734(15) -0.37010(10) 0.31559(8)
C8 C 0.31897(14) -0.42054(10) 0.29376(7)
C9 C 0.0952(2) -0.3406(2) 0.3126(2)
H7 H 0.0858 -0.3036 0.2920
H8 H 0.1091 -0.3288 0.3474
H9 H 0.0371 -0.3657 0.3062
C10 C 0.42374(18) -0.43746(16) 0.29981(13)
H10 H 0.4303 -0.4711 0.2809
H11 H 0.4471 -0.4463 0.3321
H12 H 0.4569 -0.4052 0.2901
C11 C 0.39336(14) -0.48960(10) 0.60644(7)
C12 C 0.42025(13) -0.42732(9) 0.61518(7)
C13 C 0.38978(14) -0.41086(9) 0.66056(7)
C14 C 0.40295(18) -0.53373(12) 0.56430(9)
H13 H 0.4526 -0.5597 0.5742
H14 H 0.3484 -0.5558 0.5559
H15 H 0.4135 -0.5118 0.5379
C15 C 0.39735(18) -0.34892(11) 0.68709(8)
H16 H 0.3383 -0.3281 0.6794
H17 H 0.4130 -0.35540 0.7215
H18 H 0.4454 -0.3249 0.6768
C16 C 0.55273(14) -0.39685(9) 0.56451(7)
C17 C 0.46568(14) -0.38626(9) 0.58204(7)
C18 C 0.42782(14) -0.32990(9) 0.55890(7)
C19 C 0.62869(16) -0.44660(11) 0.57743(8)
H19 H 0.6092 -0.4817 0.5600
H20 H 0.6376 -0.4548 0.6105
H21 H 0.6850 -0.4332 0.5695
C20 C 0.33609(15) -0.29561(11) 0.56331(8)
H22 H 0.3467 -0.2710 0.5930
H23 H 0.2857 -0.3250 0.5647
H24 H 0.3178 -0.2691 0.5350
C21 C 0.65351(14) -0.25122(9) 0.44483(7)
C22 C 0.71493(13) -0.23128(9) 0.40691(7)
C23 C 0.68625(14) -0.18226(10) 0.37335(7)
C24 C 0.74288(14) -0.16669(10) 0.33741(7)
C25 C 0.71182(15) -0.11316(10) 0.30113(7)
C26 C 0.82785(15) -0.20024(11) 0.33548(7)
C27 C 0.85671(14) -0.24891(10) 0.36893(7)
C28 C 0.80009(14) -0.26475(10) 0.40479(7)
C29 C 0.44386(15) -0.12713(10) 0.52227(8)
C30 C 0.44099(14) -0.06118(9) 0.54153(7)
C31 C 0.50930(14) -0.04255(10) 0.58365(7)
C32 C 0.51509(14) 0.02009(9) 0.59880(7)
C33 C 0.59049(15) 0.04285(10) 0.64241(7)
C34 C 0.45173(14) 0.06370(9) 0.57159(7)
C35 C 0.38225(14) 0.04521(9) 0.53084(7)
C36 C 0.37690(14) -0.01751(10) 0.51530(7)
N1 N 0.38838(12) -0.26307(8) 0.41752(6)
N2 N 0.39323(14) -0.22943(9) 0.37501(7)
N3 N 0.25113(12) -0.45530(9) 0.26550(7)
N4 N 0.16535(16) -0.42771(12) 0.26926(11)
N5 N 0.34750(12) -0.46061(8) 0.67850(6)
N6 N 0.35062(13) -0.50792(9) 0.64470(6)
N7 N 0.48682(12) -0.30819(8) 0.52881(6)
N8 N 0.56183(12) -0.34978(8) 0.53271(6)
O1 O 0.59411(9) -0.21007(6) 0.45652(5)
O2 O 0.66335(13) -0.30511(7) 0.46224(7)
O3 O 0.76576(11) -0.10451(7) 0.26787(5)
O4 O 0.63967(13) -0.08185(10) 0.30473(7)
O5 O 0.93976(12) -0.28052(9) 0.36456(6)
H25 H 0.9582 -0.3012 0.3901
O6 O 0.50316(13) -0.16625(7) 0.54648(6)
O7 O 0.39336(12) -0.14369(8) 0.48157(6)
O8 O 0.63692(10) 0.00032(7) 0.67053(5)
O9 O 0.60580(13) 0.09966(8) 0.64966(6)
O10 O 0.31852(11) 0.08744(8) 0.50373(6)
Zn1 Zn 0.242370(16) -0.534620(10) 0.221980(8)
Zn2 Zn 0.474570(16) -0.232140(10) 0.483160(8)
H26 H 0.4067(19) -0.1909(14) 0.3749(10)
H27 H 0.113(2) -0.4462(17) 0.2598(13)
H28 H 0.3271(19) -0.5432(13) 0.6480(10)
H29 H 0.6059(17) -0.3446(11) 0.5169(9)
H30 H 0.332(2) 0.1238(14) 0.5152(10)
H31 H 0.6273 -0.1598 0.3733
H32 H 0.8647 -0.1887 0.3110
H33 H 0.8191 -0.2959 0.4250
H34 H 0.5518 -0.0718 0.6018
H35 H 0.4561 0.1067 0.5810
H36 H 0.3370 -0.0285 0.4876
N5E N 0.34750(12) -0.53939(8) 0.17850(6)
O3B O 0.26576(11) -0.60451(7) 0.26787(5)
O8G O 0.13692(10) -0.50032(7) 0.17053(5)
Zn1E Zn 0.242370(16) -0.465380(10) 0.721980(8)
Zn1B Zn 0.742370(16) -0.034620(10) 0.221980(8)
Zn1G Zn 0.742370(16) 0.034620(10) 0.721980(8)
O11 O 0.5000 -0.99393(13) 0.7500
H37 H 0.4548(19) -0.9688(13) 0.7282(10)
H37A H 0.5452(19) -0.9688(13) 0.7718(10)
O12 O 0.7695(11) -0.1211(4) 0.67052(19)
O13 O 0.651(2) -0.1292(10) 0.6926(9)
O14? O 0.8336(12) -0.1357(4) 0.6605(10)
loop_
_geom_bond_atom_site_label_1
_geom_bond_atom_site_label_2
_geom_bond_site_symmetry_1
_geom_bond_site_symmetry_2
C1 C2 1_555 1_555
C2 C3 1_555 1_555
C3 C5 1_555 1_555
C4 C1 1_555 1_555
H1 C4 1_555 1_555
H2 C4 1_555 1_555
H3 C4 1_555 1_555
C5 H4 1_555 1_555
H5 C5 1_555 1_555
H6 C5 1_555 1_555
C6 C7 1_555 1_555
C7 C2 1_555 1_555
C8 C7 1_555 1_555
C9 C6 1_555 1_555
H7 C9 1_555 1_555
H8 C9 1_555 1_555
H9 C9 1_555 1_555
C10 C8 1_555 1_555
H10 C10 1_555 1_555
H11 C10 1_555 1_555
H12 C10 1_555 1_555
C11 C12 1_555 1_555
C12 C13 1_555 1_555
C13 C15 1_555 1_555
C14 C11 1_555 1_555
H13 C14 1_555 1_555
H14 C14 1_555 1_555
H15 C14 1_555 1_555
C15 H16 1_555 1_555
H17 C15 1_555 1_555
H18 C15 1_555 1_555
C16 C17 1_555 1_555
C17 C12 1_555 1_555
C18 C17 1_555 1_555
C19 C16 1_555 1_555
H19 C19 1_555 1_555
H20 C19 1_555 1_555
H21 C19 1_555 1_555
C20 C18 1_555 1_555
H22 C20 1_555 1_555
H23 C20 1_555 1_555
H24 C20 1_555 1_555
C21 C22 1_555 1_555
C22 C23 1_555 1_555
C23 C24 1_555 1_555
C24 C25 1_555 1_555
C25 O3 1_555 1_555
C26 C24 1_555 1_555
C27 C26 1_555 1_555
C28 C22 1_555 1_555
C29 C30 1_555 1_555
C30 C31 1_555 1_555
C31 C32 1_555 1_555
C32 C33 1_555 1_555
C33 O8 1_555 1_555
C34 C32 1_555 1_555
C35 C34 1_555 1_555
C36 C30 1_555 1_555
N1 C3 1_555 1_555
N2 C1 1_555 1_555
N3 C8 1_555 1_555
N4 C6 1_555 1_555
N5 C13 1_555 1_555
N6 C11 1_555 1_555
N7 C18 1_555 1_555
N8 C16 1_555 1_555
O1 C21 1_555 1_555
O2 C21 1_555 1_555
O3 Zn1B 1_555 1_555
O4 C25 1_555 1_555
O5 C27 1_555 1_555
H25 O5 1_555 1_555
O6 C29 1_555 1_555
O7 C29 1_555 1_555
O8 Zn1G 1_555 1_555
O9 C33 1_555 1_555
O10 C35 1_555 1_555
Zn1 N3 1_555 1_555
Zn2 N1 1_555 1_555
H26 N2 1_555 1_555
H27 N4 1_555 1_555
H28 N6 1_555 1_555
H29 N8 1_555 1_555
H30 O10 1_555 1_555
H31 C23 1_555 1_555
H32 C26 1_555 1_555
H33 C28 1_555 1_555
H34 C31 1_555 1_555
H35 C34 1_555 1_555
H36 C36 1_555 1_555
O11 H37 1_555 1_555
N5E Zn1 1_555 1_555
O3B Zn1 1_555 1_555
O8G Zn1 1_555 1_555
Zn1E N5 1_555 1_555
H37A O11 1_555 1_555
C27 C28 1_555 1_555
C35 C36 1_555 1_555
N1 N2 1_555 1_555
N3 N4 1_555 1_555
N5 N6 1_555 1_555
N7 N8 1_555 1_555
N7 Zn2 1_555 1_555
O1 Zn2 1_555 1_555
O6 Zn2 1_555 1_555
O7 Zn2 1_555 1_555

#END
