
#######################################################################
#
#                 Cambridge Crystallographic Data Centre
#                                CCDC 
#
#######################################################################
#
# If this CIF has been generated from an entry in the Cambridge 
# Structural Database, then it will include bibliographic, chemical, 
# crystal, experimental, refinement or atomic coordinate data resulting 
# from the CCDC's data processing and validation procedures.
#
#######################################################################

data_QUFHEF
_symmetry_cell_setting           monoclinic
_symmetry_space_group_name_H-M   'P 21/c'
_symmetry_Int_Tables_number      14
_space_group_name_Hall           '-P 2ybc'
loop_
_symmetry_equiv_pos_site_id
_symmetry_equiv_pos_as_xyz
1 x,y,z
2 -x,1/2+y,1/2-z
3 -x,-y,-z
4 x,1/2-y,1/2+z
_cell_length_a                   9.0453(5)
_cell_length_b                   10.4272(7)
_cell_length_c                   13.8846(8)
_cell_angle_alpha                90
_cell_angle_beta                 94.522(2)
_cell_angle_gamma                90
_cell_volume                     1305.48
loop_
_atom_site_label
_atom_site_type_symbol
_atom_site_fract_x
_atom_site_fract_y
_atom_site_fract_z
Mn1 Mn 0.5000 1.0000 0.0000
N1 N 0.95513(16) 1.03022(15) 0.13729(10)
N2 N 0.74335(16) 1.02864(15) 0.05135(10)
N3 N 0.96573(17) 1.12598(17) 0.07223(11)
C1 C 1.0739(2) 1.00225(18) 0.21060(14)
H1 H 1.1687 1.0138 0.1835
H2 H 1.0670 0.9135 0.2306
C2 C 1.2573(2) 0.9587(2) 0.40185(14)
C3 C 1.1537(2) 1.05555(19) 0.39001(13)
C4 C 1.1271(2) 1.1261(2) 0.47198(14)
H3 H 1.0601 1.1939 0.4663
C5 C 0.8237(2) 0.97433(19) 0.12383(13)
H4 H 0.7922 0.9062 0.1604
C6 C 1.0665(2) 1.0890(2) 0.29810(13)
C7 C 1.2968(3) 0.9997(2) 0.56742(16)
C8 C 0.8357(2) 1.11972(19) 0.02260(13)
H5 H 0.8095 1.1745 -0.0288
C9 C 1.1971(2) 1.0985(2) 0.56095(14)
H6 H 1.1773 1.1458 0.6153
C10 C 1.3303(2) 0.9284(2) 0.48959(14)
H7 H 1.3994 0.8623 0.4956
F1 F 1.29246(13) 0.88909(12) 0.32486(8)
F2 F 1.36614(19) 0.97230(15) 0.65472(9)
N4 N 0.48411(19) 0.84290(18) 0.10741(11)
C11 C 0.5407(2) 0.78825(19) 0.17219(12)
N5 N 0.62383(18) 0.73029(18) 0.23875(12)
C12 C 0.57626(19) 0.68345(19) 0.31733(13)
O1 O 0.98660(18) 1.18258(16) 0.29347(11)
N6 N 0.55267(18) 0.63783(18) 0.38922(12)
Mn1A Mn 0.5000 0.5000 0.5000
Mn1A_2 Mn 0.5000 1.5000 0.5000
N1B N 0.04487(16) 0.96978(15) -0.13729(10)
N2B N 0.25665(16) 0.97136(15) -0.05135(10)
N3B N 0.03427(17) 0.87402(17) -0.07223(11)
C1B C -0.0739(2) 0.99775(18) -0.21060(14)
H1B H -0.1687 0.9862 -0.1835
H2B H -0.0670 1.0865 -0.2306
C2B C -0.2573(2) 1.0413(2) -0.40185(14)
C3B C -0.1537(2) 0.94445(19) -0.39001(13)
C4B C -0.1271(2) 0.8739(2) -0.47198(14)
H3B H -0.0601 0.8061 -0.4663
C5B C 0.1763(2) 1.02567(19) -0.12383(13)
H4B H 0.2078 1.0938 -0.1604
C6B C -0.0665(2) 0.9110(2) -0.29810(13)
C7B C -0.2968(3) 1.0003(2) -0.56742(16)
C8B C 0.1643(2) 0.88028(19) -0.02260(13)
H5B H 0.1905 0.8255 0.0288
C9B C -0.1971(2) 0.9015(2) -0.56095(14)
H6B H -0.1773 0.8542 -0.6153
C10B C -0.3303(2) 1.0716(2) -0.48959(14)
H7B H -0.3994 1.1377 -0.4956
F1B F -0.29246(13) 1.11091(12) -0.32486(8)
F2B F -0.36614(19) 1.02770(15) -0.65472(9)
N4A N 0.51589(19) 1.34290(18) 0.39259(11)
N4B N 0.51589(19) 1.15710(18) -0.10741(11)
C11A C 0.4593(2) 1.28825(19) 0.32781(12)
N5A N 0.37617(18) 1.23029(18) 0.26125(12)
C12A C 0.42374(19) 1.18345(19) 0.18267(13)
O1B O 0.01340(18) 0.81742(16) -0.29347(11)
N6A N 0.44733(18) 1.13783(18) 0.11078(12)
N6C N 0.55267(18) 0.86217(18) -0.11078(12)
loop_
_geom_bond_atom_site_label_1
_geom_bond_atom_site_label_2
_geom_bond_site_symmetry_1
_geom_bond_site_symmetry_2
Mn1 N2 1_555 1_555
N1 N3 1_555 1_555
N2 C5 1_555 1_555
N3 C8 1_555 1_555
C1 N1 1_555 1_555
H1 C1 1_555 1_555
H2 C1 1_555 1_555
C2 C3 1_555 1_555
C3 C4 1_555 1_555
C4 H3 1_555 1_555
C5 N1 1_555 1_555
H4 C5 1_555 1_555
C6 C1 1_555 1_555
C7 C9 1_555 1_555
C8 N2 1_555 1_555
H5 C8 1_555 1_555
C9 C4 1_555 1_555
H6 C9 1_555 1_555
C10 C2 1_555 1_555
H7 C10 1_555 1_555
F1 C2 1_555 1_555
F2 C7 1_555 1_555
N4 Mn1 1_555 1_555
C11 N4 1_555 1_555
N5 C11 1_555 1_555
C12 N5 1_555 1_555
O1 C6 1_555 1_555
N6 C12 1_555 1_555
Mn1A N6 1_555 1_555
Mn1A_2 N4A 1_555 1_555
N1B N3B 1_555 1_555
N2B Mn1 1_555 1_555
N3B C8B 1_555 1_555
C1B N1B 1_555 1_555
H1B C1B 1_555 1_555
H2B C1B 1_555 1_555
C2B C3B 1_555 1_555
C3B C4B 1_555 1_555
C4B H3B 1_555 1_555
C5B N1B 1_555 1_555
H4B C5B 1_555 1_555
C6B C1B 1_555 1_555
C7B C9B 1_555 1_555
C8B N2B 1_555 1_555
H5B C8B 1_555 1_555
C9B C4B 1_555 1_555
H6B C9B 1_555 1_555
C10B C2B 1_555 1_555
H7B C10B 1_555 1_555
F1B C2B 1_555 1_555
F2B C7B 1_555 1_555
N4A C11A 1_555 1_555
N4B Mn1 1_555 1_555
C11A N5A 1_555 1_555
N5A C12A 1_555 1_555
C12A N6A 1_555 1_555
O1B C6B 1_555 1_555
N6A Mn1 1_555 1_555
N6C Mn1 1_555 1_555
C3 C6 1_555 1_555
C7 C10 1_555 1_555
N2B C5B 1_555 1_555
C3B C6B 1_555 1_555
C7B C10B 1_555 1_555

#END
