
#######################################################################
#
#                 Cambridge Crystallographic Data Centre
#                                CCDC 
#
#######################################################################
#
# If this CIF has been generated from an entry in the Cambridge 
# Structural Database, then it will include bibliographic, chemical, 
# crystal, experimental, refinement or atomic coordinate data resulting 
# from the CCDC's data processing and validation procedures.
#
#######################################################################

data_QUFNIP
_symmetry_cell_setting           monoclinic
_symmetry_space_group_name_H-M   'C 2/c'
_symmetry_Int_Tables_number      15
_space_group_name_Hall           '-C 2yn'
loop_
_symmetry_equiv_pos_site_id
_symmetry_equiv_pos_as_xyz
1 x,y,z
2 -x,y,1/2-z
3 1/2+x,1/2+y,z
4 1/2-x,1/2+y,1/2-z
5 -x,-y,-z
6 x,-y,1/2+z
7 1/2-x,1/2-y,-z
8 1/2+x,1/2-y,1/2+z
_cell_length_a                   23.980(2)
_cell_length_b                   10.2349(6)
_cell_length_c                   8.2096(5)
_cell_angle_alpha                90
_cell_angle_beta                 96.054(6)
_cell_angle_gamma                90
_cell_volume                     2003.67
loop_
_atom_site_label
_atom_site_type_symbol
_atom_site_fract_x
_atom_site_fract_y
_atom_site_fract_z
C1 C 0.9263(2) 0.6499(6) 0.3336(6)
C2 C 0.8899(3) 0.7602(7) 0.3831(8)
C3 C 0.9148(7) 0.8629(9) 0.4754(13)
H1 H 0.9532 0.8643 0.5066
C4 C 0.8800(16) 0.9640(18) 0.519(3)
H2 H 0.8950 1.0364 0.5770
C5 C 0.8269(18) 0.954(2) 0.479(4)
H3 H 0.8052 1.0221 0.5137
C6 C 0.7998(7) 0.8636(19) 0.396(2)
H4 H 0.7610 0.8641 0.3727
C7 C 0.8342(4) 0.7625(12) 0.3417(13)
C8 C 0.8031(7) 0.672(2) 0.257(2)
H5 H 0.8087 0.5890 0.3099
H6 H 0.8140 0.6669 0.1478
H7 H 0.7642 0.6959 0.2518
C9 C 0.8597(4) 0.6935(10) 0.8212(11)
H8 H 0.8557 0.6417 0.7232
H9 H 0.8471 0.7809 0.7962
H10 H 0.8376 0.6560 0.9003
O1 O 0.96626(19) 0.6128(5) 0.4350(5)
O2 O 0.9171(2) 0.5985(6) 0.1961(5)
O3 O 0.9154(2) 0.6959(7) 0.8847(7)
H11 H 0.9188 0.6611 0.9752
Pb1 Pb 1.0000 0.56317(3) 0.7500
C1D C 1.0737(2) 0.3501(6) 0.6664(6)
C2D C 1.1101(3) 0.2398(7) 0.6169(8)
C3D C 1.0852(7) 0.1371(9) 0.5246(13)
H1D H 1.0468 0.1357 0.4934
C4D C 1.1200(16) 0.0360(18) 0.481(3)
H2D H 1.1050 -0.0364 0.4230
C5D C 1.1731(18) 0.046(2) 0.521(4)
H3D H 1.1948 -0.0221 0.4863
C6D C 1.2002(7) 0.1364(19) 0.604(2)
H4D H 1.2390 0.1359 0.6273
C7D C 1.1658(4) 0.2375(12) 0.6583(13)
C8D C 1.1969(7) 0.328(2) 0.743(2)
H5D H 1.1913 0.4110 0.6901
H6D H 1.1860 0.3331 0.8522
H7D H 1.2358 0.3041 0.7482
C9A C 1.1403(4) 0.6935(10) 0.6788(11)
H8A H 1.1443 0.6417 0.7768
H9A H 1.1529 0.7809 0.7038
H10A H 1.1624 0.6560 0.5997
O1D O 1.03374(19) 0.3872(5) 0.5650(5)
O1A O 1.03374(19) 0.6128(5) 1.0650(5)
O1E O 0.96626(19) 0.3872(5) 0.9350(5)
O2D O 1.0829(2) 0.4015(6) 0.8039(5)
O2E O 0.9171(2) 0.4015(6) 0.6961(5)
O3A O 1.0846(2) 0.6959(7) 0.6153(7)
H11A H 1.0812 0.6611 0.5248
Pb1D Pb 1.0000 0.43683(3) 0.2500
loop_
_geom_bond_atom_site_label_1
_geom_bond_atom_site_label_2
_geom_bond_site_symmetry_1
_geom_bond_site_symmetry_2
C1 C2 1_555 1_555
C2 C3 1_555 1_555
C3 H1 1_555 1_555
C4 C3 1_555 1_555
H2 C4 1_555 1_555
C5 C4 1_555 1_555
H3 C5 1_555 1_555
C6 C5 1_555 1_555
H4 C6 1_555 1_555
C7 C2 1_555 1_555
C8 C7 1_555 1_555
H5 C8 1_555 1_555
H6 C8 1_555 1_555
H7 C8 1_555 1_555
C9 H8 1_555 1_555
H9 C9 1_555 1_555
H10 C9 1_555 1_555
O1 C1 1_555 1_555
O2 C1 1_555 1_555
O3 C9 1_555 1_555
H11 O3 1_555 1_555
Pb1 O1 1_555 1_555
C1D C2D 1_555 1_555
C2D C3D 1_555 1_555
C3D H1D 1_555 1_555
C4D C3D 1_555 1_555
H2D C4D 1_555 1_555
C5D C4D 1_555 1_555
H3D C5D 1_555 1_555
C6D C5D 1_555 1_555
H4D C6D 1_555 1_555
C7D C2D 1_555 1_555
C8D C7D 1_555 1_555
H5D C8D 1_555 1_555
H6D C8D 1_555 1_555
H7D C8D 1_555 1_555
C9A H8A 1_555 1_555
H9A C9A 1_555 1_555
H10A C9A 1_555 1_555
O1D Pb1 1_555 1_555
O1A Pb1 1_555 1_555
O1E Pb1 1_555 1_555
O2D Pb1 1_555 1_555
O2E Pb1 1_555 1_555
O3A Pb1 1_555 1_555
H11A O3A 1_555 1_555
Pb1D O1 1_555 1_555
C6 C7 1_555 1_555
O2 Pb1D 1_555 1_555
O3 Pb1 1_555 1_555
C1D O1D 1_555 1_555
C1D O2D 1_555 1_555
C6D C7D 1_555 1_555
C9A O3A 1_555 1_555
O1D Pb1D 1_555 1_555

#END
