
#######################################################################
#
#                 Cambridge Crystallographic Data Centre
#                                CCDC 
#
#######################################################################
#
# If this CIF has been generated from an entry in the Cambridge 
# Structural Database, then it will include bibliographic, chemical, 
# crystal, experimental, refinement or atomic coordinate data resulting 
# from the CCDC's data processing and validation procedures.
#
#######################################################################

data_QUFSUF
_symmetry_cell_setting           triclinic
_symmetry_space_group_name_H-M   'P -1'
_symmetry_Int_Tables_number      2
_space_group_name_Hall           '-P 1'
loop_
_symmetry_equiv_pos_site_id
_symmetry_equiv_pos_as_xyz
1 x,y,z
2 -x,-y,-z
_cell_length_a                   6.698(2)
_cell_length_b                   7.065(2)
_cell_length_c                   11.646(2)
_cell_angle_alpha                77.80(3)
_cell_angle_beta                 83.20(3)
_cell_angle_gamma                77.90(3)
_cell_volume                     525.105
loop_
_atom_site_label
_atom_site_type_symbol
_atom_site_fract_x
_atom_site_fract_y
_atom_site_fract_z
S1 S -0.2260(1) 0.2641(1) -0.3342(1)
Na1 Na 0.2360(2) -0.0598(2) -0.4238(1)
O1 O -0.1006(4) 0.1415(4) -0.4117(2)
O2 O -0.1422(5) 0.4319(4) -0.3225(2)
O3 O -0.4355(4) 0.3246(4) -0.3683(2)
O4 O -0.2806(5) 0.3331(4) 0.1104(2)
O5 O -0.2719(4) 0.0362(4) 0.2256(2)
O6 O -0.2403(5) -0.2682(4) 0.1291(2)
C1 C -0.2346(5) 0.1087(5) -0.1937(3)
C2 C -0.2530(5) 0.1862(5) -0.0928(3)
C3 C -0.2572(5) 0.0636(5) 0.0183(3)
C4 C -0.2427(5) -0.1397(6) 0.0255(3)
C5 C -0.2263(6) -0.2150(6) -0.0770(4)
C6 C -0.2228(6) -0.0915(6) -0.1853(3)
C7 C -0.2705(5) 0.1406(6) 0.1274(3)
O7 O 0.2178(4) -0.3952(4) -0.3242(2)
O8 O 0.3836(4) 0.2091(4) -0.5362(3)
H1 H -0.2684 0.3642 0.1728
H2 H -0.2532 -0.2080 0.1833
H3 H -0.2626 0.3211 -0.0988
H4 H -0.2176 -0.3496 -0.0723
H5 H -0.2126 -0.1430 -0.2534
H6 H 0.1083 -0.4209 -0.3347
H7 H 0.3052 -0.4860 -0.3247
H8 H 0.3686 0.3138 -0.4920
H9 H 0.3189 0.2619 -0.6095
O1A O 0.1006(4) -0.1415(4) -0.5883(2)
O5A O 0.2719(4) -0.0362(4) -0.2256(2)
Na1A Na -0.2360(2) 0.0598(2) 0.4238(1)
Na1A_2 Na -0.2360(2) 0.0598(2) -0.5762(1)
O8A O 0.6164(4) -0.2091(4) -0.4638(3)
Na1A_3 Na 0.7640(2) 0.0598(2) -0.5762(1)
H8A H 0.6314 -0.3138 -0.5080
H9A H 0.6811 -0.2619 -0.3905
loop_
_geom_bond_atom_site_label_1
_geom_bond_atom_site_label_2
_geom_bond_site_symmetry_1
_geom_bond_site_symmetry_2
S1 O1 1_555 1_555
Na1 O1 1_555 1_555
O1 Na1A_2 1_555 1_555
O2 S1 1_555 1_555
O3 S1 1_555 1_555
O4 C7 1_555 1_555
O5 C7 1_555 1_555
O6 C4 1_555 1_555
C1 S1 1_555 1_555
C2 C1 1_555 1_555
C3 C2 1_555 1_555
C4 C3 1_555 1_555
C5 C4 1_555 1_555
C6 C1 1_555 1_555
C7 C3 1_555 1_555
O7 Na1 1_555 1_555
O8 Na1 1_555 1_555
H1 O4 1_555 1_555
H2 O6 1_555 1_555
H3 C2 1_555 1_555
H4 C5 1_555 1_555
H5 C6 1_555 1_555
H6 O7 1_555 1_555
H7 O7 1_555 1_555
H8 O8 1_555 1_555
H9 O8 1_555 1_555
O1A Na1 1_555 1_555
O5A Na1 1_555 1_555
Na1A O5 1_555 1_555
Na1A_2 O1A 1_555 1_555
O8A Na1 1_555 1_555
Na1A_3 O8 1_555 1_555
H8A O8A 1_555 1_555
H9A O8A 1_555 1_555
C5 C6 1_555 1_555
O8A Na1A_3 1_555 1_555

#END
