
#######################################################################
#
#                 Cambridge Crystallographic Data Centre
#                                CCDC 
#
#######################################################################
#
# If this CIF has been generated from an entry in the Cambridge 
# Structural Database, then it will include bibliographic, chemical, 
# crystal, experimental, refinement or atomic coordinate data resulting 
# from the CCDC's data processing and validation procedures.
#
#######################################################################

data_QUFXEV
_symmetry_cell_setting           monoclinic
_symmetry_space_group_name_H-M   'C 2/c'
_symmetry_Int_Tables_number      15
_space_group_name_Hall           '-C 2yn'
loop_
_symmetry_equiv_pos_site_id
_symmetry_equiv_pos_as_xyz
1 x,y,z
2 -x,y,1/2-z
3 1/2+x,1/2+y,z
4 1/2-x,1/2+y,1/2-z
5 -x,-y,-z
6 x,-y,1/2+z
7 1/2-x,1/2-y,-z
8 1/2+x,1/2-y,1/2+z
_cell_length_a                   27.635(10)
_cell_length_b                   8.673(2)
_cell_length_c                   21.536(8)
_cell_angle_alpha                90
_cell_angle_beta                 125.347(13)
_cell_angle_gamma                90
_cell_volume                     4210.22
loop_
_atom_site_label
_atom_site_type_symbol
_atom_site_fract_x
_atom_site_fract_y
_atom_site_fract_z
Cd1 Cd 0.703119(7) 0.03425(2) 0.631343(10)
C1 C 0.56140(12) -0.9087(4) 0.49695(17)
H1 H 0.5528 -1.0125 0.4965
C2 C 0.52116(13) -0.7984(4) 0.45622(17)
H2 H 0.4803 -0.8112 0.4225
C3 C 0.60940(12) -0.6979(3) 0.52403(16)
H3 H 0.6400 -0.6259 0.5452
C4 C 0.52731(15) -0.5111(4) 0.4421(2)
H4 H 0.5525 -0.4329 0.4793
H5 H 0.4884 -0.5029 0.4320
C5 C 0.52208(13) -0.4805(4) 0.37037(18)
H6 H 0.4984 -0.5604 0.3333
H7 H 0.5026 -0.3822 0.3491
C6 C 0.58735(14) -0.3740(4) 0.34300(17)
H8 H 0.5667 -0.2783 0.3364
H9 H 0.5712 -0.4172 0.2931
C7 C 0.65233(14) -0.3434(4) 0.38331(16)
H10 H 0.6716 -0.4349 0.3813
H11 H 0.6579 -0.2605 0.3578
C8 C 0.67454(12) -0.1656(3) 0.48783(16)
H12 H 0.6578 -0.0778 0.4579
C9 C 0.70629(12) -0.4009(3) 0.52262(16)
H13 H 0.7156 -0.5038 0.5222
C10 C 0.71670(13) -0.3214(3) 0.58239(16)
H14 H 0.7348 -0.3608 0.6312
C11 C 0.65515(10) -0.0247(3) 0.71319(14)
C12 C 0.63031(10) -0.0608(2) 0.75830(13)
C13 C 0.65594(10) -0.1670(3) 0.81807(14)
C14 C 0.62742(12) -0.1991(3) 0.85278(17)
H15 H 0.6443 -0.2695 0.8927
C15 C 0.57469(12) -0.1287(3) 0.82931(17)
H16 H 0.5557 -0.1527 0.8523
C16 C 0.55069(10) -0.0231(3) 0.77154(16)
C17 C 0.57758(10) 0.0122(3) 0.73574(15)
H17 H 0.5606 0.0845 0.6966
C18 C 0.71243(11) -0.2525(3) 0.84484(15)
N1 N 0.61730(9) -0.8455(3) 0.53947(13)
N2 N 0.55193(10) -0.6631(3) 0.47395(13)
N3 N 0.67928(10) -0.3014(2) 0.46206(13)
N4 N 0.69657(10) -0.1719(3) 0.56070(13)
O1 O 0.57937(9) -0.4781(2) 0.38646(13)
O2 O 0.68589(8) 0.0929(2) 0.72880(11)
O3 O 0.64139(8) -0.1113(2) 0.65900(11)
O4 O 0.74152(9) -0.2172(3) 0.82033(13)
O5 O 0.72735(10) -0.3615(3) 0.88922(16)
O6 O 0.5000 0.0607(3) 0.7500
O7 O 0.78337(8) -0.0966(2) 0.74351(11)
H18 H 0.7973(14) -0.183(3) 0.7411(18)
H19 H 0.7694(14) -0.107(3) 0.7708(17)
Cd1A Cd 0.296881(7) 0.03425(2) 0.868657(10)
Cd1_2 Cd 0.703119(7) -0.96575(2) 0.631343(10)
Cd1A_2 Cd 0.296881(7) -0.96575(2) 0.868657(10)
Cd1B Cd 0.203119(7) -0.46575(2) 0.631343(10)
Cd1C Cd 0.796881(7) -0.46575(2) 0.868657(10)
C1A C 0.43860(12) -0.9087(4) 1.00305(17)
H1A H 0.4472 -1.0125 1.0035
C2A C 0.47884(13) -0.7984(4) 1.04378(17)
H2A H 0.5197 -0.8112 1.0775
C3A C 0.39060(12) -0.6979(3) 0.97597(16)
H3A H 0.3600 -0.6259 0.9548
C4A C 0.47269(15) -0.5111(4) 1.0579(2)
H4A H 0.4475 -0.4329 1.0207
H5A H 0.5116 -0.5029 1.0680
C5A C 0.47792(13) -0.4805(4) 1.12963(18)
H6A H 0.5016 -0.5604 1.1667
H7A H 0.4974 -0.3822 1.1509
C6A C 0.41265(14) -0.3740(4) 1.15700(17)
H8A H 0.4333 -0.2783 1.1636
H9A H 0.4288 -0.4172 1.2069
C7A C 0.34767(14) -0.3434(4) 1.11669(16)
H10A H 0.3284 -0.4349 1.1187
H11A H 0.3421 -0.2605 1.1422
C8A C 0.32546(12) -0.1656(3) 1.01217(16)
H12A H 0.3422 -0.0778 1.0421
C9A C 0.29371(12) -0.4009(3) 0.97738(16)
H13A H 0.2844 -0.5038 0.9778
C10A C 0.28330(13) -0.3214(3) 0.91761(16)
H14A H 0.2652 -0.3608 0.8688
C11A C 0.34485(10) -0.0247(3) 0.78681(14)
C12A C 0.36969(10) -0.0608(2) 0.74170(13)
C13A C 0.34406(10) -0.1670(3) 0.68193(14)
C14A C 0.37258(12) -0.1991(3) 0.64722(17)
H15A H 0.3557 -0.2695 0.6073
C15A C 0.42531(12) -0.1287(3) 0.67069(17)
H16A H 0.4443 -0.1527 0.6477
C16A C 0.44931(10) -0.0231(3) 0.72846(16)
C17A C 0.42242(10) 0.0122(3) 0.76426(15)
H17A H 0.4394 0.0845 0.8034
C18A C 0.28757(11) -0.2525(3) 0.65516(15)
C18B C 0.21243(11) 0.2475(3) 0.84484(15)
C18C C 0.78757(11) 0.2475(3) 0.65516(15)
N1A N 0.38270(9) -0.8455(3) 0.96053(13)
N1_2 N 0.61730(9) 0.1545(3) 0.53947(13)
N1A_2 N 0.38270(9) 0.1545(3) 0.96053(13)
N2A N 0.44807(10) -0.6631(3) 1.02605(13)
N3A N 0.32072(10) -0.3014(2) 1.03794(13)
N4A N 0.30343(10) -0.1719(3) 0.93930(13)
O1A O 0.42063(9) -0.4781(2) 1.11354(13)
O2A O 0.31411(8) 0.0929(2) 0.77120(11)
O3A O 0.35861(8) -0.1113(2) 0.84100(11)
O4A O 0.25848(9) -0.2172(3) 0.67967(13)
O4B O 0.24152(9) 0.2828(3) 0.82033(13)
O4C O 0.75848(9) 0.2828(3) 0.67967(13)
O5A O 0.27265(10) -0.3615(3) 0.61078(16)
O5B O 0.22735(10) 0.1385(3) 0.88922(16)
O5C O 0.77265(10) 0.1385(3) 0.61078(16)
O7A O 0.21663(8) -0.0966(2) 0.75649(11)
H18A H 0.2027(14) -0.183(3) 0.7589(18)
H19A H 0.2306(14) -0.107(3) 0.7292(17)
O8 O 0.38745(12) -0.5778(3) 0.3558(2)
H20 H 0.379(2) -0.676(2) 0.353(3)
H21 H 0.3551(16) -0.523(5) 0.332(3)
loop_
_geom_bond_atom_site_label_1
_geom_bond_atom_site_label_2
_geom_bond_site_symmetry_1
_geom_bond_site_symmetry_2
Cd1 N4 1_555 1_555
C1 H1 1_555 1_555
C2 C1 1_555 1_555
H2 C2 1_555 1_555
C3 H3 1_555 1_555
C4 H4 1_555 1_555
H5 C4 1_555 1_555
C5 C4 1_555 1_555
H6 C5 1_555 1_555
H7 C5 1_555 1_555
C6 H8 1_555 1_555
H9 C6 1_555 1_555
C7 C6 1_555 1_555
H10 C7 1_555 1_555
H11 C7 1_555 1_555
C8 H12 1_555 1_555
C9 H13 1_555 1_555
C10 C9 1_555 1_555
H14 C10 1_555 1_555
C11 C12 1_555 1_555
C12 C13 1_555 1_555
C13 C14 1_555 1_555
C14 H15 1_555 1_555
C15 C14 1_555 1_555
H16 C15 1_555 1_555
C16 C15 1_555 1_555
C17 C12 1_555 1_555
H17 C17 1_555 1_555
C18 C13 1_555 1_555
N1 C1 1_555 1_555
N2 C2 1_555 1_555
N3 C7 1_555 1_555
N4 C8 1_555 1_555
O1 C5 1_555 1_555
O2 Cd1 1_555 1_555
O3 Cd1 1_555 1_555
O4 C18 1_555 1_555
O5 C18 1_555 1_555
O6 C16 1_555 1_555
O7 Cd1 1_555 1_555
H18 O7 1_555 1_555
H19 O7 1_555 1_555
O8 H20 1_555 1_555
H21 O8 1_555 1_555
Cd1A N1A_2 1_555 1_555
Cd1_2 N1 1_555 1_555
Cd1A_2 N1A 1_555 1_555
Cd1B O4A 1_555 1_555
Cd1C O4 1_555 1_555
C1A H1A 1_555 1_555
C2A C1A 1_555 1_555
H2A C2A 1_555 1_555
C3A H3A 1_555 1_555
C4A H4A 1_555 1_555
H5A C4A 1_555 1_555
C5A C4A 1_555 1_555
H6A C5A 1_555 1_555
H7A C5A 1_555 1_555
C6A H8A 1_555 1_555
H9A C6A 1_555 1_555
C7A C6A 1_555 1_555
H10A C7A 1_555 1_555
H11A C7A 1_555 1_555
C8A H12A 1_555 1_555
C9A H13A 1_555 1_555
C10A C9A 1_555 1_555
H14A C10A 1_555 1_555
C11A C12A 1_555 1_555
C12A C13A 1_555 1_555
C13A C14A 1_555 1_555
C14A H15A 1_555 1_555
C15A C14A 1_555 1_555
H16A C15A 1_555 1_555
C16A O6 1_555 1_555
C17A C12A 1_555 1_555
H17A C17A 1_555 1_555
C18A C13A 1_555 1_555
C18B O4B 1_555 1_555
C18C O4C 1_555 1_555
N1A C1A 1_555 1_555
N1_2 Cd1 1_555 1_555
N2A C2A 1_555 1_555
N3A C7A 1_555 1_555
N4A Cd1A 1_555 1_555
O1A C5A 1_555 1_555
O2A Cd1A 1_555 1_555
O3A Cd1A 1_555 1_555
O4A C18A 1_555 1_555
O4B Cd1A 1_555 1_555
O4C Cd1 1_555 1_555
O5A Cd1B 1_555 1_555
O5B Cd1A 1_555 1_555
O5C Cd1 1_555 1_555
O7A Cd1A 1_555 1_555
H18A O7A 1_555 1_555
H19A O7A 1_555 1_555
C3 N1 1_555 1_555
C3 N2 1_555 1_555
C4 N2 1_555 1_555
C6 O1 1_555 1_555
C8 N3 1_555 1_555
C9 N3 1_555 1_555
C10 N4 1_555 1_555
C11 O2 1_555 1_555
C11 O3 1_555 1_555
C16 C17 1_555 1_555
O5 Cd1C 1_555 1_555
C3A N1A 1_555 1_555
C3A N2A 1_555 1_555
C4A N2A 1_555 1_555
C6A O1A 1_555 1_555
C8A N3A 1_555 1_555
C8A N4A 1_555 1_555
C9A N3A 1_555 1_555
C10A N4A 1_555 1_555
C11A O2A 1_555 1_555
C11A O3A 1_555 1_555
C15A C16A 1_555 1_555
C16A C17A 1_555 1_555
C18A O5A 1_555 1_555
C18B O5B 1_555 1_555
C18C O5C 1_555 1_555

#END
