
#######################################################################
#
#                 Cambridge Crystallographic Data Centre
#                                CCDC 
#
#######################################################################
#
# If this CIF has been generated from an entry in the Cambridge 
# Structural Database, then it will include bibliographic, chemical, 
# crystal, experimental, refinement or atomic coordinate data resulting 
# from the CCDC's data processing and validation procedures.
#
#######################################################################

data_QUFYEX
_symmetry_cell_setting           triclinic
_symmetry_space_group_name_H-M   'P -1'
_symmetry_Int_Tables_number      2
_space_group_name_Hall           '-P 1'
loop_
_symmetry_equiv_pos_site_id
_symmetry_equiv_pos_as_xyz
1 x,y,z
2 -x,-y,-z
_cell_length_a                   6.327(5)
_cell_length_b                   6.967(5)
_cell_length_c                   11.805(5)
_cell_angle_alpha                93.067(5)
_cell_angle_beta                 96.222(5)
_cell_angle_gamma                113.594(5)
_cell_volume                     471.369
loop_
_atom_site_label
_atom_site_type_symbol
_atom_site_fract_x
_atom_site_fract_y
_atom_site_fract_z
P1 P 0.8190(3) 0.4182(3) 0.6668(2)
P2 P 0.3645(3) 0.0260(3) 0.6738(2)
Na1 Na 0.3110(6) 0.4800(5) 0.6111(4)
O1 O 0.4298(9) -0.1345(8) 0.6139(5)
O2 O 0.2108(10) -0.0746(9) 0.7683(6)
O3 O 0.8571(10) 0.2770(9) 0.5697(6)
C1 C 0.6291(14) 0.2323(13) 0.7547(8)
Na2 Na -0.1706(5) -0.0792(5) 0.6105(4)
O4 O 0.7635(14) 0.1190(14) 0.8070(10)
C2 C 0.569(3) 0.3567(18) 0.8433(16)
H1 H 0.4043 0.3271 0.8321
H2 H 0.6598 0.5069 0.8445
C3 C 0.641(5) 0.268(4) 0.9558(19)
H3 H 0.6992 0.3753 1.0206
H4 H 0.5093 0.1476 0.9745
C4 C 0.829(3) 0.204(4) 0.9238(17)
H5 H 0.9776 0.3246 0.9341
H6 H 0.8423 0.0987 0.9714
O5 O 0.7058(9) 0.5526(8) 0.6165(6)
O6 O 1.0528(9) 0.5321(8) 0.7382(5)
O7 O 0.2433(9) 0.1252(9) 0.5970(6)
H7 H 0.738(19) 0.215(17) 0.512(9)
H8 H 0.17(3) -0.27(3) 0.759(16)
Na1_2 Na 0.3110(6) -0.5200(5) 0.6111(4)
Na1_3 Na 1.3110(6) 0.4800(5) 0.6111(4)
Na1A Na 0.6890(6) 0.5200(5) 0.3889(4)
O1_2 O -0.5702(9) -0.1345(8) 0.6139(5)
O1_3 O 0.4298(9) 0.8655(8) 0.6139(5)
O3_2 O -0.1429(10) 0.2770(9) 0.5697(6)
Na2_2 Na 0.8294(5) -0.0792(5) 0.6105(4)
Na2_3 Na 0.8294(5) 0.9208(5) 0.6105(4)
Na2A Na 0.1706(5) 0.0792(5) 0.3895(4)
O4_2 O -0.2365(14) 0.1190(14) 0.8070(10)
O5_2 O -0.2942(9) -0.4474(8) 0.6165(6)
O5A O 0.2942(9) 0.4474(8) 0.3835(6)
O6_2 O 0.0528(9) -0.4679(8) 0.7382(5)
O6_3 O 0.0528(9) 0.5321(8) 0.7382(5)
O7A O -0.2433(9) -0.1252(9) 0.4030(6)
H8_2 H 1.17(3) 0.73(3) 0.759(16)
loop_
_geom_bond_atom_site_label_1
_geom_bond_atom_site_label_2
_geom_bond_site_symmetry_1
_geom_bond_site_symmetry_2
P1 O3 1_555 1_555
P2 O1 1_555 1_555
Na1 O5 1_555 1_555
O1 Na1_2 1_555 1_555
O2 P2 1_555 1_555
O3 H7 1_555 1_555
C1 P1 1_555 1_555
Na2 O2 1_555 1_555
O4 C1 1_555 1_555
C2 C1 1_555 1_555
H1 C2 1_555 1_555
H2 C2 1_555 1_555
C3 C2 1_555 1_555
H3 C3 1_555 1_555
H4 C3 1_555 1_555
C4 O4 1_555 1_555
H5 C4 1_555 1_555
H6 C4 1_555 1_555
O5 P1 1_555 1_555
O6 P1 1_555 1_555
O7 P2 1_555 1_555
H8 O2 1_555 1_555
Na1_2 O6_2 1_555 1_555
Na1_3 O3 1_555 1_555
Na1A O5 1_555 1_555
O1_2 Na2 1_555 1_555
O1_3 Na1 1_555 1_555
O3_2 Na1 1_555 1_555
Na2_2 O1 1_555 1_555
Na2_3 O5 1_555 1_555
Na2A O7 1_555 1_555
O4_2 Na2 1_555 1_555
O5_2 Na2 1_555 1_555
O5A Na1 1_555 1_555
O6_2 H8 1_555 1_555
O6_3 Na1 1_555 1_555
O7A Na2 1_555 1_555
H8_2 O6 1_555 1_555
P2 C1 1_555 1_555
Na1 O7 1_555 1_555
O3 Na2_2 1_555 1_555
Na2 O7 1_555 1_555
Na2 O3_2 1_555 1_555
O4 Na2_2 1_555 1_555
C3 C4 1_555 1_555
O6 Na1_3 1_555 1_555
Na1A O5A 1_555 1_555
O1_3 Na2_3 1_555 1_555
Na2A O5A 1_555 1_555
Na2A O7A 1_555 1_555

#END
