
#######################################################################
#
#                 Cambridge Crystallographic Data Centre
#                                CCDC 
#
#######################################################################
#
# If this CIF has been generated from an entry in the Cambridge 
# Structural Database, then it will include bibliographic, chemical, 
# crystal, experimental, refinement or atomic coordinate data resulting 
# from the CCDC's data processing and validation procedures.
#
#######################################################################

data_QUGFOO
_symmetry_cell_setting           monoclinic
_symmetry_space_group_name_H-M   'P 21/c'
_symmetry_Int_Tables_number      14
_space_group_name_Hall           '-P 2ybc'
loop_
_symmetry_equiv_pos_site_id
_symmetry_equiv_pos_as_xyz
1 x,y,z
2 -x,1/2+y,1/2-z
3 -x,-y,-z
4 x,1/2-y,1/2+z
_cell_length_a                   10.165(2)
_cell_length_b                   14.368(3)
_cell_length_c                   14.752(3)
_cell_angle_alpha                90
_cell_angle_beta                 105.276(3)
_cell_angle_gamma                90
_cell_volume                     2078.42
loop_
_atom_site_label
_atom_site_type_symbol
_atom_site_fract_x
_atom_site_fract_y
_atom_site_fract_z
Zn1 Zn 0.75434(6) -0.17199(4) 0.53398(5)
N1 N 0.6935(4) -0.1235(3) 0.4012(3)
N2 N 0.6123(5) -0.0354(3) 0.2781(4)
N3 N 0.8050(4) 0.5730(3) 0.1347(3)
N4 N 0.8762(5) 0.4430(3) 0.2075(3)
O1 O 0.9062(3) -0.2604(2) 0.5389(3)
O2 O 1.0001(4) -0.1280(2) 0.5113(3)
O3 O 1.5020(4) -0.1269(3) 0.5437(3)
O4 O 1.6128(3) -0.2593(2) 0.5533(3)
Br1 Br 1.24238(6) -0.53799(4) 0.48904(5)
C1 C 1.0041(5) -0.2125(4) 0.5239(4)
C2 C 1.1326(5) -0.2657(3) 0.5245(4)
C3 C 1.1288(5) -0.3609(4) 0.5111(4)
H1 H 1.0472 -0.3932 0.5020
C4 C 1.2486(5) -0.4079(4) 0.5112(4)
C5 C 1.3714(5) -0.3611(3) 0.5235(4)
H2 H 1.4506 -0.3934 0.5231
C6 C 1.3743(5) -0.2650(3) 0.5365(4)
C7 C 1.2551(5) -0.2182(4) 0.5368(4)
H3 H 1.2572 -0.1540 0.5453
C8 C 1.5056(5) -0.2114(4) 0.5468(4)
C9 C 0.6263(5) -0.0465(4) 0.3703(4)
H4 H 0.5930 -0.0053 0.4076
C10 C 0.7228(6) -0.1632(4) 0.3253(4)
H5 H 0.7698 -0.2189 0.3263
C11 C 0.6742(6) -0.1105(4) 0.2483(4)
H6 H 0.6809 -0.1223 0.1877
C12 C 0.5552(6) 0.0458(4) 0.2216(5)
H7 H 0.4788 0.0689 0.2429
H8 H 0.5203 0.0263 0.1567
C13 C 0.6543(6) 0.1242(4) 0.2252(4)
C14 C 0.7932(6) 0.1114(4) 0.2468(4)
H9 H 0.8291 0.0521 0.2614
C15 C 0.8786(6) 0.1841(4) 0.2471(5)
H10 H 0.9722 0.1736 0.2632
C16 C 0.8301(5) 0.2737(4) 0.2239(4)
C17 C 0.6918(6) 0.2870(4) 0.2016(5)
H11 H 0.6559 0.3462 0.1861
C18 C 0.6048(6) 0.2119(5) 0.2020(5)
H12 H 0.5110 0.2218 0.1861
C19 C 0.9335(6) 0.3494(4) 0.2255(5)
H13 H 0.9995 0.3490 0.2865
H14 H 0.9820 0.3351 0.1788
C20 C 0.8648(5) 0.4927(4) 0.1293(4)
H15 H 0.8949 0.4733 0.0781
C21 C 0.7780(6) 0.5742(4) 0.2200(4)
H16 H 0.7352 0.6226 0.2430
C22 C 0.8222(7) 0.4953(5) 0.2662(5)
H17 H 0.8172 0.4792 0.3263
Zn1_2 Zn 1.75434(6) -0.17199(4) 0.53398(5)
Zn1C Zn 0.75434(6) 0.67199(4) 0.03398(5)
N3C N 0.8050(4) -0.0730(3) 0.6347(3)
O4_2 O 0.6128(3) -0.2593(2) 0.5533(3)
loop_
_geom_bond_atom_site_label_1
_geom_bond_atom_site_label_2
_geom_bond_site_symmetry_1
_geom_bond_site_symmetry_2
Zn1 N1 1_555 1_555
N1 C9 1_555 1_555
N2 C9 1_555 1_555
N3 C20 1_555 1_555
N4 C19 1_555 1_555
O1 Zn1 1_555 1_555
O2 C1 1_555 1_555
O3 C8 1_555 1_555
O4 C8 1_555 1_555
Br1 C4 1_555 1_555
C1 O1 1_555 1_555
C2 C1 1_555 1_555
C3 C2 1_555 1_555
H1 C3 1_555 1_555
C4 C3 1_555 1_555
C5 C4 1_555 1_555
H2 C5 1_555 1_555
C6 C5 1_555 1_555
C7 C2 1_555 1_555
H3 C7 1_555 1_555
C8 C6 1_555 1_555
C9 H4 1_555 1_555
C10 N1 1_555 1_555
H5 C10 1_555 1_555
C11 N2 1_555 1_555
H6 C11 1_555 1_555
C12 N2 1_555 1_555
H7 C12 1_555 1_555
H8 C12 1_555 1_555
C13 C12 1_555 1_555
C14 C13 1_555 1_555
H9 C14 1_555 1_555
C15 C14 1_555 1_555
H10 C15 1_555 1_555
C16 C15 1_555 1_555
C17 C16 1_555 1_555
H11 C17 1_555 1_555
C18 C13 1_555 1_555
H12 C18 1_555 1_555
C19 C16 1_555 1_555
H13 C19 1_555 1_555
H14 C19 1_555 1_555
C20 N4 1_555 1_555
H15 C20 1_555 1_555
C21 N3 1_555 1_555
H16 C21 1_555 1_555
C22 N4 1_555 1_555
H17 C22 1_555 1_555
Zn1_2 O4 1_555 1_555
Zn1C N3 1_555 1_555
N3C Zn1 1_555 1_555
O4_2 Zn1 1_555 1_555
C6 C7 1_555 1_555
C10 C11 1_555 1_555
C17 C18 1_555 1_555
C21 C22 1_555 1_555

#END
