
#######################################################################
#
#                 Cambridge Crystallographic Data Centre
#                                CCDC 
#
#######################################################################
#
# If this CIF has been generated from an entry in the Cambridge 
# Structural Database, then it will include bibliographic, chemical, 
# crystal, experimental, refinement or atomic coordinate data resulting 
# from the CCDC's data processing and validation procedures.
#
#######################################################################

data_QUGFII
_symmetry_cell_setting           triclinic
_symmetry_space_group_name_H-M   'P -1'
_symmetry_Int_Tables_number      2
_space_group_name_Hall           '-P 1'
loop_
_symmetry_equiv_pos_site_id
_symmetry_equiv_pos_as_xyz
1 x,y,z
2 -x,-y,-z
_cell_length_a                   9.324(6)
_cell_length_b                   10.059(7)
_cell_length_c                   13.414(9)
_cell_angle_alpha                83.379(11)
_cell_angle_beta                 72.617(11)
_cell_angle_gamma                75.142(12)
_cell_volume                     1159.48
loop_
_atom_site_label
_atom_site_type_symbol
_atom_site_fract_x
_atom_site_fract_y
_atom_site_fract_z
Zn1 Zn 0.37130(6) 0.68677(6) 0.27827(5)
Zn2 Zn 0.47112(6) 0.25063(6) -0.44938(4)
N1 N 0.2792(5) 0.3996(5) -0.4065(4)
N2 N 0.1172(5) 0.5957(5) -0.3622(3)
N3 N 0.1787(5) 0.7518(5) 0.2311(3)
N4 N -0.0139(5) 0.7399(5) 0.1737(4)
O1 O 0.4887(5) 0.8344(4) 0.2214(3)
O2 O 0.5486(4) 0.9089(4) 0.3495(3)
O3 O 0.3180(4) 1.1689(4) 0.4194(3)
O4 O 0.5418(4) 1.2203(4) 0.4017(3)
O5 O 0.3386(5) 1.4594(4) 0.3113(3)
O6 O 0.5091(5) 1.5340(4) 0.1834(3)
O7 O 0.3554(4) 0.7005(4) 0.4229(3)
C1 C 0.5197(5) 0.9229(5) 0.2636(4)
C2 C 0.5285(5) 1.0562(5) 0.2017(4)
C3 C 0.5732(5) 1.0525(5) 0.0928(4)
H1 H 0.5967 0.9687 0.0617
C4 C 0.5829(6) 1.1693(6) 0.0312(4)
H2 H 0.6144 1.1652 -0.0413
C5 C 0.5456(6) 1.2936(6) 0.0777(4)
H3 H 0.5512 1.3739 0.0363
C6 C 0.4998(5) 1.2999(5) 0.1854(4)
C7 C 0.4913(5) 1.1812(5) 0.2488(4)
C8 C 0.4427(6) 1.1888(5) 0.3668(4)
C9 C 0.4468(6) 1.4392(5) 0.2310(4)
C10 C 0.1380(7) 0.3956(7) -0.4144(4)
H4 H 0.1149 0.3204 -0.4353
C11 C 0.0378(7) 0.5158(7) -0.3876(4)
H5 H -0.0658 0.5397 -0.3867
C12 C 0.2621(6) 0.5227(6) -0.3751(4)
H6 H 0.3405 0.5547 -0.3633
C13 C 0.0521(7) 0.7352(6) -0.3233(4)
H7 H 0.1285 0.7899 -0.3498
H8 H -0.0370 0.7785 -0.3485
C14 C 0.0044(6) 0.7309(6) -0.2057(4)
C15 C -0.1337(6) 0.7036(7) -0.1476(5)
H9 H -0.2041 0.6934 -0.1810
C16 C -0.1694(6) 0.6914(7) -0.0410(5)
H10 H -0.2638 0.6726 -0.0031
C17 C -0.0693(6) 0.7062(6) 0.0113(4)
C18 C 0.0667(7) 0.7373(10) -0.0484(5)
H11 H 0.1357 0.7510 -0.0150
C19 C 0.1041(7) 0.7490(8) -0.1556(5)
H12 H 0.1977 0.7694 -0.1937
C20 C -0.1065(6) 0.6828(7) 0.1282(4)
H13 H -0.0897 0.5847 0.1450
H14 H -0.2149 0.7242 0.1592
C21 C 0.1199(6) 0.6733(6) 0.1908(4)
H15 H 0.1664 0.5816 0.1759
C22 C 0.0743(8) 0.8764(7) 0.2404(6)
H16 H 0.0832 0.9542 0.2673
C23 C -0.0431(8) 0.8687(8) 0.2045(6)
H17 H -0.1286 0.9395 0.2016
H18 H 0.3216 0.6298 0.4497
Zn1_2 Zn 0.37130(6) 1.68677(6) 0.27827(5)
Zn2A Zn 0.52888(6) 0.74937(6) 0.44938(4)
Zn2_2 Zn 0.47112(6) 1.25063(6) 0.55062(4)
O2A O 0.4514(4) 0.0911(4) -0.3495(3)
O4_2 O 0.5418(4) 0.2203(4) -0.5983(3)
O5_2 O 0.3386(5) 0.4594(4) 0.3113(3)
O6_2 O 0.5091(5) 0.5340(4) 0.1834(3)
O7A O 0.6446(4) 0.2995(4) -0.4229(3)
H18A H 0.6784 0.3702 -0.4497
O8 O 0.8454(5) 0.0352(6) 0.5513(5)
H19 H 0.7934 -0.0255 0.5605
H20 H 0.7830 0.1139 0.5594
loop_
_geom_bond_atom_site_label_1
_geom_bond_atom_site_label_2
_geom_bond_site_symmetry_1
_geom_bond_site_symmetry_2
Zn1 N3 1_555 1_555
Zn2 N1 1_555 1_555
N1 C10 1_555 1_555
N2 C11 1_555 1_555
N3 C21 1_555 1_555
N4 C20 1_555 1_555
O1 Zn1 1_555 1_555
O2 C1 1_555 1_555
O3 C8 1_555 1_555
O4 C8 1_555 1_555
O5 C9 1_555 1_555
O6 C9 1_555 1_555
O7 Zn1 1_555 1_555
C1 O1 1_555 1_555
C2 C1 1_555 1_555
C3 C2 1_555 1_555
H1 C3 1_555 1_555
C4 C3 1_555 1_555
H2 C4 1_555 1_555
C5 C4 1_555 1_555
H3 C5 1_555 1_555
C6 C5 1_555 1_555
C7 C2 1_555 1_555
C8 C7 1_555 1_555
C9 C6 1_555 1_555
C10 H4 1_555 1_555
C11 C10 1_555 1_555
H5 C11 1_555 1_555
C12 N1 1_555 1_555
H6 C12 1_555 1_555
C13 N2 1_555 1_555
H7 C13 1_555 1_555
H8 C13 1_555 1_555
C14 C13 1_555 1_555
C15 C14 1_555 1_555
H9 C15 1_555 1_555
C16 C15 1_555 1_555
H10 C16 1_555 1_555
C17 C16 1_555 1_555
C18 C17 1_555 1_555
H11 C18 1_555 1_555
C19 C14 1_555 1_555
H12 C19 1_555 1_555
C20 C17 1_555 1_555
H13 C20 1_555 1_555
H14 C20 1_555 1_555
C21 N4 1_555 1_555
H15 C21 1_555 1_555
C22 N3 1_555 1_555
H16 C22 1_555 1_555
C23 N4 1_555 1_555
H17 C23 1_555 1_555
H18 O7 1_555 1_555
O8 H19 1_555 1_555
H20 O8 1_555 1_555
Zn1_2 O5 1_555 1_555
Zn2A O2 1_555 1_555
Zn2_2 O4 1_555 1_555
O2A Zn2 1_555 1_555
O4_2 Zn2 1_555 1_555
O5_2 Zn1 1_555 1_555
O6_2 Zn1 1_555 1_555
O7A Zn2 1_555 1_555
H18A O7A 1_555 1_555
N2 C12 1_555 1_555
O6 Zn1_2 1_555 1_555
O7 Zn2A 1_555 1_555
C6 C7 1_555 1_555
C18 C19 1_555 1_555
C22 C23 1_555 1_555

#END
