
#######################################################################
#
#                 Cambridge Crystallographic Data Centre
#                                CCDC 
#
#######################################################################
#
# If this CIF has been generated from an entry in the Cambridge 
# Structural Database, then it will include bibliographic, chemical, 
# crystal, experimental, refinement or atomic coordinate data resulting 
# from the CCDC's data processing and validation procedures.
#
#######################################################################

data_QUGJUX
_symmetry_cell_setting           triclinic
_symmetry_space_group_name_H-M   'P -1'
_symmetry_Int_Tables_number      2
_space_group_name_Hall           '-P 1'
loop_
_symmetry_equiv_pos_site_id
_symmetry_equiv_pos_as_xyz
1 x,y,z
2 -x,-y,-z
_cell_length_a                   7.6299(3)
_cell_length_b                   10.7948(4)
_cell_length_c                   11.6418(5)
_cell_angle_alpha                81.657(2)
_cell_angle_beta                 76.0430(10)
_cell_angle_gamma                71.052(2)
_cell_volume                     877.793
loop_
_atom_site_label
_atom_site_type_symbol
_atom_site_fract_x
_atom_site_fract_y
_atom_site_fract_z
Co1 Co 0.18085(4) 0.29672(3) 0.27214(3)
Co2 Co -0.5000 -0.5000 0.5000
N1 N 0.1167(3) 0.4775(2) 0.17211(18)
C1 C -0.0154(4) 0.5872(3) 0.2127(2)
H1 H -0.0825 0.5847 0.2906
C2 C -0.0554(5) 0.7035(3) 0.1434(3)
H2 H -0.1473 0.7781 0.1743
C3 C 0.0423(5) 0.7077(3) 0.0279(3)
H3 H 0.0165 0.7849 -0.0208
C4 C 0.1799(4) 0.5954(3) -0.0150(2)
H4 H 0.2474 0.5963 -0.0930
C5 C 0.2157(4) 0.4822(3) 0.0589(2)
C6 C 0.3612(4) 0.3573(3) 0.0225(2)
C7 C 0.4668(4) 0.3410(4) -0.0927(3)
H5 H 0.4483 0.4095 -0.1513
C8 C 0.5992(5) 0.2215(4) -0.1183(3)
H6 H 0.6716 0.2083 -0.1947
C9 C 0.6235(5) 0.1226(4) -0.0308(3)
H7 H 0.7137 0.0418 -0.0468
C10 C 0.5135(4) 0.1433(3) 0.0811(3)
H8 H 0.5296 0.0750 0.1401
N2 N 0.3833(3) 0.2594(2) 0.10806(19)
O1 O 0.2007(3) 0.0970(2) 0.30278(18)
O2 O -0.0584(3) 0.2175(2) 0.24328(18)
C11 C 0.0361(4) 0.1120(3) 0.2897(2)
C12 C -0.0511(3) 0.0038(2) 0.3357(2)
C13 C -0.2413(3) 0.0212(3) 0.3380(2)
H9 H -0.3133 0.0979 0.3033
C14 C -0.3228(3) -0.0750(3) 0.3917(2)
H10 H -0.4489 -0.0633 0.3912
C15 C -0.2192(3) -0.1900(2) 0.4469(2)
C16 C -0.3242(3) -0.2864(2) 0.5114(2)
O3 O -0.3762(2) -0.34556(17) 0.44950(15)
O4 O -0.3631(2) -0.29354(19) 0.62462(15)
C17 C -0.0256(3) -0.2108(2) 0.43974(19)
C18 C 0.1002(3) -0.3324(2) 0.4923(2)
O5 O 0.0356(2) -0.38227(19) 0.59166(16)
O6 O 0.2671(2) -0.37491(18) 0.43591(15)
C19 C 0.0556(3) -0.1138(2) 0.38444(19)
H11 H 0.1839 -0.1277 0.3799
O7 O -0.6083(3) -0.4342(2) 0.67465(16)
H12 H -0.541(5) -0.400(4) 0.681(3)
H13 H -0.718(7) -0.397(5) 0.683(4)
O1A O -1.2007(3) -1.0970(2) 0.69722(18)
O2A O -0.9416(3) -1.2175(2) 0.75672(18)
C11A C -1.0361(4) -1.1120(3) 0.7103(2)
C12A C -0.9489(3) -1.0038(2) 0.6643(2)
C13A C -0.7587(3) -1.0212(3) 0.6620(2)
H9A H -0.6867 -1.0979 0.6967
C14A C -0.6772(3) -0.9250(3) 0.6083(2)
H10A H -0.5511 -0.9367 0.6088
C15A C -0.7808(3) -0.8100(2) 0.5531(2)
C16A C -0.6758(3) -0.7136(2) 0.4886(2)
O3A O -0.6238(2) -0.65444(17) 0.55050(15)
O4A O -0.6369(2) -0.70646(19) 0.37538(15)
C17A C -0.9744(3) -0.7892(2) 0.56026(19)
C18A C -1.1002(3) -0.6676(2) 0.5077(2)
O5A O -1.0356(2) -0.61773(19) 0.40834(16)
O6A O -1.2671(2) -0.62509(18) 0.56409(15)
C19A C -1.0556(3) -0.8862(2) 0.61556(19)
H11A H -1.1839 -0.8723 0.6201
O7A O -0.3917(3) -0.5658(2) 0.32535(16)
H12A H -0.459(5) -0.600(4) 0.319(3)
H13A H -0.282(7) -0.603(5) 0.317(4)
Co1A Co -1.18085(4) -1.29672(3) 0.72786(3)
N1A N -1.1167(3) -1.4775(2) 0.82789(18)
C1A C -0.9846(4) -1.5872(3) 0.7873(2)
H1A H -0.9175 -1.5847 0.7094
C2A C -0.9446(5) -1.7035(3) 0.8566(3)
H2A H -0.8527 -1.7781 0.8257
C3A C -1.0423(5) -1.7077(3) 0.9721(3)
H3A H -1.0165 -1.7849 1.0208
C4A C -1.1799(4) -1.5954(3) 1.0150(2)
H4A H -1.2474 -1.5963 1.0930
C5A C -1.2157(4) -1.4822(3) 0.9411(2)
C6A C -1.3612(4) -1.3573(3) 0.9775(2)
C7A C -1.4668(4) -1.3410(4) 1.0927(3)
H5A H -1.4483 -1.4095 1.1513
C8A C -1.5992(5) -1.2215(4) 1.1183(3)
H6A H -1.6716 -1.2083 1.1947
C9A C -1.6235(5) -1.1226(4) 1.0308(3)
H7A H -1.7137 -1.0418 1.0468
C10A C -1.5135(4) -1.1433(3) 0.9189(3)
H8A H -1.5296 -1.0750 0.8599
N2A N -1.3833(3) -1.2594(2) 0.89194(19)
O4A_2 O 0.3631(2) 0.29354(19) 0.37538(15)
O5A_2 O -0.0356(2) 0.38227(19) 0.40834(16)
O6_2 O -0.7329(2) -0.37491(18) 0.43591(15)
O6A_2 O -0.2671(2) -0.62509(18) 0.56409(15)
Co1A_2 Co -0.18085(4) -0.29672(3) 0.72786(3)
Co2_2 Co 0.5000 -0.5000 0.5000
Co1_2 Co -0.81915(4) -0.70328(3) 0.27214(3)
Co2_3 Co -1.5000 -0.5000 0.5000
O4_2 O -1.3631(2) -1.29354(19) 0.62462(15)
O5_2 O -0.9644(2) -1.38227(19) 0.59166(16)
loop_
_geom_bond_atom_site_label_1
_geom_bond_atom_site_label_2
_geom_bond_site_symmetry_1
_geom_bond_site_symmetry_2
Co1 N1 1_555 1_555
Co2 O3 1_555 1_555
N1 C1 1_555 1_555
C1 H1 1_555 1_555
C2 C1 1_555 1_555
H2 C2 1_555 1_555
C3 C2 1_555 1_555
H3 C3 1_555 1_555
C4 C3 1_555 1_555
H4 C4 1_555 1_555
C5 N1 1_555 1_555
C6 C5 1_555 1_555
C7 C6 1_555 1_555
H5 C7 1_555 1_555
C8 C7 1_555 1_555
H6 C8 1_555 1_555
C9 C8 1_555 1_555
H7 C9 1_555 1_555
C10 C9 1_555 1_555
H8 C10 1_555 1_555
N2 Co1 1_555 1_555
O1 Co1 1_555 1_555
O2 Co1 1_555 1_555
C11 O1 1_555 1_555
C12 C11 1_555 1_555
C13 C12 1_555 1_555
H9 C13 1_555 1_555
C14 C13 1_555 1_555
H10 C14 1_555 1_555
C15 C14 1_555 1_555
C16 C15 1_555 1_555
O3 C16 1_555 1_555
O4 C16 1_555 1_555
C17 C15 1_555 1_555
C18 C17 1_555 1_555
O5 C18 1_555 1_555
O6 C18 1_555 1_555
C19 C12 1_555 1_555
H11 C19 1_555 1_555
O7 Co2 1_555 1_555
H12 O7 1_555 1_555
H13 O7 1_555 1_555
O1A C11A 1_555 1_555
O2A C11A 1_555 1_555
C11A C12A 1_555 1_555
C12A C13A 1_555 1_555
C13A H9A 1_555 1_555
C14A C13A 1_555 1_555
H10A C14A 1_555 1_555
C15A C14A 1_555 1_555
C16A C15A 1_555 1_555
O3A Co2 1_555 1_555
O4A C16A 1_555 1_555
C17A C15A 1_555 1_555
C18A C17A 1_555 1_555
O5A C18A 1_555 1_555
O6A C18A 1_555 1_555
C19A C12A 1_555 1_555
H11A C19A 1_555 1_555
O7A Co2 1_555 1_555
H12A O7A 1_555 1_555
H13A O7A 1_555 1_555
Co1A O1A 1_555 1_555
N1A Co1A 1_555 1_555
C1A N1A 1_555 1_555
H1A C1A 1_555 1_555
C2A C1A 1_555 1_555
H2A C2A 1_555 1_555
C3A C2A 1_555 1_555
H3A C3A 1_555 1_555
C4A C3A 1_555 1_555
H4A C4A 1_555 1_555
C5A N1A 1_555 1_555
C6A C5A 1_555 1_555
C7A C6A 1_555 1_555
H5A C7A 1_555 1_555
C8A C7A 1_555 1_555
H6A C8A 1_555 1_555
C9A C8A 1_555 1_555
H7A C9A 1_555 1_555
C10A C9A 1_555 1_555
H8A C10A 1_555 1_555
N2A Co1A 1_555 1_555
O4A_2 Co1 1_555 1_555
O5A_2 Co1 1_555 1_555
O6_2 Co2 1_555 1_555
O6A_2 Co2 1_555 1_555
Co1A_2 O4 1_555 1_555
Co2_2 O6 1_555 1_555
Co1_2 O4A 1_555 1_555
Co2_3 O6A 1_555 1_555
O4_2 Co1A 1_555 1_555
O5_2 Co1A 1_555 1_555
C4 C5 1_555 1_555
C6 N2 1_555 1_555
C10 N2 1_555 1_555
O2 C11 1_555 1_555
C17 C19 1_555 1_555
O5 Co1A_2 1_555 1_555
O2A Co1A 1_555 1_555
C16A O3A 1_555 1_555
C17A C19A 1_555 1_555
O5A Co1_2 1_555 1_555
C4A C5A 1_555 1_555
C6A N2A 1_555 1_555
C10A N2A 1_555 1_555

#END
