
#######################################################################
#
#                 Cambridge Crystallographic Data Centre
#                                CCDC 
#
#######################################################################
#
# If this CIF has been generated from an entry in the Cambridge 
# Structural Database, then it will include bibliographic, chemical, 
# crystal, experimental, refinement or atomic coordinate data resulting 
# from the CCDC's data processing and validation procedures.
#
#######################################################################

data_QUGMEK
_symmetry_cell_setting           monoclinic
_symmetry_space_group_name_H-M   'P 21/a'
_symmetry_Int_Tables_number      14
_space_group_name_Hall           '-P 2yab'
loop_
_symmetry_equiv_pos_site_id
_symmetry_equiv_pos_as_xyz
1 x,y,z
2 1/2+x,1/2-y,z
3 -x,-y,-z
4 1/2-x,1/2+y,-z
_cell_length_a                   9.3258(6)
_cell_length_b                   20.632(1)
_cell_length_c                   9.9530(7)
_cell_angle_alpha                90
_cell_angle_beta                 113.937(2)
_cell_angle_gamma                90
_cell_volume                     1750.35
loop_
_atom_site_label
_atom_site_type_symbol
_atom_site_fract_x
_atom_site_fract_y
_atom_site_fract_z
Cu1 Cu 0.89334(5) 0.10654(2) 0.06776(5)
N1 N 1.1220(3) 0.0922(1) 0.2300(3)
N2 N 1.3281(3) 0.3115(1) 0.1452(3)
N3 N 0.8425(3) 0.0208(1) 0.1416(3)
N4 N 0.3903(4) -0.0524(2) -0.3411(4)
N5 N 0.8642(4) 0.1258(2) -0.1320(4)
C1 C 1.1218(4) 0.0289(2) 0.2980(4)
C2 C 0.9598(4) 0.0156(2) 0.2930(4)
C3 C 1.2403(4) 0.1286(2) 0.2961(4)
C4 C 1.2628(4) 0.1926(2) 0.2411(4)
C5 C 1.1828(4) 0.2131(2) 0.0959(4)
C6 C 1.2180(4) 0.2713(2) 0.0530(4)
C7 C 1.4028(4) 0.2921(2) 0.2838(4)
C8 C 1.3747(4) 0.2338(2) 0.3358(4)
C9 C 0.7516(4) -0.0278(2) 0.0918(4)
C10 C 0.6270(4) -0.0333(2) -0.0570(4)
C11 C 0.5473(4) -0.0917(2) -0.0984(4)
C12 C 0.4319(5) -0.0985(2) -0.2399(5)
C13 C 0.4654(4) 0.0042(2) -0.2993(5)
C14 C 0.5815(4) 0.0161(2) -0.1612(4)
C15 C 0.8473(5) 0.1443(2) -0.2444(5)
C16 C 0.8315(8) 0.1663(3) -0.3907(6)
H1 H 1.1483 -0.0043 0.2449
H2 H 1.1970 0.0288 0.3970
H3 H 0.9371 0.0461 0.3535
H4 H 0.9566 -0.0271 0.3291
H5 H 1.3194 0.1139 0.3865
H6 H 1.1035 0.1860 0.0264
H7 H 1.1616 0.2848 -0.0474
H8 H 1.4805 0.3203 0.3499
H9 H 1.4328 0.2217 0.4366
H10 H 0.7662 -0.0635 0.1570
H11 H 0.5726 -0.1273 -0.0308
H12 H 0.3768 -0.1392 -0.2651
H13 H 0.4363 0.0386 -0.3711
H14 H 0.6311 0.0588 -0.1367
H15 H 0.9145 0.1957 -0.3808
H16 H 0.8377 0.1301 -0.4487
H17 H 0.7338 0.1876 -0.4417
N2A N 0.8281(3) 0.1885(1) 0.1452(3)
Cu1A Cu 1.39334(5) 0.39346(2) 0.06776(5)
O1 O 1.1898(6) 0.1321(3) -0.4103(5)
O2 O 1.4315(7) 0.1670(3) -0.3248(6)
O3 O 1.2837(8) 0.1873(3) -0.2113(6)
N6 N 1.2970(8) 0.1640(2) -0.3157(6)
loop_
_geom_bond_atom_site_label_1
_geom_bond_atom_site_label_2
_geom_bond_site_symmetry_1
_geom_bond_site_symmetry_2
Cu1 N1 1_555 1_555
O1 N6 1_555 1_555
O2 N6 1_555 1_555
O3 N6 1_555 1_555
N1 C1 1_555 1_555
N2 C6 1_555 1_555
N3 Cu1 1_555 1_555
N4 C12 1_555 1_555
N5 Cu1 1_555 1_555
C1 C2 1_555 1_555
C2 N3 1_555 1_555
C3 N1 1_555 1_555
C4 C3 1_555 1_555
C5 C4 1_555 1_555
C6 C5 1_555 1_555
C7 N2 1_555 1_555
C8 C4 1_555 1_555
C9 N3 1_555 1_555
C10 C9 1_555 1_555
C11 C10 1_555 1_555
C12 C11 1_555 1_555
C13 N4 1_555 1_555
C14 C10 1_555 1_555
C15 N5 1_555 1_555
C16 C15 1_555 1_555
H1 C1 1_555 1_555
H2 C1 1_555 1_555
H3 C2 1_555 1_555
H4 C2 1_555 1_555
H5 C3 1_555 1_555
H6 C5 1_555 1_555
H7 C6 1_555 1_555
H8 C7 1_555 1_555
H9 C8 1_555 1_555
H10 C9 1_555 1_555
H11 C11 1_555 1_555
H12 C12 1_555 1_555
H13 C13 1_555 1_555
H14 C14 1_555 1_555
H15 C16 1_555 1_555
H16 C16 1_555 1_555
H17 C16 1_555 1_555
N2A Cu1 1_555 1_555
Cu1A N2 1_555 1_555
C7 C8 1_555 1_555
C13 C14 1_555 1_555

#END
