
#######################################################################
#
#                 Cambridge Crystallographic Data Centre
#                                CCDC 
#
#######################################################################
#
# If this CIF has been generated from an entry in the Cambridge 
# Structural Database, then it will include bibliographic, chemical, 
# crystal, experimental, refinement or atomic coordinate data resulting 
# from the CCDC's data processing and validation procedures.
#
#######################################################################

data_QUGVAQ
_symmetry_cell_setting           monoclinic
_symmetry_space_group_name_H-M   'P 21/c'
_symmetry_Int_Tables_number      14
_space_group_name_Hall           '-P 2ybc'
loop_
_symmetry_equiv_pos_site_id
_symmetry_equiv_pos_as_xyz
1 x,y,z
2 -x,1/2+y,1/2-z
3 -x,-y,-z
4 x,1/2-y,1/2+z
_cell_length_a                   11.550(2)
_cell_length_b                   12.390(3)
_cell_length_c                   14.163(3)
_cell_angle_alpha                90
_cell_angle_beta                 108.40(3)
_cell_angle_gamma                90
_cell_volume                     1923.17
loop_
_atom_site_label
_atom_site_type_symbol
_atom_site_fract_x
_atom_site_fract_y
_atom_site_fract_z
Cl1 Cl 1.07536(7) 1.05113(5) 0.37974(6)
Zn1 Zn 0.88753(3) 0.81625(3) 0.23450(3)
Zn2 Zn 0.22735(3) 0.92084(3) 0.05878(3)
N1 N 0.3413(2) 0.7820(2) 0.08889(18)
C1 C 1.3382(3) 0.7997(2) 0.3403(2)
H1 H 1.3213 0.8730 0.3304
H2 H 1.4061 0.5093 0.3824
H3 H 1.5187 0.8140 0.3692
H4 H 0.5080 0.5236 0.1438
H5 H 0.302(3) 0.530(3) 0.101(3)
H6 H 0.506(3) 0.851(3) 0.121(3)
H7 H 0.944(7) 0.819(5) 0.422(5)
H8 H 0.955(5) 0.789(4) 0.077(4)
C2 C 1.2428(3) 0.7272(2) 0.3312(2)
C3 C 1.2700(3) 0.6181(2) 0.3493(2)
C4 C 1.3891(3) 0.5826(2) 0.3719(2)
C5 C 1.4837(3) 0.6548(2) 0.3792(2)
C6 C 1.4564(3) 0.7646(2) 0.3637(2)
C7 C 1.1139(3) 0.7658(2) 0.3007(2)
C8 C 1.1756(3) 0.5343(2) 0.3468(2)
C9 C 1.6122(3) 0.6145(3) 0.4025(2)
C10 C 0.5291(3) 0.6842(2) 0.1370(2)
C11 C 0.4660(3) 0.5887(3) 0.1296(3)
C12 C 0.3400(3) 0.5906(3) 0.1011(3)
C13 C 0.2815(3) 0.6883(2) 0.0807(2)
C14 C 0.4631(3) 0.7793(3) 0.1158(2)
C15 C 0.6661(3) 0.6885(3) 0.1704(2)
C16 C 0.1447(3) 0.6984(2) 0.0485(2)
O1 O 1.0924(2) 0.86414(19) 0.2991(2)
O2 O 1.0283(2) 0.69884(18) 0.27460(18)
O3 O 1.1439(2) 0.52121(18) 0.42350(16)
O4 O 1.1394(2) 0.47757(17) 0.27058(15)
O5 O 1.6960(2) 0.68087(19) 0.4208(2)
O6 O 1.6234(2) 0.51301(19) 0.4015(2)
O7 O 0.7244(2) 0.6026(2) 0.1844(2)
O8 O 0.7102(2) 0.78178(19) 0.18237(18)
O9 O 0.0821(2) 0.61599(19) 0.02684(18)
O10 O 0.1038(2) 0.79390(18) 0.04539(19)
O11 O 0.1387(3) 1.0023(3) 0.1384(3)
H9 H 0.182(6) 1.033(5) 0.192(5)
H10 H 0.064(8) 1.027(16) 0.105(12)
O12 O 0.8669(3) 0.8176(2) 0.37640(19)
H11 H 0.818(4) 0.774(4) 0.383(3)
O13 O 0.8904(2) 0.78198(18) 0.08870(17)
H12 H 0.835(4) 0.808(3) 0.043(3)
Zn1A Zn 1.11247(3) 0.31625(3) 0.26550(3)
Zn2C Zn 1.22735(3) 0.57916(3) 0.55878(3)
Zn2A Zn 1.77265(3) 0.42084(3) 0.44122(3)
O3C O 0.1439(2) 0.97879(18) -0.07650(16)
O4A O 0.8606(2) 0.97757(17) 0.22942(15)
O6A O 0.3766(2) 1.01301(19) 0.0985(2)
loop_
_geom_bond_atom_site_label_1
_geom_bond_atom_site_label_2
_geom_bond_site_symmetry_1
_geom_bond_site_symmetry_2
Zn1 O1 1_555 1_555
Zn2 N1 1_555 1_555
N1 C13 1_555 1_555
C1 H1 1_555 1_555
H2 C4 1_555 1_555
H3 C6 1_555 1_555
H4 C11 1_555 1_555
H5 C12 1_555 1_555
H6 C14 1_555 1_555
H7 O12 1_555 1_555
H8 O13 1_555 1_555
C2 C1 1_555 1_555
C3 C2 1_555 1_555
C4 C3 1_555 1_555
C5 C4 1_555 1_555
C6 C1 1_555 1_555
C7 C2 1_555 1_555
C8 C3 1_555 1_555
C9 C5 1_555 1_555
C10 C11 1_555 1_555
C11 C12 1_555 1_555
C12 C13 1_555 1_555
C13 C16 1_555 1_555
C14 N1 1_555 1_555
C15 C10 1_555 1_555
C16 O9 1_555 1_555
O1 C7 1_555 1_555
O2 Zn1 1_555 1_555
O3 C8 1_555 1_555
O4 C8 1_555 1_555
O5 C9 1_555 1_555
O6 C9 1_555 1_555
O7 C15 1_555 1_555
O8 Zn1 1_555 1_555
O10 Zn2 1_555 1_555
O11 Zn2 1_555 1_555
H9 O11 1_555 1_555
H10 O11 1_555 1_555
O12 Zn1 1_555 1_555
H11 O12 1_555 1_555
O13 Zn1 1_555 1_555
H12 O13 1_555 1_555
Zn1A O4 1_555 1_555
Zn2C O3 1_555 1_555
Zn2A O6 1_555 1_555
O3C Zn2 1_555 1_555
O4A Zn1 1_555 1_555
O6A Zn2 1_555 1_555
C5 C6 1_555 1_555
C7 O2 1_555 1_555
C10 C14 1_555 1_555
C15 O8 1_555 1_555
C16 O10 1_555 1_555

#END
