
#######################################################################
#
#                 Cambridge Crystallographic Data Centre
#                                CCDC 
#
#######################################################################
#
# If this CIF has been generated from an entry in the Cambridge 
# Structural Database, then it will include bibliographic, chemical, 
# crystal, experimental, refinement or atomic coordinate data resulting 
# from the CCDC's data processing and validation procedures.
#
#######################################################################

data_QUGWOF
_symmetry_cell_setting           monoclinic
_symmetry_space_group_name_H-M   'P 21/c'
_symmetry_Int_Tables_number      14
_space_group_name_Hall           '-P 2ybc'
loop_
_symmetry_equiv_pos_site_id
_symmetry_equiv_pos_as_xyz
1 x,y,z
2 -x,1/2+y,1/2-z
3 -x,-y,-z
4 x,1/2-y,1/2+z
_cell_length_a                   18.483(3)
_cell_length_b                   5.3787(9)
_cell_length_c                   28.182(4)
_cell_angle_alpha                90
_cell_angle_beta                 129.600(7)
_cell_angle_gamma                90
_cell_volume                     2158.75
loop_
_atom_site_label
_atom_site_type_symbol
_atom_site_fract_x
_atom_site_fract_y
_atom_site_fract_z
Zn1 Zn 0.47167(3) 0.48081(8) 0.073471(17)
Zn2 Zn 0.08532(3) 1.00653(8) -0.051080(17)
O1 O 0.06788(5) 1.28857(13) -0.01473(3)
H1 H 0.0639 1.2568 0.0138
H2 H 0.0916 1.4334 -0.0073
O2 O 0.14884(5) 0.73860(13) 0.01047(3)
O3 O 0.52271(5) 0.75923(13) 0.05562(3)
H3 H 0.5560 0.7363 0.0453
H4 H 0.5290 0.9003 0.0681
O4 O 0.94344(5) -0.28019(13) 0.42533(3)
O5 O 0.58986(5) 0.47682(13) 0.17826(3)
O6 O 0.57168(5) 0.20637(13) 0.11351(3)
O7 O 0.97314(5) -0.41462(13) 0.36565(3)
O8 O 0.39544(5) 0.29173(13) -0.00630(3)
N1 N 0.28711(5) 0.58812(13) 0.03632(3)
N2 N 0.37857(5) 0.63266(13) 0.07928(3)
N3 N 0.17337(5) 0.14198(13) -0.06354(3)
N4 N 0.26654(5) 0.11402(13) -0.02355(3)
N5 N 0.30156(5) 0.27313(13) -0.03994(3)
N6 N 0.24392(5) 0.74107(13) 0.04749(3)
C1 C 0.30336(5) 0.89028(13) 0.09691(3)
C2 C 0.39154(5) 0.81914(13) 0.11765(3)
C3 C 0.47199(5) 0.93766(13) 0.16834(3)
H5 H 0.5330 0.8890 0.1839
C4 C 0.4588(3) 1.1269(7) 0.19453(16)
H6 H 0.5120 1.2135 0.2286
C5 C 0.3688(3) 1.1971(7) 0.17244(16)
H7 H 0.3632 1.3297 0.1922
C6 C 0.2895(3) 1.0821(7) 0.12384(15)
H8 H 0.2288 1.1289 0.1092
C7 C 0.2341(2) 0.4086(7) -0.09046(15)
C8 C 0.1511(2) 0.3224(7) -0.10546(15)
C9 C 0.0644(3) 0.4237(8) -0.15542(16)
H9 H 0.0070 0.3649 -0.1665
C10 C 0.0663(3) 0.6098(9) -0.18734(18)
H10 H 0.0089 0.6835 -0.2212
C11 C 0.1514(3) 0.6959(9) -0.17138(19)
H11 H 0.1492 0.8250 -0.1953
C12 C 0.8443(2) -0.1402(7) 0.32103(15)
C13 C 0.8089(3) 0.0627(7) 0.33084(17)
H12 H 0.8345 0.1064 0.3715
C14 C 0.8057(2) -0.2030(7) 0.26115(15)
H13 H 0.8304 -0.3400 0.2542
C15 C 0.6967(2) 0.1368(7) 0.22160(15)
C16 C 0.7317(3) -0.0678(7) 0.21167(17)
H14 H 0.7048 -0.1145 0.1709
C17 C 0.7363(3) 0.2016(7) 0.28144(16)
H15 H 0.7133 0.3425 0.2885
C18 C 0.6162(2) 0.2849(7) 0.16922(16)
C19 C 0.9251(2) -0.2865(7) 0.37481(16)
C20 C 0.2371(3) 0.6012(8) -0.12294(18)
H16 H 0.2942 0.6612 -0.1121
Zn2C Zn 1.08532(3) -0.50653(8) 0.448920(17)
Zn2_2 Zn 0.08532(3) 0.00653(8) -0.051080(17)
O4C O -0.05656(5) 0.78019(13) -0.07467(3)
O7C O -0.02686(5) 0.91462(13) -0.13435(3)
N3_2 N 0.17337(5) 1.14198(13) -0.06354(3)
loop_
_geom_bond_atom_site_label_1
_geom_bond_atom_site_label_2
_geom_bond_site_symmetry_1
_geom_bond_site_symmetry_2
Zn1 O3 1_555 1_555
Zn2 O1 1_555 1_555
O1 H1 1_555 1_555
H2 O1 1_555 1_555
O2 Zn2 1_555 1_555
O3 H3 1_555 1_555
H4 O3 1_555 1_555
O4 C19 1_555 1_555
O5 Zn1 1_555 1_555
O6 Zn1 1_555 1_555
O7 C19 1_555 1_555
O8 Zn1 1_555 1_555
N1 N2 1_555 1_555
N2 Zn1 1_555 1_555
N3 N4 1_555 1_555
N4 N5 1_555 1_555
N5 O8 1_555 1_555
N6 O2 1_555 1_555
C1 N6 1_555 1_555
C2 N2 1_555 1_555
C3 C2 1_555 1_555
H5 C3 1_555 1_555
C4 C3 1_555 1_555
H6 C4 1_555 1_555
C5 C4 1_555 1_555
H7 C5 1_555 1_555
C6 C1 1_555 1_555
H8 C6 1_555 1_555
C7 N5 1_555 1_555
C8 N3 1_555 1_555
C9 C8 1_555 1_555
H9 C9 1_555 1_555
C10 C9 1_555 1_555
H10 C10 1_555 1_555
C11 C10 1_555 1_555
H11 C11 1_555 1_555
C12 C13 1_555 1_555
C13 H12 1_555 1_555
C14 C12 1_555 1_555
H13 C14 1_555 1_555
C15 C16 1_555 1_555
C16 C14 1_555 1_555
H14 C16 1_555 1_555
C17 C13 1_555 1_555
H15 C17 1_555 1_555
C18 O5 1_555 1_555
C19 C12 1_555 1_555
C20 C7 1_555 1_555
H16 C20 1_555 1_555
Zn2C O4 1_555 1_555
Zn2_2 N3 1_555 1_555
O4C Zn2 1_555 1_555
O7C Zn2 1_555 1_555
N3_2 Zn2 1_555 1_555
O6 C18 1_555 1_555
O7 Zn2C 1_555 1_555
N1 N6 1_555 1_555
C1 C2 1_555 1_555
C5 C6 1_555 1_555
C7 C8 1_555 1_555
C11 C20 1_555 1_555
C15 C17 1_555 1_555
C15 C18 1_555 1_555

#END
