
#######################################################################
#
#                 Cambridge Crystallographic Data Centre
#                                CCDC 
#
#######################################################################
#
# If this CIF has been generated from an entry in the Cambridge 
# Structural Database, then it will include bibliographic, chemical, 
# crystal, experimental, refinement or atomic coordinate data resulting 
# from the CCDC's data processing and validation procedures.
#
#######################################################################

data_QUGXUM
_symmetry_cell_setting           monoclinic
_symmetry_space_group_name_H-M   'C 2'
_symmetry_Int_Tables_number      5
_space_group_name_Hall           'C 2y'
loop_
_symmetry_equiv_pos_site_id
_symmetry_equiv_pos_as_xyz
1 x,y,z
2 -x,y,-z
3 1/2+x,1/2+y,z
4 1/2-x,1/2+y,-z
_cell_length_a                   22.540(5)
_cell_length_b                   11.301(2)
_cell_length_c                   18.824(4)
_cell_angle_alpha                90
_cell_angle_beta                 119.84(3)
_cell_angle_gamma                90
_cell_volume                     4159.21
loop_
_atom_site_label
_atom_site_type_symbol
_atom_site_fract_x
_atom_site_fract_y
_atom_site_fract_z
Co1 Co 0.25655(2) 0.31952(3) 0.23784(2)
Co2 Co 0.5000 0.39108(4) 0.5000
Co3 Co 0.0000 0.34724(4) 0.0000
N1 N 0.0000 0.1621(3) 0.0000
O1 O 0.23493(11) 0.3225(2) 0.11750(13)
O2 O 0.27211(11) 0.3228(2) 0.35491(12)
O3 O 0.47040(12) 0.4026(2) 0.37676(13)
C1 C 0.0000 -0.2186(4) 0.0000
O4 O 0.14854(11) 0.31141(19) 0.17621(12)
O5 O 0.03912(12) 0.3601(2) 0.12295(13)
O6 O 0.36638(11) 0.3228(2) 0.30939(12)
N2 N 0.5000 0.5780(4) 0.5000
C2 C 0.25936(19) 0.7539(3) 0.2358(2)
C3 C 0.0000 -0.0856(4) 0.0000
C4 C 0.5000 0.9575(4) 0.5000
O7 O 0.40068(13) 0.3986(2) 0.47397(15)
C5 C 0.2598(2) 0.8853(3) 0.2364(2)
N3 N 0.25552(14) 0.5071(3) 0.23589(18)
C6 C 0.5000 0.8261(5) 0.5000
O8 O 0.09557(14) 0.3481(3) 0.00800(16)
C7 C 0.41407(16) 0.3851(2) 0.31404(19)
C8 C 0.09994(17) 0.3612(2) 0.17868(18)
C9 C 0.2775(2) 0.5683(3) 0.3046(2)
H1 H 0.2916 0.5271 0.3533
C10 C 0.2357(2) 0.5680(3) 0.1671(2)
H2 H 0.2207 0.5264 0.1185
C11 C 0.38405(18) 0.3836(3) 0.1653(2)
C12 C 0.40319(16) 0.4464(3) 0.23693(19)
C13 C 0.3751(2) 0.5675(4) 0.0955(2)
H3 H 0.3659 0.6078 0.0480
O9 O 0.21930(16) 0.2846(2) -0.00634(15)
C14 C 0.2803(2) 0.6911(3) 0.3072(3)
H4 H 0.2963 0.7306 0.3567
C15 C 0.5336(2) 0.7622(3) 0.4680(2)
H5 H 0.5570 0.8012 0.4458
C16 C 0.2364(2) 0.6899(3) 0.1646(2)
H6 H 0.2215 0.7288 0.1150
C17 C 0.31577(19) 0.1991(3) 0.1079(2)
C18 C 0.13368(19) 0.3676(3) 0.3276(2)
C19 C 0.0140(2) -0.0218(3) 0.0693(2)
H7 H 0.0233 -0.0610 0.1172
C20 C 0.1391(2) 0.2371(3) 0.3339(2)
C21 C 0.0140(2) 0.1003(3) 0.0672(2)
H8 H 0.0243 0.1415 0.1147
C22 C -0.0283(2) -0.2811(3) 0.0384(3)
H9 H -0.0478 -0.2417 0.0651
C23 C 0.2032(2) 0.1831(3) 0.3748(2)
C24 C 0.11389(18) 0.4272(3) 0.2544(2)
C25 C 0.37863(19) 0.2519(3) 0.1614(2)
C26 C 0.25213(18) 0.2744(3) 0.0686(2)
C27 C 0.3686(2) 0.0070(3) 0.1418(3)
H10 H 0.3652 -0.0747 0.1352
C28 C 0.5321(2) 0.6392(3) 0.4690(2)
H11 H 0.5547 0.5977 0.4469
C29 C 0.2664(2) 0.2595(3) 0.4064(2)
C30 C 0.3121(2) 0.0771(3) 0.0972(2)
H12 H 0.2709 0.0425 0.0593
C31 C 0.2054(2) 0.9501(3) 0.1769(2)
H13 H 0.1682 0.9114 0.1346
C32 C 0.3696(2) 0.4462(3) 0.0944(2)
H14 H 0.3560 0.4053 0.0458
C33 C 0.1493(2) 0.4335(4) 0.3976(2)
H15 H 0.1630 0.3951 0.4471
C34 C 0.40919(19) 0.5697(3) 0.2379(2)
H16 H 0.4231 0.6116 0.2862
C35 C 0.4308(2) 0.0584(3) 0.1967(2)
H17 H 0.4690 0.0112 0.2275
C36 C 0.3143(2) 0.9499(3) 0.2959(2)
H18 H 0.3523 0.9109 0.3369
C37 C 0.3943(2) 0.6291(3) 0.1663(3)
H19 H 0.3973 0.7112 0.1664
C38 C 0.1084(2) 0.5496(3) 0.2518(2)
H20 H 0.0940 0.5887 0.2024
C39 C 0.4355(2) 0.1802(3) 0.2054(2)
H21 H 0.4774 0.2146 0.2412
C40 C 0.1445(3) 0.5569(5) 0.3934(3)
H22 H 0.1555 0.6002 0.4404
C41 C 0.2090(3) 0.0615(4) 0.3879(3)
H23 H 0.2518 0.0266 0.4180
C42 C 0.0816(2) 0.1660(4) 0.3017(3)
H24 H 0.0385 0.2006 0.2725
C43 C 0.1239(3) 0.6145(4) 0.3212(3)
H25 H 0.1203 0.6965 0.3186
C44 C 0.0865(3) 0.0445(4) 0.3121(3)
H26 H 0.0473 -0.0019 0.2899
O10 O 0.3071(2) 0.2585(3) 0.4807(2)
C45 C 0.5076(2) 1.0225(3) 0.4426(3)
H27 H 0.5126 0.9836 0.4023
C46 C 0.5079(2) 1.1438(3) 0.4449(2)
H28 H 0.5139 1.1849 0.4062
C47 C 0.1501(3) -0.0072(4) 0.3556(3)
H29 H 0.1536 -0.0887 0.3635
N4 N 0.25902(15) 1.1346(3) 0.23747(17)
C48 C 0.2066(2) 1.0727(3) 0.1806(2)
H30 H 0.1687 1.1140 0.1413
C49 C 0.31227(19) 1.0727(3) 0.2942(2)
H31 H 0.3496 1.1140 0.3344
N5 N 0.5000 1.2059(3) 0.5000
C50 C -0.0273(2) -0.4034(3) 0.0368(2)
H32 H -0.0467 -0.4451 0.0628
N6 N 0.0000 -0.4636(4) 0.0000
H33 H 0.394(2) 0.361(3) 0.5048(19)
H34 H 0.386(2) 0.356(3) 0.4355(16)
H35 H 0.1304(13) 0.331(4) 0.0482(16)
H36 H 0.105(3) 0.344(5) -0.028(2)
Co1A Co 0.74345(2) 0.31952(3) 0.76216(2)
Co1_2 Co 0.25655(2) 1.31952(3) 0.23784(2)
Co1_3 Co 0.25655(2) -0.68048(3) 0.23784(2)
Co2_2 Co 0.5000 1.39108(4) 0.5000
Co3_2 Co 0.0000 -0.65276(4) 0.0000
Co3_3 Co 1.0000 0.34724(4) 1.0000
O1A O 0.76507(11) 0.3225(2) 0.88250(13)
O2A O 0.72789(11) 0.3228(2) 0.64509(12)
O3A O 0.52960(12) 0.4026(2) 0.62324(13)
O4A O 0.85146(11) 0.31141(19) 0.82379(12)
O5A O 0.96088(12) 0.3601(2) 0.87705(13)
O5A_2 O -0.03912(12) 0.3601(2) -0.12295(13)
O6A O 0.63362(11) 0.3228(2) 0.69061(12)
C2_2 C 0.25936(19) -0.2461(3) 0.2358(2)
O7A O 0.59932(13) 0.3986(2) 0.52603(15)
C5_2 C 0.2598(2) -0.1147(3) 0.2364(2)
N3_2 N 0.25552(14) -0.4929(3) 0.23589(18)
N3A N 0.74448(14) 0.5071(3) 0.76411(18)
O8A O -0.09557(14) 0.3481(3) -0.00800(16)
C7A C 0.58593(16) 0.3851(2) 0.68596(19)
C8A C 0.90006(17) 0.3612(2) 0.82132(18)
C9_2 C 0.2775(2) -0.4317(3) 0.3046(2)
H1_2 H 0.2916 -0.4729 0.3533
C10_2 C 0.2357(2) -0.4320(3) 0.1671(2)
H2_2 H 0.2207 -0.4736 0.1185
C11A C 0.61595(18) 0.3836(3) 0.8347(2)
C12A C 0.59681(16) 0.4464(3) 0.76307(19)
C13A C 0.6249(2) 0.5675(4) 0.9045(2)
H3A H 0.6341 0.6078 0.9520
O9A O 0.78070(16) 0.2846(2) 1.00634(15)
C14_2 C 0.2803(2) -0.3089(3) 0.3072(3)
H4_2 H 0.2963 -0.2694 0.3567
C15A C 0.4664(2) 0.7622(3) 0.5320(2)
H5A H 0.4430 0.8012 0.5542
C16_2 C 0.2364(2) -0.3101(3) 0.1646(2)
H6_2 H 0.2215 -0.2712 0.1150
C17A C 0.68423(19) 0.1991(3) 0.8921(2)
C18A C 0.86632(19) 0.3676(3) 0.6724(2)
C19A C -0.0140(2) -0.0218(3) -0.0693(2)
H7A H -0.0233 -0.0610 -0.1172
C20A C 0.8609(2) 0.2371(3) 0.6661(2)
C21A C -0.0140(2) 0.1003(3) -0.0672(2)
H8A H -0.0243 0.1415 -0.1147
C22A C 0.0283(2) -0.2811(3) -0.0384(3)
H9A H 0.0478 -0.2417 -0.0651
C23A C 0.7968(2) 0.1831(3) 0.6252(2)
C24A C 0.88611(18) 0.4272(3) 0.7456(2)
C25A C 0.62137(19) 0.2519(3) 0.8386(2)
C26A C 0.74787(18) 0.2744(3) 0.9314(2)
C27A C 0.6314(2) 0.0070(3) 0.8582(3)
H10A H 0.6348 -0.0747 0.8648
C28A C 0.4679(2) 0.6392(3) 0.5310(2)
H11A H 0.4453 0.5977 0.5531
C29A C 0.7336(2) 0.2595(3) 0.5936(2)
C30A C 0.6879(2) 0.0771(3) 0.9028(2)
H12A H 0.7291 0.0425 0.9407
C31_2 C 0.2054(2) -0.0499(3) 0.1769(2)
H13_2 H 0.1682 -0.0886 0.1346
C32A C 0.6304(2) 0.4462(3) 0.9056(2)
H14A H 0.6440 0.4053 0.9542
C33A C 0.8507(2) 0.4335(4) 0.6024(2)
H15A H 0.8370 0.3951 0.5529
C34A C 0.59081(19) 0.5697(3) 0.7621(2)
H16A H 0.5769 0.6116 0.7138
C35A C 0.5692(2) 0.0584(3) 0.8033(2)
H17A H 0.5310 0.0112 0.7725
C36_2 C 0.3143(2) -0.0501(3) 0.2959(2)
H18_2 H 0.3523 -0.0891 0.3369
C37A C 0.6057(2) 0.6291(3) 0.8337(3)
H19A H 0.6027 0.7112 0.8336
C38A C 0.8916(2) 0.5496(3) 0.7482(2)
H20A H 0.9060 0.5887 0.7976
C39A C 0.5645(2) 0.1802(3) 0.7946(2)
H21A H 0.5226 0.2146 0.7588
C40A C 0.8555(3) 0.5569(5) 0.6066(3)
H22A H 0.8445 0.6002 0.5596
C41A C 0.7910(3) 0.0615(4) 0.6121(3)
H23A H 0.7482 0.0266 0.5820
C42A C 0.9184(2) 0.1660(4) 0.6983(3)
H24A H 0.9615 0.2006 0.7275
C43A C 0.8761(3) 0.6145(4) 0.6788(3)
H25A H 0.8797 0.6965 0.6814
C44A C 0.9135(3) 0.0445(4) 0.6879(3)
H26A H 0.9527 -0.0019 0.7101
O10A O 0.6929(2) 0.2585(3) 0.5193(2)
C45A C 0.4924(2) 1.0225(3) 0.5574(3)
H27A H 0.4874 0.9836 0.5977
C46A C 0.4921(2) 1.1438(3) 0.5551(2)
H28A H 0.4861 1.1849 0.5938
C47A C 0.8499(3) -0.0072(4) 0.6444(3)
H29A H 0.8464 -0.0887 0.6365
N4_2 N 0.25902(15) 0.1346(3) 0.23747(17)
N4A N 0.74098(15) 0.1346(3) 0.76253(17)
C48_2 C 0.2066(2) 0.0727(3) 0.1806(2)
H30_2 H 0.1687 0.1140 0.1413
C49_2 C 0.31227(19) 0.0727(3) 0.2942(2)
H31_2 H 0.3496 0.1140 0.3344
N5_2 N 0.5000 0.2059(3) 0.5000
C50A C 0.0273(2) -0.4034(3) -0.0368(2)
H32A H 0.0467 -0.4451 -0.0628
N6_2 N 0.0000 0.5364(4) 0.0000
H33A H 0.606(2) 0.361(3) 0.4952(19)
H34A H 0.614(2) 0.356(3) 0.5645(16)
H35A H -0.1304(13) 0.331(4) -0.0482(16)
H36A H -0.105(3) 0.344(5) 0.028(2)
loop_
_geom_bond_atom_site_label_1
_geom_bond_atom_site_label_2
_geom_bond_site_symmetry_1
_geom_bond_site_symmetry_2
Co1 O1 1_555 1_555
Co2 O3 1_555 1_555
Co3 N1 1_555 1_555
N1 C21 1_555 1_555
O1 C26 1_555 1_555
O2 Co1 1_555 1_555
O3 C7 1_555 1_555
C1 C3 1_555 1_555
O4 Co1 1_555 1_555
O5 Co3 1_555 1_555
O6 Co1 1_555 1_555
N2 Co2 1_555 1_555
C2 C5 1_555 1_555
C3 C19 1_555 1_555
C4 C6 1_555 1_555
O7 Co2 1_555 1_555
C5 C31 1_555 1_555
N3 Co1 1_555 1_555
C6 C15 1_555 1_555
O8 Co3 1_555 1_555
C7 O6 1_555 1_555
C8 O4 1_555 1_555
C9 N3 1_555 1_555
H1 C9 1_555 1_555
C10 N3 1_555 1_555
H2 C10 1_555 1_555
C11 C12 1_555 1_555
C12 C7 1_555 1_555
C13 H3 1_555 1_555
O9 C26 1_555 1_555
C14 C2 1_555 1_555
H4 C14 1_555 1_555
C15 H5 1_555 1_555
C16 C2 1_555 1_555
H6 C16 1_555 1_555
C17 C25 1_555 1_555
C18 C20 1_555 1_555
C19 H7 1_555 1_555
C20 C23 1_555 1_555
C21 C19 1_555 1_555
H8 C21 1_555 1_555
C22 C1 1_555 1_555
H9 C22 1_555 1_555
C23 C29 1_555 1_555
C24 C8 1_555 1_555
C25 C11 1_555 1_555
C26 C17 1_555 1_555
C27 H10 1_555 1_555
C28 N2 1_555 1_555
H11 C28 1_555 1_555
C29 O2 1_555 1_555
C30 C17 1_555 1_555
H12 C30 1_555 1_555
C31 H13 1_555 1_555
C32 C11 1_555 1_555
H14 C32 1_555 1_555
C33 C18 1_555 1_555
H15 C33 1_555 1_555
C34 C12 1_555 1_555
H16 C34 1_555 1_555
C35 C27 1_555 1_555
H17 C35 1_555 1_555
C36 C5 1_555 1_555
H18 C36 1_555 1_555
C37 C13 1_555 1_555
H19 C37 1_555 1_555
C38 C24 1_555 1_555
H20 C38 1_555 1_555
C39 C25 1_555 1_555
H21 C39 1_555 1_555
C40 C33 1_555 1_555
H22 C40 1_555 1_555
C41 C23 1_555 1_555
H23 C41 1_555 1_555
C42 C20 1_555 1_555
H24 C42 1_555 1_555
C43 C38 1_555 1_555
H25 C43 1_555 1_555
C44 C42 1_555 1_555
H26 C44 1_555 1_555
O10 C29 1_555 1_555
C45 C4 1_555 1_555
H27 C45 1_555 1_555
C46 C45 1_555 1_555
H28 C46 1_555 1_555
C47 C41 1_555 1_555
H29 C47 1_555 1_555
N4 C48 1_555 1_555
C48 C31 1_555 1_555
H30 C48 1_555 1_555
C49 C36 1_555 1_555
H31 C49 1_555 1_555
N5 C46 1_555 1_555
C50 C22 1_555 1_555
H32 C50 1_555 1_555
N6 C50 1_555 1_555
H33 O7 1_555 1_555
H34 O7 1_555 1_555
H35 O8 1_555 1_555
H36 O8 1_555 1_555
Co1A O1A 1_555 1_555
Co1_2 N4 1_555 1_555
Co1_3 N3_2 1_555 1_555
Co2_2 N5 1_555 1_555
Co3_2 N6 1_555 1_555
Co3_3 O5A 1_555 1_555
O1A C26A 1_555 1_555
O2A Co1A 1_555 1_555
O3A Co2 1_555 1_555
O4A Co1A 1_555 1_555
O5A C8A 1_555 1_555
O5A_2 Co3 1_555 1_555
O6A Co1A 1_555 1_555
C2_2 C5_2 1_555 1_555
O7A Co2 1_555 1_555
C5_2 C31_2 1_555 1_555
N3_2 C9_2 1_555 1_555
N3A Co1A 1_555 1_555
O8A Co3 1_555 1_555
C7A O3A 1_555 1_555
C8A O4A 1_555 1_555
C9_2 H1_2 1_555 1_555
C10_2 N3_2 1_555 1_555
H2_2 C10_2 1_555 1_555
C11A C12A 1_555 1_555
C12A C7A 1_555 1_555
C13A H3A 1_555 1_555
O9A C26A 1_555 1_555
C14_2 C2_2 1_555 1_555
H4_2 C14_2 1_555 1_555
C15A C6 1_555 1_555
H5A C15A 1_555 1_555
C16_2 C2_2 1_555 1_555
H6_2 C16_2 1_555 1_555
C17A C25A 1_555 1_555
C18A C20A 1_555 1_555
C19A C3 1_555 1_555
H7A C19A 1_555 1_555
C20A C23A 1_555 1_555
C21A N1 1_555 1_555
H8A C21A 1_555 1_555
C22A C1 1_555 1_555
H9A C22A 1_555 1_555
C23A C29A 1_555 1_555
C24A C8A 1_555 1_555
C25A C11A 1_555 1_555
C26A C17A 1_555 1_555
C27A H10A 1_555 1_555
C28A N2 1_555 1_555
H11A C28A 1_555 1_555
C29A O2A 1_555 1_555
C30A C17A 1_555 1_555
H12A C30A 1_555 1_555
C31_2 H13_2 1_555 1_555
C32A C11A 1_555 1_555
H14A C32A 1_555 1_555
C33A C18A 1_555 1_555
H15A C33A 1_555 1_555
C34A C12A 1_555 1_555
H16A C34A 1_555 1_555
C35A C27A 1_555 1_555
H17A C35A 1_555 1_555
C36_2 C5_2 1_555 1_555
H18_2 C36_2 1_555 1_555
C37A C13A 1_555 1_555
H19A C37A 1_555 1_555
C38A C24A 1_555 1_555
H20A C38A 1_555 1_555
C39A C25A 1_555 1_555
H21A C39A 1_555 1_555
C40A C33A 1_555 1_555
H22A C40A 1_555 1_555
C41A C23A 1_555 1_555
H23A C41A 1_555 1_555
C42A C20A 1_555 1_555
H24A C42A 1_555 1_555
C43A C38A 1_555 1_555
H25A C43A 1_555 1_555
C44A C42A 1_555 1_555
H26A C44A 1_555 1_555
O10A C29A 1_555 1_555
C45A C4 1_555 1_555
H27A C45A 1_555 1_555
C46A N5 1_555 1_555
H28A C46A 1_555 1_555
C47A C41A 1_555 1_555
H29A C47A 1_555 1_555
N4_2 Co1 1_555 1_555
N4A Co1A 1_555 1_555
C48_2 C31_2 1_555 1_555
H30_2 C48_2 1_555 1_555
C49_2 C36_2 1_555 1_555
H31_2 C49_2 1_555 1_555
N5_2 Co2 1_555 1_555
C50A N6 1_555 1_555
H32A C50A 1_555 1_555
N6_2 Co3 1_555 1_555
H33A O7A 1_555 1_555
H34A O7A 1_555 1_555
H35A O8A 1_555 1_555
H36A O8A 1_555 1_555
O5 C8 1_555 1_555
C9 C14 1_555 1_555
C10 C16 1_555 1_555
C13 C32 1_555 1_555
C15 C28 1_555 1_555
C18 C24 1_555 1_555
C27 C30 1_555 1_555
C34 C37 1_555 1_555
C35 C39 1_555 1_555
C40 C43 1_555 1_555
C44 C47 1_555 1_555
N4 C49 1_555 1_555
O6A C7A 1_555 1_555
C9_2 C14_2 1_555 1_555
C10_2 C16_2 1_555 1_555
C13A C32A 1_555 1_555
C15A C28A 1_555 1_555
C18A C24A 1_555 1_555
C19A C21A 1_555 1_555
C22A C50A 1_555 1_555
C27A C30A 1_555 1_555
C34A C37A 1_555 1_555
C35A C39A 1_555 1_555
C40A C43A 1_555 1_555
C44A C47A 1_555 1_555
C45A C46A 1_555 1_555
N4_2 C48_2 1_555 1_555
N4_2 C49_2 1_555 1_555

#END
