
#######################################################################
#
#                 Cambridge Crystallographic Data Centre
#                                CCDC 
#
#######################################################################
#
# If this CIF has been generated from an entry in the Cambridge 
# Structural Database, then it will include bibliographic, chemical, 
# crystal, experimental, refinement or atomic coordinate data resulting 
# from the CCDC's data processing and validation procedures.
#
#######################################################################

data_QUGYUN
_symmetry_cell_setting           monoclinic
_symmetry_space_group_name_H-M   'C 2/c'
_symmetry_Int_Tables_number      15
_space_group_name_Hall           '-C 2yn'
loop_
_symmetry_equiv_pos_site_id
_symmetry_equiv_pos_as_xyz
1 x,y,z
2 -x,y,1/2-z
3 1/2+x,1/2+y,z
4 1/2-x,1/2+y,1/2-z
5 -x,-y,-z
6 x,-y,1/2+z
7 1/2-x,1/2-y,-z
8 1/2+x,1/2-y,1/2+z
_cell_length_a                   25.154(5)
_cell_length_b                   9.1504(8)
_cell_length_c                   24.096(5)
_cell_angle_alpha                90
_cell_angle_beta                 125.540(12)
_cell_angle_gamma                90
_cell_volume                     4512.96
loop_
_atom_site_label
_atom_site_type_symbol
_atom_site_fract_x
_atom_site_fract_y
_atom_site_fract_z
Cu1 Cu 0.16845(6) 0.18372(13) 0.92279(6)
Cu2 Cu 0.17026(6) -0.28104(13) 0.79607(6)
O1 O 0.2388(3) -0.1575(7) 0.8632(3)
N1 N 0.2312(4) -0.4070(9) 0.7916(4)
N2 N 0.0992(4) -0.4051(9) 0.7158(4)
N3 N 0.1031(4) -0.1318(10) 0.7729(5)
N4 N 0.1141(4) -0.0070(10) 0.7887(4)
N5 N 0.1209(4) 0.1190(11) 0.8018(4)
N6 N 0.2090(4) -0.0139(9) 0.9548(4)
H1 H 0.2105 -0.0573 0.9222
H2 H 0.2502 -0.0046 0.9923
N7 N 0.0905(4) 0.0906(10) 0.9189(4)
N8 N 0.1249(5) 0.3763(10) 0.9008(5)
N9 N 0.1448(5) 0.4809(10) 0.8896(4)
N10 N 0.1635(6) 0.5869(10) 0.8805(5)
N11 N 0.2495(4) 0.2629(11) 0.9366(5)
N12 N 0.2611(4) 0.2514(9) 0.8954(4)
N13 N 0.2764(5) 0.2410(12) 0.8595(5)
C1 C 0.3016(5) -0.1740(9) 0.8946(4)
C2 C 0.3436(5) -0.0765(11) 0.9475(5)
H3 H 0.3250 -0.0026 0.9574
C3 C 0.4096(5) -0.0836(12) 0.9848(5)
H4 H 0.4354 -0.0166 1.0195
C4 C 0.4386(5) -0.1945(14) 0.9700(6)
H5 H 0.4838 -0.2026 0.9952
C5 C 0.3998(5) -0.2886(12) 0.9186(5)
H6 H 0.4195 -0.3605 0.9091
C6 C 0.3309(5) -0.2841(10) 0.8786(4)
C7 C 0.2938(5) -0.3881(11) 0.8235(5)
C8 C 0.3280(6) -0.4760(14) 0.7999(6)
H7 H 0.2970 -0.5392 0.7632
H8 H 0.3619 -0.5338 0.8371
H9 H 0.3467 -0.4111 0.7844
C9 C 0.1968(5) -0.5191(12) 0.7379(5)
H10 H 0.2221 -0.6087 0.7525
H11 H 0.1910 -0.4855 0.6965
C10 C 0.1316(5) -0.5461(11) 0.7247(5)
H12 H 0.1048 -0.6051 0.6840
H13 H 0.1374 -0.5987 0.7628
C11 C 0.0803(6) -0.3346(14) 0.6520(6)
H14 H 0.0593 -0.2431 0.6471
H15 H 0.0507 -0.3970 0.6142
H16 H 0.1186 -0.3177 0.6531
C12 C 0.0404(6) -0.4285(15) 0.7145(7)
H17 H 0.0526 -0.4746 0.7562
H18 H 0.0102 -0.4900 0.6766
H19 H 0.0201 -0.3361 0.7099
C13 C 0.1716(6) -0.1050(12) 0.9705(7)
H20 H 0.1789 -0.2073 0.9664
H21 H 0.1860 -0.0871 1.0169
C14 C 0.1022(6) -0.0710(14) 0.9233(7)
H22 H 0.0784 -0.1188 0.9386
H23 H 0.0859 -0.1085 0.8784
C15 C 0.0265(6) 0.1227(19) 0.8554(7)
H24 H 0.0258 0.0891 0.8172
H25 H 0.0189 0.2262 0.8516
H26 H -0.0070 0.0739 0.8558
C16 C 0.0897(6) 0.1415(17) 0.9752(7)
H27 H 0.1311 0.1209 1.0173
H28 H 0.0556 0.0924 0.9745
H29 H 0.0819 0.2449 0.9710
Cu2_2 Cu 0.17026(6) 0.71896(13) 0.79607(6)
N10_2 N 0.1635(6) -0.4131(10) 0.8805(5)
loop_
_geom_bond_atom_site_label_1
_geom_bond_atom_site_label_2
_geom_bond_site_symmetry_1
_geom_bond_site_symmetry_2
Cu1 N5 1_555 1_555
Cu2 O1 1_555 1_555
O1 C1 1_555 1_555
N1 Cu2 1_555 1_555
N2 Cu2 1_555 1_555
N3 Cu2 1_555 1_555
N4 N3 1_555 1_555
N5 N4 1_555 1_555
N6 Cu1 1_555 1_555
H1 N6 1_555 1_555
H2 N6 1_555 1_555
N7 Cu1 1_555 1_555
N8 Cu1 1_555 1_555
N9 N8 1_555 1_555
N10 N9 1_555 1_555
N11 Cu1 1_555 1_555
N12 N11 1_555 1_555
N13 N12 1_555 1_555
C1 C2 1_555 1_555
C2 H3 1_555 1_555
C3 C2 1_555 1_555
H4 C3 1_555 1_555
C4 C3 1_555 1_555
H5 C4 1_555 1_555
C5 C4 1_555 1_555
H6 C5 1_555 1_555
C6 C1 1_555 1_555
C7 N1 1_555 1_555
C8 C7 1_555 1_555
H7 C8 1_555 1_555
H8 C8 1_555 1_555
H9 C8 1_555 1_555
C9 N1 1_555 1_555
H10 C9 1_555 1_555
H11 C9 1_555 1_555
C10 N2 1_555 1_555
H12 C10 1_555 1_555
H13 C10 1_555 1_555
C11 N2 1_555 1_555
H14 C11 1_555 1_555
H15 C11 1_555 1_555
H16 C11 1_555 1_555
C12 N2 1_555 1_555
H17 C12 1_555 1_555
H18 C12 1_555 1_555
H19 C12 1_555 1_555
C13 N6 1_555 1_555
H20 C13 1_555 1_555
H21 C13 1_555 1_555
C14 N7 1_555 1_555
H22 C14 1_555 1_555
H23 C14 1_555 1_555
C15 N7 1_555 1_555
H24 C15 1_555 1_555
H25 C15 1_555 1_555
H26 C15 1_555 1_555
C16 N7 1_555 1_555
H27 C16 1_555 1_555
H28 C16 1_555 1_555
H29 C16 1_555 1_555
Cu2_2 N10 1_555 1_555
N10_2 Cu2 1_555 1_555
C5 C6 1_555 1_555
C6 C7 1_555 1_555
C9 C10 1_555 1_555
C13 C14 1_555 1_555

#END
