
#######################################################################
#
#                 Cambridge Crystallographic Data Centre
#                                CCDC 
#
#######################################################################
#
# If this CIF has been generated from an entry in the Cambridge 
# Structural Database, then it will include bibliographic, chemical, 
# crystal, experimental, refinement or atomic coordinate data resulting 
# from the CCDC's data processing and validation procedures.
#
#######################################################################

data_QUHJEJ
_symmetry_cell_setting           monoclinic
_symmetry_space_group_name_H-M   'P 21/n'
_symmetry_Int_Tables_number      14
_space_group_name_Hall           '-P 2yn'
loop_
_symmetry_equiv_pos_site_id
_symmetry_equiv_pos_as_xyz
1 x,y,z
2 1/2-x,1/2+y,1/2-z
3 -x,-y,-z
4 1/2+x,1/2-y,1/2+z
_cell_length_a                   9.6756(5)
_cell_length_b                   17.4411(9)
_cell_length_c                   13.3238(7)
_cell_angle_alpha                90
_cell_angle_beta                 90.353(1)
_cell_angle_gamma                90
_cell_volume                     2248.39
loop_
_atom_site_label
_atom_site_type_symbol
_atom_site_fract_x
_atom_site_fract_y
_atom_site_fract_z
Cu1 Cu 0.86950(3) 0.105466(15) 0.26862(2)
N1 N 0.87551(18) 0.09338(9) 0.11821(12)
H1 H 0.9661 0.0853 0.1006
H2 H 0.8274 0.0496 0.1019
N2 N 1.48412(17) 0.51592(9) 0.22988(12)
N3 N 0.87056(19) 0.09397(9) 0.41815(13)
H3 H 0.8342 0.0465 0.4325
H4 H 0.9615 0.0931 0.4387
N4 N 0.66347(17) 0.14382(9) 0.26385(12)
C1 C 0.6160(2) 0.18849(12) 0.35384(16)
H5 H 0.5150 0.1963 0.3476
H6 H 0.6600 0.2397 0.3516
C2 C 0.6341(2) 0.19606(12) 0.17659(15)
H7 H 0.6858 0.2443 0.1876
H8 H 0.5345 0.2090 0.1775
C3 C 0.8212(2) 0.15632(12) 0.05477(15)
H9 H 0.8373 0.1443 -0.0168
H10 H 0.8705 0.2045 0.0710
C4 C 1.3527(2) 0.52438(11) 0.19889(14)
H11 H 1.3259 0.5718 0.1695
C5 C 0.7979(2) 0.15049(11) 0.48187(15)
H12 H 0.8394 0.2018 0.4721
H13 H 0.8095 0.1362 0.5533
C6 C 1.5211(2) 0.44748(11) 0.26798(15)
H14 H 1.6143 0.4402 0.2887
C7 C 0.6688(2) 0.16664(13) 0.07231(16)
H15 H 0.6218 0.1168 0.0618
H16 H 0.6318 0.2031 0.0219
C8 C 0.6453(2) 0.15365(12) 0.45599(16)
H17 H 0.5971 0.1841 0.5078
H18 H 0.6072 0.1010 0.4576
N5 N 1.00155(17) 0.21189(9) 0.26622(12)
C9 C 1.2924(2) 0.39704(11) 0.24901(14)
C10 C 1.4296(2) 0.38740(11) 0.27829(15)
H19 H 1.4600 0.3398 0.3052
C11 C 1.1244(2) 0.20420(11) 0.22134(15)
H20 H 1.1458 0.1562 0.1916
C12 C 1.1915(2) 0.33344(11) 0.25688(14)
C13 C 1.0632(2) 0.34258(11) 0.30196(15)
H21 H 1.0376 0.3906 0.3299
C14 C 1.2547(2) 0.46724(11) 0.20783(15)
H22 H 1.1624 0.4759 0.1860
C15 C 1.2215(2) 0.26177(11) 0.21578(15)
H23 H 1.3078 0.2528 0.1843
C16 C 0.9735(2) 0.28113(11) 0.30556(15)
H24 H 0.8871 0.2881 0.3377
C17 C 0.5778(2) 0.07353(12) 0.25526(17)
H25 H 0.4799 0.0878 0.2520
H26 H 0.5940 0.0408 0.3139
H27 H 0.6029 0.0456 0.1942
Cu1A Cu 1.63050(3) 0.605466(15) 0.23138(2)
N2A N 1.01588(17) 0.01592(9) 0.27012(12)
Cl1 Cl 0.26768(5) 0.11242(3) 0.53582(4)
O1 O 0.28532(18) 0.16332(9) 0.45268(13)
O2 O 0.12274(19) 0.09898(13) 0.55046(14)
O3 O 0.32697(19) 0.14431(10) 0.62482(13)
O4 O 0.3321(2) 0.04014(9) 0.51410(14)
Cl2 Cl 0.24853(5) 0.09281(3) 0.00218(4)
O5 O 0.34974(19) 0.12779(14) 0.06393(17)
O6 O 0.1706(2) 0.03774(10) 0.05727(14)
O7 O 0.31196(17) 0.05517(9) -0.08216(12)
O8 O 0.1537(2) 0.15016(10) -0.03281(14)
loop_
_geom_bond_atom_site_label_1
_geom_bond_atom_site_label_2
_geom_bond_site_symmetry_1
_geom_bond_site_symmetry_2
Cu1 N1 1_555 1_555
Cl1 O1 1_555 1_555
Cl2 O5 1_555 1_555
N1 H1 1_555 1_555
H2 N1 1_555 1_555
N2 C4 1_555 1_555
N3 Cu1 1_555 1_555
H3 N3 1_555 1_555
H4 N3 1_555 1_555
N4 Cu1 1_555 1_555
C1 N4 1_555 1_555
H5 C1 1_555 1_555
H6 C1 1_555 1_555
C2 N4 1_555 1_555
H7 C2 1_555 1_555
H8 C2 1_555 1_555
C3 N1 1_555 1_555
H9 C3 1_555 1_555
H10 C3 1_555 1_555
C4 H11 1_555 1_555
C5 N3 1_555 1_555
H12 C5 1_555 1_555
H13 C5 1_555 1_555
C6 N2 1_555 1_555
H14 C6 1_555 1_555
C7 C2 1_555 1_555
H15 C7 1_555 1_555
H16 C7 1_555 1_555
C8 C1 1_555 1_555
H17 C8 1_555 1_555
H18 C8 1_555 1_555
O2 Cl1 1_555 1_555
O3 Cl1 1_555 1_555
O4 Cl1 1_555 1_555
O6 Cl2 1_555 1_555
O7 Cl2 1_555 1_555
O8 Cl2 1_555 1_555
N5 Cu1 1_555 1_555
C9 C10 1_555 1_555
C10 C6 1_555 1_555
H19 C10 1_555 1_555
C11 N5 1_555 1_555
H20 C11 1_555 1_555
C12 C9 1_555 1_555
C13 C12 1_555 1_555
H21 C13 1_555 1_555
C14 C4 1_555 1_555
H22 C14 1_555 1_555
C15 C11 1_555 1_555
H23 C15 1_555 1_555
C16 N5 1_555 1_555
H24 C16 1_555 1_555
C17 N4 1_555 1_555
H25 C17 1_555 1_555
H26 C17 1_555 1_555
H27 C17 1_555 1_555
Cu1A N2 1_555 1_555
N2A Cu1 1_555 1_555
C3 C7 1_555 1_555
C5 C8 1_555 1_555
C9 C14 1_555 1_555
C12 C15 1_555 1_555
C13 C16 1_555 1_555

#END
