
#######################################################################
#
#                 Cambridge Crystallographic Data Centre
#                                CCDC 
#
#######################################################################
#
# If this CIF has been generated from an entry in the Cambridge 
# Structural Database, then it will include bibliographic, chemical, 
# crystal, experimental, refinement or atomic coordinate data resulting 
# from the CCDC's data processing and validation procedures.
#
#######################################################################

data_QUHLUB
_symmetry_cell_setting           monoclinic
_symmetry_space_group_name_H-M   'P 21/n'
_symmetry_Int_Tables_number      14
_space_group_name_Hall           '-P 2yn'
loop_
_symmetry_equiv_pos_site_id
_symmetry_equiv_pos_as_xyz
1 x,y,z
2 1/2-x,1/2+y,1/2-z
3 -x,-y,-z
4 1/2+x,1/2-y,1/2+z
_cell_length_a                   11.090(2)
_cell_length_b                   21.270(4)
_cell_length_c                   12.780(3)
_cell_angle_alpha                90
_cell_angle_beta                 98.35(3)
_cell_angle_gamma                90
_cell_volume                     2982.64
loop_
_atom_site_label
_atom_site_type_symbol
_atom_site_fract_x
_atom_site_fract_y
_atom_site_fract_z
Cl1 Cl 0.5438(4) 0.1754(3) 0.4917(3)
Cl2 Cl 0.4399(4) 0.0623(2) 0.3928(4)
C28 C 0.5705(10) 0.1052(8) 0.4305(12)
H25 H 0.6088 0.1141 0.3685
H26 H 0.6269 0.0801 0.4785
F1 F 0.8537(4) 0.07689(19) 1.1552(3)
B1 B 0.8356(8) 0.1199(4) 1.2331(7)
Cu1 Cu 0.81361(5) -0.00035(3) 0.99559(5)
P1 P 0.85134(10) 0.08202(6) 0.89824(9)
P2 P 1.13030(10) 0.09761(6) 0.95494(9)
C1 C 0.9785(4) 0.1316(2) 0.9546(4)
H1 H 0.9686 0.1416 1.0269
H2 H 0.9743 0.1707 0.9153
C2 C 0.7237(4) 0.1367(2) 0.8799(4)
C3 C 0.7170(4) 0.1895(2) 0.9399(4)
H3 H 0.7800 0.1988 0.9940
C4 C 0.6176(5) 0.2291(3) 0.9208(5)
H4 H 0.6146 0.2648 0.9623
C5 C 0.5239(5) 0.2166(3) 0.8423(5)
H5 H 0.4588 0.2444 0.8283
C6 C 0.5269(5) 0.1634(3) 0.7852(5)
H6 H 0.4620 0.1536 0.7332
C7 C 0.6258(5) 0.1235(3) 0.8035(5)
H7 H 0.6265 0.0870 0.7635
C8 C 0.8722(4) 0.0675(2) 0.7631(3)
C9 C 0.8756(5) 0.1158(3) 0.6922(4)
H8 H 0.8720 0.1572 0.7153
C10 C 0.8840(5) 0.1041(3) 0.5888(4)
H9 H 0.8856 0.1375 0.5419
C11 C 0.8900(6) 0.0451(4) 0.5543(5)
H10 H 0.8958 0.0376 0.4835
C12 C 0.8878(6) -0.0046(4) 0.6226(5)
H11 H 0.8919 -0.0456 0.5982
C13 C 0.8792(5) 0.0068(3) 0.7288(4)
H12 H 0.8783 -0.0265 0.7758
C14 C 1.1922(5) 0.1595(3) 1.1474(4)
H13 H 1.1153 0.1479 1.1614
C15 C 1.2703(6) 0.1888(3) 1.2235(5)
H14 H 1.2461 0.1979 1.2886
C16 C 1.3843(6) 0.2051(3) 1.2049(5)
H15 H 1.4378 0.2245 1.2578
C17 C 1.4194(5) 0.1933(3) 1.1117(5)
H16 H 1.4970 0.2048 1.0993
C18 C 1.3403(5) 0.1641(3) 1.0335(5)
H17 H 1.3656 0.1561 0.9685
C19 C 1.2251(4) 0.1466(2) 1.0493(4)
C20 C 1.1696(4) 0.1191(2) 0.8273(3)
C21 C 1.1766(4) 0.1809(2) 0.7948(4)
H18 H 1.1618 0.2133 0.8402
C22 C 1.2050(5) 0.1951(3) 0.6975(4)
H19 H 1.2097 0.2368 0.6767
C23 C 1.2264(5) 0.1476(3) 0.6307(4)
H20 H 1.2452 0.1572 0.5639
C24 C 1.2206(5) 0.0861(3) 0.6610(4)
H21 H 1.2361 0.0542 0.6151
C25 C 1.1918(4) 0.0714(2) 0.7592(4)
H22 H 1.1873 0.0296 0.7797
C26 C 0.5502(5) -0.0230(3) 0.9228(4)
H23 H 0.5824 -0.0402 0.8659
C27 C 0.4249(4) -0.0240(2) 0.9199(4)
H24 H 0.3760 -0.0413 0.8616
F2 F 0.758(3) 0.1605(9) 1.2080(19)
F3 F 0.7806(11) 0.0747(5) 1.2992(7)
N1 N 0.6262(3) 0.00073(19) 1.0014(3)
F4 F 0.9436(15) 0.1305(8) 1.2940(14)
F1B F 1.1463(4) -0.07689(19) 0.8448(3)
B1B B 1.1644(8) -0.1199(4) 0.7669(7)
Cu1B Cu 1.18639(5) 0.00035(3) 1.00441(5)
Cu1B_2 Cu 0.18639(5) 0.00035(3) 1.00441(5)
P1B P 1.14866(10) -0.08202(6) 1.10176(9)
P2B P 0.86970(10) -0.09761(6) 1.04506(9)
C1B C 1.0215(4) -0.1316(2) 1.0454(4)
H1B H 1.0314 -0.1416 0.9731
H2B H 1.0257 -0.1707 1.0847
C2B C 1.2763(4) -0.1367(2) 1.1201(4)
C3B C 1.2830(4) -0.1895(2) 1.0601(4)
H3B H 1.2200 -0.1988 1.0060
C4B C 1.3824(5) -0.2291(3) 1.0792(5)
H4B H 1.3854 -0.2648 1.0377
C5B C 1.4761(5) -0.2166(3) 1.1577(5)
H5B H 1.5412 -0.2444 1.1717
C6B C 1.4731(5) -0.1634(3) 1.2148(5)
H6B H 1.5380 -0.1536 1.2668
C7B C 1.3742(5) -0.1235(3) 1.1965(5)
H7B H 1.3735 -0.0870 1.2365
C8B C 1.1278(4) -0.0675(2) 1.2369(3)
C9B C 1.1244(5) -0.1158(3) 1.3078(4)
H8B H 1.1280 -0.1572 1.2847
C10B C 1.1160(5) -0.1041(3) 1.4112(4)
H9B H 1.1144 -0.1375 1.4581
C11B C 1.1100(6) -0.0451(4) 1.4457(5)
H10B H 1.1042 -0.0376 1.5165
C12B C 1.1122(6) 0.0046(4) 1.3774(5)
H11B H 1.1081 0.0456 1.4018
C13B C 1.1208(5) -0.0068(3) 1.2712(4)
H12B H 1.1217 0.0265 1.2242
C14B C 0.8078(5) -0.1595(3) 0.8526(4)
H13B H 0.8847 -0.1479 0.8386
C15B C 0.7297(6) -0.1888(3) 0.7765(5)
H14B H 0.7539 -0.1979 0.7114
C16B C 0.6157(6) -0.2051(3) 0.7951(5)
H15B H 0.5622 -0.2245 0.7422
C17B C 0.5806(5) -0.1933(3) 0.8883(5)
H16B H 0.5030 -0.2048 0.9007
C18B C 0.6597(5) -0.1641(3) 0.9665(5)
H17B H 0.6344 -0.1561 1.0315
C19B C 0.7749(4) -0.1466(2) 0.9507(4)
C20B C 0.8304(4) -0.1191(2) 1.1727(3)
C21B C 0.8234(4) -0.1809(2) 1.2052(4)
H18B H 0.8382 -0.2133 1.1598
C22B C 0.7950(5) -0.1951(3) 1.3025(4)
H19B H 0.7903 -0.2368 1.3233
C23B C 0.7736(5) -0.1476(3) 1.3693(4)
H20B H 0.7548 -0.1572 1.4361
C24B C 0.7794(5) -0.0861(3) 1.3390(4)
H21B H 0.7639 -0.0542 1.3849
C25B C 0.8082(4) -0.0714(2) 1.2408(4)
H22B H 0.8127 -0.0296 1.2203
C26B C 0.4498(5) 0.0230(3) 1.0772(4)
H23B H 0.4176 0.0402 1.1341
C27B C 0.5751(4) 0.0240(2) 1.0801(4)
H24B H 0.6240 0.0413 1.1384
F2B F 1.242(3) -0.1605(9) 0.7920(19)
F3B F 1.2194(11) -0.0747(5) 0.7008(7)
N1B N 0.3738(3) -0.00073(19) 0.9986(3)
N1B_2 N 1.3738(3) -0.00073(19) 0.9986(3)
F4B F 1.0564(15) -0.1305(8) 0.7060(14)
B2? B 0.8356(8) 0.1199(4) 1.2331(7)
F5? F 0.8537(4) 0.07689(19) 1.1552(3)
F6? F 0.889(2) 0.1145(12) 1.3234(12)
F7? F 0.8872(10) 0.1742(4) 1.1855(7)
F8? F 0.7173(12) 0.1371(8) 1.2213(14)
loop_
_geom_bond_atom_site_label_1
_geom_bond_atom_site_label_2
_geom_bond_site_symmetry_1
_geom_bond_site_symmetry_2
Cl1 C28 1_555 1_555
Cl2 C28 1_555 1_555
F1 B1 1_555 1_555
B1 F2 1_555 1_555
Cu1 F1 1_555 1_555
P1 Cu1 1_555 1_555
P2 C1 1_555 1_555
C1 P1 1_555 1_555
H1 C1 1_555 1_555
H2 C1 1_555 1_555
C2 P1 1_555 1_555
C3 C2 1_555 1_555
H3 C3 1_555 1_555
C4 C3 1_555 1_555
H4 C4 1_555 1_555
C5 C4 1_555 1_555
H5 C5 1_555 1_555
C6 C5 1_555 1_555
H6 C6 1_555 1_555
C7 C2 1_555 1_555
H7 C7 1_555 1_555
C8 P1 1_555 1_555
C9 C8 1_555 1_555
H8 C9 1_555 1_555
C10 C9 1_555 1_555
H9 C10 1_555 1_555
C11 C10 1_555 1_555
H10 C11 1_555 1_555
C12 C11 1_555 1_555
H11 C12 1_555 1_555
C13 C8 1_555 1_555
H12 C13 1_555 1_555
C14 H13 1_555 1_555
C15 C14 1_555 1_555
H14 C15 1_555 1_555
C16 C15 1_555 1_555
H15 C16 1_555 1_555
C17 C16 1_555 1_555
H16 C17 1_555 1_555
C18 C17 1_555 1_555
H17 C18 1_555 1_555
C19 P2 1_555 1_555
C20 P2 1_555 1_555
C21 C20 1_555 1_555
H18 C21 1_555 1_555
C22 C21 1_555 1_555
H19 C22 1_555 1_555
C23 C22 1_555 1_555
H20 C23 1_555 1_555
C24 C23 1_555 1_555
H21 C24 1_555 1_555
C25 C20 1_555 1_555
H22 C25 1_555 1_555
C26 H23 1_555 1_555
C27 C26 1_555 1_555
H24 C27 1_555 1_555
F3 B1 1_555 1_555
N1 Cu1 1_555 1_555
C28 H25 1_555 1_555
H26 C28 1_555 1_555
F4 B1 1_555 1_555
F1B B1B 1_555 1_555
B1B F2B 1_555 1_555
Cu1B P2 1_555 1_555
Cu1B_2 N1B 1_555 1_555
P1B Cu1B 1_555 1_555
P2B Cu1 1_555 1_555
C1B P1B 1_555 1_555
H1B C1B 1_555 1_555
H2B C1B 1_555 1_555
C2B P1B 1_555 1_555
C3B C2B 1_555 1_555
H3B C3B 1_555 1_555
C4B C3B 1_555 1_555
H4B C4B 1_555 1_555
C5B C4B 1_555 1_555
H5B C5B 1_555 1_555
C6B C5B 1_555 1_555
H6B C6B 1_555 1_555
C7B C2B 1_555 1_555
H7B C7B 1_555 1_555
C8B P1B 1_555 1_555
C9B C8B 1_555 1_555
H8B C9B 1_555 1_555
C10B C9B 1_555 1_555
H9B C10B 1_555 1_555
C11B C10B 1_555 1_555
H10B C11B 1_555 1_555
C12B C11B 1_555 1_555
H11B C12B 1_555 1_555
C13B C8B 1_555 1_555
H12B C13B 1_555 1_555
C14B H13B 1_555 1_555
C15B C14B 1_555 1_555
H14B C15B 1_555 1_555
C16B C15B 1_555 1_555
H15B C16B 1_555 1_555
C17B C16B 1_555 1_555
H16B C17B 1_555 1_555
C18B C17B 1_555 1_555
H17B C18B 1_555 1_555
C19B P2B 1_555 1_555
C20B P2B 1_555 1_555
C21B C20B 1_555 1_555
H18B C21B 1_555 1_555
C22B C21B 1_555 1_555
H19B C22B 1_555 1_555
C23B C22B 1_555 1_555
H20B C23B 1_555 1_555
C24B C23B 1_555 1_555
H21B C24B 1_555 1_555
C25B C20B 1_555 1_555
H22B C25B 1_555 1_555
C26B H23B 1_555 1_555
C27B N1 1_555 1_555
H24B C27B 1_555 1_555
F3B B1B 1_555 1_555
N1B C27 1_555 1_555
N1B_2 Cu1B 1_555 1_555
F4B B1B 1_555 1_555
C6 C7 1_555 1_555
C12 C13 1_555 1_555
C14 C19 1_555 1_555
C18 C19 1_555 1_555
C24 C25 1_555 1_555
C26 N1 1_555 1_555
F1B Cu1B 1_555 1_555
P2B C1B 1_555 1_555
C6B C7B 1_555 1_555
C12B C13B 1_555 1_555
C14B C19B 1_555 1_555
C18B C19B 1_555 1_555
C24B C25B 1_555 1_555
C26B C27B 1_555 1_555
C26B N1B 1_555 1_555

#END
