
#######################################################################
#
#                 Cambridge Crystallographic Data Centre
#                                CCDC 
#
#######################################################################
#
# If this CIF has been generated from an entry in the Cambridge 
# Structural Database, then it will include bibliographic, chemical, 
# crystal, experimental, refinement or atomic coordinate data resulting 
# from the CCDC's data processing and validation procedures.
#
#######################################################################

data_QUHQEQ
_symmetry_cell_setting           triclinic
_symmetry_space_group_name_H-M   'P -1'
_symmetry_Int_Tables_number      2
_space_group_name_Hall           '-P 1'
loop_
_symmetry_equiv_pos_site_id
_symmetry_equiv_pos_as_xyz
1 x,y,z
2 -x,-y,-z
_cell_length_a                   10.4067(11)
_cell_length_b                   11.1972(11)
_cell_length_c                   13.3466(14)
_cell_angle_alpha                109.891(2)
_cell_angle_beta                 101.517(2)
_cell_angle_gamma                107.745(2)
_cell_volume                     1310.53
loop_
_atom_site_label
_atom_site_type_symbol
_atom_site_fract_x
_atom_site_fract_y
_atom_site_fract_z
C1 C 0.5728(5) 1.2519(5) 0.6393(4)
C2 C 0.6196(5) 1.3741(5) 0.7515(4)
C3 C 0.6189(5) 1.4565(5) 0.9418(4)
H1 H 0.5924 1.4396 1.0014
C4 C 0.6994(6) 1.5903(5) 0.9581(4)
H2 H 0.7275 1.6649 1.0303
N1 N 0.7388(4) 1.6184(4) 0.8764(3)
C5 C 0.7007(5) 1.5120(5) 0.7755(4)
C6 C 0.7624(5) 1.5548(4) 0.6941(4)
C7 C 0.9453(5) 1.5729(5) 0.6205(4)
H3 H 1.0243 1.5508 0.6101
C8 C 0.9089(5) 1.6541(5) 0.5719(4)
H4 H 0.9618 1.6868 0.5294
C9 C 0.7945(5) 1.6868(5) 0.5862(4)
H5 H 0.7676 1.7433 0.5543
C10 C 0.7189(5) 1.6354(5) 0.6482(4)
C11 C 0.5916(5) 1.6704(5) 0.6632(4)
C12 C 0.7711(5) 1.0604(5) 0.5431(4)
C13 C 0.9334(5) 1.1271(5) 0.5883(4)
C14 C 0.9936(5) 1.2598(5) 0.6762(4)
H6 H 0.9340 1.3006 0.7062
C15 C 1.1414(5) 1.3322(5) 0.7199(4)
H7 H 1.1846 1.4232 0.7799
C16 C 1.2247(6) 1.2685(6) 0.6740(5)
H8 H 1.3259 1.3182 0.7025
C17 C 1.0267(5) 1.0710(5) 0.5477(4)
C18 C 0.8174(6) 1.0987(6) 0.8435(5)
H9 H 0.8502 1.0625 0.7832
C19 C 0.9183(6) 1.1859(7) 0.9516(5)
H10 H 1.0173 1.2067 0.9638
C20 C 0.8746(6) 1.2409(6) 1.0394(5)
H11 H 0.9426 1.3042 1.1124
C21 C 0.7285(6) 1.2028(5) 1.0203(4)
C22 C 0.6335(5) 1.1149(5) 0.9098(4)
C23 C 0.6707(7) 1.2504(5) 1.1077(5)
H12 H 0.7347 1.3104 1.1828
C24 C 0.5297(6) 1.2132(5) 1.0871(4)
H13 H 0.4958 1.2468 1.1474
C25 C 0.4281(7) 1.1222(5) 0.9738(4)
C26 C 0.4808(5) 1.0735(5) 0.8855(4)
C27 C 0.2807(7) 1.0806(6) 0.9461(5)
H14 H 0.2411 1.1099 1.0035
C28 C 0.1921(6) 0.9972(6) 0.8359(5)
H15 H 0.0912 0.9686 0.8161
C29 C 0.2533(5) 0.9552(5) 0.7535(4)
H16 H 0.1915 0.8972 0.6775
C30 C 0.5786(5) 1.3491(5) 0.8368(4)
H17 H 0.5220 1.2570 0.8231
N2 N 0.8754(4) 1.5233(4) 0.6817(3)
N3 N 1.1672(4) 1.1395(4) 0.5909(4)
N4 N 0.6780(4) 1.0644(4) 0.8214(3)
N5 N 0.3939(4) 0.9923(4) 0.7760(3)
O1 O 0.5424(3) 1.1349(3) 0.6411(3)
O2 O 0.5640(3) 1.2711(3) 0.5514(3)
O3 O 0.4848(4) 1.5830(3) 0.6620(3)
O4 O 0.6097(3) 1.7933(3) 0.6766(3)
O5 O 0.7149(3) 1.1005(3) 0.4761(3)
O6 O 0.7097(3) 0.9871(3) 0.5861(3)
O7 O 0.3096(4) 0.7070(3) 0.6095(3)
Tm1 Tm 0.50019(2) 0.915700(19) 0.622374(16)
H18 H 0.341(5) 0.649(3) 0.622(3)
H19 H 0.257(4) 0.670(4) 0.5397(14)
C1A C 0.4272(5) 0.7481(5) 0.3607(4)
C2A C 0.3804(5) 0.6259(5) 0.2485(4)
C3A C 0.3811(5) 0.5435(5) 0.0582(4)
H1A H 0.4076 0.5604 -0.0014
C4A C 0.3006(6) 0.4097(5) 0.0419(4)
H2A H 0.2725 0.3351 -0.0303
N1A N 0.2612(4) 0.3816(4) 0.1236(3)
C5A C 0.2993(5) 0.4880(5) 0.2245(4)
C6A C 0.2376(5) 0.4452(4) 0.3059(4)
C7A C 0.0547(5) 0.4271(5) 0.3795(4)
H3A H -0.0243 0.4492 0.3899
C8A C 0.0911(5) 0.3459(5) 0.4281(4)
H4A H 0.0382 0.3132 0.4706
C9A C 0.2055(5) 0.3132(5) 0.4138(4)
H5A H 0.2324 0.2567 0.4457
C10A C 0.2811(5) 0.3646(5) 0.3518(4)
C11A C 0.4084(5) 0.3296(5) 0.3368(4)
C12A C 1.2289(5) 0.9396(5) 0.4569(4)
C13A C 1.0666(5) 0.8729(5) 0.4117(4)
C14A C 1.0064(5) 0.7402(5) 0.3238(4)
H6A H 1.0660 0.6994 0.2938
C15A C 0.8586(5) 0.6678(5) 0.2801(4)
H7A H 0.8154 0.5768 0.2201
C16A C 0.7753(6) 0.7315(6) 0.3260(5)
H8A H 0.6741 0.6818 0.2975
C17A C 0.9733(5) 0.9290(5) 0.4523(4)
C18A C 0.1826(6) 0.9013(6) 0.1565(5)
H9A H 0.1498 0.9375 0.2168
C19A C 0.0817(6) 0.8141(7) 0.0484(5)
H10A H -0.0173 0.7933 0.0362
C20A C 0.1254(6) 0.7591(6) -0.0394(5)
H11A H 0.0574 0.6958 -0.1124
C21A C 0.2715(6) 0.7972(5) -0.0203(4)
C22A C 0.3665(5) 0.8851(5) 0.0902(4)
C23A C 0.3293(7) 0.7496(5) -0.1077(5)
H12A H 0.2653 0.6896 -0.1828
C24A C 0.4703(6) 0.7868(5) -0.0871(4)
H13A H 0.5042 0.7532 -0.1474
C25A C 0.5719(7) 0.8778(5) 0.0262(4)
C26A C 0.5192(5) 0.9265(5) 0.1145(4)
C27A C 0.7193(7) 0.9194(6) 0.0539(5)
H14A H 0.7589 0.8901 -0.0035
C28A C 0.8079(6) 1.0028(6) 0.1641(5)
H15A H 0.9088 1.0314 0.1839
C29A C 0.7467(5) 1.0448(5) 0.2465(4)
H16A H 0.8085 1.1028 0.3225
C30A C 0.4214(5) 0.6509(5) 0.1632(4)
H17A H 0.4780 0.7430 0.1769
N2A N 0.1246(4) 0.4767(4) 0.3183(3)
N3A N 0.8328(4) 0.8605(4) 0.4091(4)
N4A N 0.3220(4) 0.9356(4) 0.1786(3)
N5A N 0.6061(4) 1.0077(4) 0.2240(3)
O1A O 0.4576(3) 0.8651(3) 0.3589(3)
O2A O 0.4360(3) 0.7289(3) 0.4486(3)
O3A O 0.5152(4) 0.4170(3) 0.3380(3)
O4_2 O 0.6097(3) 0.7933(3) 0.6766(3)
O4A O 0.3903(3) 1.2067(3) 0.3234(3)
O4A_2 O 0.3903(3) 0.2067(3) 0.3234(3)
O5A O 1.2851(3) 0.8995(3) 0.5239(3)
O5A_2 O 0.2851(3) 0.8995(3) 0.5239(3)
O6A O 1.2903(3) 1.0129(3) 0.4139(3)
O6A_2 O 0.2903(3) 1.0129(3) 0.4139(3)
O7A O 0.6904(4) 1.2930(3) 0.3905(3)
Tm1A Tm 0.49981(2) 1.084300(19) 0.377626(16)
Tm1_2 Tm 0.50019(2) 1.915700(19) 0.622374(16)
Tm1_3 Tm 1.50019(2) 0.915700(19) 0.622374(16)
Tm1A_2 Tm 1.49981(2) 1.084300(19) 0.377626(16)
Tm1A_3 Tm 0.49981(2) 0.084300(19) 0.377626(16)
H18A H 0.659(5) 1.351(3) 0.378(3)
H19A H 0.743(4) 1.330(4) 0.4603(14)
loop_
_geom_bond_atom_site_label_1
_geom_bond_atom_site_label_2
_geom_bond_site_symmetry_1
_geom_bond_site_symmetry_2
C1 C2 1_555 1_555
C2 C5 1_555 1_555
C3 H1 1_555 1_555
C4 C3 1_555 1_555
H2 C4 1_555 1_555
N1 C4 1_555 1_555
C5 N1 1_555 1_555
C6 C5 1_555 1_555
C7 H3 1_555 1_555
C8 C7 1_555 1_555
H4 C8 1_555 1_555
C9 C8 1_555 1_555
H5 C9 1_555 1_555
C10 C6 1_555 1_555
C11 C10 1_555 1_555
C12 C13 1_555 1_555
C13 C14 1_555 1_555
C14 H6 1_555 1_555
C15 C14 1_555 1_555
H7 C15 1_555 1_555
C16 C15 1_555 1_555
H8 C16 1_555 1_555
C17 C13 1_555 1_555
C18 H9 1_555 1_555
C19 C18 1_555 1_555
H10 C19 1_555 1_555
C20 C19 1_555 1_555
H11 C20 1_555 1_555
C21 C20 1_555 1_555
C22 C21 1_555 1_555
C23 C21 1_555 1_555
H12 C23 1_555 1_555
C24 C23 1_555 1_555
H13 C24 1_555 1_555
C25 C24 1_555 1_555
C26 C22 1_555 1_555
C27 C25 1_555 1_555
H14 C27 1_555 1_555
C28 C27 1_555 1_555
H15 C28 1_555 1_555
C29 C28 1_555 1_555
H16 C29 1_555 1_555
C30 C2 1_555 1_555
H17 C30 1_555 1_555
N2 C6 1_555 1_555
N3 C16 1_555 1_555
N4 C18 1_555 1_555
N5 C26 1_555 1_555
O1 C1 1_555 1_555
O2 C1 1_555 1_555
O3 C11 1_555 1_555
O4 C11 1_555 1_555
O5 C12 1_555 1_555
O6 C12 1_555 1_555
O7 Tm1 1_555 1_555
Tm1 N4 1_555 1_555
H18 O7 1_555 1_555
H19 O7 1_555 1_555
C1A C2A 1_555 1_555
C2A C5A 1_555 1_555
C3A H1A 1_555 1_555
C4A C3A 1_555 1_555
H2A C4A 1_555 1_555
N1A C4A 1_555 1_555
C5A N1A 1_555 1_555
C6A C5A 1_555 1_555
C7A H3A 1_555 1_555
C8A C7A 1_555 1_555
H4A C8A 1_555 1_555
C9A C8A 1_555 1_555
H5A C9A 1_555 1_555
C10A C6A 1_555 1_555
C11A C10A 1_555 1_555
C12A C13A 1_555 1_555
C13A C14A 1_555 1_555
C14A H6A 1_555 1_555
C15A C14A 1_555 1_555
H7A C15A 1_555 1_555
C16A C15A 1_555 1_555
H8A C16A 1_555 1_555
C17A C17 1_555 1_555
C18A H9A 1_555 1_555
C19A C18A 1_555 1_555
H10A C19A 1_555 1_555
C20A C19A 1_555 1_555
H11A C20A 1_555 1_555
C21A C20A 1_555 1_555
C22A C21A 1_555 1_555
C23A C21A 1_555 1_555
H12A C23A 1_555 1_555
C24A C23A 1_555 1_555
H13A C24A 1_555 1_555
C25A C24A 1_555 1_555
C26A C22A 1_555 1_555
C27A C25A 1_555 1_555
H14A C27A 1_555 1_555
C28A C27A 1_555 1_555
H15A C28A 1_555 1_555
C29A C28A 1_555 1_555
H16A C29A 1_555 1_555
C30A C2A 1_555 1_555
H17A C30A 1_555 1_555
N2A C6A 1_555 1_555
N3A C16A 1_555 1_555
N4A C18A 1_555 1_555
N5A C26A 1_555 1_555
O1A C1A 1_555 1_555
O2A Tm1 1_555 1_555
O3A C11A 1_555 1_555
O4_2 Tm1 1_555 1_555
O4A Tm1A 1_555 1_555
O4A_2 C11A 1_555 1_555
O5A C12A 1_555 1_555
O5A_2 Tm1 1_555 1_555
O6A C12A 1_555 1_555
O6A_2 Tm1A 1_555 1_555
O7A Tm1A 1_555 1_555
Tm1A O2 1_555 1_555
Tm1_2 O4 1_555 1_555
Tm1_3 O5A 1_555 1_555
Tm1A_2 O6A 1_555 1_555
Tm1A_3 O4A_2 1_555 1_555
H18A O7A 1_555 1_555
H19A O7A 1_555 1_555
C3 C30 1_555 1_555
C7 N2 1_555 1_555
C9 C10 1_555 1_555
C17 N3 1_555 1_555
C22 N4 1_555 1_555
C25 C26 1_555 1_555
C29 N5 1_555 1_555
N5 Tm1 1_555 1_555
O1 Tm1 1_555 1_555
O5 Tm1A 1_555 1_555
O6 Tm1 1_555 1_555
C1A O2A 1_555 1_555
C3A C30A 1_555 1_555
C7A N2A 1_555 1_555
C9A C10A 1_555 1_555
C13A C17A 1_555 1_555
C17A N3A 1_555 1_555
C22A N4A 1_555 1_555
C25A C26A 1_555 1_555
C29A N5A 1_555 1_555
N4A Tm1A 1_555 1_555
N5A Tm1A 1_555 1_555
O1A Tm1A 1_555 1_555

#END
