
#######################################################################
#
#                 Cambridge Crystallographic Data Centre
#                                CCDC 
#
#######################################################################
#
# If this CIF has been generated from an entry in the Cambridge 
# Structural Database, then it will include bibliographic, chemical, 
# crystal, experimental, refinement or atomic coordinate data resulting 
# from the CCDC's data processing and validation procedures.
#
#######################################################################

data_QUHQOA
_symmetry_cell_setting           triclinic
_symmetry_space_group_name_H-M   'P -1'
_symmetry_Int_Tables_number      2
_space_group_name_Hall           '-P 1'
loop_
_symmetry_equiv_pos_site_id
_symmetry_equiv_pos_as_xyz
1 x,y,z
2 -x,-y,-z
_cell_length_a                   10.665(4)
_cell_length_b                   10.7472(19)
_cell_length_c                   12.2189(10)
_cell_angle_alpha                89.770(10)
_cell_angle_beta                 71.843(15)
_cell_angle_gamma                72.06(2)
_cell_volume                     1259.51
loop_
_atom_site_label
_atom_site_type_symbol
_atom_site_fract_x
_atom_site_fract_y
_atom_site_fract_z
Cu1 Cu 0.76050(5) 0.81803(6) 0.55977(4)
Cu2 Cu 0.82125(5) 0.65719(6) 0.35461(4)
Cu3 Cu 0.75545(5) 0.51160(5) 0.69296(4)
Cu4 Cu 0.32746(5) 1.03095(6) 0.74252(4)
Cl1 Cl 0.95975(10) 0.74800(12) 0.61171(9)
Cl2 Cl 0.68305(10) 0.70303(11) 0.23471(9)
Cl3 Cl 0.56604(11) 0.48635(15) 0.82875(11)
Cl4 Cl 0.18686(10) 0.99606(11) 0.91731(9)
S1 S 0.55772(9) 0.92793(10) 0.70838(8)
S2 S 0.71737(9) 0.59903(9) 0.53300(8)
S3 S 1.05003(10) 0.55976(11) 0.25940(9)
S4 S 0.78690(9) 0.91576(10) 0.38994(8)
N1 N 0.7027(3) 0.7866(3) 0.8377(3)
H1 H 0.7792 0.7627 0.7803
N2 N 0.4832(3) 0.8707(4) 0.9301(3)
H2 H 0.3979 0.9190 0.9441
N3 N 0.4473(3) 0.6271(4) 0.6459(3)
H3 H 0.4678 0.5833 0.7005
N4 N 0.4791(3) 0.7139(4) 0.4856(3)
H4 H 0.5215 0.7447 0.4253
N5 N 0.9930(3) 0.6504(4) 0.0689(3)
H5 H 0.9063 0.6582 0.0998
N6 N 1.2092(3) 0.6020(4) 0.0515(3)
H6 H 1.2831 0.5795 0.0713
N7 N 1.0505(3) 0.8756(4) 0.3843(3)
H7 H 1.0317 0.8566 0.4548
N8 N 1.0155(4) 0.9366(4) 0.2257(3)
H8 H 0.9709 0.9611 0.1775
C1 C 0.5818(4) 0.8577(3) 0.8298(3)
C2 C 0.6921(4) 0.7529(4) 0.9551(3)
H9 H 0.7343 0.8014 0.9912
H10 H 0.7357 0.6594 0.9560
C3 C 0.5352(4) 0.7938(4) 1.0146(3)
H11 H 0.5034 0.7180 1.0280
H12 H 0.5071 0.8467 1.0876
C4 C 0.5393(4) 0.6492(4) 0.5558(3)
C5 C 0.3058(4) 0.6851(5) 0.6433(4)
H13 H 0.2532 0.7595 0.7016
H14 H 0.2569 0.6210 0.6546
C6 C 0.3312(4) 0.7280(4) 0.5216(3)
H15 H 0.3122 0.6715 0.4715
H16 H 0.2748 0.8184 0.5224
C7 C 1.0861(4) 0.6084(4) 0.1209(3)
C8 C 1.0537(4) 0.6824(4) -0.0477(3)
H17 H 1.0340 0.6354 -0.1045
H18 H 1.0192 0.7760 -0.0534
C9 C 1.2076(4) 0.6371(4) -0.0634(3)
H19 H 1.2472 0.7071 -0.0856
H20 H 1.2581 0.5618 -0.1211
C10 C 0.9597(4) 0.9087(4) 0.3302(3)
C11 C 1.1879(4) 0.8745(5) 0.3111(4)
H21 H 1.2552 0.7868 0.2970
H22 H 1.2211 0.9338 0.3455
C12 C 1.1619(4) 0.9212(5) 0.2011(4)
H23 H 1.1794 1.0040 0.1859
H24 H 1.2198 0.8566 0.1352
Cu3A Cu 1.24455(5) 0.48840(5) 0.30704(4)
Cu4A Cu 0.67254(5) 0.96905(6) 0.25748(4)
S3A S 0.94997(10) 0.44024(11) 0.74060(9)
S4A S 0.21310(9) 1.08424(10) 0.61006(8)
loop_
_geom_bond_atom_site_label_1
_geom_bond_atom_site_label_2
_geom_bond_site_symmetry_1
_geom_bond_site_symmetry_2
Cu1 Cl1 1_555 1_555
Cu2 Cl2 1_555 1_555
Cu3 Cl3 1_555 1_555
Cu4 Cl4 1_555 1_555
S1 Cu1 1_555 1_555
S2 Cu1 1_555 1_555
S3 Cu2 1_555 1_555
S4 Cu1 1_555 1_555
N1 H1 1_555 1_555
N2 H2 1_555 1_555
N3 H3 1_555 1_555
N4 H4 1_555 1_555
N5 H5 1_555 1_555
N6 H6 1_555 1_555
N7 H7 1_555 1_555
N8 H8 1_555 1_555
C1 S1 1_555 1_555
C2 N1 1_555 1_555
H9 C2 1_555 1_555
H10 C2 1_555 1_555
C3 N2 1_555 1_555
H11 C3 1_555 1_555
H12 C3 1_555 1_555
C4 S2 1_555 1_555
C5 N3 1_555 1_555
H13 C5 1_555 1_555
H14 C5 1_555 1_555
C6 N4 1_555 1_555
H15 C6 1_555 1_555
H16 C6 1_555 1_555
C7 S3 1_555 1_555
C8 N5 1_555 1_555
H17 C8 1_555 1_555
H18 C8 1_555 1_555
C9 N6 1_555 1_555
H19 C9 1_555 1_555
H20 C9 1_555 1_555
C10 S4 1_555 1_555
C11 N7 1_555 1_555
H21 C11 1_555 1_555
H22 C11 1_555 1_555
C12 N8 1_555 1_555
H23 C12 1_555 1_555
H24 C12 1_555 1_555
Cu3A S3 1_555 1_555
Cu4A S4 1_555 1_555
S3A Cu3 1_555 1_555
S4A Cu4 1_555 1_555
Cu2 S2 1_555 1_555
Cu2 S4 1_555 1_555
Cu3 S2 1_555 1_555
Cu4 S1 1_555 1_555
N1 C1 1_555 1_555
N2 C1 1_555 1_555
N3 C4 1_555 1_555
N4 C4 1_555 1_555
N5 C7 1_555 1_555
N6 C7 1_555 1_555
N7 C10 1_555 1_555
N8 C10 1_555 1_555
C2 C3 1_555 1_555
C5 C6 1_555 1_555
C8 C9 1_555 1_555
C11 C12 1_555 1_555

#END
