
#######################################################################
#
#                 Cambridge Crystallographic Data Centre
#                                CCDC 
#
#######################################################################
#
# If this CIF has been generated from an entry in the Cambridge 
# Structural Database, then it will include bibliographic, chemical, 
# crystal, experimental, refinement or atomic coordinate data resulting 
# from the CCDC's data processing and validation procedures.
#
#######################################################################

data_QUHROA
_symmetry_cell_setting           triclinic
_symmetry_space_group_name_H-M   'P -1'
_symmetry_Int_Tables_number      2
_space_group_name_Hall           '-P 1'
loop_
_symmetry_equiv_pos_site_id
_symmetry_equiv_pos_as_xyz
1 x,y,z
2 -x,-y,-z
_cell_length_a                   8.1011(2)
_cell_length_b                   9.1551(2)
_cell_length_c                   13.6071(3)
_cell_angle_alpha                79.200(1)
_cell_angle_beta                 83.589(1)
_cell_angle_gamma                78.661(1)
_cell_volume                     969.027
loop_
_atom_site_label
_atom_site_type_symbol
_atom_site_fract_x
_atom_site_fract_y
_atom_site_fract_z
Mo1 Mo 0.1988(1) 0.3837(1) 0.4480(1)
Mo2 Mo -0.3365(1) 0.3181(1) 0.4244(1)
Cu1 Cu 0.0000 0.0000 0.5000
O1 O 0.1918(6) 0.4699(6) 0.3261(4)
O2 O 0.0000 0.5000 0.5000
O3 O 0.4446(6) 0.2945(6) 0.4317(4)
O4 O 0.1242(6) 0.2189(6) 0.4504(4)
O5 O -0.2124(6) 0.1397(6) 0.4629(4)
O6 O 0.3103(6) 0.5524(6) 0.4980(4)
O7 O -0.2689(7) 0.3826(7) 0.3030(4)
N1 N 0.9011(8) -0.6409(8) -0.0122(6)
N2 N 0.2613(7) 0.2523(8) -0.3811(5)
N3 N 0.0605(7) -0.0291(7) 0.3549(5)
N4 N 0.4770(7) -0.1602(7) -0.1028(5)
N5 N 0.2660(7) -0.0007(7) -0.0161(5)
N6 N 0.4240(7) -0.2259(7) 0.0732(5)
C1 C 0.8585(9) -0.5464(9) -0.0990(6)
C2 C 0.7331(9) -0.4191(9) -0.1026(6)
C3 C 0.6443(9) -0.3845(9) -0.0132(6)
C4 C 0.6844(9) -0.4806(9) 0.0769(6)
C5 C 0.8133(9) -0.6083(9) 0.0723(6)
C6 C 0.1885(9) 0.2957(9) -0.2943(6)
C7 C 0.2132(9) 0.2027(9) -0.1994(6)
C8 C 0.3210(8) 0.0639(9) -0.1957(6)
C9 C 0.3963(9) 0.0193(9) -0.2859(6)
C10 C 0.3632(10) 0.1151(10) -0.3760(7)
C11 C 0.1388(9) -0.1688(9) 0.3378(6)
C12 C 0.2196(9) -0.1952(9) 0.2461(6)
C13 C 0.2117(9) -0.0739(9) 0.1650(6)
C14 C 0.1206(9) 0.0674(9) 0.1788(6)
C15 C 0.0502(9) 0.0881(10) 0.2756(6)
C16 C 0.5082(8) -0.2510(9) -0.0148(6)
C17 C 0.3570(9) -0.0383(9) -0.0989(6)
C18 C 0.3047(9) -0.1000(9) 0.0687(6)
O4A O -0.1242(6) -0.2189(6) 0.5496(4)
O5A O 0.2124(6) -0.1397(6) 0.5371(4)
N1A N -0.9011(8) 0.6409(8) 1.0122(6)
N2A N -0.2613(7) -0.2523(8) 1.3811(5)
N3A N -0.0605(7) 0.0291(7) 0.6451(5)
N4A N -0.4770(7) 0.1602(7) 1.1028(5)
N5A N -0.2660(7) 0.0007(7) 1.0161(5)
N6A N -0.4240(7) 0.2259(7) 0.9268(5)
C1A C -0.8585(9) 0.5464(9) 1.0990(6)
C2A C -0.7331(9) 0.4191(9) 1.1026(6)
C3A C -0.6443(9) 0.3845(9) 1.0132(6)
C4A C -0.6844(9) 0.4806(9) 0.9231(6)
C5A C -0.8133(9) 0.6083(9) 0.9277(6)
C6A C -0.1885(9) -0.2957(9) 1.2943(6)
C7A C -0.2132(9) -0.2027(9) 1.1994(6)
C8A C -0.3210(8) -0.0639(9) 1.1957(6)
C9A C -0.3963(9) -0.0193(9) 1.2859(6)
C10A C -0.3632(10) -0.1151(10) 1.3760(7)
C11A C -0.1388(9) 0.1688(9) 0.6622(6)
C12A C -0.2196(9) 0.1952(9) 0.7539(6)
C13A C -0.2117(9) 0.0739(9) 0.8350(6)
C14A C -0.1206(9) -0.0674(9) 0.8212(6)
C15A C -0.0502(9) -0.0881(10) 0.7244(6)
C16A C -0.5082(8) 0.2510(9) 1.0148(6)
C17A C -0.3570(9) 0.0383(9) 1.0989(6)
C18A C -0.3047(9) 0.1000(9) 0.9313(6)
Mo1A Mo -0.1988(1) -0.3837(1) 0.5520(1)
Mo2A Mo 0.3365(1) -0.3181(1) 0.5756(1)
O3_2 O -0.5554(6) 0.2945(6) 0.4317(4)
O6A O -0.3103(6) 0.4476(6) 0.5020(4)
O1A O -0.1918(6) -0.4699(6) 0.6739(4)
O7A O 0.2689(7) -0.3826(7) 0.6970(4)
N2_2 N 0.2613(7) 0.2523(8) 0.6189(5)
Mo1A_2 Mo -0.1988(1) 0.6163(1) 0.5520(1)
Mo2_2 Mo 0.6635(1) 0.3181(1) 0.4244(1)
Mo2A_2 Mo 0.3365(1) 0.6819(1) 0.5756(1)
Mo1_2 Mo 0.1988(1) 0.3837(1) -0.5520(1)
Mo1A_3 Mo -0.1988(1) -0.3837(1) 1.5520(1)
O2_2 O 0.0000 -0.5000 0.5000
O3A O -0.4446(6) -0.2945(6) 0.5683(4)
O6A_2 O -0.3103(6) -0.5524(6) 0.5020(4)
N2A_2 N -0.2613(7) -0.2523(8) 0.3811(5)
O3A_2 O 0.5554(6) -0.2945(6) 0.5683(4)
O6_2 O 0.3103(6) -0.4476(6) 0.4980(4)
Mo1_3 Mo -0.8012(1) 0.3837(1) 0.4480(1)
loop_
_geom_bond_atom_site_label_1
_geom_bond_atom_site_label_2
_geom_bond_site_symmetry_1
_geom_bond_site_symmetry_2
Mo1 O1 1_555 1_555
Mo2 O5 1_555 1_555
Cu1 O4 1_555 1_555
O2 Mo1 1_555 1_555
O3 Mo1 1_555 1_555
O4 Mo1 1_555 1_555
O5 Cu1 1_555 1_555
O6 Mo1 1_555 1_555
O7 Mo2 1_555 1_555
N1 C1 1_555 1_555
N2 C6 1_555 1_555
N3 Cu1 1_555 1_555
N4 C16 1_555 1_555
N5 C17 1_555 1_555
N6 C16 1_555 1_555
C1 C2 1_555 1_555
C2 C3 1_555 1_555
C3 C4 1_555 1_555
C4 C5 1_555 1_555
C5 N1 1_555 1_555
C6 C7 1_555 1_555
C7 C8 1_555 1_555
C8 C9 1_555 1_555
C9 C10 1_555 1_555
C10 N2 1_555 1_555
C11 N3 1_555 1_555
C12 C11 1_555 1_555
C13 C12 1_555 1_555
C14 C13 1_555 1_555
C15 N3 1_555 1_555
C16 C3 1_555 1_555
C17 N4 1_555 1_555
C18 N5 1_555 1_555
O4A Cu1 1_555 1_555
O5A Cu1 1_555 1_555
N1A C1A 1_555 1_555
N2A C6A 1_555 1_555
N3A Cu1 1_555 1_555
N4A C16A 1_555 1_555
N5A C17A 1_555 1_555
N6A C16A 1_555 1_555
C1A C2A 1_555 1_555
C2A C3A 1_555 1_555
C3A C4A 1_555 1_555
C4A C5A 1_555 1_555
C5A N1A 1_555 1_555
C6A C7A 1_555 1_555
C7A C8A 1_555 1_555
C8A C9A 1_555 1_555
C9A C10A 1_555 1_555
C10A N2A 1_555 1_555
C11A N3A 1_555 1_555
C12A C11A 1_555 1_555
C13A C12A 1_555 1_555
C14A C13A 1_555 1_555
C15A N3A 1_555 1_555
C16A C3A 1_555 1_555
C17A N4A 1_555 1_555
C18A N5A 1_555 1_555
Mo1A O4A 1_555 1_555
Mo2A O5A 1_555 1_555
O3_2 Mo2 1_555 1_555
O6A Mo2 1_555 1_555
O1A Mo1A 1_555 1_555
O7A Mo2A 1_555 1_555
N2_2 Mo1 1_555 1_555
Mo1A_2 O2 1_555 1_555
Mo2_2 O3 1_555 1_555
Mo2A_2 O6 1_555 1_555
Mo1_2 N2 1_555 1_555
Mo1A_3 N2A 1_555 1_555
O2_2 Mo1A 1_555 1_555
O3A Mo1A 1_555 1_555
O6A_2 Mo1A 1_555 1_555
N2A_2 Mo1A 1_555 1_555
O3A_2 Mo2A 1_555 1_555
O6_2 Mo2A 1_555 1_555
Mo1_3 O3_2 1_555 1_555
N6 C18 1_555 1_555
C8 C17 1_555 1_555
C13 C18 1_555 1_555
C14 C15 1_555 1_555
N6A C18A 1_555 1_555
C8A C17A 1_555 1_555
C13A C18A 1_555 1_555
C14A C15A 1_555 1_555
O6A Mo1A_2 1_555 1_555

#END
