
#######################################################################
#
#                 Cambridge Crystallographic Data Centre
#                                CCDC 
#
#######################################################################
#
# If this CIF has been generated from an entry in the Cambridge 
# Structural Database, then it will include bibliographic, chemical, 
# crystal, experimental, refinement or atomic coordinate data resulting 
# from the CCDC's data processing and validation procedures.
#
#######################################################################

data_QUHZEA01
_symmetry_cell_setting           monoclinic
_symmetry_space_group_name_H-M   'P 21/c'
_symmetry_Int_Tables_number      14
_space_group_name_Hall           '-P 2ybc'
loop_
_symmetry_equiv_pos_site_id
_symmetry_equiv_pos_as_xyz
1 x,y,z
2 -x,1/2+y,1/2-z
3 -x,-y,-z
4 x,1/2-y,1/2+z
_cell_length_a                   13.1615(11)
_cell_length_b                   16.9299(14)
_cell_length_c                   30.922(3)
_cell_angle_alpha                90
_cell_angle_beta                 92.319(2)
_cell_angle_gamma                90
_cell_volume                     6884.49
loop_
_atom_site_label
_atom_site_type_symbol
_atom_site_fract_x
_atom_site_fract_y
_atom_site_fract_z
C1 C 0.1187(4) 0.1334(4) 0.09463(16)
C2 C 0.0327(4) 0.1711(4) 0.06841(19)
C3 C -0.0056(7) 0.1118(6) 0.0340(3)
H1 H -0.0269 0.0631 0.0482
H2 H 0.0491 0.1000 0.0144
H3 H -0.0636 0.1345 0.0174
C4 C -0.0541(6) 0.1844(6) 0.0982(3)
H4 H -0.0334 0.2227 0.1206
H5 H -0.0719 0.1343 0.1118
H6 H -0.1132 0.2047 0.0814
C5 C 0.0634(5) 0.2482(5) 0.0483(3)
H7 H 0.0878 0.2846 0.0711
H8 H 0.0046 0.2714 0.0325
H9 H 0.1178 0.2386 0.0282
C6 C 0.3003(4) -0.0279(4) 0.07188(17)
C7 C 0.3324(6) -0.0771(4) 0.0335(2)
C8 C 0.2936(8) -0.0334(6) -0.0078(2)
H10 H 0.3256 0.0188 -0.0089
H11 H 0.2196 -0.0273 -0.0073
H12 H 0.3111 -0.0640 -0.0333
C9 C 0.4465(6) -0.0853(5) 0.0350(3)
H13 H 0.4686 -0.1136 0.0614
H14 H 0.4776 -0.0327 0.0350
H15 H 0.4673 -0.1148 0.0096
C10 C 0.2831(7) -0.1585(5) 0.0346(2)
H16 H 0.3087 -0.1871 0.0603
H17 H 0.2998 -0.1880 0.0086
H18 H 0.2092 -0.1526 0.0356
C11 C 0.1162(4) 0.0538(3) 0.23632(15)
C12 C 0.0276(4) 0.0799(4) 0.26383(18)
C13 C -0.0399(5) 0.0078(4) 0.2712(2)
H19 H -0.0006 -0.0326 0.2872
H20 H -0.0640 -0.0137 0.2432
H21 H -0.0983 0.0236 0.2879
C14 C 0.0654(5) 0.1170(5) 0.3063(2)
H22 H 0.1059 0.1640 0.3003
H23 H 0.1074 0.0789 0.3228
H24 H 0.0070 0.1322 0.3232
C15 C -0.0358(6) 0.1391(4) 0.2367(3)
H25 H 0.0044 0.1869 0.2322
H26 H -0.0972 0.1528 0.2519
H27 H -0.0550 0.1155 0.2086
C16 C 0.3150(4) -0.1078(3) 0.20793(18)
C17 C 0.3630(6) -0.1908(4) 0.2073(3)
C18 C 0.2821(7) -0.2545(4) 0.2033(4)
H28 H 0.2442 -0.2564 0.2299
H29 H 0.3146 -0.3057 0.1986
H30 H 0.2354 -0.2425 0.1787
C19 C 0.4272(9) -0.2028(5) 0.2484(4)
H31 H 0.3831 -0.2059 0.2731
H32 H 0.4744 -0.1584 0.2524
H33 H 0.4659 -0.2520 0.2463
C20 C 0.4322(12) -0.1900(8) 0.1699(5)
H34 H 0.4678 -0.2407 0.1685
H35 H 0.4820 -0.1473 0.1739
H36 H 0.3920 -0.1814 0.1430
C21 C 0.3174(3) 0.2325(3) 0.19468(17)
C22 C 0.2617(4) 0.3108(3) 0.20330(18)
C23 C 0.3264(5) 0.3786(3) 0.1869(2)
H37 H 0.3895 0.3824 0.2047
H38 H 0.2885 0.4283 0.1888
H39 H 0.3426 0.3687 0.1567
C24 C 0.2408(5) 0.3206(3) 0.2507(2)
H40 H 0.3054 0.3226 0.2676
H41 H 0.2005 0.2757 0.2604
H42 H 0.2030 0.3697 0.2549
C25 C 0.1620(5) 0.3076(4) 0.1746(2)
H43 H 0.1183 0.2654 0.1848
H44 H 0.1787 0.2973 0.1445
H45 H 0.1264 0.3583 0.1762
C26 C 0.5320(4) 0.0748(3) 0.16909(15)
C27 C 0.6438(4) 0.0550(3) 0.16698(16)
C28 C 0.6985(5) 0.1258(5) 0.1484(3)
H46 H 0.6691 0.1380 0.1196
H47 H 0.7709 0.1135 0.1463
H48 H 0.6908 0.1715 0.1674
C29 C 0.6535(6) -0.0146(5) 0.1372(3)
H49 H 0.6187 -0.0603 0.1492
H50 H 0.7256 -0.0272 0.1342
H51 H 0.6226 -0.0016 0.1087
C30 C 0.6904(5) 0.0351(5) 0.2110(2)
H52 H 0.6538 -0.0095 0.2232
H53 H 0.6856 0.0810 0.2301
H54 H 0.7620 0.0208 0.2082
C31 C 0.4885(5) 0.2441(4) 0.08067(18)
H55 H 0.5186 0.2423 0.1091
C32 C 0.5313(6) 0.2924(5) 0.04976(19)
H56 H 0.5903 0.3227 0.0570
C33 C 0.4878(5) 0.2957(4) 0.00914(18)
H57 H 0.5164 0.3285 -0.0121
C34 C 0.4015(4) 0.2510(4) -0.00124(16)
C35 C 0.3654(4) 0.2034(3) 0.03136(15)
H58 H 0.3079 0.1710 0.0248
C36 C 0.3528(4) 0.2526(3) -0.04526(16)
C37 C 0.2650(4) 0.2083(3) -0.05647(16)
H59 H 0.2368 0.1738 -0.0359
C38 C 0.2199(4) 0.2150(3) -0.09732(14)
C39 C 0.2653(4) 0.2666(3) -0.12613(15)
H60 H 0.2363 0.2733 -0.1545
C40 C 0.3522(4) 0.3081(3) -0.11346(14)
C41 C 0.4017(4) 0.3634(3) -0.14292(14)
C42 C 0.4879(5) 0.4047(4) -0.12964(17)
H61 H 0.5149 0.3992 -0.1008
C43 C 0.5344(5) 0.4537(4) -0.15816(18)
H62 H 0.5943 0.4820 -0.1497
C44 C 0.4915(4) 0.4608(3) -0.19959(16)
H63 H 0.5247 0.4934 -0.2196
C45 C 0.3638(4) 0.3756(3) -0.18505(14)
H64 H 0.3044 0.3477 -0.1946
C46 C -0.0162(6) 0.0920(6) -0.0937(2)
H65 H -0.0528 0.0660 -0.0719
C47 C 0.0703(6) 0.1338(5) -0.0810(2)
H66 H 0.0900 0.1367 -0.0511
C48 C 0.1271(4) 0.1705(3) -0.11025(14)
C49 C 0.0898(5) 0.1641(4) -0.15167(18)
H67 H 0.1254 0.1886 -0.1742
C50 C 0.0028(5) 0.1235(4) -0.16175(19)
H68 H -0.0209 0.1222 -0.1912
N1 N 0.4071(3) 0.2007(3) 0.07140(12)
N2 N 0.4069(3) 0.4245(2) -0.21274(11)
N3 N -0.0502(3) 0.0861(3) -0.13337(13)
N4 N 0.3944(3) 0.3029(2) -0.07358(12)
O1 O 0.0981(3) 0.0687(3) 0.11240(12)
O2 O 0.2868(2) 0.06044(18) 0.16413(9)
O3 O 0.2043(3) 0.1641(2) 0.09446(11)
O4 O 0.2412(3) -0.0565(2) 0.09794(11)
O5 O 0.3378(3) 0.0395(2) 0.07382(11)
O6 O 0.0917(2) 0.0258(2) 0.19983(11)
O7 O 0.2047(2) 0.0614(2) 0.25146(10)
O8 O 0.2339(3) -0.0998(2) 0.18543(12)
O9 O 0.3613(3) -0.05370(19) 0.22835(10)
O10 O 0.3482(3) 0.22242(19) 0.15693(11)
O11 O 0.3252(3) 0.18371(18) 0.22498(10)
O12 O 0.4880(2) 0.0959(2) 0.13423(10)
O13 O 0.4905(2) 0.0680(2) 0.20467(10)
Fe1 Fe 0.17843(6) -0.00852(4) 0.15088(2)
Fe2 Fe 0.34120(5) 0.12376(4) 0.12048(2)
Ni1 Ni 0.34292(5) 0.06454(4) 0.221946(19)
N2C N 0.4069(3) 0.0755(2) 0.28726(11)
N3B N 0.0502(3) -0.0861(3) 0.13337(13)
Fe1B Fe -0.17843(6) 0.00852(4) -0.15088(2)
Ni1C Ni 0.34292(5) 0.43546(4) -0.278054(19)
loop_
_geom_bond_atom_site_label_1
_geom_bond_atom_site_label_2
_geom_bond_site_symmetry_1
_geom_bond_site_symmetry_2
C1 C2 1_555 1_555
C2 C3 1_555 1_555
C3 H1 1_555 1_555
H2 C3 1_555 1_555
H3 C3 1_555 1_555
C4 C2 1_555 1_555
H4 C4 1_555 1_555
H5 C4 1_555 1_555
H6 C4 1_555 1_555
C5 C2 1_555 1_555
H7 C5 1_555 1_555
H8 C5 1_555 1_555
H9 C5 1_555 1_555
C6 C7 1_555 1_555
C7 C8 1_555 1_555
C8 H10 1_555 1_555
H11 C8 1_555 1_555
H12 C8 1_555 1_555
C9 C7 1_555 1_555
H13 C9 1_555 1_555
H14 C9 1_555 1_555
H15 C9 1_555 1_555
C10 C7 1_555 1_555
H16 C10 1_555 1_555
H17 C10 1_555 1_555
H18 C10 1_555 1_555
C11 C12 1_555 1_555
C12 C13 1_555 1_555
C13 H19 1_555 1_555
H20 C13 1_555 1_555
H21 C13 1_555 1_555
C14 C12 1_555 1_555
H22 C14 1_555 1_555
H23 C14 1_555 1_555
H24 C14 1_555 1_555
C15 C12 1_555 1_555
H25 C15 1_555 1_555
H26 C15 1_555 1_555
H27 C15 1_555 1_555
C16 C17 1_555 1_555
C17 C18 1_555 1_555
C18 H28 1_555 1_555
H29 C18 1_555 1_555
H30 C18 1_555 1_555
C19 C17 1_555 1_555
H31 C19 1_555 1_555
H32 C19 1_555 1_555
H33 C19 1_555 1_555
C20 C17 1_555 1_555
H34 C20 1_555 1_555
H35 C20 1_555 1_555
H36 C20 1_555 1_555
C21 C22 1_555 1_555
C22 C23 1_555 1_555
C23 H37 1_555 1_555
H38 C23 1_555 1_555
H39 C23 1_555 1_555
C24 C22 1_555 1_555
H40 C24 1_555 1_555
H41 C24 1_555 1_555
H42 C24 1_555 1_555
C25 C22 1_555 1_555
H43 C25 1_555 1_555
H44 C25 1_555 1_555
H45 C25 1_555 1_555
C26 C27 1_555 1_555
C27 C28 1_555 1_555
C28 H46 1_555 1_555
H47 C28 1_555 1_555
H48 C28 1_555 1_555
C29 C27 1_555 1_555
H49 C29 1_555 1_555
H50 C29 1_555 1_555
H51 C29 1_555 1_555
C30 C27 1_555 1_555
H52 C30 1_555 1_555
H53 C30 1_555 1_555
H54 C30 1_555 1_555
C31 H55 1_555 1_555
C32 C31 1_555 1_555
H56 C32 1_555 1_555
C33 C32 1_555 1_555
H57 C33 1_555 1_555
C34 C33 1_555 1_555
C35 C34 1_555 1_555
H58 C35 1_555 1_555
C36 C34 1_555 1_555
C37 C36 1_555 1_555
H59 C37 1_555 1_555
C38 C37 1_555 1_555
C39 C38 1_555 1_555
H60 C39 1_555 1_555
C40 C39 1_555 1_555
C41 C40 1_555 1_555
C42 C41 1_555 1_555
H61 C42 1_555 1_555
C43 C42 1_555 1_555
H62 C43 1_555 1_555
C44 C43 1_555 1_555
H63 C44 1_555 1_555
C45 C41 1_555 1_555
H64 C45 1_555 1_555
C46 H65 1_555 1_555
C47 C46 1_555 1_555
H66 C47 1_555 1_555
C48 C38 1_555 1_555
C49 C48 1_555 1_555
H67 C49 1_555 1_555
C50 C49 1_555 1_555
H68 C50 1_555 1_555
N1 C31 1_555 1_555
N2 C44 1_555 1_555
N3 C46 1_555 1_555
N4 C36 1_555 1_555
O1 C1 1_555 1_555
O2 Fe1 1_555 1_555
O3 C1 1_555 1_555
O4 C6 1_555 1_555
O5 C6 1_555 1_555
O6 C11 1_555 1_555
O7 C11 1_555 1_555
O8 C16 1_555 1_555
O9 C16 1_555 1_555
O10 C21 1_555 1_555
O11 C21 1_555 1_555
O12 C26 1_555 1_555
O13 C26 1_555 1_555
Fe1 O1 1_555 1_555
Fe2 N1 1_555 1_555
Ni1 O2 1_555 1_555
N2C Ni1 1_555 1_555
N3B Fe1 1_555 1_555
Fe1B N3 1_555 1_555
Ni1C N2 1_555 1_555
C35 N1 1_555 1_555
C40 N4 1_555 1_555
C45 N2 1_555 1_555
C47 C48 1_555 1_555
C50 N3 1_555 1_555
O2 Fe2 1_555 1_555
O3 Fe2 1_555 1_555
O4 Fe1 1_555 1_555
O5 Fe2 1_555 1_555
O6 Fe1 1_555 1_555
O7 Ni1 1_555 1_555
O8 Fe1 1_555 1_555
O9 Ni1 1_555 1_555
O10 Fe2 1_555 1_555
O11 Ni1 1_555 1_555
O12 Fe2 1_555 1_555
O13 Ni1 1_555 1_555

#END
