
#######################################################################
#
#                 Cambridge Crystallographic Data Centre
#                                CCDC 
#
#######################################################################
#
# If this CIF has been generated from an entry in the Cambridge 
# Structural Database, then it will include bibliographic, chemical, 
# crystal, experimental, refinement or atomic coordinate data resulting 
# from the CCDC's data processing and validation procedures.
#
#######################################################################

data_QUHZOK
_symmetry_cell_setting           orthorhombic
_symmetry_space_group_name_H-M   'P b c a'
_symmetry_Int_Tables_number      61
_space_group_name_Hall           '-P 2ac 2ab'
loop_
_symmetry_equiv_pos_site_id
_symmetry_equiv_pos_as_xyz
1 x,y,z
2 1/2-x,-y,1/2+z
3 -x,1/2+y,1/2-z
4 1/2+x,1/2-y,-z
5 -x,-y,-z
6 1/2+x,y,1/2-z
7 x,1/2-y,1/2+z
8 1/2-x,1/2+y,z
_cell_length_a                   17.7705(9)
_cell_length_b                   22.3871(12)
_cell_length_c                   23.5210(13)
_cell_angle_alpha                90
_cell_angle_beta                 90
_cell_angle_gamma                90
_cell_volume                     9357.36
loop_
_atom_site_label
_atom_site_type_symbol
_atom_site_fract_x
_atom_site_fract_y
_atom_site_fract_z
C1 C 0.3028(5) 0.8520(4) 0.9008(4)
C2 C 0.2233(5) 0.8302(4) 0.8965(3)
C3 C 0.1668(5) 0.8681(4) 0.9175(4)
H1 H 0.1801 0.9053 0.9343
C4 C 0.0917(6) 0.8517(5) 0.9139(5)
H2 H 0.0535 0.8777 0.9276
C5 C 0.0726(5) 0.7962(5) 0.8900(4)
H3 H 0.0212 0.7850 0.8867
C6 C 0.1279(5) 0.7583(4) 0.8715(4)
H4 H 0.1140 0.7201 0.8572
C7 C 0.2040(5) 0.7738(4) 0.8729(4)
C8 C 0.4289(6) 0.6624(5) 0.6185(5)
C9 C 0.3854(4) 0.7140(4) 0.5971(4)
C10 C 0.3569(5) 0.7125(4) 0.5415(4)
H5 H 0.3646 0.6774 0.5195
C11 C 0.3177(5) 0.7601(5) 0.5169(5)
H6 H 0.2974 0.7569 0.4797
C12 C 0.3094(5) 0.8117(4) 0.5479(4)
H7 H 0.2858 0.8455 0.5313
C13 C 0.3355(5) 0.8145(4) 0.6034(4)
H8 H 0.3277 0.8502 0.6245
C14 C 0.3730(5) 0.7664(4) 0.6298(4)
C15 C 0.4756(4) 0.8323(4) 0.7853(4)
H9 H 0.4673 0.8561 0.8202
H10 H 0.4480 0.8516 0.7537
C16 C 0.5584(4) 0.8298(3) 0.7717(4)
H11 H 0.5650 0.8094 0.7347
H12 H 0.5774 0.8711 0.7674
C17 C 0.6789(4) 0.7829(4) 0.7892(3)
H13 H 0.6706 0.7543 0.7577
H14 H 0.7100 0.7627 0.8183
C18 C 0.7218(4) 0.8368(4) 0.7665(4)
H15 H 0.6931 0.8552 0.7349
H16 H 0.7272 0.8669 0.7970
C19 C 0.6133(5) 0.8355(4) 0.8668(4)
H17 H 0.6653 0.8308 0.8814
H18 H 0.6060 0.8780 0.8568
C20 C 0.5599(5) 0.8191(4) 0.9120(4)
H19 H 0.5760 0.8377 0.9482
H20 H 0.5094 0.8349 0.9024
C21 C 0.6251(6) 0.7348(5) 0.9545(5)
H21 H 0.6656 0.7646 0.9484
H22 H 0.6119 0.7355 0.9953
C22 C 0.6548(7) 0.6746(6) 0.9400(5)
H23 H 0.7002 0.6661 0.9630
H24 H 0.6164 0.6438 0.9489
C23 C 0.4886(5) 0.7335(5) 0.9476(5)
H25 H 0.4466 0.7609 0.9383
H26 H 0.4967 0.7352 0.9892
C24 C 0.4663(5) 0.6710(4) 0.9314(5)
H27 H 0.4954 0.6418 0.9543
H28 H 0.4122 0.6648 0.9394
C25 C 0.5793(5) 0.6342(4) 0.7489(4)
H29 H 0.6315 0.6476 0.7416
H30 H 0.5583 0.6195 0.7126
C26 C 0.5811(5) 0.5827(4) 0.7917(5)
H31 H 0.6160 0.5518 0.7772
H32 H 0.6022 0.5979 0.8278
C27 C 0.5593(6) 0.4556(5) 0.8508(8)
H33 H 0.5565 0.4349 0.8879
H34 H 0.5342 0.4299 0.8223
C28 C 0.5171(6) 0.5127(5) 0.8550(6)
H35 H 0.5416 0.5366 0.8851
H36 H 0.4661 0.5027 0.8690
C29 C 0.4768(5) 0.5229(4) 0.7524(6)
H37 H 0.5078 0.4873 0.7434
H38 H 0.4793 0.5505 0.7196
C30 C 0.3967(5) 0.5043(4) 0.7625(6)
H39 H 0.3745 0.4888 0.7269
H40 H 0.3950 0.4722 0.7914
C31 C 0.3122(6) 0.5211(5) 0.8769(6)
H41 H 0.2675 0.5115 0.9003
H42 H 0.3446 0.4851 0.8755
C32 C 0.2871(6) 0.5369(5) 0.8172(6)
H43 H 0.2639 0.5015 0.7990
H44 H 0.2489 0.5690 0.8188
C33 C 0.3248(5) 0.5936(4) 0.7341(5)
H45 H 0.2807 0.5738 0.7167
H46 H 0.3647 0.5968 0.7049
C34 C 0.3025(5) 0.6565(4) 0.7547(5)
H47 H 0.2939 0.6832 0.7218
H48 H 0.2556 0.6546 0.7773
N1 N 0.6046(3) 0.7987(3) 0.8148(3)
N2 N 0.5553(4) 0.7541(3) 0.9196(3)
N3 N 0.3526(4) 0.5572(3) 0.7828(5)
N4 N 0.5070(4) 0.5532(3) 0.8046(4)
O1 O 0.3567(3) 0.8236(3) 0.8772(3)
O2 O 0.2539(3) 0.7344(3) 0.8549(3)
O3 O 0.3155(4) 0.8993(3) 0.9285(3)
O4 O 0.3929(3) 0.7725(3) 0.6837(3)
O5 O 0.4622(3) 0.6640(3) 0.6657(3)
O6 O 0.4344(5) 0.6171(4) 0.5871(4)
O7 O 0.4482(3) 0.7730(2) 0.7934(3)
O8 O 0.7952(3) 0.8195(3) 0.7465(3)
O9 O 0.6730(4) 0.6725(4) 0.8809(3)
O10 O 0.5367(3) 0.6831(2) 0.7674(3)
O11 O 0.6373(4) 0.4618(4) 0.8352(4)
H49 H 0.6594 0.4831 0.8595
O12 O 0.3525(4) 0.5686(3) 0.9025(4)
O13 O 0.4806(3) 0.6620(3) 0.8733(3)
O14 O 0.3629(3) 0.6784(2) 0.7887(3)
Cu1 Cu 0.34965(5) 0.75609(4) 0.82668(5)
Cu2 Cu 0.45604(6) 0.72044(5) 0.72627(5)
Cu3 Cu 0.54789(6) 0.72129(5) 0.84113(5)
Cu4 Cu 0.42204(6) 0.61298(5) 0.82433(6)
H50 H 0.311(6) 0.604(5) 0.906(5)
H51 H 0.820(7) 0.810(6) 0.779(3)
H52 H 0.709(5) 0.646(4) 0.872(5)
O8E O 0.2952(3) 0.8195(3) 0.7535(3)
Cu1E Cu 0.84965(5) 0.75609(4) 0.67332(5)
O15 O 0.6615(3) 0.4385(3) 0.7281(3)
O16 O 0.2385(4) 0.6397(3) 0.9227(3)
O17 O 0.0797(6) 1.0052(5) 0.9936(5)
O18 O 0.2778(17) 0.9561(10) 1.0182(8)
O19 O 0.4078(4) 0.9746(3) 0.8703(4)
O20 O 0.4031(4) 1.0853(3) 0.9221(4)
O21 O 0.5615(4) 0.9920(4) 0.8789(4)
O22 O 0.6515(6) 0.9405(4) 0.9635(4)
O23 O 0.7515(12) 1.0712(8) 0.8834(7)
O24 O 0.8155(17) 1.019(2) 0.9312(12)
loop_
_geom_bond_atom_site_label_1
_geom_bond_atom_site_label_2
_geom_bond_site_symmetry_1
_geom_bond_site_symmetry_2
C1 C2 1_555 1_555
C2 C3 1_555 1_555
C3 H1 1_555 1_555
C4 C3 1_555 1_555
H2 C4 1_555 1_555
C5 C4 1_555 1_555
H3 C5 1_555 1_555
C6 C5 1_555 1_555
H4 C6 1_555 1_555
C7 C2 1_555 1_555
C8 C9 1_555 1_555
C9 C10 1_555 1_555
C10 H5 1_555 1_555
C11 C10 1_555 1_555
H6 C11 1_555 1_555
C12 C11 1_555 1_555
H7 C12 1_555 1_555
C13 C12 1_555 1_555
H8 C13 1_555 1_555
C14 C9 1_555 1_555
C15 H9 1_555 1_555
H10 C15 1_555 1_555
C16 C15 1_555 1_555
H11 C16 1_555 1_555
H12 C16 1_555 1_555
C17 H13 1_555 1_555
H14 C17 1_555 1_555
C18 C17 1_555 1_555
H15 C18 1_555 1_555
H16 C18 1_555 1_555
C19 H17 1_555 1_555
H18 C19 1_555 1_555
C20 C19 1_555 1_555
H19 C20 1_555 1_555
H20 C20 1_555 1_555
C21 H21 1_555 1_555
H22 C21 1_555 1_555
C22 C21 1_555 1_555
H23 C22 1_555 1_555
H24 C22 1_555 1_555
C23 H25 1_555 1_555
H26 C23 1_555 1_555
C24 C23 1_555 1_555
H27 C24 1_555 1_555
H28 C24 1_555 1_555
C25 H29 1_555 1_555
H30 C25 1_555 1_555
C26 C25 1_555 1_555
H31 C26 1_555 1_555
H32 C26 1_555 1_555
C27 H33 1_555 1_555
H34 C27 1_555 1_555
C28 C27 1_555 1_555
H35 C28 1_555 1_555
H36 C28 1_555 1_555
C29 H37 1_555 1_555
H38 C29 1_555 1_555
C30 C29 1_555 1_555
H39 C30 1_555 1_555
H40 C30 1_555 1_555
C31 H41 1_555 1_555
H42 C31 1_555 1_555
C32 C31 1_555 1_555
H43 C32 1_555 1_555
H44 C32 1_555 1_555
C33 H45 1_555 1_555
H46 C33 1_555 1_555
C34 C33 1_555 1_555
H47 C34 1_555 1_555
H48 C34 1_555 1_555
N1 C16 1_555 1_555
N2 C20 1_555 1_555
N3 C30 1_555 1_555
N4 C26 1_555 1_555
O1 C1 1_555 1_555
O2 C7 1_555 1_555
O3 C1 1_555 1_555
O4 C14 1_555 1_555
O5 C8 1_555 1_555
O6 C8 1_555 1_555
O7 C15 1_555 1_555
O8 C18 1_555 1_555
O9 C22 1_555 1_555
O10 C25 1_555 1_555
O11 C27 1_555 1_555
H49 O11 1_555 1_555
O12 C31 1_555 1_555
O13 C24 1_555 1_555
O14 C34 1_555 1_555
Cu1 O1 1_555 1_555
Cu2 O4 1_555 1_555
Cu3 N1 1_555 1_555
Cu4 N3 1_555 1_555
H50 O12 1_555 1_555
H51 O8 1_555 1_555
H52 O9 1_555 1_555
O8E Cu1 1_555 1_555
Cu1E O8 1_555 1_555
C6 C7 1_555 1_555
C13 C14 1_555 1_555
C17 N1 1_555 1_555
C19 N1 1_555 1_555
C21 N2 1_555 1_555
C23 N2 1_555 1_555
C28 N4 1_555 1_555
C29 N4 1_555 1_555
C32 N3 1_555 1_555
C33 N3 1_555 1_555
N2 Cu3 1_555 1_555
N4 Cu4 1_555 1_555
O2 Cu1 1_555 1_555
O5 Cu2 1_555 1_555
O7 Cu1 1_555 1_555
O7 Cu2 1_555 1_555
O7 Cu3 1_555 1_555
O9 Cu3 1_555 1_555
O10 Cu2 1_555 1_555
O10 Cu3 1_555 1_555
O12 Cu4 1_555 1_555
O13 Cu3 1_555 1_555
O13 Cu4 1_555 1_555
O14 Cu1 1_555 1_555
O14 Cu2 1_555 1_555
O14 Cu4 1_555 1_555

#END
