
#######################################################################
#
#                 Cambridge Crystallographic Data Centre
#                                CCDC 
#
#######################################################################
#
# If this CIF has been generated from an entry in the Cambridge 
# Structural Database, then it will include bibliographic, chemical, 
# crystal, experimental, refinement or atomic coordinate data resulting 
# from the CCDC's data processing and validation procedures.
#
#######################################################################

data_QUJBUT
_symmetry_cell_setting           monoclinic
_symmetry_space_group_name_H-M   'P 21/n'
_symmetry_Int_Tables_number      14
_space_group_name_Hall           '-P 2yn'
loop_
_symmetry_equiv_pos_site_id
_symmetry_equiv_pos_as_xyz
1 x,y,z
2 1/2-x,1/2+y,1/2-z
3 -x,-y,-z
4 1/2+x,1/2-y,1/2+z
_cell_length_a                   12.5978(3)
_cell_length_b                   10.7859(3)
_cell_length_c                   14.4601(4)
_cell_angle_alpha                90
_cell_angle_beta                 90.1420(10)
_cell_angle_gamma                90
_cell_volume                     1964.81
loop_
_atom_site_label
_atom_site_type_symbol
_atom_site_fract_x
_atom_site_fract_y
_atom_site_fract_z
I1 I 0.418358(18) 0.13224(2) 0.303524(18)
I2 I 0.091250(18) 0.27088(2) 0.311990(18)
Cu1 Cu 0.29287(4) 0.32249(5) 0.28338(4)
Cu2 Cu 0.21360(4) 0.08064(5) 0.28048(4)
S1 S 0.32097(7) 0.49670(8) 0.37689(7)
S2 S 0.31167(7) 0.40533(8) 0.12871(7)
N1 N 0.4890(3) 0.6369(3) 0.4196(3)
H1 H 0.5582 0.6478 0.4226
N2 N 0.5258(3) 0.4510(3) 0.3452(2)
H2 H 0.4991 0.3811 0.3240
N3 N 0.6829(3) 0.3614(3) 0.3032(3)
N4 N 0.6827(3) 0.5689(3) 0.3633(2)
N5 N 0.4704(3) 0.2793(3) 0.0526(2)
H3 H 0.5371 0.2721 0.0356
N6 N 0.5169(2) 0.4694(3) 0.1158(2)
H4 H 0.4934 0.5375 0.1423
N7 N 0.6786(3) 0.5670(3) 0.1280(2)
N8 N 0.6661(3) 0.3683(3) 0.0540(2)
C1 C 0.4212(4) 0.7347(4) 0.4575(3)
H5 H 0.4007 0.7920 0.4080
H6 H 0.4601 0.7801 0.5055
H7 H 0.3574 0.6975 0.4844
C2 C 0.4539(3) 0.5335(4) 0.3813(3)
C3 C 0.6358(3) 0.4638(3) 0.3378(3)
C4 C 0.7881(3) 0.3674(4) 0.2954(3)
H8 H 0.8254 0.2970 0.2731
C5 C 0.8454(3) 0.4737(4) 0.3189(3)
H9 H 0.9203 0.4775 0.3120
C6 C 0.7881(3) 0.5734(4) 0.3528(3)
H10 H 0.8248 0.6472 0.3690
C7 C 0.3973(3) 0.1788(4) 0.0298(3)
H11 H 0.3605 0.1517 0.0859
H12 H 0.4372 0.1090 0.0038
H13 H 0.3452 0.2080 -0.0157
C8 C 0.4417(3) 0.3799(3) 0.0972(3)
C9 C 0.6262(3) 0.4657(3) 0.0978(3)
C10 C 0.7830(3) 0.5655(4) 0.1123(3)
H14 H 0.8243 0.6335 0.1335
C11 C 0.8338(3) 0.4698(4) 0.0668(3)
H15 H 0.9081 0.4713 0.0559
C12 C 0.7708(3) 0.3712(4) 0.0378(3)
H16 H 0.8027 0.3041 0.0057
Cu2A Cu 0.28640(4) 0.58064(5) 0.21952(4)
S1A S 0.17903(7) -0.00330(8) 0.12311(7)
S2A S 0.18833(7) -0.09467(8) 0.37129(7)
loop_
_geom_bond_atom_site_label_1
_geom_bond_atom_site_label_2
_geom_bond_site_symmetry_1
_geom_bond_site_symmetry_2
I1 Cu1 1_555 1_555
I2 Cu1 1_555 1_555
Cu1 S1 1_555 1_555
Cu2 I1 1_555 1_555
S1 C2 1_555 1_555
S2 Cu1 1_555 1_555
N1 H1 1_555 1_555
N2 H2 1_555 1_555
N3 C3 1_555 1_555
N4 C3 1_555 1_555
N5 H3 1_555 1_555
N6 H4 1_555 1_555
N7 C9 1_555 1_555
N8 C9 1_555 1_555
C1 N1 1_555 1_555
H5 C1 1_555 1_555
H6 C1 1_555 1_555
H7 C1 1_555 1_555
C2 N1 1_555 1_555
C3 N2 1_555 1_555
C4 N3 1_555 1_555
H8 C4 1_555 1_555
C5 C4 1_555 1_555
H9 C5 1_555 1_555
C6 N4 1_555 1_555
H10 C6 1_555 1_555
C7 N5 1_555 1_555
H11 C7 1_555 1_555
H12 C7 1_555 1_555
H13 C7 1_555 1_555
C8 S2 1_555 1_555
C9 N6 1_555 1_555
C10 N7 1_555 1_555
H14 C10 1_555 1_555
C11 C10 1_555 1_555
H15 C11 1_555 1_555
C12 N8 1_555 1_555
H16 C12 1_555 1_555
Cu2A S1 1_555 1_555
S1A Cu2 1_555 1_555
S2A Cu2 1_555 1_555
I2 Cu2 1_555 1_555
S2 Cu2A 1_555 1_555
N2 C2 1_555 1_555
N5 C8 1_555 1_555
N6 C8 1_555 1_555
C5 C6 1_555 1_555
C11 C12 1_555 1_555

#END
