
#######################################################################
#
#                 Cambridge Crystallographic Data Centre
#                                CCDC 
#
#######################################################################
#
# If this CIF has been generated from an entry in the Cambridge 
# Structural Database, then it will include bibliographic, chemical, 
# crystal, experimental, refinement or atomic coordinate data resulting 
# from the CCDC's data processing and validation procedures.
#
#######################################################################

data_QUJBII
_symmetry_cell_setting           monoclinic
_symmetry_space_group_name_H-M   'P 21/n'
_symmetry_Int_Tables_number      14
_space_group_name_Hall           '-P 2yn'
loop_
_symmetry_equiv_pos_site_id
_symmetry_equiv_pos_as_xyz
1 x,y,z
2 1/2-x,1/2+y,1/2-z
3 -x,-y,-z
4 1/2+x,1/2-y,1/2+z
_cell_length_a                   11.917(6)
_cell_length_b                   34.750(18)
_cell_length_c                   23.067(12)
_cell_angle_alpha                90
_cell_angle_beta                 98.817(8)
_cell_angle_gamma                90
_cell_volume                     9439.53
loop_
_atom_site_label
_atom_site_type_symbol
_atom_site_fract_x
_atom_site_fract_y
_atom_site_fract_z
C1 C 0.6834(7) 0.2018(2) 0.0420(3)
C2 C 0.5814(10) 0.2061(4) 0.0726(5)
C3 C 0.5281(12) 0.2437(4) 0.0673(7)
H1 H 0.4636 0.2437 0.0876
H2 H 0.5039 0.2495 0.0266
H3 H 0.5816 0.2628 0.0841
C4 C 0.6156(18) 0.2007(7) 0.1357(7)
H4 H 0.5514 0.2049 0.1555
H5 H 0.6746 0.2187 0.1499
H6 H 0.6431 0.1749 0.1431
C5 C 0.5047(14) 0.1743(7) 0.0548(14)
H7 H 0.4371 0.1772 0.0723
H8 H 0.5413 0.1505 0.0676
H9 H 0.4851 0.1741 0.0129
C6 C 0.9928(6) 0.2285(2) 0.0288(3)
C7 C 1.0979(10) 0.2534(3) 0.0506(6)
C8 C 1.0605(11) 0.2891(4) 0.0760(10)
H10 H 1.1255 0.3047 0.0900
H11 H 1.0210 0.2829 0.1081
H12 H 1.0106 0.3030 0.0466
C9 C 1.1572(12) 0.2622(6) -0.0035(8)
H13 H 1.2226 0.2781 0.0083
H14 H 1.1052 0.2754 -0.0328
H15 H 1.1804 0.2385 -0.0195
C10 C 1.1823(10) 0.2309(4) 0.0922(6)
H16 H 1.2466 0.2469 0.1059
H17 H 1.2068 0.2089 0.0724
H18 H 1.1475 0.2225 0.1249
C11 C 1.0479(7) 0.1188(2) -0.0481(4)
C12 C 1.1746(9) 0.1101(4) -0.0478(5)
C13 C 1.2389(9) 0.1020(5) 0.0100(5)
H19 H 1.3165 0.0967 0.0063
H20 H 1.2067 0.0801 0.0267
H21 H 1.2359 0.1239 0.0350
C14 C 1.2210(11) 0.1428(6) -0.0758(9)
H22 H 1.3001 0.1385 -0.0772
H23 H 1.2123 0.1658 -0.0538
H24 H 1.1810 0.1458 -0.1150
C15 C 1.1820(13) 0.0794(7) -0.0905(9)
H25 H 1.2603 0.0732 -0.0911
H26 H 1.1477 0.0879 -0.1287
H27 H 1.1429 0.0570 -0.0796
C16 C 0.7347(6) 0.08855(18) -0.0339(4)
C17 C 0.6446(7) 0.0576(2) -0.0285(3)
C18 C 0.5383(8) 0.0707(3) -0.0569(6)
H28 H 0.4818 0.0514 -0.0542
H29 H 0.5426 0.0758 -0.0974
H30 H 0.5180 0.0939 -0.0384
C19 C 0.6404(13) 0.0481(4) 0.0325(4)
H31 H 0.5830 0.0290 0.0344
H32 H 0.6227 0.0708 0.0530
H33 H 0.7128 0.0383 0.0503
C20 C 0.6633(10) 0.0213(3) -0.0630(6)
H34 H 0.6042 0.0030 -0.0595
H35 H 0.7356 0.0102 -0.0477
H36 H 0.6617 0.0277 -0.1036
C21 C 0.6113(7) 0.1844(2) -0.1527(3)
C22 C 0.4929(9) 0.1863(3) -0.1892(5)
C23 C 0.4355(9) 0.1470(3) -0.1905(6)
H37 H 0.3611 0.1486 -0.2133
H38 H 0.4290 0.1393 -0.1512
H39 H 0.4801 0.1285 -0.2078
C24 C 0.4184(10) 0.2143(4) -0.1653(8)
H40 H 0.3447 0.2141 -0.1889
H41 H 0.4506 0.2396 -0.1658
H42 H 0.4115 0.2074 -0.1257
C25 C 0.5086(13) 0.1957(8) -0.2502(7)
H43 H 0.4359 0.1968 -0.2747
H44 H 0.5543 0.1761 -0.2646
H45 H 0.5458 0.2201 -0.2508
C26 C 0.9071(6) 0.2144(3) -0.1666(3)
C27 C 0.9656(9) 0.2329(3) -0.2146(4)
C28 C 1.0745(8) 0.2180(4) -0.2163(6)
H46 H 1.1251 0.2264 -0.1822
H47 H 1.1017 0.2270 -0.2509
H48 H 1.0712 0.1904 -0.2169
C29 C 0.8949(13) 0.2187(6) -0.2729(6)
H49 H 0.9271 0.2288 -0.3054
H50 H 0.8180 0.2276 -0.2752
H51 H 0.8960 0.1911 -0.2740
C30 C 0.9381(16) 0.2726(3) -0.2231(7)
H52 H 0.9758 0.2871 -0.1904
H53 H 0.8575 0.2759 -0.2259
H54 H 0.9625 0.2814 -0.2585
C31 C 0.9279(7) 0.1015(2) -0.2199(3)
H55 H 0.9818 0.1205 -0.2087
C32 C 0.9528(7) 0.0747(2) -0.2600(3)
H56 H 1.0201 0.0755 -0.2758
C33 C 0.8707(8) 0.0460(2) -0.2757(3)
C34 C 0.7702(7) 0.0470(2) -0.2516(3)
H57 H 0.7134 0.0288 -0.2614
C35 C 0.7590(7) 0.0766(2) -0.2122(3)
H58 H 0.6916 0.0774 -0.1965
C36 C 0.8236(6) -0.01220(18) -0.3295(3)
H59 H 0.7632 -0.0042 -0.3602
H60 H 0.7904 -0.0212 -0.2961
C37 C 0.8989(6) -0.04439(18) -0.3520(3)
C38 C 0.9832(6) -0.05996(19) -0.3012(3)
H61 H 1.0359 -0.0776 -0.3154
H62 H 1.0262 -0.0391 -0.2805
C39 C 0.9718(8) -0.0952(2) -0.2133(3)
C40 C 0.9002(8) -0.1133(3) -0.1783(4)
H63 H 0.8220 -0.1141 -0.1898
C41 C 0.9514(8) -0.1298(2) -0.1258(4)
H64 H 0.9048 -0.1419 -0.1025
C42 C 1.1239(7) -0.1126(2) -0.1399(3)
H65 H 1.2019 -0.1129 -0.1274
C43 C 1.0861(7) -0.0937(2) -0.1942(3)
H66 H 1.1358 -0.0811 -0.2152
C44 C 0.8137(6) -0.07500(18) -0.3780(3)
H67 H 0.7724 -0.0851 -0.3483
H68 H 0.7599 -0.0644 -0.4098
C45 C 0.8338(8) -0.1412(2) -0.4082(3)
C46 C 0.7292(7) -0.1501(2) -0.4042(3)
H69 H 0.6773 -0.1317 -0.3958
C47 C 0.6989(6) -0.1886(2) -0.4133(3)
H70 H 0.6245 -0.1953 -0.4102
C48 C 0.8725(8) -0.2054(2) -0.4288(3)
H71 H 0.9231 -0.2246 -0.4359
C49 C 0.9132(7) -0.1682(2) -0.4224(3)
H72 H 0.9870 -0.1615 -0.4270
C50 C 0.9709(7) -0.02942(19) -0.3952(3)
H73 H 1.0262 -0.0116 -0.3750
H74 H 1.0125 -0.0508 -0.4087
C51 C 0.8576(9) -0.0300(3) -0.4925(5)
H75 H 0.8650 -0.0566 -0.4926
C52 C 0.7946(10) -0.0117(4) -0.5404(5)
H76 H 0.7594 -0.0259 -0.5723
C53 C 0.7850(12) 0.0289(5) -0.5396(6)
C54 C 0.8412(10) 0.0509(4) -0.4918(5)
H77 H 0.8380 0.0776 -0.4915
C55 C 0.9005(9) 0.0304(3) -0.4461(4)
H78 H 0.9374 0.0438 -0.4137
N1 N 0.8317(6) 0.10265(16) -0.1955(2)
N2 N 1.0633(5) -0.12922(16) -0.1067(2)
N3 N 0.7654(5) -0.21588(15) -0.4256(2)
N4 N 0.9075(6) -0.0099(2) -0.4466(3)
O1 O 0.7514(4) 0.17556(14) 0.05906(18)
O2 O 0.8284(3) 0.17240(10) -0.05410(15)
O3 O 0.6905(4) 0.22405(13) 0.0016(2)
O4 O 0.9851(4) 0.19653(14) 0.0476(2)
O5 O 0.9234(4) 0.24500(12) -0.0102(2)
O6 O 1.0195(4) 0.12538(14) 0.0003(2)
O7 O 0.9862(4) 0.11908(14) -0.0962(2)
O8 O 0.7831(4) 0.10428(12) 0.0112(2)
O9 O 0.7512(4) 0.09513(12) -0.0857(2)
O10 O 0.6425(4) 0.21286(14) -0.1212(2)
O11 O 0.6694(4) 0.15569(15) -0.1593(2)
O12 O 0.8722(4) 0.23543(12) -0.1319(2)
O13 O 0.8986(4) 0.17933(14) -0.16986(19)
O14 O 0.9029(4) 0.01915(13) -0.3128(2)
O15 O 0.9185(4) -0.07924(16) -0.2636(2)
O16 O 0.8812(5) -0.10449(14) -0.3993(2)
O17 O 0.7283(9) 0.0486(3) -0.5849(4)
Fe1 Fe 0.87850(8) 0.15224(2) 0.02148(4)
Fe2 Fe 0.78658(8) 0.22388(2) -0.06430(4)
Ni1 Ni 0.82668(8) 0.14003(2) -0.12119(4)
N2B N 0.9367(5) 0.12922(16) 0.1067(2)
N3A N 0.7346(5) 0.28412(15) -0.0744(2)
Fe1B Fe 1.12150(8) -0.15224(2) -0.02148(4)
Fe2A Fe 0.71342(8) -0.27612(2) -0.43570(4)
C56 C 0.3415(13) 0.0183(4) -0.2320(6)
C57 C 0.2718(18) 0.0545(5) -0.2334(9)
H79 H 0.2980 0.0697 -0.1993
H80 H 0.1934 0.0479 -0.2338
H81 H 0.2794 0.0690 -0.2680
C58 C 0.3508(17) -0.0114(5) -0.1825(7)
H82 H 0.3786 0.0008 -0.1458
H83 H 0.4023 -0.0315 -0.1899
H84 H 0.2773 -0.0223 -0.1809
C59 C 0.4592(14) 0.0323(5) -0.2406(8)
H85 H 0.4917 0.0473 -0.2073
H86 H 0.4530 0.0479 -0.2754
H87 H 0.5070 0.0105 -0.2447
C60 C 0.2808(16) 0.0010(4) -0.2851(8)
O18 O 0.1961(16) 0.0111(7) -0.3096(7)
O19 O 0.3184(13) -0.0293(6) -0.3035(8)
loop_
_geom_bond_atom_site_label_1
_geom_bond_atom_site_label_2
_geom_bond_site_symmetry_1
_geom_bond_site_symmetry_2
C1 C2 1_555 1_555
C2 C3 1_555 1_555
C3 H1 1_555 1_555
H2 C3 1_555 1_555
H3 C3 1_555 1_555
C4 C2 1_555 1_555
H4 C4 1_555 1_555
H5 C4 1_555 1_555
H6 C4 1_555 1_555
C5 C2 1_555 1_555
H7 C5 1_555 1_555
H8 C5 1_555 1_555
H9 C5 1_555 1_555
C6 C7 1_555 1_555
C7 C8 1_555 1_555
C8 H10 1_555 1_555
H11 C8 1_555 1_555
H12 C8 1_555 1_555
C9 C7 1_555 1_555
H13 C9 1_555 1_555
H14 C9 1_555 1_555
H15 C9 1_555 1_555
C10 C7 1_555 1_555
H16 C10 1_555 1_555
H17 C10 1_555 1_555
H18 C10 1_555 1_555
C11 C12 1_555 1_555
C12 C13 1_555 1_555
C13 H19 1_555 1_555
H20 C13 1_555 1_555
H21 C13 1_555 1_555
C14 C12 1_555 1_555
H22 C14 1_555 1_555
H23 C14 1_555 1_555
H24 C14 1_555 1_555
C15 C12 1_555 1_555
H25 C15 1_555 1_555
H26 C15 1_555 1_555
H27 C15 1_555 1_555
C16 C17 1_555 1_555
C17 C18 1_555 1_555
C18 H28 1_555 1_555
H29 C18 1_555 1_555
H30 C18 1_555 1_555
C19 C17 1_555 1_555
H31 C19 1_555 1_555
H32 C19 1_555 1_555
H33 C19 1_555 1_555
C20 C17 1_555 1_555
H34 C20 1_555 1_555
H35 C20 1_555 1_555
H36 C20 1_555 1_555
C21 C22 1_555 1_555
C22 C23 1_555 1_555
C23 H37 1_555 1_555
H38 C23 1_555 1_555
H39 C23 1_555 1_555
C24 C22 1_555 1_555
H40 C24 1_555 1_555
H41 C24 1_555 1_555
H42 C24 1_555 1_555
C25 C22 1_555 1_555
H43 C25 1_555 1_555
H44 C25 1_555 1_555
H45 C25 1_555 1_555
C26 C27 1_555 1_555
C27 C28 1_555 1_555
C28 H46 1_555 1_555
H47 C28 1_555 1_555
H48 C28 1_555 1_555
C29 C27 1_555 1_555
H49 C29 1_555 1_555
H50 C29 1_555 1_555
H51 C29 1_555 1_555
C30 C27 1_555 1_555
H52 C30 1_555 1_555
H53 C30 1_555 1_555
H54 C30 1_555 1_555
C31 H55 1_555 1_555
C32 C31 1_555 1_555
H56 C32 1_555 1_555
C33 C32 1_555 1_555
C34 C33 1_555 1_555
H57 C34 1_555 1_555
C35 C34 1_555 1_555
H58 C35 1_555 1_555
C36 H59 1_555 1_555
H60 C36 1_555 1_555
C37 C36 1_555 1_555
C38 C37 1_555 1_555
H61 C38 1_555 1_555
H62 C38 1_555 1_555
C39 C40 1_555 1_555
C40 H63 1_555 1_555
C41 C40 1_555 1_555
H64 C41 1_555 1_555
C42 H65 1_555 1_555
C43 C39 1_555 1_555
H66 C43 1_555 1_555
C44 C37 1_555 1_555
H67 C44 1_555 1_555
H68 C44 1_555 1_555
C45 C46 1_555 1_555
C46 H69 1_555 1_555
C47 C46 1_555 1_555
H70 C47 1_555 1_555
C48 H71 1_555 1_555
C49 C45 1_555 1_555
H72 C49 1_555 1_555
C50 C37 1_555 1_555
H73 C50 1_555 1_555
H74 C50 1_555 1_555
C51 H75 1_555 1_555
C52 C51 1_555 1_555
H76 C52 1_555 1_555
C53 C52 1_555 1_555
C54 C53 1_555 1_555
H77 C54 1_555 1_555
C55 C54 1_555 1_555
H78 C55 1_555 1_555
N1 C31 1_555 1_555
N2 C41 1_555 1_555
N3 C47 1_555 1_555
N4 C50 1_555 1_555
O1 C1 1_555 1_555
O2 Fe1 1_555 1_555
O3 C1 1_555 1_555
O4 C6 1_555 1_555
O5 C6 1_555 1_555
O6 C11 1_555 1_555
O7 C11 1_555 1_555
O8 C16 1_555 1_555
O9 C16 1_555 1_555
O10 C21 1_555 1_555
O11 C21 1_555 1_555
O12 C26 1_555 1_555
O13 C26 1_555 1_555
O14 C33 1_555 1_555
O15 C38 1_555 1_555
O16 C44 1_555 1_555
O17 C53 1_555 1_555
Fe1 O1 1_555 1_555
Fe2 O2 1_555 1_555
Ni1 N1 1_555 1_555
C56 C57 1_555 1_555
C57 H79 1_555 1_555
H80 C57 1_555 1_555
H81 C57 1_555 1_555
C58 C56 1_555 1_555
H82 C58 1_555 1_555
H83 C58 1_555 1_555
H84 C58 1_555 1_555
C59 C56 1_555 1_555
H85 C59 1_555 1_555
H86 C59 1_555 1_555
H87 C59 1_555 1_555
C60 C56 1_555 1_555
O18 C60 1_555 1_555
O19 C60 1_555 1_555
N2B Fe1 1_555 1_555
N3A Fe2 1_555 1_555
Fe1B N2 1_555 1_555
Fe2A N3 1_555 1_555
C35 N1 1_555 1_555
C36 O14 1_555 1_555
C39 O15 1_555 1_555
C42 C43 1_555 1_555
C42 N2 1_555 1_555
C45 O16 1_555 1_555
C48 C49 1_555 1_555
C48 N3 1_555 1_555
C51 N4 1_555 1_555
C55 N4 1_555 1_555
O2 Ni1 1_555 1_555
O3 Fe2 1_555 1_555
O4 Fe1 1_555 1_555
O5 Fe2 1_555 1_555
O6 Fe1 1_555 1_555
O7 Ni1 1_555 1_555
O8 Fe1 1_555 1_555
O9 Ni1 1_555 1_555
O10 Fe2 1_555 1_555
O11 Ni1 1_555 1_555
O12 Fe2 1_555 1_555
O13 Ni1 1_555 1_555

#END
