
#######################################################################
#
#                 Cambridge Crystallographic Data Centre
#                                CCDC 
#
#######################################################################
#
# If this CIF has been generated from an entry in the Cambridge 
# Structural Database, then it will include bibliographic, chemical, 
# crystal, experimental, refinement or atomic coordinate data resulting 
# from the CCDC's data processing and validation procedures.
#
#######################################################################

data_QUJFUX
_symmetry_cell_setting           monoclinic
_symmetry_space_group_name_H-M   'C 2/c'
_symmetry_Int_Tables_number      15
_space_group_name_Hall           '-C 2yn'
loop_
_symmetry_equiv_pos_site_id
_symmetry_equiv_pos_as_xyz
1 x,y,z
2 -x,y,1/2-z
3 1/2+x,1/2+y,z
4 1/2-x,1/2+y,1/2-z
5 -x,-y,-z
6 x,-y,1/2+z
7 1/2-x,1/2-y,-z
8 1/2+x,1/2-y,1/2+z
_cell_length_a                   14.8041(9)
_cell_length_b                   10.8197(4)
_cell_length_c                   16.0239(8)
_cell_angle_alpha                90
_cell_angle_beta                 110.092(6)
_cell_angle_gamma                90
_cell_volume                     2410.44
loop_
_atom_site_label
_atom_site_type_symbol
_atom_site_fract_x
_atom_site_fract_y
_atom_site_fract_z
Cd1 Cd 1.28969(3) 0.04168(4) 1.15939(3)
Cd2 Cd 1.5000 -0.48601(5) 1.2500
N1 N 1.3498(3) -0.1395(4) 1.1425(3)
N2 N 1.4056(3) -0.3349(4) 1.1681(3)
C1 C 1.3333(3) -0.1389(5) 0.8256(4)
C2 C 1.3542(3) -0.1983(5) 0.9144(3)
C3 C 1.3395(3) -0.1299(5) 0.9825(3)
H1 H 1.3176 -0.0488 0.9726
C4 C 1.3580(3) -0.1845(5) 1.0651(3)
C5 C 1.3787(3) -0.2325(5) 1.2000(4)
H2 H 1.3800 -0.2266 1.2583
C6 C 1.3919(3) -0.3053(5) 1.0808(4)
C7 C 1.4058(3) -0.3759(5) 1.0129(3)
H3 H 1.4280 -0.4569 1.0231
C8 C 1.3858(3) -0.3221(5) 0.9307(4)
C9 C 1.4087(4) -0.3994(5) 0.8625(3)
O1 O 1.3356(2) -0.0224(3) 0.8212(2)
O2 O 1.3113(2) -0.2059(3) 0.7573(2)
O3 O 1.3610(2) -0.4958(3) 0.8328(2)
O4 O 1.4792(2) -0.3675(3) 0.8398(2)
O5 O 1.4264(3) 0.1310(4) 1.1327(4)
O6 O 1.2020(3) 0.1461(4) 1.0378(3)
H5 H 1.178(4) 0.131(6) 0.9849(16)
H6 H 1.167(4) 0.203(4) 1.044(4)
H7 H 1.452(4) 0.199(3) 1.153(4)
H9 H 1.435(4) 0.100(6) 1.089(3)
Cd1D Cd 1.71031(3) -1.04168(4) 0.84061(3)
Cd1E Cd 1.28969(3) -0.04168(4) 0.65939(3)
Cd1F Cd 1.21031(3) -0.54168(4) 0.84061(3)
Cd1A Cd 1.71031(3) -0.95832(4) 1.34061(3)
Cd1B Cd 1.78969(3) -0.45832(4) 1.15939(3)
Cd2D Cd 1.5000 -0.51399(5) 0.7500
N1D N 1.6502(3) -0.8605(4) 0.8575(3)
N2D N 1.5944(3) -0.6651(4) 0.8319(3)
N2A N 1.5944(3) -0.3349(4) 1.3319(3)
C1D C 1.6667(3) -0.8611(5) 1.1744(4)
C2D C 1.6458(3) -0.8017(5) 1.0856(3)
C3D C 1.6605(3) -0.8701(5) 1.0175(3)
H1D H 1.6824 -0.9512 1.0274
C4D C 1.6420(3) -0.8155(5) 0.9349(3)
C5D C 1.6213(3) -0.7675(5) 0.8000(4)
H2D H 1.6200 -0.7734 0.7417
C6D C 1.6081(3) -0.6947(5) 0.9192(4)
C7D C 1.5942(3) -0.6241(5) 0.9871(3)
H3D H 1.5720 -0.5431 0.9769
C8D C 1.6142(3) -0.6779(5) 1.0693(4)
C9D C 1.5913(4) -0.6006(5) 1.1375(3)
O1D O 1.6644(2) -0.9776(3) 1.1788(2)
O1E O 1.3356(2) 0.0224(3) 1.3212(2)
O1A O 1.6644(2) -1.0224(3) 0.6788(2)
O2D O 1.6887(2) -0.7941(3) 1.2427(2)
O2E O 1.3113(2) 0.2059(3) 1.2573(2)
O2A O 1.6887(2) -1.2059(3) 0.7427(2)
O3D O 1.6390(2) -0.5042(3) 1.1672(2)
O3F O 1.1390(2) -0.0042(3) 1.1672(2)
O3B O 1.8610(2) -0.9958(3) 0.8328(2)
O4D O 1.5208(2) -0.6325(3) 1.1602(2)
O4E O 1.4792(2) -0.6325(3) 1.3398(2)
O5D O 1.5736(3) -1.1310(4) 0.8673(4)
O6D O 1.7980(3) -1.1461(4) 0.9622(3)
H5D H 1.822(4) -1.131(6) 1.0151(16)
H6D H 1.833(4) -1.203(4) 0.956(4)
H7D H 1.548(4) -1.199(3) 0.847(4)
H9D H 1.565(4) -1.100(6) 0.911(3)
O7 O 1.3196(3) -0.6015(4) 1.1419(3)
H4 H 1.329(4) -0.658(4) 1.180(3)
H8 H 1.274(3) -0.552(4) 1.139(4)
O8 O 1.0858(3) -0.6560(4) 1.0545(3)
H10 H 1.112(4) -0.602(5) 1.093(4)
H11 H 1.0265(17) -0.659(6) 1.045(5)
loop_
_geom_bond_atom_site_label_1
_geom_bond_atom_site_label_2
_geom_bond_site_symmetry_1
_geom_bond_site_symmetry_2
Cd1 N1 1_555 1_555
Cd2 N2 1_555 1_555
N1 C4 1_555 1_555
N2 C5 1_555 1_555
C1 C2 1_555 1_555
C2 C3 1_555 1_555
C3 H1 1_555 1_555
C4 C3 1_555 1_555
C5 N1 1_555 1_555
H2 C5 1_555 1_555
C6 N2 1_555 1_555
C7 C6 1_555 1_555
H3 C7 1_555 1_555
C8 C2 1_555 1_555
C9 C8 1_555 1_555
O1 C1 1_555 1_555
O2 C1 1_555 1_555
O3 C9 1_555 1_555
O4 C9 1_555 1_555
O5 Cd1 1_555 1_555
O6 Cd1 1_555 1_555
O7 H4 1_555 1_555
H5 O6 1_555 1_555
H6 O6 1_555 1_555
H7 O5 1_555 1_555
H8 O7 1_555 1_555
H9 O5 1_555 1_555
O8 H10 1_555 1_555
H11 O8 1_555 1_555
Cd1D N1D 1_555 1_555
Cd1E O1 1_555 1_555
Cd1F O3 1_555 1_555
Cd1A O1D 1_555 1_555
Cd1B O3D 1_555 1_555
Cd2D O4 1_555 1_555
N1D C4D 1_555 1_555
N2D Cd2D 1_555 1_555
N2A Cd2 1_555 1_555
C1D C2D 1_555 1_555
C2D C3D 1_555 1_555
C3D H1D 1_555 1_555
C4D C3D 1_555 1_555
C5D N1D 1_555 1_555
H2D C5D 1_555 1_555
C6D N2D 1_555 1_555
C7D C6D 1_555 1_555
H3D C7D 1_555 1_555
C8D C2D 1_555 1_555
C9D C8D 1_555 1_555
O1D C1D 1_555 1_555
O1E Cd1 1_555 1_555
O1A Cd1D 1_555 1_555
O2D Cd1A 1_555 1_555
O2E Cd1 1_555 1_555
O2A Cd1D 1_555 1_555
O3D C9D 1_555 1_555
O3F Cd1 1_555 1_555
O3B Cd1D 1_555 1_555
O4D Cd2 1_555 1_555
O4E Cd2 1_555 1_555
O5D Cd1D 1_555 1_555
O6D Cd1D 1_555 1_555
H5D O6D 1_555 1_555
H6D O6D 1_555 1_555
H7D O5D 1_555 1_555
H9D O5D 1_555 1_555
C4 C6 1_555 1_555
C7 C8 1_555 1_555
O2 Cd1E 1_555 1_555
N2D C5D 1_555 1_555
C1D O2D 1_555 1_555
C4D C6D 1_555 1_555
C7D C8D 1_555 1_555
C9D O4D 1_555 1_555

#END
