
#######################################################################
#
#                 Cambridge Crystallographic Data Centre
#                                CCDC 
#
#######################################################################
#
# If this CIF has been generated from an entry in the Cambridge 
# Structural Database, then it will include bibliographic, chemical, 
# crystal, experimental, refinement or atomic coordinate data resulting 
# from the CCDC's data processing and validation procedures.
#
#######################################################################

data_QUJFAE
_symmetry_cell_setting           triclinic
_symmetry_space_group_name_H-M   'P -1'
_symmetry_Int_Tables_number      2
_space_group_name_Hall           '-P 1'
loop_
_symmetry_equiv_pos_site_id
_symmetry_equiv_pos_as_xyz
1 x,y,z
2 -x,-y,-z
_cell_length_a                   9.51350(10)
_cell_length_b                   11.5738(2)
_cell_length_c                   13.9234(2)
_cell_angle_alpha                107.5140(10)
_cell_angle_beta                 101.7770(10)
_cell_angle_gamma                97.0910(10)
_cell_volume                     1402.88
loop_
_atom_site_label
_atom_site_type_symbol
_atom_site_fract_x
_atom_site_fract_y
_atom_site_fract_z
Ag1 Ag 0.954075(15) 0.725098(14) 0.807973(12)
Ag2 Ag 0.983302(15) 0.828468(14) 0.528209(11)
N1 N 1.15202(17) 0.83433(16) 0.94747(13)
O1 O 0.98386(14) 0.96540(13) 0.86214(11)
O2 O 1.12260(14) 0.58029(12) 0.85603(10)
S1 S 0.84941(5) 0.77101(4) 0.64745(4)
S2 S 0.95943(5) 0.24622(5) 0.64236(4)
C1 C 1.3577(2) 0.8173(2) 1.07005(16)
H1 H 1.4086 0.7673 1.1019
C2 C 1.4145(2) 0.9421(2) 1.09695(17)
H2 H 1.5048 0.9790 1.1480
C3 C 1.3388(2) 1.0121(2) 1.04885(16)
H3 H 1.3754 1.0980 1.0668
C4 C 1.2078(2) 0.95501(19) 0.97361(16)
C5 C 1.1276(2) 1.0306(2) 0.91758(17)
H4 H 1.1234 1.1099 0.9688
H5 H 1.1816 1.0492 0.8686
C6 C 0.9160(2) 1.01059(19) 0.78310(15)
H6 H 0.9870 1.0298 0.7444
H7 H 0.8817 1.0871 0.8149
C7 C 0.7873(2) 0.91110(19) 0.70981(15)
H8 H 0.7358 0.9416 0.6559
H9 H 0.7173 0.8920 0.7493
C8 C 0.6719(2) 0.66793(19) 0.57830(16)
H10 H 0.6104 0.6680 0.6278
H11 H 0.6208 0.6981 0.5240
C9 C 0.69215(19) 0.53845(18) 0.52856(16)
C10 C 0.6785(2) 0.4903(2) 0.42221(16)
H12 H 0.6585 0.5404 0.3801
C11 C 0.6936(2) 0.3698(2) 0.37681(16)
H13 H 0.6845 0.3379 0.3040
C12 C 0.7220(2) 0.2956(2) 0.43732(16)
H14 H 0.7317 0.2130 0.4057
C13 C 0.7365(2) 0.34186(18) 0.54475(15)
C14 C 0.72124(19) 0.46303(18) 0.58933(15)
H15 H 0.7307 0.4951 0.6622
C15 C 0.7677(2) 0.26269(19) 0.61176(16)
H16 H 0.7049 0.1795 0.5756
H17 H 0.7404 0.2991 0.6778
C16 C 1.0554(2) 0.40507(18) 0.70591(15)
H18 H 1.1575 0.4116 0.6995
H19 H 1.0078 0.4577 0.6703
C17 C 1.0566(2) 0.45235(18) 0.81977(15)
H20 H 0.9557 0.4413 0.8284
H21 H 1.1143 0.4077 0.8588
C18 C 1.1548(2) 0.63355(19) 0.96681(15)
H22 H 1.2217 0.5896 1.0001
H23 H 1.0636 0.6271 0.9903
C19 C 1.2259(2) 0.76692(19) 0.99611(15)
O3 O 0.80298(15) 0.60181(15) 0.86701(12)
O4 O 0.63819(17) 0.70620(14) 0.81285(12)
F1 F 0.61022(16) 0.59587(14) 0.99632(10)
F2 F 0.56404(16) 0.44005(13) 0.85769(12)
F3 F 0.43499(14) 0.57864(17) 0.86618(14)
C20 C 0.6807(2) 0.63119(19) 0.85252(15)
C21 C 0.5700(2) 0.5616(2) 0.89256(17)
O5 O 0.80110(15) 0.96305(14) 0.49019(11)
O6 O 0.82031(15) 1.01691(13) 0.35021(11)
F4 F 0.51490(14) 0.88247(16) 0.31574(12)
F5 F 0.65868(16) 0.79723(13) 0.22944(11)
F6 F 0.6274(2) 0.75100(15) 0.36190(13)
C22 C 0.7684(2) 0.95198(18) 0.39630(16)
C23 C 0.6426(2) 0.8442(2) 0.32541(18)
Ag2A Ag 1.016698(15) 0.171532(14) 0.471791(11)
Ag2A_2 Ag 1.016698(15) 1.171532(14) 0.471791(11)
S2A S 1.04057(5) 0.75378(5) 0.35764(4)
O6A O 1.17969(15) 0.98309(13) 0.64979(11)
loop_
_geom_bond_atom_site_label_1
_geom_bond_atom_site_label_2
_geom_bond_site_symmetry_1
_geom_bond_site_symmetry_2
Ag1 N1 1_555 1_555
Ag2 S1 1_555 1_555
N1 C4 1_555 1_555
O1 Ag1 1_555 1_555
O2 Ag1 1_555 1_555
S1 Ag1 1_555 1_555
S2 C15 1_555 1_555
C1 H1 1_555 1_555
C2 C1 1_555 1_555
H2 C2 1_555 1_555
C3 C2 1_555 1_555
H3 C3 1_555 1_555
C4 C3 1_555 1_555
C5 O1 1_555 1_555
H4 C5 1_555 1_555
H5 C5 1_555 1_555
C6 O1 1_555 1_555
H6 C6 1_555 1_555
H7 C6 1_555 1_555
C7 S1 1_555 1_555
H8 C7 1_555 1_555
H9 C7 1_555 1_555
C8 S1 1_555 1_555
H10 C8 1_555 1_555
H11 C8 1_555 1_555
C9 C8 1_555 1_555
C10 C9 1_555 1_555
H12 C10 1_555 1_555
C11 C10 1_555 1_555
H13 C11 1_555 1_555
C12 C11 1_555 1_555
H14 C12 1_555 1_555
C13 C12 1_555 1_555
C14 C9 1_555 1_555
H15 C14 1_555 1_555
C15 C13 1_555 1_555
H16 C15 1_555 1_555
H17 C15 1_555 1_555
C16 S2 1_555 1_555
H18 C16 1_555 1_555
H19 C16 1_555 1_555
C17 O2 1_555 1_555
H20 C17 1_555 1_555
H21 C17 1_555 1_555
C18 O2 1_555 1_555
H22 C18 1_555 1_555
H23 C18 1_555 1_555
C19 N1 1_555 1_555
O3 Ag1 1_555 1_555
O4 C20 1_555 1_555
F1 C21 1_555 1_555
F2 C21 1_555 1_555
F3 C21 1_555 1_555
C20 O3 1_555 1_555
C21 C20 1_555 1_555
O5 Ag2 1_555 1_555
O6 C22 1_555 1_555
F4 C23 1_555 1_555
F5 C23 1_555 1_555
F6 C23 1_555 1_555
C22 O5 1_555 1_555
C23 C22 1_555 1_555
Ag2A S2 1_555 1_555
Ag2A_2 O6 1_555 1_555
S2A Ag2 1_555 1_555
O6A Ag2 1_555 1_555
C1 C19 1_555 1_555
C4 C5 1_555 1_555
C6 C7 1_555 1_555
C13 C14 1_555 1_555
C16 C17 1_555 1_555
C18 C19 1_555 1_555

#END
