
#######################################################################
#
#                 Cambridge Crystallographic Data Centre
#                                CCDC 
#
#######################################################################
#
# If this CIF has been generated from an entry in the Cambridge 
# Structural Database, then it will include bibliographic, chemical, 
# crystal, experimental, refinement or atomic coordinate data resulting 
# from the CCDC's data processing and validation procedures.
#
#######################################################################

data_QUJHEJ
_symmetry_cell_setting           monoclinic
_symmetry_space_group_name_H-M   'P 21/c'
_symmetry_Int_Tables_number      14
_space_group_name_Hall           '-P 2ybc'
loop_
_symmetry_equiv_pos_site_id
_symmetry_equiv_pos_as_xyz
1 x,y,z
2 -x,1/2+y,1/2-z
3 -x,-y,-z
4 x,1/2-y,1/2+z
_cell_length_a                   10.496(5)
_cell_length_b                   12.964(5)
_cell_length_c                   16.115(5)
_cell_angle_alpha                90
_cell_angle_beta                 95.166(5)
_cell_angle_gamma                90
_cell_volume                     2183.86
loop_
_atom_site_label
_atom_site_type_symbol
_atom_site_fract_x
_atom_site_fract_y
_atom_site_fract_z
Co1 Co 0.14315(2) 0.160112(19) 0.543007(16)
O1 O 0.10017(14) 0.05796(11) 0.44361(8)
H1 H 0.1315 0.0015 0.4495
H2 H 0.0292 0.0480 0.4237
O2 O 0.30509(14) 0.06312(11) 0.58325(9)
O3 O 0.11939(13) 0.03014(11) 0.62917(9)
O4 O -0.02285(13) 0.23758(11) 0.52334(10)
O5 O -0.18901(15) 0.13214(12) 0.52624(13)
C1 C -0.22767(18) 0.30465(15) 0.48382(12)
C2 C -0.43969(18) 0.36567(15) 0.43557(12)
N1 N -0.76761(15) 0.25950(12) 0.45853(10)
N2 N 0.79784(16) -0.24053(13) 0.85257(10)
C3 C 0.6222(2) -0.17038(16) 0.76245(12)
C4 C -0.6554(2) 0.40061(17) 0.35798(14)
H3 H -0.6189 0.4486 0.3244
C5 C -0.57924(18) 0.34675(15) 0.41866(12)
C6 C -0.35741(18) 0.28693(14) 0.46497(12)
H4 H -0.3901 0.2212 0.4721
C7 C 0.2361(2) 0.00905(16) 0.62648(12)
C8 C 0.4253(2) -0.08693(15) 0.69330(12)
H5 H 0.4774 -0.0371 0.6723
C9 C -0.14091(19) 0.21714(15) 0.51379(12)
C10 C -0.2593(2) 0.48129(16) 0.44331(15)
H6 H -0.2263 0.5468 0.4357
C11 C 0.8789(2) -0.18024(17) 0.81477(14)
H7 H 0.9656 -0.1823 0.8326
C12 C 0.2935(2) -0.07979(15) 0.67640(12)
C13 C -0.7856(2) 0.38209(18) 0.34813(14)
H8 H -0.8371 0.4167 0.3072
C14 C 0.2152(2) -0.15407(19) 0.70687(15)
H9 H 0.1268 -0.1488 0.6969
C15 C -0.1788(2) 0.40275(16) 0.47292(14)
H10 H -0.0921 0.4155 0.4855
C16 C 0.8371(2) -0.1152(2) 0.75019(15)
H11 H 0.8954 -0.0749 0.7245
C17 C 0.4811(2) -0.16716(16) 0.74101(13)
C18 C -0.64106(18) 0.27611(14) 0.46593(12)
H12 H -0.5913 0.2377 0.5054
C19 C 0.4001(2) -0.2426(2) 0.76874(17)
H13 H 0.4351 -0.2984 0.7990
C20 C -0.83829(19) 0.31235(16) 0.39907(13)
H14 H -0.9261 0.3012 0.3923
C21 C -0.3888(2) 0.46327(16) 0.42490(14)
H15 H -0.4422 0.5169 0.4053
C22 C 0.6739(2) -0.23497(15) 0.82589(13)
H16 H 0.6178 -0.2774 0.8516
C23 C 0.7086(2) -0.11035(19) 0.72389(14)
H17 H 0.6800 -0.0668 0.6803
C24 C 0.2688(3) -0.2358(2) 0.75201(19)
H18 H 0.2165 -0.2868 0.7713
Co1_2 Co -0.85685(2) 0.160112(19) 0.543007(16)
Co1A Co 0.85685(2) -0.339888(19) 0.956993(16)
N1_2 N 0.23239(15) 0.25950(12) 0.45853(10)
N2A N 0.20216(16) 0.25947(13) 0.64743(10)
O6 O 0.5808(3) 0.0630(3) 0.5748(2)
H19 H 0.6248 0.1129 0.5584
H20 H 0.5826 0.0149 0.5391
loop_
_geom_bond_atom_site_label_1
_geom_bond_atom_site_label_2
_geom_bond_site_symmetry_1
_geom_bond_site_symmetry_2
Co1 O1 1_555 1_555
O1 H1 1_555 1_555
H2 O1 1_555 1_555
O2 Co1 1_555 1_555
O3 Co1 1_555 1_555
O4 Co1 1_555 1_555
O5 C9 1_555 1_555
C1 C6 1_555 1_555
C2 C5 1_555 1_555
N1 C18 1_555 1_555
N2 C11 1_555 1_555
C3 C17 1_555 1_555
C4 H3 1_555 1_555
C5 C4 1_555 1_555
C6 C2 1_555 1_555
H4 C6 1_555 1_555
C7 O2 1_555 1_555
C8 H5 1_555 1_555
C9 O4 1_555 1_555
C10 H6 1_555 1_555
C11 H7 1_555 1_555
C12 C7 1_555 1_555
C13 C4 1_555 1_555
H8 C13 1_555 1_555
C14 C12 1_555 1_555
H9 C14 1_555 1_555
C15 C1 1_555 1_555
H10 C15 1_555 1_555
C16 C11 1_555 1_555
H11 C16 1_555 1_555
C17 C8 1_555 1_555
C18 C5 1_555 1_555
H12 C18 1_555 1_555
C19 C17 1_555 1_555
H13 C19 1_555 1_555
C20 N1 1_555 1_555
H14 C20 1_555 1_555
C21 C2 1_555 1_555
H15 C21 1_555 1_555
C22 N2 1_555 1_555
H16 C22 1_555 1_555
C23 C3 1_555 1_555
H17 C23 1_555 1_555
C24 C14 1_555 1_555
H18 C24 1_555 1_555
O6 H19 1_555 1_555
H20 O6 1_555 1_555
Co1_2 N1 1_555 1_555
Co1A N2 1_555 1_555
N1_2 Co1 1_555 1_555
N2A Co1 1_555 1_555
O3 C7 1_555 1_555
C1 C9 1_555 1_555
C3 C22 1_555 1_555
C8 C12 1_555 1_555
C10 C15 1_555 1_555
C10 C21 1_555 1_555
C13 C20 1_555 1_555
C16 C23 1_555 1_555
C19 C24 1_555 1_555

#END
