
#######################################################################
#
#                 Cambridge Crystallographic Data Centre
#                                CCDC 
#
#######################################################################
#
# If this CIF has been generated from an entry in the Cambridge 
# Structural Database, then it will include bibliographic, chemical, 
# crystal, experimental, refinement or atomic coordinate data resulting 
# from the CCDC's data processing and validation procedures.
#
#######################################################################

data_QUJKIQ
_symmetry_cell_setting           monoclinic
_symmetry_space_group_name_H-M   'C 2/c'
_symmetry_Int_Tables_number      15
_space_group_name_Hall           '-C 2yn'
loop_
_symmetry_equiv_pos_site_id
_symmetry_equiv_pos_as_xyz
1 x,y,z
2 -x,y,1/2-z
3 1/2+x,1/2+y,z
4 1/2-x,1/2+y,1/2-z
5 -x,-y,-z
6 x,-y,1/2+z
7 1/2-x,1/2-y,-z
8 1/2+x,1/2-y,1/2+z
_cell_length_a                   12.6175(3)
_cell_length_b                   11.4711(2)
_cell_length_c                   7.4421(2)
_cell_angle_alpha                90
_cell_angle_beta                 122.556(1)
_cell_angle_gamma                90
_cell_volume                     907.888
loop_
_atom_site_label
_atom_site_type_symbol
_atom_site_fract_x
_atom_site_fract_y
_atom_site_fract_z
Sr1 Sr 0.5000 0.081953(19) 1.2500
C1 C 0.26277(16) 0.04655(15) 0.8107(3)
C2 C 0.12669(16) 0.02254(15) 0.6488(3)
C3 C 0.03868(16) 0.11310(15) 0.5726(3)
C4 C 0.08707(17) -0.09065(15) 0.5763(3)
H1 H 0.147(2) -0.151(2) 0.627(3)
O1 O 0.29067(12) 0.14525(11) 0.9038(2)
O2 O 0.34426(12) -0.02993(11) 0.8559(2)
O3 O 0.07560(12) 0.22564(11) 0.6418(2)
H2 H 0.161(3) 0.220(2) 0.753(4)
O4 O 0.5000 -0.1427(2) 1.2500
H3 H 0.532(3) -0.184(3) 1.350(4)
Sr1D Sr 0.5000 -0.081953(19) 0.7500
Sr1F Sr 0.0000 0.418047(19) 0.7500
Sr1D_2 Sr -0.5000 -0.081953(19) -0.2500
Sr1_2 Sr -0.5000 0.081953(19) 0.2500
Sr1B Sr 0.0000 -0.418047(19) 0.2500
C1D C -0.26277(16) -0.04655(15) 0.1893(3)
C2D C -0.12669(16) -0.02254(15) 0.3512(3)
C3D C -0.03868(16) -0.11310(15) 0.4274(3)
C4D C -0.08707(17) 0.09065(15) 0.4237(3)
H1D H -0.147(2) 0.151(2) 0.373(3)
O1D O -0.29067(12) -0.14525(11) 0.0962(2)
O1A O 0.70933(12) 0.14525(11) 1.5962(2)
O2D O -0.34426(12) 0.02993(11) 0.1441(2)
O2A O 0.65574(12) -0.02993(11) 1.6441(2)
O2D_2 O 0.65574(12) 0.02993(11) 1.1441(2)
O2E O 0.34426(12) 0.02993(11) 1.3559(2)
O3D O -0.07560(12) -0.22564(11) 0.3582(2)
O3F O 0.42440(12) 0.27436(11) 1.3582(2)
O3G O 0.57560(12) 0.27436(11) 1.1418(2)
H2D H -0.161(3) -0.220(2) 0.247(4)
H2F H 0.339(3) 0.280(2) 1.247(4)
H2G H 0.661(3) 0.280(2) 1.253(4)
H3A H 0.468(3) -0.184(3) 1.150(4)
loop_
_geom_bond_atom_site_label_1
_geom_bond_atom_site_label_2
_geom_bond_site_symmetry_1
_geom_bond_site_symmetry_2
Sr1 O1 1_555 1_555
C1 C2 1_555 1_555
C2 C3 1_555 1_555
C3 O3 1_555 1_555
C4 C2 1_555 1_555
H1 C4 1_555 1_555
O1 C1 1_555 1_555
O2 Sr1 1_555 1_555
O3 H2 1_555 1_555
O4 Sr1 1_555 1_555
H3 O4 1_555 1_555
Sr1D O2 1_555 1_555
Sr1F O3 1_555 1_555
Sr1D_2 O1D 1_555 1_555
Sr1_2 O2D 1_555 1_555
Sr1B O3D 1_555 1_555
C1D C2D 1_555 1_555
C2D C3D 1_555 1_555
C3D C4 1_555 1_555
C4D C3 1_555 1_555
H1D C4D 1_555 1_555
O1D C1D 1_555 1_555
O1A Sr1 1_555 1_555
O2D Sr1D_2 1_555 1_555
O2A Sr1 1_555 1_555
O2D_2 Sr1 1_555 1_555
O2E Sr1 1_555 1_555
O3D C3D 1_555 1_555
O3F Sr1 1_555 1_555
O3G Sr1 1_555 1_555
H2D O3D 1_555 1_555
H2F O3F 1_555 1_555
H2G O3G 1_555 1_555
H3A O4 1_555 1_555
C1 O2 1_555 1_555
Sr1D O2D_2 1_555 1_555
C1D O2D 1_555 1_555
C2D C4D 1_555 1_555

#END
