
#######################################################################
#
#                 Cambridge Crystallographic Data Centre
#                                CCDC 
#
#######################################################################
#
# If this CIF has been generated from an entry in the Cambridge 
# Structural Database, then it will include bibliographic, chemical, 
# crystal, experimental, refinement or atomic coordinate data resulting 
# from the CCDC's data processing and validation procedures.
#
#######################################################################

data_QUJVIA01
_symmetry_cell_setting           monoclinic
_symmetry_space_group_name_H-M   'P 21/c'
_symmetry_Int_Tables_number      14
_space_group_name_Hall           '-P 2ybc'
loop_
_symmetry_equiv_pos_site_id
_symmetry_equiv_pos_as_xyz
1 x,y,z
2 x,1/2-y,1/2+z
3 -x,-y,-z
4 -x,1/2+y,1/2-z
_cell_length_a                   7.5550(2)
_cell_length_b                   11.3017(5)
_cell_length_c                   11.8904(4)
_cell_angle_alpha                90
_cell_angle_beta                 107.142(2)
_cell_angle_gamma                90
_cell_volume                     970.154
loop_
_atom_site_label
_atom_site_type_symbol
_atom_site_fract_x
_atom_site_fract_y
_atom_site_fract_z
Cu1 Cu 0.32845(2) 0.04027(2) 0.261733(14)
N1 N 0.3357(2) -0.08593(11) 0.39188(10)
N2 N 0.4807(2) -0.11688(11) 0.59708(10)
N3 N 0.2803(2) 0.19143(13) 0.17628(12)
N4 N 0.1928(2) 0.35836(14) 0.04058(14)
N5 N -0.0184(2) 0.35921(14) -0.16225(13)
N6 N 0.1089(2) -0.03899(12) 0.15800(11)
N7 N -0.2272(2) -0.0616(2) 0.08972(13)
N8 N -0.4604(2) -0.02884(13) 0.19279(13)
C1 C 0.4491(2) -0.05579(12) 0.49662(12)
C2 C 0.2437(2) -0.18961(13) 0.38605(13)
H1 H 0.1631 -0.21568 0.31286
C3 C 0.2664(2) -0.25815(14) 0.48618(13)
H2 H 0.2016 -0.33080 0.48241
C4 C 0.3859(2) -0.21819(13) 0.59229(13)
H3 H 0.4006 -0.26309 0.66199
C5 C 0.2338(2) 0.26558(14) 0.10802(13)
C6 C 0.0785(2) 0.35245(14) -0.06717(14)
C7 C -0.0506(2) -0.04748(13) 0.13245(12)
C8 C -0.3432(2) -0.04192(13) 0.15026(13)
C1B C 0.5509(2) 0.05579(12) 0.50338(12)
N1B N 0.6643(2) 0.08593(11) 0.60812(10)
C2B C 0.7563(2) 0.18961(13) 0.61395(13)
H1B H 0.8369 0.21568 0.68714
C3B C 0.7336(2) 0.25815(14) 0.51382(13)
H2B H 0.7984 0.33080 0.51759
C4B C 0.6141(2) 0.21819(13) 0.40771(13)
N2B N 0.5193(2) 0.11688(11) 0.40292(10)
H3B H 0.5994 0.26309 0.33801
N6_2 N 1.1089(2) -0.03899(12) 0.15800(11)
N7_2 N 0.7728(2) -0.0616(2) 0.08972(13)
N8_2 N 0.5396(2) -0.02884(13) 0.19279(13)
C7_2 C 0.9494(2) -0.04748(13) 0.13245(12)
C8_2 C 0.6568(2) -0.04192(13) 0.15026(13)
Cu1B Cu 0.67155(2) -0.04027(2) 0.738267(14)
N3B N 0.7197(2) -0.19143(13) 0.82372(12)
N4B N 0.8072(2) -0.35836(14) 0.95942(14)
N5B N 1.0184(2) -0.35921(14) 1.16225(13)
C5B C 0.7662(2) -0.26558(14) 0.89198(13)
C6B C 0.9215(2) -0.35245(14) 1.06717(14)
Cu1_2 Cu -0.67155(2) 0.04027(2) 0.261733(14)
Cu1_3 Cu 1.32845(2) 0.04027(2) 0.261733(14)
N6B N 0.8911(2) 0.03899(12) 0.84200(11)
N8B N 0.4604(2) 0.02884(13) 0.80721(13)
loop_
_geom_bond_atom_site_label_1
_geom_bond_atom_site_label_2
_geom_bond_site_symmetry_1
_geom_bond_site_symmetry_2
Cu1 N1 1_555 1_555
N1 C1 1_555 1_555
N2 C1 1_555 1_555
N3 Cu1 1_555 1_555
N4 C5 1_555 1_555
N5 C6 1_555 1_555
N6 Cu1 1_555 1_555
N7 C7 1_555 1_555
N8 C8 1_555 1_555
C1 C1B 1_555 1_555
C2 N1 1_555 1_555
H1 C2 1_555 1_555
C3 C2 1_555 1_555
H2 C3 1_555 1_555
C4 N2 1_555 1_555
H3 C4 1_555 1_555
C5 N3 1_555 1_555
C6 N4 1_555 1_555
C7 N6 1_555 1_555
C8 N7 1_555 1_555
C1B N1B 1_555 1_555
N1B C2B 1_555 1_555
C2B H1B 1_555 1_555
C3B C2B 1_555 1_555
H2B C3B 1_555 1_555
C4B C3B 1_555 1_555
N2B Cu1 1_555 1_555
H3B C4B 1_555 1_555
N6_2 C7_2 1_555 1_555
N7_2 C7_2 1_555 1_555
N8_2 Cu1 1_555 1_555
C8_2 N7_2 1_555 1_555
Cu1B N2 1_555 1_555
N3B Cu1B 1_555 1_555
N4B C5B 1_555 1_555
N5B C6B 1_555 1_555
C5B N3B 1_555 1_555
C6B N4B 1_555 1_555
Cu1_2 N8 1_555 1_555
Cu1_3 N6_2 1_555 1_555
N6B Cu1B 1_555 1_555
N8B Cu1B 1_555 1_555
C3 C4 1_555 1_555
C1B N2B 1_555 1_555
N1B Cu1B 1_555 1_555
C4B N2B 1_555 1_555
N8_2 C8_2 1_555 1_555

#END
