
#######################################################################
#
#                 Cambridge Crystallographic Data Centre
#                                CCDC 
#
#######################################################################
#
# If this CIF has been generated from an entry in the Cambridge 
# Structural Database, then it will include bibliographic, chemical, 
# crystal, experimental, refinement or atomic coordinate data resulting 
# from the CCDC's data processing and validation procedures.
#
#######################################################################

data_QUKFOT
_symmetry_cell_setting           triclinic
_symmetry_space_group_name_H-M   'P -1'
_symmetry_Int_Tables_number      2
_space_group_name_Hall           '-P 1'
loop_
_symmetry_equiv_pos_site_id
_symmetry_equiv_pos_as_xyz
1 x,y,z
2 -x,-y,-z
_cell_length_a                   10.445(3)
_cell_length_b                   15.585(4)
_cell_length_c                   15.634(4)
_cell_angle_alpha                113.71(3)
_cell_angle_beta                 93.53(3)
_cell_angle_gamma                93.19(3)
_cell_volume                     2316.73
loop_
_atom_site_label
_atom_site_type_symbol
_atom_site_fract_x
_atom_site_fract_y
_atom_site_fract_z
Cu1 Cu 0.66327(9) 0.43055(6) 0.18303(6)
Cu2 Cu 0.30459(9) 0.44582(6) 0.26279(6)
O1 O 0.5069(5) 0.4375(3) 0.3311(3)
N1 N 0.5794(5) 0.3810(4) 0.2651(4)
N2 N 0.6855(6) 0.2922(4) 0.1144(4)
C1 C 0.5689(7) 0.2900(5) 0.2407(5)
C2 C 0.4826(7) 0.2407(5) 0.2801(5)
C3 C 0.4568(7) 0.2795(5) 0.3741(5)
H1 H 0.5008 0.3380 0.4155
C4 C 0.3683(7) 0.2345(5) 0.4083(5)
H2 H 0.3530 0.2623 0.4726
C5 C 0.3018(7) 0.1492(5) 0.3495(6)
H3 H 0.2408 0.1188 0.3732
C6 C 0.3256(7) 0.1086(5) 0.2553(5)
H4 H 0.2814 0.0502 0.2140
C7 C 0.4153(7) 0.1551(5) 0.2228(5)
H5 H 0.4313 0.1270 0.1586
C8 C 0.6471(7) 0.2403(5) 0.1613(5)
C9 C 0.6795(7) 0.1487(5) 0.1393(5)
H6 H 0.6565 0.1154 0.1762
C10 C 0.7478(7) 0.1078(6) 0.0598(5)
H7 H 0.7709 0.0452 0.0417
C11 C 0.7810(7) 0.1571(5) 0.0089(6)
H8 H 0.8231 0.1280 -0.0465
C12 C 0.7533(7) 0.2495(5) 0.0379(5)
H9 H 0.7817 0.2847 0.0041
O2 O 0.4622(5) 0.4417(3) 0.1169(3)
N3 N 0.3678(5) 0.3938(4) 0.1378(4)
N4 N 0.2105(6) 0.3181(4) 0.2137(4)
C13 C 0.3338(7) 0.3058(5) 0.0844(5)
C14 C 0.3902(7) 0.2502(5) -0.0039(5)
C15 C 0.4283(7) 0.2914(5) -0.0648(5)
H10 H 0.4132 0.3547 -0.0521
C16 C 0.4894(8) 0.2374(5) -0.1448(5)
H11 H 0.5155 0.2647 -0.1862
C17 C 0.5117(7) 0.1444(5) -0.1638(5)
H12 H 0.5514 0.1081 -0.2184
C18 C 0.4763(7) 0.1059(5) -0.1040(5)
H13 H 0.4936 0.0429 -0.1168
C19 C 0.4156(7) 0.1563(5) -0.0246(5)
H14 H 0.3912 0.1274 0.0158
C20 C 0.2301(7) 0.2643(5) 0.1209(5)
C21 C 0.1566(7) 0.1812(5) 0.0690(5)
H15 H 0.1675 0.1480 0.0043
C22 C 0.0670(7) 0.1461(5) 0.1106(5)
H16 H 0.0198 0.0868 0.0761
C23 C 0.0462(7) 0.1996(5) 0.2055(5)
H17 H -0.0154 0.1783 0.2365
C24 C 0.1195(7) 0.2837(5) 0.2503(5)
H18 H 0.1039 0.3210 0.3132
O3 O 0.6432(5) 0.5874(3) 0.3713(3)
H19 H 0.5903 0.5446 0.3709
N5 N 0.6847(6) 0.5625(4) 0.2831(5)
N6 N 0.7432(5) 0.5013(4) 0.1129(4)
C25 C 0.7625(6) 0.6208(5) 0.2696(5)
C26 C 0.8175(7) 0.7119(5) 0.3442(5)
C27 C 0.8944(7) 0.7121(5) 0.4210(5)
H20 H 0.9119 0.6544 0.4246
C28 C 0.9448(7) 0.7969(5) 0.4918(5)
H21 H 0.9955 0.7967 0.5442
C29 C 0.9231(7) 0.8802(5) 0.4874(6)
H22 H 0.9593 0.9377 0.5361
C30 C 0.8482(7) 0.8810(5) 0.4118(6)
H23 H 0.8340 0.9391 0.4081
C31 C 0.7936(8) 0.7976(6) 0.3413(6)
H24 H 0.7396 0.7990 0.2908
C32 C 0.7976(7) 0.5866(5) 0.1708(5)
C33 C 0.8692(8) 0.6439(5) 0.1388(5)
H25 H 0.9059 0.7044 0.1812
C34 C 0.8862(7) 0.6108(5) 0.0436(6)
H26 H 0.9352 0.6481 0.0198
C35 C 0.8299(7) 0.5223(5) -0.0157(5)
H27 H 0.8414 0.4974 -0.0807
C36 C 0.7583(7) 0.4713(5) 0.0200(5)
H28 H 0.7169 0.4120 -0.0219
O4 O 0.4009(5) 0.6011(3) 0.2134(4)
H29 H 0.4331 0.5549 0.1741
N7 N 0.3506(6) 0.5760(4) 0.2787(4)
N8 N 0.2584(5) 0.5160(4) 0.3948(4)
C37 C 0.3103(6) 0.6430(5) 0.3501(5)
C38 C 0.3220(7) 0.7440(5) 0.3668(5)
C39 C 0.2140(9) 0.7881(6) 0.3524(6)
H30 H 0.1314 0.7542 0.3332
C40 C 0.2298(9) 0.8817(5) 0.3665(6)
H31 H 0.1570 0.9125 0.3584
C41 C 0.3503(9) 0.9314(6) 0.3925(6)
H32 H 0.3588 0.9958 0.4026
C42 C 0.4579(8) 0.8885(5) 0.4039(5)
H33 H 0.5405 0.9223 0.4198
C43 C 0.4437(7) 0.7943(5) 0.3916(5)
H34 H 0.5172 0.7642 0.4001
C44 C 0.2585(7) 0.6094(5) 0.4192(5)
C45 C 0.2225(7) 0.6705(5) 0.5049(5)
H35 H 0.2247 0.7360 0.5199
C46 C 0.1836(7) 0.6359(5) 0.5684(5)
H36 H 0.1562 0.6765 0.6268
C47 C 0.1854(7) 0.5397(5) 0.5450(5)
H37 H 0.1604 0.5132 0.5872
C48 C 0.2248(7) 0.4838(5) 0.4582(5)
H38 H 0.2280 0.4186 0.4430
N9 N 0.9847(7) 0.4448(5) 0.2106(5)
O5 O 0.8955(5) 0.4367(4) 0.2574(4)
O6 O 0.9815(5) 0.3836(4) 0.1258(4)
O7 O 1.0734(6) 0.5071(4) 0.2419(4)
Cu2_2 Cu 1.30459(9) 0.44582(6) 0.26279(6)
O7_2 O 0.0734(6) 0.5071(4) 0.2419(4)
O8 O 0.2185(6) 0.8786(4) 0.6692(4)
H39 H 0.1604 0.9154 0.6867
C49 C 0.3194(9) 0.9217(6) 0.6421(7)
H40 H 0.3388 0.9867 0.6884
H41 H 0.2944 0.9216 0.5806
H42 H 0.3959 0.8871 0.6383
B1 B 0.9658(8) 0.9382(7) 0.1929(7)
F1 F 0.965(3) 0.997(2) 0.2862(9)
F2 F 0.984(2) 0.9648(8) 0.1251(7)
F3 F 1.0314(18) 0.8548(9) 0.1752(9)
F4 F 0.8379(12) 0.9049(15) 0.1849(10)
F5? F 1.007(4) 1.001(2) 0.2824(13)
F6? F 1.0882(14) 0.9521(13) 0.1800(13)
F7? F 0.892(2) 0.9832(10) 0.1485(11)
F8? F 0.921(3) 0.8512(10) 0.1666(14)
loop_
_geom_bond_atom_site_label_1
_geom_bond_atom_site_label_2
_geom_bond_site_symmetry_1
_geom_bond_site_symmetry_2
Cu1 N1 1_555 1_555
Cu2 O1 1_555 1_555
O1 N1 1_555 1_555
N1 C1 1_555 1_555
N2 Cu1 1_555 1_555
C1 C2 1_555 1_555
C2 C3 1_555 1_555
C3 H1 1_555 1_555
C4 C3 1_555 1_555
H2 C4 1_555 1_555
C5 C4 1_555 1_555
H3 C5 1_555 1_555
C6 C5 1_555 1_555
H4 C6 1_555 1_555
C7 C2 1_555 1_555
H5 C7 1_555 1_555
C8 N2 1_555 1_555
C9 C8 1_555 1_555
H6 C9 1_555 1_555
C10 C9 1_555 1_555
H7 C10 1_555 1_555
C11 C10 1_555 1_555
H8 C11 1_555 1_555
C12 N2 1_555 1_555
H9 C12 1_555 1_555
O2 Cu1 1_555 1_555
N3 Cu2 1_555 1_555
N4 Cu2 1_555 1_555
C13 N3 1_555 1_555
C14 C13 1_555 1_555
C15 C14 1_555 1_555
H10 C15 1_555 1_555
C16 C15 1_555 1_555
H11 C16 1_555 1_555
C17 C16 1_555 1_555
H12 C17 1_555 1_555
C18 C17 1_555 1_555
H13 C18 1_555 1_555
C19 C14 1_555 1_555
H14 C19 1_555 1_555
C20 N4 1_555 1_555
C21 C20 1_555 1_555
H15 C21 1_555 1_555
C22 C21 1_555 1_555
H16 C22 1_555 1_555
C23 C22 1_555 1_555
H17 C23 1_555 1_555
C24 N4 1_555 1_555
H18 C24 1_555 1_555
O3 H19 1_555 1_555
N5 Cu1 1_555 1_555
N6 Cu1 1_555 1_555
C25 N5 1_555 1_555
C26 C25 1_555 1_555
C27 C26 1_555 1_555
H20 C27 1_555 1_555
C28 C27 1_555 1_555
H21 C28 1_555 1_555
C29 C28 1_555 1_555
H22 C29 1_555 1_555
C30 C29 1_555 1_555
H23 C30 1_555 1_555
C31 C26 1_555 1_555
H24 C31 1_555 1_555
C32 N6 1_555 1_555
C33 C32 1_555 1_555
H25 C33 1_555 1_555
C34 C33 1_555 1_555
H26 C34 1_555 1_555
C35 C34 1_555 1_555
H27 C35 1_555 1_555
C36 N6 1_555 1_555
H28 C36 1_555 1_555
O4 H29 1_555 1_555
N7 Cu2 1_555 1_555
N8 Cu2 1_555 1_555
C37 N7 1_555 1_555
C38 C37 1_555 1_555
C39 C38 1_555 1_555
H30 C39 1_555 1_555
C40 C39 1_555 1_555
H31 C40 1_555 1_555
C41 C40 1_555 1_555
H32 C41 1_555 1_555
C42 C41 1_555 1_555
H33 C42 1_555 1_555
C43 C38 1_555 1_555
H34 C43 1_555 1_555
C44 N8 1_555 1_555
C45 C44 1_555 1_555
H35 C45 1_555 1_555
C46 C45 1_555 1_555
H36 C46 1_555 1_555
C47 C46 1_555 1_555
H37 C47 1_555 1_555
C48 N8 1_555 1_555
H38 C48 1_555 1_555
N9 O5 1_555 1_555
O5 Cu1 1_555 1_555
O6 N9 1_555 1_555
O7 N9 1_555 1_555
O8 H39 1_555 1_555
C49 O8 1_555 1_555
H40 C49 1_555 1_555
H41 C49 1_555 1_555
H42 C49 1_555 1_555
B1 F1 1_555 1_555
F2 B1 1_555 1_555
F3 B1 1_555 1_555
F4 B1 1_555 1_555
Cu2_2 O7 1_555 1_555
O7_2 Cu2 1_555 1_555
C1 C8 1_555 1_555
C6 C7 1_555 1_555
C11 C12 1_555 1_555
O2 N3 1_555 1_555
C13 C20 1_555 1_555
C18 C19 1_555 1_555
C23 C24 1_555 1_555
O3 N5 1_555 1_555
C25 C32 1_555 1_555
C30 C31 1_555 1_555
C35 C36 1_555 1_555
O4 N7 1_555 1_555
C37 C44 1_555 1_555
C42 C43 1_555 1_555
C47 C48 1_555 1_555

#END
