
#######################################################################
#
#                 Cambridge Crystallographic Data Centre
#                                CCDC 
#
#######################################################################
#
# If this CIF has been generated from an entry in the Cambridge 
# Structural Database, then it will include bibliographic, chemical, 
# crystal, experimental, refinement or atomic coordinate data resulting 
# from the CCDC's data processing and validation procedures.
#
#######################################################################

data_QUKMAM
_symmetry_cell_setting           monoclinic
_symmetry_space_group_name_H-M   'P 21/c'
_symmetry_Int_Tables_number      14
_space_group_name_Hall           '-P 2ybc'
loop_
_symmetry_equiv_pos_site_id
_symmetry_equiv_pos_as_xyz
1 x,y,z
2 -x,1/2+y,1/2-z
3 -x,-y,-z
4 x,1/2-y,1/2+z
_cell_length_a                   14.8468(4)
_cell_length_b                   19.9903(5)
_cell_length_c                   12.4978(5)
_cell_angle_alpha                90
_cell_angle_beta                 97.103(2)
_cell_angle_gamma                90
_cell_volume                     3680.78
loop_
_atom_site_label
_atom_site_type_symbol
_atom_site_fract_x
_atom_site_fract_y
_atom_site_fract_z
Zn1 Zn 0.08318(3) 0.18550(3) -0.54806(4)
S1 S 0.15335(8) -0.09349(5) -0.50473(9)
S2 S -0.18351(11) 0.18991(9) -0.78047(15)
S3 S 0.37199(9) 0.18656(7) -0.66403(12)
N1 N 0.0867(2) 0.14449(16) -0.4027(2)
N2 N 0.1069(2) 0.06088(17) -0.2862(2)
N3 N 0.1157(2) 0.03328(15) -0.4687(2)
N4 N 0.1114(2) 0.05901(15) -0.5615(2)
N5 N -0.0155(3) 0.18499(19) -0.6623(3)
N6 N 0.2047(3) 0.2005(2) -0.5959(4)
C1 C 0.1235(2) 0.01448(19) -0.6442(3)
C2 C 0.1408(2) -0.0550(2) -0.6312(3)
C3 C 0.1468(3) -0.0915(2) -0.7268(4)
H1 H 0.1565 -0.1374 -0.7227
C4 C 0.1386(3) -0.0606(3) -0.8259(4)
H2 H 0.1428 -0.0861 -0.8874
C5 C 0.1244(3) 0.0071(3) -0.8357(3)
H3 H 0.1205 0.0276 -0.9030
C6 C 0.1159(3) 0.0439(2) -0.7458(3)
H4 H 0.1049 0.0896 -0.7525
C7 C 0.1034(2) 0.07981(19) -0.3904(3)
C8 C 0.0799(3) 0.1676(2) -0.3009(3)
H5 H 0.0689 0.2118 -0.2831
C9 C 0.0915(3) 0.1166(3) -0.2311(3)
H6 H 0.0893 0.1193 -0.1571
C10 C 0.1235(3) -0.0079(2) -0.2465(3)
H7 H 0.1797 -0.0240 -0.2696
H8 H 0.0748 -0.0365 -0.2789
C11 C 0.1297(4) -0.0135(3) -0.1266(4)
H9 H 0.1405 -0.0593 -0.1055
H10 H 0.0739 0.0014 -0.1032
H11 H 0.1788 0.0138 -0.0939
C12 C 0.1785(4) -0.1788(2) -0.5345(5)
H12 H 0.1864 -0.2042 -0.4689
H13 H 0.2333 -0.1805 -0.5681
H14 H 0.1293 -0.1972 -0.5826
C13 C -0.0852(4) 0.1870(2) -0.7122(4)
C14 C 0.2696(3) 0.19172(19) -0.6319(3)
Zn2 Zn 0.34992(3) 0.36376(2) -0.35640(5)
S4 S 0.39092(7) 0.57223(5) -0.67237(10)
S5 S 0.04716(7) 0.30470(6) -0.47948(10)
S6 S 0.56992(14) 0.21170(9) -0.42678(19)
N7 N 0.3705(2) 0.45815(15) -0.3112(3)
N8 N 0.3979(2) 0.56567(16) -0.3282(3)
N9 N 0.3805(2) 0.50303(15) -0.4906(3)
N10 N 0.3633(2) 0.44463(15) -0.5262(3)
N11 N 0.2250(3) 0.3405(2) -0.4108(4)
N12 N 0.4375(3) 0.30502(18) -0.4071(3)
C15 C 0.3590(3) 0.4371(2) -0.6389(3)
C16 C 0.3701(3) 0.4895(2) -0.7136(4)
C17 C 0.3614(3) 0.4703(3) -0.8223(4)
H15 H 0.3680 0.5026 -0.8744
C18 C 0.3434(4) 0.4056(3) -0.8545(5)
H16 H 0.3381 0.3951 -0.9275
C19 C 0.3333(4) 0.3561(3) -0.7813(5)
H17 H 0.3218 0.3122 -0.8037
C20 C 0.3403(3) 0.3727(2) -0.6747(4)
H18 H 0.3323 0.3395 -0.6246
C21 C 0.3823(2) 0.50677(18) -0.3805(3)
C22 C 0.3785(3) 0.4874(2) -0.2129(4)
H19 H 0.3736 0.4653 -0.1483
C23 C 0.3944(3) 0.5529(2) -0.2224(4)
H20 H 0.4017 0.5839 -0.1666
C24 C 0.4117(3) 0.6310(2) -0.3772(4)
H21 H 0.4555 0.6565 -0.3297
H22 H 0.4362 0.6244 -0.4448
C25 C 0.3262(5) 0.6694(3) -0.3974(7)
H23 H 0.3378 0.7116 -0.4294
H24 H 0.2829 0.6446 -0.4455
H25 H 0.3022 0.6767 -0.3305
C26 C 0.3936(4) 0.6156(3) -0.7987(4)
H26 H 0.4047 0.6623 -0.7851
H27 H 0.4411 0.5973 -0.8355
H28 H 0.3363 0.6101 -0.8428
C27 C 0.1515(3) 0.3246(2) -0.4391(4)
C28 C 0.4913(3) 0.2653(2) -0.4164(3)
S3C S 0.37199(9) 0.31344(7) -0.16403(12)
Zn2C Zn 0.34992(3) 0.13624(2) -0.85640(5)
loop_
_geom_bond_atom_site_label_1
_geom_bond_atom_site_label_2
_geom_bond_site_symmetry_1
_geom_bond_site_symmetry_2
Zn1 N1 1_555 1_555
S1 C2 1_555 1_555
S2 C13 1_555 1_555
S3 C14 1_555 1_555
N1 C7 1_555 1_555
N2 C7 1_555 1_555
N3 N4 1_555 1_555
N4 Zn1 1_555 1_555
N5 Zn1 1_555 1_555
N6 Zn1 1_555 1_555
C1 N4 1_555 1_555
C2 C1 1_555 1_555
C3 C2 1_555 1_555
H1 C3 1_555 1_555
C4 C3 1_555 1_555
H2 C4 1_555 1_555
C5 C4 1_555 1_555
H3 C5 1_555 1_555
C6 C1 1_555 1_555
H4 C6 1_555 1_555
C7 N3 1_555 1_555
C8 N1 1_555 1_555
H5 C8 1_555 1_555
C9 N2 1_555 1_555
H6 C9 1_555 1_555
C10 N2 1_555 1_555
H7 C10 1_555 1_555
H8 C10 1_555 1_555
C11 C10 1_555 1_555
H9 C11 1_555 1_555
H10 C11 1_555 1_555
H11 C11 1_555 1_555
C12 S1 1_555 1_555
H12 C12 1_555 1_555
H13 C12 1_555 1_555
H14 C12 1_555 1_555
C13 N5 1_555 1_555
C14 N6 1_555 1_555
Zn2 N7 1_555 1_555
S4 C16 1_555 1_555
S5 Zn1 1_555 1_555
S6 C28 1_555 1_555
N7 C21 1_555 1_555
N8 C21 1_555 1_555
N9 N10 1_555 1_555
N10 C15 1_555 1_555
N11 Zn2 1_555 1_555
N12 Zn2 1_555 1_555
C15 C16 1_555 1_555
C16 C17 1_555 1_555
C17 H15 1_555 1_555
C18 C17 1_555 1_555
H16 C18 1_555 1_555
C19 C18 1_555 1_555
H17 C19 1_555 1_555
C20 C15 1_555 1_555
H18 C20 1_555 1_555
C21 N9 1_555 1_555
C22 N7 1_555 1_555
H19 C22 1_555 1_555
C23 N8 1_555 1_555
H20 C23 1_555 1_555
C24 N8 1_555 1_555
H21 C24 1_555 1_555
H22 C24 1_555 1_555
C25 C24 1_555 1_555
H23 C25 1_555 1_555
H24 C25 1_555 1_555
H25 C25 1_555 1_555
C26 S4 1_555 1_555
H26 C26 1_555 1_555
H27 C26 1_555 1_555
H28 C26 1_555 1_555
C27 S5 1_555 1_555
C28 N12 1_555 1_555
S3C Zn2 1_555 1_555
Zn2C S3 1_555 1_555
C5 C6 1_555 1_555
C8 C9 1_555 1_555
N11 C27 1_555 1_555
C19 C20 1_555 1_555
C22 C23 1_555 1_555

#END
