
#######################################################################
#
#                 Cambridge Crystallographic Data Centre
#                                CCDC 
#
#######################################################################
#
# If this CIF has been generated from an entry in the Cambridge 
# Structural Database, then it will include bibliographic, chemical, 
# crystal, experimental, refinement or atomic coordinate data resulting 
# from the CCDC's data processing and validation procedures.
#
#######################################################################

data_QUKNAM
_symmetry_cell_setting           triclinic
_symmetry_space_group_name_H-M   'P -1'
_symmetry_Int_Tables_number      2
_space_group_name_Hall           '-P 1'
loop_
_symmetry_equiv_pos_site_id
_symmetry_equiv_pos_as_xyz
1 x,y,z
2 -x,-y,-z
_cell_length_a                   7.3778(13)
_cell_length_b                   7.8016(14)
_cell_length_c                   10.4325(18)
_cell_angle_alpha                71.543(3)
_cell_angle_beta                 75.503(3)
_cell_angle_gamma                84.774(3)
_cell_volume                     551.412
loop_
_atom_site_label
_atom_site_type_symbol
_atom_site_fract_x
_atom_site_fract_y
_atom_site_fract_z
K1 K 0.0000 0.0000 0.5000
O1 O 0.30613(11) 0.08163(11) 0.27483(8)
O2 O 0.28118(11) 0.22199(10) 0.49525(9)
C1 C 0.03908(16) -0.34255(15) 0.81840(12)
O3 O 0.06766(11) -0.20054(11) 0.31144(8)
C2 C -0.04893(15) -0.43143(14) 0.95792(11)
C3 C -0.23576(16) -0.38316(15) 1.01300(11)
N1 N -0.38494(15) -0.34737(15) 1.06253(12)
N2 N 0.11800(15) -0.27631(15) 0.70558(11)
C4 C 0.36478(17) -0.06030(17) 0.21499(13)
H1 H 0.4178 -0.1618 0.2804
H2 H 0.4629 -0.0166 0.1283
C5 C 0.38878(17) 0.30669(16) 0.35849(13)
H3 H 0.4946 0.3722 0.3631
H4 H 0.3098 0.3947 0.3040
C6 C 0.19952(17) -0.12298(17) 0.18396(12)
H5 H 0.1411 -0.0196 0.1240
H6 H 0.2400 -0.2139 0.1341
C7 C 0.46136(16) 0.16360(17) 0.29014(13)
H7 H 0.5452 0.2180 0.1979
H8 H 0.5337 0.0714 0.3477
C8 C 0.22454(18) 0.34454(17) 0.57402(15)
H9 H 0.1560 0.4485 0.5234
H10 H 0.3358 0.3909 0.5887
C9 C -0.10079(18) -0.24774(18) 0.28907(13)
H11 H -0.0721 -0.3266 0.2284
H12 H -0.1652 -0.1374 0.2425
K1_2 K 0.0000 -1.0000 1.5000
O1A O -0.30613(11) -0.08163(11) 0.72517(8)
O2A O -0.28118(11) -0.22199(10) 0.50475(9)
C1A C -0.03908(16) -0.65745(15) 1.18160(12)
O3A O -0.06766(11) 0.20054(11) 0.68856(8)
C2A C 0.04893(15) -0.56857(14) 1.04208(11)
C3A C 0.23576(16) -0.61684(15) 0.98700(11)
N1A N 0.38494(15) -0.65263(15) 0.93747(12)
N2A N -0.11800(15) -0.72369(15) 1.29442(11)
N2A_2 N -0.11800(15) 0.27631(15) 0.29442(11)
C4A C -0.36478(17) 0.06030(17) 0.78501(13)
H1A H -0.4178 0.1618 0.7196
H2A H -0.4629 0.0166 0.8717
C5A C -0.38878(17) -0.30669(16) 0.64151(13)
H3A H -0.4946 -0.3722 0.6369
H4A H -0.3098 -0.3947 0.6960
C6A C -0.19952(17) 0.12298(17) 0.81604(12)
H5A H -0.1411 0.0196 0.8760
H6A H -0.2400 0.2139 0.8659
C7A C -0.46136(16) -0.16360(17) 0.70986(13)
H7A H -0.5452 -0.2180 0.8021
H8A H -0.5337 -0.0714 0.6523
C8A C -0.22454(18) -0.34454(17) 0.42598(15)
H9A H -0.1560 -0.4485 0.4766
H10A H -0.3358 -0.3909 0.4113
C9A C 0.10079(18) 0.24774(18) 0.71093(13)
H11A H 0.0721 0.3266 0.7716
H12A H 0.1652 0.1374 0.7575
loop_
_geom_bond_atom_site_label_1
_geom_bond_atom_site_label_2
_geom_bond_site_symmetry_1
_geom_bond_site_symmetry_2
K1 O1 1_555 1_555
O1 C4 1_555 1_555
O2 K1 1_555 1_555
C1 C2 1_555 1_555
O3 K1 1_555 1_555
C2 C3 1_555 1_555
C3 N1 1_555 1_555
N2 K1 1_555 1_555
C4 H1 1_555 1_555
H2 C4 1_555 1_555
C5 O2 1_555 1_555
H3 C5 1_555 1_555
H4 C5 1_555 1_555
C6 O3 1_555 1_555
H5 C6 1_555 1_555
H6 C6 1_555 1_555
C7 O1 1_555 1_555
H7 C7 1_555 1_555
H8 C7 1_555 1_555
C8 O2 1_555 1_555
H9 C8 1_555 1_555
H10 C8 1_555 1_555
C9 O3 1_555 1_555
H11 C9 1_555 1_555
H12 C9 1_555 1_555
K1_2 N2A 1_555 1_555
O1A K1 1_555 1_555
O2A K1 1_555 1_555
C1A C2A 1_555 1_555
O3A K1 1_555 1_555
C2A C2 1_555 1_555
C3A C2A 1_555 1_555
N1A C3A 1_555 1_555
N2A C1A 1_555 1_555
N2A_2 K1 1_555 1_555
C4A O1A 1_555 1_555
H1A C4A 1_555 1_555
H2A C4A 1_555 1_555
C5A O2A 1_555 1_555
H3A C5A 1_555 1_555
H4A C5A 1_555 1_555
C6A O3A 1_555 1_555
H5A C6A 1_555 1_555
H6A C6A 1_555 1_555
C7A O1A 1_555 1_555
H7A C7A 1_555 1_555
H8A C7A 1_555 1_555
C8A C9 1_555 1_555
H9A C8A 1_555 1_555
H10A C8A 1_555 1_555
C9A C8 1_555 1_555
H11A C9A 1_555 1_555
H12A C9A 1_555 1_555
C1 N2 1_555 1_555
C4 C6 1_555 1_555
C5 C7 1_555 1_555
O2A C8A 1_555 1_555
O3A C9A 1_555 1_555
C4A C6A 1_555 1_555
C5A C7A 1_555 1_555

#END
