
#######################################################################
#
#                 Cambridge Crystallographic Data Centre
#                                CCDC 
#
#######################################################################
#
# If this CIF has been generated from an entry in the Cambridge 
# Structural Database, then it will include bibliographic, chemical, 
# crystal, experimental, refinement or atomic coordinate data resulting 
# from the CCDC's data processing and validation procedures.
#
#######################################################################

data_QUKQUJ
_symmetry_cell_setting           orthorhombic
_symmetry_space_group_name_H-M   'P c c n'
_symmetry_Int_Tables_number      56
_space_group_name_Hall           '-P 2ab 2ac'
loop_
_symmetry_equiv_pos_site_id
_symmetry_equiv_pos_as_xyz
1 x,y,z
2 1/2-x,1/2-y,z
3 -x,1/2+y,1/2-z
4 1/2+x,-y,1/2-z
5 -x,-y,-z
6 1/2+x,1/2+y,-z
7 x,1/2-y,1/2+z
8 1/2-x,y,1/2+z
_cell_length_a                   7.575(7)
_cell_length_b                   10.760(11)
_cell_length_c                   23.042(17)
_cell_angle_alpha                90
_cell_angle_beta                 90
_cell_angle_gamma                90
_cell_volume                     1878.08
loop_
_atom_site_label
_atom_site_type_symbol
_atom_site_fract_x
_atom_site_fract_y
_atom_site_fract_z
Zn1 Zn 0.2500 0.2500 0.19940(2)
C1 C 0.1913(5) 0.1521(3) 0.07365(15)
H1 H 0.1512 0.0827 0.0938
C2 C 0.1874(5) 0.1491(3) 0.01370(16)
H2 H 0.1429 0.0797 -0.0053
C3 C 0.2500 0.2500 -0.0184(2)
C4 C 0.2500 0.2500 -0.08354(19)
C5 C 0.1029(6) 0.2130(4) -0.11440(17)
H3 H 0.0016 0.1871 -0.0951
C6 C 0.1080(5) 0.2147(4) -0.17399(17)
H4 H 0.0076 0.1902 -0.1942
C7 C -0.1391(5) 0.3656(3) 0.19252(14)
C8 C -0.2009(4) 0.3058(3) 0.13584(14)
C9 C -0.1588(5) 0.3613(3) 0.08338(15)
C10 C -0.2061(5) 0.3060(3) 0.03121(16)
N1 N 0.2500 0.2500 0.10437(16)
N2 N 0.2500 0.2500 -0.20455(16)
O1 O 0.0245(3) 0.3668(2) 0.20220(9)
O2 O -0.2550(3) 0.4100(2) 0.22512(11)
O3 O 0.1064(3) 0.0832(2) 0.19983(11)
H5 H -0.003(2) 0.096(3) 0.2088(15)
H6 H 0.151(4) 0.028(2) 0.2220(15)
F1 F -0.0717(3) 0.47075(19) 0.08207(9)
F2 F -0.1652(3) 0.3613(2) -0.01982(9)
Zn1_2 Zn -0.7500 0.2500 0.19940(2)
Zn1F Zn 0.2500 0.2500 -0.30060(2)
C1A C 0.3087(5) 0.3479(3) 0.07365(15)
H1A H 0.3488 0.4173 0.0938
C2A C 0.3126(5) 0.3509(3) 0.01370(16)
H2A H 0.3571 0.4203 -0.0053
C5A C 0.3971(6) 0.2870(4) -0.11440(17)
H3A H 0.4984 0.3129 -0.0951
C6A C 0.3920(5) 0.2853(4) -0.17399(17)
H4A H 0.4924 0.3098 -0.1942
C7A C -0.3609(5) 0.1344(3) 0.19252(14)
C8A C -0.2991(4) 0.1942(3) 0.13584(14)
C9A C -0.3412(5) 0.1387(3) 0.08338(15)
C10A C -0.2939(5) 0.1940(3) 0.03121(16)
N2F N 0.2500 0.2500 0.29545(16)
O1A O -0.5245(3) 0.1332(2) 0.20220(9)
O1A_2 O 0.4755(3) 0.1332(2) 0.20220(9)
O2A O -0.2450(3) 0.0900(2) 0.22512(11)
O3A O 0.3936(3) 0.4168(2) 0.19983(11)
H5A H 0.503(2) 0.404(3) 0.2088(15)
H6A H 0.349(4) 0.472(2) 0.2220(15)
F1A F -0.4283(3) 0.02925(19) 0.08207(9)
F2A F -0.3348(3) 0.1387(2) -0.01982(9)
loop_
_geom_bond_atom_site_label_1
_geom_bond_atom_site_label_2
_geom_bond_site_symmetry_1
_geom_bond_site_symmetry_2
Zn1 N1 1_555 1_555
C1 H1 1_555 1_555
C2 C1 1_555 1_555
H2 C2 1_555 1_555
C3 C2 1_555 1_555
C4 C3 1_555 1_555
C5 C4 1_555 1_555
H3 C5 1_555 1_555
C6 C5 1_555 1_555
H4 C6 1_555 1_555
C7 C8 1_555 1_555
C8 C9 1_555 1_555
C9 C10 1_555 1_555
C10 F2 1_555 1_555
N1 C1 1_555 1_555
N2 C6 1_555 1_555
O1 Zn1 1_555 1_555
O2 C7 1_555 1_555
O3 Zn1 1_555 1_555
H5 O3 1_555 1_555
H6 O3 1_555 1_555
F1 C9 1_555 1_555
Zn1_2 O1A 1_555 1_555
Zn1F N2 1_555 1_555
C1A N1 1_555 1_555
H1A C1A 1_555 1_555
C2A C3 1_555 1_555
H2A C2A 1_555 1_555
C5A C4 1_555 1_555
H3A C5A 1_555 1_555
C6A N2 1_555 1_555
H4A C6A 1_555 1_555
C7A C8A 1_555 1_555
C8A C8 1_555 1_555
C9A C8A 1_555 1_555
C10A C10 1_555 1_555
N2F Zn1 1_555 1_555
O1A C7A 1_555 1_555
O1A_2 Zn1 1_555 1_555
O2A C7A 1_555 1_555
O3A Zn1 1_555 1_555
H5A O3A 1_555 1_555
H6A O3A 1_555 1_555
F1A C9A 1_555 1_555
F2A C10A 1_555 1_555
C7 O1 1_555 1_555
C1A C2A 1_555 1_555
C5A C6A 1_555 1_555
C9A C10A 1_555 1_555

#END
