
#######################################################################
#
#                 Cambridge Crystallographic Data Centre
#                                CCDC 
#
#######################################################################
#
# If this CIF has been generated from an entry in the Cambridge 
# Structural Database, then it will include bibliographic, chemical, 
# crystal, experimental, refinement or atomic coordinate data resulting 
# from the CCDC's data processing and validation procedures.
#
#######################################################################

data_QUKQET
_symmetry_cell_setting           monoclinic
_symmetry_space_group_name_H-M   'C 2/c'
_symmetry_Int_Tables_number      15
_space_group_name_Hall           '-C 2yn'
loop_
_symmetry_equiv_pos_site_id
_symmetry_equiv_pos_as_xyz
1 x,y,z
2 -x,y,1/2-z
3 1/2+x,1/2+y,z
4 1/2-x,1/2+y,1/2-z
5 -x,-y,-z
6 x,-y,1/2+z
7 1/2-x,1/2-y,-z
8 1/2+x,1/2-y,1/2+z
_cell_length_a                   11.632(3)
_cell_length_b                   11.421(3)
_cell_length_c                   14.269(4)
_cell_angle_alpha                90
_cell_angle_beta                 109.656(6)
_cell_angle_gamma                90
_cell_volume                     1785.16
loop_
_atom_site_label
_atom_site_type_symbol
_atom_site_fract_x
_atom_site_fract_y
_atom_site_fract_z
Co1 Co 0.5000 0.44469(10) 0.2500
C1 C 0.5999(6) 0.6947(6) 0.2527(6)
H1 H 0.6696 0.6540 0.2539
C2 C 0.6030(6) 0.8162(5) 0.2538(5)
H2 H 0.6746 0.8549 0.2571
C3 C 0.5000 0.8805(7) 0.2500
C4 C 0.5000 1.0098(8) 0.2500
C5 C 0.6059(6) 1.0735(5) 0.2947(5)
H3 H 0.6795 1.0351 0.3254
C6 C 0.6012(6) 1.1947(6) 0.2934(6)
H4 H 0.6731 1.2355 0.3248
C7 C 0.2672(6) 0.4805(6) 0.0728(6)
C8 C 0.1288(6) 0.4927(6) 0.0354(5)
C9 C 0.0531(6) 0.3942(6) 0.0135(5)
C10 C -0.0699(6) 0.4014(7) -0.0197(6)
N1 N 0.5000 0.6336(6) 0.2500
N2 N 0.5000 1.2566(6) 0.2500
O1 O 0.3150(4) 0.4489(4) 0.1625(4)
O2 O 0.3211(5) 0.5037(7) 0.0140(5)
O3 O 0.5513(5) 0.4463(5) 0.1208(4)
H5 H 0.481(3) 0.463(6) 0.075(4)
H6 H 0.595(7) 0.510(5) 0.129(4)
F1 F 0.1063(4) 0.2855(4) 0.0261(3)
F2 F -0.1377(4) 0.3026(4) -0.0409(4)
Co1_2 Co 0.5000 1.44469(10) 0.2500
Co1D Co -0.5000 0.55531(10) -0.2500
C1A C 0.4001(6) 0.6947(6) 0.2473(6)
H1A H 0.3304 0.6540 0.2461
C2A C 0.3970(6) 0.8162(5) 0.2462(5)
H2A H 0.3254 0.8549 0.2429
C5A C 0.3941(6) 1.0735(5) 0.2053(5)
H3A H 0.3205 1.0351 0.1746
C6A C 0.3988(6) 1.1947(6) 0.2066(6)
H4A H 0.3269 1.2355 0.1752
C7D C -0.2672(6) 0.5195(6) -0.0728(6)
C8D C -0.1288(6) 0.5073(6) -0.0354(5)
C9D C -0.0531(6) 0.6058(6) -0.0135(5)
C10D C 0.0699(6) 0.5986(7) 0.0197(6)
N2_2 N 0.5000 0.2566(6) 0.2500
O1D O -0.3150(4) 0.5511(4) -0.1625(4)
O1A O 0.6850(4) 0.4489(4) 0.3375(4)
O2D O -0.3211(5) 0.4963(7) -0.0140(5)
O3A O 0.4487(5) 0.4463(5) 0.3792(4)
H5A H 0.519(3) 0.463(6) 0.425(4)
H6A H 0.405(7) 0.510(5) 0.371(4)
F1D F -0.1063(4) 0.7145(4) -0.0261(3)
F2D F 0.1377(4) 0.6974(4) 0.0409(4)
loop_
_geom_bond_atom_site_label_1
_geom_bond_atom_site_label_2
_geom_bond_site_symmetry_1
_geom_bond_site_symmetry_2
Co1 N1 1_555 1_555
C1 H1 1_555 1_555
C2 C1 1_555 1_555
H2 C2 1_555 1_555
C3 C2 1_555 1_555
C4 C3 1_555 1_555
C5 C4 1_555 1_555
H3 C5 1_555 1_555
C6 C5 1_555 1_555
H4 C6 1_555 1_555
C7 C8 1_555 1_555
C8 C9 1_555 1_555
C9 C10 1_555 1_555
C10 F2 1_555 1_555
N1 C1 1_555 1_555
N2 C6 1_555 1_555
O1 Co1 1_555 1_555
O2 C7 1_555 1_555
O3 Co1 1_555 1_555
H5 O3 1_555 1_555
H6 O3 1_555 1_555
F1 C9 1_555 1_555
Co1_2 N2 1_555 1_555
Co1D O1D 1_555 1_555
C1A N1 1_555 1_555
H1A C1A 1_555 1_555
C2A C3 1_555 1_555
H2A C2A 1_555 1_555
C5A C4 1_555 1_555
H3A C5A 1_555 1_555
C6A N2 1_555 1_555
H4A C6A 1_555 1_555
C7D C8D 1_555 1_555
C8D C10 1_555 1_555
C9D C8D 1_555 1_555
C10D C8 1_555 1_555
N2_2 Co1 1_555 1_555
O1D C7D 1_555 1_555
O1A Co1 1_555 1_555
O2D C7D 1_555 1_555
O3A Co1 1_555 1_555
H5A O3A 1_555 1_555
H6A O3A 1_555 1_555
F1D C9D 1_555 1_555
F2D C10D 1_555 1_555
C7 O1 1_555 1_555
C1A C2A 1_555 1_555
C5A C6A 1_555 1_555
C9D C10D 1_555 1_555

#END
