
#######################################################################
#
#                 Cambridge Crystallographic Data Centre
#                                CCDC 
#
#######################################################################
#
# If this CIF has been generated from an entry in the Cambridge 
# Structural Database, then it will include bibliographic, chemical, 
# crystal, experimental, refinement or atomic coordinate data resulting 
# from the CCDC's data processing and validation procedures.
#
#######################################################################

data_QUKTUM
_symmetry_cell_setting           triclinic
_symmetry_space_group_name_H-M   'P -1'
_symmetry_Int_Tables_number      2
_space_group_name_Hall           '-P 1'
loop_
_symmetry_equiv_pos_site_id
_symmetry_equiv_pos_as_xyz
1 x,y,z
2 -x,-y,-z
_cell_length_a                   7.1732(14)
_cell_length_b                   9.2338(18)
_cell_length_c                   9.994(2)
_cell_angle_alpha                94.15(3)
_cell_angle_beta                 106.13(3)
_cell_angle_gamma                106.28(3)
_cell_volume                     602.248
loop_
_atom_site_label
_atom_site_type_symbol
_atom_site_fract_x
_atom_site_fract_y
_atom_site_fract_z
Cu1 Cu 1.0000 1.0000 0.0000
Cu2 Cu 0.86747(5) 0.25717(4) 0.47928(4)
O1 O 1.1588(4) 0.9578(2) 0.3181(2)
O2 O 0.5931(4) 0.5218(3) -0.3227(2)
O3 O 0.7412(3) 0.1904(2) 0.2684(2)
N1 N 0.8287(4) 0.5558(3) 0.0875(2)
N2 N 1.0191(4) 0.7046(3) 0.3096(3)
N3 N 0.9661(4) 0.8204(3) 0.1022(3)
N4 N 0.7857(4) 0.6742(3) -0.1157(3)
N5 N 0.6351(4) 0.4018(3) -0.1327(3)
N6 N 0.6834(4) 0.2892(3) 0.0670(3)
N7 N 0.8765(4) 0.4451(3) 0.2943(3)
N8 N 0.7069(4) 0.9819(3) -0.0489(3)
N9 N 0.5968(4) 0.2588(3) 0.4847(3)
N10 N 1.1292(4) 0.2453(3) 0.4630(3)
C1 C 0.9090(4) 0.5681(3) 0.2339(3)
C2 C 0.8585(4) 0.6839(3) 0.0212(3)
C3 C 0.7126(4) 0.4121(3) 0.0041(3)
C4 C 1.0515(5) 0.8322(3) 0.2452(3)
C5 C 0.6686(5) 0.5323(3) -0.1942(3)
C6 C 0.7663(4) 0.3084(3) 0.2083(3)
H1 H 0.692(6) 1.057(4) -0.013(4)
H2 H 0.633(6) 0.907(4) -0.029(4)
H3 H 0.661(6) 0.973(5) -0.141(3)
H4 H 0.608(7) 0.326(5) 0.552(4)
H5 H 0.523(7) 0.174(4) 0.488(5)
H6 H 0.525(7) 0.283(6) 0.422(5)
H7 H 1.202(6) 0.325(4) 0.456(5)
H8 H 1.209(6) 0.224(5) 0.525(4)
H9 H 1.098(7) 0.180(5) 0.395(4)
Cu2A Cu 1.13253(5) 1.74283(4) -0.47928(4)
Cu2A_2 Cu 1.13253(5) 0.74283(4) 0.52072(4)
Cu2_2 Cu 0.86747(5) 1.25717(4) -0.52072(4)
O1A O 0.8412(4) 1.0422(2) -0.3181(2)
O2A O 1.4069(4) 1.4782(3) 0.3227(2)
O3A O 1.2588(3) 1.8096(2) -0.2684(2)
N1A N 1.1713(4) 1.4442(3) -0.0875(2)
N2A N 0.9809(4) 1.2954(3) -0.3096(3)
N2A_2 N 0.9809(4) 0.2954(3) 0.6904(3)
N2_2 N 1.0191(4) 1.7046(3) -0.6904(3)
N3A N 1.0339(4) 1.1796(3) -0.1022(3)
N4A N 1.2143(4) 1.3258(3) 0.1157(3)
N5A N 1.3649(4) 1.5982(3) 0.1327(3)
N6A N 1.3166(4) 1.7108(3) -0.0670(3)
N7A N 1.1235(4) 1.5549(3) -0.2943(3)
N8A N 1.2931(4) 1.0181(3) 0.0489(3)
N9A N 1.4032(4) 1.7412(3) -0.4847(3)
N10A N 0.8708(4) 1.7547(3) -0.4630(3)
C1A C 1.0910(4) 1.4319(3) -0.2339(3)
C2A C 1.1415(4) 1.3161(3) -0.0212(3)
C3A C 1.2874(4) 1.5879(3) -0.0041(3)
C4A C 0.9485(5) 1.1678(3) -0.2452(3)
C5A C 1.3314(5) 1.4677(3) 0.1942(3)
C6A C 1.2337(4) 1.6916(3) -0.2083(3)
H1A H 1.308(6) 0.943(4) 0.013(4)
H2A H 1.367(6) 1.093(4) 0.029(4)
H3A H 1.339(6) 1.027(5) 0.141(3)
H4A H 1.392(7) 1.674(5) -0.552(4)
H5A H 1.477(7) 1.826(4) -0.488(5)
H6A H 1.475(7) 1.717(6) -0.422(5)
H7A H 0.798(6) 1.675(4) -0.456(5)
H8A H 0.791(6) 1.776(5) -0.525(4)
H9A H 0.902(7) 1.820(5) -0.395(4)
O4 O 0.3627(5) 0.1238(3) 0.6981(3)
H10 H 0.439(6) 0.196(4) 0.752(4)
H11 H 0.340(7) 0.053(4) 0.734(5)
loop_
_geom_bond_atom_site_label_1
_geom_bond_atom_site_label_2
_geom_bond_site_symmetry_1
_geom_bond_site_symmetry_2
Cu1 N3 1_555 1_555
Cu2 O3 1_555 1_555
O1 C4 1_555 1_555
O2 C5 1_555 1_555
O3 C6 1_555 1_555
O4 H10 1_555 1_555
N1 C1 1_555 1_555
N2 C1 1_555 1_555
N3 C2 1_555 1_555
N4 C2 1_555 1_555
N5 C3 1_555 1_555
N6 C3 1_555 1_555
N7 C1 1_555 1_555
N8 Cu1 1_555 1_555
N9 Cu2 1_555 1_555
N10 Cu2 1_555 1_555
C2 N1 1_555 1_555
C3 N1 1_555 1_555
C4 N2 1_555 1_555
C5 N4 1_555 1_555
C6 N6 1_555 1_555
H1 N8 1_555 1_555
H2 N8 1_555 1_555
H3 N8 1_555 1_555
H4 N9 1_555 1_555
H5 N9 1_555 1_555
H6 N9 1_555 1_555
H7 N10 1_555 1_555
H8 N10 1_555 1_555
H9 N10 1_555 1_555
H11 O4 1_555 1_555
Cu2A O3A 1_555 1_555
Cu2A_2 N2 1_555 1_555
Cu2_2 N2A 1_555 1_555
O1A C4A 1_555 1_555
O2A C5A 1_555 1_555
O3A C6A 1_555 1_555
N1A C1A 1_555 1_555
N2A C1A 1_555 1_555
N2A_2 Cu2 1_555 1_555
N2_2 Cu2A 1_555 1_555
N3A Cu1 1_555 1_555
N4A C2A 1_555 1_555
N5A C3A 1_555 1_555
N6A C3A 1_555 1_555
N7A C1A 1_555 1_555
N8A Cu1 1_555 1_555
N9A Cu2A 1_555 1_555
N10A Cu2A 1_555 1_555
C2A N1A 1_555 1_555
C3A N1A 1_555 1_555
C4A N2A 1_555 1_555
C5A N4A 1_555 1_555
C6A N6A 1_555 1_555
H1A N8A 1_555 1_555
H2A N8A 1_555 1_555
H3A N8A 1_555 1_555
H4A N9A 1_555 1_555
H5A N9A 1_555 1_555
H6A N9A 1_555 1_555
H7A N10A 1_555 1_555
H8A N10A 1_555 1_555
H9A N10A 1_555 1_555
N3 C4 1_555 1_555
N5 C5 1_555 1_555
N7 C6 1_555 1_555
N3A C2A 1_555 1_555
N3A C4A 1_555 1_555
N5A C5A 1_555 1_555
N7A C6A 1_555 1_555

#END
