
#######################################################################
#
#                 Cambridge Crystallographic Data Centre
#                                CCDC 
#
#######################################################################
#
# If this CIF has been generated from an entry in the Cambridge 
# Structural Database, then it will include bibliographic, chemical, 
# crystal, experimental, refinement or atomic coordinate data resulting 
# from the CCDC's data processing and validation procedures.
#
#######################################################################

data_QUKVEY
_symmetry_cell_setting           triclinic
_symmetry_space_group_name_H-M   'P -1'
_symmetry_Int_Tables_number      2
_space_group_name_Hall           '-P 1'
loop_
_symmetry_equiv_pos_site_id
_symmetry_equiv_pos_as_xyz
1 x,y,z
2 -x,-y,-z
_cell_length_a                   6.3345(3)
_cell_length_b                   7.2894(4)
_cell_length_c                   7.6016(4)
_cell_angle_alpha                72.329(3)
_cell_angle_beta                 73.234(3)
_cell_angle_gamma                81.405(3)
_cell_volume                     319.485
loop_
_atom_site_label
_atom_site_type_symbol
_atom_site_fract_x
_atom_site_fract_y
_atom_site_fract_z
Fe1 Fe 0.0000 0.0000 0.0000
S1 S -0.27921(8) 0.10705(8) -0.20307(7)
S2 S 0.27340(8) -0.11709(8) -0.27003(7)
C1 C -0.1131(3) 0.0442(3) -0.3895(3)
C2 C 0.1106(3) -0.0489(3) -0.4163(3)
O1 O 0.1098(3) 0.2846(2) -0.1137(3)
H1 H 0.172(5) 0.311(4) -0.053(4)
H2 H 0.171(5) 0.315(4) -0.216(3)
Fe1_2 Fe 0.0000 0.0000 -1.0000
S1A S 0.27921(8) -0.10705(8) -0.79693(7)
S1A_2 S 0.27921(8) -0.10705(8) 0.20307(7)
S2A S -0.27340(8) 0.11709(8) -0.72997(7)
S2A_2 S -0.27340(8) 0.11709(8) 0.27003(7)
C1A C 0.1131(3) -0.0442(3) -0.6105(3)
C2A C -0.1106(3) 0.0489(3) -0.5837(3)
O1A O -0.1098(3) -0.2846(2) 0.1137(3)
H1A H -0.172(5) -0.311(4) 0.053(4)
H2A H -0.171(5) -0.315(4) 0.216(3)
O2 O 0.7186(3) -0.4431(3) -0.1061(3)
H3 H 0.709(5) -0.409(4) -0.206(3)
H4 H 0.798(4) -0.530(3) -0.101(4)
O3 O 0.6660(4) -0.3806(3) 0.4955(3)
H5 H 0.599(5) -0.283(3) 0.502(5)
H6 H 0.592(5) -0.462(4) 0.539(4)
loop_
_geom_bond_atom_site_label_1
_geom_bond_atom_site_label_2
_geom_bond_site_symmetry_1
_geom_bond_site_symmetry_2
Fe1 S1 1_555 1_555
S1 C1 1_555 1_555
S2 Fe1 1_555 1_555
C1 C2 1_555 1_555
C2 S2 1_555 1_555
O1 Fe1 1_555 1_555
H1 O1 1_555 1_555
H2 O1 1_555 1_555
O2 H3 1_555 1_555
H4 O2 1_555 1_555
O3 H5 1_555 1_555
H6 O3 1_555 1_555
Fe1_2 S1A 1_555 1_555
S1A C1A 1_555 1_555
S1A_2 Fe1 1_555 1_555
S2A Fe1_2 1_555 1_555
S2A_2 Fe1 1_555 1_555
C1A C2 1_555 1_555
C2A C1 1_555 1_555
O1A Fe1 1_555 1_555
H1A O1A 1_555 1_555
H2A O1A 1_555 1_555
S2A C2A 1_555 1_555
C1A C2A 1_555 1_555

#END
