
#######################################################################
#
#                 Cambridge Crystallographic Data Centre
#                                CCDC 
#
#######################################################################
#
# If this CIF has been generated from an entry in the Cambridge 
# Structural Database, then it will include bibliographic, chemical, 
# crystal, experimental, refinement or atomic coordinate data resulting 
# from the CCDC's data processing and validation procedures.
#
#######################################################################

data_QULBUV
_symmetry_cell_setting           monoclinic
_symmetry_space_group_name_H-M   'P 21/n'
_symmetry_Int_Tables_number      14
_space_group_name_Hall           '-P 2yn'
loop_
_symmetry_equiv_pos_site_id
_symmetry_equiv_pos_as_xyz
1 x,y,z
2 1/2-x,1/2+y,1/2-z
3 -x,-y,-z
4 1/2+x,1/2-y,1/2+z
_cell_length_a                   12.380(2)
_cell_length_b                   7.6456(15)
_cell_length_c                   21.151(4)
_cell_angle_alpha                90
_cell_angle_beta                 101.295(5)
_cell_angle_gamma                90
_cell_volume                     1963.22
loop_
_atom_site_label
_atom_site_type_symbol
_atom_site_fract_x
_atom_site_fract_y
_atom_site_fract_z
Fe1 Fe 0.50532(2) 0.72993(4) 0.187363(15)
K1 K 0.69586(4) 1.08968(7) 0.24564(3)
O1 O 0.61614(13) 0.8471(2) 0.15252(7)
O2 O 0.59733(12) 0.7527(2) 0.27102(7)
O3 O 0.5489(2) 1.2757(4) 0.31033(12)
H1 H 0.4918 1.2926 0.2714
N1 N 0.62140(18) 0.3762(3) 0.16938(11)
N2 N 0.3958(2) 1.0874(3) 0.20997(12)
N3 N 0.41207(16) 0.6925(3) 0.10522(10)
N4 N 0.38920(15) 0.6196(3) 0.22020(10)
C1 C 0.57616(18) 0.5041(3) 0.17520(11)
C2 C 0.43486(18) 0.9571(3) 0.20049(11)
C3 C 0.4401(2) 0.7112(3) 0.05061(12)
H2 H 0.3884 0.6812 0.0141
C4 C 0.5444(2) 0.7744(3) 0.04095(12)
C5 C 0.5624(3) 0.7817(4) -0.02268(13)
H3 H 0.5087 0.7389 -0.0561
C6 C 0.6576(3) 0.8506(5) -0.03643(14)
H4 H 0.6684 0.8537 -0.0787
C7 C 0.7369(3) 0.9152(4) 0.01284(14)
H5 H 0.8015 0.9616 0.0037
C8 C 0.7217(2) 0.9117(4) 0.07542(13)
H6 H 0.7762 0.9572 0.1078
C9 C 0.6264(2) 0.8415(3) 0.09175(11)
C10 C 0.3756(2) 0.6271(3) 0.27846(13)
H7 H 0.3119 0.5775 0.2878
C11 C 0.4512(2) 0.7064(4) 0.33033(12)
C12 C 0.4196(3) 0.7205(4) 0.39067(15)
H8 H 0.3490 0.6859 0.3942
C13 C 0.4882(3) 0.7826(5) 0.44359(15)
H9 H 0.4653 0.7916 0.4828
C14 C 0.5936(3) 0.8326(5) 0.43808(14)
H10 H 0.6414 0.8757 0.4742
C15 C 0.6293(2) 0.8200(4) 0.38067(12)
H11 H 0.7011 0.8521 0.3790
C16 C 0.5593(2) 0.7598(3) 0.32469(11)
C17 C 0.3004(2) 0.6348(4) 0.11001(14)
H12 H 0.2684 0.5654 0.0726
H13 H 0.2534 0.7352 0.1122
C18 C 0.3109(2) 0.5266(4) 0.17055(14)
H14 H 0.2400 0.5158 0.1832
H15 H 0.3380 0.4105 0.1637
C19 C 0.4986(4) 1.2480(5) 0.3623(2)
H16 H 0.5152 1.1321 0.3789
H17 H 0.4203 1.2606 0.3488
H18 H 0.5252 1.3321 0.3954
K1A K 0.80414(4) 0.58968(7) 0.25436(3)
K1_2 K 0.69586(4) 0.08968(7) 0.24564(3)
O2A O 0.90267(12) 1.2527(2) 0.22898(7)
N1_2 N 0.62140(18) 1.3762(3) 0.16938(11)
loop_
_geom_bond_atom_site_label_1
_geom_bond_atom_site_label_2
_geom_bond_site_symmetry_1
_geom_bond_site_symmetry_2
Fe1 O1 1_555 1_555
K1 O1 1_555 1_555
O1 C9 1_555 1_555
O2 Fe1 1_555 1_555
O3 K1 1_555 1_555
H1 O3 1_555 1_555
N1 C1 1_555 1_555
N2 C2 1_555 1_555
N3 Fe1 1_555 1_555
N4 Fe1 1_555 1_555
C1 Fe1 1_555 1_555
C2 Fe1 1_555 1_555
C3 N3 1_555 1_555
H2 C3 1_555 1_555
C4 C3 1_555 1_555
C5 C4 1_555 1_555
H3 C5 1_555 1_555
C6 C5 1_555 1_555
H4 C6 1_555 1_555
C7 C6 1_555 1_555
H5 C7 1_555 1_555
C8 C7 1_555 1_555
H6 C8 1_555 1_555
C9 C4 1_555 1_555
C10 N4 1_555 1_555
H7 C10 1_555 1_555
C11 C10 1_555 1_555
C12 C11 1_555 1_555
H8 C12 1_555 1_555
C13 C12 1_555 1_555
H9 C13 1_555 1_555
C14 C13 1_555 1_555
H10 C14 1_555 1_555
C15 C14 1_555 1_555
H11 C15 1_555 1_555
C16 O2 1_555 1_555
C17 N3 1_555 1_555
H12 C17 1_555 1_555
H13 C17 1_555 1_555
C18 N4 1_555 1_555
H14 C18 1_555 1_555
H15 C18 1_555 1_555
C19 O3 1_555 1_555
H16 C19 1_555 1_555
H17 C19 1_555 1_555
H18 C19 1_555 1_555
K1A O2 1_555 1_555
K1_2 N1 1_555 1_555
O2A K1 1_555 1_555
N1_2 K1 1_555 1_555
C8 C9 1_555 1_555
C11 C16 1_555 1_555
C15 C16 1_555 1_555
C17 C18 1_555 1_555

#END
