
#######################################################################
#
#                 Cambridge Crystallographic Data Centre
#                                CCDC 
#
#######################################################################
#
# If this CIF has been generated from an entry in the Cambridge 
# Structural Database, then it will include bibliographic, chemical, 
# crystal, experimental, refinement or atomic coordinate data resulting 
# from the CCDC's data processing and validation procedures.
#
#######################################################################

data_QULFUZ
_symmetry_cell_setting           monoclinic
_symmetry_space_group_name_H-M   'C 2/c'
_symmetry_Int_Tables_number      15
_space_group_name_Hall           '-C 2yn'
loop_
_symmetry_equiv_pos_site_id
_symmetry_equiv_pos_as_xyz
1 x,y,z
2 -x,y,1/2-z
3 1/2+x,1/2+y,z
4 1/2-x,1/2+y,1/2-z
5 -x,-y,-z
6 x,-y,1/2+z
7 1/2-x,1/2-y,-z
8 1/2+x,1/2-y,1/2+z
_cell_length_a                   22.9411(15)
_cell_length_b                   12.0197(8)
_cell_length_c                   13.4236(9)
_cell_angle_alpha                90
_cell_angle_beta                 125.0730(10)
_cell_angle_gamma                90
_cell_volume                     3029.38
loop_
_atom_site_label
_atom_site_type_symbol
_atom_site_fract_x
_atom_site_fract_y
_atom_site_fract_z
Cd1 Cd 0.014601(8) 0.077041(13) 0.397933(13)
N1 N 0.00443(9) 0.26960(16) 0.37616(16)
N2 N -0.05184(10) 0.33987(16) 0.30607(17)
N3 N 0.04541(10) 0.43807(15) 0.43087(17)
N4 N 0.09229(10) 0.52706(16) 0.49962(17)
H1 H 0.1161 0.5436 0.4667
H2 H 0.0644 0.5870 0.4818
N5 N 0.12546(10) 0.16530(16) 0.55288(17)
N6 N -0.03762(10) 0.64055(17) 0.33260(17)
N7 N 0.05095(11) -0.07977(16) 0.51779(18)
N8 N 0.08628(10) -0.15409(17) 0.51827(16)
N9 N 0.12062(11) -0.22496(19) 0.51995(19)
N10 N -0.07305(10) 0.03763(18) 0.19800(17)
N11 N -0.13571(10) 0.02529(16) 0.14932(17)
N12 N -0.19592(11) 0.0118(2) 0.1014(2)
C1 C 0.18444(13) 0.1096(2) 0.6360(2)
H3 H 0.1807 0.0323 0.6460
C2 C 0.25071(13) 0.1594(2) 0.7082(2)
H4 H 0.2911 0.1181 0.7689
C3 C 0.25661(13) 0.2706(2) 0.6899(2)
H5 H 0.3018 0.3060 0.7350
C4 C 0.19597(12) 0.3303(2) 0.6049(2)
H6 H 0.1989 0.4070 0.5915
C5 C 0.13115(11) 0.27526(19) 0.54021(19)
C6 C 0.06224(12) 0.32814(19) 0.45099(19)
C7 C -0.02653(12) 0.44158(19) 0.3396(2)
C8 C -0.06984(12) 0.54273(19) 0.2858(2)
C9 C -0.14170(12) 0.5334(2) 0.1889(2)
H7 H -0.1630 0.4626 0.1577
C10 C -0.18078(13) 0.6301(2) 0.1399(2)
H8 H -0.2300 0.6268 0.0752
C11 C -0.14766(13) 0.7314(2) 0.1858(2)
H9 H -0.1734 0.7989 0.1525
C12 C -0.07641(13) 0.7329(2) 0.2812(2)
H10 H -0.0538 0.8029 0.3119
Cd1D Cd -0.014601(8) -0.077041(13) 0.602067(13)
Cd1A Cd -0.014601(8) 0.077041(13) 0.102067(13)
N7D N -0.05095(11) 0.07977(16) 0.48221(18)
N10A N 0.07305(10) 0.03763(18) 0.30200(17)
loop_
_geom_bond_atom_site_label_1
_geom_bond_atom_site_label_2
_geom_bond_site_symmetry_1
_geom_bond_site_symmetry_2
Cd1 N1 1_555 1_555
N1 N2 1_555 1_555
N2 C7 1_555 1_555
N3 N4 1_555 1_555
N4 H1 1_555 1_555
H2 N4 1_555 1_555
N5 Cd1 1_555 1_555
N6 C8 1_555 1_555
N7 Cd1 1_555 1_555
N8 N7 1_555 1_555
N9 N8 1_555 1_555
N10 Cd1 1_555 1_555
N11 N10 1_555 1_555
N12 N11 1_555 1_555
C1 N5 1_555 1_555
H3 C1 1_555 1_555
C2 C1 1_555 1_555
H4 C2 1_555 1_555
C3 C2 1_555 1_555
H5 C3 1_555 1_555
C4 C3 1_555 1_555
H6 C4 1_555 1_555
C5 N5 1_555 1_555
C6 N1 1_555 1_555
C7 N3 1_555 1_555
C8 C7 1_555 1_555
C9 C8 1_555 1_555
H7 C9 1_555 1_555
C10 C9 1_555 1_555
H8 C10 1_555 1_555
C11 C10 1_555 1_555
H9 C11 1_555 1_555
C12 N6 1_555 1_555
H10 C12 1_555 1_555
Cd1D N7 1_555 1_555
Cd1A N10 1_555 1_555
N7D Cd1 1_555 1_555
N10A Cd1 1_555 1_555
N3 C6 1_555 1_555
C4 C5 1_555 1_555
C5 C6 1_555 1_555
C11 C12 1_555 1_555
Cd1D N7D 1_555 1_555
Cd1A N10A 1_555 1_555

#END
