
#######################################################################
#
#                 Cambridge Crystallographic Data Centre
#                                CCDC 
#
#######################################################################
#
# If this CIF has been generated from an entry in the Cambridge 
# Structural Database, then it will include bibliographic, chemical, 
# crystal, experimental, refinement or atomic coordinate data resulting 
# from the CCDC's data processing and validation procedures.
#
#######################################################################

data_QULJEN
_symmetry_cell_setting           monoclinic
_symmetry_space_group_name_H-M   'P 21/n'
_symmetry_Int_Tables_number      14
_space_group_name_Hall           '-P 2yn'
loop_
_symmetry_equiv_pos_site_id
_symmetry_equiv_pos_as_xyz
1 x,y,z
2 1/2-x,1/2+y,1/2-z
3 -x,-y,-z
4 1/2+x,1/2-y,1/2+z
_cell_length_a                   11.0527(10)
_cell_length_b                   11.3755(10)
_cell_length_c                   15.9775(14)
_cell_angle_alpha                90
_cell_angle_beta                 103.6340(10)
_cell_angle_gamma                90
_cell_volume                     1952.24
loop_
_atom_site_label
_atom_site_type_symbol
_atom_site_fract_x
_atom_site_fract_y
_atom_site_fract_z
Zn1 Zn 0.143055(18) -0.064355(17) 0.860075(12)
N1 N 0.30283(14) -0.03276(13) 0.81818(10)
N2 N 0.61237(15) 0.43152(13) 0.43932(10)
O1 O 0.00572(12) -0.08667(11) 0.75778(8)
O2 O 0.03994(14) 0.09995(12) 0.72792(9)
O3 O -0.19497(19) -0.34815(14) 0.51827(12)
O4 O -0.32294(12) -0.27407(12) 0.40286(9)
C1 C -0.08677(16) -0.01528(15) 0.61691(11)
C2 C -0.13463(16) -0.12518(16) 0.58925(11)
H1 H -0.1228 -0.1879 0.6276
C3 C -0.20030(16) -0.14187(15) 0.50427(11)
C4 C -0.21923(17) -0.04736(16) 0.44744(11)
H2 H -0.2647 -0.0584 0.3911
C5 C -0.17116(17) 0.06368(15) 0.47347(12)
C6 C -0.10488(16) 0.07783(15) 0.55838(12)
H3 H -0.0718 0.1512 0.5766
C7 C -0.00860(16) 0.00320(16) 0.70704(11)
C8 C -0.24191(18) -0.26421(17) 0.47466(13)
C9 C -0.1874(2) 0.16496(18) 0.41062(13)
H4 H -0.2738 0.1861 0.3936
H5 H -0.1588 0.1420 0.3607
H6 H -0.1399 0.2312 0.4376
C10 C 0.38033(18) -0.12146(17) 0.80960(13)
H7 H 0.3590 -0.1978 0.8212
C11 C 0.48962(18) -0.10323(17) 0.78438(13)
H8 H 0.5392 -0.1670 0.7778
C12 C 0.52655(17) 0.01055(17) 0.76860(12)
C13 C 0.44485(18) 0.10124(17) 0.77616(12)
H9 H 0.4641 0.1785 0.7653
C14 C 0.33559(18) 0.07587(16) 0.79973(12)
H10 H 0.2816 0.1375 0.8030
C15 C 0.65141(19) 0.0316(2) 0.74828(14)
H11 H 0.6721 -0.0371 0.7185
H12 H 0.7135 0.0380 0.8023
C16 C 0.66214(18) 0.14028(18) 0.69377(13)
H13 H 0.6350 0.2088 0.7206
H14 H 0.7489 0.1518 0.6932
C17 C 0.58562(18) 0.13117(17) 0.60125(12)
H15 H 0.6134 0.0628 0.5747
H16 H 0.4992 0.1184 0.6022
C18 C 0.6881(2) 0.41859(19) 0.51746(14)
H17 H 0.7490 0.4752 0.5366
C19 C 0.6802(2) 0.3251(2) 0.57114(13)
H18 H 0.7346 0.3212 0.6252
C20 C 0.59309(17) 0.23768(16) 0.54586(12)
C21 C 0.51400(19) 0.2521(2) 0.46542(13)
H19 H 0.4523 0.1965 0.4451
C22 C 0.52546(19) 0.3479(2) 0.41490(13)
H20 H 0.4703 0.3550 0.3613
Zn1C Zn 0.643055(18) 0.564355(17) 0.360075(12)
Zn1C_2 Zn -0.356945(18) -0.435645(17) 0.360075(12)
N2C N 0.11237(15) 0.06848(13) 0.93932(10)
O4C O 0.17706(12) -0.22593(12) 0.90286(9)
O5 O 0.9572(11) 0.4312(9) 0.5008(8)
H21 H 0.9575 0.4843 0.5364
H22 H 1.0273 0.4070 0.4946
loop_
_geom_bond_atom_site_label_1
_geom_bond_atom_site_label_2
_geom_bond_site_symmetry_1
_geom_bond_site_symmetry_2
Zn1 N1 1_555 1_555
N1 C10 1_555 1_555
N2 C18 1_555 1_555
O1 Zn1 1_555 1_555
O2 C7 1_555 1_555
O3 C8 1_555 1_555
O4 C8 1_555 1_555
C1 C2 1_555 1_555
C2 H1 1_555 1_555
C3 C2 1_555 1_555
C4 C3 1_555 1_555
H2 C4 1_555 1_555
C5 C4 1_555 1_555
C6 C1 1_555 1_555
H3 C6 1_555 1_555
C7 O1 1_555 1_555
C8 C3 1_555 1_555
C9 C5 1_555 1_555
H4 C9 1_555 1_555
H5 C9 1_555 1_555
H6 C9 1_555 1_555
C10 H7 1_555 1_555
C11 C10 1_555 1_555
H8 C11 1_555 1_555
C12 C11 1_555 1_555
C13 C12 1_555 1_555
H9 C13 1_555 1_555
C14 N1 1_555 1_555
H10 C14 1_555 1_555
C15 C12 1_555 1_555
H11 C15 1_555 1_555
H12 C15 1_555 1_555
C16 C15 1_555 1_555
H13 C16 1_555 1_555
H14 C16 1_555 1_555
C17 C16 1_555 1_555
H15 C17 1_555 1_555
H16 C17 1_555 1_555
C18 H17 1_555 1_555
C19 C18 1_555 1_555
H18 C19 1_555 1_555
C20 C17 1_555 1_555
C21 C20 1_555 1_555
H19 C21 1_555 1_555
C22 N2 1_555 1_555
H20 C22 1_555 1_555
O5 H21 1_555 1_555
H22 O5 1_555 1_555
Zn1C N2 1_555 1_555
Zn1C_2 O4 1_555 1_555
N2C Zn1 1_555 1_555
O4C Zn1 1_555 1_555
C1 C7 1_555 1_555
C5 C6 1_555 1_555
C13 C14 1_555 1_555
C19 C20 1_555 1_555
C21 C22 1_555 1_555

#END
