
#######################################################################
#
#                 Cambridge Crystallographic Data Centre
#                                CCDC 
#
#######################################################################
#
# If this CIF has been generated from an entry in the Cambridge 
# Structural Database, then it will include bibliographic, chemical, 
# crystal, experimental, refinement or atomic coordinate data resulting 
# from the CCDC's data processing and validation procedures.
#
#######################################################################

data_QULJOX
_symmetry_cell_setting           monoclinic
_symmetry_space_group_name_H-M   'P 21/n'
_symmetry_Int_Tables_number      14
_space_group_name_Hall           '-P 2yn'
loop_
_symmetry_equiv_pos_site_id
_symmetry_equiv_pos_as_xyz
1 x,y,z
2 1/2-x,1/2+y,1/2-z
3 -x,-y,-z
4 1/2+x,1/2-y,1/2+z
_cell_length_a                   12.7027(8)
_cell_length_b                   20.8321(13)
_cell_length_c                   16.9577(11)
_cell_angle_alpha                90
_cell_angle_beta                 102.8890(10)
_cell_angle_gamma                90
_cell_volume                     4374.35
loop_
_atom_site_label
_atom_site_type_symbol
_atom_site_fract_x
_atom_site_fract_y
_atom_site_fract_z
Zn1 Zn 0.23583(2) 0.421927(12) 0.697899(15)
Zn2 Zn -0.08495(2) 0.726990(14) 0.913610(16)
O1 O 0.32787(19) 0.44260(11) 0.84190(13)
O2 O 0.15920(17) 0.45923(9) 0.77995(10)
O3 O -0.00390(15) 0.64681(8) 0.90450(10)
O4 O 0.00450(17) 0.64216(10) 1.03541(11)
O5 O 0.32783(19) 0.50487(13) 1.13534(12)
O6 O 0.45109(17) 0.41402(9) 0.67931(15)
O7 O 0.31508(14) 0.48129(9) 0.64554(11)
O8 O 0.35226(15) 0.65317(10) 0.44516(12)
O9 O 0.50665(15) 0.70687(9) 0.47568(11)
O10 O 0.76880(14) 0.54958(10) 0.63359(12)
N1 N 0.24941(15) 0.32493(9) 0.71459(11)
N2 N 0.59875(16) 0.08237(10) 1.10089(11)
N3 N -0.12221(16) 0.74674(10) 0.79220(11)
N4 N 0.27077(17) 0.79266(10) 0.44254(12)
C1 C 0.2137(2) 0.49488(12) 0.91613(14)
C2 C 0.1282(2) 0.53713(12) 0.91050(14)
H1 H 0.0821 0.5449 0.8606
C3 C 0.1110(2) 0.56815(12) 0.97941(14)
C4 C 0.1777(2) 0.55380(13) 1.05369(15)
H2 H 0.1641 0.5722 1.1004
C5 C 0.2644(2) 0.51256(14) 1.05938(15)
C6 C 0.2838(2) 0.48365(13) 0.99029(15)
H3 H 0.3433 0.4570 0.9936
C7 C 0.2372(3) 0.46290(12) 0.84215(16)
C8 C 0.0302(2) 0.62163(12) 0.97399(15)
C9 C 0.4324(3) 0.4770(3) 1.1432(2)
H4 H 0.4250 0.4324 1.1289
H5 H 0.4723 0.4812 1.1981
H6 H 0.4701 0.4988 1.1079
C10 C 0.48116(18) 0.51183(11) 0.61640(13)
C11 C 0.43524(19) 0.56002(11) 0.56355(13)
H7 H 0.3605 0.5627 0.5465
C12 C 0.50010(19) 0.60435(11) 0.53583(14)
C13 C 0.6110(2) 0.59939(12) 0.56053(15)
H8 H 0.6548 0.6291 0.5422
C14 C 0.65773(19) 0.55051(12) 0.61244(15)
C15 C 0.59279(19) 0.50666(12) 0.64043(14)
H9 H 0.6237 0.4739 0.6752
C16 C 0.4131(2) 0.46459(12) 0.64944(14)
C17 C 0.4475(2) 0.65759(12) 0.48114(15)
C18 C 0.8182(2) 0.50331(18) 0.6927(2)
H10 H 0.7913 0.5087 0.7409
H11 H 0.8951 0.5093 0.7053
H12 H 0.8015 0.4609 0.6716
C19 C 0.3213(2) 0.28833(12) 0.68790(14)
H13 H 0.3712 0.3081 0.6632
C20 C 0.3238(2) 0.22262(12) 0.69586(15)
H14 H 0.3745 0.1989 0.6762
C21 C 0.25095(19) 0.19138(11) 0.73307(13)
C22 C 0.1770(2) 0.22963(12) 0.76008(14)
H15 H 0.1264 0.2111 0.7851
C23 C 0.17866(19) 0.29501(12) 0.74977(14)
H16 H 0.1281 0.3197 0.7682
C24 C 0.2571(2) 0.12024(12) 0.74571(15)
H17 H 0.2627 0.0993 0.6957
H18 H 0.1914 0.1054 0.7600
C25 C 0.3545(2) 0.10157(12) 0.81278(14)
H19 H 0.3624 0.0552 0.8139
H20 H 0.4195 0.1200 0.8010
C26 C 0.3424(2) 0.12447(15) 0.89422(14)
H21 H 0.2752 0.1075 0.9037
H22 H 0.3360 0.1709 0.8923
C27 C 0.5020(2) 0.10433(14) 1.10834(15)
H23 H 0.4912 0.1115 1.1601
C28 C 0.4184(2) 0.11672(14) 1.04366(15)
H24 H 0.3528 0.1317 1.0522
C29 C 0.43148(19) 0.10697(12) 0.96555(14)
C30 C 0.5301(2) 0.08269(12) 0.95787(14)
H25 H 0.5421 0.0742 0.9068
C31 C 0.6103(2) 0.07111(12) 1.02557(14)
H26 H 0.6757 0.0547 1.0187
C32 C -0.1382(2) 0.69823(13) 0.73898(15)
H27 H -0.1304 0.6564 0.7586
C33 C -0.1653(2) 0.70747(14) 0.65697(15)
H28 H -0.1760 0.6723 0.6224
C34 C -0.1769(2) 0.76891(14) 0.62551(15)
C35 C -0.1581(2) 0.81866(14) 0.68011(16)
H29 H -0.1633 0.8609 0.6618
C36 C -0.1314(2) 0.80613(13) 0.76213(16)
H30 H -0.1194 0.8406 0.7979
C37 C -0.2060(2) 0.77888(17) 0.53470(15)
H31 H -0.2626 0.7490 0.5105
H32 H -0.2336 0.8221 0.5229
C38 C -0.1070(3) 0.76876(17) 0.49697(17)
H33 H -0.1312 0.7630 0.4390
H34 H -0.0689 0.7302 0.5192
C39 C -0.0330(3) 0.82416(18) 0.5134(2)
H35 H -0.0676 0.8613 0.4841
H36 H -0.0180 0.8341 0.5707
C40 C 0.2655(2) 0.80479(15) 0.51842(16)
H37 H 0.3298 0.8080 0.5572
C41 C 0.1705(2) 0.81281(16) 0.54268(17)
H38 H 0.1716 0.8198 0.5970
C42 C 0.0746(3) 0.81062(17) 0.48787(19)
C43 C 0.0792(3) 0.7966(2) 0.4090(2)
H39 H 0.0157 0.7932 0.3694
C44 C 0.1777(2) 0.78752(18) 0.38860(18)
H40 H 0.1788 0.7775 0.3353
Zn1C Zn 0.73583(2) 0.078073(12) 1.197899(15)
Zn2C Zn 0.41505(2) 0.773010(14) 0.413610(16)
O9C O 0.00665(15) 0.79313(9) 0.97568(11)
N2C N 0.09875(16) 0.41763(10) 0.60089(11)
N4C N -0.22923(17) 0.70734(10) 0.94254(12)
O11 O 0.0546(3) 0.75408(18) 0.1766(2)
H41 H 0.0711 0.7194 0.2022
H42 H 0.0679 0.7489 0.1245
O12 O 0.0258(2) 0.60708(14) 0.19345(13)
H43 H 0.0182 0.6121 0.1435
H44 H -0.0217 0.5819 0.2026
loop_
_geom_bond_atom_site_label_1
_geom_bond_atom_site_label_2
_geom_bond_site_symmetry_1
_geom_bond_site_symmetry_2
Zn1 O2 1_555 1_555
Zn2 O3 1_555 1_555
O1 C7 1_555 1_555
O2 C7 1_555 1_555
O3 C8 1_555 1_555
O4 C8 1_555 1_555
O5 C5 1_555 1_555
O6 C16 1_555 1_555
O7 Zn1 1_555 1_555
O8 C17 1_555 1_555
O9 C17 1_555 1_555
O10 C14 1_555 1_555
N1 Zn1 1_555 1_555
N2 C27 1_555 1_555
N3 Zn2 1_555 1_555
N4 C40 1_555 1_555
C1 C2 1_555 1_555
C2 H1 1_555 1_555
C3 C2 1_555 1_555
C4 C3 1_555 1_555
H2 C4 1_555 1_555
C5 C4 1_555 1_555
C6 C1 1_555 1_555
H3 C6 1_555 1_555
C7 C1 1_555 1_555
C8 C3 1_555 1_555
C9 O5 1_555 1_555
H4 C9 1_555 1_555
H5 C9 1_555 1_555
H6 C9 1_555 1_555
C10 C11 1_555 1_555
C11 H7 1_555 1_555
C12 C11 1_555 1_555
C13 C12 1_555 1_555
H8 C13 1_555 1_555
C14 C13 1_555 1_555
C15 C10 1_555 1_555
H9 C15 1_555 1_555
C16 O7 1_555 1_555
C17 C12 1_555 1_555
C18 O10 1_555 1_555
H10 C18 1_555 1_555
H11 C18 1_555 1_555
H12 C18 1_555 1_555
C19 N1 1_555 1_555
H13 C19 1_555 1_555
C20 C19 1_555 1_555
H14 C20 1_555 1_555
C21 C20 1_555 1_555
C22 C21 1_555 1_555
H15 C22 1_555 1_555
C23 N1 1_555 1_555
H16 C23 1_555 1_555
C24 C21 1_555 1_555
H17 C24 1_555 1_555
H18 C24 1_555 1_555
C25 C24 1_555 1_555
H19 C25 1_555 1_555
H20 C25 1_555 1_555
C26 C25 1_555 1_555
H21 C26 1_555 1_555
H22 C26 1_555 1_555
C27 H23 1_555 1_555
C28 C27 1_555 1_555
H24 C28 1_555 1_555
C29 C26 1_555 1_555
C30 C29 1_555 1_555
H25 C30 1_555 1_555
C31 N2 1_555 1_555
H26 C31 1_555 1_555
C32 N3 1_555 1_555
H27 C32 1_555 1_555
C33 C32 1_555 1_555
H28 C33 1_555 1_555
C34 C33 1_555 1_555
C35 C34 1_555 1_555
H29 C35 1_555 1_555
C36 N3 1_555 1_555
H30 C36 1_555 1_555
C37 C34 1_555 1_555
H31 C37 1_555 1_555
H32 C37 1_555 1_555
C38 C37 1_555 1_555
H33 C38 1_555 1_555
H34 C38 1_555 1_555
C39 C38 1_555 1_555
H35 C39 1_555 1_555
H36 C39 1_555 1_555
C40 H37 1_555 1_555
C41 C40 1_555 1_555
H38 C41 1_555 1_555
C42 C39 1_555 1_555
C43 C42 1_555 1_555
H39 C43 1_555 1_555
C44 N4 1_555 1_555
H40 C44 1_555 1_555
O11 H41 1_555 1_555
H42 O11 1_555 1_555
O12 H43 1_555 1_555
H44 O12 1_555 1_555
Zn1C N2 1_555 1_555
Zn2C O9 1_555 1_555
O9C Zn2 1_555 1_555
N2C Zn1 1_555 1_555
N4C Zn2 1_555 1_555
N4 Zn2C 1_555 1_555
C5 C6 1_555 1_555
C10 C16 1_555 1_555
C14 C15 1_555 1_555
C22 C23 1_555 1_555
C28 C29 1_555 1_555
C30 C31 1_555 1_555
C35 C36 1_555 1_555
C41 C42 1_555 1_555
C43 C44 1_555 1_555

#END
