
#######################################################################
#
#                 Cambridge Crystallographic Data Centre
#                                CCDC 
#
#######################################################################
#
# If this CIF has been generated from an entry in the Cambridge 
# Structural Database, then it will include bibliographic, chemical, 
# crystal, experimental, refinement or atomic coordinate data resulting 
# from the CCDC's data processing and validation procedures.
#
#######################################################################

data_QULLOZ
_symmetry_cell_setting           monoclinic
_symmetry_space_group_name_H-M   'P 21'
_symmetry_Int_Tables_number      4
_space_group_name_Hall           'P 2yb'
loop_
_symmetry_equiv_pos_site_id
_symmetry_equiv_pos_as_xyz
1 x,y,z
2 -x,1/2+y,-z
_cell_length_a                   9.150(18)
_cell_length_b                   13.76(3)
_cell_length_c                   10.229(19)
_cell_angle_alpha                90
_cell_angle_beta                 93.17(4)
_cell_angle_gamma                90
_cell_volume                     1285.9
loop_
_atom_site_label
_atom_site_type_symbol
_atom_site_fract_x
_atom_site_fract_y
_atom_site_fract_z
Zn1 Zn 0.13428(10) 0.94253(7) 0.89650(9)
Zn2 Zn 0.61486(10) 0.93362(8) 0.60154(9)
O1 O 0.3191(7) 1.0250(5) 0.8587(6)
O2 O 0.2284(8) 0.8545(5) 0.7528(7)
O3 O 0.5023(8) 1.0293(5) 0.7231(8)
O4 O 0.4274(7) 0.8513(5) 0.6306(6)
O5 O -0.1960(7) 1.0205(5) 0.6315(6)
O6 O -0.2752(8) 0.8559(5) 0.7593(7)
O7 O -0.0595(7) 0.8576(5) 0.8755(6)
O8 O 0.0087(8) 1.0294(5) 0.7628(7)
N1 N 0.0621(9) 1.0173(7) 1.0683(8)
N2 N 0.2248(9) 0.8539(6) 1.0555(8)
N3 N 0.5455(9) 1.0052(6) 0.4172(8)
N4 N 0.7054(8) 0.8392(6) 0.4584(7)
C1 C 0.3910(11) 0.9892(7) 0.7684(9)
C2 C 0.3476(12) 0.8884(7) 0.7117(11)
C3 C -0.1520(11) 0.8901(7) 0.7906(10)
C4 C -0.1104(11) 0.9868(7) 0.7237(10)
C5 C -0.0178(12) 1.0994(8) 1.0752(12)
H1 H -0.0392 1.1351 0.9994
C6 C -0.0709(14) 1.1331(10) 1.1980(14)
H2 H -0.1218 1.1914 1.2009
C7 C -0.0473(14) 1.0808(9) 1.3071(12)
H3 H -0.0871 1.1001 1.3847
C8 C 0.0419(13) 0.9929(9) 1.3032(12)
C9 C 0.0709(14) 0.9404(14) 1.4161(9)
H4 H 0.0357 0.9601 1.4955
C10 C 0.1563(15) 0.8555(10) 1.4068(10)
H5 H 0.1762 0.8182 1.4815
C11 C 0.2110(12) 0.8262(9) 1.2902(11)
C12 C 0.3033(14) 0.7417(9) 1.2724(13)
H6 H 0.3314 0.7035 1.3445
C13 C 0.3485(14) 0.7177(9) 1.1548(15)
H7 H 0.4065 0.6628 1.1459
C14 C 0.3095(12) 0.7743(7) 1.0450(11)
H8 H 0.3423 0.7570 0.9638
C15 C 0.1811(11) 0.8787(8) 1.1746(10)
C16 C 0.0909(11) 0.9682(7) 1.1813(9)
C17 C 0.4721(12) 1.0866(8) 0.4001(11)
H9 H 0.4445 1.1208 0.4731
C18 C 0.4339(15) 1.1235(10) 0.2750(13)
H10 H 0.3803 1.1807 0.2658
C19 C 0.4762(13) 1.0745(8) 0.1659(11)
H11 H 0.4495 1.0977 0.0826
C20 C 0.5609(11) 0.9884(8) 0.1814(10)
C21 C 0.6129(11) 0.9367(13) 0.0762(9)
H12 H 0.5925 0.9590 -0.0087
C22 C 0.6951(14) 0.8518(9) 0.0964(10)
H13 H 0.7293 0.8183 0.0253
C23 C 0.7259(11) 0.8173(8) 0.2238(9)
C24 C 0.8126(12) 0.7320(8) 0.2546(11)
H14 H 0.8485 0.6955 0.1869
C25 C 0.8425(12) 0.7043(8) 0.3792(11)
H15 H 0.9000 0.6498 0.3975
C26 C 0.7855(11) 0.7592(7) 0.4829(11)
H16 H 0.8042 0.7391 0.5690
C27 C 0.6793(10) 0.8669(8) 0.3325(9)
C28 C 0.5913(9) 0.9556(7) 0.3098(8)
Zn2_2 Zn -0.38514(10) 0.93362(8) 0.60154(9)
O5_2 O 0.8040(7) 1.0205(5) 0.6315(6)
O6_2 O 0.7248(8) 0.8559(5) 0.7593(7)
loop_
_geom_bond_atom_site_label_1
_geom_bond_atom_site_label_2
_geom_bond_site_symmetry_1
_geom_bond_site_symmetry_2
Zn1 O1 1_555 1_555
Zn2 O3 1_555 1_555
O1 C1 1_555 1_555
O2 Zn1 1_555 1_555
O3 C1 1_555 1_555
O4 Zn2 1_555 1_555
O5 C4 1_555 1_555
O6 C3 1_555 1_555
O7 Zn1 1_555 1_555
O8 Zn1 1_555 1_555
N1 Zn1 1_555 1_555
N2 Zn1 1_555 1_555
N3 Zn2 1_555 1_555
N4 Zn2 1_555 1_555
C1 C2 1_555 1_555
C2 O2 1_555 1_555
C3 O7 1_555 1_555
C4 O8 1_555 1_555
C5 N1 1_555 1_555
H1 C5 1_555 1_555
C6 C5 1_555 1_555
H2 C6 1_555 1_555
C7 C6 1_555 1_555
H3 C7 1_555 1_555
C8 C7 1_555 1_555
C9 C8 1_555 1_555
H4 C9 1_555 1_555
C10 C9 1_555 1_555
H5 C10 1_555 1_555
C11 C10 1_555 1_555
C12 C11 1_555 1_555
H6 C12 1_555 1_555
C13 C12 1_555 1_555
H7 C13 1_555 1_555
C14 N2 1_555 1_555
H8 C14 1_555 1_555
C15 N2 1_555 1_555
C16 N1 1_555 1_555
C17 N3 1_555 1_555
H9 C17 1_555 1_555
C18 C17 1_555 1_555
H10 C18 1_555 1_555
C19 C18 1_555 1_555
H11 C19 1_555 1_555
C20 C19 1_555 1_555
C21 C20 1_555 1_555
H12 C21 1_555 1_555
C22 C21 1_555 1_555
H13 C22 1_555 1_555
C23 C22 1_555 1_555
C24 C23 1_555 1_555
H14 C24 1_555 1_555
C25 C24 1_555 1_555
H15 C25 1_555 1_555
C26 N4 1_555 1_555
H16 C26 1_555 1_555
C27 N4 1_555 1_555
C28 N3 1_555 1_555
Zn2_2 O5 1_555 1_555
O5_2 Zn2 1_555 1_555
O6_2 Zn2 1_555 1_555
O4 C2 1_555 1_555
O6 Zn2_2 1_555 1_555
C3 C4 1_555 1_555
C8 C16 1_555 1_555
C11 C15 1_555 1_555
C13 C14 1_555 1_555
C15 C16 1_555 1_555
C20 C28 1_555 1_555
C23 C27 1_555 1_555
C25 C26 1_555 1_555
C27 C28 1_555 1_555

#END
