
#######################################################################
#
#                 Cambridge Crystallographic Data Centre
#                                CCDC 
#
#######################################################################
#
# If this CIF has been generated from an entry in the Cambridge 
# Structural Database, then it will include bibliographic, chemical, 
# crystal, experimental, refinement or atomic coordinate data resulting 
# from the CCDC's data processing and validation procedures.
#
#######################################################################

data_QULMUG
_symmetry_cell_setting           tetragonal
_symmetry_space_group_name_H-M   'I -4'
_symmetry_Int_Tables_number      82
_space_group_name_Hall           'I -4'
loop_
_symmetry_equiv_pos_site_id
_symmetry_equiv_pos_as_xyz
1 x,y,z
2 -x,-y,z
3 y,-x,-z
4 -y,x,-z
5 1/2+x,1/2+y,1/2+z
6 1/2-x,1/2-y,1/2+z
7 1/2+y,1/2-x,1/2-z
8 1/2-y,1/2+x,1/2-z
_cell_length_a                   13.3852(8)
_cell_length_b                   13.3852(8)
_cell_length_c                   9.9922(12)
_cell_angle_alpha                90
_cell_angle_beta                 90
_cell_angle_gamma                90
_cell_volume                     1790.24
loop_
_atom_site_label
_atom_site_type_symbol
_atom_site_fract_x
_atom_site_fract_y
_atom_site_fract_z
C1 C 1.0000 0.5000 0.2500
C2 C 0.9054(8) 0.5273(8) 0.3336(9)
H1 H 0.9168 0.5879 0.3846
H2 H 0.8484 0.5376 0.2753
C3 C 0.8200(8) 0.4567(7) 0.5192(9)
C4 C 0.7641(8) 0.5420(8) 0.5327(10)
H3 H 0.7709 0.5945 0.4724
C5 C 0.6965(8) 0.5481(8) 0.6393(11)
H4 H 0.6576 0.6051 0.6494
C6 C 0.7414(8) 0.3854(8) 0.7117(9)
H5 H 0.7312 0.3316 0.7691
C7 C 0.8115(7) 0.3770(7) 0.6106(10)
H6 H 0.8517 0.3206 0.6032
Cu1 Cu 0.59499(8) 0.48717(8) 0.89163(12)
I1 I 0.52815(4) 0.67667(4) 0.87166(6)
N1 N 0.6868(6) 0.4706(6) 0.7296(7)
O1 O 0.8880(5) 0.4448(5) 0.4214(7)
C2A C 1.0946(8) 0.4727(8) 0.3336(9)
C2F C 1.0273(8) 0.5946(8) 0.1664(9)
C2G C 0.9727(8) 0.4054(8) 0.1664(9)
H1A H 1.0832 0.4121 0.3846
H1F H 1.0879 0.5832 0.1154
H1G H 0.9121 0.4168 0.1154
H2A H 1.1516 0.4624 0.2753
H2F H 1.0376 0.6516 0.2247
H2G H 0.9624 0.3484 0.2247
C3A C 1.1800(8) 0.5433(7) 0.5192(9)
C3F C 0.9567(7) 0.6800(8) -0.0192(9)
C3G C 1.0433(7) 0.3200(8) -0.0192(9)
C4A C 1.2359(8) 0.4580(8) 0.5327(10)
C4F C 1.0420(8) 0.7359(8) -0.0327(10)
C4G C 0.9580(8) 0.2641(8) -0.0327(10)
H3A H 1.2291 0.4055 0.4724
H3F H 1.0945 0.7291 0.0276
H3G H 0.9055 0.2709 0.0276
C5A C 1.3035(8) 0.4519(8) 0.6393(11)
C5F C 1.0481(8) 0.8035(8) -0.1393(11)
C5G C 0.9519(8) 0.1965(8) -0.1393(11)
H4A H 1.3424 0.3949 0.6494
H4F H 1.1051 0.8424 -0.1494
H4G H 0.8949 0.1576 -0.1494
C6A C 1.2586(8) 0.6146(8) 0.7117(9)
C6F C 0.8854(8) 0.7586(8) -0.2117(9)
C6G C 1.1146(8) 0.2414(8) -0.2117(9)
H5A H 1.2688 0.6684 0.7691
H5F H 0.8316 0.7688 -0.2691
H5G H 1.1684 0.2312 -0.2691
C7A C 1.1885(7) 0.6230(7) 0.6106(10)
C7F C 0.8770(7) 0.6885(7) -0.1106(10)
C7G C 1.1230(7) 0.3115(7) -0.1106(10)
H6A H 1.1483 0.6794 0.6032
H6F H 0.8206 0.6483 -0.1032
H6G H 1.1794 0.3517 -0.1032
Cu1A Cu 0.40501(8) 0.51283(8) 0.89163(12)
Cu1B Cu 0.48717(8) 0.40501(8) 1.10837(12)
Cu1C Cu 0.51283(8) 0.59499(8) 1.10837(12)
Cu1A_2 Cu 1.40501(8) 0.51283(8) 0.89163(12)
Cu1F Cu 0.98717(8) 0.90501(8) -0.39163(12)
Cu1G Cu 1.01283(8) 0.09499(8) -0.39163(12)
I1A I 0.47185(4) 0.32333(4) 0.87166(6)
I1B I 0.67667(4) 0.47185(4) 1.12834(6)
I1C I 0.32333(4) 0.52815(4) 1.12834(6)
N1A N 1.3132(6) 0.5294(6) 0.7296(7)
N1F N 0.9706(6) 0.8132(6) -0.2296(7)
N1G N 1.0294(6) 0.1868(6) -0.2296(7)
N1A_2 N 0.3132(6) 0.5294(6) 0.7296(7)
N1B N 0.4706(6) 0.3132(6) 1.2704(7)
N1C N 0.5294(6) 0.6868(6) 1.2704(7)
O1A O 1.1120(5) 0.5552(5) 0.4214(7)
O1F O 0.9448(5) 0.6120(5) 0.0786(7)
O1G O 1.0552(5) 0.3880(5) 0.0786(7)
O2 O 0.0000 0.5000 0.7500
H7? H 0.0575 0.4833 0.7784
H8? H -0.0581 0.4857 0.7216
loop_
_geom_bond_atom_site_label_1
_geom_bond_atom_site_label_2
_geom_bond_site_symmetry_1
_geom_bond_site_symmetry_2
C1 C2 1_555 1_555
C2 H1 1_555 1_555
H2 C2 1_555 1_555
C3 C4 1_555 1_555
C4 H3 1_555 1_555
C5 C4 1_555 1_555
H4 C5 1_555 1_555
C6 H5 1_555 1_555
C7 C3 1_555 1_555
H6 C7 1_555 1_555
Cu1 I1 1_555 1_555
I1 Cu1A 1_555 1_555
N1 C5 1_555 1_555
O1 C2 1_555 1_555
C2A C1 1_555 1_555
C2F C1 1_555 1_555
C2G C1 1_555 1_555
H1A C2A 1_555 1_555
H1F C2F 1_555 1_555
H1G C2G 1_555 1_555
H2A C2A 1_555 1_555
H2F C2F 1_555 1_555
H2G C2G 1_555 1_555
C3A C4A 1_555 1_555
C3F C4F 1_555 1_555
C3G C4G 1_555 1_555
C4A H3A 1_555 1_555
C4F H3F 1_555 1_555
C4G H3G 1_555 1_555
C5A C4A 1_555 1_555
C5F C4F 1_555 1_555
C5G C4G 1_555 1_555
H4A C5A 1_555 1_555
H4F C5F 1_555 1_555
H4G C5G 1_555 1_555
C6A H5A 1_555 1_555
C6F H5F 1_555 1_555
C6G H5G 1_555 1_555
C7A C3A 1_555 1_555
C7F C3F 1_555 1_555
C7G C3G 1_555 1_555
H6A C7A 1_555 1_555
H6F C7F 1_555 1_555
H6G C7G 1_555 1_555
Cu1A I1A 1_555 1_555
Cu1B I1A 1_555 1_555
Cu1C I1 1_555 1_555
Cu1A_2 N1A 1_555 1_555
Cu1F N1F 1_555 1_555
Cu1G N1G 1_555 1_555
I1A Cu1 1_555 1_555
I1B Cu1 1_555 1_555
I1C Cu1A 1_555 1_555
N1A C5A 1_555 1_555
N1F C5F 1_555 1_555
N1G C5G 1_555 1_555
N1A_2 Cu1A 1_555 1_555
N1B Cu1B 1_555 1_555
N1C Cu1C 1_555 1_555
O1A C2A 1_555 1_555
O1F C2F 1_555 1_555
O1G C2G 1_555 1_555
C3 O1 1_555 1_555
C6 C7 1_555 1_555
C6 N1 1_555 1_555
Cu1 N1 1_555 1_555
C3A O1A 1_555 1_555
C3F O1F 1_555 1_555
C3G O1G 1_555 1_555
C6A C7A 1_555 1_555
C6A N1A 1_555 1_555
C6F C7F 1_555 1_555
C6F N1F 1_555 1_555
C6G C7G 1_555 1_555
C6G N1G 1_555 1_555
Cu1B I1B 1_555 1_555
Cu1B I1C 1_555 1_555
Cu1C I1B 1_555 1_555
Cu1C I1C 1_555 1_555

#END
