
#######################################################################
#
#                 Cambridge Crystallographic Data Centre
#                                CCDC 
#
#######################################################################
#
# If this CIF has been generated from an entry in the Cambridge 
# Structural Database, then it will include bibliographic, chemical, 
# crystal, experimental, refinement or atomic coordinate data resulting 
# from the CCDC's data processing and validation procedures.
#
#######################################################################

data_QULNES01
_symmetry_cell_setting           orthorhombic
_symmetry_space_group_name_H-M   'P b c a'
_symmetry_Int_Tables_number      61
_space_group_name_Hall           '-P 2ac 2ab'
loop_
_symmetry_equiv_pos_site_id
_symmetry_equiv_pos_as_xyz
1 x,y,z
2 1/2-x,-y,1/2+z
3 1/2+x,1/2-y,-z
4 -x,1/2+y,1/2-z
5 -x,-y,-z
6 1/2+x,y,1/2-z
7 1/2-x,1/2+y,z
8 x,1/2-y,1/2+z
_cell_length_a                   11.3679(8)
_cell_length_b                   12.9753(8)
_cell_length_c                   17.5045(5)
_cell_angle_alpha                90
_cell_angle_beta                 90
_cell_angle_gamma                90
_cell_volume                     2581.95
loop_
_atom_site_label
_atom_site_type_symbol
_atom_site_fract_x
_atom_site_fract_y
_atom_site_fract_z
Cu1 Cu 0.38912(3) 0.42541(3) 0.45078(2)
Cl1 Cl 0.39855(6) 0.56240(5) 0.36235(4)
S1 S 0.56846(6) 0.34106(5) 0.42002(4)
Cl2 Cl 0.24596(6) 0.29974(5) 0.41424(4)
N1 N 0.68228(19) 0.52494(17) 0.45068(13)
Cu2 Cu 0.45230(4) 0.68710(3) 0.45170(2)
Cu3 Cu 0.72381(3) 0.23648(3) 0.45369(2)
C1 C 0.6548(2) 0.44896(18) 0.40302(16)
Cl3 Cl 0.59332(6) 0.80020(6) 0.40930(5)
N2 N 0.7547(2) 0.58893(18) 0.41097(14)
N3 N 0.70807(19) 0.46846(17) 0.33566(14)
N4 N 0.7715(2) 0.55663(17) 0.34162(15)
C2 C 0.6987(3) 0.4143(2) 0.26292(16)
H1 H 0.6871 0.3415 0.2729
H2 H 0.7723 0.4217 0.2354
C3 C 0.5996(2) 0.4525(2) 0.21289(18)
N5 N 0.6254(2) 0.55196(18) 0.17229(15)
H3 H 0.5818 0.4001 0.1751
H4 H 0.5300 0.4618 0.2442
H5 H 0.7050 0.5578 0.1690
C4 C 0.5786(3) 0.5511(3) 0.0923(2)
C5 C 0.5814(3) 0.6450(2) 0.2139(2)
H6 H 0.6115 0.4939 0.0649
H7 H 0.5997 0.6142 0.0671
H8 H 0.4945 0.5448 0.0935
H9 H 0.6042 0.7060 0.1866
H10 H 0.6146 0.6466 0.2643
H11 H 0.4972 0.6421 0.2174
Cu1D Cu 0.61088(3) 0.57459(3) 0.54922(2)
S1D S 0.43154(6) 0.65894(5) 0.57998(4)
Cl2B Cl 0.74596(6) 0.20026(5) 0.58576(4)
Cl2F Cl 0.25404(6) 0.79974(5) 0.41424(4)
N1D N 0.31772(19) 0.47506(17) 0.54932(13)
Cu2D Cu 0.54770(4) 0.31290(3) 0.54830(2)
Cu2F Cu 0.04770(4) 0.18710(3) 0.45170(2)
Cu3B Cu 0.22381(3) 0.26352(3) 0.54631(2)
Cu3F Cu 0.77619(3) 0.73648(3) 0.45369(2)
Cl3F Cl 0.90668(6) 0.30020(6) 0.40930(5)
N2F N 0.7453(2) 0.08893(18) 0.41097(14)
loop_
_geom_bond_atom_site_label_1
_geom_bond_atom_site_label_2
_geom_bond_site_symmetry_1
_geom_bond_site_symmetry_2
Cu1 Cl1 1_555 1_555
Cl1 Cu2 1_555 1_555
S1 Cu1 1_555 1_555
Cl2 Cu1 1_555 1_555
N1 C1 1_555 1_555
Cu2 Cl3 1_555 1_555
Cu3 S1 1_555 1_555
C1 S1 1_555 1_555
Cl3 Cu3F 1_555 1_555
N2 N1 1_555 1_555
N3 C1 1_555 1_555
N4 N2 1_555 1_555
C2 N3 1_555 1_555
H1 C2 1_555 1_555
H2 C2 1_555 1_555
C3 C2 1_555 1_555
N5 C3 1_555 1_555
H3 C3 1_555 1_555
H4 C3 1_555 1_555
H5 N5 1_555 1_555
C4 N5 1_555 1_555
C5 N5 1_555 1_555
H6 C4 1_555 1_555
H7 C4 1_555 1_555
H8 C4 1_555 1_555
H9 C5 1_555 1_555
H10 C5 1_555 1_555
H11 C5 1_555 1_555
Cu1D N1 1_555 1_555
S1D Cu2 1_555 1_555
Cl2B Cu3 1_555 1_555
Cl2F Cu2 1_555 1_555
N1D Cu1 1_555 1_555
Cu2D S1 1_555 1_555
Cu2F Cl2 1_555 1_555
Cu3B Cl2 1_555 1_555
Cu3F N2 1_555 1_555
Cl3F Cu3 1_555 1_555
N2F Cu3 1_555 1_555
N3 N4 1_555 1_555
Cu1D S1D 1_555 1_555
Cl2B Cu2D 1_555 1_555

#END
