
#######################################################################
#
#                 Cambridge Crystallographic Data Centre
#                                CCDC 
#
#######################################################################
#
# If this CIF has been generated from an entry in the Cambridge 
# Structural Database, then it will include bibliographic, chemical, 
# crystal, experimental, refinement or atomic coordinate data resulting 
# from the CCDC's data processing and validation procedures.
#
#######################################################################

data_QULVEA
_symmetry_cell_setting           monoclinic
_symmetry_space_group_name_H-M   'C 2/c'
_symmetry_Int_Tables_number      15
_space_group_name_Hall           '-C 2yn'
loop_
_symmetry_equiv_pos_site_id
_symmetry_equiv_pos_as_xyz
1 x,y,z
2 -x,y,1/2-z
3 1/2+x,1/2+y,z
4 1/2-x,1/2+y,1/2-z
5 -x,-y,-z
6 x,-y,1/2+z
7 1/2-x,1/2-y,-z
8 1/2+x,1/2-y,1/2+z
_cell_length_a                   15.013(5)
_cell_length_b                   19.108(5)
_cell_length_c                   16.900(5)
_cell_angle_alpha                90
_cell_angle_beta                 107.706(7)
_cell_angle_gamma                90
_cell_volume                     4618.42
loop_
_atom_site_label
_atom_site_type_symbol
_atom_site_fract_x
_atom_site_fract_y
_atom_site_fract_z
Cd1 Cd 0.37309(3) 0.07728(2) 0.03765(2)
O1 O 0.5371(3) 0.0684(2) 0.0813(2)
H1 H 0.5601 0.0758 0.0398
H2 H 0.5550 0.0264 0.1013
N1 N 0.3688(3) 0.1661(2) 0.1330(3)
O2 O 0.3744(3) -0.0604(2) 0.0377(2)
C1 C 0.3783(4) 0.2701(3) 0.2537(3)
O3 O 0.3786(3) -0.1737(2) 0.4441(2)
C2 C 0.3772(4) -0.1048(3) 0.2451(3)
H3 H 0.3803 -0.0584 0.2623
O4 O 0.3778(3) 0.0026(2) 0.1439(3)
O5 O 0.3759(3) -0.0663(2) 0.3997(2)
C3 C 0.3765(4) -0.0562(3) 0.1111(3)
C4 C 0.3707(4) -0.1872(3) 0.1365(3)
C5 C 0.3770(4) -0.1313(3) 0.3883(3)
C6 C 0.3745(4) -0.1184(3) 0.1637(3)
C7 C 0.3630(4) 0.2865(3) 0.1703(3)
H4 H 0.3560 0.3329 0.1531
C8 C 0.3671(4) -0.2373(3) 0.1943(3)
C9 C 0.3754(3) -0.1558(3) 0.3018(3)
C10 C 0.3583(4) 0.2338(3) 0.1132(3)
H5 H 0.3473 0.2463 0.0578
C11 C 0.3878(4) 0.1993(3) 0.2733(3)
H6 H 0.3973 0.1852 0.3279
C12 C 0.3704(4) -0.2264(3) 0.2769(3)
N2 N 0.3591(4) -0.3114(3) 0.1662(3)
O6 O 0.4291(4) -0.3405(3) 0.1636(4)
N3 N 0.7082(3) 0.4381(2) 0.4852(3)
C13 C 0.3866(4) 0.3228(3) 0.3220(4)
H7 H 0.4456 0.3149 0.3648
H8 H 0.3371 0.3136 0.3465
C14 C 0.5544(4) 0.4029(3) 0.4814(4)
H9 H 0.5177 0.3752 0.5043
O7 O 0.2829(4) -0.3389(2) 0.1464(3)
C15 C 0.3817(4) 0.3994(3) 0.2975(4)
H10 H 0.3187 0.4103 0.2633
H11 H 0.4234 0.4076 0.2644
C16 C 0.6695(4) 0.4826(3) 0.4233(4)
H12 H 0.7082 0.5105 0.4028
C17 C 0.3673(4) -0.2867(3) 0.3327(4)
H13 H 0.3064 -0.2893 0.3400
H14 H 0.4135 -0.2800 0.3857
H15 H 0.3800 -0.3294 0.3082
C18 C 0.6512(4) 0.3997(3) 0.5132(4)
H16 H 0.6773 0.3687 0.5565
C19 C 0.5732(4) 0.4886(3) 0.3886(4)
H17 H 0.5490 0.5209 0.3464
C20 C 0.3834(4) 0.1503(3) 0.2133(3)
H18 H 0.3909 0.1035 0.2290
C21 C 0.3692(4) -0.2079(3) 0.0497(3)
H19 H 0.3262 -0.1783 0.0099
H20 H 0.3497 -0.2558 0.0397
H21 H 0.4307 -0.2026 0.0443
C22 C 0.4086(4) 0.4485(3) 0.3727(4)
H22 H 0.3895 0.4958 0.3546
H23 H 0.3757 0.4344 0.4115
C23 C 0.5124(4) 0.4471(3) 0.4159(4)
Cd1E Cd 0.37309(3) -0.07728(2) 0.53765(2)
Cd1G Cd 0.87309(3) 0.42272(2) 0.53765(2)
O3E O 0.3786(3) 0.1737(2) -0.0559(2)
O5E O 0.3759(3) 0.0663(2) -0.1003(2)
N3G N 0.2082(3) 0.0619(2) -0.0148(3)
loop_
_geom_bond_atom_site_label_1
_geom_bond_atom_site_label_2
_geom_bond_site_symmetry_1
_geom_bond_site_symmetry_2
Cd1 O1 1_555 1_555
O1 H1 1_555 1_555
H2 O1 1_555 1_555
N1 Cd1 1_555 1_555
O2 Cd1 1_555 1_555
C1 C7 1_555 1_555
O3 C5 1_555 1_555
C2 H3 1_555 1_555
O4 Cd1 1_555 1_555
O5 C5 1_555 1_555
C3 O2 1_555 1_555
C4 C6 1_555 1_555
C5 C9 1_555 1_555
C6 C2 1_555 1_555
C7 H4 1_555 1_555
C8 C4 1_555 1_555
C9 C2 1_555 1_555
C10 N1 1_555 1_555
H5 C10 1_555 1_555
C11 C1 1_555 1_555
H6 C11 1_555 1_555
C12 C8 1_555 1_555
N2 C8 1_555 1_555
O6 N2 1_555 1_555
N3 C16 1_555 1_555
C13 C1 1_555 1_555
H7 C13 1_555 1_555
H8 C13 1_555 1_555
C14 H9 1_555 1_555
O7 N2 1_555 1_555
C15 C13 1_555 1_555
H10 C15 1_555 1_555
H11 C15 1_555 1_555
C16 H12 1_555 1_555
C17 C12 1_555 1_555
H13 C17 1_555 1_555
H14 C17 1_555 1_555
H15 C17 1_555 1_555
C18 N3 1_555 1_555
H16 C18 1_555 1_555
C19 C16 1_555 1_555
H17 C19 1_555 1_555
C20 N1 1_555 1_555
H18 C20 1_555 1_555
C21 C4 1_555 1_555
H19 C21 1_555 1_555
H20 C21 1_555 1_555
H21 C21 1_555 1_555
C22 C15 1_555 1_555
H22 C22 1_555 1_555
H23 C22 1_555 1_555
C23 C14 1_555 1_555
Cd1E O3 1_555 1_555
Cd1G N3 1_555 1_555
O3E Cd1 1_555 1_555
O5E Cd1 1_555 1_555
N3G Cd1 1_555 1_555
O4 C3 1_555 1_555
O5 Cd1E 1_555 1_555
C3 C6 1_555 1_555
C7 C10 1_555 1_555
C9 C12 1_555 1_555
C11 C20 1_555 1_555
C14 C18 1_555 1_555
C19 C23 1_555 1_555
C22 C23 1_555 1_555

#END
