
#######################################################################
#
#                 Cambridge Crystallographic Data Centre
#                                CCDC 
#
#######################################################################
#
# If this CIF has been generated from an entry in the Cambridge 
# Structural Database, then it will include bibliographic, chemical, 
# crystal, experimental, refinement or atomic coordinate data resulting 
# from the CCDC's data processing and validation procedures.
#
#######################################################################

data_QUMFEK
_symmetry_cell_setting           monoclinic
_symmetry_space_group_name_H-M   'C 2/c'
_symmetry_Int_Tables_number      15
_space_group_name_Hall           '-C 2yn'
loop_
_symmetry_equiv_pos_site_id
_symmetry_equiv_pos_as_xyz
1 x,y,z
2 -x,y,1/2-z
3 1/2+x,1/2+y,z
4 1/2-x,1/2+y,1/2-z
5 -x,-y,-z
6 x,-y,1/2+z
7 1/2-x,1/2-y,-z
8 1/2+x,1/2-y,1/2+z
_cell_length_a                   24.126(2)
_cell_length_b                   9.992(2)
_cell_length_c                   25.085(3)
_cell_angle_alpha                90
_cell_angle_beta                 116.902(5)
_cell_angle_gamma                90
_cell_volume                     5392.75
loop_
_atom_site_label
_atom_site_type_symbol
_atom_site_fract_x
_atom_site_fract_y
_atom_site_fract_z
Cd1 Cd 0.5000 0.60662(6) 0.2500
Cd2 Cd 0.84057(2) 1.09028(5) 0.15925(2)
C1 C 0.4380(4) 0.6215(7) 0.1065(3)
C2 C 0.4480(3) 0.6475(7) 0.0518(3)
C3 C 0.4998(3) 0.7214(8) 0.0589(3)
H1 H 0.5283 0.7530 0.0962
C4 C 0.5071(4) 0.7460(8) 0.0078(4)
C5 C 0.4668(4) 0.6955(9) -0.0472(4)
H2 H 0.4730 0.7123 -0.0805
C6 C 0.4168(4) 0.6193(8) -0.0523(3)
C7 C 0.4061(3) 0.5964(7) -0.0031(3)
H3 H 0.3716 0.5478 -0.0069
C8 C 0.5911(4) 0.8987(9) 0.0571(4)
H4 H 0.5642 0.9622 0.0634
H5 H 0.6117 0.8444 0.0928
C9 C 0.6390(3) 0.9730(8) 0.0448(4)
C10 C 0.6264(4) 1.0147(10) -0.0111(4)
H6 H 0.5872 1.0010 -0.0429
C11 C 0.6724(5) 1.0779(10) -0.0201(4)
H7 H 0.6648 1.1070 -0.0580
C12 C 0.7289(4) 1.0966(8) 0.0275(4)
H8 H 0.7601 1.1374 0.0211
C13 C 0.6971(3) 0.9978(7) 0.0903(3)
H9 H 0.7058 0.9701 0.1286
C14 C 0.3337(4) 0.4743(8) -0.1128(3)
H10 H 0.3526 0.4047 -0.0830
H11 H 0.3018 0.5176 -0.1055
C15 C 0.3050(3) 0.4134(7) -0.1741(3)
C16 C 0.2540(4) 0.3303(8) -0.1904(4)
H12 H 0.2378 0.3132 -0.1637
C17 C 0.2281(4) 0.2744(9) -0.2453(4)
H13 H 0.1949 0.2156 -0.2561
C18 C 0.2511(3) 0.3045(8) -0.2855(4)
H14 H 0.2313 0.2685 -0.3238
C19 C 0.3279(3) 0.4347(7) -0.2163(3)
H15 H 0.3634 0.4867 -0.2054
C20 C 0.6147(3) 0.8456(7) 0.2967(3)
C21 C 0.5885(3) 0.9730(6) 0.2632(3)
C22 C 0.5438(4) 0.9668(8) 0.2042(3)
H16 H 0.5306 0.8845 0.1854
C23 C 0.5194(4) 1.0828(8) 0.1738(4)
H17 H 0.4897 1.0789 0.1340
C24 C 0.5383(3) 1.2076(8) 0.2019(4)
H18 H 0.5204 1.2858 0.1811
C25 C 0.5837(3) 1.2136(7) 0.2606(3)
C26 C 0.6083(3) 1.0951(6) 0.2910(3)
H19 H 0.6385 1.0981 0.3306
C27 C 0.6067(4) 1.3464(7) 0.2910(4)
N1 N 0.7416(3) 1.0595(6) 0.0823(3)
N2 N 0.3001(3) 0.3824(5) -0.2717(3)
O1 O 0.4837(3) 0.6335(6) 0.1566(2)
O2 O 0.3833(2) 0.5931(5) 0.0965(2)
O3 O 0.5562(3) 0.8180(7) 0.0084(3)
O4 O 0.3793(3) 0.5690(6) -0.1079(2)
O5 O 0.6647(2) 0.8459(5) 0.3437(2)
O6 O 0.5854(2) 0.7388(4) 0.2742(2)
O7 O 0.6569(3) 1.3531(5) 0.3360(3)
O8 O 0.5755(2) 1.4500(5) 0.2654(3)
Cd1_2 Cd 0.5000 1.60662(6) 0.2500
Cd2A Cd 0.15943(2) 1.09028(5) 0.34075(2)
Cd2G Cd 0.34057(2) 0.40972(5) -0.34075(2)
Cd2B Cd 0.34057(2) 0.59028(5) 0.15925(2)
Cd2C Cd 0.65943(2) 0.59028(5) 0.34075(2)
Cd2C_2 Cd 0.65943(2) 1.59028(5) 0.34075(2)
Cd2F Cd 0.65943(2) 0.40972(5) 0.84075(2)
Cd2B_2 Cd 0.34057(2) 1.59028(5) 0.15925(2)
C1A C 0.5620(4) 0.6215(7) 0.3935(3)
C2A C 0.5520(3) 0.6475(7) 0.4482(3)
C3A C 0.5002(3) 0.7214(8) 0.4411(3)
H1A H 0.4717 0.7530 0.4038
C4A C 0.4929(4) 0.7460(8) 0.4922(4)
C5A C 0.5332(4) 0.6955(9) 0.5472(4)
H2A H 0.5270 0.7123 0.5805
C6A C 0.5832(4) 0.6193(8) 0.5523(3)
C7A C 0.5939(3) 0.5964(7) 0.5031(3)
H3A H 0.6284 0.5478 0.5069
C8A C 0.4089(4) 0.8987(9) 0.4429(4)
H4A H 0.4358 0.9622 0.4366
H5A H 0.3883 0.8444 0.4072
C9A C 0.3610(3) 0.9730(8) 0.4552(4)
C10A C 0.3736(4) 1.0147(10) 0.5111(4)
H6A H 0.4128 1.0010 0.5429
C11A C 0.3276(5) 1.0779(10) 0.5201(4)
H7A H 0.3352 1.1070 0.5580
C12A C 0.2711(4) 1.0966(8) 0.4725(4)
H8A H 0.2399 1.1374 0.4789
C13A C 0.3029(3) 0.9978(7) 0.4097(3)
H9A H 0.2942 0.9701 0.3714
C14A C 0.6663(4) 0.4743(8) 0.6128(3)
H10A H 0.6474 0.4047 0.5830
H11A H 0.6982 0.5176 0.6055
C15A C 0.6950(3) 0.4134(7) 0.6741(3)
C16A C 0.7460(4) 0.3303(8) 0.6904(4)
H12A H 0.7622 0.3132 0.6637
C17A C 0.7719(4) 0.2744(9) 0.7453(4)
H13A H 0.8051 0.2156 0.7561
C18A C 0.7489(3) 0.3045(8) 0.7855(4)
H14A H 0.7687 0.2685 0.8238
C19A C 0.6721(3) 0.4347(7) 0.7163(3)
H15A H 0.6366 0.4867 0.7054
C20A C 0.3853(3) 0.8456(7) 0.2033(3)
C21A C 0.4115(3) 0.9730(6) 0.2368(3)
C22A C 0.4562(4) 0.9668(8) 0.2958(3)
H16A H 0.4694 0.8845 0.3146
C23A C 0.4806(4) 1.0828(8) 0.3262(4)
H17A H 0.5103 1.0789 0.3660
C24A C 0.4617(3) 1.2076(8) 0.2981(4)
H18A H 0.4796 1.2858 0.3189
C25A C 0.4163(3) 1.2136(7) 0.2394(3)
C26A C 0.3917(3) 1.0951(6) 0.2090(3)
H19A H 0.3615 1.0981 0.1694
C27A C 0.3933(4) 1.3464(7) 0.2090(4)
N1A N 0.2584(3) 1.0595(6) 0.4177(3)
N2A N 0.6999(3) 0.3824(5) 0.7717(3)
N2G N 0.8001(3) 1.1176(5) 0.2283(3)
N2F N 0.1999(3) 1.1176(5) 0.2717(3)
O1A O 0.5163(3) 0.6335(6) 0.3434(2)
O2A O 0.6167(2) 0.5931(5) 0.4035(2)
O2B O 0.8833(2) 1.0931(5) 0.0965(2)
O2C O 0.1167(2) 1.0931(5) 0.4035(2)
O3A O 0.4438(3) 0.8180(7) 0.4916(3)
O4A O 0.6207(3) 0.5690(6) 0.6079(2)
O5A O 0.3353(2) 0.8459(5) 0.1563(2)
O5C O 0.8353(2) 1.3459(5) 0.1563(2)
O5B O 0.1647(2) 1.3459(5) 0.3437(2)
O6A O 0.4146(2) 0.7388(4) 0.2258(2)
O6C O 0.9146(2) 1.2388(4) 0.2258(2)
O6B O 0.0854(2) 1.2388(4) 0.2742(2)
O7A O 0.3431(3) 1.3531(5) 0.1640(3)
O7C O 0.8431(3) 0.8531(5) 0.1640(3)
O7B O 0.1569(3) 0.8531(5) 0.3360(3)
O8A O 0.4245(2) 1.4500(5) 0.2346(3)
O8_2 O 0.5755(2) 0.4500(5) 0.2654(3)
O8A_2 O 0.4245(2) 0.4500(5) 0.2346(3)
O8C O 0.9245(2) 0.9500(5) 0.2346(3)
O8B O 0.0755(2) 0.9500(5) 0.2654(3)
loop_
_geom_bond_atom_site_label_1
_geom_bond_atom_site_label_2
_geom_bond_site_symmetry_1
_geom_bond_site_symmetry_2
Cd1 O1 1_555 1_555
Cd2 N1 1_555 1_555
C1 C2 1_555 1_555
C2 C3 1_555 1_555
C3 H1 1_555 1_555
C4 C3 1_555 1_555
C5 C4 1_555 1_555
H2 C5 1_555 1_555
C6 C5 1_555 1_555
C7 C2 1_555 1_555
H3 C7 1_555 1_555
C8 H4 1_555 1_555
H5 C8 1_555 1_555
C9 C8 1_555 1_555
C10 C9 1_555 1_555
H6 C10 1_555 1_555
C11 C10 1_555 1_555
H7 C11 1_555 1_555
C12 C11 1_555 1_555
H8 C12 1_555 1_555
C13 C9 1_555 1_555
H9 C13 1_555 1_555
C14 H10 1_555 1_555
H11 C14 1_555 1_555
C15 C14 1_555 1_555
C16 C15 1_555 1_555
H12 C16 1_555 1_555
C17 C16 1_555 1_555
H13 C17 1_555 1_555
C18 C17 1_555 1_555
H14 C18 1_555 1_555
C19 C15 1_555 1_555
H15 C19 1_555 1_555
C20 C21 1_555 1_555
C21 C22 1_555 1_555
C22 H16 1_555 1_555
C23 C22 1_555 1_555
H17 C23 1_555 1_555
C24 C23 1_555 1_555
H18 C24 1_555 1_555
C25 C24 1_555 1_555
C26 C21 1_555 1_555
H19 C26 1_555 1_555
C27 C25 1_555 1_555
N1 C12 1_555 1_555
N2 C18 1_555 1_555
O1 C1 1_555 1_555
O2 C1 1_555 1_555
O3 C4 1_555 1_555
O4 C6 1_555 1_555
O5 C20 1_555 1_555
O6 Cd1 1_555 1_555
O7 C27 1_555 1_555
O8 C27 1_555 1_555
Cd1_2 O8 1_555 1_555
Cd2A N1A 1_555 1_555
Cd2G N2 1_555 1_555
Cd2B O2 1_555 1_555
Cd2C O5 1_555 1_555
Cd2C_2 O7 1_555 1_555
Cd2F N2A 1_555 1_555
Cd2B_2 O7A 1_555 1_555
C1A C2A 1_555 1_555
C2A C3A 1_555 1_555
C3A H1A 1_555 1_555
C4A C3A 1_555 1_555
C5A C4A 1_555 1_555
H2A C5A 1_555 1_555
C6A C5A 1_555 1_555
C7A C2A 1_555 1_555
H3A C7A 1_555 1_555
C8A H4A 1_555 1_555
H5A C8A 1_555 1_555
C9A C8A 1_555 1_555
C10A C9A 1_555 1_555
H6A C10A 1_555 1_555
C11A C10A 1_555 1_555
H7A C11A 1_555 1_555
C12A C11A 1_555 1_555
H8A C12A 1_555 1_555
C13A C9A 1_555 1_555
H9A C13A 1_555 1_555
C14A H10A 1_555 1_555
H11A C14A 1_555 1_555
C15A C14A 1_555 1_555
C16A C15A 1_555 1_555
H12A C16A 1_555 1_555
C17A C16A 1_555 1_555
H13A C17A 1_555 1_555
C18A C17A 1_555 1_555
H14A C18A 1_555 1_555
C19A C15A 1_555 1_555
H15A C19A 1_555 1_555
C20A C21A 1_555 1_555
C21A C22A 1_555 1_555
C22A H16A 1_555 1_555
C23A C22A 1_555 1_555
H17A C23A 1_555 1_555
C24A C23A 1_555 1_555
H18A C24A 1_555 1_555
C25A C24A 1_555 1_555
C26A C21A 1_555 1_555
H19A C26A 1_555 1_555
C27A C25A 1_555 1_555
N1A C12A 1_555 1_555
N2A C18A 1_555 1_555
N2G Cd2 1_555 1_555
N2F Cd2A 1_555 1_555
O1A Cd1 1_555 1_555
O2A Cd2C 1_555 1_555
O2B Cd2 1_555 1_555
O2C Cd2A 1_555 1_555
O3A C4A 1_555 1_555
O4A C6A 1_555 1_555
O5A Cd2B 1_555 1_555
O5C Cd2 1_555 1_555
O5B Cd2A 1_555 1_555
O6A Cd1 1_555 1_555
O6C Cd2 1_555 1_555
O6B Cd2A 1_555 1_555
O7A C27A 1_555 1_555
O7C Cd2 1_555 1_555
O7B Cd2A 1_555 1_555
O8A Cd1_2 1_555 1_555
O8_2 Cd1 1_555 1_555
O8A_2 Cd1 1_555 1_555
O8C Cd2 1_555 1_555
O8B Cd2A 1_555 1_555
C6 C7 1_555 1_555
C8 O3 1_555 1_555
C13 N1 1_555 1_555
C14 O4 1_555 1_555
C19 N2 1_555 1_555
C20 O6 1_555 1_555
C25 C26 1_555 1_555
O6 Cd2C 1_555 1_555
O8 Cd2C_2 1_555 1_555
Cd2B O6A 1_555 1_555
Cd2B O8A_2 1_555 1_555
Cd2C O8_2 1_555 1_555
Cd2B_2 O8A 1_555 1_555
C1A O1A 1_555 1_555
C1A O2A 1_555 1_555
C6A C7A 1_555 1_555
C8A O3A 1_555 1_555
C13A N1A 1_555 1_555
C14A O4A 1_555 1_555
C19A N2A 1_555 1_555
C20A O5A 1_555 1_555
C20A O6A 1_555 1_555
C25A C26A 1_555 1_555
C27A O8A 1_555 1_555

#END
