
#######################################################################
#
#                 Cambridge Crystallographic Data Centre
#                                CCDC 
#
#######################################################################
#
# If this CIF has been generated from an entry in the Cambridge 
# Structural Database, then it will include bibliographic, chemical, 
# crystal, experimental, refinement or atomic coordinate data resulting 
# from the CCDC's data processing and validation procedures.
#
#######################################################################

data_QUMFAG
_symmetry_cell_setting           triclinic
_symmetry_space_group_name_H-M   'P -1'
_symmetry_Int_Tables_number      2
_space_group_name_Hall           '-P 1'
loop_
_symmetry_equiv_pos_site_id
_symmetry_equiv_pos_as_xyz
1 x,y,z
2 -x,-y,-z
_cell_length_a                   10.400(2)
_cell_length_b                   11.480(2)
_cell_length_c                   12.407(2)
_cell_angle_alpha                112.591(3)
_cell_angle_beta                 107.961(3)
_cell_angle_gamma                101.658(3)
_cell_volume                     1211.25
loop_
_atom_site_label
_atom_site_type_symbol
_atom_site_fract_x
_atom_site_fract_y
_atom_site_fract_z
Cd1 Cd -0.06363(7) 0.30162(6) 0.42988(6)
C1 C 0.9288(10) 0.4290(10) 1.2813(9)
C2 C 0.9209(9) 0.4921(8) 1.1947(8)
C3 C 0.7939(10) 0.4442(9) 1.0870(8)
H1 H 0.7157 0.3713 1.0670
C4 C 0.7811(9) 0.5046(9) 1.0066(8)
C5 C 0.8991(10) 0.6108(8) 1.0351(8)
C6 C 1.0262(11) 0.6578(9) 1.1429(8)
H2 H 1.1054 0.7290 1.1617
C7 C 1.0380(10) 0.6002(8) 1.2242(8)
H3 H 1.1237 0.6341 1.2978
C8 C 0.5358(11) 0.3581(11) 0.8690(11)
H4 H 0.5172 0.3757 0.9446
H5 H 0.5536 0.2740 0.8415
C9 C 0.4047(10) 0.3460(10) 0.7610(9)
C10 C 0.2758(11) 0.2433(10) 0.7099(10)
H6 H 0.2700 0.1787 0.7378
C11 C 0.1556(11) 0.2345(9) 0.6186(10)
H7 H 0.0689 0.1634 0.5854
C12 C 0.2823(10) 0.4233(10) 0.6232(9)
H8 H 0.2857 0.4866 0.5938
C13 C 0.4092(10) 0.4378(10) 0.7163(9)
H9 H 0.4956 0.5086 0.7476
C14 C 0.9858(12) 0.7805(9) 0.9802(9)
H10 H 0.9690 0.7914 0.9039
H11 H 1.0812 0.7751 1.0100
C15 C 0.9827(10) 0.9022(8) 1.0838(8)
C16 C 0.8497(11) 0.9078(9) 1.0793(9)
H12 H 0.7641 0.8374 1.0138
C17 C 0.8459(10) 1.0194(10) 1.1732(9)
H13 H 0.7560 1.0233 1.1685
C18 C 1.0947(11) 1.1154(10) 1.2730(9)
H14 H 1.1795 1.1866 1.3390
C19 C 1.1064(10) 1.0078(10) 1.1822(10)
H15 H 1.1972 1.0066 1.1875
C20 C -0.2896(12) 0.1511(11) 0.4499(10)
C21 C -0.4005(10) 0.0731(10) 0.4747(10)
C22 C -0.3709(12) -0.0137(13) 0.5182(12)
H16 H -0.2811 -0.0229 0.5337
C23 C -0.5283(13) 0.0901(12) 0.4596(12)
H17 H -0.5491 0.1531 0.4343
N1 N 0.1574(8) 0.3247(7) 0.5745(7)
N2 N 0.9666(8) 1.1230(7) 1.2714(7)
O1 O 0.8265(7) 0.3244(7) 1.2457(6)
O2 O 1.0377(7) 0.4862(6) 1.3900(6)
O3 O 0.6597(7) 0.4667(7) 0.8997(6)
O4 O 0.8788(7) 0.6574(6) 0.9470(5)
O5 O -0.1750(9) 0.1293(8) 0.4647(8)
O6 O -0.3089(9) 0.2404(9) 0.4198(9)
Cd1A Cd 1.06363(7) 0.69838(6) 1.57012(6)
Cd1_2 Cd 0.93637(7) 1.30162(6) 1.42988(6)
Cd1_3 Cd 0.93637(7) 0.30162(6) 1.42988(6)
Cd1A_2 Cd -0.93637(7) -0.30162(6) 0.57012(6)
Cd1A_3 Cd 0.06363(7) -0.30162(6) 0.57012(6)
Cd1A_4 Cd 0.06363(7) 0.69838(6) 0.57012(6)
C1A C 0.0712(10) 0.5710(10) 0.7187(9)
C2A C 0.0791(9) 0.5079(8) 0.8053(8)
C3A C 0.2061(10) 0.5558(9) 0.9130(8)
H1A H 0.2843 0.6287 0.9330
C4A C 0.2189(9) 0.4954(9) 0.9934(8)
C5A C 0.1009(10) 0.3892(8) 0.9649(8)
C6A C -0.0262(11) 0.3422(9) 0.8571(8)
H2A H -0.1054 0.2710 0.8383
C7A C -0.0380(10) 0.3998(8) 0.7758(8)
H3A H -0.1237 0.3659 0.7022
C8A C 0.4642(11) 0.6419(11) 1.1310(11)
H4A H 0.4828 0.6243 1.0554
H5A H 0.4464 0.7260 1.1585
C9A C 0.5953(10) 0.6540(10) 1.2390(9)
C10A C 0.7242(11) 0.7567(10) 1.2901(10)
H6A H 0.7300 0.8213 1.2622
C11A C 0.8444(11) 0.7655(9) 1.3814(10)
H7A H 0.9311 0.8366 1.4146
C12A C 0.7177(10) 0.5767(10) 1.3768(9)
H8A H 0.7143 0.5134 1.4062
C13A C 0.5908(10) 0.5622(10) 1.2837(9)
H9A H 0.5044 0.4914 1.2524
C14A C 0.0142(12) 0.2195(9) 1.0198(9)
H10A H 0.0310 0.2086 1.0961
H11A H -0.0812 0.2249 0.9900
C15A C 0.0173(10) 0.0978(8) 0.9162(8)
C16A C 0.1503(11) 0.0922(9) 0.9207(9)
H12A H 0.2359 0.1626 0.9862
C17A C 0.1541(10) -0.0194(10) 0.8268(9)
H13A H 0.2440 -0.0233 0.8315
C18A C -0.0947(11) -0.1154(10) 0.7270(9)
H14A H -0.1795 -0.1866 0.6610
C19A C -0.1064(10) -0.0078(10) 0.8178(10)
H15A H -0.1972 -0.0066 0.8125
C20A C -0.7104(12) -0.1511(11) 0.5501(10)
C21A C -0.5995(10) -0.0731(10) 0.5253(10)
C22A C -0.6291(12) 0.0137(13) 0.4818(12)
H16A H -0.7189 0.0229 0.4663
C23A C -0.4717(13) -0.0901(12) 0.5404(12)
H17A H -0.4509 -0.1531 0.5657
N1A N 0.8426(8) 0.6753(7) 1.4255(7)
N2A N 0.0334(8) -0.1230(7) 0.7286(7)
N2_2 N -0.0334(8) 0.1230(7) 0.2714(7)
N2A_2 N 1.0334(8) 0.8770(7) 1.7286(7)
O1A O 0.1735(7) 0.6756(7) 0.7543(6)
O1_2 O -0.1735(7) 0.3244(7) 0.2457(6)
O1A_2 O 1.1735(7) 0.6756(7) 1.7543(6)
O2A O -0.0377(7) 0.5138(6) 0.6100(6)
O2_2 O 0.0377(7) 0.4862(6) 0.3900(6)
O2A_2 O 0.9623(7) 0.5138(6) 1.6100(6)
O3A O 0.3403(7) 0.5333(7) 1.1003(6)
O4A O 0.1212(7) 0.3426(6) 1.0530(5)
O5A O -0.8250(9) -0.1293(8) 0.5353(8)
O5A_2 O 1.1750(9) 0.8707(8) 1.5353(8)
O6A O -0.6911(9) -0.2404(9) 0.5802(9)
O6A_2 O 1.3089(9) 0.7596(9) 1.5802(9)
O7 O 0.6972(17) 0.533(2) 0.6558(16)
O8 O 0.526(2) 0.1702(19) 0.089(3)
O9 O 0.571(2) 0.744(3) 0.724(3)
loop_
_geom_bond_atom_site_label_1
_geom_bond_atom_site_label_2
_geom_bond_site_symmetry_1
_geom_bond_site_symmetry_2
Cd1 N1 1_555 1_555
C1 C2 1_555 1_555
C2 C3 1_555 1_555
C3 H1 1_555 1_555
C4 C3 1_555 1_555
C5 C4 1_555 1_555
C6 C5 1_555 1_555
H2 C6 1_555 1_555
C7 C2 1_555 1_555
H3 C7 1_555 1_555
C8 H4 1_555 1_555
H5 C8 1_555 1_555
C9 C8 1_555 1_555
C10 C9 1_555 1_555
H6 C10 1_555 1_555
C11 C10 1_555 1_555
H7 C11 1_555 1_555
C12 H8 1_555 1_555
C13 C9 1_555 1_555
H9 C13 1_555 1_555
C14 H10 1_555 1_555
H11 C14 1_555 1_555
C15 C14 1_555 1_555
C16 C15 1_555 1_555
H12 C16 1_555 1_555
C17 C16 1_555 1_555
H13 C17 1_555 1_555
C18 H14 1_555 1_555
C19 C15 1_555 1_555
H15 C19 1_555 1_555
C20 C21 1_555 1_555
C21 C22 1_555 1_555
C22 H16 1_555 1_555
C23 C21 1_555 1_555
H17 C23 1_555 1_555
N1 C11 1_555 1_555
N2 C17 1_555 1_555
O1 C1 1_555 1_555
O2 C1 1_555 1_555
O3 C4 1_555 1_555
O4 C5 1_555 1_555
O5 Cd1 1_555 1_555
O6 Cd1 1_555 1_555
Cd1A O2 1_555 1_555
Cd1_2 N2 1_555 1_555
Cd1_3 O1 1_555 1_555
Cd1A_2 O5A 1_555 1_555
Cd1A_3 N2A 1_555 1_555
Cd1A_4 O1A 1_555 1_555
C1A C2A 1_555 1_555
C2A C3A 1_555 1_555
C3A H1A 1_555 1_555
C4A C3A 1_555 1_555
C5A C4A 1_555 1_555
C6A C5A 1_555 1_555
H2A C6A 1_555 1_555
C7A C2A 1_555 1_555
H3A C7A 1_555 1_555
C8A H4A 1_555 1_555
H5A C8A 1_555 1_555
C9A C8A 1_555 1_555
C10A C9A 1_555 1_555
H6A C10A 1_555 1_555
C11A C10A 1_555 1_555
H7A C11A 1_555 1_555
C12A H8A 1_555 1_555
C13A C9A 1_555 1_555
H9A C13A 1_555 1_555
C14A H10A 1_555 1_555
H11A C14A 1_555 1_555
C15A C14A 1_555 1_555
C16A C15A 1_555 1_555
H12A C16A 1_555 1_555
C17A C16A 1_555 1_555
H13A C17A 1_555 1_555
C18A H14A 1_555 1_555
C19A C15A 1_555 1_555
H15A C19A 1_555 1_555
C20A C21A 1_555 1_555
C21A C22A 1_555 1_555
C22A C23 1_555 1_555
H16A C22A 1_555 1_555
C23A C22 1_555 1_555
H17A C23A 1_555 1_555
N1A Cd1A 1_555 1_555
N2A C17A 1_555 1_555
N2_2 Cd1 1_555 1_555
N2A_2 Cd1A 1_555 1_555
O1A C1A 1_555 1_555
O1_2 Cd1 1_555 1_555
O1A_2 Cd1A 1_555 1_555
O2A Cd1 1_555 1_555
O2_2 Cd1 1_555 1_555
O2A_2 Cd1A 1_555 1_555
O3A C4A 1_555 1_555
O4A C5A 1_555 1_555
O5A C20A 1_555 1_555
O5A_2 Cd1A 1_555 1_555
O6A Cd1A_2 1_555 1_555
O6A_2 Cd1A 1_555 1_555
C6 C7 1_555 1_555
C8 O3 1_555 1_555
C12 C13 1_555 1_555
C12 N1 1_555 1_555
C14 O4 1_555 1_555
C18 C19 1_555 1_555
C18 N2 1_555 1_555
C20 O5 1_555 1_555
C20 O6 1_555 1_555
O2 Cd1_3 1_555 1_555
Cd1_3 O2A_2 1_555 1_555
Cd1A_4 O2A 1_555 1_555
Cd1A_4 O2_2 1_555 1_555
C1A O2A 1_555 1_555
C6A C7A 1_555 1_555
C8A O3A 1_555 1_555
C11A N1A 1_555 1_555
C12A C13A 1_555 1_555
C12A N1A 1_555 1_555
C14A O4A 1_555 1_555
C18A C19A 1_555 1_555
C18A N2A 1_555 1_555
C20A O6A 1_555 1_555
C21A C23A 1_555 1_555

#END
