
#######################################################################
#
#                 Cambridge Crystallographic Data Centre
#                                CCDC 
#
#######################################################################
#
# If this CIF has been generated from an entry in the Cambridge 
# Structural Database, then it will include bibliographic, chemical, 
# crystal, experimental, refinement or atomic coordinate data resulting 
# from the CCDC's data processing and validation procedures.
#
#######################################################################

data_QUMGAI
_symmetry_cell_setting           orthorhombic
_symmetry_space_group_name_H-M   'P 21 21 21'
_symmetry_Int_Tables_number      19
_space_group_name_Hall           'P 2ac 2ab'
loop_
_symmetry_equiv_pos_site_id
_symmetry_equiv_pos_as_xyz
1 x,y,z
2 1/2-x,-y,1/2+z
3 -x,1/2+y,1/2-z
4 1/2+x,1/2-y,-z
_cell_length_a                   4.73550(10)
_cell_length_b                   11.3846(3)
_cell_length_c                   15.5140(4)
_cell_angle_alpha                90
_cell_angle_beta                 90
_cell_angle_gamma                90
_cell_volume                     836.387
loop_
_atom_site_label
_atom_site_type_symbol
_atom_site_fract_x
_atom_site_fract_y
_atom_site_fract_z
Ba1 Ba 0.26750(3) 0.890700(12) 0.862849(9)
O1 O -0.0987(4) 0.61985(18) 0.58351(16)
O2 O 0.2317(6) 0.53000(15) 0.65990(12)
O3 O 0.4412(4) 0.73158(17) 0.71479(13)
H1 H 0.441(8) 0.6642(15) 0.736(2)
O4 O -0.0635(4) 0.85780(16) 0.70005(13)
H2 H -0.160(6) 0.7972(19) 0.710(2)
O5 O 0.4273(4) 0.98669(17) 0.69824(13)
H3 H 0.600(3) 0.971(4) 0.698(3)
O6 O -0.0407(5) 1.04156(18) 0.51843(13)
H4 H -0.188(5) 1.082(3) 0.518(3)
O7 O 0.4860(5) 1.17200(18) 0.53780(14)
O8 O 0.2176(5) 1.26062(16) 0.63561(12)
C1 C 0.1240(6) 0.6198(2) 0.62432(16)
C2 C 0.2957(6) 0.7334(2) 0.63364(16)
H5 H 0.4376 0.7350 0.5877
C3 C 0.1167(5) 0.8441(2) 0.62597(17)
H6 H -0.0026 0.8369 0.5746
C4 C 0.2889(6) 0.9571(2) 0.61849(15)
H7 H 0.4305 0.9481 0.5729
C5 C 0.1021(6) 1.0629(2) 0.59857(18)
H8 H -0.0366 1.0736 0.6448
C6 C 0.2837(6) 1.1731(2) 0.58997(16)
Ba1A Ba 0.23250(3) 1.109300(12) 0.362849(9)
Ba1B Ba -0.26750(3) 0.390700(12) 0.637151(9)
Ba1B_2 Ba -0.26750(3) 1.390700(12) 0.637151(9)
Ba1B_3 Ba 0.73250(3) 0.390700(12) 0.637151(9)
Ba1B_4 Ba 0.73250(3) 1.390700(12) 0.637151(9)
O1B O 0.0987(4) 1.11985(18) 0.91649(16)
O2B O -0.2317(6) 1.03000(15) 0.84010(12)
O2B_2 O 0.7683(6) 1.03000(15) 0.84010(12)
O6A O 0.5407(5) 0.95844(18) 1.01843(13)
O7A O 0.0140(5) 0.82800(18) 1.03780(14)
O7B O 0.5140(5) 0.67200(18) 0.96220(14)
O8B O -0.2176(5) 0.76062(16) 0.86439(12)
O8B_2 O 0.7824(5) 0.76062(16) 0.86439(12)
loop_
_geom_bond_atom_site_label_1
_geom_bond_atom_site_label_2
_geom_bond_site_symmetry_1
_geom_bond_site_symmetry_2
Ba1 O3 1_555 1_555
O1 C1 1_555 1_555
O2 C1 1_555 1_555
O3 H1 1_555 1_555
O4 Ba1 1_555 1_555
H2 O4 1_555 1_555
O5 Ba1 1_555 1_555
H3 O5 1_555 1_555
O6 H4 1_555 1_555
O7 C6 1_555 1_555
O8 C6 1_555 1_555
C1 C2 1_555 1_555
C2 O3 1_555 1_555
H5 C2 1_555 1_555
C3 O4 1_555 1_555
H6 C3 1_555 1_555
C4 O5 1_555 1_555
H7 C4 1_555 1_555
C5 O6 1_555 1_555
H8 C5 1_555 1_555
C6 C5 1_555 1_555
Ba1A O6 1_555 1_555
Ba1B O1 1_555 1_555
Ba1B_2 O8 1_555 1_555
Ba1B_3 O2 1_555 1_555
Ba1B_4 O7 1_555 1_555
O1B Ba1 1_555 1_555
O2B Ba1 1_555 1_555
O2B_2 Ba1 1_555 1_555
O6A Ba1 1_555 1_555
O7A Ba1 1_555 1_555
O7B Ba1 1_555 1_555
O8B Ba1 1_555 1_555
O8B_2 Ba1 1_555 1_555
O2 Ba1B 1_555 1_555
O7 Ba1A 1_555 1_555
O8 Ba1B_4 1_555 1_555
C2 C3 1_555 1_555
C3 C4 1_555 1_555
C4 C5 1_555 1_555

#END
