
#######################################################################
#
#                 Cambridge Crystallographic Data Centre
#                                CCDC 
#
#######################################################################
#
# If this CIF has been generated from an entry in the Cambridge 
# Structural Database, then it will include bibliographic, chemical, 
# crystal, experimental, refinement or atomic coordinate data resulting 
# from the CCDC's data processing and validation procedures.
#
#######################################################################

data_QUMJOZ
_symmetry_cell_setting           triclinic
_symmetry_space_group_name_H-M   'P -1'
_symmetry_Int_Tables_number      2
_space_group_name_Hall           '-P 1'
loop_
_symmetry_equiv_pos_site_id
_symmetry_equiv_pos_as_xyz
1 x,y,z
2 -x,-y,-z
_cell_length_a                   8.0141(12)
_cell_length_b                   9.5315(19)
_cell_length_c                   12.995(2)
_cell_angle_alpha                94.644(8)
_cell_angle_beta                 100.309(6)
_cell_angle_gamma                110.121(5)
_cell_volume                     906.033
loop_
_atom_site_label
_atom_site_type_symbol
_atom_site_fract_x
_atom_site_fract_y
_atom_site_fract_z
Zn1 Zn 0.25711(3) 0.43792(3) 0.151995(19)
Cl1 Cl 0.11572(7) 0.57281(6) 0.24040(4)
O1 O 0.0360(2) 0.34639(16) 0.01178(12)
H1 H -0.0691 0.3648 0.0253
H2 H 0.0733 0.3949 -0.0466
N1 N 0.1738(2) 0.22635(18) 0.19896(13)
N2 N 0.5239(2) 0.19149(19) 0.59449(14)
N3 N 0.2600(2) 0.00199(18) 0.52229(14)
N4 N 0.4857(2) 0.45860(18) 0.28471(13)
C1 C 0.4108(3) -0.0166(2) 0.70022(15)
N5 N 0.3977(2) -0.40544(18) 1.07179(13)
N6 N 0.6146(2) -0.2557(2) 1.01181(15)
N7 N 0.5750(2) -0.3489(2) 1.08356(15)
C2 C 0.5399(3) 0.3457(2) 0.44209(15)
C3 C 0.3009(3) 0.1049(2) 0.45390(16)
C4 C 0.4537(3) -0.2601(2) 0.95817(15)
N8 N 0.3159(2) -0.35126(19) 0.99286(14)
C5 C 0.7108(3) 0.4627(2) 0.47686(16)
H3 H 0.7859 0.4661 0.5412
C6 C 0.1993(3) 0.0975(2) 0.35006(16)
C7 C 0.4347(3) -0.1731(2) 0.87099(15)
C8 C 0.2755(3) -0.1550(2) 0.70068(16)
H4 H 0.1765 -0.1957 0.6434
C9 C 0.2621(3) 0.2218(2) 0.29718(15)
C10 C 0.3964(3) 0.0582(2) 0.60625(16)
C11 C 0.6481(3) 0.5670(2) 0.31917(17)
H5 H 0.6858 0.6428 0.2783
C12 C 0.4638(3) 0.2232(2) 0.49686(16)
C13 C 0.4330(3) 0.3467(2) 0.34382(15)
C14 C 0.2867(3) -0.2328(2) 0.78553(16)
H6 H 0.1952 -0.3249 0.7853
C15 C 0.5681(3) -0.0328(2) 0.87246(16)
H7 H 0.6656 0.0088 0.9306
C16 C 0.0471(3) -0.0282(2) 0.29592(18)
H8 H 0.0018 -0.1122 0.3286
C17 C 0.0319(3) 0.1049(2) 0.14941(17)
H9 H -0.0267 0.1068 0.0813
C18 C 0.5565(3) 0.0454(2) 0.78773(16)
H10 H 0.6458 0.1392 0.7892
C19 C 0.7656(3) 0.5723(2) 0.41439(18)
H11 H 0.8797 0.6492 0.4352
C20 C -0.0337(3) -0.0255(2) 0.19464(19)
H12 H -0.1311 -0.1095 0.1563
H13 H 0.610(4) 0.243(3) 0.638(2)
Zn1_2 Zn 0.25711(3) -0.56208(3) 1.151995(19)
N5_2 N 0.3977(2) 0.59456(18) 0.07179(13)
loop_
_geom_bond_atom_site_label_1
_geom_bond_atom_site_label_2
_geom_bond_site_symmetry_1
_geom_bond_site_symmetry_2
Zn1 Cl1 1_555 1_555
O1 Zn1 1_555 1_555
H1 O1 1_555 1_555
H2 O1 1_555 1_555
N1 Zn1 1_555 1_555
N2 C10 1_555 1_555
N3 C3 1_555 1_555
N4 Zn1 1_555 1_555
C1 C8 1_555 1_555
N5 N7 1_555 1_555
N6 N7 1_555 1_555
C2 C5 1_555 1_555
C3 C6 1_555 1_555
C4 N6 1_555 1_555
N8 N5 1_555 1_555
C5 H3 1_555 1_555
C6 C9 1_555 1_555
C7 C4 1_555 1_555
C8 H4 1_555 1_555
C9 N1 1_555 1_555
C10 N3 1_555 1_555
C11 N4 1_555 1_555
H5 C11 1_555 1_555
C12 N2 1_555 1_555
C13 N4 1_555 1_555
C14 C7 1_555 1_555
H6 C14 1_555 1_555
C15 C7 1_555 1_555
H7 C15 1_555 1_555
C16 C6 1_555 1_555
H8 C16 1_555 1_555
C17 N1 1_555 1_555
H9 C17 1_555 1_555
C18 C1 1_555 1_555
H10 C18 1_555 1_555
C19 C5 1_555 1_555
H11 C19 1_555 1_555
C20 C16 1_555 1_555
H12 C20 1_555 1_555
H13 N2 1_555 1_555
Zn1_2 N5 1_555 1_555
N5_2 Zn1 1_555 1_555
C1 C10 1_555 1_555
C2 C12 1_555 1_555
C2 C13 1_555 1_555
C3 C12 1_555 1_555
C4 N8 1_555 1_555
C8 C14 1_555 1_555
C9 C13 1_555 1_555
C11 C19 1_555 1_555
C15 C18 1_555 1_555
C17 C20 1_555 1_555

#END
