
#######################################################################
#
#                 Cambridge Crystallographic Data Centre
#                                CCDC 
#
#######################################################################
#
# If this CIF has been generated from an entry in the Cambridge 
# Structural Database, then it will include bibliographic, chemical, 
# crystal, experimental, refinement or atomic coordinate data resulting 
# from the CCDC's data processing and validation procedures.
#
#######################################################################

data_QUMJUF
_symmetry_cell_setting           orthorhombic
_symmetry_space_group_name_H-M   'A b a 2'
_symmetry_Int_Tables_number      41
_space_group_name_Hall           'A 2 -2ac'
loop_
_symmetry_equiv_pos_site_id
_symmetry_equiv_pos_as_xyz
1 x,y,z
2 -x,-y,z
3 1/2-x,y,1/2+z
4 1/2+x,-y,1/2+z
5 x,1/2+y,1/2+z
6 -x,1/2-y,1/2+z
7 1/2-x,1/2+y,z
8 1/2+x,1/2-y,z
_cell_length_a                   16.294(6)
_cell_length_b                   19.609(7)
_cell_length_c                   11.409(4)
_cell_angle_alpha                90
_cell_angle_beta                 90
_cell_angle_gamma                90
_cell_volume                     3645.28
loop_
_atom_site_label
_atom_site_type_symbol
_atom_site_fract_x
_atom_site_fract_y
_atom_site_fract_z
Zn1 Zn 1.0000 1.0000 0.75586(9)
N1 N 0.5164(3) 1.4246(3) -0.1162(4)
N2 N 0.8728(2) 1.02551(19) 0.7150(3)
N3 N 0.5848(3) 1.3989(2) -0.0682(4)
C1 C 0.8067(2) 1.0002(2) 0.7666(7)
H1 H 0.8137 0.9728 0.8324
C2 C 0.5574(3) 1.3530(3) 0.0111(5)
N4 N 0.4505(3) 1.3950(2) -0.0663(4)
N5 N 0.4747(3) 1.3497(2) 0.0137(4)
C3 C 0.7843(2) 1.0810(2) 0.5721(4)
C4 C 0.9369(3) 1.0941(3) 0.5651(4)
C5 C 0.7830(3) 1.1249(3) 0.4710(4)
C6 C 0.9327(3) 1.1382(3) 0.4685(5)
C7 C 0.8635(2) 1.0657(2) 0.6182(4)
N6 N 0.7184(2) 1.1507(2) 0.4074(4)
C8 C 0.7267(3) 1.0128(3) 0.7267(5)
H2 H 0.6817 0.9943 0.7654
C9 C 0.7528(3) 1.1933(2) 0.3258(5)
N7 N 0.8334(2) 1.1955(2) 0.3317(4)
C10 C 0.7160(3) 1.0533(3) 0.6284(5)
H3 H 0.6636 1.0620 0.6000
C11 C 0.8528(3) 1.1536(2) 0.4229(4)
C12 C 0.7024(3) 1.2324(2) 0.2432(5)
C13 C 0.6178(3) 1.2250(2) 0.2384(5)
H4 H 0.5918 1.1937 0.2870
C14 C 1.0049(3) 1.1663(3) 0.4237(6)
H5 H 1.0034 1.1953 0.3592
N8 N 1.0099(2) 1.0776(3) 0.6147(4)
C15 C 0.7392(3) 1.2785(3) 0.1670(6)
H6 H 0.7959 1.2839 0.1690
C16 C 1.0783(3) 1.1504(3) 0.4768(6)
H7 H 1.1270 1.1696 0.4502
C17 C 1.0786(3) 1.1055(3) 0.5699(5)
H8 H 1.1287 1.0939 0.6034
C18 C 0.5715(3) 1.2646(3) 0.1605(5)
H9 H 0.5148 1.2593 0.1579
C19 C 0.6941(3) 1.3165(3) 0.0888(6)
H10 H 0.7203 1.3458 0.0368
C20 C 0.6085(3) 1.3107(2) 0.0882(5)
H11 H 0.6604 1.1463 0.4191
N1A N 1.4836(3) 0.5754(3) -0.1162(4)
N2A N 1.1272(2) 0.97449(19) 0.7150(3)
N3A N 1.4152(3) 0.6011(2) -0.0682(4)
C1A C 1.1933(2) 0.9998(2) 0.7666(7)
H1A H 1.1863 1.0272 0.8324
C2A C 1.4426(3) 0.6470(3) 0.0111(5)
N4A N 1.5495(3) 0.6050(2) -0.0663(4)
N5A N 1.5253(3) 0.6503(2) 0.0137(4)
C3A C 1.2157(2) 0.9190(2) 0.5721(4)
C4A C 1.0631(3) 0.9059(3) 0.5651(4)
C5A C 1.2170(3) 0.8751(3) 0.4710(4)
C6A C 1.0673(3) 0.8618(3) 0.4685(5)
C7A C 1.1365(2) 0.9343(2) 0.6182(4)
N6A N 1.2816(2) 0.8493(2) 0.4074(4)
C8A C 1.2733(3) 0.9872(3) 0.7267(5)
H2A H 1.3183 1.0057 0.7654
C9A C 1.2472(3) 0.8067(2) 0.3258(5)
N7A N 1.1666(2) 0.8045(2) 0.3317(4)
C10A C 1.2840(3) 0.9467(3) 0.6284(5)
H3A H 1.3364 0.9380 0.6000
C11A C 1.1472(3) 0.8464(2) 0.4229(4)
C12A C 1.2976(3) 0.7676(2) 0.2432(5)
C13A C 1.3822(3) 0.7750(2) 0.2384(5)
H4A H 1.4082 0.8063 0.2870
C14A C 0.9951(3) 0.8337(3) 0.4237(6)
H5A H 0.9966 0.8047 0.3592
N8A N 0.9901(2) 0.9224(3) 0.6147(4)
C15A C 1.2608(3) 0.7215(3) 0.1670(6)
H6A H 1.2041 0.7161 0.1690
C16A C 0.9217(3) 0.8496(3) 0.4768(6)
H7A H 0.8730 0.8304 0.4502
C17A C 0.9214(3) 0.8945(3) 0.5699(5)
H8A H 0.8713 0.9061 0.6034
C18A C 1.4285(3) 0.7354(3) 0.1605(5)
H9A H 1.4852 0.7407 0.1579
C19A C 1.3059(3) 0.6835(3) 0.0888(6)
H10A H 1.2797 0.6542 0.0368
C20A C 1.3915(3) 0.6893(2) 0.0882(5)
H11A H 1.3396 0.8537 0.4191
Zn1F Zn 0.5000 1.5000 -0.24414(9)
Zn1F_2 Zn 1.5000 0.5000 -0.24414(9)
N1F N 0.9836(3) 0.9246(3) 0.8838(4)
N1G N 1.0164(3) 1.0754(3) 0.8838(4)
loop_
_geom_bond_atom_site_label_1
_geom_bond_atom_site_label_2
_geom_bond_site_symmetry_1
_geom_bond_site_symmetry_2
Zn1 N2 1_555 1_555
N1 N3 1_555 1_555
N2 C1 1_555 1_555
N3 C2 1_555 1_555
C1 H1 1_555 1_555
C2 N5 1_555 1_555
N4 N1 1_555 1_555
N5 N4 1_555 1_555
C3 C5 1_555 1_555
C4 C6 1_555 1_555
C5 N6 1_555 1_555
C6 C11 1_555 1_555
C7 N2 1_555 1_555
N6 C9 1_555 1_555
C8 C1 1_555 1_555
H2 C8 1_555 1_555
C9 N7 1_555 1_555
N7 C11 1_555 1_555
C10 C3 1_555 1_555
H3 C10 1_555 1_555
C11 C5 1_555 1_555
C12 C9 1_555 1_555
C13 C12 1_555 1_555
H4 C13 1_555 1_555
C14 C6 1_555 1_555
H5 C14 1_555 1_555
N8 Zn1 1_555 1_555
C15 C12 1_555 1_555
H6 C15 1_555 1_555
C16 C14 1_555 1_555
H7 C16 1_555 1_555
C17 N8 1_555 1_555
H8 C17 1_555 1_555
C18 C13 1_555 1_555
H9 C18 1_555 1_555
C19 C15 1_555 1_555
H10 C19 1_555 1_555
C20 C2 1_555 1_555
H11 N6 1_555 1_555
N1A N3A 1_555 1_555
N2A Zn1 1_555 1_555
N3A C2A 1_555 1_555
C1A N2A 1_555 1_555
H1A C1A 1_555 1_555
C2A N5A 1_555 1_555
N4A N1A 1_555 1_555
N5A N4A 1_555 1_555
C3A C5A 1_555 1_555
C4A C6A 1_555 1_555
C5A N6A 1_555 1_555
C6A C11A 1_555 1_555
C7A N2A 1_555 1_555
N6A C9A 1_555 1_555
C8A C1A 1_555 1_555
H2A C8A 1_555 1_555
C9A N7A 1_555 1_555
N7A C11A 1_555 1_555
C10A C3A 1_555 1_555
H3A C10A 1_555 1_555
C11A C5A 1_555 1_555
C12A C9A 1_555 1_555
C13A C12A 1_555 1_555
H4A C13A 1_555 1_555
C14A C6A 1_555 1_555
H5A C14A 1_555 1_555
N8A Zn1 1_555 1_555
C15A C12A 1_555 1_555
H6A C15A 1_555 1_555
C16A C14A 1_555 1_555
H7A C16A 1_555 1_555
C17A N8A 1_555 1_555
H8A C17A 1_555 1_555
C18A C13A 1_555 1_555
H9A C18A 1_555 1_555
C19A C15A 1_555 1_555
H10A C19A 1_555 1_555
C20A C2A 1_555 1_555
H11A N6A 1_555 1_555
Zn1F N1 1_555 1_555
Zn1F_2 N1A 1_555 1_555
N1F Zn1 1_555 1_555
N1G Zn1 1_555 1_555
C3 C7 1_555 1_555
C4 C7 1_555 1_555
C4 N8 1_555 1_555
C8 C10 1_555 1_555
C16 C17 1_555 1_555
C18 C20 1_555 1_555
C19 C20 1_555 1_555
C3A C7A 1_555 1_555
C4A C7A 1_555 1_555
C4A N8A 1_555 1_555
C8A C10A 1_555 1_555
C16A C17A 1_555 1_555
C18A C20A 1_555 1_555
C19A C20A 1_555 1_555

#END
