
#######################################################################
#
#                 Cambridge Crystallographic Data Centre
#                                CCDC 
#
#######################################################################
#
# If this CIF has been generated from an entry in the Cambridge 
# Structural Database, then it will include bibliographic, chemical, 
# crystal, experimental, refinement or atomic coordinate data resulting 
# from the CCDC's data processing and validation procedures.
#
#######################################################################

data_QUMLAN
_symmetry_cell_setting           monoclinic
_symmetry_space_group_name_H-M   'C 2/c'
_symmetry_Int_Tables_number      15
_space_group_name_Hall           '-C 2yn'
loop_
_symmetry_equiv_pos_site_id
_symmetry_equiv_pos_as_xyz
1 x,y,z
2 -x,y,1/2-z
3 1/2+x,1/2+y,z
4 1/2-x,1/2+y,1/2-z
5 -x,-y,-z
6 x,-y,1/2+z
7 1/2-x,1/2-y,-z
8 1/2+x,1/2-y,1/2+z
_cell_length_a                   31.124(6)
_cell_length_b                   11.699(2)
_cell_length_c                   24.102(5)
_cell_angle_alpha                90
_cell_angle_beta                 117.832(2)
_cell_angle_gamma                90
_cell_volume                     7760.81
loop_
_atom_site_label
_atom_site_type_symbol
_atom_site_fract_x
_atom_site_fract_y
_atom_site_fract_z
Ag1 Ag 0.14476(3) 0.87352(9) 0.08900(4)
Ag2 Ag 0.0000 1.47128(10) 0.2500
O26 O 0.0317(2) 1.1658(7) 0.1485(3)
O27 O 0.0577(2) 0.4416(6) 0.0067(2)
N1 N -0.1343(4) 1.2411(9) 0.0931(5)
N2 N 0.0232(4) 0.2934(9) 0.0236(4)
N3 N 0.1521(3) 0.6851(8) 0.1315(4)
N4 N 0.1543(3) 0.9976(9) 0.1648(4)
N5 N 0.0558(3) 0.3405(9) 0.0820(4)
N6 N 0.0226(3) 1.3076(9) 0.1992(4)
N7 N -0.0198(3) 0.4018(9) -0.1887(4)
N8 N 0.0725(3) 1.2834(8) 0.2257(3)
C1 C -0.0476(7) 0.2265(17) -0.1742(8)
H1 H -0.0662 0.1618 -0.1925
C2 C -0.0241(6) 0.2378(14) -0.1107(7)
H2 H -0.0252 0.1797 -0.0850
C3 C -0.0437(6) 0.3103(15) -0.2107(5)
H3 H -0.0593 0.3000 -0.2540
C4 C 0.1670(5) 0.6740(10) 0.1908(5)
H4 H 0.1877 0.7299 0.2173
C5 C -0.0681(4) 1.1852(11) 0.0523(5)
H5 H -0.0457 1.1661 0.0385
C6 C 0.1546(5) 0.5863(11) 0.2174(5)
H6 H 0.1649 0.5843 0.2604
C7 C 0.1260(4) 0.4996(11) 0.1782(5)
H7 H 0.1182 0.4358 0.1947
C8 C 0.1964(4) 1.0120(10) 0.2147(4)
H8 H 0.2228 0.9687 0.2190
C9 C 0.1161(4) 1.0589(10) 0.1585(4)
H9 H 0.0864 1.0483 0.1229
C10 C 0.1626(3) 1.1555(10) 0.2551(4)
H10 H 0.1655 1.2090 0.2852
C11 C 0.0760(3) 1.1984(10) 0.1938(4)
C12 C -0.0510(3) 1.2254(11) 0.1134(4)
C13 C -0.0849(4) 1.2581(9) 0.1330(5)
H11 H -0.0746 1.2909 0.1723
C14 C 0.2027(3) 1.0898(11) 0.2611(4)
H12 H 0.2329 1.0988 0.2959
C15 C 0.0261(3) 0.3522(9) -0.0178(4)
C16 C 0.0012(3) 0.3369(10) -0.0854(4)
C17 C 0.1090(3) 0.5096(8) 0.1133(4)
C18 C 0.1236(3) 0.6048(10) 0.0933(4)
H13 H 0.1128 0.6135 0.0504
C19 C 0.0009(4) 1.2366(10) 0.1552(4)
C20 C -0.1465(4) 1.2003(8) 0.0326(5)
H14 H -0.1793 1.1922 0.0045
C21 C 0.0023(3) 0.4169(9) -0.1268(4)
H15 H 0.0193 0.4846 -0.1107
C22 C -0.1150(3) 1.1730(7) 0.0130(3)
H16 H -0.1253 1.1458 -0.0275
C23 C 0.1189(3) 1.1364(9) 0.2024(4)
C24 C 0.0745(3) 0.4304(8) 0.0689(4)
Ag1A Ag -0.14476(3) 0.87352(9) 0.41100(4)
O26A O -0.0317(2) 1.1658(7) 0.3515(3)
O27A O -0.0577(2) 0.4416(6) 0.4933(2)
N1A N 0.1343(4) 1.2411(9) 0.4069(5)
N2A N -0.0232(4) 0.2934(9) 0.4764(4)
N3A N -0.1521(3) 0.6851(8) 0.3685(4)
N4A N -0.1543(3) 0.9976(9) 0.3352(4)
N5A N -0.0558(3) 0.3405(9) 0.4180(4)
N6A N -0.0226(3) 1.3076(9) 0.3008(4)
N7A N 0.0198(3) 0.4018(9) 0.6887(4)
N8A N -0.0725(3) 1.2834(8) 0.2743(3)
C1A C 0.0476(7) 0.2265(17) 0.6742(8)
H1A H 0.0662 0.1618 0.6925
C2A C 0.0241(6) 0.2378(14) 0.6107(7)
H2A H 0.0252 0.1797 0.5850
C3A C 0.0437(6) 0.3103(15) 0.7107(5)
H3A H 0.0593 0.3000 0.7540
C4A C -0.1670(5) 0.6740(10) 0.3092(5)
H4A H -0.1877 0.7299 0.2827
C5A C 0.0681(4) 1.1852(11) 0.4477(5)
H5A H 0.0457 1.1661 0.4615
C6A C -0.1546(5) 0.5863(11) 0.2826(5)
H6A H -0.1649 0.5843 0.2396
C7A C -0.1260(4) 0.4996(11) 0.3218(5)
H7A H -0.1182 0.4358 0.3053
C8A C -0.1964(4) 1.0120(10) 0.2853(4)
H8A H -0.2228 0.9687 0.2810
C9A C -0.1161(4) 1.0589(10) 0.3415(4)
H9A H -0.0864 1.0483 0.3771
C10A C -0.1626(3) 1.1555(10) 0.2449(4)
H10A H -0.1655 1.2090 0.2148
C11A C -0.0760(3) 1.1984(10) 0.3062(4)
C12A C 0.0510(3) 1.2254(11) 0.3866(4)
C13A C 0.0849(4) 1.2581(9) 0.3670(5)
H11A H 0.0746 1.2909 0.3277
C14A C -0.2027(3) 1.0898(11) 0.2389(4)
H12A H -0.2329 1.0988 0.2041
C15A C -0.0261(3) 0.3522(9) 0.5178(4)
C16A C -0.0012(3) 0.3369(10) 0.5854(4)
C17A C -0.1090(3) 0.5096(8) 0.3867(4)
C18A C -0.1236(3) 0.6048(10) 0.4067(4)
H13A H -0.1128 0.6135 0.4496
C19A C -0.0009(4) 1.2366(10) 0.3448(4)
C20A C 0.1465(4) 1.2003(8) 0.4674(5)
H14A H 0.1793 1.1922 0.4955
C21A C -0.0023(3) 0.4169(9) 0.6268(4)
H15A H -0.0193 0.4846 0.6107
C22A C 0.1150(3) 1.1730(7) 0.4870(3)
H16A H 0.1253 1.1458 0.5275
C23A C -0.1189(3) 1.1364(9) 0.2976(4)
C24A C -0.0745(3) 0.4304(8) 0.4311(4)
Ag2D Ag 0.0000 0.52872(10) -0.2500
Ag2D_2 Ag 0.0000 0.52872(10) 0.7500
N7D N 0.0198(3) 1.5982(9) 0.1887(4)
N7E N -0.0198(3) 1.5982(9) 0.3113(4)
O28 O 0.0000 1.0000 0.0000
O29 O 0.0000 1.038(4) 0.2500
Mo1 Mo 0.26253(3) 0.96731(6) -0.04468(3)
Mo2 Mo 0.13914(2) 1.14980(7) -0.00815(4)
Mo3 Mo 0.25265(3) 1.01584(6) 0.09463(3)
Mo4 Mo 0.15875(3) 1.13149(6) -0.14235(3)
Mo5 Mo 0.22507(3) 1.29551(6) 0.12833(3)
Mo6 Mo 0.14004(2) 1.40276(7) -0.08900(3)
P1 P 0.2500 1.2500 0.0000
O1 O 0.1952(3) 1.2335(8) -0.0430(4)
O2 O 0.2437(4) 0.9697(10) 0.0154(6)
O3 O 0.2528(4) 0.9140(10) 0.0237(5)
O4 O 0.1351(3) 1.0960(7) -0.0816(4)
O5 O 0.1360(3) 1.2769(6) -0.1442(3)
O6 O 0.2277(3) 1.3708(7) -0.0253(4)
O7 O 0.2043(2) 1.1725(7) -0.1663(4)
O8 O 0.1158(3) 1.0713(7) -0.2063(3)
O9 O 0.1829(3) 1.0389(7) 0.0405(4)
O10 O 0.3123(4) 1.0639(10) 0.1173(5)
O11 O 0.3210(4) 1.0084(9) 0.1262(4)
O12 O 0.1206(3) 1.3003(6) -0.0471(4)
O13 O 0.1657(4) 1.5245(11) -0.0257(6)
O14 O 0.1753(4) 1.4730(12) -0.0190(5)
O15 O 0.0888(2) 1.1065(7) -0.0088(4)
O16 O 0.2502(3) 0.9032(6) 0.1360(3)
O17 O 0.1664(3) 1.2443(7) 0.0685(4)
O18 O 0.2165(3) 1.3133(8) 0.1903(3)
O19 O 0.2487(3) 1.1351(6) 0.1414(4)
O20 O 0.2689(3) 0.8359(6) -0.0667(4)
O21 O 0.1994(2) 0.9995(6) -0.1012(4)
O22 O 0.2173(2) 1.4415(7) 0.0955(4)
O23 O 0.0898(2) 1.4723(6) -0.1351(3)
O24 O 0.2410(4) 1.1745(9) -0.0543(4)
O25 O 0.2739(3) 1.2957(8) -0.0391(4)
O1F O 0.3048(3) 1.2665(8) 0.0430(4)
O6F O 0.2723(3) 1.1292(7) 0.0253(4)
O24F O 0.2590(4) 1.3255(9) 0.0543(4)
O25F O 0.2261(3) 1.2043(8) 0.0391(4)
Mo1F Mo 0.23747(3) 1.53269(6) 0.04468(3)
Mo2F Mo 0.36086(2) 1.35020(7) 0.00815(4)
Mo3F Mo 0.24735(3) 1.48416(6) -0.09463(3)
Mo4F Mo 0.34125(3) 1.36851(6) 0.14235(3)
Mo5F Mo 0.27493(3) 1.20449(6) -0.12833(3)
Mo6F Mo 0.35996(2) 1.09724(7) 0.08900(3)
O2F O 0.2563(4) 1.5303(10) -0.0154(6)
O3F O 0.2472(4) 1.5860(10) -0.0237(5)
O4F O 0.3649(3) 1.4040(7) 0.0816(4)
O5F O 0.3640(3) 1.2231(6) 0.1442(3)
O7F O 0.2957(2) 1.3275(7) 0.1663(4)
O8F O 0.3842(3) 1.4287(7) 0.2063(3)
O9F O 0.3171(3) 1.4611(7) -0.0405(4)
O10F O 0.1877(4) 1.4361(10) -0.1173(5)
O11F O 0.1790(4) 1.4916(9) -0.1262(4)
O12F O 0.3794(3) 1.1997(6) 0.0471(4)
O13F O 0.3343(4) 0.9755(11) 0.0257(6)
O14F O 0.3247(4) 1.0270(12) 0.0190(5)
O15F O 0.4112(2) 1.3935(7) 0.0088(4)
O16F O 0.2498(3) 1.5968(6) -0.1360(3)
O17F O 0.3336(3) 1.2557(7) -0.0685(4)
O18F O 0.2835(3) 1.1867(8) -0.1903(3)
O19F O 0.2513(3) 1.3649(6) -0.1414(4)
O20F O 0.2311(3) 1.6641(6) 0.0667(4)
O21F O 0.3006(2) 1.5005(6) 0.1012(4)
O22F O 0.2827(2) 1.0585(7) -0.0955(4)
O23F O 0.4102(2) 1.0277(6) 0.1351(3)
loop_
_geom_bond_atom_site_label_1
_geom_bond_atom_site_label_2
_geom_bond_site_symmetry_1
_geom_bond_site_symmetry_2
Mo1 O2 1_555 1_555
Mo2 O1 1_555 1_555
Mo3 O2 1_555 1_555
Mo4 O1 1_555 1_555
Mo5 O17 1_555 1_555
Mo6 O1 1_555 1_555
P1 O1 1_555 1_555
O1 O24 1_555 1_555
O2 O3 1_555 1_555
O3 Mo1 1_555 1_555
O4 Mo2 1_555 1_555
O5 Mo4 1_555 1_555
O6 Mo6 1_555 1_555
O7 Mo4 1_555 1_555
O8 Mo4 1_555 1_555
O9 Mo2 1_555 1_555
O10 Mo3 1_555 1_555
O11 Mo3 1_555 1_555
O12 Mo2 1_555 1_555
O13 Mo6 1_555 1_555
O14 Mo6 1_555 1_555
O15 Mo2 1_555 1_555
O16 Mo3 1_555 1_555
O17 Mo2 1_555 1_555
O18 Mo5 1_555 1_555
O19 Mo3 1_555 1_555
O20 Mo1 1_555 1_555
O21 Mo1 1_555 1_555
O22 Mo5 1_555 1_555
O23 Mo6 1_555 1_555
O24 Mo1 1_555 1_555
O25 P1 1_555 1_555
Ag1 N3 1_555 1_555
Ag2 N6 1_555 1_555
O26 C11 1_555 1_555
O27 C15 1_555 1_555
N1 C13 1_555 1_555
N2 N5 1_555 1_555
N3 C4 1_555 1_555
N4 Ag1 1_555 1_555
N5 C24 1_555 1_555
N6 N8 1_555 1_555
N7 C3 1_555 1_555
N8 C11 1_555 1_555
C1 H1 1_555 1_555
C2 C1 1_555 1_555
H2 C2 1_555 1_555
C3 C1 1_555 1_555
H3 C3 1_555 1_555
C4 H4 1_555 1_555
C5 H5 1_555 1_555
C6 C4 1_555 1_555
H6 C6 1_555 1_555
C7 C6 1_555 1_555
H7 C7 1_555 1_555
C8 N4 1_555 1_555
H8 C8 1_555 1_555
C9 N4 1_555 1_555
H9 C9 1_555 1_555
C10 H10 1_555 1_555
C11 C23 1_555 1_555
C12 C5 1_555 1_555
C13 C12 1_555 1_555
H11 C13 1_555 1_555
C14 C8 1_555 1_555
H12 C14 1_555 1_555
C15 N2 1_555 1_555
C16 C2 1_555 1_555
C17 C7 1_555 1_555
C18 N3 1_555 1_555
H13 C18 1_555 1_555
C19 O26 1_555 1_555
C20 N1 1_555 1_555
H14 C20 1_555 1_555
C21 N7 1_555 1_555
H15 C21 1_555 1_555
C22 C5 1_555 1_555
H16 C22 1_555 1_555
C23 C9 1_555 1_555
C24 O27 1_555 1_555
O1F P1 1_555 1_555
O6F Mo1 1_555 1_555
O24F Mo5 1_555 1_555
O25F Mo2 1_555 1_555
Mo1F O6 1_555 1_555
Mo2F O25 1_555 1_555
Mo3F O6 1_555 1_555
Mo4F O1F 1_555 1_555
Mo5F O7 1_555 1_555
Mo6F O10 1_555 1_555
O2F Mo1F 1_555 1_555
O3F Mo1F 1_555 1_555
O4F Mo2F 1_555 1_555
O5F Mo4F 1_555 1_555
O7F Mo5 1_555 1_555
O8F Mo4F 1_555 1_555
O9F Mo2F 1_555 1_555
O10F Mo6 1_555 1_555
O11F Mo6 1_555 1_555
O12F Mo2F 1_555 1_555
O13F Mo1 1_555 1_555
O14F Mo1 1_555 1_555
O15F Mo2F 1_555 1_555
O16F Mo3F 1_555 1_555
O17F Mo2F 1_555 1_555
O18F Mo5F 1_555 1_555
O19F Mo3F 1_555 1_555
O20F Mo1F 1_555 1_555
O21F Mo1F 1_555 1_555
O22F Mo1 1_555 1_555
O23F Mo6F 1_555 1_555
Ag1A N3A 1_555 1_555
O26A C11A 1_555 1_555
O27A C15A 1_555 1_555
N1A C13A 1_555 1_555
N2A N5A 1_555 1_555
N3A C4A 1_555 1_555
N4A Ag1A 1_555 1_555
N5A C24A 1_555 1_555
N6A Ag2 1_555 1_555
N7A C3A 1_555 1_555
N8A N6A 1_555 1_555
C1A H1A 1_555 1_555
C2A C1A 1_555 1_555
H2A C2A 1_555 1_555
C3A C1A 1_555 1_555
H3A C3A 1_555 1_555
C4A H4A 1_555 1_555
C5A H5A 1_555 1_555
C6A C4A 1_555 1_555
H6A C6A 1_555 1_555
C7A C6A 1_555 1_555
H7A C7A 1_555 1_555
C8A N4A 1_555 1_555
H8A C8A 1_555 1_555
C9A N4A 1_555 1_555
H9A C9A 1_555 1_555
C10A H10A 1_555 1_555
C11A N8A 1_555 1_555
C12A C5A 1_555 1_555
C13A C12A 1_555 1_555
H11A C13A 1_555 1_555
C14A C8A 1_555 1_555
H12A C14A 1_555 1_555
C15A N2A 1_555 1_555
C16A C2A 1_555 1_555
C17A C7A 1_555 1_555
C18A N3A 1_555 1_555
H13A C18A 1_555 1_555
C19A O26A 1_555 1_555
C20A N1A 1_555 1_555
H14A C20A 1_555 1_555
C21A N7A 1_555 1_555
H15A C21A 1_555 1_555
C22A C5A 1_555 1_555
H16A C22A 1_555 1_555
C23A C9A 1_555 1_555
C24A O27A 1_555 1_555
Ag2D N7 1_555 1_555
Ag2D_2 N7A 1_555 1_555
N7D Ag2 1_555 1_555
N7E Ag2 1_555 1_555
Mo3 O3 1_555 1_555
Mo3 O9 1_555 1_555
Mo3 O6F 1_555 1_555
Mo3 O25F 1_555 1_555
Mo4 O4 1_555 1_555
Mo4 O21 1_555 1_555
Mo4 O24 1_555 1_555
Mo5 O19 1_555 1_555
Mo5 O25F 1_555 1_555
Mo6 O5 1_555 1_555
Mo6 O12 1_555 1_555
P1 O6 1_555 1_555
P1 O24 1_555 1_555
P1 O6F 1_555 1_555
P1 O24F 1_555 1_555
P1 O25F 1_555 1_555
O1 O25F 1_555 1_555
O6 O24F 1_555 1_555
O10 O11 1_555 1_555
O11 Mo6F 1_555 1_555
O13 O14 1_555 1_555
O13 Mo1F 1_555 1_555
O14 Mo1F 1_555 1_555
O22 Mo1F 1_555 1_555
O24 O25 1_555 1_555
O24 O6F 1_555 1_555
O24 Mo5F 1_555 1_555
O25 O1F 1_555 1_555
O25 Mo3F 1_555 1_555
O25 Mo5F 1_555 1_555
N6 C19 1_555 1_555
C10 C14 1_555 1_555
C10 C23 1_555 1_555
C12 C19 1_555 1_555
C15 C16 1_555 1_555
C16 C21 1_555 1_555
C17 C18 1_555 1_555
C17 C24 1_555 1_555
C20 C22 1_555 1_555
O1F O24F 1_555 1_555
O1F Mo2F 1_555 1_555
O1F Mo6F 1_555 1_555
O6F Mo6F 1_555 1_555
O24F O25F 1_555 1_555
O24F Mo1F 1_555 1_555
O24F Mo4F 1_555 1_555
Mo3F O2F 1_555 1_555
Mo3F O3F 1_555 1_555
Mo3F O9F 1_555 1_555
Mo3F O10F 1_555 1_555
Mo3F O11F 1_555 1_555
Mo4F O4F 1_555 1_555
Mo4F O7F 1_555 1_555
Mo4F O21F 1_555 1_555
Mo5F O17F 1_555 1_555
Mo5F O19F 1_555 1_555
Mo5F O22F 1_555 1_555
Mo6F O5F 1_555 1_555
Mo6F O12F 1_555 1_555
Mo6F O13F 1_555 1_555
Mo6F O14F 1_555 1_555
O2F O3F 1_555 1_555
O10F O11F 1_555 1_555
O13F O14F 1_555 1_555
N6A C19A 1_555 1_555
C10A C14A 1_555 1_555
C10A C23A 1_555 1_555
C11A C23A 1_555 1_555
C12A C19A 1_555 1_555
C15A C16A 1_555 1_555
C16A C21A 1_555 1_555
C17A C18A 1_555 1_555
C17A C24A 1_555 1_555
C20A C22A 1_555 1_555

#END
