
#######################################################################
#
#                 Cambridge Crystallographic Data Centre
#                                CCDC 
#
#######################################################################
#
# If this CIF has been generated from an entry in the Cambridge 
# Structural Database, then it will include bibliographic, chemical, 
# crystal, experimental, refinement or atomic coordinate data resulting 
# from the CCDC's data processing and validation procedures.
#
#######################################################################

data_QUMQUL
_symmetry_cell_setting           monoclinic
_symmetry_space_group_name_H-M   'C 2/c'
_symmetry_Int_Tables_number      15
_space_group_name_Hall           '-C 2yn'
loop_
_symmetry_equiv_pos_site_id
_symmetry_equiv_pos_as_xyz
1 x,y,z
2 -x,y,1/2-z
3 1/2+x,1/2+y,z
4 1/2-x,1/2+y,1/2-z
5 -x,-y,-z
6 x,-y,1/2+z
7 1/2-x,1/2-y,-z
8 1/2+x,1/2-y,1/2+z
_cell_length_a                   12.9151(8)
_cell_length_b                   12.2146(7)
_cell_length_c                   12.6924(7)
_cell_angle_alpha                90
_cell_angle_beta                 98.976(3)
_cell_angle_gamma                90
_cell_volume                     1977.74
loop_
_atom_site_label
_atom_site_type_symbol
_atom_site_fract_x
_atom_site_fract_y
_atom_site_fract_z
Sm1 Sm 0.273835(8) 0.463386(9) 0.222590(7)
O1 O 0.23833(14) 0.40850(13) 0.40231(12)
O2 O 0.20655(14) 0.14868(13) 0.34756(12)
O3 O 0.37277(15) 0.42946(17) 0.08598(14)
O4 O 0.59561(15) 0.55350(15) 0.15903(13)
O5 O 0.38044(15) 0.31347(16) 0.27828(15)
O6 O 0.37623(16) 0.05149(15) 0.24330(16)
O7 O 0.14923(17) 0.46427(15) 0.04652(15)
O8 O 0.15625(19) 0.30627(18) 0.18750(17)
C1 C 0.24496(18) 0.32112(18) 0.45466(16)
C2 C 0.23085(18) 0.20407(18) 0.43088(16)
C3 C 0.4427(2) 0.46862(19) 0.03962(18)
C4 C 0.54265(19) 0.52322(19) 0.07208(17)
C5 C 0.44493(18) 0.24402(19) 0.25881(17)
C6 C 0.44404(18) 0.12451(18) 0.25087(16)
C7 C 0.0868(3) 0.3684(3) 0.0168(2)
C8 C 0.0606(3) 0.3194(3) 0.1158(2)
H1 H 0.134(3) 0.317(4) -0.016(3)
H2 H 0.020(3) 0.389(3) -0.027(3)
H3 H 0.022(2) 0.249(3) 0.100(3)
H4 H 0.015(3) 0.377(3) 0.148(3)
H5 H 0.181(3) 0.484(3) 0.002(3)
H6 H 0.163(3) 0.260(3) 0.216(3)
Sm1F Sm 0.226165(8) 0.036614(9) 0.777410(7)
Sm1C Sm 0.226165(8) -0.036614(9) 0.277410(7)
Sm1A Sm 0.726165(8) 0.463386(9) 0.277410(7)
Sm1E Sm 0.273835(8) 0.536614(9) 0.722590(7)
Sm1D Sm 0.726165(8) 0.536614(9) -0.222590(7)
Sm1E_2 Sm 0.273835(8) 0.536614(9) -0.277410(7)
Sm1B Sm 0.773835(8) -0.036614(9) 0.222590(7)
O1F O 0.26167(14) 0.09150(13) 0.59769(12)
O2F O 0.29345(14) 0.35132(13) 0.65244(12)
O2C O 0.29345(14) 0.64868(13) 0.15244(12)
O2E O 0.20655(14) -0.14868(13) 0.84756(12)
O3D O 0.62723(15) 0.57054(17) -0.08598(14)
O3F O 0.12723(15) 0.07054(17) 0.91402(14)
O4D O 0.40439(15) 0.44650(15) -0.15903(13)
O4A O 0.40439(15) 0.55350(15) 0.34097(13)
O4G O 0.09561(15) -0.05350(15) 0.65903(13)
O5A O 0.61956(15) 0.31347(16) 0.22172(15)
O5F O 0.11956(15) 0.18653(16) 0.72172(15)
O6A O 0.62377(16) 0.05149(15) 0.25670(16)
O6C O 0.12377(16) 0.55149(15) 0.25670(16)
O6E O 0.37623(16) -0.05149(15) 0.74330(16)
O7F O 0.35077(17) 0.03573(15) 0.95348(15)
O8F O 0.34375(19) 0.19373(18) 0.81250(17)
C1F C 0.25504(18) 0.17888(18) 0.54534(16)
C2F C 0.26915(18) 0.29593(18) 0.56912(16)
C3D C 0.5573(2) 0.53138(19) -0.03962(18)
C4D C 0.45735(19) 0.47678(19) -0.07208(17)
C5A C 0.55507(18) 0.24402(19) 0.24119(17)
C6A C 0.55596(18) 0.12451(18) 0.24913(16)
C7F C 0.4132(3) 0.1316(3) 0.9832(2)
C8F C 0.4394(3) 0.1806(3) 0.8842(2)
H1F H 0.366(3) 0.183(4) 1.016(3)
H2F H 0.480(3) 0.111(3) 1.027(3)
H3F H 0.478(2) 0.251(3) 0.900(3)
H4F H 0.485(3) 0.123(3) 0.852(3)
H5F H 0.319(3) 0.016(3) 0.998(3)
H6F H 0.337(3) 0.240(3) 0.784(3)
loop_
_geom_bond_atom_site_label_1
_geom_bond_atom_site_label_2
_geom_bond_site_symmetry_1
_geom_bond_site_symmetry_2
Sm1 O1 1_555 1_555
O1 C1 1_555 1_555
O2 C2 1_555 1_555
O3 Sm1 1_555 1_555
O4 C4 1_555 1_555
O5 Sm1 1_555 1_555
O6 C6 1_555 1_555
O7 Sm1 1_555 1_555
O8 Sm1 1_555 1_555
C1 C2 1_555 1_555
C2 C1F 1_555 1_555
C3 O3 1_555 1_555
C4 C3 1_555 1_555
C5 O5 1_555 1_555
C6 C5 1_555 1_555
C7 O7 1_555 1_555
C8 O8 1_555 1_555
H1 C7 1_555 1_555
H2 C7 1_555 1_555
H3 C8 1_555 1_555
H4 C8 1_555 1_555
H5 O7 1_555 1_555
H6 O8 1_555 1_555
Sm1F O1F 1_555 1_555
Sm1C O2 1_555 1_555
Sm1A O4 1_555 1_555
Sm1E O2F 1_555 1_555
Sm1D O3D 1_555 1_555
Sm1E_2 O4D 1_555 1_555
Sm1B O6A 1_555 1_555
O1F C1F 1_555 1_555
O2F C2F 1_555 1_555
O2C Sm1 1_555 1_555
O2E Sm1F 1_555 1_555
O3D C3D 1_555 1_555
O3F Sm1F 1_555 1_555
O4D C4D 1_555 1_555
O4A Sm1 1_555 1_555
O4G Sm1F 1_555 1_555
O5A Sm1A 1_555 1_555
O5F Sm1F 1_555 1_555
O6A C6A 1_555 1_555
O6C Sm1 1_555 1_555
O6E Sm1F 1_555 1_555
O7F Sm1F 1_555 1_555
O8F Sm1F 1_555 1_555
C1F C2F 1_555 1_555
C2F C1 1_555 1_555
C3D C4 1_555 1_555
C4D C3 1_555 1_555
C5A C5 1_555 1_555
C6A C6 1_555 1_555
C7F O7F 1_555 1_555
C8F O8F 1_555 1_555
H1F C7F 1_555 1_555
H2F C7F 1_555 1_555
H3F C8F 1_555 1_555
H4F C8F 1_555 1_555
H5F O7F 1_555 1_555
H6F O8F 1_555 1_555
O6 Sm1C 1_555 1_555
C7 C8 1_555 1_555
O5A C5A 1_555 1_555
C3D C4D 1_555 1_555
C5A C6A 1_555 1_555
C7F C8F 1_555 1_555

#END
