
#######################################################################
#
#                 Cambridge Crystallographic Data Centre
#                                CCDC 
#
#######################################################################
#
# If this CIF has been generated from an entry in the Cambridge 
# Structural Database, then it will include bibliographic, chemical, 
# crystal, experimental, refinement or atomic coordinate data resulting 
# from the CCDC's data processing and validation procedures.
#
#######################################################################

data_QUMQAR
_symmetry_cell_setting           monoclinic
_symmetry_space_group_name_H-M   'C 2/c'
_symmetry_Int_Tables_number      15
_space_group_name_Hall           '-C 2yn'
loop_
_symmetry_equiv_pos_site_id
_symmetry_equiv_pos_as_xyz
1 x,y,z
2 -x,y,1/2-z
3 1/2+x,1/2+y,z
4 1/2-x,1/2+y,1/2-z
5 -x,-y,-z
6 x,-y,1/2+z
7 1/2-x,1/2-y,-z
8 1/2+x,1/2-y,1/2+z
_cell_length_a                   13.1606(6)
_cell_length_b                   12.3974(6)
_cell_length_c                   12.8717(6)
_cell_angle_alpha                90
_cell_angle_beta                 98.705(2)
_cell_angle_gamma                90
_cell_volume                     2075.92
loop_
_atom_site_label
_atom_site_type_symbol
_atom_site_fract_x
_atom_site_fract_y
_atom_site_fract_z
La1 La 0.275049(7) 0.464484(8) 0.223113(8)
O1 O 0.23722(12) 0.40617(11) 0.40438(10)
O2 O 0.20265(12) 0.15169(12) 0.34986(11)
O3 O 0.37517(13) 0.42769(16) 0.08328(14)
O4 O 0.59088(13) 0.55438(14) 0.15711(12)
O5 O 0.38280(14) 0.31127(15) 0.27785(16)
O6 O 0.37807(15) 0.05430(15) 0.24416(17)
O7 O 0.14838(15) 0.46161(15) 0.04476(14)
O8 O 0.15262(16) 0.30485(15) 0.18552(15)
C1 C 0.24462(15) 0.32044(16) 0.45601(14)
C2 C 0.22937(15) 0.20536(15) 0.43202(14)
C3 C 0.44388(17) 0.46745(17) 0.03838(16)
C4 C 0.54048(16) 0.52369(17) 0.07095(16)
C5 C 0.44626(15) 0.24250(16) 0.25874(16)
C6 C 0.44524(14) 0.12563(16) 0.25128(16)
C7 C 0.0872(3) 0.3672(3) 0.0164(2)
C8 C 0.0598(2) 0.3192(3) 0.1142(2)
H1 H 0.131(3) 0.308(3) -0.018(3)
H2 H 0.025(2) 0.385(3) -0.034(3)
H3 H 0.025(3) 0.246(3) 0.097(3)
H4 H 0.013(3) 0.382(3) 0.143(3)
H5 H 0.173(3) 0.481(3) -0.004(3)
H6 H 0.156(3) 0.254(3) 0.220(3)
La1F La 0.224951(7) 0.035516(8) 0.776887(8)
La1C La 0.224951(7) -0.035516(8) 0.276887(8)
La1A La 0.724951(7) 0.464484(8) 0.276887(8)
La1E La 0.275049(7) 0.535516(8) 0.723113(8)
La1D La 0.724951(7) 0.535516(8) -0.223113(8)
La1E_2 La 0.275049(7) 0.535516(8) -0.276887(8)
La1B La 0.775049(7) -0.035516(8) 0.223113(8)
O1F O 0.26278(12) 0.09383(11) 0.59562(10)
O2F O 0.29735(12) 0.34831(12) 0.65014(11)
O2C O 0.29735(12) 0.65169(12) 0.15014(11)
O2E O 0.20265(12) -0.15169(12) 0.84986(11)
O3D O 0.62483(13) 0.57231(16) -0.08328(14)
O3F O 0.12483(13) 0.07231(16) 0.91672(14)
O4D O 0.40912(13) 0.44562(14) -0.15711(12)
O4A O 0.40912(13) 0.55438(14) 0.34289(12)
O4G O 0.09088(13) -0.05438(14) 0.65711(12)
O5A O 0.61720(14) 0.31127(15) 0.22215(16)
O5F O 0.11720(14) 0.18873(15) 0.72215(16)
O6A O 0.62193(15) 0.05430(15) 0.25584(17)
O6C O 0.12193(15) 0.55430(15) 0.25584(17)
O6E O 0.37807(15) -0.05430(15) 0.74416(17)
O7F O 0.35162(15) 0.03839(15) 0.95524(14)
O8F O 0.34738(16) 0.19515(15) 0.81448(15)
C1F C 0.25538(15) 0.17956(16) 0.54399(14)
C2F C 0.27063(15) 0.29464(15) 0.56798(14)
C3D C 0.55612(17) 0.53255(17) -0.03838(16)
C4D C 0.45952(16) 0.47631(17) -0.07095(16)
C5A C 0.55374(15) 0.24250(16) 0.24126(16)
C6A C 0.55476(14) 0.12563(16) 0.24872(16)
C7F C 0.4128(3) 0.1328(3) 0.9836(2)
C8F C 0.4402(2) 0.1808(3) 0.8858(2)
H1F H 0.369(3) 0.192(3) 1.018(3)
H2F H 0.475(2) 0.115(3) 1.034(3)
H3F H 0.475(3) 0.254(3) 0.903(3)
H4F H 0.487(3) 0.118(3) 0.857(3)
H5F H 0.327(3) 0.019(3) 1.004(3)
H6F H 0.344(3) 0.246(3) 0.780(3)
loop_
_geom_bond_atom_site_label_1
_geom_bond_atom_site_label_2
_geom_bond_site_symmetry_1
_geom_bond_site_symmetry_2
La1 O1 1_555 1_555
O1 C1 1_555 1_555
O2 C2 1_555 1_555
O3 La1 1_555 1_555
O4 C4 1_555 1_555
O5 La1 1_555 1_555
O6 C6 1_555 1_555
O7 La1 1_555 1_555
O8 La1 1_555 1_555
C1 C2 1_555 1_555
C2 C1F 1_555 1_555
C3 O3 1_555 1_555
C4 C3 1_555 1_555
C5 O5 1_555 1_555
C6 C5 1_555 1_555
C7 O7 1_555 1_555
C8 O8 1_555 1_555
H1 C7 1_555 1_555
H2 C7 1_555 1_555
H3 C8 1_555 1_555
H4 C8 1_555 1_555
H5 O7 1_555 1_555
H6 O8 1_555 1_555
La1F O1F 1_555 1_555
La1C O2 1_555 1_555
La1A O4 1_555 1_555
La1E O2F 1_555 1_555
La1D O3D 1_555 1_555
La1E_2 O4D 1_555 1_555
La1B O6A 1_555 1_555
O1F C1F 1_555 1_555
O2F C2F 1_555 1_555
O2C La1 1_555 1_555
O2E La1F 1_555 1_555
O3D C3D 1_555 1_555
O3F La1F 1_555 1_555
O4D C4D 1_555 1_555
O4A La1 1_555 1_555
O4G La1F 1_555 1_555
O5A La1A 1_555 1_555
O5F La1F 1_555 1_555
O6A C6A 1_555 1_555
O6C La1 1_555 1_555
O6E La1F 1_555 1_555
O7F La1F 1_555 1_555
O8F La1F 1_555 1_555
C1F C2F 1_555 1_555
C2F C1 1_555 1_555
C3D C4 1_555 1_555
C4D C3 1_555 1_555
C5A C5 1_555 1_555
C6A C6 1_555 1_555
C7F O7F 1_555 1_555
C8F O8F 1_555 1_555
H1F C7F 1_555 1_555
H2F C7F 1_555 1_555
H3F C8F 1_555 1_555
H4F C8F 1_555 1_555
H5F O7F 1_555 1_555
H6F O8F 1_555 1_555
O6 La1C 1_555 1_555
C7 C8 1_555 1_555
O5A C5A 1_555 1_555
C3D C4D 1_555 1_555
C5A C6A 1_555 1_555
C7F C8F 1_555 1_555

#END
