
#######################################################################
#
#                 Cambridge Crystallographic Data Centre
#                                CCDC 
#
#######################################################################
#
# If this CIF has been generated from an entry in the Cambridge 
# Structural Database, then it will include bibliographic, chemical, 
# crystal, experimental, refinement or atomic coordinate data resulting 
# from the CCDC's data processing and validation procedures.
#
#######################################################################

data_QUMQOF
_symmetry_cell_setting           monoclinic
_symmetry_space_group_name_H-M   'C 2/c'
_symmetry_Int_Tables_number      15
_space_group_name_Hall           '-C 2yn'
loop_
_symmetry_equiv_pos_site_id
_symmetry_equiv_pos_as_xyz
1 x,y,z
2 -x,y,1/2-z
3 1/2+x,1/2+y,z
4 1/2-x,1/2+y,1/2-z
5 -x,-y,-z
6 x,-y,1/2+z
7 1/2-x,1/2-y,-z
8 1/2+x,1/2-y,1/2+z
_cell_length_a                   12.9884(5)
_cell_length_b                   12.2543(5)
_cell_length_c                   12.7418(5)
_cell_angle_alpha                90
_cell_angle_beta                 98.987(2)
_cell_angle_gamma                90
_cell_volume                     2003.14
loop_
_atom_site_label
_atom_site_type_symbol
_atom_site_fract_x
_atom_site_fract_y
_atom_site_fract_z
Nd1 Nd 0.274408(7) 0.463436(8) 0.222617(7)
O1 O 0.23816(12) 0.40797(12) 0.40302(11)
O2 O 0.20512(12) 0.14949(12) 0.34812(11)
O3 O 0.37391(13) 0.42837(15) 0.08542(13)
O4 O 0.59427(13) 0.55397(13) 0.15825(12)
O5 O 0.38133(13) 0.31240(14) 0.27872(14)
O6 O 0.37672(14) 0.05214(14) 0.24365(15)
O7 O 0.14920(15) 0.46316(14) 0.04585(14)
O8 O 0.15546(17) 0.30537(17) 0.18615(16)
C1 C 0.24501(15) 0.32086(17) 0.45508(15)
C2 C 0.23061(16) 0.20456(17) 0.43132(15)
C3 C 0.44321(17) 0.46812(17) 0.03945(17)
C4 C 0.54234(17) 0.52353(17) 0.07147(16)
C5 C 0.44569(15) 0.24317(17) 0.25886(16)
C6 C 0.44438(15) 0.12480(17) 0.25086(15)
C7 C 0.0873(2) 0.3683(3) 0.0163(2)
C8 C 0.0600(2) 0.3195(3) 0.1152(2)
H1 H 0.129(3) 0.313(3) -0.014(3)
H2 H 0.023(2) 0.387(2) -0.033(3)
H3 H 0.021(2) 0.248(3) 0.101(2)
H4 H 0.010(2) 0.372(3) 0.151(2)
H5 H 0.175(3) 0.482(3) 0.004(3)
H6 H 0.160(3) 0.255(3) 0.213(3)
Nd1F Nd 0.225592(7) 0.036564(8) 0.777383(7)
Nd1C Nd 0.225592(7) -0.036564(8) 0.277383(7)
Nd1A Nd 0.725592(7) 0.463436(8) 0.277383(7)
Nd1E Nd 0.274408(7) 0.536564(8) 0.722617(7)
Nd1D Nd 0.725592(7) 0.536564(8) -0.222617(7)
Nd1E_2 Nd 0.274408(7) 0.536564(8) -0.277383(7)
Nd1B Nd 0.774408(7) -0.036564(8) 0.222617(7)
O1F O 0.26184(12) 0.09203(12) 0.59698(11)
O2F O 0.29488(12) 0.35051(12) 0.65188(11)
O2C O 0.29488(12) 0.64949(12) 0.15188(11)
O2E O 0.20512(12) -0.14949(12) 0.84812(11)
O3D O 0.62609(13) 0.57163(15) -0.08542(13)
O3F O 0.12609(13) 0.07163(15) 0.91458(13)
O4D O 0.40573(13) 0.44603(13) -0.15825(12)
O4A O 0.40573(13) 0.55397(13) 0.34175(12)
O4G O 0.09427(13) -0.05397(13) 0.65825(12)
O5A O 0.61867(13) 0.31240(14) 0.22128(14)
O5F O 0.11867(13) 0.18760(14) 0.72128(14)
O6A O 0.62328(14) 0.05214(14) 0.25635(15)
O6C O 0.12328(14) 0.55214(14) 0.25635(15)
O6E O 0.37672(14) -0.05214(14) 0.74365(15)
O7F O 0.35080(15) 0.03684(14) 0.95415(14)
O8F O 0.34454(17) 0.19463(17) 0.81385(16)
C1F C 0.25499(15) 0.17914(17) 0.54492(15)
C2F C 0.26939(16) 0.29544(17) 0.56868(15)
C3D C 0.55679(17) 0.53188(17) -0.03945(17)
C4D C 0.45766(17) 0.47647(17) -0.07147(16)
C5A C 0.55431(15) 0.24317(17) 0.24114(16)
C6A C 0.55562(15) 0.12480(17) 0.24914(15)
C7F C 0.4127(2) 0.1317(3) 0.9837(2)
C8F C 0.4400(2) 0.1805(3) 0.8848(2)
H1F H 0.371(3) 0.187(3) 1.014(3)
H2F H 0.477(2) 0.113(2) 1.033(3)
H3F H 0.479(2) 0.252(3) 0.899(2)
H4F H 0.490(2) 0.128(3) 0.849(2)
H5F H 0.325(3) 0.018(3) 0.996(3)
H6F H 0.340(3) 0.245(3) 0.787(3)
loop_
_geom_bond_atom_site_label_1
_geom_bond_atom_site_label_2
_geom_bond_site_symmetry_1
_geom_bond_site_symmetry_2
Nd1 O1 1_555 1_555
O1 C1 1_555 1_555
O2 C2 1_555 1_555
O3 Nd1 1_555 1_555
O4 C4 1_555 1_555
O5 Nd1 1_555 1_555
O6 C6 1_555 1_555
O7 Nd1 1_555 1_555
O8 Nd1 1_555 1_555
C1 C2 1_555 1_555
C2 C1F 1_555 1_555
C3 O3 1_555 1_555
C4 C3 1_555 1_555
C5 O5 1_555 1_555
C6 C5 1_555 1_555
C7 O7 1_555 1_555
C8 O8 1_555 1_555
H1 C7 1_555 1_555
H2 C7 1_555 1_555
H3 C8 1_555 1_555
H4 C8 1_555 1_555
H5 O7 1_555 1_555
H6 O8 1_555 1_555
Nd1F O1F 1_555 1_555
Nd1C O2 1_555 1_555
Nd1A O4 1_555 1_555
Nd1E O2F 1_555 1_555
Nd1D O3D 1_555 1_555
Nd1E_2 O4D 1_555 1_555
Nd1B O6A 1_555 1_555
O1F C1F 1_555 1_555
O2F C2F 1_555 1_555
O2C Nd1 1_555 1_555
O2E Nd1F 1_555 1_555
O3D C3D 1_555 1_555
O3F Nd1F 1_555 1_555
O4D C4D 1_555 1_555
O4A Nd1 1_555 1_555
O4G Nd1F 1_555 1_555
O5A Nd1A 1_555 1_555
O5F Nd1F 1_555 1_555
O6A C6A 1_555 1_555
O6C Nd1 1_555 1_555
O6E Nd1F 1_555 1_555
O7F Nd1F 1_555 1_555
O8F Nd1F 1_555 1_555
C1F C2F 1_555 1_555
C2F C1 1_555 1_555
C3D C4 1_555 1_555
C4D C3 1_555 1_555
C5A C5 1_555 1_555
C6A C6 1_555 1_555
C7F O7F 1_555 1_555
C8F O8F 1_555 1_555
H1F C7F 1_555 1_555
H2F C7F 1_555 1_555
H3F C8F 1_555 1_555
H4F C8F 1_555 1_555
H5F O7F 1_555 1_555
H6F O8F 1_555 1_555
O6 Nd1C 1_555 1_555
C7 C8 1_555 1_555
O5A C5A 1_555 1_555
C3D C4D 1_555 1_555
C5A C6A 1_555 1_555
C7F C8F 1_555 1_555

#END
