
#######################################################################
#
#                 Cambridge Crystallographic Data Centre
#                                CCDC 
#
#######################################################################
#
# If this CIF has been generated from an entry in the Cambridge 
# Structural Database, then it will include bibliographic, chemical, 
# crystal, experimental, refinement or atomic coordinate data resulting 
# from the CCDC's data processing and validation procedures.
#
#######################################################################

data_QUMQIZ
_symmetry_cell_setting           monoclinic
_symmetry_space_group_name_H-M   'C 2/c'
_symmetry_Int_Tables_number      15
_space_group_name_Hall           '-C 2yn'
loop_
_symmetry_equiv_pos_site_id
_symmetry_equiv_pos_as_xyz
1 x,y,z
2 -x,y,1/2-z
3 1/2+x,1/2+y,z
4 1/2-x,1/2+y,1/2-z
5 -x,-y,-z
6 x,-y,1/2+z
7 1/2-x,1/2-y,-z
8 1/2+x,1/2-y,1/2+z
_cell_length_a                   13.0212(7)
_cell_length_b                   12.2987(7)
_cell_length_c                   12.7671(8)
_cell_angle_alpha                90
_cell_angle_beta                 98.839(2)
_cell_angle_gamma                90
_cell_volume                     2020.29
loop_
_atom_site_label
_atom_site_type_symbol
_atom_site_fract_x
_atom_site_fract_y
_atom_site_fract_z
Pr1 Pr 0.274400(8) 0.463672(8) 0.222702(8)
O1 O 0.23759(13) 0.40734(11) 0.40330(11)
O2 O 0.20444(13) 0.15030(12) 0.34874(11)
O3 O 0.37447(14) 0.42804(15) 0.08509(14)
O4 O 0.59358(14) 0.55409(14) 0.15756(13)
O5 O 0.38186(14) 0.31218(14) 0.27870(16)
O6 O 0.37713(15) 0.05286(14) 0.24392(17)
O7 O 0.14859(16) 0.46295(14) 0.04554(15)
O8 O 0.15452(18) 0.30500(15) 0.18591(16)
C1 C 0.24467(16) 0.32069(15) 0.45543(15)
C2 C 0.23030(16) 0.20473(15) 0.43146(15)
C3 C 0.44342(18) 0.46783(16) 0.03921(18)
C4 C 0.54201(17) 0.52362(17) 0.07139(17)
C5 C 0.44582(15) 0.24315(16) 0.25901(16)
C6 C 0.44496(15) 0.12501(15) 0.25091(16)
C7 C 0.0875(3) 0.3676(3) 0.0161(2)
C8 C 0.0601(2) 0.3190(2) 0.1146(2)
H1 H 0.128(3) 0.309(4) -0.016(3)
H2 H 0.021(3) 0.387(3) -0.033(3)
H3 H 0.023(3) 0.247(3) 0.099(3)
H4 H 0.008(3) 0.377(3) 0.147(3)
H5 H 0.171(3) 0.481(3) 0.000(3)
H6 H 0.166(3) 0.252(4) 0.209(4)
Pr1F Pr 0.225600(8) 0.036328(8) 0.777298(8)
Pr1C Pr 0.225600(8) -0.036328(8) 0.277298(8)
Pr1A Pr 0.725600(8) 0.463672(8) 0.277298(8)
Pr1E Pr 0.274400(8) 0.536328(8) 0.722702(8)
Pr1D Pr 0.725600(8) 0.536328(8) -0.222702(8)
Pr1E_2 Pr 0.274400(8) 0.536328(8) -0.277298(8)
Pr1B Pr 0.774400(8) -0.036328(8) 0.222702(8)
O1F O 0.26241(13) 0.09266(11) 0.59670(11)
O2F O 0.29556(13) 0.34970(12) 0.65126(11)
O2C O 0.29556(13) 0.65030(12) 0.15126(11)
O2E O 0.20444(13) -0.15030(12) 0.84874(11)
O3D O 0.62553(14) 0.57196(15) -0.08509(14)
O3F O 0.12553(14) 0.07196(15) 0.91491(14)
O4D O 0.40642(14) 0.44591(14) -0.15756(13)
O4A O 0.40642(14) 0.55409(14) 0.34244(13)
O4G O 0.09358(14) -0.05409(14) 0.65756(13)
O5A O 0.61814(14) 0.31218(14) 0.22130(16)
O5F O 0.11814(14) 0.18782(14) 0.72130(16)
O6A O 0.62287(15) 0.05286(14) 0.25608(17)
O6C O 0.12287(15) 0.55286(14) 0.25608(17)
O6E O 0.37713(15) -0.05286(14) 0.74392(17)
O7F O 0.35141(16) 0.03705(14) 0.95446(15)
O8F O 0.34548(18) 0.19500(15) 0.81409(16)
C1F C 0.25533(16) 0.17931(15) 0.54457(15)
C2F C 0.26970(16) 0.29527(15) 0.56854(15)
C3D C 0.55658(18) 0.53217(16) -0.03921(18)
C4D C 0.45799(17) 0.47638(17) -0.07139(17)
C5A C 0.55418(15) 0.24315(16) 0.24099(16)
C6A C 0.55504(15) 0.12501(15) 0.24909(16)
C7F C 0.4125(3) 0.1324(3) 0.9839(2)
C8F C 0.4399(2) 0.1810(2) 0.8854(2)
H1F H 0.372(3) 0.191(4) 1.016(3)
H2F H 0.479(3) 0.113(3) 1.033(3)
H3F H 0.477(3) 0.253(3) 0.901(3)
H4F H 0.492(3) 0.123(3) 0.853(3)
H5F H 0.329(3) 0.019(3) 1.000(3)
H6F H 0.334(3) 0.248(4) 0.791(4)
loop_
_geom_bond_atom_site_label_1
_geom_bond_atom_site_label_2
_geom_bond_site_symmetry_1
_geom_bond_site_symmetry_2
Pr1 O1 1_555 1_555
O1 C1 1_555 1_555
O2 C2 1_555 1_555
O3 Pr1 1_555 1_555
O4 C4 1_555 1_555
O5 Pr1 1_555 1_555
O6 C6 1_555 1_555
O7 Pr1 1_555 1_555
O8 Pr1 1_555 1_555
C1 C2 1_555 1_555
C2 C1F 1_555 1_555
C3 O3 1_555 1_555
C4 C3 1_555 1_555
C5 O5 1_555 1_555
C6 C5 1_555 1_555
C7 O7 1_555 1_555
C8 O8 1_555 1_555
H1 C7 1_555 1_555
H2 C7 1_555 1_555
H3 C8 1_555 1_555
H4 C8 1_555 1_555
H5 O7 1_555 1_555
H6 O8 1_555 1_555
Pr1F O1F 1_555 1_555
Pr1C O2 1_555 1_555
Pr1A O4 1_555 1_555
Pr1E O2F 1_555 1_555
Pr1D O3D 1_555 1_555
Pr1E_2 O4D 1_555 1_555
Pr1B O6A 1_555 1_555
O1F C1F 1_555 1_555
O2F C2F 1_555 1_555
O2C Pr1 1_555 1_555
O2E Pr1F 1_555 1_555
O3D C3D 1_555 1_555
O3F Pr1F 1_555 1_555
O4D C4D 1_555 1_555
O4A Pr1 1_555 1_555
O4G Pr1F 1_555 1_555
O5A Pr1A 1_555 1_555
O5F Pr1F 1_555 1_555
O6A C6A 1_555 1_555
O6C Pr1 1_555 1_555
O6E Pr1F 1_555 1_555
O7F Pr1F 1_555 1_555
O8F Pr1F 1_555 1_555
C1F C2F 1_555 1_555
C2F C1 1_555 1_555
C3D C4 1_555 1_555
C4D C3 1_555 1_555
C5A C5 1_555 1_555
C6A C6 1_555 1_555
C7F O7F 1_555 1_555
C8F O8F 1_555 1_555
H1F C7F 1_555 1_555
H2F C7F 1_555 1_555
H3F C8F 1_555 1_555
H4F C8F 1_555 1_555
H5F O7F 1_555 1_555
H6F O8F 1_555 1_555
O6 Pr1C 1_555 1_555
C7 C8 1_555 1_555
O5A C5A 1_555 1_555
C3D C4D 1_555 1_555
C5A C6A 1_555 1_555
C7F C8F 1_555 1_555

#END
