
#######################################################################
#
#                 Cambridge Crystallographic Data Centre
#                                CCDC 
#
#######################################################################
#
# If this CIF has been generated from an entry in the Cambridge 
# Structural Database, then it will include bibliographic, chemical, 
# crystal, experimental, refinement or atomic coordinate data resulting 
# from the CCDC's data processing and validation procedures.
#
#######################################################################

data_QUMRIA
_symmetry_cell_setting           monoclinic
_symmetry_space_group_name_H-M   'C 2/c'
_symmetry_Int_Tables_number      15
_space_group_name_Hall           '-C 2yn'
loop_
_symmetry_equiv_pos_site_id
_symmetry_equiv_pos_as_xyz
1 x,y,z
2 -x,y,1/2-z
3 1/2+x,1/2+y,z
4 1/2-x,1/2+y,1/2-z
5 -x,-y,-z
6 x,-y,1/2+z
7 1/2-x,1/2-y,-z
8 1/2+x,1/2-y,1/2+z
_cell_length_a                   12.8165(5)
_cell_length_b                   12.1362(5)
_cell_length_c                   12.5928(5)
_cell_angle_alpha                90
_cell_angle_beta                 99.083(2)
_cell_angle_gamma                90
_cell_volume                     1934.17
loop_
_atom_site_label
_atom_site_type_symbol
_atom_site_fract_x
_atom_site_fract_y
_atom_site_fract_z
Tb1 Tb 0.273099(7) 0.463245(7) 0.222515(7)
O1 O 0.23891(13) 0.40929(12) 0.40139(11)
O2 O 0.20807(13) 0.14769(12) 0.34644(11)
O3 O 0.37103(13) 0.43086(15) 0.08696(13)
O4 O 0.59742(13) 0.55217(13) 0.16015(12)
O5 O 0.37917(14) 0.31446(14) 0.27751(14)
O6 O 0.37550(14) 0.05057(14) 0.24238(15)
O7 O 0.14921(15) 0.46556(14) 0.04799(14)
O8 O 0.15763(16) 0.30735(16) 0.18891(15)
C1 C 0.24506(16) 0.32144(17) 0.45419(15)
C2 C 0.23193(17) 0.20361(17) 0.43034(16)
C3 C 0.44202(18) 0.46927(17) 0.04007(17)
C4 C 0.54381(17) 0.52281(17) 0.07262(17)
C5 C 0.44451(16) 0.24449(17) 0.25838(16)
C6 C 0.44364(16) 0.12440(17) 0.25060(16)
C7 C 0.0867(2) 0.3692(2) 0.0172(2)
C8 C 0.0600(2) 0.3191(2) 0.1171(2)
H1 H 0.132(3) 0.314(3) -0.015(3)
H2 H 0.020(2) 0.385(3) -0.030(3)
H3 H 0.014(2) 0.373(3) 0.151(2)
H4 H 0.023(2) 0.250(3) 0.098(3)
H5 H 0.180(3) 0.481(3) 0.000(3)
H6 H 0.161(3) 0.256(3) 0.219(3)
Tb1F Tb 0.226901(7) 0.036755(7) 0.777485(7)
Tb1C Tb 0.226901(7) -0.036755(7) 0.277485(7)
Tb1A Tb 0.726901(7) 0.463245(7) 0.277485(7)
Tb1E Tb 0.273099(7) 0.536755(7) 0.722515(7)
Tb1D Tb 0.726901(7) 0.536755(7) -0.222515(7)
Tb1E_2 Tb 0.273099(7) 0.536755(7) -0.277485(7)
Tb1B Tb 0.773099(7) -0.036755(7) 0.222515(7)
O1F O 0.26109(13) 0.09071(12) 0.59861(11)
O2F O 0.29193(13) 0.35231(12) 0.65356(11)
O2C O 0.29193(13) 0.64769(12) 0.15356(11)
O2E O 0.20807(13) -0.14769(12) 0.84644(11)
O3D O 0.62897(13) 0.56914(15) -0.08696(13)
O3F O 0.12897(13) 0.06914(15) 0.91304(13)
O4D O 0.40258(13) 0.44783(13) -0.16015(12)
O4A O 0.40258(13) 0.55217(13) 0.33985(12)
O4G O 0.09742(13) -0.05217(13) 0.66015(12)
O5A O 0.62083(14) 0.31446(14) 0.22249(14)
O5F O 0.12083(14) 0.18554(14) 0.72249(14)
O6A O 0.62450(14) 0.05057(14) 0.25762(15)
O6C O 0.12450(14) 0.55057(14) 0.25762(15)
O6E O 0.37550(14) -0.05057(14) 0.74238(15)
O7F O 0.35079(15) 0.03444(14) 0.95201(14)
O8F O 0.34237(16) 0.19265(16) 0.81109(15)
C1F C 0.25494(16) 0.17856(17) 0.54581(15)
C2F C 0.26807(17) 0.29639(17) 0.56966(16)
C3D C 0.55798(18) 0.53073(17) -0.04007(17)
C4D C 0.45619(17) 0.47719(17) -0.07262(17)
C5A C 0.55549(16) 0.24449(17) 0.24162(16)
C6A C 0.55636(16) 0.12440(17) 0.24940(16)
C7F C 0.4133(2) 0.1308(2) 0.9828(2)
C8F C 0.4400(2) 0.1809(2) 0.8829(2)
H1F H 0.368(3) 0.186(3) 1.015(3)
H2F H 0.480(2) 0.115(3) 1.030(3)
H3F H 0.486(2) 0.127(3) 0.849(2)
H4F H 0.477(2) 0.250(3) 0.902(3)
H5F H 0.320(3) 0.019(3) 1.000(3)
H6F H 0.339(3) 0.244(3) 0.781(3)
loop_
_geom_bond_atom_site_label_1
_geom_bond_atom_site_label_2
_geom_bond_site_symmetry_1
_geom_bond_site_symmetry_2
Tb1 O1 1_555 1_555
O1 C1 1_555 1_555
O2 C2 1_555 1_555
O3 Tb1 1_555 1_555
O4 C4 1_555 1_555
O5 Tb1 1_555 1_555
O6 C6 1_555 1_555
O7 Tb1 1_555 1_555
O8 Tb1 1_555 1_555
C1 C2 1_555 1_555
C2 C1F 1_555 1_555
C3 O3 1_555 1_555
C4 C3 1_555 1_555
C5 O5 1_555 1_555
C6 C5 1_555 1_555
C7 O7 1_555 1_555
C8 O8 1_555 1_555
H1 C7 1_555 1_555
H2 C7 1_555 1_555
H3 C8 1_555 1_555
H4 C8 1_555 1_555
H5 O7 1_555 1_555
H6 O8 1_555 1_555
Tb1F O1F 1_555 1_555
Tb1C O2 1_555 1_555
Tb1A O4 1_555 1_555
Tb1E O2F 1_555 1_555
Tb1D O3D 1_555 1_555
Tb1E_2 O4D 1_555 1_555
Tb1B O6A 1_555 1_555
O1F C1F 1_555 1_555
O2F C2F 1_555 1_555
O2C Tb1 1_555 1_555
O2E Tb1F 1_555 1_555
O3D C3D 1_555 1_555
O3F Tb1F 1_555 1_555
O4D C4D 1_555 1_555
O4A Tb1 1_555 1_555
O4G Tb1F 1_555 1_555
O5A Tb1A 1_555 1_555
O5F Tb1F 1_555 1_555
O6A C6A 1_555 1_555
O6C Tb1 1_555 1_555
O6E Tb1F 1_555 1_555
O7F Tb1F 1_555 1_555
O8F Tb1F 1_555 1_555
C1F C2F 1_555 1_555
C2F C1 1_555 1_555
C3D C4 1_555 1_555
C4D C3 1_555 1_555
C5A C5 1_555 1_555
C6A C6 1_555 1_555
C7F O7F 1_555 1_555
C8F O8F 1_555 1_555
H1F C7F 1_555 1_555
H2F C7F 1_555 1_555
H3F C8F 1_555 1_555
H4F C8F 1_555 1_555
H5F O7F 1_555 1_555
H6F O8F 1_555 1_555
O6 Tb1C 1_555 1_555
C7 C8 1_555 1_555
O5A C5A 1_555 1_555
C3D C4D 1_555 1_555
C5A C6A 1_555 1_555
C7F C8F 1_555 1_555

#END
