
#######################################################################
#
#                 Cambridge Crystallographic Data Centre
#                                CCDC 
#
#######################################################################
#
# If this CIF has been generated from an entry in the Cambridge 
# Structural Database, then it will include bibliographic, chemical, 
# crystal, experimental, refinement or atomic coordinate data resulting 
# from the CCDC's data processing and validation procedures.
#
#######################################################################

data_QUMRUM
_symmetry_cell_setting           monoclinic
_symmetry_space_group_name_H-M   'C 2/c'
_symmetry_Int_Tables_number      15
_space_group_name_Hall           '-C 2yn'
loop_
_symmetry_equiv_pos_site_id
_symmetry_equiv_pos_as_xyz
1 x,y,z
2 -x,y,1/2-z
3 1/2+x,1/2+y,z
4 1/2-x,1/2+y,1/2-z
5 -x,-y,-z
6 x,-y,1/2+z
7 1/2-x,1/2-y,-z
8 1/2+x,1/2-y,1/2+z
_cell_length_a                   12.7571(5)
_cell_length_b                   12.0918(5)
_cell_length_c                   12.5485(5)
_cell_angle_alpha                90
_cell_angle_beta                 99.151(2)
_cell_angle_gamma                90
_cell_volume                     1911.05
loop_
_atom_site_label
_atom_site_type_symbol
_atom_site_fract_x
_atom_site_fract_y
_atom_site_fract_z
Ho1 Ho 0.272780(8) 0.463172(9) 0.222446(8)
O1 O 0.23953(16) 0.40996(15) 0.40090(14)
O2 O 0.20915(16) 0.14688(15) 0.34579(14)
O3 O 0.37006(16) 0.43182(19) 0.08730(16)
O4 O 0.59882(16) 0.55203(17) 0.16074(15)
O5 O 0.37847(17) 0.31502(18) 0.27713(18)
O6 O 0.37476(18) 0.04992(17) 0.24225(19)
O7 O 0.14947(18) 0.46622(17) 0.04845(18)
O8 O 0.1586(2) 0.30796(19) 0.18966(19)
C1 C 0.2453(2) 0.3216(2) 0.45383(19)
C2 C 0.2325(2) 0.2031(2) 0.4302(2)
C3 C 0.4415(2) 0.4693(2) 0.0402(2)
C4 C 0.5443(2) 0.5224(2) 0.0729(2)
C5 C 0.4439(2) 0.2447(2) 0.2583(2)
C6 C 0.44319(19) 0.1245(2) 0.2506(2)
C7 C 0.0867(3) 0.3691(3) 0.0170(3)
C8 C 0.0602(3) 0.3194(3) 0.1177(3)
H1 H 0.131(4) 0.308(5) -0.017(4)
H2 H 0.019(3) 0.387(3) -0.029(3)
H3 H 0.019(3) 0.246(3) 0.098(3)
H4 H 0.009(3) 0.375(3) 0.150(3)
H5 H 0.164(3) 0.252(3) 0.222(3)
H6 H 0.184(4) 0.483(3) 0.001(4)
Ho1F Ho 0.227220(8) 0.036828(9) 0.777554(8)
Ho1C Ho 0.227220(8) -0.036828(9) 0.277554(8)
Ho1A Ho 0.727220(8) 0.463172(9) 0.277554(8)
Ho1E Ho 0.272780(8) 0.536828(9) 0.722446(8)
Ho1D Ho 0.727220(8) 0.536828(9) -0.222446(8)
Ho1E_2 Ho 0.272780(8) 0.536828(9) -0.277554(8)
Ho1B Ho 0.772780(8) -0.036828(9) 0.222446(8)
O1F O 0.26047(16) 0.09004(15) 0.59910(14)
O2F O 0.29085(16) 0.35312(15) 0.65421(14)
O2C O 0.29085(16) 0.64688(15) 0.15421(14)
O2E O 0.20915(16) -0.14688(15) 0.84579(14)
O3D O 0.62994(16) 0.56818(19) -0.08730(16)
O3F O 0.12994(16) 0.06818(19) 0.91270(16)
O4D O 0.40118(16) 0.44797(17) -0.16074(15)
O4A O 0.40118(16) 0.55203(17) 0.33926(15)
O4G O 0.09882(16) -0.05203(17) 0.66074(15)
O5A O 0.62153(17) 0.31502(18) 0.22287(18)
O5F O 0.12153(17) 0.18498(18) 0.72287(18)
O6A O 0.62524(18) 0.04992(17) 0.25775(19)
O6C O 0.12524(18) 0.54992(17) 0.25775(19)
O6E O 0.37476(18) -0.04992(17) 0.74225(19)
O7F O 0.35053(18) 0.03378(17) 0.95155(18)
O8F O 0.3414(2) 0.19204(19) 0.81034(19)
C1F C 0.2547(2) 0.1784(2) 0.54617(19)
C2F C 0.2675(2) 0.2969(2) 0.5698(2)
C3D C 0.5585(2) 0.5307(2) -0.0402(2)
C4D C 0.4557(2) 0.4776(2) -0.0729(2)
C5A C 0.5561(2) 0.2447(2) 0.2417(2)
C6A C 0.55681(19) 0.1245(2) 0.2494(2)
C7F C 0.4133(3) 0.1309(3) 0.9830(3)
C8F C 0.4398(3) 0.1806(3) 0.8823(3)
H1F H 0.369(4) 0.192(5) 1.017(4)
H2F H 0.481(3) 0.113(3) 1.029(3)
H3F H 0.481(3) 0.254(3) 0.902(3)
H4F H 0.491(3) 0.125(3) 0.850(3)
H5F H 0.336(3) 0.248(3) 0.778(3)
H6F H 0.316(4) 0.017(3) 0.999(4)
loop_
_geom_bond_atom_site_label_1
_geom_bond_atom_site_label_2
_geom_bond_site_symmetry_1
_geom_bond_site_symmetry_2
Ho1 O1 1_555 1_555
O1 C1 1_555 1_555
O2 C2 1_555 1_555
O3 Ho1 1_555 1_555
O4 C4 1_555 1_555
O5 Ho1 1_555 1_555
O6 C6 1_555 1_555
O7 Ho1 1_555 1_555
O8 Ho1 1_555 1_555
C1 C2 1_555 1_555
C2 C1F 1_555 1_555
C3 O3 1_555 1_555
C4 C3 1_555 1_555
C5 O5 1_555 1_555
C6 C5 1_555 1_555
C7 O7 1_555 1_555
C8 O8 1_555 1_555
H1 C7 1_555 1_555
H2 C7 1_555 1_555
H3 C8 1_555 1_555
H4 C8 1_555 1_555
H5 O8 1_555 1_555
H6 O7 1_555 1_555
Ho1F O1F 1_555 1_555
Ho1C O2 1_555 1_555
Ho1A O4 1_555 1_555
Ho1E O2F 1_555 1_555
Ho1D O3D 1_555 1_555
Ho1E_2 O4D 1_555 1_555
Ho1B O6A 1_555 1_555
O1F C1F 1_555 1_555
O2F C2F 1_555 1_555
O2C Ho1 1_555 1_555
O2E Ho1F 1_555 1_555
O3D C3D 1_555 1_555
O3F Ho1F 1_555 1_555
O4D C4D 1_555 1_555
O4A Ho1 1_555 1_555
O4G Ho1F 1_555 1_555
O5A Ho1A 1_555 1_555
O5F Ho1F 1_555 1_555
O6A C6A 1_555 1_555
O6C Ho1 1_555 1_555
O6E Ho1F 1_555 1_555
O7F Ho1F 1_555 1_555
O8F Ho1F 1_555 1_555
C1F C2F 1_555 1_555
C2F C1 1_555 1_555
C3D C4 1_555 1_555
C4D C3 1_555 1_555
C5A C5 1_555 1_555
C6A C6 1_555 1_555
C7F O7F 1_555 1_555
C8F O8F 1_555 1_555
H1F C7F 1_555 1_555
H2F C7F 1_555 1_555
H3F C8F 1_555 1_555
H4F C8F 1_555 1_555
H5F O8F 1_555 1_555
H6F O7F 1_555 1_555
O6 Ho1C 1_555 1_555
C7 C8 1_555 1_555
O5A C5A 1_555 1_555
C3D C4D 1_555 1_555
C5A C6A 1_555 1_555
C7F C8F 1_555 1_555

#END
