
#######################################################################
#
#                 Cambridge Crystallographic Data Centre
#                                CCDC 
#
#######################################################################
#
# If this CIF has been generated from an entry in the Cambridge 
# Structural Database, then it will include bibliographic, chemical, 
# crystal, experimental, refinement or atomic coordinate data resulting 
# from the CCDC's data processing and validation procedures.
#
#######################################################################

data_QUMRAS
_symmetry_cell_setting           monoclinic
_symmetry_space_group_name_H-M   'C 2/c'
_symmetry_Int_Tables_number      15
_space_group_name_Hall           '-C 2yn'
loop_
_symmetry_equiv_pos_site_id
_symmetry_equiv_pos_as_xyz
1 x,y,z
2 -x,y,1/2-z
3 1/2+x,1/2+y,z
4 1/2-x,1/2+y,1/2-z
5 -x,-y,-z
6 x,-y,1/2+z
7 1/2-x,1/2-y,-z
8 1/2+x,1/2-y,1/2+z
_cell_length_a                   12.8772(5)
_cell_length_b                   12.1834(5)
_cell_length_c                   12.6535(5)
_cell_angle_alpha                90
_cell_angle_beta                 99.039(2)
_cell_angle_gamma                90
_cell_volume                     1960.53
loop_
_atom_site_label
_atom_site_type_symbol
_atom_site_fract_x
_atom_site_fract_y
_atom_site_fract_z
Eu1 Eu 0.273634(10) 0.463323(11) 0.222524(11)
O1 O 0.23862(17) 0.40886(17) 0.40215(16)
O2 O 0.20675(17) 0.14824(17) 0.34714(16)
O3 O 0.37233(18) 0.4296(2) 0.08689(19)
O4 O 0.59634(19) 0.55344(19) 0.15930(18)
O5 O 0.37980(18) 0.3140(2) 0.2779(2)
O6 O 0.3756(2) 0.05118(19) 0.2431(2)
O7 O 0.1492(2) 0.46465(19) 0.0471(2)
O8 O 0.1567(2) 0.3065(2) 0.1878(2)
C1 C 0.2453(2) 0.3211(2) 0.4546(2)
C2 C 0.2316(2) 0.2041(2) 0.4310(2)
C3 C 0.4430(3) 0.4689(2) 0.0397(3)
C4 C 0.5435(2) 0.5227(2) 0.0719(3)
C5 C 0.4446(2) 0.2438(2) 0.2587(2)
C6 C 0.4440(2) 0.1246(2) 0.2509(2)
C7 C 0.0871(3) 0.3690(3) 0.0170(3)
C8 C 0.0603(3) 0.3194(4) 0.1161(3)
H1 H 0.136(5) 0.312(5) -0.013(5)
H2 H 0.017(3) 0.389(3) -0.034(3)
H3 H 0.024(3) 0.252(3) 0.103(3)
H4 H 0.013(3) 0.375(3) 0.145(3)
H5 H 0.181(4) 0.479(4) 0.002(4)
H6 H 0.164(4) 0.248(4) 0.219(4)
Eu1F Eu 0.226366(10) 0.036677(11) 0.777476(11)
Eu1C Eu 0.226366(10) -0.036677(11) 0.277476(11)
Eu1A Eu 0.726366(10) 0.463323(11) 0.277476(11)
Eu1E Eu 0.273634(10) 0.536677(11) 0.722524(11)
Eu1D Eu 0.726366(10) 0.536677(11) -0.222524(11)
Eu1E_2 Eu 0.273634(10) 0.536677(11) -0.277476(11)
Eu1B Eu 0.773634(10) -0.036677(11) 0.222524(11)
O1F O 0.26138(17) 0.09114(17) 0.59785(16)
O2F O 0.29325(17) 0.35176(17) 0.65286(16)
O2C O 0.29325(17) 0.64824(17) 0.15286(16)
O2E O 0.20675(17) -0.14824(17) 0.84714(16)
O3D O 0.62767(18) 0.5704(2) -0.08689(19)
O3F O 0.12767(18) 0.0704(2) 0.91311(19)
O4D O 0.40366(19) 0.44656(19) -0.15930(18)
O4A O 0.40366(19) 0.55344(19) 0.34070(18)
O4G O 0.09634(19) -0.05344(19) 0.65930(18)
O5A O 0.62020(18) 0.3140(2) 0.2221(2)
O5F O 0.12020(18) 0.1860(2) 0.7221(2)
O6A O 0.6244(2) 0.05118(19) 0.2569(2)
O6C O 0.1244(2) 0.55118(19) 0.2569(2)
O6E O 0.3756(2) -0.05118(19) 0.7431(2)
O7F O 0.3508(2) 0.03535(19) 0.9529(2)
O8F O 0.3433(2) 0.1935(2) 0.8122(2)
C1F C 0.2547(2) 0.1789(2) 0.5454(2)
C2F C 0.2684(2) 0.2959(2) 0.5690(2)
C3D C 0.5570(3) 0.5311(2) -0.0397(3)
C4D C 0.4565(2) 0.4773(2) -0.0719(3)
C5A C 0.5554(2) 0.2438(2) 0.2413(2)
C6A C 0.5560(2) 0.1246(2) 0.2491(2)
C7F C 0.4129(3) 0.1310(3) 0.9830(3)
C8F C 0.4397(3) 0.1806(4) 0.8839(3)
H1F H 0.364(5) 0.188(5) 1.013(5)
H2F H 0.483(3) 0.111(3) 1.034(3)
H3F H 0.476(3) 0.248(3) 0.897(3)
H4F H 0.487(3) 0.125(3) 0.855(3)
H5F H 0.319(4) 0.021(4) 0.998(4)
H6F H 0.336(4) 0.252(4) 0.781(4)
loop_
_geom_bond_atom_site_label_1
_geom_bond_atom_site_label_2
_geom_bond_site_symmetry_1
_geom_bond_site_symmetry_2
Eu1 O1 1_555 1_555
O1 C1 1_555 1_555
O2 C2 1_555 1_555
O3 Eu1 1_555 1_555
O4 C4 1_555 1_555
O5 Eu1 1_555 1_555
O6 C6 1_555 1_555
O7 Eu1 1_555 1_555
O8 Eu1 1_555 1_555
C1 C2 1_555 1_555
C2 C1F 1_555 1_555
C3 O3 1_555 1_555
C4 C3 1_555 1_555
C5 O5 1_555 1_555
C6 C5 1_555 1_555
C7 O7 1_555 1_555
C8 O8 1_555 1_555
H1 C7 1_555 1_555
H2 C7 1_555 1_555
H3 C8 1_555 1_555
H4 C8 1_555 1_555
H5 O7 1_555 1_555
H6 O8 1_555 1_555
Eu1F O1F 1_555 1_555
Eu1C O2 1_555 1_555
Eu1A O4 1_555 1_555
Eu1E O2F 1_555 1_555
Eu1D O3D 1_555 1_555
Eu1E_2 O4D 1_555 1_555
Eu1B O6A 1_555 1_555
O1F C1F 1_555 1_555
O2F C2F 1_555 1_555
O2C Eu1 1_555 1_555
O2E Eu1F 1_555 1_555
O3D C3D 1_555 1_555
O3F Eu1F 1_555 1_555
O4D C4D 1_555 1_555
O4A Eu1 1_555 1_555
O4G Eu1F 1_555 1_555
O5A Eu1A 1_555 1_555
O5F Eu1F 1_555 1_555
O6A C6A 1_555 1_555
O6C Eu1 1_555 1_555
O6E Eu1F 1_555 1_555
O7F Eu1F 1_555 1_555
O8F Eu1F 1_555 1_555
C1F C2F 1_555 1_555
C2F C1 1_555 1_555
C3D C4 1_555 1_555
C4D C3 1_555 1_555
C5A C5 1_555 1_555
C6A C6 1_555 1_555
C7F O7F 1_555 1_555
C8F O8F 1_555 1_555
H1F C7F 1_555 1_555
H2F C7F 1_555 1_555
H3F C8F 1_555 1_555
H4F C8F 1_555 1_555
H5F O7F 1_555 1_555
H6F O8F 1_555 1_555
O6 Eu1C 1_555 1_555
C7 C8 1_555 1_555
O5A C5A 1_555 1_555
C3D C4D 1_555 1_555
C5A C6A 1_555 1_555
C7F C8F 1_555 1_555

#END
