
#######################################################################
#
#                 Cambridge Crystallographic Data Centre
#                                CCDC 
#
#######################################################################
#
# If this CIF has been generated from an entry in the Cambridge 
# Structural Database, then it will include bibliographic, chemical, 
# crystal, experimental, refinement or atomic coordinate data resulting 
# from the CCDC's data processing and validation procedures.
#
#######################################################################

data_QUMRAT
_symmetry_cell_setting           rhombohedral
_symmetry_space_group_name_H-M   'R -3'
_symmetry_Int_Tables_number      148
_space_group_name_Hall           '-R 3'
loop_
_symmetry_equiv_pos_site_id
_symmetry_equiv_pos_as_xyz
1 x,y,z
2 -y,x-y,z
3 -x+y,-x,z
4 2/3+x,1/3+y,1/3+z
5 2/3-y,1/3+x-y,1/3+z
6 2/3-x+y,1/3-x,1/3+z
7 1/3+x,2/3+y,2/3+z
8 1/3-y,2/3+x-y,2/3+z
9 1/3-x+y,2/3-x,2/3+z
10 -x,-y,-z
11 y,-x+y,-z
12 x-y,x,-z
13 1/3-x,2/3-y,2/3-z
14 1/3+y,2/3-x+y,2/3-z
15 1/3+x-y,2/3+x,2/3-z
16 2/3-x,1/3-y,1/3-z
17 2/3+y,1/3-x+y,1/3-z
18 2/3+x-y,1/3+x,1/3-z
_cell_length_a                   16.1561(8)
_cell_length_b                   16.1561(8)
_cell_length_c                   31.8535(14)
_cell_angle_alpha                90
_cell_angle_beta                 90
_cell_angle_gamma                120
_cell_volume                     7200.47
loop_
_atom_site_label
_atom_site_type_symbol
_atom_site_fract_x
_atom_site_fract_y
_atom_site_fract_z
Cd1 Cd 0.58095(5) 0.69611(5) 0.65818(2)
Cl1 Cl 0.42683(18) 0.5837(2) 0.61966(8)
Cl2 Cl 0.65674(18) 0.87217(18) 0.62583(8)
N1 N 0.6815(6) 0.6813(6) 0.6097(3)
C1 C 0.7746(7) 0.7282(6) 0.6174(3)
N2 N 0.8295(6) 0.7367(6) 0.5831(3)
C2 C 0.9317(8) 0.7968(8) 0.5774(4)
H1 H 0.9495 0.7804 0.5509
H2 H 0.9641 0.7830 0.5996
N3 N 0.7428(7) 0.7599(7) 0.6856(3)
C3 C 0.7618(9) 0.7882(9) 0.7251(4)
H3 H 0.7126 0.7829 0.7421
C4 C 0.8104(10) 0.7640(8) 0.6606(3)
C5 C 0.6758(9) 0.6632(8) 0.5671(3)
C6 C 0.9253(10) 0.8303(8) 0.7166(5)
H4 H 0.9865 0.8524 0.7271
C7 C 0.6081(10) 0.6107(10) 0.4997(3)
H5 H 0.5556 0.5827 0.4819
C8 C 1.0626(7) 0.9649(6) 0.5780(3)
H6 H 1.1050 0.9418 0.5786
C9 C 0.9662(7) 0.9021(7) 0.5776(3)
C10 C 0.8528(10) 0.8258(9) 0.7420(4)
H7 H 0.8651 0.8474 0.7696
C11 C 0.7651(9) 0.6943(8) 0.5502(4)
C12 C 0.6996(10) 0.6433(10) 0.4831(4)
H8 H 0.7064 0.6361 0.4546
C13 C 0.7788(10) 0.6855(9) 0.5080(4)
H9 H 0.8395 0.7074 0.4970
C14 C 0.5938(9) 0.6190(9) 0.5419(3)
H10 H 0.5330 0.5965 0.5530
C15 C 0.9032(10) 0.8002(9) 0.6742(4)
H11 H 0.9503 0.8048 0.6559
N1A N 1.3187(6) 1.0002(8) 0.6097(3)
C1A C 1.2718(6) 1.0464(9) 0.6174(3)
N2A N 1.2633(6) 1.0928(8) 0.5831(3)
C2A C 1.2032(8) 1.1349(11) 0.5774(4)
H1A H 1.2196 1.1691 0.5509
H2A H 1.2170 1.1811 0.5996
N3A N 1.2401(7) 0.9829(10) 0.6856(3)
C3A C 1.2118(9) 0.9736(13) 0.7251(4)
H3A H 1.2171 0.9297 0.7421
C4A C 1.2360(8) 1.0464(13) 0.6606(3)
C5A C 1.3368(8) 1.0126(12) 0.5671(3)
C6A C 1.1697(8) 1.0950(13) 0.7166(5)
H4A H 1.1476 1.1341 0.7271
C7A C 1.3893(10) 0.9974(14) 0.4997(3)
H5A H 1.4173 0.9729 0.4819
C8A C 1.0351(6) 1.0977(9) 0.5780(3)
H6A H 1.0582 1.1632 0.5786
C9A C 1.0979(7) 1.0641(10) 0.5776(3)
C10A C 1.1742(9) 1.0270(13) 0.7420(4)
H7A H 1.1526 1.0177 0.7696
C11A C 1.3057(8) 1.0708(12) 0.5502(4)
C12A C 1.3567(10) 1.0563(14) 0.4831(4)
H8A H 1.3639 1.0703 0.4546
C13A C 1.3145(9) 1.0933(13) 0.5080(4)
H9A H 1.2926 1.1321 0.4970
C14A C 1.3810(9) 0.9748(13) 0.5419(3)
H10A H 1.4035 0.9365 0.5530
C15A C 1.1998(9) 1.1030(13) 0.6742(4)
H11A H 1.1952 1.1455 0.6559
N1B N 0.9998(8) 1.3185(6) 0.6097(3)
C1B C 0.9536(9) 1.2254(7) 0.6174(3)
N2B N 0.9072(8) 1.1705(6) 0.5831(3)
C2B C 0.8651(11) 1.0683(8) 0.5774(4)
H1B H 0.8309 1.0505 0.5509
H2B H 0.8189 1.0359 0.5996
N3B N 1.0171(10) 1.2572(7) 0.6856(3)
C3B C 1.0264(13) 1.2382(9) 0.7251(4)
H3B H 1.0703 1.2874 0.7421
C4B C 0.9536(13) 1.1896(10) 0.6606(3)
C5B C 0.9874(12) 1.3242(9) 0.5671(3)
C6B C 0.9050(13) 1.0747(10) 0.7166(5)
H4B H 0.8659 1.0135 0.7271
C7B C 1.0026(14) 1.3919(10) 0.4997(3)
H5B H 1.0271 1.4444 0.4819
C8B C 0.9023(9) 0.9374(7) 0.5780(3)
H6B H 0.8368 0.8950 0.5786
C9B C 0.9359(10) 1.0338(7) 0.5776(3)
C10B C 0.9730(13) 1.1472(10) 0.7420(4)
H7B H 0.9823 1.1349 0.7696
C11B C 0.9292(12) 1.2349(9) 0.5502(4)
C12B C 0.9437(14) 1.3004(10) 0.4831(4)
H8B H 0.9297 1.2936 0.4546
C13B C 0.9067(13) 1.2212(10) 0.5080(4)
H9B H 0.8679 1.1605 0.4970
C14B C 1.0252(13) 1.4062(9) 0.5419(3)
H10B H 1.0635 1.4670 0.5530
C15B C 0.8970(13) 1.0968(10) 0.6742(4)
H11B H 0.8545 1.0497 0.6559
Cd1A Cd 1.30389(5) 0.88484(7) 0.65818(2)
Cl1A Cl 1.4163(2) 0.84313(27) 0.61966(8)
Cl2A Cl 1.12783(18) 0.78457(25) 0.62583(8)
Cd1B Cd 1.11516(7) 1.41905(5) 0.65818(2)
Cl1B Cl 1.15687(27) 1.57317(18) 0.61966(8)
Cl2B Cl 1.21543(25) 1.34326(18) 0.62583(8)
Cd1O Cd 1.08572(5) 0.63722(5) 0.67515(2)
Cd1O_2 Cd 1.08572(5) 1.63722(5) 0.67515(2)
Cd1P Cd 0.36278(5) 0.44849(7) 0.67515(2)
Cd1P_2 Cd 1.36278(5) 1.44849(7) 0.67515(2)
Cd1Q Cd 0.55151(7) 0.91428(5) 0.67515(2)
Cd1Q_2 Cd 1.55151(7) 0.91428(5) 0.67515(2)
Cl1O Cl 1.23984(18) 0.7496(2) 0.71367(8)
Cl1P Cl 1.2504(2) 1.49020(27) 0.71367(8)
Cl1Q Cl 0.50980(27) 0.76016(18) 0.71367(8)
Cl2O Cl 1.00993(18) 1.46116(18) 0.70750(8)
Cl2P Cl 0.53884(18) 0.54876(25) 0.70750(8)
Cl2Q Cl 1.45124(25) 0.99007(18) 0.70750(8)
Cl3 Cl 0.6882(5) 0.4444(4) 0.48300(16)
C16 C 0.6667 0.3333 0.4666(9)
H12 H 0.6667 0.3333 0.4358
Cl3A Cl 0.5556(4) 0.2438(6) 0.48300(16)
Cl3B Cl 0.7562(6) 0.3118(5) 0.48300(16)
O1 O 0.3333 0.6667 0.6667
loop_
_geom_bond_atom_site_label_1
_geom_bond_atom_site_label_2
_geom_bond_site_symmetry_1
_geom_bond_site_symmetry_2
Cd1 Cl1 1_555 1_555
Cl1 Cd1P 1_555 1_555
Cl2 Cd1 1_555 1_555
N1 Cd1 1_555 1_555
C1 N1 1_555 1_555
N2 C1 1_555 1_555
C2 N2 1_555 1_555
H1 C2 1_555 1_555
H2 C2 1_555 1_555
N3 Cd1 1_555 1_555
C3 N3 1_555 1_555
H3 C3 1_555 1_555
C4 C1 1_555 1_555
C5 N1 1_555 1_555
C6 H4 1_555 1_555
C7 H5 1_555 1_555
C8 H6 1_555 1_555
C9 C2 1_555 1_555
C10 C3 1_555 1_555
H7 C10 1_555 1_555
C11 N2 1_555 1_555
C12 C7 1_555 1_555
H8 C12 1_555 1_555
C13 C11 1_555 1_555
H9 C13 1_555 1_555
C14 C5 1_555 1_555
H10 C14 1_555 1_555
C15 C4 1_555 1_555
H11 C15 1_555 1_555
Cl3 C16 1_555 1_555
C16 H12 1_555 1_555
N1A C1A 1_555 1_555
C1A N2A 1_555 1_555
N2A C2A 1_555 1_555
C2A H1A 1_555 1_555
H2A C2A 1_555 1_555
N3A C3A 1_555 1_555
C3A H3A 1_555 1_555
C4A C1A 1_555 1_555
C5A N1A 1_555 1_555
C6A H4A 1_555 1_555
C7A H5A 1_555 1_555
C8A H6A 1_555 1_555
C9A C8 1_555 1_555
C10A C3A 1_555 1_555
H7A C10A 1_555 1_555
C11A N2A 1_555 1_555
C12A C7A 1_555 1_555
H8A C12A 1_555 1_555
C13A C11A 1_555 1_555
H9A C13A 1_555 1_555
C14A C5A 1_555 1_555
H10A C14A 1_555 1_555
C15A C4A 1_555 1_555
H11A C15A 1_555 1_555
N1B C1B 1_555 1_555
C1B N2B 1_555 1_555
N2B C2B 1_555 1_555
C2B H1B 1_555 1_555
H2B C2B 1_555 1_555
N3B C3B 1_555 1_555
C3B H3B 1_555 1_555
C4B C1B 1_555 1_555
C5B N1B 1_555 1_555
C6B H4B 1_555 1_555
C7B H5B 1_555 1_555
C8B C9 1_555 1_555
H6B C8B 1_555 1_555
C9B C8A 1_555 1_555
C10B C3B 1_555 1_555
H7B C10B 1_555 1_555
C11B N2B 1_555 1_555
C12B C7B 1_555 1_555
H8B C12B 1_555 1_555
C13B C11B 1_555 1_555
H9B C13B 1_555 1_555
C14B C5B 1_555 1_555
H10B C14B 1_555 1_555
C15B C4B 1_555 1_555
H11B C15B 1_555 1_555
Cd1A N1A 1_555 1_555
Cl1A Cd1A 1_555 1_555
Cl2A Cd1A 1_555 1_555
Cd1B N1B 1_555 1_555
Cl1B Cd1B 1_555 1_555
Cl2B Cd1B 1_555 1_555
Cd1O Cl2A 1_555 1_555
Cd1O_2 Cl1B 1_555 1_555
Cd1P Cl2P 1_555 1_555
Cd1P_2 Cl2B 1_555 1_555
Cd1Q Cl2 1_555 1_555
Cd1Q_2 Cl1A 1_555 1_555
Cl1O Cd1A 1_555 1_555
Cl1P Cd1B 1_555 1_555
Cl1Q Cd1 1_555 1_555
Cl2O Cd1B 1_555 1_555
Cl2P Cd1 1_555 1_555
Cl2Q Cd1A 1_555 1_555
Cl3A C16 1_555 1_555
Cl3B C16 1_555 1_555
N3 C4 1_555 1_555
C5 C11 1_555 1_555
C6 C10 1_555 1_555
C6 C15 1_555 1_555
C7 C14 1_555 1_555
C8 C9 1_555 1_555
C12 C13 1_555 1_555
C2A C9A 1_555 1_555
N3A C4A 1_555 1_555
N3A Cd1A 1_555 1_555
C5A C11A 1_555 1_555
C6A C10A 1_555 1_555
C6A C15A 1_555 1_555
C7A C14A 1_555 1_555
C8A C9A 1_555 1_555
C12A C13A 1_555 1_555
C2B C9B 1_555 1_555
N3B C4B 1_555 1_555
N3B Cd1B 1_555 1_555
C5B C11B 1_555 1_555
C6B C10B 1_555 1_555
C6B C15B 1_555 1_555
C7B C14B 1_555 1_555
C8B C9B 1_555 1_555
C12B C13B 1_555 1_555
Cd1O Cl1O 1_555 1_555
Cd1O_2 Cl2O 1_555 1_555
Cd1P_2 Cl1P 1_555 1_555
Cd1Q Cl1Q 1_555 1_555
Cd1Q_2 Cl2Q 1_555 1_555

#END
