
#######################################################################
#
#                 Cambridge Crystallographic Data Centre
#                                CCDC 
#
#######################################################################
#
# If this CIF has been generated from an entry in the Cambridge 
# Structural Database, then it will include bibliographic, chemical, 
# crystal, experimental, refinement or atomic coordinate data resulting 
# from the CCDC's data processing and validation procedures.
#
#######################################################################

data_QUMSAT
_symmetry_cell_setting           monoclinic
_symmetry_space_group_name_H-M   'C 2/c'
_symmetry_Int_Tables_number      15
_space_group_name_Hall           '-C 2yn'
loop_
_symmetry_equiv_pos_site_id
_symmetry_equiv_pos_as_xyz
1 x,y,z
2 -x,y,1/2-z
3 1/2+x,1/2+y,z
4 1/2-x,1/2+y,1/2-z
5 -x,-y,-z
6 x,-y,1/2+z
7 1/2-x,1/2-y,-z
8 1/2+x,1/2-y,1/2+z
_cell_length_a                   12.7172(5)
_cell_length_b                   12.0666(5)
_cell_length_c                   12.5190(5)
_cell_angle_alpha                90
_cell_angle_beta                 99.121(2)
_cell_angle_gamma                90
_cell_volume                     1896.79
loop_
_atom_site_label
_atom_site_type_symbol
_atom_site_fract_x
_atom_site_fract_y
_atom_site_fract_z
Er1 Er 0.272611(9) 0.463160(9) 0.222451(9)
O1 O 0.23965(16) 0.41007(16) 0.40060(15)
O2 O 0.20947(17) 0.14653(16) 0.34538(15)
O3 O 0.36954(18) 0.4323(2) 0.08784(18)
O4 O 0.59911(18) 0.55190(18) 0.16114(17)
O5 O 0.37804(18) 0.31566(19) 0.2772(2)
O6 O 0.37413(19) 0.04990(18) 0.2418(2)
O7 O 0.1497(2) 0.46653(17) 0.0488(2)
O8 O 0.1589(2) 0.3084(2) 0.1902(2)
C1 C 0.2457(2) 0.3220(2) 0.4538(2)
C2 C 0.2325(2) 0.2029(2) 0.4300(2)
C3 C 0.4415(2) 0.4698(2) 0.0401(2)
C4 C 0.5448(2) 0.5225(2) 0.0731(2)
C5 C 0.4443(2) 0.2453(2) 0.2583(2)
C6 C 0.4432(2) 0.1242(2) 0.2503(2)
C7 C 0.0866(3) 0.3696(3) 0.0176(3)
C8 C 0.0598(3) 0.3195(3) 0.1182(3)
H1 H 0.125(4) 0.314(5) -0.020(4)
H2 H 0.016(3) 0.387(3) -0.029(3)
H3 H 0.020(3) 0.247(3) 0.101(3)
H4 H 0.015(3) 0.372(4) 0.154(3)
H5 H 0.180(4) 0.481(3) -0.003(4)
H6 H 0.169(4) 0.248(4) 0.216(4)
Er1F Er 0.227389(9) 0.036840(9) 0.777549(9)
Er1C Er 0.227389(9) -0.036840(9) 0.277549(9)
Er1A Er 0.727389(9) 0.463160(9) 0.277549(9)
Er1E Er 0.272611(9) 0.536840(9) 0.722451(9)
Er1D Er 0.727389(9) 0.536840(9) -0.222451(9)
Er1E_2 Er 0.272611(9) 0.536840(9) -0.277549(9)
Er1B Er 0.772611(9) -0.036840(9) 0.222451(9)
O1F O 0.26035(16) 0.08993(16) 0.59940(15)
O2F O 0.29053(17) 0.35347(16) 0.65462(15)
O2C O 0.29053(17) 0.64653(16) 0.15462(15)
O2E O 0.20947(17) -0.14653(16) 0.84538(15)
O3D O 0.63046(18) 0.5677(2) -0.08784(18)
O3F O 0.13046(18) 0.0677(2) 0.91216(18)
O4D O 0.40089(18) 0.44810(18) -0.16114(17)
O4A O 0.40089(18) 0.55190(18) 0.33886(17)
O4G O 0.09911(18) -0.05190(18) 0.66114(17)
O5A O 0.62196(18) 0.31566(19) 0.2228(2)
O5F O 0.12196(18) 0.18434(19) 0.7228(2)
O6A O 0.62587(19) 0.04990(18) 0.2582(2)
O6C O 0.12587(19) 0.54990(18) 0.2582(2)
O6E O 0.37413(19) -0.04990(18) 0.7418(2)
O7F O 0.3503(2) 0.03347(17) 0.9512(2)
O8F O 0.3411(2) 0.1916(2) 0.8098(2)
C1F C 0.2543(2) 0.1780(2) 0.5462(2)
C2F C 0.2675(2) 0.2971(2) 0.5700(2)
C3D C 0.5585(2) 0.5302(2) -0.0401(2)
C4D C 0.4552(2) 0.4775(2) -0.0731(2)
C5A C 0.5557(2) 0.2453(2) 0.2417(2)
C6A C 0.5568(2) 0.1242(2) 0.2497(2)
C7F C 0.4134(3) 0.1304(3) 0.9824(3)
C8F C 0.4402(3) 0.1805(3) 0.8818(3)
H1F H 0.375(4) 0.186(5) 1.020(4)
H2F H 0.484(3) 0.113(3) 1.029(3)
H3F H 0.480(3) 0.253(3) 0.899(3)
H4F H 0.485(3) 0.128(4) 0.846(3)
H5F H 0.320(4) 0.019(3) 1.003(4)
H6F H 0.331(4) 0.252(4) 0.784(4)
loop_
_geom_bond_atom_site_label_1
_geom_bond_atom_site_label_2
_geom_bond_site_symmetry_1
_geom_bond_site_symmetry_2
Er1 O1 1_555 1_555
O1 C1 1_555 1_555
O2 C2 1_555 1_555
O3 Er1 1_555 1_555
O4 C4 1_555 1_555
O5 Er1 1_555 1_555
O6 C6 1_555 1_555
O7 Er1 1_555 1_555
O8 Er1 1_555 1_555
C1 C2 1_555 1_555
C2 C1F 1_555 1_555
C3 O3 1_555 1_555
C4 C3 1_555 1_555
C5 O5 1_555 1_555
C6 C5 1_555 1_555
C7 O7 1_555 1_555
C8 O8 1_555 1_555
H1 C7 1_555 1_555
H2 C7 1_555 1_555
H3 C8 1_555 1_555
H4 C8 1_555 1_555
H5 O7 1_555 1_555
H6 O8 1_555 1_555
Er1F O1F 1_555 1_555
Er1C O2 1_555 1_555
Er1A O4 1_555 1_555
Er1E O2F 1_555 1_555
Er1D O3D 1_555 1_555
Er1E_2 O4D 1_555 1_555
Er1B O6A 1_555 1_555
O1F C1F 1_555 1_555
O2F C2F 1_555 1_555
O2C Er1 1_555 1_555
O2E Er1F 1_555 1_555
O3D C3D 1_555 1_555
O3F Er1F 1_555 1_555
O4D C4D 1_555 1_555
O4A Er1 1_555 1_555
O4G Er1F 1_555 1_555
O5A Er1A 1_555 1_555
O5F Er1F 1_555 1_555
O6A C6A 1_555 1_555
O6C Er1 1_555 1_555
O6E Er1F 1_555 1_555
O7F Er1F 1_555 1_555
O8F Er1F 1_555 1_555
C1F C2F 1_555 1_555
C2F C1 1_555 1_555
C3D C4 1_555 1_555
C4D C3 1_555 1_555
C5A C5 1_555 1_555
C6A C6 1_555 1_555
C7F O7F 1_555 1_555
C8F O8F 1_555 1_555
H1F C7F 1_555 1_555
H2F C7F 1_555 1_555
H3F C8F 1_555 1_555
H4F C8F 1_555 1_555
H5F O7F 1_555 1_555
H6F O8F 1_555 1_555
O6 Er1C 1_555 1_555
C7 C8 1_555 1_555
O5A C5A 1_555 1_555
C3D C4D 1_555 1_555
C5A C6A 1_555 1_555
C7F C8F 1_555 1_555

#END
