
#######################################################################
#
#                 Cambridge Crystallographic Data Centre
#                                CCDC 
#
#######################################################################
#
# If this CIF has been generated from an entry in the Cambridge 
# Structural Database, then it will include bibliographic, chemical, 
# crystal, experimental, refinement or atomic coordinate data resulting 
# from the CCDC's data processing and validation procedures.
#
#######################################################################

data_QUMTEY
_symmetry_cell_setting           monoclinic
_symmetry_space_group_name_H-M   'C 2/c'
_symmetry_Int_Tables_number      15
_space_group_name_Hall           '-C 2yn'
loop_
_symmetry_equiv_pos_site_id
_symmetry_equiv_pos_as_xyz
1 x,y,z
2 -x,y,1/2-z
3 1/2+x,1/2+y,z
4 1/2-x,1/2+y,1/2-z
5 -x,-y,-z
6 x,-y,1/2+z
7 1/2-x,1/2-y,-z
8 1/2+x,1/2-y,1/2+z
_cell_length_a                   11.8123(11)
_cell_length_b                   8.1954(8)
_cell_length_c                   10.9733(10)
_cell_angle_alpha                90
_cell_angle_beta                 117.975(2)
_cell_angle_gamma                90
_cell_volume                     938.161
loop_
_atom_site_label
_atom_site_type_symbol
_atom_site_fract_x
_atom_site_fract_y
_atom_site_fract_z
C1 C 0.5576(5) 0.0052(6) -0.1327(5)
H1 H 0.5989 -0.0512 -0.0472
C2 C 0.5587(5) 0.1732(7) -0.1321(6)
H2 H 0.6017 0.2298 -0.0468
C3 C 0.3437(5) -0.5456(6) -0.1129(5)
Hg1 Hg 0.5000 -0.39186(3) -0.2500
N1 N 0.5000 -0.0821(7) -0.2500
N2 N 0.5000 0.2581(9) -0.2500
N3 N 0.3719(4) -0.6355(5) -0.0215(5)
S1 S 0.29667(12) -0.41463(16) -0.24446(14)
C1A C 0.4424(5) 0.0052(6) -0.3673(5)
H1A H 0.4011 -0.0512 -0.4528
C2A C 0.4413(5) 0.1732(7) -0.3679(6)
H2A H 0.3983 0.2298 -0.4532
C3A C 0.6563(5) -0.5456(6) -0.3871(5)
Hg1_2 Hg 0.5000 0.60814(3) -0.2500
Hg1D Hg 0.5000 -0.60814(3) 0.2500
Hg1D_2 Hg 0.5000 -0.60814(3) -0.7500
N2_2 N 0.5000 -0.7419(9) -0.2500
N3E N 0.3719(4) -0.3645(5) -0.5215(5)
N3D N 0.6281(4) -0.3645(5) 0.0215(5)
N3A N 0.6281(4) -0.6355(5) -0.4785(5)
S1A S 0.70333(12) -0.41463(16) -0.25554(14)
loop_
_geom_bond_atom_site_label_1
_geom_bond_atom_site_label_2
_geom_bond_site_symmetry_1
_geom_bond_site_symmetry_2
C1 H1 1_555 1_555
C2 C1 1_555 1_555
H2 C2 1_555 1_555
C3 N3 1_555 1_555
Hg1 N1 1_555 1_555
N1 C1 1_555 1_555
N2 C2 1_555 1_555
N3 Hg1D 1_555 1_555
S1 C3 1_555 1_555
C1A N1 1_555 1_555
H1A C1A 1_555 1_555
C2A N2 1_555 1_555
H2A C2A 1_555 1_555
C3A N3A 1_555 1_555
Hg1_2 N2 1_555 1_555
Hg1D_2 N3A 1_555 1_555
N2_2 Hg1 1_555 1_555
N3E Hg1 1_555 1_555
N3D Hg1 1_555 1_555
S1A Hg1 1_555 1_555
Hg1 S1 1_555 1_555
C1A C2A 1_555 1_555
C3A S1A 1_555 1_555

#END
