
#######################################################################
#
#                 Cambridge Crystallographic Data Centre
#                                CCDC 
#
#######################################################################
#
# If this CIF has been generated from an entry in the Cambridge 
# Structural Database, then it will include bibliographic, chemical, 
# crystal, experimental, refinement or atomic coordinate data resulting 
# from the CCDC's data processing and validation procedures.
#
#######################################################################

data_QUNMOC
_symmetry_cell_setting           monoclinic
_symmetry_space_group_name_H-M   'C 2/c'
_symmetry_Int_Tables_number      15
_space_group_name_Hall           '-C 2yn'
loop_
_symmetry_equiv_pos_site_id
_symmetry_equiv_pos_as_xyz
1 x,y,z
2 -x,y,1/2-z
3 1/2+x,1/2+y,z
4 1/2-x,1/2+y,1/2-z
5 -x,-y,-z
6 x,-y,1/2+z
7 1/2-x,1/2-y,-z
8 1/2+x,1/2-y,1/2+z
_cell_length_a                   8.7114(12)
_cell_length_b                   13.7087(18)
_cell_length_c                   11.8156(16)
_cell_angle_alpha                90
_cell_angle_beta                 93.082(2)
_cell_angle_gamma                90
_cell_volume                     1409
loop_
_atom_site_label
_atom_site_type_symbol
_atom_site_fract_x
_atom_site_fract_y
_atom_site_fract_z
N1 N 0.0000 0.7996(5) 0.2500
N2 N 0.1178(6) 0.8544(4) 0.2858(4)
Cl1 Cl 0.18063(18) 0.63523(10) 0.44332(11)
Cd1 Cd 0.0000 0.62670(4) 0.2500
Cd2 Cd 0.34298(5) 0.78437(3) 0.35436(3)
N3 N -0.4309(7) 0.7037(3) 0.3934(4)
Cl2 Cl 0.0000 0.42893(14) 0.2500
C1 C -0.2399(8) 0.6133(5) 0.4592(5)
H1 H -0.1771 0.5747 0.5070
C2 C -0.3803(8) 0.6493(5) 0.4825(5)
H2 H -0.4320 0.6382 0.5481
C3 C 0.0745(8) 0.9467(4) 0.2724(5)
H3 H 0.1341 1.0014 0.2901
N4 N -0.2085(6) 0.6437(3) 0.3554(4)
N5 N -0.3275(6) 0.6982(3) 0.3168(4)
N2A N -0.1178(6) 0.8544(4) 0.2142(4)
Cl1A Cl -0.18063(18) 0.63523(10) 0.05668(11)
Cl1F Cl 0.31937(18) 0.86477(10) 0.55668(11)
Cl1G Cl -0.31937(18) 0.86477(10) -0.05668(11)
Cd2A Cd -0.34298(5) 0.78437(3) 0.14564(3)
Cd2F Cd 0.15702(5) 0.71563(3) 0.64564(3)
Cd2_2 Cd -0.65702(5) 0.78437(3) 0.35436(3)
Cd2B Cd -0.15702(5) 0.28437(3) 0.35436(3)
Cd2C Cd 0.15702(5) 0.28437(3) 0.14564(3)
Cd2G Cd -0.15702(5) 0.71563(3) -0.14564(3)
Cd2A_2 Cd 0.65702(5) 0.78437(3) 0.14564(3)
N3A N 0.4309(7) 0.7037(3) 0.1066(4)
N3_2 N 0.5691(7) 0.7037(3) 0.3934(4)
N3A_2 N -0.5691(7) 0.7037(3) 0.1066(4)
Cl2B Cl 0.5000 0.92893(14) 0.2500
Cl2B_2 Cl -0.5000 0.92893(14) 0.2500
C1A C 0.2399(8) 0.6133(5) 0.0408(5)
H1A H 0.1771 0.5747 -0.0070
C2A C 0.3803(8) 0.6493(5) 0.0175(5)
H2A H 0.4320 0.6382 -0.0481
C3A C -0.0745(8) 0.9467(4) 0.2276(5)
H3A H -0.1341 1.0014 0.2099
N4A N 0.2085(6) 0.6437(3) 0.1446(4)
N5A N 0.3275(6) 0.6982(3) 0.1832(4)
loop_
_geom_bond_atom_site_label_1
_geom_bond_atom_site_label_2
_geom_bond_site_symmetry_1
_geom_bond_site_symmetry_2
N1 N2 1_555 1_555
N2 Cd2 1_555 1_555
Cl1 Cd1 1_555 1_555
Cd1 N1 1_555 1_555
Cd2 Cl1 1_555 1_555
N3 C2 1_555 1_555
Cl2 Cd1 1_555 1_555
C1 H1 1_555 1_555
C2 C1 1_555 1_555
H2 C2 1_555 1_555
C3 N2 1_555 1_555
H3 C3 1_555 1_555
N4 Cd1 1_555 1_555
N5 N3 1_555 1_555
N2A N1 1_555 1_555
Cl1A Cd1 1_555 1_555
Cl1F Cd2 1_555 1_555
Cl1G Cd2A 1_555 1_555
Cd2A N5 1_555 1_555
Cd2F Cl1 1_555 1_555
Cd2_2 N3 1_555 1_555
Cd2B Cl2 1_555 1_555
Cd2C Cl2 1_555 1_555
Cd2G Cl1A 1_555 1_555
Cd2A_2 N3A 1_555 1_555
N3A C2A 1_555 1_555
N3_2 Cd2 1_555 1_555
N3A_2 Cd2A 1_555 1_555
Cl2B Cd2 1_555 1_555
Cl2B_2 Cd2A 1_555 1_555
C1A H1A 1_555 1_555
C2A C1A 1_555 1_555
H2A C2A 1_555 1_555
C3A C3 1_555 1_555
H3A C3A 1_555 1_555
N4A Cd1 1_555 1_555
N5A Cd2 1_555 1_555
C1 N4 1_555 1_555
N4 N5 1_555 1_555
N2A Cd2A 1_555 1_555
N2A C3A 1_555 1_555
Cl1A Cd2A 1_555 1_555
Cl1F Cd2F 1_555 1_555
Cl1G Cd2G 1_555 1_555
Cd2_2 Cl2B_2 1_555 1_555
Cd2A_2 Cl2B 1_555 1_555
N3A N5A 1_555 1_555
C1A N4A 1_555 1_555
N4A N5A 1_555 1_555

#END
