
#######################################################################
#
#                 Cambridge Crystallographic Data Centre
#                                CCDC 
#
#######################################################################
#
# If this CIF has been generated from an entry in the Cambridge 
# Structural Database, then it will include bibliographic, chemical, 
# crystal, experimental, refinement or atomic coordinate data resulting 
# from the CCDC's data processing and validation procedures.
#
#######################################################################

data_QUNNAP
_symmetry_cell_setting           orthorhombic
_symmetry_space_group_name_H-M   'P n m a'
_symmetry_Int_Tables_number      62
_space_group_name_Hall           '-P 2ac 2n'
loop_
_symmetry_equiv_pos_site_id
_symmetry_equiv_pos_as_xyz
1 x,y,z
2 1/2-x,-y,1/2+z
3 1/2+x,1/2-y,1/2-z
4 -x,1/2+y,-z
5 -x,-y,-z
6 1/2+x,y,1/2-z
7 1/2-x,1/2+y,1/2+z
8 x,1/2-y,z
_cell_length_a                   17.540(4)
_cell_length_b                   18.008(4)
_cell_length_c                   11.256(3)
_cell_angle_alpha                90
_cell_angle_beta                 90
_cell_angle_gamma                90
_cell_volume                     3555.32
loop_
_atom_site_label
_atom_site_type_symbol
_atom_site_fract_x
_atom_site_fract_y
_atom_site_fract_z
Cu1 Cu 1.01695(8) 0.34894(10) 0.19955(15)
Cu2 Cu 0.88396(13) 0.2500 0.0293(3)
Cu3 Cu 0.74814(9) 0.35990(10) -0.09600(16)
Cu4 Cu 0.58419(9) 0.33644(10) 0.08111(15)
Cu5 Cu 1.16444(8) 0.34567(10) 0.21575(15)
Cu6 Cu 0.42568(9) 0.35565(11) -0.09581(16)
Cu7 Cu 0.28153(13) 0.2500 0.0040(2)
I1 I 1.09794(6) 0.2500 0.06348(10)
I2 I 0.71164(6) 0.2500 0.11421(10)
I3 I 1.08861(5) 0.46191(5) 0.29944(8)
I4 I 0.96347(6) 0.2500 0.35730(10)
I5 I 0.33399(6) 0.2500 -0.23812(10)
C1 C 0.9168(7) 0.4646(7) 0.0820(13)
H1 H 0.9421 0.5056 0.1130
C2 C 0.8544(8) 0.4675(7) 0.0172(12)
H2 H 0.8283 0.5106 -0.0033
C3 C 0.6271(7) 0.3521(7) -0.2786(10)
H3 H 0.6582 0.3527 -0.3455
C4 C 0.5486(7) 0.3511(7) -0.2755(10)
H4 H 0.5171 0.3511 -0.3420
H5 H 1.3897 0.4886 0.0821
H6 H 1.2846 0.4824 0.2233
C5 C 1.3536(7) 0.4507(7) 0.0852(12)
C6 C 1.2956(7) 0.4482(7) 0.1637(11)
N1 N 0.9382(5) 0.3940(6) 0.0967(9)
N2 N 0.8859(5) 0.3539(6) 0.0369(9)
N3 N 0.8345(5) 0.3982(6) -0.0146(9)
N4 N 0.6491(5) 0.3522(5) -0.1643(9)
N5 N 0.5867(5) 0.3489(6) -0.0944(9)
N6 N 0.5245(5) 0.3500(6) -0.1651(10)
N7 N 1.3528(5) 0.3930(5) 0.0146(9)
N8 N 1.2910(5) 0.3528(5) 0.0476(8)
N9 N 1.2574(5) 0.3861(5) 0.1379(8)
Cu1G Cu 1.01695(8) 0.15106(10) 0.19955(15)
Cu3G Cu 0.74814(9) 0.14010(10) -0.09600(16)
Cu4G Cu 0.58419(9) 0.16356(10) 0.08111(15)
Cu4E Cu 1.08419(9) 0.33644(10) 0.41889(15)
Cu4B Cu 1.08419(9) 0.16356(10) 0.41889(15)
Cu5G Cu 1.16444(8) 0.15433(10) 0.21575(15)
Cu5E Cu 0.66444(8) 0.34567(10) 0.28425(15)
Cu5B Cu 0.66444(8) 0.15433(10) 0.28425(15)
Cu5_2 Cu 0.16444(8) 0.34567(10) 0.21575(15)
Cu6G Cu 0.42568(9) 0.14435(11) -0.09581(16)
Cu6_2 Cu 1.42568(9) 0.35565(11) -0.09581(16)
Cu7_2 Cu 1.28153(13) 0.2500 0.0040(2)
I2B I 1.21164(6) 0.2500 0.38579(10)
I3G I 1.08861(5) 0.03809(5) 0.29944(8)
I3E I 0.58861(5) 0.46191(5) 0.20056(8)
I3B I 0.58861(5) 0.03809(5) 0.20056(8)
I4B I 0.46347(6) 0.2500 0.14270(10)
C1G C 0.9168(7) 0.0354(7) 0.0820(13)
H1G H 0.9421 -0.0056 0.1130
C2G C 0.8544(8) 0.0325(7) 0.0172(12)
H2G H 0.8283 -0.0106 -0.0033
C3G C 0.6271(7) 0.1479(7) -0.2786(10)
H3G H 0.6582 0.1473 -0.3455
C4G C 0.5486(7) 0.1489(7) -0.2755(10)
H4G H 0.5171 0.1489 -0.3420
H5_2 H 0.3897 0.4886 0.0821
H6_2 H 0.2846 0.4824 0.2233
C5_2 C 0.3536(7) 0.4507(7) 0.0852(12)
C6_2 C 0.2956(7) 0.4482(7) 0.1637(11)
N1G N 0.9382(5) 0.1060(6) 0.0967(9)
N2G N 0.8859(5) 0.1461(6) 0.0369(9)
N3G N 0.8345(5) 0.1018(6) -0.0146(9)
N4G N 0.6491(5) 0.1478(5) -0.1643(9)
N5G N 0.5867(5) 0.1511(6) -0.0944(9)
N6G N 0.5245(5) 0.1500(6) -0.1651(10)
N7_2 N 0.3528(5) 0.3930(5) 0.0146(9)
N7G N 0.3528(5) 0.1070(5) 0.0146(9)
N8_2 N 0.2910(5) 0.3528(5) 0.0476(8)
N8G N 0.2910(5) 0.1472(5) 0.0476(8)
N9_2 N 0.2574(5) 0.3861(5) 0.1379(8)
N9G N 1.2574(5) 0.1139(5) 0.1379(8)
loop_
_geom_bond_atom_site_label_1
_geom_bond_atom_site_label_2
_geom_bond_site_symmetry_1
_geom_bond_site_symmetry_2
Cu1 I1 1_555 1_555
Cu2 N2 1_555 1_555
Cu3 N3 1_555 1_555
Cu4 I2 1_555 1_555
Cu5 I1 1_555 1_555
Cu6 I5 1_555 1_555
Cu7 I5 1_555 1_555
I1 Cu1G 1_555 1_555
I2 Cu4G 1_555 1_555
I3 Cu1 1_555 1_555
I4 Cu1 1_555 1_555
I5 Cu6G 1_555 1_555
C1 H1 1_555 1_555
C2 C1 1_555 1_555
H2 C2 1_555 1_555
C3 H3 1_555 1_555
C4 C3 1_555 1_555
H4 C4 1_555 1_555
H5 C5 1_555 1_555
H6 C6 1_555 1_555
C5 C6 1_555 1_555
C6 N9 1_555 1_555
N1 Cu1 1_555 1_555
N2 N1 1_555 1_555
N3 C2 1_555 1_555
N4 Cu3 1_555 1_555
N5 Cu4 1_555 1_555
N6 Cu6 1_555 1_555
N7 C5 1_555 1_555
N8 N7 1_555 1_555
N9 Cu5 1_555 1_555
Cu1G I4 1_555 1_555
Cu3G N3G 1_555 1_555
Cu4G I3B 1_555 1_555
Cu4E I3 1_555 1_555
Cu4B I4 1_555 1_555
Cu5G I1 1_555 1_555
Cu5E I2 1_555 1_555
Cu5B I2 1_555 1_555
Cu5_2 N9_2 1_555 1_555
Cu6G N6G 1_555 1_555
Cu6_2 N7 1_555 1_555
Cu7_2 N8 1_555 1_555
I2B Cu5 1_555 1_555
I3G Cu1G 1_555 1_555
I3E Cu4 1_555 1_555
I3B Cu5B 1_555 1_555
I4B Cu4 1_555 1_555
C1G H1G 1_555 1_555
C2G C1G 1_555 1_555
H2G C2G 1_555 1_555
C3G H3G 1_555 1_555
C4G C3G 1_555 1_555
H4G C4G 1_555 1_555
H5_2 C5_2 1_555 1_555
H6_2 C6_2 1_555 1_555
C5_2 C6_2 1_555 1_555
C6_2 N9_2 1_555 1_555
N1G Cu1G 1_555 1_555
N2G Cu2 1_555 1_555
N3G C2G 1_555 1_555
N4G Cu3G 1_555 1_555
N5G Cu4G 1_555 1_555
N6G C4G 1_555 1_555
N7_2 Cu6 1_555 1_555
N7G Cu6G 1_555 1_555
N8_2 Cu7 1_555 1_555
N8G Cu7 1_555 1_555
N9_2 N8_2 1_555 1_555
N9G Cu5G 1_555 1_555
Cu5 I3 1_555 1_555
I4 Cu4E 1_555 1_555
C1 N1 1_555 1_555
C3 N4 1_555 1_555
C4 N6 1_555 1_555
N2 N3 1_555 1_555
N4 N5 1_555 1_555
N5 N6 1_555 1_555
N8 N9 1_555 1_555
Cu4G I4B 1_555 1_555
Cu4E I2B 1_555 1_555
Cu4B I2B 1_555 1_555
Cu4B I3G 1_555 1_555
Cu5G I2B 1_555 1_555
Cu5G I3G 1_555 1_555
Cu5E I3E 1_555 1_555
C1G N1G 1_555 1_555
C3G N4G 1_555 1_555
C5_2 N7_2 1_555 1_555
N1G N2G 1_555 1_555
N2G N3G 1_555 1_555
N4G N5G 1_555 1_555
N5G N6G 1_555 1_555
N7_2 N8_2 1_555 1_555
N7G N8G 1_555 1_555

#END
