
#######################################################################
#
#                 Cambridge Crystallographic Data Centre
#                                CCDC 
#
#######################################################################
#
# If this CIF has been generated from an entry in the Cambridge 
# Structural Database, then it will include bibliographic, chemical, 
# crystal, experimental, refinement or atomic coordinate data resulting 
# from the CCDC's data processing and validation procedures.
#
#######################################################################

data_QUNPOF
_symmetry_cell_setting           monoclinic
_symmetry_space_group_name_H-M   'C 2/c'
_symmetry_Int_Tables_number      15
_space_group_name_Hall           '-C 2yn'
loop_
_symmetry_equiv_pos_site_id
_symmetry_equiv_pos_as_xyz
1 x,y,z
2 -x,y,1/2-z
3 1/2+x,1/2+y,z
4 1/2-x,1/2+y,1/2-z
5 -x,-y,-z
6 x,-y,1/2+z
7 1/2-x,1/2-y,-z
8 1/2+x,1/2-y,1/2+z
_cell_length_a                   38.977(3)
_cell_length_b                   9.5906(6)
_cell_length_c                   30.516(2)
_cell_angle_alpha                90
_cell_angle_beta                 120.9940(10)
_cell_angle_gamma                90
_cell_volume                     9778.56
loop_
_atom_site_label
_atom_site_type_symbol
_atom_site_fract_x
_atom_site_fract_y
_atom_site_fract_z
C1 C -0.40025(17) 0.5336(7) 0.1299(2)
C2 C -0.40972(17) 1.0338(7) 0.1210(2)
C3 C -0.33339(16) 0.6205(6) 0.2584(2)
H1 H -0.3463 0.5363 0.2446
C4 C -0.30209(16) 0.6226(6) 0.3088(2)
H2 H -0.2939 0.5409 0.3279
C5 C -0.28322(17) 0.7479(6) 0.3303(2)
C6 C -0.29673(17) 0.8649(6) 0.3000(2)
H3 H -0.2850 0.9512 0.3131
C7 C -0.32791(17) 0.8532(6) 0.2499(2)
H4 H -0.3368 0.9335 0.2301
C8 C -0.24844(16) 0.7535(6) 0.3849(2)
C9 C -0.22490(17) 0.2367(6) 0.3592(2)
C10 C -0.24993(17) 0.2018(7) 0.3028(2)
C11 C -0.23801(18) 0.1046(7) 0.2813(2)
H5 H -0.2139 0.0579 0.3011
C12 C -0.26184(18) 0.0751(7) 0.2299(2)
H6 H -0.2527 0.0105 0.2155
C13 C -0.30905(19) 0.2266(7) 0.2215(2)
H7 H -0.3338 0.2689 0.2012
C14 C -0.28654(18) 0.2628(6) 0.2724(2)
H8 H -0.2961 0.3281 0.2860
C15 C -0.61373(18) 1.2745(7) -0.0297(3)
C16 C -0.56886(18) 1.2604(7) -0.0045(3)
C17 C -0.54480(18) 1.3741(7) 0.0081(3)
H9 H -0.5560 1.4622 -0.0029
C18 C -0.50378(18) 1.3588(7) 0.0373(3)
H10 H -0.4882 1.4390 0.0456
C19 C -0.50862(19) 1.1278(8) 0.0368(3)
H11 H -0.4966 1.0403 0.0447
C20 C -0.55033(19) 1.1336(7) 0.0073(3)
H12 H -0.5653 1.0520 -0.0041
C21 C -0.13804(18) 0.2470(6) 0.5560(2)
C22 C -0.10117(18) 0.2710(6) 0.6083(2)
C23 C -0.08068(17) 0.1612(7) 0.6401(2)
H13 H -0.0897 0.0705 0.6299
C24 C -0.04721(18) 0.1846(7) 0.6865(2)
H14 H -0.0338 0.1091 0.7075
C25 C -0.08687(18) 0.4039(7) 0.6253(2)
H15 H -0.1002 0.4810 0.6052
C26 C -0.05226(18) 0.4210(7) 0.6729(2)
H16 H -0.0424 0.5104 0.6841
C27 C -0.00926(19) 0.6844(7) 0.6129(3)
H17 H 0.0093 0.6122 0.6262
C28 C -0.04876(18) 0.6541(7) 0.5770(3)
H18 H -0.0565 0.5628 0.5662
C29 C -0.07658(18) 0.7611(7) 0.5575(3)
C30 C -0.11983(18) 0.7286(7) 0.5208(3)
C31 C -0.06385(18) 0.8888(7) 0.5773(2)
H19 H -0.0818 0.9627 0.5670
C32 C -0.02447(18) 0.9093(7) 0.6125(3)
H20 H -0.0167 0.9985 0.6260
C33 C 0.1566(2) 0.7836(8) 0.8889(3)
C34 C -0.42850(17) -0.0320(7) 0.2252(2)
C35 C -0.35704(17) 0.3186(6) 0.3232(2)
H21 H -0.3727 0.3948 0.3051
C36 C -0.32146(16) 0.3434(6) 0.3680(2)
H22 H -0.3137 0.4338 0.3801
C37 C -0.29737(17) 0.2306(6) 0.3947(2)
C38 C -0.31178(16) 0.0978(6) 0.3768(2)
H23 H -0.2972 0.0195 0.3946
C39 C -0.34827(16) 0.0840(7) 0.3320(2)
H24 H -0.3579 -0.0055 0.3206
C40 C -0.25534(17) 0.2535(6) 0.4383(2)
C41 C -0.43697(18) 0.3442(6) 0.2120(2)
C42 C -0.01702(17) 0.8102(7) 0.7389(3)
Cu1 Cu -0.39116(2) 0.72326(8) 0.14980(3)
Cu2 Cu -0.42302(2) 1.22431(8) 0.10799(3)
Cu3 Cu 0.07286(3) 0.79210(11) 0.79528(4)
Cu4 Cu -0.42276(2) 0.16044(8) 0.23187(3)
Cu5 Cu 0.05667(2) 0.83926(8) 0.69868(3)
Tb1 Tb -0.186238(7) 0.47171(3) 0.453739(9)
Tb2 Tb -0.184506(7) 1.00739(3) 0.461649(9)
N1 N -0.40613(15) 0.4164(7) 0.1205(2)
N2 N -0.40306(16) 0.9163(7) 0.1294(2)
N3 N -0.34579(14) 0.7336(5) 0.22878(18)
N4 N -0.29682(16) 0.1338(6) 0.20025(19)
N5 N -0.48512(15) 1.2385(6) 0.0541(2)
N6 N -0.03306(15) 0.3130(6) 0.70252(19)
N7 N -0.43016(17) -0.1504(7) 0.2214(2)
N8 N -0.37039(14) 0.1915(5) 0.30441(19)
N9 N -0.43874(16) 0.4616(7) 0.2083(2)
N10 N 0.1254(2) 0.7876(9) 0.8532(3)
N11 N 0.00295(15) 0.8148(6) 0.6287(2)
N12 N 0.01702(17) 0.8102(7) 0.7611(3)
O1 O -0.23140(12) 0.6416(4) 0.40446(14)
O2 O -0.23918(11) 0.8697(4) 0.40567(14)
O3 O -0.22356(12) 0.3606(4) 0.37180(15)
O4 O -0.20757(14) 0.1384(5) 0.38844(16)
O5 O -0.62628(11) 1.3960(4) -0.03267(16)
O6 O -0.63414(11) 1.1661(4) -0.04289(15)
O7 O -0.12828(11) 0.6049(4) 0.50640(15)
O8 O -0.14453(11) 0.8245(4) 0.50768(16)
O9 O -0.14629(12) 0.1243(5) 0.54201(15)
O10 O -0.15635(11) 0.3531(5) 0.53152(15)
O11 O -0.23446(12) 0.1474(5) 0.45799(16)
O12 O -0.24380(11) 0.3763(4) 0.44958(15)
O13 O -0.20862(11) 0.9123(5) 0.51687(15)
H25 H -0.1939 0.8750 0.5416
H26 H -0.2302 0.9617 0.5120
O14 O -0.16619(14) 0.8795(5) 0.40471(17)
H27 H -0.1610 0.7853 0.4083
H28 H -0.1401 0.9138 0.4206
O15 O -0.20251(12) 0.6021(4) 0.51092(15)
H29 H -0.2112 0.7053 0.5015
H30 H -0.1910 0.6428 0.5403
O16 O -0.16199(11) 0.5806(4) 0.40133(14)
H31 H -0.1737 0.6023 0.3688
H32 H -0.1455 0.5231 0.4027
Cu2_2 Cu -0.42302(2) 0.22431(8) 0.10799(3)
Cu3A Cu -0.07286(3) 0.79210(11) 0.70472(4)
Cu5G Cu -0.44333(2) -0.33926(8) 0.19868(3)
Cu5G_2 Cu -0.44333(2) 0.66074(8) 0.19868(3)
Tb1G Tb -0.686238(7) 1.02829(3) -0.046261(9)
Tb2_2 Tb -0.184506(7) 0.00739(3) 0.461649(9)
Tb2G Tb -0.684506(7) 1.49261(3) -0.038351(9)
N1_2 N -0.40613(15) 1.4164(7) 0.1205(2)
N7G N 0.06984(17) 0.6504(7) 0.7214(2)
N9G N 0.06126(16) 1.0384(7) 0.7083(2)
O4_2 O -0.20757(14) 1.1384(5) 0.38844(16)
O5G O -0.12628(11) 1.1040(4) 0.46733(16)
O6G O -0.13414(11) 0.3339(4) 0.45711(15)
O9_2 O -0.14629(12) 1.1243(5) 0.54201(15)
O11_2 O -0.23446(12) 1.1474(5) 0.45799(16)
loop_
_geom_bond_atom_site_label_1
_geom_bond_atom_site_label_2
_geom_bond_site_symmetry_1
_geom_bond_site_symmetry_2
C1 Cu1 1_555 1_555
C2 Cu2 1_555 1_555
C3 H1 1_555 1_555
C4 C3 1_555 1_555
H2 C4 1_555 1_555
C5 C4 1_555 1_555
C6 C5 1_555 1_555
H3 C6 1_555 1_555
C7 C6 1_555 1_555
H4 C7 1_555 1_555
C8 C5 1_555 1_555
C9 C10 1_555 1_555
C10 C11 1_555 1_555
C11 H5 1_555 1_555
C12 C11 1_555 1_555
H6 C12 1_555 1_555
C13 H7 1_555 1_555
C14 C10 1_555 1_555
H8 C14 1_555 1_555
C15 C16 1_555 1_555
C16 C17 1_555 1_555
C17 H9 1_555 1_555
C18 C17 1_555 1_555
H10 C18 1_555 1_555
C19 H11 1_555 1_555
C20 C16 1_555 1_555
H12 C20 1_555 1_555
C21 C22 1_555 1_555
C22 C23 1_555 1_555
C23 H13 1_555 1_555
C24 C23 1_555 1_555
H14 C24 1_555 1_555
C25 C22 1_555 1_555
H15 C25 1_555 1_555
C26 C25 1_555 1_555
H16 C26 1_555 1_555
C27 H17 1_555 1_555
C28 C27 1_555 1_555
H18 C28 1_555 1_555
C29 C28 1_555 1_555
C30 C29 1_555 1_555
C31 C29 1_555 1_555
H19 C31 1_555 1_555
C32 C31 1_555 1_555
H20 C32 1_555 1_555
C33 N10 1_555 1_555
C34 Cu4 1_555 1_555
C35 H21 1_555 1_555
C36 C35 1_555 1_555
H22 C36 1_555 1_555
C37 C36 1_555 1_555
C38 C37 1_555 1_555
H23 C38 1_555 1_555
C39 C38 1_555 1_555
H24 C39 1_555 1_555
C40 C37 1_555 1_555
C41 Cu4 1_555 1_555
C42 N12 1_555 1_555
Cu1 N2 1_555 1_555
Cu2 N5 1_555 1_555
Cu3 Cu5 1_555 1_555
Cu4 N8 1_555 1_555
Cu5 N11 1_555 1_555
Tb1 O1 1_555 1_555
Tb2 O2 1_555 1_555
N1 C1 1_555 1_555
N2 C2 1_555 1_555
N3 C3 1_555 1_555
N4 C12 1_555 1_555
N5 C18 1_555 1_555
N6 C24 1_555 1_555
N7 C34 1_555 1_555
N8 C35 1_555 1_555
N9 C41 1_555 1_555
N10 Cu3 1_555 1_555
N11 C27 1_555 1_555
N12 Cu3 1_555 1_555
O1 C8 1_555 1_555
O2 C8 1_555 1_555
O3 C9 1_555 1_555
O4 C9 1_555 1_555
O5 C15 1_555 1_555
O6 C15 1_555 1_555
O7 C30 1_555 1_555
O8 C30 1_555 1_555
O9 C21 1_555 1_555
O10 C21 1_555 1_555
O11 C40 1_555 1_555
O12 C40 1_555 1_555
O13 Tb2 1_555 1_555
H25 O13 1_555 1_555
H26 O13 1_555 1_555
O14 Tb2 1_555 1_555
H27 O14 1_555 1_555
H28 O14 1_555 1_555
O15 Tb1 1_555 1_555
H29 O15 1_555 1_555
H30 O15 1_555 1_555
O16 Tb1 1_555 1_555
H31 O16 1_555 1_555
H32 O16 1_555 1_555
Cu2_2 N1 1_555 1_555
Cu3A C42 1_555 1_555
Cu5G N7 1_555 1_555
Cu5G_2 N9 1_555 1_555
Tb1G O6 1_555 1_555
Tb2_2 O4 1_555 1_555
Tb2G O5 1_555 1_555
N1_2 Cu2 1_555 1_555
N7G Cu5 1_555 1_555
N9G Cu5 1_555 1_555
O4_2 Tb2 1_555 1_555
O5G Tb2 1_555 1_555
O6G Tb1 1_555 1_555
O9_2 Tb2 1_555 1_555
O11_2 Tb2 1_555 1_555
C7 N3 1_555 1_555
C13 C14 1_555 1_555
C13 N4 1_555 1_555
C19 C20 1_555 1_555
C19 N5 1_555 1_555
C26 N6 1_555 1_555
C32 N11 1_555 1_555
C39 N8 1_555 1_555
Cu1 N3 1_555 1_555
Tb1 O3 1_555 1_555
Tb1 O7 1_555 1_555
Tb1 O10 1_555 1_555
Tb1 O12 1_555 1_555
Tb2 O8 1_555 1_555
O9 Tb2_2 1_555 1_555
O11 Tb2_2 1_555 1_555

#END
