
#######################################################################
#
#                 Cambridge Crystallographic Data Centre
#                                CCDC 
#
#######################################################################
#
# If this CIF has been generated from an entry in the Cambridge 
# Structural Database, then it will include bibliographic, chemical, 
# crystal, experimental, refinement or atomic coordinate data resulting 
# from the CCDC's data processing and validation procedures.
#
#######################################################################

data_QUNSAU
_symmetry_cell_setting           orthorhombic
_symmetry_space_group_name_H-M   'P b c n'
_symmetry_Int_Tables_number      60
_space_group_name_Hall           '-P 2n 2ab'
loop_
_symmetry_equiv_pos_site_id
_symmetry_equiv_pos_as_xyz
1 x,y,z
2 1/2-x,1/2-y,1/2+z
3 1/2+x,1/2-y,-z
4 -x,y,1/2-z
5 -x,-y,-z
6 1/2+x,1/2+y,1/2-z
7 1/2-x,1/2+y,z
8 x,-y,1/2+z
_cell_length_a                   20.535(6)
_cell_length_b                   12.631(4)
_cell_length_c                   11.271(3)
_cell_angle_alpha                90
_cell_angle_beta                 90
_cell_angle_gamma                90
_cell_volume                     2923.44
loop_
_atom_site_label
_atom_site_type_symbol
_atom_site_fract_x
_atom_site_fract_y
_atom_site_fract_z
Cu1 Cu 0.08654(4) 0.08300(7) 0.47266(6)
Cu2 Cu 0.0000 -0.12164(9) 0.2500
Cu3 Cu 0.0000 -0.26815(11) 0.7500
N1 N 0.1712(3) 0.1869(5) 0.4223(5)
N2 N 0.2371(3) 0.2177(5) 0.2517(5)
N3 N 0.1023(2) 0.0433(4) 0.3021(4)
N4 N 0.0211(3) -0.1976(4) 0.4004(4)
N5 N 0.0760(2) -0.0221(4) 0.2212(4)
N6 N 0.1075(3) -0.0059(4) 0.1189(4)
N7 N -0.0101(2) -0.1776(4) 0.5013(4)
N8 N 0.1533(3) 0.0668(5) 0.1321(4)
N9 N 0.0178(3) -0.2362(4) 0.5854(4)
N10 N 0.0683(3) -0.2684(5) 0.4168(5)
C1 C 0.0649(3) -0.2902(5) 0.5331(6)
N11 N 0.0830(3) -0.3733(5) 0.7151(5)
N12 N 0.1527(4) -0.4164(6) 0.5541(5)
C2 C 0.2091(4) 0.2540(7) 0.4827(6)
H1 H 0.1994 0.2672 0.5619
C3 C 0.2616(4) 0.3042(7) 0.4329(7)
H2 H 0.2877 0.3495 0.4773
C4 C 0.2742(4) 0.2853(6) 0.3166(7)
H3 H 0.3090 0.3196 0.2805
C5 C 0.1885(4) 0.1714(6) 0.3083(6)
C6 C 0.1491(3) 0.0947(5) 0.2452(6)
C7 C 0.1035(4) -0.3647(6) 0.6019(7)
C8 C 0.1152(5) -0.4416(8) 0.7838(7)
H4 H 0.1019 -0.4505 0.8620
C9 C 0.1857(5) -0.4838(8) 0.6261(9)
H5 H 0.2214 -0.5208 0.5969
C10 C 0.1662(6) -0.4980(8) 0.7435(9)
H6 H 0.1880 -0.5453 0.7928
Cu1C Cu -0.08654(4) 0.08300(7) 0.02734(6)
Cu1G Cu 0.08654(4) -0.08300(7) -0.02734(6)
Cu1D Cu -0.08654(4) -0.08300(7) 0.52734(6)
Cu3_2 Cu 0.0000 -0.26815(11) -0.2500
N1C N -0.1712(3) 0.1869(5) 0.0777(5)
N2C N -0.2371(3) 0.2177(5) 0.2483(5)
N3C N -0.1023(2) 0.0433(4) 0.1979(4)
N4C N -0.0211(3) -0.1976(4) 0.0996(4)
N5C N -0.0760(2) -0.0221(4) 0.2788(4)
N6C N -0.1075(3) -0.0059(4) 0.3811(4)
N6G N 0.1075(3) 0.0059(4) 0.6189(4)
N6D N -0.1075(3) 0.0059(4) -0.1189(4)
N7C N 0.0101(2) -0.1776(4) -0.0013(4)
N7D N 0.0101(2) 0.1776(4) 0.4987(4)
N7G N -0.0101(2) 0.1776(4) 0.0013(4)
N8C N -0.1533(3) 0.0668(5) 0.3679(4)
N9C N -0.0178(3) -0.2362(4) -0.0854(4)
N9C_2 N -0.0178(3) -0.2362(4) 0.9146(4)
N10C N -0.0683(3) -0.2684(5) 0.0832(5)
C1C C -0.0649(3) -0.2902(5) -0.0331(6)
N11C N -0.0830(3) -0.3733(5) -0.2151(5)
N11C_2 N -0.0830(3) -0.3733(5) 0.7849(5)
N12C N -0.1527(4) -0.4164(6) -0.0541(5)
C2C C -0.2091(4) 0.2540(7) 0.0173(6)
H1C H -0.1994 0.2672 -0.0619
C3C C -0.2616(4) 0.3042(7) 0.0671(7)
H2C H -0.2877 0.3495 0.0227
C4C C -0.2742(4) 0.2853(6) 0.1834(7)
H3C H -0.3090 0.3196 0.2195
C5C C -0.1885(4) 0.1714(6) 0.1917(6)
C6C C -0.1491(3) 0.0947(5) 0.2548(6)
C7C C -0.1035(4) -0.3647(6) -0.1019(7)
C8C C -0.1152(5) -0.4416(8) -0.2838(7)
H4C H -0.1019 -0.4505 -0.3620
C9C C -0.1857(5) -0.4838(8) -0.1261(9)
H5C H -0.2214 -0.5208 -0.0969
C10C C -0.1662(6) -0.4980(8) -0.2435(9)
H6C H -0.1880 -0.5453 -0.2928
loop_
_geom_bond_atom_site_label_1
_geom_bond_atom_site_label_2
_geom_bond_site_symmetry_1
_geom_bond_site_symmetry_2
Cu1 N1 1_555 1_555
Cu2 N4 1_555 1_555
Cu3 N9 1_555 1_555
N1 C2 1_555 1_555
N2 C4 1_555 1_555
N3 Cu1 1_555 1_555
N4 N7 1_555 1_555
N5 Cu2 1_555 1_555
N6 N5 1_555 1_555
N7 N9 1_555 1_555
N8 N6 1_555 1_555
N9 C1 1_555 1_555
N10 N4 1_555 1_555
C1 N10 1_555 1_555
N11 Cu3 1_555 1_555
N12 C7 1_555 1_555
C2 H1 1_555 1_555
C3 C2 1_555 1_555
H2 C3 1_555 1_555
C4 C3 1_555 1_555
H3 C4 1_555 1_555
C5 N1 1_555 1_555
C6 N3 1_555 1_555
C7 C1 1_555 1_555
C8 N11 1_555 1_555
H4 C8 1_555 1_555
C9 N12 1_555 1_555
H5 C9 1_555 1_555
C10 C8 1_555 1_555
H6 C10 1_555 1_555
Cu1C N1C 1_555 1_555
Cu1G N6 1_555 1_555
Cu1D N7 1_555 1_555
Cu3_2 N9C 1_555 1_555
N1C C2C 1_555 1_555
N2C C4C 1_555 1_555
N3C Cu1C 1_555 1_555
N4C Cu2 1_555 1_555
N5C Cu2 1_555 1_555
N6C Cu1D 1_555 1_555
N6G Cu1 1_555 1_555
N6D Cu1C 1_555 1_555
N7C Cu1G 1_555 1_555
N7D Cu1 1_555 1_555
N7G Cu1C 1_555 1_555
N8C N6C 1_555 1_555
N9C N7C 1_555 1_555
N9C_2 Cu3 1_555 1_555
N10C N4C 1_555 1_555
C1C N9C 1_555 1_555
N11C Cu3_2 1_555 1_555
N11C_2 Cu3 1_555 1_555
N12C C7C 1_555 1_555
C2C H1C 1_555 1_555
C3C C2C 1_555 1_555
H2C C3C 1_555 1_555
C4C C3C 1_555 1_555
H3C C4C 1_555 1_555
C5C N1C 1_555 1_555
C6C N3C 1_555 1_555
C7C C1C 1_555 1_555
C8C N11C 1_555 1_555
H4C C8C 1_555 1_555
C9C N12C 1_555 1_555
H5C C9C 1_555 1_555
C10C C8C 1_555 1_555
H6C C10C 1_555 1_555
N2 C5 1_555 1_555
N3 N5 1_555 1_555
N8 C6 1_555 1_555
N11 C7 1_555 1_555
C5 C6 1_555 1_555
C9 C10 1_555 1_555
N2C C5C 1_555 1_555
N3C N5C 1_555 1_555
N4C N7C 1_555 1_555
N5C N6C 1_555 1_555
N8C C6C 1_555 1_555
N10C C1C 1_555 1_555
N11C C7C 1_555 1_555
C5C C6C 1_555 1_555
C9C C10C 1_555 1_555

#END
