
#######################################################################
#
#                 Cambridge Crystallographic Data Centre
#                                CCDC 
#
#######################################################################
#
# If this CIF has been generated from an entry in the Cambridge 
# Structural Database, then it will include bibliographic, chemical, 
# crystal, experimental, refinement or atomic coordinate data resulting 
# from the CCDC's data processing and validation procedures.
#
#######################################################################

data_QUNWIH
_symmetry_cell_setting           monoclinic
_symmetry_space_group_name_H-M   'P 21/c'
_symmetry_Int_Tables_number      14
_space_group_name_Hall           '-P 2ybc'
loop_
_symmetry_equiv_pos_site_id
_symmetry_equiv_pos_as_xyz
1 x,y,z
2 -x,1/2+y,1/2-z
3 -x,-y,-z
4 x,1/2-y,1/2+z
_cell_length_a                   14.1639(5)
_cell_length_b                   25.2402(7)
_cell_length_c                   15.9077(7)
_cell_angle_alpha                90
_cell_angle_beta                 111.043(4)
_cell_angle_gamma                90
_cell_volume                     5307.74
loop_
_atom_site_label
_atom_site_type_symbol
_atom_site_fract_x
_atom_site_fract_y
_atom_site_fract_z
Zn1 Zn 0.83941(5) 0.72429(3) 0.38708(4)
Zn2 Zn 0.32171(5) 0.23712(2) 0.34057(4)
N1 N 0.4153(3) 0.21756(19) 0.4680(3)
N2 N 1.0612(3) 0.19897(19) 0.9906(3)
O1 O 0.7097(3) 0.69164(15) 0.3767(3)
O2 O 0.1135(3) 0.18033(17) 0.1915(3)
O3 O -0.1474(3) 0.04623(17) 0.3613(3)
O4 O 0.2003(3) 0.19640(14) 0.3359(2)
O5 O 0.3348(3) 0.55901(15) 0.3752(3)
O6 O -0.1932(3) -0.20128(16) 0.3882(3)
O7 O 0.2784(4) 0.31023(16) 0.3433(3)
O8 O -0.0588(4) -0.2012(2) 0.3524(4)
O9 O 0.4263(5) 0.31518(19) 0.3301(3)
O10 O 0.6148(3) 0.69804(16) 0.2310(3)
C1 C 0.3492(6) 0.3360(3) 0.3364(4)
C2 C 0.3464(5) 0.3956(2) 0.3452(4)
C3 C 0.4208(5) 0.4268(2) 0.3344(4)
H1 H 0.4735 0.4112 0.3215
C4 C 0.4181(5) 0.4816(2) 0.3428(4)
H2 H 0.4676 0.5025 0.3335
C5 C 0.3430(4) 0.5045(2) 0.3644(4)
C6 C 0.2685(4) 0.4741(2) 0.3754(4)
H3 H 0.2165 0.4900 0.3890
C7 C 0.2703(4) 0.4199(2) 0.3664(4)
H4 H 0.2198 0.3994 0.3747
C8 C 0.4888(5) 0.6068(3) 0.4279(4)
H5 H 0.4976 0.5968 0.4865
C9 C 0.4058(4) 0.5912(2) 0.3591(4)
C10 C 0.3898(4) 0.6076(2) 0.2726(4)
H6 H 0.3314 0.5977 0.2254
C11 C -0.1000(4) 0.0934(3) 0.2540(4)
H7 H -0.1606 0.0833 0.2096
C12 C -0.0777(4) 0.0771(2) 0.3398(4)
C13 C 0.0082(5) 0.0936(3) 0.4041(4)
H8 H 0.0224 0.0830 0.4634
C14 C -0.1376(4) -0.0079(2) 0.3613(4)
C15 C -0.2136(4) -0.0361(3) 0.3764(4)
H9 H -0.2667 -0.0185 0.3856
C16 C -0.2097(5) -0.0904(2) 0.3777(4)
H10 H -0.2609 -0.1092 0.3882
C17 C -0.1326(4) -0.1180(2) 0.3640(4)
C18 C -0.0581(4) -0.0894(3) 0.3472(4)
H11 H -0.0062 -0.1070 0.3359
C19 C -0.0605(5) -0.0345(3) 0.3471(5)
H12 H -0.0091 -0.0156 0.3372
C20 C -0.1262(5) -0.1775(3) 0.3671(4)
C21 C 0.1288(4) 0.1755(2) 0.2735(4)
C22 C 0.0561(4) 0.14155(19) 0.2982(3)
C23 C 0.0750(5) 0.1255(3) 0.3843(4)
H13 H 0.1339 0.1364 0.4300
C24 C -0.0325(4) 0.1249(2) 0.2327(4)
H14 H -0.0470 0.1351 0.1732
C25 C 0.6309(4) 0.68412(19) 0.3106(4)
C26 C 0.5494(4) 0.6536(2) 0.3259(4)
C27 C 0.5609(5) 0.6374(3) 0.4115(4)
H15 H 0.6186 0.6474 0.4595
C28 C 0.4611(4) 0.6390(2) 0.2567(4)
H16 H 0.4499 0.6506 0.1984
C29 C 0.9917(5) 0.1621(3) 0.9876(4)
H17 H 1.0020 0.1424 1.0395
C30 C 0.9077(5) 0.1515(3) 0.9151(5)
H18 H 0.8645 0.1242 0.9174
C31 C 0.8864(4) 0.1813(3) 0.8377(4)
C32 C 0.9623(6) 0.2149(4) 0.8373(6)
H19 H 0.9565 0.2333 0.7850
C33 C 1.0464(6) 0.2217(4) 0.9132(5)
H20 H 1.0967 0.2442 0.9093
C34 C 0.3834(4) 0.2067(2) 0.5340(4)
H21 H 0.3142 0.2073 0.5223
C35 C 0.4468(4) 0.1946(2) 0.6185(4)
H22 H 0.4195 0.1878 0.6626
C36 C 0.5490(5) 0.1921(3) 0.6411(4)
C37 C 0.5820(6) 0.2054(5) 0.5735(6)
H23 H 0.6511 0.2065 0.5851
C38 C 0.5151(5) 0.2175(4) 0.4878(5)
H24 H 0.5405 0.2257 0.4430
C39 C 0.6180(5) 0.1793(3) 0.7356(4)
H25 H 0.5796 0.1705 0.7742
C40 C 0.7064(5) 0.1377(3) 0.7470(5)
H26 H 0.7210 0.1197 0.8049
C41 C 0.7835(5) 0.1835(3) 0.7618(4)
H27 H 0.7911 0.1932 0.7049
C42 C 0.7003(5) 0.2209(3) 0.7800(5)
H28 H 0.6890 0.2539 0.7454
C43 C 0.7250(6) 0.2307(4) 0.8794(6)
C44 C 0.6998(7) 0.1950(6) 0.9368(6)
H29 H 0.6525 0.1685 0.9110
C45 C 0.7426(9) 0.1978(7) 1.0296(7)
H30 H 0.7230 0.1750 1.0662
C46 C 0.8178(18) 0.2371(13) 1.0667(15)
H31 H 0.8586 0.2353 1.1272
C47 C 0.8308(14) 0.2760(9) 1.0164(14)
H32 H 0.8657 0.3064 1.0436
C48 C 0.7912(7) 0.2718(5) 0.9194(9)
H33 H 0.8098 0.2962 0.8843
C49 C 0.6953(6) 0.0960(5) 0.6767(7)
C50 C 0.7613(8) 0.0913(6) 0.6313(8)
H34 H 0.8126 0.1162 0.6409
C51 C 0.7522(12) 0.0492(10) 0.5703(13)
H35 H 0.8007 0.0445 0.5441
C52 C 0.6736(17) 0.0165(13) 0.5505(18)
H36 H 0.6647 -0.0096 0.5070
C53 C 0.6032(14) 0.0207(10) 0.5951(16)
H37 H 0.5518 -0.0041 0.5856
C54 C 0.6136(9) 0.0631(6) 0.6531(12)
H38 H 0.5632 0.0694 0.6767
Zn1_2 Zn -0.16059(5) -0.27571(3) 0.38708(4)
Zn1A Zn 0.16059(5) 0.22429(3) 0.11292(4)
Zn1A_2 Zn 1.16059(5) 0.22429(3) 1.11292(4)
Zn2A Zn 0.67829(5) 0.73712(2) 0.15943(4)
N2A N 0.9388(3) 0.69897(19) 0.5094(3)
O2A O 0.8865(3) 0.68033(17) 0.3085(3)
O6_2 O 0.8068(3) 0.79872(16) 0.3882(3)
O8_2 O 0.9412(4) 0.7988(2) 0.3524(4)
O10A O 0.3852(3) 0.19804(16) 0.2690(3)
loop_
_geom_bond_atom_site_label_1
_geom_bond_atom_site_label_2
_geom_bond_site_symmetry_1
_geom_bond_site_symmetry_2
Zn1 O1 1_555 1_555
Zn2 N1 1_555 1_555
N1 C34 1_555 1_555
N2 C29 1_555 1_555
O1 C25 1_555 1_555
O2 C21 1_555 1_555
O3 C12 1_555 1_555
O4 Zn2 1_555 1_555
O5 C5 1_555 1_555
O6 C20 1_555 1_555
O7 Zn2 1_555 1_555
O8 C20 1_555 1_555
O9 Zn2 1_555 1_555
O10 C25 1_555 1_555
C1 O7 1_555 1_555
C2 C1 1_555 1_555
C3 C2 1_555 1_555
H1 C3 1_555 1_555
C4 C3 1_555 1_555
H2 C4 1_555 1_555
C5 C4 1_555 1_555
C6 C5 1_555 1_555
H3 C6 1_555 1_555
C7 C2 1_555 1_555
H4 C7 1_555 1_555
C8 H5 1_555 1_555
C9 O5 1_555 1_555
C10 C9 1_555 1_555
H6 C10 1_555 1_555
C11 H7 1_555 1_555
C12 C11 1_555 1_555
C13 C12 1_555 1_555
H8 C13 1_555 1_555
C14 O3 1_555 1_555
C15 C14 1_555 1_555
H9 C15 1_555 1_555
C16 C15 1_555 1_555
H10 C16 1_555 1_555
C17 C16 1_555 1_555
C18 C17 1_555 1_555
H11 C18 1_555 1_555
C19 C14 1_555 1_555
H12 C19 1_555 1_555
C20 C17 1_555 1_555
C21 O4 1_555 1_555
C22 C21 1_555 1_555
C23 C13 1_555 1_555
H13 C23 1_555 1_555
C24 C11 1_555 1_555
H14 C24 1_555 1_555
C25 C26 1_555 1_555
C26 C27 1_555 1_555
C27 C8 1_555 1_555
H15 C27 1_555 1_555
C28 C10 1_555 1_555
H16 C28 1_555 1_555
C29 H17 1_555 1_555
C30 C29 1_555 1_555
H18 C30 1_555 1_555
C31 C30 1_555 1_555
C32 C31 1_555 1_555
H19 C32 1_555 1_555
C33 N2 1_555 1_555
H20 C33 1_555 1_555
C34 H21 1_555 1_555
C35 C34 1_555 1_555
H22 C35 1_555 1_555
C36 C35 1_555 1_555
C37 C36 1_555 1_555
H23 C37 1_555 1_555
C38 N1 1_555 1_555
H24 C38 1_555 1_555
C39 C36 1_555 1_555
H25 C39 1_555 1_555
C40 C39 1_555 1_555
H26 C40 1_555 1_555
C41 C31 1_555 1_555
H27 C41 1_555 1_555
C42 C39 1_555 1_555
H28 C42 1_555 1_555
C43 C42 1_555 1_555
C44 C43 1_555 1_555
H29 C44 1_555 1_555
C45 C44 1_555 1_555
H30 C45 1_555 1_555
C46 C45 1_555 1_555
H31 C46 1_555 1_555
C47 C46 1_555 1_555
H32 C47 1_555 1_555
C48 C43 1_555 1_555
H33 C48 1_555 1_555
C49 C40 1_555 1_555
C50 C49 1_555 1_555
H34 C50 1_555 1_555
C51 C50 1_555 1_555
H35 C51 1_555 1_555
C52 C51 1_555 1_555
H36 C52 1_555 1_555
C53 C52 1_555 1_555
H37 C53 1_555 1_555
C54 C49 1_555 1_555
H38 C54 1_555 1_555
Zn1_2 O6 1_555 1_555
Zn1A O2 1_555 1_555
Zn1A_2 N2 1_555 1_555
Zn2A O10 1_555 1_555
N2A Zn1 1_555 1_555
O2A Zn1 1_555 1_555
O6_2 Zn1 1_555 1_555
O8_2 Zn1 1_555 1_555
O10A Zn2 1_555 1_555
O8 Zn1_2 1_555 1_555
O9 C1 1_555 1_555
C6 C7 1_555 1_555
C8 C9 1_555 1_555
C18 C19 1_555 1_555
C22 C23 1_555 1_555
C22 C24 1_555 1_555
C26 C28 1_555 1_555
C32 C33 1_555 1_555
C37 C38 1_555 1_555
C40 C41 1_555 1_555
C41 C42 1_555 1_555
C47 C48 1_555 1_555
C53 C54 1_555 1_555

#END
