
#######################################################################
#
#                 Cambridge Crystallographic Data Centre
#                                CCDC 
#
#######################################################################
#
# If this CIF has been generated from an entry in the Cambridge 
# Structural Database, then it will include bibliographic, chemical, 
# crystal, experimental, refinement or atomic coordinate data resulting 
# from the CCDC's data processing and validation procedures.
#
#######################################################################

data_QUNXAA
_symmetry_cell_setting           monoclinic
_symmetry_space_group_name_H-M   'P 21/c'
_symmetry_Int_Tables_number      14
_space_group_name_Hall           '-P 2ybc'
loop_
_symmetry_equiv_pos_site_id
_symmetry_equiv_pos_as_xyz
1 x,y,z
2 -x,1/2+y,1/2-z
3 -x,-y,-z
4 x,1/2-y,1/2+z
_cell_length_a                   14.7573(7)
_cell_length_b                   24.3576(7)
_cell_length_c                   17.9206(10)
_cell_angle_alpha                90
_cell_angle_beta                 117.685(3)
_cell_angle_gamma                90
_cell_volume                     5704.14
loop_
_atom_site_label
_atom_site_type_symbol
_atom_site_fract_x
_atom_site_fract_y
_atom_site_fract_z
Zn1 Zn 0.64382(5) 0.73379(3) 0.61673(3)
Zn2 Zn 0.17923(5) 1.24110(3) 0.66600(3)
N1 N 0.5364(4) 0.70781(19) 0.5007(2)
N2 N -0.0882(3) 0.71812(18) -0.0434(2)
O1 O 0.6232(3) 0.80789(16) 0.6458(2)
O2 O 0.6933(3) 0.82118(16) 0.5630(2)
O3 O 0.6545(3) 1.06846(16) 0.6583(2)
O4 O 1.2439(5) 0.3223(2) 0.6216(3)
O5 O 1.1520(4) 0.31756(19) 0.6886(3)
O6 O 0.8840(3) 0.69924(16) 0.7753(2)
O7 O 0.7758(3) 0.70440(18) 0.6387(2)
O8 O 1.1310(3) 0.57347(16) 0.6183(2)
O9 O 0.3014(3) 1.20020(16) 0.6828(2)
O10 O 0.4087(3) 1.18962(16) 0.8189(2)
C1 C 0.3828(4) 1.1826(2) 0.7424(3)
C2 C 0.4534(4) 1.1509(2) 0.7205(3)
C3 C 0.4227(4) 1.1335(2) 0.6385(3)
H1 H 0.3568 1.1413 0.5968
C4 C 0.4876(5) 1.1051(2) 0.6186(3)
H2 H 0.4658 1.0932 0.5635
C5 C 0.5857(4) 1.0940(2) 0.6797(3)
C6 C 0.6169(5) 1.1100(3) 0.7604(4)
H3 H 0.6823 1.1012 0.8021
C7 C 0.5519(4) 1.1390(2) 0.7802(3)
H4 H 0.5746 1.1510 0.8353
C8 C 0.6492(4) 1.0130(2) 0.6444(3)
C9 C 0.5990(5) 0.9773(3) 0.6730(3)
H5 H 0.5633 0.9909 0.7003
C10 C 0.6019(4) 0.9212(2) 0.6611(3)
H6 H 0.5678 0.8975 0.6802
C11 C 0.6544(4) 0.9005(2) 0.6214(3)
C12 C 0.7056(4) 0.9360(2) 0.5940(3)
H7 H 0.7424 0.9222 0.5677
C13 C 0.7024(4) 0.9919(3) 0.6053(3)
H8 H 0.7366 1.0155 0.5862
C14 C 0.6583(4) 0.8393(2) 0.6088(3)
C15 C 0.8576(4) 0.6908(2) 0.6985(3)
C16 C 0.9330(4) 0.6609(2) 0.6796(3)
C17 C 0.9089(4) 0.6494(3) 0.5972(3)
H9 H 0.8478 0.6624 0.5541
C18 C 0.9729(5) 0.6194(3) 0.5776(3)
H10 H 0.9544 0.6113 0.5216
C19 C 1.0643(4) 0.6013(2) 0.6404(3)
C20 C 1.0922(4) 0.6139(2) 0.7236(3)
H11 H 1.1551 0.6026 0.7664
C21 C 1.0264(4) 0.6432(2) 0.7418(3)
H12 H 1.0450 0.6514 0.7977
C22 C 1.0937(5) 0.4870(3) 0.6635(4)
H13 H 1.0485 0.5029 0.6799
C23 C 1.1155(5) 0.4300(3) 0.6734(4)
H14 H 1.0854 0.4083 0.6986
C24 C 1.1786(5) 0.4063(3) 0.6473(3)
C25 C 1.2227(5) 0.4381(3) 0.6111(4)
H15 H 1.2641 0.4217 0.5912
C26 C 1.2079(5) 0.4943(3) 0.6030(4)
H16 H 1.2416 0.5159 0.5808
C27 C 1.1420(4) 0.5174(2) 0.6288(3)
C28 C 1.1941(6) 0.3440(3) 0.6539(4)
C29 C 0.4711(5) 0.6682(3) 0.4926(3)
H17 H 0.4846 0.6467 0.5395
C30 C 0.3833(5) 0.6568(3) 0.4178(4)
H18 H 0.3420 0.6273 0.4151
C31 C 0.3579(5) 0.6885(3) 0.3491(3)
C32 C 0.4268(6) 0.7281(3) 0.3548(4)
H19 H 0.4151 0.7490 0.3078
C33 C 0.5120(5) 0.7367(3) 0.4288(4)
H20 H 0.5567 0.7641 0.4306
C34 C 0.2560(5) 0.6853(3) 0.2706(3)
H21 H 0.2622 0.7005 0.2226
C35 C 0.1550(6) 0.7107(3) 0.2731(4)
H22 H 0.1365 0.7474 0.2481
C36 C 0.0908(5) 0.6661(3) 0.2159(4)
H23 H 0.0459 0.6496 0.2365
C37 C 0.1911(5) 0.6317(3) 0.2437(3)
H24 H 0.2035 0.6127 0.2958
C38 C 0.0303(5) 0.6833(3) 0.1228(3)
C39 C 0.0724(5) 0.6892(3) 0.0693(4)
H25 H 0.1414 0.6817 0.0881
C40 C 0.0112(5) 0.7065(3) -0.0135(3)
H26 H 0.0407 0.7101 -0.0492
C41 C -0.1279(5) 0.7108(3) 0.0096(3)
H27 H -0.1975 0.7172 -0.0107
C42 C -0.0729(5) 0.6947(3) 0.0911(3)
H28 H -0.1044 0.6914 0.1254
C43 C 0.1618(6) 0.7066(4) 0.3643(4)
C44 C 0.1274(7) 0.6662(4) 0.3938(5)
H29 H 0.0857 0.6407 0.3541
C45 C 0.1451(7) 0.6569(3) 0.4750(5)
H30 H 0.1142 0.6273 0.4871
C46 C 0.2072(8) 0.6908(5) 0.5372(6)
H31 H 0.2233 0.6849 0.5933
C47 C 0.2512(6) 0.7414(4) 0.5085(5)
C48 C 0.2207(5) 0.7426(3) 0.4243(4)
C49 C 0.2669(7) 0.7948(4) 0.3996(6)
H32 H 0.2525 0.8014 0.3441
C50 C 0.3279(6) 0.8289(4) 0.4627(5)
H33 H 0.3528 0.8608 0.4503
C51 C 0.3541(8) 0.8163(4) 0.5472(7)
H34 H 0.4004 0.8394 0.5887
C52 C 0.3160(8) 0.7717(6) 0.5738(6)
H35 H 0.3336 0.7641 0.6297
C53 C 0.2078(6) 0.5897(3) 0.1889(4)
C54 C 0.2887(7) 0.5952(4) 0.1711(5)
H36 H 0.3303 0.6262 0.1891
C55 C 0.1422(9) 0.5440(4) 0.1589(6)
C56 C 0.0578(9) 0.5357(5) 0.1785(6)
H37 H 0.0465 0.5615 0.2116
C57 C 0.1640(14) 0.5011(5) 0.1121(7)
C58 C 0.3087(10) 0.5524(5) 0.1239(6)
H38 H 0.3638 0.5572 0.1128
C59 C 0.2527(13) 0.5067(5) 0.0956(7)
H39 H 0.2689 0.4798 0.0670
C60 C -0.0074(12) 0.4896(7) 0.1486(9)
H40 H -0.0609 0.4846 0.1617
C61 C 0.106(3) 0.4513(8) 0.0836(14)
H41 H 0.1253 0.4226 0.0597
C62 C 0.012(2) 0.4494(9) 0.0956(12)
H42 H -0.0356 0.4218 0.0687
Zn1A Zn 0.35618(5) 1.23379(3) 0.88327(3)
Zn2_2 Zn 1.17923(5) 0.24110(3) 0.66600(3)
Zn2A Zn -0.17923(5) 0.74110(3) -0.16600(3)
Zn2A_2 Zn 0.82077(5) 0.74110(3) 0.83400(3)
N2A N 0.0882(3) 1.21812(18) 0.5434(2)
O4_2 O 0.2439(5) 1.3223(2) 0.6216(3)
O5_2 O 0.1520(4) 1.31756(19) 0.6886(3)
O6A O 0.1160(3) 1.19924(16) 0.7247(2)
O10A O 0.5913(3) 0.68962(16) 0.6811(2)
loop_
_geom_bond_atom_site_label_1
_geom_bond_atom_site_label_2
_geom_bond_site_symmetry_1
_geom_bond_site_symmetry_2
Zn1 N1 1_555 1_555
Zn2 O9 1_555 1_555
N1 C29 1_555 1_555
N2 C40 1_555 1_555
O1 Zn1 1_555 1_555
O2 Zn1 1_555 1_555
O3 C5 1_555 1_555
O4 C28 1_555 1_555
O5 C28 1_555 1_555
O6 C15 1_555 1_555
O7 Zn1 1_555 1_555
O8 C19 1_555 1_555
O9 C1 1_555 1_555
O10 C1 1_555 1_555
C1 C2 1_555 1_555
C2 C3 1_555 1_555
C3 H1 1_555 1_555
C4 C3 1_555 1_555
H2 C4 1_555 1_555
C5 C4 1_555 1_555
C6 C5 1_555 1_555
H3 C6 1_555 1_555
C7 C2 1_555 1_555
H4 C7 1_555 1_555
C8 O3 1_555 1_555
C9 C8 1_555 1_555
H5 C9 1_555 1_555
C10 C9 1_555 1_555
H6 C10 1_555 1_555
C11 C10 1_555 1_555
C12 C11 1_555 1_555
H7 C12 1_555 1_555
C13 C8 1_555 1_555
H8 C13 1_555 1_555
C14 O1 1_555 1_555
C15 O7 1_555 1_555
C16 C15 1_555 1_555
C17 C16 1_555 1_555
H9 C17 1_555 1_555
C18 C17 1_555 1_555
H10 C18 1_555 1_555
C19 C18 1_555 1_555
C20 C19 1_555 1_555
H11 C20 1_555 1_555
C21 C16 1_555 1_555
H12 C21 1_555 1_555
C22 H13 1_555 1_555
C23 C22 1_555 1_555
H14 C23 1_555 1_555
C24 C23 1_555 1_555
C25 C24 1_555 1_555
H15 C25 1_555 1_555
C26 C25 1_555 1_555
H16 C26 1_555 1_555
C27 O8 1_555 1_555
C28 C24 1_555 1_555
C29 H17 1_555 1_555
C30 C29 1_555 1_555
H18 C30 1_555 1_555
C31 C30 1_555 1_555
C32 C31 1_555 1_555
H19 C32 1_555 1_555
C33 N1 1_555 1_555
H20 C33 1_555 1_555
C34 C31 1_555 1_555
H21 C34 1_555 1_555
C35 C34 1_555 1_555
H22 C35 1_555 1_555
C36 C35 1_555 1_555
H23 C36 1_555 1_555
C37 C34 1_555 1_555
H24 C37 1_555 1_555
C38 C36 1_555 1_555
C39 C38 1_555 1_555
H25 C39 1_555 1_555
C40 C39 1_555 1_555
H26 C40 1_555 1_555
C41 N2 1_555 1_555
H27 C41 1_555 1_555
C42 C38 1_555 1_555
H28 C42 1_555 1_555
C43 C35 1_555 1_555
C44 C43 1_555 1_555
H29 C44 1_555 1_555
C45 C44 1_555 1_555
H30 C45 1_555 1_555
C46 C45 1_555 1_555
H31 C46 1_555 1_555
C47 C46 1_555 1_555
C48 C43 1_555 1_555
C49 C48 1_555 1_555
H32 C49 1_555 1_555
C50 C49 1_555 1_555
H33 C50 1_555 1_555
C51 C50 1_555 1_555
H34 C51 1_555 1_555
C52 C47 1_555 1_555
H35 C52 1_555 1_555
C53 C37 1_555 1_555
C54 C53 1_555 1_555
H36 C54 1_555 1_555
C55 C53 1_555 1_555
C56 C55 1_555 1_555
H37 C56 1_555 1_555
C57 C55 1_555 1_555
C58 C54 1_555 1_555
H38 C58 1_555 1_555
C59 C57 1_555 1_555
H39 C59 1_555 1_555
C60 C56 1_555 1_555
H40 C60 1_555 1_555
C61 C57 1_555 1_555
H41 C61 1_555 1_555
C62 C60 1_555 1_555
H42 C62 1_555 1_555
Zn1A O10 1_555 1_555
Zn2_2 O4 1_555 1_555
Zn2A N2 1_555 1_555
Zn2A_2 O6 1_555 1_555
N2A Zn2 1_555 1_555
O4_2 Zn2 1_555 1_555
O5_2 Zn2 1_555 1_555
O6A Zn2 1_555 1_555
O10A Zn1 1_555 1_555
O2 C14 1_555 1_555
O5 Zn2_2 1_555 1_555
C6 C7 1_555 1_555
C11 C14 1_555 1_555
C12 C13 1_555 1_555
C20 C21 1_555 1_555
C22 C27 1_555 1_555
C26 C27 1_555 1_555
C32 C33 1_555 1_555
C36 C37 1_555 1_555
C41 C42 1_555 1_555
C47 C48 1_555 1_555
C51 C52 1_555 1_555
C58 C59 1_555 1_555
C61 C62 1_555 1_555

#END
