
#######################################################################
#
#                 Cambridge Crystallographic Data Centre
#                                CCDC 
#
#######################################################################
#
# If this CIF has been generated from an entry in the Cambridge 
# Structural Database, then it will include bibliographic, chemical, 
# crystal, experimental, refinement or atomic coordinate data resulting 
# from the CCDC's data processing and validation procedures.
#
#######################################################################

data_QUNZEF
_symmetry_cell_setting           monoclinic
_symmetry_space_group_name_H-M   'P 21/n'
_symmetry_Int_Tables_number      14
_space_group_name_Hall           '-P 2yn'
loop_
_symmetry_equiv_pos_site_id
_symmetry_equiv_pos_as_xyz
1 x,y,z
2 1/2-x,1/2+y,1/2-z
3 -x,-y,-z
4 1/2+x,1/2-y,1/2+z
_cell_length_a                   11.4821(11)
_cell_length_b                   6.3061(6)
_cell_length_c                   14.7581(14)
_cell_angle_alpha                90
_cell_angle_beta                 107.368(2)
_cell_angle_gamma                90
_cell_volume                     1019.87
loop_
_atom_site_label
_atom_site_type_symbol
_atom_site_fract_x
_atom_site_fract_y
_atom_site_fract_z
Cu1 Cu 0.236046(19) 0.54388(3) 0.254333(12)
O1 O 0.31232(11) 0.46258(17) 0.38685(8)
O2 O 0.35504(11) 0.11464(17) 0.37652(7)
O3 O 0.41845(11) 0.46442(18) 0.57641(8)
C1 C 0.35750(14) 0.2879(2) 0.41979(10)
C2 C 0.42538(16) 0.2742(3) 0.52604(11)
H1 H 0.3908 0.1561 0.5540
H2 H 0.5122 0.2411 0.5343
C3 C 0.31406(16) 0.5071(3) 0.59771(11)
C4 C 0.31632(17) 0.6930(3) 0.65037(11)
H3 H 0.3871 0.7800 0.6670
C5 C 0.21587(17) 0.7500(3) 0.67815(11)
H4 H 0.2170 0.8772 0.7129
C6 C 0.11207(16) 0.6190(3) 0.65476(11)
C7 C 0.10972(17) 0.4350(3) 0.60110(12)
H5 H 0.0390 0.3479 0.5845
C8 C 0.20915(16) 0.3792(3) 0.57206(11)
H6 H 0.2067 0.2552 0.5350
C9 C 0.01135(17) 0.6664(3) 0.69166(12)
N1 N -0.06679(16) 0.6953(3) 0.72376(12)
N2 N 0.31816(14) 0.31431(19) 0.20505(9)
N3 N 0.33275(14) 0.3438(2) 0.12699(10)
N4 N 0.34966(18) 0.3769(3) 0.05597(11)
Cu1A Cu 0.263954(19) 0.04388(3) 0.245667(12)
Cu1B Cu -0.236046(19) 0.45612(3) 0.745667(12)
O2A O 0.14496(11) 0.61464(17) 0.12348(7)
N1B N 0.06679(16) 0.3047(3) 0.27624(12)
N2A N 0.18184(14) 0.81431(19) 0.29495(9)
loop_
_geom_bond_atom_site_label_1
_geom_bond_atom_site_label_2
_geom_bond_site_symmetry_1
_geom_bond_site_symmetry_2
Cu1 O1 1_555 1_555
O1 C1 1_555 1_555
O2 C1 1_555 1_555
O3 C2 1_555 1_555
C1 C2 1_555 1_555
C2 H1 1_555 1_555
H2 C2 1_555 1_555
C3 O3 1_555 1_555
C4 C3 1_555 1_555
H3 C4 1_555 1_555
C5 C4 1_555 1_555
H4 C5 1_555 1_555
C6 C5 1_555 1_555
C7 C6 1_555 1_555
H5 C7 1_555 1_555
C8 C3 1_555 1_555
H6 C8 1_555 1_555
C9 C6 1_555 1_555
N1 C9 1_555 1_555
N2 Cu1 1_555 1_555
N3 N2 1_555 1_555
N4 N3 1_555 1_555
Cu1A O2 1_555 1_555
Cu1B N1 1_555 1_555
O2A Cu1 1_555 1_555
N1B Cu1 1_555 1_555
N2A Cu1 1_555 1_555
C7 C8 1_555 1_555
N2 Cu1A 1_555 1_555

#END
