
#######################################################################
#
#                 Cambridge Crystallographic Data Centre
#                                CCDC 
#
#######################################################################
#
# If this CIF has been generated from an entry in the Cambridge 
# Structural Database, then it will include bibliographic, chemical, 
# crystal, experimental, refinement or atomic coordinate data resulting 
# from the CCDC's data processing and validation procedures.
#
#######################################################################

data_QUPCIO
_symmetry_cell_setting           triclinic
_symmetry_space_group_name_H-M   'P -1'
_symmetry_Int_Tables_number      2
_space_group_name_Hall           '-P 1'
loop_
_symmetry_equiv_pos_site_id
_symmetry_equiv_pos_as_xyz
1 x,y,z
2 -x,-y,-z
_cell_length_a                   10.1901(17)
_cell_length_b                   14.441(2)
_cell_length_c                   14.560(2)
_cell_angle_alpha                77.697(6)
_cell_angle_beta                 76.965(6)
_cell_angle_gamma                73.843(5)
_cell_volume                     1978.89
loop_
_atom_site_label
_atom_site_type_symbol
_atom_site_fract_x
_atom_site_fract_y
_atom_site_fract_z
Ru1 Ru 0.03322(5) 0.06865(3) -0.04111(3)
Ru2 Ru 0.45221(6) 0.46413(4) -0.42729(3)
S1 S 0.23907(18) 0.64156(12) -0.08382(12)
F1 F -0.0194(5) -0.2448(3) -0.1842(3)
F2 F -0.3625(4) 0.2868(2) -0.0955(3)
F3 F 0.8224(5) 0.2752(3) -0.2882(3)
F4 F 0.4873(7) 0.8561(3) -0.5226(3)
O1 O 0.0556(4) 0.0189(2) -0.1648(2)
O2 O -0.0097(4) -0.1156(2) -0.0844(2)
O3 O -0.1673(4) 0.1359(2) -0.0469(2)
O4 O -0.2328(4) 0.0003(2) 0.0333(2)
O5 O 0.6457(4) 0.4014(3) -0.3934(2)
O6 O 0.7400(4) 0.4706(3) -0.5364(2)
O7 O 0.4427(4) 0.5858(3) -0.3721(2)
O8 O 0.5309(4) 0.6584(3) -0.5152(2)
N1 N 0.0985(5) 0.2033(3) -0.1209(3)
N2 N 0.3345(5) 0.4049(3) -0.2841(3)
N3 N 0.1099(5) 0.6510(3) 0.0037(3)
N4 N 0.2254(5) 0.5492(3) -0.1231(3)
C1 C 0.0310(6) -0.0633(4) -0.1624(4)
C2 C 0.0532(7) -0.0987(4) -0.2539(4)
C3 C 0.1033(9) -0.0432(6) -0.3379(4)
C4 C 0.1296(11) -0.0755(6) -0.4255(5)
C5 C 0.1056(10) -0.1635(7) -0.4301(6)
C6 C 0.0567(10) -0.2206(6) -0.3485(6)
C7 C 0.0289(8) -0.1869(5) -0.2614(5)
C8 C -0.2610(6) 0.0897(4) -0.0063(4)
C9 C -0.4095(6) 0.1406(4) 0.0004(4)
C10 C -0.4537(7) 0.2380(4) -0.0394(4)
C11 C -0.5910(7) 0.2892(5) -0.0240(4)
C12 C -0.6886(8) 0.2400(5) 0.0315(5)
C13 C -0.6484(7) 0.1432(5) 0.0702(4)
C14 C -0.5087(7) 0.0930(5) 0.0549(4)
C15 C 0.7502(7) 0.4148(4) -0.4560(4)
C16 C 0.8932(7) 0.3631(4) -0.4387(4)
C17 C 0.9219(9) 0.2953(5) -0.3594(5)
C18 C 1.0581(9) 0.2459(6) -0.3476(6)
C19 C 1.1651(10) 0.2678(6) -0.4165(6)
C20 C 1.1414(9) 0.3344(6) -0.4952(6)
C21 C 1.0061(8) 0.3822(5) -0.5078(6)
C22 C 0.4834(6) 0.6572(4) -0.4264(4)
C23 C 0.4804(7) 0.7403(4) -0.3792(4)
C24 C 0.4748(8) 0.7240(5) -0.2833(5)
C25 C 0.4796(11) 0.7961(6) -0.2363(5)
C26 C 0.4876(11) 0.8869(5) -0.2858(5)
C27 C 0.4911(12) 0.9054(5) -0.3819(5)
C28 C 0.4870(10) 0.8330(5) -0.4272(5)
C29 C 0.1142(6) 0.2815(4) -0.1324(3)
C30 C 0.1394(6) 0.3748(4) -0.1434(4)
C31 C 0.2482(6) 0.3943(4) -0.2214(4)
C32 C 0.0717(6) 0.4376(4) -0.0763(4)
C33 C 0.1148(6) 0.5211(4) -0.0677(3)
C34 C 0.0476(6) 0.5805(4) 0.0056(4)
H1 H 0.1199 0.0178 -0.3356
H2 H 0.1642 -0.0367 -0.4823
H3 H 0.1230 -0.1848 -0.4901
H4 H 0.0419 -0.2820 -0.3512
H5 H -0.6181 0.3561 -0.0507
H6 H -0.7837 0.2736 0.0428
H7 H -0.7161 0.1101 0.1076
H8 H -0.4817 0.0261 0.0819
H9 H 1.0754 0.1981 -0.2929
H10 H 1.2580 0.2357 -0.4091
H11 H 1.2174 0.3488 -0.5423
H12 H 0.9906 0.4282 -0.5640
H13 H 0.4674 0.6618 -0.2478
H14 H 0.4775 0.7826 -0.1693
H15 H 0.4906 0.9365 -0.2533
H16 H 0.4964 0.9681 -0.4171
Ru1A Ru -0.03322(5) -0.06865(3) 0.04111(3)
Ru1A_2 Ru -0.03322(5) 0.93135(3) 0.04111(3)
Ru2A Ru -0.45221(6) 0.53587(4) 0.42729(3)
Ru2A_2 Ru 0.54779(6) 0.53587(4) -0.57271(3)
Ru2_2 Ru -0.54779(6) 0.46413(4) 0.57271(3)
S1A S -0.23907(18) 0.35844(12) 0.08382(12)
F1A F 0.0194(5) 0.2448(3) 0.1842(3)
F2A F 0.3625(4) -0.2868(2) 0.0955(3)
F3A F 0.1776(5) 0.7248(3) -0.7118(3)
F4A F 0.5127(7) 0.1439(3) -0.4774(3)
O1A O -0.0556(4) -0.0189(2) 0.1648(2)
O2A O 0.0097(4) 0.1156(2) 0.0844(2)
O3A O 0.1673(4) -0.1359(2) 0.0469(2)
O4A O 0.2328(4) -0.0003(2) -0.0333(2)
O5A O 0.3543(4) 0.5986(3) -0.6066(2)
O5A_2 O -0.6457(4) 0.5986(3) 0.3934(2)
O6A O 0.2600(4) 0.5294(3) -0.4636(2)
O6_2 O -0.2600(4) 0.4706(3) 0.4636(2)
O7A O 0.5573(4) 0.4142(3) -0.6279(2)
O7A_2 O -0.4427(4) 0.4142(3) 0.3721(2)
O8A O 0.4691(4) 0.3416(3) -0.4848(2)
O8_2 O -0.4691(4) 0.6584(3) 0.4848(2)
N1A N -0.0985(5) 0.7967(3) 0.1209(3)
N1A_2 N -0.0985(5) -0.2033(3) 0.1209(3)
N2A N -0.3345(5) 0.5951(3) 0.2841(3)
N3A N -0.1099(5) 0.3490(3) -0.0037(3)
N4A N -0.2254(5) 0.4508(3) 0.1231(3)
C1A C -0.0310(6) 0.0633(4) 0.1624(4)
C2A C -0.0532(7) 0.0987(4) 0.2539(4)
C3A C -0.1033(9) 0.0432(6) 0.3379(4)
C4A C -0.1296(11) 0.0755(6) 0.4255(5)
C5A C -0.1056(10) 0.1635(7) 0.4301(6)
C6A C -0.0567(10) 0.2206(6) 0.3485(6)
C7A C -0.0289(8) 0.1869(5) 0.2614(5)
C8A C 0.2610(6) -0.0897(4) 0.0063(4)
C9A C 0.4095(6) -0.1406(4) -0.0004(4)
C10A C 0.4537(7) -0.2380(4) 0.0394(4)
C11A C 0.5910(7) -0.2892(5) 0.0240(4)
C12A C 0.6886(8) -0.2400(5) -0.0315(5)
C13A C 0.6484(7) -0.1432(5) -0.0702(4)
C14A C 0.5087(7) -0.0930(5) -0.0549(4)
C15A C 0.2498(7) 0.5852(4) -0.5440(4)
C16A C 0.1068(7) 0.6369(4) -0.5613(4)
C17A C 0.0781(9) 0.7047(5) -0.6406(5)
C18A C -0.0581(9) 0.7541(6) -0.6524(6)
C19A C -0.1651(10) 0.7322(6) -0.5835(6)
C20A C -0.1414(9) 0.6656(6) -0.5048(6)
C21A C -0.0061(8) 0.6178(5) -0.4922(6)
C22A C 0.5166(6) 0.3428(4) -0.5736(4)
C23A C 0.5196(7) 0.2597(4) -0.6208(4)
C24A C 0.5252(8) 0.2760(5) -0.7167(5)
C25A C 0.5204(11) 0.2039(6) -0.7637(5)
C26A C 0.5124(11) 0.1131(5) -0.7142(5)
C27A C 0.5089(12) 0.0946(5) -0.6181(5)
C28A C 0.5130(10) 0.1670(5) -0.5728(5)
C29A C -0.1142(6) 0.7185(4) 0.1324(3)
C30A C -0.1394(6) 0.6252(4) 0.1434(4)
C31A C -0.2482(6) 0.6057(4) 0.2214(4)
C32A C -0.0717(6) 0.5624(4) 0.0763(4)
C33A C -0.1148(6) 0.4789(4) 0.0677(3)
C34A C -0.0476(6) 0.4195(4) -0.0056(4)
H1A H -0.1199 -0.0178 0.3356
H2A H -0.1642 0.0367 0.4823
H3A H -0.1230 0.1848 0.4901
H4A H -0.0419 0.2820 0.3512
H5A H 0.6181 -0.3561 0.0507
H6A H 0.7837 -0.2736 -0.0428
H7A H 0.7161 -0.1101 -0.1076
H8A H 0.4817 -0.0261 -0.0819
H9A H -0.0754 0.8019 -0.7071
H10A H -0.2580 0.7643 -0.5909
H11A H -0.2174 0.6512 -0.4577
H12A H 0.0094 0.5718 -0.4360
H13A H 0.5326 0.3382 -0.7522
H14A H 0.5225 0.2174 -0.8307
H15A H 0.5094 0.0635 -0.7467
H16A H 0.5036 0.0319 -0.5829
Cl1 Cl 0.1587(3) 0.4533(2) 0.2496(2)
Cl2 Cl 0.3913(2) 0.47915(17) 0.10287(15)
C35 C 0.2743(10) 0.5254(7) 0.1996(6)
H17 H 0.3260 0.5284 0.2485
H18 H 0.2225 0.5927 0.1779
Cl3 Cl 0.4299(2) 0.14675(13) -0.22707(13)
Cl4 Cl 0.7266(2) 0.08060(16) -0.29555(17)
C36 C 0.5816(7) 0.1815(5) -0.2897(5)
H19 H 0.5996 0.2296 -0.2577
H20 H 0.5681 0.2135 -0.3552
loop_
_geom_bond_atom_site_label_1
_geom_bond_atom_site_label_2
_geom_bond_site_symmetry_1
_geom_bond_site_symmetry_2
Ru1 O1 1_555 1_555
Ru2 O5 1_555 1_555
Cl1 C35 1_555 1_555
Cl2 C35 1_555 1_555
Cl3 C36 1_555 1_555
Cl4 C36 1_555 1_555
S1 N3 1_555 1_555
F1 C7 1_555 1_555
F2 C10 1_555 1_555
F3 C17 1_555 1_555
F4 C28 1_555 1_555
O1 C1 1_555 1_555
O2 C1 1_555 1_555
O3 Ru1 1_555 1_555
O4 C8 1_555 1_555
O5 C15 1_555 1_555
O6 C15 1_555 1_555
O7 Ru2 1_555 1_555
O8 C22 1_555 1_555
N1 Ru1 1_555 1_555
N2 Ru2 1_555 1_555
N3 C34 1_555 1_555
N4 S1 1_555 1_555
C1 C2 1_555 1_555
C2 C3 1_555 1_555
C3 C4 1_555 1_555
C4 C5 1_555 1_555
C5 C6 1_555 1_555
C6 C7 1_555 1_555
C7 C2 1_555 1_555
C8 O3 1_555 1_555
C9 C8 1_555 1_555
C10 C9 1_555 1_555
C11 C10 1_555 1_555
C12 C11 1_555 1_555
C13 C12 1_555 1_555
C14 C9 1_555 1_555
C15 C16 1_555 1_555
C16 C17 1_555 1_555
C17 C18 1_555 1_555
C18 C19 1_555 1_555
C19 C20 1_555 1_555
C20 C21 1_555 1_555
C21 C16 1_555 1_555
C22 O7 1_555 1_555
C23 C22 1_555 1_555
C24 C23 1_555 1_555
C25 C24 1_555 1_555
C26 C25 1_555 1_555
C27 C26 1_555 1_555
C28 C23 1_555 1_555
C29 N1 1_555 1_555
C30 C29 1_555 1_555
C31 N2 1_555 1_555
C32 C30 1_555 1_555
C33 N4 1_555 1_555
C34 C33 1_555 1_555
C35 H17 1_555 1_555
C36 H19 1_555 1_555
H1 C3 1_555 1_555
H2 C4 1_555 1_555
H3 C5 1_555 1_555
H4 C6 1_555 1_555
H5 C11 1_555 1_555
H6 C12 1_555 1_555
H7 C13 1_555 1_555
H8 C14 1_555 1_555
H9 C18 1_555 1_555
H10 C19 1_555 1_555
H11 C20 1_555 1_555
H12 C21 1_555 1_555
H13 C24 1_555 1_555
H14 C25 1_555 1_555
H15 C26 1_555 1_555
H16 C27 1_555 1_555
H18 C35 1_555 1_555
H20 C36 1_555 1_555
Ru1A Ru1 1_555 1_555
Ru1A_2 N1A 1_555 1_555
Ru2A Ru2_2 1_555 1_555
Ru2A_2 Ru2 1_555 1_555
S1A N3A 1_555 1_555
F1A C7A 1_555 1_555
F2A C10A 1_555 1_555
F3A C17A 1_555 1_555
F4A C28A 1_555 1_555
O1A Ru1A 1_555 1_555
O2A Ru1 1_555 1_555
O3A Ru1A 1_555 1_555
O4A Ru1 1_555 1_555
O5A Ru2A_2 1_555 1_555
O5A_2 Ru2A 1_555 1_555
O6A Ru2 1_555 1_555
O6_2 Ru2A 1_555 1_555
O7A Ru2A_2 1_555 1_555
O7A_2 Ru2A 1_555 1_555
O8A Ru2 1_555 1_555
O8_2 Ru2A 1_555 1_555
N1A C29A 1_555 1_555
N1A_2 Ru1A 1_555 1_555
N2A Ru2A 1_555 1_555
N3A C34A 1_555 1_555
N4A S1A 1_555 1_555
C1A O1A 1_555 1_555
C2A C1A 1_555 1_555
C3A C2A 1_555 1_555
C4A C3A 1_555 1_555
C5A C4A 1_555 1_555
C6A C5A 1_555 1_555
C7A C2A 1_555 1_555
C8A O3A 1_555 1_555
C9A C8A 1_555 1_555
C10A C9A 1_555 1_555
C11A C10A 1_555 1_555
C12A C11A 1_555 1_555
C13A C12A 1_555 1_555
C14A C9A 1_555 1_555
C15A O5A 1_555 1_555
C16A C15A 1_555 1_555
C17A C16A 1_555 1_555
C18A C17A 1_555 1_555
C19A C18A 1_555 1_555
C20A C19A 1_555 1_555
C21A C16A 1_555 1_555
C22A O7A 1_555 1_555
C23A C22A 1_555 1_555
C24A C23A 1_555 1_555
C25A C24A 1_555 1_555
C26A C25A 1_555 1_555
C27A C26A 1_555 1_555
C28A C23A 1_555 1_555
C29A C30A 1_555 1_555
C30A C31A 1_555 1_555
C31A N2A 1_555 1_555
C32A C34 1_555 1_555
C33A N4A 1_555 1_555
C34A C32 1_555 1_555
H1A C3A 1_555 1_555
H2A C4A 1_555 1_555
H3A C5A 1_555 1_555
H4A C6A 1_555 1_555
H5A C11A 1_555 1_555
H6A C12A 1_555 1_555
H7A C13A 1_555 1_555
H8A C14A 1_555 1_555
H9A C18A 1_555 1_555
H10A C19A 1_555 1_555
H11A C20A 1_555 1_555
H12A C21A 1_555 1_555
H13A C24A 1_555 1_555
H14A C25A 1_555 1_555
H15A C26A 1_555 1_555
H16A C27A 1_555 1_555
O2 Ru1A 1_555 1_555
O4 Ru1A 1_555 1_555
O6 Ru2A_2 1_555 1_555
O8 Ru2A_2 1_555 1_555
C13 C14 1_555 1_555
C27 C28 1_555 1_555
C30 C31 1_555 1_555
C32 C33 1_555 1_555
O2A C1A 1_555 1_555
O4A C8A 1_555 1_555
O6A C15A 1_555 1_555
O8A C22A 1_555 1_555
C6A C7A 1_555 1_555
C13A C14A 1_555 1_555
C20A C21A 1_555 1_555
C27A C28A 1_555 1_555
C30A C32A 1_555 1_555
C32A C33A 1_555 1_555
C33A C34A 1_555 1_555

#END
