
#######################################################################
#
#                 Cambridge Crystallographic Data Centre
#                                CCDC 
#
#######################################################################
#
# If this CIF has been generated from an entry in the Cambridge 
# Structural Database, then it will include bibliographic, chemical, 
# crystal, experimental, refinement or atomic coordinate data resulting 
# from the CCDC's data processing and validation procedures.
#
#######################################################################

data_QUPGAK
_symmetry_cell_setting           monoclinic
_symmetry_space_group_name_H-M   'P 21/c'
_symmetry_Int_Tables_number      14
_space_group_name_Hall           '-P 2ybc'
loop_
_symmetry_equiv_pos_site_id
_symmetry_equiv_pos_as_xyz
1 x,y,z
2 -x,1/2+y,1/2-z
3 -x,-y,-z
4 x,1/2-y,1/2+z
_cell_length_a                   9.7584(2)
_cell_length_b                   15.2777(4)
_cell_length_c                   8.9523(2)
_cell_angle_alpha                90
_cell_angle_beta                 104.000(1)
_cell_angle_gamma                90
_cell_volume                     1295.02
loop_
_atom_site_label
_atom_site_type_symbol
_atom_site_fract_x
_atom_site_fract_y
_atom_site_fract_z
K1 K 1.02267(5) 0.45544(3) 0.83004(5)
N1 N 0.84374(18) 0.38662(11) 1.00553(19)
N2 N 1.12875(17) 0.38212(10) 1.12724(19)
C1 C 0.7046(2) 0.38635(14) 0.9433(3)
H1 H 0.6705 0.4242 0.8582
C2 C 0.6065(2) 0.33618(16) 0.9915(3)
H2 H 0.5091 0.3387 0.9409
C3 C 0.6564(3) 0.28114(15) 1.1184(3)
H3 H 0.5924 0.2454 1.1561
C4 C 0.7974(2) 0.27925(13) 1.1875(3)
H4 H 0.8313 0.2422 1.2737
C5 C 0.8944(2) 0.33247(12) 1.1313(2)
C6 C 1.0434(2) 0.33162(12) 1.1973(2)
C7 C 1.1073(2) 0.28107(13) 1.3300(2)
H5 H 1.0494 0.2490 1.3820
C8 C 1.2505(3) 0.27834(14) 1.3828(3)
H6 H 1.2922 0.2443 1.4708
C9 C 1.3361(2) 0.32616(15) 1.3064(3)
H7 H 1.4362 0.3237 1.3383
C10 C 1.2684(2) 0.37653(13) 1.1838(2)
H8 H 1.3261 0.4106 1.1345
N3 N 1.2759(3) 0.4478(3) 0.7249(4)
H9 H 1.3440 0.4367 0.8136
H10 H 1.2663 0.3963 0.6702
C11 C 1.3440(3) 0.5010(3) 0.6439(5)
H11 H 1.4254 0.4681 0.6246
H12 H 1.3826 0.5513 0.7105
C12 C 1.2647(4) 0.5353(3) 0.4985(4)
H13 H 1.3267 0.5778 0.4630
H14 H 1.2492 0.4861 0.4242
N4 N 1.1301(3) 0.5776(2) 0.4842(3)
H15 H 1.098(3) 0.543(4) 0.546(7)
H16 H 1.117(8) 0.637(4) 0.525(9)
K1B K 0.97733(5) 0.54456(3) 1.16996(5)
K1B_2 K 0.97733(5) 0.54456(3) 0.16996(5)
N1B N 1.15626(18) 0.61338(11) 0.99447(19)
N2B N 0.87125(17) 0.61788(10) 0.87276(19)
N4B N 0.8699(3) 0.4224(2) 0.5158(3)
H15B H 0.902(3) 0.457(4) 0.454(7)
H16B H 0.883(8) 0.363(4) 0.475(9)
loop_
_geom_bond_atom_site_label_1
_geom_bond_atom_site_label_2
_geom_bond_site_symmetry_1
_geom_bond_site_symmetry_2
K1 N1 1_555 1_555
N1 C1 1_555 1_555
N2 K1 1_555 1_555
C1 H1 1_555 1_555
C2 C1 1_555 1_555
H2 C2 1_555 1_555
C3 C2 1_555 1_555
H3 C3 1_555 1_555
C4 C3 1_555 1_555
H4 C4 1_555 1_555
C5 N1 1_555 1_555
C6 N2 1_555 1_555
C7 C6 1_555 1_555
H5 C7 1_555 1_555
C8 C7 1_555 1_555
H6 C8 1_555 1_555
C9 C8 1_555 1_555
H7 C9 1_555 1_555
C10 N2 1_555 1_555
H8 C10 1_555 1_555
N3 K1 1_555 1_555
H9 N3 1_555 1_555
H10 N3 1_555 1_555
C11 N3 1_555 1_555
H11 C11 1_555 1_555
H12 C11 1_555 1_555
C12 C11 1_555 1_555
H13 C12 1_555 1_555
H14 C12 1_555 1_555
N4 C12 1_555 1_555
H15 N4 1_555 1_555
H16 N4 1_555 1_555
K1B N1 1_555 1_555
K1B_2 N4 1_555 1_555
N1B K1 1_555 1_555
N2B K1 1_555 1_555
N4B K1 1_555 1_555
H15B N4B 1_555 1_555
H16B N4B 1_555 1_555
N2 K1B 1_555 1_555
C4 C5 1_555 1_555
C5 C6 1_555 1_555
C9 C10 1_555 1_555
K1B N1B 1_555 1_555
K1B N2B 1_555 1_555

#END
