
#######################################################################
#
#                 Cambridge Crystallographic Data Centre
#                                CCDC 
#
#######################################################################
#
# If this CIF has been generated from an entry in the Cambridge 
# Structural Database, then it will include bibliographic, chemical, 
# crystal, experimental, refinement or atomic coordinate data resulting 
# from the CCDC's data processing and validation procedures.
#
#######################################################################

data_QUPHUG
_symmetry_cell_setting           monoclinic
_symmetry_space_group_name_H-M   'P 21/c'
_symmetry_Int_Tables_number      14
_space_group_name_Hall           '-P 2ybc'
loop_
_symmetry_equiv_pos_site_id
_symmetry_equiv_pos_as_xyz
1 x,y,z
2 -x,1/2+y,1/2-z
3 -x,-y,-z
4 x,1/2-y,1/2+z
_cell_length_a                   10.476(2)
_cell_length_b                   19.880(4)
_cell_length_c                   12.182(5)
_cell_angle_alpha                90
_cell_angle_beta                 122.31(2)
_cell_angle_gamma                90
_cell_volume                     2144.24
loop_
_atom_site_label
_atom_site_type_symbol
_atom_site_fract_x
_atom_site_fract_y
_atom_site_fract_z
Zn1 Zn 1.0000 0.0000 0.5000
O1 O 0.8451(2) 0.32272(8) 0.57606(19)
O2 O 1.1589(2) 0.32338(8) 0.42552(18)
O3 O 0.78927(17) -0.00186(7) 0.33081(15)
O4 O 0.90200(17) 0.00806(7) 0.60613(15)
N1 N 0.9957(2) 0.32349(8) 0.49400(17)
N2 N 0.9990(2) 0.11186(8) 0.49394(18)
C1 C 1.1666(2) 0.46516(10) 0.4191(2)
H1 H 1.2214 0.4420 0.3913
C2 C 0.8345(2) 0.46433(10) 0.5810(2)
H2 H 0.7791 0.4409 0.6079
C3 C 1.0868(2) 0.43025(9) 0.46039(19)
C4 C 1.0010(2) 0.46448(8) 0.50058(19)
C5 C 0.9166(2) 0.42972(9) 0.54171(19)
C6 C 0.9149(2) 0.35532(10) 0.5411(2)
C7 C 1.0877(2) 0.35574(10) 0.4583(2)
C8 C 0.9962(2) 0.25098(9) 0.4942(2)
C9 C 1.0606(3) 0.21604(10) 0.6091(2)
H3 H 1.1044 0.2385 0.6882
C10 C 0.9335(3) 0.21623(10) 0.3794(2)
H4 H 0.8892 0.2388 0.3004
C11 C 0.9382(3) 0.14657(10) 0.3846(2)
H5 H 0.8963 0.1229 0.3069
C12 C 1.0585(3) 0.14662(10) 0.6041(2)
H6 H 1.1009 0.1229 0.6818
C13 C 0.5304(4) 0.0196(2) 0.1895(3)
H7 H 0.5471 0.0499 0.1371
H8 H 0.4469 0.0352 0.1944
H9 H 0.5081 -0.0245 0.1512
C14 C 0.6707(3) 0.01639(13) 0.3245(2)
C15 C 0.6569(3) 0.03285(16) 0.4287(3)
H10 H 0.5635 0.0492 0.4085
C16 C 0.7684(3) 0.02746(13) 0.5604(2)
C17 C 0.7286(3) 0.0444(2) 0.6590(3)
H11 H 0.7588 0.0081 0.7200
H12 H 0.6215 0.0510 0.6157
H13 H 0.7801 0.0848 0.7041
O1B O 1.1549(2) 0.67728(8) 0.42394(19)
O2B O 0.8411(2) 0.67662(8) 0.57448(18)
N1B N 1.0043(2) 0.67651(8) 0.50600(17)
N2B N 1.0010(2) 0.88814(8) 0.50606(18)
C1B C 0.8334(2) 0.53484(10) 0.5809(2)
H1B H 0.7786 0.5580 0.6087
C2B C 1.1655(2) 0.53567(10) 0.4190(2)
H2B H 1.2209 0.5591 0.3921
C3B C 0.9132(2) 0.56975(9) 0.53961(19)
C4B C 0.9990(2) 0.53552(8) 0.49942(19)
C5B C 1.0834(2) 0.57028(9) 0.45829(19)
C6B C 1.0851(2) 0.64468(10) 0.4589(2)
C7B C 0.9123(2) 0.64426(10) 0.5417(2)
C8B C 1.0038(2) 0.74902(9) 0.5058(2)
C9B C 0.9394(3) 0.78396(10) 0.3909(2)
H3B H 0.8956 0.7615 0.3118
C10B C 1.0665(3) 0.78377(10) 0.6206(2)
H4B H 1.1108 0.7612 0.6996
C11B C 1.0618(3) 0.85343(10) 0.6154(2)
H5B H 1.1037 0.8771 0.6931
C12B C 0.9415(3) 0.85338(10) 0.3959(2)
H6B H 0.8991 0.8771 0.3182
O3B O 1.21073(17) 0.00186(7) 0.66919(15)
O4B O 1.09800(17) -0.00806(7) 0.39387(15)
C13B C 1.4696(4) -0.0196(2) 0.8105(3)
H7B H 1.4529 -0.0499 0.8629
H8B H 1.5531 -0.0352 0.8056
H9B H 1.4919 0.0245 0.8488
C14B C 1.3293(3) -0.01639(13) 0.6755(2)
C15B C 1.3431(3) -0.03285(16) 0.5713(3)
H10B H 1.4365 -0.0492 0.5915
C16B C 1.2316(3) -0.02746(13) 0.4396(2)
C17B C 1.2714(3) -0.0444(2) 0.3410(3)
H11B H 1.2412 -0.0081 0.2800
H12B H 1.3785 -0.0510 0.3843
H13B H 1.2199 -0.0848 0.2959
Zn1_2 Zn 1.0000 1.0000 0.5000
N2B_2 N 1.0010(2) -0.11186(8) 0.50606(18)
O5 O 0.2818(3) 0.13431(15) 0.2447(3)
N3 N 0.4462(5) 0.2007(3) 0.3921(5)
C18 C 0.5368(7) 0.2371(4) 0.5111(6)
H14 H 0.5125 0.2841 0.4959
H15 H 0.6417 0.2308 0.5423
H16 H 0.5169 0.2208 0.5746
C19 C 0.4973(7) 0.2122(4) 0.2840(6)
H17 H 0.4305 0.1873 0.2063
H18 H 0.5989 0.1966 0.3205
H19 H 0.4915 0.2591 0.2636
C20 C 0.3536(6) 0.1651(2) 0.3433(6)
C21 C 0.3096(5) 0.1530(2) 0.4575(5)
H20 H 0.3963 0.1359 0.5355
H21 H 0.2281 0.1214 0.4257
H22 H 0.2796 0.1951 0.4758
loop_
_geom_bond_atom_site_label_1
_geom_bond_atom_site_label_2
_geom_bond_site_symmetry_1
_geom_bond_site_symmetry_2
Zn1 O3 1_555 1_555
O1 C6 1_555 1_555
O2 C7 1_555 1_555
O3 C14 1_555 1_555
O4 Zn1 1_555 1_555
N1 C6 1_555 1_555
N2 Zn1 1_555 1_555
C1 H1 1_555 1_555
C2 H2 1_555 1_555
C3 C1 1_555 1_555
C4 C3 1_555 1_555
C5 C2 1_555 1_555
C6 C5 1_555 1_555
C7 N1 1_555 1_555
C8 N1 1_555 1_555
C9 C8 1_555 1_555
H3 C9 1_555 1_555
C10 C8 1_555 1_555
H4 C10 1_555 1_555
C11 N2 1_555 1_555
H5 C11 1_555 1_555
C12 N2 1_555 1_555
H6 C12 1_555 1_555
C13 H7 1_555 1_555
H8 C13 1_555 1_555
H9 C13 1_555 1_555
C14 C13 1_555 1_555
C15 C14 1_555 1_555
H10 C15 1_555 1_555
C16 O4 1_555 1_555
C17 C16 1_555 1_555
H11 C17 1_555 1_555
H12 C17 1_555 1_555
H13 C17 1_555 1_555
O5 C20 1_555 1_555
N3 C18 1_555 1_555
C18 H14 1_555 1_555
H15 C18 1_555 1_555
H16 C18 1_555 1_555
C19 N3 1_555 1_555
H17 C19 1_555 1_555
H18 C19 1_555 1_555
H19 C19 1_555 1_555
C20 N3 1_555 1_555
C21 C20 1_555 1_555
H20 C21 1_555 1_555
H21 C21 1_555 1_555
H22 C21 1_555 1_555
O1B C6B 1_555 1_555
O2B C7B 1_555 1_555
N1B C6B 1_555 1_555
N2B C11B 1_555 1_555
C1B C2 1_555 1_555
H1B C1B 1_555 1_555
C2B C1 1_555 1_555
H2B C2B 1_555 1_555
C3B C1B 1_555 1_555
C4B C4 1_555 1_555
C5B C2B 1_555 1_555
C6B C5B 1_555 1_555
C7B N1B 1_555 1_555
C8B N1B 1_555 1_555
C9B C8B 1_555 1_555
H3B C9B 1_555 1_555
C10B C8B 1_555 1_555
H4B C10B 1_555 1_555
C11B C10B 1_555 1_555
H5B C11B 1_555 1_555
C12B N2B 1_555 1_555
H6B C12B 1_555 1_555
O3B Zn1 1_555 1_555
O4B Zn1 1_555 1_555
C13B H7B 1_555 1_555
H8B C13B 1_555 1_555
H9B C13B 1_555 1_555
C14B O3B 1_555 1_555
C15B C14B 1_555 1_555
H10B C15B 1_555 1_555
C16B O4B 1_555 1_555
C17B C16B 1_555 1_555
H11B C17B 1_555 1_555
H12B C17B 1_555 1_555
H13B C17B 1_555 1_555
Zn1_2 N2B 1_555 1_555
N2B_2 Zn1 1_555 1_555
C3 C7 1_555 1_555
C4 C5 1_555 1_555
C9 C12 1_555 1_555
C10 C11 1_555 1_555
C15 C16 1_555 1_555
C3B C4B 1_555 1_555
C3B C7B 1_555 1_555
C4B C5B 1_555 1_555
C9B C12B 1_555 1_555
C13B C14B 1_555 1_555
C15B C16B 1_555 1_555

#END
