
#######################################################################
#
#                 Cambridge Crystallographic Data Centre
#                                CCDC 
#
#######################################################################
#
# If this CIF has been generated from an entry in the Cambridge 
# Structural Database, then it will include bibliographic, chemical, 
# crystal, experimental, refinement or atomic coordinate data resulting 
# from the CCDC's data processing and validation procedures.
#
#######################################################################

data_QUPHAL
_symmetry_cell_setting           orthorhombic
_symmetry_space_group_name_H-M   'P 21 21 2'
_symmetry_Int_Tables_number      18
_space_group_name_Hall           'P 2 2ab'
loop_
_symmetry_equiv_pos_site_id
_symmetry_equiv_pos_as_xyz
1 x,y,z
2 -x,-y,z
3 1/2-x,1/2+y,-z
4 1/2+x,1/2-y,-z
_cell_length_a                   15.1946(15)
_cell_length_b                   17.6866(17)
_cell_length_c                   9.0803(9)
_cell_angle_alpha                90
_cell_angle_beta                 90
_cell_angle_gamma                90
_cell_volume                     2440.25
loop_
_atom_site_label
_atom_site_type_symbol
_atom_site_fract_x
_atom_site_fract_y
_atom_site_fract_z
N1 N -0.1486(4) 0.6759(3) 0.0210(6)
C1 C -0.1651(6) 0.6021(4) 0.0280(8)
H3 H -0.1915 0.5793 -0.0530
C2 C -0.1124(6) 0.7064(4) 0.1425(9)
H4 H -0.1021 0.7583 0.1421
C3 C -0.0896(6) 0.6672(4) 0.2665(8)
H5 H -0.0644 0.6909 0.3475
C4 C -0.1459(5) 0.5587(4) 0.1451(8)
H6 H -0.1598 0.5074 0.1443
C5 C -0.1061(5) 0.5899(4) 0.2650(8)
O2 O -0.0849(3) 0.5426(3) 0.3783(5)
C6 C -0.0250(5) 0.5683(4) 0.4865(7)
H7 H -0.0522 0.6073 0.5465
H8 H 0.0270 0.5894 0.4401
O3 O -0.2809(3) 0.7420(3) -0.3630(6)
O4 O -0.2209(4) 0.6324(3) -0.3128(6)
C7 C -0.2728(5) 0.6725(4) -0.3887(8)
Cd1 Cd -0.17437(3) 0.74604(2) -0.18335(4)
C8 C -0.4427(4) 0.6446(4) -0.6867(9)
C9 C -0.3244(5) 0.6382(3) -0.5079(7)
N2 N 0.2308(4) 0.6783(3) 1.0534(7)
O5 O -0.3277(5) 0.4651(3) -0.7284(8)
H9 H -0.3706 0.4452 -0.7674
C10 C -0.5230(5) 0.6843(4) -0.7448(8)
C11 C -0.4196(5) 0.5754(4) -0.7378(10)
H10 H -0.4499 0.5546 -0.8172
C12 C 0.2569(4) 0.6228(4) 0.9643(8)
H11 H 0.3153 0.6071 0.9693
C13 C -0.3051(4) 0.5663(4) -0.5593(8)
H12 H -0.2600 0.5387 -0.5156
C14 C -0.3514(5) 0.5352(4) -0.6731(9)
O6 O -0.5520(3) 0.6684(3) -0.8668(6)
O7 O -0.5572(3) 0.7349(3) -0.6697(6)
C15 C 0.2033(4) 0.5880(4) 0.8670(8)
H13 H 0.2246 0.5497 0.8064
O8 O 0.0552(3) 0.5815(3) 0.7679(6)
C16 C 0.1158(4) 0.6104(4) 0.8588(7)
C17 C -0.3951(4) 0.6790(4) -0.5708(8)
H14 H -0.4098 0.7270 -0.5370
C18 C 0.0889(5) 0.6673(5) 0.9500(11)
H15 H 0.0309 0.6842 0.9471
C19 C 0.1471(5) 0.6993(5) 1.0451(10)
H16 H 0.1274 0.7375 1.1072
C20 C 0.0795(4) 0.5197(3) 0.6772(7)
H17 H 0.0962 0.4767 0.7372
H18 H 0.1291 0.5335 0.6154
C21 C 0.0000 0.5000 0.5821(10)
N1A N 0.1486(4) 0.3241(3) 0.0210(6)
C1A C 0.1651(6) 0.3979(4) 0.0280(8)
H3A H 0.1915 0.4207 -0.0530
C2A C 0.1124(6) 0.2936(4) 0.1425(9)
H4A H 0.1021 0.2417 0.1421
C3A C 0.0896(6) 0.3328(4) 0.2665(8)
H5A H 0.0644 0.3091 0.3475
C4A C 0.1459(5) 0.4413(4) 0.1451(8)
H6A H 0.1598 0.4926 0.1443
C5A C 0.1061(5) 0.4101(4) 0.2650(8)
O2A O 0.0849(3) 0.4574(3) 0.3783(5)
C6A C 0.0250(5) 0.4317(4) 0.4865(7)
H7A H 0.0522 0.3927 0.5465
H8A H -0.0270 0.4106 0.4401
O3C O 0.2191(3) 0.7580(3) -0.6370(6)
O3A O 0.2809(3) 0.2580(3) -0.3630(6)
O4C O 0.2791(4) 0.8676(3) -0.6872(6)
O4A O 0.2209(4) 0.3676(3) -0.3128(6)
C7C C 0.2272(5) 0.8275(4) -0.6113(8)
Cd1A Cd 0.17437(3) 0.25396(2) -0.18335(4)
Cd1C Cd 0.32563(3) 0.75396(2) 1.18335(4)
Cd1C_2 Cd -0.67437(3) 0.75396(2) -0.81665(4)
Cd1B Cd -0.32563(3) 0.24604(2) 1.18335(4)
Cd1C_3 Cd 0.32563(3) 0.75396(2) -0.81665(4)
C8C C 0.0573(4) 0.8554(4) -0.3133(9)
C9C C 0.1756(5) 0.8618(3) -0.4921(7)
N2A N -0.2308(4) 0.3217(3) 1.0534(7)
N2C N -0.2692(4) 0.8217(3) -0.0534(7)
N2B N 0.2692(4) 0.1783(3) -0.0534(7)
O5C O 0.1723(5) 1.0349(3) -0.2716(8)
H9C H 0.1294 1.0548 -0.2326
C10C C -0.0230(5) 0.8157(4) -0.2552(8)
C11C C 0.0804(5) 0.9246(4) -0.2622(10)
H10C H 0.0501 0.9454 -0.1828
C12A C -0.2569(4) 0.3772(4) 0.9643(8)
H11A H -0.3153 0.3929 0.9693
C13C C 0.1949(4) 0.9337(4) -0.4407(8)
H12C H 0.2400 0.9613 -0.4844
C14C C 0.1486(5) 0.9648(4) -0.3269(9)
O6C O -0.0520(3) 0.8316(3) -0.1332(6)
O6B O 0.0520(3) 0.1684(3) -0.1332(6)
O7C O -0.0572(3) 0.7651(3) -0.3303(6)
O7B O 0.0572(3) 0.2349(3) -0.3303(6)
C15A C -0.2033(4) 0.4120(4) 0.8670(8)
H13A H -0.2246 0.4503 0.8064
O8A O -0.0552(3) 0.4185(3) 0.7679(6)
C16A C -0.1158(4) 0.3896(4) 0.8588(7)
C17C C 0.1049(4) 0.8210(4) -0.4292(8)
H14C H 0.0902 0.7730 -0.4630
C18A C -0.0889(5) 0.3327(5) 0.9500(11)
H15A H -0.0309 0.3158 0.9471
C19A C -0.1471(5) 0.3007(5) 1.0451(10)
H16A H -0.1274 0.2625 1.1072
C20A C -0.0795(4) 0.4803(3) 0.6772(7)
H17A H -0.0962 0.5233 0.7372
H18A H -0.1291 0.4665 0.6154
O9 O 0.2448(6) 0.6180(5) 0.4855(9)
H19 H 0.2980 0.6069 0.4663
H20 H 0.2355 0.6641 0.4644
O10 O 0.4029(18) 0.6378(14) 0.630(3)
H21 H 0.3700 0.6344 0.7056
H22 H 0.4504 0.6602 0.6534
O1? O 0.512(2) 0.5243(14) 0.723(3)
H1? H 0.5594 0.4999 0.7374
H2? H 0.4702 0.4934 0.7071
loop_
_geom_bond_atom_site_label_1
_geom_bond_atom_site_label_2
_geom_bond_site_symmetry_1
_geom_bond_site_symmetry_2
N1 C1 1_555 1_555
C1 H3 1_555 1_555
C2 N1 1_555 1_555
H4 C2 1_555 1_555
C3 C2 1_555 1_555
H5 C3 1_555 1_555
C4 C1 1_555 1_555
H6 C4 1_555 1_555
C5 C3 1_555 1_555
O2 C5 1_555 1_555
C6 O2 1_555 1_555
H7 C6 1_555 1_555
H8 C6 1_555 1_555
O3 C7 1_555 1_555
O4 C7 1_555 1_555
C7 C9 1_555 1_555
Cd1 N1 1_555 1_555
C8 C10 1_555 1_555
C9 C13 1_555 1_555
N2 C12 1_555 1_555
O5 H9 1_555 1_555
C10 O6 1_555 1_555
C11 C8 1_555 1_555
H10 C11 1_555 1_555
C12 H11 1_555 1_555
C13 H12 1_555 1_555
C14 O5 1_555 1_555
O6 Cd1C_2 1_555 1_555
O7 C10 1_555 1_555
C15 C12 1_555 1_555
H13 C15 1_555 1_555
O8 C16 1_555 1_555
C16 C15 1_555 1_555
C17 C8 1_555 1_555
H14 C17 1_555 1_555
C18 C16 1_555 1_555
H15 C18 1_555 1_555
C19 N2 1_555 1_555
H16 C19 1_555 1_555
C20 O8 1_555 1_555
H17 C20 1_555 1_555
H18 C20 1_555 1_555
C21 C6 1_555 1_555
O9 H19 1_555 1_555
H20 O9 1_555 1_555
O10 H21 1_555 1_555
H22 O10 1_555 1_555
N1A C1A 1_555 1_555
C1A H3A 1_555 1_555
C2A N1A 1_555 1_555
H4A C2A 1_555 1_555
C3A C2A 1_555 1_555
H5A C3A 1_555 1_555
C4A C1A 1_555 1_555
H6A C4A 1_555 1_555
C5A C3A 1_555 1_555
O2A C5A 1_555 1_555
C6A C21 1_555 1_555
H7A C6A 1_555 1_555
H8A C6A 1_555 1_555
O3C C7C 1_555 1_555
O3A Cd1A 1_555 1_555
O4C C7C 1_555 1_555
O4A Cd1A 1_555 1_555
C7C C9C 1_555 1_555
Cd1A N1A 1_555 1_555
Cd1C N2 1_555 1_555
Cd1C_2 O7 1_555 1_555
Cd1B N2A 1_555 1_555
Cd1C_3 O3C 1_555 1_555
C8C C10C 1_555 1_555
C9C C13C 1_555 1_555
N2A C12A 1_555 1_555
N2C Cd1 1_555 1_555
N2B Cd1A 1_555 1_555
O5C H9C 1_555 1_555
C10C O6C 1_555 1_555
C11C C8C 1_555 1_555
H10C C11C 1_555 1_555
C12A H11A 1_555 1_555
C13C H12C 1_555 1_555
C14C O5C 1_555 1_555
O6C Cd1 1_555 1_555
O6B Cd1A 1_555 1_555
O7C Cd1 1_555 1_555
O7B Cd1A 1_555 1_555
C15A C12A 1_555 1_555
H13A C15A 1_555 1_555
O8A C16A 1_555 1_555
C16A C15A 1_555 1_555
C17C C8C 1_555 1_555
H14C C17C 1_555 1_555
C18A C16A 1_555 1_555
H15A C18A 1_555 1_555
C19A N2A 1_555 1_555
H16A C19A 1_555 1_555
C20A C21 1_555 1_555
H17A C20A 1_555 1_555
H18A C20A 1_555 1_555
C4 C5 1_555 1_555
O3 Cd1 1_555 1_555
O4 Cd1 1_555 1_555
C9 C17 1_555 1_555
C11 C14 1_555 1_555
C13 C14 1_555 1_555
C18 C19 1_555 1_555
C20 C21 1_555 1_555
C4A C5A 1_555 1_555
O2A C6A 1_555 1_555
O4C Cd1C_3 1_555 1_555
C9C C17C 1_555 1_555
C10C O7C 1_555 1_555
C11C C14C 1_555 1_555
C13C C14C 1_555 1_555
O8A C20A 1_555 1_555
C18A C19A 1_555 1_555

#END
