
#######################################################################
#
#                 Cambridge Crystallographic Data Centre
#                                CCDC 
#
#######################################################################
#
# If this CIF has been generated from an entry in the Cambridge 
# Structural Database, then it will include bibliographic, chemical, 
# crystal, experimental, refinement or atomic coordinate data resulting 
# from the CCDC's data processing and validation procedures.
#
#######################################################################

data_QUPPIB
_symmetry_cell_setting           monoclinic
_symmetry_space_group_name_H-M   'P 21/c'
_symmetry_Int_Tables_number      14
_space_group_name_Hall           '-P 2ybc'
loop_
_symmetry_equiv_pos_site_id
_symmetry_equiv_pos_as_xyz
1 x,y,z
2 -x,1/2+y,1/2-z
3 -x,-y,-z
4 x,1/2-y,1/2+z
_cell_length_a                   8.039(2)
_cell_length_b                   30.041(8)
_cell_length_c                   10.131(3)
_cell_angle_alpha                90
_cell_angle_beta                 109.934(4)
_cell_angle_gamma                90
_cell_volume                     2300.04
loop_
_atom_site_label
_atom_site_type_symbol
_atom_site_fract_x
_atom_site_fract_y
_atom_site_fract_z
Cd1 Cd 0.72600(3) 0.009411(8) 0.62809(2)
S1 S 0.42217(12) -0.16242(3) 1.04016(9)
O1 O 0.6308(3) -0.04416(7) 0.7490(2)
O2 O 0.7720(3) 0.01101(8) 0.8841(2)
O3 O 0.7723(3) 0.00671(8) 1.4001(2)
O4 O 0.5679(3) -0.03690(7) 1.4289(2)
O5 O 0.3537(4) -0.16915(9) 1.1534(3)
O6 O 0.5601(4) -0.19316(8) 1.0465(3)
O7 O 0.2860(4) -0.15999(9) 0.9055(3)
O8 O 0.9536(3) -0.03870(8) 0.6644(2)
H1 H 1.0335 -0.0274 0.6374
H2 H 0.9887 -0.0503 0.7458
O9 O 1.0869(3) 0.15849(7) 0.9786(2)
N1 N 0.8183(4) 0.08210(9) 0.6206(3)
N2 N 1.0169(4) 0.22139(10) 0.8603(3)
N3 N 1.0946(4) 0.23138(10) 1.0034(3)
C1 C 1.2292(5) 0.14422(12) 1.2767(4)
H7 H 1.1750 0.1201 1.2211
C2 C 0.8990(4) 0.10687(11) 0.7338(4)
H8 H 0.9268 0.0939 0.8220
C3 C 0.7806(5) 0.10143(12) 0.4946(4)
H9 H 0.7217 0.0848 0.4148
C4 C 0.8249(6) 0.14482(13) 0.4777(4)
H10 H 0.8003 0.1567 0.3882
C5 C 0.9052(6) 0.17025(12) 0.5934(4)
H11 H 0.9340 0.1998 0.5842
C6 C 0.9431(5) 0.15128(11) 0.7252(4)
C7 C 1.0153(5) 0.17845(11) 0.8513(4)
C8 C 1.1343(5) 0.19399(11) 1.0672(4)
C9 C 1.2221(5) 0.18560(11) 1.2168(4)
C10 C 1.3058(5) 0.22065(12) 1.3016(4)
H12 H 1.3045 0.2489 1.2635
N4 N 1.3884(4) 0.21380(10) 1.4379(3)
H13 H 1.4395 0.2360 1.4896
C11 C 1.3954(6) 0.17396(13) 1.4982(4)
H14 H 1.4543 0.1706 1.5941
C12 C 1.3157(6) 0.13823(14) 1.4181(4)
H15 H 1.3199 0.1103 1.4586
C13 C 0.6536(4) -0.04770(10) 0.9877(3)
C14 C 0.6899(4) -0.02712(11) 1.1174(3)
H16 H 0.7490 0.0000 1.1347
C15 C 0.6384(4) -0.04685(10) 1.2210(3)
C16 C 0.5549(4) -0.08797(10) 1.1967(3)
H17 H 0.5192 -0.1010 1.2659
C17 C 0.5244(4) -0.10964(10) 1.0699(3)
C18 C 0.5719(4) -0.08903(11) 0.9651(3)
H18 H 0.5486 -0.1031 0.8790
C19 C 0.6895(4) -0.02537(11) 0.8665(3)
C20 C 0.6618(4) -0.02410(11) 1.3575(3)
Cd1_2 Cd 0.72600(3) 0.009411(8) 1.62809(2)
Cd1B Cd 0.27400(3) -0.009411(8) 1.37191(2)
O3_2 O 0.7723(3) 0.00671(8) 0.4001(2)
O4_2 O 0.5679(3) -0.03690(7) 0.4289(2)
O4B O 0.4321(3) 0.03690(7) 0.5711(2)
O10 O 0.9151(3) 0.07544(8) 0.0800(3)
H3 H 0.8510 0.0980 0.0795
H4 H 0.8716 0.0558 0.0173
O11 O 0.3887(5) 0.75202(11) 0.8052(4)
H5 H 0.3312 0.7754 0.8099
H6 H 0.3324 0.7323 0.7470
loop_
_geom_bond_atom_site_label_1
_geom_bond_atom_site_label_2
_geom_bond_site_symmetry_1
_geom_bond_site_symmetry_2
Cd1 O1 1_555 1_555
S1 O5 1_555 1_555
O1 C19 1_555 1_555
O2 Cd1 1_555 1_555
O3 C20 1_555 1_555
O4 C20 1_555 1_555
O6 S1 1_555 1_555
O7 S1 1_555 1_555
O8 Cd1 1_555 1_555
H1 O8 1_555 1_555
H2 O8 1_555 1_555
O9 C7 1_555 1_555
O10 H3 1_555 1_555
H4 O10 1_555 1_555
O11 H5 1_555 1_555
H6 O11 1_555 1_555
N1 Cd1 1_555 1_555
N2 N3 1_555 1_555
N3 C8 1_555 1_555
C1 H7 1_555 1_555
C2 N1 1_555 1_555
H8 C2 1_555 1_555
C3 N1 1_555 1_555
H9 C3 1_555 1_555
C4 C3 1_555 1_555
H10 C4 1_555 1_555
C5 C4 1_555 1_555
H11 C5 1_555 1_555
C6 C2 1_555 1_555
C7 N2 1_555 1_555
C8 O9 1_555 1_555
C9 C1 1_555 1_555
C10 C9 1_555 1_555
H12 C10 1_555 1_555
N4 C10 1_555 1_555
H13 N4 1_555 1_555
C11 N4 1_555 1_555
H14 C11 1_555 1_555
C12 C1 1_555 1_555
H15 C12 1_555 1_555
C13 C14 1_555 1_555
C14 H16 1_555 1_555
C15 C14 1_555 1_555
C16 C15 1_555 1_555
H17 C16 1_555 1_555
C17 S1 1_555 1_555
C18 C13 1_555 1_555
H18 C18 1_555 1_555
C19 O2 1_555 1_555
C20 C15 1_555 1_555
Cd1_2 O3 1_555 1_555
Cd1B O4 1_555 1_555
O3_2 Cd1 1_555 1_555
O4_2 Cd1 1_555 1_555
O4B Cd1 1_555 1_555
O4 Cd1_2 1_555 1_555
C5 C6 1_555 1_555
C6 C7 1_555 1_555
C8 C9 1_555 1_555
C11 C12 1_555 1_555
C13 C19 1_555 1_555
C16 C17 1_555 1_555
C17 C18 1_555 1_555

#END
