
#######################################################################
#
#                 Cambridge Crystallographic Data Centre
#                                CCDC 
#
#######################################################################
#
# If this CIF has been generated from an entry in the Cambridge 
# Structural Database, then it will include bibliographic, chemical, 
# crystal, experimental, refinement or atomic coordinate data resulting 
# from the CCDC's data processing and validation procedures.
#
#######################################################################

data_QUPSUP
_symmetry_cell_setting           monoclinic
_symmetry_space_group_name_H-M   'P 21/c'
_symmetry_Int_Tables_number      14
_space_group_name_Hall           '-P 2ybc'
loop_
_symmetry_equiv_pos_site_id
_symmetry_equiv_pos_as_xyz
1 x,y,z
2 x,1/2-y,1/2+z
3 -x,-y,-z
4 -x,1/2+y,1/2-z
_cell_length_a                   12.1997(1)
_cell_length_b                   8.3710(1)
_cell_length_c                   13.4279(1)
_cell_angle_alpha                90
_cell_angle_beta                 102.3782(6)
_cell_angle_gamma                90
_cell_volume                     1339.43
loop_
_atom_site_label
_atom_site_type_symbol
_atom_site_fract_x
_atom_site_fract_y
_atom_site_fract_z
Ho1 Ho 0.196458 0.268059 0.318349
O1 O 0.34985(1) 0.47320(2) 0.34639(1)
O2 O 0.53262(2) 0.54003(2) 0.38877(2)
O3 O 0.21148(1) -0.00775(2) 0.32651(1)
O4 O 0.30728(2) -0.23314(2) 0.32914(2)
O5 O 0.23084(1) 0.22155(2) 0.49640(1)
O6 O 0.21954(1) 0.28392(2) 0.655738(9)
O7 O 0.10897(1) 0.49186(2) 0.22169(1)
O8 O -0.01563(1) 0.68991(2) 0.21126(1)
N1 N 0.39244(1) 0.16957(2) 0.35541(1)
N2 N 0.13499(1) 0.48086(2) 0.42041(1)
C1 C 0.46018(2) 0.44019(2) 0.37122(2)
C2 C 0.48250(1) 0.26501(2) 0.37303(1)
C3 C 0.59121(2) 0.20767(3) 0.39194(2)
C4 C 0.60784(2) 0.04349(3) 0.39151(2)
C5 C 0.51508(2) -0.05675(3) 0.37409(2)
C6 C 0.40848(2) 0.01059(2) 0.35626(2)
C7 C 0.30124(2) -0.08605(2) 0.33658(2)
C8 C 0.20703(2) 0.31415(2) 0.56239(1)
C9 C 0.15841(2) 0.47384(2) 0.52255(1)
C10 C 0.13850(2) 0.60160(2) 0.58175(1)
C11 C 0.09602(2) 0.74265(2) 0.53301(1)
C12 C 0.06702(2) 0.74798(2) 0.42713(1)
C13 C 0.08750(2) 0.61250(2) 0.37424(1)
C14 C 0.05839(2) 0.59779(2) 0.25999(1)
H1 H 0.345623 0.597063 0.350335
H2 H 0.654034 0.278650 0.405073
H3 H 0.682066 -0.000883 0.403288
H4 H 0.524255 -0.171078 0.373977
H5 H 0.154322 0.593520 0.655850
H6 H 0.086684 0.835667 0.571719
H7 H 0.034220 0.841793 0.389988
O6A O 0.21954(1) 0.21608(2) 0.155738(9)
O8C O 0.01563(1) 0.18991(2) 0.28874(1)
Ho1A Ho 0.196458 0.231941 0.818349
Ho1C Ho -0.196458 0.768059 0.181651
loop_
_geom_bond_atom_site_label_1
_geom_bond_atom_site_label_2
_geom_bond_site_symmetry_1
_geom_bond_site_symmetry_2
Ho1 O1 1_555 1_555
O1 C1 1_555 1_555
O2 C1 1_555 1_555
O3 Ho1 1_555 1_555
O4 C7 1_555 1_555
O5 Ho1 1_555 1_555
O6 C8 1_555 1_555
O7 Ho1 1_555 1_555
O8 C14 1_555 1_555
N1 Ho1 1_555 1_555
N2 Ho1 1_555 1_555
C1 C2 1_555 1_555
C2 N1 1_555 1_555
C3 C2 1_555 1_555
C4 C3 1_555 1_555
C5 C4 1_555 1_555
C6 N1 1_555 1_555
C7 O3 1_555 1_555
C8 O5 1_555 1_555
C9 N2 1_555 1_555
C10 C9 1_555 1_555
C11 C10 1_555 1_555
C12 C11 1_555 1_555
C13 N2 1_555 1_555
C14 O7 1_555 1_555
H1 O1 1_555 1_555
H2 C3 1_555 1_555
H3 C4 1_555 1_555
H4 C5 1_555 1_555
H5 C10 1_555 1_555
H6 C11 1_555 1_555
H7 C12 1_555 1_555
O6A Ho1 1_555 1_555
O8C Ho1 1_555 1_555
Ho1A O6 1_555 1_555
Ho1C O8 1_555 1_555
C5 C6 1_555 1_555
C6 C7 1_555 1_555
C8 C9 1_555 1_555
C12 C13 1_555 1_555
C13 C14 1_555 1_555

#END
