
#######################################################################
#
#                 Cambridge Crystallographic Data Centre
#                                CCDC 
#
#######################################################################
#
# If this CIF has been generated from an entry in the Cambridge 
# Structural Database, then it will include bibliographic, chemical, 
# crystal, experimental, refinement or atomic coordinate data resulting 
# from the CCDC's data processing and validation procedures.
#
#######################################################################

data_QUPVIH
_symmetry_cell_setting           monoclinic
_symmetry_space_group_name_H-M   'P 21/c'
_symmetry_Int_Tables_number      14
_space_group_name_Hall           '-P 2ybc'
loop_
_symmetry_equiv_pos_site_id
_symmetry_equiv_pos_as_xyz
1 x,y,z
2 -x,1/2+y,1/2-z
3 -x,-y,-z
4 x,1/2-y,1/2+z
_cell_length_a                   9.6206(19)
_cell_length_b                   10.526(2)
_cell_length_c                   15.186(3)
_cell_angle_alpha                90
_cell_angle_beta                 93.42(3)
_cell_angle_gamma                90
_cell_volume                     1535.09
loop_
_atom_site_label
_atom_site_type_symbol
_atom_site_fract_x
_atom_site_fract_y
_atom_site_fract_z
C1 C 1.1032(12) 0.1981(12) 0.3394(8)
H1 H 1.1895 0.1582 0.3406
C2 C 1.0465(12) 0.2397(13) 0.2590(8)
H2 H 1.0919 0.2245 0.2076
C3 C 0.9201(11) 0.3048(12) 0.2560(7)
C4 C 0.8554(13) 0.3190(15) 0.3355(8)
H3 H 0.7695 0.3594 0.3364
C5 C 0.9186(14) 0.2734(14) 0.4113(8)
H4 H 0.8744 0.2854 0.4635
C6 C 0.8544(11) 0.3586(12) 0.1749(8)
C7 C 0.5047(11) 0.6541(11) 0.4000(7)
C8 C 0.4822(12) 0.6203(12) 0.3122(8)
H5 H 0.5507 0.6384 0.2734
C9 C 0.2640(12) 0.5287(12) 0.3412(8)
H6 H 0.1826 0.4875 0.3214
C10 C 0.2853(13) 0.5565(15) 0.4293(8)
H7 H 0.2209 0.5307 0.4690
C11 C 0.4038(13) 0.6236(12) 0.4590(8)
H8 H 0.4158 0.6479 0.5178
C12 C 0.6330(12) 0.7222(11) 0.4313(8)
C13 C 0.3338(12) 0.5303(12) 0.1839(8)
C14 C 0.3622(12) 0.5610(12) 0.2805(7)
Cd1 Cd 0.85877(8) 0.62249(8) -0.04457(5)
Cd2 Cd 0.5000 0.5000 0.0000
N1 N 0.9222(9) 0.3891(10) 0.1026(6)
N2 N 0.8240(9) 0.4417(9) 0.0467(6)
N3 N 0.7034(9) 0.4377(11) 0.0834(6)
N4 N 0.7190(10) 0.3881(10) 0.1639(7)
N5 N 1.0427(10) 0.2112(10) 0.4156(6)
O1 O 0.6266(8) 0.8105(8) 0.4883(5)
O2 O 0.7475(8) 0.6961(9) 0.3993(6)
O3 O 0.4247(9) 0.5597(10) 0.1324(6)
O4 O 0.2201(9) 0.4760(9) 0.1636(6)
C1B C -0.1032(12) 0.8019(12) -0.3394(8)
H1B H -0.1895 0.8418 -0.3406
C2B C -0.0465(12) 0.7603(13) -0.2590(8)
H2B H -0.0919 0.7755 -0.2076
C3B C 0.0799(11) 0.6952(12) -0.2560(7)
C4B C 0.1446(13) 0.6810(15) -0.3355(8)
H3B H 0.2305 0.6406 -0.3364
C5B C 0.0814(14) 0.7266(14) -0.4113(8)
H4B H 0.1256 0.7146 -0.4635
C6B C 0.1456(11) 0.6414(12) -0.1749(8)
C7B C 0.4953(11) 0.3459(11) -0.4000(7)
C8B C 0.5178(12) 0.3797(12) -0.3122(8)
H5B H 0.4493 0.3616 -0.2734
C9B C 0.7360(12) 0.4713(12) -0.3412(8)
H6B H 0.8174 0.5125 -0.3214
C10B C 0.7147(13) 0.4435(15) -0.4293(8)
H7B H 0.7791 0.4693 -0.4690
C11B C 0.5962(13) 0.3764(12) -0.4590(8)
H8B H 0.5842 0.3521 -0.5178
C12B C 0.3670(12) 0.2778(11) -0.4313(8)
C13B C 0.6662(12) 0.4697(12) -0.1839(8)
C14B C 0.6378(12) 0.4390(12) -0.2805(7)
Cd1B Cd 0.14123(8) 0.37751(8) 0.04457(5)
Cd1B_2 Cd 1.14123(8) 0.37751(8) 0.04457(5)
Cd1A Cd 1.14123(8) 0.12249(8) 0.54457(5)
Cd1C Cd 0.85877(8) 0.87751(8) 0.45543(5)
Cd1A_2 Cd 0.14123(8) 0.12249(8) -0.45543(5)
Cd1_2 Cd -0.14123(8) 0.62249(8) -0.04457(5)
Cd1C_2 Cd -0.14123(8) 0.87751(8) -0.54457(5)
Cd2A Cd 0.5000 1.0000 0.5000
Cd2A_2 Cd 0.5000 0.0000 -0.5000
N1B N 0.0778(9) 0.6109(10) -0.1026(6)
N1B_2 N 1.0778(9) 0.6109(10) -0.1026(6)
N1_2 N -0.0778(9) 0.3891(10) 0.1026(6)
N2B N 0.1760(9) 0.5583(9) -0.0467(6)
N3B N 0.2966(9) 0.5623(11) -0.0834(6)
N4B N 0.2810(10) 0.6119(10) -0.1639(7)
N5B N -0.0427(10) 0.7888(10) -0.4156(6)
N5A N 0.9573(10) 0.7112(10) 0.0844(6)
N5C N 0.0427(10) 0.2888(10) -0.0844(6)
O1B O 0.3734(8) 0.1895(8) -0.4883(5)
O1C O 0.6266(8) 0.6895(8) -0.0117(5)
O1A O 0.3734(8) 0.3105(8) 0.0117(5)
O2B O 0.2525(8) 0.3039(9) -0.3993(6)
O2C O 0.7475(8) 0.8039(9) -0.1007(6)
O2A O 0.2525(8) 0.1961(9) 0.1007(6)
O3B O 0.5753(9) 0.4403(10) -0.1324(6)
O4B O 0.7799(9) 0.5240(9) -0.1636(6)
loop_
_geom_bond_atom_site_label_1
_geom_bond_atom_site_label_2
_geom_bond_site_symmetry_1
_geom_bond_site_symmetry_2
C1 H1 1_555 1_555
C2 C1 1_555 1_555
H2 C2 1_555 1_555
C3 C2 1_555 1_555
C4 C3 1_555 1_555
H3 C4 1_555 1_555
C5 C4 1_555 1_555
H4 C5 1_555 1_555
C6 C3 1_555 1_555
C7 C8 1_555 1_555
C8 H5 1_555 1_555
C9 H6 1_555 1_555
C10 C9 1_555 1_555
H7 C10 1_555 1_555
C11 C7 1_555 1_555
H8 C11 1_555 1_555
C12 C7 1_555 1_555
C13 C14 1_555 1_555
C14 C8 1_555 1_555
Cd1 N2 1_555 1_555
Cd2 N3 1_555 1_555
N1 C6 1_555 1_555
N2 N1 1_555 1_555
N3 N2 1_555 1_555
N4 C6 1_555 1_555
N5 C1 1_555 1_555
O1 C12 1_555 1_555
O2 C12 1_555 1_555
O3 C13 1_555 1_555
O4 C13 1_555 1_555
C1B H1B 1_555 1_555
C2B C1B 1_555 1_555
H2B C2B 1_555 1_555
C3B C2B 1_555 1_555
C4B C3B 1_555 1_555
H3B C4B 1_555 1_555
C5B C4B 1_555 1_555
H4B C5B 1_555 1_555
C6B C3B 1_555 1_555
C7B C8B 1_555 1_555
C8B H5B 1_555 1_555
C9B H6B 1_555 1_555
C10B C9B 1_555 1_555
H7B C10B 1_555 1_555
C11B C7B 1_555 1_555
H8B C11B 1_555 1_555
C12B C7B 1_555 1_555
C13B C14B 1_555 1_555
C14B C8B 1_555 1_555
Cd1B O4 1_555 1_555
Cd1B_2 N1 1_555 1_555
Cd1A N5 1_555 1_555
Cd1C O1 1_555 1_555
Cd1A_2 O1B 1_555 1_555
Cd1_2 N1B 1_555 1_555
Cd1C_2 N5B 1_555 1_555
Cd2A O1 1_555 1_555
Cd2A_2 O1B 1_555 1_555
N1B C6B 1_555 1_555
N1B_2 Cd1 1_555 1_555
N1_2 Cd1B 1_555 1_555
N2B Cd1B 1_555 1_555
N3B Cd2 1_555 1_555
N4B C6B 1_555 1_555
N5B C1B 1_555 1_555
N5A Cd1 1_555 1_555
N5C Cd1B 1_555 1_555
O1B C12B 1_555 1_555
O1C Cd1 1_555 1_555
O1A Cd2 1_555 1_555
O2B C12B 1_555 1_555
O2C Cd1 1_555 1_555
O2A Cd1B 1_555 1_555
O3B Cd2 1_555 1_555
O4B Cd1 1_555 1_555
C5 N5 1_555 1_555
C9 C14 1_555 1_555
C10 C11 1_555 1_555
Cd2 O3 1_555 1_555
Cd2 O1C 1_555 1_555
N3 N4 1_555 1_555
O2 Cd1C 1_555 1_555
C5B N5B 1_555 1_555
C9B C14B 1_555 1_555
C10B C11B 1_555 1_555
C13B O3B 1_555 1_555
C13B O4B 1_555 1_555
Cd1B O1A 1_555 1_555
Cd1A_2 O2B 1_555 1_555
N1B N2B 1_555 1_555
N2B N3B 1_555 1_555
N3B N4B 1_555 1_555

#END
