
#######################################################################
#
#                 Cambridge Crystallographic Data Centre
#                                CCDC 
#
#######################################################################
#
# If this CIF has been generated from an entry in the Cambridge 
# Structural Database, then it will include bibliographic, chemical, 
# crystal, experimental, refinement or atomic coordinate data resulting 
# from the CCDC's data processing and validation procedures.
#
#######################################################################

data_QUPYOP
_symmetry_cell_setting           triclinic
_symmetry_space_group_name_H-M   'P -1'
_symmetry_Int_Tables_number      2
_space_group_name_Hall           '-P 1'
loop_
_symmetry_equiv_pos_site_id
_symmetry_equiv_pos_as_xyz
1 x,y,z
2 -x,-y,-z
_cell_length_a                   7.3601(3)
_cell_length_b                   13.5424(5)
_cell_length_c                   15.1256(5)
_cell_angle_alpha                72.5820(10)
_cell_angle_beta                 76.2630(10)
_cell_angle_gamma                80.1520(10)
_cell_volume                     1389.19
loop_
_atom_site_label
_atom_site_type_symbol
_atom_site_fract_x
_atom_site_fract_y
_atom_site_fract_z
Er1 Er 0.03786(5) 0.44593(3) 0.81053(3)
Cu1 Cu 0.0000 1.0000 0.5000
Cu2 Cu -0.05341(12) 0.11031(7) 1.15355(7)
N1 N 0.1523(8) 0.8682(5) 0.4894(5)
N2 N 0.1304(8) 0.0344(4) 1.0723(4)
N3 N -0.7331(8) 0.8201(5) 0.7763(5)
O1 O -0.0820(9) 0.3606(5) 0.7272(4)
O2 O 0.3349(8) 0.3777(4) 0.7502(4)
O3 O -0.2042(7) 0.4089(4) 0.9407(4)
O4 O -0.0008(8) 0.5965(4) 0.8683(4)
O5 O 0.2099(7) 0.4197(4) 0.9361(4)
O6 O 0.1792(8) 0.1991(4) 1.1735(4)
O7 O 0.1507(8) 0.5743(4) 0.6791(4)
O8 O 0.4385(9) 0.5310(5) 0.6054(5)
O9 O 0.3711(8) 1.0088(4) 0.2654(4)
O10 O 0.1475(7) 1.0566(4) 0.3765(4)
O11 O 0.4118(8) -0.2573(4) 1.1508(4)
O12 O 0.5716(7) -0.2455(4) 1.0038(4)
O13 O 0.0901(7) 0.2579(4) 0.8827(4)
O14 O -0.0569(7) 0.2185(4) 1.0333(4)
O15 O -0.4799(7) 0.5302(5) 0.8748(4)
O16 O -0.2290(7) 0.5550(4) 0.7590(4)
O17 O -0.7466(8) 1.0441(4) 0.5864(4)
O18 O -0.9062(7) 1.0055(4) 0.7348(4)
C1 C 0.2896(11) 0.5898(6) 0.6125(6)
C2 C 0.2795(11) 0.6918(6) 0.5366(6)
C3 C 0.4093(12) 0.7039(7) 0.4517(6)
C4 C 0.4033(12) 0.7999(7) 0.3841(6)
C5 C 0.2776(11) 0.8803(6) 0.4074(6)
C6 C 0.1511(10) 0.7745(6) 0.5543(6)
C7 C 0.2665(11) 0.9875(6) 0.3438(6)
C8 C 0.4503(10) -0.2129(6) 1.0650(6)
C9 C 0.3448(9) -0.1057(6) 1.0321(6)
C10 C 0.3732(10) -0.0499(6) 0.9368(6)
C11 C 0.2820(10) 0.0508(6) 0.9098(6)
C12 C 0.1639(9) 0.0901(5) 0.9795(5)
C13 C 0.2211(9) -0.0620(5) 1.0990(6)
C14 C 0.0591(10) 0.1969(6) 0.9628(6)
C15 C -0.3912(10) 0.5816(6) 0.7981(6)
C16 C -0.4857(10) 0.6856(6) 0.7530(6)
C17 C -0.4182(11) 0.7476(6) 0.6630(6)
C18 C -0.5125(10) 0.8460(6) 0.6274(6)
C19 C -0.6684(10) 0.8797(6) 0.6884(6)
C20 C -0.6457(10) 0.7241(6) 0.8079(6)
C21 C -0.7808(10) 0.9857(6) 0.6661(6)
N1A N -0.1523(8) 1.1318(5) 0.5106(5)
O7A O -0.1507(8) 1.4257(4) 0.3209(4)
O8A O -0.4385(9) 1.4690(5) 0.3946(5)
O9A O -0.3711(8) 0.9912(4) 0.7346(4)
O10A O -0.1475(7) 0.9434(4) 0.6235(4)
C1A C -0.2896(11) 1.4102(6) 0.3875(6)
C2A C -0.2795(11) 1.3082(6) 0.4634(6)
C3A C -0.4093(12) 1.2961(7) 0.5483(6)
C4A C -0.4033(12) 1.2001(7) 0.6159(6)
C5A C -0.2776(11) 1.1197(6) 0.5926(6)
C6A C -0.1511(10) 1.2255(6) 0.4457(6)
C7A C -0.2665(11) 1.0125(6) 0.6562(6)
Er1A Er -0.03786(5) 1.55407(3) 0.18947(3)
O1A O 0.0820(9) 1.6394(5) 0.2728(4)
O2A O -0.3349(8) 1.6223(4) 0.2498(4)
O3A O 0.2042(7) 1.5911(4) 0.0593(4)
O4A O 0.0008(8) 1.4035(4) 0.1317(4)
O5A O -0.2099(7) 1.5803(4) 0.0639(4)
N2A N -0.1304(8) 1.9656(4) -0.0723(4)
O11A O -0.4118(8) 2.2573(4) -0.1508(4)
O12A O -0.5716(7) 2.2455(4) -0.0038(4)
O13A O -0.0901(7) 1.7421(4) 0.1173(4)
O14A O 0.0569(7) 1.7815(4) -0.0333(4)
C8A C -0.4503(10) 2.2129(6) -0.0650(6)
C9A C -0.3448(9) 2.1057(6) -0.0321(6)
C10A C -0.3732(10) 2.0499(6) 0.0632(6)
C11A C -0.2820(10) 1.9492(6) 0.0902(6)
C12A C -0.1639(9) 1.9099(5) 0.0205(5)
C13A C -0.2211(9) 2.0620(5) -0.0990(6)
C14A C -0.0591(10) 1.8031(6) 0.0372(6)
N3A N 0.7331(8) 1.1799(5) 0.2237(5)
O15A O 0.4799(7) 1.4698(5) 0.1252(4)
O16A O 0.2290(7) 1.4450(4) 0.2410(4)
O17A O 0.7466(8) 0.9559(4) 0.4136(4)
O18A O 0.9062(7) 0.9945(4) 0.2652(4)
C15A C 0.3912(10) 1.4184(6) 0.2019(6)
C16A C 0.4857(10) 1.3144(6) 0.2470(6)
C17A C 0.4182(11) 1.2524(6) 0.3370(6)
C18A C 0.5125(10) 1.1540(6) 0.3726(6)
C19A C 0.6684(10) 1.1203(6) 0.3116(6)
C20A C 0.6457(10) 1.2759(6) 0.1921(6)
C21A C 0.7808(10) 1.0143(6) 0.3339(6)
Cu2A Cu 0.05341(12) 1.88969(7) -0.15355(7)
O6A O -0.1792(8) 1.8009(4) -0.1735(4)
N3A_2 N -0.2669(8) 0.1799(5) 1.2237(5)
O18A_2 O -0.0938(7) -0.0055(4) 1.2652(4)
Cu2A_2 Cu -0.94659(12) 0.88969(7) 0.84645(7)
Cu2_2 Cu 0.94659(12) 1.11031(7) 0.15355(7)
N3_2 N 0.2669(8) 1.8201(5) -0.2237(5)
O18_2 O 0.0938(7) 2.0055(4) -0.2652(4)
O19 O 0.8350(12) 0.5644(7) 0.5432(6)
O20 O 0.1010(11) 0.2530(6) 0.6067(5)
loop_
_geom_bond_atom_site_label_1
_geom_bond_atom_site_label_2
_geom_bond_site_symmetry_1
_geom_bond_site_symmetry_2
Er1 O1 1_555 1_555
Cu1 N1 1_555 1_555
Cu2 N2 1_555 1_555
N1 C5 1_555 1_555
N2 C12 1_555 1_555
N3 C19 1_555 1_555
O2 Er1 1_555 1_555
O3 Er1 1_555 1_555
O4 Er1 1_555 1_555
O5 Er1 1_555 1_555
O6 Cu2 1_555 1_555
O7 Er1 1_555 1_555
O8 C1 1_555 1_555
O9 C7 1_555 1_555
O10 Cu1 1_555 1_555
O11 C8 1_555 1_555
O12 C8 1_555 1_555
O13 Er1 1_555 1_555
O14 Cu2 1_555 1_555
O15 C15 1_555 1_555
O16 Er1 1_555 1_555
O17 C21 1_555 1_555
O18 C21 1_555 1_555
C1 O7 1_555 1_555
C2 C1 1_555 1_555
C3 C2 1_555 1_555
C4 C3 1_555 1_555
C5 C4 1_555 1_555
C6 N1 1_555 1_555
C7 O10 1_555 1_555
C8 C9 1_555 1_555
C9 C10 1_555 1_555
C10 C11 1_555 1_555
C11 C12 1_555 1_555
C12 C14 1_555 1_555
C13 N2 1_555 1_555
C14 O13 1_555 1_555
C15 O16 1_555 1_555
C16 C15 1_555 1_555
C17 C16 1_555 1_555
C18 C17 1_555 1_555
C19 C18 1_555 1_555
C20 N3 1_555 1_555
C21 C19 1_555 1_555
N1A Cu1 1_555 1_555
O7A C1A 1_555 1_555
O8A C1A 1_555 1_555
O9A C7A 1_555 1_555
O10A Cu1 1_555 1_555
C1A C2A 1_555 1_555
C2A C3A 1_555 1_555
C3A C4A 1_555 1_555
C4A C5A 1_555 1_555
C5A N1A 1_555 1_555
C6A N1A 1_555 1_555
C7A O10A 1_555 1_555
Er1A O7A 1_555 1_555
O1A Er1A 1_555 1_555
O2A Er1A 1_555 1_555
O3A Er1A 1_555 1_555
O4A Er1A 1_555 1_555
O5A Er1A 1_555 1_555
N2A C12A 1_555 1_555
O11A C8A 1_555 1_555
O12A C8A 1_555 1_555
O13A Er1A 1_555 1_555
O14A C14A 1_555 1_555
C8A C9A 1_555 1_555
C9A C10A 1_555 1_555
C10A C11A 1_555 1_555
C11A C12A 1_555 1_555
C12A C14A 1_555 1_555
C13A N2A 1_555 1_555
C14A O13A 1_555 1_555
N3A C19A 1_555 1_555
O15A C15A 1_555 1_555
O16A Er1A 1_555 1_555
O17A C21A 1_555 1_555
O18A C21A 1_555 1_555
C15A O16A 1_555 1_555
C16A C15A 1_555 1_555
C17A C16A 1_555 1_555
C18A C17A 1_555 1_555
C19A C18A 1_555 1_555
C20A N3A 1_555 1_555
C21A C19A 1_555 1_555
Cu2A N2A 1_555 1_555
O6A Cu2A 1_555 1_555
N3A_2 Cu2 1_555 1_555
O18A_2 Cu2 1_555 1_555
Cu2A_2 N3 1_555 1_555
Cu2_2 N3A 1_555 1_555
N3_2 Cu2A 1_555 1_555
O18_2 Cu2A 1_555 1_555
O14 C14 1_555 1_555
O18 Cu2A_2 1_555 1_555
C2 C6 1_555 1_555
C5 C7 1_555 1_555
C9 C13 1_555 1_555
C16 C20 1_555 1_555
C2A C6A 1_555 1_555
C5A C7A 1_555 1_555
O14A Cu2A 1_555 1_555
C9A C13A 1_555 1_555
O18A Cu2_2 1_555 1_555
C16A C20A 1_555 1_555

#END
