
#######################################################################
#
#                 Cambridge Crystallographic Data Centre
#                                CCDC 
#
#######################################################################
#
# If this CIF has been generated from an entry in the Cambridge 
# Structural Database, then it will include bibliographic, chemical, 
# crystal, experimental, refinement or atomic coordinate data resulting 
# from the CCDC's data processing and validation procedures.
#
#######################################################################

data_QUPZOQ
_symmetry_cell_setting           triclinic
_symmetry_space_group_name_H-M   'P -1'
_symmetry_Int_Tables_number      2
_space_group_name_Hall           '-P 1'
loop_
_symmetry_equiv_pos_site_id
_symmetry_equiv_pos_as_xyz
1 x,y,z
2 -x,-y,-z
_cell_length_a                   10.1194(6)
_cell_length_b                   10.5763(5)
_cell_length_c                   14.3500(8)
_cell_angle_alpha                95.333(2)
_cell_angle_beta                 101.675(2)
_cell_angle_gamma                105.61
_cell_volume                     1430.77
loop_
_atom_site_label
_atom_site_type_symbol
_atom_site_fract_x
_atom_site_fract_y
_atom_site_fract_z
Gd1 Gd 0.49906(10) 0.24897(9) 0.49565(6)
Cu1 Cu 1.0000 0.0000 0.0000
Cu2 Cu 0.6977(2) -0.20960(19) 0.03302(14)
O1 O 0.7073(16) 0.3691(15) 0.4450(11)
H1 H 0.6836 0.4091 0.4013
O2 O 0.2966(14) 0.3071(13) 0.5328(9)
H2 H 0.3214 0.3568 0.5845
O3 O 0.7146(15) 0.2299(15) 0.5979(12)
H3 H 0.6945 0.1849 0.6394
O4 O 0.2790(14) 0.0839(12) 0.4035(9)
H4 H 0.2946 0.0434 0.3574
O5 O 1.028(4) -0.306(3) -0.4124(17)
O6 O 0.987(2) -0.117(2) -0.3877(13)
O7 O 0.9733(13) -0.1486(10) 0.0746(9)
O8 O 1.0048(15) -0.3459(13) 0.0769(10)
O9 O 0.5480(13) 0.0831(13) 0.4057(8)
O10 O 0.5631(14) -0.1228(11) 0.3856(8)
O11 O 0.7138(12) -0.0718(9) -0.0471(7)
O12 O 0.6784(11) 0.1252(10) -0.0562(8)
O13 O 0.5810(17) -0.5549(13) -0.3977(9)
O14 O 0.5825(16) -0.3467(12) -0.3642(9)
O15 O 0.6888(13) -0.3455(12) 0.1125(8)
O16 O 0.6748(13) -0.5590(11) 0.1072(8)
N1 N 0.9971(14) -0.1413(14) -0.1041(11)
N2 N 0.6648(14) -0.0794(12) 0.1263(9)
N3 N 0.6692(14) -0.3522(13) -0.0736(9)
C1 C 1.001(4) -0.230(4) -0.368(3)
C2 C 1.002(2) -0.231(2) -0.2558(17)
C3 C 1.008(2) -0.354(2) -0.2217(18)
H5 H 1.0134 -0.4245 -0.2629
C4 C 1.0052(19) -0.3654(18) -0.1196(16)
H6 H 1.0053 -0.4429 -0.0939
C5 C 1.0028(17) -0.2532(16) -0.0678(12)
C6 C 0.996(2) -0.135(2) -0.1974(16)
H7 H 0.9918 -0.0571 -0.2205
C7 C 0.996(2) -0.2513(17) 0.0360(16)
C8 C 0.5742(19) -0.0143(19) 0.3596(12)
C9 C 0.6056(17) 0.0101(16) 0.2670(11)
C10 C 0.6075(17) 0.1236(16) 0.2269(12)
H8 H 0.5878 0.1930 0.2608
C11 C 0.6375(17) 0.1381(14) 0.1384(11)
H9 H 0.6419 0.2171 0.1139
C12 C 0.6608(16) 0.0338(16) 0.0874(11)
C13 C 0.6397(16) -0.0915(14) 0.2119(11)
H10 H 0.6442 -0.1684 0.2374
C14 C 0.6883(19) 0.0340(17) -0.0124(12)
C15 C 0.594(2) -0.4541(18) -0.3397(12)
C16 C 0.6263(17) -0.4624(14) -0.2334(11)
C17 C 0.636(2) -0.5782(14) -0.1988(11)
H11 H 0.6267 -0.6544 -0.2406
C18 C 0.659(2) -0.5778(17) -0.1040(14)
H12 H 0.6678 -0.6548 -0.0805
C19 C 0.6694(17) -0.4683(15) -0.0386(12)
C20 C 0.6499(16) -0.3483(15) -0.1652(10)
H13 H 0.6516 -0.2678 -0.1868
C21 C 0.6832(18) -0.4613(16) 0.0685(12)
O5A O 0.972(4) 0.306(3) 0.4124(17)
O6A O 1.013(2) 0.117(2) 0.3877(13)
O7A O 1.0267(13) 0.1486(10) -0.0746(9)
O8A O 0.9952(15) 0.3459(13) -0.0769(10)
N1A N 1.0029(14) 0.1413(14) 0.1041(11)
C1A C 0.999(4) 0.230(4) 0.368(3)
C2A C 0.998(2) 0.231(2) 0.2558(17)
C3A C 0.992(2) 0.354(2) 0.2217(18)
H5A H 0.9866 0.4245 0.2629
C4A C 0.9948(19) 0.3654(18) 0.1196(16)
H6A H 0.9947 0.4429 0.0939
C5A C 0.9972(17) 0.2532(16) 0.0678(12)
C6A C 1.004(2) 0.135(2) 0.1974(16)
H7A H 1.0082 0.0571 0.2205
C7A C 1.004(2) 0.2513(17) -0.0360(16)
Cu2A Cu 1.3023(2) 0.20960(19) -0.03302(14)
O9A O 1.4520(13) -0.0831(13) -0.4057(8)
O10A O 1.4369(14) 0.1228(11) -0.3856(8)
O11A O 1.2862(12) 0.0718(9) 0.0471(7)
O12A O 1.3216(11) -0.1252(10) 0.0562(8)
N2A N 1.3352(14) 0.0794(12) -0.1263(9)
C8A C 1.4258(19) 0.0143(19) -0.3596(12)
C9A C 1.3944(17) -0.0101(16) -0.2670(11)
C10A C 1.3925(17) -0.1236(16) -0.2269(12)
H8A H 1.4122 -0.1930 -0.2608
C11A C 1.3625(17) -0.1381(14) -0.1384(11)
H9A H 1.3581 -0.2171 -0.1139
C12A C 1.3392(16) -0.0338(16) -0.0874(11)
C13A C 1.3603(16) 0.0915(14) -0.2119(11)
H10A H 1.3558 0.1684 -0.2374
C14A C 1.3117(19) -0.0340(17) 0.0124(12)
O13A O 1.4190(17) 0.5549(13) 0.3977(9)
O14A O 1.4175(16) 0.3467(12) 0.3642(9)
O15A O 1.3112(13) 0.3455(12) -0.1125(8)
O16A O 1.3252(13) 0.5590(11) -0.1072(8)
N3A N 1.3308(14) 0.3522(13) 0.0736(9)
C15A C 1.406(2) 0.4541(18) 0.3397(12)
C16A C 1.3737(17) 0.4624(14) 0.2334(11)
C17A C 1.364(2) 0.5782(14) 0.1988(11)
H11A H 1.3733 0.6544 0.2406
C18A C 1.341(2) 0.5778(17) 0.1040(14)
H12A H 1.3322 0.6548 0.0805
C19A C 1.3306(17) 0.4683(15) 0.0386(12)
C20A C 1.3501(16) 0.3483(15) 0.1652(10)
H13A H 1.3484 0.2678 0.1868
C21A C 1.3168(18) 0.4613(16) -0.0685(12)
Gd1A Gd 1.50094(10) -0.24897(9) -0.49565(6)
O1A O 1.2927(16) -0.3691(15) -0.4450(11)
H1A H 1.3164 -0.4091 -0.4013
O2A O 1.7034(14) -0.3071(13) -0.5328(9)
H2A H 1.6786 -0.3568 -0.5845
O3A O 1.2854(15) -0.2299(15) -0.5979(12)
H3A H 1.3055 -0.1849 -0.6394
O4A O 1.7210(14) -0.0839(12) -0.4035(9)
H4A H 1.7054 -0.0434 -0.3574
O10A_2 O 0.4369(14) 0.1228(11) 0.6144(8)
O13_2 O 0.5810(17) 0.4451(13) 0.6023(9)
O14A_2 O 0.4175(16) 0.3467(12) 0.3642(9)
Gd1A_2 Gd 0.50094(10) -0.24897(9) 0.50435(6)
Gd1_2 Gd 0.49906(10) -0.75103(9) -0.50435(6)
Gd1A_3 Gd 0.50094(10) -0.24897(9) -0.49565(6)
Gd1_3 Gd 1.49906(10) 0.24897(9) -0.50435(6)
Gd1A_4 Gd 1.50094(10) 0.75103(9) 0.50435(6)
Gd1_4 Gd 1.49906(10) 0.24897(9) 0.49565(6)
O10_2 O 1.5631(14) -0.1228(11) -0.6144(8)
O13A_2 O 1.4190(17) -0.4451(13) -0.6023(9)
O14_2 O 1.5825(16) -0.3467(12) -0.3642(9)
O17 O -0.007(4) 0.277(6) -0.280(3)
O18 O 0.056(5) 0.147(4) 0.587(3)
O19 O 0.970(3) 0.403(6) 0.574(3)
O20 O 0.2599(18) 0.4797(18) -0.3043(12)
O21 O 0.2516(17) -0.0906(16) 0.2368(10)
O22 O 0.0000 0.5000 0.0000
loop_
_geom_bond_atom_site_label_1
_geom_bond_atom_site_label_2
_geom_bond_site_symmetry_1
_geom_bond_site_symmetry_2
Gd1 O1 1_555 1_555
Cu1 Cu2 1_555 1_555
Cu2 O11 1_555 1_555
O1 H1 1_555 1_555
O2 Gd1 1_555 1_555
H2 O2 1_555 1_555
O3 Gd1 1_555 1_555
H3 O3 1_555 1_555
O4 Gd1 1_555 1_555
H4 O4 1_555 1_555
O5 C1 1_555 1_555
O6 C1 1_555 1_555
O7 Cu1 1_555 1_555
O8 C7 1_555 1_555
O9 Gd1 1_555 1_555
O10 C8 1_555 1_555
O11 C14 1_555 1_555
O12 C14 1_555 1_555
O13 C15 1_555 1_555
O14 C15 1_555 1_555
O15 Cu2 1_555 1_555
O16 C21 1_555 1_555
N1 Cu1 1_555 1_555
N2 Cu2 1_555 1_555
N3 Cu2 1_555 1_555
C1 C2 1_555 1_555
C2 C3 1_555 1_555
C3 H5 1_555 1_555
C4 C3 1_555 1_555
H6 C4 1_555 1_555
C5 N1 1_555 1_555
C6 N1 1_555 1_555
H7 C6 1_555 1_555
C7 O7 1_555 1_555
C8 O9 1_555 1_555
C9 C8 1_555 1_555
C10 C9 1_555 1_555
H8 C10 1_555 1_555
C11 C10 1_555 1_555
H9 C11 1_555 1_555
C12 N2 1_555 1_555
C13 N2 1_555 1_555
H10 C13 1_555 1_555
C14 C12 1_555 1_555
C15 C16 1_555 1_555
C16 C17 1_555 1_555
C17 H11 1_555 1_555
C18 C17 1_555 1_555
H12 C18 1_555 1_555
C19 N3 1_555 1_555
C20 N3 1_555 1_555
H13 C20 1_555 1_555
C21 O15 1_555 1_555
O5A C1A 1_555 1_555
O6A C1A 1_555 1_555
O7A Cu1 1_555 1_555
O8A C7A 1_555 1_555
N1A Cu1 1_555 1_555
C1A C2A 1_555 1_555
C2A C3A 1_555 1_555
C3A H5A 1_555 1_555
C4A C3A 1_555 1_555
H6A C4A 1_555 1_555
C5A N1A 1_555 1_555
C6A N1A 1_555 1_555
H7A C6A 1_555 1_555
C7A O7A 1_555 1_555
Cu2A Cu1 1_555 1_555
O9A C8A 1_555 1_555
O10A C8A 1_555 1_555
O11A Cu2A 1_555 1_555
O12A C14A 1_555 1_555
N2A Cu2A 1_555 1_555
C8A C9A 1_555 1_555
C9A C10A 1_555 1_555
C10A H8A 1_555 1_555
C11A C10A 1_555 1_555
H9A C11A 1_555 1_555
C12A N2A 1_555 1_555
C13A N2A 1_555 1_555
H10A C13A 1_555 1_555
C14A O11A 1_555 1_555
O13A C15A 1_555 1_555
O14A C15A 1_555 1_555
O15A Cu2A 1_555 1_555
O16A C21A 1_555 1_555
N3A Cu2A 1_555 1_555
C15A C16A 1_555 1_555
C16A C17A 1_555 1_555
C17A H11A 1_555 1_555
C18A C17A 1_555 1_555
H12A C18A 1_555 1_555
C19A N3A 1_555 1_555
C20A N3A 1_555 1_555
H13A C20A 1_555 1_555
C21A O15A 1_555 1_555
Gd1A O9A 1_555 1_555
O1A Gd1A 1_555 1_555
H1A O1A 1_555 1_555
O2A Gd1A 1_555 1_555
H2A O2A 1_555 1_555
O3A Gd1A 1_555 1_555
H3A O3A 1_555 1_555
O4A Gd1A 1_555 1_555
H4A O4A 1_555 1_555
O10A_2 Gd1 1_555 1_555
O13_2 Gd1 1_555 1_555
O14A_2 Gd1 1_555 1_555
Gd1A_2 O10 1_555 1_555
Gd1_2 O13 1_555 1_555
Gd1A_3 O14 1_555 1_555
Gd1_3 O10A 1_555 1_555
Gd1A_4 O13A 1_555 1_555
Gd1_4 O14A 1_555 1_555
O10_2 Gd1A 1_555 1_555
O13A_2 Gd1A 1_555 1_555
O14_2 Gd1A 1_555 1_555
C2 C6 1_555 1_555
C4 C5 1_555 1_555
C5 C7 1_555 1_555
C9 C13 1_555 1_555
C11 C12 1_555 1_555
C16 C20 1_555 1_555
C18 C19 1_555 1_555
C19 C21 1_555 1_555
C2A C6A 1_555 1_555
C4A C5A 1_555 1_555
C5A C7A 1_555 1_555
C9A C13A 1_555 1_555
C11A C12A 1_555 1_555
C12A C14A 1_555 1_555
C16A C20A 1_555 1_555
C18A C19A 1_555 1_555
C19A C21A 1_555 1_555

#END
