
#######################################################################
#
#                 Cambridge Crystallographic Data Centre
#                                CCDC 
#
#######################################################################
#
# If this CIF has been generated from an entry in the Cambridge 
# Structural Database, then it will include bibliographic, chemical, 
# crystal, experimental, refinement or atomic coordinate data resulting 
# from the CCDC's data processing and validation procedures.
#
#######################################################################

data_QUPZAC01
_symmetry_cell_setting           monoclinic
_symmetry_space_group_name_H-M   'P 21/c'
_symmetry_Int_Tables_number      14
_space_group_name_Hall           '-P 2ybc'
loop_
_symmetry_equiv_pos_site_id
_symmetry_equiv_pos_as_xyz
1 x,y,z
2 -x,1/2+y,1/2-z
3 -x,-y,-z
4 x,1/2-y,1/2+z
_cell_length_a                   9.2988(19)
_cell_length_b                   25.588(5)
_cell_length_c                   7.8161(16)
_cell_angle_alpha                90
_cell_angle_beta                 97.25(3)
_cell_angle_gamma                90
_cell_volume                     1844.88
loop_
_atom_site_label
_atom_site_type_symbol
_atom_site_fract_x
_atom_site_fract_y
_atom_site_fract_z
H1 H 1.063(10) 0.649(3) 1.065(7)
H2 H 1.156(5) 0.6825(18) 1.103(6)
H3 H 1.038(4) 0.5674(14) 1.668(7)
H4 H 0.953(5) 0.6010(19) 1.742(4)
H5 H 1.149(2) 0.561(3) 1.363(8)
H6 H 1.019(6) 0.5382(14) 1.294(8)
Sm1 Sm 0.013880(18) 0.349570(7) -0.41319(2)
Cu1 Cu 0.5000 0.5000 0.5000
C1 C 0.2489(4) 0.20442(15) -0.1651(5)
C2 C 0.3723(5) 0.22160(19) -0.2320(6)
H9 H 0.3667 0.2479 -0.3148
C3 C 0.5036(4) 0.19855(19) -0.1721(6)
H10 H 0.5883 0.2100 -0.2119
C4 C 0.5085(4) 0.15853(16) -0.0528(5)
C5 C 0.3795(4) 0.14321(14) 0.0055(5)
H11 H 0.3819 0.1158 0.0841
C6 C 0.1015(4) 0.22756(15) -0.2238(5)
C7 C 0.2135(4) 0.38984(16) -0.0425(5)
C8 C 0.3521(4) 0.41543(16) 0.0394(5)
C9 C 0.4823(5) 0.41151(19) -0.0308(6)
H12 H 0.4863 0.3927 -0.1319
C10 C 0.6065(5) 0.43591(18) 0.0512(6)
H13 H 0.6942 0.4337 0.0062
C11 C 0.5956(4) 0.46345(16) 0.2011(5)
C12 C 0.3519(4) 0.44309(17) 0.1918(5)
H14 H 0.2661 0.4453 0.2410
C13 C 0.7220(4) 0.49285(15) 0.3007(6)
C14 C 0.6489(4) 0.13144(16) 0.0153(5)
N1 N 0.2523(3) 0.16613(13) -0.0466(4)
N2 N 0.4702(4) 0.46674(13) 0.2708(4)
O1 O -0.0060(3) 0.20624(11) -0.1684(4)
O2 O 0.7632(3) 0.15609(13) -0.0060(4)
O4 O 0.6417(3) 0.08856(12) 0.0899(5)
O5 O 0.2071(3) 0.37703(12) -0.1983(4)
O6 O 0.8839(4) 0.61710(16) 0.9496(4)
O7 O 0.6915(3) 0.51644(13) 0.4349(4)
O8 O 0.1602(3) 0.50814(12) 0.7508(5)
O9 O 0.0950(3) 0.26529(12) -0.3237(4)
O10 O 1.0991(4) 0.66454(17) 1.1507(5)
O11 O 1.0634(3) 0.56494(13) 1.3244(5)
O12 O 0.9780(4) 0.59066(12) 1.6505(4)
H1B H -0.063(10) 0.351(3) -0.065(7)
H2B H -0.156(5) 0.3175(18) -0.103(6)
H3B H -0.038(4) 0.4326(14) -0.668(7)
H4B H 0.047(5) 0.3990(19) -0.742(4)
H5B H -0.149(2) 0.439(3) -0.363(8)
H6B H -0.019(6) 0.4618(14) -0.294(8)
Sm1C Sm 0.013880(18) 0.150430(7) 0.08681(2)
Sm1B Sm 0.986120(18) 0.650430(7) 1.41319(2)
Sm1C_2 Sm 0.013880(18) 0.150430(7) -0.91319(2)
Sm1C_3 Sm 1.013880(18) 0.150430(7) 0.08681(2)
Sm1_2 Sm 1.013880(18) 0.349570(7) -0.41319(2)
C1C C 0.2489(4) 0.29558(15) -0.6651(5)
C2C C 0.3723(5) 0.27840(19) -0.7320(6)
H9C H 0.3667 0.2521 -0.8148
C3C C 0.5036(4) 0.30145(19) -0.6721(6)
H10C H 0.5883 0.2900 -0.7119
C4C C 0.5085(4) 0.34147(16) -0.5528(5)
C5C C 0.3795(4) 0.35679(14) -0.4945(5)
H11C H 0.3819 0.3842 -0.4159
C6C C 0.1015(4) 0.27244(15) -0.7238(5)
C7B C 0.7865(4) 0.61016(16) 1.0425(5)
C8B C 0.6479(4) 0.58457(16) 0.9606(5)
C9B C 0.5177(5) 0.58849(19) 1.0308(6)
H12B H 0.5137 0.6073 1.1319
C10B C 0.3935(5) 0.56409(18) 0.9488(6)
H13B H 0.3058 0.5663 0.9938
C11B C 0.4044(4) 0.53655(16) 0.7989(5)
C12B C 0.6481(4) 0.55691(17) 0.8082(5)
H14B H 0.7339 0.5547 0.7590
C13B C 0.2780(4) 0.50715(15) 0.6993(6)
C14C C 0.6489(4) 0.36856(16) -0.4847(5)
N1C N 0.2523(3) 0.33387(13) -0.5466(4)
N1A N 0.7477(3) 0.66613(13) 1.5466(4)
N2B N 0.5298(4) 0.53326(13) 0.7292(4)
O1C O -0.0060(3) 0.29376(11) -0.6684(4)
O1A O 1.0060(3) 0.70624(11) 1.6684(4)
O2C O -0.2368(3) 0.34391(13) -0.5060(4)
O2A O 1.2368(3) 0.65609(13) 1.5060(4)
O2C_2 O 0.7632(3) 0.34391(13) -0.5060(4)
O4C O 0.6417(3) 0.41144(12) -0.4101(5)
O5B O 0.7929(3) 0.62297(12) 1.1983(4)
O6B O 0.1161(4) 0.38290(16) 0.0504(4)
O7B O 0.3085(3) 0.48356(13) 0.5651(4)
O8B O 0.8398(3) 0.49186(12) 0.2492(5)
O9B O 0.9050(3) 0.73471(12) 1.3237(4)
O9C O 0.0950(3) 0.23471(12) -0.8237(4)
O10B O -0.0991(4) 0.33546(17) -0.1507(5)
O11B O -0.0634(3) 0.43506(13) -0.3244(5)
O12B O 0.0220(4) 0.40934(12) -0.6505(4)
H7 H -2.184(7) 0.276(3) 1.151(6)
H8 H -2.243(13) 0.2411(12) 1.040(16)
O3 O -2.2429(4) 0.27241(17) 1.0635(6)
loop_
_geom_bond_atom_site_label_1
_geom_bond_atom_site_label_2
_geom_bond_site_symmetry_1
_geom_bond_site_symmetry_2
H1 O10 1_555 1_555
H2 O10 1_555 1_555
H3 O12 1_555 1_555
H4 O12 1_555 1_555
H5 O11 1_555 1_555
H6 O11 1_555 1_555
H7 O3 1_555 1_555
H8 O3 1_555 1_555
Sm1 O5 1_555 1_555
Cu1 N2 1_555 1_555
C1 C2 1_555 1_555
C2 H9 1_555 1_555
C3 C2 1_555 1_555
H10 C3 1_555 1_555
C4 C3 1_555 1_555
C5 C4 1_555 1_555
H11 C5 1_555 1_555
C6 C1 1_555 1_555
C7 C8 1_555 1_555
C8 C9 1_555 1_555
C9 H12 1_555 1_555
C10 C9 1_555 1_555
H13 C10 1_555 1_555
C11 C10 1_555 1_555
C12 C8 1_555 1_555
H14 C12 1_555 1_555
C13 C11 1_555 1_555
C14 C4 1_555 1_555
N1 C1 1_555 1_555
N2 C11 1_555 1_555
O1 C6 1_555 1_555
O2 C14 1_555 1_555
O4 C14 1_555 1_555
O5 C7 1_555 1_555
O6 C7B 1_555 1_555
O7 Cu1 1_555 1_555
O8 C13B 1_555 1_555
O9 Sm1 1_555 1_555
O10 Sm1B 1_555 1_555
O11 Sm1B 1_555 1_555
O12 Sm1B 1_555 1_555
H1B O10B 1_555 1_555
H2B O10B 1_555 1_555
H3B O12B 1_555 1_555
H4B O12B 1_555 1_555
H5B O11B 1_555 1_555
H6B O11B 1_555 1_555
Sm1C N1 1_555 1_555
Sm1B N1A 1_555 1_555
Sm1C_2 O9C 1_555 1_555
Sm1C_3 O2 1_555 1_555
Sm1_2 O2C_2 1_555 1_555
C1C C2C 1_555 1_555
C2C H9C 1_555 1_555
C3C C2C 1_555 1_555
H10C C3C 1_555 1_555
C4C C3C 1_555 1_555
C5C C4C 1_555 1_555
H11C C5C 1_555 1_555
C6C C1C 1_555 1_555
C7B C8B 1_555 1_555
C8B C9B 1_555 1_555
C9B H12B 1_555 1_555
C10B C9B 1_555 1_555
H13B C10B 1_555 1_555
C11B C10B 1_555 1_555
C12B C8B 1_555 1_555
H14B C12B 1_555 1_555
C13B C11B 1_555 1_555
C14C C4C 1_555 1_555
N1C Sm1 1_555 1_555
N2B Cu1 1_555 1_555
O1C Sm1 1_555 1_555
O1A Sm1B 1_555 1_555
O2C Sm1 1_555 1_555
O2A Sm1B 1_555 1_555
O2C_2 C14C 1_555 1_555
O4C C14C 1_555 1_555
O5B Sm1B 1_555 1_555
O6B C7 1_555 1_555
O7B Cu1 1_555 1_555
O8B C13 1_555 1_555
O9B Sm1B 1_555 1_555
O9C C6C 1_555 1_555
O10B Sm1 1_555 1_555
O11B Sm1 1_555 1_555
O12B Sm1 1_555 1_555
C5 N1 1_555 1_555
C6 O9 1_555 1_555
C12 N2 1_555 1_555
C13 O7 1_555 1_555
O1 Sm1C 1_555 1_555
C1C N1C 1_555 1_555
C5C N1C 1_555 1_555
C6C O1C 1_555 1_555
C7B O5B 1_555 1_555
C11B N2B 1_555 1_555
C12B N2B 1_555 1_555
C13B O7B 1_555 1_555

#END
