
#######################################################################
#
#                 Cambridge Crystallographic Data Centre
#                                CCDC 
#
#######################################################################
#
# If this CIF has been generated from an entry in the Cambridge 
# Structural Database, then it will include bibliographic, chemical, 
# crystal, experimental, refinement or atomic coordinate data resulting 
# from the CCDC's data processing and validation procedures.
#
#######################################################################

data_QUPZIK
_symmetry_cell_setting           monoclinic
_symmetry_space_group_name_H-M   'P 21/c'
_symmetry_Int_Tables_number      14
_space_group_name_Hall           '-P 2ybc'
loop_
_symmetry_equiv_pos_site_id
_symmetry_equiv_pos_as_xyz
1 x,y,z
2 -x,1/2+y,1/2-z
3 -x,-y,-z
4 x,1/2-y,1/2+z
_cell_length_a                   9.1721(5)
_cell_length_b                   25.4000(15)
_cell_length_c                   7.7385(4)
_cell_angle_alpha                90
_cell_angle_beta                 97.3390(10)
_cell_angle_gamma                90
_cell_volume                     1788.08
loop_
_atom_site_label
_atom_site_type_symbol
_atom_site_fract_x
_atom_site_fract_y
_atom_site_fract_z
Er1 Er 0.51120(3) 0.651145(12) 0.58771(4)
Cu1 Cu 1.0000 0.5000 1.5000
O1 O 0.4860(6) 0.7074(2) 0.3410(7)
O2 O 0.5847(6) 0.7669(2) 0.1815(7)
O3 O 1.2661(6) 0.6565(2) 0.4943(7)
O4 O 1.1429(6) 0.5883(2) 0.5903(8)
O5 O 1.1925(6) 0.4831(2) 1.4358(7)
O6 O 1.3455(6) 0.5087(2) 1.2485(7)
O7 O 0.7015(6) 0.6243(2) 0.7976(7)
O8 O 0.6122(7) 0.6182(3) 1.0511(8)
O9 O 0.3950(7) 0.6636(3) 0.8438(8)
O10 O 0.4379(6) 0.5670(2) 0.6716(8)
O11 O 0.5221(6) 0.5933(2) 0.3532(7)
N1 N 0.7474(7) 0.6673(2) 0.4602(7)
N2 N 0.9694(7) 0.5337(3) 1.2690(8)
C1 C 0.5931(9) 0.7286(3) 0.2852(10)
C2 C 0.7438(8) 0.7062(3) 0.3429(9)
C3 C 0.8674(9) 0.7233(3) 0.2756(12)
C4 C 1.0010(9) 0.7002(4) 0.3291(11)
C5 C 1.0062(8) 0.6593(3) 0.4509(10)
C6 C 0.8769(8) 0.6440(3) 0.5113(10)
C7 C 1.1484(9) 0.6321(3) 0.5175(10)
C8 C 1.2245(9) 0.5080(3) 1.3014(10)
C9 C 1.0970(9) 0.5374(3) 1.1998(10)
C10 C 1.1075(9) 0.5660(3) 1.0480(10)
C11 C 0.9804(10) 0.5902(4) 0.9671(11)
C12 C 0.8493(9) 0.5862(3) 1.0391(10)
C13 C 0.8490(9) 0.5576(3) 1.1917(10)
C14 C 0.7107(9) 0.6116(3) 0.9568(9)
O5B O 0.8075(6) 0.5169(2) 1.5642(7)
O6B O 0.6545(6) 0.4913(2) 1.7515(7)
O7B O 1.2985(6) 0.3757(2) 2.2024(7)
O8B O 1.3878(7) 0.3818(3) 1.9489(8)
N2B N 1.0306(7) 0.4663(3) 1.7310(8)
C8B C 0.7755(9) 0.4920(3) 1.6986(10)
C9B C 0.9030(9) 0.4626(3) 1.8002(10)
C10B C 0.8925(9) 0.4340(3) 1.9520(10)
C11B C 1.0196(10) 0.4098(4) 2.0329(11)
C12B C 1.1507(9) 0.4138(3) 1.9609(10)
C13B C 1.1510(9) 0.4424(3) 1.8083(10)
C14B C 1.2893(9) 0.3884(3) 2.0432(9)
Er1B Er 1.48880(3) 0.348855(12) 2.41229(4)
O1C O 0.4860(6) 0.7926(2) 0.8410(7)
O2C O 0.5847(6) 0.7331(2) 0.6815(7)
O3C O 1.2661(6) 0.8435(2) 0.9943(7)
O4C O 1.1429(6) 0.9117(2) 1.0903(8)
N1C N 0.7474(7) 0.8327(2) 0.9602(7)
C1C C 0.5931(9) 0.7714(3) 0.7852(10)
C2C C 0.7438(8) 0.7938(3) 0.8429(9)
C3C C 0.8674(9) 0.7767(3) 0.7756(12)
C4C C 1.0010(9) 0.7998(4) 0.8291(11)
C5C C 1.0062(8) 0.8407(3) 0.9509(10)
C6C C 0.8769(8) 0.8560(3) 1.0113(10)
C7C C 1.1484(9) 0.8679(3) 1.0175(10)
O9B O 1.6050(7) 0.3364(3) 2.1562(8)
O10B O 1.5621(6) 0.4330(2) 2.3284(8)
O11B O 1.4779(6) 0.4067(2) 2.6468(7)
O3_2 O 0.2661(6) 0.6565(2) 0.4943(7)
Er1C Er 0.51120(3) 0.848855(12) 0.08771(4)
Er1_2 Er 1.51120(3) 0.651145(12) 0.58771(4)
O1B O 1.5140(6) 0.2926(2) 2.6590(7)
O2A O 1.4153(6) 0.2669(2) 2.3185(7)
O3B O 1.7339(6) 0.3435(2) 2.5057(7)
N1B N 1.2526(7) 0.3327(2) 2.5398(7)
Er1C_2 Er 0.51120(3) 0.848855(12) 1.08771(4)
Er1C_3 Er 1.51120(3) 0.848855(12) 1.08771(4)
O12 O 0.2526(7) 0.7268(3) 0.0615(9)
loop_
_geom_bond_atom_site_label_1
_geom_bond_atom_site_label_2
_geom_bond_site_symmetry_1
_geom_bond_site_symmetry_2
Er1 O1 1_555 1_555
Cu1 O5 1_555 1_555
O1 C1 1_555 1_555
O2 C1 1_555 1_555
O3 C7 1_555 1_555
O4 C7 1_555 1_555
O5 C8 1_555 1_555
O6 C8 1_555 1_555
O7 Er1 1_555 1_555
O8 C14 1_555 1_555
O9 Er1 1_555 1_555
O10 Er1 1_555 1_555
O11 Er1 1_555 1_555
N1 Er1 1_555 1_555
N2 Cu1 1_555 1_555
C1 C2 1_555 1_555
C2 N1 1_555 1_555
C3 C2 1_555 1_555
C4 C3 1_555 1_555
C5 C4 1_555 1_555
C6 N1 1_555 1_555
C7 C5 1_555 1_555
C8 C9 1_555 1_555
C9 N2 1_555 1_555
C10 C9 1_555 1_555
C11 C10 1_555 1_555
C12 C11 1_555 1_555
C13 N2 1_555 1_555
C14 O7 1_555 1_555
O5B Cu1 1_555 1_555
O6B C8B 1_555 1_555
O7B C14B 1_555 1_555
O8B C14B 1_555 1_555
N2B Cu1 1_555 1_555
C8B O5B 1_555 1_555
C9B N2B 1_555 1_555
C10B C9B 1_555 1_555
C11B C10B 1_555 1_555
C12B C11B 1_555 1_555
C13B N2B 1_555 1_555
C14B C12B 1_555 1_555
Er1B O7B 1_555 1_555
O1C C1C 1_555 1_555
O2C Er1 1_555 1_555
O3C C7C 1_555 1_555
O4C C7C 1_555 1_555
N1C C2C 1_555 1_555
C1C O2C 1_555 1_555
C2C C1C 1_555 1_555
C3C C2C 1_555 1_555
C4C C3C 1_555 1_555
C5C C4C 1_555 1_555
C6C N1C 1_555 1_555
C7C C5C 1_555 1_555
O9B Er1B 1_555 1_555
O10B Er1B 1_555 1_555
O11B Er1B 1_555 1_555
O3_2 Er1 1_555 1_555
Er1C O2 1_555 1_555
Er1_2 O3 1_555 1_555
O1B Er1B 1_555 1_555
O2A Er1B 1_555 1_555
O3B Er1B 1_555 1_555
N1B Er1B 1_555 1_555
Er1C_2 O1C 1_555 1_555
Er1C_3 O3C 1_555 1_555
C5 C6 1_555 1_555
C12 C13 1_555 1_555
C12 C14 1_555 1_555
C8B C9B 1_555 1_555
C12B C13B 1_555 1_555
N1C Er1C_2 1_555 1_555
C5C C6C 1_555 1_555

#END
