
#######################################################################
#
#                 Cambridge Crystallographic Data Centre
#                                CCDC 
#
#######################################################################
#
# If this CIF has been generated from an entry in the Cambridge 
# Structural Database, then it will include bibliographic, chemical, 
# crystal, experimental, refinement or atomic coordinate data resulting 
# from the CCDC's data processing and validation procedures.
#
#######################################################################

data_QUQCOV
_symmetry_cell_setting           monoclinic
_symmetry_space_group_name_H-M   'P 21/c'
_symmetry_Int_Tables_number      14
_space_group_name_Hall           '-P 2ybc'
loop_
_symmetry_equiv_pos_site_id
_symmetry_equiv_pos_as_xyz
1 x,y,z
2 -x,1/2+y,1/2-z
3 -x,-y,-z
4 x,1/2-y,1/2+z
_cell_length_a                   6.7583(6)
_cell_length_b                   15.9101(15)
_cell_length_c                   19.3168(18)
_cell_angle_alpha                90
_cell_angle_beta                 92.003(1)
_cell_angle_gamma                90
_cell_volume                     2075.77
loop_
_atom_site_label
_atom_site_type_symbol
_atom_site_fract_x
_atom_site_fract_y
_atom_site_fract_z
Ag1 Ag 0.5000 -0.5000 0.5000
Ag2 Ag 0.0000 -1.0000 0.0000
C1 C 0.5375(6) -0.3124(3) 0.4947(2)
H1 H 0.5449 -0.3122 0.5429
C2 C 0.5069(5) -0.3539(2) 0.38847(18)
C3 C 0.5331(5) -0.2675(2) 0.38804(17)
C4 C 0.5371(5) -0.2202(2) 0.32772(18)
H2 H 0.5601 -0.1626 0.3286
C5 C 0.4741(5) -0.3976(2) 0.32596(17)
H3 H 0.4575 -0.4556 0.3253
C6 C 0.5053(5) -0.2633(2) 0.26655(17)
C7 C 0.4674(5) -0.3514(2) 0.26564(17)
C8 C 0.5285(5) -0.2184(2) 0.19951(19)
C9 C 0.3841(5) -0.3914(2) 0.20046(17)
C10 C 0.5268(5) -0.4538(2) -0.00121(17)
C11 C 0.0512(5) -0.3612(2) -0.02901(17)
C12 C 0.0473(5) -0.3963(2) -0.18691(17)
C13 C 0.0350(5) -0.3093(2) -0.15611(17)
C14 C 0.0345(5) -0.2934(2) -0.08327(17)
C15 C 0.0193(5) -0.2436(2) -0.20263(17)
H4 H 0.0217 -0.2533 -0.2501
C16 C 0.0237(5) -0.2121(2) -0.05860(17)
H5 H 0.0274 -0.2014 -0.0112
C17 C 0.0073(5) -0.1467(2) -0.10582(17)
C18 C -0.0002(5) -0.1627(2) -0.17675(16)
C19 C -0.0254(6) -0.0272(2) -0.15736(19)
H6 H -0.0389 0.0302 -0.1655
Ho1 Ho 0.15214(2) -0.461680(9) 0.091760(7)
N1 N 0.5107(5) -0.3818(2) 0.45679(15)
N2 N 0.5522(5) -0.2446(2) 0.45669(16)
H7 H 0.5706 -0.1944 0.4720
N3 N -0.0078(5) -0.06049(18) -0.09494(15)
N4 N -0.0217(4) -0.08487(18) -0.20779(14)
H8 H -0.0311 -0.0752 -0.2516
O1 O 0.4507(5) -0.14231(19) 0.19270(16)
H9 H 0.3788 -0.1330 0.2251
O2 O 0.6217(4) -0.24805(18) 0.15281(14)
O3 O 0.2371(4) -0.35458(16) 0.17073(12)
O4 O 0.4456(4) -0.46012(15) 0.17901(13)
O5 O -0.0967(4) -0.44567(14) -0.17742(12)
O6 O 0.1903(4) -0.41418(16) -0.22259(14)
O7 O 0.0813(4) -0.43803(14) -0.04526(12)
O8 O 0.0392(4) -0.34036(15) 0.03306(12)
O9 O 0.6588(4) -0.43266(14) -0.04205(12)
O10 O 0.4362(3) -0.40465(14) 0.03692(12)
O11 O -0.1638(4) -0.41863(16) 0.14074(13)
H10 H -0.2620 -0.4534 0.1559
H11 H -0.2266 -0.3728 0.1314
Ag2_2 Ag 0.0000 0.0000 0.0000
C1B C 0.4625(6) -0.6876(3) 0.5053(2)
H1B H 0.4551 -0.6878 0.4571
C2B C 0.4931(5) -0.6461(2) 0.61153(18)
C3B C 0.4669(5) -0.7325(2) 0.61196(17)
C4B C 0.4629(5) -0.7798(2) 0.67228(18)
H2B H 0.4399 -0.8374 0.6714
C5B C 0.5259(5) -0.6024(2) 0.67404(17)
H3B H 0.5425 -0.5444 0.6747
C6B C 0.4947(5) -0.7367(2) 0.73345(17)
C7B C 0.5326(5) -0.6486(2) 0.73436(17)
C8B C 0.4715(5) -0.7816(2) 0.80049(19)
C9B C 0.6159(5) -0.6086(2) 0.79954(17)
C10B C 0.4732(5) -0.5462(2) 0.00121(17)
C11B C -0.0512(5) -0.6388(2) 0.02901(17)
C12B C -0.0473(5) -0.6037(2) 0.18691(17)
C13B C -0.0350(5) -0.6907(2) 0.15611(17)
C14B C -0.0345(5) -0.7066(2) 0.08327(17)
C15B C -0.0193(5) -0.7564(2) 0.20263(17)
H4B H -0.0217 -0.7467 0.2501
C16B C -0.0237(5) -0.7879(2) 0.05860(17)
H5B H -0.0274 -0.7986 0.0112
C17B C -0.0073(5) -0.8533(2) 0.10582(17)
C18B C 0.0002(5) -0.8373(2) 0.17675(16)
C19B C 0.0254(6) -0.9728(2) 0.15736(19)
H6B H 0.0389 -1.0302 0.1655
Ho1B Ho 0.84786(2) -0.538320(9) 0.908240(7)
Ho1B_2 Ho -0.15214(2) -0.538320(9) -0.091760(7)
Ho1B_3 Ho 0.84786(2) -0.538320(9) -0.091760(7)
N1B N 0.4893(5) -0.6182(2) 0.54321(15)
N2B N 0.4478(5) -0.7554(2) 0.54331(16)
H7B H 0.4294 -0.8056 0.5280
N3B N 0.0078(5) -0.93951(18) 0.09494(15)
N3_2 N -0.0078(5) -1.06049(18) -0.09494(15)
N4B N 0.0217(4) -0.91513(18) 0.20779(14)
H8B H 0.0311 -0.9248 0.2516
O1B O 0.5493(5) -0.85769(19) 0.80730(16)
H9B H 0.6212 -0.8670 0.7749
O2B O 0.3783(4) -0.75195(18) 0.84719(14)
O3B O 0.7629(4) -0.64542(16) 0.82927(12)
O4B O 0.5544(4) -0.53988(15) 0.82099(13)
O5B O 0.0967(4) -0.55433(14) 0.17742(12)
O5_2 O 0.9033(4) -0.44567(14) 0.82258(12)
O6B O -0.1903(4) -0.58582(16) 0.22259(14)
O7B O -0.0813(4) -0.56197(14) 0.04526(12)
O7B_2 O 0.9187(4) -0.56197(14) 1.04526(12)
O7_2 O 1.0813(4) -0.43803(14) 0.95474(12)
O8B O -0.0392(4) -0.65964(15) -0.03306(12)
O8B_2 O 0.9608(4) -0.65964(15) 0.96694(12)
O9B O 0.3412(4) -0.56734(14) 0.04205(12)
O9_2 O 0.6588(4) -0.43266(14) 0.95795(12)
O10B O 0.5638(3) -0.59535(14) -0.03692(12)
O10B_2 O 0.5638(3) -0.59535(14) 0.96308(12)
O11B O 1.1638(4) -0.58137(16) 0.85926(13)
H10B H 1.2620 -0.5466 0.8441
H11B H 1.2266 -0.6272 0.8686
O12 O 1.0130(7) -0.1714(2) 0.11716(19)
H12 H 1.0996 -0.2180 0.1136
H13 H 0.8819 -0.1928 0.1215
loop_
_geom_bond_atom_site_label_1
_geom_bond_atom_site_label_2
_geom_bond_site_symmetry_1
_geom_bond_site_symmetry_2
Ag1 N1 1_555 1_555
Ag2 N3B 1_555 1_555
C1 H1 1_555 1_555
C2 C3 1_555 1_555
C3 C4 1_555 1_555
C4 H2 1_555 1_555
C5 C2 1_555 1_555
H3 C5 1_555 1_555
C6 C4 1_555 1_555
C7 C5 1_555 1_555
C8 C6 1_555 1_555
C9 C7 1_555 1_555
C10 O9 1_555 1_555
C11 C14 1_555 1_555
C12 C13 1_555 1_555
C13 C14 1_555 1_555
C14 C16 1_555 1_555
C15 C13 1_555 1_555
H4 C15 1_555 1_555
C16 H5 1_555 1_555
C17 C16 1_555 1_555
C18 C15 1_555 1_555
C19 H6 1_555 1_555
Ho1 O3 1_555 1_555
N1 C1 1_555 1_555
N2 C1 1_555 1_555
H7 N2 1_555 1_555
N3 C17 1_555 1_555
N4 C18 1_555 1_555
H8 N4 1_555 1_555
O1 C8 1_555 1_555
H9 O1 1_555 1_555
O2 C8 1_555 1_555
O3 C9 1_555 1_555
O4 C9 1_555 1_555
O5 C12 1_555 1_555
O6 C12 1_555 1_555
O7 C11 1_555 1_555
O8 C11 1_555 1_555
O9 Ho1B_3 1_555 1_555
O10 C10 1_555 1_555
O11 Ho1 1_555 1_555
H10 O11 1_555 1_555
H11 O11 1_555 1_555
O12 H12 1_555 1_555
H13 O12 1_555 1_555
Ag2_2 N3 1_555 1_555
C1B H1B 1_555 1_555
C2B C3B 1_555 1_555
C3B C4B 1_555 1_555
C4B H2B 1_555 1_555
C5B C2B 1_555 1_555
H3B C5B 1_555 1_555
C6B C4B 1_555 1_555
C7B C5B 1_555 1_555
C8B C6B 1_555 1_555
C9B C7B 1_555 1_555
C10B C10 1_555 1_555
C11B C14B 1_555 1_555
C12B C13B 1_555 1_555
C13B C14B 1_555 1_555
C14B C16B 1_555 1_555
C15B C13B 1_555 1_555
H4B C15B 1_555 1_555
C16B H5B 1_555 1_555
C17B C16B 1_555 1_555
C18B C15B 1_555 1_555
C19B H6B 1_555 1_555
Ho1B O3B 1_555 1_555
Ho1B_2 O5 1_555 1_555
Ho1B_3 O10B 1_555 1_555
N1B Ag1 1_555 1_555
N2B C1B 1_555 1_555
H7B N2B 1_555 1_555
N3B C17B 1_555 1_555
N3_2 Ag2 1_555 1_555
N4B C18B 1_555 1_555
H8B N4B 1_555 1_555
O1B C8B 1_555 1_555
H9B O1B 1_555 1_555
O2B C8B 1_555 1_555
O3B C9B 1_555 1_555
O4B C9B 1_555 1_555
O5B Ho1 1_555 1_555
O5_2 Ho1B 1_555 1_555
O6B C12B 1_555 1_555
O7B Ho1 1_555 1_555
O7B_2 Ho1B 1_555 1_555
O7_2 Ho1B 1_555 1_555
O8B C11B 1_555 1_555
O8B_2 Ho1B 1_555 1_555
O9B Ho1 1_555 1_555
O9_2 Ho1B 1_555 1_555
O10B C10B 1_555 1_555
O10B_2 Ho1B 1_555 1_555
O11B Ho1B 1_555 1_555
H10B O11B 1_555 1_555
H11B O11B 1_555 1_555
C2 N1 1_555 1_555
C3 N2 1_555 1_555
C6 C7 1_555 1_555
C17 C18 1_555 1_555
C19 N3 1_555 1_555
C19 N4 1_555 1_555
Ho1 O4 1_555 1_555
Ho1 O7 1_555 1_555
Ho1 O8 1_555 1_555
Ho1 O10 1_555 1_555
O7 Ho1B_2 1_555 1_555
C1B N1B 1_555 1_555
C2B N1B 1_555 1_555
C3B N2B 1_555 1_555
C6B C7B 1_555 1_555
C10B O9B 1_555 1_555
C11B O7B 1_555 1_555
C12B O5B 1_555 1_555
C17B C18B 1_555 1_555
C19B N3B 1_555 1_555
C19B N4B 1_555 1_555
Ho1B O4B 1_555 1_555
Ho1B_2 O7B 1_555 1_555
Ho1B_2 O8B 1_555 1_555

#END
