
#######################################################################
#
#                 Cambridge Crystallographic Data Centre
#                                CCDC 
#
#######################################################################
#
# If this CIF has been generated from an entry in the Cambridge 
# Structural Database, then it will include bibliographic, chemical, 
# crystal, experimental, refinement or atomic coordinate data resulting 
# from the CCDC's data processing and validation procedures.
#
#######################################################################

data_QUQGIT
_symmetry_cell_setting           monoclinic
_symmetry_space_group_name_H-M   'P 21/c'
_symmetry_Int_Tables_number      14
_space_group_name_Hall           '-P 2ybc'
loop_
_symmetry_equiv_pos_site_id
_symmetry_equiv_pos_as_xyz
1 x,y,z
2 -x,1/2+y,1/2-z
3 -x,-y,-z
4 x,1/2-y,1/2+z
_cell_length_a                   13.7934(4)
_cell_length_b                   14.2293(4)
_cell_length_c                   10.3064(3)
_cell_angle_alpha                90
_cell_angle_beta                 109.281(1)
_cell_angle_gamma                90
_cell_volume                     1909.38
loop_
_atom_site_label
_atom_site_type_symbol
_atom_site_fract_x
_atom_site_fract_y
_atom_site_fract_z
Zn1 Zn 0.251018(14) 0.239662(14) 0.782713(18)
C1 C 0.45591(12) 0.32986(12) 0.93932(16)
C2 C 0.54340(12) 0.33830(12) 1.07285(16)
C3 C 0.61362(13) 0.41140(13) 1.09624(17)
H1 H 0.6098 0.4537 1.0260
C4 C 0.55256(13) 0.27378(13) 1.17734(18)
H2 H 0.5070 0.2236 1.1625
C5 C 0.62861(14) 0.28354(13) 1.30277(17)
H3 H 0.6346 0.2392 1.3712
C6 C 0.68963(13) 0.42217(13) 1.22354(17)
H4 H 0.7357 0.4719 1.2380
C7 C 0.69701(13) 0.35918(12) 1.32866(16)
C8 C 0.77691(13) 0.36690(13) 1.47108(16)
H5 H 0.8179 0.3092 1.4885
C9 C 0.72530(12) 0.37502(13) 1.58226(16)
H6 H 0.6771 0.3226 1.5703
C10 C 0.80448(12) 0.36801(12) 1.72598(16)
C11 C 0.86935(13) 0.29007(13) 1.75816(17)
H7 H 0.8619 0.2430 1.6930
C12 C 0.81284(13) 0.43459(13) 1.82750(17)
H8 H 0.7686 0.4859 1.8091
C13 C 1.04143(13) 0.34356(12) 2.11957(16)
C14 C 0.95494(12) 0.35008(12) 1.98528(16)
C15 C 0.88689(13) 0.42517(13) 1.95631(17)
H9 H 0.8909 0.4697 2.0240
C16 C 0.94425(13) 0.28165(13) 1.88489(17)
H10 H 0.9880 0.2300 1.9036
O1 O 0.38402(10) 0.27433(10) 0.94043(12)
O3 O 0.45749(9) 0.37747(9) 0.83870(12)
O5 O 0.84411(10) 0.44353(10) 1.47766(13)
H15 H 0.8961(19) 0.4337(17) 1.535(2)
O6 O 0.66758(10) 0.46071(10) 1.55937(13)
H16 H 0.6297(18) 0.4603(16) 1.592(2)
O7 O 1.11814(9) 0.29448(10) 2.11863(12)
O8 O 1.03529(9) 0.38669(9) 2.22218(12)
O9 O 0.26664(12) 0.35304(10) 0.67205(14)
H17 H 0.3284(19) 0.3671(16) 0.706(2)
H18 H 0.2516(17) 0.3561(17) 0.594(3)
O10 O 0.33020(12) 0.14892(12) 0.68299(17)
H19 H 0.338(2) 0.170(2) 0.622(3)
H20 H 0.376(2) 0.1187(18) 0.721(3)
O11 O 0.22226(11) 0.12796(10) 0.89616(12)
H21 H 0.2554(18) 0.0763(19) 0.907(2)
H22 H 0.169(2) 0.1204(17) 0.856(3)
O12 O 0.17059(12) 0.32895(12) 0.87552(17)
H23 H 0.1516(18) 0.3190(17) 0.932(3)
H24 H 0.135(2) 0.362(2) 0.830(3)
Zn1C Zn 1.251018(14) 0.260338(14) 2.282713(18)
O7C O 0.11814(9) 0.20552(10) 0.61863(12)
O2 O 0.52527(14) 0.50413(13) 0.68540(19)
H11 H 0.519(2) 0.471(2) 0.744(3)
H12 H 0.476(2) 0.517(2) 0.642(3)
O4 O -0.04424(12) -0.04088(11) 0.81467(16)
H13 H -0.030(2) 0.004(2) 0.771(3)
H14 H -0.082(2) -0.023(2) 0.849(3)
loop_
_geom_bond_atom_site_label_1
_geom_bond_atom_site_label_2
_geom_bond_site_symmetry_1
_geom_bond_site_symmetry_2
Zn1 O1 1_555 1_555
C1 C2 1_555 1_555
C2 C3 1_555 1_555
C3 H1 1_555 1_555
C4 C2 1_555 1_555
H2 C4 1_555 1_555
C5 C4 1_555 1_555
H3 C5 1_555 1_555
C6 C3 1_555 1_555
H4 C6 1_555 1_555
C7 C5 1_555 1_555
C8 C7 1_555 1_555
H5 C8 1_555 1_555
C9 C8 1_555 1_555
H6 C9 1_555 1_555
C10 C9 1_555 1_555
C11 C10 1_555 1_555
H7 C11 1_555 1_555
C12 C10 1_555 1_555
H8 C12 1_555 1_555
C13 C14 1_555 1_555
C14 C15 1_555 1_555
C15 C12 1_555 1_555
H9 C15 1_555 1_555
C16 C11 1_555 1_555
H10 C16 1_555 1_555
O1 C1 1_555 1_555
O2 H11 1_555 1_555
H12 O2 1_555 1_555
O3 C1 1_555 1_555
O4 H13 1_555 1_555
H14 O4 1_555 1_555
O5 C8 1_555 1_555
H15 O5 1_555 1_555
O6 C9 1_555 1_555
H16 O6 1_555 1_555
O7 C13 1_555 1_555
O8 C13 1_555 1_555
O9 Zn1 1_555 1_555
H17 O9 1_555 1_555
H18 O9 1_555 1_555
O10 Zn1 1_555 1_555
H19 O10 1_555 1_555
H20 O10 1_555 1_555
O11 Zn1 1_555 1_555
H21 O11 1_555 1_555
H22 O11 1_555 1_555
O12 Zn1 1_555 1_555
H23 O12 1_555 1_555
H24 O12 1_555 1_555
Zn1C O7 1_555 1_555
O7C Zn1 1_555 1_555
C6 C7 1_555 1_555
C14 C16 1_555 1_555

#END
