
#######################################################################
#
#                 Cambridge Crystallographic Data Centre
#                                CCDC 
#
#######################################################################
#
# If this CIF has been generated from an entry in the Cambridge 
# Structural Database, then it will include bibliographic, chemical, 
# crystal, experimental, refinement or atomic coordinate data resulting 
# from the CCDC's data processing and validation procedures.
#
#######################################################################

data_QUQKUJ
_symmetry_cell_setting           monoclinic
_symmetry_space_group_name_H-M   'P 21/c'
_symmetry_Int_Tables_number      14
_space_group_name_Hall           '-P 2ybc'
loop_
_symmetry_equiv_pos_site_id
_symmetry_equiv_pos_as_xyz
1 x,y,z
2 -x,1/2+y,1/2-z
3 -x,-y,-z
4 x,1/2-y,1/2+z
_cell_length_a                   15.820(5)
_cell_length_b                   27.140(9)
_cell_length_c                   23.236(6)
_cell_angle_alpha                90
_cell_angle_beta                 129.027(15)
_cell_angle_gamma                90
_cell_volume                     7750.23
loop_
_atom_site_label
_atom_site_type_symbol
_atom_site_fract_x
_atom_site_fract_y
_atom_site_fract_z
Mn1 Mn 0.12495(5) -0.05758(2) 0.59519(3)
O1 O 0.0138(2) -0.05680(11) 0.47777(16)
O2 O -0.0784(2) -0.00922(11) 0.37781(17)
O3 O -0.6778(3) -0.14903(12) 0.71969(19)
O4 O -0.7913(2) -0.12404(12) 0.60136(18)
N1 N 0.2981(3) -0.10413(13) 0.3297(2)
N2 N 0.7538(3) 0.01168(14) 0.4052(2)
N3 N -0.0086(3) -0.09460(12) 0.59047(19)
N4 N -0.3847(3) -0.23102(13) 0.5927(2)
C1 C -0.0082(3) -0.04111(14) 0.4194(2)
C2 C 0.0490(3) -0.06382(13) 0.3930(2)
C3 C 0.0767(4) -0.03530(16) 0.3582(3)
H1 H 0.0596 -0.0012 0.3508
C4 C 0.0717(3) -0.11388(15) 0.4016(3)
H2 H 0.0538 -0.1340 0.4259
C5 C 0.1297(5) -0.05589(17) 0.3338(3)
H3 H 0.1522 -0.0355 0.3125
C6 C 0.1204(4) -0.13429(15) 0.3747(3)
H4 H 0.1343 -0.1687 0.3798
C7 C 0.1494(3) -0.10563(16) 0.3404(3)
C8 C 0.1989(4) -0.12975(17) 0.3094(3)
H5 H 0.2182 -0.1642 0.3274
H6 H 0.1437 -0.1308 0.2547
C9 C 0.3049(3) -0.09454(16) 0.2757(2)
H7 H 0.2452 -0.1019 0.2256
C10 C 0.3801(4) -0.09256(19) 0.3999(3)
H8 H 0.3740 -0.0997 0.4372
C11 C 0.3970(3) -0.07430(16) 0.2929(2)
H9 H 0.4028 -0.0693 0.2550
C12 C 0.4724(4) -0.07075(17) 0.4194(2)
H10 H 0.5295 -0.0623 0.4696
C13 C 0.4824(3) -0.06089(15) 0.3651(2)
C14 C 0.5808(3) -0.03742(15) 0.3836(2)
C15 C 0.6332(4) -0.05742(16) 0.3584(3)
H11 H 0.6103 -0.0881 0.3329
C16 C 0.6198(4) 0.00620(18) 0.4221(3)
H12 H 0.5888 0.0200 0.4426
C17 C 0.7189(4) -0.03185(17) 0.3710(3)
H13 H 0.7550 -0.0460 0.3543
C18 C 0.7050(4) 0.02997(19) 0.4307(3)
H14 H 0.7294 0.0607 0.4558
C19 C -0.0984(4) -0.11317(16) 0.5287(3)
H15 H -0.1092 -0.1090 0.4839
C20 C 0.0040(4) -0.09961(17) 0.6533(3)
H16 H 0.0669 -0.0860 0.6980
C21 C -0.1771(3) -0.13821(16) 0.5259(3)
H17 H -0.2397 -0.1510 0.4803
C22 C -0.0714(4) -0.12385(17) 0.6550(3)
H18 H -0.0603 -0.1264 0.7001
C23 C -0.1631(3) -0.14430(14) 0.5908(2)
C24 C -0.2409(3) -0.17383(14) 0.5922(2)
C25 C -0.3482(4) -0.1798(2) 0.5287(3)
H19 H -0.3730 -0.1639 0.4840
C26 C -0.2091(4) -0.19769(16) 0.6554(3)
H20 H -0.1362 -0.1946 0.6998
C27 C -0.4182(4) -0.2083(2) 0.5299(3)
H21 H -0.4913 -0.2122 0.4860
C28 C -0.2819(4) -0.22581(16) 0.6544(3)
H22 H -0.2588 -0.2419 0.6984
C29 C -0.4646(4) -0.26098(17) 0.5910(3)
H23 H -0.4260 -0.2878 0.6280
H24 H -0.5166 -0.2762 0.5415
C30 C -0.5268(4) -0.22995(14) 0.6077(3)
C31 C -0.6264(4) -0.21117(19) 0.5515(3)
H25 H -0.6560 -0.2169 0.5017
C32 C -0.4854(4) -0.22202(17) 0.6795(3)
H26 H -0.4161 -0.2352 0.7189
C33 C -0.6854(4) -0.18373(18) 0.5659(3)
H27 H -0.7542 -0.1705 0.5260
C34 C -0.5434(3) -0.19489(15) 0.6956(3)
H28 H -0.5137 -0.1897 0.7456
C35 C -0.6442(3) -0.17564(14) 0.6384(2)
C36 C -0.7101(4) -0.14752(15) 0.6547(3)
O24 O 0.2334(2) -0.06465(11) 0.71719(17)
Mn1B Mn -0.12495(5) 0.05758(2) 0.40481(3)
Mn1_2 Mn -0.87505(5) -0.05758(2) 0.59519(3)
Mn1B_2 Mn 0.87505(5) 0.05758(2) 0.40481(3)
O1B O -0.0138(2) 0.05680(11) 0.52223(16)
O2B O 0.0784(2) 0.00922(11) 0.62219(17)
O3B O 0.6778(3) 0.14903(12) 0.28031(19)
O4_2 O 0.2087(2) -0.12404(12) 0.60136(18)
O4B O -0.2087(2) 0.12404(12) 0.39864(18)
O4B_2 O 0.7913(2) 0.12404(12) 0.39864(18)
N1B N -0.2981(3) 0.10413(13) 0.6703(2)
N2B N 0.2462(3) -0.01168(14) 0.5948(2)
N2_2 N -0.2462(3) 0.01168(14) 0.4052(2)
N2B_2 N -0.7538(3) -0.01168(14) 0.5948(2)
N3B N 0.0086(3) 0.09460(12) 0.40953(19)
N4B N 0.3847(3) 0.23102(13) 0.4073(2)
C1B C 0.0082(3) 0.04111(14) 0.5806(2)
C2B C -0.0490(3) 0.06382(13) 0.6070(2)
C3B C -0.0767(4) 0.03530(16) 0.6418(3)
H1B H -0.0596 0.0012 0.6492
C4B C -0.0717(3) 0.11388(15) 0.5984(3)
H2B H -0.0538 0.1340 0.5741
C5B C -0.1297(5) 0.05589(17) 0.6662(3)
H3B H -0.1522 0.0355 0.6875
C6B C -0.1204(4) 0.13429(15) 0.6253(3)
H4B H -0.1343 0.1687 0.6202
C7B C -0.1494(3) 0.10563(16) 0.6596(3)
C8B C -0.1989(4) 0.12975(17) 0.6906(3)
H5B H -0.2182 0.1642 0.6726
H6B H -0.1437 0.1308 0.7453
C9B C -0.3049(3) 0.09454(16) 0.7243(2)
H7B H -0.2452 0.1019 0.7744
C10B C -0.3801(4) 0.09256(19) 0.6001(3)
H8B H -0.3740 0.0997 0.5628
C11B C -0.3970(3) 0.07430(16) 0.7071(2)
H9B H -0.4028 0.0693 0.7450
C12B C -0.4724(4) 0.07075(17) 0.5806(2)
H10B H -0.5295 0.0623 0.5304
C13B C -0.4824(3) 0.06089(15) 0.6349(2)
C14B C -0.5808(3) 0.03742(15) 0.6164(2)
C15B C -0.6332(4) 0.05742(16) 0.6416(3)
H11B H -0.6103 0.0881 0.6671
C16B C -0.6198(4) -0.00620(18) 0.5779(3)
H12B H -0.5888 -0.0200 0.5574
C17B C -0.7189(4) 0.03185(17) 0.6290(3)
H13B H -0.7550 0.0460 0.6457
C18B C -0.7050(4) -0.02997(19) 0.5693(3)
H14B H -0.7294 -0.0607 0.5442
C19B C 0.0984(4) 0.11317(16) 0.4713(3)
H15B H 0.1092 0.1090 0.5161
C20B C -0.0040(4) 0.09961(17) 0.3467(3)
H16B H -0.0669 0.0860 0.3020
C21B C 0.1771(3) 0.13821(16) 0.4741(3)
H17B H 0.2397 0.1510 0.5197
C22B C 0.0714(4) 0.12385(17) 0.3450(3)
H18B H 0.0603 0.1264 0.2999
C23B C 0.1631(3) 0.14430(14) 0.4092(2)
C24B C 0.2409(3) 0.17383(14) 0.4078(2)
C25B C 0.3482(4) 0.1798(2) 0.4713(3)
H19B H 0.3730 0.1639 0.5160
C26B C 0.2091(4) 0.19769(16) 0.3446(3)
H20B H 0.1362 0.1946 0.3002
C27B C 0.4182(4) 0.2083(2) 0.4701(3)
H21B H 0.4913 0.2122 0.5140
C28B C 0.2819(4) 0.22581(16) 0.3456(3)
H22B H 0.2588 0.2419 0.3016
C29B C 0.4646(4) 0.26098(17) 0.4090(3)
H23B H 0.4260 0.2878 0.3720
H24B H 0.5166 0.2762 0.4585
C30B C 0.5268(4) 0.22995(14) 0.3923(3)
C31B C 0.6264(4) 0.21117(19) 0.4485(3)
H25B H 0.6560 0.2169 0.4983
C32B C 0.4854(4) 0.22202(17) 0.3205(3)
H26B H 0.4161 0.2352 0.2811
C33B C 0.6854(4) 0.18373(18) 0.4341(3)
H27B H 0.7542 0.1705 0.4740
C34B C 0.5434(3) 0.19489(15) 0.3044(3)
H28B H 0.5137 0.1897 0.2544
C35B C 0.6442(3) 0.17564(14) 0.3616(2)
C36B C 0.7101(4) 0.14752(15) 0.3453(3)
O24B O -0.2334(2) 0.06465(11) 0.28281(17)
Cl1 Cl -0.33234(15) -0.43528(6) 0.14342(9)
O8 O -0.3000(8) -0.4462(4) 0.1022(5)
O9 O -0.2785(9) -0.3966(3) 0.1853(4)
O10 O -0.3288(6) -0.4721(2) 0.1862(3)
O11 O -0.4391(6) -0.4186(4) 0.0892(5)
Cl2 Cl -0.17483(11) -0.20581(5) 0.35355(7)
O12 O -0.2155(8) -0.2518(3) 0.3422(5)
O13 O -0.2469(8) -0.1739(4) 0.3567(5)
O14 O -0.0774(4) -0.1999(3) 0.4221(3)
O15 O -0.1835(5) -0.1887(2) 0.2934(3)
Cl3 Cl 0.1893(3) -0.29324(7) 0.36179(12)
O16 O 0.1276(10) -0.3188(3) 0.3002(4)
O17 O 0.131(2) -0.2806(6) 0.3879(14)
O18 O 0.2127(7) -0.24757(18) 0.3526(4)
O19 O 0.2626(15) -0.3183(3) 0.4186(5)
Cl4 Cl 0.03949(13) -0.10435(6) 0.06021(9)
O20 O -0.0136(7) -0.1441(2) 0.0094(4)
O21 O 0.1352(7) -0.0904(4) 0.0768(7)
O22 O -0.0314(4) -0.06499(18) 0.0283(3)
O23 O 0.0667(6) -0.1215(3) 0.1246(3)
O5 O -1.2919(2) -0.13615(11) 0.12090(17)
O6 O -1.3946(3) -0.16043(13) 0.00329(19)
O7 O 0.6173(3) -0.00847(12) 0.1991(2)
N5 N -0.4882(2) -0.10940(12) 0.13030(18)
N6 N -0.8652(3) -0.24720(12) 0.1295(2)
N7 N -0.2460(3) -0.01986(14) 0.1286(2)
N8 N 0.1623(3) 0.10554(12) 0.1496(2)
C37 C -0.5924(3) -0.1120(2) 0.0713(3)
H29 H -0.6162 -0.0951 0.0276
C38 C -0.4586(3) -0.13254(15) 0.1912(2)
H30 H -0.3847 -0.1306 0.2346
C39 C -0.6680(3) -0.1379(2) 0.0705(3)
H31 H -0.7420 -0.1384 0.0269
C40 C -0.5294(3) -0.15896(15) 0.1945(2)
H32 H -0.5046 -0.1744 0.2394
C41 C -0.6375(3) -0.16300(14) 0.1317(2)
C42 C -0.7151(3) -0.19333(13) 0.1320(2)
C43 C -0.8099(3) -0.21219(16) 0.0662(3)
H33 H -0.8232 -0.2069 0.0207
C44 C -0.6984(3) -0.20468(15) 0.1968(2)
H34 H -0.6341 -0.1938 0.2431
C45 C -0.8828(3) -0.23784(16) 0.0668(3)
H35 H -0.9477 -0.2493 0.0213
C46 C -0.7744(3) -0.23162(16) 0.1944(3)
H36 H -0.7621 -0.2392 0.2390
C47 C -0.9481(3) -0.27465(15) 0.1286(3)
H37 H -0.9113 -0.2910 0.1772
H38 H -0.9809 -0.3007 0.0903
C48 C -1.0378(3) -0.24167(14) 0.1131(3)
C49 C -1.1338(4) -0.23557(16) 0.0405(3)
H39 H -1.1408 -0.2504 0.0006
C50 C -1.0285(3) -0.21952(16) 0.1706(3)
H40 H -0.9637 -0.2237 0.2202
C51 C -1.2192(4) -0.20784(16) 0.0263(3)
H41 H -1.2839 -0.2036 -0.0233
C52 C -1.1134(3) -0.19120(16) 0.1563(3)
H42 H -1.1053 -0.1751 0.1959
C53 C -1.2110(3) -0.18644(14) 0.0835(2)
C54 C -1.3056(3) -0.15873(14) 0.0684(2)
C55 C -0.2497(4) 0.02827(18) 0.1208(3)
H43 H -0.3088 0.0456 0.1124
C56 C -0.1624(5) -0.04261(19) 0.1391(4)
H44 H -0.1574 -0.0774 0.1448
C57 C -0.1719(4) 0.05527(18) 0.1243(4)
H45 H -0.1773 0.0902 0.1201
C58 C -0.0842(5) -0.01882(19) 0.1422(4)
H46 H -0.0263 -0.0371 0.1502
C59 C -0.0878(3) 0.03161(16) 0.1337(2)
C60 C -0.0024(3) 0.05786(15) 0.1376(2)
C61 C 0.0089(4) 0.10901(16) 0.1445(3)
H47 H -0.0407 0.1281 0.1452
C62 C 0.0714(4) 0.03256(17) 0.1362(3)
H48 H 0.0657 -0.0022 0.1304
C63 C 0.0911(4) 0.13170(16) 0.1502(3)
H49 H 0.0977 0.1666 0.1545
C64 C 0.1532(4) 0.05678(16) 0.1431(3)
H50 H 0.2045 0.0384 0.1432
C65 C 0.2519(4) 0.13327(17) 0.1590(4)
H51 H 0.2958 0.1504 0.2074
H52 H 0.2195 0.1587 0.1198
C66 C 0.3258(4) 0.10103(15) 0.1552(3)
C67 C 0.2989(4) 0.0909(2) 0.0868(3)
H53 H 0.2343 0.1043 0.0429
C68 C 0.4200(4) 0.08151(18) 0.2190(3)
H54 H 0.4394 0.0884 0.2661
C69 C 0.3669(4) 0.06101(19) 0.0824(3)
H55 H 0.3484 0.0540 0.0357
C70 C 0.4862(3) 0.05165(17) 0.2133(3)
H56 H 0.5503 0.0379 0.2570
C71 C 0.4612(3) 0.04169(15) 0.1465(2)
C72 C 0.5330(4) 0.00942(15) 0.1418(3)
O25 O -0.2263(2) -0.08252(12) 0.24694(17)
O26 O -0.4807(2) -0.07725(11) 0.00555(17)
Mn2 Mn -0.36804(5) -0.06696(2) 0.12599(3)
O30 O 0.5079(2) -0.00007(10) 0.08009(15)
O5_2 O -0.2919(2) -0.13615(11) 0.12090(17)
O7_2 O -0.3827(3) -0.00847(12) 0.1991(2)
Mn2_2 Mn -1.36804(5) -0.06696(2) 0.12599(3)
Mn2_3 Mn 0.63196(5) -0.06696(2) 0.12599(3)
O30_2 O -0.4921(2) -0.00007(10) 0.08009(15)
O27 O -0.4200(5) -0.2106(2) 0.3614(3)
O28 O -0.5154(4) -0.29909(16) 0.3587(2)
O29 O -0.6110(8) -0.2161(5) 0.3696(5)
loop_
_geom_bond_atom_site_label_1
_geom_bond_atom_site_label_2
_geom_bond_site_symmetry_1
_geom_bond_site_symmetry_2
Mn1 O1 1_555 1_555
Cl1 O8 1_555 1_555
Cl2 O12 1_555 1_555
Cl3 O16 1_555 1_555
Cl4 O20 1_555 1_555
O1 C1 1_555 1_555
O2 C1 1_555 1_555
O3 C36 1_555 1_555
O4 C36 1_555 1_555
O5 C54 1_555 1_555
O6 C54 1_555 1_555
O7 C72 1_555 1_555
O9 Cl1 1_555 1_555
O10 Cl1 1_555 1_555
O11 Cl1 1_555 1_555
O13 Cl2 1_555 1_555
O14 Cl2 1_555 1_555
O15 Cl2 1_555 1_555
O17 Cl3 1_555 1_555
O18 Cl3 1_555 1_555
O19 Cl3 1_555 1_555
O21 Cl4 1_555 1_555
O22 Cl4 1_555 1_555
O23 Cl4 1_555 1_555
N1 C8 1_555 1_555
N2 C17 1_555 1_555
N3 Mn1 1_555 1_555
N4 C27 1_555 1_555
N5 C37 1_555 1_555
N6 C45 1_555 1_555
N7 C55 1_555 1_555
N8 C63 1_555 1_555
C1 C2 1_555 1_555
C2 C3 1_555 1_555
C3 H1 1_555 1_555
C4 C2 1_555 1_555
H2 C4 1_555 1_555
C5 C3 1_555 1_555
H3 C5 1_555 1_555
C6 C4 1_555 1_555
H4 C6 1_555 1_555
C7 C5 1_555 1_555
C8 C7 1_555 1_555
H5 C8 1_555 1_555
H6 C8 1_555 1_555
C9 N1 1_555 1_555
H7 C9 1_555 1_555
C10 N1 1_555 1_555
H8 C10 1_555 1_555
C11 C9 1_555 1_555
H9 C11 1_555 1_555
C12 C10 1_555 1_555
H10 C12 1_555 1_555
C13 C11 1_555 1_555
C14 C13 1_555 1_555
C15 C14 1_555 1_555
H11 C15 1_555 1_555
C16 C14 1_555 1_555
H12 C16 1_555 1_555
C17 C15 1_555 1_555
H13 C17 1_555 1_555
C18 N2 1_555 1_555
H14 C18 1_555 1_555
C19 N3 1_555 1_555
H15 C19 1_555 1_555
C20 N3 1_555 1_555
H16 C20 1_555 1_555
C21 C19 1_555 1_555
H17 C21 1_555 1_555
C22 C20 1_555 1_555
H18 C22 1_555 1_555
C23 C21 1_555 1_555
C24 C23 1_555 1_555
C25 C24 1_555 1_555
H19 C25 1_555 1_555
C26 C24 1_555 1_555
H20 C26 1_555 1_555
C27 C25 1_555 1_555
H21 C27 1_555 1_555
C28 N4 1_555 1_555
H22 C28 1_555 1_555
C29 N4 1_555 1_555
H23 C29 1_555 1_555
H24 C29 1_555 1_555
C30 C29 1_555 1_555
C31 C30 1_555 1_555
H25 C31 1_555 1_555
C32 C30 1_555 1_555
H26 C32 1_555 1_555
C33 C31 1_555 1_555
H27 C33 1_555 1_555
C34 C32 1_555 1_555
H28 C34 1_555 1_555
C35 C33 1_555 1_555
C36 C35 1_555 1_555
C37 H29 1_555 1_555
C38 N5 1_555 1_555
H30 C38 1_555 1_555
C39 C37 1_555 1_555
H31 C39 1_555 1_555
C40 C38 1_555 1_555
H32 C40 1_555 1_555
C41 C39 1_555 1_555
C42 C41 1_555 1_555
C43 C42 1_555 1_555
H33 C43 1_555 1_555
C44 C42 1_555 1_555
H34 C44 1_555 1_555
C45 C43 1_555 1_555
H35 C45 1_555 1_555
C46 N6 1_555 1_555
H36 C46 1_555 1_555
C47 N6 1_555 1_555
H37 C47 1_555 1_555
H38 C47 1_555 1_555
C48 C47 1_555 1_555
C49 C48 1_555 1_555
H39 C49 1_555 1_555
C50 C48 1_555 1_555
H40 C50 1_555 1_555
C51 C49 1_555 1_555
H41 C51 1_555 1_555
C52 C50 1_555 1_555
H42 C52 1_555 1_555
C53 C51 1_555 1_555
C54 C53 1_555 1_555
C55 H43 1_555 1_555
C56 N7 1_555 1_555
H44 C56 1_555 1_555
C57 C55 1_555 1_555
H45 C57 1_555 1_555
C58 C56 1_555 1_555
H46 C58 1_555 1_555
C59 C57 1_555 1_555
C60 C59 1_555 1_555
C61 C60 1_555 1_555
H47 C61 1_555 1_555
C62 C60 1_555 1_555
H48 C62 1_555 1_555
C63 C61 1_555 1_555
H49 C63 1_555 1_555
C64 N8 1_555 1_555
H50 C64 1_555 1_555
C65 N8 1_555 1_555
H51 C65 1_555 1_555
H52 C65 1_555 1_555
C66 C65 1_555 1_555
C67 C66 1_555 1_555
H53 C67 1_555 1_555
C68 C66 1_555 1_555
H54 C68 1_555 1_555
C69 C67 1_555 1_555
H55 C69 1_555 1_555
C70 C68 1_555 1_555
H56 C70 1_555 1_555
C71 C69 1_555 1_555
C72 C71 1_555 1_555
O24 Mn1 1_555 1_555
O25 Mn2 1_555 1_555
O26 Mn2 1_555 1_555
Mn2 N5 1_555 1_555
O30 C72 1_555 1_555
Mn1B O2 1_555 1_555
Mn1_2 O4 1_555 1_555
Mn1B_2 N2 1_555 1_555
O1B Mn1B 1_555 1_555
O2B Mn1 1_555 1_555
O3B C36B 1_555 1_555
O4_2 Mn1 1_555 1_555
O4B Mn1B 1_555 1_555
O4B_2 Mn1B_2 1_555 1_555
O5_2 Mn2 1_555 1_555
O7_2 Mn2 1_555 1_555
N1B C8B 1_555 1_555
N2B Mn1 1_555 1_555
N2_2 Mn1B 1_555 1_555
N2B_2 Mn1_2 1_555 1_555
N3B Mn1B 1_555 1_555
N4B C27B 1_555 1_555
C1B O1B 1_555 1_555
C2B C1B 1_555 1_555
C3B C2B 1_555 1_555
H1B C3B 1_555 1_555
C4B C2B 1_555 1_555
H2B C4B 1_555 1_555
C5B C3B 1_555 1_555
H3B C5B 1_555 1_555
C6B C4B 1_555 1_555
H4B C6B 1_555 1_555
C7B C5B 1_555 1_555
C8B C7B 1_555 1_555
H5B C8B 1_555 1_555
H6B C8B 1_555 1_555
C9B N1B 1_555 1_555
H7B C9B 1_555 1_555
C10B N1B 1_555 1_555
H8B C10B 1_555 1_555
C11B C9B 1_555 1_555
H9B C11B 1_555 1_555
C12B C10B 1_555 1_555
H10B C12B 1_555 1_555
C13B C11B 1_555 1_555
C14B C13B 1_555 1_555
C15B C14B 1_555 1_555
H11B C15B 1_555 1_555
C16B C14B 1_555 1_555
H12B C16B 1_555 1_555
C17B N2B_2 1_555 1_555
H13B C17B 1_555 1_555
C18B N2B_2 1_555 1_555
H14B C18B 1_555 1_555
C19B N3B 1_555 1_555
H15B C19B 1_555 1_555
C20B N3B 1_555 1_555
H16B C20B 1_555 1_555
C21B C19B 1_555 1_555
H17B C21B 1_555 1_555
C22B C20B 1_555 1_555
H18B C22B 1_555 1_555
C23B C21B 1_555 1_555
C24B C23B 1_555 1_555
C25B C24B 1_555 1_555
H19B C25B 1_555 1_555
C26B C24B 1_555 1_555
H20B C26B 1_555 1_555
C27B C25B 1_555 1_555
H21B C27B 1_555 1_555
C28B N4B 1_555 1_555
H22B C28B 1_555 1_555
C29B N4B 1_555 1_555
H23B C29B 1_555 1_555
H24B C29B 1_555 1_555
C30B C29B 1_555 1_555
C31B C30B 1_555 1_555
H25B C31B 1_555 1_555
C32B C30B 1_555 1_555
H26B C32B 1_555 1_555
C33B C31B 1_555 1_555
H27B C33B 1_555 1_555
C34B C32B 1_555 1_555
H28B C34B 1_555 1_555
C35B C33B 1_555 1_555
C36B O4B_2 1_555 1_555
O24B Mn1B 1_555 1_555
Mn2_2 O5 1_555 1_555
Mn2_3 O7 1_555 1_555
O30_2 Mn2 1_555 1_555
N7 Mn2 1_555 1_555
C6 C7 1_555 1_555
C12 C13 1_555 1_555
C16 C18 1_555 1_555
C22 C23 1_555 1_555
C26 C28 1_555 1_555
C34 C35 1_555 1_555
C40 C41 1_555 1_555
C44 C46 1_555 1_555
C52 C53 1_555 1_555
C58 C59 1_555 1_555
C62 C64 1_555 1_555
C70 C71 1_555 1_555
O30 Mn2_3 1_555 1_555
O2B C1B 1_555 1_555
C6B C7B 1_555 1_555
C12B C13B 1_555 1_555
C15B C17B 1_555 1_555
C16B C18B 1_555 1_555
C22B C23B 1_555 1_555
C26B C28B 1_555 1_555
C34B C35B 1_555 1_555
C35B C36B 1_555 1_555

#END
