
#######################################################################
#
#                 Cambridge Crystallographic Data Centre
#                                CCDC 
#
#######################################################################
#
# If this CIF has been generated from an entry in the Cambridge 
# Structural Database, then it will include bibliographic, chemical, 
# crystal, experimental, refinement or atomic coordinate data resulting 
# from the CCDC's data processing and validation procedures.
#
#######################################################################

data_QUQQEZ
_symmetry_cell_setting           monoclinic
_symmetry_space_group_name_H-M   'C 2/c'
_symmetry_Int_Tables_number      15
_space_group_name_Hall           '-C 2yn'
loop_
_symmetry_equiv_pos_site_id
_symmetry_equiv_pos_as_xyz
1 x,y,z
2 -x,y,1/2-z
3 1/2+x,1/2+y,z
4 1/2-x,1/2+y,1/2-z
5 -x,-y,-z
6 x,-y,1/2+z
7 1/2-x,1/2-y,-z
8 1/2+x,1/2-y,1/2+z
_cell_length_a                   23.6373(14)
_cell_length_b                   15.9425(10)
_cell_length_c                   7.3340(4)
_cell_angle_alpha                90
_cell_angle_beta                 106.397(5)
_cell_angle_gamma                90
_cell_volume                     2651.32
loop_
_atom_site_label
_atom_site_type_symbol
_atom_site_fract_x
_atom_site_fract_y
_atom_site_fract_z
Zn1 Zn 0.2500 0.2500 0.0000
N1 N 0.31831(14) 0.2224(2) 0.2512(4)
N2 N 0.27037(14) 0.3879(2) 0.0219(4)
C1 C 0.34354(15) 0.2198(2) 0.4116(5)
C2 C 0.43752(15) 0.2187(2) 0.6784(5)
C3 C 0.33629(15) 0.2226(3) 0.7255(5)
N3 N 0.30641(13) 0.2276(2) 0.8243(4)
C4 C 0.47327(17) 0.2184(3) 0.5571(5)
H1 H 0.4559 0.2183 0.4264
C5 C 0.46594(16) 0.2184(3) 0.8735(5)
H2 H 0.4433 0.2183 0.9588
C6 C 0.37287(15) 0.2181(3) 0.6053(5)
C7 C 0.32331(17) 0.4273(2) 0.0426(5)
C8 C 0.37501(19) 0.3798(3) 0.0653(6)
H3 H 0.3736 0.3216 0.0727
C9 C 0.32740(19) 0.5149(3) 0.0423(5)
C10 C 0.2762(2) 0.5636(3) 0.0238(6)
H4 H 0.2779 0.6218 0.0239
C11 C 0.3829(2) 0.5534(3) 0.0582(6)
H5 H 0.3857 0.6116 0.0579
C12 C 0.2235(2) 0.4354(3) 0.0036(6)
H6 H 0.1874 0.4088 -0.0119
C13 C 0.4277(2) 0.4194(3) 0.0764(7)
H7 H 0.4614 0.3877 0.0859
C14 C 0.4309(2) 0.5066(3) 0.0736(7)
H8 H 0.4668 0.5326 0.0824
C15 C 0.2243(2) 0.5229(3) 0.0060(7)
H9 H 0.1899 0.5530 -0.0046
Zn1_2 Zn 0.2500 0.2500 1.0000
Zn1A Zn 0.7500 0.2500 1.5000
Zn1A_2 Zn 0.7500 0.2500 0.5000
N1A N 0.68169(14) 0.2224(2) 1.2488(4)
N1F N 0.18169(14) 0.2776(2) -0.2512(4)
N2F N 0.22963(14) 0.1121(2) -0.0219(4)
C1A C 0.65646(15) 0.2198(2) 1.0884(5)
C2A C 0.56248(15) 0.2187(2) 0.8216(5)
C3A C 0.66371(15) 0.2226(3) 0.7745(5)
N3A N 0.69359(13) 0.2276(2) 0.6757(4)
N3_2 N 0.30641(13) 0.2276(2) -0.1757(4)
N3F N 0.19359(13) 0.2724(2) 0.1757(4)
C4A C 0.52673(17) 0.2184(3) 0.9429(5)
H1A H 0.5441 0.2183 1.0736
C5A C 0.53406(16) 0.2184(3) 0.6265(5)
H2A H 0.5567 0.2183 0.5412
C6A C 0.62713(15) 0.2181(3) 0.8947(5)
C7F C 0.17669(17) 0.0727(2) -0.0426(5)
C8F C 0.12499(19) 0.1202(3) -0.0653(6)
H3F H 0.1264 0.1784 -0.0727
C9F C 0.17260(19) -0.0149(3) -0.0423(5)
C10F C 0.2238(2) -0.0636(3) -0.0238(6)
H4F H 0.2221 -0.1218 -0.0239
C11F C 0.1171(2) -0.0534(3) -0.0582(6)
H5F H 0.1143 -0.1116 -0.0579
C12F C 0.2765(2) 0.0646(3) -0.0036(6)
H6F H 0.3126 0.0912 0.0119
C13F C 0.0723(2) 0.0806(3) -0.0764(7)
H7F H 0.0386 0.1123 -0.0859
C14F C 0.0691(2) -0.0066(3) -0.0736(7)
H8F H 0.0332 -0.0326 -0.0824
C15F C 0.2757(2) -0.0229(3) -0.0060(7)
H9F H 0.3101 -0.0530 0.0046
loop_
_geom_bond_atom_site_label_1
_geom_bond_atom_site_label_2
_geom_bond_site_symmetry_1
_geom_bond_site_symmetry_2
Zn1 N1 1_555 1_555
N1 C1 1_555 1_555
N2 Zn1 1_555 1_555
C1 C6 1_555 1_555
C2 C4 1_555 1_555
C3 N3 1_555 1_555
N3 Zn1_2 1_555 1_555
C4 H1 1_555 1_555
C5 C2 1_555 1_555
H2 C5 1_555 1_555
C6 C2 1_555 1_555
C7 N2 1_555 1_555
C8 C7 1_555 1_555
H3 C8 1_555 1_555
C9 C7 1_555 1_555
C10 C9 1_555 1_555
H4 C10 1_555 1_555
C11 C9 1_555 1_555
H5 C11 1_555 1_555
C12 N2 1_555 1_555
H6 C12 1_555 1_555
C13 C8 1_555 1_555
H7 C13 1_555 1_555
C14 C11 1_555 1_555
H8 C14 1_555 1_555
C15 C10 1_555 1_555
H9 C15 1_555 1_555
Zn1A N1A 1_555 1_555
Zn1A_2 N3A 1_555 1_555
N1A C1A 1_555 1_555
N1F Zn1 1_555 1_555
N2F Zn1 1_555 1_555
C1A C6A 1_555 1_555
C2A C4A 1_555 1_555
C3A N3A 1_555 1_555
N3_2 Zn1 1_555 1_555
N3F Zn1 1_555 1_555
C4A C5 1_555 1_555
H1A C4A 1_555 1_555
C5A C4 1_555 1_555
H2A C5A 1_555 1_555
C6A C2A 1_555 1_555
C7F N2F 1_555 1_555
C8F C7F 1_555 1_555
H3F C8F 1_555 1_555
C9F C7F 1_555 1_555
C10F C9F 1_555 1_555
H4F C10F 1_555 1_555
C11F C9F 1_555 1_555
H5F C11F 1_555 1_555
C12F N2F 1_555 1_555
H6F C12F 1_555 1_555
C13F C8F 1_555 1_555
H7F C13F 1_555 1_555
C14F C11F 1_555 1_555
H8F C14F 1_555 1_555
C15F C10F 1_555 1_555
H9F C15F 1_555 1_555
C3 C6 1_555 1_555
C12 C15 1_555 1_555
C13 C14 1_555 1_555
C2A C5A 1_555 1_555
C3A C6A 1_555 1_555
C12F C15F 1_555 1_555
C13F C14F 1_555 1_555

#END
