
#######################################################################
#
#                 Cambridge Crystallographic Data Centre
#                                CCDC 
#
#######################################################################
#
# If this CIF has been generated from an entry in the Cambridge 
# Structural Database, then it will include bibliographic, chemical, 
# crystal, experimental, refinement or atomic coordinate data resulting 
# from the CCDC's data processing and validation procedures.
#
#######################################################################

data_QUQQUP
_symmetry_cell_setting           monoclinic
_symmetry_space_group_name_H-M   'C 2/m'
_symmetry_Int_Tables_number      12
_space_group_name_Hall           '-C 2y'
loop_
_symmetry_equiv_pos_site_id
_symmetry_equiv_pos_as_xyz
1 x,y,z
2 -x,y,-z
3 1/2+x,1/2+y,z
4 1/2-x,1/2+y,-z
5 -x,-y,-z
6 x,-y,z
7 1/2-x,1/2-y,-z
8 1/2+x,1/2-y,z
_cell_length_a                   15.725(3)
_cell_length_b                   7.4496(8)
_cell_length_c                   11.3104(16)
_cell_angle_alpha                90
_cell_angle_beta                 108.603(17)
_cell_angle_gamma                90
_cell_volume                     1255.73
loop_
_atom_site_label
_atom_site_type_symbol
_atom_site_fract_x
_atom_site_fract_y
_atom_site_fract_z
Mn1 Mn 0.0000 0.0000 0.0000
N1 N 0.1422(4) 0.0000 -0.0072(5)
N2 N -0.0381(3) -0.2096(5) -0.1450(3)
C1 C -0.0167(5) -0.5000 -0.3835(6)
C2 C 0.1615(5) 0.0000 -0.1123(7)
H1 H 0.1151 0.0000 -0.1878
C3 C -0.0328(5) -0.5000 -0.2631(5)
C4 C 0.3172(6) 0.0000 -0.0056(8)
H2 H 0.3764 0.0000 -0.0051
C5 C -0.0080(4) -0.3421(6) -0.4436(4)
H3 H -0.0133 -0.2329 -0.4067
C6 C 0.2503(6) 0.0000 -0.1126(8)
H4 H 0.2624 0.0000 -0.1879
C7 C -0.0367(3) -0.3425(6) -0.1992(4)
C8 C 0.2978(6) 0.0000 0.1046(9)
H5 H 0.3433 0.0000 0.1811
C9 C 0.2085(5) 0.0000 0.0978(8)
H6 H 0.1948 0.0000 0.1720
Mn1_2 Mn 0.0000 0.0000 -1.0000
Mn1_3 Mn 0.0000 -1.0000 -1.0000
Mn1_4 Mn 0.0000 -1.0000 0.0000
N1A N -0.1422(4) 0.0000 0.0072(5)
N2A N 0.0381(3) -0.2096(5) -0.8550(3)
N2D N 0.0381(3) -0.7904(5) -0.8550(3)
N2E N -0.0381(3) -0.7904(5) -0.1450(3)
N2D_2 N 0.0381(3) 0.2096(5) 0.1450(3)
N2E_2 N -0.0381(3) 0.2096(5) -0.1450(3)
N2A_2 N 0.0381(3) -0.2096(5) 0.1450(3)
C1A C 0.0167(5) -0.5000 -0.6165(6)
C2A C -0.1615(5) 0.0000 0.1123(7)
H1A H -0.1151 0.0000 0.1878
C3A C 0.0328(5) -0.5000 -0.7369(5)
C4A C -0.3172(6) 0.0000 0.0056(8)
H2A H -0.3764 0.0000 0.0051
C5A C 0.0080(4) -0.3421(6) -0.5564(4)
C5D C 0.0080(4) -0.6579(6) -0.5564(4)
C5E C -0.0080(4) -0.6579(6) -0.4436(4)
H3D H 0.0133 -0.7671 -0.5933
H3E H -0.0133 -0.7671 -0.4067
H3A H 0.0133 -0.2329 -0.5933
C6A C -0.2503(6) 0.0000 0.1126(8)
H4A H -0.2624 0.0000 0.1879
C7A C 0.0367(3) -0.3425(6) -0.8008(4)
C7D C 0.0367(3) -0.6575(6) -0.8008(4)
C7E C -0.0367(3) -0.6575(6) -0.1992(4)
C8A C -0.2978(6) 0.0000 -0.1046(9)
H5A H -0.3433 0.0000 -0.1811
C9A C -0.2085(5) 0.0000 -0.0978(8)
H6A H -0.1948 0.0000 -0.1720
loop_
_geom_bond_atom_site_label_1
_geom_bond_atom_site_label_2
_geom_bond_site_symmetry_1
_geom_bond_site_symmetry_2
Mn1 N1 1_555 1_555
N1 C2 1_555 1_555
N2 Mn1 1_555 1_555
C1 C3 1_555 1_555
C2 H1 1_555 1_555
C3 C7 1_555 1_555
C4 H2 1_555 1_555
C5 C1 1_555 1_555
H3 C5 1_555 1_555
C6 C2 1_555 1_555
H4 C6 1_555 1_555
C7 N2 1_555 1_555
C8 C4 1_555 1_555
H5 C8 1_555 1_555
C9 N1 1_555 1_555
H6 C9 1_555 1_555
Mn1_2 N2A 1_555 1_555
Mn1_3 N2D 1_555 1_555
Mn1_4 N2E 1_555 1_555
N1A Mn1 1_555 1_555
N2A C7A 1_555 1_555
N2D C7D 1_555 1_555
N2E C7E 1_555 1_555
N2D_2 Mn1 1_555 1_555
N2E_2 Mn1 1_555 1_555
N2A_2 Mn1 1_555 1_555
C1A C3A 1_555 1_555
C2A N1A 1_555 1_555
H1A C2A 1_555 1_555
C3A C7A 1_555 1_555
C4A H2A 1_555 1_555
C5A C5 1_555 1_555
C5D C1A 1_555 1_555
C5E C1 1_555 1_555
H3D C5D 1_555 1_555
H3E C5E 1_555 1_555
H3A C5A 1_555 1_555
C6A C2A 1_555 1_555
H4A C6A 1_555 1_555
C7D C3A 1_555 1_555
C7E C3 1_555 1_555
C8A C4A 1_555 1_555
H5A C8A 1_555 1_555
C9A N1A 1_555 1_555
H6A C9A 1_555 1_555
C4 C6 1_555 1_555
C8 C9 1_555 1_555
C1A C5A 1_555 1_555
C4A C6A 1_555 1_555
C5D C5E 1_555 1_555
C8A C9A 1_555 1_555

#END
