
#######################################################################
#
#                 Cambridge Crystallographic Data Centre
#                                CCDC 
#
#######################################################################
#
# If this CIF has been generated from an entry in the Cambridge 
# Structural Database, then it will include bibliographic, chemical, 
# crystal, experimental, refinement or atomic coordinate data resulting 
# from the CCDC's data processing and validation procedures.
#
#######################################################################

data_QURCUC
_symmetry_cell_setting           triclinic
_symmetry_space_group_name_H-M   'P -1'
_symmetry_Int_Tables_number      2
_space_group_name_Hall           '-P 1'
loop_
_symmetry_equiv_pos_site_id
_symmetry_equiv_pos_as_xyz
1 x,y,z
2 -x,-y,-z
_cell_length_a                   10.853(4)
_cell_length_b                   14.278(6)
_cell_length_c                   14.557(6)
_cell_angle_alpha                90.311(5)
_cell_angle_beta                 93.530(5)
_cell_angle_gamma                94.465(5)
_cell_volume                     2244.51
loop_
_atom_site_label
_atom_site_type_symbol
_atom_site_fract_x
_atom_site_fract_y
_atom_site_fract_z
Cd1 Cd 0.56251(8) 0.04125(5) 0.61670(5)
Cd2 Cd 0.45057(8) 0.03763(5) 0.88334(5)
Cd3 Cd 0.99741(9) -0.17361(6) 1.25565(6)
O1 O 0.6157(8) -0.0947(5) 0.6776(5)
O2 O 0.6414(7) 0.0182(5) 0.7832(5)
O3 O 0.6218(7) 0.0124(5) 0.9793(5)
O4 O 0.8252(8) 0.0384(5) 0.9617(6)
O5 O 0.7530(8) -0.0984(6) 1.1213(5)
O6 O 0.9062(8) -0.1925(6) 1.1088(5)
O7 O 0.7579(12) -0.4514(6) 0.8858(7)
O8 O 0.6727(13) -0.4153(7) 0.7538(8)
O9 O 0.7736(7) 0.1100(5) 0.6157(5)
O10 O 0.9392(8) 0.2062(6) 0.5959(6)
O11 O 0.6170(7) -0.0062(5) 0.4749(5)
O12 O 0.8122(8) -0.0237(6) 0.4426(6)
O13 O 0.6225(8) -0.0058(5) 0.2765(5)
O14 O 0.6138(8) 0.1075(6) 0.1749(5)
O15 O 0.6715(12) 0.4322(6) 0.2742(7)
N1 N 0.7149(11) -0.3940(7) 0.8344(8)
O16 O 0.7729(12) 0.4698(5) 0.4015(7)
N2 N 1.0163(9) -0.0058(7) 1.2616(7)
N3 N 0.9880(11) 0.6528(7) 1.2440(7)
N4 N 0.5250(9) 0.1936(6) 0.6052(7)
N5 N 0.5022(10) 0.1917(7) 0.8947(7)
C1 C 0.6875(11) -0.1368(8) 0.8276(7)
C2 C 0.7252(10) -0.1107(7) 0.9178(7)
C3 C 0.7673(10) -0.1790(7) 0.9797(7)
C4 C 0.7658(11) -0.2716(8) 0.9511(8)
H1 H 0.7944 -0.3169 0.9910
C5 C 0.7211(11) -0.2958(7) 0.8623(7)
C6 C 0.6834(11) -0.2300(8) 0.8001(8)
H2 H 0.6557 -0.2478 0.7403
C7 C 0.6467(10) -0.0651(8) 0.7580(7)
C8 C 0.7263(10) -0.0104(7) 0.9542(7)
C9 C 0.8135(10) -0.1545(7) 1.0773(7)
C10 C 0.7833(9) 0.1930(7) 0.4762(7)
C11 C 0.7313(10) 0.1241(8) 0.4130(7)
C12 C 0.6864(11) 0.1514(8) 0.3265(7)
C13 C 0.6851(12) 0.2442(7) 0.3043(8)
H3 H 0.6540 0.2615 0.2465
C14 C 0.7303(11) 0.3123(6) 0.3683(7)
C15 C 0.7852(11) 0.2863(7) 0.4523(7)
H4 H 0.8233 0.3321 0.4925
C16 C 0.8355(10) 0.1661(7) 0.5705(7)
C17 C 0.7209(10) 0.0230(7) 0.4448(7)
C18 C 0.6369(11) 0.0777(8) 0.2548(7)
C19 C 1.0455(12) 0.0425(9) 1.3383(9)
H5 H 1.0640 0.0093 1.3915
C20 C 1.0502(14) 0.1370(9) 1.3447(10)
H6 H 1.0762 0.1656 1.4009
C21 C 1.0188(11) 0.1918(9) 1.2731(8)
C22 C 0.9819(12) 0.1422(9) 1.1882(8)
H7 H 0.9583 0.1745 1.1355
C23 C 0.9824(12) 0.0467(8) 1.1868(9)
H8 H 0.9582 0.0152 1.1318
C24 C 1.0221(13) 0.2936(9) 1.2800(8)
H9 H 1.0545 0.3211 1.3352
C25 C 0.9829(14) 0.3515(9) 1.2144(12)
H10 H 0.9513 0.3254 1.1583
C26 C 1.0443(16) 0.5997(9) 1.3049(11)
H11 H 1.0832 0.6297 1.3569
C27 C 1.0503(18) 0.5058(10) 1.2986(13)
H12 H 1.0970 0.4751 1.3429
C28 C 0.9871(13) 0.4544(8) 1.2261(10)
C29 C 0.930(2) 0.5076(10) 1.1621(12)
H13 H 0.8898 0.4787 1.1098
C30 C 0.929(2) 0.6051(11) 1.1732(12)
H14 H 0.8848 0.6382 1.1290
C31 C 0.5930(11) 0.2606(8) 0.6561(8)
H15 H 0.6421 0.2422 0.7064
C32 C 0.5928(12) 0.3545(8) 0.6372(8)
H16 H 0.6413 0.3985 0.6738
C33 C 0.5195(13) 0.3832(8) 0.5627(9)
C34 C 0.4484(14) 0.3151(9) 0.5116(11)
H17 H 0.3974 0.3315 0.4615
C35 C 0.4540(13) 0.2219(9) 0.5359(9)
H18 H 0.4048 0.1767 0.5013
C36 C 0.5223(16) 0.4828(9) 0.5397(10)
H19 H 0.5581 0.5256 0.5838
C37 C 0.4460(14) 0.2534(9) 0.8408(9)
H20 H 0.4045 0.2314 0.7861
C38 C 0.4465(17) 0.3452(10) 0.8615(12)
H21 H 0.4064 0.3844 0.8207
C39 C 0.5040(19) 0.3820(10) 0.9402(16)
C40 C 0.569(2) 0.3198(11) 0.9969(13)
H22 H 0.6122 0.3410 1.0510
C41 C 0.5658(14) 0.2264(9) 0.9699(10)
H23 H 0.6107 0.1860 1.0062
C42 C 0.490(2) 0.4833(15) 0.9635(15)
H24 H 0.4636 0.5219 0.9162
O17 O 1.1849(8) -0.1805(6) 1.1928(6)
H25 H 1.2345 -0.1359 1.2099
H26 H 1.1771 -0.1843 1.1356
O18 O 0.8003(8) -0.1656(6) 1.3099(5)
H27 H 0.8355 -0.1185 1.3398
H28 H 0.7862 -0.1462 1.2554
N6 N 0.7243(7) 0.4119(6) 0.3462(5)
Cd1A Cd 0.43749(8) -0.04125(5) 0.38330(5)
Cd1A_2 Cd 0.43749(8) 0.95875(5) 0.38330(5)
Cd1A_3 Cd 0.43749(8) -0.04125(5) 1.38330(5)
Cd2A Cd 0.54943(8) -0.03763(5) 1.11666(5)
Cd2A_2 Cd 0.54943(8) -0.03763(5) 0.11666(5)
Cd2A_3 Cd 0.54943(8) 0.96237(5) 1.11666(5)
Cd3A Cd 1.00259(9) 0.17361(6) 0.74435(6)
Cd3_2 Cd 0.99741(9) 0.82639(6) 1.25565(6)
Cd3_3 Cd -0.00259(9) -0.17361(6) 0.25565(6)
Cd3A_2 Cd 0.00259(9) 0.17361(6) 0.74435(6)
Cd3_4 Cd 0.99741(9) -1.17361(6) 1.25565(6)
O1A O 0.3843(8) 0.0947(5) 1.3224(5)
O1A_2 O 0.3843(8) 0.0947(5) 0.3224(5)
O2A O 0.3586(7) -0.0182(5) 1.2168(5)
O2A_2 O 0.3586(7) -0.0182(5) 0.2168(5)
O3A O 0.3782(7) -0.0124(5) 1.0207(5)
O4A O 0.1748(8) -0.0384(5) 1.0383(6)
O5A O 0.2470(8) 0.0984(6) 0.8787(5)
O6A O 0.0938(8) 0.1925(6) 0.8912(5)
O6A_2 O 1.0938(8) 0.1925(6) 0.8912(5)
O7A O 0.2421(12) 0.4514(6) 1.1142(7)
O8A O 0.3273(13) 0.4153(7) 1.2462(8)
O9A O 0.2264(7) -0.1100(5) 0.3843(5)
O10A O 0.0608(8) -0.2062(6) 0.4041(6)
O10A_2 O 1.0608(8) -0.2062(6) 1.4041(6)
O11A O 0.3830(7) 0.0062(5) 0.5251(5)
O12A O 0.1878(8) 0.0237(6) 0.5574(6)
O13A O 0.3775(8) 0.0058(5) 0.7235(5)
O13_2 O 0.6225(8) -0.0058(5) 1.2765(5)
O14A O 0.3862(8) -0.1075(6) 0.8251(5)
O14_2 O 0.6138(8) 0.1075(6) 1.1749(5)
O15A O 0.3285(12) -0.4322(6) 0.7258(7)
N1A N 0.2851(11) 0.3940(7) 1.1656(8)
O16A O 0.2271(12) -0.4698(5) 0.5985(7)
N2_2 N 1.0163(9) -1.0058(7) 1.2616(7)
N2A N 0.9837(9) 0.0058(7) 0.7384(7)
N3_2 N 0.9880(11) -0.3472(7) 1.2440(7)
N3A N 1.0120(11) 0.3472(7) 0.7560(7)
N4A N 0.4750(9) 0.8064(6) 0.3948(7)
N4A_2 N 0.4750(9) -0.1936(6) 0.3948(7)
N5A N 0.4978(10) 0.8083(7) 1.1053(7)
N5A_2 N 0.4978(10) -0.1917(7) 1.1053(7)
C1A C 0.3125(11) 0.1368(8) 1.1724(7)
C2A C 0.2748(10) 0.1107(7) 1.0822(7)
C3A C 0.2327(10) 0.1790(7) 1.0203(7)
C4A C 0.2342(11) 0.2716(8) 1.0489(8)
H1A H 0.2056 0.3169 1.0090
C5A C 0.2789(11) 0.2958(7) 1.1377(7)
C6A C 0.3166(11) 0.2300(8) 1.1999(8)
H2A H 0.3443 0.2478 1.2597
C7A C 0.3533(10) 0.0651(8) 1.2420(7)
C8A C 0.2737(10) 0.0104(7) 1.0458(7)
C9A C 0.1865(10) 0.1545(7) 0.9227(7)
C10A C 0.2167(9) -0.1930(7) 0.5238(7)
C11A C 0.2687(10) -0.1241(8) 0.5870(7)
C12A C 0.3136(11) -0.1514(8) 0.6735(7)
C13A C 0.3149(12) -0.2442(7) 0.6957(8)
H3A H 0.3460 -0.2615 0.7535
C14A C 0.2697(11) -0.3123(6) 0.6317(7)
C15A C 0.2148(11) -0.2863(7) 0.5477(7)
H4A H 0.1767 -0.3321 0.5075
C16A C 0.1645(10) -0.1661(7) 0.4295(7)
C17A C 0.2791(10) -0.0230(7) 0.5552(7)
C18A C 0.3631(11) -0.0777(8) 0.7452(7)
C19_2 C 1.0455(12) -0.9575(9) 1.3383(9)
H5_2 H 1.0640 -0.9907 1.3915
C20_2 C 1.0502(14) -0.8630(9) 1.3447(10)
H6_2 H 1.0762 -0.8344 1.4009
C21_2 C 1.0188(11) -0.8082(9) 1.2731(8)
C22_2 C 0.9819(12) -0.8578(9) 1.1882(8)
H7_2 H 0.9583 -0.8255 1.1355
C23_2 C 0.9824(12) -0.9533(8) 1.1868(9)
H8_2 H 0.9582 -0.9848 1.1318
C24_2 C 1.0221(13) -0.7064(9) 1.2800(8)
H9_2 H 1.0545 -0.6789 1.3352
C25_2 C 0.9829(14) -0.6485(9) 1.2144(12)
H10_2 H 0.9513 -0.6746 1.1583
C26_2 C 1.0443(16) -0.4003(9) 1.3049(11)
H11_2 H 1.0832 -0.3703 1.3569
C27_2 C 1.0503(18) -0.4942(10) 1.2986(13)
H12_2 H 1.0970 -0.5249 1.3429
C28_2 C 0.9871(13) -0.5456(8) 1.2261(10)
C29_2 C 0.930(2) -0.4924(10) 1.1621(12)
H13_2 H 0.8898 -0.5213 1.1098
C30_2 C 0.929(2) -0.3949(11) 1.1732(12)
H14_2 H 0.8848 -0.3618 1.1290
C31A C 0.4070(11) 0.7394(8) 0.3439(8)
H15A H 0.3579 0.7578 0.2936
C32A C 0.4072(12) 0.6455(8) 0.3628(8)
H16A H 0.3587 0.6015 0.3262
C33A C 0.4805(13) 0.6168(8) 0.4373(9)
C34A C 0.5516(14) 0.6849(9) 0.4884(11)
H17A H 0.6026 0.6685 0.5385
C35A C 0.5460(13) 0.7781(9) 0.4641(9)
H18A H 0.5952 0.8233 0.4987
C36A C 0.4777(16) 0.5172(9) 0.4603(10)
H19A H 0.4419 0.4744 0.4162
C37A C 0.5540(14) 0.7466(9) 1.1592(9)
H20A H 0.5955 0.7686 1.2139
C38A C 0.5535(17) 0.6548(10) 1.1385(12)
H21A H 0.5936 0.6156 1.1793
C39A C 0.4960(19) 0.6180(10) 1.0598(16)
C40A C 0.431(2) 0.6802(11) 1.0031(13)
H22A H 0.3878 0.6590 0.9490
C41A C 0.4342(14) 0.7736(9) 1.0301(10)
H23A H 0.3893 0.8140 0.9938
C42A C 0.510(2) 0.5167(15) 1.0365(15)
H24A H 0.5364 0.4781 1.0838
O17A O 0.8151(8) 0.1805(6) 0.8072(6)
H25A H 0.7655 0.1359 0.7901
H26A H 0.8229 0.1843 0.8644
O18A O 1.1997(8) 0.1656(6) 0.6901(5)
H27A H 1.1645 0.1185 0.6602
H28A H 1.2138 0.1462 0.7446
N6A N 0.2757(7) -0.4119(6) 0.6538(5)
O19 O 0.8805(15) 0.2319(12) 0.9873(9)
H29 H 0.9422 0.2183 0.9579
H30 H 0.8624 0.1734 0.9786
O20 O 1.1145(19) 0.3402(14) 0.5067(13)
H31 H 1.0680 0.3208 0.5537
H32 H 1.1969 0.3182 0.5223
loop_
_geom_bond_atom_site_label_1
_geom_bond_atom_site_label_2
_geom_bond_site_symmetry_1
_geom_bond_site_symmetry_2
Cd1 O1 1_555 1_555
Cd2 O2 1_555 1_555
Cd3 O6 1_555 1_555
O1 C7 1_555 1_555
O2 Cd1 1_555 1_555
O3 Cd2 1_555 1_555
O4 C8 1_555 1_555
O5 C9 1_555 1_555
O6 C9 1_555 1_555
O7 N1 1_555 1_555
O8 N1 1_555 1_555
O9 Cd1 1_555 1_555
O10 C16 1_555 1_555
O11 Cd1 1_555 1_555
O12 C17 1_555 1_555
O13 C18 1_555 1_555
O14 C18 1_555 1_555
O15 N6 1_555 1_555
N1 C5 1_555 1_555
O16 N6 1_555 1_555
N2 Cd3 1_555 1_555
N3 C26 1_555 1_555
N4 Cd1 1_555 1_555
N5 Cd2 1_555 1_555
C1 C2 1_555 1_555
C2 C3 1_555 1_555
C3 C4 1_555 1_555
C4 H1 1_555 1_555
C5 C4 1_555 1_555
C6 C1 1_555 1_555
H2 C6 1_555 1_555
C7 O2 1_555 1_555
C8 O3 1_555 1_555
C9 C3 1_555 1_555
C10 C11 1_555 1_555
C11 C12 1_555 1_555
C12 C13 1_555 1_555
C13 H3 1_555 1_555
C14 C13 1_555 1_555
C15 C10 1_555 1_555
H4 C15 1_555 1_555
C16 O9 1_555 1_555
C17 O11 1_555 1_555
C18 C12 1_555 1_555
C19 N2 1_555 1_555
H5 C19 1_555 1_555
C20 C19 1_555 1_555
H6 C20 1_555 1_555
C21 C20 1_555 1_555
C22 C21 1_555 1_555
H7 C22 1_555 1_555
C23 N2 1_555 1_555
H8 C23 1_555 1_555
C24 C21 1_555 1_555
H9 C24 1_555 1_555
C25 C24 1_555 1_555
H10 C25 1_555 1_555
C26 H11 1_555 1_555
C27 C26 1_555 1_555
H12 C27 1_555 1_555
C28 C25 1_555 1_555
C29 C28 1_555 1_555
H13 C29 1_555 1_555
C30 N3 1_555 1_555
H14 C30 1_555 1_555
C31 N4 1_555 1_555
H15 C31 1_555 1_555
C32 C31 1_555 1_555
H16 C32 1_555 1_555
C33 C32 1_555 1_555
C34 C33 1_555 1_555
H17 C34 1_555 1_555
C35 N4 1_555 1_555
H18 C35 1_555 1_555
C36 C33 1_555 1_555
H19 C36 1_555 1_555
C37 N5 1_555 1_555
H20 C37 1_555 1_555
C38 C37 1_555 1_555
H21 C38 1_555 1_555
C39 C38 1_555 1_555
C40 C39 1_555 1_555
H22 C40 1_555 1_555
C41 N5 1_555 1_555
H23 C41 1_555 1_555
C42 C39 1_555 1_555
H24 C42 1_555 1_555
O17 Cd3 1_555 1_555
H25 O17 1_555 1_555
H26 O17 1_555 1_555
O18 Cd3 1_555 1_555
H27 O18 1_555 1_555
H28 O18 1_555 1_555
O19 H29 1_555 1_555
H30 O19 1_555 1_555
O20 H31 1_555 1_555
H32 O20 1_555 1_555
N6 C14 1_555 1_555
Cd1A O11 1_555 1_555
Cd1A_2 N4A 1_555 1_555
Cd1A_3 O1A 1_555 1_555
Cd2A O3 1_555 1_555
Cd2A_2 O13 1_555 1_555
Cd2A_3 N5A 1_555 1_555
Cd3A O10 1_555 1_555
Cd3_2 N3 1_555 1_555
Cd3_3 O10A 1_555 1_555
Cd3A_2 O6A 1_555 1_555
Cd3_4 N2_2 1_555 1_555
O1A C7A 1_555 1_555
O1A_2 Cd1A 1_555 1_555
O2A Cd1A_3 1_555 1_555
O2A_2 Cd1A 1_555 1_555
O3A Cd2 1_555 1_555
O4A C8A 1_555 1_555
O5A Cd2 1_555 1_555
O6A C9A 1_555 1_555
O6A_2 Cd3A 1_555 1_555
O7A N1A 1_555 1_555
O8A N1A 1_555 1_555
O9A Cd1A 1_555 1_555
O10A C16A 1_555 1_555
O10A_2 Cd3 1_555 1_555
O11A Cd1 1_555 1_555
O12A C17A 1_555 1_555
O13A Cd1 1_555 1_555
O13_2 Cd1A_3 1_555 1_555
O14A Cd2 1_555 1_555
O14_2 Cd2A 1_555 1_555
O15A N6A 1_555 1_555
N1A C5A 1_555 1_555
O16A N6A 1_555 1_555
N2_2 C19_2 1_555 1_555
N2A Cd3A 1_555 1_555
N3_2 Cd3 1_555 1_555
N3A Cd3A 1_555 1_555
N4A C31A 1_555 1_555
N4A_2 Cd1A 1_555 1_555
N5A C37A 1_555 1_555
N5A_2 Cd2A 1_555 1_555
C1A C2A 1_555 1_555
C2A C3A 1_555 1_555
C3A C4A 1_555 1_555
C4A H1A 1_555 1_555
C5A C4A 1_555 1_555
C6A C1A 1_555 1_555
H2A C6A 1_555 1_555
C7A O2A 1_555 1_555
C8A O3A 1_555 1_555
C9A O5A 1_555 1_555
C10A C11A 1_555 1_555
C11A C12A 1_555 1_555
C12A C13A 1_555 1_555
C13A H3A 1_555 1_555
C14A C13A 1_555 1_555
C15A C10A 1_555 1_555
H4A C15A 1_555 1_555
C16A O9A 1_555 1_555
C17A O11A 1_555 1_555
C18A O13A 1_555 1_555
C19_2 H5_2 1_555 1_555
C20_2 C19_2 1_555 1_555
H6_2 C20_2 1_555 1_555
C21_2 C20_2 1_555 1_555
C22_2 C21_2 1_555 1_555
H7_2 C22_2 1_555 1_555
C23_2 N2_2 1_555 1_555
H8_2 C23_2 1_555 1_555
C24_2 C21_2 1_555 1_555
H9_2 C24_2 1_555 1_555
C25_2 C24_2 1_555 1_555
H10_2 C25_2 1_555 1_555
C26_2 N3_2 1_555 1_555
H11_2 C26_2 1_555 1_555
C27_2 C26_2 1_555 1_555
H12_2 C27_2 1_555 1_555
C28_2 C25_2 1_555 1_555
C29_2 C28_2 1_555 1_555
H13_2 C29_2 1_555 1_555
C30_2 N3_2 1_555 1_555
H14_2 C30_2 1_555 1_555
C31A H15A 1_555 1_555
C32A C31A 1_555 1_555
H16A C32A 1_555 1_555
C33A C32A 1_555 1_555
C34A C33A 1_555 1_555
H17A C34A 1_555 1_555
C35A N4A 1_555 1_555
H18A C35A 1_555 1_555
C36A C36 1_555 1_555
H19A C36A 1_555 1_555
C37A H20A 1_555 1_555
C38A C37A 1_555 1_555
H21A C38A 1_555 1_555
C39A C38A 1_555 1_555
C40A C39A 1_555 1_555
H22A C40A 1_555 1_555
C41A N5A 1_555 1_555
H23A C41A 1_555 1_555
C42A C42 1_555 1_555
H24A C42A 1_555 1_555
O17A Cd3A 1_555 1_555
H25A O17A 1_555 1_555
H26A O17A 1_555 1_555
O18A Cd3A 1_555 1_555
H27A O18A 1_555 1_555
H28A O18A 1_555 1_555
N6A C14A 1_555 1_555
Cd2 O13A 1_555 1_555
O5 Cd2A 1_555 1_555
O13 Cd1A 1_555 1_555
O14 Cd2A_2 1_555 1_555
C1 C7 1_555 1_555
C2 C8 1_555 1_555
C5 C6 1_555 1_555
C10 C16 1_555 1_555
C11 C17 1_555 1_555
C14 C15 1_555 1_555
C22 C23 1_555 1_555
C27 C28 1_555 1_555
C29 C30 1_555 1_555
C34 C35 1_555 1_555
C40 C41 1_555 1_555
Cd1A O11A 1_555 1_555
Cd2A O2A 1_555 1_555
Cd2A O3A 1_555 1_555
Cd2A O13_2 1_555 1_555
Cd2A_2 O2A_2 1_555 1_555
O14A C18A 1_555 1_555
C1A C7A 1_555 1_555
C2A C8A 1_555 1_555
C3A C9A 1_555 1_555
C5A C6A 1_555 1_555
C10A C16A 1_555 1_555
C11A C17A 1_555 1_555
C12A C18A 1_555 1_555
C14A C15A 1_555 1_555
C22_2 C23_2 1_555 1_555
C27_2 C28_2 1_555 1_555
C29_2 C30_2 1_555 1_555
C33A C36A 1_555 1_555
C34A C35A 1_555 1_555
C39A C42A 1_555 1_555
C40A C41A 1_555 1_555

#END
