
#######################################################################
#
#                 Cambridge Crystallographic Data Centre
#                                CCDC 
#
#######################################################################
#
# If this CIF has been generated from an entry in the Cambridge 
# Structural Database, then it will include bibliographic, chemical, 
# crystal, experimental, refinement or atomic coordinate data resulting 
# from the CCDC's data processing and validation procedures.
#
#######################################################################

data_QURMIA
_symmetry_cell_setting           triclinic
_symmetry_space_group_name_H-M   'P -1'
_symmetry_Int_Tables_number      2
_space_group_name_Hall           '-P 1'
loop_
_symmetry_equiv_pos_site_id
_symmetry_equiv_pos_as_xyz
1 x,y,z
2 -x,-y,-z
_cell_length_a                   9.2956(6)
_cell_length_b                   11.5154(7)
_cell_length_c                   14.2161(9)
_cell_angle_alpha                78.251(3)
_cell_angle_beta                 81.491(3)
_cell_angle_gamma                79.872(3)
_cell_volume                     1456.67
loop_
_atom_site_label
_atom_site_type_symbol
_atom_site_fract_x
_atom_site_fract_y
_atom_site_fract_z
Co1 Co 0.51795(3) 0.71213(2) 0.744215(18)
O1 O 0.37608(15) 0.79615(12) 0.86172(10)
O2 O 0.40857(15) 0.60662(11) 0.87315(9)
O3 O 0.26993(17) 0.68652(14) 0.98718(11)
O4 O 0.5213(2) 0.91919(18) 0.69081(17)
O5 O 0.6473(2) 0.79661(18) 0.61233(13)
O6 O 0.6646(3) 0.9838(2) 0.56676(17)
N1 N 0.32025(16) 0.73476(13) 0.67508(11)
N2 N 0.10928(18) 0.44128(15) 0.69803(12)
N3 N -0.04157(17) -0.02389(15) 0.77718(12)
N4 N -0.29507(16) -0.30084(13) 0.82011(11)
N5 N 0.58698(16) 0.54317(14) 0.69094(12)
N6 N 0.5253(2) 0.20318(14) 0.85297(15)
N7 N 0.34891(18) 0.69668(16) 0.91058(14)
N8 N 0.6136(3) 0.9054(2) 0.61885(19)
C1 C 0.2682(2) 0.83488(16) 0.61631(14)
H1 H 0.3220 0.8984 0.6017
C2 C 0.1396(2) 0.84812(17) 0.57670(15)
H2 H 0.1075 0.9194 0.5363
C3 C 0.0585(2) 0.75605(17) 0.59681(14)
H3 H -0.0305 0.7646 0.5718
C4 C 0.1107(2) 0.65026(16) 0.65477(13)
C5 C 0.2412(2) 0.64547(16) 0.69251(13)
H4 H 0.2759 0.5749 0.7328
C6 C 0.0391(2) 0.54350(18) 0.67282(14)
H5 H -0.0601 0.5515 0.6655
C7 C 0.0373(2) 0.33655(17) 0.71286(16)
H6 H -0.0653 0.3620 0.6999
C8 C 0.0401(3) 0.2719(2) 0.81552(17)
H7 H -0.0136 0.3244 0.8585
H8 H 0.1411 0.2524 0.8303
C9 C -0.0274(3) 0.15778(19) 0.83345(16)
H9 H -0.1316 0.1783 0.8267
H10 H -0.0175 0.1164 0.8993
C10 C 0.0441(2) 0.07379(17) 0.76417(16)
H11 H 0.1453 0.0417 0.7776
C11 C 0.0437(3) 0.14139(19) 0.66170(16)
H12 H -0.0569 0.1620 0.6463
H13 H 0.0974 0.0897 0.6182
C12 C 0.1124(3) 0.25523(19) 0.64503(17)
H14 H 0.2158 0.2345 0.6542
H15 H 0.1056 0.2968 0.5789
C13 C -0.0036(2) -0.12110(17) 0.83190(15)
H16 H 0.0832 -0.1311 0.8598
C14 C -0.0910(2) -0.21955(16) 0.85346(14)
C15 C -0.0642(2) -0.31660(18) 0.92607(16)
H17 H 0.0149 -0.3238 0.9611
C16 C -0.1544(2) -0.40269(19) 0.94672(17)
H18 H -0.1395 -0.4672 0.9974
C17 C -0.2670(2) -0.39284(17) 0.89194(16)
H19 H -0.3262 -0.4528 0.9055
C18 C -0.2085(2) -0.21659(16) 0.80310(13)
H20 H -0.2282 -0.1512 0.7539
C19 C 0.6347(2) 0.54864(19) 0.59671(16)
H21 H 0.6522 0.6223 0.5597
C20 C 0.6588(3) 0.4512(2) 0.55240(17)
H22 H 0.6924 0.4586 0.4868
C21 C 0.6327(3) 0.3417(2) 0.60641(18)
H23 H 0.6477 0.2745 0.5773
C22 C 0.5844(2) 0.33193(17) 0.70339(16)
C23 C 0.5645(2) 0.43647(17) 0.74219(14)
H24 H 0.5336 0.4311 0.8080
C24 C 0.5553(2) 0.21768(18) 0.76316(18)
H25 H 0.5594 0.1525 0.7330
C25 C 0.5040(2) 0.08444(17) 0.90702(16)
H26 H 0.4828 0.0359 0.8630
C26 C 0.6421(2) 0.02533(17) 0.95098(17)
H27 H 0.6686 0.0775 0.9892
H28 H 0.7218 0.0140 0.8997
C27 C 0.3767(2) 0.09583(18) 0.98490(17)
H29 H 0.2872 0.1290 0.9553
H30 H 0.3929 0.1508 1.0244
Co1_2 Co 1.51795(3) 1.71213(2) 0.744215(18)
Co1_3 Co -0.48205(3) -0.28787(2) 0.744215(18)
Co1A Co 0.48205(3) -0.71213(2) 1.255785(18)
O1_2 O 1.37608(15) 1.79615(12) 0.86172(10)
O2_2 O 1.40857(15) 1.60662(11) 0.87315(9)
O3_2 O 1.26993(17) 1.68652(14) 0.98718(11)
O4_2 O 1.5213(2) 1.91919(18) 0.69081(17)
O5_2 O 1.6473(2) 1.79661(18) 0.61233(13)
O6_2 O 1.6646(3) 1.9838(2) 0.56676(17)
N1_2 N 1.32025(16) 1.73476(13) 0.67508(11)
N2_2 N 1.10928(18) 1.44128(15) 0.69803(12)
N3_2 N 0.95843(17) 0.97611(15) 0.77718(12)
N4_2 N 0.70493(16) 0.69916(13) 0.82011(11)
N4_3 N 1.70493(16) 1.69916(13) 0.82011(11)
N5A N 0.41302(16) -0.54317(14) 1.30906(12)
N5_2 N 1.58698(16) 1.54317(14) 0.69094(12)
N6A N 0.4747(2) -0.20318(14) 1.14703(15)
N7_2 N 1.34891(18) 1.69668(16) 0.91058(14)
N8_2 N 1.6136(3) 1.9054(2) 0.61885(19)
C1_2 C 1.2682(2) 1.83488(16) 0.61631(14)
H1_2 H 1.3220 1.8984 0.6017
C2_2 C 1.1396(2) 1.84812(17) 0.57670(15)
H2_2 H 1.1075 1.9194 0.5363
C3_2 C 1.0585(2) 1.75605(17) 0.59681(14)
H3_2 H 0.9695 1.7646 0.5718
C4_2 C 1.1107(2) 1.65026(16) 0.65477(13)
C5_2 C 1.2412(2) 1.64547(16) 0.69251(13)
H4_2 H 1.2759 1.5749 0.7328
C6_2 C 1.0391(2) 1.54350(18) 0.67282(14)
H5_2 H 0.9399 1.5515 0.6655
C7_2 C 1.0373(2) 1.33655(17) 0.71286(16)
H6_2 H 0.9347 1.3620 0.6999
C8_2 C 1.0401(3) 1.2719(2) 0.81552(17)
H7_2 H 0.9864 1.3244 0.8585
H8_2 H 1.1411 1.2524 0.8303
C9_2 C 0.9726(3) 1.15778(19) 0.83345(16)
H9_2 H 0.8684 1.1783 0.8267
H10_2 H 0.9825 1.1164 0.8993
C10_2 C 1.0441(2) 1.07379(17) 0.76417(16)
H11_2 H 1.1453 1.0417 0.7776
C11_2 C 1.0437(3) 1.14139(19) 0.66170(16)
H12_2 H 0.9431 1.1620 0.6463
H13_2 H 1.0974 1.0897 0.6182
C12_2 C 1.1124(3) 1.25523(19) 0.64503(17)
H14_2 H 1.2158 1.2345 0.6542
H15_2 H 1.1056 1.2968 0.5789
C13_2 C 0.9964(2) 0.87890(17) 0.83190(15)
H16_2 H 1.0832 0.8689 0.8598
C14_2 C 0.9090(2) 0.78045(16) 0.85346(14)
C15_2 C 0.9358(2) 0.68340(18) 0.92607(16)
H17_2 H 1.0149 0.6762 0.9611
C16_2 C 0.8456(2) 0.59731(19) 0.94672(17)
H18_2 H 0.8605 0.5328 0.9974
C17_2 C 0.7330(2) 0.60716(17) 0.89194(16)
H19_2 H 0.6738 0.5472 0.9055
C18_2 C 0.7915(2) 0.78341(16) 0.80310(13)
H20_2 H 0.7718 0.8488 0.7539
C19A C 0.3653(2) -0.54864(19) 1.40329(16)
H21A H 0.3478 -0.6223 1.4403
C20A C 0.3412(3) -0.4512(2) 1.44760(17)
H22A H 0.3076 -0.4586 1.5132
C21A C 0.3673(3) -0.3417(2) 1.39359(18)
H23A H 0.3523 -0.2745 1.4227
C22A C 0.4156(2) -0.33193(17) 1.29661(16)
C23A C 0.4355(2) -0.43647(17) 1.25781(14)
H24A H 0.4664 -0.4311 1.1920
C24A C 0.4447(2) -0.21768(18) 1.23684(18)
H25A H 0.4406 -0.1525 1.2670
C25A C 0.4960(2) -0.08444(17) 1.09298(16)
H26A H 0.5172 -0.0359 1.1370
C26A C 0.3579(2) -0.02533(17) 1.04902(17)
H27A H 0.3314 -0.0775 1.0108
H28A H 0.2782 -0.0140 1.1003
C27A C 0.6233(2) -0.09583(18) 1.01510(17)
H29A H 0.7128 -0.1290 1.0447
H30A H 0.6071 -0.1508 0.9756
loop_
_geom_bond_atom_site_label_1
_geom_bond_atom_site_label_2
_geom_bond_site_symmetry_1
_geom_bond_site_symmetry_2
Co1 O1 1_555 1_555
O1 N7 1_555 1_555
O2 Co1 1_555 1_555
O3 N7 1_555 1_555
O4 Co1 1_555 1_555
O5 Co1 1_555 1_555
O6 N8 1_555 1_555
N1 Co1 1_555 1_555
N2 C6 1_555 1_555
N3 C10 1_555 1_555
N4 C17 1_555 1_555
N5 Co1 1_555 1_555
N6 C24 1_555 1_555
N7 O2 1_555 1_555
N8 O4 1_555 1_555
C1 N1 1_555 1_555
H1 C1 1_555 1_555
C2 C1 1_555 1_555
H2 C2 1_555 1_555
C3 C2 1_555 1_555
H3 C3 1_555 1_555
C4 C3 1_555 1_555
C5 N1 1_555 1_555
H4 C5 1_555 1_555
C6 C4 1_555 1_555
H5 C6 1_555 1_555
C7 N2 1_555 1_555
H6 C7 1_555 1_555
C8 C7 1_555 1_555
H7 C8 1_555 1_555
H8 C8 1_555 1_555
C9 C8 1_555 1_555
H9 C9 1_555 1_555
H10 C9 1_555 1_555
C10 C9 1_555 1_555
H11 C10 1_555 1_555
C11 C10 1_555 1_555
H12 C11 1_555 1_555
H13 C11 1_555 1_555
C12 C7 1_555 1_555
H14 C12 1_555 1_555
H15 C12 1_555 1_555
C13 N3 1_555 1_555
H16 C13 1_555 1_555
C14 C13 1_555 1_555
C15 C14 1_555 1_555
H17 C15 1_555 1_555
C16 C15 1_555 1_555
H18 C16 1_555 1_555
C17 C16 1_555 1_555
H19 C17 1_555 1_555
C18 N4 1_555 1_555
H20 C18 1_555 1_555
C19 N5 1_555 1_555
H21 C19 1_555 1_555
C20 C19 1_555 1_555
H22 C20 1_555 1_555
C21 C20 1_555 1_555
H23 C21 1_555 1_555
C22 C21 1_555 1_555
C23 N5 1_555 1_555
H24 C23 1_555 1_555
C24 C22 1_555 1_555
H25 C24 1_555 1_555
C25 N6 1_555 1_555
H26 C25 1_555 1_555
C26 C25 1_555 1_555
H27 C26 1_555 1_555
H28 C26 1_555 1_555
C27 C25 1_555 1_555
H29 C27 1_555 1_555
H30 C27 1_555 1_555
Co1_2 O1_2 1_555 1_555
Co1_3 N4 1_555 1_555
Co1A N5A 1_555 1_555
O1_2 N7_2 1_555 1_555
O2_2 Co1_2 1_555 1_555
O3_2 N7_2 1_555 1_555
O4_2 Co1_2 1_555 1_555
O5_2 Co1_2 1_555 1_555
O6_2 N8_2 1_555 1_555
N1_2 Co1_2 1_555 1_555
N2_2 C6_2 1_555 1_555
N3_2 C10_2 1_555 1_555
N4_2 Co1 1_555 1_555
N4_3 Co1_2 1_555 1_555
N5A C19A 1_555 1_555
N5_2 Co1_2 1_555 1_555
N6A C24A 1_555 1_555
N7_2 O2_2 1_555 1_555
N8_2 O4_2 1_555 1_555
C1_2 N1_2 1_555 1_555
H1_2 C1_2 1_555 1_555
C2_2 C1_2 1_555 1_555
H2_2 C2_2 1_555 1_555
C3_2 C2_2 1_555 1_555
H3_2 C3_2 1_555 1_555
C4_2 C3_2 1_555 1_555
C5_2 N1_2 1_555 1_555
H4_2 C5_2 1_555 1_555
C6_2 C4_2 1_555 1_555
H5_2 C6_2 1_555 1_555
C7_2 N2_2 1_555 1_555
H6_2 C7_2 1_555 1_555
C8_2 C7_2 1_555 1_555
H7_2 C8_2 1_555 1_555
H8_2 C8_2 1_555 1_555
C9_2 C8_2 1_555 1_555
H9_2 C9_2 1_555 1_555
H10_2 C9_2 1_555 1_555
C10_2 C9_2 1_555 1_555
H11_2 C10_2 1_555 1_555
C11_2 C10_2 1_555 1_555
H12_2 C11_2 1_555 1_555
H13_2 C11_2 1_555 1_555
C12_2 C7_2 1_555 1_555
H14_2 C12_2 1_555 1_555
H15_2 C12_2 1_555 1_555
C13_2 N3_2 1_555 1_555
H16_2 C13_2 1_555 1_555
C14_2 C13_2 1_555 1_555
C15_2 C14_2 1_555 1_555
H17_2 C15_2 1_555 1_555
C16_2 C15_2 1_555 1_555
H18_2 C16_2 1_555 1_555
C17_2 N4_2 1_555 1_555
H19_2 C17_2 1_555 1_555
C18_2 N4_2 1_555 1_555
H20_2 C18_2 1_555 1_555
C19A H21A 1_555 1_555
C20A C19A 1_555 1_555
H22A C20A 1_555 1_555
C21A C20A 1_555 1_555
H23A C21A 1_555 1_555
C22A C21A 1_555 1_555
C23A N5A 1_555 1_555
H24A C23A 1_555 1_555
C24A C22A 1_555 1_555
H25A C24A 1_555 1_555
C25A N6A 1_555 1_555
H26A C25A 1_555 1_555
C26A C27 1_555 1_555
H27A C26A 1_555 1_555
H28A C26A 1_555 1_555
C27A C26 1_555 1_555
H29A C27A 1_555 1_555
H30A C27A 1_555 1_555
O5 N8 1_555 1_555
C4 C5 1_555 1_555
C11 C12 1_555 1_555
C14 C18 1_555 1_555
C22 C23 1_555 1_555
O5_2 N8_2 1_555 1_555
C4_2 C5_2 1_555 1_555
C11_2 C12_2 1_555 1_555
C14_2 C18_2 1_555 1_555
C16_2 C17_2 1_555 1_555
C22A C23A 1_555 1_555
C25A C26A 1_555 1_555
C25A C27A 1_555 1_555

#END
