
#######################################################################
#
#                 Cambridge Crystallographic Data Centre
#                                CCDC 
#
#######################################################################
#
# If this CIF has been generated from an entry in the Cambridge 
# Structural Database, then it will include bibliographic, chemical, 
# crystal, experimental, refinement or atomic coordinate data resulting 
# from the CCDC's data processing and validation procedures.
#
#######################################################################

data_QURSUS
_symmetry_cell_setting           monoclinic
_symmetry_space_group_name_H-M   'C 2/c'
_symmetry_Int_Tables_number      15
_space_group_name_Hall           '-C 2yn'
loop_
_symmetry_equiv_pos_site_id
_symmetry_equiv_pos_as_xyz
1 x,y,z
2 -x,y,1/2-z
3 1/2+x,1/2+y,z
4 1/2-x,1/2+y,1/2-z
5 -x,-y,-z
6 x,-y,1/2+z
7 1/2-x,1/2-y,-z
8 1/2+x,1/2-y,1/2+z
_cell_length_a                   37.382(2)
_cell_length_b                   11.1611(5)
_cell_length_c                   15.4840(9)
_cell_angle_alpha                90
_cell_angle_beta                 93.917(3)
_cell_angle_gamma                90
_cell_volume                     6445.21
loop_
_atom_site_label
_atom_site_type_symbol
_atom_site_fract_x
_atom_site_fract_y
_atom_site_fract_z
Cu1 Cu 0.703140(13) 1.14480(5) 0.23423(4)
Cu2 Cu 1.0000 1.15673(6) 0.2500
O1 O 0.70032(9) 1.2913(3) 0.3032(2)
O4 O 0.69172(12) 1.2579(5) 0.0945(3)
H5 H 0.6959 1.3260 0.0719
H6 H 0.6993 1.2048 0.0608
O7 O 0.99916(9) 1.1602(3) 0.4106(2)
H11 H 0.9818 1.1869 0.4376
H12 H 1.0185 1.1624 0.4430
C1 C 0.66892(13) 1.3137(4) 0.3268(3)
N1 N 0.65107(11) 1.1429(5) 0.2399(4)
O8 O 0.66217(11) 1.3936(3) 0.3783(3)
C2 C 0.63891(15) 1.2344(7) 0.2882(6)
N2 N 0.69439(10) 0.9890(3) 0.1714(2)
O9 O 0.66229(15) 0.9532(6) 0.4281(5)
C3 C 0.60206(16) 1.2633(8) 0.2992(6)
H13 H 0.5879 1.2467 0.2466
H14 H 0.6001 1.3468 0.3132
H15 H 0.5936 1.2159 0.3453
N3 N 0.75603(9) 1.1432(3) 0.2328(2)
O10 O 0.70641(18) 1.0531(6) 0.3885(4)
C4 C 0.63404(14) 1.0464(6) 0.1980(6)
H16 H 0.6168 1.0765 0.1535
H17 H 0.6209 1.0020 0.2394
N4 N 0.94571(8) 1.1535(3) 0.2437(2)
O11 O 0.71680(17) 0.9141(5) 0.4770(3)
C5 C 0.65925(13) 0.9635(4) 0.1576(3)
N5 N 1.0000 0.9727(4) 0.2500
C6 C 0.64769(18) 0.8642(5) 0.1082(4)
H18 H 0.6234 0.8469 0.0994
N6 N 1.0000 0.3403(4) 0.2500
C7 C 0.6726(2) 0.7932(5) 0.0730(4)
H19 H 0.6653 0.7286 0.0381
N7 N 0.69450(15) 0.9739(5) 0.4307(3)
C8 C 0.70823(19) 0.8172(5) 0.0891(4)
H20 H 0.7254 0.7675 0.0672
C9 C 0.71840(15) 0.9160(5) 0.1384(3)
H21 H 0.7427 0.9325 0.1489
C10 C 0.77600(12) 1.0721(5) 0.2863(3)
H22 H 0.7644 1.0230 0.3241
C11 C 0.81274(12) 1.0680(5) 0.2881(3)
H23 H 0.8255 1.0172 0.3267
C12 C 0.83081(10) 1.1396(4) 0.2323(3)
C13 C 0.80992(12) 1.2123(5) 0.1771(3)
H24 H 0.8208 1.2619 0.1383
C14 C 0.77336(12) 1.2120(5) 0.1791(4)
H25 H 0.7600 1.2621 0.1413
C15 C 0.87067(10) 1.1436(3) 0.2347(3)
C16 C 0.89153(12) 1.0800(5) 0.2966(3)
H26 H 0.8806 1.0328 0.3368
C17 C 0.92830(11) 1.0865(4) 0.2986(3)
H27 H 0.9417 1.0422 0.3402
C18 C 0.92578(11) 1.2150(4) 0.1839(3)
H28 H 0.9375 1.2620 0.1450
C19 C 0.88899(11) 1.2123(5) 0.1770(3)
H29 H 0.8763 1.2561 0.1339
C20 C 1.00747(13) 0.9114(4) 0.3228(3)
H30 H 1.0131 0.9537 0.3737
C21 C 1.00716(13) 0.7869(4) 0.3259(3)
H31 H 1.0117 0.7467 0.3781
C22 C 1.0000 0.7244(5) 0.2500
C23 C 1.01711(13) 0.4020(4) 0.1916(3)
H32 H 1.0294 0.3600 0.1510
C24 C 1.01733(13) 0.5266(4) 0.1890(3)
H33 H 1.0291 0.5659 0.1462
C25 C 1.0000 0.5931(5) 0.2500
Cu1A Cu 1.296860(13) 1.14480(5) 0.26577(4)
Cu2_2 Cu 1.0000 0.15673(6) 0.2500
O1A O 1.29968(9) 1.2913(3) 0.1968(2)
O4A O 1.30828(12) 1.2579(5) 0.4055(3)
H5A H 1.3041 1.3260 0.4281
H6A H 1.3007 1.2048 0.4392
O7A O 1.00084(9) 1.1602(3) 0.0894(2)
H11A H 1.0182 1.1869 0.0624
H12A H 0.9815 1.1624 0.0570
C1A C 1.33108(13) 1.3137(4) 0.1732(3)
N1A N 1.34893(11) 1.1429(5) 0.2601(4)
O8A O 1.33783(11) 1.3936(3) 0.1217(3)
C2A C 1.36109(15) 1.2344(7) 0.2118(6)
N2A N 1.30561(10) 0.9890(3) 0.3286(2)
O9A O 1.33771(15) 0.9532(6) 0.0719(5)
C3A C 1.39794(16) 1.2633(8) 0.2008(6)
H13A H 1.4121 1.2467 0.2534
H14A H 1.3999 1.3468 0.1868
H15A H 1.4064 1.2159 0.1547
N3A N 1.24397(9) 1.1432(3) 0.2672(2)
O10A O 1.29359(18) 1.0531(6) 0.1115(4)
C4A C 1.36596(14) 1.0464(6) 0.3020(6)
H16A H 1.3832 1.0765 0.3465
H17A H 1.3791 1.0020 0.2606
N4A N 1.05429(8) 1.1535(3) 0.2563(2)
O11A O 1.28320(17) 0.9141(5) 0.0230(3)
C5A C 1.34075(13) 0.9635(4) 0.3424(3)
C6A C 1.35231(18) 0.8642(5) 0.3918(4)
H18A H 1.3766 0.8469 0.4006
N6_2 N 1.0000 1.3403(4) 0.2500
C7A C 1.3274(2) 0.7932(5) 0.4270(4)
H19A H 1.3347 0.7286 0.4619
N7A N 1.30550(15) 0.9739(5) 0.0693(3)
C8A C 1.29177(19) 0.8172(5) 0.4109(4)
H20A H 1.2746 0.7675 0.4328
C9A C 1.28160(15) 0.9160(5) 0.3616(3)
H21A H 1.2573 0.9325 0.3511
C10A C 1.22400(12) 1.0721(5) 0.2137(3)
H22A H 1.2356 1.0230 0.1759
C11A C 1.18726(12) 1.0680(5) 0.2119(3)
H23A H 1.1745 1.0172 0.1733
C12A C 1.16919(10) 1.1396(4) 0.2677(3)
C13A C 1.19008(12) 1.2123(5) 0.3229(3)
H24A H 1.1792 1.2619 0.3617
C14A C 1.22664(12) 1.2120(5) 0.3209(4)
H25A H 1.2400 1.2621 0.3587
C15A C 1.12933(10) 1.1436(3) 0.2653(3)
C16A C 1.10847(12) 1.0800(5) 0.2034(3)
H26A H 1.1194 1.0328 0.1632
C17A C 1.07170(11) 1.0865(4) 0.2014(3)
H27A H 1.0583 1.0422 0.1598
C18A C 1.07422(11) 1.2150(4) 0.3161(3)
H28A H 1.0625 1.2620 0.3550
C19A C 1.11101(11) 1.2123(5) 0.3230(3)
H29A H 1.1237 1.2561 0.3661
C20A C 0.99253(13) 0.9114(4) 0.1772(3)
H30A H 0.9869 0.9537 0.1263
C21A C 0.99284(13) 0.7869(4) 0.1741(3)
H31A H 0.9883 0.7467 0.1219
C23A C 0.98289(13) 0.4020(4) 0.3084(3)
H32A H 0.9706 0.3600 0.3490
C24A C 0.98267(13) 0.5266(4) 0.3110(3)
H33A H 0.9709 0.5659 0.3538
O2 O 0.70578(15) 1.5163(5) 0.5107(3)
H1 H 0.6984 1.4807 0.4644
H2 H 0.7261 1.5489 0.5054
O3 O 0.60605(18) 1.4216(5) 0.4875(4)
H3 H 0.6221 1.4312 0.4520
H4 H 0.5953 1.4882 0.4905
O5 O 0.5846(2) 1.0068(7) 0.4554(6)
H7 H 0.6065 0.9927 0.4473
H8 H 0.5759 0.9459 0.4796
O6 O 0.43965(12) 0.7648(5) 0.4790(3)
H9 H 0.4382 0.8250 0.5120
H10 H 0.4328 0.7011 0.5031
O12 O 0.55919(16) 0.6150(6) 0.5250(4)
O13 O 0.5576(2) 0.8076(6) 0.5341(6)
O14 O 0.6078(2) 0.6963(10) 0.5644(6)
N8 N 0.5750(2) 0.7084(7) 0.5470(5)
loop_
_geom_bond_atom_site_label_1
_geom_bond_atom_site_label_2
_geom_bond_site_symmetry_1
_geom_bond_site_symmetry_2
Cu1 O1 1_555 1_555
Cu2 O7 1_555 1_555
O1 C1 1_555 1_555
O2 H1 1_555 1_555
H2 O2 1_555 1_555
O3 H3 1_555 1_555
H4 O3 1_555 1_555
O4 Cu1 1_555 1_555
H5 O4 1_555 1_555
H6 O4 1_555 1_555
O5 H7 1_555 1_555
H8 O5 1_555 1_555
O6 H9 1_555 1_555
H10 O6 1_555 1_555
O7 H11 1_555 1_555
H12 O7 1_555 1_555
C1 O8 1_555 1_555
N1 Cu1 1_555 1_555
C2 C1 1_555 1_555
N2 Cu1 1_555 1_555
O9 N7 1_555 1_555
C3 C2 1_555 1_555
H13 C3 1_555 1_555
H14 C3 1_555 1_555
H15 C3 1_555 1_555
N3 Cu1 1_555 1_555
O10 Cu1 1_555 1_555
C4 N1 1_555 1_555
H16 C4 1_555 1_555
H17 C4 1_555 1_555
N4 Cu2 1_555 1_555
O11 N7 1_555 1_555
C5 N2 1_555 1_555
N5 Cu2 1_555 1_555
O12 N8 1_555 1_555
C6 C5 1_555 1_555
H18 C6 1_555 1_555
N6 C23 1_555 1_555
O13 N8 1_555 1_555
C7 C6 1_555 1_555
H19 C7 1_555 1_555
N7 O10 1_555 1_555
O14 N8 1_555 1_555
C8 C7 1_555 1_555
H20 C8 1_555 1_555
C9 N2 1_555 1_555
H21 C9 1_555 1_555
C10 N3 1_555 1_555
H22 C10 1_555 1_555
C11 C10 1_555 1_555
H23 C11 1_555 1_555
C12 C11 1_555 1_555
C13 C12 1_555 1_555
H24 C13 1_555 1_555
C14 N3 1_555 1_555
H25 C14 1_555 1_555
C15 C12 1_555 1_555
C16 C15 1_555 1_555
H26 C16 1_555 1_555
C17 N4 1_555 1_555
H27 C17 1_555 1_555
C18 N4 1_555 1_555
H28 C18 1_555 1_555
C19 C15 1_555 1_555
H29 C19 1_555 1_555
C20 N5 1_555 1_555
H30 C20 1_555 1_555
C21 C20 1_555 1_555
H31 C21 1_555 1_555
C22 C21 1_555 1_555
C23 H32 1_555 1_555
C24 C23 1_555 1_555
H33 C24 1_555 1_555
C25 C22 1_555 1_555
Cu1A O1A 1_555 1_555
Cu2_2 N6 1_555 1_555
O1A C1A 1_555 1_555
O4A Cu1A 1_555 1_555
H5A O4A 1_555 1_555
H6A O4A 1_555 1_555
O7A Cu2 1_555 1_555
H11A O7A 1_555 1_555
H12A O7A 1_555 1_555
C1A O8A 1_555 1_555
N1A Cu1A 1_555 1_555
C2A C1A 1_555 1_555
N2A Cu1A 1_555 1_555
O9A N7A 1_555 1_555
C3A C2A 1_555 1_555
H13A C3A 1_555 1_555
H14A C3A 1_555 1_555
H15A C3A 1_555 1_555
N3A Cu1A 1_555 1_555
O10A Cu1A 1_555 1_555
C4A N1A 1_555 1_555
H16A C4A 1_555 1_555
H17A C4A 1_555 1_555
N4A Cu2 1_555 1_555
O11A N7A 1_555 1_555
C5A N2A 1_555 1_555
C6A C5A 1_555 1_555
H18A C6A 1_555 1_555
N6_2 Cu2 1_555 1_555
C7A C6A 1_555 1_555
H19A C7A 1_555 1_555
N7A O10A 1_555 1_555
C8A C7A 1_555 1_555
H20A C8A 1_555 1_555
C9A N2A 1_555 1_555
H21A C9A 1_555 1_555
C10A N3A 1_555 1_555
H22A C10A 1_555 1_555
C11A C10A 1_555 1_555
H23A C11A 1_555 1_555
C12A C11A 1_555 1_555
C13A C12A 1_555 1_555
H24A C13A 1_555 1_555
C14A N3A 1_555 1_555
H25A C14A 1_555 1_555
C15A C12A 1_555 1_555
C16A C15A 1_555 1_555
H26A C16A 1_555 1_555
C17A N4A 1_555 1_555
H27A C17A 1_555 1_555
C18A N4A 1_555 1_555
H28A C18A 1_555 1_555
C19A C15A 1_555 1_555
H29A C19A 1_555 1_555
C20A N5 1_555 1_555
H30A C20A 1_555 1_555
C21A C22 1_555 1_555
H31A C21A 1_555 1_555
C23A N6 1_555 1_555
H32A C23A 1_555 1_555
C24A C25 1_555 1_555
H33A C24A 1_555 1_555
N1 C2 1_555 1_555
C4 C5 1_555 1_555
C8 C9 1_555 1_555
C13 C14 1_555 1_555
C16 C17 1_555 1_555
C18 C19 1_555 1_555
C24 C25 1_555 1_555
N1A C2A 1_555 1_555
C4A C5A 1_555 1_555
C8A C9A 1_555 1_555
C13A C14A 1_555 1_555
C16A C17A 1_555 1_555
C18A C19A 1_555 1_555
C20A C21A 1_555 1_555
C23A C24A 1_555 1_555

#END
