
#######################################################################
#
#                 Cambridge Crystallographic Data Centre
#                                CCDC 
#
#######################################################################
#
# If this CIF has been generated from an entry in the Cambridge 
# Structural Database, then it will include bibliographic, chemical, 
# crystal, experimental, refinement or atomic coordinate data resulting 
# from the CCDC's data processing and validation procedures.
#
#######################################################################

data_QURWUV
_symmetry_cell_setting           orthorhombic
_symmetry_space_group_name_H-M   'P b c a'
_symmetry_Int_Tables_number      61
_space_group_name_Hall           '-P 2ac 2ab'
loop_
_symmetry_equiv_pos_site_id
_symmetry_equiv_pos_as_xyz
1 x,y,z
2 1/2+x,y,1/2-z
3 x,1/2-y,1/2+z
4 1/2-x,1/2+y,z
5 -x,-y,-z
6 1/2-x,-y,1/2+z
7 -x,1/2+y,1/2-z
8 1/2+x,1/2-y,-z
_cell_length_a                   18.112(10)
_cell_length_b                   10.860(5)
_cell_length_c                   23.781(10)
_cell_angle_alpha                90
_cell_angle_beta                 90
_cell_angle_gamma                90
_cell_volume                     4677.64
loop_
_atom_site_label
_atom_site_type_symbol
_atom_site_fract_x
_atom_site_fract_y
_atom_site_fract_z
Ag1 Ag 1.16536(2) 0.00076(4) 0.09029(2)
Ag2 Ag 1.01753(3) -0.50652(4) 0.18441(2)
N1 N 0.9345(3) -0.1278(5) 0.1335(3)
N2 N 1.0126(3) -0.2886(4) 0.1744(2)
N3 N 0.9930(3) -0.0936(4) 0.2255(2)
N4 N 1.0683(3) -0.0959(4) 0.1395(2)
N5 N 1.1489(2) 0.2178(4) 0.0769(2)
N6 N 1.2181(2) 0.4133(4) 0.0740(2)
N7 N 1.1102(3) 0.3816(4) 0.0126(2)
N8 N 1.0928(2) 0.4063(4) 0.1145(2)
C1 C 0.9456(3) -0.2606(6) 0.1398(3)
H1 H 0.9513 -0.2962 0.1031
H2 H 0.9028 -0.2967 0.1570
C2 C 0.9996(3) -0.0759(5) 0.1053(3)
H3 H 0.9922 0.0107 0.0997
H4 H 1.0052 -0.1139 0.0691
C3 C 0.9257(3) -0.0738(6) 0.1890(3)
H5 H 0.8836 -0.1103 0.2070
H6 H 0.9164 0.0128 0.1850
C4 C 1.0040(3) -0.2284(5) 0.2300(3)
H7 H 1.0472 -0.2443 0.2523
H8 H 0.9624 -0.2639 0.2490
C5 C 1.0766(3) -0.2322(5) 0.1458(3)
H9 H 1.0823 -0.2687 0.1093
H10 H 1.1206 -0.2490 0.1669
C6 C 1.0585(3) -0.0416(6) 0.1957(3)
H11 H 1.1021 -0.0559 0.2178
H12 H 1.0523 0.0458 0.1919
C7 C 1.1003(3) 0.2704(5) 0.1205(3)
H13 H 1.1204 0.2524 0.1569
H14 H 1.0524 0.2328 0.1181
C8 C 1.0626(3) 0.4314(5) 0.0573(3)
H15 H 1.0145 0.3949 0.0542
H16 H 1.0573 0.5187 0.0525
C9 C 1.1834(3) 0.4386(6) 0.0184(3)
H17 H 1.2149 0.4072 -0.0107
H18 H 1.1789 0.5260 0.0132
C10 C 1.1682(3) 0.4613(5) 0.1181(3)
H19 H 1.1645 0.5492 0.1149
H20 H 1.1890 0.4426 0.1543
C11 C 1.1181(4) 0.2481(6) 0.0206(3)
H21 H 1.0708 0.2093 0.0163
H22 H 1.1504 0.2158 -0.0078
C12 C 1.2227(3) 0.2777(5) 0.0808(3)
H23 H 1.2546 0.2440 0.0524
H24 H 1.2440 0.2598 0.1168
C13 C 0.8371(4) -0.5635(7) 0.1432(4)
C14 C 0.7585(5) -0.5680(9) 0.1326(4)
N9 N 0.8976(4) -0.5589(7) 0.1539(4)
H25 H 0.7418 -0.5570 0.1708
H26 H 0.7368 -0.6464 0.1242
H27 H 0.7522 -0.5388 0.0951
N6C N 1.2819(2) -0.0867(4) 0.0740(2)
N3F N 1.0070(3) -0.5936(4) 0.2745(2)
N8_2 N 1.0928(2) -0.5937(4) 0.1145(2)
Ag2F Ag 0.98247(3) -0.00652(4) 0.31559(2)
Ag1C Ag 1.33464(2) 0.50076(4) 0.09029(2)
Ag2_2 Ag 1.01753(3) 0.49348(4) 0.18441(2)
Cl1 Cl 1.11930(8) -0.18291(15) -0.03499(7)
O1 O 1.0727(3) -0.1911(5) -0.0824(3)
O2 O 1.1908(3) -0.2265(7) -0.0488(3)
O3 O 1.0920(5) -0.2636(6) 0.0075(3)
O4 O 1.1222(4) -0.0610(5) -0.0131(2)
Cl2 Cl 0.75090(9) 0.17642(16) 0.25773(7)
O5 O 0.8208(3) 0.1204(6) 0.2499(3)
O6 O 0.7148(4) 0.1074(6) 0.3016(3)
O7 O 0.7098(5) 0.1711(8) 0.2092(3)
O8 O 0.7600(3) 0.3018(5) 0.2755(2)
loop_
_geom_bond_atom_site_label_1
_geom_bond_atom_site_label_2
_geom_bond_site_symmetry_1
_geom_bond_site_symmetry_2
Ag1 N4 1_555 1_555
Ag2 N2 1_555 1_555
N1 C1 1_555 1_555
N2 C1 1_555 1_555
N3 C3 1_555 1_555
N4 C2 1_555 1_555
N5 Ag1 1_555 1_555
N6 C9 1_555 1_555
N7 C8 1_555 1_555
N8 C7 1_555 1_555
C1 H1 1_555 1_555
H2 C1 1_555 1_555
C2 N1 1_555 1_555
H3 C2 1_555 1_555
H4 C2 1_555 1_555
C3 N1 1_555 1_555
H5 C3 1_555 1_555
H6 C3 1_555 1_555
C4 N2 1_555 1_555
H7 C4 1_555 1_555
H8 C4 1_555 1_555
C5 N2 1_555 1_555
H9 C5 1_555 1_555
H10 C5 1_555 1_555
C6 N3 1_555 1_555
H11 C6 1_555 1_555
H12 C6 1_555 1_555
C7 N5 1_555 1_555
H13 C7 1_555 1_555
H14 C7 1_555 1_555
C8 N8 1_555 1_555
H15 C8 1_555 1_555
H16 C8 1_555 1_555
C9 N7 1_555 1_555
H17 C9 1_555 1_555
H18 C9 1_555 1_555
C10 N6 1_555 1_555
H19 C10 1_555 1_555
H20 C10 1_555 1_555
C11 N5 1_555 1_555
H21 C11 1_555 1_555
H22 C11 1_555 1_555
C12 N5 1_555 1_555
H23 C12 1_555 1_555
H24 C12 1_555 1_555
C13 C14 1_555 1_555
C14 H25 1_555 1_555
N9 Ag2 1_555 1_555
H26 C14 1_555 1_555
H27 C14 1_555 1_555
Cl1 O1 1_555 1_555
O2 Cl1 1_555 1_555
O3 Cl1 1_555 1_555
O4 Cl1 1_555 1_555
Cl2 O5 1_555 1_555
O6 Cl2 1_555 1_555
O7 Cl2 1_555 1_555
O8 Cl2 1_555 1_555
N6C Ag1 1_555 1_555
N3F Ag2 1_555 1_555
N8_2 Ag2 1_555 1_555
Ag2F N3 1_555 1_555
Ag1C N6 1_555 1_555
Ag2_2 N8 1_555 1_555
N3 C4 1_555 1_555
N4 C5 1_555 1_555
N4 C6 1_555 1_555
N6 C12 1_555 1_555
N7 C11 1_555 1_555
N8 C10 1_555 1_555
C13 N9 1_555 1_555

#END
