
#######################################################################
#
#                 Cambridge Crystallographic Data Centre
#                                CCDC 
#
#######################################################################
#
# If this CIF has been generated from an entry in the Cambridge 
# Structural Database, then it will include bibliographic, chemical, 
# crystal, experimental, refinement or atomic coordinate data resulting 
# from the CCDC's data processing and validation procedures.
#
#######################################################################

data_QURZUZ
_symmetry_cell_setting           tetragonal
_symmetry_space_group_name_H-M   'I 4/m'
_symmetry_Int_Tables_number      87
_space_group_name_Hall           '-I 4'
loop_
_symmetry_equiv_pos_site_id
_symmetry_equiv_pos_as_xyz
1 x,y,z
2 -x,-y,z
3 -y,x,z
4 y,-x,z
5 1/2+x,1/2+y,1/2+z
6 1/2-x,1/2-y,1/2+z
7 1/2-y,1/2+x,1/2+z
8 1/2+y,1/2-x,1/2+z
9 -x,-y,-z
10 x,y,-z
11 y,-x,-z
12 -y,x,-z
13 1/2-x,1/2-y,1/2-z
14 1/2+x,1/2+y,1/2-z
15 1/2+y,1/2-x,1/2-z
16 1/2-y,1/2+x,1/2-z
_cell_length_a                   11.9612(6)
_cell_length_b                   11.9612(6)
_cell_length_c                   31.373(3)
_cell_angle_alpha                90
_cell_angle_beta                 90
_cell_angle_gamma                90
_cell_volume                     4488.54
loop_
_atom_site_label
_atom_site_type_symbol
_atom_site_fract_x
_atom_site_fract_y
_atom_site_fract_z
Nd1 Nd 1.0000 0.0000 0.41817(8)
Nd2 Nd 1.09900(16) 0.20079(15) 0.5000
S1 S 0.7202(6) 0.0891(6) 0.3847(2)
O1 O 1.1742(10) 0.0581(10) 0.4529(3)
C1 C 0.7434(19) 0.2576(19) 0.3282(7)
H1 H 0.8127 0.2688 0.3410
O2 O 1.302(2) 0.255(2) 0.5000
O3 O 0.5678(12) 0.3610(12) 0.2380(5)
H2 H 0.5948 0.4239 0.2372
O4 O 0.8415(12) 0.0714(11) 0.3749(5)
C2 C 0.529(2) 0.2317(19) 0.2924(8)
O5 O 0.7059(13) 0.1503(12) 0.4254(5)
O6 O 0.6530(13) -0.0124(13) 0.3833(5)
C3 C 0.670(2) 0.1781(17) 0.3427(7)
C4 C 0.602(2) 0.3073(19) 0.2754(8)
C5 C 0.5616(18) 0.1639(18) 0.3272(8)
H3 H 0.5128 0.1123 0.3392
O7 O 1.0000 0.0000 0.5000
C6 C 0.4127(17) 0.2084(18) 0.2745(7)
H4 H 0.3911 0.1325 0.2816
H5 H 0.4148 0.2145 0.2437
C7 C 0.708(2) 0.3223(18) 0.2926(8)
O9 O 1.075(3) 0.404(2) 0.5000
H7 H 1.3643 0.2500 0.4766
H9 H 1.0194 0.4426 0.5198
Nd1_2 Nd 0.0000 0.0000 0.41817(8)
Nd1H Nd 1.0000 0.0000 0.58183(8)
Nd1_3 Nd 0.0000 1.0000 0.41817(8)
Nd1_4 Nd 1.0000 1.0000 0.41817(8)
Nd1_5 Nd 2.0000 0.0000 0.41817(8)
Nd1_6 Nd 2.0000 -1.0000 0.41817(8)
Nd1_7 Nd 1.0000 -1.0000 0.41817(8)
Nd2A Nd 0.90100(16) -0.20079(15) 0.5000
Nd2B Nd 0.79921(15) 0.09900(16) 0.5000
Nd2C Nd 1.20079(15) -0.09900(16) 0.5000
Nd2_2 Nd 0.09900(16) 0.20079(15) 0.5000
Nd2C_2 Nd 0.20079(15) 0.90100(16) 0.5000
Nd2A_2 Nd 0.90100(16) 0.79921(15) 0.5000
Nd2A_3 Nd 1.90100(16) -0.20079(15) 0.5000
Nd2B_2 Nd 1.79921(15) -0.90100(16) 0.5000
Nd2_3 Nd 1.09900(16) -0.79921(15) 0.5000
Nd2C_3 Nd 0.20079(15) -0.09900(16) 0.5000
Nd2A_4 Nd -0.09900(16) -0.20079(15) 0.5000
Nd2B_3 Nd -0.20079(15) 0.09900(16) 0.5000
S1C S 0.0891(6) 0.2798(6) 0.3847(2)
S1A S 0.2798(6) 0.9109(6) 0.3847(2)
S1B S 0.9109(6) 0.7202(6) 0.3847(2)
S1A_2 S 1.2798(6) -0.0891(6) 0.3847(2)
S1B_2 S 1.9109(6) -0.2798(6) 0.3847(2)
S1_2 S 1.7202(6) -0.9109(6) 0.3847(2)
S1C_2 S 1.0891(6) -0.7202(6) 0.3847(2)
O1A O 0.8258(10) -0.0581(10) 0.4529(3)
O1B O 0.9419(10) 0.1742(10) 0.4529(3)
O1C O 1.0581(10) -0.1742(10) 0.4529(3)
O1I O 1.1742(10) 0.0581(10) 0.5471(3)
O1K O 0.9419(10) 0.1742(10) 0.5471(3)
O1C_2 O 0.0581(10) -0.1742(10) 0.4529(3)
O1B_2 O -0.0581(10) 0.1742(10) 0.4529(3)
O1_2 O 0.1742(10) 0.0581(10) 0.4529(3)
O1A_2 O -0.1742(10) -0.0581(10) 0.4529(3)
O1H O 0.8258(10) -0.0581(10) 0.5471(3)
O1J O 1.0581(10) -0.1742(10) 0.5471(3)
C1C C 0.2576(19) 0.2566(19) 0.3282(7)
C1A C 0.2566(19) 0.7424(19) 0.3282(7)
C1B C 0.7424(19) 0.7434(19) 0.3282(7)
C1A_2 C 1.2566(19) -0.2576(19) 0.3282(7)
C1B_2 C 1.7424(19) -0.2566(19) 0.3282(7)
C1_2 C 1.7434(19) -0.7424(19) 0.3282(7)
C1C_2 C 1.2576(19) -0.7434(19) 0.3282(7)
H1B H 0.7312 0.8127 0.3410
H1A H 0.1873 0.7312 0.3410
H1C H 0.2688 0.1873 0.3410
H1A_2 H 1.1873 -0.2688 0.3410
H1C_2 H 1.2688 -0.8127 0.3410
H1_2 H 1.8127 -0.7312 0.3410
H1B_2 H 1.7312 -0.1873 0.3410
O2A O 0.698(2) -0.255(2) 0.5000
O2B O 0.745(2) 0.302(2) 0.5000
O2C O 1.255(2) -0.302(2) 0.5000
O3C O 0.3610(12) 0.4322(12) 0.2380(5)
O3A O 0.4322(12) 0.6390(12) 0.2380(5)
O3B O 0.6390(12) 0.5678(12) 0.2380(5)
O3A_2 O 1.4322(12) -0.3610(12) 0.2380(5)
O3B_2 O 1.6390(12) -0.4322(12) 0.2380(5)
O3_2 O 1.5678(12) -0.6390(12) 0.2380(5)
O3C_2 O 1.3610(12) -0.5678(12) 0.2380(5)
H2C H 0.4239 0.4052 0.2372
H2A H 0.4052 0.5761 0.2372
H2B H 0.5761 0.5948 0.2372
H2A_2 H 1.4052 -0.4239 0.2372
H2B_2 H 1.5761 -0.4052 0.2372
H2_2 H 1.5948 -0.5761 0.2372
H2C_2 H 1.4239 -0.5948 0.2372
O4C O 0.0714(11) 0.1585(12) 0.3749(5)
O4A O 0.1585(12) 0.9286(11) 0.3749(5)
O4B O 0.9286(11) 0.8415(12) 0.3749(5)
O4A_2 O 1.1585(12) -0.0714(11) 0.3749(5)
O4B_2 O 1.9286(11) -0.1585(12) 0.3749(5)
O4_2 O 1.8415(12) -0.9286(11) 0.3749(5)
O4C_2 O 1.0714(11) -0.8415(12) 0.3749(5)
O4B_3 O 0.9286(11) -0.1585(12) 0.3749(5)
O4C_3 O 1.0714(11) 0.1585(12) 0.3749(5)
O4B_4 O -0.0714(11) -0.1585(12) 0.3749(5)
O4_3 O -0.1585(12) 0.0714(11) 0.3749(5)
O4A_3 O 0.1585(12) -0.0714(11) 0.3749(5)
C2C C 0.2317(19) 0.471(2) 0.2924(8)
C2A C 0.471(2) 0.7683(19) 0.2924(8)
C2B C 0.7683(19) 0.529(2) 0.2924(8)
C2A_2 C 1.471(2) -0.2317(19) 0.2924(8)
C2B_2 C 1.7683(19) -0.471(2) 0.2924(8)
C2_2 C 1.529(2) -0.7683(19) 0.2924(8)
C2C_2 C 1.2317(19) -0.529(2) 0.2924(8)
O5C O 0.1503(12) 0.2941(13) 0.4254(5)
O5A O 0.2941(13) 0.8497(12) 0.4254(5)
O5B O 0.8497(12) 0.7059(13) 0.4254(5)
O5A_2 O 1.2941(13) -0.1503(12) 0.4254(5)
O5B_2 O 1.8497(12) -0.2941(13) 0.4254(5)
O5_2 O 1.7059(13) -0.8497(12) 0.4254(5)
O5C_2 O 1.1503(12) -0.7059(13) 0.4254(5)
O5C_3 O 1.1503(12) 0.2941(13) 0.4254(5)
O5J O 1.1503(12) 0.2941(13) 0.5746(5)
O5B_3 O 0.8497(12) -0.2941(13) 0.4254(5)
O5K O 0.8497(12) -0.2941(13) 0.5746(5)
O5I O 0.7059(13) 0.1503(12) 0.5746(5)
O5H O 1.2941(13) -0.1503(12) 0.5746(5)
O6C O -0.0124(13) 0.3470(13) 0.3833(5)
O6A O 0.3470(13) 1.0124(13) 0.3833(5)
O6B O 1.0124(13) 0.6530(13) 0.3833(5)
O6A_2 O 1.3470(13) 0.0124(13) 0.3833(5)
O6B_2 O 2.0124(13) -0.3470(13) 0.3833(5)
O6_2 O 1.6530(13) -1.0124(13) 0.3833(5)
O6C_2 O 0.9876(13) -0.6530(13) 0.3833(5)
C3C C 0.1781(17) 0.330(2) 0.3427(7)
C3A C 0.330(2) 0.8219(17) 0.3427(7)
C3B C 0.8219(17) 0.670(2) 0.3427(7)
C3A_2 C 1.330(2) -0.1781(17) 0.3427(7)
C3B_2 C 1.8219(17) -0.330(2) 0.3427(7)
C3_2 C 1.670(2) -0.8219(17) 0.3427(7)
C3C_2 C 1.1781(17) -0.670(2) 0.3427(7)
C4C C 0.3073(19) 0.398(2) 0.2754(8)
C4A C 0.398(2) 0.6927(19) 0.2754(8)
C4B C 0.6927(19) 0.602(2) 0.2754(8)
C4A_2 C 1.398(2) -0.3073(19) 0.2754(8)
C4B_2 C 1.6927(19) -0.398(2) 0.2754(8)
C4_2 C 1.602(2) -0.6927(19) 0.2754(8)
C4C_2 C 1.3073(19) -0.602(2) 0.2754(8)
C5C C 0.1639(18) 0.4384(18) 0.3272(8)
C5A C 0.4384(18) 0.8361(18) 0.3272(8)
C5B C 0.8361(18) 0.5616(18) 0.3272(8)
C5A_2 C 1.4384(18) -0.1639(18) 0.3272(8)
C5B_2 C 1.8361(18) -0.4384(18) 0.3272(8)
C5_2 C 1.5616(18) -0.8361(18) 0.3272(8)
C5C_2 C 1.1639(18) -0.5616(18) 0.3272(8)
H3B H 0.8877 0.5128 0.3392
H3A H 0.4872 0.8877 0.3392
H3C H 0.1123 0.4872 0.3392
H3A_2 H 1.4872 -0.1123 0.3392
H3C_2 H 1.1123 -0.5128 0.3392
H3_2 H 1.5128 -0.8877 0.3392
H3B_2 H 1.8877 -0.4872 0.3392
O7_2 O 0.0000 0.0000 0.5000
C6C C 0.2084(18) 0.5873(17) 0.2745(7)
C6A C 0.5873(17) 0.7916(18) 0.2745(7)
C6B C 0.7916(18) 0.4127(17) 0.2745(7)
C6A_2 C 1.5873(17) -0.2084(18) 0.2745(7)
C6B_2 C 1.7916(18) -0.5873(17) 0.2745(7)
C6_2 C 1.4127(17) -0.7916(18) 0.2745(7)
C6C_2 C 1.2084(18) -0.4127(17) 0.2745(7)
H4C H 0.1325 0.6089 0.2816
H4A H 0.6089 0.8675 0.2816
H4B H 0.8675 0.3911 0.2816
H4A_2 H 1.6089 -0.1325 0.2816
H4B_2 H 1.8675 -0.6089 0.2816
H4_2 H 1.3911 -0.8675 0.2816
H4C_2 H 1.1325 -0.3911 0.2816
H5C H 0.2145 0.5852 0.2437
H5A H 0.5852 0.7855 0.2437
H5B H 0.7855 0.4148 0.2437
H5A_2 H 1.5852 -0.2145 0.2437
H5B_2 H 1.7855 -0.5852 0.2437
H5_2 H 1.4148 -0.7855 0.2437
H5C_2 H 1.2145 -0.4148 0.2437
C7C C 0.3223(18) 0.292(2) 0.2926(8)
C7A C 0.292(2) 0.6777(18) 0.2926(8)
C7B C 0.6777(18) 0.708(2) 0.2926(8)
C7A_2 C 1.292(2) -0.3223(18) 0.2926(8)
C7B_2 C 1.6777(18) -0.292(2) 0.2926(8)
C7_2 C 1.708(2) -0.6777(18) 0.2926(8)
C7C_2 C 1.3223(18) -0.708(2) 0.2926(8)
O9A O 0.925(3) -0.404(2) 0.5000
O9B O 0.596(2) 0.075(3) 0.5000
O9C O 1.404(2) -0.075(3) 0.5000
H7I H 1.3643 0.2500 0.5234
H7A H 0.6357 -0.2500 0.4766
H7H H 0.6357 -0.2500 0.5234
H7B H 0.7500 0.3643 0.4766
H7K H 0.7500 0.3643 0.5234
H7C H 1.2500 -0.3643 0.4766
H7J H 1.2500 -0.3643 0.5234
H9I H 1.0194 0.4426 0.4802
H9A H 0.9806 -0.4426 0.5198
H9H H 0.9806 -0.4426 0.4802
H9B H 0.5574 0.0194 0.5198
H9K H 0.5574 0.0194 0.4802
H9C H 1.4426 -0.0194 0.5198
H9J H 1.4426 -0.0194 0.4802
O8 O 0.8244(17) 0.4465(14) 0.4341(6)
H6 H 0.8196 0.4131 0.4626
H8 H 0.9009 0.4529 0.4181
loop_
_geom_bond_atom_site_label_1
_geom_bond_atom_site_label_2
_geom_bond_site_symmetry_1
_geom_bond_site_symmetry_2
Nd1 O1 1_555 1_555
Nd2 O1 1_555 1_555
S1 O4 1_555 1_555
O1 Nd2C 1_555 1_555
C1 H1 1_555 1_555
O2 Nd2 1_555 1_555
O3 H2 1_555 1_555
O4 Nd1 1_555 1_555
C2 C4 1_555 1_555
O5 S1 1_555 1_555
O6 S1 1_555 1_555
C3 S1 1_555 1_555
C4 O3 1_555 1_555
C5 C2 1_555 1_555
H3 C5 1_555 1_555
O7 Nd1 1_555 1_555
C6 C2 1_555 1_555
H4 C6 1_555 1_555
H5 C6 1_555 1_555
C7 C1 1_555 1_555
O8 H6 1_555 1_555
O9 Nd2 1_555 1_555
H7 O2 1_555 1_555
H8 O8 1_555 1_555
H9 O9 1_555 1_555
Nd1_2 O1C_2 1_555 1_555
Nd1H O7 1_555 1_555
Nd1_3 O4A 1_555 1_555
Nd1_4 O4B 1_555 1_555
Nd1_5 O4B_2 1_555 1_555
Nd1_6 O4_2 1_555 1_555
Nd1_7 O4C_2 1_555 1_555
Nd2A O7 1_555 1_555
Nd2B O5 1_555 1_555
Nd2C O7 1_555 1_555
Nd2_2 O1B_2 1_555 1_555
Nd2C_2 O5A 1_555 1_555
Nd2A_2 O5B 1_555 1_555
Nd2A_3 O5B_2 1_555 1_555
Nd2B_2 O5_2 1_555 1_555
Nd2_3 O5C_2 1_555 1_555
Nd2C_3 O1C_2 1_555 1_555
Nd2A_4 O1C_2 1_555 1_555
Nd2B_3 O1B_2 1_555 1_555
S1C O4C 1_555 1_555
S1A O4A 1_555 1_555
S1B O4B 1_555 1_555
S1A_2 O4A_2 1_555 1_555
S1B_2 O4B_2 1_555 1_555
S1_2 O4_2 1_555 1_555
S1C_2 O4C_2 1_555 1_555
O1A Nd1 1_555 1_555
O1B Nd1 1_555 1_555
O1C Nd1 1_555 1_555
O1I Nd2 1_555 1_555
O1K Nd2 1_555 1_555
O1B_2 Nd1_2 1_555 1_555
O1_2 Nd1_2 1_555 1_555
O1A_2 Nd1_2 1_555 1_555
O1H Nd1H 1_555 1_555
O1J Nd1H 1_555 1_555
C1C H1C 1_555 1_555
C1A H1A 1_555 1_555
C1B H1B 1_555 1_555
C1A_2 H1A_2 1_555 1_555
C1B_2 H1B_2 1_555 1_555
C1_2 H1_2 1_555 1_555
C1C_2 H1C_2 1_555 1_555
O2A Nd2A 1_555 1_555
O2B Nd2B 1_555 1_555
O2C Nd2C 1_555 1_555
O3C H2C 1_555 1_555
O3A H2A 1_555 1_555
O3B H2B 1_555 1_555
O3A_2 H2A_2 1_555 1_555
O3B_2 H2B_2 1_555 1_555
O3_2 H2_2 1_555 1_555
O3C_2 H2C_2 1_555 1_555
O4C Nd1_2 1_555 1_555
O4A_2 Nd1 1_555 1_555
O4B_3 Nd1 1_555 1_555
O4C_3 Nd1 1_555 1_555
O4B_4 Nd1_2 1_555 1_555
O4_3 Nd1_2 1_555 1_555
O4A_3 Nd1_2 1_555 1_555
C2C C4C 1_555 1_555
C2A C4A 1_555 1_555
C2B C4B 1_555 1_555
C2A_2 C4A_2 1_555 1_555
C2B_2 C4B_2 1_555 1_555
C2_2 C4_2 1_555 1_555
C2C_2 C4C_2 1_555 1_555
O5C Nd2_2 1_555 1_555
O5A S1A 1_555 1_555
O5B S1B 1_555 1_555
O5A_2 Nd2C 1_555 1_555
O5B_2 S1B_2 1_555 1_555
O5_2 S1_2 1_555 1_555
O5C_2 S1C_2 1_555 1_555
O5C_3 Nd2 1_555 1_555
O5J Nd2 1_555 1_555
O5B_3 Nd2A 1_555 1_555
O5K Nd2A 1_555 1_555
O5I Nd2B 1_555 1_555
O5H Nd2C 1_555 1_555
O6C S1C 1_555 1_555
O6A S1A 1_555 1_555
O6B S1B 1_555 1_555
O6A_2 S1A_2 1_555 1_555
O6B_2 S1B_2 1_555 1_555
O6_2 S1_2 1_555 1_555
O6C_2 S1C_2 1_555 1_555
C3C S1C 1_555 1_555
C3A S1A 1_555 1_555
C3B S1B 1_555 1_555
C3A_2 S1A_2 1_555 1_555
C3B_2 S1B_2 1_555 1_555
C3_2 S1_2 1_555 1_555
C3C_2 S1C_2 1_555 1_555
C4C O3C 1_555 1_555
C4A O3A 1_555 1_555
C4B O3B 1_555 1_555
C4A_2 O3A_2 1_555 1_555
C4B_2 O3B_2 1_555 1_555
C4_2 O3_2 1_555 1_555
C4C_2 O3C_2 1_555 1_555
C5C C2C 1_555 1_555
C5A C2A 1_555 1_555
C5B C2B 1_555 1_555
C5A_2 C2A_2 1_555 1_555
C5B_2 C2B_2 1_555 1_555
C5_2 C2_2 1_555 1_555
C5C_2 C2C_2 1_555 1_555
H3B C5B 1_555 1_555
H3A C5A 1_555 1_555
H3C C5C 1_555 1_555
H3A_2 C5A_2 1_555 1_555
H3C_2 C5C_2 1_555 1_555
H3_2 C5_2 1_555 1_555
H3B_2 C5B_2 1_555 1_555
O7_2 Nd1_2 1_555 1_555
C6C C2C 1_555 1_555
C6A C2A 1_555 1_555
C6B C7 1_555 1_555
C6A_2 C2A_2 1_555 1_555
C6B_2 C2B_2 1_555 1_555
C6_2 C2_2 1_555 1_555
C6C_2 C2C_2 1_555 1_555
H4C C6C 1_555 1_555
H4A C6A 1_555 1_555
H4B C6B 1_555 1_555
H4A_2 C6A_2 1_555 1_555
H4B_2 C6B_2 1_555 1_555
H4_2 C6_2 1_555 1_555
H4C_2 C6C_2 1_555 1_555
H5C C6C 1_555 1_555
H5A C6A 1_555 1_555
H5B C6B 1_555 1_555
H5A_2 C6A_2 1_555 1_555
H5B_2 C6B_2 1_555 1_555
H5_2 C6_2 1_555 1_555
H5C_2 C6C_2 1_555 1_555
C7C C6 1_555 1_555
C7A C1A 1_555 1_555
C7B C1B 1_555 1_555
C7A_2 C1A_2 1_555 1_555
C7B_2 C1B_2 1_555 1_555
C7_2 C1_2 1_555 1_555
C7C_2 C1C_2 1_555 1_555
O9A Nd2A 1_555 1_555
O9B Nd2B 1_555 1_555
O9C Nd2C 1_555 1_555
H7I O2 1_555 1_555
H7A O2A 1_555 1_555
H7H O2A 1_555 1_555
H7B O2B 1_555 1_555
H7K O2B 1_555 1_555
H7C O2C 1_555 1_555
H7J O2C 1_555 1_555
H9I O9 1_555 1_555
H9A O9A 1_555 1_555
H9H O9A 1_555 1_555
H9B O9B 1_555 1_555
H9K O9B 1_555 1_555
H9C O9C 1_555 1_555
H9J O9C 1_555 1_555
Nd2 O7 1_555 1_555
Nd2 O1B 1_555 1_555
C1 C3 1_555 1_555
C3 C5 1_555 1_555
C4 C7 1_555 1_555
O7 Nd2B 1_555 1_555
Nd1H O1I 1_555 1_555
Nd1H O1K 1_555 1_555
Nd2A O1A 1_555 1_555
Nd2A O1C 1_555 1_555
Nd2A O1H 1_555 1_555
Nd2A O1J 1_555 1_555
Nd2B O1A 1_555 1_555
Nd2B O1B 1_555 1_555
Nd2B O1K 1_555 1_555
Nd2B O1H 1_555 1_555
Nd2C O1C 1_555 1_555
Nd2C O1I 1_555 1_555
Nd2C O1J 1_555 1_555
Nd2_2 O1_2 1_555 1_555
Nd2_2 O7_2 1_555 1_555
Nd2C_3 O1_2 1_555 1_555
Nd2C_3 O7_2 1_555 1_555
Nd2A_4 O1A_2 1_555 1_555
Nd2A_4 O7_2 1_555 1_555
Nd2B_3 O1A_2 1_555 1_555
Nd2B_3 O7_2 1_555 1_555
S1C O5C 1_555 1_555
S1A_2 O5A_2 1_555 1_555
C1C C3C 1_555 1_555
C1C C7C 1_555 1_555
C1A C3A 1_555 1_555
C1B C3B 1_555 1_555
C1A_2 C3A_2 1_555 1_555
C1B_2 C3B_2 1_555 1_555
C1_2 C3_2 1_555 1_555
C1C_2 C3C_2 1_555 1_555
C2B C6B 1_555 1_555
C3C C5C 1_555 1_555
C3A C5A 1_555 1_555
C3B C5B 1_555 1_555
C3A_2 C5A_2 1_555 1_555
C3B_2 C5B_2 1_555 1_555
C3_2 C5_2 1_555 1_555
C3C_2 C5C_2 1_555 1_555
C4C C7C 1_555 1_555
C4A C7A 1_555 1_555
C4B C7B 1_555 1_555
C4A_2 C7A_2 1_555 1_555
C4B_2 C7B_2 1_555 1_555
C4_2 C7_2 1_555 1_555
C4C_2 C7C_2 1_555 1_555
C6C C7A 1_555 1_555
C6A C7B 1_555 1_555
C6A_2 C7B_2 1_555 1_555
C6B_2 C7_2 1_555 1_555
C6_2 C7C_2 1_555 1_555
C6C_2 C7A_2 1_555 1_555

#END
