
#######################################################################
#
#                 Cambridge Crystallographic Data Centre
#                                CCDC 
#
#######################################################################
#
# If this CIF has been generated from an entry in the Cambridge 
# Structural Database, then it will include bibliographic, chemical, 
# crystal, experimental, refinement or atomic coordinate data resulting 
# from the CCDC's data processing and validation procedures.
#
#######################################################################

data_QUSFUG
_symmetry_cell_setting           triclinic
_symmetry_space_group_name_H-M   'P -1'
_symmetry_Int_Tables_number      2
_space_group_name_Hall           '-P 1'
loop_
_symmetry_equiv_pos_site_id
_symmetry_equiv_pos_as_xyz
1 x,y,z
2 -x,-y,-z
_cell_length_a                   6.969(2)
_cell_length_b                   11.618(3)
_cell_length_c                   12.600(4)
_cell_angle_alpha                80.152(9)
_cell_angle_beta                 82.203(9)
_cell_angle_gamma                74.394(8)
_cell_volume                     963.752
loop_
_atom_site_label
_atom_site_type_symbol
_atom_site_fract_x
_atom_site_fract_y
_atom_site_fract_z
Pt1 Pt 0.29567(3) 0.533806(16) 0.374536(12)
Na1 Na 0.2045(3) -0.02193(19) 0.90626(16)
Na2 Na 0.5793(3) 0.33877(19) 0.05906(16)
O1 O -0.3420(6) 1.0135(3) 0.6230(3)
O2 O -0.1916(5) 0.8970(3) 0.7651(2)
O3 O 0.1063(5) 0.3446(3) 0.9230(2)
O4 O 0.2841(6) 0.1652(3) 0.8799(2)
O5 O 0.5264(5) -0.1575(3) 0.9322(2)
O6 O 0.0956(5) -0.2158(3) 0.9115(2)
O7 O 0.2871(5) -0.0503(3) 0.7194(2)
O8 O -0.1484(5) 0.0573(3) 0.8972(2)
O9 O 0.2729(5) 0.4881(3) 0.0169(3)
N1 N 0.1366(6) 0.6710(3) 0.4583(3)
N2 N 0.2794(6) 0.4398(3) 0.5271(3)
N3 N 0.5332(8) 0.3124(4) 0.2655(3)
N4 N 0.3252(7) 0.6827(4) 0.1461(3)
C1 C 0.0589(8) 0.7868(4) 0.4172(4)
C2 C -0.0563(7) 0.8699(4) 0.4812(3)
C3 C -0.0907(7) 0.8372(4) 0.5921(3)
C4 C -0.0092(8) 0.7180(4) 0.6345(3)
C5 C 0.0987(7) 0.6372(4) 0.5676(3)
C6 C 0.1801(7) 0.5075(4) 0.6053(3)
C7 C 0.1555(7) 0.4552(4) 0.7131(4)
C8 C 0.2366(7) 0.3336(4) 0.7406(3)
C9 C 0.3440(7) 0.2655(4) 0.6618(4)
C10 C 0.3627(7) 0.3205(4) 0.5557(3)
C11 C -0.2183(8) 0.9243(4) 0.6651(4)
C12 C 0.2083(7) 0.2751(4) 0.8586(3)
C13 C 0.4430(8) 0.3948(4) 0.3049(3)
C14 C 0.3106(8) 0.6297(4) 0.2315(4)
H1 H 0.0837 0.8114 0.3436
H2 H -0.1115 0.9484 0.4499
H3 H -0.0279 0.6930 0.7085
H4 H 0.0852 0.5020 0.7656
H5 H 0.4029 0.1838 0.6800
H6 H 0.4341 0.2745 0.5029
Na1A Na -0.2045(3) 0.02193(19) 1.09374(16)
Na2A Na 0.4207(3) -0.33877(19) 0.94094(16)
Na2A_2 Na 0.4207(3) 0.66123(19) -0.05906(16)
O5A O 0.4736(5) 0.1575(3) 0.0678(2)
O6A O 0.9044(5) 0.2158(3) 0.0885(2)
O8A O 0.1484(5) -0.0573(3) 1.1028(2)
O9A O 0.7271(5) 0.5119(3) -0.0169(3)
N4A N 0.6748(7) 0.3173(4) -0.1461(3)
loop_
_geom_bond_atom_site_label_1
_geom_bond_atom_site_label_2
_geom_bond_site_symmetry_1
_geom_bond_site_symmetry_2
Pt1 N1 1_555 1_555
Na1 O4 1_555 1_555
Na2 O9 1_555 1_555
O1 C11 1_555 1_555
O2 C11 1_555 1_555
O3 C12 1_555 1_555
O4 C12 1_555 1_555
O5 Na1 1_555 1_555
O6 Na1 1_555 1_555
O7 Na1 1_555 1_555
O8 Na1 1_555 1_555
O9 Na2A_2 1_555 1_555
N1 C1 1_555 1_555
N2 Pt1 1_555 1_555
N3 Na2 1_555 1_555
N4 C14 1_555 1_555
C1 C2 1_555 1_555
C2 C3 1_555 1_555
C3 C4 1_555 1_555
C4 C5 1_555 1_555
C5 N1 1_555 1_555
C6 N2 1_555 1_555
C7 C6 1_555 1_555
C8 C7 1_555 1_555
C9 C8 1_555 1_555
C10 N2 1_555 1_555
C11 C3 1_555 1_555
C12 C8 1_555 1_555
C13 Pt1 1_555 1_555
C14 Pt1 1_555 1_555
H1 C1 1_555 1_555
H2 C2 1_555 1_555
H3 C4 1_555 1_555
H4 C7 1_555 1_555
H5 C9 1_555 1_555
H6 C10 1_555 1_555
Na1A O8 1_555 1_555
Na2A O5 1_555 1_555
Na2A_2 N4 1_555 1_555
O5A Na2 1_555 1_555
O6A Na2 1_555 1_555
O8A Na1 1_555 1_555
O9A Na2 1_555 1_555
N4A Na2 1_555 1_555
O6 Na2A 1_555 1_555
N3 C13 1_555 1_555
C5 C6 1_555 1_555
C9 C10 1_555 1_555
Na1A O8A 1_555 1_555
Na2A_2 O9A 1_555 1_555

#END
