
#######################################################################
#
#                 Cambridge Crystallographic Data Centre
#                                CCDC 
#
#######################################################################
#
# If this CIF has been generated from an entry in the Cambridge 
# Structural Database, then it will include bibliographic, chemical, 
# crystal, experimental, refinement or atomic coordinate data resulting 
# from the CCDC's data processing and validation procedures.
#
#######################################################################

data_QUSSAZ
_symmetry_cell_setting           monoclinic
_symmetry_space_group_name_H-M   'P 21/n'
_symmetry_Int_Tables_number      14
_space_group_name_Hall           '-P 2yn'
loop_
_symmetry_equiv_pos_site_id
_symmetry_equiv_pos_as_xyz
1 x,y,z
2 1/2-x,1/2+y,1/2-z
3 -x,-y,-z
4 1/2+x,1/2-y,1/2+z
_cell_length_a                   12.056(2)
_cell_length_b                   7.2646(15)
_cell_length_c                   18.356(4)
_cell_angle_alpha                90
_cell_angle_beta                 96.83(3)
_cell_angle_gamma                90
_cell_volume                     1596.25
loop_
_atom_site_label
_atom_site_type_symbol
_atom_site_fract_x
_atom_site_fract_y
_atom_site_fract_z
Tb1 Tb 0.69805(4) 0.77592(6) 0.63248(3)
O1 O 0.8461(6) 0.7790(9) 0.5619(4)
O2 O 1.0138(7) 0.8082(10) 0.6287(4)
O3 O 1.3563(6) 0.7356(9) 0.5089(4)
O4 O 1.3437(7) 0.4898(9) 0.4365(5)
O5 O 1.2013(7) 0.4597(9) 0.3041(4)
O6 O 1.1432(6) 0.7298(9) 0.2578(4)
O7 O 0.8558(7) 0.9019(9) 0.7104(4)
H1 H 0.8482 0.9383 0.7532
H2 H 0.9185 0.9094 0.6946
O8 O 0.6476(7) 1.0868(9) 0.6543(4)
H3 H 0.5804 1.1136 0.6575
H4 H 0.6969 1.1697 0.6588
O9 O 0.5015(6) 0.7105(9) 0.6314(4)
H5 H 0.4694 0.7335 0.6689
H6 H 0.4650 0.6635 0.5938
O10 O 0.6189(6) 0.8982(9) 0.5188(4)
H7 H 0.5495 0.8901 0.5062
H8 H 0.6601 0.9493 0.4907
N1 N 1.0082(8) 0.7222(11) 0.3708(5)
C1 C 0.9529(9) 0.7602(13) 0.4305(6)
C2 C 1.0089(9) 0.7528(13) 0.5010(6)
C3 C 1.1225(9) 0.7127(13) 0.5100(6)
H9 H 1.1627 0.7152 0.5578
C4 C 1.1780(10) 0.6689(14) 0.4502(6)
C5 C 1.1147(10) 0.6691(13) 0.3808(6)
C6 C 0.8327(10) 0.8141(16) 0.4112(8)
H10 H 0.8203 0.8522 0.3597
H11 H 0.8148 0.9165 0.4425
H12 H 0.7846 0.7087 0.4188
C7 C 0.9530(10) 0.7823(13) 0.5672(6)
C8 C 1.3032(10) 0.6286(14) 0.4646(6)
C9 C 1.1592(9) 0.6182(13) 0.3088(6)
Tb1B Tb 1.30195(4) 0.22408(6) 0.36752(3)
Tb1C Tb 1.19805(4) 0.72408(6) 0.13248(3)
O4B O 0.6563(7) 0.5102(9) 0.5635(5)
O5B O 0.7987(7) 0.5403(9) 0.6959(4)
O6C O 0.6432(6) 0.7702(9) 0.7578(4)
O11 O 0.6264(6) 0.1559(10) 0.2647(4)
H13 H 0.5786 0.1881 0.2294
H14 H 0.6483 0.0457 0.2642
O12 O 0.6517(7) 0.7708(10) 0.2561(4)
H15 H 0.7117 0.7205 0.2752
H16 H 0.6367 0.7643 0.2098
O13 O 0.5420(7) 0.7135(9) 0.3844(5)
H17 H 0.5229 0.6052 0.3943
H18 H 0.5758 0.7238 0.3464
loop_
_geom_bond_atom_site_label_1
_geom_bond_atom_site_label_2
_geom_bond_site_symmetry_1
_geom_bond_site_symmetry_2
Tb1 O1 1_555 1_555
O1 C7 1_555 1_555
O2 C7 1_555 1_555
O3 C8 1_555 1_555
O4 C8 1_555 1_555
O5 C9 1_555 1_555
O6 C9 1_555 1_555
O7 Tb1 1_555 1_555
H1 O7 1_555 1_555
H2 O7 1_555 1_555
O8 Tb1 1_555 1_555
H3 O8 1_555 1_555
H4 O8 1_555 1_555
O9 Tb1 1_555 1_555
H5 O9 1_555 1_555
H6 O9 1_555 1_555
O10 Tb1 1_555 1_555
H7 O10 1_555 1_555
H8 O10 1_555 1_555
N1 C1 1_555 1_555
C1 C2 1_555 1_555
C2 C3 1_555 1_555
C3 H9 1_555 1_555
C4 C3 1_555 1_555
C5 N1 1_555 1_555
C6 C1 1_555 1_555
H10 C6 1_555 1_555
H11 C6 1_555 1_555
H12 C6 1_555 1_555
C7 C2 1_555 1_555
C8 C4 1_555 1_555
C9 C5 1_555 1_555
O11 H13 1_555 1_555
H14 O11 1_555 1_555
O12 H15 1_555 1_555
H16 O12 1_555 1_555
O13 H17 1_555 1_555
H18 O13 1_555 1_555
Tb1B O4 1_555 1_555
Tb1C O6 1_555 1_555
O4B Tb1 1_555 1_555
O5B Tb1 1_555 1_555
O6C Tb1 1_555 1_555
O5 Tb1B 1_555 1_555
C4 C5 1_555 1_555

#END
