
#######################################################################
#
#                 Cambridge Crystallographic Data Centre
#                                CCDC 
#
#######################################################################
#
# If this CIF has been generated from an entry in the Cambridge 
# Structural Database, then it will include bibliographic, chemical, 
# crystal, experimental, refinement or atomic coordinate data resulting 
# from the CCDC's data processing and validation procedures.
#
#######################################################################

data_QUSVOQ
_symmetry_cell_setting           triclinic
_symmetry_space_group_name_H-M   'P -1'
_symmetry_Int_Tables_number      2
_space_group_name_Hall           '-P 1'
loop_
_symmetry_equiv_pos_site_id
_symmetry_equiv_pos_as_xyz
1 x,y,z
2 -x,-y,-z
_cell_length_a                   7.839(3)
_cell_length_b                   10.710(3)
_cell_length_c                   10.935(6)
_cell_angle_alpha                100.064(7)
_cell_angle_beta                 110.271(6)
_cell_angle_gamma                97.693(7)
_cell_volume                     828.948
loop_
_atom_site_label
_atom_site_type_symbol
_atom_site_fract_x
_atom_site_fract_y
_atom_site_fract_z
Co1 Co -0.46282(13) -0.63370(9) 0.03398(10)
Co2 Co -0.81958(13) -0.51937(9) 0.12132(10)
O1 O -0.6169(7) -0.7804(5) 0.0699(5)
O2 O -0.7400(7) -0.6711(4) 0.2011(5)
O3 O -0.7264(7) -1.2555(4) -0.0209(5)
O4 O -0.9373(6) -1.3658(4) 0.0396(5)
O5 O -1.1660(7) -1.0269(5) 0.2730(5)
O6 O -1.3519(7) -0.6339(5) 0.6963(5)
O7 O -1.0652(7) -0.5390(4) 0.7366(5)
O8 O -0.3278(7) -0.4730(4) -0.0031(5)
C1 C -0.7136(9) -0.7728(7) 0.1409(7)
C2 C -0.8040(9) -0.9007(7) 0.1548(7)
C3 C -0.7712(9) -1.0172(6) 0.0990(7)
H1 H -0.6854 -1.0171 0.0579
C4 C -0.8662(10) -1.1342(7) 0.1045(7)
C5 C -0.8406(9) -1.2601(7) 0.0365(7)
C6 C -0.9914(9) -1.1339(7) 0.1697(7)
H2 H -1.0516 -1.2116 0.1769
C7 C -1.0249(10) -1.0180(7) 0.2229(7)
C8 C -0.9349(10) -0.9003(6) 0.2151(7)
H3 H -0.9612 -0.8227 0.2495
C9 C -1.1689(10) -0.9263(7) 0.3714(7)
C10 C -1.3427(10) -0.9180(8) 0.3741(8)
H4 H -1.4488 -0.9761 0.3117
C11 C -1.3559(11) -0.8225(8) 0.4703(8)
H5 H -1.4716 -0.8174 0.4740
C12 C -1.1976(9) -0.7331(7) 0.5627(7)
C13 C -1.0237(9) -0.7448(7) 0.5599(7)
H6 H -0.9173 -0.6868 0.6222
C14 C -1.0085(10) -0.8418(7) 0.4652(7)
H7 H -0.8924 -0.8504 0.4644
C15 C -1.2072(10) -0.6303(7) 0.6671(7)
O9 O -0.6040(7) -0.7168(5) -0.1839(5)
O10 O -0.2964(7) -0.5614(5) 0.2438(6)
H8 H -0.642(10) -0.800(7) -0.192(7)
H9 H -0.565(13) -0.692(9) -0.240(9)
H10 H -0.173(3) -0.548(6) 0.272(6)
H11 H -0.317(12) -0.545(8) 0.325(9)
H12 H -0.239(14) -0.439(10) 0.071(10)
Co1A Co -0.53718(13) -1.36630(9) -0.03398(10)
Co1A_2 Co -0.53718(13) -0.36630(9) -0.03398(10)
Co2_2 Co -0.81958(13) -1.51937(9) 0.12132(10)
Co2A Co -1.18042(13) -1.48063(9) -0.12132(10)
Co2A_2 Co -1.18042(13) -0.48063(9) 0.87868(10)
Co2A_3 Co -0.18042(13) -0.48063(9) -0.12132(10)
O3A O -0.2736(7) -0.7445(4) 0.0209(5)
O4_2 O -0.9373(6) -0.3658(4) 0.0396(5)
O4A O -1.0627(6) -0.6342(4) -0.0396(5)
O6A O -0.6481(7) -0.3661(5) 0.3037(5)
O7A O -0.9348(7) -0.4610(4) 0.2634(5)
O8A O -0.6722(7) -0.5270(4) 0.0031(5)
H12A H -0.761(14) -0.561(10) -0.071(10)
O11 O -0.6780(10) -0.5759(7) 0.5116(7)
H13 H -0.710(9) -0.588(6) 0.420(7)
H14 H -0.56(2) -0.584(13) 0.570(14)
loop_
_geom_bond_atom_site_label_1
_geom_bond_atom_site_label_2
_geom_bond_site_symmetry_1
_geom_bond_site_symmetry_2
Co1 O1 1_555 1_555
Co2 O2 1_555 1_555
O1 C1 1_555 1_555
O2 C1 1_555 1_555
O3 C5 1_555 1_555
O4 C5 1_555 1_555
O5 C7 1_555 1_555
O6 C15 1_555 1_555
O7 C15 1_555 1_555
O8 Co1 1_555 1_555
C1 C2 1_555 1_555
C2 C3 1_555 1_555
C3 H1 1_555 1_555
C4 C3 1_555 1_555
C5 C4 1_555 1_555
C6 C4 1_555 1_555
H2 C6 1_555 1_555
C7 C6 1_555 1_555
C8 C2 1_555 1_555
H3 C8 1_555 1_555
C9 O5 1_555 1_555
C10 C9 1_555 1_555
H4 C10 1_555 1_555
C11 C10 1_555 1_555
H5 C11 1_555 1_555
C12 C11 1_555 1_555
C13 C12 1_555 1_555
H6 C13 1_555 1_555
C14 C9 1_555 1_555
H7 C14 1_555 1_555
C15 C12 1_555 1_555
O9 Co1 1_555 1_555
O10 Co1 1_555 1_555
O11 H13 1_555 1_555
H8 O9 1_555 1_555
H9 O9 1_555 1_555
H10 O10 1_555 1_555
H11 O10 1_555 1_555
H12 O8 1_555 1_555
H14 O11 1_555 1_555
Co1A O3 1_555 1_555
Co1A_2 O8 1_555 1_555
Co2_2 O4 1_555 1_555
Co2A O4 1_555 1_555
Co2A_2 O6 1_555 1_555
Co2A_3 O8 1_555 1_555
O3A Co1 1_555 1_555
O4_2 Co2 1_555 1_555
O4A Co2 1_555 1_555
O6A Co2 1_555 1_555
O7A Co2 1_555 1_555
O8A Co1 1_555 1_555
H12A O8A 1_555 1_555
Co2 O8A 1_555 1_555
O7 Co2A_2 1_555 1_555
C7 C8 1_555 1_555
C13 C14 1_555 1_555
Co1A_2 O8A 1_555 1_555

#END
