
#######################################################################
#
#                 Cambridge Crystallographic Data Centre
#                                CCDC 
#
#######################################################################
#
# If this CIF has been generated from an entry in the Cambridge 
# Structural Database, then it will include bibliographic, chemical, 
# crystal, experimental, refinement or atomic coordinate data resulting 
# from the CCDC's data processing and validation procedures.
#
#######################################################################

data_QUTDAL
_symmetry_cell_setting           orthorhombic
_symmetry_space_group_name_H-M   'P 21 21 21'
_symmetry_Int_Tables_number      19
_space_group_name_Hall           'P 2ac 2ab'
loop_
_symmetry_equiv_pos_site_id
_symmetry_equiv_pos_as_xyz
1 x,y,z
2 1/2-x,-y,1/2+z
3 -x,1/2+y,1/2-z
4 1/2+x,1/2-y,-z
_cell_length_a                   6.7836(10)
_cell_length_b                   13.0845(19)
_cell_length_c                   13.2467(19)
_cell_angle_alpha                90
_cell_angle_beta                 90
_cell_angle_gamma                90
_cell_volume                     1175.78
loop_
_atom_site_label
_atom_site_type_symbol
_atom_site_fract_x
_atom_site_fract_y
_atom_site_fract_z
Fe1 Fe 0.44250(4) 1.11979(2) 0.984841(19)
C1 C 0.5837(3) 1.06866(15) 0.76375(15)
H1 H 0.5901 1.1392 0.7558
C2 C 0.6206(3) 1.00791(16) 0.68025(15)
H2 H 0.6541 1.0367 0.6184
C3 C 0.6062(3) 0.90345(15) 0.69171(14)
C4 C 0.5591(3) 0.86421(14) 0.78563(13)
H3 H 0.5468 0.7940 0.7945
C5 C 0.5304(3) 0.92999(14) 0.86659(14)
C6 C 0.4905(3) 0.89184(15) 0.96994(14)
C7 C 0.5086(3) 0.79050(14) 0.99533(14)
H4 H 0.5391 0.7427 0.9458
C8 C 0.4818(3) 0.75888(15) 1.09443(14)
C9 C 0.4303(3) 0.83290(15) 1.16493(14)
H5 H 0.4102 0.8151 1.2321
C10 C 0.4094(3) 0.93301(15) 1.13424(15)
H6 H 0.3720 0.9815 1.1818
C11 C 0.6427(3) 0.83170(14) 0.60489(14)
C12 C 0.5143(3) 0.64697(14) 1.12167(14)
H7 H 0.397(5) 1.190(2) 1.1730(15)
H8 H 0.251(3) 1.2182(19) 1.116(2)
H9 H 0.070(4) 1.1449(19) 0.921(2)
H10 H 0.086(4) 1.0476(15) 0.936(2)
N1 N 0.5395(3) 1.03190(12) 0.85497(12)
N2 N 0.4403(3) 0.96370(12) 1.03896(12)
O1 O 0.7646(2) 0.85499(11) 0.53958(10)
O2 O 0.5390(2) 0.75098(10) 0.60522(10)
O3 O 0.4975(3) 0.58537(11) 1.05125(12)
O4 O 0.5551(3) 0.62627(12) 1.21062(10)
O5 O 0.3649(3) 1.20354(14) 1.11476(12)
O6 O 0.1455(2) 1.10121(12) 0.93397(14)
Fe1A Fe 1.05750(4) 0.88021(2) 0.484841(19)
Fe1B Fe 0.55750(4) 0.61979(2) 0.515159(19)
O1A O 0.7354(2) 1.14501(11) 1.03958(10)
O2B O 0.4610(2) 1.25098(10) 0.89478(10)
loop_
_geom_bond_atom_site_label_1
_geom_bond_atom_site_label_2
_geom_bond_site_symmetry_1
_geom_bond_site_symmetry_2
Fe1 N1 1_555 1_555
C1 H1 1_555 1_555
C2 C1 1_555 1_555
H2 C2 1_555 1_555
C3 C2 1_555 1_555
C4 C3 1_555 1_555
H3 C4 1_555 1_555
C5 C4 1_555 1_555
C6 C5 1_555 1_555
C7 C6 1_555 1_555
H4 C7 1_555 1_555
C8 C7 1_555 1_555
C9 C8 1_555 1_555
H5 C9 1_555 1_555
C10 C9 1_555 1_555
H6 C10 1_555 1_555
C11 C3 1_555 1_555
C12 C8 1_555 1_555
H7 O5 1_555 1_555
H8 O5 1_555 1_555
H9 O6 1_555 1_555
H10 O6 1_555 1_555
N1 C1 1_555 1_555
N2 Fe1 1_555 1_555
O1 C11 1_555 1_555
O2 C11 1_555 1_555
O3 C12 1_555 1_555
O4 C12 1_555 1_555
O5 Fe1 1_555 1_555
O6 Fe1 1_555 1_555
Fe1A O1 1_555 1_555
Fe1B O2 1_555 1_555
O1A Fe1 1_555 1_555
O2B Fe1 1_555 1_555
C5 N1 1_555 1_555
C6 N2 1_555 1_555
C10 N2 1_555 1_555

#END
