
#######################################################################
#
#                 Cambridge Crystallographic Data Centre
#                                CCDC 
#
#######################################################################
#
# If this CIF has been generated from an entry in the Cambridge 
# Structural Database, then it will include bibliographic, chemical, 
# crystal, experimental, refinement or atomic coordinate data resulting 
# from the CCDC's data processing and validation procedures.
#
#######################################################################

data_QUTGUI
_symmetry_cell_setting           orthorhombic
_symmetry_space_group_name_H-M   'P n a 21'
_symmetry_Int_Tables_number      33
_space_group_name_Hall           'P 2c -2n'
loop_
_symmetry_equiv_pos_site_id
_symmetry_equiv_pos_as_xyz
1 x,y,z
2 -x,-y,1/2+z
3 1/2+x,1/2-y,z
4 1/2-x,1/2+y,1/2+z
_cell_length_a                   7.487(4)
_cell_length_b                   11.314(6)
_cell_length_c                   13.166(7)
_cell_angle_alpha                90
_cell_angle_beta                 90
_cell_angle_gamma                90
_cell_volume                     1115.26
loop_
_atom_site_label
_atom_site_type_symbol
_atom_site_fract_x
_atom_site_fract_y
_atom_site_fract_z
Mo1 Mo 0.16978(10) 1.26430(5) 0.87855(6)
Mo2 Mo 0.24447(10) 1.25924(6) 1.15855(6)
Mn1 Mn -0.01658(17) 1.00341(12) 0.77306(14)
O1 O 0.1524(8) 1.1595(6) 1.2690(5)
O2 O -0.0590(8) 1.3035(5) 0.8945(5)
O3 O -0.0416(9) 1.3072(5) 1.1544(6)
O4 O 0.1469(8) 1.1563(6) 0.7813(5)
N1 N 0.0647(11) 0.9867(6) 0.9391(6)
O5 O 0.2864(8) 1.3901(6) 1.2228(5)
O6 O 0.2636(9) 1.3871(6) 0.8180(5)
O7 O 0.2274(9) 1.3061(5) 1.0246(6)
N2 N 0.0858(10) 0.9818(7) 1.1057(6)
N3 N -0.0153(16) 0.7394(7) 0.9335(9)
C1 C 0.0506(12) 0.9203(7) 1.0224(8)
C2 C 0.0305(13) 0.7908(8) 1.0227(8)
N4 N 0.1119(10) 1.0939(6) 0.9737(6)
C3 C 0.0651(15) 0.7263(8) 1.1084(8)
H1 H 0.0938 0.7638 1.1691
C4 C 0.0119(15) 0.5507(8) 1.0185(11)
H2 H 0.0054 0.4687 1.0159
N5 N 0.1252(10) 1.0908(7) 1.0712(6)
C5 C -0.0255(15) 0.6198(9) 0.9324(9)
H3 H -0.0585 0.5821 0.8725
C6 C 0.0566(15) 0.6056(10) 1.1032(10)
H4 H 0.0830 0.5612 1.1607
Mo1B Mo -0.33022(10) 1.23570(5) 0.87855(6)
Mo2B Mo -0.25553(10) 1.24076(6) 1.15855(6)
Mn1A Mn 0.01658(17) 0.99659(12) 1.27306(14)
Mn1C Mn 0.51658(17) 1.50341(12) 1.27306(14)
Mn1B Mn 0.48342(17) 1.49659(12) 0.77306(14)
O1A O -0.1524(8) 0.8405(6) 0.7690(5)
O2B O 0.4410(8) 1.1965(5) 0.8945(5)
O3B O 0.4584(9) 1.1928(5) 1.1544(6)
O5C O 0.2136(8) 0.8901(6) 0.7228(5)
O6B O -0.2364(9) 1.1129(6) 0.8180(5)
N2A N -0.0858(10) 1.0182(7) 0.6057(6)
loop_
_geom_bond_atom_site_label_1
_geom_bond_atom_site_label_2
_geom_bond_site_symmetry_1
_geom_bond_site_symmetry_2
Mo1 O2 1_555 1_555
Mo2 O1 1_555 1_555
Mn1 O4 1_555 1_555
O1 Mn1A 1_555 1_555
O2 Mo1B 1_555 1_555
O3 Mo2 1_555 1_555
O4 Mo1 1_555 1_555
N1 Mn1 1_555 1_555
O5 Mo2 1_555 1_555
O6 Mo1 1_555 1_555
O7 Mo1 1_555 1_555
N2 C1 1_555 1_555
N3 C2 1_555 1_555
C1 N1 1_555 1_555
C2 C1 1_555 1_555
N4 Mo1 1_555 1_555
C3 C2 1_555 1_555
H1 C3 1_555 1_555
C4 H2 1_555 1_555
N5 Mo2 1_555 1_555
C5 N3 1_555 1_555
H3 C5 1_555 1_555
C6 C3 1_555 1_555
H4 C6 1_555 1_555
Mo1B O6B 1_555 1_555
Mo2B O3 1_555 1_555
Mn1A N2 1_555 1_555
Mn1C O5 1_555 1_555
Mn1B O6 1_555 1_555
O1A Mn1 1_555 1_555
O2B Mo1 1_555 1_555
O3B Mo2 1_555 1_555
O5C Mn1 1_555 1_555
O6B Mn1 1_555 1_555
N2A Mn1 1_555 1_555
Mo2 O7 1_555 1_555
N1 N4 1_555 1_555
N2 N5 1_555 1_555
N4 N5 1_555 1_555
C4 C5 1_555 1_555
C4 C6 1_555 1_555

#END
