
#######################################################################
#
#                 Cambridge Crystallographic Data Centre
#                                CCDC 
#
#######################################################################
#
# If this CIF has been generated from an entry in the Cambridge 
# Structural Database, then it will include bibliographic, chemical, 
# crystal, experimental, refinement or atomic coordinate data resulting 
# from the CCDC's data processing and validation procedures.
#
#######################################################################

data_QUTQIG
_symmetry_cell_setting           monoclinic
_symmetry_space_group_name_H-M   'P 21/n'
_symmetry_Int_Tables_number      14
_space_group_name_Hall           '-P 2yn'
loop_
_symmetry_equiv_pos_site_id
_symmetry_equiv_pos_as_xyz
1 x,y,z
2 1/2-x,1/2+y,1/2-z
3 -x,-y,-z
4 1/2+x,1/2-y,1/2+z
_cell_length_a                   10.784(3)
_cell_length_b                   8.1861(16)
_cell_length_c                   11.405(2)
_cell_angle_alpha                90
_cell_angle_beta                 90.63(2)
_cell_angle_gamma                90
_cell_volume                     1006.76
loop_
_atom_site_label
_atom_site_type_symbol
_atom_site_fract_x
_atom_site_fract_y
_atom_site_fract_z
Zn1 Zn 0.89543(8) 0.25729(9) 0.65283(8)
O1 O 0.8294(5) 0.0385(5) 0.6338(5)
O2 O 0.7350(5) -0.1915(6) 0.7258(5)
O3 O 0.6478(6) 0.0643(6) 0.7641(5)
O4 O 0.6263(6) -0.0449(6) 0.5738(5)
O5 O 0.6009(7) -0.0862(8) 0.3680(6)
H1 H 0.5290 -0.0711 0.3880
O6 O 0.8001(6) -0.1002(6) 0.4480(6)
O7 O 1.0000 0.0000 0.5000
O8 O 0.9139(6) -0.2328(5) 0.5999(6)
N1 N 1.0580(7) 0.2392(7) 0.7361(7)
H2 H 1.1186 0.2268 0.6832
H3 H 1.0729 0.3321 0.7761
N2 N 1.3617(7) 0.1234(8) 1.0013(7)
H4 H 1.3679 0.0151 1.0135
H5 H 1.4189 0.1520 0.9482
B1 B 0.7136(10) -0.0271(9) 0.6722(10)
B2 B 0.8901(10) -0.0718(10) 0.5416(10)
B3 B 0.8371(9) -0.2866(10) 0.6854(9)
B4 B 0.6780(11) -0.0767(10) 0.4648(11)
C1 C 1.0602(11) 0.0981(11) 0.8190(10)
H6 H 1.0234 0.0048 0.7794
H7 H 1.0076 0.1247 0.8848
C2 C 1.2341(10) 0.1627(13) 0.9537(11)
H8 H 1.2363 0.2706 0.9188
H9 H 1.1771 0.1670 1.0189
C3 C 1.1846(11) 0.0479(11) 0.8664(10)
H10 H 1.2424 0.0398 0.8020
H11 H 1.1777 -0.0594 0.9018
Zn1A Zn 0.60457(8) -0.24271(9) 0.84717(8)
Zn1C Zn 1.39543(8) 0.24271(9) 1.15283(8)
Zn1C_2 Zn 0.39543(8) 0.24271(9) 0.15283(8)
O1B O 1.1706(5) -0.0385(5) 0.3662(5)
O1A O 0.6706(5) -0.4615(5) 0.8662(5)
O2A O 0.7650(5) 0.3085(6) 0.7742(5)
O3A O 0.8522(6) -0.4357(6) 0.7359(5)
O6B O 1.1999(6) 0.1002(6) 0.5520(6)
O8A O 0.5861(6) 0.2672(5) 0.9001(6)
O8B O 1.0861(6) 0.2328(5) 0.4001(6)
N1C N 0.5580(7) 0.2608(7) 0.2361(7)
N1A N 0.4420(7) -0.2608(7) 0.7639(7)
H2C H 0.6186 0.2732 0.1832
H2A H 0.3814 -0.2732 0.8168
H3C H 0.5729 0.1679 0.2761
H3A H 0.4271 -0.1679 0.7239
N2C N 0.8617(7) 0.3766(8) 0.5013(7)
N2B N 0.6383(7) -0.1234(8) 0.9987(7)
H4C H 0.8679 0.4849 0.5135
H4B H 0.6321 -0.0151 0.9865
H5C H 0.9189 0.3480 0.4482
H5B H 0.5811 -0.1520 1.0518
B1A B 0.7864(10) -0.5271(9) 0.8278(10)
B2B B 1.1099(10) 0.0718(10) 0.4584(10)
B3A B 0.6629(9) 0.2134(10) 0.8146(9)
C1C C 0.5602(11) 0.4019(11) 0.3190(10)
H6C H 0.5234 0.4952 0.2794
H7C H 0.5076 0.3753 0.3848
C2C C 0.7341(10) 0.3373(13) 0.4537(11)
H8C H 0.7363 0.2294 0.4188
H9C H 0.6771 0.3330 0.5189
C3C C 0.6846(11) 0.4521(11) 0.3664(10)
H10C H 0.7424 0.4602 0.3020
H11C H 0.6777 0.5594 0.4018
loop_
_geom_bond_atom_site_label_1
_geom_bond_atom_site_label_2
_geom_bond_site_symmetry_1
_geom_bond_site_symmetry_2
Zn1 O1 1_555 1_555
O1 B1 1_555 1_555
O2 B1 1_555 1_555
O3 B1 1_555 1_555
O4 B1 1_555 1_555
O5 H1 1_555 1_555
O6 B2 1_555 1_555
O7 B2 1_555 1_555
O8 B2 1_555 1_555
N1 Zn1 1_555 1_555
H2 N1 1_555 1_555
H3 N1 1_555 1_555
N2 H4 1_555 1_555
H5 N2 1_555 1_555
B2 O1 1_555 1_555
B3 O2 1_555 1_555
B4 O4 1_555 1_555
C1 N1 1_555 1_555
H6 C1 1_555 1_555
H7 C1 1_555 1_555
C2 N2 1_555 1_555
H8 C2 1_555 1_555
H9 C2 1_555 1_555
C3 C1 1_555 1_555
H10 C3 1_555 1_555
H11 C3 1_555 1_555
Zn1A O2 1_555 1_555
Zn1C N2 1_555 1_555
Zn1C_2 N1C 1_555 1_555
O1B B2B 1_555 1_555
O1A Zn1A 1_555 1_555
O2A Zn1 1_555 1_555
O3A B3 1_555 1_555
O6B B2B 1_555 1_555
O8A B3A 1_555 1_555
O8B B2B 1_555 1_555
N1C H2C 1_555 1_555
N1A Zn1A 1_555 1_555
H2A N1A 1_555 1_555
H3C N1C 1_555 1_555
H3A N1A 1_555 1_555
N2C Zn1 1_555 1_555
N2B Zn1A 1_555 1_555
H4C N2C 1_555 1_555
H4B N2B 1_555 1_555
H5C N2C 1_555 1_555
H5B N2B 1_555 1_555
B1A O1A 1_555 1_555
B2B O7 1_555 1_555
B3A O3 1_555 1_555
C1C N1C 1_555 1_555
H6C C1C 1_555 1_555
H7C C1C 1_555 1_555
C2C N2C 1_555 1_555
H8C C2C 1_555 1_555
H9C C2C 1_555 1_555
C3C C1C 1_555 1_555
H10C C3C 1_555 1_555
H11C C3C 1_555 1_555
O5 B4 1_555 1_555
O6 B4 1_555 1_555
O8 B3 1_555 1_555
C2 C3 1_555 1_555
O2A B3A 1_555 1_555
O3A B1A 1_555 1_555
C2C C3C 1_555 1_555

#END
