
#######################################################################
#
#                 Cambridge Crystallographic Data Centre
#                                CCDC 
#
#######################################################################
#
# If this CIF has been generated from an entry in the Cambridge 
# Structural Database, then it will include bibliographic, chemical, 
# crystal, experimental, refinement or atomic coordinate data resulting 
# from the CCDC's data processing and validation procedures.
#
#######################################################################

data_QUTSUU
_symmetry_cell_setting           monoclinic
_symmetry_space_group_name_H-M   'P 2/n'
_symmetry_Int_Tables_number      13
_space_group_name_Hall           '-P 2yac'
loop_
_symmetry_equiv_pos_site_id
_symmetry_equiv_pos_as_xyz
1 x,y,z
2 1/2-x,y,1/2-z
3 -x,-y,-z
4 1/2+x,-y,1/2+z
_cell_length_a                   10.1354(11)
_cell_length_b                   11.4156(9)
_cell_length_c                   16.4322(16)
_cell_angle_alpha                90
_cell_angle_beta                 102.774(7)
_cell_angle_gamma                90
_cell_volume                     1854.18
loop_
_atom_site_label
_atom_site_type_symbol
_atom_site_fract_x
_atom_site_fract_y
_atom_site_fract_z
Co1 Co 0.7500 0.81802(7) 0.2500
Co2 Co 1.2500 0.74579(7) 0.2500
O1 O 1.3070(3) 0.7409(2) 0.13492(18)
O3 O 1.3493(5) 0.6160(5) 0.0383(3)
O5 O 1.0427(3) 0.7472(2) 0.20301(18)
O6 O 0.8440(3) 0.8290(2) 0.14807(19)
O7 O 0.5711(3) 0.8169(3) 0.1572(2)
H3 H 0.576(4) 0.821(4) 0.1054(14)
H4 H 0.493(3) 0.787(4) 0.161(3)
N1 N 0.7500 1.0090(4) 0.2500
N2 N 0.7500 1.6314(4) 0.2500
N3 N 1.2500 0.9357(4) 0.2500
N4 N 1.2500 1.5574(4) 0.2500
C1 C 0.6817(5) 1.0709(4) 0.1846(3)
H5 H 0.6323 1.0294 0.1375
C2 C 0.6797(5) 1.1915(4) 0.1824(3)
H6 H 0.6300 1.2309 0.1344
C3 C 0.7500 1.2556(5) 0.2500
C4 C 0.7500 1.3850(5) 0.2500
C5 C 0.7306(5) 1.4496(4) 0.1762(3)
H7 H 0.7177 1.4105 0.1240
C6 C 0.7303(5) 1.5699(4) 0.1792(3)
H8 H 0.7151 1.6117 0.1280
C7 C 1.3235(5) 0.9969(4) 0.2070(3)
H9 H 1.3772 0.9549 0.1762
C8 C 1.3261(4) 1.1182(4) 0.2044(3)
H10 H 1.3793 1.1573 0.1719
C9 C 1.2500 1.1825(5) 0.2500
C10 C 1.2500 1.3113(5) 0.2500
C11 C 1.3597(4) 1.3753(4) 0.2357(3)
H11 H 1.4374 1.3361 0.2259
C12 C 1.3550(4) 1.4964(4) 0.2359(3)
H12 H 1.4305 1.5383 0.2255
C13 C 0.9637(5) 0.8044(4) 0.1459(3)
C14 C 1.0163(5) 0.8431(4) 0.0706(3)
H13 H 1.1079 0.8766 0.0905
H14 H 0.9571 0.9064 0.0418
C15 C 1.0244(4) 0.7456(4) 0.0062(3)
C16 C 1.1208(5) 0.6449(4) 0.0439(3)
H15 H 1.0900 0.6130 0.0926
H16 H 1.1123 0.5816 0.0019
C17 C 1.2668(6) 0.6763(5) 0.0713(3)
C18 C 1.0715(6) 0.8017(4) -0.0656(3)
H17 H 1.1617 0.8354 -0.0453
H18 H 1.0081 0.8637 -0.0899
H19 H 1.0753 0.7424 -0.1081
C19 C 0.8848(5) 0.6933(4) -0.0257(3)
H20 H 0.8206 0.7558 -0.0478
H21 H 0.8556 0.6537 0.0202
H22 H 0.8882 0.6367 -0.0700
Co1_2 Co 0.7500 1.81802(7) 0.2500
Co2_2 Co 1.2500 1.74579(7) 0.2500
Co2_3 Co 0.2500 0.74579(7) 0.2500
O1A O 0.1930(3) 0.7409(2) 0.36508(18)
O1A_2 O 1.1930(3) 0.7409(2) 0.36508(18)
O3A O 0.1507(5) 0.6160(5) 0.4617(3)
O5A O 0.4573(3) 0.7472(2) 0.29699(18)
O5A_2 O 1.4573(3) 0.7472(2) 0.29699(18)
O6A O 0.6560(3) 0.8290(2) 0.35193(19)
O7A O 0.9289(3) 0.8169(3) 0.3428(2)
H3A H 0.924(4) 0.821(4) 0.3946(14)
H4A H 1.007(3) 0.787(4) 0.339(3)
N2_2 N 0.7500 0.6314(4) 0.2500
N4_2 N 1.2500 0.5574(4) 0.2500
C1A C 0.8183(5) 1.0709(4) 0.3154(3)
H5A H 0.8677 1.0294 0.3625
C2A C 0.8203(5) 1.1915(4) 0.3176(3)
H6A H 0.8700 1.2309 0.3656
C5A C 0.7694(5) 1.4496(4) 0.3238(3)
H7A H 0.7823 1.4105 0.3760
C6A C 0.7697(5) 1.5699(4) 0.3208(3)
H8A H 0.7849 1.6117 0.3720
C7A C 1.1765(5) 0.9969(4) 0.2930(3)
H9A H 1.1228 0.9549 0.3238
C8A C 1.1739(4) 1.1182(4) 0.2956(3)
H10A H 1.1207 1.1573 0.3281
C11A C 1.1403(4) 1.3753(4) 0.2643(3)
H11A H 1.0626 1.3361 0.2741
C12A C 1.1450(4) 1.4964(4) 0.2641(3)
H12A H 1.0695 1.5383 0.2745
C13A C 0.5363(5) 0.8044(4) 0.3541(3)
C14A C 0.4837(5) 0.8431(4) 0.4294(3)
H13A H 0.3921 0.8766 0.4095
H14A H 0.5429 0.9064 0.4582
C15A C 0.4756(4) 0.7456(4) 0.4938(3)
C16A C 0.3792(5) 0.6449(4) 0.4561(3)
H15A H 0.4100 0.6130 0.4074
H16A H 0.3877 0.5816 0.4981
C17A C 0.2332(6) 0.6763(5) 0.4287(3)
C18A C 0.4285(6) 0.8017(4) 0.5656(3)
H17A H 0.3383 0.8354 0.5453
H18A H 0.4919 0.8637 0.5899
H19A H 0.4247 0.7424 0.6081
C19A C 0.6152(5) 0.6933(4) 0.5257(3)
H20A H 0.6794 0.7558 0.5478
H21A H 0.6444 0.6537 0.4798
H22A H 0.6118 0.6367 0.5700
O2 O 0.6302(6) 0.8639(5) 0.0040(4)
O4 O 0.5649(7) 0.6318(6) -0.0353(4)
H1 H 0.488(6) 0.616(7) -0.010(5)
H2 H 0.569(9) 0.712(3) -0.011(5)
O8? O 0.4998(14) 0.8996(12) -0.0018(8)
loop_
_geom_bond_atom_site_label_1
_geom_bond_atom_site_label_2
_geom_bond_site_symmetry_1
_geom_bond_site_symmetry_2
Co1 O6 1_555 1_555
Co2 O1 1_555 1_555
O1 C17 1_555 1_555
O3 C17 1_555 1_555
O4 H1 1_555 1_555
H2 O4 1_555 1_555
O5 Co2 1_555 1_555
O6 C13 1_555 1_555
O7 Co1 1_555 1_555
H3 O7 1_555 1_555
H4 O7 1_555 1_555
N1 Co1 1_555 1_555
N2 C6 1_555 1_555
N3 Co2 1_555 1_555
N4 C12 1_555 1_555
C1 N1 1_555 1_555
H5 C1 1_555 1_555
C2 C1 1_555 1_555
H6 C2 1_555 1_555
C3 C2 1_555 1_555
C4 C3 1_555 1_555
C5 C4 1_555 1_555
H7 C5 1_555 1_555
C6 C5 1_555 1_555
H8 C6 1_555 1_555
C7 N3 1_555 1_555
H9 C7 1_555 1_555
C8 C7 1_555 1_555
H10 C8 1_555 1_555
C9 C8 1_555 1_555
C10 C9 1_555 1_555
C11 C10 1_555 1_555
H11 C11 1_555 1_555
C12 C11 1_555 1_555
H12 C12 1_555 1_555
C13 O5 1_555 1_555
C14 C13 1_555 1_555
H13 C14 1_555 1_555
H14 C14 1_555 1_555
C15 C14 1_555 1_555
C16 C15 1_555 1_555
H15 C16 1_555 1_555
H16 C16 1_555 1_555
C17 C16 1_555 1_555
C18 C15 1_555 1_555
H17 C18 1_555 1_555
H18 C18 1_555 1_555
H19 C18 1_555 1_555
C19 C15 1_555 1_555
H20 C19 1_555 1_555
H21 C19 1_555 1_555
H22 C19 1_555 1_555
Co1_2 N2 1_555 1_555
Co2_2 N4 1_555 1_555
Co2_3 O1A 1_555 1_555
O1A C17A 1_555 1_555
O1A_2 Co2 1_555 1_555
O3A C17A 1_555 1_555
O5A Co2_3 1_555 1_555
O5A_2 Co2 1_555 1_555
O6A Co1 1_555 1_555
O7A Co1 1_555 1_555
H3A O7A 1_555 1_555
H4A O7A 1_555 1_555
N2_2 Co1 1_555 1_555
N4_2 Co2 1_555 1_555
C1A N1 1_555 1_555
H5A C1A 1_555 1_555
C2A C3 1_555 1_555
H6A C2A 1_555 1_555
C5A C4 1_555 1_555
H7A C5A 1_555 1_555
C6A N2 1_555 1_555
H8A C6A 1_555 1_555
C7A N3 1_555 1_555
H9A C7A 1_555 1_555
C8A C9 1_555 1_555
H10A C8A 1_555 1_555
C11A C10 1_555 1_555
H11A C11A 1_555 1_555
C12A N4 1_555 1_555
H12A C12A 1_555 1_555
C13A O5A 1_555 1_555
C14A C13A 1_555 1_555
H13A C14A 1_555 1_555
H14A C14A 1_555 1_555
C15A C14A 1_555 1_555
C16A C15A 1_555 1_555
H15A C16A 1_555 1_555
H16A C16A 1_555 1_555
C17A C16A 1_555 1_555
C18A C15A 1_555 1_555
H17A C18A 1_555 1_555
H18A C18A 1_555 1_555
H19A C18A 1_555 1_555
C19A C15A 1_555 1_555
H20A C19A 1_555 1_555
H21A C19A 1_555 1_555
H22A C19A 1_555 1_555
O6A C13A 1_555 1_555
C1A C2A 1_555 1_555
C5A C6A 1_555 1_555
C7A C8A 1_555 1_555
C11A C12A 1_555 1_555

#END
