
#######################################################################
#
#                 Cambridge Crystallographic Data Centre
#                                CCDC 
#
#######################################################################
#
# If this CIF has been generated from an entry in the Cambridge 
# Structural Database, then it will include bibliographic, chemical, 
# crystal, experimental, refinement or atomic coordinate data resulting 
# from the CCDC's data processing and validation procedures.
#
#######################################################################

data_QUTTAB
_symmetry_cell_setting           monoclinic
_symmetry_space_group_name_H-M   'C 2/c'
_symmetry_Int_Tables_number      15
_space_group_name_Hall           '-C 2yn'
loop_
_symmetry_equiv_pos_site_id
_symmetry_equiv_pos_as_xyz
1 x,y,z
2 -x,y,1/2-z
3 1/2+x,1/2+y,z
4 1/2-x,1/2+y,1/2-z
5 -x,-y,-z
6 x,-y,1/2+z
7 1/2-x,1/2-y,-z
8 1/2+x,1/2-y,1/2+z
_cell_length_a                   17.7522(4)
_cell_length_b                   11.4275(3)
_cell_length_c                   20.0965(5)
_cell_angle_alpha                90
_cell_angle_beta                 107.9310(10)
_cell_angle_gamma                90
_cell_volume                     3878.82
loop_
_atom_site_label
_atom_site_type_symbol
_atom_site_fract_x
_atom_site_fract_y
_atom_site_fract_z
Co1 Co 0.0000 0.90343(5) 0.2500
Co2 Co 0.0000 1.0000 0.0000
O1 O 0.09369(14) 0.99627(18) 0.09120(12)
O3 O 0.04312(13) 0.90503(18) 0.16492(11)
O4 O 0.11025(14) 0.89857(19) 0.32880(12)
O5 O 0.2132(2) 0.7985(3) 0.39478(15)
O6 O -0.09235(16) 0.9930(2) 0.04631(13)
H3 H -0.1422(13) 0.987(3) 0.0220(17)
H4 H -0.091(2) 0.963(3) 0.0862(13)
N1 N 0.00027(18) 1.1888(3) 0.00641(15)
N2 N 0.0000 0.7155(3) 0.2500
N3 N 0.0000 0.0932(3) 0.2500
C1 C 0.0665(3) 1.2500(3) 0.0203(3)
H5 H 0.1153 1.2088 0.0329
C2 C 0.0686(3) 1.3710(3) 0.0175(3)
H6 H 0.1180 1.4101 0.0269
C3 C 0.0000(2) 1.4351(3) 0.00140(17)
C4 C -0.0694(2) 1.3716(3) -0.0093(2)
H7 H -0.1187 1.4111 -0.0184
C5 C -0.0667(2) 1.2505(3) -0.0067(2)
H8 H -0.1151 1.2091 -0.0147
C6 C 0.0149(2) 0.6543(3) 0.30938(17)
H9 H 0.0257 0.6960 0.3522
C7 C 0.0153(2) 0.5337(3) 0.31159(17)
H10 H 0.0260 0.4944 0.3552
C8 C 0.0000 0.4695(4) 0.2500
C9 C 0.0000 0.3401(4) 0.2500
C10 C 0.0243(3) 0.2754(3) 0.3108(2)
H11 H 0.0412 0.3144 0.3546
C11 C 0.09822(19) 0.9593(3) 0.15158(16)
C12 C 0.1748(2) 0.9829(3) 0.20919(19)
H12 H 0.1619 1.0195 0.2490
H13 H 0.2060 1.0404 0.1918
C13 C 0.2273(2) 0.8738(4) 0.23651(19)
C14 C 0.1872(2) 0.7850(3) 0.27226(18)
H14 H 0.1371 0.7590 0.2379
H15 H 0.2219 0.7156 0.2858
C15 C 0.1692(2) 0.8306(3) 0.33668(18)
C16 C 0.3052(3) 0.9179(5) 0.2890(3)
H16 H 0.3402 0.8512 0.3072
H17 H 0.2937 0.9583 0.3277
H18 H 0.3314 0.9720 0.2653
C17 C 0.2445(3) 0.8077(5) 0.1757(2)
H19 H 0.2810 0.7426 0.1964
H20 H 0.1941 0.7719 0.1472
C18 C 0.2789(5) 0.8724(9) 0.1264(4)
H21 H 0.2858 0.8181 0.0910
H22 H 0.3304 0.9055 0.1528
H23 H 0.2430 0.9355 0.1034
C19 C 0.0244(3) 0.1545(3) 0.3085(2)
H24 H 0.0432 0.1131 0.3515
Co1_2 Co 0.0000 -0.09657(5) 0.2500
Co2_2 Co 0.0000 2.0000 0.0000
Co2A Co 0.0000 1.0000 0.5000
O1A O -0.09369(14) 0.99627(18) 0.40880(12)
O1D O -0.09369(14) 1.00373(18) -0.09120(12)
O3A O -0.04312(13) 0.90503(18) 0.33508(11)
O4A O -0.11025(14) 0.89857(19) 0.17120(12)
O5A O -0.2132(2) 0.7985(3) 0.10522(15)
O6D O 0.09235(16) 1.0070(2) -0.04631(13)
H3D H 0.1422(13) 1.013(3) -0.0220(17)
H4D H 0.091(2) 1.037(3) -0.0862(13)
N1D N -0.00027(18) 1.8112(3) -0.00641(15)
N1D_2 N -0.00027(18) 0.8112(3) -0.00641(15)
N3_2 N 0.0000 1.0932(3) 0.2500
C1D C -0.0665(3) 1.7500(3) -0.0203(3)
H5D H -0.1153 1.7912 -0.0329
C2D C -0.0686(3) 1.6290(3) -0.0175(3)
H6D H -0.1180 1.5899 -0.0269
C3D C 0.0000(2) 1.5649(3) -0.00140(17)
C4D C 0.0694(2) 1.6284(3) 0.0093(2)
H7D H 0.1187 1.5889 0.0184
C5D C 0.0667(2) 1.7495(3) 0.0067(2)
H8D H 0.1151 1.7909 0.0147
C6A C -0.0149(2) 0.6543(3) 0.19062(17)
H9A H -0.0257 0.6960 0.1478
C7A C -0.0153(2) 0.5337(3) 0.18841(17)
H10A H -0.0260 0.4944 0.1448
C10A C -0.0243(3) 0.2754(3) 0.1892(2)
H11A H -0.0412 0.3144 0.1454
C11A C -0.09822(19) 0.9593(3) 0.34842(16)
C12A C -0.1748(2) 0.9829(3) 0.29081(19)
H12A H -0.1619 1.0195 0.2510
H13A H -0.2060 1.0404 0.3082
C13A C -0.2273(2) 0.8738(4) 0.26349(19)
C14A C -0.1872(2) 0.7850(3) 0.22774(18)
H14A H -0.1371 0.7590 0.2621
H15A H -0.2219 0.7156 0.2142
C15A C -0.1692(2) 0.8306(3) 0.16332(18)
C16A C -0.3052(3) 0.9179(5) 0.2110(3)
H16A H -0.3402 0.8512 0.1928
H17A H -0.2937 0.9583 0.1723
H18A H -0.3314 0.9720 0.2347
C17A C -0.2445(3) 0.8077(5) 0.3243(2)
H19A H -0.2810 0.7426 0.3036
H20A H -0.1941 0.7719 0.3528
C18A C -0.2789(5) 0.8724(9) 0.3736(4)
H21A H -0.2858 0.8181 0.4090
H22A H -0.3304 0.9055 0.3472
H23A H -0.2430 0.9355 0.3966
C19A C -0.0244(3) 0.1545(3) 0.1915(2)
H24A H -0.0432 0.1131 0.1485
O2 O 0.2471(2) 0.9090(4) 0.5183(2)
H1 H 0.2361 0.8744 0.4791
H2 H 0.2586 0.8484 0.5440
loop_
_geom_bond_atom_site_label_1
_geom_bond_atom_site_label_2
_geom_bond_site_symmetry_1
_geom_bond_site_symmetry_2
Co1 O3 1_555 1_555
Co2 O1 1_555 1_555
O1 C11 1_555 1_555
O2 H1 1_555 1_555
H2 O2 1_555 1_555
O3 C11 1_555 1_555
O4 Co1 1_555 1_555
O5 C15 1_555 1_555
O6 Co2 1_555 1_555
H3 O6 1_555 1_555
H4 O6 1_555 1_555
N1 Co2 1_555 1_555
N2 Co1 1_555 1_555
N3 C19 1_555 1_555
C1 N1 1_555 1_555
H5 C1 1_555 1_555
C2 C1 1_555 1_555
H6 C2 1_555 1_555
C3 C2 1_555 1_555
C4 C3 1_555 1_555
H7 C4 1_555 1_555
C5 N1 1_555 1_555
H8 C5 1_555 1_555
C6 N2 1_555 1_555
H9 C6 1_555 1_555
C7 C6 1_555 1_555
H10 C7 1_555 1_555
C8 C7 1_555 1_555
C9 C8 1_555 1_555
C10 C9 1_555 1_555
H11 C10 1_555 1_555
C11 C12 1_555 1_555
C12 H12 1_555 1_555
H13 C12 1_555 1_555
C13 C12 1_555 1_555
C14 C13 1_555 1_555
H14 C14 1_555 1_555
H15 C14 1_555 1_555
C15 O4 1_555 1_555
C16 C13 1_555 1_555
H16 C16 1_555 1_555
H17 C16 1_555 1_555
H18 C16 1_555 1_555
C17 C13 1_555 1_555
H19 C17 1_555 1_555
H20 C17 1_555 1_555
C18 C17 1_555 1_555
H21 C18 1_555 1_555
H22 C18 1_555 1_555
H23 C18 1_555 1_555
C19 C10 1_555 1_555
H24 C19 1_555 1_555
Co1_2 N3 1_555 1_555
Co2_2 N1D 1_555 1_555
Co2A O1A 1_555 1_555
O1A C11A 1_555 1_555
O1D Co2 1_555 1_555
O3A Co1 1_555 1_555
O4A Co1 1_555 1_555
O5A C15A 1_555 1_555
O6D Co2 1_555 1_555
H3D O6D 1_555 1_555
H4D O6D 1_555 1_555
N1D C1D 1_555 1_555
N1D_2 Co2 1_555 1_555
N3_2 Co1 1_555 1_555
C1D H5D 1_555 1_555
C2D C1D 1_555 1_555
H6D C2D 1_555 1_555
C3D C3 1_555 1_555
C4D C3D 1_555 1_555
H7D C4D 1_555 1_555
C5D N1D 1_555 1_555
H8D C5D 1_555 1_555
C6A N2 1_555 1_555
H9A C6A 1_555 1_555
C7A C8 1_555 1_555
H10A C7A 1_555 1_555
C10A C9 1_555 1_555
H11A C10A 1_555 1_555
C11A O3A 1_555 1_555
C12A C11A 1_555 1_555
H12A C12A 1_555 1_555
H13A C12A 1_555 1_555
C13A C12A 1_555 1_555
C14A C13A 1_555 1_555
H14A C14A 1_555 1_555
H15A C14A 1_555 1_555
C15A O4A 1_555 1_555
C16A C13A 1_555 1_555
H16A C16A 1_555 1_555
H17A C16A 1_555 1_555
H18A C16A 1_555 1_555
C17A C13A 1_555 1_555
H19A C17A 1_555 1_555
H20A C17A 1_555 1_555
C18A C17A 1_555 1_555
H21A C18A 1_555 1_555
H22A C18A 1_555 1_555
H23A C18A 1_555 1_555
C19A N3 1_555 1_555
H24A C19A 1_555 1_555
C4 C5 1_555 1_555
C14 C15 1_555 1_555
C2D C3D 1_555 1_555
C4D C5D 1_555 1_555
C6A C7A 1_555 1_555
C10A C19A 1_555 1_555
C14A C15A 1_555 1_555

#END
