
#######################################################################
#
#                 Cambridge Crystallographic Data Centre
#                                CCDC 
#
#######################################################################
#
# If this CIF has been generated from an entry in the Cambridge 
# Structural Database, then it will include bibliographic, chemical, 
# crystal, experimental, refinement or atomic coordinate data resulting 
# from the CCDC's data processing and validation procedures.
#
#######################################################################

data_QUTZOV
_symmetry_cell_setting           monoclinic
_symmetry_space_group_name_H-M   'C 2/c'
_symmetry_Int_Tables_number      15
_space_group_name_Hall           '-C 2yn'
loop_
_symmetry_equiv_pos_site_id
_symmetry_equiv_pos_as_xyz
1 x,y,z
2 -x,y,1/2-z
3 1/2+x,1/2+y,z
4 1/2-x,1/2+y,1/2-z
5 -x,-y,-z
6 x,-y,1/2+z
7 1/2-x,1/2-y,-z
8 1/2+x,1/2-y,1/2+z
_cell_length_a                   22.666(8)
_cell_length_b                   13.946(5)
_cell_length_c                   11.277(4)
_cell_angle_alpha                90
_cell_angle_beta                 113.441(6)
_cell_angle_gamma                90
_cell_volume                     3270.47
loop_
_atom_site_label
_atom_site_type_symbol
_atom_site_fract_x
_atom_site_fract_y
_atom_site_fract_z
Co1 Co 0.0000 0.29763(3) -0.2500
Co2 Co 0.0000 0.10334(3) -0.2500
O1 O 0.07182(10) 0.28722(12) -0.0726(2)
O2 O 0.08171(10) 0.12900(13) -0.0871(2)
O3 O 0.44639(10) 0.38435(13) 0.3537(2)
O4 O 0.43237(10) 0.22572(13) 0.3313(2)
N1 N 0.0000 0.4475(2) -0.2500
N2 N 0.0000 0.9549(2) -0.2500
C1 C 0.10240(14) 0.20902(18) -0.0361(3)
C2 C 0.16868(15) 0.20799(18) 0.0709(3)
H1 H 0.1982 0.1897 0.0318
H2 H 0.1691 0.1562 0.1287
C3 C 0.16270(14) 0.3224(2) 0.2424(3)
H3 H 0.1609 0.2670 0.2928
H4 H 0.1190 0.3413 0.1886
C4 C 0.19837(14) 0.29610(16) 0.1566(3)
C5 C 0.26794(13) 0.26810(19) 0.2437(3)
H5 H 0.2673 0.2120 0.2941
H6 H 0.2908 0.2513 0.1900
C6 C 0.30384(13) 0.34937(17) 0.3355(3)
C7 C 0.26605(14) 0.3761(2) 0.4181(3)
H7 H 0.2655 0.3218 0.4714
H8 H 0.2874 0.4289 0.4750
C8 C 0.19705(14) 0.4049(2) 0.3333(3)
H9 H 0.1740 0.4203 0.3882
C9 C 0.20059(15) 0.38605(18) 0.0783(3)
H10 H 0.2231 0.3712 0.0232
H11 H 0.1572 0.4057 0.0236
C10 C 0.19822(16) 0.4924(2) 0.2546(3)
H12 H 0.2190 0.5454 0.3118
H13 H 0.1546 0.5115 0.2002
C11 C 0.23521(14) 0.46783(19) 0.1708(3)
H14 H 0.2362 0.5244 0.1200
C12 C 0.30448(14) 0.43802(19) 0.2552(3)
H15 H 0.3265 0.4904 0.3123
H16 H 0.3274 0.4235 0.2009
C13 C 0.37185(14) 0.31659(19) 0.4267(3)
H17 H 0.3885 0.3619 0.4976
H18 H 0.3682 0.2550 0.4631
C14 C 0.42038(13) 0.30727(17) 0.3658(3)
C15 C 0.01903(13) 0.90511(17) -0.3299(3)
H19 H 0.0329 0.9387 -0.3853
C16 C 0.01896(14) 0.80637(16) -0.3341(3)
H20 H 0.0315 0.7746 -0.3927
C17 C 0.0000 0.7548(2) -0.2500
C18 C 0.0000 0.6479(2) -0.2500
C19 C 0.02161(15) 0.59642(18) -0.1355(3)
H21 H 0.0363 0.6281 -0.0565
C20 C 0.02114(15) 0.49674(18) -0.1401(3)
H22 H 0.0363 0.4630 -0.0626
Co1F Co 0.5000 0.20237(3) 0.2500
Co1F_2 Co -0.5000 0.20237(3) -0.7500
Co2F Co 0.5000 0.39666(3) 0.2500
Co2_2 Co 0.0000 1.10334(3) -0.2500
Co2F_2 Co -0.5000 0.39666(3) -0.7500
O1A O -0.07182(10) 0.28722(12) -0.4274(2)
O2A O -0.08171(10) 0.12900(13) -0.4129(2)
O3A O -0.44639(10) 0.38435(13) -0.8537(2)
O3F O 0.05361(10) 0.11565(13) -0.3537(2)
O3G O -0.05361(10) 0.11565(13) -0.1463(2)
O4A O -0.43237(10) 0.22572(13) -0.8313(2)
O4F O 0.06763(10) 0.27428(13) -0.3313(2)
O4G O -0.06763(10) 0.27428(13) -0.1687(2)
N2_2 N 0.0000 -0.0451(2) -0.2500
C1A C -0.10240(14) 0.20902(18) -0.4639(3)
C2A C -0.16868(15) 0.20799(18) -0.5709(3)
H1A H -0.1982 0.1897 -0.5318
H2A H -0.1691 0.1562 -0.6287
C3A C -0.16270(14) 0.3224(2) -0.7424(3)
H3A H -0.1609 0.2670 -0.7928
H4A H -0.1190 0.3413 -0.6886
C4A C -0.19837(14) 0.29610(16) -0.6566(3)
C5A C -0.26794(13) 0.26810(19) -0.7437(3)
H5A H -0.2673 0.2120 -0.7941
H6A H -0.2908 0.2513 -0.6900
C6A C -0.30384(13) 0.34937(17) -0.8355(3)
C7A C -0.26605(14) 0.3761(2) -0.9181(3)
H7A H -0.2655 0.3218 -0.9714
H8A H -0.2874 0.4289 -0.9750
C8A C -0.19705(14) 0.4049(2) -0.8333(3)
H9A H -0.1740 0.4203 -0.8882
C9A C -0.20059(15) 0.38605(18) -0.5783(3)
H10A H -0.2231 0.3712 -0.5232
H11A H -0.1572 0.4057 -0.5236
C10A C -0.19822(16) 0.4924(2) -0.7546(3)
H12A H -0.2190 0.5454 -0.8118
H13A H -0.1546 0.5115 -0.7002
C11A C -0.23521(14) 0.46783(19) -0.6708(3)
H14A H -0.2362 0.5244 -0.6200
C12A C -0.30448(14) 0.43802(19) -0.7552(3)
H15A H -0.3265 0.4904 -0.8123
H16A H -0.3274 0.4235 -0.7009
C13A C -0.37185(14) 0.31659(19) -0.9267(3)
H17A H -0.3885 0.3619 -0.9976
H18A H -0.3682 0.2550 -0.9631
C14A C -0.42038(13) 0.30727(17) -0.8658(3)
C15A C -0.01903(13) 0.90511(17) -0.1701(3)
H19A H -0.0329 0.9387 -0.1147
C16A C -0.01896(14) 0.80637(16) -0.1659(3)
H20A H -0.0315 0.7746 -0.1073
C19A C -0.02161(15) 0.59642(18) -0.3645(3)
H21A H -0.0363 0.6281 -0.4435
C20A C -0.02114(15) 0.49674(18) -0.3599(3)
H22A H -0.0363 0.4630 -0.4374
loop_
_geom_bond_atom_site_label_1
_geom_bond_atom_site_label_2
_geom_bond_site_symmetry_1
_geom_bond_site_symmetry_2
Co1 O1 1_555 1_555
Co2 O2 1_555 1_555
O1 C1 1_555 1_555
O2 C1 1_555 1_555
O3 C14 1_555 1_555
O4 C14 1_555 1_555
N1 Co1 1_555 1_555
N2 C15 1_555 1_555
C1 C2 1_555 1_555
C2 H1 1_555 1_555
H2 C2 1_555 1_555
C3 H3 1_555 1_555
H4 C3 1_555 1_555
C4 C2 1_555 1_555
C5 C4 1_555 1_555
H5 C5 1_555 1_555
H6 C5 1_555 1_555
C6 C5 1_555 1_555
C7 C6 1_555 1_555
H7 C7 1_555 1_555
H8 C7 1_555 1_555
C8 C3 1_555 1_555
H9 C8 1_555 1_555
C9 C4 1_555 1_555
H10 C9 1_555 1_555
H11 C9 1_555 1_555
C10 C8 1_555 1_555
H12 C10 1_555 1_555
H13 C10 1_555 1_555
C11 C9 1_555 1_555
H14 C11 1_555 1_555
C12 C6 1_555 1_555
H15 C12 1_555 1_555
H16 C12 1_555 1_555
C13 C6 1_555 1_555
H17 C13 1_555 1_555
H18 C13 1_555 1_555
C14 C13 1_555 1_555
C15 H19 1_555 1_555
C16 C15 1_555 1_555
H20 C16 1_555 1_555
C17 C16 1_555 1_555
C18 C17 1_555 1_555
C19 C18 1_555 1_555
H21 C19 1_555 1_555
C20 N1 1_555 1_555
H22 C20 1_555 1_555
Co1F O4 1_555 1_555
Co1F_2 O4A 1_555 1_555
Co2F O3 1_555 1_555
Co2_2 N2 1_555 1_555
Co2F_2 O3A 1_555 1_555
O1A Co1 1_555 1_555
O2A Co2 1_555 1_555
O3A C14A 1_555 1_555
O3F Co2 1_555 1_555
O3G Co2 1_555 1_555
O4A C14A 1_555 1_555
O4F Co1 1_555 1_555
O4G Co1 1_555 1_555
N2_2 Co2 1_555 1_555
C1A O1A 1_555 1_555
C2A C1A 1_555 1_555
H1A C2A 1_555 1_555
H2A C2A 1_555 1_555
C3A H3A 1_555 1_555
H4A C3A 1_555 1_555
C4A C2A 1_555 1_555
C5A C4A 1_555 1_555
H5A C5A 1_555 1_555
H6A C5A 1_555 1_555
C6A C5A 1_555 1_555
C7A C6A 1_555 1_555
H7A C7A 1_555 1_555
H8A C7A 1_555 1_555
C8A C3A 1_555 1_555
H9A C8A 1_555 1_555
C9A C4A 1_555 1_555
H10A C9A 1_555 1_555
H11A C9A 1_555 1_555
C10A C8A 1_555 1_555
H12A C10A 1_555 1_555
H13A C10A 1_555 1_555
C11A C9A 1_555 1_555
H14A C11A 1_555 1_555
C12A C6A 1_555 1_555
H15A C12A 1_555 1_555
H16A C12A 1_555 1_555
C13A C6A 1_555 1_555
H17A C13A 1_555 1_555
H18A C13A 1_555 1_555
C14A C13A 1_555 1_555
C15A N2 1_555 1_555
H19A C15A 1_555 1_555
C16A C17 1_555 1_555
H20A C16A 1_555 1_555
C19A C18 1_555 1_555
H21A C19A 1_555 1_555
C20A N1 1_555 1_555
H22A C20A 1_555 1_555
C3 C4 1_555 1_555
C7 C8 1_555 1_555
C10 C11 1_555 1_555
C11 C12 1_555 1_555
C19 C20 1_555 1_555
O2A C1A 1_555 1_555
C3A C4A 1_555 1_555
C7A C8A 1_555 1_555
C10A C11A 1_555 1_555
C11A C12A 1_555 1_555
C15A C16A 1_555 1_555
C19A C20A 1_555 1_555

#END
