
#######################################################################
#
#                 Cambridge Crystallographic Data Centre
#                                CCDC 
#
#######################################################################
#
# If this CIF has been generated from an entry in the Cambridge 
# Structural Database, then it will include bibliographic, chemical, 
# crystal, experimental, refinement or atomic coordinate data resulting 
# from the CCDC's data processing and validation procedures.
#
#######################################################################

data_QUVGOE
_symmetry_cell_setting           monoclinic
_symmetry_space_group_name_H-M   'P 21'
_symmetry_Int_Tables_number      4
_space_group_name_Hall           'P 2yb'
loop_
_symmetry_equiv_pos_site_id
_symmetry_equiv_pos_as_xyz
1 x,y,z
2 -x,1/2+y,-z
_cell_length_a                   8.9518(12)
_cell_length_b                   15.455(2)
_cell_length_c                   8.9934(12)
_cell_angle_alpha                90
_cell_angle_beta                 92.910(3)
_cell_angle_gamma                90
_cell_volume                     1242.63
loop_
_atom_site_label
_atom_site_type_symbol
_atom_site_fract_x
_atom_site_fract_y
_atom_site_fract_z
Co1 Co 0.49051(8) 0.26534(5) 0.00760(8)
Co2 Co 1.02227(8) 0.70843(5) -0.50562(7)
Ca1 Ca 0.99087(11) 0.48734(8) -0.00736(11)
O1 O 1.2122(5) 0.4391(3) 0.1369(5)
C1 C 1.2868(7) 0.3809(4) 0.0835(6)
C2 C 1.2197(6) 0.3296(4) -0.0521(7)
O2 O 1.0973(5) 0.3522(3) -0.1085(4)
O3 O 1.2992(4) 0.2668(3) -0.0941(4)
O4 O 1.4178(5) 0.3589(3) 0.1265(5)
O5 O 1.1321(5) 0.5292(3) -0.2181(4)
C3 C 1.0850(7) 0.5902(4) -0.2960(6)
O6 O 0.8855(5) 0.6184(3) -0.1371(4)
C4 C 0.9491(6) 0.6432(4) -0.2482(6)
O7 O 0.9136(4) 0.7067(3) -0.3293(4)
O8 O 1.1360(5) 0.6133(3) -0.4200(4)
O9 O 1.1251(5) 0.6187(3) 0.1106(4)
C5 C 1.0718(6) 0.6439(4) 0.2273(6)
O10 O 0.8658(5) 0.5441(3) 0.2002(5)
C6 C 0.9267(7) 0.5995(4) 0.2774(6)
O11 O 0.8821(5) 0.6268(3) 0.4020(5)
O12 O 1.1275(4) 0.7008(3) 0.3151(4)
O13 O 0.7664(5) 0.4359(3) -0.1415(5)
C7 C 0.6941(7) 0.3783(4) -0.0858(7)
O14 O 0.8756(5) 0.3622(3) 0.1171(4)
C8 C 0.7577(7) 0.3347(4) 0.0590(6)
O15 O 0.5675(5) 0.3476(3) -0.1317(5)
O16 O 0.6816(4) 0.2720(3) 0.1075(4)
N1 N 0.4278(6) 0.1839(4) 0.1508(6)
H1 H 0.456(7) 0.194(5) 0.243(3)
H2 H 0.334(3) 0.172(5) 0.127(7)
C9 C 0.5004(8) 0.0989(5) 0.1266(8)
H3 H 0.4460 0.0520 0.1757
H4 H 0.6054 0.0995 0.1669
C10 C 0.4937(8) 0.0863(5) -0.0402(9)
H5 H 0.5568 0.0367 -0.0672
H6 H 0.3896 0.0751 -0.0776
N2 N 0.5508(6) 0.1683(4) -0.1053(6)
H7 H 0.649(2) 0.167(5) -0.092(8)
H8 H 0.528(8) 0.178(5) -0.200(3)
N3 N 1.1648(7) 0.7884(4) -0.4231(6)
H9 H 1.168(8) 0.790(5) -0.325(2)
H10 H 1.259(3) 0.774(5) -0.432(8)
C11 C 1.1378(8) 0.8751(4) -0.4877(7)
H11 H 1.1801 0.8795 -0.5870
H12 H 1.1835 0.9205 -0.4222
C12 C 0.9687(9) 0.8845(5) -0.4996(7)
H13 H 0.9284 0.8885 -0.3994
H14 H 0.9396 0.9372 -0.5565
N4 N 0.9111(6) 0.8070(4) -0.5772(6)
H15 H 0.911(8) 0.816(5) -0.672(3)
H16 H 0.818(3) 0.793(5) -0.571(8)
Co1_2 Co 1.49051(8) 0.26534(5) 0.00760(8)
Co2_2 Co 1.02227(8) 0.70843(5) 0.49438(7)
O3_2 O 0.2992(4) 0.2668(3) -0.0941(4)
O4_2 O 0.4178(5) 0.3589(3) 0.1265(5)
O11_2 O 0.8821(5) 0.6268(3) -0.5980(5)
O12_2 O 1.1275(4) 0.7008(3) -0.6849(4)
O17 O 0.5744(7) 0.6162(5) 0.3982(6)
H17 H 0.6667 0.6090 0.4069
H18 H 0.5207 0.5734 0.4036
O18 O 0.4694(6) 0.7422(4) 0.5614(6)
H19 H 0.5171 0.6996 0.5331
H20 H 0.4941 0.7836 0.5122
O19 O 0.3357(6) 0.5100(4) 0.4116(6)
H21 H 0.2791 0.4953 0.3389
H22 H 0.3051 0.5282 0.4968
O20 O 0.4038(7) 0.3692(4) 0.5912(6)
H23 H 0.3788 0.4113 0.5381
H24 H 0.3969 0.3906 0.6870
loop_
_geom_bond_atom_site_label_1
_geom_bond_atom_site_label_2
_geom_bond_site_symmetry_1
_geom_bond_site_symmetry_2
Co1 O15 1_555 1_555
Co2 O7 1_555 1_555
Ca1 O1 1_555 1_555
O1 C1 1_555 1_555
C1 C2 1_555 1_555
C2 O2 1_555 1_555
O2 Ca1 1_555 1_555
O3 C2 1_555 1_555
O4 C1 1_555 1_555
O5 Ca1 1_555 1_555
C3 O5 1_555 1_555
O6 Ca1 1_555 1_555
C4 C3 1_555 1_555
O7 C4 1_555 1_555
O8 Co2 1_555 1_555
O9 Ca1 1_555 1_555
C5 O9 1_555 1_555
O10 Ca1 1_555 1_555
C6 C5 1_555 1_555
O11 C6 1_555 1_555
O12 C5 1_555 1_555
O13 Ca1 1_555 1_555
C7 O13 1_555 1_555
O14 Ca1 1_555 1_555
C8 C7 1_555 1_555
O15 C7 1_555 1_555
O16 Co1 1_555 1_555
N1 Co1 1_555 1_555
H1 N1 1_555 1_555
H2 N1 1_555 1_555
C9 N1 1_555 1_555
H3 C9 1_555 1_555
H4 C9 1_555 1_555
C10 C9 1_555 1_555
H5 C10 1_555 1_555
H6 C10 1_555 1_555
N2 Co1 1_555 1_555
H7 N2 1_555 1_555
H8 N2 1_555 1_555
N3 Co2 1_555 1_555
H9 N3 1_555 1_555
H10 N3 1_555 1_555
C11 N3 1_555 1_555
H11 C11 1_555 1_555
H12 C11 1_555 1_555
C12 C11 1_555 1_555
H13 C12 1_555 1_555
H14 C12 1_555 1_555
N4 Co2 1_555 1_555
H15 N4 1_555 1_555
H16 N4 1_555 1_555
O17 H17 1_555 1_555
H18 O17 1_555 1_555
O18 H19 1_555 1_555
H20 O18 1_555 1_555
O19 H21 1_555 1_555
H22 O19 1_555 1_555
O20 H23 1_555 1_555
H24 O20 1_555 1_555
Co1_2 O3 1_555 1_555
Co2_2 O11 1_555 1_555
O3_2 Co1 1_555 1_555
O4_2 Co1 1_555 1_555
O11_2 Co2 1_555 1_555
O12_2 Co2 1_555 1_555
O4 Co1_2 1_555 1_555
C3 O8 1_555 1_555
O6 C4 1_555 1_555
O10 C6 1_555 1_555
O12 Co2_2 1_555 1_555
O14 C8 1_555 1_555
C8 O16 1_555 1_555
C10 N2 1_555 1_555
C12 N4 1_555 1_555

#END
