
#######################################################################
#
#                 Cambridge Crystallographic Data Centre
#                                CCDC 
#
#######################################################################
#
# If this CIF has been generated from an entry in the Cambridge 
# Structural Database, then it will include bibliographic, chemical, 
# crystal, experimental, refinement or atomic coordinate data resulting 
# from the CCDC's data processing and validation procedures.
#
#######################################################################

data_QUVHUL
_symmetry_cell_setting           monoclinic
_symmetry_space_group_name_H-M   'P 21/c'
_symmetry_Int_Tables_number      14
_space_group_name_Hall           '-P 2ybc'
loop_
_symmetry_equiv_pos_site_id
_symmetry_equiv_pos_as_xyz
1 x,y,z
2 -x,1/2+y,1/2-z
3 -x,-y,-z
4 x,1/2-y,1/2+z
_cell_length_a                   9.8814(11)
_cell_length_b                   10.5662(12)
_cell_length_c                   18.482(2)
_cell_angle_alpha                90
_cell_angle_beta                 101.496(2)
_cell_angle_gamma                90
_cell_volume                     1890.97
loop_
_atom_site_label
_atom_site_type_symbol
_atom_site_fract_x
_atom_site_fract_y
_atom_site_fract_z
Cd1 Cd 0.31396(5) 0.92962(4) 0.98503(2)
Cd2 Cd 0.09997(5) 0.99436(4) 1.11453(2)
Cl1 Cl 0.18054(18) 1.12758(14) 1.01604(9)
Cl2 Cl 0.46641(17) 1.03551(15) 0.90452(8)
Cl3 Cl 0.10580(17) 0.88960(15) 0.86711(9)
Cl4 Cl 0.26975(17) 1.03951(14) 1.23028(9)
C1 C 0.4686(6) 0.7011(6) 0.9193(3)
H1 H 0.4988 0.6135 0.9229
H2 H 0.5490 0.7548 0.9338
C2 C 0.1617(6) 0.7177(6) 1.0718(3)
C3 C 0.2159(7) 0.6147(6) 1.0385(3)
C4 C 0.0313(7) 0.5690(7) 1.1322(4)
H3 H -0.0291 0.5541 1.1640
C5 C 0.3154(7) 0.6252(6) 0.9908(3)
H4 H 0.3439 0.5486 0.9741
C6 C 0.0691(6) 0.6908(6) 1.1197(3)
C7 C 0.0829(7) 0.4667(6) 1.0975(4)
H5 H 0.0561 0.3843 1.1055
C8 C 0.1726(7) 0.4898(6) 1.0521(3)
H6 H 0.2067 0.4220 1.0291
C9 C -0.0850(8) 0.7808(7) 1.1919(5)
H7 H -0.0560 0.7255 1.2333
H8 H -0.1641 0.7453 1.1597
H9 H -0.1085 0.8620 1.2092
O1 O 0.0259(4) 0.7953(4) 1.1522(2)
O2 O 0.1966(4) 0.8374(3) 1.0639(2)
N1 N 0.3699(5) 0.7234(5) 0.9683(3)
C10 C 0.3974(6) 0.7309(6) 0.8409(3)
H10 H 0.3418 0.6587 0.8206
H11 H 0.3357 0.8021 0.8413
C11 C 0.5992(7) 0.6578(6) 0.7891(3)
H12 H 0.5507 0.5802 0.7748
H13 H 0.6572 0.6478 0.8370
H14 H 0.6550 0.6788 0.7538
C12 C 0.4194(7) 0.7943(6) 0.7165(3)
H15 H 0.3738 0.7200 0.6935
H16 H 0.4823 0.8257 0.6873
H17 H 0.3518 0.8580 0.7201
N2 N 0.4972(5) 0.7617(4) 0.7917(3)
H18 H 0.5454 0.8317 0.8105
Cd1B Cd 0.68604(5) 1.07038(4) 1.01497(2)
Cd2B Cd -0.09997(5) 1.00564(4) 0.88547(2)
Cl2B Cl 0.53359(17) 0.96449(15) 1.09548(8)
Cl3B Cl -0.10580(17) 1.11040(15) 1.13289(9)
loop_
_geom_bond_atom_site_label_1
_geom_bond_atom_site_label_2
_geom_bond_site_symmetry_1
_geom_bond_site_symmetry_2
Cd1 Cl1 1_555 1_555
Cd2 Cl1 1_555 1_555
Cl2 Cd1 1_555 1_555
Cl3 Cd1 1_555 1_555
Cl4 Cd2 1_555 1_555
C1 H1 1_555 1_555
H2 C1 1_555 1_555
C2 C3 1_555 1_555
C3 C5 1_555 1_555
C4 H3 1_555 1_555
C5 H4 1_555 1_555
C6 C2 1_555 1_555
C7 C4 1_555 1_555
H5 C7 1_555 1_555
C8 C3 1_555 1_555
H6 C8 1_555 1_555
C9 H7 1_555 1_555
H8 C9 1_555 1_555
H9 C9 1_555 1_555
O1 Cd2 1_555 1_555
O2 Cd1 1_555 1_555
N1 Cd1 1_555 1_555
C10 C1 1_555 1_555
H10 C10 1_555 1_555
H11 C10 1_555 1_555
C11 H12 1_555 1_555
H13 C11 1_555 1_555
H14 C11 1_555 1_555
C12 H15 1_555 1_555
H16 C12 1_555 1_555
H17 C12 1_555 1_555
N2 C10 1_555 1_555
H18 N2 1_555 1_555
Cd1B Cl2 1_555 1_555
Cd2B Cl3 1_555 1_555
Cl2B Cd1 1_555 1_555
Cl3B Cd2 1_555 1_555
Cd2 O2 1_555 1_555
C1 N1 1_555 1_555
C2 O2 1_555 1_555
C4 C6 1_555 1_555
C5 N1 1_555 1_555
C6 O1 1_555 1_555
C7 C8 1_555 1_555
C9 O1 1_555 1_555
C11 N2 1_555 1_555
C12 N2 1_555 1_555
Cd1B Cl2B 1_555 1_555

#END
