
#######################################################################
#
#                 Cambridge Crystallographic Data Centre
#                                CCDC 
#
#######################################################################
#
# If this CIF has been generated from an entry in the Cambridge 
# Structural Database, then it will include bibliographic, chemical, 
# crystal, experimental, refinement or atomic coordinate data resulting 
# from the CCDC's data processing and validation procedures.
#
#######################################################################

data_QUVJAT
_symmetry_cell_setting           triclinic
_symmetry_space_group_name_H-M   'P -1'
_symmetry_Int_Tables_number      2
_space_group_name_Hall           '-P 1'
loop_
_symmetry_equiv_pos_site_id
_symmetry_equiv_pos_as_xyz
1 x,y,z
2 -x,-y,-z
_cell_length_a                   10.0956(14)
_cell_length_b                   10.3352(14)
_cell_length_c                   13.1821(18)
_cell_angle_alpha                72.2370(10)
_cell_angle_beta                 74.3520(10)
_cell_angle_gamma                73.6300(10)
_cell_volume                     1231.08
loop_
_atom_site_label
_atom_site_type_symbol
_atom_site_fract_x
_atom_site_fract_y
_atom_site_fract_z
Cd1 Cd 0.02335(2) 0.33441(2) 0.144833(17)
Cd2 Cd 0.40606(2) 0.23522(2) 0.189152(16)
Cd3 Cd -0.317850(19) 0.44700(2) 0.051822(16)
Cl1 Cl -0.06612(10) 0.28421(9) 0.34734(7)
Cl2 Cl -0.13045(7) 0.21886(7) 0.08772(6)
Cl3 Cl 0.53290(7) 0.38235(7) 0.24374(5)
Cl4 Cl 0.23339(7) 0.12322(7) 0.15187(6)
Cl5 Cl 0.15320(7) 0.42482(7) -0.08621(6)
Cl6 Cl 0.52429(7) 0.32371(7) -0.01221(5)
Cl7 Cl 0.20330(7) 0.47280(7) 0.15991(5)
O1 O 0.4011(2) 0.09467(18) 0.35313(14)
O2 O 0.57219(19) 0.00784(19) 0.18306(15)
N1 N 0.2612(2) 0.0353(3) 0.55552(19)
H5 H 0.284(3) 0.099(3) 0.489(3)
N2 N -0.0703(3) 0.2161(3) 0.7100(2)
H6 H -0.034(3) 0.289(3) 0.690(3)
C1 C 0.4445(3) -0.0387(3) 0.3622(2)
C2 C 0.5341(3) -0.0929(3) 0.2746(2)
C3 C 0.5792(3) -0.2333(3) 0.2837(2)
H7 H 0.6355 -0.2662 0.2243
C4 C 0.5402(4) -0.3272(3) 0.3825(3)
H8 H 0.5717 -0.4224 0.3888
C5 C 0.4570(3) -0.2803(3) 0.4688(2)
H9 H 0.4325 -0.3437 0.5342
C6 C 0.4072(3) -0.1369(3) 0.4611(2)
C7 C 0.3188(3) -0.0931(3) 0.5540(2)
H10 H 0.3011 -0.1612 0.6178
C8 C 0.6480(3) -0.0382(3) 0.0868(2)
H11 H 0.7375 -0.0971 0.0991
H12 H 0.6628 0.0411 0.0273
H13 H 0.5945 -0.0892 0.0696
C9 C -0.2178(3) 0.2610(4) 0.6934(3)
H14 H -0.2596 0.1815 0.7157
H15 H -0.2184 0.3043 0.6178
H16 H -0.2708 0.3264 0.7359
C10 C -0.0655(3) 0.1579(3) 0.8275(2)
H17 H -0.1316 0.2194 0.8687
H18 H 0.0277 0.1484 0.8377
H19 H -0.0894 0.0683 0.8518
C11 C 0.1711(3) 0.0787(3) 0.6510(2)
H20 H 0.1979 0.1574 0.6592
H21 H 0.1832 0.0032 0.7154
C12 C 0.0173(3) 0.1191(3) 0.6408(2)
H22 H 0.0112 0.1635 0.5654
H23 H -0.0200 0.0357 0.6623
Cd1A Cd -0.02335(2) 0.66559(2) -0.144833(17)
Cd3_2 Cd 0.682150(19) 0.44700(2) 0.051822(16)
Cd3A Cd 0.317850(19) 0.55300(2) -0.051822(16)
Cl3_2 Cl -0.46710(7) 0.38235(7) 0.24374(5)
Cl5A Cl -0.15320(7) 0.57518(7) 0.08621(6)
Cl6_2 Cl -0.47571(7) 0.32371(7) -0.01221(5)
Cl6A Cl -0.52429(7) 0.67629(7) 0.01221(5)
Cl7A Cl -0.20330(7) 0.52720(7) -0.15991(5)
O3 O 0.2214(3) 0.3541(3) 0.4374(2)
H1 H 0.157(3) 0.380(5) 0.399(3)
H2 H 0.298(2) 0.373(5) 0.395(3)
O4 O 0.0663(4) 0.4283(3) 0.6237(3)
H3 H 0.117(5) 0.420(5) 0.562(2)
H4 H 0.084(5) 0.494(4) 0.641(4)
loop_
_geom_bond_atom_site_label_1
_geom_bond_atom_site_label_2
_geom_bond_site_symmetry_1
_geom_bond_site_symmetry_2
Cd1 Cl1 1_555 1_555
Cd2 Cl3 1_555 1_555
Cd3 Cl2 1_555 1_555
Cl2 Cd1 1_555 1_555
Cl3 Cd3_2 1_555 1_555
Cl4 Cd1 1_555 1_555
Cl5 Cd1 1_555 1_555
Cl6 Cd2 1_555 1_555
Cl7 Cd1 1_555 1_555
O1 Cd2 1_555 1_555
O2 Cd2 1_555 1_555
O3 H1 1_555 1_555
H2 O3 1_555 1_555
O4 H3 1_555 1_555
H4 O4 1_555 1_555
N1 H5 1_555 1_555
N2 H6 1_555 1_555
C1 O1 1_555 1_555
C2 O2 1_555 1_555
C3 C2 1_555 1_555
H7 C3 1_555 1_555
C4 C3 1_555 1_555
H8 C4 1_555 1_555
C5 C4 1_555 1_555
H9 C5 1_555 1_555
C6 C1 1_555 1_555
C7 N1 1_555 1_555
H10 C7 1_555 1_555
C8 O2 1_555 1_555
H11 C8 1_555 1_555
H12 C8 1_555 1_555
H13 C8 1_555 1_555
C9 N2 1_555 1_555
H14 C9 1_555 1_555
H15 C9 1_555 1_555
H16 C9 1_555 1_555
C10 N2 1_555 1_555
H17 C10 1_555 1_555
H18 C10 1_555 1_555
H19 C10 1_555 1_555
C11 N1 1_555 1_555
H20 C11 1_555 1_555
H21 C11 1_555 1_555
C12 N2 1_555 1_555
H22 C12 1_555 1_555
H23 C12 1_555 1_555
Cd1A Cl5 1_555 1_555
Cd3_2 Cl6 1_555 1_555
Cd3A Cl5 1_555 1_555
Cl3_2 Cd3 1_555 1_555
Cl5A Cd1 1_555 1_555
Cl6_2 Cd3 1_555 1_555
Cl6A Cd3 1_555 1_555
Cl7A Cd3 1_555 1_555
Cd2 Cl4 1_555 1_555
Cd2 Cl7 1_555 1_555
Cd3 Cl5A 1_555 1_555
Cl6 Cd3A 1_555 1_555
Cl7 Cd3A 1_555 1_555
C1 C2 1_555 1_555
C5 C6 1_555 1_555
C6 C7 1_555 1_555
C11 C12 1_555 1_555
Cd1A Cl5A 1_555 1_555
Cd1A Cl7A 1_555 1_555

#END
