
#######################################################################
#
#                 Cambridge Crystallographic Data Centre
#                                CCDC 
#
#######################################################################
#
# If this CIF has been generated from an entry in the Cambridge 
# Structural Database, then it will include bibliographic, chemical, 
# crystal, experimental, refinement or atomic coordinate data resulting 
# from the CCDC's data processing and validation procedures.
#
#######################################################################

data_QUWVOU
_symmetry_cell_setting           monoclinic
_symmetry_space_group_name_H-M   'P 21/c'
_symmetry_Int_Tables_number      14
_space_group_name_Hall           '-P 2ybc'
loop_
_symmetry_equiv_pos_site_id
_symmetry_equiv_pos_as_xyz
1 x,y,z
2 -x,1/2+y,1/2-z
3 -x,-y,-z
4 x,1/2-y,1/2+z
_cell_length_a                   6.8689(4)
_cell_length_b                   20.3896(12)
_cell_length_c                   18.3330(11)
_cell_angle_alpha                90
_cell_angle_beta                 99.242(2)
_cell_angle_gamma                90
_cell_volume                     2534.28
loop_
_atom_site_label
_atom_site_type_symbol
_atom_site_fract_x
_atom_site_fract_y
_atom_site_fract_z
Cd1 Cd 0.0000 0.5000 0.0000
O1 O -0.18791(9) 0.460010(18) 0.08457(9)
H1 H -0.1309 0.4252 0.1024
H2 H -0.3055 0.4504 0.0655
N1 N 0.2226(3) 0.41096(11) 0.01136(13)
N2 N 0.4243(4) 0.41353(11) 0.02615(15)
N3 N 0.3364(3) 0.31191(10) 0.00065(11)
N4 N 0.7781(4) 0.11910(11) 0.39708(13)
N5 N 0.7919(3) 0.05173(11) 0.40544(12)
N6 N 0.5522(3) 0.07241(10) 0.31510(11)
C1 C 0.1740(4) 0.35045(13) -0.00343(17)
H5 H 0.0436 0.3353 -0.0154
C2 C 0.4856(4) 0.35382(15) 0.01942(18)
H6 H 0.6192 0.3416 0.0269
C3 C 0.6343(4) 0.12912(14) 0.34300(15)
H7 H 0.5923 0.1709 0.3253
C4 C 0.6568(4) 0.02526(14) 0.35631(15)
H8 H 0.6350 -0.0201 0.3503
C5 C 0.3414(4) 0.23987(12) -0.01068(14)
C6 C 0.5453(4) 0.21938(13) -0.02605(15)
H9 H 0.6465 0.2315 0.0157
H10 H 0.5747 0.2417 -0.0703
C7 C 0.5452(4) 0.14468(13) -0.03756(15)
H11 H 0.6768 0.1309 -0.0474
C8 C 0.5035(4) 0.11108(13) 0.03278(15)
H12 H 0.6047 0.1238 0.0743
H13 H 0.5103 0.0634 0.0268
C9 C 0.2977(3) 0.12994(12) 0.05023(13)
C10 C 0.2967(4) 0.20543(12) 0.05869(13)
H14 H 0.1671 0.2196 0.0686
H15 H 0.3954 0.2182 0.1010
C11 C 0.1855(4) 0.22183(14) -0.07698(15)
H16 H 0.2136 0.2443 -0.1214
H17 H 0.0546 0.2355 -0.0680
C12 C 0.1902(4) 0.14749(14) -0.08790(15)
H18 H 0.0891 0.1352 -0.1304
C13 C 0.3911(5) 0.12645(15) -0.10324(16)
H19 H 0.4203 0.1484 -0.1478
H20 H 0.3926 0.0790 -0.1114
C14 C 0.1452(4) 0.11267(13) -0.01841(15)
H21 H 0.1454 0.0651 -0.0263
H22 H 0.0134 0.1253 -0.0096
C15 C 0.3795(4) 0.06503(13) 0.25504(14)
C16 C 0.3434(4) -0.00767(13) 0.23839(16)
H23 H 0.3158 -0.0305 0.2827
H24 H 0.4608 -0.0275 0.2234
C17 C 0.1673(5) -0.01418(14) 0.17610(17)
H25 H 0.1428 -0.0612 0.1648
C18 C -0.0148(5) 0.01558(17) 0.20049(19)
H26 H -0.0436 -0.0071 0.2447
H27 H -0.1288 0.0105 0.1612
C19 C 0.0225(4) 0.08832(16) 0.21733(16)
H28 H -0.0962 0.1080 0.2328
C20 C 0.1982(4) 0.09555(15) 0.28000(15)
H29 H 0.2224 0.1420 0.2917
H30 H 0.1699 0.0733 0.3245
C21 C 0.4257(3) 0.09982(12) 0.18581(13)
H31 H 0.5433 0.0801 0.1708
H32 H 0.4541 0.1461 0.1971
C22 C 0.2509(4) 0.09455(12) 0.12144(14)
C23 C 0.2095(4) 0.02081(13) 0.10693(15)
H33 H 0.0960 0.0158 0.0675
H34 H 0.3239 0.0005 0.0903
C24 C 0.0692(4) 0.12420(14) 0.14924(15)
H35 H 0.0943 0.1706 0.1613
H36 H -0.0451 0.1217 0.1098
Cd1A Cd 1.0000 0.0000 0.5000
Cd1A_2 Cd 1.0000 1.0000 0.5000
O1B O 0.18791(9) 0.539990(18) -0.08457(9)
H1B H 0.1309 0.5748 -0.1024
H2B H 0.3055 0.5496 -0.0655
N1A N 0.7774(3) 0.91096(11) 0.48864(13)
N1B N -0.2226(3) 0.58904(11) -0.01136(13)
N2A N 0.5757(4) 0.91353(11) 0.47385(15)
N3A N 0.6636(3) 0.81191(10) 0.49935(11)
N4A N 0.2219(4) 0.61910(11) 0.10292(13)
N5A N 0.2081(3) 0.55173(11) 0.09456(12)
N5C N -0.2081(3) 0.44827(11) -0.09456(12)
N6A N 0.4478(3) 0.57241(10) 0.18490(11)
C1A C 0.8260(4) 0.85045(13) 0.50343(17)
H5A H 0.9564 0.8353 0.5154
C2A C 0.5144(4) 0.85382(15) 0.48058(18)
H6A H 0.3808 0.8416 0.4731
C3A C 0.3657(4) 0.62912(14) 0.15700(15)
H7A H 0.4077 0.6709 0.1747
C4A C 0.3432(4) 0.52526(14) 0.14369(15)
H8A H 0.3650 0.4799 0.1497
C5A C 0.6586(4) 0.73987(12) 0.51068(14)
C6A C 0.4547(4) 0.71938(13) 0.52605(15)
H9A H 0.3535 0.7315 0.4843
H10A H 0.4253 0.7417 0.5703
C7A C 0.4548(4) 0.64468(13) 0.53756(15)
H11A H 0.3232 0.6309 0.5474
C8A C 0.4965(4) 0.61108(13) 0.46722(15)
H12A H 0.3953 0.6238 0.4257
H13A H 0.4897 0.5634 0.4732
C9A C 0.7023(3) 0.62994(12) 0.44977(13)
C10A C 0.7033(4) 0.70543(12) 0.44131(13)
H14A H 0.8329 0.7196 0.4314
H15A H 0.6046 0.7182 0.3990
C11A C 0.8145(4) 0.72183(14) 0.57698(15)
H16A H 0.7864 0.7443 0.6214
H17A H 0.9454 0.7355 0.5680
C12A C 0.8098(4) 0.64749(14) 0.58790(15)
H18A H 0.9109 0.6352 0.6304
C13A C 0.6089(5) 0.62645(15) 0.60324(16)
H19A H 0.5797 0.6484 0.6478
H20A H 0.6074 0.5790 0.6114
C14A C 0.8548(4) 0.61267(13) 0.51841(15)
H21A H 0.8546 0.5651 0.5263
H22A H 0.9866 0.6253 0.5096
C15A C 0.6205(4) 0.56503(13) 0.24496(14)
C16A C 0.6566(4) 0.49233(13) 0.26161(16)
H23A H 0.6842 0.4695 0.2173
H24A H 0.5392 0.4725 0.2766
C17A C 0.8327(5) 0.48582(14) 0.32390(17)
H25A H 0.8572 0.4388 0.3352
C18A C 1.0148(5) 0.51558(17) 0.29951(19)
H26A H 1.0436 0.4929 0.2553
H27A H 1.1288 0.5105 0.3388
C19A C 0.9775(4) 0.58832(16) 0.28267(16)
H28A H 1.0962 0.6080 0.2672
C20A C 0.8018(4) 0.59555(15) 0.22000(15)
H29A H 0.7776 0.6420 0.2083
H30A H 0.8301 0.5733 0.1755
C21A C 0.5743(3) 0.59982(12) 0.31419(13)
H31A H 0.4567 0.5801 0.3292
H32A H 0.5459 0.6461 0.3029
C22A C 0.7491(4) 0.59455(12) 0.37856(14)
C23A C 0.7905(4) 0.52081(13) 0.39307(15)
H33A H 0.9040 0.5158 0.4325
H34A H 0.6761 0.5005 0.4097
C24A C 0.9308(4) 0.62420(14) 0.35076(15)
H35A H 0.9057 0.6706 0.3387
H36A H 1.0451 0.6217 0.3902
S1 S 0.68529(19) 0.28388(6) 0.25383(7)
N7 N 0.3437(6) 0.3465(2) 0.1897(2)
C25 C 0.4835(7) 0.3201(2) 0.2158(2)
O2 O -0.06224(6) 0.34054(15) 0.13331(6)
H3 H -0.1127 0.3258 0.1694
H4 H 0.0616 0.3438 0.1470
loop_
_geom_bond_atom_site_label_1
_geom_bond_atom_site_label_2
_geom_bond_site_symmetry_1
_geom_bond_site_symmetry_2
Cd1 O1 1_555 1_555
S1 C25 1_555 1_555
O1 H1 1_555 1_555
H2 O1 1_555 1_555
O2 H3 1_555 1_555
H4 O2 1_555 1_555
N1 Cd1 1_555 1_555
N2 N1 1_555 1_555
N3 C1 1_555 1_555
N4 N5 1_555 1_555
N5 C4 1_555 1_555
N6 C3 1_555 1_555
N7 C25 1_555 1_555
C1 N1 1_555 1_555
H5 C1 1_555 1_555
C2 N2 1_555 1_555
H6 C2 1_555 1_555
C3 N4 1_555 1_555
H7 C3 1_555 1_555
C4 N6 1_555 1_555
H8 C4 1_555 1_555
C5 N3 1_555 1_555
C6 C5 1_555 1_555
H9 C6 1_555 1_555
H10 C6 1_555 1_555
C7 C6 1_555 1_555
H11 C7 1_555 1_555
C8 C7 1_555 1_555
H12 C8 1_555 1_555
H13 C8 1_555 1_555
C9 C8 1_555 1_555
C10 C5 1_555 1_555
H14 C10 1_555 1_555
H15 C10 1_555 1_555
C11 C5 1_555 1_555
H16 C11 1_555 1_555
H17 C11 1_555 1_555
C12 C11 1_555 1_555
H18 C12 1_555 1_555
C13 C7 1_555 1_555
H19 C13 1_555 1_555
H20 C13 1_555 1_555
C14 C9 1_555 1_555
H21 C14 1_555 1_555
H22 C14 1_555 1_555
C15 N6 1_555 1_555
C16 C15 1_555 1_555
H23 C16 1_555 1_555
H24 C16 1_555 1_555
C17 C16 1_555 1_555
H25 C17 1_555 1_555
C18 C17 1_555 1_555
H26 C18 1_555 1_555
H27 C18 1_555 1_555
C19 C18 1_555 1_555
H28 C19 1_555 1_555
C20 C15 1_555 1_555
H29 C20 1_555 1_555
H30 C20 1_555 1_555
C21 C15 1_555 1_555
H31 C21 1_555 1_555
H32 C21 1_555 1_555
C22 C9 1_555 1_555
C23 C17 1_555 1_555
H33 C23 1_555 1_555
H34 C23 1_555 1_555
C24 C19 1_555 1_555
H35 C24 1_555 1_555
H36 C24 1_555 1_555
Cd1A N5 1_555 1_555
Cd1A_2 N1A 1_555 1_555
O1B Cd1 1_555 1_555
H1B O1B 1_555 1_555
H2B O1B 1_555 1_555
N1A N2A 1_555 1_555
N1B Cd1 1_555 1_555
N2A C2A 1_555 1_555
N3A C1A 1_555 1_555
N4A N5A 1_555 1_555
N5A Cd1 1_555 1_555
N5C Cd1 1_555 1_555
N6A C3A 1_555 1_555
C1A N1A 1_555 1_555
H5A C1A 1_555 1_555
C2A N3A 1_555 1_555
H6A C2A 1_555 1_555
C3A N4A 1_555 1_555
H7A C3A 1_555 1_555
C4A N5A 1_555 1_555
H8A C4A 1_555 1_555
C5A N3A 1_555 1_555
C6A C5A 1_555 1_555
H9A C6A 1_555 1_555
H10A C6A 1_555 1_555
C7A C6A 1_555 1_555
H11A C7A 1_555 1_555
C8A C7A 1_555 1_555
H12A C8A 1_555 1_555
H13A C8A 1_555 1_555
C9A C8A 1_555 1_555
C10A C5A 1_555 1_555
H14A C10A 1_555 1_555
H15A C10A 1_555 1_555
C11A C5A 1_555 1_555
H16A C11A 1_555 1_555
H17A C11A 1_555 1_555
C12A C11A 1_555 1_555
H18A C12A 1_555 1_555
C13A C7A 1_555 1_555
H19A C13A 1_555 1_555
H20A C13A 1_555 1_555
C14A C9A 1_555 1_555
H21A C14A 1_555 1_555
H22A C14A 1_555 1_555
C15A N6A 1_555 1_555
C16A C15A 1_555 1_555
H23A C16A 1_555 1_555
H24A C16A 1_555 1_555
C17A C16A 1_555 1_555
H25A C17A 1_555 1_555
C18A C17A 1_555 1_555
H26A C18A 1_555 1_555
H27A C18A 1_555 1_555
C19A C18A 1_555 1_555
H28A C19A 1_555 1_555
C20A C15A 1_555 1_555
H29A C20A 1_555 1_555
H30A C20A 1_555 1_555
C21A C15A 1_555 1_555
H31A C21A 1_555 1_555
H32A C21A 1_555 1_555
C22A C9A 1_555 1_555
C23A C17A 1_555 1_555
H33A C23A 1_555 1_555
H34A C23A 1_555 1_555
C24A C19A 1_555 1_555
H35A C24A 1_555 1_555
H36A C24A 1_555 1_555
N3 C2 1_555 1_555
C9 C10 1_555 1_555
C12 C13 1_555 1_555
C12 C14 1_555 1_555
C19 C20 1_555 1_555
C21 C22 1_555 1_555
C22 C23 1_555 1_555
C22 C24 1_555 1_555
N6A C4A 1_555 1_555
C9A C10A 1_555 1_555
C12A C13A 1_555 1_555
C12A C14A 1_555 1_555
C19A C20A 1_555 1_555
C21A C22A 1_555 1_555
C22A C23A 1_555 1_555
C22A C24A 1_555 1_555

#END
