
#######################################################################
#
#                 Cambridge Crystallographic Data Centre
#                                CCDC 
#
#######################################################################
#
# If this CIF has been generated from an entry in the Cambridge 
# Structural Database, then it will include bibliographic, chemical, 
# crystal, experimental, refinement or atomic coordinate data resulting 
# from the CCDC's data processing and validation procedures.
#
#######################################################################

data_QUXFOF
_symmetry_cell_setting           triclinic
_symmetry_space_group_name_H-M   'P -1'
_symmetry_Int_Tables_number      2
_space_group_name_Hall           '-P 1'
loop_
_symmetry_equiv_pos_site_id
_symmetry_equiv_pos_as_xyz
1 x,y,z
2 -x,-y,-z
_cell_length_a                   10.5228(2)
_cell_length_b                   19.1361(3)
_cell_length_c                   26.6008(4)
_cell_angle_alpha                70.537(2)
_cell_angle_beta                 78.836(3)
_cell_angle_gamma                88.485(3)
_cell_volume                     4950.63
loop_
_atom_site_label
_atom_site_type_symbol
_atom_site_fract_x
_atom_site_fract_y
_atom_site_fract_z
Mn1 Mn 0.29102(3) 0.092307(17) 0.156751(12)
Mn2 Mn -0.02201(3) 0.133661(17) 0.112030(12)
O1 O -0.00798(14) 0.01586(8) 0.14766(6)
O2 O 0.19077(14) -0.00928(8) 0.16623(6)
O3 O 0.32961(14) 0.13578(8) 0.06967(6)
O4 O 0.13544(14) 0.15161(8) 0.04538(6)
O5 O 0.10170(14) 0.28937(8) 0.11920(6)
O6 O -0.05798(14) 0.25125(8) 0.08837(6)
O7 O 0.05950(15) 0.08986(9) 0.26520(6)
O8 O 0.26278(14) 0.05493(9) 0.24495(6)
O9 O 0.11046(14) 0.15084(8) 0.16200(6)
H1 H 0.085(3) 0.1322(15) 0.1999(12)
H2 H 0.112(3) 0.2027(10) 0.1476(13)
O10 O 0.40261(14) 0.18976(8) 0.15298(6)
O11 O 0.84871(14) 0.11306(8) 0.06165(6)
N1 N 0.79426(17) 0.12154(10) 0.17872(7)
N2 N 0.47393(17) 0.02732(10) 0.14640(7)
N3 N 0.83418(17) 0.05090(10) 0.00421(7)
N4 N 0.45429(17) 0.27187(10) 0.19043(7)
C1 C 0.0784(2) -0.02758(12) 0.16489(8)
C2 C 0.0427(2) -0.10932(11) 0.18415(8)
C3 C -0.0853(2) -0.13269(12) 0.19115(8)
H5 H -0.1495 -0.0980 0.1870
C4 C -0.1182(2) -0.20697(12) 0.20415(9)
H6 H -0.2045 -0.2217 0.2088
C5 C -0.0241(2) -0.25999(12) 0.21033(9)
C6 C 0.1028(2) -0.23687(12) 0.20604(9)
H7 H 0.1662 -0.2718 0.2120
C7 C 0.1363(2) -0.16242(12) 0.19306(9)
H8 H 0.2218 -0.1479 0.1903
C8 C -0.0587(2) -0.33925(12) 0.21777(10)
H9 H 0.0082 -0.3707 0.2316
H10 H -0.0667 -0.3431 0.1834
H11 H -0.1395 -0.3545 0.2431
C9 C 0.2572(2) 0.15832(11) 0.03538(8)
C10 C 0.3218(2) 0.19464(11) -0.02273(8)
C11 C 0.2489(2) 0.23152(12) -0.06148(9)
H12 H 0.1593 0.2321 -0.0513
C12 C 0.3087(2) 0.26728(13) -0.11504(9)
H13 H 0.2587 0.2920 -0.1403
C13 C 0.4422(2) 0.26688(12) -0.13162(9)
C14 C 0.5145(2) 0.22896(13) -0.09326(9)
H14 H 0.6037 0.2270 -0.1037
C15 C 0.4551(2) 0.19386(12) -0.03941(9)
H15 H 0.5054 0.1695 -0.0142
C16 C 0.5066(3) 0.30636(14) -0.18978(9)
H16 H 0.4432 0.3328 -0.2097
H17 H 0.5447 0.2708 -0.2059
H18 H 0.5728 0.3407 -0.1909
C17 C 0.0039(2) 0.30073(11) 0.09722(8)
C18 C -0.0438(2) 0.37802(12) 0.08131(8)
C19 C -0.1414(2) 0.39756(13) 0.05159(10)
H19 H -0.1782 0.3622 0.0412
C20 C -0.1848(2) 0.46928(13) 0.03717(10)
H20 H -0.2504 0.4813 0.0172
C21 C -0.1322(2) 0.52330(13) 0.05200(9)
C22 C -0.0330(2) 0.50357(13) 0.08122(10)
H21 H 0.0050 0.5391 0.0911
C23 C 0.0104(2) 0.43205(12) 0.09590(9)
H22 H 0.0764 0.4200 0.1157
C24 C -0.1783(2) 0.60127(13) 0.03638(11)
H23 H -0.1075 0.6352 0.0311
H24 H -0.2463 0.6057 0.0648
H25 H -0.2105 0.6127 0.0033
C25 C 0.1568(2) 0.05343(12) 0.27750(9)
C26 C 0.1452(2) 0.00386(12) 0.33574(9)
C27 C 0.0350(2) 0.00399(14) 0.37437(9)
H26 H -0.0304 0.0362 0.3645
C28 C 0.0225(3) -0.04345(15) 0.42726(10)
H27 H -0.0509 -0.0419 0.4527
C29 C 0.1168(3) -0.09347(14) 0.44339(10)
C30 C 0.2254(3) -0.09338(14) 0.40479(11)
H28 H 0.2900 -0.1264 0.4146
C31 C 0.2404(2) -0.04492(13) 0.35141(10)
H29 H 0.3150 -0.0455 0.3263
C32 C 0.0996(3) -0.14617(17) 0.50102(11)
H30 H 0.0816 -0.1187 0.5257
H31 H 0.1775 -0.1726 0.5060
H32 H 0.0286 -0.1808 0.5080
C33 C 0.7759(2) 0.07042(11) 0.22842(9)
H33 H 0.8434 0.0398 0.2383
C34 C 0.6608(2) 0.06135(12) 0.26569(9)
H34 H 0.6519 0.0256 0.3000
C35 C 0.5591(2) 0.10575(12) 0.25143(9)
H35 H 0.4802 0.0997 0.2756
C36 C 0.57713(19) 0.15955(11) 0.20030(8)
C37 C 0.69619(19) 0.16563(11) 0.16559(8)
H36 H 0.7086 0.2021 0.1315
C38 C 0.4733(2) -0.04641(12) 0.17108(9)
H37 H 0.4031 -0.0693 0.1985
C39 C 0.5722(2) -0.08989(12) 0.15759(9)
H38 H 0.5682 -0.1408 0.1756
C40 C 0.6768(2) -0.05651(12) 0.11698(9)
H39 H 0.7433 -0.0848 0.1066
C41 C 0.6813(2) 0.02013(11) 0.09173(8)
C42 C 0.5773(2) 0.05918(11) 0.10813(8)
H40 H 0.5799 0.1104 0.0915
C43 C 0.79495(19) 0.06378(11) 0.05116(8)
C44 C 0.7643(2) 0.00135(13) -0.01427(9)
H41 H 0.7213 -0.0388 0.0173
H42 H 0.8267 -0.0203 -0.0362
C45 C 0.6646(2) 0.03952(14) -0.04705(10)
H43 H 0.6249 0.0046 -0.0587
H44 H 0.7061 0.0796 -0.0783
H45 H 0.5995 0.0586 -0.0250
C46 C 0.9449(2) 0.09632(12) -0.03440(9)
H46 H 0.9768 0.0736 -0.0618
H47 H 1.0140 0.0968 -0.0151
C47 C 0.9114(2) 0.17535(13) -0.06227(10)
H48 H 0.9843 0.2008 -0.0896
H49 H 0.8905 0.2002 -0.0359
H50 H 0.8383 0.1753 -0.0789
C48 C 0.47036(19) 0.20863(12) 0.18015(8)
C49 C 0.3529(2) 0.32107(13) 0.16928(10)
H51 H 0.3339 0.3552 0.1895
H52 H 0.2745 0.2913 0.1756
C50 C 0.3893(2) 0.36527(14) 0.10934(10)
H53 H 0.3243 0.4005 0.0993
H54 H 0.3954 0.3323 0.0886
H55 H 0.4714 0.3911 0.1020
C51 C 0.5357(2) 0.29619(13) 0.22146(9)
H56 H 0.5711 0.2529 0.2448
H57 H 0.4816 0.3197 0.2446
C52 C 0.6457(2) 0.34963(14) 0.18583(11)
H58 H 0.6961 0.3623 0.2082
H59 H 0.6113 0.3937 0.1639
H60 H 0.6997 0.3268 0.1627
Mn2_2 Mn 0.97799(3) 0.133661(17) 0.112030(12)
O11_2 O -0.15129(14) 0.11306(8) 0.06165(6)
N1_2 N -0.20574(17) 0.12154(10) 0.17872(7)
Mn3 Mn 0.20220(3) 0.461244(17) 0.326281(12)
Mn4 Mn 0.51449(3) 0.407633(17) 0.366892(12)
O12 O 0.35950(14) 0.37541(9) 0.43431(6)
O13 O 0.16363(14) 0.39528(8) 0.41208(6)
O14 O 0.49611(14) 0.52498(8) 0.34726(6)
O15 O 0.30051(14) 0.55792(8) 0.32796(6)
O16 O 0.42449(14) 0.47310(9) 0.21309(6)
O17 O 0.22779(14) 0.51251(8) 0.23789(6)
O18 O 0.38854(15) 0.25966(8) 0.35204(6)
O19 O 0.55809(14) 0.29317(8) 0.37939(6)
O20 O -0.34899(13) 0.41069(8) 0.41920(6)
O21 O 0.08786(14) 0.37412(8) 0.31793(6)
O22 O 0.37934(14) 0.40100(9) 0.31456(6)
H3 H 0.406(2) 0.4217(14) 0.2775(11)
H4 H 0.374(3) 0.347(2) 0.3269(14)
N5 N 0.01818(16) 0.51791(10) 0.35032(7)
N6 N -0.31009(16) 0.43439(9) 0.29721(7)
N7 N -0.34557(17) 0.44424(10) 0.49232(7)
N8 N 0.03462(17) 0.29462(10) 0.27868(7)
C53 C 0.2385(2) 0.36444(11) 0.44399(8)
C54 C 0.1792(2) 0.31129(11) 0.49916(8)
C55 C 0.0468(2) 0.30495(12) 0.51870(9)
H61 H -0.0082 0.3327 0.4968
C56 C -0.0045(2) 0.25787(13) 0.57045(9)
H62 H -0.0938 0.2550 0.5829
C57 C 0.0741(2) 0.21472(12) 0.60428(9)
C58 C 0.2070(2) 0.21989(12) 0.58382(9)
H63 H 0.2618 0.1908 0.6052
C59 C 0.2591(2) 0.26750(12) 0.53229(9)
H64 H 0.3483 0.2703 0.5196
C60 C 0.0182(3) 0.16500(14) 0.66114(10)
H65 H 0.0653 0.1203 0.6696
H66 H -0.0713 0.1529 0.6637
H67 H 0.0250 0.1901 0.6864
C61 C 0.4106(2) 0.57161(12) 0.33415(8)
C62 C 0.4477(2) 0.65083(11) 0.32589(8)
C63 C 0.3573(2) 0.70589(12) 0.32052(9)
H68 H 0.2711 0.6941 0.3220
C64 C 0.3946(2) 0.77828(12) 0.31296(9)
H69 H 0.3330 0.8145 0.3095
C65 C 0.5228(2) 0.79759(12) 0.31052(9)
C66 C 0.6129(2) 0.74237(12) 0.31522(9)
H70 H 0.6992 0.7541 0.3134
C67 C 0.5759(2) 0.67020(12) 0.32261(8)
H71 H 0.6378 0.6342 0.3254
C68 C 0.5636(2) 0.87545(12) 0.30437(10)
H72 H 0.5172 0.9104 0.2800
H73 H 0.6550 0.8835 0.2900
H74 H 0.5446 0.8821 0.3392
C69 C 0.3274(2) 0.51141(12) 0.20306(9)
C70 C 0.3331(2) 0.56018(12) 0.14482(8)
C71 C 0.2283(2) 0.60070(12) 0.12891(9)
H75 H 0.1515 0.5965 0.1540
C72 C 0.2373(2) 0.64770(13) 0.07557(10)
H76 H 0.1654 0.6738 0.0654
C73 C 0.3505(2) 0.65661(13) 0.03725(9)
C74 C 0.4538(2) 0.61449(14) 0.05329(9)
H77 H 0.5302 0.6182 0.0280
C75 C 0.4457(2) 0.56714(13) 0.10592(9)
H78 H 0.5166 0.5395 0.1155
C76 C 0.3644(3) 0.71158(14) -0.01987(10)
H79 H 0.4412 0.7426 -0.0283
H80 H 0.2900 0.7418 -0.0223
H81 H 0.3709 0.6852 -0.0452
C77 C 0.4867(2) 0.24556(12) 0.37353(8)
C78 C 0.5223(2) 0.16569(12) 0.39390(9)
C79 C 0.4467(2) 0.11043(12) 0.38984(9)
H82 H 0.3736 0.1228 0.3744
C80 C 0.4790(2) 0.03679(13) 0.40862(10)
H83 H 0.4263 0.0004 0.4060
C81 C 0.5883(2) 0.01624(13) 0.43122(10)
C82 C 0.6634(3) 0.07218(14) 0.43503(11)
H84 H 0.7368 0.0600 0.4503
C83 C 0.6311(2) 0.14594(13) 0.41647(10)
H85 H 0.6833 0.1824 0.4193
C84 C 0.6237(3) -0.06375(13) 0.45167(11)
H86 H 0.5581 -0.0947 0.4481
H87 H 0.6300 -0.0773 0.4892
H88 H 0.7055 -0.0702 0.4307
C85 C -0.08494(19) 0.47597(12) 0.38283(8)
H89 H -0.0835 0.4250 0.3899
C86 C -0.19401(19) 0.50452(12) 0.40655(8)
C87 C -0.1961(2) 0.58115(12) 0.39485(9)
H90 H -0.2671 0.6026 0.4099
C88 C -0.0908(2) 0.62472(12) 0.36043(9)
H91 H -0.0906 0.6760 0.3515
C89 C 0.0139(2) 0.59133(12) 0.33947(9)
H92 H 0.0848 0.6211 0.3167
C90 C -0.2968(2) 0.48943(11) 0.24927(8)
H93 H -0.3677 0.5181 0.2412
C91 C -0.1823(2) 0.50526(12) 0.21137(9)
H94 H -0.1773 0.5434 0.1783
C92 C -0.0753(2) 0.46414(12) 0.22288(9)
H95 H 0.0036 0.4752 0.1985
C93 C -0.0886(2) 0.40577(11) 0.27179(8)
C94 C -0.20741(19) 0.39322(11) 0.30731(8)
H96 H -0.2162 0.3540 0.3400
C95 C -0.30363(19) 0.45079(12) 0.44036(8)
C96 C -0.2860(2) 0.48486(13) 0.52104(9)
H97 H -0.3505 0.4891 0.5512
H98 H -0.2600 0.5346 0.4963
C97 C -0.1691(2) 0.44791(14) 0.54251(10)
H99 H -0.1366 0.4759 0.5617
H100 H -0.1028 0.4460 0.5127
H101 H -0.1938 0.3984 0.5668
C98 C -0.4454(2) 0.38594(13) 0.52469(9)
H102 H -0.5143 0.3888 0.5046
H103 H -0.4825 0.3950 0.5582
C99 C -0.3937(2) 0.30848(14) 0.53846(10)
H104 H -0.4611 0.2732 0.5620
H105 H -0.3221 0.3061 0.5564
H106 H -0.3652 0.2971 0.5056
C100 C 0.01980(19) 0.35729(12) 0.29004(8)
C101 C 0.1292(2) 0.24234(12) 0.30289(9)
H107 H 0.2107 0.2691 0.2970
H108 H 0.1446 0.2056 0.2848
C102 C 0.0828(2) 0.20352(14) 0.36308(10)
H109 H 0.1444 0.1678 0.3768
H110 H 0.0003 0.1787 0.3692
H111 H 0.0742 0.2393 0.3815
C103 C -0.0447(2) 0.27293(13) 0.24597(9)
H112 H 0.0103 0.2505 0.2223
H113 H -0.0790 0.3171 0.2231
C104 C -0.1561(2) 0.21903(13) 0.27990(10)
H114 H -0.2054 0.2081 0.2564
H115 H -0.2109 0.2407 0.3036
H116 H -0.1227 0.1741 0.3012
Mn4_2 Mn -0.48551(3) 0.407633(17) 0.366892(12)
O20_2 O 0.65101(13) 0.41069(8) 0.41920(6)
N6_2 N 0.68991(16) 0.43439(9) 0.29721(7)
loop_
_geom_bond_atom_site_label_1
_geom_bond_atom_site_label_2
_geom_bond_site_symmetry_1
_geom_bond_site_symmetry_2
Mn1 O2 1_555 1_555
Mn2 O1 1_555 1_555
Mn3 O13 1_555 1_555
Mn4 O12 1_555 1_555
O1 C1 1_555 1_555
O2 C1 1_555 1_555
O3 Mn1 1_555 1_555
O4 Mn2 1_555 1_555
O5 C17 1_555 1_555
O6 Mn2 1_555 1_555
O7 C25 1_555 1_555
O8 Mn1 1_555 1_555
O9 Mn1 1_555 1_555
H1 O9 1_555 1_555
H2 O9 1_555 1_555
O10 Mn1 1_555 1_555
O11 C43 1_555 1_555
O12 C53 1_555 1_555
O13 C53 1_555 1_555
O14 Mn4 1_555 1_555
O15 Mn3 1_555 1_555
O16 C69 1_555 1_555
O17 Mn3 1_555 1_555
O18 C77 1_555 1_555
O19 Mn4 1_555 1_555
O20 C95 1_555 1_555
O21 Mn3 1_555 1_555
O22 Mn3 1_555 1_555
H3 O22 1_555 1_555
H4 O22 1_555 1_555
N1 C33 1_555 1_555
N2 Mn1 1_555 1_555
N3 C43 1_555 1_555
N4 C48 1_555 1_555
N5 Mn3 1_555 1_555
N6 C90 1_555 1_555
N7 C95 1_555 1_555
N8 C100 1_555 1_555
C1 C2 1_555 1_555
C2 C3 1_555 1_555
C3 H5 1_555 1_555
C4 C3 1_555 1_555
H6 C4 1_555 1_555
C5 C4 1_555 1_555
C6 C5 1_555 1_555
H7 C6 1_555 1_555
C7 C2 1_555 1_555
H8 C7 1_555 1_555
C8 C5 1_555 1_555
H9 C8 1_555 1_555
H10 C8 1_555 1_555
H11 C8 1_555 1_555
C9 O3 1_555 1_555
C10 C9 1_555 1_555
C11 C10 1_555 1_555
H12 C11 1_555 1_555
C12 C11 1_555 1_555
H13 C12 1_555 1_555
C13 C12 1_555 1_555
C14 C13 1_555 1_555
H14 C14 1_555 1_555
C15 C10 1_555 1_555
H15 C15 1_555 1_555
C16 C13 1_555 1_555
H16 C16 1_555 1_555
H17 C16 1_555 1_555
H18 C16 1_555 1_555
C17 O6 1_555 1_555
C18 C17 1_555 1_555
C19 C18 1_555 1_555
H19 C19 1_555 1_555
C20 C19 1_555 1_555
H20 C20 1_555 1_555
C21 C20 1_555 1_555
C22 C21 1_555 1_555
H21 C22 1_555 1_555
C23 C18 1_555 1_555
H22 C23 1_555 1_555
C24 C21 1_555 1_555
H23 C24 1_555 1_555
H24 C24 1_555 1_555
H25 C24 1_555 1_555
C25 O8 1_555 1_555
C26 C25 1_555 1_555
C27 C26 1_555 1_555
H26 C27 1_555 1_555
C28 C27 1_555 1_555
H27 C28 1_555 1_555
C29 C28 1_555 1_555
C30 C29 1_555 1_555
H28 C30 1_555 1_555
C31 C26 1_555 1_555
H29 C31 1_555 1_555
C32 C29 1_555 1_555
H30 C32 1_555 1_555
H31 C32 1_555 1_555
H32 C32 1_555 1_555
C33 H33 1_555 1_555
C34 C33 1_555 1_555
H34 C34 1_555 1_555
C35 C34 1_555 1_555
H35 C35 1_555 1_555
C36 C35 1_555 1_555
C37 N1 1_555 1_555
H36 C37 1_555 1_555
C38 N2 1_555 1_555
H37 C38 1_555 1_555
C39 C38 1_555 1_555
H38 C39 1_555 1_555
C40 C39 1_555 1_555
H39 C40 1_555 1_555
C41 C40 1_555 1_555
C42 N2 1_555 1_555
H40 C42 1_555 1_555
C43 C41 1_555 1_555
C44 N3 1_555 1_555
H41 C44 1_555 1_555
H42 C44 1_555 1_555
C45 C44 1_555 1_555
H43 C45 1_555 1_555
H44 C45 1_555 1_555
H45 C45 1_555 1_555
C46 N3 1_555 1_555
H46 C46 1_555 1_555
H47 C46 1_555 1_555
C47 C46 1_555 1_555
H48 C47 1_555 1_555
H49 C47 1_555 1_555
H50 C47 1_555 1_555
C48 O10 1_555 1_555
C49 N4 1_555 1_555
H51 C49 1_555 1_555
H52 C49 1_555 1_555
C50 C49 1_555 1_555
H53 C50 1_555 1_555
H54 C50 1_555 1_555
H55 C50 1_555 1_555
C51 N4 1_555 1_555
H56 C51 1_555 1_555
H57 C51 1_555 1_555
C52 C51 1_555 1_555
H58 C52 1_555 1_555
H59 C52 1_555 1_555
H60 C52 1_555 1_555
C53 C54 1_555 1_555
C54 C55 1_555 1_555
C55 H61 1_555 1_555
C56 C55 1_555 1_555
H62 C56 1_555 1_555
C57 C56 1_555 1_555
C58 C57 1_555 1_555
H63 C58 1_555 1_555
C59 C54 1_555 1_555
H64 C59 1_555 1_555
C60 C57 1_555 1_555
H65 C60 1_555 1_555
H66 C60 1_555 1_555
H67 C60 1_555 1_555
C61 O14 1_555 1_555
C62 C61 1_555 1_555
C63 C62 1_555 1_555
H68 C63 1_555 1_555
C64 C63 1_555 1_555
H69 C64 1_555 1_555
C65 C64 1_555 1_555
C66 C65 1_555 1_555
H70 C66 1_555 1_555
C67 C62 1_555 1_555
H71 C67 1_555 1_555
C68 C65 1_555 1_555
H72 C68 1_555 1_555
H73 C68 1_555 1_555
H74 C68 1_555 1_555
C69 O17 1_555 1_555
C70 C69 1_555 1_555
C71 C70 1_555 1_555
H75 C71 1_555 1_555
C72 C71 1_555 1_555
H76 C72 1_555 1_555
C73 C72 1_555 1_555
C74 C73 1_555 1_555
H77 C74 1_555 1_555
C75 C70 1_555 1_555
H78 C75 1_555 1_555
C76 C73 1_555 1_555
H79 C76 1_555 1_555
H80 C76 1_555 1_555
H81 C76 1_555 1_555
C77 O19 1_555 1_555
C78 C77 1_555 1_555
C79 C78 1_555 1_555
H82 C79 1_555 1_555
C80 C79 1_555 1_555
H83 C80 1_555 1_555
C81 C80 1_555 1_555
C82 C81 1_555 1_555
H84 C82 1_555 1_555
C83 C78 1_555 1_555
H85 C83 1_555 1_555
C84 C81 1_555 1_555
H86 C84 1_555 1_555
H87 C84 1_555 1_555
H88 C84 1_555 1_555
C85 N5 1_555 1_555
H89 C85 1_555 1_555
C86 C85 1_555 1_555
C87 C86 1_555 1_555
H90 C87 1_555 1_555
C88 C87 1_555 1_555
H91 C88 1_555 1_555
C89 N5 1_555 1_555
H92 C89 1_555 1_555
C90 H93 1_555 1_555
C91 C90 1_555 1_555
H94 C91 1_555 1_555
C92 C91 1_555 1_555
H95 C92 1_555 1_555
C93 C92 1_555 1_555
C94 N6 1_555 1_555
H96 C94 1_555 1_555
C95 C86 1_555 1_555
C96 N7 1_555 1_555
H97 C96 1_555 1_555
H98 C96 1_555 1_555
C97 C96 1_555 1_555
H99 C97 1_555 1_555
H100 C97 1_555 1_555
H101 C97 1_555 1_555
C98 N7 1_555 1_555
H102 C98 1_555 1_555
H103 C98 1_555 1_555
C99 C98 1_555 1_555
H104 C99 1_555 1_555
H105 C99 1_555 1_555
H106 C99 1_555 1_555
C100 O21 1_555 1_555
C101 N8 1_555 1_555
H107 C101 1_555 1_555
H108 C101 1_555 1_555
C102 C101 1_555 1_555
H109 C102 1_555 1_555
H110 C102 1_555 1_555
H111 C102 1_555 1_555
C103 N8 1_555 1_555
H112 C103 1_555 1_555
H113 C103 1_555 1_555
C104 C103 1_555 1_555
H114 C104 1_555 1_555
H115 C104 1_555 1_555
H116 C104 1_555 1_555
Mn2_2 O11 1_555 1_555
Mn4_2 O20 1_555 1_555
O11_2 Mn2 1_555 1_555
O20_2 Mn4 1_555 1_555
N1_2 Mn2 1_555 1_555
N6_2 Mn4 1_555 1_555
Mn2 O9 1_555 1_555
Mn4 O22 1_555 1_555
O4 C9 1_555 1_555
O15 C61 1_555 1_555
N1 Mn2_2 1_555 1_555
N6 Mn4_2 1_555 1_555
C6 C7 1_555 1_555
C14 C15 1_555 1_555
C22 C23 1_555 1_555
C30 C31 1_555 1_555
C36 C37 1_555 1_555
C36 C48 1_555 1_555
C41 C42 1_555 1_555
C58 C59 1_555 1_555
C66 C67 1_555 1_555
C74 C75 1_555 1_555
C82 C83 1_555 1_555
C88 C89 1_555 1_555
C93 C94 1_555 1_555
C93 C100 1_555 1_555

#END
