
#######################################################################
#
#                 Cambridge Crystallographic Data Centre
#                                CCDC 
#
#######################################################################
#
# If this CIF has been generated from an entry in the Cambridge 
# Structural Database, then it will include bibliographic, chemical, 
# crystal, experimental, refinement or atomic coordinate data resulting 
# from the CCDC's data processing and validation procedures.
#
#######################################################################

data_QUXGOG
_symmetry_cell_setting           orthorhombic
_symmetry_space_group_name_H-M   'F d d 2'
_symmetry_Int_Tables_number      43
_space_group_name_Hall           'F 2 -2d'
loop_
_symmetry_equiv_pos_site_id
_symmetry_equiv_pos_as_xyz
1 x,y,z
2 -x,-y,z
3 1/4+x,1/4-y,1/4+z
4 1/4-x,1/4+y,1/4+z
5 x,1/2+y,1/2+z
6 -x,1/2-y,1/2+z
7 1/4+x,3/4-y,3/4+z
8 1/4-x,3/4+y,3/4+z
9 1/2+x,y,1/2+z
10 1/2-x,-y,1/2+z
11 3/4+x,1/4-y,3/4+z
12 3/4-x,1/4+y,3/4+z
13 1/2+x,1/2+y,z
14 1/2-x,1/2-y,z
15 3/4+x,3/4-y,1/4+z
16 3/4-x,3/4+y,1/4+z
_cell_length_a                   20.4069(8)
_cell_length_b                   33.0633(15)
_cell_length_c                   8.3750(3)
_cell_angle_alpha                90
_cell_angle_beta                 90
_cell_angle_gamma                90
_cell_volume                     5650.78
loop_
_atom_site_label
_atom_site_type_symbol
_atom_site_fract_x
_atom_site_fract_y
_atom_site_fract_z
Co1 Co 0.60574(2) 0.227474(17) 0.78759(6)
N1 N 0.55104(15) 0.27269(10) 0.6504(4)
N2 N 0.47521(15) 0.28919(10) 0.4458(5)
C1 C 0.50711(17) 0.26316(13) 0.5388(6)
H1 H 0.4979 0.2358 0.5246
C2 C 0.4883(2) 0.32854(13) 0.4677(6)
H2 H 0.4672 0.3477 0.4048
C3 C 0.5320(2) 0.34078(14) 0.5813(6)
H3 H 0.5410 0.3681 0.5959
C4 C 0.5623(2) 0.31226(13) 0.6730(6)
H4 H 0.5912 0.3204 0.7526
N3 N 0.69371(15) 0.24124(11) 0.6493(4)
C5 C 0.7500 0.2500 0.7228(7)
H5 H 0.7500 0.2500 0.8339
C6 C 0.7500 0.2500 0.4059(8)
H6 H 0.7500 0.2500 0.2948
C7 C 0.6944(2) 0.24140(17) 0.4914(6)
H7 H 0.6559 0.2355 0.4366
N4 N 0.57994(17) 0.18287(12) 0.6270(5)
C8 C 0.56005(17) 0.15562(13) 0.5553(5)
Se1 Se 0.53008(3) 0.114405(17) 0.44108(7)
N5 N 0.63231(16) 0.26940(12) 0.9575(5)
C9 C 0.63448(17) 0.29139(13) 1.0643(5)
Se2 Se 0.63665(3) 0.324181(19) 1.23170(7)
O1 O 0.66187(15) 0.18255(10) 0.9111(4)
C10 C 0.6758(4) 0.1790(2) 1.0749(8)
H8 H 0.6359 0.1747 1.1328
H9 H 0.6964 0.2034 1.1118
H10 H 0.7048 0.1566 1.0918
H11 H 0.6862 0.1792 0.8352
Co1E Co 0.39426(2) 0.272526(17) 1.28759(6)
Co1E_2 Co 0.39426(2) 0.272526(17) 0.28759(6)
Co1M Co 0.89426(2) 0.272526(17) 0.78759(6)
N1E N 0.44896(15) 0.22731(10) 1.1504(4)
N2E N 0.52479(15) 0.21081(10) 0.9458(5)
N2_2 N 0.47521(15) 0.28919(10) 1.4458(5)
C1E C 0.49289(17) 0.23684(13) 1.0388(6)
H1E H 0.5021 0.2642 1.0246
C2E C 0.5117(2) 0.17146(13) 0.9677(6)
H2E H 0.5328 0.1523 0.9048
C3E C 0.4680(2) 0.15922(14) 1.0813(6)
H3E H 0.4590 0.1319 1.0959
C4E C 0.4377(2) 0.18774(13) 1.1730(6)
H4E H 0.4088 0.1796 1.2526
N3M N 0.80629(15) 0.25876(11) 0.6493(4)
N3E N 0.30629(15) 0.25876(11) 1.1493(4)
C7M C 0.8056(2) 0.25860(17) 0.4914(6)
H7M H 0.8441 0.2645 0.4366
N4E N 0.42006(17) 0.31713(12) 1.1270(5)
C8E C 0.43995(17) 0.34438(13) 1.0553(5)
Se1E Se 0.46992(3) 0.385595(17) 0.94108(7)
N5E N 0.36769(16) 0.23060(12) 1.4575(5)
C9E C 0.36552(17) 0.20861(13) 1.5643(5)
Se2E Se 0.36335(3) 0.175819(19) 1.73170(7)
O1E O 0.33813(15) 0.31745(10) 1.4111(4)
C10E C 0.3242(4) 0.3210(2) 1.5749(8)
H8E H 0.3641 0.3253 1.6328
H9E H 0.3036 0.2966 1.6118
H10E H 0.2952 0.3434 1.5918
H11E H 0.3138 0.3208 1.3352
loop_
_geom_bond_atom_site_label_1
_geom_bond_atom_site_label_2
_geom_bond_site_symmetry_1
_geom_bond_site_symmetry_2
Co1 N1 1_555 1_555
N1 C1 1_555 1_555
N2 C1 1_555 1_555
C1 H1 1_555 1_555
C2 N2 1_555 1_555
H2 C2 1_555 1_555
C3 C2 1_555 1_555
H3 C3 1_555 1_555
C4 N1 1_555 1_555
H4 C4 1_555 1_555
N3 Co1 1_555 1_555
C5 N3 1_555 1_555
H5 C5 1_555 1_555
C6 H6 1_555 1_555
C7 N3 1_555 1_555
H7 C7 1_555 1_555
N4 Co1 1_555 1_555
C8 N4 1_555 1_555
Se1 C8 1_555 1_555
N5 Co1 1_555 1_555
C9 N5 1_555 1_555
Se2 C9 1_555 1_555
O1 Co1 1_555 1_555
C10 O1 1_555 1_555
H8 C10 1_555 1_555
H9 C10 1_555 1_555
H10 C10 1_555 1_555
H11 O1 1_555 1_555
Co1E N1E 1_555 1_555
Co1E_2 N2 1_555 1_555
Co1M N3M 1_555 1_555
N1E C1E 1_555 1_555
N2E Co1 1_555 1_555
N2_2 Co1E 1_555 1_555
C1E N2E 1_555 1_555
H1E C1E 1_555 1_555
C2E N2E 1_555 1_555
H2E C2E 1_555 1_555
C3E C2E 1_555 1_555
H3E C3E 1_555 1_555
C4E N1E 1_555 1_555
H4E C4E 1_555 1_555
N3M C5 1_555 1_555
N3E Co1E 1_555 1_555
C7M C6 1_555 1_555
H7M C7M 1_555 1_555
N4E Co1E 1_555 1_555
C8E N4E 1_555 1_555
Se1E C8E 1_555 1_555
N5E Co1E 1_555 1_555
C9E N5E 1_555 1_555
Se2E C9E 1_555 1_555
O1E Co1E 1_555 1_555
C10E O1E 1_555 1_555
H8E C10E 1_555 1_555
H9E C10E 1_555 1_555
H10E C10E 1_555 1_555
H11E O1E 1_555 1_555
C3 C4 1_555 1_555
C6 C7 1_555 1_555
C3E C4E 1_555 1_555
N3M C7M 1_555 1_555

#END
