
#######################################################################
#
#                 Cambridge Crystallographic Data Centre
#                                CCDC 
#
#######################################################################
#
# If this CIF has been generated from an entry in the Cambridge 
# Structural Database, then it will include bibliographic, chemical, 
# crystal, experimental, refinement or atomic coordinate data resulting 
# from the CCDC's data processing and validation procedures.
#
#######################################################################

data_QUXHOH01
_symmetry_cell_setting           monoclinic
_symmetry_space_group_name_H-M   'P 21/c'
_symmetry_Int_Tables_number      14
_space_group_name_Hall           '-P 2ybc'
loop_
_symmetry_equiv_pos_site_id
_symmetry_equiv_pos_as_xyz
1 x,y,z
2 -x,1/2+y,1/2-z
3 -x,-y,-z
4 x,1/2-y,1/2+z
_cell_length_a                   7.8583(16)
_cell_length_b                   11.689(2)
_cell_length_c                   15.882(3)
_cell_angle_alpha                90
_cell_angle_beta                 93.82(3)
_cell_angle_gamma                90
_cell_volume                     1455.61
loop_
_atom_site_label
_atom_site_type_symbol
_atom_site_fract_x
_atom_site_fract_y
_atom_site_fract_z
Zn1 Zn 0.03756(4) 0.88757(3) 0.221856(19)
Cl1 Cl 0.16460(10) 1.03238(7) 0.15605(5)
Cl2 Cl -0.16703(11) 0.94302(9) 0.30450(5)
N1 N -0.0583(3) 0.7849(2) 0.12834(15)
N2 N -0.1741(4) 0.6401(3) 0.05838(18)
N3 N 0.2244(3) 0.7996(2) 0.28566(15)
N4 N 0.3570(3) 0.6570(2) 0.35199(15)
C1 C -0.1396(5) 0.6874(3) 0.1340(2)
H1 H -0.1695 0.6554 0.1845
C2 C -0.0383(5) 0.7996(3) 0.0444(2)
H2 H 0.0175 0.8607 0.0209
C3 C -0.1123(6) 0.7112(4) 0.0007(2)
H3 H -0.1192 0.7015 -0.0575
C4 C -0.2665(6) 0.5326(3) 0.0393(3)
H4 H -0.2590 0.4840 0.0890
H5 H -0.2132 0.4926 -0.0055
C5 C -0.4511(6) 0.5543(3) 0.0128(3)
H6 H -0.4577 0.6072 -0.0344
H7 H -0.5053 0.5904 0.0591
C6 C 0.2058(4) 0.7031(3) 0.32738(19)
H8 H 0.1011 0.6712 0.3383
C7 C 0.3969(4) 0.8154(3) 0.2830(2)
H9 H 0.4483 0.8769 0.2576
C8 C 0.4809(4) 0.7279(3) 0.3232(2)
H10 H 0.5984 0.7176 0.3299
C9 C 0.3835(4) 0.5474(3) 0.3955(2)
H11 H 0.4469 0.4969 0.3607
H12 H 0.2735 0.5123 0.4026
C10 C 0.4794(4) 0.5590(3) 0.48174(18)
H13 H 0.5842 0.6014 0.4762
H14 H 0.4102 0.6010 0.5195
Zn1B Zn -1.03756(4) 0.11243(3) -0.221856(19)
Zn1B_2 Zn 0.96244(4) 0.11243(3) 0.778144(19)
Cl1B Cl -1.16460(10) -0.03238(7) -0.15605(5)
Cl2B Cl -0.83297(11) 0.05698(9) -0.30450(5)
N1B N -0.9417(3) 0.2151(2) -0.12834(15)
N2B N -0.8259(4) 0.3599(3) -0.05838(18)
N3B N 0.7756(3) 0.2004(2) 0.71434(15)
N3B_2 N -1.2244(3) 0.2004(2) -0.28566(15)
N4B N 0.6430(3) 0.3430(2) 0.64801(15)
C1B C -0.8604(5) 0.3126(3) -0.1340(2)
H1B H -0.8305 0.3446 -0.1845
C2B C -0.9617(5) 0.2004(3) -0.0444(2)
H2B H -1.0175 0.1393 -0.0209
C3B C -0.8877(6) 0.2888(4) -0.0007(2)
H3B H -0.8808 0.2985 0.0575
C4B C -0.7335(6) 0.4674(3) -0.0393(3)
H4B H -0.7410 0.5160 -0.0890
H5B H -0.7868 0.5074 0.0055
C5B C -0.5489(6) 0.4457(3) -0.0128(3)
H6B H -0.5423 0.3928 0.0344
H7B H -0.4947 0.4096 -0.0591
C6B C 0.7942(4) 0.2969(3) 0.67262(19)
H8B H 0.8989 0.3288 0.6617
C7B C 0.6031(4) 0.1846(3) 0.7170(2)
H9B H 0.5517 0.1231 0.7424
C8B C 0.5191(4) 0.2721(3) 0.6768(2)
H10B H 0.4016 0.2824 0.6701
C9B C 0.6165(4) 0.4526(3) 0.6045(2)
H11B H 0.5531 0.5031 0.6393
H12B H 0.7265 0.4877 0.5974
C10B C 0.5206(4) 0.4410(3) 0.51826(18)
H13B H 0.4158 0.3986 0.5238
H14B H 0.5898 0.3990 0.4805
loop_
_geom_bond_atom_site_label_1
_geom_bond_atom_site_label_2
_geom_bond_site_symmetry_1
_geom_bond_site_symmetry_2
Zn1 Cl1 1_555 1_555
Cl2 Zn1 1_555 1_555
N1 Zn1 1_555 1_555
N2 C1 1_555 1_555
N3 Zn1 1_555 1_555
N4 C6 1_555 1_555
C1 N1 1_555 1_555
H1 C1 1_555 1_555
C2 N1 1_555 1_555
H2 C2 1_555 1_555
C3 N2 1_555 1_555
H3 C3 1_555 1_555
C4 N2 1_555 1_555
H4 C4 1_555 1_555
H5 C4 1_555 1_555
C5 C4 1_555 1_555
H6 C5 1_555 1_555
H7 C5 1_555 1_555
C6 N3 1_555 1_555
H8 C6 1_555 1_555
C7 N3 1_555 1_555
H9 C7 1_555 1_555
C8 N4 1_555 1_555
H10 C8 1_555 1_555
C9 N4 1_555 1_555
H11 C9 1_555 1_555
H12 C9 1_555 1_555
C10 C9 1_555 1_555
H13 C10 1_555 1_555
H14 C10 1_555 1_555
Zn1B Cl1B 1_555 1_555
Zn1B_2 N3B 1_555 1_555
Cl2B Zn1B 1_555 1_555
N1B Zn1B 1_555 1_555
N2B C1B 1_555 1_555
N3B C6B 1_555 1_555
N3B_2 Zn1B 1_555 1_555
N4B C6B 1_555 1_555
C1B N1B 1_555 1_555
H1B C1B 1_555 1_555
C2B N1B 1_555 1_555
H2B C2B 1_555 1_555
C3B N2B 1_555 1_555
H3B C3B 1_555 1_555
C4B N2B 1_555 1_555
H4B C4B 1_555 1_555
H5B C4B 1_555 1_555
C5B C5 1_555 1_555
H6B C5B 1_555 1_555
H7B C5B 1_555 1_555
C6B H8B 1_555 1_555
C7B N3B 1_555 1_555
H9B C7B 1_555 1_555
C8B N4B 1_555 1_555
H10B C8B 1_555 1_555
C9B N4B 1_555 1_555
H11B C9B 1_555 1_555
H12B C9B 1_555 1_555
C10B C10 1_555 1_555
H13B C10B 1_555 1_555
H14B C10B 1_555 1_555
C2 C3 1_555 1_555
C7 C8 1_555 1_555
C2B C3B 1_555 1_555
C4B C5B 1_555 1_555
C7B C8B 1_555 1_555
C9B C10B 1_555 1_555

#END
