
#######################################################################
#
#                 Cambridge Crystallographic Data Centre
#                                CCDC 
#
#######################################################################
#
# If this CIF has been generated from an entry in the Cambridge 
# Structural Database, then it will include bibliographic, chemical, 
# crystal, experimental, refinement or atomic coordinate data resulting 
# from the CCDC's data processing and validation procedures.
#
#######################################################################

data_QUXTAF
_symmetry_cell_setting           monoclinic
_symmetry_space_group_name_H-M   'C 2/c'
_symmetry_Int_Tables_number      15
_space_group_name_Hall           '-C 2yn'
loop_
_symmetry_equiv_pos_site_id
_symmetry_equiv_pos_as_xyz
1 x,y,z
2 -x,y,1/2-z
3 1/2+x,1/2+y,z
4 1/2-x,1/2+y,1/2-z
5 -x,-y,-z
6 x,-y,1/2+z
7 1/2-x,1/2-y,-z
8 1/2+x,1/2-y,1/2+z
_cell_length_a                   20.054(8)
_cell_length_b                   6.299(2)
_cell_length_c                   14.761(6)
_cell_angle_alpha                90
_cell_angle_beta                 111.500(6)
_cell_angle_gamma                90
_cell_volume                     1734.87
loop_
_atom_site_label
_atom_site_type_symbol
_atom_site_fract_x
_atom_site_fract_y
_atom_site_fract_z
Zn1 Zn 0.0000 0.39350(5) 0.2500
O1 O 0.07418(8) 0.5959(2) 0.32459(12)
O2 O 0.12091(8) 0.3122(3) 0.41504(13)
N1 N 0.04941(9) 0.1981(3) 0.18419(13)
C1 C 0.18900(10) 0.6311(3) 0.44879(15)
C2 C 0.24474(11) 0.5421(3) 0.52709(15)
H1 H 0.2410 0.3996 0.5457
C3 C 0.19468(11) 0.8406(3) 0.42210(15)
H2 H 0.1570 0.9028 0.3691
C4 C 0.12371(11) 0.5003(3) 0.39400(15)
C5 C 0.02091(13) 0.0111(4) 0.14623(17)
H3 H -0.0249 -0.0258 0.1465
C6 C 0.05508(15) -0.1297(4) 0.10692(19)
H4 H 0.0332 -0.2612 0.0809
C7 C 0.12141(17) -0.0777(5) 0.1057(2)
H5 H 0.1460 -0.1720 0.0784
C8 C 0.15136(16) 0.1135(5) 0.1447(2)
H6 H 0.1971 0.1532 0.1447
C9 C 0.11451(13) 0.2473(4) 0.18390(19)
H7 H 0.1359 0.3783 0.2115
Zn1F Zn 0.5000 1.10650(5) 0.7500
O1F O 0.42582(8) 0.9041(2) 0.67541(12)
O1A O -0.07418(8) 0.5959(2) 0.17541(12)
O2F O 0.37909(8) 1.1878(3) 0.58496(13)
N1A N -0.04941(9) 0.1981(3) 0.31581(13)
C1F C 0.31100(10) 0.8689(3) 0.55121(15)
C2F C 0.25526(11) 0.9579(3) 0.47291(15)
H1F H 0.2590 1.1004 0.4543
C3F C 0.30532(11) 0.6594(3) 0.57790(15)
H2F H 0.3430 0.5972 0.6309
C4F C 0.37629(11) 0.9997(3) 0.60600(15)
C5A C -0.02091(13) 0.0111(4) 0.35377(17)
H3A H 0.0249 -0.0258 0.3535
C6A C -0.05508(15) -0.1297(4) 0.39308(19)
H4A H -0.0332 -0.2612 0.4191
C7A C -0.12141(17) -0.0777(5) 0.3943(2)
H5A H -0.1460 -0.1720 0.4216
C8A C -0.15136(16) 0.1135(5) 0.3553(2)
H6A H -0.1971 0.1532 0.3553
C9A C -0.11451(13) 0.2473(4) 0.31610(19)
H7A H -0.1359 0.3783 0.2885
loop_
_geom_bond_atom_site_label_1
_geom_bond_atom_site_label_2
_geom_bond_site_symmetry_1
_geom_bond_site_symmetry_2
Zn1 O1 1_555 1_555
O1 C4 1_555 1_555
O2 C4 1_555 1_555
N1 Zn1 1_555 1_555
C1 C2 1_555 1_555
C2 H1 1_555 1_555
C3 C1 1_555 1_555
H2 C3 1_555 1_555
C4 C1 1_555 1_555
C5 N1 1_555 1_555
H3 C5 1_555 1_555
C6 C5 1_555 1_555
H4 C6 1_555 1_555
C7 C6 1_555 1_555
H5 C7 1_555 1_555
C8 C7 1_555 1_555
H6 C8 1_555 1_555
C9 N1 1_555 1_555
H7 C9 1_555 1_555
Zn1F O1F 1_555 1_555
O1F C4F 1_555 1_555
O1A Zn1 1_555 1_555
O2F C4F 1_555 1_555
N1A Zn1 1_555 1_555
C1F C2F 1_555 1_555
C2F C3 1_555 1_555
H1F C2F 1_555 1_555
C3F C2 1_555 1_555
H2F C3F 1_555 1_555
C4F C1F 1_555 1_555
C5A N1A 1_555 1_555
H3A C5A 1_555 1_555
C6A C5A 1_555 1_555
H4A C6A 1_555 1_555
C7A C6A 1_555 1_555
H5A C7A 1_555 1_555
C8A C7A 1_555 1_555
H6A C8A 1_555 1_555
C9A N1A 1_555 1_555
H7A C9A 1_555 1_555
C8 C9 1_555 1_555
C1F C3F 1_555 1_555
C8A C9A 1_555 1_555

#END
