
#######################################################################
#
#                 Cambridge Crystallographic Data Centre
#                                CCDC 
#
#######################################################################
#
# If this CIF has been generated from an entry in the Cambridge 
# Structural Database, then it will include bibliographic, chemical, 
# crystal, experimental, refinement or atomic coordinate data resulting 
# from the CCDC's data processing and validation procedures.
#
#######################################################################

data_QUXVOV
_symmetry_cell_setting           monoclinic
_symmetry_space_group_name_H-M   'P 21/n'
_symmetry_Int_Tables_number      14
_space_group_name_Hall           '-P 2yn'
loop_
_symmetry_equiv_pos_site_id
_symmetry_equiv_pos_as_xyz
1 x,y,z
2 1/2-x,1/2+y,1/2-z
3 -x,-y,-z
4 1/2+x,1/2-y,1/2+z
_cell_length_a                   11.258(4)
_cell_length_b                   9.023(5)
_cell_length_c                   11.390(7)
_cell_angle_alpha                90
_cell_angle_beta                 114.667(5)
_cell_angle_gamma                90
_cell_volume                     1051.43
loop_
_atom_site_label
_atom_site_type_symbol
_atom_site_fract_x
_atom_site_fract_y
_atom_site_fract_z
Co1 Co 0.5000 0.5000 0.5000
N1 N 0.5562(2) 0.5432(2) 0.34392(16)
O1 O 0.50790(18) 0.27225(15) 0.47973(14)
O2 O 0.31969(17) 0.21732(17) 0.31456(15)
O3 O 0.29833(13) 0.50231(19) 0.37221(11)
H1 H 0.2673 0.5677 0.3070
H2 H 0.2846 0.4213 0.3263
C1 C 0.6531(3) 0.4608(3) 0.3341(2)
H3 H 0.6940 0.3889 0.3965
C2 C 0.6927(3) 0.4788(4) 0.2376(2)
H4 H 0.7600 0.4205 0.2357
C3 C 0.6326(3) 0.5844(3) 0.1411(2)
C4 C 0.6658(3) 0.6069(4) 0.0350(3)
H5 H 0.7314 0.5506 0.0274
C5 C 0.6012(4) 0.7107(4) -0.0549(3)
H6 H 0.6228 0.7246 -0.1246
C6 C 0.5030(4) 0.7973(4) -0.0451(3)
H7 H 0.4603 0.8681 -0.1080
C7 C 0.4689(3) 0.7791(3) 0.0560(2)
H8 H 0.4034 0.8372 0.0620
C8 C 0.5334(3) 0.6720(3) 0.1506(2)
C9 C 0.4999(3) 0.6448(3) 0.2554(2)
H9 H 0.4343 0.7022 0.2620
C10 C 0.4249(2) 0.1817(2) 0.4066(2)
C11 C 0.4568(2) 0.0192(2) 0.43056(17)
H10 H 0.4999 -0.0128 0.3768
H11 H 0.3758 -0.0360 0.4039
Co1_2 Co 0.5000 -0.5000 0.5000
N1B N 0.4438(2) 0.4568(2) 0.65608(16)
O1B O 0.49210(18) -0.27225(15) 0.52027(14)
O1B_2 O 0.49210(18) 0.72775(15) 0.52027(14)
O2B O 0.68031(17) -0.21732(17) 0.68544(15)
O3B O 0.70167(13) 0.49769(19) 0.62779(11)
H1B H 0.7327 0.4323 0.6930
H2B H 0.7154 0.5787 0.6737
C1B C 0.3469(3) 0.5392(3) 0.6659(2)
H3B H 0.3060 0.6111 0.6035
C2B C 0.3073(3) 0.5212(4) 0.7624(2)
H4B H 0.2400 0.5795 0.7643
C3B C 0.3674(3) 0.4156(3) 0.8589(2)
C4B C 0.3342(3) 0.3931(4) 0.9650(3)
H5B H 0.2686 0.4494 0.9726
C5B C 0.3988(4) 0.2893(4) 1.0549(3)
H6B H 0.3772 0.2754 1.1246
C6B C 0.4970(4) 0.2027(4) 1.0451(3)
H7B H 0.5397 0.1319 1.1080
C7B C 0.5311(3) 0.2209(3) 0.9440(2)
H8B H 0.5966 0.1628 0.9380
C8B C 0.4666(3) 0.3280(3) 0.8494(2)
C9B C 0.5001(3) 0.3552(3) 0.7446(2)
H9B H 0.5657 0.2978 0.7380
C10B C 0.5751(2) -0.1817(2) 0.5934(2)
C11B C 0.5432(2) -0.0192(2) 0.56944(17)
H10B H 0.5001 0.0128 0.6232
H11B H 0.6242 0.0360 0.5961
loop_
_geom_bond_atom_site_label_1
_geom_bond_atom_site_label_2
_geom_bond_site_symmetry_1
_geom_bond_site_symmetry_2
Co1 N1 1_555 1_555
N1 C1 1_555 1_555
O1 Co1 1_555 1_555
O2 C10 1_555 1_555
O3 Co1 1_555 1_555
H1 O3 1_555 1_555
H2 O3 1_555 1_555
C1 H3 1_555 1_555
C2 C1 1_555 1_555
H4 C2 1_555 1_555
C3 C2 1_555 1_555
C4 C3 1_555 1_555
H5 C4 1_555 1_555
C5 C4 1_555 1_555
H6 C5 1_555 1_555
C6 C5 1_555 1_555
H7 C6 1_555 1_555
C7 C6 1_555 1_555
H8 C7 1_555 1_555
C8 C3 1_555 1_555
C9 N1 1_555 1_555
H9 C9 1_555 1_555
C10 O1 1_555 1_555
C11 C10 1_555 1_555
H10 C11 1_555 1_555
H11 C11 1_555 1_555
Co1_2 O1B 1_555 1_555
N1B Co1 1_555 1_555
O1B C10B 1_555 1_555
O1B_2 Co1 1_555 1_555
O2B C10B 1_555 1_555
O3B Co1 1_555 1_555
H1B O3B 1_555 1_555
H2B O3B 1_555 1_555
C1B N1B 1_555 1_555
H3B C1B 1_555 1_555
C2B C1B 1_555 1_555
H4B C2B 1_555 1_555
C3B C2B 1_555 1_555
C4B C3B 1_555 1_555
H5B C4B 1_555 1_555
C5B C4B 1_555 1_555
H6B C5B 1_555 1_555
C6B C5B 1_555 1_555
H7B C6B 1_555 1_555
C7B C6B 1_555 1_555
H8B C7B 1_555 1_555
C8B C3B 1_555 1_555
C9B N1B 1_555 1_555
H9B C9B 1_555 1_555
C10B C11B 1_555 1_555
C11B C11 1_555 1_555
H10B C11B 1_555 1_555
H11B C11B 1_555 1_555
C7 C8 1_555 1_555
C8 C9 1_555 1_555
C7B C8B 1_555 1_555
C8B C9B 1_555 1_555

#END
