
#######################################################################
#
#                 Cambridge Crystallographic Data Centre
#                                CCDC 
#
#######################################################################
#
# If this CIF has been generated from an entry in the Cambridge 
# Structural Database, then it will include bibliographic, chemical, 
# crystal, experimental, refinement or atomic coordinate data resulting 
# from the CCDC's data processing and validation procedures.
#
#######################################################################

data_QUXXUD
_symmetry_cell_setting           monoclinic
_symmetry_space_group_name_H-M   'C 2/c'
_symmetry_Int_Tables_number      15
_space_group_name_Hall           '-C 2yn'
loop_
_symmetry_equiv_pos_site_id
_symmetry_equiv_pos_as_xyz
1 x,y,z
2 -x,y,1/2-z
3 1/2+x,1/2+y,z
4 1/2-x,1/2+y,1/2-z
5 -x,-y,-z
6 x,-y,1/2+z
7 1/2-x,1/2-y,-z
8 1/2+x,1/2-y,1/2+z
_cell_length_a                   28.2593(15)
_cell_length_b                   9.4085(5)
_cell_length_c                   18.5765(10)
_cell_angle_alpha                90
_cell_angle_beta                 118.2290(10)
_cell_angle_gamma                90
_cell_volume                     4351.64
loop_
_atom_site_label
_atom_site_type_symbol
_atom_site_fract_x
_atom_site_fract_y
_atom_site_fract_z
Ag1 Ag 0.692581(6) 0.726456(18) 0.523729(10)
S1 S 0.80640(2) 0.94131(6) 0.63130(3)
P1 P 0.61400(2) 0.83696(6) 0.51114(3)
O1 O 0.78580(6) 0.80116(17) 0.59157(9)
O2 O 0.86414(6) 0.94896(18) 0.66660(10)
O3 O 0.77760(6) 1.05818(17) 0.57660(9)
N1 N 0.76252(7) 1.0121(2) 0.91345(11)
H1 H 0.7749 0.9431 0.9478
H2 H 0.7287 1.0201 0.8978
C1 C 0.55223(9) 0.7331(2) 0.45987(14)
C2 C 0.54236(9) 0.6587(3) 0.38905(15)
H3 H 0.5675 0.6618 0.3687
C3 C 0.49531(10) 0.5800(3) 0.34867(16)
H4 H 0.4881 0.5313 0.2998
C4 C 0.45886(9) 0.5712(2) 0.37823(15)
H5 H 0.4272 0.5157 0.3504
C5 C 0.46888(9) 0.6441(2) 0.44884(15)
H6 H 0.4440 0.6386 0.4697
C6 C 0.51523(9) 0.7254(2) 0.48923(14)
H7 H 0.5217 0.7761 0.5373
C7 C 0.59882(8) 1.0046(2) 0.45534(12)
C8 C 0.54666(9) 1.0490(2) 0.40320(13)
H8 H 0.5172 0.9886 0.3932
C9 C 0.53739(10) 1.1817(3) 0.36545(15)
H9 H 0.5017 1.2115 0.3298
C10 C 0.58010(10) 1.2702(2) 0.37993(15)
H10 H 0.5737 1.3612 0.3548
C11 C 0.63252(10) 1.2255(2) 0.43143(14)
H11 H 0.6619 1.2859 0.4410
C12 C 0.64191(9) 1.0932(2) 0.46869(13)
H12 H 0.6777 1.0627 0.5033
C13 C 0.61624(8) 0.8853(2) 0.60765(12)
C14 C 0.63746(9) 0.7881(2) 0.67208(14)
H13 H 0.6528 0.7019 0.6663
C15 C 0.63632(9) 0.8164(3) 0.74441(14)
H14 H 0.6501 0.7488 0.7875
C16 C 0.61496(9) 0.9438(2) 0.75397(14)
H15 H 0.6141 0.9630 0.8036
C17 C 0.59487(8) 1.0430(2) 0.69125(13)
H16 H 0.5807 1.1305 0.6981
C18 C 0.59550(8) 1.0140(2) 0.61829(13)
H17 H 0.5818 1.0821 0.5754
C19 C 0.79126(8) 0.9533(2) 0.71350(12)
C20 C 0.82240(8) 0.8805(2) 0.78608(13)
H18 H 0.8507 0.8203 0.7906
C21 C 0.81224(8) 0.8956(2) 0.85197(13)
H19 H 0.8335 0.8457 0.9014
C22 C 0.77081(8) 0.9840(2) 0.84538(12)
C23 C 0.73961(8) 1.0556(2) 0.77244(13)
H20 H 0.7112 1.1154 0.7677
C24 C 0.74968(8) 1.0406(2) 0.70679(13)
H21 H 0.7282 1.0899 0.6572
Ag1F Ag 0.807419(6) 0.773544(18) 0.476271(10)
Ag1C Ag 0.807419(6) 1.226456(18) 0.976271(10)
O1F O 0.71420(6) 0.69884(17) 0.40843(9)
N1C N 0.73748(7) 0.5121(2) 0.58655(11)
H1C H 0.7251 0.4431 0.5522
H2C H 0.7713 0.5201 0.6022
loop_
_geom_bond_atom_site_label_1
_geom_bond_atom_site_label_2
_geom_bond_site_symmetry_1
_geom_bond_site_symmetry_2
Ag1 P1 1_555 1_555
S1 O1 1_555 1_555
P1 C1 1_555 1_555
O1 Ag1 1_555 1_555
O2 S1 1_555 1_555
O3 S1 1_555 1_555
N1 H1 1_555 1_555
H2 N1 1_555 1_555
C1 C2 1_555 1_555
C2 H3 1_555 1_555
C3 C2 1_555 1_555
H4 C3 1_555 1_555
C4 C3 1_555 1_555
H5 C4 1_555 1_555
C5 C4 1_555 1_555
H6 C5 1_555 1_555
C6 C1 1_555 1_555
H7 C6 1_555 1_555
C7 P1 1_555 1_555
C8 C7 1_555 1_555
H8 C8 1_555 1_555
C9 C8 1_555 1_555
H9 C9 1_555 1_555
C10 C9 1_555 1_555
H10 C10 1_555 1_555
C11 C10 1_555 1_555
H11 C11 1_555 1_555
C12 C7 1_555 1_555
H12 C12 1_555 1_555
C13 P1 1_555 1_555
C14 C13 1_555 1_555
H13 C14 1_555 1_555
C15 C14 1_555 1_555
H14 C15 1_555 1_555
C16 C15 1_555 1_555
H15 C16 1_555 1_555
C17 C16 1_555 1_555
H16 C17 1_555 1_555
C18 C13 1_555 1_555
H17 C18 1_555 1_555
C19 S1 1_555 1_555
C20 C19 1_555 1_555
H18 C20 1_555 1_555
C21 C20 1_555 1_555
H19 C21 1_555 1_555
C22 N1 1_555 1_555
C23 C22 1_555 1_555
H20 C23 1_555 1_555
C24 C19 1_555 1_555
H21 C24 1_555 1_555
Ag1F O1 1_555 1_555
Ag1C N1 1_555 1_555
O1F Ag1 1_555 1_555
N1C Ag1 1_555 1_555
H1C N1C 1_555 1_555
H2C N1C 1_555 1_555
C5 C6 1_555 1_555
C11 C12 1_555 1_555
C17 C18 1_555 1_555
C21 C22 1_555 1_555
C23 C24 1_555 1_555
Ag1F O1F 1_555 1_555

#END
