
#######################################################################
#
#                 Cambridge Crystallographic Data Centre
#                                CCDC 
#
#######################################################################
#
# If this CIF has been generated from an entry in the Cambridge 
# Structural Database, then it will include bibliographic, chemical, 
# crystal, experimental, refinement or atomic coordinate data resulting 
# from the CCDC's data processing and validation procedures.
#
#######################################################################

data_QUXZOZ
_symmetry_cell_setting           monoclinic
_symmetry_space_group_name_H-M   'C 2/c'
_symmetry_Int_Tables_number      15
_space_group_name_Hall           '-C 2yn'
loop_
_symmetry_equiv_pos_site_id
_symmetry_equiv_pos_as_xyz
1 x,y,z
2 -x,y,1/2-z
3 1/2+x,1/2+y,z
4 1/2-x,1/2+y,1/2-z
5 -x,-y,-z
6 x,-y,1/2+z
7 1/2-x,1/2-y,-z
8 1/2+x,1/2-y,1/2+z
_cell_length_a                   19.4591(17)
_cell_length_b                   10.2988(6)
_cell_length_c                   6.8151(6)
_cell_angle_alpha                90
_cell_angle_beta                 106.033(4)
_cell_angle_gamma                90
_cell_volume                     1312.66
loop_
_atom_site_label
_atom_site_type_symbol
_atom_site_fract_x
_atom_site_fract_y
_atom_site_fract_z
Cd1 Cd 0.5000 0.922344(19) 0.2500
N1 N 0.43055(13) 1.0473(2) -0.0103(3)
N2 N 0.37375(13) 1.0889(2) -0.0144(4)
N3 N 0.31894(16) 1.1315(4) -0.0167(6)
N4 N 0.43063(10) 0.73525(19) 0.1345(3)
C1 C 0.36250(14) 0.7349(3) 0.0214(4)
H1 H 0.3404 0.8140 -0.0213
C2 C 0.32340(16) 0.6220(4) -0.0352(5)
H2 H 0.2758 0.6260 -0.1114
C3 C 0.35523(17) 0.5055(3) 0.0218(4)
H3 H 0.3293 0.4291 -0.0144
C4 C 0.42742(16) 0.5003(2) 0.1357(4)
C5 C 0.46270(13) 0.6200(2) 0.1908(3)
C6 C 0.46560(18) 0.3819(3) 0.1969(4)
H4 H 0.4420 0.3032 0.1619
Cd1D Cd 0.5000 1.077656(19) -0.2500
N1D N 0.56945(13) 0.9527(2) 0.0103(3)
N1E N 0.43055(13) 0.9527(2) 0.4897(3)
N1A N 0.56945(13) 1.0473(2) 0.5103(3)
N2D N 0.62625(13) 0.9111(2) 0.0144(4)
N3D N 0.68106(16) 0.8685(4) 0.0167(6)
N4A N 0.56937(10) 0.73525(19) 0.3655(3)
C1A C 0.63750(14) 0.7349(3) 0.4786(4)
H1A H 0.6596 0.8140 0.5213
C2A C 0.67660(16) 0.6220(4) 0.5352(5)
H2A H 0.7242 0.6260 0.6114
C3A C 0.64477(17) 0.5055(3) 0.4782(4)
H3A H 0.6707 0.4291 0.5144
C4A C 0.57258(16) 0.5003(2) 0.3643(4)
C5A C 0.53730(13) 0.6200(2) 0.3092(3)
C6A C 0.53440(18) 0.3819(3) 0.3031(4)
H4A H 0.5580 0.3032 0.3381
loop_
_geom_bond_atom_site_label_1
_geom_bond_atom_site_label_2
_geom_bond_site_symmetry_1
_geom_bond_site_symmetry_2
Cd1 N1 1_555 1_555
N1 N2 1_555 1_555
N2 N3 1_555 1_555
N4 Cd1 1_555 1_555
C1 N4 1_555 1_555
H1 C1 1_555 1_555
C2 C1 1_555 1_555
H2 C2 1_555 1_555
C3 C2 1_555 1_555
H3 C3 1_555 1_555
C4 C3 1_555 1_555
C5 N4 1_555 1_555
C6 C4 1_555 1_555
H4 C6 1_555 1_555
Cd1D N1 1_555 1_555
N1D Cd1 1_555 1_555
N1E Cd1 1_555 1_555
N1A Cd1 1_555 1_555
N2D N1D 1_555 1_555
N3D N2D 1_555 1_555
N4A Cd1 1_555 1_555
C1A N4A 1_555 1_555
H1A C1A 1_555 1_555
C2A C1A 1_555 1_555
H2A C2A 1_555 1_555
C3A C2A 1_555 1_555
H3A C3A 1_555 1_555
C4A C3A 1_555 1_555
C5A C5 1_555 1_555
C6A C6 1_555 1_555
H4A C6A 1_555 1_555
C4 C5 1_555 1_555
Cd1D N1D 1_555 1_555
N4A C5A 1_555 1_555
C4A C5A 1_555 1_555
C4A C6A 1_555 1_555

#END
