
#######################################################################
#
#                 Cambridge Crystallographic Data Centre
#                                CCDC 
#
#######################################################################
#
# If this CIF has been generated from an entry in the Cambridge 
# Structural Database, then it will include bibliographic, chemical, 
# crystal, experimental, refinement or atomic coordinate data resulting 
# from the CCDC's data processing and validation procedures.
#
#######################################################################

data_RABFOR01
_symmetry_cell_setting           monoclinic
_symmetry_space_group_name_H-M   'P 21/m'
_symmetry_Int_Tables_number      11
_space_group_name_Hall           '-P 2yb'
loop_
_symmetry_equiv_pos_site_id
_symmetry_equiv_pos_as_xyz
1 x,y,z
2 -x,1/2+y,-z
3 -x,-y,-z
4 x,1/2-y,z
_cell_length_a                   8.4469(6)
_cell_length_b                   7.7589(5)
_cell_length_c                   10.5257(7)
_cell_angle_alpha                90
_cell_angle_beta                 105.6960(10)
_cell_angle_gamma                90
_cell_volume                     664.116
loop_
_atom_site_label
_atom_site_type_symbol
_atom_site_fract_x
_atom_site_fract_y
_atom_site_fract_z
U1 U 0.27158(5) 0.2500 0.06539(4)
U2 U 0.24674(6) 0.2500 0.46412(4)
O1 O 0.4787(11) 0.2500 0.1704(8)
O2 O 0.0652(12) 0.2500 -0.0379(8)
O3 O 0.1576(12) 0.2500 0.2399(8)
O4 O 0.2617(8) -0.0474(8) 0.1099(6)
O5 O 0.3334(7) 0.0791(8) -0.1136(6)
O6 O 0.4545(11) 0.2500 0.4563(9)
O7 O 0.0378(12) 0.2500 0.4717(9)
O8 O 0.3183(9) 0.0786(8) -0.3313(5)
O9 O 0.2285(8) -0.0493(8) 0.4173(5)
C1 C 0.2513(9) -0.1559(11) 0.1946(8)
C2 C 0.2377(10) -0.1573(11) 0.3304(7)
C3 C 0.3288(11) 0.1505(10) -0.2205(7)
U1_2 U 0.27158(5) -0.7500 0.06539(4)
U2_2 U 0.24674(6) 0.2500 -0.53588(4)
U2_3 U 0.24674(6) -0.7500 0.46412(4)
O4C O 0.2617(8) -0.4526(8) 0.1099(6)
O4C_2 O 0.2617(8) 0.5474(8) 0.1099(6)
O5C O 0.3334(7) 0.4209(8) -0.1136(6)
O8C O 0.3183(9) 0.4214(8) -0.3313(5)
O8_2 O 0.3183(9) 0.0786(8) 0.6687(5)
O8C_2 O 0.3183(9) 0.4214(8) 0.6687(5)
O9C O 0.2285(8) -0.4507(8) 0.4173(5)
O9C_2 O 0.2285(8) 0.5493(8) 0.4173(5)
C1C C 0.2513(9) -0.3441(11) 0.1946(8)
C2C C 0.2377(10) -0.3427(11) 0.3304(7)
C3C C 0.3288(11) 0.3495(10) -0.2205(7)
N1 N -0.1710(12) 0.2500 0.1749(10)
O10 O -0.2804(11) 0.2500 0.3698(8)
loop_
_geom_bond_atom_site_label_1
_geom_bond_atom_site_label_2
_geom_bond_site_symmetry_1
_geom_bond_site_symmetry_2
U1 O1 1_555 1_555
U2 O3 1_555 1_555
O2 U1 1_555 1_555
O3 U1 1_555 1_555
O4 U1 1_555 1_555
O5 U1 1_555 1_555
O6 U2 1_555 1_555
O7 U2 1_555 1_555
O8 C3 1_555 1_555
O9 U2 1_555 1_555
C1 O4 1_555 1_555
C2 O9 1_555 1_555
C3 O5 1_555 1_555
U1_2 O4C 1_555 1_555
U2_2 O8 1_555 1_555
U2_3 O9C 1_555 1_555
O4C C1C 1_555 1_555
O4C_2 U1 1_555 1_555
O5C U1 1_555 1_555
O8C U2_2 1_555 1_555
O8_2 U2 1_555 1_555
O8C_2 U2 1_555 1_555
O9C C2C 1_555 1_555
O9C_2 U2 1_555 1_555
C1C C1 1_555 1_555
C2C C2 1_555 1_555
C3C C3 1_555 1_555
C1 C2 1_555 1_555
O5C C3C 1_555 1_555
O8C C3C 1_555 1_555
C1C C2C 1_555 1_555

#END
