
#######################################################################
#
#                 Cambridge Crystallographic Data Centre
#                                CCDC 
#
#######################################################################
#
# If this CIF has been generated from an entry in the Cambridge 
# Structural Database, then it will include bibliographic, chemical, 
# crystal, experimental, refinement or atomic coordinate data resulting 
# from the CCDC's data processing and validation procedures.
#
#######################################################################

data_RABGUY
_symmetry_cell_setting           monoclinic
_symmetry_space_group_name_H-M   'P 21/c'
_symmetry_Int_Tables_number      14
_space_group_name_Hall           '-P 2ybc'
loop_
_symmetry_equiv_pos_site_id
_symmetry_equiv_pos_as_xyz
1 x,y,z
2 -x,1/2+y,1/2-z
3 -x,-y,-z
4 x,1/2-y,1/2+z
_cell_length_a                   8.282(2)
_cell_length_b                   15.468(3)
_cell_length_c                   14.523(3)
_cell_angle_alpha                90
_cell_angle_beta                 100.380(8)
_cell_angle_gamma                90
_cell_volume                     1830.04
loop_
_atom_site_label
_atom_site_type_symbol
_atom_site_fract_x
_atom_site_fract_y
_atom_site_fract_z
U1 U 0.69973(5) 0.50947(2) 0.76780(3)
O1 O 0.7989(10) 0.4598(6) 0.8728(6)
O2 O 0.6022(10) 0.5625(6) 0.6643(5)
O3 O 0.9640(10) 0.5637(5) 0.7347(5)
O4 O 0.8371(9) 0.4162(5) 0.6855(6)
O5 O 0.5465(9) 0.3834(5) 0.7132(6)
O6 O 0.4486(10) 0.4889(5) 0.8313(6)
O7 O 1.0457(11) 0.2524(7) 0.5058(7)
O8 O 0.3240(10) 0.1402(4) 0.6505(5)
N1 N 1.1615(10) 0.5507(6) 0.6412(7)
N2 N 0.8277(12) 0.2746(7) 0.5779(7)
H1 H 0.7756 0.3126 0.6058
N3 N 0.5056(13) 0.2399(7) 0.6145(7)
H2 H 0.5460 0.2914 0.6273
N4 N 0.2440(11) 0.3935(6) 0.8566(7)
C1 C 1.2281(15) 0.6384(8) 0.6700(9)
H3 H 1.1424 0.6813 0.6531
H4 H 1.3189 0.6514 0.6384
H5 H 1.2661 0.6395 0.7372
C2 C 1.2284(13) 0.5016(8) 0.5794(8)
H6 H 1.3181 0.5238 0.5556
C3 C 1.1703(13) 0.4220(8) 0.5511(8)
H7 H 1.2214 0.3900 0.5093
C4 C 1.0330(13) 0.3868(8) 0.5841(8)
C5 C 0.9626(13) 0.4372(8) 0.6486(9)
C6 C 1.0306(13) 0.5205(7) 0.6756(8)
C7 C 0.9700(14) 0.2998(8) 0.5525(8)
C8 C 0.7560(17) 0.1901(9) 0.5624(10)
H8 H 0.7950 0.1542 0.6175
H9 H 0.7943 0.1636 0.5089
C9 C 0.5707(16) 0.1903(8) 0.5437(9)
H10 H 0.5306 0.2152 0.4818
H11 H 0.5308 0.1306 0.5435
C10 C 0.3889(14) 0.2135(8) 0.6614(8)
C11 C 0.3420(14) 0.2785(7) 0.7290(8)
C12 C 0.2055(14) 0.2602(7) 0.7748(8)
H12 H 0.1472 0.2081 0.7624
C13 C 0.1612(14) 0.3177(7) 0.8355(8)
H13 H 0.0707 0.3052 0.8641
C14 C 0.3726(13) 0.4175(7) 0.8145(8)
C15 C 0.4245(13) 0.3579(8) 0.7487(8)
C16 C 0.1999(15) 0.4516(8) 0.9303(9)
H14 H 0.1170 0.4925 0.9019
H15 H 0.2968 0.4827 0.9605
H16 H 0.1572 0.4173 0.9765
U1A U 0.30027(5) 0.00947(2) 0.73220(3)
O8A O 0.6760(10) 0.6402(4) 0.8495(5)
loop_
_geom_bond_atom_site_label_1
_geom_bond_atom_site_label_2
_geom_bond_site_symmetry_1
_geom_bond_site_symmetry_2
U1 O1 1_555 1_555
O2 U1 1_555 1_555
O3 U1 1_555 1_555
O4 U1 1_555 1_555
O5 U1 1_555 1_555
O6 U1 1_555 1_555
O7 C7 1_555 1_555
O8 C10 1_555 1_555
N1 C1 1_555 1_555
N2 H1 1_555 1_555
N3 H2 1_555 1_555
N4 C13 1_555 1_555
C1 H3 1_555 1_555
H4 C1 1_555 1_555
H5 C1 1_555 1_555
C2 N1 1_555 1_555
H6 C2 1_555 1_555
C3 C2 1_555 1_555
H7 C3 1_555 1_555
C4 C3 1_555 1_555
C5 O4 1_555 1_555
C6 O3 1_555 1_555
C7 N2 1_555 1_555
C8 N2 1_555 1_555
H8 C8 1_555 1_555
H9 C8 1_555 1_555
C9 N3 1_555 1_555
H10 C9 1_555 1_555
H11 C9 1_555 1_555
C10 N3 1_555 1_555
C11 C10 1_555 1_555
C12 C11 1_555 1_555
H12 C12 1_555 1_555
C13 C12 1_555 1_555
H13 C13 1_555 1_555
C14 O6 1_555 1_555
C15 O5 1_555 1_555
C16 N4 1_555 1_555
H14 C16 1_555 1_555
H15 C16 1_555 1_555
H16 C16 1_555 1_555
U1A O8 1_555 1_555
O8A U1 1_555 1_555
N1 C6 1_555 1_555
N4 C14 1_555 1_555
C4 C5 1_555 1_555
C4 C7 1_555 1_555
C5 C6 1_555 1_555
C8 C9 1_555 1_555
C11 C15 1_555 1_555
C14 C15 1_555 1_555

#END
