
#######################################################################
#
#                 Cambridge Crystallographic Data Centre
#                                CCDC 
#
#######################################################################
#
# If this CIF has been generated from an entry in the Cambridge 
# Structural Database, then it will include bibliographic, chemical, 
# crystal, experimental, refinement or atomic coordinate data resulting 
# from the CCDC's data processing and validation procedures.
#
#######################################################################

data_RABLUD
_symmetry_cell_setting           monoclinic
_symmetry_space_group_name_H-M   'C 2/c'
_symmetry_Int_Tables_number      15
_space_group_name_Hall           '-C 2yn'
loop_
_symmetry_equiv_pos_site_id
_symmetry_equiv_pos_as_xyz
1 x,y,z
2 -x,y,1/2-z
3 1/2+x,1/2+y,z
4 1/2-x,1/2+y,1/2-z
5 -x,-y,-z
6 x,-y,1/2+z
7 1/2-x,1/2-y,-z
8 1/2+x,1/2-y,1/2+z
_cell_length_a                   21.430(4)
_cell_length_b                   12.185(2)
_cell_length_c                   18.746(4)
_cell_angle_alpha                90
_cell_angle_beta                 95.62(3)
_cell_angle_gamma                90
_cell_volume                     4871.51
loop_
_atom_site_label
_atom_site_type_symbol
_atom_site_fract_x
_atom_site_fract_y
_atom_site_fract_z
Mn1 Mn 0.5000 0.86439(7) 0.2500
Mn2 Mn 0.66587(3) 0.63351(4) 0.08259(3)
O1 O 0.76507(12) 0.6462(2) 0.06280(13)
O2 O 0.56567(12) 0.6504(2) 0.09741(14)
O3 O 0.59754(12) 0.8495(2) 0.23144(14)
C1 C 0.60875(17) 0.7836(3) 0.1825(2)
C2 C 0.77760(17) 0.7143(3) 0.01668(19)
C3 C 0.55383(17) 0.7161(3) 0.1458(2)
O4 O 0.66187(12) 0.7680(2) 0.16196(14)
O5 O 0.50093(11) 0.7321(2) 0.16710(14)
N1 N 0.64282(14) 0.5060(3) 0.00053(16)
N2 N 0.69788(15) 0.5265(3) 0.17331(17)
N3 N 0.47470(16) 0.9852(3) 0.16345(18)
C4 C 0.6829(2) 0.4362(4) -0.0324(2)
C5 C 0.51037(18) 1.0774(4) 0.1481(2)
O6 O 0.83014(11) 0.7294(2) -0.00503(14)
C6 C 0.6655(2) 0.4725(4) 0.2235(2)
C7 C 0.5040(3) 1.2316(5) 0.0638(3)
H1 H 0.4836 1.2694 0.0253
C8 C 0.7087(2) 0.4144(4) 0.2688(2)
C9 C 0.6753(3) 0.2982(5) -0.1276(3)
H2 H 0.6517 0.2587 -0.1631
C10 C 0.6477(2) 0.3717(4) -0.0829(2)
C11 C 0.5611(2) 1.2653(4) 0.0977(3)
H3 H 0.5803 1.3268 0.0801
C12 C 0.5666(2) 1.1158(4) 0.1817(2)
H4 H 0.5874 1.0781 0.2200
C13 C 0.6919(2) 0.3513(4) 0.3257(2)
H5 H 0.7215 0.3141 0.3562
C14 C 0.6021(2) 0.4690(4) 0.2333(2)
H6 H 0.5724 0.5073 0.2035
N4 N 0.76578(18) 0.4368(3) 0.24723(19)
H7 H 0.8012 0.4122 0.2661
N5 N 0.58748(16) 0.4040(3) -0.08040(17)
H8 H 0.5553 0.3782 -0.1060
C15 C 0.5852(2) 0.4057(4) 0.2897(2)
H9 H 0.5432 0.4024 0.2981
C16 C 0.6293(2) 0.3468(4) 0.3343(3)
H10 H 0.6158 0.3035 0.3706
C17 C 0.5908(2) 1.2118(4) 0.1565(3)
H11 H 0.6277 1.2407 0.1794
C18 C 0.7386(3) 0.2876(6) -0.1162(4)
H12 H 0.7586 0.2375 -0.1436
C19 C 0.7475(2) 0.4244(5) -0.0218(3)
H13 H 0.7716 0.4651 0.0126
C20 C 0.7745(3) 0.3490(6) -0.0649(4)
H14 H 0.8178 0.3393 -0.0594
N6 N 0.4242(2) 1.0816(4) 0.0740(2)
H15 H 0.3952 1.0997 0.0412
C21 C 0.4794(2) 1.1363(4) 0.0919(2)
C22 C 0.7566(2) 0.5040(4) 0.1914(2)
H16 H 0.7891 0.5323 0.1675
C23 C 0.58698(19) 0.4831(4) -0.0309(2)
H17 H 0.5506 0.5183 -0.0199
C24 C 0.4242(2) 0.9941(5) 0.1179(3)
H18 H 0.3913 0.9442 0.1161
Mn2A Mn 0.33413(3) 0.63351(4) 0.41741(3)
Mn2F Mn 0.83413(3) 0.86649(4) -0.08259(3)
O1F O 0.73493(12) 0.8538(2) -0.06280(13)
O1A O 0.23493(12) 0.6462(2) 0.43720(13)
O2A O 0.43433(12) 0.6504(2) 0.40259(14)
O3A O 0.40246(12) 0.8495(2) 0.26856(14)
C1A C 0.39125(17) 0.7836(3) 0.3175(2)
C2F C 0.72240(17) 0.7857(3) -0.01668(19)
C3A C 0.44617(17) 0.7161(3) 0.3542(2)
O4A O 0.33813(12) 0.7680(2) 0.33804(14)
O5A O 0.49907(11) 0.7321(2) 0.33290(14)
N1A N 0.35718(14) 0.5060(3) 0.49947(16)
N2A N 0.30212(15) 0.5265(3) 0.32669(17)
N3A N 0.52530(16) 0.9852(3) 0.33655(18)
C4A C 0.3171(2) 0.4362(4) 0.5324(2)
C5A C 0.48963(18) 1.0774(4) 0.3519(2)
O6F O 0.66986(11) 0.7706(2) 0.00503(14)
O6G O 0.33014(11) 0.7706(2) 0.49497(14)
C6A C 0.3345(2) 0.4725(4) 0.2765(2)
C7A C 0.4960(3) 1.2316(5) 0.4362(3)
H1A H 0.5164 1.2694 0.4747
C8A C 0.2913(2) 0.4144(4) 0.2312(2)
C9A C 0.3247(3) 0.2982(5) 0.6276(3)
H2A H 0.3483 0.2587 0.6631
C10A C 0.3523(2) 0.3717(4) 0.5829(2)
C11A C 0.4389(2) 1.2653(4) 0.4023(3)
H3A H 0.4197 1.3268 0.4199
C12A C 0.4334(2) 1.1158(4) 0.3183(2)
H4A H 0.4126 1.0781 0.2800
C13A C 0.3081(2) 0.3513(4) 0.1743(2)
H5A H 0.2785 0.3141 0.1438
C14A C 0.3979(2) 0.4690(4) 0.2667(2)
H6A H 0.4276 0.5073 0.2965
N4A N 0.23422(18) 0.4368(3) 0.25277(19)
H7A H 0.1988 0.4122 0.2339
N5A N 0.41252(16) 0.4040(3) 0.58040(17)
H8A H 0.4447 0.3782 0.6060
C15A C 0.4148(2) 0.4057(4) 0.2103(2)
H9A H 0.4568 0.4024 0.2019
C16A C 0.3707(2) 0.3468(4) 0.1657(3)
H10A H 0.3842 0.3035 0.1294
C17A C 0.4092(2) 1.2118(4) 0.3435(3)
H11A H 0.3723 1.2407 0.3206
C18A C 0.2614(3) 0.2876(6) 0.6162(4)
H12A H 0.2414 0.2375 0.6436
C19A C 0.2525(2) 0.4244(5) 0.5218(3)
H13A H 0.2284 0.4651 0.4874
C20A C 0.2255(3) 0.3490(6) 0.5649(4)
H14A H 0.1822 0.3393 0.5594
N6A N 0.5758(2) 1.0816(4) 0.4260(2)
H15A H 0.6048 1.0997 0.4588
C21A C 0.5206(2) 1.1363(4) 0.4081(2)
C22A C 0.2434(2) 0.5040(4) 0.3086(2)
H16A H 0.2109 0.5323 0.3325
C23A C 0.41302(19) 0.4831(4) 0.5309(2)
H17A H 0.4494 0.5183 0.5199
C24A C 0.5758(2) 0.9941(5) 0.3821(3)
H18A H 0.6087 0.9442 0.3839
loop_
_geom_bond_atom_site_label_1
_geom_bond_atom_site_label_2
_geom_bond_site_symmetry_1
_geom_bond_site_symmetry_2
Mn1 O3 1_555 1_555
Mn2 O1 1_555 1_555
O1 C2 1_555 1_555
O2 Mn2 1_555 1_555
O3 C1 1_555 1_555
C1 C3 1_555 1_555
C2 O6 1_555 1_555
C3 O2 1_555 1_555
O4 Mn2 1_555 1_555
O5 Mn1 1_555 1_555
N1 Mn2 1_555 1_555
N2 Mn2 1_555 1_555
N3 Mn1 1_555 1_555
C4 N1 1_555 1_555
C5 N3 1_555 1_555
O6 Mn2F 1_555 1_555
C6 N2 1_555 1_555
C7 H1 1_555 1_555
C8 C6 1_555 1_555
C9 H2 1_555 1_555
C10 C4 1_555 1_555
C11 C7 1_555 1_555
H3 C11 1_555 1_555
C12 C5 1_555 1_555
H4 C12 1_555 1_555
C13 C8 1_555 1_555
H5 C13 1_555 1_555
C14 C6 1_555 1_555
H6 C14 1_555 1_555
N4 C8 1_555 1_555
H7 N4 1_555 1_555
N5 C10 1_555 1_555
H8 N5 1_555 1_555
C15 C14 1_555 1_555
H9 C15 1_555 1_555
C16 C13 1_555 1_555
H10 C16 1_555 1_555
C17 C11 1_555 1_555
H11 C17 1_555 1_555
C18 C9 1_555 1_555
H12 C18 1_555 1_555
C19 C4 1_555 1_555
H13 C19 1_555 1_555
C20 C18 1_555 1_555
H14 C20 1_555 1_555
N6 H15 1_555 1_555
C21 C5 1_555 1_555
C22 N2 1_555 1_555
H16 C22 1_555 1_555
C23 N1 1_555 1_555
H17 C23 1_555 1_555
C24 N3 1_555 1_555
H18 C24 1_555 1_555
Mn2A O1A 1_555 1_555
Mn2F O1F 1_555 1_555
O1F C2F 1_555 1_555
O2A Mn2A 1_555 1_555
O3A Mn1 1_555 1_555
C1A O3A 1_555 1_555
C2F C2 1_555 1_555
C3A O2A 1_555 1_555
O4A Mn2A 1_555 1_555
O5A Mn1 1_555 1_555
N1A Mn2A 1_555 1_555
N2A Mn2A 1_555 1_555
N3A Mn1 1_555 1_555
C4A N1A 1_555 1_555
C5A N3A 1_555 1_555
O6F Mn2 1_555 1_555
O6G Mn2A 1_555 1_555
C6A N2A 1_555 1_555
C7A H1A 1_555 1_555
C8A C6A 1_555 1_555
C9A H2A 1_555 1_555
C10A C4A 1_555 1_555
C11A C7A 1_555 1_555
H3A C11A 1_555 1_555
C12A C5A 1_555 1_555
H4A C12A 1_555 1_555
C13A C8A 1_555 1_555
H5A C13A 1_555 1_555
C14A C6A 1_555 1_555
H6A C14A 1_555 1_555
N4A C8A 1_555 1_555
H7A N4A 1_555 1_555
N5A C10A 1_555 1_555
H8A N5A 1_555 1_555
C15A C14A 1_555 1_555
H9A C15A 1_555 1_555
C16A C13A 1_555 1_555
H10A C16A 1_555 1_555
C17A C11A 1_555 1_555
H11A C17A 1_555 1_555
C18A C9A 1_555 1_555
H12A C18A 1_555 1_555
C19A C4A 1_555 1_555
H13A C19A 1_555 1_555
C20A C18A 1_555 1_555
H14A C20A 1_555 1_555
N6A H15A 1_555 1_555
C21A C5A 1_555 1_555
C22A N2A 1_555 1_555
H16A C22A 1_555 1_555
C23A N1A 1_555 1_555
H17A C23A 1_555 1_555
C24A N3A 1_555 1_555
H18A C24A 1_555 1_555
C1 O4 1_555 1_555
C3 O5 1_555 1_555
C7 C21 1_555 1_555
C9 C10 1_555 1_555
C12 C17 1_555 1_555
N4 C22 1_555 1_555
N5 C23 1_555 1_555
C15 C16 1_555 1_555
C19 C20 1_555 1_555
N6 C21 1_555 1_555
N6 C24 1_555 1_555
C1A C3A 1_555 1_555
C1A O4A 1_555 1_555
C2F O6F 1_555 1_555
C3A O5A 1_555 1_555
C7A C21A 1_555 1_555
C9A C10A 1_555 1_555
C12A C17A 1_555 1_555
N4A C22A 1_555 1_555
N5A C23A 1_555 1_555
C15A C16A 1_555 1_555
C19A C20A 1_555 1_555
N6A C21A 1_555 1_555
N6A C24A 1_555 1_555

#END
