
#######################################################################
#
#                 Cambridge Crystallographic Data Centre
#                                CCDC 
#
#######################################################################
#
# If this CIF has been generated from an entry in the Cambridge 
# Structural Database, then it will include bibliographic, chemical, 
# crystal, experimental, refinement or atomic coordinate data resulting 
# from the CCDC's data processing and validation procedures.
#
#######################################################################

data_RABMAK
_symmetry_cell_setting           monoclinic
_symmetry_space_group_name_H-M   'C 2/c'
_symmetry_Int_Tables_number      15
_space_group_name_Hall           '-C 2yn'
loop_
_symmetry_equiv_pos_site_id
_symmetry_equiv_pos_as_xyz
1 x,y,z
2 -x,y,1/2-z
3 1/2+x,1/2+y,z
4 1/2-x,1/2+y,1/2-z
5 -x,-y,-z
6 x,-y,1/2+z
7 1/2-x,1/2-y,-z
8 1/2+x,1/2-y,1/2+z
_cell_length_a                   20.945(2)
_cell_length_b                   12.3461(9)
_cell_length_c                   18.550(2)
_cell_angle_alpha                90
_cell_angle_beta                 94.530(12)
_cell_angle_gamma                90
_cell_volume                     4781.84
loop_
_atom_site_label
_atom_site_type_symbol
_atom_site_fract_x
_atom_site_fract_y
_atom_site_fract_z
Fe1 Fe 0.5000 0.86329(8) 0.2500
Fe2 Fe 0.66678(3) 0.63376(5) 0.08367(3)
O1 O 0.76667(13) 0.6465(2) 0.06176(15)
O2 O 0.56599(13) 0.6491(2) 0.09861(15)
O3 O 0.59706(14) 0.8483(3) 0.23087(15)
C1 C 0.6098(2) 0.7816(4) 0.1829(2)
C2 C 0.7780(2) 0.7153(4) 0.0162(2)
C3 C 0.5530(2) 0.7157(4) 0.1460(2)
O4 O 0.66358(13) 0.7639(3) 0.16280(15)
O5 O 0.49902(13) 0.7350(3) 0.16644(16)
N1 N 0.64572(16) 0.5095(3) 0.00451(18)
N2 N 0.69818(17) 0.5307(3) 0.17270(18)
N3 N 0.47873(19) 0.9808(3) 0.1648(2)
C4 C 0.6847(2) 0.4390(4) -0.0298(2)
C5 C 0.5124(2) 1.0748(4) 0.1507(2)
O6 O 0.83182(13) 0.7332(2) -0.00762(14)
C6 C 0.6656(2) 0.4757(4) 0.2242(2)
C7 C 0.5055(3) 1.2243(5) 0.0649(3)
H1 H 0.4853 1.2591 0.0249
C8 C 0.7094(2) 0.4169(4) 0.2688(2)
C9 C 0.6749(3) 0.3025(5) -0.1254(3)
H2 H 0.6499 0.2635 -0.1600
C10 C 0.6482(2) 0.3775(4) -0.0801(3)
C11 C 0.5597(3) 1.2645(4) 0.1005(3)
H3 H 0.5776 1.3276 0.0836
C12 C 0.5669(2) 1.1191(4) 0.1868(3)
H4 H 0.5876 1.0853 0.2269
C13 C 0.6920(2) 0.3541(4) 0.3257(2)
H5 H 0.7221 0.3165 0.3556
C14 C 0.6010(2) 0.4723(4) 0.2356(2)
H6 H 0.5708 0.5108 0.2065
N4 N 0.76799(18) 0.4400(3) 0.24430(19)
H7 H 0.8044 0.4161 0.2623
N5 N 0.58672(19) 0.4099(3) -0.07457(19)
H8 H 0.5532 0.3845 -0.0984
C15 C 0.5836(2) 0.4092(4) 0.2922(2)
H9 H 0.5407 0.4062 0.3016
C16 C 0.6279(2) 0.3501(4) 0.3356(2)
H10 H 0.6138 0.3070 0.3723
C17 C 0.5888(2) 1.2149(4) 0.1606(3)
H11 H 0.6247 1.2473 0.1844
C18 C 0.7394(4) 0.2897(6) -0.1163(4)
H12 H 0.7590 0.2395 -0.1447
C19 C 0.7511(2) 0.4251(5) -0.0211(3)
H13 H 0.7765 0.4646 0.0128
C20 C 0.7770(3) 0.3499(6) -0.0654(4)
H14 H 0.8211 0.3389 -0.0612
N6 N 0.4297(3) 1.0659(5) 0.0707(2)
H15 H 0.4018 1.0793 0.0353
C21 C 0.4820(3) 1.1280(5) 0.0919(3)
C22 C 0.7585(2) 0.5063(4) 0.1875(2)
H16 H 0.7914 0.5322 0.1612
C23 C 0.5882(2) 0.4887(4) -0.0251(2)
H17 H 0.5519 0.5254 -0.0128
C24 C 0.4300(3) 0.9808(6) 0.1151(3)
H18 H 0.3990 0.9268 0.1114
Fe2A Fe 0.33322(3) 0.63376(5) 0.41633(3)
Fe2F Fe 0.83322(3) 0.86624(5) -0.08367(3)
O1F O 0.73333(13) 0.8535(2) -0.06176(15)
O1A O 0.23333(13) 0.6465(2) 0.43824(15)
O2A O 0.43401(13) 0.6491(2) 0.40139(15)
O3A O 0.40294(14) 0.8483(3) 0.26913(15)
C1A C 0.3902(2) 0.7816(4) 0.3171(2)
C2F C 0.7220(2) 0.7847(4) -0.0162(2)
C3A C 0.4470(2) 0.7157(4) 0.3540(2)
O4A O 0.33642(13) 0.7639(3) 0.33720(15)
O5A O 0.50098(13) 0.7350(3) 0.33356(16)
N1A N 0.35428(16) 0.5095(3) 0.49549(18)
N2A N 0.30182(17) 0.5307(3) 0.32730(18)
N3A N 0.52127(19) 0.9808(3) 0.3352(2)
C4A C 0.3153(2) 0.4390(4) 0.5298(2)
C5A C 0.4876(2) 1.0748(4) 0.3493(2)
O6F O 0.66818(13) 0.7668(2) 0.00762(14)
O6G O 0.33182(13) 0.7668(2) 0.49238(14)
C6A C 0.3344(2) 0.4757(4) 0.2758(2)
C7A C 0.4945(3) 1.2243(5) 0.4351(3)
H1A H 0.5147 1.2591 0.4751
C8A C 0.2906(2) 0.4169(4) 0.2312(2)
C9A C 0.3251(3) 0.3025(5) 0.6254(3)
H2A H 0.3501 0.2635 0.6600
C10A C 0.3518(2) 0.3775(4) 0.5801(3)
C11A C 0.4403(3) 1.2645(4) 0.3995(3)
H3A H 0.4224 1.3276 0.4164
C12A C 0.4331(2) 1.1191(4) 0.3132(3)
H4A H 0.4124 1.0853 0.2731
C13A C 0.3080(2) 0.3541(4) 0.1743(2)
H5A H 0.2779 0.3165 0.1444
C14A C 0.3990(2) 0.4723(4) 0.2644(2)
H6A H 0.4292 0.5108 0.2935
N4A N 0.23201(18) 0.4400(3) 0.25570(19)
H7A H 0.1956 0.4161 0.2377
N5A N 0.41328(19) 0.4099(3) 0.57457(19)
H8A H 0.4468 0.3845 0.5984
C15A C 0.4164(2) 0.4092(4) 0.2078(2)
H9A H 0.4593 0.4062 0.1984
C16A C 0.3721(2) 0.3501(4) 0.1644(2)
H10A H 0.3862 0.3070 0.1277
C17A C 0.4112(2) 1.2149(4) 0.3394(3)
H11A H 0.3753 1.2473 0.3156
C18A C 0.2606(4) 0.2897(6) 0.6163(4)
H12A H 0.2410 0.2395 0.6447
C19A C 0.2489(2) 0.4251(5) 0.5211(3)
H13A H 0.2235 0.4646 0.4872
C20A C 0.2230(3) 0.3499(6) 0.5654(4)
H14A H 0.1789 0.3389 0.5612
N6A N 0.5703(3) 1.0659(5) 0.4293(2)
H15A H 0.5982 1.0793 0.4647
C21A C 0.5180(3) 1.1280(5) 0.4081(3)
C22A C 0.2415(2) 0.5063(4) 0.3125(2)
H16A H 0.2086 0.5322 0.3388
C23A C 0.4118(2) 0.4887(4) 0.5251(2)
H17A H 0.4481 0.5254 0.5128
C24A C 0.5700(3) 0.9808(6) 0.3849(3)
H18A H 0.6010 0.9268 0.3886
loop_
_geom_bond_atom_site_label_1
_geom_bond_atom_site_label_2
_geom_bond_site_symmetry_1
_geom_bond_site_symmetry_2
Fe1 O3 1_555 1_555
Fe2 O1 1_555 1_555
O1 C2 1_555 1_555
O2 Fe2 1_555 1_555
O3 C1 1_555 1_555
C1 C3 1_555 1_555
C2 O6 1_555 1_555
C3 O2 1_555 1_555
O4 Fe2 1_555 1_555
O5 Fe1 1_555 1_555
N1 Fe2 1_555 1_555
N2 Fe2 1_555 1_555
N3 Fe1 1_555 1_555
C4 N1 1_555 1_555
C5 N3 1_555 1_555
O6 Fe2F 1_555 1_555
C6 N2 1_555 1_555
C7 H1 1_555 1_555
C8 C6 1_555 1_555
C9 H2 1_555 1_555
C10 C4 1_555 1_555
C11 C7 1_555 1_555
H3 C11 1_555 1_555
C12 C5 1_555 1_555
H4 C12 1_555 1_555
C13 C8 1_555 1_555
H5 C13 1_555 1_555
C14 C6 1_555 1_555
H6 C14 1_555 1_555
N4 C8 1_555 1_555
H7 N4 1_555 1_555
N5 C10 1_555 1_555
H8 N5 1_555 1_555
C15 C14 1_555 1_555
H9 C15 1_555 1_555
C16 C13 1_555 1_555
H10 C16 1_555 1_555
C17 C11 1_555 1_555
H11 C17 1_555 1_555
C18 C9 1_555 1_555
H12 C18 1_555 1_555
C19 C4 1_555 1_555
H13 C19 1_555 1_555
C20 C18 1_555 1_555
H14 C20 1_555 1_555
N6 H15 1_555 1_555
C21 C5 1_555 1_555
C22 N2 1_555 1_555
H16 C22 1_555 1_555
C23 N1 1_555 1_555
H17 C23 1_555 1_555
C24 N3 1_555 1_555
H18 C24 1_555 1_555
Fe2A O1A 1_555 1_555
Fe2F O1F 1_555 1_555
O1F C2F 1_555 1_555
O2A Fe2A 1_555 1_555
O3A Fe1 1_555 1_555
C1A O3A 1_555 1_555
C2F C2 1_555 1_555
C3A O2A 1_555 1_555
O4A Fe2A 1_555 1_555
O5A Fe1 1_555 1_555
N1A Fe2A 1_555 1_555
N2A Fe2A 1_555 1_555
N3A Fe1 1_555 1_555
C4A N1A 1_555 1_555
C5A N3A 1_555 1_555
O6F Fe2 1_555 1_555
O6G Fe2A 1_555 1_555
C6A N2A 1_555 1_555
C7A H1A 1_555 1_555
C8A C6A 1_555 1_555
C9A H2A 1_555 1_555
C10A C4A 1_555 1_555
C11A C7A 1_555 1_555
H3A C11A 1_555 1_555
C12A C5A 1_555 1_555
H4A C12A 1_555 1_555
C13A C8A 1_555 1_555
H5A C13A 1_555 1_555
C14A C6A 1_555 1_555
H6A C14A 1_555 1_555
N4A C8A 1_555 1_555
H7A N4A 1_555 1_555
N5A C10A 1_555 1_555
H8A N5A 1_555 1_555
C15A C14A 1_555 1_555
H9A C15A 1_555 1_555
C16A C13A 1_555 1_555
H10A C16A 1_555 1_555
C17A C11A 1_555 1_555
H11A C17A 1_555 1_555
C18A C9A 1_555 1_555
H12A C18A 1_555 1_555
C19A C4A 1_555 1_555
H13A C19A 1_555 1_555
C20A C18A 1_555 1_555
H14A C20A 1_555 1_555
N6A H15A 1_555 1_555
C21A C5A 1_555 1_555
C22A N2A 1_555 1_555
H16A C22A 1_555 1_555
C23A N1A 1_555 1_555
H17A C23A 1_555 1_555
C24A N3A 1_555 1_555
H18A C24A 1_555 1_555
C1 O4 1_555 1_555
C3 O5 1_555 1_555
C7 C21 1_555 1_555
C9 C10 1_555 1_555
C12 C17 1_555 1_555
N4 C22 1_555 1_555
N5 C23 1_555 1_555
C15 C16 1_555 1_555
C19 C20 1_555 1_555
N6 C21 1_555 1_555
N6 C24 1_555 1_555
C1A C3A 1_555 1_555
C1A O4A 1_555 1_555
C2F O6F 1_555 1_555
C3A O5A 1_555 1_555
C7A C21A 1_555 1_555
C9A C10A 1_555 1_555
C12A C17A 1_555 1_555
N4A C22A 1_555 1_555
N5A C23A 1_555 1_555
C15A C16A 1_555 1_555
C19A C20A 1_555 1_555
N6A C21A 1_555 1_555
N6A C24A 1_555 1_555

#END
