
#######################################################################
#
#                 Cambridge Crystallographic Data Centre
#                                CCDC 
#
#######################################################################
#
# If this CIF has been generated from an entry in the Cambridge 
# Structural Database, then it will include bibliographic, chemical, 
# crystal, experimental, refinement or atomic coordinate data resulting 
# from the CCDC's data processing and validation procedures.
#
#######################################################################

data_RABYOI
_symmetry_cell_setting           monoclinic
_symmetry_space_group_name_H-M   'P 21/n'
_symmetry_Int_Tables_number      14
_space_group_name_Hall           '-P 2yn'
loop_
_symmetry_equiv_pos_site_id
_symmetry_equiv_pos_as_xyz
1 x,y,z
2 1/2-x,1/2+y,1/2-z
3 -x,-y,-z
4 1/2+x,1/2-y,1/2+z
_cell_length_a                   12.752(1)
_cell_length_b                   11.641(1)
_cell_length_c                   16.637(1)
_cell_angle_alpha                90
_cell_angle_beta                 103.88(1)
_cell_angle_gamma                90
_cell_volume                     2397.58
loop_
_atom_site_label
_atom_site_type_symbol
_atom_site_fract_x
_atom_site_fract_y
_atom_site_fract_z
Sn1 Sn 0.23791(2) 0.15997(3) 0.27669(2)
Cl1 Cl 0.1118(2) 0.7147(3) 0.7519(1)
O1 O 0.1883(3) 0.3264(3) 0.3220(2)
O2 O 0.2861(2) -0.0195(3) 0.2493(2)
C1 C 0.1045(3) 0.1591(4) 0.1730(3)
C2 C 0.0443(4) 0.0619(5) 0.1468(4)
C3 C -0.0433(5) 0.0667(6) 0.0796(4)
C4 C -0.0714(5) 0.1655(7) 0.0375(4)
C5 C -0.0124(5) 0.2608(6) 0.0612(4)
C6 C 0.0742(5) 0.2582(5) 0.1296(3)
C7 C 0.3863(4) 0.2304(4) 0.2624(3)
C8 C 0.3890(4) 0.3042(4) 0.1989(3)
C9 C 0.4838(4) 0.3484(5) 0.1867(3)
C10 C 0.5781(5) 0.3196(6) 0.2387(5)
C11 C 0.5791(5) 0.2478(8) 0.3031(6)
C12 C 0.4818(5) 0.2048(7) 0.3152(4)
C13 C 0.2248(4) 0.0952(4) 0.3932(3)
C14 C 0.2994(4) 0.0203(5) 0.4394(3)
C15 C 0.2897(6) -0.0157(6) 0.5164(4)
C16 C 0.2076(7) 0.0203(6) 0.5483(4)
C17 C 0.1337(5) 0.0935(6) 0.5037(4)
C18 C 0.1409(4) 0.1314(5) 0.4263(3)
C19 C 0.1477(4) 0.5260(5) 0.5243(3)
C20 C 0.1444(6) 0.4696(7) 0.5963(4)
C21 C 0.1323(6) 0.530(1) 0.6640(4)
C22 C 0.1238(5) 0.6422(9) 0.6641(4)
C23 C 0.1266(5) 0.7004(7) 0.5951(4)
C24 C 0.1378(5) 0.6437(6) 0.5248(3)
C25 C 0.1621(4) 0.4630(5) 0.4516(3)
C26 C 0.1790(4) 0.5049(4) 0.3835(3)
C27 C 0.1955(3) 0.4332(4) 0.3144(3)
O2A O 0.2139(2) 0.4805(3) 0.2507(2)
Sn1A Sn 0.26209(2) 0.65997(3) 0.22331(2)
loop_
_geom_bond_atom_site_label_1
_geom_bond_atom_site_label_2
_geom_bond_site_symmetry_1
_geom_bond_site_symmetry_2
Sn1 O1 1_555 1_555
Cl1 C22 1_555 1_555
O1 C27 1_555 1_555
O2 Sn1 1_555 1_555
C1 Sn1 1_555 1_555
C2 C1 1_555 1_555
C3 C2 1_555 1_555
C4 C3 1_555 1_555
C5 C4 1_555 1_555
C6 C1 1_555 1_555
C7 Sn1 1_555 1_555
C8 C7 1_555 1_555
C9 C8 1_555 1_555
C10 C9 1_555 1_555
C11 C10 1_555 1_555
C12 C7 1_555 1_555
C13 Sn1 1_555 1_555
C14 C13 1_555 1_555
C15 C14 1_555 1_555
C16 C15 1_555 1_555
C17 C16 1_555 1_555
C18 C13 1_555 1_555
C19 C20 1_555 1_555
C20 C21 1_555 1_555
C21 C22 1_555 1_555
C22 C23 1_555 1_555
C23 C24 1_555 1_555
C24 C19 1_555 1_555
C25 C19 1_555 1_555
C26 C25 1_555 1_555
C27 C26 1_555 1_555
O2A C27 1_555 1_555
Sn1A O2A 1_555 1_555
C5 C6 1_555 1_555
C11 C12 1_555 1_555
C17 C18 1_555 1_555

#END
