
#######################################################################
#
#                 Cambridge Crystallographic Data Centre
#                                CCDC 
#
#######################################################################
#
# If this CIF has been generated from an entry in the Cambridge 
# Structural Database, then it will include bibliographic, chemical, 
# crystal, experimental, refinement or atomic coordinate data resulting 
# from the CCDC's data processing and validation procedures.
#
#######################################################################

data_RABYEA
_symmetry_cell_setting           orthorhombic
_symmetry_space_group_name_H-M   'P c a 21'
_symmetry_Int_Tables_number      29
_space_group_name_Hall           'P 2c -2ac'
loop_
_symmetry_equiv_pos_site_id
_symmetry_equiv_pos_as_xyz
1 x,y,z
2 -x,-y,1/2+z
3 1/2+x,-y,z
4 1/2-x,y,1/2+z
_cell_length_a                   19.057(4)
_cell_length_b                   5.5459(11)
_cell_length_c                   13.697(3)
_cell_angle_alpha                90
_cell_angle_beta                 90
_cell_angle_gamma                90
_cell_volume                     1447.61
loop_
_atom_site_label
_atom_site_type_symbol
_atom_site_fract_x
_atom_site_fract_y
_atom_site_fract_z
Cu1 Cu 0.68164(3) 0.06755(10) 0.45778(5)
N1 N 0.7015(2) 0.3535(8) 0.5497(3)
N2 N 0.7830(2) 0.1244(7) 0.4312(3)
N3 N 0.8273(2) 0.0303(8) 0.3637(3)
N4 N 0.8710(2) 0.3754(7) 0.4234(3)
C1 C 0.6571(3) 0.4509(9) 0.6126(4)
H1 H 0.6117 0.3817 0.6186
C2 C 0.6734(3) 0.6484(9) 0.6702(4)
H2 H 0.6404 0.7098 0.7159
C3 C 0.7382(3) 0.7537(9) 0.6599(4)
H3 H 0.7500 0.8924 0.6971
C4 C 0.7864(3) 0.6567(9) 0.5947(4)
H4 H 0.8318 0.7252 0.5875
C5 C 0.7662(3) 0.4550(9) 0.5399(4)
C6 C 0.8082(2) 0.3286(7) 0.4682(4)
C7 C 0.8812(3) 0.1844(9) 0.3584(4)
C8 C 0.9425(2) 0.1754(10) 0.3013(4)
H5 H 0.9506 0.0442 0.2581
C9 C 0.9894(3) 0.3557(10) 0.3088(4)
H6 H 1.0302 0.3539 0.2690
C10 C 0.9786(3) 0.5508(10) 0.3761(4)
H7 H 1.0127 0.6751 0.3812
C11 C 0.9204(2) 0.5592(9) 0.4323(4)
H8 H 0.9132 0.6880 0.4769
N5 N 0.5883(2) 0.0203(8) 0.5110(3)
C12 C 0.5343(3) -0.0275(9) 0.5469(4)
S1 S 0.46025(8) -0.0909(3) 0.60075(11)
N6 N 0.6791(2) -0.2365(8) 0.3839(4)
C13 C 0.6688(3) -0.4205(9) 0.3480(4)
S2 S 0.65424(7) -0.6820(2) 0.29568(10)
Cu1_2 Cu 0.68164(3) -0.93245(10) 0.45778(5)
S2_2 S 0.65424(7) 0.3180(2) 0.29568(10)
loop_
_geom_bond_atom_site_label_1
_geom_bond_atom_site_label_2
_geom_bond_site_symmetry_1
_geom_bond_site_symmetry_2
Cu1 N1 1_555 1_555
N1 C1 1_555 1_555
N2 Cu1 1_555 1_555
N3 N2 1_555 1_555
N4 C6 1_555 1_555
C1 H1 1_555 1_555
C2 C1 1_555 1_555
H2 C2 1_555 1_555
C3 C2 1_555 1_555
H3 C3 1_555 1_555
C4 C3 1_555 1_555
H4 C4 1_555 1_555
C5 N1 1_555 1_555
C6 N2 1_555 1_555
C7 N3 1_555 1_555
C8 C7 1_555 1_555
H5 C8 1_555 1_555
C9 C8 1_555 1_555
H6 C9 1_555 1_555
C10 C9 1_555 1_555
H7 C10 1_555 1_555
C11 N4 1_555 1_555
H8 C11 1_555 1_555
N5 Cu1 1_555 1_555
C12 N5 1_555 1_555
S1 C12 1_555 1_555
N6 Cu1 1_555 1_555
C13 N6 1_555 1_555
S2 C13 1_555 1_555
Cu1_2 S2 1_555 1_555
S2_2 Cu1 1_555 1_555
N4 C7 1_555 1_555
C4 C5 1_555 1_555
C5 C6 1_555 1_555
C10 C11 1_555 1_555

#END
