
#######################################################################
#
#                 Cambridge Crystallographic Data Centre
#                                CCDC 
#
#######################################################################
#
# If this CIF has been generated from an entry in the Cambridge 
# Structural Database, then it will include bibliographic, chemical, 
# crystal, experimental, refinement or atomic coordinate data resulting 
# from the CCDC's data processing and validation procedures.
#
#######################################################################

data_RACBEE
_symmetry_cell_setting           monoclinic
_symmetry_space_group_name_H-M   'P 21/c'
_symmetry_Int_Tables_number      14
_space_group_name_Hall           '-P 2ybc'
loop_
_symmetry_equiv_pos_site_id
_symmetry_equiv_pos_as_xyz
1 x,y,z
2 -x,1/2+y,1/2-z
3 -x,-y,-z
4 x,1/2-y,1/2+z
_cell_length_a                   8.8211(14)
_cell_length_b                   8.1086(13)
_cell_length_c                   9.8888(15)
_cell_angle_alpha                90
_cell_angle_beta                 91.560(3)
_cell_angle_gamma                90
_cell_volume                     707.052
loop_
_atom_site_label
_atom_site_type_symbol
_atom_site_fract_x
_atom_site_fract_y
_atom_site_fract_z
Cs1 Cs 0.09255(2) 0.83128(3) 0.685726(19)
S1 S 0.21616(9) 0.32742(9) 0.55619(8)
O1 O 0.2025(2) 0.4565(3) 0.6584(2)
O2 O 0.1099(3) 0.1939(3) 0.5786(2)
O3 O 0.2099(3) 0.3910(3) 0.4196(2)
N1 N 0.6491(3) 0.1925(4) 0.5641(3)
N2 N 0.5874(3) 0.0953(4) 0.6574(3)
H1 H 0.6381 0.0229 0.7033
C1 C 0.4390(4) 0.1222(5) 0.6720(3)
H2 H 0.3760 0.0694 0.7322
C2 C 0.3978(3) 0.2423(4) 0.5813(3)
C3 C 0.5331(4) 0.2815(5) 0.5172(4)
H3 H 0.5406 0.3607 0.4497
Cs1A Cs -0.09255(2) 0.33128(3) 0.814274(19)
Cs1_2 Cs 0.09255(2) -0.16872(3) 0.685726(19)
Cs1B Cs -0.09255(2) 0.16872(3) 0.314274(19)
Cs1C Cs 0.09255(2) 0.66872(3) 0.185726(19)
Cs1A_2 Cs 0.90745(2) 0.33128(3) 0.814274(19)
Cs1B_2 Cs 0.90745(2) 0.16872(3) 0.314274(19)
O1A O -0.2025(2) 0.9565(3) 0.8416(2)
O2_2 O 0.1099(3) 1.1939(3) 0.5786(2)
O2A O -0.1099(3) 0.6939(3) 0.9214(2)
O2B O -0.1099(3) 0.8061(3) 0.4214(2)
O3B O -0.2099(3) 0.6090(3) 0.5804(2)
O3C O 0.2099(3) 1.1090(3) 0.9196(2)
N1A N 0.3509(3) 0.6925(4) 0.9359(3)
N1B N 0.3509(3) 0.8075(4) 0.4359(3)
loop_
_geom_bond_atom_site_label_1
_geom_bond_atom_site_label_2
_geom_bond_site_symmetry_1
_geom_bond_site_symmetry_2
Cs1 O1 1_555 1_555
S1 O1 1_555 1_555
O1 Cs1A 1_555 1_555
O2 S1 1_555 1_555
O3 S1 1_555 1_555
N1 N2 1_555 1_555
N2 H1 1_555 1_555
C1 N2 1_555 1_555
H2 C1 1_555 1_555
C2 S1 1_555 1_555
C3 N1 1_555 1_555
H3 C3 1_555 1_555
Cs1A O2 1_555 1_555
Cs1_2 O2 1_555 1_555
Cs1B O2 1_555 1_555
Cs1C O3 1_555 1_555
Cs1A_2 N1 1_555 1_555
Cs1B_2 N1 1_555 1_555
O1A Cs1 1_555 1_555
O2_2 Cs1 1_555 1_555
O2A Cs1 1_555 1_555
O2B Cs1 1_555 1_555
O3B Cs1 1_555 1_555
O3C Cs1 1_555 1_555
N1A Cs1 1_555 1_555
N1B Cs1 1_555 1_555
O3 Cs1B 1_555 1_555
C1 C2 1_555 1_555
C2 C3 1_555 1_555
Cs1A O2A 1_555 1_555
Cs1A O3B 1_555 1_555
Cs1C O2B 1_555 1_555
Cs1C N1B 1_555 1_555

#END
