
#######################################################################
#
#                 Cambridge Crystallographic Data Centre
#                                CCDC 
#
#######################################################################
#
# If this CIF has been generated from an entry in the Cambridge 
# Structural Database, then it will include bibliographic, chemical, 
# crystal, experimental, refinement or atomic coordinate data resulting 
# from the CCDC's data processing and validation procedures.
#
#######################################################################

data_RACWEZ
_symmetry_cell_setting           triclinic
_symmetry_space_group_name_H-M   'P -1'
_symmetry_Int_Tables_number      2
_space_group_name_Hall           '-P 1'
loop_
_symmetry_equiv_pos_site_id
_symmetry_equiv_pos_as_xyz
1 x,y,z
2 -x,-y,-z
_cell_length_a                   9.526(2)
_cell_length_b                   9.542(3)
_cell_length_c                   11.736(3)
_cell_angle_alpha                69.01(3)
_cell_angle_beta                 89.15(3)
_cell_angle_gamma                65.47(4)
_cell_volume                     894.761
loop_
_atom_site_label
_atom_site_type_symbol
_atom_site_fract_x
_atom_site_fract_y
_atom_site_fract_z
Fe1 Fe 0.5000 0.0000 0.5000
N1 N 0.0134(3) 0.1584(4) 0.3725(3)
N2 N 0.0884(3) 0.1216(3) 0.2840(3)
N3 N 0.2401(3) 0.0648(3) 0.3070(2)
N4 N 0.2687(3) 0.0628(3) 0.4181(2)
C1 C 0.0069(4) 0.1516(5) 0.1667(3)
H1 H -0.0699 0.1077 0.1829
H2 H 0.0813 0.0935 0.1229
C2 C -0.0735(4) 0.3364(5) 0.0874(3)
H3 H -0.1407 0.3947 0.1345
H4 H -0.1389 0.3541 0.0162
C3 C 0.0401(4) 0.4101(4) 0.0430(3)
H5 H 0.1001 0.4002 0.1139
H6 H 0.1125 0.3466 0.0011
C4 C 0.1302(4) 0.1198(4) 0.4545(3)
H7 H 0.1173 0.1311 0.5299
N5 N 0.4794(4) 0.3612(4) 0.1408(3)
N6 N 0.5764(3) 0.2160(3) 0.1378(2)
N7 N 0.6065(3) 0.0891(3) 0.2418(2)
N8 N 0.5282(3) 0.1526(3) 0.3191(2)
C5 C 0.6339(4) 0.1980(4) 0.0252(3)
H8 H 0.7220 0.0892 0.0467
H9 H 0.6699 0.2824 -0.0151
C6 C 0.5074(4) 0.2160(4) -0.0633(3)
H10 H 0.5496 0.2072 -0.1375
H11 H 0.4222 0.3271 -0.0868
C7 C 0.4415(4) 0.0888(4) -0.0133(3)
H12 H 0.4017 0.0950 0.0621
H13 H 0.3542 0.1185 -0.0730
C8 C 0.4531(5) 0.3160(4) 0.2557(3)
H14 H 0.3886 0.3907 0.2888
N9 N 0.5985(3) -0.2183(4) 0.4541(3)
C9 C 0.6591(4) -0.3273(5) 0.4268(3)
C10 C 0.7409(6) -0.4687(5) 0.3902(4)
H15 H 0.8440 -0.5361 0.4373
H16 H 0.7481 -0.4279 0.3038
H17 H 0.6842 -0.5349 0.4055
Fe1_2 Fe -0.5000 1.0000 -0.5000
Fe1_3 Fe 0.5000 0.0000 -0.5000
N1A N -0.0134(3) 0.8416(4) -0.3725(3)
N2A N -0.0884(3) 0.8784(3) -0.2840(3)
N3A N -0.2401(3) 0.9352(3) -0.3070(2)
N4A N -0.2687(3) 0.9372(3) -0.4181(2)
N4A_2 N 0.7313(3) -0.0628(3) 0.5819(2)
C1A C -0.0069(4) 0.8484(5) -0.1667(3)
H1A H 0.0699 0.8923 -0.1829
H2A H -0.0813 0.9065 -0.1229
C2A C 0.0735(4) 0.6636(5) -0.0874(3)
H3A H 0.1407 0.6053 -0.1345
H4A H 0.1389 0.6459 -0.0162
C3A C -0.0401(4) 0.5899(4) -0.0430(3)
H5A H -0.1001 0.5998 -0.1139
H6A H -0.1125 0.6534 -0.0011
C4A C -0.1302(4) 0.8802(4) -0.4545(3)
H7A H -0.1173 0.8689 -0.5299
N5A N 0.5206(4) -0.3612(4) -0.1408(3)
N6A N 0.4236(3) -0.2160(3) -0.1378(2)
N7A N 0.3935(3) -0.0891(3) -0.2418(2)
N8A N 0.4718(3) -0.1526(3) -0.3191(2)
N8A_2 N 0.4718(3) -0.1526(3) 0.6809(2)
C5A C 0.3661(4) -0.1980(4) -0.0252(3)
H8A H 0.2780 -0.0892 -0.0467
H9A H 0.3301 -0.2824 0.0151
C6A C 0.4926(4) -0.2160(4) 0.0633(3)
H10A H 0.4504 -0.2072 0.1375
H11A H 0.5778 -0.3271 0.0868
C7A C 0.5585(4) -0.0888(4) 0.0133(3)
H12A H 0.5983 -0.0950 -0.0621
H13A H 0.6458 -0.1185 0.0730
C8A C 0.5469(5) -0.3160(4) -0.2557(3)
H14A H 0.6114 -0.3907 -0.2888
N9A N 0.4015(3) 0.2183(4) 0.5459(3)
C9A C 0.3409(4) 0.3273(5) 0.5732(3)
C10A C 0.2591(6) 0.4687(5) 0.6098(4)
H15A H 0.1560 0.5361 0.5627
H16A H 0.2519 0.4279 0.6962
H17A H 0.3158 0.5349 0.5945
Cl1 Cl 0.92691(14) -0.70472(13) 0.74553(9)
O1 O 0.956(2) -0.7861(13) 0.6605(8)
O2 O 1.0546(19) -0.8025(17) 0.8430(19)
O3 O 0.7884(18) -0.7001(16) 0.7861(18)
O4 O 0.9016(12) -0.5263(16) 0.6944(17)
O5? O 1.032(3) -0.768(3) 0.682(2)
O6? O 0.955(3) -0.804(2) 0.8694(11)
O7? O 0.785(3) -0.688(2) 0.707(2)
O8? O 0.921(3) -0.571(3) 0.725(3)
loop_
_geom_bond_atom_site_label_1
_geom_bond_atom_site_label_2
_geom_bond_site_symmetry_1
_geom_bond_site_symmetry_2
Fe1 N4 1_555 1_555
Cl1 O1 1_555 1_555
O2 Cl1 1_555 1_555
O3 Cl1 1_555 1_555
O4 Cl1 1_555 1_555
N1 N2 1_555 1_555
N2 N3 1_555 1_555
N3 N4 1_555 1_555
N4 C4 1_555 1_555
C1 N2 1_555 1_555
H1 C1 1_555 1_555
H2 C1 1_555 1_555
C2 C1 1_555 1_555
H3 C2 1_555 1_555
H4 C2 1_555 1_555
C3 C2 1_555 1_555
H5 C3 1_555 1_555
H6 C3 1_555 1_555
C4 N1 1_555 1_555
H7 C4 1_555 1_555
N5 N6 1_555 1_555
N6 N7 1_555 1_555
N7 N8 1_555 1_555
N8 Fe1 1_555 1_555
C5 N6 1_555 1_555
H8 C5 1_555 1_555
H9 C5 1_555 1_555
C6 C5 1_555 1_555
H10 C6 1_555 1_555
H11 C6 1_555 1_555
C7 C6 1_555 1_555
H12 C7 1_555 1_555
H13 C7 1_555 1_555
C8 N5 1_555 1_555
H14 C8 1_555 1_555
N9 Fe1 1_555 1_555
C9 N9 1_555 1_555
C10 C9 1_555 1_555
H15 C10 1_555 1_555
H16 C10 1_555 1_555
H17 C10 1_555 1_555
Fe1_2 N4A 1_555 1_555
Fe1_3 N8A 1_555 1_555
N1A N2A 1_555 1_555
N2A N3A 1_555 1_555
N3A N4A 1_555 1_555
N4A C4A 1_555 1_555
N4A_2 Fe1 1_555 1_555
C1A N2A 1_555 1_555
H1A C1A 1_555 1_555
H2A C1A 1_555 1_555
C2A C1A 1_555 1_555
H3A C2A 1_555 1_555
H4A C2A 1_555 1_555
C3A C3 1_555 1_555
H5A C3A 1_555 1_555
H6A C3A 1_555 1_555
C4A N1A 1_555 1_555
H7A C4A 1_555 1_555
N5A N6A 1_555 1_555
N6A N7A 1_555 1_555
N7A N8A 1_555 1_555
N8A C8A 1_555 1_555
N8A_2 Fe1 1_555 1_555
C5A N6A 1_555 1_555
H8A C5A 1_555 1_555
H9A C5A 1_555 1_555
C6A C5A 1_555 1_555
H10A C6A 1_555 1_555
H11A C6A 1_555 1_555
C7A C7 1_555 1_555
H12A C7A 1_555 1_555
H13A C7A 1_555 1_555
C8A N5A 1_555 1_555
H14A C8A 1_555 1_555
N9A Fe1 1_555 1_555
C9A N9A 1_555 1_555
C10A C9A 1_555 1_555
H15A C10A 1_555 1_555
H16A C10A 1_555 1_555
H17A C10A 1_555 1_555
N8 C8 1_555 1_555
C2A C3A 1_555 1_555
C6A C7A 1_555 1_555

#END
