
#######################################################################
#
#                 Cambridge Crystallographic Data Centre
#                                CCDC 
#
#######################################################################
#
# If this CIF has been generated from an entry in the Cambridge 
# Structural Database, then it will include bibliographic, chemical, 
# crystal, experimental, refinement or atomic coordinate data resulting 
# from the CCDC's data processing and validation procedures.
#
#######################################################################

data_RACWEZ04
_symmetry_cell_setting           triclinic
_symmetry_space_group_name_H-M   'P -1'
_symmetry_Int_Tables_number      2
_space_group_name_Hall           '-P 1'
loop_
_symmetry_equiv_pos_site_id
_symmetry_equiv_pos_as_xyz
1 x,y,z
2 -x,-y,-z
_cell_length_a                   9.530(2)
_cell_length_b                   9.359(2)
_cell_length_c                   11.518(3)
_cell_angle_alpha                70.28(3)
_cell_angle_beta                 90.61(3)
_cell_angle_gamma                65.87(4)
_cell_volume                     869.254
loop_
_atom_site_label
_atom_site_type_symbol
_atom_site_fract_x
_atom_site_fract_y
_atom_site_fract_z
Fe1 Fe 0.5000 0.0000 0.5000
N1 N 0.0252(3) 0.1427(3) 0.3697(2)
N2 N 0.1009(2) 0.1086(2) 0.27880(19)
N3 N 0.2521(2) 0.0551(2) 0.30306(19)
N4 N 0.2801(2) 0.0539(2) 0.41708(18)
C1 C 0.0195(3) 0.1380(3) 0.1587(2)
H1 H -0.0564 0.0892 0.1737
H2 H 0.0958 0.0804 0.1128
C2 C -0.0656(3) 0.3249(3) 0.0800(3)
H3 H -0.1402 0.3818 0.1273
H4 H -0.1265 0.3406 0.0028
C3 C 0.0432(3) 0.4089(3) 0.0437(3)
H5 H 0.0971 0.4029 0.1204
H6 H 0.1236 0.3464 0.0027
C4 C 0.1410(3) 0.1070(3) 0.4550(3)
H7 H 0.1277 0.1175 0.5338
N5 N 0.4719(3) 0.3659(3) 0.1486(2)
N6 N 0.5733(2) 0.2192(2) 0.14396(19)
N7 N 0.6067(2) 0.0887(2) 0.24827(19)
N8 N 0.5244(2) 0.1502(2) 0.32708(19)
C5 C 0.6304(3) 0.2041(3) 0.0290(2)
H8 H 0.7214 0.0930 0.0497
H9 H 0.6649 0.2931 -0.0104
C6 C 0.5029(3) 0.2211(3) -0.0624(2)
H10 H 0.5445 0.2128 -0.1395
H11 H 0.4153 0.3350 -0.0858
C7 C 0.4393(3) 0.0900(3) -0.0133(2)
H12 H 0.3993 0.0963 0.0647
H13 H 0.3504 0.1182 -0.0757
C8 C 0.4442(3) 0.3174(3) 0.2637(3)
H14 H 0.3749 0.3925 0.2982
N9 N 0.6003(2) -0.2080(3) 0.45114(19)
C9 C 0.6640(3) -0.3197(4) 0.4211(2)
C10 C 0.7469(4) -0.4602(4) 0.3820(3)
H15 H 0.7819 -0.5667 0.4543
H16 H 0.8376 -0.4503 0.3475
H17 H 0.6770 -0.4582 0.3178
Fe1_2 Fe -0.5000 1.0000 -0.5000
Fe1_3 Fe 0.5000 0.0000 -0.5000
N1A N -0.0252(3) 0.8573(3) -0.3697(2)
N2A N -0.1009(2) 0.8914(2) -0.27880(19)
N3A N -0.2521(2) 0.9449(2) -0.30306(19)
N4A N -0.2801(2) 0.9461(2) -0.41708(18)
N4A_2 N 0.7199(2) -0.0539(2) 0.58292(18)
C1A C -0.0195(3) 0.8620(3) -0.1587(2)
H1A H 0.0564 0.9108 -0.1737
H2A H -0.0958 0.9196 -0.1128
C2A C 0.0656(3) 0.6751(3) -0.0800(3)
H3A H 0.1402 0.6182 -0.1273
H4A H 0.1265 0.6594 -0.0028
C3A C -0.0432(3) 0.5911(3) -0.0437(3)
H5A H -0.0971 0.5971 -0.1204
H6A H -0.1236 0.6536 -0.0027
C4A C -0.1410(3) 0.8930(3) -0.4550(3)
H7A H -0.1277 0.8825 -0.5338
N5A N 0.5281(3) -0.3659(3) -0.1486(2)
N6A N 0.4267(2) -0.2192(2) -0.14396(19)
N7A N 0.3933(2) -0.0887(2) -0.24827(19)
N8A N 0.4756(2) -0.1502(2) -0.32708(19)
N8A_2 N 0.4756(2) -0.1502(2) 0.67292(19)
C5A C 0.3696(3) -0.2041(3) -0.0290(2)
H8A H 0.2786 -0.0930 -0.0497
H9A H 0.3351 -0.2931 0.0104
C6A C 0.4971(3) -0.2211(3) 0.0624(2)
H10A H 0.4555 -0.2128 0.1395
H11A H 0.5847 -0.3350 0.0858
C7A C 0.5607(3) -0.0900(3) 0.0133(2)
H12A H 0.6007 -0.0963 -0.0647
H13A H 0.6496 -0.1182 0.0757
C8A C 0.5558(3) -0.3174(3) -0.2637(3)
H14A H 0.6251 -0.3925 -0.2982
N9A N 0.3997(2) 0.2080(3) 0.54886(19)
C9A C 0.3360(3) 0.3197(4) 0.5789(2)
C10A C 0.2531(4) 0.4602(4) 0.6180(3)
H15A H 0.2181 0.5667 0.5457
H16A H 0.1624 0.4503 0.6525
H17A H 0.3230 0.4582 0.6822
Cl1 Cl 0.92724(7) -0.70351(8) 0.74210(6)
O1 O 0.9475(5) -0.7811(3) 0.6494(2)
O2 O 1.0631(4) -0.7957(4) 0.8369(3)
O3 O 0.7934(3) -0.7077(3) 0.7950(4)
O4 O 0.9007(3) -0.5313(3) 0.6808(4)
O5? O 1.028(3) -0.763(3) 0.668(2)
O6? O 0.996(3) -0.812(3) 0.873(2)
O7? O 0.775(2) -0.686(3) 0.726(3)
O8? O 0.924(3) -0.532(3) 0.739(2)
loop_
_geom_bond_atom_site_label_1
_geom_bond_atom_site_label_2
_geom_bond_site_symmetry_1
_geom_bond_site_symmetry_2
Fe1 N4 1_555 1_555
Cl1 O1 1_555 1_555
O2 Cl1 1_555 1_555
O3 Cl1 1_555 1_555
O4 Cl1 1_555 1_555
N1 N2 1_555 1_555
N2 N3 1_555 1_555
N3 N4 1_555 1_555
N4 C4 1_555 1_555
C1 N2 1_555 1_555
H1 C1 1_555 1_555
H2 C1 1_555 1_555
C2 C1 1_555 1_555
H3 C2 1_555 1_555
H4 C2 1_555 1_555
C3 C2 1_555 1_555
H5 C3 1_555 1_555
H6 C3 1_555 1_555
C4 N1 1_555 1_555
H7 C4 1_555 1_555
N5 N6 1_555 1_555
N6 N7 1_555 1_555
N7 N8 1_555 1_555
N8 Fe1 1_555 1_555
C5 N6 1_555 1_555
H8 C5 1_555 1_555
H9 C5 1_555 1_555
C6 C5 1_555 1_555
H10 C6 1_555 1_555
H11 C6 1_555 1_555
C7 C6 1_555 1_555
H12 C7 1_555 1_555
H13 C7 1_555 1_555
C8 N5 1_555 1_555
H14 C8 1_555 1_555
N9 Fe1 1_555 1_555
C9 N9 1_555 1_555
C10 C9 1_555 1_555
H15 C10 1_555 1_555
H16 C10 1_555 1_555
H17 C10 1_555 1_555
Fe1_2 N4A 1_555 1_555
Fe1_3 N8A 1_555 1_555
N1A N2A 1_555 1_555
N2A N3A 1_555 1_555
N3A N4A 1_555 1_555
N4A C4A 1_555 1_555
N4A_2 Fe1 1_555 1_555
C1A N2A 1_555 1_555
H1A C1A 1_555 1_555
H2A C1A 1_555 1_555
C2A C1A 1_555 1_555
H3A C2A 1_555 1_555
H4A C2A 1_555 1_555
C3A C3 1_555 1_555
H5A C3A 1_555 1_555
H6A C3A 1_555 1_555
C4A N1A 1_555 1_555
H7A C4A 1_555 1_555
N5A N6A 1_555 1_555
N6A N7A 1_555 1_555
N7A N8A 1_555 1_555
N8A C8A 1_555 1_555
N8A_2 Fe1 1_555 1_555
C5A N6A 1_555 1_555
H8A C5A 1_555 1_555
H9A C5A 1_555 1_555
C6A C5A 1_555 1_555
H10A C6A 1_555 1_555
H11A C6A 1_555 1_555
C7A C7 1_555 1_555
H12A C7A 1_555 1_555
H13A C7A 1_555 1_555
C8A N5A 1_555 1_555
H14A C8A 1_555 1_555
N9A Fe1 1_555 1_555
C9A N9A 1_555 1_555
C10A C9A 1_555 1_555
H15A C10A 1_555 1_555
H16A C10A 1_555 1_555
H17A C10A 1_555 1_555
N8 C8 1_555 1_555
C2A C3A 1_555 1_555
C6A C7A 1_555 1_555

#END
