
#######################################################################
#
#                 Cambridge Crystallographic Data Centre
#                                CCDC 
#
#######################################################################
#
# If this CIF has been generated from an entry in the Cambridge 
# Structural Database, then it will include bibliographic, chemical, 
# crystal, experimental, refinement or atomic coordinate data resulting 
# from the CCDC's data processing and validation procedures.
#
#######################################################################

data_RADVOI
_symmetry_cell_setting           monoclinic
_symmetry_space_group_name_H-M   'P 21/c'
_symmetry_Int_Tables_number      14
_space_group_name_Hall           '-P 2ybc'
loop_
_symmetry_equiv_pos_site_id
_symmetry_equiv_pos_as_xyz
1 x,y,z
2 x,1/2-y,1/2+z
3 -x,-y,-z
4 -x,1/2+y,1/2-z
_cell_length_a                   5.9370(8)
_cell_length_b                   23.063(3)
_cell_length_c                   15.977(2)
_cell_angle_alpha                90
_cell_angle_beta                 92.789(2)
_cell_angle_gamma                90
_cell_volume                     2185.06
loop_
_atom_site_label
_atom_site_type_symbol
_atom_site_fract_x
_atom_site_fract_y
_atom_site_fract_z
Ag1 Ag 1.03831(5) 0.580834(15) -0.238176(18)
N1 N 1.0025(5) 0.58377(12) -0.1032(2)
N2 N -0.9363(5) 0.91124(12) 0.1272(2)
C1 C 0.1813(6) 0.72327(15) -0.0432(2)
C2 C -0.0077(7) 0.75323(17) -0.0749(2)
H1 H -0.0337 0.7571 -0.1325
C3 C -0.1573(6) 0.77737(17) -0.0206(2)
H2 H -0.2836 0.7974 -0.0416
C4 C -0.1175(6) 0.77144(15) 0.0655(2)
C5 C 0.0713(7) 0.74128(17) 0.0971(2)
H3 H 0.0974 0.7373 0.1547
C6 C 0.2200(7) 0.71728(16) 0.0427(2)
H4 H 0.3460 0.6971 0.0638
C7 C 0.3315(7) 0.69647(17) -0.1048(2)
O1 O 0.3023(6) 0.69956(17) -0.17896(19)
O2 O 0.4988(4) 0.66606(12) -0.06703(16)
C8 C 0.6482(6) 0.63566(16) -0.1204(2)
H5 H 0.7168 0.6626 -0.1582
H6 H 0.5655 0.6067 -0.1535
C9 C 0.8266(6) 0.60714(15) -0.0642(2)
C10 C 0.8150(7) 0.60452(18) 0.0219(2)
H7 H 0.6909 0.6198 0.0476
C11 C 0.9888(8) 0.57906(18) 0.0700(3)
H8 H 0.9834 0.5775 0.1281
C12 C 1.1684(7) 0.55631(18) 0.0306(3)
H9 H 1.2888 0.5397 0.0614
C13 C 1.1672(6) 0.55851(17) -0.0556(2)
H10 H 1.2867 0.5416 -0.0822
C14 C -0.2670(7) 0.79845(17) 0.1272(2)
O3 O -0.2360(6) 0.79550(17) 0.20163(19)
O4 O -0.4352(5) 0.82855(12) 0.08922(17)
C15 C -0.5846(6) 0.85948(17) 0.1423(2)
H11 H -0.5013 0.8888 0.1745
H12 H -0.6515 0.8329 0.1810
C16 C -0.7647(6) 0.88736(15) 0.0874(2)
C17 C -0.7576(7) 0.88883(18) 0.0009(2)
H13 H -0.6355 0.8730 -0.0254
C18 C -0.9327(9) 0.91386(18) -0.0459(3)
H14 H -0.9305 0.9151 -0.1041
C19 C -1.1106(8) 0.93703(19) -0.0053(3)
H15 H -1.2333 0.9530 -0.0355
C20 C -1.1039(7) 0.93615(17) 0.0809(3)
H16 H -1.2209 0.9536 0.1083
N2A N 1.0637(5) 0.58876(12) -0.3728(2)
Ag1A Ag -0.96169(5) 0.919166(15) 0.261824(18)
C21 C 0.4827(9) 0.3950(2) 0.7418(3)
F1 F 0.561(2) 0.3666(3) 0.6821(4)
F2 F 0.5391(19) 0.3736(6) 0.8136(5)
F3 F 0.2518(11) 0.3852(3) 0.7335(6)
S1 S 0.5182(2) 0.47261(5) 0.73689(7)
O5 O 0.4657(7) 0.48767(17) 0.6526(2)
O6 O 0.3947(14) 0.4943(2) 0.7991(4)
O7 O 0.7623(8) 0.4781(2) 0.7546(3)
F4? F 0.703(3) 0.3781(9) 0.7253(16)
F5? F 0.462(4) 0.3717(14) 0.8153(8)
F6? F 0.366(5) 0.3673(7) 0.6867(11)
loop_
_geom_bond_atom_site_label_1
_geom_bond_atom_site_label_2
_geom_bond_site_symmetry_1
_geom_bond_site_symmetry_2
Ag1 N1 1_555 1_555
N1 C9 1_555 1_555
N2 C16 1_555 1_555
C1 C2 1_555 1_555
C2 H1 1_555 1_555
C3 C2 1_555 1_555
H2 C3 1_555 1_555
C4 C3 1_555 1_555
C5 C4 1_555 1_555
H3 C5 1_555 1_555
C6 C1 1_555 1_555
H4 C6 1_555 1_555
C7 C1 1_555 1_555
O1 C7 1_555 1_555
O2 C7 1_555 1_555
C8 O2 1_555 1_555
H5 C8 1_555 1_555
H6 C8 1_555 1_555
C9 C8 1_555 1_555
C10 C9 1_555 1_555
H7 C10 1_555 1_555
C11 C10 1_555 1_555
H8 C11 1_555 1_555
C12 C11 1_555 1_555
H9 C12 1_555 1_555
C13 N1 1_555 1_555
H10 C13 1_555 1_555
C14 C4 1_555 1_555
O3 C14 1_555 1_555
O4 C14 1_555 1_555
C15 O4 1_555 1_555
H11 C15 1_555 1_555
H12 C15 1_555 1_555
C16 C15 1_555 1_555
C17 C16 1_555 1_555
H13 C17 1_555 1_555
C18 C17 1_555 1_555
H14 C18 1_555 1_555
C19 C18 1_555 1_555
H15 C19 1_555 1_555
C20 N2 1_555 1_555
H16 C20 1_555 1_555
C21 F1 1_555 1_555
F2 C21 1_555 1_555
F3 C21 1_555 1_555
S1 C21 1_555 1_555
O5 S1 1_555 1_555
O6 S1 1_555 1_555
O7 S1 1_555 1_555
N2A Ag1 1_555 1_555
Ag1A N2 1_555 1_555
C5 C6 1_555 1_555
C12 C13 1_555 1_555
C19 C20 1_555 1_555

#END
