
#######################################################################
#
#                 Cambridge Crystallographic Data Centre
#                                CCDC 
#
#######################################################################
#
# If this CIF has been generated from an entry in the Cambridge 
# Structural Database, then it will include bibliographic, chemical, 
# crystal, experimental, refinement or atomic coordinate data resulting 
# from the CCDC's data processing and validation procedures.
#
#######################################################################

data_RAFFUB
_symmetry_cell_setting           triclinic
_symmetry_space_group_name_H-M   'P 1'
_symmetry_Int_Tables_number      1
_space_group_name_Hall           'P 1'
loop_
_symmetry_equiv_pos_site_id
_symmetry_equiv_pos_as_xyz
1 x,y,z
_cell_length_a                   12.0202(4)
_cell_length_b                   14.8624(5)
_cell_length_c                   15.1291(5)
_cell_angle_alpha                63.492(2)
_cell_angle_beta                 77.301(2)
_cell_angle_gamma                84.613(2)
_cell_volume                     2359.47
loop_
_atom_site_label
_atom_site_type_symbol
_atom_site_fract_x
_atom_site_fract_y
_atom_site_fract_z
C1 C 0.6193(5) 0.8080(5) 0.0708(5)
H1 H 0.6721 0.8566 0.0151
H2 H 0.5857 0.7700 0.0451
C2 C 0.5254(6) 0.8635(7) 0.1127(7)
H3 H 0.4883 0.9105 0.0590
H4 H 0.4685 0.8155 0.1639
C3 C 0.5721(7) 0.9184(6) 0.1570(6)
H5 H 0.5106 0.9528 0.1829
H6 H 0.6258 0.9688 0.1049
C4 C 0.6321(5) 0.8486(5) 0.2424(5)
H7 H 0.5777 0.8009 0.2972
H8 H 0.6642 0.8875 0.2679
C5 C 0.7273(4) 0.7920(4) 0.2019(4)
H9 H 0.7859 0.8406 0.1523
C6 C 0.6846(4) 0.7365(4) 0.1514(4)
H10 H 0.6331 0.6821 0.2027
C7 C 0.8011(6) 0.5982(5) 0.1390(5)
H11 H 0.7507 0.5555 0.1959
C8 C 0.8924(5) 0.5516(5) 0.0969(4)
C9 C 0.9773(5) 0.6141(4) 0.0140(4)
C10 C 1.0647(6) 0.5650(5) -0.0263(5)
H12 H 1.1233 0.6028 -0.0782
C11 C 1.0654(6) 0.4634(6) 0.0089(6)
H13 H 1.1237 0.4340 -0.0209
C12 C 0.9813(6) 0.4009(4) 0.0887(5)
C13 C 0.8952(5) 0.4436(4) 0.1354(4)
C14 C 0.8138(6) 0.3792(5) 0.2136(5)
H14 H 0.7547 0.4046 0.2470
C15 C 0.8212(9) 0.2770(6) 0.2415(7)
H15 H 0.7661 0.2350 0.2942
C16 C 0.9039(9) 0.2354(6) 0.1962(8)
H16 H 0.9052 0.1664 0.2166
C17 C 0.9864(8) 0.2966(6) 0.1195(7)
H17 H 1.0454 0.2693 0.0881
C18 C 0.8886(5) 0.7079(4) 0.2792(4)
H18 H 0.9342 0.7561 0.2227
C19 C 0.9465(4) 0.6314(3) 0.3491(3)
C20 C 0.8836(4) 0.5496(4) 0.4322(3)
C21 C 0.9480(5) 0.4678(4) 0.4939(4)
H19 H 0.9097 0.4112 0.5463
C22 C 1.0622(4) 0.4717(4) 0.4772(4)
H20 H 1.1004 0.4175 0.5193
C23 C 1.1275(4) 0.5547(4) 0.3984(4)
C24 C 1.0706(4) 0.6338(4) 0.3324(3)
C25 C 1.1372(4) 0.7138(5) 0.2519(4)
H21 H 1.1016 0.7677 0.2070
C26 C 1.2544(5) 0.7128(5) 0.2390(4)
H22 H 1.2968 0.7665 0.1860
C27 C 1.3099(4) 0.6325(5) 0.3044(4)
H23 H 1.3891 0.6313 0.2944
C28 C 1.2465(4) 0.5554(4) 0.3834(4)
H24 H 1.2832 0.5023 0.4282
C29 C 0.2614(7) 0.7825(4) 0.4359(5)
H25 H 0.3338 0.7641 0.4050
H26 H 0.2013 0.7493 0.4277
C30 C 0.2462(8) 0.8960(5) 0.3823(6)
H27 H 0.2575 0.9168 0.3104
H28 H 0.1686 0.9128 0.4050
C31 C 0.3268(9) 0.9528(5) 0.4011(5)
H29 H 0.3094 1.0240 0.3698
H30 H 0.4040 0.9436 0.3702
C32 C 0.3193(6) 0.9179(4) 0.5138(4)
H31 H 0.2438 0.9315 0.5440
H32 H 0.3742 0.9548 0.5235
C33 C 0.3437(4) 0.8042(3) 0.5657(4)
H33 H 0.4208 0.7916 0.5355
C34 C 0.2581(5) 0.7457(3) 0.5495(4)
H34 H 0.1814 0.7574 0.5813
C35 C 0.1999(5) 0.5722(4) 0.6543(4)
H35 H 0.1331 0.5962 0.6809
C36 C 0.2060(4) 0.4696(4) 0.6829(4)
C37 C 0.3007(4) 0.4296(3) 0.6366(3)
C38 C 0.2926(4) 0.3289(4) 0.6506(4)
H36 H 0.3499 0.3043 0.6149
C39 C 0.2043(6) 0.2682(5) 0.7140(5)
H37 H 0.2024 0.2027 0.7217
C40 C 0.1134(5) 0.3030(4) 0.7698(5)
C41 C 0.1108(5) 0.4040(4) 0.7527(4)
C42 C 0.0169(6) 0.4330(5) 0.8057(5)
H38 H 0.0122 0.4997 0.7954
C43 C -0.0680(6) 0.3694(6) 0.8714(7)
H39 H -0.1297 0.3928 0.9045
C44 C -0.0633(7) 0.2697(7) 0.8895(7)
H40 H -0.1218 0.2257 0.9348
C45 C 0.0280(6) 0.2354(5) 0.8404(6)
H41 H 0.0330 0.1678 0.8540
C46 C 0.4174(4) 0.7253(4) 0.7218(4)
H42 H 0.4816 0.7085 0.6852
C47 C 0.4179(5) 0.6966(4) 0.8237(4)
C48 C 0.3223(4) 0.7229(4) 0.8833(3)
C49 C 0.3193(5) 0.6870(5) 0.9880(4)
H43 H 0.2576 0.7031 1.0275
C50 C 0.4055(5) 0.6289(4) 1.0323(4)
H44 H 0.3994 0.6040 1.1015
C51 C 0.5031(5) 0.6066(4) 0.9743(4)
C52 C 0.5126(5) 0.6429(4) 0.8683(4)
C53 C 0.6133(5) 0.6234(5) 0.8130(5)
H45 H 0.6218 0.6471 0.7436
C54 C 0.7001(6) 0.5695(6) 0.8602(6)
H46 H 0.7669 0.5585 0.8217
C55 C 0.6900(7) 0.5313(7) 0.9631(6)
H47 H 0.7481 0.4923 0.9938
C56 C 0.5945(7) 0.5509(5) 1.0197(6)
H48 H 0.5893 0.5276 1.0887
C57 C 0.6045(4) 0.0070(4) 0.8048(4)
H49 H 0.6026 -0.0026 0.8729
H50 H 0.6610 0.0584 0.7594
C58 C 0.6391(5) -0.0912(5) 0.7974(5)
H51 H 0.7131 -0.1121 0.8153
H52 H 0.5841 -0.1435 0.8441
C59 C 0.6441(5) -0.0763(5) 0.6912(5)
H53 H 0.6665 -0.1386 0.6862
H54 H 0.7007 -0.0253 0.6448
C60 C 0.5279(5) -0.0440(5) 0.6632(5)
H55 H 0.4737 -0.0983 0.7059
H56 H 0.5332 -0.0323 0.5940
C61 C 0.4832(5) 0.0508(4) 0.6738(4)
H57 H 0.5310 0.1078 0.6223
C62 C 0.4880(4) 0.0420(3) 0.7781(3)
H58 H 0.4312 -0.0080 0.8284
C63 C 0.4077(5) 0.1436(4) 0.8668(4)
H59 H 0.3703 0.0861 0.9186
C64 C 0.4015(4) 0.2299(3) 0.8840(3)
C65 C 0.4568(4) 0.3194(4) 0.8096(4)
C66 C 0.4593(6) 0.4005(4) 0.8348(5)
H60 H 0.4956 0.4602 0.7866
C67 C 0.4104(7) 0.3929(5) 0.9265(5)
H61 H 0.4139 0.4478 0.9399
C68 C 0.3535(6) 0.3041(5) 1.0042(4)
C69 C 0.3472(5) 0.2222(4) 0.9829(4)
C70 C 0.2845(6) 0.1373(4) 1.0606(4)
H62 H 0.2745 0.0830 1.0482
C71 C 0.2384(6) 0.1334(5) 1.1529(5)
H63 H 0.1955 0.0776 1.2015
C72 C 0.2544(7) 0.2110(5) 1.1752(5)
H64 H 0.2279 0.2058 1.2398
C73 C 0.3098(7) 0.2952(6) 1.1009(5)
H65 H 0.3189 0.3485 1.1151
C74 C 0.3394(4) 0.1352(3) 0.5726(3)
H66 H 0.3964 0.1793 0.5249
C75 C 0.2302(5) 0.1458(4) 0.5480(4)
C76 C 0.1436(4) 0.0726(4) 0.6124(3)
C77 C 0.0344(5) 0.0842(5) 0.5839(5)
H67 H -0.0229 0.0372 0.6252
C78 C 0.0144(5) 0.1602(6) 0.5004(5)
H68 H -0.0570 0.1648 0.4845
C79 C 0.0980(4) 0.2363(4) 0.4330(4)
C80 C 0.2083(4) 0.2285(3) 0.4549(3)
C81 C 0.2892(5) 0.3021(4) 0.3858(4)
H69 H 0.3627 0.2986 0.3974
C82 C 0.2605(6) 0.3795(4) 0.3009(4)
H70 H 0.3163 0.4263 0.2555
C83 C 0.1555(7) 0.3903(5) 0.2809(5)
H71 H 0.1389 0.4452 0.2240
C84 C 0.0722(6) 0.3201(5) 0.3447(5)
H72 H -0.0004 0.3269 0.3306
Ce1 Ce 0.600187(15) 0.446379(14) 0.551562(14)
Ce2 Ce 0.064958(19) 0.866351(18) 0.853134(17)
N1 N 0.7810(3) 0.6931(3) 0.1068(3)
N2 N 0.7794(4) 0.7189(3) 0.2846(3)
H73 H 0.7351 0.6811 0.3398
N3 N 0.2793(4) 0.6383(3) 0.5933(4)
H74 H 0.3468 0.6173 0.5786
N4 N 0.3378(3) 0.7727(3) 0.6731(3)
N5 N 0.3664(3) 0.0688(3) 0.6562(3)
N6 N 0.4613(3) 0.1367(3) 0.7845(3)
H75 H 0.4818 0.1915 0.7311
N7 N 0.7039(4) 0.2645(4) 0.5226(4)
N8 N 0.5384(4) 0.4510(5) 0.3640(4)
N9 N 0.5971(4) 0.6588(4) 0.5339(5)
N10 N -0.0231(6) 0.7970(6) 0.7235(5)
N11 N -0.1248(4) 0.9934(4) 0.9038(5)
N12 N 0.1910(5) 0.9178(4) 0.9773(4)
O1 O 0.9765(3) 0.7104(3) -0.0222(3)
H76 H 0.9146 0.7267 0.0170
O2 O 0.7742(3) 0.5478(3) 0.4512(2)
O3 O 0.3910(3) 0.4839(3) 0.5814(3)
O4 O 0.2397(3) 0.7772(3) 0.8454(3)
H77 H 0.2581 0.7870 0.7787
O5 O 0.5081(4) 0.3284(3) 0.7219(3)
O6 O 0.1602(3) -0.0025(3) 0.6954(3)
H78 H 0.2383 -0.0083 0.6937
O7 O 0.6357(4) 0.2585(3) 0.6005(3)
O8 O 0.7473(3) 0.3493(3) 0.4636(4)
O9 O 0.7295(4) 0.1897(3) 0.5067(4)
O10 O 0.5070(4) 0.3765(4) 0.4482(4)
O11 O 0.5853(4) 0.5220(3) 0.3650(3)
O12 O 0.5256(4) 0.4527(5) 0.2854(3)
O13 O 0.5614(3) 0.6445(3) 0.4692(3)
O14 O 0.6081(4) 0.5823(4) 0.6139(3)
O15 O 0.6238(4) 0.7423(3) 0.5202(4)
O16 O 0.0751(4) 0.7764(4) 0.7417(4)
O17 O -0.0818(4) 0.8517(5) 0.7597(5)
O18 O -0.0587(6) 0.7663(8) 0.6733(7)
O19 O -0.0537(4) 1.0277(3) 0.8260(4)
O20 O -0.1180(4) 0.9010(4) 0.9579(4)
O21 O -0.1990(4) 1.0436(4) 0.9290(4)
O22 O 0.2055(4) 0.9686(3) 0.8842(3)
O23 O 0.1100(5) 0.8531(4) 1.0167(4)
O24 O 0.2471(5) 0.9300(4) 1.0292(4)
O25 O 0.7340(4) 0.3981(5) 0.6768(4)
H79 H 0.6943 0.3541 0.7429
H80 H 0.7572 0.4578 0.6775
Ce2_2 Ce 1.064958(19) 0.866351(18) -0.146866(17)
Ce2_3 Ce 0.064958(19) -0.133649(18) 0.853134(17)
O1_2 O -0.0235(3) 0.7104(3) 0.9778(3)
H76_2 H -0.0854 0.7267 1.0170
O6_2 O 0.1602(3) 0.9975(3) 0.6954(3)
H78_2 H 0.2383 0.9917 0.6937
loop_
_geom_bond_atom_site_label_1
_geom_bond_atom_site_label_2
_geom_bond_site_symmetry_1
_geom_bond_site_symmetry_2
C1 H1 1_555 1_555
H2 C1 1_555 1_555
C2 C1 1_555 1_555
H3 C2 1_555 1_555
H4 C2 1_555 1_555
C3 C2 1_555 1_555
H5 C3 1_555 1_555
H6 C3 1_555 1_555
C4 C3 1_555 1_555
H7 C4 1_555 1_555
H8 C4 1_555 1_555
C5 C4 1_555 1_555
H9 C5 1_555 1_555
C6 C1 1_555 1_555
H10 C6 1_555 1_555
C7 H11 1_555 1_555
C8 C7 1_555 1_555
C9 C8 1_555 1_555
C10 C9 1_555 1_555
H12 C10 1_555 1_555
C11 C10 1_555 1_555
H13 C11 1_555 1_555
C12 C11 1_555 1_555
C13 C8 1_555 1_555
C14 C13 1_555 1_555
H14 C14 1_555 1_555
C15 C14 1_555 1_555
H15 C15 1_555 1_555
C16 C15 1_555 1_555
H16 C16 1_555 1_555
C17 C12 1_555 1_555
H17 C17 1_555 1_555
C18 H18 1_555 1_555
C19 C18 1_555 1_555
C20 C19 1_555 1_555
C21 C20 1_555 1_555
H19 C21 1_555 1_555
C22 C21 1_555 1_555
H20 C22 1_555 1_555
C23 C22 1_555 1_555
C24 C19 1_555 1_555
C25 C24 1_555 1_555
H21 C25 1_555 1_555
C26 C25 1_555 1_555
H22 C26 1_555 1_555
C27 C26 1_555 1_555
H23 C27 1_555 1_555
C28 C23 1_555 1_555
H24 C28 1_555 1_555
C29 H25 1_555 1_555
H26 C29 1_555 1_555
C30 C29 1_555 1_555
H27 C30 1_555 1_555
H28 C30 1_555 1_555
C31 C30 1_555 1_555
H29 C31 1_555 1_555
H30 C31 1_555 1_555
C32 C31 1_555 1_555
H31 C32 1_555 1_555
H32 C32 1_555 1_555
C33 C32 1_555 1_555
H33 C33 1_555 1_555
C34 C29 1_555 1_555
H34 C34 1_555 1_555
C35 H35 1_555 1_555
C36 C35 1_555 1_555
C37 C36 1_555 1_555
C38 C37 1_555 1_555
H36 C38 1_555 1_555
C39 C38 1_555 1_555
H37 C39 1_555 1_555
C40 C39 1_555 1_555
C41 C36 1_555 1_555
C42 C41 1_555 1_555
H38 C42 1_555 1_555
C43 C42 1_555 1_555
H39 C43 1_555 1_555
C44 C43 1_555 1_555
H40 C44 1_555 1_555
C45 C40 1_555 1_555
H41 C45 1_555 1_555
C46 H42 1_555 1_555
C47 C46 1_555 1_555
C48 C47 1_555 1_555
C49 C48 1_555 1_555
H43 C49 1_555 1_555
C50 C49 1_555 1_555
H44 C50 1_555 1_555
C51 C50 1_555 1_555
C52 C47 1_555 1_555
C53 C52 1_555 1_555
H45 C53 1_555 1_555
C54 C53 1_555 1_555
H46 C54 1_555 1_555
C55 C54 1_555 1_555
H47 C55 1_555 1_555
C56 C51 1_555 1_555
H48 C56 1_555 1_555
C57 H49 1_555 1_555
H50 C57 1_555 1_555
C58 C57 1_555 1_555
H51 C58 1_555 1_555
H52 C58 1_555 1_555
C59 C58 1_555 1_555
H53 C59 1_555 1_555
H54 C59 1_555 1_555
C60 C59 1_555 1_555
H55 C60 1_555 1_555
H56 C60 1_555 1_555
C61 C60 1_555 1_555
H57 C61 1_555 1_555
C62 C57 1_555 1_555
H58 C62 1_555 1_555
C63 H59 1_555 1_555
C64 C63 1_555 1_555
C65 C64 1_555 1_555
C66 C65 1_555 1_555
H60 C66 1_555 1_555
C67 C66 1_555 1_555
H61 C67 1_555 1_555
C68 C67 1_555 1_555
C69 C64 1_555 1_555
C70 C69 1_555 1_555
H62 C70 1_555 1_555
C71 C70 1_555 1_555
H63 C71 1_555 1_555
C72 C71 1_555 1_555
H64 C72 1_555 1_555
C73 C68 1_555 1_555
H65 C73 1_555 1_555
C74 H66 1_555 1_555
C75 C74 1_555 1_555
C76 C75 1_555 1_555
C77 C76 1_555 1_555
H67 C77 1_555 1_555
C78 C77 1_555 1_555
H68 C78 1_555 1_555
C79 C78 1_555 1_555
C80 C75 1_555 1_555
C81 C80 1_555 1_555
H69 C81 1_555 1_555
C82 C81 1_555 1_555
H70 C82 1_555 1_555
C83 C82 1_555 1_555
H71 C83 1_555 1_555
C84 C79 1_555 1_555
H72 C84 1_555 1_555
Ce1 O2 1_555 1_555
Ce2 O4 1_555 1_555
N1 C6 1_555 1_555
N2 C5 1_555 1_555
H73 N2 1_555 1_555
N3 C34 1_555 1_555
H74 N3 1_555 1_555
N4 C33 1_555 1_555
N5 C61 1_555 1_555
N6 C62 1_555 1_555
H75 N6 1_555 1_555
N7 O7 1_555 1_555
N8 O10 1_555 1_555
N9 O13 1_555 1_555
N10 O16 1_555 1_555
N11 O19 1_555 1_555
N12 O22 1_555 1_555
O1 C9 1_555 1_555
H76 O1 1_555 1_555
O2 C20 1_555 1_555
O3 C37 1_555 1_555
O4 C48 1_555 1_555
H77 O4 1_555 1_555
O5 C65 1_555 1_555
O6 C76 1_555 1_555
H78 O6 1_555 1_555
O7 Ce1 1_555 1_555
O8 Ce1 1_555 1_555
O9 N7 1_555 1_555
O10 Ce1 1_555 1_555
O11 Ce1 1_555 1_555
O12 N8 1_555 1_555
O13 Ce1 1_555 1_555
O14 Ce1 1_555 1_555
O15 N9 1_555 1_555
O16 Ce2 1_555 1_555
O17 Ce2 1_555 1_555
O18 N10 1_555 1_555
O19 Ce2 1_555 1_555
O20 Ce2 1_555 1_555
O21 N11 1_555 1_555
O22 Ce2 1_555 1_555
O23 Ce2 1_555 1_555
O24 N12 1_555 1_555
O25 Ce1 1_555 1_555
H79 O25 1_555 1_555
H80 O25 1_555 1_555
Ce2_2 O1 1_555 1_555
Ce2_3 O6 1_555 1_555
O1_2 Ce2 1_555 1_555
H76_2 O1_2 1_555 1_555
O6_2 Ce2 1_555 1_555
H78_2 O6_2 1_555 1_555
C5 C6 1_555 1_555
C7 N1 1_555 1_555
C12 C13 1_555 1_555
C16 C17 1_555 1_555
C18 N2 1_555 1_555
C23 C24 1_555 1_555
C27 C28 1_555 1_555
C33 C34 1_555 1_555
C35 N3 1_555 1_555
C40 C41 1_555 1_555
C44 C45 1_555 1_555
C46 N4 1_555 1_555
C51 C52 1_555 1_555
C55 C56 1_555 1_555
C61 C62 1_555 1_555
C63 N6 1_555 1_555
C68 C69 1_555 1_555
C72 C73 1_555 1_555
C74 N5 1_555 1_555
C79 C80 1_555 1_555
C83 C84 1_555 1_555
Ce1 O3 1_555 1_555
Ce1 O5 1_555 1_555
N7 O8 1_555 1_555
N8 O11 1_555 1_555
N9 O14 1_555 1_555
N10 O17 1_555 1_555
N11 O20 1_555 1_555
N12 O23 1_555 1_555

#END
