
#######################################################################
#
#                 Cambridge Crystallographic Data Centre
#                                CCDC 
#
#######################################################################
#
# If this CIF has been generated from an entry in the Cambridge 
# Structural Database, then it will include bibliographic, chemical, 
# crystal, experimental, refinement or atomic coordinate data resulting 
# from the CCDC's data processing and validation procedures.
#
#######################################################################

data_RAFLEQ
_symmetry_cell_setting           triclinic
_symmetry_space_group_name_H-M   'P -1'
_symmetry_Int_Tables_number      2
_space_group_name_Hall           '-P 1'
loop_
_symmetry_equiv_pos_site_id
_symmetry_equiv_pos_as_xyz
1 x,y,z
2 -x,-y,-z
_cell_length_a                   12.0953(2)
_cell_length_b                   12.8460(2)
_cell_length_c                   15.7650(3)
_cell_angle_alpha                109.62
_cell_angle_beta                 112.2310(10)
_cell_angle_gamma                90.2900(10)
_cell_volume                     2111.12
loop_
_atom_site_label
_atom_site_type_symbol
_atom_site_fract_x
_atom_site_fract_y
_atom_site_fract_z
Y1 Y 0.14035(3) 0.21091(3) -0.40877(2)
Y2 Y 0.42609(3) 0.37356(3) 0.00520(2)
O1 O 0.1618(2) 0.2390(2) -0.53615(18)
O2 O 0.0761(2) 0.0466(2) -0.53987(18)
O3 O -0.0679(3) -0.0940(2) -0.64946(19)
O4 O 0.1620(3) 0.3101(2) -0.24808(19)
O5 O 0.3116(2) 0.1161(2) -0.3713(2)
O6 O 0.3499(2) 0.2988(2) -0.32643(18)
N1 N 0.1053(3) 0.4099(3) -0.3924(2)
N2 N -0.0768(3) 0.2377(3) -0.4703(2)
O7 O 0.2289(2) 0.3291(2) -0.09091(18)
O8 O 0.5977(2) 0.4668(2) -0.11767(18)
O9 O 0.4929(2) 0.32123(19) -0.11761(17)
O10 O 0.3809(2) 0.50771(19) -0.07445(16)
O11 O 0.3707(2) 0.6757(2) -0.08077(19)
N3 N 0.3807(3) 0.1638(2) -0.0495(2)
N4 N 0.4185(3) 0.3054(3) 0.1358(2)
O12 O 0.3094(3) 0.1759(3) -0.5811(2)
C1 C 0.1917(4) 0.4949(4) -0.3620(3)
H1 H 0.2683 0.4790 -0.3571
C2 C 0.1739(4) 0.6062(3) -0.3370(3)
H2 H 0.2369 0.6625 -0.3176
C3 C 0.0635(4) 0.6318(4) -0.3413(3)
H3 H 0.0505 0.7060 -0.3240
C4 C -0.0307(4) 0.5459(3) -0.3719(3)
C5 C -0.1504(4) 0.5642(4) -0.3795(3)
H4 H -0.1667 0.6370 -0.3593
C6 C -0.2396(4) 0.4783(4) -0.4151(4)
H5 H -0.3159 0.4932 -0.4181
C7 C -0.2197(4) 0.3649(4) -0.4483(3)
C8 C -0.3120(4) 0.2728(4) -0.4927(3)
H6 H -0.3897 0.2838 -0.4975
C9 C -0.2879(4) 0.1680(4) -0.5284(3)
H7 H -0.3493 0.1070 -0.5607
C10 C -0.1687(4) 0.1533(4) -0.5156(3)
H8 H -0.1526 0.0810 -0.5398
C11 C -0.1023(3) 0.3433(3) -0.4395(3)
C12 C -0.0062(4) 0.4355(3) -0.3990(3)
C13 C 0.3559(3) 0.0950(3) -0.1406(3)
H9 H 0.3569 0.1253 -0.1863
C14 C 0.3283(4) -0.0209(3) -0.1713(3)
H10 H 0.3093 -0.0658 -0.2366
C15 C 0.3293(4) -0.0678(3) -0.1056(3)
H11 H 0.3142 -0.1451 -0.1250
C16 C 0.3536(3) 0.0017(3) -0.0078(3)
C17 C 0.3558(4) -0.0401(4) 0.0659(4)
H12 H 0.3411 -0.1169 0.0498
C18 C 0.3786(4) 0.0288(4) 0.1578(4)
H13 H 0.3789 -0.0009 0.2041
C19 C 0.4025(3) 0.1481(3) 0.1860(3)
C20 C 0.4292(4) 0.2233(4) 0.2814(3)
H14 H 0.4326 0.1970 0.3304
C21 C 0.4501(4) 0.3345(4) 0.3023(3)
H15 H 0.4690 0.3849 0.3658
C22 C 0.4430(4) 0.3731(4) 0.2277(3)
H16 H 0.4562 0.4499 0.2431
C23 C 0.4003(3) 0.1926(3) 0.1151(3)
C24 C 0.3772(3) 0.1178(3) 0.0162(3)
C25 C 0.3194(3) 0.5868(3) -0.0877(2)
C26 C 0.1877(3) 0.5724(3) -0.1072(3)
C27 C 0.1302(4) 0.6664(3) -0.0909(3)
H17 H 0.1731 0.7367 -0.0711
C28 C 0.0115(4) 0.6571(4) -0.1034(4)
H18 H -0.0250 0.7208 -0.0909
C29 C -0.0534(4) 0.5536(4) -0.1343(4)
H19 H -0.1333 0.5474 -0.1413
C30 C -0.0003(4) 0.4586(4) -0.1549(3)
H20 H -0.0458 0.3886 -0.1789
C31 C 0.1208(3) 0.4668(3) -0.1402(3)
C32 C 0.2022(4) 0.1748(3) -0.5951(3)
C33 C 0.1111(3) 0.0948(3) -0.6944(3)
C34 C -0.0473(3) -0.0614(3) -0.8053(3)
H21 H -0.1026 -0.1193 -0.8152
C35 C -0.0383(4) -0.0472(4) -0.8848(3)
H22 H -0.0875 -0.0949 -0.9483
C36 C 0.0447(5) 0.0388(5) -0.8701(3)
H23 H 0.0494 0.0505 -0.9238
C37 C 0.1201(4) 0.1070(4) -0.7759(3)
H24 H 0.1782 0.1621 -0.7667
C38 C 0.0251(3) 0.0095(3) -0.7099(3)
C39 C 0.0093(3) -0.0136(3) -0.6270(3)
C40 C 0.5589(3) 0.3639(3) -0.1467(2)
C41 C 0.6016(3) 0.2817(3) -0.2172(3)
C42 C 0.5177(3) 0.1994(3) -0.3032(3)
C43 C 0.5590(4) 0.1155(3) -0.3613(3)
H25 H 0.5039 0.0611 -0.4186
C44 C 0.6812(4) 0.1126(4) -0.3343(3)
H26 H 0.7082 0.0556 -0.3729
C45 C 0.7634(4) 0.1937(4) -0.2504(3)
H27 H 0.8457 0.1920 -0.2327
C46 C 0.7237(3) 0.2780(3) -0.1922(3)
H28 H 0.7797 0.3327 -0.1357
C47 C 0.3845(3) 0.2046(3) -0.3355(3)
C48 C 0.1750(3) 0.3608(3) -0.1624(3)
Y1A Y -0.14035(3) -0.21091(3) -0.59123(2)
O3A O 0.0679(3) 0.0940(2) -0.35054(19)
O8A O 0.4023(2) 0.5332(2) 0.11767(18)
Y2A Y 0.57391(3) 0.62644(3) -0.00520(2)
O10A O 0.6191(2) 0.49229(19) 0.07445(16)
O11A O 0.6293(2) 0.3243(2) 0.08077(19)
O13 O -0.4519(3) -0.3857(3) -0.5570(3)
H29 H -0.404(4) -0.313(2) -0.510(3)
H30 H -0.441(5) -0.388(5) -0.616(2)
loop_
_geom_bond_atom_site_label_1
_geom_bond_atom_site_label_2
_geom_bond_site_symmetry_1
_geom_bond_site_symmetry_2
Y1 O1 1_555 1_555
Y2 O7 1_555 1_555
O1 C32 1_555 1_555
O2 Y1 1_555 1_555
O3 C39 1_555 1_555
O4 Y1 1_555 1_555
O5 Y1 1_555 1_555
O6 Y1 1_555 1_555
N1 Y1 1_555 1_555
N2 Y1 1_555 1_555
O7 C48 1_555 1_555
O8 C40 1_555 1_555
O9 Y2 1_555 1_555
O10 Y2 1_555 1_555
O11 C25 1_555 1_555
N3 Y2 1_555 1_555
N4 Y2 1_555 1_555
O12 C32 1_555 1_555
O13 H29 1_555 1_555
C1 N1 1_555 1_555
H1 C1 1_555 1_555
C2 C1 1_555 1_555
H2 C2 1_555 1_555
C3 C2 1_555 1_555
H3 C3 1_555 1_555
C4 C3 1_555 1_555
C5 C4 1_555 1_555
H4 C5 1_555 1_555
C6 C5 1_555 1_555
H5 C6 1_555 1_555
C7 C6 1_555 1_555
C8 C7 1_555 1_555
H6 C8 1_555 1_555
C9 C8 1_555 1_555
H7 C9 1_555 1_555
C10 N2 1_555 1_555
H8 C10 1_555 1_555
C11 N2 1_555 1_555
C12 N1 1_555 1_555
C13 N3 1_555 1_555
H9 C13 1_555 1_555
C14 C13 1_555 1_555
H10 C14 1_555 1_555
C15 C14 1_555 1_555
H11 C15 1_555 1_555
C16 C15 1_555 1_555
C17 C16 1_555 1_555
H12 C17 1_555 1_555
C18 C17 1_555 1_555
H13 C18 1_555 1_555
C19 C18 1_555 1_555
C20 C19 1_555 1_555
H14 C20 1_555 1_555
C21 C20 1_555 1_555
H15 C21 1_555 1_555
C22 N4 1_555 1_555
H16 C22 1_555 1_555
C23 N4 1_555 1_555
C24 N3 1_555 1_555
C25 O10 1_555 1_555
C26 C25 1_555 1_555
C27 C26 1_555 1_555
H17 C27 1_555 1_555
C28 C27 1_555 1_555
H18 C28 1_555 1_555
C29 C28 1_555 1_555
H19 C29 1_555 1_555
C30 C29 1_555 1_555
H20 C30 1_555 1_555
C31 C26 1_555 1_555
C32 C33 1_555 1_555
C33 C37 1_555 1_555
C34 H21 1_555 1_555
C35 C34 1_555 1_555
H22 C35 1_555 1_555
C36 C35 1_555 1_555
H23 C36 1_555 1_555
C37 C36 1_555 1_555
H24 C37 1_555 1_555
C38 C33 1_555 1_555
C39 O2 1_555 1_555
C40 O9 1_555 1_555
C41 C40 1_555 1_555
C42 C41 1_555 1_555
C43 C42 1_555 1_555
H25 C43 1_555 1_555
C44 C43 1_555 1_555
H26 C44 1_555 1_555
C45 C44 1_555 1_555
H27 C45 1_555 1_555
C46 C41 1_555 1_555
H28 C46 1_555 1_555
C47 O5 1_555 1_555
C48 O4 1_555 1_555
H30 O13 1_555 1_555
Y1A O3 1_555 1_555
O3A Y1 1_555 1_555
O8A Y2 1_555 1_555
Y2A O8 1_555 1_555
O10A Y2 1_555 1_555
O11A Y2 1_555 1_555
O6 C47 1_555 1_555
O10 Y2A 1_555 1_555
O11 Y2A 1_555 1_555
C4 C12 1_555 1_555
C7 C11 1_555 1_555
C9 C10 1_555 1_555
C11 C12 1_555 1_555
C16 C24 1_555 1_555
C19 C23 1_555 1_555
C21 C22 1_555 1_555
C23 C24 1_555 1_555
C30 C31 1_555 1_555
C31 C48 1_555 1_555
C34 C38 1_555 1_555
C38 C39 1_555 1_555
C42 C47 1_555 1_555
C45 C46 1_555 1_555
Y2A O10A 1_555 1_555

#END
