
#######################################################################
#
#                 Cambridge Crystallographic Data Centre
#                                CCDC 
#
#######################################################################
#
# If this CIF has been generated from an entry in the Cambridge 
# Structural Database, then it will include bibliographic, chemical, 
# crystal, experimental, refinement or atomic coordinate data resulting 
# from the CCDC's data processing and validation procedures.
#
#######################################################################

data_RAFMAN
_symmetry_cell_setting           triclinic
_symmetry_space_group_name_H-M   'P -1'
_symmetry_Int_Tables_number      2
_space_group_name_Hall           '-P 1'
loop_
_symmetry_equiv_pos_site_id
_symmetry_equiv_pos_as_xyz
1 x,y,z
2 -x,-y,-z
_cell_length_a                   9.124(5)
_cell_length_b                   12.745(6)
_cell_length_c                   13.183(6)
_cell_angle_alpha                115.023(8)
_cell_angle_beta                 105.769(8)
_cell_angle_gamma                95.791(9)
_cell_volume                     1295.22
loop_
_atom_site_label
_atom_site_type_symbol
_atom_site_fract_x
_atom_site_fract_y
_atom_site_fract_z
Pt1 Pt 1.0000 0.0000 1.0000
K1 K 0.5036(2) 0.31885(17) 0.88327(15)
N1 N 0.7521(11) 0.1971(9) 0.8530(8)
N2 N 1.246(3) 0.3248(13) 1.3205(12)
O1 O 0.2327(6) 0.1395(5) 0.7438(4)
O2 O 0.3403(6) 0.2562(5) 0.6490(5)
O3 O 0.6039(6) 0.4500(5) 0.7839(5)
O4 O 0.7230(6) 0.5500(5) 1.0429(5)
O5 O 0.6710(7) 0.3618(5) 1.1023(5)
O6 O 0.3987(6) 0.1818(5) 0.9759(5)
S1 S 0.7962(3) -0.0197(3) 0.8379(2)
S2 S 0.9958(4) 0.1964(3) 1.1054(3)
C1 C 0.1214(9) 0.1543(8) 0.6597(7)
C2 C -0.0371(10) 0.1102(8) 0.6261(7)
H1 H -0.0747 0.0675 0.6600
C3 C -0.1439(10) 0.1306(8) 0.5387(7)
C4 C -0.3072(11) 0.0855(8) 0.5009(8)
H2 H -0.3461 0.0395 0.5312
C5 C -0.4088(12) 0.1084(10) 0.4207(9)
H3 H -0.5163 0.0761 0.3944
C6 C -0.3528(13) 0.1784(11) 0.3791(8)
H4 H -0.4235 0.1969 0.3274
C7 C -0.1939(12) 0.2230(9) 0.4114(8)
H5 H -0.1580 0.2688 0.3797
C8 C -0.0869(10) 0.1986(8) 0.4928(7)
C9 C 0.0782(10) 0.2407(8) 0.5259(7)
H6 H 0.1173 0.2833 0.4924
C10 C 0.1794(10) 0.2173(7) 0.6083(7)
C11 C 0.4049(10) 0.3177(9) 0.5979(7)
H7 H 0.3584 0.3843 0.6039
H8 H 0.3839 0.2645 0.5141
C12 C 0.5794(11) 0.3624(10) 0.6649(8)
H9 H 0.6243 0.2968 0.6658
H10 H 0.6296 0.3974 0.6265
C13 C 0.7682(9) 0.4973(8) 0.8543(8)
H11 H 0.8224 0.5311 0.8170
H12 H 0.8147 0.4344 0.8614
C14 C 0.7823(10) 0.5918(8) 0.9748(8)
H13 H 0.8923 0.6329 1.0194
H14 H 0.7271 0.6499 0.9647
C15 C 0.8411(10) 0.5229(8) 1.1183(8)
H15 H 0.9236 0.5948 1.1751
H16 H 0.8875 0.4649 1.0702
C16 C 0.7722(10) 0.4746(9) 1.1830(8)
H17 H 0.8550 0.4683 1.2428
H18 H 0.7145 0.5280 1.2233
C17 C 0.6085(11) 0.3049(9) 1.1572(7)
H19 H 0.5356 0.3460 1.1902
H20 H 0.6921 0.3057 1.2216
C18 C 0.5262(10) 0.1804(8) 1.0655(8)
H21 H 0.5983 0.1407 1.0301
H22 H 0.4873 0.1369 1.1018
C19 C 0.3162(10) 0.0650(7) 0.8793(7)
H23 H 0.2807 0.0140 0.9100
H24 H 0.3856 0.0295 0.8379
C20 C 0.1790(10) 0.0753(8) 0.7954(7)
H25 H 0.1162 -0.0037 0.7337
H26 H 0.1135 0.1160 0.8382
C21 C 0.7752(11) 0.1125(12) 0.8535(9)
C22 C 1.149(2) 0.2640(12) 1.2326(13)
N1A N 1.2479(11) -0.1971(9) 1.1470(8)
S1A S 1.2038(3) 0.0197(3) 1.1621(2)
C21A C 1.2248(11) -0.1125(12) 1.1465(9)
N2A N 0.754(3) -0.3248(13) 0.6795(12)
S2A S 1.0042(4) -0.1964(3) 0.8946(3)
C22A C 0.851(2) -0.2640(12) 0.7674(13)
K1A K 1.4964(2) -0.31885(17) 1.11673(15)
O1A O 0.7673(6) 0.8605(5) 1.2562(4)
O2A O 0.6597(6) 0.7438(5) 1.3510(5)
O3A O 0.3961(6) 0.5500(5) 1.2161(5)
O4A O 0.2770(6) 0.4500(5) 0.9571(5)
O5A O 0.3290(7) 0.6382(5) 0.8977(5)
O6A O 0.6013(6) 0.8182(5) 1.0241(5)
C1A C 0.8786(9) 0.8457(8) 1.3403(7)
C2A C 1.0371(10) 0.8898(8) 1.3739(7)
H1A H 1.0747 0.9325 1.3400
C3A C 1.1439(10) 0.8694(8) 1.4613(7)
C4A C 1.3072(11) 0.9145(8) 1.4991(8)
H2A H 1.3461 0.9605 1.4688
C5A C 1.4088(12) 0.8916(10) 1.5793(9)
H3A H 1.5163 0.9239 1.6056
C6A C 1.3528(13) 0.8216(11) 1.6209(8)
H4A H 1.4235 0.8031 1.6726
C7A C 1.1939(12) 0.7770(9) 1.5886(8)
H5A H 1.1580 0.7312 1.6203
C8A C 1.0869(10) 0.8014(8) 1.5072(7)
C9A C 0.9218(10) 0.7593(8) 1.4741(7)
H6A H 0.8827 0.7167 1.5076
C10A C 0.8206(10) 0.7827(7) 1.3917(7)
C11A C 0.5951(10) 0.6823(9) 1.4021(7)
H7A H 0.6416 0.6157 1.3961
H8A H 0.6161 0.7355 1.4859
C12A C 0.4206(11) 0.6376(10) 1.3351(8)
H9A H 0.3757 0.7032 1.3342
H10A H 0.3704 0.6026 1.3735
C13A C 0.2318(9) 0.5027(8) 1.1457(8)
H11A H 0.1776 0.4689 1.1830
H12A H 0.1853 0.5656 1.1386
C14A C 0.2177(10) 0.4082(8) 1.0252(8)
H13A H 0.1077 0.3671 0.9806
H14A H 0.2729 0.3501 1.0353
C15A C 0.1589(10) 0.4771(8) 0.8817(8)
H15A H 0.0764 0.4052 0.8249
H16A H 0.1125 0.5351 0.9298
C16A C 0.2278(10) 0.5254(9) 0.8170(8)
H17A H 0.1450 0.5317 0.7572
H18A H 0.2855 0.4720 0.7767
C17A C 0.3915(11) 0.6951(9) 0.8428(7)
H19A H 0.4644 0.6540 0.8098
H20A H 0.3079 0.6943 0.7784
C18A C 0.4738(10) 0.8196(8) 0.9345(8)
H21A H 0.4017 0.8593 0.9699
H22A H 0.5127 0.8631 0.8982
C19A C 0.6838(10) 0.9350(7) 1.1207(7)
H23A H 0.7193 0.9860 1.0900
H24A H 0.6144 0.9705 1.1621
C20A C 0.8210(10) 0.9247(8) 1.2046(7)
H25A H 0.8838 1.0037 1.2663
H26A H 0.8865 0.8840 1.1618
K1A_2 K 0.4964(2) 0.68115(17) 1.11673(15)
O1A_2 O 1.7673(6) -0.1395(5) 1.2562(4)
O2A_2 O 1.6597(6) -0.2562(5) 1.3510(5)
O3A_2 O 1.3961(6) -0.4500(5) 1.2161(5)
O4_2 O 1.7230(6) -0.4500(5) 1.0429(5)
O4A_2 O 1.2770(6) -0.5500(5) 0.9571(5)
O5A_2 O 1.3290(7) -0.3618(5) 0.8977(5)
O6A_2 O 1.6013(6) -0.1818(5) 1.0241(5)
loop_
_geom_bond_atom_site_label_1
_geom_bond_atom_site_label_2
_geom_bond_site_symmetry_1
_geom_bond_site_symmetry_2
Pt1 S1 1_555 1_555
K1 N1 1_555 1_555
N1 C21 1_555 1_555
N2 C22 1_555 1_555
O1 K1 1_555 1_555
O2 K1 1_555 1_555
O3 K1 1_555 1_555
O4 K1 1_555 1_555
O5 K1 1_555 1_555
O6 K1 1_555 1_555
S1 C21 1_555 1_555
S2 Pt1 1_555 1_555
C1 O1 1_555 1_555
C2 C1 1_555 1_555
H1 C2 1_555 1_555
C3 C2 1_555 1_555
C4 C3 1_555 1_555
H2 C4 1_555 1_555
C5 C4 1_555 1_555
H3 C5 1_555 1_555
C6 C5 1_555 1_555
H4 C6 1_555 1_555
C7 C6 1_555 1_555
H5 C7 1_555 1_555
C8 C3 1_555 1_555
C9 C8 1_555 1_555
H6 C9 1_555 1_555
C10 O2 1_555 1_555
C11 O2 1_555 1_555
H7 C11 1_555 1_555
H8 C11 1_555 1_555
C12 O3 1_555 1_555
H9 C12 1_555 1_555
H10 C12 1_555 1_555
C13 O3 1_555 1_555
H11 C13 1_555 1_555
H12 C13 1_555 1_555
C14 O4 1_555 1_555
H13 C14 1_555 1_555
H14 C14 1_555 1_555
C15 O4 1_555 1_555
H15 C15 1_555 1_555
H16 C15 1_555 1_555
C16 O5 1_555 1_555
H17 C16 1_555 1_555
H18 C16 1_555 1_555
C17 O5 1_555 1_555
H19 C17 1_555 1_555
H20 C17 1_555 1_555
C18 O6 1_555 1_555
H21 C18 1_555 1_555
H22 C18 1_555 1_555
C19 O6 1_555 1_555
H23 C19 1_555 1_555
H24 C19 1_555 1_555
C20 O1 1_555 1_555
H25 C20 1_555 1_555
H26 C20 1_555 1_555
C22 S2 1_555 1_555
N1A C21A 1_555 1_555
S1A Pt1 1_555 1_555
C21A S1A 1_555 1_555
N2A C22A 1_555 1_555
S2A Pt1 1_555 1_555
C22A S2A 1_555 1_555
K1A N1A 1_555 1_555
O1A C1A 1_555 1_555
O2A C10A 1_555 1_555
O3A C12A 1_555 1_555
O4A K1 1_555 1_555
O5A C16A 1_555 1_555
O6A C18A 1_555 1_555
C1A C2A 1_555 1_555
C2A H1A 1_555 1_555
C3A C2A 1_555 1_555
C4A C3A 1_555 1_555
H2A C4A 1_555 1_555
C5A C4A 1_555 1_555
H3A C5A 1_555 1_555
C6A C5A 1_555 1_555
H4A C6A 1_555 1_555
C7A C6A 1_555 1_555
H5A C7A 1_555 1_555
C8A C3A 1_555 1_555
C9A C8A 1_555 1_555
H6A C9A 1_555 1_555
C10A C1A 1_555 1_555
C11A O2A 1_555 1_555
H7A C11A 1_555 1_555
H8A C11A 1_555 1_555
C12A C11A 1_555 1_555
H9A C12A 1_555 1_555
H10A C12A 1_555 1_555
C13A O3A 1_555 1_555
H11A C13A 1_555 1_555
H12A C13A 1_555 1_555
C14A O4A 1_555 1_555
H13A C14A 1_555 1_555
H14A C14A 1_555 1_555
C15A O4A 1_555 1_555
H15A C15A 1_555 1_555
H16A C15A 1_555 1_555
C16A C15A 1_555 1_555
H17A C16A 1_555 1_555
H18A C16A 1_555 1_555
C17A O5A 1_555 1_555
H19A C17A 1_555 1_555
H20A C17A 1_555 1_555
C18A C17A 1_555 1_555
H21A C18A 1_555 1_555
H22A C18A 1_555 1_555
C19A O6A 1_555 1_555
H23A C19A 1_555 1_555
H24A C19A 1_555 1_555
C20A O1A 1_555 1_555
H25A C20A 1_555 1_555
H26A C20A 1_555 1_555
K1A_2 O4 1_555 1_555
O1A_2 K1A 1_555 1_555
O2A_2 K1A 1_555 1_555
O3A_2 K1A 1_555 1_555
O4_2 K1A 1_555 1_555
O4A_2 K1A 1_555 1_555
O5A_2 K1A 1_555 1_555
O6A_2 K1A 1_555 1_555
C1 C10 1_555 1_555
C7 C8 1_555 1_555
C9 C10 1_555 1_555
C11 C12 1_555 1_555
C13 C14 1_555 1_555
C15 C16 1_555 1_555
C17 C18 1_555 1_555
C19 C20 1_555 1_555
O1A K1A_2 1_555 1_555
O2A K1A_2 1_555 1_555
O3A K1A_2 1_555 1_555
O4A K1A_2 1_555 1_555
O5A K1A_2 1_555 1_555
O6A K1A_2 1_555 1_555
C7A C8A 1_555 1_555
C9A C10A 1_555 1_555
C13A C14A 1_555 1_555
C19A C20A 1_555 1_555

#END
