
#######################################################################
#
#                 Cambridge Crystallographic Data Centre
#                                CCDC 
#
#######################################################################
#
# If this CIF has been generated from an entry in the Cambridge 
# Structural Database, then it will include bibliographic, chemical, 
# crystal, experimental, refinement or atomic coordinate data resulting 
# from the CCDC's data processing and validation procedures.
#
#######################################################################

data_RAFVOL
_symmetry_cell_setting           monoclinic
_symmetry_space_group_name_H-M   'C 2/c'
_symmetry_Int_Tables_number      15
_space_group_name_Hall           '-C 2yn'
loop_
_symmetry_equiv_pos_site_id
_symmetry_equiv_pos_as_xyz
1 x,y,z
2 -x,y,1/2-z
3 1/2+x,1/2+y,z
4 1/2-x,1/2+y,1/2-z
5 -x,-y,-z
6 x,-y,1/2+z
7 1/2-x,1/2-y,-z
8 1/2+x,1/2-y,1/2+z
_cell_length_a                   17.1425(17)
_cell_length_b                   10.8029(11)
_cell_length_c                   20.442(2)
_cell_angle_alpha                90
_cell_angle_beta                 95.795(2)
_cell_angle_gamma                90
_cell_volume                     3766.28
loop_
_atom_site_label
_atom_site_type_symbol
_atom_site_fract_x
_atom_site_fract_y
_atom_site_fract_z
Zn1 Zn 0.0000 0.30065(7) 0.2500
S1 S 0.08489(10) 0.85949(13) 0.03890(7)
S2 S -0.00861(10) 0.74583(13) 0.02263(7)
O1 O 0.1241(2) 0.2969(4) 0.2779(2)
N1 N 0.0190(2) 1.1614(4) 0.17754(19)
N2 N 0.0078(2) 0.4421(4) 0.17626(18)
C1 C 0.0792(3) 1.1714(5) 0.1405(2)
H1 H 0.1088 1.2437 0.1436
C2 C 0.0992(3) 1.0812(4) 0.0984(2)
H2 H 0.1415 1.0918 0.0738
C3 C 0.0552(3) 0.9737(4) 0.0934(2)
C4 C -0.0069(3) 0.9612(4) 0.1303(2)
H3 H -0.0376 0.8900 0.1276
C5 C -0.0225(3) 1.0564(5) 0.1715(2)
H4 H -0.0644 1.0474 0.1966
C6 C 0.0030(3) 0.6309(4) 0.0844(2)
C7 C 0.0519(3) 0.6395(5) 0.1425(2)
H5 H 0.0843 0.7078 0.1513
C8 C 0.0511(3) 0.5444(4) 0.1865(2)
H6 H 0.0826 0.5514 0.2261
C9 C -0.0382(3) 0.4354(5) 0.1198(2)
H7 H -0.0695 0.3657 0.1118
C10 C -0.0415(3) 0.5261(5) 0.0734(2)
H8 H -0.0739 0.5170 0.0343
H9 H 0.147(3) 0.350(5) 0.304(3)
H10 H 0.154(4) 0.270(6) 0.256(3)
Zn1_2 Zn 0.0000 1.30065(7) 0.2500
S1A S -0.08489(10) 0.85949(13) 0.46110(7)
S2A S 0.00861(10) 0.74583(13) 0.47737(7)
O1A O -0.1241(2) 0.2969(4) 0.2221(2)
N1A N -0.0190(2) 1.1614(4) 0.32246(19)
N1_2 N 0.0190(2) 0.1614(4) 0.17754(19)
N1A_2 N -0.0190(2) 0.1614(4) 0.32246(19)
N2A N -0.0078(2) 0.4421(4) 0.32374(18)
C1A C -0.0792(3) 1.1714(5) 0.3595(2)
H1A H -0.1088 1.2437 0.3564
C2A C -0.0992(3) 1.0812(4) 0.4016(2)
H2A H -0.1415 1.0918 0.4262
C3A C -0.0552(3) 0.9737(4) 0.4066(2)
C4A C 0.0069(3) 0.9612(4) 0.3697(2)
H3A H 0.0376 0.8900 0.3724
C5A C 0.0225(3) 1.0564(5) 0.3285(2)
H4A H 0.0644 1.0474 0.3034
C6A C -0.0030(3) 0.6309(4) 0.4156(2)
C7A C -0.0519(3) 0.6395(5) 0.3575(2)
H5A H -0.0843 0.7078 0.3487
C8A C -0.0511(3) 0.5444(4) 0.3135(2)
H6A H -0.0826 0.5514 0.2739
C9A C 0.0382(3) 0.4354(5) 0.3802(2)
H7A H 0.0695 0.3657 0.3882
C10A C 0.0415(3) 0.5261(5) 0.4266(2)
H8A H 0.0739 0.5170 0.4657
H9A H -0.147(3) 0.350(5) 0.196(3)
H10A H -0.154(4) 0.270(6) 0.244(3)
S3 S 0.18779(8) 0.78903(14) 0.29587(7)
O2 O 0.2556(2) 0.7118(4) 0.2870(2)
O3 O 0.1656(3) 0.8651(4) 0.2395(2)
O4 O 0.1255(3) 0.7174(4) 0.3186(2)
C11 C 0.2185(3) 0.8916(5) 0.3608(3)
C12 C 0.2263(4) 0.8497(6) 0.4246(3)
H11 H 0.2161 0.7665 0.4317
N3 N 0.2472(4) 0.9196(6) 0.4768(3)
C13 C 0.2614(4) 1.0382(8) 0.4650(4)
H12 H 0.2759 1.0897 0.5006
C14 C 0.2557(4) 1.0884(7) 0.4036(4)
H13 H 0.2665 1.1718 0.3979
C15 C 0.2339(3) 1.0154(6) 0.3502(3)
H14 H 0.2295 1.0481 0.3079
O5 O 0.2242(3) 0.4579(4) 0.3444(2)
loop_
_geom_bond_atom_site_label_1
_geom_bond_atom_site_label_2
_geom_bond_site_symmetry_1
_geom_bond_site_symmetry_2
Zn1 O1 1_555 1_555
S1 S2 1_555 1_555
S2 C6 1_555 1_555
O1 H9 1_555 1_555
N1 C1 1_555 1_555
N2 Zn1 1_555 1_555
C1 H1 1_555 1_555
C2 C1 1_555 1_555
H2 C2 1_555 1_555
C3 S1 1_555 1_555
C4 C3 1_555 1_555
H3 C4 1_555 1_555
C5 N1 1_555 1_555
H4 C5 1_555 1_555
C6 C7 1_555 1_555
C7 H5 1_555 1_555
C8 N2 1_555 1_555
H6 C8 1_555 1_555
C9 N2 1_555 1_555
H7 C9 1_555 1_555
C10 C6 1_555 1_555
H8 C10 1_555 1_555
H10 O1 1_555 1_555
S3 O2 1_555 1_555
O3 S3 1_555 1_555
O4 S3 1_555 1_555
C11 S3 1_555 1_555
C12 C11 1_555 1_555
H11 C12 1_555 1_555
N3 C12 1_555 1_555
C13 N3 1_555 1_555
H12 C13 1_555 1_555
C14 C13 1_555 1_555
H13 C14 1_555 1_555
C15 C11 1_555 1_555
H14 C15 1_555 1_555
Zn1_2 N1 1_555 1_555
S1A S2A 1_555 1_555
S2A C6A 1_555 1_555
O1A Zn1 1_555 1_555
N1A Zn1_2 1_555 1_555
N1_2 Zn1 1_555 1_555
N1A_2 Zn1 1_555 1_555
N2A Zn1 1_555 1_555
C1A N1A 1_555 1_555
H1A C1A 1_555 1_555
C2A C1A 1_555 1_555
H2A C2A 1_555 1_555
C3A S1A 1_555 1_555
C4A C3A 1_555 1_555
H3A C4A 1_555 1_555
C5A N1A 1_555 1_555
H4A C5A 1_555 1_555
C6A C7A 1_555 1_555
C7A H5A 1_555 1_555
C8A N2A 1_555 1_555
H6A C8A 1_555 1_555
C9A N2A 1_555 1_555
H7A C9A 1_555 1_555
C10A C6A 1_555 1_555
H8A C10A 1_555 1_555
H9A O1A 1_555 1_555
H10A O1A 1_555 1_555
C2 C3 1_555 1_555
C4 C5 1_555 1_555
C7 C8 1_555 1_555
C9 C10 1_555 1_555
C14 C15 1_555 1_555
C2A C3A 1_555 1_555
C4A C5A 1_555 1_555
C7A C8A 1_555 1_555
C9A C10A 1_555 1_555

#END
