
#######################################################################
#
#                 Cambridge Crystallographic Data Centre
#                                CCDC 
#
#######################################################################
#
# If this CIF has been generated from an entry in the Cambridge 
# Structural Database, then it will include bibliographic, chemical, 
# crystal, experimental, refinement or atomic coordinate data resulting 
# from the CCDC's data processing and validation procedures.
#
#######################################################################

data_RAFXUS
_symmetry_cell_setting           triclinic
_symmetry_space_group_name_H-M   'P -1'
_symmetry_Int_Tables_number      2
_space_group_name_Hall           '-P 1'
loop_
_symmetry_equiv_pos_site_id
_symmetry_equiv_pos_as_xyz
1 x,y,z
2 -x,-y,-z
_cell_length_a                   11.102(2)
_cell_length_b                   11.207(2)
_cell_length_c                   11.749(2)
_cell_angle_alpha                63.60(3)
_cell_angle_beta                 80.07(3)
_cell_angle_gamma                79.05(3)
_cell_volume                     1279.07
loop_
_atom_site_label
_atom_site_type_symbol
_atom_site_fract_x
_atom_site_fract_y
_atom_site_fract_z
Co1 Co -0.19583(5) 0.22313(5) 0.32952(5)
S1 S 0.37997(10) 0.74834(11) 0.27457(12)
S2 S -0.34826(10) -0.25228(10) -0.09894(9)
O1 O -0.0699(3) 0.3001(3) 0.3836(3)
O2 O -0.0769(3) 0.3670(3) 0.1793(2)
O3 O -0.1073(3) 0.0753(3) 0.2621(3)
O4 O -0.3032(3) 0.1472(3) 0.2441(3)
N1 N 0.6650(3) 0.3866(3) 0.3108(3)
N2 N -0.2452(3) 0.0831(3) -0.4850(3)
C1 C 0.6673(4) 0.4646(4) 0.3690(4)
H1 H 0.7307 0.4442 0.4197
C2 C 0.5810(4) 0.5729(4) 0.3578(4)
H2 H 0.5857 0.6227 0.4022
C3 C 0.4865(4) 0.6092(4) 0.2807(4)
C4 C 0.4864(4) 0.5312(4) 0.2180(4)
H3 H 0.4270 0.5526 0.1627
C5 C 0.5747(4) 0.4208(4) 0.2371(4)
H4 H 0.5705 0.3675 0.1961
C6 C 0.2823(4) 0.7735(4) 0.1553(4)
H5 H 0.2300 0.8586 0.1361
H6 H 0.3346 0.7812 0.0778
C7 C 0.2013(4) 0.6671(4) 0.1890(4)
C8 C 0.1404(5) 0.6075(5) 0.3081(4)
H7 H 0.1501 0.6318 0.3717
C9 C 0.0647(5) 0.5115(5) 0.3349(4)
H8 H 0.0247 0.4713 0.4165
C10 C 0.0478(3) 0.4748(4) 0.2408(4)
C11 C 0.1066(3) 0.5380(4) 0.1193(3)
H9 H 0.0941 0.5173 0.0542
C12 C 0.1840(3) 0.6317(4) 0.0949(4)
H10 H 0.2250 0.6716 0.0137
C13 C -0.0355(4) 0.3740(4) 0.2695(4)
C14 C -0.3545(4) 0.0373(4) -0.4520(4)
H11 H -0.4118 0.0751 -0.5119
C15 C -0.3874(4) -0.0614(4) -0.3360(4)
H12 H -0.4651 -0.0889 -0.3178
C16 C -0.3020(4) -0.1213(4) -0.2439(3)
C17 C -0.1900(4) -0.0710(4) -0.2761(4)
H13 H -0.1319 -0.1045 -0.2173
C18 C -0.1656(4) 0.0286(4) -0.3956(3)
H14 H -0.0896 0.0603 -0.4159
C19 C -0.2275(4) -0.2866(4) 0.0007(4)
H15 H -0.2343 -0.3736 0.0723
H16 H -0.1488 -0.2936 -0.0483
C20 C -0.2258(4) -0.1869(3) 0.0520(3)
C21 C -0.1131(4) -0.1664(4) 0.0723(5)
H17 H -0.0405 -0.2086 0.0464
C22 C -0.1076(4) -0.0843(4) 0.1301(5)
H18 H -0.0315 -0.0739 0.1449
C23 C -0.2140(3) -0.0174(3) 0.1663(3)
C24 C -0.3254(4) -0.0361(4) 0.1437(4)
H19 H -0.3980 0.0083 0.1671
C25 C -0.3311(4) -0.1192(4) 0.0873(4)
H20 H -0.4074 -0.1296 0.0728
C26 C -0.2076(4) 0.0736(4) 0.2281(3)
N2_2 N -0.2452(3) 0.0831(3) 0.5150(3)
N1_2 N -0.3350(3) 0.3866(3) 0.3108(3)
Co1_2 Co -0.19583(5) 0.22313(5) -0.67048(5)
Co1_3 Co 0.80417(5) 0.22313(5) 0.32952(5)
O5 O 0.2733(18) 0.2619(18) 0.4997(18)
loop_
_geom_bond_atom_site_label_1
_geom_bond_atom_site_label_2
_geom_bond_site_symmetry_1
_geom_bond_site_symmetry_2
Co1 O1 1_555 1_555
S1 C3 1_555 1_555
S2 C16 1_555 1_555
O1 C13 1_555 1_555
O2 Co1 1_555 1_555
O3 Co1 1_555 1_555
O4 Co1 1_555 1_555
N1 C1 1_555 1_555
N2 C14 1_555 1_555
C1 H1 1_555 1_555
C2 C1 1_555 1_555
H2 C2 1_555 1_555
C3 C2 1_555 1_555
C4 C3 1_555 1_555
H3 C4 1_555 1_555
C5 N1 1_555 1_555
H4 C5 1_555 1_555
C6 S1 1_555 1_555
H5 C6 1_555 1_555
H6 C6 1_555 1_555
C7 C6 1_555 1_555
C8 C7 1_555 1_555
H7 C8 1_555 1_555
C9 C8 1_555 1_555
H8 C9 1_555 1_555
C10 C9 1_555 1_555
C11 C10 1_555 1_555
H9 C11 1_555 1_555
C12 C7 1_555 1_555
H10 C12 1_555 1_555
C13 O2 1_555 1_555
C14 H11 1_555 1_555
C15 C14 1_555 1_555
H12 C15 1_555 1_555
C16 C15 1_555 1_555
C17 C16 1_555 1_555
H13 C17 1_555 1_555
C18 N2 1_555 1_555
H14 C18 1_555 1_555
C19 S2 1_555 1_555
H15 C19 1_555 1_555
H16 C19 1_555 1_555
C20 C19 1_555 1_555
C21 C20 1_555 1_555
H17 C21 1_555 1_555
C22 C21 1_555 1_555
H18 C22 1_555 1_555
C23 C22 1_555 1_555
C24 C23 1_555 1_555
H19 C24 1_555 1_555
C25 C20 1_555 1_555
H20 C25 1_555 1_555
C26 O3 1_555 1_555
N2_2 Co1 1_555 1_555
N1_2 Co1 1_555 1_555
Co1_2 N2 1_555 1_555
Co1_3 N1 1_555 1_555
O4 C26 1_555 1_555
C4 C5 1_555 1_555
C10 C13 1_555 1_555
C11 C12 1_555 1_555
C17 C18 1_555 1_555
C23 C26 1_555 1_555
C24 C25 1_555 1_555

#END
