
#######################################################################
#
#                 Cambridge Crystallographic Data Centre
#                                CCDC 
#
#######################################################################
#
# If this CIF has been generated from an entry in the Cambridge 
# Structural Database, then it will include bibliographic, chemical, 
# crystal, experimental, refinement or atomic coordinate data resulting 
# from the CCDC's data processing and validation procedures.
#
#######################################################################

data_RAGBUX
_symmetry_cell_setting           monoclinic
_symmetry_space_group_name_H-M   'P 21/c'
_symmetry_Int_Tables_number      14
_space_group_name_Hall           '-P 2ybc'
loop_
_symmetry_equiv_pos_site_id
_symmetry_equiv_pos_as_xyz
1 x,y,z
2 x,1/2-y,1/2+z
3 -x,-y,-z
4 -x,1/2+y,1/2-z
_cell_length_a                   14.4060(10)
_cell_length_b                   29.404(2)
_cell_length_c                   7.1978(5)
_cell_angle_alpha                90
_cell_angle_beta                 99.403(2)
_cell_angle_gamma                90
_cell_volume                     3007.98
loop_
_atom_site_label
_atom_site_type_symbol
_atom_site_fract_x
_atom_site_fract_y
_atom_site_fract_z
Ni1 Ni 0.0000 0.5000 0.0000
V1 V 0.55778(3) 0.713890(18) 1.41177(7)
V2 V 0.56320(4) 0.623185(18) 0.79892(7)
P1 P 0.68484(5) 0.69564(3) 1.07116(11)
P2 P 0.43463(5) 0.69645(3) 1.02093(11)
O1 O 0.45023(16) 0.68817(9) 1.2328(3)
O2 O 0.46685(18) 0.74373(9) 0.9763(4)
O3 O 0.65720(16) 0.74052(8) 0.9712(3)
O4 O 0.63596(15) 0.68860(8) 1.2410(3)
O5 O 0.56625(16) 0.67829(8) 0.5839(3)
O6 O 0.47607(16) 0.66004(9) 0.9114(3)
O7 O 0.67072(15) 0.65490(8) 0.9371(3)
O8 O 0.56399(17) 0.57616(8) 0.9149(3)
N1 N 0.02063(18) 0.53693(9) 0.2329(4)
N2 N 0.13221(19) 0.50776(9) -0.0246(4)
N3 N 0.44284(19) 0.60321(9) 0.5972(4)
N4 N 0.34099(18) 0.40534(9) -0.6274(4)
C1 C 0.1902(2) 0.55352(11) 0.2576(4)
C2 C 0.2001(2) 0.53310(11) 0.0878(4)
C3 C 0.2861(2) 0.53391(12) 0.0118(5)
H1 H 0.3418 0.5500 0.0614
C4 C 0.2730(2) 0.50762(11) -0.1427(5)
H2 H 0.3177 0.5014 -0.2228
C5 C 0.1781(2) 0.49059(11) -0.1639(4)
C6 C 0.1045(2) 0.55532(11) 0.3233(4)
C7 C 0.0913(2) 0.57868(12) 0.4923(5)
H3 H 0.1389 0.5925 0.5815
C8 C -0.0018(2) 0.57729(12) 0.5002(5)
H4 H -0.0326 0.5913 0.5924
C9 C -0.0452(2) 0.55060(11) 0.3421(5)
C10 C 0.2766(2) 0.57207(11) 0.3762(4)
C11 C 0.2873(2) 0.61729(11) 0.4305(5)
H5 H 0.2377 0.6383 0.3932
C12 C 0.3710(2) 0.63174(11) 0.5401(4)
H6 H 0.3775 0.6628 0.5755
C13 C 0.4330(2) 0.55953(11) 0.5444(5)
H7 H 0.4836 0.5391 0.5839
C14 C 0.3522(2) 0.54295(12) 0.4346(5)
H8 H 0.3482 0.5118 0.3990
C15 C 0.3102(2) 0.69436(11) 0.9358(4)
C16 C 0.2580(2) 0.65644(12) 0.9731(5)
H9 H 0.2878 0.6328 1.0507
C17 C 0.1631(2) 0.65293(13) 0.8979(5)
H10 H 0.1278 0.6272 0.9258
C18 C 0.1202(2) 0.68713(14) 0.7821(5)
H11 H 0.0552 0.6848 0.7309
C19 C 0.1710(3) 0.72462(14) 0.7405(5)
H12 H 0.1413 0.7477 0.6592
C20 C 0.2664(2) 0.72863(12) 0.8183(5)
H13 H 0.3012 0.7546 0.7912
C21 C 0.3527(2) 0.40183(10) -0.4387(4)
H14 H 0.4077 0.3873 -0.3748
C22 C 0.2879(2) 0.41849(11) -0.3341(4)
H15 H 0.2986 0.4149 -0.2011
C23 C 0.2068(2) 0.44056(10) -0.4231(4)
C24 C 0.1406(2) 0.46086(11) -0.3075(4)
C25 C 0.1947(2) 0.44381(11) -0.6190(4)
H16 H 0.1406 0.4584 -0.6862
C26 C 0.2620(2) 0.42575(11) -0.7150(5)
H17 H 0.2521 0.4278 -0.8485
C27 C 0.8096(2) 0.69558(11) 1.1543(4)
C28 C 0.8676(2) 0.66300(12) 1.0933(5)
H18 H 0.8419 0.6415 1.0006
C29 C 0.9632(2) 0.66170(13) 1.1672(6)
H19 H 1.0024 0.6392 1.1257
C30 C 1.0007(2) 0.69334(14) 1.3013(5)
H20 H 1.0657 0.6922 1.3531
C31 C 0.9445(3) 0.72634(16) 1.3598(6)
H21 H 0.9709 0.7483 1.4498
C32 C 0.8490(2) 0.72755(14) 1.2872(5)
H22 H 0.8102 0.7503 1.3286
C9B C 0.0452(2) 0.44940(11) -0.3421(5)
N1B N -0.02063(18) 0.46307(9) -0.2329(4)
C6B C -0.1045(2) 0.44468(11) -0.3233(4)
C1B C -0.1902(2) 0.44648(11) -0.2576(4)
C2B C -0.2001(2) 0.46690(11) -0.0878(4)
N2B N -0.13221(19) 0.49224(9) 0.0246(4)
C5B C -0.1781(2) 0.50941(11) 0.1639(4)
C4B C -0.2730(2) 0.49238(11) 0.1427(5)
C3B C -0.2861(2) 0.46609(12) -0.0118(5)
H1B H -0.3418 0.4500 -0.0614
H2B H -0.3177 0.4986 0.2228
C24B C -0.1406(2) 0.53914(11) 0.3075(4)
C23B C -0.2068(2) 0.55944(10) 0.4231(4)
C22B C -0.2879(2) 0.58151(11) 0.3341(4)
C21B C -0.3527(2) 0.59817(10) 0.4387(4)
N4B N -0.34099(18) 0.59466(9) 0.6274(4)
C26B C -0.2620(2) 0.57425(11) 0.7150(5)
C25B C -0.1947(2) 0.55619(11) 0.6190(4)
H16B H -0.1406 0.5416 0.6862
H17B H -0.2521 0.5722 0.8485
H14B H -0.4077 0.6127 0.3748
H15B H -0.2986 0.5851 0.2011
C10B C -0.2766(2) 0.42793(11) -0.3762(4)
C11B C -0.2873(2) 0.38271(11) -0.4305(5)
H5B H -0.2377 0.3617 -0.3932
C12B C -0.3710(2) 0.36826(11) -0.5401(4)
N3B N -0.44284(19) 0.39679(9) -0.5972(4)
C13B C -0.4330(2) 0.44047(11) -0.5444(5)
H7B H -0.4836 0.4609 -0.5839
C14B C -0.3522(2) 0.45705(12) -0.4346(5)
H8B H -0.3482 0.4882 -0.3990
H6B H -0.3775 0.3372 -0.5755
C7B C -0.0913(2) 0.42132(12) -0.4923(5)
H3B H -0.1389 0.4075 -0.5815
C8B C 0.0018(2) 0.42271(12) -0.5002(5)
H4B H 0.0326 0.4087 -0.5924
V2B V -0.56320(4) 0.376815(18) -0.79892(7)
O5B O -0.56625(16) 0.32171(8) -0.5839(3)
P2B P -0.43463(5) 0.30355(3) -1.02093(11)
O1B O -0.45023(16) 0.31183(9) -1.2328(3)
O2B O -0.46685(18) 0.25627(9) -0.9763(4)
O6B O -0.47607(16) 0.33996(9) -0.9114(3)
C15B C -0.3102(2) 0.30564(11) -0.9358(4)
C16B C -0.2580(2) 0.34356(12) -0.9731(5)
H9B H -0.2878 0.3672 -1.0507
C17B C -0.1631(2) 0.34707(13) -0.8979(5)
H10B H -0.1278 0.3728 -0.9258
C18B C -0.1202(2) 0.31287(14) -0.7821(5)
H11B H -0.0552 0.3152 -0.7309
C19B C -0.1710(3) 0.27538(14) -0.7405(5)
H12B H -0.1413 0.2523 -0.6592
C20B C -0.2664(2) 0.27137(12) -0.8183(5)
H13B H -0.3012 0.2454 -0.7912
P1B P -0.68484(5) 0.30436(3) -1.07116(11)
O3B O -0.65720(16) 0.25948(8) -0.9712(3)
O4B O -0.63596(15) 0.31140(8) -1.2410(3)
O7B O -0.67072(15) 0.34510(8) -0.9371(3)
C27B C -0.8096(2) 0.30442(11) -1.1543(4)
C28B C -0.8676(2) 0.33700(12) -1.0933(5)
H18B H -0.8419 0.3585 -1.0006
C29B C -0.9632(2) 0.33830(13) -1.1672(6)
H19B H -1.0024 0.3608 -1.1257
C30B C -1.0007(2) 0.30666(14) -1.3013(5)
H20B H -1.0657 0.3078 -1.3531
C31B C -0.9445(3) 0.27366(16) -1.3598(6)
H21B H -0.9709 0.2517 -1.4498
C32B C -0.8490(2) 0.27245(14) -1.2872(5)
H22B H -0.8102 0.2497 -1.3286
O8B O -0.56399(17) 0.42384(8) -0.9149(3)
V1B V -0.55778(3) 0.286110(18) -1.41177(7)
O2A O 0.46685(18) 0.75627(9) 1.4763(4)
O3A O 0.65720(16) 0.75948(8) 1.4712(3)
O5_2 O 0.56625(16) 0.67829(8) 1.5839(3)
N4B_2 N 0.65901(18) 0.59466(9) 0.6274(4)
V1A V 0.55778(3) 0.786110(18) 0.91177(7)
V1_2 V 0.55778(3) 0.713890(18) 0.41177(7)
V2B_2 V 0.43680(4) 0.376815(18) -0.79892(7)
V2_2 V -0.43680(4) 0.623185(18) 0.79892(7)
N4_2 N -0.65901(18) 0.40534(9) -0.6274(4)
V1B_2 V -0.55778(3) 0.286110(18) -0.41177(7)
V1C V -0.55778(3) 0.213890(18) -0.91177(7)
O2C O -0.46685(18) 0.24373(9) -1.4763(4)
O3C O -0.65720(16) 0.24052(8) -1.4712(3)
O5B_2 O -0.56625(16) 0.32171(8) -1.5839(3)
O9 O 0.4933(5) 0.4846(2) 0.8316(10)
loop_
_geom_bond_atom_site_label_1
_geom_bond_atom_site_label_2
_geom_bond_site_symmetry_1
_geom_bond_site_symmetry_2
Ni1 N1 1_555 1_555
V1 O1 1_555 1_555
V2 O5 1_555 1_555
P1 O3 1_555 1_555
P2 O1 1_555 1_555
O2 P2 1_555 1_555
O3 V1A 1_555 1_555
O4 V1 1_555 1_555
O5 V1_2 1_555 1_555
O6 V2 1_555 1_555
O7 V2 1_555 1_555
O8 V2 1_555 1_555
N1 C6 1_555 1_555
N2 Ni1 1_555 1_555
N3 V2 1_555 1_555
N4 C21 1_555 1_555
C1 C2 1_555 1_555
C2 N2 1_555 1_555
C3 C2 1_555 1_555
H1 C3 1_555 1_555
C4 C3 1_555 1_555
H2 C4 1_555 1_555
C5 N2 1_555 1_555
C6 C1 1_555 1_555
C7 C6 1_555 1_555
H3 C7 1_555 1_555
C8 C7 1_555 1_555
H4 C8 1_555 1_555
C9 N1 1_555 1_555
C10 C1 1_555 1_555
C11 C10 1_555 1_555
H5 C11 1_555 1_555
C12 N3 1_555 1_555
H6 C12 1_555 1_555
C13 N3 1_555 1_555
H7 C13 1_555 1_555
C14 C10 1_555 1_555
H8 C14 1_555 1_555
C15 P2 1_555 1_555
C16 C15 1_555 1_555
H9 C16 1_555 1_555
C17 C16 1_555 1_555
H10 C17 1_555 1_555
C18 C17 1_555 1_555
H11 C18 1_555 1_555
C19 C18 1_555 1_555
H12 C19 1_555 1_555
C20 C15 1_555 1_555
H13 C20 1_555 1_555
C21 H14 1_555 1_555
C22 C21 1_555 1_555
H15 C22 1_555 1_555
C23 C22 1_555 1_555
C24 C5 1_555 1_555
C25 C23 1_555 1_555
H16 C25 1_555 1_555
C26 N4 1_555 1_555
H17 C26 1_555 1_555
C27 P1 1_555 1_555
C28 C27 1_555 1_555
H18 C28 1_555 1_555
C29 C28 1_555 1_555
H19 C29 1_555 1_555
C30 C29 1_555 1_555
H20 C30 1_555 1_555
C31 C30 1_555 1_555
H21 C31 1_555 1_555
C32 C27 1_555 1_555
H22 C32 1_555 1_555
C9B C24 1_555 1_555
N1B Ni1 1_555 1_555
C6B N1B 1_555 1_555
C1B C6B 1_555 1_555
C2B C1B 1_555 1_555
N2B Ni1 1_555 1_555
C5B N2B 1_555 1_555
C4B C5B 1_555 1_555
C3B C2B 1_555 1_555
H1B C3B 1_555 1_555
H2B C4B 1_555 1_555
C24B C9 1_555 1_555
C23B C24B 1_555 1_555
C22B C23B 1_555 1_555
C21B C22B 1_555 1_555
N4B C21B 1_555 1_555
C26B N4B 1_555 1_555
C25B C23B 1_555 1_555
H16B C25B 1_555 1_555
H17B C26B 1_555 1_555
H14B C21B 1_555 1_555
H15B C22B 1_555 1_555
C10B C1B 1_555 1_555
C11B C10B 1_555 1_555
H5B C11B 1_555 1_555
C12B C11B 1_555 1_555
N3B C12B 1_555 1_555
C13B N3B 1_555 1_555
H7B C13B 1_555 1_555
C14B C10B 1_555 1_555
H8B C14B 1_555 1_555
H6B C12B 1_555 1_555
C7B C6B 1_555 1_555
H3B C7B 1_555 1_555
C8B C9B 1_555 1_555
H4B C8B 1_555 1_555
V2B N3B 1_555 1_555
O5B V2B 1_555 1_555
P2B O1B 1_555 1_555
O1B V1B 1_555 1_555
O2B P2B 1_555 1_555
O6B V2B 1_555 1_555
C15B P2B 1_555 1_555
C16B C15B 1_555 1_555
H9B C16B 1_555 1_555
C17B C16B 1_555 1_555
H10B C17B 1_555 1_555
C18B C17B 1_555 1_555
H11B C18B 1_555 1_555
C19B C18B 1_555 1_555
H12B C19B 1_555 1_555
C20B C15B 1_555 1_555
H13B C20B 1_555 1_555
P1B O3B 1_555 1_555
O3B V1C 1_555 1_555
O4B P1B 1_555 1_555
O7B V2B 1_555 1_555
C27B P1B 1_555 1_555
C28B C27B 1_555 1_555
H18B C28B 1_555 1_555
C29B C28B 1_555 1_555
H19B C29B 1_555 1_555
C30B C29B 1_555 1_555
H20B C30B 1_555 1_555
C31B C30B 1_555 1_555
H21B C31B 1_555 1_555
C32B C27B 1_555 1_555
H22B C32B 1_555 1_555
O8B V2B 1_555 1_555
V1B O4B 1_555 1_555
O2A V1 1_555 1_555
O3A V1 1_555 1_555
O5_2 V1 1_555 1_555
N4B_2 V2 1_555 1_555
V1A O2 1_555 1_555
V2B_2 N4 1_555 1_555
V2_2 N4B 1_555 1_555
N4_2 V2B 1_555 1_555
V1B_2 O5B 1_555 1_555
V1C O2B 1_555 1_555
O2C V1B 1_555 1_555
O3C V1B 1_555 1_555
O5B_2 V1B 1_555 1_555
P1 O4 1_555 1_555
P1 O7 1_555 1_555
P2 O6 1_555 1_555
C4 C5 1_555 1_555
C8 C9 1_555 1_555
C11 C12 1_555 1_555
C13 C14 1_555 1_555
C19 C20 1_555 1_555
C23 C24 1_555 1_555
C25 C26 1_555 1_555
C31 C32 1_555 1_555
C9B N1B 1_555 1_555
C2B N2B 1_555 1_555
C5B C24B 1_555 1_555
C4B C3B 1_555 1_555
C26B C25B 1_555 1_555
C13B C14B 1_555 1_555
C7B C8B 1_555 1_555
P2B O6B 1_555 1_555
C19B C20B 1_555 1_555
P1B O7B 1_555 1_555
C31B C32B 1_555 1_555

#END
