
#######################################################################
#
#                 Cambridge Crystallographic Data Centre
#                                CCDC 
#
#######################################################################
#
# If this CIF has been generated from an entry in the Cambridge 
# Structural Database, then it will include bibliographic, chemical, 
# crystal, experimental, refinement or atomic coordinate data resulting 
# from the CCDC's data processing and validation procedures.
#
#######################################################################

data_RAGBOR
_symmetry_cell_setting           monoclinic
_symmetry_space_group_name_H-M   'P 21/c'
_symmetry_Int_Tables_number      14
_space_group_name_Hall           '-P 2ybc'
loop_
_symmetry_equiv_pos_site_id
_symmetry_equiv_pos_as_xyz
1 x,y,z
2 -x,1/2+y,1/2-z
3 -x,-y,-z
4 x,1/2-y,1/2+z
_cell_length_a                   14.3519(15)
_cell_length_b                   28.906(3)
_cell_length_c                   7.3225(8)
_cell_angle_alpha                90
_cell_angle_beta                 100.289(2)
_cell_angle_gamma                90
_cell_volume                     2988.93
loop_
_atom_site_label
_atom_site_type_symbol
_atom_site_fract_x
_atom_site_fract_y
_atom_site_fract_z
Cu1 Cu 0.0000 0.0000 -0.5000
Cu2 Cu 0.56863(3) 0.129634(16) 0.25742(6)
V1 V 0.56929(4) 0.27782(2) 0.36759(9)
P1 P 0.69711(6) 0.19142(3) 0.54922(12)
P2 P 0.44576(6) 0.18787(3) 0.48853(13)
O1 O 0.48289(19) 0.14132(10) 0.4332(4)
O2 O 0.67782(17) 0.14783(9) 0.4322(3)
O3 O 0.67643(18) 0.23545(9) 0.4346(4)
O4 O 0.4853(2) 0.22662(11) 0.3860(5)
O5 O 0.45932(19) 0.19466(11) 0.6964(4)
O6 O 0.64723(17) 0.19074(9) 0.7157(3)
O7 O 0.57051(19) 0.19149(10) 0.0524(4)
N1 N 0.4523(2) 0.10579(11) 0.0827(4)
N2 N -0.3402(2) 0.09669(10) 0.1139(4)
N3 N 0.1355(2) 0.00631(10) -0.5209(4)
N4 N 0.0235(2) 0.03764(10) -0.2647(4)
C1 C 0.3201(3) 0.18824(13) 0.4023(5)
C2 C 0.2633(3) 0.15211(14) 0.4436(5)
H1 H 0.2915 0.1273 0.5190
C3 C 0.1669(3) 0.15136(14) 0.3777(5)
H2 H 0.1294 0.1265 0.4086
C4 C 0.1253(3) 0.18742(16) 0.2655(6)
H3 H 0.0591 0.1874 0.2202
C5 C 0.1810(3) 0.22331(15) 0.2205(6)
H4 H 0.1527 0.2475 0.1420
C6 C 0.2783(3) 0.22434(14) 0.2889(5)
H5 H 0.3158 0.2493 0.2588
C7 C 0.8225(2) 0.19070(12) 0.6377(5)
C8 C 0.8602(3) 0.22238(15) 0.7738(6)
H6 H 0.8198 0.2442 0.8176
C9 C 0.9564(3) 0.22235(16) 0.8459(6)
H7 H 0.9819 0.2443 0.9382
C10 C 1.0151(3) 0.19050(14) 0.7836(6)
H8 H 1.0809 0.1903 0.8342
C11 C 0.9789(3) 0.15885(14) 0.6481(6)
H9 H 1.0197 0.1371 0.6054
C12 C 0.8828(3) 0.15890(13) 0.5743(5)
H10 H 0.8579 0.1373 0.4805
C13 C 0.4394(3) 0.06047(13) 0.0502(5)
H11 H 0.4891 0.0398 0.0989
C14 C 0.3567(3) 0.04247(13) -0.0513(5)
H12 H 0.3505 0.0101 -0.0714
C15 C 0.2824(2) 0.07207(12) -0.1239(5)
C16 C 0.2965(3) 0.11923(12) -0.0881(5)
H13 H 0.2477 0.1407 -0.1330
C17 C 0.3816(3) 0.13457(13) 0.0129(5)
H14 H 0.3903 0.1668 0.0336
C18 C -0.0418(2) 0.05113(11) -0.1580(5)
C19 C 0.0035(3) 0.07820(12) -0.0019(5)
H15 H -0.0266 0.0923 0.0893
C20 C 0.0964(3) 0.07970(12) -0.0096(5)
H16 H 0.1447 0.0939 0.0781
C21 C 0.1089(2) 0.05572(12) -0.1759(5)
C22 C 0.2049(2) 0.03080(12) -0.4057(5)
C23 C 0.2914(2) 0.03027(13) -0.4773(5)
H17 H 0.3489 0.0452 -0.4249
C24 C 0.2756(2) 0.00458(12) -0.6328(5)
H18 H 0.3200 -0.0019 -0.7113
C25 C 0.1793(2) -0.01136(12) -0.6589(5)
C26 C -0.2043(2) 0.06120(12) -0.0827(5)
C27 C -0.1934(2) 0.05675(12) 0.1098(5)
H19 H -0.1399 0.0411 0.1771
C28 C -0.2842(3) 0.08511(12) -0.1713(5)
H20 H -0.2931 0.0903 -0.3014
C29 C -0.3504(2) 0.10128(12) -0.0711(5)
H21 H -0.4054 0.1163 -0.1358
C30 C -0.2612(2) 0.07534(12) 0.2026(5)
H22 H -0.2516 0.0729 0.3340
C31 C 0.1942(2) 0.05283(12) -0.2397(5)
C32 C -0.1384(2) 0.04037(11) -0.1960(5)
C25B C -0.1793(2) 0.01136(12) -0.3411(5)
N3B N -0.1355(2) -0.00631(10) -0.4791(4)
C22B C -0.2049(2) -0.03080(12) -0.5943(5)
C23B C -0.2914(2) -0.03027(13) -0.5227(5)
H17B H -0.3489 -0.0452 -0.5751
C24B C -0.2756(2) -0.00458(12) -0.3672(5)
H18B H -0.3200 0.0019 -0.2887
C31B C -0.1942(2) -0.05283(12) -0.7603(5)
C15B C -0.2824(2) -0.07207(12) -0.8761(5)
C14B C -0.3567(3) -0.04247(13) -0.9487(5)
C13B C -0.4394(3) -0.06047(13) -1.0502(5)
N1B N -0.4523(2) -0.10579(11) -1.0827(4)
C17B C -0.3816(3) -0.13457(13) -1.0129(5)
C16B C -0.2965(3) -0.11923(12) -0.9119(5)
H13B H -0.2477 -0.1407 -0.8670
H14B H -0.3903 -0.1668 -1.0336
H11B H -0.4891 -0.0398 -1.0989
H12B H -0.3505 -0.0101 -0.9286
C21B C -0.1089(2) -0.05572(12) -0.8241(5)
N4B N -0.0235(2) -0.03764(10) -0.7353(4)
C18B C 0.0418(2) -0.05113(11) -0.8420(5)
C19B C -0.0035(3) -0.07820(12) -0.9981(5)
H15B H 0.0266 -0.0923 -1.0893
C20B C -0.0964(3) -0.07970(12) -0.9904(5)
H16B H -0.1447 -0.0939 -1.0781
C32B C 0.1384(2) -0.04037(11) -0.8040(5)
C26B C 0.2043(2) -0.06120(12) -0.9173(5)
C27B C 0.1934(2) -0.05675(12) -1.1098(5)
H19B H 0.1399 -0.0411 -1.1771
C30B C 0.2612(2) -0.07534(12) -1.2026(5)
N2B N 0.3402(2) -0.09669(10) -1.1139(4)
C29B C 0.3504(2) -0.10128(12) -0.9289(5)
C28B C 0.2842(3) -0.08511(12) -0.8287(5)
H20B H 0.2931 -0.0903 -0.6986
H21B H 0.4054 -0.1163 -0.8642
H22B H 0.2516 -0.0729 -1.3340
Cu2B Cu -0.56863(3) -0.129634(16) -1.25742(6)
P2B P -0.44576(6) -0.18787(3) -1.48853(13)
O1B O -0.48289(19) -0.14132(10) -1.4332(4)
O4B O -0.4853(2) -0.22662(11) -1.3860(5)
O5B O -0.45932(19) -0.19466(11) -1.6964(4)
C1B C -0.3201(3) -0.18824(13) -1.4023(5)
C2B C -0.2633(3) -0.15211(14) -1.4436(5)
H1B H -0.2915 -0.1273 -1.5190
C3B C -0.1669(3) -0.15136(14) -1.3777(5)
H2B H -0.1294 -0.1265 -1.4086
C4B C -0.1253(3) -0.18742(16) -1.2655(6)
H3B H -0.0591 -0.1874 -1.2202
C5B C -0.1810(3) -0.22331(15) -1.2205(6)
H4B H -0.1527 -0.2475 -1.1420
C6B C -0.2783(3) -0.22434(14) -1.2889(5)
H5B H -0.3158 -0.2493 -1.2588
P1B P -0.69711(6) -0.19142(3) -1.54922(12)
O2B O -0.67782(17) -0.14783(9) -1.4322(3)
O3B O -0.67643(18) -0.23545(9) -1.4346(4)
O6B O -0.64723(17) -0.19074(9) -1.7157(3)
C7B C -0.8225(2) -0.19070(12) -1.6377(5)
C8B C -0.8602(3) -0.22238(15) -1.7738(6)
H6B H -0.8198 -0.2442 -1.8176
C9B C -0.9564(3) -0.22235(16) -1.8459(6)
H7B H -0.9819 -0.2443 -1.9382
C10B C -1.0151(3) -0.19050(14) -1.7836(6)
H8B H -1.0809 -0.1903 -1.8342
C11B C -0.9789(3) -0.15885(14) -1.6481(6)
H9B H -1.0197 -0.1371 -1.6054
C12B C -0.8828(3) -0.15890(13) -1.5743(5)
H10B H -0.8579 -0.1373 -1.4805
O7B O -0.57051(19) -0.19149(10) -1.0524(4)
V1B V -0.56929(4) -0.27782(2) -1.36759(9)
N2_2 N 0.6598(2) 0.09669(10) 0.1139(4)
O5C O 0.45932(19) 0.30534(11) 0.1964(4)
O6C O 0.64723(17) 0.30926(9) 0.2157(3)
O7C O 0.57051(19) 0.30851(10) 0.5524(4)
V1C V 0.56929(4) 0.22218(2) 0.86759(9)
V1C_2 V 0.56929(4) 0.22218(2) -0.13241(9)
Cu2_2 Cu -0.43137(3) 0.129634(16) 0.25742(6)
Cu2B_2 Cu 0.43137(3) -0.129634(16) -1.25742(6)
N2B_2 N -0.6598(2) -0.09669(10) -1.1139(4)
V1A V -0.56929(4) -0.22218(2) -1.86759(9)
V1A_2 V -0.56929(4) -0.22218(2) -0.86759(9)
O5A O -0.45932(19) -0.30534(11) -1.1964(4)
O6A O -0.64723(17) -0.30926(9) -1.2157(3)
O7A O -0.57051(19) -0.30851(10) -1.5524(4)
O8 O 0.8250(15) 0.1701(6) 0.124(2)
O9 O 0.5130(10) 0.0519(5) 0.572(3)
O10? O 0.5304(11) 0.0484(6) 0.486(3)
loop_
_geom_bond_atom_site_label_1
_geom_bond_atom_site_label_2
_geom_bond_site_symmetry_1
_geom_bond_site_symmetry_2
Cu1 N3 1_555 1_555
Cu2 O1 1_555 1_555
V1 O3 1_555 1_555
P1 O2 1_555 1_555
P2 O1 1_555 1_555
O2 Cu2 1_555 1_555
O3 P1 1_555 1_555
O4 V1 1_555 1_555
O5 P2 1_555 1_555
O6 P1 1_555 1_555
O7 Cu2 1_555 1_555
N1 Cu2 1_555 1_555
N2 C29 1_555 1_555
N3 C22 1_555 1_555
N4 Cu1 1_555 1_555
C1 P2 1_555 1_555
C2 C1 1_555 1_555
H1 C2 1_555 1_555
C3 C2 1_555 1_555
H2 C3 1_555 1_555
C4 C3 1_555 1_555
H3 C4 1_555 1_555
C5 C4 1_555 1_555
H4 C5 1_555 1_555
C6 C1 1_555 1_555
H5 C6 1_555 1_555
C7 P1 1_555 1_555
C8 C7 1_555 1_555
H6 C8 1_555 1_555
C9 C8 1_555 1_555
H7 C9 1_555 1_555
C10 C9 1_555 1_555
H8 C10 1_555 1_555
C11 C10 1_555 1_555
H9 C11 1_555 1_555
C12 C7 1_555 1_555
H10 C12 1_555 1_555
C13 N1 1_555 1_555
H11 C13 1_555 1_555
C14 C13 1_555 1_555
H12 C14 1_555 1_555
C15 C14 1_555 1_555
C16 C15 1_555 1_555
H13 C16 1_555 1_555
C17 N1 1_555 1_555
H14 C17 1_555 1_555
C18 N4 1_555 1_555
C19 C18 1_555 1_555
H15 C19 1_555 1_555
C20 C19 1_555 1_555
H16 C20 1_555 1_555
C21 N4 1_555 1_555
C22 C23 1_555 1_555
C23 H17 1_555 1_555
C24 C23 1_555 1_555
H18 C24 1_555 1_555
C25 N3 1_555 1_555
C26 C27 1_555 1_555
C27 H19 1_555 1_555
C28 C26 1_555 1_555
H20 C28 1_555 1_555
C29 C28 1_555 1_555
H21 C29 1_555 1_555
C30 N2 1_555 1_555
H22 C30 1_555 1_555
C31 C15 1_555 1_555
C32 C18 1_555 1_555
C25B C32 1_555 1_555
N3B Cu1 1_555 1_555
C22B N3B 1_555 1_555
C23B C22B 1_555 1_555
H17B C23B 1_555 1_555
C24B C25B 1_555 1_555
H18B C24B 1_555 1_555
C31B C22B 1_555 1_555
C15B C31B 1_555 1_555
C14B C15B 1_555 1_555
C13B C14B 1_555 1_555
N1B C13B 1_555 1_555
C17B N1B 1_555 1_555
C16B C15B 1_555 1_555
H13B C16B 1_555 1_555
H14B C17B 1_555 1_555
H11B C13B 1_555 1_555
H12B C14B 1_555 1_555
C21B C31B 1_555 1_555
N4B Cu1 1_555 1_555
C18B N4B 1_555 1_555
C19B C18B 1_555 1_555
H15B C19B 1_555 1_555
C20B C21B 1_555 1_555
H16B C20B 1_555 1_555
C32B C25 1_555 1_555
C26B C32B 1_555 1_555
C27B C26B 1_555 1_555
H19B C27B 1_555 1_555
C30B C27B 1_555 1_555
N2B C30B 1_555 1_555
C29B N2B 1_555 1_555
C28B C26B 1_555 1_555
H20B C28B 1_555 1_555
H21B C29B 1_555 1_555
H22B C30B 1_555 1_555
Cu2B N1B 1_555 1_555
P2B O1B 1_555 1_555
O1B Cu2B 1_555 1_555
O4B P2B 1_555 1_555
O5B P2B 1_555 1_555
C1B P2B 1_555 1_555
C2B C1B 1_555 1_555
H1B C2B 1_555 1_555
C3B C2B 1_555 1_555
H2B C3B 1_555 1_555
C4B C3B 1_555 1_555
H3B C4B 1_555 1_555
C5B C4B 1_555 1_555
H4B C5B 1_555 1_555
C6B C1B 1_555 1_555
H5B C6B 1_555 1_555
P1B O2B 1_555 1_555
O2B Cu2B 1_555 1_555
O3B P1B 1_555 1_555
O6B P1B 1_555 1_555
C7B P1B 1_555 1_555
C8B C7B 1_555 1_555
H6B C8B 1_555 1_555
C9B C8B 1_555 1_555
H7B C9B 1_555 1_555
C10B C9B 1_555 1_555
H8B C10B 1_555 1_555
C11B C10B 1_555 1_555
H9B C11B 1_555 1_555
C12B C7B 1_555 1_555
H10B C12B 1_555 1_555
O7B Cu2B 1_555 1_555
V1B O4B 1_555 1_555
N2_2 Cu2 1_555 1_555
O5C V1 1_555 1_555
O6C V1 1_555 1_555
O7C V1 1_555 1_555
V1C O5 1_555 1_555
V1C_2 O7 1_555 1_555
Cu2_2 N2 1_555 1_555
Cu2B_2 N2B 1_555 1_555
N2B_2 Cu2B 1_555 1_555
V1A O5B 1_555 1_555
V1A_2 O7B 1_555 1_555
O5A V1B 1_555 1_555
O6A V1B 1_555 1_555
O7A V1B 1_555 1_555
P2 O4 1_555 1_555
O6 V1C 1_555 1_555
C5 C6 1_555 1_555
C11 C12 1_555 1_555
C16 C17 1_555 1_555
C20 C21 1_555 1_555
C21 C31 1_555 1_555
C22 C31 1_555 1_555
C24 C25 1_555 1_555
C26 C32 1_555 1_555
C27 C30 1_555 1_555
C25B N3B 1_555 1_555
C23B C24B 1_555 1_555
C17B C16B 1_555 1_555
C21B N4B 1_555 1_555
C18B C32B 1_555 1_555
C19B C20B 1_555 1_555
C29B C28B 1_555 1_555
C5B C6B 1_555 1_555
O3B V1B 1_555 1_555
O6B V1A 1_555 1_555
C11B C12B 1_555 1_555

#END
