
#######################################################################
#
#                 Cambridge Crystallographic Data Centre
#                                CCDC 
#
#######################################################################
#
# If this CIF has been generated from an entry in the Cambridge 
# Structural Database, then it will include bibliographic, chemical, 
# crystal, experimental, refinement or atomic coordinate data resulting 
# from the CCDC's data processing and validation procedures.
#
#######################################################################

data_RAGCAE
_symmetry_cell_setting           triclinic
_symmetry_space_group_name_H-M   'P -1'
_symmetry_Int_Tables_number      2
_space_group_name_Hall           '-P 1'
loop_
_symmetry_equiv_pos_site_id
_symmetry_equiv_pos_as_xyz
1 x,y,z
2 -x,-y,-z
_cell_length_a                   9.7559(9)
_cell_length_b                   13.8997(13)
_cell_length_c                   19.7171(18)
_cell_angle_alpha                101.657(2)
_cell_angle_beta                 93.949(2)
_cell_angle_gamma                110.477(2)
_cell_volume                     2424.57
loop_
_atom_site_label
_atom_site_type_symbol
_atom_site_fract_x
_atom_site_fract_y
_atom_site_fract_z
Cu1 Cu 0.07134(7) 0.48510(5) 0.08203(3)
Cu2 Cu 0.56349(7) 0.37956(5) 0.39431(3)
V1 V 0.21579(9) 0.48404(7) 0.24062(4)
V2 V -0.28747(9) 0.47509(7) 0.26235(4)
P1 P 0.03601(14) 0.62855(10) 0.22462(7)
P2 P 0.53335(14) 0.58612(10) 0.35296(7)
P3 P 0.36731(14) 0.31870(10) 0.25377(7)
P4 P -0.12688(13) 0.34713(10) 0.16693(7)
O1 O 0.5192(4) 0.5055(3) 0.39645(19)
O2 O -0.2485(4) 0.4323(3) 0.3283(2)
O3 O 0.4082(4) 0.2862(3) 0.3193(2)
O4 O -0.2598(4) 0.3773(3) 0.1823(2)
O5 O 0.5006(4) 0.3982(3) 0.23314(19)
O6 O 0.6584(4) 0.5958(3) 0.30860(19)
O7 O -0.1107(4) 0.5864(3) 0.2517(2)
O8 O 0.2389(4) 0.3568(3) 0.25996(19)
O9 O 0.3890(4) 0.5721(3) 0.31017(19)
O10 O 0.2577(4) 0.4850(3) 0.1632(2)
O12 O 0.0028(4) 0.4018(3) 0.22657(19)
O13 O 0.1619(4) 0.6102(3) 0.26404(19)
O14 O 0.0237(4) 0.5912(3) 0.1453(2)
O15 O -0.0837(4) 0.3618(3) 0.0961(2)
N1 N 0.6216(5) 0.2564(4) 0.4027(2)
N2 N 0.7050(5) 0.4476(4) 0.4844(2)
N3 N 0.2193(5) 0.5978(4) 0.0467(2)
N4 N 0.1251(5) 0.3910(4) 0.0050(2)
C1 C 0.5703(7) 0.1596(5) 0.3622(3)
C2 C 0.6280(7) 0.0831(5) 0.3725(3)
C3 C 0.7412(7) 0.1088(5) 0.4257(3)
H1 H 0.7825 0.0582 0.4323
C4 C 0.7966(6) 0.2112(5) 0.4708(3)
C5 C 0.9086(6) 0.2455(5) 0.5314(3)
H2 H 0.9526 0.1980 0.5418
C6 C 0.9529(6) 0.3449(5) 0.5742(3)
H3 H 1.0275 0.3657 0.6136
C7 C 0.8879(6) 0.4181(5) 0.5601(3)
C8 C 0.9227(6) 0.5206(5) 0.6026(3)
H4 H 0.9975 0.5469 0.6425
C9 C 0.8482(6) 0.5820(5) 0.5863(3)
C10 C 0.7384(6) 0.5429(4) 0.5263(3)
H5 H 0.6870 0.5861 0.5156
C11 C 0.7782(6) 0.3860(4) 0.5011(3)
C12 C 0.7323(6) 0.2822(4) 0.4568(3)
C13 C -0.1871(6) 0.2071(4) 0.1635(3)
C14 C -0.1741(7) 0.1743(5) 0.2250(3)
H6 H -0.1332 0.2257 0.2681
C15 C -0.2200(8) 0.0675(5) 0.2241(4)
C16 C -0.2803(7) -0.0082(5) 0.1611(4)
C17 C -0.2934(7) 0.0241(5) 0.0995(3)
C18 C -0.2470(6) 0.1301(4) 0.1003(3)
H7 H -0.2556 0.1511 0.0577
C19 C 0.5853(6) 0.7136(4) 0.4145(3)
C20 C 0.4921(6) 0.7709(4) 0.4174(3)
H8 H 0.4018 0.7443 0.3860
C21 C 0.5325(7) 0.8673(4) 0.4668(3)
C22 C 0.6623(8) 0.9061(5) 0.5132(3)
C23 C 0.7568(7) 0.8511(5) 0.5100(3)
H9 H 0.8471 0.8785 0.5415
C24 C 0.7189(6) 0.7552(5) 0.4600(3)
H10 H 0.7847 0.7183 0.4572
C25 C 0.3036(6) 0.2018(4) 0.1827(3)
C26 C 0.4033(6) 0.1554(4) 0.1586(3)
H11 H 0.5046 0.1860 0.1792
C27 C 0.3533(7) 0.0645(5) 0.1044(3)
C28 C 0.2059(7) 0.0196(5) 0.0732(3)
C29 C 0.1073(6) 0.0669(5) 0.0961(3)
C30 C 0.1559(6) 0.1582(5) 0.1507(3)
C31 C 0.0844(6) 0.7699(4) 0.2467(3)
C32 C 0.2226(7) 0.8381(5) 0.2374(3)
H12 H 0.2929 0.8098 0.2206
C33 C 0.2576(10) 0.9465(6) 0.2524(4)
H13 H 0.3505 0.9919 0.2445
C34 C 0.1582(11) 0.9886(6) 0.2788(5)
C35 C 0.0240(10) 0.9236(6) 0.2916(5)
H14 H -0.0420 0.9534 0.3119
C36 C -0.0149(7) 0.8137(5) 0.2746(4)
H15 H -0.1085 0.7688 0.2821
C37 C 0.2647(6) 0.7024(4) 0.0697(3)
H16 H 0.2146 0.7311 0.1030
C38 C 0.3837(6) 0.7712(4) 0.0464(3)
H17 H 0.4143 0.8455 0.0644
C39 C 0.4566(6) 0.7323(5) -0.0024(3)
H18 H 0.5374 0.7792 -0.0183
C40 C 0.4105(6) 0.6220(4) -0.0286(3)
C41 C 0.4774(6) 0.5712(5) -0.0799(3)
H19 H 0.5599 0.6133 -0.0976
C42 C 0.4254(6) 0.4656(5) -0.1032(3)
H20 H 0.4711 0.4341 -0.1374
C43 C 0.3014(6) 0.3989(4) -0.0772(3)
C44 C 0.2398(7) 0.2867(5) -0.0994(3)
H21 H 0.2779 0.2505 -0.1348
C45 C 0.1255(7) 0.2317(5) -0.0694(3)
H22 H 0.0825 0.1567 -0.0842
C46 C 0.0709(6) 0.2860(5) -0.0165(3)
H23 H -0.0073 0.2463 0.0046
C47 C 0.2382(6) 0.4462(4) -0.0255(3)
C48 C 0.2910(5) 0.5589(4) -0.0017(3)
H24 H 0.463(8) 0.906(6) 0.471(4)
H25 H 0.579(8) 0.016(6) 0.342(4)
H26 H 0.489(8) 0.143(5) 0.331(4)
H27 H -0.334(8) -0.027(6) 0.060(4)
H28 H 0.869(6) 0.644(5) 0.614(3)
H29 H 0.079(6) 0.193(5) 0.166(3)
H30 H -0.303(9) -0.075(6) 0.168(4)
H31 H 0.190(10) 1.066(7) 0.290(5)
H32 H -0.217(9) 0.045(6) 0.271(4)
H33 H 0.688(8) 0.970(6) 0.546(4)
H34 H 0.415(7) 0.037(5) 0.094(3)
H35 H 0.175(9) -0.042(6) 0.040(4)
H36 H 0.008(9) 0.039(6) 0.077(4)
O2_2 O 0.7515(4) 0.4323(3) 0.3283(2)
O5_2 O -0.4994(4) 0.3982(3) 0.23314(19)
O6_2 O -0.3416(4) 0.5958(3) 0.30860(19)
Cu2_2 Cu -0.43651(7) 0.37956(5) 0.39431(3)
V2_2 V 0.71253(9) 0.47509(7) 0.26235(4)
O11 O 0.5628(8) 0.7476(5) 0.2359(3)
loop_
_geom_bond_atom_site_label_1
_geom_bond_atom_site_label_2
_geom_bond_site_symmetry_1
_geom_bond_site_symmetry_2
Cu1 O10 1_555 1_555
Cu2 O1 1_555 1_555
V1 O8 1_555 1_555
V2 O2 1_555 1_555
P1 O7 1_555 1_555
P2 O1 1_555 1_555
P3 O3 1_555 1_555
P4 O4 1_555 1_555
O2 Cu2_2 1_555 1_555
O3 Cu2 1_555 1_555
O4 V2 1_555 1_555
O5 P3 1_555 1_555
O6 P2 1_555 1_555
O7 V2 1_555 1_555
O8 P3 1_555 1_555
O9 V1 1_555 1_555
O10 V1 1_555 1_555
O12 V1 1_555 1_555
O13 V1 1_555 1_555
O14 Cu1 1_555 1_555
O15 Cu1 1_555 1_555
N1 Cu2 1_555 1_555
N2 Cu2 1_555 1_555
N3 Cu1 1_555 1_555
N4 Cu1 1_555 1_555
C1 N1 1_555 1_555
C2 C1 1_555 1_555
C3 C2 1_555 1_555
H1 C3 1_555 1_555
C4 C3 1_555 1_555
C5 C4 1_555 1_555
H2 C5 1_555 1_555
C6 C5 1_555 1_555
H3 C6 1_555 1_555
C7 C6 1_555 1_555
C8 C7 1_555 1_555
H4 C8 1_555 1_555
C9 C8 1_555 1_555
C10 N2 1_555 1_555
H5 C10 1_555 1_555
C11 N2 1_555 1_555
C12 N1 1_555 1_555
C13 P4 1_555 1_555
C14 C13 1_555 1_555
H6 C14 1_555 1_555
C15 C14 1_555 1_555
C16 C15 1_555 1_555
C17 C16 1_555 1_555
C18 C13 1_555 1_555
H7 C18 1_555 1_555
C19 P2 1_555 1_555
C20 C19 1_555 1_555
H8 C20 1_555 1_555
C21 C20 1_555 1_555
C22 C21 1_555 1_555
C23 C22 1_555 1_555
H9 C23 1_555 1_555
C24 C19 1_555 1_555
H10 C24 1_555 1_555
C25 P3 1_555 1_555
C26 C25 1_555 1_555
H11 C26 1_555 1_555
C27 C26 1_555 1_555
C28 C27 1_555 1_555
C29 C28 1_555 1_555
C30 C25 1_555 1_555
C31 P1 1_555 1_555
C32 C31 1_555 1_555
H12 C32 1_555 1_555
C33 C32 1_555 1_555
H13 C33 1_555 1_555
C34 C33 1_555 1_555
C35 C34 1_555 1_555
H14 C35 1_555 1_555
C36 C31 1_555 1_555
H15 C36 1_555 1_555
C37 N3 1_555 1_555
H16 C37 1_555 1_555
C38 C37 1_555 1_555
H17 C38 1_555 1_555
C39 C38 1_555 1_555
H18 C39 1_555 1_555
C40 C39 1_555 1_555
C41 C40 1_555 1_555
H19 C41 1_555 1_555
C42 C41 1_555 1_555
H20 C42 1_555 1_555
C43 C42 1_555 1_555
C44 C43 1_555 1_555
H21 C44 1_555 1_555
C45 C44 1_555 1_555
H22 C45 1_555 1_555
C46 N4 1_555 1_555
H23 C46 1_555 1_555
C47 N4 1_555 1_555
C48 N3 1_555 1_555
H24 C21 1_555 1_555
H25 C2 1_555 1_555
H26 C1 1_555 1_555
H27 C17 1_555 1_555
H28 C9 1_555 1_555
H29 C30 1_555 1_555
H30 C16 1_555 1_555
H31 C34 1_555 1_555
H32 C15 1_555 1_555
H33 C22 1_555 1_555
H34 C27 1_555 1_555
H35 C28 1_555 1_555
H36 C29 1_555 1_555
O2_2 Cu2 1_555 1_555
O5_2 V2 1_555 1_555
O6_2 V2 1_555 1_555
V2_2 O5 1_555 1_555
P1 O13 1_555 1_555
P1 O14 1_555 1_555
P2 O9 1_555 1_555
P4 O12 1_555 1_555
P4 O15 1_555 1_555
O6 V2_2 1_555 1_555
C4 C12 1_555 1_555
C7 C11 1_555 1_555
C9 C10 1_555 1_555
C11 C12 1_555 1_555
C17 C18 1_555 1_555
C23 C24 1_555 1_555
C29 C30 1_555 1_555
C35 C36 1_555 1_555
C40 C48 1_555 1_555
C43 C47 1_555 1_555
C45 C46 1_555 1_555
C47 C48 1_555 1_555
O2_2 V2_2 1_555 1_555

#END
