
#######################################################################
#
#                 Cambridge Crystallographic Data Centre
#                                CCDC 
#
#######################################################################
#
# If this CIF has been generated from an entry in the Cambridge 
# Structural Database, then it will include bibliographic, chemical, 
# crystal, experimental, refinement or atomic coordinate data resulting 
# from the CCDC's data processing and validation procedures.
#
#######################################################################

data_RAGCOS
_symmetry_cell_setting           triclinic
_symmetry_space_group_name_H-M   'P -1'
_symmetry_Int_Tables_number      2
_space_group_name_Hall           '-P 1'
loop_
_symmetry_equiv_pos_site_id
_symmetry_equiv_pos_as_xyz
1 x,y,z
2 -x,-y,-z
_cell_length_a                   7.961(3)
_cell_length_b                   8.176(5)
_cell_length_c                   14.32(2)
_cell_angle_alpha                97.07(7)
_cell_angle_beta                 96.75(8)
_cell_angle_gamma                103.73(6)
_cell_volume                     888.086
loop_
_atom_site_label
_atom_site_type_symbol
_atom_site_fract_x
_atom_site_fract_y
_atom_site_fract_z
Ce1 Ce 0.869586(17) -0.071162(18) 0.710022(10)
Ce2 Ce 1.408960(17) 0.010610(18) 0.797300(10)
O1 O 0.9991(3) -0.1731(3) 0.56483(17)
H1 H 0.983(8) -0.139(7) 0.505(2)
H2 H 1.118(4) -0.177(9) 0.577(5)
O2 O 1.6583(3) 0.1882(3) 0.92196(14)
H3 H 1.764(3) 0.162(5) 0.919(3)
H4 H 1.642(6) 0.192(6) 0.9861(17)
O3 O 0.8601(3) -0.3813(3) 0.72397(18)
O4 O 1.1188(2) -0.2044(2) 0.77104(14)
C1 C 1.0165(4) -0.3554(3) 0.75868(19)
C2 C 1.0878(4) -0.5014(4) 0.7874(2)
H5 H 1.173(4) -0.464(5) 0.847(2)
H6 H 0.993(3) -0.594(3) 0.799(2)
C3 C 1.1780(4) -0.5707(4) 0.7081(2)
H7 H 1.095(4) -0.614(5) 0.6486(18)
H8 H 1.277(4) -0.479(4) 0.699(3)
C4 C 1.2515(4) -0.7141(3) 0.7373(2)
O5 O 1.3947(3) -0.6812(3) 0.79032(17)
O6 O 1.1647(2) -0.8705(2) 0.70708(14)
O7 O 0.4426(2) -0.2162(3) 0.90174(14)
O8 O 0.6562(2) -0.1559(2) 0.81870(13)
C5 C 0.5876(3) -0.2353(3) 0.88215(18)
C6 C 0.6765(4) -0.3548(4) 0.9286(2)
H9 H 0.667(4) -0.452(3) 0.8803(19)
H10 H 0.603(4) -0.398(4) 0.9744(18)
C7 C 0.8662(4) -0.2737(4) 0.9765(2)
H11 H 0.933(4) -0.218(4) 0.931(2)
H12 H 0.922(4) -0.359(3) 0.998(2)
C8 C 0.8814(3) -0.1462(3) 1.06611(18)
O9 O 0.7543(3) -0.0841(3) 1.07654(14)
O10 O 1.0231(3) -0.1090(3) 1.12422(14)
O11 O 0.8102(3) 0.1344(3) 0.59607(16)
O12 O 0.6601(2) 0.1297(2) 0.71500(13)
C9 C 0.6939(3) 0.1809(3) 0.63626(19)
C10 C 0.5957(4) 0.2993(4) 0.59591(19)
H13 H 0.605(4) 0.393(3) 0.6469(19)
H14 H 0.475(3) 0.231(4) 0.586(2)
C11 C 0.6576(4) 0.3613(3) 0.50558(19)
H15 H 0.637(4) 0.472(3) 0.5009(19)
H16 H 0.784(2) 0.379(4) 0.509(2)
C12 C 0.5609(3) 0.2419(3) 0.41590(18)
O13 O 0.3994(3) 0.2255(3) 0.39727(15)
O14 O 0.6458(3) 0.1647(3) 0.36456(15)
O6_2 O 1.1647(2) 0.1295(2) 0.70708(14)
O10A O 0.9769(3) 0.1090(3) 0.87578(14)
O13A O 0.6006(3) -0.2255(3) 0.60273(15)
O5_2 O 1.3947(3) 0.3188(3) 0.79032(17)
O7_2 O 1.4426(2) -0.2162(3) 0.90174(14)
O8_2 O 1.6562(2) -0.1559(2) 0.81870(13)
O9A O 1.2457(3) 0.0841(3) 0.92346(14)
O12_2 O 1.6601(2) 0.1297(2) 0.71500(13)
O14A O 1.3542(3) -0.1647(3) 0.63544(15)
Ce2_2 Ce 1.408960(17) -0.989390(18) 0.797300(10)
Ce1_2 Ce 0.869586(17) -1.071162(18) 0.710022(10)
Ce2_3 Ce 0.408960(17) 0.010610(18) 0.797300(10)
Ce2A Ce 0.591040(17) -0.010610(18) 1.202700(10)
Ce1A Ce 1.130414(17) 0.071162(18) 1.289978(10)
Ce1A_2 Ce 0.130414(17) 0.071162(18) 0.289978(10)
Ce2A_2 Ce 0.591040(17) -0.010610(18) 0.202700(10)
loop_
_geom_bond_atom_site_label_1
_geom_bond_atom_site_label_2
_geom_bond_site_symmetry_1
_geom_bond_site_symmetry_2
Ce1 O1 1_555 1_555
Ce2 O2 1_555 1_555
O1 H1 1_555 1_555
H2 O1 1_555 1_555
O2 H3 1_555 1_555
H4 O2 1_555 1_555
O3 Ce1 1_555 1_555
O4 Ce1 1_555 1_555
C1 O3 1_555 1_555
C2 C1 1_555 1_555
H5 C2 1_555 1_555
H6 C2 1_555 1_555
C3 C2 1_555 1_555
H7 C3 1_555 1_555
H8 C3 1_555 1_555
C4 C3 1_555 1_555
O5 C4 1_555 1_555
O6 C4 1_555 1_555
O7 C5 1_555 1_555
O8 Ce1 1_555 1_555
C5 O8 1_555 1_555
C6 C5 1_555 1_555
H9 C6 1_555 1_555
H10 C6 1_555 1_555
C7 C6 1_555 1_555
H11 C7 1_555 1_555
H12 C7 1_555 1_555
C8 C7 1_555 1_555
O9 C8 1_555 1_555
O10 C8 1_555 1_555
O11 Ce1 1_555 1_555
O12 Ce1 1_555 1_555
C9 O11 1_555 1_555
C10 C9 1_555 1_555
H13 C10 1_555 1_555
H14 C10 1_555 1_555
C11 C10 1_555 1_555
H15 C11 1_555 1_555
H16 C11 1_555 1_555
C12 C11 1_555 1_555
O13 C12 1_555 1_555
O14 C12 1_555 1_555
O6_2 Ce1 1_555 1_555
O10A Ce1 1_555 1_555
O13A Ce1 1_555 1_555
O5_2 Ce2 1_555 1_555
O7_2 Ce2 1_555 1_555
O8_2 Ce2 1_555 1_555
O9A Ce2 1_555 1_555
O12_2 Ce2 1_555 1_555
O14A Ce2 1_555 1_555
Ce2_2 O5 1_555 1_555
Ce1_2 O6 1_555 1_555
Ce2_3 O7 1_555 1_555
Ce2A O9 1_555 1_555
Ce1A O10 1_555 1_555
Ce1A_2 O13 1_555 1_555
Ce2A_2 O14 1_555 1_555
Ce2 O4 1_555 1_555
Ce2 O6_2 1_555 1_555
O4 C1 1_555 1_555
O6 Ce2_2 1_555 1_555
O8 Ce2_3 1_555 1_555
O12 C9 1_555 1_555
O12 Ce2_3 1_555 1_555

#END
