
#######################################################################
#
#                 Cambridge Crystallographic Data Centre
#                                CCDC 
#
#######################################################################
#
# If this CIF has been generated from an entry in the Cambridge 
# Structural Database, then it will include bibliographic, chemical, 
# crystal, experimental, refinement or atomic coordinate data resulting 
# from the CCDC's data processing and validation procedures.
#
#######################################################################

data_RAGTIE
_symmetry_cell_setting           triclinic
_symmetry_space_group_name_H-M   'P -1'
_symmetry_Int_Tables_number      2
_space_group_name_Hall           '-P 1'
loop_
_symmetry_equiv_pos_site_id
_symmetry_equiv_pos_as_xyz
1 x,y,z
2 -x,-y,-z
_cell_length_a                   11.5437(3)
_cell_length_b                   13.6426(3)
_cell_length_c                   13.8379(3)
_cell_angle_alpha                111.965(1)
_cell_angle_beta                 108.084(1)
_cell_angle_gamma                90.080(1)
_cell_volume                     1904.11
loop_
_atom_site_label
_atom_site_type_symbol
_atom_site_fract_x
_atom_site_fract_y
_atom_site_fract_z
Re4 Re 0.84550(2) 0.43316(2) 0.39819(2)
Re5 Re 1.01708(2) 0.38711(2) 0.54515(2)
Re6 Re 0.92786(2) 0.56906(2) 0.60614(2)
Se5 Se 0.79879(7) 0.39396(6) 0.54666(6)
Se6 Se 0.93730(7) 0.26115(6) 0.34443(6)
Se7 Se 0.90427(7) 0.47849(6) 0.25756(6)
Se8 Se 0.76672(7) 0.61163(7) 0.46124(6)
C4 C 0.6723(8) 0.3549(7) 0.2822(7)
C5 C 1.0403(7) 0.2663(6) 0.6058(6)
C6 C 0.8476(7) 0.6392(6) 0.7283(6)
N4 N 0.5765(8) 0.3156(9) 0.2212(8)
N5 N 1.0554(7) 0.2061(6) 0.6466(6)
N6 N 0.8063(7) 0.6717(6) 0.7975(6)
Nd1 Nd 0.82132(4) 0.75874(4) 1.00004(3)
O1 O 0.8271(5) 0.9301(5) 1.1556(4)
C7 C 0.8500(7) 0.9263(7) 0.8731(6)
H1 H 0.8274 0.9913 0.8633
H2 H 0.8418 0.8717 0.8012
C8 C 0.9834(7) 0.9459(7) 0.9502(6)
H3 H 1.0389 0.9414 0.9081
O2 O 0.7709(5) 0.8933(5) 0.9188(4)
O3 O 0.9974(5) 0.8619(4) 0.9900(4)
H4 H 1.0735 0.8446 1.0129
C9 C 1.074(2) 0.696(2) 1.1707(18)
H5 H 1.0867 0.6966 1.2384
H6 H 1.1477 0.7054 1.1643
C10 C 1.009(2) 0.5892(18) 1.0869(19)
H7 H 0.9449 0.5739 1.1048
C11 C 1.095(2) 0.515(3) 1.101(3)
H8 H 1.1200 0.5215 1.1723
C12 C 1.200(2) 0.531(3) 1.071(3)
H9 H 1.2432 0.5949 1.1169
H10 H 1.1745 0.5285 1.0016
O6 O 1.0099(6) 0.7886(6) 1.1641(5)
O7 O 0.9570(6) 0.6066(6) 0.9780(5)
O8 O 1.2874(15) 0.4360(13) 1.0778(14)
O13 O 0.7622(7) 0.7061(6) 1.1351(5)
O14 O 0.6047(6) 0.7895(7) 0.9769(6)
Re4A Re 1.15450(2) 0.56684(2) 0.60181(2)
Re5A Re 0.98292(2) 0.61289(2) 0.45485(2)
Re6A Re 1.07214(2) 0.43094(2) 0.39386(2)
Se5A Se 1.20121(7) 0.60604(6) 0.45334(6)
Se6A Se 1.06270(7) 0.73885(6) 0.65557(6)
Se7A Se 1.09573(7) 0.52151(6) 0.74244(6)
Se8A Se 1.23328(7) 0.38837(7) 0.53876(6)
C4A C 1.3277(8) 0.6451(7) 0.7178(7)
C5A C 0.9597(7) 0.7337(6) 0.3942(6)
C6A C 1.1524(7) 0.3608(6) 0.2717(6)
N4A N 1.4235(8) 0.6844(9) 0.7788(8)
N5A N 0.9446(7) 0.7939(6) 0.3534(6)
N6A N 1.1937(7) 0.3283(6) 0.2025(6)
Nd1A Nd 1.17868(4) 0.24126(4) -0.00004(3)
Nd1A_2 Nd 1.17868(4) 0.24126(4) 0.99996(3)
Nd1A_3 Nd 1.17868(4) 1.24126(4) 0.99996(3)
O1A O 1.1729(5) 0.0699(5) -0.1556(4)
C7A C 1.1500(7) 1.0737(7) 1.1269(6)
H1A H 1.1726 1.0087 1.1367
H2A H 1.1582 1.1283 1.1988
C8A C 1.0166(7) 1.0541(7) 1.0498(6)
H3A H 0.9611 1.0586 1.0919
O2A O 1.2291(5) 1.1067(5) 1.0812(4)
O2A_2 O 1.2291(5) 0.1067(5) 0.0812(4)
O3A O 1.0026(5) 1.1381(4) 1.0100(4)
O3A_2 O 1.0026(5) 0.1381(4) 0.0100(4)
H4A H 0.9265 1.1554 0.9871
H4A_2 H 0.9265 0.1554 -0.0129
C9A C 0.926(2) 0.304(2) 0.8293(18)
H5A H 0.9133 0.3034 0.7616
H6A H 0.8523 0.2946 0.8357
C10A C 0.991(2) 0.4108(18) 0.9131(19)
H7A H 1.0551 0.4261 0.8952
C11A C 0.905(2) 0.485(3) 0.899(3)
H8A H 0.8800 0.4785 0.8277
C12A C 0.800(2) 0.469(3) 0.929(3)
H9A H 0.7568 0.4051 0.8831
H10A H 0.8255 0.4715 0.9984
O6A O 0.9901(6) 0.2114(6) 0.8359(5)
O6A_2 O 0.9901(6) 0.2114(6) -0.1641(5)
O7A O 1.0430(6) 0.3934(6) 1.0220(5)
O7A_2 O 1.0430(6) 0.3934(6) 0.0220(5)
O8A O 0.7126(15) 0.5640(13) 0.9222(14)
O8_2 O 1.2874(15) 0.4360(13) 0.0778(14)
O13A O 1.2378(7) 0.2939(6) -0.1351(5)
O14A O 1.3953(6) 0.2105(7) 0.0231(6)
K1 K 1.0000 1.0000 0.5000
K2 K 0.5470(4) 0.5621(4) 0.6077(3)
O4 O 0.1948(7) 0.7725(6) 0.9499(6)
O5 O 0.3587(6) 0.9454(6) 1.0042(5)
O12 O 0.459(2) 0.685(3) 0.050(2)
O15 O 0.6019(14) 0.5570(15) 1.1416(16)
Re1 Re 1.53742(2) 1.14725(2) 0.57855(2)
Re2 Re 1.66193(2) 0.98344(2) 0.56476(2)
Re3 Re 1.54005(2) 1.01298(2) 0.38462(2)
Se1 Se 1.65266(7) 1.11280(6) 0.74810(6)
Se2 Se 1.34220(6) 1.14448(6) 0.62356(6)
Se3 Se 1.72903(6) 1.13726(6) 0.52602(6)
Se4 Se 1.41918(7) 1.16915(6) 0.40254(6)
C1 C 1.5783(7) 1.3128(7) 0.6677(7)
C2 C 1.8477(7) 0.9713(6) 0.6406(6)
C3 C 1.5856(7) 1.0266(7) 0.2537(6)
N1 N 1.6031(9) 1.4037(7) 0.7211(8)
N2 N 1.9495(5) 0.9725(6) 0.6825(5)
N3 N 1.6078(7) 1.0288(7) 0.1794(6)
Re1A Re 1.46258(2) 0.85275(2) 0.42145(2)
Re2A Re 1.33807(2) 1.01656(2) 0.43524(2)
Re3A Re 1.45995(2) 0.98702(2) 0.61538(2)
Se1A Se 1.34734(7) 0.88720(6) 0.25190(6)
Se2A Se 1.65780(6) 0.85552(6) 0.37644(6)
Se3A Se 1.27097(6) 0.86274(6) 0.47398(6)
Se4A Se 1.58082(7) 0.83085(6) 0.59746(6)
C1A C 1.4217(7) 0.6872(7) 0.3323(7)
C2A C 1.1523(7) 1.0287(6) 0.3594(6)
C3A C 1.4144(7) 0.9734(7) 0.7463(6)
N1A N 1.3969(9) 0.5963(7) 0.2789(8)
N2A N 1.0505(5) 1.0275(6) 0.3175(5)
N3A N 1.3922(7) 0.9712(7) 0.8206(6)
O9? O 1.3464(15) 0.3988(13) 1.1016(13)
O10? O 1.1139(12) 0.5952(10) 1.1864(10)
O11? O 1.230(2) 0.6263(16) 1.0352(16)
loop_
_geom_bond_atom_site_label_1
_geom_bond_atom_site_label_2
_geom_bond_site_symmetry_1
_geom_bond_site_symmetry_2
Re1 Re2 1_555 1_555
Re2 Re3 1_555 1_555
Re3 Re1 1_555 1_555
Se1 Re1 1_555 1_555
Se2 Re1 1_555 1_555
Se3 Re1 1_555 1_555
Se4 Re1 1_555 1_555
C1 Re1 1_555 1_555
C2 Re2 1_555 1_555
C3 Re3 1_555 1_555
N1 C1 1_555 1_555
N2 C2 1_555 1_555
N3 C3 1_555 1_555
Re4 Re5 1_555 1_555
Re5 Re6 1_555 1_555
Re6 Re4 1_555 1_555
Se5 Re4 1_555 1_555
Se6 Re4 1_555 1_555
Se7 Re4 1_555 1_555
Se8 Re4 1_555 1_555
C4 Re4 1_555 1_555
C5 Re5 1_555 1_555
C6 Re6 1_555 1_555
N4 C4 1_555 1_555
N5 C5 1_555 1_555
N6 C6 1_555 1_555
Nd1 N6 1_555 1_555
O1 Nd1 1_555 1_555
C7 H1 1_555 1_555
H2 C7 1_555 1_555
C8 C7 1_555 1_555
H3 C8 1_555 1_555
O2 Nd1 1_555 1_555
O3 Nd1 1_555 1_555
H4 O3 1_555 1_555
C9 H5 1_555 1_555
H6 C9 1_555 1_555
C10 C9 1_555 1_555
H7 C10 1_555 1_555
C11 C10 1_555 1_555
H8 C11 1_555 1_555
C12 C11 1_555 1_555
H9 C12 1_555 1_555
H10 C12 1_555 1_555
O6 Nd1 1_555 1_555
O7 Nd1 1_555 1_555
O8 C12 1_555 1_555
O13 Nd1 1_555 1_555
O14 Nd1 1_555 1_555
Re1A Re2 1_555 1_555
Re2A Re1 1_555 1_555
Re3A Re1 1_555 1_555
Se1A Re3 1_555 1_555
Se2A Re2 1_555 1_555
Se3A Re1A 1_555 1_555
Se4A Re2 1_555 1_555
C1A Re1A 1_555 1_555
C2A Re2A 1_555 1_555
C3A Re3A 1_555 1_555
N1A C1A 1_555 1_555
N2A C2A 1_555 1_555
N3A C3A 1_555 1_555
Re4A Re5 1_555 1_555
Re5A Re4 1_555 1_555
Re6A Re4 1_555 1_555
Se5A Re4A 1_555 1_555
Se6A Re6 1_555 1_555
Se7A Re5 1_555 1_555
Se8A Re5 1_555 1_555
C4A Re4A 1_555 1_555
C5A Re5A 1_555 1_555
C6A Re6A 1_555 1_555
N4A C4A 1_555 1_555
N5A C5A 1_555 1_555
N6A C6A 1_555 1_555
Nd1A N6A 1_555 1_555
Nd1A_2 O8 1_555 1_555
Nd1A_3 O2A 1_555 1_555
O1A Nd1A 1_555 1_555
C7A H1A 1_555 1_555
H2A C7A 1_555 1_555
C8A C8 1_555 1_555
H3A C8A 1_555 1_555
O2A C7A 1_555 1_555
O2A_2 Nd1A 1_555 1_555
O3A Nd1A_3 1_555 1_555
O3A_2 Nd1A 1_555 1_555
H4A O3A 1_555 1_555
H4A_2 O3A_2 1_555 1_555
C9A H5A 1_555 1_555
H6A C9A 1_555 1_555
C10A C9A 1_555 1_555
H7A C10A 1_555 1_555
C11A O7 1_555 1_555
H8A C11A 1_555 1_555
C12A C11A 1_555 1_555
H9A C12A 1_555 1_555
H10A C12A 1_555 1_555
O6A Nd1A_2 1_555 1_555
O6A_2 Nd1A 1_555 1_555
O7A C11 1_555 1_555
O7A_2 Nd1A 1_555 1_555
O8A Nd1 1_555 1_555
O8_2 Nd1A 1_555 1_555
O13A Nd1A 1_555 1_555
O14A Nd1A 1_555 1_555
Re2 Se1 1_555 1_555
Re2 Se3 1_555 1_555
Re2 Re3A 1_555 1_555
Re3 Se3 1_555 1_555
Re3 Se4 1_555 1_555
Re3 Re1A 1_555 1_555
Re3 Re2A 1_555 1_555
Re3 Se2A 1_555 1_555
Se1 Re3A 1_555 1_555
Se2 Re2A 1_555 1_555
Se2 Re3A 1_555 1_555
Se4 Re2A 1_555 1_555
Re5 Se5 1_555 1_555
Re5 Se6 1_555 1_555
Re5 Re6A 1_555 1_555
Re6 Se5 1_555 1_555
Re6 Se8 1_555 1_555
Re6 Re4A 1_555 1_555
Re6 Re5A 1_555 1_555
Re6 Se7A 1_555 1_555
Se6 Re6A 1_555 1_555
Se7 Re5A 1_555 1_555
Se7 Re6A 1_555 1_555
Se8 Re5A 1_555 1_555
C7 O2 1_555 1_555
C8 O3 1_555 1_555
C9 O6 1_555 1_555
C10 O7 1_555 1_555
Re1A Re2A 1_555 1_555
Re1A Re3A 1_555 1_555
Re1A Se1A 1_555 1_555
Re1A Se2A 1_555 1_555
Re1A Se4A 1_555 1_555
Re2A Re3A 1_555 1_555
Re2A Se1A 1_555 1_555
Re2A Se3A 1_555 1_555
Re3A Se3A 1_555 1_555
Re3A Se4A 1_555 1_555
Re4A Re5A 1_555 1_555
Re4A Re6A 1_555 1_555
Re4A Se6A 1_555 1_555
Re4A Se7A 1_555 1_555
Re4A Se8A 1_555 1_555
Re5A Re6A 1_555 1_555
Re5A Se5A 1_555 1_555
Re5A Se6A 1_555 1_555
Re6A Se5A 1_555 1_555
Re6A Se8A 1_555 1_555
Nd1A_2 O7A 1_555 1_555
C7A C8A 1_555 1_555
C8A O3A 1_555 1_555
C9A O6A 1_555 1_555
C10A C11A 1_555 1_555
C10A O7A 1_555 1_555
C12A O8A 1_555 1_555

#END
