
#######################################################################
#
#                 Cambridge Crystallographic Data Centre
#                                CCDC 
#
#######################################################################
#
# If this CIF has been generated from an entry in the Cambridge 
# Structural Database, then it will include bibliographic, chemical, 
# crystal, experimental, refinement or atomic coordinate data resulting 
# from the CCDC's data processing and validation procedures.
#
#######################################################################

data_RAGYAZ
_symmetry_cell_setting           triclinic
_symmetry_space_group_name_H-M   'P -1'
_symmetry_Int_Tables_number      2
_space_group_name_Hall           '-P 1'
loop_
_symmetry_equiv_pos_site_id
_symmetry_equiv_pos_as_xyz
1 x,y,z
2 -x,-y,-z
_cell_length_a                   10.1808(4)
_cell_length_b                   11.8098(5)
_cell_length_c                   13.2504(5)
_cell_angle_alpha                97.1410(10)
_cell_angle_beta                 106.9780(10)
_cell_angle_gamma                110.7230(10)
_cell_volume                     1378.21
loop_
_atom_site_label
_atom_site_type_symbol
_atom_site_fract_x
_atom_site_fract_y
_atom_site_fract_z
O1 O 0.6165(6) 0.1145(6) 0.4714(5)
O2 O 0.4310(6) 0.1457(5) 0.5715(4)
O3 O 0.2032(6) -0.0175(5) 0.4300(4)
O4 O 0.3482(6) -0.0486(5) 0.3161(4)
O5 O 0.4182(7) 0.2115(5) 0.3710(5)
O6 O 0.5335(7) 0.3250(5) 0.7713(5)
O7 O 0.7495(6) 0.2800(5) 0.7080(5)
O8 O 0.6734(7) 0.2015(6) 0.8835(5)
O9 O 0.3955(6) 0.0612(5) 0.7281(4)
O10 O 0.0232(7) -0.1898(5) 0.2107(5)
O11 O 0.0526(6) -0.2813(5) 0.3904(5)
O12 O 0.1497(7) 0.1072(5) 0.6050(5)
O13 O 0.1336(6) -0.1285(5) 0.6036(4)
O14 O 0.3612(6) -0.1645(5) 0.7707(5)
C1 C 0.2303(11) -0.4733(8) 0.7523(7)
H1 H 0.2528(11) -0.4671(8) 0.6895(7)
C2 C 0.2722(11) -0.5510(9) 0.8108(8)
H2 H 0.3181(11) -0.5975(9) 0.7851(8)
C3 C 0.2479(9) -0.5613(7) 0.9058(7)
C4 C 0.1703(12) -0.4942(10) 0.9344(8)
H3 H 0.1474(12) -0.4989(10) 0.9972(8)
C5 C 0.1272(11) -0.4210(9) 0.8702(8)
H4 H 0.0728(11) -0.3794(9) 0.8904(8)
C6 C 0.3020(9) -0.6381(8) 0.9739(7)
C7 C 0.3207(12) -0.6191(10) 1.0845(8)
H5 H 0.2906(12) -0.5629(10) 1.1164(8)
C8 C 0.3848(13) -0.6856(10) 1.1449(9)
H6 H 0.3986(13) -0.6704(10) 1.2186(9)
C9 C 0.4024(13) -0.7895(11) 1.0003(10)
H7 H 0.4285(13) -0.8498(11) 0.9699(10)
C10 C 0.3403(11) -0.7289(10) 0.9321(9)
H8 H 0.3242(11) -0.7491(10) 0.8582(9)
C11 C 0.1690(10) -0.1307(9) 0.9123(7)
H9 H 0.2510(10) -0.1514(9) 0.9357(7)
C12 C 0.1388(10) -0.0679(9) 0.9880(7)
H10 H 0.1999(10) -0.0469(9) 1.0611(7)
C13 C 0.0195(10) -0.0340(8) 0.9597(7)
C14 C -0.0640(10) -0.0661(8) 0.8484(7)
H11 H -0.1441(10) -0.0433(8) 0.8239(7)
C15 C -0.0287(10) -0.1313(9) 0.7746(7)
H12 H -0.0872(10) -0.1530(9) 0.7009(7)
C16 C -0.1810(9) -0.4603(8) 0.6417(7)
H13 H -0.1308(9) -0.4875(8) 0.6974(7)
C17 C -0.3382(10) -0.5132(8) 0.6026(8)
H14 H -0.3901(10) -0.5740(8) 0.6319(8)
C18 C -0.4156(9) -0.4746(8) 0.5204(7)
C19 C -0.3308(9) -0.3894(8) 0.4765(7)
H15 H -0.3789(9) -0.3656(8) 0.4171(7)
C20 C -0.1761(9) -0.3398(7) 0.5201(7)
H16 H -0.1221(9) -0.2805(7) 0.4907(7)
Mo1 Mo 0.42863(8) 0.09534(6) 0.43038(6)
Mo2 Mo 0.58371(8) 0.20309(6) 0.75497(6)
Mo3 Mo 0.15172(8) -0.18210(7) 0.32912(6)
Mo4 Mo 0.23935(8) 0.01574(6) 0.58844(6)
Ni1 Ni 0.13169(11) -0.27112(9) 0.69217(8)
O15 O 0.1854(7) -0.3501(5) 0.5684(5)
N1 N 0.1594(8) -0.4064(6) 0.7801(6)
N2 N 0.4281(9) -0.7686(8) 1.1068(7)
N3 N 0.0883(8) -0.1652(7) 0.8053(6)
N4 N -0.0988(7) -0.3734(6) 0.6041(5)
O4A O 0.6518(6) 0.0486(5) 0.6839(4)
Mo1A Mo 0.57137(8) -0.09534(6) 0.56962(6)
O1A O 0.3835(6) -0.1145(6) 0.5286(5)
O2A O 0.5690(6) -0.1457(5) 0.4285(4)
Mo2A Mo 0.41629(8) -0.20309(6) 0.24503(6)
O7A O 0.2505(6) -0.2800(5) 0.2920(5)
O6A O 0.4665(7) -0.3250(5) 0.2287(5)
O8A O 0.3266(7) -0.2015(6) 0.1165(5)
O9A O 0.6045(6) -0.0612(5) 0.2719(4)
Mo4A Mo 0.76065(8) -0.01574(6) 0.41156(6)
O3A O 0.7968(6) 0.0175(5) 0.5700(4)
O5A O 0.5818(7) -0.2115(5) 0.6290(5)
Mo3A Mo 0.84828(8) 0.18210(7) 0.67088(6)
C13A C -0.0195(10) 0.0340(8) 1.0403(7)
C12A C -0.1388(10) 0.0679(9) 1.0120(7)
C11A C -0.1690(10) 0.1307(9) 1.0877(7)
H9A H -0.2510(10) 0.1514(9) 1.0643(7)
N3A N -0.0883(8) 0.1652(7) 1.1947(6)
C15A C 0.0287(10) 0.1313(9) 1.2254(7)
C14A C 0.0640(10) 0.0661(8) 1.1516(7)
H11A H 0.1441(10) 0.0433(8) 1.1761(7)
H12A H 0.0872(10) 0.1530(9) 1.2991(7)
Ni1A Ni -0.13169(11) 0.27112(9) 1.30783(8)
O13A O -0.1336(6) 0.1285(5) 1.3964(4)
O14A O -0.3612(6) 0.1645(5) 1.2293(5)
O15A O -0.1854(7) 0.3501(5) 1.4316(5)
N1A N -0.1594(8) 0.4064(6) 1.2199(6)
C1A C -0.2303(11) 0.4733(8) 1.2477(7)
H1A H -0.2528(11) 0.4671(8) 1.3105(7)
C2A C -0.2722(11) 0.5510(9) 1.1892(8)
H2A H -0.3181(11) 0.5975(9) 1.2149(8)
C3A C -0.2479(9) 0.5613(7) 1.0942(7)
C4A C -0.1703(12) 0.4942(10) 1.0656(8)
H3A H -0.1474(12) 0.4989(10) 1.0028(8)
C5A C -0.1272(11) 0.4210(9) 1.1298(8)
H4A H -0.0728(11) 0.3794(9) 1.1096(8)
C6A C -0.3020(9) 0.6381(8) 1.0261(7)
C7A C -0.3207(12) 0.6191(10) 0.9155(8)
H5A H -0.2906(12) 0.5629(10) 0.8836(8)
C8A C -0.3848(13) 0.6856(10) 0.8551(9)
H6A H -0.3986(13) 0.6704(10) 0.7814(9)
N2A N -0.4281(9) 0.7686(8) 0.8932(7)
C9A C -0.4024(13) 0.7895(11) 0.9997(10)
H7A H -0.4285(13) 0.8498(11) 1.0301(10)
C10A C -0.3403(11) 0.7289(10) 1.0679(9)
H8A H -0.3242(11) 0.7491(10) 1.1418(9)
N4A N 0.0988(7) 0.3734(6) 1.3959(5)
H10A H -0.1999(10) 0.0469(9) 0.9389(7)
O10A O 0.9768(7) 0.1898(5) 0.7893(5)
O11A O 0.9474(6) 0.2813(5) 0.6096(5)
O12A O 0.8503(7) -0.1072(5) 0.3950(5)
O13A_2 O 0.8664(6) 0.1285(5) 0.3964(4)
Ni1A_2 Ni 0.86831(11) 0.27112(9) 0.30783(8)
C18A C -0.5844(9) -0.5254(8) 0.4796(7)
C17A C -0.6618(10) -0.4868(8) 0.3974(8)
C16A C -0.8190(9) -0.5397(8) 0.3583(7)
H13A H -0.8692(9) -0.5125(8) 0.3026(7)
N4A_2 N -0.9012(7) -0.6266(6) 0.3959(5)
C20A C -0.8239(9) -0.6602(7) 0.4799(7)
C19A C -0.6692(9) -0.6106(8) 0.5235(7)
H15A H -0.6211(9) -0.6344(8) 0.5829(7)
H16A H -0.8779(9) -0.7195(7) 0.5093(7)
Ni1A_3 Ni -1.13169(11) -0.72888(9) 0.30783(8)
H14A H -0.6099(10) -0.4260(8) 0.3681(8)
loop_
_geom_bond_atom_site_label_1
_geom_bond_atom_site_label_2
_geom_bond_site_symmetry_1
_geom_bond_site_symmetry_2
O1 Mo1 1_555 1_555
O2 Mo1 1_555 1_555
O3 Mo1 1_555 1_555
O4 Mo1 1_555 1_555
O5 Mo1 1_555 1_555
O6 Mo2 1_555 1_555
O7 Mo2 1_555 1_555
O8 Mo2 1_555 1_555
O9 Mo2 1_555 1_555
O10 Mo3 1_555 1_555
O11 Mo3 1_555 1_555
O12 Mo4 1_555 1_555
O13 Mo4 1_555 1_555
O14 Ni1 1_555 1_555
C1 H1 1_555 1_555
C2 C1 1_555 1_555
H2 C2 1_555 1_555
C3 C2 1_555 1_555
C4 C3 1_555 1_555
H3 C4 1_555 1_555
C5 C4 1_555 1_555
H4 C5 1_555 1_555
C6 C3 1_555 1_555
C7 C6 1_555 1_555
H5 C7 1_555 1_555
C8 C7 1_555 1_555
H6 C8 1_555 1_555
C9 H7 1_555 1_555
C10 C6 1_555 1_555
H8 C10 1_555 1_555
C11 H9 1_555 1_555
C12 C11 1_555 1_555
H10 C12 1_555 1_555
C13 C12 1_555 1_555
C14 C13 1_555 1_555
H11 C14 1_555 1_555
C15 C14 1_555 1_555
H12 C15 1_555 1_555
C16 H13 1_555 1_555
C17 C16 1_555 1_555
H14 C17 1_555 1_555
C18 C17 1_555 1_555
C19 C18 1_555 1_555
H15 C19 1_555 1_555
C20 C19 1_555 1_555
H16 C20 1_555 1_555
Mo2 O2 1_555 1_555
Mo3 O3 1_555 1_555
Mo4 O2 1_555 1_555
Ni1 O13 1_555 1_555
O15 Ni1 1_555 1_555
N1 C1 1_555 1_555
N2 C8 1_555 1_555
N3 C11 1_555 1_555
N4 C16 1_555 1_555
O4A Mo2 1_555 1_555
Mo1A O4A 1_555 1_555
O1A Mo1A 1_555 1_555
O2A Mo1A 1_555 1_555
Mo2A O4 1_555 1_555
O7A Mo3 1_555 1_555
O6A Mo2A 1_555 1_555
O8A Mo2A 1_555 1_555
O9A Mo2A 1_555 1_555
Mo4A O2A 1_555 1_555
O3A Mo1A 1_555 1_555
O5A Mo1A 1_555 1_555
Mo3A O7 1_555 1_555
C13A C13 1_555 1_555
C12A C13A 1_555 1_555
C11A C12A 1_555 1_555
H9A C11A 1_555 1_555
N3A C11A 1_555 1_555
C15A N3A 1_555 1_555
C14A C13A 1_555 1_555
H11A C14A 1_555 1_555
H12A C15A 1_555 1_555
Ni1A N3A 1_555 1_555
O13A Ni1A 1_555 1_555
O14A Ni1A 1_555 1_555
O15A Ni1A 1_555 1_555
N1A Ni1A 1_555 1_555
C1A N1A 1_555 1_555
H1A C1A 1_555 1_555
C2A C1A 1_555 1_555
H2A C2A 1_555 1_555
C3A C2A 1_555 1_555
C4A C3A 1_555 1_555
H3A C4A 1_555 1_555
C5A N1A 1_555 1_555
H4A C5A 1_555 1_555
C6A C3A 1_555 1_555
C7A C6A 1_555 1_555
H5A C7A 1_555 1_555
C8A C7A 1_555 1_555
H6A C8A 1_555 1_555
N2A C8A 1_555 1_555
C9A N2A 1_555 1_555
H7A C9A 1_555 1_555
C10A C6A 1_555 1_555
H8A C10A 1_555 1_555
N4A Ni1A 1_555 1_555
H10A C12A 1_555 1_555
O10A Mo3A 1_555 1_555
O11A Mo3A 1_555 1_555
O12A Mo4A 1_555 1_555
O13A_2 Mo4A 1_555 1_555
Ni1A_2 O13A_2 1_555 1_555
C18A C18 1_555 1_555
C17A C18A 1_555 1_555
C16A C17A 1_555 1_555
H13A C16A 1_555 1_555
N4A_2 C16A 1_555 1_555
C20A N4A_2 1_555 1_555
C19A C18A 1_555 1_555
H15A C19A 1_555 1_555
H16A C20A 1_555 1_555
Ni1A_3 N4A_2 1_555 1_555
H14A C17A 1_555 1_555
O3 Mo4 1_555 1_555
O4 Mo3 1_555 1_555
O9 Mo4 1_555 1_555
C5 N1 1_555 1_555
C9 N2 1_555 1_555
C9 C10 1_555 1_555
C15 N3 1_555 1_555
C20 N4 1_555 1_555
Ni1 N1 1_555 1_555
Ni1 N3 1_555 1_555
Ni1 N4 1_555 1_555
O4A Mo3A 1_555 1_555
O2A Mo2A 1_555 1_555
Mo2A O7A 1_555 1_555
O9A Mo4A 1_555 1_555
Mo4A O3A 1_555 1_555
O3A Mo3A 1_555 1_555
C15A C14A 1_555 1_555
C4A C5A 1_555 1_555
C9A C10A 1_555 1_555
C20A C19A 1_555 1_555

#END
