
#######################################################################
#
#                 Cambridge Crystallographic Data Centre
#                                CCDC 
#
#######################################################################
#
# If this CIF has been generated from an entry in the Cambridge 
# Structural Database, then it will include bibliographic, chemical, 
# crystal, experimental, refinement or atomic coordinate data resulting 
# from the CCDC's data processing and validation procedures.
#
#######################################################################

data_RAGZUW
_symmetry_cell_setting           monoclinic
_symmetry_space_group_name_H-M   'C 2/c'
_symmetry_Int_Tables_number      15
_space_group_name_Hall           '-C 2yn'
loop_
_symmetry_equiv_pos_site_id
_symmetry_equiv_pos_as_xyz
1 x,y,z
2 -x,y,1/2-z
3 1/2+x,1/2+y,z
4 1/2-x,1/2+y,1/2-z
5 -x,-y,-z
6 x,-y,1/2+z
7 1/2-x,1/2-y,-z
8 1/2+x,1/2-y,1/2+z
_cell_length_a                   13.1217(19)
_cell_length_b                   12.2098(19)
_cell_length_c                   10.8475(15)
_cell_angle_alpha                90
_cell_angle_beta                 91.402(5)
_cell_angle_gamma                90
_cell_volume                     1737.39
loop_
_atom_site_label
_atom_site_type_symbol
_atom_site_fract_x
_atom_site_fract_y
_atom_site_fract_z
Cd1 Cd 0.5000 0.20346(3) 0.2500
Cd2 Cd 0.5000 0.0000 0.5000
Cl1 Cl 0.58494(7) 0.18619(7) 0.46598(8)
Cl2 Cl 0.5000 -0.02503(10) 0.2500
Cl3 Cl 0.5000 0.40929(12) 0.2500
N1 N 0.3473(2) 0.1696(3) 0.3591(3)
N2 N 0.1900(2) 0.1361(3) 0.4011(3)
C1 C 0.2530(3) 0.1975(3) 0.3324(3)
N3 N 0.3445(2) 0.0879(2) 0.4485(3)
C2 C 0.2489(3) 0.0681(3) 0.4721(4)
C3 C 0.2187(4) 0.2815(5) 0.2420(4)
H1 H 0.2770 0.3140 0.2046
H2 H 0.1807 0.3371 0.2834
H3 H 0.1761 0.2479 0.1795
N4 N 0.0830(3) 0.1416(4) 0.3948(5)
H4 H 0.0532 0.1864 0.3445
H5 H 0.0473 0.1001 0.4412
C4 C 0.2075(4) -0.0129(4) 0.5579(5)
H6 H 0.2626 -0.0519 0.5979
H7 H 0.1647 -0.0637 0.5131
H8 H 0.1682 0.0239 0.6188
Cd2A Cd 0.5000 0.0000 0.0000
Cl1A Cl 0.41506(7) 0.18619(7) 0.03402(8)
Cl1D Cl 0.41506(7) -0.18619(7) 0.53402(8)
Cl2D Cl 0.5000 0.02503(10) 0.7500
N1A N 0.6527(2) 0.1696(3) 0.1409(3)
N2A N 0.8100(2) 0.1361(3) 0.0989(3)
C1A C 0.7470(3) 0.1975(3) 0.1676(3)
N3A N 0.6555(2) 0.0879(2) 0.0515(3)
N3D N 0.6555(2) -0.0879(2) 0.5515(3)
C2A C 0.7511(3) 0.0681(3) 0.0279(4)
C3A C 0.7813(4) 0.2815(5) 0.2580(4)
H1A H 0.7230 0.3140 0.2954
H2A H 0.8193 0.3371 0.2166
H3A H 0.8239 0.2479 0.3205
N4A N 0.9170(3) 0.1416(4) 0.1052(5)
H4A H 0.9468 0.1864 0.1555
H5A H 0.9527 0.1001 0.0588
C4A C 0.7925(4) -0.0129(4) -0.0579(5)
H6A H 0.7374 -0.0519 -0.0979
H7A H 0.8353 -0.0637 -0.0131
H8A H 0.8318 0.0239 -0.1188
loop_
_geom_bond_atom_site_label_1
_geom_bond_atom_site_label_2
_geom_bond_site_symmetry_1
_geom_bond_site_symmetry_2
Cd1 Cl1 1_555 1_555
Cd2 Cl1 1_555 1_555
Cl2 Cd1 1_555 1_555
Cl3 Cd1 1_555 1_555
N1 Cd1 1_555 1_555
N2 C1 1_555 1_555
C1 N1 1_555 1_555
N3 Cd2 1_555 1_555
C2 N2 1_555 1_555
C3 C1 1_555 1_555
H1 C3 1_555 1_555
H2 C3 1_555 1_555
H3 C3 1_555 1_555
N4 N2 1_555 1_555
H4 N4 1_555 1_555
H5 N4 1_555 1_555
C4 C2 1_555 1_555
H6 C4 1_555 1_555
H7 C4 1_555 1_555
H8 C4 1_555 1_555
Cd2A Cl2 1_555 1_555
Cl1A Cd1 1_555 1_555
Cl1D Cd2 1_555 1_555
Cl2D Cd2 1_555 1_555
N1A Cd1 1_555 1_555
N2A C1A 1_555 1_555
C1A N1A 1_555 1_555
N3A Cd2A 1_555 1_555
N3D Cd2 1_555 1_555
C2A N2A 1_555 1_555
C3A C1A 1_555 1_555
H1A C3A 1_555 1_555
H2A C3A 1_555 1_555
H3A C3A 1_555 1_555
N4A N2A 1_555 1_555
H4A N4A 1_555 1_555
H5A N4A 1_555 1_555
C4A C2A 1_555 1_555
H6A C4A 1_555 1_555
H7A C4A 1_555 1_555
H8A C4A 1_555 1_555
Cd2 Cl2 1_555 1_555
N1 N3 1_555 1_555
N3 C2 1_555 1_555
Cd2A Cl1A 1_555 1_555
N1A N3A 1_555 1_555
N3A C2A 1_555 1_555

#END
