
#######################################################################
#
#                 Cambridge Crystallographic Data Centre
#                                CCDC 
#
#######################################################################
#
# If this CIF has been generated from an entry in the Cambridge 
# Structural Database, then it will include bibliographic, chemical, 
# crystal, experimental, refinement or atomic coordinate data resulting 
# from the CCDC's data processing and validation procedures.
#
#######################################################################

data_RAHFAI
_symmetry_cell_setting           monoclinic
_symmetry_space_group_name_H-M   'P 21/c'
_symmetry_Int_Tables_number      14
_space_group_name_Hall           '-P 2ybc'
loop_
_symmetry_equiv_pos_site_id
_symmetry_equiv_pos_as_xyz
1 x,y,z
2 x,1/2-y,1/2+z
3 -x,-y,-z
4 -x,1/2+y,1/2-z
_cell_length_a                   8.3629(4)
_cell_length_b                   17.6037(8)
_cell_length_c                   19.1867(8)
_cell_angle_alpha                90
_cell_angle_beta                 101.0000(10)
_cell_angle_gamma                90
_cell_volume                     2772.73
loop_
_atom_site_label
_atom_site_type_symbol
_atom_site_fract_x
_atom_site_fract_y
_atom_site_fract_z
Ag1 Ag 0.57415(4) 0.288605(14) 0.450177(14)
C1 C 0.3954(4) 0.35806(16) 0.59978(15)
H1 H 0.3617 0.3679 0.6451
C2 C 0.3840(4) 0.52806(16) 0.64699(16)
H2 H 0.3875 0.4843 0.6788
C3 C 0.3441(4) 0.42638(16) 0.55222(16)
H3 H 0.2278 0.4340 0.5479
H4 H 0.3651 0.4156 0.5052
C4 C 0.4324(4) 0.49986(16) 0.57964(16)
H5 H 0.5490 0.4910 0.5885
H6 H 0.4079 0.5388 0.5434
C5 C 0.6235(4) 0.09087(16) 0.49123(15)
H7 H 0.5296 0.1252 0.4859
C6 C 0.5595(4) 0.01107(16) 0.47636(17)
H8 H 0.6502 -0.0242 0.4839
H9 H 0.5055 0.0073 0.4270
C7 C 0.6700(4) 0.34963(19) 0.67874(17)
H10 H 0.6381 0.3501 0.7226
C8 C 0.8251(5) 0.3506(2) 0.6676(2)
H11 H 0.9207 0.3517 0.7016
C9 C 0.8101(4) 0.3496(2) 0.5946(2)
H12 H 0.8982 0.3494 0.5714
C10 C 0.1878(4) 0.25533(18) 0.59296(17)
H13 H 0.1490 0.2671 0.6340
C11 C 0.1306(4) 0.20011(18) 0.54526(19)
H14 H 0.0456 0.1665 0.5469
C12 C 0.2252(4) 0.20430(17) 0.49368(18)
H15 H 0.2137 0.1725 0.4543
C13 C 0.0933(5) 0.5269(2) 0.65868(19)
H16 H 0.0970 0.4860 0.6897
C14 C -0.0396(5) 0.5680(3) 0.6301(2)
H17 H -0.1455 0.5616 0.6374
C15 C 0.0158(5) 0.6218(2) 0.5876(2)
H18 H -0.0498 0.6586 0.5616
C16 C 0.5794(6) 0.5777(2) 0.7507(2)
H19 H 0.5671 0.5397 0.7829
C17 C 0.6828(7) 0.6379(3) 0.7627(3)
H20 H 0.7549 0.6494 0.8046
C18 C 0.6587(5) 0.6782(2) 0.7002(2)
H21 H 0.7127 0.7230 0.6935
C19 C 0.8351(4) 0.07507(19) 0.41428(17)
H22 H 0.8632 0.0245 0.4237
C20 C 0.8988(4) 0.12214(19) 0.37048(18)
H23 H 0.9777 0.1107 0.3439
C21 C 0.8208(4) 0.19057(19) 0.37415(18)
H24 H 0.8403 0.2339 0.3493
C22 C 0.6870(6) 0.1467(2) 0.6139(2)
H25 H 0.6067 0.1839 0.6093
C23 C 0.8006(7) 0.1308(3) 0.6730(2)
H26 H 0.8149 0.1552 0.7167
C24 C 0.8894(6) 0.0713(3) 0.6543(2)
H27 H 0.9749 0.0481 0.6850
N1 N 0.6567(3) 0.34905(15) 0.56153(14)
N2 N 0.5707(3) 0.34782(13) 0.61483(13)
N3 N 0.3346(3) 0.25964(14) 0.50756(13)
N4 N 0.3107(3) 0.28958(12) 0.56966(13)
N5 N 0.1717(4) 0.61447(16) 0.58855(17)
N6 N 0.2180(3) 0.55631(14) 0.63364(13)
N7 N 0.5486(4) 0.64510(15) 0.65077(16)
N8 N 0.4984(3) 0.58372(14) 0.68331(13)
N9 N 0.7147(3) 0.18739(13) 0.41731(13)
N10 N 0.7240(3) 0.11487(13) 0.44148(13)
N11 N 0.8391(4) 0.05085(18) 0.58759(16)
N12 N 0.7141(3) 0.09804(14) 0.56401(14)
C6B C 0.4405(4) -0.01107(16) 0.52364(17)
C5B C 0.3765(4) -0.09087(16) 0.50877(15)
H7B H 0.4704 -0.1252 0.5141
N10B N 0.2760(3) -0.11487(13) 0.55852(13)
C19B C 0.1649(4) -0.07507(19) 0.58572(17)
H22B H 0.1368 -0.0245 0.5763
C20B C 0.1012(4) -0.12214(19) 0.62952(18)
H23B H 0.0223 -0.1107 0.6561
C21B C 0.1792(4) -0.19057(19) 0.62585(18)
H24B H 0.1597 -0.2339 0.6507
N9B N 0.2853(3) -0.18739(13) 0.58269(13)
N12B N 0.2859(3) -0.09804(14) 0.43599(14)
C22B C 0.3130(6) -0.1467(2) 0.3861(2)
H25B H 0.3933 -0.1839 0.3907
C23B C 0.1994(7) -0.1308(3) 0.3270(2)
H26B H 0.1851 -0.1552 0.2833
C24B C 0.1106(6) -0.0713(3) 0.3457(2)
H27B H 0.0251 -0.0481 0.3150
N11B N 0.1609(4) -0.05085(18) 0.41241(16)
H8B H 0.3498 0.0242 0.5161
H9B H 0.4945 -0.0073 0.5730
C1B C 0.6046(4) 0.64194(16) 0.40022(15)
H1B H 0.6383 0.6321 0.3549
C2B C 0.6160(4) 0.47194(16) 0.35301(16)
H2B H 0.6125 0.5157 0.3212
C3B C 0.6559(4) 0.57362(16) 0.44778(16)
H3B H 0.7722 0.5660 0.4521
H4B H 0.6349 0.5844 0.4948
C4B C 0.5676(4) 0.50014(16) 0.42036(16)
H5B H 0.4510 0.5090 0.4115
H6B H 0.5921 0.4612 0.4566
C7B C 0.3300(4) 0.65037(19) 0.32126(17)
H10B H 0.3619 0.6499 0.2774
C8B C 0.1749(5) 0.6494(2) 0.3324(2)
H11B H 0.0793 0.6483 0.2984
C9B C 0.1899(4) 0.6504(2) 0.4054(2)
H12B H 0.1018 0.6506 0.4286
C10B C 0.8122(4) 0.74467(18) 0.40704(17)
H13B H 0.8510 0.7329 0.3660
C11B C 0.8694(4) 0.79989(18) 0.45474(19)
H14B H 0.9544 0.8335 0.4531
C12B C 0.7748(4) 0.79570(17) 0.50632(18)
H15B H 0.7863 0.8275 0.5457
C13B C 0.9067(5) 0.4731(2) 0.34132(19)
H16B H 0.9030 0.5140 0.3103
C14B C 1.0396(5) 0.4320(3) 0.3699(2)
H17B H 1.1455 0.4384 0.3626
C15B C 0.9842(5) 0.3782(2) 0.4124(2)
H18B H 1.0498 0.3414 0.4384
C16B C 0.4206(6) 0.4223(2) 0.2493(2)
H19B H 0.4329 0.4603 0.2171
C17B C 0.3172(7) 0.3621(3) 0.2373(3)
H20B H 0.2451 0.3506 0.1954
C18B C 0.3413(5) 0.3218(2) 0.2998(2)
H21B H 0.2873 0.2770 0.3065
N1B N 0.3433(3) 0.65095(15) 0.43847(14)
N2B N 0.4293(3) 0.65218(13) 0.38517(13)
N3B N 0.6654(3) 0.74036(14) 0.49244(13)
N4B N 0.6893(3) 0.71042(12) 0.43034(13)
N5B N 0.8283(4) 0.38553(16) 0.41145(17)
N6B N 0.7820(3) 0.44369(14) 0.36636(13)
N7B N 0.4514(4) 0.35490(15) 0.34923(16)
N8B N 0.5016(3) 0.41628(14) 0.31669(13)
Ag1B Ag 0.42585(4) 0.711395(14) 0.549823(14)
Ag1B_2 Ag 0.42585(4) -0.288605(14) 0.549823(14)
N9B_2 N 0.2853(3) 0.81261(13) 0.58269(13)
N13 N 0.3226(4) 0.11822(15) 0.29615(15)
O1 O 0.3126(4) 0.13601(19) 0.35645(14)
O2 O 0.2192(4) 0.13715(17) 0.24449(15)
O3 O 0.4442(4) 0.08329(18) 0.28649(16)
loop_
_geom_bond_atom_site_label_1
_geom_bond_atom_site_label_2
_geom_bond_site_symmetry_1
_geom_bond_site_symmetry_2
Ag1 N1 1_555 1_555
C1 H1 1_555 1_555
C2 H2 1_555 1_555
C3 C1 1_555 1_555
H3 C3 1_555 1_555
H4 C3 1_555 1_555
C4 C2 1_555 1_555
H5 C4 1_555 1_555
H6 C4 1_555 1_555
C5 H7 1_555 1_555
C6 C5 1_555 1_555
H8 C6 1_555 1_555
H9 C6 1_555 1_555
C7 H10 1_555 1_555
C8 C7 1_555 1_555
H11 C8 1_555 1_555
C9 C8 1_555 1_555
H12 C9 1_555 1_555
C10 H13 1_555 1_555
C11 C10 1_555 1_555
H14 C11 1_555 1_555
C12 C11 1_555 1_555
H15 C12 1_555 1_555
C13 H16 1_555 1_555
C14 C13 1_555 1_555
H17 C14 1_555 1_555
C15 C14 1_555 1_555
H18 C15 1_555 1_555
C16 H19 1_555 1_555
C17 C16 1_555 1_555
H20 C17 1_555 1_555
C18 C17 1_555 1_555
H21 C18 1_555 1_555
C19 H22 1_555 1_555
C20 C19 1_555 1_555
H23 C20 1_555 1_555
C21 C20 1_555 1_555
H24 C21 1_555 1_555
C22 H25 1_555 1_555
C23 C22 1_555 1_555
H26 C23 1_555 1_555
C24 C23 1_555 1_555
H27 C24 1_555 1_555
N1 C9 1_555 1_555
N2 C1 1_555 1_555
N3 Ag1 1_555 1_555
N4 C1 1_555 1_555
N5 C15 1_555 1_555
N6 C2 1_555 1_555
N7 C18 1_555 1_555
N8 C2 1_555 1_555
N9 Ag1 1_555 1_555
N10 C5 1_555 1_555
N11 C24 1_555 1_555
N12 C5 1_555 1_555
N13 O1 1_555 1_555
O2 N13 1_555 1_555
O3 N13 1_555 1_555
C6B C6 1_555 1_555
C5B C6B 1_555 1_555
H7B C5B 1_555 1_555
N10B C5B 1_555 1_555
C19B N10B 1_555 1_555
H22B C19B 1_555 1_555
C20B C19B 1_555 1_555
H23B C20B 1_555 1_555
C21B C20B 1_555 1_555
H24B C21B 1_555 1_555
N9B N10B 1_555 1_555
N12B C5B 1_555 1_555
C22B N12B 1_555 1_555
H25B C22B 1_555 1_555
C23B C22B 1_555 1_555
H26B C23B 1_555 1_555
C24B C23B 1_555 1_555
H27B C24B 1_555 1_555
N11B N12B 1_555 1_555
H8B C6B 1_555 1_555
H9B C6B 1_555 1_555
C1B H1B 1_555 1_555
C2B H2B 1_555 1_555
C3B C1B 1_555 1_555
H3B C3B 1_555 1_555
H4B C3B 1_555 1_555
C4B C2B 1_555 1_555
H5B C4B 1_555 1_555
H6B C4B 1_555 1_555
C7B H10B 1_555 1_555
C8B C7B 1_555 1_555
H11B C8B 1_555 1_555
C9B C8B 1_555 1_555
H12B C9B 1_555 1_555
C10B H13B 1_555 1_555
C11B C10B 1_555 1_555
H14B C11B 1_555 1_555
C12B C11B 1_555 1_555
H15B C12B 1_555 1_555
C13B H16B 1_555 1_555
C14B C13B 1_555 1_555
H17B C14B 1_555 1_555
C15B C14B 1_555 1_555
H18B C15B 1_555 1_555
C16B H19B 1_555 1_555
C17B C16B 1_555 1_555
H20B C17B 1_555 1_555
C18B C17B 1_555 1_555
H21B C18B 1_555 1_555
N1B C9B 1_555 1_555
N2B C1B 1_555 1_555
N3B C12B 1_555 1_555
N4B C1B 1_555 1_555
N5B C15B 1_555 1_555
N6B C2B 1_555 1_555
N7B Ag1 1_555 1_555
N8B C2B 1_555 1_555
Ag1B N7 1_555 1_555
Ag1B_2 N9B 1_555 1_555
N9B_2 Ag1B 1_555 1_555
C3 C4 1_555 1_555
C7 N2 1_555 1_555
C10 N4 1_555 1_555
C12 N3 1_555 1_555
C13 N6 1_555 1_555
C16 N8 1_555 1_555
C19 N10 1_555 1_555
C21 N9 1_555 1_555
C22 N12 1_555 1_555
N1 N2 1_555 1_555
N3 N4 1_555 1_555
N5 N6 1_555 1_555
N7 N8 1_555 1_555
N9 N10 1_555 1_555
N11 N12 1_555 1_555
C21B N9B 1_555 1_555
C24B N11B 1_555 1_555
C3B C4B 1_555 1_555
C7B N2B 1_555 1_555
C10B N4B 1_555 1_555
C13B N6B 1_555 1_555
C16B N8B 1_555 1_555
C18B N7B 1_555 1_555
N1B Ag1B 1_555 1_555
N1B N2B 1_555 1_555
N3B Ag1B 1_555 1_555
N3B N4B 1_555 1_555
N5B N6B 1_555 1_555
N7B N8B 1_555 1_555

#END
