
#######################################################################
#
#                 Cambridge Crystallographic Data Centre
#                                CCDC 
#
#######################################################################
#
# If this CIF has been generated from an entry in the Cambridge 
# Structural Database, then it will include bibliographic, chemical, 
# crystal, experimental, refinement or atomic coordinate data resulting 
# from the CCDC's data processing and validation procedures.
#
#######################################################################

data_RAHPUM
_symmetry_cell_setting           monoclinic
_symmetry_space_group_name_H-M   'P c'
_symmetry_Int_Tables_number      7
_space_group_name_Hall           'P -2yc'
loop_
_symmetry_equiv_pos_site_id
_symmetry_equiv_pos_as_xyz
1 x,y,z
2 x,-y,1/2+z
_cell_length_a                   15.9910(2)
_cell_length_b                   5.44800(10)
_cell_length_c                   11.2300(3)
_cell_angle_alpha                90.00
_cell_angle_beta                 95.8690(7)
_cell_angle_gamma                90.00
_cell_volume                     973.218
loop_
_atom_site_label
_atom_site_type_symbol
_atom_site_fract_x
_atom_site_fract_y
_atom_site_fract_z
Ag1 Ag 0.14597(3) 1.11681(7) 0.35498(3)
Ag2 Ag 0.14593(2) 0.59895(7) 0.55395(3)
S1 S 0.27466(9) 1.0706(3) 0.62186(12)
S2 S 0.01737(9) 1.0554(3) 0.60199(12)
O1 O 0.2643(3) 1.0267(10) 0.4929(4)
O2 O 0.2398(3) 0.8714(7) 0.6891(4)
O3 O 0.2444(3) 1.3108(8) 0.6557(4)
O4 O 0.0450(3) 1.3043(8) 0.6340(4)
O5 O 0.0547(3) 0.9621(8) 0.4981(4)
O6 O 0.0287(3) 0.8860(7) 0.7036(4)
O7 O 0.1475(3) 1.5720(7) 0.3382(4)
H1 H 0.1992 1.6383 0.3089
H2 H 0.0967 1.6409 0.2924
C1 C 0.3840(4) 1.0754(9) 0.6632(5)
C2 C 0.4180(4) 0.9076(10) 0.7437(6)
H3 H 0.3828 0.7913 0.7773
C3 C 0.5053(4) 0.9060(10) 0.7773(6)
H4 H 0.5287 0.7877 0.8333
C4 C 0.5566(4) 1.0711(11) 0.7308(6)
H5 H 0.6153 1.0683 0.7549
C5 C 0.5226(3) 1.2491(10) 0.6459(5)
C6 C 0.5767(4) 1.4214(10) 0.5964(6)
H6 H 0.6354 1.4172 0.6201
C7 C 0.5445(5) 1.5923(10) 0.5152(6)
H7 H 0.5809 1.7061 0.4823
C8 C 0.4564(5) 1.5995(10) 0.4799(6)
H8 H 0.4340 1.7179 0.4232
C9 C 0.4036(4) 1.4352(10) 0.5276(5)
H9 H 0.3449 1.4435 0.5045
C10 C 0.4354(3) 1.2534(10) 0.6109(4)
C11 C -0.0927(3) 1.0707(9) 0.5575(5)
C12 C -0.1438(4) 0.9040(9) 0.6082(5)
H10 H -0.1201 0.7903 0.6663
C13 C -0.2309(4) 0.9033(10) 0.5733(6)
H11 H -0.2659 0.7862 0.6067
C14 C -0.2649(4) 1.0672(11) 0.4931(6)
H12 H -0.3239 1.0647 0.4711
C15 C -0.2147(3) 1.2449(10) 0.4402(5)
C16 C -0.2513(4) 1.4200(10) 0.3576(6)
H13 H -0.3104 1.4194 0.3368
C17 C -0.2027(4) 1.5898(11) 0.3076(6)
H14 H -0.2280 1.7062 0.2521
C18 C -0.1155(4) 1.5922(10) 0.3384(6)
H15 H -0.0821 1.7117 0.3037
C19 C -0.0778(4) 1.4265(10) 0.4169(5)
H16 H -0.0186 1.4297 0.4359
C20 C -0.1270(3) 1.2480(10) 0.4709(4)
Ag2_2 Ag 0.14593(2) 1.59895(7) 0.55395(3)
O2A O 0.2398(3) 1.1286(7) 0.1891(4)
O6A O 0.0287(3) 1.1140(7) 0.2036(4)
O3_2 O 0.2444(3) 0.3108(8) 0.6557(4)
O4_2 O 0.0450(3) 0.3043(8) 0.6340(4)
O7_2 O 0.1475(3) 0.5720(7) 0.3382(4)
Ag1A Ag 0.14597(3) 0.88319(7) 0.85498(3)
H1_2 H 0.1992 0.6383 0.3089
H2_2 H 0.0967 0.6409 0.2924
loop_
_geom_bond_atom_site_label_1
_geom_bond_atom_site_label_2
_geom_bond_site_symmetry_1
_geom_bond_site_symmetry_2
Ag1 O1 1_555 1_555
Ag2 O2 1_555 1_555
S1 O1 1_555 1_555
S2 O4 1_555 1_555
O2 S1 1_555 1_555
O3 S1 1_555 1_555
O4 Ag2_2 1_555 1_555
O5 Ag1 1_555 1_555
O6 S2 1_555 1_555
O7 Ag1 1_555 1_555
H1 O7 1_555 1_555
H2 O7 1_555 1_555
C1 S1 1_555 1_555
C2 C1 1_555 1_555
H3 C2 1_555 1_555
C3 C2 1_555 1_555
H4 C3 1_555 1_555
C4 C3 1_555 1_555
H5 C4 1_555 1_555
C5 C4 1_555 1_555
C6 C5 1_555 1_555
H6 C6 1_555 1_555
C7 C6 1_555 1_555
H7 C7 1_555 1_555
C8 C7 1_555 1_555
H8 C8 1_555 1_555
C9 C8 1_555 1_555
H9 C9 1_555 1_555
C10 C1 1_555 1_555
C11 S2 1_555 1_555
C12 C11 1_555 1_555
H10 C12 1_555 1_555
C13 C12 1_555 1_555
H11 C13 1_555 1_555
C14 C13 1_555 1_555
H12 C14 1_555 1_555
C15 C14 1_555 1_555
C16 C15 1_555 1_555
H13 C16 1_555 1_555
C17 C16 1_555 1_555
H14 C17 1_555 1_555
C18 C17 1_555 1_555
H15 C18 1_555 1_555
C19 C18 1_555 1_555
H16 C19 1_555 1_555
C20 C11 1_555 1_555
Ag2_2 O3 1_555 1_555
O2A Ag1 1_555 1_555
O6A Ag1 1_555 1_555
O3_2 Ag2 1_555 1_555
O4_2 Ag2 1_555 1_555
O7_2 Ag2 1_555 1_555
Ag1A O2 1_555 1_555
H1_2 O7_2 1_555 1_555
H2_2 O7_2 1_555 1_555
Ag2 O5 1_555 1_555
S2 O5 1_555 1_555
O6 Ag1A 1_555 1_555
O7 Ag2_2 1_555 1_555
C5 C10 1_555 1_555
C9 C10 1_555 1_555
C15 C20 1_555 1_555
C19 C20 1_555 1_555

#END
