
#######################################################################
#
#                 Cambridge Crystallographic Data Centre
#                                CCDC 
#
#######################################################################
#
# If this CIF has been generated from an entry in the Cambridge 
# Structural Database, then it will include bibliographic, chemical, 
# crystal, experimental, refinement or atomic coordinate data resulting 
# from the CCDC's data processing and validation procedures.
#
#######################################################################

data_RAHXEE
_symmetry_cell_setting           monoclinic
_symmetry_space_group_name_H-M   'P 21/n'
_symmetry_Int_Tables_number      14
_space_group_name_Hall           '-P 2yn'
loop_
_symmetry_equiv_pos_site_id
_symmetry_equiv_pos_as_xyz
1 x,y,z
2 1/2+x,1/2-y,1/2+z
3 -x,-y,-z
4 1/2-x,1/2+y,1/2-z
_cell_length_a                   6.6426(2)
_cell_length_b                   11.3188(4)
_cell_length_c                   22.6559(10)
_cell_angle_alpha                90
_cell_angle_beta                 92.6239(15)
_cell_angle_gamma                90
_cell_volume                     1701.63
loop_
_atom_site_label
_atom_site_type_symbol
_atom_site_fract_x
_atom_site_fract_y
_atom_site_fract_z
Co1 Co 0.81990(19) -0.03117(11) 0.11333(5)
Co2 Co 0.30606(18) 0.04830(11) 0.11001(5)
Co3 Co 0.71649(18) -0.27558(11) 0.41280(5)
N1 N 0.7564(11) -0.1982(7) 0.1462(3)
N2 N 0.2589(11) -0.1184(7) 0.1460(3)
O1 O 0.8220(10) -0.1367(6) 0.0366(3)
O2 O 0.7537(11) -0.3185(6) 0.0014(3)
O3 O 0.6677(10) -0.4703(6) 0.3021(3)
O4 O 0.7006(10) -0.2767(6) 0.3204(3)
O5 O 0.5893(9) 0.0757(5) 0.0854(3)
H1 H 0.5773 0.0573 0.0422
O6 O 1.0161(9) 0.0877(5) 0.0824(3)
H2 H 1.0145 0.0691 0.0393
O7 O 0.5034(9) -0.1432(6) 0.4109(3)
H3 H 0.450(11) -0.157(10) 0.4442(19)
H4 H 0.417(10) -0.133(10) 0.382(2)
O8 O 0.9558(10) -0.1581(6) 0.4119(3)
H5 H 1.026(11) -0.172(10) 0.382(2)
H6 H 1.013(12) -0.172(9) 0.4458(17)
O9 O 0.3004(10) -0.0675(5) 0.0339(3)
O10 O 0.2411(10) -0.2546(5) 0.0054(3)
O11 O 0.1800(10) -0.3750(6) 0.3088(3)
O12 O 0.2063(10) -0.1792(6) 0.3228(3)
C1 C 0.7484(13) -0.2855(8) 0.1051(4)
C2 C 0.7211(14) -0.4024(8) 0.1204(4)
H7 H 0.7160 -0.4622 0.0909
C3 C 0.7015(14) -0.4312(8) 0.1792(4)
H8 H 0.6823 -0.5111 0.1905
C4 C 0.7098(14) -0.3424(8) 0.2217(4)
C5 C 0.7345(13) -0.2281(8) 0.2023(4)
H9 H 0.7360 -0.1667 0.2308
C6 C 0.7776(14) -0.2445(8) 0.0424(4)
C7 C 0.6902(14) -0.3653(8) 0.2867(4)
C8 C 0.2485(13) -0.2104(8) 0.1081(4)
C9 C 0.2219(14) -0.3246(9) 0.1256(4)
H10 H 0.2128 -0.3865 0.0973
C10 C 0.2086(14) -0.3487(8) 0.1852(4)
H11 H 0.1935 -0.4275 0.1986
C11 C 0.2178(13) -0.2536(7) 0.2255(4)
C12 C 0.2423(13) -0.1408(8) 0.2037(4)
H12 H 0.2477 -0.0765 0.2307
C13 C 0.2662(12) -0.1751(8) 0.0433(4)
C14 C 0.2004(14) -0.2716(9) 0.2906(4)
O3C O 0.8323(10) 0.0297(6) 0.1979(3)
O6_2 O 0.0161(9) 0.0877(5) 0.0824(3)
O11C O 0.3200(10) 0.1250(6) 0.1912(3)
O5C O 0.9107(9) -0.4243(5) 0.4146(3)
O6C O 0.4839(9) -0.4123(5) 0.4176(3)
O10A O 0.7411(10) -0.2454(5) 0.5054(3)
Co1C Co 0.68010(19) -0.53117(11) 0.38667(5)
Co3C Co 0.78351(18) 0.22442(11) 0.08720(5)
Co2_2 Co 1.30606(18) 0.04830(11) 0.11001(5)
Co3A Co 0.21649(18) -0.22442(11) -0.08720(5)
Co2C Co 0.19394(18) -0.45170(11) 0.38999(5)
H2_2 H 0.0145 0.0691 0.0393
H1C H 0.9227 -0.4427 0.4578
H2C H 0.4855 -0.4309 0.4607
loop_
_geom_bond_atom_site_label_1
_geom_bond_atom_site_label_2
_geom_bond_site_symmetry_1
_geom_bond_site_symmetry_2
Co1 N1 1_555 1_555
Co2 N2 1_555 1_555
Co3 O4 1_555 1_555
N1 C1 1_555 1_555
N2 C8 1_555 1_555
O1 Co1 1_555 1_555
O2 C6 1_555 1_555
O3 C7 1_555 1_555
O4 C7 1_555 1_555
O5 Co1 1_555 1_555
H1 O5 1_555 1_555
O6 Co1 1_555 1_555
H2 O6 1_555 1_555
O7 Co3 1_555 1_555
H3 O7 1_555 1_555
H4 O7 1_555 1_555
O8 Co3 1_555 1_555
H5 O8 1_555 1_555
H6 O8 1_555 1_555
O9 Co2 1_555 1_555
O10 C13 1_555 1_555
O11 C14 1_555 1_555
O12 C14 1_555 1_555
C1 C2 1_555 1_555
C2 H7 1_555 1_555
C3 C2 1_555 1_555
H8 C3 1_555 1_555
C4 C3 1_555 1_555
C5 N1 1_555 1_555
H9 C5 1_555 1_555
C6 O1 1_555 1_555
C7 C4 1_555 1_555
C8 C9 1_555 1_555
C9 H10 1_555 1_555
C10 C9 1_555 1_555
H11 C10 1_555 1_555
C11 C10 1_555 1_555
C12 N2 1_555 1_555
H12 C12 1_555 1_555
C13 O9 1_555 1_555
C14 C11 1_555 1_555
O3C Co1 1_555 1_555
O6_2 Co2 1_555 1_555
O11C Co2 1_555 1_555
O5C Co3 1_555 1_555
O6C Co3 1_555 1_555
O10A Co3 1_555 1_555
Co1C O3 1_555 1_555
Co3C O5 1_555 1_555
Co2_2 O6 1_555 1_555
Co3A O10 1_555 1_555
Co2C O11 1_555 1_555
H2_2 O6_2 1_555 1_555
H1C O5C 1_555 1_555
H2C O6C 1_555 1_555
Co2 O5 1_555 1_555
O6 Co3C 1_555 1_555
C1 C6 1_555 1_555
C4 C5 1_555 1_555
C8 C13 1_555 1_555
C11 C12 1_555 1_555
O5C Co1C 1_555 1_555
O6C Co1C 1_555 1_555
O6C Co2C 1_555 1_555

#END
