
#######################################################################
#
#                 Cambridge Crystallographic Data Centre
#                                CCDC 
#
#######################################################################
#
# If this CIF has been generated from an entry in the Cambridge 
# Structural Database, then it will include bibliographic, chemical, 
# crystal, experimental, refinement or atomic coordinate data resulting 
# from the CCDC's data processing and validation procedures.
#
#######################################################################

data_RAJFEP
_symmetry_cell_setting           monoclinic
_symmetry_space_group_name_H-M   'P 21/c'
_symmetry_Int_Tables_number      14
_space_group_name_Hall           '-P 2ybc'
loop_
_symmetry_equiv_pos_site_id
_symmetry_equiv_pos_as_xyz
1 x,y,z
2 -x,1/2+y,1/2-z
3 -x,-y,-z
4 x,1/2-y,1/2+z
_cell_length_a                   8.6205(17)
_cell_length_b                   20.782(4)
_cell_length_c                   8.6668(17)
_cell_angle_alpha                90
_cell_angle_beta                 102.24(3)
_cell_angle_gamma                90
_cell_volume                     1517.37
loop_
_atom_site_label
_atom_site_type_symbol
_atom_site_fract_x
_atom_site_fract_y
_atom_site_fract_z
Cd1 Cd 0.5000 0.5000 0.0000
O1 O 0.2266(7) 0.4985(2) -0.1304(7)
O2 O -0.0016(6) 0.5356(3) -0.2455(8)
O3 O 0.1607(9) 0.5916(3) -0.0804(10)
N1 N 0.4588(6) 0.5448(2) 0.2292(6)
N2 N 0.3423(6) 0.5750(2) 0.4190(6)
N3 N -0.2841(6) 0.8274(2) 0.3122(6)
N4 N -0.4221(6) 0.8968(2) 0.4226(6)
N5 N 0.1263(8) 0.5401(3) -0.1465(8)
C1 C 0.3242(8) 0.5476(3) 0.2787(8)
H1 H 0.2279 0.5322 0.2214
C2 C 0.5680(8) 0.5725(4) 0.3451(9)
H2 H 0.6749 0.5778 0.3445
C3 C 0.4966(8) 0.5912(5) 0.4619(9)
H3 H 0.5452 0.6116 0.5551
C4 C 0.2155(9) 0.5861(3) 0.5064(8)
H4 H 0.2629 0.5939 0.6167
H5 H 0.1502 0.5479 0.5003
C5 C 0.1120(8) 0.6428(3) 0.4418(7)
C6 C -0.0174(9) 0.6335(3) 0.3208(9)
H6 H -0.0449 0.5922 0.2839
C7 C -0.1063(9) 0.6851(3) 0.2542(9)
H7 H -0.1925 0.6783 0.1710
C8 C -0.0707(8) 0.7470(3) 0.3079(7)
C9 C 0.0580(8) 0.7556(3) 0.4325(9)
H8 H 0.0838 0.7966 0.4729
C10 C 0.1473(9) 0.7037(3) 0.4965(8)
H9 H 0.2340 0.7102 0.5793
C11 C -0.1642(9) 0.8040(3) 0.2296(9)
H10 H -0.0911 0.8388 0.2223
H11 H -0.2161 0.7920 0.1230
C12 C -0.4175(8) 0.7965(3) 0.3346(9)
H12 H -0.4457 0.7541 0.3075
C13 C -0.5004(9) 0.8384(3) 0.4029(10)
H13 H -0.5958 0.8295 0.4323
C14 C -0.2935(8) 0.8867(3) 0.3682(8)
H14 H -0.2161 0.9179 0.3686
Cd1A Cd -0.5000 1.0000 0.5000
Cd1A_2 Cd 1.5000 0.0000 -0.5000
O1B O 0.7734(7) 0.5015(2) 0.1304(7)
O2B O 1.0016(6) 0.4644(3) 0.2455(8)
O3B O 0.8393(9) 0.4084(3) 0.0804(10)
N1B N 0.5412(6) 0.4552(2) -0.2292(6)
N2B N 0.6577(6) 0.4250(2) -0.4190(6)
N3B N 1.2841(6) 0.1726(2) -0.3122(6)
N4B N 1.4221(6) 0.1032(2) -0.4226(6)
N4A N 0.4221(6) 0.3968(2) 0.0774(6)
N4C N 0.5779(6) 0.6032(2) -0.0774(6)
N5B N 0.8737(8) 0.4599(3) 0.1465(8)
C1B C 0.6758(8) 0.4524(3) -0.2787(8)
H1B H 0.7721 0.4678 -0.2214
C2B C 0.4320(8) 0.4275(4) -0.3451(9)
H2B H 0.3251 0.4222 -0.3445
C3B C 0.5034(8) 0.4088(5) -0.4619(9)
H3B H 0.4548 0.3884 -0.5551
C4B C 0.7845(9) 0.4139(3) -0.5064(8)
H4B H 0.7371 0.4061 -0.6167
H5B H 0.8498 0.4521 -0.5003
C5B C 0.8880(8) 0.3572(3) -0.4418(7)
C6B C 1.0174(9) 0.3665(3) -0.3208(9)
H6B H 1.0449 0.4078 -0.2839
C7B C 1.1063(9) 0.3149(3) -0.2542(9)
H7B H 1.1925 0.3217 -0.1710
C8B C 1.0707(8) 0.2530(3) -0.3079(7)
C9B C 0.9420(8) 0.2444(3) -0.4325(9)
H8B H 0.9162 0.2034 -0.4729
C10B C 0.8527(9) 0.2963(3) -0.4965(8)
H9B H 0.7660 0.2898 -0.5793
C11B C 1.1642(9) 0.1960(3) -0.2296(9)
H10B H 1.0911 0.1612 -0.2223
H11B H 1.2161 0.2080 -0.1230
C12B C 1.4175(8) 0.2035(3) -0.3346(9)
H12B H 1.4457 0.2459 -0.3075
C13B C 1.5004(9) 0.1616(3) -0.4029(10)
H13B H 1.5958 0.1705 -0.4323
C14B C 1.2935(8) 0.1133(3) -0.3682(8)
H14B H 1.2161 0.0821 -0.3686
loop_
_geom_bond_atom_site_label_1
_geom_bond_atom_site_label_2
_geom_bond_site_symmetry_1
_geom_bond_site_symmetry_2
Cd1 O1 1_555 1_555
O1 N5 1_555 1_555
O2 N5 1_555 1_555
O3 N5 1_555 1_555
N1 Cd1 1_555 1_555
N2 C1 1_555 1_555
N3 C11 1_555 1_555
N4 C13 1_555 1_555
C1 N1 1_555 1_555
H1 C1 1_555 1_555
C2 N1 1_555 1_555
H2 C2 1_555 1_555
C3 N2 1_555 1_555
H3 C3 1_555 1_555
C4 N2 1_555 1_555
H4 C4 1_555 1_555
H5 C4 1_555 1_555
C5 C4 1_555 1_555
C6 C5 1_555 1_555
H6 C6 1_555 1_555
C7 C6 1_555 1_555
H7 C7 1_555 1_555
C8 C7 1_555 1_555
C9 C8 1_555 1_555
H8 C9 1_555 1_555
C10 C5 1_555 1_555
H9 C10 1_555 1_555
C11 C8 1_555 1_555
H10 C11 1_555 1_555
H11 C11 1_555 1_555
C12 N3 1_555 1_555
H12 C12 1_555 1_555
C13 C12 1_555 1_555
H13 C13 1_555 1_555
C14 N3 1_555 1_555
H14 C14 1_555 1_555
Cd1A N4 1_555 1_555
Cd1A_2 N4B 1_555 1_555
O1B Cd1 1_555 1_555
O2B N5B 1_555 1_555
O3B N5B 1_555 1_555
N1B Cd1 1_555 1_555
N2B C1B 1_555 1_555
N3B C11B 1_555 1_555
N4B C13B 1_555 1_555
N4A Cd1 1_555 1_555
N4C Cd1 1_555 1_555
N5B O1B 1_555 1_555
C1B N1B 1_555 1_555
H1B C1B 1_555 1_555
C2B N1B 1_555 1_555
H2B C2B 1_555 1_555
C3B N2B 1_555 1_555
H3B C3B 1_555 1_555
C4B N2B 1_555 1_555
H4B C4B 1_555 1_555
H5B C4B 1_555 1_555
C5B C4B 1_555 1_555
C6B C5B 1_555 1_555
H6B C6B 1_555 1_555
C7B C6B 1_555 1_555
H7B C7B 1_555 1_555
C8B C7B 1_555 1_555
C9B C8B 1_555 1_555
H8B C9B 1_555 1_555
C10B C5B 1_555 1_555
H9B C10B 1_555 1_555
C11B C8B 1_555 1_555
H10B C11B 1_555 1_555
H11B C11B 1_555 1_555
C12B N3B 1_555 1_555
H12B C12B 1_555 1_555
C13B C12B 1_555 1_555
H13B C13B 1_555 1_555
C14B N3B 1_555 1_555
H14B C14B 1_555 1_555
N4 C14 1_555 1_555
C2 C3 1_555 1_555
C9 C10 1_555 1_555
N4B C14B 1_555 1_555
C2B C3B 1_555 1_555
C9B C10B 1_555 1_555

#END
