
#######################################################################
#
#                 Cambridge Crystallographic Data Centre
#                                CCDC 
#
#######################################################################
#
# If this CIF has been generated from an entry in the Cambridge 
# Structural Database, then it will include bibliographic, chemical, 
# crystal, experimental, refinement or atomic coordinate data resulting 
# from the CCDC's data processing and validation procedures.
#
#######################################################################

data_RAJMOG
_symmetry_cell_setting           monoclinic
_symmetry_space_group_name_H-M   'P 21/n'
_symmetry_Int_Tables_number      14
_space_group_name_Hall           '-P 2yn'
loop_
_symmetry_equiv_pos_site_id
_symmetry_equiv_pos_as_xyz
1 x,y,z
2 1/2-x,1/2+y,1/2-z
3 -x,-y,-z
4 1/2+x,1/2-y,1/2+z
_cell_length_a                   15.814(5)
_cell_length_b                   15.372(5)
_cell_length_c                   16.410(5)
_cell_angle_alpha                90
_cell_angle_beta                 94.747(5)
_cell_angle_gamma                90
_cell_volume                     3975.47
loop_
_atom_site_label
_atom_site_type_symbol
_atom_site_fract_x
_atom_site_fract_y
_atom_site_fract_z
Co1 Co 0.50689(5) 0.16070(5) 0.73718(5)
Cd1 Cd 0.98602(3) 0.18920(3) 0.69633(3)
N1 N 0.4051(3) 0.0874(3) 0.7446(3)
N2 N 0.5846(3) 0.2592(3) 0.7393(3)
N3 N 0.5465(3) 0.1293(3) 0.8499(3)
N4 N 0.4905(3) 0.1639(3) 0.6178(3)
N5 N 0.4304(3) 0.2487(3) 0.7567(3)
N6 N 0.5867(3) 0.0772(3) 0.7143(3)
N7 N 0.4419(3) -0.1819(3) 0.7660(3)
N8 N 0.8452(3) 0.2262(4) 0.7160(3)
N9 N 0.4682(3) 0.2520(3) 1.0622(3)
N10 N 0.2949(12) 0.3114(11) 0.5046(8)
O1 O 0.2641(3) 0.0985(3) 0.7713(3)
O2 O 0.5899(3) 0.4076(3) 0.7602(3)
O3 O 0.6281(3) 0.0265(3) 0.9230(3)
O4 O 0.5459(3) 0.1098(4) 0.5024(3)
C1 C 0.3156(4) 0.3768(5) 0.7749(5)
H1 H 0.2762 0.4207 0.7808
C2 C 0.2895(4) 0.2911(4) 0.7728(4)
H2 H 0.2330 0.2770 0.7779
C3 C 0.3488(4) 0.2265(4) 0.7629(4)
C4 C 0.4568(4) 0.3301(4) 0.7592(4)
C5 C 0.4001(4) 0.3981(4) 0.7683(4)
H3 H 0.4182 0.4557 0.7700
C6 C 0.5513(4) 0.3373(4) 0.7518(4)
C7 C 0.6733(4) 0.2517(4) 0.7317(4)
C8 C 0.7294(4) 0.2357(5) 0.7988(4)
H4 H 0.7099 0.2328 0.8507
C9 C 0.8146(4) 0.2241(5) 0.7891(4)
H5 H 0.8518 0.2145 0.8351
C10 C 0.7908(4) 0.2410(5) 0.6514(4)
H6 H 0.8117 0.2418 0.6001
C11 C 0.7044(4) 0.2554(4) 0.6558(4)
H7 H 0.6689 0.2671 0.6090
C12 C 0.3345(4) 0.1306(4) 0.7602(4)
C13 C 0.4085(4) -0.0041(4) 0.7491(4)
C14 C 0.4414(4) -0.0526(4) 0.6867(4)
H8 H 0.4522 -0.0263 0.6376
C15 C 0.4578(4) -0.1399(4) 0.6990(4)
H9 H 0.4812 -0.1709 0.6577
C16 C 0.4028(4) -0.1369(4) 0.8222(4)
H10 H 0.3865 -0.1671 0.8675
C17 C 0.3855(4) -0.0497(4) 0.8175(4)
H11 H 0.3591 -0.0215 0.8587
C18 C 0.7093(5) -0.0369(5) 0.6814(5)
H12 H 0.7519 -0.0757 0.6700
C19 C 0.6920(4) -0.0236(4) 0.7610(5)
H13 H 0.7221 -0.0532 0.8035
C20 C 0.6290(4) 0.0345(4) 0.7768(4)
C21 C 0.6015(4) 0.0639(4) 0.6359(4)
C22 C 0.6641(5) 0.0066(5) 0.6177(5)
H14 H 0.6759 -0.0027 0.5638
C23 C 0.6002(4) 0.0623(4) 0.8583(4)
C24 C 0.5183(4) 0.1693(4) 0.9213(4)
C25 C 0.5368(4) 0.2561(4) 0.9379(4)
H15 H 0.5676 0.2883 0.9025
C26 C 0.5093(4) 0.2946(4) 1.0070(4)
H16 H 0.5202 0.3535 1.0154
C27 C 0.4489(4) 0.1681(4) 1.0454(4)
H17 H 0.4191 0.1373 1.0825
C28 C 0.4709(4) 0.1256(4) 0.9764(4)
H18 H 0.4544 0.0682 0.9667
C29 C 0.5430(4) 0.1155(4) 0.5774(4)
C30 C 0.4241(4) 0.2110(5) 0.5754(4)
C31 C 0.4313(7) 0.2972(6) 0.5554(5)
H19 H 0.4838 0.3232 0.5681
C32 C 0.3720(13) 0.3459(13) 0.5205(10)
H20 H 0.3829 0.4034 0.5069
C33 C 0.3474(5) 0.1711(7) 0.5570(5)
H21 H 0.3389 0.1124 0.5676
C34 C 0.2803(7) 0.2264(14) 0.5197(7)
H22 H 0.2267 0.2031 0.5061
O8 O 1.1197(3) 0.1364(4) 0.6684(3)
H23 H 1.1403 0.0809 0.6313
H24 H 1.1790 0.1323 0.7092
O9 O 0.9415(4) 0.0567(3) 0.6504(3)
H25 H 0.9416 0.0103 0.6967
H26 H 0.9202 0.0453 0.6106
O10 O 1.0053(3) 0.1437(4) 0.8284(3)
H27 H 1.0431 0.1354 0.8480
H28 H 0.9654 0.1131 0.8512
Cd1A Cd 0.51398(3) -0.31080(3) 0.80367(3)
Cd1C Cd 0.48602(3) 0.31080(3) 1.19633(3)
N7A N 1.0581(3) 0.3181(3) 0.7340(3)
N9C N 0.9682(3) 0.2480(3) 0.5622(3)
N11 N 0.3260(6) 0.4821(6) 0.9708(5)
O5 O 0.3283(5) 0.4146(5) 1.0101(5)
O6 O 0.3768(8) 0.5334(8) 0.9888(9)
O7 O 0.2690(6) 0.4956(5) 0.9179(5)
O11 O 0.9159(7) 0.0099(6) 0.8757(5)
H29 H 0.9551 0.0121 0.9284
H30 H 0.9076 -0.0332 0.8251
O12 O 0.7899(4) 0.9522(4) 0.9578(4)
H31 H 0.7842 0.9396 1.0204
H32 H 0.7376 0.9745 0.9672
O13 O 0.1674(3) 0.1435(4) 0.8999(3)
H33 H 0.2009 0.1302 0.8544
H34 H 0.1786 0.1944 0.9391
O14 O 0.6903(4) 0.1945(4) 0.4541(4)
H35 H 0.6959 0.1629 0.4125
H36 H 0.6518 0.1726 0.4715
loop_
_geom_bond_atom_site_label_1
_geom_bond_atom_site_label_2
_geom_bond_site_symmetry_1
_geom_bond_site_symmetry_2
Co1 N1 1_555 1_555
Cd1 N8 1_555 1_555
N1 C12 1_555 1_555
N2 Co1 1_555 1_555
N3 Co1 1_555 1_555
N4 Co1 1_555 1_555
N5 Co1 1_555 1_555
N6 Co1 1_555 1_555
N7 C15 1_555 1_555
N8 C9 1_555 1_555
N9 C26 1_555 1_555
N10 C32 1_555 1_555
N11 O5 1_555 1_555
O1 C12 1_555 1_555
O2 C6 1_555 1_555
O3 C23 1_555 1_555
O4 C29 1_555 1_555
O6 N11 1_555 1_555
O7 N11 1_555 1_555
C1 H1 1_555 1_555
C2 C1 1_555 1_555
H2 C2 1_555 1_555
C3 N5 1_555 1_555
C4 N5 1_555 1_555
C5 C1 1_555 1_555
H3 C5 1_555 1_555
C6 N2 1_555 1_555
C7 N2 1_555 1_555
C8 C7 1_555 1_555
H4 C8 1_555 1_555
C9 C8 1_555 1_555
H5 C9 1_555 1_555
C10 N8 1_555 1_555
H6 C10 1_555 1_555
C11 C7 1_555 1_555
H7 C11 1_555 1_555
C12 C3 1_555 1_555
C13 N1 1_555 1_555
C14 C13 1_555 1_555
H8 C14 1_555 1_555
C15 C14 1_555 1_555
H9 C15 1_555 1_555
C16 N7 1_555 1_555
H10 C16 1_555 1_555
C17 C13 1_555 1_555
H11 C17 1_555 1_555
C18 H12 1_555 1_555
C19 C18 1_555 1_555
H13 C19 1_555 1_555
C20 N6 1_555 1_555
C21 N6 1_555 1_555
C22 C18 1_555 1_555
H14 C22 1_555 1_555
C23 N3 1_555 1_555
C24 N3 1_555 1_555
C25 C24 1_555 1_555
H15 C25 1_555 1_555
C26 C25 1_555 1_555
H16 C26 1_555 1_555
C27 N9 1_555 1_555
H17 C27 1_555 1_555
C28 C24 1_555 1_555
H18 C28 1_555 1_555
C29 N4 1_555 1_555
C30 N4 1_555 1_555
C31 C30 1_555 1_555
H19 C31 1_555 1_555
C32 C31 1_555 1_555
H20 C32 1_555 1_555
C33 C30 1_555 1_555
H21 C33 1_555 1_555
C34 N10 1_555 1_555
H22 C34 1_555 1_555
O8 Cd1 1_555 1_555
H23 O8 1_555 1_555
H24 O8 1_555 1_555
O9 Cd1 1_555 1_555
H25 O9 1_555 1_555
H26 O9 1_555 1_555
O10 Cd1 1_555 1_555
H27 O10 1_555 1_555
H28 O10 1_555 1_555
O11 H29 1_555 1_555
H30 O11 1_555 1_555
O12 H31 1_555 1_555
H32 O12 1_555 1_555
O13 H33 1_555 1_555
H34 O13 1_555 1_555
O14 H35 1_555 1_555
H36 O14 1_555 1_555
Cd1A N7 1_555 1_555
Cd1C N9 1_555 1_555
N7A Cd1 1_555 1_555
N9C Cd1 1_555 1_555
C2 C3 1_555 1_555
C4 C5 1_555 1_555
C4 C6 1_555 1_555
C10 C11 1_555 1_555
C16 C17 1_555 1_555
C19 C20 1_555 1_555
C20 C23 1_555 1_555
C21 C22 1_555 1_555
C21 C29 1_555 1_555
C27 C28 1_555 1_555
C33 C34 1_555 1_555

#END
