
#######################################################################
#
#                 Cambridge Crystallographic Data Centre
#                                CCDC 
#
#######################################################################
#
# If this CIF has been generated from an entry in the Cambridge 
# Structural Database, then it will include bibliographic, chemical, 
# crystal, experimental, refinement or atomic coordinate data resulting 
# from the CCDC's data processing and validation procedures.
#
#######################################################################

data_RAJPAV
_symmetry_cell_setting           monoclinic
_symmetry_space_group_name_H-M   'P 21/c'
_symmetry_Int_Tables_number      14
_space_group_name_Hall           '-P 2ybc'
loop_
_symmetry_equiv_pos_site_id
_symmetry_equiv_pos_as_xyz
1 x,y,z
2 -x,1/2+y,1/2-z
3 -x,-y,-z
4 x,1/2-y,1/2+z
_cell_length_a                   5.6530(16)
_cell_length_b                   13.404(4)
_cell_length_c                   19.2441(18)
_cell_angle_alpha                90
_cell_angle_beta                 102.459(5)
_cell_angle_gamma                90
_cell_volume                     1423.84
loop_
_atom_site_label
_atom_site_type_symbol
_atom_site_fract_x
_atom_site_fract_y
_atom_site_fract_z
C1 C 0.0457(16) 0.1401(6) 0.6242(4)
C2 C -0.1414(14) 0.1072(6) 0.6580(4)
C3 C -0.1958(16) 0.1548(6) 0.7162(4)
H1 H -0.3186 0.1297 0.7383
C4 C -0.0693(16) 0.2389(6) 0.7414(4)
C5 C 0.1141(16) 0.2783(6) 0.7113(4)
H2 H 0.1987 0.3371 0.7297
C6 C 0.1675(15) 0.2289(6) 0.6539(4)
C7 C 0.832(2) 0.3790(7) 0.4936(5)
H3 H 0.8339 0.3389 0.4511
H4 H 0.9961 0.3833 0.5230
H5 H 0.7725 0.4462 0.4792
C8 C 0.6684(17) 0.3312(7) 0.5354(4)
C9 C 0.6056(16) 0.3836(6) 0.5961(4)
C10 C 0.709(2) 0.4798(8) 0.6225(6)
C11 C 0.612(2) 0.5304(8) 0.6797(5)
H6 H 0.6853 0.5008 0.7258
H7 H 0.4357 0.5220 0.6704
H8 H 0.6512 0.6017 0.6803
N1 N 0.3400(12) 0.2627(5) 0.6168(3)
H9 H 0.3757 0.2260 0.5826
N2 N 0.4478(13) 0.3482(5) 0.6329(3)
N3 N -0.2958(13) 0.0254(5) 0.6312(3)
N4 N -0.1365(15) 0.2920(6) 0.8006(4)
O1 O 0.1099(10) 0.0995(4) 0.5713(3)
O2 O 0.5873(11) 0.2469(4) 0.5193(3)
O3 O 0.876(2) 0.5152(7) 0.6020(6)
O4 O -0.2969(11) -0.0078(4) 0.5703(3)
O5 O -0.4281(12) -0.0116(4) 0.6674(3)
O6 O -0.0368(16) 0.3704(6) 0.8194(4)
O7 O -0.2939(13) 0.2559(5) 0.8282(3)
K1 K -0.2193(4) 0.09590(14) 0.44540(8)
O1B O -0.1099(10) -0.0995(4) 0.4287(3)
O2_2 O -0.4127(11) 0.2469(4) 0.5193(3)
O4B O -0.7031(11) 0.0078(4) 0.4297(3)
O4B_2 O 0.2969(11) 0.0078(4) 0.4297(3)
O5B O -0.5719(12) 0.0116(4) 0.3326(3)
O6C O -0.0368(16) 0.1296(6) 0.3194(4)
O7C O -0.2939(13) 0.2441(5) 0.3282(3)
K1B K 0.2193(4) -0.09590(14) 0.55460(8)
K1_2 K 0.7807(4) 0.09590(14) 0.44540(8)
K1B_2 K -0.7807(4) -0.09590(14) 0.55460(8)
K1C K -0.2193(4) 0.40410(14) 0.94540(8)
loop_
_geom_bond_atom_site_label_1
_geom_bond_atom_site_label_2
_geom_bond_site_symmetry_1
_geom_bond_site_symmetry_2
C1 C2 1_555 1_555
C2 C3 1_555 1_555
C3 H1 1_555 1_555
C4 C3 1_555 1_555
C5 C4 1_555 1_555
H2 C5 1_555 1_555
C6 C1 1_555 1_555
C7 H3 1_555 1_555
H4 C7 1_555 1_555
H5 C7 1_555 1_555
C8 C7 1_555 1_555
C9 C8 1_555 1_555
C10 C9 1_555 1_555
C11 C10 1_555 1_555
H6 C11 1_555 1_555
H7 C11 1_555 1_555
H8 C11 1_555 1_555
N1 C6 1_555 1_555
H9 N1 1_555 1_555
N2 C9 1_555 1_555
N3 C2 1_555 1_555
N4 C4 1_555 1_555
O1 C1 1_555 1_555
O2 C8 1_555 1_555
O3 C10 1_555 1_555
O4 N3 1_555 1_555
O5 N3 1_555 1_555
O6 N4 1_555 1_555
O7 N4 1_555 1_555
K1 O1 1_555 1_555
O1B K1 1_555 1_555
O2_2 K1 1_555 1_555
O4B K1 1_555 1_555
O4B_2 K1 1_555 1_555
O5B K1 1_555 1_555
O6C K1 1_555 1_555
O7C K1 1_555 1_555
K1B O1 1_555 1_555
K1_2 O2 1_555 1_555
K1B_2 O4 1_555 1_555
K1C O6 1_555 1_555
C5 C6 1_555 1_555
N1 N2 1_555 1_555
O4 K1 1_555 1_555
O4 K1B 1_555 1_555
O5 K1B_2 1_555 1_555
O7 K1C 1_555 1_555
O1B K1B 1_555 1_555
O4B K1B_2 1_555 1_555
O4B_2 K1B 1_555 1_555
O4B_2 K1_2 1_555 1_555

#END
