
#######################################################################
#
#                 Cambridge Crystallographic Data Centre
#                                CCDC 
#
#######################################################################
#
# If this CIF has been generated from an entry in the Cambridge 
# Structural Database, then it will include bibliographic, chemical, 
# crystal, experimental, refinement or atomic coordinate data resulting 
# from the CCDC's data processing and validation procedures.
#
#######################################################################

data_RAJRUP
_symmetry_cell_setting           monoclinic
_symmetry_space_group_name_H-M   'C c'
_symmetry_Int_Tables_number      9
_space_group_name_Hall           'C -2yc'
loop_
_symmetry_equiv_pos_site_id
_symmetry_equiv_pos_as_xyz
1 x,y,z
2 x,-y,1/2+z
3 1/2+x,1/2+y,z
4 1/2+x,1/2-y,1/2+z
_cell_length_a                   7.4220(10)
_cell_length_b                   20.462(4)
_cell_length_c                   17.865(4)
_cell_angle_alpha                90
_cell_angle_beta                 100.67(3)
_cell_angle_gamma                90
_cell_volume                     2666.23
loop_
_atom_site_label
_atom_site_type_symbol
_atom_site_fract_x
_atom_site_fract_y
_atom_site_fract_z
Zn1 Zn 0.85318(5) 0.02262(3) 0.16721(3)
Zn2 Zn 0.45169(5) -0.02238(3) 0.22686(3)
O1 O 0.6258(4) 0.05336(17) 0.2051(2)
O2 O 0.6105(5) 0.10648(19) 0.0959(2)
O3 O 0.2389(5) 0.04138(15) 0.16912(19)
O4 O 0.0015(4) 0.10162(16) 0.1851(2)
C1 C 0.5676(7) 0.1013(2) 0.1587(3)
C2 C 0.1718(7) 0.0945(2) 0.1845(3)
C3 C 0.4695(7) 0.1562(2) 0.1903(3)
C4 C 0.2896(7) 0.1538(2) 0.2029(3)
C5 C 0.2146(7) 0.2098(2) 0.2323(3)
H1 H 0.0902 0.2084 0.2403
C6 C 0.3189(7) 0.2654(3) 0.2502(3)
H2 H 0.2677 0.3026 0.2716
C7 C 0.4959(7) 0.2682(3) 0.2374(3)
H3 H 0.5671 0.3073 0.2487
C8 C 0.5714(7) 0.2142(3) 0.2063(3)
H4 H 0.6944 0.2162 0.1968
O5 O 1.2862(5) -0.10419(17) 0.2630(2)
O6 O 1.3474(5) -0.01230(17) 0.32789(19)
O7 O 0.6871(5) -0.06908(18) 0.2896(2)
O8 O 0.9440(5) -0.03454(17) 0.25290(19)
C9 C 1.2712(6) -0.0672(3) 0.3180(3)
C10 C 0.8574(7) -0.0639(2) 0.2977(3)
C11 C 1.1645(7) -0.0925(2) 0.3771(3)
C12 C 0.9734(7) -0.0946(2) 0.3666(3)
C13 C 0.8872(8) -0.1233(3) 0.4218(3)
H5 H 0.7558 -0.1261 0.4135
C14 C 0.9924(8) -0.1484(3) 0.4881(3)
H6 H 0.9335 -0.1664 0.5270
C15 C 1.1804(8) -0.1464(3) 0.4988(3)
H7 H 1.2524 -0.1645 0.5443
C16 C 1.2670(7) -0.1191(3) 0.4434(3)
H8 H 1.3985 -0.1184 0.4508
N1 N 0.8630(5) -0.0329(2) 0.0757(2)
C17 C 0.9571(7) -0.0897(3) 0.0854(3)
H9 H 1.0092 -0.1034 0.1362
C18 C 0.9776(8) -0.1276(3) 0.0239(3)
H10 H 1.0413 -0.1685 0.0327
C19 C 0.9082(8) -0.1093(3) -0.0497(4)
C20 C 0.8129(8) -0.0509(3) -0.0585(3)
H11 H 0.7603 -0.0355 -0.1086
C21 C 0.7910(7) -0.0142(3) 0.0044(3)
H12 H 0.7240 0.0261 -0.0029
C22 C 0.9330(10) -0.1473(4) -0.1181(4)
H13 H 1.0013 -0.1864 -0.1027
H14 H 0.8151 -0.1586 -0.1472
H15 H 0.9985 -0.1211 -0.1487
N2 N 0.4406(5) -0.0712(2) 0.1245(2)
C23 C 0.4947(8) -0.1338(2) 0.1261(3)
H16 H 0.5296 -0.1546 0.1748
C24 C 0.5022(8) -0.1692(3) 0.0631(3)
H17 H 0.5420 -0.2139 0.0673
C25 C 0.4501(8) -0.1408(3) -0.0095(3)
C26 C 0.3885(7) -0.0768(3) -0.0119(3)
H18 H 0.3468 -0.0560 -0.0602
C27 C 0.3854(7) -0.0435(3) 0.0549(3)
H19 H 0.3430 0.0010 0.0522
C28 C 0.4591(9) -0.1785(3) -0.0814(3)
H20 H 0.5052 -0.2217 -0.0687
H21 H 0.3386 -0.1813 -0.1121
H22 H 0.5392 -0.1562 -0.1094
O4_2 O 1.0015(4) 0.10162(16) 0.1851(2)
O5_2 O 0.2862(5) -0.10419(17) 0.2630(2)
O6_2 O 0.3474(5) -0.01230(17) 0.32789(19)
Zn1_2 Zn -0.14682(5) 0.02262(3) 0.16721(3)
Zn2_2 Zn 1.45169(5) -0.02238(3) 0.22686(3)
loop_
_geom_bond_atom_site_label_1
_geom_bond_atom_site_label_2
_geom_bond_site_symmetry_1
_geom_bond_site_symmetry_2
Zn1 O1 1_555 1_555
Zn2 O1 1_555 1_555
O1 C1 1_555 1_555
O2 C1 1_555 1_555
O3 Zn2 1_555 1_555
O4 C2 1_555 1_555
C1 C3 1_555 1_555
C2 O3 1_555 1_555
C3 C4 1_555 1_555
C4 C2 1_555 1_555
C5 C4 1_555 1_555
H1 C5 1_555 1_555
C6 C5 1_555 1_555
H2 C6 1_555 1_555
C7 C6 1_555 1_555
H3 C7 1_555 1_555
C8 C3 1_555 1_555
H4 C8 1_555 1_555
O5 C9 1_555 1_555
O6 C9 1_555 1_555
O7 Zn2 1_555 1_555
O8 Zn1 1_555 1_555
C9 C11 1_555 1_555
C10 O7 1_555 1_555
C11 C12 1_555 1_555
C12 C10 1_555 1_555
C13 C12 1_555 1_555
H5 C13 1_555 1_555
C14 C13 1_555 1_555
H6 C14 1_555 1_555
C15 C14 1_555 1_555
H7 C15 1_555 1_555
C16 C11 1_555 1_555
H8 C16 1_555 1_555
N1 Zn1 1_555 1_555
C17 N1 1_555 1_555
H9 C17 1_555 1_555
C18 C17 1_555 1_555
H10 C18 1_555 1_555
C19 C18 1_555 1_555
C20 C19 1_555 1_555
H11 C20 1_555 1_555
C21 N1 1_555 1_555
H12 C21 1_555 1_555
C22 C19 1_555 1_555
H13 C22 1_555 1_555
H14 C22 1_555 1_555
H15 C22 1_555 1_555
N2 Zn2 1_555 1_555
C23 N2 1_555 1_555
H16 C23 1_555 1_555
C24 C23 1_555 1_555
H17 C24 1_555 1_555
C25 C24 1_555 1_555
C26 C25 1_555 1_555
H18 C26 1_555 1_555
C27 N2 1_555 1_555
H19 C27 1_555 1_555
C28 C25 1_555 1_555
H20 C28 1_555 1_555
H21 C28 1_555 1_555
H22 C28 1_555 1_555
O4_2 Zn1 1_555 1_555
O5_2 Zn2 1_555 1_555
O6_2 Zn2 1_555 1_555
Zn1_2 O4 1_555 1_555
Zn2_2 O5 1_555 1_555
C7 C8 1_555 1_555
O6 Zn2_2 1_555 1_555
O8 C10 1_555 1_555
C15 C16 1_555 1_555
C20 C21 1_555 1_555
C26 C27 1_555 1_555

#END
