
#######################################################################
#
#                 Cambridge Crystallographic Data Centre
#                                CCDC 
#
#######################################################################
#
# If this CIF has been generated from an entry in the Cambridge 
# Structural Database, then it will include bibliographic, chemical, 
# crystal, experimental, refinement or atomic coordinate data resulting 
# from the CCDC's data processing and validation procedures.
#
#######################################################################

data_RAJREZ
_symmetry_cell_setting           orthorhombic
_symmetry_space_group_name_H-M   'P b c a'
_symmetry_Int_Tables_number      61
_space_group_name_Hall           '-P 2ac 2ab'
loop_
_symmetry_equiv_pos_site_id
_symmetry_equiv_pos_as_xyz
1 x,y,z
2 1/2+x,y,1/2-z
3 x,1/2-y,1/2+z
4 1/2-x,1/2+y,z
5 -x,-y,-z
6 1/2-x,-y,1/2+z
7 -x,1/2+y,1/2-z
8 1/2+x,1/2-y,-z
_cell_length_a                   15.730(3)
_cell_length_b                   12.380(2)
_cell_length_c                   17.650(4)
_cell_angle_alpha                90
_cell_angle_beta                 90
_cell_angle_gamma                90
_cell_volume                     3437.12
loop_
_atom_site_label
_atom_site_type_symbol
_atom_site_fract_x
_atom_site_fract_y
_atom_site_fract_z
Zn1 Zn 0.17315(5) 0.90669(5) 0.06607(4)
O1 O 0.0891(3) 1.0122(4) 0.1059(3)
O2 O 0.2066(5) 1.0986(4) 0.1149(3)
O3 O 0.2691(4) 1.3169(4) 0.1973(3)
O4 O 0.2136(3) 1.3468(4) 0.0871(3)
C1 C 0.1301(6) 1.0917(5) 0.1262(3)
C2 C 0.2088(5) 1.3154(5) 0.1527(4)
C3 C 0.0825(4) 1.1820(4) 0.1665(3)
C4 C 0.1208(5) 1.2810(4) 0.1801(3)
C5 C 0.0761(6) 1.3584(6) 0.2214(4)
H1 H 0.1029 1.4265 0.2315
C6 C -0.0038(6) 1.3399(6) 0.2482(4)
H2 H -0.0337 1.3944 0.2763
C7 C -0.0419(5) 1.2420(6) 0.2335(4)
H3 H -0.0981 1.2279 0.2523
C8 C 0.0008(5) 1.1634(5) 0.1924(4)
H4 H -0.0258 1.0954 0.1816
N1 N 0.2049(3) 0.9453(4) -0.0447(3)
C9 C 0.2154(6) 0.8685(6) -0.0947(4)
H5 H 0.1997 0.7966 -0.0800
C10 C 0.2482(6) 0.8842(7) -0.1664(4)
H6 H 0.2544 0.8249 -0.2010
C11 C 0.2695(6) 0.9833(7) -0.1868(4)
H7 H 0.2916 0.9977 -0.2365
C12 C 0.2595(8) 1.0618(7) -0.1370(5)
H8 H 0.2750 1.1343 -0.1505
C13 C 0.2285(7) 1.0415(6) -0.0666(4)
H9 H 0.2227 1.0999 -0.0311
N2 N 0.0879(4) 0.7808(4) 0.0557(3)
C14 C 0.0088(6) 0.8005(6) 0.0308(4)
H10 H -0.0050 0.8726 0.0151
C15 C -0.0503(6) 0.7214(8) 0.0288(5)
H11 H -0.1059 0.7360 0.0087
C16 C -0.0324(8) 0.6219(8) 0.0533(6)
H12 H -0.0749 0.5663 0.0542
C17 C 0.0477(9) 0.6000(6) 0.0782(5)
H13 H 0.0617 0.5285 0.0952
C18 C 0.1083(5) 0.6810(6) 0.0777(4)
H14 H 0.1653 0.6660 0.0940
O4C O 0.2864(3) 0.8468(4) 0.0871(3)
Zn1C Zn 0.32685(5) 1.40669(5) 0.06607(4)
loop_
_geom_bond_atom_site_label_1
_geom_bond_atom_site_label_2
_geom_bond_site_symmetry_1
_geom_bond_site_symmetry_2
Zn1 O1 1_555 1_555
O1 C1 1_555 1_555
O2 C1 1_555 1_555
O3 C2 1_555 1_555
O4 C2 1_555 1_555
C1 C3 1_555 1_555
C2 C4 1_555 1_555
C3 C4 1_555 1_555
C4 C5 1_555 1_555
C5 H1 1_555 1_555
C6 C5 1_555 1_555
H2 C6 1_555 1_555
C7 C6 1_555 1_555
H3 C7 1_555 1_555
C8 C3 1_555 1_555
H4 C8 1_555 1_555
N1 Zn1 1_555 1_555
C9 N1 1_555 1_555
H5 C9 1_555 1_555
C10 C9 1_555 1_555
H6 C10 1_555 1_555
C11 C10 1_555 1_555
H7 C11 1_555 1_555
C12 C11 1_555 1_555
H8 C12 1_555 1_555
C13 N1 1_555 1_555
H9 C13 1_555 1_555
N2 Zn1 1_555 1_555
C14 N2 1_555 1_555
H10 C14 1_555 1_555
C15 C14 1_555 1_555
H11 C15 1_555 1_555
C16 C15 1_555 1_555
H12 C16 1_555 1_555
C17 C16 1_555 1_555
H13 C17 1_555 1_555
C18 N2 1_555 1_555
H14 C18 1_555 1_555
O4C Zn1 1_555 1_555
Zn1C O4 1_555 1_555
C7 C8 1_555 1_555
C12 C13 1_555 1_555
C17 C18 1_555 1_555

#END
