
#######################################################################
#
#                 Cambridge Crystallographic Data Centre
#                                CCDC 
#
#######################################################################
#
# If this CIF has been generated from an entry in the Cambridge 
# Structural Database, then it will include bibliographic, chemical, 
# crystal, experimental, refinement or atomic coordinate data resulting 
# from the CCDC's data processing and validation procedures.
#
#######################################################################

data_RAJWIK
_symmetry_cell_setting           orthorhombic
_symmetry_space_group_name_H-M   'P 21 21 21'
_symmetry_Int_Tables_number      19
_space_group_name_Hall           'P 2ac 2ab'
loop_
_symmetry_equiv_pos_site_id
_symmetry_equiv_pos_as_xyz
1 x,y,z
2 1/2-x,-y,1/2+z
3 -x,1/2+y,1/2-z
4 1/2+x,1/2-y,-z
_cell_length_a                   8.0796(9)
_cell_length_b                   14.0121(12)
_cell_length_c                   19.1210(16)
_cell_angle_alpha                90
_cell_angle_beta                 90
_cell_angle_gamma                90
_cell_volume                     2164.73
loop_
_atom_site_label
_atom_site_type_symbol
_atom_site_fract_x
_atom_site_fract_y
_atom_site_fract_z
C1 C 0.5074(9) 0.6964(4) 0.6291(3)
C2 C 0.4712(7) 0.6747(4) 0.70381(19)
C3 C 0.3657(7) 0.7358(4) 0.7398(3)
H1 H 0.3180 0.7874 0.7168
C4 C 0.3317(8) 0.7197(6) 0.8100(3)
H2 H 0.2611 0.7606 0.8341
C5 C 0.4031(10) 0.6426(7) 0.8444(2)
H3 H 0.3803 0.6318 0.8914
C6 C 0.5086(9) 0.5815(5) 0.8084(3)
H4 H 0.5563 0.5298 0.8314
C7 C 0.5426(7) 0.5975(4) 0.7381(3)
C8 C 0.6342(18) 0.5312(9) 0.7055(6)
H5 H 0.6458 0.4764 0.7351
H6 H 0.7416 0.5570 0.6952
H7 H 0.5807 0.5129 0.6627
C9 C 1.1088(7) 0.5715(4) 0.5119(3)
C10 C 1.1686(7) 0.4734(4) 0.5288(3)
C11 C 1.3341(8) 0.4558(4) 0.5303(3)
H8 H 1.4081 0.5045 0.5195
C12 C 1.3940(10) 0.3658(6) 0.5479(3)
H9 H 1.5074 0.3545 0.5498
C13 C 1.2858(13) 0.2954(5) 0.5621(3)
H10 H 1.3256 0.2350 0.5732
C14 C 1.1200(12) 0.3105(4) 0.5608(3)
H11 H 1.0475 0.2609 0.5709
C15 C 1.0592(8) 0.3998(4) 0.5442(3)
C16 C 0.8779(14) 0.4078(7) 0.5471(5)
H12 H 0.8301 0.3452 0.5502
H13 H 0.8386 0.4389 0.5055
H14 H 0.8465 0.4445 0.5873
C17 C 0.5537(8) 0.6384(4) 0.4100(3)
C18 C 0.4657(8) 0.6090(4) 0.3445(3)
C19 C 0.3800(10) 0.6791(6) 0.3069(3)
H15 H 0.3751 0.7409 0.3246
C20 C 0.3042(12) 0.6591(7) 0.2457(3)
H16 H 0.2503 0.7067 0.2206
C21 C 0.3082(12) 0.5689(8) 0.2216(4)
H17 H 0.2531 0.5546 0.1802
C22 C 0.3896(12) 0.4980(5) 0.2555(3)
H18 H 0.3933 0.4367 0.2369
C23 C 0.4681(10) 0.5189(5) 0.3190(4)
C24 C 0.5411(14) 0.4398(7) 0.3528(5)
H19 H 0.6504 0.4565 0.3682
H20 H 0.5474 0.3872 0.3207
H21 H 0.4750 0.4219 0.3924
Dy1 Dy 0.78493(3) 0.714574(15) 0.504252(13)
O1 O 0.6688(6) 0.5913(3) 0.4350(2)
O2 O 0.3991(7) 0.7434(3) 0.5979(2)
O3 O 0.5155(5) 0.7188(3) 0.43916(16)
O4 O 1.2165(5) 0.6296(2) 0.48911(19)
O5 O 0.6386(7) 0.6708(3) 0.6005(2)
O6 O 0.9631(5) 0.5913(2) 0.5192(2)
Dy1C Dy 0.28493(3) 0.785426(15) 0.495748(13)
Dy1C_2 Dy 1.28493(3) 0.785426(15) 0.495748(13)
O2C O 0.8991(7) 0.7566(3) 0.4021(2)
O3C O 1.0155(5) 0.7812(3) 0.56084(16)
O4C O 0.7165(5) 0.8704(2) 0.51089(19)
loop_
_geom_bond_atom_site_label_1
_geom_bond_atom_site_label_2
_geom_bond_site_symmetry_1
_geom_bond_site_symmetry_2
C1 C2 1_555 1_555
C2 C3 1_555 1_555
C3 H1 1_555 1_555
C4 C3 1_555 1_555
H2 C4 1_555 1_555
C5 C4 1_555 1_555
H3 C5 1_555 1_555
C6 C5 1_555 1_555
H4 C6 1_555 1_555
C7 C2 1_555 1_555
C8 C7 1_555 1_555
H5 C8 1_555 1_555
H6 C8 1_555 1_555
H7 C8 1_555 1_555
C9 C10 1_555 1_555
C10 C11 1_555 1_555
C11 H8 1_555 1_555
C12 C11 1_555 1_555
H9 C12 1_555 1_555
C13 C12 1_555 1_555
H10 C13 1_555 1_555
C14 C13 1_555 1_555
H11 C14 1_555 1_555
C15 C10 1_555 1_555
C16 C15 1_555 1_555
H12 C16 1_555 1_555
H13 C16 1_555 1_555
H14 C16 1_555 1_555
C17 C18 1_555 1_555
C18 C19 1_555 1_555
C19 H15 1_555 1_555
C20 C19 1_555 1_555
H16 C20 1_555 1_555
C21 C20 1_555 1_555
H17 C21 1_555 1_555
C22 C21 1_555 1_555
H18 C22 1_555 1_555
C23 C18 1_555 1_555
C24 C23 1_555 1_555
H19 C24 1_555 1_555
H20 C24 1_555 1_555
H21 C24 1_555 1_555
Dy1 O1 1_555 1_555
O1 C17 1_555 1_555
O2 C1 1_555 1_555
O3 C17 1_555 1_555
O4 C9 1_555 1_555
O5 C1 1_555 1_555
O6 C9 1_555 1_555
Dy1C O2 1_555 1_555
Dy1C_2 O4 1_555 1_555
O2C Dy1 1_555 1_555
O3C Dy1 1_555 1_555
O4C Dy1 1_555 1_555
C6 C7 1_555 1_555
C14 C15 1_555 1_555
C22 C23 1_555 1_555
Dy1 O3 1_555 1_555
Dy1 O5 1_555 1_555
Dy1 O6 1_555 1_555
O3 Dy1C 1_555 1_555
Dy1C_2 O3C 1_555 1_555

#END
