
#######################################################################
#
#                 Cambridge Crystallographic Data Centre
#                                CCDC 
#
#######################################################################
#
# If this CIF has been generated from an entry in the Cambridge 
# Structural Database, then it will include bibliographic, chemical, 
# crystal, experimental, refinement or atomic coordinate data resulting 
# from the CCDC's data processing and validation procedures.
#
#######################################################################

data_RAKMUN
_symmetry_cell_setting           monoclinic
_symmetry_space_group_name_H-M   'C 2/m'
_symmetry_Int_Tables_number      12
_space_group_name_Hall           '-C 2y'
loop_
_symmetry_equiv_pos_site_id
_symmetry_equiv_pos_as_xyz
1 x,y,z
2 -x,y,-z
3 1/2+x,1/2+y,z
4 1/2-x,1/2+y,-z
5 -x,-y,-z
6 x,-y,z
7 1/2-x,1/2-y,-z
8 1/2+x,1/2-y,z
_cell_length_a                   21.432(15)
_cell_length_b                   7.175(5)
_cell_length_c                   7.696(5)
_cell_angle_alpha                90
_cell_angle_beta                 105.119(9)
_cell_angle_gamma                90
_cell_volume                     1142.49
loop_
_atom_site_label
_atom_site_type_symbol
_atom_site_fract_x
_atom_site_fract_y
_atom_site_fract_z
Co1 Co 0.2500 0.2500 0.5000
C1 C 0.4330(3) 0.0000 0.7068(9)
C2 C 0.5023(3) 0.0000 0.7748(10)
C3 C 0.5368(2) 0.1644(7) 0.8118(8)
H1 H 0.5154 0.2780 0.7887
C4 C 0.6018(2) 0.1609(6) 0.8817(7)
H2 H 0.6242 0.2727 0.9073
C5 C 0.7064(3) 0.0000 0.9756(9)
H3 H 0.722(2) -0.121(7) 1.035(6)
C6 C 0.7319(3) 0.0000 0.8105(9)
N1 N 0.33575(18) 0.0913(5) 0.6150(5)
N2 N 0.39593(18) 0.1539(5) 0.6714(5)
N3 N 0.1070(4) 0.0000 0.6329(13)
N4 N 0.1537(3) 0.0000 0.5839(9)
N5 N 0.2015(3) 0.0000 0.5304(8)
N6 N 0.6342(3) 0.0000 0.9147(7)
O1 O 0.74086(15) -0.1659(6) 0.7520(4)
Co1C Co 0.2500 -0.2500 0.5000
Co1B Co 0.7500 -0.2500 0.5000
Co1A Co 0.7500 0.2500 0.5000
C3E C 0.5368(2) -0.1644(7) 0.8118(8)
H1E H 0.5154 -0.2780 0.7887
C4E C 0.6018(2) -0.1609(6) 0.8817(7)
H2E H 0.6242 -0.2727 0.9073
H3E H 0.722(2) 0.121(7) 1.035(6)
N1E N 0.33575(18) -0.0913(5) 0.6150(5)
N1F N 0.16425(18) 0.4087(5) 0.3850(5)
N2E N 0.39593(18) -0.1539(5) 0.6714(5)
N5C N 0.2985(3) 0.5000 0.4696(8)
O1E O 0.74086(15) 0.1659(6) 0.7520(4)
O1B O 0.24086(15) 0.3341(6) 0.7520(4)
O1D O 0.25914(15) 0.1659(6) 0.2480(4)
O2 O 0.4107(5) 0.5000 0.8777(9)
H4 H 0.407(4) 0.4035(14) 0.808(5)
H4E H 0.407(4) 0.5965(14) 0.808(5)
loop_
_geom_bond_atom_site_label_1
_geom_bond_atom_site_label_2
_geom_bond_site_symmetry_1
_geom_bond_site_symmetry_2
Co1 N1 1_555 1_555
C1 C2 1_555 1_555
C2 C3 1_555 1_555
C3 H1 1_555 1_555
C4 C3 1_555 1_555
H2 C4 1_555 1_555
C5 H3 1_555 1_555
C6 C5 1_555 1_555
N1 N2 1_555 1_555
N2 C1 1_555 1_555
N3 N4 1_555 1_555
N4 N5 1_555 1_555
N5 Co1 1_555 1_555
N6 C4 1_555 1_555
O1 C6 1_555 1_555
O2 H4 1_555 1_555
Co1C N5 1_555 1_555
Co1B O1 1_555 1_555
Co1A O1E 1_555 1_555
C3E C2 1_555 1_555
H1E C3E 1_555 1_555
C4E N6 1_555 1_555
H2E C4E 1_555 1_555
H3E C5 1_555 1_555
N1E N1 1_555 1_555
N1F Co1 1_555 1_555
N2E C1 1_555 1_555
N5C Co1 1_555 1_555
O1E C6 1_555 1_555
O1B Co1 1_555 1_555
O1D Co1 1_555 1_555
H4E O2 1_555 1_555
C5 N6 1_555 1_555
Co1C N1E 1_555 1_555
C3E C4E 1_555 1_555
N1E N2E 1_555 1_555

#END
