
#######################################################################
#
#                 Cambridge Crystallographic Data Centre
#                                CCDC 
#
#######################################################################
#
# If this CIF has been generated from an entry in the Cambridge 
# Structural Database, then it will include bibliographic, chemical, 
# crystal, experimental, refinement or atomic coordinate data resulting 
# from the CCDC's data processing and validation procedures.
#
#######################################################################

data_RAKYIL
_symmetry_cell_setting           monoclinic
_symmetry_space_group_name_H-M   'P 21/c'
_symmetry_Int_Tables_number      14
_space_group_name_Hall           '-P 2ybc'
loop_
_symmetry_equiv_pos_site_id
_symmetry_equiv_pos_as_xyz
1 x,y,z
2 -x,1/2+y,1/2-z
3 -x,-y,-z
4 x,1/2-y,1/2+z
_cell_length_a                   11.0278(18)
_cell_length_b                   8.5748(14)
_cell_length_c                   7.9845(13)
_cell_angle_alpha                90
_cell_angle_beta                 102.631(3)
_cell_angle_gamma                90
_cell_volume                     736.751
loop_
_atom_site_label
_atom_site_type_symbol
_atom_site_fract_x
_atom_site_fract_y
_atom_site_fract_z
K1 K 0.02531(4) 0.22911(5) 0.20591(6)
S1 S 0.20366(4) -0.06240(5) 0.55415(6)
O1 O 0.14169(12) -0.01168(17) 0.38348(19)
O2 O 0.20563(14) 0.0585(2) 0.6818(2)
O3 O 0.15252(12) -0.20802(17) 0.6008(2)
O4 O 0.1386(2) 0.0476(2) -0.0062(3)
H1 H 0.177(3) 0.036(4) -0.079(4)
H2 H 0.157(3) -0.017(4) 0.059(5)
C1 C 0.39444(15) 0.1729(2) 0.4574(3)
H3 H 0.3132 0.1993 0.4607
C2 C 0.43727(14) 0.01906(19) 0.5009(2)
C3 C 0.36089(14) -0.1001(2) 0.5486(2)
C4 C 0.40665(17) -0.2457(2) 0.5928(3)
H4 H 0.3558 -0.3211 0.6257
C5 C 0.46998(17) 0.2824(2) 0.4110(3)
H5 H 0.4397 0.3822 0.3817
C4B C 0.59335(17) 0.2457(2) 0.4072(3)
C3B C 0.63911(14) 0.1001(2) 0.4514(2)
S1B S 0.79634(4) 0.06240(5) 0.44585(6)
O1B O 0.85831(12) 0.01168(17) 0.61652(19)
O2B O 0.79437(14) -0.0585(2) 0.3182(2)
O3B O 0.84748(12) 0.20802(17) 0.3992(2)
C2B C 0.56273(14) -0.01906(19) 0.4991(2)
C1B C 0.60556(15) -0.1729(2) 0.5426(3)
H3B H 0.6868 -0.1993 0.5393
C5B C 0.53002(17) -0.2824(2) 0.5890(3)
H5B H 0.5603 -0.3822 0.6183
H4B H 0.6442 0.3211 0.3743
O4C O 0.1386(2) 0.4524(2) 0.4938(3)
H1C H 0.177(3) 0.464(4) 0.421(4)
H2C H 0.157(3) 0.517(4) 0.559(5)
K1B K 0.97469(4) -0.22911(5) 0.79409(6)
O1A O -0.14169(12) 0.48832(17) 0.11652(19)
O2C O 0.20563(14) 0.4415(2) 0.1818(2)
O3B_2 O -0.15252(12) 0.20802(17) 0.3992(2)
O3A O -0.15252(12) 0.29198(17) -0.1008(2)
O4B O -0.1386(2) -0.0476(2) 0.0062(3)
K1A K -0.02531(4) -0.27089(5) 0.29409(6)
K1C K 0.02531(4) 0.27089(5) 0.70591(6)
K1B_2 K -0.02531(4) -0.22911(5) 0.79409(6)
K1C_2 K 0.02531(4) 0.27089(5) -0.29409(6)
K1B_3 K -0.02531(4) -0.22911(5) -0.20591(6)
K1C_3 K 1.02531(4) 0.27089(5) 0.70591(6)
K1A_2 K 0.97469(4) -0.27089(5) 0.29409(6)
K1_2 K 1.02531(4) 0.22911(5) 0.20591(6)
K1A_3 K -0.02531(4) 0.72911(5) 0.29409(6)
O1C O 1.14169(12) -0.48832(17) 0.88348(19)
O2A O 0.79437(14) -0.4415(2) 0.8182(2)
O3_2 O 1.15252(12) -0.20802(17) 0.6008(2)
O3C O 1.15252(12) -0.29198(17) 1.1008(2)
O4_2 O 1.1386(2) 0.0476(2) 0.9938(3)
O4B_2 O 0.8614(2) -0.0476(2) 1.0062(3)
O4A O 0.8614(2) -0.4524(2) 0.5062(3)
H1B H -0.177(3) -0.036(4) 0.079(4)
H2B H -0.157(3) 0.017(4) -0.059(5)
H1_2 H 1.177(3) 0.036(4) 0.921(4)
H2_2 H 1.157(3) -0.017(4) 1.059(5)
H1B_2 H 0.823(3) -0.036(4) 1.079(4)
H2B_2 H 0.843(3) 0.017(4) 0.941(5)
H1A H 0.823(3) -0.464(4) 0.579(4)
H2A H 0.843(3) -0.517(4) 0.441(5)
loop_
_geom_bond_atom_site_label_1
_geom_bond_atom_site_label_2
_geom_bond_site_symmetry_1
_geom_bond_site_symmetry_2
K1 O1 1_555 1_555
S1 O1 1_555 1_555
O1 K1A 1_555 1_555
O2 S1 1_555 1_555
O3 S1 1_555 1_555
O4 K1 1_555 1_555
H1 O4 1_555 1_555
H2 O4 1_555 1_555
C1 H3 1_555 1_555
C2 C1 1_555 1_555
C3 S1 1_555 1_555
C4 C3 1_555 1_555
H4 C4 1_555 1_555
C5 C1 1_555 1_555
H5 C5 1_555 1_555
C4B C5 1_555 1_555
C3B C4B 1_555 1_555
S1B C3B 1_555 1_555
O1B S1B 1_555 1_555
O2B S1B 1_555 1_555
O3B S1B 1_555 1_555
C2B C2 1_555 1_555
C1B C2B 1_555 1_555
H3B C1B 1_555 1_555
C5B C4 1_555 1_555
H5B C5B 1_555 1_555
H4B C4B 1_555 1_555
O4C K1 1_555 1_555
H1C O4C 1_555 1_555
H2C O4C 1_555 1_555
K1B O1B 1_555 1_555
O1A K1 1_555 1_555
O2C K1 1_555 1_555
O3B_2 K1 1_555 1_555
O3A K1 1_555 1_555
O4B K1 1_555 1_555
K1A O3 1_555 1_555
K1C O2 1_555 1_555
K1B_2 O3 1_555 1_555
K1C_2 O4 1_555 1_555
K1B_3 O4 1_555 1_555
K1C_3 O1B 1_555 1_555
K1A_2 O2B 1_555 1_555
K1_2 O3B 1_555 1_555
K1A_3 O4C 1_555 1_555
O1C K1B 1_555 1_555
O2A K1B 1_555 1_555
O3_2 K1B 1_555 1_555
O3C K1B 1_555 1_555
O4_2 K1B 1_555 1_555
O4B_2 K1B 1_555 1_555
O4A K1B 1_555 1_555
H1B O4B 1_555 1_555
H2B O4B 1_555 1_555
H1_2 O4_2 1_555 1_555
H2_2 O4_2 1_555 1_555
H1B_2 O4B_2 1_555 1_555
H2B_2 O4B_2 1_555 1_555
H1A O4A 1_555 1_555
H2A O4A 1_555 1_555
C2 C3 1_555 1_555
C3B C2B 1_555 1_555
O3B K1C_3 1_555 1_555
C1B C5B 1_555 1_555
O4C K1C 1_555 1_555
O1A K1A_3 1_555 1_555
O3B_2 K1C 1_555 1_555
O3A K1C_2 1_555 1_555
O4B K1A 1_555 1_555
O4B K1B_3 1_555 1_555
K1C_3 O4_2 1_555 1_555
K1A_2 O3_2 1_555 1_555
K1A_2 O4A 1_555 1_555

#END
