
#######################################################################
#
#                 Cambridge Crystallographic Data Centre
#                                CCDC 
#
#######################################################################
#
# If this CIF has been generated from an entry in the Cambridge 
# Structural Database, then it will include bibliographic, chemical, 
# crystal, experimental, refinement or atomic coordinate data resulting 
# from the CCDC's data processing and validation procedures.
#
#######################################################################

data_RAKZEI
_symmetry_cell_setting           orthorhombic
_symmetry_space_group_name_H-M   'P n m a'
_symmetry_Int_Tables_number      62
_space_group_name_Hall           '-P 2ac 2n'
loop_
_symmetry_equiv_pos_site_id
_symmetry_equiv_pos_as_xyz
1 x,y,z
2 1/2-x,-y,1/2+z
3 -x,1/2+y,-z
4 1/2+x,1/2-y,1/2-z
5 -x,-y,-z
6 1/2+x,y,1/2-z
7 x,1/2-y,z
8 1/2-x,1/2+y,1/2+z
_cell_length_a                   9.7662(14)
_cell_length_b                   22.080(3)
_cell_length_c                   5.9870(8)
_cell_angle_alpha                90
_cell_angle_beta                 90
_cell_angle_gamma                90
_cell_volume                     1291.02
loop_
_atom_site_label
_atom_site_type_symbol
_atom_site_fract_x
_atom_site_fract_y
_atom_site_fract_z
Ba1 Ba -0.218910(18) -0.2500 -0.41181(3)
S1 S -0.05552(6) -0.15301(2) 0.07146(9)
O1 O -0.1256(3) -0.16245(9) -0.1385(4)
O2 O -0.1248(3) -0.18030(8) 0.2577(4)
O3 O 0.0865(2) -0.17116(9) 0.0585(4)
O4 O 0.0954(3) -0.2500 -0.4618(5)
C1 C 0.0813(2) -0.04982(9) -0.2169(4)
H1 H 0.0903 -0.0908 -0.2494
C2 C 0.0061(2) -0.03159(9) -0.0246(4)
C3 C -0.0589(2) -0.07365(9) 0.1232(4)
C4 C -0.1296(2) -0.05423(9) 0.3075(4)
H2 H -0.1707 -0.0822 0.4023
C5 C 0.1401(2) -0.00824(10) -0.3532(4)
H3 H 0.1880 -0.0211 -0.4787
H4 H 0.103(4) -0.2802(16) -0.531(6)
C4D C 0.1296(2) 0.05423(9) -0.3075(4)
C3D C 0.0589(2) 0.07365(9) -0.1232(4)
S1D S 0.05552(6) 0.15301(2) -0.07146(9)
O1D O 0.1256(3) 0.16245(9) 0.1385(4)
O2D O 0.1248(3) 0.18030(8) -0.2577(4)
O3D O -0.0865(2) 0.17116(9) -0.0585(4)
C2D C -0.0061(2) 0.03159(9) 0.0246(4)
C1D C -0.0813(2) 0.04982(9) 0.2169(4)
H1D H -0.0903 0.0908 0.2494
C5D C -0.1401(2) 0.00824(10) 0.3532(4)
H3D H -0.1880 0.0211 0.4787
H2D H 0.1707 0.0822 -0.4023
H4C H -0.397(4) -0.2198(16) 0.031(6)
O1F O -0.1256(3) -0.33755(9) -0.1385(4)
O2_2 O -0.1248(3) -0.18030(8) -0.7423(4)
O2F O -0.1248(3) -0.31970(8) -0.7423(4)
O3E O -0.4135(2) -0.17116(9) -0.5585(4)
O3C O -0.4135(2) -0.32884(9) -0.5585(4)
O4E O -0.4046(3) -0.2500 -0.0382(5)
Ba1_2 Ba -0.218910(18) -0.2500 0.58819(3)
Ba1E Ba 0.281090(18) -0.2500 -0.08819(3)
Ba1D Ba 0.218910(18) 0.2500 0.41181(3)
Ba1D_2 Ba 0.218910(18) 0.2500 -0.58819(3)
Ba1G Ba -0.281090(18) 0.2500 0.08819(3)
H4E H -0.397(4) -0.2802(16) 0.031(6)
H4F H 0.103(4) -0.2198(16) -0.531(6)
loop_
_geom_bond_atom_site_label_1
_geom_bond_atom_site_label_2
_geom_bond_site_symmetry_1
_geom_bond_site_symmetry_2
Ba1 O1 1_555 1_555
S1 O1 1_555 1_555
O2 S1 1_555 1_555
O3 S1 1_555 1_555
O4 Ba1 1_555 1_555
C1 H1 1_555 1_555
C2 C1 1_555 1_555
C3 S1 1_555 1_555
C4 C3 1_555 1_555
H2 C4 1_555 1_555
C5 C1 1_555 1_555
H3 C5 1_555 1_555
H4 O4 1_555 1_555
C4D C5 1_555 1_555
C3D C4D 1_555 1_555
S1D C3D 1_555 1_555
O1D S1D 1_555 1_555
O2D S1D 1_555 1_555
O3D S1D 1_555 1_555
C2D C2 1_555 1_555
C1D C2D 1_555 1_555
H1D C1D 1_555 1_555
C5D C4 1_555 1_555
H3D C5D 1_555 1_555
H2D C4D 1_555 1_555
H4C O4E 1_555 1_555
O1F Ba1 1_555 1_555
O2_2 Ba1 1_555 1_555
O2F Ba1 1_555 1_555
O3E Ba1 1_555 1_555
O3C Ba1 1_555 1_555
O4E Ba1 1_555 1_555
Ba1_2 O2 1_555 1_555
Ba1E O3 1_555 1_555
Ba1D O1D 1_555 1_555
Ba1D_2 O2D 1_555 1_555
Ba1G O3D 1_555 1_555
H4E O4E 1_555 1_555
H4F O4 1_555 1_555
O4 Ba1E 1_555 1_555
C2 C3 1_555 1_555
C3D C2D 1_555 1_555
C1D C5D 1_555 1_555

#END
