
#######################################################################
#
#                 Cambridge Crystallographic Data Centre
#                                CCDC 
#
#######################################################################
#
# If this CIF has been generated from an entry in the Cambridge 
# Structural Database, then it will include bibliographic, chemical, 
# crystal, experimental, refinement or atomic coordinate data resulting 
# from the CCDC's data processing and validation procedures.
#
#######################################################################

data_RALJIZ
_symmetry_cell_setting           monoclinic
_symmetry_space_group_name_H-M   'C 2/c'
_symmetry_Int_Tables_number      15
_space_group_name_Hall           '-C 2yn'
loop_
_symmetry_equiv_pos_site_id
_symmetry_equiv_pos_as_xyz
1 x,y,z
2 -x,y,1/2-z
3 1/2+x,1/2+y,z
4 1/2-x,1/2+y,1/2-z
5 -x,-y,-z
6 x,-y,1/2+z
7 1/2-x,1/2-y,-z
8 1/2+x,1/2-y,1/2+z
_cell_length_a                   11.0748(4)
_cell_length_b                   11.1906(4)
_cell_length_c                   19.8326(6)
_cell_angle_alpha                90
_cell_angle_beta                 96.132(2)
_cell_angle_gamma                90
_cell_volume                     2443.86
loop_
_atom_site_label
_atom_site_type_symbol
_atom_site_fract_x
_atom_site_fract_y
_atom_site_fract_z
Ag1 Ag 0.08216(3) 0.58107(3) 0.470830(13)
O1 O 0.0961(2) 0.6512(3) 0.58334(12)
O2 O 0.0926(2) 0.4560(2) 0.60474(12)
N1 N 0.4071(3) 0.2755(3) 1.07438(14)
N2 N 0.2404(3) 0.5609(2) 0.95552(13)
C1 C 0.3642(3) 0.3630(3) 1.03268(17)
C2 C 0.3814(3) 0.4834(3) 1.04618(16)
C3 C 0.4503(4) 0.5140(4) 1.10618(19)
C4 C 0.4943(4) 0.4263(4) 1.15044(19)
C5 C 0.4700(4) 0.3097(4) 1.1328(2)
C6 C 0.3339(3) 0.5742(3) 0.99739(17)
C7 C 0.2061(4) 0.6623(3) 0.91075(17)
C8 C 0.1902(3) 0.6309(3) 0.83605(16)
C9 C 0.1759(3) 0.5155(3) 0.81173(18)
C10 C 0.1521(3) 0.4944(3) 0.74344(17)
C11 C 0.1438(3) 0.5875(3) 0.69672(15)
C12 C 0.1617(4) 0.7018(4) 0.72108(18)
C13 C 0.1850(4) 0.7232(3) 0.78993(18)
C14 C 0.1090(3) 0.5626(4) 0.62249(17)
H1 H 0.325(3) 0.336(3) 0.9915(18)
H2 H 0.467(3) 0.591(3) 1.1119(18)
H3 H 0.547(4) 0.444(3) 1.189(2)
H4 H 0.494(3) 0.255(3) 1.1581(19)
H5 H 0.378(3) 0.648(3) 0.9980(15)
H6 H 0.121(3) 0.688(3) 0.9234(16)
H7 H 0.266(3) 0.733(3) 0.9183(17)
H8 H 0.179(3) 0.451(3) 0.8401(17)
H9 H 0.140(3) 0.416(3) 0.7264(18)
H10 H 0.155(3) 0.764(3) 0.692(2)
H11 H 0.194(3) 0.802(4) 0.805(2)
Ag1D Ag -0.08216(3) 0.41893(3) 0.529170(13)
Ag1C Ag 0.41784(3) 0.08107(3) 1.029170(13)
Ag1E Ag 0.08216(3) 0.41893(3) 0.970830(13)
O2D O -0.0926(2) 0.5440(2) 0.39526(12)
N1C N 0.0929(3) 0.7755(3) 0.42562(14)
N2E N 0.2404(3) 0.4391(2) 0.45552(13)
loop_
_geom_bond_atom_site_label_1
_geom_bond_atom_site_label_2
_geom_bond_site_symmetry_1
_geom_bond_site_symmetry_2
Ag1 O1 1_555 1_555
O1 C14 1_555 1_555
O2 C14 1_555 1_555
N1 C1 1_555 1_555
N2 C6 1_555 1_555
C1 C2 1_555 1_555
C2 C3 1_555 1_555
C3 C4 1_555 1_555
C4 C5 1_555 1_555
C5 N1 1_555 1_555
C6 C2 1_555 1_555
C7 N2 1_555 1_555
C8 C7 1_555 1_555
C9 C8 1_555 1_555
C10 C9 1_555 1_555
C11 C10 1_555 1_555
C12 C11 1_555 1_555
C13 C8 1_555 1_555
C14 C11 1_555 1_555
H1 C1 1_555 1_555
H2 C3 1_555 1_555
H3 C4 1_555 1_555
H4 C5 1_555 1_555
H5 C6 1_555 1_555
H6 C7 1_555 1_555
H7 C7 1_555 1_555
H8 C9 1_555 1_555
H9 C10 1_555 1_555
H10 C12 1_555 1_555
H11 C13 1_555 1_555
Ag1D O2 1_555 1_555
Ag1C N1 1_555 1_555
Ag1E N2 1_555 1_555
O2D Ag1 1_555 1_555
N1C Ag1 1_555 1_555
N2E Ag1 1_555 1_555
C12 C13 1_555 1_555

#END
