
#######################################################################
#
#                 Cambridge Crystallographic Data Centre
#                                CCDC 
#
#######################################################################
#
# If this CIF has been generated from an entry in the Cambridge 
# Structural Database, then it will include bibliographic, chemical, 
# crystal, experimental, refinement or atomic coordinate data resulting 
# from the CCDC's data processing and validation procedures.
#
#######################################################################

data_RALJOF
_symmetry_cell_setting           triclinic
_symmetry_space_group_name_H-M   'P -1'
_symmetry_Int_Tables_number      2
_space_group_name_Hall           '-P 1'
loop_
_symmetry_equiv_pos_site_id
_symmetry_equiv_pos_as_xyz
1 x,y,z
2 -x,-y,-z
_cell_length_a                   9.690(2)
_cell_length_b                   13.1566(11)
_cell_length_c                   13.6689(11)
_cell_angle_alpha                117.759(4)
_cell_angle_beta                 94.746(5)
_cell_angle_gamma                102.800(5)
_cell_volume                     1468.42
loop_
_atom_site_label
_atom_site_type_symbol
_atom_site_fract_x
_atom_site_fract_y
_atom_site_fract_z
Cd1 Cd 0.497827(18) 0.848936(14) 0.475785(13)
O1 O 0.4019(2) 1.00278(16) 0.59307(14)
O2 O 0.5444(3) 0.95102(18) 0.68336(17)
O3 O 0.4692(2) 0.67930(18) 0.27342(16)
O4 O 0.3163(2) 0.78634(16) 0.32885(15)
N1 N 0.5879(3) 1.31666(19) 1.49462(17)
N2 N 0.3987(3) 1.3176(2) 1.2072(2)
N3 N 0.2631(2) 0.13461(19) -0.50808(17)
N4 N 0.1077(3) 0.4095(2) -0.29348(18)
C1 C 0.5261(3) 1.3157(2) 1.4035(2)
H1 H 0.4461 1.2512 1.3542
C2 C 0.5754(4) 1.4066(2) 1.3788(2)
C3 C 0.6946(4) 1.5019(3) 1.4530(3)
H2 H 0.7310 1.5643 1.4390
C4 C 0.7587(4) 1.5038(3) 1.5473(3)
H3 H 0.8397 1.5665 1.5976
C5 C 0.7003(3) 1.4106(3) 1.5657(2)
H4 H 0.7414 1.4135 1.6312
C6 C 0.5031(4) 1.4039(3) 1.2782(3)
H5 H 0.5364 1.4690 1.2672
C7 C 0.3370(5) 1.3272(3) 1.1110(2)
H6 H 0.3789 1.4081 1.1248
H7 H 0.2334 1.3134 1.1051
C8 C 0.3646(3) 1.2384(3) 1.0005(2)
C9 C 0.4595(4) 1.1726(3) 0.9948(2)
H8 H 0.5051 1.1791 1.0609
C10 C 0.4881(4) 1.0971(3) 0.8923(2)
H9 H 0.5506 1.0520 0.8901
C11 C 0.4243(3) 1.0884(2) 0.79320(19)
C12 C 0.3292(3) 1.1541(2) 0.7984(2)
H10 H 0.2851 1.1488 0.7324
C13 C 0.2989(3) 1.2275(3) 0.9006(2)
H11 H 0.2336 1.2702 0.9025
C14 C 0.4603(3) 1.0092(2) 0.6834(2)
C15 C 0.1705(3) 0.0408(3) -0.6005(3)
H12 H 0.2054 -0.0179 -0.6529
C16 C 0.0251(4) 0.0293(3) -0.6194(3)
H13 H -0.0373 -0.0363 -0.6844
C17 C -0.0276(3) 0.1141(3) -0.5429(3)
H14 H -0.1263 0.1059 -0.5547
C18 C 0.0671(3) 0.2131(2) -0.4470(2)
C19 C 0.2116(3) 0.2171(2) -0.4348(2)
H15 H 0.2766 0.2821 -0.3709
C20 C 0.0191(3) 0.3091(3) -0.3621(2)
H16 H -0.0784 0.2955 -0.3591
C21 C 0.0524(4) 0.5006(3) -0.2112(2)
H17 H 0.0559 0.5633 -0.2304
H18 H -0.0481 0.4645 -0.2149
C22 C 0.1384(3) 0.5559(2) -0.0918(2)
C23 C 0.0928(4) 0.6379(3) -0.0032(2)
H19 H 0.0121 0.6596 -0.0185
C24 C 0.1649(3) 0.6880(3) 0.1075(2)
H20 H 0.1326 0.7432 0.1660
C25 C 0.2846(3) 0.6565(2) 0.1321(2)
C26 C 0.3313(3) 0.5757(2) 0.0435(2)
H21 H 0.4129 0.5548 0.0586
C27 C 0.2588(3) 0.5257(2) -0.0668(2)
H22 H 0.2914 0.4707 -0.1252
C28 C 0.3624(3) 0.7100(2) 0.2519(2)
Cd1A Cd 0.502173(18) 1.151064(14) 0.524215(13)
Cd1A_2 Cd 0.502173(18) 1.151064(14) 1.524215(13)
Cd1A_3 Cd 0.502173(18) 0.151064(14) -0.475785(13)
O1A O 0.5981(2) 0.99722(16) 0.40693(14)
N1A N 0.4121(3) 0.68334(19) 0.50538(17)
N3A N 0.7369(2) 0.86539(19) 0.50808(17)
O5 O 0.8311(7) 0.8989(10) 0.8249(7)
O6 O 1.1742(11) 0.8123(9) 0.7774(9)
C29 C 1.0324(8) 0.7484(5) 0.7593(7)
H23 H 1.0278 0.6685 0.7438
H24 H 0.9757 0.7443 0.6959
H25 H 0.9949 0.7877 0.8255
loop_
_geom_bond_atom_site_label_1
_geom_bond_atom_site_label_2
_geom_bond_site_symmetry_1
_geom_bond_site_symmetry_2
Cd1 O1 1_555 1_555
O1 C14 1_555 1_555
O2 Cd1 1_555 1_555
O3 Cd1 1_555 1_555
O4 Cd1 1_555 1_555
O6 C29 1_555 1_555
N1 C1 1_555 1_555
N2 C6 1_555 1_555
N3 C15 1_555 1_555
N4 C20 1_555 1_555
C1 H1 1_555 1_555
C2 C1 1_555 1_555
C3 C2 1_555 1_555
H2 C3 1_555 1_555
C4 C3 1_555 1_555
H3 C4 1_555 1_555
C5 N1 1_555 1_555
H4 C5 1_555 1_555
C6 C2 1_555 1_555
H5 C6 1_555 1_555
C7 N2 1_555 1_555
H6 C7 1_555 1_555
H7 C7 1_555 1_555
C8 C7 1_555 1_555
C9 C8 1_555 1_555
H8 C9 1_555 1_555
C10 C9 1_555 1_555
H9 C10 1_555 1_555
C11 C10 1_555 1_555
C12 C11 1_555 1_555
H10 C12 1_555 1_555
C13 C8 1_555 1_555
H11 C13 1_555 1_555
C14 O2 1_555 1_555
C15 H12 1_555 1_555
C16 C15 1_555 1_555
H13 C16 1_555 1_555
C17 C16 1_555 1_555
H14 C17 1_555 1_555
C18 C17 1_555 1_555
C19 N3 1_555 1_555
H15 C19 1_555 1_555
C20 C18 1_555 1_555
H16 C20 1_555 1_555
C21 N4 1_555 1_555
H17 C21 1_555 1_555
H18 C21 1_555 1_555
C22 C21 1_555 1_555
C23 C22 1_555 1_555
H19 C23 1_555 1_555
C24 C23 1_555 1_555
H20 C24 1_555 1_555
C25 C24 1_555 1_555
C26 C25 1_555 1_555
H21 C26 1_555 1_555
C27 C22 1_555 1_555
H22 C27 1_555 1_555
C28 O3 1_555 1_555
C29 H23 1_555 1_555
H24 C29 1_555 1_555
H25 C29 1_555 1_555
Cd1A O1 1_555 1_555
Cd1A_2 N1 1_555 1_555
Cd1A_3 N3 1_555 1_555
O1A Cd1 1_555 1_555
N1A Cd1 1_555 1_555
N3A Cd1 1_555 1_555
O4 C28 1_555 1_555
C4 C5 1_555 1_555
C11 C14 1_555 1_555
C12 C13 1_555 1_555
C18 C19 1_555 1_555
C25 C28 1_555 1_555
C26 C27 1_555 1_555
Cd1A O1A 1_555 1_555

#END
