
#######################################################################
#
#                 Cambridge Crystallographic Data Centre
#                                CCDC 
#
#######################################################################
#
# If this CIF has been generated from an entry in the Cambridge 
# Structural Database, then it will include bibliographic, chemical, 
# crystal, experimental, refinement or atomic coordinate data resulting 
# from the CCDC's data processing and validation procedures.
#
#######################################################################

data_RALRED
_symmetry_cell_setting           monoclinic
_symmetry_space_group_name_H-M   'P 21/c'
_symmetry_Int_Tables_number      14
_space_group_name_Hall           '-P 2ybc'
loop_
_symmetry_equiv_pos_site_id
_symmetry_equiv_pos_as_xyz
1 x,y,z
2 -x,1/2+y,1/2-z
3 -x,-y,-z
4 x,1/2-y,1/2+z
_cell_length_a                   8.2748(3)
_cell_length_b                   13.9991(4)
_cell_length_c                   18.4127(8)
_cell_angle_alpha                90
_cell_angle_beta                 104.688(3)
_cell_angle_gamma                90
_cell_volume                     2063.22
loop_
_atom_site_label
_atom_site_type_symbol
_atom_site_fract_x
_atom_site_fract_y
_atom_site_fract_z
C1 C 0.2959(3) 0.1478(2) 0.33132(14)
H1 H 0.2024 0.1772 0.3007
C2 C 0.5195(5) 0.0638(3) 0.3670(2)
H2 H 0.6104 0.0247 0.3671
C3 C 0.4802(4) 0.1010(3) 0.42735(19)
H3 H 0.5400 0.0916 0.4769
C4 C 0.3950(6) 0.0738(3) 0.2272(2)
H4 H 0.357(6) 0.009(3) 0.220(3)
H5 H 0.498(5) 0.082(3) 0.218(2)
H6 H 0.311(6) 0.114(3) 0.198(3)
C5 C 0.2076(3) 0.4334(2) 0.51919(14)
H7 H 0.1632 0.4185 0.5594
C6 C 0.3093(4) 0.5143(2) 0.44097(17)
H8 H 0.3486 0.5642 0.4168
C7 C 0.3031(4) 0.4219(2) 0.42206(14)
H9 H 0.3368 0.3966 0.3816
C8 C 0.2291(5) 0.6097(3) 0.5419(2)
H10 H 0.1700 0.5968 0.5794
H11 H 0.1679 0.6555 0.5067
H12 H 0.3377 0.6349 0.5655
C9 C 0.1558(3) 0.1340(2) 0.60749(14)
H13 H 0.2613 0.1498 0.6370
C10 C -0.0962(4) 0.0773(3) 0.57384(19)
H14 H -0.1960 0.0472 0.5745
C11 C -0.0603(4) 0.1218(3) 0.51486(17)
H15 H -0.1327 0.1277 0.4673
C12 C 0.0601(6) 0.0492(4) 0.7081(2)
H16 H 0.153(6) 0.073(4) 0.737(3)
H17 H 0.073(7) -0.017(5) 0.708(3)
H18 H -0.035(6) 0.064(3) 0.726(2)
C13 C 0.5702(3) 0.2340(2) 0.61795(14)
C14 C 0.9090(3) 0.3063(2) 0.67271(13)
C15 C 0.8956(3) 0.2587(2) 0.81815(14)
C16 C 0.5616(3) 0.1891(2) 0.76012(13)
N1 N 0.3390(3) 0.15471(17) 0.40490(11)
N2 N 0.4018(3) 0.09385(19) 0.30602(13)
N3 N 0.2393(3) 0.37016(17) 0.47155(10)
N4 N 0.2472(3) 0.52111(18) 0.50236(13)
N5 N 0.0996(3) 0.15719(17) 0.53588(12)
N6 N 0.0415(3) 0.08494(19) 0.63195(13)
N7 N 0.9905(3) 0.2669(2) 0.87463(13)
N8 N 0.4644(3) 0.2252(2) 0.56520(12)
N9 N 1.0085(4) 0.3408(3) 0.64883(15)
N10 N 0.4553(4) 0.1559(2) 0.78003(15)
Zn1 Zn 0.22190(4) 0.22788(3) 0.471312(16)
Pd1 Pd 0.73605(2) 0.247048(14) 0.717167(9)
N7C N -0.0095(3) 0.2331(2) 0.37463(13)
Zn1C Zn 1.22190(4) 0.27212(3) 0.971312(16)
loop_
_geom_bond_atom_site_label_1
_geom_bond_atom_site_label_2
_geom_bond_site_symmetry_1
_geom_bond_site_symmetry_2
C1 H1 1_555 1_555
C2 H2 1_555 1_555
C3 C2 1_555 1_555
H3 C3 1_555 1_555
C4 H4 1_555 1_555
H5 C4 1_555 1_555
H6 C4 1_555 1_555
C5 H7 1_555 1_555
C6 H8 1_555 1_555
C7 C6 1_555 1_555
H9 C7 1_555 1_555
C8 H10 1_555 1_555
H11 C8 1_555 1_555
H12 C8 1_555 1_555
C9 H13 1_555 1_555
C10 H14 1_555 1_555
C11 C10 1_555 1_555
H15 C11 1_555 1_555
C12 H16 1_555 1_555
H17 C12 1_555 1_555
H18 C12 1_555 1_555
C13 N8 1_555 1_555
C14 N9 1_555 1_555
C15 N7 1_555 1_555
C16 N10 1_555 1_555
N1 C1 1_555 1_555
N2 C1 1_555 1_555
N3 C5 1_555 1_555
N4 C5 1_555 1_555
N5 C9 1_555 1_555
N6 C9 1_555 1_555
N7 Zn1C 1_555 1_555
N8 Zn1 1_555 1_555
Zn1 N1 1_555 1_555
Pd1 C13 1_555 1_555
N7C Zn1 1_555 1_555
C2 N2 1_555 1_555
C3 N1 1_555 1_555
C4 N2 1_555 1_555
C6 N4 1_555 1_555
C7 N3 1_555 1_555
C8 N4 1_555 1_555
C10 N6 1_555 1_555
C11 N5 1_555 1_555
C12 N6 1_555 1_555
C14 Pd1 1_555 1_555
C15 Pd1 1_555 1_555
C16 Pd1 1_555 1_555
N3 Zn1 1_555 1_555
N5 Zn1 1_555 1_555

#END
