
#######################################################################
#
#                 Cambridge Crystallographic Data Centre
#                                CCDC 
#
#######################################################################
#
# If this CIF has been generated from an entry in the Cambridge 
# Structural Database, then it will include bibliographic, chemical, 
# crystal, experimental, refinement or atomic coordinate data resulting 
# from the CCDC's data processing and validation procedures.
#
#######################################################################

data_RALVIL
_symmetry_cell_setting           monoclinic
_symmetry_space_group_name_H-M   'P 21/c'
_symmetry_Int_Tables_number      14
_space_group_name_Hall           '-P 2ybc'
loop_
_symmetry_equiv_pos_site_id
_symmetry_equiv_pos_as_xyz
1 x,y,z
2 -x,1/2+y,1/2-z
3 -x,-y,-z
4 x,1/2-y,1/2+z
_cell_length_a                   9.7630(10)
_cell_length_b                   9.2950(10)
_cell_length_c                   15.1577(18)
_cell_angle_alpha                90
_cell_angle_beta                 116.313(8)
_cell_angle_gamma                90
_cell_volume                     1232.99
loop_
_atom_site_label
_atom_site_type_symbol
_atom_site_fract_x
_atom_site_fract_y
_atom_site_fract_z
Cu1 Cu 0.00000 0.00000 0.00000
V1 V 0.14064(3) 0.11068(3) 0.277648(18)
V2 V -0.15307(3) -0.04093(3) 0.28210(2)
O1 O 0.06292(15) 0.05971(15) 0.16275(8)
O2 O 0.31512(14) 0.04324(16) 0.33316(9)
O3 O -0.20013(16) -0.08062(15) 0.37142(10)
O4 O 0.03156(16) 0.04607(17) 0.33770(9)
O5 O 0.1499(2) 0.30245(15) 0.28722(11)
O6 O -0.28202(18) 0.06826(18) 0.20715(10)
N1 N 0.21322(15) -0.11698(15) 0.04030(9)
N2 N 0.11651(16) 0.16894(16) -0.01158(10)
H1 H 0.0971 0.1823 -0.0743
H2 H 0.1249 0.2607 0.0087
N3 N 0.40108(17) -0.37534(17) 0.11768(11)
H3 H 0.492 -0.4194 0.1337
H4 H 0.3417 -0.4428 0.1272
C1 C 0.2774(2) -0.1596(2) 0.14542(11)
H5 H 0.2015 -0.2154 0.1554
H6 H 0.298 -0.0735 0.1854
C2 C 0.2816(2) 0.1380(2) 0.04322(16)
H7 H 0.3333 0.1962 0.0186
H8 H 0.3177 0.1437 0.1157
C3 C 0.3399(2) -0.3361(2) 0.01268(13)
H9 H 0.3193 -0.4227 -0.0269
H10 H 0.415 -0.2797 0.0022
C4 C 0.1936(2) -0.2497(2) -0.01890(13)
H11 H 0.1565 -0.2232 -0.0876
H12 H 0.1166 -0.3099 -0.0134
C5 C 0.4234(2) -0.2473(2) 0.18041(12)
H13 H 0.504 -0.188 0.1789
H14 H 0.4547 -0.2776 0.2479
C6 C 0.3113(2) -0.0128(2) 0.01983(15)
H15 H 0.29 -0.0188 -0.0489
H16 H 0.418 -0.0368 0.0594
V1B V -0.14064(3) -0.11068(3) -0.277648(18)
V2B V 0.15307(3) 0.04093(3) -0.28210(2)
V2A V 0.15307(3) 0.45907(3) 0.21790(2)
V2C V -0.15307(3) -0.45907(3) -0.21790(2)
O1B O -0.06292(15) -0.05971(15) -0.16275(8)
O2B O -0.31512(14) -0.04324(16) -0.33316(9)
O3B O 0.20013(16) 0.08062(15) -0.37142(10)
O4B O -0.03156(16) -0.04607(17) -0.33770(9)
O5B O -0.1499(2) -0.30245(15) -0.28722(11)
O5A O -0.1499(2) -0.19755(15) 0.21278(11)
O5C O 0.1499(2) 0.19755(15) -0.21278(11)
O6B O 0.28202(18) -0.06826(18) -0.20715(10)
N1B N -0.21322(15) 0.11698(15) -0.04030(9)
N2B N -0.11651(16) -0.16894(16) 0.01158(10)
H1B H -0.0971 -0.1823 0.0743
H2B H -0.1249 -0.2607 -0.0087
N3B N -0.40108(17) 0.37534(17) -0.11768(11)
H3B H -0.492 0.4194 -0.1337
H4B H -0.3417 0.4428 -0.1272
C1B C -0.2774(2) 0.1596(2) -0.14542(11)
H5B H -0.2015 0.2154 -0.1554
H6B H -0.298 0.0735 -0.1854
C2B C -0.2816(2) -0.1380(2) -0.04322(16)
H7B H -0.3333 -0.1962 -0.0186
H8B H -0.3177 -0.1437 -0.1157
C3B C -0.3399(2) 0.3361(2) -0.01268(13)
H9B H -0.3193 0.4227 0.0269
H10B H -0.415 0.2797 -0.0022
C4B C -0.1936(2) 0.2497(2) 0.01890(13)
H11B H -0.1565 0.2232 0.0876
H12B H -0.1166 0.3099 0.0134
C5B C -0.4234(2) 0.2473(2) -0.18041(12)
H13B H -0.504 0.188 -0.1789
H14B H -0.4547 0.2776 -0.2479
C6B C -0.3113(2) 0.0128(2) -0.01983(15)
H15B H -0.29 0.0188 0.0489
H16B H -0.418 0.0368 -0.0594
loop_
_geom_bond_atom_site_label_1
_geom_bond_atom_site_label_2
_geom_bond_site_symmetry_1
_geom_bond_site_symmetry_2
Cu1 O1 1_555 1_555
V1 O1 1_555 1_555
V2 O3 1_555 1_555
O2 V1 1_555 1_555
O4 V1 1_555 1_555
O5 V1 1_555 1_555
O6 V2 1_555 1_555
N1 Cu1 1_555 1_555
N2 Cu1 1_555 1_555
H1 N2 1_555 1_555
H2 N2 1_555 1_555
N3 H3 1_555 1_555
H4 N3 1_555 1_555
C1 N1 1_555 1_555
H5 C1 1_555 1_555
H6 C1 1_555 1_555
C2 N2 1_555 1_555
H7 C2 1_555 1_555
H8 C2 1_555 1_555
C3 N3 1_555 1_555
H9 C3 1_555 1_555
H10 C3 1_555 1_555
C4 N1 1_555 1_555
H11 C4 1_555 1_555
H12 C4 1_555 1_555
C5 N3 1_555 1_555
H13 C5 1_555 1_555
H14 C5 1_555 1_555
C6 N1 1_555 1_555
H15 C6 1_555 1_555
H16 C6 1_555 1_555
V1B O1B 1_555 1_555
V2B O3B 1_555 1_555
V2A O5 1_555 1_555
V2C O5B 1_555 1_555
O1B Cu1 1_555 1_555
O2B V1B 1_555 1_555
O4B V1B 1_555 1_555
O5B V1B 1_555 1_555
O5A V2 1_555 1_555
O5C V2B 1_555 1_555
O6B V2B 1_555 1_555
N1B Cu1 1_555 1_555
N2B Cu1 1_555 1_555
H1B N2B 1_555 1_555
H2B N2B 1_555 1_555
N3B H3B 1_555 1_555
H4B N3B 1_555 1_555
C1B N1B 1_555 1_555
H5B C1B 1_555 1_555
H6B C1B 1_555 1_555
C2B N2B 1_555 1_555
H7B C2B 1_555 1_555
H8B C2B 1_555 1_555
C3B N3B 1_555 1_555
H9B C3B 1_555 1_555
H10B C3B 1_555 1_555
C4B N1B 1_555 1_555
H11B C4B 1_555 1_555
H12B C4B 1_555 1_555
C5B N3B 1_555 1_555
H13B C5B 1_555 1_555
H14B C5B 1_555 1_555
C6B N1B 1_555 1_555
H15B C6B 1_555 1_555
H16B C6B 1_555 1_555
V2 O4 1_555 1_555
C1 C5 1_555 1_555
C2 C6 1_555 1_555
C3 C4 1_555 1_555
V2B O4B 1_555 1_555
C1B C5B 1_555 1_555
C2B C6B 1_555 1_555
C3B C4B 1_555 1_555

#END
