
#######################################################################
#
#                 Cambridge Crystallographic Data Centre
#                                CCDC 
#
#######################################################################
#
# If this CIF has been generated from an entry in the Cambridge 
# Structural Database, then it will include bibliographic, chemical, 
# crystal, experimental, refinement or atomic coordinate data resulting 
# from the CCDC's data processing and validation procedures.
#
#######################################################################

data_RALVEH
_symmetry_cell_setting           monoclinic
_symmetry_space_group_name_H-M   'P 21/c'
_symmetry_Int_Tables_number      14
_space_group_name_Hall           '-P 2ybc'
loop_
_symmetry_equiv_pos_site_id
_symmetry_equiv_pos_as_xyz
1 x,y,z
2 -x,1/2+y,1/2-z
3 -x,-y,-z
4 x,1/2-y,1/2+z
_cell_length_a                   9.8810(10)
_cell_length_b                   9.4000(10)
_cell_length_c                   15.024(2)
_cell_angle_alpha                90
_cell_angle_beta                 116.542(9)
_cell_angle_gamma                90
_cell_volume                     1248.38
loop_
_atom_site_label
_atom_site_type_symbol
_atom_site_fract_x
_atom_site_fract_y
_atom_site_fract_z
Co1 Co 0.00000 0.00000 0.00000
V1 V 0.13941(3) 0.10714(3) 0.267029(18)
V2 V -0.15055(3) -0.03992(3) 0.286200(19)
O1 O 0.06487(12) 0.05431(13) 0.14947(7)
O2 O 0.31142(12) 0.04103(13) 0.32621(8)
O3 O -0.18469(14) -0.06578(14) 0.38293(9)
O4 O 0.03109(14) 0.04660(15) 0.32769(9)
O5 O 0.15095(18) 0.29551(13) 0.27615(10)
O6 O -0.28470(16) 0.06044(16) 0.20839(9)
N1 N 0.22155(14) -0.11541(15) 0.03974(9)
N2 N 0.12555(15) 0.17430(15) -0.01361(9)
H1 H 0.1005 0.1842 -0.0735
H2 H 0.1143 0.2632 0.0063
N3 N 0.40046(15) -0.37677(16) 0.11381(10)
H3 H 0.4774 -0.414 0.1313
H4 H 0.336 -0.435 0.1179
C1 C 0.28519(18) -0.1613(2) 0.14509(11)
H5 H 0.2087 -0.2152 0.1543
H6 H 0.3078 -0.0773 0.1868
C2 C 0.2871(2) 0.1397(2) 0.04485(14)
H7 H 0.3479 0.207 0.0293
H8 H 0.3147 0.1476 0.1153
C3 C 0.3423(2) -0.3328(2) 0.00812(12)
H9 H 0.3195 -0.4165 -0.0339
H10 H 0.419 -0.2782 -0.0004
C4 C 0.20056(19) -0.2435(2) -0.02266(12)
H11 H 0.1661 -0.2138 -0.0912
H12 H 0.1219 -0.3021 -0.0197
C5 C 0.42718(19) -0.2511(2) 0.18003(12)
H13 H 0.5089 -0.1941 0.1798
H14 H 0.4569 -0.2829 0.2476
C6 C 0.3189(2) -0.0086(2) 0.02198(14)
H15 H 0.3007 -0.0135 -0.047
H16 H 0.4245 -0.0312 0.0635
V1B V -0.13941(3) -0.10714(3) -0.267029(18)
V2B V 0.15055(3) 0.03992(3) -0.286200(19)
V2A V 0.15055(3) 0.46008(3) 0.213800(19)
V2C V -0.15055(3) -0.46008(3) -0.213800(19)
O1B O -0.06487(12) -0.05431(13) -0.14947(7)
O2B O -0.31142(12) -0.04103(13) -0.32621(8)
O3B O 0.18469(14) 0.06578(14) -0.38293(9)
O4B O -0.03109(14) -0.04660(15) -0.32769(9)
O5B O -0.15095(18) -0.29551(13) -0.27615(10)
O5A O -0.15095(18) -0.20449(13) 0.22385(10)
O5C O 0.15095(18) 0.20449(13) -0.22385(10)
O6B O 0.28470(16) -0.06044(16) -0.20839(9)
N1B N -0.22155(14) 0.11541(15) -0.03974(9)
N2B N -0.12555(15) -0.17430(15) 0.01361(9)
H1B H -0.1005 -0.1842 0.0735
H2B H -0.1143 -0.2632 -0.0063
N3B N -0.40046(15) 0.37677(16) -0.11381(10)
H3B H -0.4774 0.414 -0.1313
H4B H -0.336 0.435 -0.1179
C1B C -0.28519(18) 0.1613(2) -0.14509(11)
H5B H -0.2087 0.2152 -0.1543
H6B H -0.3078 0.0773 -0.1868
C2B C -0.2871(2) -0.1397(2) -0.04485(14)
H7B H -0.3479 -0.207 -0.0293
H8B H -0.3147 -0.1476 -0.1153
C3B C -0.3423(2) 0.3328(2) -0.00812(12)
H9B H -0.3195 0.4165 0.0339
H10B H -0.419 0.2782 0.0004
C4B C -0.20056(19) 0.2435(2) 0.02266(12)
H11B H -0.1661 0.2138 0.0912
H12B H -0.1219 0.3021 0.0197
C5B C -0.42718(19) 0.2511(2) -0.18003(12)
H13B H -0.5089 0.1941 -0.1798
H14B H -0.4569 0.2829 -0.2476
C6B C -0.3189(2) 0.0086(2) -0.02198(14)
H15B H -0.3007 0.0135 0.047
H16B H -0.4245 0.0312 -0.0635
loop_
_geom_bond_atom_site_label_1
_geom_bond_atom_site_label_2
_geom_bond_site_symmetry_1
_geom_bond_site_symmetry_2
Co1 O1 1_555 1_555
V1 O1 1_555 1_555
V2 O3 1_555 1_555
O2 V1 1_555 1_555
O4 V1 1_555 1_555
O5 V1 1_555 1_555
O6 V2 1_555 1_555
N1 Co1 1_555 1_555
N2 Co1 1_555 1_555
H1 N2 1_555 1_555
H2 N2 1_555 1_555
N3 H3 1_555 1_555
H4 N3 1_555 1_555
C1 N1 1_555 1_555
H5 C1 1_555 1_555
H6 C1 1_555 1_555
C2 N2 1_555 1_555
H7 C2 1_555 1_555
H8 C2 1_555 1_555
C3 N3 1_555 1_555
H9 C3 1_555 1_555
H10 C3 1_555 1_555
C4 N1 1_555 1_555
H11 C4 1_555 1_555
H12 C4 1_555 1_555
C5 N3 1_555 1_555
H13 C5 1_555 1_555
H14 C5 1_555 1_555
C6 N1 1_555 1_555
H15 C6 1_555 1_555
H16 C6 1_555 1_555
V1B O1B 1_555 1_555
V2B O3B 1_555 1_555
V2A O5 1_555 1_555
V2C O5B 1_555 1_555
O1B Co1 1_555 1_555
O2B V1B 1_555 1_555
O4B V1B 1_555 1_555
O5B V1B 1_555 1_555
O5A V2 1_555 1_555
O5C V2B 1_555 1_555
O6B V2B 1_555 1_555
N1B Co1 1_555 1_555
N2B Co1 1_555 1_555
H1B N2B 1_555 1_555
H2B N2B 1_555 1_555
N3B H3B 1_555 1_555
H4B N3B 1_555 1_555
C1B N1B 1_555 1_555
H5B C1B 1_555 1_555
H6B C1B 1_555 1_555
C2B N2B 1_555 1_555
H7B C2B 1_555 1_555
H8B C2B 1_555 1_555
C3B N3B 1_555 1_555
H9B C3B 1_555 1_555
H10B C3B 1_555 1_555
C4B N1B 1_555 1_555
H11B C4B 1_555 1_555
H12B C4B 1_555 1_555
C5B N3B 1_555 1_555
H13B C5B 1_555 1_555
H14B C5B 1_555 1_555
C6B N1B 1_555 1_555
H15B C6B 1_555 1_555
H16B C6B 1_555 1_555
V2 O4 1_555 1_555
C1 C5 1_555 1_555
C2 C6 1_555 1_555
C3 C4 1_555 1_555
V2B O4B 1_555 1_555
C1B C5B 1_555 1_555
C2B C6B 1_555 1_555
C3B C4B 1_555 1_555

#END
