
#######################################################################
#
#                 Cambridge Crystallographic Data Centre
#                                CCDC 
#
#######################################################################
#
# If this CIF has been generated from an entry in the Cambridge 
# Structural Database, then it will include bibliographic, chemical, 
# crystal, experimental, refinement or atomic coordinate data resulting 
# from the CCDC's data processing and validation procedures.
#
#######################################################################

data_RALXEI
_symmetry_cell_setting           hexagonal
_symmetry_space_group_name_H-M   'P 61 2 2'
_symmetry_Int_Tables_number      178
_space_group_name_Hall           "P 61 2' (0,0,5)"
loop_
_symmetry_equiv_pos_site_id
_symmetry_equiv_pos_as_xyz
1 x,y,z
2 -y,x-y,1/3+z
3 -x+y,-x,2/3+z
4 -x,-y,1/2+z
5 y,-x+y,5/6+z
6 x-y,x,1/6+z
7 y,x,1/3-z
8 x-y,-y,-z
9 -x,-x+y,2/3-z
10 -y,-x,5/6-z
11 -x+y,y,1/2-z
12 x,x-y,1/6-z
_cell_length_a                   19.4312(3)
_cell_length_b                   19.4312(3)
_cell_length_c                   55.9678(18)
_cell_angle_alpha                90
_cell_angle_beta                 90
_cell_angle_gamma                120
_cell_volume                     18300.7
loop_
_atom_site_label
_atom_site_type_symbol
_atom_site_fract_x
_atom_site_fract_y
_atom_site_fract_z
Cd1 Cd 1.49254(6) 1.0000 0.0000
Cl1 Cl 1.4846(4) 0.9823(4) 0.06259(8)
O1 O 0.6352(8) 0.3214(7) -0.0268(3)
O2 O 0.6813(10) 0.3261(9) 0.0264(2)
O3 O 1.5061(14) 1.0153(12) 0.0425(2)
O4 O 1.5441(13) 1.0035(14) 0.0805(4)
O5 O 1.417(2) 1.016(2) 0.0658(6)
O6 O 1.4418(17) 0.8931(12) 0.0605(3)
N1 N 1.3630(10) 0.9058(10) 0.0037(3)
N2 N 0.5343(7) 0.9028(7) -0.0005(2)
C1 C 1.3323(16) 0.8397(16) -0.0094(4)
H1 H 1.3665 0.8282 -0.0179
C2 C 1.2503(13) 0.7869(13) -0.0108(4)
H2 H 1.2310 0.7484 -0.0227
C3 C 1.1993(10) 0.7898(10) 0.0043(4)
C4 C 1.2338(10) 0.8585(17) 0.0188(4)
H3 H 1.2028 0.8707 0.0286
C5 C 1.3106(14) 0.9040(18) 0.0178(4)
H4 H 1.3313 0.9425 0.0297
C6 C 1.1112(13) 0.7311(11) 0.0082(4)
H5 H 1.0852 0.7357 0.0215
C7 C 1.0679(11) 0.6678(16) -0.0091(6)
H6 H 1.0982 0.6633 -0.0212
C8 C 0.9827(12) 0.6102(12) -0.0098(4)
C9 C 0.9543(13) 0.5579(14) -0.0269(5)
H7 H 0.9903 0.5588 -0.0380
C10 C 0.8715(9) 0.4983(13) -0.0301(4)
C11 C 0.8460(14) 0.4459(17) -0.0438(5)
H8 H 0.8824 0.4425 -0.0539
C12 C 0.7650(11) 0.3871(12) -0.0467(4)
H9 H 0.7457 0.3526 -0.0596
C13 C 0.7159(9) 0.3864(11) -0.0274(4)
C14 C 0.7415(10) 0.4377(10) -0.0094(3)
C15 C 0.8201(12) 0.4929(17) -0.0078(5)
C16 C 0.8566(14) 0.5468(13) 0.0114(4)
H10 H 0.8272 0.5412 0.0251
C17 C 0.9329(9) 0.6061(12) 0.0103(4)
H11 H 0.9538 0.6442 0.0224
C18 C 0.589(2) 0.294(2) -0.0469(6)
H12 H 0.5422 0.2423 -0.0446
H13 H 0.6186 0.2936 -0.0608
C19 C 0.565(4) 0.384(4) -0.0471(12)
H14 H 0.5317 0.3778 -0.0605
H15 H 0.6139 0.4337 -0.0484
H16 H 0.5385 0.3830 -0.0326
C20 C 0.784(3) 0.348(3) 0.0531(8)
H17 H 0.8018 0.3297 0.0665
H18 H 0.7915 0.3992 0.0565
H19 H 0.8147 0.3506 0.0392
C21 C 0.7081(18) 0.2971(16) 0.0491(5)
H20 H 0.6768 0.2949 0.0628
H21 H 0.7000 0.2443 0.0463
C22 C 0.6861(8) 0.4380(9) 0.0100(3)
C23 C 0.6634(8) 0.4961(9) 0.0093(2)
C24 C 0.6874(10) 0.5532(10) -0.0087(3)
H22 H 0.7232 0.5556 -0.0202
C25 C 0.6592(11) 0.6079(9) -0.0102(3)
H23 H 0.6715 0.6419 -0.0232
C26 C 0.6142(10) 0.6088(13) 0.0079(3)
C27 C 0.5945(11) 0.5570(14) 0.0266(3)
H24 H 0.5672 0.5607 0.0398
C28 C 0.6149(10) 0.5016(11) 0.0257(3)
C29 C 0.5944(12) 0.4410(14) 0.0479(3)
H25 H 0.5688 0.4447 0.0615
C30 C 0.6150(16) 0.3872(14) 0.0461(4)
H26 H 0.5981 0.3498 0.0583
C31 C 0.6613(10) 0.3783(12) 0.0272(3)
C32 C 0.5886(11) 0.6728(11) 0.0101(3)
H27 H 0.5582 0.6685 0.0235
C33 C 0.6038(14) 0.7295(13) -0.0038(5)
H28 H 0.6404 0.7365 -0.0156
C34 C 0.4962(12) 0.8349(11) 0.0123(3)
H29 H 0.4529 0.8256 0.0216
C35 C 0.5203(13) 0.7785(15) 0.0116(5)
H30 H 0.4984 0.7366 0.0224
C36 C 0.5778(12) 0.7832(13) -0.0052(4)
C37 C 0.6051(13) 0.8456(17) -0.0211(5)
H31 H 0.6381 0.8486 -0.0336
C38 C 0.5837(18) 0.9062(17) -0.0188(4)
H32 H 0.6032 0.9480 -0.0296
Cd1_2 Cd 0.49254(6) 1.0000 0.0000
Cl1G Cl 1.5023(6) 1.0177(4) -0.06259(8)
O1G O 1.3138(11) 1.6786(7) 0.0268(3)
O2G O 1.3552(13) 1.6739(9) -0.0264(2)
O3G O 1.4908(18) 0.9847(12) -0.0425(2)
O4G O 1.5406(19) 0.9965(14) -0.0805(4)
O5G O 1.401(3) 0.984(2) -0.0658(6)
O6G O 1.5487(21) 1.1069(12) -0.0605(3)
N1G N 1.4572(14) 1.0942(10) -0.0037(3)
N2G N 0.6315(10) 1.0972(7) 0.0005(2)
N2_2 N 1.5343(7) 0.9028(7) -0.0005(2)
N2G_2 N 1.6315(10) 1.0972(7) 0.0005(2)
C1G C 1.4926(23) 1.1603(16) 0.0094(4)
H1G H 1.5383 1.1718 0.0179
C2G C 1.4634(18) 1.2131(13) 0.0108(4)
H2G H 1.4826 1.2516 0.0227
C3G C 1.4095(14) 1.2102(10) -0.0043(4)
C4G C 1.3753(20) 1.1415(17) -0.0188(4)
H3G H 1.3321 1.1293 -0.0286
C5G C 1.4066(23) 1.0960(18) -0.0178(4)
H4G H 1.3888 1.0575 -0.0297
C6G C 1.3801(17) 1.2689(11) -0.0082(4)
H5G H 1.3495 1.2643 -0.0215
C7G C 1.4001(19) 1.3322(16) 0.0091(6)
H6G H 1.4349 1.3367 0.0212
C8G C 1.3725(17) 1.3898(12) 0.0098(4)
C9G C 1.3964(19) 1.4421(14) 0.0269(5)
H7G H 1.4315 1.4412 0.0380
C10G C 1.3732(16) 1.5017(13) 0.0301(4)
C11G C 1.4001(22) 1.5541(17) 0.0438(5)
H8G H 1.4399 1.5575 0.0539
C12G C 1.3779(16) 1.6129(12) 0.0467(4)
H9G H 1.3931 1.6474 0.0596
C13G C 1.3295(14) 1.6136(11) 0.0274(4)
C14G C 1.3038(14) 1.5623(10) 0.0094(3)
C15G C 1.3272(21) 1.5071(17) 0.0078(5)
C16G C 1.3098(19) 1.4532(13) -0.0114(4)
H10G H 1.2860 1.4588 -0.0251
C17G C 1.3268(15) 1.3939(12) -0.0103(4)
H11G H 1.3096 1.3558 -0.0224
C18G C 1.295(3) 1.706(2) 0.0469(6)
H12G H 1.2999 1.7577 0.0446
H13G H 1.3250 1.7064 0.0608
C19G C 1.181(6) 1.616(4) 0.0471(12)
H14G H 1.1539 1.6222 0.0605
H15G H 1.1802 1.5663 0.0484
H16G H 1.1555 1.6170 0.0326
C20G C 1.436(4) 1.652(3) -0.0531(8)
H17G H 1.4721 1.6703 -0.0665
H18G H 1.3923 1.6008 -0.0565
H19G H 1.4641 1.6494 -0.0392
C21G C 1.4110(24) 1.7029(16) -0.0491(5)
H20G H 1.3819 1.7051 -0.0628
H21G H 1.4557 1.7557 -0.0463
C22G C 1.2481(12) 1.5620(9) -0.0100(3)
C23G C 1.1673(12) 1.5039(9) -0.0093(2)
C24G C 1.1342(14) 1.4468(10) 0.0087(3)
H22G H 1.1676 1.4444 0.0202
C25G C 1.0513(14) 1.3921(9) 0.0102(3)
H23G H 1.0296 1.3581 0.0232
C26G C 1.0054(16) 1.3912(13) -0.0079(3)
C27G C 1.0375(18) 1.4430(14) -0.0266(3)
H24G H 1.0065 1.4393 -0.0398
C28G C 1.1133(15) 1.4984(11) -0.0257(3)
C29G C 1.1534(18) 1.5590(14) -0.0479(3)
H25G H 1.1241 1.5553 -0.0615
C30G C 1.2278(21) 1.6128(14) -0.0461(4)
H26G H 1.2483 1.6502 -0.0583
C31G C 1.2830(16) 1.6217(12) -0.0272(3)
C32G C 0.9158(16) 1.3272(11) -0.0101(3)
H27G H 0.8897 1.3315 -0.0235
C33G C 0.8743(19) 1.2705(13) 0.0038(5)
H28G H 0.9039 1.2635 0.0156
C34G C 0.6613(16) 1.1651(11) -0.0123(3)
H29G H 0.6273 1.1744 -0.0216
C35G C 0.7418(20) 1.2215(15) -0.0116(5)
H30G H 0.7618 1.2634 -0.0224
C36G C 0.7946(18) 1.2168(13) 0.0052(4)
C37G C 0.7595(21) 1.1544(17) 0.0211(5)
H31G H 0.7895 1.1514 0.0336
C38G C 0.6775(25) 1.0938(17) 0.0188(4)
H32G H 0.6552 1.0520 0.0296
C39 C 0.2545(12) 0.1372(15) -0.0741(4)
H33 H 0.2029 0.1093 -0.0682
C40 C 0.2935(18) 0.0966(12) -0.0808(5)
H34 H 0.2679 0.0416 -0.0793
C41 C 0.3707(18) 0.138(2) -0.0895(5)
H35 H 0.3968 0.1111 -0.0940
C42 C 0.4089(13) 0.221(2) -0.0916(5)
H36 H 0.4606 0.2484 -0.0975
C43 C 0.3699(17) 0.2611(12) -0.0850(5)
H37 H 0.3955 0.3161 -0.0864
C44 C 0.2927(17) 0.2194(16) -0.0762(4)
H38 H 0.2667 0.2466 -0.0717
O7 O 1.574(2) 0.7870(11) 0.0833
O8 O 1.836(3) 0.952(3) 0.1753(8)
H39 H 1.8550 0.9414 0.1870
C45 C 1.799(4) 0.874(4) 0.1561(11)
H40 H 1.8438 0.8691 0.1507
H41 H 1.7658 0.8269 0.1655
C46 C 1.762(3) 0.869(3) 0.1386(10)
H42 H 1.7416 0.8174 0.1316
H43 H 1.7952 0.9090 0.1273
H44 H 1.7180 0.8766 0.1428
O9 O 1.9655(9) 0.9655(9) 0.1667
O10 O 1.342(5) 1.085(4) 0.0676(12)
O11 O 0.202(4) 0.407(4) -0.0732(10)
O12 O 0.092(10) 0.185(9) -0.075(3)
O13 O 0.311(6) 0.472(6) -0.0722(18)
C47? C 1.050(5) 0.525(5) 0.0203(13)
O14? O 1.013(4) 0.496(4) 0.0653(11)
C48? C 1.031(3) 0.523(3) 0.0548(8)
C49? C 1.608(3) 0.744(3) 0.0809(10)
C50? C 1.647(4) 0.748(4) 0.0944(12)
O15? O 0.957(2) 0.976(2) 0.0447(6)
C51? C 1.0200(9) 1.0296(9) 0.0615(3)
C52? C 0.9542(14) 0.9870(15) 0.0623(4)
C53? C 0.929(2) 0.9644(12) 0.0833
C54? C 1.991(3) 1.041(3) 0.1618(9)
C55? C 1.999(2) 1.098(2) 0.1653(8)
C56? C 1.348(5) 1.106(5) 0.0894(12)
C57? C 1.425(6) 1.175(5) 0.0881(16)
loop_
_geom_bond_atom_site_label_1
_geom_bond_atom_site_label_2
_geom_bond_site_symmetry_1
_geom_bond_site_symmetry_2
Cd1 O3 1_555 1_555
Cl1 O3 1_555 1_555
O1 C13 1_555 1_555
O2 C21 1_555 1_555
O4 Cl1 1_555 1_555
O5 Cl1 1_555 1_555
O6 Cl1 1_555 1_555
N1 Cd1 1_555 1_555
N2 C34 1_555 1_555
C1 N1 1_555 1_555
H1 C1 1_555 1_555
C2 C1 1_555 1_555
H2 C2 1_555 1_555
C3 C2 1_555 1_555
C4 C3 1_555 1_555
H3 C4 1_555 1_555
C5 N1 1_555 1_555
H4 C5 1_555 1_555
C6 C3 1_555 1_555
H5 C6 1_555 1_555
C7 C6 1_555 1_555
H6 C7 1_555 1_555
C8 C7 1_555 1_555
C9 C8 1_555 1_555
H7 C9 1_555 1_555
C10 C9 1_555 1_555
C11 C10 1_555 1_555
H8 C11 1_555 1_555
C12 C11 1_555 1_555
H9 C12 1_555 1_555
C13 C12 1_555 1_555
C14 C13 1_555 1_555
C15 C10 1_555 1_555
C16 C15 1_555 1_555
H10 C16 1_555 1_555
C17 C8 1_555 1_555
H11 C17 1_555 1_555
C18 O1 1_555 1_555
H12 C18 1_555 1_555
H13 C18 1_555 1_555
C19 C18 1_555 1_555
H14 C19 1_555 1_555
H15 C19 1_555 1_555
H16 C19 1_555 1_555
C20 H17 1_555 1_555
H18 C20 1_555 1_555
H19 C20 1_555 1_555
C21 C20 1_555 1_555
H20 C21 1_555 1_555
H21 C21 1_555 1_555
C22 C14 1_555 1_555
C23 C22 1_555 1_555
C24 C23 1_555 1_555
H22 C24 1_555 1_555
C25 C24 1_555 1_555
H23 C25 1_555 1_555
C26 C25 1_555 1_555
C27 C26 1_555 1_555
H24 C27 1_555 1_555
C28 C23 1_555 1_555
C29 C28 1_555 1_555
H25 C29 1_555 1_555
C30 C29 1_555 1_555
H26 C30 1_555 1_555
C31 O2 1_555 1_555
C32 C26 1_555 1_555
H27 C32 1_555 1_555
C33 C32 1_555 1_555
H28 C33 1_555 1_555
C34 H29 1_555 1_555
C35 C34 1_555 1_555
H30 C35 1_555 1_555
C36 C33 1_555 1_555
C37 C36 1_555 1_555
H31 C37 1_555 1_555
C38 N2 1_555 1_555
H32 C38 1_555 1_555
C39 H33 1_555 1_555
C40 C39 1_555 1_555
H34 C40 1_555 1_555
C41 C40 1_555 1_555
H35 C41 1_555 1_555
C42 C41 1_555 1_555
H36 C42 1_555 1_555
C43 C42 1_555 1_555
H37 C43 1_555 1_555
C44 C39 1_555 1_555
H38 C44 1_555 1_555
O8 H39 1_555 1_555
C45 O8 1_555 1_555
H40 C45 1_555 1_555
H41 C45 1_555 1_555
C46 C45 1_555 1_555
H42 C46 1_555 1_555
H43 C46 1_555 1_555
H44 C46 1_555 1_555
Cd1_2 N2 1_555 1_555
Cl1G O3G 1_555 1_555
O1G C13G 1_555 1_555
O2G C21G 1_555 1_555
O3G Cd1 1_555 1_555
O4G Cl1G 1_555 1_555
O5G Cl1G 1_555 1_555
O6G Cl1G 1_555 1_555
N1G Cd1 1_555 1_555
N2G Cd1_2 1_555 1_555
N2_2 Cd1 1_555 1_555
N2G_2 Cd1 1_555 1_555
C1G N1G 1_555 1_555
H1G C1G 1_555 1_555
C2G C1G 1_555 1_555
H2G C2G 1_555 1_555
C3G C2G 1_555 1_555
C4G C3G 1_555 1_555
H3G C4G 1_555 1_555
C5G N1G 1_555 1_555
H4G C5G 1_555 1_555
C6G C3G 1_555 1_555
H5G C6G 1_555 1_555
C7G C6G 1_555 1_555
H6G C7G 1_555 1_555
C8G C7G 1_555 1_555
C9G C8G 1_555 1_555
H7G C9G 1_555 1_555
C10G C9G 1_555 1_555
C11G C10G 1_555 1_555
H8G C11G 1_555 1_555
C12G C11G 1_555 1_555
H9G C12G 1_555 1_555
C13G C12G 1_555 1_555
C14G C13G 1_555 1_555
C15G C10G 1_555 1_555
C16G C15G 1_555 1_555
H10G C16G 1_555 1_555
C17G C8G 1_555 1_555
H11G C17G 1_555 1_555
C18G O1G 1_555 1_555
H12G C18G 1_555 1_555
H13G C18G 1_555 1_555
C19G C18G 1_555 1_555
H14G C19G 1_555 1_555
H15G C19G 1_555 1_555
H16G C19G 1_555 1_555
C20G H17G 1_555 1_555
H18G C20G 1_555 1_555
H19G C20G 1_555 1_555
C21G C20G 1_555 1_555
H20G C21G 1_555 1_555
H21G C21G 1_555 1_555
C22G C14G 1_555 1_555
C23G C22G 1_555 1_555
C24G C23G 1_555 1_555
H22G C24G 1_555 1_555
C25G C24G 1_555 1_555
H23G C25G 1_555 1_555
C26G C25G 1_555 1_555
C27G C26G 1_555 1_555
H24G C27G 1_555 1_555
C28G C23G 1_555 1_555
C29G C28G 1_555 1_555
H25G C29G 1_555 1_555
C30G C29G 1_555 1_555
H26G C30G 1_555 1_555
C31G O2G 1_555 1_555
C32G C26G 1_555 1_555
H27G C32G 1_555 1_555
C33G C32G 1_555 1_555
H28G C33G 1_555 1_555
C34G N2G 1_555 1_555
H29G C34G 1_555 1_555
C35G C34G 1_555 1_555
H30G C35G 1_555 1_555
C36G C33G 1_555 1_555
C37G C36G 1_555 1_555
H31G C37G 1_555 1_555
C38G N2G 1_555 1_555
H32G C38G 1_555 1_555
C4 C5 1_555 1_555
C14 C15 1_555 1_555
C16 C17 1_555 1_555
C22 C31 1_555 1_555
C27 C28 1_555 1_555
C30 C31 1_555 1_555
C35 C36 1_555 1_555
C37 C38 1_555 1_555
C43 C44 1_555 1_555
C4G C5G 1_555 1_555
C14G C15G 1_555 1_555
C16G C17G 1_555 1_555
C22G C31G 1_555 1_555
C27G C28G 1_555 1_555
C30G C31G 1_555 1_555
C35G C36G 1_555 1_555
C37G C38G 1_555 1_555

#END
