
#######################################################################
#
#                 Cambridge Crystallographic Data Centre
#                                CCDC 
#
#######################################################################
#
# If this CIF has been generated from an entry in the Cambridge 
# Structural Database, then it will include bibliographic, chemical, 
# crystal, experimental, refinement or atomic coordinate data resulting 
# from the CCDC's data processing and validation procedures.
#
#######################################################################

data_RALZEL
_symmetry_cell_setting           tetragonal
_symmetry_space_group_name_H-M   'P 4/m c c'
_symmetry_Int_Tables_number      124
_space_group_name_Hall           '-P 4 2c'
loop_
_symmetry_equiv_pos_site_id
_symmetry_equiv_pos_as_xyz
1 x,y,z
2 -x,-y,z
3 x,-y,1/2-z
4 -x,y,1/2-z
5 -y,-x,1/2-z
6 y,x,1/2-z
7 y,-x,z
8 -y,x,z
9 -x,-y,-z
10 x,y,-z
11 -x,y,1/2+z
12 x,-y,1/2+z
13 y,x,1/2+z
14 -y,-x,1/2+z
15 -y,x,-z
16 y,-x,-z
_cell_length_a                   15.3904(8)
_cell_length_b                   15.3904(8)
_cell_length_c                   9.8586(5)
_cell_angle_alpha                90
_cell_angle_beta                 90
_cell_angle_gamma                90
_cell_volume                     2335.15
loop_
_atom_site_label
_atom_site_type_symbol
_atom_site_fract_x
_atom_site_fract_y
_atom_site_fract_z
Sm1 Sm 0.5000 0.5000 0.2500
S1 S 0.32117(13) 0.47399(15) 0.0000
O1 O 0.2530(4) 0.4104(4) 0.0000
C1 C 0.2684(5) 0.5755(6) 0.0000
C2 C 0.1697(6) 0.7271(5) 0.0000
C3 C 0.2591(6) 0.8945(7) 0.0000
H1 H 0.2999 0.8481 0.0000
N1 N 0.1304(6) 0.9700(6) 0.0000
C4 C 0.1948(4) 0.6879(5) 0.1208(9)
H2 H 0.1777 0.7127 0.2049
C5 C 0.2444(4) 0.6132(5) 0.1197(8)
H3 H 0.2620 0.5877 0.2031
C6 C 0.1171(6) 0.8090(6) 0.0000
C7 C 0.1635(6) 0.8867(7) 0.0000
C8 C 0.0274(6) 0.8037(7) 0.0000
O2 O 0.3736(4) 0.4694(3) 0.1223(7)
C9 C 0.2774(6) 0.9799(7) 0.0000
H4 H 0.3339 1.0047 0.0000
O3 O 0.0000 1.0000 0.2500
V1 V 0.0000 1.0000 0.088(4)
N1F N -0.0300(6) 0.8696(6) 0.0000
N1A N -0.1304(6) 1.0300(6) 0.0000
N1G N 0.0300(6) 1.1304(6) 0.0000
C4I C 0.1948(4) 0.6879(5) -0.1208(9)
C5I C 0.2444(4) 0.6132(5) -0.1197(8)
C8G C 0.1963(7) 1.0274(6) 0.0000
O2A O 0.6264(4) 0.5306(3) 0.1223(7)
O2B O 0.3736(4) 0.5306(3) 0.3777(7)
O2C O 0.6264(4) 0.4694(3) 0.3777(7)
O2D O 0.5306(3) 0.6264(4) 0.3777(7)
O2E O 0.4694(3) 0.3736(4) 0.3777(7)
O2F O 0.4694(3) 0.6264(4) 0.1223(7)
O2G O 0.5306(3) 0.3736(4) 0.1223(7)
O2I O 0.3736(4) 0.4694(3) -0.1223(7)
C9F C -0.0201(7) 0.7226(6) 0.0000
V1H V 0.0000 1.0000 -0.088(4)
V1B V 0.0000 1.0000 0.412(4)
N2 N 0.0693(15) 0.479(3) 0.0000
N3 N 0.0000 0.5000 0.0000
N2A N -0.0693(15) 0.521(3) 0.0000
N4? N 0.0000 0.5000 0.2500
N5? N 0.0000 0.5000 0.362(2)
loop_
_geom_bond_atom_site_label_1
_geom_bond_atom_site_label_2
_geom_bond_site_symmetry_1
_geom_bond_site_symmetry_2
Sm1 O2 1_555 1_555
S1 O1 1_555 1_555
C1 S1 1_555 1_555
C2 C4 1_555 1_555
C3 H1 1_555 1_555
N1 C7 1_555 1_555
C4 H2 1_555 1_555
C5 C1 1_555 1_555
H3 C5 1_555 1_555
C6 C2 1_555 1_555
C7 C3 1_555 1_555
C8 C6 1_555 1_555
O2 S1 1_555 1_555
C9 C3 1_555 1_555
H4 C9 1_555 1_555
O3 V1 1_555 1_555
V1 N1 1_555 1_555
N2 N3 1_555 1_555
N3 N2A 1_555 1_555
N1F C8 1_555 1_555
N1A V1 1_555 1_555
N1G V1 1_555 1_555
C4I C2 1_555 1_555
C5I C1 1_555 1_555
C8G N1 1_555 1_555
O2A Sm1 1_555 1_555
O2B Sm1 1_555 1_555
O2C Sm1 1_555 1_555
O2D Sm1 1_555 1_555
O2E Sm1 1_555 1_555
O2F Sm1 1_555 1_555
O2G Sm1 1_555 1_555
O2I S1 1_555 1_555
C9F C8 1_555 1_555
V1H N1 1_555 1_555
V1B O3 1_555 1_555
C4 C5 1_555 1_555
C6 C7 1_555 1_555
C9 C8G 1_555 1_555
V1 N1F 1_555 1_555
V1 V1H 1_555 1_555
N1F V1H 1_555 1_555
N1A V1H 1_555 1_555
N1G V1H 1_555 1_555
C4I C5I 1_555 1_555

#END
