
#######################################################################
#
#                 Cambridge Crystallographic Data Centre
#                                CCDC 
#
#######################################################################
#
# If this CIF has been generated from an entry in the Cambridge 
# Structural Database, then it will include bibliographic, chemical, 
# crystal, experimental, refinement or atomic coordinate data resulting 
# from the CCDC's data processing and validation procedures.
#
#######################################################################

data_RAMGUJ
_symmetry_cell_setting           monoclinic
_symmetry_space_group_name_H-M   'P 21/n'
_symmetry_Int_Tables_number      14
_space_group_name_Hall           '-P 2yn'
loop_
_symmetry_equiv_pos_site_id
_symmetry_equiv_pos_as_xyz
1 x,y,z
2 1/2-x,1/2+y,1/2-z
3 -x,-y,-z
4 1/2+x,1/2-y,1/2+z
_cell_length_a                   10.0567(6)
_cell_length_b                   16.1864(10)
_cell_length_c                   13.0716(8)
_cell_angle_alpha                90
_cell_angle_beta                 99.3920(10)
_cell_angle_gamma                90
_cell_volume                     2099.29
loop_
_atom_site_label
_atom_site_type_symbol
_atom_site_fract_x
_atom_site_fract_y
_atom_site_fract_z
Zn1 Zn 0.83824(4) 0.02742(2) 0.32522(3)
S1 S 1.13124(10) 0.06204(6) 0.08028(8)
S2 S 0.86784(10) 0.05729(6) 0.15578(7)
S3 S 1.06287(10) 0.01463(7) 0.39265(8)
S4 S 1.29323(11) 0.02751(8) 0.27468(9)
S5 S 1.42822(12) 0.06249(9) 0.09107(10)
C1 C 1.0427(4) 0.0477(2) 0.1833(3)
C2 C 0.3975(4) 0.3028(2) 0.3168(3)
C3 C 1.1197(4) 0.0305(2) 0.2748(3)
N1 N -0.2265(3) 0.42380(17) 0.1794(3)
N2 N 0.7312(3) 0.12141(17) 0.3731(2)
C4 C 0.1258(4) 0.2839(2) 0.3297(3)
C5 C 0.6653(3) 0.1751(2) 0.3094(3)
H1 H 0.6499 0.1688 0.2377
N3 N -0.1077(3) 0.32078(18) 0.2547(3)
C6 C -0.1535(3) 0.3974(2) 0.2660(3)
H2 H -0.1361 0.4279 0.3270
N4 N 0.6228(3) 0.23944(18) 0.3578(3)
C7 C 0.5448(4) 0.3106(2) 0.3106(3)
H3 H 0.5558 0.3152 0.2385
H4 H 0.5797 0.3607 0.3458
C8 C 1.2920(4) 0.0514(2) 0.1466(3)
C9 C -0.1536(5) 0.2978(3) 0.1557(4)
H5 H -0.1383 0.2476 0.1252
C10 C 0.1796(5) 0.2498(3) 0.2501(4)
H6 H 0.1248 0.2195 0.1994
C11 C -0.2257(4) 0.3619(2) 0.1097(3)
H7 H -0.2682 0.3634 0.0409
C12 C 0.3426(4) 0.3371(3) 0.3951(3)
H8 H 0.3973 0.3680 0.4453
C13 C 0.3137(5) 0.2596(3) 0.2439(4)
H9 H 0.3479 0.2362 0.1886
C14 C 0.7327(5) 0.1539(3) 0.4685(3)
H10 H 0.7731 0.1299 0.5305
C15 C 0.2083(4) 0.3275(3) 0.4023(3)
H11 H 0.1741 0.3512 0.4574
C16 C 0.6668(5) 0.2264(3) 0.4599(4)
H12 H 0.6538 0.2611 0.5140
C17 C -0.0222(4) 0.2731(3) 0.3354(3)
H13 H -0.0457 0.2151 0.3277
H14 H -0.0390 0.2910 0.4030
Zn1A Zn -0.33824(4) 0.52742(2) 0.17478(3)
N1A N 0.7265(3) -0.07620(17) 0.3206(3)
loop_
_geom_bond_atom_site_label_1
_geom_bond_atom_site_label_2
_geom_bond_site_symmetry_1
_geom_bond_site_symmetry_2
Zn1 S2 1_555 1_555
S1 C1 1_555 1_555
S2 C1 1_555 1_555
S3 Zn1 1_555 1_555
S4 C3 1_555 1_555
S5 C8 1_555 1_555
C1 C3 1_555 1_555
C2 C7 1_555 1_555
C3 S3 1_555 1_555
N1 C6 1_555 1_555
N2 Zn1 1_555 1_555
C4 C10 1_555 1_555
C5 N2 1_555 1_555
H1 C5 1_555 1_555
N3 C6 1_555 1_555
C6 H2 1_555 1_555
N4 C5 1_555 1_555
C7 N4 1_555 1_555
H3 C7 1_555 1_555
H4 C7 1_555 1_555
C8 S1 1_555 1_555
C9 N3 1_555 1_555
H5 C9 1_555 1_555
C10 H6 1_555 1_555
C11 N1 1_555 1_555
H7 C11 1_555 1_555
C12 C2 1_555 1_555
H8 C12 1_555 1_555
C13 C2 1_555 1_555
H9 C13 1_555 1_555
C14 N2 1_555 1_555
H10 C14 1_555 1_555
C15 C4 1_555 1_555
H11 C15 1_555 1_555
C16 N4 1_555 1_555
H12 C16 1_555 1_555
C17 C4 1_555 1_555
H13 C17 1_555 1_555
H14 C17 1_555 1_555
Zn1A N1 1_555 1_555
N1A Zn1 1_555 1_555
S4 C8 1_555 1_555
N3 C17 1_555 1_555
C9 C11 1_555 1_555
C10 C13 1_555 1_555
C12 C15 1_555 1_555
C14 C16 1_555 1_555

#END
