
#######################################################################
#
#                 Cambridge Crystallographic Data Centre
#                                CCDC 
#
#######################################################################
#
# If this CIF has been generated from an entry in the Cambridge 
# Structural Database, then it will include bibliographic, chemical, 
# crystal, experimental, refinement or atomic coordinate data resulting 
# from the CCDC's data processing and validation procedures.
#
#######################################################################

data_RAMHIW
_symmetry_cell_setting           monoclinic
_symmetry_space_group_name_H-M   'C c'
_symmetry_Int_Tables_number      9
_space_group_name_Hall           'C -2yc'
loop_
_symmetry_equiv_pos_site_id
_symmetry_equiv_pos_as_xyz
1 x,y,z
2 x,-y,1/2+z
3 1/2+x,1/2+y,z
4 1/2+x,1/2-y,1/2+z
_cell_length_a                   15.286(7)
_cell_length_b                   10.143(3)
_cell_length_c                   10.490(4)
_cell_angle_alpha                90
_cell_angle_beta                 93.77(3)
_cell_angle_gamma                90
_cell_volume                     1622.91
loop_
_atom_site_label
_atom_site_type_symbol
_atom_site_fract_x
_atom_site_fract_y
_atom_site_fract_z
Cu1 Cu 0.36353(17) 0.05035(3) -0.2192(3)
N1 N 0.3142(6) 0.2012(10) -0.3242(10)
N2 N 0.4190(6) 0.2017(9) -0.1159(10)
O1 O 0.5263(7) -0.0550(10) -0.2420(10)
O2 O 0.4207(5) -0.0791(8) -0.1044(8)
O3 O 0.7063(6) -0.4450(9) 0.3037(10)
O4 O 0.8078(5) -0.4231(9) 0.1681(9)
C1 C 0.2593(8) 0.1981(11) -0.4224(12)
H1 H 0.2407 0.1160 -0.4529
C2 C 0.2260(9) 0.3083(13) -0.4858(12)
H2 H 0.1930 0.2987 -0.5629
C3 C 0.2412(9) 0.4323(14) -0.4358(16)
H3 H 0.2118 0.5061 -0.4693
C4 C 0.3024(9) 0.4414(12) -0.3332(15)
C5 C 0.3388(9) 0.5628(11) -0.2646(17)
H4 H 0.3193 0.6446 -0.2946
C6 C 0.3982(10) 0.5602(14) -0.1618(17)
H5 H 0.4204 0.6376 -0.1249
C7 C 0.4237(10) 0.4407(14) -0.1157(16)
C8 C 0.4799(10) 0.4326(13) -0.0031(17)
H6 H 0.4981 0.5103 0.0376
C9 C 0.5082(9) 0.3159(14) 0.0475(13)
H7 H 0.5511 0.3130 0.1146
C10 C 0.4706(7) 0.1986(12) -0.0049(11)
H8 H 0.4812 0.1187 0.0369
C11 C 0.3964(7) 0.3209(11) -0.1597(10)
C12 C 0.3373(7) 0.3224(10) -0.2706(11)
C13 C 0.5006(7) -0.0978(11) -0.1378(11)
C14 C 0.5563(7) -0.1764(11) -0.0540(11)
C15 C 0.5365(8) -0.1980(11) 0.0750(9)
H9 H 0.4843 -0.1654 0.1034
C16 C 0.5927(7) -0.2659(12) 0.1583(11)
H10 H 0.5802 -0.2760 0.2433
C17 C 0.6690(8) -0.3198(11) 0.1137(10)
C18 C 0.6889(8) -0.3030(11) -0.0080(11)
H11 H 0.7395 -0.3408 -0.0364
C19 C 0.6336(7) -0.2285(11) -0.0927(10)
H12 H 0.6493 -0.2142 -0.1757
C20 C 0.7325(9) -0.4013(12) 0.2081(12)
O4C O 0.3078(5) -0.0769(9) -0.3319(9)
Cu1C Cu 0.86353(17) -0.55035(3) 0.2808(3)
loop_
_geom_bond_atom_site_label_1
_geom_bond_atom_site_label_2
_geom_bond_site_symmetry_1
_geom_bond_site_symmetry_2
Cu1 N1 1_555 1_555
N1 C1 1_555 1_555
N2 Cu1 1_555 1_555
O1 C13 1_555 1_555
O2 Cu1 1_555 1_555
O3 C20 1_555 1_555
O4 C20 1_555 1_555
C1 H1 1_555 1_555
C2 C1 1_555 1_555
H2 C2 1_555 1_555
C3 C2 1_555 1_555
H3 C3 1_555 1_555
C4 C3 1_555 1_555
C5 C4 1_555 1_555
H4 C5 1_555 1_555
C6 C5 1_555 1_555
H5 C6 1_555 1_555
C7 C6 1_555 1_555
C8 C7 1_555 1_555
H6 C8 1_555 1_555
C9 C8 1_555 1_555
H7 C9 1_555 1_555
C10 N2 1_555 1_555
H8 C10 1_555 1_555
C11 N2 1_555 1_555
C12 N1 1_555 1_555
C13 O2 1_555 1_555
C14 C13 1_555 1_555
C15 C14 1_555 1_555
H9 C15 1_555 1_555
C16 C15 1_555 1_555
H10 C16 1_555 1_555
C17 C16 1_555 1_555
C18 C17 1_555 1_555
H11 C18 1_555 1_555
C19 C14 1_555 1_555
H12 C19 1_555 1_555
C20 C17 1_555 1_555
O4C Cu1 1_555 1_555
Cu1C O4 1_555 1_555
C4 C12 1_555 1_555
C7 C11 1_555 1_555
C9 C10 1_555 1_555
C11 C12 1_555 1_555
C18 C19 1_555 1_555

#END
