
#######################################################################
#
#                 Cambridge Crystallographic Data Centre
#                                CCDC 
#
#######################################################################
#
# If this CIF has been generated from an entry in the Cambridge 
# Structural Database, then it will include bibliographic, chemical, 
# crystal, experimental, refinement or atomic coordinate data resulting 
# from the CCDC's data processing and validation procedures.
#
#######################################################################

data_RAMHIW01
_symmetry_cell_setting           monoclinic
_symmetry_space_group_name_H-M   'C 2/c'
_symmetry_Int_Tables_number      15
_space_group_name_Hall           '-C 2yn'
loop_
_symmetry_equiv_pos_site_id
_symmetry_equiv_pos_as_xyz
1 x,y,z
2 -x,y,1/2-z
3 1/2+x,1/2+y,z
4 1/2-x,1/2+y,1/2-z
5 -x,-y,-z
6 x,-y,1/2+z
7 1/2-x,1/2-y,-z
8 1/2+x,1/2-y,1/2+z
_cell_length_a                   15.2860
_cell_length_b                   10.1430
_cell_length_c                   10.4900
_cell_angle_alpha                90.0
_cell_angle_beta                 93.77
_cell_angle_gamma                90.0
_cell_volume                     1622.91
loop_
_atom_site_label
_atom_site_type_symbol
_atom_site_fract_x
_atom_site_fract_y
_atom_site_fract_z
Cu1 Cu 0.00000 0.05035 0.25000
N1 N -0.05240 0.20145 0.14585
O1 O 0.16000 -0.05500 0.22715
O2 O 0.05645 -0.07800 0.36375
C1 C -0.10565 0.19835 0.04125
H1 H -0.12025 0.11735 0.00510
C2 C -0.14110 0.31210 -0.01665
H2 H -0.17905 0.30585 -0.08875
C3 C -0.11935 0.43245 0.03365
H3 H -0.14315 0.50820 -0.00345
C4 C -0.06065 0.44105 0.14125
C5 C -0.02970 0.56150 0.19860
H4 H -0.05055 0.64110 0.16515
C6 C -0.02955 0.32165 0.19455
C7 C 0.13405 -0.09825 0.32705
C8 C 0.19365 -0.17830 0.41615
C9 C 0.17380 -0.19750 0.54150
H5 H 0.12240 -0.16230 0.56990
C10 C 0.27045 -0.23130 0.37450
H6 H 0.28455 -0.21910 0.29050
C5A C 0.02970 0.56150 0.30140
C4A C 0.06065 0.44105 0.35875
C3A C 0.11935 0.43245 0.46635
C2A C 0.14110 0.31210 0.51665
C1A C 0.10565 0.19835 0.45875
N1A N 0.05240 0.20145 0.35415
C6A C 0.02955 0.32165 0.30545
H1A H 0.12025 0.11735 0.49490
H2A H 0.17905 0.30585 0.58875
H3A H 0.14315 0.50820 0.50345
H4A H 0.05055 0.64110 0.33485
C10F C 0.22955 -0.26870 0.62550
C8F C 0.30635 -0.32170 0.58385
C7F C 0.36595 -0.40175 0.67295
O1F O 0.34000 -0.44500 0.77285
O2F O 0.44355 -0.42200 0.63625
C9F C 0.32620 -0.30250 0.45850
H5F H 0.37760 -0.33770 0.43010
H6F H 0.21545 -0.28090 0.70950
O2A O -0.05645 -0.07800 0.13625
Cu1F Cu 0.50000 -0.55035 0.75000
loop_
_geom_bond_atom_site_label_1
_geom_bond_atom_site_label_2
_geom_bond_site_symmetry_1
_geom_bond_site_symmetry_2
Cu1 N1 1_555 1_555
N1 C1 1_555 1_555
O1 C7 1_555 1_555
O2 Cu1 1_555 1_555
C1 H1 1_555 1_555
C2 C1 1_555 1_555
H2 C2 1_555 1_555
C3 C2 1_555 1_555
H3 C3 1_555 1_555
C4 C3 1_555 1_555
C5 C4 1_555 1_555
H4 C5 1_555 1_555
C6 N1 1_555 1_555
C7 O2 1_555 1_555
C8 C7 1_555 1_555
C9 C8 1_555 1_555
H5 C9 1_555 1_555
C10 C8 1_555 1_555
H6 C10 1_555 1_555
C5A C5 1_555 1_555
C4A C5A 1_555 1_555
C3A C4A 1_555 1_555
C2A C3A 1_555 1_555
C1A C2A 1_555 1_555
N1A Cu1 1_555 1_555
C6A C6 1_555 1_555
H1A C1A 1_555 1_555
H2A C2A 1_555 1_555
H3A C3A 1_555 1_555
H4A C5A 1_555 1_555
C10F C9 1_555 1_555
C8F C10F 1_555 1_555
C7F C8F 1_555 1_555
O1F C7F 1_555 1_555
O2F C7F 1_555 1_555
C9F C10 1_555 1_555
H5F C9F 1_555 1_555
H6F C10F 1_555 1_555
O2A Cu1 1_555 1_555
Cu1F O2F 1_555 1_555
C4 C6 1_555 1_555
C4A C6A 1_555 1_555
C1A N1A 1_555 1_555
N1A C6A 1_555 1_555
C8F C9F 1_555 1_555

#END
