
#######################################################################
#
#                 Cambridge Crystallographic Data Centre
#                                CCDC 
#
#######################################################################
#
# If this CIF has been generated from an entry in the Cambridge 
# Structural Database, then it will include bibliographic, chemical, 
# crystal, experimental, refinement or atomic coordinate data resulting 
# from the CCDC's data processing and validation procedures.
#
#######################################################################

data_RAMJAQ
_symmetry_cell_setting           monoclinic
_symmetry_space_group_name_H-M   'C 2/c'
_symmetry_Int_Tables_number      15
_space_group_name_Hall           '-C 2yn'
loop_
_symmetry_equiv_pos_site_id
_symmetry_equiv_pos_as_xyz
1 x,y,z
2 x,-y,1/2+z
3 1/2+x,1/2+y,z
4 1/2+x,1/2-y,1/2+z
5 -x,-y,-z
6 -x,y,1/2-z
7 1/2-x,1/2-y,-z
8 1/2-x,1/2+y,1/2-z
_cell_length_a                   23.099(3)
_cell_length_b                   10.5089(5)
_cell_length_c                   16.804(2)
_cell_angle_alpha                90
_cell_angle_beta                 135.783(3)
_cell_angle_gamma                90
_cell_volume                     2844.67
loop_
_atom_site_label
_atom_site_type_symbol
_atom_site_fract_x
_atom_site_fract_y
_atom_site_fract_z
Cd1 Cd 0.132270(7) -0.30064(1) -0.110490(9)
Cl1 Cl 0.23364(3) -0.15043(4) 0.06632(3)
O1 O 0.09253(8) -0.1574(1) -0.2378(1)
O2 O -0.03051(7) -0.2500(1) -0.3807(1)
N1 N 0.08971(9) -0.5001(1) -0.2102(1)
N2 N 0.15640(9) -0.4671(1) 0.0033(1)
C1 C 0.0248(1) -0.1697(2) -0.3413(1)
C2 C 0.01175(9) -0.0820(1) -0.4240(1)
C3 C 0.07942(10) -0.0252(2) -0.3944(1)
C4 C -0.06805(10) -0.0568(2) -0.5307(1)
C5 C 0.0568(1) -0.5160(2) -0.3145(2)
C6 C 0.0459(1) -0.6366(2) -0.3596(2)
C7 C 0.0695(2) -0.7420(2) -0.2949(3)
C8 C 0.1053(1) -0.7295(2) -0.1840(2)
C9 C 0.1140(1) -0.6048(2) -0.1454(2)
C10 C 0.1326(2) -0.8368(3) -0.1102(3)
C11 C 0.1631(2) -0.8189(2) -0.0064(3)
C12 C 0.1485(1) -0.5869(2) -0.0322(2)
C13 C 0.1705(1) -0.6943(2) 0.0346(2)
C14 C 0.1971(1) -0.6723(2) 0.1392(2)
C15 C 0.2016(1) -0.5515(2) 0.1725(2)
C16 C 0.1816(1) -0.4499(2) 0.1024(2)
H1 H 0.1348 -0.0420 -0.3211
H2 H -0.1150 -0.0955 -0.5517
H3 H 0.0397 -0.4423 -0.3612
H4 H 0.0212 -0.6455 -0.4357
H5 H 0.1287 -0.9215 -0.1358
H6 H 0.0618 -0.8249 -0.3250
H7 H 0.1800 -0.8909 0.0420
H8 H 0.2104 -0.7424 0.1858
H9 H 0.2186 -0.5356 0.2431
H10 H 0.1859 -0.3638 0.1267
Cd1F Cd 0.367730(7) -0.19936(1) 0.110490(9)
Cl1F Cl 0.26636(3) -0.34957(4) -0.06632(3)
O2E O 0.03051(7) -0.2500(1) -0.1193(1)
Cd1E Cd -0.132270(7) -0.30064(1) -0.389510(9)
O1F O 0.40747(8) -0.3426(1) 0.2378(1)
O2C O 0.46949(7) -0.2500(1) 0.1193(1)
N1F N 0.41029(9) 0.0001(1) 0.2102(1)
N2F N 0.34360(9) -0.0329(1) -0.0033(1)
C4D C 0.06805(10) 0.0568(2) -0.4693(1)
C3D C -0.07942(10) 0.0252(2) -0.6056(1)
C5F C 0.4432(1) 0.0160(2) 0.3145(2)
C9F C 0.3860(1) 0.1048(2) 0.1454(2)
C12F C 0.3515(1) 0.0869(2) 0.0322(2)
C16F C 0.3184(1) -0.0501(2) -0.1024(2)
C2D C -0.01175(9) 0.0820(1) -0.5760(1)
H2D H 0.1150 0.0955 -0.4483
H1D H -0.1348 0.0420 -0.6789
C6F C 0.4541(1) 0.1366(2) 0.3596(2)
H3F H 0.4603 -0.0577 0.3612
C8F C 0.3947(1) 0.2295(2) 0.1840(2)
C13F C 0.3295(1) 0.1943(2) -0.0346(2)
C15F C 0.2984(1) 0.0515(2) -0.1725(2)
H10F H 0.3141 -0.1362 -0.1267
C1D C -0.0248(1) 0.1697(2) -0.6587(1)
C7F C 0.4305(2) 0.2420(2) 0.2949(3)
H4F H 0.4788 0.1455 0.4357
C10F C 0.3674(2) 0.3368(3) 0.1102(3)
C11F C 0.3369(2) 0.3189(2) 0.0064(3)
C14F C 0.3029(1) 0.1723(2) -0.1392(2)
H9F H 0.2814 0.0356 -0.2431
O1D O -0.09253(8) 0.1574(1) -0.7622(1)
O2D O 0.03051(7) 0.2500(1) -0.6193(1)
H6F H 0.4382 0.3249 0.3250
H5F H 0.3713 0.4215 0.1358
H7F H 0.3200 0.3909 -0.0420
H8F H 0.2896 0.2424 -0.1858
Cd1D Cd -0.132270(7) 0.30064(1) -0.889510(9)
Cd1A Cd 0.132270(7) 0.30064(1) -0.610490(9)
loop_
_geom_bond_atom_site_label_1
_geom_bond_atom_site_label_2
_geom_bond_site_symmetry_1
_geom_bond_site_symmetry_2
Cd1 Cl1 1_555 1_555
Cl1 Cd1F 1_555 1_555
O1 Cd1 1_555 1_555
O2 C1 1_555 1_555
N1 Cd1 1_555 1_555
N2 Cd1 1_555 1_555
C1 O1 1_555 1_555
C2 C1 1_555 1_555
C3 C2 1_555 1_555
C4 C2 1_555 1_555
C5 N1 1_555 1_555
C6 C5 1_555 1_555
C7 C6 1_555 1_555
C8 C7 1_555 1_555
C9 N1 1_555 1_555
C10 C8 1_555 1_555
C11 C10 1_555 1_555
C12 N2 1_555 1_555
C13 C11 1_555 1_555
C14 C13 1_555 1_555
C15 C14 1_555 1_555
C16 N2 1_555 1_555
H1 C3 1_555 1_555
H2 C4 1_555 1_555
H3 C5 1_555 1_555
H4 C6 1_555 1_555
H5 C10 1_555 1_555
H6 C7 1_555 1_555
H7 C11 1_555 1_555
H8 C14 1_555 1_555
H9 C15 1_555 1_555
H10 C16 1_555 1_555
Cd1F Cl1F 1_555 1_555
Cl1F Cd1 1_555 1_555
O2E Cd1 1_555 1_555
Cd1E O2 1_555 1_555
O1F Cd1F 1_555 1_555
O2C Cd1F 1_555 1_555
N1F Cd1F 1_555 1_555
N2F Cd1F 1_555 1_555
C4D C3 1_555 1_555
C3D C4 1_555 1_555
C5F N1F 1_555 1_555
C9F N1F 1_555 1_555
C12F N2F 1_555 1_555
C16F N2F 1_555 1_555
C2D C4D 1_555 1_555
H2D C4D 1_555 1_555
H1D C3D 1_555 1_555
C6F C5F 1_555 1_555
H3F C5F 1_555 1_555
C8F C9F 1_555 1_555
C13F C12F 1_555 1_555
C15F C16F 1_555 1_555
H10F C16F 1_555 1_555
C1D C2D 1_555 1_555
C7F C6F 1_555 1_555
H4F C6F 1_555 1_555
C10F C8F 1_555 1_555
C11F C13F 1_555 1_555
C14F C13F 1_555 1_555
H9F C15F 1_555 1_555
O1D C1D 1_555 1_555
O2D C1D 1_555 1_555
H6F C7F 1_555 1_555
H5F C10F 1_555 1_555
H7F C11F 1_555 1_555
H8F C14F 1_555 1_555
Cd1D O1D 1_555 1_555
Cd1A O2D 1_555 1_555
C8 C9 1_555 1_555
C9 C12 1_555 1_555
C12 C13 1_555 1_555
C15 C16 1_555 1_555
C3D C2D 1_555 1_555
C9F C12F 1_555 1_555
C8F C7F 1_555 1_555
C15F C14F 1_555 1_555
C10F C11F 1_555 1_555

#END
