
#######################################################################
#
#                 Cambridge Crystallographic Data Centre
#                                CCDC 
#
#######################################################################
#
# If this CIF has been generated from an entry in the Cambridge 
# Structural Database, then it will include bibliographic, chemical, 
# crystal, experimental, refinement or atomic coordinate data resulting 
# from the CCDC's data processing and validation procedures.
#
#######################################################################

data_RAMTIJ
_symmetry_cell_setting           monoclinic
_symmetry_space_group_name_H-M   'C c'
_symmetry_Int_Tables_number      9
_space_group_name_Hall           'C -2yc'
loop_
_symmetry_equiv_pos_site_id
_symmetry_equiv_pos_as_xyz
1 x,y,z
2 x,-y,1/2+z
3 1/2+x,1/2+y,z
4 1/2+x,1/2-y,1/2+z
_cell_length_a                   20.782(6)
_cell_length_b                   13.550(4)
_cell_length_c                   13.942(4)
_cell_angle_alpha                90
_cell_angle_beta                 98.879(5)
_cell_angle_gamma                90
_cell_volume                     3878.97
loop_
_atom_site_label
_atom_site_type_symbol
_atom_site_fract_x
_atom_site_fract_y
_atom_site_fract_z
La1 La 0.747757(18) 0.61374(2) 0.67794(2)
La2 La 0.758938(18) 0.64438(3) 1.00337(2)
N1 N 0.8646(3) 0.7029(4) 0.6651(4)
N2 N 0.7632(3) 0.8133(4) 0.7094(4)
N3 N 0.8412(3) 0.7910(4) 0.9593(4)
N4 N 0.7182(3) 0.8349(5) 0.9929(4)
O1 O 0.6360(2) 0.6585(4) 0.6153(3)
O2 O 0.5729(3) 0.7870(4) 0.5669(4)
O3 O 0.6916(3) 0.6679(4) 0.8216(4)
O4 O 0.6343(3) 0.6466(4) 0.9388(3)
O5 O 0.8183(2) 0.4630(4) 0.6617(3)
O6 O 0.8368(3) 0.3025(4) 0.6544(4)
O7 O 0.8112(3) 0.5854(5) 0.8448(4)
O8 O 0.8670(2) 0.5481(3) 0.9849(3)
O9 O 0.6946(3) 0.4673(3) 0.7323(4)
O10 O 0.6970(3) 0.3339(4) 0.6408(4)
O11 O 0.7169(3) 0.4714(3) 1.0040(3)
O12 O 0.7438(3) 0.3156(3) 0.9985(4)
C1 C 0.9138(4) 0.6516(6) 0.6416(6)
H1 H 0.9079 0.5842 0.6311
C2 C 0.9752(4) 0.6926(7) 0.6312(7)
H2 H 1.0090 0.6528 0.6175
C3 C 0.9832(4) 0.7917(7) 0.6420(6)
H3 H 1.0224 0.8208 0.6335
C4 C 0.9319(4) 0.8501(6) 0.6660(5)
C5 C 0.9364(4) 0.9551(6) 0.6737(6)
H4 H 0.9752 0.9861 0.6657
C6 C 0.8867(5) 1.0092(6) 0.6920(6)
H5 H 0.8913 1.0774 0.6966
C7 C 0.8252(4) 0.9642(5) 0.7050(5)
C8 C 0.7706(5) 1.0177(5) 0.7222(5)
H6 H 0.7724 1.0862 0.7241
C9 C 0.7150(4) 0.9712(5) 0.7361(5)
H7 H 0.6791 1.0062 0.7502
C10 C 0.7140(4) 0.8688(5) 0.7283(6)
H8 H 0.6758 0.8367 0.7371
C11 C 0.8181(4) 0.8609(5) 0.6985(5)
C12 C 0.8728(4) 0.8031(5) 0.6762(5)
C13 C 0.9026(4) 0.7730(6) 0.9477(6)
H9 H 0.9159 0.7075 0.9483
C14 C 0.9479(4) 0.8446(7) 0.9347(6)
H10 H 0.9899 0.8272 0.9264
C15 C 0.9294(5) 0.9416(7) 0.9341(6)
H11 H 0.9591 0.9910 0.9253
C16 C 0.8664(5) 0.9661(6) 0.9467(5)
C17 C 0.8450(6) 1.0641(6) 0.9490(6)
H12 H 0.8740 1.1148 0.9416
C18 C 0.7839(6) 1.0870(6) 0.9617(6)
H13 H 0.7711 1.1528 0.9613
C19 C 0.7386(5) 1.0114(5) 0.9759(5)
C20 C 0.6748(6) 1.0298(6) 0.9914(6)
H14 H 0.6599 1.0945 0.9910
C21 C 0.6347(6) 0.9562(8) 1.0067(7)
H15 H 0.5922 0.9682 1.0169
C22 C 0.6598(5) 0.8599(7) 1.0067(7)
H16 H 0.6319 0.8088 1.0176
C23 C 0.7584(4) 0.9116(5) 0.9765(5)
C24 C 0.8229(4) 0.8874(5) 0.9603(5)
C25 C 0.5900(4) 0.7192(6) 0.6243(5)
C26 C 0.5543(4) 0.6993(6) 0.7092(5)
C27 C 0.5784(4) 0.6197(6) 0.7784(5)
H17 H 0.5886 0.5624 0.7419
H18 H 0.5437 0.6011 0.8141
C28 C 0.6380(3) 0.6470(5) 0.8506(5)
C29 C 0.5013(6) 0.7483(11) 0.7189(9)
H19 H 0.4786 0.7331 0.7695
H20 H 0.4865 0.7982 0.6753
C30 C 0.8401(4) 0.3826(6) 0.7012(5)
C31 C 0.8701(4) 0.3833(5) 0.8046(6)
C32 C 0.9041(4) 0.4764(5) 0.8470(5)
H21 H 0.9418 0.4584 0.8938
H22 H 0.9193 0.5139 0.7956
C33 C 0.8590(3) 0.5403(5) 0.8962(5)
C34 C 0.8626(6) 0.3071(7) 0.8585(7)
H23 H 0.8386 0.2531 0.8319
H24 H 0.8812 0.3067 0.9236
C35 C 0.6869(3) 0.3771(5) 0.7162(5)
C36 C 0.6632(3) 0.3159(5) 0.7953(5)
C37 C 0.6513(4) 0.3697(5) 0.8854(6)
H25 H 0.6329 0.4338 0.8660
H26 H 0.6185 0.3334 0.9135
C38 C 0.7095(3) 0.3858(5) 0.9647(5)
C39 C 0.6512(5) 0.2215(6) 0.7808(6)
H27 H 0.6344 0.1846 0.8274
H28 H 0.6594 0.1916 0.7239
La1A La 0.747757(18) 0.38626(2) 1.17794(2)
La2A La 0.758938(18) 0.35562(3) 0.50337(2)
O5A O 0.8183(2) 0.5370(4) 1.1617(3)
O6A O 0.8368(3) 0.6975(4) 1.1544(4)
O10A O 0.6970(3) 0.6661(4) 1.1408(4)
O11A O 0.7169(3) 0.5286(3) 0.5040(3)
O12A O 0.7438(3) 0.6844(3) 0.4985(4)
O13 O 0.5629(3) 0.4741(5) 0.5472(5)
H29 H 0.5787 0.5243 0.5791
H30 H 0.5928 0.4400 0.5279
O14 O 0.5013(4) 0.9612(5) 0.5816(7)
H31 H 0.5249 0.9182 0.5589
H32 H 0.4651 0.9357 0.5931
loop_
_geom_bond_atom_site_label_1
_geom_bond_atom_site_label_2
_geom_bond_site_symmetry_1
_geom_bond_site_symmetry_2
La1 N1 1_555 1_555
La2 N3 1_555 1_555
N1 C1 1_555 1_555
N2 La1 1_555 1_555
N3 C13 1_555 1_555
N4 La2 1_555 1_555
O1 La1 1_555 1_555
O2 C25 1_555 1_555
O3 La1 1_555 1_555
O4 La2 1_555 1_555
O5 La1 1_555 1_555
O6 C30 1_555 1_555
O7 La1 1_555 1_555
O8 La2 1_555 1_555
O9 La1 1_555 1_555
O10 C35 1_555 1_555
O11 La2 1_555 1_555
O12 C38 1_555 1_555
C1 H1 1_555 1_555
C2 C1 1_555 1_555
H2 C2 1_555 1_555
C3 C2 1_555 1_555
H3 C3 1_555 1_555
C4 C3 1_555 1_555
C5 C4 1_555 1_555
H4 C5 1_555 1_555
C6 C5 1_555 1_555
H5 C6 1_555 1_555
C7 C6 1_555 1_555
C8 C7 1_555 1_555
H6 C8 1_555 1_555
C9 C8 1_555 1_555
H7 C9 1_555 1_555
C10 N2 1_555 1_555
H8 C10 1_555 1_555
C11 N2 1_555 1_555
C12 N1 1_555 1_555
C13 H9 1_555 1_555
C14 C13 1_555 1_555
H10 C14 1_555 1_555
C15 C14 1_555 1_555
H11 C15 1_555 1_555
C16 C15 1_555 1_555
C17 C16 1_555 1_555
H12 C17 1_555 1_555
C18 C17 1_555 1_555
H13 C18 1_555 1_555
C19 C18 1_555 1_555
C20 C19 1_555 1_555
H14 C20 1_555 1_555
C21 C20 1_555 1_555
H15 C21 1_555 1_555
C22 N4 1_555 1_555
H16 C22 1_555 1_555
C23 N4 1_555 1_555
C24 N3 1_555 1_555
C25 O1 1_555 1_555
C26 C25 1_555 1_555
C27 C26 1_555 1_555
H17 C27 1_555 1_555
H18 C27 1_555 1_555
C28 O3 1_555 1_555
C29 C26 1_555 1_555
H19 C29 1_555 1_555
H20 C29 1_555 1_555
C30 O5 1_555 1_555
C31 C30 1_555 1_555
C32 C31 1_555 1_555
H21 C32 1_555 1_555
H22 C32 1_555 1_555
C33 O7 1_555 1_555
C34 C31 1_555 1_555
H23 C34 1_555 1_555
H24 C34 1_555 1_555
C35 O9 1_555 1_555
C36 C35 1_555 1_555
C37 C36 1_555 1_555
H25 C37 1_555 1_555
H26 C37 1_555 1_555
C38 O11 1_555 1_555
C39 C36 1_555 1_555
H27 C39 1_555 1_555
H28 C39 1_555 1_555
O13 H29 1_555 1_555
H30 O13 1_555 1_555
O14 H31 1_555 1_555
H32 O14 1_555 1_555
La1A O11 1_555 1_555
La2A O5 1_555 1_555
O5A La2 1_555 1_555
O6A La2 1_555 1_555
O10A La2 1_555 1_555
O11A La1 1_555 1_555
O12A La1 1_555 1_555
La2 O3 1_555 1_555
La2 O7 1_555 1_555
O4 C28 1_555 1_555
O6 La2A 1_555 1_555
O8 C33 1_555 1_555
O10 La2A 1_555 1_555
O12 La1A 1_555 1_555
C4 C12 1_555 1_555
C7 C11 1_555 1_555
C9 C10 1_555 1_555
C11 C12 1_555 1_555
C16 C24 1_555 1_555
C19 C23 1_555 1_555
C21 C22 1_555 1_555
C23 C24 1_555 1_555
C27 C28 1_555 1_555
C32 C33 1_555 1_555
C37 C38 1_555 1_555
La1A O5A 1_555 1_555
La2A O11A 1_555 1_555

#END
