
#######################################################################
#
#                 Cambridge Crystallographic Data Centre
#                                CCDC 
#
#######################################################################
#
# If this CIF has been generated from an entry in the Cambridge 
# Structural Database, then it will include bibliographic, chemical, 
# crystal, experimental, refinement or atomic coordinate data resulting 
# from the CCDC's data processing and validation procedures.
#
#######################################################################

data_RANHAQ
_symmetry_cell_setting           monoclinic
_symmetry_space_group_name_H-M   'P 21/c'
_symmetry_Int_Tables_number      14
_space_group_name_Hall           '-P 2ybc'
loop_
_symmetry_equiv_pos_site_id
_symmetry_equiv_pos_as_xyz
1 x,y,z
2 -x,1/2+y,1/2-z
3 -x,-y,-z
4 x,1/2-y,1/2+z
_cell_length_a                   5.2296(8)
_cell_length_b                   20.668(3)
_cell_length_c                   8.8716(14)
_cell_angle_alpha                90
_cell_angle_beta                 100.359(3)
_cell_angle_gamma                90
_cell_volume                     943.261
loop_
_atom_site_label
_atom_site_type_symbol
_atom_site_fract_x
_atom_site_fract_y
_atom_site_fract_z
Ag1 Ag 0.5000 0.0000 0.5000
Ag2 Ag 0.5000 0.0000 0.0000
N1 N 0.4341(8) 0.09072(17) 0.3724(4)
N2 N 0.7005(7) 0.06418(17) 0.1963(4)
H1 H 0.8637 0.0601 0.2322
C1 C 0.5497(8) 0.1104(2) 0.2565(4)
C2 C 0.5130(8) 0.1718(2) 0.1923(5)
C3 C 0.3481(10) 0.2131(2) 0.2500(5)
H2 H 0.3217 0.2547 0.2104
C4 C 0.2224(10) 0.1936(2) 0.3649(5)
H3 H 0.1071 0.2210 0.4021
C5 C 0.2712(10) 0.1325(3) 0.4236(5)
H4 H 0.1878 0.1192 0.5025
C6 C 0.6509(10) 0.1929(2) 0.0648(5)
H5 H 0.5752 0.1714 -0.0285
H6 H 0.8318 0.1819 0.0908
H7 H 0.6334 0.2389 0.0510
Ag2_2 Ag 0.5000 0.0000 1.0000
N1B N 0.5659(8) -0.09072(17) 0.6276(4)
N2B N 0.2995(7) -0.06418(17) 0.8037(4)
N2B_2 N 0.2995(7) -0.06418(17) -0.1963(4)
H1B H 0.1363 -0.0601 0.7678
H1B_2 H 0.1363 -0.0601 -0.2322
C1B C 0.4503(8) -0.1104(2) 0.7435(4)
C2B C 0.4870(8) -0.1718(2) 0.8077(5)
C3B C 0.6519(10) -0.2131(2) 0.7500(5)
H2B H 0.6783 -0.2547 0.7896
C4B C 0.7776(10) -0.1936(2) 0.6351(5)
H3B H 0.8929 -0.2210 0.5979
C5B C 0.7288(10) -0.1325(3) 0.5764(5)
H4B H 0.8122 -0.1192 0.4975
C6B C 0.3491(10) -0.1929(2) 0.9352(5)
H5B H 0.4248 -0.1714 1.0285
H6B H 0.1682 -0.1819 0.9092
H7B H 0.3666 -0.2389 0.9490
Cl1 Cl -0.0859(2) 0.40960(5) 0.27980(13)
O1 O -0.0433(8) 0.34460(17) 0.2429(4)
O2 O 0.0523(7) 0.42423(19) 0.4310(4)
O3 O -0.3565(6) 0.41983(17) 0.2773(4)
O4 O 0.0000(6) 0.45235(14) 0.1697(4)
loop_
_geom_bond_atom_site_label_1
_geom_bond_atom_site_label_2
_geom_bond_site_symmetry_1
_geom_bond_site_symmetry_2
Ag1 N1 1_555 1_555
Ag2 N2 1_555 1_555
N1 C1 1_555 1_555
N2 H1 1_555 1_555
C1 N2 1_555 1_555
C2 C1 1_555 1_555
C3 C2 1_555 1_555
H2 C3 1_555 1_555
C4 C3 1_555 1_555
H3 C4 1_555 1_555
C5 N1 1_555 1_555
H4 C5 1_555 1_555
C6 C2 1_555 1_555
H5 C6 1_555 1_555
H6 C6 1_555 1_555
H7 C6 1_555 1_555
Cl1 O1 1_555 1_555
O2 Cl1 1_555 1_555
O3 Cl1 1_555 1_555
O4 Cl1 1_555 1_555
Ag2_2 N2B 1_555 1_555
N1B Ag1 1_555 1_555
N2B H1B 1_555 1_555
N2B_2 Ag2 1_555 1_555
H1B_2 N2B_2 1_555 1_555
C1B N1B 1_555 1_555
C2B C1B 1_555 1_555
C3B C2B 1_555 1_555
H2B C3B 1_555 1_555
C4B C3B 1_555 1_555
H3B C4B 1_555 1_555
C5B N1B 1_555 1_555
H4B C5B 1_555 1_555
C6B C2B 1_555 1_555
H5B C6B 1_555 1_555
H6B C6B 1_555 1_555
H7B C6B 1_555 1_555
C4 C5 1_555 1_555
N2B C1B 1_555 1_555
C4B C5B 1_555 1_555

#END
