
#######################################################################
#
#                 Cambridge Crystallographic Data Centre
#                                CCDC 
#
#######################################################################
#
# If this CIF has been generated from an entry in the Cambridge 
# Structural Database, then it will include bibliographic, chemical, 
# crystal, experimental, refinement or atomic coordinate data resulting 
# from the CCDC's data processing and validation procedures.
#
#######################################################################

data_RANMOK
_symmetry_cell_setting           monoclinic
_symmetry_space_group_name_H-M   'C 2/c'
_symmetry_Int_Tables_number      15
_space_group_name_Hall           '-C 2yn'
loop_
_symmetry_equiv_pos_site_id
_symmetry_equiv_pos_as_xyz
1 x,y,z
2 -x,y,1/2-z
3 1/2+x,1/2+y,z
4 1/2-x,1/2+y,1/2-z
5 -x,-y,-z
6 x,-y,1/2+z
7 1/2-x,1/2-y,-z
8 1/2+x,1/2-y,1/2+z
_cell_length_a                   19.5854(5)
_cell_length_b                   12.0780(3)
_cell_length_c                   12.9363(3)
_cell_angle_alpha                90
_cell_angle_beta                 118.1610(10)
_cell_angle_gamma                90
_cell_volume                     2697.87
loop_
_atom_site_label
_atom_site_type_symbol
_atom_site_fract_x
_atom_site_fract_y
_atom_site_fract_z
Th1 Th 0.5000 0.948000(13) 0.7500
O1 O 0.46511(13) 0.77930(19) 0.82215(19)
O2 O 0.38082(14) 0.6423(2) 0.7864(2)
O3 O 0.26605(14) 0.7868(2) 0.6426(2)
O4 O 0.36043(14) 0.8995(2) 0.65510(19)
O5 O 0.43317(15) 1.11828(19) 0.65362(19)
O6 O 0.4349(2) 1.3016(2) 0.6404(3)
O7 O 0.43078(15) 1.03066(18) 0.85659(18)
O8 O 0.43320(15) 1.07191(19) 1.02722(18)
C1 C 0.39831(19) 0.7368(3) 0.7713(3)
C2 C 0.33434(19) 0.8140(3) 0.6814(3)
C3 C 0.4626(2) 1.2141(3) 0.6909(3)
C4 C 0.4607(2) 1.0300(2) 0.9667(3)
Th1D Th 0.5000 1.052000(13) 1.2500
O1A O 0.53489(13) 0.77930(19) 0.67785(19)
O2A O 0.61918(14) 0.6423(2) 0.7136(2)
O3A O 0.73395(14) 0.7868(2) 0.8574(2)
O4A O 0.63957(14) 0.8995(2) 0.84490(19)
O5A O 0.56683(15) 1.11828(19) 0.84638(19)
O6A O 0.5651(2) 1.3016(2) 0.8596(3)
O7D O 0.56922(15) 0.96934(18) 1.14341(18)
O7A O 0.56922(15) 1.03066(18) 0.64341(18)
O8D O 0.56680(15) 0.92809(19) 0.97278(18)
O8E O 0.43320(15) 0.92809(19) 0.52722(18)
C1A C 0.60169(19) 0.7368(3) 0.7287(3)
C2A C 0.66566(19) 0.8140(3) 0.8186(3)
C3A C 0.5374(2) 1.2141(3) 0.8091(3)
C4D C 0.5393(2) 0.9700(2) 1.0333(3)
O9 O 0.29865(18) 1.1705(3) 0.7096(3)
H1 H 0.335(3) 1.127(4) 0.736(5)
H2 H 0.272(3) 1.175(6) 0.744(5)
N1 N 0.39544(16) 0.6656(2) 0.5047(2)
H3 H 0.3483(14) 0.691(3) 0.464(3)
H4 H 0.4354(17) 0.708(3) 0.544(3)
N2 N 0.47207(17) 0.5189(3) 0.6081(3)
H5 H 0.5123(18) 0.563(3) 0.638(4)
H6 H 0.476(3) 0.4500(19) 0.630(4)
N3 N 0.34365(19) 0.4912(3) 0.4817(3)
H7 H 0.2983(16) 0.521(4) 0.438(4)
H8 H 0.353(3) 0.4201(18) 0.492(4)
C5 C 0.40395(18) 0.5592(3) 0.5325(3)
N4 N 0.2890(3) 1.1439(4) 0.4322(3)
H9 H 0.333(2) 1.134(6) 0.497(3)
H10 H 0.271(4) 1.212(3) 0.413(6)
N5 N 0.2642(2) 0.9595(3) 0.3971(3)
H11 H 0.306(2) 0.937(4) 0.459(3)
H12 H 0.234(3) 0.904(3) 0.354(4)
N6 N 0.1774(2) 1.0863(4) 0.2743(3)
H13 H 0.166(3) 1.1568(19) 0.261(5)
H14 H 0.151(3) 1.029(3) 0.230(4)
C6 C 0.2444(2) 1.0625(4) 0.3688(3)
loop_
_geom_bond_atom_site_label_1
_geom_bond_atom_site_label_2
_geom_bond_site_symmetry_1
_geom_bond_site_symmetry_2
Th1 O1 1_555 1_555
O1 C1 1_555 1_555
O2 C1 1_555 1_555
O3 C2 1_555 1_555
O4 Th1 1_555 1_555
O5 Th1 1_555 1_555
O6 C3 1_555 1_555
O7 Th1 1_555 1_555
O8 C4 1_555 1_555
O9 H1 1_555 1_555
H2 O9 1_555 1_555
N1 H3 1_555 1_555
H4 N1 1_555 1_555
N2 H5 1_555 1_555
H6 N2 1_555 1_555
N3 H7 1_555 1_555
H8 N3 1_555 1_555
N4 H9 1_555 1_555
H10 N4 1_555 1_555
N5 H11 1_555 1_555
H12 N5 1_555 1_555
N6 H13 1_555 1_555
H14 N6 1_555 1_555
C1 C2 1_555 1_555
C2 O4 1_555 1_555
C3 O5 1_555 1_555
C4 O7 1_555 1_555
C5 N1 1_555 1_555
C6 N4 1_555 1_555
Th1D O8 1_555 1_555
O1A Th1 1_555 1_555
O2A C1A 1_555 1_555
O3A C2A 1_555 1_555
O4A Th1 1_555 1_555
O5A Th1 1_555 1_555
O6A C3A 1_555 1_555
O7D Th1D 1_555 1_555
O7A Th1 1_555 1_555
O8D Th1 1_555 1_555
O8E Th1 1_555 1_555
C1A O1A 1_555 1_555
C2A O4A 1_555 1_555
C3A C3 1_555 1_555
C4D C4 1_555 1_555
N2 C5 1_555 1_555
N3 C5 1_555 1_555
N5 C6 1_555 1_555
N6 C6 1_555 1_555
O5A C3A 1_555 1_555
O7D C4D 1_555 1_555
O8D C4D 1_555 1_555
C1A C2A 1_555 1_555

#END
