
#######################################################################
#
#                 Cambridge Crystallographic Data Centre
#                                CCDC 
#
#######################################################################
#
# If this CIF has been generated from an entry in the Cambridge 
# Structural Database, then it will include bibliographic, chemical, 
# crystal, experimental, refinement or atomic coordinate data resulting 
# from the CCDC's data processing and validation procedures.
#
#######################################################################

data_RANNAX
_symmetry_cell_setting           monoclinic
_symmetry_space_group_name_H-M   'C 2/c'
_symmetry_Int_Tables_number      15
_space_group_name_Hall           '-C 2yn'
loop_
_symmetry_equiv_pos_site_id
_symmetry_equiv_pos_as_xyz
1 x,y,z
2 -x,y,1/2-z
3 1/2+x,1/2+y,z
4 1/2-x,1/2+y,1/2-z
5 -x,-y,-z
6 x,-y,1/2+z
7 1/2-x,1/2-y,-z
8 1/2+x,1/2-y,1/2+z
_cell_length_a                   19.6222(3)
_cell_length_b                   11.9186(2)
_cell_length_c                   12.7670(2)
_cell_angle_alpha                90
_cell_angle_beta                 117.7250(10)
_cell_angle_gamma                90
_cell_volume                     2643.01
loop_
_atom_site_label
_atom_site_type_symbol
_atom_site_fract_x
_atom_site_fract_y
_atom_site_fract_z
Np1 Np 0.5000 0.949664(9) 0.7500
O1 O 0.46663(11) 0.78340(16) 0.82238(16)
O2 O 0.38231(13) 0.6456(2) 0.7884(2)
O3 O 0.26878(14) 0.7929(3) 0.64271(19)
O4 O 0.36398(14) 0.90556(17) 0.65667(16)
O5 O 0.43396(16) 1.11663(15) 0.65369(16)
O6 O 0.4338(2) 1.3025(2) 0.6409(4)
O7 O 0.43242(16) 1.03237(16) 0.85580(15)
O8 O 0.43334(16) 1.07228(17) 1.02822(15)
C1 C 0.39955(16) 0.7409(2) 0.7723(2)
C2 C 0.33719(17) 0.8193(3) 0.68235(19)
C3 C 0.4623(2) 1.2136(2) 0.6907(3)
C4 C 0.4614(2) 1.03036(19) 0.96681(18)
Np1D Np 0.5000 1.050336(9) 1.2500
O1A O 0.53337(11) 0.78340(16) 0.67762(16)
O2A O 0.61769(13) 0.6456(2) 0.7116(2)
O3A O 0.73122(14) 0.7929(3) 0.85729(19)
O4A O 0.63602(14) 0.90556(17) 0.84333(16)
O5A O 0.56604(16) 1.11663(15) 0.84631(16)
O6A O 0.5662(2) 1.3025(2) 0.8591(4)
O7D O 0.56758(16) 0.96763(16) 1.14420(15)
O7A O 0.56758(16) 1.03237(16) 0.64420(15)
O8D O 0.56666(16) 0.92772(17) 0.97178(15)
O8E O 0.43334(16) 0.92772(17) 0.52822(15)
C1A C 0.60045(16) 0.7409(2) 0.7277(2)
C2A C 0.66281(17) 0.8193(3) 0.81765(19)
C3A C 0.5377(2) 1.2136(2) 0.8093(3)
C4D C 0.5386(2) 0.96964(19) 1.03319(18)
O9 O 0.29781(18) 1.1672(4) 0.7009(4)
H1 H 0.332(3) 1.118(5) 0.731(7)
H2 H 0.282(4) 1.152(7) 0.750(6)
N1 N 0.39388(13) 0.66999(15) 0.50284(18)
H3 H 0.3481(14) 0.696(3) 0.454(3)
H4 H 0.4338(17) 0.714(3) 0.542(3)
N2 N 0.47138(15) 0.5222(2) 0.6072(2)
H5 H 0.512(2) 0.568(3) 0.639(4)
H6 H 0.474(3) 0.452(2) 0.631(4)
N3 N 0.34277(16) 0.4934(2) 0.4823(3)
H7 H 0.2972(17) 0.521(4) 0.434(4)
H8 H 0.351(3) 0.423(2) 0.504(5)
C5 C 0.40298(14) 0.56193(17) 0.53168(19)
N4 N 0.2927(3) 1.1416(4) 0.4297(3)
H9 H 0.337(2) 1.134(7) 0.494(4)
H10 H 0.276(5) 1.211(3) 0.410(7)
N5 N 0.2663(2) 0.9539(4) 0.3937(3)
H11 H 0.309(2) 0.934(6) 0.456(4)
H12 H 0.230(3) 0.904(5) 0.357(6)
N6 N 0.1787(2) 1.0840(4) 0.2758(3)
H13 H 0.166(4) 1.155(2) 0.262(6)
H14 H 0.148(3) 1.031(4) 0.231(5)
C6 C 0.2462(3) 1.0598(4) 0.3675(3)
loop_
_geom_bond_atom_site_label_1
_geom_bond_atom_site_label_2
_geom_bond_site_symmetry_1
_geom_bond_site_symmetry_2
Np1 O1 1_555 1_555
O1 C1 1_555 1_555
O2 C1 1_555 1_555
O3 C2 1_555 1_555
O4 Np1 1_555 1_555
O5 Np1 1_555 1_555
O6 C3 1_555 1_555
O7 Np1 1_555 1_555
O8 C4 1_555 1_555
O9 H1 1_555 1_555
H2 O9 1_555 1_555
N1 H3 1_555 1_555
H4 N1 1_555 1_555
N2 H5 1_555 1_555
H6 N2 1_555 1_555
N3 H7 1_555 1_555
H8 N3 1_555 1_555
N4 H9 1_555 1_555
H10 N4 1_555 1_555
N5 H11 1_555 1_555
H12 N5 1_555 1_555
N6 H13 1_555 1_555
H14 N6 1_555 1_555
C1 C2 1_555 1_555
C2 O4 1_555 1_555
C3 O5 1_555 1_555
C4 O7 1_555 1_555
C5 N1 1_555 1_555
C6 N4 1_555 1_555
Np1D O8 1_555 1_555
O1A Np1 1_555 1_555
O2A C1A 1_555 1_555
O3A C2A 1_555 1_555
O4A Np1 1_555 1_555
O5A Np1 1_555 1_555
O6A C3A 1_555 1_555
O7D Np1D 1_555 1_555
O7A Np1 1_555 1_555
O8D Np1 1_555 1_555
O8E Np1 1_555 1_555
C1A O1A 1_555 1_555
C2A O4A 1_555 1_555
C3A C3 1_555 1_555
C4D C4 1_555 1_555
N2 C5 1_555 1_555
N3 C5 1_555 1_555
N5 C6 1_555 1_555
N6 C6 1_555 1_555
O5A C3A 1_555 1_555
O7D C4D 1_555 1_555
O8D C4D 1_555 1_555
C1A C2A 1_555 1_555

#END
