
#######################################################################
#
#                 Cambridge Crystallographic Data Centre
#                                CCDC 
#
#######################################################################
#
# If this CIF has been generated from an entry in the Cambridge 
# Structural Database, then it will include bibliographic, chemical, 
# crystal, experimental, refinement or atomic coordinate data resulting 
# from the CCDC's data processing and validation procedures.
#
#######################################################################

data_RANPUT
_symmetry_cell_setting           triclinic
_symmetry_space_group_name_H-M   'P -1'
_symmetry_Int_Tables_number      2
_space_group_name_Hall           '-P 1'
loop_
_symmetry_equiv_pos_site_id
_symmetry_equiv_pos_as_xyz
1 x,y,z
2 -x,-y,-z
_cell_length_a                   7.6184(4)
_cell_length_b                   8.0735(4)
_cell_length_c                   10.4815(5)
_cell_angle_alpha                78.5000(10)
_cell_angle_beta                 82.7420(10)
_cell_angle_gamma                71.9380(10)
_cell_volume                     599.171
loop_
_atom_site_label
_atom_site_type_symbol
_atom_site_fract_x
_atom_site_fract_y
_atom_site_fract_z
Zn1 Zn 0.5000 0.5000 0.5000
O1 O 0.63421(17) 0.22369(16) 0.47525(12)
H1 H 0.5794 0.1784 0.4336
H2 H 0.7479 0.2004 0.4478
O2 O 0.38404(16) 0.56296(16) 0.31996(12)
H3 H 0.4391 0.5466 0.2469
H4 H 0.3396 0.4741 0.3200
O3 O 0.28065(16) 0.41823(16) 0.59007(11)
O4 O 0.19482(17) 0.31855(17) 0.42983(11)
O5 O 0.37464(17) 0.33917(16) 0.87549(11)
O6 O 0.18802(17) 0.61616(16) 0.87187(12)
N1 N 0.12969(19) 0.22677(18) 0.78272(13)
H5 H 0.2470 0.2000 0.7768
C1 C 0.0802(2) 0.2365(2) 0.64643(16)
H6 H -0.0530 0.2998 0.6386
H7 H 0.1026 0.1155 0.6287
C2 C 0.1948(2) 0.3324(2) 0.54619(17)
C3 C 0.0606(2) 0.4033(2) 0.82695(16)
H8 H -0.0269 0.3966 0.9048
H9 H -0.0064 0.4935 0.7569
C4 C 0.2225(2) 0.4573(2) 0.86010(16)
C5 C 0.0818(2) 0.0763(2) 0.87846(16)
H10 H 0.1386 -0.0344 0.8408
C6 C -0.1269(2) 0.1048(2) 0.89702(17)
H11 H -0.1765 0.1151 0.8119
H12 H -0.1882 0.2159 0.9315
C7 C 0.1683(2) 0.0515(2) 1.00732(16)
H13 H 0.1177 0.1606 1.0459
H14 H 0.3038 0.0292 0.9912
Zn1_2 Zn -0.5000 -0.5000 1.5000
O1A O 0.36579(17) 0.77631(16) 0.52475(12)
H1A H 0.4206 0.8216 0.5664
H2A H 0.2521 0.7996 0.5522
O2A O 0.61596(16) 0.43704(16) 0.68004(12)
H3A H 0.5609 0.4534 0.7531
H4A H 0.6604 0.5259 0.6800
O3A O -0.28065(16) -0.41823(16) 1.40993(11)
O3A_2 O 0.71935(16) 0.58177(16) 0.40993(11)
O4A O -0.19482(17) -0.31855(17) 1.57017(11)
O5A O -0.37464(17) -0.33917(16) 1.12451(11)
O6A O -0.18802(17) -0.61616(16) 1.12813(12)
N1A N -0.12969(19) -0.22677(18) 1.21728(13)
H5A H -0.2470 -0.2000 1.2232
C1A C -0.0802(2) -0.2365(2) 1.35357(16)
H6A H 0.0530 -0.2998 1.3614
H7A H -0.1026 -0.1155 1.3713
C2A C -0.1948(2) -0.3324(2) 1.45381(17)
C3A C -0.0606(2) -0.4033(2) 1.17305(16)
H8A H 0.0269 -0.3966 1.0952
H9A H 0.0064 -0.4935 1.2431
C4A C -0.2225(2) -0.4573(2) 1.13990(16)
C5A C -0.0818(2) -0.0763(2) 1.12154(16)
H10A H -0.1386 0.0344 1.1592
C6A C 0.1269(2) -0.1048(2) 1.10298(17)
H11A H 0.1765 -0.1151 1.1881
H12A H 0.1882 -0.2159 1.0685
C7A C -0.1683(2) -0.0515(2) 0.99268(16)
H13A H -0.1177 -0.1606 0.9541
H14A H -0.3038 -0.0292 1.0088
O7 O 0.46885(18) -0.00899(17) 0.68425(13)
H15 H 0.5572 0.0305 0.6467
H16 H 0.5086 -0.0971 0.7446
O8 O 0.47418(18) 0.30515(17) 0.13001(12)
H17 H 0.4438 0.3154 0.0529
H18 H 0.5755 0.3287 0.1296
O9 O 0.97649(17) 0.15535(16) 0.34658(12)
H19 H 1.0446 0.2059 0.3726
H20 H 0.9264 0.2246 0.2802
loop_
_geom_bond_atom_site_label_1
_geom_bond_atom_site_label_2
_geom_bond_site_symmetry_1
_geom_bond_site_symmetry_2
Zn1 O1 1_555 1_555
O1 H1 1_555 1_555
H2 O1 1_555 1_555
O2 Zn1 1_555 1_555
H3 O2 1_555 1_555
H4 O2 1_555 1_555
O3 Zn1 1_555 1_555
O4 C2 1_555 1_555
O5 C4 1_555 1_555
O6 C4 1_555 1_555
N1 H5 1_555 1_555
C1 N1 1_555 1_555
H6 C1 1_555 1_555
H7 C1 1_555 1_555
C2 O3 1_555 1_555
C3 N1 1_555 1_555
H8 C3 1_555 1_555
H9 C3 1_555 1_555
C4 C3 1_555 1_555
C5 N1 1_555 1_555
H10 C5 1_555 1_555
C6 C5 1_555 1_555
H11 C6 1_555 1_555
H12 C6 1_555 1_555
C7 C5 1_555 1_555
H13 C7 1_555 1_555
H14 C7 1_555 1_555
O7 H15 1_555 1_555
H16 O7 1_555 1_555
O8 H17 1_555 1_555
H18 O8 1_555 1_555
O9 H19 1_555 1_555
H20 O9 1_555 1_555
Zn1_2 O3A 1_555 1_555
O1A Zn1 1_555 1_555
H1A O1A 1_555 1_555
H2A O1A 1_555 1_555
O2A Zn1 1_555 1_555
H3A O2A 1_555 1_555
H4A O2A 1_555 1_555
O3A C2A 1_555 1_555
O3A_2 Zn1 1_555 1_555
O4A C2A 1_555 1_555
O5A C4A 1_555 1_555
O6A C4A 1_555 1_555
N1A H5A 1_555 1_555
C1A N1A 1_555 1_555
H6A C1A 1_555 1_555
H7A C1A 1_555 1_555
C2A C1A 1_555 1_555
C3A N1A 1_555 1_555
H8A C3A 1_555 1_555
H9A C3A 1_555 1_555
C4A C3A 1_555 1_555
C5A N1A 1_555 1_555
H10A C5A 1_555 1_555
C6A C7 1_555 1_555
H11A C6A 1_555 1_555
H12A C6A 1_555 1_555
C7A C6 1_555 1_555
H13A C7A 1_555 1_555
H14A C7A 1_555 1_555
C1 C2 1_555 1_555
C5A C6A 1_555 1_555
C5A C7A 1_555 1_555

#END
