
#######################################################################
#
#                 Cambridge Crystallographic Data Centre
#                                CCDC 
#
#######################################################################
#
# If this CIF has been generated from an entry in the Cambridge 
# Structural Database, then it will include bibliographic, chemical, 
# crystal, experimental, refinement or atomic coordinate data resulting 
# from the CCDC's data processing and validation procedures.
#
#######################################################################

data_RANYUA01
_symmetry_cell_setting           orthorhombic
_symmetry_space_group_name_H-M   'P b c a'
_symmetry_Int_Tables_number      61
_space_group_name_Hall           '-P 2ac 2ab'
loop_
_symmetry_equiv_pos_site_id
_symmetry_equiv_pos_as_xyz
1 x,y,z
2 1/2-x,-y,1/2+z
3 -x,1/2+y,1/2-z
4 1/2+x,1/2-y,-z
5 -x,-y,-z
6 1/2+x,y,1/2-z
7 x,1/2-y,1/2+z
8 1/2-x,1/2+y,z
_cell_length_a                   13.156(3)
_cell_length_b                   7.7171(17)
_cell_length_c                   26.148(6)
_cell_angle_alpha                90
_cell_angle_beta                 90
_cell_angle_gamma                90
_cell_volume                     2654.71
loop_
_atom_site_label
_atom_site_type_symbol
_atom_site_fract_x
_atom_site_fract_y
_atom_site_fract_z
Br1 Br -0.33385(6) 0.77342(10) 0.06347(3)
C1 C -0.3907(6) 0.2127(9) -0.0260(2)
H1 H -0.3884 0.1170 -0.0044
C2 C -0.4012(6) 0.1906(9) -0.0788(2)
C3 C -0.4001(5) 0.4791(9) -0.0919(2)
H2 H -0.4047 0.5740 -0.1137
C4 C -0.3909(6) 0.5047(9) -0.0399(2)
H3 H -0.3893 0.6177 -0.0275
C5 C -0.4073(6) 0.0112(10) -0.1031(2)
C6 C -0.3767(6) 0.4940(9) 0.2235(2)
H4 H -0.3755 0.5901 0.2450
C7 C -0.3712(6) 0.5159(9) 0.1709(2)
H5 H -0.3672 0.6277 0.1578
C8 C -0.3777(6) 0.2246(8) 0.1589(2)
H6 H -0.3788 0.1292 0.1372
C9 C -0.3828(5) 0.1974(8) 0.2111(2)
C10 C -0.3894(6) 0.0264(9) 0.2362(2)
Cu1 Cu -0.33614(8) 0.41641(13) 0.06450(3)
Cu2 Cu -0.38848(7) 0.25972(9) 0.31664(3)
N1 N -0.3840(5) 0.3745(7) -0.00673(19)
N2 N -0.4027(4) 0.3186(7) -0.11111(19)
N3 N -0.3837(4) 0.3360(7) 0.24328(19)
N4 N -0.3714(5) 0.3837(7) 0.13850(19)
O1 O -0.4025(4) 0.0120(6) -0.15251(16)
O2 O -0.4157(7) -0.1180(7) -0.0774(2)
O3 O -0.3874(5) -0.1069(6) 0.21037(18)
O4 O -0.3964(4) 0.0304(6) 0.28531(16)
O5 O -0.2191(4) 0.2598(6) 0.3210(2)
Br1G Br -0.16615(6) 0.27342(10) 0.06347(3)
Cu1G Cu -0.16386(8) 0.91641(13) 0.06450(3)
Cu2F Cu -0.38848(7) 0.24028(9) -0.18336(3)
N2F N -0.4027(4) 0.1814(7) 0.38889(19)
O1F O -0.4025(4) 0.4880(6) 0.34749(16)
loop_
_geom_bond_atom_site_label_1
_geom_bond_atom_site_label_2
_geom_bond_site_symmetry_1
_geom_bond_site_symmetry_2
Br1 Cu1 1_555 1_555
C1 H1 1_555 1_555
C2 C1 1_555 1_555
C3 H2 1_555 1_555
C4 C3 1_555 1_555
H3 C4 1_555 1_555
C5 C2 1_555 1_555
C6 H4 1_555 1_555
C7 C6 1_555 1_555
H5 C7 1_555 1_555
C8 H6 1_555 1_555
C9 C8 1_555 1_555
C10 C9 1_555 1_555
Cu1 N1 1_555 1_555
Cu2 N3 1_555 1_555
N1 C1 1_555 1_555
N2 C2 1_555 1_555
N3 C6 1_555 1_555
N4 C7 1_555 1_555
O1 C5 1_555 1_555
O2 C5 1_555 1_555
O3 C10 1_555 1_555
O4 C10 1_555 1_555
O5 Cu2 1_555 1_555
Br1G Cu1 1_555 1_555
Cu1G Br1 1_555 1_555
Cu2F N2 1_555 1_555
N2F Cu2 1_555 1_555
O1F Cu2 1_555 1_555
C3 N2 1_555 1_555
C4 N1 1_555 1_555
C8 N4 1_555 1_555
C9 N3 1_555 1_555
Cu1 N4 1_555 1_555
Cu2 O4 1_555 1_555
O1 Cu2F 1_555 1_555

#END
