
#######################################################################
#
#                 Cambridge Crystallographic Data Centre
#                                CCDC 
#
#######################################################################
#
# If this CIF has been generated from an entry in the Cambridge 
# Structural Database, then it will include bibliographic, chemical, 
# crystal, experimental, refinement or atomic coordinate data resulting 
# from the CCDC's data processing and validation procedures.
#
#######################################################################

data_RANYAH
_symmetry_cell_setting           monoclinic
_symmetry_space_group_name_H-M   'P 21/c'
_symmetry_Int_Tables_number      14
_space_group_name_Hall           '-P 2ybc'
loop_
_symmetry_equiv_pos_site_id
_symmetry_equiv_pos_as_xyz
1 x,y,z
2 -x,1/2+y,1/2-z
3 -x,-y,-z
4 x,1/2-y,1/2+z
_cell_length_a                   10.8435(7)
_cell_length_b                   8.4137(5)
_cell_length_c                   14.4632(9)
_cell_angle_alpha                90
_cell_angle_beta                 96.5510(10)
_cell_angle_gamma                90
_cell_volume                     1310.92
loop_
_atom_site_label
_atom_site_type_symbol
_atom_site_fract_x
_atom_site_fract_y
_atom_site_fract_z
Ag1 Ag 0.08516(5) 0.64385(7) 0.07716(4)
N1 N 0.2444(4) 0.5033(6) 0.1282(3)
N2 N 0.0776(5) 0.2885(6) 0.4583(3)
C1 C 0.2582(5) 0.4603(7) 0.2182(4)
H1 H 0.1945 0.4837 0.2540
C2 C 0.3615(5) 0.3833(7) 0.2604(4)
C3 C 0.4551(6) 0.3460(8) 0.2049(5)
H2 H 0.5269 0.2949 0.2307
C4 C 0.4404(6) 0.3849(9) 0.1130(5)
H3 H 0.5007 0.3581 0.0749
C5 C 0.3358(6) 0.4637(8) 0.0779(4)
H4 H 0.3274 0.4916 0.0152
C6 C 0.3810(6) 0.3519(7) 0.3618(4)
C7 C 0.1629(5) 0.2935(7) 0.3993(4)
H5 H 0.1454 0.2460 0.3412
C8 C 0.2769(6) 0.3664(7) 0.4209(4)
C9 C 0.2999(6) 0.4433(8) 0.5066(4)
H6 H 0.3754 0.4937 0.5236
C10 C 0.2093(7) 0.4433(8) 0.5652(4)
H7 H 0.2215 0.4970 0.6217
C11 C 0.1009(7) 0.3640(7) 0.5400(4)
H8 H 0.0409 0.3622 0.5811
O1 O 0.4837(4) 0.3169(7) 0.3990(4)
Ag1A Ag -0.08516(5) 0.14385(7) 0.42284(4)
N2A N -0.0776(5) 0.7885(6) 0.0417(3)
Cl1 Cl 0.1566(2) 0.8564(2) 0.32296(14)
O2 O 0.1005(12) 0.9236(13) 0.3935(7)
O3 O 0.069(3) 0.749(5) 0.284(3)
O4 O 0.0687(14) 0.9634(17) 0.2797(15)
O5 O 0.2445(18) 0.834(3) 0.2668(15)
O6? O 0.209(6) 0.794(7) 0.406(3)
O7? O 0.2441(11) 0.9759(13) 0.3029(10)
O8? O 0.233(2) 0.7492(18) 0.3753(13)
O9? O 0.100(4) 0.761(6) 0.255(3)
loop_
_geom_bond_atom_site_label_1
_geom_bond_atom_site_label_2
_geom_bond_site_symmetry_1
_geom_bond_site_symmetry_2
Ag1 N1 1_555 1_555
N1 C1 1_555 1_555
N2 C7 1_555 1_555
C1 H1 1_555 1_555
C2 C1 1_555 1_555
C3 C2 1_555 1_555
H2 C3 1_555 1_555
C4 C3 1_555 1_555
H3 C4 1_555 1_555
C5 N1 1_555 1_555
H4 C5 1_555 1_555
C6 C2 1_555 1_555
C7 H5 1_555 1_555
C8 C6 1_555 1_555
C9 C8 1_555 1_555
H6 C9 1_555 1_555
C10 C9 1_555 1_555
H7 C10 1_555 1_555
C11 N2 1_555 1_555
H8 C11 1_555 1_555
O1 C6 1_555 1_555
Cl1 O2 1_555 1_555
O3 Cl1 1_555 1_555
O4 Cl1 1_555 1_555
O5 Cl1 1_555 1_555
Ag1A N2 1_555 1_555
N2A Ag1 1_555 1_555
C4 C5 1_555 1_555
C7 C8 1_555 1_555
C10 C11 1_555 1_555

#END
