
#######################################################################
#
#                 Cambridge Crystallographic Data Centre
#                                CCDC 
#
#######################################################################
#
# If this CIF has been generated from an entry in the Cambridge 
# Structural Database, then it will include bibliographic, chemical, 
# crystal, experimental, refinement or atomic coordinate data resulting 
# from the CCDC's data processing and validation procedures.
#
#######################################################################

data_RAPJIC01
_symmetry_cell_setting           monoclinic
_symmetry_space_group_name_H-M   'P 21/c'
_symmetry_Int_Tables_number      14
_space_group_name_Hall           '-P 2ybc'
loop_
_symmetry_equiv_pos_site_id
_symmetry_equiv_pos_as_xyz
1 x,y,z
2 -x,1/2+y,1/2-z
3 -x,-y,-z
4 x,1/2-y,1/2+z
_cell_length_a                   16.3222(6)
_cell_length_b                   16.2594(5)
_cell_length_c                   16.4885(5)
_cell_angle_alpha                90
_cell_angle_beta                 94.9900(10)
_cell_angle_gamma                90
_cell_volume                     4359.28
loop_
_atom_site_label
_atom_site_type_symbol
_atom_site_fract_x
_atom_site_fract_y
_atom_site_fract_z
Mn1 Mn 0.74407(5) 0.44250(5) 0.50835(4)
Mn2 Mn 0.72620(5) 0.10629(5) 0.52517(4)
Mn3 Mn 0.78473(4) 0.77561(5) 0.46029(4)
C1 C 0.7928(3) -0.0587(3) 0.5256(3)
C2 C 0.6834(3) 0.2765(3) 0.4987(3)
C3 C 0.7236(3) -0.0569(3) 0.4534(3)
C4 C 0.7551(3) 0.2766(3) 0.5680(3)
O1 O 0.77786(19) 0.2078(2) 0.59680(19)
O2 O 0.7869(2) 0.3444(2) 0.58942(19)
O3 O 0.84664(19) 0.6747(2) 0.52241(19)
O4 O 0.6848(2) 0.0090(2) 0.4416(2)
O5 O 0.65590(19) 0.2080(2) 0.47428(19)
O6 O 0.72290(19) 0.6724(2) 0.40213(19)
O7 O 0.7115(2) -0.1216(2) 0.41231(19)
O8 O 0.8343(2) -0.1238(2) 0.5347(2)
O9 O 0.8026(2) 0.0040(2) 0.5692(2)
N1 N 0.3678(3) 0.5684(3) 0.8885(2)
C5 C 0.4471(3) 0.5880(4) 0.9043(3)
H1 H 0.4637 0.6120 0.9543
N2 N 1.1221(2) 0.3011(3) 0.1325(2)
C6 C 1.0424(3) 0.2815(3) 0.1158(3)
H2 H 1.0266 0.2565 0.0661
N3 N 0.8261(3) 0.1280(3) 0.4343(3)
O10 O 0.65884(19) 0.3447(2) 0.47098(19)
N4 N 0.6869(2) 0.7673(3) 0.5590(2)
C7 C 1.1424(3) 0.3378(3) 0.2039(3)
H3 H 1.1970 0.3532 0.2160
C8 C 0.9826(3) 0.2965(3) 0.1688(3)
H4 H 0.9282 0.2818 0.1545
C9 C 0.4828(3) 0.5399(3) 0.7750(3)
C10 C 0.5059(3) 0.5744(3) 0.8499(3)
H5 H 0.5606 0.5885 0.8639
C11 C 0.3469(3) 0.5328(3) 0.8165(3)
H6 H 0.2923 0.5168 0.8051
C12 C 1.0048(3) 0.3337(3) 0.2439(3)
C13 C 0.8058(3) 0.1432(4) 0.3560(3)
H7 H 0.7524 0.1605 0.3407
C14 C 0.9394(3) 0.1095(3) 0.3170(3)
C15 C 0.8591(3) 0.1348(3) 0.2958(3)
H8 H 0.8414 0.1460 0.2417
C16 C 0.9998(3) 0.0968(3) 0.2546(3)
C17 C 0.5475(3) 0.7756(4) 0.5921(3)
H9 H 0.4922 0.7794 0.5735
C18 C 1.0825(3) 0.1132(4) 0.2739(3)
H10 H 1.1015 0.1310 0.3258
C19 C 0.9615(3) 0.0963(4) 0.3993(3)
H11 H 1.0150 0.0808 0.4166
C20 C 0.6067(3) 0.7728(4) 0.5374(3)
H12 H 0.5896 0.7749 0.4821
C21 C 0.9754(3) 0.0693(3) 0.1776(3)
H13 H 0.9205 0.0572 0.1626
C22 C 0.9046(3) 0.1059(4) 0.4551(3)
H14 H 0.9211 0.0969 0.5098
C23 C 1.0876(3) 0.3544(3) 0.2609(3)
H15 H 1.1055 0.3791 0.3101
C24 C 0.4006(3) 0.5180(3) 0.7579(3)
H16 H 0.3824 0.4941 0.7083
N5 N 1.1133(3) 0.0758(3) 0.1390(3)
C25 C 1.0346(3) 0.0598(3) 0.1227(3)
H17 H 1.0174 0.0410 0.0707
C26 C 0.5087(3) 0.7764(3) 0.7360(3)
C27 C 1.1362(3) 0.1025(4) 0.2139(3)
H18 H 1.1915 0.1147 0.2268
C28 C 0.5707(3) 0.7726(3) 0.6750(3)
C29 C 0.4288(3) 0.7485(3) 0.7183(3)
H19 H 0.4126 0.7266 0.6673
C30 C 0.6542(3) 0.7662(4) 0.6976(3)
H20 H 0.6733 0.7641 0.7524
C31 C 0.7087(3) 0.7631(4) 0.6387(3)
H21 H 0.7644 0.7577 0.6555
N6 N 0.3915(3) 0.7850(3) 0.8506(3)
C32 C 0.5281(3) 0.8093(3) 0.8131(3)
H22 H 0.5807 0.8293 0.8280
C33 C 0.3741(3) 0.7533(3) 0.7766(3)
H23 H 0.3213 0.7332 0.7636
C34 C 0.4677(3) 0.8119(4) 0.8673(3)
H24 H 0.4816 0.8339 0.9187
N7 N 0.6578(3) 0.4943(3) 0.6001(2)
C35 C 0.6219(3) 0.4977(4) 0.7383(3)
H25 H 0.6385 0.4894 0.7931
C36 C 0.6754(3) 0.4817(4) 0.6794(3)
H26 H 0.7270 0.4607 0.6964
C37 C 0.5442(3) 0.5261(3) 0.7146(3)
C38 C 0.5840(3) 0.5246(4) 0.5782(3)
H27 H 0.5703 0.5354 0.5233
C39 C 0.5259(3) 0.5412(4) 0.6322(3)
H28 H 0.4748 0.5624 0.6134
N8 N 0.8299(3) 0.3863(3) 0.4169(2)
C40 C 0.8101(3) 0.3906(4) 0.3371(3)
H29 H 0.7569 0.4068 0.3192
C41 C 0.8634(3) 0.3726(4) 0.2789(3)
H30 H 0.8455 0.3752 0.2238
C42 C 0.9645(3) 0.3435(3) 0.3868(3)
H31 H 1.0171 0.3273 0.4066
C43 C 0.9439(3) 0.3505(3) 0.3036(3)
C44 C 0.9058(3) 0.3610(3) 0.4396(3)
H32 H 0.9204 0.3547 0.4950
O11 O 0.7019(2) 0.5386(2) 0.42544(19)
O12 O 0.8293(2) 0.5403(2) 0.5438(2)
C45 C 0.7392(3) 0.6055(3) 0.4383(3)
C46 C 0.8124(3) 0.6062(3) 0.5079(3)
Mn2A Mn 0.27380(5) 0.60629(5) 0.97483(4)
Mn3_2 Mn 0.78473(4) -0.22439(5) 0.46029(4)
Mn3A Mn 1.21527(4) 0.27561(5) 0.03971(4)
O7_2 O 0.7115(2) 0.8784(2) 0.41231(19)
O8_2 O 0.8343(2) 0.8762(2) 0.5347(2)
N1A N 0.6322(3) 0.0684(3) 0.6115(2)
N2A N 0.8779(2) 0.8011(3) 0.3675(2)
loop_
_geom_bond_atom_site_label_1
_geom_bond_atom_site_label_2
_geom_bond_site_symmetry_1
_geom_bond_site_symmetry_2
Mn1 O2 1_555 1_555
Mn2 O1 1_555 1_555
Mn3 O3 1_555 1_555
C1 C3 1_555 1_555
C2 C4 1_555 1_555
C3 O4 1_555 1_555
C4 O1 1_555 1_555
O2 C4 1_555 1_555
O3 C46 1_555 1_555
O4 Mn2 1_555 1_555
O5 Mn2 1_555 1_555
O6 Mn3 1_555 1_555
O7 C3 1_555 1_555
O8 C1 1_555 1_555
O9 Mn2 1_555 1_555
N1 C5 1_555 1_555
C5 H1 1_555 1_555
N2 C6 1_555 1_555
C6 H2 1_555 1_555
N3 Mn2 1_555 1_555
O10 Mn1 1_555 1_555
N4 Mn3 1_555 1_555
C7 N2 1_555 1_555
H3 C7 1_555 1_555
C8 C6 1_555 1_555
H4 C8 1_555 1_555
C9 C10 1_555 1_555
C10 C5 1_555 1_555
H5 C10 1_555 1_555
C11 N1 1_555 1_555
H6 C11 1_555 1_555
C12 C8 1_555 1_555
C13 N3 1_555 1_555
H7 C13 1_555 1_555
C14 C15 1_555 1_555
C15 C13 1_555 1_555
H8 C15 1_555 1_555
C16 C14 1_555 1_555
C17 H9 1_555 1_555
C18 C16 1_555 1_555
H10 C18 1_555 1_555
C19 C14 1_555 1_555
H11 C19 1_555 1_555
C20 N4 1_555 1_555
H12 C20 1_555 1_555
C21 C16 1_555 1_555
H13 C21 1_555 1_555
C22 N3 1_555 1_555
H14 C22 1_555 1_555
C23 C7 1_555 1_555
H15 C23 1_555 1_555
C24 C9 1_555 1_555
H16 C24 1_555 1_555
N5 C25 1_555 1_555
C25 C21 1_555 1_555
H17 C25 1_555 1_555
C26 C28 1_555 1_555
C27 C18 1_555 1_555
H18 C27 1_555 1_555
C28 C17 1_555 1_555
C29 C26 1_555 1_555
H19 C29 1_555 1_555
C30 C28 1_555 1_555
H20 C30 1_555 1_555
C31 N4 1_555 1_555
H21 C31 1_555 1_555
N6 C33 1_555 1_555
C32 C26 1_555 1_555
H22 C32 1_555 1_555
C33 C29 1_555 1_555
H23 C33 1_555 1_555
C34 N6 1_555 1_555
H24 C34 1_555 1_555
N7 Mn1 1_555 1_555
C35 H25 1_555 1_555
C36 N7 1_555 1_555
H26 C36 1_555 1_555
C37 C9 1_555 1_555
C38 N7 1_555 1_555
H27 C38 1_555 1_555
C39 C37 1_555 1_555
H28 C39 1_555 1_555
N8 Mn1 1_555 1_555
C40 N8 1_555 1_555
H29 C40 1_555 1_555
C41 C40 1_555 1_555
H30 C41 1_555 1_555
C42 H31 1_555 1_555
C43 C12 1_555 1_555
C44 N8 1_555 1_555
H32 C44 1_555 1_555
O11 Mn1 1_555 1_555
O12 Mn1 1_555 1_555
C45 O6 1_555 1_555
C46 O12 1_555 1_555
Mn2A N1 1_555 1_555
Mn3_2 O7 1_555 1_555
Mn3A N2 1_555 1_555
O7_2 Mn3 1_555 1_555
O8_2 Mn3 1_555 1_555
N1A Mn2 1_555 1_555
N2A Mn3 1_555 1_555
C1 O9 1_555 1_555
C2 O5 1_555 1_555
C2 O10 1_555 1_555
O8 Mn3_2 1_555 1_555
C11 C24 1_555 1_555
C12 C23 1_555 1_555
C17 C20 1_555 1_555
C19 C22 1_555 1_555
N5 C27 1_555 1_555
C30 C31 1_555 1_555
C32 C34 1_555 1_555
C35 C36 1_555 1_555
C35 C37 1_555 1_555
C38 C39 1_555 1_555
C41 C43 1_555 1_555
C42 C43 1_555 1_555
C42 C44 1_555 1_555
O11 C45 1_555 1_555
C45 C46 1_555 1_555

#END
