
#######################################################################
#
#                 Cambridge Crystallographic Data Centre
#                                CCDC 
#
#######################################################################
#
# If this CIF has been generated from an entry in the Cambridge 
# Structural Database, then it will include bibliographic, chemical, 
# crystal, experimental, refinement or atomic coordinate data resulting 
# from the CCDC's data processing and validation procedures.
#
#######################################################################

data_RAPXEN
_symmetry_cell_setting           orthorhombic
_symmetry_space_group_name_H-M   'P c c n'
_symmetry_Int_Tables_number      56
_space_group_name_Hall           '-P 2ab 2ac'
loop_
_symmetry_equiv_pos_site_id
_symmetry_equiv_pos_as_xyz
1 x,y,z
2 1/2+x,-y,1/2-z
3 -x,1/2+y,1/2-z
4 1/2-x,1/2-y,z
5 -x,-y,-z
6 1/2-x,y,1/2+z
7 x,1/2-y,1/2+z
8 1/2+x,1/2+y,-z
_cell_length_a                   25.4057(17)
_cell_length_b                   8.82517(51)
_cell_length_c                   7.27564(58)
_cell_angle_alpha                90
_cell_angle_beta                 90
_cell_angle_gamma                90
_cell_volume                     1631.27
loop_
_atom_site_label
_atom_site_type_symbol
_atom_site_fract_x
_atom_site_fract_y
_atom_site_fract_z
Zn1 Zn 0.75000 0.75000 0.43196(57)
C1 C 0.957340 1.065610 0.589740
C2 C 0.951420 0.973660 0.436020
H1 H 0.917480 0.957930 0.384660
C3 C 1.007000 1.088630 0.664890
H2 H 1.011040 1.151480 0.769960
C4 C 0.909500 1.141010 0.675660
H3 H 0.899800 1.226980 0.604770
H4 H 0.917720 1.172030 0.797360
C5 C 0.863980 1.029310 0.680420
C6 C 0.826510 1.012380 0.548530
N1 N 0.792940 0.901360 0.603910
N2 N 0.809670 0.84967 0.770040
C7 C 0.853580 0.928750 0.817330
C8 C 0.822790 1.101840 0.370470
H5 H 0.851250 1.171430 0.363540
H6 H 0.790450 1.155800 0.367450
H7 H 0.824350 1.034260 0.268980
C9 C 0.885420 0.908330 0.992440
H8 H 0.914480 0.976080 0.991630
H9 H 0.897920 0.807030 0.999340
H10 H 0.863800 0.929080 1.095950
Zn1E Zn 0.75000 0.75000 0.93196(57)
Zn1G Zn 1.25000 1.25000 0.56804(57)
Zn1A Zn 1.25000 1.25000 0.06804(57)
C1D C 1.042660 0.934390 0.410260
C2D C 1.048580 1.026340 0.563980
H1D H 1.082520 1.042070 0.615340
C3D C 0.993000 0.911370 0.335110
H2D H 0.988960 0.848520 0.230040
C4D C 1.090500 0.858990 0.324340
H3D H 1.100200 0.773020 0.395230
H4D H 1.082280 0.827970 0.202640
C5D C 1.136020 0.970690 0.319580
C6D C 1.173490 0.987620 0.451470
N1D N 1.207060 1.098640 0.396090
N1C N 0.707060 0.598640 0.603910
N2D N 1.190330 1.15033 0.229960
N2F N 0.809670 0.65033 0.270040
N2E N 0.690330 0.84967 0.270040
C7D C 1.146420 1.071250 0.182670
C8D C 1.177210 0.898160 0.629530
H5D H 1.148750 0.828570 0.636460
H6D H 1.209550 0.844200 0.632550
H7D H 1.175650 0.965740 0.731020
C9D C 1.114580 1.091670 0.007560
H8D H 1.085520 1.023920 0.008370
H9D H 1.102080 1.192970 0.000660
H10D H 1.136200 1.070920 -0.095950
loop_
_geom_bond_atom_site_label_1
_geom_bond_atom_site_label_2
_geom_bond_site_symmetry_1
_geom_bond_site_symmetry_2
Zn1 N1 1_555 1_555
C1 C2 1_555 1_555
C2 H1 1_555 1_555
C3 C1 1_555 1_555
H2 C3 1_555 1_555
C4 C1 1_555 1_555
H3 C4 1_555 1_555
H4 C4 1_555 1_555
C5 C4 1_555 1_555
C6 C5 1_555 1_555
N1 C6 1_555 1_555
N2 N1 1_555 1_555
C7 C5 1_555 1_555
C8 C6 1_555 1_555
H5 C8 1_555 1_555
H6 C8 1_555 1_555
H7 C8 1_555 1_555
C9 C7 1_555 1_555
H8 C9 1_555 1_555
H9 C9 1_555 1_555
H10 C9 1_555 1_555
Zn1E N2 1_555 1_555
Zn1G N1D 1_555 1_555
Zn1A N2D 1_555 1_555
C1D C2D 1_555 1_555
C2D C3 1_555 1_555
H1D C2D 1_555 1_555
C3D C2 1_555 1_555
H2D C3D 1_555 1_555
C4D C1D 1_555 1_555
H3D C4D 1_555 1_555
H4D C4D 1_555 1_555
C5D C4D 1_555 1_555
C6D C5D 1_555 1_555
N1D C6D 1_555 1_555
N1C Zn1 1_555 1_555
N2D N1D 1_555 1_555
N2F Zn1 1_555 1_555
N2E Zn1 1_555 1_555
C7D C5D 1_555 1_555
C8D C6D 1_555 1_555
H5D C8D 1_555 1_555
H6D C8D 1_555 1_555
H7D C8D 1_555 1_555
C9D C7D 1_555 1_555
H8D C9D 1_555 1_555
H9D C9D 1_555 1_555
H10D C9D 1_555 1_555
N2 C7 1_555 1_555
C1D C3D 1_555 1_555
N2D C7D 1_555 1_555

#END
