
#######################################################################
#
#                 Cambridge Crystallographic Data Centre
#                                CCDC 
#
#######################################################################
#
# If this CIF has been generated from an entry in the Cambridge 
# Structural Database, then it will include bibliographic, chemical, 
# crystal, experimental, refinement or atomic coordinate data resulting 
# from the CCDC's data processing and validation procedures.
#
#######################################################################

data_RAPZEP
_symmetry_cell_setting           triclinic
_symmetry_space_group_name_H-M   'P -1'
_symmetry_Int_Tables_number      2
_space_group_name_Hall           '-P 1'
loop_
_symmetry_equiv_pos_site_id
_symmetry_equiv_pos_as_xyz
1 x,y,z
2 -x,-y,-z
_cell_length_a                   8.7676(4)
_cell_length_b                   9.9352(5)
_cell_length_c                   10.4923(5)
_cell_angle_alpha                76.145(4)
_cell_angle_beta                 88.541(4)
_cell_angle_gamma                66.314(5)
_cell_volume                     810.043
loop_
_atom_site_label
_atom_site_type_symbol
_atom_site_fract_x
_atom_site_fract_y
_atom_site_fract_z
Fe1 Fe 0.5000 0.5000 0.5000
P1 P 0.20617(4) 0.53916(4) 0.59445(3)
O1 O 0.62011(13) 0.36601(12) 0.67878(10)
O2 O 0.50716(13) 0.67905(12) 0.56254(11)
C1 C 0.63454(19) 0.4067(2) 0.78232(15)
C2 C 0.54295(19) 0.68103(19) 0.67905(17)
C3 C 0.6009(2) 0.5549(2) 0.78639(17)
H1 H 0.6191 0.5713 0.8692
C4 C 0.5176(3) 0.8333(2) 0.6995(2)
H2 H 0.5508 0.8906 0.6226
H3 H 0.5860 0.8187 0.7782
H4 H 0.3996 0.8898 0.7110
C5 C 0.6941(3) 0.2813(2) 0.90802(18)
H5 H 0.6231 0.2249 0.9195
H6 H 0.6877 0.3256 0.9830
H7 H 0.8099 0.2123 0.9029
C6 C 0.07807(18) 0.51108(19) 0.47527(15)
H8 H 0.0427 0.6001 0.3984
H9 H 0.1497 0.4212 0.4439
C7 C 0.20838(18) 0.39699(17) 0.74304(14)
C8 C 0.0910(2) 0.42663(19) 0.83616(16)
H10 H 0.0055 0.5259 0.8248
C9 C 0.0979(2) 0.3124(2) 0.94526(17)
H11 H 0.0179 0.3341 1.0085
C10 C 0.2206(3) 0.1676(2) 0.96206(17)
H12 H 0.2260 0.0898 1.0372
C11 C 0.3360(2) 0.1362(2) 0.86879(18)
H13 H 0.4193 0.0361 0.8792
C12 C 0.3306(2) 0.25012(18) 0.76037(16)
H14 H 0.4109 0.2278 0.6974
C13 C 0.07385(18) 0.71948(17) 0.63093(15)
C14 C 0.1307(2) 0.75880(18) 0.73405(15)
H15 H 0.2307 0.6888 0.7860
C15 C 0.0433(2) 0.8981(2) 0.76119(17)
H16 H 0.0829 0.9229 0.8320
C16 C -0.1025(2) 1.0022(2) 0.68517(19)
H17 H -0.1628 1.0978 0.7040
C17 C -0.1585(2) 0.96578(19) 0.58266(19)
H18 H -0.2577 1.0371 0.5303
C18 C -0.0720(2) 0.82592(18) 0.55455(17)
H19 H -0.1121 0.8025 0.4831
Fe1_2 Fe -0.5000 0.5000 0.5000
P1A P -0.20617(4) 0.46084(4) 0.40555(3)
P1A_2 P 0.79383(4) 0.46084(4) 0.40555(3)
O1A O 0.37989(13) 0.63399(12) 0.32122(10)
O2A O 0.49284(13) 0.32095(12) 0.43746(11)
C1A C 0.36546(19) 0.5933(2) 0.21768(15)
C2A C 0.45705(19) 0.31897(19) 0.32095(17)
C3A C 0.3991(2) 0.4451(2) 0.21361(17)
H1A H 0.3809 0.4287 0.1308
C4A C 0.4824(3) 0.1667(2) 0.3005(2)
H2A H 0.4492 0.1094 0.3774
H3A H 0.4140 0.1813 0.2218
H4A H 0.6004 0.1102 0.2890
C5A C 0.3059(3) 0.7187(2) 0.09198(18)
H5A H 0.3769 0.7751 0.0805
H6A H 0.3123 0.6744 0.0170
H7A H 0.1901 0.7877 0.0971
C6A C -0.07807(18) 0.48892(19) 0.52473(15)
H8A H -0.0427 0.3999 0.6016
H9A H -0.1497 0.5788 0.5561
C7A C -0.20838(18) 0.60301(17) 0.25696(14)
C8A C -0.0910(2) 0.57337(19) 0.16384(16)
H10A H -0.0055 0.4741 0.1752
C9A C -0.0979(2) 0.6876(2) 0.05474(17)
H11A H -0.0179 0.6659 -0.0085
C10A C -0.2206(3) 0.8324(2) 0.03794(17)
H12A H -0.2260 0.9102 -0.0372
C11A C -0.3360(2) 0.8638(2) 0.13121(18)
H13A H -0.4193 0.9639 0.1208
C12A C -0.3306(2) 0.74988(18) 0.23963(16)
H14A H -0.4109 0.7722 0.3026
C13A C -0.07385(18) 0.28052(17) 0.36907(15)
C14A C -0.1307(2) 0.24120(18) 0.26595(15)
H15A H -0.2307 0.3112 0.2140
C15A C -0.0433(2) 0.1019(2) 0.23881(17)
H16A H -0.0829 0.0771 0.1680
C16A C 0.1025(2) -0.0022(2) 0.31483(19)
H17A H 0.1628 -0.0978 0.2960
C17A C 0.1585(2) 0.03422(19) 0.41734(19)
H18A H 0.2577 -0.0371 0.4697
C18A C 0.0720(2) 0.17408(18) 0.44545(17)
H19A H 0.1121 0.1975 0.5169
loop_
_geom_bond_atom_site_label_1
_geom_bond_atom_site_label_2
_geom_bond_site_symmetry_1
_geom_bond_site_symmetry_2
Fe1 P1 1_555 1_555
P1 C6 1_555 1_555
O1 Fe1 1_555 1_555
O2 Fe1 1_555 1_555
C1 O1 1_555 1_555
C2 O2 1_555 1_555
C3 C1 1_555 1_555
H1 C3 1_555 1_555
C4 C2 1_555 1_555
H2 C4 1_555 1_555
H3 C4 1_555 1_555
H4 C4 1_555 1_555
C5 C1 1_555 1_555
H5 C5 1_555 1_555
H6 C5 1_555 1_555
H7 C5 1_555 1_555
C6 H8 1_555 1_555
H9 C6 1_555 1_555
C7 P1 1_555 1_555
C8 C7 1_555 1_555
H10 C8 1_555 1_555
C9 C8 1_555 1_555
H11 C9 1_555 1_555
C10 C9 1_555 1_555
H12 C10 1_555 1_555
C11 C10 1_555 1_555
H13 C11 1_555 1_555
C12 C7 1_555 1_555
H14 C12 1_555 1_555
C13 P1 1_555 1_555
C14 C13 1_555 1_555
H15 C14 1_555 1_555
C15 C14 1_555 1_555
H16 C15 1_555 1_555
C16 C15 1_555 1_555
H17 C16 1_555 1_555
C17 C16 1_555 1_555
H18 C17 1_555 1_555
C18 C13 1_555 1_555
H19 C18 1_555 1_555
Fe1_2 P1A 1_555 1_555
P1A C6A 1_555 1_555
P1A_2 Fe1 1_555 1_555
O1A Fe1 1_555 1_555
O2A Fe1 1_555 1_555
C1A O1A 1_555 1_555
C2A O2A 1_555 1_555
C3A C1A 1_555 1_555
H1A C3A 1_555 1_555
C4A C2A 1_555 1_555
H2A C4A 1_555 1_555
H3A C4A 1_555 1_555
H4A C4A 1_555 1_555
C5A C1A 1_555 1_555
H5A C5A 1_555 1_555
H6A C5A 1_555 1_555
H7A C5A 1_555 1_555
C6A C6 1_555 1_555
H8A C6A 1_555 1_555
H9A C6A 1_555 1_555
C7A P1A 1_555 1_555
C8A C7A 1_555 1_555
H10A C8A 1_555 1_555
C9A C8A 1_555 1_555
H11A C9A 1_555 1_555
C10A C9A 1_555 1_555
H12A C10A 1_555 1_555
C11A C10A 1_555 1_555
H13A C11A 1_555 1_555
C12A C7A 1_555 1_555
H14A C12A 1_555 1_555
C13A P1A 1_555 1_555
C14A C13A 1_555 1_555
H15A C14A 1_555 1_555
C15A C14A 1_555 1_555
H16A C15A 1_555 1_555
C16A C15A 1_555 1_555
H17A C16A 1_555 1_555
C17A C16A 1_555 1_555
H18A C17A 1_555 1_555
C18A C13A 1_555 1_555
H19A C18A 1_555 1_555
C2 C3 1_555 1_555
C11 C12 1_555 1_555
C17 C18 1_555 1_555
C2A C3A 1_555 1_555
C11A C12A 1_555 1_555
C17A C18A 1_555 1_555

#END
