
#######################################################################
#
#                 Cambridge Crystallographic Data Centre
#                                CCDC 
#
#######################################################################
#
# If this CIF has been generated from an entry in the Cambridge 
# Structural Database, then it will include bibliographic, chemical, 
# crystal, experimental, refinement or atomic coordinate data resulting 
# from the CCDC's data processing and validation procedures.
#
#######################################################################

data_RAQFOF
_symmetry_cell_setting           monoclinic
_symmetry_space_group_name_H-M   'P 21'
_symmetry_Int_Tables_number      4
_space_group_name_Hall           'P 2yb'
loop_
_symmetry_equiv_pos_site_id
_symmetry_equiv_pos_as_xyz
1 x,y,z
2 -x,1/2+y,-z
_cell_length_a                   10.377(5)
_cell_length_b                   18.774(9)
_cell_length_c                   16.048(7)
_cell_angle_alpha                90
_cell_angle_beta                 105.06(6)
_cell_angle_gamma                90
_cell_volume                     3019.06
loop_
_atom_site_label
_atom_site_type_symbol
_atom_site_fract_x
_atom_site_fract_y
_atom_site_fract_z
Cd1 Cd -0.84623(7) -0.68606(6) 0.57934(5)
O1 O -0.6438(9) -1.0990(5) 0.9028(8)
O2 O -0.4877(11) -1.2757(5) 0.8769(9)
O3 O -0.9749(14) -0.5967(7) 0.5016(8)
O4 O -0.6899(10) -0.6582(6) 0.5053(6)
O5 O -0.9606(15) -0.7611(9) 0.4767(10)
O6 O -1.0163(9) -0.7094(8) 0.6428(9)
N1 N -0.7171(9) -0.7768(5) 0.6567(6)
N2 N -0.7722(10) -1.6006(4) 0.6813(6)
N3 N -1.1419(16) -0.5512(13) 0.3880(12)
N4 N -0.654(2) -0.6094(14) 0.3874(14)
N5 N -1.014(3) -0.8597(15) 0.395(2)
N6 N -1.228(4) -0.656(2) 0.599(2)
C1 C -0.6114(14) -0.8038(8) 0.6339(9)
H1 H -0.5901 -0.7853 0.5840
C2 C -0.5337(12) -0.8563(6) 0.6791(9)
H2 H -0.4617 -0.8743 0.6589
C3 C -0.5571(10) -0.8846(5) 0.7549(7)
C4 C -0.6658(13) -0.8561(7) 0.7739(7)
H3 H -0.6890 -0.8726 0.8241
C5 C -0.7454(12) -0.8041(7) 0.7245(8)
H4 H -0.8225 -0.7880 0.7404
C6 C -0.4762(9) -0.9389(5) 0.8035(6)
H5 H -0.3878 -0.9438 0.7976
C7 C -0.5152(10) -0.9832(5) 0.8566(7)
H6 H -0.6039 -0.9768 0.8612
C8 C -0.4386(11) -1.0416(5) 0.9096(7)
C9 C -0.3015(11) -1.0439(5) 0.9299(7)
H7 H -0.2544 -1.0070 0.9101
C10 C -0.2292(10) -1.0997(7) 0.9793(8)
C11 C -0.0844(13) -1.1012(9) 1.0053(12)
H8 H -0.0363 -1.0637 0.9872
C12 C -0.0173(15) -1.1530(11) 1.0532(13)
H9 H 0.0774 -1.1514 1.0695
C13 C -0.0855(15) -1.2130(8) 1.0818(10)
H10 H -0.0379 -1.2510 1.1152
C14 C -0.2258(13) -1.2108(7) 1.0567(8)
H11 H -0.2733 -1.2486 1.0748
C15 C -0.2987(11) -1.1569(6) 1.0073(7)
C16 C -0.4416(11) -1.1556(6) 0.9818(7)
C17 C -0.5064(11) -1.0986(6) 0.9354(9)
C18 C -0.718(2) -1.0672(19) 0.9593(17)
H12 H -0.8139 -1.0700 0.9316
H13 H -0.6919 -1.0171 0.9699
H14 H -0.6980 -1.0930 1.0142
C19 C -0.562(3) -1.2486(11) 0.7944(13)
H15 H -0.5103 -1.2547 0.7520
H16 H -0.5812 -1.1979 0.7998
H17 H -0.6467 -1.2748 0.7753
C20 C -0.5204(12) -1.2175(6) 1.0033(9)
C21 C -0.5757(12) -1.2177(7) 1.0736(9)
C22 C -0.5468(13) -1.1629(7) 1.1366(10)
H18 H -0.4847 -1.1270 1.1318
C23 C -0.6064(16) -1.1596(9) 1.2058(10)
H19 H -0.5925 -1.1214 1.2460
C24 C -0.6930(18) -1.2217(15) 1.2097(13)
H20 H -0.7312 -1.2251 1.2573
C25 C -0.7189(18) -1.2704(12) 1.1532(16)
H21 H -0.7807 -1.3066 1.1579
C26 C -0.6602(13) -1.2730(7) 1.0844(10)
C27 C -0.6850(15) -1.3274(8) 1.0296(15)
H22 H -0.7418 -1.3642 1.0396
C28 C -0.6284(15) -1.3342(7) 0.9525(13)
C29 C -0.5459(14) -1.2720(8) 0.9476(11)
C30 C -0.6504(17) -1.3916(7) 0.8964(14)
H23 H -0.5876 -1.3842 0.8635
C31 C -0.707(3) -1.4474(9) 0.8657(14)
H24 H -0.7742 -1.4610 0.8933
C32 C -0.6712(11) -1.5533(5) 0.6768(6)
H25 H -0.6274 -1.5576 0.6320
C33 C -0.6345(13) -1.4995(5) 0.7380(8)
H26 H -0.5655 -1.4672 0.7349
C34 C -0.6987(17) -1.4932(6) 0.8036(7)
C35 C -0.7996(16) -1.5405(8) 0.8081(6)
H27 H -0.8435 -1.5362 0.8529
C36 C -0.8364(12) -1.5943(7) 0.7469(8)
H28 H -0.9054 -1.6266 0.7500
C37 C -1.052(2) -0.6025(10) 0.4352(13)
H29 H -1.0543 -0.6480 0.4087
C38 C -1.139(4) -0.473(2) 0.413(3)
H30 H -1.2110 -0.4476 0.3729
H31 H -1.0527 -0.4524 0.4116
H32 H -1.1501 -0.4690 0.4719
C39 C -1.225(2) -0.5634(13) 0.3104(14)
H33 H -1.2832 -0.5221 0.2927
H34 H -1.2794 -0.6055 0.3133
H35 H -1.1730 -0.5716 0.2682
C40 C -0.695(3) -0.631(3) 0.4503(19)
H36 H -0.7797 -0.6080 0.4403
C41 C -0.656(7) -0.555(4) 0.324(5)
H37 H -0.6694 -0.5777 0.2668
H38 H -0.5709 -0.5296 0.3381
H39 H -0.7290 -0.5221 0.3226
C42 C -0.581(15) -0.662(5) 0.361(8)
H40 H -0.5406 -0.6424 0.3171
H41 H -0.6402 -0.7013 0.3367
H42 H -0.5111 -0.6784 0.4105
C43 C -0.930(3) -0.8145(13) 0.4479(19)
H43 H -0.8376 -0.8265 0.4634
C44 C -1.142(5) -0.843(3) 0.360(3)
H44 H -1.1700 -0.8064 0.3951
H45 H -1.1974 -0.8856 0.3579
H46 H -1.1526 -0.8249 0.3013
C45 C -0.953(5) -0.919(3) 0.353(3)
H47 H -1.0237 -0.9481 0.3174
H48 H -0.8952 -0.9483 0.3982
H49 H -0.8993 -0.8978 0.3172
C46 C -1.131(5) -0.706(2) 0.610(3)
H50 H -1.1658 -0.7508 0.5860
C47 C -1.198(5) -0.594(2) 0.641(3)
H51 H -1.2713 -0.5600 0.6216
H52 H -1.1164 -0.5740 0.6295
H53 H -1.1823 -0.6021 0.7032
C48 C -1.341(7) -0.680(5) 0.547(5)
H54 H -1.4129 -0.6455 0.5444
H55 H -1.3647 -0.7254 0.5700
H56 H -1.3296 -0.6877 0.4892
Cd1_2 Cd -0.84623(7) -1.68606(6) 0.57934(5)
N2_2 N -0.7722(10) -0.6006(4) 0.6813(6)
Cl1 Cl -0.0397(5) -0.9327(3) 0.7958(7)
O7 O 0.014(2) -0.8672(13) 0.8025(13)
O8 O -0.011(3) -0.9524(19) 0.691(2)
O10 O -0.151(2) -0.9354(12) 0.7831(13)
O11 O 0.049(5) -0.973(3) 0.809(3)
Cl2 Cl -0.8263(15) -0.9207(9) 1.0772(9)
O12 O -0.9789(18) -0.9266(17) 1.0441(17)
O13 O -0.813(3) -0.8498(13) 1.135(2)
O14 O -0.769(3) -0.9774(13) 1.1426(15)
O15 O -0.751(3) -0.9060(18) 1.0116(16)
O16 O -0.926(8) -1.148(4) 0.737(5)
O17 O -0.921(5) -1.230(3) 0.882(3)
H57 H -0.8890 -1.2718 0.8882
C49 C -1.049(13) -1.157(7) 0.846(8)
H59 H -1.1189 -1.1308 0.8045
H60 H -0.9649 -1.1307 0.8569
H61 H -1.0751 -1.1617 0.9007
C50 C -1.032(5) -1.229(3) 0.812(3)
H62 H -1.1027 -1.2641 0.8145
H63 H -1.0128 -1.2295 0.7543
O18 O -0.375(6) -0.398(3) 0.537(3)
H58 H -0.3898 -0.4380 0.5141
C51 C -0.422(5) -0.3236(16) 0.634(3)
H64 H -0.4597 -0.3216 0.6843
H65 H -0.4718 -0.2913 0.5894
H66 H -0.3282 -0.3091 0.6518
C52 C -0.4316(14) -0.3939(7) 0.6018(9)
H67 H -0.5266 -0.4080 0.5816
H68 H -0.3866 -0.4272 0.6481
O9? O -0.034(4) -0.929(2) 0.910(2)
loop_
_geom_bond_atom_site_label_1
_geom_bond_atom_site_label_2
_geom_bond_site_symmetry_1
_geom_bond_site_symmetry_2
Cd1 O3 1_555 1_555
O1 C17 1_555 1_555
O2 C19 1_555 1_555
O3 C37 1_555 1_555
O4 Cd1 1_555 1_555
O5 Cd1 1_555 1_555
O6 Cd1 1_555 1_555
N1 Cd1 1_555 1_555
N2 C32 1_555 1_555
N3 C37 1_555 1_555
N4 C40 1_555 1_555
N5 C43 1_555 1_555
N6 C46 1_555 1_555
C1 N1 1_555 1_555
H1 C1 1_555 1_555
C2 C1 1_555 1_555
H2 C2 1_555 1_555
C3 C2 1_555 1_555
C4 C3 1_555 1_555
H3 C4 1_555 1_555
C5 N1 1_555 1_555
H4 C5 1_555 1_555
C6 C3 1_555 1_555
H5 C6 1_555 1_555
C7 C6 1_555 1_555
H6 C7 1_555 1_555
C8 C7 1_555 1_555
C9 C8 1_555 1_555
H7 C9 1_555 1_555
C10 C9 1_555 1_555
C11 C10 1_555 1_555
H8 C11 1_555 1_555
C12 C11 1_555 1_555
H9 C12 1_555 1_555
C13 C12 1_555 1_555
H10 C13 1_555 1_555
C14 C13 1_555 1_555
H11 C14 1_555 1_555
C15 C10 1_555 1_555
C16 C15 1_555 1_555
C17 C8 1_555 1_555
C18 O1 1_555 1_555
H12 C18 1_555 1_555
H13 C18 1_555 1_555
H14 C18 1_555 1_555
C19 H15 1_555 1_555
H16 C19 1_555 1_555
H17 C19 1_555 1_555
C20 C16 1_555 1_555
C21 C20 1_555 1_555
C22 C21 1_555 1_555
H18 C22 1_555 1_555
C23 C22 1_555 1_555
H19 C23 1_555 1_555
C24 C23 1_555 1_555
H20 C24 1_555 1_555
C25 C24 1_555 1_555
H21 C25 1_555 1_555
C26 C21 1_555 1_555
C27 C26 1_555 1_555
H22 C27 1_555 1_555
C28 C27 1_555 1_555
C29 O2 1_555 1_555
C30 C28 1_555 1_555
H23 C30 1_555 1_555
C31 C30 1_555 1_555
H24 C31 1_555 1_555
C32 H25 1_555 1_555
C33 C32 1_555 1_555
H26 C33 1_555 1_555
C34 C31 1_555 1_555
C35 C34 1_555 1_555
H27 C35 1_555 1_555
C36 N2 1_555 1_555
H28 C36 1_555 1_555
C37 H29 1_555 1_555
C38 N3 1_555 1_555
H30 C38 1_555 1_555
H31 C38 1_555 1_555
H32 C38 1_555 1_555
C39 N3 1_555 1_555
H33 C39 1_555 1_555
H34 C39 1_555 1_555
H35 C39 1_555 1_555
C40 O4 1_555 1_555
H36 C40 1_555 1_555
C41 N4 1_555 1_555
H37 C41 1_555 1_555
H38 C41 1_555 1_555
H39 C41 1_555 1_555
C42 N4 1_555 1_555
H40 C42 1_555 1_555
H41 C42 1_555 1_555
H42 C42 1_555 1_555
C43 O5 1_555 1_555
H43 C43 1_555 1_555
C44 N5 1_555 1_555
H44 C44 1_555 1_555
H45 C44 1_555 1_555
H46 C44 1_555 1_555
C45 N5 1_555 1_555
H47 C45 1_555 1_555
H48 C45 1_555 1_555
H49 C45 1_555 1_555
C46 O6 1_555 1_555
H50 C46 1_555 1_555
C47 N6 1_555 1_555
H51 C47 1_555 1_555
H52 C47 1_555 1_555
H53 C47 1_555 1_555
C48 N6 1_555 1_555
H54 C48 1_555 1_555
H55 C48 1_555 1_555
H56 C48 1_555 1_555
Cl1 O7 1_555 1_555
O8 Cl1 1_555 1_555
O10 Cl1 1_555 1_555
O11 Cl1 1_555 1_555
Cl2 O12 1_555 1_555
O13 Cl2 1_555 1_555
O14 Cl2 1_555 1_555
O15 Cl2 1_555 1_555
O17 H57 1_555 1_555
O18 H58 1_555 1_555
C49 H59 1_555 1_555
H60 C49 1_555 1_555
H61 C49 1_555 1_555
C50 O17 1_555 1_555
H62 C50 1_555 1_555
H63 C50 1_555 1_555
C51 H64 1_555 1_555
H65 C51 1_555 1_555
H66 C51 1_555 1_555
C52 O18 1_555 1_555
H67 C52 1_555 1_555
H68 C52 1_555 1_555
Cd1_2 N2 1_555 1_555
N2_2 Cd1 1_555 1_555
C4 C5 1_555 1_555
C14 C15 1_555 1_555
C16 C17 1_555 1_555
C20 C29 1_555 1_555
C25 C26 1_555 1_555
C28 C29 1_555 1_555
C33 C34 1_555 1_555
C35 C36 1_555 1_555
C49 C50 1_555 1_555
C51 C52 1_555 1_555

#END
