
#######################################################################
#
#                 Cambridge Crystallographic Data Centre
#                                CCDC 
#
#######################################################################
#
# If this CIF has been generated from an entry in the Cambridge 
# Structural Database, then it will include bibliographic, chemical, 
# crystal, experimental, refinement or atomic coordinate data resulting 
# from the CCDC's data processing and validation procedures.
#
#######################################################################

data_RAQFUL
_symmetry_cell_setting           orthorhombic
_symmetry_space_group_name_H-M   'P 21 21 2'
_symmetry_Int_Tables_number      18
_space_group_name_Hall           'P 2 2ab'
loop_
_symmetry_equiv_pos_site_id
_symmetry_equiv_pos_as_xyz
1 x,y,z
2 -x,-y,z
3 1/2-x,1/2+y,-z
4 1/2+x,1/2-y,-z
_cell_length_a                   14.4302(8)
_cell_length_b                   17.8170(11)
_cell_length_c                   19.3072(9)
_cell_angle_alpha                90
_cell_angle_beta                 90
_cell_angle_gamma                90
_cell_volume                     4963.94
loop_
_atom_site_label
_atom_site_type_symbol
_atom_site_fract_x
_atom_site_fract_y
_atom_site_fract_z
Cd1 Cd 0.5000 0.0000 0.43085(6)
O1 O 0.1865(7) 0.0951(7) 0.8577(5)
O2 O 0.2452(9) 0.1787(7) 1.0190(5)
N1 N 0.4150(14) 0.0668(13) 0.5174(6)
N2 N 0.4125(14) 0.0625(8) 1.3448(5)
C1 C 0.1600(9) 0.3272(8) 0.8389(6)
C2 C 0.1228(9) 0.2886(9) 0.9001(5)
C3 C 0.0776(9) 0.3368(10) 0.9527(6)
H1 H 0.0531 0.3134 0.9930
C4 C 0.0693(9) 0.4105(9) 0.9469(6)
H2 H 0.0359 0.4382 0.9807
C5 C 0.1113(11) 0.4487(7) 0.8891(7)
H3 H 0.1118 0.5019 0.8865
C6 C 0.1509(11) 0.4055(10) 0.8373(6)
H4 H 0.1736 0.4310 0.7976
C7 C 0.4591(12) 0.0933(11) 1.2888(7)
H5 H 0.5249 0.0956 1.2895
C8 C 0.3233(17) 0.0621(14) 1.3457(8)
H6 H 0.2932 0.0492 1.3878
C9 C 0.4118(16) 0.1206(10) 1.2322(7)
H7 H 0.4451 0.1444 1.1959
C10 C 0.2668(16) 0.0798(13) 1.2872(9)
H8 H 0.2019 0.0710 1.2856
C11 C 0.3216(17) 0.1141(10) 1.2278(8)
C12 C 0.2635(14) 0.1373(11) 1.1651(8)
H9 H 0.2894 0.1745 1.1356
C13 C 0.1848(14) 0.1123(9) 1.1483(9)
H10 H 0.1585 0.0802 1.1823
C14 C 0.2094(11) 0.2091(9) 0.7921(5)
C15 C 0.2005(10) 0.2873(12) 0.7881(6)
H11 H 0.2236 0.3127 0.7485
C16 C 0.1717(10) 0.1729(8) 0.8517(6)
C17 C 0.1291(9) 0.2079(7) 0.9060(5)
C18 C 0.2614(12) 0.1610(10) 0.7380(6)
H12 H 0.2773 0.1109 0.7500
C19 C 0.285(2) 0.1858(13) 0.6762(10)
H13 H 0.2701 0.2368 0.6668
C20 C 0.3290(18) 0.1458(15) 0.6221(9)
C21 C 0.3905(16) 0.0329(14) 0.5733(9)
H14 H 0.4023 -0.0195 0.5763
C22 C 0.3504(16) 0.0651(17) 0.6262(10)
H15 H 0.3354 0.0370 0.6665
C23 C 0.393(2) 0.138(2) 0.5140(12)
H16 H 0.4056 0.1655 0.4727
C24 C 0.355(2) 0.1722(18) 0.5645(12)
H17 H 0.3446 0.2244 0.5582
C25 C 0.0948(10) 0.1721(8) 0.9694(7)
C26 C 0.1545(11) 0.1565(7) 1.0232(6)
C27 C 0.0024(12) 0.1509(8) 0.9733(6)
C28 C -0.0289(12) 0.1145(9) 1.0364(11)
C29 C 0.0329(12) 0.1005(9) 1.0908(7)
H18 H 0.0119 0.0756 1.1314
C30 C 0.1236(11) 0.1227(8) 1.0856(5)
C31 C -0.1311(16) 0.0934(12) 1.0403(14)
H19 H -0.1558 0.0707 1.0808
C32 C -0.0655(11) 0.1679(9) 0.9220(10)
H20 H -0.0469 0.1944 0.8816
C33 C -0.1885(18) 0.1081(17) 0.982(2)
H21 H -0.2504 0.0898 0.9821
C34 C -0.1570(14) 0.1472(12) 0.9287(14)
H22 H -0.1994 0.1614 0.8934
C35 C 0.3091(14) 0.1294(19) 0.9952(9)
H23 H 0.3702 0.1534 0.9944
H24 H 0.2924 0.1135 0.9482
H25 H 0.3110 0.0854 1.0257
C36 C 0.1171(16) 0.0468(14) 0.8400(16)
H26 H 0.1382 -0.0050 0.8466
H27 H 0.1003 0.0545 0.7913
H28 H 0.0629 0.0561 0.8694
Cl1 Cl 0.3329(11) -0.1347(8) 0.4260(8)
O3 O 0.4098(14) -0.0939(14) 0.4317(16)
O4 O 0.2582(18) -0.1103(19) 0.4631(17)
O5 O 0.350(3) -0.2098(12) 0.443(2)
O6 O 0.302(3) -0.137(3) 0.3556(12)
Cd1_2 Cd 0.5000 0.0000 1.43085(6)
O1A O 0.8135(7) -0.0951(7) 0.8577(5)
O2A O 0.7548(9) -0.1787(7) 1.0190(5)
N1A N 0.5850(14) -0.0668(13) 0.5174(6)
N2A N 0.5875(14) -0.0625(8) 1.3448(5)
N2_2 N 0.4125(14) 0.0625(8) 0.3448(5)
N2A_2 N 0.5875(14) -0.0625(8) 0.3448(5)
C1A C 0.8400(9) -0.3272(8) 0.8389(6)
C2A C 0.8772(9) -0.2886(9) 0.9001(5)
C3A C 0.9224(9) -0.3368(10) 0.9527(6)
H1A H 0.9469 -0.3134 0.9930
C4A C 0.9307(9) -0.4105(9) 0.9469(6)
H2A H 0.9641 -0.4382 0.9807
C5A C 0.8887(11) -0.4487(7) 0.8891(7)
H3A H 0.8882 -0.5019 0.8865
C6A C 0.8491(11) -0.4055(10) 0.8373(6)
H4A H 0.8264 -0.4310 0.7976
C7A C 0.5409(12) -0.0933(11) 1.2888(7)
H5A H 0.4751 -0.0956 1.2895
C8A C 0.6767(17) -0.0621(14) 1.3457(8)
H6A H 0.7068 -0.0492 1.3878
C9A C 0.5882(16) -0.1206(10) 1.2322(7)
H7A H 0.5549 -0.1444 1.1959
C10A C 0.7332(16) -0.0798(13) 1.2872(9)
H8A H 0.7981 -0.0710 1.2856
C11A C 0.6784(17) -0.1141(10) 1.2278(8)
C12A C 0.7365(14) -0.1373(11) 1.1651(8)
H9A H 0.7106 -0.1745 1.1356
C13A C 0.8152(14) -0.1123(9) 1.1483(9)
H10A H 0.8415 -0.0802 1.1823
C14A C 0.7906(11) -0.2091(9) 0.7921(5)
C15A C 0.7995(10) -0.2873(12) 0.7881(6)
H11A H 0.7764 -0.3127 0.7485
C16A C 0.8283(10) -0.1729(8) 0.8517(6)
C17A C 0.8709(9) -0.2079(7) 0.9060(5)
C18A C 0.7386(12) -0.1610(10) 0.7380(6)
H12A H 0.7227 -0.1109 0.7500
C19A C 0.715(2) -0.1858(13) 0.6762(10)
H13A H 0.7299 -0.2368 0.6668
C20A C 0.6710(18) -0.1458(15) 0.6221(9)
C21A C 0.6095(16) -0.0329(14) 0.5733(9)
H14A H 0.5977 0.0195 0.5763
C22A C 0.6496(16) -0.0651(17) 0.6262(10)
H15A H 0.6646 -0.0370 0.6665
C23A C 0.607(2) -0.138(2) 0.5140(12)
H16A H 0.5944 -0.1655 0.4727
C24A C 0.645(2) -0.1722(18) 0.5645(12)
H17A H 0.6554 -0.2244 0.5582
C25A C 0.9052(10) -0.1721(8) 0.9694(7)
C26A C 0.8455(11) -0.1565(7) 1.0232(6)
C27A C 0.9976(12) -0.1509(8) 0.9733(6)
C28A C 1.0289(12) -0.1145(9) 1.0364(11)
C29A C 0.9671(12) -0.1005(9) 1.0908(7)
H18A H 0.9881 -0.0756 1.1314
C30A C 0.8764(11) -0.1227(8) 1.0856(5)
C31A C 1.1311(16) -0.0934(12) 1.0403(14)
H19A H 1.1558 -0.0707 1.0808
C32A C 1.0655(11) -0.1679(9) 0.9220(10)
H20A H 1.0469 -0.1944 0.8816
C33A C 1.1885(18) -0.1081(17) 0.982(2)
H21A H 1.2504 -0.0898 0.9821
C34A C 1.1570(14) -0.1472(12) 0.9287(14)
H22A H 1.1994 -0.1614 0.8934
C35A C 0.6909(14) -0.1294(19) 0.9952(9)
H23A H 0.6298 -0.1534 0.9944
H24A H 0.7076 -0.1135 0.9482
H25A H 0.6890 -0.0854 1.0257
C36A C 0.8829(16) -0.0468(14) 0.8400(16)
H26A H 0.8618 0.0050 0.8466
H27A H 0.8997 -0.0545 0.7913
H28A H 0.9371 -0.0561 0.8694
Cl1A Cl 0.6671(11) 0.1347(8) 0.4260(8)
O3A O 0.5902(14) 0.0939(14) 0.4317(16)
O4A O 0.7418(18) 0.1103(19) 0.4631(17)
O5A O 0.650(3) 0.2098(12) 0.443(2)
O6A O 0.698(3) 0.137(3) 0.3556(12)
O7 O 0.3587(14) -0.0271(11) 0.8357(11)
O8 O 0.512(3) -0.245(2) 0.8033(19)
C37 C 0.5420(14) -0.2001(14) 0.8529(11)
H29 H 0.5424 -0.2309 0.8956
H30 H 0.6078 -0.1900 0.8418
C38 C 0.509(4) -0.139(2) 0.8699(19)
H31 H 0.5418 -0.1198 0.9105
H32 H 0.4431 -0.1455 0.8811
H33 H 0.5152 -0.1035 0.8315
O9 O 0.180(3) -0.245(2) 0.631(2)
C39 C 0.027(2) -0.181(2) 0.7222(16)
H34 H -0.0390 -0.1808 0.7099
H35 H 0.0470 -0.1304 0.7338
H36 H 0.0364 -0.2143 0.7623
C40 C 0.098(7) -0.218(11) 0.645(10)
H37 H 0.0567 -0.2573 0.6257
H38 H 0.0935 -0.1759 0.6117
O10 O -0.107(2) 0.0821(19) 1.2613(18)
C41 C -0.076(5) -0.008(5) 1.368(3)
C42 C -0.0537(17) 0.0671(15) 1.3075(12)
H39 H -0.0454 0.1135 1.3350
H40 H 0.0068 0.0562 1.2856
loop_
_geom_bond_atom_site_label_1
_geom_bond_atom_site_label_2
_geom_bond_site_symmetry_1
_geom_bond_site_symmetry_2
Cd1 N1 1_555 1_555
O1 C16 1_555 1_555
O2 C26 1_555 1_555
N1 C21 1_555 1_555
N2 C7 1_555 1_555
C1 C2 1_555 1_555
C2 C3 1_555 1_555
C3 H1 1_555 1_555
C4 C3 1_555 1_555
H2 C4 1_555 1_555
C5 C4 1_555 1_555
H3 C5 1_555 1_555
C6 C1 1_555 1_555
H4 C6 1_555 1_555
C7 H5 1_555 1_555
C8 N2 1_555 1_555
H6 C8 1_555 1_555
C9 C7 1_555 1_555
H7 C9 1_555 1_555
C10 C8 1_555 1_555
H8 C10 1_555 1_555
C11 C9 1_555 1_555
C12 C11 1_555 1_555
H9 C12 1_555 1_555
C13 C12 1_555 1_555
H10 C13 1_555 1_555
C14 C15 1_555 1_555
C15 C1 1_555 1_555
H11 C15 1_555 1_555
C16 C14 1_555 1_555
C17 C2 1_555 1_555
C18 C14 1_555 1_555
H12 C18 1_555 1_555
C19 C18 1_555 1_555
H13 C19 1_555 1_555
C20 C19 1_555 1_555
C21 H14 1_555 1_555
C22 C20 1_555 1_555
H15 C22 1_555 1_555
C23 N1 1_555 1_555
H16 C23 1_555 1_555
C24 C20 1_555 1_555
H17 C24 1_555 1_555
C25 C17 1_555 1_555
C26 C25 1_555 1_555
C27 C25 1_555 1_555
C28 C27 1_555 1_555
C29 C28 1_555 1_555
H18 C29 1_555 1_555
C30 C13 1_555 1_555
C31 C28 1_555 1_555
H19 C31 1_555 1_555
C32 C27 1_555 1_555
H20 C32 1_555 1_555
C33 C31 1_555 1_555
H21 C33 1_555 1_555
C34 C32 1_555 1_555
H22 C34 1_555 1_555
C35 O2 1_555 1_555
H23 C35 1_555 1_555
H24 C35 1_555 1_555
H25 C35 1_555 1_555
C36 O1 1_555 1_555
H26 C36 1_555 1_555
H27 C36 1_555 1_555
H28 C36 1_555 1_555
Cl1 O3 1_555 1_555
O3 Cd1 1_555 1_555
O4 Cl1 1_555 1_555
O5 Cl1 1_555 1_555
O6 Cl1 1_555 1_555
O8 C37 1_555 1_555
C37 H29 1_555 1_555
H30 C37 1_555 1_555
C38 C37 1_555 1_555
H31 C38 1_555 1_555
H32 C38 1_555 1_555
H33 C38 1_555 1_555
O9 C40 1_555 1_555
C39 H34 1_555 1_555
H35 C39 1_555 1_555
H36 C39 1_555 1_555
C40 C39 1_555 1_555
H37 C40 1_555 1_555
H38 C40 1_555 1_555
O10 C42 1_555 1_555
C41 C42 1_555 1_555
C42 H39 1_555 1_555
H40 C42 1_555 1_555
Cd1_2 N2 1_555 1_555
O1A C16A 1_555 1_555
O2A C26A 1_555 1_555
N1A Cd1 1_555 1_555
N2A Cd1_2 1_555 1_555
N2_2 Cd1 1_555 1_555
N2A_2 Cd1 1_555 1_555
C1A C2A 1_555 1_555
C2A C3A 1_555 1_555
C3A H1A 1_555 1_555
C4A C3A 1_555 1_555
H2A C4A 1_555 1_555
C5A C4A 1_555 1_555
H3A C5A 1_555 1_555
C6A C1A 1_555 1_555
H4A C6A 1_555 1_555
C7A N2A 1_555 1_555
H5A C7A 1_555 1_555
C8A N2A 1_555 1_555
H6A C8A 1_555 1_555
C9A C7A 1_555 1_555
H7A C9A 1_555 1_555
C10A C8A 1_555 1_555
H8A C10A 1_555 1_555
C11A C9A 1_555 1_555
C12A C11A 1_555 1_555
H9A C12A 1_555 1_555
C13A C12A 1_555 1_555
H10A C13A 1_555 1_555
C14A C15A 1_555 1_555
C15A C1A 1_555 1_555
H11A C15A 1_555 1_555
C16A C14A 1_555 1_555
C17A C2A 1_555 1_555
C18A C14A 1_555 1_555
H12A C18A 1_555 1_555
C19A C18A 1_555 1_555
H13A C19A 1_555 1_555
C20A C19A 1_555 1_555
C21A N1A 1_555 1_555
H14A C21A 1_555 1_555
C22A C20A 1_555 1_555
H15A C22A 1_555 1_555
C23A N1A 1_555 1_555
H16A C23A 1_555 1_555
C24A C20A 1_555 1_555
H17A C24A 1_555 1_555
C25A C17A 1_555 1_555
C26A C25A 1_555 1_555
C27A C25A 1_555 1_555
C28A C27A 1_555 1_555
C29A C28A 1_555 1_555
H18A C29A 1_555 1_555
C30A C13A 1_555 1_555
C31A C28A 1_555 1_555
H19A C31A 1_555 1_555
C32A C27A 1_555 1_555
H20A C32A 1_555 1_555
C33A C31A 1_555 1_555
H21A C33A 1_555 1_555
C34A C32A 1_555 1_555
H22A C34A 1_555 1_555
C35A O2A 1_555 1_555
H23A C35A 1_555 1_555
H24A C35A 1_555 1_555
H25A C35A 1_555 1_555
C36A O1A 1_555 1_555
H26A C36A 1_555 1_555
H27A C36A 1_555 1_555
H28A C36A 1_555 1_555
Cl1A O3A 1_555 1_555
O3A Cd1 1_555 1_555
O4A Cl1A 1_555 1_555
O5A Cl1A 1_555 1_555
O6A Cl1A 1_555 1_555
C5 C6 1_555 1_555
C10 C11 1_555 1_555
C16 C17 1_555 1_555
C21 C22 1_555 1_555
C23 C24 1_555 1_555
C26 C30 1_555 1_555
C29 C30 1_555 1_555
C33 C34 1_555 1_555
C5A C6A 1_555 1_555
C10A C11A 1_555 1_555
C16A C17A 1_555 1_555
C21A C22A 1_555 1_555
C23A C24A 1_555 1_555
C26A C30A 1_555 1_555
C29A C30A 1_555 1_555
C33A C34A 1_555 1_555

#END
