
#######################################################################
#
#                 Cambridge Crystallographic Data Centre
#                                CCDC 
#
#######################################################################
#
# If this CIF has been generated from an entry in the Cambridge 
# Structural Database, then it will include bibliographic, chemical, 
# crystal, experimental, refinement or atomic coordinate data resulting 
# from the CCDC's data processing and validation procedures.
#
#######################################################################

data_RAQGOF
_symmetry_cell_setting           monoclinic
_symmetry_space_group_name_H-M   'P 21/c'
_symmetry_Int_Tables_number      14
_space_group_name_Hall           '-P 2ybc'
loop_
_symmetry_equiv_pos_site_id
_symmetry_equiv_pos_as_xyz
1 x,y,z
2 -x,1/2+y,1/2-z
3 -x,-y,-z
4 x,1/2-y,1/2+z
_cell_length_a                   7.168(2)
_cell_length_b                   9.972(1)
_cell_length_c                   21.069(3)
_cell_angle_alpha                90
_cell_angle_beta                 99.47(1)
_cell_angle_gamma                90
_cell_volume                     1485.47
loop_
_atom_site_label
_atom_site_type_symbol
_atom_site_fract_x
_atom_site_fract_y
_atom_site_fract_z
N1 N 0.2398(6) 0.5795(5) 0.3444(2)
C1 C 0.2741(8) 0.7013(6) 0.3243(3)
C2 C 0.3136(8) 0.8111(6) 0.3648(3)
C3 C 0.3224(8) 0.7917(6) 0.4298(3)
C4 C 0.2900(8) 0.6635(6) 0.4536(3)
C5 C 0.2461(7) 0.5590(5) 0.4088(2)
C6 C 0.2999(9) 0.6354(6) 0.5208(3)
N2 N 0.1656(6) 0.3282(5) 0.3870(2)
C7 C 0.1370(9) 0.2062(6) 0.4085(3)
C8 C 0.144(1) 0.1757(7) 0.4738(3)
C9 C 0.1880(8) 0.2737(7) 0.5178(3)
C10 C 0.2217(7) 0.4049(6) 0.4975(2)
C11 C 0.2094(7) 0.4268(5) 0.4307(2)
C12 C 0.2698(9) 0.5126(8) 0.5415(3)
N3 N -0.2002(7) 0.5689(5) 0.2780(2)
O1 O -0.1109(7) 0.6056(4) 0.2349(2)
O2 O -0.1843(6) 0.4475(4) 0.2952(2)
O3 O 0.2965(7) 0.1462(5) 0.1968(3)
N4 N 0.2924(8) 0.5178(5) 0.1417(2)
O4 O 0.1527(8) 0.4438(6) 0.1303(2)
O5 O 0.3599(7) 0.5457(6) 0.1996(2)
O6 O 0.367(1) 0.5656(7) 0.0980(3)
O7 O 0.4922(6) 0.3204(5) 0.3156(2)
H1 H 0.2774 0.7143 0.2791
H2 H 0.3281 0.8989 0.3478
H3 H 0.3476 0.8640 0.4598
H4 H 0.3224 0.7081 0.5523
H5 H 0.1038 0.1360 0.3766
H6 H 0.1182 0.0852 0.4870
H7 H 0.2001 0.2575 0.5633
H8 H 0.2851 0.4964 0.5865
Pb1 Pb 0.16803(3) 0.38621(2) 0.26911(1)
O1A O 0.1109(7) 0.1056(4) 0.2651(2)
N3A N 0.2002(7) 0.0689(5) 0.2220(2)
O2A O 0.1843(6) -0.0525(4) 0.2048(2)
Pb1A Pb -0.16803(3) -0.11379(2) 0.23089(1)
N1A N -0.2398(6) 0.0795(5) 0.1556(2)
C1A C -0.2741(8) 0.2013(6) 0.1757(3)
C2A C -0.3136(8) 0.3111(6) 0.1352(3)
C3A C -0.3224(8) 0.2917(6) 0.0702(3)
C4A C -0.2900(8) 0.1635(6) 0.0464(3)
C5A C -0.2461(7) 0.0590(5) 0.0912(2)
C11A C -0.2094(7) -0.0732(5) 0.0693(2)
N2A N -0.1656(6) -0.1718(5) 0.1130(2)
C7A C -0.1370(9) -0.2938(6) 0.0915(3)
C8A C -0.144(1) -0.3243(7) 0.0262(3)
C9A C -0.1880(8) -0.2263(7) -0.0178(3)
C10A C -0.2217(7) -0.0951(6) 0.0025(2)
C12A C -0.2698(9) 0.0126(8) -0.0415(3)
C6A C -0.2999(9) 0.1354(6) -0.0208(3)
H4A H -0.3224 0.2081 -0.0523
H8A H -0.2851 -0.0036 -0.0865
H7A H -0.2001 -0.2425 -0.0633
H6A H -0.1182 -0.4148 0.0130
H5A H -0.1038 -0.3640 0.1234
O1_2 O -0.1109(7) -0.3944(4) 0.2349(2)
O3A O -0.2965(7) -0.3538(5) 0.3032(3)
O4A O -0.1527(8) -0.0562(6) 0.3697(2)
O5A O -0.3599(7) 0.0457(6) 0.3004(2)
O7A O -0.4922(6) -0.1796(5) 0.1844(2)
H3A H -0.3476 0.3640 0.0402
H2A H -0.3281 0.3989 0.1522
H1A H -0.2774 0.2143 0.2209
O3A_2 O -0.2965(7) 0.6462(5) 0.3032(3)
Pb1A_2 Pb -0.16803(3) 0.88621(2) 0.23089(1)
N4A N -0.2924(8) 0.0178(5) 0.3583(2)
O6A O -0.367(1) 0.0656(7) 0.4020(3)
loop_
_geom_bond_atom_site_label_1
_geom_bond_atom_site_label_2
_geom_bond_site_symmetry_1
_geom_bond_site_symmetry_2
N1 C1 1_555 1_555
C1 C2 1_555 1_555
C2 C3 1_555 1_555
C3 C4 1_555 1_555
C4 C5 1_555 1_555
C5 N1 1_555 1_555
C6 C4 1_555 1_555
N2 C7 1_555 1_555
C7 C8 1_555 1_555
C8 C9 1_555 1_555
C9 C10 1_555 1_555
C10 C11 1_555 1_555
C11 C5 1_555 1_555
C12 C6 1_555 1_555
N3 O1 1_555 1_555
O1 Pb1 1_555 1_555
O2 N3 1_555 1_555
O3 Pb1 1_555 1_555
N4 O4 1_555 1_555
O4 Pb1 1_555 1_555
O5 N4 1_555 1_555
O6 N4 1_555 1_555
O7 Pb1 1_555 1_555
H1 C1 1_555 1_555
H2 C2 1_555 1_555
H3 C3 1_555 1_555
H4 C6 1_555 1_555
H5 C7 1_555 1_555
H6 C8 1_555 1_555
H7 C9 1_555 1_555
H8 C12 1_555 1_555
Pb1 N1 1_555 1_555
O1A Pb1 1_555 1_555
N3A O3 1_555 1_555
O2A N3A 1_555 1_555
Pb1A O1A 1_555 1_555
N1A Pb1A 1_555 1_555
C1A N1A 1_555 1_555
C2A C1A 1_555 1_555
C3A C2A 1_555 1_555
C4A C3A 1_555 1_555
C5A N1A 1_555 1_555
C11A C5A 1_555 1_555
N2A Pb1A 1_555 1_555
C7A N2A 1_555 1_555
C8A C7A 1_555 1_555
C9A C8A 1_555 1_555
C10A C11A 1_555 1_555
C12A C10A 1_555 1_555
C6A C4A 1_555 1_555
H4A C6A 1_555 1_555
H8A C12A 1_555 1_555
H7A C9A 1_555 1_555
H6A C8A 1_555 1_555
H5A C7A 1_555 1_555
O1_2 Pb1A 1_555 1_555
O3A Pb1A 1_555 1_555
O4A Pb1A 1_555 1_555
O5A Pb1A 1_555 1_555
O7A Pb1A 1_555 1_555
H3A C3A 1_555 1_555
H2A C2A 1_555 1_555
H1A C1A 1_555 1_555
O3A_2 N3 1_555 1_555
Pb1A_2 O1 1_555 1_555
N4A O4A 1_555 1_555
O6A N4A 1_555 1_555
N2 C11 1_555 1_555
N2 Pb1 1_555 1_555
C10 C12 1_555 1_555
O2 Pb1 1_555 1_555
O5 Pb1 1_555 1_555
O1A N3A 1_555 1_555
O2A Pb1A 1_555 1_555
C4A C5A 1_555 1_555
C11A N2A 1_555 1_555
C9A C10A 1_555 1_555
C12A C6A 1_555 1_555
O5A N4A 1_555 1_555
O3A_2 Pb1A_2 1_555 1_555

#END
