
#######################################################################
#
#                 Cambridge Crystallographic Data Centre
#                                CCDC 
#
#######################################################################
#
# If this CIF has been generated from an entry in the Cambridge 
# Structural Database, then it will include bibliographic, chemical, 
# crystal, experimental, refinement or atomic coordinate data resulting 
# from the CCDC's data processing and validation procedures.
#
#######################################################################

data_RAQLUR
_symmetry_cell_setting           monoclinic
_symmetry_space_group_name_H-M   'C 2/c'
_symmetry_Int_Tables_number      15
_space_group_name_Hall           '-C 2yn'
loop_
_symmetry_equiv_pos_site_id
_symmetry_equiv_pos_as_xyz
1 x,y,z
2 1/2+x,1/2+y,z
3 -x,y,1/2-z
4 1/2-x,1/2+y,1/2-z
5 -x,-y,-z
6 1/2-x,1/2-y,-z
7 x,-y,1/2+z
8 1/2+x,1/2-y,1/2+z
_cell_length_a                   33.048(5)
_cell_length_b                   9.4327(13)
_cell_length_c                   24.010(3)
_cell_angle_alpha                90
_cell_angle_beta                 112.513(2)
_cell_angle_gamma                90
_cell_volume                     6914.29
loop_
_atom_site_label
_atom_site_type_symbol
_atom_site_fract_x
_atom_site_fract_y
_atom_site_fract_z
Cu1 Cu 1.090922(11) -0.77704(4) 0.517601(15)
Cu2 Cu 0.861634(11) -0.74259(4) 0.748979(16)
N1 N 1.05519(9) -0.7727(3) 0.56741(12)
N2 N 0.90913(9) -0.7540(3) 0.71875(13)
N3 N 1.12931(8) -0.7780(2) 0.46920(10)
N4 N 0.80999(8) -0.7319(2) 0.77293(10)
O1 O 1.04060(8) -0.7592(3) 0.43004(11)
O2 O 1.09982(9) -0.9837(3) 0.52164(13)
O3 O 1.12055(7) -0.5934(2) 0.54681(10)
O4 O 0.81140(7) -0.6997(3) 0.66243(9)
O5 O 0.87516(7) -0.5468(2) 0.78334(11)
O6 O 0.86955(7) -0.9340(2) 0.78604(10)
O7 O 1.03403(8) -0.7147(3) 0.33614(11)
O8 O 1.13355(9) -1.1559(3) 0.49549(14)
O9 O 1.17973(7) -0.4717(2) 0.55393(10)
O10 O 0.73933(7) -0.7233(2) 0.61600(10)
O11 O 0.84833(8) -0.3779(2) 0.82357(11)
O12 O 0.84498(9) -1.0680(3) 0.84163(12)
O13 O 1.2921(2) -0.5248(6) 0.6326(3)
O14 O 1.2777(2) -0.6963(9) 0.6844(3)
O15 O 1.2903(2) -0.7312(7) 0.5949(2)
O16 O 1.34517(11) -0.6831(5) 0.68409(16)
C1 C 1.04875(12) -0.6542(4) 0.59284(17)
H1 H 1.0630 -0.5720 0.5890
C2 C 1.02189(12) -0.6480(4) 0.62462(17)
H2 H 1.0185 -0.5629 0.6419
C3 C 0.99995(10) -0.7679(3) 0.63099(13)
C4 C 1.00823(13) -0.8910(4) 0.60629(19)
H3 H 0.9950 -0.9753 0.6103
C5 C 1.03601(13) -0.8900(4) 0.57557(19)
H4 H 1.0415 -0.9748 0.5600
C6 C 0.92419(12) -0.6353(4) 0.70312(19)
H5 H 0.9140 -0.5485 0.7108
C7 C 0.95418(12) -0.6364(4) 0.67610(18)
H6 H 0.9643 -0.5512 0.6667
C8 C 0.96952(10) -0.7641(3) 0.66273(14)
C9 C 0.95482(11) -0.8865(3) 0.68146(16)
H7 H 0.9652 -0.9746 0.6756
C10 C 0.92497(11) -0.8776(4) 0.70876(16)
H8 H 0.9155 -0.9608 0.7207
C11 C 1.05571(10) -0.7283(3) 0.39059(14)
C12 C 1.10485(9) -0.7007(4) 0.41271(13)
H9 H 1.1154 -0.7300 0.3819
H10 H 1.1103 -0.5999 0.4194
C13 C 1.12304(10) -1.0296(3) 0.49469(15)
C14 C 1.13809(10) -0.9266(3) 0.45824(14)
H11 H 1.1693 -0.9388 0.4686
H12 H 1.1232 -0.9479 0.4157
C15 C 1.15619(9) -0.5759(3) 0.53779(12)
C16 C 1.16914(9) -0.6987(3) 0.50680(14)
H13 H 1.1839 -0.6627 0.4817
H14 H 1.1891 -0.7614 0.5368
C17 C 0.84659(10) -0.4959(3) 0.80069(13)
C18 C 0.80522(10) -0.5821(3) 0.78818(15)
H15 H 0.7977 -0.5795 0.8235
H16 H 0.7813 -0.5390 0.7550
C19 C 0.84593(10) -0.9567(3) 0.81648(13)
C20 C 0.82020(11) -0.8298(3) 0.82481(14)
H17 H 0.7932 -0.8621 0.8278
H18 H 0.8373 -0.7806 0.8618
C21 C 0.77396(10) -0.7271(3) 0.66150(13)
C22 C 0.77155(10) -0.7799(4) 0.72053(13)
H19 H 0.7450 -0.7444 0.7239
H20 H 0.7703 -0.8827 0.7202
Cl1 Cl 1.30024(3) -0.67008(11) 0.65105(4)
Na1 Na 0.89112(5) -1.20823(16) 0.79931(7)
Na2 Na 1.24303(4) -0.40003(14) 0.53862(5)
Na3 Na 1.16498(4) -1.25637(12) 0.60196(5)
O17 O 1.25621(9) -0.5132(3) 0.45814(11)
O18 O 0.94951(10) -1.2397(4) 0.89294(17)
O19 O 0.94635(10) -1.2235(5) 0.76369(15)
O20 O 1.30256(8) -0.2498(3) 0.54286(11)
H21 H 0.939(2) -1.240(8) 0.921(3)
H22 H 0.953(3) -1.241(8) 0.732(2)
H23 H 0.9697(17) -1.259(7) 0.791(2)
H24 H 1.255(2) -0.445(6) 0.435(3)
H25 H 1.245(2) -0.581(6) 0.434(3)
H26 H 0.9763(9) -1.251(8) 0.916(3)
H27 H 1.308(3) -0.238(8) 0.5803(12)
H28 H 1.3239(18) -0.279(8) 0.535(4)
O9_2 O 1.17973(7) -1.4717(2) 0.55393(10)
O10A O 1.23933(7) -0.2233(2) 0.61600(10)
O10A_2 O 1.23933(7) -1.2233(2) 0.61600(10)
O11_2 O 0.84833(8) -1.3779(2) 0.82357(11)
O11B O 1.15167(8) -1.3779(2) 0.67643(11)
O12B O 1.15502(9) -1.0680(3) 0.65837(12)
O16A O 0.84517(11) -1.1831(5) 0.68409(16)
Na1_2 Na 0.89112(5) -0.20823(16) 0.79931(7)
Na1A Na 1.39112(5) -0.70823(16) 0.79931(7)
Na2A Na 0.74303(4) -0.90003(14) 0.53862(5)
Na2E Na 1.25697(4) -0.09997(14) 0.46138(5)
Na3_2 Na 1.16498(4) -0.25637(12) 0.60196(5)
Na3A Na 0.66498(4) -0.75637(12) 0.60196(5)
Na3B Na 0.83502(4) -0.25637(12) 0.89804(5)
Na3B_2 Na 0.83502(4) -1.25637(12) 0.89804(5)
O20E O 1.19744(8) -0.2502(3) 0.45714(11)
H27E H 1.192(3) -0.262(8) 0.4197(12)
H28E H 1.1761(18) -0.221(8) 0.465(4)
O21 O 0.92701(15) -0.3358(5) 0.9860(2)
H29 H 0.912(2) -0.414(4) 0.978(4)
H30 H 0.9065(18) -0.284(6) 0.991(4)
loop_
_geom_bond_atom_site_label_1
_geom_bond_atom_site_label_2
_geom_bond_site_symmetry_1
_geom_bond_site_symmetry_2
Cu1 N1 1_555 1_555
Cu2 N2 1_555 1_555
N1 C1 1_555 1_555
N2 C6 1_555 1_555
N3 Cu1 1_555 1_555
N4 Cu2 1_555 1_555
O1 Cu1 1_555 1_555
O2 Cu1 1_555 1_555
O3 Cu1 1_555 1_555
O4 Cu2 1_555 1_555
O5 Cu2 1_555 1_555
O6 Cu2 1_555 1_555
O7 C11 1_555 1_555
O8 C13 1_555 1_555
O9 C15 1_555 1_555
O10 C21 1_555 1_555
O11 C17 1_555 1_555
O12 C19 1_555 1_555
O13 Cl1 1_555 1_555
O14 Cl1 1_555 1_555
O15 Cl1 1_555 1_555
O16 Cl1 1_555 1_555
C1 H1 1_555 1_555
C2 C1 1_555 1_555
H2 C2 1_555 1_555
C3 C2 1_555 1_555
C4 C3 1_555 1_555
H3 C4 1_555 1_555
C5 N1 1_555 1_555
H4 C5 1_555 1_555
C6 H5 1_555 1_555
C7 C6 1_555 1_555
H6 C7 1_555 1_555
C8 C3 1_555 1_555
C9 C8 1_555 1_555
H7 C9 1_555 1_555
C10 N2 1_555 1_555
H8 C10 1_555 1_555
C11 O1 1_555 1_555
C12 N3 1_555 1_555
H9 C12 1_555 1_555
H10 C12 1_555 1_555
C13 O2 1_555 1_555
C14 N3 1_555 1_555
H11 C14 1_555 1_555
H12 C14 1_555 1_555
C15 O3 1_555 1_555
C16 N3 1_555 1_555
H13 C16 1_555 1_555
H14 C16 1_555 1_555
C17 O5 1_555 1_555
C18 N4 1_555 1_555
H15 C18 1_555 1_555
H16 C18 1_555 1_555
C19 O6 1_555 1_555
C20 N4 1_555 1_555
H17 C20 1_555 1_555
H18 C20 1_555 1_555
C21 O4 1_555 1_555
C22 N4 1_555 1_555
H19 C22 1_555 1_555
H20 C22 1_555 1_555
Na1 O6 1_555 1_555
Na2 O9 1_555 1_555
Na3 O8 1_555 1_555
O17 Na2 1_555 1_555
O18 Na1 1_555 1_555
O19 Na1 1_555 1_555
O20 Na2 1_555 1_555
O21 H29 1_555 1_555
H21 O18 1_555 1_555
H22 O19 1_555 1_555
H23 O19 1_555 1_555
H24 O17 1_555 1_555
H25 O17 1_555 1_555
H26 O18 1_555 1_555
H27 O20 1_555 1_555
H28 O20 1_555 1_555
H30 O21 1_555 1_555
O9_2 Na3 1_555 1_555
O10A Na2 1_555 1_555
O10A_2 Na3 1_555 1_555
O11_2 Na1 1_555 1_555
O11B Na3 1_555 1_555
O12B Na3 1_555 1_555
O16A Na1 1_555 1_555
Na1_2 O11 1_555 1_555
Na1A O16 1_555 1_555
Na2A O10 1_555 1_555
Na2E O20 1_555 1_555
Na3_2 O9 1_555 1_555
Na3A O10 1_555 1_555
Na3B O11 1_555 1_555
Na3B_2 O12 1_555 1_555
O20E Na2 1_555 1_555
H27E O20E 1_555 1_555
H28E O20E 1_555 1_555
O12 Na1 1_555 1_555
O13 Na2 1_555 1_555
C4 C5 1_555 1_555
C7 C8 1_555 1_555
C9 C10 1_555 1_555
C11 C12 1_555 1_555
C13 C14 1_555 1_555
C15 C16 1_555 1_555
C17 C18 1_555 1_555
C19 C20 1_555 1_555
C21 C22 1_555 1_555
O10A Na3_2 1_555 1_555
O11_2 Na3B_2 1_555 1_555
Na2E O20E 1_555 1_555

#END
