
#######################################################################
#
#                 Cambridge Crystallographic Data Centre
#                                CCDC 
#
#######################################################################
#
# If this CIF has been generated from an entry in the Cambridge 
# Structural Database, then it will include bibliographic, chemical, 
# crystal, experimental, refinement or atomic coordinate data resulting 
# from the CCDC's data processing and validation procedures.
#
#######################################################################

data_RAQLIE02
_symmetry_cell_setting           monoclinic
_symmetry_space_group_name_H-M   'C 2/c'
_symmetry_Int_Tables_number      15
_space_group_name_Hall           '-C 2yc'
loop_
_symmetry_equiv_pos_site_id
_symmetry_equiv_pos_as_xyz
1 x,y,z
2 1/2+x,1/2+y,z
3 1/2-x,1/2+y,1/2-z
4 -x,y,1/2-z
5 -x,-y,-z
6 1/2-x,1/2-y,-z
7 1/2+x,1/2-y,1/2+z
8 x,-y,1/2+z
_cell_length_a                   16.400(9)
_cell_length_b                   10.400(6)
_cell_length_c                   8.245(5)
_cell_angle_alpha                90
_cell_angle_beta                 103.000(9)
_cell_angle_gamma                90
_cell_volume                     1370.22
loop_
_atom_site_label
_atom_site_type_symbol
_atom_site_fract_x
_atom_site_fract_y
_atom_site_fract_z
Pb1 Pb 0.5000 0.5775(1) 0.2500
I1 I 0.3743(1) 0.3839(1) -0.0100(1)
N1 N 0.4350(5) 0.7812(7) 0.1167(11)
C1 C 0.4603(6) 0.8958(9) 0.1777(14)
C2 C 0.4230(6) 1.0091(10) 0.1150(15)
C3 C 0.3539(7) 1.0035(11) -0.0061(15)
C4 C 0.3234(7) 0.8859(12) -0.0766(18)
C5 C 0.3666(6) 0.7754(10) -0.0087(14)
Pb1D Pb 0.5000 0.4225(1) -0.2500
Pb1D_2 Pb 0.5000 0.4225(1) 0.7500
I1D I 0.6257(1) 0.6161(1) 0.0100(1)
I1C I 0.6257(1) 0.3839(1) 0.5100(1)
I1G I 0.3743(1) 0.6161(1) 0.4900(1)
N1C N 0.5650(5) 0.7812(7) 0.3833(11)
C1C C 0.5397(6) 0.8958(9) 0.3223(14)
C2C C 0.5770(6) 1.0091(10) 0.3850(15)
C3C C 0.6461(7) 1.0035(11) 0.5061(15)
C4C C 0.6766(7) 0.8859(12) 0.5766(18)
C5C C 0.6334(6) 0.7754(10) 0.5087(14)
loop_
_geom_bond_atom_site_label_1
_geom_bond_atom_site_label_2
_geom_bond_site_symmetry_1
_geom_bond_site_symmetry_2
Pb1 I1 1_555 1_555
I1 Pb1D 1_555 1_555
N1 Pb1 1_555 1_555
C1 N1 1_555 1_555
C2 C1 1_555 1_555
C3 C2 1_555 1_555
C4 C3 1_555 1_555
C5 N1 1_555 1_555
Pb1D I1D 1_555 1_555
Pb1D_2 I1C 1_555 1_555
I1D Pb1 1_555 1_555
I1C Pb1 1_555 1_555
I1G Pb1 1_555 1_555
N1C Pb1 1_555 1_555
C1C C1 1_555 1_555
C2C C1C 1_555 1_555
C3C C2C 1_555 1_555
C4C C3C 1_555 1_555
C5C N1C 1_555 1_555
C4 C5 1_555 1_555
Pb1D_2 I1G 1_555 1_555
N1C C1C 1_555 1_555
C4C C5C 1_555 1_555

#END
