
#######################################################################
#
#                 Cambridge Crystallographic Data Centre
#                                CCDC 
#
#######################################################################
#
# If this CIF has been generated from an entry in the Cambridge 
# Structural Database, then it will include bibliographic, chemical, 
# crystal, experimental, refinement or atomic coordinate data resulting 
# from the CCDC's data processing and validation procedures.
#
#######################################################################

data_RAQLIE
_symmetry_cell_setting           monoclinic
_symmetry_space_group_name_H-M   'C 2/c'
_symmetry_Int_Tables_number      15
_space_group_name_Hall           '-C 2yn'
loop_
_symmetry_equiv_pos_site_id
_symmetry_equiv_pos_as_xyz
1 x,y,z
2 -x,y,1/2-z
3 1/2+x,1/2+y,z
4 1/2-x,1/2+y,1/2-z
5 -x,-y,-z
6 x,-y,1/2+z
7 1/2-x,1/2-y,-z
8 1/2+x,1/2-y,1/2+z
_cell_length_a                   16.442(4)
_cell_length_b                   10.421(3)
_cell_length_c                   8.254(1)
_cell_angle_alpha                90
_cell_angle_beta                 102.97(1)
_cell_angle_gamma                90
_cell_volume                     1378.18
loop_
_atom_site_label
_atom_site_type_symbol
_atom_site_fract_x
_atom_site_fract_y
_atom_site_fract_z
Pb1 Pb 1.0000 0.07717(6) 0.2500
N1 N 0.9342(6) 0.2822(9) 0.119(1)
C1 C 0.8656(9) 0.276(1) -0.011(2)
C2 C 0.8246(9) 0.384(2) -0.080(2)
C3 C 0.8517(9) 0.503(1) -0.016(2)
C4 C 0.924(1) 0.509(1) 0.117(2)
C5 C 0.9636(8) 0.396(1) 0.183(1)
I1 I 0.87398(6) 0.11631(8) 0.4902(1)
H1 H 0.8458 0.1937 -0.0555
H2 H 0.7770 0.3783 -0.1657
H3 H 0.8253 0.5804 -0.0630
H4 H 0.9428 0.5916 0.1583
C5A C 1.0364(8) 0.396(1) 0.317(1)
N1A N 1.0658(6) 0.2822(9) 0.381(1)
Pb1D Pb 1.0000 -0.07717(6) 0.7500
I1D I 1.12602(6) -0.11631(8) 0.5098(1)
I1A I 1.12602(6) 0.11631(8) 0.0098(1)
I1E I 0.87398(6) -0.11631(8) -0.0098(1)
C1A C 1.1344(9) 0.276(1) 0.511(2)
C2A C 1.1754(9) 0.384(2) 0.580(2)
C3A C 1.1483(9) 0.503(1) 0.516(2)
C4A C 1.076(1) 0.509(1) 0.383(2)
H4A H 1.0572 0.5916 0.3417
H3A H 1.1747 0.5804 0.5630
H2A H 1.2230 0.3783 0.6657
H1A H 1.1542 0.1937 0.5555
loop_
_geom_bond_atom_site_label_1
_geom_bond_atom_site_label_2
_geom_bond_site_symmetry_1
_geom_bond_site_symmetry_2
Pb1 N1 1_555 1_555
N1 C1 1_555 1_555
C1 C2 1_555 1_555
C2 C3 1_555 1_555
C3 C4 1_555 1_555
C4 C5 1_555 1_555
C5 N1 1_555 1_555
I1 Pb1 1_555 1_555
H1 C1 1_555 1_555
H2 C2 1_555 1_555
H3 C3 1_555 1_555
H4 C4 1_555 1_555
C5A C5 1_555 1_555
N1A Pb1 1_555 1_555
Pb1D I1 1_555 1_555
I1D Pb1 1_555 1_555
I1A Pb1 1_555 1_555
I1E Pb1 1_555 1_555
C1A N1A 1_555 1_555
C2A C1A 1_555 1_555
C3A C2A 1_555 1_555
C4A C5A 1_555 1_555
H4A C4A 1_555 1_555
H3A C3A 1_555 1_555
H2A C2A 1_555 1_555
H1A C1A 1_555 1_555
C5A N1A 1_555 1_555
Pb1D I1D 1_555 1_555
C3A C4A 1_555 1_555

#END
