
#######################################################################
#
#                 Cambridge Crystallographic Data Centre
#                                CCDC 
#
#######################################################################
#
# If this CIF has been generated from an entry in the Cambridge 
# Structural Database, then it will include bibliographic, chemical, 
# crystal, experimental, refinement or atomic coordinate data resulting 
# from the CCDC's data processing and validation procedures.
#
#######################################################################

data_RAQLEA
_symmetry_cell_setting           monoclinic
_symmetry_space_group_name_H-M   'C 2/c'
_symmetry_Int_Tables_number      15
_space_group_name_Hall           '-C 2yn'
loop_
_symmetry_equiv_pos_site_id
_symmetry_equiv_pos_as_xyz
1 x,y,z
2 -x,y,1/2-z
3 1/2+x,1/2+y,z
4 1/2-x,1/2+y,1/2-z
5 -x,-y,-z
6 x,-y,1/2+z
7 1/2-x,1/2-y,-z
8 1/2+x,1/2-y,1/2+z
_cell_length_a                   15.979(5)
_cell_length_b                   10.242(3)
_cell_length_c                   8.247(8)
_cell_angle_alpha                90
_cell_angle_beta                 106.40(6)
_cell_angle_gamma                90
_cell_volume                     1294.77
loop_
_atom_site_label
_atom_site_type_symbol
_atom_site_fract_x
_atom_site_fract_y
_atom_site_fract_z
Pb1 Pb 1.0000 0.05249(3) 0.2500
N1 N 0.9282(4) 0.2583(6) 0.1123(8)
C1 C 0.8574(5) 0.260(1) -0.020(1)
C2 C 0.8157(6) 0.376(1) -0.090(1)
C3 C 0.8504(9) 0.492(1) -0.022(2)
C4 C 0.9235(8) 0.494(1) 0.112(1)
C5 C 0.9616(5) 0.3742(7) 0.179(1)
C6 C 0.9645(8) 0.612(1) 0.186(2)
Cl1 Cl 0.8807(1) 0.0850(2) 0.4480(3)
H1 H 0.8334 0.1746 -0.0724
H2 H 0.7625 0.3735 -0.1863
H3 H 0.8218 0.5730 -0.0689
H4 H 0.9386 0.6969 0.1388
C5A C 1.0384(5) 0.3742(7) 0.321(1)
N1A N 1.0718(4) 0.2583(6) 0.3877(8)
Pb1D Pb 1.0000 -0.05249(3) 0.7500
Cl1D Cl 1.1193(1) -0.0850(2) 0.5520(3)
Cl1A Cl 1.1193(1) 0.0850(2) 0.0520(3)
Cl1E Cl 0.8807(1) -0.0850(2) -0.0520(3)
C1A C 1.1426(5) 0.260(1) 0.520(1)
C2A C 1.1843(6) 0.376(1) 0.590(1)
C3A C 1.1496(9) 0.492(1) 0.522(2)
C4A C 1.0765(8) 0.494(1) 0.388(1)
C6A C 1.0355(8) 0.612(1) 0.314(2)
H4A H 1.0614 0.6969 0.3612
H3A H 1.1782 0.5730 0.5689
H2A H 1.2375 0.3735 0.6863
H1A H 1.1666 0.1746 0.5724
loop_
_geom_bond_atom_site_label_1
_geom_bond_atom_site_label_2
_geom_bond_site_symmetry_1
_geom_bond_site_symmetry_2
Pb1 N1 1_555 1_555
N1 C1 1_555 1_555
C1 C2 1_555 1_555
C2 C3 1_555 1_555
C3 C4 1_555 1_555
C4 C5 1_555 1_555
C5 N1 1_555 1_555
C6 C4 1_555 1_555
Cl1 Pb1 1_555 1_555
H1 C1 1_555 1_555
H2 C2 1_555 1_555
H3 C3 1_555 1_555
H4 C6 1_555 1_555
C5A C5 1_555 1_555
N1A Pb1 1_555 1_555
Pb1D Cl1 1_555 1_555
Cl1D Pb1 1_555 1_555
Cl1A Pb1 1_555 1_555
Cl1E Pb1 1_555 1_555
C1A N1A 1_555 1_555
C2A C1A 1_555 1_555
C3A C2A 1_555 1_555
C4A C5A 1_555 1_555
C6A C6 1_555 1_555
H4A C6A 1_555 1_555
H3A C3A 1_555 1_555
H2A C2A 1_555 1_555
H1A C1A 1_555 1_555
C5A N1A 1_555 1_555
Pb1D Cl1D 1_555 1_555
C3A C4A 1_555 1_555
C4A C6A 1_555 1_555

#END
