
#######################################################################
#
#                 Cambridge Crystallographic Data Centre
#                                CCDC 
#
#######################################################################
#
# If this CIF has been generated from an entry in the Cambridge 
# Structural Database, then it will include bibliographic, chemical, 
# crystal, experimental, refinement or atomic coordinate data resulting 
# from the CCDC's data processing and validation procedures.
#
#######################################################################

data_RAQLIE01
_symmetry_cell_setting           monoclinic
_symmetry_space_group_name_H-M   'C 2/c'
_symmetry_Int_Tables_number      15
_space_group_name_Hall           '-C 2yn'
loop_
_symmetry_equiv_pos_site_id
_symmetry_equiv_pos_as_xyz
1 x,y,z
2 1/2+x,1/2+y,z
3 x,-y,1/2+z
4 1/2+x,1/2-y,1/2+z
5 -x,-y,-z
6 1/2-x,1/2-y,-z
7 -x,y,1/2-z
8 1/2-x,1/2+y,1/2-z
_cell_length_a                   16.4804(3)
_cell_length_b                   10.4358(3)
_cell_length_c                   8.2727(2)
_cell_angle_alpha                90
_cell_angle_beta                 103.025(1)
_cell_angle_gamma                90
_cell_volume                     1386.18
loop_
_atom_site_label
_atom_site_type_symbol
_atom_site_fract_x
_atom_site_fract_y
_atom_site_fract_z
Pb1 Pb 0.5000 0.42287(3) -1.7500
I1 I 0.62595(3) 0.61646(5) -1.49041(6)
N1 N 0.5653(3) 0.2185(5) -1.6208(7)
C1 C 0.5374(4) 0.1052(6) -1.6813(8)
C2 C 0.4233(5) -0.0080(7) -1.8841(10)
H1 H 0.4435 -0.0871 -1.8411
C3 C 0.3540(5) -0.0006(8) -2.0140(11)
H2 H 0.3276 -0.0754 -2.0591
C4 C 0.3233(5) 0.1175(10) -2.0778(10)
H3 H 0.2760 0.1243 -2.1634
C5 C 0.3663(4) 0.2228(9) -2.0083(9)
H4 H 0.3480 0.3027 -2.0514
Pb1B Pb 0.5000 0.57713(3) -1.2500
I1B I 0.62595(3) 0.38354(5) -1.99041(6)
I1D I 0.37405(3) 0.38354(5) -1.50959(6)
I1F I 0.37405(3) 0.61646(5) -2.00959(6)
C1F C 0.4626(4) 0.1052(6) -1.8187(8)
N1F N 0.4347(3) 0.2185(5) -1.8792(7)
C2F C 0.5767(5) -0.0080(7) -1.6159(10)
H1F H 0.5565 -0.0871 -1.6589
C3F C 0.6460(5) -0.0006(8) -1.4860(11)
H2F H 0.6724 -0.0754 -1.4409
C4F C 0.6767(5) 0.1175(10) -1.4222(10)
H3F H 0.7240 0.1243 -1.3366
C5F C 0.6337(4) 0.2228(9) -1.4917(9)
H4F H 0.6520 0.3027 -1.4486
loop_
_geom_bond_atom_site_label_1
_geom_bond_atom_site_label_2
_geom_bond_site_symmetry_1
_geom_bond_site_symmetry_2
Pb1 I1 1_555 1_555
I1 Pb1B 1_555 1_555
N1 Pb1 1_555 1_555
C1 N1 1_555 1_555
C2 H1 1_555 1_555
C3 C2 1_555 1_555
H2 C3 1_555 1_555
C4 C3 1_555 1_555
H3 C4 1_555 1_555
C5 C4 1_555 1_555
H4 C5 1_555 1_555
Pb1B I1D 1_555 1_555
I1B Pb1 1_555 1_555
I1D Pb1 1_555 1_555
I1F Pb1 1_555 1_555
C1F C1 1_555 1_555
N1F Pb1 1_555 1_555
C2F C1 1_555 1_555
H1F C2F 1_555 1_555
C3F C2F 1_555 1_555
H2F C3F 1_555 1_555
C4F C3F 1_555 1_555
H3F C4F 1_555 1_555
C5F N1 1_555 1_555
H4F C5F 1_555 1_555
C2 C1F 1_555 1_555
C5 N1F 1_555 1_555
C1F N1F 1_555 1_555
C4F C5F 1_555 1_555

#END
