
#######################################################################
#
#                 Cambridge Crystallographic Data Centre
#                                CCDC 
#
#######################################################################
#
# If this CIF has been generated from an entry in the Cambridge 
# Structural Database, then it will include bibliographic, chemical, 
# crystal, experimental, refinement or atomic coordinate data resulting 
# from the CCDC's data processing and validation procedures.
#
#######################################################################

data_RAQMOM
_symmetry_cell_setting           monoclinic
_symmetry_space_group_name_H-M   'P 21/n'
_symmetry_Int_Tables_number      14
_space_group_name_Hall           '-P 2yn'
loop_
_symmetry_equiv_pos_site_id
_symmetry_equiv_pos_as_xyz
1 x,y,z
2 1/2-x,1/2+y,1/2-z
3 -x,-y,-z
4 1/2+x,1/2-y,1/2+z
_cell_length_a                   16.8628(4)
_cell_length_b                   7.9593(2)
_cell_length_c                   22.5123(8)
_cell_angle_alpha                90
_cell_angle_beta                 109.4386(9)
_cell_angle_gamma                90
_cell_volume                     2849.28
loop_
_atom_site_label
_atom_site_type_symbol
_atom_site_fract_x
_atom_site_fract_y
_atom_site_fract_z
Cr1 Cr 1.15352(3) 1.29755(7) -0.07385(3)
Mn1 Mn 1.33775(3) 1.79873(6) 0.07207(3)
N1 N 1.25538(18) 1.5928(4) 0.01845(16)
N2 N 1.26773(18) 1.0007(4) 0.00551(16)
N3 N 1.0720(2) 1.0116(4) -0.17620(18)
N4 N 1.2715(2) 1.3810(4) -0.15647(18)
N5 N 1.07157(16) 1.2600(3) -0.02357(16)
N6 N 1.05426(17) 1.4537(3) -0.12125(15)
N7 N 1.42805(17) 1.7622(3) 0.01972(16)
N8 N 1.44974(19) 1.9652(4) 0.11773(16)
N9 N 1.2657(2) 1.8616(4) 0.13295(19)
N10 N 1.1657(3) 1.9387(7) 0.1826(2)
N11 N 1.1708(3) 1.9140(7) 0.2906(2)
C1 C 1.2188(2) 1.4854(5) -0.01232(19)
C2 C 1.2314(2) 1.1108(5) -0.02261(18)
C3 C 1.0991(2) 1.1097(5) -0.1378(2)
C4 C 1.2288(2) 1.3521(4) -0.12738(19)
C5 C 1.0873(2) 1.1777(4) 0.03116(19)
H1 H 1.1416 1.1385 0.0516
C6 C 1.0266(2) 1.1488(4) 0.0584(2)
H2 H 1.0400 1.0933 0.0969
C7 C 0.9458(2) 1.2028(5) 0.0281(2)
H3 H 0.9034 1.1816 0.0450
C8 C 0.9289(2) 1.2897(5) -0.0282(2)
H4 H 0.8748 1.3280 -0.0493
C9 C 0.9923(2) 1.3193(4) -0.05274(19)
C10 C 0.9828(2) 1.4246(4) -0.1083(2)
C11 C 0.9067(2) 1.4967(5) -0.1442(2)
H5 H 0.8572 1.4711 -0.1364
C12 C 0.9062(3) 1.6070(5) -0.1916(2)
H6 H 0.8562 1.6575 -0.2158
C13 C 0.9790(3) 1.6423(5) -0.2031(2)
H7 H 0.9791 1.7187 -0.2343
C14 C 1.0524(3) 1.5629(4) -0.16775(19)
H8 H 1.1018 1.5851 -0.1761
C15 C 1.4125(2) 1.6752(5) -0.0340(2)
H9 H 1.3581 1.6366 -0.0541
C16 C 1.4729(3) 1.6403(4) -0.0607(2)
H10 H 1.4596 1.5797 -0.0980
C17 C 1.5531(3) 1.6966(5) -0.0311(2)
H11 H 1.5956 1.6734 -0.0477
C18 C 1.5699(2) 1.7873(5) 0.0232(2)
H12 H 1.6241 1.8268 0.0436
C19 C 1.5070(2) 1.8205(4) 0.0477(2)
C20 C 1.5191(2) 1.9282(5) 0.1039(2)
C21 C 1.5969(3) 1.9947(6) 0.1392(2)
H13 H 1.6450 1.9660 0.1300
C22 C 1.6018(3) 2.1036(6) 0.1878(3)
H14 H 1.6536 2.1466 0.2124
C23 C 1.5308(4) 2.1480(5) 0.1997(2)
H15 H 1.5325 2.2259 0.2309
C24 C 1.4557(3) 2.0739(5) 0.1640(2)
H16 H 1.4072 2.1015 0.1727
C25 C 1.2227(3) 1.8956(6) 0.1602(2)
C26 C 1.1727(3) 1.9247(7) 0.2410(3)
O1 O 1.40951(15) 1.6045(3) 0.13924(13)
H17 H 1.3798(17) 1.532(4) 0.1566(17)
H18 H 1.4669(11) 1.592(4) 0.1608(16)
Mn1_2 Mn 1.33775(3) 0.79873(6) 0.07207(3)
N2_2 N 1.26773(18) 2.0007(4) 0.00551(16)
O2 O 1.42006(18) 1.3918(5) -0.20355(15)
H19 H 1.3751(18) 1.380(5) -0.1906(16)
H20 H 1.410(2) 1.414(5) -0.2441(10)
loop_
_geom_bond_atom_site_label_1
_geom_bond_atom_site_label_2
_geom_bond_site_symmetry_1
_geom_bond_site_symmetry_2
Cr1 N5 1_555 1_555
Mn1 N1 1_555 1_555
N1 C1 1_555 1_555
N2 C2 1_555 1_555
N3 C3 1_555 1_555
N4 C4 1_555 1_555
N5 C5 1_555 1_555
N6 Cr1 1_555 1_555
N7 Mn1 1_555 1_555
N8 Mn1 1_555 1_555
N9 Mn1 1_555 1_555
N10 C25 1_555 1_555
N11 C26 1_555 1_555
C1 Cr1 1_555 1_555
C2 Cr1 1_555 1_555
C3 Cr1 1_555 1_555
C4 Cr1 1_555 1_555
C5 H1 1_555 1_555
C6 C5 1_555 1_555
H2 C6 1_555 1_555
C7 C6 1_555 1_555
H3 C7 1_555 1_555
C8 C7 1_555 1_555
H4 C8 1_555 1_555
C9 N5 1_555 1_555
C10 N6 1_555 1_555
C11 C10 1_555 1_555
H5 C11 1_555 1_555
C12 C11 1_555 1_555
H6 C12 1_555 1_555
C13 C12 1_555 1_555
H7 C13 1_555 1_555
C14 N6 1_555 1_555
H8 C14 1_555 1_555
C15 N7 1_555 1_555
H9 C15 1_555 1_555
C16 C15 1_555 1_555
H10 C16 1_555 1_555
C17 C16 1_555 1_555
H11 C17 1_555 1_555
C18 C17 1_555 1_555
H12 C18 1_555 1_555
C19 N7 1_555 1_555
C20 N8 1_555 1_555
C21 C20 1_555 1_555
H13 C21 1_555 1_555
C22 C21 1_555 1_555
H14 C22 1_555 1_555
C23 C22 1_555 1_555
H15 C23 1_555 1_555
C24 N8 1_555 1_555
H16 C24 1_555 1_555
C25 N9 1_555 1_555
C26 N10 1_555 1_555
O1 Mn1 1_555 1_555
O2 H19 1_555 1_555
H17 O1 1_555 1_555
H18 O1 1_555 1_555
H20 O2 1_555 1_555
Mn1_2 N2 1_555 1_555
N2_2 Mn1 1_555 1_555
C8 C9 1_555 1_555
C9 C10 1_555 1_555
C13 C14 1_555 1_555
C18 C19 1_555 1_555
C19 C20 1_555 1_555
C23 C24 1_555 1_555

#END
