
#######################################################################
#
#                 Cambridge Crystallographic Data Centre
#                                CCDC 
#
#######################################################################
#
# If this CIF has been generated from an entry in the Cambridge 
# Structural Database, then it will include bibliographic, chemical, 
# crystal, experimental, refinement or atomic coordinate data resulting 
# from the CCDC's data processing and validation procedures.
#
#######################################################################

data_RAQMIH
_symmetry_cell_setting           monoclinic
_symmetry_space_group_name_H-M   'P 21/c'
_symmetry_Int_Tables_number      14
_space_group_name_Hall           '-P 2ybc'
loop_
_symmetry_equiv_pos_site_id
_symmetry_equiv_pos_as_xyz
1 x,y,z
2 -x,1/2+y,1/2-z
3 -x,-y,-z
4 x,1/2-y,1/2+z
_cell_length_a                   12.0402(17)
_cell_length_b                   18.387(3)
_cell_length_c                   29.039(4)
_cell_angle_alpha                90
_cell_angle_beta                 93.662(2)
_cell_angle_gamma                90
_cell_volume                     6415.62
loop_
_atom_site_label
_atom_site_type_symbol
_atom_site_fract_x
_atom_site_fract_y
_atom_site_fract_z
K1 K 0.06555(6) 0.27501(4) 0.22550(2)
K2 K -0.57151(6) 0.26419(4) 0.19939(3)
O1 O -0.01217(16) 0.41016(12) 0.24725(7)
O2 O -0.00268(16) 0.13573(11) 0.24524(7)
O3 O -0.00709(17) 0.27685(11) 0.31025(7)
O4 O -0.00095(17) 0.35422(12) 0.14718(7)
O5 O 0.00615(17) 0.18235(12) 0.14555(7)
O6 O -0.50389(17) 0.26819(11) 0.28952(7)
O7 O -0.49846(16) 0.13017(11) 0.22998(7)
O8 O -0.49254(17) 0.18277(12) 0.12962(7)
O9 O -0.50749(16) 0.40585(11) 0.22746(7)
O10 O -0.50037(16) 0.35262(11) 0.12661(7)
N1 N -0.35128(19) 0.43109(13) 0.12881(8)
N2 N -0.14173(19) 0.10352(13) 0.13635(8)
N3 N -0.14919(19) 0.43254(13) 0.13650(8)
N4 N -0.14001(19) 0.20183(14) 0.09223(8)
N5 N -0.35916(19) 0.21065(13) 0.32976(8)
N6 N -0.15936(19) 0.33472(12) 0.33752(8)
N7 N -0.15840(19) 0.47614(13) 0.21464(8)
N8 N -0.15021(19) 0.10521(13) 0.28770(8)
N9 N -0.14650(19) 0.06406(13) 0.21583(8)
N10 N -0.14542(19) 0.33349(13) 0.09299(8)
N11 N -0.16288(19) 0.44098(13) 0.28744(8)
N12 N -0.34378(19) 0.10401(13) 0.13039(8)
N13 N -0.36063(19) 0.33130(12) 0.32755(8)
N14 N -0.36531(19) 0.43996(13) 0.27957(8)
N15 N -0.34863(19) 0.06298(13) 0.20967(8)
N16 N -0.35288(18) 0.10187(13) 0.28176(8)
N17 N -0.34255(19) 0.20170(14) 0.08565(8)
N18 N -0.15806(19) 0.21415(12) 0.33428(8)
N19 N -0.34777(19) 0.33318(13) 0.08442(8)
N20 N -0.36057(19) 0.47618(13) 0.20703(8)
O15 O 0.2546(2) 0.26877(13) 0.28510(9)
O16 O 0.2169(2) 0.24779(15) 0.15246(9)
C1 C -0.1027(2) 0.43888(15) 0.24976(10)
C2 C -0.4195(2) 0.43663(14) 0.23715(10)
C3 C -0.4087(2) 0.10178(15) 0.23943(10)
C4 C -0.0994(2) 0.27571(15) 0.32570(9)
C5 C -0.1097(2) 0.14290(15) 0.32867(10)
H5 H -0.0288 0.1482 0.3281
H6 H -0.1247 0.1131 0.3556
C6 C -0.3996(2) 0.13777(15) 0.32056(10)
H7 H -0.4807 0.1397 0.3149
H8 H -0.3836 0.1081 0.3482
C7 C -0.1207(2) 0.40797(15) 0.33039(10)
H9 H -0.0392 0.4075 0.3312
H10 H -0.1423 0.4384 0.3560
C8 C -0.2589(2) 0.22955(15) 0.35782(9)
C9 C -0.3991(2) 0.48319(16) 0.15928(10)
H11 H -0.3818 0.5323 0.1488
H12 H -0.4802 0.4777 0.1568
C10 C -0.0834(2) 0.16438(16) 0.12685(10)
C11 C -0.1109(2) 0.48484(16) 0.17089(10)
H13 H -0.0298 0.4811 0.1755
H14 H -0.1284 0.5338 0.1592
C12 C -0.4161(2) 0.27018(15) 0.31301(9)
C13 C -0.1017(2) 0.05307(16) 0.17157(10)
H15 H -0.1199 0.0036 0.1611
H16 H -0.0204 0.0569 0.1753
C14 C -0.0917(2) 0.10528(15) 0.24905(10)
C15 C -0.4085(2) 0.37047(16) 0.11458(10)
C16 C -0.2677(3) 0.54511(16) 0.31598(10)
H17 H -0.2701 0.5244 0.3466
H18 H -0.3333 0.5748 0.3093
H19 H -0.2016 0.5750 0.3146
C17 C -0.4019(2) 0.16465(16) 0.11677(10)
C18 C -0.2486(3) 0.00101(17) 0.31974(11)
H20 H -0.2505 0.0235 0.3499
H21 H -0.1813 -0.0278 0.3185
H22 H -0.3131 -0.0302 0.3143
C19 C -0.4079(2) 0.40271(15) 0.31857(10)
H23 H -0.4888 0.3978 0.3132
H24 H -0.3937 0.4329 0.3461
C20 C -0.2482(2) 0.44072(16) 0.10567(10)
C21 C -0.3885(2) 0.05268(16) 0.16193(10)
H25 H -0.3693 0.0034 0.1524
H26 H -0.4698 0.0566 0.1597
C22 C -0.0899(2) 0.37151(16) 0.12781(10)
C23 C -0.3883(2) 0.26623(16) 0.06354(10)
H27 H -0.4695 0.2649 0.0644
H28 H -0.3705 0.2658 0.0311
C24 C -0.2500(2) 0.05963(15) 0.28298(10)
C25 C -0.2627(2) 0.31574(15) 0.35797(9)
C26 C -0.2414(2) 0.16497(16) 0.07447(10)
C27 C -0.0971(2) 0.26877(16) 0.07451(11)
H29 H -0.1105 0.2691 0.0409
H30 H -0.0164 0.2701 0.0814
C28 C -0.2645(2) 0.48415(15) 0.28060(10)
C29 C -0.2450(2) 0.37074(17) 0.07434(10)
C30 C -0.2473(3) -0.05111(15) 0.22613(11)
H31 H -0.2456 -0.0634 0.1937
H32 H -0.3138 -0.0714 0.2383
H33 H -0.1820 -0.0711 0.2429
C31 C -0.2480(2) 0.03108(15) 0.23158(10)
C32 C -0.2421(2) 0.09420(16) 0.10612(10)
C33 C -0.2607(2) 0.50962(15) 0.22877(10)
C34 C -0.2561(3) 0.19475(17) 0.40504(10)
H34 H -0.2535 0.1423 0.4019
H35 H -0.3224 0.2084 0.4203
H36 H -0.1907 0.2113 0.4233
C35 C -0.2403(3) 0.3845(2) 0.02319(10)
H37 H -0.2380 0.3384 0.0070
H38 H -0.1741 0.4124 0.0177
H39 H -0.3058 0.4115 0.0120
C36 C -0.2390(3) 0.1509(2) 0.02325(10)
H40 H -0.2383 0.1969 0.0069
H41 H -0.3044 0.1234 0.0127
H42 H -0.1726 0.1235 0.0172
C37 C -0.2698(3) 0.35020(17) 0.40506(10)
H43 H -0.2720 0.4027 0.4019
H44 H -0.2051 0.3364 0.4247
H45 H -0.3367 0.3336 0.4187
C38 C -0.2425(3) 0.02277(18) 0.08054(12)
H46 H -0.2433 -0.0170 0.1025
H47 H -0.1763 0.0194 0.0633
H48 H -0.3081 0.0200 0.0594
C39 C -0.2603(3) 0.59118(15) 0.22122(11)
H49 H -0.2578 0.6014 0.1885
H50 H -0.1956 0.6122 0.2378
H51 H -0.3274 0.6121 0.2325
C40 C -0.2474(3) 0.51297(18) 0.08032(12)
H52 H -0.2500 0.5525 0.1024
H53 H -0.3117 0.5158 0.0585
H54 H -0.1800 0.5168 0.0639
K1_2 K 1.06555(6) 0.27501(4) 0.22550(2)
K2_2 K 0.42849(6) 0.26419(4) 0.19939(3)
K2_3 K 1.42849(6) 0.26419(4) 0.19939(3)
O1_2 O 0.98783(16) 0.41016(12) 0.24725(7)
O2_2 O 0.99732(16) 0.13573(11) 0.24524(7)
O3_2 O 0.99291(17) 0.27685(11) 0.31025(7)
O4_2 O 0.99905(17) 0.35422(12) 0.14718(7)
O5_2 O 1.00615(17) 0.18235(12) 0.14555(7)
O6_2 O 0.49611(17) 0.26819(11) 0.28952(7)
O7_2 O 0.50154(16) 0.13017(11) 0.22998(7)
O8_2 O 0.50746(17) 0.18277(12) 0.12962(7)
O9_2 O 0.49251(16) 0.40585(11) 0.22746(7)
O10_2 O 0.49963(16) 0.35262(11) 0.12661(7)
N1_2 N 0.64872(19) 0.43109(13) 0.12881(8)
N2_2 N 0.85827(19) 0.10352(13) 0.13635(8)
N3_2 N 0.85081(19) 0.43254(13) 0.13650(8)
N4_2 N 0.85999(19) 0.20183(14) 0.09223(8)
N5_2 N 0.64084(19) 0.21065(13) 0.32976(8)
N6_2 N 0.84064(19) 0.33472(12) 0.33752(8)
N7_2 N 0.84160(19) 0.47614(13) 0.21464(8)
N8_2 N 0.84979(19) 0.10521(13) 0.28770(8)
N9_2 N 0.85350(19) 0.06406(13) 0.21583(8)
N10_2 N 0.85458(19) 0.33349(13) 0.09299(8)
N11_2 N 0.83712(19) 0.44098(13) 0.28744(8)
N12_2 N 0.65622(19) 0.10401(13) 0.13039(8)
N13_2 N 0.63937(19) 0.33130(12) 0.32755(8)
N14_2 N 0.63469(19) 0.43996(13) 0.27957(8)
N15_2 N 0.65137(19) 0.06298(13) 0.20967(8)
N16_2 N 0.64712(18) 0.10187(13) 0.28176(8)
N17_2 N 0.65745(19) 0.20170(14) 0.08565(8)
N18_2 N 0.84194(19) 0.21415(12) 0.33428(8)
N19_2 N 0.65223(19) 0.33318(13) 0.08442(8)
N20_2 N 0.63943(19) 0.47618(13) 0.20703(8)
O15_2 O -0.7454(2) 0.26877(13) 0.28510(9)
O15_3 O 1.2546(2) 0.26877(13) 0.28510(9)
O16_2 O -0.7831(2) 0.24779(15) 0.15246(9)
O16_3 O 1.2169(2) 0.24779(15) 0.15246(9)
C1_2 C 0.8973(2) 0.43888(15) 0.24976(10)
C2_2 C 0.5805(2) 0.43663(14) 0.23715(10)
C3_2 C 0.5913(2) 0.10178(15) 0.23943(10)
C4_2 C 0.9006(2) 0.27571(15) 0.32570(9)
C5_2 C 0.8903(2) 0.14290(15) 0.32867(10)
H5_2 H 0.9712 0.1482 0.3281
H6_2 H 0.8753 0.1131 0.3556
C6_2 C 0.6004(2) 0.13777(15) 0.32056(10)
H7_2 H 0.5193 0.1397 0.3149
H8_2 H 0.6164 0.1081 0.3482
C7_2 C 0.8793(2) 0.40797(15) 0.33039(10)
H9_2 H 0.9608 0.4075 0.3312
H10_2 H 0.8577 0.4384 0.3560
C8_2 C 0.7411(2) 0.22955(15) 0.35782(9)
C9_2 C 0.6009(2) 0.48319(16) 0.15928(10)
H11_2 H 0.6182 0.5323 0.1488
H12_2 H 0.5198 0.4777 0.1568
C10_2 C 0.9166(2) 0.16438(16) 0.12685(10)
C11_2 C 0.8891(2) 0.48484(16) 0.17089(10)
H13_2 H 0.9702 0.4811 0.1755
H14_2 H 0.8716 0.5338 0.1592
C12_2 C 0.5839(2) 0.27018(15) 0.31301(9)
C13_2 C 0.8983(2) 0.05307(16) 0.17157(10)
H15_2 H 0.8801 0.0036 0.1611
H16_2 H 0.9796 0.0569 0.1753
C14_2 C 0.9083(2) 0.10528(15) 0.24905(10)
C15_2 C 0.5915(2) 0.37047(16) 0.11458(10)
C16_2 C 0.7323(3) 0.54511(16) 0.31598(10)
H17_2 H 0.7299 0.5244 0.3466
H18_2 H 0.6667 0.5748 0.3093
H19_2 H 0.7984 0.5750 0.3146
C17_2 C 0.5981(2) 0.16465(16) 0.11677(10)
C18_2 C 0.7514(3) 0.00101(17) 0.31974(11)
H20_2 H 0.7495 0.0235 0.3499
H21_2 H 0.8187 -0.0278 0.3185
H22_2 H 0.6869 -0.0302 0.3143
C19_2 C 0.5921(2) 0.40271(15) 0.31857(10)
H23_2 H 0.5112 0.3978 0.3132
H24_2 H 0.6063 0.4329 0.3461
C20_2 C 0.7518(2) 0.44072(16) 0.10567(10)
C21_2 C 0.6115(2) 0.05268(16) 0.16193(10)
H25_2 H 0.6307 0.0034 0.1524
H26_2 H 0.5302 0.0566 0.1597
C22_2 C 0.9101(2) 0.37151(16) 0.12781(10)
C23_2 C 0.6117(2) 0.26623(16) 0.06354(10)
H27_2 H 0.5305 0.2649 0.0644
H28_2 H 0.6295 0.2658 0.0311
C24_2 C 0.7500(2) 0.05963(15) 0.28298(10)
C25_2 C 0.7373(2) 0.31574(15) 0.35797(9)
C26_2 C 0.7586(2) 0.16497(16) 0.07447(10)
C27_2 C 0.9029(2) 0.26877(16) 0.07451(11)
H29_2 H 0.8895 0.2691 0.0409
H30_2 H 0.9836 0.2701 0.0814
C28_2 C 0.7355(2) 0.48415(15) 0.28060(10)
C29_2 C 0.7550(2) 0.37074(17) 0.07434(10)
C30_2 C 0.7527(3) -0.05111(15) 0.22613(11)
H31_2 H 0.7544 -0.0634 0.1937
H32_2 H 0.6862 -0.0714 0.2383
H33_2 H 0.8180 -0.0711 0.2429
C31_2 C 0.7520(2) 0.03108(15) 0.23158(10)
C32_2 C 0.7579(2) 0.09420(16) 0.10612(10)
C33_2 C 0.7393(2) 0.50962(15) 0.22877(10)
C34_2 C 0.7439(3) 0.19475(17) 0.40504(10)
H34_2 H 0.7465 0.1423 0.4019
H35_2 H 0.6776 0.2084 0.4203
H36_2 H 0.8093 0.2113 0.4233
C35_2 C 0.7597(3) 0.3845(2) 0.02319(10)
H37_2 H 0.7620 0.3384 0.0070
H38_2 H 0.8259 0.4124 0.0177
H39_2 H 0.6942 0.4115 0.0120
C36_2 C 0.7610(3) 0.1509(2) 0.02325(10)
H40_2 H 0.7617 0.1969 0.0069
H41_2 H 0.6956 0.1234 0.0127
H42_2 H 0.8274 0.1235 0.0172
C37_2 C 0.7302(3) 0.35020(17) 0.40506(10)
H43_2 H 0.7280 0.4027 0.4019
H44_2 H 0.7949 0.3364 0.4247
H45_2 H 0.6633 0.3336 0.4187
C38_2 C 0.7575(3) 0.02277(18) 0.08054(12)
H46_2 H 0.7567 -0.0170 0.1025
H47_2 H 0.8237 0.0194 0.0633
H48_2 H 0.6919 0.0200 0.0594
C39_2 C 0.7397(3) 0.59118(15) 0.22122(11)
H49_2 H 0.7422 0.6014 0.1885
H50_2 H 0.8044 0.6122 0.2378
H51_2 H 0.6726 0.6121 0.2325
C40_2 C 0.7526(3) 0.51297(18) 0.08032(12)
H52_2 H 0.7500 0.5525 0.1024
H53_2 H 0.6883 0.5158 0.0585
H54_2 H 0.8200 0.5168 0.0639
Cl1 Cl 0.54322(9) 0.74707(6) 0.05644(4)
Cl2 Cl 0.95988(9) 0.75094(5) 0.05433(4)
O11 O 0.1103(2) 0.03225(14) 0.08350(8)
H1 H 0.1549 0.0662 0.0808
C41 C 0.0570(3) 0.01724(19) 0.04124(11)
C42 C 0.0466(3) 0.06791(18) 0.00623(11)
H55 H 0.0783 0.1143 0.0105
C43 C 0.0101(3) -0.05060(17) 0.03512(11)
H56 H 0.0167 -0.0851 0.0590
O11B O -0.1103(2) -0.03225(14) -0.08350(8)
H1B H -0.1549 -0.0662 -0.0808
C41B C -0.0570(3) -0.01724(19) -0.04124(11)
C42B C -0.0466(3) -0.06791(18) -0.00623(11)
H55B H -0.0783 -0.1143 -0.0105
C43B C -0.0101(3) 0.05060(17) -0.03512(11)
H56B H -0.0167 0.0851 -0.0590
O12 O 0.0195(2) 0.59096(15) 0.07518(9)
H2 H -0.0119 0.6304 0.0695
C44 C 0.0577(3) 0.4795(2) 0.04040(11)
H57 H 0.0968 0.4654 0.0680
C45 C -0.0486(3) 0.56815(19) -0.00335(11)
H58 H -0.0820 0.6143 -0.0057
C46 C 0.0096(3) 0.54758(19) 0.03685(11)
O12B O -0.0195(2) 0.40904(15) -0.07518(9)
H2B H 0.0119 0.3696 -0.0695
C44B C -0.0577(3) 0.5205(2) -0.04040(11)
H57B H -0.0968 0.5346 -0.0680
C45B C 0.0486(3) 0.43185(19) 0.00335(11)
H58B H 0.0820 0.3857 0.0057
C46B C -0.0096(3) 0.45242(19) -0.03685(11)
O13 O 0.4771(2) 0.59131(14) 0.07402(9)
H3 H 0.4417 0.5697 0.0935
C47 C 0.4447(3) 0.47768(19) 0.03752(12)
H59 H 0.4068 0.4623 0.0631
C48 C 0.4878(3) 0.54719(19) 0.03671(11)
C49 C 0.5434(3) 0.56965(19) -0.00117(12)
H60 H 0.5730 0.6169 -0.0021
O13B O 0.5229(2) 0.40869(14) -0.07402(9)
H3B H 0.5583 0.4303 -0.0935
C47B C 0.5553(3) 0.52232(19) -0.03752(12)
H59B H 0.5932 0.5377 -0.0631
C48B C 0.5122(3) 0.45281(19) -0.03671(11)
C49B C 0.4566(3) 0.43035(19) 0.00117(12)
H60B H 0.4270 0.3831 0.0021
O14 O 0.4039(2) 0.02459(14) 0.08232(9)
H4 H 0.3795 0.0667 0.0835
C50 C 0.4504(3) 0.01411(19) 0.04081(11)
C51 C 0.4553(3) 0.06763(18) 0.00787(12)
H61 H 0.4250 0.1138 0.0131
C52 C 0.4955(3) -0.05367(19) 0.03308(12)
H62 H 0.4926 -0.0903 0.0556
O14B O 0.5961(2) -0.02459(14) -0.08232(9)
H4B H 0.6205 -0.0667 -0.0835
C50B C 0.5496(3) -0.01411(19) -0.04081(11)
C51B C 0.5447(3) -0.06763(18) -0.00787(12)
H61B H 0.5750 -0.1138 -0.0131
C52B C 0.5045(3) 0.05367(19) -0.03308(12)
H62B H 0.5074 0.0903 -0.0556
O17 O -0.2528(7) 0.2703(3) 0.2100(2)
O18 O 0.2344(3) 0.19176(15) 0.37617(10)
O19 O 0.6307(2) 0.86321(15) 0.13226(10)
O20 O 0.7402(2) 0.75150(16) -0.00964(10)
O21 O 0.2782(2) 0.34574(17) 0.08764(10)
O22 O 0.7370(2) 0.85454(13) -0.07974(8)
O23 O 0.13661(19) 0.36211(13) 0.37141(9)
loop_
_geom_bond_atom_site_label_1
_geom_bond_atom_site_label_2
_geom_bond_site_symmetry_1
_geom_bond_site_symmetry_2
K1 O1 1_555 1_555
K2 O6 1_555 1_555
O1 C1 1_555 1_555
O2 K1 1_555 1_555
O3 K1 1_555 1_555
O4 K1 1_555 1_555
O5 K1 1_555 1_555
O6 C12 1_555 1_555
O7 K2 1_555 1_555
O8 K2 1_555 1_555
O9 K2 1_555 1_555
O10 K2 1_555 1_555
O11 H1 1_555 1_555
O12 H2 1_555 1_555
O13 H3 1_555 1_555
O14 H4 1_555 1_555
N1 C9 1_555 1_555
N2 C10 1_555 1_555
N3 C11 1_555 1_555
N4 C10 1_555 1_555
N5 C6 1_555 1_555
N6 C4 1_555 1_555
N7 C1 1_555 1_555
N8 C5 1_555 1_555
N9 C13 1_555 1_555
N10 C22 1_555 1_555
N11 C1 1_555 1_555
N12 C17 1_555 1_555
N13 C12 1_555 1_555
N14 C2 1_555 1_555
N15 C3 1_555 1_555
N16 C3 1_555 1_555
N17 C17 1_555 1_555
N18 C4 1_555 1_555
N19 C15 1_555 1_555
N20 C2 1_555 1_555
O15 K1 1_555 1_555
O16 K1 1_555 1_555
C2 O9 1_555 1_555
C3 O7 1_555 1_555
C4 O3 1_555 1_555
C5 N18 1_555 1_555
H5 C5 1_555 1_555
H6 C5 1_555 1_555
C6 N16 1_555 1_555
H7 C6 1_555 1_555
H8 C6 1_555 1_555
C7 N6 1_555 1_555
H9 C7 1_555 1_555
H10 C7 1_555 1_555
C8 N5 1_555 1_555
C9 N20 1_555 1_555
H11 C9 1_555 1_555
H12 C9 1_555 1_555
C10 O5 1_555 1_555
C11 N7 1_555 1_555
H13 C11 1_555 1_555
H14 C11 1_555 1_555
C12 N5 1_555 1_555
C13 N2 1_555 1_555
H15 C13 1_555 1_555
H16 C13 1_555 1_555
C14 O2 1_555 1_555
C15 O10 1_555 1_555
C16 H17 1_555 1_555
H18 C16 1_555 1_555
H19 C16 1_555 1_555
C17 O8 1_555 1_555
C18 H20 1_555 1_555
H21 C18 1_555 1_555
H22 C18 1_555 1_555
C19 N13 1_555 1_555
H23 C19 1_555 1_555
H24 C19 1_555 1_555
C20 N1 1_555 1_555
C21 N12 1_555 1_555
H25 C21 1_555 1_555
H26 C21 1_555 1_555
C22 O4 1_555 1_555
C23 N17 1_555 1_555
H27 C23 1_555 1_555
H28 C23 1_555 1_555
C24 N8 1_555 1_555
C25 N6 1_555 1_555
C26 N4 1_555 1_555
C27 N4 1_555 1_555
H29 C27 1_555 1_555
H30 C27 1_555 1_555
C28 N11 1_555 1_555
C29 N10 1_555 1_555
C30 H31 1_555 1_555
H32 C30 1_555 1_555
H33 C30 1_555 1_555
C31 N9 1_555 1_555
C32 N2 1_555 1_555
C33 N7 1_555 1_555
C34 C8 1_555 1_555
H34 C34 1_555 1_555
H35 C34 1_555 1_555
H36 C34 1_555 1_555
C35 C29 1_555 1_555
H37 C35 1_555 1_555
H38 C35 1_555 1_555
H39 C35 1_555 1_555
C36 C26 1_555 1_555
H40 C36 1_555 1_555
H41 C36 1_555 1_555
H42 C36 1_555 1_555
C37 C25 1_555 1_555
H43 C37 1_555 1_555
H44 C37 1_555 1_555
H45 C37 1_555 1_555
C38 C32 1_555 1_555
H46 C38 1_555 1_555
H47 C38 1_555 1_555
H48 C38 1_555 1_555
C39 C33 1_555 1_555
H49 C39 1_555 1_555
H50 C39 1_555 1_555
H51 C39 1_555 1_555
C40 C20 1_555 1_555
H52 C40 1_555 1_555
H53 C40 1_555 1_555
H54 C40 1_555 1_555
C41 O11 1_555 1_555
C42 C41 1_555 1_555
H55 C42 1_555 1_555
C43 C41 1_555 1_555
H56 C43 1_555 1_555
C44 H57 1_555 1_555
C45 H58 1_555 1_555
C46 O12 1_555 1_555
C47 H59 1_555 1_555
C48 O13 1_555 1_555
C49 C48 1_555 1_555
H60 C49 1_555 1_555
C50 O14 1_555 1_555
C51 C50 1_555 1_555
H61 C51 1_555 1_555
C52 C50 1_555 1_555
H62 C52 1_555 1_555
K1_2 O1_2 1_555 1_555
K2_2 O15 1_555 1_555
K2_3 O15_3 1_555 1_555
O1_2 C1_2 1_555 1_555
O2_2 K1_2 1_555 1_555
O3_2 K1_2 1_555 1_555
O4_2 K1_2 1_555 1_555
O5_2 K1_2 1_555 1_555
O6_2 K2_2 1_555 1_555
O7_2 K2_2 1_555 1_555
O8_2 K2_2 1_555 1_555
O9_2 K2_2 1_555 1_555
O10_2 K2_2 1_555 1_555
O11B H1B 1_555 1_555
O12B H2B 1_555 1_555
O13B H3B 1_555 1_555
O14B H4B 1_555 1_555
N1_2 C9_2 1_555 1_555
N2_2 C10_2 1_555 1_555
N3_2 C11_2 1_555 1_555
N4_2 C10_2 1_555 1_555
N5_2 C6_2 1_555 1_555
N6_2 C4_2 1_555 1_555
N7_2 C1_2 1_555 1_555
N8_2 C5_2 1_555 1_555
N9_2 C13_2 1_555 1_555
N10_2 C22_2 1_555 1_555
N11_2 C1_2 1_555 1_555
N12_2 C17_2 1_555 1_555
N13_2 C12_2 1_555 1_555
N14_2 C2_2 1_555 1_555
N15_2 C3_2 1_555 1_555
N16_2 C3_2 1_555 1_555
N17_2 C17_2 1_555 1_555
N18_2 C4_2 1_555 1_555
N19_2 C15_2 1_555 1_555
N20_2 C2_2 1_555 1_555
O15_2 K2 1_555 1_555
O15_3 K1_2 1_555 1_555
O16_2 K2 1_555 1_555
O16_3 K1_2 1_555 1_555
C2_2 O9_2 1_555 1_555
C3_2 O7_2 1_555 1_555
C4_2 O3_2 1_555 1_555
C5_2 N18_2 1_555 1_555
H5_2 C5_2 1_555 1_555
H6_2 C5_2 1_555 1_555
C6_2 N16_2 1_555 1_555
H7_2 C6_2 1_555 1_555
H8_2 C6_2 1_555 1_555
C7_2 N6_2 1_555 1_555
H9_2 C7_2 1_555 1_555
H10_2 C7_2 1_555 1_555
C8_2 N5_2 1_555 1_555
C9_2 N20_2 1_555 1_555
H11_2 C9_2 1_555 1_555
H12_2 C9_2 1_555 1_555
C10_2 O5_2 1_555 1_555
C11_2 N7_2 1_555 1_555
H13_2 C11_2 1_555 1_555
H14_2 C11_2 1_555 1_555
C12_2 O6_2 1_555 1_555
C13_2 N2_2 1_555 1_555
H15_2 C13_2 1_555 1_555
H16_2 C13_2 1_555 1_555
C14_2 O2_2 1_555 1_555
C15_2 O10_2 1_555 1_555
C16_2 H17_2 1_555 1_555
H18_2 C16_2 1_555 1_555
H19_2 C16_2 1_555 1_555
C17_2 O8_2 1_555 1_555
C18_2 H20_2 1_555 1_555
H21_2 C18_2 1_555 1_555
H22_2 C18_2 1_555 1_555
C19_2 N13_2 1_555 1_555
H23_2 C19_2 1_555 1_555
H24_2 C19_2 1_555 1_555
C20_2 N1_2 1_555 1_555
C21_2 N12_2 1_555 1_555
H25_2 C21_2 1_555 1_555
H26_2 C21_2 1_555 1_555
C22_2 O4_2 1_555 1_555
C23_2 N17_2 1_555 1_555
H27_2 C23_2 1_555 1_555
H28_2 C23_2 1_555 1_555
C24_2 N8_2 1_555 1_555
C25_2 N6_2 1_555 1_555
C26_2 N4_2 1_555 1_555
C27_2 N4_2 1_555 1_555
H29_2 C27_2 1_555 1_555
H30_2 C27_2 1_555 1_555
C28_2 N11_2 1_555 1_555
C29_2 N10_2 1_555 1_555
C30_2 H31_2 1_555 1_555
H32_2 C30_2 1_555 1_555
H33_2 C30_2 1_555 1_555
C31_2 N9_2 1_555 1_555
C32_2 N2_2 1_555 1_555
C33_2 N7_2 1_555 1_555
C34_2 C8_2 1_555 1_555
H34_2 C34_2 1_555 1_555
H35_2 C34_2 1_555 1_555
H36_2 C34_2 1_555 1_555
C35_2 C29_2 1_555 1_555
H37_2 C35_2 1_555 1_555
H38_2 C35_2 1_555 1_555
H39_2 C35_2 1_555 1_555
C36_2 C26_2 1_555 1_555
H40_2 C36_2 1_555 1_555
H41_2 C36_2 1_555 1_555
H42_2 C36_2 1_555 1_555
C37_2 C25_2 1_555 1_555
H43_2 C37_2 1_555 1_555
H44_2 C37_2 1_555 1_555
H45_2 C37_2 1_555 1_555
C38_2 C32_2 1_555 1_555
H46_2 C38_2 1_555 1_555
H47_2 C38_2 1_555 1_555
H48_2 C38_2 1_555 1_555
C39_2 C33_2 1_555 1_555
H49_2 C39_2 1_555 1_555
H50_2 C39_2 1_555 1_555
H51_2 C39_2 1_555 1_555
C40_2 C20_2 1_555 1_555
H52_2 C40_2 1_555 1_555
H53_2 C40_2 1_555 1_555
H54_2 C40_2 1_555 1_555
C41B O11B 1_555 1_555
C42B C43 1_555 1_555
H55B C42B 1_555 1_555
C43B C42 1_555 1_555
H56B C43B 1_555 1_555
C44B C45 1_555 1_555
H57B C44B 1_555 1_555
C45B C44 1_555 1_555
H58B C45B 1_555 1_555
C46B O12B 1_555 1_555
C47B C49 1_555 1_555
H59B C47B 1_555 1_555
C48B O13B 1_555 1_555
C49B C47 1_555 1_555
H60B C49B 1_555 1_555
C50B O14B 1_555 1_555
C51B C52 1_555 1_555
H61B C51B 1_555 1_555
C52B C51 1_555 1_555
H62B C52B 1_555 1_555
N1 C15 1_555 1_555
N3 C20 1_555 1_555
N3 C22 1_555 1_555
N8 C14 1_555 1_555
N9 C14 1_555 1_555
N10 C27 1_555 1_555
N11 C7 1_555 1_555
N12 C32 1_555 1_555
N13 C25 1_555 1_555
N14 C19 1_555 1_555
N14 C28 1_555 1_555
N15 C21 1_555 1_555
N15 C31 1_555 1_555
N16 C24 1_555 1_555
N17 C26 1_555 1_555
N18 C8 1_555 1_555
N19 C23 1_555 1_555
N19 C29 1_555 1_555
N20 C33 1_555 1_555
O16 K2_2 1_555 1_555
C8 C25 1_555 1_555
C16 C28 1_555 1_555
C18 C24 1_555 1_555
C20 C29 1_555 1_555
C24 C31 1_555 1_555
C26 C32 1_555 1_555
C28 C33 1_555 1_555
C30 C31 1_555 1_555
C44 C46 1_555 1_555
C45 C46 1_555 1_555
C47 C48 1_555 1_555
K2_3 O16_3 1_555 1_555
N1_2 C15_2 1_555 1_555
N3_2 C20_2 1_555 1_555
N3_2 C22_2 1_555 1_555
N5_2 C12_2 1_555 1_555
N8_2 C14_2 1_555 1_555
N9_2 C14_2 1_555 1_555
N10_2 C27_2 1_555 1_555
N11_2 C7_2 1_555 1_555
N12_2 C32_2 1_555 1_555
N13_2 C25_2 1_555 1_555
N14_2 C19_2 1_555 1_555
N14_2 C28_2 1_555 1_555
N15_2 C21_2 1_555 1_555
N15_2 C31_2 1_555 1_555
N16_2 C24_2 1_555 1_555
N17_2 C26_2 1_555 1_555
N18_2 C8_2 1_555 1_555
N19_2 C23_2 1_555 1_555
N19_2 C29_2 1_555 1_555
N20_2 C33_2 1_555 1_555
C8_2 C25_2 1_555 1_555
C16_2 C28_2 1_555 1_555
C18_2 C24_2 1_555 1_555
C20_2 C29_2 1_555 1_555
C24_2 C31_2 1_555 1_555
C26_2 C32_2 1_555 1_555
C28_2 C33_2 1_555 1_555
C30_2 C31_2 1_555 1_555
C41B C42B 1_555 1_555
C41B C43B 1_555 1_555
C44B C46B 1_555 1_555
C45B C46B 1_555 1_555
C47B C48B 1_555 1_555
C48B C49B 1_555 1_555
C50B C51B 1_555 1_555
C50B C52B 1_555 1_555

#END
