
#######################################################################
#
#                 Cambridge Crystallographic Data Centre
#                                CCDC 
#
#######################################################################
#
# If this CIF has been generated from an entry in the Cambridge 
# Structural Database, then it will include bibliographic, chemical, 
# crystal, experimental, refinement or atomic coordinate data resulting 
# from the CCDC's data processing and validation procedures.
#
#######################################################################

data_RAQNUS
_symmetry_cell_setting           monoclinic
_symmetry_space_group_name_H-M   'C 2/c'
_symmetry_Int_Tables_number      15
_space_group_name_Hall           '-C 2yn'
loop_
_symmetry_equiv_pos_site_id
_symmetry_equiv_pos_as_xyz
1 x,y,z
2 -x,y,1/2-z
3 1/2+x,1/2+y,z
4 1/2-x,1/2+y,1/2-z
5 -x,-y,-z
6 x,-y,1/2+z
7 1/2-x,1/2-y,-z
8 1/2+x,1/2-y,1/2+z
_cell_length_a                   28.835(5)
_cell_length_b                   10.868(7)
_cell_length_c                   7.665(2)
_cell_angle_alpha                90
_cell_angle_beta                 94.21(2)
_cell_angle_gamma                90
_cell_volume                     2395.57
loop_
_atom_site_label
_atom_site_type_symbol
_atom_site_fract_x
_atom_site_fract_y
_atom_site_fract_z
Pb1 Pb 1.0000 0.08292(3) 0.2500
N1 N 0.9314(2) 0.2579(6) 0.4178(7)
C1 C 0.9568(3) 0.3436(7) 0.506(1)
C2 C 0.9387(3) 0.4455(7) 0.581(1)
C3 C 0.8909(3) 0.4591(7) 0.5643(9)
C4 C 0.8634(2) 0.3740(6) 0.4776(9)
C5 C 0.8848(2) 0.2718(6) 0.4054(8)
N2 N 0.8622(2) 0.1757(5) 0.3165(7)
N3 N 0.7843(2) 0.2434(6) 0.3065(7)
C6 C 0.7403(2) 0.2224(7) 0.247(1)
C7 C 0.7255(2) 0.1254(7) 0.144(1)
C8 C 0.7586(3) 0.0438(7) 0.0985(9)
C9 C 0.8038(2) 0.0616(6) 0.1546(9)
C10 C 0.8159(2) 0.1626(6) 0.2596(8)
O1 O 0.9731(2) -0.0968(4) 0.4107(5)
O2 O 0.9204(2) -0.0235(5) 0.2160(6)
C11 C 0.9327(2) -0.1008(6) 0.3356(8)
C12 C 0.8995(2) -0.1977(7) 0.387(1)
H1 H 0.9905 0.3336 0.5159
H2 H 0.9583 0.5059 0.6428
H3 H 0.8766 0.5308 0.6151
H4 H 0.8296 0.3831 0.4665
H5 H 0.8914 0.0888 0.2873
H6 H 0.7170 0.2801 0.2804
H7 H 0.6929 0.1162 0.1047
H8 H 0.7500 -0.0272 0.0251
H9 H 0.8277 0.0042 0.1214
H10 H 0.8699 -0.1750 0.3303
H11 H 0.8973 -0.2007 0.5098
H12 H 0.9079 -0.2777 0.3471
N1A N 1.0686(2) 0.2579(6) 0.0822(7)
C1A C 1.0432(3) 0.3436(7) -0.006(1)
C2A C 1.0613(3) 0.4455(7) -0.081(1)
C3A C 1.1091(3) 0.4591(7) -0.0643(9)
C4A C 1.1366(2) 0.3740(6) 0.0224(9)
C5A C 1.1152(2) 0.2718(6) 0.0946(8)
N2A N 1.1378(2) 0.1757(5) 0.1835(7)
C10A C 1.1841(2) 0.1626(6) 0.2404(8)
N3A N 1.2157(2) 0.2434(6) 0.1935(7)
C6A C 1.2597(2) 0.2224(7) 0.253(1)
C7A C 1.2745(2) 0.1254(7) 0.356(1)
C8A C 1.2414(3) 0.0438(7) 0.4015(9)
C9A C 1.1962(2) 0.0616(6) 0.3454(9)
H9A H 1.1723 0.0042 0.3786
H8A H 1.2500 -0.0272 0.4749
H7A H 1.3071 0.1162 0.3953
H6A H 1.2830 0.2801 0.2196
H5A H 1.1086 0.0888 0.2127
H4A H 1.1704 0.3831 0.0335
H3A H 1.1234 0.5308 -0.1151
H2A H 1.0417 0.5059 -0.1428
H1A H 1.0095 0.3336 -0.0159
Pb1D Pb 1.0000 -0.08292(3) 0.7500
O1D O 1.0269(2) 0.0968(4) 0.5893(5)
O1A O 1.0269(2) -0.0968(4) 0.0893(5)
Pb1E Pb 1.0000 -0.08292(3) -0.2500
O1E O 0.9731(2) 0.0968(4) -0.0893(5)
O2A O 1.0796(2) -0.0235(5) 0.2840(6)
C11A C 1.0673(2) -0.1008(6) 0.1644(8)
C12A C 1.1005(2) -0.1977(7) 0.113(1)
H10A H 1.1301 -0.1750 0.1697
H11A H 1.1027 -0.2007 -0.0098
H12A H 1.0921 -0.2777 0.1529
loop_
_geom_bond_atom_site_label_1
_geom_bond_atom_site_label_2
_geom_bond_site_symmetry_1
_geom_bond_site_symmetry_2
Pb1 N1 1_555 1_555
N1 C1 1_555 1_555
C1 C2 1_555 1_555
C2 C3 1_555 1_555
C3 C4 1_555 1_555
C4 C5 1_555 1_555
C5 N1 1_555 1_555
N2 C5 1_555 1_555
N3 C6 1_555 1_555
C6 C7 1_555 1_555
C7 C8 1_555 1_555
C8 C9 1_555 1_555
C9 C10 1_555 1_555
C10 N2 1_555 1_555
O1 Pb1 1_555 1_555
O2 Pb1 1_555 1_555
C11 O1 1_555 1_555
C12 C11 1_555 1_555
H1 C1 1_555 1_555
H2 C2 1_555 1_555
H3 C3 1_555 1_555
H4 C4 1_555 1_555
H5 N2 1_555 1_555
H6 C6 1_555 1_555
H7 C7 1_555 1_555
H8 C8 1_555 1_555
H9 C9 1_555 1_555
H10 C12 1_555 1_555
H11 C12 1_555 1_555
H12 C12 1_555 1_555
N1A Pb1 1_555 1_555
C1A N1A 1_555 1_555
C2A C1A 1_555 1_555
C3A C2A 1_555 1_555
C4A C3A 1_555 1_555
C5A N1A 1_555 1_555
N2A C5A 1_555 1_555
C10A N2A 1_555 1_555
N3A C10A 1_555 1_555
C6A N3A 1_555 1_555
C7A C6A 1_555 1_555
C8A C7A 1_555 1_555
C9A C10A 1_555 1_555
H9A C9A 1_555 1_555
H8A C8A 1_555 1_555
H7A C7A 1_555 1_555
H6A C6A 1_555 1_555
H5A N2A 1_555 1_555
H4A C4A 1_555 1_555
H3A C3A 1_555 1_555
H2A C2A 1_555 1_555
H1A C1A 1_555 1_555
Pb1D O1 1_555 1_555
O1D Pb1 1_555 1_555
O1A Pb1 1_555 1_555
Pb1E O1A 1_555 1_555
O1E Pb1 1_555 1_555
O2A Pb1 1_555 1_555
C11A O1A 1_555 1_555
C12A C11A 1_555 1_555
H10A C12A 1_555 1_555
H11A C12A 1_555 1_555
H12A C12A 1_555 1_555
N3 C10 1_555 1_555
O2 C11 1_555 1_555
C4A C5A 1_555 1_555
C8A C9A 1_555 1_555
Pb1D O1D 1_555 1_555
Pb1E O1E 1_555 1_555
O2A C11A 1_555 1_555

#END
