
#######################################################################
#
#                 Cambridge Crystallographic Data Centre
#                                CCDC 
#
#######################################################################
#
# If this CIF has been generated from an entry in the Cambridge 
# Structural Database, then it will include bibliographic, chemical, 
# crystal, experimental, refinement or atomic coordinate data resulting 
# from the CCDC's data processing and validation procedures.
#
#######################################################################

data_RAQPOO
_symmetry_cell_setting           monoclinic
_symmetry_space_group_name_H-M   'C 2/c'
_symmetry_Int_Tables_number      15
_space_group_name_Hall           '-C 2yn'
loop_
_symmetry_equiv_pos_site_id
_symmetry_equiv_pos_as_xyz
1 x,y,z
2 -x,y,1/2-z
3 1/2+x,1/2+y,z
4 1/2-x,1/2+y,1/2-z
5 -x,-y,-z
6 x,-y,1/2+z
7 1/2-x,1/2-y,-z
8 1/2+x,1/2-y,1/2+z
_cell_length_a                   10.789(5)
_cell_length_b                   16.296(3)
_cell_length_c                   13.770(5)
_cell_angle_alpha                90
_cell_angle_beta                 129.92(4)
_cell_angle_gamma                90
_cell_volume                     1856.77
loop_
_atom_site_label
_atom_site_type_symbol
_atom_site_fract_x
_atom_site_fract_y
_atom_site_fract_z
Pb1 Pb 0.0000 0.33662(1) 0.2500
N1 N 0.0000 0.4897(3) 0.2500
C1 C -0.0744(6) 0.5320(3) 0.2833(5)
C2 C -0.0774(7) 0.6165(3) 0.2828(6)
C3 C 0.0000 0.6591(5) 0.2500
N2 N -0.1296(5) 0.4021(3) 0.3296(4)
C4 C -0.1522(5) 0.4831(3) 0.3224(5)
C5 C -0.2418(8) 0.5168(4) 0.3542(6)
C6 C -0.3056(8) 0.4663(5) 0.3902(6)
C7 C -0.2828(7) 0.3839(5) 0.3978(6)
C8 C -0.1937(7) 0.3540(4) 0.3671(6)
Cl1 Cl -0.0836(2) 0.16414(9) 0.0018(1)
O1 O 0.0095(7) 0.1836(4) 0.1301(5)
O2 O -0.2261(5) 0.1218(3) -0.0423(4)
O3 O -0.1311(9) 0.2329(5) -0.0729(7)
O4 O 0.005(1) 0.1144(8) -0.0122(9)
H1 H -0.1340 0.6447 0.3064
H2 H 0.0000 0.7190 0.2500
H3 H -0.2590 0.5762 0.3496
H4 H -0.3696 0.4886 0.4106
H5 H -0.3274 0.3485 0.4249
H6 H -0.1752 0.2944 0.3728
Pb1F Pb -0.5000 0.16338(1) -0.2500
C1A C 0.0744(6) 0.5320(3) 0.2167(5)
C2A C 0.0774(7) 0.6165(3) 0.2172(6)
N2A N 0.1296(5) 0.4021(3) 0.1704(4)
C4A C 0.1522(5) 0.4831(3) 0.1776(5)
C5A C 0.2418(8) 0.5168(4) 0.1458(6)
C6A C 0.3056(8) 0.4663(5) 0.1098(6)
C7A C 0.2828(7) 0.3839(5) 0.1022(6)
C8A C 0.1937(7) 0.3540(4) 0.1329(6)
Cl1F Cl -0.4164(2) 0.33586(9) -0.0018(1)
O1A O -0.0095(7) 0.1836(4) 0.3699(5)
O1F O -0.5095(7) 0.3164(4) -0.1301(5)
O2F O -0.2739(5) 0.3782(3) 0.0423(4)
O2G O 0.2739(5) 0.3782(3) 0.4577(4)
O3F O -0.3689(9) 0.2671(5) 0.0729(7)
O4F O -0.505(1) 0.3856(8) 0.0122(9)
H1A H 0.1340 0.6447 0.1936
H3A H 0.2590 0.5762 0.1504
H4A H 0.3696 0.4886 0.0894
H5A H 0.3274 0.3485 0.0751
H6A H 0.1752 0.2944 0.1272
loop_
_geom_bond_atom_site_label_1
_geom_bond_atom_site_label_2
_geom_bond_site_symmetry_1
_geom_bond_site_symmetry_2
Pb1 N1 1_555 1_555
N1 C1 1_555 1_555
C1 C2 1_555 1_555
C2 C3 1_555 1_555
C3 H2 1_555 1_555
N2 Pb1 1_555 1_555
C4 C1 1_555 1_555
C5 C4 1_555 1_555
C6 C5 1_555 1_555
C7 C6 1_555 1_555
C8 N2 1_555 1_555
Cl1 O1 1_555 1_555
O1 Pb1 1_555 1_555
O2 Cl1 1_555 1_555
O3 Cl1 1_555 1_555
O4 Cl1 1_555 1_555
H1 C2 1_555 1_555
H3 C5 1_555 1_555
H4 C6 1_555 1_555
H5 C7 1_555 1_555
H6 C8 1_555 1_555
Pb1F O2 1_555 1_555
C1A N1 1_555 1_555
C2A C3 1_555 1_555
N2A Pb1 1_555 1_555
C4A C1A 1_555 1_555
C5A C4A 1_555 1_555
C6A C5A 1_555 1_555
C7A C6A 1_555 1_555
C8A N2A 1_555 1_555
Cl1F O1F 1_555 1_555
O1A Pb1 1_555 1_555
O1F Pb1F 1_555 1_555
O2F Pb1 1_555 1_555
O2G Pb1 1_555 1_555
O3F Cl1F 1_555 1_555
O4F Cl1F 1_555 1_555
H1A C2A 1_555 1_555
H3A C5A 1_555 1_555
H4A C6A 1_555 1_555
H5A C7A 1_555 1_555
H6A C8A 1_555 1_555
N2 C4 1_555 1_555
C7 C8 1_555 1_555
C1A C2A 1_555 1_555
N2A C4A 1_555 1_555
C7A C8A 1_555 1_555
Cl1F O2F 1_555 1_555

#END
