
#######################################################################
#
#                 Cambridge Crystallographic Data Centre
#                                CCDC 
#
#######################################################################
#
# If this CIF has been generated from an entry in the Cambridge 
# Structural Database, then it will include bibliographic, chemical, 
# crystal, experimental, refinement or atomic coordinate data resulting 
# from the CCDC's data processing and validation procedures.
#
#######################################################################

data_RAQPOO01
_symmetry_cell_setting           monoclinic
_symmetry_space_group_name_H-M   'C 2/c'
_symmetry_Int_Tables_number      15
_space_group_name_Hall           '-C 2yn'
loop_
_symmetry_equiv_pos_site_id
_symmetry_equiv_pos_as_xyz
1 x,y,z
2 1/2+x,1/2+y,z
3 -x,y,1/2-z
4 1/2-x,1/2+y,1/2-z
5 -x,-y,-z
6 1/2-x,1/2-y,-z
7 x,-y,1/2+z
8 1/2+x,1/2-y,1/2+z
_cell_length_a                   25.440(4)
_cell_length_b                   16.333(3)
_cell_length_c                   21.916(4)
_cell_angle_alpha                90
_cell_angle_beta                 98.671(2)
_cell_angle_gamma                90
_cell_volume                     9002.27
loop_
_atom_site_label
_atom_site_type_symbol
_atom_site_fract_x
_atom_site_fract_y
_atom_site_fract_z
Pb1 Pb 0.29584(2) 0.58101(3) 0.14318(2)
Pb2 Pb 0.10584(2) 0.41745(3) 0.05993(2)
Pb3 Pb 0.50000 0.41658(5) 0.25000
Cl1 Cl 0.36484(14) 0.4067(2) 0.26047(12)
Cl2 Cl 0.23748(13) 0.4117(3) 0.03496(12)
Cl3 Cl 0.16410(13) 0.5837(3) 0.16825(11)
Cl4 Cl 0.43245(12) 0.5844(2) 0.13279(11)
Cl5 Cl -0.03225(12) 0.4109(2) 0.06172(11)
O1 O 0.4021(4) 0.3798(7) 0.2208(4)
O2 O 0.3876(4) 0.4700(7) 0.2983(5)
O3 O 0.3162(4) 0.4330(7) 0.2227(4)
O4 O 0.3533(5) 0.3375(8) 0.2960(5)
O5 O 0.2041(4) 0.3644(6) 0.0685(4)
O6 O 0.2881(4) 0.4250(7) 0.0713(4)
O7 O 0.2113(4) 0.4887(8) 0.0218(5)
O8 O 0.2434(5) 0.3708(10) -0.0191(5)
O9 O 0.1980(4) 0.6303(7) 0.1360(4)
O10 O 0.1597(5) 0.6207(10) 0.2234(5)
O11 O 0.1867(4) 0.5058(8) 0.1775(6)
O12 O 0.1125(4) 0.5753(7) 0.1328(4)
O13 O 0.3941(4) 0.6119(7) 0.1706(4)
O14 O 0.4106(5) 0.5172(8) 0.0973(6)
O15 O 0.4404(5) 0.6522(8) 0.0951(5)
O16 O 0.4804(4) 0.5653(7) 0.1720(4)
O17 O -0.0441(4) 0.3410(6) 0.0940(4)
O18 O -0.0116(4) 0.4752(6) 0.1035(4)
O19 O 0.0074(3) 0.3918(6) 0.0233(3)
O20 O 0.0793(3) 0.5617(6) -0.0218(4)
N1 N 0.3101(4) 0.6465(7) 0.0433(4)
N2 N 0.2996(5) 0.7336(5) 0.1448(5)
N3 N 0.2904(5) 0.6446(8) 0.2461(4)
N4 N 0.0867(4) 0.3526(7) 0.1596(4)
N5 N 0.1002(4) 0.2645(7) 0.0590(4)
N6 N 0.1118(4) 0.3524(7) -0.0421(4)
N7 N 0.50000 0.2636(9) 0.25000
N8 N 0.4883(4) 0.3527(7) 0.3517(4)
C1 C 0.3186(5) 0.5980(9) -0.0050(5)
C2 C 0.3302(5) 0.6293(9) -0.0584(5)
C3 C 0.3375(6) 0.7111(10) -0.0635(6)
C4 C 0.3317(6) 0.7632(9) -0.0146(6)
C5 C 0.3173(5) 0.7264(9) 0.0384(5)
C6 C 0.3087(5) 0.7767(8) 0.0939(5)
C7 C 0.3099(5) 0.8620(9) 0.0928(6)
C8 C 0.3005(7) 0.9038(7) 0.1461(6)
C9 C 0.2912(6) 0.8619(9) 0.1969(6)
C10 C 0.2904(5) 0.7757(9) 0.1953(5)
C11 C 0.2838(5) 0.7267(9) 0.2503(5)
C12 C 0.2705(5) 0.7600(9) 0.3029(5)
C13 C 0.2632(6) 0.7119(10) 0.3538(6)
C14 C 0.2710(6) 0.6279(9) 0.3477(5)
C15 C 0.2837(5) 0.5989(9) 0.2937(5)
C16 C 0.1166(5) 0.4016(9) -0.0889(4)
C17 C 0.1273(5) 0.3707(9) -0.1456(5)
C18 C 0.1320(5) 0.2886(9) -0.1522(5)
C19 C 0.1270(6) 0.2348(9) -0.1020(5)
C20 C 0.1163(5) 0.2725(8) -0.0471(5)
C21 C 0.1087(5) 0.2215(8) 0.0074(5)
C22 C 0.1090(5) 0.1389(9) 0.0050(5)
C23 C 0.0998(5) 0.0969(10) 0.0579(5)
C24 C 0.0900(6) 0.1373(9) 0.1100(5)
C25 C 0.0909(5) 0.2230(8) 0.1091(5)
C26 C 0.0835(5) 0.2717(8) 0.1648(5)
C27 C 0.0731(6) 0.2342(9) 0.2189(5)
C28 C 0.0666(6) 0.2840(9) 0.2689(5)
C29 C 0.0697(5) 0.3687(9) 0.2634(5)
C30 C 0.0810(5) 0.3989(8) 0.2073(4)
C31 C 0.4813(5) 0.3994(8) 0.3996(5)
C32 C 0.4721(5) 0.3689(9) 0.4554(5)
C33 C 0.4697(6) 0.2843(9) 0.4623(5)
C34 C 0.4757(5) 0.2349(9) 0.4110(5)
C35 C 0.4848(5) 0.2696(8) 0.3568(5)
C36 C 0.4922(5) 0.2216(8) 0.3015(5)
C37 C 0.4911(5) 0.1354(9) 0.3029(6)
C38 C 0.50000 0.0928(13) 0.25000
H1 H 0.31640 0.54020 -0.00090
H2 H 0.33320 0.59420 -0.09230
H3 H 0.34660 0.73300 -0.10060
H4 H 0.33730 0.82050 -0.01700
H5 H 0.31680 0.89090 0.05720
H6 H 0.30060 0.96200 0.14670
H7 H 0.28530 0.89040 0.23310
H8 H 0.26600 0.81760 0.30510
H9 H 0.25360 0.73500 0.39030
H10 H 0.26750 0.59160 0.38080
H11 H 0.28800 0.54140 0.29000
H12 H 0.11270 0.45900 -0.08410
H13 H 0.13120 0.40670 -0.17870
H14 H 0.13860 0.26670 -0.19050
H15 H 0.13060 0.17720 -0.10530
H16 H 0.11510 0.11060 -0.03110
H17 H 0.10040 0.03870 0.05790
H18 H 0.08290 0.10820 0.14540
H19 H 0.07050 0.17630 0.22150
H20 H 0.06000 0.26020 0.30660
H21 H 0.06440 0.40430 0.29620
H22 H 0.08480 0.45640 0.20330
H23 H 0.48290 0.45710 0.39490
H24 H 0.46750 0.40450 0.48840
H25 H 0.46410 0.26060 0.50040
H26 H 0.47330 0.17700 0.41420
H27 H 0.48450 0.10690 0.33880
H28 H 0.50000 0.03460 0.25000
Pb2D Pb -0.10584(2) 0.58255(3) -0.05993(2)
Cl5D Cl 0.03225(12) 0.5891(2) -0.06172(11)
O1B O 0.5979(4) 0.3798(7) 0.2792(4)
O16B O 0.5196(4) 0.5653(7) 0.3280(4)
O17D O 0.0441(4) 0.6590(6) -0.0940(4)
O18D O 0.0116(4) 0.5248(6) -0.1035(4)
O19D O -0.0074(3) 0.6082(6) -0.0233(3)
O20D O -0.0793(3) 0.4383(6) 0.0218(4)
N8B N 0.5117(4) 0.3527(7) 0.1483(4)
C31B C 0.5187(5) 0.3994(8) 0.1004(5)
C32B C 0.5279(5) 0.3689(9) 0.0446(5)
C33B C 0.5303(6) 0.2843(9) 0.0377(5)
C34B C 0.5243(5) 0.2349(9) 0.0890(5)
C35B C 0.5152(5) 0.2696(8) 0.1432(5)
C36B C 0.5078(5) 0.2216(8) 0.1985(5)
C37B C 0.5089(5) 0.1354(9) 0.1971(6)
H23B H 0.51710 0.45710 0.10510
H24B H 0.53250 0.40450 0.01160
H25B H 0.53590 0.26060 -0.00040
H26B H 0.52670 0.17700 0.08580
H27B H 0.51550 0.10690 0.16120
loop_
_geom_bond_atom_site_label_1
_geom_bond_atom_site_label_2
_geom_bond_site_symmetry_1
_geom_bond_site_symmetry_2
Pb1 O3 1_555 1_555
Pb2 O5 1_555 1_555
Pb3 O1 1_555 1_555
Cl1 O1 1_555 1_555
Cl2 O5 1_555 1_555
Cl3 O9 1_555 1_555
Cl4 O13 1_555 1_555
Cl5 O17 1_555 1_555
O2 Cl1 1_555 1_555
O3 Cl1 1_555 1_555
O4 Cl1 1_555 1_555
O6 Pb1 1_555 1_555
O7 Cl2 1_555 1_555
O8 Cl2 1_555 1_555
O9 Pb1 1_555 1_555
O10 Cl3 1_555 1_555
O11 Cl3 1_555 1_555
O12 Pb2 1_555 1_555
O13 Pb1 1_555 1_555
O14 Cl4 1_555 1_555
O15 Cl4 1_555 1_555
O16 Pb3 1_555 1_555
O18 Cl5 1_555 1_555
O19 Pb2 1_555 1_555
O20 Pb2 1_555 1_555
N1 Pb1 1_555 1_555
N2 Pb1 1_555 1_555
N3 Pb1 1_555 1_555
N4 Pb2 1_555 1_555
N5 Pb2 1_555 1_555
N6 Pb2 1_555 1_555
N7 Pb3 1_555 1_555
N8 Pb3 1_555 1_555
C1 N1 1_555 1_555
C2 C1 1_555 1_555
C3 C2 1_555 1_555
C4 C3 1_555 1_555
C5 N1 1_555 1_555
C6 N2 1_555 1_555
C7 C6 1_555 1_555
C8 C7 1_555 1_555
C9 C8 1_555 1_555
C10 N2 1_555 1_555
C11 N3 1_555 1_555
C12 C11 1_555 1_555
C13 C12 1_555 1_555
C14 C13 1_555 1_555
C15 N3 1_555 1_555
C16 N6 1_555 1_555
C17 C16 1_555 1_555
C18 C17 1_555 1_555
C19 C18 1_555 1_555
C20 N6 1_555 1_555
C21 N5 1_555 1_555
C22 C21 1_555 1_555
C23 C22 1_555 1_555
C24 C23 1_555 1_555
C25 N5 1_555 1_555
C26 N4 1_555 1_555
C27 C26 1_555 1_555
C28 C27 1_555 1_555
C29 C28 1_555 1_555
C30 N4 1_555 1_555
C31 N8 1_555 1_555
C32 C31 1_555 1_555
C33 C32 1_555 1_555
C34 C33 1_555 1_555
C35 N8 1_555 1_555
C36 N7 1_555 1_555
C37 C36 1_555 1_555
C38 C37 1_555 1_555
H1 C1 1_555 1_555
H2 C2 1_555 1_555
H3 C3 1_555 1_555
H4 C4 1_555 1_555
H5 C7 1_555 1_555
H6 C8 1_555 1_555
H7 C9 1_555 1_555
H8 C12 1_555 1_555
H9 C13 1_555 1_555
H10 C14 1_555 1_555
H11 C15 1_555 1_555
H12 C16 1_555 1_555
H13 C17 1_555 1_555
H14 C18 1_555 1_555
H15 C19 1_555 1_555
H16 C22 1_555 1_555
H17 C23 1_555 1_555
H18 C24 1_555 1_555
H19 C27 1_555 1_555
H20 C28 1_555 1_555
H21 C29 1_555 1_555
H22 C30 1_555 1_555
H23 C31 1_555 1_555
H24 C32 1_555 1_555
H25 C33 1_555 1_555
H26 C34 1_555 1_555
H27 C37 1_555 1_555
H28 C38 1_555 1_555
Pb2D O19D 1_555 1_555
Cl5D O20 1_555 1_555
O1B Pb3 1_555 1_555
O16B Pb3 1_555 1_555
O17D Cl5D 1_555 1_555
O18D Cl5D 1_555 1_555
O19D Cl5D 1_555 1_555
O20D Cl5 1_555 1_555
N8B Pb3 1_555 1_555
C31B N8B 1_555 1_555
C32B C31B 1_555 1_555
C33B C32B 1_555 1_555
C34B C33B 1_555 1_555
C35B N8B 1_555 1_555
C36B N7 1_555 1_555
C37B C38 1_555 1_555
H23B C31B 1_555 1_555
H24B C32B 1_555 1_555
H25B C33B 1_555 1_555
H26B C34B 1_555 1_555
H27B C37B 1_555 1_555
Cl2 O6 1_555 1_555
Cl3 O12 1_555 1_555
Cl4 O16 1_555 1_555
Cl5 O19 1_555 1_555
C4 C5 1_555 1_555
C5 C6 1_555 1_555
C9 C10 1_555 1_555
C10 C11 1_555 1_555
C14 C15 1_555 1_555
C19 C20 1_555 1_555
C20 C21 1_555 1_555
C24 C25 1_555 1_555
C25 C26 1_555 1_555
C29 C30 1_555 1_555
C34 C35 1_555 1_555
C35 C36 1_555 1_555
Pb2D O20D 1_555 1_555
C34B C35B 1_555 1_555
C35B C36B 1_555 1_555
C36B C37B 1_555 1_555

#END
