
#######################################################################
#
#                 Cambridge Crystallographic Data Centre
#                                CCDC 
#
#######################################################################
#
# If this CIF has been generated from an entry in the Cambridge 
# Structural Database, then it will include bibliographic, chemical, 
# crystal, experimental, refinement or atomic coordinate data resulting 
# from the CCDC's data processing and validation procedures.
#
#######################################################################

data_RAQRUW
_symmetry_cell_setting           triclinic
_symmetry_space_group_name_H-M   'P -1'
_symmetry_Int_Tables_number      2
_space_group_name_Hall           '-P 1'
loop_
_symmetry_equiv_pos_site_id
_symmetry_equiv_pos_as_xyz
1 x,y,z
2 -x,-y,-z
_cell_length_a                   15.266(9)
_cell_length_b                   8.945(1)
_cell_length_c                   8.148(11)
_cell_angle_alpha                80.60(6)
_cell_angle_beta                 77.05(7)
_cell_angle_gamma                83.45(3)
_cell_volume                     1066.31
loop_
_atom_site_label
_atom_site_type_symbol
_atom_site_fract_x
_atom_site_fract_y
_atom_site_fract_z
Pb1 Pb 0.41544(3) 0.49838(4) 0.29910(5)
N1 N 0.2372(5) 0.5013(8) 0.3151(9)
C3 C 0.1790(7) 0.617(1) 0.352(1)
N2 N 0.0941(6) 0.6313(8) 0.332(1)
C4 C 0.0700(7) 0.515(1) 0.277(1)
N3 N 0.1240(6) 0.3901(9) 0.231(1)
C5 C 0.2082(7) 0.390(1) 0.250(1)
N4 N 0.2936(5) 0.7230(8) 0.446(1)
C6 C 0.2089(7) 0.740(1) 0.424(1)
C7 C 0.1484(7) 0.862(1) 0.472(1)
C8 C 0.1777(8) 0.970(1) 0.545(2)
C9 C 0.2628(8) 0.953(1) 0.571(2)
C10 C 0.3183(7) 0.829(1) 0.519(1)
N5 N 0.3531(6) 0.2542(8) 0.233(1)
C11 C 0.2707(7) 0.261(1) 0.202(1)
C12 C 0.2422(7) 0.149(1) 0.131(1)
C13 C 0.3012(8) 0.026(1) 0.093(1)
C14 C 0.3850(8) 0.016(1) 0.129(1)
C15 C 0.4093(7) 0.130(1) 0.197(1)
N6 N -0.0773(6) 0.646(1) 0.282(1)
C16 C -0.0239(6) 0.521(1) 0.246(1)
C17 C -0.0535(7) 0.404(1) 0.197(2)
C18 C -0.1412(8) 0.412(1) 0.171(1)
C19 C -0.1947(7) 0.537(1) 0.201(2)
C20 C -0.1620(8) 0.651(1) 0.255(2)
I1 I 0.43143(5) 0.27002(8) 0.6377(1)
I2 I 0.38745(5) 0.64374(7) -0.07273(9)
H1 H 0.0869 0.8691 0.4539
H2 H 0.1385 1.0575 0.5787
H3 H 0.2845 1.0273 0.6227
H4 H 0.3792 0.8176 0.5392
H5 H 0.1821 0.1585 0.1063
H6 H 0.2837 -0.0537 0.0433
H7 H 0.4270 -0.0709 0.1039
H8 H 0.4687 0.1211 0.2245
H9 H -0.0129 0.3157 0.1749
H10 H -0.1631 0.3298 0.1315
H11 H -0.2563 0.5471 0.1856
H12 H -0.2002 0.7422 0.2750
Pb1A Pb 0.58456(3) 0.50162(4) 0.70090(5)
I1A I 0.56857(5) 0.72998(8) 0.3623(1)
I2A I 0.61255(5) 0.35626(7) 0.07273(9)
C1 C 0.021(3) -0.043(4) 0.133(5)
C2 C 0.00000 0.00000 0.00000
C1A C -0.021(3) 0.043(4) -0.133(5)
loop_
_geom_bond_atom_site_label_1
_geom_bond_atom_site_label_2
_geom_bond_site_symmetry_1
_geom_bond_site_symmetry_2
C1 C2 1_555 1_555
C2 C1A 1_555 1_555
Pb1 N1 1_555 1_555
N1 C3 1_555 1_555
C3 N2 1_555 1_555
N2 C4 1_555 1_555
C4 N3 1_555 1_555
N3 C5 1_555 1_555
C5 N1 1_555 1_555
N4 Pb1 1_555 1_555
C6 C3 1_555 1_555
C7 C6 1_555 1_555
C8 C7 1_555 1_555
C9 C8 1_555 1_555
C10 N4 1_555 1_555
N5 Pb1 1_555 1_555
C11 C5 1_555 1_555
C12 C11 1_555 1_555
C13 C12 1_555 1_555
C14 C13 1_555 1_555
C15 N5 1_555 1_555
N6 C16 1_555 1_555
C16 C4 1_555 1_555
C17 C16 1_555 1_555
C18 C17 1_555 1_555
C19 C18 1_555 1_555
C20 N6 1_555 1_555
I1 Pb1 1_555 1_555
I2 Pb1 1_555 1_555
H1 C7 1_555 1_555
H2 C8 1_555 1_555
H3 C9 1_555 1_555
H4 C10 1_555 1_555
H5 C12 1_555 1_555
H6 C13 1_555 1_555
H7 C14 1_555 1_555
H8 C15 1_555 1_555
H9 C17 1_555 1_555
H10 C18 1_555 1_555
H11 C19 1_555 1_555
H12 C20 1_555 1_555
Pb1A I1 1_555 1_555
I1A Pb1 1_555 1_555
I2A Pb1 1_555 1_555
N4 C6 1_555 1_555
C9 C10 1_555 1_555
N5 C11 1_555 1_555
C14 C15 1_555 1_555
C19 C20 1_555 1_555
Pb1A I1A 1_555 1_555

#END
