
#######################################################################
#
#                 Cambridge Crystallographic Data Centre
#                                CCDC 
#
#######################################################################
#
# If this CIF has been generated from an entry in the Cambridge 
# Structural Database, then it will include bibliographic, chemical, 
# crystal, experimental, refinement or atomic coordinate data resulting 
# from the CCDC's data processing and validation procedures.
#
#######################################################################

data_RAQVIQ
_symmetry_cell_setting           monoclinic
_symmetry_space_group_name_H-M   'P 21/c'
_symmetry_Int_Tables_number      14
_space_group_name_Hall           '-P 2ybc'
loop_
_symmetry_equiv_pos_site_id
_symmetry_equiv_pos_as_xyz
1 x,y,z
2 -x,1/2+y,1/2-z
3 -x,-y,-z
4 x,1/2-y,1/2+z
_cell_length_a                   7.0490(14)
_cell_length_b                   18.214(4)
_cell_length_c                   21.185(4)
_cell_angle_alpha                90
_cell_angle_beta                 91.28(3)
_cell_angle_gamma                90
_cell_volume                     2719.27
loop_
_atom_site_label
_atom_site_type_symbol
_atom_site_fract_x
_atom_site_fract_y
_atom_site_fract_z
Zn1 Zn 0.40559(7) 0.30222(3) 0.20478(2)
Zn2 Zn 0.08366(7) 0.19220(3) 0.30148(2)
H1 H 0.1878 0.6456 0.0721
C1 C 0.4515(6) 0.2645(2) 0.3362(2)
C2 C 0.5405(6) 0.2764(3) 0.4002(2)
H2 H 0.5594 0.2281 0.4198
C3 C 0.3975(8) 0.3183(3) 0.4396(2)
H3 H 0.2742 0.2950 0.4351
H4 H 0.4363 0.3158 0.4838
C4 C 0.3808(8) 0.3971(3) 0.4203(3)
H5 H 0.2902 0.4218 0.4467
H6 H 0.3346 0.4000 0.3769
C5 C 0.5694(9) 0.4344(3) 0.4263(3)
H7 H 0.6106 0.4344 0.4703
H8 H 0.5564 0.4850 0.4128
C6 C 0.7178(7) 0.3970(3) 0.3873(3)
H9 H 0.8402 0.4196 0.3958
H10 H 0.6867 0.4037 0.3428
C7 C 0.7305(6) 0.3158(2) 0.4017(2)
H11 H 0.7786 0.3121 0.4453
C8 C 0.8723(6) 0.2767(3) 0.3622(2)
C9 C -0.3851(6) 0.2130(3) 0.1458(2)
C10 C -0.2382(6) 0.1787(2) 0.1053(2)
H12 H -0.2867 0.1839 0.0618
C11 C -0.0532(6) 0.2213(2) 0.1080(2)
H13 H -0.0780 0.2703 0.0907
C12 C 0.0930(8) 0.1841(3) 0.0664(2)
H14 H 0.0520 0.1881 0.0226
H15 H 0.2135 0.2095 0.0712
C13 C 0.1200(8) 0.1052(3) 0.0827(3)
H16 H 0.1664 0.1009 0.1260
H17 H 0.2139 0.0838 0.0554
C14 C -0.0631(9) 0.0647(3) 0.0750(3)
H18 H -0.0437 0.0135 0.0863
H19 H -0.1049 0.0665 0.0311
C15 C -0.2156(7) 0.0970(3) 0.1159(3)
H20 H -0.3353 0.0727 0.1065
H21 H -0.1831 0.0881 0.1600
C16 C 0.0339(6) 0.2306(2) 0.1723(2)
C17 C 0.0790(6) 0.4701(2) -0.2279(2)
H22 H 0.0480 0.4546 -0.2686
C18 C 0.0904(7) 0.5430(3) -0.2160(2)
H23 H 0.0681 0.5768 -0.2482
C19 C 0.1346(7) 0.5664(2) -0.1568(2)
H24 H 0.1412 0.6164 -0.1481
C20 C 0.1697(6) 0.5157(2) -0.1096(2)
C21 C 0.1565(6) 0.4430(2) -0.1253(2)
H25 H 0.1807 0.4082 -0.0941
C22 C 0.2099(7) 0.5376(2) -0.0442(2)
C23 C 0.2773(7) 0.5333(2) 0.0520(2)
C24 C 0.3301(6) 0.5106(2) 0.1158(2)
C25 C 0.3749(7) 0.5613(2) 0.1623(2)
H26 H 0.3728 0.6113 0.1534
C26 C 0.4220(7) 0.5372(3) 0.2214(2)
H27 H 0.4519 0.5703 0.2535
C27 C 0.4245(6) 0.4636(3) 0.2323(2)
H28 H 0.4563 0.4472 0.2728
C28 C 0.3369(6) 0.4379(2) 0.1308(2)
H29 H 0.3076 0.4037 0.0995
N1 N 0.1111(5) 0.41983(19) -0.18295(17)
N2 N 0.2603(5) 0.4918(2) 0.00189(17)
N3 N 0.1797(8) 0.6051(2) -0.0244(2)
N4 N 0.2273(7) 0.6009(2) 0.0380(2)
N5 N 0.3836(5) 0.4140(2) 0.18799(17)
O1 O 0.3385(5) 0.21247(18) 0.33107(17)
O2 O 0.4935(5) 0.30636(17) 0.29234(15)
O3 O 0.8823(5) 0.20739(17) 0.36719(16)
O4 O 0.9766(5) 0.3092(2) 0.32636(17)
O5 O 0.1483(5) 0.28256(18) 0.17828(17)
O6 O -0.0084(5) 0.18800(17) 0.21519(14)
O7 O -0.3943(5) 0.28215(19) 0.14472(18)
O8 O -0.4924(5) 0.1771(2) 0.17774(19)
Zn1_2 Zn -0.59441(7) 0.30222(3) 0.20478(2)
Zn2C Zn 0.08366(7) 0.30780(3) -0.19852(2)
Zn2_2 Zn 1.08366(7) 0.19220(3) 0.30148(2)
N1C N 0.1111(5) 0.08017(19) 0.31705(17)
O3_2 O -0.1177(5) 0.20739(17) 0.36719(16)
O4_2 O -0.0234(5) 0.3092(2) 0.32636(17)
O7_2 O 0.6057(5) 0.28215(19) 0.14472(18)
O8_2 O 0.5076(5) 0.1771(2) 0.17774(19)
loop_
_geom_bond_atom_site_label_1
_geom_bond_atom_site_label_2
_geom_bond_site_symmetry_1
_geom_bond_site_symmetry_2
Zn1 N5 1_555 1_555
Zn2 O1 1_555 1_555
H1 N4 1_555 1_555
C1 C2 1_555 1_555
C2 H2 1_555 1_555
C3 C2 1_555 1_555
H3 C3 1_555 1_555
H4 C3 1_555 1_555
C4 C3 1_555 1_555
H5 C4 1_555 1_555
H6 C4 1_555 1_555
C5 C4 1_555 1_555
H7 C5 1_555 1_555
H8 C5 1_555 1_555
C6 C5 1_555 1_555
H9 C6 1_555 1_555
H10 C6 1_555 1_555
C7 C2 1_555 1_555
H11 C7 1_555 1_555
C8 C7 1_555 1_555
C9 C10 1_555 1_555
C10 H12 1_555 1_555
C11 C10 1_555 1_555
H13 C11 1_555 1_555
C12 C11 1_555 1_555
H14 C12 1_555 1_555
H15 C12 1_555 1_555
C13 C12 1_555 1_555
H16 C13 1_555 1_555
H17 C13 1_555 1_555
C14 C13 1_555 1_555
H18 C14 1_555 1_555
H19 C14 1_555 1_555
C15 C10 1_555 1_555
H20 C15 1_555 1_555
H21 C15 1_555 1_555
C16 C11 1_555 1_555
C17 H22 1_555 1_555
C18 C17 1_555 1_555
H23 C18 1_555 1_555
C19 C18 1_555 1_555
H24 C19 1_555 1_555
C20 C19 1_555 1_555
C21 C20 1_555 1_555
H25 C21 1_555 1_555
C22 C20 1_555 1_555
C23 C24 1_555 1_555
C24 C25 1_555 1_555
C25 H26 1_555 1_555
C26 C25 1_555 1_555
H27 C26 1_555 1_555
C27 C26 1_555 1_555
H28 C27 1_555 1_555
C28 C24 1_555 1_555
H29 C28 1_555 1_555
N1 C17 1_555 1_555
N2 C22 1_555 1_555
N3 C22 1_555 1_555
N4 C23 1_555 1_555
N5 C27 1_555 1_555
O1 C1 1_555 1_555
O2 Zn1 1_555 1_555
O3 C8 1_555 1_555
O4 C8 1_555 1_555
O5 Zn1 1_555 1_555
O6 Zn2 1_555 1_555
O7 C9 1_555 1_555
O8 C9 1_555 1_555
Zn1_2 O7 1_555 1_555
Zn2C N1 1_555 1_555
Zn2_2 O3 1_555 1_555
N1C Zn2 1_555 1_555
O3_2 Zn2 1_555 1_555
O4_2 Zn2 1_555 1_555
O7_2 Zn1 1_555 1_555
O8_2 Zn1 1_555 1_555
C1 O2 1_555 1_555
C6 C7 1_555 1_555
C14 C15 1_555 1_555
C16 O5 1_555 1_555
C16 O6 1_555 1_555
C21 N1 1_555 1_555
C23 N2 1_555 1_555
C28 N5 1_555 1_555
N3 N4 1_555 1_555
O4 Zn2_2 1_555 1_555
O8 Zn1_2 1_555 1_555

#END
