
#######################################################################
#
#                 Cambridge Crystallographic Data Centre
#                                CCDC 
#
#######################################################################
#
# If this CIF has been generated from an entry in the Cambridge 
# Structural Database, then it will include bibliographic, chemical, 
# crystal, experimental, refinement or atomic coordinate data resulting 
# from the CCDC's data processing and validation procedures.
#
#######################################################################

data_RAQVEM
_symmetry_cell_setting           monoclinic
_symmetry_space_group_name_H-M   'C 2/c'
_symmetry_Int_Tables_number      15
_space_group_name_Hall           '-C 2yn'
loop_
_symmetry_equiv_pos_site_id
_symmetry_equiv_pos_as_xyz
1 x,y,z
2 -x,y,1/2-z
3 1/2+x,1/2+y,z
4 1/2-x,1/2+y,1/2-z
5 -x,-y,-z
6 x,-y,1/2+z
7 1/2-x,1/2-y,-z
8 1/2+x,1/2-y,1/2+z
_cell_length_a                   35.823(7)
_cell_length_b                   9.810(2)
_cell_length_c                   25.171(5)
_cell_angle_alpha                90
_cell_angle_beta                 129.14(3)
_cell_angle_gamma                90
_cell_volume                     6860.77
loop_
_atom_site_label
_atom_site_type_symbol
_atom_site_fract_x
_atom_site_fract_y
_atom_site_fract_z
Zn1 Zn 0.28955(3) 0.37259(9) 0.17899(4)
Zn2 Zn 0.0000 0.00889(13) -0.2500
H3 H 0.4374 -0.2708 0.1118
C1 C 0.1360(3) -0.0667(8) -0.2411(4)
C2 C 0.1207(3) -0.2107(7) -0.2420(4)
H6 H 0.1258 -0.2252 -0.1993
C3 C 0.1518(3) -0.3133(10) -0.2438(6)
H7 H 0.1855 -0.2928 -0.2074
H8 H 0.1456 -0.4042 -0.2360
C4 C 0.1413(4) -0.3089(11) -0.3132(7)
H9 H 0.1616 -0.3745 -0.3131
H10 H 0.1488 -0.2190 -0.3201
C5 C 0.0893(4) -0.3411(13) -0.3709(6)
H11 H 0.0834 -0.3358 -0.4142
H12 H 0.0823 -0.4333 -0.3657
C6 C 0.0563(3) -0.2417(11) -0.3718(5)
H13 H 0.0603 -0.1513 -0.3831
H14 H 0.0231 -0.2690 -0.4070
C7 C 0.0671(3) -0.2370(9) -0.3019(4)
H15 H 0.0611 -0.3300 -0.2946
C8 C 0.0331(3) -0.1507(8) -0.3023(5)
C9 C 0.2851(3) 0.1532(9) 0.0922(5)
H16 H 0.2525 0.1739 0.0634
C10 C 0.3005(3) 0.0511(9) 0.0734(4)
H17 H 0.2785 0.0047 0.0325
C11 C 0.3490(3) 0.0166(8) 0.1154(4)
C12 C 0.3791(3) 0.0937(8) 0.1748(4)
H18 H 0.4119 0.0752 0.2049
C13 C 0.3612(3) 0.1958(9) 0.1896(4)
H19 H 0.3824 0.2472 0.2291
C14 C 0.3659(3) -0.0904(8) 0.0959(4)
C15 C 0.3665(3) -0.2452(8) 0.0399(4)
C16 C 0.3528(3) -0.3447(8) -0.0142(4)
C17 C 0.3874(3) -0.4147(8) -0.0122(5)
H20 H 0.4200 -0.4015 0.0234
C18 C 0.3716(3) -0.5050(9) -0.0650(5)
H21 H 0.3948 -0.5520 -0.0635
C19 C 0.2933(3) -0.4618(9) -0.1179(5)
H22 H 0.2609 -0.4784 -0.1536
C20 C 0.3048(3) -0.3686(9) -0.0682(4)
H23 H 0.2808 -0.3231 -0.0712
C21 C 0.0939(3) 0.1015(8) -0.1274(4)
H24 H 0.1040 0.0308 -0.1403
C22 C 0.1278(3) 0.1695(8) -0.0675(4)
H25 H 0.1600 0.1443 -0.0407
C23 C 0.1141(3) 0.2753(8) -0.0468(4)
C24 C 0.0656(3) 0.3105(9) -0.0894(5)
H26 H 0.0549 0.3831 -0.0784
C25 C 0.0336(3) 0.2350(9) -0.1484(5)
H27 H 0.0011 0.2570 -0.1757
C26 C 0.1493(3) 0.3509(8) 0.0171(4)
C27 C 0.1830(3) 0.4831(7) 0.1008(4)
C28 C 0.1902(3) 0.5859(8) 0.1485(4)
C29 C 0.1513(3) 0.6555(8) 0.1347(4)
H28 H 0.1207 0.6414 0.0933
C30 C 0.1574(3) 0.7448(8) 0.1815(4)
H29 H 0.1305 0.7886 0.1711
C31 C 0.2389(3) 0.7079(8) 0.2551(4)
H30 H 0.2693 0.7260 0.2961
C32 C 0.2349(3) 0.6156(8) 0.2099(4)
H31 H 0.2623 0.5737 0.2209
N1 N 0.3143(2) 0.2245(6) 0.1494(3)
N2 N 0.3360(2) -0.1638(7) 0.0371(4)
N3 N 0.4112(2) -0.2229(7) 0.0961(4)
N4 N 0.4118(2) -0.1236(7) 0.1334(4)
N5 N 0.3256(3) -0.5292(8) -0.1178(4)
N6 N 0.0467(2) 0.1325(7) -0.1685(3)
N7 N 0.1389(2) 0.4512(6) 0.0422(3)
N8 N 0.1963(2) 0.3184(6) 0.0553(3)
N9 N 0.2181(2) 0.4056(6) 0.1106(3)
N10 N 0.2010(2) 0.7720(6) 0.2421(3)
O1 O 0.18080(19) -0.0444(5) -0.1906(3)
O2 O 0.1101(2) 0.0211(6) -0.2825(3)
O3 O 0.04813(19) -0.0973(6) -0.2449(3)
O4 O -0.0090(2) -0.1317(6) -0.3557(3)
Zn1A Zn -0.28955(3) 0.37259(9) -0.67899(4)
Zn1C Zn 0.21045(3) 0.87259(9) 0.32101(4)
Zn1F Zn 0.21045(3) 0.12741(9) -0.17899(4)
Zn1B Zn -0.21045(3) 0.87259(9) -0.82101(4)
Zn1G Zn -0.21045(3) 0.12741(9) -0.32101(4)
H3A H -0.4374 -0.2708 -0.6118
C1A C -0.1360(3) -0.0667(8) -0.2589(4)
C2A C -0.1207(3) -0.2107(7) -0.2580(4)
H6A H -0.1258 -0.2252 -0.3007
C3A C -0.1518(3) -0.3133(10) -0.2562(6)
H7A H -0.1855 -0.2928 -0.2926
H8A H -0.1456 -0.4042 -0.2640
C4A C -0.1413(4) -0.3089(11) -0.1868(7)
H9A H -0.1616 -0.3745 -0.1869
H10A H -0.1488 -0.2190 -0.1799
C5A C -0.0893(4) -0.3411(13) -0.1291(6)
H11A H -0.0834 -0.3358 -0.0858
H12A H -0.0823 -0.4333 -0.1343
C6A C -0.0563(3) -0.2417(11) -0.1282(5)
H13A H -0.0603 -0.1513 -0.1169
H14A H -0.0231 -0.2690 -0.0930
C7A C -0.0671(3) -0.2370(9) -0.1981(4)
H15A H -0.0611 -0.3300 -0.2054
C8A C -0.0331(3) -0.1507(8) -0.1977(5)
C9A C -0.2851(3) 0.1532(9) -0.5922(5)
H16A H -0.2525 0.1739 -0.5634
C10A C -0.3005(3) 0.0511(9) -0.5734(4)
H17A H -0.2785 0.0047 -0.5325
C11A C -0.3490(3) 0.0166(8) -0.6154(4)
C12A C -0.3791(3) 0.0937(8) -0.6748(4)
H18A H -0.4119 0.0752 -0.7049
C13A C -0.3612(3) 0.1958(9) -0.6896(4)
H19A H -0.3824 0.2472 -0.7291
C14A C -0.3659(3) -0.0904(8) -0.5959(4)
C15A C -0.3665(3) -0.2452(8) -0.5399(4)
C16A C -0.3528(3) -0.3447(8) -0.4858(4)
C17A C -0.3874(3) -0.4147(8) -0.4878(5)
H20A H -0.4200 -0.4015 -0.5234
C18A C -0.3716(3) -0.5050(9) -0.4350(5)
H21A H -0.3948 -0.5520 -0.4365
C19A C -0.2933(3) -0.4618(9) -0.3821(5)
H22A H -0.2609 -0.4784 -0.3464
C20A C -0.3048(3) -0.3686(9) -0.4318(4)
H23A H -0.2808 -0.3231 -0.4288
C21A C -0.0939(3) 0.1015(8) -0.3726(4)
H24A H -0.1040 0.0308 -0.3597
C22A C -0.1278(3) 0.1695(8) -0.4325(4)
H25A H -0.1600 0.1443 -0.4593
C23A C -0.1141(3) 0.2753(8) -0.4532(4)
C24A C -0.0656(3) 0.3105(9) -0.4106(5)
H26A H -0.0549 0.3831 -0.4216
C25A C -0.0336(3) 0.2350(9) -0.3516(5)
H27A H -0.0011 0.2570 -0.3243
C26A C -0.1493(3) 0.3509(8) -0.5171(4)
C27A C -0.1830(3) 0.4831(7) -0.6008(4)
C28A C -0.1902(3) 0.5859(8) -0.6485(4)
C29A C -0.1513(3) 0.6555(8) -0.6347(4)
H28A H -0.1207 0.6414 -0.5933
C30A C -0.1574(3) 0.7448(8) -0.6815(4)
H29A H -0.1305 0.7886 -0.6711
C31A C -0.2389(3) 0.7079(8) -0.7551(4)
H30A H -0.2693 0.7260 -0.7961
C32A C -0.2349(3) 0.6156(8) -0.7099(4)
H31A H -0.2623 0.5737 -0.7209
N1A N -0.3143(2) 0.2245(6) -0.6494(3)
N2A N -0.3360(2) -0.1638(7) -0.5371(4)
N3A N -0.4112(2) -0.2229(7) -0.5961(4)
N4A N -0.4118(2) -0.1236(7) -0.6334(4)
N5A N -0.3256(3) -0.5292(8) -0.3822(4)
N6A N -0.0467(2) 0.1325(7) -0.3315(3)
N7A N -0.1389(2) 0.4512(6) -0.5422(3)
N8A N -0.1963(2) 0.3184(6) -0.5553(3)
N9A N -0.2181(2) 0.4056(6) -0.6106(3)
N10A N -0.2010(2) 0.7720(6) -0.7421(3)
N10C N 0.2990(2) 0.2720(6) 0.2579(3)
N10B N -0.2990(2) 0.2720(6) -0.7579(3)
O1A O -0.18080(19) -0.0444(5) -0.3094(3)
O1F O 0.31920(19) 0.5444(5) 0.1906(3)
O1G O -0.31920(19) 0.5444(5) -0.6906(3)
O2A O -0.1101(2) 0.0211(6) -0.2175(3)
O3A O -0.04813(19) -0.0973(6) -0.2551(3)
O4A O 0.0090(2) -0.1317(6) -0.1443(3)
H1 H 0.3068 0.6645 0.0538
H2 H 0.3023 0.5813 0.0991
O5 O 0.2935(7) 0.591(2) 0.0584(10)
H4 H 0.4747 0.9638 0.2166
H5 H 0.5253 0.9638 0.2834
O6 O 0.5000 1.0048(12) 0.2500
O7 O 0.540(2) 0.945(6) 0.476(3)
O8 O 0.480(2) 0.375(6) 0.422(4)
loop_
_geom_bond_atom_site_label_1
_geom_bond_atom_site_label_2
_geom_bond_site_symmetry_1
_geom_bond_site_symmetry_2
Zn1 N1 1_555 1_555
Zn2 N6 1_555 1_555
H1 O5 1_555 1_555
H2 O5 1_555 1_555
H3 N3 1_555 1_555
H4 O6 1_555 1_555
H5 O6 1_555 1_555
C1 C2 1_555 1_555
C2 H6 1_555 1_555
C3 C2 1_555 1_555
H7 C3 1_555 1_555
H8 C3 1_555 1_555
C4 C3 1_555 1_555
H9 C4 1_555 1_555
H10 C4 1_555 1_555
C5 C4 1_555 1_555
H11 C5 1_555 1_555
H12 C5 1_555 1_555
C6 C5 1_555 1_555
H13 C6 1_555 1_555
H14 C6 1_555 1_555
C7 C2 1_555 1_555
H15 C7 1_555 1_555
C8 C7 1_555 1_555
C9 H16 1_555 1_555
C10 C9 1_555 1_555
H17 C10 1_555 1_555
C11 C10 1_555 1_555
C12 C11 1_555 1_555
H18 C12 1_555 1_555
C13 C12 1_555 1_555
H19 C13 1_555 1_555
C14 C11 1_555 1_555
C15 C16 1_555 1_555
C16 C17 1_555 1_555
C17 H20 1_555 1_555
C18 C17 1_555 1_555
H21 C18 1_555 1_555
C19 H22 1_555 1_555
C20 C16 1_555 1_555
H23 C20 1_555 1_555
C21 H24 1_555 1_555
C22 C21 1_555 1_555
H25 C22 1_555 1_555
C23 C22 1_555 1_555
C24 C23 1_555 1_555
H26 C24 1_555 1_555
C25 C24 1_555 1_555
H27 C25 1_555 1_555
C26 C23 1_555 1_555
C27 C28 1_555 1_555
C28 C29 1_555 1_555
C29 H28 1_555 1_555
C30 C29 1_555 1_555
H29 C30 1_555 1_555
C31 H30 1_555 1_555
C32 C28 1_555 1_555
H31 C32 1_555 1_555
N1 C9 1_555 1_555
N2 C14 1_555 1_555
N3 C15 1_555 1_555
N4 C14 1_555 1_555
N5 C18 1_555 1_555
N6 C21 1_555 1_555
N7 C26 1_555 1_555
N8 C26 1_555 1_555
N9 Zn1 1_555 1_555
N10 C30 1_555 1_555
O1 C1 1_555 1_555
O2 C1 1_555 1_555
O3 Zn2 1_555 1_555
O4 C8 1_555 1_555
Zn1A N1A 1_555 1_555
Zn1C N10 1_555 1_555
Zn1F O1 1_555 1_555
Zn1B N10A 1_555 1_555
Zn1G O1A 1_555 1_555
H3A N3A 1_555 1_555
C1A C2A 1_555 1_555
C2A H6A 1_555 1_555
C3A C2A 1_555 1_555
H7A C3A 1_555 1_555
H8A C3A 1_555 1_555
C4A C3A 1_555 1_555
H9A C4A 1_555 1_555
H10A C4A 1_555 1_555
C5A C4A 1_555 1_555
H11A C5A 1_555 1_555
H12A C5A 1_555 1_555
C6A C5A 1_555 1_555
H13A C6A 1_555 1_555
H14A C6A 1_555 1_555
C7A C2A 1_555 1_555
H15A C7A 1_555 1_555
C8A C7A 1_555 1_555
C9A H16A 1_555 1_555
C10A C9A 1_555 1_555
H17A C10A 1_555 1_555
C11A C10A 1_555 1_555
C12A C11A 1_555 1_555
H18A C12A 1_555 1_555
C13A C12A 1_555 1_555
H19A C13A 1_555 1_555
C14A C11A 1_555 1_555
C15A C16A 1_555 1_555
C16A C17A 1_555 1_555
C17A H20A 1_555 1_555
C18A C17A 1_555 1_555
H21A C18A 1_555 1_555
C19A H22A 1_555 1_555
C20A C16A 1_555 1_555
H23A C20A 1_555 1_555
C21A H24A 1_555 1_555
C22A C21A 1_555 1_555
H25A C22A 1_555 1_555
C23A C22A 1_555 1_555
C24A C23A 1_555 1_555
H26A C24A 1_555 1_555
C25A C24A 1_555 1_555
H27A C25A 1_555 1_555
C26A C23A 1_555 1_555
C27A C28A 1_555 1_555
C28A C29A 1_555 1_555
C29A H28A 1_555 1_555
C30A C29A 1_555 1_555
H29A C30A 1_555 1_555
C31A H30A 1_555 1_555
C32A C28A 1_555 1_555
H31A C32A 1_555 1_555
N1A C9A 1_555 1_555
N2A C14A 1_555 1_555
N3A C15A 1_555 1_555
N4A C14A 1_555 1_555
N5A C18A 1_555 1_555
N6A Zn2 1_555 1_555
N7A C26A 1_555 1_555
N8A C26A 1_555 1_555
N9A Zn1A 1_555 1_555
N10A C30A 1_555 1_555
N10C Zn1 1_555 1_555
N10B Zn1A 1_555 1_555
O1A C1A 1_555 1_555
O1F Zn1 1_555 1_555
O1G Zn1A 1_555 1_555
O2A C1A 1_555 1_555
O3A Zn2 1_555 1_555
O4A C8A 1_555 1_555
C6 C7 1_555 1_555
C8 O3 1_555 1_555
C13 N1 1_555 1_555
C15 N2 1_555 1_555
C19 C20 1_555 1_555
C19 N5 1_555 1_555
C25 N6 1_555 1_555
C27 N7 1_555 1_555
C27 N9 1_555 1_555
C31 C32 1_555 1_555
C31 N10 1_555 1_555
N3 N4 1_555 1_555
N8 N9 1_555 1_555
C6A C7A 1_555 1_555
C8A O3A 1_555 1_555
C13A N1A 1_555 1_555
C15A N2A 1_555 1_555
C19A C20A 1_555 1_555
C19A N5A 1_555 1_555
C21A N6A 1_555 1_555
C25A N6A 1_555 1_555
C27A N7A 1_555 1_555
C27A N9A 1_555 1_555
C31A C32A 1_555 1_555
C31A N10A 1_555 1_555
N3A N4A 1_555 1_555
N8A N9A 1_555 1_555

#END
