
#######################################################################
#
#                 Cambridge Crystallographic Data Centre
#                                CCDC 
#
#######################################################################
#
# If this CIF has been generated from an entry in the Cambridge 
# Structural Database, then it will include bibliographic, chemical, 
# crystal, experimental, refinement or atomic coordinate data resulting 
# from the CCDC's data processing and validation procedures.
#
#######################################################################

data_RAQVAI
_symmetry_cell_setting           monoclinic
_symmetry_space_group_name_H-M   'C 2/c'
_symmetry_Int_Tables_number      15
_space_group_name_Hall           '-C 2yn'
loop_
_symmetry_equiv_pos_site_id
_symmetry_equiv_pos_as_xyz
1 x,y,z
2 -x,y,1/2-z
3 1/2+x,1/2+y,z
4 1/2-x,1/2+y,1/2-z
5 -x,-y,-z
6 x,-y,1/2+z
7 1/2-x,1/2-y,-z
8 1/2+x,1/2-y,1/2+z
_cell_length_a                   22.388(5)
_cell_length_b                   13.763(3)
_cell_length_c                   15.079(3)
_cell_angle_alpha                90
_cell_angle_beta                 124.35(3)
_cell_angle_gamma                90
_cell_volume                     3835.96
loop_
_atom_site_label
_atom_site_type_symbol
_atom_site_fract_x
_atom_site_fract_y
_atom_site_fract_z
O1 O 0.12590(10) 0.19317(15) 0.29660(15)
C1 C 0.17942(14) 0.15197(19) 0.3008(2)
O2 O 0.21380(12) 0.08306(16) 0.35972(18)
C2 C 0.19642(14) 0.1962(2) 0.2247(2)
H1 H 0.1514 0.1934 0.1528
C3 C 0.25243(16) 0.1392(3) 0.2186(3)
H2 H 0.2951 0.1289 0.2906
H3 H 0.2328 0.0760 0.1867
C4 C 0.27325(18) 0.1927(3) 0.1527(3)
H4 H 0.2980 0.1588 0.1296
C5 C 0.25824(19) 0.2847(3) 0.1261(3)
H5 H 0.2717 0.3111 0.0831
N1 N 0.07565(12) 0.04536(15) 0.40704(17)
C6 C 0.00752(15) 0.0268(2) 0.3757(2)
H6 H -0.0235 0.0789 0.3593
C7 C 0.11915(15) -0.0305(2) 0.4304(3)
H7 H 0.1666 -0.0188 0.4529
Zn1 Zn 0.124220(16) 0.17660(2) 0.42397(2)
C8 C 0.09956(14) -0.5206(2) 0.4223(2)
H8 H 0.1315 -0.4701 0.4371
O3 O 0.27990(10) 0.31804(15) 0.43937(14)
O4 O 0.34627(10) 0.32983(15) 0.37346(16)
N2 N 0.07752(12) -0.69187(15) 0.41107(18)
N3 N 0.04747(11) -0.32184(16) 0.39641(19)
C9 C 0.28662(13) 0.31851(19) 0.3607(2)
C10 C 0.02681(14) -0.14486(18) 0.3903(2)
C11 C 0.02937(14) -0.50093(19) 0.3901(2)
C12 C 0.00501(14) -0.39967(19) 0.3798(2)
N4 N -0.05898(13) -0.27910(18) 0.3567(2)
N5 N -0.06055(13) -0.37730(17) 0.3556(2)
C13 C 0.12171(15) -0.6164(2) 0.4322(2)
H9 H 0.1691 -0.6289 0.4545
C14 C 0.00525(14) -0.24719(19) 0.3813(2)
C15 C 0.00934(15) -0.6724(2) 0.3796(2)
H10 H -0.0219 -0.7239 0.3646
C16 C 0.09742(15) -0.1253(2) 0.4231(3)
H11 H 0.1297 -0.1759 0.4398
C17 C -0.01588(15) -0.5786(2) 0.3687(2)
H12 H -0.0633 -0.5679 0.3469
C18 C -0.01866(15) -0.0662(2) 0.3668(2)
H13 H -0.0662 -0.0759 0.3454
C19 C 0.21656(14) 0.3054(2) 0.2491(2)
H14 H 0.1776 0.3384 0.2487
C20 C 0.22123(18) 0.3500(3) 0.1598(2)
H15 H 0.1727 0.3638 0.0980
H16 H 0.2473 0.4110 0.1849
H17 H -0.0922(18) -0.249(2) 0.350(3)
Zn1F Zn 0.375780(16) 0.32340(2) 0.57603(2)
Zn1_2 Zn 0.124220(16) -0.82340(2) 0.42397(2)
O3F O 0.22010(10) 0.18196(15) 0.56063(14)
N2_2 N 0.07752(12) 0.30813(15) 0.41107(18)
loop_
_geom_bond_atom_site_label_1
_geom_bond_atom_site_label_2
_geom_bond_site_symmetry_1
_geom_bond_site_symmetry_2
O1 C1 1_555 1_555
C1 O2 1_555 1_555
C2 C1 1_555 1_555
H1 C2 1_555 1_555
C3 C2 1_555 1_555
H2 C3 1_555 1_555
H3 C3 1_555 1_555
C4 C3 1_555 1_555
H4 C4 1_555 1_555
C5 C4 1_555 1_555
H5 C5 1_555 1_555
N1 C6 1_555 1_555
C6 H6 1_555 1_555
C7 N1 1_555 1_555
H7 C7 1_555 1_555
Zn1 O1 1_555 1_555
C8 H8 1_555 1_555
O3 C9 1_555 1_555
O4 C9 1_555 1_555
N2 C13 1_555 1_555
N3 C12 1_555 1_555
C9 C19 1_555 1_555
C10 C14 1_555 1_555
C11 C8 1_555 1_555
C12 C11 1_555 1_555
N4 N5 1_555 1_555
N5 C12 1_555 1_555
C13 C8 1_555 1_555
H9 C13 1_555 1_555
C14 N3 1_555 1_555
C15 N2 1_555 1_555
H10 C15 1_555 1_555
C16 C7 1_555 1_555
H11 C16 1_555 1_555
C17 C11 1_555 1_555
H12 C17 1_555 1_555
C18 C6 1_555 1_555
H13 C18 1_555 1_555
C19 C2 1_555 1_555
H14 C19 1_555 1_555
C20 C5 1_555 1_555
H15 C20 1_555 1_555
H16 C20 1_555 1_555
H17 N4 1_555 1_555
Zn1F O3 1_555 1_555
Zn1_2 N2 1_555 1_555
O3F Zn1 1_555 1_555
N2_2 Zn1 1_555 1_555
N1 Zn1 1_555 1_555
C10 C16 1_555 1_555
C10 C18 1_555 1_555
N4 C14 1_555 1_555
C15 C17 1_555 1_555
C19 C20 1_555 1_555

#END
