
#######################################################################
#
#                 Cambridge Crystallographic Data Centre
#                                CCDC 
#
#######################################################################
#
# If this CIF has been generated from an entry in the Cambridge 
# Structural Database, then it will include bibliographic, chemical, 
# crystal, experimental, refinement or atomic coordinate data resulting 
# from the CCDC's data processing and validation procedures.
#
#######################################################################

data_RARVIR
_symmetry_cell_setting           monoclinic
_symmetry_space_group_name_H-M   'P 21/c'
_symmetry_Int_Tables_number      14
_space_group_name_Hall           '-P 2ybc'
loop_
_symmetry_equiv_pos_site_id
_symmetry_equiv_pos_as_xyz
1 x,y,z
2 -x,1/2+y,1/2-z
3 -x,-y,-z
4 x,1/2-y,1/2+z
_cell_length_a                   20.083(5)
_cell_length_b                   7.5802(15)
_cell_length_c                   11.489(3)
_cell_angle_alpha                90
_cell_angle_beta                 102.482(6)
_cell_angle_gamma                90
_cell_volume                     1707.67
loop_
_atom_site_label
_atom_site_type_symbol
_atom_site_fract_x
_atom_site_fract_y
_atom_site_fract_z
Zn1 Zn 0.410151(19) 0.59308(5) 0.61498(3)
S1 S 0.43418(4) 1.00513(10) 0.71841(7)
O1 O 0.41822(12) 0.8166(3) 0.73012(19)
O2 O 0.37172(13) 1.1092(3) 0.7017(3)
O3 O 0.48086(11) 1.0626(3) 0.83008(19)
O4 O 0.46815(14) 1.0281(3) 0.6180(2)
O5 O 0.42968(14) 0.7468(3) 0.4771(2)
H1 H 0.426(2) 0.741(5) 0.4046(11)
H2 H 0.443(2) 0.845(3) 0.501(3)
O6 O 0.41253(13) 0.3648(3) 0.5107(2)
H3 H 0.4339(17) 0.376(5) 0.458(2)
H4 H 0.4248(19) 0.270(3) 0.542(3)
O7 O 0.39552(13) 0.4526(3) 0.7629(2)
H5 H 0.388(2) 0.3487(19) 0.747(3)
H6 H 0.4302(12) 0.452(5) 0.816(3)
N1 N 0.30437(14) 0.6181(4) 0.5455(3)
N2 N 0.09306(16) 0.6409(5) 0.4032(3)
N3 N 0.07711(16) 0.6403(5) 0.2899(3)
N4 N -0.19721(16) 0.6208(5) 0.0611(3)
C1 C 0.26073(18) 0.6828(5) 0.6063(3)
H7 H 0.2782 0.7236 0.6842
C2 C 0.19141(19) 0.6936(5) 0.5621(3)
H8 H 0.1626 0.7387 0.6094
C3 C 0.16480(19) 0.6363(5) 0.4459(3)
C4 C 0.2107(2) 0.5710(6) 0.3806(3)
H9 H 0.1950 0.5319 0.3018
C5 C 0.2782(2) 0.5648(6) 0.4325(3)
H10 H 0.3084 0.5210 0.3873
C6 C 0.00757(19) 0.6328(6) 0.2405(3)
C7 C -0.0434(2) 0.5978(6) 0.3019(3)
H11 H -0.0319 0.5774 0.3845
C8 C -0.1109(2) 0.5926(6) 0.2427(4)
H12 H -0.1446 0.5671 0.2856
C9 C -0.13043(19) 0.6251(5) 0.1183(4)
C10 C -0.0777(2) 0.6589(6) 0.0582(4)
H13 H -0.0887 0.6814 -0.0242
C11 C -0.0110(2) 0.6596(6) 0.1169(4)
H14 H 0.0232 0.6783 0.0738
C12 C -0.2516(2) 0.5830(7) 0.1215(4)
H15 H -0.2453 0.4658 0.1561
H16 H -0.2950 0.5885 0.0648
H17 H -0.2510 0.6692 0.1841
C13 C -0.2161(2) 0.6670(7) -0.0644(4)
H18 H -0.2003 0.7853 -0.0758
H19 H -0.2654 0.6622 -0.0909
H20 H -0.1954 0.5842 -0.1103
Zn1A Zn 0.589849(19) 1.09308(5) 0.88502(3)
O3A O 0.51914(11) 0.5626(3) 0.66992(19)
loop_
_geom_bond_atom_site_label_1
_geom_bond_atom_site_label_2
_geom_bond_site_symmetry_1
_geom_bond_site_symmetry_2
Zn1 O1 1_555 1_555
S1 O1 1_555 1_555
O2 S1 1_555 1_555
O3 S1 1_555 1_555
O4 S1 1_555 1_555
O5 Zn1 1_555 1_555
H1 O5 1_555 1_555
H2 O5 1_555 1_555
O6 Zn1 1_555 1_555
H3 O6 1_555 1_555
H4 O6 1_555 1_555
O7 Zn1 1_555 1_555
H5 O7 1_555 1_555
H6 O7 1_555 1_555
N1 Zn1 1_555 1_555
N2 N3 1_555 1_555
N3 C6 1_555 1_555
N4 C9 1_555 1_555
C1 N1 1_555 1_555
H7 C1 1_555 1_555
C2 C1 1_555 1_555
H8 C2 1_555 1_555
C3 N2 1_555 1_555
C4 C3 1_555 1_555
H9 C4 1_555 1_555
C5 N1 1_555 1_555
H10 C5 1_555 1_555
C6 C7 1_555 1_555
C7 H11 1_555 1_555
C8 C7 1_555 1_555
H12 C8 1_555 1_555
C9 C8 1_555 1_555
C10 C9 1_555 1_555
H13 C10 1_555 1_555
C11 C6 1_555 1_555
H14 C11 1_555 1_555
C12 N4 1_555 1_555
H15 C12 1_555 1_555
H16 C12 1_555 1_555
H17 C12 1_555 1_555
C13 N4 1_555 1_555
H18 C13 1_555 1_555
H19 C13 1_555 1_555
H20 C13 1_555 1_555
Zn1A O3 1_555 1_555
O3A Zn1 1_555 1_555
C2 C3 1_555 1_555
C4 C5 1_555 1_555
C10 C11 1_555 1_555

#END
