
#######################################################################
#
#                 Cambridge Crystallographic Data Centre
#                                CCDC 
#
#######################################################################
#
# If this CIF has been generated from an entry in the Cambridge 
# Structural Database, then it will include bibliographic, chemical, 
# crystal, experimental, refinement or atomic coordinate data resulting 
# from the CCDC's data processing and validation procedures.
#
#######################################################################

data_RARYIT
_symmetry_cell_setting           orthorhombic
_symmetry_space_group_name_H-M   'P n a 21'
_symmetry_Int_Tables_number      33
_space_group_name_Hall           'P 2c -2n'
loop_
_symmetry_equiv_pos_site_id
_symmetry_equiv_pos_as_xyz
1 x,y,z
2 -x,-y,1/2+z
3 1/2+x,1/2-y,z
4 1/2-x,1/2+y,1/2+z
_cell_length_a                   28.567(6)
_cell_length_b                   14.498(3)
_cell_length_c                   12.250(2)
_cell_angle_alpha                90
_cell_angle_beta                 90
_cell_angle_gamma                90
_cell_volume                     5073.51
loop_
_atom_site_label
_atom_site_type_symbol
_atom_site_fract_x
_atom_site_fract_y
_atom_site_fract_z
Gd1 Gd 0.905821(13) 0.57444(2) 1.00030(3)
Gd2 Gd 0.842205(12) 0.89083(2) 1.21300(3)
Ni1 Ni 0.79787(3) 0.67094(7) 1.60028(7)
Ni2 Ni 1.03671(3) 0.87950(6) 1.00947(8)
O1 O 0.8400(2) 0.7433(3) 1.2934(4)
O2 O 0.79839(18) 0.7361(4) 1.4513(4)
O3 O 0.85978(19) 0.5622(4) 1.1699(4)
O4 O 0.92922(17) 0.6211(4) 1.1876(4)
O5 O 0.80611(17) 0.6086(3) 0.7520(4)
O6 O 0.83600(18) 0.6309(3) 0.9179(4)
O7 O 0.90946(15) 0.7338(3) 0.9948(4)
O8 O 0.8581(2) 0.8402(5) 1.0352(4)
O9 O 0.74019(18) 1.0603(3) 1.0499(4)
O10 O 0.80642(18) 0.9888(4) 1.0788(4)
O11 O 0.89044(16) 1.0220(3) 1.1926(4)
O12 O 0.91391(19) 1.0976(4) 1.0435(4)
O13 O 1.01779(18) 0.7479(4) 1.0493(4)
O14 O 0.98719(16) 0.6171(3) 0.9849(4)
O15 O 0.92458(19) 0.5779(4) 0.8177(4)
O16 O 0.9874(2) 0.5442(3) 0.7204(5)
O17 O 0.93884(18) 0.9959(3) 1.4566(4)
O18 O 0.87830(17) 0.9204(3) 1.3911(4)
O19 O 0.78688(18) 0.9704(4) 1.3142(4)
O20 O 0.7584(2) 0.9844(4) 1.4802(5)
O21 O 0.8578(3) 0.4454(7) 0.9470(7)
O22 O 0.9441(2) 0.4389(4) 1.0672(4)
O23 O 0.7690(2) 0.8122(4) 1.1524(5)
O24 O 0.92449(15) 0.8266(3) 1.2048(4)
O25 O 0.96895(19) 0.9337(4) 1.0470(4)
O26 O 1.0560(2) 0.9020(4) 1.1746(4)
N1 N 0.8558(2) 0.6071(4) 1.5282(4)
N2 N 0.8333(2) 0.7719(4) 0.6808(4)
N3 N 0.7699(2) 1.2155(4) 1.1411(4)
N4 N 1.0121(2) 0.8316(4) 0.8605(5)
N5 N 0.89465(19) 1.1524(4) 1.4760(5)
C1 C 0.8608(3) 0.6249(5) 1.4196(5)
C2 C 0.8899(2) 0.5791(5) 1.3524(6)
C3 C 0.9191(3) 0.5124(6) 1.3960(6)
H1 H 0.9398 0.4791 1.3527
C4 C 0.9159(3) 0.4978(6) 1.5085(7)
H2 H 0.9358 0.4552 1.5410
C5 C 0.8852(3) 0.5427(6) 1.5708(6)
H3 H 0.8839 0.5297 1.6451
C6 C 0.8293(3) 0.7082(5) 1.3848(6)
C7 C 0.8929(3) 0.5916(5) 1.2307(6)
C8 C 0.8462(3) 0.7503(5) 0.7872(5)
C9 C 0.8692(2) 0.8123(5) 0.8527(5)
C10 C 0.8815(3) 0.8974(6) 0.8136(7)
H4 H 0.8975 0.9391 0.8578
C11 C 0.8696(3) 0.9211(5) 0.7049(8)
H5 H 0.8782 0.9779 0.6759
C12 C 0.8442(3) 0.8565(6) 0.6412(6)
H6 H 0.8348 0.8725 0.5710
C13 C 0.8278(3) 0.6561(5) 0.8219(6)
C14 C 0.8803(3) 0.7907(5) 0.9703(6)
C15 C 0.8001(3) 1.1489(5) 1.1259(5)
C16 C 0.8511(3) 1.1620(5) 1.1420(5)
C17 C 0.8661(3) 1.2491(6) 1.1748(6)
H7 H 0.8976 1.2621 1.1863
C18 C 0.8307(4) 1.3177(5) 1.1901(7)
H8 H 0.8394 1.3768 1.2115
C19 C 0.7831(3) 1.2976(6) 1.1733(6)
H9 H 0.7607 1.3431 1.1853
C20 C 0.7808(3) 1.0595(5) 1.0835(5)
C21 C 0.8881(2) 1.0880(5) 1.1232(6)
C22 C 0.9957(3) 0.7427(5) 0.8617(5)
C23 C 0.9775(3) 0.6985(6) 0.7724(6)
C24 C 0.9740(3) 0.7483(6) 0.6738(7)
H10 H 0.9627 0.7200 0.6109
C25 C 0.9875(4) 0.8399(7) 0.6721(6)
H11 H 0.9829 0.8751 0.6096
C26 C 1.0083(3) 0.8801(6) 0.7662(7)
H12 H 1.0196 0.9403 0.7631
C27 C 1.0015(3) 0.7000(5) 0.9734(5)
C28 C 0.9611(3) 0.5986(6) 0.7731(6)
C29 C 0.8695(3) 1.0807(5) 1.4454(5)
C30 C 0.8177(3) 1.0857(5) 1.4312(6)
C31 C 0.7961(3) 1.1704(7) 1.4471(7)
H13 H 0.7638 1.1767 1.4426
C32 C 0.8259(4) 1.2480(6) 1.4708(8)
H14 H 0.8133 1.3070 1.4765
C33 C 0.8751(3) 1.2332(6) 1.4857(7)
H15 H 0.8939 1.2835 1.5031
C34 C 0.8971(2) 0.9902(5) 1.4288(5)
C35 C 0.7845(3) 1.0054(6) 1.4101(7)
Ni1_2 Ni 0.79787(3) 0.67094(7) 0.60028(7)
Ni1C Ni 0.70213(3) 1.17094(7) 1.10028(7)
Ni2A Ni 0.96329(3) 1.12050(6) 1.50947(8)
O5_2 O 0.80611(17) 0.6086(3) 1.7520(4)
O9C O 0.75981(18) 0.5603(3) 1.5499(4)
O17A O 1.06116(18) 1.0041(3) 0.9566(4)
N2_2 N 0.8333(2) 0.7719(4) 1.6808(4)
N3C N 0.7301(2) 0.7155(4) 1.6411(4)
N5A N 1.10535(19) 0.8476(4) 0.9760(5)
O27 O 0.2046(4) 0.6920(11) 0.4062(9)
O28 O 0.6898(3) 0.9017(6) 1.1991(11)
O29 O 0.7642(3) 0.6041(6) 1.1538(6)
O30 O 0.0525(3) 0.7283(5) 0.4464(5)
O31 O 0.2422(3) 0.1017(6) 0.3941(6)
O32 O 1.0487(3) 1.6439(4) 1.2399(5)
O33 O 0.0089(3) 0.1371(5) 0.8538(5)
O34 O 0.2072(5) 0.8827(10) 0.3205(11)
O35 O 0.1193(5) 0.7984(10) 0.2620(11)
loop_
_geom_bond_atom_site_label_1
_geom_bond_atom_site_label_2
_geom_bond_site_symmetry_1
_geom_bond_site_symmetry_2
Gd1 O3 1_555 1_555
Gd2 O1 1_555 1_555
Ni1 O2 1_555 1_555
Ni2 O13 1_555 1_555
O1 C6 1_555 1_555
O2 C6 1_555 1_555
O3 C7 1_555 1_555
O4 Gd1 1_555 1_555
O5 C13 1_555 1_555
O6 Gd1 1_555 1_555
O7 Gd1 1_555 1_555
O8 Gd2 1_555 1_555
O9 C20 1_555 1_555
O10 Gd2 1_555 1_555
O11 Gd2 1_555 1_555
O12 C21 1_555 1_555
O13 C27 1_555 1_555
O14 Gd1 1_555 1_555
O15 Gd1 1_555 1_555
O16 C28 1_555 1_555
O17 C34 1_555 1_555
O18 Gd2 1_555 1_555
O19 Gd2 1_555 1_555
O20 C35 1_555 1_555
O21 Gd1 1_555 1_555
O22 Gd1 1_555 1_555
O23 Gd2 1_555 1_555
O24 Gd2 1_555 1_555
O25 Ni2 1_555 1_555
O26 Ni2 1_555 1_555
N1 Ni1 1_555 1_555
N2 C8 1_555 1_555
N3 C15 1_555 1_555
N4 Ni2 1_555 1_555
N5 C29 1_555 1_555
C1 N1 1_555 1_555
C2 C1 1_555 1_555
C3 C2 1_555 1_555
H1 C3 1_555 1_555
C4 C3 1_555 1_555
H2 C4 1_555 1_555
C5 N1 1_555 1_555
H3 C5 1_555 1_555
C6 C1 1_555 1_555
C7 O4 1_555 1_555
C8 C9 1_555 1_555
C9 C10 1_555 1_555
C10 H4 1_555 1_555
C11 C10 1_555 1_555
H5 C11 1_555 1_555
C12 N2 1_555 1_555
H6 C12 1_555 1_555
C13 O6 1_555 1_555
C14 O7 1_555 1_555
C15 C16 1_555 1_555
C16 C17 1_555 1_555
C17 H7 1_555 1_555
C18 C17 1_555 1_555
H8 C18 1_555 1_555
C19 N3 1_555 1_555
H9 C19 1_555 1_555
C20 O10 1_555 1_555
C21 O11 1_555 1_555
C22 N4 1_555 1_555
C23 C22 1_555 1_555
C24 C23 1_555 1_555
H10 C24 1_555 1_555
C25 C24 1_555 1_555
H11 C25 1_555 1_555
C26 N4 1_555 1_555
H12 C26 1_555 1_555
C27 O14 1_555 1_555
C28 O15 1_555 1_555
C29 C30 1_555 1_555
C30 C31 1_555 1_555
C31 H13 1_555 1_555
C32 C31 1_555 1_555
H14 C32 1_555 1_555
C33 N5 1_555 1_555
H15 C33 1_555 1_555
C34 O18 1_555 1_555
C35 O19 1_555 1_555
Ni1_2 O5 1_555 1_555
Ni1C O9 1_555 1_555
Ni2A O17 1_555 1_555
O5_2 Ni1 1_555 1_555
O9C Ni1 1_555 1_555
O17A Ni2 1_555 1_555
N2_2 Ni1 1_555 1_555
N3C Ni1 1_555 1_555
N5A Ni2 1_555 1_555
O8 C14 1_555 1_555
N2 Ni1_2 1_555 1_555
N3 Ni1C 1_555 1_555
N5 Ni2A 1_555 1_555
C2 C7 1_555 1_555
C4 C5 1_555 1_555
C8 C13 1_555 1_555
C9 C14 1_555 1_555
C11 C12 1_555 1_555
C15 C20 1_555 1_555
C16 C21 1_555 1_555
C18 C19 1_555 1_555
C22 C27 1_555 1_555
C23 C28 1_555 1_555
C25 C26 1_555 1_555
C29 C34 1_555 1_555
C30 C35 1_555 1_555
C32 C33 1_555 1_555

#END
