
#######################################################################
#
#                 Cambridge Crystallographic Data Centre
#                                CCDC 
#
#######################################################################
#
# If this CIF has been generated from an entry in the Cambridge 
# Structural Database, then it will include bibliographic, chemical, 
# crystal, experimental, refinement or atomic coordinate data resulting 
# from the CCDC's data processing and validation procedures.
#
#######################################################################

data_RARYAL
_symmetry_cell_setting           orthorhombic
_symmetry_space_group_name_H-M   'P n m a'
_symmetry_Int_Tables_number      62
_space_group_name_Hall           '-P 2ac 2n'
loop_
_symmetry_equiv_pos_site_id
_symmetry_equiv_pos_as_xyz
1 x,y,z
2 1/2-x,-y,1/2+z
3 -x,1/2+y,-z
4 1/2+x,1/2-y,1/2-z
5 -x,-y,-z
6 1/2+x,y,1/2-z
7 x,1/2-y,z
8 1/2-x,1/2+y,1/2+z
_cell_length_a                   17.956(6)
_cell_length_b                   17.615(5)
_cell_length_c                   10.776(4)
_cell_angle_alpha                90
_cell_angle_beta                 90
_cell_angle_gamma                90
_cell_volume                     3408.39
loop_
_atom_site_label
_atom_site_type_symbol
_atom_site_fract_x
_atom_site_fract_y
_atom_site_fract_z
Cu1 Cu 0.34057(4) 0.2500 0.34479(7)
Cu2 Cu 0.01456(4) 0.7500 0.23402(7)
N1 N 0.41465(19) 0.32902(19) 0.2887(3)
N2 N 0.46629(19) 0.3171(2) 0.1990(3)
N3 N -0.05259(18) 0.67122(18) 0.1589(3)
N4 N -0.09247(18) 0.68265(19) 0.0537(3)
O1 O 0.27678(15) 0.33105(14) 0.4035(3)
O2 O 0.2211(2) 0.35524(19) 0.2240(3)
O3 O 0.06726(16) 0.67198(15) 0.3256(3)
O4 O 0.12550(19) 0.61999(17) 0.1632(3)
C1 C 0.4591(4) 0.2500 0.1211(6)
H1 H 0.4976 0.2500 0.0579
H2 H 0.4110 0.2500 0.0802
C2 C 0.5194(3) 0.3707(3) 0.2014(5)
H3 H 0.5603 0.3744 0.1487
C3 C 0.5019(3) 0.4186(3) 0.2958(5)
H4 H 0.5281 0.4617 0.3199
C4 C 0.4376(3) 0.3905(2) 0.3488(5)
H5 H 0.4136 0.4118 0.4170
C5 C -0.0782(3) 0.7500 -0.0208(6)
H6 H -0.0268 0.7500 -0.0488
H7 H -0.1102 0.7500 -0.0933
C6 C -0.1414(2) 0.6269(2) 0.0347(4)
H8 H -0.1747 0.6229 -0.0312
C7 C -0.1335(3) 0.5770(3) 0.1304(5)
H9 H -0.1597 0.5321 0.1428
C8 C -0.0783(2) 0.6069(3) 0.2049(4)
H10 H -0.0615 0.5847 0.2780
C9 C 0.2356(2) 0.3703(2) 0.3327(4)
C10 C 0.2032(2) 0.4418(2) 0.3885(4)
C11 C 0.1718(2) 0.4966(2) 0.3112(4)
H11 H 0.1714 0.4888 0.2259
C12 C 0.1413(2) 0.5628(2) 0.3598(4)
C13 C 0.1427(2) 0.5734(2) 0.4860(4)
H12 H 0.1215 0.6168 0.5199
C14 C 0.1751(3) 0.5207(3) 0.5631(4)
H13 H 0.1766 0.5292 0.6482
C15 C 0.2055(2) 0.4549(2) 0.5141(4)
H14 H 0.2276 0.4195 0.5664
C16 C 0.1088(2) 0.6223(2) 0.2747(4)
O5 O 0.4032(2) 0.2500 0.5409(4)
H15 H 0.3935 0.2004 0.5765
Cu2G Cu 0.48544(4) 0.2500 0.73402(7)
Cu2_2 Cu 0.01456(4) -0.2500 0.23402(7)
N1F N 0.41465(19) 0.17098(19) 0.2887(3)
N2F N 0.46629(19) 0.1829(2) 0.1990(3)
N3F N -0.05259(18) 0.82878(18) 0.1589(3)
N4F N -0.09247(18) 0.81735(19) 0.0537(3)
O1F O 0.27678(15) 0.16895(14) 0.4035(3)
O2F O 0.2211(2) 0.14476(19) 0.2240(3)
O3F O 0.06726(16) -0.17198(15) 0.3256(3)
O3F_2 O 0.06726(16) 0.82802(15) 0.3256(3)
O4F O 0.12550(19) -0.11999(17) 0.1632(3)
C2F C 0.5194(3) 0.1293(3) 0.2014(5)
H3F H 0.5603 0.1256 0.1487
C3F C 0.5019(3) 0.0814(3) 0.2958(5)
H4F H 0.5281 0.0383 0.3199
C4F C 0.4376(3) 0.1095(2) 0.3488(5)
H5F H 0.4136 0.0882 0.4170
C6F C -0.1414(2) 0.8731(2) 0.0347(4)
H8F H -0.1747 0.8771 -0.0312
C7F C -0.1335(3) 0.9230(3) 0.1304(5)
H9F H -0.1597 0.9679 0.1428
C8F C -0.0783(2) 0.8931(3) 0.2049(4)
H10F H -0.0615 0.9153 0.2780
C9F C 0.2356(2) 0.1297(2) 0.3327(4)
C10F C 0.2032(2) 0.0582(2) 0.3885(4)
C11F C 0.1718(2) 0.0034(2) 0.3112(4)
H11F H 0.1714 0.0112 0.2259
C12F C 0.1413(2) -0.0628(2) 0.3598(4)
C13F C 0.1427(2) -0.0734(2) 0.4860(4)
H12F H 0.1215 -0.1168 0.5199
C14F C 0.1751(3) -0.0207(3) 0.5631(4)
H13F H 0.1766 -0.0292 0.6482
C15F C 0.2055(2) 0.0451(2) 0.5141(4)
H14F H 0.2276 0.0805 0.5664
C16F C 0.1088(2) -0.1223(2) 0.2747(4)
O5G O 0.0968(2) 0.7500 0.0409(4)
H15F H 0.3935 0.2996 0.5765
H15G H 0.1065 0.7004 0.0765
H15A H 0.1065 0.7996 0.0765
C17 C 0.1589(5) 0.2500 0.6107(8)
C18 C 0.2249(4) 0.2500 0.6869(8)
N5 N 0.1072(4) 0.2500 0.5544(8)
O6 O 0.2846(3) 0.2500 0.0731(6)
H19 H 0.2906 0.2111 0.1234
H19F H 0.2906 0.2889 0.1234
H16? H 0.2432 0.1990 0.6951
H17? H 0.2130 0.2698 0.7675
H18? H 0.2624 0.2811 0.6489
loop_
_geom_bond_atom_site_label_1
_geom_bond_atom_site_label_2
_geom_bond_site_symmetry_1
_geom_bond_site_symmetry_2
Cu1 N1 1_555 1_555
Cu2 N3 1_555 1_555
N1 N2 1_555 1_555
N2 C1 1_555 1_555
N3 N4 1_555 1_555
N4 C5 1_555 1_555
O1 Cu1 1_555 1_555
O2 C9 1_555 1_555
O3 Cu2 1_555 1_555
O4 C16 1_555 1_555
C1 H1 1_555 1_555
H2 C1 1_555 1_555
C2 N2 1_555 1_555
H3 C2 1_555 1_555
C3 C2 1_555 1_555
H4 C3 1_555 1_555
C4 N1 1_555 1_555
H5 C4 1_555 1_555
C5 H6 1_555 1_555
H7 C5 1_555 1_555
C6 N4 1_555 1_555
H8 C6 1_555 1_555
C7 C6 1_555 1_555
H9 C7 1_555 1_555
C8 N3 1_555 1_555
H10 C8 1_555 1_555
C9 O1 1_555 1_555
C10 C9 1_555 1_555
C11 C10 1_555 1_555
H11 C11 1_555 1_555
C12 C11 1_555 1_555
C13 C12 1_555 1_555
H12 C13 1_555 1_555
C14 C13 1_555 1_555
H13 C14 1_555 1_555
C15 C10 1_555 1_555
H14 C15 1_555 1_555
C16 O3 1_555 1_555
O5 Cu1 1_555 1_555
H15 O5 1_555 1_555
C17 C18 1_555 1_555
N5 C17 1_555 1_555
O6 H19 1_555 1_555
Cu2G O5 1_555 1_555
Cu2_2 O3F 1_555 1_555
N1F Cu1 1_555 1_555
N2F C1 1_555 1_555
N3F Cu2 1_555 1_555
N4F C5 1_555 1_555
O1F Cu1 1_555 1_555
O2F C9F 1_555 1_555
O3F C16F 1_555 1_555
O3F_2 Cu2 1_555 1_555
O4F C16F 1_555 1_555
C2F N2F 1_555 1_555
H3F C2F 1_555 1_555
C3F C2F 1_555 1_555
H4F C3F 1_555 1_555
C4F N1F 1_555 1_555
H5F C4F 1_555 1_555
C6F N4F 1_555 1_555
H8F C6F 1_555 1_555
C7F C6F 1_555 1_555
H9F C7F 1_555 1_555
C8F N3F 1_555 1_555
H10F C8F 1_555 1_555
C9F O1F 1_555 1_555
C10F C9F 1_555 1_555
C11F C10F 1_555 1_555
H11F C11F 1_555 1_555
C12F C11F 1_555 1_555
C13F C12F 1_555 1_555
H12F C13F 1_555 1_555
C14F C13F 1_555 1_555
H13F C14F 1_555 1_555
C15F C10F 1_555 1_555
H14F C15F 1_555 1_555
C16F C12F 1_555 1_555
O5G Cu2 1_555 1_555
H15F O5 1_555 1_555
H15G O5G 1_555 1_555
H15A O5G 1_555 1_555
H19F O6 1_555 1_555
C3 C4 1_555 1_555
C7 C8 1_555 1_555
C12 C16 1_555 1_555
C14 C15 1_555 1_555
N1F N2F 1_555 1_555
N3F N4F 1_555 1_555
C3F C4F 1_555 1_555
C7F C8F 1_555 1_555
C14F C15F 1_555 1_555

#END
