
#######################################################################
#
#                 Cambridge Crystallographic Data Centre
#                                CCDC 
#
#######################################################################
#
# If this CIF has been generated from an entry in the Cambridge 
# Structural Database, then it will include bibliographic, chemical, 
# crystal, experimental, refinement or atomic coordinate data resulting 
# from the CCDC's data processing and validation procedures.
#
#######################################################################

data_RARZAN
_symmetry_cell_setting           monoclinic
_symmetry_space_group_name_H-M   'P 21'
_symmetry_Int_Tables_number      4
_space_group_name_Hall           'P 2yb'
loop_
_symmetry_equiv_pos_site_id
_symmetry_equiv_pos_as_xyz
1 x,y,z
2 -x,1/2+y,-z
_cell_length_a                   8.31800(10)
_cell_length_b                   8.05260(10)
_cell_length_c                   9.6984(2)
_cell_angle_alpha                90
_cell_angle_beta                 114.0590(10)
_cell_angle_gamma                90
_cell_volume                     593.179
loop_
_atom_site_label
_atom_site_type_symbol
_atom_site_fract_x
_atom_site_fract_y
_atom_site_fract_z
Cu1 Cu 0.40283(5) 0.02261(6) 0.92156(4)
N1 N 0.1682(4) 0.0327(8) 0.7633(3)
O1 O 0.4873(4) -0.1146(4) 0.8075(3)
C1 C 0.4207(5) -0.1128(5) 0.6572(4)
C2 C 0.2483(5) -0.0596(6) 0.5646(5)
C3 C 0.5286(7) -0.1726(7) 0.5886(6)
C4 C 0.1179(5) -0.0103(5) 0.6244(5)
C5 C 0.0438(6) 0.0791(7) 0.8304(6)
C6 C 0.4739(8) -0.1699(8) 0.4339(6)
C7 C 0.3094(8) -0.1077(8) 0.3430(5)
C8 C 0.1988(7) -0.0572(7) 0.4073(5)
O2 O 0.6388(3) 0.0211(8) 1.0933(3)
O3 O 0.3045(4) 0.1492(5) 1.0423(4)
O4 O 0.6452(5) 0.2443(5) 0.9697(4)
N2 N 0.7235(5) 0.1474(5) 1.0756(4)
O5 O 0.8768(5) 0.1671(5) 1.1629(5)
C9 C 0.1300(6) 0.2081(6) 0.9507(6)
H1 H 0.1356 0.3138 0.9049
H2 H 0.0633 0.2228 1.0118
C10 C -0.0753(6) -0.0211(7) 0.5199(6)
H3 H -0.1450 0.0144 0.5726
H4 H -0.1045 -0.1338 0.4869
H5 H -0.0989 0.0492 0.4339
H6 H 0.626(9) -0.229(9) 0.637(8)
H7 H 0.034(7) -0.019(9) 0.874(7)
H8 H -0.062(7) 0.110(7) 0.763(6)
H9 H 0.541(9) -0.212(9) 0.388(8)
H10 H 0.276(8) -0.102(10) 0.245(8)
H11 H 0.097(7) -0.017(7) 0.345(6)
H12 H 0.356(9) 0.241(10) 1.065(8)
Cu1A Cu 0.59717(5) 0.52261(6) 1.07844(4)
O4A O 0.3548(5) -0.2557(5) 1.0303(4)
loop_
_geom_bond_atom_site_label_1
_geom_bond_atom_site_label_2
_geom_bond_site_symmetry_1
_geom_bond_site_symmetry_2
Cu1 N1 1_555 1_555
N1 C4 1_555 1_555
O1 Cu1 1_555 1_555
C1 O1 1_555 1_555
C2 C1 1_555 1_555
C3 C1 1_555 1_555
C4 C2 1_555 1_555
C5 N1 1_555 1_555
C6 C3 1_555 1_555
C7 C6 1_555 1_555
C8 C2 1_555 1_555
O2 Cu1 1_555 1_555
O3 Cu1 1_555 1_555
O4 Cu1 1_555 1_555
N2 O2 1_555 1_555
O5 N2 1_555 1_555
C9 C5 1_555 1_555
H1 C9 1_555 1_555
H2 C9 1_555 1_555
C10 C4 1_555 1_555
H3 C10 1_555 1_555
H4 C10 1_555 1_555
H5 C10 1_555 1_555
H6 C3 1_555 1_555
H7 C5 1_555 1_555
H8 C5 1_555 1_555
H9 C6 1_555 1_555
H10 C7 1_555 1_555
H11 C8 1_555 1_555
H12 O3 1_555 1_555
Cu1A O4 1_555 1_555
O4A Cu1 1_555 1_555
C7 C8 1_555 1_555
O3 C9 1_555 1_555
O4 N2 1_555 1_555

#END
