
#######################################################################
#
#                 Cambridge Crystallographic Data Centre
#                                CCDC 
#
#######################################################################
#
# If this CIF has been generated from an entry in the Cambridge 
# Structural Database, then it will include bibliographic, chemical, 
# crystal, experimental, refinement or atomic coordinate data resulting 
# from the CCDC's data processing and validation procedures.
#
#######################################################################

data_RASFAU
_symmetry_cell_setting           monoclinic
_symmetry_space_group_name_H-M   'P 21/c'
_symmetry_Int_Tables_number      14
_space_group_name_Hall           '-P 2ybc'
loop_
_symmetry_equiv_pos_site_id
_symmetry_equiv_pos_as_xyz
1 x,y,z
2 -x,1/2+y,1/2-z
3 -x,-y,-z
4 x,1/2-y,1/2+z
_cell_length_a                   10.502(2)
_cell_length_b                   28.187(6)
_cell_length_c                   19.431(4)
_cell_angle_alpha                90
_cell_angle_beta                 92.42(3)
_cell_angle_gamma                90
_cell_volume                     5746.83
loop_
_atom_site_label
_atom_site_type_symbol
_atom_site_fract_x
_atom_site_fract_y
_atom_site_fract_z
Zn1 Zn 0.35510(6) 0.57466(2) 0.36879(3)
Zn2 Zn 0.85500(6) 0.68219(2) 0.36756(3)
N1 N 0.8905(5) 0.68127(18) 0.4702(3)
N2 N 0.3881(5) 0.57500(18) 0.4724(3)
N5 N 0.1091(5) 0.67837(18) 0.3147(3)
N6 N 0.4989(6) 0.5727(2) 0.5680(3)
N8 N 0.6075(5) 0.57941(18) 0.3105(3)
N11 N 0.5059(5) 0.58084(19) 0.5019(3)
N12 N 0.1962(5) 0.61221(18) 0.3477(2)
N14 N 0.5161(5) 0.60696(17) 0.3393(2)
N15 N 0.6962(5) 0.64530(18) 0.3446(3)
N17 N 1.0089(6) 0.6787(2) 0.5638(3)
N18 N 0.2166(5) 0.65645(18) 0.3206(3)
Cl1 Cl 0.8733(5) 0.74751(18) 0.3277(3)
Cl3 Cl 0.3770(5) 0.50804(18) 0.3303(2)
N22 N 0.7142(5) 0.60241(18) 0.3135(3)
N23 N 1.0103(5) 0.67417(19) 0.4965(3)
N25 N 0.8881(5) 0.6889(2) 0.5828(3)
C1 C 0.5727(5) 0.6472(2) 0.3594(3)
C6 C 0.0668(6) 0.5226(2) 0.4013(3)
C8 C -0.0037(6) 0.5688(2) 0.3847(4)
N26 N 0.3762(5) 0.5616(2) 0.5827(3)
C10 C 0.0702(6) 0.6092(2) 0.3571(3)
C11 C 0.6507(6) 0.7389(2) 0.4666(3)
C12 C 0.6912(7) 0.8195(2) 0.4316(4)
H5 H 0.7314 0.8485 0.4399
C13 C 0.8186(6) 0.6898(2) 0.5246(3)
C14 C 0.5724(5) 0.7313(2) 0.4072(3)
C15 C 0.7086(6) 0.7830(2) 0.4779(3)
H6 H 0.7598 0.7878 0.5175
N28 N 0.0156(5) 0.64982(18) 0.3371(2)
C16 C 0.6137(7) 0.8134(2) 0.3721(4)
H7 H 0.6011 0.8382 0.3409
C17 C 0.1702(6) 0.5556(2) 0.5128(3)
H8 H 0.1294 0.5845 0.4964
H9 H 0.1344 0.5471 0.5563
C19 C 0.0479(7) 0.4840(2) 0.3556(3)
H10 H -0.0035 0.4879 0.3158
C20 C 0.1814(7) 0.4346(2) 0.4298(4)
H11 H 0.2191 0.4054 0.4398
C21 C 0.6781(6) 0.6992(2) 0.5188(3)
H12 H 0.6479 0.7083 0.5634
H13 H 0.6334 0.6706 0.5040
C26 C 0.1446(6) 0.5161(2) 0.4609(3)
C27 C 0.1999(6) 0.4719(2) 0.4736(4)
H17 H 0.2513 0.4677 0.5133
C28 C 0.5001(6) 0.6864(2) 0.3927(3)
C30 C 0.5554(6) 0.7696(2) 0.3603(3)
H18 H 0.5040 0.7654 0.3206
C31 C 0.3109(6) 0.5637(2) 0.5233(3)
C35 C 0.1045(8) 0.4405(2) 0.3690(4)
H21 H 0.0920 0.4155 0.3383
H25 H -0.031(6) 0.581(2) 0.427(4)
H28 H -0.079(8) 0.559(3) 0.349(4)
H29 H 0.484(7) 0.670(3) 0.443(4)
H32 H 0.434(10) 0.703(4) 0.360(5)
Zn2_2 Zn -0.14500(6) 0.68219(2) 0.36756(3)
N28_2 N 1.0156(5) 0.64982(18) 0.3371(2)
Zn3 Zn 0.12738(7) 0.81603(3) 0.62821(3)
Zn4 Zn 0.62755(6) 0.92691(2) 0.62002(3)
N3 N 0.1054(5) 0.81088(18) 0.5238(3)
N4 N 0.6078(5) 0.93136(18) 0.5164(3)
N7 N 0.3779(5) 0.92137(18) 0.6847(3)
N9 N 0.0040(5) 0.83036(19) 0.4289(3)
N10 N 0.4576(5) 0.89732(17) 0.6430(3)
N13 N 0.5033(5) 0.92959(19) 0.4180(3)
N16 N 0.2748(5) 0.86041(18) 0.6438(3)
Cl2 Cl 0.1177(5) 0.75264(18) 0.6740(3)
Cl4 Cl 0.6155(5) 0.98990(18) 0.6705(3)
N19 N 0.4923(5) 0.92325(19) 0.4845(3)
N20 N 0.0055(5) 0.83594(18) 0.4956(3)
N21 N 0.2705(5) 0.89933(18) 0.6852(3)
N24 N 0.6265(5) 0.9417(2) 0.4053(3)
C2 C 0.8503(6) 0.9877(2) 0.5359(3)
C3 C 0.8264(6) 0.9516(2) 0.4787(3)
H1 H 0.8616 0.9633 0.4366
H2 H 0.8696 0.9222 0.4911
C4 C 0.7999(6) 1.0332(2) 0.5271(4)
H3 H 0.7557 1.0405 0.4860
C5 C 0.6873(6) 0.9421(2) 0.4665(3)
C7 C 0.9178(6) 0.9765(2) 0.5975(3)
C9 C 0.8780(7) 1.0568(2) 0.6390(4)
H4 H 0.8859 1.0796 0.6735
N27 N 0.1015(5) 0.80167(19) 0.4116(3)
C18 C 0.3343(6) 0.7442(2) 0.5416(3)
C22 C 0.8128(7) 1.0673(2) 0.5766(4)
H14 H 0.7785 1.0974 0.5690
C23 C 0.3725(6) 0.6810(2) 0.6265(3)
H15 H 0.3598 0.6499 0.6409
C24 C 0.4091(6) 0.7749(2) 0.5841(3)
C25 C 0.3174(6) 0.6965(2) 0.5637(3)
H16 H 0.2694 0.6756 0.5361
C29 C 0.3906(6) 0.8603(2) 0.6179(3)
C32 C 0.1617(6) 0.7905(2) 0.4700(3)
C33 C 0.9315(6) 1.0117(2) 0.6493(3)
H19 H 0.9762 1.0048 0.6904
C34 C 0.4637(6) 0.7579(2) 0.6459(3)
H20 H 0.5136 0.7781 0.6738
C36 C 0.4447(6) 0.7111(2) 0.6667(3)
H22 H 0.4815 0.7004 0.7082
C37 C 0.2772(7) 0.7586(2) 0.4719(3)
C38 C 0.4360(6) 0.8259(2) 0.5646(3)
H23 H 0.5269 0.8299 0.5597
H24 H 0.3935 0.8328 0.5204
C39 C 0.9841(6) 0.9292(2) 0.6102(4)
C40 C 0.9068(6) 0.8882(2) 0.6347(3)
N29 N 0.9593(5) 0.84685(18) 0.6520(3)
N30 N 0.7803(5) 0.88594(18) 0.6415(2)
N31 N 0.8631(5) 0.81832(18) 0.6720(3)
N32 N 0.7564(5) 0.84103(18) 0.6648(3)
H26 H 1.049(7) 0.935(3) 0.646(4)
H27 H 1.020(8) 0.916(3) 0.567(4)
H30 H 0.348(9) 0.773(3) 0.439(5)
H31 H 0.256(11) 0.721(4) 0.452(6)
Zn3_2 Zn 1.12738(7) 0.81603(3) 0.62821(3)
N29_2 N -0.0407(5) 0.84685(18) 0.6520(3)
O1 O 0.5966(5) 0.61163(17) 0.7021(2)
O2 O 0.7751(5) 0.68986(18) 0.7116(2)
O3 O 0.9055(5) 0.62637(18) 0.7989(3)
O4 O 0.3867(5) 0.61430(17) 0.7896(3)
O5 O 0.7498(5) 0.54846(19) 0.7797(2)
O6 O 0.2594(5) 0.5359(2) 0.7102(3)
O7 O 0.2490(5) 0.7034(2) 0.7906(3)
N33 N -0.116(4) 0.3767(16) 0.303(2)
loop_
_geom_bond_atom_site_label_1
_geom_bond_atom_site_label_2
_geom_bond_site_symmetry_1
_geom_bond_site_symmetry_2
Zn1 N2 1_555 1_555
Zn2 N1 1_555 1_555
Zn3 N3 1_555 1_555
Zn4 N4 1_555 1_555
N1 N23 1_555 1_555
N2 N11 1_555 1_555
N3 N20 1_555 1_555
N4 N19 1_555 1_555
N5 N18 1_555 1_555
N6 N11 1_555 1_555
N7 N10 1_555 1_555
N8 N14 1_555 1_555
N9 N20 1_555 1_555
N10 Zn4 1_555 1_555
N12 Zn1 1_555 1_555
N13 N19 1_555 1_555
N14 Zn1 1_555 1_555
N15 Zn2 1_555 1_555
N16 Zn3 1_555 1_555
N17 N23 1_555 1_555
N18 N12 1_555 1_555
Cl1 Zn2 1_555 1_555
Cl2 Zn3 1_555 1_555
Cl3 Zn1 1_555 1_555
Cl4 Zn4 1_555 1_555
N21 N7 1_555 1_555
N22 N8 1_555 1_555
N24 N13 1_555 1_555
N25 N17 1_555 1_555
C1 N14 1_555 1_555
C2 C3 1_555 1_555
C3 H1 1_555 1_555
H2 C3 1_555 1_555
C4 C2 1_555 1_555
H3 C4 1_555 1_555
C5 N4 1_555 1_555
C6 C8 1_555 1_555
C7 C2 1_555 1_555
C8 C10 1_555 1_555
N26 N6 1_555 1_555
C9 H4 1_555 1_555
C10 N12 1_555 1_555
C11 C14 1_555 1_555
C12 H5 1_555 1_555
C13 N1 1_555 1_555
C14 C28 1_555 1_555
N27 N9 1_555 1_555
C15 C11 1_555 1_555
H6 C15 1_555 1_555
N28 N5 1_555 1_555
C16 C12 1_555 1_555
H7 C16 1_555 1_555
C17 H8 1_555 1_555
H9 C17 1_555 1_555
C18 C24 1_555 1_555
C19 C6 1_555 1_555
H10 C19 1_555 1_555
C20 H11 1_555 1_555
C21 C11 1_555 1_555
H12 C21 1_555 1_555
H13 C21 1_555 1_555
C22 C4 1_555 1_555
H14 C22 1_555 1_555
C23 H15 1_555 1_555
C24 C34 1_555 1_555
C25 C18 1_555 1_555
H16 C25 1_555 1_555
C26 C6 1_555 1_555
C27 C20 1_555 1_555
H17 C27 1_555 1_555
C28 C1 1_555 1_555
C29 N10 1_555 1_555
C30 C14 1_555 1_555
H18 C30 1_555 1_555
C31 N2 1_555 1_555
C32 N3 1_555 1_555
C33 C7 1_555 1_555
H19 C33 1_555 1_555
C34 H20 1_555 1_555
C35 C19 1_555 1_555
H21 C35 1_555 1_555
C36 C23 1_555 1_555
H22 C36 1_555 1_555
C37 C18 1_555 1_555
C38 C24 1_555 1_555
H23 C38 1_555 1_555
H24 C38 1_555 1_555
C39 C7 1_555 1_555
C40 C39 1_555 1_555
N29 C40 1_555 1_555
N30 Zn4 1_555 1_555
N31 N29 1_555 1_555
N32 N30 1_555 1_555
H25 C8 1_555 1_555
H26 C39 1_555 1_555
H27 C39 1_555 1_555
H28 C8 1_555 1_555
H29 C28 1_555 1_555
H30 C37 1_555 1_555
H31 C37 1_555 1_555
H32 C28 1_555 1_555
Zn2_2 N28 1_555 1_555
Zn3_2 N29 1_555 1_555
N28_2 Zn2 1_555 1_555
N29_2 Zn3 1_555 1_555
N15 N22 1_555 1_555
N15 C1 1_555 1_555
N16 N21 1_555 1_555
N16 C29 1_555 1_555
N24 C5 1_555 1_555
N25 C13 1_555 1_555
C3 C5 1_555 1_555
N26 C31 1_555 1_555
C9 C22 1_555 1_555
C9 C33 1_555 1_555
C10 N28 1_555 1_555
C12 C15 1_555 1_555
C13 C21 1_555 1_555
N27 C32 1_555 1_555
C16 C30 1_555 1_555
C17 C26 1_555 1_555
C17 C31 1_555 1_555
C20 C35 1_555 1_555
C23 C25 1_555 1_555
C26 C27 1_555 1_555
C29 C38 1_555 1_555
C32 C37 1_555 1_555
C34 C36 1_555 1_555
C40 N30 1_555 1_555
N31 N32 1_555 1_555

#END
