
#######################################################################
#
#                 Cambridge Crystallographic Data Centre
#                                CCDC 
#
#######################################################################
#
# If this CIF has been generated from an entry in the Cambridge 
# Structural Database, then it will include bibliographic, chemical, 
# crystal, experimental, refinement or atomic coordinate data resulting 
# from the CCDC's data processing and validation procedures.
#
#######################################################################

data_RASPOS
_symmetry_cell_setting           orthorhombic
_symmetry_space_group_name_H-M   'I b a 2'
_symmetry_Int_Tables_number      45
_space_group_name_Hall           'I 2 -2c'
loop_
_symmetry_equiv_pos_site_id
_symmetry_equiv_pos_as_xyz
1 x,y,z
2 -x,-y,z
3 1/2+x,1/2-y,z
4 1/2-x,1/2+y,z
5 1/2+x,1/2+y,1/2+z
6 1/2-x,1/2-y,1/2+z
7 x,-y,1/2+z
8 -x,y,1/2+z
_cell_length_a                   10.0086(8)
_cell_length_b                   47.603(4)
_cell_length_c                   7.4879(6)
_cell_angle_alpha                90
_cell_angle_beta                 90
_cell_angle_gamma                90
_cell_volume                     3567.53
loop_
_atom_site_label
_atom_site_type_symbol
_atom_site_fract_x
_atom_site_fract_y
_atom_site_fract_z
C1 C 0.5964(3) 0.18889(6) 0.2145(4)
C2 C 0.7261(4) 0.18419(8) 0.1636(6)
H1 H 0.7601 0.1660 0.1598
C3 C 0.8064(5) 0.20706(10) 0.1177(6)
H2 H 0.8937 0.2041 0.0793
C4 C 0.7573(5) 0.23380(10) 0.1289(7)
H3 H 0.8105 0.2490 0.0960
C5 C 0.6303(5) 0.23821(9) 0.1886(7)
H4 H 0.5984 0.2565 0.1985
C6 C 0.5485(4) 0.21612(7) 0.2345(7)
H5 H 0.4628 0.2193 0.2779
C7 C 0.3786(3) 0.16238(6) 0.2570(6)
C8 C 0.3446(3) 0.13791(6) 0.3433(4)
C9 C 0.4692(3) 0.12665(6) 0.3927(4)
C10 C 0.2039(3) 0.12778(7) 0.3764(4)
C11 C 0.5051(4) 0.10006(5) 0.4900(5)
C12 C 0.2308(3) 0.04189(7) 0.7503(9)
H6 H 0.3226 0.0427 0.7685
C13 C 0.1710(3) 0.01571(7) 0.7462(7)
H7 H 0.2220 -0.0004 0.7617
C14 C 0.0345(3) 0.01375(6) 0.7190(5)
C15 C -0.0332(3) 0.03874(7) 0.6960(6)
H8 H -0.1250 0.0386 0.6761
C16 C 0.0342(3) 0.06382(7) 0.7022(5)
H9 H -0.0142 0.0803 0.6864
Cl1 Cl 0.27444(9) 0.185550(18) 0.15340(13)
Co1 Co 0.26886(3) 0.104182(8) 0.75064(7)
N1 N 0.5132(2) 0.16538(5) 0.2597(4)
N2 N 0.5706(2) 0.14252(5) 0.3386(4)
N3 N 0.1658(2) 0.06576(5) 0.7299(4)
O1 O 0.12215(19) 0.13054(5) 0.2537(4)
O2 O 0.1754(2) 0.11864(5) 0.5279(3)
O3 O 0.4231(2) 0.08898(5) 0.5923(3)
O4 O 0.6214(2) 0.09074(5) 0.4656(3)
O5 O 0.1306(2) 0.12577(5) 0.8912(3)
H10 H 0.1311 0.1289 0.9999
H11 H 0.0545 0.1250 0.8501
C1G C 0.4036(3) 0.18889(6) 0.7145(4)
C2G C 0.2739(4) 0.18419(8) 0.6636(6)
H1G H 0.2399 0.1660 0.6598
C3G C 0.1936(5) 0.20706(10) 0.6177(6)
H2G H 0.1063 0.2041 0.5793
C4G C 0.2427(5) 0.23380(10) 0.6289(7)
H3G H 0.1895 0.2490 0.5960
C5G C 0.3697(5) 0.23821(9) 0.6886(7)
H4G H 0.4016 0.2565 0.6985
C6G C 0.4515(4) 0.21612(7) 0.7345(7)
H5G H 0.5372 0.2193 0.7779
C7G C 0.6214(3) 0.16238(6) 0.7570(6)
C8G C 0.6554(3) 0.13791(6) 0.8433(4)
C9G C 0.5308(3) 0.12665(6) 0.8927(4)
C10G C 0.7961(3) 0.12778(7) 0.8764(4)
C11G C 0.4949(4) 0.10006(5) 0.9900(5)
C12A C -0.2308(3) -0.04189(7) 0.7503(9)
H6A H -0.3226 -0.0427 0.7685
C13A C -0.1710(3) -0.01571(7) 0.7462(7)
H7A H -0.2220 0.0004 0.7617
C14A C -0.0345(3) -0.01375(6) 0.7190(5)
C15A C 0.0332(3) -0.03874(7) 0.6960(6)
H8A H 0.1250 -0.0386 0.6761
C16A C -0.0342(3) -0.06382(7) 0.7022(5)
H9A H 0.0142 -0.0803 0.6864
Cl1G Cl 0.72556(9) 0.185550(18) 0.65340(13)
Co1A Co -0.26886(3) -0.104182(8) 0.75064(7)
Co1G Co 0.73114(3) 0.104182(8) 0.25064(7)
Co1G_2 Co 0.73114(3) 0.104182(8) 1.25064(7)
N1G N 0.4868(2) 0.16538(5) 0.7597(4)
N2G N 0.4294(2) 0.14252(5) 0.8386(4)
N3A N -0.1658(2) -0.06576(5) 0.7299(4)
O1G O 0.87785(19) 0.13054(5) 0.7537(4)
O2G O 0.8246(2) 0.11864(5) 1.0279(3)
O2A O -0.1754(2) -0.11864(5) 0.5279(3)
O3G O 0.5769(2) 0.08898(5) 1.0923(3)
O3A O -0.4231(2) -0.08898(5) 0.5923(3)
O4G O 0.3786(2) 0.09074(5) 0.9656(3)
O4F O -0.3786(2) -0.09074(5) 0.9656(3)
O5A O -0.1306(2) -0.12577(5) 0.8912(3)
H10A H -0.1311 -0.1289 0.9999
H11A H -0.0545 -0.1250 0.8501
O6 O 0.3851(4) 0.03804(9) 0.1990(8)
H12 H 0.4113 0.0341 0.3350
H13 H 0.3567 0.0545 0.2023
O7 O 0.5000 0.0000 0.9491(11)
H14 H 0.4765 0.0164 1.0336
H14A H 0.5235 -0.0164 1.0336
loop_
_geom_bond_atom_site_label_1
_geom_bond_atom_site_label_2
_geom_bond_site_symmetry_1
_geom_bond_site_symmetry_2
C1 C2 1_555 1_555
C2 H1 1_555 1_555
C3 C2 1_555 1_555
H2 C3 1_555 1_555
C4 C3 1_555 1_555
H3 C4 1_555 1_555
C5 C4 1_555 1_555
H4 C5 1_555 1_555
C6 C1 1_555 1_555
H5 C6 1_555 1_555
C7 C8 1_555 1_555
C8 C9 1_555 1_555
C9 C11 1_555 1_555
C10 C8 1_555 1_555
C11 O3 1_555 1_555
C12 H6 1_555 1_555
C13 C12 1_555 1_555
H7 C13 1_555 1_555
C14 C13 1_555 1_555
C15 C14 1_555 1_555
H8 C15 1_555 1_555
C16 C15 1_555 1_555
H9 C16 1_555 1_555
Cl1 C7 1_555 1_555
Co1 N3 1_555 1_555
N1 C1 1_555 1_555
N2 C9 1_555 1_555
N3 C12 1_555 1_555
O1 C10 1_555 1_555
O2 C10 1_555 1_555
O3 Co1 1_555 1_555
O4 C11 1_555 1_555
O5 Co1 1_555 1_555
H10 O5 1_555 1_555
H11 O5 1_555 1_555
O6 H12 1_555 1_555
H13 O6 1_555 1_555
O7 H14 1_555 1_555
C1G C2G 1_555 1_555
C2G H1G 1_555 1_555
C3G C2G 1_555 1_555
H2G C3G 1_555 1_555
C4G C3G 1_555 1_555
H3G C4G 1_555 1_555
C5G C4G 1_555 1_555
H4G C5G 1_555 1_555
C6G C1G 1_555 1_555
H5G C6G 1_555 1_555
C7G C8G 1_555 1_555
C8G C9G 1_555 1_555
C9G C11G 1_555 1_555
C10G C8G 1_555 1_555
C11G O3G 1_555 1_555
C12A H6A 1_555 1_555
C13A C12A 1_555 1_555
H7A C13A 1_555 1_555
C14A C14 1_555 1_555
C15A C14A 1_555 1_555
H8A C15A 1_555 1_555
C16A C15A 1_555 1_555
H9A C16A 1_555 1_555
Cl1G C7G 1_555 1_555
Co1A N3A 1_555 1_555
Co1G O4 1_555 1_555
Co1G_2 O2G 1_555 1_555
N1G C1G 1_555 1_555
N2G C9G 1_555 1_555
N3A C12A 1_555 1_555
O1G C10G 1_555 1_555
O2G C10G 1_555 1_555
O2A Co1A 1_555 1_555
O3G Co1G_2 1_555 1_555
O3A Co1A 1_555 1_555
O4G Co1 1_555 1_555
O4F Co1A 1_555 1_555
O5A Co1A 1_555 1_555
H10A O5A 1_555 1_555
H11A O5A 1_555 1_555
H14A O7 1_555 1_555
C5 C6 1_555 1_555
C7 N1 1_555 1_555
C16 N3 1_555 1_555
Co1 O2 1_555 1_555
N1 N2 1_555 1_555
C5G C6G 1_555 1_555
C7G N1G 1_555 1_555
C11G O4G 1_555 1_555
C13A C14A 1_555 1_555
C16A N3A 1_555 1_555
N1G N2G 1_555 1_555

#END
