
#######################################################################
#
#                 Cambridge Crystallographic Data Centre
#                                CCDC 
#
#######################################################################
#
# If this CIF has been generated from an entry in the Cambridge 
# Structural Database, then it will include bibliographic, chemical, 
# crystal, experimental, refinement or atomic coordinate data resulting 
# from the CCDC's data processing and validation procedures.
#
#######################################################################

data_RASREK
_symmetry_cell_setting           monoclinic
_symmetry_space_group_name_H-M   'C 2/c'
_symmetry_Int_Tables_number      15
_space_group_name_Hall           '-C 2yn'
loop_
_symmetry_equiv_pos_site_id
_symmetry_equiv_pos_as_xyz
1 x,y,z
2 -x,y,1/2-z
3 1/2+x,1/2+y,z
4 1/2-x,1/2+y,1/2-z
5 -x,-y,-z
6 x,-y,1/2+z
7 1/2-x,1/2-y,-z
8 1/2+x,1/2-y,1/2+z
_cell_length_a                   19.7124(14)
_cell_length_b                   10.4826(7)
_cell_length_c                   13.6580(10)
_cell_angle_alpha                90
_cell_angle_beta                 121.775(2)
_cell_angle_gamma                90
_cell_volume                     2399.26
loop_
_atom_site_label
_atom_site_type_symbol
_atom_site_fract_x
_atom_site_fract_y
_atom_site_fract_z
Cd1 Cd 0.195412(14) -0.13375(2) 0.31097(2)
O1 O 0.17945(18) -0.1267(2) 0.4676(3)
N1 N 0.01756(17) 0.1565(3) 0.1362(3)
O2 O 0.22203(17) -0.1704(3) 0.1650(3)
O3 O -0.17039(17) 0.6426(2) -0.0568(2)
N2 N 0.09150(18) 0.1122(3) 0.1977(3)
O4 O 0.19088(13) 0.5379(3) 0.3331(2)
C1 C -0.0701(2) 0.3385(4) 0.0444(3)
H1 H -0.1117 0.2837 -0.0032
O5 O 0.11242(16) 0.7051(3) 0.2474(2)
O6 O -0.21879(14) 0.4488(3) -0.1093(2)
C2 C 0.00458(19) 0.2915(3) 0.1247(3)
C3 C 0.0670(2) 0.3710(3) 0.1953(3)
H2 H 0.1163 0.3366 0.2492
N3 N 0.08599(18) -0.0126(3) 0.1968(3)
C4 C -0.0357(2) 0.0603(4) 0.0951(4)
H3 H -0.0910 0.0667 0.0495
C5 C 0.1260(2) 0.5874(3) 0.2621(3)
C6 C -0.08120(18) 0.4701(3) 0.0368(3)
C7 C -0.16223(19) 0.5231(3) -0.0480(3)
C8 C 0.0080(2) -0.0465(4) 0.1342(4)
H4 H -0.0118 -0.1294 0.1206
C9 C 0.05684(19) 0.5009(3) 0.1866(3)
C10 C -0.01873(19) 0.5504(3) 0.1060(3)
H5 H -0.0266 0.6382 0.0993
H6 H 0.168(2) -0.2008(17) 0.481(2)
H7 H 0.2208(14) -0.099(3) 0.5271(15)
H8 H 0.235(2) -0.2439(13) 0.155(3)
H9 H 0.250(2) -0.115(2) 0.155(3)
Cd1_2 Cd 0.195412(14) 0.86625(2) 0.31097(2)
Cd1G Cd -0.304588(14) 0.63375(2) -0.18903(2)
O3G O 0.32961(17) -0.1426(2) 0.4432(2)
O5_2 O 0.11242(16) -0.2949(3) 0.2474(2)
O6G O 0.28121(14) 0.0512(3) 0.3907(2)
C7G C 0.33777(19) -0.0231(3) 0.4520(3)
loop_
_geom_bond_atom_site_label_1
_geom_bond_atom_site_label_2
_geom_bond_site_symmetry_1
_geom_bond_site_symmetry_2
Cd1 O1 1_555 1_555
O1 H6 1_555 1_555
N1 N2 1_555 1_555
O2 Cd1 1_555 1_555
O3 C7 1_555 1_555
N2 N3 1_555 1_555
O4 C5 1_555 1_555
C1 H1 1_555 1_555
O5 C5 1_555 1_555
O6 C7 1_555 1_555
C2 N1 1_555 1_555
C3 C2 1_555 1_555
H2 C3 1_555 1_555
N3 Cd1 1_555 1_555
C4 N1 1_555 1_555
H3 C4 1_555 1_555
C5 C9 1_555 1_555
C6 C1 1_555 1_555
C7 C6 1_555 1_555
C8 N3 1_555 1_555
H4 C8 1_555 1_555
C9 C3 1_555 1_555
C10 C6 1_555 1_555
H5 C10 1_555 1_555
H7 O1 1_555 1_555
H8 O2 1_555 1_555
H9 O2 1_555 1_555
Cd1_2 O5 1_555 1_555
Cd1G O3 1_555 1_555
O3G Cd1 1_555 1_555
O5_2 Cd1 1_555 1_555
O6G Cd1 1_555 1_555
C7G O3G 1_555 1_555
C1 C2 1_555 1_555
O6 Cd1G 1_555 1_555
C4 C8 1_555 1_555
C9 C10 1_555 1_555
O6G C7G 1_555 1_555

#END
