
#######################################################################
#
#                 Cambridge Crystallographic Data Centre
#                                CCDC 
#
#######################################################################
#
# If this CIF has been generated from an entry in the Cambridge 
# Structural Database, then it will include bibliographic, chemical, 
# crystal, experimental, refinement or atomic coordinate data resulting 
# from the CCDC's data processing and validation procedures.
#
#######################################################################

data_RASRAG
_symmetry_cell_setting           monoclinic
_symmetry_space_group_name_H-M   'P 21/a'
_symmetry_Int_Tables_number      14
_space_group_name_Hall           '-P 2yab'
loop_
_symmetry_equiv_pos_site_id
_symmetry_equiv_pos_as_xyz
1 x,y,z
2 1/2-x,1/2+y,-z
3 -x,-y,-z
4 1/2+x,1/2-y,z
_cell_length_a                   7.2400(12)
_cell_length_b                   17.005(3)
_cell_length_c                   10.4337(17)
_cell_angle_alpha                90
_cell_angle_beta                 100.195(4)
_cell_angle_gamma                90
_cell_volume                     1264.28
loop_
_atom_site_label
_atom_site_type_symbol
_atom_site_fract_x
_atom_site_fract_y
_atom_site_fract_z
Cu1 Cu 0.27705(11) 0.57051(4) 0.64329(7)
O1 O 0.2996(6) 0.4772(2) 0.7628(4)
O2 O 0.5490(7) 0.5670(2) 0.6421(5)
O3 O 0.2840(9) 0.0614(3) 0.6716(5)
C1 C 0.2805(8) 0.2734(3) 0.6644(5)
H1 H 0.2927 0.2809 0.5780
N1 N 0.1943(8) 0.1726(3) 1.2180(5)
O4 O 0.2755(7) 0.4246(2) 0.5672(4)
O5 O 0.0026(7) 0.5674(3) 0.6368(5)
N2 N 0.2183(7) 0.2398(3) 1.0508(5)
O6 O 0.2577(7) 0.1441(3) 0.5036(4)
N3 N 0.2218(8) 0.1664(3) 1.0994(5)
C2 C 0.2422(8) 0.2515(3) 0.9190(5)
C3 C 0.2481(8) 0.1872(3) 0.8402(5)
H2 H 0.2383 0.1368 0.8727
C4 C 0.2859(8) 0.4178(3) 0.6891(6)
C5 C 0.1869(11) 0.2916(4) 1.1406(6)
H3 H 0.1769 0.3459 1.1317
C6 C 0.1728(10) 0.2485(4) 1.2473(6)
H4 H 0.1519 0.2679 1.3268
C7 C 0.2565(8) 0.3279(3) 0.8735(5)
H5 H 0.2542 0.3710 0.9282
C8 C 0.2741(8) 0.3378(3) 0.7447(6)
C9 C 0.2688(8) 0.1981(3) 0.7114(6)
C10 C 0.2701(9) 0.1291(4) 0.6235(6)
H6 H 0.598(7) 0.5216(17) 0.657(6)
H7 H 0.578(7) 0.582(3) 0.570(3)
H8 H -0.043(7) 0.533(3) 0.581(4)
H9 H -0.020(7) 0.557(4) 0.711(2)
Cu1A Cu 0.22295(11) 0.07051(4) 1.35671(7)
Cu1A_2 Cu 0.22295(11) 0.07051(4) 0.35671(7)
N1A N 0.3057(8) 0.6726(3) 0.7820(5)
O6A O 0.2423(7) 0.6441(3) 0.4964(4)
loop_
_geom_bond_atom_site_label_1
_geom_bond_atom_site_label_2
_geom_bond_site_symmetry_1
_geom_bond_site_symmetry_2
Cu1 O1 1_555 1_555
O1 C4 1_555 1_555
O2 Cu1 1_555 1_555
O3 C10 1_555 1_555
C1 H1 1_555 1_555
N1 N3 1_555 1_555
O4 Cu1 1_555 1_555
O5 Cu1 1_555 1_555
N2 N3 1_555 1_555
O6 C10 1_555 1_555
C2 N2 1_555 1_555
C3 C2 1_555 1_555
H2 C3 1_555 1_555
C4 O4 1_555 1_555
C5 N2 1_555 1_555
H3 C5 1_555 1_555
C6 N1 1_555 1_555
H4 C6 1_555 1_555
C7 C2 1_555 1_555
H5 C7 1_555 1_555
C8 C1 1_555 1_555
C9 C1 1_555 1_555
C10 C9 1_555 1_555
H6 O2 1_555 1_555
H7 O2 1_555 1_555
H8 O5 1_555 1_555
H9 O5 1_555 1_555
Cu1A N1 1_555 1_555
Cu1A_2 O6 1_555 1_555
N1A Cu1 1_555 1_555
O6A Cu1 1_555 1_555
C3 C9 1_555 1_555
C4 C8 1_555 1_555
C5 C6 1_555 1_555
C7 C8 1_555 1_555

#END
