
#######################################################################
#
#                 Cambridge Crystallographic Data Centre
#                                CCDC 
#
#######################################################################
#
# If this CIF has been generated from an entry in the Cambridge 
# Structural Database, then it will include bibliographic, chemical, 
# crystal, experimental, refinement or atomic coordinate data resulting 
# from the CCDC's data processing and validation procedures.
#
#######################################################################

data_RASYUG
_symmetry_cell_setting           monoclinic
_symmetry_space_group_name_H-M   'P 21/c'
_symmetry_Int_Tables_number      14
_space_group_name_Hall           '-P 2ybc'
loop_
_symmetry_equiv_pos_site_id
_symmetry_equiv_pos_as_xyz
1 x,y,z
2 -x,1/2+y,1/2-z
3 -x,-y,-z
4 x,1/2-y,1/2+z
_cell_length_a                   13.701(3)
_cell_length_b                   7.5535(15)
_cell_length_c                   19.577(4)
_cell_angle_alpha                90
_cell_angle_beta                 94.37(3)
_cell_angle_gamma                90
_cell_volume                     2020.14
loop_
_atom_site_label
_atom_site_type_symbol
_atom_site_fract_x
_atom_site_fract_y
_atom_site_fract_z
Cu1 Cu 0.63358(3) 0.94945(6) 0.83429(2)
N1 N 0.5962(2) 0.8187(4) 0.91565(15)
N2 N 0.7582(2) 0.8167(4) 0.85560(16)
H1 H 0.713(3) 1.106(5) 0.742(2)
N3 N 0.6735(2) 1.1322(4) 0.76753(16)
C1 C 0.6705(3) 0.7296(5) 0.94953(19)
C2 C 0.6594(3) 0.6501(6) 1.0116(2)
H2 H 0.7106 0.5871 1.0340
C3 C 0.5710(4) 0.6654(6) 1.0400(2)
H3 H 0.5630 0.6161 1.0828
C4 C 0.4948(3) 0.7528(6) 1.0057(2)
H4 H 0.4344 0.7606 1.0242
C5 C 0.5093(3) 0.8291(5) 0.9434(2)
H5 H 0.4578 0.8892 0.9199
C6 C 0.7619(3) 0.7280(5) 0.9153(2)
C7 C 0.8460(3) 0.6439(6) 0.9416(2)
H6 H 0.8469 0.5834 0.9831
C8 C 0.9286(3) 0.6508(7) 0.9057(3)
H7 H 0.9863 0.5972 0.9231
C9 C 0.9250(3) 0.7360(7) 0.8451(3)
H8 H 0.9797 0.7390 0.8198
C10 C 0.8378(3) 0.8204(6) 0.8205(2)
H9 H 0.8356 0.8800 0.7789
C11 C 0.8122(3) 1.2537(6) 0.8402(2)
C12 C 0.8163(3) 1.1961(6) 0.9069(2)
C13 C 0.9070(3) 1.1602(6) 0.9423(2)
H10 H 0.9099 1.1242 0.9878
C14 C 0.9914(3) 1.1780(8) 0.9096(3)
H11 H 1.0512 1.1522 0.9331
C15 C 0.9891(3) 1.2323(8) 0.8439(3)
H12 H 1.0468 1.2438 0.8222
C16 C 0.8996(3) 1.2710(7) 0.8089(3)
H13 H 0.8981 1.3092 0.7637
C17 C 0.7173(3) 1.2932(5) 0.8010(2)
H14 H 0.6721 1.3420 0.8318
H15 H 0.7277 1.3815 0.7663
C18 C 0.5813(2) 1.1794(5) 0.72662(19)
H16 H 0.5702 1.0980 0.6885
H17 H 0.5864 1.2981 0.7083
C19 C 0.4967(2) 1.1705(5) 0.77163(19)
O1 O 0.50982(17) 1.0796(3) 0.82562(13)
O2 O 0.41873(18) 1.2475(4) 0.75356(15)
O3 O 0.73035(19) 1.1738(4) 0.93545(15)
H18 H 0.7410 1.1517 0.9764
Cu1A Cu 0.36642(3) 1.44945(6) 0.66571(2)
O2A O 0.58127(18) 0.7475(4) 0.74644(15)
O4 O 0.2611(2) 1.1580(5) 0.83497(18)
O5 O 0.7422(3) 1.1011(5) 1.06755(19)
Cl1 Cl 0.81062(8) 1.05388(17) 0.64357(6)
loop_
_geom_bond_atom_site_label_1
_geom_bond_atom_site_label_2
_geom_bond_site_symmetry_1
_geom_bond_site_symmetry_2
Cu1 N1 1_555 1_555
N1 C1 1_555 1_555
N2 Cu1 1_555 1_555
H1 N3 1_555 1_555
N3 Cu1 1_555 1_555
C1 C2 1_555 1_555
C2 H2 1_555 1_555
C3 C2 1_555 1_555
H3 C3 1_555 1_555
C4 C3 1_555 1_555
H4 C4 1_555 1_555
C5 N1 1_555 1_555
H5 C5 1_555 1_555
C6 N2 1_555 1_555
C7 C6 1_555 1_555
H6 C7 1_555 1_555
C8 C7 1_555 1_555
H7 C8 1_555 1_555
C9 C8 1_555 1_555
H8 C9 1_555 1_555
C10 N2 1_555 1_555
H9 C10 1_555 1_555
C11 C12 1_555 1_555
C12 C13 1_555 1_555
C13 H10 1_555 1_555
C14 C13 1_555 1_555
H11 C14 1_555 1_555
C15 C14 1_555 1_555
H12 C15 1_555 1_555
C16 C11 1_555 1_555
H13 C16 1_555 1_555
C17 N3 1_555 1_555
H14 C17 1_555 1_555
H15 C17 1_555 1_555
C18 N3 1_555 1_555
H16 C18 1_555 1_555
H17 C18 1_555 1_555
C19 C18 1_555 1_555
O1 Cu1 1_555 1_555
O2 C19 1_555 1_555
O3 Cu1 1_555 1_555
H18 O3 1_555 1_555
Cu1A O2 1_555 1_555
O2A Cu1 1_555 1_555
C1 C6 1_555 1_555
C4 C5 1_555 1_555
C9 C10 1_555 1_555
C11 C17 1_555 1_555
C12 O3 1_555 1_555
C15 C16 1_555 1_555
C19 O1 1_555 1_555

#END
