
#######################################################################
#
#                 Cambridge Crystallographic Data Centre
#                                CCDC 
#
#######################################################################
#
# If this CIF has been generated from an entry in the Cambridge 
# Structural Database, then it will include bibliographic, chemical, 
# crystal, experimental, refinement or atomic coordinate data resulting 
# from the CCDC's data processing and validation procedures.
#
#######################################################################

data_RATNEH
_symmetry_cell_setting           monoclinic
_symmetry_space_group_name_H-M   'C 2/c'
_symmetry_Int_Tables_number      15
_space_group_name_Hall           '-C 2yn'
loop_
_symmetry_equiv_pos_site_id
_symmetry_equiv_pos_as_xyz
1 x,y,z
2 -x,y,1/2-z
3 1/2+x,1/2+y,z
4 1/2-x,1/2+y,1/2-z
5 -x,-y,-z
6 x,-y,1/2+z
7 1/2-x,1/2-y,-z
8 1/2+x,1/2-y,1/2+z
_cell_length_a                   11.8243(8)
_cell_length_b                   17.7204(12)
_cell_length_c                   8.4141(6)
_cell_angle_alpha                90
_cell_angle_beta                 96.2970(10)
_cell_angle_gamma                90
_cell_volume                     1752.38
loop_
_atom_site_label
_atom_site_type_symbol
_atom_site_fract_x
_atom_site_fract_y
_atom_site_fract_z
Cd1 Cd 0.0000 0.391408(12) -0.2500
C1 C 0.34095(19) 0.34691(13) -0.0011(3)
H1 H 0.4018 0.3139 0.0210
C2 C 0.24455(18) 0.33399(13) -0.0957(3)
H2 H 0.2275 0.2895 -0.1518
C3 C 0.22906(17) 0.44555(13) -0.0053(3)
H3 H 0.2009 0.4931 0.0154
C4 C 0.41652(17) 0.45834(13) 0.1578(3)
C5 C 0.41900(19) 0.53613(14) 0.1621(3)
H4 H 0.3619 0.5627 0.1013
C6 C 0.5000 0.41830(19) 0.2500
H5 H 0.5000 0.3658 0.2500
C7 C -0.09443(19) 0.32581(15) 0.0071(3)
C8 C -0.1433(3) 0.2940(2) 0.1501(3)
H6 H -0.2249 0.2947 0.1316
H7 H -0.1187 0.3240 0.2426
H8 H -0.1175 0.2430 0.1677
N1 N 0.5000 0.57472(17) 0.2500
N2 N 0.33187(14) 0.41917(11) 0.0568(2)
N3 N 0.17463(16) 0.39536(10) -0.0982(2)
O1 O -0.08978(16) 0.39666(9) -0.0073(2)
O2 O -0.06036(15) 0.28305(10) -0.0939(2)
O3 O 0.0000 0.52070(17) -0.2500
H9 H 0.020(2) 0.5451(15) -0.184(3)
Cd1_2 Cd 1.0000 0.391408(12) 0.7500
C1A C 0.65905(19) 0.34691(13) 0.5011(3)
H1A H 0.5982 0.3139 0.4790
C2A C 0.75545(18) 0.33399(13) 0.5957(3)
H2A H 0.7725 0.2895 0.6518
C3A C 0.77094(17) 0.44555(13) 0.5053(3)
H3A H 0.7991 0.4931 0.4846
C4A C 0.58348(17) 0.45834(13) 0.3422(3)
C5A C 0.58100(19) 0.53613(14) 0.3379(3)
H4A H 0.6381 0.5627 0.3987
C7A C 0.09443(19) 0.32581(15) -0.5071(3)
C8A C 0.1433(3) 0.2940(2) -0.6501(3)
H6A H 0.2249 0.2947 -0.6316
H7A H 0.1187 0.3240 -0.7426
H8A H 0.1175 0.2430 -0.6677
N2A N 0.66813(14) 0.41917(11) 0.4432(2)
N3A N 0.82537(16) 0.39536(10) 0.5982(2)
N3A_2 N -0.17463(16) 0.39536(10) -0.4018(2)
O1A O 0.08978(16) 0.39666(9) -0.4927(2)
O2A O 0.06036(15) 0.28305(10) -0.4061(2)
H9A H -0.020(2) 0.5451(15) -0.316(3)
loop_
_geom_bond_atom_site_label_1
_geom_bond_atom_site_label_2
_geom_bond_site_symmetry_1
_geom_bond_site_symmetry_2
Cd1 N3 1_555 1_555
C1 H1 1_555 1_555
C2 C1 1_555 1_555
H2 C2 1_555 1_555
C3 H3 1_555 1_555
C4 C5 1_555 1_555
C5 H4 1_555 1_555
C6 C4 1_555 1_555
H5 C6 1_555 1_555
C7 C8 1_555 1_555
C8 H6 1_555 1_555
H7 C8 1_555 1_555
H8 C8 1_555 1_555
N1 C5 1_555 1_555
N2 C1 1_555 1_555
N3 C2 1_555 1_555
O1 Cd1 1_555 1_555
O2 Cd1 1_555 1_555
O3 Cd1 1_555 1_555
H9 O3 1_555 1_555
Cd1_2 N3A 1_555 1_555
C1A H1A 1_555 1_555
C2A C1A 1_555 1_555
H2A C2A 1_555 1_555
C3A H3A 1_555 1_555
C4A C6 1_555 1_555
C5A N1 1_555 1_555
H4A C5A 1_555 1_555
C7A C8A 1_555 1_555
C8A H6A 1_555 1_555
H7A C8A 1_555 1_555
H8A C8A 1_555 1_555
N2A C1A 1_555 1_555
N3A C2A 1_555 1_555
N3A_2 Cd1 1_555 1_555
O1A Cd1 1_555 1_555
O2A Cd1 1_555 1_555
H9A O3 1_555 1_555
C3 N2 1_555 1_555
C3 N3 1_555 1_555
C4 N2 1_555 1_555
C7 O1 1_555 1_555
C7 O2 1_555 1_555
C3A N2A 1_555 1_555
C3A N3A 1_555 1_555
C4A C5A 1_555 1_555
C4A N2A 1_555 1_555
C7A O1A 1_555 1_555
C7A O2A 1_555 1_555

#END
