
#######################################################################
#
#                 Cambridge Crystallographic Data Centre
#                                CCDC 
#
#######################################################################
#
# If this CIF has been generated from an entry in the Cambridge 
# Structural Database, then it will include bibliographic, chemical, 
# crystal, experimental, refinement or atomic coordinate data resulting 
# from the CCDC's data processing and validation procedures.
#
#######################################################################

data_RATRUB
_symmetry_cell_setting           orthorhombic
_symmetry_space_group_name_H-M   'P n a 21'
_symmetry_Int_Tables_number      33
_space_group_name_Hall           'P 2c -2n'
loop_
_symmetry_equiv_pos_site_id
_symmetry_equiv_pos_as_xyz
1 x,y,z
2 -x,-y,1/2+z
3 1/2-x,1/2+y,1/2+z
4 1/2+x,1/2-y,z
_cell_length_a                   17.4400(4)
_cell_length_b                   10.1520(3)
_cell_length_c                   17.7150(4)
_cell_angle_alpha                90
_cell_angle_beta                 90
_cell_angle_gamma                90
_cell_volume                     3136.46
loop_
_atom_site_label
_atom_site_type_symbol
_atom_site_fract_x
_atom_site_fract_y
_atom_site_fract_z
C1 C 0.4839(5) 1.0492(10) -0.5498(5)
C2 C 0.4143(6) 1.0698(13) -0.5206(6)
H1 H 0.3758 1.1153 -0.5459
C3 C 0.4048(6) 1.0165(12) -0.4488(6)
H2 H 0.3594 1.0225 -0.4214
C4 C 0.4683(5) 0.9554(10) -0.4232(5)
C5 C 0.4790(7) 0.8893(14) -0.3504(6)
C6 C 0.5164(7) 1.0944(12) -0.6231(5)
C7 C 0.6728(5) 0.4089(10) 0.0823(5)
C8 C 0.7448(6) 0.3991(12) 0.0521(6)
H3 H 0.7865 0.3617 0.0769
C9 C 0.7481(6) 0.4527(13) -0.0211(6)
H4 H 0.7927 0.4564 -0.0498
C10 C 0.6787(6) 0.4986(11) -0.0456(5)
C11 C 0.6616(6) 0.5557(12) -0.1209(5)
C12 C 0.6439(7) 0.3644(12) 0.1567(5)
C13 C 0.3481(5) 0.4777(10) 0.0745(5)
C14 C 0.4155(5) 0.4416(11) 0.0412(6)
H5 H 0.4512 0.386 0.0637
C15 C 0.4249(6) 0.4977(12) -0.0306(5)
H6 H 0.467 0.4819 -0.0616
C16 C 0.3654(5) 0.5781(10) -0.0500(5)
C17 C 0.3575(7) 0.6555(12) -0.1201(5)
C18 C 0.3211(6) 0.4374(12) 0.1501(5)
C19 C 0.3000(14) 1.3049(18) -0.3198(11)
H7 H 0.3544 1.3176 -0.3237
H8 H 0.2747 1.3889 -0.3195
H9 H 0.2823 1.2542 -0.3621
C20 C 0.3099(13) 1.3461(19) -0.1718(14)
H10 H 0.2934 1.3257 -0.1214
H11 H 0.2883 1.4289 -0.1871
H12 H 0.3648 1.3518 -0.173
C21 C 0.5450(16) 0.215(2) -0.1732(14)
H13 H 0.4979 0.2419 -0.1498
H14 H 0.5856 0.2169 -0.1367
H15 H 0.5395 0.1271 -0.1926
C22 C 0.5398(17) 0.219(2) -0.3213(15)
H16 H 0.4857 0.2024 -0.3182
H17 H 0.5671 0.1372 -0.317
H18 H 0.5515 0.2594 -0.3689
O2 O 0.5388(5) 0.8247(7) -0.3379(4)
O3 O 0.4238(4) 0.8929(8) -0.3045(4)
O4 O 0.5860(4) 1.0680(7) -0.6352(4)
O5 O 0.4700(4) 1.1514(7) -0.6675(4)
O6 O 0.5925(4) 0.5892(9) -0.1346(4)
O7 O 0.7141(4) 0.5539(8) -0.1673(4)
O8 O 0.5748(4) 0.3843(8) 0.1706(4)
O9 O 0.6925(4) 0.3088(7) 0.2003(4)
O10 O 0.2995(4) 0.7227(8) -0.1319(4)
O11 O 0.4144(4) 0.6520(7) -0.1655(4)
O12 O 0.2521(3) 0.4546(7) 0.1678(3)
O13 O 0.3697(4) 0.3845(8) 0.1937(4)
O14 O 0.3385(4) 1.1129(6) -0.2287(8)
O15 O 0.5077(4) 0.4312(7) -0.2440(8)
S1 S 0.54115(13) 0.9618(3) -0.48802(14)
S2 S 0.61001(12) 0.4817(3) 0.02154(13)
S3 S 0.29672(13) 0.5817(3) 0.01870(14)
S4 S 0.27869(13) 1.2195(2) -0.2348(3)
S5 S 0.56706(17) 0.3236(3) -0.2482(3)
Tb1 Tb 0.52088(2) 0.66124(4) -0.24096(2)
Tb2 Tb 0.321099(18) 0.88231(3) -0.22713(2)
O4A O 0.4140(4) 0.9320(7) -0.1352(4)
O5A O 0.5300(4) 0.8486(7) -0.1675(4)
O7C O 0.2141(4) 0.9461(8) -0.1673(4)
O8A O 0.4252(4) 0.6157(8) -0.3294(4)
O9A O 0.3075(4) 0.6912(7) -0.2997(4)
O12B O 0.2479(3) 0.9546(7) -0.3322(3)
O13A O 0.6303(4) 0.6155(8) -0.3063(4)
Tb1A Tb 0.47912(2) 0.33876(4) 0.25904(2)
Tb1A_2 Tb 0.47912(2) 1.33876(4) -0.74096(2)
Tb2A Tb 0.678901(18) 0.11769(3) 0.27287(2)
Tb2A_2 Tb 0.678901(18) 1.11769(3) -0.72713(2)
Tb2B Tb 0.178901(18) 0.38231(3) 0.27287(2)
Tb2C Tb 0.821099(18) 0.61769(3) -0.22713(2)
O1 O 0.1700(5) 0.5309(11) -0.2491(14)
H19 H 0.1457 0.615 -0.2295
H20 H 0.2187 0.5643 -0.2746
loop_
_geom_bond_atom_site_label_1
_geom_bond_atom_site_label_2
_geom_bond_site_symmetry_1
_geom_bond_site_symmetry_2
C1 C2 1_555 1_555
C2 H1 1_555 1_555
C3 C2 1_555 1_555
H2 C3 1_555 1_555
C4 C3 1_555 1_555
C5 C4 1_555 1_555
C6 C1 1_555 1_555
C7 C8 1_555 1_555
C8 H3 1_555 1_555
C9 C8 1_555 1_555
H4 C9 1_555 1_555
C10 C9 1_555 1_555
C11 C10 1_555 1_555
C12 C7 1_555 1_555
C13 C14 1_555 1_555
C14 H5 1_555 1_555
C15 C14 1_555 1_555
H6 C15 1_555 1_555
C16 C15 1_555 1_555
C17 C16 1_555 1_555
C18 C13 1_555 1_555
C19 H7 1_555 1_555
H8 C19 1_555 1_555
H9 C19 1_555 1_555
C20 H10 1_555 1_555
H11 C20 1_555 1_555
H12 C20 1_555 1_555
C21 H13 1_555 1_555
H14 C21 1_555 1_555
H15 C21 1_555 1_555
C22 H16 1_555 1_555
H17 C22 1_555 1_555
H18 C22 1_555 1_555
O1 H19 1_555 1_555
O2 C5 1_555 1_555
O3 C5 1_555 1_555
O4 C6 1_555 1_555
O5 C6 1_555 1_555
O6 C11 1_555 1_555
O7 C11 1_555 1_555
O8 C12 1_555 1_555
O9 C12 1_555 1_555
O10 C17 1_555 1_555
O11 C17 1_555 1_555
O12 C18 1_555 1_555
O13 C18 1_555 1_555
O14 S4 1_555 1_555
O15 S5 1_555 1_555
S1 C1 1_555 1_555
S2 C7 1_555 1_555
S3 C13 1_555 1_555
S4 C19 1_555 1_555
S5 C21 1_555 1_555
Tb1 O2 1_555 1_555
Tb2 O3 1_555 1_555
H20 O1 1_555 1_555
O4A Tb2 1_555 1_555
O5A Tb1 1_555 1_555
O7C Tb2 1_555 1_555
O8A Tb1 1_555 1_555
O9A Tb2 1_555 1_555
O12B Tb2 1_555 1_555
O13A Tb1 1_555 1_555
Tb1A O8 1_555 1_555
Tb1A_2 O5 1_555 1_555
Tb2A O9 1_555 1_555
Tb2A_2 O4 1_555 1_555
Tb2B O12 1_555 1_555
Tb2C O7 1_555 1_555
C4 S1 1_555 1_555
C10 S2 1_555 1_555
C16 S3 1_555 1_555
C20 S4 1_555 1_555
C22 S5 1_555 1_555
O6 Tb1 1_555 1_555
O10 Tb2 1_555 1_555
O11 Tb1 1_555 1_555
O13 Tb1A 1_555 1_555
O14 Tb2 1_555 1_555
O15 Tb1 1_555 1_555

#END
