
#######################################################################
#
#                 Cambridge Crystallographic Data Centre
#                                CCDC 
#
#######################################################################
#
# If this CIF has been generated from an entry in the Cambridge 
# Structural Database, then it will include bibliographic, chemical, 
# crystal, experimental, refinement or atomic coordinate data resulting 
# from the CCDC's data processing and validation procedures.
#
#######################################################################

data_RAVGIG
_symmetry_cell_setting           monoclinic
_symmetry_space_group_name_H-M   'C 2/c'
_symmetry_Int_Tables_number      15
_space_group_name_Hall           '-C 2yn'
loop_
_symmetry_equiv_pos_site_id
_symmetry_equiv_pos_as_xyz
1 x,y,z
2 -x,y,1/2-z
3 1/2+x,1/2+y,z
4 1/2-x,1/2+y,1/2-z
5 -x,-y,-z
6 x,-y,1/2+z
7 1/2-x,1/2-y,-z
8 1/2+x,1/2-y,1/2+z
_cell_length_a                   19.436(6)
_cell_length_b                   14.183(3)
_cell_length_c                   10.148(2)
_cell_angle_alpha                90
_cell_angle_beta                 110.10(3)
_cell_angle_gamma                90
_cell_volume                     2627.03
loop_
_atom_site_label
_atom_site_type_symbol
_atom_site_fract_x
_atom_site_fract_y
_atom_site_fract_z
Cd1 Cd 0.56948(2) 0.13823(3) -0.07867(4)
O1 O 0.6853(2) 0.1332(3) 0.1243(4)
O2 O 0.5826(2) 0.0809(3) 0.1431(4)
O3 O 0.5455(2) 0.1744(3) 0.5913(4)
O4 O 0.6375(2) 0.1355(3) 0.7865(4)
O5 O 0.5000 0.0244(4) -0.2500
H1 H 0.5212 -0.0075 -0.2958
N1 N 0.9084(3) -0.2031(3) 0.5341(5)
C1 C 0.6490(3) 0.1079(4) 0.1983(6)
C2 C 0.6106(3) 0.1527(4) 0.6568(6)
C3 C 0.6816(3) 0.1149(4) 0.3549(5)
C4 C 0.6348(3) 0.1323(3) 0.4305(6)
H2 H 0.5846 0.1362 0.3826
C5 C 0.6614(3) 0.1439(3) 0.5762(6)
C6 C 0.7370(3) 0.1465(4) 0.6446(6)
H3 H 0.7558 0.1587 0.7405
C7 C 0.7841(3) 0.1314(4) 0.5720(6)
H4 H 0.8344 0.1333 0.6192
C8 C 0.7572(3) 0.1131(4) 0.4282(6)
C9 C 0.8557(3) -0.0246(4) 0.4303(5)
C10 C 0.9194(3) -0.0594(4) 0.4149(6)
H5 H 0.9452 -0.0243 0.3701
C11 C 0.9437(4) -0.1506(4) 0.4701(7)
H6 H 0.9864 -0.1744 0.4608
C12 C 0.8478(3) -0.1673(4) 0.5477(6)
H7 H 0.8232 -0.2040 0.5933
C13 C 0.8189(3) -0.0802(4) 0.4994(6)
H8 H 0.7763 -0.0589 0.5120
S1 S 0.82308(9) 0.08378(11) 0.34881(16)
Cd1A Cd 0.43052(2) 0.13823(3) -0.42133(4)
Cd1_2 Cd 0.56948(2) 0.13823(3) -1.07867(4)
Cd1_3 Cd 0.56948(2) 0.13823(3) 0.92133(4)
Cd1A_2 Cd 0.43052(2) 0.13823(3) -1.42133(4)
Cd1A_3 Cd 0.43052(2) 0.13823(3) 0.57867(4)
Cd1B Cd 0.06948(2) -0.36177(3) -1.07867(4)
Cd1C Cd 0.93052(2) -0.36177(3) 0.57867(4)
O1A O 0.3147(2) 0.1332(3) -0.6243(4)
O2A O 0.4174(2) 0.0809(3) -0.6431(4)
O3A O 0.4545(2) 0.1744(3) -1.0913(4)
O3_2 O 0.5455(2) 0.1744(3) -0.4087(4)
O3A_2 O 0.4545(2) 0.1744(3) -0.0913(4)
O4A O 0.3625(2) 0.1355(3) -1.2865(4)
O4_2 O 0.6375(2) 0.1355(3) -0.2135(4)
O4A_2 O 0.3625(2) 0.1355(3) -0.2865(4)
H1A H 0.4788 -0.0075 -0.2042
N1A N 0.0916(3) -0.2031(3) -1.0341(5)
N1B N 0.4084(3) 0.2969(3) -0.4659(5)
N1C N 0.5916(3) 0.2969(3) -0.0341(5)
C1A C 0.3510(3) 0.1079(4) -0.6983(6)
C2A C 0.3894(3) 0.1527(4) -1.1568(6)
C3A C 0.3184(3) 0.1149(4) -0.8549(5)
C4A C 0.3652(3) 0.1323(3) -0.9305(6)
H2A H 0.4154 0.1362 -0.8826
C5A C 0.3386(3) 0.1439(3) -1.0762(6)
C6A C 0.2630(3) 0.1465(4) -1.1446(6)
H3A H 0.2442 0.1587 -1.2405
C7A C 0.2159(3) 0.1314(4) -1.0720(6)
H4A H 0.1656 0.1333 -1.1192
C8A C 0.2428(3) 0.1131(4) -0.9282(6)
C9A C 0.1443(3) -0.0246(4) -0.9303(5)
C10A C 0.0806(3) -0.0594(4) -0.9149(6)
H5A H 0.0548 -0.0243 -0.8701
C11A C 0.0563(4) -0.1506(4) -0.9701(7)
H6A H 0.0136 -0.1744 -0.9608
C12A C 0.1522(3) -0.1673(4) -1.0477(6)
H7A H 0.1768 -0.2040 -1.0933
C13A C 0.1811(3) -0.0802(4) -0.9994(6)
H8A H 0.2237 -0.0589 -1.0120
S1A S 0.17692(9) 0.08378(11) -0.84881(16)
loop_
_geom_bond_atom_site_label_1
_geom_bond_atom_site_label_2
_geom_bond_site_symmetry_1
_geom_bond_site_symmetry_2
Cd1 O1 1_555 1_555
O1 C1 1_555 1_555
O2 Cd1 1_555 1_555
O3 C2 1_555 1_555
O4 C2 1_555 1_555
O5 Cd1 1_555 1_555
H1 O5 1_555 1_555
N1 C11 1_555 1_555
C1 O2 1_555 1_555
C2 C5 1_555 1_555
C3 C1 1_555 1_555
C4 C3 1_555 1_555
H2 C4 1_555 1_555
C5 C4 1_555 1_555
C6 C5 1_555 1_555
H3 C6 1_555 1_555
C7 C6 1_555 1_555
H4 C7 1_555 1_555
C8 C3 1_555 1_555
C9 C10 1_555 1_555
C10 H5 1_555 1_555
C11 C10 1_555 1_555
H6 C11 1_555 1_555
C12 N1 1_555 1_555
H7 C12 1_555 1_555
C13 C9 1_555 1_555
H8 C13 1_555 1_555
S1 C8 1_555 1_555
Cd1A O5 1_555 1_555
Cd1_2 O3A 1_555 1_555
Cd1_3 O4 1_555 1_555
Cd1A_2 O4A 1_555 1_555
Cd1A_3 O3 1_555 1_555
Cd1B N1A 1_555 1_555
Cd1C N1 1_555 1_555
O1A Cd1A 1_555 1_555
O2A Cd1A 1_555 1_555
O3A C2A 1_555 1_555
O3_2 Cd1A 1_555 1_555
O3A_2 Cd1 1_555 1_555
O4A C2A 1_555 1_555
O4_2 Cd1 1_555 1_555
O4A_2 Cd1A 1_555 1_555
H1A O5 1_555 1_555
N1A C11A 1_555 1_555
N1B Cd1A 1_555 1_555
N1C Cd1 1_555 1_555
C1A O1A 1_555 1_555
C2A C5A 1_555 1_555
C3A C1A 1_555 1_555
C4A C3A 1_555 1_555
H2A C4A 1_555 1_555
C5A C4A 1_555 1_555
C6A C5A 1_555 1_555
H3A C6A 1_555 1_555
C7A C6A 1_555 1_555
H4A C7A 1_555 1_555
C8A C3A 1_555 1_555
C9A C10A 1_555 1_555
C10A H5A 1_555 1_555
C11A C10A 1_555 1_555
H6A C11A 1_555 1_555
C12A N1A 1_555 1_555
H7A C12A 1_555 1_555
C13A C9A 1_555 1_555
H8A C13A 1_555 1_555
S1A C8A 1_555 1_555
C7 C8 1_555 1_555
C9 S1 1_555 1_555
C12 C13 1_555 1_555
O2A C1A 1_555 1_555
C7A C8A 1_555 1_555
C9A S1A 1_555 1_555
C12A C13A 1_555 1_555

#END
