
#######################################################################
#
#                 Cambridge Crystallographic Data Centre
#                                CCDC 
#
#######################################################################
#
# If this CIF has been generated from an entry in the Cambridge 
# Structural Database, then it will include bibliographic, chemical, 
# crystal, experimental, refinement or atomic coordinate data resulting 
# from the CCDC's data processing and validation procedures.
#
#######################################################################

data_RAVJIJ
_symmetry_cell_setting           monoclinic
_symmetry_space_group_name_H-M   'C 2/c'
_symmetry_Int_Tables_number      15
_space_group_name_Hall           '-C 2yn'
loop_
_symmetry_equiv_pos_site_id
_symmetry_equiv_pos_as_xyz
1 x,y,z
2 -x,y,1/2-z
3 1/2+x,1/2+y,z
4 1/2-x,1/2+y,1/2-z
5 -x,-y,-z
6 x,-y,1/2+z
7 1/2-x,1/2-y,-z
8 1/2+x,1/2-y,1/2+z
_cell_length_a                   24.1035(6)
_cell_length_b                   24.5120(7)
_cell_length_c                   16.8570(5)
_cell_angle_alpha                90
_cell_angle_beta                 124.6500(10)
_cell_angle_gamma                90
_cell_volume                     8193.12
loop_
_atom_site_label
_atom_site_type_symbol
_atom_site_fract_x
_atom_site_fract_y
_atom_site_fract_z
Cd1 Cd 0.0000 0.182082(13) 0.7500
Cd2 Cd -0.134766(12) 0.089827(10) 0.525996(17)
Cd3 Cd 0.096562(12) 0.270340(10) 0.674662(18)
O1 O -0.19843(14) 0.02730(13) 0.5363(2)
O2 O -0.28924(16) 0.01796(13) 0.3858(2)
O3 O -0.41959(14) -0.16454(12) 0.5622(2)
O4 O -0.32179(14) -0.16443(10) 0.70435(18)
O5 O -0.10748(15) 0.02450(12) 0.4524(2)
O6 O 0.15302(16) 0.21515(13) 0.6194(2)
O7 O -0.23018(14) 0.10123(12) 0.36682(19)
N1 N -0.06755(15) 0.15267(12) 0.5185(2)
N2 N -0.02091(15) 0.18297(12) 0.5932(2)
N3 N 0.00813(16) 0.21806(13) 0.5671(2)
N4 N 0.15300(17) 0.21902(13) 0.8074(2)
N5 N 0.12096(15) 0.18426(13) 0.8315(2)
N6 N 0.16530(16) 0.15492(14) 0.9078(2)
N7 N 0.0000 0.27924(17) 0.7500
N8 N 0.03683(16) 0.30984(13) 0.7312(2)
N9 N 0.0000 0.08698(18) 0.7500
N10 N 0.04559(16) 0.05702(13) 0.8252(2)
N11 N -0.1278(2) -0.04643(18) 0.3536(3)
N12 N 0.2321(3) 0.1879(2) 0.5956(4)
C1 C -0.25470(19) 0.00702(15) 0.4737(3)
C2 C -0.28207(18) -0.03423(15) 0.5100(3)
C3 C -0.2429(2) -0.05040(17) 0.6061(3)
H1 H -0.1996 -0.0364 0.6475
C4 C -0.3455(2) -0.05684(18) 0.4484(3)
H2 H -0.3713 -0.0472 0.3836
C5 C -0.35988(19) -0.14794(14) 0.6176(3)
C6 C -0.33229(19) -0.10867(14) 0.5795(3)
C7 C -0.3708(2) -0.09377(18) 0.4827(3)
H3 H -0.4136 -0.1086 0.4409
C8 C -0.2679(2) -0.08723(17) 0.6403(3)
H4 H -0.2413 -0.0978 0.7047
C9 C -0.02044(18) 0.21045(15) 0.4709(3)
C10 C -0.0106(2) 0.23740(17) 0.4054(3)
H5 H 0.0215 0.2647 0.4252
C11 C -0.0513(2) 0.22083(19) 0.3110(3)
H6 H -0.0469 0.2378 0.2655
C12 C -0.0999(3) 0.1787(2) 0.2806(3)
H7 H -0.1265 0.1691 0.2157
C13 C -0.1087(2) 0.15167(18) 0.3441(3)
H8 H -0.1397 0.1234 0.3243
C14 C -0.06833(18) 0.16902(15) 0.4409(3)
C15 C 0.2196(2) 0.21164(16) 0.8708(3)
C16 C 0.2750(2) 0.23760(19) 0.8795(3)
H9 H 0.2693 0.2654 0.8379
C17 C 0.3376(2) 0.2197(2) 0.9525(4)
H10 H 0.3754 0.2354 0.9599
C18 C 0.3466(2) 0.1785(2) 1.0167(3)
H11 H 0.3902 0.1680 1.0656
C19 C 0.2933(2) 0.15315(19) 1.0099(3)
H12 H 0.2997 0.1257 1.0524
C20 C 0.22815(19) 0.17104(16) 0.9349(3)
C21 C 0.0287(2) 0.00376(16) 0.7970(3)
C22 C 0.0581(2) -0.04542(17) 0.8477(3)
H13 H 0.0957 -0.0455 0.9112
C23 C 0.0286(3) -0.09288(18) 0.7989(3)
H14 H 0.0463 -0.1260 0.8304
C24 C 0.02390(19) 0.36286(15) 0.7393(3)
C25 C 0.0513(2) 0.41206(17) 0.7325(3)
H15 H 0.0852 0.4123 0.7219
C26 C 0.0256(3) 0.45953(18) 0.7420(4)
H16 H 0.0425 0.4927 0.7378
C27 C -0.1455(2) -0.00271(17) 0.3795(3)
H17 H -0.1902 0.0085 0.3395
C28 C -0.0596(3) -0.0688(2) 0.4162(4)
H18 H -0.0348 -0.0612 0.3887
H19 H -0.0621 -0.1075 0.4221
H20 H -0.0372 -0.0522 0.4788
C29 C -0.1737(3) -0.0756(2) 0.2642(4)
H21 H -0.2178 -0.0596 0.2317
H22 H -0.1761 -0.1132 0.2782
H23 H -0.1577 -0.0733 0.2236
C30 C 0.2055(2) 0.2219(2) 0.6268(4)
H24 H 0.2293 0.2537 0.6569
C31 C 0.2980(3) 0.1977(3) 0.6112(5)
H25 H 0.3141 0.2333 0.6388
H26 H 0.2931 0.1957 0.5506
H27 H 0.3297 0.1706 0.6543
C32 C 0.1985(3) 0.1380(3) 0.5478(5)
H28 H 0.2209 0.1079 0.5912
H29 H 0.1996 0.1332 0.4922
H30 H 0.1525 0.1396 0.5280
Cd2A Cd 0.134766(12) 0.089827(10) 0.974004(17)
Cd3A Cd -0.096562(12) 0.270340(10) 0.825338(18)
Cd3B Cd -0.403438(12) -0.229660(10) 0.674662(18)
Cd3C Cd 0.403438(12) -0.229660(10) 0.825338(18)
O1A O 0.19843(14) 0.02730(13) 0.9637(2)
O2A O 0.28924(16) 0.01796(13) 1.1142(2)
O3A O 0.41959(14) -0.16454(12) 0.9378(2)
O3B O 0.08041(14) 0.33546(12) 0.5622(2)
O3C O -0.08041(14) 0.33546(12) 0.9378(2)
O4A O 0.32179(14) -0.16443(10) 0.79565(18)
O4B O 0.17821(14) 0.33557(10) 0.70435(18)
O4C O -0.17821(14) 0.33557(10) 0.79565(18)
O5A O 0.10748(15) 0.02450(12) 1.0476(2)
O6A O -0.15302(16) 0.21515(13) 0.8806(2)
O7A O 0.23018(14) 0.10123(12) 1.13318(19)
N1A N 0.06755(15) 0.15267(12) 0.9815(2)
N2A N 0.02091(15) 0.18297(12) 0.9068(2)
N3A N -0.00813(16) 0.21806(13) 0.9329(2)
N4A N -0.15300(17) 0.21902(13) 0.6926(2)
N5A N -0.12096(15) 0.18426(13) 0.6685(2)
N6A N -0.16530(16) 0.15492(14) 0.5922(2)
N8A N -0.03683(16) 0.30984(13) 0.7688(2)
N10A N -0.04559(16) 0.05702(13) 0.6748(2)
N11A N 0.1278(2) -0.04643(18) 1.1464(3)
N12A N -0.2321(3) 0.1879(2) 0.9044(4)
C1A C 0.25470(19) 0.00702(15) 1.0263(3)
C2A C 0.28207(18) -0.03423(15) 0.9900(3)
C3A C 0.2429(2) -0.05040(17) 0.8939(3)
H1A H 0.1996 -0.0364 0.8525
C4A C 0.3455(2) -0.05684(18) 1.0516(3)
H2A H 0.3713 -0.0472 1.1164
C5A C 0.35988(19) -0.14794(14) 0.8824(3)
C5B C 0.14012(19) 0.35206(14) 0.6176(3)
C5C C -0.14012(19) 0.35206(14) 0.8824(3)
C6A C 0.33229(19) -0.10867(14) 0.9205(3)
C7A C 0.3708(2) -0.09377(18) 1.0173(3)
H3A H 0.4136 -0.1086 1.0591
C8A C 0.2679(2) -0.08723(17) 0.8597(3)
H4A H 0.2413 -0.0978 0.7953
C9A C 0.02044(18) 0.21045(15) 1.0291(3)
C10A C 0.0106(2) 0.23740(17) 1.0946(3)
H5A H -0.0215 0.2647 1.0748
C11A C 0.0513(2) 0.22083(19) 1.1890(3)
H6A H 0.0469 0.2378 1.2345
C12A C 0.0999(3) 0.1787(2) 1.2194(3)
H7A H 0.1265 0.1691 1.2843
C13A C 0.1087(2) 0.15167(18) 1.1559(3)
H8A H 0.1397 0.1234 1.1757
C14A C 0.06833(18) 0.16902(15) 1.0591(3)
C15A C -0.2196(2) 0.21164(16) 0.6292(3)
C16A C -0.2750(2) 0.23760(19) 0.6205(3)
H9A H -0.2693 0.2654 0.6621
C17A C -0.3376(2) 0.2197(2) 0.5475(4)
H10A H -0.3754 0.2354 0.5401
C18A C -0.3466(2) 0.1785(2) 0.4833(3)
H11A H -0.3902 0.1680 0.4344
C19A C -0.2933(2) 0.15315(19) 0.4901(3)
H12A H -0.2997 0.1257 0.4476
C20A C -0.22815(19) 0.17104(16) 0.5651(3)
C21A C -0.0287(2) 0.00376(16) 0.7030(3)
C22A C -0.0581(2) -0.04542(17) 0.6523(3)
H13A H -0.0957 -0.0455 0.5888
C23A C -0.0286(3) -0.09288(18) 0.7011(3)
H14A H -0.0463 -0.1260 0.6696
C24A C -0.02390(19) 0.36286(15) 0.7607(3)
C25A C -0.0513(2) 0.41206(17) 0.7675(3)
H15A H -0.0852 0.4123 0.7781
C26A C -0.0256(3) 0.45953(18) 0.7580(4)
H16A H -0.0425 0.4927 0.7622
C27A C 0.1455(2) -0.00271(17) 1.1205(3)
H17A H 0.1902 0.0085 1.1605
C28A C 0.0596(3) -0.0688(2) 1.0838(4)
H18A H 0.0348 -0.0612 1.1113
H19A H 0.0621 -0.1075 1.0779
H20A H 0.0372 -0.0522 1.0212
C29A C 0.1737(3) -0.0756(2) 1.2358(4)
H21A H 0.2178 -0.0596 1.2683
H22A H 0.1761 -0.1132 1.2218
H23A H 0.1577 -0.0733 1.2764
C30A C -0.2055(2) 0.2219(2) 0.8732(4)
H24A H -0.2293 0.2537 0.8431
C31A C -0.2980(3) 0.1977(3) 0.8888(5)
H25A H -0.3141 0.2333 0.8612
H26A H -0.2931 0.1957 0.9494
H27A H -0.3297 0.1706 0.8457
C32A C -0.1985(3) 0.1380(3) 0.9522(5)
H28A H -0.2209 0.1079 0.9088
H29A H -0.1996 0.1332 1.0078
H30A H -0.1525 0.1396 0.9720
O8 O 0.9195(3) 0.3982(2) 0.2818(4)
N13 N 0.9142(2) 0.43627(19) 0.3986(3)
C33 C 0.9372(3) 0.4001(3) 0.3650(4)
H31 H 0.9687 0.3747 0.4080
C34 C 0.8670(4) 0.4784(3) 0.3396(5)
H32 H 0.8897 0.5129 0.3569
H33 H 0.8315 0.4794 0.3496
H34 H 0.8481 0.4709 0.2730
C35 C 0.9411(5) 0.4378(3) 0.5008(5)
H35 H 0.9736 0.4091 0.5338
H36 H 0.9050 0.4328 0.5088
H37 H 0.9623 0.4724 0.5273
O9 O 1.0000 0.3304(2) 0.2500
loop_
_geom_bond_atom_site_label_1
_geom_bond_atom_site_label_2
_geom_bond_site_symmetry_1
_geom_bond_site_symmetry_2
Cd1 N2 1_555 1_555
Cd2 O1 1_555 1_555
Cd3 O6 1_555 1_555
O1 C1 1_555 1_555
O2 C1 1_555 1_555
O3 C5 1_555 1_555
O4 C5 1_555 1_555
O5 Cd2 1_555 1_555
O6 C30 1_555 1_555
O7 Cd2 1_555 1_555
O8 C33 1_555 1_555
N1 Cd2 1_555 1_555
N2 N1 1_555 1_555
N3 Cd3 1_555 1_555
N4 Cd3 1_555 1_555
N5 Cd1 1_555 1_555
N6 N5 1_555 1_555
N7 Cd1 1_555 1_555
N8 Cd3 1_555 1_555
N9 Cd1 1_555 1_555
N10 N9 1_555 1_555
N11 C27 1_555 1_555
N12 C30 1_555 1_555
N13 C33 1_555 1_555
C1 C2 1_555 1_555
C2 C3 1_555 1_555
C3 H1 1_555 1_555
C4 C2 1_555 1_555
H2 C4 1_555 1_555
C5 C6 1_555 1_555
C6 C7 1_555 1_555
C7 C4 1_555 1_555
H3 C7 1_555 1_555
C8 C3 1_555 1_555
H4 C8 1_555 1_555
C9 N3 1_555 1_555
C10 C9 1_555 1_555
H5 C10 1_555 1_555
C11 C10 1_555 1_555
H6 C11 1_555 1_555
C12 C11 1_555 1_555
H7 C12 1_555 1_555
C13 C12 1_555 1_555
H8 C13 1_555 1_555
C14 N1 1_555 1_555
C15 N4 1_555 1_555
C16 C15 1_555 1_555
H9 C16 1_555 1_555
C17 C16 1_555 1_555
H10 C17 1_555 1_555
C18 C17 1_555 1_555
H11 C18 1_555 1_555
C19 C18 1_555 1_555
H12 C19 1_555 1_555
C20 N6 1_555 1_555
C21 N10 1_555 1_555
C22 C21 1_555 1_555
H13 C22 1_555 1_555
C23 C22 1_555 1_555
H14 C23 1_555 1_555
C24 N8 1_555 1_555
C25 C24 1_555 1_555
H15 C25 1_555 1_555
C26 C25 1_555 1_555
H16 C26 1_555 1_555
C27 O5 1_555 1_555
H17 C27 1_555 1_555
C28 N11 1_555 1_555
H18 C28 1_555 1_555
H19 C28 1_555 1_555
H20 C28 1_555 1_555
C29 N11 1_555 1_555
H21 C29 1_555 1_555
H22 C29 1_555 1_555
H23 C29 1_555 1_555
C30 H24 1_555 1_555
C31 N12 1_555 1_555
H25 C31 1_555 1_555
H26 C31 1_555 1_555
H27 C31 1_555 1_555
C32 N12 1_555 1_555
H28 C32 1_555 1_555
H29 C32 1_555 1_555
H30 C32 1_555 1_555
C33 H31 1_555 1_555
C34 N13 1_555 1_555
H32 C34 1_555 1_555
H33 C34 1_555 1_555
H34 C34 1_555 1_555
C35 N13 1_555 1_555
H35 C35 1_555 1_555
H36 C35 1_555 1_555
H37 C35 1_555 1_555
Cd2A N6 1_555 1_555
Cd3A O3C 1_555 1_555
Cd3B O3 1_555 1_555
Cd3C O3A 1_555 1_555
O1A Cd2A 1_555 1_555
O2A C1A 1_555 1_555
O3A C5A 1_555 1_555
O3B Cd3 1_555 1_555
O3C C5C 1_555 1_555
O4A Cd3C 1_555 1_555
O4B Cd3 1_555 1_555
O4C Cd3A 1_555 1_555
O5A Cd2A 1_555 1_555
O6A Cd3A 1_555 1_555
O7A Cd2A 1_555 1_555
N1A Cd2A 1_555 1_555
N2A Cd1 1_555 1_555
N3A Cd3A 1_555 1_555
N4A Cd3A 1_555 1_555
N5A Cd1 1_555 1_555
N6A Cd2 1_555 1_555
N8A N7 1_555 1_555
N10A Cd2 1_555 1_555
N11A C27A 1_555 1_555
N12A C30A 1_555 1_555
C1A O1A 1_555 1_555
C2A C1A 1_555 1_555
C3A C2A 1_555 1_555
H1A C3A 1_555 1_555
C4A C2A 1_555 1_555
H2A C4A 1_555 1_555
C5A O4A 1_555 1_555
C5B O3B 1_555 1_555
C5C O4C 1_555 1_555
C6A C5A 1_555 1_555
C7A C4A 1_555 1_555
H3A C7A 1_555 1_555
C8A C3A 1_555 1_555
H4A C8A 1_555 1_555
C9A N3A 1_555 1_555
C10A C9A 1_555 1_555
H5A C10A 1_555 1_555
C11A C10A 1_555 1_555
H6A C11A 1_555 1_555
C12A C11A 1_555 1_555
H7A C12A 1_555 1_555
C13A C12A 1_555 1_555
H8A C13A 1_555 1_555
C14A N1A 1_555 1_555
C15A N4A 1_555 1_555
C16A C15A 1_555 1_555
H9A C16A 1_555 1_555
C17A C16A 1_555 1_555
H10A C17A 1_555 1_555
C18A C17A 1_555 1_555
H11A C18A 1_555 1_555
C19A C18A 1_555 1_555
H12A C19A 1_555 1_555
C20A N6A 1_555 1_555
C21A C21 1_555 1_555
C22A C21A 1_555 1_555
H13A C22A 1_555 1_555
C23A C23 1_555 1_555
H14A C23A 1_555 1_555
C24A C24 1_555 1_555
C25A C24A 1_555 1_555
H15A C25A 1_555 1_555
C26A C26 1_555 1_555
H16A C26A 1_555 1_555
C27A O5A 1_555 1_555
H17A C27A 1_555 1_555
C28A N11A 1_555 1_555
H18A C28A 1_555 1_555
H19A C28A 1_555 1_555
H20A C28A 1_555 1_555
C29A N11A 1_555 1_555
H21A C29A 1_555 1_555
H22A C29A 1_555 1_555
H23A C29A 1_555 1_555
C30A O6A 1_555 1_555
H24A C30A 1_555 1_555
C31A N12A 1_555 1_555
H25A C31A 1_555 1_555
H26A C31A 1_555 1_555
H27A C31A 1_555 1_555
C32A N12A 1_555 1_555
H28A C32A 1_555 1_555
H29A C32A 1_555 1_555
H30A C32A 1_555 1_555
O4 Cd3B 1_555 1_555
N2 N3 1_555 1_555
N4 N5 1_555 1_555
N7 N8 1_555 1_555
N9 N10A 1_555 1_555
N10 Cd2A 1_555 1_555
C6 C8 1_555 1_555
C9 C14 1_555 1_555
C13 C14 1_555 1_555
C15 C20 1_555 1_555
C19 C20 1_555 1_555
Cd3A N8A 1_555 1_555
O4B C5B 1_555 1_555
N1A N2A 1_555 1_555
N2A N3A 1_555 1_555
N4A N5A 1_555 1_555
N5A N6A 1_555 1_555
N8A C24A 1_555 1_555
N10A C21A 1_555 1_555
C6A C7A 1_555 1_555
C6A C8A 1_555 1_555
C9A C14A 1_555 1_555
C13A C14A 1_555 1_555
C15A C20A 1_555 1_555
C19A C20A 1_555 1_555
C22A C23A 1_555 1_555
C25A C26A 1_555 1_555

#END
