
#######################################################################
#
#                 Cambridge Crystallographic Data Centre
#                                CCDC 
#
#######################################################################
#
# If this CIF has been generated from an entry in the Cambridge 
# Structural Database, then it will include bibliographic, chemical, 
# crystal, experimental, refinement or atomic coordinate data resulting 
# from the CCDC's data processing and validation procedures.
#
#######################################################################

data_RAVKOQ
_symmetry_cell_setting           triclinic
_symmetry_space_group_name_H-M   'P -1'
_symmetry_Int_Tables_number      2
_space_group_name_Hall           '-P 1'
loop_
_symmetry_equiv_pos_site_id
_symmetry_equiv_pos_as_xyz
1 x,y,z
2 -x,-y,-z
_cell_length_a                   12.395(3)
_cell_length_b                   12.876(3)
_cell_length_c                   16.525(4)
_cell_angle_alpha                74.440(4)
_cell_angle_beta                 74.126(6)
_cell_angle_gamma                88.730(6)
_cell_volume                     2440.08
loop_
_atom_site_label
_atom_site_type_symbol
_atom_site_fract_x
_atom_site_fract_y
_atom_site_fract_z
Cd1 Cd 0.40496(5) 0.46454(5) 0.42654(4)
Cl1 Cl 0.5561(4) 0.0170(3) 0.1035(2)
Cl2 Cl 0.8087(3) 1.0617(3) 0.3134(2)
O1 O 0.3635(6) 0.3285(6) 0.3695(4)
O2 O 0.5405(6) 0.3776(6) 0.3343(5)
O3 O 0.4725(5) 0.6145(5) 0.4761(4)
O4 O 0.5100(5) 0.6230(5) 0.3375(4)
N1 N 0.2627(5) 0.5580(6) 0.3637(4)
N2 N -0.1215(5) 0.6517(6) 0.3351(4)
N3 N -0.2650(5) 0.5802(6) 0.4450(4)
C1 C 0.6187(10) 0.1665(10) 0.1727(8)
H1 H 0.6932 0.1612 0.1391
C2 C 0.5948(9) 0.2357(9) 0.2253(7)
H2 H 0.6545 0.2782 0.2282
C3 C 0.6427(9) 0.9153(8) 0.4178(6)
H3 H 0.6360 0.9544 0.4600
C4 C 0.5295(11) 0.1048(8) 0.1708(7)
C5 C 0.4029(9) 0.1815(8) 0.2679(6)
H4 H 0.3280 0.1870 0.3005
C6 C 0.4226(10) 0.1115(8) 0.2176(6)
H5 H 0.3629 0.0683 0.2153
C7 C 0.4617(9) 0.3204(7) 0.3297(6)
C8 C 0.7189(9) 0.9490(8) 0.3368(7)
C9 C 0.7262(9) 0.8955(8) 0.2746(6)
H6 H 0.7780 0.9214 0.2185
C10 C 0.5762(8) 0.8227(8) 0.4360(6)
H7 H 0.5229 0.7985 0.4917
C11 C 0.6590(7) 0.8050(7) 0.2934(5)
H8 H 0.6628 0.7690 0.2496
C12 C 0.4879(8) 0.2452(7) 0.2735(5)
C13 C 0.5166(6) 0.6631(7) 0.3970(6)
C14 C 0.5848(7) 0.7649(7) 0.3762(5)
C15 C -0.1792(7) 0.6519(7) 0.4172(5)
C16 C 0.0961(8) 0.5527(8) 0.3205(7)
H9 H 0.0436 0.5119 0.3072
C17 C -0.0158(6) 0.7126(7) 0.2839(5)
H10 H -0.0050 0.7183 0.2212
H11 H -0.0192 0.7865 0.2911
C18 C 0.0838(6) 0.6586(7) 0.3121(5)
C19 C -0.1455(8) 0.7243(9) 0.4629(7)
H12 H -0.1979 0.7120 0.5214
H13 H -0.0694 0.7093 0.4680
H14 H -0.1468 0.7996 0.4296
C20 C 0.2517(7) 0.6620(8) 0.3523(6)
H15 H 0.3088 0.7032 0.3600
C21 C 0.1621(8) 0.7151(8) 0.3297(7)
H16 H 0.1550 0.7897 0.3265
C22 C 0.1842(8) 0.5029(8) 0.3482(8)
H17 H 0.1892 0.4272 0.3565
C23 C -0.1716(7) 0.5762(7) 0.3111(5)
H18 H -0.1504 0.5582 0.2570
C24 C -0.2588(7) 0.5325(7) 0.3824(6)
H19 H -0.3089 0.4751 0.3868
Cd1A Cd 0.59504(5) 0.53546(5) 0.57346(4)
Cd1A_2 Cd -0.40496(5) 0.53546(5) 0.57346(4)
O3A O 0.5275(5) 0.3855(5) 0.5239(4)
N3A N 0.2650(5) 0.4198(6) 0.5550(4)
Cd2 Cd 0.09298(5) 0.47105(5) 0.08300(4)
Cl3 Cl -0.2708(4) 0.0746(3) 0.5989(2)
Cl4 Cl -0.1761(3) 1.0920(3) -0.1145(3)
O5 O 0.0456(5) 0.6132(5) -0.0212(4)
O6 O -0.0351(6) 0.3948(6) 0.2057(4)
O7 O 0.0065(5) 0.6432(5) 0.1076(4)
O8 O 0.1193(6) 0.3167(6) 0.2240(5)
N4 N 0.3586(5) 0.3552(6) -0.1036(5)
N5 N 0.2200(5) 0.4185(6) -0.0246(4)
N6 N 0.7513(5) 0.4455(6) -0.1030(4)
C25 C -0.1658(10) 0.2843(8) 0.3675(7)
H20 H -0.1990 0.3352 0.3294
C26 C -0.1854(13) 0.1564(10) 0.4978(8)
C27 C -0.0717(13) 0.1368(9) 0.4795(8)
H21 H -0.0414 0.0872 0.5204
C28 C -0.0491(9) 0.2689(7) 0.3397(6)
C29 C -0.0034(13) 0.1952(10) 0.3958(8)
H22 H 0.0744 0.1830 0.3788
C30 C -0.1211(9) 0.9704(8) -0.0724(8)
C31 C -0.0992(8) 0.8335(8) 0.0493(6)
H23 H -0.1141 0.8051 0.1108
C32 C -0.0574(9) 0.9178(9) -0.1281(7)
H24 H -0.0430 0.9471 -0.1895
C33 C 0.3125(8) 0.2661(8) 0.0570(6)
H25 H 0.2578 0.2751 0.1097
H26 H 0.3888 0.2764 0.0611
H27 H 0.3020 0.1933 0.0517
C34 C -0.1414(9) 0.9300(9) 0.0149(7)
H28 H -0.1852 0.9684 0.0530
C35 C 0.2959(7) 0.3476(7) -0.0215(5)
C36 C 0.0177(8) 0.3299(7) 0.2502(6)
C37 C -0.0136(8) 0.8212(8) -0.0949(6)
H29 H 0.0317 0.7844 -0.1336
C38 C 0.3214(7) 0.4358(7) -0.1608(5)
H30 H 0.3486 0.4581 -0.2228
C39 C -0.0353(7) 0.7783(7) -0.0062(5)
C40 C 0.0080(6) 0.6720(6) 0.0300(5)
C41 C 0.2368(7) 0.4764(7) -0.1085(6)
H31 H 0.1956 0.5365 -0.1281
C42 C 0.6336(8) 0.2921(8) -0.0753(7)
H32 H 0.6187 0.2168 -0.0483
C43 C 0.5869(8) 0.4571(8) -0.1528(7)
H33 H 0.5401 0.5005 -0.1837
C44 C 0.7271(8) 0.3417(8) -0.0711(7)
H34 H 0.7771 0.2987 -0.0435
C45 C 0.6815(8) 0.5046(8) -0.1435(7)
H35 H 0.6966 0.5804 -0.1665
C46 C 0.4602(7) 0.2975(7) -0.1266(6)
H36 H 0.4743 0.2943 -0.1878
H37 H 0.4479 0.2224 -0.0885
C47 C 0.5608(6) 0.3480(7) -0.1174(5)
C48 C -0.2307(12) 0.2285(10) 0.4465(8)
H38 H -0.3082 0.2413 0.4647
Cd2A Cd -0.09298(5) 0.52895(5) -0.08300(4)
Cd2A_2 Cd 0.90702(5) 0.52895(5) -0.08300(4)
O5A O -0.0456(5) 0.3868(5) 0.0212(4)
N6A N 0.2487(5) 0.5545(6) 0.1030(4)
loop_
_geom_bond_atom_site_label_1
_geom_bond_atom_site_label_2
_geom_bond_site_symmetry_1
_geom_bond_site_symmetry_2
Cd1 O1 1_555 1_555
Cl1 C4 1_555 1_555
Cl2 C8 1_555 1_555
O1 C7 1_555 1_555
O2 Cd1 1_555 1_555
O3 Cd1 1_555 1_555
O4 Cd1 1_555 1_555
N1 Cd1 1_555 1_555
N2 C15 1_555 1_555
N3 C15 1_555 1_555
C1 H1 1_555 1_555
C2 C1 1_555 1_555
H2 C2 1_555 1_555
C3 H3 1_555 1_555
C4 C1 1_555 1_555
C5 H4 1_555 1_555
C6 C4 1_555 1_555
H5 C6 1_555 1_555
C7 O2 1_555 1_555
C8 C3 1_555 1_555
C9 C8 1_555 1_555
H6 C9 1_555 1_555
C10 C3 1_555 1_555
H7 C10 1_555 1_555
C11 C9 1_555 1_555
H8 C11 1_555 1_555
C12 C2 1_555 1_555
C13 O3 1_555 1_555
C14 C10 1_555 1_555
C15 C19 1_555 1_555
C16 H9 1_555 1_555
C17 N2 1_555 1_555
H10 C17 1_555 1_555
H11 C17 1_555 1_555
C18 C16 1_555 1_555
C19 H12 1_555 1_555
H13 C19 1_555 1_555
H14 C19 1_555 1_555
C20 N1 1_555 1_555
H15 C20 1_555 1_555
C21 C18 1_555 1_555
H16 C21 1_555 1_555
C22 N1 1_555 1_555
H17 C22 1_555 1_555
C23 N2 1_555 1_555
H18 C23 1_555 1_555
C24 N3 1_555 1_555
H19 C24 1_555 1_555
Cd2 O5 1_555 1_555
Cl3 C26 1_555 1_555
Cl4 C30 1_555 1_555
O5 C40 1_555 1_555
O6 Cd2 1_555 1_555
O7 Cd2 1_555 1_555
O8 Cd2 1_555 1_555
N4 C35 1_555 1_555
N5 Cd2 1_555 1_555
N6 C44 1_555 1_555
C25 H20 1_555 1_555
C26 C27 1_555 1_555
C27 H21 1_555 1_555
C28 C25 1_555 1_555
C29 C27 1_555 1_555
H22 C29 1_555 1_555
C30 C32 1_555 1_555
C31 H23 1_555 1_555
C32 H24 1_555 1_555
C33 H25 1_555 1_555
H26 C33 1_555 1_555
H27 C33 1_555 1_555
C34 C30 1_555 1_555
H28 C34 1_555 1_555
C35 N5 1_555 1_555
C36 O6 1_555 1_555
C37 C32 1_555 1_555
H29 C37 1_555 1_555
C38 N4 1_555 1_555
H30 C38 1_555 1_555
C39 C31 1_555 1_555
C40 O7 1_555 1_555
C41 N5 1_555 1_555
H31 C41 1_555 1_555
C42 H32 1_555 1_555
C43 H33 1_555 1_555
C44 C42 1_555 1_555
H34 C44 1_555 1_555
C45 N6 1_555 1_555
H35 C45 1_555 1_555
C46 N4 1_555 1_555
H36 C46 1_555 1_555
H37 C46 1_555 1_555
C47 C42 1_555 1_555
C48 C25 1_555 1_555
H38 C48 1_555 1_555
Cd1A O3 1_555 1_555
Cd1A_2 N3 1_555 1_555
O3A Cd1 1_555 1_555
N3A Cd1 1_555 1_555
Cd2A O5 1_555 1_555
Cd2A_2 N6 1_555 1_555
O5A Cd2 1_555 1_555
N6A Cd2 1_555 1_555
O4 C13 1_555 1_555
C5 C6 1_555 1_555
C5 C12 1_555 1_555
C7 C12 1_555 1_555
C11 C14 1_555 1_555
C13 C14 1_555 1_555
C16 C22 1_555 1_555
C17 C18 1_555 1_555
C20 C21 1_555 1_555
C23 C24 1_555 1_555
O8 C36 1_555 1_555
C26 C48 1_555 1_555
C28 C29 1_555 1_555
C28 C36 1_555 1_555
C31 C34 1_555 1_555
C33 C35 1_555 1_555
C37 C39 1_555 1_555
C38 C41 1_555 1_555
C39 C40 1_555 1_555
C43 C45 1_555 1_555
C43 C47 1_555 1_555
C46 C47 1_555 1_555
Cd1A O3A 1_555 1_555
Cd2A O5A 1_555 1_555

#END
