
#######################################################################
#
#                 Cambridge Crystallographic Data Centre
#                                CCDC 
#
#######################################################################
#
# If this CIF has been generated from an entry in the Cambridge 
# Structural Database, then it will include bibliographic, chemical, 
# crystal, experimental, refinement or atomic coordinate data resulting 
# from the CCDC's data processing and validation procedures.
#
#######################################################################

data_RAVLUX
_symmetry_cell_setting           monoclinic
_symmetry_space_group_name_H-M   'C c'
_symmetry_Int_Tables_number      9
_space_group_name_Hall           'C -2yc'
loop_
_symmetry_equiv_pos_site_id
_symmetry_equiv_pos_as_xyz
1 x,y,z
2 x,-y,1/2+z
3 1/2+x,1/2+y,z
4 1/2+x,1/2-y,1/2+z
_cell_length_a                   5.65490(10)
_cell_length_b                   22.9356(3)
_cell_length_c                   15.8278(3)
_cell_angle_alpha                90
_cell_angle_beta                 94.4220(10)
_cell_angle_gamma                90
_cell_volume                     2046.73
loop_
_atom_site_label
_atom_site_type_symbol
_atom_site_fract_x
_atom_site_fract_y
_atom_site_fract_z
Cd1 Cd 0.69175(4) 0.320854(9) 0.65297(2)
P1 P 0.82549(15) 0.35013(4) 0.45017(6)
N1 N 0.5684(5) 0.41931(13) 0.6541(2)
N2 N 0.2816(6) 0.72033(14) 0.6535(2)
C1 C 0.9084(7) 0.42448(17) 0.4249(2)
C2 C 0.7568(8) 0.4694(2) 0.4459(3)
H1 H 0.6166 0.4605 0.4702
C3 C 0.8129(10) 0.5266(2) 0.4308(4)
H2 H 0.7131 0.5561 0.4469
C4 C 1.0142(9) 0.5405(2) 0.3924(3)
H3 H 1.0493 0.5792 0.3810
C5 C 1.1643(9) 0.4965(2) 0.3707(3)
H4 H 1.3012 0.5056 0.3445
C6 C 1.1121(8) 0.4387(2) 0.3879(3)
H5 H 1.2162 0.4095 0.3741
C7 C 0.9829(7) 0.30273(17) 0.3831(2)
H6 H 0.9314 0.3105 0.3243
H7 H 1.1514 0.3111 0.3910
C8 C 0.9409(9) 0.23817(17) 0.4026(3)
H8 H 0.9938 0.2298 0.4611
H9 H 0.7731 0.2292 0.3942
C9 C 1.0783(7) 0.20153(17) 0.3439(3)
C10 C 0.3606(7) 0.43872(17) 0.6188(3)
H10 H 0.2536 0.4116 0.5944
C11 C 0.2969(7) 0.49627(17) 0.6166(3)
H11 H 0.1509 0.5075 0.5906
C12 C 0.4504(7) 0.53798(16) 0.6534(2)
C13 C 0.6669(8) 0.51754(17) 0.6908(3)
H12 H 0.7759 0.5435 0.7169
C14 C 0.7178(7) 0.45918(18) 0.6889(3)
H13 H 0.8640 0.4467 0.7132
C15 C 0.3917(7) 0.60112(16) 0.6535(2)
C16 C 0.2333(9) 0.62548(19) 0.5925(3)
H14 H 0.1606 0.6023 0.5499
C17 C 0.1834(10) 0.68429(19) 0.5952(4)
H15 H 0.0749 0.6996 0.5539
C18 C 0.4238(10) 0.6959(2) 0.7140(4)
H16 H 0.4878 0.7195 0.7577
C19 C 0.4821(9) 0.6376(2) 0.7160(3)
H17 H 0.5834 0.6230 0.7601
O1 O 0.9140(5) 0.33797(14) 0.54222(17)
O2 O 0.5629(5) 0.34335(16) 0.4309(2)
O3 O 1.2795(7) 0.18303(15) 0.3710(3)
O4 O 0.9881(5) 0.19458(16) 0.2691(2)
O5 O 1.0239(5) 0.34369(14) 0.74280(19)
H18 H 1.164(4) 0.331(2) 0.746(3)
H19 H 0.965(8) 0.335(2) 0.789(2)
O6 O 0.3699(5) 0.29639(14) 0.56172(18)
H20 H 0.226(4) 0.308(2) 0.558(3)
H21 H 0.419(8) 0.305(2) 0.5133(19)
Cd1B Cd 0.19175(4) 0.820854(9) 0.65297(2)
Cd1C Cd 1.19175(4) 0.179146(9) 0.15297(2)
N2B N 0.7816(6) 0.22033(14) 0.6535(2)
O4C O 0.4881(5) 0.30542(16) 0.7691(2)
loop_
_geom_bond_atom_site_label_1
_geom_bond_atom_site_label_2
_geom_bond_site_symmetry_1
_geom_bond_site_symmetry_2
Cd1 N1 1_555 1_555
P1 C1 1_555 1_555
N1 C10 1_555 1_555
N2 C17 1_555 1_555
C1 C2 1_555 1_555
C2 H1 1_555 1_555
C3 C2 1_555 1_555
H2 C3 1_555 1_555
C4 C3 1_555 1_555
H3 C4 1_555 1_555
C5 C4 1_555 1_555
H4 C5 1_555 1_555
C6 C1 1_555 1_555
H5 C6 1_555 1_555
C7 P1 1_555 1_555
H6 C7 1_555 1_555
H7 C7 1_555 1_555
C8 C7 1_555 1_555
H8 C8 1_555 1_555
H9 C8 1_555 1_555
C9 C8 1_555 1_555
C10 H10 1_555 1_555
C11 C10 1_555 1_555
H11 C11 1_555 1_555
C12 C11 1_555 1_555
C13 C12 1_555 1_555
H12 C13 1_555 1_555
C14 N1 1_555 1_555
H13 C14 1_555 1_555
C15 C12 1_555 1_555
C16 C15 1_555 1_555
H14 C16 1_555 1_555
C17 C16 1_555 1_555
H15 C17 1_555 1_555
C18 N2 1_555 1_555
H16 C18 1_555 1_555
C19 C15 1_555 1_555
H17 C19 1_555 1_555
O1 Cd1 1_555 1_555
O2 P1 1_555 1_555
O3 C9 1_555 1_555
O4 C9 1_555 1_555
O5 Cd1 1_555 1_555
H18 O5 1_555 1_555
H19 O5 1_555 1_555
O6 Cd1 1_555 1_555
H20 O6 1_555 1_555
H21 O6 1_555 1_555
Cd1B N2 1_555 1_555
Cd1C O4 1_555 1_555
N2B Cd1 1_555 1_555
O4C Cd1 1_555 1_555
P1 O1 1_555 1_555
C5 C6 1_555 1_555
C13 C14 1_555 1_555
C18 C19 1_555 1_555

#END
