
#######################################################################
#
#                 Cambridge Crystallographic Data Centre
#                                CCDC 
#
#######################################################################
#
# If this CIF has been generated from an entry in the Cambridge 
# Structural Database, then it will include bibliographic, chemical, 
# crystal, experimental, refinement or atomic coordinate data resulting 
# from the CCDC's data processing and validation procedures.
#
#######################################################################

data_RAVMEI
_symmetry_cell_setting           monoclinic
_symmetry_space_group_name_H-M   'C 2/c'
_symmetry_Int_Tables_number      15
_space_group_name_Hall           '-C 2yn'
loop_
_symmetry_equiv_pos_site_id
_symmetry_equiv_pos_as_xyz
1 x,y,z
2 -x,y,1/2-z
3 1/2+x,1/2+y,z
4 1/2-x,1/2+y,1/2-z
5 -x,-y,-z
6 x,-y,1/2+z
7 1/2-x,1/2-y,-z
8 1/2+x,1/2-y,1/2+z
_cell_length_a                   26.5549(5)
_cell_length_b                   8.66850(10)
_cell_length_c                   15.4282(3)
_cell_angle_alpha                90
_cell_angle_beta                 120.5100(10)
_cell_angle_gamma                90
_cell_volume                     3059.71
loop_
_atom_site_label
_atom_site_type_symbol
_atom_site_fract_x
_atom_site_fract_y
_atom_site_fract_z
Cd1 Cd 0.0000 -0.13806(2) 0.7500
Cd2 Cd 0.0000 0.41143(3) 0.7500
P1 P -0.05288(3) 0.15157(6) 0.83951(4)
N1 N -0.09824(7) -0.1835(2) 0.65328(14)
C1 C -0.12230(11) 0.0623(3) 0.80489(19)
C2 C -0.17345(17) 0.1126(5) 0.7248(4)
H1 H -0.1735 0.1955 0.6865
C3 C -0.22666(18) 0.0377(6) 0.7002(5)
H2 H -0.2617 0.0717 0.6457
C4 C -0.2265(2) -0.0821(7) 0.7556(5)
H3 H -0.2615 -0.1306 0.7391
C5 C -0.1767(3) -0.1318(7) 0.8337(5)
H4 H -0.1769 -0.2155 0.8712
C6 C -0.12466(18) -0.0590(6) 0.8592(3)
H5 H -0.0903 -0.0936 0.9149
C7 C -0.02650(10) 0.2310(2) 0.96304(15)
H6 H -0.0232 0.1481 1.0079
H7 H 0.0124 0.2719 0.9875
C8 C -0.06414(11) 0.3574(2) 0.96893(16)
H8 H -0.1029 0.3162 0.9459
H9 H -0.0680 0.4399 0.9234
C9 C -0.04042(10) 0.4245(3) 1.07347(15)
C10 C -0.12465(11) -0.2939(4) 0.6728(3)
H10 H -0.1025 -0.3548 0.7294
C11 C -0.18384(12) -0.3247(4) 0.6137(3)
H11 H -0.2002 -0.4061 0.6303
C12 C -0.21801(9) -0.2366(3) 0.53175(17)
C13 C -0.19014(13) -0.1221(5) 0.5108(3)
H12 H -0.2112 -0.0603 0.4543
C14 C -0.13053(11) -0.0982(4) 0.5739(3)
H13 H -0.1128 -0.0182 0.5591
O1 O -0.00953(7) 0.03070(19) 0.84965(12)
O2 O -0.06547(8) 0.2794(2) 0.76466(12)
O3 O 0.00139(7) 0.36096(17) 1.14926(12)
O4 O -0.06336(9) 0.5461(2) 1.08091(13)
Cd1D Cd 0.0000 0.13806(2) 1.2500
Cd1F Cd -0.5000 -0.36194(2) 0.2500
Cd1D_2 Cd 0.0000 0.13806(2) 0.2500
Cd2D Cd 0.0000 0.58857(3) 1.2500
Cd2D_2 Cd 0.0000 0.58857(3) 0.2500
P1A P 0.05288(3) 0.15157(6) 0.66049(4)
N1F N -0.40176(7) -0.3165(2) 0.34672(14)
N1A N 0.09824(7) -0.1835(2) 0.84672(14)
C1A C 0.12230(11) 0.0623(3) 0.69511(19)
C2A C 0.17345(17) 0.1126(5) 0.7752(4)
H1A H 0.1735 0.1955 0.8135
C3A C 0.22666(18) 0.0377(6) 0.7998(5)
H2A H 0.2617 0.0717 0.8543
C4A C 0.2265(2) -0.0821(7) 0.7444(5)
H3A H 0.2615 -0.1306 0.7609
C5A C 0.1767(3) -0.1318(7) 0.6663(5)
H4A H 0.1769 -0.2155 0.6288
C6A C 0.12466(18) -0.0590(6) 0.6408(3)
H5A H 0.0903 -0.0936 0.5851
C7A C 0.02650(10) 0.2310(2) 0.53696(15)
H6A H 0.0232 0.1481 0.4921
H7A H -0.0124 0.2719 0.5125
C8A C 0.06414(11) 0.3574(2) 0.53107(16)
H8A H 0.1029 0.3162 0.5541
H9A H 0.0680 0.4399 0.5766
C9A C 0.04042(10) 0.4245(3) 0.42653(15)
C10F C -0.37535(11) -0.2061(4) 0.3272(3)
H10F H -0.3975 -0.1452 0.2706
C11F C -0.31616(12) -0.1753(4) 0.3863(3)
H11F H -0.2998 -0.0939 0.3697
C12F C -0.28199(9) -0.2634(3) 0.46825(17)
C13F C -0.30986(13) -0.3779(5) 0.4892(3)
H12F H -0.2888 -0.4397 0.5457
C14F C -0.36947(11) -0.4018(4) 0.4261(3)
H13F H -0.3872 -0.4818 0.4409
O1A O 0.00953(7) 0.03070(19) 0.65035(12)
O2A O 0.06547(8) 0.2794(2) 0.73534(12)
O3A O -0.00139(7) 0.36096(17) 0.35074(12)
O3D O -0.00139(7) -0.36096(17) 0.85074(12)
O3E O 0.00139(7) -0.36096(17) 0.64926(12)
O3D_2 O -0.00139(7) 0.63904(17) 0.85074(12)
O3E_2 O 0.00139(7) 0.63904(17) 0.64926(12)
O4A O 0.06336(9) 0.5461(2) 0.41909(13)
O4D O 0.06336(9) 0.4539(2) 0.91909(13)
O4E O -0.06336(9) 0.4539(2) 0.58091(13)
O5 O -0.1641(4) 0.7011(10) 1.0452(5)
loop_
_geom_bond_atom_site_label_1
_geom_bond_atom_site_label_2
_geom_bond_site_symmetry_1
_geom_bond_site_symmetry_2
Cd1 N1 1_555 1_555
Cd2 O2 1_555 1_555
P1 C1 1_555 1_555
N1 C10 1_555 1_555
C1 C2 1_555 1_555
C2 H1 1_555 1_555
C3 C2 1_555 1_555
H2 C3 1_555 1_555
C4 C3 1_555 1_555
H3 C4 1_555 1_555
C5 C4 1_555 1_555
H4 C5 1_555 1_555
C6 C1 1_555 1_555
H5 C6 1_555 1_555
C7 P1 1_555 1_555
H6 C7 1_555 1_555
H7 C7 1_555 1_555
C8 C7 1_555 1_555
H8 C8 1_555 1_555
H9 C8 1_555 1_555
C9 C8 1_555 1_555
C10 H10 1_555 1_555
C11 C10 1_555 1_555
H11 C11 1_555 1_555
C12 C11 1_555 1_555
C13 C12 1_555 1_555
H12 C13 1_555 1_555
C14 N1 1_555 1_555
H13 C14 1_555 1_555
O1 Cd1 1_555 1_555
O2 P1 1_555 1_555
O3 C9 1_555 1_555
O4 C9 1_555 1_555
Cd1D O3 1_555 1_555
Cd1F N1F 1_555 1_555
Cd1D_2 O3A 1_555 1_555
Cd2D O3 1_555 1_555
Cd2D_2 O3A 1_555 1_555
P1A C1A 1_555 1_555
N1F C10F 1_555 1_555
N1A Cd1 1_555 1_555
C1A C2A 1_555 1_555
C2A H1A 1_555 1_555
C3A C2A 1_555 1_555
H2A C3A 1_555 1_555
C4A C3A 1_555 1_555
H3A C4A 1_555 1_555
C5A C4A 1_555 1_555
H4A C5A 1_555 1_555
C6A C1A 1_555 1_555
H5A C6A 1_555 1_555
C7A P1A 1_555 1_555
H6A C7A 1_555 1_555
H7A C7A 1_555 1_555
C8A C7A 1_555 1_555
H8A C8A 1_555 1_555
H9A C8A 1_555 1_555
C9A C8A 1_555 1_555
C10F H10F 1_555 1_555
C11F C10F 1_555 1_555
H11F C11F 1_555 1_555
C12F C12 1_555 1_555
C13F C12F 1_555 1_555
H12F C13F 1_555 1_555
C14F N1F 1_555 1_555
H13F C14F 1_555 1_555
O1A Cd1 1_555 1_555
O2A Cd2 1_555 1_555
O3A C9A 1_555 1_555
O3D Cd1 1_555 1_555
O3E Cd1 1_555 1_555
O3D_2 Cd2 1_555 1_555
O3E_2 Cd2 1_555 1_555
O4A Cd2D_2 1_555 1_555
O4D Cd2 1_555 1_555
O4E Cd2 1_555 1_555
P1 O1 1_555 1_555
C5 C6 1_555 1_555
C13 C14 1_555 1_555
O4 Cd2D 1_555 1_555
P1A O1A 1_555 1_555
P1A O2A 1_555 1_555
C5A C6A 1_555 1_555
C9A O4A 1_555 1_555
C11F C12F 1_555 1_555
C13F C14F 1_555 1_555

#END
