
#######################################################################
#
#                 Cambridge Crystallographic Data Centre
#                                CCDC 
#
#######################################################################
#
# If this CIF has been generated from an entry in the Cambridge 
# Structural Database, then it will include bibliographic, chemical, 
# crystal, experimental, refinement or atomic coordinate data resulting 
# from the CCDC's data processing and validation procedures.
#
#######################################################################

data_RAWGOM
_symmetry_cell_setting           monoclinic
_symmetry_space_group_name_H-M   'P 21/n'
_symmetry_Int_Tables_number      14
_space_group_name_Hall           '-P 2yn'
loop_
_symmetry_equiv_pos_site_id
_symmetry_equiv_pos_as_xyz
1 x,y,z
2 1/2-x,1/2+y,1/2-z
3 -x,-y,-z
4 1/2+x,1/2-y,1/2+z
_cell_length_a                   6.2296(5)
_cell_length_b                   9.7066(8)
_cell_length_c                   17.0175(14)
_cell_angle_alpha                90
_cell_angle_beta                 91.3170(10)
_cell_angle_gamma                90
_cell_volume                     1028.75
loop_
_atom_site_label
_atom_site_type_symbol
_atom_site_fract_x
_atom_site_fract_y
_atom_site_fract_z
Nd1 Nd 0.11331(3) -0.180400(18) 0.066700(10)
O1 O 0.2675(4) -0.2360(3) -0.07201(14)
O2 O 0.1283(4) -0.0314(3) -0.05690(14)
O3 O 0.4984(4) 0.2094(3) -0.06849(15)
O4 O 0.6634(4) -0.0013(2) -0.13100(14)
H1 H 0.703(7) -0.075(3) -0.153(3)
O5 O 0.7784(4) 0.2530(3) -0.20038(14)
O6 O 0.6885(5) 0.2683(3) -0.32609(15)
O7 O 0.2069(4) 0.2140(3) -0.14531(14)
O8 O 0.1799(5) -0.4303(3) 0.06790(17)
H2 H 0.292(6) -0.456(5) 0.093(3)
H3 H 0.133(7) -0.497(3) 0.040(2)
O9 O -0.1686(4) -0.2876(3) -0.02061(15)
H4 H -0.171(8) -0.283(7) -0.0704(6)
H5 H -0.292(4) -0.269(6) -0.003(2)
C1 C 0.2311(5) -0.1188(4) -0.09818(19)
C2 C 0.3072(5) -0.0734(4) -0.17788(19)
H8 H 0.1848 -0.0424 -0.2094
H9 H 0.3702 -0.1515 -0.2044
C3 C 0.3858(5) 0.1646(3) -0.1251(2)
C4 C 0.4733(5) 0.0432(3) -0.17209(18)
C5 C 0.5263(6) 0.0901(4) -0.25499(19)
H10 H 0.5890 0.0131 -0.2826
H11 H 0.3931 0.1139 -0.2824
C6 C 0.6773(5) 0.2113(4) -0.2599(2)
Nd1B Nd -0.11331(3) 0.180400(18) -0.066700(10)
Nd1B_2 Nd 0.88669(3) 0.180400(18) -0.066700(10)
O2B O -0.1283(4) 0.0314(3) 0.05690(14)
O3B O 0.5016(4) -0.2094(3) 0.06849(15)
O4B O 0.3366(4) 0.0013(2) 0.13100(14)
H1B H 0.297(7) 0.075(3) 0.153(3)
O5B O 0.2216(4) -0.2530(3) 0.20038(14)
O7B O -0.2069(4) -0.2140(3) 0.14531(14)
O10 O -0.4361(7) 0.4876(4) 0.1315(3)
H6 H -0.396(9) 0.4038(19) 0.127(3)
H7 H -0.365(8) 0.533(4) 0.098(3)
loop_
_geom_bond_atom_site_label_1
_geom_bond_atom_site_label_2
_geom_bond_site_symmetry_1
_geom_bond_site_symmetry_2
Nd1 O1 1_555 1_555
O1 C1 1_555 1_555
O2 Nd1 1_555 1_555
O3 C3 1_555 1_555
O4 H1 1_555 1_555
O5 C6 1_555 1_555
O6 C6 1_555 1_555
O7 C3 1_555 1_555
O8 Nd1 1_555 1_555
H2 O8 1_555 1_555
H3 O8 1_555 1_555
O9 Nd1 1_555 1_555
H4 O9 1_555 1_555
H5 O9 1_555 1_555
O10 H6 1_555 1_555
H7 O10 1_555 1_555
C1 O2 1_555 1_555
C2 C1 1_555 1_555
H8 C2 1_555 1_555
H9 C2 1_555 1_555
C3 C4 1_555 1_555
C4 O4 1_555 1_555
C5 C4 1_555 1_555
H10 C5 1_555 1_555
H11 C5 1_555 1_555
C6 C5 1_555 1_555
Nd1B O2 1_555 1_555
Nd1B_2 O3 1_555 1_555
O2B Nd1 1_555 1_555
O3B Nd1 1_555 1_555
O4B Nd1 1_555 1_555
H1B O4B 1_555 1_555
O5B Nd1 1_555 1_555
O7B Nd1 1_555 1_555
O4 Nd1B_2 1_555 1_555
O5 Nd1B_2 1_555 1_555
O7 Nd1B 1_555 1_555
C2 C4 1_555 1_555
Nd1B O2B 1_555 1_555

#END
