
#######################################################################
#
#                 Cambridge Crystallographic Data Centre
#                                CCDC 
#
#######################################################################
#
# If this CIF has been generated from an entry in the Cambridge 
# Structural Database, then it will include bibliographic, chemical, 
# crystal, experimental, refinement or atomic coordinate data resulting 
# from the CCDC's data processing and validation procedures.
#
#######################################################################

data_RAWGUS
_symmetry_cell_setting           monoclinic
_symmetry_space_group_name_H-M   'P 21/n'
_symmetry_Int_Tables_number      14
_space_group_name_Hall           '-P 2yn'
loop_
_symmetry_equiv_pos_site_id
_symmetry_equiv_pos_as_xyz
1 x,y,z
2 1/2-x,1/2+y,1/2-z
3 -x,-y,-z
4 1/2+x,1/2-y,1/2+z
_cell_length_a                   6.1448(8)
_cell_length_b                   9.6536(12)
_cell_length_c                   16.946(2)
_cell_angle_alpha                90
_cell_angle_beta                 92.170(2)
_cell_angle_gamma                90
_cell_volume                     1004.51
loop_
_atom_site_label
_atom_site_type_symbol
_atom_site_fract_x
_atom_site_fract_y
_atom_site_fract_z
Gd1 Gd 0.11074(4) -0.17990(3) 0.065900(17)
O1 O 0.2637(7) -0.2382(5) -0.0706(3)
O2 O 0.1301(7) -0.0311(4) -0.0549(2)
O3 O 0.5047(7) 0.2108(5) -0.0675(3)
O4 O 0.6697(7) -0.0019(4) -0.1288(3)
H1 H 0.703(16) -0.080(5) -0.148(6)
O5 O 0.7808(7) 0.2531(5) -0.1977(3)
O6 O 0.6898(8) 0.2670(5) -0.3255(3)
O7 O 0.2022(7) 0.2123(4) -0.1432(3)
O8 O 0.1725(9) -0.4269(5) 0.0678(3)
H2 H 0.283(12) -0.454(13) 0.095(6)
H3 H 0.17(2) -0.468(14) 0.023(4)
O9 O -0.1689(7) -0.2829(5) -0.0205(3)
H4 H -0.161(13) -0.275(14) -0.0703(12)
H5 H -0.299(5) -0.269(8) -0.007(4)
C1 C 0.2306(9) -0.1198(7) -0.0967(4)
C2 C 0.3072(10) -0.0744(6) -0.1761(4)
H8 H 0.1826 -0.0441 -0.2085
H9 H 0.3714 -0.1531 -0.2022
C3 C 0.3856(10) 0.1640(6) -0.1237(4)
C4 C 0.4744(9) 0.0431(6) -0.1706(3)
C5 C 0.5256(10) 0.0890(7) -0.2540(4)
H10 H 0.5890 0.0115 -0.2813
H11 H 0.3900 0.1127 -0.2820
C6 C 0.6782(10) 0.2108(6) -0.2580(4)
Gd1B Gd -0.11074(4) 0.17990(3) -0.065900(17)
Gd1B_2 Gd 0.88926(4) 0.17990(3) -0.065900(17)
O2B O -0.1301(7) 0.0311(4) 0.0549(2)
O3B O 0.4953(7) -0.2108(5) 0.0675(3)
O4B O 0.3303(7) 0.0019(4) 0.1288(3)
H1B H 0.297(16) 0.080(5) 0.148(6)
O5B O 0.2192(7) -0.2531(5) 0.1977(3)
O7B O -0.2022(7) -0.2123(4) 0.1432(3)
O10 O -0.4372(12) 0.4881(8) 0.1300(5)
H6 H -0.409(19) 0.402(3) 0.138(6)
H7 H -0.377(11) 0.513(7) 0.088(3)
loop_
_geom_bond_atom_site_label_1
_geom_bond_atom_site_label_2
_geom_bond_site_symmetry_1
_geom_bond_site_symmetry_2
Gd1 O1 1_555 1_555
O1 C1 1_555 1_555
O2 Gd1 1_555 1_555
O3 C3 1_555 1_555
O4 H1 1_555 1_555
O5 C6 1_555 1_555
O6 C6 1_555 1_555
O7 C3 1_555 1_555
O8 Gd1 1_555 1_555
H2 O8 1_555 1_555
H3 O8 1_555 1_555
O9 Gd1 1_555 1_555
H4 O9 1_555 1_555
H5 O9 1_555 1_555
O10 H6 1_555 1_555
H7 O10 1_555 1_555
C1 O2 1_555 1_555
C2 C1 1_555 1_555
H8 C2 1_555 1_555
H9 C2 1_555 1_555
C3 C4 1_555 1_555
C4 O4 1_555 1_555
C5 C4 1_555 1_555
H10 C5 1_555 1_555
H11 C5 1_555 1_555
C6 C5 1_555 1_555
Gd1B O2 1_555 1_555
Gd1B_2 O3 1_555 1_555
O2B Gd1 1_555 1_555
O3B Gd1 1_555 1_555
O4B Gd1 1_555 1_555
H1B O4B 1_555 1_555
O5B Gd1 1_555 1_555
O7B Gd1 1_555 1_555
O4 Gd1B_2 1_555 1_555
O5 Gd1B_2 1_555 1_555
O7 Gd1B 1_555 1_555
C2 C4 1_555 1_555
Gd1B O2B 1_555 1_555

#END
