
#######################################################################
#
#                 Cambridge Crystallographic Data Centre
#                                CCDC 
#
#######################################################################
#
# If this CIF has been generated from an entry in the Cambridge 
# Structural Database, then it will include bibliographic, chemical, 
# crystal, experimental, refinement or atomic coordinate data resulting 
# from the CCDC's data processing and validation procedures.
#
#######################################################################

data_RAXCIE
_symmetry_cell_setting           triclinic
_symmetry_space_group_name_H-M   'P -1'
_symmetry_Int_Tables_number      2
_space_group_name_Hall           '-P 1'
loop_
_symmetry_equiv_pos_site_id
_symmetry_equiv_pos_as_xyz
1 x,y,z
2 -x,-y,-z
_cell_length_a                   10.373(6)
_cell_length_b                   11.875(7)
_cell_length_c                   15.088(9)
_cell_angle_alpha                93.108(7)
_cell_angle_beta                 104.184(5)
_cell_angle_gamma                105.905(6)
_cell_volume                     1718.15
loop_
_atom_site_label
_atom_site_type_symbol
_atom_site_fract_x
_atom_site_fract_y
_atom_site_fract_z
Zn1 Zn 0.56708(5) 0.39462(5) 0.43062(3)
S1 S 0.97271(12) 0.61771(10) 0.57350(8)
O1 O 0.7257(4) 0.9841(3) -0.2978(2)
O2 O 0.3562(4) 1.0878(3) -0.2506(3)
O3 O 0.6645(3) 0.5370(3) 0.5276(2)
O4 O 1.3587(3) 0.8178(3) 0.6474(2)
O5 O 1.2601(3) 0.6269(3) 0.5930(2)
O6 O 0.6404(3) 0.6860(3) 0.6123(2)
O7 O 0.6884(4) 0.6119(4) 0.0514(3)
N1 N 0.5503(4) 1.0448(3) -0.2661(3)
N2 N 0.5641(4) 1.2759(4) -0.4663(3)
C1 C 0.8651(4) 0.6916(4) 0.6034(3)
O8 O 0.3301(4) 0.7304(4) 0.1057(3)
C2 C 0.9372(5) 0.8034(4) 0.6468(3)
H1 H 0.8949 0.8574 0.6676
N3 N 0.5402(4) 0.4993(4) 0.3177(3)
C3 C 0.5605(5) 1.1267(4) -0.3341(3)
C4 C 0.5308(5) 0.6217(4) 0.1674(3)
N4 N 0.5204(5) 0.6823(4) 0.0851(3)
C5 C 0.5238(5) 0.8176(4) -0.0619(3)
C6 C 0.5292(5) 0.8899(5) -0.1324(3)
C7 C 1.0817(5) 0.8293(5) 0.6572(3)
H2 H 1.1475 0.9028 0.686
C8 C 0.4265(6) 0.4731(5) 0.2486(3)
H3 H 0.3476 0.4123 0.2528
C9 C 0.4182(5) 0.8087(5) -0.0165(3)
C10 C 0.6192(5) 0.7534(5) -0.0405(3)
C11 C 0.6492(5) 0.5926(5) 0.3142(3)
H4 H 0.7308 0.6164 0.3645
C12 C 0.6557(5) 1.3065(5) -0.3823(4)
H5 H 0.7226 1.3824 -0.3688
C13 C 0.4380(5) 1.0325(4) -0.2272(3)
C14 C 0.6318(5) 0.8967(4) -0.1803(3)
C15 C 0.3244(6) 0.8705(5) -0.0387(3)
H6 H 0.2558 0.8653 -0.0061
C16 C 0.6567(6) 1.2327(5) -0.3150(4)
H7 H 0.7237 1.2563 -0.2567
C17 C 0.4169(6) 0.7379(5) 0.0623(3)
C18 C 0.7263(6) 0.8343(5) -0.1569(3)
H8 H 0.7965 0.8402 -0.1882
C19 C 0.3291(5) 0.9417(5) -0.1095(3)
H9 H 0.2626 0.9837 -0.1255
C20 C 0.4155(6) 0.5288(5) 0.1707(3)
H10 H 0.3331 0.5051 0.1211
C21 C 0.6154(6) 0.6760(5) 0.0344(4)
C22 C 0.7188(5) 0.7619(5) -0.0867(3)
H11 H 0.7837 0.7184 -0.071
C23 C 0.6417(5) 0.9755(4) -0.2529(3)
C24 C 1.1167(5) 0.7371(4) 0.6214(3)
C25 C 0.4290(5) 0.9511(4) -0.1558(3)
C26 C 0.7122(5) 0.6328(4) 0.5783(3)
C27 C 0.6425(6) 0.6529(5) 0.2385(4)
H12 H 0.7194 0.7179 0.2375
C28 C 0.4662(6) 1.0897(5) -0.4202(3)
H13 H 0.3995 1.0137 -0.4347
C29 C 1.2588(5) 0.7289(4) 0.6214(3)
C30 C 0.4744(6) 1.1697(4) -0.4845(3)
H14 H 0.4119 1.1462 -0.5444
Zn1A Zn 1.43292(5) 0.60538(5) 0.56938(3)
Zn1A_2 Zn 0.43292(5) 0.60538(5) 0.56938(3)
Zn1_2 Zn 0.56708(5) 1.39462(5) -0.56938(3)
O5A O 0.7399(3) 0.3731(3) 0.4070(2)
O6A O 0.3596(3) 0.3140(3) 0.3877(2)
N2_2 N 0.5641(4) 0.2759(4) 0.5337(3)
loop_
_geom_bond_atom_site_label_1
_geom_bond_atom_site_label_2
_geom_bond_site_symmetry_1
_geom_bond_site_symmetry_2
Zn1 O3 1_555 1_555
S1 C1 1_555 1_555
O1 C23 1_555 1_555
O2 C13 1_555 1_555
O3 C26 1_555 1_555
O4 C29 1_555 1_555
O5 C29 1_555 1_555
O6 C26 1_555 1_555
O7 C21 1_555 1_555
N1 C3 1_555 1_555
N2 C12 1_555 1_555
C1 C2 1_555 1_555
O8 C17 1_555 1_555
C2 H1 1_555 1_555
N3 Zn1 1_555 1_555
C3 C16 1_555 1_555
C4 N4 1_555 1_555
N4 C17 1_555 1_555
C5 C6 1_555 1_555
C6 C14 1_555 1_555
C7 C2 1_555 1_555
H2 C7 1_555 1_555
C8 N3 1_555 1_555
H3 C8 1_555 1_555
C9 C5 1_555 1_555
C10 C5 1_555 1_555
C11 N3 1_555 1_555
H4 C11 1_555 1_555
C12 H5 1_555 1_555
C13 N1 1_555 1_555
C14 C18 1_555 1_555
C15 C9 1_555 1_555
H6 C15 1_555 1_555
C16 C12 1_555 1_555
H7 C16 1_555 1_555
C17 C9 1_555 1_555
C18 H8 1_555 1_555
C19 C15 1_555 1_555
H9 C19 1_555 1_555
C20 C4 1_555 1_555
H10 C20 1_555 1_555
C21 N4 1_555 1_555
C22 C10 1_555 1_555
H11 C22 1_555 1_555
C23 N1 1_555 1_555
C24 S1 1_555 1_555
C25 C6 1_555 1_555
C26 C1 1_555 1_555
C27 C4 1_555 1_555
H12 C27 1_555 1_555
C28 C3 1_555 1_555
H13 C28 1_555 1_555
C29 C24 1_555 1_555
C30 N2 1_555 1_555
H14 C30 1_555 1_555
Zn1A O5 1_555 1_555
Zn1A_2 O6 1_555 1_555
Zn1_2 N2 1_555 1_555
O5A Zn1 1_555 1_555
O6A Zn1 1_555 1_555
N2_2 Zn1 1_555 1_555
C7 C24 1_555 1_555
C8 C20 1_555 1_555
C10 C21 1_555 1_555
C11 C27 1_555 1_555
C13 C25 1_555 1_555
C14 C23 1_555 1_555
C18 C22 1_555 1_555
C19 C25 1_555 1_555
C28 C30 1_555 1_555

#END
