
#######################################################################
#
#                 Cambridge Crystallographic Data Centre
#                                CCDC 
#
#######################################################################
#
# If this CIF has been generated from an entry in the Cambridge 
# Structural Database, then it will include bibliographic, chemical, 
# crystal, experimental, refinement or atomic coordinate data resulting 
# from the CCDC's data processing and validation procedures.
#
#######################################################################

data_RAXGII
_symmetry_cell_setting           triclinic
_symmetry_space_group_name_H-M   'P -1'
_symmetry_Int_Tables_number      2
_space_group_name_Hall           '-P 1'
loop_
_symmetry_equiv_pos_site_id
_symmetry_equiv_pos_as_xyz
1 x,y,z
2 -x,-y,-z
_cell_length_a                   7.031(3)
_cell_length_b                   7.071(3)
_cell_length_c                   11.090(5)
_cell_angle_alpha                91.475(4)
_cell_angle_beta                 102.677(4)
_cell_angle_gamma                114.704(4)
_cell_volume                     484.372
loop_
_atom_site_label
_atom_site_type_symbol
_atom_site_fract_x
_atom_site_fract_y
_atom_site_fract_z
C1 C 0.3132(16) 0.1315(14) -0.1795(9)
C2 C 0.3843(14) 0.1727(13) -0.2988(8)
C3 C 0.2427(17) 0.1851(15) -0.4013(10)
H1 H 0.1072 0.1678 -0.3942
C4 C 0.2931(18) 0.2228(14) -0.5170(10)
H2 H 0.1927 0.2231 -0.5872
C5 C 0.5037(18) 0.2600(15) -0.5200(9)
C6 C 0.6556(17) 0.2557(15) -0.4176(9)
H3 H 0.7945 0.2833 -0.4234
C7 C 0.5966(15) 0.2094(13) -0.3060(8)
C8 C 0.7535(16) 0.1840(15) -0.1998(9)
N1 N 0.5681(17) 0.3137(14) -0.6361(9)
O1 O 0.3867(11) 0.2864(11) -0.0948(6)
O2 O 0.1736(12) -0.0499(11) -0.1769(7)
O3 O 0.6822(11) 0.1038(11) -0.1085(6)
O4 O 0.9446(12) 0.2424(13) -0.2080(7)
O5 O -0.1113(12) -0.3986(10) -0.0703(6)
O6 O 0.4298(15) 0.3088(13) -0.7285(7)
O7 O 0.7543(15) 0.3587(14) -0.6373(8)
Pb1 Pb 0.0000 0.0000 0.0000
Pb2 Pb 0.75978(6) 0.39468(6) 0.07677(3)
H4 H -0.209(15) -0.40(2) -0.126(10)
C1_2 C -0.6868(16) 0.1315(14) -0.1795(9)
C2_2 C -0.6157(14) 0.1727(13) -0.2988(8)
C3_2 C -0.7573(17) 0.1851(15) -0.4013(10)
H1_2 H -0.8928 0.1678 -0.3942
C4_2 C -0.7069(18) 0.2228(14) -0.5170(10)
H2_2 H -0.8073 0.2231 -0.5872
C5_2 C -0.4963(18) 0.2600(15) -0.5200(9)
C6_2 C -0.3444(17) 0.2557(15) -0.4176(9)
H3_2 H -0.2055 0.2833 -0.4234
C7_2 C -0.4034(15) 0.2094(13) -0.3060(8)
C8_2 C -0.2465(16) 0.1840(15) -0.1998(9)
N1_2 N -0.4319(17) 0.3137(14) -0.6361(9)
O1_2 O -0.6133(11) 0.2864(11) -0.0948(6)
O1A O 0.6133(11) 0.7136(11) 0.0948(6)
O1A_2 O -0.3867(11) 0.7136(11) 0.0948(6)
O2_2 O -0.8264(12) -0.0499(11) -0.1769(7)
O2A O -0.1736(12) 0.0499(11) 0.1769(7)
O3_2 O -0.3178(11) 0.1038(11) -0.1085(6)
O3A O 0.3178(11) -0.1038(11) 0.1085(6)
O4_2 O -0.0554(12) 0.2424(13) -0.2080(7)
O4A O 1.0554(12) 0.7576(13) 0.2080(7)
O4A_2 O 0.0554(12) 0.7576(13) 0.2080(7)
O5A O 0.1113(12) 0.3986(10) 0.0703(6)
O5A_2 O 1.1113(12) 0.3986(10) 0.0703(6)
O5_2 O 0.8887(12) 0.6014(10) -0.0703(6)
O5_3 O -0.1113(12) 0.6014(10) -0.0703(6)
O6_2 O -0.5702(15) 0.3088(13) -0.7285(7)
O7_2 O -0.2457(15) 0.3587(14) -0.6373(8)
Pb1_2 Pb 1.0000 0.0000 0.0000
Pb1_3 Pb -1.0000 0.0000 0.0000
Pb2_2 Pb -0.24022(6) 0.39468(6) 0.07677(3)
Pb2A Pb 0.24022(6) 0.60532(6) -0.07677(3)
Pb2A_2 Pb 1.24022(6) 0.60532(6) -0.07677(3)
Pb2A_3 Pb 0.24022(6) -0.39468(6) -0.07677(3)
Pb2_3 Pb -0.24022(6) -0.60532(6) 0.07677(3)
Pb2A_4 Pb -0.75978(6) 0.60532(6) -0.07677(3)
H4A H 0.209(15) 0.40(2) 0.126(10)
H4A_2 H 1.209(15) 0.40(2) 0.126(10)
H4_2 H 0.791(15) 0.60(2) -0.126(10)
H4_3 H -0.209(15) 0.60(2) -0.126(10)
loop_
_geom_bond_atom_site_label_1
_geom_bond_atom_site_label_2
_geom_bond_site_symmetry_1
_geom_bond_site_symmetry_2
C1 C2 1_555 1_555
C2 C3 1_555 1_555
C3 H1 1_555 1_555
C4 C3 1_555 1_555
H2 C4 1_555 1_555
C5 C4 1_555 1_555
C6 C5 1_555 1_555
H3 C6 1_555 1_555
C7 C2 1_555 1_555
C8 C7 1_555 1_555
N1 C5 1_555 1_555
O1 C1 1_555 1_555
O2 C1 1_555 1_555
O3 C8 1_555 1_555
O4 C8 1_555 1_555
O5 Pb1 1_555 1_555
O6 N1 1_555 1_555
O7 N1 1_555 1_555
Pb1 O2 1_555 1_555
Pb2 O1 1_555 1_555
H4 O5 1_555 1_555
C1_2 C2_2 1_555 1_555
C2_2 C3_2 1_555 1_555
C3_2 H1_2 1_555 1_555
C4_2 C3_2 1_555 1_555
H2_2 C4_2 1_555 1_555
C5_2 C4_2 1_555 1_555
C6_2 C5_2 1_555 1_555
H3_2 C6_2 1_555 1_555
C7_2 C2_2 1_555 1_555
C8_2 C7_2 1_555 1_555
N1_2 C5_2 1_555 1_555
O1_2 C1_2 1_555 1_555
O1A Pb2 1_555 1_555
O1A_2 Pb2_2 1_555 1_555
O2_2 C1_2 1_555 1_555
O2A Pb1 1_555 1_555
O3_2 Pb1 1_555 1_555
O3A Pb1 1_555 1_555
O4_2 C8_2 1_555 1_555
O4A Pb2 1_555 1_555
O4A_2 Pb2_2 1_555 1_555
O5A Pb1 1_555 1_555
O5A_2 Pb2 1_555 1_555
O5_2 Pb2 1_555 1_555
O5_3 Pb2_2 1_555 1_555
O6_2 N1_2 1_555 1_555
O7_2 N1_2 1_555 1_555
Pb1_2 O3 1_555 1_555
Pb1_3 O2_2 1_555 1_555
Pb2_2 O1_2 1_555 1_555
Pb2A O1 1_555 1_555
Pb2A_2 O4 1_555 1_555
Pb2A_3 O5 1_555 1_555
Pb2_3 O5 1_555 1_555
Pb2A_4 O1_2 1_555 1_555
H4A O5A 1_555 1_555
H4A_2 O5A_2 1_555 1_555
H4_2 O5_2 1_555 1_555
H4_3 O5_3 1_555 1_555
C6 C7 1_555 1_555
O3 Pb2 1_555 1_555
C6_2 C7_2 1_555 1_555
C8_2 O3_2 1_555 1_555
O1A Pb2A 1_555 1_555
O1A_2 Pb2A_4 1_555 1_555
O3_2 Pb2_2 1_555 1_555
O3A Pb2A_3 1_555 1_555
O4_2 Pb2A 1_555 1_555
O5A Pb2_2 1_555 1_555
O5A Pb2A 1_555 1_555
O5A_2 Pb1_2 1_555 1_555
O5A_2 Pb2A_2 1_555 1_555
O5_2 Pb2A_2 1_555 1_555
O5_3 Pb2A 1_555 1_555

#END
