
#######################################################################
#
#                 Cambridge Crystallographic Data Centre
#                                CCDC 
#
#######################################################################
#
# If this CIF has been generated from an entry in the Cambridge 
# Structural Database, then it will include bibliographic, chemical, 
# crystal, experimental, refinement or atomic coordinate data resulting 
# from the CCDC's data processing and validation procedures.
#
#######################################################################

data_RAXPIR
_symmetry_cell_setting           monoclinic
_symmetry_space_group_name_H-M   'P 21/c'
_symmetry_Int_Tables_number      14
_space_group_name_Hall           '-P 2ybc'
loop_
_symmetry_equiv_pos_site_id
_symmetry_equiv_pos_as_xyz
1 x,y,z
2 -x,1/2+y,1/2-z
3 -x,-y,-z
4 x,1/2-y,1/2+z
_cell_length_a                   19.188(4)
_cell_length_b                   4.9851(10)
_cell_length_c                   16.215(3)
_cell_angle_alpha                90
_cell_angle_beta                 102.050(3)
_cell_angle_gamma                90
_cell_volume                     1516.86
loop_
_atom_site_label
_atom_site_type_symbol
_atom_site_fract_x
_atom_site_fract_y
_atom_site_fract_z
Pb1 Pb 0.89297(2) -0.37500(7) 0.253905(19)
C1 C 0.8382(6) 0.0018(19) 0.3600(6)
C2 C 0.8312(6) 0.1736(16) 0.4350(6)
H1 H 0.8153 0.3535 0.4150
C3 C 0.9034(6) 0.1952(17) 0.4953(6)
H2 H 0.9391 0.2497 0.4642
H3 H 0.9170 0.0209 0.5201
C4 C 0.9010(7) 0.3985(17) 0.5652(7)
H4 H 0.8892 0.5733 0.5398
H5 H 0.8633 0.3481 0.5936
C5 C 0.9701(6) 0.4208(17) 0.6299(6)
C6 C 0.6067(7) -0.069(2) 0.3445(7)
H6 H 0.5952 -0.1689 0.3883
C7 C 0.5758(8) -0.125(2) 0.2632(8)
H7 H 0.5443 -0.2690 0.2521
C8 C 0.5894(7) 0.025(3) 0.1952(7)
C9 C 0.6396(7) 0.233(2) 0.2144(7)
H8 H 0.6521 0.3321 0.1711
C10 C 0.6699(7) 0.289(2) 0.2952(7)
H9 H 0.7012 0.4335 0.3068
C11 C 0.6556(6) 0.1386(17) 0.3611(6)
C12 C 0.5519(9) -0.042(3) 0.1067(8)
H10 H 0.5812 0.0101 0.0681
H11 H 0.5074 0.0523 0.0932
H12 H 0.5432 -0.2317 0.1022
N1 N 0.7775(5) 0.0543(15) 0.4788(5)
H13 H 0.7872 -0.0864 0.5097
O1 O 0.8220(4) -0.2415(12) 0.3587(4)
O2 O 0.8656(4) 0.1069(11) 0.3030(4)
O3 O 1.0239(5) 0.2877(15) 0.6220(4)
O4 O 0.9732(4) 0.5719(14) 0.6918(5)
O5 O 0.7129(5) 0.4806(14) 0.4769(4)
O6 O 0.6631(5) 0.0590(14) 0.5205(4)
S1 S 0.70033(16) 0.1988(5) 0.46596(15)
O7 O 0.7557(7) -0.230(2) 0.1609(6)
H14 H 0.7321 -0.3862 0.1341
H15 H 0.7607 -0.0998 0.1188
Pb1_2 Pb 0.89297(2) 0.62500(7) 0.253905(19)
Pb1B Pb 1.10703(2) 0.37500(7) 0.746095(19)
Pb1C Pb 0.89297(2) 0.87500(7) 0.753905(19)
O2_2 O 0.8656(4) -0.8931(11) 0.3030(4)
O3B O 0.9761(5) -0.2877(15) 0.3780(4)
O4B O 1.0268(4) -0.5719(14) 0.3082(5)
O4C O 0.9732(4) -0.0719(14) 0.1918(5)
loop_
_geom_bond_atom_site_label_1
_geom_bond_atom_site_label_2
_geom_bond_site_symmetry_1
_geom_bond_site_symmetry_2
Pb1 O1 1_555 1_555
C1 C2 1_555 1_555
C2 H1 1_555 1_555
C3 C2 1_555 1_555
H2 C3 1_555 1_555
H3 C3 1_555 1_555
C4 C3 1_555 1_555
H4 C4 1_555 1_555
H5 C4 1_555 1_555
C5 C4 1_555 1_555
C6 H6 1_555 1_555
C7 C6 1_555 1_555
H7 C7 1_555 1_555
C8 C7 1_555 1_555
C9 C8 1_555 1_555
H8 C9 1_555 1_555
C10 C9 1_555 1_555
H9 C10 1_555 1_555
C11 C6 1_555 1_555
C12 C8 1_555 1_555
H10 C12 1_555 1_555
H11 C12 1_555 1_555
H12 C12 1_555 1_555
N1 C2 1_555 1_555
H13 N1 1_555 1_555
O1 C1 1_555 1_555
O2 Pb1 1_555 1_555
O3 C5 1_555 1_555
O4 C5 1_555 1_555
O5 S1 1_555 1_555
O6 S1 1_555 1_555
S1 C11 1_555 1_555
O7 Pb1 1_555 1_555
H14 O7 1_555 1_555
H15 O7 1_555 1_555
Pb1_2 O2 1_555 1_555
Pb1B O3 1_555 1_555
Pb1C O4 1_555 1_555
O2_2 Pb1 1_555 1_555
O3B Pb1 1_555 1_555
O4B Pb1 1_555 1_555
O4C Pb1 1_555 1_555
C1 O2 1_555 1_555
C10 C11 1_555 1_555
N1 S1 1_555 1_555
O4 Pb1B 1_555 1_555

#END
