
#######################################################################
#
#                 Cambridge Crystallographic Data Centre
#                                CCDC 
#
#######################################################################
#
# If this CIF has been generated from an entry in the Cambridge 
# Structural Database, then it will include bibliographic, chemical, 
# crystal, experimental, refinement or atomic coordinate data resulting 
# from the CCDC's data processing and validation procedures.
#
#######################################################################

data_RAXZAS
_symmetry_cell_setting           monoclinic
_symmetry_space_group_name_H-M   'C 2/c'
_symmetry_Int_Tables_number      15
_space_group_name_Hall           '-C 2yn'
loop_
_symmetry_equiv_pos_site_id
_symmetry_equiv_pos_as_xyz
1 x,y,z
2 1/2+x,1/2+y,z
3 -x,y,1/2-z
4 1/2-x,1/2+y,1/2-z
5 -x,-y,-z
6 1/2-x,1/2-y,-z
7 x,-y,1/2+z
8 1/2+x,1/2-y,1/2+z
_cell_length_a                   23.9365(5)
_cell_length_b                   10.8608(2)
_cell_length_c                   19.7789(5)
_cell_angle_alpha                90
_cell_angle_beta                 94.2343(7)
_cell_angle_gamma                90
_cell_volume                     5127.88
loop_
_atom_site_label
_atom_site_type_symbol
_atom_site_fract_x
_atom_site_fract_y
_atom_site_fract_z
Mn1 Mn 0.5000 0.31814(7) 0.2500
Mn2 Mn 0.5000 1.0000 0.5000
N1 N 0.56714(13) 0.4678(3) 0.26797(15)
N2 N 0.72212(12) 0.7311(3) 0.36915(14)
N3 N 0.76778(12) 0.8076(3) 0.38322(14)
N4 N 0.59109(13) 0.9844(3) 0.47144(16)
N5 N 0.43579(17) 0.1768(4) 0.2321(2)
N6 N 0.42457(16) 0.1023(4) 0.2693(2)
N7 N 0.4105(3) 0.0319(7) 0.3060(4)
N8 N 0.51293(17) 0.3183(3) 0.13899(18)
N9 N 0.51187(12) 0.2450(3) 0.09598(16)
N10 N 0.51053(16) 0.1769(4) 0.0504(2)
O1 O 0.52699(15) 1.0925(3) 0.59579(17)
C1 C 0.60207(18) 0.4938(4) 0.2209(2)
H1 H 0.5960 0.4564 0.1787
C2 C 0.64685(16) 0.5730(4) 0.23107(18)
H2 H 0.6701 0.5878 0.1963
C3 C 0.65704(14) 0.6305(3) 0.29309(17)
C4 C 0.62083(16) 0.6046(4) 0.34248(19)
H3 H 0.6260 0.6412 0.3850
C5 C 0.57709(17) 0.5242(4) 0.3283(2)
H4 H 0.5531 0.5079 0.3622
C6 C 0.70594(13) 0.7136(3) 0.30701(17)
C7 C 0.73110(14) 0.7724(3) 0.24875(17)
C8 C 0.78491(16) 0.7465(4) 0.2325(2)
H5 H 0.8070 0.6919 0.2590
C9 C 0.80603(19) 0.8020(5) 0.1766(2)
H6 H 0.8420 0.7831 0.1649
C10 C 0.7739(2) 0.8845(5) 0.1388(2)
H7 H 0.7883 0.9216 0.1014
C11 C 0.7218(2) 0.9130(5) 0.1550(2)
H8 H 0.7007 0.9709 0.1295
C12 C 0.69956(17) 0.8560(4) 0.2093(2)
H9 H 0.6631 0.8740 0.2195
C13 C 0.75760(15) 0.9065(3) 0.41635(16)
C14 C 0.80518(15) 0.9860(4) 0.44051(17)
C15 C 0.85875(18) 0.9360(5) 0.4519(2)
H10 H 0.8647 0.8529 0.4439
C16 C 0.9030(2) 1.0107(7) 0.4754(3)
H11 H 0.9388 0.9778 0.4833
C17 C 0.8939(3) 1.1328(7) 0.4867(3)
H12 H 0.9236 1.1821 0.5031
C18 C 0.8413(3) 1.1850(5) 0.4742(3)
H13 H 0.8358 1.2688 0.4809
C19 C 0.79723(19) 1.1103(4) 0.4519(2)
H14 H 0.7616 1.1439 0.4442
C20 C 0.70019(14) 0.9397(3) 0.43433(17)
C21 C 0.65925(18) 0.9907(4) 0.38902(19)
H15 H 0.6675 1.0101 0.3451
C22 C 0.60657(17) 1.0122(4) 0.4098(2)
H16 H 0.5802 1.0484 0.3791
C23 C 0.63059(16) 0.9364(4) 0.51460(19)
H17 H 0.6212 0.9170 0.5581
C24 C 0.68487(16) 0.9137(4) 0.49823(18)
H18 H 0.7109 0.8810 0.5305
C25 C 0.5082(3) 1.2062(6) 0.6227(4)
H19 H 0.5281 1.2218 0.6658
H20 H 0.5151 1.2720 0.5920
H21 H 0.4688 1.2012 0.6284
H22 H 0.544(3) 1.045(6) 0.626(3)
Mn2F Mn 0.5000 0.0000 0.0000
Mn2F_2 Mn 0.5000 1.0000 0.0000
Mn2_2 Mn 0.5000 0.0000 0.5000
N1B N 0.43286(13) 0.4678(3) 0.23203(15)
N2B N 0.27788(12) 0.7311(3) 0.13085(14)
N3B N 0.23222(12) 0.8076(3) 0.11678(14)
N4B N 0.40891(13) 0.9844(3) 0.02856(16)
N4D N 0.40891(13) 1.0156(3) 0.52856(16)
N5B N 0.56421(17) 0.1768(4) 0.2679(2)
N6B N 0.57543(16) 0.1023(4) 0.2307(2)
N7B N 0.5895(3) 0.0319(7) 0.1940(4)
N8B N 0.48707(17) 0.3183(3) 0.36101(18)
N9B N 0.48813(12) 0.2450(3) 0.40402(16)
N10B N 0.48947(16) 0.1769(4) 0.4496(2)
N10F N 0.51053(16) 0.8231(4) 0.5504(2)
N10B_2 N 0.48947(16) 1.1769(4) 0.4496(2)
O1D O 0.47301(15) 0.9075(3) 0.40421(17)
C1B C 0.39793(18) 0.4938(4) 0.2791(2)
H1B H 0.4040 0.4564 0.3213
C2B C 0.35315(16) 0.5730(4) 0.26893(18)
H2B H 0.3299 0.5878 0.3037
C3B C 0.34296(14) 0.6305(3) 0.20691(17)
C4B C 0.37917(16) 0.6046(4) 0.15752(19)
H3B H 0.3740 0.6412 0.1150
C5B C 0.42291(17) 0.5242(4) 0.1717(2)
H4B H 0.4469 0.5079 0.1378
C6B C 0.29406(13) 0.7136(3) 0.19299(17)
C7B C 0.26890(14) 0.7724(3) 0.25125(17)
C8B C 0.21509(16) 0.7465(4) 0.2675(2)
H5B H 0.1930 0.6919 0.2410
C9B C 0.19397(19) 0.8020(5) 0.3234(2)
H6B H 0.1580 0.7831 0.3351
C10B C 0.2261(2) 0.8845(5) 0.3612(2)
H7B H 0.2117 0.9216 0.3986
C11B C 0.2782(2) 0.9130(5) 0.3450(2)
H8B H 0.2993 0.9709 0.3705
C12B C 0.30044(17) 0.8560(4) 0.2907(2)
H9B H 0.3369 0.8740 0.2805
C13B C 0.24240(15) 0.9065(3) 0.08365(16)
C14B C 0.19482(15) 0.9860(4) 0.05949(17)
C15B C 0.14125(18) 0.9360(5) 0.0481(2)
H10B H 0.1353 0.8529 0.0561
C16B C 0.0970(2) 1.0107(7) 0.0246(3)
H11B H 0.0612 0.9778 0.0167
C17B C 0.1061(3) 1.1328(7) 0.0133(3)
H12B H 0.0764 1.1821 -0.0031
C18B C 0.1587(3) 1.1850(5) 0.0258(3)
H13B H 0.1642 1.2688 0.0191
C19B C 0.20277(19) 1.1103(4) 0.0481(2)
H14B H 0.2384 1.1439 0.0558
C20B C 0.29981(14) 0.9397(3) 0.06567(17)
C21B C 0.34075(18) 0.9907(4) 0.11098(19)
H15B H 0.3325 1.0101 0.1549
C22B C 0.39343(17) 1.0122(4) 0.0902(2)
H16B H 0.4198 1.0484 0.1209
C23B C 0.36941(16) 0.9364(4) -0.01460(19)
H17B H 0.3788 0.9170 -0.0581
C24B C 0.31513(16) 0.9137(4) 0.00177(18)
H18B H 0.2891 0.8810 -0.0305
C25D C 0.4918(3) 0.7938(6) 0.3773(4)
H19D H 0.4719 0.7782 0.3342
H20D H 0.4849 0.7280 0.4080
H21D H 0.5312 0.7988 0.3716
H22D H 0.456(3) 0.955(6) 0.374(3)
loop_
_geom_bond_atom_site_label_1
_geom_bond_atom_site_label_2
_geom_bond_site_symmetry_1
_geom_bond_site_symmetry_2
Mn1 N1 1_555 1_555
Mn2 N4 1_555 1_555
N1 C1 1_555 1_555
N2 N3 1_555 1_555
N3 C13 1_555 1_555
N4 C22 1_555 1_555
N5 Mn1 1_555 1_555
N6 N5 1_555 1_555
N7 N6 1_555 1_555
N8 Mn1 1_555 1_555
N9 N8 1_555 1_555
N10 N9 1_555 1_555
O1 Mn2 1_555 1_555
C1 H1 1_555 1_555
C2 C1 1_555 1_555
H2 C2 1_555 1_555
C3 C2 1_555 1_555
C4 C3 1_555 1_555
H3 C4 1_555 1_555
C5 N1 1_555 1_555
H4 C5 1_555 1_555
C6 N2 1_555 1_555
C7 C6 1_555 1_555
C8 C7 1_555 1_555
H5 C8 1_555 1_555
C9 C8 1_555 1_555
H6 C9 1_555 1_555
C10 C9 1_555 1_555
H7 C10 1_555 1_555
C11 C10 1_555 1_555
H8 C11 1_555 1_555
C12 C7 1_555 1_555
H9 C12 1_555 1_555
C13 C14 1_555 1_555
C14 C15 1_555 1_555
C15 H10 1_555 1_555
C16 C15 1_555 1_555
H11 C16 1_555 1_555
C17 C16 1_555 1_555
H12 C17 1_555 1_555
C18 C17 1_555 1_555
H13 C18 1_555 1_555
C19 C14 1_555 1_555
H14 C19 1_555 1_555
C20 C13 1_555 1_555
C21 C20 1_555 1_555
H15 C21 1_555 1_555
C22 C21 1_555 1_555
H16 C22 1_555 1_555
C23 N4 1_555 1_555
H17 C23 1_555 1_555
C24 C20 1_555 1_555
H18 C24 1_555 1_555
C25 O1 1_555 1_555
H19 C25 1_555 1_555
H20 C25 1_555 1_555
H21 C25 1_555 1_555
H22 O1 1_555 1_555
Mn2F N10 1_555 1_555
Mn2F_2 N4B 1_555 1_555
Mn2_2 N10B 1_555 1_555
N1B Mn1 1_555 1_555
N2B N3B 1_555 1_555
N3B C13B 1_555 1_555
N4B C22B 1_555 1_555
N4D Mn2 1_555 1_555
N5B Mn1 1_555 1_555
N6B N5B 1_555 1_555
N7B N6B 1_555 1_555
N8B Mn1 1_555 1_555
N9B N8B 1_555 1_555
N10B N9B 1_555 1_555
N10F Mn2 1_555 1_555
N10B_2 Mn2 1_555 1_555
O1D Mn2 1_555 1_555
C1B N1B 1_555 1_555
H1B C1B 1_555 1_555
C2B C1B 1_555 1_555
H2B C2B 1_555 1_555
C3B C2B 1_555 1_555
C4B C3B 1_555 1_555
H3B C4B 1_555 1_555
C5B N1B 1_555 1_555
H4B C5B 1_555 1_555
C6B N2B 1_555 1_555
C7B C6B 1_555 1_555
C8B C7B 1_555 1_555
H5B C8B 1_555 1_555
C9B C8B 1_555 1_555
H6B C9B 1_555 1_555
C10B C9B 1_555 1_555
H7B C10B 1_555 1_555
C11B C10B 1_555 1_555
H8B C11B 1_555 1_555
C12B C7B 1_555 1_555
H9B C12B 1_555 1_555
C13B C14B 1_555 1_555
C14B C15B 1_555 1_555
C15B H10B 1_555 1_555
C16B C15B 1_555 1_555
H11B C16B 1_555 1_555
C17B C16B 1_555 1_555
H12B C17B 1_555 1_555
C18B C17B 1_555 1_555
H13B C18B 1_555 1_555
C19B C14B 1_555 1_555
H14B C19B 1_555 1_555
C20B C13B 1_555 1_555
C21B C20B 1_555 1_555
H15B C21B 1_555 1_555
C22B C21B 1_555 1_555
H16B C22B 1_555 1_555
C23B N4B 1_555 1_555
H17B C23B 1_555 1_555
C24B C20B 1_555 1_555
H18B C24B 1_555 1_555
C25D O1D 1_555 1_555
H19D C25D 1_555 1_555
H20D C25D 1_555 1_555
H21D C25D 1_555 1_555
H22D O1D 1_555 1_555
C3 C6 1_555 1_555
C4 C5 1_555 1_555
C11 C12 1_555 1_555
C18 C19 1_555 1_555
C23 C24 1_555 1_555
C3B C6B 1_555 1_555
C4B C5B 1_555 1_555
C11B C12B 1_555 1_555
C18B C19B 1_555 1_555
C23B C24B 1_555 1_555

#END
