
#######################################################################
#
#                 Cambridge Crystallographic Data Centre
#                                CCDC 
#
#######################################################################
#
# If this CIF has been generated from an entry in the Cambridge 
# Structural Database, then it will include bibliographic, chemical, 
# crystal, experimental, refinement or atomic coordinate data resulting 
# from the CCDC's data processing and validation procedures.
#
#######################################################################

data_RAYLOU
_symmetry_cell_setting           hexagonal
_symmetry_space_group_name_H-M   'P 62 2 2'
_symmetry_Int_Tables_number      180
_space_group_name_Hall           "P 62 2' (0,0,4)"
loop_
_symmetry_equiv_pos_site_id
_symmetry_equiv_pos_as_xyz
1 x,y,z
2 -y,x-y,2/3+z
3 -x+y,-x,1/3+z
4 -x,-y,z
5 y,-x+y,2/3+z
6 x-y,x,1/3+z
7 y,x,2/3-z
8 x-y,-y,-z
9 -x,-x+y,1/3-z
10 -y,-x,2/3-z
11 -x+y,y,-z
12 x,x-y,1/3-z
_cell_length_a                   16.5094(8)
_cell_length_b                   16.5094(8)
_cell_length_c                   25.701(2)
_cell_angle_alpha                90
_cell_angle_beta                 90
_cell_angle_gamma                120
_cell_volume                     6066.57
loop_
_atom_site_label
_atom_site_type_symbol
_atom_site_fract_x
_atom_site_fract_y
_atom_site_fract_z
C1 C 0.26301(18) 0.5884(2) 0.90346(10)
C2 C 0.2546(2) 0.53788(19) 0.95360(10)
C3 C 0.29243(14) 0.5849(3) 1.0000
H1 H 0.3250 0.6499 1.0000
C4 C 0.2068(5) 0.4424(3) 0.95454(16)
H2 H 0.1799 0.4084 0.9244
C5 C 0.19908(18) 0.3982(4) 1.0000
C6 C 0.3498(3) 0.8802(2) 0.90116(11)
H3 H 0.3373 0.8352 0.9265
C7 C 0.3813(3) 0.9695(2) 0.91719(12)
H4 H 0.3879 0.9836 0.9525
C8 C 0.4030(2) 1.03845(19) 0.88146(11)
C9 C 0.3940(3) 1.0117(2) 0.83085(13)
H5 H 0.4129 1.0566 0.8048
C10 C 0.3575(3) 0.9192(2) 0.81764(12)
H6 H 0.3475 0.9028 0.7826
C11 C 0.4367(3) 1.1699(2) 0.94034(12)
C12 C 0.4616(2) 1.26946(19) 0.94223(12)
C13 C 0.4493(3) 1.3047(2) 0.98740(13)
H7 H 0.4326 1.2682 1.0173
C14 C 0.4612(3) 1.3938(2) 0.98985(13)
H8 H 0.4466 1.4137 1.0205
C15 C 0.4935(2) 1.45225(19) 0.94882(11)
C16 C 0.5179(3) 1.4211(2) 0.90636(15)
H9 H 0.5470 1.4621 0.8788
C17 C 0.5010(3) 1.3280(2) 0.90217(13)
H10 H 0.5171 1.3082 0.8720
N1 N 0.1491(4) 0.2981(8) 1.0000
N2 N 0.33602(16) 0.85317(15) 0.85220(8)
N3 N 0.43195(19) 1.13076(17) 0.89343(9)
H11 H 0.4493 1.1685 0.8674
O1 O 0.29275(14) 0.67329(13) 0.90457(7)
O2 O 0.23653(15) 0.54022(16) 0.86340(8)
O3 O 0.1644(7) 0.2548(6) 1.0402(4)
O4 O 0.4207(3) 1.12403(18) 0.97957(9)
Zn1 Zn 0.284658(17) 0.715342(17) 0.8333
C1J C 0.32539(27) 0.5884(2) 1.09654(10)
C2J C 0.28328(28) 0.53788(19) 1.04640(10)
C4J C 0.2356(6) 0.4424(3) 1.04546(16)
H2J H 0.2285 0.4084 1.0756
C6C C 0.6502(3) 2.1198(2) 0.90116(11)
H3C H 0.6627 2.1648 0.9265
C7C C 0.6187(3) 2.0305(2) 0.91719(12)
H4C H 0.6121 2.0164 0.9525
C8C C 0.5970(2) 1.96155(19) 0.88146(11)
C9C C 0.6060(3) 1.9883(2) 0.83085(13)
H5C H 0.5871 1.9434 0.8048
C10C C 0.6425(3) 2.0808(2) 0.81764(12)
H6C H 0.6525 2.0972 0.7826
C11C C 0.5633(3) 1.8301(2) 0.94034(12)
C12C C 0.5384(2) 1.73054(19) 0.94223(12)
C13C C 0.5507(3) 1.6953(2) 0.98740(13)
H7C H 0.5674 1.7318 1.0173
C14C C 0.5388(3) 1.6062(2) 0.98985(13)
H8C H 0.5534 1.5863 1.0205
C15C C 0.5065(2) 1.54775(19) 0.94882(11)
C16C C 0.4821(3) 1.5789(2) 0.90636(15)
H9C H 0.4530 1.5379 0.8788
C17C C 0.4990(3) 1.6720(2) 0.90217(13)
H10C H 0.4829 1.6918 0.8720
N2C N 0.66398(16) 2.14683(15) 0.85220(8)
N2I N 0.14683(15) 0.66398(16) 0.81447(8)
N3C N 0.56805(19) 1.86924(17) 0.89343(9)
H11C H 0.5507 1.8315 0.8674
O1J O 0.38054(19) 0.67329(13) 1.09543(7)
O1I O 0.32671(13) 0.70725(14) 0.76210(7)
O2J O 0.30369(22) 0.54022(16) 1.13660(8)
O3J O 0.0904(9) 0.2548(6) 0.9598(4)
O4C O 0.5793(3) 1.87597(18) 0.97957(9)
Zn1B Zn 0.430684(24) 0.715342(17) 1.1666
Zn1F Zn 0.715342(17) 2.284658(17) 0.8334
loop_
_geom_bond_atom_site_label_1
_geom_bond_atom_site_label_2
_geom_bond_site_symmetry_1
_geom_bond_site_symmetry_2
C1 C2 1_555 1_555
C2 C3 1_555 1_555
C3 H1 1_555 1_555
C4 C2 1_555 1_555
H2 C4 1_555 1_555
C5 C4 1_555 1_555
C6 H3 1_555 1_555
C7 C6 1_555 1_555
H4 C7 1_555 1_555
C8 C7 1_555 1_555
C9 C8 1_555 1_555
H5 C9 1_555 1_555
C10 C9 1_555 1_555
H6 C10 1_555 1_555
C11 C12 1_555 1_555
C12 C13 1_555 1_555
C13 H7 1_555 1_555
C14 C13 1_555 1_555
H8 C14 1_555 1_555
C15 C14 1_555 1_555
C16 C15 1_555 1_555
H9 C16 1_555 1_555
C17 C12 1_555 1_555
H10 C17 1_555 1_555
N1 C5 1_555 1_555
N2 C6 1_555 1_555
N3 C8 1_555 1_555
H11 N3 1_555 1_555
O1 C1 1_555 1_555
O2 C1 1_555 1_555
O3 N1 1_555 1_555
O4 C11 1_555 1_555
Zn1 N2 1_555 1_555
C1J C2J 1_555 1_555
C2J C3 1_555 1_555
C4J C5 1_555 1_555
H2J C4J 1_555 1_555
C6C H3C 1_555 1_555
C7C C6C 1_555 1_555
H4C C7C 1_555 1_555
C8C C7C 1_555 1_555
C9C C8C 1_555 1_555
H5C C9C 1_555 1_555
C10C C9C 1_555 1_555
H6C C10C 1_555 1_555
C11C C12C 1_555 1_555
C12C C13C 1_555 1_555
C13C H7C 1_555 1_555
C14C C13C 1_555 1_555
H8C C14C 1_555 1_555
C15C C15 1_555 1_555
C16C C15C 1_555 1_555
H9C C16C 1_555 1_555
C17C C12C 1_555 1_555
H10C C17C 1_555 1_555
N2C C6C 1_555 1_555
N2I Zn1 1_555 1_555
N3C C8C 1_555 1_555
H11C N3C 1_555 1_555
O1J C1J 1_555 1_555
O1I Zn1 1_555 1_555
O2J C1J 1_555 1_555
O3J N1 1_555 1_555
O4C C11C 1_555 1_555
Zn1B O1J 1_555 1_555
Zn1F N2C 1_555 1_555
C10 N2 1_555 1_555
C11 N3 1_555 1_555
C16 C17 1_555 1_555
O1 Zn1 1_555 1_555
C2J C4J 1_555 1_555
C10C N2C 1_555 1_555
C11C N3C 1_555 1_555
C14C C15C 1_555 1_555
C16C C17C 1_555 1_555

#END
