
#######################################################################
#
#                 Cambridge Crystallographic Data Centre
#                                CCDC 
#
#######################################################################
#
# If this CIF has been generated from an entry in the Cambridge 
# Structural Database, then it will include bibliographic, chemical, 
# crystal, experimental, refinement or atomic coordinate data resulting 
# from the CCDC's data processing and validation procedures.
#
#######################################################################

data_RAYLUA
_symmetry_cell_setting           hexagonal
_symmetry_space_group_name_H-M   'P 64 2 2'
_symmetry_Int_Tables_number      181
_space_group_name_Hall           "P 64 2' (0,0,2)"
loop_
_symmetry_equiv_pos_site_id
_symmetry_equiv_pos_as_xyz
1 x,y,z
2 x-y,x,2/3+z
3 -y,x-y,1/3+z
4 -x,-y,z
5 -x+y,-x,2/3+z
6 y,-x+y,1/3+z
7 -y,-x,1/3-z
8 x-y,-y,-z
9 x,x-y,2/3-z
10 y,x,1/3-z
11 -x+y,y,-z
12 -x,-x+y,2/3-z
_cell_length_a                   16.5097(2)
_cell_length_b                   16.5097(2)
_cell_length_c                   25.4661(5)
_cell_angle_alpha                90
_cell_angle_beta                 90
_cell_angle_gamma                120
_cell_volume                     6011.34
loop_
_atom_site_label
_atom_site_type_symbol
_atom_site_fract_x
_atom_site_fract_y
_atom_site_fract_z
C1 C 0.7399(5) 0.4162(5) 0.0967(2)
C2 C 0.7096(3) 0.4192(6) 0.0000
H1 H 0.6771 0.3541 0.0000
C3 C 0.5093(5) -0.4508(4) 0.0552(2)
C4 C 0.6029(5) -0.0354(4) 0.1204(2)
C5 C 0.5487(6) -0.2672(4) 0.0608(3)
C6 C 0.7466(5) 0.4665(4) 0.0464(3)
C7 C 0.6082(6) -0.0095(5) 0.1706(2)
H2 H 0.5921 -0.0538 0.1970
C8 C 0.6374(6) 0.0827(5) 0.1838(2)
H3 H 0.6395 0.0985 0.2190
C9 C 0.5738(8) -0.1665(5) 0.0613(3)
C10 C 0.5063(8) -0.3270(6) 0.1005(4)
H4 H 0.4929 -0.3074 0.1319
C11 C 0.6548(6) 0.1226(5) 0.0985(2)
H5 H 0.6678 0.1672 0.0726
C12 C 0.6293(7) 0.0345(5) 0.0829(3)
H6 H 0.6296 0.0211 0.0475
C13 C 0.4837(9) -0.4181(6) 0.0930(4)
H7 H 0.4454 -0.4608 0.1183
C14 C 0.5606(13) -0.3023(8) 0.0156(4)
H8 H 0.5838 -0.2648 -0.0141
C15 C 0.7904(10) 0.5625(5) 0.0470(4)
H9 H 0.8097 0.5947 0.0787
C16 C 0.5373(14) -0.3963(7) 0.0143(4)
H10 H 0.5420 -0.4212 -0.0176
C17 C 0.8058(4) 0.6116(8) 0.0000
C18 C 0.8597(6) 0.7194(11) 0.0000
N1 N 0.6622(3) 0.1489(3) 0.14774(18)
N2 N 0.5727(5) -0.1284(3) 0.10820(19)
H11 H 0.5502 -0.1670 0.1340
O1 O 0.7068(3) 0.3297(3) 0.09516(16)
O2 O 0.7662(4) 0.4627(4) 0.13858(19)
O3 O 0.5991(10) -0.1181(5) 0.0221(2)
O4 O 0.9087(16) 0.7605(7) 0.0366(4)
Zn1 Zn 0.71280(3) 0.28720(3) 0.1667
C1J C 0.6763(7) 0.4162(5) -0.0967(2)
C3C C 0.4907(5) -0.5492(4) 0.0552(2)
C4C C 0.3971(5) -0.9646(4) 0.1204(2)
C5C C 0.4513(6) -0.7328(4) 0.0608(3)
C6J C 0.7199(6) 0.4665(4) -0.0464(3)
C7C C 0.3918(6) -0.9905(5) 0.1706(2)
H2C H 0.4079 -0.9462 0.1970
C8C C 0.3626(6) -1.0827(5) 0.1838(2)
H3C H 0.3605 -1.0985 0.2190
C9C C 0.4262(8) -0.8335(5) 0.0613(3)
C10C C 0.4937(8) -0.6730(6) 0.1005(4)
H4C H 0.5071 -0.6926 0.1319
C11C C 0.3452(6) -1.1226(5) 0.0985(2)
H5C H 0.3322 -1.1672 0.0726
C12C C 0.3707(7) -1.0345(5) 0.0829(3)
H6C H 0.3704 -1.0211 0.0475
C13C C 0.5163(9) -0.5819(6) 0.0930(4)
H7C H 0.5546 -0.5392 0.1183
C14C C 0.4394(13) -0.6977(8) 0.0156(4)
H8C H 0.4162 -0.7352 -0.0141
C15J C 0.7721(11) 0.5625(5) -0.0470(4)
H9J H 0.7850 0.5947 -0.0787
C16C C 0.4627(14) -0.6037(7) 0.0143(4)
H10C H 0.4580 -0.5788 -0.0176
N1C N 0.3378(3) -1.1489(3) 0.14774(18)
N1F N 0.8511(3) 0.3378(3) 0.18559(18)
N2C N 0.4273(5) -0.8716(3) 0.10820(19)
H11C H 0.4498 -0.8330 0.1340
O1J O 0.6229(4) 0.3297(3) -0.09516(16)
O1F O 0.6703(3) 0.2932(3) 0.23817(16)
O2J O 0.6965(6) 0.4627(4) -0.13858(19)
O3C O 0.4009(10) -0.8819(5) 0.0221(2)
O4J O 0.8518(17) 0.7605(7) -0.0366(4)
Zn1D Zn 0.57440(4) 0.28720(3) -0.1666
Zn1I Zn 0.28720(3) -1.28720(3) 0.1666
loop_
_geom_bond_atom_site_label_1
_geom_bond_atom_site_label_2
_geom_bond_site_symmetry_1
_geom_bond_site_symmetry_2
C1 C6 1_555 1_555
C2 H1 1_555 1_555
C3 C13 1_555 1_555
C4 C7 1_555 1_555
C5 C9 1_555 1_555
C6 C2 1_555 1_555
C7 H2 1_555 1_555
C8 C7 1_555 1_555
H3 C8 1_555 1_555
C9 N2 1_555 1_555
C10 C5 1_555 1_555
H4 C10 1_555 1_555
C11 H5 1_555 1_555
C12 C4 1_555 1_555
H6 C12 1_555 1_555
C13 C10 1_555 1_555
H7 C13 1_555 1_555
C14 C5 1_555 1_555
H8 C14 1_555 1_555
C15 C6 1_555 1_555
H9 C15 1_555 1_555
C16 C3 1_555 1_555
H10 C16 1_555 1_555
C17 C15 1_555 1_555
C18 C17 1_555 1_555
N1 C8 1_555 1_555
N2 C4 1_555 1_555
H11 N2 1_555 1_555
O1 C1 1_555 1_555
O2 C1 1_555 1_555
O3 C9 1_555 1_555
O4 C18 1_555 1_555
Zn1 N1 1_555 1_555
C1J C6J 1_555 1_555
C3C C3 1_555 1_555
C4C C7C 1_555 1_555
C5C C9C 1_555 1_555
C6J C2 1_555 1_555
C7C H2C 1_555 1_555
C8C C7C 1_555 1_555
H3C C8C 1_555 1_555
C9C N2C 1_555 1_555
C10C C5C 1_555 1_555
H4C C10C 1_555 1_555
C11C H5C 1_555 1_555
C12C C4C 1_555 1_555
H6C C12C 1_555 1_555
C13C C3C 1_555 1_555
H7C C13C 1_555 1_555
C14C C5C 1_555 1_555
H8C C14C 1_555 1_555
C15J C17 1_555 1_555
H9J C15J 1_555 1_555
C16C C3C 1_555 1_555
H10C C16C 1_555 1_555
N1C C8C 1_555 1_555
N1F Zn1 1_555 1_555
N2C C4C 1_555 1_555
H11C N2C 1_555 1_555
O1J C1J 1_555 1_555
O1F Zn1 1_555 1_555
O2J C1J 1_555 1_555
O3C C9C 1_555 1_555
O4J C18 1_555 1_555
Zn1D O1J 1_555 1_555
Zn1I N1C 1_555 1_555
C11 C12 1_555 1_555
C11 N1 1_555 1_555
C14 C16 1_555 1_555
O1 Zn1 1_555 1_555
C6J C15J 1_555 1_555
C10C C13C 1_555 1_555
C11C C12C 1_555 1_555
C11C N1C 1_555 1_555
C14C C16C 1_555 1_555

#END
