
#######################################################################
#
#                 Cambridge Crystallographic Data Centre
#                                CCDC 
#
#######################################################################
#
# If this CIF has been generated from an entry in the Cambridge 
# Structural Database, then it will include bibliographic, chemical, 
# crystal, experimental, refinement or atomic coordinate data resulting 
# from the CCDC's data processing and validation procedures.
#
#######################################################################

data_RAYLAG
_symmetry_cell_setting           hexagonal
_symmetry_space_group_name_H-M   'P 64 2 2'
_symmetry_Int_Tables_number      181
_space_group_name_Hall           "P 64 2' (0,0,2)"
loop_
_symmetry_equiv_pos_site_id
_symmetry_equiv_pos_as_xyz
1 x,y,z
2 -y,x-y,1/3+z
3 -x+y,-x,2/3+z
4 -x,-y,z
5 y,-x+y,1/3+z
6 x-y,x,2/3+z
7 y,x,1/3-z
8 x-y,-y,-z
9 -x,-x+y,2/3-z
10 -y,-x,1/3-z
11 -x+y,y,-z
12 x,x-y,2/3-z
_cell_length_a                   16.5764(3)
_cell_length_b                   16.5764(3)
_cell_length_c                   25.2504(11)
_cell_angle_alpha                90
_cell_angle_beta                 90
_cell_angle_gamma                120
_cell_volume                     6008.68
loop_
_atom_site_label
_atom_site_type_symbol
_atom_site_fract_x
_atom_site_fract_y
_atom_site_fract_z
C1 C 0.25850(15) 0.67337(15) 0.06963(10)
C2 C 0.25094(15) 0.71598(14) 0.12080(11)
C3 C 0.29116(10) 0.70884(10) 0.1667
H1 H 0.3236 0.6764 0.1667
C4 C 0.20428(15) 0.76661(18) 0.12060(14)
H2 H 0.1796 0.7742 0.0892
C5 C 0.19464(14) 0.80536(14) 0.1667
C6 C 0.36159(17) 0.44445(17) -0.01760(9)
H3 H 0.3583 0.4574 -0.0531
C7 C 0.39514(15) 0.38438(15) -0.00485(9)
H4 H 0.4170 0.3615 -0.0315
C8 C 0.39577(14) 0.35930(13) 0.04675(9)
C9 C 0.36474(16) 0.39946(16) 0.08479(10)
H5 H 0.3633 0.3850 0.1205
C10 C 0.33659(17) 0.46040(17) 0.06838(10)
H6 H 0.3177 0.4875 0.0942
C11 C 0.41176(18) 0.24851(17) 0.10297(10)
C12 C 0.44414(16) 0.17873(15) 0.10518(10)
C13 C 0.4942(2) 0.17007(19) 0.07038(17)
H7 H 0.5148 0.2109 0.0418
C14 C 0.5197(2) 0.1018(2) 0.07326(19)
H8 H 0.5605 0.1018 0.0480
C15 C 0.48838(15) 0.03728(14) 0.11031(10)
C16 C 0.4455(2) 0.0527(2) 0.14736(16)
H9 H 0.4258 0.0131 0.1765
C17 C 0.4271(3) 0.1245(2) 0.14647(15)
H10 H 0.4014 0.1354 0.1765
N1 N 0.33445(11) 0.48346(11) 0.01812(7)
N2 N 0.42469(6) 0.29695(2) 0.05803(4)
H11 H 0.4548 0.2876 0.0333
N3 N 0.14571(6) 0.85396(2) 0.16667(4)
H12 H 0.1397 0.8780 0.1956
O1 O 0.29071(6) 0.62064(2) 0.07173(4)
O2 O 0.23239(6) 0.69234(2) 0.02760(4)
O3 O 0.37875(6) 0.26358(2) 0.14157(4)
Zn1 Zn 0.28593(6) 0.57195(2) 0.00001(4)
C1I C 0.32663(15) 0.74150(15) 0.26370(10)
C2I C 0.28402(14) 0.74906(15) 0.21253(11)
C4I C 0.23339(18) 0.79572(15) 0.21273(14)
H2I H 0.2258 0.8204 0.2441
C6C C 0.63841(17) -0.44445(17) -0.01760(9)
H3C H 0.6417 -0.4574 -0.0531
C7C C 0.60486(15) -0.38438(15) -0.00485(9)
H4C H 0.5830 -0.3615 -0.0315
C8C C 0.60423(14) -0.35930(13) 0.04675(9)
C9C C 0.63526(16) -0.39946(16) 0.08479(10)
H5C H 0.6367 -0.3850 0.1205
C10C C 0.66341(17) -0.46040(17) 0.06838(10)
H6C H 0.6823 -0.4875 0.0942
C11C C 0.58824(18) -0.24851(17) 0.10297(10)
C12C C 0.55586(16) -0.17873(15) 0.10518(10)
C13C C 0.5058(2) -0.17007(19) 0.07038(17)
H7C H 0.4852 -0.2109 0.0418
C14C C 0.4803(2) -0.1018(2) 0.07326(19)
H8C H 0.4395 -0.1018 0.0480
C15C C 0.51162(15) -0.03728(14) 0.11031(10)
C16C C 0.5545(2) -0.0527(2) 0.14736(16)
H9C H 0.5742 -0.0131 0.1765
C17C C 0.5729(3) -0.1245(2) 0.14647(15)
H10C H 0.5986 -0.1354 0.1765
N1C N 0.66555(11) -0.48346(11) 0.01812(7)
N1J N 0.14901(16) 0.48346(11) -0.01812(7)
N2C N 0.57531(6) -0.29695(2) 0.05803(4)
H11C H 0.5452 -0.2876 0.0333
H12I H 0.1220 0.8603 0.1377
O1I O 0.37936(2) 0.70929(6) 0.26160(4)
O1J O 0.32993(6) 0.62064(2) -0.07173(4)
O2I O 0.30766(2) 0.76761(6) 0.30573(4)
O3C O 0.62125(6) -0.26358(2) 0.14157(4)
Zn1A Zn 0.42805(2) 0.71398(6) 0.33334(4)
Zn1G Zn 0.71398(6) -0.57195(2) -0.00001(4)
loop_
_geom_bond_atom_site_label_1
_geom_bond_atom_site_label_2
_geom_bond_site_symmetry_1
_geom_bond_site_symmetry_2
C1 C2 1_555 1_555
C2 C3 1_555 1_555
C3 H1 1_555 1_555
C4 C2 1_555 1_555
H2 C4 1_555 1_555
C5 C4 1_555 1_555
C6 H3 1_555 1_555
C7 C6 1_555 1_555
H4 C7 1_555 1_555
C8 C7 1_555 1_555
C9 C8 1_555 1_555
H5 C9 1_555 1_555
C10 C9 1_555 1_555
H6 C10 1_555 1_555
C11 C12 1_555 1_555
C12 C13 1_555 1_555
C13 H7 1_555 1_555
C14 C13 1_555 1_555
H8 C14 1_555 1_555
C15 C14 1_555 1_555
C16 C15 1_555 1_555
H9 C16 1_555 1_555
C17 C12 1_555 1_555
H10 C17 1_555 1_555
N1 C6 1_555 1_555
N2 C8 1_555 1_555
H11 N2 1_555 1_555
N3 C5 1_555 1_555
H12 N3 1_555 1_555
O1 C1 1_555 1_555
O2 C1 1_555 1_555
O3 C11 1_555 1_555
Zn1 N1 1_555 1_555
C1I C2I 1_555 1_555
C2I C3 1_555 1_555
C4I C5 1_555 1_555
H2I C4I 1_555 1_555
C6C H3C 1_555 1_555
C7C C6C 1_555 1_555
H4C C7C 1_555 1_555
C8C C7C 1_555 1_555
C9C C8C 1_555 1_555
H5C C9C 1_555 1_555
C10C C9C 1_555 1_555
H6C C10C 1_555 1_555
C11C C12C 1_555 1_555
C12C C13C 1_555 1_555
C13C H7C 1_555 1_555
C14C C13C 1_555 1_555
H8C C14C 1_555 1_555
C15C C15 1_555 1_555
C16C C15C 1_555 1_555
H9C C16C 1_555 1_555
C17C C12C 1_555 1_555
H10C C17C 1_555 1_555
N1C C6C 1_555 1_555
N1J Zn1 1_555 1_555
N2C C8C 1_555 1_555
H11C N2C 1_555 1_555
H12I N3 1_555 1_555
O1I C1I 1_555 1_555
O1J Zn1 1_555 1_555
O2I C1I 1_555 1_555
O3C C11C 1_555 1_555
Zn1A O1I 1_555 1_555
Zn1G N1C 1_555 1_555
C10 N1 1_555 1_555
C11 N2 1_555 1_555
C16 C17 1_555 1_555
O1 Zn1 1_555 1_555
C2I C4I 1_555 1_555
C10C N1C 1_555 1_555
C11C N2C 1_555 1_555
C14C C15C 1_555 1_555
C16C C17C 1_555 1_555

#END
