
#######################################################################
#
#                 Cambridge Crystallographic Data Centre
#                                CCDC 
#
#######################################################################
#
# If this CIF has been generated from an entry in the Cambridge 
# Structural Database, then it will include bibliographic, chemical, 
# crystal, experimental, refinement or atomic coordinate data resulting 
# from the CCDC's data processing and validation procedures.
#
#######################################################################

data_RAYPOX
_symmetry_cell_setting           monoclinic
_symmetry_space_group_name_H-M   'P 21/c'
_symmetry_Int_Tables_number      14
_space_group_name_Hall           '-P 2ybc'
loop_
_symmetry_equiv_pos_site_id
_symmetry_equiv_pos_as_xyz
1 x,y,z
2 -x,1/2+y,1/2-z
3 -x,-y,-z
4 x,1/2-y,1/2+z
_cell_length_a                   8.982(2)
_cell_length_b                   17.908(4)
_cell_length_c                   13.219(3)
_cell_angle_alpha                90
_cell_angle_beta                 96.981(4)
_cell_angle_gamma                90
_cell_volume                     2110.51
loop_
_atom_site_label
_atom_site_type_symbol
_atom_site_fract_x
_atom_site_fract_y
_atom_site_fract_z
Sn1 Sn 0.85310(6) 0.02587(3) 0.26006(4)
N1 N 1.1185(7) -0.3077(3) 0.1266(5)
O1 O 0.8945(7) -0.0761(3) 0.1768(4)
O2 O 1.0214(8) -0.1333(3) 0.3086(4)
O3 O 1.2139(6) -0.3600(3) 0.1646(5)
C1 C 1.0900(8) -0.2487(4) 0.1860(6)
H1 H 1.1370 -0.2463 0.2526
C2 C 0.9954(8) -0.1935(4) 0.1508(5)
C3 C 0.9274(9) -0.1974(4) 0.0521(6)
H2 H 0.8610 -0.1604 0.0261
C4 C 0.9585(10) -0.2567(5) -0.0075(6)
H3 H 0.9132 -0.2596 -0.0745
C5 C 1.0550(10) -0.3113(5) 0.0302(7)
H4 H 1.0765 -0.3509 -0.0111
C6 C 0.9667(10) -0.1299(4) 0.2187(6)
C7 C 0.7368(14) -0.0227(6) 0.3750(9)
H5 H 0.8102 -0.0440 0.4269
H6 H 0.6850 0.0167 0.4069
C8 C 0.6263(15) -0.0814(7) 0.3402(10)
H7 H 0.6796 -0.1242 0.3175
H8 H 0.5608 -0.0627 0.2820
C9 C 0.5320(19) -0.1069(10) 0.4190(12)
H9 H 0.5972 -0.1290 0.4749
H10 H 0.4852 -0.0634 0.4456
C10 C 0.4178(19) -0.1593(11) 0.3856(16)
H11 H 0.3635 -0.1720 0.4414
H12 H 0.4624 -0.2034 0.3612
H13 H 0.3503 -0.1377 0.3315
C11 C 1.0857(12) 0.0535(6) 0.3008(9)
H14 H 1.0954 0.0855 0.3604
H15 H 1.1418 0.0081 0.3184
C12 C 1.1511(15) 0.0922(10) 0.2163(13)
H16 H 1.1000 0.1396 0.2030
H17 H 1.1323 0.0622 0.1551
C13 C 1.3181(15) 0.1067(12) 0.2379(16)
H18 H 1.3605 0.0728 0.2909
H19 H 1.3641 0.0956 0.1769
C14 C 1.3548(16) 0.1798(11) 0.2682(15)
H20 H 1.4618 0.1848 0.2810
H21 H 1.3112 0.1912 0.3292
H22 H 1.3164 0.2138 0.2152
C15 C 0.7167(19) 0.0685(9) 0.1296(9)
H23 H 0.6296 0.0361 0.1190
H24 H 0.6806 0.1167 0.1495
C16 C 0.762(2) 0.0782(13) 0.0389(13)
H25 H 0.8107 0.0321 0.0233
H26 H 0.8394 0.1160 0.0478
C17 C 0.6605(17) 0.0994(10) -0.0572(10)
H27 H 0.7238 0.1135 -0.1085
H28 H 0.6052 0.0552 -0.0820
C18 C 0.555(2) 0.1579(10) -0.0496(14)
H29 H 0.4942 0.1639 -0.1138
H30 H 0.6082 0.2036 -0.0318
H31 H 0.4930 0.1457 0.0021
Sn1A Sn 1.14690(6) -0.47413(3) 0.23994(4)
O3A O 0.7861(6) 0.1400(3) 0.3354(5)
loop_
_geom_bond_atom_site_label_1
_geom_bond_atom_site_label_2
_geom_bond_site_symmetry_1
_geom_bond_site_symmetry_2
Sn1 O1 1_555 1_555
N1 O3 1_555 1_555
O1 C6 1_555 1_555
O2 C6 1_555 1_555
O3 Sn1A 1_555 1_555
C1 N1 1_555 1_555
H1 C1 1_555 1_555
C2 C1 1_555 1_555
C3 C2 1_555 1_555
H2 C3 1_555 1_555
C4 C3 1_555 1_555
H3 C4 1_555 1_555
C5 N1 1_555 1_555
H4 C5 1_555 1_555
C6 C2 1_555 1_555
C7 Sn1 1_555 1_555
H5 C7 1_555 1_555
H6 C7 1_555 1_555
C8 C7 1_555 1_555
H7 C8 1_555 1_555
H8 C8 1_555 1_555
C9 C8 1_555 1_555
H9 C9 1_555 1_555
H10 C9 1_555 1_555
C10 C9 1_555 1_555
H11 C10 1_555 1_555
H12 C10 1_555 1_555
H13 C10 1_555 1_555
C11 Sn1 1_555 1_555
H14 C11 1_555 1_555
H15 C11 1_555 1_555
C12 C11 1_555 1_555
H16 C12 1_555 1_555
H17 C12 1_555 1_555
C13 C12 1_555 1_555
H18 C13 1_555 1_555
H19 C13 1_555 1_555
C14 C13 1_555 1_555
H20 C14 1_555 1_555
H21 C14 1_555 1_555
H22 C14 1_555 1_555
C15 Sn1 1_555 1_555
H23 C15 1_555 1_555
H24 C15 1_555 1_555
C16 C15 1_555 1_555
H25 C16 1_555 1_555
H26 C16 1_555 1_555
C17 C16 1_555 1_555
H27 C17 1_555 1_555
H28 C17 1_555 1_555
C18 C17 1_555 1_555
H29 C18 1_555 1_555
H30 C18 1_555 1_555
H31 C18 1_555 1_555
O3A Sn1 1_555 1_555
C4 C5 1_555 1_555

#END
