
#######################################################################
#
#                 Cambridge Crystallographic Data Centre
#                                CCDC 
#
#######################################################################
#
# If this CIF has been generated from an entry in the Cambridge 
# Structural Database, then it will include bibliographic, chemical, 
# crystal, experimental, refinement or atomic coordinate data resulting 
# from the CCDC's data processing and validation procedures.
#
#######################################################################

data_RAYPAJ
_symmetry_cell_setting           monoclinic
_symmetry_space_group_name_H-M   'P 21/c'
_symmetry_Int_Tables_number      14
_space_group_name_Hall           '-P 2ybc'
loop_
_symmetry_equiv_pos_site_id
_symmetry_equiv_pos_as_xyz
1 x,y,z
2 -x,1/2+y,1/2-z
3 -x,-y,-z
4 x,1/2-y,1/2+z
_cell_length_a                   10.5856(7)
_cell_length_b                   14.9640(9)
_cell_length_c                   15.1775(10)
_cell_angle_alpha                90
_cell_angle_beta                 98.5570(10)
_cell_angle_gamma                90
_cell_volume                     2377.4
loop_
_atom_site_label
_atom_site_type_symbol
_atom_site_fract_x
_atom_site_fract_y
_atom_site_fract_z
Cd1 Cd 0.51180(6) 0.87032(4) 0.77479(4)
Cl1 Cl 0.6690(3) 0.9843(2) 0.82227(18)
Cl2 Cl 0.5904(3) 0.72169(17) 0.81954(17)
N1 N 0.1505(7) 0.9545(5) 0.8558(5)
H1 H 0.1037 0.9957 0.8737
N2 N 0.3217(7) 0.8868(4) 0.8207(4)
N3 N 0.5265(6) 1.3675(4) 1.0171(4)
H2 H 0.5006 1.3494 1.0651
N4 N 0.5374(5) 1.3814(4) 0.8742(4)
C1 C 0.1093(8) 0.8708(5) 0.8232(5)
C2 C -0.0087(9) 0.8298(8) 0.8147(6)
H3 H -0.0811 0.8591 0.8279
C3 C -0.0123(11) 0.7416(8) 0.7851(7)
H4 H -0.0897 0.7110 0.7774
C4 C 0.0968(11) 0.6983(7) 0.7667(6)
H5 H 0.0915 0.6386 0.7495
C5 C 0.2115(9) 0.7412(6) 0.7732(5)
H6 H 0.2833 0.7124 0.7585
C6 C 0.2179(8) 0.8286(5) 0.8024(5)
C7 C 0.2772(10) 0.9590(6) 0.8541(7)
C8 C 0.3605(12) 1.0352(7) 0.8940(12)
H7 H 0.3895 1.0195 0.9557
H8 H 0.4356 1.0354 0.8644
C9 C 0.3217(11) 1.1150(7) 0.8939(11)
H9 H 0.2539 1.1181 0.9303
H10 H 0.2847 1.1305 0.8335
C10 C 0.4224(9) 1.1859(6) 0.9276(7)
H11 H 0.4519 1.1759 0.9904
H12 H 0.4951 1.1792 0.8961
C11 C 0.3722(8) 1.2789(7) 0.9150(6)
H13 H 0.3302 1.2865 0.8541
H14 H 0.3096 1.2894 0.9544
C12 C 0.4761(7) 1.3439(5) 0.9339(5)
C13 C 0.6263(8) 1.4254(5) 1.0132(5)
C14 C 0.7104(10) 1.4671(6) 1.0774(6)
H15 H 0.7058 1.4603 1.1377
C15 C 0.8017(10) 1.5194(6) 1.0478(8)
H16 H 0.8597 1.5496 1.0894
C16 C 0.8108(11) 1.5288(7) 0.9579(8)
H17 H 0.8755 1.5638 0.9406
C17 C 0.7252(9) 1.4870(5) 0.8944(6)
H18 H 0.7294 1.4947 0.8341
C18 C 0.6328(7) 1.4332(5) 0.9220(5)
Cd1A Cd 0.48820(6) 1.37032(4) 0.72521(4)
N4A N 0.4626(5) 0.8814(4) 0.6258(4)
O1 O 1.0393(6) 1.0885(5) 0.9351(5)
N5 N 0.8968(6) 1.1928(5) 0.9595(4)
C19 C 0.9836(12) 1.2653(7) 0.9652(7)
H19 H 1.0678 1.2433 0.9612
H20 H 0.9842 1.2954 1.0211
H21 H 0.9577 1.3063 0.9172
C20 C 0.7642(9) 1.2121(7) 0.9651(7)
H22 H 0.7164 1.1573 0.9614
H23 H 0.7300 1.2507 0.9169
H24 H 0.7582 1.2409 1.0208
C21 C 0.9313(8) 1.1112(6) 0.9444(5)
H25 H 0.8690 1.0670 0.9405
loop_
_geom_bond_atom_site_label_1
_geom_bond_atom_site_label_2
_geom_bond_site_symmetry_1
_geom_bond_site_symmetry_2
Cd1 Cl1 1_555 1_555
Cl2 Cd1 1_555 1_555
O1 C21 1_555 1_555
N1 H1 1_555 1_555
N2 Cd1 1_555 1_555
N3 H2 1_555 1_555
N4 C12 1_555 1_555
N5 C19 1_555 1_555
C1 N1 1_555 1_555
C2 C1 1_555 1_555
H3 C2 1_555 1_555
C3 C2 1_555 1_555
H4 C3 1_555 1_555
C4 C3 1_555 1_555
H5 C4 1_555 1_555
C5 C4 1_555 1_555
H6 C5 1_555 1_555
C6 N2 1_555 1_555
C7 N1 1_555 1_555
C8 C7 1_555 1_555
H7 C8 1_555 1_555
H8 C8 1_555 1_555
C9 C8 1_555 1_555
H9 C9 1_555 1_555
H10 C9 1_555 1_555
C10 C9 1_555 1_555
H11 C10 1_555 1_555
H12 C10 1_555 1_555
C11 C10 1_555 1_555
H13 C11 1_555 1_555
H14 C11 1_555 1_555
C12 N3 1_555 1_555
C13 N3 1_555 1_555
C14 C13 1_555 1_555
H15 C14 1_555 1_555
C15 C14 1_555 1_555
H16 C15 1_555 1_555
C16 C15 1_555 1_555
H17 C16 1_555 1_555
C17 C16 1_555 1_555
H18 C17 1_555 1_555
C18 N4 1_555 1_555
C19 H19 1_555 1_555
H20 C19 1_555 1_555
H21 C19 1_555 1_555
C20 N5 1_555 1_555
H22 C20 1_555 1_555
H23 C20 1_555 1_555
H24 C20 1_555 1_555
C21 N5 1_555 1_555
H25 C21 1_555 1_555
Cd1A N4 1_555 1_555
N4A Cd1 1_555 1_555
N2 C7 1_555 1_555
C1 C6 1_555 1_555
C5 C6 1_555 1_555
C11 C12 1_555 1_555
C13 C18 1_555 1_555
C17 C18 1_555 1_555

#END
