
#######################################################################
#
#                 Cambridge Crystallographic Data Centre
#                                CCDC 
#
#######################################################################
#
# If this CIF has been generated from an entry in the Cambridge 
# Structural Database, then it will include bibliographic, chemical, 
# crystal, experimental, refinement or atomic coordinate data resulting 
# from the CCDC's data processing and validation procedures.
#
#######################################################################

data_RAYROA
_symmetry_cell_setting           monoclinic
_symmetry_space_group_name_H-M   'C 2/c'
_symmetry_Int_Tables_number      15
_space_group_name_Hall           '-C 2yn'
loop_
_symmetry_equiv_pos_site_id
_symmetry_equiv_pos_as_xyz
1 x,y,z
2 -x,y,1/2-z
3 1/2+x,1/2+y,z
4 1/2-x,1/2+y,1/2-z
5 -x,-y,-z
6 x,-y,1/2+z
7 1/2-x,1/2-y,-z
8 1/2+x,1/2-y,1/2+z
_cell_length_a                   31.8817(15)
_cell_length_b                   13.8940(5)
_cell_length_c                   8.4741(4)
_cell_angle_alpha                90
_cell_angle_beta                 100.459(4)
_cell_angle_gamma                90
_cell_volume                     3691.36
loop_
_atom_site_label
_atom_site_type_symbol
_atom_site_fract_x
_atom_site_fract_y
_atom_site_fract_z
C1 C 0.0507(2) 0.5075(7) 0.4024(9)
H1 H 0.0627 0.5522 0.4848
H2 H 0.0357 0.4578 0.4482
H3 H 0.0312 0.5407 0.3208
C2 C 0.08598(18) 0.4631(5) 0.3293(7)
C3 C 0.08583(18) 0.3674(5) 0.2989(7)
H4 H 0.0638 0.3296 0.3232
C4 C 0.11797(17) 0.3243(4) 0.2318(6)
H5 H 0.1174 0.2584 0.2125
C5 C 0.15046(15) 0.3793(4) 0.1944(6)
C6 C 0.18641(15) 0.3344(3) 0.1323(5)
C7 C 0.15030(17) 0.4773(4) 0.2234(6)
H6 H 0.1719 0.5160 0.1982
C8 C 0.11805(18) 0.5171(5) 0.2897(7)
H7 H 0.1182 0.5831 0.3080
C9 C -0.0045(2) -0.2024(7) -0.0077(12)
H8 H -0.0245 -0.1768 0.0537
H9 H -0.0147 -0.1904 -0.1197
H10 H -0.0017 -0.2705 0.0103
C10 C 0.0383(2) -0.1546(5) 0.0436(8)
C11 C 0.0679(2) -0.1939(5) 0.1635(8)
H11 H 0.0612 -0.2495 0.2145
C12 C 0.10764(18) -0.1523(4) 0.2100(7)
H12 H 0.1274 -0.1808 0.2906
C13 C 0.11816(16) -0.0686(4) 0.1377(6)
C14 C 0.16138(14) -0.0244(3) 0.1804(5)
C15 C 0.08859(18) -0.0281(5) 0.0183(7)
H13 H 0.0952 0.0278 -0.0324
C16 C 0.0484(2) -0.0708(5) -0.0270(8)
H14 H 0.0283 -0.0420 -0.1061
C17 C 0.22223(14) 0.3018(3) -0.2891(5)
C18 C 0.19444(19) 0.2642(4) -0.4368(6)
H15 H 0.2027 0.2929 -0.5297
H16 H 0.1975 0.1955 -0.4415
H17 H 0.1652 0.2799 -0.4344
Er1 Er 0.222840(6) 0.127650(12) 0.012680(19)
O1 O 0.16922(10) 0.0489(2) 0.1063(4)
O2 O 0.18819(11) -0.0653(2) 0.2858(4)
O3 O 0.18317(11) 0.2465(2) 0.0980(4)
O4 O 0.22227(10) 0.2640(2) -0.1538(3)
O5 O 0.24524(12) 0.3732(2) -0.2983(4)
O6 O 0.21863(11) 0.3849(2) 0.1223(4)
O7 O 0.25129(11) -0.0243(2) 0.0638(4)
H18 H 0.2728 -0.0415 0.0240
H19 H 0.2403 -0.0632 0.1222
Er1E Er 0.222840(6) -0.127650(12) 0.512680(19)
Er1F Er 0.277160(6) 0.372350(12) -0.012680(19)
O2E O 0.18819(11) 0.0653(2) -0.2142(4)
O4F O 0.27773(10) 0.2360(2) 0.1538(3)
O5F O 0.25476(12) 0.1268(2) 0.2983(4)
O6F O 0.28137(11) 0.1151(2) -0.1223(4)
loop_
_geom_bond_atom_site_label_1
_geom_bond_atom_site_label_2
_geom_bond_site_symmetry_1
_geom_bond_site_symmetry_2
C1 H1 1_555 1_555
H2 C1 1_555 1_555
H3 C1 1_555 1_555
C2 C1 1_555 1_555
C3 C2 1_555 1_555
H4 C3 1_555 1_555
C4 C3 1_555 1_555
H5 C4 1_555 1_555
C5 C4 1_555 1_555
C6 C5 1_555 1_555
C7 C5 1_555 1_555
H6 C7 1_555 1_555
C8 C2 1_555 1_555
H7 C8 1_555 1_555
C9 H8 1_555 1_555
H9 C9 1_555 1_555
H10 C9 1_555 1_555
C10 C9 1_555 1_555
C11 C10 1_555 1_555
H11 C11 1_555 1_555
C12 C11 1_555 1_555
H12 C12 1_555 1_555
C13 C12 1_555 1_555
C14 C13 1_555 1_555
C15 C13 1_555 1_555
H13 C15 1_555 1_555
C16 C10 1_555 1_555
H14 C16 1_555 1_555
C17 C18 1_555 1_555
C18 H15 1_555 1_555
H16 C18 1_555 1_555
H17 C18 1_555 1_555
Er1 O1 1_555 1_555
O1 C14 1_555 1_555
O2 C14 1_555 1_555
O3 C6 1_555 1_555
O4 C17 1_555 1_555
O5 C17 1_555 1_555
O6 C6 1_555 1_555
O7 Er1 1_555 1_555
H18 O7 1_555 1_555
H19 O7 1_555 1_555
Er1E O2 1_555 1_555
Er1F O4 1_555 1_555
O2E Er1 1_555 1_555
O4F Er1 1_555 1_555
O5F Er1 1_555 1_555
O6F Er1 1_555 1_555
C7 C8 1_555 1_555
C15 C16 1_555 1_555
Er1 O3 1_555 1_555
Er1 O4 1_555 1_555
O5 Er1F 1_555 1_555
O6 Er1F 1_555 1_555
Er1F O4F 1_555 1_555

#END
