
#######################################################################
#
#                 Cambridge Crystallographic Data Centre
#                                CCDC 
#
#######################################################################
#
# If this CIF has been generated from an entry in the Cambridge 
# Structural Database, then it will include bibliographic, chemical, 
# crystal, experimental, refinement or atomic coordinate data resulting 
# from the CCDC's data processing and validation procedures.
#
#######################################################################

data_RAYSIV
_symmetry_cell_setting           orthorhombic
_symmetry_space_group_name_H-M   'P 21 21 21'
_symmetry_Int_Tables_number      19
_space_group_name_Hall           'P 2ac 2ab'
loop_
_symmetry_equiv_pos_site_id
_symmetry_equiv_pos_as_xyz
1 x,y,z
2 1/2-x,-y,1/2+z
3 -x,1/2+y,1/2-z
4 1/2+x,1/2-y,-z
_cell_length_a                   10.3097(7)
_cell_length_b                   11.3611(7)
_cell_length_c                   17.0670(11)
_cell_angle_alpha                90
_cell_angle_beta                 90
_cell_angle_gamma                90
_cell_volume                     1999.05
loop_
_atom_site_label
_atom_site_type_symbol
_atom_site_fract_x
_atom_site_fract_y
_atom_site_fract_z
Sb1 Sb 0.46845(3) -0.12035(2) 0.072200(17)
Sb2 Sb 0.09646(2) -0.00391(2) -0.116170(16)
O1 O 0.0055(3) -0.0058(3) -0.00119(18)
O2 O -0.1354(4) -0.0511(3) 0.2297(2)
O3 O 0.0197(3) 0.0770(3) 0.11631(19)
O4 O -0.0538(3) 0.3318(3) 0.13022(19)
O5 O 0.2267(3) 0.0834(3) -0.05173(16)
O6 O -0.1398(3) 0.1259(3) 0.35047(18)
O7 O -0.1239(3) 0.3615(3) 0.28822(18)
H1 H -0.192(2) 0.355(4) 0.315(2)
H2 H -0.063(3) 0.382(4) 0.317(2)
O8 O 0.2982(3) -0.0420(3) 0.09320(18)
O9 O 0.5098(3) 0.0613(3) 0.04163(19)
O10 O -0.2377(3) 0.1195(3) 0.08663(19)
H3 H -0.311(2) 0.089(5) 0.080(4)
H4 H -0.185(4) 0.088(5) 0.055(3)
O11 O 0.4349(3) 0.2435(3) 0.0612(2)
O13 O 0.1566(3) 0.2765(3) 0.57007(19)
O14 O 0.2613(3) 0.3984(3) 0.49124(19)
O15 O 0.0578(3) 0.1468(3) 0.45787(17)
O16 O 0.3427(3) 0.1623(3) 0.41628(17)
O17 O 0.2334(3) 0.0314(3) 0.30669(17)
O18 O 0.0915(3) 0.1694(3) 0.27099(17)
O19 O -0.3579(4) 0.1029(4) 0.2486(3)
O20 O -0.3403(4) 0.2792(3) 0.2060(3)
O21 O -0.5282(4) 0.2151(5) 0.2470(3)
N1 N -0.4128(4) 0.2004(4) 0.2339(2)
C1 C 0.0616(4) 0.0596(4) 0.0491(2)
C2 C 0.1884(4) 0.1165(4) 0.0245(2)
H7 H 0.1772 0.2022 0.0257
C3 C 0.2918(4) 0.0824(4) 0.0859(3)
H8 H 0.2662 0.1156 0.1367
C4 C 0.4193(4) 0.1376(4) 0.0615(2)
C5 C 0.1890(4) 0.3141(4) 0.5014(3)
C6 C 0.1285(4) 0.2480(3) 0.4330(2)
H9 H 0.0689 0.3012 0.4057
C7 C 0.2386(4) 0.2131(4) 0.3757(2)
H10 H 0.2702 0.2851 0.3504
C8 C 0.1822(4) 0.1339(4) 0.3126(2)
Nd1 Nd -0.12490(2) 0.164010(19) 0.210490(13)
H11 H 0.0213(15) 0.350(4) 0.116(2)
H12 H -0.070(2) 0.137(5) 0.374(3)
H13 H -0.202(3) 0.143(5) 0.379(2)
H14 H -0.109(3) 0.364(4) 0.101(2)
H15 H -0.169(4) -0.089(4) 0.267(2)
H16 H -0.060(2) -0.076(4) 0.223(3)
Sb1A Sb 0.03155(3) 0.12035(2) 0.572200(17)
Sb2A Sb 0.40354(2) 0.00391(2) 0.383830(16)
O13A O 0.3434(3) -0.2765(3) 0.07007(19)
O15A O 0.4422(3) -0.1468(3) -0.04213(17)
O16A O 0.1573(3) -0.1623(3) -0.08372(17)
O17A O 0.2666(3) -0.0314(3) -0.19331(17)
O12 O 0.2233(4) 0.3843(4) 0.1174(3)
H5 H 0.290(3) 0.346(4) 0.104(3)
H6 H 0.242(5) 0.430(4) 0.154(2)
loop_
_geom_bond_atom_site_label_1
_geom_bond_atom_site_label_2
_geom_bond_site_symmetry_1
_geom_bond_site_symmetry_2
Sb1 O8 1_555 1_555
Sb2 O1 1_555 1_555
O1 C1 1_555 1_555
O2 Nd1 1_555 1_555
O3 C1 1_555 1_555
O4 Nd1 1_555 1_555
O5 Sb2 1_555 1_555
O6 Nd1 1_555 1_555
O7 H1 1_555 1_555
H2 O7 1_555 1_555
O8 C3 1_555 1_555
O9 Sb1 1_555 1_555
O10 H3 1_555 1_555
H4 O10 1_555 1_555
O11 C4 1_555 1_555
O12 H5 1_555 1_555
H6 O12 1_555 1_555
O13 C5 1_555 1_555
O14 C5 1_555 1_555
O15 C6 1_555 1_555
O16 C7 1_555 1_555
O17 C8 1_555 1_555
O18 C8 1_555 1_555
O19 N1 1_555 1_555
O20 N1 1_555 1_555
O21 N1 1_555 1_555
C1 C2 1_555 1_555
C2 O5 1_555 1_555
H7 C2 1_555 1_555
C3 C2 1_555 1_555
H8 C3 1_555 1_555
C4 O9 1_555 1_555
C5 C6 1_555 1_555
C6 H9 1_555 1_555
C7 C6 1_555 1_555
H10 C7 1_555 1_555
C8 C7 1_555 1_555
Nd1 O3 1_555 1_555
H11 O4 1_555 1_555
H12 O6 1_555 1_555
H13 O6 1_555 1_555
H14 O4 1_555 1_555
H15 O2 1_555 1_555
H16 O2 1_555 1_555
Sb1A O13 1_555 1_555
Sb2A O16 1_555 1_555
O13A Sb1 1_555 1_555
O15A Sb1 1_555 1_555
O16A Sb2 1_555 1_555
O17A Sb2 1_555 1_555
O7 Nd1 1_555 1_555
O10 Nd1 1_555 1_555
O15 Sb1A 1_555 1_555
O17 Sb2A 1_555 1_555
O18 Nd1 1_555 1_555
O19 Nd1 1_555 1_555
O20 Nd1 1_555 1_555
C3 C4 1_555 1_555

#END
