
#######################################################################
#
#                 Cambridge Crystallographic Data Centre
#                                CCDC 
#
#######################################################################
#
# If this CIF has been generated from an entry in the Cambridge 
# Structural Database, then it will include bibliographic, chemical, 
# crystal, experimental, refinement or atomic coordinate data resulting 
# from the CCDC's data processing and validation procedures.
#
#######################################################################

data_RAYSUH
_symmetry_cell_setting           orthorhombic
_symmetry_space_group_name_H-M   'P 21 21 21'
_symmetry_Int_Tables_number      19
_space_group_name_Hall           'P 2ac 2ab'
loop_
_symmetry_equiv_pos_site_id
_symmetry_equiv_pos_as_xyz
1 x,y,z
2 1/2-x,-y,1/2+z
3 -x,1/2+y,1/2-z
4 1/2+x,1/2-y,-z
_cell_length_a                   10.317(8)
_cell_length_b                   11.345(9)
_cell_length_c                   16.941(13)
_cell_angle_alpha                90
_cell_angle_beta                 90
_cell_angle_gamma                90
_cell_volume                     1982.88
loop_
_atom_site_label
_atom_site_type_symbol
_atom_site_fract_x
_atom_site_fract_y
_atom_site_fract_z
Eu1 Eu 1.12358(2) 0.16328(2) 0.210659(12)
Sb1 Sb 0.97154(3) 0.12010(3) 0.573250(17)
Sb2 Sb 0.59803(3) 0.00363(3) 0.383810(17)
O1 O 0.7683(3) 0.0312(3) 0.30615(18)
O2 O 1.1326(4) -0.0490(3) 0.2287(2)
H1 H 1.148(5) -0.093(4) 0.268(2)
H2 H 1.066(4) -0.073(4) 0.205(3)
O3 O 0.9116(3) 0.1702(3) 0.27060(19)
O4 O 1.1234(4) 0.3589(3) 0.2893(2)
H3 H 1.191(3) 0.346(6) 0.316(3)
H4 H 1.141(5) 0.404(5) 0.252(3)
O5 O 0.6592(3) 0.1625(3) 0.41639(18)
O6 O 1.2336(4) 0.1202(4) 0.0876(2)
H5 H 1.302(4) 0.096(6) 0.065(4)
H6 H 1.174(5) 0.073(6) 0.075(5)
O7 O 0.9444(3) 0.1469(3) 0.45753(18)
O8 O 1.0547(4) 0.3299(3) 0.1316(2)
H7 H 0.982(2) 0.349(4) 0.113(3)
H8 H 1.111(3) 0.378(4) 0.116(3)
O9 O 0.8460(4) 0.2768(3) 0.5719(2)
O10 O 1.1410(4) 0.1253(4) 0.34914(19)
H9 H 1.208(3) 0.150(5) 0.372(3)
H10 H 1.075(3) 0.134(6) 0.378(3)
O11 O 0.7397(3) 0.3998(3) 0.4921(2)
O13 O 0.4867(3) 0.0622(3) 0.0425(2)
O14 O 0.5627(4) 0.2448(3) 0.0620(2)
O15 O 0.6988(3) -0.0414(3) 0.0943(2)
O16 O 0.7713(3) 0.0836(3) -0.05148(18)
O17 O 0.9930(3) -0.0047(3) -0.00028(19)
O18 O 0.9784(4) 0.0792(3) 0.1178(2)
O19 O 1.3543(4) 0.0996(4) 0.2474(3)
O20 O 1.3363(4) 0.2779(4) 0.2068(3)
O21 O 1.5245(5) 0.2150(6) 0.2474(3)
N1 N 1.4093(5) 0.1974(5) 0.2339(3)
C1 C 0.8191(5) 0.1341(4) 0.3122(2)
C2 C 0.7624(5) 0.2136(4) 0.3761(3)
H13 H 0.7308 0.2856 0.3506
C3 C 0.8733(4) 0.2484(4) 0.4334(2)
H14 H 0.9325 0.3016 0.4055
C4 C 0.8132(5) 0.3152(4) 0.5024(3)
C5 C 0.5777(5) 0.1388(4) 0.0626(3)
C6 C 0.7056(5) 0.0835(4) 0.0867(3)
H15 H 0.7315 0.1167 0.1378
C7 C 0.8093(5) 0.1165(4) 0.0251(3)
H16 H 0.8202 0.2023 0.0261
C8 C 0.9371(4) 0.0606(4) 0.0497(3)
Sb1A Sb 0.52846(3) -0.12010(3) 0.073250(17)
Sb2A Sb 0.90197(3) -0.00363(3) -0.116190(17)
O13A O 1.0133(3) -0.0622(3) 0.5425(2)
O15A O 0.8012(3) 0.0414(3) 0.5943(2)
O16A O 0.7287(3) -0.0836(3) 0.44852(18)
O17A O 0.5070(3) 0.0047(3) 0.49972(19)
O12 O 1.2237(5) -0.1165(4) 0.3802(3)
H11 H 1.205(6) -0.051(3) 0.399(4)
H12 H 1.301(3) -0.134(6) 0.390(5)
loop_
_geom_bond_atom_site_label_1
_geom_bond_atom_site_label_2
_geom_bond_site_symmetry_1
_geom_bond_site_symmetry_2
Eu1 O2 1_555 1_555
Sb1 O7 1_555 1_555
Sb2 O1 1_555 1_555
O1 C1 1_555 1_555
O2 H1 1_555 1_555
H2 O2 1_555 1_555
O3 Eu1 1_555 1_555
O4 Eu1 1_555 1_555
H3 O4 1_555 1_555
H4 O4 1_555 1_555
O5 Sb2 1_555 1_555
O6 Eu1 1_555 1_555
H5 O6 1_555 1_555
H6 O6 1_555 1_555
O7 C3 1_555 1_555
O8 Eu1 1_555 1_555
H7 O8 1_555 1_555
H8 O8 1_555 1_555
O9 Sb1 1_555 1_555
O10 Eu1 1_555 1_555
H9 O10 1_555 1_555
H10 O10 1_555 1_555
O11 C4 1_555 1_555
O12 H11 1_555 1_555
H12 O12 1_555 1_555
O13 C5 1_555 1_555
O14 C5 1_555 1_555
O15 C6 1_555 1_555
O16 C7 1_555 1_555
O17 C8 1_555 1_555
O18 Eu1 1_555 1_555
O19 Eu1 1_555 1_555
O20 Eu1 1_555 1_555
O21 N1 1_555 1_555
N1 O19 1_555 1_555
C1 O3 1_555 1_555
C2 O5 1_555 1_555
H13 C2 1_555 1_555
C3 C2 1_555 1_555
H14 C3 1_555 1_555
C4 O9 1_555 1_555
C5 C6 1_555 1_555
C6 H15 1_555 1_555
C7 C6 1_555 1_555
H16 C7 1_555 1_555
C8 O18 1_555 1_555
Sb1A O13 1_555 1_555
Sb2A O16 1_555 1_555
O13A Sb1 1_555 1_555
O15A Sb1 1_555 1_555
O16A Sb2 1_555 1_555
O17A Sb2 1_555 1_555
O15 Sb1A 1_555 1_555
O17 Sb2A 1_555 1_555
O20 N1 1_555 1_555
C1 C2 1_555 1_555
C3 C4 1_555 1_555
C7 C8 1_555 1_555

#END
