
#######################################################################
#
#                 Cambridge Crystallographic Data Centre
#                                CCDC 
#
#######################################################################
#
# If this CIF has been generated from an entry in the Cambridge 
# Structural Database, then it will include bibliographic, chemical, 
# crystal, experimental, refinement or atomic coordinate data resulting 
# from the CCDC's data processing and validation procedures.
#
#######################################################################

data_RAYSUH01
_symmetry_cell_setting           orthorhombic
_symmetry_space_group_name_H-M   'P 21 21 21'
_symmetry_Int_Tables_number      19
_space_group_name_Hall           'P 2ac 2ab'
loop_
_symmetry_equiv_pos_site_id
_symmetry_equiv_pos_as_xyz
1 x,y,z
2 1/2-x,-y,1/2+z
3 1/2+x,1/2-y,-z
4 -x,1/2+y,1/2-z
_cell_length_a                   10.2745(3)
_cell_length_b                   11.3155(4)
_cell_length_c                   16.9122(6)
_cell_angle_alpha                90
_cell_angle_beta                 90
_cell_angle_gamma                90
_cell_volume                     1966.23
loop_
_atom_site_label
_atom_site_type_symbol
_atom_site_fract_x
_atom_site_fract_y
_atom_site_fract_z
Eu1 Eu 0.62363(2) 0.33672(2) 0.710537(13)
Sb1 Sb 0.40201(3) 0.50377(3) 0.383731(18)
Sb2 Sb 0.02864(3) 0.62015(3) 0.573146(19)
O1 O 0.4784(4) 0.4209(4) 0.6179(2)
O2 O 0.4925(4) 0.5049(3) 0.4998(2)
O3 O 0.2710(4) 0.4168(3) 0.4483(2)
O4 O 0.1990(4) 0.5418(3) 0.5946(2)
O5 O -0.0134(4) 0.4377(4) 0.5422(2)
O6 O 0.0625(5) 0.2550(4) 0.5619(3)
O7 O 0.2403(4) 0.1006(3) 0.9916(2)
O8 O 0.3464(4) 0.2229(4) 1.0715(2)
O9 O 0.4448(4) 0.3523(3) 0.9578(2)
O10 O 0.4118(4) 0.3300(4) 0.7707(2)
O11 O 0.2682(4) 0.4684(3) 0.8061(2)
O12 O 0.1591(4) 0.3372(3) 0.9162(2)
O13 O 0.8362(5) 0.2219(4) 0.7062(4)
O14 O 0.8535(5) 0.3999(5) 0.7474(3)
O15 O 1.0251(6) 0.2854(7) 0.7473(4)
O16 O 0.7340(4) 0.3817(4) 0.5873(2)
O17 O 0.5545(4) 0.1709(4) 0.6309(2)
O18 O 0.6317(5) 0.5489(3) 0.7286(2)
O19 O 0.6408(5) 0.3741(4) 0.8496(2)
O20 O 0.6223(4) 0.1405(3) 0.7890(2)
N1 N 0.9092(5) 0.3022(6) 0.7337(3)
C1 C 0.4367(5) 0.4392(4) 0.5499(3)
C2 C 0.3091(5) 0.3833(4) 0.5252(3)
H1 H 0.3199 0.2973 0.5261
C3 C 0.2075(5) 0.4168(4) 0.5870(3)
H2 H 0.2335 0.3834 0.6380
C4 C 0.0778(5) 0.3624(5) 0.5626(3)
C5 C 0.3132(5) 0.1848(4) 1.0024(3)
C6 C 0.3742(5) 0.2516(4) 0.9332(3)
H3 H 0.4339 0.1981 0.9056
C7 C 0.2633(5) 0.2856(4) 0.8759(3)
H4 H 0.2319 0.2132 0.8505
C8 C 0.3199(5) 0.3657(4) 0.8120(3)
Sb1A Sb 0.09799(3) 0.49623(3) 0.883731(18)
Sb2A Sb 0.47136(3) 0.37985(3) 1.073146(19)
O8A O 0.1536(4) 0.7771(4) 0.5715(2)
O9A O 0.0552(4) 0.6477(3) 0.4578(2)
O11A O 0.2318(4) 0.5316(3) 0.3061(2)
O12A O 0.3409(4) 0.6628(3) 0.4162(2)
O21 O 0.2774(6) 0.1170(4) 0.6189(3)
loop_
_geom_bond_atom_site_label_1
_geom_bond_atom_site_label_2
_geom_bond_site_symmetry_1
_geom_bond_site_symmetry_2
Eu1 O1 1_555 1_555
Sb1 O2 1_555 1_555
Sb2 O4 1_555 1_555
O1 C1 1_555 1_555
O2 C1 1_555 1_555
O3 Sb1 1_555 1_555
O4 C3 1_555 1_555
O5 Sb2 1_555 1_555
O6 C4 1_555 1_555
O7 C5 1_555 1_555
O8 C5 1_555 1_555
O9 C6 1_555 1_555
O10 Eu1 1_555 1_555
O11 C8 1_555 1_555
O12 C7 1_555 1_555
O13 Eu1 1_555 1_555
O14 Eu1 1_555 1_555
O15 N1 1_555 1_555
O16 Eu1 1_555 1_555
O17 Eu1 1_555 1_555
O18 Eu1 1_555 1_555
O19 Eu1 1_555 1_555
O20 Eu1 1_555 1_555
N1 O13 1_555 1_555
C1 C2 1_555 1_555
C2 O3 1_555 1_555
H1 C2 1_555 1_555
C3 C2 1_555 1_555
H2 C3 1_555 1_555
C4 O5 1_555 1_555
C5 C6 1_555 1_555
C6 H3 1_555 1_555
C7 C6 1_555 1_555
H4 C7 1_555 1_555
C8 O10 1_555 1_555
Sb1A O11 1_555 1_555
Sb2A O8 1_555 1_555
O8A Sb2 1_555 1_555
O9A Sb2 1_555 1_555
O11A Sb1 1_555 1_555
O12A Sb1 1_555 1_555
O9 Sb2A 1_555 1_555
O12 Sb1A 1_555 1_555
O14 N1 1_555 1_555
C3 C4 1_555 1_555
C7 C8 1_555 1_555

#END
