
#######################################################################
#
#                 Cambridge Crystallographic Data Centre
#                                CCDC 
#
#######################################################################
#
# If this CIF has been generated from an entry in the Cambridge 
# Structural Database, then it will include bibliographic, chemical, 
# crystal, experimental, refinement or atomic coordinate data resulting 
# from the CCDC's data processing and validation procedures.
#
#######################################################################

data_RAYSAN01
_symmetry_cell_setting           orthorhombic
_symmetry_space_group_name_H-M   'P 21 21 21'
_symmetry_Int_Tables_number      19
_space_group_name_Hall           'P 2ac 2ab'
loop_
_symmetry_equiv_pos_site_id
_symmetry_equiv_pos_as_xyz
1 x,y,z
2 1/2-x,-y,1/2+z
3 1/2+x,1/2-y,-z
4 -x,1/2+y,1/2-z
_cell_length_a                   10.3057(3)
_cell_length_b                   11.3715(4)
_cell_length_c                   17.1293(6)
_cell_angle_alpha                90
_cell_angle_beta                 90
_cell_angle_gamma                90
_cell_volume                     2007.4
loop_
_atom_site_label
_atom_site_type_symbol
_atom_site_fract_x
_atom_site_fract_y
_atom_site_fract_z
Ce1 Ce 0.625727(17) 0.335176(16) 0.710298(10)
Sb1 Sb 0.40457(2) 0.504251(19) 0.383734(12)
Sb2 Sb 0.03386(2) 0.62056(2) 0.571363(13)
O1 O 0.4820(3) 0.4247(3) 0.61514(16)
O2 O 0.4960(2) 0.5059(2) 0.49808(15)
O3 O 0.2747(2) 0.4172(2) 0.44789(13)
O4 O 0.2038(2) 0.5425(2) 0.59264(15)
O5 O -0.0075(2) 0.4391(2) 0.54064(16)
O6 O 0.0665(3) 0.2579(2) 0.56094(19)
O7 O 0.2369(3) 0.1017(2) 0.99026(15)
O8 O 0.3414(3) 0.2235(2) 1.06916(15)
O9 O 0.4407(2) 0.3527(2) 0.95724(13)
O10 O 0.4068(3) 0.3306(3) 0.77095(14)
O11 O 0.2650(3) 0.4682(2) 0.80747(14)
O12 O 0.1563(2) 0.3380(2) 0.91602(13)
O13 O 0.8439(3) 0.2193(3) 0.7062(3)
O14 O 0.8606(3) 0.3955(4) 0.7491(3)
O15 O 1.0319(4) 0.2828(5) 0.7468(3)
O16 O 0.7414(3) 0.3827(3) 0.58576(16)
O17 O 0.5525(3) 0.1644(3) 0.62861(16)
O18 O 0.6373(3) 0.5531(2) 0.73051(17)
O19 O 0.6385(3) 0.3735(3) 0.85188(14)
O20 O 0.6240(3) 0.1360(2) 0.78883(15)
N1 N 0.9166(3) 0.2985(4) 0.7341(2)
C1 C 0.4404(3) 0.4419(3) 0.5480(2)
C2 C 0.3133(3) 0.3843(3) 0.52406(19)
H1 H 0.3248 0.2988 0.5253
C3 C 0.2113(3) 0.4181(3) 0.5849(2)
H2 H 0.2371 0.3848 0.6353
C4 C 0.0822(3) 0.3639(3) 0.5610(2)
C5 C 0.3098(3) 0.1860(3) 1.0010(2)
C6 C 0.3706(3) 0.2531(3) 0.93244(19)
H3 H 0.4305 0.2001 0.9052
C7 C 0.2599(3) 0.2862(3) 0.87564(19)
H4 H 0.2285 0.2141 0.8505
C8 C 0.3159(3) 0.3664(3) 0.81300(19)
Sb1A Sb 0.09543(2) 0.495749(19) 0.883734(12)
Sb2A Sb 0.46614(2) 0.37944(2) 1.071363(13)
O8A O 0.1586(3) 0.7765(2) 0.56916(15)
O9A O 0.0593(2) 0.6473(2) 0.45724(13)
O11A O 0.2350(3) 0.5318(2) 0.30747(14)
O12A O 0.3437(2) 0.6620(2) 0.41602(13)
O21 O 0.2756(4) 0.1155(3) 0.6169(2)
loop_
_geom_bond_atom_site_label_1
_geom_bond_atom_site_label_2
_geom_bond_site_symmetry_1
_geom_bond_site_symmetry_2
Ce1 O1 1_555 1_555
Sb1 O2 1_555 1_555
Sb2 O4 1_555 1_555
O1 C1 1_555 1_555
O2 C1 1_555 1_555
O3 Sb1 1_555 1_555
O4 C3 1_555 1_555
O5 Sb2 1_555 1_555
O6 C4 1_555 1_555
O7 C5 1_555 1_555
O8 C5 1_555 1_555
O9 C6 1_555 1_555
O10 Ce1 1_555 1_555
O11 C8 1_555 1_555
O12 C7 1_555 1_555
O13 Ce1 1_555 1_555
O14 Ce1 1_555 1_555
O15 N1 1_555 1_555
O16 Ce1 1_555 1_555
O17 Ce1 1_555 1_555
O18 Ce1 1_555 1_555
O19 Ce1 1_555 1_555
O20 Ce1 1_555 1_555
N1 O13 1_555 1_555
C1 C2 1_555 1_555
C2 O3 1_555 1_555
H1 C2 1_555 1_555
C3 C2 1_555 1_555
H2 C3 1_555 1_555
C4 O5 1_555 1_555
C5 C6 1_555 1_555
C6 H3 1_555 1_555
C7 C6 1_555 1_555
H4 C7 1_555 1_555
C8 O10 1_555 1_555
Sb1A O11 1_555 1_555
Sb2A O8 1_555 1_555
O8A Sb2 1_555 1_555
O9A Sb2 1_555 1_555
O11A Sb1 1_555 1_555
O12A Sb1 1_555 1_555
O9 Sb2A 1_555 1_555
O12 Sb1A 1_555 1_555
O14 N1 1_555 1_555
C3 C4 1_555 1_555
C7 C8 1_555 1_555

#END
