
#######################################################################
#
#                 Cambridge Crystallographic Data Centre
#                                CCDC 
#
#######################################################################
#
# If this CIF has been generated from an entry in the Cambridge 
# Structural Database, then it will include bibliographic, chemical, 
# crystal, experimental, refinement or atomic coordinate data resulting 
# from the CCDC's data processing and validation procedures.
#
#######################################################################

data_RAYTAN
_symmetry_cell_setting           tetragonal
_symmetry_space_group_name_H-M   'P 4'
_symmetry_Int_Tables_number      75
_space_group_name_Hall           'P 4'
loop_
_symmetry_equiv_pos_site_id
_symmetry_equiv_pos_as_xyz
1 x,y,z
2 -y,x,z
3 -x,-y,z
4 y,-x,z
_cell_length_a                   11.152(2)
_cell_length_b                   11.152(2)
_cell_length_c                   5.586(2)
_cell_angle_alpha                90
_cell_angle_beta                 90
_cell_angle_gamma                90
_cell_volume                     694.715
loop_
_atom_site_label
_atom_site_type_symbol
_atom_site_fract_x
_atom_site_fract_y
_atom_site_fract_z
Cu1 Cu 0.5000 0.5000 -0.00100(14)
Cl1 Cl 0.5000 0.5000 -0.4659(5)
N1 N 0.3172(3) 0.4998(3) 0.0205(9)
C1 C 0.0684(4) 0.5016(5) 0.0503(11)
C2 C 0.2511(4) 0.4328(5) -0.1325(10)
H1 H 0.2902 0.3845 -0.2489
C3 C 0.2596(4) 0.5665(5) 0.1812(10)
H2 H 0.3060 0.6145 0.2867
C4 C 0.1287(5) 0.4340(6) -0.1212(12)
H3 H 0.0838 0.3878 -0.2326
C5 C 0.1365(5) 0.5700(6) 0.2036(9)
O1 O 0.1645(5) 0.6917(5) 0.5470(11)
H4 H 0.1304 0.7388 0.6426
O2 O -0.0182(5) 0.6801(6) 0.3931(12)
C6 C 0.0884(5) 0.6549(6) 0.3908(14)
Cu1_2 Cu -0.5000 0.5000 -0.00100(14)
Cu1_3 Cu 0.5000 -0.5000 -0.00100(14)
N1B N -0.3172(3) 0.5002(3) 0.0205(9)
N1A N 0.5002(3) 0.3172(3) 0.0205(9)
N1C N 0.4998(3) -0.3172(3) 0.0205(9)
N1B_2 N 0.6828(3) 0.5002(3) 0.0205(9)
N1C_2 N 0.4998(3) 0.6828(3) 0.0205(9)
C1B C -0.0684(4) 0.4984(5) 0.0503(11)
C1A C 0.4984(5) 0.0684(4) 0.0503(11)
C1C C 0.5016(5) -0.0684(4) 0.0503(11)
C2B C -0.2511(4) 0.5672(5) -0.1325(10)
C2A C 0.5672(5) 0.2511(4) -0.1325(10)
C2C C 0.4328(5) -0.2511(4) -0.1325(10)
H1B H -0.2902 0.6155 -0.2489
H1A H 0.6155 0.2902 -0.2489
H1C H 0.3845 -0.2902 -0.2489
C3B C -0.2596(4) 0.4335(5) 0.1812(10)
C3A C 0.4335(5) 0.2596(4) 0.1812(10)
C3C C 0.5665(5) -0.2596(4) 0.1812(10)
H2B H -0.3060 0.3855 0.2867
H2A H 0.3855 0.3060 0.2867
H2C H 0.6145 -0.3060 0.2867
C4B C -0.1287(5) 0.5660(6) -0.1212(12)
C4A C 0.5660(6) 0.1287(5) -0.1212(12)
C4C C 0.4340(6) -0.1287(5) -0.1212(12)
H3B H -0.0838 0.6122 -0.2326
H3A H 0.6122 0.0838 -0.2326
H3C H 0.3878 -0.0838 -0.2326
C5B C -0.1365(5) 0.4300(6) 0.2036(9)
C5A C 0.4300(6) 0.1365(5) 0.2036(9)
C5C C 0.5700(6) -0.1365(5) 0.2036(9)
O1B O -0.1645(5) 0.3083(5) 0.5470(11)
O1A O 0.3083(5) 0.1645(5) 0.5470(11)
O1C O 0.6917(5) -0.1645(5) 0.5470(11)
H4B H -0.1304 0.2612 0.6426
H4A H 0.2612 0.1304 0.6426
H4C H 0.7388 -0.1304 0.6426
O2B O 0.0182(5) 0.3199(6) 0.3931(12)
O2A O 0.3199(6) -0.0182(5) 0.3931(12)
O2C O 0.6801(6) 0.0182(5) 0.3931(12)
C6B C -0.0884(5) 0.3451(6) 0.3908(14)
C6A C 0.3451(6) 0.0884(5) 0.3908(14)
C6C C 0.6549(6) -0.0884(5) 0.3908(14)
O3 O 0.0906(10) 0.8445(10) 0.895(2)
Cl2 Cl 0.0000 1.0000 1.373(10)
loop_
_geom_bond_atom_site_label_1
_geom_bond_atom_site_label_2
_geom_bond_site_symmetry_1
_geom_bond_site_symmetry_2
Cu1 Cl1 1_555 1_555
N1 Cu1 1_555 1_555
C1 C4 1_555 1_555
C2 N1 1_555 1_555
H1 C2 1_555 1_555
C3 N1 1_555 1_555
H2 C3 1_555 1_555
C4 C2 1_555 1_555
H3 C4 1_555 1_555
C5 C1 1_555 1_555
O1 H4 1_555 1_555
O2 C6 1_555 1_555
C6 C5 1_555 1_555
Cu1_2 N1B 1_555 1_555
Cu1_3 N1C 1_555 1_555
N1B C2B 1_555 1_555
N1A Cu1 1_555 1_555
N1C C2C 1_555 1_555
N1B_2 Cu1 1_555 1_555
N1C_2 Cu1 1_555 1_555
C1B C1 1_555 1_555
C1A C1C 1_555 1_555
C1C C4C 1_555 1_555
C2B H1B 1_555 1_555
C2A N1A 1_555 1_555
C2C H1C 1_555 1_555
H1A C2A 1_555 1_555
C3B N1B 1_555 1_555
C3A N1A 1_555 1_555
C3C N1C 1_555 1_555
H2B C3B 1_555 1_555
H2A C3A 1_555 1_555
H2C C3C 1_555 1_555
C4B C1B 1_555 1_555
C4A C1A 1_555 1_555
C4C C2C 1_555 1_555
H3B C4B 1_555 1_555
H3A C4A 1_555 1_555
H3C C4C 1_555 1_555
C5B C1B 1_555 1_555
C5A C1A 1_555 1_555
C5C C1C 1_555 1_555
O1B H4B 1_555 1_555
O1A H4A 1_555 1_555
O1C H4C 1_555 1_555
O2B C6B 1_555 1_555
O2A C6A 1_555 1_555
O2C C6C 1_555 1_555
C6B C5B 1_555 1_555
C6A C5A 1_555 1_555
C6C C5C 1_555 1_555
C3 C5 1_555 1_555
O1 C6 1_555 1_555
C2B C4B 1_555 1_555
C2A C4A 1_555 1_555
C3B C5B 1_555 1_555
C3A C5A 1_555 1_555
C3C C5C 1_555 1_555
O1B C6B 1_555 1_555
O1A C6A 1_555 1_555
O1C C6C 1_555 1_555

#END
