
#######################################################################
#
#                 Cambridge Crystallographic Data Centre
#                                CCDC 
#
#######################################################################
#
# If this CIF has been generated from an entry in the Cambridge 
# Structural Database, then it will include bibliographic, chemical, 
# crystal, experimental, refinement or atomic coordinate data resulting 
# from the CCDC's data processing and validation procedures.
#
#######################################################################

data_RAYTAO01
_symmetry_cell_setting           orthorhombic
_symmetry_space_group_name_H-M   'P 21 21 21'
_symmetry_Int_Tables_number      19
_space_group_name_Hall           'P 2ac 2ab'
loop_
_symmetry_equiv_pos_site_id
_symmetry_equiv_pos_as_xyz
1 x,y,z
2 1/2-x,-y,1/2+z
3 1/2+x,1/2-y,-z
4 -x,1/2+y,1/2-z
_cell_length_a                   10.2594(4)
_cell_length_b                   11.2855(4)
_cell_length_c                   16.7969(7)
_cell_angle_alpha                90
_cell_angle_beta                 90
_cell_angle_gamma                90
_cell_volume                     1944.79
loop_
_atom_site_label
_atom_site_type_symbol
_atom_site_fract_x
_atom_site_fract_y
_atom_site_fract_z
Dy1 Dy 0.622439(17) 0.337423(17) 0.710534(11)
Sb1 Sb 0.40056(3) 0.50367(3) 0.383484(16)
Sb2 Sb 0.02588(3) 0.61987(3) 0.574031(17)
O1 O 0.4771(3) 0.4187(3) 0.6188(2)
O2 O 0.4914(3) 0.5038(3) 0.50053(19)
O3 O 0.2690(3) 0.4163(3) 0.44828(18)
O4 O 0.1963(3) 0.5410(3) 0.5952(2)
O5 O -0.0161(3) 0.4370(3) 0.5428(2)
O6 O 0.0595(4) 0.2539(3) 0.5622(2)
O7 O 0.2415(3) 0.1002(3) 0.9926(2)
O8 O 0.3480(3) 0.2225(3) 1.0727(2)
O9 O 0.4472(3) 0.3521(3) 0.95778(18)
O10 O 0.4141(3) 0.3297(3) 0.77026(19)
O11 O 0.2705(3) 0.4677(3) 0.80533(19)
O12 O 0.1608(3) 0.3370(3) 0.91659(18)
O13 O 0.8317(4) 0.2234(4) 0.7068(3)
O14 O 0.8503(4) 0.4012(4) 0.7456(3)
O15 O 1.0205(4) 0.2859(6) 0.7474(3)
O16 O 0.7309(3) 0.3811(3) 0.5882(2)
O17 O 0.5552(3) 0.1735(3) 0.6321(2)
O18 O 0.6295(4) 0.5458(3) 0.7268(2)
O19 O 0.6418(3) 0.3739(3) 0.84815(19)
O20 O 0.6210(3) 0.1419(3) 0.7892(2)
N1 N 0.9061(4) 0.3036(5) 0.7333(3)
C1 C 0.4343(4) 0.4380(4) 0.5509(3)
C2 C 0.3066(4) 0.3829(4) 0.5258(2)
H1 H 0.3168 0.2966 0.5268
C3 C 0.2056(4) 0.4168(4) 0.5876(3)
H2 H 0.2314 0.3833 0.6390
C4 C 0.0747(4) 0.3621(4) 0.5626(3)
C5 C 0.3153(4) 0.1844(4) 1.0035(3)
C6 C 0.3755(4) 0.2510(4) 0.9338(2)
H3 H 0.4350 0.1970 0.9060
C7 C 0.2656(4) 0.2857(4) 0.8756(3)
H4 H 0.2341 0.2132 0.8499
C8 C 0.3227(4) 0.3653(4) 0.8117(3)
Sb1A Sb 0.09944(3) 0.49633(3) 0.883484(16)
Sb2A Sb 0.47412(3) 0.38013(3) 1.074031(17)
O8A O 0.1520(3) 0.7775(3) 0.5727(2)
O9A O 0.0528(3) 0.6479(3) 0.45778(18)
O11A O 0.2295(3) 0.5323(3) 0.30533(19)
O12A O 0.3392(3) 0.6630(3) 0.41659(18)
O21 O 0.2773(4) 0.1173(4) 0.6197(3)
loop_
_geom_bond_atom_site_label_1
_geom_bond_atom_site_label_2
_geom_bond_site_symmetry_1
_geom_bond_site_symmetry_2
Dy1 O1 1_555 1_555
Sb1 O2 1_555 1_555
Sb2 O4 1_555 1_555
O1 C1 1_555 1_555
O2 C1 1_555 1_555
O3 Sb1 1_555 1_555
O4 C3 1_555 1_555
O5 Sb2 1_555 1_555
O6 C4 1_555 1_555
O7 C5 1_555 1_555
O8 C5 1_555 1_555
O9 C6 1_555 1_555
O10 Dy1 1_555 1_555
O11 C8 1_555 1_555
O12 C7 1_555 1_555
O13 Dy1 1_555 1_555
O14 Dy1 1_555 1_555
O15 N1 1_555 1_555
O16 Dy1 1_555 1_555
O17 Dy1 1_555 1_555
O18 Dy1 1_555 1_555
O19 Dy1 1_555 1_555
O20 Dy1 1_555 1_555
N1 O13 1_555 1_555
C1 C2 1_555 1_555
C2 O3 1_555 1_555
H1 C2 1_555 1_555
C3 C2 1_555 1_555
H2 C3 1_555 1_555
C4 O5 1_555 1_555
C5 C6 1_555 1_555
C6 H3 1_555 1_555
C7 C6 1_555 1_555
H4 C7 1_555 1_555
C8 O10 1_555 1_555
Sb1A O11 1_555 1_555
Sb2A O8 1_555 1_555
O8A Sb2 1_555 1_555
O9A Sb2 1_555 1_555
O11A Sb1 1_555 1_555
O12A Sb1 1_555 1_555
O9 Sb2A 1_555 1_555
O12 Sb1A 1_555 1_555
O14 N1 1_555 1_555
C3 C4 1_555 1_555
C7 C8 1_555 1_555

#END
