
#######################################################################
#
#                 Cambridge Crystallographic Data Centre
#                                CCDC 
#
#######################################################################
#
# If this CIF has been generated from an entry in the Cambridge 
# Structural Database, then it will include bibliographic, chemical, 
# crystal, experimental, refinement or atomic coordinate data resulting 
# from the CCDC's data processing and validation procedures.
#
#######################################################################

data_RAZBUR
_symmetry_cell_setting           monoclinic
_symmetry_space_group_name_H-M   'P 21/c'
_symmetry_Int_Tables_number      14
_space_group_name_Hall           '-P 2ybc'
loop_
_symmetry_equiv_pos_site_id
_symmetry_equiv_pos_as_xyz
1 x,y,z
2 -x,1/2+y,1/2-z
3 -x,-y,-z
4 x,1/2-y,1/2+z
_cell_length_a                   13.6447(17)
_cell_length_b                   7.2706(9)
_cell_length_c                   15.5079(14)
_cell_angle_alpha                90
_cell_angle_beta                 122.524(7)
_cell_angle_gamma                90
_cell_volume                     1297.18
loop_
_atom_site_label
_atom_site_type_symbol
_atom_site_fract_x
_atom_site_fract_y
_atom_site_fract_z
Cu1 Cu 0.50528(5) 0.90294(9) 0.41201(5)
Cu2 Cu 1.25781(6) 0.55881(10) 0.90930(5)
O1 O 1.0915(4) 0.5388(8) 0.8319(3)
O2 O 1.0818(4) 0.3150(7) 0.9243(4)
O3 O 0.6053(5) 0.4978(6) 0.4799(3)
O4 O 0.6421(3) 0.7872(5) 0.5307(3)
O5 O 0.5871(4) 0.5588(6) 0.8421(3)
O6 O 0.7397(4) 0.3977(6) 0.9633(3)
O7 O 0.5829(3) 1.1410(5) 0.5258(3)
H1 H 0.5686 1.2620 0.4933
N1 N 0.2536(4) 0.9602(7) 0.2795(4)
N2 N 0.3551(4) 0.9606(7) 0.2806(4)
N3 N 0.2119(5) 0.9786(7) 0.1249(4)
N4 N 0.1405(5) 0.9688(9) 0.0157(4)
H2 H 0.1256 1.0880 -0.0025
H3 H 0.1932 0.9198 0.0043
C1 C 0.3271(5) 0.9755(9) 0.1863(4)
H4 H 0.3793 0.9827 0.1653
C2 C 0.1684(5) 0.9710(9) 0.1852(5)
H5 H 0.0899 0.9733 0.1624
C3 C 0.9096(5) 0.4763(8) 0.8075(4)
C4 C 0.8432(5) 0.5297(8) 0.7063(4)
H6 H 0.8780 0.5464 0.6693
C5 C 0.7267(5) 0.5581(7) 0.6605(4)
C6 C 0.6736(5) 0.5440(8) 0.7157(4)
H7 H 0.5949 0.5702 0.6848
C7 C 0.7391(5) 0.4908(8) 0.8168(4)
C8 C 0.8571(5) 0.4537(8) 0.8639(4)
H8 H 0.9006 0.4146 0.9316
C9 C 1.0378(5) 0.4347(9) 0.8599(5)
C10 C 0.6523(5) 0.6146(8) 0.5476(4)
C11 C 0.6846(5) 0.4814(8) 0.8798(4)
Cu1C Cu 0.50528(5) 0.59706(9) 0.91201(5)
Cu1B Cu 0.49472(5) 1.09706(9) 0.58799(5)
Cu2A Cu 0.74219(6) 1.05881(10) 0.59070(5)
Cu2B Cu 0.74219(6) 0.44119(10) 1.09070(5)
Cu2C Cu 0.25781(6) 0.94119(10) 0.40930(5)
O4A O 1.3579(3) 0.2872(5) 0.9693(3)
O5C O 0.5871(4) 0.9412(6) 0.3421(3)
O6B O 1.2603(4) 0.6023(6) 1.0367(3)
O7B O 0.4171(3) 0.8590(5) 0.4742(3)
O7A O 1.4171(3) 0.6410(5) 0.9742(3)
H1B H 0.4314 0.7380 0.5067
H1A H 1.4314 0.7620 1.0067
N1C N 1.2536(4) 0.5398(7) 0.7795(4)
loop_
_geom_bond_atom_site_label_1
_geom_bond_atom_site_label_2
_geom_bond_site_symmetry_1
_geom_bond_site_symmetry_2
Cu1 O4 1_555 1_555
Cu2 O1 1_555 1_555
O1 C9 1_555 1_555
O2 C9 1_555 1_555
O3 C10 1_555 1_555
O4 C10 1_555 1_555
O5 C11 1_555 1_555
O6 C11 1_555 1_555
O7 Cu1 1_555 1_555
H1 O7 1_555 1_555
N1 N2 1_555 1_555
N2 Cu1 1_555 1_555
N3 N4 1_555 1_555
N4 H2 1_555 1_555
H3 N4 1_555 1_555
C1 N2 1_555 1_555
H4 C1 1_555 1_555
C2 N1 1_555 1_555
H5 C2 1_555 1_555
C3 C4 1_555 1_555
C4 H6 1_555 1_555
C5 C4 1_555 1_555
C6 C5 1_555 1_555
H7 C6 1_555 1_555
C7 C6 1_555 1_555
C8 C3 1_555 1_555
H8 C8 1_555 1_555
C9 C3 1_555 1_555
C10 C5 1_555 1_555
C11 C7 1_555 1_555
Cu1C O5 1_555 1_555
Cu1B O7 1_555 1_555
Cu2A O4 1_555 1_555
Cu2B O6 1_555 1_555
Cu2C N1 1_555 1_555
O4A Cu2 1_555 1_555
O5C Cu1 1_555 1_555
O6B Cu2 1_555 1_555
O7B Cu1 1_555 1_555
O7A Cu2 1_555 1_555
H1B O7B 1_555 1_555
H1A O7A 1_555 1_555
N1C Cu2 1_555 1_555
O7 Cu2A 1_555 1_555
N3 C1 1_555 1_555
N3 C2 1_555 1_555
C7 C8 1_555 1_555
Cu1B O7B 1_555 1_555
Cu2C O7B 1_555 1_555

#END
