
#######################################################################
#
#                 Cambridge Crystallographic Data Centre
#                                CCDC 
#
#######################################################################
#
# If this CIF has been generated from an entry in the Cambridge 
# Structural Database, then it will include bibliographic, chemical, 
# crystal, experimental, refinement or atomic coordinate data resulting 
# from the CCDC's data processing and validation procedures.
#
#######################################################################

data_RAZGUW
_symmetry_cell_setting           triclinic
_symmetry_space_group_name_H-M   'P -1'
_symmetry_Int_Tables_number      2
_space_group_name_Hall           '-P 1'
loop_
_symmetry_equiv_pos_site_id
_symmetry_equiv_pos_as_xyz
1 x,y,z
2 -x,-y,-z
_cell_length_a                   7.40800(10)
_cell_length_b                   9.8794(2)
_cell_length_c                   10.00800(10)
_cell_angle_alpha                116.9850(10)
_cell_angle_beta                 100.2600(10)
_cell_angle_gamma                103.2750(10)
_cell_volume                     600.67
loop_
_atom_site_label
_atom_site_type_symbol
_atom_site_fract_x
_atom_site_fract_y
_atom_site_fract_z
Cu1 Cu -0.25283(5) 0.51825(4) 1.11465(3)
N1 N -0.1003(3) 0.6582(2) 1.3458(2)
N2 N -0.3729(3) 0.3716(2) 1.1859(2)
C1 C 0.0399(4) 0.8041(3) 1.4178(3)
C2 C 0.1194(4) 0.9012(3) 1.5801(3)
C3 C 0.0520(5) 0.8455(3) 1.6722(3)
C4 C -0.0876(4) 0.6918(3) 1.5981(3)
C5 C -0.1619(4) 0.6009(3) 1.4356(3)
C6 C -0.3135(4) 0.4361(3) 1.3442(3)
C7 C -0.3876(4) 0.3519(3) 1.4122(3)
C8 C -0.5276(4) 0.1968(3) 1.3150(3)
C9 C -0.5897(4) 0.1320(3) 1.1544(3)
C10 C -0.5102(4) 0.2223(3) 1.0935(3)
N3 N -0.4190(3) 0.2762(2) 0.7829(2)
O1 O -0.5062(4) 0.2342(3) 0.6478(2)
O2 O -0.3161(3) 0.2093(2) 0.8181(2)
O3 O -0.4439(3) 0.3968(2) 0.89709(19)
N4 N 0.0719(3) 0.3109(2) 1.0239(2)
O4 O 0.0658(3) 0.4431(2) 1.1185(2)
O5 O 0.1437(3) 0.29883(19) 0.91199(19)
O6 O 0.0155(3) 0.1892(2) 1.0309(2)
H1 H 0.224(4) 1.007(3) 1.628(3)
H2 H 0.073(4) 0.834(3) 1.358(3)
H3 H -0.551(4) 0.182(3) 0.989(3)
H4 H -0.571(4) 0.142(3) 1.354(3)
H5 H -0.688(5) 0.032(4) 1.086(3)
H6 H -0.341(4) 0.400(3) 1.519(3)
H7 H -0.125(4) 0.655(3) 1.656(3)
H8 H 0.096(4) 0.902(3) 1.770(3)
Cu1A Cu -0.74717(5) 0.48175(4) 0.88535(3)
Cu1A_2 Cu 0.25283(5) 0.48175(4) 0.88535(3)
O3A O -0.5561(3) 0.6032(2) 1.10291(19)
O5A O -0.1437(3) 0.70117(19) 1.08801(19)
loop_
_geom_bond_atom_site_label_1
_geom_bond_atom_site_label_2
_geom_bond_site_symmetry_1
_geom_bond_site_symmetry_2
Cu1 N1 1_555 1_555
N1 C1 1_555 1_555
N2 Cu1 1_555 1_555
C1 C2 1_555 1_555
C2 C3 1_555 1_555
C3 C4 1_555 1_555
C4 C5 1_555 1_555
C5 N1 1_555 1_555
C6 N2 1_555 1_555
C7 C6 1_555 1_555
C8 C7 1_555 1_555
C9 C8 1_555 1_555
C10 N2 1_555 1_555
N3 O1 1_555 1_555
O2 N3 1_555 1_555
O3 Cu1 1_555 1_555
N4 O4 1_555 1_555
O4 Cu1 1_555 1_555
O5 N4 1_555 1_555
O6 N4 1_555 1_555
H1 C2 1_555 1_555
H2 C1 1_555 1_555
H3 C10 1_555 1_555
H4 C8 1_555 1_555
H5 C9 1_555 1_555
H6 C7 1_555 1_555
H7 C4 1_555 1_555
H8 C3 1_555 1_555
Cu1A O3 1_555 1_555
Cu1A_2 O5 1_555 1_555
O3A Cu1 1_555 1_555
O5A Cu1 1_555 1_555
C5 C6 1_555 1_555
C9 C10 1_555 1_555
N3 O3 1_555 1_555
Cu1A O3A 1_555 1_555

#END
