
#######################################################################
#
#                 Cambridge Crystallographic Data Centre
#                                CCDC 
#
#######################################################################
#
# If this CIF has been generated from an entry in the Cambridge 
# Structural Database, then it will include bibliographic, chemical, 
# crystal, experimental, refinement or atomic coordinate data resulting 
# from the CCDC's data processing and validation procedures.
#
#######################################################################

data_RAZGEF
_symmetry_cell_setting           triclinic
_symmetry_space_group_name_H-M   'P -1'
_symmetry_Int_Tables_number      2
_space_group_name_Hall           '-P 1'
loop_
_symmetry_equiv_pos_site_id
_symmetry_equiv_pos_as_xyz
1 x,y,z
2 -x,-y,-z
_cell_length_a                   8.4673(14)
_cell_length_b                   11.4460(16)
_cell_length_c                   11.920(2)
_cell_angle_alpha                77.663(15)
_cell_angle_beta                 80.088(15)
_cell_angle_gamma                71.529(12)
_cell_volume                     1063.61
loop_
_atom_site_label
_atom_site_type_symbol
_atom_site_fract_x
_atom_site_fract_y
_atom_site_fract_z
Ni1 Ni 0.0000 1.0000 1.0000
O1 O 0.00397(18) 1.18755(12) 0.97049(12)
O2 O 0.14647(18) 1.26232(12) 0.80981(12)
C1 C 0.0648(2) 1.26980(16) 0.90829(16)
C2 C 0.0329(2) 1.38851(16) 0.95657(15)
C3 C 0.1337(2) 1.46786(17) 0.91536(16)
H1 H 0.2235 1.4468 0.8590
C4 C -0.1006(2) 1.42189(17) 1.04195(16)
H2 H -0.1681 1.3696 1.0706
N1 N -0.26188(19) 1.07373(14) 1.00692(14)
N2 N -0.3462(2) 1.10023(15) 0.91396(14)
H3 H -0.2999 1.0839 0.8468
C5 C -0.3790(3) 1.1139(2) 1.09174(19)
H4 H -0.3584 1.1081 1.1672
C6 C -0.5360(3) 1.1656(2) 1.0522(2)
H5 H -0.6371 1.2002 1.0944
C7 C -0.5099(3) 1.1548(2) 0.9383(2)
H6 H -0.5908 1.1805 0.8872
N3 N 0.0188(2) 0.99226(14) 0.82449(13)
N4 N 0.0799(2) 1.07239(15) 0.74147(13)
H7 H 0.0980 1.1384 0.7532
C8 C 0.0092(3) 0.90418(19) 0.77022(17)
H8 H -0.0291 0.8360 0.8059
C9 C 0.0641(3) 0.9284(2) 0.65340(19)
H9 H 0.0694 0.8816 0.5973
C10 C 0.1088(3) 1.0357(2) 0.63865(17)
H10 H 0.1516 1.0761 0.5695
Ni1_2 Ni 0.0000 2.0000 1.0000
O1A O -0.00397(18) 1.81245(12) 1.02951(12)
O1A_2 O -0.00397(18) 0.81245(12) 1.02951(12)
O2A O -0.14647(18) 1.73768(12) 1.19019(12)
C1A C -0.0648(2) 1.73020(16) 1.09171(16)
C2A C -0.0329(2) 1.61149(16) 1.04343(15)
C3A C -0.1337(2) 1.53214(17) 1.08464(16)
H1A H -0.2235 1.5532 1.1410
C4A C 0.1006(2) 1.57811(17) 0.95805(16)
H2A H 0.1681 1.6304 0.9294
N1A N 0.26188(19) 0.92627(14) 0.99308(14)
N2A N 0.3462(2) 0.89977(15) 1.08604(14)
H3A H 0.2999 0.9161 1.1532
C5A C 0.3790(3) 0.8861(2) 0.90826(19)
H4A H 0.3584 0.8919 0.8328
C6A C 0.5360(3) 0.8344(2) 0.9478(2)
H5A H 0.6371 0.7998 0.9056
C7A C 0.5099(3) 0.8452(2) 1.0617(2)
H6A H 0.5908 0.8195 1.1128
N3A N -0.0188(2) 1.00774(14) 1.17551(13)
N4A N -0.0799(2) 0.92761(15) 1.25853(13)
H7A H -0.0980 0.8616 1.2468
C8A C -0.0092(3) 1.09582(19) 1.22978(17)
H8A H 0.0291 1.1640 1.1941
C9A C -0.0641(3) 1.0716(2) 1.34660(19)
H9A H -0.0694 1.1184 1.4027
C10A C -0.1088(3) 0.9643(2) 1.36135(17)
H10A H -0.1516 0.9239 1.4305
Ni2 Ni -0.5000 1.5000 0.5000
O3 O -0.50532(18) 1.31298(11) 0.52960(12)
O4 O -0.35290(19) 1.17609(12) 0.66351(12)
C11 C -0.4411(2) 1.20386(16) 0.58181(16)
C12 C -0.4727(2) 1.09842(16) 0.53983(15)
C13 C -0.5446(2) 1.11998(16) 0.43769(16)
H11 H -0.5748 1.2005 0.3955
C14 C -0.4282(2) 0.97688(16) 0.60222(16)
H12 H -0.3803 0.9607 0.6706
N5 N -0.5235(2) 1.50651(14) 0.32556(13)
N6 N -0.6116(2) 1.60957(15) 0.25949(13)
H13 H -0.6499 1.6822 0.2795
C15 C -0.4883(3) 1.41579(19) 0.26342(17)
H14 H -0.4270 1.3334 0.2871
C16 C -0.5553(3) 1.4603(2) 0.15843(18)
H15 H -0.5492 1.4152 0.1007
C17 C -0.6322(3) 1.5851(2) 0.15889(17)
H16 H -0.6882 1.6423 0.1002
N7 N -0.7604(2) 1.55075(14) 0.54216(14)
N8 N -0.8387(2) 1.47872(16) 0.62288(15)
H17 H -0.7883 1.4061 0.6583
C18 C -0.8822(3) 1.6530(2) 0.5099(2)
H18 H -0.8665 1.7204 0.4546
C19 C -1.0363(3) 1.6462(2) 0.5696(2)
H19 H -1.1399 1.7059 0.5622
C20 C -1.0026(3) 1.5334(2) 0.6410(2)
H20 H -1.0798 1.5007 0.6927
Ni2_2 Ni -0.5000 0.5000 0.5000
O3A O -0.49468(18) 0.68702(11) 0.47040(12)
O3A_2 O -0.49468(18) 1.68702(11) 0.47040(12)
O4A O -0.64710(19) 0.82391(12) 0.33649(12)
C11A C -0.5589(2) 0.79614(16) 0.41819(16)
C12A C -0.5273(2) 0.90158(16) 0.46017(15)
C13A C -0.4554(2) 0.88002(16) 0.56231(16)
H11A H -0.4252 0.7995 0.6045
C14A C -0.5718(2) 1.02312(16) 0.39778(16)
H12A H -0.6197 1.0393 0.3294
N5A N -0.4765(2) 1.49349(14) 0.67444(13)
N6A N -0.3884(2) 1.39043(15) 0.74051(13)
H13A H -0.3501 1.3178 0.7205
C15A C -0.5117(3) 1.58421(19) 0.73658(17)
H14A H -0.5730 1.6666 0.7129
C16A C -0.4447(3) 1.5397(2) 0.84157(18)
H15A H -0.4508 1.5848 0.8993
C17A C -0.3678(3) 1.4149(2) 0.84111(17)
H16A H -0.3118 1.3577 0.8998
N7A N -0.2396(2) 1.44925(14) 0.45784(14)
N8A N -0.1613(2) 1.52128(16) 0.37712(15)
H17A H -0.2117 1.5939 0.3417
C18A C -0.1178(3) 1.3470(2) 0.4901(2)
H18A H -0.1335 1.2796 0.5454
C19A C 0.0363(3) 1.3538(2) 0.4304(2)
H19A H 0.1399 1.2941 0.4378
C20A C 0.0026(3) 1.4666(2) 0.3590(2)
H20A H 0.0798 1.4993 0.3073
loop_
_geom_bond_atom_site_label_1
_geom_bond_atom_site_label_2
_geom_bond_site_symmetry_1
_geom_bond_site_symmetry_2
Ni1 O1 1_555 1_555
O1 C1 1_555 1_555
O2 C1 1_555 1_555
C1 C2 1_555 1_555
C2 C3 1_555 1_555
C3 H1 1_555 1_555
C4 C2 1_555 1_555
H2 C4 1_555 1_555
N1 Ni1 1_555 1_555
N2 N1 1_555 1_555
H3 N2 1_555 1_555
C5 N1 1_555 1_555
H4 C5 1_555 1_555
C6 C5 1_555 1_555
H5 C6 1_555 1_555
C7 N2 1_555 1_555
H6 C7 1_555 1_555
N3 Ni1 1_555 1_555
N4 N3 1_555 1_555
H7 N4 1_555 1_555
C8 N3 1_555 1_555
H8 C8 1_555 1_555
C9 C8 1_555 1_555
H9 C9 1_555 1_555
C10 N4 1_555 1_555
H10 C10 1_555 1_555
Ni2 O3 1_555 1_555
O3 C11 1_555 1_555
O4 C11 1_555 1_555
C11 C12 1_555 1_555
C12 C13 1_555 1_555
C13 H11 1_555 1_555
C14 C12 1_555 1_555
H12 C14 1_555 1_555
N5 Ni2 1_555 1_555
N6 N5 1_555 1_555
H13 N6 1_555 1_555
C15 N5 1_555 1_555
H14 C15 1_555 1_555
C16 C15 1_555 1_555
H15 C16 1_555 1_555
C17 N6 1_555 1_555
H16 C17 1_555 1_555
N7 Ni2 1_555 1_555
N8 N7 1_555 1_555
H17 N8 1_555 1_555
C18 N7 1_555 1_555
H18 C18 1_555 1_555
C19 C18 1_555 1_555
H19 C19 1_555 1_555
C20 N8 1_555 1_555
H20 C20 1_555 1_555
Ni1_2 O1A 1_555 1_555
O1A C1A 1_555 1_555
O1A_2 Ni1 1_555 1_555
O2A C1A 1_555 1_555
C1A C2A 1_555 1_555
C2A C3A 1_555 1_555
C3A C4 1_555 1_555
H1A C3A 1_555 1_555
C4A C3 1_555 1_555
H2A C4A 1_555 1_555
N1A Ni1 1_555 1_555
N2A N1A 1_555 1_555
H3A N2A 1_555 1_555
C5A N1A 1_555 1_555
H4A C5A 1_555 1_555
C6A C5A 1_555 1_555
H5A C6A 1_555 1_555
C7A N2A 1_555 1_555
H6A C7A 1_555 1_555
N3A Ni1 1_555 1_555
N4A N3A 1_555 1_555
H7A N4A 1_555 1_555
C8A N3A 1_555 1_555
H8A C8A 1_555 1_555
C9A C8A 1_555 1_555
H9A C9A 1_555 1_555
C10A N4A 1_555 1_555
H10A C10A 1_555 1_555
Ni2_2 O3A 1_555 1_555
O3A C11A 1_555 1_555
O3A_2 Ni2 1_555 1_555
O4A C11A 1_555 1_555
C11A C12A 1_555 1_555
C12A C13A 1_555 1_555
C13A C14 1_555 1_555
H11A C13A 1_555 1_555
C14A C13 1_555 1_555
H12A C14A 1_555 1_555
N5A Ni2 1_555 1_555
N6A N5A 1_555 1_555
H13A N6A 1_555 1_555
C15A N5A 1_555 1_555
H14A C15A 1_555 1_555
C16A C15A 1_555 1_555
H15A C16A 1_555 1_555
C17A N6A 1_555 1_555
H16A C17A 1_555 1_555
N7A Ni2 1_555 1_555
N8A N7A 1_555 1_555
H17A N8A 1_555 1_555
C18A N7A 1_555 1_555
H18A C18A 1_555 1_555
C19A C18A 1_555 1_555
H19A C19A 1_555 1_555
C20A N8A 1_555 1_555
H20A C20A 1_555 1_555
C6 C7 1_555 1_555
C9 C10 1_555 1_555
C16 C17 1_555 1_555
C19 C20 1_555 1_555
C2A C4A 1_555 1_555
C6A C7A 1_555 1_555
C9A C10A 1_555 1_555
C12A C14A 1_555 1_555
C16A C17A 1_555 1_555
C19A C20A 1_555 1_555

#END
