
#######################################################################
#
#                 Cambridge Crystallographic Data Centre
#                                CCDC 
#
#######################################################################
#
# If this CIF has been generated from an entry in the Cambridge 
# Structural Database, then it will include bibliographic, chemical, 
# crystal, experimental, refinement or atomic coordinate data resulting 
# from the CCDC's data processing and validation procedures.
#
#######################################################################

data_RAZMUB
_symmetry_cell_setting           triclinic
_symmetry_space_group_name_H-M   'P -1'
_symmetry_Int_Tables_number      2
_space_group_name_Hall           '-P 1'
loop_
_symmetry_equiv_pos_site_id
_symmetry_equiv_pos_as_xyz
1 x,y,z
2 -x,-y,-z
_cell_length_a                   4.7572(5)
_cell_length_b                   7.4134(8)
_cell_length_c                   13.909(2)
_cell_angle_alpha                81.590(10)
_cell_angle_beta                 81.000(10)
_cell_angle_gamma                77.030(10)
_cell_volume                     468.971
loop_
_atom_site_label
_atom_site_type_symbol
_atom_site_fract_x
_atom_site_fract_y
_atom_site_fract_z
C1 C 0.0648(5) 0.7876(3) 0.43527(16)
C2 C -0.0905(5) 0.9367(3) 0.38067(17)
H1 H -0.2773 1.0002 0.4066
C3 C 0.0339(5) 0.9914(3) 0.28662(17)
H2 H -0.0682 1.0933 0.2473
C4 C 0.3089(5) 0.8964(3) 0.25012(16)
C5 C 0.4530(5) 0.7492(3) 0.31070(17)
H3 H 0.6412 0.6845 0.2869
C6 C -0.0485(5) 0.7067(3) 0.53641(17)
C7 C 0.4478(5) 0.9540(3) 0.14868(17)
N1 N 0.3350(4) 0.6961(3) 0.40101(14)
O1 O 0.1336(4) 0.5796(2) 0.58067(12)
O2 O -0.3064(4) 0.7607(3) 0.56951(12)
O3 O 0.7186(4) 0.8904(2) 0.12732(12)
O4 O 0.2876(4) 1.0640(2) 0.09208(11)
O5 O 1.2801(5) 0.7233(3) -0.00756(14)
Mn1 Mn 1.0000 1.0000 0.0000
Cu1 Cu 0.5000 0.5000 0.5000
H4 H 1.236(10) 0.656(7) -0.034(3)
H5 H 1.434(9) 0.752(6) -0.034(3)
C1A C 1.9352(5) 1.2124(3) -0.43527(16)
C2A C 2.0905(5) 1.0633(3) -0.38067(17)
H1A H 2.2773 0.9998 -0.4066
C3A C 1.9661(5) 1.0086(3) -0.28662(17)
H2A H 2.0682 0.9067 -0.2473
C4A C 1.6911(5) 1.1036(3) -0.25012(16)
C5A C 1.5470(5) 1.2508(3) -0.31070(17)
H3A H 1.3588 1.3155 -0.2869
C6A C 2.0485(5) 1.2933(3) -0.53641(17)
C7A C 1.5522(5) 1.0460(3) -0.14868(17)
N1A N 1.6650(4) 1.3039(3) -0.40101(14)
N1A_2 N 0.6650(4) 0.3039(3) 0.59899(14)
O1A O 1.8664(4) 1.4204(2) -0.58067(12)
O1A_2 O 0.8664(4) 0.4204(2) 0.41933(12)
O2A O 2.3064(4) 1.2393(3) -0.56951(12)
O2_2 O 0.6936(4) 0.7607(3) 0.56951(12)
O2A_2 O 0.3064(4) 0.2393(3) 0.43049(12)
O3A O 1.2814(4) 1.1096(2) -0.12732(12)
O4A O 1.7124(4) 0.9360(2) -0.09208(11)
O4_2 O 1.2876(4) 1.0640(2) 0.09208(11)
O4A_2 O 0.7124(4) 0.9360(2) -0.09208(11)
O5A O 0.7199(5) 1.2767(3) 0.00756(14)
Mn1_2 Mn 0.0000 1.0000 0.0000
Mn1_3 Mn 2.0000 1.0000 0.0000
Cu1_2 Cu -0.5000 0.5000 0.5000
Cu1_3 Cu 1.5000 1.5000 -0.5000
Cu1_4 Cu 2.5000 1.5000 -0.5000
H4A H 0.764(10) 1.344(7) 0.034(3)
H5A H 0.566(9) 1.248(6) 0.034(3)
O6 O 0.3847(5) 0.3499(3) 0.22433(18)
H6 H 0.370(8) 0.337(5) 0.276(3)
H7 H 0.513(8) 0.404(5) 0.210(3)
O7 O -0.1160(5) 0.4804(3) 0.13569(15)
H8 H 0.039(9) 0.443(6) 0.162(3)
H9 H -0.116(8) 0.577(6) 0.122(3)
loop_
_geom_bond_atom_site_label_1
_geom_bond_atom_site_label_2
_geom_bond_site_symmetry_1
_geom_bond_site_symmetry_2
C1 C2 1_555 1_555
C2 H1 1_555 1_555
C3 C2 1_555 1_555
H2 C3 1_555 1_555
C4 C3 1_555 1_555
C5 C4 1_555 1_555
H3 C5 1_555 1_555
C6 C1 1_555 1_555
C7 C4 1_555 1_555
N1 C1 1_555 1_555
O1 C6 1_555 1_555
O2 C6 1_555 1_555
O3 C7 1_555 1_555
O4 C7 1_555 1_555
O5 Mn1 1_555 1_555
Mn1 O3 1_555 1_555
Cu1 N1 1_555 1_555
O6 H6 1_555 1_555
O7 H8 1_555 1_555
H4 O5 1_555 1_555
H5 O5 1_555 1_555
H7 O6 1_555 1_555
H9 O7 1_555 1_555
C1A C2A 1_555 1_555
C2A H1A 1_555 1_555
C3A C2A 1_555 1_555
H2A C3A 1_555 1_555
C4A C3A 1_555 1_555
C5A C4A 1_555 1_555
H3A C5A 1_555 1_555
C6A C1A 1_555 1_555
C7A C4A 1_555 1_555
N1A C1A 1_555 1_555
N1A_2 Cu1 1_555 1_555
O1A C6A 1_555 1_555
O1A_2 Cu1 1_555 1_555
O2A C6A 1_555 1_555
O2_2 Cu1 1_555 1_555
O2A_2 Cu1 1_555 1_555
O3A Mn1 1_555 1_555
O4A C7A 1_555 1_555
O4_2 Mn1 1_555 1_555
O4A_2 Mn1 1_555 1_555
O5A Mn1 1_555 1_555
Mn1_2 O4 1_555 1_555
Mn1_3 O4A 1_555 1_555
Cu1_2 O2 1_555 1_555
Cu1_3 N1A 1_555 1_555
Cu1_4 O2A 1_555 1_555
H4A O5A 1_555 1_555
H5A O5A 1_555 1_555
C5 N1 1_555 1_555
O1 Cu1 1_555 1_555
C5A N1A 1_555 1_555
C7A O3A 1_555 1_555
O1A Cu1_3 1_555 1_555

#END
