
#######################################################################
#
#                 Cambridge Crystallographic Data Centre
#                                CCDC 
#
#######################################################################
#
# If this CIF has been generated from an entry in the Cambridge 
# Structural Database, then it will include bibliographic, chemical, 
# crystal, experimental, refinement or atomic coordinate data resulting 
# from the CCDC's data processing and validation procedures.
#
#######################################################################

data_RAZTAO
_symmetry_cell_setting           monoclinic
_symmetry_space_group_name_H-M   'C 2/c'
_symmetry_Int_Tables_number      15
_space_group_name_Hall           '-C 2yn'
loop_
_symmetry_equiv_pos_site_id
_symmetry_equiv_pos_as_xyz
1 x,y,z
2 1/2+x,1/2+y,z
3 -x,y,1/2-z
4 1/2-x,1/2+y,1/2-z
5 -x,-y,-z
6 1/2-x,1/2-y,-z
7 x,-y,1/2+z
8 1/2+x,1/2-y,1/2+z
_cell_length_a                   26.294(9)
_cell_length_b                   7.167(2)
_cell_length_c                   18.532(6)
_cell_angle_alpha                90
_cell_angle_beta                 111.758(5)
_cell_angle_gamma                90
_cell_volume                     3243.54
loop_
_atom_site_label
_atom_site_type_symbol
_atom_site_fract_x
_atom_site_fract_y
_atom_site_fract_z
Au1 Au 0.222199(10) 0.06640(4) 0.220368(13)
Zn1 Zn 0.2500 -0.2500 0.0000
C1 C 0.2222(2) 0.0275(9) 0.1138(4)
C2 C 0.2231(2) -0.0909(9) -0.1731(4)
C3 C 0.3330(2) 0.0587(8) 0.0189(3)
H1 H 0.3016 0.1296 -0.0047
C4 C 0.3829(2) 0.1443(8) 0.0389(4)
H2 H 0.3847 0.2709 0.0292
C5 C 0.4302(2) 0.0434(8) 0.0732(3)
C6 C 0.4251(2) -0.1459(8) 0.0873(3)
H3 H 0.4560 -0.2197 0.1102
C7 C 0.3738(2) -0.2203(8) 0.0665(3)
H4 H 0.3707 -0.3458 0.0770
C8 C 0.4845(2) 0.1278(7) 0.1009(3)
C9 C 0.5564(2) 0.3483(8) 0.1474(3)
C10 C 0.5796(2) 0.1489(8) 0.1652(3)
C11 C 0.5637(3) 0.4368(8) 0.0775(4)
H5 H 0.5493 0.3552 0.0336
H6 H 0.6020 0.4576 0.0888
H7 H 0.5446 0.5538 0.0660
C12 C 0.5729(3) 0.4807(10) 0.2158(4)
H8 H 0.5569 0.6010 0.1988
H9 H 0.6121 0.4920 0.2375
H10 H 0.5602 0.4330 0.2546
C13 C 0.6296(3) 0.1088(9) 0.1437(4)
H11 H 0.6401 -0.0195 0.1545
H12 H 0.6594 0.1878 0.1737
H13 H 0.6205 0.1332 0.0894
C14 C 0.5908(3) 0.0818(10) 0.2476(4)
H14 H 0.5600 0.1110 0.2616
H15 H 0.6228 0.1429 0.2829
H16 H 0.5965 -0.0507 0.2503
N1 N 0.2226(2) -0.0153(7) 0.0555(3)
N2 N 0.2251(2) -0.1102(7) -0.1108(3)
N3 N 0.32744(19) -0.1221(6) 0.0317(3)
N4 N 0.49587(19) 0.3057(7) 0.1231(3)
N5 N 0.53201(19) 0.0366(7) 0.1136(3)
O1 O 0.46156(18) 0.4329(5) 0.1211(3)
O2 O 0.53703(19) -0.1278(6) 0.0913(3)
Au1E Au 0.277801(10) -0.56640(4) -0.220368(13)
Au1F Au 0.222199(10) -0.06640(4) -0.279632(13)
Au1C Au 0.277801(10) -0.43360(4) 0.279632(13)
C1E C 0.2778(2) -0.5275(9) -0.1138(4)
C2E C 0.2769(2) -0.4091(9) 0.1731(4)
C2F C 0.2231(2) 0.0909(9) 0.3269(4)
C2C C 0.2769(2) -0.5909(9) -0.3269(4)
C3E C 0.1670(2) -0.5587(8) -0.0189(3)
H1E H 0.1984 -0.6296 0.0047
C4E C 0.1171(2) -0.6443(8) -0.0389(4)
H2E H 0.1153 -0.7709 -0.0292
C5E C 0.0698(2) -0.5434(8) -0.0732(3)
C6E C 0.0749(2) -0.3541(8) -0.0873(3)
H3E H 0.0440 -0.2803 -0.1102
C7E C 0.1262(2) -0.2797(8) -0.0665(3)
H4E H 0.1293 -0.1542 -0.0770
C8E C 0.0155(2) -0.6278(7) -0.1009(3)
C9E C -0.0564(2) -0.8483(8) -0.1474(3)
C10E C -0.0796(2) -0.6489(8) -0.1652(3)
C11E C -0.0637(3) -0.9368(8) -0.0775(4)
H5E H -0.0493 -0.8552 -0.0336
H6E H -0.1020 -0.9576 -0.0888
H7E H -0.0446 -1.0538 -0.0660
C12E C -0.0729(3) -0.9807(10) -0.2158(4)
H8E H -0.0569 -1.1010 -0.1988
H9E H -0.1121 -0.9920 -0.2375
H10E H -0.0602 -0.9330 -0.2546
C13E C -0.1296(3) -0.6088(9) -0.1437(4)
H11E H -0.1401 -0.4805 -0.1545
H12E H -0.1594 -0.6878 -0.1737
H13E H -0.1205 -0.6332 -0.0894
C14E C -0.0908(3) -0.5818(10) -0.2476(4)
H14E H -0.0600 -0.6110 -0.2616
H15E H -0.1228 -0.6429 -0.2829
H16E H -0.0965 -0.4493 -0.2503
N1E N 0.2774(2) -0.4847(7) -0.0555(3)
N2E N 0.2749(2) -0.3898(7) 0.1108(3)
N3E N 0.17256(19) -0.3779(6) -0.0317(3)
N4E N 0.00413(19) -0.8057(7) -0.1231(3)
N5E N -0.03201(19) -0.5366(7) -0.1136(3)
O1E O 0.03844(18) -0.9329(5) -0.1211(3)
O2E O -0.03703(19) -0.3722(6) -0.0913(3)
loop_
_geom_bond_atom_site_label_1
_geom_bond_atom_site_label_2
_geom_bond_site_symmetry_1
_geom_bond_site_symmetry_2
Au1 C1 1_555 1_555
Zn1 N1 1_555 1_555
C1 N1 1_555 1_555
C2 N2 1_555 1_555
C3 H1 1_555 1_555
C4 C3 1_555 1_555
H2 C4 1_555 1_555
C5 C4 1_555 1_555
C6 C5 1_555 1_555
H3 C6 1_555 1_555
C7 C6 1_555 1_555
H4 C7 1_555 1_555
C8 C5 1_555 1_555
C9 C10 1_555 1_555
C10 C13 1_555 1_555
C11 C9 1_555 1_555
H5 C11 1_555 1_555
H6 C11 1_555 1_555
H7 C11 1_555 1_555
C12 C9 1_555 1_555
H8 C12 1_555 1_555
H9 C12 1_555 1_555
H10 C12 1_555 1_555
C13 H11 1_555 1_555
H12 C13 1_555 1_555
H13 C13 1_555 1_555
C14 C10 1_555 1_555
H14 C14 1_555 1_555
H15 C14 1_555 1_555
H16 C14 1_555 1_555
N2 Zn1 1_555 1_555
N3 Zn1 1_555 1_555
N4 C8 1_555 1_555
N5 C8 1_555 1_555
O1 N4 1_555 1_555
O2 N5 1_555 1_555
Au1E C1E 1_555 1_555
Au1F C2 1_555 1_555
Au1C C2E 1_555 1_555
C1E N1E 1_555 1_555
C2E N2E 1_555 1_555
C2F Au1 1_555 1_555
C2C Au1E 1_555 1_555
C3E H1E 1_555 1_555
C4E C3E 1_555 1_555
H2E C4E 1_555 1_555
C5E C4E 1_555 1_555
C6E C5E 1_555 1_555
H3E C6E 1_555 1_555
C7E C6E 1_555 1_555
H4E C7E 1_555 1_555
C8E C5E 1_555 1_555
C9E C10E 1_555 1_555
C10E C13E 1_555 1_555
C11E C9E 1_555 1_555
H5E C11E 1_555 1_555
H6E C11E 1_555 1_555
H7E C11E 1_555 1_555
C12E C9E 1_555 1_555
H8E C12E 1_555 1_555
H9E C12E 1_555 1_555
H10E C12E 1_555 1_555
C13E H11E 1_555 1_555
H12E C13E 1_555 1_555
H13E C13E 1_555 1_555
C14E C10E 1_555 1_555
H14E C14E 1_555 1_555
H15E C14E 1_555 1_555
H16E C14E 1_555 1_555
N1E Zn1 1_555 1_555
N2E Zn1 1_555 1_555
N3E Zn1 1_555 1_555
N4E C8E 1_555 1_555
N5E C8E 1_555 1_555
O1E N4E 1_555 1_555
O2E N5E 1_555 1_555
C3 N3 1_555 1_555
C7 N3 1_555 1_555
C9 N4 1_555 1_555
C10 N5 1_555 1_555
C3E N3E 1_555 1_555
C7E N3E 1_555 1_555
C9E N4E 1_555 1_555
C10E N5E 1_555 1_555

#END
