
#######################################################################
#
#                 Cambridge Crystallographic Data Centre
#                                CCDC 
#
#######################################################################
#
# If this CIF has been generated from an entry in the Cambridge 
# Structural Database, then it will include bibliographic, chemical, 
# crystal, experimental, refinement or atomic coordinate data resulting 
# from the CCDC's data processing and validation procedures.
#
#######################################################################

data_RAZVEU
_symmetry_cell_setting           monoclinic
_symmetry_space_group_name_H-M   'C 2/c'
_symmetry_Int_Tables_number      15
_space_group_name_Hall           '-C 2yn'
loop_
_symmetry_equiv_pos_site_id
_symmetry_equiv_pos_as_xyz
1 x,y,z
2 1/2+x,1/2+y,z
3 -x,y,1/2-z
4 1/2-x,1/2+y,1/2-z
5 -x,-y,-z
6 1/2-x,1/2-y,-z
7 x,-y,1/2+z
8 1/2+x,1/2-y,1/2+z
_cell_length_a                   24.94(2)
_cell_length_b                   12.012(8)
_cell_length_c                   20.81(1)
_cell_angle_alpha                90
_cell_angle_beta                 117.57(1)
_cell_angle_gamma                90
_cell_volume                     5526.32
loop_
_atom_site_label
_atom_site_type_symbol
_atom_site_fract_x
_atom_site_fract_y
_atom_site_fract_z
La1 La 0.0000 0.99043(4) 0.2500
S1 S -0.44548(9) 0.68980(15) -0.08978(10)
S2 S -0.13959(11) 1.14630(19) 0.21797(13)
O1 O -0.0928(2) 1.0537(4) 0.2522(3)
O2 O -0.4521(2) 0.5767(4) -0.1246(2)
O3 O 0.0350(2) 1.1550(4) 0.3319(3)
O4 O 0.0617(2) 0.8215(4) 0.2537(3)
C1 C 0.0764(4) 1.1792(6) 0.3910(4)
H1 H 0.0944 1.1217 0.4240
C2 C 0.0970(4) 0.7950(6) 0.2324(4)
H2 H 0.1158 0.8520 0.2202
C3 C -0.2105(4) 1.0781(8) 0.1838(5)
H3 H -0.2131 1.0379 0.2227
H4 H -0.2428 1.1329 0.1651
C4 C -0.4596(4) 0.6629(8) -0.0141(4)
H5 H -0.4497 0.7285 0.0165
H6 H -0.4341 0.6022 0.0145
C5 C -0.3651(4) 0.7149(7) -0.0426(5)
H7 H -0.3505 0.7292 -0.0777
H8 H -0.3448 0.6490 -0.0153
N1 N 0.1115(3) 0.6920(5) 0.2248(4)
N2 N 0.0973(3) 1.2794(5) 0.4111(3)
C6 C -0.2183(4) 0.9984(8) 0.1246(5)
H9 H -0.2170 1.0393 0.0851
H10 H -0.1851 0.9456 0.1430
C7 C -0.2759(4) 0.9378(9) 0.0972(6)
H11 H -0.3083 0.9921 0.0773
H12 H -0.2777 0.9033 0.1383
C8 C -0.2888(4) 0.8507(8) 0.0417(5)
H13 H -0.2623 0.7877 0.0641
H14 H -0.2795 0.8798 0.0045
C9 C 0.1522(5) 0.6672(9) 0.1962(6)
H15 H 0.1684 0.7353 0.1882
H16 H 0.1310 0.6281 0.1511
H17 H 0.1846 0.6217 0.2300
C10 C 0.1479(5) 1.3025(9) 0.4832(5)
H18 H 0.1605 1.2346 0.5105
H19 H 0.1351 1.3547 0.5083
H20 H 0.1811 1.3333 0.4778
C11 C -0.1433(5) 1.2163(9) 0.2906(6)
H21 H -0.1827 1.2511 0.2726
H22 H -0.1397 1.1618 0.3267
C12 C -0.3499(5) 0.8132(9) 0.0085(6)
H23 H -0.3603 0.7936 0.0466
H24 H -0.3756 0.8750 -0.0181
C13 C 0.0744(5) 1.3720(8) 0.3625(5)
H25 H 0.0420 1.3475 0.3173
H26 H 0.1062 1.4028 0.3543
H27 H 0.0597 1.4278 0.3835
C14 C -0.5257(5) 0.6328(10) -0.0404(6)
H28 H -0.5324 0.6174 0.0006
H29 H -0.5508 0.6939 -0.0674
H30 H -0.5355 0.5681 -0.0708
C15 C 0.0831(5) 0.6018(8) 0.2409(7)
H31 H 0.0576 0.6298 0.2604
H32 H 0.1134 0.5539 0.2758
H33 H 0.0591 0.5606 0.1973
C16 C -0.1019(11) 1.2921(12) 0.3217(10)
H34 H -0.1073 1.3269 0.3599
H35 H -0.1052 1.3471 0.2866
H36 H -0.0626 1.2581 0.3417
La1G La -0.5000 0.50957(4) -0.2500
La1G_2 La 0.5000 0.50957(4) 0.7500
S1B S 0.44548(9) 0.68980(15) 0.58978(10)
S2B S 0.13959(11) 1.14630(19) 0.28203(13)
O1B O 0.0928(2) 1.0537(4) 0.2478(3)
O2B O 0.4521(2) 0.5767(4) 0.6246(2)
O2G O 0.0479(2) 0.9233(4) 0.3754(2)
O2E O -0.0479(2) 0.9233(4) 0.1246(2)
O3B O -0.0350(2) 1.1550(4) 0.1681(3)
O4B O -0.0617(2) 0.8215(4) 0.2463(3)
C1B C -0.0764(4) 1.1792(6) 0.1090(4)
H1B H -0.0944 1.1217 0.0760
C2B C -0.0970(4) 0.7950(6) 0.2676(4)
H2B H -0.1158 0.8520 0.2798
C3B C 0.2105(4) 1.0781(8) 0.3162(5)
H3B H 0.2131 1.0379 0.2773
H4B H 0.2428 1.1329 0.3349
C4B C 0.4596(4) 0.6629(8) 0.5141(4)
H5B H 0.4497 0.7285 0.4835
H6B H 0.4341 0.6022 0.4855
C5B C 0.3651(4) 0.7149(7) 0.5426(5)
H7B H 0.3505 0.7292 0.5777
H8B H 0.3448 0.6490 0.5153
N1B N -0.1115(3) 0.6920(5) 0.2752(4)
N2B N -0.0973(3) 1.2794(5) 0.0889(3)
C6B C 0.2183(4) 0.9984(8) 0.3754(5)
H9B H 0.2170 1.0393 0.4149
H10B H 0.1851 0.9456 0.3570
C7B C 0.2759(4) 0.9378(9) 0.4028(6)
H11B H 0.3083 0.9921 0.4227
H12B H 0.2777 0.9033 0.3617
C8B C 0.2888(4) 0.8507(8) 0.4583(5)
H13B H 0.2623 0.7877 0.4359
H14B H 0.2795 0.8798 0.4955
C9B C -0.1522(5) 0.6672(9) 0.3038(6)
H15B H -0.1684 0.7353 0.3118
H16B H -0.1310 0.6281 0.3489
H17B H -0.1846 0.6217 0.2700
C10B C -0.1479(5) 1.3025(9) 0.0168(5)
H18B H -0.1605 1.2346 -0.0105
H19B H -0.1351 1.3547 -0.0083
H20B H -0.1811 1.3333 0.0222
C11B C 0.1433(5) 1.2163(9) 0.2094(6)
H21B H 0.1827 1.2511 0.2274
H22B H 0.1397 1.1618 0.1733
C12B C 0.3499(5) 0.8132(9) 0.4915(6)
H23B H 0.3603 0.7936 0.4534
H24B H 0.3756 0.8750 0.5181
C13B C -0.0744(5) 1.3720(8) 0.1375(5)
H25B H -0.0420 1.3475 0.1827
H26B H -0.1062 1.4028 0.1457
H27B H -0.0597 1.4278 0.1165
C14B C 0.5257(5) 0.6328(10) 0.5404(6)
H28B H 0.5324 0.6174 0.4994
H29B H 0.5508 0.6939 0.5674
H30B H 0.5355 0.5681 0.5708
C15B C -0.0831(5) 0.6018(8) 0.2591(7)
H31B H -0.0576 0.6298 0.2396
H32B H -0.1134 0.5539 0.2242
H33B H -0.0591 0.5606 0.3027
C16B C 0.1019(11) 1.2921(12) 0.1783(10)
H34B H 0.1073 1.3269 0.1401
H35B H 0.1052 1.3471 0.2134
H36B H 0.0626 1.2581 0.1583
Cl1 Cl 0.0000 0.5000 0.0000
O9 O -0.0065(11) 0.5554(17) 0.0581(10)
O10 O 0.0623(9) 0.500(4) 0.025(2)
O9D O 0.0065(11) 0.4446(17) -0.0581(10)
O10D O -0.0623(9) 0.500(4) -0.025(2)
Cl2 Cl 0.22728(14) 0.9618(3) 0.11950(16)
O5 O 0.2445(9) 1.0642(14) 0.1339(7)
O6 O 0.1786(8) 0.9638(11) 0.0578(10)
O7 O 0.2239(11) 0.9185(19) 0.1710(12)
O8 O 0.2643(8) 0.890(2) 0.1129(11)
O11? O 0.032(3) 0.426(4) 0.0567(13)
O12? O 0.026(3) 0.604(3) 0.012(3)
loop_
_geom_bond_atom_site_label_1
_geom_bond_atom_site_label_2
_geom_bond_site_symmetry_1
_geom_bond_site_symmetry_2
La1 O1 1_555 1_555
S1 O2 1_555 1_555
S2 O1 1_555 1_555
O2 La1G 1_555 1_555
O3 La1 1_555 1_555
O4 La1 1_555 1_555
C1 O3 1_555 1_555
H1 C1 1_555 1_555
C2 O4 1_555 1_555
H2 C2 1_555 1_555
C3 S2 1_555 1_555
H3 C3 1_555 1_555
H4 C3 1_555 1_555
C4 S1 1_555 1_555
H5 C4 1_555 1_555
H6 C4 1_555 1_555
C5 S1 1_555 1_555
H7 C5 1_555 1_555
H8 C5 1_555 1_555
Cl1 O9 1_555 1_555
Cl2 O5 1_555 1_555
N1 C2 1_555 1_555
N2 C1 1_555 1_555
C6 C3 1_555 1_555
H9 C6 1_555 1_555
H10 C6 1_555 1_555
C7 C6 1_555 1_555
H11 C7 1_555 1_555
H12 C7 1_555 1_555
C8 C7 1_555 1_555
H13 C8 1_555 1_555
H14 C8 1_555 1_555
C9 N1 1_555 1_555
H15 C9 1_555 1_555
H16 C9 1_555 1_555
H17 C9 1_555 1_555
C10 N2 1_555 1_555
H18 C10 1_555 1_555
H19 C10 1_555 1_555
H20 C10 1_555 1_555
C11 S2 1_555 1_555
H21 C11 1_555 1_555
H22 C11 1_555 1_555
C12 C5 1_555 1_555
H23 C12 1_555 1_555
H24 C12 1_555 1_555
C13 N2 1_555 1_555
H25 C13 1_555 1_555
H26 C13 1_555 1_555
H27 C13 1_555 1_555
C14 C4 1_555 1_555
H28 C14 1_555 1_555
H29 C14 1_555 1_555
H30 C14 1_555 1_555
C15 N1 1_555 1_555
H31 C15 1_555 1_555
H32 C15 1_555 1_555
H33 C15 1_555 1_555
C16 C11 1_555 1_555
H34 C16 1_555 1_555
H35 C16 1_555 1_555
H36 C16 1_555 1_555
O6 Cl2 1_555 1_555
O7 Cl2 1_555 1_555
O8 Cl2 1_555 1_555
O10 Cl1 1_555 1_555
La1G_2 O2B 1_555 1_555
S1B O2B 1_555 1_555
S2B O1B 1_555 1_555
O1B La1 1_555 1_555
O2G La1 1_555 1_555
O2E La1 1_555 1_555
O3B La1 1_555 1_555
O4B La1 1_555 1_555
C1B O3B 1_555 1_555
H1B C1B 1_555 1_555
C2B O4B 1_555 1_555
H2B C2B 1_555 1_555
C3B S2B 1_555 1_555
H3B C3B 1_555 1_555
H4B C3B 1_555 1_555
C4B S1B 1_555 1_555
H5B C4B 1_555 1_555
H6B C4B 1_555 1_555
C5B S1B 1_555 1_555
H7B C5B 1_555 1_555
H8B C5B 1_555 1_555
N1B C2B 1_555 1_555
N2B C1B 1_555 1_555
C6B C3B 1_555 1_555
H9B C6B 1_555 1_555
H10B C6B 1_555 1_555
C7B C6B 1_555 1_555
H11B C7B 1_555 1_555
H12B C7B 1_555 1_555
C8B C7B 1_555 1_555
H13B C8B 1_555 1_555
H14B C8B 1_555 1_555
C9B N1B 1_555 1_555
H15B C9B 1_555 1_555
H16B C9B 1_555 1_555
H17B C9B 1_555 1_555
C10B N2B 1_555 1_555
H18B C10B 1_555 1_555
H19B C10B 1_555 1_555
H20B C10B 1_555 1_555
C11B S2B 1_555 1_555
H21B C11B 1_555 1_555
H22B C11B 1_555 1_555
C12B C5B 1_555 1_555
H23B C12B 1_555 1_555
H24B C12B 1_555 1_555
C13B N2B 1_555 1_555
H25B C13B 1_555 1_555
H26B C13B 1_555 1_555
H27B C13B 1_555 1_555
C14B C4B 1_555 1_555
H28B C14B 1_555 1_555
H29B C14B 1_555 1_555
H30B C14B 1_555 1_555
C15B N1B 1_555 1_555
H31B C15B 1_555 1_555
H32B C15B 1_555 1_555
H33B C15B 1_555 1_555
C16B C11B 1_555 1_555
H34B C16B 1_555 1_555
H35B C16B 1_555 1_555
H36B C16B 1_555 1_555
O9D Cl1 1_555 1_555
O10D Cl1 1_555 1_555
C8 C12 1_555 1_555
C8B C12B 1_555 1_555

#END
