
#######################################################################
#
#                 Cambridge Crystallographic Data Centre
#                                CCDC 
#
#######################################################################
#
# If this CIF has been generated from an entry in the Cambridge 
# Structural Database, then it will include bibliographic, chemical, 
# crystal, experimental, refinement or atomic coordinate data resulting 
# from the CCDC's data processing and validation procedures.
#
#######################################################################

data_RBOXAL01
_symmetry_cell_setting           monoclinic
_symmetry_space_group_name_H-M   'C 2/c'
_symmetry_Int_Tables_number      15
_space_group_name_Hall           '-C 2yn'
loop_
_symmetry_equiv_pos_site_id
_symmetry_equiv_pos_as_xyz
1 x,y,z
2 -x,y,1/2-z
3 1/2+x,1/2+y,z
4 1/2-x,1/2+y,1/2-z
5 -x,-y,-z
6 x,-y,1/2+z
7 1/2-x,1/2-y,-z
8 1/2+x,1/2-y,1/2+z
_cell_length_a                   9.617(6)
_cell_length_b                   6.353(5)
_cell_length_c                   11.010(8)
_cell_angle_alpha                90
_cell_angle_beta                 109.46(3)
_cell_angle_gamma                90
_cell_volume                     634.249
loop_
_atom_site_label
_atom_site_type_symbol
_atom_site_fract_x
_atom_site_fract_y
_atom_site_fract_z
Rb1 Rb 0.12958(2) 0.81820(3) 0.13017(2)
C1 C 0.23766(18) 1.3224(2) 0.05368(13)
O1 O 0.13309(14) 1.2772(2) 0.09209(12)
O2 O 0.32333(14) 1.47360(19) 0.09316(12)
O3 O 0.00000 0.4732(3) 0.25000
H1 H 0.042(2) 0.391(3) 0.203(2)
Rb1F Rb 0.37042(2) 1.68180(3) -0.13017(2)
Rb1A Rb -0.12958(2) 0.81820(3) 0.36983(2)
Rb1D Rb -0.12958(2) 1.18180(3) -0.13017(2)
Rb1C Rb 0.37042(2) 1.31820(3) 0.36983(2)
Rb1_2 Rb 0.12958(2) 1.81820(3) 0.13017(2)
Rb1B Rb 0.62958(2) 1.31820(3) 0.13017(2)
Rb1E Rb 0.12958(2) 1.18180(3) -0.36983(2)
Rb1F_2 Rb 0.37042(2) 0.68180(3) -0.13017(2)
Rb1G Rb 0.62958(2) 1.68180(3) -0.36983(2)
C1F C 0.26234(18) 1.1776(2) -0.05368(13)
O1F O 0.36691(14) 1.2228(2) -0.09209(12)
O1C O 0.36691(14) 0.7772(2) 0.40791(12)
O1D O -0.13309(14) 0.7228(2) -0.09209(12)
O1B O 0.63309(14) 1.7772(2) 0.09209(12)
O1E O 0.13309(14) 1.7228(2) -0.40791(12)
O2F O 0.17667(14) 1.02640(19) -0.09316(12)
O2_2 O 0.32333(14) 0.47360(19) 0.09316(12)
O2B O -0.17667(14) 0.97360(19) 0.09316(12)
O2C O 0.17667(14) 0.97360(19) 0.40684(12)
O2D O 0.67667(14) 1.52640(19) -0.09316(12)
O2E O 0.32333(14) 1.52640(19) -0.40684(12)
O2F_2 O 0.17667(14) 2.02640(19) -0.09316(12)
O3F O 0.50000 2.0268(3) -0.25000
H1A H -0.042(2) 0.391(3) 0.297(2)
H1F H 0.458(2) 2.109(3) -0.203(2)
H1G H 0.542(2) 2.109(3) -0.297(2)
loop_
_geom_bond_atom_site_label_1
_geom_bond_atom_site_label_2
_geom_bond_site_symmetry_1
_geom_bond_site_symmetry_2
Rb1 O1 1_555 1_555
C1 O1 1_555 1_555
O1 Rb1D 1_555 1_555
O2 C1 1_555 1_555
O3 Rb1 1_555 1_555
H1 O3 1_555 1_555
Rb1F O2 1_555 1_555
Rb1A O3 1_555 1_555
Rb1D O1D 1_555 1_555
Rb1C O1 1_555 1_555
Rb1_2 O2 1_555 1_555
Rb1B O2 1_555 1_555
Rb1E O1F 1_555 1_555
Rb1F_2 O2F 1_555 1_555
Rb1G O2D 1_555 1_555
C1F C1 1_555 1_555
O1F Rb1F 1_555 1_555
O1C Rb1 1_555 1_555
O1D Rb1 1_555 1_555
O1B Rb1F 1_555 1_555
O1E Rb1F 1_555 1_555
O2F Rb1 1_555 1_555
O2_2 Rb1 1_555 1_555
O2B Rb1 1_555 1_555
O2C Rb1 1_555 1_555
O2D Rb1F 1_555 1_555
O2E Rb1F 1_555 1_555
O2F_2 Rb1F 1_555 1_555
O3F Rb1F 1_555 1_555
H1A O3 1_555 1_555
H1F O3F 1_555 1_555
H1G O3F 1_555 1_555
O2 Rb1C 1_555 1_555
Rb1A O2B 1_555 1_555
Rb1A O2C 1_555 1_555
Rb1D O2F 1_555 1_555
Rb1D O2B 1_555 1_555
Rb1C O2C 1_555 1_555
Rb1_2 O2F_2 1_555 1_555
Rb1B O1F 1_555 1_555
Rb1B O1B 1_555 1_555
Rb1B O2D 1_555 1_555
Rb1E O2F 1_555 1_555
Rb1E O2E 1_555 1_555
Rb1F_2 O2_2 1_555 1_555
Rb1G O2E 1_555 1_555
Rb1G O3F 1_555 1_555
C1F O1F 1_555 1_555
C1F O2F 1_555 1_555

#END
