
#######################################################################
#
#                 Cambridge Crystallographic Data Centre
#                                CCDC 
#
#######################################################################
#
# If this CIF has been generated from an entry in the Cambridge 
# Structural Database, then it will include bibliographic, chemical, 
# crystal, experimental, refinement or atomic coordinate data resulting 
# from the CCDC's data processing and validation procedures.
#
#######################################################################

data_REBJEO
_symmetry_cell_setting           monoclinic
_symmetry_space_group_name_H-M   'C 2/c'
_symmetry_Int_Tables_number      15
_space_group_name_Hall           '-C 2yn'
loop_
_symmetry_equiv_pos_site_id
_symmetry_equiv_pos_as_xyz
1 x,y,z
2 1/2+x,1/2+y,z
3 -x,y,1/2-z
4 1/2-x,1/2+y,1/2-z
5 -x,-y,-z
6 1/2-x,1/2-y,-z
7 x,-y,1/2+z
8 1/2+x,1/2-y,1/2+z
_cell_length_a                   13.5069(16)
_cell_length_b                   11.8393(14)
_cell_length_c                   19.570(2)
_cell_angle_alpha                90
_cell_angle_beta                 91.595(2)
_cell_angle_gamma                90
_cell_volume                     3128.27
loop_
_atom_site_label
_atom_site_type_symbol
_atom_site_fract_x
_atom_site_fract_y
_atom_site_fract_z
Cd1 Cd 0.361587(14) 0.261628(16) 0.436865(9)
O1 O 0.46488(19) 0.12487(19) 0.38714(13)
O2 O 0.50050(17) 0.30036(19) 0.36705(12)
O3 O 0.33853(17) 0.45491(17) 0.44932(11)
O4 O 0.24072(19) 0.3737(3) 0.51944(15)
N1 N 0.25343(17) 0.26728(19) 0.34155(12)
N2 N -0.04043(18) 0.25185(19) 0.03632(12)
C1 C 0.2013(2) 0.1756(2) 0.32236(14)
H1 H 0.2049 0.1119 0.3501
C2 C 0.14278(19) 0.1710(2) 0.26392(13)
H2 H 0.1079 0.1055 0.2529
C3 C 0.1359(2) 0.2649(2) 0.22110(14)
C4 C 0.1890(2) 0.3602(2) 0.24127(14)
H3 H 0.1860 0.4254 0.2148
C5 C 0.2463(2) 0.3579(2) 0.30093(14)
H4 H 0.2817 0.4224 0.3134
C6 C 0.0752(2) 0.2618(2) 0.15718(14)
C7 C 0.0617(2) 0.1613(3) 0.12142(15)
H5 H 0.0912 0.0951 0.1375
C8 C 0.0046(2) 0.1604(3) 0.06229(15)
H6 H -0.0032 0.0923 0.0391
C9 C -0.0267(2) 0.3484(3) 0.07039(15)
H7 H -0.0569 0.4134 0.0531
C10 C 0.0298(2) 0.3570(2) 0.12989(15)
H8 H 0.0373 0.4265 0.1516
C11 C 0.5189(3) 0.1973(3) 0.36134(17)
C12 C 0.6080(3) 0.1607(4) 0.3227(2)
H9 H 0.6291 0.0875 0.3385
H10 H 0.6606 0.2141 0.3302
H11 H 0.5911 0.1570 0.2748
C13 C 0.2759(2) 0.4611(3) 0.49422(15)
C14 C 0.2465(4) 0.5740(5) 0.5199(3)
H12 H 0.3039 0.6128 0.5378
H13 H 0.1994 0.5650 0.5553
H14 H 0.2171 0.6171 0.4830
Cd1E Cd 0.138413(14) 0.238372(16) 0.563135(9)
Cd1G Cd -0.138413(14) 0.238372(16) -0.063135(9)
Cd1G_2 Cd 0.861587(14) 0.238372(16) 0.936865(9)
O1E O 0.03512(19) 0.37513(19) 0.61286(13)
O2E O -0.00050(17) 0.19964(19) 0.63295(12)
O3E O 0.16147(17) 0.04509(17) 0.55068(11)
O4E O 0.25928(19) 0.1263(3) 0.48056(15)
N1G N 0.75343(17) 0.23272(19) 0.84155(12)
N1E N 0.24657(17) 0.23272(19) 0.65845(12)
N2G N 0.45957(18) 0.24815(19) 0.53632(12)
N2B N 0.04043(18) 0.25185(19) 0.46368(12)
C1G C 0.7013(2) 0.3244(2) 0.82236(14)
H1G H 0.7049 0.3881 0.8501
C2G C 0.64278(19) 0.3290(2) 0.76392(13)
H2G H 0.6079 0.3945 0.7529
C3G C 0.6359(2) 0.2351(2) 0.72110(14)
C4G C 0.6890(2) 0.1398(2) 0.74127(14)
H3G H 0.6860 0.0746 0.7148
C5G C 0.7463(2) 0.1421(2) 0.80093(14)
H4G H 0.7817 0.0776 0.8134
C6G C 0.5752(2) 0.2382(2) 0.65718(14)
C7G C 0.5617(2) 0.3387(3) 0.62142(15)
H5G H 0.5912 0.4049 0.6375
C8G C 0.5046(2) 0.3396(3) 0.56229(15)
H6G H 0.4968 0.4077 0.5391
C9G C 0.4733(2) 0.1516(3) 0.57039(15)
H7G H 0.4431 0.0866 0.5531
C10G C 0.5298(2) 0.1430(2) 0.62989(15)
H8G H 0.5373 0.0735 0.6516
C11E C -0.0189(3) 0.3027(3) 0.63866(17)
C12E C -0.1080(3) 0.3393(4) 0.6773(2)
H9E H -0.1291 0.4125 0.6615
H10E H -0.1606 0.2859 0.6698
H11E H -0.0911 0.3430 0.7252
C13E C 0.2241(2) 0.0389(3) 0.50578(15)
C14E C 0.2535(4) -0.0740(5) 0.4801(3)
H12E H 0.1961 -0.1128 0.4622
H13E H 0.3006 -0.0650 0.4447
H14E H 0.2829 -0.1171 0.5170
O5 O 1.0000 0.9433(2) 0.2500
H15 H 1.0020 0.9066 0.2866
H15B H 0.9980 0.9066 0.2134
loop_
_geom_bond_atom_site_label_1
_geom_bond_atom_site_label_2
_geom_bond_site_symmetry_1
_geom_bond_site_symmetry_2
Cd1 O1 1_555 1_555
O1 C11 1_555 1_555
O2 Cd1 1_555 1_555
O3 Cd1 1_555 1_555
O4 Cd1 1_555 1_555
N1 Cd1 1_555 1_555
N2 C8 1_555 1_555
C1 N1 1_555 1_555
H1 C1 1_555 1_555
C2 C1 1_555 1_555
H2 C2 1_555 1_555
C3 C2 1_555 1_555
C4 C3 1_555 1_555
H3 C4 1_555 1_555
C5 N1 1_555 1_555
H4 C5 1_555 1_555
C6 C3 1_555 1_555
C7 C6 1_555 1_555
H5 C7 1_555 1_555
C8 C7 1_555 1_555
H6 C8 1_555 1_555
C9 N2 1_555 1_555
H7 C9 1_555 1_555
C10 C6 1_555 1_555
H8 C10 1_555 1_555
C11 O2 1_555 1_555
C12 C11 1_555 1_555
H9 C12 1_555 1_555
H10 C12 1_555 1_555
H11 C12 1_555 1_555
C13 O3 1_555 1_555
C14 C13 1_555 1_555
H12 C14 1_555 1_555
H13 C14 1_555 1_555
H14 C14 1_555 1_555
O5 H15 1_555 1_555
Cd1E O4 1_555 1_555
Cd1G N2 1_555 1_555
Cd1G_2 N1G 1_555 1_555
O1E Cd1E 1_555 1_555
O2E Cd1E 1_555 1_555
O3E Cd1E 1_555 1_555
O4E Cd1 1_555 1_555
N1G C1G 1_555 1_555
N1E Cd1E 1_555 1_555
N2G Cd1 1_555 1_555
N2B Cd1E 1_555 1_555
C1G H1G 1_555 1_555
C2G C1G 1_555 1_555
H2G C2G 1_555 1_555
C3G C2G 1_555 1_555
C4G C3G 1_555 1_555
H3G C4G 1_555 1_555
C5G N1G 1_555 1_555
H4G C5G 1_555 1_555
C6G C3G 1_555 1_555
C7G C6G 1_555 1_555
H5G C7G 1_555 1_555
C8G N2G 1_555 1_555
H6G C8G 1_555 1_555
C9G N2G 1_555 1_555
H7G C9G 1_555 1_555
C10G C6G 1_555 1_555
H8G C10G 1_555 1_555
C11E O1E 1_555 1_555
C12E C11E 1_555 1_555
H9E C12E 1_555 1_555
H10E C12E 1_555 1_555
H11E C12E 1_555 1_555
C13E O3E 1_555 1_555
C14E C13E 1_555 1_555
H12E C14E 1_555 1_555
H13E C14E 1_555 1_555
H14E C14E 1_555 1_555
H15B O5 1_555 1_555
O4 C13 1_555 1_555
C4 C5 1_555 1_555
C9 C10 1_555 1_555
Cd1E O4E 1_555 1_555
O2E C11E 1_555 1_555
O4E C13E 1_555 1_555
C4G C5G 1_555 1_555
C7G C8G 1_555 1_555
C9G C10G 1_555 1_555

#END
