
#######################################################################
#
#                 Cambridge Crystallographic Data Centre
#                                CCDC 
#
#######################################################################
#
# If this CIF has been generated from an entry in the Cambridge 
# Structural Database, then it will include bibliographic, chemical, 
# crystal, experimental, refinement or atomic coordinate data resulting 
# from the CCDC's data processing and validation procedures.
#
#######################################################################

data_REBRIB
_symmetry_cell_setting           triclinic
_symmetry_space_group_name_H-M   'P -1'
_symmetry_Int_Tables_number      2
_space_group_name_Hall           '-P 1'
loop_
_symmetry_equiv_pos_site_id
_symmetry_equiv_pos_as_xyz
1 x,y,z
2 -x,-y,-z
_cell_length_a                   10.587(4)
_cell_length_b                   12.396(4)
_cell_length_c                   15.157(5)
_cell_angle_alpha                92.921(5)
_cell_angle_beta                 104.059(6)
_cell_angle_gamma                103.157(3)
_cell_volume                     1866.99
loop_
_atom_site_label
_atom_site_type_symbol
_atom_site_fract_x
_atom_site_fract_y
_atom_site_fract_z
I1 I -0.10249(5) 0.11621(4) -0.57622(3)
I2 I 0.17041(5) -0.05029(4) -0.04262(3)
Cu1 Cu 0.06290(8) 0.09026(7) -0.41878(5)
Cu2 Cu -0.09278(8) -0.05796(7) -0.08343(5)
P1 P 0.2625(2) 0.2118(2) -0.3945(1)
P2 P -0.2081(2) -0.2355(2) -0.0961(1)
N1 N -0.0554(5) 0.0935(5) -0.3276(3)
N2 N -0.1099(5) 0.0402(4) -0.1904(3)
C1 C -0.0436(6) 0.0382(6) -0.2544(4)
C2 C -0.1414(7) 0.1587(6) -0.3363(4)
C3 C -0.2123(7) 0.1680(6) -0.2724(5)
C4 C -0.1938(7) 0.1062(6) -0.2006(5)
C5 C 0.2645(7) 0.3591(6) -0.4062(4)
C6 C 0.1545(7) 0.3944(6) -0.3991(5)
C7 C 0.1539(9) 0.5063(8) -0.4017(6)
C8 C 0.2669(10) 0.5819(6) -0.4108(5)
C9 C 0.3773(9) 0.5467(7) -0.4204(6)
C10 C 0.3741(8) 0.4358(7) -0.4189(5)
C11 C 0.3561(6) 0.1826(5) -0.4747(4)
C12 C 0.2993(7) 0.1820(7) -0.5672(5)
C13 C 0.3632(8) 0.1617(6) -0.6329(5)
C14 C 0.4849(8) 0.1362(7) -0.6067(5)
C15 C 0.5427(8) 0.1362(9) -0.5165(6)
C16 C 0.4761(8) 0.1559(8) -0.4517(5)
C17 C 0.3783(6) 0.2162(6) -0.2814(4)
C18 C 0.4618(8) 0.3123(6) -0.2307(5)
C19 C 0.5453(9) 0.3064(7) -0.1444(6)
C20 C 0.5447(8) 0.2091(8) -0.1089(5)
C21 C 0.4615(8) 0.1143(7) -0.1591(5)
C22 C 0.3776(8) 0.1184(6) -0.2435(5)
C23 C -0.3902(7) -0.2665(6) -0.1111(4)
C24 C -0.4582(8) -0.1923(6) -0.1480(5)
C25 C -0.5959(9) -0.2150(8) -0.1662(5)
C26 C -0.6677(8) -0.3144(9) -0.1474(6)
C27 C -0.6003(9) -0.3910(7) -0.1093(6)
C28 C -0.4643(8) -0.3663(7) -0.0917(5)
C29 C -0.1481(7) -0.2990(5) 0.0067(4)
C30 C -0.1940(7) -0.2824(6) 0.0832(5)
C31 C -0.1489(8) -0.3275(7) 0.1621(5)
C32 C -0.0534(9) -0.3842(7) 0.1675(5)
C33 C 0.0004(9) -0.3959(7) 0.0947(6)
C34 C -0.0480(8) -0.3538(7) 0.0148(5)
C35 C -0.1908(7) -0.3273(6) -0.1890(4)
C36 C -0.2777(8) -0.4268(8) -0.2238(6)
C37 C -0.2611(9) -0.4932(8) -0.2954(7)
C38 C -0.1593(9) -0.4560(8) -0.3349(5)
C39 C -0.071(1) -0.3567(7) -0.2996(6)
C40 C -0.0884(8) -0.2939(6) -0.2280(5)
H1 H 0.0185 -0.0074 -0.2471
H2 H -0.1538 0.1995 -0.3877
H3 H -0.2719 0.2156 -0.2782
H4 H -0.2427 0.1107 -0.1562
H5 H 0.0774 0.3422 -0.3924
H6 H 0.0766 0.5306 -0.3973
H7 H 0.2682 0.6588 -0.4103
H8 H 0.4543 0.5983 -0.4280
H9 H 0.4495 0.4107 -0.4267
H10 H 0.2129 0.1963 -0.5861
H11 H 0.3233 0.1654 -0.6957
H12 H 0.5287 0.1186 -0.6513
H13 H 0.6295 0.1227 -0.4976
H14 H 0.5156 0.1506 -0.3892
H15 H 0.4631 0.3822 -0.2538
H16 H 0.6039 0.3730 -0.1102
H17 H 0.6010 0.2068 -0.0502
H18 H 0.4612 0.0446 -0.1358
H19 H 0.3177 0.0514 -0.2762
H20 H -0.4099 -0.1233 -0.1614
H21 H -0.6417 -0.1618 -0.1919
H22 H -0.7629 -0.3303 -0.1605
H23 H -0.6484 -0.4599 -0.0957
H24 H -0.4181 -0.4189 -0.0652
H25 H -0.2578 -0.2390 0.0810
H26 H -0.1851 -0.3187 0.2128
H27 H -0.0231 -0.4163 0.2219
H28 H 0.0707 -0.4330 0.0996
H29 H -0.0114 -0.3628 -0.0357
H30 H -0.3518 -0.4523 -0.1989
H31 H -0.3211 -0.5644 -0.3165
H32 H -0.1503 -0.4985 -0.3860
H33 H 0.0035 -0.3305 -0.3244
H34 H -0.0259 -0.2243 -0.2050
I1A I 0.10249(5) -0.11621(4) -0.42378(3)
I2A I -0.17041(5) 0.05029(4) 0.04262(3)
Cu1A Cu -0.06290(8) -0.09026(7) -0.58122(5)
Cu2A Cu 0.09278(8) 0.05796(7) 0.08343(5)
loop_
_geom_bond_atom_site_label_1
_geom_bond_atom_site_label_2
_geom_bond_site_symmetry_1
_geom_bond_site_symmetry_2
I1 Cu1 1_555 1_555
I2 Cu2 1_555 1_555
Cu1 P1 1_555 1_555
Cu2 P2 1_555 1_555
P1 C5 1_555 1_555
P2 C23 1_555 1_555
N1 Cu1 1_555 1_555
N2 Cu2 1_555 1_555
C1 N1 1_555 1_555
C2 N1 1_555 1_555
C3 C2 1_555 1_555
C4 N2 1_555 1_555
C5 C6 1_555 1_555
C6 C7 1_555 1_555
C7 C8 1_555 1_555
C8 C9 1_555 1_555
C9 C10 1_555 1_555
C10 C5 1_555 1_555
C11 P1 1_555 1_555
C12 C11 1_555 1_555
C13 C12 1_555 1_555
C14 C13 1_555 1_555
C15 C14 1_555 1_555
C16 C11 1_555 1_555
C17 P1 1_555 1_555
C18 C17 1_555 1_555
C19 C18 1_555 1_555
C20 C19 1_555 1_555
C21 C20 1_555 1_555
C22 C17 1_555 1_555
C23 C24 1_555 1_555
C24 C25 1_555 1_555
C25 C26 1_555 1_555
C26 C27 1_555 1_555
C27 C28 1_555 1_555
C28 C23 1_555 1_555
C29 P2 1_555 1_555
C30 C29 1_555 1_555
C31 C30 1_555 1_555
C32 C31 1_555 1_555
C33 C32 1_555 1_555
C34 C29 1_555 1_555
C35 P2 1_555 1_555
C36 C35 1_555 1_555
C37 C36 1_555 1_555
C38 C37 1_555 1_555
C39 C38 1_555 1_555
C40 C35 1_555 1_555
H1 C1 1_555 1_555
H2 C2 1_555 1_555
H3 C3 1_555 1_555
H4 C4 1_555 1_555
H5 C6 1_555 1_555
H6 C7 1_555 1_555
H7 C8 1_555 1_555
H8 C9 1_555 1_555
H9 C10 1_555 1_555
H10 C12 1_555 1_555
H11 C13 1_555 1_555
H12 C14 1_555 1_555
H13 C15 1_555 1_555
H14 C16 1_555 1_555
H15 C18 1_555 1_555
H16 C19 1_555 1_555
H17 C20 1_555 1_555
H18 C21 1_555 1_555
H19 C22 1_555 1_555
H20 C24 1_555 1_555
H21 C25 1_555 1_555
H22 C26 1_555 1_555
H23 C27 1_555 1_555
H24 C28 1_555 1_555
H25 C30 1_555 1_555
H26 C31 1_555 1_555
H27 C32 1_555 1_555
H28 C33 1_555 1_555
H29 C34 1_555 1_555
H30 C36 1_555 1_555
H31 C37 1_555 1_555
H32 C38 1_555 1_555
H33 C39 1_555 1_555
H34 C40 1_555 1_555
I1A Cu1 1_555 1_555
I2A Cu2 1_555 1_555
Cu1A I1 1_555 1_555
Cu2A I2 1_555 1_555
N2 C1 1_555 1_555
C3 C4 1_555 1_555
C15 C16 1_555 1_555
C21 C22 1_555 1_555
C33 C34 1_555 1_555
C39 C40 1_555 1_555
I1A Cu1A 1_555 1_555
I2A Cu2A 1_555 1_555

#END
