
#######################################################################
#
#                 Cambridge Crystallographic Data Centre
#                                CCDC 
#
#######################################################################
#
# If this CIF has been generated from an entry in the Cambridge 
# Structural Database, then it will include bibliographic, chemical, 
# crystal, experimental, refinement or atomic coordinate data resulting 
# from the CCDC's data processing and validation procedures.
#
#######################################################################

data_REBSAU
_symmetry_cell_setting           monoclinic
_symmetry_space_group_name_H-M   'P 21/a'
_symmetry_Int_Tables_number      14
_space_group_name_Hall           '-P 2yab'
loop_
_symmetry_equiv_pos_site_id
_symmetry_equiv_pos_as_xyz
1 x,y,z
2 1/2-x,1/2+y,-z
3 -x,-y,-z
4 1/2+x,1/2-y,z
_cell_length_a                   15.05(1)
_cell_length_b                   9.701(6)
_cell_length_c                   27.03(3)
_cell_angle_alpha                90
_cell_angle_beta                 98.56(2)
_cell_angle_gamma                90
_cell_volume                     3902.42
loop_
_atom_site_label
_atom_site_type_symbol
_atom_site_fract_x
_atom_site_fract_y
_atom_site_fract_z
Br1 Br 1.36939(3) 0.11239(6) 0.73117(2)
Br2 Br 1.23845(4) 0.43755(6) 0.77444(2)
Cu1 Cu 1.22324(5) 0.24974(8) 0.71295(3)
Cu2 Cu 1.38761(5) 0.31243(7) 0.79220(2)
P1 P 1.21713(9) 0.3182(2) 0.63490(5)
P2 P 1.39204(9) 0.2314(2) 0.86936(5)
N1 N 1.1330(3) 0.1180(5) 0.7368(2)
N2 N 0.9907(3) 0.0871(4) 0.7651(2)
C1 C 1.0561(3) 0.1633(5) 0.7518(2)
C2 C 1.1455(4) -0.0202(6) 0.7345(2)
C3 C 1.0824(4) -0.1071(6) 0.7470(2)
C4 C 1.0942(4) -0.2555(6) 0.7444(2)
C5 C 1.0300(4) -0.3370(7) 0.7554(3)
C6 C 0.9528(4) -0.2862(6) 0.7724(3)
C7 C 0.9395(4) -0.1452(6) 0.7762(2)
C8 C 1.0035(4) -0.0547(6) 0.7625(2)
C9 C 1.1269(4) 0.4368(6) 0.6101(2)
C10 C 1.0497(4) 0.4348(6) 0.6324(2)
C11 C 0.9764(4) 0.5161(7) 0.6142(2)
C12 C 0.9801(4) 0.6024(7) 0.5735(3)
C13 C 1.0572(5) 0.6058(7) 0.5516(2)
C14 C 1.1303(4) 0.5255(7) 0.5698(2)
C15 C 1.3195(4) 0.4111(6) 0.6253(2)
C16 C 1.3325(4) 0.5440(7) 0.6448(2)
C17 C 1.4123(5) 0.6130(8) 0.6424(2)
C18 C 1.4802(5) 0.5501(8) 0.6215(3)
C19 C 1.4676(4) 0.4181(9) 0.6028(3)
C20 C 1.3884(4) 0.3451(7) 0.6048(2)
C21 C 1.2067(3) 0.1769(6) 0.5883(2)
C22 C 1.1755(4) 0.1956(7) 0.5379(2)
C23 C 1.1655(5) 0.0849(7) 0.5056(2)
C24 C 1.1867(5) -0.0488(7) 0.5235(3)
C25 C 1.2180(5) -0.0665(7) 0.5737(2)
C26 C 1.2280(4) 0.0454(6) 0.6058(2)
C27 C 1.3791(4) 0.3571(6) 0.9182(2)
C28 C 1.3471(4) 0.3240(6) 0.9624(2)
C29 C 1.3445(4) 0.4240(8) 0.9992(2)
C30 C 1.3740(4) 0.5541(7) 0.9926(2)
C31 C 1.4041(4) 0.5900(7) 0.9487(2)
C32 C 1.4061(4) 0.4927(6) 0.9110(2)
C33 C 1.3024(4) 0.1068(6) 0.8734(2)
C34 C 1.3178(4) -0.0352(6) 0.8726(2)
C35 C 1.2475(5) -0.1277(6) 0.8701(3)
C36 C 1.1606(4) -0.0814(7) 0.8694(2)
C37 C 1.1439(4) 0.0590(7) 0.8705(2)
C38 C 1.2146(4) 0.1527(6) 0.8721(2)
C39 C 1.4930(3) 0.1342(6) 0.8953(2)
C40 C 1.5369(4) 0.0625(6) 0.8610(2)
C41 C 1.6107(4) -0.0204(7) 0.8780(2)
C42 C 1.6415(4) -0.0297(7) 0.9291(2)
C43 C 1.5992(4) 0.0402(7) 0.9628(2)
C44 C 1.5245(4) 0.1219(7) 0.9461(2)
H1 H 1.0484 0.2604 0.7528
H2 H 1.1986 -0.0557 0.7241
H3 H 1.1474 -0.2932 0.7348
H4 H 1.0363 -0.4337 0.7518
H5 H 0.9092 -0.3486 0.7812
H6 H 0.8875 -0.1109 0.7881
H7 H 1.0469 0.3769 0.6604
H8 H 0.9236 0.5130 0.6295
H9 H 0.9301 0.6584 0.5609
H10 H 1.0599 0.6642 0.5237
H11 H 1.1835 0.5306 0.5549
H12 H 1.2865 0.5873 0.6597
H13 H 1.4204 0.7040 0.6552
H14 H 1.5351 0.5972 0.6201
H15 H 1.5143 0.3757 0.5881
H16 H 1.3814 0.2533 0.5926
H17 H 1.1607 0.2856 0.5255
H18 H 1.1443 0.0992 0.4711
H19 H 1.1795 -0.1256 0.5015
H20 H 1.2329 -0.1563 0.5863
H21 H 1.2498 0.0316 0.6403
H22 H 1.3270 0.2330 0.9675
H23 H 1.3220 0.4009 1.0292
H24 H 1.3738 0.6207 1.0184
H25 H 1.4237 0.6816 0.9440
H26 H 1.4257 0.5184 0.8804
H27 H 1.3774 -0.0685 0.8737
H28 H 1.2591 -0.2238 0.8690
H29 H 1.1125 -0.1454 0.8681
H30 H 1.0842 0.0914 0.8702
H31 H 1.2026 0.2488 0.8722
H32 H 1.5163 0.0705 0.8262
H33 H 1.6399 -0.0704 0.8548
H34 H 1.6924 -0.0852 0.9407
H35 H 1.6207 0.0331 0.9976
H36 H 1.4949 0.1696 0.9697
Cu2C Cu 0.88761(5) 0.18757(7) 0.79220(2)
N2C N 1.4907(3) 0.4129(4) 0.7651(2)
loop_
_geom_bond_atom_site_label_1
_geom_bond_atom_site_label_2
_geom_bond_site_symmetry_1
_geom_bond_site_symmetry_2
Br1 Cu1 1_555 1_555
Br2 Cu1 1_555 1_555
Cu1 P1 1_555 1_555
Cu2 Br1 1_555 1_555
P1 C9 1_555 1_555
P2 Cu2 1_555 1_555
N1 Cu1 1_555 1_555
N2 C1 1_555 1_555
C1 N1 1_555 1_555
C2 N1 1_555 1_555
C3 C2 1_555 1_555
C4 C3 1_555 1_555
C5 C4 1_555 1_555
C6 C5 1_555 1_555
C7 C6 1_555 1_555
C8 N2 1_555 1_555
C9 C10 1_555 1_555
C10 C11 1_555 1_555
C11 C12 1_555 1_555
C12 C13 1_555 1_555
C13 C14 1_555 1_555
C14 C9 1_555 1_555
C15 P1 1_555 1_555
C16 C15 1_555 1_555
C17 C16 1_555 1_555
C18 C17 1_555 1_555
C19 C18 1_555 1_555
C20 C15 1_555 1_555
C21 P1 1_555 1_555
C22 C21 1_555 1_555
C23 C22 1_555 1_555
C24 C23 1_555 1_555
C25 C24 1_555 1_555
C26 C21 1_555 1_555
C27 P2 1_555 1_555
C28 C27 1_555 1_555
C29 C28 1_555 1_555
C30 C29 1_555 1_555
C31 C30 1_555 1_555
C32 C27 1_555 1_555
C33 P2 1_555 1_555
C34 C33 1_555 1_555
C35 C34 1_555 1_555
C36 C35 1_555 1_555
C37 C36 1_555 1_555
C38 C33 1_555 1_555
C39 P2 1_555 1_555
C40 C39 1_555 1_555
C41 C40 1_555 1_555
C42 C41 1_555 1_555
C43 C42 1_555 1_555
C44 C39 1_555 1_555
H1 C1 1_555 1_555
H2 C2 1_555 1_555
H3 C4 1_555 1_555
H4 C5 1_555 1_555
H5 C6 1_555 1_555
H6 C7 1_555 1_555
H7 C10 1_555 1_555
H8 C11 1_555 1_555
H9 C12 1_555 1_555
H10 C13 1_555 1_555
H11 C14 1_555 1_555
H12 C16 1_555 1_555
H13 C17 1_555 1_555
H14 C18 1_555 1_555
H15 C19 1_555 1_555
H16 C20 1_555 1_555
H17 C22 1_555 1_555
H18 C23 1_555 1_555
H19 C24 1_555 1_555
H20 C25 1_555 1_555
H21 C26 1_555 1_555
H22 C28 1_555 1_555
H23 C29 1_555 1_555
H24 C30 1_555 1_555
H25 C31 1_555 1_555
H26 C32 1_555 1_555
H27 C34 1_555 1_555
H28 C35 1_555 1_555
H29 C36 1_555 1_555
H30 C37 1_555 1_555
H31 C38 1_555 1_555
H32 C40 1_555 1_555
H33 C41 1_555 1_555
H34 C42 1_555 1_555
H35 C43 1_555 1_555
H36 C44 1_555 1_555
Cu2C N2 1_555 1_555
N2C Cu2 1_555 1_555
Br2 Cu2 1_555 1_555
C3 C8 1_555 1_555
C7 C8 1_555 1_555
C19 C20 1_555 1_555
C25 C26 1_555 1_555
C31 C32 1_555 1_555
C37 C38 1_555 1_555
C43 C44 1_555 1_555

#END
