
#######################################################################
#
#                 Cambridge Crystallographic Data Centre
#                                CCDC 
#
#######################################################################
#
# If this CIF has been generated from an entry in the Cambridge 
# Structural Database, then it will include bibliographic, chemical, 
# crystal, experimental, refinement or atomic coordinate data resulting 
# from the CCDC's data processing and validation procedures.
#
#######################################################################

data_RECHUD
_symmetry_cell_setting           monoclinic
_symmetry_space_group_name_H-M   'P 21/c'
_symmetry_Int_Tables_number      14
_space_group_name_Hall           '-P 2ybc'
loop_
_symmetry_equiv_pos_site_id
_symmetry_equiv_pos_as_xyz
1 x,y,z
2 -x,1/2+y,1/2-z
3 -x,-y,-z
4 x,1/2-y,1/2+z
_cell_length_a                   10.3342(7)
_cell_length_b                   14.2812(9)
_cell_length_c                   18.9471(13)
_cell_angle_alpha                90
_cell_angle_beta                 101.8000(10)
_cell_angle_gamma                90
_cell_volume                     2737.21
loop_
_atom_site_label
_atom_site_type_symbol
_atom_site_fract_x
_atom_site_fract_y
_atom_site_fract_z
Ag1 Ag 0.183582(18) 0.429199(13) 0.329283(10)
S1 S 0.34936(6) 0.56468(5) 0.36622(4)
S2 S 0.72780(6) 0.77891(5) 0.21912(3)
S3 S -0.01676(6) 0.51404(4) 0.24178(3)
S4 S -0.05165(6) 0.87708(4) 0.07378(3)
C1 C 0.4739(2) 0.66544(16) 0.24349(12)
H1 H 0.4979 0.6655 0.1955
H2 H 0.3770 0.6571 0.2361
C2 C 0.0492(2) 0.67500(18) 0.13709(12)
H3 H 0.1125 0.7177 0.1206
H4 H 0.0790 0.6100 0.1316
C3 C 0.4909(2) 0.54022(17) 0.33735(12)
C4 C 0.6861(2) 0.48012(19) 0.32724(14)
H5 H 0.7624 0.4414 0.3353
C5 C 0.6601(2) 0.55008(18) 0.27934(14)
H6 H 0.7143 0.5704 0.2474
C6 C 0.5721(3) 0.40685(19) 0.41890(15)
H7 H 0.5601 0.4401 0.4623
H8 H 0.6532 0.3694 0.4300
H9 H 0.4963 0.3656 0.4021
C7 C 0.6181(2) 0.80585(17) 0.27163(12)
C8 C 0.5113(2) 0.87660(18) 0.34857(12)
H10 H 0.4891 0.9213 0.3813
C9 C 0.4437(2) 0.79851(17) 0.32581(13)
H11 H 0.3656 0.7771 0.3397
C10 C 0.7249(3) 0.94924(19) 0.33166(14)
H12 H 0.8105 0.9171 0.3420
H13 H 0.7147 0.9864 0.3737
H14 H 0.7206 0.9906 0.2900
C11 C 0.0222(2) 0.62797(17) 0.26005(12)
C12 C 0.0726(2) 0.76508(17) 0.31669(13)
H15 H 0.0883 0.8109 0.3538
C13 C 0.0833(2) 0.77738(17) 0.24796(12)
H16 H 0.1079 0.8335 0.2272
C14 C 0.0110(3) 0.63165(18) 0.39019(12)
H17 H -0.0662 0.5904 0.3792
H18 H -0.0051 0.6813 0.4231
H19 H 0.0888 0.5952 0.4130
C15 C -0.1261(2) 0.77084(17) 0.06117(12)
C16 C -0.2742(3) 0.65734(19) 0.02488(13)
H20 H -0.3526 0.6265 0.0013
C17 C -0.1714(3) 0.61782(19) 0.06921(13)
H21 H -0.1629 0.5537 0.0827
C18 C -0.3277(3) 0.82092(19) -0.02481(14)
H22 H -0.3252 0.8797 0.0021
H23 H -0.4190 0.7981 -0.0374
H24 H -0.2944 0.8317 -0.0690
N1 N 0.53913(18) 0.58704(13) 0.28533(10)
N2 N 0.58217(19) 0.47431(15) 0.36275(11)
N3 N 0.50953(18) 0.75493(14) 0.27811(10)
N4 N 0.61912(19) 0.88022(14) 0.31576(10)
N5 N 0.05167(18) 0.69284(13) 0.21297(10)
N6 N 0.03443(19) 0.67350(14) 0.32353(10)
N7 N -0.08005(19) 0.68773(14) 0.09173(10)
N8 N -0.2455(2) 0.75151(14) 0.01951(10)
Ag1A Ag 0.816418(18) 0.929199(13) 0.170717(10)
Ag1A_2 Ag -0.183582(18) 0.929199(13) 0.170717(10)
S2A S 0.27220(6) 0.27891(5) 0.28088(3)
S4A S 0.05165(6) 0.37708(4) 0.42622(3)
P1 P 0.29765(6) 0.85862(5) 0.50992(3)
F1 F 0.17999(15) 0.92386(12) 0.52344(8)
F2 F 0.32179(14) 0.82404(12) 0.59198(7)
F3 F 0.39891(17) 0.94228(12) 0.53267(10)
F4 F 0.41470(17) 0.79348(12) 0.49689(9)
F5 F 0.27313(16) 0.89340(12) 0.42800(8)
F6 F 0.19561(17) 0.77571(12) 0.48799(8)
loop_
_geom_bond_atom_site_label_1
_geom_bond_atom_site_label_2
_geom_bond_site_symmetry_1
_geom_bond_site_symmetry_2
Ag1 S1 1_555 1_555
S1 C3 1_555 1_555
S2 C7 1_555 1_555
S3 Ag1 1_555 1_555
S4 C15 1_555 1_555
C1 H1 1_555 1_555
H2 C1 1_555 1_555
C2 H3 1_555 1_555
H4 C2 1_555 1_555
C3 N1 1_555 1_555
C4 H5 1_555 1_555
C5 C4 1_555 1_555
H6 C5 1_555 1_555
C6 H7 1_555 1_555
H8 C6 1_555 1_555
H9 C6 1_555 1_555
C7 N3 1_555 1_555
C8 H10 1_555 1_555
C9 C8 1_555 1_555
H11 C9 1_555 1_555
C10 H12 1_555 1_555
H13 C10 1_555 1_555
H14 C10 1_555 1_555
C11 S3 1_555 1_555
C12 H15 1_555 1_555
C13 C12 1_555 1_555
H16 C13 1_555 1_555
C14 H17 1_555 1_555
H18 C14 1_555 1_555
H19 C14 1_555 1_555
C15 N7 1_555 1_555
C16 H20 1_555 1_555
C17 C16 1_555 1_555
H21 C17 1_555 1_555
C18 H22 1_555 1_555
H23 C18 1_555 1_555
H24 C18 1_555 1_555
N1 C1 1_555 1_555
N2 C3 1_555 1_555
N3 C1 1_555 1_555
N4 C7 1_555 1_555
N5 C2 1_555 1_555
N6 C11 1_555 1_555
N7 C2 1_555 1_555
N8 C15 1_555 1_555
P1 F1 1_555 1_555
F2 P1 1_555 1_555
F3 P1 1_555 1_555
F4 P1 1_555 1_555
F5 P1 1_555 1_555
F6 P1 1_555 1_555
Ag1A S2 1_555 1_555
Ag1A_2 S4 1_555 1_555
S2A Ag1 1_555 1_555
S4A Ag1 1_555 1_555
C4 N2 1_555 1_555
C5 N1 1_555 1_555
C6 N2 1_555 1_555
C8 N4 1_555 1_555
C9 N3 1_555 1_555
C10 N4 1_555 1_555
C11 N5 1_555 1_555
C12 N6 1_555 1_555
C13 N5 1_555 1_555
C14 N6 1_555 1_555
C16 N8 1_555 1_555
C17 N7 1_555 1_555
C18 N8 1_555 1_555

#END
