
#######################################################################
#
#                 Cambridge Crystallographic Data Centre
#                                CCDC 
#
#######################################################################
#
# If this CIF has been generated from an entry in the Cambridge 
# Structural Database, then it will include bibliographic, chemical, 
# crystal, experimental, refinement or atomic coordinate data resulting 
# from the CCDC's data processing and validation procedures.
#
#######################################################################

data_RECTAU
_symmetry_cell_setting           triclinic
_symmetry_space_group_name_H-M   'P -1'
_symmetry_Int_Tables_number      2
_space_group_name_Hall           '-P 1'
loop_
_symmetry_equiv_pos_site_id
_symmetry_equiv_pos_as_xyz
1 x,y,z
2 -x,-y,-z
_cell_length_a                   7.2966(8)
_cell_length_b                   7.4289(8)
_cell_length_c                   14.060(2)
_cell_angle_alpha                76.112(2)
_cell_angle_beta                 87.242(2)
_cell_angle_gamma                71.891(2)
_cell_volume                     702.916
loop_
_atom_site_label
_atom_site_type_symbol
_atom_site_fract_x
_atom_site_fract_y
_atom_site_fract_z
Mn1 Mn 1.0000 0.0000 1.0000
O1 O 0.9147(6) 0.3122(6) 0.9374(3)
N1 N 0.8543(7) -0.0490(7) 0.8780(3)
N2 N 0.2593(6) -0.0098(7) 0.9137(3)
N3 N 0.7783(8) -0.4028(8) 0.3530(4)
N4 N 0.1613(8) -0.2254(8) 0.3798(4)
C1 C 0.5357(7) -0.1213(7) 0.7115(3)
C2 C 0.6969(7) -0.1907(7) 0.6582(4)
C3 C 0.6842(8) -0.2700(7) 0.5805(4)
C4 C 0.5066(8) -0.2748(7) 0.5511(4)
C5 C 0.3412(8) -0.1896(8) 0.5984(4)
C6 C 0.3557(7) -0.1128(8) 0.6763(4)
C7 C 0.5477(7) -0.0578(7) 0.8013(3)
C8 C 0.7205(7) -0.0554(7) 0.8408(3)
C9 C 0.3903(8) -0.0294(8) 0.8633(4)
C10 C 0.4928(8) -0.3850(8) 0.4746(4)
C11 C 0.6515(8) -0.3922(8) 0.4047(4)
C12 C 0.3072(9) -0.2958(8) 0.4187(4)
C13 C 0.8873(9) 0.4025(9) 0.8344(4)
H1 H 0.8562(92) 0.4020(97) 0.9703(48)
H3 H 0.8155(7) -0.1833(7) 0.6753(4)
H4 H 0.7948(8) -0.3206(7) 0.5476(4)
H5 H 0.2207(8) -0.1849(8) 0.5770(4)
H6 H 0.2442(7) -0.0541(8) 0.7063(4)
H7 H 0.9174(53) 0.5230(28) 0.8213(6)
H8 H 0.7555(16) 0.4280(51) 0.8151(7)
H9 H 0.9707(40) 0.3170(25) 0.7980(4)
C10A C 0.5072(8) -0.6150(8) 0.5254(4)
C4A C 0.4934(8) -0.7252(7) 0.4489(4)
C3A C 0.3158(8) -0.7300(7) 0.4195(4)
C2A C 0.3031(7) -0.8093(7) 0.3418(4)
C1A C 0.4643(7) -0.8787(7) 0.2885(3)
C6A C 0.6443(7) -0.8872(8) 0.3237(4)
C5A C 0.6588(8) -0.8104(8) 0.4016(4)
H5A H 0.7793(8) -0.8151(8) 0.4230(4)
H6A H 0.7558(7) -0.9459(8) 0.2937(4)
C7A C 0.4523(7) -0.9422(7) 0.1987(3)
C8A C 0.2795(7) -0.9446(7) 0.1592(3)
N1A N 0.1457(7) -0.9510(7) 0.1220(3)
C9A C 0.6097(8) -0.9706(8) 0.1367(4)
N2A N 0.7407(6) -0.9902(7) 0.0863(3)
H3A H 0.1845(7) -0.8167(7) 0.3247(4)
H4A H 0.2052(8) -0.6794(7) 0.4524(4)
C11A C 0.3485(8) -0.6078(8) 0.5953(4)
N3A N 0.2217(8) -0.5972(8) 0.6470(4)
C12A C 0.6928(9) -0.7042(8) 0.5813(4)
N4A N 0.8387(8) -0.7746(8) 0.6202(4)
O1A O 1.0853(6) -0.3122(6) 1.0626(3)
C13A C 1.1127(9) -0.4025(9) 1.1656(4)
H1A H 1.1438(92) -0.4020(97) 1.0297(48)
H7A H 1.0826(53) -0.5230(28) 1.1787(6)
H8A H 1.2445(16) -0.4280(51) 1.1849(7)
H9A H 1.0293(40) -0.3170(25) 1.2020(4)
N1A_2 N 1.1457(7) 0.0490(7) 1.1220(3)
N2_2 N 1.2593(6) -0.0098(7) 0.9137(3)
N2A_2 N 0.7407(6) 0.0098(7) 1.0863(3)
Mn1_2 Mn 0.0000 0.0000 1.0000
Mn1_3 Mn 0.0000 -1.0000 0.0000
Mn1_4 Mn 1.0000 -1.0000 0.0000
O2 O 0.7350(6) 0.5807(7) 1.0312(3)
C14 C 0.6118(11) 0.5562(12) 1.1096(5)
H2 H 0.784(12) 0.678(13) 1.0344(62)
H10 H 0.6835(17) 0.5196(65) 1.1704(5)
H11 H 0.5575(52) 0.4558(47) 1.1056(20)
H12 H 0.5100(38) 0.6763(22) 1.1064(19)
loop_
_geom_bond_atom_site_label_1
_geom_bond_atom_site_label_2
_geom_bond_site_symmetry_1
_geom_bond_site_symmetry_2
Mn1 O1 1_555 1_555
O1 C13 1_555 1_555
O2 C14 1_555 1_555
N1 Mn1 1_555 1_555
N2 C9 1_555 1_555
N3 C11 1_555 1_555
N4 C12 1_555 1_555
C1 C2 1_555 1_555
C2 C3 1_555 1_555
C3 C4 1_555 1_555
C4 C5 1_555 1_555
C5 C6 1_555 1_555
C6 C1 1_555 1_555
C7 C1 1_555 1_555
C8 N1 1_555 1_555
C9 C7 1_555 1_555
C10 C4 1_555 1_555
C11 C10 1_555 1_555
C12 C10 1_555 1_555
C13 H7 1_555 1_555
C14 H10 1_555 1_555
H1 O1 1_555 1_555
H2 O2 1_555 1_555
H3 C2 1_555 1_555
H4 C3 1_555 1_555
H5 C5 1_555 1_555
H6 C6 1_555 1_555
H8 C13 1_555 1_555
H9 C13 1_555 1_555
H11 C14 1_555 1_555
H12 C14 1_555 1_555
C10A C10 1_555 1_555
C4A C10A 1_555 1_555
C3A C4A 1_555 1_555
C2A C3A 1_555 1_555
C1A C2A 1_555 1_555
C6A C1A 1_555 1_555
C5A C4A 1_555 1_555
H5A C5A 1_555 1_555
H6A C6A 1_555 1_555
C7A C1A 1_555 1_555
C8A C7A 1_555 1_555
N1A C8A 1_555 1_555
C9A C7A 1_555 1_555
N2A C9A 1_555 1_555
H3A C2A 1_555 1_555
H4A C3A 1_555 1_555
C11A C10A 1_555 1_555
N3A C11A 1_555 1_555
C12A C10A 1_555 1_555
N4A C12A 1_555 1_555
O1A Mn1 1_555 1_555
C13A O1A 1_555 1_555
H1A O1A 1_555 1_555
H7A C13A 1_555 1_555
H8A C13A 1_555 1_555
H9A C13A 1_555 1_555
N1A_2 Mn1 1_555 1_555
N2_2 Mn1 1_555 1_555
N2A_2 Mn1 1_555 1_555
Mn1_2 N2 1_555 1_555
Mn1_3 N1A 1_555 1_555
Mn1_4 N2A 1_555 1_555
C7 C8 1_555 1_555
C6A C5A 1_555 1_555

#END
