
#######################################################################
#
#                 Cambridge Crystallographic Data Centre
#                                CCDC 
#
#######################################################################
#
# If this CIF has been generated from an entry in the Cambridge 
# Structural Database, then it will include bibliographic, chemical, 
# crystal, experimental, refinement or atomic coordinate data resulting 
# from the CCDC's data processing and validation procedures.
#
#######################################################################

data_REDBEI
_symmetry_cell_setting           orthorhombic
_symmetry_space_group_name_H-M   'P b c n'
_symmetry_Int_Tables_number      60
_space_group_name_Hall           '-P 2n 2ab'
loop_
_symmetry_equiv_pos_site_id
_symmetry_equiv_pos_as_xyz
1 x,y,z
2 1/2-x,1/2-y,1/2+z
3 -x,y,1/2-z
4 1/2+x,1/2-y,-z
5 -x,-y,-z
6 1/2+x,1/2+y,1/2-z
7 x,-y,1/2+z
8 1/2-x,1/2+y,z
_cell_length_a                   12.529(4)
_cell_length_b                   7.131(3)
_cell_length_c                   31.914(6)
_cell_angle_alpha                90
_cell_angle_beta                 90
_cell_angle_gamma                90
_cell_volume                     2851.33
loop_
_atom_site_label
_atom_site_type_symbol
_atom_site_fract_x
_atom_site_fract_y
_atom_site_fract_z
K1 K 0.38225(5) 0.68878(7) 0.291907(17)
K2 K 0.74104(5) 0.67451(7) 0.330475(17)
P1 P 0.11329(6) 0.67977(9) 0.32176(2)
O1 O 0.21758(15) 0.6882(3) 0.35388(5)
O2 O 0.16927(16) 0.6612(2) 0.28010(6)
O3 O 0.04978(15) 0.5082(2) 0.33363(6)
O4 O 0.05414(15) 0.8632(2) 0.32710(6)
C1 C 0.2133(2) 0.7337(3) 0.39531(8)
C2 C 0.3113(3) 0.7623(4) 0.41507(10)
H1 H 0.370(3) 0.748(5) 0.3975(11)
C3 C 0.3137(3) 0.8142(4) 0.45679(10)
H2 H 0.383(3) 0.832(5) 0.4678(12)
C4 C 0.2188(3) 0.8371(4) 0.47811(9)
C5 C 0.1216(3) 0.8045(4) 0.45954(9)
H3 H 0.060(3) 0.823(5) 0.4752(11)
C6 C 0.1185(3) 0.7508(4) 0.41789(9)
H4 H 0.051(3) 0.725(4) 0.4048(10)
N1 N 0.2205(4) 0.9027(4) 0.52151(9)
O5 O 0.3090(3) 0.9265(4) 0.53798(8)
O6 O 0.1351(3) 0.9335(4) 0.53929(8)
O7 O 0.61649(18) 0.9143(3) 0.28111(7)
H5 H 0.570(4) 0.949(6) 0.2987(14)
H6 H 0.625(4) 0.987(7) 0.2616(17)
O8 O 0.37678(19) 0.4364(3) 0.22263(7)
H7 H 0.428(3) 0.407(5) 0.2087(11)
H8 H 0.363(3) 0.359(5) 0.2405(12)
O9 O 0.8753(2) 0.4123(3) 0.37927(8)
H9 H 0.867(3) 0.437(6) 0.4021(14)
H10 H 0.937(3) 0.442(5) 0.3702(11)
O10 O 0.62470(19) 0.4091(3) 0.37481(7)
H11 H 0.621(3) 0.440(5) 0.3956(12)
H12 H 0.564(3) 0.403(5) 0.3625(13)
K1B K 0.61775(5) 0.68878(7) 0.208093(17)
K1G K 0.11775(5) 0.18878(7) 0.291907(17)
K1G_2 K 0.11775(5) 1.18878(7) 0.291907(17)
K2B K 0.25896(5) 0.67451(7) 0.169525(17)
K2G K 0.75896(5) 0.17451(7) 0.330475(17)
K2G_2 K 0.75896(5) 1.17451(7) 0.330475(17)
K2E K 0.24104(5) 0.17451(7) 0.169525(17)
O3G O 0.45022(15) 1.0082(2) 0.33363(6)
O4G O 0.44586(15) 0.3632(2) 0.32710(6)
O7B O 0.38351(18) 0.9143(3) 0.21889(7)
O7G O 0.88351(18) 0.4143(3) 0.28111(7)
H5B H 0.430(4) 0.949(6) 0.2013(14)
H5G H 0.930(4) 0.449(6) 0.2987(14)
H6B H 0.375(4) 0.987(7) 0.2384(17)
H6G H 0.875(4) 0.487(7) 0.2616(17)
O8E O 0.87678(19) 0.9364(3) 0.27737(7)
O8B O 0.62322(19) 0.4364(3) 0.27737(7)
H7E H 0.928(3) 0.907(5) 0.2913(11)
H7B H 0.572(3) 0.407(5) 0.2913(11)
H8E H 0.863(3) 0.859(5) 0.2595(12)
H8B H 0.637(3) 0.359(5) 0.2595(12)
O9G O 0.6247(2) 0.9123(3) 0.37927(8)
H9G H 0.633(3) 0.937(6) 0.4021(14)
H10G H 0.563(3) 0.942(5) 0.3702(11)
O10G O 0.87530(19) 0.9091(3) 0.37481(7)
H11G H 0.879(3) 0.940(5) 0.3956(12)
H12G H 0.936(3) 0.903(5) 0.3625(13)
loop_
_geom_bond_atom_site_label_1
_geom_bond_atom_site_label_2
_geom_bond_site_symmetry_1
_geom_bond_site_symmetry_2
K1 O1 1_555 1_555
K2 O7 1_555 1_555
P1 O1 1_555 1_555
O1 C1 1_555 1_555
O2 K1 1_555 1_555
O3 P1 1_555 1_555
O4 P1 1_555 1_555
C1 C2 1_555 1_555
C2 H1 1_555 1_555
C3 C2 1_555 1_555
H2 C3 1_555 1_555
C4 C3 1_555 1_555
C5 C4 1_555 1_555
H3 C5 1_555 1_555
C6 C1 1_555 1_555
H4 C6 1_555 1_555
N1 C4 1_555 1_555
O5 N1 1_555 1_555
O6 N1 1_555 1_555
O7 K1 1_555 1_555
H5 O7 1_555 1_555
H6 O7 1_555 1_555
O8 K1 1_555 1_555
H7 O8 1_555 1_555
H8 O8 1_555 1_555
O9 K2 1_555 1_555
H9 O9 1_555 1_555
H10 O9 1_555 1_555
O10 K2 1_555 1_555
H11 O10 1_555 1_555
H12 O10 1_555 1_555
K1B O7 1_555 1_555
K1G O3 1_555 1_555
K1G_2 O4 1_555 1_555
K2B O8 1_555 1_555
K2G O9 1_555 1_555
K2G_2 O7 1_555 1_555
K2E O8 1_555 1_555
O3G K1 1_555 1_555
O4G K1 1_555 1_555
O7B K1 1_555 1_555
O7G K2 1_555 1_555
H5B O7B 1_555 1_555
H5G O7G 1_555 1_555
H6B O7B 1_555 1_555
H6G O7G 1_555 1_555
O8E K2 1_555 1_555
O8B K2 1_555 1_555
H7E O8E 1_555 1_555
H7B O8B 1_555 1_555
H8E O8E 1_555 1_555
H8B O8B 1_555 1_555
O9G K2 1_555 1_555
H9G O9G 1_555 1_555
H10G O9G 1_555 1_555
O10G K2 1_555 1_555
H11G O10G 1_555 1_555
H12G O10G 1_555 1_555
P1 O2 1_555 1_555
C5 C6 1_555 1_555
O10 K2G 1_555 1_555
K1B O7B 1_555 1_555
K1B O8B 1_555 1_555
K2B O7B 1_555 1_555
K2G O7G 1_555 1_555
K2G O8B 1_555 1_555
K2G_2 O8E 1_555 1_555
K2G_2 O9G 1_555 1_555
K2G_2 O10G 1_555 1_555

#END
