
#######################################################################
#
#                 Cambridge Crystallographic Data Centre
#                                CCDC 
#
#######################################################################
#
# If this CIF has been generated from an entry in the Cambridge 
# Structural Database, then it will include bibliographic, chemical, 
# crystal, experimental, refinement or atomic coordinate data resulting 
# from the CCDC's data processing and validation procedures.
#
#######################################################################

data_REDBAE
_symmetry_cell_setting           monoclinic
_symmetry_space_group_name_H-M   'P 21/c'
_symmetry_Int_Tables_number      14
_space_group_name_Hall           '-P 2ybc'
loop_
_symmetry_equiv_pos_site_id
_symmetry_equiv_pos_as_xyz
1 x,y,z
2 -x,1/2+y,1/2-z
3 -x,-y,-z
4 x,1/2-y,1/2+z
_cell_length_a                   12.580(3)
_cell_length_b                   6.743(2)
_cell_length_c                   13.316(3)
_cell_angle_alpha                90
_cell_angle_beta                 93.89(3)
_cell_angle_gamma                90
_cell_volume                     1126.95
loop_
_atom_site_label
_atom_site_type_symbol
_atom_site_fract_x
_atom_site_fract_y
_atom_site_fract_z
K1 K 0.900095(17) 0.83834(3) 0.564855(15)
P1 P 0.818030(19) 1.02253(3) 0.268690(17)
O1 O 0.70393(6) 0.91296(11) 0.24073(5)
O2 O 0.86545(6) 0.87709(11) 0.35193(5)
H1 H 0.8801(17) 0.772(3) 0.3252(16)
O3 O 0.88051(6) 1.01388(10) 0.17650(5)
O4 O 0.79994(6) 1.22023(10) 0.31490(5)
C1 C 0.61881(7) 0.99383(14) 0.18603(7)
C2 C 0.52714(7) 0.87523(14) 0.17870(7)
H2 H 0.5318(12) 0.746(2) 0.2091(12)
C3 C 0.43375(8) 0.94559(14) 0.13004(7)
H3 H 0.3716(13) 0.871(2) 0.1274(12)
C4 C 0.43512(7) 1.13333(14) 0.08677(7)
C5 C 0.52654(8) 1.24996(15) 0.09000(7)
H4 H 0.5260(13) 1.372(2) 0.0574(12)
C6 C 0.61957(8) 1.17959(14) 0.13996(7)
H5 H 0.6821(12) 1.263(2) 0.1449(11)
N1 N 0.33750(7) 1.20668(13) 0.03463(6)
O5 O 0.25953(6) 1.09599(12) 0.02753(6)
O6 O 0.33636(7) 1.37549(12) -0.00160(6)
O7 O 0.90852(6) 0.95285(11) 0.76930(6)
H6 H 0.9774(15) 0.978(3) 0.7852(13)
H7 H 0.8720(16) 1.057(3) 0.7853(14)
O8 O 1.09555(6) 0.76765(12) 0.48782(6)
H8 H 1.1380(15) 0.754(3) 0.5341(14)
H9 H 1.1084(14) 0.685(3) 0.4410(14)
K1B K 1.099905(17) 1.16166(3) 0.435145(15)
K1C K 0.900095(17) 0.66166(3) 0.064855(15)
K1A K 0.099905(17) 1.33834(3) -0.064855(15)
O3C O 0.88051(6) 0.48612(10) 0.67650(5)
O5A O 0.74047(6) 0.59599(12) 0.47247(6)
O6A O 0.66364(7) 0.87549(12) 0.50160(6)
O8B O 0.90445(6) 1.23235(12) 0.51218(6)
H8B H 0.8620(15) 1.246(3) 0.4659(14)
H9B H 0.8916(14) 1.315(3) 0.5590(14)
loop_
_geom_bond_atom_site_label_1
_geom_bond_atom_site_label_2
_geom_bond_site_symmetry_1
_geom_bond_site_symmetry_2
K1 O2 1_555 1_555
P1 O1 1_555 1_555
O1 C1 1_555 1_555
O2 P1 1_555 1_555
H1 O2 1_555 1_555
O3 P1 1_555 1_555
O4 P1 1_555 1_555
C1 C2 1_555 1_555
C2 H2 1_555 1_555
C3 C2 1_555 1_555
H3 C3 1_555 1_555
C4 C3 1_555 1_555
C5 C4 1_555 1_555
H4 C5 1_555 1_555
C6 C1 1_555 1_555
H5 C6 1_555 1_555
N1 C4 1_555 1_555
O5 N1 1_555 1_555
O6 N1 1_555 1_555
O7 K1 1_555 1_555
H6 O7 1_555 1_555
H7 O7 1_555 1_555
O8 K1 1_555 1_555
H8 O8 1_555 1_555
H9 O8 1_555 1_555
K1B O8 1_555 1_555
K1C O3 1_555 1_555
K1A O5 1_555 1_555
O3C K1 1_555 1_555
O5A K1 1_555 1_555
O6A K1 1_555 1_555
O8B K1 1_555 1_555
H8B O8B 1_555 1_555
H9B O8B 1_555 1_555
C5 C6 1_555 1_555
O6 K1A 1_555 1_555
K1B O8B 1_555 1_555

#END
