
#######################################################################
#
#                 Cambridge Crystallographic Data Centre
#                                CCDC 
#
#######################################################################
#
# If this CIF has been generated from an entry in the Cambridge 
# Structural Database, then it will include bibliographic, chemical, 
# crystal, experimental, refinement or atomic coordinate data resulting 
# from the CCDC's data processing and validation procedures.
#
#######################################################################

data_REDRIC
_symmetry_cell_setting           orthorhombic
_symmetry_space_group_name_H-M   'P n a 21'
_symmetry_Int_Tables_number      33
_space_group_name_Hall           'P 2c -2n'
loop_
_symmetry_equiv_pos_site_id
_symmetry_equiv_pos_as_xyz
1 x,y,z
2 -x,-y,1/2+z
3 1/2+x,1/2-y,z
4 1/2-x,1/2+y,1/2+z
_cell_length_a                   14.583(5)
_cell_length_b                   14.147(5)
_cell_length_c                   7.402(3)
_cell_angle_alpha                90
_cell_angle_beta                 90
_cell_angle_gamma                90
_cell_volume                     1527.07
loop_
_atom_site_label
_atom_site_type_symbol
_atom_site_fract_x
_atom_site_fract_y
_atom_site_fract_z
Ni1 Ni 0.82674(4) 0.76606(4) 0.2125(2)
N1 N 0.9070(3) 0.8874(3) 0.2152(15)
N2 N 1.1522(3) 1.0757(4) 0.2297(16)
N3 N 0.8847(5) 1.1701(5) 0.0148(11)
N4 N 0.9128(5) 0.7111(7) 0.0090(11)
N5 N 1.0852(4) 0.5089(4) -0.2982(18)
N6 N 0.8996(6) 0.7089(7) -0.5763(11)
N7 N 0.7487(3) 0.6445(3) 0.1785(7)
H1 H 0.7858 0.5948 0.1586
H2 H 0.7161 0.6331 0.2794
N8 N 0.7351(5) 0.8217(6) 0.0246(8)
H3 H 0.7672 0.8480 -0.0680
N9 N 0.7369(5) 0.8322(6) 0.3925(9)
H4 H 0.7043 0.7879 0.4515
H5 H 0.7695 0.8648 0.4748
C1 C 0.9447(3) 0.9562(4) 0.1921(15)
C2 C 1.0782(4) 1.0619(4) 0.1968(16)
C3 C 0.9306(5) 1.1142(5) 0.0778(11)
C4 C 0.9373(6) 0.6792(8) -0.1254(13)
C5 C 1.0312(4) 0.5671(4) -0.2939(17)
C6 C 0.9298(5) 0.6762(7) -0.4504(12)
C7 C 0.9846(4) 1.0446(4) 0.1579(8)
C8 C 0.9649(3) 0.6397(3) -0.2905(15)
C9 C 0.6868(7) 0.6566(7) 0.0259(14)
H6 H 0.7064 0.6140 -0.0693
H7 H 0.6261 0.6365 0.0636
C10 C 0.6794(7) 0.7438(7) -0.0453(17)
H8 H 0.6157 0.7626 -0.0344
H9 H 0.6924 0.7384 -0.1734
C11 C 0.6842(10) 0.8928(11) 0.1121(19)
H10 H 0.7104 0.9528 0.0756
H11 H 0.6227 0.8906 0.0622
C12 C 0.6747(8) 0.8958(10) 0.3008(16)
H12 H 0.6122 0.8794 0.3326
H13 H 0.6860 0.9598 0.3423
Ni1_2 Ni 0.82674(4) 0.76606(4) -0.7875(2)
N6_2 N 0.8996(6) 0.7089(7) 0.4237(11)
loop_
_geom_bond_atom_site_label_1
_geom_bond_atom_site_label_2
_geom_bond_site_symmetry_1
_geom_bond_site_symmetry_2
Ni1 N1 1_555 1_555
N1 C1 1_555 1_555
N2 C2 1_555 1_555
N3 C3 1_555 1_555
N4 Ni1 1_555 1_555
N5 C5 1_555 1_555
N6 C6 1_555 1_555
N7 Ni1 1_555 1_555
H1 N7 1_555 1_555
H2 N7 1_555 1_555
N8 Ni1 1_555 1_555
H3 N8 1_555 1_555
N9 Ni1 1_555 1_555
H4 N9 1_555 1_555
H5 N9 1_555 1_555
C1 C7 1_555 1_555
C2 C7 1_555 1_555
C3 C7 1_555 1_555
C4 N4 1_555 1_555
C5 C8 1_555 1_555
C6 C8 1_555 1_555
C8 C4 1_555 1_555
C9 N7 1_555 1_555
H6 C9 1_555 1_555
H7 C9 1_555 1_555
C10 N8 1_555 1_555
H8 C10 1_555 1_555
H9 C10 1_555 1_555
C11 N8 1_555 1_555
H10 C11 1_555 1_555
H11 C11 1_555 1_555
C12 N9 1_555 1_555
H12 C12 1_555 1_555
H13 C12 1_555 1_555
Ni1_2 N6 1_555 1_555
N6_2 Ni1 1_555 1_555
C9 C10 1_555 1_555
C11 C12 1_555 1_555

#END
