
#######################################################################
#
#                 Cambridge Crystallographic Data Centre
#                                CCDC 
#
#######################################################################
#
# If this CIF has been generated from an entry in the Cambridge 
# Structural Database, then it will include bibliographic, chemical, 
# crystal, experimental, refinement or atomic coordinate data resulting 
# from the CCDC's data processing and validation procedures.
#
#######################################################################

data_REDSEZ02
_symmetry_cell_setting           triclinic
_symmetry_space_group_name_H-M   'P -1'
_symmetry_Int_Tables_number      2
_space_group_name_Hall           '-P 1'
loop_
_symmetry_equiv_pos_site_id
_symmetry_equiv_pos_as_xyz
1 x,y,z
2 -x,-y,-z
_cell_length_a                   11.250(14)
_cell_length_b                   14.475(17)
_cell_length_c                   17.99(2)
_cell_angle_alpha                79.353(10)
_cell_angle_beta                 81.420(10)
_cell_angle_gamma                72.090(10)
_cell_volume                     2726.21
loop_
_atom_site_label
_atom_site_type_symbol
_atom_site_fract_x
_atom_site_fract_y
_atom_site_fract_z
Co1 Co 0.74831(5) 0.92144(4) 0.74851(3)
Co2 Co 0.25749(5) 0.57663(4) 1.26033(3)
N1 N 0.7801(3) 0.7815(2) 0.83881(17)
N2 N 0.7717(3) 0.9991(3) 0.84698(18)
N3 N 0.7284(3) 1.0544(2) 0.65054(16)
N4 N 0.7134(3) 0.8393(2) 0.65785(17)
N5 N 0.9442(3) 0.8822(3) 0.7162(2)
N6 N 0.5518(3) 0.9640(3) 0.7802(2)
N7 N 0.4100(3) 0.6576(2) 1.22624(18)
N8 N 0.4183(3) 1.4420(2) 1.22128(18)
N9 N 1.0976(3) 1.4992(3) 0.29600(18)
N10 N 1.1024(3) 0.7178(2) 0.28872(17)
N11 N 0.2059(4) 0.6108(3) 1.1465(2)
N12 N 0.3075(4) 0.5389(3) 1.3732(2)
N13 N 1.0471(5) 0.8819(3) 0.69583(19)
N14 N 1.1578(3) 0.8781(4) 0.6742(2)
N15 N 0.4523(5) 1.0021(3) 0.8039(2)
N16 N 0.3463(3) 1.0422(4) 0.8291(2)
N17 N 0.1934(4) 0.6127(3) 1.0843(3)
N18 N 0.1812(4) 0.6133(5) 1.01813(19)
N19 N 0.3313(4) 0.4940(3) 1.4323(3)
N20 N 0.3552(5) 0.4495(3) 1.4966(2)
C1 C 0.6913(4) 0.7428(3) 0.8723(2)
H1 H 0.6168 0.7605 0.8497
C2 C 0.7014(5) 0.6763(3) 0.9403(3)
H2 H 0.6356 0.6507 0.9618
C3 C 0.8126(4) 0.6497(3) 0.9746(2)
C4 C 0.9072(4) 0.6860(3) 0.9373(2)
H3 H 0.9847 0.6662 0.9567
C5 C 0.8888(4) 0.7517(3) 0.8712(2)
H4 H 0.9544 0.7765 0.8479
C6 C 0.8269(5) 0.5847(3) 1.0520(3)
H5 H 0.7504 0.5661 1.0694
H6 H 0.8951 0.5253 1.0469
C7 C 0.8532(4) 0.6374(5) 1.1102(2)
H7 H 0.8665 0.5925 1.1574
H8 H 0.9304 0.6548 1.0926
C8 C 0.7506(5) 0.7291(4) 1.1261(3)
H9 H 0.7345 0.7734 1.0788
H10 H 0.7789 0.7619 1.1595
C9 C 0.6294(4) 0.7078(3) 1.1627(2)
C10 C 0.5196(4) 0.7449(3) 1.1285(2)
H11 H 0.5170 0.7878 1.0830
C11 C 0.4151(4) 0.7193(3) 1.1607(2)
H12 H 0.3425 0.7461 1.1360
C12 C 0.5167(4) 0.6242(3) 1.2605(2)
H13 H 0.5167 0.5825 1.3065
C13 C 0.6242(4) 0.6474(3) 1.2324(2)
H14 H 0.6943 0.6230 1.2595
C14 C 0.7042(5) 0.9850(3) 0.9145(2)
H15 H 0.6431 0.9531 0.9176
C15 C 0.7218(5) 1.0157(3) 0.9789(2)
H16 H 0.6747 1.0027 1.0246
C16 C 0.8104(4) 1.0665(3) 0.9756(2)
C17 C 0.8763(4) 1.0820(3) 0.9057(2)
H17 H 0.9352 1.1166 0.9000
C18 C 0.8555(4) 1.0467(3) 0.8442(2)
H18 H 0.9032 1.0569 0.7982
C19 C 0.8317(4) 1.1025(4) 1.0451(3)
H19 H 0.9023 1.1296 1.0327
H20 H 0.8529 1.0473 1.0854
C20 C 0.7156(4) 1.1813(3) 1.0740(2)
H21 H 0.6940 1.2366 1.0338
H22 H 0.6450 1.1543 1.0870
C21 C 0.7397(4) 1.2164(3) 1.1431(2)
H23 H 0.7599 1.1612 1.1834
H24 H 0.8117 1.2419 1.1303
C22 C 0.6285(4) 1.2950(3) 1.1713(2)
C23 C 0.5632(4) 1.2815(3) 1.2428(2)
H25 H 0.5893 1.2228 1.2753
C24 C 0.4601(4) 1.3547(3) 1.2653(2)
H26 H 0.4174 1.3435 1.3129
C25 C 0.4803(4) 1.4554(3) 1.1525(2)
H27 H 0.4507 1.5141 1.1206
C26 C 0.5869(4) 1.3858(3) 1.1264(2)
H28 H 0.6300 1.3998 1.0794
C27 C 0.6478(4) 1.1450(3) 0.6556(2)
H29 H 0.6022 1.1571 0.7021
C28 C 0.6301(4) 1.2204(3) 0.5947(2)
H30 H 0.5783 1.2826 0.6017
C29 C 0.6893(3) 1.2031(3) 0.5236(2)
C30 C 0.7722(4) 1.1094(3) 0.5174(2)
H31 H 0.8154 1.0941 0.4710
C31 C 0.7883(4) 1.0397(3) 0.5828(2)
H32 H 0.8453 0.9785 0.5784
C32 C 0.6717(4) 1.2822(3) 0.4552(2)
H33 H 0.6530 1.2569 0.4134
H34 H 0.6005 1.3372 0.4671
C33 C 0.7854(4) 1.3175(3) 0.4309(2)
H35 H 0.8565 1.2623 0.4192
H36 H 0.8039 1.3427 0.4728
C34 C 0.7691(4) 1.3986(3) 0.3607(2)
H37 H 0.7516 1.3732 0.3185
H38 H 0.6975 1.4536 0.3721
C35 C 0.8827(4) 1.4341(3) 0.3374(2)
C36 C 0.9586(4) 1.4171(3) 0.2701(2)
H39 H 0.9385 1.3828 0.2372
C37 C 1.0632(4) 1.4501(3) 0.2512(2)
H40 H 1.1115 1.4378 0.2055
C38 C 1.0260(4) 1.5142(3) 0.3613(2)
H41 H 1.0507 1.5461 0.3940
C39 C 0.9191(4) 1.4863(3) 0.3837(2)
H42 H 0.8714 1.5017 0.4291
C40 C 0.6063(3) 0.8737(3) 0.6246(2)
H43 H 0.5379 0.9159 0.6489
C41 C 0.5920(4) 0.8501(3) 0.5566(2)
H44 H 0.5147 0.8750 0.5368
C42 C 0.6923(3) 0.7892(3) 0.5171(2)
C43 C 0.8016(4) 0.7502(3) 0.5537(2)
H45 H 0.8701 0.7056 0.5316
C44 C 0.8094(4) 0.7768(3) 0.6219(2)
H46 H 0.8844 0.7503 0.6443
C45 C 0.6836(4) 0.7697(3) 0.4391(2)
H47 H 0.6188 0.7375 0.4419
H48 H 0.7627 0.7255 0.4216
C46 C 0.6536(4) 0.8641(3) 0.3816(2)
H49 H 0.6430 0.8479 0.3336
H50 H 0.5743 0.9078 0.3995
C47 C 0.7528(4) 0.9185(3) 0.3680(2)
H51 H 0.7266 0.9772 0.3313
H52 H 0.7607 0.9386 0.4152
C48 C 0.8794(4) 0.8547(3) 0.3386(2)
C49 C 0.8956(4) 0.8235(3) 0.2691(2)
H53 H 0.8319 0.8486 0.2370
C50 C 1.0054(4) 0.7551(3) 0.2461(2)
H54 H 1.0121 0.7343 0.1994
C51 C 1.0901(4) 0.7517(3) 0.3543(2)
H55 H 1.1574 0.7289 0.3837
C52 C 0.9827(4) 0.8192(3) 0.3809(2)
H56 H 0.9794 0.8407 0.4270
Co2_2 Co 0.25749(5) 1.57663(4) 1.26033(3)
Co2_3 Co 1.25749(5) 1.57663(4) 0.26033(3)
Co2_4 Co 1.25749(5) 0.57663(4) 0.26033(3)
N8_2 N 0.4183(3) 0.4420(2) 1.22128(18)
N9_2 N 0.0976(3) 0.4992(3) 1.29600(18)
N10_2 N 0.1024(3) 0.7178(2) 1.28872(17)
loop_
_geom_bond_atom_site_label_1
_geom_bond_atom_site_label_2
_geom_bond_site_symmetry_1
_geom_bond_site_symmetry_2
Co1 N1 1_555 1_555
Co2 N7 1_555 1_555
N1 C1 1_555 1_555
N2 Co1 1_555 1_555
N3 Co1 1_555 1_555
N4 Co1 1_555 1_555
N5 Co1 1_555 1_555
N6 Co1 1_555 1_555
N7 C11 1_555 1_555
N8 C24 1_555 1_555
N9 C37 1_555 1_555
N10 C50 1_555 1_555
N11 Co2 1_555 1_555
N12 Co2 1_555 1_555
N13 N5 1_555 1_555
N14 N13 1_555 1_555
N15 N6 1_555 1_555
N16 N15 1_555 1_555
N17 N11 1_555 1_555
N18 N17 1_555 1_555
N19 N12 1_555 1_555
N20 N19 1_555 1_555
C1 H1 1_555 1_555
C2 C1 1_555 1_555
H2 C2 1_555 1_555
C3 C2 1_555 1_555
C4 C3 1_555 1_555
H3 C4 1_555 1_555
C5 N1 1_555 1_555
H4 C5 1_555 1_555
C6 C3 1_555 1_555
H5 C6 1_555 1_555
H6 C6 1_555 1_555
C7 C6 1_555 1_555
H7 C7 1_555 1_555
H8 C7 1_555 1_555
C8 C7 1_555 1_555
H9 C8 1_555 1_555
H10 C8 1_555 1_555
C9 C8 1_555 1_555
C10 C9 1_555 1_555
H11 C10 1_555 1_555
C11 C10 1_555 1_555
H12 C11 1_555 1_555
C12 N7 1_555 1_555
H13 C12 1_555 1_555
C13 C9 1_555 1_555
H14 C13 1_555 1_555
C14 N2 1_555 1_555
H15 C14 1_555 1_555
C15 C14 1_555 1_555
H16 C15 1_555 1_555
C16 C15 1_555 1_555
C17 C16 1_555 1_555
H17 C17 1_555 1_555
C18 N2 1_555 1_555
H18 C18 1_555 1_555
C19 C16 1_555 1_555
H19 C19 1_555 1_555
H20 C19 1_555 1_555
C20 C19 1_555 1_555
H21 C20 1_555 1_555
H22 C20 1_555 1_555
C21 C20 1_555 1_555
H23 C21 1_555 1_555
H24 C21 1_555 1_555
C22 C21 1_555 1_555
C23 C22 1_555 1_555
H25 C23 1_555 1_555
C24 C23 1_555 1_555
H26 C24 1_555 1_555
C25 N8 1_555 1_555
H27 C25 1_555 1_555
C26 C22 1_555 1_555
H28 C26 1_555 1_555
C27 N3 1_555 1_555
H29 C27 1_555 1_555
C28 C27 1_555 1_555
H30 C28 1_555 1_555
C29 C28 1_555 1_555
C30 C29 1_555 1_555
H31 C30 1_555 1_555
C31 N3 1_555 1_555
H32 C31 1_555 1_555
C32 C29 1_555 1_555
H33 C32 1_555 1_555
H34 C32 1_555 1_555
C33 C32 1_555 1_555
H35 C33 1_555 1_555
H36 C33 1_555 1_555
C34 C33 1_555 1_555
H37 C34 1_555 1_555
H38 C34 1_555 1_555
C35 C34 1_555 1_555
C36 C35 1_555 1_555
H39 C36 1_555 1_555
C37 C36 1_555 1_555
H40 C37 1_555 1_555
C38 N9 1_555 1_555
H41 C38 1_555 1_555
C39 C35 1_555 1_555
H42 C39 1_555 1_555
C40 N4 1_555 1_555
H43 C40 1_555 1_555
C41 C40 1_555 1_555
H44 C41 1_555 1_555
C42 C41 1_555 1_555
C43 C42 1_555 1_555
H45 C43 1_555 1_555
C44 N4 1_555 1_555
H46 C44 1_555 1_555
C45 C42 1_555 1_555
H47 C45 1_555 1_555
H48 C45 1_555 1_555
C46 C45 1_555 1_555
H49 C46 1_555 1_555
H50 C46 1_555 1_555
C47 C46 1_555 1_555
H51 C47 1_555 1_555
H52 C47 1_555 1_555
C48 C47 1_555 1_555
C49 C48 1_555 1_555
H53 C49 1_555 1_555
C50 C49 1_555 1_555
H54 C50 1_555 1_555
C51 N10 1_555 1_555
H55 C51 1_555 1_555
C52 C48 1_555 1_555
H56 C52 1_555 1_555
Co2_2 N8 1_555 1_555
Co2_3 N9 1_555 1_555
Co2_4 N10 1_555 1_555
N8_2 Co2 1_555 1_555
N9_2 Co2 1_555 1_555
N10_2 Co2 1_555 1_555
C4 C5 1_555 1_555
C12 C13 1_555 1_555
C17 C18 1_555 1_555
C25 C26 1_555 1_555
C30 C31 1_555 1_555
C38 C39 1_555 1_555
C43 C44 1_555 1_555
C51 C52 1_555 1_555

#END
