
#######################################################################
#
#                 Cambridge Crystallographic Data Centre
#                                CCDC 
#
#######################################################################
#
# If this CIF has been generated from an entry in the Cambridge 
# Structural Database, then it will include bibliographic, chemical, 
# crystal, experimental, refinement or atomic coordinate data resulting 
# from the CCDC's data processing and validation procedures.
#
#######################################################################

data_REFBAH
_symmetry_cell_setting           monoclinic
_symmetry_space_group_name_H-M   'P 21/c'
_symmetry_Int_Tables_number      14
_space_group_name_Hall           '-P 2ybc'
loop_
_symmetry_equiv_pos_site_id
_symmetry_equiv_pos_as_xyz
1 x,y,z
2 -x,1/2+y,1/2-z
3 -x,-y,-z
4 x,1/2-y,1/2+z
_cell_length_a                   19.2859(8)
_cell_length_b                   10.4603(5)
_cell_length_c                   9.4438(4)
_cell_angle_alpha                90
_cell_angle_beta                 94.0480(10)
_cell_angle_gamma                90
_cell_volume                     1900.4
loop_
_atom_site_label
_atom_site_type_symbol
_atom_site_fract_x
_atom_site_fract_y
_atom_site_fract_z
N1 N 0.27215(15) 0.3655(3) 0.2652(3)
C1 C 0.2611(2) 0.2734(4) 0.1602(4)
H1 H 0.2911 0.2078 0.1386
C2 C 0.1982(2) 0.2987(4) 0.0962(4)
H2 H 0.1777 0.2531 0.0197
C3 C 0.21389(18) 0.4389(4) 0.2599(4)
H3 H 0.2073 0.5074 0.3202
C4 C 0.33092(18) 0.3724(4) 0.3661(4)
C5 C 0.36695(19) 0.2617(4) 0.4009(4)
H4 H 0.3562 0.1863 0.3519
C6 C 0.4194(2) 0.2633(4) 0.5092(4)
H5 H 0.4429 0.1881 0.5341
C7 C 0.43710(18) 0.3757(4) 0.5809(4)
C8 C 0.4032(2) 0.4884(4) 0.5389(4)
H6 H 0.4163 0.5651 0.5828
C9 C 0.3501(2) 0.4871(4) 0.4323(4)
H7 H 0.3274 0.5625 0.4052
C10 C 0.49040(18) 0.3717(4) 0.7005(4)
N2 N 0.22419(16) 0.6077(3) 0.7372(3)
C11 C 0.2897(2) 0.6529(4) 0.7378(4)
H8 H 0.3050 0.7081 0.6694
C12 C 0.2864(2) 0.5351(4) 0.9221(4)
H9 H 0.2999 0.4943 1.0071
C13 C 0.2224(2) 0.5295(4) 0.8556(4)
H10 H 0.1847 0.4828 0.8833
C14 C 0.16896(18) 0.6243(4) 0.6294(4)
C15 C 0.1551(2) 0.7433(4) 0.5710(4)
H11 H 0.1797 0.8147 0.6053
C16 C 0.10384(19) 0.7556(3) 0.4600(4)
H12 H 0.0940 0.8357 0.4208
C17 C 0.06735(17) 0.6491(3) 0.4074(4)
C18 C 0.08139(18) 0.5304(3) 0.4696(4)
H13 H 0.0572 0.4586 0.4351
C19 C 0.13092(19) 0.5181(4) 0.5820(4)
H14 H 0.1387 0.4391 0.6255
C20 C 0.01546(17) 0.6604(3) 0.2865(4)
Cu1 Cu 0.43641(2) 0.60189(5) 0.87254(5)
Cu2 Cu 0.06133(2) 0.42090(4) 0.12655(5)
N3 N 0.16809(15) 0.4015(3) 0.1594(3)
N4 N 0.49489(15) 0.4528(3) 0.8111(3)
N5 N 0.54919(17) 0.4084(3) 0.8969(3)
N6 N 0.57531(17) 0.3063(3) 0.8399(3)
N7 N 0.53872(16) 0.2796(3) 0.7163(3)
N8 N 0.32922(16) 0.6103(3) 0.8457(4)
N9 N -0.03100(15) 0.7551(3) 0.2664(3)
N10 N -0.06675(16) 0.7287(3) 0.1415(3)
N11 N -0.04287(15) 0.6225(3) 0.0900(3)
N12 N 0.00906(15) 0.5763(3) 0.1783(3)
Cu1B Cu 0.56359(2) 0.39811(5) 1.12746(5)
Cu1A Cu 0.56359(2) 0.10189(5) 0.62746(5)
Cu2A Cu -0.06133(2) 0.92090(4) 0.37345(5)
Cu2B Cu -0.06133(2) 0.57910(4) -0.12655(5)
N5B N 0.45081(17) 0.5916(3) 1.1031(3)
N7A N 0.46128(16) 0.7796(3) 0.7837(3)
N9A N 0.03100(15) 0.2551(3) 0.2336(3)
N11B N 0.04287(15) 0.3775(3) -0.0900(3)
loop_
_geom_bond_atom_site_label_1
_geom_bond_atom_site_label_2
_geom_bond_site_symmetry_1
_geom_bond_site_symmetry_2
N1 C1 1_555 1_555
C1 H1 1_555 1_555
C2 C1 1_555 1_555
H2 C2 1_555 1_555
C3 N1 1_555 1_555
H3 C3 1_555 1_555
C4 N1 1_555 1_555
C5 C4 1_555 1_555
H4 C5 1_555 1_555
C6 C5 1_555 1_555
H5 C6 1_555 1_555
C7 C6 1_555 1_555
C8 C7 1_555 1_555
H6 C8 1_555 1_555
C9 C4 1_555 1_555
H7 C9 1_555 1_555
C10 C7 1_555 1_555
N2 C11 1_555 1_555
C11 H8 1_555 1_555
C12 H9 1_555 1_555
C13 N2 1_555 1_555
H10 C13 1_555 1_555
C14 N2 1_555 1_555
C15 C14 1_555 1_555
H11 C15 1_555 1_555
C16 C15 1_555 1_555
H12 C16 1_555 1_555
C17 C16 1_555 1_555
C18 C17 1_555 1_555
H13 C18 1_555 1_555
C19 C14 1_555 1_555
H14 C19 1_555 1_555
C20 C17 1_555 1_555
Cu1 N4 1_555 1_555
Cu2 N3 1_555 1_555
N3 C2 1_555 1_555
N4 C10 1_555 1_555
N5 N4 1_555 1_555
N6 N5 1_555 1_555
N7 C10 1_555 1_555
N8 C11 1_555 1_555
N9 C20 1_555 1_555
N10 N9 1_555 1_555
N11 N10 1_555 1_555
N12 C20 1_555 1_555
Cu1B N5 1_555 1_555
Cu1A N7 1_555 1_555
Cu2A N9 1_555 1_555
Cu2B N11 1_555 1_555
N5B Cu1 1_555 1_555
N7A Cu1 1_555 1_555
N9A Cu2 1_555 1_555
N11B Cu2 1_555 1_555
C3 N3 1_555 1_555
C8 C9 1_555 1_555
C12 C13 1_555 1_555
C12 N8 1_555 1_555
C18 C19 1_555 1_555
Cu1 N8 1_555 1_555
Cu2 N12 1_555 1_555
N6 N7 1_555 1_555
N11 N12 1_555 1_555

#END
