
#######################################################################
#
#                 Cambridge Crystallographic Data Centre
#                                CCDC 
#
#######################################################################
#
# If this CIF has been generated from an entry in the Cambridge 
# Structural Database, then it will include bibliographic, chemical, 
# crystal, experimental, refinement or atomic coordinate data resulting 
# from the CCDC's data processing and validation procedures.
#
#######################################################################

data_REFCAI
_symmetry_cell_setting           monoclinic
_symmetry_space_group_name_H-M   'P 21/c'
_symmetry_Int_Tables_number      14
_space_group_name_Hall           '-P 2ybc'
loop_
_symmetry_equiv_pos_site_id
_symmetry_equiv_pos_as_xyz
1 x,y,z
2 -x,1/2+y,1/2-z
3 -x,-y,-z
4 x,1/2-y,1/2+z
_cell_length_a                   13.0594(3)
_cell_length_b                   21.3510(4)
_cell_length_c                   17.8397(3)
_cell_angle_alpha                90
_cell_angle_beta                 124.6390(10)
_cell_angle_gamma                90
_cell_volume                     4092.58
loop_
_atom_site_label
_atom_site_type_symbol
_atom_site_fract_x
_atom_site_fract_y
_atom_site_fract_z
Gd1 Gd 0.603960(9) 0.579698(5) 0.988178(7)
S1 S 0.32103(5) 0.59141(3) 0.98340(4)
S2 S 1.17157(6) 1.16080(3) 1.37566(4)
O1 O 0.45052(18) 0.53448(10) 0.85398(12)
O2 O 0.37256(18) 0.45237(12) 0.87980(12)
O3 O 0.42185(15) 0.61183(9) 0.97599(12)
O4 O 0.31967(17) 0.52367(8) 0.99240(13)
O5 O 0.31970(19) 0.62442(10) 1.05264(12)
O6 O 1.16668(16) 1.09392(8) 1.39155(12)
O7 O 1.30427(17) 1.17839(9) 1.42993(14)
O8 O 1.10399(19) 1.17832(10) 1.28116(13)
N1 N 0.5236(2) 0.66528(11) 0.86323(15)
N2 N 0.7211(2) 0.59145(10) 0.91246(15)
C1 C 0.3696(2) 0.49299(13) 0.82793(15)
C2 C 0.2626(2) 0.49368(12) 0.73025(15)
C3 C 0.1860(3) 0.44254(15) 0.69067(18)
H1 H 0.2022 0.4063 0.7246
C4 C 0.0845(3) 0.44471(14) 0.60038(19)
H2 H 0.0352 0.4093 0.5740
C5 C 0.0551(2) 0.49879(13) 0.54846(15)
C6 C 0.1309(3) 0.55020(14) 0.59075(18)
H3 H 0.1118 0.5876 0.5586
C7 C 0.2350(3) 0.54755(14) 0.68020(17)
H4 H 0.2863 0.5824 0.7063
C8 C 0.1834(2) 0.60974(12) 0.87525(16)
C9 C 0.1118(2) 0.56089(13) 0.81784(18)
H5 H 0.1326 0.5197 0.8379
C10 C 0.0090(3) 0.57344(15) 0.7305(2)
H6 H -0.0388 0.5408 0.6916
C11 C -0.0214(3) 0.63443(16) 0.70215(19)
H7 H -0.0902 0.6430 0.6436
C12 C 0.0487(3) 0.68319(14) 0.75929(19)
H8 H 0.0256 0.7241 0.7385
C13 C 0.1535(2) 0.67274(12) 0.84765(18)
C14 C 0.2310(2) 0.72462(13) 0.90664(19)
H9 H 0.3062 0.7135 0.9601
C15 C 0.2072(3) 0.78481(14) 0.8931(2)
H10 H 0.1301 0.7974 0.8427
C16 C 0.2963(3) 0.83347(14) 0.9538(2)
C17 C 0.4195(4) 0.82620(19) 0.9968(3)
H11 H 0.4497 0.7895 0.9880
C18 C 0.5038(4) 0.8724(2) 1.0548(3)
H12 H 0.5881 0.8662 1.0809
C19 C 0.4674(4) 0.92553(14) 1.0742(2)
C20 C 0.3379(4) 0.93400(18) 1.0277(3)
H13 H 0.3077 0.9704 1.0372
C21 C 0.2548(4) 0.88894(18) 0.9681(3)
H14 H 0.1698 0.8961 0.9371
C22 C 0.5571(3) 0.97315(15) 1.1390(2)
C23 C 0.5366(4) 1.00441(19) 1.1974(3)
H15 H 0.4651 0.9957 1.1951
C24 C 0.6198(3) 1.04807(19) 1.2588(3)
H16 H 0.6032 1.0679 1.2972
C25 C 0.7272(3) 1.06338(15) 1.2650(2)
C26 C 0.7485(3) 1.03170(18) 1.2071(3)
H17 H 0.8198 1.0405 1.2092
C27 C 0.6660(4) 0.98754(18) 1.1467(3)
H18 H 0.6841 0.9666 1.1098
C28 C 0.8105(3) 1.11078(15) 1.3305(2)
H19 H 0.7910 1.1254 1.3701
C29 C 0.9104(3) 1.13557(14) 1.34041(19)
H20 H 0.9335 1.1203 1.3033
C30 C 0.9879(3) 1.18538(13) 1.40548(19)
C31 C 1.1051(2) 1.20189(12) 1.42506(18)
C32 C 1.1735(3) 1.25070(13) 1.4840(2)
H21 H 1.2504 1.2610 1.4957
C33 C 1.1284(4) 1.28427(15) 1.5258(2)
H22 H 1.1735 1.3176 1.5643
C34 C 1.0155(4) 1.26750(17) 1.5094(3)
H23 H 0.9856 1.2889 1.5386
C35 C 0.9468(3) 1.21983(16) 1.4509(2)
H24 H 0.8706 1.2098 1.4408
C36 C 0.4231(3) 0.69922(17) 0.8344(2)
H25 H 0.3760 0.6903 0.8572
C37 C 0.3838(4) 0.74818(19) 0.7709(3)
H26 H 0.3116 0.7704 0.7519
C38 C 0.4515(4) 0.76254(19) 0.7380(3)
H27 H 0.4269 0.7952 0.6967
C39 C 0.5589(3) 0.72819(15) 0.7662(2)
C40 C 0.5895(2) 0.67841(13) 0.82758(17)
C41 C 0.6376(4) 0.74133(17) 0.7361(2)
H28 H 0.6176 0.7743 0.6960
C42 C 0.7397(4) 0.70688(18) 0.7650(2)
H29 H 0.7908 0.7173 0.7461
C43 C 0.7712(3) 0.65441(15) 0.8244(2)
C44 C 0.8749(3) 0.61607(19) 0.8545(3)
H30 H 0.9283 0.6247 0.8369
C45 C 0.8971(3) 0.56641(18) 0.9092(3)
H31 H 0.9637 0.5397 0.9275
C46 C 0.8189(3) 0.55602(15) 0.9378(2)
H32 H 0.8363 0.5225 0.9766
C47 C 0.6964(2) 0.64023(12) 0.85561(17)
Gd1B Gd -0.603960(9) 0.420302(5) 0.011822(7)
Gd1B_2 Gd 0.396040(9) 0.420302(5) 1.011822(7)
Gd1A Gd 1.396040(9) 1.079698(5) 1.511822(7)
Gd1_2 Gd -0.396040(9) 0.579698(5) -0.011822(7)
Gd1C Gd -0.396040(9) -0.079698(5) 0.488178(7)
S1B S 0.67897(5) 0.40859(3) 1.01660(4)
S2B S -0.17157(6) -0.16080(3) 0.62434(4)
O1B O -0.45052(18) 0.46552(10) 0.14602(12)
O1B_2 O 0.54948(18) 0.46552(10) 1.14602(12)
O2B O -0.37256(18) 0.54763(12) 0.12020(12)
O2B_2 O 0.62744(18) 0.54763(12) 1.12020(12)
O3B O 0.57815(15) 0.38817(9) 1.02401(12)
O4B O 0.68033(17) 0.47633(8) 1.00760(13)
O5B O 0.68030(19) 0.37558(10) 0.94736(12)
O6B O -0.16668(16) -0.09392(8) 0.60845(12)
O6A O 0.83332(16) 0.59392(8) 1.10845(12)
O6C O 0.16668(16) 0.40608(8) 0.89155(12)
O7B O -0.30427(17) -0.17839(9) 0.57007(14)
O7A O 0.69573(17) 0.67839(9) 1.07007(14)
O7C O 0.30427(17) 0.32161(9) 0.92993(14)
O8B O -0.10399(19) -0.17832(10) 0.71884(13)
N1B N 0.4764(2) 0.33472(11) 1.13677(15)
N2B N 0.2789(2) 0.40855(10) 1.08754(15)
C1B C -0.3696(2) 0.50701(13) 0.17207(15)
C2B C -0.2626(2) 0.50632(12) 0.26975(15)
C3B C -0.1860(3) 0.55746(15) 0.30933(18)
H1B H -0.2022 0.5937 0.2754
C4B C -0.0845(3) 0.55529(14) 0.39962(19)
H2B H -0.0352 0.5907 0.4260
C5B C -0.0551(2) 0.50121(13) 0.45154(15)
C6B C -0.1309(3) 0.44980(14) 0.40925(18)
H3B H -0.1118 0.4124 0.4414
C7B C -0.2350(3) 0.45245(14) 0.31980(17)
H4B H -0.2863 0.4176 0.2937
C8B C 0.8166(2) 0.39026(12) 1.12475(16)
C9B C 0.8882(2) 0.43911(13) 1.18216(18)
H5B H 0.8674 0.4803 1.1621
C10B C 0.9910(3) 0.42656(15) 1.2695(2)
H6B H 1.0388 0.4592 1.3084
C11B C 1.0214(3) 0.36557(16) 1.29785(19)
H7B H 1.0902 0.3570 1.3564
C12B C 0.9513(3) 0.31681(14) 1.24071(19)
H8B H 0.9744 0.2759 1.2615
C13B C 0.8465(2) 0.32726(12) 1.15235(18)
C14B C 0.7690(2) 0.27538(13) 1.09336(19)
H9B H 0.6938 0.2865 1.0399
C15B C 0.7928(3) 0.21519(14) 1.1069(2)
H10B H 0.8699 0.2026 1.1573
C16B C 0.7037(3) 0.16653(14) 1.0462(2)
C17B C 0.5805(4) 0.17380(19) 1.0032(3)
H11B H 0.5503 0.2105 1.0120
C18B C 0.4962(4) 0.1276(2) 0.9452(3)
H12B H 0.4119 0.1338 0.9191
C19B C 0.5326(4) 0.07447(14) 0.9258(2)
C20B C 0.6621(4) 0.06600(18) 0.9723(3)
H13B H 0.6923 0.0296 0.9628
C21B C 0.7452(4) 0.11106(18) 1.0319(3)
H14B H 0.8302 0.1039 1.0629
C22B C 0.4429(3) 0.02685(15) 0.8610(2)
C23B C 0.4634(4) -0.00441(19) 0.8026(3)
H15B H 0.5349 0.0043 0.8049
C24B C 0.3802(3) -0.04807(19) 0.7412(3)
H16B H 0.3968 -0.0679 0.7028
C25B C 0.2728(3) -0.06338(15) 0.7350(2)
C26B C 0.2515(3) -0.03170(18) 0.7929(3)
H17B H 0.1802 -0.0405 0.7908
C27B C 0.3340(4) 0.01246(18) 0.8533(3)
H18B H 0.3159 0.0334 0.8902
C28B C 0.1895(3) -0.11078(15) 0.6695(2)
H19B H 0.2090 -0.1254 0.6299
C29B C 0.0896(3) -0.13557(14) 0.65959(19)
H20B H 0.0665 -0.1203 0.6967
C30B C 0.0121(3) -0.18538(13) 0.59452(19)
C31B C -0.1051(2) -0.20189(12) 0.57494(18)
C32B C -0.1735(3) -0.25070(13) 0.5160(2)
H21B H -0.2504 -0.2610 0.5043
C33B C -0.1284(4) -0.28427(15) 0.4742(2)
H22B H -0.1735 -0.3176 0.4357
C34B C -0.0155(4) -0.26750(17) 0.4906(3)
H23B H 0.0144 -0.2889 0.4614
C35B C 0.0532(3) -0.21983(16) 0.5491(2)
H24B H 0.1294 -0.2098 0.5592
C36B C 0.5769(3) 0.30078(17) 1.1656(2)
H25B H 0.6240 0.3097 1.1428
C37B C 0.6162(4) 0.25182(19) 1.2291(3)
H26B H 0.6884 0.2296 1.2481
C38B C 0.5485(4) 0.23746(19) 1.2620(3)
H27B H 0.5731 0.2048 1.3033
C39B C 0.4411(3) 0.27181(15) 1.2338(2)
C40B C 0.4105(2) 0.32159(13) 1.17242(17)
C41B C 0.3624(4) 0.25867(17) 1.2639(2)
H28B H 0.3824 0.2257 1.3040
C42B C 0.2603(4) 0.29312(18) 1.2350(2)
H29B H 0.2092 0.2827 1.2539
C43B C 0.2288(3) 0.34559(15) 1.1756(2)
C44B C 0.1251(3) 0.38393(19) 1.1455(3)
H30B H 0.0717 0.3753 1.1631
C45B C 0.1029(3) 0.43359(18) 1.0908(3)
H31B H 0.0363 0.4603 1.0725
C46B C 0.1811(3) 0.44398(15) 1.0622(2)
H32B H 0.1637 0.4775 1.0234
C47B C 0.3036(2) 0.35977(12) 1.14439(17)
loop_
_geom_bond_atom_site_label_1
_geom_bond_atom_site_label_2
_geom_bond_site_symmetry_1
_geom_bond_site_symmetry_2
Gd1 O1 1_555 1_555
S1 O3 1_555 1_555
S2 O6 1_555 1_555
O1 C1 1_555 1_555
O2 C1 1_555 1_555
O3 Gd1 1_555 1_555
O4 S1 1_555 1_555
O5 S1 1_555 1_555
O6 Gd1A 1_555 1_555
O7 S2 1_555 1_555
O8 S2 1_555 1_555
N1 Gd1 1_555 1_555
N2 Gd1 1_555 1_555
C1 C2 1_555 1_555
C2 C3 1_555 1_555
C3 H1 1_555 1_555
C4 C3 1_555 1_555
H2 C4 1_555 1_555
C5 C4 1_555 1_555
C6 C5 1_555 1_555
H3 C6 1_555 1_555
C7 C2 1_555 1_555
H4 C7 1_555 1_555
C8 S1 1_555 1_555
C9 C8 1_555 1_555
H5 C9 1_555 1_555
C10 C9 1_555 1_555
H6 C10 1_555 1_555
C11 C10 1_555 1_555
H7 C11 1_555 1_555
C12 C11 1_555 1_555
H8 C12 1_555 1_555
C13 C8 1_555 1_555
C14 C13 1_555 1_555
H9 C14 1_555 1_555
C15 C14 1_555 1_555
H10 C15 1_555 1_555
C16 C15 1_555 1_555
C17 C16 1_555 1_555
H11 C17 1_555 1_555
C18 C17 1_555 1_555
H12 C18 1_555 1_555
C19 C18 1_555 1_555
C20 C19 1_555 1_555
H13 C20 1_555 1_555
C21 C16 1_555 1_555
H14 C21 1_555 1_555
C22 C19 1_555 1_555
C23 C22 1_555 1_555
H15 C23 1_555 1_555
C24 C23 1_555 1_555
H16 C24 1_555 1_555
C25 C24 1_555 1_555
C26 C25 1_555 1_555
H17 C26 1_555 1_555
C27 C22 1_555 1_555
H18 C27 1_555 1_555
C28 C25 1_555 1_555
H19 C28 1_555 1_555
C29 C28 1_555 1_555
H20 C29 1_555 1_555
C30 C29 1_555 1_555
C31 S2 1_555 1_555
C32 C31 1_555 1_555
H21 C32 1_555 1_555
C33 C32 1_555 1_555
H22 C33 1_555 1_555
C34 C33 1_555 1_555
H23 C34 1_555 1_555
C35 C30 1_555 1_555
H24 C35 1_555 1_555
C36 N1 1_555 1_555
H25 C36 1_555 1_555
C37 C36 1_555 1_555
H26 C37 1_555 1_555
C38 C37 1_555 1_555
H27 C38 1_555 1_555
C39 C38 1_555 1_555
C40 N1 1_555 1_555
C41 C39 1_555 1_555
H28 C41 1_555 1_555
C42 C41 1_555 1_555
H29 C42 1_555 1_555
C43 C42 1_555 1_555
C44 C43 1_555 1_555
H30 C44 1_555 1_555
C45 C44 1_555 1_555
H31 C45 1_555 1_555
C46 N2 1_555 1_555
H32 C46 1_555 1_555
C47 N2 1_555 1_555
Gd1B O1B 1_555 1_555
Gd1B_2 O2 1_555 1_555
Gd1A O7 1_555 1_555
Gd1_2 O2B 1_555 1_555
Gd1C O6B 1_555 1_555
S1B O3B 1_555 1_555
S2B O6B 1_555 1_555
O1B C1B 1_555 1_555
O1B_2 Gd1B_2 1_555 1_555
O2B C1B 1_555 1_555
O2B_2 Gd1 1_555 1_555
O3B Gd1B_2 1_555 1_555
O4B Gd1 1_555 1_555
O5B S1B 1_555 1_555
O6A Gd1 1_555 1_555
O6C Gd1B_2 1_555 1_555
O7B Gd1C 1_555 1_555
O7A Gd1 1_555 1_555
O7C Gd1B_2 1_555 1_555
O8B S2B 1_555 1_555
N1B Gd1B_2 1_555 1_555
N2B Gd1B_2 1_555 1_555
C1B C2B 1_555 1_555
C2B C3B 1_555 1_555
C3B H1B 1_555 1_555
C4B C3B 1_555 1_555
H2B C4B 1_555 1_555
C5B C5 1_555 1_555
C6B C5B 1_555 1_555
H3B C6B 1_555 1_555
C7B C2B 1_555 1_555
H4B C7B 1_555 1_555
C8B S1B 1_555 1_555
C9B C8B 1_555 1_555
H5B C9B 1_555 1_555
C10B C9B 1_555 1_555
H6B C10B 1_555 1_555
C11B C10B 1_555 1_555
H7B C11B 1_555 1_555
C12B C11B 1_555 1_555
H8B C12B 1_555 1_555
C13B C8B 1_555 1_555
C14B C13B 1_555 1_555
H9B C14B 1_555 1_555
C15B C14B 1_555 1_555
H10B C15B 1_555 1_555
C16B C15B 1_555 1_555
C17B C16B 1_555 1_555
H11B C17B 1_555 1_555
C18B C17B 1_555 1_555
H12B C18B 1_555 1_555
C19B C18B 1_555 1_555
C20B C19B 1_555 1_555
H13B C20B 1_555 1_555
C21B C16B 1_555 1_555
H14B C21B 1_555 1_555
C22B C19B 1_555 1_555
C23B C22B 1_555 1_555
H15B C23B 1_555 1_555
C24B C23B 1_555 1_555
H16B C24B 1_555 1_555
C25B C24B 1_555 1_555
C26B C25B 1_555 1_555
H17B C26B 1_555 1_555
C27B C22B 1_555 1_555
H18B C27B 1_555 1_555
C28B C25B 1_555 1_555
H19B C28B 1_555 1_555
C29B C28B 1_555 1_555
H20B C29B 1_555 1_555
C30B C29B 1_555 1_555
C31B S2B 1_555 1_555
C32B C31B 1_555 1_555
H21B C32B 1_555 1_555
C33B C32B 1_555 1_555
H22B C33B 1_555 1_555
C34B C33B 1_555 1_555
H23B C34B 1_555 1_555
C35B C30B 1_555 1_555
H24B C35B 1_555 1_555
C36B N1B 1_555 1_555
H25B C36B 1_555 1_555
C37B C36B 1_555 1_555
H26B C37B 1_555 1_555
C38B C37B 1_555 1_555
H27B C38B 1_555 1_555
C39B C38B 1_555 1_555
C40B N1B 1_555 1_555
C41B C39B 1_555 1_555
H28B C41B 1_555 1_555
C42B C41B 1_555 1_555
H29B C42B 1_555 1_555
C43B C42B 1_555 1_555
C44B C43B 1_555 1_555
H30B C44B 1_555 1_555
C45B C44B 1_555 1_555
H31B C45B 1_555 1_555
C46B N2B 1_555 1_555
H32B C46B 1_555 1_555
C47B N2B 1_555 1_555
O4 Gd1B_2 1_555 1_555
C6 C7 1_555 1_555
C12 C13 1_555 1_555
C20 C21 1_555 1_555
C26 C27 1_555 1_555
C30 C31 1_555 1_555
C34 C35 1_555 1_555
C39 C40 1_555 1_555
C40 C47 1_555 1_555
C43 C47 1_555 1_555
C45 C46 1_555 1_555
S1B O4B 1_555 1_555
S2B O7B 1_555 1_555
C4B C5B 1_555 1_555
C6B C7B 1_555 1_555
C12B C13B 1_555 1_555
C20B C21B 1_555 1_555
C26B C27B 1_555 1_555
C30B C31B 1_555 1_555
C34B C35B 1_555 1_555
C39B C40B 1_555 1_555
C40B C47B 1_555 1_555
C43B C47B 1_555 1_555
C45B C46B 1_555 1_555

#END
