
#######################################################################
#
#                 Cambridge Crystallographic Data Centre
#                                CCDC 
#
#######################################################################
#
# If this CIF has been generated from an entry in the Cambridge 
# Structural Database, then it will include bibliographic, chemical, 
# crystal, experimental, refinement or atomic coordinate data resulting 
# from the CCDC's data processing and validation procedures.
#
#######################################################################

data_REFDOX
_symmetry_cell_setting           triclinic
_symmetry_space_group_name_H-M   'P -1'
_symmetry_Int_Tables_number      2
_space_group_name_Hall           '-P 1'
loop_
_symmetry_equiv_pos_site_id
_symmetry_equiv_pos_as_xyz
1 x,y,z
2 -x,-y,-z
_cell_length_a                   14.380(5)
_cell_length_b                   14.434(4)
_cell_length_c                   16.450(5)
_cell_angle_alpha                75.910(18)
_cell_angle_beta                 85.60(2)
_cell_angle_gamma                87.95(2)
_cell_volume                     3301.38
loop_
_atom_site_label
_atom_site_type_symbol
_atom_site_fract_x
_atom_site_fract_y
_atom_site_fract_z
Fe1 Fe 1.03776(5) 0.75949(4) -0.00819(4)
Fe2 Fe 1.48973(5) 0.92854(5) -0.18313(4)
Cu1 Cu 1.24835(4) 1.04408(4) 0.00204(4)
N1 N 1.1543(3) 0.6148(2) 0.0892(2)
N2 N 1.1542(3) 0.6859(2) 0.0177(2)
N3 N 1.0350(3) 0.6866(2) 0.1743(2)
N4 N 1.0215(3) 0.7662(2) 0.1102(2)
N5 N 0.9873(3) 0.5712(2) 0.0964(2)
N6 N 0.9676(3) 0.6398(2) 0.0255(2)
N7 N 1.0845(3) 0.5108(3) 0.2214(2)
N8 N 1.1243(4) 0.5283(3) 0.2891(3)
N9 N 1.1372(3) 0.9523(3) -0.0546(3)
N10 N 1.0686(4) 0.7473(3) -0.1920(3)
N11 N 0.8582(3) 0.8784(3) -0.0405(2)
N12 N 1.2554(3) 1.1429(3) -0.1086(3)
N13 N 1.2398(3) 0.9478(3) 0.1127(2)
N14 N 1.3451(3) 0.9631(3) -0.0471(3)
N15 N 1.3652(3) 1.1220(3) 0.0515(3)
N16 N 1.4452(4) 0.7167(4) -0.1551(3)
N17 N 1.5910(3) 0.9943(3) -0.3444(2)
N18 N 1.5856(3) 0.9212(3) -0.2728(2)
N19 N 1.4194(3) 1.0257(3) -0.3439(3)
N20 N 1.3987(3) 0.9610(3) -0.2698(3)
N21 N 1.5191(3) 1.1245(3) -0.2832(2)
N22 N 1.5150(3) 1.0661(3) -0.2033(3)
N23 N 1.5320(3) 1.1418(3) -0.4408(3)
N24 N 1.5098(5) 1.1201(4) -0.5132(3)
C1 C 1.2418(4) 0.5775(3) 0.0970(3)
H1 H 1.2602 0.5278 0.1406
C2 C 1.2987(4) 0.6249(3) 0.0304(4)
H2 H 1.3623 0.6145 0.0200
C3 C 1.2408(4) 0.6918(3) -0.0186(3)
H3 H 1.2597 0.7343 -0.0689
C4 C 1.0102(4) 0.7076(3) 0.2486(3)
H4 H 1.0118 0.6657 0.3013
C5 C 0.9818(4) 0.8039(3) 0.2319(3)
H5 H 0.9612 0.8384 0.2709
C6 C 0.9907(3) 0.8365(3) 0.1464(3)
H6 H 0.9773 0.8987 0.1173
C7 C 0.9203(4) 0.5046(3) 0.1136(3)
H7 H 0.9170 0.4517 0.1590
C8 C 0.8581(4) 0.5286(3) 0.0526(3)
H8 H 0.8054 0.4954 0.0476
C9 C 0.8901(4) 0.6122(3) 0.0004(3)
H9 H 0.8609 0.6455 -0.0468
C10 C 1.0915(4) 0.4154(3) 0.2242(4)
H10 H 1.0706 0.3867 0.1843
C11 C 1.1330(5) 0.3696(4) 0.2932(4)
H11 H 1.1465 0.3046 0.3113
C12 C 1.1513(5) 0.4432(4) 0.3313(4)
H12 H 1.1797 0.4329 0.3817
C13 C 1.0999(4) 0.8793(3) -0.0383(3)
C14 C 1.0557(4) 0.7522(3) -0.1231(3)
C15 C 0.9263(3) 0.8341(3) -0.0321(3)
C16 C 1.3987(4) 0.9428(3) -0.0968(3)
C17 C 1.4214(4) 1.1050(3) 0.0992(3)
C18 C 1.4621(4) 0.7957(4) -0.1645(3)
C19 C 1.6657(4) 0.9783(4) -0.3936(3)
H13 H 1.6851 1.0179 -0.4452
C20 C 1.7086(4) 0.8948(4) -0.3560(3)
H14 H 1.7616 0.8667 -0.3766
C21 C 1.6566(4) 0.8605(4) -0.2807(3)
H15 H 1.6691 0.8040 -0.2415
C22 C 1.3466(4) 1.0334(4) -0.3923(3)
H16 H 1.3436 1.0732 -0.4459
C23 C 1.2779(4) 0.9734(4) -0.3501(4)
H17 H 1.2200 0.9644 -0.3683
C24 C 1.3139(4) 0.9289(4) -0.2739(4)
H18 H 1.2831 0.8831 -0.2318
C25 C 1.5193(4) 1.2159(4) -0.2771(4)
H19 H 1.5212 1.2694 -0.3222
C26 C 1.5162(4) 1.2177(4) -0.1949(4)
H20 H 1.5155 1.2715 -0.1731
C27 C 1.5143(4) 1.1240(4) -0.1501(3)
H21 H 1.5129 1.1036 -0.0919
C28 C 1.5796(6) 1.2220(5) -0.4597(4)
H22 H 1.6009 1.2533 -0.4218
C29 C 1.5913(7) 1.2495(7) -0.5438(5)
H23 H 1.6234 1.3032 -0.5741
C30 C 1.5495(5) 1.1877(5) -0.5768(4)
H24 H 1.5479 1.1907 -0.6338
C31 C 1.2520(4) 1.1183(3) -0.1810(3)
H25 H 1.2410 1.0547 -0.1794
C32 C 1.2638(4) 1.1811(3) -0.2579(3)
H26 H 1.2612 1.1594 -0.3064
C33 C 1.2798(4) 1.2782(3) -0.2643(3)
C34 C 1.2793(4) 1.3032(4) -0.1880(3)
H27 H 1.2868 1.3668 -0.1877
C35 C 1.2679(4) 1.2367(3) -0.1137(3)
H28 H 1.2689 1.2566 -0.0641
C36 C 1.3003(4) 1.3465(4) -0.3440(3)
H29 H 1.2982 1.4109 -0.3436
C37 C 1.3217(4) 1.3252(4) -0.4172(4)
H30 H 1.3191 1.2608 -0.4170
C38 C 1.3489(4) 1.3899(4) -0.4986(4)
C39 C 1.3671(5) 1.3524(4) -0.5683(4)
H31 H 1.3598 1.2873 -0.5628
C40 C 1.3955(6) 1.4093(6) -0.6451(5)
H32 H 1.4100 1.3827 -0.6907
C41 C 1.4024(6) 1.5058(6) -0.6542(5)
H33 H 1.4228 1.5447 -0.7058
C42 C 1.3794(7) 1.5448(5) -0.5872(5)
H34 H 1.3812 1.6106 -0.5942
C43 C 1.3537(6) 1.4873(4) -0.5096(4)
H35 H 1.3393 1.5143 -0.4642
C44 C 1.2233(3) 0.9740(3) 0.1853(3)
H36 H 1.2188 1.0389 0.1834
C45 C 1.2126(4) 0.9107(3) 0.2624(3)
H37 H 1.2020 0.9326 0.3111
C46 C 1.2180(3) 0.8122(3) 0.2667(3)
C47 C 1.2370(4) 0.7854(3) 0.1926(3)
H38 H 1.2423 0.7208 0.1931
C48 C 1.2482(4) 0.8525(3) 0.1179(3)
H39 H 1.2622 0.8321 0.0688
C49 C 1.2002(4) 0.7383(4) 0.3453(3)
H40 H 1.2026 0.6752 0.3411
C50 C 1.1813(4) 0.7529(4) 0.4211(3)
H41 H 1.1824 0.8154 0.4266
C51 C 1.1587(4) 0.6778(4) 0.4973(3)
C52 C 1.1291(4) 0.5870(4) 0.4954(4)
H42 H 1.1233 0.5728 0.4438
C53 C 1.1086(5) 0.5188(4) 0.5677(4)
H43 H 1.0886 0.4593 0.5645
C54 C 1.1169(5) 0.5366(4) 0.6450(4)
H44 H 1.1057 0.4892 0.6940
C55 C 1.1423(5) 0.6266(4) 0.6478(4)
H45 H 1.1461 0.6409 0.6996
C56 C 1.1621(5) 0.6954(4) 0.5758(4)
H46 H 1.1782 0.7558 0.5798
B1 B 1.0648(4) 0.5935(4) 0.1475(3)
B2 B 1.5156(4) 1.0754(4) -0.3559(4)
Fe2A Fe 1.51027(5) 1.07146(5) 0.18313(4)
Cu1A Cu 0.75165(4) 0.95592(4) -0.00204(4)
N11A N 1.1418(3) 1.1216(3) 0.0405(2)
C17A C 1.5786(4) 0.8950(3) -0.0992(3)
C57 C 0.9896(6) 0.9432(5) -0.3076(5)
O1 O 1.0327(3) 0.8691(3) -0.3443(3)
C58 C 0.0790(6) 1.2144(6) 0.5185(5)
O3 O 0.0931(3) 1.1556(3) 0.4591(3)
C59 C 0.6677(19) 1.4190(13) 0.2492(12)
O5 O 0.6251(10) 1.4528(7) 0.1744(7)
C60 C 0.5849(14) 1.6203(12) 0.0132(12)
O7 O 0.5299(10) 1.5838(9) 0.1075(9)
O2 O 0.1310(4) 0.9561(3) 0.4971(3)
O4 O 0.708(2) 0.6895(19) -0.0961(18)
O6 O 0.555(3) 1.562(2) -0.106(2)
loop_
_geom_bond_atom_site_label_1
_geom_bond_atom_site_label_2
_geom_bond_site_symmetry_1
_geom_bond_site_symmetry_2
Fe1 N2 1_555 1_555
Fe2 N18 1_555 1_555
Cu1 N9 1_555 1_555
N1 N2 1_555 1_555
N2 C3 1_555 1_555
N3 N4 1_555 1_555
N4 Fe1 1_555 1_555
N5 N6 1_555 1_555
N6 Fe1 1_555 1_555
N7 N8 1_555 1_555
N8 C12 1_555 1_555
N9 C13 1_555 1_555
N10 C14 1_555 1_555
N11 C15 1_555 1_555
N12 Cu1 1_555 1_555
N13 Cu1 1_555 1_555
N14 Cu1 1_555 1_555
N15 Cu1 1_555 1_555
N16 C18 1_555 1_555
N17 N18 1_555 1_555
N18 C21 1_555 1_555
N19 N20 1_555 1_555
N20 Fe2 1_555 1_555
N21 N22 1_555 1_555
N22 Fe2 1_555 1_555
N23 N24 1_555 1_555
N24 C30 1_555 1_555
C1 N1 1_555 1_555
H1 C1 1_555 1_555
C2 C1 1_555 1_555
H2 C2 1_555 1_555
C3 C2 1_555 1_555
H3 C3 1_555 1_555
C4 N3 1_555 1_555
H4 C4 1_555 1_555
C5 C4 1_555 1_555
H5 C5 1_555 1_555
C6 N4 1_555 1_555
H6 C6 1_555 1_555
C7 N5 1_555 1_555
H7 C7 1_555 1_555
C8 C7 1_555 1_555
H8 C8 1_555 1_555
C9 N6 1_555 1_555
H9 C9 1_555 1_555
C10 N7 1_555 1_555
H10 C10 1_555 1_555
C11 C10 1_555 1_555
H11 C11 1_555 1_555
C12 C11 1_555 1_555
H12 C12 1_555 1_555
C13 Fe1 1_555 1_555
C14 Fe1 1_555 1_555
C15 Fe1 1_555 1_555
C16 Fe2 1_555 1_555
C17 N15 1_555 1_555
C18 Fe2 1_555 1_555
C19 N17 1_555 1_555
H13 C19 1_555 1_555
C20 C19 1_555 1_555
H14 C20 1_555 1_555
C21 C20 1_555 1_555
H15 C21 1_555 1_555
C22 N19 1_555 1_555
H16 C22 1_555 1_555
C23 C22 1_555 1_555
H17 C23 1_555 1_555
C24 N20 1_555 1_555
H18 C24 1_555 1_555
C25 N21 1_555 1_555
H19 C25 1_555 1_555
C26 C25 1_555 1_555
H20 C26 1_555 1_555
C27 N22 1_555 1_555
H21 C27 1_555 1_555
C28 N23 1_555 1_555
H22 C28 1_555 1_555
C29 C28 1_555 1_555
H23 C29 1_555 1_555
C30 C29 1_555 1_555
H24 C30 1_555 1_555
C31 N12 1_555 1_555
H25 C31 1_555 1_555
C32 C31 1_555 1_555
H26 C32 1_555 1_555
C33 C32 1_555 1_555
C34 C33 1_555 1_555
H27 C34 1_555 1_555
C35 N12 1_555 1_555
H28 C35 1_555 1_555
C36 C33 1_555 1_555
H29 C36 1_555 1_555
C37 C36 1_555 1_555
H30 C37 1_555 1_555
C38 C37 1_555 1_555
C39 C38 1_555 1_555
H31 C39 1_555 1_555
C40 C39 1_555 1_555
H32 C40 1_555 1_555
C41 C40 1_555 1_555
H33 C41 1_555 1_555
C42 C41 1_555 1_555
H34 C42 1_555 1_555
C43 C38 1_555 1_555
H35 C43 1_555 1_555
C44 N13 1_555 1_555
H36 C44 1_555 1_555
C45 C44 1_555 1_555
H37 C45 1_555 1_555
C46 C45 1_555 1_555
C47 C46 1_555 1_555
H38 C47 1_555 1_555
C48 N13 1_555 1_555
H39 C48 1_555 1_555
C49 C46 1_555 1_555
H40 C49 1_555 1_555
C50 C49 1_555 1_555
H41 C50 1_555 1_555
C51 C50 1_555 1_555
C52 C51 1_555 1_555
H42 C52 1_555 1_555
C53 C52 1_555 1_555
H43 C53 1_555 1_555
C54 C53 1_555 1_555
H44 C54 1_555 1_555
C55 C54 1_555 1_555
H45 C55 1_555 1_555
C56 C51 1_555 1_555
H46 C56 1_555 1_555
C57 O1 1_555 1_555
C58 O3 1_555 1_555
C59 O5 1_555 1_555
C60 O7 1_555 1_555
B1 N1 1_555 1_555
B2 N17 1_555 1_555
Fe2A C17 1_555 1_555
Cu1A N11 1_555 1_555
N11A Cu1 1_555 1_555
C17A Fe2 1_555 1_555
N3 B1 1_555 1_555
N5 B1 1_555 1_555
N7 B1 1_555 1_555
N14 C16 1_555 1_555
N19 B2 1_555 1_555
N21 B2 1_555 1_555
N23 B2 1_555 1_555
C5 C6 1_555 1_555
C8 C9 1_555 1_555
C23 C24 1_555 1_555
C26 C27 1_555 1_555
C34 C35 1_555 1_555
C42 C43 1_555 1_555
C47 C48 1_555 1_555
C55 C56 1_555 1_555

#END
