
#######################################################################
#
#                 Cambridge Crystallographic Data Centre
#                                CCDC 
#
#######################################################################
#
# If this CIF has been generated from an entry in the Cambridge 
# Structural Database, then it will include bibliographic, chemical, 
# crystal, experimental, refinement or atomic coordinate data resulting 
# from the CCDC's data processing and validation procedures.
#
#######################################################################

data_REFJAP
_symmetry_cell_setting           monoclinic
_symmetry_space_group_name_H-M   'C c'
_symmetry_Int_Tables_number      9
_space_group_name_Hall           'C -2yc'
loop_
_symmetry_equiv_pos_site_id
_symmetry_equiv_pos_as_xyz
1 x,y,z
2 x,-y,1/2+z
3 1/2+x,1/2+y,z
4 1/2+x,1/2-y,1/2+z
_cell_length_a                   11.1536(14)
_cell_length_b                   13.6095(17)
_cell_length_c                   9.2048(11)
_cell_angle_alpha                90
_cell_angle_beta                 94.6710(10)
_cell_angle_gamma                90
_cell_volume                     1392.6
loop_
_atom_site_label
_atom_site_type_symbol
_atom_site_fract_x
_atom_site_fract_y
_atom_site_fract_z
Ni1 Ni 0.2602(2) 0.10250(3) 0.0164(2)
O1 O 0.3597(6) 0.0898(5) 0.2161(7)
O2 O 0.1651(6) -0.0064(6) 0.1087(6)
N1 N 0.1569(8) 0.2116(8) 0.0933(8)
C1 C 0.3163(8) 0.0287(7) 0.2957(9)
C2 C 0.1212(8) 0.3458(8) 0.2241(9)
C3 C 0.1808(11) 0.2641(9) 0.2158(11)
H1 H 0.2377 0.2429 0.2917
C4 C 0.1325(12) 0.4211(9) 0.3389(12)
H2 H 0.1797 0.3946 0.4259
H3 H 0.0517 0.4392 0.3673
C5 C 0.0673(10) 0.2624(7) 0.0188(10)
H4 H 0.0237 0.2478 -0.0715
C6 C 0.0563(10) 0.3486(6) 0.1195(14)
H5 H 0.0008 0.4007 0.0989
C7 C 0.1951(9) 0.5119(6) 0.2837(13)
H6 H 0.1469 0.5376 0.1968
H7 H 0.1972 0.5633 0.3599
N2 N 0.3679(8) 0.7869(7) 0.4367(8)
C8 C 0.4049(8) 0.6567(8) 0.3123(9)
C9 C 0.3375(10) 0.7394(9) 0.3186(11)
H8 H 0.2768 0.7594 0.2463
C10 C 0.3913(11) 0.5820(8) 0.2025(11)
H9 H 0.4722 0.5604 0.1789
H10 H 0.3504 0.6110 0.1131
C11 C 0.4552(10) 0.7274(8) 0.5136(10)
H11 H 0.4913 0.7423 0.6080
C12 C 0.4795(6) 0.6522(5) 0.4420(6)
H12 H 0.5367 0.6027 0.4703
C13 C 0.3213(12) 0.4932(10) 0.2444(15)
H13 H 0.3176 0.4461 0.1621
H14 H 0.3664 0.4611 0.3284
O3 O 0.1583(7) -0.0900(5) 0.3194(8)
C14 C 0.2012(9) -0.0273(8) 0.2347(10)
O4 O 0.3620(6) 0.0060(6) 0.4223(6)
Ni1A Ni 0.2602(2) -0.10250(3) 0.5164(2)
Ni1A_2 Ni 0.2602(2) 0.89750(3) 0.5164(2)
N2A N 0.3679(8) 0.2131(7) -0.0633(8)
O3A O 0.1583(7) 0.0900(5) -0.1806(8)
O4A O 0.3620(6) -0.0060(6) -0.0777(6)
loop_
_geom_bond_atom_site_label_1
_geom_bond_atom_site_label_2
_geom_bond_site_symmetry_1
_geom_bond_site_symmetry_2
Ni1 O1 1_555 1_555
O1 C1 1_555 1_555
O2 Ni1 1_555 1_555
N1 Ni1 1_555 1_555
C1 C14 1_555 1_555
C2 C3 1_555 1_555
C3 N1 1_555 1_555
H1 C3 1_555 1_555
C4 C2 1_555 1_555
H2 C4 1_555 1_555
H3 C4 1_555 1_555
C5 N1 1_555 1_555
H4 C5 1_555 1_555
C6 C2 1_555 1_555
H5 C6 1_555 1_555
C7 C4 1_555 1_555
H6 C7 1_555 1_555
H7 C7 1_555 1_555
N2 C9 1_555 1_555
C8 C9 1_555 1_555
C9 H8 1_555 1_555
C10 C8 1_555 1_555
H9 C10 1_555 1_555
H10 C10 1_555 1_555
C11 N2 1_555 1_555
H11 C11 1_555 1_555
C12 C8 1_555 1_555
H12 C12 1_555 1_555
C13 C7 1_555 1_555
H13 C13 1_555 1_555
H14 C13 1_555 1_555
O3 C14 1_555 1_555
C14 O2 1_555 1_555
O4 C1 1_555 1_555
Ni1A O3 1_555 1_555
Ni1A_2 N2 1_555 1_555
N2A Ni1 1_555 1_555
O3A Ni1 1_555 1_555
O4A Ni1 1_555 1_555
C5 C6 1_555 1_555
C10 C13 1_555 1_555
C11 C12 1_555 1_555
O4 Ni1A 1_555 1_555

#END
