
#######################################################################
#
#                 Cambridge Crystallographic Data Centre
#                                CCDC 
#
#######################################################################
#
# If this CIF has been generated from an entry in the Cambridge 
# Structural Database, then it will include bibliographic, chemical, 
# crystal, experimental, refinement or atomic coordinate data resulting 
# from the CCDC's data processing and validation procedures.
#
#######################################################################

data_REFJIX
_symmetry_cell_setting           orthorhombic
_symmetry_space_group_name_H-M   'P n m a'
_symmetry_Int_Tables_number      62
_space_group_name_Hall           '-P 2ac 2n'
loop_
_symmetry_equiv_pos_site_id
_symmetry_equiv_pos_as_xyz
1 x,y,z
2 1/2-x,-y,1/2+z
3 1/2+x,1/2-y,1/2-z
4 -x,1/2+y,-z
5 -x,-y,-z
6 1/2+x,y,1/2-z
7 1/2-x,1/2+y,1/2+z
8 x,1/2-y,z
_cell_length_a                   10.6081(3)
_cell_length_b                   22.9446(7)
_cell_length_c                   7.4028(2)
_cell_angle_alpha                90
_cell_angle_beta                 90
_cell_angle_gamma                90
_cell_volume                     1801.83
loop_
_atom_site_label
_atom_site_type_symbol
_atom_site_fract_x
_atom_site_fract_y
_atom_site_fract_z
Cu1 Cu -0.43487(3) -0.2500 0.00484(5)
O1 O -0.8694(2) -0.2500 -0.1619(5)
O2 O -0.30293(14) -0.30719(7) 0.0525(2)
O3 O -0.08962(16) -0.36421(7) 0.0961(3)
N1 N -0.55990(17) -0.31406(10) -0.0421(3)
C1 C -0.7356(3) -0.2500 -0.1348(7)
H1 H -0.6945 -0.2500 -0.2533
C2 C -0.6981(2) -0.30473(14) -0.0363(4)
H2 H -0.7252 -0.3021 0.0886
H3 H -0.7402 -0.3379 -0.0907
C3 C -0.5269(2) -0.36624(12) -0.0821(4)
C4 C -0.4043(2) -0.39154(10) -0.0744(3)
C5 C -0.3927(3) -0.45056(11) -0.1265(4)
H4 H -0.4627 -0.4698 -0.1730
C6 C -0.2821(3) -0.47995(12) -0.1103(4)
H5 H -0.2760 -0.5185 -0.1481
C7 C -0.1779(3) -0.45152(11) -0.0363(4)
H6 H -0.1021 -0.4715 -0.0234
C8 C -0.1860(2) -0.39413(10) 0.0179(3)
C9 C -0.3000(2) -0.36135(10) -0.0014(3)
C10 C 0.0291(2) -0.39160(11) 0.1124(4)
H7 H 0.0204 -0.4267 0.1818
H8 H 0.0868 -0.3658 0.1722
H9 H 0.0608 -0.4009 -0.0055
H10 H -0.892(5) -0.2500 -0.055(3)
H11 H -0.595(2) -0.3920(12) -0.113(4)
Cu1B Cu -0.93487(3) -0.2500 -0.50484(5)
O1B O -0.3694(2) -0.2500 -0.3381(5)
O2G O -0.30293(14) -0.19281(7) 0.0525(2)
O3G O -0.08962(16) -0.13579(7) 0.0961(3)
N1G N -0.55990(17) -0.18594(10) -0.0421(3)
C2G C -0.6981(2) -0.19527(14) -0.0363(4)
H2G H -0.7252 -0.1979 0.0886
H3G H -0.7402 -0.1621 -0.0907
C3G C -0.5269(2) -0.13376(12) -0.0821(4)
C4G C -0.4043(2) -0.10846(10) -0.0744(3)
C5G C -0.3927(3) -0.04944(11) -0.1265(4)
H4G H -0.4627 -0.0302 -0.1730
C6G C -0.2821(3) -0.02005(12) -0.1103(4)
H5G H -0.2760 0.0185 -0.1481
C7G C -0.1779(3) -0.04848(11) -0.0363(4)
H6G H -0.1021 -0.0285 -0.0234
C8G C -0.1860(2) -0.10587(10) 0.0179(3)
C9G C -0.3000(2) -0.13865(10) -0.0014(3)
C10G C 0.0291(2) -0.10840(11) 0.1124(4)
H7G H 0.0204 -0.0733 0.1818
H8G H 0.0868 -0.1342 0.1722
H9G H 0.0608 -0.0991 -0.0055
H10B H -0.392(5) -0.2500 -0.445(3)
H11G H -0.595(2) -0.1080(12) -0.113(4)
O4 O -1.0308(3) -0.2500 -0.8573(4)
H12 H -1.075(2) -0.2829(10) -0.875(5)
H12G H -1.075(2) -0.2171(10) -0.875(5)
loop_
_geom_bond_atom_site_label_1
_geom_bond_atom_site_label_2
_geom_bond_site_symmetry_1
_geom_bond_site_symmetry_2
Cu1 O2 1_555 1_555
O1 C1 1_555 1_555
O2 C9 1_555 1_555
O3 C8 1_555 1_555
N1 Cu1 1_555 1_555
C1 H1 1_555 1_555
C2 N1 1_555 1_555
H2 C2 1_555 1_555
H3 C2 1_555 1_555
C3 N1 1_555 1_555
C4 C3 1_555 1_555
C5 C4 1_555 1_555
H4 C5 1_555 1_555
C6 C5 1_555 1_555
H5 C6 1_555 1_555
C7 C6 1_555 1_555
H6 C7 1_555 1_555
C8 C7 1_555 1_555
C9 C4 1_555 1_555
C10 O3 1_555 1_555
H7 C10 1_555 1_555
H8 C10 1_555 1_555
H9 C10 1_555 1_555
O4 H12 1_555 1_555
H10 O1 1_555 1_555
H11 C3 1_555 1_555
Cu1B O1 1_555 1_555
O1B Cu1 1_555 1_555
O2G Cu1 1_555 1_555
O3G C8G 1_555 1_555
N1G Cu1 1_555 1_555
C2G C1 1_555 1_555
H2G C2G 1_555 1_555
H3G C2G 1_555 1_555
C3G N1G 1_555 1_555
C4G C3G 1_555 1_555
C5G C4G 1_555 1_555
H4G C5G 1_555 1_555
C6G C5G 1_555 1_555
H5G C6G 1_555 1_555
C7G C6G 1_555 1_555
H6G C7G 1_555 1_555
C8G C7G 1_555 1_555
C9G O2G 1_555 1_555
C10G O3G 1_555 1_555
H7G C10G 1_555 1_555
H8G C10G 1_555 1_555
H9G C10G 1_555 1_555
H10B O1B 1_555 1_555
H11G C3G 1_555 1_555
H12G O4 1_555 1_555
C1 C2 1_555 1_555
C8 C9 1_555 1_555
N1G C2G 1_555 1_555
C4G C9G 1_555 1_555
C8G C9G 1_555 1_555

#END
