
#######################################################################
#
#                 Cambridge Crystallographic Data Centre
#                                CCDC 
#
#######################################################################
#
# If this CIF has been generated from an entry in the Cambridge 
# Structural Database, then it will include bibliographic, chemical, 
# crystal, experimental, refinement or atomic coordinate data resulting 
# from the CCDC's data processing and validation procedures.
#
#######################################################################

data_REFKUJ
_symmetry_cell_setting           triclinic
_symmetry_space_group_name_H-M   'P -1'
_symmetry_Int_Tables_number      2
_space_group_name_Hall           '-P 1'
loop_
_symmetry_equiv_pos_site_id
_symmetry_equiv_pos_as_xyz
1 x,y,z
2 -x,-y,-z
_cell_length_a                   11.971(4)
_cell_length_b                   13.116(4)
_cell_length_c                   15.075(5)
_cell_angle_alpha                75.672(5)
_cell_angle_beta                 77.826(5)
_cell_angle_gamma                88.422(6)
_cell_volume                     2240.99
loop_
_atom_site_label
_atom_site_type_symbol
_atom_site_fract_x
_atom_site_fract_y
_atom_site_fract_z
Cd1 Cd 0.46830(5) 0.06454(5) 0.69611(4)
Cd2 Cd 0.03365(5) 0.43535(5) 0.30770(4)
O1 O 0.4830(6) -0.3913(6) 0.8373(5)
O2 O 0.4601(5) 0.5206(5) 0.6177(4)
O3 O 0.3135(5) 0.1552(5) 0.6493(4)
O4 O 0.3947(5) 0.0603(5) 0.5547(4)
O5 O 0.1291(5) 0.2898(5) 0.3790(4)
O6 O 0.0561(5) 0.3922(5) 0.4702(4)
O7 O 0.5715(6) 0.0231(6) 0.8209(5)
O8 O 0.4222(6) 0.1175(6) 0.8433(5)
O9 O -0.0172(6) 0.5189(6) 0.1623(4)
O10 O 0.0775(6) 0.3718(6) 0.1699(4)
O11 O 0.5999(6) -0.0314(6) 0.6237(4)
H1 H 0.5929 -0.0438 0.5723
H2 H 0.6564 -0.0551 0.6477
O12 O -0.0500(6) 0.5753(5) 0.3567(4)
H3 H -0.0772 0.6237 0.3188
H4 H -0.0539 0.5794 0.4127
N1 N 0.3555(7) -0.0864(7) 0.7864(6)
N2 N 0.3283(9) -0.4538(9) 0.9416(11)
N3 N 0.4055(10) -0.5351(9) 0.9338(12)
N4 N 0.7933(7) -0.5352(7) 0.7634(5)
N5 N 0.5869(6) 0.2159(6) 0.6370(5)
N6 N 0.6311(7) 0.5926(7) 0.5782(7)
N7 N 0.5510(7) 0.6721(7) 0.5850(7)
N8 N 0.1392(6) 0.6622(6) 0.6545(5)
C1 C 0.2476(10) -0.0703(11) 0.8271(10)
H5 H 0.2184 -0.0033 0.8121
C2 C 0.1807(12) -0.1473(13) 0.8883(14)
H6 H 0.1069 -0.1337 0.9167
C3 C 0.2234(12) -0.2472(12) 0.9087(12)
H7 H 0.1790 -0.3021 0.9517
C4 C 0.3325(9) -0.2646(9) 0.8644(8)
C5 C 0.3952(8) -0.1808(8) 0.8054(7)
H8 H 0.4701 -0.1914 0.7774
C6 C 0.3770(9) -0.3706(10) 0.8849(10)
C7 C 0.4953(11) -0.4962(9) 0.8745(9)
C8 C 0.6012(9) -0.5482(9) 0.8435(8)
C9 C 0.6047(11) -0.6587(10) 0.8670(9)
H9 H 0.5395 -0.6994 0.8995
C10 C 0.7050(11) -0.7045(11) 0.8414(9)
H10 H 0.7108 -0.7773 0.8578
C11 C 0.7970(10) -0.6423(8) 0.7912(7)
H11 H 0.8661 -0.6743 0.7751
C12 C 0.6952(8) -0.4914(8) 0.7901(7)
H12 H 0.6905 -0.4186 0.7714
C13 C 0.7019(8) 0.2053(9) 0.6171(6)
H13 H 0.7310 0.1380 0.6232
C14 C 0.7775(8) 0.2910(9) 0.5879(7)
H14 H 0.8559 0.2813 0.5734
C15 C 0.7356(8) 0.3896(9) 0.5808(7)
H15 H 0.7849 0.4481 0.5608
C16 C 0.6197(7) 0.4014(8) 0.6037(6)
C17 C 0.5495(7) 0.3130(8) 0.6308(6)
H16 H 0.4710 0.3219 0.6458
C18 C 0.5753(7) 0.5052(8) 0.5972(6)
C19 C 0.4525(8) 0.6271(7) 0.6072(6)
C20 C 0.3402(8) 0.6768(7) 0.6207(6)
C21 C 0.3389(9) 0.7859(8) 0.6035(6)
H17 H 0.4057 0.8271 0.5856
C22 C 0.2321(10) 0.8291(9) 0.6147(8)
H18 H 0.2254 0.9017 0.6051
C23 C 0.1355(9) 0.7658(8) 0.6398(7)
H19 H 0.0645 0.7970 0.6468
C24 C 0.2407(8) 0.6177(7) 0.6460(6)
H20 H 0.2444 0.5448 0.6576
C25 C 0.3203(7) 0.1240(7) 0.5762(6)
C26 C 0.2374(7) 0.1614(7) 0.5133(6)
H21 H 0.1904 0.1016 0.5149
H22 H 0.2807 0.1862 0.4496
C27 C 0.1602(7) 0.2470(7) 0.5367(6)
H23 H 0.0967 0.2153 0.5868
H24 H 0.2020 0.2932 0.5601
C28 C 0.1130(7) 0.3122(7) 0.4570(6)
C29 C 0.5011(10) 0.0683(9) 0.8714(7)
C30 C 0.5144(11) 0.0538(8) 0.9716(6)
H25 H 0.5927 0.0711 0.9714
H26 H 0.4652 0.1023 0.9999
C31 C 0.0303(8) 0.4492(9) 0.1246(6)
C32 C 0.0361(8) 0.4574(9) 0.0217(6)
H27 H 0.0115 0.3906 0.0147
H28 H 0.1150 0.4708 -0.0118
Cd1A Cd 0.53170(5) -0.06454(5) 1.30389(4)
Cd1A_2 Cd 0.53170(5) -0.06454(5) 0.30389(4)
Cd1A_3 Cd -0.46830(5) 0.93546(5) 0.30389(4)
Cd2A Cd 0.96635(5) -0.43535(5) 0.69230(4)
Cd2A_2 Cd -0.03365(5) 0.56465(5) 0.69230(4)
Cd2A_3 Cd -0.03365(5) 0.56465(5) -0.30770(4)
Cd2A_4 Cd 0.96635(5) -0.43535(5) 1.69230(4)
O1A O 0.5170(6) 0.3913(6) 0.1627(5)
O2A O -0.4601(5) 0.4794(5) 0.3823(4)
O3A O 0.6865(5) -0.1552(5) 1.3507(4)
O4A O 0.6053(5) -0.0603(5) 1.4453(4)
O5A O 0.8709(5) -0.2898(5) 1.6210(4)
O5A_2 O 0.8709(5) -0.2898(5) 0.6210(4)
O6A O 0.9439(5) -0.3922(5) 1.5298(4)
O6A_2 O 0.9439(5) -0.3922(5) 0.5298(4)
O7A O 0.4285(6) -0.0231(6) 1.1791(5)
O8A O 0.5778(6) -0.1175(6) 1.1567(5)
O9A O 0.0172(6) 0.4811(6) -0.1623(4)
O9A_2 O 1.0172(6) -0.5189(6) 0.8377(4)
O10A O -0.0775(6) 0.6282(6) -0.1699(4)
O10A_2 O 0.9225(6) -0.3718(6) 0.8301(4)
O11A O 0.4001(6) 0.0314(6) 1.3763(4)
H1A H 0.4071 0.0438 1.4277
H2A H 0.3436 0.0551 1.3523
O12A O 1.0500(6) -0.5753(5) 0.6433(4)
H3A H 1.0772 -0.6237 0.6812
H4A H 1.0539 -0.5794 0.5873
N1A N 0.6445(7) 0.0864(7) 0.2136(6)
N1A_2 N 0.6445(7) 0.0864(7) 1.2136(6)
N2A N 0.6717(9) 0.4538(9) 0.0584(11)
N3A N 0.5945(10) 0.5351(9) 0.0662(12)
N4A N 0.2067(7) 0.5352(7) 0.2366(5)
N5A N -0.5869(6) 0.7841(6) 0.3630(5)
N5A_2 N 0.4131(6) -0.2159(6) 1.3630(5)
N6A N -0.6311(7) 0.4074(7) 0.4218(7)
N7A N -0.5510(7) 0.3279(7) 0.4150(7)
N8A N -0.1392(6) 0.3378(6) 0.3455(5)
N8_2 N 1.1392(6) -0.3378(6) 0.6545(5)
C1A C 0.7524(10) 0.0703(11) 0.1729(10)
H5A H 0.7816 0.0033 0.1879
C2A C 0.8193(12) 0.1473(13) 0.1117(14)
H6A H 0.8931 0.1337 0.0833
C3A C 0.7766(12) 0.2472(12) 0.0913(12)
H7A H 0.8210 0.3021 0.0483
C4A C 0.6675(9) 0.2646(9) 0.1356(8)
C5A C 0.6048(8) 0.1808(8) 0.1946(7)
H8A H 0.5299 0.1914 0.2226
C6A C 0.6230(9) 0.3706(10) 0.1151(10)
C7A C 0.5047(11) 0.4962(9) 0.1255(9)
C8A C 0.3988(9) 0.5482(9) 0.1565(8)
C9A C 0.3953(11) 0.6587(10) 0.1330(9)
H9A H 0.4605 0.6994 0.1005
C10A C 0.2950(11) 0.7045(11) 0.1586(9)
H10A H 0.2892 0.7773 0.1422
C11A C 0.2030(10) 0.6423(8) 0.2088(7)
H11A H 0.1339 0.6743 0.2249
C12A C 0.3048(8) 0.4914(8) 0.2099(7)
H12A H 0.3095 0.4186 0.2286
C13A C -0.7019(8) 0.7947(9) 0.3829(6)
H13A H -0.7310 0.8620 0.3768
C14A C -0.7775(8) 0.7090(9) 0.4121(7)
H14A H -0.8559 0.7187 0.4266
C15A C -0.7356(8) 0.6104(9) 0.4192(7)
H15A H -0.7849 0.5519 0.4392
C16A C -0.6197(7) 0.5986(8) 0.3963(6)
C17A C -0.5495(7) 0.6870(8) 0.3692(6)
H16A H -0.4710 0.6781 0.3542
C18A C -0.5753(7) 0.4948(8) 0.4028(6)
C19A C -0.4525(8) 0.3729(7) 0.3928(6)
C20A C -0.3402(8) 0.3232(7) 0.3793(6)
C21A C -0.3389(9) 0.2141(8) 0.3965(6)
H17A H -0.4057 0.1729 0.4144
C22A C -0.2321(10) 0.1709(9) 0.3853(8)
H18A H -0.2254 0.0983 0.3949
C23A C -0.1355(9) 0.2342(8) 0.3602(7)
H19A H -0.0645 0.2030 0.3532
C24A C -0.2407(8) 0.3823(7) 0.3540(6)
H20A H -0.2444 0.4552 0.3424
C25A C 0.6797(7) -0.1240(7) 1.4238(6)
C26A C 0.7626(7) -0.1614(7) 1.4867(6)
H21A H 0.8096 -0.1016 1.4851
H22A H 0.7193 -0.1862 1.5504
C27A C 0.8398(7) -0.2470(7) 1.4633(6)
H23A H 0.9033 -0.2153 1.4132
H24A H 0.7980 -0.2932 1.4399
C28A C 0.8870(7) -0.3122(7) 1.5430(6)
C29A C 0.4989(10) -0.0683(9) 1.1286(7)
C30A C 0.4856(11) -0.0538(8) 1.0284(6)
H25A H 0.4073 -0.0711 1.0286
H26A H 0.5348 -0.1023 1.0001
C31A C -0.0303(8) 0.5508(9) -0.1246(6)
C32A C -0.0361(8) 0.5426(9) -0.0217(6)
H27A H -0.0115 0.6094 -0.0147
H28A H -0.1150 0.5292 0.0118
O13 O 0.2270(9) 0.3278(9) 0.7169(7)
O15 O 0.7444(10) 0.8425(11) 0.7121(8)
O16 O 0.7276(14) 0.7174(14) 0.9141(12)
O18 O 0.2731(19) 0.2468(19) 0.9182(16)
O20 O 0.0319(14) 0.2497(14) 0.8976(12)
O21 O 0.7911(17) 0.9987(18) 0.8534(15)
O22 O 0.946(2) 0.020(2) 0.5965(19)
O14? O 0.137(3) 0.255(3) 0.753(2)
O17? O 0.832(3) 0.803(3) 0.883(2)
O19? O 0.225(3) 0.165(3) 0.962(2)
O23? O 0.973(2) 0.126(3) 0.773(2)
loop_
_geom_bond_atom_site_label_1
_geom_bond_atom_site_label_2
_geom_bond_site_symmetry_1
_geom_bond_site_symmetry_2
Cd1 O3 1_555 1_555
Cd2 O5 1_555 1_555
O1 C6 1_555 1_555
O2 C18 1_555 1_555
O3 C25 1_555 1_555
O4 Cd1 1_555 1_555
O5 C28 1_555 1_555
O6 Cd2 1_555 1_555
O7 Cd1 1_555 1_555
O8 Cd1 1_555 1_555
O9 Cd2 1_555 1_555
O10 Cd2 1_555 1_555
O11 Cd1 1_555 1_555
H1 O11 1_555 1_555
H2 O11 1_555 1_555
O12 Cd2 1_555 1_555
H3 O12 1_555 1_555
H4 O12 1_555 1_555
N1 Cd1 1_555 1_555
N2 N3 1_555 1_555
N3 C7 1_555 1_555
N4 C11 1_555 1_555
N5 Cd1 1_555 1_555
N6 N7 1_555 1_555
N7 C19 1_555 1_555
N8 C23 1_555 1_555
C1 N1 1_555 1_555
H5 C1 1_555 1_555
C2 C1 1_555 1_555
H6 C2 1_555 1_555
C3 C2 1_555 1_555
H7 C3 1_555 1_555
C4 C3 1_555 1_555
C5 N1 1_555 1_555
H8 C5 1_555 1_555
C6 N2 1_555 1_555
C7 O1 1_555 1_555
C8 C7 1_555 1_555
C9 C8 1_555 1_555
H9 C9 1_555 1_555
C10 C9 1_555 1_555
H10 C10 1_555 1_555
C11 C10 1_555 1_555
H11 C11 1_555 1_555
C12 N4 1_555 1_555
H12 C12 1_555 1_555
C13 N5 1_555 1_555
H13 C13 1_555 1_555
C14 C13 1_555 1_555
H14 C14 1_555 1_555
C15 C14 1_555 1_555
H15 C15 1_555 1_555
C16 C15 1_555 1_555
C17 N5 1_555 1_555
H16 C17 1_555 1_555
C18 N6 1_555 1_555
C19 O2 1_555 1_555
C20 C19 1_555 1_555
C21 C20 1_555 1_555
H17 C21 1_555 1_555
C22 C21 1_555 1_555
H18 C22 1_555 1_555
C23 C22 1_555 1_555
H19 C23 1_555 1_555
C24 N8 1_555 1_555
H20 C24 1_555 1_555
C25 O4 1_555 1_555
C26 C25 1_555 1_555
H21 C26 1_555 1_555
H22 C26 1_555 1_555
C27 C26 1_555 1_555
H23 C27 1_555 1_555
H24 C27 1_555 1_555
C28 O6 1_555 1_555
C29 O7 1_555 1_555
C30 C29 1_555 1_555
H25 C30 1_555 1_555
H26 C30 1_555 1_555
C31 O9 1_555 1_555
C32 C31 1_555 1_555
H27 C32 1_555 1_555
H28 C32 1_555 1_555
Cd1A O3A 1_555 1_555
Cd1A_2 N1A 1_555 1_555
Cd1A_3 N5A 1_555 1_555
Cd2A N4 1_555 1_555
Cd2A_2 N8 1_555 1_555
Cd2A_3 O9A 1_555 1_555
Cd2A_4 O5A 1_555 1_555
O1A C6A 1_555 1_555
O2A C18A 1_555 1_555
O3A C25A 1_555 1_555
O4A Cd1A 1_555 1_555
O5A C28A 1_555 1_555
O5A_2 Cd2A 1_555 1_555
O6A Cd2A_4 1_555 1_555
O6A_2 Cd2A 1_555 1_555
O7A Cd1A 1_555 1_555
O8A Cd1A 1_555 1_555
O9A C31A 1_555 1_555
O9A_2 Cd2A 1_555 1_555
O10A Cd2A_3 1_555 1_555
O10A_2 Cd2A 1_555 1_555
O11A Cd1A 1_555 1_555
H1A O11A 1_555 1_555
H2A O11A 1_555 1_555
O12A Cd2A 1_555 1_555
H3A O12A 1_555 1_555
H4A O12A 1_555 1_555
N1A C1A 1_555 1_555
N1A_2 Cd1A 1_555 1_555
N2A N3A 1_555 1_555
N3A C7A 1_555 1_555
N4A Cd2 1_555 1_555
N5A C13A 1_555 1_555
N5A_2 Cd1A 1_555 1_555
N6A N7A 1_555 1_555
N7A C19A 1_555 1_555
N8A Cd2 1_555 1_555
N8_2 Cd2A 1_555 1_555
C1A H5A 1_555 1_555
C2A C1A 1_555 1_555
H6A C2A 1_555 1_555
C3A C2A 1_555 1_555
H7A C3A 1_555 1_555
C4A C3A 1_555 1_555
C5A N1A 1_555 1_555
H8A C5A 1_555 1_555
C6A N2A 1_555 1_555
C7A O1A 1_555 1_555
C8A C7A 1_555 1_555
C9A C8A 1_555 1_555
H9A C9A 1_555 1_555
C10A C9A 1_555 1_555
H10A C10A 1_555 1_555
C11A N4A 1_555 1_555
H11A C11A 1_555 1_555
C12A N4A 1_555 1_555
H12A C12A 1_555 1_555
C13A H13A 1_555 1_555
C14A C13A 1_555 1_555
H14A C14A 1_555 1_555
C15A C14A 1_555 1_555
H15A C15A 1_555 1_555
C16A C15A 1_555 1_555
C17A N5A 1_555 1_555
H16A C17A 1_555 1_555
C18A N6A 1_555 1_555
C19A O2A 1_555 1_555
C20A C19A 1_555 1_555
C21A C20A 1_555 1_555
H17A C21A 1_555 1_555
C22A C21A 1_555 1_555
H18A C22A 1_555 1_555
C23A N8A 1_555 1_555
H19A C23A 1_555 1_555
C24A N8A 1_555 1_555
H20A C24A 1_555 1_555
C25A O4A 1_555 1_555
C26A C25A 1_555 1_555
H21A C26A 1_555 1_555
H22A C26A 1_555 1_555
C27A C26A 1_555 1_555
H23A C27A 1_555 1_555
H24A C27A 1_555 1_555
C28A O6A 1_555 1_555
C29A O7A 1_555 1_555
C30A C30 1_555 1_555
H25A C30A 1_555 1_555
H26A C30A 1_555 1_555
C31A O10A 1_555 1_555
C32A C32 1_555 1_555
H27A C32A 1_555 1_555
H28A C32A 1_555 1_555
O8 C29 1_555 1_555
O10 C31 1_555 1_555
C4 C5 1_555 1_555
C4 C6 1_555 1_555
C8 C12 1_555 1_555
C16 C17 1_555 1_555
C16 C18 1_555 1_555
C20 C24 1_555 1_555
C27 C28 1_555 1_555
O8A C29A 1_555 1_555
C4A C5A 1_555 1_555
C4A C6A 1_555 1_555
C8A C12A 1_555 1_555
C10A C11A 1_555 1_555
C16A C17A 1_555 1_555
C16A C18A 1_555 1_555
C20A C24A 1_555 1_555
C22A C23A 1_555 1_555
C27A C28A 1_555 1_555
C29A C30A 1_555 1_555
C31A C32A 1_555 1_555

#END
