
#######################################################################
#
#                 Cambridge Crystallographic Data Centre
#                                CCDC 
#
#######################################################################
#
# If this CIF has been generated from an entry in the Cambridge 
# Structural Database, then it will include bibliographic, chemical, 
# crystal, experimental, refinement or atomic coordinate data resulting 
# from the CCDC's data processing and validation procedures.
#
#######################################################################

data_REFLEV
_symmetry_cell_setting           orthorhombic
_symmetry_space_group_name_H-M   'P b c a'
_symmetry_Int_Tables_number      61
_space_group_name_Hall           '-P 2ac 2ab'
loop_
_symmetry_equiv_pos_site_id
_symmetry_equiv_pos_as_xyz
1 x,y,z
2 1/2-x,-y,1/2+z
3 -x,1/2+y,1/2-z
4 1/2+x,1/2-y,-z
5 -x,-y,-z
6 1/2+x,y,1/2-z
7 x,1/2-y,1/2+z
8 1/2-x,1/2+y,z
_cell_length_a                   12.288(2)
_cell_length_b                   7.3112(13)
_cell_length_c                   34.327(6)
_cell_angle_alpha                90
_cell_angle_beta                 90
_cell_angle_gamma                90
_cell_volume                     3083.94
loop_
_atom_site_label
_atom_site_type_symbol
_atom_site_fract_x
_atom_site_fract_y
_atom_site_fract_z
C1 C 0.1752(2) 0.7482(3) 0.28656(7)
C2 C 0.2063(2) 0.6633(3) 0.24945(7)
C3 C 0.3151(2) 0.6382(4) 0.23984(7)
H1 H 0.3695 0.6724 0.2572
C4 C 0.3415(2) 0.5621(4) 0.20439(8)
H2 H 0.4138 0.5412 0.1978
C5 C 0.2597(2) 0.5175(3) 0.17897(8)
H3 H 0.2782 0.4647 0.1552
C6 C 0.1290(2) 0.6156(4) 0.22194(7)
H4 H 0.0560 0.6323 0.2281
C7 C -0.1027(3) 1.1971(4) 0.41953(8)
C8 C -0.1126(2) 1.2707(4) 0.46044(7)
C9 C -0.0324(2) 1.2332(4) 0.48777(8)
H5 H 0.0288 1.1665 0.4805
C10 C -0.0430(2) 1.2942(4) 0.52562(8)
H6 H 0.0109 1.2684 0.5438
C11 C -0.1344(2) 1.3945(4) 0.53654(7)
C12 C -0.1454(3) 1.4593(4) 0.57760(8)
C13 C -0.2133(2) 1.4333(4) 0.50930(8)
H7 H -0.2742 1.5011 0.5164
C14 C -0.2025(2) 1.3721(4) 0.47131(8)
H8 H -0.2560 1.3993 0.4530
N1 N 0.08606(19) 0.8811(3) 0.33081(6)
N2 N 0.18784(19) 0.8674(3) 0.34267(6)
N3 N 0.24576(18) 0.7837(3) 0.31520(6)
N4 N 0.07480(19) 0.8066(3) 0.29533(6)
N5 N 0.15381(18) 0.5468(3) 0.18686(6)
O1 O -0.01706(18) 1.1093(3) 0.41131(6)
O2 O -0.17749(19) 1.2210(3) 0.39588(6)
O3 O -0.07232(18) 1.4541(3) 0.60144(6)
O4 O -0.24332(19) 1.5243(3) 0.58498(6)
H9 H -0.2509 1.5365 0.6086
O5 O 0.03702(15) 1.2807(3) 0.33774(5)
H10 H 0.1006 1.2767 0.3299
H11 H 0.0333 1.3448 0.3572
O6 O -0.10638(17) 0.7737(3) 0.37942(6)
H12 H -0.0613 0.7033 0.3886
H13 H -0.1653 0.7600 0.3905
Zn1 Zn -0.03920(3) 1.02308(4) 0.356737(9)
N5B N -0.15381(18) 1.0468(3) 0.31314(6)
Zn1B Zn 0.03920(3) 0.52308(4) 0.143263(9)
loop_
_geom_bond_atom_site_label_1
_geom_bond_atom_site_label_2
_geom_bond_site_symmetry_1
_geom_bond_site_symmetry_2
C1 C2 1_555 1_555
C2 C3 1_555 1_555
C3 H1 1_555 1_555
C4 C3 1_555 1_555
H2 C4 1_555 1_555
C5 C4 1_555 1_555
H3 C5 1_555 1_555
C6 C2 1_555 1_555
H4 C6 1_555 1_555
C7 C8 1_555 1_555
C8 C9 1_555 1_555
C9 H5 1_555 1_555
C10 C9 1_555 1_555
H6 C10 1_555 1_555
C11 C10 1_555 1_555
C12 C11 1_555 1_555
C13 C11 1_555 1_555
H7 C13 1_555 1_555
C14 C8 1_555 1_555
H8 C14 1_555 1_555
N1 N2 1_555 1_555
N2 N3 1_555 1_555
N3 C1 1_555 1_555
N4 C1 1_555 1_555
N5 C5 1_555 1_555
O1 C7 1_555 1_555
O2 C7 1_555 1_555
O3 C12 1_555 1_555
O4 C12 1_555 1_555
H9 O4 1_555 1_555
O5 H10 1_555 1_555
H11 O5 1_555 1_555
O6 H12 1_555 1_555
H13 O6 1_555 1_555
Zn1 N1 1_555 1_555
N5B Zn1 1_555 1_555
Zn1B N5 1_555 1_555
C6 N5 1_555 1_555
C13 C14 1_555 1_555
N1 N4 1_555 1_555
O1 Zn1 1_555 1_555
O5 Zn1 1_555 1_555
O6 Zn1 1_555 1_555

#END
