
#######################################################################
#
#                 Cambridge Crystallographic Data Centre
#                                CCDC 
#
#######################################################################
#
# If this CIF has been generated from an entry in the Cambridge 
# Structural Database, then it will include bibliographic, chemical, 
# crystal, experimental, refinement or atomic coordinate data resulting 
# from the CCDC's data processing and validation procedures.
#
#######################################################################

data_REFLIZ
_symmetry_cell_setting           triclinic
_symmetry_space_group_name_H-M   'P -1'
_symmetry_Int_Tables_number      2
_space_group_name_Hall           '-P 1'
loop_
_symmetry_equiv_pos_site_id
_symmetry_equiv_pos_as_xyz
1 x,y,z
2 -x,-y,-z
_cell_length_a                   7.2721(9)
_cell_length_b                   8.3900(11)
_cell_length_c                   9.9920(13)
_cell_angle_alpha                97.179(2)
_cell_angle_beta                 93.433(2)
_cell_angle_gamma                106.6110(10)
_cell_volume                     576.682
loop_
_atom_site_label
_atom_site_type_symbol
_atom_site_fract_x
_atom_site_fract_y
_atom_site_fract_z
C1 C 0.2535(4) 0.3698(3) 0.4098(3)
C2 C 0.2531(4) 0.5348(3) 0.4776(3)
C3 C 0.2557(5) 0.5698(4) 0.6173(3)
H1 H 0.2601 0.4877 0.6708
C4 C 0.2517(5) 0.7267(4) 0.6773(3)
H2 H 0.2530 0.7502 0.7709
C5 C 0.2459(5) 0.8465(4) 0.5976(3)
H3 H 0.2448 0.9529 0.6364
C6 C 0.2455(5) 0.6603(4) 0.4016(3)
H4 H 0.2430 0.6405 0.3078
C7 C 0.1279(4) 0.2557(3) -0.1020(3)
C8 C 0.4961(4) 0.1587(3) -0.0961(3)
C9 C 0.3304(4) 0.5439(3) 0.0018(3)
H5 H 0.2169 0.5740 0.0033
C10 C 0.3219(4) 0.3792(3) -0.0465(3)
C11 C 0.4942(4) 0.3351(3) -0.0482(3)
N1 N 0.2377(4) 0.3288(3) 0.2759(2)
N2 N 0.2401(4) 0.1696(3) 0.2581(2)
N3 N 0.2585(4) 0.1178(3) 0.3771(3)
N4 N 0.2671(4) 0.2431(3) 0.4754(3)
N5 N 0.2419(4) 0.8092(3) 0.4632(3)
H6 H 0.2367 0.8853 0.4141
O1 O 0.3527(3) 0.0376(2) -0.07988(19)
O2 O 0.6428(3) 0.1410(2) -0.1481(2)
O3 O 0.0399(3) 0.1617(2) -0.0174(2)
O4 O 0.0623(3) 0.2522(3) -0.2168(2)
Zn1 Zn 0.20491(4) 0.01403(4) 0.08390(3)
C1A C 0.7465(4) 0.6302(3) -0.4098(3)
C2A C 0.7469(4) 0.4652(3) -0.4776(3)
C3A C 0.7443(5) 0.4302(4) -0.6173(3)
H1A H 0.7399 0.5123 -0.6708
C4A C 0.7483(5) 0.2733(4) -0.6773(3)
H2A H 0.7470 0.2498 -0.7709
C5A C 0.7541(5) 0.1535(4) -0.5976(3)
H3A H 0.7552 0.0471 -0.6364
C6A C 0.7545(5) 0.3397(4) -0.4016(3)
H4A H 0.7570 0.3595 -0.3078
C7A C 0.8721(4) 0.7443(3) 0.1020(3)
C8A C 0.5039(4) 0.8413(3) 0.0961(3)
C9A C 0.6696(4) 0.4561(3) -0.0018(3)
H5A H 0.7831 0.4260 -0.0033
C10A C 0.6781(4) 0.6208(3) 0.0465(3)
C11A C 0.5058(4) 0.6649(3) 0.0482(3)
N1A N 0.7623(4) 0.6712(3) -0.2759(2)
N2A N 0.7599(4) 0.8304(3) -0.2581(2)
N3A N 0.7415(4) 0.8822(3) -0.3771(3)
N4A N 0.7329(4) 0.7569(3) -0.4754(3)
N5A N 0.7581(4) 0.1908(3) -0.4632(3)
H6A H 0.7633 0.1147 -0.4141
O1A O 0.6473(3) 0.9624(2) 0.07988(19)
O2A O 0.3572(3) 0.8590(2) 0.1481(2)
O2A_2 O 0.3572(3) -0.1410(2) 0.1481(2)
O2_2 O 0.6428(3) 1.1410(2) -0.1481(2)
O3A O 0.9601(3) 0.8383(2) 0.0174(2)
O3A_2 O -0.0399(3) -0.1617(2) 0.0174(2)
O3_2 O 1.0399(3) 1.1617(2) -0.0174(2)
O4A O 0.9377(3) 0.7478(3) 0.2168(2)
Zn1A Zn -0.20491(4) -0.01403(4) -0.08390(3)
Zn1_2 Zn 0.20491(4) 1.01403(4) 0.08390(3)
Zn1_3 Zn 1.20491(4) 1.01403(4) 0.08390(3)
Zn1A_2 Zn 0.79509(4) -0.01403(4) -0.08390(3)
Zn1A_3 Zn 0.79509(4) 0.98597(4) -0.08390(3)
loop_
_geom_bond_atom_site_label_1
_geom_bond_atom_site_label_2
_geom_bond_site_symmetry_1
_geom_bond_site_symmetry_2
C1 C2 1_555 1_555
C2 C3 1_555 1_555
C3 H1 1_555 1_555
C4 C3 1_555 1_555
H2 C4 1_555 1_555
C5 C4 1_555 1_555
H3 C5 1_555 1_555
C6 C2 1_555 1_555
H4 C6 1_555 1_555
C7 C10 1_555 1_555
C8 C11 1_555 1_555
C9 H5 1_555 1_555
C10 C9 1_555 1_555
C11 C10 1_555 1_555
N1 C1 1_555 1_555
N2 N1 1_555 1_555
N3 N2 1_555 1_555
N4 C1 1_555 1_555
N5 C5 1_555 1_555
H6 N5 1_555 1_555
O1 C8 1_555 1_555
O2 C8 1_555 1_555
O3 C7 1_555 1_555
O4 C7 1_555 1_555
Zn1 N2 1_555 1_555
C1A C2A 1_555 1_555
C2A C3A 1_555 1_555
C3A H1A 1_555 1_555
C4A C3A 1_555 1_555
H2A C4A 1_555 1_555
C5A C4A 1_555 1_555
H3A C5A 1_555 1_555
C6A C2A 1_555 1_555
H4A C6A 1_555 1_555
C7A C10A 1_555 1_555
C8A C11A 1_555 1_555
C9A C11 1_555 1_555
H5A C9A 1_555 1_555
C10A C9A 1_555 1_555
C11A C9 1_555 1_555
N1A C1A 1_555 1_555
N2A N1A 1_555 1_555
N3A N2A 1_555 1_555
N4A C1A 1_555 1_555
N5A C5A 1_555 1_555
H6A N5A 1_555 1_555
O1A C8A 1_555 1_555
O2A C8A 1_555 1_555
O2A_2 Zn1 1_555 1_555
O2_2 Zn1A_3 1_555 1_555
O3A C7A 1_555 1_555
O3A_2 Zn1 1_555 1_555
O3_2 Zn1_3 1_555 1_555
O4A C7A 1_555 1_555
Zn1A O3 1_555 1_555
Zn1_2 O2A 1_555 1_555
Zn1_3 O3A 1_555 1_555
Zn1A_2 O2 1_555 1_555
Zn1A_3 N2A 1_555 1_555
C6 N5 1_555 1_555
N3 N4 1_555 1_555
O1 Zn1 1_555 1_555
O3 Zn1 1_555 1_555
C6A N5A 1_555 1_555
C10A C11A 1_555 1_555
N3A N4A 1_555 1_555
O1A Zn1A_3 1_555 1_555
O3A Zn1A_3 1_555 1_555
O3A_2 Zn1A 1_555 1_555
O3_2 Zn1A_3 1_555 1_555

#END
