
#######################################################################
#
#                 Cambridge Crystallographic Data Centre
#                                CCDC 
#
#######################################################################
#
# If this CIF has been generated from an entry in the Cambridge 
# Structural Database, then it will include bibliographic, chemical, 
# crystal, experimental, refinement or atomic coordinate data resulting 
# from the CCDC's data processing and validation procedures.
#
#######################################################################

data_REFVAB
_symmetry_cell_setting           orthorhombic
_symmetry_space_group_name_H-M   'P n n a'
_symmetry_Int_Tables_number      52
_space_group_name_Hall           '-P 2a 2bc'
loop_
_symmetry_equiv_pos_site_id
_symmetry_equiv_pos_as_xyz
1 x,y,z
2 1/2-x,-y,z
3 x,1/2-y,1/2-z
4 1/2-x,1/2+y,1/2-z
5 -x,-y,-z
6 1/2+x,y,-z
7 -x,1/2+y,1/2+z
8 1/2+x,1/2-y,1/2+z
_cell_length_a                   15.7091(7)
_cell_length_b                   21.6243(9)
_cell_length_c                   13.2974(5)
_cell_angle_alpha                90
_cell_angle_beta                 90
_cell_angle_gamma                90
_cell_volume                     4517.1
loop_
_atom_site_label
_atom_site_type_symbol
_atom_site_fract_x
_atom_site_fract_y
_atom_site_fract_z
O8 O 0.5234(4) 0.3388(4) 0.8827(5)
H16 H 0.5067 0.3048 0.9076
H17 H 0.5775 0.3398 0.8823
O9 O 0.9607(9) 0.3499(8) 0.3193(13)
H18 H 0.9163 0.3522 0.2829
H19 H 0.9377 0.3314 0.3687
H24 H 0.2128 0.4106 0.9609
H28 H 0.2052 0.4171 0.9845
Zn1 Zn 0.32728(3) 0.69626(2) 0.47827(3)
Ca1 Ca 0.23734(7) 0.7500 0.7500
O1 O 0.2989(2) 0.61336(14) 0.5295(2)
C1 C 0.6463(3) 0.81076(17) 0.6548(3)
C2 C 0.4937(3) 0.80647(18) 0.6515(3)
O2 O 0.7980(2) 0.80383(15) 0.6591(2)
C3 C 0.2500 0.5000 0.6175(4)
H1 H 0.2500 0.5000 0.538(5)
O3 O 0.42215(19) 0.73635(15) 0.5447(2)
O4 O 0.72652(18) 0.74462(14) 0.5513(2)
C4 C 0.7309(3) 0.78588(19) 0.6216(3)
C5 C 0.4133(3) 0.7766(2) 0.6149(3)
C6 C 0.2650(3) 0.61510(18) 0.6150(3)
C7 C 0.5718(2) 0.78336(18) 0.6213(3)
H2 H 0.5742 0.7494 0.5785
O5 O 0.2406(3) 0.66364(14) 0.6556(3)
C8 C 0.4905(3) 0.85649(19) 0.7172(3)
H3 H 0.4379 0.8715 0.7381
C9 C 0.6422(3) 0.86102(19) 0.7203(3)
H4 H 0.6924 0.8791 0.7428
C10 C 0.2549(3) 0.55522(18) 0.6707(3)
C11 C 0.5647(3) 0.8845(2) 0.7525(3)
O6 O 0.3773(4) 0.6679(2) 0.3456(3)
H5 H 0.343(5) 0.681(4) 0.282(7)
H6 H 0.441(6) 0.650(4) 0.321(6)
C12 C 0.2527(3) 0.5547(2) 0.7748(3)
H7 H 0.256(3) 0.590(3) 0.806(4)
O7 O 0.1369(3) 0.7810(3) 0.6286(3)
H8 H 0.1062 0.8128 0.6499
H9 H 0.1627 0.7925 0.5726
C13 C 0.2500 0.5000 0.8289(4)
C14 C 0.5612(3) 0.9386(2) 0.8260(4)
C15 C 0.6418(6) 0.9733(5) 0.8351(8)
H10 H 0.6875 0.9450 0.8487
H11 H 0.6373 1.0025 0.8892
H12 H 0.6530 0.9949 0.7734
C16 C 0.2500 0.5000 0.9445(7)
C17 C 0.4897(7) 0.9817(4) 0.8043(8)
H13 H 0.4948 0.9968 0.7367
H14 H 0.4917 1.0158 0.8504
H15 H 0.4366 0.9602 0.8117
C18 C 0.3397(10) 0.4707(8) 0.9732(9)
H20 H 0.3420 0.4639 1.0445
H21 H 0.3845 0.4984 0.9538
H27 H 0.3037 0.4169 0.9655
C21 C 0.5419(7) 0.9117(4) 0.9310(8)
H29 H 0.4915 0.8867 0.9278
H30 H 0.5332 0.9449 0.9778
H31 H 0.5890 0.8868 0.9528
O10 O 0.34360(19) 0.79165(16) 0.6510(3)
Zn1A Zn 0.17272(3) 0.30374(2) 0.47827(3)
Zn1E Zn 0.82728(3) 0.69626(2) 0.52173(3)
Zn1B Zn 0.32728(3) 0.80374(2) 1.02173(3)
Zn1G Zn 0.82728(3) 0.80374(2) 0.97827(3)
Ca1A Ca 0.26266(7) 0.2500 0.7500
O1A O 0.2011(2) 0.38664(14) 0.5295(2)
C1B C 0.6463(3) 0.68924(17) 0.8452(3)
C2B C 0.4937(3) 0.69353(18) 0.8485(3)
O2B O 0.7980(2) 0.69617(15) 0.8409(2)
O3B O 0.42215(19) 0.76365(15) 0.9553(2)
O3A O 0.07785(19) 0.26365(15) 0.5447(2)
O4B O 0.72652(18) 0.75538(14) 0.9487(2)
O4E O 0.22652(18) 0.74462(14) 0.4487(2)
O4D O 0.27348(18) 0.25538(14) 0.4487(2)
C4B C 0.7309(3) 0.71412(19) 0.8784(3)
C5B C 0.4133(3) 0.7234(2) 0.8851(3)
C6A C 0.2350(3) 0.38490(18) 0.6150(3)
C7B C 0.5718(2) 0.71664(18) 0.8787(3)
H2B H 0.5742 0.7506 0.9215
O5A O 0.2594(3) 0.33636(14) 0.6556(3)
O5B O 0.2406(3) 0.83636(14) 0.8444(3)
C8B C 0.4905(3) 0.64351(19) 0.7828(3)
H3B H 0.4379 0.6285 0.7619
C9B C 0.6422(3) 0.63898(19) 0.7797(3)
H4B H 0.6924 0.6209 0.7572
C10A C 0.2451(3) 0.44478(18) 0.6707(3)
C11B C 0.5647(3) 0.6155(2) 0.7475(3)
O6A O 0.1227(4) 0.3321(2) 0.3456(3)
H5A H 0.157(5) 0.319(4) 0.282(7)
H6A H 0.059(6) 0.350(4) 0.321(6)
C12A C 0.2473(3) 0.4453(2) 0.7748(3)
H7A H 0.244(3) 0.410(3) 0.806(4)
O7B O 0.1369(3) 0.7190(3) 0.8714(3)
H8B H 0.1062 0.6872 0.8501
H9B H 0.1627 0.7075 0.9274
C14B C 0.5612(3) 0.5614(2) 0.6740(4)
C15B C 0.6418(6) 0.5267(5) 0.6649(8)
H10B H 0.6875 0.5550 0.6513
H11B H 0.6373 0.4975 0.6108
H12B H 0.6530 0.5051 0.7266
C17B C 0.4897(7) 0.5183(4) 0.6957(8)
H13B H 0.4948 0.5032 0.7633
H14B H 0.4917 0.4842 0.6496
H15B H 0.4366 0.5398 0.6883
C18A C 0.1603(10) 0.5293(8) 0.9732(9)
H20A H 0.1580 0.5361 1.0445
H21A H 0.1155 0.5016 0.9538
H27A H 0.1963 0.5831 0.9655
C21B C 0.5419(7) 0.5883(4) 0.5690(8)
H29B H 0.4915 0.6133 0.5722
H30B H 0.5332 0.5551 0.5222
H31B H 0.5890 0.6132 0.5472
O10B O 0.34360(19) 0.70835(16) 0.8490(3)
H22? H 0.3466 0.4320 0.9389
C19? C 0.1955(14) 0.4498(9) 0.9879(10)
H23? H 0.2017 0.4493 1.0598
H25? H 0.1370 0.4573 0.9710
C20? C 0.2428(16) 0.5603(7) 0.9941(10)
H26? H 0.2331 0.5545 1.0647
loop_
_geom_bond_atom_site_label_1
_geom_bond_atom_site_label_2
_geom_bond_site_symmetry_1
_geom_bond_site_symmetry_2
Zn1 O1 1_555 1_555
Ca1 O5 1_555 1_555
O1 C6 1_555 1_555
C1 C4 1_555 1_555
C2 C5 1_555 1_555
O2 C4 1_555 1_555
C3 H1 1_555 1_555
O3 Zn1 1_555 1_555
O4 C4 1_555 1_555
C5 O3 1_555 1_555
C6 O5 1_555 1_555
C7 C1 1_555 1_555
H2 C7 1_555 1_555
C8 C2 1_555 1_555
H3 C8 1_555 1_555
C9 C1 1_555 1_555
H4 C9 1_555 1_555
C10 C3 1_555 1_555
C11 C8 1_555 1_555
O6 Zn1 1_555 1_555
H5 O6 1_555 1_555
H6 O6 1_555 1_555
C12 C10 1_555 1_555
H7 C12 1_555 1_555
O7 Ca1 1_555 1_555
H8 O7 1_555 1_555
H9 O7 1_555 1_555
C13 C12 1_555 1_555
C14 C11 1_555 1_555
C15 C14 1_555 1_555
H10 C15 1_555 1_555
H11 C15 1_555 1_555
H12 C15 1_555 1_555
C16 C13 1_555 1_555
C17 C14 1_555 1_555
H13 C17 1_555 1_555
H14 C17 1_555 1_555
H15 C17 1_555 1_555
O8 H16 1_555 1_555
H17 O8 1_555 1_555
O9 H18 1_555 1_555
H19 O9 1_555 1_555
C18 C16 1_555 1_555
H20 C18 1_555 1_555
H21 C18 1_555 1_555
H24 H28 1_555 1_555
H27 C18 1_555 1_555
C21 C14 1_555 1_555
H29 C21 1_555 1_555
H30 C21 1_555 1_555
H31 C21 1_555 1_555
O10 Ca1 1_555 1_555
Zn1A O1A 1_555 1_555
Zn1E O4 1_555 1_555
Zn1B O3B 1_555 1_555
Zn1G O4B 1_555 1_555
Ca1A O5A 1_555 1_555
O1A C6A 1_555 1_555
C1B C4B 1_555 1_555
C2B C5B 1_555 1_555
O2B C4B 1_555 1_555
O3B C5B 1_555 1_555
O3A Zn1A 1_555 1_555
O4B C4B 1_555 1_555
O4E Zn1 1_555 1_555
O4D Zn1A 1_555 1_555
C5B O10B 1_555 1_555
C6A O5A 1_555 1_555
C7B C1B 1_555 1_555
H2B C7B 1_555 1_555
O5B Ca1 1_555 1_555
C8B C2B 1_555 1_555
H3B C8B 1_555 1_555
C9B C1B 1_555 1_555
H4B C9B 1_555 1_555
C10A C3 1_555 1_555
C11B C8B 1_555 1_555
O6A Zn1A 1_555 1_555
H5A O6A 1_555 1_555
H6A O6A 1_555 1_555
C12A C13 1_555 1_555
H7A C12A 1_555 1_555
O7B Ca1 1_555 1_555
H8B O7B 1_555 1_555
H9B O7B 1_555 1_555
C14B C11B 1_555 1_555
C15B C14B 1_555 1_555
H10B C15B 1_555 1_555
H11B C15B 1_555 1_555
H12B C15B 1_555 1_555
C17B C14B 1_555 1_555
H13B C17B 1_555 1_555
H14B C17B 1_555 1_555
H15B C17B 1_555 1_555
C18A C16 1_555 1_555
H20A C18A 1_555 1_555
H21A C18A 1_555 1_555
H27A C18A 1_555 1_555
C21B C14B 1_555 1_555
H29B C21B 1_555 1_555
H30B C21B 1_555 1_555
H31B C21B 1_555 1_555
O10B Ca1 1_555 1_555
C2 C7 1_555 1_555
C5 O10 1_555 1_555
C6 C10 1_555 1_555
C9 C11 1_555 1_555
C2B C7B 1_555 1_555
C6A C10A 1_555 1_555
C9B C11B 1_555 1_555
C10A C12A 1_555 1_555

#END
