
#######################################################################
#
#                 Cambridge Crystallographic Data Centre
#                                CCDC 
#
#######################################################################
#
# If this CIF has been generated from an entry in the Cambridge 
# Structural Database, then it will include bibliographic, chemical, 
# crystal, experimental, refinement or atomic coordinate data resulting 
# from the CCDC's data processing and validation procedures.
#
#######################################################################

data_REGLIA
_symmetry_cell_setting           orthorhombic
_symmetry_space_group_name_H-M   'P 21 21 21'
_symmetry_Int_Tables_number      19
_space_group_name_Hall           'P 2ac 2ab'
loop_
_symmetry_equiv_pos_site_id
_symmetry_equiv_pos_as_xyz
1 x,y,z
2 1/2-x,-y,1/2+z
3 -x,1/2+y,1/2-z
4 1/2+x,1/2-y,-z
_cell_length_a                   6.4001(3)
_cell_length_b                   17.2148(9)
_cell_length_c                   18.6406(9)
_cell_angle_alpha                90
_cell_angle_beta                 90
_cell_angle_gamma                90
_cell_volume                     2053.75
loop_
_atom_site_label
_atom_site_type_symbol
_atom_site_fract_x
_atom_site_fract_y
_atom_site_fract_z
Cd1 Cd 0.08671(4) 0.489785(14) 0.220983(14)
Cd2 Cd 0.94016(4) 0.244553(15) 0.379516(14)
Cd3 Cd 0.14108(5) 0.408020(16) -0.006360(15)
O1 O 0.2261(4) 0.42787(15) 0.11793(14)
O2 O 0.4166(6) 0.34155(19) 0.06071(16)
O3 O 0.4267(5) 0.41090(16) 0.24339(13)
H1 H 0.445(8) 0.398(3) 0.2871(9)
O4 O 0.7806(5) 0.43720(16) 0.15923(15)
H2 H 0.668(4) 0.458(3) 0.173(3)
O5 O 0.7695(4) 0.27427(15) 0.27775(15)
O6 O 0.9824(4) 0.37605(15) 0.27192(14)
O7 O 0.2194(4) 0.53658(15) 0.32708(14)
O8 O 0.3805(4) 0.63523(15) 0.38263(14)
O9 O 0.3999(4) 0.57091(14) 0.19944(13)
H3 H 0.393(8) 0.598(2) 0.1619(14)
O10 O 0.7561(4) 0.53564(15) 0.28585(15)
H4 H 0.776(8) 0.532(3) 0.3305(7)
O11 O 0.7654(5) 0.71447(16) 0.18568(16)
O12 O 0.9625(4) 0.60786(15) 0.17824(14)
O13 O 1.1360(4) 0.26863(16) 0.47961(14)
O14 O 1.1736(5) 0.33321(15) 0.58191(14)
O15 O 0.8456(4) 0.36408(15) 0.42886(14)
H5 H 0.721(3) 0.372(3) 0.415(2)
O16 O 1.1636(4) 0.47946(17) 0.46732(15)
H6 H 1.137(8) 0.475(3) 0.4232(8)
O17 O 0.6352(4) 0.51856(18) 0.52161(18)
O18 O 0.8186(7) 0.5584(2) 0.4294(2)
O19 O -0.0938(6) 0.30354(18) 0.01285(17)
H7 H -0.044(7) 0.264(2) -0.009(2)
H8 H -0.199(6) 0.318(3) -0.012(2)
C1 C 0.3662(6) 0.3761(2) 0.1181(2)
C2 C 0.4832(6) 0.3560(2) 0.1883(2)
H9 H 0.4434 0.3037 0.2037
C3 C 0.7214(6) 0.3593(2) 0.1781(2)
H10 H 0.7623 0.3238 0.1395
C4 C 0.8353(6) 0.3359(2) 0.24839(19)
C5 C 0.3418(6) 0.5942(2) 0.32795(19)
C6 C 0.4569(6) 0.6195(2) 0.25910(18)
H11 H 0.4195 0.6733 0.2480
C7 C 0.6958(5) 0.6144(2) 0.2712(2)
H12 H 0.7309 0.6460 0.3132
C8 C 0.8151(5) 0.6468(2) 0.20667(19)
C9 C 1.0856(6) 0.32234(19) 0.52190(18)
C10 C 0.9074(5) 0.37881(18) 0.50129(18)
H13 H 0.7879 0.3700 0.5331
C11 C 0.9782(6) 0.4645(2) 0.5078(2)
H14 H 1.0086 0.4751 0.5585
C12 C 0.8004(7) 0.5185(2) 0.4842(2)
Cd1_2 Cd 1.08671(4) 0.489785(14) 0.220983(14)
Cd2B Cd 1.05984(4) 0.744553(15) 0.120484(14)
Cd2C Cd 1.44016(4) 0.255447(15) 0.620484(14)
Cd3A Cd 0.35892(5) 0.591980(16) 0.493640(15)
Cd3A_2 Cd 1.35892(5) 0.591980(16) 0.493640(15)
O4_2 O -0.2194(5) 0.43720(16) 0.15923(15)
H2_2 H -0.332(4) 0.458(3) 0.173(3)
O6_2 O -0.0176(4) 0.37605(15) 0.27192(14)
O8A O 0.1195(4) 0.36477(15) -0.11737(14)
O10_2 O -0.2439(4) 0.53564(15) 0.28585(15)
H4_2 H -0.224(8) 0.532(3) 0.3305(7)
O11B O 1.2346(5) 0.21447(16) 0.31432(16)
O12_2 O -0.0375(4) 0.60786(15) 0.17824(14)
O14C O 0.6736(5) 0.16679(15) 0.41809(14)
O16A O 0.3364(4) 0.52054(17) -0.03268(15)
H6A H 0.363(8) 0.525(3) -0.0768(8)
O17A O -0.1352(4) 0.48144(18) 0.02161(18)
O20 O 0.4453(5) 0.3662(2) 0.38971(17)
H15 H 0.4244 0.3178 0.3827
H16 H 0.3698 0.3737 0.4268
loop_
_geom_bond_atom_site_label_1
_geom_bond_atom_site_label_2
_geom_bond_site_symmetry_1
_geom_bond_site_symmetry_2
Cd1 O1 1_555 1_555
Cd2 O5 1_555 1_555
Cd3 O1 1_555 1_555
O1 C1 1_555 1_555
O2 Cd3 1_555 1_555
O3 Cd1 1_555 1_555
H1 O3 1_555 1_555
O4 H2 1_555 1_555
O5 C4 1_555 1_555
O6 C4 1_555 1_555
O7 Cd1 1_555 1_555
O8 C5 1_555 1_555
O9 Cd1 1_555 1_555
H3 O9 1_555 1_555
O10 H4 1_555 1_555
O11 C8 1_555 1_555
O12 C8 1_555 1_555
O13 Cd2 1_555 1_555
O14 C9 1_555 1_555
O15 Cd2 1_555 1_555
H5 O15 1_555 1_555
O16 H6 1_555 1_555
O17 C12 1_555 1_555
O18 C12 1_555 1_555
O19 Cd3 1_555 1_555
H7 O19 1_555 1_555
H8 O19 1_555 1_555
C1 O2 1_555 1_555
C2 O3 1_555 1_555
H9 C2 1_555 1_555
C3 O4 1_555 1_555
H10 C3 1_555 1_555
C4 C3 1_555 1_555
C5 O7 1_555 1_555
C6 O9 1_555 1_555
H11 C6 1_555 1_555
C7 O10 1_555 1_555
H12 C7 1_555 1_555
C8 C7 1_555 1_555
C9 O13 1_555 1_555
C10 O15 1_555 1_555
H13 C10 1_555 1_555
C11 O16 1_555 1_555
H14 C11 1_555 1_555
C12 C11 1_555 1_555
O20 H15 1_555 1_555
H16 O20 1_555 1_555
Cd1_2 O4 1_555 1_555
Cd2B O11 1_555 1_555
Cd2C O14 1_555 1_555
Cd3A O8 1_555 1_555
Cd3A_2 O16 1_555 1_555
O4_2 Cd1 1_555 1_555
H2_2 O4_2 1_555 1_555
O6_2 Cd1 1_555 1_555
O8A Cd3 1_555 1_555
O10_2 Cd1 1_555 1_555
H4_2 O10_2 1_555 1_555
O11B Cd2 1_555 1_555
O12_2 Cd1 1_555 1_555
O14C Cd2 1_555 1_555
O16A Cd3 1_555 1_555
H6A O16A 1_555 1_555
O17A Cd3 1_555 1_555
O6 Cd1_2 1_555 1_555
O10 Cd1_2 1_555 1_555
O12 Cd1_2 1_555 1_555
O17 Cd3A 1_555 1_555
C1 C2 1_555 1_555
C2 C3 1_555 1_555
C5 C6 1_555 1_555
C6 C7 1_555 1_555
C9 C10 1_555 1_555
C10 C11 1_555 1_555

#END
