
#######################################################################
#
#                 Cambridge Crystallographic Data Centre
#                                CCDC 
#
#######################################################################
#
# If this CIF has been generated from an entry in the Cambridge 
# Structural Database, then it will include bibliographic, chemical, 
# crystal, experimental, refinement or atomic coordinate data resulting 
# from the CCDC's data processing and validation procedures.
#
#######################################################################

data_REGQUR
_symmetry_cell_setting           hexagonal
_symmetry_space_group_name_H-M   'P 63 c m'
_symmetry_Int_Tables_number      185
_space_group_name_Hall           "P 6c -2'"
loop_
_symmetry_equiv_pos_site_id
_symmetry_equiv_pos_as_xyz
1 x,y,z
2 -y,x-y,z
3 -x+y,-x,z
4 -x,-y,1/2+z
5 y,-x+y,1/2+z
6 x-y,x,1/2+z
7 -y,-x,1/2+z
8 -x+y,y,1/2+z
9 x,x-y,1/2+z
10 y,x,z
11 x-y,-y,z
12 -x,-x+y,z
_cell_length_a                   18.5924(8)
_cell_length_b                   18.5924(8)
_cell_length_c                   17.9643(9)
_cell_angle_alpha                90
_cell_angle_beta                 90
_cell_angle_gamma                120
_cell_volume                     5377.89
loop_
_atom_site_label
_atom_site_type_symbol
_atom_site_fract_x
_atom_site_fract_y
_atom_site_fract_z
Zn1 Zn 0.90074(5) 0.24295(6) 0.38067(5)
Zn2 Zn 0.65585(7) 0.0000 0.72346(8)
O1 O 0.7926(4) 0.2362(4) 0.3909(5)
O2 O 0.8759(5) 0.3620(6) 0.4249(5)
O3 O 0.7796(5) 0.0900(6) 0.7104(4)
O4 O 0.8488(4) 0.1225(4) 0.8155(3)
O5 O 0.9317(4) 0.2182(4) 0.4789(3)
O6 O 1.0000 0.3396(4) 0.3380(4)
O7 O 0.6324(8) 0.0000 0.6129(7)
O8 O 0.6217(7) 0.0912(7) 0.7385(5)
C1 C 0.8081(6) 0.3069(6) 0.4117(5)
C2 C 0.7331(7) 0.3201(6) 0.4129(6)
C3 C 0.7451(6) 0.4002(6) 0.4147(6)
H1 H 0.7988 0.4454 0.4172
C4 C 0.8446(5) 0.1220(6) 0.7458(4)
C5 C 0.9260(5) 0.1686(5) 0.7048(4)
C6 C 0.9261(5) 0.1857(5) 0.6279(4)
H2 H 0.8764 0.1693 0.6029
C7 C 1.0000 0.2267(6) 0.5911(6)
C8 C 1.0000 0.2472(6) 0.5082(6)
C9 C 1.0000 0.2014(6) 0.7425(6)
H3 H 1.0000 0.1957 0.7939
C10 C 0.6773(11) 0.0000 0.5557(8)
C11 C 0.7089(11) 0.0000 0.4272(14)
C12 C 0.7747(18) 0.0000 0.4777(12)
C13 C 0.5771(11) 0.1136(11) 0.7095(9)
C14 C 0.522(3) 0.168(3) 0.621(2)
C15 C 0.485(2) 0.163(3) 0.697(3)
N1 N 0.6448(15) 0.0000 0.4873(12)
N2 N 0.7495(8) 0.0000 0.5568(8)
N3 N 0.551(3) 0.102(2) 0.6453(13)
N4 N 0.5258(18) 0.139(2) 0.7392(15)
Zn1B Zn 0.34221(8) 0.09926(5) 0.38067(5)
Zn1F Zn 0.75705(6) 0.09926(5) 0.88067(5)
Zn1A Zn 0.75705(6) 0.65779(8) 0.38067(5)
Zn1D Zn 1.24295(6) 0.34221(8) 0.88067(5)
Zn1K Zn 1.09926(5) 0.34221(8) 0.38067(5)
Zn2B Zn 1.34415(7) 0.34415(7) 0.72346(8)
Zn2D Zn 1.0000 0.34415(7) 0.22346(8)
O1A O 0.7638(4) 0.5564(6) 0.3909(5)
O1B O 0.4436(6) 0.2074(4) 0.3909(5)
O1F O 0.7638(4) 0.2074(4) 0.8909(5)
O2A O 0.6380(6) 0.5139(8) 0.4249(5)
O2B O 0.4861(8) 0.1241(5) 0.4249(5)
O3K O 1.2204(5) 0.3104(8) 0.7104(4)
O3J O 0.6896(8) -0.0900(6) 0.7104(4)
O4K O 1.1512(4) 0.2737(6) 0.8155(3)
O4F O 0.8775(4) 0.1512(4) 0.3155(3)
O4G O 0.2737(6) 0.1225(4) 0.3155(3)
O5K O 1.0683(4) 0.2865(6) 0.4789(3)
O5F O 0.7818(4) 0.0683(4) 0.9789(3)
O5B O 0.2865(6) 0.0683(4) 0.4789(3)
O6E O 0.6604(4) 0.0000 0.8380(4)
O6B O 0.3396(4) 0.0000 0.3380(4)
O8J O 0.5305(10) -0.0912(7) 0.7385(5)
C1A C 0.6931(6) 0.5012(8) 0.4117(5)
C1B C 0.4988(8) 0.1919(6) 0.4117(5)
C2A C 0.6799(6) 0.4130(9) 0.4129(6)
C2B C 0.5870(9) 0.2669(7) 0.4129(6)
C3A C 0.5998(6) 0.3449(8) 0.4147(6)
C3B C 0.6551(8) 0.2549(6) 0.4147(6)
H1A H 0.5546 0.3534 0.4172
H1B H 0.6466 0.2012 0.4172
C4K C 1.1554(5) 0.2774(8) 0.7458(4)
C5K C 1.0740(5) 0.2426(7) 0.7048(4)
C6K C 1.0739(5) 0.2596(7) 0.6279(4)
H2K H 1.1236 0.2929 0.6029
C13J C 0.4635(16) -0.1136(11) 0.7095(9)
C14J C 0.354(4) -0.168(3) 0.621(2)
C15J C 0.322(4) -0.163(3) 0.697(3)
N3J N 0.449(4) -0.102(2) 0.6453(13)
N4J N 0.3868(27) -0.139(2) 0.7392(15)
loop_
_geom_bond_atom_site_label_1
_geom_bond_atom_site_label_2
_geom_bond_site_symmetry_1
_geom_bond_site_symmetry_2
Zn1 O1 1_555 1_555
Zn2 O3 1_555 1_555
O1 C1 1_555 1_555
O2 C1 1_555 1_555
O3 C4 1_555 1_555
O4 C4 1_555 1_555
O5 Zn1 1_555 1_555
O6 Zn1 1_555 1_555
O7 Zn2 1_555 1_555
O8 Zn2 1_555 1_555
C1 C2 1_555 1_555
C2 C3 1_555 1_555
C3 H1 1_555 1_555
C4 C5 1_555 1_555
C5 C6 1_555 1_555
C6 H2 1_555 1_555
C7 C6 1_555 1_555
C8 O5 1_555 1_555
C9 C5 1_555 1_555
H3 C9 1_555 1_555
C10 O7 1_555 1_555
C11 C12 1_555 1_555
C12 N2 1_555 1_555
C13 O8 1_555 1_555
C14 C15 1_555 1_555
C15 N4 1_555 1_555
N1 C10 1_555 1_555
N2 C10 1_555 1_555
N3 C13 1_555 1_555
N4 C13 1_555 1_555
Zn1B O1B 1_555 1_555
Zn1F O4 1_555 1_555
Zn1A O1A 1_555 1_555
Zn1D O4K 1_555 1_555
Zn1K O6 1_555 1_555
Zn2B O3K 1_555 1_555
Zn2D O6 1_555 1_555
O1A C1A 1_555 1_555
O1B C1B 1_555 1_555
O1F Zn1F 1_555 1_555
O2A C1A 1_555 1_555
O2B C1B 1_555 1_555
O3K C4K 1_555 1_555
O3J Zn2 1_555 1_555
O4K C4K 1_555 1_555
O4F Zn1 1_555 1_555
O4G Zn1B 1_555 1_555
O5K C8 1_555 1_555
O5F Zn1F 1_555 1_555
O5B Zn1B 1_555 1_555
O6E Zn2 1_555 1_555
O6B Zn1B 1_555 1_555
O8J Zn2 1_555 1_555
C1A C2A 1_555 1_555
C1B C2B 1_555 1_555
C2A C3 1_555 1_555
C2B C3A 1_555 1_555
C3A C2A 1_555 1_555
C3B C2 1_555 1_555
H1A C3A 1_555 1_555
H1B C3B 1_555 1_555
C4K C5K 1_555 1_555
C5K C9 1_555 1_555
C6K C7 1_555 1_555
H2K C6K 1_555 1_555
C13J O8J 1_555 1_555
C14J C15J 1_555 1_555
C15J N4J 1_555 1_555
N3J C13J 1_555 1_555
N4J C13J 1_555 1_555
C7 C8 1_555 1_555
C11 N1 1_555 1_555
C14 N3 1_555 1_555
Zn1F O6E 1_555 1_555
Zn1K O5K 1_555 1_555
C2B C3B 1_555 1_555
C5K C6K 1_555 1_555
C14J N3J 1_555 1_555

#END
