
#######################################################################
#
#                 Cambridge Crystallographic Data Centre
#                                CCDC 
#
#######################################################################
#
# If this CIF has been generated from an entry in the Cambridge 
# Structural Database, then it will include bibliographic, chemical, 
# crystal, experimental, refinement or atomic coordinate data resulting 
# from the CCDC's data processing and validation procedures.
#
#######################################################################

data_REGQAX
_symmetry_cell_setting           monoclinic
_symmetry_space_group_name_H-M   'P 21/c'
_symmetry_Int_Tables_number      14
_space_group_name_Hall           '-P 2ybc'
loop_
_symmetry_equiv_pos_site_id
_symmetry_equiv_pos_as_xyz
1 x,y,z
2 -x,1/2+y,1/2-z
3 -x,-y,-z
4 x,1/2-y,1/2+z
_cell_length_a                   7.458(4)
_cell_length_b                   20.353(10)
_cell_length_c                   15.350(8)
_cell_angle_alpha                90
_cell_angle_beta                 96.200(12)
_cell_angle_gamma                90
_cell_volume                     2316.39
loop_
_atom_site_label
_atom_site_type_symbol
_atom_site_fract_x
_atom_site_fract_y
_atom_site_fract_z
Nd1 Nd 0.43146(7) 1.03984(3) 0.27643(4)
Mo1 Mo 0.40390(11) 0.84366(4) 0.33589(6)
Mo2 Mo -0.10134(11) 0.83737(4) 0.33400(6)
O1 O 0.4424(8) 0.7909(3) 0.2554(4)
O2 O 0.1734(8) 0.8263(3) 0.3450(4)
O3 O 0.3986(8) 0.9228(3) 0.2916(4)
O4 O -0.0825(8) 0.8991(3) 0.2610(4)
O5 O -0.1436(9) 0.7697(3) 0.2731(4)
O6 O 0.6821(8) 0.8551(3) 0.3701(4)
O7 O 0.5824(8) 1.1126(3) 0.5308(4)
O8 O 0.5145(9) 1.1259(3) 0.3865(5)
O9 O 0.3064(11) 1.4511(4) 0.4925(5)
O10 O 0.3861(10) 1.4226(3) 0.6295(4)
O11 O -0.0199(9) 0.8944(3) 0.4561(5)
O12 O 0.0421(9) 0.8976(4) 0.6016(5)
O13 O 0.2082(12) 0.5597(4) 0.5450(5)
O14 O 0.1103(11) 0.5752(4) 0.4082(5)
N1 N -0.0259(10) 0.7669(4) 0.4503(5)
N2 N 0.5200(10) 1.2358(4) 0.5636(5)
C1 C 0.4829(13) 1.2991(5) 0.5828(6)
H1 H 0.5083 1.3133 0.6404
C2 C 0.4107(12) 1.3428(5) 0.5220(7)
C3 C 0.3743(14) 1.3216(5) 0.4362(7)
H2 H 0.3219 1.3503 0.3936
C4 C 0.4152(13) 1.2584(5) 0.4138(7)
H3 H 0.3956 1.2441 0.3560
C5 C 0.4869(12) 1.2166(5) 0.4802(6)
C6 C 0.5301(13) 1.1462(5) 0.4630(7)
C7 C 0.3666(13) 1.4113(5) 0.5503(8)
C8 C 0.0034(13) 0.7032(6) 0.4388(7)
H4 H -0.0339 0.6844 0.3847
C9 C 0.0886(14) 0.6634(5) 0.5054(7)
C10 C 0.1345(15) 0.6907(6) 0.5877(7)
H5 H 0.1855 0.6648 0.6338
C11 C 0.1030(14) 0.7570(5) 0.6000(7)
H6 H 0.1305 0.7766 0.6545
C12 C 0.0296(12) 0.7928(5) 0.5287(7)
C13 C 0.0158(13) 0.8664(5) 0.5301(8)
C14 C 0.1341(14) 0.5936(5) 0.4822(8)
O15 O 0.2695(10) 1.0157(3) 0.4088(4)
O16 O 0.6828(9) 0.9966(3) 0.3814(4)
O17 O 0.1196(9) 1.0062(4) 0.2209(5)
O18 O 0.1939(9) 1.1333(3) 0.2693(4)
O19 O 0.6397(9) 0.9775(3) 0.1849(4)
O20 O 0.7058(9) 1.1091(3) 0.2480(4)
Nd1C Nd 0.43146(7) 1.46016(3) 0.77643(4)
Mo1B Mo 0.59610(11) 1.15634(4) 0.66411(6)
Mo2_2 Mo 0.89866(11) 0.83737(4) 0.33400(6)
O6_2 O -0.3179(8) 0.8551(3) 0.3701(4)
O7B O 0.4176(8) 0.8874(3) 0.4692(4)
O10C O 0.3861(10) 1.0774(3) 0.1295(4)
N2B N 0.4800(10) 0.7642(4) 0.4364(5)
loop_
_geom_bond_atom_site_label_1
_geom_bond_atom_site_label_2
_geom_bond_site_symmetry_1
_geom_bond_site_symmetry_2
Nd1 O3 1_555 1_555
Mo1 O1 1_555 1_555
Mo2 O2 1_555 1_555
O2 Mo1 1_555 1_555
O3 Mo1 1_555 1_555
O4 Mo2 1_555 1_555
O5 Mo2 1_555 1_555
O6 Mo1 1_555 1_555
O7 C6 1_555 1_555
O8 Nd1 1_555 1_555
O9 C7 1_555 1_555
O10 C7 1_555 1_555
O11 Mo2 1_555 1_555
O12 C13 1_555 1_555
O13 C14 1_555 1_555
O14 C14 1_555 1_555
N1 Mo2 1_555 1_555
N2 C1 1_555 1_555
C1 H1 1_555 1_555
C2 C1 1_555 1_555
C3 C2 1_555 1_555
H2 C3 1_555 1_555
C4 C3 1_555 1_555
H3 C4 1_555 1_555
C5 N2 1_555 1_555
C6 O8 1_555 1_555
C7 C2 1_555 1_555
C8 N1 1_555 1_555
H4 C8 1_555 1_555
C9 C8 1_555 1_555
C10 C9 1_555 1_555
H5 C10 1_555 1_555
C11 C10 1_555 1_555
H6 C11 1_555 1_555
C12 N1 1_555 1_555
C13 O11 1_555 1_555
C14 C9 1_555 1_555
O15 Nd1 1_555 1_555
O16 Nd1 1_555 1_555
O17 Nd1 1_555 1_555
O18 Nd1 1_555 1_555
O19 Nd1 1_555 1_555
O20 Nd1 1_555 1_555
Nd1C O10 1_555 1_555
Mo1B O7 1_555 1_555
Mo2_2 O6 1_555 1_555
O6_2 Mo2 1_555 1_555
O7B Mo1 1_555 1_555
O10C Nd1 1_555 1_555
N2B Mo1 1_555 1_555
N2 Mo1B 1_555 1_555
C4 C5 1_555 1_555
C5 C6 1_555 1_555
C11 C12 1_555 1_555
C12 C13 1_555 1_555

#END
