
#######################################################################
#
#                 Cambridge Crystallographic Data Centre
#                                CCDC 
#
#######################################################################
#
# If this CIF has been generated from an entry in the Cambridge 
# Structural Database, then it will include bibliographic, chemical, 
# crystal, experimental, refinement or atomic coordinate data resulting 
# from the CCDC's data processing and validation procedures.
#
#######################################################################

data_REGQOL
_symmetry_cell_setting           monoclinic
_symmetry_space_group_name_H-M   'P c'
_symmetry_Int_Tables_number      7
_space_group_name_Hall           'P -2yc'
loop_
_symmetry_equiv_pos_site_id
_symmetry_equiv_pos_as_xyz
1 x,y,z
2 x,-y,1/2+z
_cell_length_a                   12.494(2)
_cell_length_b                   7.5743(14)
_cell_length_c                   16.854(2)
_cell_angle_alpha                90
_cell_angle_beta                 125.951(10)
_cell_angle_gamma                90
_cell_volume                     1291.14
loop_
_atom_site_label
_atom_site_type_symbol
_atom_site_fract_x
_atom_site_fract_y
_atom_site_fract_z
Er1 Er 0.83534(10) 0.89034(8) 0.21650(9)
Mo1 Mo 0.42507(12) 0.58112(15) 0.48705(11)
Mo2 Mo 0.43382(11) 0.91861(14) -0.00787(10)
Na1 Na 0.834(2) 0.3911(14) 0.2252(16)
O1 O 0.4243(11) 0.3522(13) 0.4695(8)
O2 O 0.5849(10) 0.6092(13) 0.5903(8)
O3 O 0.3284(11) 0.5989(14) 0.5294(9)
O4 O 0.4272(11) 0.8562(13) 0.4692(9)
O5 O 0.2518(10) 0.6218(13) 0.3383(7)
O6 O 0.1661(13) 0.734(2) 0.1894(11)
O7 O 0.8647(12) 0.5424(19) 0.4381(10)
O8 O 0.7993(11) 0.6992(17) 0.3049(9)
O9 O 0.3382(10) 0.9043(13) 0.0352(8)
O10 O 0.5957(9) 0.8953(13) 0.0965(8)
O11 O 0.2568(10) 1.1187(13) 0.3402(8)
O12 O 0.1730(12) 1.2361(17) 0.1923(9)
O13 O 0.8731(11) 1.0347(19) 0.4571(9)
O14 O 0.7963(12) 1.0719(16) 0.3031(10)
N1 N 0.4917(13) 0.6104(16) 0.3807(10)
N2 N 0.4946(13) 1.1126(17) 0.3848(10)
C1 C 0.3932(15) 0.663(2) 0.2882(12)
C2 C 0.4127(16) 0.703(2) 0.2182(13)
H1 H 0.3424 0.7388 0.1558
C3 C 0.5371(18) 0.690(3) 0.2418(14)
H2 H 0.5531 0.7162 0.1958
C4 C 0.6413(14) 0.6353(18) 0.3374(11)
C5 C 0.6124(14) 0.5956(17) 0.3999(11)
H3 H 0.6809 0.5545 0.4615
C6 C 0.2582(15) 0.672(2) 0.2666(12)
C7 C 0.7811(17) 0.623(2) 0.3628(13)
C8 C 0.4050(14) 1.174(2) 0.2974(12)
C9 C 0.4277(17) 1.220(2) 0.2290(13)
H4 H 0.3613 1.2691 0.1690
C10 C 0.5537(16) 1.190(2) 0.2534(13)
H5 H 0.5736 1.2140 0.2093
C11 C 0.6497(14) 1.1218(18) 0.3469(12)
C12 C 0.6206(15) 1.0886(19) 0.4096(12)
H6 H 0.6869 1.0480 0.4721
C13 C 0.2662(14) 1.178(2) 0.2717(11)
C14 C 0.7861(15) 1.077(2) 0.3733(14)
O15 O 0.7704(10) 1.1443(13) 0.1186(9)
O16 O 1.0212(11) 1.0813(18) 0.3147(9)
O17 O 1.0291(10) 0.7088(15) 0.3197(9)
O18 O 0.7726(11) 0.6290(14) 0.1248(10)
O19 O 0.9426(10) 0.8842(14) 0.1381(9)
O21 O 1.0545(15) 0.3903(17) 0.4217(12)
O22 O 0.9345(11) 0.3853(15) 0.1228(10)
Mo2A Mo 0.43382(11) 0.08139(14) 0.49213(10)
Mo2A_2 Mo 0.43382(11) 1.08139(14) 0.49213(10)
Na1A Na 0.834(2) 0.6089(14) 0.7252(16)
Na1_2 Na 0.834(2) 1.3911(14) 0.2252(16)
O1A O 0.4243(11) 0.6478(13) -0.0305(8)
O2A O 0.5849(10) 0.3908(13) 0.0903(8)
O4A O 0.4272(11) 1.1438(13) -0.0308(9)
O11A O 0.2568(10) 0.8813(13) -0.1598(8)
O14_2 O 0.7963(12) 0.0719(16) 0.3031(10)
N2A N 0.4946(13) 0.8874(17) -0.1152(10)
O15_2 O 0.7704(10) 0.1443(13) 0.1186(9)
O16_2 O 1.0212(11) 0.0813(18) 0.3147(9)
O20 O 0.1142(17) 0.903(2) 0.5103(12)
loop_
_geom_bond_atom_site_label_1
_geom_bond_atom_site_label_2
_geom_bond_site_symmetry_1
_geom_bond_site_symmetry_2
Er1 O8 1_555 1_555
Mo1 O1 1_555 1_555
Mo2 O9 1_555 1_555
Na1 O8 1_555 1_555
O1 Mo2A 1_555 1_555
O2 Mo1 1_555 1_555
O3 Mo1 1_555 1_555
O4 Mo1 1_555 1_555
O5 Mo1 1_555 1_555
O6 C6 1_555 1_555
O7 C7 1_555 1_555
O8 C7 1_555 1_555
O10 Er1 1_555 1_555
O11 C13 1_555 1_555
O12 C13 1_555 1_555
O13 C14 1_555 1_555
O14 Er1 1_555 1_555
N1 Mo1 1_555 1_555
N2 C8 1_555 1_555
C1 N1 1_555 1_555
C2 C1 1_555 1_555
H1 C2 1_555 1_555
C3 C2 1_555 1_555
H2 C3 1_555 1_555
C4 C3 1_555 1_555
C5 N1 1_555 1_555
H3 C5 1_555 1_555
C6 O5 1_555 1_555
C7 C4 1_555 1_555
C8 C9 1_555 1_555
C9 H4 1_555 1_555
C10 C9 1_555 1_555
H5 C10 1_555 1_555
C11 C10 1_555 1_555
C12 N2 1_555 1_555
H6 C12 1_555 1_555
C13 C8 1_555 1_555
C14 O14 1_555 1_555
O15 Er1 1_555 1_555
O16 Er1 1_555 1_555
O17 Er1 1_555 1_555
O18 Er1 1_555 1_555
O19 Er1 1_555 1_555
O21 Na1 1_555 1_555
O22 Na1 1_555 1_555
Mo2A_2 O4 1_555 1_555
Na1A O2 1_555 1_555
Na1_2 O14 1_555 1_555
O1A Mo2 1_555 1_555
O2A Na1 1_555 1_555
O4A Mo2 1_555 1_555
O11A Mo2 1_555 1_555
O14_2 Na1 1_555 1_555
N2A Mo2 1_555 1_555
O15_2 Na1 1_555 1_555
O16_2 Na1 1_555 1_555
Mo2 O10 1_555 1_555
Na1 O18 1_555 1_555
O11 Mo2A_2 1_555 1_555
N2 Mo2A_2 1_555 1_555
C1 C6 1_555 1_555
C4 C5 1_555 1_555
C11 C12 1_555 1_555
C11 C14 1_555 1_555
O15 Na1_2 1_555 1_555
O16 Na1_2 1_555 1_555

#END
