
#######################################################################
#
#                 Cambridge Crystallographic Data Centre
#                                CCDC 
#
#######################################################################
#
# If this CIF has been generated from an entry in the Cambridge 
# Structural Database, then it will include bibliographic, chemical, 
# crystal, experimental, refinement or atomic coordinate data resulting 
# from the CCDC's data processing and validation procedures.
#
#######################################################################

data_REGRUS
_symmetry_cell_setting           monoclinic
_symmetry_space_group_name_H-M   'P 21/c'
_symmetry_Int_Tables_number      14
_space_group_name_Hall           '-P 2ybc'
loop_
_symmetry_equiv_pos_site_id
_symmetry_equiv_pos_as_xyz
1 x,y,z
2 -x,1/2+y,1/2-z
3 -x,-y,-z
4 x,1/2-y,1/2+z
_cell_length_a                   15.418(3)
_cell_length_b                   8.6000(17)
_cell_length_c                   24.421(8)
_cell_angle_alpha                90
_cell_angle_beta                 115.58(2)
_cell_angle_gamma                90
_cell_volume                     2920.71
loop_
_atom_site_label
_atom_site_type_symbol
_atom_site_fract_x
_atom_site_fract_y
_atom_site_fract_z
Er1 Er 0.641585(14) 0.35619(2) 0.257301(9)
Er2 Er 0.871213(13) 0.13372(2) 0.252287(9)
Co1 Co 0.74476(4) 0.70887(7) 0.49942(3)
S1 S 0.76593(8) 0.03271(12) 0.35139(5)
S2 S 0.74128(8) 0.44755(12) 0.15502(5)
O1 O 0.8068(2) 0.3649(3) 0.29798(14)
O2 O 0.9589(2) 0.3356(3) 0.31762(15)
O3 O 1.0140(2) 0.6536(3) 0.28748(14)
O4 O 1.1457(2) 0.5693(3) 0.36372(15)
O5 O 0.5140(2) 0.2900(3) 0.28814(14)
O6 O 0.6233(2) 0.4586(3) 0.34214(15)
O7 O 0.4307(2) 0.6393(3) 0.30012(15)
O8 O 0.2861(2) 0.5864(3) 0.29386(14)
O9 O 0.7009(2) 0.1669(3) 0.33043(15)
O10 O 0.8454(2) 0.0476(3) 0.33327(15)
O11 O 0.8089(2) 0.0283(3) 0.41850(14)
O12 O 0.7101(2) -0.1098(3) 0.32678(16)
O13 O 0.6620(2) 0.3956(3) 0.16899(14)
O14 O 0.8293(2) 0.3552(3) 0.18976(14)
O15 O 0.7612(2) 0.6131(3) 0.17129(16)
O16 O 0.7138(2) 0.4281(3) 0.08959(15)
O17 O 0.4963(2) 0.4763(3) 0.19230(15)
H1 H 0.4991 0.5760 0.1996
H2 H 0.4456 0.4450 0.1868
O18 O 0.6775(2) 0.6243(3) 0.25556(16)
H3 H 0.7096 0.6389 0.2343
H4 H 0.7119 0.6575 0.2922
O19 O 0.8732(2) -0.1350(3) 0.23755(15)
H5 H 0.8162 -0.1708 0.2239
H6 H 0.9079 -0.1785 0.2714
O20 O 1.0249(2) 0.0326(3) 0.32581(15)
H7 H 1.0671 0.1079 0.3423
H8 H 1.0491 -0.0322 0.3081
O21 O 0.8191(2) 0.7359(3) 0.59579(15)
H9 H 0.8485 0.6516 0.6114
H10 H 0.7876 0.7687 0.6142
O22 O 0.7501(2) 0.4615(3) 0.51017(15)
H11 H 0.6933 0.4249 0.4963
H12 H 0.7799 0.4400 0.5477
O23 O 0.7352(2) 0.9528(4) 0.49463(15)
H13 H 0.7607 0.9997 0.4747
H14 H 0.7381 1.0096 0.5237
O24 O 0.6737(2) 0.7142(3) 0.40640(14)
H15 H 0.6538 0.6226 0.3926
H16 H 0.6974 0.7696 0.3889
N1 N 1.0217(3) 0.8218(4) 0.52028(18)
H17 H 1.0722 0.8779 0.5390
N2 N 0.8809(3) 0.7066(4) 0.49844(18)
N3 N 0.5345(3) 0.1856(4) 0.52199(18)
H18 H 0.5864 0.1330 0.5411
N4 N 0.3918(3) 0.2913(4) 0.49997(18)
C1 C 1.0585(3) 0.6103(5) 0.3425(2)
C2 C 1.0090(3) 0.6197(5) 0.3833(2)
C3 C 1.0482(3) 0.7201(5) 0.4321(2)
H19 H 1.1046 0.7746 0.4405
C4 C 0.9995(3) 0.7359(5) 0.4679(2)
C5 C 0.9495(3) 0.8008(5) 0.5361(2)
H20 H 0.9474 0.8472 0.5699
C6 C 0.9116(3) 0.6616(5) 0.4550(2)
C7 C 0.8736(3) 0.5592(5) 0.4062(2)
H21 H 0.8161 0.5074 0.3974
C8 C 0.9226(3) 0.5352(4) 0.3707(2)
C9 C 0.8936(3) 0.4075(5) 0.3258(2)
C10 C 0.5495(3) 0.3774(5) 0.3336(2)
C11 C 0.5079(3) 0.3740(4) 0.3787(2)
C12 C 0.5526(3) 0.2795(5) 0.4292(2)
H22 H 0.6097 0.2280 0.4367
C13 C 0.5087(3) 0.2648(5) 0.4679(2)
C14 C 0.4637(3) 0.2060(5) 0.5390(2)
H23 H 0.4647 0.1647 0.5744
C15 C 0.4196(3) 0.3324(5) 0.4551(2)
C16 C 0.3745(3) 0.4255(5) 0.4046(2)
H24 H 0.3154 0.4711 0.3961
C17 C 0.4194(3) 0.4494(4) 0.3668(2)
C18 C 0.3761(3) 0.5633(5) 0.3165(2)
Er1B Er 0.358415(14) 0.64381(2) 0.742699(9)
Er1A Er 0.358415(14) 0.85619(2) 0.242699(9)
Er1C Er 0.641585(14) 0.14381(2) 0.757301(9)
Er2B Er 0.128787(13) 0.86628(2) 0.747713(9)
Er2A Er 0.128787(13) 0.63372(2) 0.247713(9)
Er2A_2 Er 1.128787(13) 0.63372(2) 0.247713(9)
Er2C Er -0.128787(13) 0.36628(2) 0.752287(9)
Er2C_2 Er 0.871213(13) 0.36628(2) 0.752287(9)
Co1B Co 0.25524(4) 0.29113(7) 0.50058(3)
S1B S 0.23407(8) 0.96729(12) 0.64861(5)
S2B S 0.25872(8) 0.55245(12) 0.84498(5)
O1B O 0.1932(2) 0.6351(3) 0.70202(14)
O2B O 0.0411(2) 0.6644(3) 0.68238(15)
O3B O -0.0140(2) 0.3464(3) 0.71252(14)
O3A O 0.9860(2) 0.1536(3) 0.21252(14)
O3C O 0.0140(2) 0.8464(3) 0.78748(14)
O4B O -0.1457(2) 0.4307(3) 0.63628(15)
O4A O 0.8543(2) 0.0693(3) 0.13628(15)
O4C O 0.1457(2) 0.9307(3) 0.86372(15)
O5B O 0.4860(2) 0.7100(3) 0.71186(14)
O6B O 0.3767(2) 0.5414(3) 0.65786(15)
O7B O 0.5693(2) 0.3607(3) 0.69988(15)
O7A O 0.5693(2) 0.1393(3) 0.19988(15)
O7C O 0.4307(2) 0.8607(3) 0.80012(15)
O8B O 0.7139(2) 0.4136(3) 0.70614(14)
O8A O 0.7139(2) 0.0864(3) 0.20614(14)
O8C O 0.2861(2) 0.9136(3) 0.79386(14)
O9B O 0.2991(2) 0.8331(3) 0.66957(15)
O10B O 0.1546(2) 0.9524(3) 0.66673(15)
O11B O 0.1911(2) 0.9717(3) 0.58150(14)
O12B O 0.2899(2) 1.1098(3) 0.67322(16)
O13B O 0.3380(2) 0.6044(3) 0.83101(14)
O14B O 0.1707(2) 0.6448(3) 0.81024(14)
O15B O 0.2388(2) 0.3869(3) 0.82871(16)
O16B O 0.2862(2) 0.5719(3) 0.91041(15)
O17B O 0.5037(2) 0.5237(3) 0.80770(15)
H1B H 0.5009 0.4240 0.8004
H2B H 0.5544 0.5550 0.8132
O18B O 0.3225(2) 0.3757(3) 0.74444(16)
H3B H 0.2904 0.3611 0.7657
H4B H 0.2881 0.3425 0.7078
O19B O 0.1268(2) 1.1350(3) 0.76245(15)
H5B H 0.1838 1.1708 0.7761
H6B H 0.0921 1.1785 0.7286
O20B O -0.0249(2) 0.9674(3) 0.67419(15)
H7B H -0.0671 0.8921 0.6577
H8B H -0.0491 1.0322 0.6919
O21B O 0.1809(2) 0.2641(3) 0.40421(15)
H9B H 0.1515 0.3484 0.3886
H10B H 0.2124 0.2313 0.3858
O22B O 0.2499(2) 0.5385(3) 0.48983(15)
H11B H 0.3067 0.5751 0.5037
H12B H 0.2201 0.5600 0.4523
O23B O 0.2648(2) 0.0472(4) 0.50537(15)
H13B H 0.2393 0.0003 0.5253
H14B H 0.2619 -0.0096 0.4763
O24B O 0.3263(2) 0.2858(3) 0.59360(14)
H15B H 0.3462 0.3774 0.6074
H16B H 0.3026 0.2304 0.6111
N1B N -0.0217(3) 0.1782(4) 0.47972(18)
H17B H -0.0722 0.1221 0.4610
N2B N 0.1191(3) 0.2934(4) 0.50156(18)
N3B N 0.4655(3) 0.8144(4) 0.47801(18)
H18B H 0.4136 0.8670 0.4589
N4B N 0.6082(3) 0.7087(4) 0.50003(18)
C1B C -0.0585(3) 0.3897(5) 0.6575(2)
C2B C -0.0090(3) 0.3803(5) 0.6167(2)
C3B C -0.0482(3) 0.2799(5) 0.5679(2)
H19B H -0.1046 0.2254 0.5595
C4B C 0.0005(3) 0.2641(5) 0.5321(2)
C5B C 0.0505(3) 0.1992(5) 0.4639(2)
H20B H 0.0526 0.1528 0.4301
C6B C 0.0884(3) 0.3384(5) 0.5450(2)
C7B C 0.1264(3) 0.4408(5) 0.5938(2)
H21B H 0.1839 0.4926 0.6026
C8B C 0.0774(3) 0.4648(4) 0.6293(2)
C9B C 0.1064(3) 0.5925(5) 0.6742(2)
C10B C 0.4505(3) 0.6226(5) 0.6664(2)
C11B C 0.4921(3) 0.6260(4) 0.6213(2)
C12B C 0.4474(3) 0.7205(5) 0.5708(2)
H22B H 0.3903 0.7720 0.5633
C13B C 0.4913(3) 0.7352(5) 0.5321(2)
C14B C 0.5363(3) 0.7940(5) 0.4610(2)
H23B H 0.5353 0.8353 0.4256
C15B C 0.5804(3) 0.6676(5) 0.5449(2)
C16B C 0.6255(3) 0.5745(5) 0.5954(2)
H24B H 0.6846 0.5289 0.6039
C17B C 0.5806(3) 0.5506(4) 0.6332(2)
C18B C 0.6239(3) 0.4367(5) 0.6835(2)
loop_
_geom_bond_atom_site_label_1
_geom_bond_atom_site_label_2
_geom_bond_site_symmetry_1
_geom_bond_site_symmetry_2
Er1 O1 1_555 1_555
Er2 O1 1_555 1_555
Co1 O21 1_555 1_555
S1 O9 1_555 1_555
S2 O13 1_555 1_555
O1 C9 1_555 1_555
O2 Er2 1_555 1_555
O3 C1 1_555 1_555
O4 C1 1_555 1_555
O5 Er1 1_555 1_555
O6 Er1 1_555 1_555
O7 C18 1_555 1_555
O8 C18 1_555 1_555
O9 Er1 1_555 1_555
O10 Er2 1_555 1_555
O11 S1 1_555 1_555
O12 S1 1_555 1_555
O13 Er1 1_555 1_555
O14 Er2 1_555 1_555
O15 S2 1_555 1_555
O16 S2 1_555 1_555
O17 Er1 1_555 1_555
H1 O17 1_555 1_555
H2 O17 1_555 1_555
O18 Er1 1_555 1_555
H3 O18 1_555 1_555
H4 O18 1_555 1_555
O19 Er2 1_555 1_555
H5 O19 1_555 1_555
H6 O19 1_555 1_555
O20 Er2 1_555 1_555
H7 O20 1_555 1_555
H8 O20 1_555 1_555
O21 H9 1_555 1_555
H10 O21 1_555 1_555
O22 Co1 1_555 1_555
H11 O22 1_555 1_555
H12 O22 1_555 1_555
O23 Co1 1_555 1_555
H13 O23 1_555 1_555
H14 O23 1_555 1_555
O24 Co1 1_555 1_555
H15 O24 1_555 1_555
H16 O24 1_555 1_555
N1 H17 1_555 1_555
N2 Co1 1_555 1_555
N3 H18 1_555 1_555
N4 C14 1_555 1_555
C1 C2 1_555 1_555
C2 C3 1_555 1_555
C3 H19 1_555 1_555
C4 N1 1_555 1_555
C5 N1 1_555 1_555
H20 C5 1_555 1_555
C6 N2 1_555 1_555
C7 C6 1_555 1_555
H21 C7 1_555 1_555
C8 C2 1_555 1_555
C9 O2 1_555 1_555
C10 O5 1_555 1_555
C11 C10 1_555 1_555
C12 C11 1_555 1_555
H22 C12 1_555 1_555
C13 N3 1_555 1_555
C14 N3 1_555 1_555
H23 C14 1_555 1_555
C15 N4 1_555 1_555
C16 C15 1_555 1_555
H24 C16 1_555 1_555
C17 C11 1_555 1_555
C18 C17 1_555 1_555
Er1B O1B 1_555 1_555
Er1A O7 1_555 1_555
Er1C O7B 1_555 1_555
Er2B O1B 1_555 1_555
Er2A O8 1_555 1_555
Er2A_2 O3 1_555 1_555
Er2C O3B 1_555 1_555
Er2C_2 O8B 1_555 1_555
Co1B N4 1_555 1_555
S1B O9B 1_555 1_555
S2B O13B 1_555 1_555
O1B C9B 1_555 1_555
O2B Er2B 1_555 1_555
O3B C1B 1_555 1_555
O3A Er2 1_555 1_555
O3C Er2B 1_555 1_555
O4B Er2C 1_555 1_555
O4A Er2 1_555 1_555
O4C Er2B 1_555 1_555
O5B Er1B 1_555 1_555
O6B Er1B 1_555 1_555
O7B C18B 1_555 1_555
O7A Er1 1_555 1_555
O7C Er1B 1_555 1_555
O8B C18B 1_555 1_555
O8A Er2 1_555 1_555
O8C Er2B 1_555 1_555
O9B Er1B 1_555 1_555
O10B Er2B 1_555 1_555
O11B S1B 1_555 1_555
O12B S1B 1_555 1_555
O13B Er1B 1_555 1_555
O14B Er2B 1_555 1_555
O15B S2B 1_555 1_555
O16B S2B 1_555 1_555
O17B Er1B 1_555 1_555
H1B O17B 1_555 1_555
H2B O17B 1_555 1_555
O18B Er1B 1_555 1_555
H3B O18B 1_555 1_555
H4B O18B 1_555 1_555
O19B Er2B 1_555 1_555
H5B O19B 1_555 1_555
H6B O19B 1_555 1_555
O20B Er2B 1_555 1_555
H7B O20B 1_555 1_555
H8B O20B 1_555 1_555
O21B Co1B 1_555 1_555
H9B O21B 1_555 1_555
H10B O21B 1_555 1_555
O22B Co1B 1_555 1_555
H11B O22B 1_555 1_555
H12B O22B 1_555 1_555
O23B Co1B 1_555 1_555
H13B O23B 1_555 1_555
H14B O23B 1_555 1_555
O24B Co1B 1_555 1_555
H15B O24B 1_555 1_555
H16B O24B 1_555 1_555
N1B H17B 1_555 1_555
N2B Co1B 1_555 1_555
N3B H18B 1_555 1_555
N4B Co1 1_555 1_555
C1B O4B 1_555 1_555
C2B C1B 1_555 1_555
C3B C2B 1_555 1_555
H19B C3B 1_555 1_555
C4B N1B 1_555 1_555
C5B N1B 1_555 1_555
H20B C5B 1_555 1_555
C6B N2B 1_555 1_555
C7B C6B 1_555 1_555
H21B C7B 1_555 1_555
C8B C2B 1_555 1_555
C9B O2B 1_555 1_555
C10B O5B 1_555 1_555
C11B C10B 1_555 1_555
C12B C11B 1_555 1_555
H22B C12B 1_555 1_555
C13B N3B 1_555 1_555
C14B N3B 1_555 1_555
H23B C14B 1_555 1_555
C15B N4B 1_555 1_555
C16B C15B 1_555 1_555
H24B C16B 1_555 1_555
C17B C11B 1_555 1_555
C18B C17B 1_555 1_555
S1 O10 1_555 1_555
S2 O14 1_555 1_555
O4 Er2A_2 1_555 1_555
O6 C10 1_555 1_555
N2 C5 1_555 1_555
C3 C4 1_555 1_555
C4 C6 1_555 1_555
C7 C8 1_555 1_555
C8 C9 1_555 1_555
C12 C13 1_555 1_555
C13 C15 1_555 1_555
C16 C17 1_555 1_555
S1B O10B 1_555 1_555
S2B O14B 1_555 1_555
O6B C10B 1_555 1_555
N2B C5B 1_555 1_555
N4B C14B 1_555 1_555
C3B C4B 1_555 1_555
C4B C6B 1_555 1_555
C7B C8B 1_555 1_555
C8B C9B 1_555 1_555
C12B C13B 1_555 1_555
C13B C15B 1_555 1_555
C16B C17B 1_555 1_555

#END
