
#######################################################################
#
#                 Cambridge Crystallographic Data Centre
#                                CCDC 
#
#######################################################################
#
# If this CIF has been generated from an entry in the Cambridge 
# Structural Database, then it will include bibliographic, chemical, 
# crystal, experimental, refinement or atomic coordinate data resulting 
# from the CCDC's data processing and validation procedures.
#
#######################################################################

data_REGSED
_symmetry_cell_setting           monoclinic
_symmetry_space_group_name_H-M   'C 2/c'
_symmetry_Int_Tables_number      15
_space_group_name_Hall           '-C 2yn'
loop_
_symmetry_equiv_pos_site_id
_symmetry_equiv_pos_as_xyz
1 x,y,z
2 -x,y,1/2-z
3 1/2+x,1/2+y,z
4 1/2-x,1/2+y,1/2-z
5 -x,-y,-z
6 x,-y,1/2+z
7 1/2-x,1/2-y,-z
8 1/2+x,1/2-y,1/2+z
_cell_length_a                   22.527(4)
_cell_length_b                   8.7652(18)
_cell_length_c                   15.549(3)
_cell_angle_alpha                90
_cell_angle_beta                 102.57(3)
_cell_angle_gamma                90
_cell_volume                     2996.62
loop_
_atom_site_label
_atom_site_type_symbol
_atom_site_fract_x
_atom_site_fract_y
_atom_site_fract_z
O1 O 0.70377(16) -0.1150(5) 0.5041(2)
O2 O 0.68944(17) -0.1494(5) 0.6393(2)
C1 C 0.6781(2) -0.0770(6) 0.5657(3)
Gd1 Gd 0.747347(12) 0.14123(3) 0.883282(17)
Co1 Co 0.5000 0.20357(14) 0.2500
S1 S 0.64867(6) 0.45747(17) 0.91371(9)
O3 O 0.64709(19) 0.0624(5) 0.7809(2)
O4 O 0.71295(17) 0.1834(5) 0.7228(2)
O5 O 0.67977(18) 0.3501(5) 0.8668(2)
O6 O 0.66460(17) 0.4241(5) 1.0088(2)
O7 O 0.66753(19) 0.6118(5) 0.8967(3)
O8 O 0.58269(17) 0.4423(5) 0.8827(3)
O9 O 0.59439(18) 0.2183(5) 0.2733(2)
H1 H 0.6019 0.1234 0.2718
H2 H 0.6204 0.2626 0.3128
O10 O 0.5000 0.4428(7) 0.2500
H3 H 0.4736 0.4939 0.2116
N1 N 0.5005(2) 0.2031(6) 0.3860(3)
N2 N 0.4796(2) 0.3157(5) 0.5045(3)
H4 H 0.4610 0.3715 0.5357
C2 C 0.4628(3) 0.2919(7) 0.4167(4)
H5 H 0.4281 0.3342 0.3814
C3 C 0.5314(2) 0.2347(7) 0.5339(4)
C4 C 0.5442(3) 0.1612(7) 0.4596(3)
C5 C 0.5946(3) 0.0644(7) 0.4695(4)
H6 H 0.6036 0.0152 0.4208
C6 C 0.5694(2) 0.2202(7) 0.6173(3)
H7 H 0.5617 0.2738 0.6653
C7 C 0.6189(2) 0.1236(7) 0.6263(3)
C8 C 0.6308(2) 0.0426(6) 0.5527(3)
C9 C 0.6622(3) 0.1193(6) 0.7152(4)
O11 O 0.5000 -0.0397(8) 0.2500
H8 H 0.5316 -0.0940 0.2634
O12 O 0.81797(19) 0.0281(5) 0.7994(3)
H9 H 0.8317 0.0635 0.7568
H10 H 0.8469 -0.0090 0.8382
O13 O 0.74024(19) -0.1327(5) 0.8938(3)
H11 H 0.7560 -0.1831 0.8694
H12 H 0.7248 -0.1706 0.9303
O1A O 0.29623(16) -0.1150(5) -0.0041(2)
O1B O 0.20377(16) 0.3850(5) -0.4959(2)
O1C O 0.79623(16) 0.3850(5) 0.9959(2)
O1D O 0.29623(16) 0.1150(5) -0.5041(2)
O1E O 0.70377(16) 0.1150(5) 1.0041(2)
O2A O 0.31056(17) -0.1494(5) -0.1393(2)
O2B O 0.18944(17) 0.3506(5) -0.3607(2)
O2C O 0.81056(17) 0.3506(5) 0.8607(2)
C1A C 0.3219(2) -0.0770(6) -0.0657(3)
Gd1A Gd 0.252653(12) 0.14123(3) -0.383282(17)
Gd1B Gd 0.247347(12) -0.35877(3) -0.116718(17)
Gd1C Gd 0.752653(12) -0.35877(3) 0.616718(17)
Gd1D Gd 0.252653(12) -0.14123(3) 0.116718(17)
Gd1E Gd 0.747347(12) -0.14123(3) 0.383282(17)
Gd1F Gd 0.752653(12) 0.35877(3) 1.116718(17)
Gd1G Gd 0.247347(12) 0.35877(3) -0.616718(17)
S1A S 0.35133(6) 0.45747(17) -0.41371(9)
O3A O 0.35291(19) 0.0624(5) -0.2809(2)
O4A O 0.28705(17) 0.1834(5) -0.2228(2)
O5A O 0.32023(18) 0.3501(5) -0.3668(2)
O6A O 0.33540(17) 0.4241(5) -0.5088(2)
O6F O 0.83540(17) 0.0759(5) 0.9912(2)
O6G O 0.16460(17) 0.0759(5) -0.4912(2)
O7A O 0.33247(19) 0.6118(5) -0.3967(3)
O8A O 0.41731(17) 0.4423(5) -0.3827(3)
O9A O 0.40561(18) 0.2183(5) 0.2267(2)
H1A H 0.3981 0.1234 0.2282
H2A H 0.3796 0.2626 0.1872
H3A H 0.5264 0.4939 0.2884
N1A N 0.4995(2) 0.2031(6) 0.1140(3)
N2A N 0.5204(2) 0.3157(5) -0.0045(3)
H4A H 0.5390 0.3715 -0.0357
C2A C 0.5372(3) 0.2919(7) 0.0833(4)
H5A H 0.5719 0.3342 0.1186
C3A C 0.4686(2) 0.2347(7) -0.0339(4)
C4A C 0.4558(3) 0.1612(7) 0.0404(3)
C5A C 0.4054(3) 0.0644(7) 0.0305(4)
H6A H 0.3964 0.0152 0.0792
C6A C 0.4306(2) 0.2202(7) -0.1173(3)
H7A H 0.4383 0.2738 -0.1653
C7A C 0.3811(2) 0.1236(7) -0.1263(3)
C8A C 0.3692(2) 0.0426(6) -0.0527(3)
C9A C 0.3378(3) 0.1193(6) -0.2152(4)
H8A H 0.4684 -0.0940 0.2366
O12A O 0.18203(19) 0.0281(5) -0.2994(3)
H9A H 0.1683 0.0635 -0.2568
H10A H 0.1531 -0.0090 -0.3382
O13A O 0.25976(19) -0.1327(5) -0.3938(3)
H11A H 0.2440 -0.1831 -0.3694
H12A H 0.2752 -0.1706 -0.4303
loop_
_geom_bond_atom_site_label_1
_geom_bond_atom_site_label_2
_geom_bond_site_symmetry_1
_geom_bond_site_symmetry_2
O1 C1 1_555 1_555
O2 C1 1_555 1_555
C1 C8 1_555 1_555
Gd1 O3 1_555 1_555
Co1 O9 1_555 1_555
S1 O5 1_555 1_555
O3 C9 1_555 1_555
O4 Gd1 1_555 1_555
O5 Gd1 1_555 1_555
O6 S1 1_555 1_555
O7 S1 1_555 1_555
O8 S1 1_555 1_555
O9 H1 1_555 1_555
H2 O9 1_555 1_555
O10 Co1 1_555 1_555
H3 O10 1_555 1_555
N1 Co1 1_555 1_555
N2 H4 1_555 1_555
C2 N1 1_555 1_555
H5 C2 1_555 1_555
C3 N2 1_555 1_555
C4 N1 1_555 1_555
C5 C4 1_555 1_555
H6 C5 1_555 1_555
C6 C3 1_555 1_555
H7 C6 1_555 1_555
C7 C6 1_555 1_555
C8 C5 1_555 1_555
C9 O4 1_555 1_555
O11 Co1 1_555 1_555
H8 O11 1_555 1_555
O12 Gd1 1_555 1_555
H9 O12 1_555 1_555
H10 O12 1_555 1_555
O13 Gd1 1_555 1_555
H11 O13 1_555 1_555
H12 O13 1_555 1_555
O1A C1A 1_555 1_555
O1B Gd1A 1_555 1_555
O1C Gd1 1_555 1_555
O1D Gd1A 1_555 1_555
O1E Gd1 1_555 1_555
O2A C1A 1_555 1_555
O2B Gd1A 1_555 1_555
O2C Gd1 1_555 1_555
C1A C8A 1_555 1_555
Gd1A O3A 1_555 1_555
Gd1B O1A 1_555 1_555
Gd1C O1 1_555 1_555
Gd1D O1A 1_555 1_555
Gd1E O1 1_555 1_555
Gd1F O6 1_555 1_555
Gd1G O1B 1_555 1_555
S1A O5A 1_555 1_555
O3A C9A 1_555 1_555
O4A Gd1A 1_555 1_555
O5A Gd1A 1_555 1_555
O6A Gd1G 1_555 1_555
O6F Gd1 1_555 1_555
O6G Gd1A 1_555 1_555
O7A S1A 1_555 1_555
O8A S1A 1_555 1_555
O9A Co1 1_555 1_555
H1A O9A 1_555 1_555
H2A O9A 1_555 1_555
H3A O10 1_555 1_555
N1A Co1 1_555 1_555
N2A H4A 1_555 1_555
C2A N1A 1_555 1_555
H5A C2A 1_555 1_555
C3A N2A 1_555 1_555
C4A N1A 1_555 1_555
C5A C4A 1_555 1_555
H6A C5A 1_555 1_555
C6A C3A 1_555 1_555
H7A C6A 1_555 1_555
C7A C6A 1_555 1_555
C8A C5A 1_555 1_555
C9A O4A 1_555 1_555
H8A O11 1_555 1_555
O12A Gd1A 1_555 1_555
H9A O12A 1_555 1_555
H10A O12A 1_555 1_555
O13A Gd1A 1_555 1_555
H11A O13A 1_555 1_555
H12A O13A 1_555 1_555
O2 Gd1C 1_555 1_555
N2 C2 1_555 1_555
C3 C4 1_555 1_555
C7 C8 1_555 1_555
C7 C9 1_555 1_555
O1C Gd1F 1_555 1_555
O1D Gd1G 1_555 1_555
O1E Gd1F 1_555 1_555
O2A Gd1B 1_555 1_555
S1A O6A 1_555 1_555
N2A C2A 1_555 1_555
C3A C4A 1_555 1_555
C7A C8A 1_555 1_555
C7A C9A 1_555 1_555

#END
