
#######################################################################
#
#                 Cambridge Crystallographic Data Centre
#                                CCDC 
#
#######################################################################
#
# If this CIF has been generated from an entry in the Cambridge 
# Structural Database, then it will include bibliographic, chemical, 
# crystal, experimental, refinement or atomic coordinate data resulting 
# from the CCDC's data processing and validation procedures.
#
#######################################################################

data_REGSON
_symmetry_cell_setting           monoclinic
_symmetry_space_group_name_H-M   'C 2/c'
_symmetry_Int_Tables_number      15
_space_group_name_Hall           '-C 2yn'
loop_
_symmetry_equiv_pos_site_id
_symmetry_equiv_pos_as_xyz
1 x,y,z
2 -x,y,1/2-z
3 1/2+x,1/2+y,z
4 1/2-x,1/2+y,1/2-z
5 -x,-y,-z
6 x,-y,1/2+z
7 1/2-x,1/2-y,-z
8 1/2+x,1/2-y,1/2+z
_cell_length_a                   22.799(15)
_cell_length_b                   8.68(2)
_cell_length_c                   15.656(14)
_cell_angle_alpha                90
_cell_angle_beta                 102.364(7)
_cell_angle_gamma                90
_cell_volume                     3026.39
loop_
_atom_site_label
_atom_site_type_symbol
_atom_site_fract_x
_atom_site_fract_y
_atom_site_fract_z
Pr1 Pr 0.252979(6) 1.141180(17) 0.617772(8)
Co1 Co 0.5000 0.79516(7) 0.7500
S1 S 0.14738(3) 1.03409(8) 0.41527(4)
O1 O 0.31281(8) 1.1429(2) 0.35904(11)
O2 O 0.5000 0.5539(4) 0.7500
H1 H 0.5203(16) 0.511(4) 0.783(2)
O3 O 0.26013(10) 0.8586(2) 0.61509(13)
O4 O 0.16087(9) 0.8709(2) 0.40352(12)
O5 O 0.29744(8) 1.1125(2) 0.49341(11)
O6 O 0.35975(8) 0.9275(2) 0.22012(11)
O7 O 0.40539(9) 0.7817(3) 0.72861(13)
O8 O 0.08268(8) 1.0623(2) 0.38224(11)
O9 O 0.16302(8) 1.0754(2) 0.50901(10)
O10 O 0.29076(8) 0.8178(2) 0.27937(11)
O11 O 0.17691(10) 1.0444(3) 0.70436(13)
C1 C 0.40667(12) 0.9339(3) 0.53066(17)
H2 H 0.3971(12) 0.990(3) 0.5755(16)
C2 C 0.34253(12) 0.8762(3) 0.28645(16)
C3 C 0.46994(12) 0.7626(3) 0.46762(16)
C4 C 0.45600(12) 0.8356(3) 0.54052(17)
C5 C 0.38476(12) 0.8733(3) 0.37468(16)
C6 C 0.32395(12) 1.0747(3) 0.43249(16)
C7 C 0.37144(11) 0.9539(3) 0.44712(16)
O12 O 0.18237(8) 1.1308(2) 0.36527(11)
O13 O 0.5000 1.0403(4) 0.7500
H3 H 0.5333(10) 1.082(4) 0.749(3)
N1 N 0.49926(10) 0.7939(3) 0.61502(13)
N2 N 0.52186(11) 0.6803(3) 0.49791(14)
H4 H 0.5438(13) 0.633(3) 0.4685(18)
C8 C 0.53685(13) 0.7034(4) 0.58473(18)
H5 H 0.5693(13) 0.652(3) 0.6186(17)
C9 C 0.43384(12) 0.7758(3) 0.38441(17)
H6 H 0.4425(12) 0.727(3) 0.3382(16)
H7 H 0.2855(12) 0.795(3) 0.5946(17)
H8 H 0.3860(12) 0.736(4) 0.6864(17)
H9 H 0.1813(13) 0.989(3) 0.7445(16)
H10 H 0.3892(13) 0.863(3) 0.7307(18)
H11 H 0.2415(13) 0.814(4) 0.6423(18)
H12 H 0.1586(11) 1.123(2) 0.7157(18)
Pr1A Pr 0.747021(6) 1.141180(17) 0.882228(8)
Pr1F Pr 0.247021(6) 1.358820(17) 0.382228(8)
Pr1E Pr 0.252979(6) 0.858820(17) 0.117772(8)
Pr1G Pr 0.752979(6) 1.358820(17) 1.117772(8)
Pr1D Pr 0.747021(6) 0.858820(17) 1.382228(8)
S1F S 0.35262(3) 1.46591(8) 0.58473(4)
O1A O 0.68719(8) 1.1429(2) 1.14096(11)
O1F O 0.18719(8) 1.3571(2) 0.64096(11)
O1G O 0.81281(8) 1.3571(2) 0.85904(11)
H1A H 0.4797(16) 0.511(4) 0.717(2)
O3A O 0.73987(10) 0.8586(2) 0.88491(13)
O4F O 0.33913(9) 1.6291(2) 0.59648(12)
O5A O 0.70256(8) 1.1125(2) 1.00659(11)
O5F O 0.20256(8) 1.3875(2) 0.50659(11)
O5G O 0.79744(8) 1.3875(2) 0.99341(11)
O6A O 0.64025(8) 0.9275(2) 1.27988(11)
O6E O 0.35975(8) 1.0725(2) 0.72012(11)
O6D O 0.64025(8) 1.0725(2) 0.77988(11)
O7A O 0.59461(9) 0.7817(3) 0.77139(13)
O8F O 0.41732(8) 1.4377(2) 0.61776(11)
O9F O 0.33698(8) 1.4246(2) 0.49099(10)
O9A O 0.83698(8) 1.0754(2) 0.99099(10)
O10A O 0.70924(8) 0.8178(2) 1.22063(11)
O10E O 0.29076(8) 1.1822(2) 0.77937(11)
O10D O 0.70924(8) 1.1822(2) 0.72063(11)
O11A O 0.82309(10) 1.0444(3) 0.79564(13)
C1A C 0.59333(12) 0.9339(3) 0.96934(17)
H2A H 0.6029(12) 0.990(3) 0.9245(16)
C2A C 0.65747(12) 0.8762(3) 1.21355(16)
C3A C 0.53006(12) 0.7626(3) 1.03238(16)
C4A C 0.54400(12) 0.8356(3) 0.95948(17)
C5A C 0.61524(12) 0.8733(3) 1.12532(16)
C6A C 0.67605(12) 1.0747(3) 1.06751(16)
C7A C 0.62856(11) 0.9539(3) 1.05288(16)
O12F O 0.31763(8) 1.3692(2) 0.63473(11)
O12G O 0.68237(8) 1.3692(2) 0.86527(11)
H3A H 0.4667(10) 1.082(4) 0.751(3)
N1A N 0.50074(10) 0.7939(3) 0.88498(13)
N2A N 0.47814(11) 0.6803(3) 1.00209(14)
H4A H 0.4562(13) 0.633(3) 1.0315(18)
C8A C 0.46315(13) 0.7034(4) 0.91527(18)
H5A H 0.4307(13) 0.652(3) 0.8814(17)
C9A C 0.56616(12) 0.7758(3) 1.11559(17)
H6A H 0.5575(12) 0.727(3) 1.1618(16)
H7A H 0.7145(12) 0.795(3) 0.9054(17)
H8A H 0.6140(12) 0.736(4) 0.8136(17)
H9A H 0.8187(13) 0.989(3) 0.7555(16)
H10A H 0.6108(13) 0.863(3) 0.7693(18)
H11A H 0.7585(13) 0.814(4) 0.8577(18)
H12A H 0.8414(11) 1.123(2) 0.7843(18)
loop_
_geom_bond_atom_site_label_1
_geom_bond_atom_site_label_2
_geom_bond_site_symmetry_1
_geom_bond_site_symmetry_2
Pr1 O3 1_555 1_555
Co1 O2 1_555 1_555
S1 O4 1_555 1_555
O1 C6 1_555 1_555
O2 H1 1_555 1_555
O3 H7 1_555 1_555
O5 Pr1 1_555 1_555
O6 C2 1_555 1_555
O7 Co1 1_555 1_555
O8 S1 1_555 1_555
O9 Pr1 1_555 1_555
O10 C2 1_555 1_555
O11 Pr1 1_555 1_555
C1 H2 1_555 1_555
C2 C5 1_555 1_555
C3 C4 1_555 1_555
C4 C1 1_555 1_555
C5 C7 1_555 1_555
C6 O5 1_555 1_555
C7 C1 1_555 1_555
O12 S1 1_555 1_555
O13 Co1 1_555 1_555
H3 O13 1_555 1_555
N1 Co1 1_555 1_555
N2 C3 1_555 1_555
H4 N2 1_555 1_555
C8 N1 1_555 1_555
H5 C8 1_555 1_555
C9 C3 1_555 1_555
H6 C9 1_555 1_555
H8 O7 1_555 1_555
H9 O11 1_555 1_555
H10 O7 1_555 1_555
H11 O3 1_555 1_555
H12 O11 1_555 1_555
Pr1A O1G 1_555 1_555
Pr1F O1 1_555 1_555
Pr1E O6 1_555 1_555
Pr1G O1A 1_555 1_555
Pr1D O6A 1_555 1_555
S1F O4F 1_555 1_555
O1A C6A 1_555 1_555
O1F Pr1 1_555 1_555
H1A O2 1_555 1_555
O3A Pr1A 1_555 1_555
O5A Pr1A 1_555 1_555
O5F Pr1 1_555 1_555
O5G Pr1A 1_555 1_555
O6A C2A 1_555 1_555
O6E Pr1 1_555 1_555
O6D Pr1A 1_555 1_555
O7A Co1 1_555 1_555
O8F S1F 1_555 1_555
O9F Pr1F 1_555 1_555
O9A Pr1A 1_555 1_555
O10A Pr1D 1_555 1_555
O10E Pr1 1_555 1_555
O10D Pr1A 1_555 1_555
O11A Pr1A 1_555 1_555
C1A H2A 1_555 1_555
C2A O10A 1_555 1_555
C3A C4A 1_555 1_555
C4A C1A 1_555 1_555
C5A C2A 1_555 1_555
C6A O5A 1_555 1_555
C7A C1A 1_555 1_555
O12F Pr1 1_555 1_555
O12G Pr1A 1_555 1_555
H3A O13 1_555 1_555
N1A Co1 1_555 1_555
N2A C3A 1_555 1_555
H4A N2A 1_555 1_555
C8A N1A 1_555 1_555
H5A C8A 1_555 1_555
C9A C3A 1_555 1_555
H6A C9A 1_555 1_555
H7A O3A 1_555 1_555
H8A O7A 1_555 1_555
H9A O11A 1_555 1_555
H10A O7A 1_555 1_555
H11A O3A 1_555 1_555
H12A O11A 1_555 1_555
S1 O9 1_555 1_555
O5 Pr1F 1_555 1_555
O10 Pr1E 1_555 1_555
C4 N1 1_555 1_555
C5 C9 1_555 1_555
C6 C7 1_555 1_555
O12 Pr1F 1_555 1_555
N2 C8 1_555 1_555
Pr1F O5F 1_555 1_555
Pr1G O5A 1_555 1_555
Pr1G O5G 1_555 1_555
S1F O9F 1_555 1_555
S1F O12F 1_555 1_555
C4A N1A 1_555 1_555
C5A C7A 1_555 1_555
C5A C9A 1_555 1_555
C6A C7A 1_555 1_555
N2A C8A 1_555 1_555

#END
