
#######################################################################
#
#                 Cambridge Crystallographic Data Centre
#                                CCDC 
#
#######################################################################
#
# If this CIF has been generated from an entry in the Cambridge 
# Structural Database, then it will include bibliographic, chemical, 
# crystal, experimental, refinement or atomic coordinate data resulting 
# from the CCDC's data processing and validation procedures.
#
#######################################################################

data_REHFUG
_symmetry_cell_setting           monoclinic
_symmetry_space_group_name_H-M   'P 21/c'
_symmetry_Int_Tables_number      14
_space_group_name_Hall           '-P 2ybc'
loop_
_symmetry_equiv_pos_site_id
_symmetry_equiv_pos_as_xyz
1 x,y,z
2 -x,1/2+y,1/2-z
3 -x,-y,-z
4 x,1/2-y,1/2+z
_cell_length_a                   8.664(4)
_cell_length_b                   11.779(3)
_cell_length_c                   20.803(7)
_cell_angle_alpha                90
_cell_angle_beta                 95.812(16)
_cell_angle_gamma                90
_cell_volume                     2112.1
loop_
_atom_site_label
_atom_site_type_symbol
_atom_site_fract_x
_atom_site_fract_y
_atom_site_fract_z
Zn1 Zn 0.06384(3) 0.66064(2) 0.390722(11)
O1 O -0.0663(2) 0.56322(14) 0.33283(8)
O2 O -0.2251(3) 0.70940(17) 0.32667(10)
O3 O -0.1436(3) 0.27381(17) 0.16342(9)
O4 O -0.3681(3) 0.2509(2) 0.10830(13)
N1 N 0.0266(2) 0.72153(15) 0.48144(9)
N2 N 0.1909(2) 0.54167(15) 0.44756(8)
C1 C -0.0626(3) 0.81243(19) 0.49582(12)
C2 C -0.1511(3) 0.8711(2) 0.44665(14)
H1 H -0.1495 0.8480 0.4030
C3 C -0.2399(4) 0.9617(2) 0.46131(17)
H2 H -0.2992 1.0011 0.4274
C4 C -0.2450(4) 0.9973(3) 0.52477(17)
H3 H -0.3085 1.0598 0.5340
C5 C -0.1599(4) 0.9432(3) 0.57310(17)
H4 H -0.1623 0.9689 0.6163
C6 C -0.0668(4) 0.8486(2) 0.56059(13)
C7 C 0.0225(5) 0.7882(3) 0.60869(13)
H5 H 0.0219 0.8104 0.6526
C8 C 0.1098(4) 0.6985(2) 0.59393(12)
H6 H 0.1702 0.6579 0.6270
C9 C 0.1098(3) 0.66624(18) 0.52895(10)
C10 C 0.2005(3) 0.56659(18) 0.51020(10)
C11 C 0.2911(3) 0.5020(2) 0.55634(11)
H7 H 0.2991 0.5234 0.6006
C12 C 0.3673(3) 0.4087(2) 0.53782(12)
H8 H 0.4266 0.3637 0.5692
C13 C 0.3583(3) 0.3791(2) 0.47231(12)
C14 C 0.4359(3) 0.2845(2) 0.44920(15)
H9 H 0.4962 0.2369 0.4788
C15 C 0.4253(4) 0.2612(2) 0.38559(17)
H10 H 0.4783 0.1972 0.3708
C16 C 0.3370(4) 0.3302(2) 0.34095(15)
H11 H 0.3311 0.3126 0.2962
C17 C 0.2593(4) 0.4227(2) 0.36108(13)
H12 H 0.1992 0.4686 0.3305
C18 C 0.2688(3) 0.44943(18) 0.42762(11)
C19 C -0.2854(3) 0.29597(19) 0.15189(11)
C20 C -0.1915(3) 0.6132(2) 0.31126(10)
C21 C -0.3006(3) 0.54437(18) 0.26651(10)
C22 C -0.2464(3) 0.45165(17) 0.23413(10)
H13 H -0.1400 0.4310 0.2412
C23 C -0.3464(3) 0.38908(18) 0.19150(10)
C24 C -0.5025(3) 0.4159(2) 0.18412(12)
H14 H -0.5725 0.3718 0.1562
C25 C -0.5571(3) 0.5069(2) 0.21727(13)
H15 H -0.6646 0.5247 0.2123
C26 C -0.4563(3) 0.5719(2) 0.25744(12)
H16 H -0.4940 0.6358 0.2789
Zn1A Zn -0.06384(3) 0.16064(2) 0.109278(11)
O3A O 0.1436(3) 0.77381(17) 0.33658(9)
loop_
_geom_bond_atom_site_label_1
_geom_bond_atom_site_label_2
_geom_bond_site_symmetry_1
_geom_bond_site_symmetry_2
Zn1 O1 1_555 1_555
O1 C20 1_555 1_555
O2 C20 1_555 1_555
O3 C19 1_555 1_555
O4 C19 1_555 1_555
N1 Zn1 1_555 1_555
N2 Zn1 1_555 1_555
C1 N1 1_555 1_555
C2 C1 1_555 1_555
H1 C2 1_555 1_555
C3 C2 1_555 1_555
H2 C3 1_555 1_555
C4 C3 1_555 1_555
H3 C4 1_555 1_555
C5 C4 1_555 1_555
H4 C5 1_555 1_555
C6 C1 1_555 1_555
C7 C6 1_555 1_555
H5 C7 1_555 1_555
C8 C7 1_555 1_555
H6 C8 1_555 1_555
C9 N1 1_555 1_555
C10 N2 1_555 1_555
C11 C10 1_555 1_555
H7 C11 1_555 1_555
C12 C11 1_555 1_555
H8 C12 1_555 1_555
C13 C12 1_555 1_555
C14 C13 1_555 1_555
H9 C14 1_555 1_555
C15 C14 1_555 1_555
H10 C15 1_555 1_555
C16 C15 1_555 1_555
H11 C16 1_555 1_555
C17 C16 1_555 1_555
H12 C17 1_555 1_555
C18 N2 1_555 1_555
C19 C23 1_555 1_555
C20 C21 1_555 1_555
C21 C22 1_555 1_555
C22 H13 1_555 1_555
C23 C22 1_555 1_555
C24 C23 1_555 1_555
H14 C24 1_555 1_555
C25 C24 1_555 1_555
H15 C25 1_555 1_555
C26 C21 1_555 1_555
H16 C26 1_555 1_555
Zn1A O3 1_555 1_555
O3A Zn1 1_555 1_555
C5 C6 1_555 1_555
C8 C9 1_555 1_555
C9 C10 1_555 1_555
C13 C18 1_555 1_555
C17 C18 1_555 1_555
C25 C26 1_555 1_555

#END
