
#######################################################################
#
#                 Cambridge Crystallographic Data Centre
#                                CCDC 
#
#######################################################################
#
# If this CIF has been generated from an entry in the Cambridge 
# Structural Database, then it will include bibliographic, chemical, 
# crystal, experimental, refinement or atomic coordinate data resulting 
# from the CCDC's data processing and validation procedures.
#
#######################################################################

data_REHHET
_symmetry_cell_setting           monoclinic
_symmetry_space_group_name_H-M   'C 2/c'
_symmetry_Int_Tables_number      15
_space_group_name_Hall           '-C 2yn'
loop_
_symmetry_equiv_pos_site_id
_symmetry_equiv_pos_as_xyz
1 x,y,z
2 -x,y,1/2-z
3 1/2+x,1/2+y,z
4 1/2-x,1/2+y,1/2-z
5 -x,-y,-z
6 x,-y,1/2+z
7 1/2-x,1/2-y,-z
8 1/2+x,1/2-y,1/2+z
_cell_length_a                   34.628(2)
_cell_length_b                   18.2216(6)
_cell_length_c                   23.1357(18)
_cell_angle_alpha                90
_cell_angle_beta                 118.404(9)
_cell_angle_gamma                90
_cell_volume                     12840.7
loop_
_atom_site_label
_atom_site_type_symbol
_atom_site_fract_x
_atom_site_fract_y
_atom_site_fract_z
C42 C 0.4104(5) 0.4092(8) 0.2578(7)
H33 H 0.3989 0.4280 0.2862
Cl1 Cl 0.3990(5) 0.4680(7) 0.1890(7)
Cl2 Cl 0.4688(5) 0.3949(8) 0.3001(7)
Cl3 Cl 0.3853(7) 0.3246(8) 0.2173(9)
C43 C 0.1682(5) 0.5768(7) 0.3575(7)
H34 H 0.1720 0.5308 0.3389
Cl4 Cl 0.2143(5) 0.6356(7) 0.4057(7)
Cl5 Cl 0.1527(6) 0.6603(7) 0.3100(10)
Cl6 Cl 0.1430(5) 0.5783(4) 0.4099(7)
Cd1 Cd 0.709997(18) 0.10581(3) 0.80913(3)
Cd2 Cd 0.32140(2) 0.38197(4) 0.32400(4)
Cd3 Cd 0.32262(2) 0.44934(4) 0.46342(4)
C1 C 0.6211(6) 0.1091(10) 0.7459(8)
C2 C 0.5713(7) 0.1046(12) 0.7178(10)
C3 C 0.5506(7) 0.1615(13) 0.6811(11)
H1 H 0.5678 0.2005 0.6807
C4 C 0.5066(8) 0.1684(16) 0.6439(12)
H2 H 0.4937 0.2101 0.6189
C5 C 0.4810(6) 0.1064(10) 0.6458(9)
C6 C 0.5014(6) 0.0506(11) 0.6820(9)
H3 H 0.4853 0.0105 0.6836
C7 C 0.5464(6) 0.0491(14) 0.7181(10)
H4 H 0.5599 0.0080 0.7436
C8 C 0.4330(6) 0.1126(10) 0.6116(10)
C9 C 0.2854(2) 0.2910(4) 0.4104(4)
C10 C 0.3028(2) 0.2311(4) 0.4610(4)
C11 C 0.3478(2) 0.2202(4) 0.4991(4)
H5 H 0.3669 0.2493 0.4911
C12 C 0.3652(3) 0.1688(5) 0.5477(5)
C13 C 0.3358(3) 0.1276(4) 0.5612(4)
H6 H 0.3465 0.0942 0.5958
C14 C 0.2910(3) 0.1373(4) 0.5227(4)
C15 C 0.2744(2) 0.1879(4) 0.4734(4)
H7 H 0.2441 0.1935 0.4482
C16 C 0.2605(3) 0.0920(5) 0.5393(6)
C17 C 1.0959(4) -0.0875(9) 1.0638(9)
C18 C 1.0480(4) -0.0975(6) 1.0150(6)
C19 C 1.0230(5) -0.1553(10) 1.0246(9)
H8 H 1.0362 -0.1849 1.0617
C20 C 0.9815(5) -0.1664(10) 0.9809(13)
H9 H 0.9661 -0.2059 0.9854
C21 C 0.9617(3) -0.1198(5) 0.9298(6)
C22 C 0.9849(4) -0.0637(8) 0.9216(7)
H10 H 0.9715 -0.0326 0.8856
C23 C 1.0269(4) -0.0541(7) 0.9657(8)
H11 H 1.0417 -0.0141 0.9607
C24 C 0.9143(3) -0.1243(6) 0.8869(8)
C25 C 0.7575(3) -0.0206(4) 0.8140(4)
C26 C 0.7795(3) -0.0922(5) 0.8142(4)
C27 C 0.7527(3) -0.1533(4) 0.7842(4)
H12 H 0.7223 -0.1486 0.7622
C28 C 0.7724(3) -0.2216(4) 0.7879(5)
C29 C 0.8184(3) -0.2279(5) 0.8193(5)
H13 H 0.8314 -0.2731 0.8208
C30 C 0.8443(3) -0.1678(5) 0.8479(5)
C31 C 0.8241(3) -0.0996(5) 0.8442(5)
H14 H 0.8416 -0.0586 0.8627
C32 C 0.7437(3) -0.2874(4) 0.7556(5)
C33 C 0.2779(4) 0.4734(11) 0.2031(11)
C34 C 0.2128(6) 0.5562(15) 0.1306(10)
H15 H 0.2084 0.6038 0.1106
H16 H 0.2004 0.5553 0.1598
H17 H 0.1988 0.5197 0.0970
C35 C 0.2958(7) 0.5838(14) 0.1707(11)
H18 H 0.2849 0.6288 0.1469
H19 H 0.3107 0.5564 0.1518
H20 H 0.3160 0.5947 0.2159
C36 C 0.3684(4) 0.3648(7) 0.5916(5)
C37 C 0.4466(3) 0.3426(14) 0.6766(9)
H21 H 0.4630 0.3154 0.7165
H22 H 0.4533 0.3939 0.6850
H23 H 0.4545 0.3262 0.6441
C38 C 0.3866(5) 0.2815(8) 0.6887(7)
H24 H 0.4121 0.2637 0.7269
H25 H 0.3709 0.2409 0.6611
H26 H 0.3679 0.3071 0.7020
C39 C 0.3646(4) 0.5983(7) 0.5181(11)
C40 C 0.3243(9) 0.7129(16) 0.4899(18)
H27 H 0.3279 0.7650 0.4966
H28 H 0.3062 0.6947 0.5078
H29 H 0.3107 0.7024 0.4438
C41 C 0.4086(10) 0.706(2) 0.5734(19)
H30 H 0.4068 0.7587 0.5753
H31 H 0.4316 0.6933 0.5633
H32 H 0.4149 0.6856 0.6151
N1 N 0.4106(3) 0.1604(5) 0.5879(4)
N2 N 0.8889(4) -0.1754(6) 0.8884(7)
N3 N 0.2595(6) 0.5409(9) 0.1672(10)
N4 N 0.4001(3) 0.3312(6) 0.6526(5)
N5 N 0.3671(7) 0.6776(7) 0.5228(10)
O1 O 0.6461(6) 0.1129(10) 0.7020(10)
O2 O 0.6352(5) 0.0436(9) 0.7822(8)
O3 O 0.24502(17) 0.2933(3) 0.3736(3)
O4 O 0.31396(19) 0.3358(3) 0.4110(3)
O5 O 0.2750(2) 0.0556(3) 0.5915(3)
O6 O 0.22069(19) 0.0954(3) 0.4977(4)
O7 O 1.1192(2) -0.0441(4) 1.0592(5)
O8 O 1.1101(3) -0.1251(7) 1.1197(6)
O9 O 0.71806(17) -0.0122(3) 0.7794(3)
O10 O 0.78253(17) 0.0311(3) 0.8499(3)
O11 O 0.7607(2) -0.3467(3) 0.7556(3)
O12 O 0.7029(2) -0.2776(3) 0.7281(4)
O13 O 0.3159(3) 0.4573(5) 0.2463(5)
O14 O 0.3791(3) 0.4095(5) 0.5606(5)
O15 O 0.3283(3) 0.5668(4) 0.4884(5)
Cd1G Cd 0.209997(18) 0.39419(3) 0.30913(3)
Cd1A Cd 0.290003(18) 0.10581(3) 0.69087(3)
Cd1C Cd 0.790003(18) -0.39419(3) 0.69087(3)
Cd2C Cd 1.17860(2) -0.11803(4) 1.17600(4)
Cd2G Cd 0.82140(2) 0.11803(4) 0.82400(4)
Cd2D Cd 0.67860(2) -0.38197(4) 0.67600(4)
Cd3F Cd 0.17738(2) 0.05066(4) 0.53658(4)
Cd3C Cd 1.17738(2) -0.05066(4) 1.03658(4)
Cd3G Cd 0.82262(2) 0.05066(4) 0.96342(4)
O3G O 0.74502(17) 0.2067(3) 0.8736(3)
O5A O 0.7250(2) 0.0556(3) 0.9085(3)
O6F O 0.27931(19) 0.4046(3) 0.5023(4)
O7C O 0.3808(2) 0.4559(4) 0.4408(5)
O8C O 0.3899(3) 0.3749(7) 0.3803(6)
O10G O 0.28253(17) 0.4689(3) 0.3499(3)
O11C O 0.7393(2) 0.1533(3) 0.7444(3)
O11D O 0.2393(2) 0.3467(3) 0.2444(3)
O12D O 0.2971(2) 0.2776(3) 0.2719(4)
C44? C 0.4261(8) 0.1320(14) 0.8082(11)
C45? C 0.4422(8) 0.1512(16) 0.8814(19)
C46? C 0.4876(6) 0.1549(15) 0.9177(14)
C47? C 0.4845(7) 0.1553(12) 0.6152(12)
C48? C 0.4997(9) 0.141(2) 0.6747(13)
C49? C 0.4524(8) 0.130(2) 0.7810(13)
C50? C 0.4359(7) 0.1689(13) 0.5746(10)
H35? H 0.4235 0.1594 0.8990
H36? H 0.4992 0.1572 0.5367
H37? H 0.4805 0.1369 0.6922
H38? H 0.4414 0.1226 0.7362
N6? N 0.3951(10) 0.3376(18) 0.8607(14)
O16? O 0.3584(5) 0.1542(10) 0.7541(9)
O17? O 0.3574(7) 0.1507(13) 0.7235(11)
loop_
_geom_bond_atom_site_label_1
_geom_bond_atom_site_label_2
_geom_bond_site_symmetry_1
_geom_bond_site_symmetry_2
Cd1 O1 1_555 1_555
Cd2 O4 1_555 1_555
Cd3 O4 1_555 1_555
C1 C2 1_555 1_555
C2 C3 1_555 1_555
C3 H1 1_555 1_555
C4 C3 1_555 1_555
H2 C4 1_555 1_555
C5 C4 1_555 1_555
C6 C5 1_555 1_555
H3 C6 1_555 1_555
C7 C2 1_555 1_555
H4 C7 1_555 1_555
C8 C5 1_555 1_555
C9 C10 1_555 1_555
C10 C11 1_555 1_555
C11 H5 1_555 1_555
C12 C11 1_555 1_555
C13 C12 1_555 1_555
H6 C13 1_555 1_555
C14 C13 1_555 1_555
C15 C10 1_555 1_555
H7 C15 1_555 1_555
C16 C14 1_555 1_555
C17 C18 1_555 1_555
C18 C19 1_555 1_555
C19 H8 1_555 1_555
C20 C19 1_555 1_555
H9 C20 1_555 1_555
C21 C20 1_555 1_555
C22 C21 1_555 1_555
H10 C22 1_555 1_555
C23 C18 1_555 1_555
H11 C23 1_555 1_555
C24 C21 1_555 1_555
C25 C26 1_555 1_555
C26 C27 1_555 1_555
C27 H12 1_555 1_555
C28 C27 1_555 1_555
C29 C28 1_555 1_555
H13 C29 1_555 1_555
C30 C29 1_555 1_555
C31 C26 1_555 1_555
H14 C31 1_555 1_555
C32 C28 1_555 1_555
C33 N3 1_555 1_555
C34 H15 1_555 1_555
H16 C34 1_555 1_555
H17 C34 1_555 1_555
C35 H18 1_555 1_555
H19 C35 1_555 1_555
H20 C35 1_555 1_555
C36 N4 1_555 1_555
C37 H21 1_555 1_555
H22 C37 1_555 1_555
H23 C37 1_555 1_555
C38 H24 1_555 1_555
H25 C38 1_555 1_555
H26 C38 1_555 1_555
C39 N5 1_555 1_555
C40 H27 1_555 1_555
H28 C40 1_555 1_555
H29 C40 1_555 1_555
C41 H30 1_555 1_555
H31 C41 1_555 1_555
H32 C41 1_555 1_555
C42 H33 1_555 1_555
C43 H34 1_555 1_555
Cl1 C42 1_555 1_555
Cl2 C42 1_555 1_555
Cl3 C42 1_555 1_555
Cl4 C43 1_555 1_555
Cl5 C43 1_555 1_555
Cl6 C43 1_555 1_555
N1 C8 1_555 1_555
N2 C24 1_555 1_555
N3 C34 1_555 1_555
N4 C37 1_555 1_555
N5 C40 1_555 1_555
O1 C1 1_555 1_555
O2 Cd1 1_555 1_555
O3 C9 1_555 1_555
O4 C9 1_555 1_555
O5 C16 1_555 1_555
O6 C16 1_555 1_555
O7 C17 1_555 1_555
O8 C17 1_555 1_555
O9 Cd1 1_555 1_555
O10 Cd1 1_555 1_555
O11 C32 1_555 1_555
O12 C32 1_555 1_555
O13 Cd2 1_555 1_555
O14 Cd3 1_555 1_555
O15 Cd3 1_555 1_555
Cd1G O3 1_555 1_555
Cd1A O5 1_555 1_555
Cd1C O11 1_555 1_555
Cd2C O8 1_555 1_555
Cd2G O10 1_555 1_555
Cd2D O11 1_555 1_555
Cd3F O6 1_555 1_555
Cd3C O7 1_555 1_555
Cd3G O10 1_555 1_555
O3G Cd1 1_555 1_555
O5A Cd1 1_555 1_555
O6F Cd3 1_555 1_555
O7C Cd3 1_555 1_555
O8C Cd2 1_555 1_555
O10G Cd2 1_555 1_555
O11C Cd1 1_555 1_555
O11D Cd2 1_555 1_555
O12D Cd2 1_555 1_555
Cd3 O10G 1_555 1_555
C1 O2 1_555 1_555
C6 C7 1_555 1_555
C12 N1 1_555 1_555
C14 C15 1_555 1_555
C22 C23 1_555 1_555
C25 O9 1_555 1_555
C25 O10 1_555 1_555
C30 C31 1_555 1_555
C30 N2 1_555 1_555
C33 O13 1_555 1_555
C35 N3 1_555 1_555
C36 O14 1_555 1_555
C38 N4 1_555 1_555
C39 O15 1_555 1_555
C41 N5 1_555 1_555
O12 Cd2D 1_555 1_555
Cd1G O10G 1_555 1_555
Cd1G O11D 1_555 1_555
Cd2G O11C 1_555 1_555

#END
