
#######################################################################
#
#                 Cambridge Crystallographic Data Centre
#                                CCDC 
#
#######################################################################
#
# If this CIF has been generated from an entry in the Cambridge 
# Structural Database, then it will include bibliographic, chemical, 
# crystal, experimental, refinement or atomic coordinate data resulting 
# from the CCDC's data processing and validation procedures.
#
#######################################################################

data_REHHIW
_symmetry_cell_setting           monoclinic
_symmetry_space_group_name_H-M   'P 21/c'
_symmetry_Int_Tables_number      14
_space_group_name_Hall           '-P 2ybc'
loop_
_symmetry_equiv_pos_site_id
_symmetry_equiv_pos_as_xyz
1 x,y,z
2 -x,1/2+y,1/2-z
3 -x,-y,-z
4 x,1/2-y,1/2+z
_cell_length_a                   14.139(4)
_cell_length_b                   9.367(3)
_cell_length_c                   7.124(2)
_cell_angle_alpha                90
_cell_angle_beta                 98.652(4)
_cell_angle_gamma                90
_cell_volume                     932.766
loop_
_atom_site_label
_atom_site_type_symbol
_atom_site_fract_x
_atom_site_fract_y
_atom_site_fract_z
K1 K 0.43178(3) 0.16967(4) 0.12011(5)
C1 C 0.82304(14) -0.1245(2) 0.3711(3)
H1 H 0.8158 -0.1593 0.4949
H2 H 0.8831 -0.1565 0.3389
H3 H 0.7717 -0.1601 0.2794
C2 C 0.82070(12) 0.03601(17) 0.3714(2)
C3 C 0.73878(11) 0.11618(17) 0.3906(2)
C4 C 0.74137(12) 0.26380(17) 0.3957(2)
H4 H 0.6869 0.3162 0.4090
C5 C 0.82688(12) 0.33199(16) 0.3805(2)
C6 C 0.90883(12) 0.25777(19) 0.3593(2)
H5 H 0.9654 0.3054 0.3484
C7 C 0.90432(12) 0.1110(2) 0.3548(3)
H6 H 0.9591 0.0599 0.3402
S1 S 0.62651(3) 0.03419(4) 0.41185(5)
O1 O 0.59231(9) -0.03100(13) 0.22806(17)
O2 O 0.56581(8) 0.15045(13) 0.4554(2)
O3 O 0.64622(9) -0.07146(14) 0.56083(18)
N1 N 0.82974(11) 0.48761(16) 0.3926(2)
O4 O 0.76100(10) 0.54994(13) 0.4381(2)
O5 O 0.90175(12) 0.54864(16) 0.3605(3)
K1C K 0.43178(3) 0.33033(4) -0.37989(5)
K1C_2 K 0.43178(3) 0.33033(4) 0.62011(5)
K1B K 0.56822(3) -0.16967(4) -0.12011(5)
K1A K 0.56822(3) -0.33033(4) 0.37989(5)
K1B_2 K 0.56822(3) -0.16967(4) 0.87989(5)
K1A_2 K 0.56822(3) 0.66967(4) 0.37989(5)
O1B O 0.40769(9) 0.03100(13) -0.22806(17)
O1A O 0.40769(9) 0.46900(13) 0.27194(17)
O2C O 0.56581(8) 0.34955(13) -0.0446(2)
O3B O 0.35378(9) 0.07146(14) 0.43917(18)
O3A O 0.35378(9) 0.42854(14) -0.06083(18)
O4A O 0.23900(10) 0.04994(13) 0.0619(2)
loop_
_geom_bond_atom_site_label_1
_geom_bond_atom_site_label_2
_geom_bond_site_symmetry_1
_geom_bond_site_symmetry_2
K1 O1 1_555 1_555
C1 H1 1_555 1_555
H2 C1 1_555 1_555
H3 C1 1_555 1_555
C2 C1 1_555 1_555
C3 C2 1_555 1_555
C4 C3 1_555 1_555
H4 C4 1_555 1_555
C5 C4 1_555 1_555
C6 C5 1_555 1_555
H5 C6 1_555 1_555
C7 C2 1_555 1_555
H6 C7 1_555 1_555
S1 C3 1_555 1_555
O1 S1 1_555 1_555
O2 K1 1_555 1_555
O3 S1 1_555 1_555
N1 C5 1_555 1_555
O4 N1 1_555 1_555
O5 N1 1_555 1_555
K1C O1B 1_555 1_555
K1C_2 O2 1_555 1_555
K1B O1 1_555 1_555
K1A O1 1_555 1_555
K1B_2 O3 1_555 1_555
K1A_2 O4 1_555 1_555
O1B K1 1_555 1_555
O1A K1 1_555 1_555
O2C K1 1_555 1_555
O3B K1 1_555 1_555
O3A K1 1_555 1_555
O4A K1 1_555 1_555
C6 C7 1_555 1_555
S1 O2 1_555 1_555
O3 K1A 1_555 1_555
K1C O2C 1_555 1_555
K1C O3A 1_555 1_555
K1C_2 O1A 1_555 1_555
K1C_2 O3B 1_555 1_555
K1B O1B 1_555 1_555
K1A_2 O1A 1_555 1_555

#END
