
#######################################################################
#
#                 Cambridge Crystallographic Data Centre
#                                CCDC 
#
#######################################################################
#
# If this CIF has been generated from an entry in the Cambridge 
# Structural Database, then it will include bibliographic, chemical, 
# crystal, experimental, refinement or atomic coordinate data resulting 
# from the CCDC's data processing and validation procedures.
#
#######################################################################

data_REHMEY
_symmetry_cell_setting           triclinic
_symmetry_space_group_name_H-M   'P -1'
_symmetry_Int_Tables_number      2
_space_group_name_Hall           '-P 1'
loop_
_symmetry_equiv_pos_site_id
_symmetry_equiv_pos_as_xyz
1 x,y,z
2 -x,-y,-z
_cell_length_a                   9.0717(3)
_cell_length_b                   9.5953(3)
_cell_length_c                   24.5297(9)
_cell_angle_alpha                79.486(2)
_cell_angle_beta                 85.167(2)
_cell_angle_gamma                88.973(2)
_cell_volume                     2091.88
loop_
_atom_site_label
_atom_site_type_symbol
_atom_site_fract_x
_atom_site_fract_y
_atom_site_fract_z
C1 C -0.1132(7) 0.3917(6) 0.4000(2)
H1 H -0.1738 0.3230 0.3913
C2 C 0.4033(4) 1.4036(4) 0.03334(17)
C3 C -0.0604(9) 0.4713(5) 0.2988(2)
C4 C -0.1560(4) 1.1509(4) 0.18905(17)
H2 H -0.1316 1.0948 0.2222
C5 C -0.0880(5) 1.2539(4) 0.09950(17)
H3 H -0.0177 1.2697 0.0692
C6 C 0.4419(5) 1.5246(4) 0.05084(17)
H4 H 0.4033 1.5418 0.0853
C7 C -0.1975(4) 0.9514(5) 0.72797(17)
C8 C -0.2390(4) 0.9922(5) 0.55213(16)
C9 C 0.0720(5) 0.6205(4) 0.16192(17)
C10 C 0.3047(5) 1.2931(5) 0.0707(2)
C11 C 0.4626(4) 1.3788(4) -0.01782(17)
H5 H 0.4381 1.2965 -0.0300
C12 C -0.1780(5) 0.8719(5) 0.58234(18)
H6 H -0.1438 0.7991 0.5642
C13 C -0.2131(4) 0.9650(4) 0.66718(16)
C14 C 0.4962(4) 0.5112(4) 0.46935(18)
C15 C -0.1672(5) 0.8584(5) 0.63864(17)
H7 H -0.1280 0.7755 0.6580
C16 C -0.3169(5) 1.0322(6) 0.31757(18)
C17 C -0.2747(5) 1.0853(5) 0.63742(17)
H8 H -0.3073 1.1586 0.6556
C18 C -0.3308(5) 1.2902(5) 0.13860(18)
H9 H -0.4244 1.3304 0.1356
C19 C 0.0929(5) 0.7525(4) 0.17419(17)
H10 H 0.0970 0.7593 0.2114
C20 C -0.1643(5) 0.9310(5) 0.45815(17)
H11 H -0.0905 0.8726 0.4740
C21 C -0.1827(5) 0.9408(5) 0.40222(18)
H12 H -0.1223 0.8878 0.3811
C22 C -0.2902(5) 1.0286(5) 0.37728(17)
C23 C -0.2882(5) 1.0979(5) 0.58110(18)
H13 H -0.3312 1.1792 0.5621
C24 C 0.0803(6) 0.7346(5) 0.0672(2)
H14 H 0.0753 0.7309 0.0298
C25 C 0.4863(6) 0.5550(5) 0.3529(2)
C26 C 0.4661(5) 0.8547(6) 0.1723(2)
H15 H 0.4036 0.8254 0.2042
C27 C -0.3789(5) 1.1055(6) 0.40993(18)
H16 H -0.4514 1.1653 0.3938
C28 C -0.2248(5) 1.3151(5) 0.09406(19)
H17 H -0.2461 1.3726 0.0608
C29 C 0.1011(5) 0.8611(5) 0.08361(18)
H18 H 0.1111 0.9428 0.0566
C30 C -0.4135(5) 1.1716(6) 0.23494(17)
H19 H -0.4614 1.0839 0.2322
H20 H -0.4878 1.2459 0.2312
C31 C 0.5791(6) 0.6154(5) 0.4344(2)
H21 H 0.6394 0.6729 0.4497
C32 C 0.5246(6) 1.0122(5) 0.0940(2)
H22 H 0.5036 1.0945 0.0693
C33 C -0.3616(5) 1.0950(6) 0.46586(19)
H23 H -0.4228 1.1476 0.4869
C34 C 0.0609(8) 0.4865(5) 0.20499(19)
H24 H -0.0283 0.4367 0.2008
H25 H 0.1444 0.4260 0.1979
C35 C 0.5747(6) 0.6365(6) 0.3775(2)
H26 H 0.6327 0.7072 0.3552
C36 C -0.2543(4) 1.0073(5) 0.49126(17)
C37 C -0.2967(4) 1.2059(4) 0.18709(16)
C38 C -0.0100(7) 0.4978(5) 0.4703(2)
C39 C 0.0668(6) 0.6132(5) 0.10677(19)
H27 H 0.0541 0.5262 0.0962
C40 C 0.6819(6) 0.8183(6) 0.1168(2)
H28 H 0.7663 0.7664 0.1092
C41 C 0.5883(6) 0.7731(6) 0.1633(2)
C42 C 0.4077(7) 0.4328(6) 0.4441(2)
H29 H 0.3490 0.3622 0.4661
C43 C -0.0411(7) 0.4858(5) 0.3578(2)
C44 C -0.0974(7) 0.3974(6) 0.4551(2)
H30 H -0.1472 0.3315 0.4828
C45 C 0.4803(9) 0.5701(6) 0.2916(3)
C46 C 0.6499(6) 0.9387(6) 0.0826(3)
H31 H 0.7129 0.9717 0.0511
C47 C 0.0433(10) 0.5894(6) 0.3717(2)
H32 H 0.0926 0.6550 0.3438
C48 C 0.0556(10) 0.5967(6) 0.4271(2)
H33 H 0.1095 0.6703 0.4355
C49 C 0.4029(8) 0.4549(6) 0.3877(3)
H34 H 0.3401 0.3994 0.3726
C50 C 0.6138(10) 0.6341(9) 0.2007(3)
H35 H 0.5504 0.5634 0.1911
H36 H 0.7154 0.6051 0.1934
Cd1 Cd 0.19158(3) 1.08434(3) 0.159232(11)
N1 N -0.0518(3) 1.1727(3) 0.14664(13)
N2 N 0.4311(4) 0.9723(4) 0.13848(15)
N3 N 0.1078(4) 0.8719(3) 0.13629(14)
N4 N 0.0581(7) 0.5085(4) 0.26187(16)
H37 H 0.1335 0.5462 0.2725
N5 N 0.5864(6) 0.6350(8) 0.2596(2)
H38 H 0.6461 0.6829 0.2744
N6 N -0.3603(4) 1.1568(4) 0.28954(14)
H39 H -0.3564 1.2308 0.3046
O1 O -0.1757(6) 0.4268(6) 0.28548(17)
O2 O 0.3818(10) 0.5246(8) 0.2716(2)
O3 O 0.2440(4) 1.2021(4) 0.04991(15)
O4 O 0.2947(3) 1.2977(3) 0.12167(13)
O5 O -0.1735(4) 0.8334(4) 0.75588(13)
O6 O -0.2095(4) 1.0585(4) 0.74960(13)
O7 O -0.3022(5) 0.9266(4) 0.29620(13)
C1A C 0.1132(7) 0.6083(6) 0.6000(2)
H1A H 0.1738 0.6770 0.6087
C2A C 0.5967(4) 1.5964(4) -0.03334(17)
C3A C 0.0604(9) 0.5287(5) 0.7012(2)
C4A C 0.1560(4) 0.8491(4) 0.81095(17)
H2A H 0.1316 0.9052 0.7778
C5A C 0.0880(5) 0.7461(4) 0.90050(17)
H3A H 0.0177 0.7303 0.9308
C6A C 0.5581(5) 1.4754(4) -0.05084(17)
H4A H 0.5967 1.4582 -0.0853
C7A C 0.1975(4) 1.0486(5) 0.27203(17)
C8A C 0.2390(4) 1.0078(5) 0.44787(16)
C9A C -0.0720(5) 0.3795(4) 0.83808(17)
C10A C 0.6953(5) 1.7069(5) -0.0707(2)
C11A C 0.5374(4) 1.6212(4) 0.01782(17)
H5A H 0.5619 1.7035 0.0300
C12A C 0.1780(5) 1.1281(5) 0.41766(18)
H6A H 0.1438 1.2009 0.4358
C13A C 0.2131(4) 1.0350(4) 0.33282(16)
C14A C 0.5038(4) 0.4888(4) 0.53065(18)
C15A C 0.1672(5) 1.1416(5) 0.36136(17)
H7A H 0.1280 1.2245 0.3420
C16A C 0.3169(5) 0.9678(6) 0.68243(18)
C17A C 0.2747(5) 0.9147(5) 0.36258(17)
H8A H 0.3073 0.8414 0.3444
C18A C 0.3308(5) 0.7098(5) 0.86140(18)
H9A H 0.4244 0.6696 0.8644
C19A C -0.0929(5) 0.2475(4) 0.82581(17)
H10A H -0.0970 0.2407 0.7886
C20A C 0.1643(5) 1.0690(5) 0.54185(17)
H11A H 0.0905 1.1274 0.5260
C21A C 0.1827(5) 1.0592(5) 0.59778(18)
H12A H 0.1223 1.1122 0.6189
C22A C 0.2902(5) 0.9714(5) 0.62272(17)
C23A C 0.2882(5) 0.9021(5) 0.41890(18)
H13A H 0.3312 0.8208 0.4379
C24A C -0.0803(6) 0.2654(5) 0.9328(2)
H14A H -0.0753 0.2691 0.9702
C25A C 0.5137(6) 0.4450(5) 0.6471(2)
C26A C 0.5339(5) 0.1453(6) 0.8277(2)
H15A H 0.5964 0.1746 0.7958
C27A C 0.3789(5) 0.8945(6) 0.59007(18)
H16A H 0.4514 0.8347 0.6062
C28A C 0.2248(5) 0.6849(5) 0.90594(19)
H17A H 0.2461 0.6274 0.9392
C29A C -0.1011(5) 0.1389(5) 0.91639(18)
H18A H -0.1111 0.0572 0.9434
C30A C 0.4135(5) 0.8284(6) 0.76506(17)
H19A H 0.4614 0.9161 0.7678
H20A H 0.4878 0.7541 0.7688
C31A C 0.4209(6) 0.3846(5) 0.5656(2)
H21A H 0.3606 0.3271 0.5503
C32A C 0.4754(6) -0.0122(5) 0.9060(2)
H22A H 0.4964 -0.0945 0.9307
C33A C 0.3616(5) 0.9050(6) 0.53414(19)
H23A H 0.4228 0.8524 0.5131
C34A C -0.0609(8) 0.5135(5) 0.79501(19)
H24A H 0.0283 0.5633 0.7992
H25A H -0.1444 0.5740 0.8021
C35A C 0.4253(6) 0.3635(6) 0.6225(2)
H26A H 0.3673 0.2928 0.6448
C36A C 0.2543(4) 0.9927(5) 0.50874(17)
C37A C 0.2967(4) 0.7941(4) 0.81291(16)
C38A C 0.0100(7) 0.5022(5) 0.5297(2)
C39A C -0.0668(6) 0.3868(5) 0.89323(19)
H27A H -0.0541 0.4738 0.9038
C40A C 0.3181(6) 0.1817(6) 0.8832(2)
H28A H 0.2337 0.2336 0.8908
C41A C 0.4117(6) 0.2269(6) 0.8367(2)
C42A C 0.5923(7) 0.5672(6) 0.5559(2)
H29A H 0.6510 0.6378 0.5339
C43A C 0.0411(7) 0.5142(5) 0.6422(2)
C44A C 0.0974(7) 0.6026(6) 0.5449(2)
H30A H 0.1472 0.6685 0.5172
C45A C 0.5197(9) 0.4299(6) 0.7084(3)
C46A C 0.3501(6) 0.0613(6) 0.9174(3)
H31A H 0.2871 0.0283 0.9489
C47A C -0.0433(10) 0.4106(6) 0.6283(2)
H32A H -0.0926 0.3450 0.6562
C48A C -0.0556(10) 0.4033(6) 0.5729(2)
H33A H -0.1095 0.3297 0.5645
C49A C 0.5971(8) 0.5451(6) 0.6123(3)
H34A H 0.6599 0.6006 0.6274
C50A C 0.3862(10) 0.3659(9) 0.7993(3)
H35A H 0.4496 0.4366 0.8089
H36A H 0.2846 0.3949 0.8066
Cd1A Cd -0.19158(3) 0.91566(3) 0.840768(11)
Cd1A_2 Cd -0.19158(3) -0.08434(3) 0.840768(11)
Cd1A_3 Cd 0.80842(3) 1.91566(3) -0.159232(11)
Cd1A_4 Cd 0.80842(3) -0.08434(3) 0.840768(11)
N1A N 0.0518(3) 0.8273(3) 0.85336(13)
N2A N 0.5689(4) 0.0277(4) 0.86152(15)
N2A_2 N -0.4311(4) 1.0277(4) 0.86152(15)
N3A N -0.1078(4) 0.1281(3) 0.86371(14)
N3A_2 N -0.1078(4) 1.1281(3) 0.86371(14)
N4A N -0.0581(7) 0.4915(4) 0.73813(16)
H37A H -0.1335 0.4538 0.7275
N5A N 0.4136(6) 0.3650(8) 0.7404(2)
H38A H 0.3539 0.3171 0.7256
N6A N 0.3603(4) 0.8432(4) 0.71046(14)
H39A H 0.3564 0.7692 0.6954
O1A O 0.1757(6) 0.5732(6) 0.71452(17)
O2A O 0.6182(10) 0.4754(8) 0.7284(2)
O3A O 0.7560(4) 1.7979(4) -0.04991(15)
O3A_2 O -0.2440(4) 0.7979(4) 0.95009(15)
O4A O 0.7053(3) 1.7023(3) -0.12167(13)
O4A_2 O -0.2947(3) 0.7023(3) 0.87833(13)
O5A O 0.1735(4) 1.1666(4) 0.24412(13)
O6A O 0.2095(4) 0.9415(4) 0.25040(13)
O7A O 0.3022(5) 1.0734(4) 0.70380(13)
loop_
_geom_bond_atom_site_label_1
_geom_bond_atom_site_label_2
_geom_bond_site_symmetry_1
_geom_bond_site_symmetry_2
C1 H1 1_555 1_555
C2 C6 1_555 1_555
C3 C43 1_555 1_555
C4 H2 1_555 1_555
C5 H3 1_555 1_555
C6 H4 1_555 1_555
C7 C13 1_555 1_555
C8 C12 1_555 1_555
C9 C19 1_555 1_555
C10 C2 1_555 1_555
C11 C2 1_555 1_555
H5 C11 1_555 1_555
C12 H6 1_555 1_555
C13 C15 1_555 1_555
C14 C31 1_555 1_555
C15 C12 1_555 1_555
H7 C15 1_555 1_555
C16 C22 1_555 1_555
C17 C13 1_555 1_555
H8 C17 1_555 1_555
C18 H9 1_555 1_555
C19 H10 1_555 1_555
C20 H11 1_555 1_555
C21 C20 1_555 1_555
H12 C21 1_555 1_555
C22 C21 1_555 1_555
C23 C8 1_555 1_555
H13 C23 1_555 1_555
C24 H14 1_555 1_555
C25 C35 1_555 1_555
C26 H15 1_555 1_555
C27 C22 1_555 1_555
H16 C27 1_555 1_555
C28 C5 1_555 1_555
H17 C28 1_555 1_555
C29 C24 1_555 1_555
H18 C29 1_555 1_555
C30 H19 1_555 1_555
H20 C30 1_555 1_555
C31 H21 1_555 1_555
C32 H22 1_555 1_555
C33 C27 1_555 1_555
H23 C33 1_555 1_555
C34 C9 1_555 1_555
H24 C34 1_555 1_555
H25 C34 1_555 1_555
C35 C31 1_555 1_555
H26 C35 1_555 1_555
C36 C8 1_555 1_555
C37 C4 1_555 1_555
C38 C44 1_555 1_555
C39 C9 1_555 1_555
H27 C39 1_555 1_555
C40 H28 1_555 1_555
C41 C26 1_555 1_555
C42 C14 1_555 1_555
H29 C42 1_555 1_555
C43 C1 1_555 1_555
C44 C1 1_555 1_555
H30 C44 1_555 1_555
C45 C25 1_555 1_555
C46 C32 1_555 1_555
H31 C46 1_555 1_555
C47 C43 1_555 1_555
H32 C47 1_555 1_555
C48 C38 1_555 1_555
H33 C48 1_555 1_555
C49 C25 1_555 1_555
H34 C49 1_555 1_555
C50 C41 1_555 1_555
H35 C50 1_555 1_555
H36 C50 1_555 1_555
Cd1 N1 1_555 1_555
N1 C4 1_555 1_555
N2 C26 1_555 1_555
N3 C19 1_555 1_555
N4 C3 1_555 1_555
H37 N4 1_555 1_555
N5 C45 1_555 1_555
H38 N5 1_555 1_555
N6 C16 1_555 1_555
H39 N6 1_555 1_555
O1 C3 1_555 1_555
O2 C45 1_555 1_555
O3 C10 1_555 1_555
O4 C10 1_555 1_555
O5 C7 1_555 1_555
O6 C7 1_555 1_555
O7 C16 1_555 1_555
C1A H1A 1_555 1_555
C2A C6A 1_555 1_555
C3A C43A 1_555 1_555
C4A H2A 1_555 1_555
C5A H3A 1_555 1_555
C6A C11 1_555 1_555
H4A C6A 1_555 1_555
C7A C13A 1_555 1_555
C8A C12A 1_555 1_555
C9A C19A 1_555 1_555
C10A C2A 1_555 1_555
C11A C6 1_555 1_555
H5A C11A 1_555 1_555
C12A H6A 1_555 1_555
C13A C15A 1_555 1_555
C14A C14 1_555 1_555
C15A C12A 1_555 1_555
H7A C15A 1_555 1_555
C16A C22A 1_555 1_555
C17A C13A 1_555 1_555
H8A C17A 1_555 1_555
C18A H9A 1_555 1_555
C19A H10A 1_555 1_555
C20A H11A 1_555 1_555
C21A C20A 1_555 1_555
H12A C21A 1_555 1_555
C22A C21A 1_555 1_555
C23A C8A 1_555 1_555
H13A C23A 1_555 1_555
C24A H14A 1_555 1_555
C25A C35A 1_555 1_555
C26A H15A 1_555 1_555
C27A C22A 1_555 1_555
H16A C27A 1_555 1_555
C28A C5A 1_555 1_555
H17A C28A 1_555 1_555
C29A C24A 1_555 1_555
H18A C29A 1_555 1_555
C30A H19A 1_555 1_555
H20A C30A 1_555 1_555
C31A C14A 1_555 1_555
H21A C31A 1_555 1_555
C32A H22A 1_555 1_555
C33A C27A 1_555 1_555
H23A C33A 1_555 1_555
C34A C9A 1_555 1_555
H24A C34A 1_555 1_555
H25A C34A 1_555 1_555
C35A C31A 1_555 1_555
H26A C35A 1_555 1_555
C36A C8A 1_555 1_555
C37A C4A 1_555 1_555
C38A C38 1_555 1_555
C39A C9A 1_555 1_555
H27A C39A 1_555 1_555
C40A H28A 1_555 1_555
C41A C26A 1_555 1_555
C42A C14A 1_555 1_555
H29A C42A 1_555 1_555
C43A C1A 1_555 1_555
C44A C1A 1_555 1_555
H30A C44A 1_555 1_555
C45A C25A 1_555 1_555
C46A C32A 1_555 1_555
H31A C46A 1_555 1_555
C47A C43A 1_555 1_555
H32A C47A 1_555 1_555
C48A C38A 1_555 1_555
H33A C48A 1_555 1_555
C49A C25A 1_555 1_555
H34A C49A 1_555 1_555
C50A C41A 1_555 1_555
H35A C50A 1_555 1_555
H36A C50A 1_555 1_555
Cd1A O5 1_555 1_555
Cd1A_2 N3A 1_555 1_555
Cd1A_3 O3A 1_555 1_555
Cd1A_4 N2A 1_555 1_555
N1A C4A 1_555 1_555
N2A C26A 1_555 1_555
N2A_2 Cd1A 1_555 1_555
N3A C19A 1_555 1_555
N3A_2 Cd1A 1_555 1_555
N4A C3A 1_555 1_555
H37A N4A 1_555 1_555
N5A C45A 1_555 1_555
H38A N5A 1_555 1_555
N6A C16A 1_555 1_555
H39A N6A 1_555 1_555
O1A C3A 1_555 1_555
O2A C45A 1_555 1_555
O3A C10A 1_555 1_555
O3A_2 Cd1A 1_555 1_555
O4A C10A 1_555 1_555
O4A_2 Cd1A 1_555 1_555
O5A Cd1 1_555 1_555
O6A Cd1 1_555 1_555
O7A C16A 1_555 1_555
C5 N1 1_555 1_555
C17 C23 1_555 1_555
C18 C28 1_555 1_555
C18 C37 1_555 1_555
C20 C36 1_555 1_555
C24 C39 1_555 1_555
C29 N3 1_555 1_555
C30 C37 1_555 1_555
C30 N6 1_555 1_555
C32 N2 1_555 1_555
C33 C36 1_555 1_555
C34 N4 1_555 1_555
C40 C41 1_555 1_555
C40 C46 1_555 1_555
C42 C49 1_555 1_555
C47 C48 1_555 1_555
C50 N5 1_555 1_555
Cd1 N2 1_555 1_555
Cd1 N3 1_555 1_555
Cd1 O3 1_555 1_555
Cd1 O4 1_555 1_555
O6 Cd1A 1_555 1_555
C2A C11A 1_555 1_555
C5A N1A 1_555 1_555
C7A O5A 1_555 1_555
C7A O6A 1_555 1_555
C17A C23A 1_555 1_555
C18A C28A 1_555 1_555
C18A C37A 1_555 1_555
C20A C36A 1_555 1_555
C24A C39A 1_555 1_555
C29A N3A 1_555 1_555
C30A C37A 1_555 1_555
C30A N6A 1_555 1_555
C32A N2A 1_555 1_555
C33A C36A 1_555 1_555
C34A N4A 1_555 1_555
C38A C44A 1_555 1_555
C40A C41A 1_555 1_555
C40A C46A 1_555 1_555
C42A C49A 1_555 1_555
C47A C48A 1_555 1_555
C50A N5A 1_555 1_555
Cd1A N1A 1_555 1_555
Cd1A_3 O4A 1_555 1_555

#END
