
#######################################################################
#
#                 Cambridge Crystallographic Data Centre
#                                CCDC 
#
#######################################################################
#
# If this CIF has been generated from an entry in the Cambridge 
# Structural Database, then it will include bibliographic, chemical, 
# crystal, experimental, refinement or atomic coordinate data resulting 
# from the CCDC's data processing and validation procedures.
#
#######################################################################

data_REHPAX
_symmetry_cell_setting           monoclinic
_symmetry_space_group_name_H-M   'P 21/c'
_symmetry_Int_Tables_number      14
_space_group_name_Hall           '-P 2ybc'
loop_
_symmetry_equiv_pos_site_id
_symmetry_equiv_pos_as_xyz
1 x,y,z
2 -x,1/2+y,1/2-z
3 -x,-y,-z
4 x,1/2-y,1/2+z
_cell_length_a                   16.619(9)
_cell_length_b                   14.447(8)
_cell_length_c                   8.019(4)
_cell_angle_alpha                90
_cell_angle_beta                 96.614(10)
_cell_angle_gamma                90
_cell_volume                     1912.51
loop_
_atom_site_label
_atom_site_type_symbol
_atom_site_fract_x
_atom_site_fract_y
_atom_site_fract_z
Gd1 Gd 0.44915(2) 0.11592(2) 0.05245(5)
O1 O 0.4877(4) 0.2765(4) 0.0947(8)
H1 H 0.4809 0.3046 0.0010
H2 H 0.4582 0.3013 0.1621
O2 O 0.5242(4) 0.1081(4) 0.3361(7)
O3 O 0.5436(3) -0.0092(4) 0.1739(7)
O4 O 0.3659(3) -0.0089(4) 0.1068(8)
O5 O 0.4256(4) -0.1432(4) 0.0508(8)
O6 O 0.3769(3) 0.1843(4) -0.1795(7)
O7 O 0.3452(3) 0.3219(4) -0.2980(7)
N1 N 0.2208(5) -0.3826(5) 0.2574(10)
N2 N 0.1528(5) -0.3890(5) 0.3283(11)
N3 N 0.1253(4) -0.3023(5) 0.3525(10)
H3 H 0.0816 -0.2904 0.3965
N4 N 0.0146(5) 0.1922(5) -0.0338(11)
N5 N 0.0160(5) 0.1010(6) -0.0273(12)
N6 N 0.0874(5) 0.0717(5) -0.0715(10)
H4 H 0.1010 0.0144 -0.0762
C1 C 0.6269(6) -0.0013(6) 0.4394(11)
H5 H 0.6790 0.0125 0.4047
H6 H 0.6213 -0.0671 0.4503
H7 H 0.6223 0.0277 0.5455
C2 C 0.5620(5) 0.0342(5) 0.3115(10)
C3 C 0.3675(5) -0.0980(5) 0.1082(11)
C4 C 0.3011(5) -0.1490(6) 0.1708(10)
C5 C 0.3019(5) -0.2445(6) 0.1724(10)
H8 H 0.3434 -0.2780 0.1322
C6 C 0.2362(5) -0.2893(5) 0.2386(10)
C7 C 0.1745(5) -0.2363(6) 0.2993(11)
C8 C 0.1736(5) -0.1394(6) 0.2969(11)
H9 H 0.1329 -0.1053 0.3386
C9 C 0.2368(5) -0.0981(6) 0.2291(11)
H10 H 0.2376 -0.0339 0.2211
C10 C 0.3278(5) 0.2500(5) -0.2212(9)
C11 C 0.2420(5) 0.2382(6) -0.1769(9)
C12 C 0.1947(5) 0.3178(6) -0.1577(13)
H11 H 0.2156 0.3759 -0.1780
C13 C 0.1177(6) 0.3109(6) -0.1093(12)
H12 H 0.0868 0.3634 -0.0958
C14 C 0.0876(5) 0.2221(6) -0.0810(11)
C15 C 0.1360(5) 0.1438(6) -0.1084(11)
C16 C 0.2136(5) 0.1497(6) -0.1510(10)
H13 H 0.2451 0.0974 -0.1618
Gd1B Gd 0.55085(2) -0.11592(2) -0.05245(5)
Gd1A Gd 0.55085(2) -0.38408(2) 0.44755(5)
Gd1C Gd 0.44915(2) 0.38408(2) -0.44755(5)
O1B O 0.5123(4) -0.2765(4) -0.0947(8)
H1B H 0.5191 -0.3046 -0.0010
H2B H 0.5418 -0.3013 -0.1621
O2B O 0.4758(4) -0.1081(4) -0.3361(7)
O3B O 0.4564(3) 0.0092(4) -0.1739(7)
O4B O 0.6341(3) 0.0089(4) -0.1068(8)
O5B O 0.5744(4) 0.1432(4) -0.0508(8)
O6B O 0.6231(3) -0.1843(4) 0.1795(7)
O7B O 0.6548(3) -0.3219(4) 0.2980(7)
O7A O 0.6548(3) -0.1781(4) -0.2020(7)
O7C O 0.3452(3) 0.1781(4) 0.2020(7)
N1B N 0.7792(5) 0.3826(5) -0.2574(10)
N2B N 0.8472(5) 0.3890(5) -0.3283(11)
N3B N 0.8747(4) 0.3023(5) -0.3525(10)
H3B H 0.9184 0.2904 -0.3965
N4B N 0.9854(5) -0.1922(5) 0.0338(11)
N5B N 0.9840(5) -0.1010(6) 0.0273(12)
N6B N 0.9126(5) -0.0717(5) 0.0715(10)
H4B H 0.8990 -0.0144 0.0762
C1B C 0.3731(6) 0.0013(6) -0.4394(11)
H5B H 0.3210 -0.0125 -0.4047
H6B H 0.3787 0.0671 -0.4503
H7B H 0.3777 -0.0277 -0.5455
C2B C 0.4380(5) -0.0342(5) -0.3115(10)
C3B C 0.6325(5) 0.0980(5) -0.1082(11)
C4B C 0.6989(5) 0.1490(6) -0.1708(10)
C5B C 0.6981(5) 0.2445(6) -0.1724(10)
H8B H 0.6566 0.2780 -0.1322
C6B C 0.7638(5) 0.2893(5) -0.2386(10)
C7B C 0.8255(5) 0.2363(6) -0.2993(11)
C8B C 0.8264(5) 0.1394(6) -0.2969(11)
H9B H 0.8671 0.1053 -0.3386
C9B C 0.7632(5) 0.0981(6) -0.2291(11)
H10B H 0.7624 0.0339 -0.2211
C10B C 0.6722(5) -0.2500(5) 0.2212(9)
C11B C 0.7580(5) -0.2382(6) 0.1769(9)
C12B C 0.8053(5) -0.3178(6) 0.1577(13)
H11B H 0.7844 -0.3759 0.1780
C13B C 0.8823(6) -0.3109(6) 0.1093(12)
H12B H 0.9132 -0.3634 0.0958
C14B C 0.9124(5) -0.2221(6) 0.0810(11)
C15B C 0.8640(5) -0.1438(6) 0.1084(11)
C16B C 0.7864(5) -0.1497(6) 0.1510(10)
H13B H 0.7549 -0.0974 0.1618
loop_
_geom_bond_atom_site_label_1
_geom_bond_atom_site_label_2
_geom_bond_site_symmetry_1
_geom_bond_site_symmetry_2
Gd1 O1 1_555 1_555
O1 H1 1_555 1_555
H2 O1 1_555 1_555
O2 Gd1 1_555 1_555
O3 Gd1 1_555 1_555
O4 Gd1 1_555 1_555
O5 C3 1_555 1_555
O6 Gd1 1_555 1_555
O7 C10 1_555 1_555
N1 N2 1_555 1_555
N2 N3 1_555 1_555
N3 H3 1_555 1_555
N4 N5 1_555 1_555
N5 N6 1_555 1_555
N6 H4 1_555 1_555
C1 H5 1_555 1_555
H6 C1 1_555 1_555
H7 C1 1_555 1_555
C2 O2 1_555 1_555
C3 O4 1_555 1_555
C4 C3 1_555 1_555
C5 C4 1_555 1_555
H8 C5 1_555 1_555
C6 N1 1_555 1_555
C7 N3 1_555 1_555
C8 C7 1_555 1_555
H9 C8 1_555 1_555
C9 C4 1_555 1_555
H10 C9 1_555 1_555
C10 O6 1_555 1_555
C11 C10 1_555 1_555
C12 C11 1_555 1_555
H11 C12 1_555 1_555
C13 C12 1_555 1_555
H12 C13 1_555 1_555
C14 N4 1_555 1_555
C15 N6 1_555 1_555
C16 C11 1_555 1_555
H13 C16 1_555 1_555
Gd1B O3 1_555 1_555
Gd1A O7B 1_555 1_555
Gd1C O7 1_555 1_555
O1B Gd1B 1_555 1_555
H1B O1B 1_555 1_555
H2B O1B 1_555 1_555
O2B Gd1B 1_555 1_555
O3B Gd1 1_555 1_555
O4B Gd1B 1_555 1_555
O5B Gd1 1_555 1_555
O6B Gd1B 1_555 1_555
O7B C10B 1_555 1_555
O7A Gd1B 1_555 1_555
O7C Gd1 1_555 1_555
N1B N2B 1_555 1_555
N2B N3B 1_555 1_555
N3B H3B 1_555 1_555
N4B N5B 1_555 1_555
N5B N6B 1_555 1_555
N6B H4B 1_555 1_555
C1B H5B 1_555 1_555
H6B C1B 1_555 1_555
H7B C1B 1_555 1_555
C2B O2B 1_555 1_555
C3B O4B 1_555 1_555
C4B C3B 1_555 1_555
C5B C4B 1_555 1_555
H8B C5B 1_555 1_555
C6B N1B 1_555 1_555
C7B N3B 1_555 1_555
C8B C7B 1_555 1_555
H9B C8B 1_555 1_555
C9B C4B 1_555 1_555
H10B C9B 1_555 1_555
C10B O6B 1_555 1_555
C11B C10B 1_555 1_555
C12B C11B 1_555 1_555
H11B C12B 1_555 1_555
C13B C12B 1_555 1_555
H12B C13B 1_555 1_555
C14B N4B 1_555 1_555
C15B N6B 1_555 1_555
C16B C11B 1_555 1_555
H13B C16B 1_555 1_555
O3 C2 1_555 1_555
O5 Gd1B 1_555 1_555
C1 C2 1_555 1_555
C5 C6 1_555 1_555
C6 C7 1_555 1_555
C8 C9 1_555 1_555
C13 C14 1_555 1_555
C14 C15 1_555 1_555
C15 C16 1_555 1_555
Gd1B O3B 1_555 1_555
O3B C2B 1_555 1_555
O5B C3B 1_555 1_555
C1B C2B 1_555 1_555
C5B C6B 1_555 1_555
C6B C7B 1_555 1_555
C8B C9B 1_555 1_555
C13B C14B 1_555 1_555
C14B C15B 1_555 1_555
C15B C16B 1_555 1_555

#END
