
#######################################################################
#
#                 Cambridge Crystallographic Data Centre
#                                CCDC 
#
#######################################################################
#
# If this CIF has been generated from an entry in the Cambridge 
# Structural Database, then it will include bibliographic, chemical, 
# crystal, experimental, refinement or atomic coordinate data resulting 
# from the CCDC's data processing and validation procedures.
#
#######################################################################

data_REHQIG01
_symmetry_cell_setting           triclinic
_symmetry_space_group_name_H-M   'P 1'
_symmetry_Int_Tables_number      1
_space_group_name_Hall           'P 1'
loop_
_symmetry_equiv_pos_site_id
_symmetry_equiv_pos_as_xyz
1 x,y,z
_cell_length_a                   8.5957(7)
_cell_length_b                   9.6675(7)
_cell_length_c                   9.7939(7)
_cell_angle_alpha                106.145(3)
_cell_angle_beta                 104.798(4)
_cell_angle_gamma                107.691(4)
_cell_volume                     691.511
loop_
_atom_site_label
_atom_site_type_symbol
_atom_site_fract_x
_atom_site_fract_y
_atom_site_fract_z
Cd1 Cd 0.24423(19) 0.59650(18) 0.29320(17)
O1 O -0.0104(13) 0.5813(12) 0.1273(10)
O2 O -0.2072(12) 0.3777(12) 0.1328(12)
C1 C -0.1580(15) 0.4815(11) 0.0784(11)
C2 C -0.3062(13) 0.4969(13) -0.0373(11)
C3 C -0.3621(15) 0.6019(15) 0.0226(12)
H1 H -0.3093 0.6663 0.1288
C4 C -0.5051(14) 0.6170(12) -0.0765(10)
N1 N -0.5718(9) 0.5166(9) -0.2289(9)
C5 C -0.5073(13) 0.4056(11) -0.2892(11)
C6 C -0.5750(16) 0.3108(16) -0.4486(14)
H2 H -0.6618 0.3260 -0.5178
C7 C -0.5194(13) 0.2039(12) -0.5004(12)
H3 H -0.5663 0.1383 -0.6061
C8 C -0.3833(17) 0.1884(16) -0.3912(16)
H4 H -0.3411 0.1099 -0.4239
C9 C -0.3176(15) 0.2847(15) -0.2448(15)
H5 H -0.2265 0.2716 -0.1780
C10 C -0.3668(14) 0.3998(14) -0.1803(13)
O3 O -0.5787(12) 0.7018(11) -0.0390(10)
O4 O 0.4922(12) 0.6084(11) 0.4548(11)
O5 O 0.6875(12) 0.8362(8) 0.4780(10)
C11 C 0.6480(11) 0.7138(14) 0.4962(12)
C12 C 0.7833(16) 0.6937(15) 0.6036(13)
C13 C 0.8562(14) 0.5834(12) 0.5689(10)
H6 H 0.8037 0.5067 0.4672
C14 C 1.0033(14) 0.5743(14) 0.6722(13)
N2 N 1.0675(14) 0.6675(13) 0.8225(12)
C15 C 1.0015(11) 0.7765(11) 0.8741(9)
C16 C 1.0764(14) 0.8769(13) 1.0292(12)
H7 H 1.1712 0.8687 1.0968
C17 C 1.0123(16) 0.9900(13) 1.0860(11)
H8 H 1.0669 1.0566 1.1916
C18 C 0.8785(18) 1.0079(14) 0.9984(15)
H9 H 0.8354 1.0810 1.0435
C19 C 0.8005(17) 0.9180(15) 0.8379(15)
H10 H 0.7099 0.9324 0.7719
C20 C 0.8685(15) 0.8029(14) 0.7821(13)
O6 O 1.0726(12) 0.4770(11) 0.6251(10)
O7 O 0.0712(10) 0.3866(9) 0.3383(8)
H11 H 0.044(7) 0.402(8) 0.414(4)
H12 H -0.029(3) 0.374(8) 0.289(5)
O8 O 0.4129(12) 0.8121(11) 0.2505(10)
H13 H 0.490(6) 0.818(9) 0.325(5)
H14 H 0.404(8) 0.775(9) 0.161(3)
N3 N 0.2639(14) 0.4091(14) 0.1044(13)
C21 C 0.3642(17) 0.3299(15) 0.1252(15)
H15 H 0.4418 0.3566 0.2259
C22 C 0.3591(14) 0.2068(12) 0.0019(12)
H16 H 0.4355 0.1552 0.0211
C23 C 0.2502(13) 0.1636(10) -0.1381(12)
C24 C 0.1411(16) 0.2434(15) -0.1746(13)
H17 H 0.0634 0.2168 -0.2753
C25 C 0.1621(14) 0.3697(11) -0.0406(12)
H18 H 0.0967 0.4310 -0.0575
C26 C 0.2425(14) 0.0334(12) -0.2655(12)
C27 C 0.3398(17) -0.0535(15) -0.2500(14)
H19 H 0.4156 -0.0284 -0.1490
C28 C 0.3396(13) -0.1686(12) -0.3602(10)
H20 H 0.4156 -0.2190 -0.3355
N4 N 0.2368(13) -0.2155(11) -0.5036(11)
C29 C 0.1361(16) -0.1391(14) -0.5334(13)
H21 H 0.0617 -0.1713 -0.6367
C30 C 0.1330(17) -0.0207(14) -0.4278(13)
H22 H 0.0589 0.0299 -0.4574
Cd1_2 Cd 0.24423(19) -0.40350(18) -0.70680(17)
N4_2 N 0.2368(13) 0.7845(11) 0.4964(11)
loop_
_geom_bond_atom_site_label_1
_geom_bond_atom_site_label_2
_geom_bond_site_symmetry_1
_geom_bond_site_symmetry_2
Cd1 O1 1_555 1_555
O1 C1 1_555 1_555
O2 C1 1_555 1_555
C1 C2 1_555 1_555
C2 C3 1_555 1_555
C3 H1 1_555 1_555
C4 C3 1_555 1_555
N1 C4 1_555 1_555
C5 N1 1_555 1_555
C6 C5 1_555 1_555
H2 C6 1_555 1_555
C7 C6 1_555 1_555
H3 C7 1_555 1_555
C8 C7 1_555 1_555
H4 C8 1_555 1_555
C9 C8 1_555 1_555
H5 C9 1_555 1_555
C10 C2 1_555 1_555
O3 C4 1_555 1_555
O4 Cd1 1_555 1_555
O5 C11 1_555 1_555
C11 O4 1_555 1_555
C12 C11 1_555 1_555
C13 C12 1_555 1_555
H6 C13 1_555 1_555
C14 C13 1_555 1_555
N2 C14 1_555 1_555
C15 N2 1_555 1_555
C16 C15 1_555 1_555
H7 C16 1_555 1_555
C17 C16 1_555 1_555
H8 C17 1_555 1_555
C18 C17 1_555 1_555
H9 C18 1_555 1_555
C19 C18 1_555 1_555
H10 C19 1_555 1_555
C20 C12 1_555 1_555
O6 C14 1_555 1_555
O7 Cd1 1_555 1_555
H11 O7 1_555 1_555
H12 O7 1_555 1_555
O8 Cd1 1_555 1_555
H13 O8 1_555 1_555
H14 O8 1_555 1_555
N3 Cd1 1_555 1_555
C21 N3 1_555 1_555
H15 C21 1_555 1_555
C22 C21 1_555 1_555
H16 C22 1_555 1_555
C23 C22 1_555 1_555
C24 C23 1_555 1_555
H17 C24 1_555 1_555
C25 N3 1_555 1_555
H18 C25 1_555 1_555
C26 C23 1_555 1_555
C27 C26 1_555 1_555
H19 C27 1_555 1_555
C28 C27 1_555 1_555
H20 C28 1_555 1_555
N4 C28 1_555 1_555
C29 N4 1_555 1_555
H21 C29 1_555 1_555
C30 C26 1_555 1_555
H22 C30 1_555 1_555
Cd1_2 N4 1_555 1_555
N4_2 Cd1 1_555 1_555
C5 C10 1_555 1_555
C9 C10 1_555 1_555
C15 C20 1_555 1_555
C19 C20 1_555 1_555
C24 C25 1_555 1_555
C29 C30 1_555 1_555

#END
