
#######################################################################
#
#                 Cambridge Crystallographic Data Centre
#                                CCDC 
#
#######################################################################
#
# If this CIF has been generated from an entry in the Cambridge 
# Structural Database, then it will include bibliographic, chemical, 
# crystal, experimental, refinement or atomic coordinate data resulting 
# from the CCDC's data processing and validation procedures.
#
#######################################################################

data_REHQUS
_symmetry_cell_setting           monoclinic
_symmetry_space_group_name_H-M   'P 2/c'
_symmetry_Int_Tables_number      13
_space_group_name_Hall           '-P 2yc'
loop_
_symmetry_equiv_pos_site_id
_symmetry_equiv_pos_as_xyz
1 x,y,z
2 -x,y,1/2-z
3 -x,-y,-z
4 x,-y,1/2+z
_cell_length_a                   9.738(2)
_cell_length_b                   11.204(3)
_cell_length_c                   17.566(4)
_cell_angle_alpha                90
_cell_angle_beta                 102.186(3)
_cell_angle_gamma                90
_cell_volume                     1873.35
loop_
_atom_site_label
_atom_site_type_symbol
_atom_site_fract_x
_atom_site_fract_y
_atom_site_fract_z
C1 C -0.0927(3) -0.1128(3) 0.11748(17)
H1 H -0.0673 -0.1727 0.1544
C2 C -0.1736(3) -0.1409(3) 0.04486(18)
H2 H -0.2034 -0.2190 0.0336
C3 C -0.2097(3) -0.0530(3) -0.01053(18)
H3 H -0.2650 -0.0718 -0.0590
C4 C -0.1648(3) 0.0619(3) 0.00524(16)
H4 H -0.1877 0.1206 -0.0327
C5 C -0.0840(3) 0.0905(3) 0.07891(16)
C6 C -0.0491(3) 0.0036(3) 0.13596(16)
C7 C 0.0413(3) 0.0348(2) 0.21483(15)
C8 C 0.1833(3) -0.0297(3) 0.22469(15)
C9 C 0.0596(3) 0.1709(2) 0.22659(15)
H5 H 0.1501 0.1884 0.2613
C10 C 0.0359(3) 0.2529(3) 0.15860(16)
C11 C 0.4093(3) 0.2649(3) 0.15800(16)
H6 H 0.3543 0.2711 0.1951
C12 C 0.3959(3) 0.3514(3) 0.10142(17)
H7 H 0.3319 0.4132 0.1004
C13 C 0.4777(3) 0.3465(3) 0.04599(16)
C14 C 0.4688(4) 0.4412(3) -0.01592(18)
H8 H 0.3710 0.4533 -0.0408
H9 H 0.5176 0.4133 -0.0553
C15 C 0.5682(3) 0.2504(3) 0.05017(18)
H10 H 0.6243 0.2425 0.0137
C16 C 0.5755(3) 0.1661(3) 0.10824(17)
H11 H 0.6373 0.1025 0.1098
Co1 Co 0.5000 0.03716(5) 0.2500
N1 N 0.4977(2) 0.1720(2) 0.16237(13)
N2 N -0.0371(2) 0.2095(2) 0.09175(13)
H12 H -0.0575 0.2581 0.0531
O1 O 0.28448(19) 0.03677(18) 0.21904(12)
O2 O 0.1901(2) -0.13966(18) 0.23548(12)
O3 O 0.0768(2) 0.35773(18) 0.16524(12)
O4 O 0.5284(2) -0.09547(18) 0.16642(12)
H13 H 0.4772 -0.1574 0.1636
H14 H 0.6072 -0.1291 0.1834
C1A C 0.0927(3) -0.1128(3) 0.38252(17)
H1A H 0.0673 -0.1727 0.3456
C2A C 0.1736(3) -0.1409(3) 0.45514(18)
H2A H 0.2034 -0.2190 0.4664
C3A C 0.2097(3) -0.0530(3) 0.51053(18)
H3A H 0.2650 -0.0718 0.5590
C4A C 0.1648(3) 0.0619(3) 0.49476(16)
H4A H 0.1877 0.1206 0.5327
C5A C 0.0840(3) 0.0905(3) 0.42109(16)
C6A C 0.0491(3) 0.0036(3) 0.36404(16)
C7A C -0.0413(3) 0.0348(2) 0.28517(15)
C8A C -0.1833(3) -0.0297(3) 0.27531(15)
C9A C -0.0596(3) 0.1709(2) 0.27341(15)
H5A H -0.1501 0.1884 0.2387
C10A C -0.0359(3) 0.2529(3) 0.34140(16)
C11B C 0.5907(3) 0.7351(3) -0.15800(16)
H6B H 0.6457 0.7289 -0.1951
C12B C 0.6041(3) 0.6486(3) -0.10142(17)
H7B H 0.6681 0.5868 -0.1004
C13B C 0.5223(3) 0.6535(3) -0.04599(16)
C14B C 0.5312(4) 0.5588(3) 0.01592(18)
H8B H 0.6290 0.5467 0.0408
H9B H 0.4824 0.5867 0.0553
C15B C 0.4318(3) 0.7496(3) -0.05017(18)
H10B H 0.3757 0.7575 -0.0137
C16B C 0.4245(3) 0.8339(3) -0.10824(17)
H11B H 0.3627 0.8975 -0.1098
Co1_2 Co -0.5000 0.03716(5) 0.2500
Co1B Co 0.5000 0.96284(5) -0.2500
N1B N 0.5023(2) 0.8280(2) -0.16237(13)
N1A N 0.5023(2) 0.1720(2) 0.33763(13)
N2A N 0.0371(2) 0.2095(2) 0.40825(13)
H12A H 0.0575 0.2581 0.4469
O1A O -0.28448(19) 0.03677(18) 0.28096(12)
O1A_2 O 0.71552(19) 0.03677(18) 0.28096(12)
O2A O -0.1901(2) -0.13966(18) 0.26452(12)
O3A O -0.0768(2) 0.35773(18) 0.33476(12)
O4A O 0.4716(2) -0.09547(18) 0.33358(12)
H13A H 0.5228 -0.1574 0.3364
H14A H 0.3928 -0.1291 0.3166
O5 O 0.2739(3) 0.4538(3) 0.28920(16)
H19 H 0.2174 0.4309 0.2482
H22 H 0.2332 0.4935 0.3193
O6 O 0.5000 0.5642(3) 0.2500
H21 H 0.4423 0.5229 0.2691
H21A H 0.5577 0.5229 0.2309
O7 O 0.6670(2) 0.7225(2) 0.34787(12)
H17 H 0.7165 0.7617 0.3221
H18 H 0.6118 0.6724 0.3207
O8 O 0.8995(3) 0.5330(3) 0.0943(2)
H15 H 0.9509 0.4794 0.1186
H16 H 0.8627 0.5296 0.0468
O9 O 0.8750(3) 0.6278(2) 0.46359(13)
H20 H 0.9474 0.6078 0.4467
H23 H 0.8100 0.6506 0.4262
O10 O 1.0000 0.6599(14) 0.2500
H24 H 0.9242 0.6210 0.2349
H24A H 1.0758 0.6210 0.2651
loop_
_geom_bond_atom_site_label_1
_geom_bond_atom_site_label_2
_geom_bond_site_symmetry_1
_geom_bond_site_symmetry_2
C1 H1 1_555 1_555
C2 C1 1_555 1_555
H2 C2 1_555 1_555
C3 C2 1_555 1_555
H3 C3 1_555 1_555
C4 C3 1_555 1_555
H4 C4 1_555 1_555
C5 C4 1_555 1_555
C6 C1 1_555 1_555
C7 C6 1_555 1_555
C8 C7 1_555 1_555
C9 C7 1_555 1_555
H5 C9 1_555 1_555
C10 C9 1_555 1_555
C11 H6 1_555 1_555
C12 C11 1_555 1_555
H7 C12 1_555 1_555
C13 C12 1_555 1_555
C14 C13 1_555 1_555
H8 C14 1_555 1_555
H9 C14 1_555 1_555
C15 C13 1_555 1_555
H10 C15 1_555 1_555
C16 C15 1_555 1_555
H11 C16 1_555 1_555
Co1 N1 1_555 1_555
N1 C11 1_555 1_555
N2 C5 1_555 1_555
H12 N2 1_555 1_555
O1 C8 1_555 1_555
O2 C8 1_555 1_555
O3 C10 1_555 1_555
O4 Co1 1_555 1_555
H13 O4 1_555 1_555
H14 O4 1_555 1_555
O5 H19 1_555 1_555
O6 H21 1_555 1_555
O7 H17 1_555 1_555
O8 H15 1_555 1_555
H16 O8 1_555 1_555
O9 H20 1_555 1_555
H18 O7 1_555 1_555
H22 O5 1_555 1_555
H23 O9 1_555 1_555
O10 H24 1_555 1_555
C1A H1A 1_555 1_555
C2A C1A 1_555 1_555
H2A C2A 1_555 1_555
C3A C2A 1_555 1_555
H3A C3A 1_555 1_555
C4A C3A 1_555 1_555
H4A C4A 1_555 1_555
C5A C4A 1_555 1_555
C6A C1A 1_555 1_555
C7A C7 1_555 1_555
C8A C7A 1_555 1_555
C9A C9 1_555 1_555
H5A C9A 1_555 1_555
C10A C9A 1_555 1_555
C11B H6B 1_555 1_555
C12B C11B 1_555 1_555
H7B C12B 1_555 1_555
C13B C12B 1_555 1_555
C14B C14 1_555 1_555
H8B C14B 1_555 1_555
H9B C14B 1_555 1_555
C15B C13B 1_555 1_555
H10B C15B 1_555 1_555
C16B C15B 1_555 1_555
H11B C16B 1_555 1_555
Co1_2 O1A 1_555 1_555
Co1B N1B 1_555 1_555
N1B C11B 1_555 1_555
N1A Co1 1_555 1_555
N2A C5A 1_555 1_555
H12A N2A 1_555 1_555
O1A C8A 1_555 1_555
O1A_2 Co1 1_555 1_555
O2A C8A 1_555 1_555
O3A C10A 1_555 1_555
O4A Co1 1_555 1_555
H13A O4A 1_555 1_555
H14A O4A 1_555 1_555
H21A O6 1_555 1_555
H24A O10 1_555 1_555
C5 C6 1_555 1_555
C10 N2 1_555 1_555
C16 N1 1_555 1_555
Co1 O1 1_555 1_555
C5A C6A 1_555 1_555
C6A C7A 1_555 1_555
C7A C9A 1_555 1_555
C10A N2A 1_555 1_555
C13B C14B 1_555 1_555
C16B N1B 1_555 1_555

#END
