
#######################################################################
#
#                 Cambridge Crystallographic Data Centre
#                                CCDC 
#
#######################################################################
#
# If this CIF has been generated from an entry in the Cambridge 
# Structural Database, then it will include bibliographic, chemical, 
# crystal, experimental, refinement or atomic coordinate data resulting 
# from the CCDC's data processing and validation procedures.
#
#######################################################################

data_REHRUT
_symmetry_cell_setting           triclinic
_symmetry_space_group_name_H-M   'P -1'
_symmetry_Int_Tables_number      2
_space_group_name_Hall           '-P 1'
loop_
_symmetry_equiv_pos_site_id
_symmetry_equiv_pos_as_xyz
1 x,y,z
2 -x,-y,-z
_cell_length_a                   12.453(5)
_cell_length_b                   13.018(5)
_cell_length_c                   17.071(5)
_cell_angle_alpha                95.864(5)
_cell_angle_beta                 91.454(5)
_cell_angle_gamma                100.003(5)
_cell_volume                     2708.48
loop_
_atom_site_label
_atom_site_type_symbol
_atom_site_fract_x
_atom_site_fract_y
_atom_site_fract_z
O1 O 0.6384(6) -0.3266(6) -0.6993(5)
O2 O 0.1477(5) -0.5136(6) -0.8172(4)
Ag1 Ag 0.29894(9) 0.54087(8) -0.12621(5)
Mo1 Mo 0.02213(7) -0.45788(7) -0.81977(5)
P1 P 0.24202(19) -0.25682(19) -0.74414(13)
N1 N 0.1420(8) -0.1649(8) -0.3006(5)
C1 C 0.1493(9) -0.0665(8) -0.1666(6)
O3 O 0.4352(6) -0.4645(6) -0.7290(4)
O4 O 0.2413(6) -0.3434(6) -0.9399(5)
Ag2 Ag -0.08738(7) -0.26707(7) -0.13077(4)
Mo2 Mo 0.35415(8) -0.25223(7) -0.54978(5)
C2 C 0.1002(8) -0.1507(8) -0.2292(6)
N2 N 0.3821(10) 0.6544(8) -0.1928(5)
Ag3 Ag 0.22139(8) -0.04678(7) -0.36839(5)
O5 O 0.4379(6) -0.3106(6) -0.6188(4)
O6 O 0.2181(6) -0.1474(6) -0.9126(4)
Mo3 Mo 0.20037(7) 0.00776(7) -0.72409(5)
N3 N 0.5219(9) 0.7767(8) -0.2020(5)
C3 C 0.0831(9) -0.0271(9) -0.1125(6)
H1 H 0.0083 -0.0516 -0.1161
Ag4 Ag 0.40348(7) 0.23473(7) -0.63020(5)
O7 O 0.5109(6) -0.3318(6) -0.8322(4)
O8 O 0.1667(7) 0.1247(6) -0.7032(5)
Mo4 Mo 0.12390(7) -0.43236(7) -0.61416(5)
N4 N 0.3162(8) 0.1856(7) -0.5280(5)
C4 C 0.2399(9) 0.0859(9) -0.0476(6)
Ag5 Ag 0.14193(9) -0.36651(9) -0.42194(6)
O9 O 0.0820(6) -0.2655(7) -1.0307(4)
O10 O 0.4262(6) -0.2356(6) -0.4642(4)
Mo5 Mo 0.38025(8) -0.35000(8) -0.90811(5)
N5 N 0.2371(7) 0.2259(7) -0.4883(5)
C5 C 0.4129(9) 0.6471(8) -0.2675(6)
O11 O 0.0022(7) -0.2141(6) -0.8855(4)
O12 O 0.0360(6) -0.4493(6) -0.7024(4)
Mo6 Mo -0.03050(7) -0.20968(8) -0.77238(5)
C6 C 0.2032(9) 0.3240(8) -0.5056(6)
H2 H 0.2239 0.3386 -0.5583
H3 H 0.1244 0.3160 -0.5041
N6 N 0.4538(10) 0.7363(9) -0.1527(6)
Mo7 Mo 0.29641(7) -0.51640(7) -0.76993(5)
O13 O 0.0374(6) -0.4089(6) -0.9152(4)
O14 O 0.0031(6) -0.2051(6) -0.6670(4)
C7 C 0.2057(8) 0.1670(9) -0.4323(6)
H4 H 0.1536 0.1804 -0.3963
N7 N 0.4983(8) 0.7230(7) -0.2741(5)
Mo8 Mo 0.45645(7) -0.04626(7) -0.67655(5)
N8 N 0.0781(9) -0.2521(7) -0.3380(5)
C8 C 0.3239(9) 0.1020(9) -0.4921(6)
H5 H 0.3723 0.0572 -0.5067
Mo9 Mo 0.10916(7) -0.17007(8) -0.57412(5)
N9 N 0.2566(7) 0.0870(7) -0.4333(5)
C9 C 0.2983(9) 0.3309(10) -0.0575(6)
H6 H 0.3522 0.3161 -0.0914
Mo10 Mo 0.36475(8) -0.06942(8) -0.86915(6)
N10 N 0.2491(7) 0.4123(7) -0.0580(5)
C10 C 0.1282(9) 0.0494(9) -0.0521(6)
H7 H 0.0838 0.0759 -0.0150
Mo11 Mo 0.51142(7) -0.31399(8) -0.72408(5)
N11 N 0.0029(7) -0.2895(7) -0.2924(5)
O15 O 0.4676(6) -0.0233(6) -0.7889(4)
C11 C 0.2883(9) 0.1722(9) 0.0160(7)
H8 H 0.3669 0.1772 0.0199
H9 H 0.2595 0.1558 0.0664
Mo12 Mo 0.11769(8) -0.26360(8) -0.93493(5)
N12 N 0.2608(7) 0.2746(7) -0.0030(5)
O16 O 0.4093(6) -0.1984(6) -0.8912(4)
C12 C 0.2601(9) -0.0326(9) -0.1612(6)
H10 H 0.3053 -0.0614 -0.1965
N13 N 0.0161(8) -0.2253(7) -0.2232(5)
O17 O 0.2696(6) 0.0211(6) -0.8181(4)
C13 C 0.3030(9) 0.0453(10) -0.1021(7)
H11 H 0.3777 0.0708 -0.0995
N14 N 0.1830(7) 0.3172(7) 0.0350(5)
C14 C 0.4139(9) 0.5347(9) -0.3922(6)
H12 H 0.4877 0.5624 -0.3944
C15 C 0.1969(8) 0.4519(9) -0.3863(6)
H13 H 0.1233 0.4237 -0.3840
C16 C 0.3664(9) 0.4573(9) -0.4508(7)
H14 H 0.4071 0.4338 -0.4916
C17 C 0.2552(8) 0.4154(8) -0.4467(6)
O18 O 0.3430(6) -0.4854(6) -0.8736(4)
C18 C 0.1801(9) 0.4030(8) -0.0015(6)
H15 H 0.1342 0.4506 0.0118
O19 O 0.2911(7) -0.6463(6) -0.7781(5)
C19 C 0.3573(9) 0.5717(8) -0.3320(5)
O20 O 0.3523(6) 0.0388(6) -0.6732(4)
C20 C 0.2458(9) 0.5308(9) -0.3279(7)
H16 H 0.2054 0.5554 -0.2874
O21 O 0.2515(6) -0.3755(6) -0.5369(4)
O22 O -0.0765(6) -0.5636(6) -0.8391(4)
O23 O -0.1502(6) -0.1686(6) -0.7741(5)
O24 O 0.5669(6) 0.0362(6) -0.6386(5)
O25 O 0.0669(6) -0.5305(6) -0.5631(4)
O26 O 0.1342(6) -0.2872(6) -0.7944(4)
O27 O 0.4069(6) -0.1197(6) -0.5935(4)
O28 O 0.1677(6) -0.0601(6) -0.6250(4)
O29 O 0.4442(7) -0.3771(7) -0.9913(4)
O30 O 0.2166(5) -0.2734(6) -0.6567(4)
O31 O 0.0746(6) -0.0769(6) -0.7662(4)
O32 O 0.0620(6) -0.3227(6) -0.5609(4)
O33 O -0.0754(6) -0.3543(6) -0.7913(4)
O34 O 0.4140(6) 0.0010(7) -0.9402(4)
O35 O 0.0320(6) -0.1196(6) -0.5062(4)
O36 O 0.2336(6) -0.1739(6) -0.5141(4)
O37 O 0.2911(6) -0.1431(6) -0.7489(4)
O38 O 0.3201(6) -0.3287(6) -0.7722(4)
O39 O 0.2313(5) -0.4912(6) -0.6729(4)
O40 O 0.5143(6) -0.1738(6) -0.7122(4)
Ag2A Ag 0.08738(7) 0.26707(7) 0.13077(4)
Ag4A Ag 0.59652(7) 0.76527(7) -0.36980(5)
N7A N 0.5017(8) 0.2770(7) -0.7259(5)
N14A N -0.1830(7) -0.3172(7) -0.0350(5)
O41 O 0.3631(7) 0.8657(7) -0.0752(5)
loop_
_geom_bond_atom_site_label_1
_geom_bond_atom_site_label_2
_geom_bond_site_symmetry_1
_geom_bond_site_symmetry_2
O1 Mo11 1_555 1_555
O2 Mo1 1_555 1_555
Ag1 N2 1_555 1_555
Mo1 O12 1_555 1_555
P1 O26 1_555 1_555
N1 C2 1_555 1_555
C1 C2 1_555 1_555
O3 Mo7 1_555 1_555
O4 Mo5 1_555 1_555
Ag2 N13 1_555 1_555
Mo2 O5 1_555 1_555
C2 N13 1_555 1_555
N2 C5 1_555 1_555
Ag3 N1 1_555 1_555
O5 Mo11 1_555 1_555
O6 Mo10 1_555 1_555
Mo3 O8 1_555 1_555
N3 N6 1_555 1_555
C3 C1 1_555 1_555
H1 C3 1_555 1_555
Ag4 N4 1_555 1_555
O7 Mo5 1_555 1_555
Mo4 O12 1_555 1_555
N4 N5 1_555 1_555
C4 C10 1_555 1_555
Ag5 N8 1_555 1_555
O9 Mo12 1_555 1_555
O10 Mo2 1_555 1_555
Mo5 O16 1_555 1_555
N5 C6 1_555 1_555
C5 N7 1_555 1_555
O11 Mo6 1_555 1_555
Mo6 O14 1_555 1_555
C6 H2 1_555 1_555
H3 C6 1_555 1_555
N6 N2 1_555 1_555
Mo7 O2 1_555 1_555
O13 Mo1 1_555 1_555
O14 Mo9 1_555 1_555
C7 N5 1_555 1_555
H4 C7 1_555 1_555
N7 N3 1_555 1_555
Mo8 O15 1_555 1_555
N8 N1 1_555 1_555
C8 N4 1_555 1_555
H5 C8 1_555 1_555
Mo9 O28 1_555 1_555
N9 Ag3 1_555 1_555
C9 H6 1_555 1_555
Mo10 O15 1_555 1_555
N10 Ag1 1_555 1_555
C10 C3 1_555 1_555
H7 C10 1_555 1_555
Mo11 O3 1_555 1_555
N11 N8 1_555 1_555
C11 C4 1_555 1_555
H8 C11 1_555 1_555
H9 C11 1_555 1_555
Mo12 O4 1_555 1_555
N12 C9 1_555 1_555
O16 Mo10 1_555 1_555
C12 C1 1_555 1_555
H10 C12 1_555 1_555
N13 N11 1_555 1_555
O17 Mo3 1_555 1_555
C13 C4 1_555 1_555
H11 C13 1_555 1_555
N14 N12 1_555 1_555
C14 H12 1_555 1_555
C15 H13 1_555 1_555
C16 C14 1_555 1_555
H14 C16 1_555 1_555
C17 C6 1_555 1_555
O18 Mo5 1_555 1_555
C18 N10 1_555 1_555
H15 C18 1_555 1_555
O19 Mo7 1_555 1_555
C19 C5 1_555 1_555
O20 Mo3 1_555 1_555
C20 C15 1_555 1_555
H16 C20 1_555 1_555
O21 Mo2 1_555 1_555
O22 Mo1 1_555 1_555
O23 Mo6 1_555 1_555
O24 Mo8 1_555 1_555
O25 Mo4 1_555 1_555
O26 Mo1 1_555 1_555
O27 Mo2 1_555 1_555
O28 Mo3 1_555 1_555
O29 Mo5 1_555 1_555
O30 P1 1_555 1_555
O31 Mo3 1_555 1_555
O32 Mo4 1_555 1_555
O33 Mo1 1_555 1_555
O34 Mo10 1_555 1_555
O35 Mo9 1_555 1_555
O36 Mo2 1_555 1_555
O37 P1 1_555 1_555
O38 P1 1_555 1_555
O39 Mo4 1_555 1_555
O40 Mo8 1_555 1_555
Ag2A N14 1_555 1_555
Ag4A N7 1_555 1_555
N7A Ag4 1_555 1_555
N14A Ag2 1_555 1_555
Mo2 O30 1_555 1_555
O6 Mo12 1_555 1_555
Mo3 O37 1_555 1_555
Ag4 O20 1_555 1_555
O7 Mo11 1_555 1_555
Mo4 O21 1_555 1_555
Mo4 O30 1_555 1_555
Ag5 O21 1_555 1_555
Mo5 O38 1_555 1_555
O11 Mo12 1_555 1_555
Mo6 O26 1_555 1_555
Mo6 O31 1_555 1_555
Mo6 O33 1_555 1_555
Mo7 O18 1_555 1_555
Mo7 O38 1_555 1_555
Mo7 O39 1_555 1_555
O13 Mo12 1_555 1_555
C7 N9 1_555 1_555
Mo8 O20 1_555 1_555
Mo8 O27 1_555 1_555
Mo8 O37 1_555 1_555
C8 N9 1_555 1_555
Mo9 O30 1_555 1_555
Mo9 O32 1_555 1_555
Mo9 O36 1_555 1_555
C9 N10 1_555 1_555
Mo10 O17 1_555 1_555
Mo10 O37 1_555 1_555
Mo11 O38 1_555 1_555
Mo11 O40 1_555 1_555
C11 N12 1_555 1_555
Mo12 O26 1_555 1_555
C12 C13 1_555 1_555
N14 C18 1_555 1_555
C14 C19 1_555 1_555
C15 C17 1_555 1_555
C16 C17 1_555 1_555
C19 C20 1_555 1_555

#END
