
#######################################################################
#
#                 Cambridge Crystallographic Data Centre
#                                CCDC 
#
#######################################################################
#
# If this CIF has been generated from an entry in the Cambridge 
# Structural Database, then it will include bibliographic, chemical, 
# crystal, experimental, refinement or atomic coordinate data resulting 
# from the CCDC's data processing and validation procedures.
#
#######################################################################

data_REHRAZ
_symmetry_cell_setting           monoclinic
_symmetry_space_group_name_H-M   'C 2/c'
_symmetry_Int_Tables_number      15
_space_group_name_Hall           '-C 2yn'
loop_
_symmetry_equiv_pos_site_id
_symmetry_equiv_pos_as_xyz
1 x,y,z
2 -x,y,1/2-z
3 1/2+x,1/2+y,z
4 1/2-x,1/2+y,1/2-z
5 -x,-y,-z
6 x,-y,1/2+z
7 1/2-x,1/2-y,-z
8 1/2+x,1/2-y,1/2+z
_cell_length_a                   21.367(3)
_cell_length_b                   17.381(2)
_cell_length_c                   18.152(3)
_cell_angle_alpha                90
_cell_angle_beta                 110.306(2)
_cell_angle_gamma                90
_cell_volume                     6322.33
loop_
_atom_site_label
_atom_site_type_symbol
_atom_site_fract_x
_atom_site_fract_y
_atom_site_fract_z
C1 C 0.87593(16) 0.21487(18) 0.8289(2)
H1 H 0.8325 0.2211 0.7942
C2 C 0.92708(18) 0.2570(2) 0.8177(2)
H2 H 0.9178 0.2902 0.7750
C3 C 0.99133(19) 0.2499(2) 0.8692(3)
H3 H 1.0255 0.2787 0.8620
C4 C 1.00481(17) 0.20007(19) 0.9315(2)
H4 H 1.0482 0.1952 0.9667
C5 C 0.95419(15) 0.15712(17) 0.94230(19)
C6 C 0.88839(15) 0.16375(16) 0.89068(18)
C7 C 0.83396(14) 0.11713(16) 0.90622(17)
C8 C 0.86460(14) 0.04541(16) 0.95535(17)
H5 H 0.8332 0.0249 0.9789
C9 C 0.93254(15) 0.05030(17) 1.01681(19)
C10 C 0.79021(14) 0.16811(15) 0.93786(17)
C11 C 0.85436(15) 0.00265(16) 0.87623(18)
H6 H 0.8917 0.0133 0.8582
C12 C 0.79580(14) 0.05860(15) 0.83662(17)
C13 C 0.78327(15) 0.08454(16) 0.75147(18)
C14 C 0.84216(15) -0.08187(16) 0.87590(18)
C15 C 0.72681(15) -0.05190(17) 0.85999(18)
C16 C 0.66841(17) -0.08189(19) 0.8644(2)
H7 H 0.6663 -0.1337 0.8761
C17 C 0.61331(17) -0.0359(2) 0.8517(2)
H8 H 0.5742 -0.0566 0.8549
C18 C 0.61605(16) 0.0413(2) 0.8340(2)
H9 H 0.5787 0.0725 0.8243
C19 C 0.67506(15) 0.07130(18) 0.83092(18)
H10 H 0.6769 0.1233 0.8197
C20 C 0.73166(15) 0.02655(16) 0.84395(17)
C21 C 0.81517(16) 0.39910(18) 0.8412(2)
H11 H 0.8061 0.3574 0.8070
C22 C 0.86456(18) 0.4494(2) 0.8406(2)
H12 H 0.8883 0.4407 0.8071
C23 C 0.87911(17) 0.5118(2) 0.8888(2)
C24 C 0.84201(18) 0.5212(2) 0.9368(2)
H13 H 0.8495 0.5632 0.9705
C25 C 0.79359(16) 0.46786(18) 0.9348(2)
H14 H 0.7693 0.4750 0.9680
C26 C 0.9342(2) 0.5654(3) 0.8867(3)
H15 H 0.9254 0.5786 0.8321
H16 H 0.9754 0.5360 0.9040
C27 C 0.9469(2) 0.6354(2) 0.9300(3)
H17 H 0.9069 0.6669 0.9132
H18 H 0.9577 0.6242 0.9854
C28 C 1.00368(18) 0.67959(19) 0.9185(3)
C29 C 0.99325(19) 0.7335(2) 0.8603(3)
H19 H 0.9501 0.7456 0.8279
C30 C 1.04677(18) 0.7696(2) 0.8503(3)
H20 H 1.0381 0.8075 0.8118
C31 C 1.11916(16) 0.70207(18) 0.94688(19)
H21 H 1.1629 0.6900 0.9775
C32 C 1.06873(18) 0.66463(19) 0.9621(2)
H22 H 1.0788 0.6287 1.0025
Mn1 Mn 0.69769(2) 0.31983(2) 0.87948(3)
N1 N 0.97142(13) 0.10708(14) 1.00768(16)
H23 H 1.0095 0.1136 1.0441
N2 N 0.78050(13) -0.10262(14) 0.86968(15)
H24 H 0.7728 -0.1510 0.8717
N3 N 0.77988(12) 0.40689(13) 0.88772(15)
N4 N 1.10962(12) 0.75447(14) 0.89121(15)
O1 O 0.95180(12) 0.00520(13) 1.07230(14)
O2 O 0.88603(11) -0.12989(12) 0.88088(14)
O3 O 0.81581(12) 0.05113(13) 0.71616(14)
O4 O 0.74198(11) 0.13734(12) 0.72497(12)
O5 O 0.78472(10) 0.14859(11) 1.00105(12)
O6 O 0.76433(10) 0.22555(11) 0.89792(12)
O7 O 0.67913(12) 0.27461(13) 0.75721(13)
O8 O 0.63509(11) 0.41436(12) 0.81595(15)
H33 H 0.6584 0.2970 0.7139
H34 H 0.6514 0.4558 0.8053
H35 H 0.5930 0.4168 0.7926
H36 H 0.6978 0.2332 0.7508
Mn1B Mn 1.19769(2) 0.81983(2) 0.87948(3)
Mn1F Mn 0.80231(2) 0.18017(2) 1.12052(3)
N4B N 0.60962(12) 0.25447(14) 0.89121(15)
O5F O 0.71528(10) 0.35141(11) 0.99895(12)
H25 H 0.2415 0.2843 0.1531
O13 O 0.23824(14) 0.26308(14) 0.10972(16)
H30 H 0.2735 0.2689 0.0987
H26 H 0.3217 0.4244 0.1012
O11 O 0.3523(2) 0.4050(2) 0.0870(2)
H29 H 0.3845 0.3888 0.1265
O12 O 0.34126(15) 0.25321(16) 0.05152(19)
H31 H 0.3431 0.3019 0.0566
H32 H 0.3180 0.2455 0.0036
O9? O 0.5000 0.4111(5) 0.2500
H27? H 0.5337 0.3822 0.2697
H28? H 0.4752 0.4063 0.2776
O10? O 0.4961(4) 0.5552(3) 0.2712(3)
H37? H 0.5000 0.5110 0.2500
H38? H 0.4951 0.5432 0.1808
loop_
_geom_bond_atom_site_label_1
_geom_bond_atom_site_label_2
_geom_bond_site_symmetry_1
_geom_bond_site_symmetry_2
C1 H1 1_555 1_555
C2 C1 1_555 1_555
H2 C2 1_555 1_555
C3 C2 1_555 1_555
H3 C3 1_555 1_555
C4 C3 1_555 1_555
H4 C4 1_555 1_555
C5 C4 1_555 1_555
C6 C1 1_555 1_555
C7 C6 1_555 1_555
C8 C7 1_555 1_555
H5 C8 1_555 1_555
C9 C8 1_555 1_555
C10 C7 1_555 1_555
C11 C8 1_555 1_555
H6 C11 1_555 1_555
C12 C7 1_555 1_555
C13 C12 1_555 1_555
C14 C11 1_555 1_555
C15 C16 1_555 1_555
C16 H7 1_555 1_555
C17 C16 1_555 1_555
H8 C17 1_555 1_555
C18 C17 1_555 1_555
H9 C18 1_555 1_555
C19 C18 1_555 1_555
H10 C19 1_555 1_555
C20 C12 1_555 1_555
C21 H11 1_555 1_555
C22 C21 1_555 1_555
H12 C22 1_555 1_555
C23 C22 1_555 1_555
C24 C23 1_555 1_555
H13 C24 1_555 1_555
C25 C24 1_555 1_555
H14 C25 1_555 1_555
C26 C23 1_555 1_555
H15 C26 1_555 1_555
H16 C26 1_555 1_555
C27 C26 1_555 1_555
H17 C27 1_555 1_555
H18 C27 1_555 1_555
C28 C27 1_555 1_555
C29 C28 1_555 1_555
H19 C29 1_555 1_555
C30 C29 1_555 1_555
H20 C30 1_555 1_555
C31 H21 1_555 1_555
C32 C28 1_555 1_555
H22 C32 1_555 1_555
Mn1 N3 1_555 1_555
N1 C5 1_555 1_555
H23 N1 1_555 1_555
N2 C14 1_555 1_555
H24 N2 1_555 1_555
N3 C21 1_555 1_555
N4 C30 1_555 1_555
O1 C9 1_555 1_555
O2 C14 1_555 1_555
O3 C13 1_555 1_555
O4 C13 1_555 1_555
O5 C10 1_555 1_555
O6 C10 1_555 1_555
O7 Mn1 1_555 1_555
O8 Mn1 1_555 1_555
H25 O13 1_555 1_555
H26 O11 1_555 1_555
O11 H29 1_555 1_555
O12 H31 1_555 1_555
O13 H30 1_555 1_555
H32 O12 1_555 1_555
H33 O7 1_555 1_555
H34 O8 1_555 1_555
H35 O8 1_555 1_555
H36 O7 1_555 1_555
Mn1B N4 1_555 1_555
Mn1F O5 1_555 1_555
N4B Mn1 1_555 1_555
O5F Mn1 1_555 1_555
C5 C6 1_555 1_555
C9 N1 1_555 1_555
C11 C12 1_555 1_555
C15 C20 1_555 1_555
C15 N2 1_555 1_555
C19 C20 1_555 1_555
C25 N3 1_555 1_555
C31 C32 1_555 1_555
C31 N4 1_555 1_555
Mn1 O6 1_555 1_555

#END
