
#######################################################################
#
#                 Cambridge Crystallographic Data Centre
#                                CCDC 
#
#######################################################################
#
# If this CIF has been generated from an entry in the Cambridge 
# Structural Database, then it will include bibliographic, chemical, 
# crystal, experimental, refinement or atomic coordinate data resulting 
# from the CCDC's data processing and validation procedures.
#
#######################################################################

data_REHZAG
_symmetry_cell_setting           monoclinic
_symmetry_space_group_name_H-M   'P 21/c'
_symmetry_Int_Tables_number      14
_space_group_name_Hall           '-P 2ybc'
loop_
_symmetry_equiv_pos_site_id
_symmetry_equiv_pos_as_xyz
1 x,y,z
2 -x,1/2+y,1/2-z
3 -x,-y,-z
4 x,1/2-y,1/2+z
_cell_length_a                   5.7128(14)
_cell_length_b                   14.346(4)
_cell_length_c                   6.9722(17)
_cell_angle_alpha                90
_cell_angle_beta                 97.468(3)
_cell_angle_gamma                90
_cell_volume                     566.565
loop_
_atom_site_label
_atom_site_type_symbol
_atom_site_fract_x
_atom_site_fract_y
_atom_site_fract_z
Co1 Co 0.0000 1.0000 0.0000
S1 S -0.24858(11) 0.84735(5) 0.04003(10)
N1 N -0.7077(4) 0.91965(15) -0.0049(3)
N2 N 0.2793(4) 1.00237(14) 0.3995(3)
O1 O 0.0653(3) 1.00726(12) 0.3016(3)
C1 C 0.4102(4) 1.08039(17) 0.4272(3)
H1 H 0.3466 1.1365 0.3782
C2 C 0.3642(4) 0.92021(17) 0.4742(3)
C3 C -0.5181(4) 0.89024(17) 0.0144(3)
C4 C 0.2138(5) 0.83577(19) 0.4523(4)
H2 H 0.0694 0.8475 0.5047
H3 H 0.2958 0.7848 0.5203
H4 H 0.1790 0.8203 0.3176
Co1_2 Co -1.0000 1.0000 0.0000
Co1_3 Co 1.0000 1.0000 1.0000
Co1_4 Co 1.0000 1.0000 0.0000
S1B S 0.24858(11) 1.15265(5) -0.04003(10)
N1B N 0.7077(4) 1.08035(15) 0.0049(3)
N1_2 N 0.2923(4) 0.91965(15) -0.0049(3)
N1B_2 N -0.2923(4) 1.08035(15) 0.0049(3)
N2B N 0.7207(4) 0.99763(14) 0.6005(3)
O1B O 0.9347(3) 0.99274(12) 0.6984(3)
O1B_2 O -0.0653(3) 0.99274(12) -0.3016(3)
C1B C 0.5898(4) 0.91961(17) 0.5728(3)
H1B H 0.6534 0.8635 0.6218
C2B C 0.6358(4) 1.07979(17) 0.5258(3)
C3B C 0.5181(4) 1.10976(17) -0.0144(3)
C4B C 0.7862(5) 1.16423(19) 0.5477(4)
H2B H 0.9306 1.1525 0.4953
H3B H 0.7042 1.2152 0.4797
H4B H 0.8210 1.1797 0.6824
loop_
_geom_bond_atom_site_label_1
_geom_bond_atom_site_label_2
_geom_bond_site_symmetry_1
_geom_bond_site_symmetry_2
Co1 S1 1_555 1_555
S1 C3 1_555 1_555
N1 C3 1_555 1_555
N2 O1 1_555 1_555
O1 Co1 1_555 1_555
C1 N2 1_555 1_555
H1 C1 1_555 1_555
C2 N2 1_555 1_555
C4 C2 1_555 1_555
H2 C4 1_555 1_555
H3 C4 1_555 1_555
H4 C4 1_555 1_555
Co1_2 N1 1_555 1_555
Co1_3 O1B 1_555 1_555
Co1_4 N1B 1_555 1_555
S1B Co1 1_555 1_555
N1B C3B 1_555 1_555
N1_2 Co1 1_555 1_555
N1B_2 Co1 1_555 1_555
N2B O1B 1_555 1_555
O1B_2 Co1 1_555 1_555
C1B C2 1_555 1_555
H1B C1B 1_555 1_555
C2B C1 1_555 1_555
C3B S1B 1_555 1_555
C4B C2B 1_555 1_555
H2B C4B 1_555 1_555
H3B C4B 1_555 1_555
H4B C4B 1_555 1_555
N2B C1B 1_555 1_555
N2B C2B 1_555 1_555

#END
