
#######################################################################
#
#                 Cambridge Crystallographic Data Centre
#                                CCDC 
#
#######################################################################
#
# If this CIF has been generated from an entry in the Cambridge 
# Structural Database, then it will include bibliographic, chemical, 
# crystal, experimental, refinement or atomic coordinate data resulting 
# from the CCDC's data processing and validation procedures.
#
#######################################################################

data_REJQUU
_symmetry_cell_setting           monoclinic
_symmetry_space_group_name_H-M   'P 21/n'
_symmetry_Int_Tables_number      14
_space_group_name_Hall           '-P 2yn'
loop_
_symmetry_equiv_pos_site_id
_symmetry_equiv_pos_as_xyz
1 x,y,z
2 1/2-x,1/2+y,1/2-z
3 -x,-y,-z
4 1/2+x,1/2-y,1/2+z
_cell_length_a                   16.2283(13)
_cell_length_b                   19.5779(17)
_cell_length_c                   20.2184(15)
_cell_angle_alpha                90
_cell_angle_beta                 99.773(4)
_cell_angle_gamma                90
_cell_volume                     6330.49
loop_
_atom_site_label
_atom_site_type_symbol
_atom_site_fract_x
_atom_site_fract_y
_atom_site_fract_z
Cd1 Cd 0.0000 0.5000 0.0000
O1 O -0.11313(7) 0.61615(7) 0.30153(6)
N1 N -0.04220(9) 0.62318(7) 0.08343(7)
C1 C -0.11686(10) 0.46682(8) 0.49954(8)
H1 H -0.0954 0.4310 0.4723
H2 H -0.0857 0.4631 0.5459
O2 O -0.04873(9) 0.72237(7) 0.37890(7)
N2 N -0.31452(9) 0.98299(7) 0.57421(7)
C2 C -0.09928(9) 0.53706(8) 0.47113(8)
O3 O -0.24696(8) 0.78689(6) 0.61826(6)
N3 N -0.67309(9) 0.24523(8) 0.53049(7)
C3 C -0.11007(10) 0.54487(9) 0.40046(8)
H3 H -0.1282 0.5071 0.3721
O4 O -0.35974(8) 0.70789(7) 0.66398(7)
C4 C -0.09439(10) 0.60726(9) 0.37235(8)
O5 O -0.46381(7) 0.40410(6) 0.49328(6)
C5 C -0.06452(10) 0.66364(9) 0.41219(8)
O6 O -0.38901(8) 0.37648(7) 0.38305(6)
C6 C -0.05340(10) 0.65619(9) 0.48203(8)
H4 H -0.0330 0.6937 0.5100
O7 O 0.01803(8) 0.58275(8) 0.29023(6)
C7 C -0.07200(9) 0.59377(8) 0.51180(8)
O8 O 0.01313(8) 0.60998(6) 0.04235(6)
C8 C -0.06389(10) 0.59269(9) 0.58837(8)
H5 H -0.0169 0.6223 0.6085
H6 H -0.0518 0.5456 0.6051
O9 O -0.18065(11) 0.81118(8) 0.72338(7)
C9 C -0.14506(10) 0.61794(8) 0.60932(7)
O10 O -0.35589(8) 0.99866(6) 0.51281(6)
C10 C -0.15791(10) 0.68914(9) 0.61004(8)
H7 H -0.1162 0.7190 0.5989
O11 O -0.43446(8) 0.29025(7) 0.49204(9)
C11 C -0.23036(11) 0.71603(9) 0.62677(8)
O12 O -0.69710(8) 0.18164(7) 0.53578(6)
C12 C -0.29229(10) 0.67430(9) 0.64620(8)
O13 O 0.00573(8) 0.46396(6) 0.10730(6)
C13 C -0.28087(10) 0.60348(9) 0.64514(8)
H8 H -0.3223 0.5742 0.6577
C14 C -0.20834(10) 0.57467(8) 0.62567(7)
C15 C -0.20287(11) 0.49662(8) 0.62309(8)
H9 H -0.2273 0.4771 0.6606
H10 H -0.1433 0.4830 0.6295
C16 C -0.24852(10) 0.46651(8) 0.55652(8)
C17 C -0.33381(10) 0.44899(8) 0.55179(8)
H11 H -0.3612 0.4573 0.5890
N8 N 0.00118(10) 0.37359(8) 0.17689(7)
C18 C -0.37839(10) 0.41986(8) 0.49395(9)
C19 C -0.34052(10) 0.40661(9) 0.43775(8)
C20 C -0.25600(10) 0.42363(9) 0.44211(8)
H12 H -0.2292 0.4150 0.4047
C21 C -0.20918(10) 0.45329(8) 0.50042(8)
C22 C -0.05048(10) 0.60384(9) 0.26609(8)
C23 C -0.07817(10) 0.62117(8) 0.19315(8)
C24 C -0.15688(11) 0.64855(10) 0.16723(9)
H13 H -0.1967 0.6567 0.1958
C25 C -0.17584(12) 0.66375(11) 0.09863(9)
H14 H -0.2285 0.6831 0.0805
C26 C -0.11771(11) 0.65063(9) 0.05718(9)
H15 H -0.1306 0.6608 0.0106
C27 C -0.02131(10) 0.60882(8) 0.15000(8)
H16 H 0.0322 0.5903 0.1671
C28 C -0.02135(14) 0.78093(10) 0.41957(11)
H17 H -0.0656 0.7951 0.4441
H18 H -0.0088 0.8184 0.3908
H19 H 0.0290 0.7692 0.4516
C29 C -0.21980(11) 0.82938(9) 0.67006(8)
C30 C -0.24574(11) 0.90159(9) 0.65230(8)
C31 C -0.22139(12) 0.95337(10) 0.69942(9)
H20 H -0.1890 0.9433 0.7420
C32 C -0.24597(14) 1.01992(11) 0.68210(11)
H21 H -0.2304 1.0559 0.7132
C33 C -0.29290(12) 1.03423(10) 0.61989(10)
H22 H -0.3102 1.0798 0.6089
C34 C -0.29235(10) 0.91723(8) 0.58932(8)
H23 H -0.3084 0.8820 0.5574
C35 C -0.42219(13) 0.66642(13) 0.68746(13)
H24 H -0.4456 0.6340 0.6523
H25 H -0.4669 0.6958 0.6985
H26 H -0.3966 0.6412 0.7276
C36 C -0.48241(10) 0.33639(9) 0.49711(8)
C37 C -0.57001(10) 0.32662(9) 0.51052(8)
C38 C -0.62110(11) 0.38088(9) 0.52367(9)
H27 H -0.6033 0.4269 0.5214
C39 C -0.69919(11) 0.36507(10) 0.54022(9)
H28 H -0.7354 0.4008 0.5492
C40 C -0.72393(11) 0.29775(10) 0.54352(9)
H29 H -0.7770 0.2877 0.5550
C41 C -0.59694(10) 0.25935(9) 0.51316(8)
H30 H -0.5623 0.2231 0.5029
C42 C -0.34562(13) 0.34894(12) 0.33246(10)
H31 H -0.3228 0.3864 0.3090
H32 H -0.3847 0.3222 0.3002
H33 H -0.2999 0.3194 0.3537
C43 C -0.02141(12) 0.40655(9) 0.11930(8)
H34 H -0.0605 0.3851 0.0853
C44 C 0.06066(15) 0.40288(13) 0.23127(10)
H35 H 0.0787 0.4477 0.2177
H36 H 0.1093 0.3727 0.2418
H37 H 0.0341 0.4080 0.2711
C45 C -0.02754(18) 0.30370(12) 0.18670(12)
H38 H -0.0759 0.2932 0.1521
H39 H -0.0436 0.2999 0.2311
H40 H 0.0177 0.2714 0.1834
Cd1A Cd -0.5000 1.0000 0.5000
Cd1A_2 Cd 0.5000 0.0000 -0.5000
O1B O 0.11313(7) 0.38385(7) -0.30153(6)
N1B N 0.04220(9) 0.37682(7) -0.08343(7)
C1B C 0.11686(10) 0.53318(8) -0.49954(8)
H1B H 0.0954 0.5690 -0.4723
H2B H 0.0857 0.5369 -0.5459
O2B O 0.04873(9) 0.27763(7) -0.37890(7)
N2B N 0.31452(9) 0.01701(7) -0.57421(7)
C2B C 0.09928(9) 0.46294(8) -0.47113(8)
O3B O 0.24696(8) 0.21311(6) -0.61826(6)
N3B N 0.67309(9) 0.75477(8) -0.53049(7)
C3B C 0.11007(10) 0.45513(9) -0.40046(8)
H3B H 0.1282 0.4929 -0.3721
O4B O 0.35974(8) 0.29211(7) -0.66398(7)
C4B C 0.09439(10) 0.39274(9) -0.37235(8)
O5B O 0.46381(7) 0.59590(6) -0.49328(6)
C5B C 0.06452(10) 0.33636(9) -0.41219(8)
O6B O 0.38901(8) 0.62352(7) -0.38305(6)
C6B C 0.05340(10) 0.34381(9) -0.48203(8)
H4B H 0.0330 0.3063 -0.5100
O7B O -0.01803(8) 0.41725(8) -0.29023(6)
C7B C 0.07200(9) 0.40623(8) -0.51180(8)
O8B O -0.01313(8) 0.39002(6) -0.04235(6)
C8B C 0.06389(10) 0.40731(9) -0.58837(8)
H5B H 0.0169 0.3777 -0.6085
H6B H 0.0518 0.4544 -0.6051
O9B O 0.18065(11) 0.18882(8) -0.72338(7)
C9B C 0.14506(10) 0.38206(8) -0.60932(7)
O10B O 0.35589(8) 0.00134(6) -0.51281(6)
O10A O -0.14411(8) 0.49866(6) -0.01281(6)
O10C O 0.14411(8) 0.50134(6) 0.01281(6)
C10B C 0.15791(10) 0.31086(9) -0.61004(8)
H7B H 0.1162 0.2810 -0.5989
O11B O 0.43446(8) 0.70975(7) -0.49204(9)
C11B C 0.23036(11) 0.28397(9) -0.62677(8)
O12B O 0.69710(8) 0.81836(7) -0.53578(6)
C12B C 0.29229(10) 0.32570(9) -0.64620(8)
O13B O -0.00573(8) 0.53604(6) -0.10730(6)
C13B C 0.28087(10) 0.39652(9) -0.64514(8)
H8B H 0.3223 0.4258 -0.6577
C14B C 0.20834(10) 0.42533(8) -0.62567(7)
C15B C 0.20287(11) 0.50338(8) -0.62309(8)
H9B H 0.2273 0.5229 -0.6606
H10B H 0.1433 0.5170 -0.6295
C16B C 0.24852(10) 0.53349(8) -0.55652(8)
C17B C 0.33381(10) 0.55101(8) -0.55179(8)
H11B H 0.3612 0.5427 -0.5890
N8B N -0.00118(10) 0.62641(8) -0.17689(7)
C18B C 0.37839(10) 0.58014(8) -0.49395(9)
C19B C 0.34052(10) 0.59339(9) -0.43775(8)
C20B C 0.25600(10) 0.57637(9) -0.44211(8)
H12B H 0.2292 0.5850 -0.4047
C21B C 0.20918(10) 0.54671(8) -0.50042(8)
C22B C 0.05048(10) 0.39616(9) -0.26609(8)
C23B C 0.07817(10) 0.37883(8) -0.19315(8)
C24B C 0.15688(11) 0.35145(10) -0.16723(9)
H13B H 0.1967 0.3433 -0.1958
C25B C 0.17584(12) 0.33625(11) -0.09863(9)
H14B H 0.2285 0.3169 -0.0805
C26B C 0.11771(11) 0.34937(9) -0.05718(9)
H15B H 0.1306 0.3392 -0.0106
C27B C 0.02131(10) 0.39118(8) -0.15000(8)
H16B H -0.0322 0.4097 -0.1671
C28B C 0.02135(14) 0.21907(10) -0.41957(11)
H17B H 0.0656 0.2049 -0.4441
H18B H 0.0088 0.1816 -0.3908
H19B H -0.0290 0.2308 -0.4516
C29B C 0.21980(11) 0.17062(9) -0.67006(8)
C30B C 0.24574(11) 0.09841(9) -0.65230(8)
C31B C 0.22139(12) 0.04663(10) -0.69942(9)
H20B H 0.1890 0.0567 -0.7420
C32B C 0.24597(14) -0.01992(11) -0.68210(11)
H21B H 0.2304 -0.0559 -0.7132
C33B C 0.29290(12) -0.03423(10) -0.61989(10)
H22B H 0.3102 -0.0798 -0.6089
C34B C 0.29235(10) 0.08277(8) -0.58932(8)
H23B H 0.3084 0.1180 -0.5574
C35B C 0.42219(13) 0.33358(13) -0.68746(13)
H24B H 0.4456 0.3660 -0.6523
H25B H 0.4669 0.3042 -0.6985
H26B H 0.3966 0.3588 -0.7276
C36B C 0.48241(10) 0.66361(9) -0.49711(8)
C37B C 0.57001(10) 0.67338(9) -0.51052(8)
C38B C 0.62110(11) 0.61912(9) -0.52367(9)
H27B H 0.6033 0.5731 -0.5214
C39B C 0.69919(11) 0.63493(10) -0.54022(9)
H28B H 0.7354 0.5992 -0.5492
C40B C 0.72393(11) 0.70225(10) -0.54352(9)
H29B H 0.7770 0.7123 -0.5550
C41B C 0.59694(10) 0.74065(9) -0.51316(8)
H30B H 0.5623 0.7769 -0.5029
C42B C 0.34562(13) 0.65106(12) -0.33246(10)
H31B H 0.3228 0.6136 -0.3090
H32B H 0.3847 0.6778 -0.3002
H33B H 0.2999 0.6806 -0.3537
C43B C 0.02141(12) 0.59345(9) -0.11930(8)
H34B H 0.0605 0.6149 -0.0853
C44B C -0.06066(15) 0.59712(13) -0.23127(10)
H35B H -0.0787 0.5523 -0.2177
H36B H -0.1093 0.6273 -0.2418
H37B H -0.0341 0.5920 -0.2711
C45B C 0.02754(18) 0.69630(12) -0.18670(12)
H38B H 0.0759 0.7068 -0.1521
H39B H 0.0436 0.7001 -0.2311
H40B H -0.0177 0.7286 -0.1834
Cl1 Cl 0.10607(3) 0.77707(3) 0.62921(3)
O18 O 0.02216(12) 0.76836(14) 0.63648(13)
O19 O 0.11739(18) 0.84241(19) 0.6034(2)
O20 O 0.16056(14) 0.77541(13) 0.69300(10)
O21 O 0.13265(17) 0.7283(2) 0.58721(15)
N4 N 0.27820(12) 0.23789(9) 0.12682(9)
O14 O 0.16720(12) 0.31195(8) 0.11116(9)
C46 C 0.22024(17) 0.27715(11) 0.14782(12)
H41 H 0.2197 0.2785 0.1947
C47 C 0.27976(16) 0.23237(14) 0.05496(12)
H42 H 0.2225 0.2274 0.0305
H43 H 0.3129 0.1924 0.0466
H44 H 0.3050 0.2736 0.0396
C48 C 0.33913(17) 0.19807(14) 0.17295(14)
H45 H 0.3317 0.2071 0.2192
H46 H 0.3958 0.2111 0.1674
H47 H 0.3307 0.1493 0.1631
N5 N -0.05074(12) 0.05980(9) 0.21142(10)
O15 O 0.06759(10) 0.01207(9) 0.18298(8)
C49 C -0.00142(15) 0.00731(11) 0.19997(12)
H48 H -0.0218 -0.0375 0.2055
C50 C -0.02394(17) 0.13006(12) 0.20552(13)
H49 H -0.0142 0.1515 0.2500
H50 H -0.0675 0.1553 0.1758
H51 H 0.0279 0.1307 0.1868
C51 C -0.13247(18) 0.04865(15) 0.23102(18)
H52 H -0.1408 -0.0003 0.2375
H53 H -0.1765 0.0658 0.1957
H54 H -0.1349 0.0730 0.2730
N6 N 0.08339(16) 0.00830(11) 0.44047(12)
O16 O 0.01624(19) -0.05737(12) 0.35340(12)
C52 C 0.0326(2) -0.00212(16) 0.38149(18)
H55 H 0.0069 0.0371 0.3593
C53 C 0.1263(2) -0.04851(17) 0.47777(17)
H56 H 0.1001 -0.0583 0.5169
H57 H 0.1852 -0.0366 0.4927
H58 H 0.1227 -0.0889 0.4488
C54 C 0.0918(2) 0.07603(16) 0.47134(16)
H59 H 0.0600 0.1093 0.4409
H60 H 0.1509 0.0892 0.4801
H61 H 0.0702 0.0750 0.5137
N7 N 0.22841(13) 0.59623(12) 0.81057(10)
O17 O 0.12699(15) 0.54327(14) 0.73596(12)
C55 C 0.17218(16) 0.59175(16) 0.75291(13)
H62 H 0.1678 0.6298 0.7233
C56 C 0.2800(2) 0.6562(2) 0.82504(17)
H63 H 0.3382 0.6446 0.8228
H64 H 0.2762 0.6728 0.8701
H65 H 0.2606 0.6919 0.7920
C57 C 0.2384(3) 0.5414(2) 0.85870(18)
H66 H 0.2059 0.5018 0.8396
H67 H 0.2185 0.5562 0.8995
H68 H 0.2977 0.5289 0.8697
loop_
_geom_bond_atom_site_label_1
_geom_bond_atom_site_label_2
_geom_bond_site_symmetry_1
_geom_bond_site_symmetry_2
Cd1 O8 1_555 1_555
Cl1 O18 1_555 1_555
O1 C4 1_555 1_555
N1 O8 1_555 1_555
C1 H1 1_555 1_555
H2 C1 1_555 1_555
O2 C5 1_555 1_555
N2 O10 1_555 1_555
C2 C1 1_555 1_555
O3 C11 1_555 1_555
N3 O12 1_555 1_555
C3 C2 1_555 1_555
H3 C3 1_555 1_555
O4 C12 1_555 1_555
N4 C46 1_555 1_555
C4 C3 1_555 1_555
O5 C18 1_555 1_555
N5 C49 1_555 1_555
C5 C4 1_555 1_555
O6 C19 1_555 1_555
N6 C52 1_555 1_555
C6 C5 1_555 1_555
H4 C6 1_555 1_555
O7 C22 1_555 1_555
N7 C55 1_555 1_555
C7 C2 1_555 1_555
C8 C7 1_555 1_555
H5 C8 1_555 1_555
H6 C8 1_555 1_555
O9 C29 1_555 1_555
C9 C8 1_555 1_555
O10 Cd1A 1_555 1_555
C10 C9 1_555 1_555
H7 C10 1_555 1_555
O11 C36 1_555 1_555
C11 C10 1_555 1_555
C12 C11 1_555 1_555
O13 Cd1 1_555 1_555
C13 C12 1_555 1_555
H8 C13 1_555 1_555
O14 C46 1_555 1_555
C14 C9 1_555 1_555
O15 C49 1_555 1_555
C15 C14 1_555 1_555
H9 C15 1_555 1_555
H10 C15 1_555 1_555
O16 C52 1_555 1_555
C16 C15 1_555 1_555
O17 C55 1_555 1_555
C17 C16 1_555 1_555
H11 C17 1_555 1_555
N8 C43 1_555 1_555
C18 C17 1_555 1_555
C19 C18 1_555 1_555
C20 C19 1_555 1_555
H12 C20 1_555 1_555
C21 C1 1_555 1_555
C22 O1 1_555 1_555
C23 C22 1_555 1_555
C24 C23 1_555 1_555
H13 C24 1_555 1_555
C25 C24 1_555 1_555
H14 C25 1_555 1_555
C26 N1 1_555 1_555
H15 C26 1_555 1_555
C27 N1 1_555 1_555
H16 C27 1_555 1_555
C28 O2 1_555 1_555
H17 C28 1_555 1_555
H18 C28 1_555 1_555
H19 C28 1_555 1_555
C29 O3 1_555 1_555
C30 C29 1_555 1_555
C31 C30 1_555 1_555
H20 C31 1_555 1_555
C32 C31 1_555 1_555
H21 C32 1_555 1_555
C33 N2 1_555 1_555
H22 C33 1_555 1_555
C34 N2 1_555 1_555
H23 C34 1_555 1_555
C35 O4 1_555 1_555
H24 C35 1_555 1_555
H25 C35 1_555 1_555
H26 C35 1_555 1_555
C36 O5 1_555 1_555
C37 C36 1_555 1_555
C38 C37 1_555 1_555
H27 C38 1_555 1_555
C39 C38 1_555 1_555
H28 C39 1_555 1_555
C40 N3 1_555 1_555
H29 C40 1_555 1_555
C41 N3 1_555 1_555
H30 C41 1_555 1_555
C42 O6 1_555 1_555
H31 C42 1_555 1_555
H32 C42 1_555 1_555
H33 C42 1_555 1_555
C43 O13 1_555 1_555
H34 C43 1_555 1_555
C44 N8 1_555 1_555
H35 C44 1_555 1_555
H36 C44 1_555 1_555
H37 C44 1_555 1_555
C45 N8 1_555 1_555
H38 C45 1_555 1_555
H39 C45 1_555 1_555
H40 C45 1_555 1_555
C46 H41 1_555 1_555
C47 N4 1_555 1_555
H42 C47 1_555 1_555
H43 C47 1_555 1_555
H44 C47 1_555 1_555
C48 N4 1_555 1_555
H45 C48 1_555 1_555
H46 C48 1_555 1_555
H47 C48 1_555 1_555
C49 H48 1_555 1_555
C50 N5 1_555 1_555
H49 C50 1_555 1_555
H50 C50 1_555 1_555
H51 C50 1_555 1_555
C51 N5 1_555 1_555
H52 C51 1_555 1_555
H53 C51 1_555 1_555
H54 C51 1_555 1_555
C52 H55 1_555 1_555
C53 N6 1_555 1_555
H56 C53 1_555 1_555
H57 C53 1_555 1_555
H58 C53 1_555 1_555
C54 N6 1_555 1_555
H59 C54 1_555 1_555
H60 C54 1_555 1_555
H61 C54 1_555 1_555
C55 H62 1_555 1_555
C56 N7 1_555 1_555
H63 C56 1_555 1_555
H64 C56 1_555 1_555
H65 C56 1_555 1_555
C57 N7 1_555 1_555
H66 C57 1_555 1_555
H67 C57 1_555 1_555
H68 C57 1_555 1_555
O19 Cl1 1_555 1_555
O20 Cl1 1_555 1_555
O21 Cl1 1_555 1_555
Cd1A_2 O10B 1_555 1_555
O1B C4B 1_555 1_555
N1B O8B 1_555 1_555
C1B H1B 1_555 1_555
H2B C1B 1_555 1_555
O2B C5B 1_555 1_555
N2B O10B 1_555 1_555
C2B C1B 1_555 1_555
O3B C11B 1_555 1_555
N3B O12B 1_555 1_555
C3B C2B 1_555 1_555
H3B C3B 1_555 1_555
O4B C12B 1_555 1_555
C4B C3B 1_555 1_555
O5B C18B 1_555 1_555
C5B C4B 1_555 1_555
O6B C19B 1_555 1_555
C6B C5B 1_555 1_555
H4B C6B 1_555 1_555
O7B C22B 1_555 1_555
C7B C2B 1_555 1_555
O8B Cd1 1_555 1_555
C8B C7B 1_555 1_555
H5B C8B 1_555 1_555
H6B C8B 1_555 1_555
O9B C29B 1_555 1_555
C9B C8B 1_555 1_555
O10A Cd1 1_555 1_555
O10C Cd1 1_555 1_555
C10B C9B 1_555 1_555
H7B C10B 1_555 1_555
O11B C36B 1_555 1_555
C11B C10B 1_555 1_555
C12B C11B 1_555 1_555
O13B Cd1 1_555 1_555
C13B C12B 1_555 1_555
H8B C13B 1_555 1_555
C14B C9B 1_555 1_555
C15B C14B 1_555 1_555
H9B C15B 1_555 1_555
H10B C15B 1_555 1_555
C16B C15B 1_555 1_555
C17B C16B 1_555 1_555
H11B C17B 1_555 1_555
N8B C43B 1_555 1_555
C18B C17B 1_555 1_555
C19B C18B 1_555 1_555
C20B C19B 1_555 1_555
H12B C20B 1_555 1_555
C21B C1B 1_555 1_555
C22B O1B 1_555 1_555
C23B C22B 1_555 1_555
C24B C23B 1_555 1_555
H13B C24B 1_555 1_555
C25B C24B 1_555 1_555
H14B C25B 1_555 1_555
C26B N1B 1_555 1_555
H15B C26B 1_555 1_555
C27B N1B 1_555 1_555
H16B C27B 1_555 1_555
C28B O2B 1_555 1_555
H17B C28B 1_555 1_555
H18B C28B 1_555 1_555
H19B C28B 1_555 1_555
C29B O3B 1_555 1_555
C30B C29B 1_555 1_555
C31B C30B 1_555 1_555
H20B C31B 1_555 1_555
C32B C31B 1_555 1_555
H21B C32B 1_555 1_555
C33B N2B 1_555 1_555
H22B C33B 1_555 1_555
C34B N2B 1_555 1_555
H23B C34B 1_555 1_555
C35B O4B 1_555 1_555
H24B C35B 1_555 1_555
H25B C35B 1_555 1_555
H26B C35B 1_555 1_555
C36B O5B 1_555 1_555
C37B C36B 1_555 1_555
C38B C37B 1_555 1_555
H27B C38B 1_555 1_555
C39B C38B 1_555 1_555
H28B C39B 1_555 1_555
C40B N3B 1_555 1_555
H29B C40B 1_555 1_555
C41B N3B 1_555 1_555
H30B C41B 1_555 1_555
C42B O6B 1_555 1_555
H31B C42B 1_555 1_555
H32B C42B 1_555 1_555
H33B C42B 1_555 1_555
C43B O13B 1_555 1_555
H34B C43B 1_555 1_555
C44B N8B 1_555 1_555
H35B C44B 1_555 1_555
H36B C44B 1_555 1_555
H37B C44B 1_555 1_555
C45B N8B 1_555 1_555
H38B C45B 1_555 1_555
H39B C45B 1_555 1_555
H40B C45B 1_555 1_555
C6 C7 1_555 1_555
C13 C14 1_555 1_555
C16 C21 1_555 1_555
C20 C21 1_555 1_555
C23 C27 1_555 1_555
C25 C26 1_555 1_555
C30 C34 1_555 1_555
C32 C33 1_555 1_555
C37 C41 1_555 1_555
C39 C40 1_555 1_555
C6B C7B 1_555 1_555
C13B C14B 1_555 1_555
C16B C21B 1_555 1_555
C20B C21B 1_555 1_555
C23B C27B 1_555 1_555
C25B C26B 1_555 1_555
C30B C34B 1_555 1_555
C32B C33B 1_555 1_555
C37B C41B 1_555 1_555
C39B C40B 1_555 1_555

#END
