
#######################################################################
#
#                 Cambridge Crystallographic Data Centre
#                                CCDC 
#
#######################################################################
#
# If this CIF has been generated from an entry in the Cambridge 
# Structural Database, then it will include bibliographic, chemical, 
# crystal, experimental, refinement or atomic coordinate data resulting 
# from the CCDC's data processing and validation procedures.
#
#######################################################################

data_REJREF
_symmetry_cell_setting           triclinic
_symmetry_space_group_name_H-M   'P -1'
_symmetry_Int_Tables_number      2
_space_group_name_Hall           '-P 1'
loop_
_symmetry_equiv_pos_site_id
_symmetry_equiv_pos_as_xyz
1 x,y,z
2 -x,-y,-z
_cell_length_a                   12.047(5)
_cell_length_b                   14.724(6)
_cell_length_c                   18.024(7)
_cell_angle_alpha                97.0790(10)
_cell_angle_beta                 107.478(5)
_cell_angle_gamma                102.281(7)
_cell_volume                     2919.04
loop_
_atom_site_label
_atom_site_type_symbol
_atom_site_fract_x
_atom_site_fract_y
_atom_site_fract_z
Co1 Co 0.5000 1.0000 0.5000
O1 O -0.0519(3) 0.0650(2) -0.09450(19)
O2 O 0.6127(3) 0.1199(2) 0.21578(19)
O3 O 0.4411(3) -0.0219(2) 0.1079(2)
O4 O -0.0892(3) 0.2416(2) -0.0729(2)
O5 O 0.4065(4) 0.9672(2) 0.37532(19)
O6 O 0.7380(3) 0.0456(3) 0.1783(2)
O7 O 0.5637(4) 0.8808(2) 0.4797(2)
O8 O 0.3520(3) 0.5867(2) 0.1952(2)
O9 O 0.6407(4) 0.0884(2) 0.4812(2)
C1 C 0.2454(4) 0.2101(3) -0.0821(2)
O10 O -0.4878(3) -0.2195(2) -0.3132(2)
N1 N -0.3932(3) -0.1851(3) -0.2491(2)
C2 C 0.5027(4) 0.4094(3) 0.0783(3)
O11 O 0.5048(4) 0.7154(3) 0.2117(3)
C3 C 0.0380(4) 0.1455(3) -0.0886(3)
C4 C 0.3976(4) 0.4310(3) 0.0351(3)
C5 C 0.5665(4) 0.3473(3) 0.0403(3)
H1 H 0.5443 0.3482 -0.0171
H2 H 0.6549 0.3736 0.0649
C6 C 0.4374(4) 0.1739(3) -0.0054(3)
C7 C 0.5312(4) 0.2452(3) 0.0513(3)
C8 C 0.4665(4) 0.0637(3) 0.0838(3)
C9 C 0.4071(4) 0.0829(3) 0.0113(3)
H3 H 0.3450 0.0340 -0.0277
C10 C 0.5603(4) 0.1356(3) 0.1396(3)
C11 C 0.3627(4) 0.1900(3) -0.0841(3)
H4 H 0.3446 0.1330 -0.1257
H5 H 0.4102 0.2441 -0.0987
C12 C 0.3294(4) 0.3917(3) -0.0528(3)
H6 H 0.3869 0.3782 -0.0793
H7 H 0.2935 0.4403 -0.0767
C13 C 0.2296(4) 0.3012(3) -0.0676(3)
C14 C 0.5925(4) 0.2244(3) 0.1230(3)
H8 H 0.6575 0.2720 0.1611
O12 O 0.5492(3) 0.5351(2) 0.2813(2)
C15 C 0.0222(4) 0.2363(3) -0.0741(3)
C16 C 0.1479(4) 0.1335(3) -0.0925(3)
H9 H 0.1566 0.0710 -0.1026
N2 N 0.3519(4) 0.8753(3) 0.3418(2)
C17 C 0.1177(4) 0.3137(3) -0.0645(3)
H10 H 0.1078 0.3760 -0.0557
C18 C 0.5540(4) 0.4448(3) 0.1596(3)
H11 H 0.6250 0.4288 0.1881
C19 C -0.1950(4) -0.1134(3) -0.1117(3)
H12 H -0.1270 -0.0886 -0.0647
C20 C -0.3205(4) -0.0980(3) -0.2386(3)
H13 H -0.3376 -0.0611 -0.2782
C21 C -0.2210(4) -0.0621(3) -0.1705(3)
N3 N 0.6944(4) 0.0576(3) 0.4325(2)
C22 C 0.4057(4) 0.5279(3) 0.1563(3)
C23 C 0.6936(4) 0.0691(3) 0.2274(3)
C24 C 0.6646(5) 0.0764(3) 0.3588(3)
H14 H 0.6042 0.1089 0.3418
C25 C 0.3519(4) 0.4923(3) 0.0762(3)
H15 H 0.2820 0.5098 0.0479
C26 C 0.4128(5) 0.6800(3) 0.2220(3)
C27 C -0.2720(4) -0.2033(3) -0.1235(3)
H16 H -0.2569 -0.2409 -0.0843
C28 C 0.4025(5) 0.8246(3) 0.3009(3)
H17 H 0.4767 0.8550 0.2955
C29 C -0.1402(4) 0.0328(3) -0.1671(3)
C30 C -0.3684(4) -0.2366(3) -0.1912(3)
H18 H -0.4203 -0.2979 -0.1986
C31 C 0.3509(4) 0.7303(3) 0.2666(3)
C32 C 0.3390(5) -0.0937(3) 0.0552(3)
H19 H 0.2662 -0.0712 0.0479
H20 H 0.3303 -0.1511 0.0777
H21 H 0.3502 -0.1083 0.0038
O13 O -0.1505(4) 0.0747(3) -0.2196(3)
C33 C 0.7232(5) 0.0478(4) 0.3077(3)
C34 C 0.5058(4) 0.5025(3) 0.2007(3)
C35 C 0.5633(6) 0.8167(4) 0.5171(3)
H22 H 0.5336 0.8217 0.5602
C36 C 0.2410(5) 0.6874(4) 0.2726(3)
H23 H 0.2017 0.6228 0.2485
C37 C -0.1060(5) 0.3360(4) -0.0564(4)
H24 H -0.0519 0.3690 -0.0029
H25 H -0.1898 0.3309 -0.0596
H26 H -0.0874 0.3719 -0.0954
C38 C 0.7771(6) 0.0087(4) 0.4570(3)
H27 H 0.7918 -0.0077 0.5078
N4 N 0.6016(6) 0.7409(4) 0.5013(3)
C39 C 0.6252(9) 0.4845(7) 0.3312(6)
H28 H 0.5770 0.4205 0.3280
H29 H 0.6567 0.5191 0.3864
H30 H 0.6926 0.4800 0.3124
C40 C 0.1897(6) 0.7404(5) 0.3140(5)
H31 H 0.1141 0.7121 0.3186
C41 C 0.8120(6) 0.0010(5) 0.3335(4)
H32 H 0.8532 -0.0181 0.2994
C42 C 0.2463(5) 0.8331(4) 0.3487(4)
H33 H 0.2104 0.8684 0.3781
C43 C 0.6485(11) 0.7301(7) 0.4373(5)
H34 H 0.5826 0.6964 0.3883
H35 H 0.7088 0.6938 0.4497
H36 H 0.6861 0.7929 0.4302
C44 C 0.8399(7) -0.0176(5) 0.4103(4)
H37 H 0.9017 -0.0481 0.4296
C45 C 0.6009(13) 0.6670(7) 0.5497(6)
H38 H 0.5617 0.6809 0.5886
H39 H 0.6840 0.6662 0.5776
H40 H 0.5565 0.6050 0.5152
Co1_2 Co 0.5000 0.0000 0.5000
O1A O 1.0519(3) 0.9350(2) 1.09450(19)
O2A O 0.3873(3) 0.8801(2) 0.78422(19)
O3A O 0.5589(3) 1.0219(2) 0.8921(2)
O4A O 1.0892(3) 0.7584(2) 1.0729(2)
O5A O 0.5935(4) 0.0328(2) 0.62468(19)
O5A_2 O 0.5935(4) 1.0328(2) 0.62468(19)
O6A O 0.2620(3) 0.9544(3) 0.8217(2)
O7A O 0.4363(4) 1.1192(2) 0.5203(2)
O8A O 0.6480(3) 0.4133(2) 0.8048(2)
O9A O 0.3593(4) 0.9116(2) 0.5188(2)
O9_2 O 0.6407(4) 1.0884(2) 0.4812(2)
C1A C 0.7546(4) 0.7899(3) 1.0821(2)
O10A O 1.4878(3) 1.2195(2) 1.3132(2)
N1A N 1.3932(3) 1.1851(3) 1.2491(2)
C2A C 0.4973(4) 0.5906(3) 0.9217(3)
O11A O 0.4952(4) 0.2846(3) 0.7883(3)
C3A C 0.9620(4) 0.8545(3) 1.0886(3)
C4A C 0.6024(4) 0.5690(3) 0.9649(3)
C5A C 0.4335(4) 0.6527(3) 0.9597(3)
H1A H 0.4557 0.6518 1.0171
H2A H 0.3451 0.6264 0.9351
C6A C 0.5626(4) 0.8261(3) 1.0054(3)
C7A C 0.4688(4) 0.7548(3) 0.9487(3)
C8A C 0.5335(4) 0.9363(3) 0.9162(3)
C9A C 0.5929(4) 0.9171(3) 0.9887(3)
H3A H 0.6550 0.9660 1.0277
C10A C 0.4397(4) 0.8644(3) 0.8604(3)
C11A C 0.6373(4) 0.8100(3) 1.0841(3)
H4A H 0.6554 0.8670 1.1257
H5A H 0.5898 0.7559 1.0987
C12A C 0.6706(4) 0.6083(3) 1.0528(3)
H6A H 0.6131 0.6218 1.0793
H7A H 0.7065 0.5597 1.0767
C13A C 0.7704(4) 0.6988(3) 1.0676(3)
C14A C 0.4075(4) 0.7756(3) 0.8770(3)
H8A H 0.3425 0.7280 0.8389
O12A O 0.4508(3) 0.4649(2) 0.7187(2)
C15A C 0.9778(4) 0.7637(3) 1.0741(3)
C16A C 0.8521(4) 0.8665(3) 1.0925(3)
H9A H 0.8434 0.9290 1.1026
N2A N 0.6481(4) 0.1247(3) 0.6582(2)
C17A C 0.8823(4) 0.6863(3) 1.0645(3)
H10A H 0.8922 0.6240 1.0557
C18A C 0.4460(4) 0.5552(3) 0.8404(3)
H11A H 0.3750 0.5712 0.8119
C19A C 1.1950(4) 1.1134(3) 1.1117(3)
H12A H 1.1270 1.0886 1.0647
C20A C 1.3205(4) 1.0980(3) 1.2386(3)
H13A H 1.3376 1.0611 1.2782
C21A C 1.2210(4) 1.0621(3) 1.1705(3)
N3A N 0.3056(4) 0.9424(3) 0.5675(2)
C22A C 0.5943(4) 0.4721(3) 0.8437(3)
C23A C 0.3064(4) 0.9309(3) 0.7726(3)
C24A C 0.3354(5) 0.9236(3) 0.6412(3)
H14A H 0.3958 0.8911 0.6582
C25A C 0.6481(4) 0.5077(3) 0.9238(3)
H15A H 0.7180 0.4902 0.9521
C26A C 0.5872(5) 0.3200(3) 0.7780(3)
C27A C 1.2720(4) 1.2033(3) 1.1235(3)
H16A H 1.2569 1.2409 1.0843
C28A C 0.5975(5) 0.1754(3) 0.6991(3)
H17A H 0.5233 0.1450 0.7045
C29A C 1.1402(4) 0.9672(3) 1.1671(3)
C30A C 1.3684(4) 1.2366(3) 1.1912(3)
H18A H 1.4203 1.2979 1.1986
C31A C 0.6491(4) 0.2697(3) 0.7334(3)
C32A C 0.6610(5) 1.0937(3) 0.9448(3)
H19A H 0.7338 1.0712 0.9521
H20A H 0.6697 1.1511 0.9223
H21A H 0.6498 1.1083 0.9962
O13A O 1.1505(4) 0.9253(3) 1.2196(3)
C33A C 0.2768(5) 0.9522(4) 0.6923(3)
C34A C 0.4942(4) 0.4975(3) 0.7993(3)
C35A C 0.4367(6) 1.1833(4) 0.4829(3)
H22A H 0.4664 1.1783 0.4398
C36A C 0.7590(5) 0.3126(4) 0.7274(3)
H23A H 0.7983 0.3772 0.7515
C37A C 1.1060(5) 0.6640(4) 1.0564(4)
H24A H 1.0519 0.6310 1.0029
H25A H 1.1898 0.6691 1.0596
H26A H 1.0874 0.6281 1.0954
C38A C 0.2229(6) 0.9913(4) 0.5430(3)
H27A H 0.2082 1.0077 0.4922
N4A N 0.3984(6) 1.2591(4) 0.4987(3)
C39A C 0.3748(9) 0.5155(7) 0.6688(6)
H28A H 0.4230 0.5795 0.6720
H29A H 0.3433 0.4809 0.6136
H30A H 0.3074 0.5200 0.6876
C40A C 0.8103(6) 0.2596(5) 0.6860(5)
H31A H 0.8859 0.2879 0.6814
C41A C 0.1880(6) 0.9990(5) 0.6665(4)
H32A H 0.1468 1.0181 0.7006
C42A C 0.7537(5) 0.1669(4) 0.6513(4)
H33A H 0.7896 0.1316 0.6219
C43A C 0.3515(11) 1.2699(7) 0.5627(5)
H34A H 0.4174 1.3036 0.6117
H35A H 0.2912 1.3062 0.5503
H36A H 0.3139 1.2071 0.5698
C44A C 0.1601(7) 1.0176(5) 0.5897(4)
H37A H 0.0983 1.0481 0.5704
C45A C 0.3991(13) 1.3330(7) 0.4503(6)
H38A H 0.4383 1.3191 0.4114
H39A H 0.3160 1.3338 0.4224
H40A H 0.4435 1.3950 0.4848
N5 N 0.0444(7) 0.2618(6) 0.1933(5)
C46 C 0.1235(12) 0.3558(11) 0.2017(9)
H41 H 0.1417 0.3600 0.1525
H42 H 0.1987 0.3655 0.2460
H43 H 0.0830 0.4046 0.2121
O14 O 0.1488(15) 0.2163(10) 0.2988(9)
C47 C -0.0603(9) 0.2323(7) 0.1277(6)
H44 H -0.1085 0.2781 0.1280
H45 H -0.1071 0.1699 0.1295
H46 H -0.0394 0.2279 0.0791
C48 C 0.0684(17) 0.1962(13) 0.2506(11)
H47 H 0.0113 0.1374 0.2430
O15 O -0.1246(5) 0.4630(4) 0.1005(4)
N6 N -0.0949(5) 0.4837(4) 0.1752(5)
O16 O -0.0108(6) 0.5503(5) 0.2165(5)
O17 O -0.1566(5) 0.4350(5) 0.2072(5)
N7 N -0.0997(8) 0.7462(7) 0.3292(6)
C49 C -0.0450(12) 0.7505(10) 0.4022(8)
H48 H -0.0631 0.6991 0.4275
C50 C -0.1928(12) 0.6813(10) 0.2751(8)
H49 H -0.1629 0.6356 0.2474
H50 H -0.2393 0.7126 0.2367
H51 H -0.2446 0.6481 0.3014
O18 O 0.0325(10) 0.8245(8) 0.4385(7)
C51 C -0.0628(15) 0.8214(12) 0.2888(10)
H52 H -0.0223 0.7988 0.2534
H53 H -0.0073 0.8769 0.3283
H54 H -0.1342 0.8389 0.2577
O19 O 0.8533(11) -0.0527(9) 0.6254(7)
loop_
_geom_bond_atom_site_label_1
_geom_bond_atom_site_label_2
_geom_bond_site_symmetry_1
_geom_bond_site_symmetry_2
Co1 O5 1_555 1_555
O1 C3 1_555 1_555
O2 C10 1_555 1_555
O3 C8 1_555 1_555
O4 C15 1_555 1_555
O5 N2 1_555 1_555
O6 C23 1_555 1_555
O7 Co1 1_555 1_555
O8 C22 1_555 1_555
O9 N3 1_555 1_555
C1 C11 1_555 1_555
O10 N1 1_555 1_555
N1 C20 1_555 1_555
C2 C4 1_555 1_555
O11 C26 1_555 1_555
C3 C15 1_555 1_555
C4 C12 1_555 1_555
C5 C2 1_555 1_555
H1 C5 1_555 1_555
H2 C5 1_555 1_555
C6 C7 1_555 1_555
C7 C5 1_555 1_555
C8 C9 1_555 1_555
C9 C6 1_555 1_555
H3 C9 1_555 1_555
C10 C8 1_555 1_555
C11 C6 1_555 1_555
H4 C11 1_555 1_555
H5 C11 1_555 1_555
C12 H6 1_555 1_555
H7 C12 1_555 1_555
C13 C1 1_555 1_555
C14 C7 1_555 1_555
H8 C14 1_555 1_555
O12 C34 1_555 1_555
C15 C17 1_555 1_555
C16 C1 1_555 1_555
H9 C16 1_555 1_555
N2 C28 1_555 1_555
C17 C13 1_555 1_555
H10 C17 1_555 1_555
C18 C2 1_555 1_555
H11 C18 1_555 1_555
C19 H12 1_555 1_555
C20 H13 1_555 1_555
C21 C19 1_555 1_555
N3 C24 1_555 1_555
C22 C25 1_555 1_555
C23 O2 1_555 1_555
C24 H14 1_555 1_555
C25 C4 1_555 1_555
H15 C25 1_555 1_555
C26 O8 1_555 1_555
C27 C19 1_555 1_555
H16 C27 1_555 1_555
C28 H17 1_555 1_555
C29 O1 1_555 1_555
C30 N1 1_555 1_555
H18 C30 1_555 1_555
C31 C26 1_555 1_555
C32 O3 1_555 1_555
H19 C32 1_555 1_555
H20 C32 1_555 1_555
H21 C32 1_555 1_555
O13 C29 1_555 1_555
C33 C23 1_555 1_555
C34 C18 1_555 1_555
C35 O7 1_555 1_555
H22 C35 1_555 1_555
C36 C31 1_555 1_555
H23 C36 1_555 1_555
C37 O4 1_555 1_555
H24 C37 1_555 1_555
H25 C37 1_555 1_555
H26 C37 1_555 1_555
C38 N3 1_555 1_555
H27 C38 1_555 1_555
N4 C35 1_555 1_555
C39 O12 1_555 1_555
H28 C39 1_555 1_555
H29 C39 1_555 1_555
H30 C39 1_555 1_555
C40 C36 1_555 1_555
H31 C40 1_555 1_555
C41 C33 1_555 1_555
H32 C41 1_555 1_555
C42 N2 1_555 1_555
H33 C42 1_555 1_555
C43 N4 1_555 1_555
H34 C43 1_555 1_555
H35 C43 1_555 1_555
H36 C43 1_555 1_555
C44 C38 1_555 1_555
H37 C44 1_555 1_555
C45 N4 1_555 1_555
H38 C45 1_555 1_555
H39 C45 1_555 1_555
H40 C45 1_555 1_555
N5 C46 1_555 1_555
C46 H41 1_555 1_555
H42 C46 1_555 1_555
H43 C46 1_555 1_555
O14 C48 1_555 1_555
C47 N5 1_555 1_555
H44 C47 1_555 1_555
H45 C47 1_555 1_555
H46 C47 1_555 1_555
C48 N5 1_555 1_555
H47 C48 1_555 1_555
O15 N6 1_555 1_555
N6 O16 1_555 1_555
O17 N6 1_555 1_555
N7 C49 1_555 1_555
C49 H48 1_555 1_555
C50 N7 1_555 1_555
H49 C50 1_555 1_555
H50 C50 1_555 1_555
H51 C50 1_555 1_555
O18 C49 1_555 1_555
C51 N7 1_555 1_555
H52 C51 1_555 1_555
H53 C51 1_555 1_555
H54 C51 1_555 1_555
Co1_2 O9 1_555 1_555
O1A C3A 1_555 1_555
O2A C10A 1_555 1_555
O3A C8A 1_555 1_555
O4A C15A 1_555 1_555
O5A Co1_2 1_555 1_555
O5A_2 Co1 1_555 1_555
O6A C23A 1_555 1_555
O7A Co1 1_555 1_555
O8A C22A 1_555 1_555
O9A Co1 1_555 1_555
O9_2 Co1 1_555 1_555
C1A C11A 1_555 1_555
O10A N1A 1_555 1_555
N1A C20A 1_555 1_555
C2A C4A 1_555 1_555
O11A C26A 1_555 1_555
C3A C15A 1_555 1_555
C4A C12A 1_555 1_555
C5A C2A 1_555 1_555
H1A C5A 1_555 1_555
H2A C5A 1_555 1_555
C6A C7A 1_555 1_555
C7A C5A 1_555 1_555
C8A C9A 1_555 1_555
C9A C6A 1_555 1_555
H3A C9A 1_555 1_555
C10A C8A 1_555 1_555
C11A C6A 1_555 1_555
H4A C11A 1_555 1_555
H5A C11A 1_555 1_555
C12A H6A 1_555 1_555
H7A C12A 1_555 1_555
C13A C1A 1_555 1_555
C14A C7A 1_555 1_555
H8A C14A 1_555 1_555
O12A C34A 1_555 1_555
C15A C17A 1_555 1_555
C16A C1A 1_555 1_555
H9A C16A 1_555 1_555
N2A O5A 1_555 1_555
C17A C13A 1_555 1_555
H10A C17A 1_555 1_555
C18A C2A 1_555 1_555
H11A C18A 1_555 1_555
C19A H12A 1_555 1_555
C20A H13A 1_555 1_555
C21A C19A 1_555 1_555
N3A O9A 1_555 1_555
C22A C25A 1_555 1_555
C23A O2A 1_555 1_555
C24A N3A 1_555 1_555
H14A C24A 1_555 1_555
C25A C4A 1_555 1_555
H15A C25A 1_555 1_555
C26A O8A 1_555 1_555
C27A C19A 1_555 1_555
H16A C27A 1_555 1_555
C28A N2A 1_555 1_555
H17A C28A 1_555 1_555
C29A O1A 1_555 1_555
C30A N1A 1_555 1_555
H18A C30A 1_555 1_555
C31A C26A 1_555 1_555
C32A O3A 1_555 1_555
H19A C32A 1_555 1_555
H20A C32A 1_555 1_555
H21A C32A 1_555 1_555
O13A C29A 1_555 1_555
C33A C23A 1_555 1_555
C34A C18A 1_555 1_555
C35A O7A 1_555 1_555
H22A C35A 1_555 1_555
C36A C31A 1_555 1_555
H23A C36A 1_555 1_555
C37A O4A 1_555 1_555
H24A C37A 1_555 1_555
H25A C37A 1_555 1_555
H26A C37A 1_555 1_555
C38A N3A 1_555 1_555
H27A C38A 1_555 1_555
N4A C35A 1_555 1_555
C39A O12A 1_555 1_555
H28A C39A 1_555 1_555
H29A C39A 1_555 1_555
H30A C39A 1_555 1_555
C40A C36A 1_555 1_555
H31A C40A 1_555 1_555
C41A C33A 1_555 1_555
H32A C41A 1_555 1_555
C42A N2A 1_555 1_555
H33A C42A 1_555 1_555
C43A N4A 1_555 1_555
H34A C43A 1_555 1_555
H35A C43A 1_555 1_555
H36A C43A 1_555 1_555
C44A C38A 1_555 1_555
H37A C44A 1_555 1_555
C45A N4A 1_555 1_555
H38A C45A 1_555 1_555
H39A C45A 1_555 1_555
H40A C45A 1_555 1_555
C3 C16 1_555 1_555
C10 C14 1_555 1_555
C12 C13 1_555 1_555
C20 C21 1_555 1_555
C21 C29 1_555 1_555
C22 C34 1_555 1_555
C24 C33 1_555 1_555
C27 C30 1_555 1_555
C28 C31 1_555 1_555
C40 C42 1_555 1_555
C41 C44 1_555 1_555
C3A C16A 1_555 1_555
C10A C14A 1_555 1_555
C12A C13A 1_555 1_555
C20A C21A 1_555 1_555
C21A C29A 1_555 1_555
C22A C34A 1_555 1_555
C24A C33A 1_555 1_555
C27A C30A 1_555 1_555
C28A C31A 1_555 1_555
C40A C42A 1_555 1_555
C41A C44A 1_555 1_555

#END
