
#######################################################################
#
#                 Cambridge Crystallographic Data Centre
#                                CCDC 
#
#######################################################################
#
# If this CIF has been generated from an entry in the Cambridge 
# Structural Database, then it will include bibliographic, chemical, 
# crystal, experimental, refinement or atomic coordinate data resulting 
# from the CCDC's data processing and validation procedures.
#
#######################################################################

data_REJRAB
_symmetry_cell_setting           monoclinic
_symmetry_space_group_name_H-M   'P 21/n'
_symmetry_Int_Tables_number      14
_space_group_name_Hall           '-P 2yn'
loop_
_symmetry_equiv_pos_site_id
_symmetry_equiv_pos_as_xyz
1 x,y,z
2 1/2-x,1/2+y,1/2-z
3 -x,-y,-z
4 1/2+x,1/2-y,1/2+z
_cell_length_a                   16.2126(14)
_cell_length_b                   19.3231(17)
_cell_length_c                   19.8240(17)
_cell_angle_alpha                90
_cell_angle_beta                 100.091(2)
_cell_angle_gamma                90
_cell_volume                     6114.35
loop_
_atom_site_label
_atom_site_type_symbol
_atom_site_fract_x
_atom_site_fract_y
_atom_site_fract_z
Cu1 Cu 0.0000 0.5000 0.5000
O1 O -0.38701(9) 0.62319(8) 0.88558(6)
N1 N -0.67156(10) 0.75251(8) 1.03186(7)
C1 C -0.11587(11) 0.53379(9) 1.00492(8)
H1 H -0.0844 0.5371 1.0524
H2 H -0.0944 0.5703 0.9775
O2 O -0.46164(8) 0.59426(7) 0.99612(6)
N2 N -0.32620(10) 0.01603(8) 1.06655(7)
C2 C -0.20774(11) 0.54754(9) 1.00575(8)
O3 O -0.43326(9) 0.70896(8) 0.99619(9)
N3 N -0.04162(10) 0.37505(8) 0.58234(7)
C3 C -0.25429(12) 0.57728(9) 0.94615(8)
H3 H -0.2274 0.5865 0.9082
O4 O -0.69525(9) 0.81666(7) 1.03800(7)
N4 N 0.00031(10) 0.61775(8) 0.66992(7)
C4 C -0.33806(12) 0.59333(10) 0.94143(8)
O5 O -0.36239(9) 0.29078(8) 1.16424(7)
C5 C -0.37600(12) 0.57956(9) 0.99778(9)
O6 O -0.25143(9) 0.21087(7) 1.11781(6)
C6 C -0.33164(12) 0.55062(9) 1.05674(8)
H4 H -0.3591 0.5420 1.0945
O7 O -0.17779(12) 0.18045(8) 1.21986(7)
C7 C -0.24698(11) 0.53378(9) 1.06196(8)
O8 O -0.37394(9) 0.00416(7) 1.00543(6)
C8 C -0.20197(12) 0.50215(9) 1.12912(8)
H5 H -0.1421 0.5154 1.1361
H6 H -0.2262 0.5216 1.1675
O9 O -0.04871(9) 0.27838(7) 0.87979(6)
C9 C -0.20850(11) 0.42393(9) 1.13063(7)
O10 O -0.11336(8) 0.38574(7) 0.80281(6)
C10 C -0.28117(12) 0.39516(10) 1.14884(8)
H7 H -0.3223 0.4249 1.1619
O11 O 0.01754(8) 0.41797(7) 0.79185(6)
C11 C -0.29386(12) 0.32401(10) 1.14808(8)
O12 O 0.01258(8) 0.38765(7) 0.54132(6)
C12 C -0.23292(12) 0.28172(10) 1.12849(8)
O13 O 0.01182(8) 0.53173(6) 0.59480(5)
C13 C -0.15983(12) 0.30855(10) 1.11327(8)
H8 H -0.1181 0.2782 1.1022
C14 C -0.14616(11) 0.38002(9) 1.11388(7)
C15 C -0.06478(11) 0.40548(10) 1.09379(8)
H9 H -0.0180 0.3750 1.1144
H10 H -0.0524 0.4529 1.1116
C16 C -0.07210(11) 0.40551(9) 1.01603(8)
C17 C -0.05400(11) 0.34337(9) 0.98525(8)
H11 H -0.0339 0.3050 1.0133
C18 C -0.06484(11) 0.33682(9) 0.91421(8)
C19 C -0.09432(11) 0.39408(10) 0.87465(8)
C20 C -0.10949(11) 0.45621(10) 0.90387(8)
H12 H -0.1274 0.4948 0.8754
C21 C -0.09880(10) 0.46345(9) 0.97566(8)
C22 C -0.34476(14) 0.65016(13) 0.83385(10)
H13 H -0.2999 0.6814 0.8549
H14 H -0.3847 0.6757 0.8000
H15 H -0.3207 0.6119 0.8112
C23 C -0.48078(12) 0.66224(10) 1.00010(9)
C24 C -0.56854(11) 0.67145(10) 1.01203(8)
C25 C -0.61989(12) 0.61654(10) 1.02354(9)
H16 H -0.6020 0.5700 1.0208
C26 C -0.69777(13) 0.63194(11) 1.03901(9)
H17 H -0.7344 0.5955 1.0467
C27 C -0.72243(12) 0.69936(11) 1.04334(9)
H18 H -0.7759 0.7092 1.0545
C28 C -0.59560(12) 0.73862(10) 1.01503(8)
H19 H -0.5609 0.7756 1.0053
C29 C -0.42505(15) 0.33251(13) 1.18667(14)
H20 H -0.4008 0.3565 1.2291
H21 H -0.4714 0.3030 1.1951
H22 H -0.4460 0.3666 1.1512
C30 C -0.22087(12) 0.16514(10) 1.16675(9)
C31 C -0.24907(12) 0.09371(10) 1.14608(8)
C32 C -0.22151(13) 0.03869(11) 1.18984(9)
H23 H -0.1851 0.0464 1.2322
C33 C -0.24826(14) -0.02716(11) 1.17019(10)
H24 H -0.2300 -0.0654 1.1991
C34 C -0.30128(13) -0.03781(10) 1.10881(9)
H25 H -0.3205 -0.0832 1.0961
C35 C -0.30158(12) 0.08138(9) 1.08398(8)
H26 H -0.3201 0.1187 1.0539
C36 C -0.02029(15) 0.21924(11) 0.92061(11)
H27 H 0.0310 0.2310 0.9526
H28 H -0.0086 0.1813 0.8908
H29 H -0.0637 0.2048 0.9464
C37 C -0.05078(12) 0.39722(9) 0.76735(8)
C38 C -0.07838(12) 0.37913(9) 0.69332(8)
C39 C -0.15668(13) 0.35182(10) 0.66726(9)
H30 H -0.1968 0.3443 0.6962
C40 C -0.17508(13) 0.33575(11) 0.59781(9)
H31 H -0.2281 0.3165 0.5791
C41 C -0.11715(12) 0.34756(10) 0.55623(9)
H32 H -0.1302 0.3364 0.5089
C42 C -0.02150(12) 0.39047(9) 0.65010(8)
H33 H 0.0321 0.4092 0.6679
C43 C -0.01947(12) 0.58790(9) 0.60945(8)
H34 H -0.0593 0.6100 0.5754
C44 C -0.03051(16) 0.68652(11) 0.68292(10)
H35 H 0.0138 0.7207 0.6814
H36 H -0.0468 0.6874 0.7282
H37 H -0.0792 0.6977 0.6479
C45 C 0.06083(14) 0.58719(12) 0.72449(9)
H38 H 0.0787 0.5421 0.7096
H39 H 0.0351 0.5811 0.7653
H40 H 0.1096 0.6177 0.7354
Cu1A Cu -0.5000 0.0000 1.0000
Cu1A_2 Cu 0.5000 1.0000 0.0000
O1B O 0.38701(9) 0.37681(8) 0.11442(6)
N1B N 0.67156(10) 0.24749(8) -0.03186(7)
C1B C 0.11587(11) 0.46621(9) -0.00492(8)
H1B H 0.0844 0.4629 -0.0524
H2B H 0.0944 0.4297 0.0225
O2B O 0.46164(8) 0.40574(7) 0.00388(6)
N2B N 0.32620(10) 0.98397(8) -0.06655(7)
C2B C 0.20774(11) 0.45246(9) -0.00575(8)
O3B O 0.43326(9) 0.29104(8) 0.00381(9)
N3B N 0.04162(10) 0.62495(8) 0.41766(7)
C3B C 0.25429(12) 0.42272(9) 0.05385(8)
H3B H 0.2274 0.4135 0.0918
O4B O 0.69525(9) 0.18334(7) -0.03800(7)
N4B N -0.00031(10) 0.38225(8) 0.33008(7)
C4B C 0.33806(12) 0.40667(10) 0.05857(8)
O5B O 0.36239(9) 0.70922(8) -0.16424(7)
C5B C 0.37600(12) 0.42044(9) 0.00222(9)
O6B O 0.25143(9) 0.78913(7) -0.11781(6)
C6B C 0.33164(12) 0.44938(9) -0.05674(8)
H4B H 0.3591 0.4580 -0.0945
O7B O 0.17779(12) 0.81955(8) -0.21986(7)
C7B C 0.24698(11) 0.46622(9) -0.06196(8)
O8B O 0.37394(9) 0.99584(7) -0.00543(6)
O8A O -0.12606(9) 0.50416(7) 0.49457(6)
O8C O 0.12606(9) 0.49584(7) 0.50543(6)
C8B C 0.20197(12) 0.49785(9) -0.12912(8)
H5B H 0.1421 0.4846 -0.1361
H6B H 0.2262 0.4784 -0.1675
O9B O 0.04871(9) 0.72162(7) 0.12021(6)
C9B C 0.20850(11) 0.57607(9) -0.13063(7)
O10B O 0.11336(8) 0.61426(7) 0.19719(6)
C10B C 0.28117(12) 0.60484(10) -0.14884(8)
H7B H 0.3223 0.5751 -0.1619
O11B O -0.01754(8) 0.58203(7) 0.20815(6)
C11B C 0.29386(12) 0.67599(10) -0.14808(8)
O12B O -0.01258(8) 0.61235(7) 0.45868(6)
C12B C 0.23292(12) 0.71828(10) -0.12849(8)
O13B O -0.01182(8) 0.46827(6) 0.40520(5)
C13B C 0.15983(12) 0.69145(10) -0.11327(8)
H8B H 0.1181 0.7218 -0.1022
C14B C 0.14616(11) 0.61998(9) -0.11388(7)
C15B C 0.06478(11) 0.59452(10) -0.09379(8)
H9B H 0.0180 0.6250 -0.1144
H10B H 0.0524 0.5471 -0.1116
C16B C 0.07210(11) 0.59449(9) -0.01603(8)
C17B C 0.05400(11) 0.65663(9) 0.01475(8)
H11B H 0.0339 0.6950 -0.0133
C18B C 0.06484(11) 0.66318(9) 0.08579(8)
C19B C 0.09432(11) 0.60592(10) 0.12535(8)
C20B C 0.10949(11) 0.54379(10) 0.09613(8)
H12B H 0.1274 0.5052 0.1246
C21B C 0.09880(10) 0.53655(9) 0.02434(8)
C22B C 0.34476(14) 0.34984(13) 0.16615(10)
H13B H 0.2999 0.3186 0.1451
H14B H 0.3847 0.3243 0.2000
H15B H 0.3207 0.3881 0.1888
C23B C 0.48078(12) 0.33776(10) -0.00010(9)
C24B C 0.56854(11) 0.32855(10) -0.01203(8)
C25B C 0.61989(12) 0.38346(10) -0.02354(9)
H16B H 0.6020 0.4300 -0.0208
C26B C 0.69777(13) 0.36806(11) -0.03901(9)
H17B H 0.7344 0.4045 -0.0467
C27B C 0.72243(12) 0.30064(11) -0.04334(9)
H18B H 0.7759 0.2908 -0.0545
C28B C 0.59560(12) 0.26138(10) -0.01503(8)
H19B H 0.5609 0.2244 -0.0053
C29B C 0.42505(15) 0.66749(13) -0.18667(14)
H20B H 0.4008 0.6435 -0.2291
H21B H 0.4714 0.6970 -0.1951
H22B H 0.4460 0.6334 -0.1512
C30B C 0.22087(12) 0.83486(10) -0.16675(9)
C31B C 0.24907(12) 0.90629(10) -0.14608(8)
C32B C 0.22151(13) 0.96131(11) -0.18984(9)
H23B H 0.1851 0.9536 -0.2322
C33B C 0.24826(14) 1.02716(11) -0.17019(10)
H24B H 0.2300 1.0654 -0.1991
C34B C 0.30128(13) 1.03781(10) -0.10881(9)
H25B H 0.3205 1.0832 -0.0961
C35B C 0.30158(12) 0.91862(9) -0.08398(8)
H26B H 0.3201 0.8813 -0.0539
C36B C 0.02029(15) 0.78076(11) 0.07939(11)
H27B H -0.0310 0.7690 0.0474
H28B H 0.0086 0.8187 0.1092
H29B H 0.0637 0.7952 0.0536
C37B C 0.05078(12) 0.60278(9) 0.23265(8)
C38B C 0.07838(12) 0.62087(9) 0.30668(8)
C39B C 0.15668(13) 0.64818(10) 0.33274(9)
H30B H 0.1968 0.6557 0.3038
C40B C 0.17508(13) 0.66425(11) 0.40219(9)
H31B H 0.2281 0.6835 0.4209
C41B C 0.11715(12) 0.65244(10) 0.44377(9)
H32B H 0.1302 0.6636 0.4911
C42B C 0.02150(12) 0.60953(9) 0.34990(8)
H33B H -0.0321 0.5908 0.3321
C43B C 0.01947(12) 0.41210(9) 0.39055(8)
H34B H 0.0593 0.3900 0.4246
C44B C 0.03051(16) 0.31348(11) 0.31708(10)
H35B H -0.0138 0.2793 0.3186
H36B H 0.0468 0.3126 0.2718
H37B H 0.0792 0.3023 0.3521
C45B C -0.06083(14) 0.41281(12) 0.27551(9)
H38B H -0.0787 0.4579 0.2904
H39B H -0.0351 0.4189 0.2347
H40B H -0.1096 0.3823 0.2646
Cl1 Cl 0.10861(3) 0.22347(3) 0.12991(3)
O17 O 0.13529(15) 0.27320(16) 0.08694(12)
O18 O 0.02375(12) 0.23282(12) 0.13514(11)
O19 O 0.16054(13) 0.22713(11) 0.19557(9)
O20 O 0.11976(16) 0.15626(15) 0.10499(17)
N5 N 0.27764(12) 0.76196(9) 0.63059(9)
O14 O 0.16460(12) 0.69043(8) 0.61800(9)
C46 C 0.21875(18) 0.72594(12) 0.65334(12)
H41 H 0.2182 0.7276 0.7011
C47 C 0.27946(17) 0.76383(14) 0.55772(12)
H42 H 0.3005 0.7196 0.5435
H43 H 0.3164 0.8013 0.5480
H44 H 0.2227 0.7719 0.5324
C48 C 0.33973(18) 0.80294(14) 0.67574(13)
H45 H 0.3313 0.7974 0.7232
H46 H 0.3335 0.8518 0.6627
H47 H 0.3961 0.7871 0.6717
N6 N -0.05214(12) 0.93678(10) 0.71010(9)
O15 O 0.06708(11) 0.98744(9) 0.68647(8)
C49 C -0.00362(16) 0.99068(12) 0.70017(11)
H48 H -0.0262 1.0356 0.7041
C50 C -0.13511(17) 0.94633(15) 0.72697(15)
H49 H -0.1452 0.9958 0.7330
H50 H -0.1387 0.9216 0.7695
H51 H -0.1773 0.9281 0.6897
C51 C -0.02258(18) 0.86668(12) 0.70543(12)
H52 H -0.0656 0.8393 0.6762
H53 H -0.0108 0.8461 0.7513
H54 H 0.0287 0.8670 0.6856
N7 N 0.07854(15) 0.98958(11) 0.93895(11)
O16 O 0.00757(19) 1.05595(12) 0.85267(11)
C52 C 0.0254(2) 1.00016(16) 0.88035(15)
H55 H -0.0010 0.9604 0.8580
C53 C 0.08977(19) 0.92101(14) 0.96939(15)
H56 H 0.0577 0.8872 0.9385
H57 H 0.0699 0.9209 1.0133
H58 H 0.1493 0.9086 0.9769
C54 C 0.1218(2) 1.04686(15) 0.97645(15)
H59 H 0.1150 1.0884 0.9477
H60 H 0.1815 1.0358 0.9891
H61 H 0.0983 1.0552 1.0180
N8 N -0.23032(13) 0.59475(11) 0.68918(9)
O21 O -0.12518(13) 0.54474(12) 0.76388(10)
C55 C -0.17339(16) 0.59201(15) 0.74712(12)
H62 H -0.1707 0.6303 0.7775
C56 C -0.2842(2) 0.65402(19) 0.67405(15)
H63 H -0.2667 0.6903 0.7081
H64 H -0.3422 0.6406 0.6755
H65 H -0.2804 0.6715 0.6283
C57 C -0.2380(2) 0.53906(19) 0.63999(16)
H66 H -0.2009 0.5009 0.6585
H67 H -0.2221 0.5557 0.5974
H68 H -0.2961 0.5227 0.6307
loop_
_geom_bond_atom_site_label_1
_geom_bond_atom_site_label_2
_geom_bond_site_symmetry_1
_geom_bond_site_symmetry_2
Cu1 O12 1_555 1_555
Cl1 O17 1_555 1_555
O1 C4 1_555 1_555
N1 O4 1_555 1_555
C1 H1 1_555 1_555
H2 C1 1_555 1_555
O2 C5 1_555 1_555
N2 O8 1_555 1_555
C2 C1 1_555 1_555
O3 C23 1_555 1_555
N3 O12 1_555 1_555
C3 C2 1_555 1_555
H3 C3 1_555 1_555
N4 C43 1_555 1_555
C4 C3 1_555 1_555
O5 C11 1_555 1_555
N5 C46 1_555 1_555
C5 C4 1_555 1_555
O6 C12 1_555 1_555
N6 C49 1_555 1_555
C6 C5 1_555 1_555
H4 C6 1_555 1_555
O7 C30 1_555 1_555
N7 C52 1_555 1_555
C7 C2 1_555 1_555
O8 Cu1A 1_555 1_555
C8 C7 1_555 1_555
H5 C8 1_555 1_555
H6 C8 1_555 1_555
O9 C18 1_555 1_555
C9 C8 1_555 1_555
O10 C19 1_555 1_555
C10 C9 1_555 1_555
H7 C10 1_555 1_555
O11 C37 1_555 1_555
C11 C10 1_555 1_555
C12 C11 1_555 1_555
O13 Cu1 1_555 1_555
C13 C12 1_555 1_555
H8 C13 1_555 1_555
O14 C46 1_555 1_555
C14 C9 1_555 1_555
O15 C49 1_555 1_555
C15 C14 1_555 1_555
H9 C15 1_555 1_555
H10 C15 1_555 1_555
O16 C52 1_555 1_555
C16 C15 1_555 1_555
C17 C16 1_555 1_555
H11 C17 1_555 1_555
O18 Cl1 1_555 1_555
C18 C17 1_555 1_555
O19 Cl1 1_555 1_555
C19 C18 1_555 1_555
O20 Cl1 1_555 1_555
C20 C19 1_555 1_555
H12 C20 1_555 1_555
C21 C1 1_555 1_555
C22 O1 1_555 1_555
H13 C22 1_555 1_555
H14 C22 1_555 1_555
H15 C22 1_555 1_555
C23 O2 1_555 1_555
C24 C23 1_555 1_555
C25 C24 1_555 1_555
H16 C25 1_555 1_555
C26 C25 1_555 1_555
H17 C26 1_555 1_555
C27 N1 1_555 1_555
H18 C27 1_555 1_555
C28 N1 1_555 1_555
H19 C28 1_555 1_555
C29 O5 1_555 1_555
H20 C29 1_555 1_555
H21 C29 1_555 1_555
H22 C29 1_555 1_555
C30 O6 1_555 1_555
C31 C30 1_555 1_555
C32 C31 1_555 1_555
H23 C32 1_555 1_555
C33 C32 1_555 1_555
H24 C33 1_555 1_555
C34 N2 1_555 1_555
H25 C34 1_555 1_555
C35 N2 1_555 1_555
H26 C35 1_555 1_555
C36 O9 1_555 1_555
H27 C36 1_555 1_555
H28 C36 1_555 1_555
H29 C36 1_555 1_555
C37 O10 1_555 1_555
C38 C37 1_555 1_555
C39 C38 1_555 1_555
H30 C39 1_555 1_555
C40 C39 1_555 1_555
H31 C40 1_555 1_555
C41 N3 1_555 1_555
H32 C41 1_555 1_555
C42 N3 1_555 1_555
H33 C42 1_555 1_555
C43 O13 1_555 1_555
H34 C43 1_555 1_555
C44 N4 1_555 1_555
H35 C44 1_555 1_555
H36 C44 1_555 1_555
H37 C44 1_555 1_555
C45 N4 1_555 1_555
H38 C45 1_555 1_555
H39 C45 1_555 1_555
H40 C45 1_555 1_555
C46 H41 1_555 1_555
C47 N5 1_555 1_555
H42 C47 1_555 1_555
H43 C47 1_555 1_555
H44 C47 1_555 1_555
C48 N5 1_555 1_555
H45 C48 1_555 1_555
H46 C48 1_555 1_555
H47 C48 1_555 1_555
C49 H48 1_555 1_555
C50 N6 1_555 1_555
H49 C50 1_555 1_555
H50 C50 1_555 1_555
H51 C50 1_555 1_555
C51 N6 1_555 1_555
H52 C51 1_555 1_555
H53 C51 1_555 1_555
H54 C51 1_555 1_555
C52 H55 1_555 1_555
C53 N7 1_555 1_555
H56 C53 1_555 1_555
H57 C53 1_555 1_555
H58 C53 1_555 1_555
C54 N7 1_555 1_555
H59 C54 1_555 1_555
H60 C54 1_555 1_555
H61 C54 1_555 1_555
N8 C55 1_555 1_555
O21 C55 1_555 1_555
C55 H62 1_555 1_555
C56 N8 1_555 1_555
H63 C56 1_555 1_555
H64 C56 1_555 1_555
H65 C56 1_555 1_555
C57 N8 1_555 1_555
H66 C57 1_555 1_555
H67 C57 1_555 1_555
H68 C57 1_555 1_555
Cu1A_2 O8B 1_555 1_555
O1B C4B 1_555 1_555
N1B O4B 1_555 1_555
C1B H1B 1_555 1_555
H2B C1B 1_555 1_555
O2B C5B 1_555 1_555
N2B O8B 1_555 1_555
C2B C1B 1_555 1_555
O3B C23B 1_555 1_555
N3B O12B 1_555 1_555
C3B C2B 1_555 1_555
H3B C3B 1_555 1_555
N4B C43B 1_555 1_555
C4B C3B 1_555 1_555
O5B C11B 1_555 1_555
C5B C4B 1_555 1_555
O6B C12B 1_555 1_555
C6B C5B 1_555 1_555
H4B C6B 1_555 1_555
O7B C30B 1_555 1_555
C7B C2B 1_555 1_555
O8A Cu1 1_555 1_555
O8C Cu1 1_555 1_555
C8B C7B 1_555 1_555
H5B C8B 1_555 1_555
H6B C8B 1_555 1_555
O9B C18B 1_555 1_555
C9B C8B 1_555 1_555
O10B C19B 1_555 1_555
C10B C9B 1_555 1_555
H7B C10B 1_555 1_555
O11B C37B 1_555 1_555
C11B C10B 1_555 1_555
O12B Cu1 1_555 1_555
C12B C11B 1_555 1_555
O13B Cu1 1_555 1_555
C13B C12B 1_555 1_555
H8B C13B 1_555 1_555
C14B C9B 1_555 1_555
C15B C14B 1_555 1_555
H9B C15B 1_555 1_555
H10B C15B 1_555 1_555
C16B C15B 1_555 1_555
C17B C16B 1_555 1_555
H11B C17B 1_555 1_555
C18B C17B 1_555 1_555
C19B C18B 1_555 1_555
C20B C19B 1_555 1_555
H12B C20B 1_555 1_555
C21B C1B 1_555 1_555
C22B O1B 1_555 1_555
H13B C22B 1_555 1_555
H14B C22B 1_555 1_555
H15B C22B 1_555 1_555
C23B O2B 1_555 1_555
C24B C23B 1_555 1_555
C25B C24B 1_555 1_555
H16B C25B 1_555 1_555
C26B C25B 1_555 1_555
H17B C26B 1_555 1_555
C27B N1B 1_555 1_555
H18B C27B 1_555 1_555
C28B N1B 1_555 1_555
H19B C28B 1_555 1_555
C29B O5B 1_555 1_555
H20B C29B 1_555 1_555
H21B C29B 1_555 1_555
H22B C29B 1_555 1_555
C30B O6B 1_555 1_555
C31B C30B 1_555 1_555
C32B C31B 1_555 1_555
H23B C32B 1_555 1_555
C33B C32B 1_555 1_555
H24B C33B 1_555 1_555
C34B N2B 1_555 1_555
H25B C34B 1_555 1_555
C35B N2B 1_555 1_555
H26B C35B 1_555 1_555
C36B O9B 1_555 1_555
H27B C36B 1_555 1_555
H28B C36B 1_555 1_555
H29B C36B 1_555 1_555
C37B O10B 1_555 1_555
C38B C37B 1_555 1_555
C39B C38B 1_555 1_555
H30B C39B 1_555 1_555
C40B C39B 1_555 1_555
H31B C40B 1_555 1_555
C41B N3B 1_555 1_555
H32B C41B 1_555 1_555
C42B N3B 1_555 1_555
H33B C42B 1_555 1_555
C43B O13B 1_555 1_555
H34B C43B 1_555 1_555
C44B N4B 1_555 1_555
H35B C44B 1_555 1_555
H36B C44B 1_555 1_555
H37B C44B 1_555 1_555
C45B N4B 1_555 1_555
H38B C45B 1_555 1_555
H39B C45B 1_555 1_555
H40B C45B 1_555 1_555
C6 C7 1_555 1_555
C13 C14 1_555 1_555
C16 C21 1_555 1_555
C20 C21 1_555 1_555
C24 C28 1_555 1_555
C26 C27 1_555 1_555
C31 C35 1_555 1_555
C33 C34 1_555 1_555
C38 C42 1_555 1_555
C40 C41 1_555 1_555
C6B C7B 1_555 1_555
C13B C14B 1_555 1_555
C16B C21B 1_555 1_555
C20B C21B 1_555 1_555
C24B C28B 1_555 1_555
C26B C27B 1_555 1_555
C31B C35B 1_555 1_555
C33B C34B 1_555 1_555
C38B C42B 1_555 1_555
C40B C41B 1_555 1_555

#END
