
#######################################################################
#
#                 Cambridge Crystallographic Data Centre
#                                CCDC 
#
#######################################################################
#
# If this CIF has been generated from an entry in the Cambridge 
# Structural Database, then it will include bibliographic, chemical, 
# crystal, experimental, refinement or atomic coordinate data resulting 
# from the CCDC's data processing and validation procedures.
#
#######################################################################

data_REKPIH
_symmetry_cell_setting           triclinic
_symmetry_space_group_name_H-M   'P -1'
_symmetry_Int_Tables_number      2
_space_group_name_Hall           '-P 1'
loop_
_symmetry_equiv_pos_site_id
_symmetry_equiv_pos_as_xyz
1 x,y,z
2 -x,-y,-z
_cell_length_a                   11.334(5)
_cell_length_b                   12.128(5)
_cell_length_c                   12.363(5)
_cell_angle_alpha                78.532(5)
_cell_angle_beta                 65.259(5)
_cell_angle_gamma                87.870(5)
_cell_volume                     1510.57
loop_
_atom_site_label
_atom_site_type_symbol
_atom_site_fract_x
_atom_site_fract_y
_atom_site_fract_z
La1 La 0.143028(15) 0.428528(13) 0.371733(14)
O1 O 0.8588(2) 1.06065(17) 0.13753(19)
O2 O 0.5275(2) 1.03697(16) 0.35440(19)
O3 O 0.6161(2) 1.09238(17) 0.04206(18)
O4 O 1.0362(2) 0.55838(18) 0.22590(19)
O5 O 0.2337(2) 0.57041(18) 0.4444(2)
O6 O 0.8239(2) 0.78438(17) -0.35607(19)
O7 O 0.8041(2) 0.66137(17) -0.18995(19)
O8 O 1.0002(2) 0.60200(17) 0.40248(18)
O9 O 0.0739(2) 0.65625(18) 0.5744(2)
O10 O 0.3018(2) 0.56803(19) 0.1762(2)
O11 O 0.5131(2) 0.5718(2) 0.0925(2)
O12 O 0.4022(2) 0.43885(18) 0.2475(2)
O16 O 0.2779(2) 0.3239(2) 0.4878(2)
N1 N 0.6674(2) 1.21489(19) 0.1771(2)
N2 N 0.4072(3) 0.5270(2) 0.1707(2)
C1 C 0.8086(3) 1.2503(2) 0.1326(3)
H1 H 0.8159 1.3183 0.1599
H2 H 0.8499 1.2659 0.0444
C2 C 0.8755(3) 1.1564(2) 0.1821(3)
H3 H 0.9672 1.1767 0.1534
H4 H 0.8360 1.1408 0.2703
C3 C 0.8951(3) 0.9580(2) 0.1812(3)
C4 C 0.8876(3) 0.8705(2) 0.1252(3)
H5 H 0.8597 0.8844 0.0631
C5 C 0.9216(3) 0.7637(2) 0.1619(3)
H6 H 0.9175 0.7061 0.1237
C6 C 0.9623(3) 0.7417(2) 0.2563(3)
C7 C 0.9697(3) 0.8291(2) 0.3111(3)
H7 H 0.9967 0.8149 0.3738
C8 C 0.9373(3) 0.9379(2) 0.2738(3)
H8 H 0.9439 0.9961 0.3102
C9 C 1.0009(3) 0.6261(2) 0.2952(3)
C10 C 0.5870(3) 1.2302(2) 0.3051(3)
H9 H 0.5557 1.3058 0.3037
H10 H 0.6402 1.2206 0.3504
C11 C 0.4730(3) 1.1452(2) 0.3666(3)
H11 H 0.4260 1.1488 0.4517
H12 H 0.4138 1.1592 0.3277
C12 C 0.4402(3) 0.9460(2) 0.3933(3)
C13 C 0.3071(3) 0.9515(2) 0.4596(3)
H13 H 0.2720 1.0186 0.4813
C14 C 0.2271(3) 0.8547(2) 0.4929(3)
H14 H 0.1379 0.8576 0.5375
C15 C 0.2781(3) 0.7538(2) 0.4606(3)
C16 C 0.4123(3) 0.7497(2) 0.3948(3)
H15 H 0.4475 0.6829 0.3724
C17 C 0.4933(3) 0.8448(2) 0.3626(3)
H16 H 0.5828 0.8412 0.3208
C18 C 0.1875(3) 0.6520(2) 0.4962(3)
C19 C 0.6096(3) 1.2699(2) 0.0907(3)
H17 H 0.6397 1.3485 0.0602
H18 H 0.5155 1.2664 0.1330
C20 C 0.6507(3) 1.2089(2) -0.0140(3)
H19 H 0.7437 1.2202 -0.0636
H20 H 0.6054 1.2355 -0.0649
C21 C 0.6597(3) 1.0164(2) -0.0334(3)
C22 C 0.7212(3) 1.0467(2) -0.1593(3)
H21 H 0.7325 1.1221 -0.1982
C23 C 0.7654(3) 0.9624(2) -0.2262(3)
H22 H 0.8073 0.9819 -0.3105
C24 C 0.7482(3) 0.8495(2) -0.1694(3)
C25 C 0.6838(3) 0.8201(2) -0.0428(3)
H23 H 0.6714 0.7448 -0.0039
C26 C 0.6385(3) 0.9030(2) 0.0248(3)
H24 H 0.5940 0.8834 0.1090
C27 C 0.7961(3) 0.7604(2) -0.2436(3)
H25 H 0.321(5) 0.366(4) 0.517(5)
H27 H 0.243(5) 0.271(5) 0.543(5)
La1A La 0.856972(15) 0.571472(13) -0.371733(14)
La1_2 La 1.143028(15) 0.428528(13) 0.371733(14)
La1A_2 La 0.856972(15) 0.571472(13) 0.628267(14)
La1A_3 La -0.143028(15) 0.571472(13) 0.628267(14)
O6A O 0.1761(2) 0.21562(17) 0.35607(19)
O7A O 0.1959(2) 0.33863(17) 0.18995(19)
O8_2 O 0.0002(2) 0.60200(17) 0.40248(18)
O8A O -0.0002(2) 0.39800(17) 0.59752(18)
O9A O -0.0739(2) 0.34375(18) 0.4256(2)
O13 O 0.3734(3) 0.4515(3) 0.5896(4)
H29 H 0.332(6) 0.459(5) 0.678(6)
H32 H 0.424(8) 0.471(8) 0.548(8)
O14 O 0.2919(3) 0.4952(2) 0.8210(3)
H26 H 0.360(5) 0.477(4) 0.840(4)
H28 H 0.209(8) 0.463(6) 0.897(7)
O15 O 0.0781(3) 0.4181(2) 0.0409(3)
H30 H 0.115(6) 0.378(6) 0.090(6)
H31 H 0.049(6) 0.475(5) 0.067(6)
loop_
_geom_bond_atom_site_label_1
_geom_bond_atom_site_label_2
_geom_bond_site_symmetry_1
_geom_bond_site_symmetry_2
La1 O5 1_555 1_555
O1 C2 1_555 1_555
O2 C11 1_555 1_555
O3 C20 1_555 1_555
O4 C9 1_555 1_555
O5 C18 1_555 1_555
O6 C27 1_555 1_555
O7 C27 1_555 1_555
O8 C9 1_555 1_555
O9 C18 1_555 1_555
O10 La1 1_555 1_555
O11 N2 1_555 1_555
O12 La1 1_555 1_555
O13 H29 1_555 1_555
O14 H26 1_555 1_555
O15 H30 1_555 1_555
O16 La1 1_555 1_555
N1 C1 1_555 1_555
N2 O10 1_555 1_555
C1 H1 1_555 1_555
H2 C1 1_555 1_555
C2 C1 1_555 1_555
H3 C2 1_555 1_555
H4 C2 1_555 1_555
C3 O1 1_555 1_555
C4 C3 1_555 1_555
H5 C4 1_555 1_555
C5 C4 1_555 1_555
H6 C5 1_555 1_555
C6 C5 1_555 1_555
C7 C6 1_555 1_555
H7 C7 1_555 1_555
C8 C3 1_555 1_555
H8 C8 1_555 1_555
C9 C6 1_555 1_555
C10 N1 1_555 1_555
H9 C10 1_555 1_555
H10 C10 1_555 1_555
C11 C10 1_555 1_555
H11 C11 1_555 1_555
H12 C11 1_555 1_555
C12 O2 1_555 1_555
C13 C12 1_555 1_555
H13 C13 1_555 1_555
C14 C13 1_555 1_555
H14 C14 1_555 1_555
C15 C14 1_555 1_555
C16 C15 1_555 1_555
H15 C16 1_555 1_555
C17 C12 1_555 1_555
H16 C17 1_555 1_555
C18 C15 1_555 1_555
C19 N1 1_555 1_555
H17 C19 1_555 1_555
H18 C19 1_555 1_555
C20 C19 1_555 1_555
H19 C20 1_555 1_555
H20 C20 1_555 1_555
C21 O3 1_555 1_555
C22 C21 1_555 1_555
H21 C22 1_555 1_555
C23 C22 1_555 1_555
H22 C23 1_555 1_555
C24 C23 1_555 1_555
C25 C24 1_555 1_555
H23 C25 1_555 1_555
C26 C21 1_555 1_555
H24 C26 1_555 1_555
C27 C24 1_555 1_555
H25 O16 1_555 1_555
H27 O16 1_555 1_555
H28 O14 1_555 1_555
H31 O15 1_555 1_555
H32 O13 1_555 1_555
La1A O6 1_555 1_555
La1_2 O8 1_555 1_555
La1A_2 O8 1_555 1_555
La1A_3 O9 1_555 1_555
O6A La1 1_555 1_555
O7A La1 1_555 1_555
O8_2 La1 1_555 1_555
O8A La1 1_555 1_555
O9A La1 1_555 1_555
O7 La1A 1_555 1_555
O12 N2 1_555 1_555
C7 C8 1_555 1_555
C16 C17 1_555 1_555
C25 C26 1_555 1_555
La1A_3 O8_2 1_555 1_555
La1A_3 O8A 1_555 1_555

#END
