
#######################################################################
#
#                 Cambridge Crystallographic Data Centre
#                                CCDC 
#
#######################################################################
#
# If this CIF has been generated from an entry in the Cambridge 
# Structural Database, then it will include bibliographic, chemical, 
# crystal, experimental, refinement or atomic coordinate data resulting 
# from the CCDC's data processing and validation procedures.
#
#######################################################################

data_REKPON
_symmetry_cell_setting           triclinic
_symmetry_space_group_name_H-M   'P -1'
_symmetry_Int_Tables_number      2
_space_group_name_Hall           '-P 1'
loop_
_symmetry_equiv_pos_site_id
_symmetry_equiv_pos_as_xyz
1 x,y,z
2 -x,-y,-z
_cell_length_a                   11.133(5)
_cell_length_b                   11.834(5)
_cell_length_c                   12.299(5)
_cell_angle_alpha                80.37(5)
_cell_angle_beta                 67.17(5)
_cell_angle_gamma                89.92(5)
_cell_volume                     1468.78
loop_
_atom_site_label
_atom_site_type_symbol
_atom_site_fract_x
_atom_site_fract_y
_atom_site_fract_z
Pr1 Pr 0.120358(11) 0.441047(9) -0.142344(10)
O1 O -0.53023(15) -0.05446(14) 0.14902(15)
O2 O -0.09697(16) 0.35533(15) -0.08097(15)
O3 O -0.23726(16) 0.43221(15) 0.06999(15)
O4 O -0.62267(16) -0.09522(13) 0.45853(14)
O5 O -0.83640(17) 0.23248(14) 0.84641(14)
O6 O -0.83181(16) 0.34619(14) 0.68256(14)
O7 O -0.86501(16) -0.08434(14) 0.35510(14)
O8 O -1.02548(17) 0.42162(14) 0.25804(15)
O9 O -0.97525(16) 0.38552(14) 0.07574(14)
O10 O 0.37465(16) 0.42648(14) -0.23836(15)
O11 O 0.50690(19) 0.55711(19) -0.38257(19)
N1 N -0.67049(18) -0.23302(16) 0.32247(16)
N2 N 0.3951(2) 0.51715(18) -0.31599(18)
C1 C -0.5882(2) -0.25196(19) 0.19755(19)
H1 H -0.6404 -0.2455 0.1497
H2 H -0.5569 -0.3285 0.2010
C2 C -0.4735(2) -0.16333(19) 0.1406(2)
H3 H -0.4159 -0.1733 0.1833
H4 H -0.4240 -0.1693 0.0574
C3 C -0.4463(2) 0.04167(19) 0.1147(2)
C4 C -0.5028(2) 0.1439(2) 0.1425(2)
H5 H -0.5930 0.1446 0.1812
C5 C -0.4247(2) 0.2441(2) 0.1126(2)
H6 H -0.4619 0.3116 0.1342
C6 C -0.2893(2) 0.24424(19) 0.04984(19)
C7 C -0.2348(2) 0.1420(2) 0.0218(2)
H7 H -0.1450 0.1418 -0.0196
C8 C -0.3119(2) 0.0401(2) 0.0546(2)
H8 H -0.2743 -0.0282 0.0366
C9 C -0.2015(2) 0.3521(2) 0.0106(2)
C10 C -0.6126(2) -0.28015(19) 0.4118(2)
H9 H -0.5180 -0.2735 0.3729
H10 H -0.6408 -0.3608 0.4427
C11 C -0.6566(2) -0.21350(18) 0.5138(2)
H11 H -0.7501 -0.2267 0.5593
H12 H -0.6125 -0.2364 0.5674
C12 C -0.6673(2) -0.01535(19) 0.5318(2)
C13 C -0.7307(2) -0.04325(19) 0.6556(2)
H13 H -0.7430 -0.1194 0.6946
C14 C -0.7757(2) 0.04496(19) 0.7203(2)
H14 H -0.8176 0.0271 0.8034
C15 C -0.7592(2) 0.15878(18) 0.66345(19)
C16 C -0.6931(2) 0.18555(19) 0.5392(2)
H15 H -0.6809 0.2617 0.5003
C17 C -0.6456(2) 0.09930(19) 0.4736(2)
H16 H -0.5994 0.1176 0.3910
C18 C -0.8123(2) 0.25039(19) 0.7354(2)
C19 C -0.8108(2) -0.27580(19) 0.3613(2)
H17 H -0.8534 -0.2905 0.4482
H18 H -0.8151 -0.3469 0.3331
C20 C -0.8791(2) -0.1845(2) 0.3087(2)
H19 H -0.8383 -0.1699 0.2218
H20 H -0.9706 -0.2083 0.3336
C21 C -0.8932(2) 0.02012(19) 0.30632(19)
C22 C -0.8994(2) 0.10756(19) 0.3711(2)
H21 H -0.8852 0.0927 0.4416
C23 C -0.9268(2) 0.21652(19) 0.3299(2)
H22 H -0.9334 0.2744 0.3741
C24 C -0.9448(2) 0.24022(18) 0.2220(2)
C25 C -0.9365(2) 0.1526(2) 0.1572(2)
H23 H -0.9468 0.1682 0.0847
C26 C -0.9130(2) 0.0417(2) 0.2001(2)
H24 H -0.9106 -0.0172 0.1580
C27 C -0.9817(2) 0.35620(19) 0.1838(2)
O12 O 0.29730(17) 0.56522(15) -0.32372(16)
Pr1A Pr -0.120358(11) 0.558953(9) 0.142344(10)
Pr1_2 Pr -0.879642(11) 0.441047(9) 0.857656(10)
Pr1A_2 Pr -1.120358(11) 0.558953(9) 0.142344(10)
Pr1_3 Pr -0.879642(11) 0.441047(9) -0.142344(10)
O3A O 0.23726(16) 0.56779(15) -0.06999(15)
O5_2 O 0.16360(17) 0.23248(14) -0.15359(14)
O6_2 O 0.16819(16) 0.34619(14) -0.31744(14)
O8A O 0.02548(17) 0.57838(14) -0.25804(15)
O9_2 O 0.02475(16) 0.38552(14) 0.07574(14)
O13 O -0.9109(2) 0.41710(17) 0.49176(18)
H25 H -0.8931 0.4116 0.5513
H26 H -0.9555 0.4627 0.5011
O14 O -0.6987(2) 0.4670(2) 0.2809(2)
H27 H -0.7709 0.4246 0.3494
H28 H -0.6172 0.4572 0.2926
O15 O -0.6160(3) 0.4323(3) 0.0461(2)
H29 H -0.6578 0.4612 0.0068
H30 H -0.6569 0.4551 0.1282
loop_
_geom_bond_atom_site_label_1
_geom_bond_atom_site_label_2
_geom_bond_site_symmetry_1
_geom_bond_site_symmetry_2
Pr1 O2 1_555 1_555
O1 C2 1_555 1_555
O2 C9 1_555 1_555
O3 C9 1_555 1_555
O4 C11 1_555 1_555
O5 C18 1_555 1_555
O6 C18 1_555 1_555
O7 C20 1_555 1_555
O8 C27 1_555 1_555
O9 C27 1_555 1_555
O10 Pr1 1_555 1_555
O11 N2 1_555 1_555
N1 C1 1_555 1_555
N2 O10 1_555 1_555
C1 H1 1_555 1_555
H2 C1 1_555 1_555
C2 C1 1_555 1_555
H3 C2 1_555 1_555
H4 C2 1_555 1_555
C3 O1 1_555 1_555
C4 C3 1_555 1_555
H5 C4 1_555 1_555
C5 C4 1_555 1_555
H6 C5 1_555 1_555
C6 C5 1_555 1_555
C7 C6 1_555 1_555
H7 C7 1_555 1_555
C8 C3 1_555 1_555
H8 C8 1_555 1_555
C9 C6 1_555 1_555
C10 N1 1_555 1_555
H9 C10 1_555 1_555
H10 C10 1_555 1_555
C11 C10 1_555 1_555
H11 C11 1_555 1_555
H12 C11 1_555 1_555
C12 O4 1_555 1_555
C13 C12 1_555 1_555
H13 C13 1_555 1_555
C14 C13 1_555 1_555
H14 C14 1_555 1_555
C15 C14 1_555 1_555
C16 C15 1_555 1_555
H15 C16 1_555 1_555
C17 C12 1_555 1_555
H16 C17 1_555 1_555
C18 C15 1_555 1_555
C19 N1 1_555 1_555
H17 C19 1_555 1_555
H18 C19 1_555 1_555
C20 C19 1_555 1_555
H19 C20 1_555 1_555
H20 C20 1_555 1_555
C21 O7 1_555 1_555
C22 C21 1_555 1_555
H21 C22 1_555 1_555
C23 C22 1_555 1_555
H22 C23 1_555 1_555
C24 C23 1_555 1_555
C25 C24 1_555 1_555
H23 C25 1_555 1_555
C26 C21 1_555 1_555
H24 C26 1_555 1_555
C27 C24 1_555 1_555
O12 Pr1 1_555 1_555
O13 H25 1_555 1_555
H26 O13 1_555 1_555
O14 H27 1_555 1_555
H28 O14 1_555 1_555
O15 H29 1_555 1_555
H30 O15 1_555 1_555
Pr1A O3 1_555 1_555
Pr1_2 O5 1_555 1_555
Pr1A_2 O8 1_555 1_555
Pr1_3 O9 1_555 1_555
O3A Pr1 1_555 1_555
O5_2 Pr1 1_555 1_555
O6_2 Pr1 1_555 1_555
O8A Pr1 1_555 1_555
O9_2 Pr1 1_555 1_555
O6 Pr1_2 1_555 1_555
N2 O12 1_555 1_555
C7 C8 1_555 1_555
C16 C17 1_555 1_555
C25 C26 1_555 1_555

#END
