
#######################################################################
#
#                 Cambridge Crystallographic Data Centre
#                                CCDC 
#
#######################################################################
#
# If this CIF has been generated from an entry in the Cambridge 
# Structural Database, then it will include bibliographic, chemical, 
# crystal, experimental, refinement or atomic coordinate data resulting 
# from the CCDC's data processing and validation procedures.
#
#######################################################################

data_REKSIK
_symmetry_cell_setting           triclinic
_symmetry_space_group_name_H-M   'P -1'
_symmetry_Int_Tables_number      2
_space_group_name_Hall           '-P 1'
loop_
_symmetry_equiv_pos_site_id
_symmetry_equiv_pos_as_xyz
1 x,y,z
2 -x,-y,-z
_cell_length_a                   7.786(2)
_cell_length_b                   8.297(3)
_cell_length_c                   14.740(5)
_cell_angle_alpha                86.534(12)
_cell_angle_beta                 76.457(10)
_cell_angle_gamma                80.047(12)
_cell_volume                     911.603
loop_
_atom_site_label
_atom_site_type_symbol
_atom_site_fract_x
_atom_site_fract_y
_atom_site_fract_z
Co1 Co 0.5000 0.0000 0.5000
O1 O 0.36979(16) 0.15680(17) 0.41085(9)
H1 H 0.2607(15) 0.161(3) 0.4172(19)
H2 H 0.416(4) 0.156(4) 0.3543(8)
N1 N 0.12574(18) -0.32806(17) 0.50271(10)
N2 N 0.01429(19) -0.21588(18) 0.56248(11)
N3 N 0.29205(18) -0.15367(17) 0.52429(10)
N4 N 0.3478(2) 0.15152(19) 0.60939(10)
S1 S 0.23916(7) 0.44017(6) 0.71107(4)
C1 C 0.1208(2) -0.1147(2) 0.57379(13)
H3 H 0.0818 -0.0246 0.6123
C2 C 0.2895(2) -0.2887(2) 0.48111(12)
H4 H 0.3881 -0.3476 0.4414
C3 C 0.0604(2) -0.4560(2) 0.46233(12)
H5 H 0.1613 -0.5340 0.4309
H6 H -0.0055 -0.4074 0.4164
C4 C 0.3018(2) 0.2706(2) 0.65209(12)
Co1_2 Co -0.5000 -1.0000 0.5000
O1A O 0.63021(16) -0.15680(17) 0.58915(9)
H1A H 0.7393(15) -0.161(3) 0.5828(19)
H2A H 0.584(4) -0.156(4) 0.6457(8)
N1A N -0.12574(18) -0.67194(17) 0.49729(10)
N2A N -0.01429(19) -0.78412(18) 0.43752(11)
N3A N -0.29205(18) -0.84633(17) 0.47571(10)
N3A_2 N 0.70795(18) 0.15367(17) 0.47571(10)
N4A N 0.6522(2) -0.15152(19) 0.39061(10)
S1A S 0.76084(7) -0.44017(6) 0.28893(4)
C1A C -0.1208(2) -0.8853(2) 0.42621(13)
H3A H -0.0818 -0.9754 0.3877
C2A C -0.2895(2) -0.7113(2) 0.51889(12)
H4A H -0.3881 -0.6524 0.5586
C3A C -0.0604(2) -0.5440(2) 0.53767(12)
H5A H -0.1613 -0.4660 0.5691
H6A H 0.0055 -0.5926 0.5836
C4A C 0.6982(2) -0.2706(2) 0.34791(12)
Co2 Co 0.0000 0.0000 0.0000
N5 N 0.44960(19) -0.29636(18) -0.16005(10)
N6 N 0.4487(2) -0.1711(2) -0.22401(11)
N7 N 0.2458(2) -0.10028(18) -0.09209(10)
N8 N 0.80283(19) -0.35905(17) -0.12140(10)
N9 N 0.7562(2) -0.4180(2) -0.03236(11)
N10 N 0.8920(2) -0.19943(18) -0.03654(10)
N11 N -0.0774(2) 0.13806(19) -0.11383(11)
S2 S -0.23603(8) 0.14971(7) -0.26648(4)
C5 C 0.3244(3) -0.0564(3) -0.17978(14)
H7 H 0.2933 0.0457 -0.2064
C6 C 0.3291(2) -0.2514(2) -0.08242(12)
H8 H 0.3063 -0.3167 -0.0288
C7 C 0.8143(3) -0.3180(2) 0.01557(13)
H9 H 0.8027 -0.3285 0.0798
C8 C 0.8816(2) -0.2301(2) -0.12222(13)
H10 H 0.9239 -0.1693 -0.1754
C9 C 0.5684(2) -0.4522(2) -0.18076(14)
H11 H 0.5459 -0.4986 -0.2349
H12 H 0.5428 -0.5276 -0.1284
C10 C 0.7635(2) -0.4324(2) -0.19978(12)
H13 H 0.8383 -0.5387 -0.2116
H14 H 0.7916 -0.3639 -0.2552
C11 C -0.1432(2) 0.1454(2) -0.17740(12)
Co2_2 Co 1.0000 0.0000 0.0000
Co2_3 Co -1.0000 0.0000 0.0000
N5A N -0.44960(19) 0.29636(18) 0.16005(10)
N6A N -0.4487(2) 0.1711(2) 0.22401(11)
N7A N -0.2458(2) 0.10028(18) 0.09209(10)
N8A N -0.80283(19) 0.35905(17) 0.12140(10)
N9A N -0.7562(2) 0.4180(2) 0.03236(11)
N10A N -0.8920(2) 0.19943(18) 0.03654(10)
N10_2 N -0.1080(2) -0.19943(18) -0.03654(10)
N10A_2 N 0.1080(2) 0.19943(18) 0.03654(10)
N11A N 0.0774(2) -0.13806(19) 0.11383(11)
S2A S 0.23603(8) -0.14971(7) 0.26648(4)
C5A C -0.3244(3) 0.0564(3) 0.17978(14)
H7A H -0.2933 -0.0457 0.2064
C6A C -0.3291(2) 0.2514(2) 0.08242(12)
H8A H -0.3063 0.3167 0.0288
C7A C -0.8143(3) 0.3180(2) -0.01557(13)
H9A H -0.8027 0.3285 -0.0798
C8A C -0.8816(2) 0.2301(2) 0.12222(13)
H10A H -0.9239 0.1693 0.1754
C9A C -0.5684(2) 0.4522(2) 0.18076(14)
H11A H -0.5459 0.4986 0.2349
H12A H -0.5428 0.5276 0.1284
C10A C -0.7635(2) 0.4324(2) 0.19978(12)
H13A H -0.8383 0.5387 0.2116
H14A H -0.7916 0.3639 0.2552
C11A C 0.1432(2) -0.1454(2) 0.17740(12)
loop_
_geom_bond_atom_site_label_1
_geom_bond_atom_site_label_2
_geom_bond_site_symmetry_1
_geom_bond_site_symmetry_2
Co1 O1 1_555 1_555
Co2 N7 1_555 1_555
O1 H1 1_555 1_555
H2 O1 1_555 1_555
N1 N2 1_555 1_555
N2 C1 1_555 1_555
N3 Co1 1_555 1_555
N4 Co1 1_555 1_555
N5 N6 1_555 1_555
N6 C5 1_555 1_555
N7 C5 1_555 1_555
N8 N9 1_555 1_555
N9 C7 1_555 1_555
N10 C7 1_555 1_555
N11 Co2 1_555 1_555
S1 C4 1_555 1_555
S2 C11 1_555 1_555
C1 N3 1_555 1_555
H3 C1 1_555 1_555
C2 N1 1_555 1_555
H4 C2 1_555 1_555
C3 N1 1_555 1_555
H5 C3 1_555 1_555
H6 C3 1_555 1_555
C4 N4 1_555 1_555
C5 H7 1_555 1_555
C6 N5 1_555 1_555
H8 C6 1_555 1_555
C7 H9 1_555 1_555
C8 N8 1_555 1_555
H10 C8 1_555 1_555
C9 N5 1_555 1_555
H11 C9 1_555 1_555
H12 C9 1_555 1_555
C10 N8 1_555 1_555
H13 C10 1_555 1_555
H14 C10 1_555 1_555
C11 N11 1_555 1_555
Co1_2 N3A 1_555 1_555
Co2_2 N10 1_555 1_555
Co2_3 N10A 1_555 1_555
O1A Co1 1_555 1_555
H1A O1A 1_555 1_555
H2A O1A 1_555 1_555
N1A N2A 1_555 1_555
N2A C1A 1_555 1_555
N3A C1A 1_555 1_555
N3A_2 Co1 1_555 1_555
N4A Co1 1_555 1_555
N5A N6A 1_555 1_555
N6A C5A 1_555 1_555
N7A Co2 1_555 1_555
N8A N9A 1_555 1_555
N9A C7A 1_555 1_555
N10A C7A 1_555 1_555
N10_2 Co2 1_555 1_555
N10A_2 Co2 1_555 1_555
N11A Co2 1_555 1_555
S1A C4A 1_555 1_555
S2A C11A 1_555 1_555
C1A H3A 1_555 1_555
C2A N1A 1_555 1_555
H4A C2A 1_555 1_555
C3A C3 1_555 1_555
H5A C3A 1_555 1_555
H6A C3A 1_555 1_555
C4A N4A 1_555 1_555
C5A N7A 1_555 1_555
H7A C5A 1_555 1_555
C6A N5A 1_555 1_555
H8A C6A 1_555 1_555
C7A H9A 1_555 1_555
C8A N8A 1_555 1_555
H10A C8A 1_555 1_555
C9A N5A 1_555 1_555
H11A C9A 1_555 1_555
H12A C9A 1_555 1_555
C10A N8A 1_555 1_555
H13A C10A 1_555 1_555
H14A C10A 1_555 1_555
C11A N11A 1_555 1_555
N3 C2 1_555 1_555
N7 C6 1_555 1_555
N10 C8 1_555 1_555
C9 C10 1_555 1_555
N1A C3A 1_555 1_555
N3A C2A 1_555 1_555
N7A C6A 1_555 1_555
N10A C8A 1_555 1_555
C9A C10A 1_555 1_555

#END
