
#######################################################################
#
#                 Cambridge Crystallographic Data Centre
#                                CCDC 
#
#######################################################################
#
# If this CIF has been generated from an entry in the Cambridge 
# Structural Database, then it will include bibliographic, chemical, 
# crystal, experimental, refinement or atomic coordinate data resulting 
# from the CCDC's data processing and validation procedures.
#
#######################################################################

data_REKSAD
_symmetry_cell_setting           triclinic
_symmetry_space_group_name_H-M   'P -1'
_symmetry_Int_Tables_number      2
_space_group_name_Hall           '-P 1'
loop_
_symmetry_equiv_pos_site_id
_symmetry_equiv_pos_as_xyz
1 x,y,z
2 -x,-y,-z
_cell_length_a                   13.2532(13)
_cell_length_b                   13.9779(13)
_cell_length_c                   15.8587(15)
_cell_angle_alpha                72.8260(10)
_cell_angle_beta                 75.127(2)
_cell_angle_gamma                78.488(2)
_cell_volume                     2688.34
loop_
_atom_site_label
_atom_site_type_symbol
_atom_site_fract_x
_atom_site_fract_y
_atom_site_fract_z
U1 U 0.17687(2) 0.56991(2) 0.372696(19)
U2 U 0.43627(2) 0.84620(2) 0.134406(19)
Zn1 Zn 0.00312(7) 0.79815(7) 0.42914(6)
Zn2 Zn 0.25598(7) 0.88435(7) -0.02062(6)
As1 As -0.03256(7) 0.40005(6) 0.40617(5)
As2 As 0.26191(7) 0.80416(6) 0.36285(5)
As3 As 0.28254(7) 0.66257(6) 0.12162(5)
As4 As 0.50485(6) 0.88908(6) -0.10282(5)
O2 O 0.0673(4) 0.6707(4) 0.3676(3)
O3 O 0.2874(4) 0.4730(4) 0.3816(3)
O4 O 0.3373(4) 0.9183(4) 0.0719(3)
O5 O 0.5334(4) 0.7718(4) 0.1936(3)
O6 O 0.0760(5) 0.4554(4) 0.3848(3)
O7 O -0.0054(4) 0.2762(4) 0.4464(3)
O8 O -0.1324(5) 0.4531(4) 0.4748(3)
O9 O 0.1368(4) 0.8550(4) 0.3880(4)
O10 O 0.2787(4) 0.6798(4) 0.3688(4)
O11 O 0.3155(5) 0.8655(4) 0.2578(3)
O12 O 0.2096(5) 0.6059(4) 0.2204(3)
O13 O 0.3862(4) 0.6986(4) 0.1405(3)
O14 O 0.2124(4) 0.7614(4) 0.0647(3)
O15 O 0.5434(4) 0.8410(4) -0.0030(3)
O16 O 0.3908(4) 0.8537(4) -0.0995(3)
O17 O 0.4988(4) 1.0156(4) -0.1314(3)
N1 N -0.0761(5) 0.9504(5) 0.3964(4)
N2 N -0.1402(5) 0.7786(5) 0.4030(4)
N3 N 0.1249(6) 0.8915(6) -0.0789(4)
N4 N 0.2088(5) 1.0422(5) -0.0601(4)
C1 C -0.0764(7) 0.4264(6) 0.2941(5)
C2 C -0.1796(8) 0.4333(8) 0.2935(6)
H1 H -0.2292 0.4260 0.3476
C3 C -0.2116(10) 0.4506(10) 0.2148(8)
H2 H -0.2826 0.4546 0.2151
C4 C -0.1407(13) 0.4616(11) 0.1374(9)
H3 H -0.1626 0.4728 0.0837
C5 C -0.0388(13) 0.4570(12) 0.1354(7)
H4 H 0.0088 0.4656 0.0801
C6 C -0.0012(9) 0.4394(10) 0.2152(6)
H5 H 0.0697 0.4367 0.2144
C7 C 0.3422(7) 0.8165(7) 0.4415(5)
C8 C 0.3500(8) 0.9108(9) 0.4479(6)
H6 H 0.3135 0.9682 0.4159
C9 C 0.4130(10) 0.9197(11) 0.5026(8)
H7 H 0.4209 0.9828 0.5064
C10 C 0.4623(11) 0.8343(13) 0.5500(9)
H8 H 0.5050 0.8402 0.5860
C11 C 0.4527(11) 0.7421(12) 0.5477(9)
H9 H 0.4857 0.6852 0.5833
C12 C 0.3925(9) 0.7319(9) 0.4912(7)
H10 H 0.3867 0.6681 0.4874
C13 C 0.3278(6) 0.5660(6) 0.0519(5)
C14 C 0.3834(7) 0.5934(7) -0.0363(6)
H11 H 0.3994 0.6592 -0.0609
C15 C 0.4154(7) 0.5253(7) -0.0879(6)
H12 H 0.4557 0.5436 -0.1461
C16 C 0.3874(7) 0.4302(7) -0.0530(7)
H13 H 0.4067 0.3845 -0.0885
C17 C 0.3315(8) 0.4017(7) 0.0335(7)
H14 H 0.3140 0.3364 0.0568
C18 C 0.3010(7) 0.4686(6) 0.0863(6)
H15 H 0.2623 0.4490 0.1450
C19 C 0.6045(7) 0.8375(6) -0.1942(5)
C20 C 0.5829(8) 0.7668(7) -0.2288(6)
H16 H 0.5174 0.7440 -0.2083
C21 C 0.6564(9) 0.7292(8) -0.2932(6)
H17 H 0.6406 0.6812 -0.3161
C22 C 0.7534(9) 0.7619(9) -0.3243(7)
H18 H 0.8043 0.7355 -0.3671
C23 C 0.7740(9) 0.8349(9) -0.2907(8)
H19 H 0.8387 0.8591 -0.3129
C24 C 0.7016(8) 0.8729(8) -0.2253(6)
H20 H 0.7173 0.9210 -0.2025
C25 C -0.1750(7) 0.6940(7) 0.4105(6)
H21 H -0.1369 0.6333 0.4355
C26 C -0.2654(8) 0.6900(7) 0.3834(6)
H22 H -0.2877 0.6281 0.3923
C27 C -0.3209(7) 0.7770(7) 0.3437(6)
H23 H -0.3802 0.7750 0.3235
C28 C -0.2885(7) 0.8691(7) 0.3337(5)
C29 C -0.1987(6) 0.8662(6) 0.3661(5)
C30 C -0.3378(7) 0.9648(7) 0.2917(6)
H24 H -0.3956 0.9678 0.2675
C31 C -0.3041(7) 1.0501(7) 0.2858(5)
H25 H -0.3378 1.1111 0.2562
C32 C -0.2169(7) 1.0511(6) 0.3237(5)
C33 C -0.1802(8) 1.1395(7) 0.3240(6)
H26 H -0.2135 1.2031 0.2992
C34 C -0.0955(8) 1.1302(7) 0.3611(6)
H27 H -0.0726 1.1874 0.3646
C35 C -0.0433(8) 1.0340(6) 0.3939(5)
H28 H 0.0174 1.0291 0.4149
C36 C -0.1619(6) 0.9577(6) 0.3622(5)
C37 C 0.0824(9) 0.8156(9) -0.0816(6)
H29 H 0.1126 0.7498 -0.0592
C38 C -0.0086(10) 0.8319(11) -0.1181(8)
H30 H -0.0390 0.7777 -0.1188
C39 C -0.0513(10) 0.9305(14) -0.1527(7)
H31 H -0.1106 0.9418 -0.1772
C40 C -0.0082(8) 1.0133(11) -0.1520(6)
C41 C 0.0821(8) 0.9885(9) -0.1108(5)
C42 C 0.1287(8) 1.0672(8) -0.1034(5)
C43 C 0.0882(8) 1.1693(9) -0.1392(6)
C44 C 0.0005(10) 1.1881(12) -0.1815(7)
H32 H -0.0248 1.2548 -0.2063
C45 C -0.0462(10) 1.1170(12) -0.1873(7)
H33 H -0.1040 1.1338 -0.2145
C46 C 0.1374(9) 1.2420(9) -0.1303(7)
H34 H 0.1136 1.3098 -0.1529
C47 C 0.2204(9) 1.2165(7) -0.0890(7)
H35 H 0.2543 1.2664 -0.0846
C48 C 0.2543(7) 1.1159(7) -0.0537(6)
H36 H 0.3104 1.0991 -0.0245
U1A U -0.17687(2) 0.43009(2) 0.627304(19)
U2A U 0.56373(2) 1.15380(2) -0.134406(19)
Zn1A Zn -0.00312(7) 0.20185(7) 0.57086(6)
O7A O 0.0054(4) 0.7238(4) 0.5536(3)
O8A O 0.1324(5) 0.5469(4) 0.5252(3)
O17A O 0.5012(4) 0.9844(4) 0.1314(3)
O1 O 0.5139(9) 0.5449(9) 0.3110(8)
loop_
_geom_bond_atom_site_label_1
_geom_bond_atom_site_label_2
_geom_bond_site_symmetry_1
_geom_bond_site_symmetry_2
U1 O2 1_555 1_555
U2 O4 1_555 1_555
Zn1 O2 1_555 1_555
Zn2 O4 1_555 1_555
As1 O6 1_555 1_555
As2 O9 1_555 1_555
As3 O12 1_555 1_555
As4 O15 1_555 1_555
O3 U1 1_555 1_555
O5 U2 1_555 1_555
O6 U1 1_555 1_555
O7 As1 1_555 1_555
O8 As1 1_555 1_555
O9 Zn1 1_555 1_555
O10 U1 1_555 1_555
O11 U2 1_555 1_555
O12 U1 1_555 1_555
O13 U2 1_555 1_555
O14 Zn2 1_555 1_555
O15 U2 1_555 1_555
O16 Zn2 1_555 1_555
O17 As4 1_555 1_555
N1 Zn1 1_555 1_555
N2 Zn1 1_555 1_555
N3 Zn2 1_555 1_555
N4 Zn2 1_555 1_555
C1 As1 1_555 1_555
C2 C1 1_555 1_555
H1 C2 1_555 1_555
C3 C2 1_555 1_555
H2 C3 1_555 1_555
C4 C3 1_555 1_555
H3 C4 1_555 1_555
C5 C4 1_555 1_555
H4 C5 1_555 1_555
C6 C1 1_555 1_555
H5 C6 1_555 1_555
C7 As2 1_555 1_555
C8 C7 1_555 1_555
H6 C8 1_555 1_555
C9 C8 1_555 1_555
H7 C9 1_555 1_555
C10 C9 1_555 1_555
H8 C10 1_555 1_555
C11 C10 1_555 1_555
H9 C11 1_555 1_555
C12 C7 1_555 1_555
H10 C12 1_555 1_555
C13 As3 1_555 1_555
C14 C13 1_555 1_555
H11 C14 1_555 1_555
C15 C14 1_555 1_555
H12 C15 1_555 1_555
C16 C15 1_555 1_555
H13 C16 1_555 1_555
C17 C16 1_555 1_555
H14 C17 1_555 1_555
C18 C13 1_555 1_555
H15 C18 1_555 1_555
C19 As4 1_555 1_555
C20 C19 1_555 1_555
H16 C20 1_555 1_555
C21 C20 1_555 1_555
H17 C21 1_555 1_555
C22 C21 1_555 1_555
H18 C22 1_555 1_555
C23 C22 1_555 1_555
H19 C23 1_555 1_555
C24 C19 1_555 1_555
H20 C24 1_555 1_555
C25 N2 1_555 1_555
H21 C25 1_555 1_555
C26 C25 1_555 1_555
H22 C26 1_555 1_555
C27 C26 1_555 1_555
H23 C27 1_555 1_555
C28 C27 1_555 1_555
C29 N2 1_555 1_555
C30 C28 1_555 1_555
H24 C30 1_555 1_555
C31 C30 1_555 1_555
H25 C31 1_555 1_555
C32 C31 1_555 1_555
C33 C32 1_555 1_555
H26 C33 1_555 1_555
C34 C33 1_555 1_555
H27 C34 1_555 1_555
C35 N1 1_555 1_555
H28 C35 1_555 1_555
C36 N1 1_555 1_555
C37 N3 1_555 1_555
H29 C37 1_555 1_555
C38 C37 1_555 1_555
H30 C38 1_555 1_555
C39 C38 1_555 1_555
H31 C39 1_555 1_555
C40 C39 1_555 1_555
C41 N3 1_555 1_555
C42 N4 1_555 1_555
C43 C42 1_555 1_555
C44 C43 1_555 1_555
H32 C44 1_555 1_555
C45 C40 1_555 1_555
H33 C45 1_555 1_555
C46 C43 1_555 1_555
H34 C46 1_555 1_555
C47 C46 1_555 1_555
H35 C47 1_555 1_555
C48 N4 1_555 1_555
H36 C48 1_555 1_555
U1A O8 1_555 1_555
U2A O17 1_555 1_555
Zn1A O7 1_555 1_555
O7A Zn1 1_555 1_555
O8A U1 1_555 1_555
O17A U2 1_555 1_555
As2 O10 1_555 1_555
As2 O11 1_555 1_555
As3 O13 1_555 1_555
As3 O14 1_555 1_555
As4 O16 1_555 1_555
C5 C6 1_555 1_555
C11 C12 1_555 1_555
C17 C18 1_555 1_555
C23 C24 1_555 1_555
C28 C29 1_555 1_555
C29 C36 1_555 1_555
C32 C36 1_555 1_555
C34 C35 1_555 1_555
C40 C41 1_555 1_555
C41 C42 1_555 1_555
C44 C45 1_555 1_555
C47 C48 1_555 1_555

#END
