
#######################################################################
#
#                 Cambridge Crystallographic Data Centre
#                                CCDC 
#
#######################################################################
#
# If this CIF has been generated from an entry in the Cambridge 
# Structural Database, then it will include bibliographic, chemical, 
# crystal, experimental, refinement or atomic coordinate data resulting 
# from the CCDC's data processing and validation procedures.
#
#######################################################################

data_REKSAC
_symmetry_cell_setting           triclinic
_symmetry_space_group_name_H-M   'P -1'
_symmetry_Int_Tables_number      2
_space_group_name_Hall           '-P 1'
loop_
_symmetry_equiv_pos_site_id
_symmetry_equiv_pos_as_xyz
1 x,y,z
2 -x,-y,-z
_cell_length_a                   6.438(4)
_cell_length_b                   7.229(4)
_cell_length_c                   9.310(6)
_cell_angle_alpha                110.766(17)
_cell_angle_beta                 99.217(16)
_cell_angle_gamma                99.84(2)
_cell_volume                     387.552
loop_
_atom_site_label
_atom_site_type_symbol
_atom_site_fract_x
_atom_site_fract_y
_atom_site_fract_z
Co1 Co 0.0000 0.5000 0.5000
N1 N 0.3457(2) 0.4222(2) 0.13128(14)
N2 N 0.1596(2) 0.2765(2) 0.04194(16)
N3 N 0.1338(2) 0.4295(2) 0.29274(15)
N4 N -0.2828(2) 0.2756(2) 0.36454(17)
O1 O -0.5174(3) -0.0576(2) 0.2405(2)
O2 O 0.13348(19) 0.27113(17) 0.54803(13)
C1 C 0.0378(3) 0.2875(2) 0.14442(18)
H1 H -0.1019 0.2051 0.1175
C2 C 0.3283(2) 0.5106(2) 0.27942(17)
H2 H 0.4356 0.6135 0.3613
C3 C 0.5299(2) 0.4584(3) 0.06313(17)
H3 H 0.5719 0.3317 0.0164
H4 H 0.6526 0.5555 0.1457
C4 C -0.3975(3) 0.1127(3) 0.3040(2)
H5 H 0.072(4) 0.225(4) 0.605(3)
H6 H 0.118(4) 0.175(3) 0.4613(17)
Co1_2 Co 1.0000 0.5000 -0.5000
N1A N 0.6543(2) 0.5778(2) -0.13128(14)
N2A N 0.8404(2) 0.7235(2) -0.04194(16)
N3A N 0.8662(2) 0.5705(2) -0.29274(15)
N3A_2 N -0.1338(2) 0.5705(2) 0.70726(15)
N4A N 0.2828(2) 0.7244(2) 0.63546(17)
O1A O 0.5174(3) 1.0576(2) 0.7595(2)
O2A O -0.13348(19) 0.72887(17) 0.45197(13)
C1A C 0.9622(3) 0.7125(2) -0.14442(18)
H1A H 1.1019 0.7949 -0.1175
C2A C 0.6717(2) 0.4894(2) -0.27942(17)
H2A H 0.5644 0.3865 -0.3613
C3A C 0.4701(2) 0.5416(3) -0.06313(17)
H3A H 0.4281 0.6683 -0.0164
H4A H 0.3474 0.4445 -0.1457
C4A C 0.3975(3) 0.8873(3) 0.6960(2)
H5A H -0.072(4) 0.775(4) 0.395(3)
H6A H -0.118(4) 0.825(3) 0.5387(17)
O3 O 0.0706(2) 0.91164(19) 0.28275(13)
H7 H -0.016(3) 0.875(4) 0.1973(18)
H8 H 0.195(2) 0.916(4) 0.272(3)
loop_
_geom_bond_atom_site_label_1
_geom_bond_atom_site_label_2
_geom_bond_site_symmetry_1
_geom_bond_site_symmetry_2
Co1 N3 1_555 1_555
N1 N2 1_555 1_555
N2 C1 1_555 1_555
N3 C1 1_555 1_555
N4 Co1 1_555 1_555
O1 C4 1_555 1_555
O2 Co1 1_555 1_555
O3 H7 1_555 1_555
C1 H1 1_555 1_555
C2 N1 1_555 1_555
H2 C2 1_555 1_555
C3 N1 1_555 1_555
H3 C3 1_555 1_555
H4 C3 1_555 1_555
C4 N4 1_555 1_555
H5 O2 1_555 1_555
H6 O2 1_555 1_555
H8 O3 1_555 1_555
Co1_2 N3A 1_555 1_555
N1A N2A 1_555 1_555
N2A C1A 1_555 1_555
N3A C1A 1_555 1_555
N3A_2 Co1 1_555 1_555
N4A Co1 1_555 1_555
O1A C4A 1_555 1_555
O2A Co1 1_555 1_555
C1A H1A 1_555 1_555
C2A N1A 1_555 1_555
H2A C2A 1_555 1_555
C3A C3 1_555 1_555
H3A C3A 1_555 1_555
H4A C3A 1_555 1_555
C4A N4A 1_555 1_555
H5A O2A 1_555 1_555
H6A O2A 1_555 1_555
N3 C2 1_555 1_555
N1A C3A 1_555 1_555
N3A C2A 1_555 1_555

#END
