
#######################################################################
#
#                 Cambridge Crystallographic Data Centre
#                                CCDC 
#
#######################################################################
#
# If this CIF has been generated from an entry in the Cambridge 
# Structural Database, then it will include bibliographic, chemical, 
# crystal, experimental, refinement or atomic coordinate data resulting 
# from the CCDC's data processing and validation procedures.
#
#######################################################################

data_REKVOU
_symmetry_cell_setting           monoclinic
_symmetry_space_group_name_H-M   'P 21/c'
_symmetry_Int_Tables_number      14
_space_group_name_Hall           '-P 2ybc'
loop_
_symmetry_equiv_pos_site_id
_symmetry_equiv_pos_as_xyz
1 x,y,z
2 -x,1/2+y,1/2-z
3 -x,-y,-z
4 x,1/2-y,1/2+z
_cell_length_a                   10.6289(7)
_cell_length_b                   7.4233(5)
_cell_length_c                   20.4411(13)
_cell_angle_alpha                90
_cell_angle_beta                 96.6860(10)
_cell_angle_gamma                90
_cell_volume                     1601.87
loop_
_atom_site_label
_atom_site_type_symbol
_atom_site_fract_x
_atom_site_fract_y
_atom_site_fract_z
U1 U 0.25397(2) 0.70239(3) 0.126586(12)
U2 U 0.46824(2) 0.97321(3) 0.234315(11)
O1 O 0.3610(4) 0.9779(6) 0.2949(2)
O2 O 0.2822(4) 0.9409(5) 0.1427(2)
O3 O 0.3994(4) 0.6752(6) 0.2061(2)
O4 O 0.5710(4) 0.9668(6) 0.1722(2)
O5 O 0.2271(5) 0.4662(6) 0.1141(2)
O6 O 0.2386(5) 0.7524(7) 0.0077(2)
N1 N 0.1104(5) 0.6937(7) 0.2189(3)
O7 O 0.4252(5) 0.6884(7) 0.0596(2)
N2 N 0.0124(5) 0.7495(8) 0.0931(3)
C1 C -0.0165(6) 0.7105(8) 0.2071(3)
C2 C -0.0714(6) 0.7323(8) 0.1378(3)
C3 C 0.1620(7) 0.6777(9) 0.2819(3)
H1 H 0.2512 0.6634 0.2905
C4 C 0.0924(7) 0.6810(9) 0.3345(4)
H2 H 0.1327 0.6727 0.3784
C5 C 0.3559(7) 0.7208(9) 0.0066(4)
C6 C -0.2000(7) 0.7380(10) 0.1186(4)
H3 H -0.2572 0.7193 0.1503
C7 C -0.0370(7) 0.6967(9) 0.3220(4)
H4 H -0.0881 0.6969 0.3571
C8 C -0.0335(7) 0.7786(10) 0.0295(3)
H5 H 0.0245 0.7900 -0.0023
C9 C -0.0913(7) 0.7122(10) 0.2578(4)
H6 H -0.1805 0.7242 0.2484
C10 C 0.4116(8) 0.7251(12) -0.0569(4)
H7 H 0.3683 0.8167 -0.0858
H8 H 0.4014 0.6069 -0.0782
H9 H 0.5020 0.7545 -0.0485
O8 O 0.5959(4) 0.7668(6) 0.2959(2)
C11 C -0.1614(7) 0.7924(10) 0.0091(4)
H10 H -0.1906 0.8169 -0.0357
C12 C -0.2463(7) 0.7704(10) 0.0543(4)
H11 H -0.3349 0.7774 0.0413
U2A U 0.53176(2) 0.47321(3) 0.265685(11)
O3A O 0.6006(4) 1.1752(6) 0.2939(2)
O8A O 0.4041(4) 1.2668(6) 0.2041(2)
loop_
_geom_bond_atom_site_label_1
_geom_bond_atom_site_label_2
_geom_bond_site_symmetry_1
_geom_bond_site_symmetry_2
U1 O2 1_555 1_555
U2 O1 1_555 1_555
O2 U2 1_555 1_555
O3 U1 1_555 1_555
O4 U2 1_555 1_555
O5 U1 1_555 1_555
O6 U1 1_555 1_555
N1 U1 1_555 1_555
O7 U1 1_555 1_555
N2 U1 1_555 1_555
C1 N1 1_555 1_555
C2 N2 1_555 1_555
C3 N1 1_555 1_555
H1 C3 1_555 1_555
C4 C3 1_555 1_555
H2 C4 1_555 1_555
C5 O6 1_555 1_555
C6 C2 1_555 1_555
H3 C6 1_555 1_555
C7 C4 1_555 1_555
H4 C7 1_555 1_555
C8 N2 1_555 1_555
H5 C8 1_555 1_555
C9 C1 1_555 1_555
H6 C9 1_555 1_555
C10 C5 1_555 1_555
H7 C10 1_555 1_555
H8 C10 1_555 1_555
H9 C10 1_555 1_555
O8 U2 1_555 1_555
C11 C8 1_555 1_555
H10 C11 1_555 1_555
C12 C6 1_555 1_555
H11 C12 1_555 1_555
U2A O3 1_555 1_555
O3A U2 1_555 1_555
O8A U2 1_555 1_555
U2 O3 1_555 1_555
O7 C5 1_555 1_555
C1 C2 1_555 1_555
C7 C9 1_555 1_555
O8 U2A 1_555 1_555
C11 C12 1_555 1_555

#END
