
#######################################################################
#
#                 Cambridge Crystallographic Data Centre
#                                CCDC 
#
#######################################################################
#
# If this CIF has been generated from an entry in the Cambridge 
# Structural Database, then it will include bibliographic, chemical, 
# crystal, experimental, refinement or atomic coordinate data resulting 
# from the CCDC's data processing and validation procedures.
#
#######################################################################

data_RELDOD
_symmetry_cell_setting           monoclinic
_symmetry_space_group_name_H-M   'P 21'
_symmetry_Int_Tables_number      4
_space_group_name_Hall           'P 2yb'
loop_
_symmetry_equiv_pos_site_id
_symmetry_equiv_pos_as_xyz
1 x,y,z
2 -x,1/2+y,-z
_cell_length_a                   9.8077(11)
_cell_length_b                   13.8730(14)
_cell_length_c                   15.5259(17)
_cell_angle_alpha                90
_cell_angle_beta                 89.975(2)
_cell_angle_gamma                90
_cell_volume                     2112.49
loop_
_atom_site_label
_atom_site_type_symbol
_atom_site_fract_x
_atom_site_fract_y
_atom_site_fract_z
C1 C 1.2235(19) 0.8819(9) 1.1454(10)
C2 C 1.1044(19) 0.3858(10) 1.6496(11)
Au1 Au 1.22247(8) 0.79460(6) 1.25012(4)
Au2 Au 1.22253(8) 1.29462(6) 1.24986(4)
Au3 Au 1.09443(8) 0.79470(6) 1.74997(4)
Au4 Au 1.09444(8) 0.29465(6) 1.75008(4)
Fe1 Fe 1.16209(10) 0.5444(3) 1.50031(5)
Fe2 Fe 1.16230(10) 1.0442(3) 0.99974(5)
N1 N 1.1141(18) 0.6539(10) 1.5945(9)
N2 N 1.1122(18) 0.4362(10) 1.5934(8)
N3 N 1.2186(17) 0.6580(9) 1.4111(7)
N4 N 1.2096(18) 0.4373(10) 1.4032(8)
C3 C 1.1027(17) 0.7063(9) 1.6514(7)
N5 N 1.3730(6) 0.5490(11) 1.5477(3)
N6 N 1.1111(18) 0.9347(10) 0.9095(8)
N7 N 0.9545(6) 0.5502(12) 1.4512(3)
C4 C 1.223(2) 0.7042(10) 1.3581(10)
C5 C 1.099(2) 0.8840(10) 0.8484(10)
N8 N 1.3730(6) 1.0446(12) 0.9525(3)
N9 N 1.2134(19) 0.9300(9) 1.0911(8)
N10 N 1.1143(18) 1.1529(10) 0.9035(8)
N11 N 1.2149(18) 1.1500(10) 1.0958(8)
C6 C 1.4408(19) 1.1273(12) 0.9322(8)
H1 H 1.3966 1.1858 0.9409
C7 C 1.4344(18) 0.4675(12) 1.5616(8)
H2 H 1.3896 0.4102 1.5491
C8 C 1.439(2) 0.9646(12) 0.9400(8)
H3 H 1.3960 0.9067 0.9537
C9 C 1.4431(18) 0.6292(11) 1.5675(8)
H4 H 1.3993 0.6878 1.5587
N12 N 0.9532(6) 1.0395(13) 1.0495(3)
C10 C 1.6376(7) 0.5521(14) 1.6149(4)
C11 C 1.6396(7) 1.0469(14) 0.8844(4)
C12 C 1.566(2) 1.1287(13) 0.9009(8)
H5 H 1.6064 1.1881 0.8896
C13 C 1.5705(18) 0.4643(13) 1.5961(8)
H6 H 1.6135 0.4056 1.6058
C14 C 1.575(2) 0.9625(13) 0.9057(8)
H7 H 1.6187 0.9038 0.8978
C15 C 1.5682(18) 0.6326(12) 1.5983(8)
H8 H 1.6087 0.6921 1.6085
C16 C 1.7803(8) 0.5524(15) 1.6517(5)
H9 H 1.7781 0.5287 1.7098
H10 H 1.8155 0.6169 1.6514
H11 H 1.8379 0.5117 1.6174
C17 C 0.8859(17) 0.9529(10) 1.0614(8)
H12 H 0.9281 0.8963 1.0435
C18 C 1.7785(8) 1.0478(19) 0.8477(5)
H13 H 1.8368 1.0074 0.8818
H14 H 1.8132 1.1125 0.8479
H15 H 1.7758 1.0241 0.7897
C19 C 0.8932(15) 0.4726(12) 1.4245(9)
H16 H 0.9391 0.4146 1.4323
C20 C 1.221(2) 1.2064(11) 1.1524(10)
C21 C 1.1058(19) 1.2042(11) 0.8497(9)
C22 C 0.6961(10) 0.5443(18) 1.3741(5)
C23 C 0.7579(16) 1.1123(12) 1.1145(8)
H17 H 0.7166 1.1695 1.1319
C24 C 0.6967(11) 1.0255(12) 1.1253(6)
C25 C 0.7536(15) 0.6364(14) 1.4023(8)
H18 H 0.7055 0.6936 1.3951
C26 C 0.7695(14) 0.4679(15) 1.3864(9)
H19 H 0.7362 0.4084 1.3687
C27 C 0.7634(14) 0.9476(12) 1.0975(7)
H20 H 0.7227 0.8875 1.1037
C28 C 0.5530(8) 0.5288(19) 1.3298(7)
H21 H 0.5632 0.5325 1.2683
H22 H 0.4909 0.5779 1.3488
H23 H 0.5178 0.4666 1.3452
C29 C 1.2202(18) 0.3803(10) 1.3455(8)
C30 C 0.8906(19) 1.1110(11) 1.0746(8)
H24 H 0.9332 1.1703 1.0670
C31 C 0.8812(16) 0.6359(12) 1.4399(8)
H25 H 0.9193 0.6938 1.4582
C32 C 0.5505(9) 1.0148(15) 1.1691(7)
H26 H 0.4815 1.0129 1.1253
H27 H 0.5343 1.0689 1.2064
H28 H 0.5475 0.9563 1.2021
Au2_2 Au 1.22253(8) 0.29462(6) 1.24986(4)
Au3_2 Au 1.09443(8) 0.79470(6) 0.74997(4)
Au4_2 Au 1.09444(8) 1.29465(6) 0.75008(4)
C5_2 C 1.099(2) 0.8840(10) 1.8484(10)
C21_2 C 1.1058(19) 0.2042(11) 1.8497(9)
C29_2 C 1.2202(18) 1.3803(10) 1.3455(8)
loop_
_geom_bond_atom_site_label_1
_geom_bond_atom_site_label_2
_geom_bond_site_symmetry_1
_geom_bond_site_symmetry_2
C1 Au1 1_555 1_555
C2 Au4 1_555 1_555
Au1 C4 1_555 1_555
Au2 C20 1_555 1_555
Au3 C3 1_555 1_555
Au4 C21_2 1_555 1_555
Fe1 N1 1_555 1_555
Fe2 N6 1_555 1_555
N1 C3 1_555 1_555
N2 C2 1_555 1_555
N3 Fe1 1_555 1_555
N4 Fe1 1_555 1_555
N5 Fe1 1_555 1_555
N6 C5 1_555 1_555
N7 Fe1 1_555 1_555
C4 N3 1_555 1_555
C5 Au3_2 1_555 1_555
N8 Fe2 1_555 1_555
N9 C1 1_555 1_555
N10 Fe2 1_555 1_555
N11 Fe2 1_555 1_555
C6 N8 1_555 1_555
H1 C6 1_555 1_555
C7 N5 1_555 1_555
H2 C7 1_555 1_555
C8 N8 1_555 1_555
H3 C8 1_555 1_555
C9 N5 1_555 1_555
H4 C9 1_555 1_555
N12 Fe2 1_555 1_555
C10 C13 1_555 1_555
C11 C12 1_555 1_555
C12 C6 1_555 1_555
H5 C12 1_555 1_555
C13 C7 1_555 1_555
H6 C13 1_555 1_555
C14 C8 1_555 1_555
H7 C14 1_555 1_555
C15 C9 1_555 1_555
H8 C15 1_555 1_555
C16 C10 1_555 1_555
H9 C16 1_555 1_555
H10 C16 1_555 1_555
H11 C16 1_555 1_555
C17 N12 1_555 1_555
H12 C17 1_555 1_555
C18 C11 1_555 1_555
H13 C18 1_555 1_555
H14 C18 1_555 1_555
H15 C18 1_555 1_555
C19 N7 1_555 1_555
H16 C19 1_555 1_555
C20 N11 1_555 1_555
C21 N10 1_555 1_555
C22 C25 1_555 1_555
C23 H17 1_555 1_555
C24 C23 1_555 1_555
C25 H18 1_555 1_555
C26 C19 1_555 1_555
H19 C26 1_555 1_555
C27 C17 1_555 1_555
H20 C27 1_555 1_555
C28 C22 1_555 1_555
H21 C28 1_555 1_555
H22 C28 1_555 1_555
H23 C28 1_555 1_555
C29 N4 1_555 1_555
C30 N12 1_555 1_555
H24 C30 1_555 1_555
C31 N7 1_555 1_555
H25 C31 1_555 1_555
C32 C24 1_555 1_555
H26 C32 1_555 1_555
H27 C32 1_555 1_555
H28 C32 1_555 1_555
Au2_2 C29 1_555 1_555
Au4_2 C21 1_555 1_555
C5_2 Au3 1_555 1_555
C29_2 Au2 1_555 1_555
Fe1 N2 1_555 1_555
Fe2 N9 1_555 1_555
C10 C15 1_555 1_555
C11 C14 1_555 1_555
C22 C26 1_555 1_555
C23 C30 1_555 1_555
C24 C27 1_555 1_555
C25 C31 1_555 1_555

#END
