
#######################################################################
#
#                 Cambridge Crystallographic Data Centre
#                                CCDC 
#
#######################################################################
#
# If this CIF has been generated from an entry in the Cambridge 
# Structural Database, then it will include bibliographic, chemical, 
# crystal, experimental, refinement or atomic coordinate data resulting 
# from the CCDC's data processing and validation procedures.
#
#######################################################################

data_RELLUQ
_symmetry_cell_setting           monoclinic
_symmetry_space_group_name_H-M   'C 2/c'
_symmetry_Int_Tables_number      15
_space_group_name_Hall           '-C 2yn'
loop_
_symmetry_equiv_pos_site_id
_symmetry_equiv_pos_as_xyz
1 x,y,z
2 1/2+x,1/2+y,z
3 -x,y,1/2-z
4 1/2-x,1/2+y,1/2-z
5 -x,-y,-z
6 1/2-x,1/2-y,-z
7 x,-y,1/2+z
8 1/2+x,1/2-y,1/2+z
_cell_length_a                   11.073(3)
_cell_length_b                   10.213(3)
_cell_length_c                   11.570(4)
_cell_angle_alpha                90
_cell_angle_beta                 112.341(13)
_cell_angle_gamma                90
_cell_volume                     1210.22
loop_
_atom_site_label
_atom_site_type_symbol
_atom_site_fract_x
_atom_site_fract_y
_atom_site_fract_z
Co1 Co 0.5000 0.11493(11) 0.7500
S1 S 0.49156(16) 0.22354(19) 0.57529(17)
N1 N 0.8464(5) 0.4913(5) 0.6837(5)
C1 C 0.8300(8) 0.4098(9) 0.7626(8)
H1 H 0.8928 0.4089 0.8434
C2 C 0.7272(9) 0.3250(10) 0.7356(8)
H2 H 0.7234 0.2678 0.7967
C3 C 0.6296(6) 0.3239(7) 0.6187(6)
C4 C 0.6490(7) 0.4053(8) 0.5340(7)
H3 H 0.5896 0.4061 0.4516
C5 C 0.7557(7) 0.4861(8) 0.5698(7)
H4 H 0.7649 0.5411 0.5097
Co1A Co 1.0000 0.61493(11) 0.7500
Co1A_2 Co 0.0000 0.61493(11) 0.7500
S1B S 0.50844(16) 0.22354(19) 0.92471(17)
N1B N 0.1536(5) 0.4913(5) 0.8163(5)
N1A N 0.3464(5) -0.0087(5) 0.6837(5)
N1C N 0.6536(5) -0.0087(5) 0.8163(5)
C1B C 0.1700(8) 0.4098(9) 0.7374(8)
H1B H 0.1072 0.4089 0.6566
C2B C 0.2728(9) 0.3250(10) 0.7644(8)
H2B H 0.2766 0.2678 0.7033
C3B C 0.3704(6) 0.3239(7) 0.8813(6)
C4B C 0.3510(7) 0.4053(8) 0.9660(7)
H3B H 0.4104 0.4061 1.0484
C5B C 0.2443(7) 0.4861(8) 0.9302(7)
H4B H 0.2351 0.5411 0.9903
loop_
_geom_bond_atom_site_label_1
_geom_bond_atom_site_label_2
_geom_bond_site_symmetry_1
_geom_bond_site_symmetry_2
Co1 S1 1_555 1_555
S1 C3 1_555 1_555
N1 C1 1_555 1_555
C1 H1 1_555 1_555
C2 C1 1_555 1_555
H2 C2 1_555 1_555
C3 C2 1_555 1_555
C4 C3 1_555 1_555
H3 C4 1_555 1_555
C5 N1 1_555 1_555
H4 C5 1_555 1_555
Co1A N1 1_555 1_555
Co1A_2 N1B 1_555 1_555
S1B Co1 1_555 1_555
N1B C1B 1_555 1_555
N1A Co1 1_555 1_555
N1C Co1 1_555 1_555
C1B H1B 1_555 1_555
C2B C1B 1_555 1_555
H2B C2B 1_555 1_555
C3B S1B 1_555 1_555
C4B C3B 1_555 1_555
H3B C4B 1_555 1_555
C5B N1B 1_555 1_555
H4B C5B 1_555 1_555
C4 C5 1_555 1_555
C2B C3B 1_555 1_555
C4B C5B 1_555 1_555

#END
