
#######################################################################
#
#                 Cambridge Crystallographic Data Centre
#                                CCDC 
#
#######################################################################
#
# If this CIF has been generated from an entry in the Cambridge 
# Structural Database, then it will include bibliographic, chemical, 
# crystal, experimental, refinement or atomic coordinate data resulting 
# from the CCDC's data processing and validation procedures.
#
#######################################################################

data_REMJOJ
_symmetry_cell_setting           tetragonal
_symmetry_space_group_name_H-M   'I 41/a'
_symmetry_Int_Tables_number      88
_space_group_name_Hall           '-I 4ad'
loop_
_symmetry_equiv_pos_site_id
_symmetry_equiv_pos_as_xyz
1 x,y,z
2 3/4-y,1/4+x,1/4+z
3 1/2+x,1/2+y,1/2+z
4 1/4-y,3/4+x,3/4+z
5 1/4+y,1/4-x,1/4+z
6 1/2-x,-y,1/2+z
7 3/4+y,3/4-x,3/4+z
8 -x,1/2-y,z
9 -x,-y,-z
10 1/4+y,3/4-x,3/4-z
11 1/2-x,1/2-y,1/2-z
12 3/4+y,1/4-x,1/4-z
13 3/4-y,3/4+x,3/4-z
14 1/2+x,y,1/2-z
15 1/4-y,1/4+x,1/4-z
16 x,1/2+y,-z
_cell_length_a                   13.3750(6)
_cell_length_b                   13.3750(6)
_cell_length_c                   15.9298(7)
_cell_angle_alpha                90
_cell_angle_beta                 90
_cell_angle_gamma                90
_cell_volume                     2849.69
loop_
_atom_site_label
_atom_site_type_symbol
_atom_site_fract_x
_atom_site_fract_y
_atom_site_fract_z
C1 C 0.1362(3) -0.2232(3) 0.1260(3)
C2 C 0.1345(4) -0.3164(4) 0.1622(3)
C3 C 0.1324(4) -0.3233(4) 0.2496(3)
H1 H 0.1328 -0.3854 0.2758
C4 C 0.1295(4) -0.2368(4) 0.2965(3)
H2 H 0.1291 -0.2397 0.3549
C5 C 0.1273(4) -0.1457(4) 0.2556(3)
H3 H 0.1233 -0.0876 0.2875
C6 C 0.1563(4) -0.2065(4) 0.0324(3)
C7 C 0.1396(4) -0.4135(4) 0.1133(3)
O1 O 0.1525(3) -0.1177(3) 0.0062(2)
O2 O 0.1832(4) -0.2794(3) -0.0112(3)
O3 O 0.0643(3) -0.4379(3) 0.0706(2)
O4 O 0.2190(3) -0.4630(3) 0.1234(3)
N1 N 0.1306(3) -0.1378(3) 0.1722(3)
Pb1 Pb 0.106116(13) 0.026653(13) 0.095783(11)
O1D O 0.1323(3) 0.0975(3) 0.2562(2)
O3O O 0.0643(3) 0.0621(3) -0.0706(2)
O3G O -0.0643(3) -0.0621(3) 0.0706(2)
O4K O 0.2870(3) 0.0310(3) 0.1266(3)
Pb1C Pb 0.223347(13) -0.143884(13) -0.154217(11)
Pb1O Pb 0.106116(13) -0.473347(13) -0.095783(11)
Pb1G Pb -0.106116(13) -0.526653(13) 0.095783(11)
Pb1N Pb 0.223347(13) -0.643884(13) 0.154217(11)
loop_
_geom_bond_atom_site_label_1
_geom_bond_atom_site_label_2
_geom_bond_site_symmetry_1
_geom_bond_site_symmetry_2
C1 C2 1_555 1_555
C2 C3 1_555 1_555
C3 H1 1_555 1_555
C4 C3 1_555 1_555
H2 C4 1_555 1_555
C5 C4 1_555 1_555
H3 C5 1_555 1_555
C6 C1 1_555 1_555
C7 C2 1_555 1_555
O1 C6 1_555 1_555
O2 C6 1_555 1_555
O3 C7 1_555 1_555
O4 C7 1_555 1_555
N1 C1 1_555 1_555
Pb1 O1 1_555 1_555
O1D Pb1 1_555 1_555
O3O Pb1 1_555 1_555
O3G Pb1 1_555 1_555
O4K Pb1 1_555 1_555
Pb1C O1 1_555 1_555
Pb1O O3 1_555 1_555
Pb1G O3 1_555 1_555
Pb1N O4 1_555 1_555
C5 N1 1_555 1_555
N1 Pb1 1_555 1_555

#END
