
#######################################################################
#
#                 Cambridge Crystallographic Data Centre
#                                CCDC 
#
#######################################################################
#
# If this CIF has been generated from an entry in the Cambridge 
# Structural Database, then it will include bibliographic, chemical, 
# crystal, experimental, refinement or atomic coordinate data resulting 
# from the CCDC's data processing and validation procedures.
#
#######################################################################

data_REMVUC
_symmetry_cell_setting           monoclinic
_symmetry_space_group_name_H-M   'C 2/c'
_symmetry_Int_Tables_number      15
_space_group_name_Hall           '-C 2yn'
loop_
_symmetry_equiv_pos_site_id
_symmetry_equiv_pos_as_xyz
1 x,y,z
2 -x,y,1/2-z
3 1/2+x,1/2+y,z
4 1/2-x,1/2+y,1/2-z
5 -x,-y,-z
6 x,-y,1/2+z
7 1/2-x,1/2-y,-z
8 1/2+x,1/2-y,1/2+z
_cell_length_a                   19.579(6)
_cell_length_b                   9.512(2)
_cell_length_c                   9.641(2)
_cell_angle_alpha                90
_cell_angle_beta                 99.142(6)
_cell_angle_gamma                90
_cell_volume                     1772.69
loop_
_atom_site_label
_atom_site_type_symbol
_atom_site_fract_x
_atom_site_fract_y
_atom_site_fract_z
Zn1 Zn 0.313091(11) 0.18645(2) -0.09720(2)
O1 O 0.36726(8) 0.46559(18) -0.03477(18)
O2 O 0.39887(7) 0.27064(15) -0.13542(15)
O3 O 0.52528(10) 0.91313(18) -0.3417(2)
N1 N 0.30994(8) 0.12380(17) 0.09593(16)
N2 N 0.26371(8) 0.18478(16) 0.17673(16)
N3 N 0.30535(8) -0.01346(16) 0.28110(16)
N4 N 0.22459(9) 0.12092(19) 0.38803(18)
H1 H 0.2080 0.0429 0.4237
H2 H 0.1962 0.1953 0.3879
N5 N 0.37556(9) -0.08858(19) 0.11417(18)
H3 H 0.4006 -0.1407 0.1818
H4 H 0.4007 -0.0565 0.0503
N6 N 0.5000 0.8526(3) -0.2500
C1 C 0.26257(10) 0.0988(2) 0.28403(19)
C2 C 0.33254(10) 0.0073(2) 0.16128(19)
C3 C 0.45409(10) 0.4826(2) -0.1795(2)
C4 C 0.45467(10) 0.6287(2) -0.1773(2)
H5 H 0.4254 0.6787 -0.1282
C5 C 0.5000 0.6975(3) -0.2500
C6 C 0.5000 0.4113(3) -0.2500
H6 H 0.5000 0.3135 -0.2500
C7 C 0.40276(10) 0.4035(2) -0.1088(2)
Zn1A Zn 0.686909(11) 0.18645(2) -0.40280(2)
Zn1D Zn 0.686909(11) -0.18645(2) -0.90280(2)
Zn1E Zn 0.313091(11) -0.18645(2) 0.40280(2)
Zn1F Zn 0.186909(11) 0.31355(2) 0.09720(2)
Zn1G Zn 0.813091(11) 0.31355(2) -0.59720(2)
O1A O 0.63274(8) 0.46559(18) -0.46523(18)
O2A O 0.60113(7) 0.27064(15) -0.36458(15)
O3A O 0.47472(10) 0.91313(18) -0.1583(2)
N1A N 0.69006(8) 0.12380(17) -0.59593(16)
N2A N 0.73629(8) 0.18478(16) -0.67673(16)
N2F N 0.23629(8) 0.31522(16) -0.17673(16)
N2G N 0.76371(8) 0.31522(16) -0.32327(16)
N3A N 0.69465(8) -0.01346(16) -0.78110(16)
N3D N 0.69465(8) 0.01346(16) -0.28110(16)
N3E N 0.30535(8) 0.01346(16) -0.21890(16)
N4A N 0.77541(9) 0.12092(19) -0.88803(18)
H1A H 0.7920 0.0429 -0.9237
H2A H 0.8038 0.1953 -0.8879
N5A N 0.62444(9) -0.08858(19) -0.61417(18)
H3A H 0.5994 -0.1407 -0.6818
H4A H 0.5993 -0.0565 -0.5503
C1A C 0.73743(10) 0.0988(2) -0.78403(19)
C2A C 0.66746(10) 0.0073(2) -0.66128(19)
C3A C 0.54591(10) 0.4826(2) -0.3205(2)
C4A C 0.54533(10) 0.6287(2) -0.3227(2)
H5A H 0.5746 0.6787 -0.3718
C7A C 0.59724(10) 0.4035(2) -0.3912(2)
loop_
_geom_bond_atom_site_label_1
_geom_bond_atom_site_label_2
_geom_bond_site_symmetry_1
_geom_bond_site_symmetry_2
Zn1 O2 1_555 1_555
O1 C7 1_555 1_555
O2 C7 1_555 1_555
O3 N6 1_555 1_555
N1 Zn1 1_555 1_555
N2 N1 1_555 1_555
N3 C1 1_555 1_555
N4 H1 1_555 1_555
H2 N4 1_555 1_555
N5 H3 1_555 1_555
H4 N5 1_555 1_555
N6 C5 1_555 1_555
C1 N2 1_555 1_555
C2 N1 1_555 1_555
C3 C4 1_555 1_555
C4 H5 1_555 1_555
C5 C4 1_555 1_555
C6 C3 1_555 1_555
H6 C6 1_555 1_555
C7 C3 1_555 1_555
Zn1A O2A 1_555 1_555
Zn1D N3A 1_555 1_555
Zn1E N3 1_555 1_555
Zn1F N2 1_555 1_555
Zn1G N2A 1_555 1_555
O1A C7A 1_555 1_555
O2A C7A 1_555 1_555
O3A N6 1_555 1_555
N1A Zn1A 1_555 1_555
N2A N1A 1_555 1_555
N2F Zn1 1_555 1_555
N2G Zn1A 1_555 1_555
N3A C1A 1_555 1_555
N3D Zn1A 1_555 1_555
N3E Zn1 1_555 1_555
N4A H1A 1_555 1_555
H2A N4A 1_555 1_555
N5A H3A 1_555 1_555
H4A N5A 1_555 1_555
C1A N2A 1_555 1_555
C2A N1A 1_555 1_555
C3A C6 1_555 1_555
C4A C5 1_555 1_555
H5A C4A 1_555 1_555
C7A C3A 1_555 1_555
N3 C2 1_555 1_555
N4 C1 1_555 1_555
N5 C2 1_555 1_555
N3A C2A 1_555 1_555
N4A C1A 1_555 1_555
N5A C2A 1_555 1_555
C3A C4A 1_555 1_555

#END
