
#######################################################################
#
#                 Cambridge Crystallographic Data Centre
#                                CCDC 
#
#######################################################################
#
# If this CIF has been generated from an entry in the Cambridge 
# Structural Database, then it will include bibliographic, chemical, 
# crystal, experimental, refinement or atomic coordinate data resulting 
# from the CCDC's data processing and validation procedures.
#
#######################################################################

data_RENHOI
_symmetry_cell_setting           monoclinic
_symmetry_space_group_name_H-M   'P 21/c'
_symmetry_Int_Tables_number      14
_space_group_name_Hall           '-P 2ybc'
loop_
_symmetry_equiv_pos_site_id
_symmetry_equiv_pos_as_xyz
1 x,y,z
2 -x,1/2+y,1/2-z
3 -x,-y,-z
4 x,1/2-y,1/2+z
_cell_length_a                   8.2467(2)
_cell_length_b                   18.4854(5)
_cell_length_c                   9.5439(3)
_cell_angle_alpha                90
_cell_angle_beta                 111.8890(10)
_cell_angle_gamma                90
_cell_volume                     1350.02
loop_
_atom_site_label
_atom_site_type_symbol
_atom_site_fract_x
_atom_site_fract_y
_atom_site_fract_z
C1 C 0.0397(4) 0.09032(17) -0.6249(3)
H1 H 0.1459 0.1021 -0.6370
C2 C 0.0310(4) 0.09979(17) -0.4834(3)
C3 C -0.1243(4) 0.08393(18) -0.4671(4)
H2 H -0.1349 0.0895 -0.3719
C4 C -0.2649(4) 0.05969(18) -0.5911(4)
H3 H -0.3738 0.0494 -0.5828
C5 C -0.2435(4) 0.05081(16) -0.7276(3)
H4 H -0.3397 0.0336 -0.8119
C6 C 0.1894(4) 0.12630(17) -0.3526(3)
H5 H 0.1898 0.1055 -0.2569
H6 H 0.2975 0.1107 -0.3662
C7 C 0.3608(4) 0.23871(18) -0.1650(3)
H7 H 0.3398 0.2088 -0.0874
H8 H 0.3610 0.2900 -0.1352
C8 C 0.5384(4) 0.22020(17) -0.1665(3)
C9 C 0.6178(4) 0.26385(17) -0.2417(3)
H9 H 0.5583 0.3048 -0.2974
C10 C 0.7840(4) 0.24677(17) -0.2343(3)
H10 H 0.8398 0.2755 -0.2856
C11 C 0.8673(4) 0.18736(17) -0.1513(3)
H11 H 0.9833 0.1773 -0.1434
C12 C 0.6298(4) 0.16016(16) -0.0913(3)
H12 H 0.5745 0.1289 -0.0437
Cu1 Cu -0.07632(5) 0.05582(2) -0.95498(4)
I1 I 0.25700(2) 0.060440(11) -0.91320(2)
N1 N -0.0940(3) 0.06535(13) -0.7458(3)
N2 N 0.7936(3) 0.14320(14) -0.0813(3)
S1 S 0.18191(10) 0.22468(4) -0.34534(9)
Cu1B Cu 0.07632(5) -0.05582(2) -1.04502(4)
Cu1_2 Cu 0.92368(5) 0.05582(2) 0.04502(4)
I1B I -0.25700(2) -0.060440(11) -1.08680(2)
N2_2 N -0.2064(3) 0.14320(14) -1.0813(3)
loop_
_geom_bond_atom_site_label_1
_geom_bond_atom_site_label_2
_geom_bond_site_symmetry_1
_geom_bond_site_symmetry_2
C1 H1 1_555 1_555
C2 C1 1_555 1_555
C3 C2 1_555 1_555
H2 C3 1_555 1_555
C4 C3 1_555 1_555
H3 C4 1_555 1_555
C5 C4 1_555 1_555
H4 C5 1_555 1_555
C6 C2 1_555 1_555
H5 C6 1_555 1_555
H6 C6 1_555 1_555
C7 H7 1_555 1_555
H8 C7 1_555 1_555
C8 C7 1_555 1_555
C9 C8 1_555 1_555
H9 C9 1_555 1_555
C10 C9 1_555 1_555
H10 C10 1_555 1_555
C11 C10 1_555 1_555
H11 C11 1_555 1_555
C12 C8 1_555 1_555
H12 C12 1_555 1_555
Cu1 I1 1_555 1_555
I1 Cu1B 1_555 1_555
N1 C1 1_555 1_555
N2 C11 1_555 1_555
S1 C6 1_555 1_555
Cu1B I1B 1_555 1_555
Cu1_2 N2 1_555 1_555
I1B Cu1 1_555 1_555
N2_2 Cu1 1_555 1_555
C5 N1 1_555 1_555
C7 S1 1_555 1_555
C12 N2 1_555 1_555
Cu1 N1 1_555 1_555

#END
