
#######################################################################
#
#                 Cambridge Crystallographic Data Centre
#                                CCDC 
#
#######################################################################
#
# If this CIF has been generated from an entry in the Cambridge 
# Structural Database, then it will include bibliographic, chemical, 
# crystal, experimental, refinement or atomic coordinate data resulting 
# from the CCDC's data processing and validation procedures.
#
#######################################################################

data_RENNII
_symmetry_cell_setting           monoclinic
_symmetry_space_group_name_H-M   'P 21/c'
_symmetry_Int_Tables_number      14
_space_group_name_Hall           '-P 2ybc'
loop_
_symmetry_equiv_pos_site_id
_symmetry_equiv_pos_as_xyz
1 x,y,z
2 -x,1/2+y,1/2-z
3 -x,-y,-z
4 x,1/2-y,1/2+z
_cell_length_a                   10.3980(9)
_cell_length_b                   23.6320(19)
_cell_length_c                   6.9900(6)
_cell_angle_alpha                90
_cell_angle_beta                 107.067(1)
_cell_angle_gamma                90
_cell_volume                     1641.98
loop_
_atom_site_label
_atom_site_type_symbol
_atom_site_fract_x
_atom_site_fract_y
_atom_site_fract_z
C1 C 0.5013(3) 0.21898(11) 0.7925(4)
H1 H 0.4104 0.2100 0.7621
C2 C 0.5384(3) 0.27519(11) 0.8223(4)
H2 H 0.4738 0.3029 0.8160
C3 C 0.6734(3) 0.28992(10) 0.8620(4)
C4 C 0.7656(3) 0.24561(11) 0.8755(4)
H3 H 0.8569 0.2534 0.9029
C5 C 0.7204(3) 0.19104(11) 0.8483(4)
H4 H 0.7834 0.1623 0.8602
C6 C 0.6746(3) 0.49612(11) 0.9223(4)
H5 H 0.7238 0.5271 0.9868
C7 C 0.5335(3) 0.40543(10) 0.7308(4)
H6 H 0.4828 0.3755 0.6610
C8 C 0.6608(3) 0.39587(10) 0.8641(4)
C9 C 0.7321(3) 0.44310(11) 0.9619(4)
H7 H 0.8171 0.4388 1.0525
C10 C 0.4838(3) 0.46003(11) 0.7041(4)
H8 H 0.3980 0.4656 0.6172
C11 C 0.8767(3) 0.05211(12) 1.0799(4)
C12 C 1.0094(3) 0.05256(16) 1.2253(5)
H9 H 1.0264 0.0891 1.2875
H10 H 1.0762 0.0446 1.1589
H11 H 1.0134 0.0243 1.3254
N1 N 0.5896(2) 0.17663(9) 0.8051(3)
N2 N 0.7257(2) 0.34400(9) 0.8991(4)
H12 H 0.8114 0.3457 0.9520
N3 N 0.5518(2) 0.50541(9) 0.7959(3)
N4 N 0.7734(3) 0.05171(12) 0.9678(4)
Ag1 Ag 0.53005(2) 0.089333(8) 0.76328(3)
N3A N 0.4482(2) 0.00541(9) 0.7041(3)
Ag1A Ag 0.46995(2) 0.589333(8) 0.73672(3)
C13 C 0.1474(3) 0.17472(16) 0.9478(7)
O1 O 0.0123(2) 0.16094(12) 0.5831(5)
O2 O 0.0725(3) 0.07738(11) 0.7853(5)
O3 O 0.2430(2) 0.13025(11) 0.6835(5)
F1 F 0.1912(3) 0.22441(11) 0.9234(6)
F2 F 0.2409(2) 0.15020(14) 1.1031(4)
F3 F 0.0398(2) 0.17948(10) 1.0119(4)
S1 S 0.11778(7) 0.13012(3) 0.72972(14)
loop_
_geom_bond_atom_site_label_1
_geom_bond_atom_site_label_2
_geom_bond_site_symmetry_1
_geom_bond_site_symmetry_2
C1 H1 1_555 1_555
C2 C1 1_555 1_555
H2 C2 1_555 1_555
C3 C2 1_555 1_555
C4 C3 1_555 1_555
H3 C4 1_555 1_555
C5 C4 1_555 1_555
H4 C5 1_555 1_555
C6 H5 1_555 1_555
C7 H6 1_555 1_555
C8 C7 1_555 1_555
C9 C6 1_555 1_555
H7 C9 1_555 1_555
C10 C7 1_555 1_555
H8 C10 1_555 1_555
C11 C12 1_555 1_555
C12 H9 1_555 1_555
H10 C12 1_555 1_555
H11 C12 1_555 1_555
N1 C1 1_555 1_555
N2 C3 1_555 1_555
H12 N2 1_555 1_555
N3 C6 1_555 1_555
N4 C11 1_555 1_555
Ag1 N1 1_555 1_555
C13 F1 1_555 1_555
O1 S1 1_555 1_555
O2 S1 1_555 1_555
O3 S1 1_555 1_555
F2 C13 1_555 1_555
F3 C13 1_555 1_555
S1 C13 1_555 1_555
N3A Ag1 1_555 1_555
Ag1A N3 1_555 1_555
C5 N1 1_555 1_555
C8 C9 1_555 1_555
C8 N2 1_555 1_555
C10 N3 1_555 1_555
N4 Ag1 1_555 1_555

#END
