
#######################################################################
#
#                 Cambridge Crystallographic Data Centre
#                                CCDC 
#
#######################################################################
#
# If this CIF has been generated from an entry in the Cambridge 
# Structural Database, then it will include bibliographic, chemical, 
# crystal, experimental, refinement or atomic coordinate data resulting 
# from the CCDC's data processing and validation procedures.
#
#######################################################################

data_REPHAW
_symmetry_cell_setting           monoclinic
_symmetry_space_group_name_H-M   'P 21/c'
_symmetry_Int_Tables_number      14
_space_group_name_Hall           '-P 2ybc'
loop_
_symmetry_equiv_pos_site_id
_symmetry_equiv_pos_as_xyz
1 x,y,z
2 -x,1/2+y,1/2-z
3 -x,-y,-z
4 x,1/2-y,1/2+z
_cell_length_a                   11.9751(14)
_cell_length_b                   12.6718(14)
_cell_length_c                   18.759(2)
_cell_angle_alpha                90
_cell_angle_beta                 104.230(2)
_cell_angle_gamma                90
_cell_volume                     2759.26
loop_
_atom_site_label
_atom_site_type_symbol
_atom_site_fract_x
_atom_site_fract_y
_atom_site_fract_z
I1 I 0.33414(7) -0.40410(7) -0.19360(4)
I2 I 0.61863(7) -0.36678(6) 0.02102(4)
Cu1 Cu 0.54667(11) -0.44993(10) -0.18385(7)
Cu2 Cu 0.45504(13) -0.46318(12) -0.06908(8)
S1 S 0.6425(2) -0.2882(2) -0.17861(14)
S2 S 0.6212(2) -0.6125(2) -0.14687(14)
O1 O 0.9797(7) -0.3929(7) -0.1760(4)
O2 O 0.9449(7) -0.5732(6) -0.0921(4)
N1 N 0.5864(7) -0.4795(6) -0.2909(4)
C1 C 0.9675(10) -0.2848(10) -0.1784(6)
C2 C -0.0438(11) -0.7762(13) -0.7971(7)
H1 H -0.1054 -0.7434 -0.7807
C3 C -0.0337(12) -0.8849(12) -0.7954(8)
H2 H -0.0914 -0.9278 -0.7819
C4 C 0.0588(12) -0.9306(10) -0.8132(7)
H3 H 0.0707 -1.0053 -0.8071
C5 C 0.1356(11) -0.8702(9) -0.8399(7)
H4 H 0.1966 -0.9040 -0.8562
C6 C 0.8748(9) -0.2392(9) -0.1566(5)
C7 C 0.7921(9) -0.3067(9) -0.1290(6)
H5 H 0.1876 -0.6206 -0.8672
H6 H 0.2005 -0.7086 -0.9220
C8 C 0.6511(10) -0.2936(9) -0.2733(6)
H7 H 0.7114 -0.2473 -0.2796
H8 H 0.5799 -0.2683 -0.3042
C9 C 0.6743(9) -0.4041(8) -0.2982(6)
H9 H 0.7477 -0.4279 -0.2694
H10 H 0.6782 -0.4015 -0.3486
C10 C 0.6295(10) -0.5894(8) -0.2889(6)
H11 H 0.5652 -0.6370 -0.2996
H12 H 0.6711 -0.5981 -0.3262
C11 C 0.7072(10) -0.6168(8) -0.2151(5)
H13 H 0.7390 -0.6860 -0.2166
H14 H 0.7695 -0.5672 -0.2023
C12 C 0.7341(10) -0.6140(9) -0.0615(5)
H15 H 0.3004 -0.3751 -0.9790
H16 H 0.2283 -0.4535 -0.9450
C13 C 0.8233(12) -0.6990(8) -0.0604(6)
C14 C 0.2015(14) -0.1986(11) -0.9600(8)
H17 H 0.2726 -0.1833 -0.9728
C15 C 0.1211(19) -0.1211(12) -0.9612(9)
H18 H 0.1379 -0.0500 -0.9728
C16 C 0.0150(17) -0.1438(13) -0.9459(10)
H19 H -0.0402 -0.0882 -0.9483
C17 C -0.0119(13) -0.2453(11) -0.9273(7)
H20 H -0.0848 -0.2609 -0.9170
C18 C 0.9282(11) -0.6762(10) -0.0758(6)
C19 C 1.0528(11) -0.5449(10) -0.1022(7)
H21 H -0.1126 -0.4310 -0.9386
H22 H -0.0644 -0.4233 -0.8537
C20 C 1.0565(10) -0.4273(10) -0.1079(7)
H23 H -0.1337 -0.5951 -0.8937
H24 H -0.0338 -0.6042 -0.9329
C21 C 0.4751(9) -0.4690(8) -0.3503(5)
H25 H 0.4443 -0.3996 -0.3474
H26 H 0.4204 -0.5188 -0.3403
C22 C 0.4864(10) -0.4866(9) -0.4279(5)
C23 C 0.4833(10) -0.5856(9) -0.4584(6)
H27 H 0.4724 -0.6460 -0.4300
C24 C 0.4957(11) -0.5997(9) -0.5300(6)
H28 H 0.5081 -0.3305 -0.4495
I1B I 0.66586(7) -0.59590(7) -0.80640(4)
I2B I 0.38137(7) -0.63322(6) -0.02102(4)
I2_2 I 0.61863(7) -0.36678(6) -0.97898(4)
I2B_2 I 0.38137(7) -0.63322(6) -1.02102(4)
Cu1B Cu 0.45333(11) -0.55007(10) -0.81615(7)
Cu2B Cu 0.54496(13) -0.53682(12) 0.06908(8)
Cu2B_2 Cu 0.54496(13) -0.53682(12) -0.93092(8)
S1B S 0.3575(2) -0.7118(2) -0.82139(14)
S2B S 0.3788(2) -0.3875(2) -0.85313(14)
O1B O 0.0203(7) -0.6071(7) -0.8240(4)
O2B O 0.0551(7) -0.4268(6) -0.9079(4)
N1B N 0.4136(7) -0.5205(6) -0.7091(4)
C1B C 0.0325(10) -0.7152(10) -0.8216(6)
C2B C 1.0438(11) -0.2238(13) -0.2029(7)
H1B H 1.1054 -0.2566 -0.2193
C3B C 1.0337(12) -0.1151(12) -0.2046(8)
H2B H 1.0914 -0.0722 -0.2181
C4B C 0.9412(12) -0.0694(10) -0.1868(7)
H3B H 0.9293 0.0053 -0.1929
C5B C 0.8644(11) -0.1298(9) -0.1601(7)
H4B H 0.8034 -0.0960 -0.1438
C6B C 0.1252(9) -0.7608(9) -0.8434(5)
C7B C 0.2079(9) -0.6933(9) -0.8710(6)
H5B H 0.8124 -0.3794 -0.1328
H6B H 0.7995 -0.2914 -0.0780
C8B C 0.3489(10) -0.7064(9) -0.7267(6)
H7B H 0.2886 -0.7527 -0.7204
H8B H 0.4201 -0.7317 -0.6958
C9B C 0.3257(9) -0.5959(8) -0.7018(6)
H9B H 0.2523 -0.5721 -0.7306
H10B H 0.3218 -0.5985 -0.6514
C10B C 0.3705(10) -0.4106(8) -0.7111(6)
H11B H 0.4348 -0.3630 -0.7004
H12B H 0.3289 -0.4019 -0.6738
C11B C 0.2928(10) -0.3832(8) -0.7849(5)
H13B H 0.2610 -0.3140 -0.7834
H14B H 0.2305 -0.4328 -0.7977
C12B C 0.2659(10) -0.3860(9) -0.9385(5)
H15B H 0.6996 -0.6249 -0.0210
H16B H 0.7717 -0.5465 -0.0550
C13B C 0.1767(12) -0.3010(8) -0.9396(6)
C14B C 0.7985(14) -0.8014(11) -0.0400(8)
H17B H 0.7274 -0.8167 -0.0272
C15B C 0.8789(19) -0.8789(12) -0.0388(9)
H18B H 0.8621 -0.9500 -0.0272
C16B C 0.9850(17) -0.8562(13) -0.0541(10)
H19B H 1.0402 -0.9118 -0.0517
C17B C 1.0119(13) -0.7547(11) -0.0727(7)
H20B H 1.0848 -0.7391 -0.0830
C18B C 0.0718(11) -0.3238(10) -0.9242(6)
C19B C -0.0528(11) -0.4551(10) -0.8978(7)
H21B H 1.1126 -0.5690 -0.0614
H22B H 1.0644 -0.5767 -0.1463
C20B C -0.0565(10) -0.5727(10) -0.8921(7)
H23B H 1.1337 -0.4049 -0.1063
H24B H 1.0338 -0.3958 -0.0671
C21B C 0.5249(9) -0.5310(8) -0.6497(5)
H25B H 0.5557 -0.6004 -0.6526
H26B H 0.5796 -0.4812 -0.6597
C22B C 0.5136(10) -0.5134(9) -0.5721(5)
C23B C 0.5167(10) -0.4144(9) -0.5416(6)
H27B H 0.5276 -0.3540 -0.5700
C24B C 0.5043(11) -0.4003(9) -0.4700(6)
H28B H 0.4919 -0.6695 -0.5505
loop_
_geom_bond_atom_site_label_1
_geom_bond_atom_site_label_2
_geom_bond_site_symmetry_1
_geom_bond_site_symmetry_2
I1 Cu1 1_555 1_555
I2 Cu2 1_555 1_555
Cu1 Cu2 1_555 1_555
Cu2 I1 1_555 1_555
S1 Cu1 1_555 1_555
S2 Cu1 1_555 1_555
O1 C1 1_555 1_555
O2 C18 1_555 1_555
N1 Cu1 1_555 1_555
C1 C6 1_555 1_555
C2 H1 1_555 1_555
C3 C2 1_555 1_555
H2 C3 1_555 1_555
C4 C3 1_555 1_555
H3 C4 1_555 1_555
C5 C4 1_555 1_555
H4 C5 1_555 1_555
C6 C7 1_555 1_555
C7 S1 1_555 1_555
H5 C7B 1_555 1_555
H6 C7B 1_555 1_555
C8 S1 1_555 1_555
H7 C8 1_555 1_555
H8 C8 1_555 1_555
C9 N1 1_555 1_555
H9 C9 1_555 1_555
H10 C9 1_555 1_555
C10 N1 1_555 1_555
H11 C10 1_555 1_555
H12 C10 1_555 1_555
C11 S2 1_555 1_555
H13 C11 1_555 1_555
H14 C11 1_555 1_555
C12 S2 1_555 1_555
H15 C12B 1_555 1_555
H16 C12B 1_555 1_555
C13 C12 1_555 1_555
C14 H17 1_555 1_555
C15 C14 1_555 1_555
H18 C15 1_555 1_555
C16 C15 1_555 1_555
H19 C16 1_555 1_555
C17 C16 1_555 1_555
H20 C17 1_555 1_555
C18 C13 1_555 1_555
C19 O2 1_555 1_555
H21 C19B 1_555 1_555
H22 C19B 1_555 1_555
C20 O1 1_555 1_555
H23 C20B 1_555 1_555
H24 C20B 1_555 1_555
C21 N1 1_555 1_555
H25 C21 1_555 1_555
H26 C21 1_555 1_555
C22 C21 1_555 1_555
C23 C22 1_555 1_555
H27 C23 1_555 1_555
C24 C23 1_555 1_555
H28 C24B 1_555 1_555
I1B Cu1B 1_555 1_555
I2B Cu2 1_555 1_555
I2_2 Cu2B_2 1_555 1_555
I2B_2 Cu2B_2 1_555 1_555
Cu1B Cu2B_2 1_555 1_555
Cu2B I2 1_555 1_555
Cu2B_2 I1B 1_555 1_555
S1B Cu1B 1_555 1_555
S2B Cu1B 1_555 1_555
O1B C1B 1_555 1_555
O2B C18B 1_555 1_555
N1B Cu1B 1_555 1_555
C1B C2 1_555 1_555
C2B C1 1_555 1_555
H1B C2B 1_555 1_555
C3B C2B 1_555 1_555
H2B C3B 1_555 1_555
C4B C3B 1_555 1_555
H3B C4B 1_555 1_555
C5B C6 1_555 1_555
H4B C5B 1_555 1_555
C6B C5 1_555 1_555
C7B S1B 1_555 1_555
H5B C7 1_555 1_555
H6B C7 1_555 1_555
C8B S1B 1_555 1_555
H7B C8B 1_555 1_555
H8B C8B 1_555 1_555
C9B N1B 1_555 1_555
H9B C9B 1_555 1_555
H10B C9B 1_555 1_555
C10B N1B 1_555 1_555
H11B C10B 1_555 1_555
H12B C10B 1_555 1_555
C11B S2B 1_555 1_555
H13B C11B 1_555 1_555
H14B C11B 1_555 1_555
C12B S2B 1_555 1_555
H15B C12 1_555 1_555
H16B C12 1_555 1_555
C13B C14 1_555 1_555
C14B C13 1_555 1_555
H17B C14B 1_555 1_555
C15B C14B 1_555 1_555
H18B C15B 1_555 1_555
C16B C15B 1_555 1_555
H19B C16B 1_555 1_555
C17B C18 1_555 1_555
H20B C17B 1_555 1_555
C18B C17 1_555 1_555
C19B O2B 1_555 1_555
H21B C19 1_555 1_555
H22B C19 1_555 1_555
C20B O1B 1_555 1_555
H23B C20 1_555 1_555
H24B C20 1_555 1_555
C21B N1B 1_555 1_555
H25B C21B 1_555 1_555
H26B C21B 1_555 1_555
C22B C24 1_555 1_555
C23B C22B 1_555 1_555
H27B C23B 1_555 1_555
C24B C22 1_555 1_555
H28B C24 1_555 1_555
C8 C9 1_555 1_555
C10 C11 1_555 1_555
C19 C20 1_555 1_555
I2B Cu2B 1_555 1_555
C1B C6B 1_555 1_555
C4B C5B 1_555 1_555
C6B C7B 1_555 1_555
C8B C9B 1_555 1_555
C10B C11B 1_555 1_555
C12B C13B 1_555 1_555
C13B C18B 1_555 1_555
C16B C17B 1_555 1_555
C19B C20B 1_555 1_555
C21B C22B 1_555 1_555
C23B C24B 1_555 1_555

#END
