
#######################################################################
#
#                 Cambridge Crystallographic Data Centre
#                                CCDC 
#
#######################################################################
#
# If this CIF has been generated from an entry in the Cambridge 
# Structural Database, then it will include bibliographic, chemical, 
# crystal, experimental, refinement or atomic coordinate data resulting 
# from the CCDC's data processing and validation procedures.
#
#######################################################################

data_REPNUX01
_symmetry_cell_setting           monoclinic
_symmetry_space_group_name_H-M   'C c'
_symmetry_Int_Tables_number      9
_space_group_name_Hall           'C -2yc'
loop_
_symmetry_equiv_pos_site_id
_symmetry_equiv_pos_as_xyz
1 x,y,z
2 x,-y,1/2+z
3 1/2+x,1/2+y,z
4 1/2+x,1/2-y,1/2+z
_cell_length_a                   9.5044(16)
_cell_length_b                   16.580(2)
_cell_length_c                   7.1321(12)
_cell_angle_alpha                90
_cell_angle_beta                 104.667(4)
_cell_angle_gamma                90
_cell_volume                     1087.27
loop_
_atom_site_label
_atom_site_type_symbol
_atom_site_fract_x
_atom_site_fract_y
_atom_site_fract_z
Ag1 Ag 0.499050(12) 0.382920(16) 0.750680(12)
N1 N 0.4500(3) 0.5129(2) 0.7260(4)
N2 N 0.2338(3) 0.4090(2) 0.5402(4)
N3 N 0.1245(3) 0.3570(2) 0.4426(4)
N4 N 0.0294(3) 0.2429(2) 0.3299(5)
N5 N -0.0714(4) 0.3030(2) 0.2584(5)
C1 C 0.3206(3) 0.5413(2) 0.6220(5)
C2 C 0.2918(4) 0.6224(2) 0.5968(6)
H1 H 0.2019 0.6400 0.5228
C3 C 0.3981(5) 0.6777(3) 0.6831(6)
H2 H 0.3809 0.7328 0.6675
C4 C 0.5285(5) 0.6496(3) 0.7912(6)
H3 H 0.6012 0.6853 0.8521
C5 C 0.5511(4) 0.5668(3) 0.8091(6)
H4 H 0.6405 0.5481 0.8821
C6 C 0.2078(3) 0.4830(2) 0.5296(5)
H5 H 0.1164 0.5013 0.4626
C7 C 0.1449(4) 0.2771(2) 0.4389(5)
H6 H 0.2287 0.2501 0.5042
C8 C -0.0122(5) 0.3713(3) 0.3273(7)
H7 H -0.0558 0.4217 0.3022
N6 N 0.8607(3) 0.4027(2) 0.7877(5)
O1 O 0.7571(4) 0.3624(3) 0.6974(7)
O2 O 0.8441(5) 0.4563(3) 0.9011(7)
O3 O 0.9828(6) 0.3888(3) 0.7645(11)
Ag1C Ag -0.000950(12) 0.117080(16) 0.250680(12)
N4C N 0.5294(3) 0.2571(2) 0.8299(5)
loop_
_geom_bond_atom_site_label_1
_geom_bond_atom_site_label_2
_geom_bond_site_symmetry_1
_geom_bond_site_symmetry_2
Ag1 N1 1_555 1_555
N1 C1 1_555 1_555
N2 Ag1 1_555 1_555
N3 N2 1_555 1_555
N4 N5 1_555 1_555
N5 C8 1_555 1_555
C1 C2 1_555 1_555
C2 H1 1_555 1_555
C3 C2 1_555 1_555
H2 C3 1_555 1_555
C4 C3 1_555 1_555
H3 C4 1_555 1_555
C5 N1 1_555 1_555
H4 C5 1_555 1_555
C6 N2 1_555 1_555
H5 C6 1_555 1_555
C7 N3 1_555 1_555
H6 C7 1_555 1_555
C8 N3 1_555 1_555
H7 C8 1_555 1_555
N6 O1 1_555 1_555
O1 Ag1 1_555 1_555
O2 N6 1_555 1_555
O3 N6 1_555 1_555
Ag1C N4 1_555 1_555
N4C Ag1 1_555 1_555
N4 C7 1_555 1_555
C1 C6 1_555 1_555
C4 C5 1_555 1_555

#END
