
#######################################################################
#
#                 Cambridge Crystallographic Data Centre
#                                CCDC 
#
#######################################################################
#
# If this CIF has been generated from an entry in the Cambridge 
# Structural Database, then it will include bibliographic, chemical, 
# crystal, experimental, refinement or atomic coordinate data resulting 
# from the CCDC's data processing and validation procedures.
#
#######################################################################

data_REPTEN
_symmetry_cell_setting           monoclinic
_symmetry_space_group_name_H-M   'C 2/c'
_symmetry_Int_Tables_number      15
_space_group_name_Hall           '-C 2yn'
loop_
_symmetry_equiv_pos_site_id
_symmetry_equiv_pos_as_xyz
1 x,y,z
2 -x,y,1/2-z
3 1/2+x,1/2+y,z
4 1/2-x,1/2+y,1/2-z
5 -x,-y,-z
6 x,-y,1/2+z
7 1/2-x,1/2-y,-z
8 1/2+x,1/2-y,1/2+z
_cell_length_a                   12.713(4)
_cell_length_b                   10.108(4)
_cell_length_c                   10.835(5)
_cell_angle_alpha                90
_cell_angle_beta                 91.21(3)
_cell_angle_gamma                90
_cell_volume                     1392.02
loop_
_atom_site_label
_atom_site_type_symbol
_atom_site_fract_x
_atom_site_fract_y
_atom_site_fract_z
Zn1 Zn 0.5000 0.05783(10) 0.2500
Br1 Br 0.66141(5) -0.04922(7) 0.22044(6)
S1 S 0.43305(12) 0.48804(16) -0.20120(15)
N1 N 0.4774(4) 0.1842(5) 0.1037(5)
C1 C 0.5535(5) 0.2013(7) 0.0202(6)
H1 H 0.6158 0.1498 0.0270
C2 C 0.5433(5) 0.2913(7) -0.0745(6)
H2 H 0.5978 0.2995 -0.1326
C3 C 0.4563(5) 0.3684(7) -0.0858(6)
C4 C 0.3774(5) 0.3505(6) 0.0004(5)
H3 H 0.3148 0.4017 -0.0040
C5 C 0.3917(5) 0.2577(6) 0.0917(6)
H4 H 0.3373 0.2457 0.1493
S1A S 0.56695(12) 0.48804(16) -0.29880(15)
N1A N 0.5226(4) 0.1842(5) -0.6037(5)
C1A C 0.4465(5) 0.2013(7) -0.5202(6)
H1A H 0.3842 0.1498 -0.5270
C2A C 0.4567(5) 0.2913(7) -0.4255(6)
H2A H 0.4022 0.2995 -0.3674
C3A C 0.5437(5) 0.3684(7) -0.4142(6)
C4A C 0.6226(5) 0.3505(6) -0.5004(5)
H3A H 0.6852 0.4017 -0.4960
C5A C 0.6083(5) 0.2577(6) -0.5917(6)
H4A H 0.6627 0.2457 -0.6493
Br1A Br 0.33859(5) -0.04922(7) 0.27956(6)
Zn1_2 Zn 0.5000 0.05783(10) -0.7500
N1A_2 N 0.5226(4) 0.1842(5) 0.3963(5)
loop_
_geom_bond_atom_site_label_1
_geom_bond_atom_site_label_2
_geom_bond_site_symmetry_1
_geom_bond_site_symmetry_2
Zn1 Br1 1_555 1_555
S1 C3 1_555 1_555
N1 Zn1 1_555 1_555
C1 N1 1_555 1_555
H1 C1 1_555 1_555
C2 C1 1_555 1_555
H2 C2 1_555 1_555
C3 C2 1_555 1_555
C4 C3 1_555 1_555
H3 C4 1_555 1_555
C5 N1 1_555 1_555
H4 C5 1_555 1_555
S1A S1 1_555 1_555
N1A C1A 1_555 1_555
C1A H1A 1_555 1_555
C2A C1A 1_555 1_555
H2A C2A 1_555 1_555
C3A S1A 1_555 1_555
C4A C3A 1_555 1_555
H3A C4A 1_555 1_555
C5A N1A 1_555 1_555
H4A C5A 1_555 1_555
Br1A Zn1 1_555 1_555
Zn1_2 N1A 1_555 1_555
N1A_2 Zn1 1_555 1_555
C4 C5 1_555 1_555
C2A C3A 1_555 1_555
C4A C5A 1_555 1_555

#END
