
#######################################################################
#
#                 Cambridge Crystallographic Data Centre
#                                CCDC 
#
#######################################################################
#
# If this CIF has been generated from an entry in the Cambridge 
# Structural Database, then it will include bibliographic, chemical, 
# crystal, experimental, refinement or atomic coordinate data resulting 
# from the CCDC's data processing and validation procedures.
#
#######################################################################

data_REQDOH
_symmetry_cell_setting           triclinic
_symmetry_space_group_name_H-M   'P -1'
_symmetry_Int_Tables_number      2
_space_group_name_Hall           '-P 1'
loop_
_symmetry_equiv_pos_site_id
_symmetry_equiv_pos_as_xyz
1 x,y,z
2 -x,-y,-z
_cell_length_a                   11.4078(10)
_cell_length_b                   12.0644(10)
_cell_length_c                   13.0264(11)
_cell_angle_alpha                86.8270(10)
_cell_angle_beta                 67.1260(10)
_cell_angle_gamma                72.1370(10)
_cell_volume                     1568.01
loop_
_atom_site_label
_atom_site_type_symbol
_atom_site_fract_x
_atom_site_fract_y
_atom_site_fract_z
Er1 Er 0.585159(18) 0.558889(17) 0.361576(15)
Er2 Er 0.541545(18) 0.851451(17) 0.246463(16)
Er3 Er 0.545440(19) 0.239810(17) 0.379170(16)
O1 O 0.3805(3) 0.6158(3) 0.3385(3)
O2 O 0.3663(3) 0.7851(3) 0.2569(3)
O3 O -0.2482(3) 0.6393(3) 0.3663(3)
O4 O -0.2775(3) 0.8165(3) 0.2988(3)
O5 O 0.6560(3) 0.6439(3) 0.1991(3)
O6 O 0.6968(3) 0.7518(3) 0.0577(3)
O7 O 0.7418(3) 0.2342(3) 0.3805(3)
O8 O 0.7681(3) 0.4102(3) 0.3595(3)
O9 O 1.3892(3) 0.0031(3) 0.3672(3)
O10 O 1.3641(3) 0.1839(3) 0.4183(3)
O11 O 0.6165(3) 0.4078(3) 0.2283(3)
O12 O 0.4473(3) 0.3411(3) 0.2540(3)
O13 O 0.6675(3) 1.1432(3) 0.2107(3)
O14 O 0.6628(3) 0.9743(3) 0.1579(3)
C1 C 0.3199(4) 0.7031(4) 0.2999(4)
C2 C 0.1815(5) 0.7110(4) 0.3082(4)
C3 C 0.1188(5) 0.6310(4) 0.3679(4)
H1 H 0.1630 0.5725 0.4017
C4 C -0.0082(5) 0.6383(5) 0.3772(4)
H2 H -0.0490 0.5849 0.4177
C5 C -0.0764(5) 0.7250(4) 0.3264(4)
C6 C -0.0139(5) 0.8048(5) 0.2682(5)
H3 H -0.0582 0.8636 0.2347
C7 C 0.1133(5) 0.7984(5) 0.2591(5)
H4 H 0.1532 0.8528 0.2199
C8 C -0.2114(5) 0.7268(4) 0.3320(4)
C9 C 0.7342(4) 0.6606(4) 0.1018(4)
C10 C 0.8702(5) 0.5754(4) 0.0486(4)
C11 C 0.9165(6) 0.4816(6) 0.1027(5)
H5 H 0.8597 0.4689 0.1730
C12 C 0.9558(5) 0.5938(5) -0.0556(5)
H6 H 0.9268 0.6569 -0.0936
C13 C 0.8114(4) 0.3034(4) 0.3636(4)
C14 C 0.9522(4) 0.2489(4) 0.3550(4)
C15 C 0.9986(5) 0.1304(5) 0.3687(5)
H7 H 0.9461 0.0828 0.3748
C16 C 1.1242(5) 0.0836(5) 0.3730(5)
H8 H 1.1564 0.0045 0.3818
C17 C 1.2007(5) 0.1565(4) 0.3640(4)
C18 C 1.1561(5) 0.2738(4) 0.3453(4)
H9 H 1.2094 0.3212 0.3372
C19 C 1.0328(5) 0.3197(4) 0.3389(4)
H10 H 1.0038 0.3974 0.3239
C20 C 1.3278(4) 0.1109(4) 0.3821(3)
C21 C 0.5257(5) 0.3976(4) 0.1991(4)
C22 C 0.5119(5) 0.4516(4) 0.0959(4)
C23 C 0.6232(5) 0.4685(4) 0.0091(4)
H11 H 0.7057 0.4473 0.0152
C24 C 0.3901(5) 0.4827(5) 0.0864(4)
H12 H 0.3163 0.4709 0.1442
C25 C 0.7216(4) 1.0488(4) 0.1521(4)
C26 C 0.8652(4) 1.0235(4) 0.0717(4)
C27 C 0.9353(5) 1.0999(5) 0.0705(5)
H13 H 0.8919 1.1684 0.1170
C28 C 0.9302(5) 0.9249(5) -0.0004(5)
H14 H 0.8838 0.8743 -0.0025
O15 O 0.4823(3) 0.7611(3) 0.4228(3)
H15 H 0.407(4) 0.780(5) 0.440(5)
O16 O 0.4555(3) 0.4311(3) 0.4533(2)
H16 H 0.390(5) 0.456(6) 0.446(5)
O17 O 0.4358(4) 0.9591(4) 0.1327(3)
H17 H 0.435(6) 1.025(4) 0.113(5)
H18 H 0.415(9) 0.930(8) 0.092(7)
O18 O 0.6329(4) 0.0421(3) 0.4151(3)
H19 H 0.669(6) -0.019(4) 0.377(5)
H20 H 0.620(6) 0.033(6) 0.474(4)
Er1_2 Er 1.585159(18) 0.558889(17) 0.361576(15)
Er1_3 Er -0.414841(18) 0.558889(17) 0.361576(15)
Er1A Er 0.414841(18) 0.441111(17) 0.638424(15)
Er1A_2 Er 1.414841(18) 0.441111(17) -0.361576(15)
Er1A_3 Er 0.414841(18) 0.441111(17) -0.361576(15)
Er1_4 Er -0.414841(18) 1.558889(17) 0.361576(15)
Er2_2 Er 1.541545(18) 0.851451(17) 0.246463(16)
Er2_3 Er -0.458455(18) 0.851451(17) 0.246463(16)
Er2_4 Er 1.541545(18) -0.148549(17) 0.246463(16)
Er2A Er 1.458455(18) 0.148549(17) -0.246463(16)
Er2A_2 Er 1.458455(18) 1.148549(17) -0.246463(16)
Er2A_3 Er 0.458455(18) 0.148549(17) 0.753537(16)
Er3_2 Er 1.545440(19) 0.239810(17) 0.379170(16)
Er3_3 Er 0.545440(19) 1.239810(17) 0.379170(16)
Er3A Er 0.454560(19) 0.760190(17) 0.620830(16)
Er3A_2 Er 0.454560(19) 0.760190(17) -0.379170(16)
Er3A_3 Er 1.454560(19) 0.760190(17) -0.379170(16)
Er3_4 Er -0.454560(19) 1.239810(17) 0.379170(16)
O1_2 O 1.3805(3) 0.6158(3) 0.3385(3)
O2_2 O 1.3663(3) 0.7851(3) 0.2569(3)
O3_2 O 0.7518(3) 0.6393(3) 0.3663(3)
O3_3 O 1.7518(3) 0.6393(3) 0.3663(3)
O4_2 O 0.7225(3) 0.8165(3) 0.2988(3)
O4_3 O 1.7225(3) 0.8165(3) 0.2988(3)
O5A O 1.3440(3) 0.3561(3) -0.1991(3)
O5_2 O 1.6560(3) 0.6439(3) 0.1991(3)
O6A O 1.3032(3) 0.2482(3) -0.0577(3)
O6_2 O 1.6968(3) 0.7518(3) 0.0577(3)
O7_2 O -0.2582(3) 1.2342(3) 0.3805(3)
O7_3 O 1.7418(3) 0.2342(3) 0.3805(3)
O8_2 O -0.2319(3) 1.4102(3) 0.3595(3)
O8_3 O 1.7681(3) 0.4102(3) 0.3595(3)
O9_2 O 0.3892(3) 1.0031(3) 0.3672(3)
O9_3 O 1.3892(3) 1.0031(3) 0.3672(3)
O10_2 O 0.3641(3) 1.1839(3) 0.4183(3)
O10_3 O 0.3641(3) 0.1839(3) 0.4183(3)
O11A O 0.3835(3) 0.5922(3) -0.2283(3)
O11_2 O 1.6165(3) 0.4078(3) 0.2283(3)
O12A O 0.5527(3) 0.6589(3) -0.2540(3)
O12_2 O 1.4473(3) 0.3411(3) 0.2540(3)
O13A O 1.3325(3) 0.8568(3) -0.2107(3)
O13_2 O 0.6675(3) 0.1432(3) 0.2107(3)
O13_3 O 1.6675(3) 0.1432(3) 0.2107(3)
O14A O 1.3372(3) 1.0257(3) -0.1579(3)
O14_2 O 1.6628(3) 0.9743(3) 0.1579(3)
C1_2 C 1.3199(4) 0.7031(4) 0.2999(4)
C2_2 C 1.1815(5) 0.7110(4) 0.3082(4)
C3_2 C 1.1188(5) 0.6310(4) 0.3679(4)
H1_2 H 1.1630 0.5725 0.4017
C4_2 C 0.9918(5) 0.6383(5) 0.3772(4)
H2_2 H 0.9510 0.5849 0.4177
C5_2 C 0.9236(5) 0.7250(4) 0.3264(4)
C6_2 C 0.9861(5) 0.8048(5) 0.2682(5)
H3_2 H 0.9418 0.8636 0.2347
C7_2 C 1.1133(5) 0.7984(5) 0.2591(5)
H4_2 H 1.1532 0.8528 0.2199
C8_2 C 0.7886(5) 0.7268(4) 0.3320(4)
C9A C 1.2658(4) 0.3394(4) -0.1018(4)
C10A C 1.1298(5) 0.4246(4) -0.0486(4)
C11A C 1.0835(6) 0.5184(6) -0.1027(5)
H5A H 1.1403 0.5311 -0.1730
C12A C 1.0442(5) 0.4062(5) 0.0556(5)
H6A H 1.0732 0.3431 0.0936
C13_2 C -0.1886(4) 1.3034(4) 0.3636(4)
C14_2 C -0.0478(4) 1.2489(4) 0.3550(4)
C15_2 C -0.0014(5) 1.1304(5) 0.3687(5)
H7_2 H -0.0539 1.0828 0.3748
C16_2 C 0.1242(5) 1.0836(5) 0.3730(5)
H8_2 H 0.1564 1.0045 0.3818
C17_2 C 0.2007(5) 1.1565(4) 0.3640(4)
C18_2 C 0.1561(5) 1.2738(4) 0.3453(4)
H9_2 H 0.2094 1.3212 0.3372
C19_2 C 0.0328(5) 1.3197(4) 0.3389(4)
H10_2 H 0.0038 1.3974 0.3239
C20_2 C 0.3278(4) 1.1109(4) 0.3821(3)
C21A C 0.4743(5) 0.6024(4) -0.1991(4)
C22A C 0.4881(5) 0.5484(4) -0.0959(4)
C23A C 0.3768(5) 0.5315(4) -0.0091(4)
H11A H 0.2943 0.5527 -0.0152
C24A C 0.6099(5) 0.5173(5) -0.0864(4)
H12A H 0.6837 0.5291 -0.1442
C25A C 1.2784(4) 0.9512(4) -0.1521(4)
C26A C 1.1348(4) 0.9765(4) -0.0717(4)
C27A C 1.0647(5) 0.9001(5) -0.0705(5)
H13A H 1.1081 0.8316 -0.1170
C28A C 1.0698(5) 1.0751(5) 0.0004(5)
H14A H 1.1162 1.1257 0.0025
O15A O 0.5177(3) 0.2389(3) 0.5772(3)
O15_2 O 1.4823(3) 0.7611(3) 0.4228(3)
O15A_2 O 1.5177(3) 0.2389(3) 0.5772(3)
H15A H 0.593(4) 0.220(5) 0.560(5)
H15_2 H 1.407(4) 0.780(5) 0.440(5)
H15A_2 H 1.593(4) 0.220(5) 0.560(5)
O16A O 0.5445(3) 0.5689(3) 0.5467(2)
O16_2 O 1.4555(3) 0.4311(3) 0.4533(2)
O16A_2 O 1.5445(3) 0.5689(3) 0.5467(2)
H16A H 0.610(5) 0.544(6) 0.554(5)
H16_2 H 1.390(5) 0.456(6) 0.446(5)
H16A_2 H 1.610(5) 0.544(6) 0.554(5)
O17_2 O 1.4358(4) 0.9591(4) 0.1327(3)
H17_2 H 1.435(6) 1.025(4) 0.113(5)
H18_2 H 1.415(9) 0.930(8) 0.092(7)
O18_2 O 1.6329(4) 0.0421(3) 0.4151(3)
H19_2 H 1.669(6) -0.019(4) 0.377(5)
H20_2 H 1.620(6) 0.033(6) 0.474(4)
O19 O 0.5452(6) 0.8234(4) 0.9170(4)
H21 H 0.596(6) 0.778(6) 0.943(6)
H22 H 0.542(8) 0.782(6) 0.869(6)
loop_
_geom_bond_atom_site_label_1
_geom_bond_atom_site_label_2
_geom_bond_site_symmetry_1
_geom_bond_site_symmetry_2
Er1 O1 1_555 1_555
Er2 O2 1_555 1_555
Er3 O7 1_555 1_555
O1 C1 1_555 1_555
O2 C1 1_555 1_555
O3 C8 1_555 1_555
O4 C8 1_555 1_555
O5 Er1 1_555 1_555
O6 Er2 1_555 1_555
O7 C13 1_555 1_555
O8 Er1 1_555 1_555
O9 C20 1_555 1_555
O10 C20 1_555 1_555
O11 Er1 1_555 1_555
O12 Er3 1_555 1_555
O13 C25 1_555 1_555
O14 Er2 1_555 1_555
C1 C2 1_555 1_555
C2 C3 1_555 1_555
C3 H1 1_555 1_555
C4 C3 1_555 1_555
H2 C4 1_555 1_555
C5 C4 1_555 1_555
C6 C5 1_555 1_555
H3 C6 1_555 1_555
C7 C2 1_555 1_555
H4 C7 1_555 1_555
C8 C5 1_555 1_555
C9 O5 1_555 1_555
C10 C9 1_555 1_555
C11 C10 1_555 1_555
H5 C11 1_555 1_555
C12 C10 1_555 1_555
H6 C12 1_555 1_555
C13 O8 1_555 1_555
C14 C13 1_555 1_555
C15 C14 1_555 1_555
H7 C15 1_555 1_555
C16 C15 1_555 1_555
H8 C16 1_555 1_555
C17 C16 1_555 1_555
C18 C17 1_555 1_555
H9 C18 1_555 1_555
C19 C14 1_555 1_555
H10 C19 1_555 1_555
C20 C17 1_555 1_555
C21 O11 1_555 1_555
C22 C21 1_555 1_555
C23 C22 1_555 1_555
H11 C23 1_555 1_555
C24 C22 1_555 1_555
H12 C24 1_555 1_555
C25 O14 1_555 1_555
C26 C25 1_555 1_555
C27 C26 1_555 1_555
H13 C27 1_555 1_555
C28 C26 1_555 1_555
H14 C28 1_555 1_555
O15 Er1 1_555 1_555
H15 O15 1_555 1_555
O16 Er1 1_555 1_555
H16 O16 1_555 1_555
O17 Er2 1_555 1_555
H17 O17 1_555 1_555
H18 O17 1_555 1_555
O18 Er3 1_555 1_555
H19 O18 1_555 1_555
H20 O18 1_555 1_555
O19 H21 1_555 1_555
H22 O19 1_555 1_555
Er1_2 O1_2 1_555 1_555
Er1_3 O3 1_555 1_555
Er1A O16 1_555 1_555
Er1A_2 O5A 1_555 1_555
Er1A_3 O11A 1_555 1_555
Er1_4 O8_2 1_555 1_555
Er2_2 O2_2 1_555 1_555
Er2_3 O4 1_555 1_555
Er2_4 O9 1_555 1_555
Er2A O5A 1_555 1_555
Er2A_2 O14A 1_555 1_555
Er2A_3 O15A 1_555 1_555
Er3_2 O10 1_555 1_555
Er3_3 O13 1_555 1_555
Er3A O15 1_555 1_555
Er3A_2 O12A 1_555 1_555
Er3A_3 O13A 1_555 1_555
Er3_4 O7_2 1_555 1_555
O1_2 C1_2 1_555 1_555
O2_2 C1_2 1_555 1_555
O3_2 Er1 1_555 1_555
O3_3 Er1_2 1_555 1_555
O4_2 Er2 1_555 1_555
O4_3 Er2_2 1_555 1_555
O5A C9A 1_555 1_555
O5_2 Er1_2 1_555 1_555
O6A Er2A 1_555 1_555
O6_2 Er2_2 1_555 1_555
O7_2 C13_2 1_555 1_555
O7_3 Er3_2 1_555 1_555
O8_2 C13_2 1_555 1_555
O8_3 Er1_2 1_555 1_555
O9_2 Er2 1_555 1_555
O9_3 Er2_2 1_555 1_555
O10_2 Er3_3 1_555 1_555
O10_3 Er3 1_555 1_555
O11A C21A 1_555 1_555
O11_2 Er1_2 1_555 1_555
O12A C21A 1_555 1_555
O12_2 Er3_2 1_555 1_555
O13A C25A 1_555 1_555
O13_2 Er3 1_555 1_555
O13_3 Er3_2 1_555 1_555
O14A C25A 1_555 1_555
O14_2 Er2_2 1_555 1_555
C1_2 C2_2 1_555 1_555
C2_2 C3_2 1_555 1_555
C3_2 H1_2 1_555 1_555
C4_2 C3_2 1_555 1_555
H2_2 C4_2 1_555 1_555
C5_2 C4_2 1_555 1_555
C6_2 C5_2 1_555 1_555
H3_2 C6_2 1_555 1_555
C7_2 C2_2 1_555 1_555
H4_2 C7_2 1_555 1_555
C8_2 O3_2 1_555 1_555
C9A O6A 1_555 1_555
C10A C9A 1_555 1_555
C11A C12 1_555 1_555
H5A C11A 1_555 1_555
C12A C11 1_555 1_555
H6A C12A 1_555 1_555
C13_2 C14_2 1_555 1_555
C14_2 C15_2 1_555 1_555
C15_2 H7_2 1_555 1_555
C16_2 C15_2 1_555 1_555
H8_2 C16_2 1_555 1_555
C17_2 C16_2 1_555 1_555
C18_2 C17_2 1_555 1_555
H9_2 C18_2 1_555 1_555
C19_2 C14_2 1_555 1_555
H10_2 C19_2 1_555 1_555
C20_2 O9_2 1_555 1_555
C21A C22A 1_555 1_555
C22A C23A 1_555 1_555
C23A C24 1_555 1_555
H11A C23A 1_555 1_555
C24A C23 1_555 1_555
H12A C24A 1_555 1_555
C25A C26A 1_555 1_555
C26A C27A 1_555 1_555
C27A C28 1_555 1_555
H13A C27A 1_555 1_555
C28A C27 1_555 1_555
H14A C28A 1_555 1_555
O15A Er3 1_555 1_555
O15_2 Er1_2 1_555 1_555
O15A_2 Er3_2 1_555 1_555
H15A O15A 1_555 1_555
H15_2 O15_2 1_555 1_555
H15A_2 O15A_2 1_555 1_555
O16A Er1 1_555 1_555
O16_2 Er1_2 1_555 1_555
O16A_2 Er1_2 1_555 1_555
H16A O16A 1_555 1_555
H16_2 O16_2 1_555 1_555
H16A_2 O16A_2 1_555 1_555
O17_2 Er2_2 1_555 1_555
H17_2 O17_2 1_555 1_555
H18_2 O17_2 1_555 1_555
O18_2 Er3_2 1_555 1_555
H19_2 O18_2 1_555 1_555
H20_2 O18_2 1_555 1_555
Er2 O5 1_555 1_555
Er2 O15 1_555 1_555
Er3 O16 1_555 1_555
O6 C9 1_555 1_555
O12 C21 1_555 1_555
C6 C7 1_555 1_555
C18 C19 1_555 1_555
Er1A O15A 1_555 1_555
Er1A O16A 1_555 1_555
Er2_2 O5_2 1_555 1_555
Er2_2 O15_2 1_555 1_555
Er3_2 O16_2 1_555 1_555
Er3A O16A 1_555 1_555
O4_2 C8_2 1_555 1_555
O10_2 C20_2 1_555 1_555
C5_2 C8_2 1_555 1_555
C6_2 C7_2 1_555 1_555
C10A C11A 1_555 1_555
C10A C12A 1_555 1_555
C17_2 C20_2 1_555 1_555
C18_2 C19_2 1_555 1_555
C22A C24A 1_555 1_555
C26A C28A 1_555 1_555

#END
