
#######################################################################
#
#                 Cambridge Crystallographic Data Centre
#                                CCDC 
#
#######################################################################
#
# If this CIF has been generated from an entry in the Cambridge 
# Structural Database, then it will include bibliographic, chemical, 
# crystal, experimental, refinement or atomic coordinate data resulting 
# from the CCDC's data processing and validation procedures.
#
#######################################################################

data_REQKUV
_symmetry_cell_setting           monoclinic
_symmetry_space_group_name_H-M   'P 21/c'
_symmetry_Int_Tables_number      14
_space_group_name_Hall           '-P 2ybc'
loop_
_symmetry_equiv_pos_site_id
_symmetry_equiv_pos_as_xyz
1 x,y,z
2 -x,1/2+y,1/2-z
3 -x,-y,-z
4 x,1/2-y,1/2+z
_cell_length_a                   10.3846(5)
_cell_length_b                   11.3473(6)
_cell_length_c                   13.9909(5)
_cell_angle_alpha                90
_cell_angle_beta                 99.705(3)
_cell_angle_gamma                90
_cell_volume                     1625.05
loop_
_atom_site_label
_atom_site_type_symbol
_atom_site_fract_x
_atom_site_fract_y
_atom_site_fract_z
Zn1 Zn 0.59529(3) 0.57077(3) 0.27179(2)
O1 O 0.4092(2) 0.64483(19) 0.21850(13)
O2 O 0.3876(2) 0.50293(19) 0.31783(15)
O3 O 0.2182(2) 0.6086(2) 0.25604(18)
O4 O 0.6739(2) 0.69865(18) 0.19471(13)
O5 O 0.8556(2) 0.7796(2) 0.17269(16)
O6 O 0.8578(2) 0.6450(2) 0.28151(17)
N1 N 0.7163(2) 0.4661(2) 0.37432(15)
N2 N 0.5985(2) 0.6699(2) 0.40395(15)
N3 N 0.4251(2) 0.9467(2) 0.34140(15)
N4 N 0.3343(3) 0.5846(2) 0.26441(18)
N5 N 0.7993(3) 0.7087(2) 0.21737(18)
C1 C 0.7825(3) 0.3703(3) 0.3576(2)
H1 H 0.7652 0.3359 0.2948
C2 C 0.8760(3) 0.3181(3) 0.4276(2)
H2 H 0.9211 0.2493 0.4130
C3 C 0.9020(3) 0.3678(3) 0.5185(2)
H3 H 0.9657 0.3343 0.5677
C4 C 0.8332(3) 0.4684(3) 0.5371(2)
H4 H 0.8484 0.5041 0.5994
C5 C 0.7429(3) 0.5151(3) 0.46376(19)
C6 C 0.6695(3) 0.6232(3) 0.4778(2)
H5 H 0.6748 0.6574 0.5403
C7 C 0.5189(3) 0.7688(2) 0.41490(18)
C8 C 0.4505(3) 0.7829(3) 0.49129(19)
H6 H 0.4587 0.7268 0.5423
C9 C 0.3705(3) 0.8800(3) 0.49174(19)
H7 H 0.3226 0.8914 0.5432
C10 C 0.3606(3) 0.9600(2) 0.41697(19)
H8 H 0.3064 1.0271 0.4185
C11 C 0.5024(3) 0.8525(2) 0.34121(18)
H9 H 0.5480 0.8423 0.2884
Zn1A Zn 0.40471(3) 1.07077(3) 0.22821(2)
N3A N 0.5749(2) 0.4467(2) 0.15860(15)
N6 N 0.1724(4) 1.1039(3) 0.5526(3)
C12 C 0.0933(4) 1.0863(3) 0.5971(3)
C13 C -0.0103(4) 1.0649(4) 0.6528(3)
H10 H -0.0049 1.1230 0.7052
H11 H -0.0009 0.9854 0.6806
H12 H -0.0952 1.0717 0.6103
loop_
_geom_bond_atom_site_label_1
_geom_bond_atom_site_label_2
_geom_bond_site_symmetry_1
_geom_bond_site_symmetry_2
Zn1 O1 1_555 1_555
O1 N4 1_555 1_555
O2 Zn1 1_555 1_555
O3 N4 1_555 1_555
O4 Zn1 1_555 1_555
O5 N5 1_555 1_555
O6 N5 1_555 1_555
N1 Zn1 1_555 1_555
N2 Zn1 1_555 1_555
N3 C10 1_555 1_555
N4 O2 1_555 1_555
N5 O4 1_555 1_555
C1 N1 1_555 1_555
H1 C1 1_555 1_555
C2 C1 1_555 1_555
H2 C2 1_555 1_555
C3 C2 1_555 1_555
H3 C3 1_555 1_555
C4 C3 1_555 1_555
H4 C4 1_555 1_555
C5 N1 1_555 1_555
C6 N2 1_555 1_555
H5 C6 1_555 1_555
C7 N2 1_555 1_555
C8 C7 1_555 1_555
H6 C8 1_555 1_555
C9 C8 1_555 1_555
H7 C9 1_555 1_555
C10 C9 1_555 1_555
H8 C10 1_555 1_555
C11 N3 1_555 1_555
H9 C11 1_555 1_555
N6 C12 1_555 1_555
C12 C13 1_555 1_555
C13 H10 1_555 1_555
H11 C13 1_555 1_555
H12 C13 1_555 1_555
Zn1A N3 1_555 1_555
N3A Zn1 1_555 1_555
C4 C5 1_555 1_555
C5 C6 1_555 1_555
C7 C11 1_555 1_555

#END
