
#######################################################################
#
#                 Cambridge Crystallographic Data Centre
#                                CCDC 
#
#######################################################################
#
# If this CIF has been generated from an entry in the Cambridge 
# Structural Database, then it will include bibliographic, chemical, 
# crystal, experimental, refinement or atomic coordinate data resulting 
# from the CCDC's data processing and validation procedures.
#
#######################################################################

data_REQKEF
_symmetry_cell_setting           triclinic
_symmetry_space_group_name_H-M   'P -1'
_symmetry_Int_Tables_number      2
_space_group_name_Hall           '-P 1'
loop_
_symmetry_equiv_pos_site_id
_symmetry_equiv_pos_as_xyz
1 x,y,z
2 -x,-y,-z
_cell_length_a                   9.9900(12)
_cell_length_b                   11.2000(14)
_cell_length_c                   17.2000(16)
_cell_angle_alpha                90.790(5)
_cell_angle_beta                 95.380(5)
_cell_angle_gamma                101.150(10)
_cell_volume                     1878.83
loop_
_atom_site_label
_atom_site_type_symbol
_atom_site_fract_x
_atom_site_fract_y
_atom_site_fract_z
Ni1 Ni 0.38240(4) 0.67199(4) 0.21499(2)
Ni2 Ni 0.11199(4) 0.50641(4) 0.17101(2)
Ni3 Ni 0.02888(4) 0.26038(4) 0.25014(2)
Ni4 Ni 0.0000 0.5000 0.0000
Ni5 Ni -0.07112(4) 0.01176(4) 0.32483(2)
Ni6 Ni -0.32804(4) -0.14417(4) 0.25387(2)
Ni7 Ni 0.0000 0.0000 0.5000
Ni8 Ni 0.02915(4) -0.23911(4) 0.25154(2)
O1 O 0.0918(2) -0.0141(2) 0.39958(12)
O2 O 0.0201(2) 0.1807(2) 0.48877(13)
O3 O 0.1737(2) 0.0220(2) 0.57684(13)
O4 O -0.0160(2) 0.1935(2) 0.35870(12)
O5 O 0.0392(2) 0.0761(2) 0.23530(13)
O6 O -0.1312(2) -0.1642(2) 0.29247(13)
O7 O -0.2504(2) 0.0438(2) 0.26326(13)
O8 O 0.3749(2) 0.1279(2) 0.62885(13)
O9 O -0.2640(3) -0.1357(2) 0.14227(14)
O10 O -0.0037(3) 0.6156(2) 0.32557(15)
O11 O 0.0757(3) -0.0951(2) 0.17876(14)
O12 O 0.2318(3) 0.3059(2) 0.28355(14)
O13 O 0.0184(2) 0.4439(2) 0.26548(13)
O14 O 0.0629(2) 0.3213(2) 0.13900(12)
O15 O -0.1719(2) 0.2243(2) 0.21269(14)
O16 O 0.2982(2) 0.4854(2) 0.22861(13)
O17 O 0.1796(2) 0.6870(2) 0.19699(13)
O18 O 0.1869(2) 0.5312(2) 0.06497(12)
O19 O 0.0689(2) 0.4817(2) -0.10705(12)
O20 O 0.3757(3) 0.7089(2) 0.33565(14)
O21 O 0.5888(2) 0.6742(2) 0.24402(14)
O22 O -0.5301(2) -0.1462(2) 0.21074(14)
O23 O 0.3986(2) 0.6330(2) 0.09954(13)
O24 O -0.0167(2) 0.3214(2) 0.01270(13)
O25 O -0.6135(3) -0.0655(3) 0.10205(16)
O26 O 0.7042(3) 0.6199(3) 0.35049(16)
O27 O 0.1266(3) 0.3214(2) -0.16399(14)
O28 O 0.1855(3) -0.1489(2) 0.33818(14)
C1 C 0.2948(3) 0.0804(3) 0.57094(18)
C2 C 0.3414(3) 0.0893(3) 0.48963(19)
H1 H 0.4400 0.1272 0.4935
H2 H 0.2906 0.1434 0.4590
C3 C 0.3199(4) -0.0346(4) 0.4454(2)
H3 H 0.3990 -0.0344 0.4147
H4 H 0.3209 -0.0987 0.4844
C4 C 0.1898(3) -0.0697(3) 0.39053(18)
C5 C 0.0063(3) 0.2404(3) 0.42820(17)
C6 C 0.0142(4) 0.3753(3) 0.43942(19)
H5 H 0.1082 0.4182 0.4317
H6 H -0.0021 0.3924 0.4940
C7 C -0.0894(4) 0.4277(3) 0.38348(18)
H7 H -0.1594 0.3598 0.3586
H8 H -0.1369 0.4793 0.4141
C8 C -0.0205(3) 0.5026(3) 0.32065(18)
C9 C 0.0789(3) 0.0165(3) 0.18029(18)
C10 C 0.1282(4) 0.0877(3) 0.11110(19)
H9 H 0.1690 0.0355 0.0770
H10 H 0.2004 0.1586 0.1297
C11 C 0.0097(4) 0.1327(3) 0.06362(19)
H11 H 0.0105 0.1111 0.0077
H12 H -0.0784 0.0900 0.0807
C12 C 0.0184(3) 0.2685(3) 0.07258(18)
C13 C -0.2658(3) 0.1363(3) 0.22306(18)
C14 C -0.4056(4) 0.1480(4) 0.1851(3)
H13 H -0.4076 0.1316 0.1282
H14 H -0.4157 0.2335 0.1923
C15 C 0.3202(3) 0.3958(3) 0.27067(18)
C16 C 0.4638(4) 0.3977(3) 0.3084(2)
H15 H 0.4749 0.3126 0.3163
H16 H 0.4735 0.4383 0.3607
C17 C 0.5802(4) 0.4617(3) 0.2625(2)
H17 H 0.6578 0.4184 0.2694
H18 H 0.5476 0.4577 0.2062
C18 C 0.6300(3) 0.5943(3) 0.2891(2)
C19 C -0.5623(3) -0.0564(3) 0.1711(2)
C20 C -0.5295(4) 0.0661(3) 0.2141(2)
H19 H -0.5110 0.0542 0.2707
H20 H -0.6097 0.1061 0.2065
C21 C 0.3083(3) 0.5793(3) 0.04999(18)
C22 C 0.3393(3) 0.5645(3) -0.03412(19)
H21 H 0.4395 0.5882 -0.0367
H22 H 0.2948 0.6206 -0.0669
C23 C 0.2899(3) 0.4338(3) -0.06794(19)
H23 H 0.3595 0.4142 -0.1008
H24 H 0.2848 0.3772 -0.0241
C24 C 0.1519(3) 0.4099(3) -0.11654(18)
Ni1A Ni -0.38240(4) -0.67199(4) -0.21499(2)
Ni2A Ni -0.11199(4) -0.50641(4) -0.17101(2)
Ni3A Ni -0.02888(4) -0.26038(4) -0.25014(2)
Ni5A Ni 0.07112(4) -0.01176(4) -0.32483(2)
Ni6A Ni 0.32804(4) 0.14417(4) -0.25387(2)
Ni8A Ni -0.02915(4) 0.23911(4) -0.25154(2)
O1A O -0.0918(2) 0.0141(2) -0.39958(12)
O2A O -0.0201(2) -0.1807(2) -0.48877(13)
O3A O -0.1737(2) -0.0220(2) -0.57684(13)
O4A O 0.0160(2) -0.1935(2) -0.35870(12)
O5A O -0.0392(2) -0.0761(2) -0.23530(13)
O6A O 0.1312(2) 0.1642(2) -0.29247(13)
O7A O 0.2504(2) -0.0438(2) -0.26326(13)
O8A O -0.3749(2) -0.1279(2) -0.62885(13)
O9A O 0.2640(3) 0.1357(2) -0.14227(14)
O10A O 0.0037(3) -0.6156(2) -0.32557(15)
O11A O -0.0757(3) 0.0951(2) -0.17876(14)
O12A O -0.2318(3) -0.3059(2) -0.28355(14)
O13A O -0.0184(2) -0.4439(2) -0.26548(13)
O14A O -0.0629(2) -0.3213(2) -0.13900(12)
O15A O 0.1719(2) -0.2243(2) -0.21269(14)
O16A O -0.2982(2) -0.4854(2) -0.22861(13)
O17A O -0.1796(2) -0.6870(2) -0.19699(13)
O18A O -0.1869(2) -0.5312(2) -0.06497(12)
O19A O -0.0689(2) -0.4817(2) 0.10705(12)
O20A O -0.3757(3) -0.7089(2) -0.33565(14)
O21A O -0.5888(2) -0.6742(2) -0.24402(14)
O22A O 0.5301(2) 0.1462(2) -0.21074(14)
O23A O -0.3986(2) -0.6330(2) -0.09954(13)
O24A O 0.0167(2) -0.3214(2) -0.01270(13)
O25A O 0.6135(3) 0.0655(3) -0.10205(16)
O26A O -0.7042(3) -0.6199(3) -0.35049(16)
O27A O -0.1266(3) -0.3214(2) 0.16399(14)
O28A O -0.1855(3) 0.1489(2) -0.33818(14)
C1A C -0.2948(3) -0.0804(3) -0.57094(18)
C2A C -0.3414(3) -0.0893(3) -0.48963(19)
H1A H -0.4400 -0.1272 -0.4935
H2A H -0.2906 -0.1434 -0.4590
C3A C -0.3199(4) 0.0346(4) -0.4454(2)
H3A H -0.3990 0.0344 -0.4147
H4A H -0.3209 0.0987 -0.4844
C4A C -0.1898(3) 0.0697(3) -0.39053(18)
C5A C -0.0063(3) -0.2404(3) -0.42820(17)
C6A C -0.0142(4) -0.3753(3) -0.43942(19)
H5A H -0.1082 -0.4182 -0.4317
H6A H 0.0021 -0.3924 -0.4940
C7A C 0.0894(4) -0.4277(3) -0.38348(18)
H7A H 0.1594 -0.3598 -0.3586
H8A H 0.1369 -0.4793 -0.4141
C8A C 0.0205(3) -0.5026(3) -0.32065(18)
C9A C -0.0789(3) -0.0165(3) -0.18029(18)
C10A C -0.1282(4) -0.0877(3) -0.11110(19)
H9A H -0.1690 -0.0355 -0.0770
H10A H -0.2004 -0.1586 -0.1297
C11A C -0.0097(4) -0.1327(3) -0.06362(19)
H11A H -0.0105 -0.1111 -0.0077
H12A H 0.0784 -0.0900 -0.0807
C12A C -0.0184(3) -0.2685(3) -0.07258(18)
C13A C 0.2658(3) -0.1363(3) -0.22306(18)
C14A C 0.4056(4) -0.1480(4) -0.1851(3)
H13A H 0.4076 -0.1316 -0.1282
H14A H 0.4157 -0.2335 -0.1923
C15A C -0.3202(3) -0.3958(3) -0.27067(18)
C16A C -0.4638(4) -0.3977(3) -0.3084(2)
H15A H -0.4749 -0.3126 -0.3163
H16A H -0.4735 -0.4383 -0.3607
C17A C -0.5802(4) -0.4617(3) -0.2625(2)
H17A H -0.6578 -0.4184 -0.2694
H18A H -0.5476 -0.4577 -0.2062
C18A C -0.6300(3) -0.5943(3) -0.2891(2)
C19A C 0.5623(3) 0.0564(3) -0.1711(2)
C20A C 0.5295(4) -0.0661(3) -0.2141(2)
H19A H 0.5110 -0.0542 -0.2707
H20A H 0.6097 -0.1061 -0.2065
C21A C -0.3083(3) -0.5793(3) -0.04999(18)
C22A C -0.3393(3) -0.5645(3) 0.03412(19)
H21A H -0.4395 -0.5882 0.0367
H22A H -0.2948 -0.6206 0.0669
C23A C -0.2899(3) -0.4338(3) 0.06794(19)
H23A H -0.3595 -0.4142 0.1008
H24A H -0.2848 -0.3772 0.0241
C24A C -0.1519(3) -0.4099(3) 0.11654(18)
Ni1_2 Ni -0.61760(4) -0.32801(4) 0.21499(2)
Ni1A_2 Ni 0.61760(4) 0.32801(4) -0.21499(2)
Ni2_2 Ni 0.11199(4) -0.49359(4) 0.17101(2)
Ni2A_2 Ni -0.11199(4) 0.49359(4) -0.17101(2)
Ni4_2 Ni 0.0000 -0.5000 0.0000
Ni5_2 Ni -0.07112(4) 0.01176(4) -0.67517(2)
Ni5A_2 Ni 0.07112(4) -0.01176(4) 0.67517(2)
Ni6_2 Ni -0.32804(4) -0.14417(4) -0.74613(2)
Ni6_3 Ni 0.67196(4) 0.85583(4) 0.25387(2)
Ni6A_2 Ni -0.67196(4) -0.85583(4) -0.25387(2)
Ni6A_3 Ni 0.32804(4) 0.14417(4) 0.74613(2)
Ni7_2 Ni 0.0000 0.0000 -0.5000
Ni8_2 Ni 0.02915(4) 0.76089(4) 0.25154(2)
Ni8A_2 Ni -0.02915(4) -0.76089(4) -0.25154(2)
O1A_2 O -0.0918(2) 0.0141(2) 0.60042(12)
O2A_2 O -0.0201(2) -0.1807(2) 0.51123(13)
O3_2 O 0.1737(2) 0.0220(2) -0.42316(13)
O3A_2 O -0.1737(2) -0.0220(2) 0.42316(13)
O8_2 O 0.3749(2) 0.1279(2) -0.37115(13)
O8A_2 O -0.3749(2) -0.1279(2) 0.37115(13)
O10_2 O -0.0037(3) -0.3844(2) 0.32557(15)
O10A_2 O 0.0037(3) 0.3844(2) -0.32557(15)
O17_2 O 0.1796(2) -0.3130(2) 0.19699(13)
O17A_2 O -0.1796(2) 0.3130(2) -0.19699(13)
O18A_2 O -0.1869(2) 0.4688(2) -0.06497(12)
O19_2 O 0.0689(2) -0.5183(2) -0.10705(12)
O19A_2 O -0.0689(2) 0.5183(2) 0.10705(12)
O21_2 O -0.4112(2) -0.3258(2) 0.24402(14)
O21A_2 O 0.4112(2) 0.3258(2) -0.24402(14)
O22_2 O 0.4699(2) 0.8538(2) 0.21074(14)
O22A_2 O -0.4699(2) -0.8538(2) -0.21074(14)
O24A_2 O 0.0167(2) 0.6786(2) -0.01270(13)
O29 O -0.4259(3) -0.1430(3) 0.00333(17)
H25 H -0.409(8) -0.079(7) -0.032(5)
H26 H -0.494(10) -0.145(9) 0.022(6)
O30 O 0.3679(12) -0.1857(11) 0.6087(6)
O31 O 0.6549(5) 0.6119(4) 0.5021(2)
O32 O 0.3742(5) 0.6350(4) 0.4932(2)
loop_
_geom_bond_atom_site_label_1
_geom_bond_atom_site_label_2
_geom_bond_site_symmetry_1
_geom_bond_site_symmetry_2
Ni1 O16 1_555 1_555
Ni2 O13 1_555 1_555
Ni3 O4 1_555 1_555
Ni4 O18 1_555 1_555
Ni5 O1 1_555 1_555
Ni6 O6 1_555 1_555
Ni7 O1 1_555 1_555
Ni8 O6 1_555 1_555
O1 C4 1_555 1_555
O2 Ni7 1_555 1_555
O3 Ni7 1_555 1_555
O4 Ni5 1_555 1_555
O5 Ni3 1_555 1_555
O6 Ni5 1_555 1_555
O7 Ni5 1_555 1_555
O8 C1 1_555 1_555
O9 Ni6 1_555 1_555
O10 C8 1_555 1_555
O11 Ni8 1_555 1_555
O12 Ni3 1_555 1_555
O13 Ni3 1_555 1_555
O14 Ni2 1_555 1_555
O15 Ni3 1_555 1_555
O16 Ni2 1_555 1_555
O17 Ni1 1_555 1_555
O18 Ni2 1_555 1_555
O19 Ni4 1_555 1_555
O20 Ni1 1_555 1_555
O21 Ni1 1_555 1_555
O22 Ni6 1_555 1_555
O23 Ni1 1_555 1_555
O24 Ni4 1_555 1_555
O25 C19 1_555 1_555
O26 C18 1_555 1_555
O27 C24 1_555 1_555
O28 Ni8 1_555 1_555
C1 O3 1_555 1_555
C2 C1 1_555 1_555
H1 C2 1_555 1_555
H2 C2 1_555 1_555
C3 C2 1_555 1_555
H3 C3 1_555 1_555
H4 C3 1_555 1_555
C4 O28 1_555 1_555
C5 O2 1_555 1_555
C6 C5 1_555 1_555
H5 C6 1_555 1_555
H6 C6 1_555 1_555
C7 C6 1_555 1_555
H7 C7 1_555 1_555
H8 C7 1_555 1_555
C8 O13 1_555 1_555
C9 O5 1_555 1_555
C10 C9 1_555 1_555
H9 C10 1_555 1_555
H10 C10 1_555 1_555
C11 C10 1_555 1_555
H11 C11 1_555 1_555
H12 C11 1_555 1_555
C12 O14 1_555 1_555
C13 O7 1_555 1_555
C14 C13 1_555 1_555
H13 C14 1_555 1_555
H14 C14 1_555 1_555
C15 O12 1_555 1_555
C16 C15 1_555 1_555
H15 C16 1_555 1_555
H16 C16 1_555 1_555
C17 C16 1_555 1_555
H17 C17 1_555 1_555
H18 C17 1_555 1_555
C18 O21 1_555 1_555
C19 O22 1_555 1_555
C20 C14 1_555 1_555
H19 C20 1_555 1_555
H20 C20 1_555 1_555
C21 O18 1_555 1_555
C22 C21 1_555 1_555
H21 C22 1_555 1_555
H22 C22 1_555 1_555
C23 C22 1_555 1_555
H23 C23 1_555 1_555
H24 C23 1_555 1_555
C24 O19 1_555 1_555
O29 H25 1_555 1_555
H26 O29 1_555 1_555
Ni1A O16A 1_555 1_555
Ni2A O13A 1_555 1_555
Ni3A O4A 1_555 1_555
Ni5A O1A 1_555 1_555
Ni6A O6A 1_555 1_555
Ni8A O27 1_555 1_555
O1A C4A 1_555 1_555
O2A C5A 1_555 1_555
O3A C1A 1_555 1_555
O4A Ni5A 1_555 1_555
O5A Ni3A 1_555 1_555
O6A Ni5A 1_555 1_555
O7A Ni5A 1_555 1_555
O8A C1A 1_555 1_555
O9A Ni6A 1_555 1_555
O10A C8A 1_555 1_555
O11A Ni8A 1_555 1_555
O12A Ni3A 1_555 1_555
O13A Ni3A 1_555 1_555
O14A Ni2A 1_555 1_555
O15A Ni3A 1_555 1_555
O16A Ni2A 1_555 1_555
O17A Ni1A 1_555 1_555
O18A Ni2A 1_555 1_555
O19A C24A 1_555 1_555
O20A Ni1A 1_555 1_555
O21A Ni1A 1_555 1_555
O22A Ni6A 1_555 1_555
O23A Ni1A 1_555 1_555
O24A C12A 1_555 1_555
O25A C19A 1_555 1_555
O26A C18A 1_555 1_555
O27A Ni8 1_555 1_555
O28A Ni8A 1_555 1_555
C1A C2A 1_555 1_555
C2A H1A 1_555 1_555
H2A C2A 1_555 1_555
C3A C2A 1_555 1_555
H3A C3A 1_555 1_555
H4A C3A 1_555 1_555
C4A O28A 1_555 1_555
C5A O4A 1_555 1_555
C6A C5A 1_555 1_555
H5A C6A 1_555 1_555
H6A C6A 1_555 1_555
C7A C6A 1_555 1_555
H7A C7A 1_555 1_555
H8A C7A 1_555 1_555
C8A O13A 1_555 1_555
C9A O5A 1_555 1_555
C10A C9A 1_555 1_555
H9A C10A 1_555 1_555
H10A C10A 1_555 1_555
C11A C10A 1_555 1_555
H11A C11A 1_555 1_555
H12A C11A 1_555 1_555
C12A O14A 1_555 1_555
C13A O7A 1_555 1_555
C14A C13A 1_555 1_555
H13A C14A 1_555 1_555
H14A C14A 1_555 1_555
C15A O12A 1_555 1_555
C16A C15A 1_555 1_555
H15A C16A 1_555 1_555
H16A C16A 1_555 1_555
C17A C16A 1_555 1_555
H17A C17A 1_555 1_555
H18A C17A 1_555 1_555
C18A O21A 1_555 1_555
C19A O22A 1_555 1_555
C20A C14A 1_555 1_555
H19A C20A 1_555 1_555
H20A C20A 1_555 1_555
C21A O18A 1_555 1_555
C22A C21A 1_555 1_555
H21A C22A 1_555 1_555
H22A C22A 1_555 1_555
C23A C22A 1_555 1_555
H23A C23A 1_555 1_555
H24A C23A 1_555 1_555
C24A O27A 1_555 1_555
Ni1_2 O22 1_555 1_555
Ni1A_2 O22A 1_555 1_555
Ni2_2 O19A 1_555 1_555
Ni2A_2 O19 1_555 1_555
Ni4_2 O18A 1_555 1_555
Ni5_2 O3A 1_555 1_555
Ni5A_2 O3 1_555 1_555
Ni6_2 O8A 1_555 1_555
Ni6_3 O21 1_555 1_555
Ni6A_2 O21A 1_555 1_555
Ni6A_3 O8 1_555 1_555
Ni7_2 O1A 1_555 1_555
Ni8_2 O10 1_555 1_555
Ni8A_2 O10A 1_555 1_555
O1A_2 Ni7 1_555 1_555
O2A_2 Ni7 1_555 1_555
O3_2 Ni5A 1_555 1_555
O3A_2 Ni5 1_555 1_555
O8_2 Ni6A 1_555 1_555
O8A_2 Ni6 1_555 1_555
O10_2 Ni8 1_555 1_555
O10A_2 Ni8A 1_555 1_555
O17_2 Ni8 1_555 1_555
O17A_2 Ni8A 1_555 1_555
O18A_2 Ni4 1_555 1_555
O19_2 Ni2A 1_555 1_555
O19A_2 Ni2 1_555 1_555
O21_2 Ni6 1_555 1_555
O21A_2 Ni6A 1_555 1_555
O22_2 Ni1 1_555 1_555
O22A_2 Ni1A 1_555 1_555
O24A_2 Ni4 1_555 1_555
Ni2 O17 1_555 1_555
Ni3 O14 1_555 1_555
Ni4 O19A_2 1_555 1_555
Ni5 O5 1_555 1_555
Ni6 O7 1_555 1_555
Ni7 O3A_2 1_555 1_555
O4 C5 1_555 1_555
O11 C9 1_555 1_555
O15 C13 1_555 1_555
O16 C15 1_555 1_555
O17 Ni8_2 1_555 1_555
O23 C21 1_555 1_555
O24 C12 1_555 1_555
C3 C4 1_555 1_555
C7 C8 1_555 1_555
C11 C12 1_555 1_555
C17 C18 1_555 1_555
C19 C20 1_555 1_555
C23 C24 1_555 1_555
Ni2A O17A 1_555 1_555
Ni3A O14A 1_555 1_555
Ni5A O5A 1_555 1_555
Ni6A O7A 1_555 1_555
Ni8A O6A 1_555 1_555
O2A Ni7_2 1_555 1_555
O3A Ni7_2 1_555 1_555
O11A C9A 1_555 1_555
O15A C13A 1_555 1_555
O16A C15A 1_555 1_555
O17A Ni8A_2 1_555 1_555
O19A Ni4_2 1_555 1_555
O23A C21A 1_555 1_555
O24A Ni4_2 1_555 1_555
C3A C4A 1_555 1_555
C7A C8A 1_555 1_555
C11A C12A 1_555 1_555
C17A C18A 1_555 1_555
C19A C20A 1_555 1_555
C23A C24A 1_555 1_555
Ni1_2 O21_2 1_555 1_555
Ni1A_2 O21A_2 1_555 1_555
Ni2_2 O17_2 1_555 1_555
Ni2A_2 O17A_2 1_555 1_555
Ni2A_2 O18A_2 1_555 1_555
Ni4_2 O19_2 1_555 1_555
Ni5A_2 O1A_2 1_555 1_555
Ni6_3 O22_2 1_555 1_555
Ni6A_2 O22A_2 1_555 1_555
Ni7_2 O3_2 1_555 1_555

#END
