
#######################################################################
#
#                 Cambridge Crystallographic Data Centre
#                                CCDC 
#
#######################################################################
#
# If this CIF has been generated from an entry in the Cambridge 
# Structural Database, then it will include bibliographic, chemical, 
# crystal, experimental, refinement or atomic coordinate data resulting 
# from the CCDC's data processing and validation procedures.
#
#######################################################################

data_REQRIQ
_symmetry_cell_setting           monoclinic
_symmetry_space_group_name_H-M   'P 21/c'
_symmetry_Int_Tables_number      14
_space_group_name_Hall           '-P 2ybc'
loop_
_symmetry_equiv_pos_site_id
_symmetry_equiv_pos_as_xyz
1 x,y,z
2 -x,1/2+y,1/2-z
3 -x,-y,-z
4 x,1/2-y,1/2+z
_cell_length_a                   7.3294(5)
_cell_length_b                   17.2843(13)
_cell_length_c                   24.3967(18)
_cell_angle_alpha                90
_cell_angle_beta                 98.3200(10)
_cell_angle_gamma                90
_cell_volume                     3058.13
loop_
_atom_site_label
_atom_site_type_symbol
_atom_site_fract_x
_atom_site_fract_y
_atom_site_fract_z
K1 K 1.08510(4) 0.793533(19) 0.381646(14)
K2 K 0.62344(4) 0.790289(19) 0.380743(14)
N1 N 0.81122(17) 0.84814(8) 0.28916(5)
N2 N 0.82466(17) 0.69403(7) 0.32106(5)
N3 N 0.87776(17) 0.68456(8) 0.43055(5)
N4 N 0.90175(18) 0.83039(8) 0.47817(5)
O1 O 1.31658(15) 0.74850(7) 0.30724(5)
O2 O 1.38914(16) 0.73513(7) 0.45314(5)
O3 O 0.36299(15) 0.91405(7) 0.38335(5)
C1 C 0.7968(2) 0.92084(10) 0.27035(7)
H1 H 0.8190 0.9601 0.2965
C2 C 0.7522(2) 0.94308(10) 0.21590(7)
H2 H 0.7414 0.9950 0.2059
C3 C 0.7235(2) 0.88378(10) 0.17611(7)
H3 H 0.6941 0.8958 0.1387
C4 C 0.7391(2) 0.80876(10) 0.19271(7)
H4 H 0.7227 0.7695 0.1664
C5 C 0.7803(2) 0.78947(9) 0.24988(6)
C6 C 0.7879(2) 0.71176(9) 0.26677(6)
H5 H 0.7676 0.6725 0.2405
C7 C 0.8280(2) 0.62402(9) 0.34252(6)
C8 C 0.7912(2) 0.55219(9) 0.30758(7)
H6 H 0.8944 0.5435 0.2875
H7 H 0.6824 0.5606 0.2805
C9 C 0.7622(3) 0.47992(10) 0.34125(8)
H8 H 0.6406 0.4815 0.3525
H9 H 0.7689 0.4343 0.3185
C10 C 0.9068(3) 0.47468(10) 0.39207(8)
H10 H 1.0287 0.4761 0.3810
H11 H 0.8939 0.4260 0.4109
C11 C 0.8865(2) 0.54126(9) 0.43132(7)
H12 H 0.7795 0.5320 0.4496
H13 H 0.9941 0.5427 0.4596
C12 C 0.8654(2) 0.61889(9) 0.40257(7)
C13 C 0.9063(2) 0.69104(9) 0.48637(7)
H14 H 0.9194 0.6469 0.5084
C14 C 0.9160(2) 0.76438(10) 0.51089(7)
C15 C 0.9407(2) 0.77224(11) 0.56965(7)
H15 H 0.9460 0.7281 0.5916
C16 C 0.9567(2) 0.84304(11) 0.59415(7)
H16 H 0.9731 0.8473 0.6325
C17 C 0.9482(2) 0.90936(11) 0.56101(7)
H17 H 0.9616 0.9586 0.5765
C18 C 0.9191(2) 0.89864(10) 0.50441(7)
H18 H 0.9109 0.9428 0.4825
C19 C 1.2930(2) 0.78788(10) 0.25440(8)
H19 H 1.3914 0.8250 0.2529
H20 H 1.1760 0.8150 0.2484
C20 C 1.2982(3) 0.72525(12) 0.21087(8)
H21 H 1.2169 0.7378 0.1771
H22 H 1.4223 0.7180 0.2024
C21 C 1.2321(3) 0.65403(11) 0.23816(7)
H23 H 1.0985 0.6512 0.2328
H24 H 1.2809 0.6072 0.2239
C22 C 1.3077(2) 0.66607(10) 0.29816(7)
H25 H 1.2278 0.6421 0.3217
H26 H 1.4296 0.6433 0.3065
C23 C 0.4453(3) 0.95553(10) 0.43123(8)
H27 H 0.5350 0.9235 0.4540
H28 H 0.3523 0.9720 0.4533
C24 C 0.5368(4) 1.02393(15) 0.40944(12)
H29 H 0.5325 1.0683 0.4336
H30 H 0.6646 1.0125 0.4065
C25 C 0.4321(4) 1.03924(12) 0.35463(9)
H31 H 0.3440 1.0806 0.3566
H32 H 0.5143 1.0539 0.3286
C26 C 0.3369(3) 0.96690(13) 0.33739(9)
H33 H 0.2064 0.9766 0.3263
H34 H 0.3866 0.9449 0.3061
C27 C 1.3908(3) 0.65205(11) 0.45690(8)
H35 H 1.4722 0.6303 0.4329
H36 H 1.2678 0.6315 0.4459
C28 C 1.4589(3) 0.63215(11) 0.51676(8)
H37 H 1.5921 0.6273 0.5233
H38 H 1.4041 0.5844 0.5275
C29 C 1.3949(3) 0.70089(11) 0.54756(8)
H39 H 1.2686 0.6942 0.5542
H40 H 1.4735 0.7088 0.5827
C30 C 1.4111(2) 0.76766(11) 0.50827(8)
H41 H 1.3160 0.8059 0.5112
H42 H 1.5305 0.7924 0.5169
K1_2 K 0.08510(4) 0.793533(19) 0.381646(14)
K2_2 K 1.62344(4) 0.790289(19) 0.380743(14)
O1_2 O 0.31658(15) 0.74850(7) 0.30724(5)
O2_2 O 0.38914(16) 0.73513(7) 0.45314(5)
O3_2 O 1.36299(15) 0.91405(7) 0.38335(5)
loop_
_geom_bond_atom_site_label_1
_geom_bond_atom_site_label_2
_geom_bond_site_symmetry_1
_geom_bond_site_symmetry_2
K1 N1 1_555 1_555
K2 N1 1_555 1_555
N1 C1 1_555 1_555
N2 K1 1_555 1_555
N3 K1 1_555 1_555
N4 K1 1_555 1_555
O1 K1 1_555 1_555
O2 K1 1_555 1_555
O3 K2 1_555 1_555
C1 H1 1_555 1_555
C2 C1 1_555 1_555
H2 C2 1_555 1_555
C3 C2 1_555 1_555
H3 C3 1_555 1_555
C4 C3 1_555 1_555
H4 C4 1_555 1_555
C5 N1 1_555 1_555
C6 N2 1_555 1_555
H5 C6 1_555 1_555
C7 N2 1_555 1_555
C8 C7 1_555 1_555
H6 C8 1_555 1_555
H7 C8 1_555 1_555
C9 C8 1_555 1_555
H8 C9 1_555 1_555
H9 C9 1_555 1_555
C10 C9 1_555 1_555
H10 C10 1_555 1_555
H11 C10 1_555 1_555
C11 C10 1_555 1_555
H12 C11 1_555 1_555
H13 C11 1_555 1_555
C12 N3 1_555 1_555
C13 N3 1_555 1_555
H14 C13 1_555 1_555
C14 N4 1_555 1_555
C15 C14 1_555 1_555
H15 C15 1_555 1_555
C16 C15 1_555 1_555
H16 C16 1_555 1_555
C17 C16 1_555 1_555
H17 C17 1_555 1_555
C18 N4 1_555 1_555
H18 C18 1_555 1_555
C19 O1 1_555 1_555
H19 C19 1_555 1_555
H20 C19 1_555 1_555
C20 C19 1_555 1_555
H21 C20 1_555 1_555
H22 C20 1_555 1_555
C21 C20 1_555 1_555
H23 C21 1_555 1_555
H24 C21 1_555 1_555
C22 O1 1_555 1_555
H25 C22 1_555 1_555
H26 C22 1_555 1_555
C23 O3 1_555 1_555
H27 C23 1_555 1_555
H28 C23 1_555 1_555
C24 C23 1_555 1_555
H29 C24 1_555 1_555
H30 C24 1_555 1_555
C25 C24 1_555 1_555
H31 C25 1_555 1_555
H32 C25 1_555 1_555
C26 O3 1_555 1_555
H33 C26 1_555 1_555
H34 C26 1_555 1_555
C27 O2 1_555 1_555
H35 C27 1_555 1_555
H36 C27 1_555 1_555
C28 C27 1_555 1_555
H37 C28 1_555 1_555
H38 C28 1_555 1_555
C29 C28 1_555 1_555
H39 C29 1_555 1_555
H40 C29 1_555 1_555
C30 O2 1_555 1_555
H41 C30 1_555 1_555
H42 C30 1_555 1_555
K1_2 O3 1_555 1_555
K2_2 O1 1_555 1_555
O1_2 K2 1_555 1_555
O2_2 K2 1_555 1_555
O3_2 K1 1_555 1_555
K2 N2 1_555 1_555
K2 N3 1_555 1_555
K2 N4 1_555 1_555
O2 K2_2 1_555 1_555
C4 C5 1_555 1_555
C5 C6 1_555 1_555
C7 C12 1_555 1_555
C11 C12 1_555 1_555
C13 C14 1_555 1_555
C17 C18 1_555 1_555
C21 C22 1_555 1_555
C25 C26 1_555 1_555
C29 C30 1_555 1_555
K1_2 O1_2 1_555 1_555
K1_2 O2_2 1_555 1_555
K2_2 O3_2 1_555 1_555

#END
