
#######################################################################
#
#                 Cambridge Crystallographic Data Centre
#                                CCDC 
#
#######################################################################
#
# If this CIF has been generated from an entry in the Cambridge 
# Structural Database, then it will include bibliographic, chemical, 
# crystal, experimental, refinement or atomic coordinate data resulting 
# from the CCDC's data processing and validation procedures.
#
#######################################################################

data_RERNAF
_symmetry_cell_setting           orthorhombic
_symmetry_space_group_name_H-M   'P b c a'
_symmetry_Int_Tables_number      61
_space_group_name_Hall           '-P 2ac 2ab'
loop_
_symmetry_equiv_pos_site_id
_symmetry_equiv_pos_as_xyz
1 x,y,z
2 1/2-x,-y,1/2+z
3 1/2+x,1/2-y,-z
4 -x,1/2+y,1/2-z
5 -x,-y,-z
6 1/2+x,y,1/2-z
7 1/2-x,1/2+y,z
8 x,1/2-y,1/2+z
_cell_length_a                   9.0284(11)
_cell_length_b                   26.340(3)
_cell_length_c                   30.257(3)
_cell_angle_alpha                90
_cell_angle_beta                 90
_cell_angle_gamma                90
_cell_volume                     7195.36
loop_
_atom_site_label
_atom_site_type_symbol
_atom_site_fract_x
_atom_site_fract_y
_atom_site_fract_z
Yb1 Yb 0.44348(4) 0.271697(14) 0.492660(12)
O1 O 0.5776(7) 0.2146(2) 0.5313(2)
O2 O 0.7891(7) 0.2220(2) 0.5694(2)
O3 O 0.2074(12) 0.1777(4) 0.7278(3)
O4 O 0.3489(10) 0.2340(3) 0.7573(3)
O5 O 0.0944(7) 0.1777(2) 0.4601(2)
O6 O 0.2985(8) 0.2007(2) 0.4951(2)
O7 O 0.6708(17) 0.0149(5) 0.3816(4)
O8 O 0.5536(13) 0.0344(4) 0.3229(4)
O9 O 0.2986(7) 0.2932(2) 0.5478(2)
O10 O 0.0830(7) 0.2546(3) 0.5642(2)
O11 O 0.1467(12) 0.3506(4) 0.7755(3)
O12 O 0.3146(13) 0.4021(4) 0.7528(3)
O13 O 0.4354(9) 0.3532(2) 0.4702(2)
H1 H 0.4112 0.3649 0.4462
H2 H 0.4732 0.3777 0.4825
N1 N 0.3122(12) 0.2067(4) 0.7262(3)
N2 N 0.5806(14) 0.0402(4) 0.3610(4)
N3 N 0.2288(13) 0.3680(4) 0.7470(3)
C1 C 0.5606(11) 0.2146(3) 0.6096(3)
C2 C 0.6128(10) 0.2375(4) 0.6473(3)
H3 H 0.7038 0.2540 0.6468
C3 C 0.5318(11) 0.2361(4) 0.6855(3)
H4 H 0.5652 0.2525 0.7108
C4 C 0.4009(12) 0.2101(4) 0.6855(3)
C5 C 0.3457(11) 0.1856(4) 0.6488(3)
H5 H 0.2577 0.1673 0.6500
C6 C 0.4262(11) 0.1893(4) 0.6097(3)
H6 H 0.3900 0.1748 0.5838
C7 C 0.6482(11) 0.2170(3) 0.5671(3)
C8 C 0.3245(11) 0.1413(3) 0.4372(3)
C9 C 0.4604(11) 0.1243(4) 0.4517(3)
H7 H 0.4961 0.1356 0.4788
C10 C 0.5441(12) 0.0913(4) 0.4275(4)
H8 H 0.6340 0.0791 0.4381
C11 C 0.4916(13) 0.0769(4) 0.3873(4)
C12 C 0.3579(13) 0.0950(4) 0.3697(3)
H9 H 0.3270 0.0860 0.3414
C13 C 0.2752(11) 0.1262(4) 0.3958(3)
H10 H 0.1839 0.1377 0.3856
C14 C 0.2302(11) 0.1761(3) 0.4656(3)
C15 C 0.1987(10) 0.3041(3) 0.6190(3)
C16 C 0.3131(11) 0.3373(3) 0.6300(3)
H11 H 0.3841 0.3453 0.6088
C17 C 0.3233(13) 0.3583(4) 0.6714(3)
H12 H 0.4006 0.3802 0.6786
C18 C 0.2147(12) 0.3460(4) 0.7020(3)
C19 C 0.0995(11) 0.3132(4) 0.6928(3)
H13 H 0.0288 0.3051 0.7141
C20 C 0.0935(10) 0.2925(4) 0.6502(3)
H14 H 0.0168 0.2705 0.6428
C21 C 0.1925(10) 0.2817(3) 0.5732(3)
Yb1B Yb -0.05652(4) 0.228303(14) 0.507340(12)
Yb1B_2 Yb 0.94348(4) 0.228303(14) 0.507340(12)
O2B O 0.2891(7) 0.2780(2) 0.4306(2)
O5B O 0.5944(7) 0.3223(2) 0.5399(2)
O10B O 0.5830(7) 0.2454(3) 0.4358(2)
O14 O 0.4731(11) 0.5441(3) 0.3600(3)
O15 O 0.2365(11) 0.4024(3) 0.4134(3)
N4 N 0.4220(13) 0.5640(3) 0.4940(4)
N5 N 0.3094(10) 0.4329(3) 0.3880(3)
N6 N 0.4210(10) 0.4996(3) 0.3617(3)
C22 C 0.3346(12) 0.5038(3) 0.4409(3)
C23 C 0.4300(13) 0.5415(4) 0.4551(4)
H15 H 0.5047 0.5517 0.4359
C24 C 0.3121(18) 0.5507(5) 0.5206(4)
H16 H 0.3056 0.5657 0.5483
C25 C 0.2052(15) 0.5146(5) 0.5084(4)
H17 H 0.1268 0.5071 0.5272
C26 C 0.2184(13) 0.4910(4) 0.4687(4)
H18 H 0.1500 0.4664 0.4602
C27 C 0.3535(12) 0.4789(4) 0.3977(3)
C28 C 0.4325(14) 0.4621(4) 0.3246(4)
C29 C 0.3334(14) 0.4182(4) 0.3406(4)
C30 C 0.5971(15) 0.4488(6) 0.3220(6)
H19 H 0.6525 0.4784 0.3135
H20 H 0.6116 0.4225 0.3004
H21 H 0.6307 0.4371 0.3503
C31 C 0.386(2) 0.4888(6) 0.2830(5)
H22 H 0.2888 0.5027 0.2867
H23 H 0.3862 0.4651 0.2589
H24 H 0.4549 0.5158 0.2768
C32 C 0.3987(17) 0.3654(5) 0.3399(5)
H25 H 0.3290 0.3419 0.3523
H26 H 0.4883 0.3649 0.3570
H27 H 0.4204 0.3559 0.3099
C33 C 0.1845(16) 0.4165(6) 0.3191(4)
H28 H 0.1226 0.3927 0.3345
H29 H 0.1951 0.4060 0.2889
H30 H 0.1401 0.4496 0.3201
loop_
_geom_bond_atom_site_label_1
_geom_bond_atom_site_label_2
_geom_bond_site_symmetry_1
_geom_bond_site_symmetry_2
Yb1 O1 1_555 1_555
O1 C7 1_555 1_555
O2 C7 1_555 1_555
O3 N1 1_555 1_555
O4 N1 1_555 1_555
O5 C14 1_555 1_555
O6 Yb1 1_555 1_555
O7 N2 1_555 1_555
O8 N2 1_555 1_555
O9 Yb1 1_555 1_555
O10 C21 1_555 1_555
O11 N3 1_555 1_555
O12 N3 1_555 1_555
O13 Yb1 1_555 1_555
H1 O13 1_555 1_555
H2 O13 1_555 1_555
N1 C4 1_555 1_555
N2 C11 1_555 1_555
N3 C18 1_555 1_555
C1 C2 1_555 1_555
C2 H3 1_555 1_555
C3 C2 1_555 1_555
H4 C3 1_555 1_555
C4 C3 1_555 1_555
C5 C4 1_555 1_555
H5 C5 1_555 1_555
C6 C1 1_555 1_555
H6 C6 1_555 1_555
C7 C1 1_555 1_555
C8 C9 1_555 1_555
C9 H7 1_555 1_555
C10 C9 1_555 1_555
H8 C10 1_555 1_555
C11 C10 1_555 1_555
C12 C11 1_555 1_555
H9 C12 1_555 1_555
C13 C8 1_555 1_555
H10 C13 1_555 1_555
C14 O6 1_555 1_555
C15 C16 1_555 1_555
C16 H11 1_555 1_555
C17 C16 1_555 1_555
H12 C17 1_555 1_555
C18 C17 1_555 1_555
C19 C18 1_555 1_555
H13 C19 1_555 1_555
C20 C15 1_555 1_555
H14 C20 1_555 1_555
C21 O9 1_555 1_555
O14 N6 1_555 1_555
O15 N5 1_555 1_555
N4 C23 1_555 1_555
N5 C27 1_555 1_555
N6 C27 1_555 1_555
C22 C23 1_555 1_555
C23 H15 1_555 1_555
C24 N4 1_555 1_555
H16 C24 1_555 1_555
C25 C24 1_555 1_555
H17 C25 1_555 1_555
C26 C22 1_555 1_555
H18 C26 1_555 1_555
C27 C22 1_555 1_555
C28 N6 1_555 1_555
C29 N5 1_555 1_555
C30 C28 1_555 1_555
H19 C30 1_555 1_555
H20 C30 1_555 1_555
H21 C30 1_555 1_555
C31 C28 1_555 1_555
H22 C31 1_555 1_555
H23 C31 1_555 1_555
H24 C31 1_555 1_555
C32 C29 1_555 1_555
H25 C32 1_555 1_555
H26 C32 1_555 1_555
H27 C32 1_555 1_555
C33 C29 1_555 1_555
H28 C33 1_555 1_555
H29 C33 1_555 1_555
H30 C33 1_555 1_555
Yb1B O5 1_555 1_555
Yb1B_2 O2 1_555 1_555
O2B Yb1 1_555 1_555
O5B Yb1 1_555 1_555
O10B Yb1 1_555 1_555
O10 Yb1B 1_555 1_555
C5 C6 1_555 1_555
C8 C14 1_555 1_555
C12 C13 1_555 1_555
C15 C21 1_555 1_555
C19 C20 1_555 1_555
C25 C26 1_555 1_555
C28 C29 1_555 1_555

#END
