
#######################################################################
#
#                 Cambridge Crystallographic Data Centre
#                                CCDC 
#
#######################################################################
#
# If this CIF has been generated from an entry in the Cambridge 
# Structural Database, then it will include bibliographic, chemical, 
# crystal, experimental, refinement or atomic coordinate data resulting 
# from the CCDC's data processing and validation procedures.
#
#######################################################################

data_RERRUC
_symmetry_cell_setting           triclinic
_symmetry_space_group_name_H-M   'P -1'
_symmetry_Int_Tables_number      2
_space_group_name_Hall           '-P 1'
loop_
_symmetry_equiv_pos_site_id
_symmetry_equiv_pos_as_xyz
1 x,y,z
2 -x,-y,-z
_cell_length_a                   7.2624(7)
_cell_length_b                   11.4342(11)
_cell_length_c                   12.3394(12)
_cell_angle_alpha                76.767(2)
_cell_angle_beta                 74.841(2)
_cell_angle_gamma                84.239(2)
_cell_volume                     961.85
loop_
_atom_site_label
_atom_site_type_symbol
_atom_site_fract_x
_atom_site_fract_y
_atom_site_fract_z
U1 U 0.80292(3) 0.795882(19) 0.99849(2)
U2 U 0.89051(3) 0.505762(19) 0.88027(2)
O1 O 0.9881(6) 0.8463(4) 0.8736(4)
O2 O 0.6128(6) 0.7638(4) 1.1240(4)
O3 O 1.0723(6) 0.5943(4) 0.7762(4)
O4 O 0.6990(6) 0.4164(4) 0.9696(4)
O5 O 0.9068(6) 0.6050(4) 1.0199(4)
O6 O 0.6806(6) 0.6924(4) 0.8721(4)
O7 O 0.5611(7) 0.8715(4) 0.8868(5)
O8 O 0.0171(6) 0.8197(4) 0.1074(4)
O9 O -0.0014(6) 0.6479(4) 0.2370(4)
O10 O 0.7435(7) 1.0038(4) 1.0092(5)
H1 H 0.660(8) 1.028(7) 1.057(5)
H2 H 0.813(9) 1.052(5) 0.963(5)
N1 N 0.7185(7) 0.5240(5) 0.7207(5)
C1 C 0.8021(9) 0.5632(6) 0.6089(6)
H3 H 0.9204 0.5973 0.5899
C2 C 0.7230(9) 0.5558(6) 0.5210(6)
H4 H 0.7880 0.5837 0.4450
C3 C 0.5443(9) 0.5060(5) 0.5462(6)
C4 C 0.4568(9) 0.4670(6) 0.6610(6)
H5 H 0.3380 0.4331 0.6823
C5 C 0.5458(9) 0.4784(6) 0.7442(6)
H6 H 0.4823 0.4530 0.8208
C6 C 0.5691(9) 0.7792(6) 0.8430(6)
C7 C 0.4457(9) 0.7786(6) 0.7634(6)
H7 H 0.3188 0.7560 0.8087
H8 H 0.4968 0.7178 0.7188
C8 C 0.4295(12) 0.8992(7) 0.6808(7)
H9 H 0.5523 0.9149 0.6267
H10 H 0.4001 0.9622 0.7244
C9 C 0.2748(13) 0.9057(7) 0.6124(7)
H11 H 0.1539 0.8851 0.6671
H12 H 0.2608 0.9883 0.5723
C10 C 0.3119(12) 0.8244(7) 0.5237(8)
H13 H 0.4371 0.8383 0.4716
H14 H 0.3085 0.7405 0.5628
C11 C 0.1605(11) 0.8534(7) 0.4576(7)
H15 H 0.1641 0.9385 0.4226
H16 H 0.0376 0.8403 0.5122
C12 C 0.1693(12) 0.7841(7) 0.3625(7)
H17 H 0.2959 0.7899 0.3110
H18 H 0.1493 0.6998 0.3975
C13 C 0.0289(14) 0.8285(7) 0.2962(8)
H19 H 0.0557 0.9111 0.2572
H20 H -0.0960 0.8293 0.3492
C14 C 0.0191(10) 0.7580(6) 0.2068(6)
U1_2 U 1.80292(3) 0.795882(19) 1.99849(2)
U1_3 U -0.19708(3) 0.795882(19) -0.00151(2)
U1A U 1.19708(3) 0.204118(19) 1.00151(2)
U2A U 1.10949(3) 0.494238(19) 1.11973(2)
U2A_2 U 0.10949(3) 0.494238(19) 0.11973(2)
U2_2 U 1.89051(3) 0.505762(19) 1.88027(2)
O1_2 O 1.9881(6) 0.8463(4) 1.8736(4)
O2_2 O 1.6128(6) 0.7638(4) 2.1240(4)
O3A O 0.9277(6) 0.4057(4) 1.2238(4)
O4A O 1.3010(6) 0.5836(4) 1.0304(4)
O5A O 1.0932(6) 0.3950(4) 0.9801(4)
O5_2 O 1.9068(6) 0.6050(4) 2.0199(4)
O6_2 O 1.6806(6) 0.6924(4) 1.8721(4)
O6A O 1.3194(6) 0.3076(4) 1.1279(4)
O7_2 O 1.5611(7) 0.8715(4) 1.8868(5)
O8_2 O 1.0171(6) 0.8197(4) 1.1074(4)
O8_3 O 2.0171(6) 0.8197(4) 2.1074(4)
O9_2 O 0.9986(6) 0.6479(4) 1.2370(4)
O9A O 1.0014(6) 0.3521(4) 0.7630(4)
O10_2 O 1.7435(7) 1.0038(4) 2.0092(5)
H1_2 H 1.660(8) 1.028(7) 2.057(5)
H2_2 H 1.813(9) 1.052(5) 1.963(5)
N1A N 0.2815(7) 0.4760(5) 0.2793(5)
N1A_2 N 1.2815(7) 0.4760(5) 1.2793(5)
C1A C 0.1979(9) 0.4368(6) 0.3911(6)
H3A H 0.0796 0.4027 0.4101
C2A C 0.2770(9) 0.4442(6) 0.4790(6)
H4A H 0.2120 0.4163 0.5550
C3A C 0.4557(9) 0.4940(5) 0.4538(6)
C4A C 0.5432(9) 0.5330(6) 0.3390(6)
H5A H 0.6620 0.5669 0.3177
C5A C 0.4542(9) 0.5216(6) 0.2558(6)
H6A H 0.5177 0.5470 0.1792
C6_2 C 1.5691(9) 0.7792(6) 1.8430(6)
C7_2 C 1.4457(9) 0.7786(6) 1.7634(6)
H7_2 H 1.3188 0.7560 1.8087
H8_2 H 1.4968 0.7178 1.7188
C8_2 C 1.4295(12) 0.8992(7) 1.6808(7)
H9_2 H 1.5523 0.9149 1.6267
H10_2 H 1.4001 0.9622 1.7244
C9_2 C 1.2748(13) 0.9057(7) 1.6124(7)
H11_2 H 1.1539 0.8851 1.6671
H12_2 H 1.2608 0.9883 1.5723
C10_2 C 1.3119(12) 0.8244(7) 1.5237(8)
H13_2 H 1.4371 0.8383 1.4716
H14_2 H 1.3085 0.7405 1.5628
C11_2 C 1.1605(11) 0.8534(7) 1.4576(7)
H15_2 H 1.1641 0.9385 1.4226
H16_2 H 1.0376 0.8403 1.5122
C12_2 C 1.1693(12) 0.7841(7) 1.3625(7)
H17_2 H 1.2959 0.7899 1.3110
H18_2 H 1.1493 0.6998 1.3975
C13_2 C 1.0289(14) 0.8285(7) 1.2962(8)
H19_2 H 1.0557 0.9111 1.2572
H20_2 H 0.9040 0.8293 1.3492
C14_2 C 1.0191(10) 0.7580(6) 1.2068(6)
loop_
_geom_bond_atom_site_label_1
_geom_bond_atom_site_label_2
_geom_bond_site_symmetry_1
_geom_bond_site_symmetry_2
U1 O1 1_555 1_555
U2 O3 1_555 1_555
O2 U1 1_555 1_555
O4 U2 1_555 1_555
O5 U1 1_555 1_555
O6 U1 1_555 1_555
O7 U1 1_555 1_555
O8 C14 1_555 1_555
O9 C14 1_555 1_555
O10 U1 1_555 1_555
H1 O10 1_555 1_555
H2 O10 1_555 1_555
N1 U2 1_555 1_555
C1 N1 1_555 1_555
H3 C1 1_555 1_555
C2 C1 1_555 1_555
H4 C2 1_555 1_555
C3 C2 1_555 1_555
C4 C3 1_555 1_555
H5 C4 1_555 1_555
C5 N1 1_555 1_555
H6 C5 1_555 1_555
C6 O6 1_555 1_555
C7 C6 1_555 1_555
H7 C7 1_555 1_555
H8 C7 1_555 1_555
C8 C7 1_555 1_555
H9 C8 1_555 1_555
H10 C8 1_555 1_555
C9 C8 1_555 1_555
H11 C9 1_555 1_555
H12 C9 1_555 1_555
C10 C9 1_555 1_555
H13 C10 1_555 1_555
H14 C10 1_555 1_555
C11 C10 1_555 1_555
H15 C11 1_555 1_555
H16 C11 1_555 1_555
C12 C11 1_555 1_555
H17 C12 1_555 1_555
H18 C12 1_555 1_555
C13 C12 1_555 1_555
H19 C13 1_555 1_555
H20 C13 1_555 1_555
C14 C13 1_555 1_555
U1_2 O1_2 1_555 1_555
U1_3 O8 1_555 1_555
U1A O5A 1_555 1_555
U2A O5 1_555 1_555
U2A_2 O9 1_555 1_555
U2_2 O5_2 1_555 1_555
O2_2 U1_2 1_555 1_555
O3A U2A 1_555 1_555
O4A U2A 1_555 1_555
O5A U2 1_555 1_555
O5_2 U1_2 1_555 1_555
O6_2 U1_2 1_555 1_555
O6A U1A 1_555 1_555
O7_2 U1_2 1_555 1_555
O8_2 U1 1_555 1_555
O8_3 U1_2 1_555 1_555
O9_2 U2A 1_555 1_555
O9A U2 1_555 1_555
O10_2 U1_2 1_555 1_555
H1_2 O10_2 1_555 1_555
H2_2 O10_2 1_555 1_555
N1A U2A_2 1_555 1_555
N1A_2 U2A 1_555 1_555
C1A N1A 1_555 1_555
H3A C1A 1_555 1_555
C2A C1A 1_555 1_555
H4A C2A 1_555 1_555
C3A C3 1_555 1_555
C4A C3A 1_555 1_555
H5A C4A 1_555 1_555
C5A N1A 1_555 1_555
H6A C5A 1_555 1_555
C6_2 O6_2 1_555 1_555
C7_2 C6_2 1_555 1_555
H7_2 C7_2 1_555 1_555
H8_2 C7_2 1_555 1_555
C8_2 C7_2 1_555 1_555
H9_2 C8_2 1_555 1_555
H10_2 C8_2 1_555 1_555
C9_2 C8_2 1_555 1_555
H11_2 C9_2 1_555 1_555
H12_2 C9_2 1_555 1_555
C10_2 C9_2 1_555 1_555
H13_2 C10_2 1_555 1_555
H14_2 C10_2 1_555 1_555
C11_2 C10_2 1_555 1_555
H15_2 C11_2 1_555 1_555
H16_2 C11_2 1_555 1_555
C12_2 C11_2 1_555 1_555
H17_2 C12_2 1_555 1_555
H18_2 C12_2 1_555 1_555
C13_2 C12_2 1_555 1_555
H19_2 C13_2 1_555 1_555
H20_2 C13_2 1_555 1_555
C14_2 O8_2 1_555 1_555
U2 O5 1_555 1_555
U2 O6 1_555 1_555
O7 C6 1_555 1_555
C4 C5 1_555 1_555
U2A O5A 1_555 1_555
U2A O6A 1_555 1_555
U2_2 O6_2 1_555 1_555
O7_2 C6_2 1_555 1_555
O9_2 C14_2 1_555 1_555
C2A C3A 1_555 1_555
C4A C5A 1_555 1_555
C13_2 C14_2 1_555 1_555

#END
