
#######################################################################
#
#                 Cambridge Crystallographic Data Centre
#                                CCDC 
#
#######################################################################
#
# If this CIF has been generated from an entry in the Cambridge 
# Structural Database, then it will include bibliographic, chemical, 
# crystal, experimental, refinement or atomic coordinate data resulting 
# from the CCDC's data processing and validation procedures.
#
#######################################################################

data_RESCIC
_symmetry_cell_setting           monoclinic
_symmetry_space_group_name_H-M   'P 21/n'
_symmetry_Int_Tables_number      14
_space_group_name_Hall           '-P 2yn'
loop_
_symmetry_equiv_pos_site_id
_symmetry_equiv_pos_as_xyz
1 x,y,z
2 1/2-x,1/2+y,1/2-z
3 -x,-y,-z
4 1/2+x,1/2-y,1/2+z
_cell_length_a                   8.7988(17)
_cell_length_b                   8.7709(17)
_cell_length_c                   14.151(3)
_cell_angle_alpha                90
_cell_angle_beta                 100.771(4)
_cell_angle_gamma                90
_cell_volume                     1072.84
loop_
_atom_site_label
_atom_site_type_symbol
_atom_site_fract_x
_atom_site_fract_y
_atom_site_fract_z
C1 C 0.5342(9) 1.3328(9) 0.1457(6)
C2 C 0.5504(10) 1.4785(10) 0.1889(6)
C3 C 0.6463(10) 1.5819(10) 0.1532(6)
H1 H 0.6628 1.6772 0.1821
C4 C 0.7170(10) 1.5486(9) 0.0774(6)
H2 H 0.7787 1.6209 0.0548
C5 C 0.6959(10) 1.4058(11) 0.0346(6)
C6 C 0.6068(10) 1.2994(11) 0.0689(6)
H3 H 0.5945 1.2034 0.0406
C7 C 0.4463(10) 1.2065(10) 0.1792(6)
Dy1 Dy 0.26088(5) 0.95830(5) 0.21946(3)
O1 O 0.4678(7) 1.0732(7) 0.1555(4)
O2 O 0.3433(6) 1.2333(7) 0.2304(4)
O3 O 0.4819(7) 1.5184(7) 0.2619(4)
O4 O 0.7070(7) 1.2288(7) -0.1069(4)
O5 O 0.8047(7) 1.4834(7) -0.1164(4)
O6 O 0.9497(7) 1.3012(7) -0.0076(4)
O7 O 0.4820(7) 0.8233(7) 0.2972(4)
H4 H 0.4750 0.8082 0.3556
H5 H 0.4878 0.7381 0.2695
O8 O 0.1442(7) 1.0618(7) 0.0696(4)
H6 H 0.2041 1.1287 0.0531
H7 H 0.1292 0.9913 0.0277
S1 S 0.7975(3) 1.3511(2) -0.05484(15)
Dy1A Dy 0.23912(5) 1.45830(5) 0.28054(3)
Dy1B Dy 0.73912(5) 1.04170(5) -0.21946(3)
Dy1C Dy 0.76088(5) 1.54170(5) -0.28054(3)
O2A O 0.1567(6) 0.7333(7) 0.2696(4)
O3A O 0.0181(7) 1.0184(7) 0.2381(4)
O4B O 0.2930(7) 0.7712(7) 0.1069(4)
O5C O 0.3047(7) 1.0166(7) 0.3836(4)
O9 O 0.2537(8) 0.0514(7) 0.9048(5)
H8 H 0.1909 0.0972 0.8610
H9 H 0.3413 0.0952 0.9128
loop_
_geom_bond_atom_site_label_1
_geom_bond_atom_site_label_2
_geom_bond_site_symmetry_1
_geom_bond_site_symmetry_2
C1 C2 1_555 1_555
C2 C3 1_555 1_555
C3 H1 1_555 1_555
C4 C3 1_555 1_555
H2 C4 1_555 1_555
C5 C4 1_555 1_555
C6 C1 1_555 1_555
H3 C6 1_555 1_555
C7 C1 1_555 1_555
Dy1 O1 1_555 1_555
O1 C7 1_555 1_555
O2 C7 1_555 1_555
O3 C2 1_555 1_555
O4 S1 1_555 1_555
O5 S1 1_555 1_555
O6 S1 1_555 1_555
O7 Dy1 1_555 1_555
H4 O7 1_555 1_555
H5 O7 1_555 1_555
O8 Dy1 1_555 1_555
H6 O8 1_555 1_555
H7 O8 1_555 1_555
O9 H8 1_555 1_555
H9 O9 1_555 1_555
S1 C5 1_555 1_555
Dy1A O2 1_555 1_555
Dy1B O4 1_555 1_555
Dy1C O5 1_555 1_555
O2A Dy1 1_555 1_555
O3A Dy1 1_555 1_555
O4B Dy1 1_555 1_555
O5C Dy1 1_555 1_555
C5 C6 1_555 1_555
Dy1 O2 1_555 1_555
O3 Dy1A 1_555 1_555

#END
