
#######################################################################
#
#                 Cambridge Crystallographic Data Centre
#                                CCDC 
#
#######################################################################
#
# If this CIF has been generated from an entry in the Cambridge 
# Structural Database, then it will include bibliographic, chemical, 
# crystal, experimental, refinement or atomic coordinate data resulting 
# from the CCDC's data processing and validation procedures.
#
#######################################################################

data_RESDID
_symmetry_cell_setting           orthorhombic
_symmetry_space_group_name_H-M   'P b c n'
_symmetry_Int_Tables_number      60
_space_group_name_Hall           '-P 2n 2ab'
loop_
_symmetry_equiv_pos_site_id
_symmetry_equiv_pos_as_xyz
1 x,y,z
2 1/2-x,1/2-y,1/2+z
3 -x,y,1/2-z
4 1/2+x,1/2-y,-z
5 -x,-y,-z
6 1/2+x,1/2+y,1/2-z
7 x,-y,1/2+z
8 1/2-x,1/2+y,z
_cell_length_a                   15.882(4)
_cell_length_b                   9.212(2)
_cell_length_c                   14.969(4)
_cell_angle_alpha                90
_cell_angle_beta                 90
_cell_angle_gamma                90
_cell_volume                     2190.04
loop_
_atom_site_label
_atom_site_type_symbol
_atom_site_fract_x
_atom_site_fract_y
_atom_site_fract_z
C1 C 0.0502(3) 0.3139(6) 0.3781(4)
C2 C 0.0652(4) 0.4609(6) 0.3537(4)
C3 C -0.0019(4) 0.5587(6) 0.3669(4)
H1 H 0.0065 0.6555 0.3518
C4 C -0.0757(4) 0.5208(6) 0.3993(4)
H2 H -0.1176 0.5902 0.4068
C5 C -0.0911(3) 0.3764(6) 0.4224(4)
C6 C -0.0292(3) 0.2764(6) 0.4110(4)
H3 H -0.0400 0.1800 0.4256
C7 C 0.1138(3) 0.1989(6) 0.3707(4)
O1 O 0.0936(3) 0.0692(4) 0.3843(4)
O2 O 0.1917(2) 0.2262(4) 0.3537(2)
O3 O 0.1376(2) 0.5054(4) 0.3213(3)
O4 O -0.2245(2) 0.4526(4) 0.5076(3)
O5 O -0.1695(2) 0.2096(4) 0.5317(3)
O6 O -0.2409(2) 0.2724(5) 0.3951(3)
O7 O 0.2079(3) 0.0311(5) 0.2037(3)
H4 H 0.2342 0.1106 0.1967
H5 H 0.2272 -0.0319 0.1676
O8 O 0.1408(2) -0.2182(4) 0.2708(3)
H6 H 0.1265 -0.2889 0.3039
H7 H 0.1687 -0.2497 0.2264
S1 S -0.18811(8) 0.32285(14) 0.46693(9)
Tb1 Tb 0.227150(17) -0.05275(3) 0.354863(19)
O2G O 0.3083(2) -0.2738(4) 0.3537(2)
O3G O 0.3624(2) 0.0054(4) 0.3213(3)
O4C O 0.2755(2) 0.0474(4) 0.4924(3)
O5D O 0.1695(2) -0.2096(4) 0.4683(3)
Tb1G Tb 0.272850(17) 0.44725(3) 0.354863(19)
Tb1C Tb -0.272850(17) 0.55275(3) 0.645137(19)
Tb1D Tb -0.227150(17) 0.05275(3) 0.645137(19)
O9 O 0.5640(5) 0.5981(8) 0.8886(6)
H8 H 0.5185 0.5498 0.8877
H9 H 0.5881 0.5919 0.8379
O10 O 0.5000 0.577(3) 0.7500
H11 H 0.4538 0.5329 0.7584
H11B H 0.5462 0.5329 0.7416
H10? H 0.5281 0.5342 0.7096
loop_
_geom_bond_atom_site_label_1
_geom_bond_atom_site_label_2
_geom_bond_site_symmetry_1
_geom_bond_site_symmetry_2
C1 C2 1_555 1_555
C2 C3 1_555 1_555
C3 H1 1_555 1_555
C4 C3 1_555 1_555
H2 C4 1_555 1_555
C5 C4 1_555 1_555
C6 C1 1_555 1_555
H3 C6 1_555 1_555
C7 C1 1_555 1_555
O1 C7 1_555 1_555
O2 C7 1_555 1_555
O3 C2 1_555 1_555
O4 S1 1_555 1_555
O5 S1 1_555 1_555
O6 S1 1_555 1_555
O7 H4 1_555 1_555
H5 O7 1_555 1_555
O8 H6 1_555 1_555
H7 O8 1_555 1_555
O9 H8 1_555 1_555
H9 O9 1_555 1_555
O10 H11 1_555 1_555
S1 C5 1_555 1_555
Tb1 O1 1_555 1_555
O2G Tb1 1_555 1_555
O3G Tb1 1_555 1_555
O4C Tb1 1_555 1_555
O5D Tb1 1_555 1_555
H11B O10 1_555 1_555
Tb1G O2 1_555 1_555
Tb1C O4 1_555 1_555
Tb1D O5 1_555 1_555
C5 C6 1_555 1_555
O2 Tb1 1_555 1_555
O3 Tb1G 1_555 1_555
O7 Tb1 1_555 1_555
O8 Tb1 1_555 1_555

#END
