
#######################################################################
#
#                 Cambridge Crystallographic Data Centre
#                                CCDC 
#
#######################################################################
#
# If this CIF has been generated from an entry in the Cambridge 
# Structural Database, then it will include bibliographic, chemical, 
# crystal, experimental, refinement or atomic coordinate data resulting 
# from the CCDC's data processing and validation procedures.
#
#######################################################################

data_RESHUT
_symmetry_cell_setting           triclinic
_symmetry_space_group_name_H-M   'P -1'
_symmetry_Int_Tables_number      2
_space_group_name_Hall           '-P 1'
loop_
_symmetry_equiv_pos_site_id
_symmetry_equiv_pos_as_xyz
1 x,y,z
2 -x,-y,-z
_cell_length_a                   10.882(4)
_cell_length_b                   14.319(5)
_cell_length_c                   14.827(5)
_cell_angle_alpha                62.896(5)
_cell_angle_beta                 89.982(6)
_cell_angle_gamma                69.685(5)
_cell_volume                     1893.89
loop_
_atom_site_label
_atom_site_type_symbol
_atom_site_fract_x
_atom_site_fract_y
_atom_site_fract_z
Hg1 Hg 0.78738(3) 0.70754(3) 0.16089(2)
Hg2 Hg 0.72731(3) 0.78561(3) 0.39119(3)
I1 I 0.96305(5) 0.64177(4) 0.32471(4)
I2 I 0.55048(5) 0.74924(5) 0.07453(4)
I3 I 0.85462(7) 0.70911(6) 0.57510(5)
I4 I 0.59857(6) 0.96691(5) 0.21251(5)
O1 O 0.6610(5) 0.3386(4) 0.2819(4)
O2 O 0.2637(5) 0.6411(5) 0.1293(4)
O3 O 1.1510(6) 0.8612(4) -0.2190(4)
O4 O 0.8416(5) 1.2211(4) -0.4171(4)
O5 O 1.2292(5) 0.0149(5) 0.3291(4)
O6 O 1.4294(5) 0.2670(4) 0.2455(5)
N1 N 0.6118(6) 0.6602(5) 0.4024(5)
N2 N 0.4534(5) 0.4835(5) 0.2299(4)
N3 N 0.8532(6) 0.8534(5) 0.0334(4)
N4 N 1.0036(5) 1.0473(5) -0.2976(4)
N5 N 0.9313(6) 0.5432(5) 0.1322(5)
N6 N 1.3042(5) 0.1599(5) 0.2648(5)
C1 C 0.6813(7) 0.5514(7) 0.4248(6)
H1 H 0.7712 0.5177 0.4549
C2 C 0.6271(7) 0.4885(6) 0.4058(6)
H2 H 0.6791 0.4134 0.4236
C3 C 0.4940(7) 0.5365(6) 0.3597(5)
C4 C 0.4210(7) 0.6470(6) 0.3385(6)
H3 H 0.3306 0.6816 0.3096
C5 C 0.4812(8) 0.7048(7) 0.3599(6)
H4 H 0.4299 0.7791 0.3447
C6 C 0.4310(7) 0.4734(7) 0.3308(6)
H5 H 0.4679 0.3935 0.3828
H6 H 0.3358 0.5033 0.3294
C7 C 0.5662(7) 0.4116(5) 0.2153(5)
C8 C 0.5447(6) 0.4478(5) 0.1028(5)
C9 C 0.4255(6) 0.5423(5) 0.0561(5)
C10 C 0.3662(6) 0.5667(6) 0.1365(5)
C11 C 0.6242(6) 0.4015(6) 0.0493(6)
H7 H 0.7043 0.3383 0.0809
C12 C 0.7701(7) 0.9479(6) -0.0481(6)
H8 H 0.6789 0.9660 -0.0516
C13 C 0.8124(7) 1.0191(6) -0.1266(6)
H9 H 0.7506 1.0852 -0.1814
C14 C 0.9489(7) 0.9926(5) -0.1247(5)
C15 C 1.0333(7) 0.8958(6) -0.0385(5)
H10 H 1.1252 0.8752 -0.0326
C16 C 0.9828(7) 0.8299(6) 0.0384(5)
H11 H 1.0417 0.7661 0.0965
C17 C 1.0021(8) 1.0674(6) -0.2097(6)
H12 H 0.9471 1.1466 -0.2322
H13 H 1.0920 1.0528 -0.1831
C18 C 1.0792(7) 0.9451(6) -0.2941(5)
C19 C 1.0487(6) 0.9612(5) -0.3999(5)
C20 C 0.9545(6) 1.0715(5) -0.4601(5)
C21 C 0.9213(7) 1.1276(6) -0.3959(5)
C22 C 1.0967(7) 0.8853(6) -0.4369(5)
H14 H 1.1584 0.8112 -0.3960
C23 C 1.0469(8) 0.5365(6) 0.1000(6)
H15 H 1.0651 0.6020 0.0708
C24 C 1.1414(7) 0.4379(6) 0.1074(6)
H16 H 1.2210 0.4376 0.0844
C25 C 1.1157(7) 0.3401(6) 0.1494(5)
C26 C 0.9937(8) 0.3472(7) 0.1792(6)
H17 H 0.9712 0.2839 0.2057
C27 C 0.9057(7) 0.4493(7) 0.1691(6)
H18 H 0.8240 0.4527 0.1892
C28 C 1.2188(8) 0.2297(6) 0.1628(6)
H19 H 1.1738 0.1869 0.1520
H20 H 1.2738 0.2466 0.1109
C29 C 1.4035(7) 0.1853(6) 0.2965(6)
C30 C 1.4650(6) 0.0931(6) 0.4046(6)
C31 C 1.4030(6) 0.0165(6) 0.4306(6)
C32 C 1.3006(7) 0.0575(6) 0.3389(6)
C33 C 1.5644(7) 0.0780(6) 0.4741(6)
H21 H 1.6063 0.1288 0.4573
Hg1A Hg 1.21262(3) 1.29246(3) -1.16089(2)
Hg1A_2 Hg 2.21262(3) -0.70754(3) 0.83911(2)
Hg2A Hg 1.27269(3) 1.21439(3) -1.39119(3)
Hg2A_2 Hg 0.27269(3) 0.21439(3) -0.39119(3)
I1A I 1.03695(5) 1.35823(4) -1.32471(4)
I2A I 1.44952(5) 1.25076(5) -1.07453(4)
I3A I 1.14538(7) 1.29089(6) -1.57510(5)
I4A I 1.40143(6) 1.03309(5) -1.21251(5)
O1A O 0.3390(5) 0.6614(4) -0.2819(4)
O2A O 0.7363(5) 0.3589(5) -0.1293(4)
O3A O 0.8490(6) 1.1388(4) -0.7810(4)
O4A O 1.1584(5) 0.7789(4) -0.5829(4)
O5A O 1.7708(5) -0.0149(5) 0.6709(4)
O6A O 1.5706(5) -0.2670(4) 0.7545(5)
N1A N 0.3882(6) 0.3398(5) -0.4024(5)
N1A_2 N 1.3882(6) 1.3398(5) -1.4024(5)
N2A N 0.5466(5) 0.5165(5) -0.2299(4)
N3A N 1.1468(6) 1.1466(5) -1.0334(4)
N4A N 0.9964(5) 0.9527(5) -0.7024(4)
N5A N 2.0687(6) -0.5432(5) 0.8678(5)
N5A_2 N 1.0687(6) 1.4568(5) -1.1322(5)
N6A N 1.6958(5) -0.1599(5) 0.7352(5)
C1A C 0.3187(7) 0.4486(7) -0.4248(6)
H1A H 0.2288 0.4823 -0.4549
C2A C 0.3729(7) 0.5115(6) -0.4058(6)
H2A H 0.3209 0.5866 -0.4236
C3A C 0.5060(7) 0.4635(6) -0.3597(5)
C4A C 0.5790(7) 0.3530(6) -0.3385(6)
H3A H 0.6694 0.3184 -0.3096
C5A C 0.5188(8) 0.2952(7) -0.3599(6)
H4A H 0.5701 0.2209 -0.3447
C6A C 0.5690(7) 0.5266(7) -0.3308(6)
H5A H 0.5321 0.6065 -0.3828
H6A H 0.6642 0.4967 -0.3294
C7A C 0.4338(7) 0.5884(5) -0.2153(5)
C8A C 0.4553(6) 0.5522(5) -0.1028(5)
C9A C 0.5745(6) 0.4577(5) -0.0561(5)
C10A C 0.6338(6) 0.4333(6) -0.1365(5)
C11A C 0.3758(6) 0.5985(6) -0.0493(6)
H7A H 0.2957 0.6617 -0.0809
C12A C 1.2299(7) 1.0521(6) -0.9519(6)
H8A H 1.3211 1.0340 -0.9484
C13A C 1.1876(7) 0.9809(6) -0.8734(6)
H9A H 1.2494 0.9148 -0.8186
C14A C 1.0511(7) 1.0074(5) -0.8753(5)
C15A C 0.9667(7) 1.1042(6) -0.9615(5)
H10A H 0.8748 1.1248 -0.9674
C16A C 1.0172(7) 1.1701(6) -1.0384(5)
H11A H 0.9583 1.2339 -1.0965
C17A C 0.9979(8) 0.9326(6) -0.7903(6)
H12A H 1.0529 0.8534 -0.7678
H13A H 0.9080 0.9472 -0.8169
C18A C 0.9208(7) 1.0549(6) -0.7059(5)
C19A C 0.9513(6) 1.0388(5) -0.6001(5)
C20A C 1.0455(6) 0.9285(5) -0.5399(5)
C21A C 1.0787(7) 0.8724(6) -0.6041(5)
C22A C 0.9033(7) 1.1147(6) -0.5631(5)
H14A H 0.8416 1.1888 -0.6040
C23A C 1.9531(8) -0.5365(6) 0.9000(6)
H15A H 1.9349 -0.6020 0.9292
C24A C 1.8586(7) -0.4379(6) 0.8926(6)
H16A H 1.7790 -0.4376 0.9156
C25A C 1.8843(7) -0.3401(6) 0.8506(5)
C26A C 2.0063(8) -0.3472(7) 0.8208(6)
H17A H 2.0288 -0.2839 0.7943
C27A C 2.0943(7) -0.4493(7) 0.8309(6)
H18A H 2.1760 -0.4527 0.8108
C28A C 1.7812(8) -0.2297(6) 0.8372(6)
H19A H 1.8262 -0.1869 0.8480
H20A H 1.7262 -0.2466 0.8891
C29A C 1.5965(7) -0.1853(6) 0.7035(6)
C30A C 1.5350(6) -0.0931(6) 0.5954(6)
C31A C 1.5970(6) -0.0165(6) 0.5694(6)
C32A C 1.6994(7) -0.0575(6) 0.6611(6)
C33A C 1.4356(7) -0.0780(6) 0.5259(6)
H21A H 1.3937 -0.1288 0.5427
loop_
_geom_bond_atom_site_label_1
_geom_bond_atom_site_label_2
_geom_bond_site_symmetry_1
_geom_bond_site_symmetry_2
Hg1 I1 1_555 1_555
Hg2 I1 1_555 1_555
I2 Hg1 1_555 1_555
I3 Hg2 1_555 1_555
I4 Hg2 1_555 1_555
O1 C7 1_555 1_555
O2 C10 1_555 1_555
O3 C18 1_555 1_555
O4 C21 1_555 1_555
O5 C32 1_555 1_555
O6 C29 1_555 1_555
N1 Hg2 1_555 1_555
N2 C6 1_555 1_555
N3 Hg1 1_555 1_555
N4 C17 1_555 1_555
N5 Hg1 1_555 1_555
N6 C28 1_555 1_555
C1 N1 1_555 1_555
H1 C1 1_555 1_555
C2 C1 1_555 1_555
H2 C2 1_555 1_555
C3 C2 1_555 1_555
C4 C3 1_555 1_555
H3 C4 1_555 1_555
C5 N1 1_555 1_555
H4 C5 1_555 1_555
C6 C3 1_555 1_555
H5 C6 1_555 1_555
H6 C6 1_555 1_555
C7 N2 1_555 1_555
C8 C7 1_555 1_555
C9 C8 1_555 1_555
C10 N2 1_555 1_555
C11 C8 1_555 1_555
H7 C11 1_555 1_555
C12 N3 1_555 1_555
H8 C12 1_555 1_555
C13 C12 1_555 1_555
H9 C13 1_555 1_555
C14 C13 1_555 1_555
C15 C14 1_555 1_555
H10 C15 1_555 1_555
C16 N3 1_555 1_555
H11 C16 1_555 1_555
C17 C14 1_555 1_555
H12 C17 1_555 1_555
H13 C17 1_555 1_555
C18 N4 1_555 1_555
C19 C18 1_555 1_555
C20 C19 1_555 1_555
C21 N4 1_555 1_555
C22 C19 1_555 1_555
H14 C22 1_555 1_555
C23 N5 1_555 1_555
H15 C23 1_555 1_555
C24 C23 1_555 1_555
H16 C24 1_555 1_555
C25 C24 1_555 1_555
C26 C25 1_555 1_555
H17 C26 1_555 1_555
C27 N5 1_555 1_555
H18 C27 1_555 1_555
C28 C25 1_555 1_555
H19 C28 1_555 1_555
H20 C28 1_555 1_555
C29 N6 1_555 1_555
C30 C29 1_555 1_555
C31 C30 1_555 1_555
C32 N6 1_555 1_555
C33 C30 1_555 1_555
H21 C33 1_555 1_555
Hg1A I1A 1_555 1_555
Hg1A_2 N5A 1_555 1_555
Hg2A I1A 1_555 1_555
Hg2A_2 N1A 1_555 1_555
I2A Hg1A 1_555 1_555
I3A Hg2A 1_555 1_555
I4A Hg2A 1_555 1_555
O1A C7A 1_555 1_555
O2A C10A 1_555 1_555
O3A C18A 1_555 1_555
O4A C21A 1_555 1_555
O5A C32A 1_555 1_555
O6A C29A 1_555 1_555
N1A C1A 1_555 1_555
N1A_2 Hg2A 1_555 1_555
N2A C6A 1_555 1_555
N3A Hg1A 1_555 1_555
N4A C17A 1_555 1_555
N5A C23A 1_555 1_555
N5A_2 Hg1A 1_555 1_555
N6A C28A 1_555 1_555
C1A H1A 1_555 1_555
C2A C1A 1_555 1_555
H2A C2A 1_555 1_555
C3A C2A 1_555 1_555
C4A C3A 1_555 1_555
H3A C4A 1_555 1_555
C5A N1A 1_555 1_555
H4A C5A 1_555 1_555
C6A C3A 1_555 1_555
H5A C6A 1_555 1_555
H6A C6A 1_555 1_555
C7A N2A 1_555 1_555
C8A C7A 1_555 1_555
C9A C11 1_555 1_555
C10A N2A 1_555 1_555
C11A C9 1_555 1_555
H7A C11A 1_555 1_555
C12A N3A 1_555 1_555
H8A C12A 1_555 1_555
C13A C12A 1_555 1_555
H9A C13A 1_555 1_555
C14A C13A 1_555 1_555
C15A C14A 1_555 1_555
H10A C15A 1_555 1_555
C16A N3A 1_555 1_555
H11A C16A 1_555 1_555
C17A C14A 1_555 1_555
H12A C17A 1_555 1_555
H13A C17A 1_555 1_555
C18A N4A 1_555 1_555
C19A C18A 1_555 1_555
C20A C22 1_555 1_555
C21A N4A 1_555 1_555
C22A C20 1_555 1_555
H14A C22A 1_555 1_555
C23A H15A 1_555 1_555
C24A C23A 1_555 1_555
H16A C24A 1_555 1_555
C25A C24A 1_555 1_555
C26A C25A 1_555 1_555
H17A C26A 1_555 1_555
C27A N5A 1_555 1_555
H18A C27A 1_555 1_555
C28A C25A 1_555 1_555
H19A C28A 1_555 1_555
H20A C28A 1_555 1_555
C29A N6A 1_555 1_555
C30A C29A 1_555 1_555
C31A C33 1_555 1_555
C32A N6A 1_555 1_555
C33A C31 1_555 1_555
H21A C33A 1_555 1_555
C4 C5 1_555 1_555
C9 C10 1_555 1_555
C15 C16 1_555 1_555
C20 C21 1_555 1_555
C26 C27 1_555 1_555
C31 C32 1_555 1_555
C4A C5A 1_555 1_555
C8A C9A 1_555 1_555
C8A C11A 1_555 1_555
C9A C10A 1_555 1_555
C15A C16A 1_555 1_555
C19A C20A 1_555 1_555
C19A C22A 1_555 1_555
C20A C21A 1_555 1_555
C26A C27A 1_555 1_555
C30A C31A 1_555 1_555
C30A C33A 1_555 1_555
C31A C32A 1_555 1_555

#END
