
#######################################################################
#
#                 Cambridge Crystallographic Data Centre
#                                CCDC 
#
#######################################################################
#
# If this CIF has been generated from an entry in the Cambridge 
# Structural Database, then it will include bibliographic, chemical, 
# crystal, experimental, refinement or atomic coordinate data resulting 
# from the CCDC's data processing and validation procedures.
#
#######################################################################

data_RESHAA
_symmetry_cell_setting           monoclinic
_symmetry_space_group_name_H-M   'P 21/n'
_symmetry_Int_Tables_number      14
_space_group_name_Hall           '-P 2yn'
loop_
_symmetry_equiv_pos_site_id
_symmetry_equiv_pos_as_xyz
1 x,y,z
2 1/2-x,1/2+y,1/2-z
3 -x,-y,-z
4 1/2+x,1/2-y,1/2+z
_cell_length_a                   15.6132(6)
_cell_length_b                   8.3923(3)
_cell_length_c                   25.6743(9)
_cell_angle_alpha                90
_cell_angle_beta                 92.964(2)
_cell_angle_gamma                90
_cell_volume                     3359.62
loop_
_atom_site_label
_atom_site_type_symbol
_atom_site_fract_x
_atom_site_fract_y
_atom_site_fract_z
C1 C 0.45648(10) 0.86734(18) 0.83667(6)
C2 C 0.29921(10) 0.84479(19) 0.83271(6)
C3 C 0.29568(11) 0.9195(2) 0.78388(6)
C4 C 0.37014(11) 0.9629(2) 0.75978(6)
C5 C 0.20967(12) 0.9484(3) 0.75665(8)
H1 H 0.2104 1.0486 0.7386
H2 H 0.1664 0.9509 0.7819
H3 H 0.1972 0.8644 0.7321
C6 C 0.38715(10) 0.7733(2) 0.91181(6)
C7 C 0.38585(11) 0.6102(2) 0.92140(6)
C8 C 0.39119(11) 0.5604(2) 0.97306(7)
H4 H 0.3911 0.4518 0.9804
C9 C 0.39667(12) 0.6685(2) 1.01411(7)
C10 C 0.39653(12) 0.8296(2) 1.00272(7)
H5 H 0.3999 0.9027 1.03
C11 C 0.39155(11) 0.8854(2) 0.95169(7)
C12 C 0.37723(13) 0.4924(2) 0.87745(7)
H6 H 0.3218 0.5034 0.8599
H7 H 0.3835 0.3863 0.8911
H8 H 0.4209 0.5121 0.8533
C13 C 0.40228(15) 0.6113(3) 1.06992(7)
H9 H 0.4606 0.584 1.0798
H10 H 0.3665 0.5193 1.0732
H11 H 0.3833 0.6944 1.0923
C14 C 0.38911(13) 1.0616(2) 0.94037(8)
H12 H 0.3851 1.1194 0.9724
H13 H 0.3402 1.0853 0.9175
H14 H 0.4405 1.0921 0.924
C15 C 0.52848(10) 0.9541(2) 0.76208(6)
C16 C 0.56567(11) 0.8250(2) 0.73796(7)
C17 C 0.64311(12) 0.8505(2) 0.71474(7)
H15 H 0.6696 0.7653 0.6988
C18 C 0.68202(12) 0.9992(2) 0.71464(7)
C19 C 0.64184(12) 1.1251(2) 0.73863(7)
H16 H 0.6674 1.2252 0.7386
C20 C 0.56459(11) 1.1061(2) 0.76265(6)
C21 C 0.52434(14) 0.6632(2) 0.73785(9)
H17 H 0.5567 0.591 0.7175
H18 H 0.4668 0.6708 0.723
H19 H 0.5231 0.6245 0.773
C22 C 0.76505(13) 1.0238(3) 0.68838(9)
H20 H 0.7822 0.9256 0.6728
H21 H 0.8086 1.0576 0.7137
H22 H 0.7573 1.1039 0.6619
C23 C 0.52138(13) 1.2435(2) 0.78786(8)
H23 H 0.4718 1.2749 0.7666
H24 H 0.5606 1.3314 0.7914
H25 H 0.5041 1.2121 0.8217
C24 C 0.34450(13) 0.8794(3) 0.57987(8)
C25 C 0.32935(19) 0.8365(3) 0.52397(9)
H26 H 0.3188 0.9315 0.5038
H27 H 0.2805 0.7672 0.5201
H28 H 0.379 0.7831 0.5119
C26 C 0.3575(3) 0.7461(4) 0.61764(12)
H29 H 0.4138 0.7019 0.6147
H30 H 0.3153 0.665 0.6102
H31 H 0.3519 0.7852 0.6524
C27 C 0.52412(12) 1.2683(3) 0.62263(8)
C28 C 0.57905(18) 1.4039(4) 0.60783(13)
H32 H 0.5546 1.5019 0.6193
H33 H 0.5826 1.4062 0.5706
H34 H 0.6355 1.3911 0.624
C29 C 0.54994(15) 1.1066(3) 0.60563(10)
H35 H 0.5278 1.0282 0.6286
H36 H 0.6114 1.0997 0.6066
H37 H 0.5273 1.0876 0.5707
O1 O 0.37462(8) 1.02677(17) 0.71624(5)
O2 O 0.23746(7) 0.79210(16) 0.85608(5)
O3 O 0.34631(10) 1.01673(18) 0.59381(6)
O4 O 0.45999(9) 1.29031(19) 0.64646(6)
Cu1 Cu 0.564597(12) 0.84658(2) 0.873025(8)
Cl1 Cl 0.68465(3) 0.83368(7) 0.91406(2)
N1 N 0.38240(9) 0.83040(16) 0.85830(5)
N2 N 0.44924(8) 0.92778(16) 0.78794(5)
Li1 Li 0.35839(19) 1.1551(4) 0.65627(11)
O2A O 0.26254(7) 1.29210(16) 0.64392(5)
Li1A Li 0.14161(19) 0.6551(4) 0.84373(11)
C30 C 0.11729(15) 0.7924(3) 1.01894(10)
C31 C 0.1572(2) 0.8759(4) 0.97583(11)
H38 H 0.1886 0.8009 0.956
H39 H 0.1956 0.9564 0.9898
H40 H 0.1134 0.9248 0.9536
C32 C 0.17654(18) 0.7443(3) 1.06391(11)
H41 H 0.1436 0.706 1.0919
H42 H 0.21 0.8347 1.0757
H43 H 0.2141 0.6615 1.053
O5 O 0.04150(12) 0.7619(3) 1.01819(9)
loop_
_geom_bond_atom_site_label_1
_geom_bond_atom_site_label_2
_geom_bond_site_symmetry_1
_geom_bond_site_symmetry_2
C1 Cu1 1_555 1_555
C2 C3 1_555 1_555
C3 C4 1_555 1_555
C4 O1 1_555 1_555
C5 C3 1_555 1_555
H1 C5 1_555 1_555
H2 C5 1_555 1_555
H3 C5 1_555 1_555
C6 C7 1_555 1_555
C7 C8 1_555 1_555
C8 H4 1_555 1_555
C9 C8 1_555 1_555
C10 C9 1_555 1_555
H5 C10 1_555 1_555
C11 C6 1_555 1_555
C12 C7 1_555 1_555
H6 C12 1_555 1_555
H7 C12 1_555 1_555
H8 C12 1_555 1_555
C13 C9 1_555 1_555
H9 C13 1_555 1_555
H10 C13 1_555 1_555
H11 C13 1_555 1_555
C14 C11 1_555 1_555
H12 C14 1_555 1_555
H13 C14 1_555 1_555
H14 C14 1_555 1_555
C15 C16 1_555 1_555
C16 C17 1_555 1_555
C17 H15 1_555 1_555
C18 C17 1_555 1_555
C19 C18 1_555 1_555
H16 C19 1_555 1_555
C20 C15 1_555 1_555
C21 C16 1_555 1_555
H17 C21 1_555 1_555
H18 C21 1_555 1_555
H19 C21 1_555 1_555
C22 C18 1_555 1_555
H20 C22 1_555 1_555
H21 C22 1_555 1_555
H22 C22 1_555 1_555
C23 C20 1_555 1_555
H23 C23 1_555 1_555
H24 C23 1_555 1_555
H25 C23 1_555 1_555
C24 C25 1_555 1_555
C25 H26 1_555 1_555
H27 C25 1_555 1_555
H28 C25 1_555 1_555
C26 C24 1_555 1_555
H29 C26 1_555 1_555
H30 C26 1_555 1_555
H31 C26 1_555 1_555
C27 C28 1_555 1_555
C28 H32 1_555 1_555
H33 C28 1_555 1_555
H34 C28 1_555 1_555
C29 C27 1_555 1_555
H35 C29 1_555 1_555
H36 C29 1_555 1_555
H37 C29 1_555 1_555
O1 Li1 1_555 1_555
O2 C2 1_555 1_555
O3 C24 1_555 1_555
O4 C27 1_555 1_555
Cu1 Cl1 1_555 1_555
N1 C1 1_555 1_555
N2 C1 1_555 1_555
Li1 O3 1_555 1_555
C30 C31 1_555 1_555
C31 H38 1_555 1_555
H39 C31 1_555 1_555
H40 C31 1_555 1_555
C32 C30 1_555 1_555
H41 C32 1_555 1_555
H42 C32 1_555 1_555
H43 C32 1_555 1_555
O5 C30 1_555 1_555
O2A Li1 1_555 1_555
Li1A O2 1_555 1_555
C2 N1 1_555 1_555
C4 N2 1_555 1_555
C6 N1 1_555 1_555
C10 C11 1_555 1_555
C15 N2 1_555 1_555
C19 C20 1_555 1_555
O4 Li1 1_555 1_555

#END
