
#######################################################################
#
#                 Cambridge Crystallographic Data Centre
#                                CCDC 
#
#######################################################################
#
# If this CIF has been generated from an entry in the Cambridge 
# Structural Database, then it will include bibliographic, chemical, 
# crystal, experimental, refinement or atomic coordinate data resulting 
# from the CCDC's data processing and validation procedures.
#
#######################################################################

data_RESRUD
_symmetry_cell_setting           monoclinic
_symmetry_space_group_name_H-M   'P 21/n'
_symmetry_Int_Tables_number      14
_space_group_name_Hall           '-P 2yn'
loop_
_symmetry_equiv_pos_site_id
_symmetry_equiv_pos_as_xyz
1 x,y,z
2 1/2-x,1/2+y,1/2-z
3 -x,-y,-z
4 1/2+x,1/2-y,1/2+z
_cell_length_a                   11.962(3)
_cell_length_b                   8.0971(18)
_cell_length_c                   21.270(5)
_cell_angle_alpha                90
_cell_angle_beta                 101.282(4)
_cell_angle_gamma                90
_cell_volume                     2020.35
loop_
_atom_site_label
_atom_site_type_symbol
_atom_site_fract_x
_atom_site_fract_y
_atom_site_fract_z
Ni1 Ni 0.72498(5) 0.10592(8) 0.67639(3)
Ni2 Ni 0.5000 0.5000 0.5000
S1 S 0.45232(9) 0.17207(14) 0.80790(5)
C1 C 0.4426(4) 0.4032(6) 0.7144(2)
C2 C 0.4160(4) 0.5599(6) 0.6865(2)
C3 C 0.3705(4) 0.6812(6) 0.7198(2)
H1 H 0.3554 0.7855 0.7018
C4 C 0.3470(4) 0.6477(6) 0.7802(2)
H2 H 0.3155 0.7286 0.8025
C5 C 0.3714(4) 0.4915(6) 0.8068(2)
H3 H 0.3548 0.4675 0.8468
C6 C 0.4198(4) 0.3722(6) 0.7744(2)
C7 C 0.4407(4) 0.6023(6) 0.6218(2)
C8 C 0.5033(4) 0.2719(6) 0.6831(2)
C9 C 0.4784(4) 0.2153(6) 0.8916(2)
C10 C 0.3956(4) 0.1737(6) 0.9254(2)
H4 H 0.3252 0.1350 0.9040
C11 C 0.4176(4) 0.1898(6) 0.9921(2)
H5 H 0.3615 0.1630 1.0151
C12 C 0.5228(4) 0.2455(6) 1.0239(2)
H6 H 0.5373 0.2557 1.0683
C13 C 0.6073(4) 0.2866(6) 0.9899(2)
C14 C 0.5852(4) 0.2713(6) 0.9235(2)
C15 C 0.6709(4) 0.3185(6) 0.8837(2)
C16 C 0.7215(4) 0.3328(6) 1.0274(2)
O1 O 0.4255(3) 0.7495(4) 0.60308(15)
O2 O 0.4739(3) 0.4865(4) 0.59094(15)
O3 O 0.4470(3) 0.1591(4) 0.65129(15)
O4 O 0.6115(3) 0.2762(4) 0.69700(16)
O5 O 0.6571(2) 0.4584(4) 0.85573(14)
O6 O 0.7499(3) 0.2213(4) 0.87873(15)
O7 O 0.7900(3) 0.4102(4) 1.00064(15)
O8 O 0.7434(3) 0.2880(4) 1.08496(14)
H7 H 0.8228 0.3061 1.1023
O9 O 0.7871(2) 0.0452(4) 0.77735(14)
H8 H 0.8565 0.0160 0.7821
H9 H 0.7824 0.1331 0.7985
O10 O 0.6757(3) 0.1566(4) 0.58104(15)
H10 H 0.6984 0.0672 0.5567
H11 H 0.7111 0.2570 0.5709
O11 O 0.6096(3) -0.0761(4) 0.67930(16)
H12 H 0.5331 -0.0364 0.6658
H13 H 0.6233 -0.1646 0.6517
O12 O 0.8581(3) 0.2951(4) 0.68259(16)
H14 H 0.8919 0.2983 0.7216
H15 H 0.8233 0.3867 0.6750
O13 O 0.4936(3) 0.2436(4) 0.49824(16)
H16 H 0.5182 0.2039 0.4606
H17 H 0.4172 0.2069 0.4977
O14 O 0.6756(3) 0.4839(4) 0.53484(16)
H18 H 0.6992 0.5745 0.5635
H19 H 0.6936 0.3816 0.5573
Ni1B Ni 0.27502(5) 0.89408(8) 0.32361(3)
Ni1A Ni 0.77502(5) 0.60592(8) 0.82361(3)
Ni1C Ni 0.22498(5) 0.39408(8) 0.17639(3)
S1B S 0.54768(9) 0.82793(14) 0.19210(5)
C1B C 0.5574(4) 0.5968(6) 0.2856(2)
C2B C 0.5840(4) 0.4401(6) 0.3135(2)
C3B C 0.6295(4) 0.3188(6) 0.2802(2)
H1B H 0.6446 0.2145 0.2982
C4B C 0.6530(4) 0.3523(6) 0.2198(2)
H2B H 0.6845 0.2714 0.1975
C5B C 0.6286(4) 0.5085(6) 0.1932(2)
H3B H 0.6452 0.5325 0.1532
C6B C 0.5802(4) 0.6278(6) 0.2256(2)
C7B C 0.5593(4) 0.3977(6) 0.3782(2)
C8B C 0.4967(4) 0.7281(6) 0.3169(2)
C9B C 0.5216(4) 0.7847(6) 0.1084(2)
C10B C 0.6044(4) 0.8263(6) 0.0746(2)
H4B H 0.6748 0.8650 0.0960
C11B C 0.5824(4) 0.8102(6) 0.0079(2)
H5B H 0.6385 0.8370 -0.0151
C12B C 0.4772(4) 0.7545(6) -0.0239(2)
H6B H 0.4627 0.7443 -0.0683
C13B C 0.3927(4) 0.7134(6) 0.0101(2)
C14B C 0.4148(4) 0.7287(6) 0.0765(2)
C15B C 0.3291(4) 0.6815(6) 0.1163(2)
C16B C 0.2785(4) 0.6672(6) -0.0274(2)
O1B O 0.5745(3) 0.2505(4) 0.39692(15)
O2B O 0.5261(3) 0.5135(4) 0.40906(15)
O3B O 0.5530(3) 0.8409(4) 0.34871(15)
O4B O 0.3885(3) 0.7238(4) 0.30300(16)
O5B O 0.3429(2) 0.5416(4) 0.14427(14)
O5A O 0.8429(2) -0.0416(4) 0.64427(14)
O5C O 0.1571(2) 1.0416(4) 0.35573(14)
O6B O 0.2501(3) 0.7787(4) 0.12127(15)
O7B O 0.2100(3) 0.5898(4) -0.00064(15)
O8B O 0.2566(3) 0.7120(4) -0.08496(14)
H7B H 0.1772 0.6939 -0.1023
O9B O 0.2129(2) 0.9548(4) 0.22265(14)
H8B H 0.1435 0.9840 0.2179
H9B H 0.2176 0.8669 0.2015
O10B O 0.3243(3) 0.8434(4) 0.41896(15)
H10B H 0.3016 0.9328 0.4433
H11B H 0.2889 0.7430 0.4291
O11B O 0.3904(3) 1.0761(4) 0.32070(16)
H12B H 0.4669 1.0364 0.3342
H13B H 0.3767 1.1646 0.3483
O12B O 0.1419(3) 0.7049(4) 0.31741(16)
H14B H 0.1081 0.7017 0.2784
H15B H 0.1767 0.6133 0.3250
O13B O 0.5064(3) 0.7564(4) 0.50176(16)
H16B H 0.4818 0.7961 0.5394
H17B H 0.5828 0.7931 0.5023
O14B O 0.3244(3) 0.5161(4) 0.46516(16)
H18B H 0.3008 0.4255 0.4365
H19B H 0.3064 0.6184 0.4427
loop_
_geom_bond_atom_site_label_1
_geom_bond_atom_site_label_2
_geom_bond_site_symmetry_1
_geom_bond_site_symmetry_2
Ni1 O4 1_555 1_555
Ni2 O2 1_555 1_555
S1 C6 1_555 1_555
C1 C2 1_555 1_555
C2 C3 1_555 1_555
C3 H1 1_555 1_555
C4 C3 1_555 1_555
H2 C4 1_555 1_555
C5 C4 1_555 1_555
H3 C5 1_555 1_555
C6 C1 1_555 1_555
C7 C2 1_555 1_555
C8 C1 1_555 1_555
C9 S1 1_555 1_555
C10 C9 1_555 1_555
H4 C10 1_555 1_555
C11 C10 1_555 1_555
H5 C11 1_555 1_555
C12 C11 1_555 1_555
H6 C12 1_555 1_555
C13 C12 1_555 1_555
C14 C9 1_555 1_555
C15 C14 1_555 1_555
C16 C13 1_555 1_555
O1 C7 1_555 1_555
O2 C7 1_555 1_555
O3 C8 1_555 1_555
O4 C8 1_555 1_555
O5 C15 1_555 1_555
O6 C15 1_555 1_555
O7 C16 1_555 1_555
O8 C16 1_555 1_555
H7 O8 1_555 1_555
O9 Ni1 1_555 1_555
H8 O9 1_555 1_555
H9 O9 1_555 1_555
O10 Ni1 1_555 1_555
H10 O10 1_555 1_555
H11 O10 1_555 1_555
O11 Ni1 1_555 1_555
H12 O11 1_555 1_555
H13 O11 1_555 1_555
O12 Ni1 1_555 1_555
H14 O12 1_555 1_555
H15 O12 1_555 1_555
O13 Ni2 1_555 1_555
H16 O13 1_555 1_555
H17 O13 1_555 1_555
O14 Ni2 1_555 1_555
H18 O14 1_555 1_555
H19 O14 1_555 1_555
Ni1B O4B 1_555 1_555
Ni1A O5 1_555 1_555
Ni1C O5B 1_555 1_555
S1B C6B 1_555 1_555
C1B C2B 1_555 1_555
C2B C3B 1_555 1_555
C3B H1B 1_555 1_555
C4B C3B 1_555 1_555
H2B C4B 1_555 1_555
C5B C4B 1_555 1_555
H3B C5B 1_555 1_555
C6B C1B 1_555 1_555
C7B C2B 1_555 1_555
C8B C1B 1_555 1_555
C9B S1B 1_555 1_555
C10B C9B 1_555 1_555
H4B C10B 1_555 1_555
C11B C10B 1_555 1_555
H5B C11B 1_555 1_555
C12B C11B 1_555 1_555
H6B C12B 1_555 1_555
C13B C12B 1_555 1_555
C14B C9B 1_555 1_555
C15B C14B 1_555 1_555
C16B C13B 1_555 1_555
O1B C7B 1_555 1_555
O2B Ni2 1_555 1_555
O3B C8B 1_555 1_555
O4B C8B 1_555 1_555
O5B C15B 1_555 1_555
O5A Ni1 1_555 1_555
O5C Ni1B 1_555 1_555
O6B C15B 1_555 1_555
O7B C16B 1_555 1_555
O8B C16B 1_555 1_555
H7B O8B 1_555 1_555
O9B Ni1B 1_555 1_555
H8B O9B 1_555 1_555
H9B O9B 1_555 1_555
O10B Ni1B 1_555 1_555
H10B O10B 1_555 1_555
H11B O10B 1_555 1_555
O11B Ni1B 1_555 1_555
H12B O11B 1_555 1_555
H13B O11B 1_555 1_555
O12B Ni1B 1_555 1_555
H14B O12B 1_555 1_555
H15B O12B 1_555 1_555
O13B Ni2 1_555 1_555
H16B O13B 1_555 1_555
H17B O13B 1_555 1_555
O14B Ni2 1_555 1_555
H18B O14B 1_555 1_555
H19B O14B 1_555 1_555
C5 C6 1_555 1_555
C13 C14 1_555 1_555
C5B C6B 1_555 1_555
C7B O2B 1_555 1_555
C13B C14B 1_555 1_555

#END
