
#######################################################################
#
#                 Cambridge Crystallographic Data Centre
#                                CCDC 
#
#######################################################################
#
# If this CIF has been generated from an entry in the Cambridge 
# Structural Database, then it will include bibliographic, chemical, 
# crystal, experimental, refinement or atomic coordinate data resulting 
# from the CCDC's data processing and validation procedures.
#
#######################################################################

data_RESWET
_symmetry_cell_setting           monoclinic
_symmetry_space_group_name_H-M   'C 2/c'
_symmetry_Int_Tables_number      15
_space_group_name_Hall           '-C 2yn'
loop_
_symmetry_equiv_pos_site_id
_symmetry_equiv_pos_as_xyz
1 x,y,z
2 -x,y,1/2-z
3 1/2+x,1/2+y,z
4 1/2-x,1/2+y,1/2-z
5 -x,-y,-z
6 x,-y,1/2+z
7 1/2-x,1/2-y,-z
8 1/2+x,1/2-y,1/2+z
_cell_length_a                   21.5324(3)
_cell_length_b                   12.8686(2)
_cell_length_c                   20.5775(3)
_cell_angle_alpha                90
_cell_angle_beta                 93.4970(10)
_cell_angle_gamma                90
_cell_volume                     5691.24
loop_
_atom_site_label
_atom_site_type_symbol
_atom_site_fract_x
_atom_site_fract_y
_atom_site_fract_z
Ni1 Ni 0.495460(17) 0.49869(3) 0.434060(17)
S1 S 0.88361(4) 0.36209(6) 0.51110(7)
O1 O 0.6762(2) 0.2355(3) 0.20992(17)
O2 O 0.57652(10) 0.45567(16) 0.48976(10)
O3 O 0.59292(10) 0.45390(17) 0.59654(10)
O4 O 0.89307(13) 0.3139(2) 0.4498(2)
O5 O 0.90926(13) 0.3158(2) 0.5702(2)
O6 O 0.97658(10) 0.85284(15) 0.55789(10)
O7 O 0.96472(10) 0.85238(14) 0.44860(9)
N1 N 0.53928(12) 0.46688(19) 0.35323(12)
N2 N 0.63946(15) 0.3972(2) 0.19134(13)
H1 H 0.6392 0.4472 0.1636
C1 C 0.55626(19) 0.5387(3) 0.31183(17)
H2 H 0.5450 0.6073 0.3191
C2 C 0.5897(2) 0.5172(3) 0.25847(18)
H3 H 0.6001 0.5701 0.2304
C3 C 0.60750(16) 0.4167(2) 0.24723(14)
C4 C 0.59118(18) 0.3416(3) 0.29095(16)
H4 H 0.6034 0.2729 0.2860
C5 C 0.55679(17) 0.3702(2) 0.34159(15)
H5 H 0.5449 0.3184 0.3698
C6 C 0.6707(2) 0.3108(3) 0.17483(18)
C7 C 0.6984(2) 0.3180(3) 0.10985(19)
H6 H 0.6648 0.3238 0.0764
H7 H 0.7227 0.3813 0.1088
C8 C 0.7386(2) 0.2292(4) 0.0934(2)
H8 H 0.7134 0.1667 0.0893
H9 H 0.7699 0.2185 0.1286
C9 C 0.7712(2) 0.2464(5) 0.0293(2)
H10 H 0.7954 0.3099 0.0332
H11 H 0.7999 0.1895 0.0237
C10 C 0.61179(13) 0.4417(2) 0.53974(14)
C11 C 0.67840(14) 0.4139(2) 0.53210(15)
C12 C 0.71647(16) 0.3874(3) 0.58560(18)
H12 H 0.7003 0.3823 0.6264
C13 C 0.77930(17) 0.3682(3) 0.5785(2)
H13 H 0.8053 0.3495 0.6144
C14 C 0.80250(16) 0.3771(2) 0.5184(2)
C15 C 0.76488(17) 0.4012(3) 0.4648(2)
H14 H 0.7812 0.4053 0.4241
C16 C 0.70205(16) 0.4198(3) 0.47137(17)
H15 H 0.6761 0.4361 0.4350
C17 C 0.90998(16) 0.4926(2) 0.5084(2)
C18 C 0.92100(18) 0.5452(3) 0.5658(2)
H16 H 0.9165 0.5119 0.6054
C19 C 0.93883(17) 0.6482(3) 0.56434(17)
H17 H 0.9462 0.6847 0.6031
C20 C 0.94576(14) 0.6974(2) 0.50516(15)
C21 C 0.93541(17) 0.6428(2) 0.44794(18)
H18 H 0.9406 0.6753 0.4083
C22 C 0.91710(17) 0.5389(3) 0.4494(2)
H19 H 0.9098 0.5017 0.4109
C23 C 0.96422(13) 0.8102(2) 0.50371(14)
O1F O 0.8238(2) 0.2645(3) -0.20992(17)
N1F N 0.96072(12) 0.03312(19) -0.35323(12)
N2F N 0.86054(15) 0.1028(2) -0.19134(13)
H1F H 0.8608 0.0528 -0.1636
C1F C 0.94374(19) -0.0387(3) -0.31183(17)
H2F H 0.9550 -0.1073 -0.3191
C2F C 0.9103(2) -0.0172(3) -0.25847(18)
H3F H 0.8999 -0.0701 -0.2304
C3F C 0.89250(16) 0.0833(2) -0.24723(14)
C4F C 0.90882(18) 0.1584(3) -0.29095(16)
H4F H 0.8966 0.2271 -0.2860
C5F C 0.94321(17) 0.1298(2) -0.34159(15)
H5F H 0.9551 0.1816 -0.3698
C6F C 0.8293(2) 0.1892(3) -0.17483(18)
C7F C 0.8016(2) 0.1820(3) -0.10985(19)
H6F H 0.8352 0.1762 -0.0764
H7F H 0.7773 0.1187 -0.1088
C8F C 0.7614(2) 0.2708(4) -0.0934(2)
H8F H 0.7866 0.3333 -0.0893
H9F H 0.7301 0.2815 -0.1286
C9F C 0.7288(2) 0.2536(5) -0.0293(2)
H10F H 0.7046 0.1901 -0.0332
H11F H 0.7001 0.3105 -0.0237
Ni1D Ni 0.504540(17) 0.50131(3) 0.565940(17)
S1D S 0.11639(4) 0.63791(6) 0.48890(7)
O2D O 0.42348(10) 0.54433(16) 0.51024(10)
O3D O 0.40708(10) 0.54610(17) 0.40346(10)
O4D O 0.10693(13) 0.6861(2) 0.5502(2)
O5D O 0.09074(13) 0.6842(2) 0.4298(2)
O6D O 0.02342(10) 0.14716(15) 0.44211(10)
O7D O 0.03528(10) 0.14762(14) 0.55140(9)
C10D C 0.38821(13) 0.5583(2) 0.46026(14)
C11D C 0.32160(14) 0.5861(2) 0.46790(15)
C12D C 0.28353(16) 0.6126(3) 0.41440(18)
H12D H 0.2997 0.6177 0.3736
C13D C 0.22070(17) 0.6318(3) 0.4215(2)
H13D H 0.1947 0.6505 0.3856
C14D C 0.19750(16) 0.6229(2) 0.4816(2)
C15D C 0.23512(17) 0.5988(3) 0.5352(2)
H14D H 0.2188 0.5947 0.5759
C16D C 0.29795(16) 0.5802(3) 0.52863(17)
H15D H 0.3239 0.5639 0.5650
C17D C 0.09002(16) 0.5074(2) 0.4916(2)
C18D C 0.07900(18) 0.4548(3) 0.4342(2)
H16D H 0.0835 0.4881 0.3946
C19D C 0.06117(17) 0.3518(3) 0.43566(17)
H17D H 0.0538 0.3153 0.3969
C20D C 0.05424(14) 0.3026(2) 0.49484(15)
C21D C 0.06459(17) 0.3572(2) 0.55206(18)
H18D H 0.0594 0.3247 0.5917
C22D C 0.08290(17) 0.4611(3) 0.5506(2)
H19D H 0.0902 0.4983 0.5891
C23D C 0.03578(13) 0.1898(2) 0.49629(14)
Ni1B Ni -0.004540(17) -0.00131(3) 0.434060(17)
Ni1B_2 Ni 0.995460(17) 0.99869(3) 0.434060(17)
Ni1F Ni 0.004540(17) 0.00131(3) 0.565940(17)
Ni1F_2 Ni 1.004540(17) 0.00131(3) -0.434060(17)
Ni1F_3 Ni 1.004540(17) 1.00131(3) 0.565940(17)
O6B O 0.47658(10) 0.35284(15) 0.55789(10)
O6F O 0.52342(10) 0.64716(15) 0.44211(10)
O7B O 0.46472(10) 0.35238(14) 0.44860(9)
O7F O 0.53528(10) 0.64762(14) 0.55140(9)
N1D N 0.46072(12) 0.53312(19) 0.64677(12)
O8 O 0.9239(5) 0.7429(9) 0.8152(5)
H20 H 0.9296 0.7840 0.8473
H21 H 0.9094 0.6856 0.8282
O9 O 1.0000 0.655(3) 0.7500
H22 H 0.9958 0.6943 0.7828
H22A H 1.0042 0.6943 0.7172
O10 O 0.5000 0.0546(17) 0.2500
H23 H 0.5315 0.0156 0.2465
H23A H 0.4685 0.0156 0.2535
O11 O 0.8171(18) 0.483(3) 0.2823(18)
O12? O 0.7795(16) 0.509(2) 0.2608(16)
loop_
_geom_bond_atom_site_label_1
_geom_bond_atom_site_label_2
_geom_bond_site_symmetry_1
_geom_bond_site_symmetry_2
Ni1 O2 1_555 1_555
S1 O4 1_555 1_555
O1 C6 1_555 1_555
O2 C10 1_555 1_555
O3 C10 1_555 1_555
O5 S1 1_555 1_555
O6 C23 1_555 1_555
O7 C23 1_555 1_555
N1 Ni1 1_555 1_555
N2 H1 1_555 1_555
C1 N1 1_555 1_555
H2 C1 1_555 1_555
C2 C1 1_555 1_555
H3 C2 1_555 1_555
C3 N2 1_555 1_555
C4 C3 1_555 1_555
H4 C4 1_555 1_555
C5 N1 1_555 1_555
H5 C5 1_555 1_555
C6 N2 1_555 1_555
C7 C6 1_555 1_555
H6 C7 1_555 1_555
H7 C7 1_555 1_555
C8 C7 1_555 1_555
H8 C8 1_555 1_555
H9 C8 1_555 1_555
C9 C8 1_555 1_555
H10 C9 1_555 1_555
H11 C9 1_555 1_555
C10 C11 1_555 1_555
C11 C12 1_555 1_555
C12 H12 1_555 1_555
C13 C12 1_555 1_555
H13 C13 1_555 1_555
C14 S1 1_555 1_555
C15 C14 1_555 1_555
H14 C15 1_555 1_555
C16 C11 1_555 1_555
H15 C16 1_555 1_555
C17 S1 1_555 1_555
C18 C17 1_555 1_555
H16 C18 1_555 1_555
C19 C18 1_555 1_555
H17 C19 1_555 1_555
C20 C19 1_555 1_555
C21 C20 1_555 1_555
H18 C21 1_555 1_555
C22 C17 1_555 1_555
H19 C22 1_555 1_555
C23 C20 1_555 1_555
O8 H20 1_555 1_555
H21 O8 1_555 1_555
O9 H22 1_555 1_555
O10 H23 1_555 1_555
O1F C6F 1_555 1_555
N1F C1F 1_555 1_555
N2F H1F 1_555 1_555
C1F H2F 1_555 1_555
C2F C1F 1_555 1_555
H3F C2F 1_555 1_555
C3F N2F 1_555 1_555
C4F C3F 1_555 1_555
H4F C4F 1_555 1_555
C5F N1F 1_555 1_555
H5F C5F 1_555 1_555
C6F N2F 1_555 1_555
C7F C6F 1_555 1_555
H6F C7F 1_555 1_555
H7F C7F 1_555 1_555
C8F C7F 1_555 1_555
H8F C8F 1_555 1_555
H9F C8F 1_555 1_555
C9F C9 1_555 1_555
H10F C9F 1_555 1_555
H11F C9F 1_555 1_555
Ni1D O2 1_555 1_555
S1D O4D 1_555 1_555
O2D Ni1 1_555 1_555
O3D Ni1 1_555 1_555
O5D S1D 1_555 1_555
O6D C23D 1_555 1_555
O7D C23D 1_555 1_555
C10D O2D 1_555 1_555
C11D C10D 1_555 1_555
C12D C11D 1_555 1_555
H12D C12D 1_555 1_555
C13D C12D 1_555 1_555
H13D C13D 1_555 1_555
C14D S1D 1_555 1_555
C15D C14D 1_555 1_555
H14D C15D 1_555 1_555
C16D C11D 1_555 1_555
H15D C16D 1_555 1_555
C17D S1D 1_555 1_555
C18D C17D 1_555 1_555
H16D C18D 1_555 1_555
C19D C18D 1_555 1_555
H17D C19D 1_555 1_555
C20D C19D 1_555 1_555
C21D C20D 1_555 1_555
H18D C21D 1_555 1_555
C22D C17D 1_555 1_555
H19D C22D 1_555 1_555
C23D C20D 1_555 1_555
Ni1B O6D 1_555 1_555
Ni1B_2 O7 1_555 1_555
Ni1F O7D 1_555 1_555
Ni1F_2 N1F 1_555 1_555
Ni1F_3 O6 1_555 1_555
O6B Ni1D 1_555 1_555
O6F Ni1 1_555 1_555
O7B Ni1 1_555 1_555
O7F Ni1D 1_555 1_555
N1D Ni1D 1_555 1_555
H22A O9 1_555 1_555
H23A O10 1_555 1_555
O3 Ni1D 1_555 1_555
C2 C3 1_555 1_555
C4 C5 1_555 1_555
C13 C14 1_555 1_555
C15 C16 1_555 1_555
C21 C22 1_555 1_555
C2F C3F 1_555 1_555
C4F C5F 1_555 1_555
C8F C9F 1_555 1_555
Ni1D O2D 1_555 1_555
O3D C10D 1_555 1_555
C13D C14D 1_555 1_555
C15D C16D 1_555 1_555
C21D C22D 1_555 1_555

#END
