
#######################################################################
#
#                 Cambridge Crystallographic Data Centre
#                                CCDC 
#
#######################################################################
#
# If this CIF has been generated from an entry in the Cambridge 
# Structural Database, then it will include bibliographic, chemical, 
# crystal, experimental, refinement or atomic coordinate data resulting 
# from the CCDC's data processing and validation procedures.
#
#######################################################################

data_RESWUJ
_symmetry_cell_setting           monoclinic
_symmetry_space_group_name_H-M   'P 21/c'
_symmetry_Int_Tables_number      14
_space_group_name_Hall           '-P 2ybc'
loop_
_symmetry_equiv_pos_site_id
_symmetry_equiv_pos_as_xyz
1 x,y,z
2 -x,1/2+y,1/2-z
3 -x,-y,-z
4 x,1/2-y,1/2+z
_cell_length_a                   11.9158(3)
_cell_length_b                   14.3094(4)
_cell_length_c                   18.5432(5)
_cell_angle_alpha                90
_cell_angle_beta                 94.6850(10)
_cell_angle_gamma                90
_cell_volume                     3151.2
loop_
_atom_site_label
_atom_site_type_symbol
_atom_site_fract_x
_atom_site_fract_y
_atom_site_fract_z
Ni1 Ni -0.61563(3) 0.50449(3) 0.74154(2)
O1 O -0.26426(19) 0.24442(16) 1.00203(13)
O2 O 0.2271(2) 0.24856(17) 0.96412(14)
O3 O -0.64546(18) 0.37389(14) 0.69843(12)
O4 O -0.74986(17) 0.42016(14) 0.78277(12)
O5 O -0.73987(17) -0.40894(15) 0.68198(12)
O6 O -0.64115(18) -0.36149(14) 0.77892(12)
N1 N -0.5073(2) 0.46743(18) 0.82805(14)
N2 N -0.2778(2) 0.40254(18) 1.00504(14)
H1 H -0.2545 0.4508 1.0295
N3 N 0.2518(2) 0.09230(18) 0.97301(14)
H2 H 0.2304 0.0434 0.9951
N4 N 0.4973(2) 0.03660(18) 0.82886(14)
C1 C -0.4719(3) 0.3806(2) 0.8410(2)
H3 H -0.4979 0.3347 0.8083
C2 C -0.4000(3) 0.3530(2) 0.89873(19)
H4 H -0.3800 0.2905 0.9048
C3 C -0.3580(3) 0.4195(2) 0.94761(17)
C4 C -0.3960(2) 0.5103(2) 0.93574(17)
H5 H -0.3712 0.5577 0.9674
C5 C -0.4699(3) 0.5301(2) 0.87763(19)
H6 H -0.4958 0.5912 0.8722
C6 C -0.2316(3) 0.3195(2) 1.02737(18)
C7 C -0.1389(3) 0.3271(2) 1.08733(18)
H7 H -0.1725 0.3328 1.1330
H8 H -0.0964 0.3837 1.0803
C8 C -0.0575(3) 0.2438(2) 1.09196(17)
H9 H -0.0167 0.2430 1.1394
H10 H -0.1004 0.1863 1.0865
C9 C 0.0266(3) 0.2476(2) 1.03424(18)
H11 H 0.0708 0.3043 1.0406
H12 H -0.0143 0.2501 0.9869
C10 C 0.1060(3) 0.1633(2) 1.03734(17)
H13 H 0.1386 0.1553 1.0866
H14 H 0.0631 0.1075 1.0239
C11 C 0.1989(3) 0.1742(2) 0.98796(19)
C12 C 0.3365(3) 0.0788(2) 0.92608(17)
C13 C 0.3864(3) -0.0085(2) 0.92472(18)
H15 H 0.3665 -0.0551 0.9562
C14 C 0.4654(3) -0.0259(2) 0.87669(19)
H16 H 0.4987 -0.0847 0.8774
C15 C 0.4480(3) 0.1196(2) 0.8313(2)
H17 H 0.4677 0.1644 0.7982
C16 C 0.3708(3) 0.1447(2) 0.87832(19)
H18 H 0.3419 0.2051 0.8781
C17 C -0.7239(3) 0.3579(2) 0.73861(18)
C18 C -0.7822(2) 0.2660(2) 0.73443(17)
C19 C -0.7544(3) 0.2002(2) 0.68482(19)
H19 H -0.6988 0.2134 0.6539
C20 C -0.8086(3) 0.1146(2) 0.6805(2)
H20 H -0.7874 0.0702 0.6476
C21 C -0.8934(3) 0.0944(2) 0.7243(2)
C22 C -0.9193(3) 0.1600(2) 0.77455(19)
H21 H -0.9741 0.1467 0.8060
C23 C -0.8652(3) 0.2453(2) 0.77907(18)
H22 H -0.8851 0.2893 0.8127
C24 C -0.9585(3) 0.0041(2) 0.7161(2)
H23 H -1.0064 0.0066 0.6712
H24 H -1.0073 -0.0005 0.7553
C25 C -0.8875(3) -0.0835(2) 0.7157(2)
C26 C -0.9033(2) -0.1473(2) 0.66094(19)
H25 H -0.9523 -0.1334 0.6208
C27 C -0.8479(3) -0.2320(2) 0.66426(18)
H26 H -0.8617 -0.2753 0.6272
C28 C -0.7721(2) -0.2531(2) 0.72225(17)
C29 C -0.7506(3) -0.1864(2) 0.77568(19)
H27 H -0.6971 -0.1984 0.8140
C30 C -0.8079(3) -0.1024(2) 0.7727(2)
H28 H -0.7930 -0.0583 0.8090
C31 C -0.7150(3) -0.3459(2) 0.72778(19)
Ni1_2 Ni -0.61563(3) -0.49551(3) 0.74154(2)
Ni1A Ni 0.61563(3) 0.00449(3) 0.75846(2)
O5_2 O -0.73987(17) 0.59106(15) 0.68198(12)
O6_2 O -0.64115(18) 0.63851(14) 0.77892(12)
N4A N -0.4973(2) 0.53660(18) 0.67114(14)
O7 O -0.1890(3) 0.5657(2) 1.07666(19)
H29 H -0.200(3) 0.620(3) 1.061(2)
H30 H -0.213(4) 0.569(4) 1.118(3)
O8 O 0.1774(3) -0.0706(2) 1.03994(19)
H31 H 0.191(3) -0.117(3) 1.023(2)
H32 H 0.209(4) -0.072(3) 1.093(3)
loop_
_geom_bond_atom_site_label_1
_geom_bond_atom_site_label_2
_geom_bond_site_symmetry_1
_geom_bond_site_symmetry_2
Ni1 O3 1_555 1_555
O1 C6 1_555 1_555
O2 C11 1_555 1_555
O3 C17 1_555 1_555
O4 Ni1 1_555 1_555
O5 C31 1_555 1_555
O6 C31 1_555 1_555
N1 Ni1 1_555 1_555
N2 H1 1_555 1_555
N3 H2 1_555 1_555
N4 C14 1_555 1_555
C1 N1 1_555 1_555
H3 C1 1_555 1_555
C2 C1 1_555 1_555
H4 C2 1_555 1_555
C3 N2 1_555 1_555
C4 C3 1_555 1_555
H5 C4 1_555 1_555
C5 N1 1_555 1_555
H6 C5 1_555 1_555
C6 N2 1_555 1_555
C7 C6 1_555 1_555
H7 C7 1_555 1_555
H8 C7 1_555 1_555
C8 C7 1_555 1_555
H9 C8 1_555 1_555
H10 C8 1_555 1_555
C9 C8 1_555 1_555
H11 C9 1_555 1_555
H12 C9 1_555 1_555
C10 C9 1_555 1_555
H13 C10 1_555 1_555
H14 C10 1_555 1_555
C11 N3 1_555 1_555
C12 N3 1_555 1_555
C13 C12 1_555 1_555
H15 C13 1_555 1_555
C14 C13 1_555 1_555
H16 C14 1_555 1_555
C15 N4 1_555 1_555
H17 C15 1_555 1_555
C16 C12 1_555 1_555
H18 C16 1_555 1_555
C17 O4 1_555 1_555
C18 C17 1_555 1_555
C19 C18 1_555 1_555
H19 C19 1_555 1_555
C20 C19 1_555 1_555
H20 C20 1_555 1_555
C21 C20 1_555 1_555
C22 C21 1_555 1_555
H21 C22 1_555 1_555
C23 C18 1_555 1_555
H22 C23 1_555 1_555
C24 C21 1_555 1_555
H23 C24 1_555 1_555
H24 C24 1_555 1_555
C25 C24 1_555 1_555
C26 C25 1_555 1_555
H25 C26 1_555 1_555
C27 C26 1_555 1_555
H26 C27 1_555 1_555
C28 C27 1_555 1_555
C29 C28 1_555 1_555
H27 C29 1_555 1_555
C30 C25 1_555 1_555
H28 C30 1_555 1_555
C31 C28 1_555 1_555
O7 H29 1_555 1_555
H30 O7 1_555 1_555
O8 H31 1_555 1_555
H32 O8 1_555 1_555
Ni1_2 O5 1_555 1_555
Ni1A N4 1_555 1_555
O5_2 Ni1 1_555 1_555
O6_2 Ni1 1_555 1_555
N4A Ni1 1_555 1_555
O6 Ni1_2 1_555 1_555
C2 C3 1_555 1_555
C4 C5 1_555 1_555
C10 C11 1_555 1_555
C15 C16 1_555 1_555
C22 C23 1_555 1_555
C29 C30 1_555 1_555

#END
