
#######################################################################
#
#                 Cambridge Crystallographic Data Centre
#                                CCDC 
#
#######################################################################
#
# If this CIF has been generated from an entry in the Cambridge 
# Structural Database, then it will include bibliographic, chemical, 
# crystal, experimental, refinement or atomic coordinate data resulting 
# from the CCDC's data processing and validation procedures.
#
#######################################################################

data_RETBUP
_symmetry_cell_setting           monoclinic
_symmetry_space_group_name_H-M   'P 21/n'
_symmetry_Int_Tables_number      14
_space_group_name_Hall           '-P 2yn'
loop_
_symmetry_equiv_pos_site_id
_symmetry_equiv_pos_as_xyz
1 x,y,z
2 1/2-x,1/2+y,1/2-z
3 -x,-y,-z
4 1/2+x,1/2-y,1/2+z
_cell_length_a                   11.4552(13)
_cell_length_b                   10.586(2)
_cell_length_c                   18.080(3)
_cell_angle_alpha                90
_cell_angle_beta                 107.115(3)
_cell_angle_gamma                90
_cell_volume                     2095.38
loop_
_atom_site_label
_atom_site_type_symbol
_atom_site_fract_x
_atom_site_fract_y
_atom_site_fract_z
Zn1 Zn 0.21453(3) 0.02557(3) 0.469045(17)
C1 C 0.0220(2) 0.0842(3) 0.33941(17)
C2 C -0.0790(2) 0.1750(2) 0.29933(14)
C3 C -0.1026(2) 0.1978(2) 0.22126(15)
H1 H -0.0618 0.1511 0.1930
C4 C -0.1858(2) 0.2890(2) 0.18410(14)
C5 C -0.2483(2) 0.3558(3) 0.22603(16)
H2 H -0.3036 0.4182 0.2019
C6 C -0.2290(2) 0.3306(3) 0.30341(16)
H3 H -0.2731 0.3742 0.3310
C7 C -0.1440(2) 0.2402(3) 0.34049(16)
H4 H -0.1309 0.2236 0.3928
C8 C -0.2050(2) 0.3159(3) 0.09964(15)
C9 C 0.1627(2) -0.2640(2) 0.45398(15)
C10 C 0.0444(2) -0.2637(3) 0.40299(18)
H5 H 0.0045 -0.1888 0.3838
C11 C -0.0101(3) -0.3790(3) 0.3826(2)
H6 H -0.0890 -0.3823 0.3490
C12 C 0.0496(3) -0.4912(3) 0.4109(2)
H7 H 0.0096 -0.5674 0.3952
C13 C 0.1657(3) -0.4932(3) 0.4615(2)
H8 H 0.2051 -0.5683 0.4808
C14 C 0.2200(2) -0.3772(3) 0.48168(15)
C15 C 0.3420(2) -0.2165(2) 0.53094(14)
C16 C 0.4509(2) -0.1458(2) 0.57627(14)
C17 C 0.5471(2) -0.1286(2) 0.54631(15)
H9 H 0.5416 -0.1637 0.4983
C18 C 0.4584(3) -0.0930(3) 0.64763(18)
H10 H 0.3954 -0.1035 0.6698
C19 C 0.6533(3) -0.0134(3) 0.6511(2)
H11 H 0.7230 0.0316 0.6772
C20 C 0.5611(3) -0.0245(4) 0.6850(2)
H12 H 0.5679 0.0137 0.7324
C21 C 0.4274(2) -0.4326(3) 0.57669(16)
H13 H 0.3865 -0.5086 0.5858
H14 H 0.4670 -0.3946 0.6266
C22 C 0.5244(2) -0.4688(3) 0.53878(16)
H15 H 0.5687 -0.3933 0.5327
H16 H 0.5821 -0.5256 0.5730
N1 N 0.24079(18) -0.1639(2) 0.48495(12)
N2 N 0.33538(18) -0.3441(2) 0.53092(12)
N3 N 0.64797(18) -0.0640(2) 0.58250(13)
O1 O 0.06088(17) 0.0968(2) 0.41292(12)
O2 O 0.0618(2) 0.0091(2) 0.30137(15)
O3 O -0.25705(18) 0.42029(19) 0.07519(11)
O4 O -0.1687(2) 0.2392(2) 0.05989(12)
C9B C 0.8373(2) -0.7360(2) 0.54602(15)
C10B C 0.9556(2) -0.7363(3) 0.59701(18)
H5B H 0.9955 -0.8112 0.6162
C11B C 1.0101(3) -0.6210(3) 0.6174(2)
H6B H 1.0890 -0.6177 0.6510
C12B C 0.9504(3) -0.5088(3) 0.5891(2)
H7B H 0.9904 -0.4326 0.6048
C13B C 0.8343(3) -0.5068(3) 0.5385(2)
H8B H 0.7949 -0.4317 0.5192
C14B C 0.7800(2) -0.6228(3) 0.51832(15)
C15B C 0.6580(2) -0.7835(2) 0.46906(14)
C16B C 0.5491(2) -0.8542(2) 0.42373(14)
C17B C 0.4529(2) -0.8714(2) 0.45369(15)
H9B H 0.4584 -0.8363 0.5017
C18B C 0.5416(3) -0.9070(3) 0.35237(18)
H10B H 0.6046 -0.8965 0.3302
C19B C 0.3467(3) -0.9866(3) 0.3489(2)
H11B H 0.2770 -1.0316 0.3228
C20B C 0.4389(3) -0.9755(4) 0.3150(2)
H12B H 0.4321 -1.0137 0.2676
C21B C 0.5726(2) -0.5674(3) 0.42331(16)
H13B H 0.6135 -0.4914 0.4142
H14B H 0.5330 -0.6054 0.3734
C22B C 0.4756(2) -0.5312(3) 0.46122(16)
H15B H 0.4313 -0.6067 0.4673
H16B H 0.4179 -0.4744 0.4270
N1B N 0.75921(18) -0.8361(2) 0.51505(12)
N2B N 0.66462(18) -0.6559(2) 0.46908(12)
N3B N 0.35203(18) -0.9360(2) 0.41750(13)
Zn1B Zn 0.78547(3) -1.02557(3) 0.530955(17)
C1B C 0.9780(2) -1.0842(3) 0.66059(17)
C2B C 1.0790(2) -1.1750(2) 0.70067(14)
C3B C 1.1026(2) -1.1978(2) 0.77874(15)
H1B H 1.0618 -1.1511 0.8070
C4B C 1.1858(2) -1.2890(2) 0.81590(14)
C5B C 1.2483(2) -1.3558(3) 0.77397(16)
H2B H 1.3036 -1.4182 0.7981
C6B C 1.2290(2) -1.3306(3) 0.69659(16)
H3B H 1.2731 -1.3742 0.6690
C7B C 1.1440(2) -1.2402(3) 0.65951(16)
H4B H 1.1309 -1.2236 0.6072
C8B C 1.2050(2) -1.3159(3) 0.90036(15)
O1B O 0.93912(17) -1.0968(2) 0.58708(12)
O2B O 0.9382(2) -1.0091(2) 0.69863(15)
O3B O 1.25705(18) -1.42029(19) 0.92481(11)
O4B O 1.1687(2) -1.2392(2) 0.94011(12)
Zn1_2 Zn 0.21453(3) -0.97443(3) 0.469045(17)
Zn1A Zn 1.28547(3) -1.47443(3) 1.030955(17)
Zn1B_2 Zn 0.78547(3) -0.02557(3) 0.530955(17)
Zn1C Zn -0.28547(3) 0.47443(3) -0.030955(17)
N3_2 N 0.64797(18) -1.0640(2) 0.58250(13)
N3B_2 N 0.35203(18) 0.0640(2) 0.41750(13)
O3A O 0.75705(18) -1.07971(19) 0.42481(11)
O3C O 0.24295(18) 0.07971(19) 0.57519(11)
loop_
_geom_bond_atom_site_label_1
_geom_bond_atom_site_label_2
_geom_bond_site_symmetry_1
_geom_bond_site_symmetry_2
Zn1 N1 1_555 1_555
C1 C2 1_555 1_555
C2 C3 1_555 1_555
C3 H1 1_555 1_555
C4 C3 1_555 1_555
C5 C4 1_555 1_555
H2 C5 1_555 1_555
C6 C5 1_555 1_555
H3 C6 1_555 1_555
C7 C2 1_555 1_555
H4 C7 1_555 1_555
C8 C4 1_555 1_555
C9 C10 1_555 1_555
C10 H5 1_555 1_555
C11 C10 1_555 1_555
H6 C11 1_555 1_555
C12 C11 1_555 1_555
H7 C12 1_555 1_555
C13 C12 1_555 1_555
H8 C13 1_555 1_555
C14 C9 1_555 1_555
C15 C16 1_555 1_555
C16 C17 1_555 1_555
C17 H9 1_555 1_555
C18 C16 1_555 1_555
H10 C18 1_555 1_555
C19 H11 1_555 1_555
C20 C18 1_555 1_555
H12 C20 1_555 1_555
C21 H13 1_555 1_555
H14 C21 1_555 1_555
C22 C21 1_555 1_555
H15 C22 1_555 1_555
H16 C22 1_555 1_555
N1 C9 1_555 1_555
N2 C14 1_555 1_555
N3 C17 1_555 1_555
O1 Zn1 1_555 1_555
O2 C1 1_555 1_555
O3 C8 1_555 1_555
O4 C8 1_555 1_555
C9B C10B 1_555 1_555
C10B H5B 1_555 1_555
C11B C10B 1_555 1_555
H6B C11B 1_555 1_555
C12B C11B 1_555 1_555
H7B C12B 1_555 1_555
C13B C12B 1_555 1_555
H8B C13B 1_555 1_555
C14B C9B 1_555 1_555
C15B C16B 1_555 1_555
C16B C17B 1_555 1_555
C17B H9B 1_555 1_555
C18B C16B 1_555 1_555
H10B C18B 1_555 1_555
C19B H11B 1_555 1_555
C20B C18B 1_555 1_555
H12B C20B 1_555 1_555
C21B H13B 1_555 1_555
H14B C21B 1_555 1_555
C22B C22 1_555 1_555
H15B C22B 1_555 1_555
H16B C22B 1_555 1_555
N1B C9B 1_555 1_555
N2B C14B 1_555 1_555
N3B C17B 1_555 1_555
Zn1B N1B 1_555 1_555
C1B C2B 1_555 1_555
C2B C3B 1_555 1_555
C3B H1B 1_555 1_555
C4B C3B 1_555 1_555
C5B C4B 1_555 1_555
H2B C5B 1_555 1_555
C6B C5B 1_555 1_555
H3B C6B 1_555 1_555
C7B C2B 1_555 1_555
H4B C7B 1_555 1_555
C8B C4B 1_555 1_555
O1B Zn1B 1_555 1_555
O2B C1B 1_555 1_555
O3B C8B 1_555 1_555
O4B C8B 1_555 1_555
Zn1_2 N3B 1_555 1_555
Zn1A O3B 1_555 1_555
Zn1B_2 N3 1_555 1_555
Zn1C O3 1_555 1_555
N3_2 Zn1B 1_555 1_555
N3B_2 Zn1 1_555 1_555
O3A Zn1B 1_555 1_555
O3C Zn1 1_555 1_555
C1 O1 1_555 1_555
C6 C7 1_555 1_555
C13 C14 1_555 1_555
C15 N1 1_555 1_555
C15 N2 1_555 1_555
C19 C20 1_555 1_555
C19 N3 1_555 1_555
C21 N2 1_555 1_555
C13B C14B 1_555 1_555
C15B N1B 1_555 1_555
C15B N2B 1_555 1_555
C19B C20B 1_555 1_555
C19B N3B 1_555 1_555
C21B C22B 1_555 1_555
C21B N2B 1_555 1_555
C1B O1B 1_555 1_555
C6B C7B 1_555 1_555

#END
