
#######################################################################
#
#                 Cambridge Crystallographic Data Centre
#                                CCDC 
#
#######################################################################
#
# If this CIF has been generated from an entry in the Cambridge 
# Structural Database, then it will include bibliographic, chemical, 
# crystal, experimental, refinement or atomic coordinate data resulting 
# from the CCDC's data processing and validation procedures.
#
#######################################################################

data_RETJAD
_symmetry_cell_setting           monoclinic
_symmetry_space_group_name_H-M   'P 21/c'
_symmetry_Int_Tables_number      14
_space_group_name_Hall           '-P 2ybc'
loop_
_symmetry_equiv_pos_site_id
_symmetry_equiv_pos_as_xyz
1 x,y,z
2 -x,1/2+y,1/2-z
3 -x,-y,-z
4 x,1/2-y,1/2+z
_cell_length_a                   13.6828(5)
_cell_length_b                   13.5146(4)
_cell_length_c                   9.7760(3)
_cell_angle_alpha                90
_cell_angle_beta                 97.24(3)
_cell_angle_gamma                90
_cell_volume                     1793.34
loop_
_atom_site_label
_atom_site_type_symbol
_atom_site_fract_x
_atom_site_fract_y
_atom_site_fract_z
Bi1 Bi 0.81103(3) 0.41238(3) 0.19974(4)
S1 S 0.8834(2) 0.28031(19) -0.0843(3)
S2 S 0.7747(2) 0.6376(2) 0.3115(3)
O1 O 0.8702(5) 0.2796(5) 0.0618(6)
O2 O 0.7947(6) 0.2430(5) -0.1699(7)
O3 O 0.9724(5) 0.2341(5) -0.1164(7)
O4 O 0.7520(6) 0.5784(5) 0.1828(7)
O5 O 0.8783(6) 0.6404(6) 0.3559(8)
O6 O 0.7221(6) 0.7305(6) 0.3005(7)
N1 N 0.8608(7) 0.4729(6) -0.0388(8)
N2 N 0.7297(7) 0.4663(6) 0.4168(8)
C1 C 0.6588(8) 0.3769(8) 0.1022(11)
C2 C 0.5975(9) 0.3175(8) 0.1705(12)
H1 H 0.6220 0.2890 0.2569
C3 C 0.5010(9) 0.2993(8) 0.1142(12)
H2 H 0.4586 0.2606 0.1625
C4 C 0.4681(9) 0.3385(9) -0.0129(12)
H3 H 0.4031 0.3243 -0.0545
C5 C 0.5271(9) 0.3973(9) -0.0802(12)
H4 H 0.5020 0.4253 -0.1666
C6 C 0.6219(10) 0.4166(8) -0.0253(12)
H5 H 0.6626 0.4570 -0.0739
C7 C 0.8889(8) 0.4079(7) -0.1277(10)
C8 C 0.9227(8) 0.4348(8) -0.2491(10)
H6 H 0.9432 0.3861 -0.3095
C9 C 0.9262(8) 0.5354(8) -0.2816(12)
H7 H 0.9449 0.5564 -0.3673
C10 C 0.9020(8) 0.6027(8) -0.1870(11)
H8 H 0.9076 0.6716 -0.2036
C11 C 0.8687(8) 0.5688(8) -0.0643(12)
H9 H 0.8516 0.6156 0.0012
C12 C 0.7235(9) 0.5635(8) 0.4362(11)
C13 C 0.6853(10) 0.6051(9) 0.5455(11)
H10 H 0.6828 0.6749 0.5554
C14 C 0.6507(10) 0.5438(9) 0.6407(13)
H11 H 0.6231 0.5702 0.7174
C15 C 0.6570(10) 0.4435(9) 0.6221(12)
H12 H 0.6336 0.3994 0.6863
C16 C 0.6971(9) 0.4069(9) 0.5105(11)
H13 H 0.7019 0.3373 0.4997
Bi1C Bi 0.81103(3) 0.08762(3) -0.30026(4)
O2C O 0.7947(6) 0.2570(5) 0.3301(7)
loop_
_geom_bond_atom_site_label_1
_geom_bond_atom_site_label_2
_geom_bond_site_symmetry_1
_geom_bond_site_symmetry_2
Bi1 O1 1_555 1_555
S1 O1 1_555 1_555
S2 O4 1_555 1_555
O2 S1 1_555 1_555
O3 S1 1_555 1_555
O4 Bi1 1_555 1_555
O5 S2 1_555 1_555
O6 S2 1_555 1_555
N1 Bi1 1_555 1_555
N2 Bi1 1_555 1_555
C1 Bi1 1_555 1_555
C2 C1 1_555 1_555
H1 C2 1_555 1_555
C3 C2 1_555 1_555
H2 C3 1_555 1_555
C4 C3 1_555 1_555
H3 C4 1_555 1_555
C5 C4 1_555 1_555
H4 C5 1_555 1_555
C6 C1 1_555 1_555
H5 C6 1_555 1_555
C7 S1 1_555 1_555
C8 C7 1_555 1_555
H6 C8 1_555 1_555
C9 C8 1_555 1_555
H7 C9 1_555 1_555
C10 C9 1_555 1_555
H8 C10 1_555 1_555
C11 N1 1_555 1_555
H9 C11 1_555 1_555
C12 S2 1_555 1_555
C13 C12 1_555 1_555
H10 C13 1_555 1_555
C14 C13 1_555 1_555
H11 C14 1_555 1_555
C15 C14 1_555 1_555
H12 C15 1_555 1_555
C16 N2 1_555 1_555
H13 C16 1_555 1_555
Bi1C O2 1_555 1_555
O2C Bi1 1_555 1_555
N1 C7 1_555 1_555
N2 C12 1_555 1_555
C5 C6 1_555 1_555
C10 C11 1_555 1_555
C15 C16 1_555 1_555

#END
