
#######################################################################
#
#                 Cambridge Crystallographic Data Centre
#                                CCDC 
#
#######################################################################
#
# If this CIF has been generated from an entry in the Cambridge 
# Structural Database, then it will include bibliographic, chemical, 
# crystal, experimental, refinement or atomic coordinate data resulting 
# from the CCDC's data processing and validation procedures.
#
#######################################################################

data_RETXIY
_symmetry_cell_setting           triclinic
_symmetry_space_group_name_H-M   'P -1'
_symmetry_Int_Tables_number      2
_space_group_name_Hall           '-P 1'
loop_
_symmetry_equiv_pos_site_id
_symmetry_equiv_pos_as_xyz
1 x,y,z
2 -x,-y,-z
_cell_length_a                   9.5014(19)
_cell_length_b                   9.992(2)
_cell_length_c                   11.427(2)
_cell_angle_alpha                69.52(3)
_cell_angle_beta                 81.39(3)
_cell_angle_gamma                89.00(3)
_cell_volume                     1004.12
loop_
_atom_site_label
_atom_site_type_symbol
_atom_site_fract_x
_atom_site_fract_y
_atom_site_fract_z
I1 I 0.18296(7) 0.28715(6) 0.02120(5)
I2 I 0.46158(8) 0.43208(7) 0.23454(7)
Cu1 Cu 0.2527(2) 0.23388(15) 0.24703(13)
Cu2 Cu 0.3313(2) 0.48152(15) 0.04417(19)
N1 N 0.3821(8) 0.0380(8) 0.2685(7)
C1 C -0.0846(11) 0.3110(11) 0.5377(10)
H1 H -0.1018 0.2668 0.6251
C2 C 0.1881(9) -0.0397(9) 0.6990(8)
N2 N 0.1976(8) 0.1015(7) 0.4394(6)
C3 C 0.2790(9) -0.0100(9) 0.4853(7)
C4 C 0.3736(9) -0.0526(9) 0.3870(8)
C5 C 0.4431(11) -0.1805(11) 0.4172(9)
H2 H 0.4396 -0.2400 0.5011
C6 C 0.5256(11) -0.1266(12) 0.2003(10)
H3 H 0.5757 -0.1500 0.1342
C7 C 0.5169(12) -0.2176(12) 0.3218(10)
H4 H 0.5610 -0.3048 0.3399
C8 C 0.1090(9) 0.1433(9) 0.5208(8)
C9 C 0.2791(9) -0.0800(9) 0.6118(7)
H5 H 0.3402 -0.1545 0.6391
C10 C 0.1904(9) -0.1113(9) 0.8356(7)
C11 C 0.1638(9) -0.0420(9) 0.9225(8)
H6 H 0.1339 0.0516 0.8974
C12 C 0.2279(10) -0.2529(9) 0.8811(8)
H7 H 0.2396 -0.3026 0.8253
N3 N 0.0479(10) 0.3282(9) 0.3385(8)
C13 C 0.0192(9) 0.2650(9) 0.4663(8)
C14 C 0.0999(10) 0.0752(9) 0.6519(8)
H8 H 0.0365 0.1056 0.7070
C15 C 0.4587(11) 0.0002(12) 0.1778(9)
H9 H 0.4669 0.0636 0.0948
C16 C -0.1348(13) 0.4888(13) 0.3466(13)
H10 H -0.1865 0.5656 0.3038
C17 C -0.0302(14) 0.4375(13) 0.2831(12)
H11 H -0.0113 0.4807 0.1957
C18 C -0.1645(12) 0.4257(14) 0.4770(14)
H12 H -0.2364 0.4592 0.5232
N4 N 0.2483(8) -0.3220(8) 0.9997(7)
C19 C 0.1820(10) -0.1126(10) 1.0460(8)
H13 H 0.1645 -0.0677 1.1053
C20 C 0.2266(11) -0.2507(10) 1.0803(8)
H14 H 0.2423 -0.2968 1.1631
I2A I 0.53842(8) 0.56792(7) -0.23454(7)
Cu2A Cu 0.6687(2) 0.51848(15) -0.04417(19)
Cu2_2 Cu 0.3313(2) -0.51848(15) 1.04417(19)
N4_2 N 0.2483(8) 0.6780(8) -0.0003(7)
loop_
_geom_bond_atom_site_label_1
_geom_bond_atom_site_label_2
_geom_bond_site_symmetry_1
_geom_bond_site_symmetry_2
I1 Cu1 1_555 1_555
I2 Cu1 1_555 1_555
Cu1 Cu2 1_555 1_555
Cu2 I1 1_555 1_555
N1 Cu1 1_555 1_555
C1 H1 1_555 1_555
C2 C9 1_555 1_555
N2 Cu1 1_555 1_555
C3 N2 1_555 1_555
C4 N1 1_555 1_555
C5 C4 1_555 1_555
H2 C5 1_555 1_555
C6 H3 1_555 1_555
C7 C5 1_555 1_555
H4 C7 1_555 1_555
C8 N2 1_555 1_555
C9 C3 1_555 1_555
H5 C9 1_555 1_555
C10 C2 1_555 1_555
C11 C10 1_555 1_555
H6 C11 1_555 1_555
C12 C10 1_555 1_555
H7 C12 1_555 1_555
N3 Cu1 1_555 1_555
C13 C1 1_555 1_555
C14 C2 1_555 1_555
H8 C14 1_555 1_555
C15 N1 1_555 1_555
H9 C15 1_555 1_555
C16 H10 1_555 1_555
C17 N3 1_555 1_555
H11 C17 1_555 1_555
C18 C1 1_555 1_555
H12 C18 1_555 1_555
N4 C12 1_555 1_555
C19 C11 1_555 1_555
H13 C19 1_555 1_555
C20 N4 1_555 1_555
H14 C20 1_555 1_555
I2A Cu2 1_555 1_555
Cu2A I2 1_555 1_555
Cu2_2 N4 1_555 1_555
N4_2 Cu2 1_555 1_555
I2 Cu2 1_555 1_555
Cu2 Cu2A 1_555 1_555
C3 C4 1_555 1_555
C6 C7 1_555 1_555
C6 C15 1_555 1_555
C8 C13 1_555 1_555
C8 C14 1_555 1_555
N3 C13 1_555 1_555
C16 C17 1_555 1_555
C16 C18 1_555 1_555
C19 C20 1_555 1_555
I2A Cu2A 1_555 1_555

#END
