
#######################################################################
#
#                 Cambridge Crystallographic Data Centre
#                                CCDC 
#
#######################################################################
#
# If this CIF has been generated from an entry in the Cambridge 
# Structural Database, then it will include bibliographic, chemical, 
# crystal, experimental, refinement or atomic coordinate data resulting 
# from the CCDC's data processing and validation procedures.
#
#######################################################################

data_RETYIY
_symmetry_cell_setting           orthorhombic
_symmetry_space_group_name_H-M   'P b c a'
_symmetry_Int_Tables_number      61
_space_group_name_Hall           '-P 2ac 2ab'
loop_
_symmetry_equiv_pos_site_id
_symmetry_equiv_pos_as_xyz
1 x,y,z
2 1/2+x,y,1/2-z
3 x,1/2-y,1/2+z
4 1/2-x,1/2+y,z
5 -x,-y,-z
6 1/2-x,-y,1/2+z
7 -x,1/2+y,1/2-z
8 1/2+x,1/2-y,-z
_cell_length_a                   18.505(4)
_cell_length_b                   9.2014(18)
_cell_length_c                   27.389(6)
_cell_angle_alpha                90
_cell_angle_beta                 90
_cell_angle_gamma                90
_cell_volume                     4663.58
loop_
_atom_site_label
_atom_site_type_symbol
_atom_site_fract_x
_atom_site_fract_y
_atom_site_fract_z
Ag1 Ag 0.55935(2) 0.22449(5) 0.638715(14)
N1 N 0.5688(2) 0.0531(4) 0.69395(14)
N2 N 0.9572(2) 0.9164(4) 0.59301(15)
O1 O 0.8677(2) 0.7123(4) 0.55714(15)
O2 O 0.6430(2) 0.2993(4) 0.71495(13)
C1 C 1.0031(3) 1.0155(6) 0.6094(2)
H1 H 1.0300 0.9941 0.6372
C2 C 1.0131(3) 1.1513(6) 0.5870(3)
H2 H 1.0466 1.2171 0.5992
C3 C 0.9740(4) 1.1838(7) 0.5481(3)
H3 H 0.9787 1.2749 0.5337
C4 C 0.9256(3) 1.0834(7) 0.5283(2)
C5 C 0.9184(3) 0.9450(5) 0.55176(17)
C6 C 0.8713(3) 0.8408(7) 0.53172(19)
C7 C 0.8320(4) 0.8727(10) 0.4901(2)
H4 H 0.8007 0.8044 0.4767
C8 C 0.8401(5) 1.0094(11) 0.4685(2)
H5 H 0.8139 1.0304 0.4404
C9 C 0.8836(5) 1.1099(10) 0.4865(3)
H6 H 0.8864 1.1999 0.4711
C10 C 0.8262(4) 0.5935(8) 0.5372(3)
H7 H 0.7790 0.6276 0.5269
H8 H 0.8508 0.5525 0.5092
C11 C 0.8185(4) 0.4833(8) 0.5757(3)
H9 H 0.7980 0.3959 0.5615
H10 H 0.8661 0.4590 0.5882
C12 C 0.7713(6) 0.5314(11) 0.6179(4)
H11 H 0.8046 0.5770 0.6406
H12 H 0.7425 0.6099 0.6046
C13 C 0.7299(5) 0.4653(9) 0.6438(3)
H13 H 0.7584 0.3885 0.6585
H14 H 0.6965 0.4176 0.6217
C14 C 0.6845(3) 0.5248(6) 0.6839(2)
H15 H 0.7034 0.6191 0.6932
H16 H 0.6358 0.5392 0.6717
C15 C 0.6811(3) 0.4329(6) 0.7272(2)
H17 H 0.7296 0.4104 0.7384
H18 H 0.6559 0.4835 0.7532
C16 C 0.6452(3) 0.1892(6) 0.74915(18)
C17 C 0.6821(3) 0.1974(8) 0.7922(2)
H19 H 0.7056 0.2831 0.8007
C18 C 0.6849(3) 0.0782(9) 0.8234(2)
H20 H 0.7103 0.0854 0.8526
C19 C 0.6517(3) -0.0462(8) 0.8123(2)
H21 H 0.6553 -0.1253 0.8332
C20 C 0.6112(3) -0.0585(6) 0.76898(17)
C21 C 0.6075(2) 0.0605(5) 0.73596(16)
C22 C 0.5337(3) -0.0694(6) 0.6838(2)
H22 H 0.5072 -0.0748 0.6551
C23 C 0.5352(3) -0.1907(6) 0.7147(2)
H23 H 0.5097 -0.2742 0.7065
C24 C 0.5736(3) -0.1859(6) 0.7562(2)
H24 H 0.5754 -0.2668 0.7765
N2C N 0.5428(2) 0.4164(4) 0.59301(15)
O1C O 0.6323(2) 0.2123(4) 0.55714(15)
Ag1C Ag 0.94065(2) 0.72449(5) 0.638715(14)
Cl1 Cl 0.37499(8) 0.04645(14) 0.60589(5)
O3 O 0.4388(3) 0.0400(8) 0.5790(2)
O4 O 0.3205(3) 0.1283(8) 0.5847(3)
O5 O 0.3507(5) -0.0910(7) 0.6105(3)
O6 O 0.3890(5) 0.0977(12) 0.6494(3)
loop_
_geom_bond_atom_site_label_1
_geom_bond_atom_site_label_2
_geom_bond_site_symmetry_1
_geom_bond_site_symmetry_2
Ag1 N1 1_555 1_555
N1 C21 1_555 1_555
N2 C1 1_555 1_555
O1 C6 1_555 1_555
O2 C15 1_555 1_555
C1 H1 1_555 1_555
C2 C1 1_555 1_555
H2 C2 1_555 1_555
C3 C2 1_555 1_555
H3 C3 1_555 1_555
C4 C3 1_555 1_555
C5 N2 1_555 1_555
C6 C5 1_555 1_555
C7 C6 1_555 1_555
H4 C7 1_555 1_555
C8 C7 1_555 1_555
H5 C8 1_555 1_555
C9 C4 1_555 1_555
H6 C9 1_555 1_555
C10 O1 1_555 1_555
H7 C10 1_555 1_555
H8 C10 1_555 1_555
C11 C10 1_555 1_555
H9 C11 1_555 1_555
H10 C11 1_555 1_555
C12 C11 1_555 1_555
H11 C12 1_555 1_555
H12 C12 1_555 1_555
C13 C12 1_555 1_555
H13 C13 1_555 1_555
H14 C13 1_555 1_555
C14 C13 1_555 1_555
H15 C14 1_555 1_555
H16 C14 1_555 1_555
C15 C14 1_555 1_555
H17 C15 1_555 1_555
H18 C15 1_555 1_555
C16 O2 1_555 1_555
C17 C16 1_555 1_555
H19 C17 1_555 1_555
C18 C17 1_555 1_555
H20 C18 1_555 1_555
C19 C18 1_555 1_555
H21 C19 1_555 1_555
C20 C19 1_555 1_555
C21 C16 1_555 1_555
C22 N1 1_555 1_555
H22 C22 1_555 1_555
C23 C22 1_555 1_555
H23 C23 1_555 1_555
C24 C20 1_555 1_555
H24 C24 1_555 1_555
Cl1 O3 1_555 1_555
O4 Cl1 1_555 1_555
O5 Cl1 1_555 1_555
O6 Cl1 1_555 1_555
N2C Ag1 1_555 1_555
O1C Ag1 1_555 1_555
Ag1C N2 1_555 1_555
O1 Ag1C 1_555 1_555
C4 C5 1_555 1_555
C8 C9 1_555 1_555
C20 C21 1_555 1_555
C23 C24 1_555 1_555

#END
