
#######################################################################
#
#                 Cambridge Crystallographic Data Centre
#                                CCDC 
#
#######################################################################
#
# If this CIF has been generated from an entry in the Cambridge 
# Structural Database, then it will include bibliographic, chemical, 
# crystal, experimental, refinement or atomic coordinate data resulting 
# from the CCDC's data processing and validation procedures.
#
#######################################################################

data_REVFII01
_symmetry_cell_setting           monoclinic
_symmetry_space_group_name_H-M   'P 21/c'
_symmetry_Int_Tables_number      14
_space_group_name_Hall           '-P 2ybc'
loop_
_symmetry_equiv_pos_site_id
_symmetry_equiv_pos_as_xyz
1 x,y,z
2 -x,1/2+y,1/2-z
3 -x,-y,-z
4 x,1/2-y,1/2+z
_cell_length_a                   8.6734(6)
_cell_length_b                   13.9451(8)
_cell_length_c                   7.6801(5)
_cell_angle_alpha                90
_cell_angle_beta                 103.713(2)
_cell_angle_gamma                90
_cell_volume                     902.441
loop_
_atom_site_label
_atom_site_type_symbol
_atom_site_fract_x
_atom_site_fract_y
_atom_site_fract_z
C1 C 1.0803(5) 0.1599(3) 0.2570(6)
C2 C 1.2412(5) 0.1621(3) 0.2126(6)
H1 H 1.2534 0.2230 0.1565
H2 H 1.3228 0.1583 0.3233
C3 C 1.2669(5) 0.0829(4) 0.0911(6)
H3 H 1.1832 0.0845 -0.0180
H4 H 1.3672 0.0929 0.0586
N1 N 1.2683(5) -0.0129(3) 0.1772(6)
H5 H 1.2840 -0.0582 0.1017
H6 H 1.1756 -0.0228 0.2051
H7 H 1.3460 -0.0149 0.2764
O1 O 0.9956(3) 0.0872(2) 0.2151(5)
O2 O 1.0371(3) 0.2302(2) 0.3364(4)
O3 O 0.9619(4) 0.1096(2) 0.6459(4)
Cd1 Cd 0.79990(3) 0.154015(19) 0.35889(4)
Br1 Br 0.66449(5) -0.01440(3) 0.34638(6)
Br2 Br 0.64338(5) 0.27366(3) 0.52590(5)
H8 H 1.007(5) 0.159(2) 0.718(5)
H9 H 1.051(4) 0.075(3) 0.649(7)
Cd1C Cd 0.79990(3) 0.345985(19) 0.85889(4)
Br2C Br 0.64338(5) 0.22634(3) 0.02590(5)
loop_
_geom_bond_atom_site_label_1
_geom_bond_atom_site_label_2
_geom_bond_site_symmetry_1
_geom_bond_site_symmetry_2
C1 C2 1_555 1_555
C2 H1 1_555 1_555
H2 C2 1_555 1_555
C3 C2 1_555 1_555
H3 C3 1_555 1_555
H4 C3 1_555 1_555
N1 C3 1_555 1_555
H5 N1 1_555 1_555
H6 N1 1_555 1_555
H7 N1 1_555 1_555
O1 C1 1_555 1_555
O2 C1 1_555 1_555
O3 Cd1 1_555 1_555
Cd1 O1 1_555 1_555
Br1 Cd1 1_555 1_555
Br2 Cd1 1_555 1_555
H8 O3 1_555 1_555
H9 O3 1_555 1_555
Cd1C Br2 1_555 1_555
Br2C Cd1 1_555 1_555
O2 Cd1 1_555 1_555

#END
