
#######################################################################
#
#                 Cambridge Crystallographic Data Centre
#                                CCDC 
#
#######################################################################
#
# If this CIF has been generated from an entry in the Cambridge 
# Structural Database, then it will include bibliographic, chemical, 
# crystal, experimental, refinement or atomic coordinate data resulting 
# from the CCDC's data processing and validation procedures.
#
#######################################################################

data_REVFOO
_symmetry_cell_setting           monoclinic
_symmetry_space_group_name_H-M   'C 2/c'
_symmetry_Int_Tables_number      15
_space_group_name_Hall           '-C 2yn'
loop_
_symmetry_equiv_pos_site_id
_symmetry_equiv_pos_as_xyz
1 x,y,z
2 -x,y,1/2-z
3 1/2+x,1/2+y,z
4 1/2-x,1/2+y,1/2-z
5 -x,-y,-z
6 x,-y,1/2+z
7 1/2-x,1/2-y,-z
8 1/2+x,1/2-y,1/2+z
_cell_length_a                   13.809(3)
_cell_length_b                   8.766(3)
_cell_length_c                   14.088(3)
_cell_angle_alpha                90
_cell_angle_beta                 106.22(2)
_cell_angle_gamma                90
_cell_volume                     1637.47
loop_
_atom_site_label
_atom_site_type_symbol
_atom_site_fract_x
_atom_site_fract_y
_atom_site_fract_z
Cd1 Cd 1.0000 0.0000 0.5000
Cd2 Cd 1.0000 -0.0225(2) 0.7500
Cl1 Cl 1.0735(2) 0.1801(4) 0.6537(2)
Cl2 Cl 0.9648(2) 0.2225(4) 0.3718(2)
O1 O 1.1607(5) -0.039(1) 0.4948(5)
O2 O 0.8283(5) -0.026(1) 0.6547(4)
N1 N 1.2707(7) -0.093(1) 0.6906(6)
C1 C 1.2098(8) 0.002(2) 0.4368(6)
C2 C 1.3214(8) 0.031(2) 0.4779(7)
C3 C 1.3745(8) -0.051(1) 0.5745(8)
C4 C 1.3466(9) 0.006(2) 0.6649(7)
H1 H 1.3544 0.0033 0.4285
H2 H 1.3317 0.1386 0.4900
H3 H 1.3573 -0.1582 0.5662
H4 H 1.4465 -0.0440 0.5859
H5 H 1.3177 0.1082 0.6513
H6 H 1.4051 0.0157 0.7205
H7 H 1.2536 -0.0557 0.7479
H8 H 1.2119 -0.1008 0.6375
H9 H 1.2993 -0.1937 0.7064
Cd2D Cd 1.0000 0.0225(2) 0.2500
Cl1A Cl 0.9265(2) 0.1801(4) 0.8463(2)
Cl1D Cl 0.9265(2) -0.1801(4) 0.3463(2)
Cl2E Cl 0.9648(2) -0.2225(4) 0.8718(2)
Cl2D Cl 1.0352(2) -0.2225(4) 0.6282(2)
O1D O 0.8393(5) 0.039(1) 0.5052(5)
O2A O 1.1717(5) -0.026(1) 0.8453(4)
O2D O 1.1717(5) 0.026(1) 0.3453(4)
N1D N 0.7293(7) 0.093(1) 0.3094(6)
C1D C 0.7902(8) -0.002(2) 0.5632(6)
C2D C 0.6786(8) -0.031(2) 0.5221(7)
C3D C 0.6255(8) 0.051(1) 0.4255(8)
C4D C 0.6534(9) -0.006(2) 0.3351(7)
H1D H 0.6456 -0.0033 0.5715
H2D H 0.6683 -0.1386 0.5100
H3D H 0.6427 0.1582 0.4338
H4D H 0.5535 0.0440 0.4141
H5D H 0.6823 -0.1082 0.3487
H6D H 0.5949 -0.0157 0.2795
H7D H 0.7464 0.0557 0.2521
H8D H 0.7881 0.1008 0.3625
H9D H 0.7007 0.1937 0.2936
loop_
_geom_bond_atom_site_label_1
_geom_bond_atom_site_label_2
_geom_bond_site_symmetry_1
_geom_bond_site_symmetry_2
Cd1 Cl1 1_555 1_555
Cd2 Cl1 1_555 1_555
Cl2 Cd1 1_555 1_555
O1 Cd1 1_555 1_555
O2 Cd2 1_555 1_555
N1 C4 1_555 1_555
C1 O1 1_555 1_555
C2 C1 1_555 1_555
C3 C2 1_555 1_555
C4 C3 1_555 1_555
H1 C2 1_555 1_555
H2 C2 1_555 1_555
H3 C3 1_555 1_555
H4 C3 1_555 1_555
H5 C4 1_555 1_555
H6 C4 1_555 1_555
H7 N1 1_555 1_555
H8 N1 1_555 1_555
H9 N1 1_555 1_555
Cd2D Cl2 1_555 1_555
Cl1A Cd2 1_555 1_555
Cl1D Cd1 1_555 1_555
Cl2E Cd2 1_555 1_555
Cl2D Cd1 1_555 1_555
O1D Cd1 1_555 1_555
O2A Cd2 1_555 1_555
O2D C1 1_555 1_555
N1D C4D 1_555 1_555
C1D O2 1_555 1_555
C2D C1D 1_555 1_555
C3D C2D 1_555 1_555
C4D C3D 1_555 1_555
H1D C2D 1_555 1_555
H2D C2D 1_555 1_555
H3D C3D 1_555 1_555
H4D C3D 1_555 1_555
H5D C4D 1_555 1_555
H6D C4D 1_555 1_555
H7D N1D 1_555 1_555
H8D N1D 1_555 1_555
H9D N1D 1_555 1_555
Cd2 Cl2D 1_555 1_555
Cd2D Cl1D 1_555 1_555
Cd2D O2D 1_555 1_555
O1D C1D 1_555 1_555

#END
