
#######################################################################
#
#                 Cambridge Crystallographic Data Centre
#                                CCDC 
#
#######################################################################
#
# If this CIF has been generated from an entry in the Cambridge 
# Structural Database, then it will include bibliographic, chemical, 
# crystal, experimental, refinement or atomic coordinate data resulting 
# from the CCDC's data processing and validation procedures.
#
#######################################################################

data_REVQAK
_symmetry_cell_setting           tetragonal
_symmetry_space_group_name_H-M   'P 4/n c c'
_symmetry_Int_Tables_number      130
_space_group_name_Hall           '-P 4a 2ac'
loop_
_symmetry_equiv_pos_site_id
_symmetry_equiv_pos_as_xyz
1 x,y,z
2 1/2-y,x,z
3 y,1/2-x,z
4 1/2+y,1/2+x,1/2-z
5 1/2-x,1/2-y,z
6 -x,1/2+y,1/2-z
7 1/2+x,-y,1/2-z
8 -y,-x,1/2-z
9 -x,-y,-z
10 1/2+y,-x,-z
11 -y,1/2+x,-z
12 1/2-y,1/2-x,1/2+z
13 1/2+x,1/2+y,-z
14 x,1/2-y,1/2+z
15 1/2-x,y,1/2+z
16 y,x,1/2+z
_cell_length_a                   15.798(5)
_cell_length_b                   15.798(5)
_cell_length_c                   15.674(7)
_cell_angle_alpha                90
_cell_angle_beta                 90
_cell_angle_gamma                90
_cell_volume                     3911.87
loop_
_atom_site_label
_atom_site_type_symbol
_atom_site_fract_x
_atom_site_fract_y
_atom_site_fract_z
Co1 Co 0.25(4) 0.7500 0.2500
N1 N 0.1849(8) 0.6787(8) 0.1532(7)
C1 C 0.140(1) 0.715(1) 0.093(1)
C2 C 0.077(1) 0.674(1) 0.040(1)
C3 C 0.072(1) 0.586(1) 0.0474(9)
C4 C 0.125(1) 0.545(1) 0.107(1)
C5 C 0.179(1) 0.593(1) 0.1588(9)
C6 C 0.011(1) 0.5395(9) -0.007(1)
N2 N 0.3410(8) 0.6590(8) 0.2500
C7 C 0.391(1) 0.609(1) 0.2500
S1 S 0.4630(5) 0.5370(5) 0.2500
H1 H 0.214(1) 0.565(1) 0.2000(9)
H2 H 0.147(1) 0.775(1) 0.086(1)
H3 H -0.017(1) 0.5805(9) -0.042(1)
H4 H 0.123(1) 0.485(1) 0.113(1)
H5 H 0.042(1) 0.704(1) -0.001(1)
C6H C -0.011(1) 0.4605(9) 0.007(1)
C3H C -0.072(1) 0.414(1) -0.0474(9)
C2H C -0.077(1) 0.326(1) -0.040(1)
C1H C -0.140(1) 0.285(1) -0.093(1)
N1H N -0.1849(8) 0.3213(8) -0.1532(7)
C5H C -0.179(1) 0.407(1) -0.1588(9)
C4H C -0.125(1) 0.455(1) -0.107(1)
H4H H -0.123(1) 0.515(1) -0.113(1)
H1H H -0.214(1) 0.435(1) -0.2000(9)
H2H H -0.147(1) 0.225(1) -0.086(1)
H5H H -0.042(1) 0.296(1) 0.001(1)
H3H H 0.017(1) 0.4195(9) 0.042(1)
N1C N 0.1787(8) 0.6849(8) 0.3468(7)
C1C C 0.215(1) 0.640(1) 0.407(1)
C2C C 0.174(1) 0.577(1) 0.460(1)
C3C C 0.086(1) 0.572(1) 0.4526(9)
C4C C 0.045(1) 0.625(1) 0.393(1)
C5C C 0.093(1) 0.679(1) 0.3412(9)
C6C C 0.0395(9) 0.511(1) 0.507(1)
H1C H 0.065(1) 0.714(1) 0.3000(9)
H2C H 0.275(1) 0.647(1) 0.414(1)
H3C H 0.0805(9) 0.483(1) 0.542(1)
H4C H -0.015(1) 0.623(1) 0.387(1)
H5C H 0.204(1) 0.542(1) 0.501(1)
C6K C -0.0395(9) 0.489(1) 0.493(1)
C3K C -0.086(1) 0.428(1) 0.5474(9)
C2K C -0.174(1) 0.423(1) 0.540(1)
C1K C -0.215(1) 0.360(1) 0.593(1)
N1K N -0.1787(8) 0.3151(8) 0.6532(7)
C5K C -0.093(1) 0.321(1) 0.6588(9)
C4K C -0.045(1) 0.375(1) 0.607(1)
H4K H 0.015(1) 0.377(1) 0.613(1)
H1K H -0.065(1) 0.286(1) 0.7000(9)
H2K H -0.275(1) 0.353(1) 0.586(1)
H5K H -0.204(1) 0.458(1) 0.499(1)
H3K H -0.0805(9) 0.517(1) 0.458(1)
N2C N 0.1590(8) 0.8410(8) 0.2500
C7C C 0.109(1) 0.891(1) 0.2500
S1C S 0.0370(5) 0.9630(5) 0.2500
N1D N 0.3151(8) 0.8213(8) 0.1532(7)
N1G N 0.3213(8) 0.8151(8) 0.3468(7)
Co1L Co -0.25(4) 0.2500 -0.2500
Co1L_2 Co -0.25(4) 0.2500 0.7500
loop_
_geom_bond_atom_site_label_1
_geom_bond_atom_site_label_2
_geom_bond_site_symmetry_1
_geom_bond_site_symmetry_2
Co1 N1 1_555 1_555
N1 C1 1_555 1_555
C1 C2 1_555 1_555
C2 C3 1_555 1_555
C3 C4 1_555 1_555
C4 C5 1_555 1_555
C5 N1 1_555 1_555
C6 C3 1_555 1_555
N2 Co1 1_555 1_555
C7 N2 1_555 1_555
S1 C7 1_555 1_555
H1 C5 1_555 1_555
H2 C1 1_555 1_555
H3 C6 1_555 1_555
H4 C4 1_555 1_555
H5 C2 1_555 1_555
C6H C6 1_555 1_555
C3H C6H 1_555 1_555
C2H C3H 1_555 1_555
C1H C2H 1_555 1_555
N1H C1H 1_555 1_555
C5H N1H 1_555 1_555
C4H C3H 1_555 1_555
H4H C4H 1_555 1_555
H1H C5H 1_555 1_555
H2H C1H 1_555 1_555
H5H C2H 1_555 1_555
H3H C6H 1_555 1_555
N1C Co1 1_555 1_555
C1C N1C 1_555 1_555
C2C C1C 1_555 1_555
C3C C2C 1_555 1_555
C4C C3C 1_555 1_555
C5C N1C 1_555 1_555
C6C C3C 1_555 1_555
H1C C5C 1_555 1_555
H2C C1C 1_555 1_555
H3C C6C 1_555 1_555
H4C C4C 1_555 1_555
H5C C2C 1_555 1_555
C6K C6C 1_555 1_555
C3K C6K 1_555 1_555
C2K C3K 1_555 1_555
C1K C2K 1_555 1_555
N1K C1K 1_555 1_555
C5K N1K 1_555 1_555
C4K C3K 1_555 1_555
H4K C4K 1_555 1_555
H1K C5K 1_555 1_555
H2K C1K 1_555 1_555
H5K C2K 1_555 1_555
H3K C6K 1_555 1_555
N2C Co1 1_555 1_555
C7C N2C 1_555 1_555
S1C C7C 1_555 1_555
N1D Co1 1_555 1_555
N1G Co1 1_555 1_555
Co1L N1H 1_555 1_555
Co1L_2 N1K 1_555 1_555
C5H C4H 1_555 1_555
C4C C5C 1_555 1_555
C5K C4K 1_555 1_555

#END
