
#######################################################################
#
#                 Cambridge Crystallographic Data Centre
#                                CCDC 
#
#######################################################################
#
# If this CIF has been generated from an entry in the Cambridge 
# Structural Database, then it will include bibliographic, chemical, 
# crystal, experimental, refinement or atomic coordinate data resulting 
# from the CCDC's data processing and validation procedures.
#
#######################################################################

data_REWGUV
_symmetry_cell_setting           monoclinic
_symmetry_space_group_name_H-M   'P 2/n'
_symmetry_Int_Tables_number      13
_space_group_name_Hall           '-P 2yac'
loop_
_symmetry_equiv_pos_site_id
_symmetry_equiv_pos_as_xyz
1 x,y,z
2 1/2-x,y,1/2-z
3 -x,-y,-z
4 1/2+x,-y,1/2+z
_cell_length_a                   14.063(1)
_cell_length_b                   11.500(1)
_cell_length_c                   18.388(1)
_cell_angle_alpha                90
_cell_angle_beta                 91.10(2)
_cell_angle_gamma                90
_cell_volume                     2973.24
loop_
_atom_site_label
_atom_site_type_symbol
_atom_site_fract_x
_atom_site_fract_y
_atom_site_fract_z
Pr1 Pr 0.2500 0.2076(1) 0.2500
O1 O 0.0898(2) 0.1442(4) 0.2509(2)
C1 C 0.0162(3) 0.0839(5) 0.2482(3)
C2 C -0.0196(4) 0.0076(7) 0.3075(3)
C3 C -0.1038(5) -0.0539(7) 0.2745(4)
C4 C -0.1253(4) 0.0047(7) 0.2028(3)
N1 N -0.0432(3) 0.0807(4) 0.1919(2)
C5 C -0.0335(4) 0.1470(5) 0.1247(3)
C6 C -0.0165(4) 0.0704(4) 0.0605(3)
C7 C 0.0656(3) 0.0077(5) 0.0561(3)
C8 C -0.0831(4) 0.0627(5) 0.0038(3)
O2 O 0.2242(3) 0.2353(3) 0.1220(2)
C9 C 0.2618(4) 0.2216(4) 0.0616(3)
C10 C 0.3295(4) 0.1287(7) 0.0421(3)
C11 C 0.3480(7) 0.1438(11) -0.0379(4)
C12 C 0.3022(6) 0.2564(9) -0.0580(4)
N2 N 0.2465(3) 0.2910(4) 0.0055(2)
C13 C 0.1910(5) 0.3964(6) 0.0073(3)
O3 O -0.1547(3) 0.6281(4) -0.2744(3)
C14 C -0.1123(4) 0.5485(4) -0.3049(3)
C15 C -0.0765(5) 0.5494(6) -0.3793(4)
C16 C -0.0149(6) 0.4424(7) -0.3840(4)
C17 C -0.0428(6) 0.3686(6) -0.3210(4)
N3 N -0.0947(3) 0.4486(4) -0.2733(2)
C18 C -0.1246(4) 0.4167(5) -0.2008(3)
C19 C -0.0422(4) 0.4102(5) -0.1466(3)
C20 C 0.0153(5) 0.5064(5) -0.1327(4)
C21 C 0.0894(5) 0.5012(5) -0.0847(3)
C22 C 0.1101(4) 0.3994(5) -0.0475(3)
C23 C 0.0548(5) 0.3044(5) -0.0619(4)
C24 C -0.0201(5) 0.3095(5) -0.1113(4)
Cl1 Cl 0.2500 -0.0763(2) 0.2500
O4 O 0.1657(5) -0.1439(5) 0.2478(3)
O5 O 0.2509(3) 0.0001(3) 0.1871(2)
H1 H -0.0382(4) 0.0537(7) 0.3491(3)
H2 H 0.0288(4) -0.0476(7) 0.3231(3)
H3 H -0.1580(5) -0.0482(7) 0.3062(4)
H4 H -0.0894(5) -0.1355(7) 0.2670(4)
H5 H -0.1313(4) -0.0520(7) 0.1640(3)
H6 H -0.1836(4) 0.0495(7) 0.2050(3)
H7 H 0.0192(4) 0.2010(5) 0.1303(3)
H8 H -0.0908(4) 0.1921(5) 0.1159(3)
H9 H 0.1106(3) 0.0122(5) 0.0937(3)
H10 H -0.1395(4) 0.1047(5) 0.0058(3)
H11 H 0.3023(4) 0.0527(7) 0.0513(3)
H12 H 0.3881(4) 0.1361(7) 0.0703(3)
H13 H 0.4158(7) 0.1463(11) -0.0467(4)
H14 H 0.3201(7) 0.0804(11) -0.0659(4)
H15 H 0.3499(6) 0.3146(9) -0.0685(4)
H16 H 0.2610(6) 0.2471(9) -0.1005(4)
H17 H 0.2326(5) 0.4620(6) -0.0015(3)
H18 H 0.1654(5) 0.4055(6) 0.0555(3)
H19 H -0.1286(5) 0.5458(6) -0.4146(4)
H20 H -0.0396(5) 0.6191(6) -0.3881(4)
H21 H 0.0519(6) 0.4629(7) -0.3804(4)
H22 H -0.0265(6) 0.4019(7) -0.4296(4)
H23 H 0.0128(6) 0.3371(6) -0.2961(4)
H24 H -0.0833(6) 0.3049(6) -0.3370(4)
H25 H -0.1702(4) 0.4735(5) -0.1840(3)
H26 H -0.1562(4) 0.3418(5) -0.2030(3)
H27 H 0.0025(5) 0.5759(5) -0.1569(4)
H28 H 0.1268(5) 0.5669(5) -0.0767(3)
H29 H 0.0680(5) 0.2349(5) -0.0380(4)
H30 H -0.0561(5) 0.2431(5) -0.1207(4)
O1A O 0.4102(2) 0.1442(4) 0.2491(2)
O2A O 0.2758(3) 0.2353(3) 0.3780(2)
O3C O 0.3453(3) 0.3719(4) 0.2256(3)
O5A O 0.2491(3) 0.0001(3) 0.3129(2)
C8B C 0.0831(4) -0.0627(5) -0.0038(3)
C7B C -0.0656(3) -0.0077(5) -0.0561(3)
O4A O 0.3343(5) -0.1439(5) 0.2522(3)
C1A C 0.4838(3) 0.0839(5) 0.2518(3)
C6B C 0.0165(4) -0.0704(4) -0.0605(3)
H10B H 0.1395(4) -0.1047(5) -0.0058(3)
H9B H -0.1106(3) -0.0122(5) -0.0937(3)
C2A C 0.5196(4) 0.0076(7) 0.1925(3)
N1A N 0.5432(3) 0.0807(4) 0.3081(2)
C5B C 0.0335(4) -0.1470(5) -0.1247(3)
C3A C 0.6038(5) -0.0539(7) 0.2255(4)
H1A H 0.5382(4) 0.0537(7) 0.1509(3)
H2A H 0.4712(4) -0.0476(7) 0.1769(3)
C4A C 0.6253(4) 0.0047(7) 0.2972(3)
C5A C 0.5335(4) 0.1470(5) 0.3753(3)
N1B N 0.0432(3) -0.0807(4) -0.1919(2)
H7B H -0.0192(4) -0.2010(5) -0.1303(3)
H8B H 0.0908(4) -0.1921(5) -0.1159(3)
H3A H 0.6580(5) -0.0482(7) 0.1938(4)
H4A H 0.5894(5) -0.1355(7) 0.2330(4)
H5A H 0.6313(4) -0.0520(7) 0.3360(3)
H6A H 0.6836(4) 0.0495(7) 0.2950(3)
C6A C 0.5165(4) 0.0704(4) 0.4395(3)
H7A H 0.4808(4) 0.2010(5) 0.3697(3)
H8A H 0.5908(4) 0.1921(5) 0.3841(3)
C1B C -0.0162(3) -0.0839(5) -0.2482(3)
C4B C 0.1253(4) -0.0047(7) -0.2028(3)
C7A C 0.4344(3) 0.0077(5) 0.4439(3)
C8A C 0.5831(4) 0.0627(5) 0.4962(3)
O1B O -0.0898(2) -0.1442(4) -0.2509(2)
C2B C 0.0196(4) -0.0076(7) -0.3075(3)
C3B C 0.1038(5) 0.0539(7) -0.2745(4)
H5B H 0.1313(4) 0.0520(7) -0.1640(3)
H6B H 0.1836(4) -0.0495(7) -0.2050(3)
Pr1B Pr -0.2500 0.7924(1) -0.2500
O3B O 0.1547(3) 0.3719(4) 0.2744(3)
C8C C 0.4169(4) -0.0627(5) 0.5038(3)
H9A H 0.3894(3) 0.0122(5) 0.4063(3)
C7C C 0.5656(3) -0.0077(5) 0.5561(3)
H10A H 0.6395(4) 0.1047(5) 0.4942(3)
Pr1B_2 Pr -0.2500 -0.2076(1) -0.2500
H1B H 0.0382(4) -0.0537(7) -0.3491(3)
H2B H -0.0288(4) 0.0476(7) -0.3231(3)
H3B H 0.1580(5) 0.0482(7) -0.3062(4)
H4B H 0.0894(5) 0.1355(7) -0.2670(4)
C6C C 0.4835(4) -0.0704(4) 0.5605(3)
H10C H 0.3605(4) -0.1047(5) 0.5058(3)
H9C H 0.6106(3) -0.0122(5) 0.5937(3)
C5C C 0.4665(4) -0.1470(5) 0.6247(3)
N1C N 0.4568(3) -0.0807(4) 0.6919(2)
H7C H 0.5192(4) -0.2010(5) 0.6303(3)
H8C H 0.4092(4) -0.1921(5) 0.6159(3)
C1C C 0.5162(3) -0.0839(5) 0.7482(3)
C4C C 0.3747(4) -0.0047(7) 0.7028(3)
O1C O 0.5898(2) -0.1442(4) 0.7509(2)
C2C C 0.4804(4) -0.0076(7) 0.8075(3)
C3C C 0.3962(5) 0.0539(7) 0.7745(4)
H5C H 0.3687(4) 0.0520(7) 0.6640(3)
H6C H 0.3164(4) -0.0495(7) 0.7050(3)
Pr1B_3 Pr 0.7500 -0.2076(1) 0.7500
H1C H 0.4618(4) -0.0537(7) 0.8491(3)
H2C H 0.5288(4) 0.0476(7) 0.8231(3)
H3C H 0.3420(5) 0.0482(7) 0.8062(4)
H4C H 0.4106(5) 0.1355(7) 0.7670(4)
Cl2 Cl 0.1612(2) 0.7480(3) 0.5509(3)
O6 O 0.2221(19) 0.7885(24) 0.6000(17)
O7 O 0.1531(17) 0.6289(19) 0.5599(15)
O8 O 0.2084(20) 0.7581(31) 0.4790(15)
O9 O 0.0672(13) 0.7656(30) 0.5494(21)
C25 C 0.2500 0.5455(22) 0.7500
C26 C 0.2500 0.4289(18) 0.7500
N4 N 0.2500 0.3468(18) 0.7500
O10? O 0.1997(26) 0.8516(28) 0.5741(23)
O11? O 0.2031(28) 0.6628(33) 0.5376(30)
O12? O 0.1295(27) 0.7339(25) 0.6399(23)
O13? O 0.0987(29) 0.8036(38) 0.5226(29)
H31? H 0.3037 0.5733(22) 0.7779
H32? H 0.1924 0.5733(22) 0.7712
H33? H 0.2539 0.5733(22) 0.7009
loop_
_geom_bond_atom_site_label_1
_geom_bond_atom_site_label_2
_geom_bond_site_symmetry_1
_geom_bond_site_symmetry_2
Pr1 O1 1_555 1_555
O1 C1 1_555 1_555
C1 C2 1_555 1_555
C2 C3 1_555 1_555
C3 C4 1_555 1_555
C4 N1 1_555 1_555
N1 C1 1_555 1_555
C5 N1 1_555 1_555
C6 C5 1_555 1_555
C7 C6 1_555 1_555
C8 C6 1_555 1_555
O2 Pr1 1_555 1_555
C9 O2 1_555 1_555
C10 C9 1_555 1_555
C11 C10 1_555 1_555
C12 C11 1_555 1_555
N2 C9 1_555 1_555
C13 N2 1_555 1_555
O3 C14 1_555 1_555
C14 C15 1_555 1_555
C15 C16 1_555 1_555
C16 C17 1_555 1_555
C17 N3 1_555 1_555
N3 C14 1_555 1_555
C18 N3 1_555 1_555
C19 C18 1_555 1_555
C20 C19 1_555 1_555
C21 C20 1_555 1_555
C22 C13 1_555 1_555
C23 C22 1_555 1_555
C24 C19 1_555 1_555
Cl1 O4 1_555 1_555
O5 Pr1 1_555 1_555
Cl2 O6 1_555 1_555
O7 Cl2 1_555 1_555
O8 Cl2 1_555 1_555
O9 Cl2 1_555 1_555
C25 C26 1_555 1_555
C26 N4 1_555 1_555
H1 C2 1_555 1_555
H2 C2 1_555 1_555
H3 C3 1_555 1_555
H4 C3 1_555 1_555
H5 C4 1_555 1_555
H6 C4 1_555 1_555
H7 C5 1_555 1_555
H8 C5 1_555 1_555
H9 C7 1_555 1_555
H10 C8 1_555 1_555
H11 C10 1_555 1_555
H12 C10 1_555 1_555
H13 C11 1_555 1_555
H14 C11 1_555 1_555
H15 C12 1_555 1_555
H16 C12 1_555 1_555
H17 C13 1_555 1_555
H18 C13 1_555 1_555
H19 C15 1_555 1_555
H20 C15 1_555 1_555
H21 C16 1_555 1_555
H22 C16 1_555 1_555
H23 C17 1_555 1_555
H24 C17 1_555 1_555
H25 C18 1_555 1_555
H26 C18 1_555 1_555
H27 C20 1_555 1_555
H28 C21 1_555 1_555
H29 C23 1_555 1_555
H30 C24 1_555 1_555
O1A Pr1 1_555 1_555
O2A Pr1 1_555 1_555
O3C Pr1 1_555 1_555
O5A Pr1 1_555 1_555
C8B C7 1_555 1_555
C7B C8 1_555 1_555
O4A Cl1 1_555 1_555
C1A O1A 1_555 1_555
C6B C8B 1_555 1_555
H10B C8B 1_555 1_555
H9B C7B 1_555 1_555
C2A C1A 1_555 1_555
N1A C1A 1_555 1_555
C5B C6B 1_555 1_555
C3A C2A 1_555 1_555
H1A C2A 1_555 1_555
H2A C2A 1_555 1_555
C4A N1A 1_555 1_555
C5A N1A 1_555 1_555
N1B C5B 1_555 1_555
H7B C5B 1_555 1_555
H8B C5B 1_555 1_555
H3A C3A 1_555 1_555
H4A C3A 1_555 1_555
H5A C4A 1_555 1_555
H6A C4A 1_555 1_555
C6A C5A 1_555 1_555
H7A C5A 1_555 1_555
H8A C5A 1_555 1_555
C1B N1B 1_555 1_555
C4B N1B 1_555 1_555
C7A C6A 1_555 1_555
C8A C6A 1_555 1_555
O1B C1B 1_555 1_555
C2B C1B 1_555 1_555
C3B C4B 1_555 1_555
H5B C4B 1_555 1_555
H6B C4B 1_555 1_555
Pr1B O3 1_555 1_555
O3B Pr1 1_555 1_555
C8C C7A 1_555 1_555
H9A C7A 1_555 1_555
C7C C8A 1_555 1_555
H10A C8A 1_555 1_555
Pr1B_2 O1B 1_555 1_555
H1B C2B 1_555 1_555
H2B C2B 1_555 1_555
H3B C3B 1_555 1_555
H4B C3B 1_555 1_555
C6C C8C 1_555 1_555
H10C C8C 1_555 1_555
H9C C7C 1_555 1_555
C5C C6C 1_555 1_555
N1C C5C 1_555 1_555
H7C C5C 1_555 1_555
H8C C5C 1_555 1_555
C1C N1C 1_555 1_555
C4C N1C 1_555 1_555
O1C C1C 1_555 1_555
C2C C1C 1_555 1_555
C3C C4C 1_555 1_555
H5C C4C 1_555 1_555
H6C C4C 1_555 1_555
Pr1B_3 O1C 1_555 1_555
H1C C2C 1_555 1_555
H2C C2C 1_555 1_555
H3C C3C 1_555 1_555
H4C C3C 1_555 1_555
C12 N2 1_555 1_555
C21 C22 1_555 1_555
C23 C24 1_555 1_555
Cl1 O5 1_555 1_555
Cl1 O5A 1_555 1_555
C7B C6B 1_555 1_555
C3A C4A 1_555 1_555
C2B C3B 1_555 1_555
C7C C6C 1_555 1_555
C2C C3C 1_555 1_555

#END
