
#######################################################################
#
#                 Cambridge Crystallographic Data Centre
#                                CCDC 
#
#######################################################################
#
# If this CIF has been generated from an entry in the Cambridge 
# Structural Database, then it will include bibliographic, chemical, 
# crystal, experimental, refinement or atomic coordinate data resulting 
# from the CCDC's data processing and validation procedures.
#
#######################################################################

data_REWNEO
_symmetry_cell_setting           tetragonal
_symmetry_space_group_name_H-M   'I 4/m'
_symmetry_Int_Tables_number      87
_space_group_name_Hall           '-I 4'
loop_
_symmetry_equiv_pos_site_id
_symmetry_equiv_pos_as_xyz
1 x,y,z
2 -y,x,z
3 -x,-y,z
4 y,-x,z
5 1/2+x,1/2+y,1/2+z
6 1/2-y,1/2+x,1/2+z
7 1/2-x,1/2-y,1/2+z
8 1/2+y,1/2-x,1/2+z
9 -x,-y,-z
10 y,-x,-z
11 x,y,-z
12 -y,x,-z
13 1/2-x,1/2-y,1/2-z
14 1/2+y,1/2-x,1/2-z
15 1/2+x,1/2+y,1/2-z
16 1/2-y,1/2+x,1/2-z
_cell_length_a                   31.3109(11)
_cell_length_b                   31.3109(11)
_cell_length_c                   44.807(3)
_cell_angle_alpha                90
_cell_angle_beta                 90
_cell_angle_gamma                90
_cell_volume                     43927.5
loop_
_atom_site_label
_atom_site_type_symbol
_atom_site_fract_x
_atom_site_fract_y
_atom_site_fract_z
Cu1 Cu 0.64495(4) 0.39505(4) 0.12720(3)
Cu2 Cu 0.69391(4) 0.35868(4) 0.16816(3)
Cu3 Cu 0.53852(5) 0.25052(5) 0.0000
Cu4 Cu 0.55021(5) 0.16650(5) 0.0000
O1 O 0.8734(2) -0.09874(17) 0.34842(15)
O2 O 0.8482(2) -0.13928(18) 0.31220(12)
O3 O 0.64814(18) 0.33936(18) 0.10668(14)
O4 O 0.6871(2) 0.30753(18) 0.14342(14)
O5 O 0.58932(19) -0.30332(19) 0.10981(14)
O6 O 0.6249(2) -0.25991(19) 0.14197(15)
O7 O 0.85044(17) 0.05590(17) 0.34765(14)
O8 O 0.8058(2) 0.08476(19) 0.31253(14)
O9 O 0.6048(3) 0.4251(3) 0.09514(16)
H1 H 0.6199 0.4400 0.0793
H2 H 0.5855 0.4064 0.0842
O10 O 0.7321(3) 0.3235(2) 0.2011(2)
H3 H 0.7166 0.3038 0.2093
H4 H 0.7538 0.3116 0.1924
O11 O 0.5836(2) 0.25202(18) 0.03033(14)
O12 O 0.5925(2) 0.1790(2) 0.03090(14)
O13 O 0.50335(19) -0.2377(2) 0.03027(14)
O14 O 0.49468(18) -0.16577(18) 0.02982(14)
O15 O 0.5282(3) 0.3213(3) 0.0000
H5 H 0.5328 0.3309 0.0170
O16 O 0.5614(3) 0.0983(3) 0.0000
H6 H 0.5495 0.0874 -0.0147
N1 N 0.7744(4) -0.0354(3) 0.2410(2)
N2 N 0.7534(6) -0.0762(3) 0.2369(3)
N3 N 0.7422(6) -0.0660(3) 0.2077(3)
N4 N 0.6314(6) -0.0485(4) 0.0886(3)
N5 N 0.6151(6) -0.0831(4) 0.0762(3)
N6 N 0.6124(4) -0.1121(3) 0.0985(3)
N7 N 0.6894(4) 0.1514(3) 0.1160(3)
N8 N 0.7209(5) 0.1563(4) 0.1368(3)
N9 N 0.7282(5) 0.1137(3) 0.1443(3)
C1 C 0.8548(3) -0.1030(3) 0.3257(2)
C2 C 0.8342(4) -0.0639(3) 0.3084(2)
C3 C 0.8160(3) -0.0689(3) 0.2830(2)
H7 H 0.8142 -0.0960 0.2740
C4 C 0.7994(5) -0.0342(4) 0.2696(3)
C5 C 0.7626(4) -0.0079(3) 0.2237(2)
H8 H 0.7668 0.0218 0.2251
C6 C 0.7404(5) -0.0315(3) 0.2001(3)
C7 C 0.7237(6) -0.0143(4) 0.1728(3)
C8 C 0.7180(5) 0.0304(4) 0.1678(3)
H9 H 0.7252 0.0498 0.1830
C9 C 0.7037(7) 0.0441(4) 0.1440(4)
C10 C 0.6707(7) 0.0127(4) 0.1276(3)
H10 H 0.6534 0.0240 0.1124
C11 C 0.6665(7) -0.0275(4) 0.1341(3)
C12 C 0.6972(4) -0.0431(3) 0.1565(3)
H11 H 0.6993 -0.0726 0.1602
C13 C 0.6443(5) -0.0535(4) 0.1155(4)
C14 C 0.6368(5) -0.1026(4) 0.1205(3)
H12 H 0.6475 -0.1203 0.1357
C15 C 0.5930(4) -0.1493(3) 0.0900(3)
C16 C 0.6073(3) -0.1881(3) 0.1081(3)
H13 H 0.6282 -0.1856 0.1230
C17 C 0.5877(3) -0.2286(3) 0.1015(2)
C18 C 0.5616(3) -0.2293(3) 0.0790(2)
H14 H 0.5554 -0.2566 0.0715
C19 C 0.5412(4) -0.1953(3) 0.0643(2)
C20 C 0.5650(4) -0.1558(3) 0.0687(3)
H15 H 0.5600 -0.1333 0.0553
C21 C 0.5102(3) -0.1999(3) 0.0407(2)
C22 C 0.6611(4) 0.3076(3) 0.1196(2)
C23 C 0.6596(3) 0.2651(3) 0.1050(2)
C24 C 0.6359(3) 0.2616(3) 0.0802(2)
H16 H 0.6245 0.2863 0.0713
C25 C 0.6277(3) 0.2205(3) 0.0670(2)
C26 C 0.6471(3) 0.1874(3) 0.0790(3)
H17 H 0.6466 0.1614 0.0684
C27 C 0.6680(5) 0.1884(3) 0.1060(3)
C28 C 0.6781(5) 0.2303(3) 0.1169(3)
H18 H 0.6978 0.2335 0.1326
C29 C 0.6025(3) 0.2155(3) 0.0417(2)
C30 C 0.6718(6) 0.1112(3) 0.1162(3)
H19 H 0.6466 0.1006 0.1075
C31 C 0.6001(3) -0.2627(3) 0.1181(2)
C32 C 0.7040(6) 0.0903(4) 0.1339(4)
C33 C 0.8431(4) -0.0228(3) 0.3210(3)
H20 H 0.8623 -0.0196 0.3369
C34 C 0.8229(3) 0.0111(3) 0.3091(2)
C35 C 0.8022(4) 0.0084(4) 0.2822(3)
H21 H 0.7906 0.0324 0.2726
C36 C 0.8274(3) 0.0518(3) 0.3241(2)
H5J H 0.5328 0.3309 -0.0170
H6J H 0.5495 0.0874 0.0147
Cu1A Cu 0.60495(4) -0.35505(4) 0.12720(3)
Cu2A Cu 0.64132(4) -0.30609(4) 0.16816(3)
O1A O 1.09874(17) -0.1266(2) 0.34842(15)
O2A O 1.13928(18) -0.1518(2) 0.31220(12)
O3A O 0.66064(18) -0.35186(18) 0.10668(14)
O4A O 0.69247(18) -0.3129(2) 0.14342(14)
O5A O 1.30332(19) -0.41068(19) 0.10981(14)
O6A O 1.25991(19) -0.3751(2) 0.14197(15)
O7A O 0.94410(17) -0.14956(17) 0.34765(14)
O8A O 0.91524(19) -0.1942(2) 0.31253(14)
O9A O 0.5749(3) -0.3952(3) 0.09514(16)
H1A H 0.5600 -0.3801 0.0793
H2A H 0.5936 -0.4145 0.0842
O10A O 0.6765(2) -0.2679(3) 0.2011(2)
H3A H 0.6962 -0.2834 0.2093
H4A H 0.6884 -0.2462 0.1924
O11A O 0.74798(18) -0.4164(2) 0.03033(14)
O12A O 0.8210(2) -0.4075(2) 0.03090(14)
O13A O 1.2377(2) -0.49665(19) 0.03027(14)
O14A O 1.16577(18) -0.50532(18) 0.02982(14)
N1A N 1.0354(3) -0.2256(4) 0.2410(2)
N2A N 1.0762(3) -0.2466(6) 0.2369(3)
N3A N 1.0660(3) -0.2578(6) 0.2077(3)
N4A N 1.0485(4) -0.3686(6) 0.0886(3)
N5A N 1.0831(4) -0.3849(6) 0.0762(3)
N6A N 1.1121(3) -0.3876(4) 0.0985(3)
N7A N 0.8486(3) -0.3106(4) 0.1160(3)
N8A N 0.8437(4) -0.2791(5) 0.1368(3)
N9A N 0.8863(3) -0.2718(5) 0.1443(3)
C1A C 1.1030(3) -0.1452(3) 0.3257(2)
C2A C 1.0639(3) -0.1658(4) 0.3084(2)
C3A C 1.0689(3) -0.1840(3) 0.2830(2)
H7A H 1.0960 -0.1858 0.2740
C4A C 1.0342(4) -0.2006(5) 0.2696(3)
C5A C 1.0079(3) -0.2374(4) 0.2237(2)
H8A H 0.9782 -0.2332 0.2251
C6A C 1.0315(3) -0.2596(5) 0.2001(3)
C7A C 1.0143(4) -0.2763(6) 0.1728(3)
C8A C 0.9696(4) -0.2820(5) 0.1678(3)
H9A H 0.9502 -0.2748 0.1830
C9A C 0.9559(4) -0.2963(7) 0.1440(4)
C10A C 0.9873(4) -0.3293(7) 0.1276(3)
H10A H 0.9760 -0.3466 0.1124
C11A C 1.0275(4) -0.3335(7) 0.1341(3)
C12A C 1.0431(3) -0.3028(4) 0.1565(3)
H11A H 1.0726 -0.3007 0.1602
C13A C 1.0535(4) -0.3557(5) 0.1155(4)
C14A C 1.1026(4) -0.3632(5) 0.1205(3)
H12A H 1.1203 -0.3525 0.1357
C15A C 1.1493(3) -0.4070(4) 0.0900(3)
C16A C 1.1881(3) -0.3927(3) 0.1081(3)
H13A H 1.1856 -0.3718 0.1230
C17A C 1.2286(3) -0.4123(3) 0.1015(2)
C18A C 1.2293(3) -0.4384(3) 0.0790(2)
H14A H 1.2566 -0.4446 0.0715
C19A C 1.1953(3) -0.4588(4) 0.0643(2)
C20A C 1.1558(3) -0.4350(4) 0.0687(3)
H15A H 1.1333 -0.4400 0.0553
C21A C 1.1999(3) -0.4898(3) 0.0407(2)
C22A C 0.6924(3) -0.3389(4) 0.1196(2)
C23A C 0.7349(3) -0.3404(3) 0.1050(2)
C24A C 0.7384(3) -0.3641(3) 0.0802(2)
H16A H 0.7137 -0.3755 0.0713
C25A C 0.7795(3) -0.3723(3) 0.0670(2)
C26A C 0.8126(3) -0.3529(3) 0.0790(3)
H17A H 0.8386 -0.3534 0.0684
C27A C 0.8116(3) -0.3320(5) 0.1060(3)
C28A C 0.7697(3) -0.3219(5) 0.1169(3)
H18A H 0.7665 -0.3022 0.1326
C29A C 0.7845(3) -0.3975(3) 0.0417(2)
C30A C 0.8888(3) -0.3282(6) 0.1162(3)
H19A H 0.8994 -0.3534 0.1075
C31A C 1.2627(3) -0.3999(3) 0.1181(2)
C32A C 0.9097(4) -0.2960(6) 0.1339(4)
C33A C 1.0228(3) -0.1569(4) 0.3210(3)
H20A H 1.0196 -0.1377 0.3369
C34A C 0.9889(3) -0.1771(3) 0.3091(2)
C35A C 0.9916(4) -0.1978(4) 0.2822(3)
H21A H 0.9676 -0.2094 0.2726
C36A C 0.9482(3) -0.1726(3) 0.3241(2)
Cu1B Cu 1.35505(4) -0.39505(4) 0.12720(3)
Cu1L Cu 0.85505(4) 0.10495(4) 0.37280(3)
Cu1M Cu 0.89505(4) -0.14495(4) 0.37280(3)
Cu1N Cu 1.14495(4) -0.10495(4) 0.37280(3)
Cu2B Cu 1.30609(4) -0.35868(4) 0.16816(3)
Cu2L Cu 0.80609(4) 0.14132(4) 0.33184(3)
Cu2M Cu 0.85868(4) -0.19391(4) 0.33184(3)
Cu2N Cu 1.19391(4) -0.14132(4) 0.33184(3)
Cu3A Cu 0.74948(5) -0.46148(5) 0.0000
Cu3B Cu 0.46148(5) -0.25052(5) 0.0000
Cu3C Cu 1.25052(5) -0.53852(5) 0.0000
Cu4A Cu 0.83350(5) -0.44979(5) 0.0000
Cu4B Cu 0.44979(5) -0.16650(5) 0.0000
Cu4C Cu 1.16650(5) -0.55021(5) 0.0000
O1L O 0.6266(2) -0.40126(17) 0.15158(15)
O1O O 0.59874(17) 0.3734(2) 0.15158(15)
O2L O 0.6518(2) -0.36072(18) 0.18780(12)
O2O O 0.63928(18) 0.3482(2) 0.18780(12)
O5C O 0.69668(19) 0.41068(19) 0.10981(14)
O6C O 0.74009(19) 0.3751(2) 0.14197(15)
O7L O 0.64956(17) 0.44410(17) 0.15235(14)
O7M O 0.55590(17) -0.35044(17) 0.15235(14)
O8L O 0.6942(2) 0.41524(19) 0.18747(14)
O8M O 0.58476(19) -0.3058(2) 0.18747(14)
O11J O 0.5836(2) 0.25202(18) -0.03033(14)
O12J O 0.5925(2) 0.1790(2) -0.03090(14)
O13B O 0.49665(19) 0.2377(2) 0.03027(14)
O13H O 0.49665(19) 0.2377(2) -0.03027(14)
O14B O 0.50532(18) 0.16577(18) 0.02982(14)
O14H O 0.50532(18) 0.16577(18) -0.02982(14)
loop_
_geom_bond_atom_site_label_1
_geom_bond_atom_site_label_2
_geom_bond_site_symmetry_1
_geom_bond_site_symmetry_2
Cu1 Cu2 1_555 1_555
Cu2 O4 1_555 1_555
Cu3 Cu4 1_555 1_555
Cu4 O12 1_555 1_555
O1 C1 1_555 1_555
O2 C1 1_555 1_555
O3 Cu1 1_555 1_555
O4 C22 1_555 1_555
O5 C31 1_555 1_555
O6 C31 1_555 1_555
O7 C36 1_555 1_555
O8 C36 1_555 1_555
O9 Cu1 1_555 1_555
H1 O9 1_555 1_555
H2 O9 1_555 1_555
O10 Cu2 1_555 1_555
H3 O10 1_555 1_555
H4 O10 1_555 1_555
O11 Cu3 1_555 1_555
O12 C29 1_555 1_555
O13 C21 1_555 1_555
O14 C21 1_555 1_555
O15 Cu3 1_555 1_555
H5 O15 1_555 1_555
O16 Cu4 1_555 1_555
H6 O16 1_555 1_555
N1 N2 1_555 1_555
N2 N3 1_555 1_555
N3 C6 1_555 1_555
N4 N5 1_555 1_555
N5 N6 1_555 1_555
N6 C14 1_555 1_555
N7 N8 1_555 1_555
N8 N9 1_555 1_555
N9 C32 1_555 1_555
C1 C2 1_555 1_555
C2 C3 1_555 1_555
C3 H7 1_555 1_555
C4 N1 1_555 1_555
C5 N1 1_555 1_555
H8 C5 1_555 1_555
C6 C5 1_555 1_555
C7 C6 1_555 1_555
C8 C7 1_555 1_555
H9 C8 1_555 1_555
C9 C8 1_555 1_555
C10 C9 1_555 1_555
H10 C10 1_555 1_555
C11 C10 1_555 1_555
C12 C7 1_555 1_555
H11 C12 1_555 1_555
C13 N4 1_555 1_555
C14 C13 1_555 1_555
H12 C14 1_555 1_555
C15 N6 1_555 1_555
C16 C15 1_555 1_555
H13 C16 1_555 1_555
C17 C16 1_555 1_555
C18 C17 1_555 1_555
H14 C18 1_555 1_555
C19 C18 1_555 1_555
C20 C15 1_555 1_555
H15 C20 1_555 1_555
C21 C19 1_555 1_555
C22 O3 1_555 1_555
C23 C22 1_555 1_555
C24 C23 1_555 1_555
H16 C24 1_555 1_555
C25 C24 1_555 1_555
C26 C25 1_555 1_555
H17 C26 1_555 1_555
C27 N7 1_555 1_555
C28 C23 1_555 1_555
H18 C28 1_555 1_555
C29 O11 1_555 1_555
C30 N7 1_555 1_555
H19 C30 1_555 1_555
C31 C17 1_555 1_555
C32 C9 1_555 1_555
C33 C2 1_555 1_555
H20 C33 1_555 1_555
C34 C33 1_555 1_555
C35 C4 1_555 1_555
H21 C35 1_555 1_555
C36 C34 1_555 1_555
H5J O15 1_555 1_555
H6J O16 1_555 1_555
Cu1A O5 1_555 1_555
Cu2A O6 1_555 1_555
O1A C1A 1_555 1_555
O2A C1A 1_555 1_555
O3A Cu1A 1_555 1_555
O4A Cu2A 1_555 1_555
O5A C31A 1_555 1_555
O6A C31A 1_555 1_555
O7A C36A 1_555 1_555
O8A C36A 1_555 1_555
O9A Cu1A 1_555 1_555
H1A O9A 1_555 1_555
H2A O9A 1_555 1_555
O10A Cu2A 1_555 1_555
H3A O10A 1_555 1_555
H4A O10A 1_555 1_555
O11A C29A 1_555 1_555
O12A C29A 1_555 1_555
O13A C21A 1_555 1_555
O14A C21A 1_555 1_555
N1A N2A 1_555 1_555
N2A N3A 1_555 1_555
N3A C6A 1_555 1_555
N4A N5A 1_555 1_555
N5A N6A 1_555 1_555
N6A C14A 1_555 1_555
N7A N8A 1_555 1_555
N8A N9A 1_555 1_555
N9A C32A 1_555 1_555
C1A C2A 1_555 1_555
C2A C3A 1_555 1_555
C3A H7A 1_555 1_555
C4A N1A 1_555 1_555
C5A N1A 1_555 1_555
H8A C5A 1_555 1_555
C6A C5A 1_555 1_555
C7A C6A 1_555 1_555
C8A C7A 1_555 1_555
H9A C8A 1_555 1_555
C9A C8A 1_555 1_555
C10A C9A 1_555 1_555
H10A C10A 1_555 1_555
C11A C10A 1_555 1_555
C12A C7A 1_555 1_555
H11A C12A 1_555 1_555
C13A N4A 1_555 1_555
C14A C13A 1_555 1_555
H12A C14A 1_555 1_555
C15A N6A 1_555 1_555
C16A C15A 1_555 1_555
H13A C16A 1_555 1_555
C17A C16A 1_555 1_555
C18A C17A 1_555 1_555
H14A C18A 1_555 1_555
C19A C18A 1_555 1_555
C20A C15A 1_555 1_555
H15A C20A 1_555 1_555
C21A C19A 1_555 1_555
C22A O3A 1_555 1_555
C23A C22A 1_555 1_555
C24A C23A 1_555 1_555
H16A C24A 1_555 1_555
C25A C24A 1_555 1_555
C26A C25A 1_555 1_555
H17A C26A 1_555 1_555
C27A N7A 1_555 1_555
C28A C23A 1_555 1_555
H18A C28A 1_555 1_555
C29A C25A 1_555 1_555
C30A N7A 1_555 1_555
H19A C30A 1_555 1_555
C31A C17A 1_555 1_555
C32A C9A 1_555 1_555
C33A C2A 1_555 1_555
H20A C33A 1_555 1_555
C34A C33A 1_555 1_555
C35A C4A 1_555 1_555
H21A C35A 1_555 1_555
C36A C34A 1_555 1_555
Cu1B O5A 1_555 1_555
Cu1L O7 1_555 1_555
Cu1M O1 1_555 1_555
Cu1N O1A 1_555 1_555
Cu2B O6A 1_555 1_555
Cu2L O8 1_555 1_555
Cu2M O2 1_555 1_555
Cu2N O2A 1_555 1_555
Cu3A O11A 1_555 1_555
Cu3B O13 1_555 1_555
Cu3C O13A 1_555 1_555
Cu4A O12A 1_555 1_555
Cu4B O14 1_555 1_555
Cu4C O14A 1_555 1_555
O1L Cu1A 1_555 1_555
O1O Cu1 1_555 1_555
O2L Cu2A 1_555 1_555
O2O Cu2 1_555 1_555
O5C Cu1 1_555 1_555
O6C Cu2 1_555 1_555
O7L Cu1 1_555 1_555
O7M Cu1A 1_555 1_555
O8L Cu2 1_555 1_555
O8M Cu2A 1_555 1_555
O11J Cu3 1_555 1_555
O12J Cu4 1_555 1_555
O13B Cu3 1_555 1_555
O13H Cu3 1_555 1_555
O14B Cu4 1_555 1_555
O14H Cu4 1_555 1_555
C3 C4 1_555 1_555
C11 C12 1_555 1_555
C11 C13 1_555 1_555
C19 C20 1_555 1_555
C25 C29 1_555 1_555
C26 C27 1_555 1_555
C27 C28 1_555 1_555
C30 C32 1_555 1_555
C34 C35 1_555 1_555
Cu1A Cu2A 1_555 1_555
O4A C22A 1_555 1_555
O7A Cu1M 1_555 1_555
O8A Cu2M 1_555 1_555
C3A C4A 1_555 1_555
C11A C12A 1_555 1_555
C11A C13A 1_555 1_555
C19A C20A 1_555 1_555
C26A C27A 1_555 1_555
C27A C28A 1_555 1_555
C30A C32A 1_555 1_555
C34A C35A 1_555 1_555
Cu1B Cu2B 1_555 1_555
Cu1L Cu2L 1_555 1_555
Cu1M Cu2M 1_555 1_555
Cu1N Cu2N 1_555 1_555
Cu3A Cu4A 1_555 1_555
Cu3B Cu4B 1_555 1_555
Cu3C Cu4C 1_555 1_555

#END
