
#######################################################################
#
#                 Cambridge Crystallographic Data Centre
#                                CCDC 
#
#######################################################################
#
# If this CIF has been generated from an entry in the Cambridge 
# Structural Database, then it will include bibliographic, chemical, 
# crystal, experimental, refinement or atomic coordinate data resulting 
# from the CCDC's data processing and validation procedures.
#
#######################################################################

data_REWQOA
_symmetry_cell_setting           triclinic
_symmetry_space_group_name_H-M   'P -1'
_symmetry_Int_Tables_number      2
_space_group_name_Hall           '-P 1'
loop_
_symmetry_equiv_pos_site_id
_symmetry_equiv_pos_as_xyz
1 x,y,z
2 -x,-y,-z
_cell_length_a                   9.6371(6)
_cell_length_b                   12.2646(7)
_cell_length_c                   17.0546(10)
_cell_angle_alpha                99.8200(10)
_cell_angle_beta                 95.9700(10)
_cell_angle_gamma                104.4610(10)
_cell_volume                     1900.47
loop_
_atom_site_label
_atom_site_type_symbol
_atom_site_fract_x
_atom_site_fract_y
_atom_site_fract_z
Ti1 Ti 0.03632(5) -0.10257(4) 0.04484(3)
Ti2 Ti 0.40608(5) 0.38951(4) 0.53600(3)
O1 O -0.1263(2) -0.21248(15) -0.01598(12)
O2 O 0.0105(2) -0.13016(17) 0.14571(11)
O3 O 0.1689(2) -0.18217(16) 0.02894(12)
O4 O -0.07839(18) 0.01786(14) 0.04998(10)
O5 O 0.6102(2) 0.49220(16) 0.53767(11)
O6 O 0.2186(2) 0.30588(18) 0.50453(13)
O7 O 0.3768(2) 0.48726(17) 0.62551(12)
O8 O 0.4656(3) 0.28391(18) 0.58466(14)
N1 N 0.2186(2) 0.05605(19) 0.10999(13)
H1 H 0.2137 0.1143 0.0831
H2 H 0.1961 0.0777 0.1604
N2 N 0.4516(3) 0.3015(2) 0.41496(15)
H3 H 0.3867 0.3143 0.3765
H4 H 0.5416 0.3443 0.4091
N3 N 0.4331(3) 0.1999(2) 0.24697(14)
C1 C 0.3709(3) 0.0539(2) 0.12116(17)
H5 H 0.4004 0.0346 0.0678
H6 H 0.3806 -0.0072 0.1508
C2 C -0.1732(3) -0.3341(2) -0.02650(19)
H7 H -0.0948 -0.3614 0.0003
C3 C -0.1763(3) 0.0430(2) 0.10409(16)
H8 H -0.2318 0.0914 0.0802
C4 C -0.2853(3) -0.0650(3) 0.1136(2)
H9 H -0.3369 -0.1084 0.0605
H10 H -0.3550 -0.0439 0.1471
H11 H -0.2345 -0.1127 0.1394
C5 C -0.0921(4) 0.1131(3) 0.18447(18)
H12 H -0.0428 0.0657 0.2115
H13 H -0.1590 0.1387 0.2182
H14 H -0.0201 0.1803 0.1758
C6 C 0.2759(4) -0.2383(3) 0.0099(2)
H15 H 0.3577 -0.1814 -0.0049
C7 C 0.4719(3) 0.1681(2) 0.16717(17)
H16 H 0.5730 0.1624 0.1730
H17 H 0.4664 0.2288 0.1364
C8 C 0.5068(4) 0.1573(3) 0.30994(18)
H18 H 0.6125 0.1938 0.3172
H19 H 0.4903 0.0732 0.2930
C9 C 0.0897(3) -0.1636(3) 0.20712(18)
H20 H 0.1867 -0.1648 0.1917
C10 C 0.4518(4) 0.1831(3) 0.38938(19)
H21 H 0.3517 0.1337 0.3846
H22 H 0.5129 0.1624 0.4316
C11 C 0.3344(4) -0.2790(3) 0.0805(2)
H23 H 0.3776 -0.2131 0.1250
H24 H 0.4085 -0.3173 0.0656
H25 H 0.2556 -0.3333 0.0973
C12 C -0.3068(4) -0.3670(3) 0.0122(3)
H26 H -0.2836 -0.3339 0.0701
H27 H -0.3409 -0.4510 0.0040
H28 H -0.3829 -0.3376 -0.0121
C13 C 0.1126(4) -0.0774(3) 0.2852(2)
H29 H 0.1683 -0.0018 0.2785
H30 H 0.1661 -0.1020 0.3278
H31 H 0.0184 -0.0725 0.2998
C14 C -0.2010(4) -0.3860(3) -0.1155(2)
H32 H -0.2791 -0.3608 -0.1420
H33 H -0.2294 -0.4701 -0.1234
H34 H -0.1125 -0.3608 -0.1387
C15 C 0.2131(4) -0.3356(3) -0.0636(2)
H35 H 0.1323 -0.3926 -0.0506
H36 H 0.2885 -0.3723 -0.0787
H37 H 0.1781 -0.3044 -0.1086
C16 C 0.0120(5) -0.2827(3) 0.2152(2)
H38 H -0.0852 -0.2839 0.2279
H39 H 0.0667 -0.3051 0.2586
H40 H 0.0039 -0.3369 0.1645
C17 C 0.2850(4) 0.4639(3) 0.68347(19)
H41 H 0.2233 0.3826 0.6667
C18 C 0.3754(5) 0.4777(4) 0.7643(2)
H42 H 0.4411 0.4284 0.7591
H43 H 0.3115 0.4556 0.8034
H44 H 0.4321 0.5582 0.7829
C19 C 0.1880(4) 0.5428(4) 0.6878(3)
H45 H 0.2472 0.6227 0.7052
H46 H 0.1217 0.5243 0.7265
H47 H 0.1318 0.5328 0.6345
C20 C 0.7481(4) 0.5064(3) 0.6686(2)
H48 H 0.7246 0.5785 0.6881
H49 H 0.8447 0.5097 0.6952
H50 H 0.6762 0.4421 0.6809
C21 C 0.7467(3) 0.4893(3) 0.5789(2)
H51 H 0.8223 0.5558 0.5690
C22 C 0.7861(5) 0.3811(4) 0.5439(3)
H52 H 0.7131 0.3137 0.5514
H53 H 0.8813 0.3826 0.5713
H54 H 0.7895 0.3771 0.4863
C23 C 0.5117(11) 0.2070(6) 0.7001(4)
H55 H 0.6000 0.1839 0.6911
H56 H 0.4578 0.1592 0.7334
H57 H 0.5379 0.2880 0.7275
C24 C 0.4203(6) 0.1919(4) 0.6218(3)
H58 H 0.3270 0.2023 0.6382
C25 C 0.3780(9) 0.0806(5) 0.5753(4)
H59 H 0.3159 0.0788 0.5255
H60 H 0.3241 0.0277 0.6056
H61 H 0.4641 0.0571 0.5620
C26 C 0.1017(5) 0.2139(6) 0.4747(3)
H62 H 0.1519 0.1522 0.4626
C27 C 0.0181(4) 0.1716(3) 0.5362(3)
H63 H 0.0848 0.1666 0.5821
H64 H -0.0477 0.0952 0.5130
H65 H -0.0384 0.2247 0.5543
C28 C 0.0271(5) 0.2055(4) 0.3969(3)
H66 H -0.0285 0.2625 0.3991
H67 H -0.0391 0.1281 0.3781
H68 H 0.0972 0.2199 0.3596
H69 H 0.458(4) 0.273(3) 0.259(2)
Ti1A Ti -0.03632(5) 0.10257(4) -0.04484(3)
Ti2A Ti 0.59392(5) 0.61049(4) 0.46400(3)
O4A O 0.07839(18) -0.01786(14) -0.04998(10)
O5A O 0.3898(2) 0.50780(16) 0.46233(11)
loop_
_geom_bond_atom_site_label_1
_geom_bond_atom_site_label_2
_geom_bond_site_symmetry_1
_geom_bond_site_symmetry_2
Ti1 O1 1_555 1_555
Ti2 O5 1_555 1_555
O1 C2 1_555 1_555
O2 Ti1 1_555 1_555
O3 Ti1 1_555 1_555
O4 Ti1 1_555 1_555
O5 C21 1_555 1_555
O6 Ti2 1_555 1_555
O7 Ti2 1_555 1_555
O8 Ti2 1_555 1_555
N1 Ti1 1_555 1_555
H1 N1 1_555 1_555
H2 N1 1_555 1_555
N2 Ti2 1_555 1_555
H3 N2 1_555 1_555
H4 N2 1_555 1_555
N3 C7 1_555 1_555
C1 N1 1_555 1_555
H5 C1 1_555 1_555
H6 C1 1_555 1_555
C2 H7 1_555 1_555
C3 O4 1_555 1_555
H8 C3 1_555 1_555
C4 C3 1_555 1_555
H9 C4 1_555 1_555
H10 C4 1_555 1_555
H11 C4 1_555 1_555
C5 C3 1_555 1_555
H12 C5 1_555 1_555
H13 C5 1_555 1_555
H14 C5 1_555 1_555
C6 O3 1_555 1_555
H15 C6 1_555 1_555
C7 C1 1_555 1_555
H16 C7 1_555 1_555
H17 C7 1_555 1_555
C8 N3 1_555 1_555
H18 C8 1_555 1_555
H19 C8 1_555 1_555
C9 O2 1_555 1_555
H20 C9 1_555 1_555
C10 N2 1_555 1_555
H21 C10 1_555 1_555
H22 C10 1_555 1_555
C11 C6 1_555 1_555
H23 C11 1_555 1_555
H24 C11 1_555 1_555
H25 C11 1_555 1_555
C12 C2 1_555 1_555
H26 C12 1_555 1_555
H27 C12 1_555 1_555
H28 C12 1_555 1_555
C13 C9 1_555 1_555
H29 C13 1_555 1_555
H30 C13 1_555 1_555
H31 C13 1_555 1_555
C14 C2 1_555 1_555
H32 C14 1_555 1_555
H33 C14 1_555 1_555
H34 C14 1_555 1_555
C15 C6 1_555 1_555
H35 C15 1_555 1_555
H36 C15 1_555 1_555
H37 C15 1_555 1_555
C16 C9 1_555 1_555
H38 C16 1_555 1_555
H39 C16 1_555 1_555
H40 C16 1_555 1_555
C17 O7 1_555 1_555
H41 C17 1_555 1_555
C18 C17 1_555 1_555
H42 C18 1_555 1_555
H43 C18 1_555 1_555
H44 C18 1_555 1_555
C19 C17 1_555 1_555
H45 C19 1_555 1_555
H46 C19 1_555 1_555
H47 C19 1_555 1_555
C20 H48 1_555 1_555
H49 C20 1_555 1_555
H50 C20 1_555 1_555
C21 C20 1_555 1_555
H51 C21 1_555 1_555
C22 C21 1_555 1_555
H52 C22 1_555 1_555
H53 C22 1_555 1_555
H54 C22 1_555 1_555
C23 H55 1_555 1_555
H56 C23 1_555 1_555
H57 C23 1_555 1_555
C24 O8 1_555 1_555
H58 C24 1_555 1_555
C25 C24 1_555 1_555
H59 C25 1_555 1_555
H60 C25 1_555 1_555
H61 C25 1_555 1_555
C26 O6 1_555 1_555
H62 C26 1_555 1_555
C27 C26 1_555 1_555
H63 C27 1_555 1_555
H64 C27 1_555 1_555
H65 C27 1_555 1_555
C28 C26 1_555 1_555
H66 C28 1_555 1_555
H67 C28 1_555 1_555
H68 C28 1_555 1_555
H69 N3 1_555 1_555
Ti1A O4 1_555 1_555
Ti2A O5 1_555 1_555
O4A Ti1 1_555 1_555
O5A Ti2 1_555 1_555
C8 C10 1_555 1_555
C23 C24 1_555 1_555
Ti1A O4A 1_555 1_555
Ti2A O5A 1_555 1_555

#END
