
#######################################################################
#
#                 Cambridge Crystallographic Data Centre
#                                CCDC 
#
#######################################################################
#
# If this CIF has been generated from an entry in the Cambridge 
# Structural Database, then it will include bibliographic, chemical, 
# crystal, experimental, refinement or atomic coordinate data resulting 
# from the CCDC's data processing and validation procedures.
#
#######################################################################

data_REWQUG
_symmetry_cell_setting           monoclinic
_symmetry_space_group_name_H-M   'P 21/c'
_symmetry_Int_Tables_number      14
_space_group_name_Hall           '-P 2ybc'
loop_
_symmetry_equiv_pos_site_id
_symmetry_equiv_pos_as_xyz
1 x,y,z
2 -x,1/2+y,1/2-z
3 -x,-y,-z
4 x,1/2-y,1/2+z
_cell_length_a                   18.144(4)
_cell_length_b                   18.238(4)
_cell_length_c                   12.366(3)
_cell_angle_alpha                90
_cell_angle_beta                 92.98(3)
_cell_angle_gamma                90
_cell_volume                     4086.5
loop_
_atom_site_label
_atom_site_type_symbol
_atom_site_fract_x
_atom_site_fract_y
_atom_site_fract_z
Zr1 Zr -0.048235(19) 0.48489(2) 0.61987(3)
Zr2 Zr 0.45981(2) 0.43964(2) 0.90110(3)
O1 O 0.04031(13) 0.44338(13) 0.5211(2)
O2 O 0.53292(15) 0.53458(15) 0.9255(2)
O3 O 0.44868(19) 0.45117(19) 0.7444(2)
O4 O 0.37877(17) 0.37097(17) 0.9182(3)
O5 O -0.11024(17) 0.55322(18) 0.6956(3)
N1 N 0.05629(19) 0.55827(19) 0.6828(3)
H1 H 0.0946 0.5265 0.6995
H2 H 0.0700 0.5861 0.6251
O6 O -0.12408(16) 0.42328(17) 0.5452(3)
O7 O 0.54515(16) 0.37156(17) 0.9127(3)
O8 O -0.0212(2) 0.41994(19) 0.7413(3)
N2 N 0.3721(2) 0.5408(2) 0.9050(3)
H3 H 0.3800 0.5641 0.9705
H4 H 0.3845 0.5737 0.8525
C1 C 0.2950(2) 0.5280(3) 0.8905(4)
H5 H 0.2784 0.5021 0.9552
H6 H 0.2862 0.4949 0.8277
C2 C 0.2480(2) 0.5957(3) 0.8725(4)
H7 H 0.2527 0.6275 0.9374
H8 H 0.2656 0.6238 0.8103
C3 C 0.0511(3) 0.6081(3) 0.7752(4)
H9 H 0.0266 0.5820 0.8338
H10 H 0.0196 0.6503 0.7528
C4 C 0.1241(3) 0.6362(3) 0.8190(5)
H11 H 0.1474 0.6657 0.7629
H12 H 0.1168 0.6684 0.8821
C5 C -0.1666(4) 0.5832(4) 0.7574(5)
H13 H -0.2137 0.5806 0.7117
C6 C 0.6185(3) 0.5249(5) 0.7808(6)
H14 H 0.5854 0.4952 0.7333
H15 H 0.6487 0.4925 0.8283
H16 H 0.6506 0.5544 0.7368
C7 C 0.5738(3) 0.5743(3) 0.8479(4)
H17 H 0.6107 0.6040 0.8919
C8 C 0.5681(4) 0.3028(3) 0.8751(6)
H18 H 0.5263 0.2818 0.8291
C9 C -0.1761(4) 0.5358(4) 0.8549(5)
H19 H -0.1883 0.4857 0.8315
H20 H -0.2161 0.5554 0.8967
H21 H -0.1301 0.5354 0.9001
C10 C 0.0849(3) 0.3807(3) 0.5471(5)
H22 H 0.0691 0.3766 0.6231
C11 C 0.4357(5) 0.4511(6) 0.6324(5)
H23 H 0.4686 0.4920 0.6107
C12 C -0.1534(5) 0.6602(4) 0.7834(6)
H24 H -0.1045 0.6656 0.8201
H25 H -0.1912 0.6777 0.8310
H26 H -0.1556 0.6891 0.7165
C13 C 0.1590(4) 0.3957(4) 0.5769(9)
H27 H 0.1767 0.3608 0.6328
H28 H 0.1633 0.4457 0.6054
H29 H 0.1888 0.3909 0.5134
C14 C -0.1920(4) 0.3893(5) 0.5312(8)
H30 H -0.2121 0.4119 0.4622
C15 C 0.0539(4) 0.3138(3) 0.5130(7)
H31 H 0.0051 0.3083 0.5426
H32 H 0.0859 0.2735 0.5389
H33 H 0.0489 0.3127 0.4338
C16 C 0.5833(5) 0.2524(4) 0.9654(8)
H34 H 0.6232 0.2722 1.0133
H35 H 0.5982 0.2047 0.9374
H36 H 0.5388 0.2465 1.0061
C17 C -0.0100(5) 0.3723(5) 0.8272(5)
H37 H 0.0161 0.3315 0.7908
C18 C 0.5257(5) 0.6289(4) 0.7888(6)
H38 H 0.4844 0.6035 0.7507
H39 H 0.5545 0.6552 0.7363
H40 H 0.5065 0.6639 0.8405
N3 N 0.1719(2) 0.5758(2) 0.8515(4)
C19 C 0.3222(5) 0.3213(5) 0.9154(10)
H41 H 0.2801 0.3461 0.9498
C20 C -0.2442(5) 0.4105(8) 0.6038(10)
H42 H -0.2274 0.4552 0.6415
H43 H -0.2504 0.3713 0.6567
H44 H -0.2914 0.4199 0.5642
C21 C -0.1909(5) 0.3181(5) 0.5051(13)
H45 H -0.1454 0.3070 0.4690
H46 H -0.2336 0.3067 0.4562
H47 H -0.1929 0.2884 0.5710
C22 C 0.6315(6) 0.3095(5) 0.8072(8)
H48 H 0.6188 0.3421 0.7460
H49 H 0.6445 0.2610 0.7800
H50 H 0.6735 0.3299 0.8502
C23 C 0.4669(9) 0.3925(7) 0.5823(8)
H51 H 0.5171 0.3846 0.6133
H52 H 0.4687 0.4024 0.5046
H53 H 0.4372 0.3485 0.5931
C24 C 0.0432(8) 0.3935(6) 0.9002(8)
H54 H 0.0895 0.4005 0.8640
H55 H 0.0501 0.3557 0.9562
H56 H 0.0288 0.4397 0.9336
C25 C -0.0738(6) 0.3355(6) 0.8566(10)
H57 H -0.1151 0.3701 0.8560
H58 H -0.0655 0.3149 0.9294
H59 H -0.0852 0.2959 0.8049
C26 C 0.3699(7) 0.4763(14) 0.5975(8)
H60 H 0.3328 0.4619 0.6484
H61 H 0.3567 0.4556 0.5259
H62 H 0.3716 0.5299 0.5925
C27 C 0.3393(9) 0.2545(7) 0.9632(19)
H63 H 0.3751 0.2286 0.9202
H64 H 0.2944 0.2249 0.9664
H65 H 0.3607 0.2625 1.0366
C28 C 0.2936(14) 0.3103(11) 0.8101(12)
H66 H 0.2429 0.3287 0.8033
H67 H 0.2939 0.2578 0.7934
H68 H 0.3240 0.3365 0.7594
H69 H 0.158(3) 0.546(3) 0.905(5)
Zr1B Zr 0.048235(19) 0.51511(2) 0.38013(3)
Zr2B Zr 0.54019(2) 0.56036(2) 1.09890(3)
O1B O -0.04031(13) 0.55662(13) 0.4789(2)
O2B O 0.46708(15) 0.46542(15) 1.0745(2)
loop_
_geom_bond_atom_site_label_1
_geom_bond_atom_site_label_2
_geom_bond_site_symmetry_1
_geom_bond_site_symmetry_2
Zr1 O1 1_555 1_555
Zr2 O2 1_555 1_555
O1 C10 1_555 1_555
O2 C7 1_555 1_555
O3 Zr2 1_555 1_555
O4 Zr2 1_555 1_555
O5 Zr1 1_555 1_555
N1 Zr1 1_555 1_555
H1 N1 1_555 1_555
H2 N1 1_555 1_555
O6 Zr1 1_555 1_555
O7 Zr2 1_555 1_555
O8 Zr1 1_555 1_555
N2 Zr2 1_555 1_555
H3 N2 1_555 1_555
H4 N2 1_555 1_555
C1 N2 1_555 1_555
H5 C1 1_555 1_555
H6 C1 1_555 1_555
C2 C1 1_555 1_555
H7 C2 1_555 1_555
H8 C2 1_555 1_555
C3 N1 1_555 1_555
H9 C3 1_555 1_555
H10 C3 1_555 1_555
C4 C3 1_555 1_555
H11 C4 1_555 1_555
H12 C4 1_555 1_555
C5 O5 1_555 1_555
H13 C5 1_555 1_555
C6 H14 1_555 1_555
H15 C6 1_555 1_555
H16 C6 1_555 1_555
C7 C6 1_555 1_555
H17 C7 1_555 1_555
C8 O7 1_555 1_555
H18 C8 1_555 1_555
C9 C5 1_555 1_555
H19 C9 1_555 1_555
H20 C9 1_555 1_555
H21 C9 1_555 1_555
C10 H22 1_555 1_555
C11 O3 1_555 1_555
H23 C11 1_555 1_555
C12 C5 1_555 1_555
H24 C12 1_555 1_555
H25 C12 1_555 1_555
H26 C12 1_555 1_555
C13 C10 1_555 1_555
H27 C13 1_555 1_555
H28 C13 1_555 1_555
H29 C13 1_555 1_555
C14 O6 1_555 1_555
H30 C14 1_555 1_555
C15 C10 1_555 1_555
H31 C15 1_555 1_555
H32 C15 1_555 1_555
H33 C15 1_555 1_555
C16 C8 1_555 1_555
H34 C16 1_555 1_555
H35 C16 1_555 1_555
H36 C16 1_555 1_555
C17 O8 1_555 1_555
H37 C17 1_555 1_555
C18 C7 1_555 1_555
H38 C18 1_555 1_555
H39 C18 1_555 1_555
H40 C18 1_555 1_555
N3 C2 1_555 1_555
C19 O4 1_555 1_555
H41 C19 1_555 1_555
C20 C14 1_555 1_555
H42 C20 1_555 1_555
H43 C20 1_555 1_555
H44 C20 1_555 1_555
C21 C14 1_555 1_555
H45 C21 1_555 1_555
H46 C21 1_555 1_555
H47 C21 1_555 1_555
C22 C8 1_555 1_555
H48 C22 1_555 1_555
H49 C22 1_555 1_555
H50 C22 1_555 1_555
C23 C11 1_555 1_555
H51 C23 1_555 1_555
H52 C23 1_555 1_555
H53 C23 1_555 1_555
C24 C17 1_555 1_555
H54 C24 1_555 1_555
H55 C24 1_555 1_555
H56 C24 1_555 1_555
C25 C17 1_555 1_555
H57 C25 1_555 1_555
H58 C25 1_555 1_555
H59 C25 1_555 1_555
C26 C11 1_555 1_555
H60 C26 1_555 1_555
H61 C26 1_555 1_555
H62 C26 1_555 1_555
C27 C19 1_555 1_555
H63 C27 1_555 1_555
H64 C27 1_555 1_555
H65 C27 1_555 1_555
C28 C19 1_555 1_555
H66 C28 1_555 1_555
H67 C28 1_555 1_555
H68 C28 1_555 1_555
H69 N3 1_555 1_555
Zr1B O1 1_555 1_555
Zr2B O2 1_555 1_555
O1B Zr1 1_555 1_555
O2B Zr2 1_555 1_555
C4 N3 1_555 1_555
Zr1B O1B 1_555 1_555
Zr2B O2B 1_555 1_555

#END
