
#######################################################################
#
#                 Cambridge Crystallographic Data Centre
#                                CCDC 
#
#######################################################################
#
# If this CIF has been generated from an entry in the Cambridge 
# Structural Database, then it will include bibliographic, chemical, 
# crystal, experimental, refinement or atomic coordinate data resulting 
# from the CCDC's data processing and validation procedures.
#
#######################################################################

data_REWRER
_symmetry_cell_setting           triclinic
_symmetry_space_group_name_H-M   'P -1'
_symmetry_Int_Tables_number      2
_space_group_name_Hall           '-P 1'
loop_
_symmetry_equiv_pos_site_id
_symmetry_equiv_pos_as_xyz
1 x,y,z
2 -x,-y,-z
_cell_length_a                   12.344(5)
_cell_length_b                   18.468(7)
_cell_length_c                   18.582(7)
_cell_angle_alpha                63.522(7)
_cell_angle_beta                 83.637(8)
_cell_angle_gamma                88.171(9)
_cell_volume                     3767.69
loop_
_atom_site_label
_atom_site_type_symbol
_atom_site_fract_x
_atom_site_fract_y
_atom_site_fract_z
Ti1 Ti 0.38929(7) 0.03460(5) 1.03486(7)
Ti2 Ti 0.36777(7) 0.47628(6) 0.52856(5)
Ti3 Ti 0.12640(6) 0.53607(4) 0.98976(5)
O1 O 0.4469(3) -0.0080(2) 0.9514(3)
O2 O 0.3473(3) -0.0682(2) 1.1152(3)
O3 O 0.3768(3) 0.0880(2) 1.0986(3)
O4 O 0.2592(3) 0.0648(2) 0.9930(3)
O5 O 0.2938(3) 0.3796(2) 0.5729(2)
O6 O 0.3392(3) 0.5138(2) 0.4217(2)
O7 O 0.4851(3) 0.56761(19) 0.4968(2)
O8 O 0.2631(3) 0.5309(3) 0.5612(3)
O9 O 0.0807(3) 0.6006(2) 1.0401(2)
O10 O -0.0146(2) 0.55595(15) 0.93459(17)
O11 O 0.2070(3) 0.6115(2) 0.8986(2)
O12 O 0.2416(3) 0.4891(2) 1.0463(2)
N1 N 0.4667(4) 0.1546(2) 0.9313(3)
H1 H 0.5241 0.1399 0.9048
H2 H 0.4156 0.1767 0.8953
N2 N 0.3620(3) 0.3140(3) 0.8772(3)
N3 N 0.4325(4) 0.4400(3) 0.6521(2)
H3 H 0.5059 0.4316 0.6445
H4 H 0.4269 0.4853 0.6608
N4 N 0.1534(3) 0.4506(2) 0.9287(2)
H5 H 0.0986 0.4118 0.9516
H6 H 0.1419 0.4806 0.8754
C1 C 0.3938(5) -0.0150(4) 0.8891(5)
H7 H 0.4462 -0.0465 0.8694
C2 C 0.2922(6) -0.0672(4) 0.9206(5)
H8 H 0.3069 -0.1180 0.9672
H9 H 0.2695 -0.0791 0.8780
H10 H 0.2340 -0.0387 0.9372
C3 C 0.3891(6) 0.0638(4) 0.8180(5)
H11 H 0.4604 0.0913 0.8036
H12 H 0.3340 0.0970 0.8305
H13 H 0.3696 0.0555 0.7724
C4 C 0.1884(6) -0.1530(4) 1.1438(6)
H14 H 0.1635 -0.1163 1.0916
H15 H 0.1251 -0.1781 1.1835
H16 H 0.2329 -0.1953 1.1377
C5 C 0.2558(5) -0.1058(3) 1.1724(5)
H17 H 0.2096 -0.0630 1.1785
C6 C 0.2959(7) -0.1608(5) 1.2538(5)
H18 H 0.3380 -0.1287 1.2714
H19 H 0.3422 -0.2026 1.2483
H20 H 0.2332 -0.1866 1.2939
C7 C 0.3431(8) 0.0862(5) 1.1742(6)
H21 H 0.3545 0.0312 1.2185
C8 C 0.2359(11) 0.1115(12) 1.1856(10)
H22 H 0.1834 0.0746 1.1825
H23 H 0.2265 0.1664 1.1434
H24 H 0.2236 0.1110 1.2388
C9 C 0.5071(4) 0.2200(3) 0.9448(4)
H25 H 0.5640 0.2513 0.9004
H26 H 0.5414 0.1968 0.9960
C10 C 0.4174(4) 0.2770(3) 0.9493(4)
H27 H 0.3633 0.2464 0.9962
H28 H 0.4496 0.3201 0.9586
C11 C 0.1678(5) 0.1114(4) 0.9869(5)
H29 H 0.1875 0.1535 1.0034
C12 C 0.0724(6) 0.0645(6) 1.0458(6)
H30 H 0.0099 0.1001 1.0392
H31 H 0.0920 0.0437 1.1012
H32 H 0.0533 0.0191 1.0355
C13 C 0.2552(4) 0.3484(3) 0.8911(4)
H33 H 0.2046 0.3028 0.9265
H34 H 0.2250 0.3768 0.8385
C14 C 0.2562(4) 0.4075(3) 0.9292(3)
H35 H 0.2729 0.3768 0.9858
H36 H 0.3157 0.4480 0.8996
C15 C 0.4251(5) 0.3768(3) 0.8041(3)
H37 H 0.5042 0.3673 0.8074
H38 H 0.4098 0.4311 0.8009
C16 C 0.3918(5) 0.3730(3) 0.7281(3)
H39 H 0.4188 0.3219 0.7279
H40 H 0.3113 0.3712 0.7317
C17 C 0.2554(7) 0.4728(5) 0.3351(5)
H41 H 0.2685 0.4156 0.3696
H42 H 0.3176 0.4960 0.2938
H43 H 0.1891 0.4774 0.3088
C18 C 0.2413(5) 0.5177(4) 0.3860(4)
H44 H 0.1799 0.4924 0.4296
C19 C 0.2178(9) 0.6062(5) 0.3355(6)
H45 H 0.2087 0.6337 0.3702
H46 H 0.1509 0.6107 0.3101
H47 H 0.2788 0.6315 0.2935
C20 C 0.4277(10) 0.7046(4) 0.4200(6)
H48 H 0.4274 0.6813 0.3818
H49 H 0.4759 0.7526 0.3962
H50 H 0.3536 0.7200 0.4317
C21 C 0.4657(7) 0.6468(4) 0.4925(4)
H51 H 0.5428 0.6636 0.4686
C22 C 0.4849(14) 0.6565(5) 0.5597(6)
H52 H 0.5171 0.6072 0.5985
H53 H 0.4160 0.6666 0.5850
H54 H 0.5353 0.7024 0.5432
C23 C -0.0181(7) 0.6041(4) 0.7911(4)
H55 H -0.0106 0.5456 0.8107
H56 H 0.0481 0.6319 0.7565
H57 H -0.0810 0.6222 0.7600
C24 C -0.0337(6) 0.6224(3) 0.8582(3)
H58 H -0.1138 0.6106 0.8670
C25 C -0.0483(11) 0.6986(4) 0.8576(5)
H59 H -0.0592 0.6918 0.9133
H60 H -0.1124 0.7241 0.8300
H61 H 0.0164 0.7330 0.8290
C26 C 0.3225(6) 0.6360(5) 0.7780(4)
H62 H 0.3019 0.5827 0.7839
H63 H 0.3981 0.6491 0.7534
H64 H 0.2744 0.6769 0.7434
C27 C 0.3124(4) 0.6351(4) 0.8571(4)
H65 H 0.3642 0.5941 0.8901
C28 C 0.3449(6) 0.7160(4) 0.8518(6)
H66 H 0.3373 0.7130 0.9061
H67 H 0.2975 0.7581 0.8178
H68 H 0.4208 0.7291 0.8280
C29 C 0.0986(7) 0.7417(4) 1.0026(5)
H69 H 0.1261 0.7526 0.9471
H70 H 0.1326 0.7801 1.0169
H71 H 0.0194 0.7479 1.0065
C30 C 0.1255(5) 0.6586(4) 1.0584(5)
H72 H 0.2066 0.6536 1.0549
C31 C 0.0827(9) 0.6398(4) 1.1449(5)
H73 H 0.1025 0.5846 1.1813
H74 H 0.0032 0.6444 1.1493
H75 H 0.1150 0.6782 1.1600
C32 C 0.3169(7) 0.4752(4) 1.0967(7)
H76 H 0.2697 0.4741 1.1445
C33 C 0.3916(5) 0.5410(4) 1.0815(5)
H77 H 0.3532 0.5924 1.0600
H78 H 0.4527 0.5428 1.0423
H79 H 0.4193 0.5320 1.1322
C34 C 0.3595(6) 0.3939(4) 1.1328(6)
H80 H 0.3012 0.3546 1.1432
H81 H 0.3873 0.3836 1.1839
H82 H 0.4188 0.3888 1.0958
C35 C 0.2210(9) 0.3197(6) 0.6030(8)
H83 H 0.1907 0.3368 0.6451
C36 C 0.2501(14) 0.2433(8) 0.6639(8)
H84 H 0.2954 0.2145 0.6387
H85 H 0.1838 0.2111 0.6930
H86 H 0.2909 0.2517 0.7020
C37 C 0.1596(8) 0.5402(9) 0.5874(8)
H87 H 0.1198 0.4963 0.5829
C38 C 0.1419(16) 0.5176(12) 0.6696(7)
H88 H 0.1710 0.4635 0.6995
H89 H 0.0635 0.5167 0.6858
H90 H 0.1787 0.5564 0.6817
C39 C 0.1024(18) 0.6042(19) 0.5469(13)
H91 H 0.1519 0.6493 0.5108
H92 H 0.0578 0.6194 0.5849
H93 H 0.0548 0.5917 0.5149
C40 C 0.4232(9) 0.1528(9) 1.1788(9)
H94 H 0.4994 0.1382 1.1723
H95 H 0.4070 0.1535 1.2313
H96 H 0.4110 0.2065 1.1355
C50 C 0.1433(5) 0.1566(4) 0.9011(5)
H118 H 0.2084 0.1873 0.8674
H119 H 0.0837 0.1939 0.8978
H120 H 0.1218 0.1182 0.8818
C52 C 0.1256(11) 0.3211(8) 0.5809(11)
H124 H 0.1027 0.3773 0.5528
H125 H 0.0737 0.2914 0.6286
H126 H 0.1277 0.2957 0.5444
Ti1A Ti 0.61071(7) -0.03460(5) 0.96514(7)
Ti2A Ti 0.63223(7) 0.52372(6) 0.47144(5)
Ti3A Ti -0.12640(6) 0.46393(4) 1.01024(5)
O1A O 0.5531(3) 0.0080(2) 1.0486(3)
O7A O 0.5149(3) 0.43239(19) 0.5032(2)
O10A O 0.0146(2) 0.44405(15) 1.06541(17)
Ti4 Ti 0.1136(2) 1.01193(15) 0.52505(15)
O13 O 0.1679(8) 1.1068(5) 0.4437(6)
O14 O 0.2409(15) 0.9678(10) 0.5541(10)
O15 O 0.0364(7) 0.9365(4) 0.5017(5)
O16 O 0.0751(14) 1.0136(7) 0.6195(7)
C41 C 0.3787(18) 0.941(4) 0.6075(16)
H97 H 0.3432 0.9265 0.6622
H98 H 0.3787 1.0003 0.5757
H99 H 0.4540 0.9226 0.6105
C42 C 0.320(2) 0.9037(14) 0.569(3)
H100 H 0.2880 0.8495 0.6087
C43 C 0.376(3) 0.9018(19) 0.497(3)
H101 H 0.3230 0.9019 0.4616
H102 H 0.4196 0.8527 0.5127
H103 H 0.4246 0.9495 0.4682
C44 C 0.0679(17) 0.8610(7) 0.5056(7)
H104 H 0.0012 0.8412 0.4933
C45 C 0.289(3) 1.165(2) 0.4822(14)
H105 H 0.2983 1.1125 0.5284
H106 H 0.2291 1.1936 0.4965
H107 H 0.3568 1.1974 0.4679
C46 C 0.2658(15) 1.1526(8) 0.4136(8)
H108 H 0.3244 1.1199 0.4012
C47 C 0.2540(19) 1.2259(10) 0.3437(9)
H109 H 0.2242 1.2143 0.3031
H110 H 0.3253 1.2531 0.3216
H111 H 0.2042 1.2610 0.3580
C48 C 0.148(2) 0.8697(12) 0.4384(9)
H112 H 0.1153 0.8970 0.3875
H113 H 0.1726 0.8161 0.4456
H114 H 0.2109 0.9018 0.4370
C49 C 0.0794(17) 0.8013(7) 0.5901(7)
H115 H 0.0189 0.8066 0.6262
H116 H 0.1486 0.8112 0.6058
H117 H 0.0783 0.7465 0.5943
C51 C 0.0816(11) 0.9097(7) 0.7562(7)
H121 H 0.0233 0.9015 0.7995
H122 H 0.1502 0.8896 0.7795
H123 H 0.0631 0.8803 0.7263
C53 C 0.063(2) 1.0544(11) 0.7305(13)
H127 H -0.0158 1.0516 0.7449
H128 H 0.0845 1.1086 0.6879
H129 H 0.1003 1.0434 0.7783
C54 C 0.0939(18) 0.9949(9) 0.7017(10)
H130 H 0.1751 1.0011 0.6950
Ti4A Ti -0.1136(2) 0.98807(15) 0.47495(15)
O15A O -0.0364(7) 1.0635(4) 0.4983(5)
loop_
_geom_bond_atom_site_label_1
_geom_bond_atom_site_label_2
_geom_bond_site_symmetry_1
_geom_bond_site_symmetry_2
Ti1 O1 1_555 1_555
Ti2 O5 1_555 1_555
Ti3 O9 1_555 1_555
Ti4 O13 1_555 1_555
O1 C1 1_555 1_555
O2 Ti1 1_555 1_555
O3 Ti1 1_555 1_555
O4 Ti1 1_555 1_555
O5 C35 1_555 1_555
O6 Ti2 1_555 1_555
O7 Ti2 1_555 1_555
O8 Ti2 1_555 1_555
O9 C30 1_555 1_555
O10 Ti3 1_555 1_555
O11 Ti3 1_555 1_555
O12 Ti3 1_555 1_555
O13 C46 1_555 1_555
O14 Ti4 1_555 1_555
O15 Ti4 1_555 1_555
O16 Ti4 1_555 1_555
N1 Ti1 1_555 1_555
H1 N1 1_555 1_555
H2 N1 1_555 1_555
N2 C10 1_555 1_555
N3 Ti2 1_555 1_555
H3 N3 1_555 1_555
H4 N3 1_555 1_555
N4 Ti3 1_555 1_555
H5 N4 1_555 1_555
H6 N4 1_555 1_555
C1 H7 1_555 1_555
C2 C1 1_555 1_555
H8 C2 1_555 1_555
H9 C2 1_555 1_555
H10 C2 1_555 1_555
C3 C1 1_555 1_555
H11 C3 1_555 1_555
H12 C3 1_555 1_555
H13 C3 1_555 1_555
C4 H14 1_555 1_555
H15 C4 1_555 1_555
H16 C4 1_555 1_555
C5 O2 1_555 1_555
H17 C5 1_555 1_555
C6 C5 1_555 1_555
H18 C6 1_555 1_555
H19 C6 1_555 1_555
H20 C6 1_555 1_555
C7 O3 1_555 1_555
H21 C7 1_555 1_555
C8 C7 1_555 1_555
H22 C8 1_555 1_555
H23 C8 1_555 1_555
H24 C8 1_555 1_555
C9 N1 1_555 1_555
H25 C9 1_555 1_555
H26 C9 1_555 1_555
C10 C9 1_555 1_555
H27 C10 1_555 1_555
H28 C10 1_555 1_555
C11 O4 1_555 1_555
H29 C11 1_555 1_555
C12 C11 1_555 1_555
H30 C12 1_555 1_555
H31 C12 1_555 1_555
H32 C12 1_555 1_555
C13 N2 1_555 1_555
H33 C13 1_555 1_555
H34 C13 1_555 1_555
C14 N4 1_555 1_555
H35 C14 1_555 1_555
H36 C14 1_555 1_555
C15 N2 1_555 1_555
H37 C15 1_555 1_555
H38 C15 1_555 1_555
C16 N3 1_555 1_555
H39 C16 1_555 1_555
H40 C16 1_555 1_555
C17 H41 1_555 1_555
H42 C17 1_555 1_555
H43 C17 1_555 1_555
C18 O6 1_555 1_555
H44 C18 1_555 1_555
C19 C18 1_555 1_555
H45 C19 1_555 1_555
H46 C19 1_555 1_555
H47 C19 1_555 1_555
C20 H48 1_555 1_555
H49 C20 1_555 1_555
H50 C20 1_555 1_555
C21 O7 1_555 1_555
H51 C21 1_555 1_555
C22 C21 1_555 1_555
H52 C22 1_555 1_555
H53 C22 1_555 1_555
H54 C22 1_555 1_555
C23 H55 1_555 1_555
H56 C23 1_555 1_555
H57 C23 1_555 1_555
C24 O10 1_555 1_555
H58 C24 1_555 1_555
C25 C24 1_555 1_555
H59 C25 1_555 1_555
H60 C25 1_555 1_555
H61 C25 1_555 1_555
C26 H62 1_555 1_555
H63 C26 1_555 1_555
H64 C26 1_555 1_555
C27 O11 1_555 1_555
H65 C27 1_555 1_555
C28 C27 1_555 1_555
H66 C28 1_555 1_555
H67 C28 1_555 1_555
H68 C28 1_555 1_555
C29 H69 1_555 1_555
H70 C29 1_555 1_555
H71 C29 1_555 1_555
C30 C29 1_555 1_555
H72 C30 1_555 1_555
C31 C30 1_555 1_555
H73 C31 1_555 1_555
H74 C31 1_555 1_555
H75 C31 1_555 1_555
C32 O12 1_555 1_555
H76 C32 1_555 1_555
C33 C32 1_555 1_555
H77 C33 1_555 1_555
H78 C33 1_555 1_555
H79 C33 1_555 1_555
C34 C32 1_555 1_555
H80 C34 1_555 1_555
H81 C34 1_555 1_555
H82 C34 1_555 1_555
C35 H83 1_555 1_555
C36 C35 1_555 1_555
H84 C36 1_555 1_555
H85 C36 1_555 1_555
H86 C36 1_555 1_555
C37 O8 1_555 1_555
H87 C37 1_555 1_555
C38 C37 1_555 1_555
H88 C38 1_555 1_555
H89 C38 1_555 1_555
H90 C38 1_555 1_555
C39 C37 1_555 1_555
H91 C39 1_555 1_555
H92 C39 1_555 1_555
H93 C39 1_555 1_555
C40 C7 1_555 1_555
H94 C40 1_555 1_555
H95 C40 1_555 1_555
H96 C40 1_555 1_555
C41 H97 1_555 1_555
H98 C41 1_555 1_555
H99 C41 1_555 1_555
C42 O14 1_555 1_555
H100 C42 1_555 1_555
C43 C42 1_555 1_555
H101 C43 1_555 1_555
H102 C43 1_555 1_555
H103 C43 1_555 1_555
C44 O15 1_555 1_555
H104 C44 1_555 1_555
C45 H105 1_555 1_555
H106 C45 1_555 1_555
H107 C45 1_555 1_555
C46 C45 1_555 1_555
H108 C46 1_555 1_555
C47 C46 1_555 1_555
H109 C47 1_555 1_555
H110 C47 1_555 1_555
H111 C47 1_555 1_555
C48 C44 1_555 1_555
H112 C48 1_555 1_555
H113 C48 1_555 1_555
H114 C48 1_555 1_555
C49 C44 1_555 1_555
H115 C49 1_555 1_555
H116 C49 1_555 1_555
H117 C49 1_555 1_555
C50 C11 1_555 1_555
H118 C50 1_555 1_555
H119 C50 1_555 1_555
H120 C50 1_555 1_555
C51 H121 1_555 1_555
H122 C51 1_555 1_555
H123 C51 1_555 1_555
C52 C35 1_555 1_555
H124 C52 1_555 1_555
H125 C52 1_555 1_555
H126 C52 1_555 1_555
C53 H127 1_555 1_555
H128 C53 1_555 1_555
H129 C53 1_555 1_555
C54 O16 1_555 1_555
H130 C54 1_555 1_555
Ti1A O1 1_555 1_555
Ti2A O7 1_555 1_555
Ti3A O10 1_555 1_555
Ti4A O15 1_555 1_555
O1A Ti1 1_555 1_555
O7A Ti2 1_555 1_555
O10A Ti3 1_555 1_555
O15A Ti4 1_555 1_555
C4 C5 1_555 1_555
C13 C14 1_555 1_555
C15 C16 1_555 1_555
C17 C18 1_555 1_555
C20 C21 1_555 1_555
C23 C24 1_555 1_555
C26 C27 1_555 1_555
C41 C42 1_555 1_555
C51 C54 1_555 1_555
C53 C54 1_555 1_555
Ti1A O1A 1_555 1_555
Ti2A O7A 1_555 1_555
Ti3A O10A 1_555 1_555
Ti4A O15A 1_555 1_555

#END
