
#######################################################################
#
#                 Cambridge Crystallographic Data Centre
#                                CCDC 
#
#######################################################################
#
# If this CIF has been generated from an entry in the Cambridge 
# Structural Database, then it will include bibliographic, chemical, 
# crystal, experimental, refinement or atomic coordinate data resulting 
# from the CCDC's data processing and validation procedures.
#
#######################################################################

data_REWZEA
_symmetry_cell_setting           triclinic
_symmetry_space_group_name_H-M   'P -1'
_symmetry_Int_Tables_number      2
_space_group_name_Hall           '-P 1'
loop_
_symmetry_equiv_pos_site_id
_symmetry_equiv_pos_as_xyz
1 x,y,z
2 -x,-y,-z
_cell_length_a                   7.6270(5)
_cell_length_b                   9.5697(5)
_cell_length_c                   14.8521(8)
_cell_angle_alpha                102.085(4)
_cell_angle_beta                 104.358(5)
_cell_angle_gamma                101.400(5)
_cell_volume                     990.614
loop_
_atom_site_label
_atom_site_type_symbol
_atom_site_fract_x
_atom_site_fract_y
_atom_site_fract_z
Cd1 Cd 1.01025(3) 0.49493(2) 0.247577(15)
N1 N 1.1193(3) 0.7395(2) 0.34818(17)
N2 N 0.8994(3) 0.2483(2) 0.14970(16)
N3 N 0.8938(3) -0.0063(2) 0.13064(17)
N4 N 0.7600(3) 0.5544(3) 0.15539(18)
N5 N 0.2600(3) 0.4318(3) 0.33684(18)
N6 N 0.1878(4) 0.5590(3) 0.1493(2)
N7 N 0.8362(4) 0.4343(3) 0.34897(19)
N8 N 0.5700(3) 0.4069(3) 0.4111(2)
N9 N 0.4669(3) 0.6167(3) 0.0988(2)
N10 N 1.2349(4) 0.9980(2) 0.36801(19)
C1 C 0.6196(4) 0.5807(3) 0.1315(2)
C2 C 0.7059(4) 0.4232(3) 0.3741(2)
C3 C 0.7924(4) -0.0372(3) 0.0358(2)
C4 C 0.4066(4) 0.4217(3) 0.3679(2)
C5 C 0.3220(4) 0.5816(3) 0.1286(2)
C6 C 1.2547(4) 1.0237(3) 0.4643(2)
C7 C 0.7400(4) 0.0748(3) -0.0039(2)
C8 C 1.2040(4) 0.9082(3) 0.5044(2)
C9 C 0.7985(4) 0.2180(3) 0.0587(2)
H1 H 0.7648 0.2947 0.0351
C10 C 0.7409(4) -0.1832(3) -0.0243(2)
H2 H 0.7732 -0.2591 0.0008
C11 C 0.9420(4) 0.1316(3) 0.1807(2)
H3 H 1.0135 0.1527 0.2449
C12 C 1.1380(4) 0.7651(3) 0.4407(2)
H4 H 1.1062 0.6851 0.4652
C13 C 0.6376(4) 0.0399(3) -0.1021(2)
H5 H 0.6017 0.1135 -0.1285
C14 C 1.3380(5) 1.1943(3) 0.6207(2)
H6 H 1.3837 1.2909 0.6603
C15 C 1.2191(4) 0.9384(3) 0.6034(2)
H7 H 1.1844 0.8614 0.6300
C16 C 1.1669(4) 0.8601(3) 0.3166(2)
H8 H 1.1490 0.8427 0.2505
C17 C 0.6438(4) -0.2122(3) -0.1191(2)
H9 H 0.6118 -0.3082 -0.1588
C18 C 1.2845(4) 1.0805(3) 0.6601(2)
H10 H 1.2932 1.1009 0.7253
C19 C 1.3256(5) 1.1688(3) 0.5255(2)
H11 H 1.3639 1.2473 0.5008
C20 C 0.5912(4) -0.1012(3) -0.1582(2)
H12 H 0.5239 -0.1240 -0.2232
Cd1_2 Cd 0.01025(3) 0.49493(2) 0.247577(15)
N5_2 N 1.2600(3) 0.4318(3) 0.33684(18)
N6_2 N 1.1878(4) 0.5590(3) 0.1493(2)
loop_
_geom_bond_atom_site_label_1
_geom_bond_atom_site_label_2
_geom_bond_site_symmetry_1
_geom_bond_site_symmetry_2
Cd1 N1 1_555 1_555
N1 C12 1_555 1_555
N2 Cd1 1_555 1_555
N3 C3 1_555 1_555
N4 Cd1 1_555 1_555
N5 C4 1_555 1_555
N6 C5 1_555 1_555
N7 Cd1 1_555 1_555
N8 C2 1_555 1_555
N9 C1 1_555 1_555
N10 C6 1_555 1_555
C1 N4 1_555 1_555
C2 N7 1_555 1_555
C3 C7 1_555 1_555
C4 N8 1_555 1_555
C5 N9 1_555 1_555
C6 C8 1_555 1_555
C7 C9 1_555 1_555
C8 C12 1_555 1_555
C9 N2 1_555 1_555
H1 C9 1_555 1_555
C10 C3 1_555 1_555
H2 C10 1_555 1_555
C11 N2 1_555 1_555
H3 C11 1_555 1_555
C12 H4 1_555 1_555
C13 C7 1_555 1_555
H5 C13 1_555 1_555
C14 H6 1_555 1_555
C15 C8 1_555 1_555
H7 C15 1_555 1_555
C16 N1 1_555 1_555
H8 C16 1_555 1_555
C17 C10 1_555 1_555
H9 C17 1_555 1_555
C18 C14 1_555 1_555
H10 C18 1_555 1_555
C19 C6 1_555 1_555
H11 C19 1_555 1_555
C20 C13 1_555 1_555
H12 C20 1_555 1_555
Cd1_2 N5 1_555 1_555
N5_2 Cd1 1_555 1_555
N6_2 Cd1 1_555 1_555
N3 C11 1_555 1_555
N6 Cd1_2 1_555 1_555
N10 C16 1_555 1_555
C14 C19 1_555 1_555
C15 C18 1_555 1_555
C17 C20 1_555 1_555

#END
