
#######################################################################
#
#                 Cambridge Crystallographic Data Centre
#                                CCDC 
#
#######################################################################
#
# If this CIF has been generated from an entry in the Cambridge 
# Structural Database, then it will include bibliographic, chemical, 
# crystal, experimental, refinement or atomic coordinate data resulting 
# from the CCDC's data processing and validation procedures.
#
#######################################################################

data_REWZIE
_symmetry_cell_setting           monoclinic
_symmetry_space_group_name_H-M   'P 21/c'
_symmetry_Int_Tables_number      14
_space_group_name_Hall           '-P 2ybc'
loop_
_symmetry_equiv_pos_site_id
_symmetry_equiv_pos_as_xyz
1 x,y,z
2 -x,1/2+y,1/2-z
3 -x,-y,-z
4 x,1/2-y,1/2+z
_cell_length_a                   5.9702(8)
_cell_length_b                   20.403(3)
_cell_length_c                   7.561(2)
_cell_angle_alpha                90
_cell_angle_beta                 96.519(16)
_cell_angle_gamma                90
_cell_volume                     915.05
loop_
_atom_site_label
_atom_site_type_symbol
_atom_site_fract_x
_atom_site_fract_y
_atom_site_fract_z
Cd1 Cd 0.0000 0.5000 0.5000
N1 N 0.0703(5) 0.38440(18) 0.5155(5)
N2 N 0.2863(6) 0.50451(18) 0.3194(5)
N3 N 0.3433(6) 0.30061(19) 0.5950(6)
C1 C -0.0352(6) 0.2718(2) 0.4760(6)
C2 C 0.1871(7) 0.2537(2) 0.5462(6)
C3 C -0.1909(8) 0.2224(3) 0.4190(7)
H1 H -0.3353 0.2338 0.3692
C4 C 0.2797(7) 0.3610(2) 0.5777(7)
H2 H 0.3892 0.3923 0.6115
C5 C -0.0814(7) 0.3390(2) 0.4653(6)
H3 H -0.2259 0.3523 0.4208
C6 C 0.2410(8) 0.1869(3) 0.5634(7)
H4 H 0.3847 0.1742 0.6115
C7 C -0.1323(8) 0.1583(3) 0.4361(7)
H5 H -0.2370 0.1260 0.3983
C8 C 0.0826(8) 0.1405(3) 0.5095(7)
H6 H 0.1195 0.0963 0.5223
S1 S 0.70438(17) 0.47663(7) 0.20379(16)
C9 C 0.4591(7) 0.49227(19) 0.2737(6)
N1B N -0.0703(5) 0.61560(18) 0.4845(5)
N2B N -0.2863(6) 0.49549(18) 0.6806(5)
N3B N -0.3433(6) 0.69939(19) 0.4050(6)
C1B C 0.0352(6) 0.7282(2) 0.5240(6)
C2B C -0.1871(7) 0.7463(2) 0.4538(6)
C3B C 0.1909(8) 0.7776(3) 0.5810(7)
H1B H 0.3353 0.7662 0.6308
C4B C -0.2797(7) 0.6390(2) 0.4223(7)
H2B H -0.3892 0.6077 0.3885
C5B C 0.0814(7) 0.6610(2) 0.5347(6)
H3B H 0.2259 0.6477 0.5792
C6B C -0.2410(8) 0.8131(3) 0.4366(7)
H4B H -0.3847 0.8258 0.3885
C7B C 0.1323(8) 0.8417(3) 0.5639(7)
H5B H 0.2370 0.8740 0.6017
C8B C -0.0826(8) 0.8595(3) 0.4905(7)
H6B H -0.1195 0.9037 0.4777
S1B S -0.70438(17) 0.52337(7) 0.79621(16)
C9B C -0.4591(7) 0.50773(19) 0.7263(6)
Cd1_2 Cd -1.0000 0.5000 0.5000
Cd1_3 Cd 1.0000 0.5000 0.5000
S1_2 S -0.29562(17) 0.47663(7) 0.20379(16)
S1B_2 S 0.29562(17) 0.52337(7) 0.79621(16)
loop_
_geom_bond_atom_site_label_1
_geom_bond_atom_site_label_2
_geom_bond_site_symmetry_1
_geom_bond_site_symmetry_2
Cd1 N1 1_555 1_555
N1 C4 1_555 1_555
N2 Cd1 1_555 1_555
N3 C2 1_555 1_555
C1 C2 1_555 1_555
C2 C6 1_555 1_555
C3 C1 1_555 1_555
H1 C3 1_555 1_555
C4 N3 1_555 1_555
H2 C4 1_555 1_555
C5 N1 1_555 1_555
H3 C5 1_555 1_555
C6 H4 1_555 1_555
C7 C3 1_555 1_555
H5 C7 1_555 1_555
C8 C6 1_555 1_555
H6 C8 1_555 1_555
S1 C9 1_555 1_555
C9 N2 1_555 1_555
N1B Cd1 1_555 1_555
N2B Cd1 1_555 1_555
N3B C2B 1_555 1_555
C1B C2B 1_555 1_555
C2B C6B 1_555 1_555
C3B C1B 1_555 1_555
H1B C3B 1_555 1_555
C4B N1B 1_555 1_555
H2B C4B 1_555 1_555
C5B N1B 1_555 1_555
H3B C5B 1_555 1_555
C6B H4B 1_555 1_555
C7B C3B 1_555 1_555
H5B C7B 1_555 1_555
C8B C6B 1_555 1_555
H6B C8B 1_555 1_555
S1B C9B 1_555 1_555
C9B N2B 1_555 1_555
Cd1_2 S1B 1_555 1_555
Cd1_3 S1 1_555 1_555
S1_2 Cd1 1_555 1_555
S1B_2 Cd1 1_555 1_555
C1 C5 1_555 1_555
C7 C8 1_555 1_555
N3B C4B 1_555 1_555
C1B C5B 1_555 1_555
C7B C8B 1_555 1_555

#END
