
#######################################################################
#
#                 Cambridge Crystallographic Data Centre
#                                CCDC 
#
#######################################################################
#
# If this CIF has been generated from an entry in the Cambridge 
# Structural Database, then it will include bibliographic, chemical, 
# crystal, experimental, refinement or atomic coordinate data resulting 
# from the CCDC's data processing and validation procedures.
#
#######################################################################

data_REXCOO
_symmetry_cell_setting           monoclinic
_symmetry_space_group_name_H-M   'C c'
_symmetry_Int_Tables_number      9
_space_group_name_Hall           'C -2yc'
loop_
_symmetry_equiv_pos_site_id
_symmetry_equiv_pos_as_xyz
1 x,y,z
2 x,-y,1/2+z
3 1/2+x,1/2+y,z
4 1/2+x,1/2-y,1/2+z
_cell_length_a                   34.534(6)
_cell_length_b                   15.028(3)
_cell_length_c                   31.197(6)
_cell_angle_alpha                90
_cell_angle_beta                 101.215(3)
_cell_angle_gamma                90
_cell_volume                     15881.4
loop_
_atom_site_label
_atom_site_type_symbol
_atom_site_fract_x
_atom_site_fract_y
_atom_site_fract_z
Zn1 Zn 0.53540(10) -0.09102(16) 0.73576(11)
I1 I 0.55218(7) -0.23351(11) 0.69861(8)
I2 I 0.51225(7) -0.08099(16) 0.80721(7)
N1 N 0.4931(4) -0.0244(8) 0.6891(5)
C1 C 0.4809(5) 0.0595(9) 0.6936(6)
H1 H 0.4945 0.0908 0.7185
C2 C 0.4512(5) 0.1060(11) 0.6667(5)
H2 H 0.4422 0.1629 0.6737
C3 C 0.4361(5) 0.0620(9) 0.6289(5)
C4 C 0.4437(6) -0.0283(10) 0.6281(7)
H3 H 0.4258 -0.0640 0.6083
C5 C 0.4754(5) -0.0698(10) 0.6537(5)
H4 H 0.4841 -0.1271 0.6469
C6 C 0.4032(5) 0.1081(8) 0.5976(5)
N2 N 0.3971(4) 0.1954(8) 0.6015(5)
C7 C 0.3701(5) 0.2295(8) 0.5688(5)
N3 N 0.3451(4) 0.1849(7) 0.5376(4)
C8 C 0.3532(5) 0.0978(8) 0.5399(5)
N4 N 0.3843(4) 0.0579(7) 0.5649(4)
N5 N 0.3466(5) 0.5075(7) 0.5677(5)
C9 C 0.3240(5) 0.4561(9) 0.5440(5)
H5 H 0.3011 0.4808 0.5261
C10 C 0.3298(5) 0.3620(10) 0.5415(6)
H6 H 0.3123 0.3248 0.5221
C11 C 0.3634(6) 0.3288(7) 0.5699(6)
C12 C 0.3854(5) 0.3818(9) 0.5979(7)
H7 H 0.4063 0.3593 0.6195
C13 C 0.3770(5) 0.4722(8) 0.5947(6)
H8 H 0.3943 0.5114 0.6132
Zn2 Zn 0.33725(11) 0.64316(17) 0.56345(11)
I3 I 0.39892(7) 0.73589(11) 0.58756(7)
I4 I 0.29114(8) 0.67040(12) 0.48913(7)
N6 N 0.2901(4) -0.0545(6) 0.4310(4)
C14 C 0.3177(5) -0.0957(8) 0.4605(5)
H9 H 0.3253 -0.1556 0.4569
C15 C 0.3342(5) -0.0455(10) 0.4960(5)
H10 H 0.3503 -0.0773 0.5191
C16 C 0.3309(5) 0.0411(9) 0.5027(4)
C17 C 0.3035(5) 0.0814(9) 0.4708(5)
H11 H 0.2978 0.1429 0.4731
C18 C 0.2841(5) 0.0330(7) 0.4354(5)
H12 H 0.2658 0.0628 0.4133
Zn3 Zn 0.24793(11) -0.12043(15) 0.38594(10)
I5 I 0.18918(7) -0.15292(14) 0.41879(7)
I6 I 0.28681(8) -0.23123(11) 0.34843(8)
N7 N 0.2329(5) -0.0208(10) 0.3377(5)
C19 C 0.2020(5) 0.0311(9) 0.3394(6)
H13 H 0.1847 0.0149 0.3584
C20 C 0.1939(5) 0.1074(10) 0.3147(6)
H14 H 0.1700 0.1394 0.3132
C21 C 0.2224(5) 0.1350(9) 0.2921(5)
C22 C 0.2532(5) 0.0806(11) 0.2881(6)
H15 H 0.2706 0.0951 0.2690
C23 C 0.2579(6) 0.0042(11) 0.3127(6)
H16 H 0.2801 -0.0325 0.3118
C24 C 0.2150(5) 0.2129(9) 0.2608(5)
N8 N 0.1885(4) 0.2730(8) 0.2678(5)
C25 C 0.1823(5) 0.3392(9) 0.2391(5)
N9 N 0.2050(4) 0.3588(8) 0.2106(5)
C26 C 0.2327(5) 0.2983(9) 0.2086(6)
N10 N 0.2393(4) 0.2257(8) 0.2334(5)
N11 N 0.0849(4) 0.5132(10) 0.2407(6)
C27 C 0.1079(4) 0.5235(10) 0.2118(5)
H17 H 0.1009 0.5681 0.1901
C28 C 0.1414(4) 0.4743(9) 0.2109(5)
H18 H 0.1582 0.4873 0.1910
C29 C 0.1494(4) 0.4042(10) 0.2408(6)
C30 C 0.1282(5) 0.3979(10) 0.2728(6)
H19 H 0.1357 0.3585 0.2968
C31 C 0.0949(4) 0.4513(11) 0.2691(6)
H20 H 0.0781 0.4412 0.2894
N12 N 0.3054(5) 0.3365(8) 0.1126(6)
C32 C 0.3085(7) 0.2682(10) 0.1400(7)
H21 H 0.3282 0.2253 0.1377
C33 C 0.2865(5) 0.2529(9) 0.1711(8)
H22 H 0.2927 0.2053 0.1913
C34 C 0.2554(5) 0.3079(10) 0.1723(7)
C35 C 0.2474(7) 0.3724(12) 0.1412(7)
H23 H 0.2242 0.4076 0.1384
C36 C 0.2737(6) 0.3853(11) 0.1140(8)
H24 H 0.2687 0.4339 0.0942
Zn1C Zn 0.03540(10) 0.59102(16) 0.23576(11)
Zn2A Zn 0.33725(11) 0.35684(17) 0.06345(11)
N11C N 0.5849(4) -0.0132(10) 0.7407(6)
N12A N 0.3054(5) 0.6635(8) 0.6126(6)
Zn4 Zn -0.01008(11) 0.64471(15) 0.51684(13)
I7 I 0.03265(9) 0.67455(12) 0.59046(8)
I8 I -0.07413(8) 0.72877(12) 0.48762(10)
N13 N 0.0232(4) 0.6489(10) 0.4698(5)
C37 C 0.0141(6) 0.7100(11) 0.4396(6)
H25 H -0.0077 0.7479 0.4404
C38 C 0.0350(5) 0.7212(12) 0.4069(7)
H26 H 0.0243 0.7585 0.3829
C39 C 0.0703(5) 0.6811(11) 0.4076(5)
C40 C 0.0746(6) 0.6092(12) 0.4354(6)
H27 H 0.0926 0.5639 0.4311
C41 C 0.0546(5) 0.5990(12) 0.4686(7)
H28 H 0.0631 0.5561 0.4908
C42 C 0.0969(5) 0.7013(10) 0.3778(5)
N14 N 0.0897(5) 0.7717(9) 0.3516(4)
C43 C 0.1123(5) 0.7829(9) 0.3219(5)
N15 N 0.1429(4) 0.7306(8) 0.3187(4)
C44 C 0.1473(4) 0.6598(9) 0.3452(5)
N16 N 0.1272(4) 0.6481(9) 0.3769(4)
N17 N 0.0949(4) 1.0115(8) 0.2410(4)
C45 C 0.1271(4) 0.9637(9) 0.2447(5)
H29 H 0.1478 0.9812 0.2303
C46 C 0.1306(5) 0.8878(10) 0.2697(5)
H30 H 0.1511 0.8471 0.2673
C47 C 0.1062(5) 0.8676(9) 0.2979(4)
C48 C 0.0722(5) 0.9163(10) 0.2892(5)
H31 H 0.0510 0.8985 0.3026
C49 C 0.0667(5) 0.9894(10) 0.2623(5)
H32 H 0.0431 1.0234 0.2590
Zn5 Zn 0.08032(9) 1.12144(15) 0.19922(10)
I9 I 0.04188(8) 1.23069(11) 0.23533(8)
I10 I 0.14087(8) 1.15478(13) 0.16467(7)
N18 N 0.2498(4) 0.4982(8) 0.3451(4)
C50 C 0.2370(5) 0.5233(10) 0.3814(5)
H33 H 0.2522 0.5017 0.4080
C51 C 0.2049(4) 0.5759(9) 0.3857(4)
H34 H 0.1983 0.5889 0.4133
C52 C 0.1833(4) 0.6078(10) 0.3469(4)
C53 C 0.2007(4) 0.5945(9) 0.3119(5)
H35 H 0.1901 0.6275 0.2863
C54 C 0.2319(4) 0.5387(9) 0.3091(4)
H36 H 0.2402 0.5297 0.2821
Zn6 Zn 0.29457(9) 0.40754(17) 0.34964(10)
I11 I 0.27721(7) 0.26462(10) 0.38550(8)
I12 I 0.31740(7) 0.41891(17) 0.27671(8)
N19 N 0.3351(5) 0.4711(8) 0.3942(6)
C55 C 0.3392(5) 0.5587(9) 0.3914(6)
H37 H 0.3225 0.5893 0.3682
C56 C 0.3663(5) 0.6075(10) 0.4202(6)
H38 H 0.3663 0.6707 0.4196
C57 C 0.3956(5) 0.5573(9) 0.4524(6)
C58 C 0.3869(6) 0.4683(10) 0.4582(7)
H39 H 0.3984 0.4368 0.4839
C59 C 0.3607(5) 0.4281(11) 0.4247(6)
H40 H 0.3609 0.3649 0.4233
C60 C 0.4243(5) 0.6017(9) 0.4866(6)
N20 N 0.4300(4) 0.6908(7) 0.4805(5)
C61 C 0.4605(5) 0.7273(7) 0.5069(5)
N21 N 0.4823(4) 0.6798(8) 0.5395(5)
C62 C 0.4727(5) 0.5944(9) 0.5468(6)
N22 N 0.4468(5) 0.5523(9) 0.5166(5)
N23 N 0.4757(5) 1.0105(9) 0.5158(6)
C63 C 0.4937(6) 0.9561(9) 0.5462(6)
H41 H 0.5099 0.9815 0.5713
C64 C 0.4906(6) 0.8656(9) 0.5442(6)
H42 H 0.5047 0.8310 0.5676
C65 C 0.4680(6) 0.8239(8) 0.5095(6)
C66 C 0.4446(6) 0.8831(9) 0.4806(7)
H43 H 0.4248 0.8587 0.4583
C67 C 0.4486(7) 0.9741(9) 0.4825(7)
H44 H 0.4329 1.0110 0.4612
N24 N 0.5467(4) 0.4566(9) 0.6462(5)
C68 C 0.5137(4) 0.4210(10) 0.6235(5)
H45 H 0.5084 0.3618 0.6314
C69 C 0.4858(5) 0.4573(9) 0.5901(5)
H46 H 0.4630 0.4281 0.5745
C70 C 0.4979(6) 0.5479(10) 0.5830(6)
C71 C 0.5326(6) 0.5868(11) 0.6046(6)
H47 H 0.5396 0.6451 0.5972
C72 C 0.5574(5) 0.5387(9) 0.6376(6)
H48 H 0.5811 0.5641 0.6533
Zn4B Zn 0.48992(11) 1.14471(15) 0.51684(13)
Zn5C Zn 0.58032(9) 0.37856(15) 0.69922(10)
N23B N -0.0243(5) 0.5105(9) 0.5158(6)
N24C N 0.0467(4) 1.0434(9) 0.1462(5)
C73 C 0.1534(7) 0.1158(11) 0.6157(7)
H49 H 0.1434 0.0693 0.5960
C74 C 0.1108(5) 0.2208(11) 0.5657(5)
O1 O 0.0961(5) 0.1445(12) 0.5448(5)
C75 C 0.0349(8) 0.2249(14) 0.4452(7)
C76 C 0.1387(6) 0.2024(12) 0.6077(5)
C77 C 0.0599(7) 0.2272(12) 0.4863(7)
C78 C 0.0724(7) 0.1458(11) 0.5052(6)
C79 C 0.1959(7) 0.1646(14) 0.6816(6)
C80 C 0.1009(5) 0.3007(12) 0.5468(5)
C81 C 0.1827(5) 0.2518(14) 0.6731(5)
C82 C 0.1825(7) 0.0969(14) 0.6520(7)
H50 H 0.1930 0.0385 0.6567
C83 C 0.1538(6) 0.2696(11) 0.6362(6)
H51 H 0.1444 0.3287 0.6307
C84 C 0.0212(8) 0.1456(16) 0.4248(7)
O2 O 0.1173(8) 0.3767(12) 0.5650(9)
C85 C 0.0330(8) 0.0665(13) 0.4467(8)
C86 C 0.0584(8) 0.0645(12) 0.4872(7)
C87 C 0.0743(7) 0.3090(11) 0.5060(6)
O3 O 0.2240(6) 0.1509(16) 0.7178(6)
O4 O 0.0710(8) -0.0103(14) 0.5097(10)
C88 C -0.0187(9) -0.043(3) 0.4127(15)
H52 H -0.0225 -0.0588 0.3817
H53 H -0.0377 0.0028 0.4168
H54 H -0.0228 -0.0963 0.4296
O5 O 0.0202(8) -0.0110(15) 0.4272(9)
O6 O 0.0235(8) 0.2994(16) 0.4214(9)
O7 O 0.0653(7) 0.3799(13) 0.4846(7)
C89 C 0.1051(12) 0.443(2) 0.5919(12)
H55 H 0.1281 0.4758 0.6070
H56 H 0.0919 0.4142 0.6135
H57 H 0.0867 0.4835 0.5738
O8 O 0.1999(8) 0.3161(16) 0.7007(8)
O9 O -0.0019(8) 0.133(3) 0.3853(8)
C90 C 0.2362(12) 0.352(3) 0.6910(17)
H58 H 0.2471 0.3962 0.7134
H59 H 0.2306 0.3815 0.6623
H60 H 0.2552 0.3043 0.6907
C91 C 0.2563(9) 0.091(3) 0.7197(13)
H61 H 0.2742 0.0971 0.7481
H62 H 0.2705 0.1055 0.6963
H63 H 0.2464 0.0300 0.7161
C92 C 0.0454(12) -0.084(2) 0.5113(12)
H64 H 0.0529 -0.1332 0.4937
H65 H 0.0181 -0.0667 0.4995
H66 H 0.0477 -0.1040 0.5416
C93 C 0.0526(11) 0.356(2) 0.4083(9)
H67 H 0.0435 0.4175 0.4068
H68 H 0.0569 0.3369 0.3794
H69 H 0.0775 0.3509 0.4296
C94 C 0.009(2) 0.178(3) 0.3487(9)
H70 H 0.0326 0.2133 0.3586
H71 H -0.0128 0.2163 0.3348
H72 H 0.0141 0.1332 0.3275
loop_
_geom_bond_atom_site_label_1
_geom_bond_atom_site_label_2
_geom_bond_site_symmetry_1
_geom_bond_site_symmetry_2
Zn1 I1 1_555 1_555
I2 Zn1 1_555 1_555
N1 Zn1 1_555 1_555
C1 N1 1_555 1_555
H1 C1 1_555 1_555
C2 C1 1_555 1_555
H2 C2 1_555 1_555
C3 C2 1_555 1_555
C4 C3 1_555 1_555
H3 C4 1_555 1_555
C5 N1 1_555 1_555
H4 C5 1_555 1_555
C6 C3 1_555 1_555
N2 C6 1_555 1_555
C7 N2 1_555 1_555
N3 C7 1_555 1_555
C8 N3 1_555 1_555
N4 C6 1_555 1_555
N5 C9 1_555 1_555
C9 H5 1_555 1_555
C10 C9 1_555 1_555
H6 C10 1_555 1_555
C11 C7 1_555 1_555
C12 C11 1_555 1_555
H7 C12 1_555 1_555
C13 N5 1_555 1_555
H8 C13 1_555 1_555
Zn2 N5 1_555 1_555
I3 Zn2 1_555 1_555
I4 Zn2 1_555 1_555
N6 C14 1_555 1_555
C14 H9 1_555 1_555
C15 C14 1_555 1_555
H10 C15 1_555 1_555
C16 C8 1_555 1_555
C17 C16 1_555 1_555
H11 C17 1_555 1_555
C18 N6 1_555 1_555
H12 C18 1_555 1_555
Zn3 N6 1_555 1_555
I5 Zn3 1_555 1_555
I6 Zn3 1_555 1_555
N7 Zn3 1_555 1_555
C19 N7 1_555 1_555
H13 C19 1_555 1_555
C20 C19 1_555 1_555
H14 C20 1_555 1_555
C21 C20 1_555 1_555
C22 C21 1_555 1_555
H15 C22 1_555 1_555
C23 N7 1_555 1_555
H16 C23 1_555 1_555
C24 C21 1_555 1_555
N8 C24 1_555 1_555
C25 N8 1_555 1_555
N9 C25 1_555 1_555
C26 N9 1_555 1_555
N10 C24 1_555 1_555
N11 C27 1_555 1_555
C27 H17 1_555 1_555
C28 C27 1_555 1_555
H18 C28 1_555 1_555
C29 C25 1_555 1_555
C30 C29 1_555 1_555
H19 C30 1_555 1_555
C31 N11 1_555 1_555
H20 C31 1_555 1_555
N12 C32 1_555 1_555
C32 H21 1_555 1_555
C33 C32 1_555 1_555
H22 C33 1_555 1_555
C34 C26 1_555 1_555
C35 C34 1_555 1_555
H23 C35 1_555 1_555
C36 N12 1_555 1_555
H24 C36 1_555 1_555
Zn4 I7 1_555 1_555
I8 Zn4 1_555 1_555
N13 Zn4 1_555 1_555
C37 N13 1_555 1_555
H25 C37 1_555 1_555
C38 C37 1_555 1_555
H26 C38 1_555 1_555
C39 C38 1_555 1_555
C40 C39 1_555 1_555
H27 C40 1_555 1_555
C41 N13 1_555 1_555
H28 C41 1_555 1_555
C42 C39 1_555 1_555
N14 C42 1_555 1_555
C43 N14 1_555 1_555
N15 C43 1_555 1_555
C44 N15 1_555 1_555
N16 C42 1_555 1_555
N17 C45 1_555 1_555
C45 H29 1_555 1_555
C46 C45 1_555 1_555
H30 C46 1_555 1_555
C47 C43 1_555 1_555
C48 C47 1_555 1_555
H31 C48 1_555 1_555
C49 N17 1_555 1_555
H32 C49 1_555 1_555
Zn5 N17 1_555 1_555
I9 Zn5 1_555 1_555
I10 Zn5 1_555 1_555
N18 C50 1_555 1_555
C50 H33 1_555 1_555
C51 C50 1_555 1_555
H34 C51 1_555 1_555
C52 C44 1_555 1_555
C53 C52 1_555 1_555
H35 C53 1_555 1_555
C54 N18 1_555 1_555
H36 C54 1_555 1_555
Zn6 N18 1_555 1_555
I11 Zn6 1_555 1_555
I12 Zn6 1_555 1_555
N19 Zn6 1_555 1_555
C55 N19 1_555 1_555
H37 C55 1_555 1_555
C56 C55 1_555 1_555
H38 C56 1_555 1_555
C57 C56 1_555 1_555
C58 C57 1_555 1_555
H39 C58 1_555 1_555
C59 N19 1_555 1_555
H40 C59 1_555 1_555
C60 C57 1_555 1_555
N20 C60 1_555 1_555
C61 N20 1_555 1_555
N21 C61 1_555 1_555
C62 N21 1_555 1_555
N22 C60 1_555 1_555
N23 C63 1_555 1_555
C63 H41 1_555 1_555
C64 C63 1_555 1_555
H42 C64 1_555 1_555
C65 C61 1_555 1_555
C66 C65 1_555 1_555
H43 C66 1_555 1_555
C67 N23 1_555 1_555
H44 C67 1_555 1_555
N24 C68 1_555 1_555
C68 H45 1_555 1_555
C69 C68 1_555 1_555
H46 C69 1_555 1_555
C70 C62 1_555 1_555
C71 C70 1_555 1_555
H47 C71 1_555 1_555
C72 N24 1_555 1_555
H48 C72 1_555 1_555
C73 H49 1_555 1_555
C74 O1 1_555 1_555
O1 C78 1_555 1_555
C75 C77 1_555 1_555
C76 C73 1_555 1_555
C77 C78 1_555 1_555
C78 C86 1_555 1_555
C79 C81 1_555 1_555
C80 C74 1_555 1_555
C81 C83 1_555 1_555
C82 C73 1_555 1_555
H50 C82 1_555 1_555
C83 C76 1_555 1_555
H51 C83 1_555 1_555
C84 C75 1_555 1_555
O2 C80 1_555 1_555
C85 C84 1_555 1_555
C86 C85 1_555 1_555
C87 C77 1_555 1_555
O3 C79 1_555 1_555
O4 C86 1_555 1_555
C88 H52 1_555 1_555
H53 C88 1_555 1_555
H54 C88 1_555 1_555
O5 C85 1_555 1_555
O6 C75 1_555 1_555
O7 C87 1_555 1_555
C89 O2 1_555 1_555
H55 C89 1_555 1_555
H56 C89 1_555 1_555
H57 C89 1_555 1_555
O8 C81 1_555 1_555
O9 C84 1_555 1_555
C90 O8 1_555 1_555
H58 C90 1_555 1_555
H59 C90 1_555 1_555
H60 C90 1_555 1_555
C91 O3 1_555 1_555
H61 C91 1_555 1_555
H62 C91 1_555 1_555
H63 C91 1_555 1_555
C92 O4 1_555 1_555
H64 C92 1_555 1_555
H65 C92 1_555 1_555
H66 C92 1_555 1_555
C93 O6 1_555 1_555
H67 C93 1_555 1_555
H68 C93 1_555 1_555
H69 C93 1_555 1_555
C94 O9 1_555 1_555
H70 C94 1_555 1_555
H71 C94 1_555 1_555
H72 C94 1_555 1_555
Zn1C N11 1_555 1_555
Zn2A N12 1_555 1_555
N11C Zn1 1_555 1_555
N12A Zn2 1_555 1_555
Zn4B N23 1_555 1_555
Zn5C N24 1_555 1_555
N23B Zn4 1_555 1_555
N24C Zn5 1_555 1_555
C4 C5 1_555 1_555
C8 N4 1_555 1_555
C10 C11 1_555 1_555
C12 C13 1_555 1_555
C15 C16 1_555 1_555
C17 C18 1_555 1_555
C22 C23 1_555 1_555
C26 N10 1_555 1_555
C28 C29 1_555 1_555
C30 C31 1_555 1_555
C33 C34 1_555 1_555
C35 C36 1_555 1_555
C40 C41 1_555 1_555
C44 N16 1_555 1_555
C46 C47 1_555 1_555
C48 C49 1_555 1_555
C51 C52 1_555 1_555
C53 C54 1_555 1_555
C58 C59 1_555 1_555
C62 N22 1_555 1_555
C64 C65 1_555 1_555
C66 C67 1_555 1_555
C69 C70 1_555 1_555
C71 C72 1_555 1_555
C74 C76 1_555 1_555
C79 C82 1_555 1_555
C80 C87 1_555 1_555
C88 O5 1_555 1_555

#END
