
#######################################################################
#
#                 Cambridge Crystallographic Data Centre
#                                CCDC 
#
#######################################################################
#
# If this CIF has been generated from an entry in the Cambridge 
# Structural Database, then it will include bibliographic, chemical, 
# crystal, experimental, refinement or atomic coordinate data resulting 
# from the CCDC's data processing and validation procedures.
#
#######################################################################

data_REXDIJ
_symmetry_cell_setting           monoclinic
_symmetry_space_group_name_H-M   'C 2/c'
_symmetry_Int_Tables_number      15
_space_group_name_Hall           '-C 2yn'
loop_
_symmetry_equiv_pos_site_id
_symmetry_equiv_pos_as_xyz
1 x,y,z
2 -x,y,1/2-z
3 1/2+x,1/2+y,z
4 1/2-x,1/2+y,1/2-z
5 -x,-y,-z
6 x,-y,1/2+z
7 1/2-x,1/2-y,-z
8 1/2+x,1/2-y,1/2+z
_cell_length_a                   35.862(5)
_cell_length_b                   14.902(2)
_cell_length_c                   31.358(5)
_cell_angle_alpha                90
_cell_angle_beta                 102.694(2)
_cell_angle_gamma                90
_cell_volume                     16348.6
loop_
_atom_site_label
_atom_site_type_symbol
_atom_site_fract_x
_atom_site_fract_y
_atom_site_fract_z
Zn1 Zn 0.32502(6) -0.14543(9) 0.71740(6)
I1 I 0.36945(5) -0.17382(8) 0.79177(4)
I2 I 0.26287(4) -0.23067(6) 0.69162(5)
N1 N 0.3128(3) -0.0072(6) 0.7141(3)
C1 C 0.2800(3) 0.0263(6) 0.6910(5)
H1 H 0.2614 -0.0122 0.6741
C2 C 0.2735(4) 0.1172(6) 0.6918(4)
H2 H 0.2508 0.1407 0.6739
C3 C 0.2985(3) 0.1753(6) 0.7175(3)
C4 C 0.3314(3) 0.1391(8) 0.7419(4)
H3 H 0.3498 0.1760 0.7603
C5 C 0.3376(4) 0.0468(7) 0.7391(4)
H4 H 0.3606 0.0220 0.7559
C6 C 0.2902(3) 0.2726(6) 0.7207(3)
N2 N 0.2593(2) 0.3096(5) 0.6936(3)
C7 C 0.2542(3) 0.3955(7) 0.7014(3)
N3 N 0.2764(2) 0.4462(5) 0.7305(2)
C8 C 0.3068(3) 0.4039(6) 0.7541(3)
N4 N 0.3160(2) 0.3177(5) 0.7504(2)
N5 N 0.1630(3) 0.5332(5) 0.6154(3)
C9 C 0.1857(3) 0.5749(7) 0.6492(3)
H5 H 0.1808 0.6364 0.6539
C10 C 0.2151(3) 0.5348(7) 0.6771(4)
H6 H 0.2314 0.5686 0.6993
C11 C 0.2212(3) 0.4430(7) 0.6726(3)
C12 C 0.1970(3) 0.3995(7) 0.6387(4)
H7 H 0.2000 0.3371 0.6344
C13 C 0.1687(3) 0.4461(6) 0.6112(4)
H8 H 0.1524 0.4146 0.5880
N6 N 0.3866(3) 0.5511(5) 0.8508(3)
C14 C 0.3923(4) 0.4652(7) 0.8434(5)
H9 H 0.4143 0.4359 0.8600
C15 C 0.3666(4) 0.4166(7) 0.8117(5)
H10 H 0.3721 0.3561 0.8057
C16 C 0.3334(3) 0.4566(6) 0.7891(3)
C17 C 0.3275(4) 0.5476(7) 0.7973(3)
H11 H 0.3059 0.5787 0.7811
C18 C 0.3541(4) 0.5909(8) 0.8295(3)
H12 H 0.3492 0.6510 0.8369
Zn2 Zn 0.12204(4) 0.59980(10) 0.57029(6)
I3 I 0.14467(3) 0.59917(10) 0.49929(4)
I4 I 0.10416(4) 0.73903(8) 0.60754(5)
N7 N 0.0764(3) 0.5120(7) 0.5645(3)
C19 C 0.0617(4) 0.4657(7) 0.5286(4)
H13 H 0.0738 0.4710 0.5047
C20 C 0.0306(3) 0.4110(7) 0.5236(3)
H14 H 0.0204 0.3818 0.4966
C21 C 0.0150(3) 0.4005(8) 0.5589(4)
C22 C 0.0302(4) 0.4405(10) 0.5985(4)
H15 H 0.0192 0.4322 0.6232
C23 C 0.0622(4) 0.4931(12) 0.6005(5)
H16 H 0.0748 0.5171 0.6279
C24 C -0.0183(3) 0.3377(6) 0.5568(3)
N8 N -0.0231(3) 0.2730(5) 0.5266(2)
C25 C -0.0508(3) 0.2113(7) 0.5282(3)
N9 N -0.0750(3) 0.2231(6) 0.5555(3)
C26 C -0.0682(3) 0.2937(7) 0.5835(3)
N10 N -0.0395(2) 0.3505(6) 0.5860(3)
N11 N -0.0616(3) -0.0145(6) 0.4435(3)
C27 C -0.0868(4) 0.0029(8) 0.4682(4)
H17 H -0.1067 -0.0393 0.4681
C28 C -0.0855(4) 0.0785(8) 0.4938(4)
H18 H -0.1062 0.0918 0.5073
C29 C -0.0550(3) 0.1336(8) 0.4997(4)
C30 C -0.0274(3) 0.1170(7) 0.4751(3)
H19 H -0.0066 0.1566 0.4758
C31 C -0.0320(3) 0.0409(6) 0.4501(4)
H20 H -0.0119 0.0263 0.4360
N12 N -0.1428(3) 0.3389(7) 0.6706(4)
C32 C -0.1066(4) 0.3668(11) 0.6799(5)
H21 H -0.0976 0.3980 0.7066
C33 C -0.0817(4) 0.3533(11) 0.6531(4)
H22 H -0.0562 0.3754 0.6611
C34 C -0.0937(3) 0.3078(7) 0.6151(3)
C35 C -0.1302(3) 0.2732(8) 0.6075(4)
H23 H -0.1392 0.2385 0.5819
C36 C -0.1538(4) 0.2871(9) 0.6357(4)
H24 H -0.1783 0.2595 0.6302
Zn3 Zn -0.07292(5) -0.11689(9) 0.39855(4)
I5 I -0.01538(4) -0.14181(8) 0.36506(4)
I6 I -0.10555(4) -0.23809(6) 0.43158(3)
Zn1B Zn -0.17498(6) 0.35457(9) 0.71740(6)
N6G N -0.1134(3) -0.0511(5) 0.3508(3)
N12B N 0.3572(3) -0.1611(7) 0.6706(4)
Zn3G Zn 0.42708(5) 0.61689(9) 0.89855(4)
C37 C 0.0302(5) 0.1468(13) 0.3712(5)
C38 C 0.0451(6) 0.3933(11) 0.4033(5)
H25 H 0.0334 0.4504 0.3969
C39 C 0.1575(5) 0.0498(13) 0.4634(5)
H26 H 0.1814 0.0430 0.4835
C40 C 0.0878(5) 0.0700(11) 0.4052(5)
C41 C 0.1017(5) 0.1474(11) 0.4281(5)
C42 C 0.1367(5) 0.1300(12) 0.4563(5)
H27 H 0.1482 0.1797 0.4731
C43 C 0.0522(5) 0.0698(13) 0.3769(5)
H28 H 0.0429 0.0167 0.3614
C44 C 0.1037(6) -0.0160(11) 0.4071(5)
H29 H 0.0922 -0.0657 0.3902
C45 C 0.0794(5) 0.2254(10) 0.4223(5)
C46 C 0.1386(5) -0.0185(12) 0.4371(5)
H30 H 0.1512 -0.0749 0.4402
C47 C 0.0809(6) 0.3794(14) 0.4305(5)
H31 H 0.0938 0.4320 0.4429
C48 C 0.1002(6) 0.2993(15) 0.4421(5)
H32 H 0.1247 0.2952 0.4612
C49 C 0.0286(6) 0.3121(12) 0.3867(5)
H33 H 0.0041 0.3164 0.3678
C50 C 0.0435(6) 0.2251(11) 0.3942(6)
Br1 Br -0.0148(2) 0.1449(7) 0.3307(3)
loop_
_geom_bond_atom_site_label_1
_geom_bond_atom_site_label_2
_geom_bond_site_symmetry_1
_geom_bond_site_symmetry_2
Zn1 I1 1_555 1_555
I2 Zn1 1_555 1_555
N1 Zn1 1_555 1_555
C1 N1 1_555 1_555
H1 C1 1_555 1_555
C2 C1 1_555 1_555
H2 C2 1_555 1_555
C3 C2 1_555 1_555
C4 C3 1_555 1_555
H3 C4 1_555 1_555
C5 N1 1_555 1_555
H4 C5 1_555 1_555
C6 C3 1_555 1_555
N2 C6 1_555 1_555
C7 N2 1_555 1_555
N3 C7 1_555 1_555
C8 N3 1_555 1_555
N4 C6 1_555 1_555
N5 C9 1_555 1_555
C9 H5 1_555 1_555
C10 C9 1_555 1_555
H6 C10 1_555 1_555
C11 C7 1_555 1_555
C12 C11 1_555 1_555
H7 C12 1_555 1_555
C13 N5 1_555 1_555
H8 C13 1_555 1_555
N6 C14 1_555 1_555
C14 H9 1_555 1_555
C15 C14 1_555 1_555
H10 C15 1_555 1_555
C16 C8 1_555 1_555
C17 C16 1_555 1_555
H11 C17 1_555 1_555
C18 N6 1_555 1_555
H12 C18 1_555 1_555
Zn2 N5 1_555 1_555
I3 Zn2 1_555 1_555
I4 Zn2 1_555 1_555
N7 Zn2 1_555 1_555
C19 N7 1_555 1_555
H13 C19 1_555 1_555
C20 C19 1_555 1_555
H14 C20 1_555 1_555
C21 C20 1_555 1_555
C22 C21 1_555 1_555
H15 C22 1_555 1_555
C23 N7 1_555 1_555
H16 C23 1_555 1_555
C24 C21 1_555 1_555
N8 C24 1_555 1_555
C25 N8 1_555 1_555
N9 C25 1_555 1_555
C26 N9 1_555 1_555
N10 C24 1_555 1_555
N11 C27 1_555 1_555
C27 H17 1_555 1_555
C28 C27 1_555 1_555
H18 C28 1_555 1_555
C29 C25 1_555 1_555
C30 C29 1_555 1_555
H19 C30 1_555 1_555
C31 N11 1_555 1_555
H20 C31 1_555 1_555
N12 C32 1_555 1_555
C32 H21 1_555 1_555
C33 C32 1_555 1_555
H22 C33 1_555 1_555
C34 C26 1_555 1_555
C35 C34 1_555 1_555
H23 C35 1_555 1_555
C36 N12 1_555 1_555
H24 C36 1_555 1_555
Zn3 N11 1_555 1_555
I5 Zn3 1_555 1_555
I6 Zn3 1_555 1_555
C37 C43 1_555 1_555
C38 H25 1_555 1_555
C39 H26 1_555 1_555
C40 C41 1_555 1_555
C41 C42 1_555 1_555
C42 C39 1_555 1_555
H27 C42 1_555 1_555
C43 C40 1_555 1_555
H28 C43 1_555 1_555
C44 C40 1_555 1_555
H29 C44 1_555 1_555
C45 C41 1_555 1_555
C46 C39 1_555 1_555
H30 C46 1_555 1_555
C47 C38 1_555 1_555
H31 C47 1_555 1_555
C48 C45 1_555 1_555
H32 C48 1_555 1_555
C49 C38 1_555 1_555
H33 C49 1_555 1_555
C50 C37 1_555 1_555
Br1 C37 1_555 1_555
Zn1B N12 1_555 1_555
N6G Zn3 1_555 1_555
N12B Zn1 1_555 1_555
Zn3G N6 1_555 1_555
C4 C5 1_555 1_555
C8 N4 1_555 1_555
C10 C11 1_555 1_555
C12 C13 1_555 1_555
C15 C16 1_555 1_555
C17 C18 1_555 1_555
C22 C23 1_555 1_555
C26 N10 1_555 1_555
C28 C29 1_555 1_555
C30 C31 1_555 1_555
C33 C34 1_555 1_555
C35 C36 1_555 1_555
C44 C46 1_555 1_555
C45 C50 1_555 1_555
C47 C48 1_555 1_555
C49 C50 1_555 1_555

#END
