
#######################################################################
#
#                 Cambridge Crystallographic Data Centre
#                                CCDC 
#
#######################################################################
#
# If this CIF has been generated from an entry in the Cambridge 
# Structural Database, then it will include bibliographic, chemical, 
# crystal, experimental, refinement or atomic coordinate data resulting 
# from the CCDC's data processing and validation procedures.
#
#######################################################################

data_REXDUV
_symmetry_cell_setting           monoclinic
_symmetry_space_group_name_H-M   'C 2/c'
_symmetry_Int_Tables_number      15
_space_group_name_Hall           '-C 2yn'
loop_
_symmetry_equiv_pos_site_id
_symmetry_equiv_pos_as_xyz
1 x,y,z
2 -x,y,1/2-z
3 1/2+x,1/2+y,z
4 1/2-x,1/2+y,1/2-z
5 -x,-y,-z
6 x,-y,1/2+z
7 1/2-x,1/2-y,-z
8 1/2+x,1/2-y,1/2+z
_cell_length_a                   34.847(4)
_cell_length_b                   14.7560(16)
_cell_length_c                   30.740(4)
_cell_angle_alpha                90
_cell_angle_beta                 102.007(2)
_cell_angle_gamma                90
_cell_volume                     15460.8
loop_
_atom_site_label
_atom_site_type_symbol
_atom_site_fract_x
_atom_site_fract_y
_atom_site_fract_z
Zn1 Zn 0.41515(3) 0.12667(5) 0.40891(3)
I1 I 0.47282(2) 0.15121(5) 0.37122(3)
I2 I 0.37774(3) 0.23866(4) 0.44523(2)
Zn2 Zn 0.12338(3) 0.10169(6) 0.05980(3)
I3 I 0.14348(2) 0.09463(6) -0.01347(3)
I4 I 0.10733(3) 0.24371(4) 0.09798(4)
Zn3 Zn 0.32673(3) -0.64182(5) 0.23091(3)
I5 I 0.264636(19) -0.73225(3) 0.20532(2)
I6 I 0.36990(2) -0.65908(4) 0.307868(19)
N1 N 0.37733(19) 0.0590(4) 0.3592(2)
C1 C 0.3453(2) 0.0966(4) 0.3336(2)
H1 H 0.3382 0.1565 0.3401
C2 C 0.3228(2) 0.0526(4) 0.2989(2)
H2 H 0.3006 0.0819 0.2814
C3 C 0.3323(2) -0.0363(4) 0.2888(2)
C4 C 0.3640(3) -0.0755(5) 0.3155(3)
H3 H 0.3709 -0.1365 0.3110
C5 C 0.3858(3) -0.0249(5) 0.3492(4)
H4 H 0.4086 -0.0520 0.3666
N2 N 0.16729(18) 0.0370(4) 0.1038(2)
C6 C 0.1778(2) -0.0476(5) 0.0959(3)
H5 H 0.1642 -0.0767 0.0696
C7 C 0.2066(2) -0.0944(4) 0.1230(2)
H6 H 0.2124 -0.1550 0.1163
C8 C 0.2273(2) -0.0519(4) 0.1610(2)
C9 C 0.2157(2) 0.0363(5) 0.1693(3)
H7 H 0.2285 0.0671 0.1954
C10 C 0.1870(3) 0.0770(5) 0.1410(3)
H8 H 0.1801 0.1372 0.1473
N3 N 0.31523(19) -0.5038(4) 0.2218(2)
C11 C 0.3398(3) -0.4464(5) 0.2473(3)
H9 H 0.3619 -0.4703 0.2674
C12 C 0.3344(3) -0.3551(5) 0.2456(4)
H10 H 0.3520 -0.3165 0.2649
C13 C 0.3028(2) -0.3189(4) 0.2156(2)
C14 C 0.2788(2) -0.3780(4) 0.1891(3)
H11 H 0.2574 -0.3560 0.1673
C15 C 0.2854(2) -0.4707(4) 0.1940(3)
H12 H 0.2674 -0.5112 0.1764
C16 C 0.3086(2) -0.0879(4) 0.2523(2)
N4 N 0.27860(17) -0.0452(3) 0.22585(19)
C17 C 0.2589(2) -0.0965(4) 0.1928(2)
N5 N 0.26623(17) -0.1857(3) 0.18570(19)
C18 C 0.2953(2) -0.2206(4) 0.2163(2)
N6 N 0.31920(17) -0.1740(3) 0.24849(19)
N7 N 0.36043(19) -0.6624(4) 0.1850(2)
C19 C 0.3492(3) -0.7176(6) 0.1500(3)
H13 H 0.3241 -0.7453 0.1458
C20 C 0.3723(3) -0.7358(5) 0.1200(3)
H14 H 0.3638 -0.7773 0.0964
C21 C 0.4086(2) -0.6920(4) 0.1250(2)
C22 C 0.4194(3) -0.6303(7) 0.1595(3)
H15 H 0.4434 -0.5978 0.1639
C23 C 0.3930(3) -0.6192(8) 0.1870(4)
H16 H 0.3995 -0.5750 0.2098
N8 N 0.4285(2) -1.0200(4) -0.0472(2)
C24 C 0.4607(2) -0.9670(5) -0.0452(2)
H17 H 0.4791 -0.9820 -0.0630
C25 C 0.4672(2) -0.8934(5) -0.0184(2)
H18 H 0.4903 -0.8584 -0.0172
C26 C 0.4410(2) -0.8685(5) 0.0070(2)
C27 C 0.4083(3) -0.9224(7) 0.0055(3)
H19 H 0.3893 -0.9077 0.0225
C28 C 0.4040(3) -0.9979(6) -0.0212(4)
H20 H 0.3823 -1.0366 -0.0210
N9 N 0.57706(19) -0.4839(4) 0.0569(2)
C29 C 0.5596(4) -0.4881(9) 0.0908(4)
H21 H 0.5691 -0.4490 0.1152
C30 C 0.5284(4) -0.5450(9) 0.0940(4)
H22 H 0.5173 -0.5467 0.1198
C31 C 0.5147(2) -0.5982(5) 0.0578(2)
C32 C 0.5326(3) -0.5972(5) 0.0220(3)
H23 H 0.5240 -0.6359 -0.0028
C33 C 0.5632(2) -0.5383(6) 0.0233(3)
H24 H 0.5752 -0.5366 -0.0018
C34 C 0.4331(2) -0.7055(5) 0.0916(2)
N10 N 0.42524(18) -0.7799(4) 0.0662(2)
C35 C 0.4482(2) -0.7869(5) 0.0355(2)
N11 N 0.47487(18) -0.7294(4) 0.02966(18)
C36 C 0.4810(2) -0.6604(5) 0.0601(3)
N12 N 0.46141(18) -0.6471(4) 0.0915(2)
Zn1E Zn 0.41515(3) -1.12667(5) -0.09109(3)
Zn2B Zn 0.62338(3) -0.39831(6) 0.05980(3)
N8E N 0.4285(2) 0.0200(4) 0.4528(2)
N9B N 0.07706(19) 0.0161(4) 0.0569(2)
C37 C 0.2413(6) 0.3338(14) 0.0702(6)
C38 C 0.2659(6) 0.4053(16) 0.0665(7)
H25 H 0.2910 0.3967 0.0597
C39 C 0.2516(7) 0.4904(18) 0.0734(8)
H26 H 0.2682 0.5405 0.0711
C40 C 0.2154(7) 0.5098(17) 0.0833(6)
H27 H 0.2063 0.5693 0.0874
C41 C 0.1941(7) 0.432(2) 0.0863(8)
H28 H 0.1694 0.4406 0.0941
C42 C 0.2044(7) 0.3431(19) 0.0794(10)
H29 H 0.1875 0.2931 0.0808
C43 C 0.2479(8) 0.2364(16) 0.0668(9)
H30 H 0.2285 0.1970 0.0738
C44 C 0.2777(8) 0.199(2) 0.0551(8)
H31 H 0.2969 0.2389 0.0477
C45 C 0.2852(8) 0.096(3) 0.0521(8)
H32 H 0.2651 0.0553 0.0557
O1 O 0.3154(8) 0.0667(19) 0.0452(8)
loop_
_geom_bond_atom_site_label_1
_geom_bond_atom_site_label_2
_geom_bond_site_symmetry_1
_geom_bond_site_symmetry_2
Zn1 I1 1_555 1_555
I2 Zn1 1_555 1_555
Zn2 I3 1_555 1_555
I4 Zn2 1_555 1_555
Zn3 I5 1_555 1_555
I6 Zn3 1_555 1_555
N1 Zn1 1_555 1_555
C1 N1 1_555 1_555
H1 C1 1_555 1_555
C2 C1 1_555 1_555
H2 C2 1_555 1_555
C3 C2 1_555 1_555
C4 C3 1_555 1_555
H3 C4 1_555 1_555
C5 N1 1_555 1_555
H4 C5 1_555 1_555
N2 Zn2 1_555 1_555
C6 N2 1_555 1_555
H5 C6 1_555 1_555
C7 C6 1_555 1_555
H6 C7 1_555 1_555
C8 C7 1_555 1_555
C9 C8 1_555 1_555
H7 C9 1_555 1_555
C10 N2 1_555 1_555
H8 C10 1_555 1_555
N3 Zn3 1_555 1_555
C11 N3 1_555 1_555
H9 C11 1_555 1_555
C12 C11 1_555 1_555
H10 C12 1_555 1_555
C13 C12 1_555 1_555
C14 C13 1_555 1_555
H11 C14 1_555 1_555
C15 N3 1_555 1_555
H12 C15 1_555 1_555
C16 C3 1_555 1_555
N4 C16 1_555 1_555
C17 C8 1_555 1_555
N5 C17 1_555 1_555
C18 C13 1_555 1_555
N6 C16 1_555 1_555
N7 Zn3 1_555 1_555
C19 N7 1_555 1_555
H13 C19 1_555 1_555
C20 C19 1_555 1_555
H14 C20 1_555 1_555
C21 C20 1_555 1_555
C22 C21 1_555 1_555
H15 C22 1_555 1_555
C23 N7 1_555 1_555
H16 C23 1_555 1_555
N8 C24 1_555 1_555
C24 H17 1_555 1_555
C25 C24 1_555 1_555
H18 C25 1_555 1_555
C26 C25 1_555 1_555
C27 C26 1_555 1_555
H19 C27 1_555 1_555
C28 N8 1_555 1_555
H20 C28 1_555 1_555
N9 C29 1_555 1_555
C29 H21 1_555 1_555
C30 C29 1_555 1_555
H22 C30 1_555 1_555
C31 C30 1_555 1_555
C32 C31 1_555 1_555
H23 C32 1_555 1_555
C33 N9 1_555 1_555
H24 C33 1_555 1_555
C34 C21 1_555 1_555
N10 C34 1_555 1_555
C35 C26 1_555 1_555
N11 C35 1_555 1_555
C36 C31 1_555 1_555
N12 C34 1_555 1_555
C37 C38 1_555 1_555
C38 H25 1_555 1_555
C39 C38 1_555 1_555
H26 C39 1_555 1_555
C40 C39 1_555 1_555
H27 C40 1_555 1_555
C41 C40 1_555 1_555
H28 C41 1_555 1_555
C42 C37 1_555 1_555
H29 C42 1_555 1_555
C43 C37 1_555 1_555
H30 C43 1_555 1_555
C44 C43 1_555 1_555
H31 C44 1_555 1_555
C45 C44 1_555 1_555
H32 C45 1_555 1_555
O1 C45 1_555 1_555
Zn1E N8 1_555 1_555
Zn2B N9 1_555 1_555
N8E Zn1 1_555 1_555
N9B Zn2 1_555 1_555
C4 C5 1_555 1_555
C9 C10 1_555 1_555
C14 C15 1_555 1_555
N4 C17 1_555 1_555
N5 C18 1_555 1_555
C18 N6 1_555 1_555
C22 C23 1_555 1_555
C27 C28 1_555 1_555
C32 C33 1_555 1_555
N10 C35 1_555 1_555
N11 C36 1_555 1_555
C36 N12 1_555 1_555
C41 C42 1_555 1_555

#END
