
#######################################################################
#
#                 Cambridge Crystallographic Data Centre
#                                CCDC 
#
#######################################################################
#
# If this CIF has been generated from an entry in the Cambridge 
# Structural Database, then it will include bibliographic, chemical, 
# crystal, experimental, refinement or atomic coordinate data resulting 
# from the CCDC's data processing and validation procedures.
#
#######################################################################

data_REXFIL
_symmetry_cell_setting           monoclinic
_symmetry_space_group_name_H-M   'C c'
_symmetry_Int_Tables_number      9
_space_group_name_Hall           'C -2yc'
loop_
_symmetry_equiv_pos_site_id
_symmetry_equiv_pos_as_xyz
1 x,y,z
2 x,-y,1/2+z
3 1/2+x,1/2+y,z
4 1/2+x,1/2-y,1/2+z
_cell_length_a                   34.576
_cell_length_b                   14.884
_cell_length_c                   30.646
_cell_angle_alpha                90
_cell_angle_beta                 101.17
_cell_angle_gamma                90
_cell_volume                     15472.6
loop_
_atom_site_label
_atom_site_type_symbol
_atom_site_fract_x
_atom_site_fract_y
_atom_site_fract_z
Zn1 Zn 0.52026(9) -0.1242(2) 0.76849(10)
I1 I 0.48284(6) -0.23848(11) 0.80448(6)
I2 I 0.57782(6) -0.15409(13) 0.72859(6)
N1 N 0.4821(5) -0.0569(14) 0.7184(5)
C1 C 0.4828(6) 0.0340(15) 0.7129(7)
H1 H 0.5055 0.0637 0.7288
C2 C 0.4538(6) 0.0911(13) 0.6864(6)
H2 H 0.4480 0.1520 0.6919
C3 C 0.4356(6) 0.0358(10) 0.6497(6)
C4 C 0.4242(5) -0.0544(11) 0.6588(6)
H3 H 0.3999 -0.0814 0.6455
C5 C 0.4545(5) -0.0984(14) 0.6907(5)
H4 H 0.4544 -0.1622 0.6916
C6 C 0.4113(5) 0.0891(9) 0.6141(6)
N2 N 0.4173(4) 0.1764(8) 0.6092(5)
C7 C 0.3930(6) 0.2194(9) 0.5771(6)
N3 N 0.3640(4) 0.1811(7) 0.5476(6)
C8 C 0.3643(5) 0.0929(8) 0.5552(6)
N4 N 0.3824(4) 0.0433(11) 0.5896(4)
N5 N 0.4139(7) 0.5088(12) 0.5809(8)
C9 C 0.3842(7) 0.4666(16) 0.5501(9)
H5 H 0.3663 0.5029 0.5301
C10 C 0.3794(6) 0.3679(12) 0.5475(8)
H6 H 0.3586 0.3428 0.5263
C11 C 0.4028(7) 0.3156(10) 0.5734(10)
C12 C 0.4344(7) 0.3582(14) 0.6024(9)
H7 H 0.4543 0.3242 0.6210
C13 C 0.4353(8) 0.4601(17) 0.6027(9)
H8 H 0.4560 0.4871 0.6234
N6 N 0.2675(5) -0.0374(12) 0.4647(6)
C14 C 0.2878(5) -0.0853(12) 0.4993(7)
H9 H 0.2811 -0.1456 0.5047
C15 C 0.3203(5) -0.0401(9) 0.5277(6)
H10 H 0.3361 -0.0746 0.5504
C16 C 0.3305(5) 0.0526(9) 0.5242(6)
C17 C 0.3059(5) 0.0972(12) 0.4874(6)
H11 H 0.3074 0.1604 0.4837
C18 C 0.2789(6) 0.0432(12) 0.4563(7)
H12 H 0.2689 0.0681 0.4279
Zn2 Zn 0.42749(13) 0.6394(2) 0.59042(16)
I3 I 0.46876(12) 0.66253(16) 0.66320(10)
I4 I 0.36177(10) 0.72501(15) 0.55821(14)
N7 N 0.4637(6) 0.6567(12) 0.5453(7)
C19 C 0.4942(8) 0.6091(16) 0.5442(7)
H13 H 0.4980 0.5572 0.5626
C20 C 0.5234(8) 0.6270(15) 0.5176(7)
H14 H 0.5490 0.6011 0.5224
C21 C 0.5086(8) 0.6886(15) 0.4833(7)
C22 C 0.4673(7) 0.7268(14) 0.4782(7)
H15 H 0.4552 0.7638 0.4541
C23 C 0.4498(7) 0.7018(14) 0.5119(7)
H16 H 0.4234 0.7212 0.5099
C24 C 0.5352(6) 0.6968(11) 0.4488(7)
N8 N 0.5632(5) 0.6360(10) 0.4481(5)
C25 C 0.5861(6) 0.6580(12) 0.4196(5)
N9 N 0.5789(5) 0.7292(11) 0.3928(5)
N10 N 0.5280(6) 0.7714(11) 0.4245(5)
N11 N 0.6795(6) 0.4811(13) 0.4093(6)
C26 C 0.6679(5) 0.5346(14) 0.3788(5)
H17 H 0.6794 0.5330 0.3530
C27 C 0.6415(8) 0.5907(15) 0.3809(7)
H18 H 0.6373 0.6354 0.3583
C28 C 0.6154(7) 0.5961(14) 0.4150(8)
C29 C 0.5513(5) 0.7907(15) 0.3956(7)
C30 C 0.6370(6) 0.5641(14) 0.4509(6)
H19 H 0.6311 0.5853 0.4781
C31 C 0.6692(7) 0.4997(14) 0.4549(7)
H20 H 0.6821 0.4730 0.4820
C32 C 0.5488(7) 0.8705(11) 0.3656(7)
C33 C 0.5204(7) 0.9222(14) 0.3674(7)
H21 H 0.5023 0.9067 0.3859
C34 C 0.5732(6) 0.8891(13) 0.3392(6)
H22 H 0.5948 0.8510 0.3370
N12 N 0.5378(5) 1.0204(9) 0.3147(5)
C35 C 0.5141(6) 1.0095(13) 0.3405(6)
H23 H 0.4940 1.0517 0.3431
C36 C 0.5656(6) 0.9697(13) 0.3138(6)
H24 H 0.5834 0.9853 0.2949
Zn3 Zn 0.72880(10) 0.3971(2) 0.41734(12)
I5 I 0.75225(8) 0.4093(2) 0.34666(8)
I6 I 0.71156(9) 0.25867(14) 0.45375(10)
Zn1A Zn 0.52026(9) 1.1242(2) 0.26849(10)
N6B N 0.7675(5) 0.4626(12) 0.4647(6)
N12A N 0.5378(5) -0.0204(9) 0.8147(5)
Zn3B Zn 0.22880(10) -0.1029(2) 0.41734(12)
Zn4 Zn 0.97448(10) -0.1021(2) 0.80581(11)
I7 I 0.99087(8) -0.24238(14) 0.76978(10)
I8 I 0.95028(7) -0.0900(2) 0.87749(8)
N13 N 0.9328(5) -0.0414(12) 0.7594(6)
C37 C 0.9088(6) -0.0773(17) 0.7222(8)
H25 H 0.9111 -0.1398 0.7169
C38 C 0.8834(8) -0.0325(19) 0.6944(9)
H26 H 0.8705 -0.0605 0.6676
C39 C 0.8749(6) 0.0534(13) 0.7024(6)
C40 C 0.8938(10) 0.0994(19) 0.7396(8)
H27 H 0.8852 0.1572 0.7468
C41 C 0.9244(7) 0.0597(15) 0.7647(8)
H28 H 0.9416 0.0938 0.7865
C42 C 0.8435(5) 0.1003(8) 0.6700(5)
N14 N 0.8234(4) 0.0494(8) 0.6371(4)
C43 C 0.7927(4) 0.0905(8) 0.6101(5)
N15 N 0.7790(4) 0.1750(8) 0.6129(5)
C44 C 0.8057(5) 0.2200(10) 0.6431(6)
N16 N 0.8342(4) 0.1876(8) 0.6757(5)
N17 N 0.7226(5) -0.0538(10) 0.5005(6)
C45 C 0.7156(7) 0.0287(15) 0.5051(8)
H29 H 0.6954 0.0580 0.4846
C46 C 0.7386(5) 0.0784(10) 0.5418(5)
H30 H 0.7324 0.1396 0.5457
C47 C 0.7706(5) 0.0375(10) 0.5726(5)
C48 C 0.7706(5) -0.0512(12) 0.5666(7)
H31 H 0.7850 -0.0865 0.5901
C49 C 0.7517(6) -0.0962(12) 0.5291(7)
H32 H 0.7590 -0.1560 0.5234
N18 N 0.7843(6) 0.5004(12) 0.6379(6)
C50 C 0.8151(7) 0.4759(16) 0.6661(8)
H33 H 0.8304 0.5185 0.6852
C51 C 0.8259(7) 0.3817(14) 0.6680(8)
H34 H 0.8505 0.3629 0.6849
C52 C 0.7996(7) 0.3183(11) 0.6445(8)
C53 C 0.7707(7) 0.3509(15) 0.6187(9)
H35 H 0.7560 0.3099 0.5982
C54 C 0.7572(8) 0.4382(15) 0.6157(8)
H36 H 0.7317 0.4546 0.6000
Zn5 Zn 0.68158(10) -0.12702(19) 0.45700(9)
I9 I 0.71929(6) -0.23918(11) 0.41888(6)
I10 I 0.62518(6) -0.15430(14) 0.49514(6)
Zn6 Zn 0.77674(14) 0.6397(2) 0.63549(15)
I11 I 0.83484(7) 0.73173(13) 0.65480(8)
I12 I 0.72868(8) 0.65688(14) 0.55608(8)
N19 N 0.7451(7) 0.6693(15) 0.6858(8)
C55 C 0.7138(10) 0.6361(16) 0.6816(8)
H37 H 0.7059 0.6021 0.6551
C56 C 0.6872(6) 0.6389(14) 0.7086(10)
H38 H 0.6640 0.6032 0.7030
C57 C 0.6954(8) 0.6962(16) 0.7449(10)
C58 C 0.7263(7) 0.7431(14) 0.7526(8)
H39 H 0.7308 0.7874 0.7753
C59 C 0.7568(6) 0.7237(13) 0.7222(7)
H40 H 0.7826 0.7486 0.7287
C60 C 0.6693(6) 0.7047(14) 0.7785(7)
N20 N 0.6366(5) 0.6507(12) 0.7792(6)
C61 C 0.6178(6) 0.6571(12) 0.8125(6)
N21 N 0.6212(4) 0.7260(9) 0.8397(4)
C62 C 0.6496(5) 0.7837(14) 0.8317(5)
N22 N 0.6739(5) 0.7798(11) 0.8035(5)
N23 N 0.5207(6) 0.4875(14) 0.8055(6)
C63 C 0.5326(7) 0.5372(15) 0.8385(8)
H41 H 0.5177 0.5364 0.8616
C64 C 0.5665(7) 0.5953(13) 0.8448(9)
H42 H 0.5757 0.6295 0.8709
C65 C 0.5827(6) 0.5948(12) 0.8103(8)
C66 C 0.5740(7) 0.5185(17) 0.7790(7)
H43 H 0.5901 0.5055 0.7579
C67 C 0.5449(7) 0.4728(18) 0.7815(7)
H44 H 0.5406 0.4208 0.7633
N24 N 0.6700(6) 1.0171(11) 0.9111(6)
C68 C 0.6913(7) 1.0031(17) 0.8775(8)
H45 H 0.7099 1.0478 0.8733
C69 C 0.6878(8) 0.9353(16) 0.8524(8)
H46 H 0.7040 0.9266 0.8310
C70 C 0.6566(8) 0.8694(12) 0.8582(7)
C71 C 0.6326(8) 0.883(2) 0.8872(9)
H47 H 0.6117 0.8429 0.8891
C72 C 0.6397(7) 0.9606(15) 0.9150(8)
H48 H 0.6234 0.9728 0.9361
Zn4B Zn 0.47448(10) 0.3979(2) 0.80581(11)
Zn5A Zn 0.68158(10) 1.12702(19) 0.95700(9)
N23B N 1.0207(6) -0.0125(14) 0.8055(6)
N24A N 0.6700(6) -0.0171(11) 0.4111(6)
C73 C 0.6491(6) 0.457(2) 0.5649(7)
H49 H 0.6685 0.4642 0.5470
C74 C 0.6054(7) 0.4938(14) 0.6062(9)
C75 C 0.5413(8) 0.4283(19) 0.6633(10)
H50 H 0.5213 0.4233 0.6804
C76 C 0.5575(9) 0.3484(16) 0.6505(11)
C77 C 0.6305(7) 0.5285(17) 0.5814(8)
H51 H 0.6345 0.5904 0.5763
C78 C 0.5859(10) 0.3379(17) 0.6241(11)
H52 H 0.5918 0.2764 0.6204
C79 C 0.6077(8) 0.3932(14) 0.6021(9)
C80 C 0.5873(11) 0.6397(16) 0.6263(13)
H53 H 0.6063 0.6519 0.6071
H54 H 0.5976 0.6627 0.6563
H55 H 0.5623 0.6695 0.6142
C81 C 0.5453(9) 0.2541(17) 0.6572(11)
H56 H 0.5216 0.2564 0.6714
C82 C 0.5808(8) 0.5410(14) 0.6284(9)
C83 C 0.5525(8) 0.5156(17) 0.6528(10)
H57 H 0.5389 0.5635 0.6639
C84 C 0.6364(8) 0.3737(17) 0.5773(9)
C85 C 0.5768(13) 0.204(2) 0.6878(13)
H58 H 0.5675 0.1430 0.6922
H59 H 0.5829 0.2351 0.7165
H60 H 0.6005 0.2009 0.6748
C86 C 0.5339(13) 0.207(3) 0.6138(12)
H61 H 0.5278 0.1442 0.6190
H62 H 0.5558 0.2099 0.5977
H63 H 0.5107 0.2364 0.5961
C87 C 0.6584(11) 0.2897(19) 0.5716(14)
H64 H 0.6453 0.2384 0.5825
H65 H 0.6855 0.2945 0.5885
H66 H 0.6589 0.2810 0.5400
loop_
_geom_bond_atom_site_label_1
_geom_bond_atom_site_label_2
_geom_bond_site_symmetry_1
_geom_bond_site_symmetry_2
Zn1 I1 1_555 1_555
I2 Zn1 1_555 1_555
N1 Zn1 1_555 1_555
C1 N1 1_555 1_555
H1 C1 1_555 1_555
C2 C1 1_555 1_555
H2 C2 1_555 1_555
C3 C2 1_555 1_555
C4 C3 1_555 1_555
H3 C4 1_555 1_555
C5 N1 1_555 1_555
H4 C5 1_555 1_555
C6 C3 1_555 1_555
N2 C6 1_555 1_555
C7 N2 1_555 1_555
N3 C7 1_555 1_555
C8 N3 1_555 1_555
N4 C6 1_555 1_555
N5 C9 1_555 1_555
C9 H5 1_555 1_555
C10 C9 1_555 1_555
H6 C10 1_555 1_555
C11 C7 1_555 1_555
C12 C11 1_555 1_555
H7 C12 1_555 1_555
C13 N5 1_555 1_555
H8 C13 1_555 1_555
N6 C14 1_555 1_555
C14 H9 1_555 1_555
C15 C14 1_555 1_555
H10 C15 1_555 1_555
C16 C8 1_555 1_555
C17 C16 1_555 1_555
H11 C17 1_555 1_555
C18 N6 1_555 1_555
H12 C18 1_555 1_555
Zn2 N5 1_555 1_555
I3 Zn2 1_555 1_555
I4 Zn2 1_555 1_555
N7 Zn2 1_555 1_555
C19 N7 1_555 1_555
H13 C19 1_555 1_555
C20 C19 1_555 1_555
H14 C20 1_555 1_555
C21 C20 1_555 1_555
C22 C21 1_555 1_555
H15 C22 1_555 1_555
C23 N7 1_555 1_555
H16 C23 1_555 1_555
C24 C21 1_555 1_555
N8 C24 1_555 1_555
C25 N8 1_555 1_555
N9 C25 1_555 1_555
N10 C24 1_555 1_555
N11 C26 1_555 1_555
C26 H17 1_555 1_555
C27 C26 1_555 1_555
H18 C27 1_555 1_555
C28 C25 1_555 1_555
C29 N9 1_555 1_555
C30 C28 1_555 1_555
H19 C30 1_555 1_555
C31 N11 1_555 1_555
H20 C31 1_555 1_555
C32 C29 1_555 1_555
C33 C32 1_555 1_555
H21 C33 1_555 1_555
C34 C32 1_555 1_555
H22 C34 1_555 1_555
N12 C35 1_555 1_555
C35 C33 1_555 1_555
H23 C35 1_555 1_555
C36 C34 1_555 1_555
H24 C36 1_555 1_555
Zn3 N11 1_555 1_555
I5 Zn3 1_555 1_555
I6 Zn3 1_555 1_555
Zn4 I7 1_555 1_555
I8 Zn4 1_555 1_555
N13 Zn4 1_555 1_555
C37 N13 1_555 1_555
H25 C37 1_555 1_555
C38 C37 1_555 1_555
H26 C38 1_555 1_555
C39 C38 1_555 1_555
C40 C39 1_555 1_555
H27 C40 1_555 1_555
C41 N13 1_555 1_555
H28 C41 1_555 1_555
C42 C39 1_555 1_555
N14 C42 1_555 1_555
C43 N14 1_555 1_555
N15 C43 1_555 1_555
C44 N15 1_555 1_555
N16 C42 1_555 1_555
N17 C45 1_555 1_555
C45 H29 1_555 1_555
C46 C45 1_555 1_555
H30 C46 1_555 1_555
C47 C43 1_555 1_555
C48 C47 1_555 1_555
H31 C48 1_555 1_555
C49 N17 1_555 1_555
H32 C49 1_555 1_555
N18 C50 1_555 1_555
C50 H33 1_555 1_555
C51 C50 1_555 1_555
H34 C51 1_555 1_555
C52 C44 1_555 1_555
C53 C52 1_555 1_555
H35 C53 1_555 1_555
C54 N18 1_555 1_555
H36 C54 1_555 1_555
Zn5 N17 1_555 1_555
I9 Zn5 1_555 1_555
I10 Zn5 1_555 1_555
Zn6 N18 1_555 1_555
I11 Zn6 1_555 1_555
I12 Zn6 1_555 1_555
N19 Zn6 1_555 1_555
C55 N19 1_555 1_555
H37 C55 1_555 1_555
C56 C55 1_555 1_555
H38 C56 1_555 1_555
C57 C56 1_555 1_555
C58 C57 1_555 1_555
H39 C58 1_555 1_555
C59 N19 1_555 1_555
H40 C59 1_555 1_555
C60 C57 1_555 1_555
N20 C60 1_555 1_555
C61 N20 1_555 1_555
N21 C61 1_555 1_555
C62 N21 1_555 1_555
N22 C60 1_555 1_555
N23 C63 1_555 1_555
C63 H41 1_555 1_555
C64 C63 1_555 1_555
H42 C64 1_555 1_555
C65 C61 1_555 1_555
C66 C65 1_555 1_555
H43 C66 1_555 1_555
C67 N23 1_555 1_555
H44 C67 1_555 1_555
N24 C68 1_555 1_555
C68 H45 1_555 1_555
C69 C68 1_555 1_555
H46 C69 1_555 1_555
C70 C62 1_555 1_555
C71 C70 1_555 1_555
H47 C71 1_555 1_555
C72 N24 1_555 1_555
H48 C72 1_555 1_555
C73 H49 1_555 1_555
C74 C77 1_555 1_555
C75 H50 1_555 1_555
C76 C75 1_555 1_555
C77 C73 1_555 1_555
H51 C77 1_555 1_555
C78 C76 1_555 1_555
H52 C78 1_555 1_555
C79 C74 1_555 1_555
C80 H53 1_555 1_555
H54 C80 1_555 1_555
H55 C80 1_555 1_555
C81 C76 1_555 1_555
H56 C81 1_555 1_555
C82 C74 1_555 1_555
C83 C75 1_555 1_555
H57 C83 1_555 1_555
C84 C73 1_555 1_555
C85 C81 1_555 1_555
H58 C85 1_555 1_555
H59 C85 1_555 1_555
H60 C85 1_555 1_555
C86 C81 1_555 1_555
H61 C86 1_555 1_555
H62 C86 1_555 1_555
H63 C86 1_555 1_555
C87 C84 1_555 1_555
H64 C87 1_555 1_555
H65 C87 1_555 1_555
H66 C87 1_555 1_555
Zn1A N12 1_555 1_555
N6B Zn3 1_555 1_555
N12A Zn1 1_555 1_555
Zn3B N6 1_555 1_555
Zn4B N23 1_555 1_555
Zn5A N24 1_555 1_555
N23B Zn4 1_555 1_555
N24A Zn5 1_555 1_555
C4 C5 1_555 1_555
C8 N4 1_555 1_555
C10 C11 1_555 1_555
C12 C13 1_555 1_555
C15 C16 1_555 1_555
C17 C18 1_555 1_555
C22 C23 1_555 1_555
N10 C29 1_555 1_555
C27 C28 1_555 1_555
C30 C31 1_555 1_555
N12 C36 1_555 1_555
C40 C41 1_555 1_555
C44 N16 1_555 1_555
C46 C47 1_555 1_555
C48 C49 1_555 1_555
C51 C52 1_555 1_555
C53 C54 1_555 1_555
C58 C59 1_555 1_555
C62 N22 1_555 1_555
C64 C65 1_555 1_555
C66 C67 1_555 1_555
C69 C70 1_555 1_555
C71 C72 1_555 1_555
C78 C79 1_555 1_555
C79 C84 1_555 1_555
C80 C82 1_555 1_555
C82 C83 1_555 1_555

#END
