
#######################################################################
#
#                 Cambridge Crystallographic Data Centre
#                                CCDC 
#
#######################################################################
#
# If this CIF has been generated from an entry in the Cambridge 
# Structural Database, then it will include bibliographic, chemical, 
# crystal, experimental, refinement or atomic coordinate data resulting 
# from the CCDC's data processing and validation procedures.
#
#######################################################################

data_REXHUX
_symmetry_cell_setting           orthorhombic
_symmetry_space_group_name_H-M   'P b c a'
_symmetry_Int_Tables_number      61
_space_group_name_Hall           '-P 2ac 2ab'
loop_
_symmetry_equiv_pos_site_id
_symmetry_equiv_pos_as_xyz
1 x,y,z
2 1/2-x,-y,1/2+z
3 1/2+x,1/2-y,-z
4 -x,1/2+y,1/2-z
5 -x,-y,-z
6 1/2+x,y,1/2-z
7 1/2-x,1/2+y,z
8 x,1/2-y,1/2+z
_cell_length_a                   9.860(3)
_cell_length_b                   6.648(2)
_cell_length_c                   24.229(8)
_cell_angle_alpha                90
_cell_angle_beta                 90
_cell_angle_gamma                90
_cell_volume                     1588.19
loop_
_atom_site_label
_atom_site_type_symbol
_atom_site_fract_x
_atom_site_fract_y
_atom_site_fract_z
Cd1 Cd 0.1364(1) 0.1359(1) 0.0392
N1 N 0.3075(7) -0.0486(9) 0.0748(3)
N2 N 0.3713(8) 0.0246(10) 0.1124(3)
N3 N 0.4322(9) 0.0909(13) 0.1476(3)
O1 O -0.0895(5) 0.1730(7) 0.0133(2)
O2 O 0.2064(5) 0.2304(8) -0.0452(2)
C1 C -0.1743(7) 0.2092(11) 0.0520(3)
N4 N -0.0017(6) 0.1072(8) 0.1181(2)
C2 C -0.1304(7) 0.1728(10) 0.1109(3)
C3 C -0.2187(8) 0.2033(12) 0.1546(3)
C4 C -0.1697(9) 0.1676(13) 0.2082(3)
C5 C -0.0392(8) 0.1021(13) 0.2154(3)
C6 C 0.0418(8) 0.0745(12) 0.1690(3)
H1 H -0.3216(8) 0.2529(12) 0.1476(3)
H2 H -0.2346(9) 0.1919(13) 0.2435(3)
H3 H -0.0003(8) 0.0724(13) 0.2562(3)
H4 H 0.1449(8) 0.0236(12) 0.1748(3)
Cd1F Cd 0.3636(1) -0.3641(1) 0.0392
Cd1D Cd -0.1364(1) -0.1359(1) -0.0392
O1D O 0.0895(5) -0.1730(7) -0.0133(2)
N1F N 0.1925(7) 0.4514(9) 0.0748(3)
Cd1B Cd -0.3636(1) 0.3641(1) -0.0392
O2B O -0.2936(5) 0.2696(8) 0.0452(2)
loop_
_geom_bond_atom_site_label_1
_geom_bond_atom_site_label_2
_geom_bond_site_symmetry_1
_geom_bond_site_symmetry_2
Cd1 N1 1_555 1_555
N1 N2 1_555 1_555
N2 N3 1_555 1_555
O1 Cd1 1_555 1_555
O2 Cd1 1_555 1_555
C1 O1 1_555 1_555
N4 Cd1 1_555 1_555
C2 C1 1_555 1_555
C3 C2 1_555 1_555
C4 C3 1_555 1_555
C5 C4 1_555 1_555
C6 N4 1_555 1_555
H1 C3 1_555 1_555
H2 C4 1_555 1_555
H3 C5 1_555 1_555
H4 C6 1_555 1_555
Cd1F N1 1_555 1_555
Cd1D O1 1_555 1_555
O1D Cd1 1_555 1_555
N1F Cd1 1_555 1_555
Cd1B O2B 1_555 1_555
O2B C1 1_555 1_555
N4 C2 1_555 1_555
C5 C6 1_555 1_555
Cd1D O1D 1_555 1_555

#END
