
#######################################################################
#
#                 Cambridge Crystallographic Data Centre
#                                CCDC 
#
#######################################################################
#
# If this CIF has been generated from an entry in the Cambridge 
# Structural Database, then it will include bibliographic, chemical, 
# crystal, experimental, refinement or atomic coordinate data resulting 
# from the CCDC's data processing and validation procedures.
#
#######################################################################

data_REXVUL
_symmetry_cell_setting           orthorhombic
_symmetry_space_group_name_H-M   'P 21 21 21'
_symmetry_Int_Tables_number      19
_space_group_name_Hall           'P 2ac 2ab'
loop_
_symmetry_equiv_pos_site_id
_symmetry_equiv_pos_as_xyz
1 x,y,z
2 1/2-x,-y,1/2+z
3 1/2+x,1/2-y,-z
4 -x,1/2+y,1/2-z
_cell_length_a                   4.429(2)
_cell_length_b                   15.751(5)
_cell_length_c                   19.119(9)
_cell_angle_alpha                90
_cell_angle_beta                 90
_cell_angle_gamma                90
_cell_volume                     1333.76
loop_
_atom_site_label
_atom_site_type_symbol
_atom_site_fract_x
_atom_site_fract_y
_atom_site_fract_z
Li1 Li 0.0895(61) 0.4607(11) 0.0698(8)
Li2 Li -0.4344(55) 0.6666(10) 0.0145(9)
I1 I -0.4209(2) 0.4991(1) -0.0184(1)
I2 I -0.9289(2) 0.7101(1) 0.0933(1)
N1 N -0.0508(26) 0.3446(5) 0.1039(4)
C1 C -0.2251(30) 0.2901(7) 0.0713(6)
C2 C -0.2966(27) 0.2105(7) 0.0958(6)
C3 C -0.1857(32) 0.1873(8) 0.1598(6)
C4 C -0.0066(28) 0.2432(7) 0.1960(5)
C5 C 0.0590(32) 0.3220(6) 0.1668(5)
N2 N 0.2967(23) 0.4579(6) 0.1672(4)
C6 C 0.4775(30) 0.5162(7) 0.1955(6)
C7 C 0.6074(34) 0.5079(8) 0.2600(6)
C8 C 0.5579(39) 0.4331(8) 0.2947(6)
C9 C 0.3846(39) 0.3712(7) 0.2657(5)
C10 C 0.2542(29) 0.3857(7) 0.2017(5)
Li1_2 Li -0.9105(61) 0.4607(11) 0.0698(8)
Li2_2 Li -1.4344(55) 0.6666(10) 0.0145(9)
Li2B Li -0.9344(55) 0.8334(10) -0.0145(9)
I2_2 I 0.0711(2) 0.7101(1) 0.0933(1)
I2B I -0.4289(2) 0.7899(1) -0.0933(1)
I1_2 I 0.5791(2) 0.4991(1) -0.0184(1)
loop_
_geom_bond_atom_site_label_1
_geom_bond_atom_site_label_2
_geom_bond_site_symmetry_1
_geom_bond_site_symmetry_2
Li1 I1 1_555 1_555
Li2 I1 1_555 1_555
I1 Li1_2 1_555 1_555
I2 Li2 1_555 1_555
N1 Li1 1_555 1_555
C1 N1 1_555 1_555
C2 C1 1_555 1_555
C3 C2 1_555 1_555
C4 C3 1_555 1_555
C5 N1 1_555 1_555
N2 Li1 1_555 1_555
C6 N2 1_555 1_555
C7 C6 1_555 1_555
C8 C7 1_555 1_555
C9 C8 1_555 1_555
C10 C5 1_555 1_555
Li2_2 I2 1_555 1_555
Li2B I2 1_555 1_555
I2_2 Li2 1_555 1_555
I2B Li2 1_555 1_555
I1_2 Li1 1_555 1_555
C4 C5 1_555 1_555
N2 C10 1_555 1_555
C9 C10 1_555 1_555
Li2B I2B 1_555 1_555

#END
