
#######################################################################
#
#                 Cambridge Crystallographic Data Centre
#                                CCDC 
#
#######################################################################
#
# If this CIF has been generated from an entry in the Cambridge 
# Structural Database, then it will include bibliographic, chemical, 
# crystal, experimental, refinement or atomic coordinate data resulting 
# from the CCDC's data processing and validation procedures.
#
#######################################################################

data_REXVIB
_symmetry_cell_setting           triclinic
_symmetry_space_group_name_H-M   'P -1'
_symmetry_Int_Tables_number      2
_space_group_name_Hall           '-P 1'
loop_
_symmetry_equiv_pos_site_id
_symmetry_equiv_pos_as_xyz
1 x,y,z
2 -x,-y,-z
_cell_length_a                   10.1726(6)
_cell_length_b                   11.8494(7)
_cell_length_c                   13.6326(8)
_cell_angle_alpha                68.340(6)
_cell_angle_beta                 70.388(6)
_cell_angle_gamma                68.920(5)
_cell_volume                     1385.48
loop_
_atom_site_label
_atom_site_type_symbol
_atom_site_fract_x
_atom_site_fract_y
_atom_site_fract_z
Cd1 Cd 0.41187(3) 0.68683(3) 0.57534(2)
Br1 Br -0.13769(6) 0.56068(7) 0.83532(5)
Br2 Br 0.46321(11) 0.80179(6) 0.89077(6)
Br3 Br 0.49052(8) 0.13981(7) 0.83501(5)
O1 O 0.3378(4) 0.6387(3) 0.7663(3)
O2 O 0.4188(4) 0.3133(3) 0.5791(3)
O3 O 0.5691(4) 0.6211(4) 0.6988(3)
N1 N -0.3342(5) 1.1112(4) 0.4138(3)
O4 O 0.4684(4) 0.4551(3) 0.6227(3)
O5 O -0.1328(5) 0.4101(4) 1.0647(3)
H1 H -0.1971 0.3926 1.1185
N2 N 0.2138(4) 0.7032(4) 0.5226(3)
N3 N 0.2332(5) 0.6376(4) 0.4536(4)
H2 H 0.3160 0.5937 0.4258
C1 C 0.4830(6) 0.6263(4) 0.9529(4)
C2 C -0.3106(5) 0.9992(5) 0.4891(4)
N4 N -0.2568(5) 1.0851(4) 0.3186(4)
H3 H -0.2534 1.1408 0.2564
C3 C 0.4661(5) 0.6090(4) 0.7761(4)
C4 C 0.2849(5) 0.3599(5) 0.7432(4)
C5 C 0.4856(5) 0.5539(5) 0.8920(4)
C6 C -0.2166(5) 0.9038(4) 0.4423(4)
C7 C 0.1505(5) 0.4474(5) 0.7479(4)
H4 H 0.1337 0.5156 0.6874
C8 C 0.0001(5) 0.7253(4) 0.4925(4)
C9 C 0.0395(6) 0.4347(5) 0.8423(4)
C10 C 0.4001(5) 0.3780(4) 0.6392(4)
C11 C 0.5035(6) 0.4264(5) 0.9407(4)
H5 H 0.5065 0.3753 0.9017
C12 C 0.0716(5) 0.7578(4) 0.5470(4)
C13 C -0.1856(6) 0.9619(5) 0.3323(4)
C14 C 0.1079(6) 0.6494(5) 0.4338(4)
C15 C 0.0620(6) 0.3324(5) 0.9329(4)
C16 C -0.1600(5) 0.7660(4) 0.4984(4)
H6 H -0.2117 0.7487 0.5741
H7 H -0.1805 0.7157 0.4659
C17 C 0.0078(6) 0.8373(6) 0.6233(5)
H8 H 0.0662 0.8088 0.6749
H9 H -0.0888 0.8305 0.6610
H10 H 0.0047 0.9236 0.5833
C18 C -0.3846(7) 0.9916(5) 0.6053(5)
H11 H -0.4043 0.9109 0.6415
H12 H -0.3231 1.0020 0.6397
H13 H -0.4740 1.0570 0.6095
C19 C 0.1959(7) 0.2450(5) 0.9282(4)
H14 H 0.2124 0.1761 0.9882
C20 C 0.3065(6) 0.2589(5) 0.8345(4)
O6 O -0.0560(8) 0.2043(5) 1.0924(4)
C21 C -0.0502(7) 0.3080(6) 1.0385(4)
C22 C 0.1031(7) 0.5857(6) 0.3590(6)
H15 H 0.1311 0.6339 0.2852
H16 H 0.0065 0.5796 0.3733
H17 H 0.1687 0.5027 0.3707
C23 C -0.0934(8) 0.9126(6) 0.2377(5)
H18 H 0.0069 0.8930 0.2371
H19 H -0.1156 0.8378 0.2436
H20 H -0.1125 0.9754 0.1716
Br2A Br 0.53679(11) 0.19821(6) 1.10923(6)
O1A O 0.6622(4) 0.3613(3) 1.2337(3)
O3A O 0.4309(4) 0.3789(4) 1.3012(3)
C1A C 0.5170(6) 0.3737(4) 1.0471(4)
C3A C 0.5339(5) 0.3910(4) 1.2239(4)
C5A C 0.5144(5) 0.4461(5) 1.1080(4)
C11A C 0.4965(6) 0.5736(5) 1.0593(4)
H5A H 0.4935 0.6247 1.0983
Cd1A Cd -0.41187(3) 1.31317(3) 0.42466(2)
Br1A Br 0.13769(6) 1.43932(7) 0.16468(5)
Br3A Br -0.49052(8) 1.86019(7) 0.16499(5)
O2A O -0.4188(4) 1.6867(3) 0.4209(3)
N1A N 0.3342(5) 0.8888(4) 0.5862(3)
O4A O -0.4684(4) 1.5449(3) 0.3773(3)
O5A O 0.1328(5) 1.5899(4) -0.0647(3)
H1A H 0.1971 1.6074 -0.1185
N2A N -0.2138(4) 1.2968(4) 0.4774(3)
N3A N -0.2332(5) 1.3624(4) 0.5464(4)
H2A H -0.3160 1.4063 0.5742
C2A C 0.3106(5) 1.0008(5) 0.5109(4)
N4A N 0.2568(5) 0.9149(4) 0.6814(4)
H3A H 0.2534 0.8592 0.7436
C4A C -0.2849(5) 1.6401(5) 0.2568(4)
C6A C 0.2166(5) 1.0962(4) 0.5577(4)
C7A C -0.1505(5) 1.5526(5) 0.2521(4)
H4A H -0.1337 1.4844 0.3126
C8A C -0.0001(5) 1.2747(4) 0.5075(4)
C9A C -0.0395(6) 1.5653(5) 0.1577(4)
C10A C -0.4001(5) 1.6220(4) 0.3608(4)
C12A C -0.0716(5) 1.2422(4) 0.4530(4)
C13A C 0.1856(6) 1.0381(5) 0.6677(4)
C14A C -0.1079(6) 1.3506(5) 0.5662(4)
C15A C -0.0620(6) 1.6676(5) 0.0671(4)
C16A C 0.1600(5) 1.2340(4) 0.5016(4)
H6A H 0.2117 1.2513 0.4259
H7A H 0.1805 1.2843 0.5341
C17A C -0.0078(6) 1.1627(6) 0.3767(5)
H8A H -0.0662 1.1912 0.3251
H9A H 0.0888 1.1695 0.3390
H10A H -0.0047 1.0764 0.4167
C18A C 0.3846(7) 1.0084(5) 0.3947(5)
H11A H 0.4043 1.0891 0.3585
H12A H 0.3231 0.9980 0.3603
H13A H 0.4740 0.9430 0.3905
C19A C -0.1959(7) 1.7550(5) 0.0718(4)
H14A H -0.2124 1.8239 0.0118
C20A C -0.3065(6) 1.7411(5) 0.1655(4)
O6A O 0.0560(8) 1.7957(5) -0.0924(4)
C21A C 0.0502(7) 1.6920(6) -0.0385(4)
C22A C -0.1031(7) 1.4143(6) 0.6410(6)
H15A H -0.1311 1.3661 0.7148
H16A H -0.0065 1.4204 0.6267
H17A H -0.1687 1.4973 0.6293
C23A C 0.0934(8) 1.0874(6) 0.7623(5)
H18A H -0.0069 1.1070 0.7629
H19A H 0.1156 1.1622 0.7564
H20A H 0.1125 1.0246 0.8284
Cd1_2 Cd -0.58813(3) 1.68683(3) 0.57534(2)
Cd1A_2 Cd 0.58813(3) 0.31317(3) 0.42466(2)
Cd1A_3 Cd 0.58813(3) 0.31317(3) 1.42466(2)
O1A_2 O -0.3378(4) 1.3613(3) 0.2337(3)
O2_2 O -0.5812(4) 1.3133(3) 0.5791(3)
O2A_2 O 0.5812(4) 0.6867(3) 0.4209(3)
O3A_2 O -0.5691(4) 1.3789(4) 0.3012(3)
loop_
_geom_bond_atom_site_label_1
_geom_bond_atom_site_label_2
_geom_bond_site_symmetry_1
_geom_bond_site_symmetry_2
Cd1 O1 1_555 1_555
Br1 C9 1_555 1_555
Br2 C1 1_555 1_555
Br3 C20 1_555 1_555
O1 C3 1_555 1_555
O2 C10 1_555 1_555
O3 Cd1 1_555 1_555
N1 C2 1_555 1_555
O4 Cd1 1_555 1_555
O5 H1 1_555 1_555
N2 Cd1 1_555 1_555
N3 N2 1_555 1_555
H2 N3 1_555 1_555
C1 C5 1_555 1_555
C2 C6 1_555 1_555
N4 N1 1_555 1_555
H3 N4 1_555 1_555
C3 O3 1_555 1_555
C4 C7 1_555 1_555
C5 C3 1_555 1_555
C6 C13 1_555 1_555
C7 H4 1_555 1_555
C8 C12 1_555 1_555
C9 C7 1_555 1_555
C10 O4 1_555 1_555
C11 C5 1_555 1_555
H5 C11 1_555 1_555
C12 N2 1_555 1_555
C13 N4 1_555 1_555
C14 N3 1_555 1_555
C15 C9 1_555 1_555
C16 C6 1_555 1_555
H6 C16 1_555 1_555
H7 C16 1_555 1_555
C17 C12 1_555 1_555
H8 C17 1_555 1_555
H9 C17 1_555 1_555
H10 C17 1_555 1_555
C18 C2 1_555 1_555
H11 C18 1_555 1_555
H12 C18 1_555 1_555
H13 C18 1_555 1_555
C19 C15 1_555 1_555
H14 C19 1_555 1_555
C20 C4 1_555 1_555
O6 C21 1_555 1_555
C21 O5 1_555 1_555
C22 C14 1_555 1_555
H15 C22 1_555 1_555
H16 C22 1_555 1_555
H17 C22 1_555 1_555
C23 C13 1_555 1_555
H18 C23 1_555 1_555
H19 C23 1_555 1_555
H20 C23 1_555 1_555
Br2A C1A 1_555 1_555
O1A C3A 1_555 1_555
O3A C3A 1_555 1_555
C1A C11 1_555 1_555
C3A C5A 1_555 1_555
C5A C1A 1_555 1_555
C11A C1 1_555 1_555
H5A C11A 1_555 1_555
Cd1A N1 1_555 1_555
Br1A C9A 1_555 1_555
Br3A C20A 1_555 1_555
O2A C10A 1_555 1_555
N1A Cd1 1_555 1_555
O4A Cd1A 1_555 1_555
O5A H1A 1_555 1_555
N2A Cd1A 1_555 1_555
N3A N2A 1_555 1_555
H2A N3A 1_555 1_555
C2A N1A 1_555 1_555
N4A N1A 1_555 1_555
H3A N4A 1_555 1_555
C4A C7A 1_555 1_555
C6A C2A 1_555 1_555
C7A H4A 1_555 1_555
C8A C12A 1_555 1_555
C9A C7A 1_555 1_555
C10A O4A 1_555 1_555
C12A N2A 1_555 1_555
C13A N4A 1_555 1_555
C14A N3A 1_555 1_555
C15A C9A 1_555 1_555
C16A C6A 1_555 1_555
H6A C16A 1_555 1_555
H7A C16A 1_555 1_555
C17A C12A 1_555 1_555
H8A C17A 1_555 1_555
H9A C17A 1_555 1_555
H10A C17A 1_555 1_555
C18A C2A 1_555 1_555
H11A C18A 1_555 1_555
H12A C18A 1_555 1_555
H13A C18A 1_555 1_555
C19A C15A 1_555 1_555
H14A C19A 1_555 1_555
C20A C4A 1_555 1_555
O6A C21A 1_555 1_555
C21A O5A 1_555 1_555
C22A C14A 1_555 1_555
H15A C22A 1_555 1_555
H16A C22A 1_555 1_555
H17A C22A 1_555 1_555
C23A C13A 1_555 1_555
H18A C23A 1_555 1_555
H19A C23A 1_555 1_555
H20A C23A 1_555 1_555
Cd1_2 O2A 1_555 1_555
Cd1A_2 O2 1_555 1_555
Cd1A_3 O1A 1_555 1_555
O1A_2 Cd1A 1_555 1_555
O2_2 Cd1A 1_555 1_555
O2A_2 Cd1 1_555 1_555
O3A_2 Cd1A 1_555 1_555
C4 C10 1_555 1_555
C8 C14 1_555 1_555
C8 C16 1_555 1_555
C15 C21 1_555 1_555
C19 C20 1_555 1_555
O3A Cd1A_3 1_555 1_555
C5A C11A 1_555 1_555
C4A C10A 1_555 1_555
C6A C13A 1_555 1_555
C8A C14A 1_555 1_555
C8A C16A 1_555 1_555
C15A C21A 1_555 1_555
C19A C20A 1_555 1_555

#END
