
#######################################################################
#
#                 Cambridge Crystallographic Data Centre
#                                CCDC 
#
#######################################################################
#
# If this CIF has been generated from an entry in the Cambridge 
# Structural Database, then it will include bibliographic, chemical, 
# crystal, experimental, refinement or atomic coordinate data resulting 
# from the CCDC's data processing and validation procedures.
#
#######################################################################

data_REXZOJ
_symmetry_cell_setting           monoclinic
_symmetry_space_group_name_H-M   'P 21/n'
_symmetry_Int_Tables_number      14
_space_group_name_Hall           '-P 2yn'
loop_
_symmetry_equiv_pos_site_id
_symmetry_equiv_pos_as_xyz
1 x,y,z
2 1/2-x,1/2+y,1/2-z
3 -x,-y,-z
4 1/2+x,1/2-y,1/2+z
_cell_length_a                   3.9187(6)
_cell_length_b                   8.507(2)
_cell_length_c                   17.221(4)
_cell_angle_alpha                90
_cell_angle_beta                 94.06(2)
_cell_angle_gamma                90
_cell_volume                     572.645
loop_
_atom_site_label
_atom_site_type_symbol
_atom_site_fract_x
_atom_site_fract_y
_atom_site_fract_z
Cd1 Cd -1.50000 0.00000 0.00000
Br1 Br -0.99090(12) 0.22516(6) 0.02321(3)
N1 N -1.4374(12) -0.05656(59) 0.13264(22)
N2 N -1.2013(13) 0.06763(52) 0.25291(26)
N3 N -0.9048(15) -0.15307(60) 0.30256(30)
H1 H -0.786(18) -0.1925(84) 0.3416(41)
H2 H -1.003(23) -0.203(10) 0.2685(50)
N4 N -0.8922(16) 0.07791(68) 0.36899(31)
H3 H -0.763(17) 0.0473(85) 0.4018(40)
H4 H -0.905(24) 0.183(12) 0.3653(52)
C1 C -1.3120(14) -0.00663(58) 0.18998(28)
C2 C -1.0004(14) -0.00641(61) 0.30787(27)
Cd1_2 Cd -0.50000 0.00000 0.00000
Br1B Br -1.00910(12) -0.22516(6) -0.02321(3)
Br1B_2 Br -2.00910(12) -0.22516(6) -0.02321(3)
Br1_2 Br -1.99090(12) 0.22516(6) 0.02321(3)
N1B N -1.5626(12) 0.05656(59) -0.13264(22)
C1B C -1.6880(14) 0.00663(58) -0.18998(28)
N2B N -1.7987(13) -0.06763(52) -0.25291(26)
C2B C -1.9996(14) 0.00641(61) -0.30787(27)
N3B N -2.0952(15) 0.15307(60) -0.30256(30)
H1B H -2.214(18) 0.1925(84) -0.3416(41)
H2B H -1.997(23) 0.203(10) -0.2685(50)
N4B N -2.1078(16) -0.07791(68) -0.36899(31)
H3B H -2.237(17) -0.0473(85) -0.4018(40)
H4B H -2.095(24) -0.183(12) -0.3653(52)
loop_
_geom_bond_atom_site_label_1
_geom_bond_atom_site_label_2
_geom_bond_site_symmetry_1
_geom_bond_site_symmetry_2
Cd1 Br1 1_555 1_555
Br1 Cd1_2 1_555 1_555
N1 Cd1 1_555 1_555
N2 C1 1_555 1_555
N3 H1 1_555 1_555
H2 N3 1_555 1_555
N4 H3 1_555 1_555
H4 N4 1_555 1_555
C1 N1 1_555 1_555
C2 N2 1_555 1_555
Cd1_2 Br1B 1_555 1_555
Br1B Cd1 1_555 1_555
Br1B_2 Cd1 1_555 1_555
Br1_2 Cd1 1_555 1_555
N1B Cd1 1_555 1_555
C1B N1B 1_555 1_555
N2B C1B 1_555 1_555
C2B N2B 1_555 1_555
N3B C2B 1_555 1_555
H1B N3B 1_555 1_555
H2B N3B 1_555 1_555
N4B C2B 1_555 1_555
H3B N4B 1_555 1_555
H4B N4B 1_555 1_555
N3 C2 1_555 1_555
N4 C2 1_555 1_555

#END
