
#######################################################################
#
#                 Cambridge Crystallographic Data Centre
#                                CCDC 
#
#######################################################################
#
# If this CIF has been generated from an entry in the Cambridge 
# Structural Database, then it will include bibliographic, chemical, 
# crystal, experimental, refinement or atomic coordinate data resulting 
# from the CCDC's data processing and validation procedures.
#
#######################################################################

data_REYBEE
_symmetry_cell_setting           monoclinic
_symmetry_space_group_name_H-M   'P 21/n'
_symmetry_Int_Tables_number      14
_space_group_name_Hall           '-P 2yn'
loop_
_symmetry_equiv_pos_site_id
_symmetry_equiv_pos_as_xyz
1 x,y,z
2 1/2-x,1/2+y,1/2-z
3 -x,-y,-z
4 1/2+x,1/2-y,1/2+z
_cell_length_a                   8.695(5)
_cell_length_b                   16.594(9)
_cell_length_c                   17.034(9)
_cell_angle_alpha                90
_cell_angle_beta                 100.459(7)
_cell_angle_gamma                90
_cell_volume                     2416.91
loop_
_atom_site_label
_atom_site_type_symbol
_atom_site_fract_x
_atom_site_fract_y
_atom_site_fract_z
C1 C -0.0957(8) 0.3667(4) 0.7055(4)
C2 C -0.2227(7) 0.3442(4) 0.6362(3)
C3 C -0.1985(7) 0.2885(4) 0.5812(3)
H1 H -0.1027 0.2622 0.5870
C4 C -0.3126(7) 0.2709(4) 0.5177(3)
C5 C -0.2824(8) 0.2112(4) 0.4532(4)
C6 C -0.4550(7) 0.3102(4) 0.5082(4)
H2 H -0.5322 0.2987 0.4643
C7 C -0.4831(7) 0.3664(4) 0.5636(4)
C8 C -0.3660(7) 0.3828(4) 0.6272(4)
H3 H -0.3833 0.4206 0.6649
C9 C -0.7348(7) 0.3993(5) 0.4893(4)
H4 H -0.7675 0.3435 0.4830
H5 H -0.6913 0.4149 0.4430
C10 C -0.8720(7) 0.4515(4) 0.4956(3)
C11 C -1.0198(8) 0.4199(4) 0.4777(4)
H6 H -1.0347 0.3662 0.4623
C12 C -0.8521(7) 0.5307(5) 0.5173(4)
H7 H -0.7516 0.5521 0.5289
C13 C 0.2898(9) 0.4867(5) 0.7315(4)
H8 H 0.2150 0.4681 0.6893
C14 C 0.3877(8) 0.5472(5) 0.7171(4)
H9 H 0.3778 0.5691 0.6662
C15 C 0.5008(7) 0.5760(4) 0.7779(4)
C16 C 0.5013(9) 0.5447(5) 0.8530(4)
H10 H 0.5694 0.5651 0.8970
C17 C 0.4003(8) 0.4834(5) 0.8621(4)
H11 H 0.4050 0.4618 0.9129
C18 C 0.6177(9) 0.6381(5) 0.7619(5)
H12 H 0.5966 0.6513 0.7055
H13 H 0.6030 0.6868 0.7911
C19 C 0.7805(9) 0.6128(6) 0.7839(7)
H14 H 0.7929 0.5623 0.7571
H15 H 0.8023 0.6024 0.8409
C20 C 0.8995(9) 0.6702(5) 0.7652(5)
C21 C 0.8707(9) 0.7262(6) 0.7036(5)
H16 H 0.7712 0.7301 0.6726
C22 C 0.9893(9) 0.7762(6) 0.6879(5)
H17 H 0.9648 0.8146 0.6479
C23 C 1.1615(9) 0.7230(6) 0.7918(6)
H18 H 1.2595 0.7239 0.8246
C24 C 1.0490(10) 0.6723(6) 0.8105(6)
H19 H 1.0735 0.6385 0.8546
N1 N 0.2963(6) 0.4530(3) 0.8029(3)
N2 N 1.1342(6) 0.7723(4) 0.7265(3)
O1 O 0.0345(5) 0.3292(3) 0.7080(2)
O2 O -0.1213(6) 0.4155(3) 0.7574(3)
O3 O -0.3836(5) 0.2098(3) 0.3897(2)
O4 O -0.1613(6) 0.1721(3) 0.4643(3)
O5 O -0.6209(5) 0.4081(3) 0.5590(2)
Zn1 Zn 0.19081(7) 0.34437(4) 0.80268(4)
C1B C -1.9043(8) 0.6333(4) 0.2945(4)
C2B C -1.7773(7) 0.6558(4) 0.3638(3)
C3B C -1.8015(7) 0.7115(4) 0.4188(3)
H1B H -1.8973 0.7378 0.4130
C4B C -1.6874(7) 0.7291(4) 0.4823(3)
C5B C -1.7176(8) 0.7888(4) 0.5468(4)
C6B C -1.5450(7) 0.6898(4) 0.4918(4)
H2B H -1.4678 0.7013 0.5357
C7B C -1.5169(7) 0.6336(4) 0.4364(4)
C8B C -1.6340(7) 0.6172(4) 0.3728(4)
H3B H -1.6167 0.5794 0.3351
C9B C -1.2652(7) 0.6007(5) 0.5107(4)
H4B H -1.2325 0.6565 0.5170
H5B H -1.3087 0.5851 0.5570
C10B C -1.1280(7) 0.5485(4) 0.5044(3)
C11B C -0.9802(8) 0.5801(4) 0.5223(4)
H6B H -0.9653 0.6338 0.5377
C12B C -1.1479(7) 0.4693(5) 0.4827(4)
H7B H -1.2484 0.4479 0.4711
O1B O -2.0345(5) 0.6708(3) 0.2920(2)
O2B O -1.8787(6) 0.5845(3) 0.2426(3)
O3B O -1.6164(5) 0.7902(3) 0.6103(2)
O4B O -1.8387(6) 0.8279(3) 0.5357(3)
O5B O -1.3791(5) 0.5919(3) 0.4410(2)
C13B C -2.2898(9) 0.5133(5) 0.2685(4)
H8B H -2.2150 0.5319 0.3107
C14B C -2.3877(8) 0.4528(5) 0.2829(4)
H9B H -2.3778 0.4309 0.3338
C15B C -2.5008(7) 0.4240(4) 0.2221(4)
C16B C -2.5013(9) 0.4553(5) 0.1470(4)
H10B H -2.5694 0.4349 0.1030
C17B C -2.4003(8) 0.5166(5) 0.1379(4)
H11B H -2.4050 0.5382 0.0871
C18B C -2.6177(9) 0.3619(5) 0.2381(5)
H12B H -2.5966 0.3487 0.2945
H13B H -2.6030 0.3132 0.2089
C19B C -2.7805(9) 0.3872(6) 0.2161(7)
H14B H -2.7929 0.4377 0.2429
H15B H -2.8023 0.3976 0.1591
C20B C -2.8995(9) 0.3298(5) 0.2348(5)
C21B C -2.8707(9) 0.2738(6) 0.2964(5)
H16B H -2.7712 0.2699 0.3274
C22B C -2.9893(9) 0.2238(6) 0.3121(5)
H17B H -2.9648 0.1854 0.3521
C23B C -3.1615(9) 0.2770(6) 0.2082(6)
H18B H -3.2595 0.2761 0.1754
C24B C -3.0490(10) 0.3277(6) 0.1895(6)
H19B H -3.0735 0.3615 0.1454
N1B N -2.2963(6) 0.5470(3) 0.1971(3)
N2B N -3.1342(6) 0.2277(4) 0.2735(3)
Zn1B Zn -2.19081(7) 0.65563(4) 0.19732(4)
N2A N 0.3658(6) 0.2723(4) 0.7735(3)
N2C N -2.3658(6) 0.7277(4) 0.2265(3)
O3A O -2.1164(5) 0.7098(3) 0.1103(2)
O3C O 0.1164(5) 0.2902(3) 0.8897(2)
Zn1A Zn -1.69081(7) 0.84437(4) 0.69732(4)
Zn1A_2 Zn 1.30919(7) 0.84437(4) 0.69732(4)
Zn1C Zn -3.30919(7) 0.15563(4) 0.30268(4)
Zn1C_2 Zn -0.30919(7) 0.15563(4) 0.30268(4)
O6 O 0.8359(10) 0.8125(7) 0.4808(5)
O7 O 0.8310(12) 0.3971(7) 0.9180(7)
loop_
_geom_bond_atom_site_label_1
_geom_bond_atom_site_label_2
_geom_bond_site_symmetry_1
_geom_bond_site_symmetry_2
C1 C2 1_555 1_555
C2 C3 1_555 1_555
C3 H1 1_555 1_555
C4 C3 1_555 1_555
C5 C4 1_555 1_555
C6 C4 1_555 1_555
H2 C6 1_555 1_555
C7 C6 1_555 1_555
C8 C2 1_555 1_555
H3 C8 1_555 1_555
C9 H4 1_555 1_555
H5 C9 1_555 1_555
C10 C9 1_555 1_555
C11 C10 1_555 1_555
H6 C11 1_555 1_555
C12 C10 1_555 1_555
H7 C12 1_555 1_555
C13 H8 1_555 1_555
C14 C13 1_555 1_555
H9 C14 1_555 1_555
C15 C14 1_555 1_555
C16 C15 1_555 1_555
H10 C16 1_555 1_555
C17 C16 1_555 1_555
H11 C17 1_555 1_555
C18 C15 1_555 1_555
H12 C18 1_555 1_555
H13 C18 1_555 1_555
C19 C18 1_555 1_555
H14 C19 1_555 1_555
H15 C19 1_555 1_555
C20 C19 1_555 1_555
C21 C20 1_555 1_555
H16 C21 1_555 1_555
C22 C21 1_555 1_555
H17 C22 1_555 1_555
C23 H18 1_555 1_555
C24 C20 1_555 1_555
H19 C24 1_555 1_555
N1 C13 1_555 1_555
N2 C22 1_555 1_555
O1 C1 1_555 1_555
O2 C1 1_555 1_555
O3 C5 1_555 1_555
O4 C5 1_555 1_555
O5 C7 1_555 1_555
Zn1 N1 1_555 1_555
C1B C2B 1_555 1_555
C2B C3B 1_555 1_555
C3B H1B 1_555 1_555
C4B C3B 1_555 1_555
C5B C4B 1_555 1_555
C6B C4B 1_555 1_555
H2B C6B 1_555 1_555
C7B C6B 1_555 1_555
C8B C2B 1_555 1_555
H3B C8B 1_555 1_555
C9B H4B 1_555 1_555
H5B C9B 1_555 1_555
C10B C9B 1_555 1_555
C11B C12 1_555 1_555
H6B C11B 1_555 1_555
C12B C11 1_555 1_555
H7B C12B 1_555 1_555
O1B C1B 1_555 1_555
O2B C1B 1_555 1_555
O3B C5B 1_555 1_555
O4B C5B 1_555 1_555
O5B C7B 1_555 1_555
C13B H8B 1_555 1_555
C14B C13B 1_555 1_555
H9B C14B 1_555 1_555
C15B C14B 1_555 1_555
C16B C15B 1_555 1_555
H10B C16B 1_555 1_555
C17B C16B 1_555 1_555
H11B C17B 1_555 1_555
C18B C15B 1_555 1_555
H12B C18B 1_555 1_555
H13B C18B 1_555 1_555
C19B C18B 1_555 1_555
H14B C19B 1_555 1_555
H15B C19B 1_555 1_555
C20B C19B 1_555 1_555
C21B C20B 1_555 1_555
H16B C21B 1_555 1_555
C22B C21B 1_555 1_555
H17B C22B 1_555 1_555
C23B H18B 1_555 1_555
C24B C20B 1_555 1_555
H19B C24B 1_555 1_555
N1B C13B 1_555 1_555
N2B C22B 1_555 1_555
Zn1B O1B 1_555 1_555
N2A Zn1 1_555 1_555
N2C Zn1B 1_555 1_555
O3A Zn1B 1_555 1_555
O3C Zn1 1_555 1_555
Zn1A O3B 1_555 1_555
Zn1A_2 N2 1_555 1_555
Zn1C N2B 1_555 1_555
Zn1C_2 O3 1_555 1_555
C7 C8 1_555 1_555
C9 O5 1_555 1_555
C17 N1 1_555 1_555
C23 C24 1_555 1_555
C23 N2 1_555 1_555
O1 Zn1 1_555 1_555
C7B C8B 1_555 1_555
C9B O5B 1_555 1_555
C10B C11B 1_555 1_555
C10B C12B 1_555 1_555
C17B N1B 1_555 1_555
C23B C24B 1_555 1_555
C23B N2B 1_555 1_555
N1B Zn1B 1_555 1_555

#END
