
#######################################################################
#
#                 Cambridge Crystallographic Data Centre
#                                CCDC 
#
#######################################################################
#
# If this CIF has been generated from an entry in the Cambridge 
# Structural Database, then it will include bibliographic, chemical, 
# crystal, experimental, refinement or atomic coordinate data resulting 
# from the CCDC's data processing and validation procedures.
#
#######################################################################

data_REYBOO
_symmetry_cell_setting           triclinic
_symmetry_space_group_name_H-M   'P -1'
_symmetry_Int_Tables_number      2
_space_group_name_Hall           '-P 1'
loop_
_symmetry_equiv_pos_site_id
_symmetry_equiv_pos_as_xyz
1 x,y,z
2 -x,-y,-z
_cell_length_a                   8.792(9)
_cell_length_b                   15.468(16)
_cell_length_c                   15.983(17)
_cell_angle_alpha                104.543(16)
_cell_angle_beta                 93.056(14)
_cell_angle_gamma                101.711(14)
_cell_volume                     2047.66
loop_
_atom_site_label
_atom_site_type_symbol
_atom_site_fract_x
_atom_site_fract_y
_atom_site_fract_z
Zn1 Zn 0.89500(7) 0.01105(4) 0.27152(3)
O1 O 0.9369(4) 0.1562(2) 0.2355(2)
N1 N 0.8817(5) -0.0470(3) 0.1314(2)
N2 N 1.1177(5) -0.0154(2) 0.2558(2)
C1 C 0.7137(6) 0.2206(3) 0.2358(3)
C2 C 0.5584(6) 0.2140(3) 0.2487(3)
H1 H 0.5014 0.1626 0.2647
C3 C 0.4861(6) 0.2827(3) 0.2381(3)
C4 C 0.5678(6) 0.3577(3) 0.2156(3)
H2 H 0.5173 0.4045 0.2085
C5 C 0.7240(6) 0.3646(3) 0.2034(3)
C6 C 0.7989(6) 0.2953(3) 0.2123(3)
H3 H 0.9054 0.2992 0.2026
C7 C 0.9488(6) 0.4463(3) 0.1534(3)
H4 H 1.0130 0.4209 0.1897
H5 H 1.0012 0.5111 0.1605
C8 C 0.9414(6) 0.3943(3) 0.0600(3)
C9 C 0.8139(7) 0.3824(4) 0.0016(3)
H6 H 0.7243 0.4032 0.0214
C10 C 0.8137(7) 0.3409(4) -0.0852(3)
H7 H 0.7237 0.3328 -0.1244
C11 C 0.9417(6) 0.3109(3) -0.1161(3)
C12 C 1.0682(7) 0.3193(4) -0.0575(3)
H8 H 1.1560 0.2963 -0.0772
C13 C 1.0680(6) 0.3610(4) 0.0303(3)
H9 H 1.1559 0.3666 0.0701
C14 C 0.9422(7) 0.2694(3) -0.2101(3)
H10 H 0.9896 0.2154 -0.2191
H11 H 0.8339 0.2492 -0.2393
C15 C 1.0619(6) 0.3100(3) -0.3302(3)
C16 C 0.9876(6) 0.2282(3) -0.3874(3)
H12 H 0.9085 0.1871 -0.3695
C17 C 1.0284(6) 0.2056(3) -0.4716(3)
C18 C 1.1441(6) 0.2648(3) -0.4976(3)
H13 H 1.1740 0.2485 -0.5547
C19 C 1.2174(6) 0.3487(3) -0.4396(3)
C20 C 1.1745(6) 0.3713(3) -0.3566(3)
H14 H 1.2221 0.4289 -0.3174
C21 C 0.3153(6) 0.2773(4) 0.2474(3)
C22 C 0.7963(6) 0.1476(3) 0.2463(3)
C23 C 0.9485(6) 0.1181(3) -0.5325(3)
C24 C 1.3412(6) 0.4142(3) -0.4657(3)
C25 C 0.7640(7) -0.0634(4) 0.0708(3)
H15 H 0.6700 -0.0462 0.0877
C26 C 0.7705(8) -0.1051(4) -0.0173(4)
H16 H 0.6825 -0.1169 -0.0590
C27 C 0.9047(9) -0.1277(4) -0.0411(4)
H17 H 0.9122 -0.1546 -0.1007
C28 C 1.0337(7) -0.1122(4) 0.0204(3)
C29 C 1.1772(8) -0.1372(4) 0.0011(4)
H18 H 1.1899 -0.1655 -0.0573
C30 C 1.2937(7) -0.1220(4) 0.0628(4)
H19 H 1.3884 -0.1390 0.0474
C31 C 1.2805(7) -0.0809(3) 0.1515(4)
C32 C 1.3966(7) -0.0656(4) 0.2192(4)
H20 H 1.4931 -0.0821 0.2072
C33 C 1.3738(7) -0.0272(4) 0.3027(4)
H21 H 1.4521 -0.0183 0.3493
C34 C 1.2330(6) -0.0012(3) 0.3183(3)
H22 H 1.2187 0.0280 0.3763
C35 C 1.1417(6) -0.0544(3) 0.1727(3)
C36 C 1.0135(6) -0.0712(3) 0.1070(3)
C37 C 0.5917(5) -0.2259(3) 0.3129(3)
C38 C 0.5964(6) -0.2809(3) 0.2312(3)
H23 H 0.6610 -0.2578 0.1923
C39 C 0.5078(5) -0.3692(3) 0.2057(3)
C40 C 0.4105(6) -0.4035(3) 0.2612(3)
H24 H 0.3505 -0.4647 0.2435
C41 C 0.4019(6) -0.3478(3) 0.3419(3)
C42 C 0.4943(6) -0.2582(3) 0.3689(3)
H25 H 0.4900 -0.2201 0.4251
C43 C 0.2040(6) -0.4601(3) 0.3715(3)
H26 H 0.2632 -0.5088 0.3553
H27 H 0.1378 -0.4614 0.3189
C44 C 0.1019(6) -0.4787(3) 0.4403(3)
C45 C -0.0048(6) -0.5607(4) 0.4217(3)
H28 H -0.0103 -0.6034 0.3666
C46 C 0.1059(6) -0.4165(4) 0.5187(3)
H29 H 0.1767 -0.3584 0.5325
C47 C 0.6920(6) -0.1308(3) 0.3408(3)
C48 C 0.5081(5) -0.4265(3) 0.1166(3)
O2 O 0.7192(4) 0.0782(2) 0.2651(2)
O3 O 0.2459(4) 0.2027(2) 0.2678(2)
H30 H 0.1489 0.1932 0.2553
O4 O 0.2468(4) 0.3336(3) 0.2350(3)
O5 O 0.7982(4) 0.4429(2) 0.1842(2)
O6 O 1.0312(4) 0.3372(2) -0.2455(2)
O7 O 0.8352(5) 0.0710(3) -0.5043(2)
H31 H 0.7994 0.0209 -0.5417
O8 O 0.9888(4) 0.0942(2) -0.6049(2)
O9 O 1.3793(4) 0.3892(2) -0.5424(2)
H32 H 1.4478 0.4313 -0.5514
O10 O 1.4036(4) 0.4887(2) -0.4126(2)
O11 O 0.5730(4) -0.3900(2) 0.0614(2)
O12 O 0.4380(4) -0.5100(2) 0.0995(2)
H33 H 0.4411 -0.5357 0.0469
O13 O 0.7778(4) -0.1061(2) 0.2864(2)
O14 O 0.6845(4) -0.0820(2) 0.4151(2)
O15 O 0.3103(4) -0.3735(2) 0.4014(2)
C37A C -0.5917(5) -0.7741(3) 0.6871(3)
C38A C -0.5964(6) -0.7191(3) 0.7688(3)
H23A H -0.6610 -0.7422 0.8077
C39A C -0.5078(5) -0.6308(3) 0.7943(3)
C40A C -0.4105(6) -0.5965(3) 0.7388(3)
H24A H -0.3505 -0.5353 0.7565
C41A C -0.4019(6) -0.6522(3) 0.6581(3)
C42A C -0.4943(6) -0.7418(3) 0.6311(3)
H25A H -0.4900 -0.7799 0.5749
C43A C -0.2040(6) -0.5399(3) 0.6285(3)
H26A H -0.2632 -0.4912 0.6447
H27A H -0.1378 -0.5386 0.6811
C44A C -0.1019(6) -0.5213(3) 0.5597(3)
C45A C 0.0048(6) -0.4393(4) 0.5783(3)
H28A H 0.0103 -0.3966 0.6334
C46A C -0.1059(6) -0.5835(4) 0.4813(3)
H29A H -0.1767 -0.6416 0.4675
C47A C -0.6920(6) -0.8692(3) 0.6592(3)
C48A C -0.5081(5) -0.5735(3) 0.8834(3)
O11A O -0.5730(4) -0.6100(2) 0.9386(2)
O12A O -0.4380(4) -0.4900(2) 0.9005(2)
H33A H -0.4411 -0.4643 0.9531
O13A O -0.7778(4) -0.8939(2) 0.7136(2)
O14A O -0.6845(4) -0.9180(2) 0.5849(2)
O15A O -0.3103(4) -0.6265(2) 0.5986(2)
Zn1A Zn -0.89500(7) -1.01105(4) 0.72848(3)
O1A O -0.9369(4) -1.1562(2) 0.7645(2)
N1A N -0.8817(5) -0.9530(3) 0.8686(2)
N2A N -1.1177(5) -0.9846(2) 0.7442(2)
C1A C -0.7137(6) -1.2206(3) 0.7642(3)
C2A C -0.5584(6) -1.2140(3) 0.7513(3)
H1A H -0.5014 -1.1626 0.7353
C3A C -0.4861(6) -1.2827(3) 0.7619(3)
C4A C -0.5678(6) -1.3577(3) 0.7844(3)
H2A H -0.5173 -1.4045 0.7915
C5A C -0.7240(6) -1.3646(3) 0.7966(3)
C6A C -0.7989(6) -1.2953(3) 0.7877(3)
H3A H -0.9054 -1.2992 0.7974
C7A C -0.9488(6) -1.4463(3) 0.8466(3)
H4A H -1.0130 -1.4209 0.8103
H5A H -1.0012 -1.5111 0.8395
C8A C -0.9414(6) -1.3943(3) 0.9400(3)
C9A C -0.8139(7) -1.3824(4) 0.9984(3)
H6A H -0.7243 -1.4032 0.9786
C10A C -0.8137(7) -1.3409(4) 1.0852(3)
H7A H -0.7237 -1.3328 1.1244
C11A C -0.9417(6) -1.3109(3) 1.1161(3)
C12A C -1.0682(7) -1.3193(4) 1.0575(3)
H8A H -1.1560 -1.2963 1.0772
C13A C -1.0680(6) -1.3610(4) 0.9697(3)
H9A H -1.1559 -1.3666 0.9299
C14A C -0.9422(7) -1.2694(3) 1.2101(3)
H10A H -0.9896 -1.2154 1.2191
H11A H -0.8339 -1.2492 1.2393
C15A C -1.0619(6) -1.3100(3) 1.3302(3)
C16A C -0.9876(6) -1.2282(3) 1.3874(3)
H12A H -0.9085 -1.1871 1.3695
C17A C -1.0284(6) -1.2056(3) 1.4716(3)
C18A C -1.1441(6) -1.2648(3) 1.4976(3)
H13A H -1.1740 -1.2485 1.5547
C19A C -1.2174(6) -1.3487(3) 1.4396(3)
C20A C -1.1745(6) -1.3713(3) 1.3566(3)
H14A H -1.2221 -1.4289 1.3174
C21A C -0.3153(6) -1.2773(4) 0.7526(3)
C22A C -0.7963(6) -1.1476(3) 0.7537(3)
C23A C -0.9485(6) -1.1181(3) 1.5325(3)
C24A C -1.3412(6) -1.4142(3) 1.4657(3)
C25A C -0.7640(7) -0.9366(4) 0.9292(3)
H15A H -0.6700 -0.9538 0.9123
C26A C -0.7705(8) -0.8949(4) 1.0173(4)
H16A H -0.6825 -0.8831 1.0590
C27A C -0.9047(9) -0.8723(4) 1.0411(4)
H17A H -0.9122 -0.8454 1.1007
C28A C -1.0337(7) -0.8878(4) 0.9796(3)
C29A C -1.1772(8) -0.8628(4) 0.9989(4)
H18A H -1.1899 -0.8345 1.0573
C30A C -1.2937(7) -0.8780(4) 0.9372(4)
H19A H -1.3884 -0.8610 0.9526
C31A C -1.2805(7) -0.9191(3) 0.8485(4)
C32A C -1.3966(7) -0.9344(4) 0.7808(4)
H20A H -1.4931 -0.9179 0.7928
C33A C -1.3738(7) -0.9728(4) 0.6973(4)
H21A H -1.4521 -0.9817 0.6507
C34A C -1.2330(6) -0.9988(3) 0.6817(3)
H22A H -1.2187 -1.0280 0.6237
C35A C -1.1417(6) -0.9456(3) 0.8273(3)
C36A C -1.0135(6) -0.9288(3) 0.8930(3)
O2A O -0.7192(4) -1.0782(2) 0.7349(2)
O3A O -0.2459(4) -1.2027(2) 0.7322(2)
H30A H -0.1489 -1.1932 0.7447
O4A O -0.2468(4) -1.3336(3) 0.7650(3)
O5A O -0.7982(4) -1.4429(2) 0.8158(2)
O6A O -1.0312(4) -1.3372(2) 1.2455(2)
O7A O -0.8352(5) -1.0710(3) 1.5043(2)
H31A H -0.7994 -1.0209 1.5417
O8A O -0.9888(4) -1.0942(2) 1.6049(2)
O9A O -1.3793(4) -1.3892(2) 1.5424(2)
H32A H -1.4478 -1.4313 1.5514
O10A O -1.4036(4) -1.4887(2) 1.4126(2)
Zn1_2 Zn 0.89500(7) 0.01105(4) -0.72848(3)
Zn1A_2 Zn -0.89500(7) -1.01105(4) 1.72848(3)
O8_2 O 0.9888(4) 0.0942(2) 0.3951(2)
O8A_2 O -0.9888(4) -1.0942(2) 0.6049(2)
loop_
_geom_bond_atom_site_label_1
_geom_bond_atom_site_label_2
_geom_bond_site_symmetry_1
_geom_bond_site_symmetry_2
Zn1 O1 1_555 1_555
O1 C22 1_555 1_555
N1 Zn1 1_555 1_555
N2 Zn1 1_555 1_555
C1 C2 1_555 1_555
C2 H1 1_555 1_555
C3 C2 1_555 1_555
C4 C3 1_555 1_555
H2 C4 1_555 1_555
C5 C4 1_555 1_555
C6 C1 1_555 1_555
H3 C6 1_555 1_555
C7 H4 1_555 1_555
H5 C7 1_555 1_555
C8 C7 1_555 1_555
C9 C8 1_555 1_555
H6 C9 1_555 1_555
C10 C9 1_555 1_555
H7 C10 1_555 1_555
C11 C10 1_555 1_555
C12 C11 1_555 1_555
H8 C12 1_555 1_555
C13 C8 1_555 1_555
H9 C13 1_555 1_555
C14 C11 1_555 1_555
H10 C14 1_555 1_555
H11 C14 1_555 1_555
C15 C16 1_555 1_555
C16 H12 1_555 1_555
C17 C16 1_555 1_555
C18 C17 1_555 1_555
H13 C18 1_555 1_555
C19 C18 1_555 1_555
C20 C15 1_555 1_555
H14 C20 1_555 1_555
C21 C3 1_555 1_555
C22 C1 1_555 1_555
C23 C17 1_555 1_555
C24 C19 1_555 1_555
C25 N1 1_555 1_555
H15 C25 1_555 1_555
C26 C25 1_555 1_555
H16 C26 1_555 1_555
C27 C26 1_555 1_555
H17 C27 1_555 1_555
C28 C27 1_555 1_555
C29 C28 1_555 1_555
H18 C29 1_555 1_555
C30 C29 1_555 1_555
H19 C30 1_555 1_555
C31 C30 1_555 1_555
C32 C31 1_555 1_555
H20 C32 1_555 1_555
C33 C32 1_555 1_555
H21 C33 1_555 1_555
C34 N2 1_555 1_555
H22 C34 1_555 1_555
C35 N2 1_555 1_555
C36 N1 1_555 1_555
C37 C38 1_555 1_555
C38 H23 1_555 1_555
C39 C38 1_555 1_555
C40 C39 1_555 1_555
H24 C40 1_555 1_555
C41 C40 1_555 1_555
C42 C37 1_555 1_555
H25 C42 1_555 1_555
C43 H26 1_555 1_555
H27 C43 1_555 1_555
C44 C43 1_555 1_555
C45 C44 1_555 1_555
H28 C45 1_555 1_555
C46 C44 1_555 1_555
H29 C46 1_555 1_555
C47 C37 1_555 1_555
C48 C39 1_555 1_555
O2 Zn1 1_555 1_555
O3 C21 1_555 1_555
H30 O3 1_555 1_555
O4 C21 1_555 1_555
O5 C5 1_555 1_555
O6 C14 1_555 1_555
O7 C23 1_555 1_555
H31 O7 1_555 1_555
O8 C23 1_555 1_555
O9 C24 1_555 1_555
H32 O9 1_555 1_555
O10 C24 1_555 1_555
O11 C48 1_555 1_555
O12 C48 1_555 1_555
H33 O12 1_555 1_555
O13 Zn1 1_555 1_555
O14 C47 1_555 1_555
O15 C41 1_555 1_555
C37A C38A 1_555 1_555
C38A H23A 1_555 1_555
C39A C38A 1_555 1_555
C40A C39A 1_555 1_555
H24A C40A 1_555 1_555
C41A C40A 1_555 1_555
C42A C37A 1_555 1_555
H25A C42A 1_555 1_555
C43A H26A 1_555 1_555
H27A C43A 1_555 1_555
C44A C43A 1_555 1_555
C45A C46 1_555 1_555
H28A C45A 1_555 1_555
C46A C45 1_555 1_555
H29A C46A 1_555 1_555
C47A C37A 1_555 1_555
C48A C39A 1_555 1_555
O11A C48A 1_555 1_555
O12A C48A 1_555 1_555
H33A O12A 1_555 1_555
O13A C47A 1_555 1_555
O14A C47A 1_555 1_555
O15A C41A 1_555 1_555
Zn1A O13A 1_555 1_555
O1A Zn1A 1_555 1_555
N1A Zn1A 1_555 1_555
N2A Zn1A 1_555 1_555
C1A C2A 1_555 1_555
C2A H1A 1_555 1_555
C3A C2A 1_555 1_555
C4A C3A 1_555 1_555
H2A C4A 1_555 1_555
C5A C4A 1_555 1_555
C6A C1A 1_555 1_555
H3A C6A 1_555 1_555
C7A H4A 1_555 1_555
H5A C7A 1_555 1_555
C8A C7A 1_555 1_555
C9A C8A 1_555 1_555
H6A C9A 1_555 1_555
C10A C9A 1_555 1_555
H7A C10A 1_555 1_555
C11A C10A 1_555 1_555
C12A C11A 1_555 1_555
H8A C12A 1_555 1_555
C13A C8A 1_555 1_555
H9A C13A 1_555 1_555
C14A C11A 1_555 1_555
H10A C14A 1_555 1_555
H11A C14A 1_555 1_555
C15A C16A 1_555 1_555
C16A H12A 1_555 1_555
C17A C16A 1_555 1_555
C18A C17A 1_555 1_555
H13A C18A 1_555 1_555
C19A C18A 1_555 1_555
C20A C15A 1_555 1_555
H14A C20A 1_555 1_555
C21A C3A 1_555 1_555
C22A O1A 1_555 1_555
C23A C17A 1_555 1_555
C24A C19A 1_555 1_555
C25A N1A 1_555 1_555
H15A C25A 1_555 1_555
C26A C25A 1_555 1_555
H16A C26A 1_555 1_555
C27A C26A 1_555 1_555
H17A C27A 1_555 1_555
C28A C27A 1_555 1_555
C29A C28A 1_555 1_555
H18A C29A 1_555 1_555
C30A C29A 1_555 1_555
H19A C30A 1_555 1_555
C31A C30A 1_555 1_555
C32A C31A 1_555 1_555
H20A C32A 1_555 1_555
C33A C32A 1_555 1_555
H21A C33A 1_555 1_555
C34A N2A 1_555 1_555
H22A C34A 1_555 1_555
C35A N2A 1_555 1_555
C36A N1A 1_555 1_555
O2A Zn1A 1_555 1_555
O3A C21A 1_555 1_555
H30A O3A 1_555 1_555
O4A C21A 1_555 1_555
O5A C5A 1_555 1_555
O6A C14A 1_555 1_555
O7A C23A 1_555 1_555
H31A O7A 1_555 1_555
O8A C23A 1_555 1_555
O9A C24A 1_555 1_555
H32A O9A 1_555 1_555
O10A C24A 1_555 1_555
Zn1_2 O8 1_555 1_555
Zn1A_2 O8A 1_555 1_555
O8_2 Zn1 1_555 1_555
O8A_2 Zn1A 1_555 1_555
C5 C6 1_555 1_555
C7 O5 1_555 1_555
C12 C13 1_555 1_555
C15 O6 1_555 1_555
C19 C20 1_555 1_555
C22 O2 1_555 1_555
C28 C36 1_555 1_555
C31 C35 1_555 1_555
C33 C34 1_555 1_555
C35 C36 1_555 1_555
C41 C42 1_555 1_555
C43 O15 1_555 1_555
C47 O13 1_555 1_555
C41A C42A 1_555 1_555
C43A O15A 1_555 1_555
C44A C45A 1_555 1_555
C44A C46A 1_555 1_555
C1A C22A 1_555 1_555
C5A C6A 1_555 1_555
C7A O5A 1_555 1_555
C12A C13A 1_555 1_555
C15A O6A 1_555 1_555
C19A C20A 1_555 1_555
C22A O2A 1_555 1_555
C28A C36A 1_555 1_555
C31A C35A 1_555 1_555
C33A C34A 1_555 1_555
C35A C36A 1_555 1_555

#END
