
#######################################################################
#
#                 Cambridge Crystallographic Data Centre
#                                CCDC 
#
#######################################################################
#
# If this CIF has been generated from an entry in the Cambridge 
# Structural Database, then it will include bibliographic, chemical, 
# crystal, experimental, refinement or atomic coordinate data resulting 
# from the CCDC's data processing and validation procedures.
#
#######################################################################

data_REYKUB
_symmetry_cell_setting           tetragonal
_symmetry_space_group_name_H-M   'I -4 2 d'
_symmetry_Int_Tables_number      122
_space_group_name_Hall           'I -4 2bw'
loop_
_symmetry_equiv_pos_site_id
_symmetry_equiv_pos_as_xyz
1 x,y,z
2 y,-x,-z
3 x,1/2-y,1/4-z
4 -x,-y,z
5 1/2-y,-x,3/4+z
6 -y,x,-z
7 -x,1/2+y,1/4-z
8 1/2+y,x,3/4+z
9 1/2+x,1/2+y,1/2+z
10 1/2+y,1/2-x,1/2-z
11 1/2+x,-y,3/4-z
12 1/2-x,1/2-y,1/2+z
13 -y,1/2-x,1/4+z
14 1/2-y,1/2+x,1/2-z
15 1/2-x,y,3/4-z
16 y,1/2+x,1/4+z
_cell_length_a                   14.612(2)
_cell_length_b                   14.612(2)
_cell_length_c                   15.125(3)
_cell_angle_alpha                90
_cell_angle_beta                 90
_cell_angle_gamma                90
_cell_volume                     3229.35
loop_
_atom_site_label
_atom_site_type_symbol
_atom_site_fract_x
_atom_site_fract_y
_atom_site_fract_z
W1 W 0.0000 0.0000 -0.5000
Cu1 Cu 0.0000 0.0000 -0.6758(2)
Cu2 Cu -0.1030(2) -0.1507(2) -0.4811(2)
Br1 Br 0.0000 0.0000 -0.8265(2)
Br2 Br -0.0084 -0.2500(2) -0.3750
S1 S 0.0106(3) -0.1256(4) -0.5871(3)
N1 N -0.2147(10) -0.2248(11) -0.4941(18)
C1 C -0.2054(16) -0.3130(21) -0.5075(32)
C2 C -0.2869(16) -0.3688(16) -0.5128(34)
C3 C -0.3699(16) -0.3326(18) -0.5061(29)
C4 C -0.3793(16) -0.2384(14) -0.4893(19)
C5 C -0.2996(19) -0.1866(20) -0.4881(25)
S1A S -0.1256(4) -0.0106(3) -0.4129(3)
S1C S -0.0106(3) 0.1256(4) -0.5871(3)
S1E S 0.1256(4) 0.0106(3) -0.4129(3)
Cu1A Cu 0.0000 0.0000 -0.3242(2)
Cu2A Cu -0.1507(2) 0.1030(2) -0.5189(2)
Cu2C Cu 0.1030(2) 0.1507(2) -0.4811(2)
Cu2E Cu 0.1507(2) -0.1030(2) -0.5189(2)
Br1A Br 0.0000 0.0000 -0.1735(2)
Br2A Br -0.2500(2) 0.0084 -0.6250
N1A N -0.2248(11) 0.2147(10) -0.5059(18)
C1A C -0.3130(21) 0.2054(16) -0.4925(32)
C2A C -0.3688(16) 0.2869(16) -0.4872(34)
C3A C -0.3326(18) 0.3699(16) -0.4939(29)
C4A C -0.2384(14) 0.3793(16) -0.5107(19)
C5A C -0.1866(20) 0.2996(19) -0.5119(25)
N1C N 0.2147(10) 0.2248(11) -0.4941(18)
C1C C 0.2054(16) 0.3130(21) -0.5075(32)
C2C C 0.2869(16) 0.3688(16) -0.5128(34)
C3C C 0.3699(16) 0.3326(18) -0.5061(29)
C4C C 0.3793(16) 0.2384(14) -0.4893(19)
C5C C 0.2996(19) 0.1866(20) -0.4881(25)
N1E N 0.2248(11) -0.2147(10) -0.5059(18)
C1E C 0.3130(21) -0.2054(16) -0.4925(32)
C2E C 0.3688(16) -0.2869(16) -0.4872(34)
C3E C 0.3326(18) -0.3699(16) -0.4939(29)
C4E C 0.2384(14) -0.3793(16) -0.5107(19)
C5E C 0.1866(20) -0.2996(19) -0.5119(25)
Cu2B Cu -0.1030(2) -0.3493(2) -0.2689(2)
Br2C Br 0.0084 0.2500(2) -0.3750
Br2E Br 0.2500(2) -0.0084 -0.6250
Cu2D Cu -0.3493(2) 0.1030(2) -0.7311(2)
loop_
_geom_bond_atom_site_label_1
_geom_bond_atom_site_label_2
_geom_bond_site_symmetry_1
_geom_bond_site_symmetry_2
W1 S1 1_555 1_555
Cu1 Br1 1_555 1_555
Cu2 Br2 1_555 1_555
Br2 Cu2B 1_555 1_555
S1 Cu1 1_555 1_555
N1 Cu2 1_555 1_555
C1 N1 1_555 1_555
C2 C1 1_555 1_555
C3 C2 1_555 1_555
C4 C3 1_555 1_555
C5 N1 1_555 1_555
S1A W1 1_555 1_555
S1C W1 1_555 1_555
S1E W1 1_555 1_555
Cu1A S1A 1_555 1_555
Cu2A S1A 1_555 1_555
Cu2C S1C 1_555 1_555
Cu2E S1 1_555 1_555
Br1A Cu1A 1_555 1_555
Br2A Cu2A 1_555 1_555
N1A Cu2A 1_555 1_555
C1A N1A 1_555 1_555
C2A C1A 1_555 1_555
C3A C2A 1_555 1_555
C4A C3A 1_555 1_555
C5A N1A 1_555 1_555
N1C Cu2C 1_555 1_555
C1C N1C 1_555 1_555
C2C C1C 1_555 1_555
C3C C2C 1_555 1_555
C4C C3C 1_555 1_555
C5C N1C 1_555 1_555
N1E Cu2E 1_555 1_555
C1E N1E 1_555 1_555
C2E C1E 1_555 1_555
C3E C2E 1_555 1_555
C4E C3E 1_555 1_555
C5E N1E 1_555 1_555
Br2C Cu2C 1_555 1_555
Br2E Cu2E 1_555 1_555
Cu2D Br2A 1_555 1_555
Cu1 S1C 1_555 1_555
Cu2 S1 1_555 1_555
Cu2 S1A 1_555 1_555
C4 C5 1_555 1_555
S1C Cu2A 1_555 1_555
S1E Cu2E 1_555 1_555
S1E Cu1A 1_555 1_555
S1E Cu2C 1_555 1_555
C4A C5A 1_555 1_555
C4C C5C 1_555 1_555
C4E C5E 1_555 1_555

#END
