
#######################################################################
#
#                 Cambridge Crystallographic Data Centre
#                                CCDC 
#
#######################################################################
#
# If this CIF has been generated from an entry in the Cambridge 
# Structural Database, then it will include bibliographic, chemical, 
# crystal, experimental, refinement or atomic coordinate data resulting 
# from the CCDC's data processing and validation procedures.
#
#######################################################################

data_REZFIN
_symmetry_cell_setting           monoclinic
_symmetry_space_group_name_H-M   'P 21/c'
_symmetry_Int_Tables_number      14
_space_group_name_Hall           '-P 2ybc'
loop_
_symmetry_equiv_pos_site_id
_symmetry_equiv_pos_as_xyz
1 x,y,z
2 -x,1/2+y,1/2-z
3 -x,-y,-z
4 x,1/2-y,1/2+z
_cell_length_a                   13.2927(3)
_cell_length_b                   9.66890(10)
_cell_length_c                   18.7558(4)
_cell_angle_alpha                90
_cell_angle_beta                 107.619(2)
_cell_angle_gamma                90
_cell_volume                     2297.52
loop_
_atom_site_label
_atom_site_type_symbol
_atom_site_fract_x
_atom_site_fract_y
_atom_site_fract_z
Cu1 Cu 0.922358(14) 0.418128(18) 0.684186(10)
O1 O 0.88324(10) 0.05809(12) 0.56985(7)
O2 O 0.58590(10) 0.43820(14) 0.69677(8)
O3 O 0.38223(10) 0.61132(14) 0.56456(8)
O4 O 0.96801(8) 0.60737(11) 0.71480(6)
O5 O 0.75853(9) 0.06384(11) 0.67393(7)
N1 N 0.56078(10) 0.61841(14) 0.58192(8)
O6 O 0.77438(8) 0.56445(11) 0.61254(6)
N2 N 0.74376(10) 0.79743(13) 0.61105(7)
N3 N 0.99962(10) 0.39066(13) 0.60894(7)
O7 O 0.92060(8) 0.82699(11) 0.72500(6)
C1 C 0.57201(14) 0.94188(18) 0.43411(10)
H1 H 0.574 1.0165 0.4016
C2 C 1.03714(14) 0.21903(18) 0.52897(9)
H2 H 1.0218 0.1319 0.5047
C3 C 0.80668(15) 0.42093(18) 0.87389(10)
H3 H 0.8115 0.4774 0.9163
N4 N 0.86337(10) 0.23838(13) 0.64772(7)
C4 C 0.98126(12) 0.26544(16) 0.57571(8)
N5 N 0.84942(10) 0.38382(13) 0.76105(7)
C5 C 0.65610(13) 0.91900(16) 0.49801(9)
H4 H 0.7158 0.9784 0.5091
C6 C 1.13557(14) 0.43087(19) 0.55252(10)
H5 H 1.1895 0.4893 0.5458
C7 C 1.11624(14) 0.30294(19) 0.51831(10)
H6 H 1.157 0.2724 0.4875
C8 C 0.75273(14) 0.29668(19) 0.86428(10)
H7 H 0.7193 0.267 0.8998
C9 C 0.48508(13) 0.85503(19) 0.41799(9)
H8 H 0.4277 0.8695 0.3739
C10 C 0.79967(11) 0.68279(15) 0.63594(8)
C11 C 0.47221(13) 0.57426(16) 0.59566(10)
C12 C 0.74794(13) 0.21569(17) 0.80220(10)
H9 H 0.7108 0.1303 0.7944
C13 C 0.56535(12) 0.72391(15) 0.53049(9)
C14 C 0.90154(12) 0.17453(16) 0.59657(9)
C15 C 0.65414(11) 0.81026(15) 0.54593(8)
C16 C 1.07420(13) 0.47205(18) 0.59699(9)
H10 H 1.0856 0.5609 0.6196
C17 C 0.49790(13) 0.46916(17) 0.66070(10)
C18 C 0.85351(13) 0.46151(17) 0.82061(9)
H11 H 0.8897 0.5475 0.8267
C19 C 0.48133(12) 0.74729(17) 0.46574(9)
H12 H 0.4211 0.6888 0.4544
C20 C 0.79824(11) 0.26162(15) 0.75194(9)
C21 C 0.80391(11) 0.17540(15) 0.68609(9)
C22 C 0.90562(11) 0.71024(15) 0.69815(8)
O8 O 0.40957(10) 0.42225(13) 0.67049(8)
C23 C 0.42195(16) 0.3182(2) 0.72973(11)
H13 H 0.4455 0.3625 0.7796
H14 H 0.4748 0.2479 0.727
C24 C 0.31650(16) 0.2532(2) 0.71686(12)
H15 H 0.2664 0.3225 0.7236
H16 H 0.322 0.1776 0.7527
H17 H 0.2917 0.2165 0.6658
H18 H 0.7735(17) 0.8756(16) 0.6323(12)
H19 H 0.6201(12) 0.575(2) 0.6054(12)
Cu1A Cu 1.077642(14) 0.918128(18) 0.815814(10)
O7A O 1.07940(8) 0.32699(11) 0.77500(6)
loop_
_geom_bond_atom_site_label_1
_geom_bond_atom_site_label_2
_geom_bond_site_symmetry_1
_geom_bond_site_symmetry_2
Cu1 O4 1_555 1_555
O1 C14 1_555 1_555
O2 C17 1_555 1_555
O3 C11 1_555 1_555
O4 C22 1_555 1_555
O5 C21 1_555 1_555
N1 C11 1_555 1_555
O6 Cu1 1_555 1_555
N2 C10 1_555 1_555
N3 Cu1 1_555 1_555
O7 C22 1_555 1_555
C1 H1 1_555 1_555
C2 H2 1_555 1_555
C3 H3 1_555 1_555
N4 Cu1 1_555 1_555
C4 N3 1_555 1_555
N5 Cu1 1_555 1_555
C5 C1 1_555 1_555
H4 C5 1_555 1_555
C6 H5 1_555 1_555
C7 C2 1_555 1_555
H6 C7 1_555 1_555
C8 C3 1_555 1_555
H7 C8 1_555 1_555
C9 C1 1_555 1_555
H8 C9 1_555 1_555
C10 O6 1_555 1_555
C11 C17 1_555 1_555
C12 C8 1_555 1_555
H9 C12 1_555 1_555
C13 N1 1_555 1_555
C14 N4 1_555 1_555
C15 N2 1_555 1_555
C16 N3 1_555 1_555
H10 C16 1_555 1_555
C17 O8 1_555 1_555
C18 C3 1_555 1_555
H11 C18 1_555 1_555
C19 C9 1_555 1_555
H12 C19 1_555 1_555
C20 N5 1_555 1_555
C21 N4 1_555 1_555
C22 C10 1_555 1_555
O8 C23 1_555 1_555
C23 H13 1_555 1_555
H14 C23 1_555 1_555
C24 C23 1_555 1_555
H15 C24 1_555 1_555
H16 C24 1_555 1_555
H17 C24 1_555 1_555
H18 N2 1_555 1_555
H19 N1 1_555 1_555
Cu1A O7 1_555 1_555
O7A Cu1 1_555 1_555
C2 C4 1_555 1_555
C4 C14 1_555 1_555
N5 C18 1_555 1_555
C5 C15 1_555 1_555
C6 C7 1_555 1_555
C6 C16 1_555 1_555
C12 C20 1_555 1_555
C13 C15 1_555 1_555
C13 C19 1_555 1_555
C20 C21 1_555 1_555

#END
