
#######################################################################
#
#                 Cambridge Crystallographic Data Centre
#                                CCDC 
#
#######################################################################
#
# If this CIF has been generated from an entry in the Cambridge 
# Structural Database, then it will include bibliographic, chemical, 
# crystal, experimental, refinement or atomic coordinate data resulting 
# from the CCDC's data processing and validation procedures.
#
#######################################################################

data_REZVEY
_symmetry_cell_setting           monoclinic
_symmetry_space_group_name_H-M   'P 2/c'
_symmetry_Int_Tables_number      13
_space_group_name_Hall           '-P 2yc'
loop_
_symmetry_equiv_pos_site_id
_symmetry_equiv_pos_as_xyz
1 x,y,z
2 -x,y,1/2-z
3 -x,-y,-z
4 x,-y,1/2+z
_cell_length_a                   22.599(7)
_cell_length_b                   11.386(3)
_cell_length_c                   21.359(7)
_cell_angle_alpha                90
_cell_angle_beta                 117.862(4)
_cell_angle_gamma                90
_cell_volume                     4858.82
loop_
_atom_site_label
_atom_site_type_symbol
_atom_site_fract_x
_atom_site_fract_y
_atom_site_fract_z
Co1 Co 0.0000 0.69072(13) 0.7500
Co2 Co -0.5000 0.75572(12) 0.7500
S1 S -0.08129(9) 0.64635(19) 0.56924(10)
N1 N 0.0000 0.8827(8) 0.7500
Co3 Co 0.0000 0.5000 0.5000
N2 N -0.5000 0.9439(7) 0.7500
N3 N -0.5000 1.5659(8) 0.7500
S2 S -0.56881(9) 0.71695(18) 0.56553(10)
O1 O -0.5379(2) 0.7441(4) 0.6420(2)
O2 O -0.0398(2) 0.5460(4) 0.5670(3)
O3 O -0.5289(2) 0.6206(4) 0.5566(3)
O4 O -0.0513(2) 0.6909(4) 0.6420(3)
O5 O -0.1486(3) 0.6049(5) 0.5498(3)
O6 O -0.6367(2) 0.6762(5) 0.5423(3)
O7 O -0.5658(3) 0.8209(5) 0.5279(3)
C1 C -0.3946(4) 0.8014(8) 0.7017(4)
H1 H -0.4333 0.8168 0.6598
N4 N -0.4001(3) 0.7754(5) 0.7599(3)
N5 N 0.0000 1.5056(8) 0.7500
O8 O -0.0806(3) 0.7395(5) 0.5224(3)
C2 C -0.3439(4) 0.7642(7) 0.8206(4)
H2 H -0.3466 0.7527 0.8623
Co4 Co -0.5000 0.5000 0.5000
C3 C 0.0000 1.2550(12) 0.7500
C4 C -0.4752(5) 1.0029(9) 0.8079(5)
H3 H -0.4572 0.9619 0.8505
C5 C -0.2814(4) 0.7692(7) 0.8234(4)
H4 H -0.2431 0.7624 0.8668
N6 N -0.0973(3) 0.5190(6) 0.4088(3)
C6 C -0.0528(4) 1.4404(8) 0.7046(4)
H5 H -0.0907 1.4804 0.6723
C7 C -0.0548(4) 1.3221(8) 0.7026(4)
H6 H -0.0931 1.2843 0.6693
C8 C -0.4739(5) 1.1271(9) 0.8103(5)
H7 H -0.4549 1.1660 0.8535
C9 C 0.0000 1.1271(10) 0.7500
N7 N -0.0936(3) 0.7111(5) 0.7546(4)
C10 C -0.4516(4) 1.5033(8) 0.8031(4)
H8 H -0.4177 1.5441 0.8403
C11 C -0.4499(4) 1.3825(8) 0.8050(4)
H9 H -0.4157 1.3431 0.8426
C12 C -0.5000 1.3209(10) 0.7500
C13 C -0.5000 1.1876(10) 0.7500
C14 C -0.1495(4) 0.7776(8) 0.8186(5)
H10 H -0.1462 0.8054 0.8610
C15 C -0.2753(4) 0.7844(7) 0.7621(4)
C16 C -0.1546(4) 0.5033(7) 0.4130(4)
H11 H -0.1517 0.4798 0.4560
C17 C -0.1043(4) 0.5513(8) 0.3469(5)
H12 H -0.0658 0.5630 0.3423
C18 C -0.2164(4) 0.5205(7) 0.3572(4)
H13 H -0.2540 0.5107 0.3638
C19 C -0.2116(4) 0.7650(7) 0.7606(4)
N8 N -0.4154(3) 0.5563(6) 0.1032(3)
C20 C -0.3448(4) 0.4985(8) 0.2233(4)
H14 H -0.3407 0.4558 0.2623
C21 C -0.2250(4) 0.5518(7) 0.2913(4)
C22 C -0.2916(4) 0.5613(8) 0.2279(4)
C23 C -0.1526(4) 0.6999(7) 0.6983(5)
H15 H -0.1541 0.6744 0.6562
C24 C -0.0420(5) 1.0628(10) 0.6907(5)
H16 H -0.0719 1.1007 0.6494
C25 C -0.1660(4) 0.5692(8) 0.2874(4)
H17 H -0.1676 0.5928 0.2449
C26 C -0.0389(4) 0.9404(8) 0.6936(5)
H18 H -0.0662 0.8984 0.6529
C27 C -0.2116(4) 0.7242(8) 0.6989(5)
H19 H -0.2520 0.7134 0.6581
C28 C -0.0925(4) 0.7494(8) 0.8142(5)
H20 H -0.0513 0.7574 0.8545
C29 C -0.3336(4) 0.8061(8) 0.7014(5)
H21 H -0.3321 0.8242 0.6597
C30 C -0.4045(4) 0.4977(8) 0.1614(4)
H22 H -0.4395 0.4533 0.1603
C31 C -0.3039(5) 0.6277(10) 0.1705(5)
H23 H -0.2706 0.6766 0.1713
C32 C -0.3650(5) 0.6232(10) 0.1113(5)
H24 H -0.3713 0.6718 0.0737
N9 N -0.5694(3) 0.3682(7) 0.5043(3)
C33 C -0.7700(5) 0.1315(10) 0.4965(6)
H25 H -0.7799 0.2097 0.5001
C34 C -0.6983(5) -0.0159(9) 0.4932(6)
H26 H -0.6584 -0.0409 0.4950
N10 N -0.8026(5) -0.0704(9) 0.4891(6)
C35 C -0.6272(4) 0.3952(8) 0.5032(4)
H27 H -0.6367 0.4742 0.5052
C36 C -0.6001(4) 0.1642(8) 0.5011(4)
H28 H -0.5885 0.0859 0.5009
C37 C -0.8129(5) 0.0453(12) 0.4918(7)
H29 H -0.8531 0.0680 0.4904
C38 C -0.7470(6) -0.0977(10) 0.4879(7)
H30 H -0.7391 -0.1765 0.4831
C39 C -0.7108(4) 0.1010(9) 0.4958(5)
C40 C -0.6742(4) 0.3134(9) 0.4992(5)
H31 H -0.7143 0.3386 0.4970
C41 C -0.5565(4) 0.2547(9) 0.5039(4)
H32 H -0.5161 0.2335 0.5055
C42 C -0.6620(4) 0.1952(9) 0.4986(4)
C43 C 0.0417(7) 0.7526(11) 0.4617(7)
H33 H 0.0819 0.7176 0.4656
H34 H 0.0521 0.8274 0.4853
H35 H 0.0103 0.7634 0.4127
O9 O 0.0151(3) 0.6827(6) 0.4918(4)
H36 H -0.020(4) 0.721(7) 0.497(4)
Co1_2 Co 0.0000 1.69072(13) 0.7500
Co2_2 Co -0.5000 1.75572(12) 0.7500
Co2_3 Co 0.5000 0.75572(12) 0.7500
S1A S 0.08129(9) 0.64635(19) 0.93076(10)
Co3C Co 0.0000 0.5000 1.0000
N3_2 N -0.5000 0.5659(8) 0.7500
S2A S -0.43119(9) 0.71695(18) 0.93447(10)
O1A O -0.4621(2) 0.7441(4) 0.8580(2)
O2A O 0.0398(2) 0.5460(4) 0.9330(3)
O2B O 0.0398(2) 0.4540(4) 0.4330(3)
O3A O -0.4711(2) 0.6206(4) 0.9434(3)
O3B O -0.4711(2) 0.3794(4) 0.4434(3)
O4A O 0.0513(2) 0.6909(4) 0.8580(3)
O5A O 0.1486(3) 0.6049(5) 0.9502(3)
O6A O -0.3633(2) 0.6762(5) 0.9577(3)
O7A O -0.4342(3) 0.8209(5) 0.9721(3)
C1A C 0.3946(4) 0.8014(8) 0.7983(4)
H1A H 0.4333 0.8168 0.8402
N4A N 0.4001(3) 0.7754(5) 0.7401(3)
N4A_2 N -0.5999(3) 0.7754(5) 0.7401(3)
N5_2 N 0.0000 0.5056(8) 0.7500
O8A O 0.0806(3) 0.7395(5) 0.9776(3)
C2A C 0.3439(4) 0.7642(7) 0.6794(4)
H2A H 0.3466 0.7527 0.6377
Co4C Co -0.5000 0.5000 0.0000
Co4C_2 Co -0.5000 0.5000 1.0000
Co4C_3 Co 0.5000 0.5000 1.0000
C4A C -0.5248(5) 1.0029(9) 0.6921(5)
H3A H -0.5428 0.9619 0.6495
C5A C 0.2814(4) 0.7692(7) 0.6766(4)
H4A H 0.2431 0.7624 0.6332
N6B N 0.0973(3) 0.4810(6) 0.5912(3)
C6A C 0.0528(4) 1.4404(8) 0.7954(4)
H5A H 0.0907 1.4804 0.8277
C7A C 0.0548(4) 1.3221(8) 0.7974(4)
H6A H 0.0931 1.2843 0.8307
C8A C -0.5261(5) 1.1271(9) 0.6897(5)
H7A H -0.5451 1.1660 0.6465
N7A N 0.0936(3) 0.7111(5) 0.7454(4)
C10A C -0.5484(4) 1.5033(8) 0.6969(4)
H8A H -0.5823 1.5441 0.6597
C11A C -0.5501(4) 1.3825(8) 0.6950(4)
H9A H -0.5843 1.3431 0.6574
C14A C 0.1495(4) 0.7776(8) 0.6814(5)
H10A H 0.1462 0.8054 0.6390
C15A C 0.2753(4) 0.7844(7) 0.7379(4)
C16B C 0.1546(4) 0.4967(7) 0.5870(4)
H11B H 0.1517 0.5202 0.5440
C17B C 0.1043(4) 0.4487(8) 0.6531(5)
H12B H 0.0658 0.4370 0.6577
C18B C 0.2164(4) 0.4795(7) 0.6428(4)
H13B H 0.2540 0.4893 0.6362
C19A C 0.2116(4) 0.7650(7) 0.7394(4)
N8B N 0.4154(3) 0.4437(6) 0.8968(3)
N8C N -0.4154(3) 0.4437(6) 0.6032(3)
N8A N -0.5846(3) 0.5563(6) 0.3968(3)
C20B C 0.3448(4) 0.5015(8) 0.7767(4)
H14B H 0.3407 0.5442 0.7377
C21B C 0.2250(4) 0.4482(7) 0.7087(4)
C22B C 0.2916(4) 0.4387(8) 0.7721(4)
C23A C 0.1526(4) 0.6999(7) 0.8017(5)
H15A H 0.1541 0.6744 0.8438
C24A C 0.0420(5) 1.0628(10) 0.8093(5)
H16A H 0.0719 1.1007 0.8506
C25B C 0.1660(4) 0.4308(8) 0.7126(4)
H17B H 0.1676 0.4072 0.7551
C26A C 0.0389(4) 0.9404(8) 0.8064(5)
H18A H 0.0662 0.8984 0.8471
C27A C 0.2116(4) 0.7242(8) 0.8011(5)
H19A H 0.2520 0.7134 0.8419
C28A C 0.0925(4) 0.7494(8) 0.6858(5)
H20A H 0.0513 0.7574 0.6455
C29A C 0.3336(4) 0.8061(8) 0.7986(5)
H21A H 0.3321 0.8242 0.8403
C30B C 0.4045(4) 0.5023(8) 0.8386(4)
H22B H 0.4395 0.5467 0.8397
C31B C 0.3039(5) 0.3723(10) 0.8295(5)
H23B H 0.2706 0.3234 0.8287
C32B C 0.3650(5) 0.3768(10) 0.8887(5)
H24B H 0.3713 0.3282 0.9263
N9B N -0.4306(3) 0.6318(7) 0.4957(3)
C33B C -0.2300(5) 0.8685(10) 0.5035(6)
H25B H -0.2201 0.7903 0.4999
C34B C -0.3017(5) 1.0159(9) 0.5068(6)
H26B H -0.3416 1.0409 0.5050
N10B N -0.1974(5) 1.0704(9) 0.5109(6)
C35B C -0.3728(4) 0.6048(8) 0.4968(4)
H27B H -0.3633 0.5258 0.4948
C36B C -0.3999(4) 0.8358(8) 0.4989(4)
H28B H -0.4115 0.9141 0.4991
C37B C -0.1871(5) 0.9547(12) 0.5082(7)
H29B H -0.1469 0.9320 0.5096
C38B C -0.2530(6) 1.0977(10) 0.5121(7)
H30B H -0.2609 1.1765 0.5169
C39B C -0.2892(4) 0.8990(9) 0.5042(5)
C40B C -0.3258(4) 0.6866(9) 0.5008(5)
H31B H -0.2857 0.6614 0.5030
C41B C -0.4435(4) 0.7453(9) 0.4961(4)
H32B H -0.4839 0.7665 0.4945
C42B C -0.3380(4) 0.8048(9) 0.5014(4)
C43B C -0.0417(7) 0.2474(11) 0.5383(7)
H33B H -0.0819 0.2824 0.5344
H34B H -0.0521 0.1726 0.5147
H35B H -0.0103 0.2366 0.5873
O9B O -0.0151(3) 0.3173(6) 0.5082(4)
H36B H 0.020(4) 0.279(7) 0.503(4)
loop_
_geom_bond_atom_site_label_1
_geom_bond_atom_site_label_2
_geom_bond_site_symmetry_1
_geom_bond_site_symmetry_2
Co1 N1 1_555 1_555
Co2 N2 1_555 1_555
S1 O2 1_555 1_555
N1 C26 1_555 1_555
Co3 O2 1_555 1_555
N2 C4 1_555 1_555
N3 C10 1_555 1_555
S2 O1 1_555 1_555
O1 Co2 1_555 1_555
O3 S2 1_555 1_555
O4 Co1 1_555 1_555
O5 S1 1_555 1_555
O6 S2 1_555 1_555
O7 S2 1_555 1_555
C1 H1 1_555 1_555
N4 Co2 1_555 1_555
N5 C6 1_555 1_555
O8 S1 1_555 1_555
C2 N4 1_555 1_555
H2 C2 1_555 1_555
Co4 O3 1_555 1_555
C3 C7 1_555 1_555
C4 H3 1_555 1_555
C5 C2 1_555 1_555
H4 C5 1_555 1_555
N6 Co3 1_555 1_555
C6 H5 1_555 1_555
C7 C6 1_555 1_555
H6 C7 1_555 1_555
C8 C4 1_555 1_555
H7 C8 1_555 1_555
C9 C3 1_555 1_555
N7 Co1 1_555 1_555
C10 H8 1_555 1_555
C11 C10 1_555 1_555
H9 C11 1_555 1_555
C12 C11 1_555 1_555
C13 C8 1_555 1_555
C14 H10 1_555 1_555
C15 C5 1_555 1_555
C16 N6 1_555 1_555
H11 C16 1_555 1_555
C17 N6 1_555 1_555
H12 C17 1_555 1_555
C18 C16 1_555 1_555
H13 C18 1_555 1_555
C19 C14 1_555 1_555
N8 C30 1_555 1_555
C20 H14 1_555 1_555
C21 C18 1_555 1_555
C22 C20 1_555 1_555
C23 N7 1_555 1_555
H15 C23 1_555 1_555
C24 C9 1_555 1_555
H16 C24 1_555 1_555
C25 C17 1_555 1_555
H17 C25 1_555 1_555
C26 C24 1_555 1_555
H18 C26 1_555 1_555
C27 C19 1_555 1_555
H19 C27 1_555 1_555
C28 N7 1_555 1_555
H20 C28 1_555 1_555
C29 C1 1_555 1_555
H21 C29 1_555 1_555
C30 C20 1_555 1_555
H22 C30 1_555 1_555
C31 C22 1_555 1_555
H23 C31 1_555 1_555
C32 N8 1_555 1_555
H24 C32 1_555 1_555
N9 Co4 1_555 1_555
C33 H25 1_555 1_555
C34 H26 1_555 1_555
N10 C37 1_555 1_555
C35 N9 1_555 1_555
H27 C35 1_555 1_555
C36 H28 1_555 1_555
C37 C33 1_555 1_555
H29 C37 1_555 1_555
C38 C34 1_555 1_555
H30 C38 1_555 1_555
C39 C33 1_555 1_555
C40 C35 1_555 1_555
H31 C40 1_555 1_555
C41 N9 1_555 1_555
H32 C41 1_555 1_555
C42 C36 1_555 1_555
C43 H33 1_555 1_555
H34 C43 1_555 1_555
H35 C43 1_555 1_555
O9 Co3 1_555 1_555
H36 O9 1_555 1_555
Co1_2 N5 1_555 1_555
Co2_2 N3 1_555 1_555
Co2_3 N4A 1_555 1_555
S1A O2A 1_555 1_555
Co3C O2A 1_555 1_555
N3_2 Co2 1_555 1_555
S2A O1A 1_555 1_555
O1A Co2 1_555 1_555
O2B Co3 1_555 1_555
O3A S2A 1_555 1_555
O3B Co4 1_555 1_555
O4A Co1 1_555 1_555
O5A S1A 1_555 1_555
O6A S2A 1_555 1_555
O7A S2A 1_555 1_555
C1A H1A 1_555 1_555
N4A C1A 1_555 1_555
N4A_2 Co2 1_555 1_555
N5_2 Co1 1_555 1_555
O8A S1A 1_555 1_555
C2A N4A 1_555 1_555
H2A C2A 1_555 1_555
Co4C N8 1_555 1_555
Co4C_2 O3A 1_555 1_555
Co4C_3 N8B 1_555 1_555
C4A N2 1_555 1_555
H3A C4A 1_555 1_555
C5A C2A 1_555 1_555
H4A C5A 1_555 1_555
N6B Co3 1_555 1_555
C6A N5 1_555 1_555
H5A C6A 1_555 1_555
C7A C3 1_555 1_555
H6A C7A 1_555 1_555
C8A C13 1_555 1_555
H7A C8A 1_555 1_555
N7A Co1 1_555 1_555
C10A N3 1_555 1_555
H8A C10A 1_555 1_555
C11A C12 1_555 1_555
H9A C11A 1_555 1_555
C14A H10A 1_555 1_555
C15A C5A 1_555 1_555
C16B N6B 1_555 1_555
H11B C16B 1_555 1_555
C17B N6B 1_555 1_555
H12B C17B 1_555 1_555
C18B C16B 1_555 1_555
H13B C18B 1_555 1_555
C19A C14A 1_555 1_555
N8B C30B 1_555 1_555
N8C Co4 1_555 1_555
N8A Co4 1_555 1_555
C20B H14B 1_555 1_555
C21B C18B 1_555 1_555
C22B C20B 1_555 1_555
C23A N7A 1_555 1_555
H15A C23A 1_555 1_555
C24A C9 1_555 1_555
H16A C24A 1_555 1_555
C25B C17B 1_555 1_555
H17B C25B 1_555 1_555
C26A N1 1_555 1_555
H18A C26A 1_555 1_555
C27A C19A 1_555 1_555
H19A C27A 1_555 1_555
C28A N7A 1_555 1_555
H20A C28A 1_555 1_555
C29A C1A 1_555 1_555
H21A C29A 1_555 1_555
C30B C20B 1_555 1_555
H22B C30B 1_555 1_555
C31B C22B 1_555 1_555
H23B C31B 1_555 1_555
C32B N8B 1_555 1_555
H24B C32B 1_555 1_555
N9B Co4 1_555 1_555
C33B H25B 1_555 1_555
C34B H26B 1_555 1_555
N10B C37B 1_555 1_555
C35B N9B 1_555 1_555
H27B C35B 1_555 1_555
C36B H28B 1_555 1_555
C37B C33B 1_555 1_555
H29B C37B 1_555 1_555
C38B C34B 1_555 1_555
H30B C38B 1_555 1_555
C39B C33B 1_555 1_555
C40B C35B 1_555 1_555
H31B C40B 1_555 1_555
C41B N9B 1_555 1_555
H32B C41B 1_555 1_555
C42B C36B 1_555 1_555
C43B H33B 1_555 1_555
H34B C43B 1_555 1_555
H35B C43B 1_555 1_555
O9B Co3 1_555 1_555
H36B O9B 1_555 1_555
S1 O4 1_555 1_555
C1 N4 1_555 1_555
C12 C13 1_555 1_555
C14 C28 1_555 1_555
C15 C19 1_555 1_555
C15 C29 1_555 1_555
C21 C22 1_555 1_555
C21 C25 1_555 1_555
C23 C27 1_555 1_555
C31 C32 1_555 1_555
C34 C39 1_555 1_555
N10 C38 1_555 1_555
C36 C41 1_555 1_555
C39 C42 1_555 1_555
C40 C42 1_555 1_555
C43 O9 1_555 1_555
S1A O4A 1_555 1_555
C4A C8A 1_555 1_555
C6A C7A 1_555 1_555
C10A C11A 1_555 1_555
C14A C28A 1_555 1_555
C15A C19A 1_555 1_555
C15A C29A 1_555 1_555
C21B C22B 1_555 1_555
C21B C25B 1_555 1_555
C23A C27A 1_555 1_555
C24A C26A 1_555 1_555
C31B C32B 1_555 1_555
C34B C39B 1_555 1_555
N10B C38B 1_555 1_555
C36B C41B 1_555 1_555
C39B C42B 1_555 1_555
C40B C42B 1_555 1_555
C43B O9B 1_555 1_555

#END
