
#######################################################################
#
#                 Cambridge Crystallographic Data Centre
#                                CCDC 
#
#######################################################################
#
# If this CIF has been generated from an entry in the Cambridge 
# Structural Database, then it will include bibliographic, chemical, 
# crystal, experimental, refinement or atomic coordinate data resulting 
# from the CCDC's data processing and validation procedures.
#
#######################################################################

data_REZXEB
_symmetry_cell_setting           monoclinic
_symmetry_space_group_name_H-M   'C 2/c'
_symmetry_Int_Tables_number      15
_space_group_name_Hall           '-C 2yn'
loop_
_symmetry_equiv_pos_site_id
_symmetry_equiv_pos_as_xyz
1 x,y,z
2 -x,y,1/2-z
3 1/2+x,1/2+y,z
4 1/2-x,1/2+y,1/2-z
5 -x,-y,-z
6 x,-y,1/2+z
7 1/2-x,1/2-y,-z
8 1/2+x,1/2-y,1/2+z
_cell_length_a                   15.417(5)
_cell_length_b                   25.356(5)
_cell_length_c                   14.384(5)
_cell_angle_alpha                90
_cell_angle_beta                 108.842(5)
_cell_angle_gamma                90
_cell_volume                     5321.58
loop_
_atom_site_label
_atom_site_type_symbol
_atom_site_fract_x
_atom_site_fract_y
_atom_site_fract_z
Zn1 Zn 0.2500 0.2500 0.5000
O1 O 0.77614(14) 0.18141(8) 0.55386(15)
O2 O 0.87210(13) 0.22496(9) 0.72393(14)
O3 O 0.78078(12) 0.27383(7) 0.84349(13)
O4 O 0.27057(16) -0.00651(8) 0.82410(15)
O5 O 0.18952(15) -0.08494(7) 0.69677(15)
O6 O 0.12622(14) -0.06791(7) 0.50505(14)
N1 N 0.35735(14) 0.30219(8) 0.52855(16)
N2 N 0.33881(15) 0.19084(8) 0.56362(16)
C1 C 0.35322(18) 0.35369(10) 0.49789(19)
C2 C 0.44501(18) 0.37397(10) 0.5185(2)
H1 H 0.4607 0.4080 0.5057
C3 C 0.50377(18) 0.33481(10) 0.5597(2)
H2 H 0.5674 0.3366 0.5807
C4 C 0.44904(17) 0.28949(10) 0.56503(19)
C5 C 0.48482(18) 0.23930(10) 0.5966(2)
C6 C 0.43264(17) 0.19355(10) 0.59514(19)
C7 C 0.47062(18) 0.14213(10) 0.6271(2)
H3 H 0.5325 0.1334 0.6513
C8 C 0.39898(18) 0.10903(10) 0.6151(2)
H4 H 0.4025 0.0732 0.6298
C9 C 0.31665(18) 0.13932(10) 0.57553(19)
C10 C 0.22762(18) 0.11876(9) 0.55131(19)
C11 C 0.58727(17) 0.23371(10) 0.6332(2)
C12 C 0.63114(18) 0.20865(10) 0.5743(2)
H5 H 0.5969 0.1944 0.5140
C13 C 0.72643(19) 0.20502(10) 0.6061(2)
C14 C 0.77809(18) 0.22649(11) 0.6973(2)
C15 C 0.73256(19) 0.25150(9) 0.7537(2)
C16 C 0.63768(18) 0.25491(9) 0.7225(2)
H6 H 0.6082 0.2714 0.7616
C17 C 0.21775(18) 0.06464(10) 0.5881(2)
C18 C 0.24910(19) 0.05549(10) 0.6892(2)
H7 H 0.2759 0.0828 0.7321
C19 C 0.24049(19) 0.00614(10) 0.7261(2)
C20 C 0.19718(19) -0.03470(10) 0.6625(2)
C21 C 0.16593(18) -0.02559(10) 0.5623(2)
C22 C 0.17684(18) 0.02386(10) 0.52493(19)
H8 H 0.1566 0.0295 0.4574
C23 C 0.7266(2) 0.16359(12) 0.4581(2)
H9 H 0.7681 0.1479 0.4288
H10 H 0.6960 0.1929 0.4189
H11 H 0.6821 0.1379 0.4618
C24 C 0.9146(2) 0.19199(13) 0.8062(2)
H12 H 0.9799 0.1930 0.8206
H13 H 0.8933 0.1564 0.7913
H14 H 0.8993 0.2043 0.8621
C25 C 0.8357(2) 0.31844(12) 0.8374(2)
H15 H 0.8665 0.3316 0.9022
H16 H 0.7971 0.3455 0.7987
H17 H 0.8802 0.3080 0.8072
C26 C 0.3254(3) 0.03152(15) 0.8910(2)
H18 H 0.3419 0.0180 0.9568
H19 H 0.2913 0.0636 0.8865
H20 H 0.3800 0.0385 0.8746
C27 C 0.1304(3) -0.08925(13) 0.7553(3)
H21 H 0.1293 -0.1252 0.7760
H22 H 0.0696 -0.0786 0.7172
H23 H 0.1526 -0.0669 0.8119
C28 C 0.0855(2) -0.05953(12) 0.4026(2)
H24 H 0.0603 -0.0921 0.3714
H25 H 0.1312 -0.0470 0.3756
H26 H 0.0376 -0.0338 0.3915
O1F O -0.27614(14) 0.31859(8) 0.44614(15)
O2F O -0.37210(13) 0.27504(9) 0.27607(14)
O3F O -0.28078(12) 0.22617(7) 0.15651(13)
O4F O 0.22943(16) 0.50651(8) 0.17590(15)
O5F O 0.31048(15) 0.58494(7) 0.30323(15)
O6F O 0.37378(14) 0.56791(7) 0.49495(14)
N1F N 0.14265(14) 0.19781(8) 0.47145(16)
N2F N 0.16119(15) 0.30916(8) 0.43638(16)
C1F C 0.14678(18) 0.14631(10) 0.50211(19)
C2F C 0.05499(18) 0.12603(10) 0.4815(2)
H1F H 0.0393 0.0920 0.4943
C3F C -0.00377(18) 0.16519(10) 0.4403(2)
H2F H -0.0674 0.1634 0.4193
C4F C 0.05096(17) 0.21051(10) 0.43497(19)
C5F C 0.01518(18) 0.26070(10) 0.4034(2)
C6F C 0.06736(17) 0.30645(10) 0.40486(19)
C7F C 0.02938(18) 0.35787(10) 0.3729(2)
H3F H -0.0325 0.3666 0.3487
C8F C 0.10102(18) 0.39097(10) 0.3849(2)
H4F H 0.0975 0.4268 0.3702
C9F C 0.18335(18) 0.36068(10) 0.42447(19)
C10F C 0.27238(18) 0.38124(9) 0.44869(19)
C11F C -0.08727(17) 0.26629(10) 0.3668(2)
C12F C -0.13114(18) 0.29135(10) 0.4257(2)
H5F H -0.0969 0.3056 0.4860
C13F C -0.22643(19) 0.29498(10) 0.3939(2)
C14F C -0.27809(18) 0.27351(11) 0.3027(2)
C15F C -0.23256(19) 0.24850(9) 0.2463(2)
C16F C -0.13768(18) 0.24509(9) 0.2775(2)
H6F H -0.1082 0.2286 0.2384
C17F C 0.28225(18) 0.43536(10) 0.4119(2)
C18F C 0.25090(19) 0.44451(10) 0.3108(2)
H7F H 0.2241 0.4172 0.2679
C19F C 0.25951(19) 0.49386(10) 0.2739(2)
C20F C 0.30282(19) 0.53470(10) 0.3375(2)
C21F C 0.33407(18) 0.52559(10) 0.4377(2)
C22F C 0.32316(18) 0.47614(10) 0.47507(19)
H8F H 0.3434 0.4705 0.5426
C23F C -0.2266(2) 0.33641(12) 0.5419(2)
H9F H -0.2681 0.3521 0.5712
H10F H -0.1960 0.3071 0.5811
H11F H -0.1821 0.3621 0.5382
C24F C -0.4146(2) 0.30801(13) 0.1938(2)
H12F H -0.4799 0.3070 0.1794
H13F H -0.3933 0.3436 0.2087
H14F H -0.3993 0.2957 0.1379
C25F C -0.3357(2) 0.18156(12) 0.1626(2)
H15F H -0.3665 0.1684 0.0978
H16F H -0.2971 0.1545 0.2013
H17F H -0.3802 0.1920 0.1928
C26F C 0.1746(3) 0.46848(15) 0.1090(2)
H18F H 0.1581 0.4820 0.0432
H19F H 0.2087 0.4364 0.1135
H20F H 0.1200 0.4615 0.1254
C27F C 0.3696(3) 0.58925(13) 0.2447(3)
H21F H 0.3707 0.6252 0.2240
H22F H 0.4304 0.5786 0.2828
H23F H 0.3474 0.5669 0.1881
C28F C 0.4145(2) 0.55953(12) 0.5974(2)
H24F H 0.4397 0.5921 0.6286
H25F H 0.3688 0.5470 0.6244
H26F H 0.4624 0.5338 0.6085
Zn1A Zn -0.2500 0.2500 0.0000
Zn1A_2 Zn 0.7500 0.2500 1.0000
O3A O 0.21922(12) 0.27383(7) 0.65651(13)
O3G O 0.28078(12) 0.22617(7) 0.34349(13)
loop_
_geom_bond_atom_site_label_1
_geom_bond_atom_site_label_2
_geom_bond_site_symmetry_1
_geom_bond_site_symmetry_2
Zn1 N1 1_555 1_555
O1 C13 1_555 1_555
O2 C14 1_555 1_555
O3 C15 1_555 1_555
O4 C19 1_555 1_555
O5 C20 1_555 1_555
O6 C21 1_555 1_555
N1 C1 1_555 1_555
N2 Zn1 1_555 1_555
C1 C2 1_555 1_555
C2 H1 1_555 1_555
C3 C2 1_555 1_555
H2 C3 1_555 1_555
C4 N1 1_555 1_555
C5 C4 1_555 1_555
C6 N2 1_555 1_555
C7 C6 1_555 1_555
H3 C7 1_555 1_555
C8 C7 1_555 1_555
H4 C8 1_555 1_555
C9 N2 1_555 1_555
C10 C9 1_555 1_555
C11 C5 1_555 1_555
C12 C11 1_555 1_555
H5 C12 1_555 1_555
C13 C12 1_555 1_555
C14 C13 1_555 1_555
C15 C14 1_555 1_555
C16 C11 1_555 1_555
H6 C16 1_555 1_555
C17 C10 1_555 1_555
C18 C17 1_555 1_555
H7 C18 1_555 1_555
C19 C18 1_555 1_555
C20 C19 1_555 1_555
C21 C20 1_555 1_555
C22 C17 1_555 1_555
H8 C22 1_555 1_555
C23 O1 1_555 1_555
H9 C23 1_555 1_555
H10 C23 1_555 1_555
H11 C23 1_555 1_555
C24 O2 1_555 1_555
H12 C24 1_555 1_555
H13 C24 1_555 1_555
H14 C24 1_555 1_555
C25 O3 1_555 1_555
H15 C25 1_555 1_555
H16 C25 1_555 1_555
H17 C25 1_555 1_555
C26 O4 1_555 1_555
H18 C26 1_555 1_555
H19 C26 1_555 1_555
H20 C26 1_555 1_555
C27 O5 1_555 1_555
H21 C27 1_555 1_555
H22 C27 1_555 1_555
H23 C27 1_555 1_555
C28 O6 1_555 1_555
H24 C28 1_555 1_555
H25 C28 1_555 1_555
H26 C28 1_555 1_555
O1F C13F 1_555 1_555
O2F C14F 1_555 1_555
O3F C15F 1_555 1_555
O4F C19F 1_555 1_555
O5F C20F 1_555 1_555
O6F C21F 1_555 1_555
N1F Zn1 1_555 1_555
N2F Zn1 1_555 1_555
C1F C10 1_555 1_555
C2F C1F 1_555 1_555
H1F C2F 1_555 1_555
C3F C2F 1_555 1_555
H2F C3F 1_555 1_555
C4F N1F 1_555 1_555
C5F C4F 1_555 1_555
C6F N2F 1_555 1_555
C7F C6F 1_555 1_555
H3F C7F 1_555 1_555
C8F C7F 1_555 1_555
H4F C8F 1_555 1_555
C9F N2F 1_555 1_555
C10F C1 1_555 1_555
C11F C5F 1_555 1_555
C12F C11F 1_555 1_555
H5F C12F 1_555 1_555
C13F C12F 1_555 1_555
C14F C13F 1_555 1_555
C15F C14F 1_555 1_555
C16F C11F 1_555 1_555
H6F C16F 1_555 1_555
C17F C10F 1_555 1_555
C18F C17F 1_555 1_555
H7F C18F 1_555 1_555
C19F C18F 1_555 1_555
C20F C19F 1_555 1_555
C21F C20F 1_555 1_555
C22F C17F 1_555 1_555
H8F C22F 1_555 1_555
C23F O1F 1_555 1_555
H9F C23F 1_555 1_555
H10F C23F 1_555 1_555
H11F C23F 1_555 1_555
C24F O2F 1_555 1_555
H12F C24F 1_555 1_555
H13F C24F 1_555 1_555
H14F C24F 1_555 1_555
C25F O3F 1_555 1_555
H15F C25F 1_555 1_555
H16F C25F 1_555 1_555
H17F C25F 1_555 1_555
C26F O4F 1_555 1_555
H18F C26F 1_555 1_555
H19F C26F 1_555 1_555
H20F C26F 1_555 1_555
C27F O5F 1_555 1_555
H21F C27F 1_555 1_555
H22F C27F 1_555 1_555
H23F C27F 1_555 1_555
C28F O6F 1_555 1_555
H24F C28F 1_555 1_555
H25F C28F 1_555 1_555
H26F C28F 1_555 1_555
Zn1A O3F 1_555 1_555
Zn1A_2 O3 1_555 1_555
O3A Zn1 1_555 1_555
O3G Zn1 1_555 1_555
C3 C4 1_555 1_555
C5 C6 1_555 1_555
C8 C9 1_555 1_555
C15 C16 1_555 1_555
C21 C22 1_555 1_555
N1F C1F 1_555 1_555
C3F C4F 1_555 1_555
C5F C6F 1_555 1_555
C8F C9F 1_555 1_555
C9F C10F 1_555 1_555
C15F C16F 1_555 1_555
C21F C22F 1_555 1_555

#END
