
#######################################################################
#
#                 Cambridge Crystallographic Data Centre
#                                CCDC 
#
#######################################################################
#
# If this CIF has been generated from an entry in the Cambridge 
# Structural Database, then it will include bibliographic, chemical, 
# crystal, experimental, refinement or atomic coordinate data resulting 
# from the CCDC's data processing and validation procedures.
#
#######################################################################

data_REZZIF
_symmetry_cell_setting           orthorhombic
_symmetry_space_group_name_H-M   'P c a 21'
_symmetry_Int_Tables_number      29
_space_group_name_Hall           'P 2c -2ac'
loop_
_symmetry_equiv_pos_site_id
_symmetry_equiv_pos_as_xyz
1 x,y,z
2 -x,-y,1/2+z
3 1/2-x,y,1/2+z
4 1/2+x,-y,z
_cell_length_a                   9.194(5)
_cell_length_b                   7.165(4)
_cell_length_c                   30.526(4)
_cell_angle_alpha                90
_cell_angle_beta                 90
_cell_angle_gamma                90
_cell_volume                     2010.9
loop_
_atom_site_label
_atom_site_type_symbol
_atom_site_fract_x
_atom_site_fract_y
_atom_site_fract_z
Ca1 Ca 0.3975(3) 0.2747(3) 0.201
P1 P -0.3204(4) 0.0796(6) 0.2679(2)
P2 P 0.1140(4) 0.0805(7) 0.1347(2)
F1 F 0.208(2) -0.100(2) 0.0244(6)
F2 F -0.425(1) -0.092(2) 0.3771(4)
O1 O -0.188(1) -0.001(2) 0.2457(4)
O2 O -0.436(1) -0.081(2) 0.2745(3)
O3 O 0.108(1) -0.244(1) 0.2435(3)
O4 O 0.185(1) 0.244(2) 0.1576(4)
O5 O -0.018(1) 0.002(2) 0.1574(4)
O6 O 0.228(1) -0.078(2) 0.1279(4)
O7 O -0.103(1) -0.620(1) 0.2002(6)
O8 O 0.066(1) -0.399(2) 0.1477(4)
O9 O -0.272(1) -0.395(2) 0.2562(4)
C1 C 0.178(2) 0.214(3) 0.0496(6)
C2 C 0.244(2) 0.079(3) 0.0233(7)
C3 C 0.361(3) 0.118(5) -0.0047(8)
C4 C 0.401(2) 0.314(7) -0.0065(8)
C5 C 0.332(3) 0.448(4) 0.0187(8)
C6 C 0.217(2) 0.407(3) 0.0486(8)
C7 C 0.060(2) 0.142(3) 0.0804(5)
C8 C -0.380(2) 0.210(3) 0.3519(5)
C9 C -0.459(2) 0.095(3) 0.3785(6)
C10 C -0.569(2) 0.148(3) 0.4069(6)
C11 C -0.603(2) 0.336(4) 0.4083(6)
C12 C -0.530(3) 0.470(4) 0.3817(8)
C13 C -0.419(2) 0.408(3) 0.3555(6)
C14 C -0.259(2) 0.148(3) 0.3218(6)
H1 H 0.420 0.012 -0.024
H2 H 0.473 0.366 -0.026
H3 H 0.367 0.577 0.017
H4 H 0.162 0.519 0.069
H5 H 0.011 0.035 0.067
H6 H -0.015 0.239 0.082
H7 H -0.622 0.058 0.424
H8 H -0.686 0.377 0.427
H9 H -0.560 0.611 0.383
H10 H -0.366 0.495 0.339
H11 H -0.186 0.244 0.319
H12 H -0.211 0.042 0.335
H13 H -0.021 -0.696 0.196
H14 H -0.187 -0.724 0.202
H15 H 0.100 -0.241 0.145
H16 H 0.165 -0.417 0.136
H17 H 0.344 -0.047 0.140
H18 H -0.270 -0.548 0.257
Ca1C Ca -0.1025(3) -0.2747(3) 0.201
O3C O -0.392(1) 0.244(1) 0.2435(3)
Ca1_2 Ca -0.6025(3) 0.2747(3) 0.201
O4C O -0.315(1) -0.244(2) 0.1576(4)
loop_
_geom_bond_atom_site_label_1
_geom_bond_atom_site_label_2
_geom_bond_site_symmetry_1
_geom_bond_site_symmetry_2
Ca1 O4 1_555 1_555
P1 O1 1_555 1_555
P2 O4 1_555 1_555
F1 C2 1_555 1_555
F2 C9 1_555 1_555
O1 Ca1C 1_555 1_555
O2 P1 1_555 1_555
O3 Ca1C 1_555 1_555
O5 P2 1_555 1_555
O6 P2 1_555 1_555
O7 H13 1_555 1_555
O8 H15 1_555 1_555
O9 H18 1_555 1_555
C1 C2 1_555 1_555
C2 C3 1_555 1_555
C3 C4 1_555 1_555
C4 C5 1_555 1_555
C5 C6 1_555 1_555
C6 C1 1_555 1_555
C7 P2 1_555 1_555
C8 C9 1_555 1_555
C9 C10 1_555 1_555
C10 C11 1_555 1_555
C11 C12 1_555 1_555
C12 C13 1_555 1_555
C13 C8 1_555 1_555
C14 P1 1_555 1_555
H1 C3 1_555 1_555
H2 C4 1_555 1_555
H3 C5 1_555 1_555
H4 C6 1_555 1_555
H5 C7 1_555 1_555
H6 C7 1_555 1_555
H7 C10 1_555 1_555
H8 C11 1_555 1_555
H9 C12 1_555 1_555
H10 C13 1_555 1_555
H11 C14 1_555 1_555
H12 C14 1_555 1_555
H14 O7 1_555 1_555
H16 O8 1_555 1_555
H17 O6 1_555 1_555
Ca1C O5 1_555 1_555
O3C P1 1_555 1_555
Ca1_2 O3C 1_555 1_555
O4C Ca1C 1_555 1_555
O7 Ca1C 1_555 1_555
O8 Ca1C 1_555 1_555
O9 Ca1C 1_555 1_555
C1 C7 1_555 1_555
C8 C14 1_555 1_555

#END
