
#######################################################################
#
#                 Cambridge Crystallographic Data Centre
#                                CCDC 
#
#######################################################################
#
# If this CIF has been generated from an entry in the Cambridge 
# Structural Database, then it will include bibliographic, chemical, 
# crystal, experimental, refinement or atomic coordinate data resulting 
# from the CCDC's data processing and validation procedures.
#
#######################################################################

data_REZZOL
_symmetry_cell_setting           monoclinic
_symmetry_space_group_name_H-M   'C 2/c'
_symmetry_Int_Tables_number      15
_space_group_name_Hall           '-C 2yn'
loop_
_symmetry_equiv_pos_site_id
_symmetry_equiv_pos_as_xyz
1 x,y,z
2 -x,y,1/2-z
3 1/2+x,1/2+y,z
4 1/2-x,1/2+y,1/2-z
5 -x,-y,-z
6 x,-y,1/2+z
7 1/2-x,1/2-y,-z
8 1/2+x,1/2-y,1/2+z
_cell_length_a                   31.671(6)
_cell_length_b                   7.109(7)
_cell_length_c                   9.173(4)
_cell_angle_alpha                90
_cell_angle_beta                 98.60(4)
_cell_angle_gamma                90
_cell_volume                     2042.07
loop_
_atom_site_label
_atom_site_type_symbol
_atom_site_fract_x
_atom_site_fract_y
_atom_site_fract_z
Ca1 Ca 0.5000 -0.2731(1) 0.7500
P1 P 0.56553(3) 0.0823(1) 0.56804(8)
F1 F 0.73162(8) 0.3020(5) 0.2470(3)
O1 O 0.57251(7) -0.0827(3) 0.4578(2)
O2 O 0.54366(6) 0.0016(3) 0.6911(2)
O3 O 0.45810(6) -0.2422(3) 0.5166(2)
O4 O 0.55334(9) -0.3994(4) 0.6134(3)
O5 O 0.5000 -0.6166(6) 0.7500
C1 C 0.6484(1) 0.1993(6) 0.5415(4)
C2 C 0.6501(1) 0.3743(7) 0.4783(5)
C3 C 0.6782(2) 0.409(1) 0.3768(6)
C4 C 0.7041(1) 0.269(1) 0.3455(5)
C5 C 0.7040(1) 0.0956(9) 0.4066(5)
C6 C 0.6757(1) 0.0624(7) 0.5056(4)
C7 C 0.6181(1) 0.1577(6) 0.6498(4)
H1 H 0.629(1) 0.475(6) 0.506(4)
H2 H 0.682(1) 0.532(7) 0.347(5)
H3 H 0.721(1) 0.006(6) 0.387(5)
H4 H 0.675(1) -0.060(5) 0.542(4)
H5 H 0.613(1) 0.266(5) 0.705(3)
H6 H 0.628(1) 0.054(5) 0.714(3)
H7 H 0.550(1) -0.499(5) 0.562(4)
H8 H 0.566(1) -0.329(5) 0.564(4)
H9 H 0.489(1) -0.679(6) 0.801(4)
O3D O 0.54190(6) 0.2422(3) 0.4834(2)
Ca1D Ca 0.5000 0.2731(1) 0.2500
O2A O 0.45634(6) 0.0016(3) 0.8089(2)
P1A P 0.43447(3) 0.0823(1) 0.93196(8)
O1A O 0.42749(7) -0.0827(3) 1.0422(2)
O3E O 0.45810(6) 0.2422(3) 1.0166(2)
Ca1E Ca 0.5000 0.2731(1) 1.2500
O3A O 0.54190(6) -0.2422(3) 0.9834(2)
O4A O 0.44666(9) -0.3994(4) 0.8866(3)
H7A H 0.450(1) -0.499(5) 0.938(4)
H8A H 0.434(1) -0.329(5) 0.936(4)
H9A H 0.511(1) -0.679(6) 0.699(4)
C7A C 0.3819(1) 0.1577(6) 0.8502(4)
C1A C 0.3516(1) 0.1993(6) 0.9585(4)
C2A C 0.3499(1) 0.3743(7) 1.0217(5)
C3A C 0.3218(2) 0.409(1) 1.1232(6)
C4A C 0.2959(1) 0.269(1) 1.1545(5)
F1A F 0.26838(8) 0.3020(5) 1.2530(3)
C5A C 0.2960(1) 0.0956(9) 1.0934(5)
C6A C 0.3243(1) 0.0624(7) 0.9944(4)
H4A H 0.325(1) -0.060(5) 0.958(4)
H3A H 0.279(1) 0.006(6) 1.113(5)
H2A H 0.318(1) 0.532(7) 1.153(5)
H1A H 0.371(1) 0.475(6) 0.994(4)
H5A H 0.387(1) 0.266(5) 0.795(3)
H6A H 0.372(1) 0.054(5) 0.786(3)
loop_
_geom_bond_atom_site_label_1
_geom_bond_atom_site_label_2
_geom_bond_site_symmetry_1
_geom_bond_site_symmetry_2
Ca1 O2 1_555 1_555
P1 O1 1_555 1_555
F1 C4 1_555 1_555
O2 P1 1_555 1_555
O3 Ca1 1_555 1_555
O4 Ca1 1_555 1_555
O5 Ca1 1_555 1_555
C1 C2 1_555 1_555
C2 C3 1_555 1_555
C3 C4 1_555 1_555
C4 C5 1_555 1_555
C5 C6 1_555 1_555
C6 C1 1_555 1_555
C7 P1 1_555 1_555
H1 C2 1_555 1_555
H2 C3 1_555 1_555
H3 C5 1_555 1_555
H4 C6 1_555 1_555
H5 C7 1_555 1_555
H6 C7 1_555 1_555
H7 O4 1_555 1_555
H8 O4 1_555 1_555
H9 O5 1_555 1_555
O3D P1 1_555 1_555
Ca1D O3D 1_555 1_555
O2A Ca1 1_555 1_555
P1A O2A 1_555 1_555
O1A P1A 1_555 1_555
O3E P1A 1_555 1_555
Ca1E O3E 1_555 1_555
O3A Ca1 1_555 1_555
O4A Ca1 1_555 1_555
H7A O4A 1_555 1_555
H8A O4A 1_555 1_555
H9A O5 1_555 1_555
C7A P1A 1_555 1_555
C1A C7A 1_555 1_555
C2A C1A 1_555 1_555
C3A C2A 1_555 1_555
C4A C3A 1_555 1_555
F1A C4A 1_555 1_555
C5A C4A 1_555 1_555
C6A C1A 1_555 1_555
H4A C6A 1_555 1_555
H3A C5A 1_555 1_555
H2A C3A 1_555 1_555
H1A C2A 1_555 1_555
H5A C7A 1_555 1_555
H6A C7A 1_555 1_555
C1 C7 1_555 1_555
C5A C6A 1_555 1_555

#END
