
#######################################################################
#
#                 Cambridge Crystallographic Data Centre
#                                CCDC 
#
#######################################################################
#
# If this CIF has been generated from an entry in the Cambridge 
# Structural Database, then it will include bibliographic, chemical, 
# crystal, experimental, refinement or atomic coordinate data resulting 
# from the CCDC's data processing and validation procedures.
#
#######################################################################

data_RIBKAP
_symmetry_cell_setting           triclinic
_symmetry_space_group_name_H-M   'P -1'
_symmetry_Int_Tables_number      2
_space_group_name_Hall           '-P 1'
loop_
_symmetry_equiv_pos_site_id
_symmetry_equiv_pos_as_xyz
1 x,y,z
2 -x,-y,-z
_cell_length_a                   11.8730(6)
_cell_length_b                   12.2415(7)
_cell_length_c                   13.845(2)
_cell_angle_alpha                71.988(7)
_cell_angle_beta                 66.436(8)
_cell_angle_gamma                79.506(4)
_cell_volume                     1750.13
loop_
_atom_site_label
_atom_site_type_symbol
_atom_site_fract_x
_atom_site_fract_y
_atom_site_fract_z
C1 C 0.4537(2) 0.2727(2) 0.41528(19)
C2 C 0.51299(19) 0.09580(19) 0.66197(18)
C3 C 0.3531(3) 0.3547(2) 0.4428(2)
C4 C 0.44866(19) 0.19009(19) 0.60613(17)
C5 C 0.5055(2) 0.2734(2) 0.3032(2)
C6 C 0.4954(2) 0.19580(19) 0.49347(18)
C7 C 0.6930(2) -0.0438(2) 0.59419(18)
C8 C 0.5917(2) 0.1032(2) 0.47495(18)
C9 C 0.7065(2) -0.0973(2) 0.6969(2)
C10 C 0.60693(19) 0.04438(19) 0.58041(17)
C11 C 0.7789(2) -0.0883(2) 0.5054(2)
C12 C 0.1440(2) -0.2138(2) 1.27621(19)
H1 H 0.1897 -0.2847 1.2612
H2 H 0.0572 -0.2246 1.2993
C13 C 0.1658(2) -0.1934(2) 1.36983(19)
H3 H 0.1219 -0.122 1.3852
H4 H 0.2529 -0.1866 1.3496
C14 C 0.1210(3) -0.2934(2) 1.4717(2)
H5 H 0.0361 -0.3039 1.4865
H6 H 0.1695 -0.3632 1.4565
C15 C 0.6645(2) 0.4203(2) 0.9172(2)
H7 H 0.7239 0.3563 0.9275
H8 H 0.6262 0.4431 0.985
C16 C 0.7338(2) 0.5202(2) 0.8288(2)
H9 H 0.6765 0.5867 0.821
H10 H 0.7702 0.4998 0.7598
C17 C 0.8356(2) 0.5516(2) 0.8553(2)
H11 H 0.8681 0.623 0.8036
H12 H 0.8001 0.5646 0.9276
C18 C 0.3305(2) -0.0097(2) 1.01469(18)
H13 H 0.4131 0.0037 0.9739
C19 C 0.3021(2) -0.0937(2) 1.11118(19)
H14 H 0.3642 -0.1336 1.1357
C20 C 0.1802(2) -0.11921(19) 1.17237(18)
C21 C 0.0932(2) -0.0541(2) 1.13166(19)
H15 H 0.0103 -0.0678 1.1697
C22 C 0.1282(2) 0.0306(2) 1.03537(18)
H16 H 0.0675 0.0734 1.0103
C23 C 0.0602(3) -0.1860(3) 1.7167(3)
H17 H 0.0098 -0.1286 1.7478
C24 C 0.0564(3) -0.1948(3) 1.6219(2)
H18 H 0.0044 -0.1439 1.5906
C25 C 0.1285(2) -0.2779(2) 1.5726(2)
C26 C 0.2045(3) -0.3482(3) 1.6229(2)
H19 H 0.257 -0.4051 1.5924
C27 C 0.2029(3) -0.3342(3) 1.7183(3)
H20 H 0.2548 -0.3835 1.7508
C28 C 0.4777(2) 0.3485(2) 0.77991(19)
H21 H 0.4779 0.3636 0.7097
C29 C 0.5622(2) 0.3991(2) 0.7940(2)
H22 H 0.6167 0.4478 0.7343
C30 C 0.5665(2) 0.37809(19) 0.89676(19)
C31 C 0.4780(2) 0.3087(2) 0.98203(18)
H23 H 0.475 0.2933 1.0531
C32 C 0.3951(2) 0.2627(2) 0.96186(18)
H24 H 0.3359 0.2181 1.0209
C33 C 1.0688(2) 0.3229(2) 0.9334(2)
H25 H 1.0889 0.2885 0.995
C34 C 0.9706(2) 0.4042(2) 0.9419(2)
H26 H 0.9252 0.4215 1.0084
C35 C 0.9399(2) 0.45971(19) 0.8516(2)
C36 C 1.0101(2) 0.4265(2) 0.7567(2)
H27 H 0.9927 0.461 0.6937
C37 C 1.1053(2) 0.3430(2) 0.7547(2)
H28 H 1.1499 0.3218 0.69
N1 N 0.2719(3) 0.4219(3) 0.4602(2)
N2 N 0.5432(2) 0.2808(2) 0.21237(19)
N3 N 0.7248(2) -0.1424(2) 0.7753(2)
N4 N 0.8497(2) -0.1266(2) 0.4378(2)
N5 N 0.24602(16) 0.05439(15) 0.97571(14)
N6 N 0.1319(3) -0.2548(3) 1.7667(2)
N7 N 0.39495(17) 0.27847(16) 0.86152(15)
N8 N 1.13661(16) 0.29086(16) 0.84215(15)
O1 O 0.48466(14) 0.06970(14) 0.76283(12)
O2 O 0.36260(14) 0.25211(13) 0.65758(12)
O3 O 0.64795(15) 0.07625(15) 0.38927(13)
O4 O 0.21742(15) 0.05827(15) 0.77865(13)
Zn1 Zn 0.29602(2) 0.17571(2) 0.82455(2)
H29 H 0.2173 -0.0193 0.8165
H30 H 0.2353 0.0536 0.7043
N8_2 N 0.13661(16) 0.29086(16) 0.84215(15)
Zn1_2 Zn 1.29602(2) 0.17571(2) 0.82455(2)
O5 O 0.2106(2) -0.16680(17) 0.89510(16)
H31 H 0.1838 -0.2001 0.8563
H32 H 0.2988 -0.1908 0.8616
loop_
_geom_bond_atom_site_label_1
_geom_bond_atom_site_label_2
_geom_bond_site_symmetry_1
_geom_bond_site_symmetry_2
C1 C3 1_555 1_555
C2 C4 1_555 1_555
C3 N1 1_555 1_555
C4 C6 1_555 1_555
C5 C1 1_555 1_555
C6 C1 1_555 1_555
C7 C9 1_555 1_555
C8 C6 1_555 1_555
C9 N3 1_555 1_555
C10 C2 1_555 1_555
C11 C7 1_555 1_555
C12 H1 1_555 1_555
H2 C12 1_555 1_555
C13 C12 1_555 1_555
H3 C13 1_555 1_555
H4 C13 1_555 1_555
C14 C13 1_555 1_555
H5 C14 1_555 1_555
H6 C14 1_555 1_555
C15 H7 1_555 1_555
H8 C15 1_555 1_555
C16 C15 1_555 1_555
H9 C16 1_555 1_555
H10 C16 1_555 1_555
C17 C16 1_555 1_555
H11 C17 1_555 1_555
H12 C17 1_555 1_555
C18 H13 1_555 1_555
C19 C18 1_555 1_555
H14 C19 1_555 1_555
C20 C12 1_555 1_555
C21 C20 1_555 1_555
H15 C21 1_555 1_555
C22 C21 1_555 1_555
H16 C22 1_555 1_555
C23 H17 1_555 1_555
C24 C23 1_555 1_555
H18 C24 1_555 1_555
C25 C14 1_555 1_555
C26 C25 1_555 1_555
H19 C26 1_555 1_555
C27 C26 1_555 1_555
H20 C27 1_555 1_555
C28 H21 1_555 1_555
C29 C28 1_555 1_555
H22 C29 1_555 1_555
C30 C15 1_555 1_555
C31 C30 1_555 1_555
H23 C31 1_555 1_555
C32 C31 1_555 1_555
H24 C32 1_555 1_555
C33 H25 1_555 1_555
C34 C33 1_555 1_555
H26 C34 1_555 1_555
C35 C17 1_555 1_555
C36 C35 1_555 1_555
H27 C36 1_555 1_555
C37 C36 1_555 1_555
H28 C37 1_555 1_555
N2 C5 1_555 1_555
N4 C11 1_555 1_555
N5 C18 1_555 1_555
N6 C23 1_555 1_555
N7 C28 1_555 1_555
N8 C33 1_555 1_555
O1 C2 1_555 1_555
O2 C4 1_555 1_555
O3 C8 1_555 1_555
O4 Zn1 1_555 1_555
O5 H31 1_555 1_555
Zn1 N5 1_555 1_555
H29 O4 1_555 1_555
H30 O4 1_555 1_555
H32 O5 1_555 1_555
N8_2 Zn1 1_555 1_555
Zn1_2 N8 1_555 1_555
C7 C10 1_555 1_555
C8 C10 1_555 1_555
C19 C20 1_555 1_555
C22 N5 1_555 1_555
C24 C25 1_555 1_555
C27 N6 1_555 1_555
C29 C30 1_555 1_555
C32 N7 1_555 1_555
C34 C35 1_555 1_555
C37 N8 1_555 1_555
N7 Zn1 1_555 1_555
O1 Zn1 1_555 1_555
O2 Zn1 1_555 1_555

#END
