
#######################################################################
#
#                 Cambridge Crystallographic Data Centre
#                                CCDC 
#
#######################################################################
#
# If this CIF has been generated from an entry in the Cambridge 
# Structural Database, then it will include bibliographic, chemical, 
# crystal, experimental, refinement or atomic coordinate data resulting 
# from the CCDC's data processing and validation procedures.
#
#######################################################################

data_RIBRIF
_symmetry_cell_setting           triclinic
_symmetry_space_group_name_H-M   'P -1'
_symmetry_Int_Tables_number      2
_space_group_name_Hall           '-P 1'
loop_
_symmetry_equiv_pos_site_id
_symmetry_equiv_pos_as_xyz
1 x,y,z
2 -x,-y,-z
_cell_length_a                   8.792(8)
_cell_length_b                   10.423(10)
_cell_length_c                   16.322(16)
_cell_angle_alpha                91.708(13)
_cell_angle_beta                 105.436(13)
_cell_angle_gamma                109.670(11)
_cell_volume                     1345.85
loop_
_atom_site_label
_atom_site_type_symbol
_atom_site_fract_x
_atom_site_fract_y
_atom_site_fract_z
Co1 Co 1.3286(2) 0.31636(16) 0.35110(11)
N1 N 0.940(2) 0.7120(15) 0.0599(9)
N2 N 1.1312(13) 0.2685(11) 0.4152(7)
N3 N 0.7447(16) -0.0189(12) 0.4142(8)
H1 H 0.6563 -0.0290 0.4304
N4 N 0.4867(13) -0.3415(11) -0.2798(7)
N5 N 0.4992(17) -0.2633(19) -0.0564(8)
H2 H 0.6041 -0.2493 -0.0324
O1 O 1.3724(11) 0.5403(8) 0.3678(6)
O2 O 1.1925(11) 0.4036(9) 0.2520(6)
O3 O 1.2446(11) 1.1114(8) 0.3032(5)
O4 O 1.3992(14) 1.0316(9) 0.4115(6)
O5 O 0.893(8) 0.604(5) 0.010(3)
O6 O 0.892(5) 0.809(3) 0.038(3)
O7 O 1.5063(11) 0.3021(8) 0.4658(5)
H3 H 1.4830 0.2200 0.4774
H4 H 1.5120 0.3543 0.5083
C1 C 1.2668(17) 0.5226(11) 0.2964(8)
C2 C 1.2988(15) 1.0185(11) 0.3392(8)
C3 C 1.2150(15) 0.6422(12) 0.2602(8)
C4 C 1.2768(17) 0.7694(12) 0.3114(8)
H5 H 1.3515 0.7826 0.3661
C5 C 1.2245(15) 0.8791(12) 0.2793(8)
C6 C 1.1147(17) 0.8613(13) 0.1983(9)
H6 H 1.0797 0.9319 0.1773
C7 C 1.058(2) 0.7323(15) 0.1485(9)
C8 C 1.1043(18) 0.6221(13) 0.1758(8)
H7 H 1.0648 0.5391 0.1404
C9 C 0.750(2) -0.1397(15) 0.3665(10)
H8 H 0.6952 -0.2217 0.3893
H9 H 0.8673 -0.1307 0.3764
C10 C 0.393(2) -0.2491(19) -0.0023(9)
H10 H 0.3515 -0.1752 -0.0184
H11 H 0.2955 -0.3334 -0.0118
C11 C 0.6655(17) -0.1589(14) 0.2691(8)
C12 C 0.6091(19) -0.0660(15) 0.2255(10)
H12 H 0.6279 0.0177 0.2558
C13 C 0.525(2) -0.0903(18) 0.1384(10)
H13 H 0.4911 -0.0231 0.1114
C14 C 0.491(2) -0.2193(17) 0.0898(10)
C15 C 0.556(2) -0.3136(17) 0.1348(11)
H14 H 0.5426 -0.3963 0.1056
C16 C 0.636(2) -0.2829(16) 0.2209(10)
H15 H 0.6741 -0.3478 0.2489
C17 C 1.0034(16) 0.1468(13) 0.3957(8)
H16 H 1.0011 0.0831 0.3538
C18 C 0.8730(16) 0.1096(14) 0.4346(8)
C19 C 0.8731(17) 0.2060(13) 0.4960(9)
H17 H 0.7868 0.1860 0.5218
C20 C 1.0100(18) 0.3374(15) 0.5185(9)
H18 H 1.0155 0.4030 0.5602
C21 C 1.133(2) 0.3635(15) 0.4766(9)
H19 H 1.2204 0.4485 0.4904
C22 C 0.5366(17) -0.3109(14) -0.1962(9)
H20 H 0.6493 -0.2958 -0.1682
C23 C 0.4338(18) -0.2988(15) -0.1449(8)
C24 C 0.2614(18) -0.3311(15) -0.1902(10)
H21 H 0.1849 -0.3301 -0.1605
C25 C 0.2063(17) -0.3641(16) -0.2778(10)
H22 H 0.0933 -0.3833 -0.3074
C26 C 0.3197(17) -0.3688(14) -0.3223(9)
H23 H 0.2817 -0.3907 -0.3817
Co1_2 Co 1.3286(2) 1.31636(16) 0.35110(11)
Co1A Co 0.6714(2) -0.31636(16) -0.35110(11)
N4A N 1.5133(13) 0.3415(11) 0.2798(7)
O3_2 O 1.2446(11) 0.1114(8) 0.3032(5)
O10 O 0.485(5) 0.739(4) 0.351(3)
O11 O 0.324(6) 0.551(4) 0.049(3)
O8? O 0.85(3) 0.595(18) 0.036(8)
O9? O 0.94(2) 0.825(13) 0.016(6)
loop_
_geom_bond_atom_site_label_1
_geom_bond_atom_site_label_2
_geom_bond_site_symmetry_1
_geom_bond_site_symmetry_2
Co1 N2 1_555 1_555
N1 O5 1_555 1_555
N2 C17 1_555 1_555
N3 H1 1_555 1_555
N4 C22 1_555 1_555
N5 H2 1_555 1_555
O1 Co1 1_555 1_555
O2 Co1 1_555 1_555
O3 C2 1_555 1_555
O4 C2 1_555 1_555
O6 N1 1_555 1_555
O7 Co1 1_555 1_555
H3 O7 1_555 1_555
H4 O7 1_555 1_555
C1 O1 1_555 1_555
C2 C5 1_555 1_555
C3 C1 1_555 1_555
C4 C3 1_555 1_555
H5 C4 1_555 1_555
C5 C4 1_555 1_555
C6 C5 1_555 1_555
H6 C6 1_555 1_555
C7 N1 1_555 1_555
C8 C3 1_555 1_555
H7 C8 1_555 1_555
C9 N3 1_555 1_555
H8 C9 1_555 1_555
H9 C9 1_555 1_555
C10 N5 1_555 1_555
H10 C10 1_555 1_555
H11 C10 1_555 1_555
C11 C9 1_555 1_555
C12 C11 1_555 1_555
H12 C12 1_555 1_555
C13 C12 1_555 1_555
H13 C13 1_555 1_555
C14 C10 1_555 1_555
C15 C14 1_555 1_555
H14 C15 1_555 1_555
C16 C11 1_555 1_555
H15 C16 1_555 1_555
C17 H16 1_555 1_555
C18 N3 1_555 1_555
C19 C18 1_555 1_555
H17 C19 1_555 1_555
C20 C19 1_555 1_555
H18 C20 1_555 1_555
C21 N2 1_555 1_555
H19 C21 1_555 1_555
C22 H20 1_555 1_555
C23 N5 1_555 1_555
C24 C23 1_555 1_555
H21 C24 1_555 1_555
C25 C24 1_555 1_555
H22 C25 1_555 1_555
C26 N4 1_555 1_555
H23 C26 1_555 1_555
Co1_2 O3 1_555 1_555
Co1A N4 1_555 1_555
N4A Co1 1_555 1_555
O3_2 Co1 1_555 1_555
O2 C1 1_555 1_555
C6 C7 1_555 1_555
C7 C8 1_555 1_555
C13 C14 1_555 1_555
C15 C16 1_555 1_555
C17 C18 1_555 1_555
C20 C21 1_555 1_555
C22 C23 1_555 1_555
C25 C26 1_555 1_555

#END
