
#######################################################################
#
#                 Cambridge Crystallographic Data Centre
#                                CCDC 
#
#######################################################################
#
# If this CIF has been generated from an entry in the Cambridge 
# Structural Database, then it will include bibliographic, chemical, 
# crystal, experimental, refinement or atomic coordinate data resulting 
# from the CCDC's data processing and validation procedures.
#
#######################################################################

data_RICGOA01
_symmetry_cell_setting           orthorhombic
_symmetry_space_group_name_H-M   'P b c n'
_symmetry_Int_Tables_number      60
_space_group_name_Hall           '-P 2n 2ab'
loop_
_symmetry_equiv_pos_site_id
_symmetry_equiv_pos_as_xyz
1 x,y,z
2 1/2-x,1/2-y,1/2+z
3 -x,y,1/2-z
4 1/2+x,1/2-y,-z
5 -x,-y,-z
6 1/2+x,1/2+y,1/2-z
7 x,-y,1/2+z
8 1/2-x,1/2+y,z
_cell_length_a                   12.20030(10)
_cell_length_b                   7.38560(10)
_cell_length_c                   19.61600(10)
_cell_angle_alpha                90
_cell_angle_beta                 90
_cell_angle_gamma                90
_cell_volume                     1767.53
loop_
_atom_site_label
_atom_site_type_symbol
_atom_site_fract_x
_atom_site_fract_y
_atom_site_fract_z
C1 C 0.1032(2) -0.3518(4) 0.64545(14)
C2 C 0.0049(2) -0.3673(4) 0.59828(13)
H1 H 0.0193 -0.4751 0.5706
C3 C -0.0064(2) -0.2121(4) 0.54681(15)
H2 H -0.0134 -0.0981 0.5710
H3 H 0.0589 -0.2060 0.5187
C4 C -0.1045(2) -0.2405(4) 0.50255(16)
C5 C -0.1840(3) -0.3560(4) 0.51729(16)
C6 C -0.1891(3) -0.4658(4) 0.58105(17)
H4 H -0.1769 -0.5921 0.5698
H5 H -0.2619 -0.4554 0.6006
C7 C -0.1040(2) -0.4065(3) 0.63446(13)
H6 H -0.0916 -0.5102 0.6646
C8 C -0.1451(2) -0.2515(3) 0.67894(14)
O1 O 0.16619(16) -0.2195(3) 0.64314(10)
O2 O 0.11941(19) -0.4885(2) 0.68434(13)
O3 O -0.24120(14) -0.2658(2) 0.70542(12)
O4 O -0.08683(15) -0.1178(2) 0.69226(10)
O5 O 0.0732(2) 0.1575(4) 0.68083(16)
Cd1 Cd 0.210420(18) -0.00576(2) 0.724319(11)
H7 H -0.106(3) -0.171(4) 0.4626(17)
H8 H -0.244(3) -0.376(4) 0.4862(16)
H9 H 0.070(3) 0.254(5) 0.6778(17)
H10 H 0.015(5) 0.108(8) 0.683(3)
O2G O 0.38059(19) 0.0115(2) 0.68434(13)
O3E O 0.25880(14) 0.2342(2) 0.79458(12)
O3B O 0.24120(14) -0.2658(2) 0.79458(12)
O4B O 0.08683(15) -0.1178(2) 0.80774(10)
Cd1G Cd 0.289580(18) -0.50576(2) 0.724319(11)
Cd1E Cd -0.289580(18) -0.50576(2) 0.775681(11)
Cd1B Cd -0.210420(18) -0.00576(2) 0.775681(11)
loop_
_geom_bond_atom_site_label_1
_geom_bond_atom_site_label_2
_geom_bond_site_symmetry_1
_geom_bond_site_symmetry_2
C1 C2 1_555 1_555
C2 H1 1_555 1_555
C3 C2 1_555 1_555
H2 C3 1_555 1_555
H3 C3 1_555 1_555
C4 C3 1_555 1_555
C5 C4 1_555 1_555
C6 C5 1_555 1_555
H4 C6 1_555 1_555
H5 C6 1_555 1_555
C7 C2 1_555 1_555
H6 C7 1_555 1_555
C8 C7 1_555 1_555
O1 C1 1_555 1_555
O2 C1 1_555 1_555
O3 C8 1_555 1_555
O4 C8 1_555 1_555
O5 Cd1 1_555 1_555
Cd1 O1 1_555 1_555
H7 C4 1_555 1_555
H8 C5 1_555 1_555
H9 O5 1_555 1_555
H10 O5 1_555 1_555
O2G Cd1 1_555 1_555
O3E Cd1 1_555 1_555
O3B Cd1 1_555 1_555
O4B Cd1 1_555 1_555
Cd1G O2 1_555 1_555
Cd1E O3 1_555 1_555
Cd1B O3 1_555 1_555
C6 C7 1_555 1_555
O4 Cd1B 1_555 1_555
O3B Cd1G 1_555 1_555

#END
