
#######################################################################
#
#                 Cambridge Crystallographic Data Centre
#                                CCDC 
#
#######################################################################
#
# If this CIF has been generated from an entry in the Cambridge 
# Structural Database, then it will include bibliographic, chemical, 
# crystal, experimental, refinement or atomic coordinate data resulting 
# from the CCDC's data processing and validation procedures.
#
#######################################################################

data_RIDBEN01
_symmetry_cell_setting           orthorhombic
_symmetry_space_group_name_H-M   'P b c n'
_symmetry_Int_Tables_number      60
_space_group_name_Hall           '-P 2n 2ab'
loop_
_symmetry_equiv_pos_site_id
_symmetry_equiv_pos_as_xyz
1 x,y,z
2 1/2-x,1/2-y,1/2+z
3 -x,y,1/2-z
4 1/2+x,1/2-y,-z
5 -x,-y,-z
6 1/2+x,1/2+y,1/2-z
7 x,-y,1/2+z
8 1/2-x,1/2+y,z
_cell_length_a                   11.6785(4)
_cell_length_b                   11.6776(6)
_cell_length_c                   19.8439(7)
_cell_angle_alpha                90
_cell_angle_beta                 90
_cell_angle_gamma                90
_cell_volume                     2706.25
loop_
_atom_site_label
_atom_site_type_symbol
_atom_site_fract_x
_atom_site_fract_y
_atom_site_fract_z
Zn1 Zn 0.06723(3) 0.31223(4) 0.09266(2)
S1 S 0.31696(8) 0.01359(9) 0.26164(5)
C1 C 0.1839(3) 0.1476(4) 0.17732(19)
C2 C 0.2173(3) 0.1184(3) 0.24685(18)
C3 C 0.1823(3) 0.1683(3) 0.30460(19)
H1 H 0.1282 0.2267 0.3062
C4 C 0.2361(3) 0.1231(4) 0.36205(19)
H2 H 0.2219 0.1484 0.4057
C5 C 0.3113(3) 0.0382(3) 0.34674(17)
C6 C 0.3838(3) -0.0319(4) 0.39251(18)
C7 C -0.0230(3) 0.2565(4) -0.04384(19)
H3 H -0.0676 0.3224 -0.0463
C8 C 0.0897(6) 0.1305(6) -0.0093(3)
H4 H 0.1398 0.0890 0.0177
C9 C 0.0602(6) 0.1027(6) -0.0724(3)
H5 H 0.0857 0.0396 -0.0967
C10 C -0.0616(4) 0.1881(5) -0.1610(2)
H6 H -0.1067 0.2576 -0.1649
H7 H -0.1130 0.1237 -0.1670
C11 C 0.0237(3) 0.1865(4) -0.21515(18)
H8 H 0.0711 0.1190 -0.2097
H9 H 0.0728 0.2529 -0.2101
O1 O 0.1179(2) 0.2324(3) 0.17206(13)
O2 O 0.1942(2) 0.4148(3) 0.06324(13)
H10 H 0.1617 0.4552 0.0332
H11 H 0.2275 0.4612 0.0898
O3 O 0.2233(3) 0.0944(3) 0.12966(14)
O4 O 0.4524(2) -0.0979(3) 0.36239(13)
O5 O 0.3753(3) -0.0224(3) 0.45400(12)
N1 N 0.0360(3) 0.2271(3) 0.00916(15)
N2 N -0.0125(3) 0.1827(4) -0.09360(15)
C7B C 0.0230(3) 0.2565(4) -0.45616(19)
H3B H 0.0676 0.3224 -0.4537
C8B C -0.0897(6) 0.1305(6) -0.4907(3)
H4B H -0.1398 0.0890 -0.5177
C9B C -0.0602(6) 0.1027(6) -0.4276(3)
H5B H -0.0857 0.0396 -0.4033
C10B C 0.0616(4) 0.1881(5) -0.3390(2)
H6B H 0.1067 0.2576 -0.3351
H7B H 0.1130 0.1237 -0.3330
C11B C -0.0237(3) 0.1865(4) -0.28485(18)
H8B H -0.0711 0.1190 -0.2903
H9B H -0.0728 0.2529 -0.2899
N1B N -0.0360(3) 0.2271(3) -0.50916(15)
N2B N 0.0125(3) 0.1827(4) -0.40640(15)
Zn1B Zn -0.06723(3) 0.31223(4) -0.59266(2)
S1B S -0.31696(8) 0.01359(9) -0.76164(5)
C1B C -0.1839(3) 0.1476(4) -0.67732(19)
C2B C -0.2173(3) 0.1184(3) -0.74685(18)
C3B C -0.1823(3) 0.1683(3) -0.80460(19)
H1B H -0.1282 0.2267 -0.8062
C4B C -0.2361(3) 0.1231(4) -0.86205(19)
H2B H -0.2219 0.1484 -0.9057
C5B C -0.3113(3) 0.0382(3) -0.84674(17)
C6B C -0.3838(3) -0.0319(4) -0.89251(18)
O1B O -0.1179(2) 0.2324(3) -0.67206(13)
O2B O -0.1942(2) 0.4148(3) -0.56324(13)
H10B H -0.1617 0.4552 -0.5332
H11B H -0.2275 0.4612 -0.5898
O3B O -0.2233(3) 0.0944(3) -0.62966(14)
O4B O -0.4524(2) -0.0979(3) -0.86239(13)
O5B O -0.3753(3) -0.0224(3) -0.95400(12)
Zn1E Zn 0.56723(3) -0.18777(4) 0.40734(2)
Zn1G Zn -0.56723(3) -0.18777(4) -0.90734(2)
O4E O -0.0476(2) 0.4021(3) 0.13761(13)
O4G O 0.0476(2) 0.4021(3) -0.63761(13)
loop_
_geom_bond_atom_site_label_1
_geom_bond_atom_site_label_2
_geom_bond_site_symmetry_1
_geom_bond_site_symmetry_2
Zn1 O1 1_555 1_555
S1 C2 1_555 1_555
C1 C2 1_555 1_555
C2 C3 1_555 1_555
C3 H1 1_555 1_555
C4 C3 1_555 1_555
H2 C4 1_555 1_555
C5 S1 1_555 1_555
C6 C5 1_555 1_555
C7 H3 1_555 1_555
C8 H4 1_555 1_555
C9 C8 1_555 1_555
H5 C9 1_555 1_555
C10 H6 1_555 1_555
H7 C10 1_555 1_555
C11 C10 1_555 1_555
H8 C11 1_555 1_555
H9 C11 1_555 1_555
O1 C1 1_555 1_555
O2 Zn1 1_555 1_555
H10 O2 1_555 1_555
H11 O2 1_555 1_555
O3 C1 1_555 1_555
O4 C6 1_555 1_555
O5 C6 1_555 1_555
N1 Zn1 1_555 1_555
N2 C7 1_555 1_555
C7B H3B 1_555 1_555
C8B H4B 1_555 1_555
C9B C8B 1_555 1_555
H5B C9B 1_555 1_555
C10B H6B 1_555 1_555
H7B C10B 1_555 1_555
C11B C11 1_555 1_555
H8B C11B 1_555 1_555
H9B C11B 1_555 1_555
N1B C7B 1_555 1_555
N2B C7B 1_555 1_555
Zn1B N1B 1_555 1_555
S1B C2B 1_555 1_555
C1B C2B 1_555 1_555
C2B C3B 1_555 1_555
C3B H1B 1_555 1_555
C4B C3B 1_555 1_555
H2B C4B 1_555 1_555
C5B S1B 1_555 1_555
C6B C5B 1_555 1_555
O1B Zn1B 1_555 1_555
O2B Zn1B 1_555 1_555
H10B O2B 1_555 1_555
H11B O2B 1_555 1_555
O3B C1B 1_555 1_555
O4B C6B 1_555 1_555
O5B C6B 1_555 1_555
Zn1E O4 1_555 1_555
Zn1G O4B 1_555 1_555
O4E Zn1 1_555 1_555
O4G Zn1B 1_555 1_555
C4 C5 1_555 1_555
C7 N1 1_555 1_555
C8 N1 1_555 1_555
C9 N2 1_555 1_555
C10 N2 1_555 1_555
C8B N1B 1_555 1_555
C9B N2B 1_555 1_555
C10B C11B 1_555 1_555
C10B N2B 1_555 1_555
C1B O1B 1_555 1_555
C4B C5B 1_555 1_555

#END
