
#######################################################################
#
#                 Cambridge Crystallographic Data Centre
#                                CCDC 
#
#######################################################################
#
# If this CIF has been generated from an entry in the Cambridge 
# Structural Database, then it will include bibliographic, chemical, 
# crystal, experimental, refinement or atomic coordinate data resulting 
# from the CCDC's data processing and validation procedures.
#
#######################################################################

data_RIDBOX
_symmetry_cell_setting           triclinic
_symmetry_space_group_name_H-M   'P -1'
_symmetry_Int_Tables_number      2
_space_group_name_Hall           '-P 1'
loop_
_symmetry_equiv_pos_site_id
_symmetry_equiv_pos_as_xyz
1 x,y,z
2 -x,-y,-z
_cell_length_a                   9.1919(12)
_cell_length_b                   11.4363(14)
_cell_length_c                   13.0821(16)
_cell_angle_alpha                66.308(2)
_cell_angle_beta                 78.744(2)
_cell_angle_gamma                80.613(2)
_cell_volume                     1229.58
loop_
_atom_site_label
_atom_site_type_symbol
_atom_site_fract_x
_atom_site_fract_y
_atom_site_fract_z
Zn1 Zn 0.99746(4) 0.21291(3) 0.79485(3)
C1 C 0.9603(3) 0.3295(3) 0.5501(3)
H1 H 0.8594 0.3176 0.5663
C2 C 1.1862(4) 0.3368(3) 0.5677(3)
H2 H 1.2708 0.3303 0.5994
C3 C 1.1807(4) 0.3769(3) 0.4557(3)
H3 H 1.2593 0.4029 0.3974
C4 C 0.9758(4) 0.4045(3) 0.3395(3)
H4 H 0.9830 0.4948 0.2933
H5 H 0.8713 0.3894 0.3568
C5 C 1.0597(4) 0.3253(3) 0.2746(3)
H6 H 1.0590 0.2351 0.3230
H7 H 1.1625 0.3454 0.2527
C6 C 0.9919(4) 0.3500(3) 0.1691(3)
H8 H 0.8958 0.3155 0.1920
H9 H 0.9753 0.4418 0.1281
C7 C 1.0892(5) 0.2907(3) 0.0908(3)
H10 H 1.0421 0.3134 0.0243
H11 H 1.1845 0.3266 0.0666
C8 C 1.0390(4) 0.0657(3) 0.1337(3)
H12 H 0.9621 0.0879 0.0905
C9 C 1.2019(4) -0.0436(3) 0.2429(3)
H13 H 1.2578 -0.1126 0.2899
C10 C 1.2202(4) 0.0798(3) 0.2133(3)
H14 H 1.2900 0.1121 0.2352
C11 C 0.7575(3) 0.3456(3) 0.8821(3)
C12 C 0.6698(4) 0.3835(4) 0.9775(3)
H15 H 0.6364 0.3063 1.0388
H16 H 0.7376 0.4171 1.0049
C13 C 0.5359(4) 0.4806(3) 0.9508(3)
H17 H 0.4627 0.4450 0.9302
H18 H 0.5662 0.5565 0.8864
C14 C 1.2635(3) 0.2132(3) 0.8565(3)
C15 C 1.4056(4) 0.1637(3) 0.9092(3)
H19 H 1.4891 0.1940 0.8505
H20 H 1.4040 0.2017 0.9637
C16 C 1.4337(3) 0.0198(3) 0.9674(3)
H21 H 1.4519 -0.0184 0.9114
H22 H 1.3452 -0.0132 1.0190
N1 N 1.0465(3) 0.3068(2) 0.6273(2)
N2 N 1.0362(3) 0.3718(2) 0.4452(2)
N3 N 1.0874(3) -0.0531(3) 0.1931(2)
N4 N 1.1149(3) 0.1503(3) 0.1437(2)
O1 O 0.8794(2) 0.2771(2) 0.90522(19)
O2 O 0.7120(3) 0.3793(3) 0.7907(2)
O3 O 1.1818(2) 0.1306(2) 0.86218(19)
O4 O 1.2313(3) 0.3309(2) 0.8104(2)
C11A C 0.2425(3) 0.6544(3) 1.1179(3)
C12A C 0.3302(4) 0.6165(4) 1.0225(3)
H15A H 0.3636 0.6937 0.9612
H16A H 0.2624 0.5829 0.9951
C13A C 0.4641(4) 0.5194(3) 1.0492(3)
H17A H 0.5373 0.5550 1.0698
H18A H 0.4338 0.4435 1.1136
O1A O 0.1206(2) 0.7229(2) 1.09478(19)
O2A O 0.2880(3) 0.6207(3) 1.2093(2)
C14A C 1.7365(3) -0.2132(3) 1.1435(3)
C15A C 1.5944(4) -0.1637(3) 1.0908(3)
H19A H 1.5109 -0.1940 1.1495
H20A H 1.5960 -0.2017 1.0363
C16A C 1.5663(3) -0.0198(3) 1.0326(3)
H21A H 1.5481 0.0184 1.0886
H22A H 1.6548 0.0132 0.9810
O3A O 1.8182(2) -0.1306(2) 1.13782(19)
O4A O 1.7687(3) -0.3309(2) 1.1896(2)
Zn1A Zn 0.00254(4) 0.78709(3) 1.20515(3)
C1A C 0.0397(3) 0.6705(3) 1.4499(3)
H1A H 0.1406 0.6824 1.4337
C2A C -0.1862(4) 0.6632(3) 1.4323(3)
H2A H -0.2708 0.6697 1.4006
C3A C -0.1807(4) 0.6231(3) 1.5443(3)
H3A H -0.2593 0.5971 1.6026
C4A C 0.0242(4) 0.5955(3) 1.6605(3)
H4A H 0.0170 0.5052 1.7067
H5A H 0.1287 0.6106 1.6432
C5A C -0.0597(4) 0.6747(3) 1.7254(3)
H6A H -0.0590 0.7649 1.6770
H7A H -0.1625 0.6546 1.7473
C6A C 0.0081(4) 0.6500(3) 1.8309(3)
H8A H 0.1042 0.6845 1.8080
H9A H 0.0247 0.5582 1.8719
C7A C -0.0892(5) 0.7093(3) 1.9092(3)
H10A H -0.0421 0.6866 1.9757
H11A H -0.1845 0.6734 1.9334
C8A C -0.0390(4) 0.9343(3) 1.8663(3)
H12A H 0.0379 0.9121 1.9095
C9A C -0.2019(4) 1.0436(3) 1.7571(3)
H13A H -0.2578 1.1126 1.7101
C10A C -0.2202(4) 0.9202(3) 1.7867(3)
H14A H -0.2900 0.8879 1.7648
N1A N -0.0465(3) 0.6932(2) 1.3727(2)
N2A N -0.0362(3) 0.6282(2) 1.5548(2)
N3A N -0.0874(3) 1.0531(3) 1.8069(2)
N4A N -0.1149(3) 0.8497(3) 1.8563(2)
Zn1_2 Zn -0.00254(4) 1.21291(3) 1.79485(3)
Zn1A_2 Zn 1.00254(4) -0.21291(3) 0.20515(3)
Zn1A_3 Zn 2.00254(4) -0.21291(3) 1.20515(3)
N3_2 N 0.0874(3) 0.9469(3) 1.1931(2)
N3A_2 N 0.9126(3) 0.0531(3) 0.8069(2)
O3A_2 O -0.1818(2) 0.8694(2) 1.13782(19)
C17 C 0.4545(7) 0.8145(5) 0.6505(5)
H23 H 0.4502 0.7549 0.6197
C18 C 0.2471(7) 0.9395(7) 0.5538(6)
H24 H 0.2689 1.0128 0.4858
H25 H 0.1502 0.9556 0.5919
H26 H 0.2488 0.8658 0.5357
C19 C 0.3593(8) 1.0036(7) 0.6730(6)
H27 H 0.3884 0.9587 0.7467
H28 H 0.2624 1.0487 0.6793
H29 H 0.4300 1.0637 0.6265
N5 N 0.3550(4) 0.9164(4) 0.6248(3)
O5 O 0.5508(5) 0.7907(4) 0.7102(4)
O6 O 0.4593(3) 0.4774(3) 0.6812(2)
H30 H 0.5459 0.4649 0.6997
H31 H 0.3910 0.4361 0.7299
O7 O 0.4029(3) 0.6652(3) 0.4611(3)
H32 H 0.4289 0.6151 0.5244
H33 H 0.4332 0.6350 0.4101
loop_
_geom_bond_atom_site_label_1
_geom_bond_atom_site_label_2
_geom_bond_site_symmetry_1
_geom_bond_site_symmetry_2
Zn1 N1 1_555 1_555
C1 H1 1_555 1_555
C2 H2 1_555 1_555
C3 C2 1_555 1_555
H3 C3 1_555 1_555
C4 H4 1_555 1_555
H5 C4 1_555 1_555
C5 C4 1_555 1_555
H6 C5 1_555 1_555
H7 C5 1_555 1_555
C6 C5 1_555 1_555
H8 C6 1_555 1_555
H9 C6 1_555 1_555
C7 C6 1_555 1_555
H10 C7 1_555 1_555
H11 C7 1_555 1_555
C8 H12 1_555 1_555
C9 H13 1_555 1_555
C10 C9 1_555 1_555
H14 C10 1_555 1_555
C11 C12 1_555 1_555
C12 H15 1_555 1_555
H16 C12 1_555 1_555
C13 C12 1_555 1_555
H17 C13 1_555 1_555
H18 C13 1_555 1_555
C14 C15 1_555 1_555
C15 H19 1_555 1_555
H20 C15 1_555 1_555
C16 C15 1_555 1_555
H21 C16 1_555 1_555
H22 C16 1_555 1_555
N1 C1 1_555 1_555
N2 C1 1_555 1_555
N3 C8 1_555 1_555
N4 C7 1_555 1_555
O1 Zn1 1_555 1_555
O2 C11 1_555 1_555
O3 Zn1 1_555 1_555
O4 C14 1_555 1_555
C17 H23 1_555 1_555
C18 H24 1_555 1_555
H25 C18 1_555 1_555
H26 C18 1_555 1_555
C19 H27 1_555 1_555
H28 C19 1_555 1_555
H29 C19 1_555 1_555
N5 C17 1_555 1_555
O5 C17 1_555 1_555
O6 H30 1_555 1_555
H31 O6 1_555 1_555
O7 H32 1_555 1_555
H33 O7 1_555 1_555
C11A C12A 1_555 1_555
C12A H15A 1_555 1_555
H16A C12A 1_555 1_555
C13A C13 1_555 1_555
H17A C13A 1_555 1_555
H18A C13A 1_555 1_555
O1A C11A 1_555 1_555
O2A C11A 1_555 1_555
C14A C15A 1_555 1_555
C15A H19A 1_555 1_555
H20A C15A 1_555 1_555
C16A C16 1_555 1_555
H21A C16A 1_555 1_555
H22A C16A 1_555 1_555
O3A C14A 1_555 1_555
O4A C14A 1_555 1_555
Zn1A O1A 1_555 1_555
C1A H1A 1_555 1_555
C2A H2A 1_555 1_555
C3A C2A 1_555 1_555
H3A C3A 1_555 1_555
C4A H4A 1_555 1_555
H5A C4A 1_555 1_555
C5A C4A 1_555 1_555
H6A C5A 1_555 1_555
H7A C5A 1_555 1_555
C6A C5A 1_555 1_555
H8A C6A 1_555 1_555
H9A C6A 1_555 1_555
C7A C6A 1_555 1_555
H10A C7A 1_555 1_555
H11A C7A 1_555 1_555
C8A H12A 1_555 1_555
C9A H13A 1_555 1_555
C10A C9A 1_555 1_555
H14A C10A 1_555 1_555
N1A Zn1A 1_555 1_555
N2A C1A 1_555 1_555
N3A C8A 1_555 1_555
N4A C7A 1_555 1_555
Zn1_2 N3A 1_555 1_555
Zn1A_2 N3 1_555 1_555
Zn1A_3 O3A 1_555 1_555
N3_2 Zn1A 1_555 1_555
N3A_2 Zn1 1_555 1_555
O3A_2 Zn1A 1_555 1_555
C2 N1 1_555 1_555
C3 N2 1_555 1_555
C4 N2 1_555 1_555
C8 N4 1_555 1_555
C9 N3 1_555 1_555
C10 N4 1_555 1_555
C11 O1 1_555 1_555
C14 O3 1_555 1_555
C18 N5 1_555 1_555
C19 N5 1_555 1_555
C12A C13A 1_555 1_555
C15A C16A 1_555 1_555
C1A N1A 1_555 1_555
C2A N1A 1_555 1_555
C3A N2A 1_555 1_555
C4A N2A 1_555 1_555
C8A N4A 1_555 1_555
C9A N3A 1_555 1_555
C10A N4A 1_555 1_555

#END
