
#######################################################################
#
#                 Cambridge Crystallographic Data Centre
#                                CCDC 
#
#######################################################################
#
# If this CIF has been generated from an entry in the Cambridge 
# Structural Database, then it will include bibliographic, chemical, 
# crystal, experimental, refinement or atomic coordinate data resulting 
# from the CCDC's data processing and validation procedures.
#
#######################################################################

data_RIDPAW
_symmetry_cell_setting           monoclinic
_symmetry_space_group_name_H-M   'P 21/m'
_symmetry_Int_Tables_number      11
_space_group_name_Hall           '-P 2yb'
loop_
_symmetry_equiv_pos_site_id
_symmetry_equiv_pos_as_xyz
1 x,y,z
2 -x,1/2+y,-z
3 -x,-y,-z
4 x,1/2-y,z
_cell_length_a                   8.302(2)
_cell_length_b                   25.713(7)
_cell_length_c                   9.153(3)
_cell_angle_alpha                90
_cell_angle_beta                 102.842(5)
_cell_angle_gamma                90
_cell_volume                     1905.01
loop_
_atom_site_label
_atom_site_type_symbol
_atom_site_fract_x
_atom_site_fract_y
_atom_site_fract_z
Ag1 Ag 0.69071(16) 0.2500 0.32902(13)
N1 N 0.6713(10) 0.1671(3) 0.3136(8)
N2 N 0.6130(9) 0.0870(2) 0.3616(8)
C1 C 0.6874(12) 0.1368(3) 0.1938(10)
C2 C 0.6498(11) 0.0868(3) 0.2231(9)
C3 C 0.3915(11) 0.0286(3) 0.3881(9)
C4 C 0.6319(12) 0.1360(3) 0.4117(11)
H1 H 0.6184 0.1465 0.5055
C5 C 0.5556(11) 0.0423(3) 0.4335(9)
C6 C 0.6900(13) 0.0593(4) -0.0140(11)
H2 H 0.6929 0.0336 -0.0850
C7 C 0.6495(11) 0.0453(3) 0.1176(10)
H3 H 0.6235 0.0112 0.1375
C8 C 0.2752(12) 0.0575(4) 0.2760(10)
H4 H 0.3102 0.0868 0.2323
C9 C 0.6671(11) 0.0161(3) 0.5460(10)
C10 C 0.8369(12) 0.0301(3) 0.5953(11)
H5 H 0.8766 0.0594 0.5548
C11 C 0.9398(13) 0.0021(4) 0.6983(12)
H6 H 1.0503 0.0117 0.7265
C12 C 0.7272(15) 0.1104(5) -0.0466(12)
H7 H 0.7538 0.1176 -0.1380
C13 C 0.1156(13) 0.0420(4) 0.2345(12)
H8 H 0.0419 0.0605 0.1614
C15 C 0.7254(14) 0.1517(4) 0.0564(11)
H10 H 0.7475 0.1860 0.0350
Ag1B Ag 0.30929(16) -0.2500 0.67098(13)
N1B N 0.3287(10) -0.1671(3) 0.6864(8)
N1C N 0.6713(10) 0.3329(3) 0.3136(8)
N2B N 0.3870(9) -0.0870(2) 0.6384(8)
C1B C 0.3126(12) -0.1368(3) 0.8062(10)
C2B C 0.3502(11) -0.0868(3) 0.7769(9)
C3B C 0.6085(11) -0.0286(3) 0.6119(9)
C4B C 0.3681(12) -0.1360(3) 0.5883(11)
H1B H 0.3816 -0.1465 0.4945
C5B C 0.4444(11) -0.0423(3) 0.5665(9)
C6B C 0.3100(13) -0.0593(4) 1.0140(11)
H2B H 0.3071 -0.0336 1.0850
C7B C 0.3505(11) -0.0453(3) 0.8824(10)
H3B H 0.3765 -0.0112 0.8625
C8B C 0.7248(12) -0.0575(4) 0.7240(10)
H4B H 0.6898 -0.0868 0.7677
C9B C 0.3329(11) -0.0161(3) 0.4540(10)
C10B C 0.1631(12) -0.0301(3) 0.4047(11)
H5B H 0.1234 -0.0594 0.4452
C11B C 0.0602(13) -0.0021(4) 0.3017(12)
H6B H -0.0503 -0.0117 0.2735
C12B C 0.2728(15) -0.1104(5) 1.0466(12)
H7B H 0.2462 -0.1176 1.1380
C13B C 0.8844(13) -0.0420(4) 0.7655(12)
H8B H 0.9581 -0.0605 0.8386
C15B C 0.2746(14) -0.1517(4) 0.9436(11)
H10B H 0.2525 -0.1860 0.9650
Cl1 Cl 0.2651(8) 0.1064(2) 0.6215(6)
C14 C 0.2291(18) 0.1470(6) 0.7570(14)
H9 H 0.3157 0.1737 0.7777
Cl2 Cl 0.2368(7) 0.10977(19) 0.9201(5)
Cl3 Cl 0.0351(7) 0.1774(2) 0.7151(7)
Cl4 Cl 0.3243(12) 0.2500 0.0932(11)
Cl5 Cl 0.1265(15) 0.1957(3) 0.2590(12)
C16 C 0.213(4) 0.2500 0.240(5)
H11 H 0.3038 0.2500 0.3293
Cl5C Cl 0.1265(15) 0.3043(3) 0.2590(12)
B1 B 0.533(4) 0.2500 0.669(3)
F1 F 0.606(3) 0.2035(5) 0.6791(17)
F2 F 0.485(2) 0.2500 0.8035(19)
F3 F 0.686(5) 0.2500 0.756(6)
F1C F 0.606(3) 0.2965(5) 0.6791(17)
loop_
_geom_bond_atom_site_label_1
_geom_bond_atom_site_label_2
_geom_bond_site_symmetry_1
_geom_bond_site_symmetry_2
Ag1 N1 1_555 1_555
N1 C1 1_555 1_555
N2 C2 1_555 1_555
C1 C2 1_555 1_555
C2 C7 1_555 1_555
C3 C5 1_555 1_555
C4 N1 1_555 1_555
H1 C4 1_555 1_555
C5 N2 1_555 1_555
C6 H2 1_555 1_555
C7 C6 1_555 1_555
H3 C7 1_555 1_555
C8 C3 1_555 1_555
H4 C8 1_555 1_555
C9 C5 1_555 1_555
C10 C9 1_555 1_555
H5 C10 1_555 1_555
C11 C10 1_555 1_555
H6 C11 1_555 1_555
C12 C6 1_555 1_555
H7 C12 1_555 1_555
C13 C8 1_555 1_555
H8 C13 1_555 1_555
Cl1 C14 1_555 1_555
C14 H9 1_555 1_555
Cl2 C14 1_555 1_555
Cl3 C14 1_555 1_555
C15 C1 1_555 1_555
H10 C15 1_555 1_555
Cl4 C16 1_555 1_555
Cl5 C16 1_555 1_555
C16 H11 1_555 1_555
B1 F1 1_555 1_555
F2 B1 1_555 1_555
F3 B1 1_555 1_555
Ag1B N1B 1_555 1_555
N1B C1B 1_555 1_555
N1C Ag1 1_555 1_555
N2B C2B 1_555 1_555
C1B C2B 1_555 1_555
C2B C7B 1_555 1_555
C3B C9 1_555 1_555
C4B N1B 1_555 1_555
H1B C4B 1_555 1_555
C5B N2B 1_555 1_555
C6B H2B 1_555 1_555
C7B C6B 1_555 1_555
H3B C7B 1_555 1_555
C8B C3B 1_555 1_555
H4B C8B 1_555 1_555
C9B C3 1_555 1_555
C10B C9B 1_555 1_555
H5B C10B 1_555 1_555
C11B C13 1_555 1_555
H6B C11B 1_555 1_555
C12B C6B 1_555 1_555
H7B C12B 1_555 1_555
C13B C11 1_555 1_555
H8B C13B 1_555 1_555
C15B C1B 1_555 1_555
H10B C15B 1_555 1_555
Cl5C C16 1_555 1_555
F1C B1 1_555 1_555
N2 C4 1_555 1_555
C12 C15 1_555 1_555
N2B C4B 1_555 1_555
C3B C5B 1_555 1_555
C5B C9B 1_555 1_555
C8B C13B 1_555 1_555
C10B C11B 1_555 1_555
C12B C15B 1_555 1_555

#END
