
#######################################################################
#
#                 Cambridge Crystallographic Data Centre
#                                CCDC 
#
#######################################################################
#
# If this CIF has been generated from an entry in the Cambridge 
# Structural Database, then it will include bibliographic, chemical, 
# crystal, experimental, refinement or atomic coordinate data resulting 
# from the CCDC's data processing and validation procedures.
#
#######################################################################

data_RIDRAY
_symmetry_cell_setting           monoclinic
_symmetry_space_group_name_H-M   'P 21/c'
_symmetry_Int_Tables_number      14
_space_group_name_Hall           '-P 2ybc'
loop_
_symmetry_equiv_pos_site_id
_symmetry_equiv_pos_as_xyz
1 x,y,z
2 -x,1/2+y,1/2-z
3 -x,-y,-z
4 x,1/2-y,1/2+z
_cell_length_a                   20.0604(3)
_cell_length_b                   17.4169(2)
_cell_length_c                   23.1887(3)
_cell_angle_alpha                90
_cell_angle_beta                 114.945(1)
_cell_angle_gamma                90
_cell_volume                     7346.1
loop_
_atom_site_label
_atom_site_type_symbol
_atom_site_fract_x
_atom_site_fract_y
_atom_site_fract_z
La1 La 0.287654(12) 0.168264(12) 0.947991(9)
O1 O 0.31645(14) 0.16815(14) 1.07491(11)
N1 N 0.46062(19) 0.01834(19) 0.90498(15)
C1 C 0.3856(2) 0.17027(19) 1.08942(17)
La2 La 0.235891(12) 0.263772(12) 0.772295(9)
O2 O 0.40879(14) 0.17675(14) 1.04714(11)
N2 N 0.1128(3) 0.4030(2) 1.03916(19)
C2 C 0.4389(2) 0.1656(2) 1.15776(17)
La3 La 0.204460(12) 0.156370(12) 1.096090(9)
O3 O 0.27486(14) 0.30990(14) 0.97208(11)
N3 N -0.00414(18) 0.04671(17) 1.10272(14)
C3 C 0.4190(2) 0.1329(2) 1.20225(18)
H1 H 0.3711 0.1119 1.1895
O4 O 0.21132(14) 0.28094(13) 0.87053(11)
C4 C 0.4689(3) 0.1307(3) 1.2657(2)
H2 H 0.4553 0.1078 1.2963
O5 O 0.36230(14) 0.23926(14) 0.90363(11)
C5 C 0.5379(3) 0.1613(3) 1.2844(2)
H3 H 0.5716 0.1603 1.3280
O6 O 0.34880(15) 0.33986(15) 0.84112(12)
C6 C 0.5582(2) 0.1935(2) 1.2400(2)
H4 H 0.6062 0.2142 1.2531
O7 O 0.22751(14) 0.13214(14) 0.83240(11)
C7 C 0.5094(2) 0.1960(2) 1.17647(19)
H5 H 0.5236 0.2182 1.1459
O8 O 0.18075(16) 0.12809(15) 0.72751(11)
C8 C 0.2277(2) 0.3274(2) 0.91766(16)
O9 O 0.34350(15) 0.18446(16) 0.77236(12)
C9 C 0.1881(2) 0.4023(2) 0.90689(16)
O10 O 0.28394(14) 0.24427(14) 0.68157(11)
C10 C 0.2149(2) 0.4598(2) 0.95256(18)
H6 H 0.2582 0.4512 0.9903
O11 O 0.09339(14) 0.27047(14) 0.72502(11)
C11 C 0.1789(3) 0.5296(2) 0.9433(2)
H7 H 0.1978 0.5691 0.9742
O12 O 0.13831(14) 0.27633(14) 0.65291(11)
C12 C 0.1148(3) 0.5416(2) 0.88863(19)
H8 H 0.0894 0.5891 0.8826
O13 O 0.20315(15) 0.40263(14) 0.76824(11)
C13 C 0.0875(2) 0.4841(2) 0.84260(18)
H9 H 0.0439 0.4928 0.8051
O14 O 0.25919(14) 0.40061(14) 0.70366(11)
C14 C 0.1239(2) 0.4146(2) 0.85149(17)
H10 H 0.1054 0.3754 0.8202
O15 O 0.08778(14) 0.15211(15) 0.99706(11)
C15 C 0.3839(2) 0.3039(2) 0.89178(17)
O16 O 0.16940(14) 0.17228(14) 0.95794(11)
C16 C 0.4545(2) 0.3379(2) 0.93942(17)
O17 O 0.23152(15) 0.02804(14) 1.06156(12)
C17 C 0.4956(2) 0.3009(2) 0.99691(17)
H11 H 0.4791 0.2536 1.0065
O18 O 0.26687(15) 0.04130(15) 0.98226(12)
C18 C 0.5605(2) 0.3334(2) 1.03992(18)
H12 H 0.5882 0.3081 1.0791
O19 O 0.37338(16) 0.07209(15) 0.92942(12)
C19 C 0.5855(2) 0.4014(3) 1.02685(19)
H13 H 0.6305 0.4226 1.0565
O20 O 0.17495(17) 0.28956(15) 1.04932(12)
C20 C 0.5445(3) 0.4392(3) 0.9700(2)
H14 H 0.5614 0.4864 0.9605
O21 O 0.11084(15) 0.06591(15) 1.10923(12)
C21 C 0.4785(2) 0.4075(2) 0.92705(18)
H15 H 0.4498 0.4340 0.8888
C22 C 0.1951(2) 0.0959(2) 0.77953(18)
C23 C 0.1740(2) 0.0136(2) 0.78014(18)
C24 C 0.2098(3) -0.0315(2) 0.8335(2)
H16 H 0.2455 -0.0095 0.8715
C25 C 0.1933(3) -0.1086(3) 0.8312(2)
H17 H 0.2189 -0.1397 0.8675
C26 C 0.1403(3) -0.1415(3) 0.7772(3)
H18 H 0.1300 -0.1948 0.7762
C27 C 0.1027(3) -0.0963(3) 0.7250(2)
H19 H 0.0650 -0.1180 0.6880
C28 C 0.1197(3) -0.0185(2) 0.7261(2)
H20 H 0.0940 0.0126 0.6897
C29 C 0.3350(2) 0.1997(2) 0.71661(17)
C30 C 0.3849(2) 0.1630(2) 0.69159(17)
C31 C 0.4511(2) 0.1329(2) 0.7346(2)
H21 H 0.4639 0.1357 0.7789
C32 C 0.4991(3) 0.0984(2) 0.7132(2)
H22 H 0.5440 0.0767 0.7426
C33 C 0.4807(2) 0.0961(2) 0.6485(2)
H23 H 0.5139 0.0737 0.6337
C34 C 0.4151(2) 0.1257(2) 0.6054(2)
H24 H 0.4028 0.1231 0.5611
C35 C 0.3668(2) 0.1594(2) 0.62677(18)
H25 H 0.3214 0.1800 0.5971
C36 C 0.0841(2) 0.2692(2) 0.66841(18)
C37 C 0.0082(2) 0.2565(2) 0.61680(17)
C38 C -0.0526(2) 0.2604(2) 0.6308(2)
H26 H -0.0460 0.2731 0.6727
C39 C -0.1226(2) 0.2460(2) 0.5845(2)
H27 H -0.1638 0.2487 0.5946
C40 C -0.1318(3) 0.2278(3) 0.5242(2)
H28 H -0.1796 0.2167 0.4925
C41 C -0.0731(3) 0.2253(3) 0.5088(2)
H29 H -0.0805 0.2135 0.4665
C42 C -0.0023(3) 0.2400(3) 0.55518(19)
H30 H 0.0384 0.2387 0.5445
C43 C 0.2383(2) 0.4356(2) 0.74228(16)
C44 C 0.2589(2) 0.5180(2) 0.75741(16)
C45 C 0.2475(2) 0.5532(2) 0.80663(17)
H31 H 0.2276 0.5245 0.8305
C46 C 0.2652(2) 0.6298(2) 0.82062(18)
H32 H 0.2569 0.6536 0.8539
C47 C 0.2947(2) 0.6716(2) 0.7866(2)
H33 H 0.3070 0.7242 0.7965
C48 C 0.3065(3) 0.6371(3) 0.7379(2)
H34 H 0.3267 0.6660 0.7144
C49 C 0.2887(2) 0.5603(2) 0.72353(19)
H35 H 0.2971 0.5367 0.6902
C50 C 0.1038(2) 0.1630(2) 0.95070(16)
C51 C 0.0422(2) 0.16222(19) 0.88515(16)
C52 C -0.0299(2) 0.1559(2) 0.87807(18)
H36 H -0.0401 0.1544 0.9145
C53 C -0.0868(2) 0.1517(2) 0.81774(18)
H37 H -0.1363 0.1483 0.8127
C54 C -0.0717(2) 0.1525(2) 0.76474(18)
H38 H -0.1108 0.1488 0.7235
C55 C -0.0003(2) 0.1587(2) 0.77145(17)
H39 H 0.0099 0.1588 0.7350
C56 C 0.0570(2) 0.1646(2) 0.83192(17)
H40 H 0.1061 0.1702 0.8367
C57 C 0.2585(2) 0.0032(2) 1.02544(17)
C58 C 0.2840(2) -0.0791(2) 1.03251(18)
C59 C 0.2734(3) -0.1294(2) 1.07346(18)
H41 H 0.2461 -0.1137 1.0964
C60 C 0.3025(3) -0.2037(3) 1.0816(2)
H42 H 0.2960 -0.2377 1.1108
C61 C 0.3400(3) -0.2276(3) 1.0478(3)
H43 H 0.3599 -0.2780 1.0536
C62 C 0.3491(3) -0.1784(3) 1.0052(3)
H44 H 0.3744 -0.1951 0.9809
C63 C 0.3215(3) -0.1051(3) 0.9979(2)
H45 H 0.3283 -0.0714 0.9685
C64 C 0.4215(2) 0.0780(2) 0.90994(18)
H46 H 0.4313 0.1274 0.8979
C65 C 0.4461(3) -0.0583(2) 0.9222(2)
H47 H 0.4390 -0.0555 0.9614
H48 H 0.4880 -0.0918 0.9288
H49 H 0.4017 -0.0790 0.8878
C66 C 0.5204(3) 0.0265(3) 0.8857(2)
H50 H 0.5064 0.0029 0.8438
H51 H 0.5645 0.0011 0.9169
H52 H 0.5308 0.0812 0.8834
C67 C 0.1632(3) 0.3502(3) 1.0722(2)
H53 H 0.1919 0.3596 1.1162
C68 C 0.0606(3) 0.3891(3) 0.9729(2)
H54 H 0.0714 0.3396 0.9588
H55 H 0.0104 0.3885 0.9700
H56 H 0.0650 0.4301 0.9458
C69 C 0.1054(4) 0.4764(4) 1.0671(3)
H57 H 0.1433 0.4800 1.1108
H58 H 0.1112 0.5188 1.0418
H59 H 0.0567 0.4793 1.0672
C70 C 0.0434(2) 0.0601(2) 1.07882(19)
H60 H 0.0244 0.0658 1.0340
C71 C 0.0188(2) 0.0412(2) 1.17130(18)
H61 H 0.0725 0.0447 1.1932
H62 H -0.0032 0.0833 1.1853
H63 H 0.0026 -0.0080 1.1814
C72 C -0.0826(2) 0.0426(3) 1.0623(2)
H64 H -0.0907 0.0429 1.0176
H65 H -0.1026 -0.0049 1.0714
H66 H -0.1073 0.0868 1.0708
La3C La 0.204460(12) 0.343630(12) 0.596090(9)
O10C O 0.28394(14) 0.25573(14) 1.18157(11)
O12C O 0.13831(14) 0.22367(14) 1.15291(11)
O14C O 0.25919(14) 0.09939(14) 1.20366(11)
N4 N -0.2929(2) 0.0620(2) 0.31874(17)
O22 O -0.2137(3) 0.1547(3) 0.3772(2)
C73 C -0.2466(3) 0.1205(3) 0.3264(3)
H67 H -0.2386 0.1365 0.2906
C74 C -0.3092(3) 0.0354(3) 0.3705(2)
H68 H -0.3440 -0.0075 0.3558
H69 H -0.3309 0.0774 0.3850
H70 H -0.2637 0.0182 0.4057
C75 C -0.3285(3) 0.0243(3) 0.2583(2)
H71 H -0.3140 0.0490 0.2274
H72 H -0.3820 0.0280 0.2435
H73 H -0.3140 -0.0299 0.2628
loop_
_geom_bond_atom_site_label_1
_geom_bond_atom_site_label_2
_geom_bond_site_symmetry_1
_geom_bond_site_symmetry_2
La1 O1 1_555 1_555
O1 C1 1_555 1_555
N1 C64 1_555 1_555
C1 O2 1_555 1_555
La2 O4 1_555 1_555
O2 La1 1_555 1_555
N2 C67 1_555 1_555
C2 C1 1_555 1_555
La3 O1 1_555 1_555
O3 La1 1_555 1_555
N3 C70 1_555 1_555
C3 C2 1_555 1_555
H1 C3 1_555 1_555
O4 La1 1_555 1_555
N4 C73 1_555 1_555
C4 C3 1_555 1_555
H2 C4 1_555 1_555
O5 La1 1_555 1_555
C5 C4 1_555 1_555
H3 C5 1_555 1_555
O6 La2 1_555 1_555
C6 C5 1_555 1_555
H4 C6 1_555 1_555
O7 La1 1_555 1_555
C7 C2 1_555 1_555
H5 C7 1_555 1_555
O8 La2 1_555 1_555
C8 O3 1_555 1_555
O9 La2 1_555 1_555
C9 C8 1_555 1_555
O10 La2 1_555 1_555
C10 C9 1_555 1_555
H6 C10 1_555 1_555
O11 La2 1_555 1_555
C11 C10 1_555 1_555
H7 C11 1_555 1_555
O12 La2 1_555 1_555
C12 C11 1_555 1_555
H8 C12 1_555 1_555
O13 La2 1_555 1_555
C13 C12 1_555 1_555
H9 C13 1_555 1_555
O14 La2 1_555 1_555
C14 C9 1_555 1_555
H10 C14 1_555 1_555
O15 La3 1_555 1_555
C15 O5 1_555 1_555
O16 La1 1_555 1_555
C16 C15 1_555 1_555
O17 La3 1_555 1_555
C17 C16 1_555 1_555
H11 C17 1_555 1_555
O18 La1 1_555 1_555
C18 C17 1_555 1_555
H12 C18 1_555 1_555
O19 La1 1_555 1_555
C19 C18 1_555 1_555
H13 C19 1_555 1_555
O20 La3 1_555 1_555
C20 C19 1_555 1_555
H14 C20 1_555 1_555
O21 La3 1_555 1_555
C21 C16 1_555 1_555
H15 C21 1_555 1_555
O22 C73 1_555 1_555
C22 O7 1_555 1_555
C23 C22 1_555 1_555
C24 C23 1_555 1_555
H16 C24 1_555 1_555
C25 C24 1_555 1_555
H17 C25 1_555 1_555
C26 C25 1_555 1_555
H18 C26 1_555 1_555
C27 C26 1_555 1_555
H19 C27 1_555 1_555
C28 C23 1_555 1_555
H20 C28 1_555 1_555
C29 O9 1_555 1_555
C30 C29 1_555 1_555
C31 C30 1_555 1_555
H21 C31 1_555 1_555
C32 C31 1_555 1_555
H22 C32 1_555 1_555
C33 C32 1_555 1_555
H23 C33 1_555 1_555
C34 C33 1_555 1_555
H24 C34 1_555 1_555
C35 C30 1_555 1_555
H25 C35 1_555 1_555
C36 O11 1_555 1_555
C37 C36 1_555 1_555
C38 C37 1_555 1_555
H26 C38 1_555 1_555
C39 C38 1_555 1_555
H27 C39 1_555 1_555
C40 C39 1_555 1_555
H28 C40 1_555 1_555
C41 C40 1_555 1_555
H29 C41 1_555 1_555
C42 C37 1_555 1_555
H30 C42 1_555 1_555
C43 O13 1_555 1_555
C44 C43 1_555 1_555
C45 C44 1_555 1_555
H31 C45 1_555 1_555
C46 C45 1_555 1_555
H32 C46 1_555 1_555
C47 C46 1_555 1_555
H33 C47 1_555 1_555
C48 C47 1_555 1_555
H34 C48 1_555 1_555
C49 C44 1_555 1_555
H35 C49 1_555 1_555
C50 O15 1_555 1_555
C51 C50 1_555 1_555
C52 C51 1_555 1_555
H36 C52 1_555 1_555
C53 C52 1_555 1_555
H37 C53 1_555 1_555
C54 C53 1_555 1_555
H38 C54 1_555 1_555
C55 C54 1_555 1_555
H39 C55 1_555 1_555
C56 C51 1_555 1_555
H40 C56 1_555 1_555
C57 O17 1_555 1_555
C58 C57 1_555 1_555
C59 C58 1_555 1_555
H41 C59 1_555 1_555
C60 C59 1_555 1_555
H42 C60 1_555 1_555
C61 C60 1_555 1_555
H43 C61 1_555 1_555
C62 C61 1_555 1_555
H44 C62 1_555 1_555
C63 C58 1_555 1_555
H45 C63 1_555 1_555
C64 O19 1_555 1_555
H46 C64 1_555 1_555
C65 N1 1_555 1_555
H47 C65 1_555 1_555
H48 C65 1_555 1_555
H49 C65 1_555 1_555
C66 N1 1_555 1_555
H50 C66 1_555 1_555
H51 C66 1_555 1_555
H52 C66 1_555 1_555
C67 O20 1_555 1_555
H53 C67 1_555 1_555
C68 N2 1_555 1_555
H54 C68 1_555 1_555
H55 C68 1_555 1_555
H56 C68 1_555 1_555
C69 N2 1_555 1_555
H57 C69 1_555 1_555
H58 C69 1_555 1_555
H59 C69 1_555 1_555
C70 O21 1_555 1_555
H60 C70 1_555 1_555
C71 N3 1_555 1_555
H61 C71 1_555 1_555
H62 C71 1_555 1_555
H63 C71 1_555 1_555
C72 N3 1_555 1_555
H64 C72 1_555 1_555
H65 C72 1_555 1_555
H66 C72 1_555 1_555
C73 H67 1_555 1_555
C74 N4 1_555 1_555
H68 C74 1_555 1_555
H69 C74 1_555 1_555
H70 C74 1_555 1_555
C75 N4 1_555 1_555
H71 C75 1_555 1_555
H72 C75 1_555 1_555
H73 C75 1_555 1_555
La3C O10 1_555 1_555
O10C La3 1_555 1_555
O12C La3 1_555 1_555
O14C La3 1_555 1_555
La2 O5 1_555 1_555
La2 O7 1_555 1_555
La3 O16 1_555 1_555
O4 C8 1_555 1_555
O6 C15 1_555 1_555
C6 C7 1_555 1_555
O8 C22 1_555 1_555
O10 C29 1_555 1_555
O12 C36 1_555 1_555
O12 La3C 1_555 1_555
C13 C14 1_555 1_555
O14 C43 1_555 1_555
O14 La3C 1_555 1_555
O16 C50 1_555 1_555
O18 C57 1_555 1_555
C20 C21 1_555 1_555
C27 C28 1_555 1_555
C34 C35 1_555 1_555
C41 C42 1_555 1_555
C48 C49 1_555 1_555
C55 C56 1_555 1_555
C62 C63 1_555 1_555

#END
