
#######################################################################
#
#                 Cambridge Crystallographic Data Centre
#                                CCDC 
#
#######################################################################
#
# If this CIF has been generated from an entry in the Cambridge 
# Structural Database, then it will include bibliographic, chemical, 
# crystal, experimental, refinement or atomic coordinate data resulting 
# from the CCDC's data processing and validation procedures.
#
#######################################################################

data_RIDSAZ
_symmetry_cell_setting           orthorhombic
_symmetry_space_group_name_H-M   'P b c a'
_symmetry_Int_Tables_number      61
_space_group_name_Hall           '-P 2ac 2ab'
loop_
_symmetry_equiv_pos_site_id
_symmetry_equiv_pos_as_xyz
1 x,y,z
2 1/2-x,-y,1/2+z
3 1/2+x,1/2-y,-z
4 -x,1/2+y,1/2-z
5 -x,-y,-z
6 1/2+x,y,1/2-z
7 1/2-x,1/2+y,z
8 x,1/2-y,1/2+z
_cell_length_a                   24.9553(11)
_cell_length_b                   8.0474(3)
_cell_length_c                   30.6790(13)
_cell_angle_alpha                90
_cell_angle_beta                 90
_cell_angle_gamma                90
_cell_volume                     6161.12
loop_
_atom_site_label
_atom_site_type_symbol
_atom_site_fract_x
_atom_site_fract_y
_atom_site_fract_z
La1 La 0.27562(3) 0.42946(10) 0.11156(3)
O1 O 0.3324(4) 0.6164(12) 0.1671(3)
N1 N 0.4202(6) 0.7210(17) 0.2096(4)
H1 H 0.3945 0.6459 0.2088
C1 C 0.3409(5) 0.7233(16) 0.1391(4)
O2 O 0.3063(3) 0.7464(11) 0.1061(3)
N2 N 0.2311(5) 0.4643(15) -0.0555(4)
H2 H 0.2533 0.4335 -0.0348
C2 C 0.3914(6) 0.8247(17) 0.1379(5)
O3 O 0.2509(4) 0.4708(11) 0.0311(3)
N3 N 0.1970(5) 0.3340(16) 0.2526(5)
H3 H 0.2105 0.3247 0.2262
C3 C 0.4292(6) 0.815(2) 0.1727(5)
O4 O 0.2086(4) 0.6480(12) 0.0719(3)
N4 N 0.4601(5) 0.4450(16) 0.1249(4)
C4 C 0.4771(6) 0.9055(19) 0.1691(5)
H4 H 0.5029 0.9018 0.1918
O5 O 0.2179(4) 0.4809(11) 0.1760(3)
C5 C 0.4865(7) 1.002(2) 0.1318(6)
H5 H 0.5192 1.0617 0.1295
O6 O 0.1929(4) 0.7373(13) 0.1668(3)
C6 C 0.4497(6) 1.0109(19) 0.0985(5)
H6 H 0.4569 1.0760 0.0733
O7 O 0.3764(4) 0.4208(13) 0.0983(3)
C7 C 0.4016(6) 0.924(2) 0.1022(5)
H7 H 0.3755 0.9324 0.0798
C8 C 0.4503(8) 0.739(3) 0.2489(6)
H8 H 0.4847 0.6818 0.2459
H9 H 0.4302 0.6910 0.2732
H10 H 0.4566 0.8575 0.2545
C9 C 0.2152(5) 0.5794(19) 0.0359(4)
C10 C 0.1797(6) 0.6192(16) -0.0010(4)
C11 C 0.1879(6) 0.560(2) -0.0448(5)
C12 C 0.1506(6) 0.6067(17) -0.0768(5)
H11 H 0.1559 0.5714 -0.1061
C13 C 0.1061(6) 0.704(2) -0.0666(5)
H12 H 0.0809 0.7305 -0.0887
C14 C 0.0982(6) 0.762(2) -0.0248(5)
H13 H 0.0683 0.8306 -0.0182
C15 C 0.1347(6) 0.7196(19) 0.0074(5)
H14 H 0.1291 0.7595 0.0362
C16 C 0.2416(6) 0.412(2) -0.0997(5)
H15 H 0.2122 0.3415 -0.1100
H16 H 0.2752 0.3485 -0.1005
H17 H 0.2448 0.5095 -0.1185
C17 C 0.1968(6) 0.6128(18) 0.1890(5)
C18 C 0.1716(7) 0.614(2) 0.2347(5)
C19 C 0.1729(6) 0.4780(17) 0.2634(5)
C20 C 0.1496(7) 0.498(2) 0.3042(6)
H18 H 0.1494 0.4081 0.3242
C21 C 0.1271(7) 0.646(2) 0.3156(6)
H19 H 0.1130 0.6566 0.3442
C22 C 0.1235(7) 0.780(2) 0.2879(6)
H20 H 0.1059 0.8794 0.2965
C23 C 0.1473(6) 0.763(2) 0.2462(5)
H21 H 0.1467 0.8535 0.2262
C24 C 0.2019(8) 0.192(3) 0.2822(7)
H22 H 0.2283 0.2172 0.3049
H23 H 0.2136 0.0940 0.2657
H24 H 0.1671 0.1691 0.2957
C25 C 0.4103(5) 0.3969(15) 0.1258(4)
H25 H 0.3993 0.3362 0.1508
C26 C 0.4807(7) 0.530(2) 0.0865(5)
H26 H 0.4582 0.5030 0.0613
H27 H 0.5175 0.4940 0.0809
H28 H 0.4801 0.6503 0.0914
C27 C 0.4957(6) 0.419(2) 0.1625(5)
H29 H 0.4769 0.3543 0.1848
H30 H 0.5063 0.5268 0.1746
H31 H 0.5277 0.3584 0.1530
La1F La 0.22438(3) 0.92946(10) 0.11156(3)
O2F O 0.1937(3) 0.2464(11) 0.1061(3)
O4F O 0.2914(4) 0.1480(12) 0.0719(3)
O6F O 0.3071(4) 0.2373(13) 0.1668(3)
N5 N 0.1079(5) 0.2862(17) 0.4669(4)
O8 O 0.0987(5) 0.2820(16) 0.3937(4)
C28 C 0.1243(7) 0.323(2) 0.4270(5)
H32 H 0.1568 0.3834 0.4235
C29 C 0.0607(7) 0.186(2) 0.4754(6)
H33 H 0.0380 0.2427 0.4970
H34 H 0.0715 0.0776 0.4868
H35 H 0.0405 0.1713 0.4483
C30 C 0.1438(7) 0.328(2) 0.5029(6)
H36 H 0.1600 0.2264 0.5144
H37 H 0.1234 0.3835 0.5260
H38 H 0.1720 0.4028 0.4924
loop_
_geom_bond_atom_site_label_1
_geom_bond_atom_site_label_2
_geom_bond_site_symmetry_1
_geom_bond_site_symmetry_2
La1 O1 1_555 1_555
O1 C1 1_555 1_555
N1 H1 1_555 1_555
C1 O2 1_555 1_555
O2 La1 1_555 1_555
N2 H2 1_555 1_555
C2 C1 1_555 1_555
O3 La1 1_555 1_555
N3 H3 1_555 1_555
C3 N1 1_555 1_555
O4 La1 1_555 1_555
N4 C25 1_555 1_555
C4 C3 1_555 1_555
H4 C4 1_555 1_555
O5 La1 1_555 1_555
N5 C28 1_555 1_555
C5 C4 1_555 1_555
H5 C5 1_555 1_555
O6 C17 1_555 1_555
C6 C5 1_555 1_555
H6 C6 1_555 1_555
O7 La1 1_555 1_555
C7 C2 1_555 1_555
H7 C7 1_555 1_555
O8 C28 1_555 1_555
C8 N1 1_555 1_555
H8 C8 1_555 1_555
H9 C8 1_555 1_555
H10 C8 1_555 1_555
C9 O3 1_555 1_555
C10 C9 1_555 1_555
C11 N2 1_555 1_555
C12 C11 1_555 1_555
H11 C12 1_555 1_555
C13 C12 1_555 1_555
H12 C13 1_555 1_555
C14 C13 1_555 1_555
H13 C14 1_555 1_555
C15 C10 1_555 1_555
H14 C15 1_555 1_555
C16 N2 1_555 1_555
H15 C16 1_555 1_555
H16 C16 1_555 1_555
H17 C16 1_555 1_555
C17 O5 1_555 1_555
C18 C17 1_555 1_555
C19 N3 1_555 1_555
C20 C19 1_555 1_555
H18 C20 1_555 1_555
C21 C20 1_555 1_555
H19 C21 1_555 1_555
C22 C21 1_555 1_555
H20 C22 1_555 1_555
C23 C18 1_555 1_555
H21 C23 1_555 1_555
C24 N3 1_555 1_555
H22 C24 1_555 1_555
H23 C24 1_555 1_555
H24 C24 1_555 1_555
C25 O7 1_555 1_555
H25 C25 1_555 1_555
C26 N4 1_555 1_555
H26 C26 1_555 1_555
H27 C26 1_555 1_555
H28 C26 1_555 1_555
C27 N4 1_555 1_555
H29 C27 1_555 1_555
H30 C27 1_555 1_555
H31 C27 1_555 1_555
C28 H32 1_555 1_555
C29 N5 1_555 1_555
H33 C29 1_555 1_555
H34 C29 1_555 1_555
H35 C29 1_555 1_555
C30 N5 1_555 1_555
H36 C30 1_555 1_555
H37 C30 1_555 1_555
H38 C30 1_555 1_555
La1F O2 1_555 1_555
O2F La1 1_555 1_555
O4F La1 1_555 1_555
O6F La1 1_555 1_555
C2 C3 1_555 1_555
O4 C9 1_555 1_555
O4 La1F 1_555 1_555
O6 La1F 1_555 1_555
C6 C7 1_555 1_555
C10 C11 1_555 1_555
C14 C15 1_555 1_555
C18 C19 1_555 1_555
C22 C23 1_555 1_555

#END
