
#######################################################################
#
#                 Cambridge Crystallographic Data Centre
#                                CCDC 
#
#######################################################################
#
# If this CIF has been generated from an entry in the Cambridge 
# Structural Database, then it will include bibliographic, chemical, 
# crystal, experimental, refinement or atomic coordinate data resulting 
# from the CCDC's data processing and validation procedures.
#
#######################################################################

data_RIFDUG01
_symmetry_cell_setting           cubic
_symmetry_space_group_name_H-M   'F m -3 m'
_symmetry_Int_Tables_number      225
_space_group_name_Hall           '-F 4 2 3'
loop_
_symmetry_equiv_pos_site_id
_symmetry_equiv_pos_as_xyz
1 x,y,z
2 -x,-y,z
3 x,-y,-z
4 -x,y,-z
5 z,x,y
6 y,z,x
7 -z,-x,y
8 -y,z,-x
9 z,-x,-y
10 -y,-z,x
11 -z,x,-y
12 y,-z,-x
13 -y,-x,-z
14 y,x,-z
15 y,-x,z
16 -y,x,z
17 -x,-z,-y
18 -z,-y,-x
19 x,z,-y
20 -z,y,x
21 x,-z,y
22 z,y,-x
23 -x,z,y
24 z,-y,x
25 x,1/2+y,1/2+z
26 -x,1/2-y,1/2+z
27 x,1/2-y,1/2-z
28 -x,1/2+y,1/2-z
29 z,1/2+x,1/2+y
30 y,1/2+z,1/2+x
31 -z,1/2-x,1/2+y
32 -y,1/2+z,1/2-x
33 z,1/2-x,1/2-y
34 -y,1/2-z,1/2+x
35 -z,1/2+x,1/2-y
36 y,1/2-z,1/2-x
37 -y,1/2-x,1/2-z
38 y,1/2+x,1/2-z
39 y,1/2-x,1/2+z
40 -y,1/2+x,1/2+z
41 -x,1/2-z,1/2-y
42 -z,1/2-y,1/2-x
43 x,1/2+z,1/2-y
44 -z,1/2+y,1/2+x
45 x,1/2-z,1/2+y
46 z,1/2+y,1/2-x
47 -x,1/2+z,1/2+y
48 z,1/2-y,1/2+x
49 1/2+x,y,1/2+z
50 1/2-x,-y,1/2+z
51 1/2+x,-y,1/2-z
52 1/2-x,y,1/2-z
53 1/2+z,x,1/2+y
54 1/2+y,z,1/2+x
55 1/2-z,-x,1/2+y
56 1/2-y,z,1/2-x
57 1/2+z,-x,1/2-y
58 1/2-y,-z,1/2+x
59 1/2-z,x,1/2-y
60 1/2+y,-z,1/2-x
61 1/2-y,-x,1/2-z
62 1/2+y,x,1/2-z
63 1/2+y,-x,1/2+z
64 1/2-y,x,1/2+z
65 1/2-x,-z,1/2-y
66 1/2-z,-y,1/2-x
67 1/2+x,z,1/2-y
68 1/2-z,y,1/2+x
69 1/2+x,-z,1/2+y
70 1/2+z,y,1/2-x
71 1/2-x,z,1/2+y
72 1/2+z,-y,1/2+x
73 1/2+x,1/2+y,z
74 1/2-x,1/2-y,z
75 1/2+x,1/2-y,-z
76 1/2-x,1/2+y,-z
77 1/2+z,1/2+x,y
78 1/2+y,1/2+z,x
79 1/2-z,1/2-x,y
80 1/2-y,1/2+z,-x
81 1/2+z,1/2-x,-y
82 1/2-y,1/2-z,x
83 1/2-z,1/2+x,-y
84 1/2+y,1/2-z,-x
85 1/2-y,1/2-x,-z
86 1/2+y,1/2+x,-z
87 1/2+y,1/2-x,z
88 1/2-y,1/2+x,z
89 1/2-x,1/2-z,-y
90 1/2-z,1/2-y,-x
91 1/2+x,1/2+z,-y
92 1/2-z,1/2+y,x
93 1/2+x,1/2-z,y
94 1/2+z,1/2+y,-x
95 1/2-x,1/2+z,y
96 1/2+z,1/2-y,x
97 -x,-y,-z
98 x,y,-z
99 -x,y,z
100 x,-y,z
101 -z,-x,-y
102 -y,-z,-x
103 z,x,-y
104 y,-z,x
105 -z,x,y
106 y,z,-x
107 z,-x,y
108 -y,z,x
109 y,x,z
110 -y,-x,z
111 -y,x,-z
112 y,-x,-z
113 x,z,y
114 z,y,x
115 -x,-z,y
116 z,-y,-x
117 -x,z,-y
118 -z,-y,x
119 x,-z,-y
120 -z,y,-x
121 -x,1/2-y,1/2-z
122 x,1/2+y,1/2-z
123 -x,1/2+y,1/2+z
124 x,1/2-y,1/2+z
125 -z,1/2-x,1/2-y
126 -y,1/2-z,1/2-x
127 z,1/2+x,1/2-y
128 y,1/2-z,1/2+x
129 -z,1/2+x,1/2+y
130 y,1/2+z,1/2-x
131 z,1/2-x,1/2+y
132 -y,1/2+z,1/2+x
133 y,1/2+x,1/2+z
134 -y,1/2-x,1/2+z
135 -y,1/2+x,1/2-z
136 y,1/2-x,1/2-z
137 x,1/2+z,1/2+y
138 z,1/2+y,1/2+x
139 -x,1/2-z,1/2+y
140 z,1/2-y,1/2-x
141 -x,1/2+z,1/2-y
142 -z,1/2-y,1/2+x
143 x,1/2-z,1/2-y
144 -z,1/2+y,1/2-x
145 1/2-x,-y,1/2-z
146 1/2+x,y,1/2-z
147 1/2-x,y,1/2+z
148 1/2+x,-y,1/2+z
149 1/2-z,-x,1/2-y
150 1/2-y,-z,1/2-x
151 1/2+z,x,1/2-y
152 1/2+y,-z,1/2+x
153 1/2-z,x,1/2+y
154 1/2+y,z,1/2-x
155 1/2+z,-x,1/2+y
156 1/2-y,z,1/2+x
157 1/2+y,x,1/2+z
158 1/2-y,-x,1/2+z
159 1/2-y,x,1/2-z
160 1/2+y,-x,1/2-z
161 1/2+x,z,1/2+y
162 1/2+z,y,1/2+x
163 1/2-x,-z,1/2+y
164 1/2+z,-y,1/2-x
165 1/2-x,z,1/2-y
166 1/2-z,-y,1/2+x
167 1/2+x,-z,1/2-y
168 1/2-z,y,1/2-x
169 1/2-x,1/2-y,-z
170 1/2+x,1/2+y,-z
171 1/2-x,1/2+y,z
172 1/2+x,1/2-y,z
173 1/2-z,1/2-x,-y
174 1/2-y,1/2-z,-x
175 1/2+z,1/2+x,-y
176 1/2+y,1/2-z,x
177 1/2-z,1/2+x,y
178 1/2+y,1/2+z,-x
179 1/2+z,1/2-x,y
180 1/2-y,1/2+z,x
181 1/2+y,1/2+x,z
182 1/2-y,1/2-x,z
183 1/2-y,1/2+x,-z
184 1/2+y,1/2-x,-z
185 1/2+x,1/2+z,y
186 1/2+z,1/2+y,x
187 1/2-x,1/2-z,y
188 1/2+z,1/2-y,-x
189 1/2-x,1/2+z,-y
190 1/2-z,1/2-y,x
191 1/2+x,1/2-z,-y
192 1/2-z,1/2+y,-x
_cell_length_a                   26.540(5)
_cell_length_b                   26.540(5)
_cell_length_c                   26.540(5)
_cell_angle_alpha                90
_cell_angle_beta                 90
_cell_angle_gamma                90
_cell_volume                     18694
loop_
_atom_site_label
_atom_site_type_symbol
_atom_site_fract_x
_atom_site_fract_y
_atom_site_fract_z
O1 O 0.24240(14) 0.94682(12) 0.18283(16)
Zn1 Zn 0.289580(17) 1.0000 0.210420(17)
C1 C 0.20304(19) 0.9302(2) 0.20304(19)
C2 C 0.17898(16) 0.8857(2) 0.17898(16)
C3 C 0.2003(2) 0.86424(16) 0.13576(16)
H1 H 0.2293 0.8791 0.1209
O2 O 0.3408(2) 1.0000 0.1592(2)
O1ID O 0.18283(16) 0.94682(12) 0.24240(14)
O1H O 0.18283(16) 0.75760(14) 0.05318(12)
O1ND O 0.24240(14) 0.81717(16) 0.05318(12)
O1I O 0.05318(12) 0.81717(16) 0.24240(14)
O1ED O 0.05318(12) 0.75760(14) 0.18283(16)
O1MB O 0.31717(16) 1.05318(12) 0.25760(14)
O1NE O 0.25760(14) 1.05318(12) 0.31717(16)
O1IB O 0.44682(12) 1.24240(14) 0.31717(16)
O1WE O 0.44682(12) 1.18283(16) 0.25760(14)
O1RB O 0.25760(14) 1.18283(16) 0.44682(12)
O1VE O 0.31717(16) 1.24240(14) 0.44682(12)
O1UC O 0.24240(14) 1.05318(12) 0.18283(16)
O1W O 0.18283(16) 1.05318(12) 0.24240(14)
O1XC O 0.18283(16) 1.24240(14) 0.05318(12)
O1R O 0.24240(14) 1.18283(16) 0.05318(12)
O1CD O 0.05318(12) 1.18283(16) 0.24240(14)
O1O O 0.05318(12) 1.24240(14) 0.18283(16)
O1KF O 0.31717(16) 0.94682(12) 0.25760(14)
O1YA O 0.25760(14) 0.94682(12) 0.31717(16)
O1CF O 0.44682(12) 0.75760(14) 0.31717(16)
O1GB O 0.44682(12) 0.81717(16) 0.25760(14)
O1FF O 0.25760(14) 0.81717(16) 0.44682(12)
O1BB O 0.31717(16) 0.75760(14) 0.44682(12)
O1PC O 0.25760(14) 0.68283(16) -0.05318(12)
O1BD O 0.18283(16) 0.75760(14) -0.05318(12)
O1FG O 0.25760(14) 0.68283(16) 0.05318(12)
O1TF O 0.31717(16) 0.74240(14) -0.05318(12)
O1T O 0.24240(14) 0.81717(16) -0.05318(12)
O1DC O 0.31717(16) 0.74240(14) 0.05318(12)
O1KA O -0.05318(12) 0.74240(14) 0.31717(16)
O1YC O -0.05318(12) 0.81717(16) 0.24240(14)
O1DE O 0.05318(12) 0.74240(14) 0.31717(16)
O1YD O -0.05318(12) 0.68283(16) 0.25760(14)
O1N O -0.05318(12) 0.75760(14) 0.18283(16)
O1EA O 0.05318(12) 0.68283(16) 0.25760(14)
Zn1W Zn 0.210420(17) 1.0000 0.289580(17)
Zn1H Zn 0.210420(17) 0.710420(17) 0.0000
Zn1T Zn 0.289580(17) 0.789580(17) 0.0000
Zn1I Zn 0.0000 0.789580(17) 0.289580(17)
Zn1N Zn 0.0000 0.710420(17) 0.210420(17)
Zn1IB Zn 0.5000 1.289580(17) 0.289580(17)
Zn1CB Zn 0.5000 1.210420(17) 0.210420(17)
Zn1FA Zn 0.210420(17) 1.210420(17) 0.5000
Zn1RA Zn 0.289580(17) 1.289580(17) 0.5000
Zn1D Zn 0.210420(17) 1.289580(17) 0.0000
Zn1R Zn 0.289580(17) 1.210420(17) 0.0000
Zn1E Zn 0.0000 1.210420(17) 0.289580(17)
Zn1O Zn 0.0000 1.289580(17) 0.210420(17)
Zn1HB Zn 0.5000 0.710420(17) 0.289580(17)
Zn1GB Zn 0.5000 0.789580(17) 0.210420(17)
Zn1BA Zn 0.210420(17) 0.789580(17) 0.5000
Zn1PA Zn 0.289580(17) 0.710420(17) 0.5000
C1H C 0.20304(19) 0.79696(19) 0.0698(2)
C1I C 0.0698(2) 0.79696(19) 0.20304(19)
C1MB C 0.29696(19) 1.0698(2) 0.29696(19)
C1IB C 0.4302(2) 1.20304(19) 0.29696(19)
C1RB C 0.29696(19) 1.20304(19) 0.4302(2)
C1W C 0.20304(19) 1.0698(2) 0.20304(19)
C1R C 0.20304(19) 1.20304(19) 0.0698(2)
C1O C 0.0698(2) 1.20304(19) 0.20304(19)
C1YA C 0.29696(19) 0.9302(2) 0.29696(19)
C1GB C 0.4302(2) 0.79696(19) 0.29696(19)
C1BB C 0.29696(19) 0.79696(19) 0.4302(2)
C2H C 0.17898(16) 0.82102(16) 0.1143(2)
C2I C 0.1143(2) 0.82102(16) 0.17898(16)
C2MB C 0.32102(16) 1.1143(2) 0.32102(16)
C2IB C 0.3857(2) 1.17898(16) 0.32102(16)
C2RB C 0.32102(16) 1.17898(16) 0.3857(2)
C2W C 0.17898(16) 1.1143(2) 0.17898(16)
C2R C 0.17898(16) 1.17898(16) 0.1143(2)
C2O C 0.1143(2) 1.17898(16) 0.17898(16)
C2YA C 0.32102(16) 0.8857(2) 0.32102(16)
C2GB C 0.3857(2) 0.82102(16) 0.32102(16)
C2BB C 0.32102(16) 0.82102(16) 0.3857(2)
C3H C 0.13576(16) 0.7997(2) 0.13576(16)
C3I C 0.13576(16) 0.86424(16) 0.2003(2)
C3MB C 0.36424(16) 1.13576(16) 0.2997(2)
C3IB C 0.36424(16) 1.2003(2) 0.36424(16)
C3RB C 0.2997(2) 1.13576(16) 0.36424(16)
C3R C 0.2003(2) 1.13576(16) 0.13576(16)
C3O C 0.13576(16) 1.2003(2) 0.13576(16)
C3W C 0.13576(16) 1.13576(16) 0.2003(2)
C3GB C 0.36424(16) 0.86424(16) 0.2997(2)
C3BB C 0.36424(16) 0.7997(2) 0.36424(16)
C3YA C 0.2997(2) 0.86424(16) 0.36424(16)
H1I H 0.1209 0.8791 0.2293
H1H H 0.1209 0.7707 0.1209
H1MB H 0.3791 1.1209 0.2707
H1RB H 0.2707 1.1209 0.3791
H1IB H 0.3791 1.2293 0.3791
H1R H 0.2293 1.1209 0.1209
H1W H 0.1209 1.1209 0.2293
H1O H 0.1209 1.2293 0.1209
H1GB H 0.3791 0.8791 0.2707
H1YA H 0.2707 0.8791 0.3791
H1BB H 0.3791 0.7707 0.3791
O2W O 0.1592(2) 1.0000 0.3408(2)
O2H O 0.1592(2) 0.6592(2) 0.0000
O2T O 0.3408(2) 0.8408(2) 0.0000
O2I O 0.0000 0.8408(2) 0.3408(2)
O2N O 0.0000 0.6592(2) 0.1592(2)
loop_
_geom_bond_atom_site_label_1
_geom_bond_atom_site_label_2
_geom_bond_site_symmetry_1
_geom_bond_site_symmetry_2
O1 Zn1 1_555 1_555
Zn1 O2 1_555 1_555
C1 O1 1_555 1_555
C2 C1 1_555 1_555
C3 C2 1_555 1_555
H1 C3 1_555 1_555
O1ID C1 1_555 1_555
O1H Zn1H 1_555 1_555
O1ND Zn1T 1_555 1_555
O1I Zn1I 1_555 1_555
O1ED Zn1N 1_555 1_555
O1MB Zn1 1_555 1_555
O1NE Zn1W 1_555 1_555
O1IB Zn1IB 1_555 1_555
O1WE Zn1CB 1_555 1_555
O1RB Zn1FA 1_555 1_555
O1VE Zn1RA 1_555 1_555
O1UC Zn1 1_555 1_555
O1W Zn1W 1_555 1_555
O1XC Zn1D 1_555 1_555
O1R Zn1R 1_555 1_555
O1CD Zn1E 1_555 1_555
O1O Zn1O 1_555 1_555
O1KF Zn1 1_555 1_555
O1YA Zn1W 1_555 1_555
O1CF Zn1HB 1_555 1_555
O1GB Zn1GB 1_555 1_555
O1FF Zn1BA 1_555 1_555
O1BB Zn1PA 1_555 1_555
O1PC Zn1H 1_555 1_555
O1BD Zn1H 1_555 1_555
O1FG Zn1H 1_555 1_555
O1TF Zn1T 1_555 1_555
O1T Zn1T 1_555 1_555
O1DC Zn1T 1_555 1_555
O1KA Zn1I 1_555 1_555
O1YC Zn1I 1_555 1_555
O1DE Zn1I 1_555 1_555
O1YD Zn1N 1_555 1_555
O1N Zn1N 1_555 1_555
O1EA Zn1N 1_555 1_555
Zn1W O1ID 1_555 1_555
Zn1H O2H 1_555 1_555
Zn1T O2T 1_555 1_555
Zn1I O2I 1_555 1_555
Zn1N O2N 1_555 1_555
C1H O1H 1_555 1_555
C1I O1I 1_555 1_555
C1MB O1MB 1_555 1_555
C1IB O1IB 1_555 1_555
C1RB O1RB 1_555 1_555
C1W O1UC 1_555 1_555
C1R O1XC 1_555 1_555
C1O O1CD 1_555 1_555
C1YA O1KF 1_555 1_555
C1GB O1CF 1_555 1_555
C1BB O1FF 1_555 1_555
C2H C3 1_555 1_555
C2I C1I 1_555 1_555
C2MB C1MB 1_555 1_555
C2IB C1IB 1_555 1_555
C2RB C1RB 1_555 1_555
C2W C1W 1_555 1_555
C2R C1R 1_555 1_555
C2O C1O 1_555 1_555
C2YA C1YA 1_555 1_555
C2GB C1GB 1_555 1_555
C2BB C1BB 1_555 1_555
C3H C2H 1_555 1_555
C3I C2 1_555 1_555
C3MB C2MB 1_555 1_555
C3IB C2IB 1_555 1_555
C3RB C2MB 1_555 1_555
C3R C2W 1_555 1_555
C3O C2R 1_555 1_555
C3W C2W 1_555 1_555
C3GB C2YA 1_555 1_555
C3BB C2GB 1_555 1_555
C3YA C2YA 1_555 1_555
H1I C3I 1_555 1_555
H1H C3H 1_555 1_555
H1MB C3MB 1_555 1_555
H1RB C3RB 1_555 1_555
H1IB C3IB 1_555 1_555
H1R C3R 1_555 1_555
H1W C3W 1_555 1_555
H1O C3O 1_555 1_555
H1GB C3GB 1_555 1_555
H1YA C3YA 1_555 1_555
H1BB C3BB 1_555 1_555
O2W Zn1W 1_555 1_555
O1ND C1H 1_555 1_555
O1ED C1I 1_555 1_555
O1NE C1MB 1_555 1_555
O1WE C1IB 1_555 1_555
O1VE C1RB 1_555 1_555
O1W C1W 1_555 1_555
O1R C1R 1_555 1_555
O1O C1O 1_555 1_555
O1YA C1YA 1_555 1_555
O1GB C1GB 1_555 1_555
O1BB C1BB 1_555 1_555
C1H C2H 1_555 1_555
C2I C3H 1_555 1_555
C2I C3I 1_555 1_555
C2IB C3MB 1_555 1_555
C2RB C3IB 1_555 1_555
C2RB C3RB 1_555 1_555
C2R C3R 1_555 1_555
C2O C3O 1_555 1_555
C2O C3W 1_555 1_555
C2GB C3GB 1_555 1_555
C2BB C3BB 1_555 1_555
C2BB C3YA 1_555 1_555

#END
