
#######################################################################
#
#                 Cambridge Crystallographic Data Centre
#                                CCDC 
#
#######################################################################
#
# If this CIF has been generated from an entry in the Cambridge 
# Structural Database, then it will include bibliographic, chemical, 
# crystal, experimental, refinement or atomic coordinate data resulting 
# from the CCDC's data processing and validation procedures.
#
#######################################################################

data_RIFFET
_symmetry_cell_setting           monoclinic
_symmetry_space_group_name_H-M   'P 21/a'
_symmetry_Int_Tables_number      14
_space_group_name_Hall           '-P 2yab'
loop_
_symmetry_equiv_pos_site_id
_symmetry_equiv_pos_as_xyz
1 x,y,z
2 1/2-x,1/2+y,-z
3 -x,-y,-z
4 1/2+x,1/2-y,z
_cell_length_a                   12.8148(3)
_cell_length_b                   7.8527(2)
_cell_length_c                   15.7800(4)
_cell_angle_alpha                90
_cell_angle_beta                 102.347(2)
_cell_angle_gamma                90
_cell_volume                     1551.23
loop_
_atom_site_label
_atom_site_type_symbol
_atom_site_fract_x
_atom_site_fract_y
_atom_site_fract_z
N1 N -0.02075(16) 0.4223(2) 0.34734(12)
C1 C -0.05343(18) 0.2884(3) 0.35672(14)
N2 N -0.09763(18) 0.1444(3) 0.37180(15)
C2 C -0.06285(17) -0.0032(3) 0.34956(14)
N3 N -0.04200(16) -0.1385(3) 0.33145(14)
Cu1 Cu 0.02574(2) 0.60176(3) 0.272466(16)
O1 O -0.09437(11) 0.54656(19) 0.18371(9)
N4 N 0.09244(13) 0.7221(2) 0.19063(11)
N5 N 0.16914(15) 0.6447(3) 0.35726(12)
H1 H 0.216(2) 0.553(3) 0.356(2)
C3 C 0.20105(16) 0.7821(3) 0.22815(13)
H2 H 0.2141 0.8926 0.2019
H3 H 0.2542 0.6989 0.2163
C4 C -0.04410(15) 0.6789(2) 0.06037(13)
C5 C 0.05604(16) 0.7410(2) 0.10867(13)
H4 H 0.0997 0.8017 0.0773
C6 C -0.07414(16) 0.7084(2) -0.03247(13)
C7 C -0.01417(18) 0.8131(3) -0.07822(14)
H5 H 0.0491 0.8665 -0.0473
C8 C -0.16818(17) 0.6326(3) -0.08196(14)
C9 C -0.11100(15) 0.5791(2) 0.10138(13)
C10 C -0.20520(16) 0.5043(3) 0.04815(14)
H6 H -0.2503 0.4362 0.0748
C11 C -0.19951(19) 0.6634(3) -0.17155(14)
H7 H -0.2635 0.6135 -0.2035
C12 C -0.1394(2) 0.7643(3) -0.21369(15)
H8 H -0.1610 0.7834 -0.2744
C13 C -0.23121(17) 0.5283(3) -0.03855(14)
H9 H -0.2931 0.4742 -0.0714
C14 C 0.21174(18) 0.8023(3) 0.32418(14)
H10 H 0.2877 0.8186 0.3529
H11 H 0.1708 0.9029 0.3365
C15 C 0.1678(2) 0.6543(3) 0.45065(14)
H12 H 0.1297 0.5535 0.4666
H13 H 0.1273 0.7568 0.4610
C16 C 0.2792(2) 0.6617(3) 0.50918(15)
H14 H 0.2731 0.6683 0.5699
H15 H 0.3169 0.7625 0.4946
H16 H 0.3192 0.5590 0.5006
C17 C -0.0458(2) 0.8386(3) -0.16599(15)
H17 H -0.0035 0.9078 -0.1949
N3_2 N -0.04200(16) 0.8615(3) 0.33145(14)
Cu1_2 Cu 0.02574(2) -0.39824(3) 0.272466(16)
loop_
_geom_bond_atom_site_label_1
_geom_bond_atom_site_label_2
_geom_bond_site_symmetry_1
_geom_bond_site_symmetry_2
N1 C1 1_555 1_555
C1 N2 1_555 1_555
N2 C2 1_555 1_555
C2 N3 1_555 1_555
N3 Cu1_2 1_555 1_555
Cu1 N1 1_555 1_555
O1 Cu1 1_555 1_555
N4 Cu1 1_555 1_555
N5 Cu1 1_555 1_555
H1 N5 1_555 1_555
C3 N4 1_555 1_555
H2 C3 1_555 1_555
H3 C3 1_555 1_555
C4 C5 1_555 1_555
C5 N4 1_555 1_555
H4 C5 1_555 1_555
C6 C4 1_555 1_555
C7 C6 1_555 1_555
H5 C7 1_555 1_555
C8 C6 1_555 1_555
C9 O1 1_555 1_555
C10 C9 1_555 1_555
H6 C10 1_555 1_555
C11 C8 1_555 1_555
H7 C11 1_555 1_555
C12 C11 1_555 1_555
H8 C12 1_555 1_555
C13 C8 1_555 1_555
H9 C13 1_555 1_555
C14 N5 1_555 1_555
H10 C14 1_555 1_555
H11 C14 1_555 1_555
C15 N5 1_555 1_555
H12 C15 1_555 1_555
H13 C15 1_555 1_555
C16 C15 1_555 1_555
H14 C16 1_555 1_555
H15 C16 1_555 1_555
H16 C16 1_555 1_555
C17 C7 1_555 1_555
H17 C17 1_555 1_555
N3_2 Cu1 1_555 1_555
C3 C14 1_555 1_555
C4 C9 1_555 1_555
C10 C13 1_555 1_555
C12 C17 1_555 1_555

#END
