
#######################################################################
#
#                 Cambridge Crystallographic Data Centre
#                                CCDC 
#
#######################################################################
#
# If this CIF has been generated from an entry in the Cambridge 
# Structural Database, then it will include bibliographic, chemical, 
# crystal, experimental, refinement or atomic coordinate data resulting 
# from the CCDC's data processing and validation procedures.
#
#######################################################################

data_RIFWEK
_symmetry_cell_setting           monoclinic
_symmetry_space_group_name_H-M   'C 2/c'
_symmetry_Int_Tables_number      15
_space_group_name_Hall           '-C 2yn'
loop_
_symmetry_equiv_pos_site_id
_symmetry_equiv_pos_as_xyz
1 x,y,z
2 -x,y,1/2-z
3 1/2+x,1/2+y,z
4 1/2-x,1/2+y,1/2-z
5 -x,-y,-z
6 x,-y,1/2+z
7 1/2-x,1/2-y,-z
8 1/2+x,1/2-y,1/2+z
_cell_length_a                   16.6123(12)
_cell_length_b                   10.0034(7)
_cell_length_c                   29.731(2)
_cell_angle_alpha                90
_cell_angle_beta                 104.5460(10)
_cell_angle_gamma                90
_cell_volume                     4782.32
loop_
_atom_site_label
_atom_site_type_symbol
_atom_site_fract_x
_atom_site_fract_y
_atom_site_fract_z
Cd1 Cd 0.358469(12) 0.688662(19) 0.000960(7)
O1 O 0.38048(12) 0.44120(19) -0.00114(7)
O2 O 0.28236(14) 0.5461(2) -0.05210(8)
O3 O 0.25372(13) -0.15896(18) -0.04035(7)
O4 O 0.37535(13) -0.0717(2) -0.00895(9)
O5 O 0.47142(14) 0.6923(2) -0.03340(8)
H1 H 0.5121 0.6409 -0.0218
H2 H 0.4834 0.7699 -0.0415
N1 N 0.43960(15) 0.7102(2) 0.07413(9)
N2 N 0.7117(2) 0.8163(4) 0.29765(11)
C1 C 0.4653(2) 0.7929(3) 0.15144(12)
H3 H 0.4452 0.8381 0.1737
C2 C 0.4146(2) 0.7744(3) 0.10746(12)
H4 H 0.3607 0.8081 0.1008
C3 C 0.5169(2) 0.6626(4) 0.08483(12)
H5 H 0.5351 0.6165 0.0621
C4 C 0.5712(2) 0.6780(5) 0.12769(12)
H6 H 0.6248 0.6436 0.1333
C5 C 0.5459(2) 0.7447(4) 0.16257(11)
C6 C 0.6008(2) 0.7617(4) 0.20940(12)
H7 H 0.5870 0.8280 0.2281
C7 C 0.6677(2) 0.6907(4) 0.22686(12)
H8 H 0.6805 0.6230 0.2083
C8 C 0.7242(2) 0.7088(4) 0.27329(12)
C9 C 0.7866(2) 0.6164(5) 0.29019(14)
H9 H 0.7941 0.5438 0.2721
C10 C 0.8373(3) 0.6340(6) 0.33429(15)
H10 H 0.8791 0.5727 0.3467
C11 C 0.8251(3) 0.7427(6) 0.35936(14)
H11 H 0.8584 0.7571 0.3891
C12 C 0.7631(3) 0.8300(5) 0.33995(14)
H12 H 0.7561 0.9044 0.3573
C13 C 0.28144(18) 0.3103(3) -0.05619(10)
C14 C 0.21500(18) 0.3121(3) -0.09557(10)
H13 H 0.1949 0.3941 -0.1084
C15 C 0.17770(18) 0.1957(3) -0.11629(10)
C16 C 0.20745(18) 0.0755(3) -0.09488(10)
H14 H 0.1825 -0.0041 -0.1073
C17 C 0.27325(17) 0.0712(3) -0.05555(10)
C18 C 0.31136(17) 0.1891(3) -0.03654(10)
H15 H 0.3567 0.1865 -0.0108
C19 C 0.31761(18) 0.4399(3) -0.03516(10)
C20 C 0.1058(2) 0.1979(3) -0.16035(11)
C21 C 0.0309(3) 0.1299(7) -0.1502(2)
H16 H -0.0142 0.1306 -0.1777
H17 H 0.0147 0.1767 -0.1257
H18 H 0.0448 0.0392 -0.1409
C22 C 0.1302(4) 0.1267(9) -0.19818(17)
H19 H 0.0845 0.1263 -0.2253
H20 H 0.1452 0.0364 -0.1888
H21 H 0.1769 0.1710 -0.2051
C23 C 0.0780(4) 0.3380(5) -0.1756(2)
H22 H 0.1229 0.3855 -0.1833
H23 H 0.0617 0.3835 -0.1508
H24 H 0.0315 0.3341 -0.2024
C24 C 0.30225(17) -0.0602(3) -0.03325(10)
Cd1_2 Cd 0.358469(12) -0.311338(19) 0.000960(7)
Cd1F Cd 0.141531(12) -0.188662(19) -0.000960(7)
O3_2 O 0.25372(13) 0.84104(18) -0.04035(7)
O3F O 0.24628(13) 0.65896(18) 0.04035(7)
O4_2 O 0.37535(13) 0.9283(2) -0.00895(9)
O6 O 0.50036(18) 0.0516(3) 0.06222(10)
H25 H 0.4513 0.0272 0.0486
H26 H 0.5399 0.0130 0.0539
loop_
_geom_bond_atom_site_label_1
_geom_bond_atom_site_label_2
_geom_bond_site_symmetry_1
_geom_bond_site_symmetry_2
Cd1 O1 1_555 1_555
O1 C19 1_555 1_555
O2 Cd1 1_555 1_555
O3 C24 1_555 1_555
O4 C24 1_555 1_555
O5 Cd1 1_555 1_555
H1 O5 1_555 1_555
H2 O5 1_555 1_555
N1 Cd1 1_555 1_555
N2 C8 1_555 1_555
C1 H3 1_555 1_555
C2 N1 1_555 1_555
H4 C2 1_555 1_555
C3 N1 1_555 1_555
H5 C3 1_555 1_555
C4 C3 1_555 1_555
H6 C4 1_555 1_555
C5 C1 1_555 1_555
C6 C5 1_555 1_555
H7 C6 1_555 1_555
C7 C6 1_555 1_555
H8 C7 1_555 1_555
C8 C7 1_555 1_555
C9 C8 1_555 1_555
H9 C9 1_555 1_555
C10 C9 1_555 1_555
H10 C10 1_555 1_555
C11 C10 1_555 1_555
H11 C11 1_555 1_555
C12 N2 1_555 1_555
H12 C12 1_555 1_555
C13 C14 1_555 1_555
C14 H13 1_555 1_555
C15 C14 1_555 1_555
C16 C15 1_555 1_555
H14 C16 1_555 1_555
C17 C16 1_555 1_555
C18 C13 1_555 1_555
H15 C18 1_555 1_555
C19 O2 1_555 1_555
C20 C15 1_555 1_555
C21 C20 1_555 1_555
H16 C21 1_555 1_555
H17 C21 1_555 1_555
H18 C21 1_555 1_555
C22 C20 1_555 1_555
H19 C22 1_555 1_555
H20 C22 1_555 1_555
H21 C22 1_555 1_555
C23 C20 1_555 1_555
H22 C23 1_555 1_555
H23 C23 1_555 1_555
H24 C23 1_555 1_555
C24 C17 1_555 1_555
O6 H25 1_555 1_555
H26 O6 1_555 1_555
Cd1_2 O3 1_555 1_555
Cd1F O3 1_555 1_555
O3_2 Cd1 1_555 1_555
O3F Cd1 1_555 1_555
O4_2 Cd1 1_555 1_555
O4 Cd1_2 1_555 1_555
C1 C2 1_555 1_555
C4 C5 1_555 1_555
C11 C12 1_555 1_555
C13 C19 1_555 1_555
C17 C18 1_555 1_555

#END
