
#######################################################################
#
#                 Cambridge Crystallographic Data Centre
#                                CCDC 
#
#######################################################################
#
# If this CIF has been generated from an entry in the Cambridge 
# Structural Database, then it will include bibliographic, chemical, 
# crystal, experimental, refinement or atomic coordinate data resulting 
# from the CCDC's data processing and validation procedures.
#
#######################################################################

data_RIGDUH
_symmetry_cell_setting           monoclinic
_symmetry_space_group_name_H-M   'P 21/c'
_symmetry_Int_Tables_number      14
_space_group_name_Hall           '-P 2ybc'
loop_
_symmetry_equiv_pos_site_id
_symmetry_equiv_pos_as_xyz
1 x,y,z
2 -x,1/2+y,1/2-z
3 -x,-y,-z
4 x,1/2-y,1/2+z
_cell_length_a                   8.2566(14)
_cell_length_b                   20.542(3)
_cell_length_c                   8.3351(14)
_cell_angle_alpha                90
_cell_angle_beta                 102.850(4)
_cell_angle_gamma                90
_cell_volume                     1378.29
loop_
_atom_site_label
_atom_site_type_symbol
_atom_site_fract_x
_atom_site_fract_y
_atom_site_fract_z
Ni1 Ni 0.5000 0.5000 0.0000
N1 N 0.4010(2) 0.58666(8) 0.4290(2)
N2 N 0.5687(2) 0.58553(10) 0.4833(2)
N3 N 0.49401(19) 0.54219(8) 0.2302(2)
N4 N -0.2445(2) 0.84711(8) 0.3265(2)
N5 N -0.3632(2) 0.81002(9) 0.3721(3)
N6 N -0.38380(19) 0.91472(8) 0.4432(2)
N7 N 0.2689(2) 0.54614(8) -0.0887(2)
N8 N 0.1444(2) 0.52474(9) -0.1686(2)
N9 N 0.0209(3) 0.50582(11) -0.2519(4)
C1 C 0.1824(3) 0.66610(10) 0.4565(2)
C2 C 0.2283(3) 0.73001(12) 0.4889(3)
H1 H 0.3309 0.7399 0.5622
C3 C 0.1256(3) 0.78012(11) 0.4149(4)
H2 H 0.1592 0.8240 0.4372
C4 C -0.0249(3) 0.76687(11) 0.3092(3)
C5 C -0.0719(3) 0.70296(12) 0.2793(3)
H3 H -0.1753 0.6931 0.2075
C6 C 0.0306(3) 0.65288(11) 0.3532(3)
H4 H -0.0040 0.6090 0.3325
C7 C 0.2922(3) 0.61042(12) 0.5336(3)
H5 H 0.3614 0.6249 0.6402
H6 H 0.2213 0.5741 0.5558
C8 C -0.1356(3) 0.82084(13) 0.2248(3)
H7 H -0.0656 0.8564 0.1973
H8 H -0.2049 0.8041 0.1205
C9 C 0.6176(3) 0.55832(11) 0.3595(3)
H9 H 0.7313 0.5506 0.3609
C10 C 0.3593(3) 0.56110(11) 0.2796(3)
H10 H 0.2487 0.5569 0.2168
C11 C -0.4425(3) 0.85332(10) 0.4424(3)
H11 H -0.5340 0.8422 0.4888
C12 C -0.2592(2) 0.90857(10) 0.3687(3)
H12 H -0.1901 0.9432 0.3485
Ni1C Ni -0.5000 1.0000 0.5000
Ni1C_2 Ni 1.5000 0.0000 -0.5000
N1B N 0.5990(2) 0.41334(8) -0.4290(2)
N2B N 0.4313(2) 0.41447(10) -0.4833(2)
N3B N 0.50599(19) 0.45781(8) -0.2302(2)
N4B N 1.2445(2) 0.15289(8) -0.3265(2)
N5B N 1.3632(2) 0.18998(9) -0.3721(3)
N6B N 1.38380(19) 0.08528(8) -0.4432(2)
N6C N 0.61620(19) 0.58528(8) -0.0568(2)
N6A N 0.38380(19) 0.41472(8) 0.0568(2)
N7B N 0.7311(2) 0.45386(8) 0.0887(2)
N8B N 0.8556(2) 0.47526(9) 0.1686(2)
N9B N 0.9791(3) 0.49418(11) 0.2519(4)
C1B C 0.8176(3) 0.33390(10) -0.4565(2)
C2B C 0.7717(3) 0.26999(12) -0.4889(3)
H1B H 0.6691 0.2601 -0.5622
C3B C 0.8744(3) 0.21988(11) -0.4149(4)
H2B H 0.8408 0.1760 -0.4372
C4B C 1.0249(3) 0.23313(11) -0.3092(3)
C5B C 1.0719(3) 0.29704(12) -0.2793(3)
H3B H 1.1753 0.3069 -0.2075
C6B C 0.9694(3) 0.34712(11) -0.3532(3)
H4B H 1.0040 0.3910 -0.3325
C7B C 0.7078(3) 0.38958(12) -0.5336(3)
H5B H 0.6386 0.3751 -0.6402
H6B H 0.7787 0.4259 -0.5558
C8B C 1.1356(3) 0.17916(13) -0.2248(3)
H7B H 1.0656 0.1436 -0.1973
H8B H 1.2049 0.1959 -0.1205
C9B C 0.3824(3) 0.44168(11) -0.3595(3)
H9B H 0.2687 0.4494 -0.3609
C10B C 0.6407(3) 0.43890(11) -0.2796(3)
H10B H 0.7513 0.4431 -0.2168
C11B C 1.4425(3) 0.14668(10) -0.4424(3)
H11B H 1.5340 0.1578 -0.4888
C12B C 1.2592(2) 0.09143(10) -0.3687(3)
H12B H 1.1901 0.0568 -0.3485
loop_
_geom_bond_atom_site_label_1
_geom_bond_atom_site_label_2
_geom_bond_site_symmetry_1
_geom_bond_site_symmetry_2
Ni1 N3 1_555 1_555
N1 N2 1_555 1_555
N2 C9 1_555 1_555
N3 C9 1_555 1_555
N4 N5 1_555 1_555
N5 C11 1_555 1_555
N6 C11 1_555 1_555
N7 Ni1 1_555 1_555
N8 N7 1_555 1_555
N9 N8 1_555 1_555
C1 C2 1_555 1_555
C2 H1 1_555 1_555
C3 C2 1_555 1_555
H2 C3 1_555 1_555
C4 C3 1_555 1_555
C5 C4 1_555 1_555
H3 C5 1_555 1_555
C6 C1 1_555 1_555
H4 C6 1_555 1_555
C7 N1 1_555 1_555
H5 C7 1_555 1_555
H6 C7 1_555 1_555
C8 N4 1_555 1_555
H7 C8 1_555 1_555
H8 C8 1_555 1_555
C9 H9 1_555 1_555
C10 N1 1_555 1_555
H10 C10 1_555 1_555
C11 H11 1_555 1_555
C12 N4 1_555 1_555
H12 C12 1_555 1_555
Ni1C N6 1_555 1_555
Ni1C_2 N6B 1_555 1_555
N1B N2B 1_555 1_555
N2B C9B 1_555 1_555
N3B Ni1 1_555 1_555
N4B N5B 1_555 1_555
N5B C11B 1_555 1_555
N6B C11B 1_555 1_555
N6C Ni1 1_555 1_555
N6A Ni1 1_555 1_555
N7B Ni1 1_555 1_555
N8B N7B 1_555 1_555
N9B N8B 1_555 1_555
C1B C2B 1_555 1_555
C2B H1B 1_555 1_555
C3B C2B 1_555 1_555
H2B C3B 1_555 1_555
C4B C3B 1_555 1_555
C5B C4B 1_555 1_555
H3B C5B 1_555 1_555
C6B C1B 1_555 1_555
H4B C6B 1_555 1_555
C7B N1B 1_555 1_555
H5B C7B 1_555 1_555
H6B C7B 1_555 1_555
C8B N4B 1_555 1_555
H7B C8B 1_555 1_555
H8B C8B 1_555 1_555
C9B N3B 1_555 1_555
H9B C9B 1_555 1_555
C10B N1B 1_555 1_555
H10B C10B 1_555 1_555
C11B H11B 1_555 1_555
C12B N4B 1_555 1_555
H12B C12B 1_555 1_555
N3 C10 1_555 1_555
N6 C12 1_555 1_555
C1 C7 1_555 1_555
C4 C8 1_555 1_555
C5 C6 1_555 1_555
N3B C10B 1_555 1_555
N6B C12B 1_555 1_555
C1B C7B 1_555 1_555
C4B C8B 1_555 1_555
C5B C6B 1_555 1_555

#END
