
#######################################################################
#
#                 Cambridge Crystallographic Data Centre
#                                CCDC 
#
#######################################################################
#
# If this CIF has been generated from an entry in the Cambridge 
# Structural Database, then it will include bibliographic, chemical, 
# crystal, experimental, refinement or atomic coordinate data resulting 
# from the CCDC's data processing and validation procedures.
#
#######################################################################

data_RIGHUL
_symmetry_cell_setting           triclinic
_symmetry_space_group_name_H-M   'P -1'
_symmetry_Int_Tables_number      2
_space_group_name_Hall           '-P 1'
loop_
_symmetry_equiv_pos_site_id
_symmetry_equiv_pos_as_xyz
1 x,y,z
2 -x,-y,-z
_cell_length_a                   9.0660(8)
_cell_length_b                   9.3077(9)
_cell_length_c                   15.921(2)
_cell_angle_alpha                86.731(1)
_cell_angle_beta                 83.140(1)
_cell_angle_gamma                87.931(1)
_cell_volume                     1331.1
loop_
_atom_site_label
_atom_site_type_symbol
_atom_site_fract_x
_atom_site_fract_y
_atom_site_fract_z
Zn1 Zn 0.12048(3) 0.34731(2) 0.704774(14)
O1 O 0.27282(19) 0.22493(18) 0.64807(10)
O2 O 0.3880(2) 0.37354(18) 0.54777(11)
O3 O 0.07302(19) 0.25817(16) 0.81934(9)
O4 O 0.0327(2) 0.04796(17) 0.76770(10)
N1 N 0.1885(2) 0.54158(19) 0.73633(11)
N2 N 0.1515(2) 0.7688(2) 0.77254(12)
H2 H 0.120(3) 0.8550(13) 0.7709(16)
N3 N 0.0816(2) 0.60449(19) 0.33495(10)
N4 N 0.2672(2) 0.5222(2) 0.40534(12)
H3 H 0.322(3) 0.503(3) 0.4450(13)
C1 C 0.2394(2) 0.5550(2) 0.81518(13)
C2 C 0.3053(3) 0.4532(3) 0.86742(16)
H4 H 0.3234 0.3587 0.8521
C3 C 0.3426(3) 0.4982(3) 0.94286(17)
H5 H 0.3863 0.4323 0.9792
C4 C 0.3166(3) 0.6408(3) 0.96628(16)
H6 H 0.3421 0.6666 1.0181
C5 C 0.2543(3) 0.7436(3) 0.91446(16)
H7 H 0.2388 0.8386 0.9294
C6 C 0.2158(3) 0.6976(2) 0.83843(14)
C7 C 0.1375(2) 0.6726(2) 0.71378(13)
C8 C 0.0765(2) 0.7121(2) 0.63368(13)
C9 C -0.0331(3) 0.8208(2) 0.62899(14)
H8 H -0.0721 0.8669 0.6774
C10 C -0.0832(3) 0.8593(2) 0.55174(15)
H9 H -0.1567 0.9312 0.5486
C11 C -0.0251(3) 0.7919(2) 0.47898(14)
H10 H -0.0564 0.8213 0.4270
C12 C 0.0805(2) 0.6799(2) 0.48389(13)
C13 C 0.1310(2) 0.6407(2) 0.56145(13)
H11 H 0.2017 0.5663 0.5650
C14 C 0.1406(2) 0.6044(2) 0.40773(13)
C15 C 0.2920(3) 0.4619(3) 0.32729(15)
C16 C 0.4012(3) 0.3648(3) 0.29415(18)
H12 H 0.4786 0.3316 0.3242
C17 C 0.3879(3) 0.3205(3) 0.21419(18)
H13 H 0.4563 0.2533 0.1902
C18 C 0.2742(3) 0.3743(3) 0.16875(16)
H14 H 0.2697 0.3425 0.1148
C19 C 0.1676(3) 0.4731(3) 0.20060(14)
H15 H 0.0934 0.5095 0.1691
C20 C 0.1769(2) 0.5158(2) 0.28273(13)
C21 C 0.3622(3) 0.2532(2) 0.58054(14)
C22 C 0.4353(2) 0.1211(2) 0.53972(14)
C23 C 0.3858(3) -0.0166(3) 0.56556(15)
H16 H 0.3092 -0.0284 0.6096
C24 C 0.5492(3) 0.1365(2) 0.47439(15)
H17 H 0.5830 0.2278 0.4569
C25 C 0.0422(2) 0.1256(2) 0.82785(13)
C26 C 0.0178(3) 0.0624(2) 0.91749(13)
C27 C 0.0834(3) 0.1223(2) 0.98164(14)
H18 H 0.1389 0.2046 0.9697
C28 C -0.0663(3) -0.0596(2) 0.93671(14)
H19 H -0.1116 -0.0997 0.8945
Zn1A Zn 0.87952(3) -0.34731(2) 0.295226(14)
Zn1A_2 Zn -0.12048(3) 0.65269(2) 0.295226(14)
Zn1A_3 Zn -0.12048(3) -0.34731(2) 1.295226(14)
O1A O 0.72718(19) -0.22493(18) 0.35193(10)
O2A O 0.6120(2) -0.37354(18) 0.45223(11)
O3A O -0.07302(19) -0.25817(16) 1.18066(9)
O3A_2 O 0.92698(19) -0.25817(16) 0.18066(9)
O4A O -0.0327(2) -0.04796(17) 1.23230(10)
N1A N -0.1885(2) 0.45842(19) 0.26367(11)
N1A_2 N 0.8115(2) -0.54158(19) 0.26367(11)
N2A N -0.1515(2) 0.2312(2) 0.22746(12)
H2A H -0.120(3) 0.1450(13) 0.2291(16)
N3A N -0.0816(2) 0.39551(19) 0.66505(10)
N3_2 N 1.0816(2) -0.39551(19) 0.33495(10)
N4A N -0.2672(2) 0.4778(2) 0.59466(12)
H3A H -0.322(3) 0.497(3) 0.5550(13)
C1A C -0.2394(2) 0.4450(2) 0.18482(13)
C2A C -0.3053(3) 0.5468(3) 0.13258(16)
H4A H -0.3234 0.6413 0.1479
C3A C -0.3426(3) 0.5018(3) 0.05714(17)
H5A H -0.3863 0.5677 0.0208
C4A C -0.3166(3) 0.3592(3) 0.03372(16)
H6A H -0.3421 0.3334 -0.0181
C5A C -0.2543(3) 0.2564(3) 0.08554(16)
H7A H -0.2388 0.1614 0.0706
C6A C -0.2158(3) 0.3024(2) 0.16157(14)
C7A C -0.1375(2) 0.3274(2) 0.28622(13)
C8A C -0.0765(2) 0.2879(2) 0.36632(13)
C9A C 0.0331(3) 0.1792(2) 0.37101(14)
H8A H 0.0721 0.1331 0.3226
C10A C 0.0832(3) 0.1407(2) 0.44826(15)
H9A H 0.1567 0.0688 0.4514
C11A C 0.0251(3) 0.2081(2) 0.52102(14)
H10A H 0.0564 0.1787 0.5730
C12A C -0.0805(2) 0.3201(2) 0.51611(13)
C13A C -0.1310(2) 0.3593(2) 0.43855(13)
H11A H -0.2017 0.4337 0.4350
C14A C -0.1406(2) 0.3956(2) 0.59227(13)
C15A C -0.2920(3) 0.5381(3) 0.67271(15)
C16A C -0.4012(3) 0.6352(3) 0.70585(18)
H12A H -0.4786 0.6684 0.6758
C17A C -0.3879(3) 0.6795(3) 0.78581(18)
H13A H -0.4563 0.7467 0.8098
C18A C -0.2742(3) 0.6257(3) 0.83125(16)
H14A H -0.2697 0.6575 0.8852
C19A C -0.1676(3) 0.5269(3) 0.79940(14)
H15A H -0.0934 0.4905 0.8309
C20A C -0.1769(2) 0.4842(2) 0.71727(13)
C21A C 0.6378(3) -0.2532(2) 0.41946(14)
C22A C 0.5647(2) -0.1211(2) 0.46028(14)
C23A C 0.6142(3) 0.0166(3) 0.43444(15)
H16A H 0.6908 0.0284 0.3904
C24A C 0.4508(3) -0.1365(2) 0.52561(15)
H17A H 0.4170 -0.2278 0.5431
C25A C -0.0422(2) -0.1256(2) 1.17215(13)
C26A C -0.0178(3) -0.0624(2) 1.08251(13)
C27A C -0.0834(3) -0.1223(2) 1.01836(14)
H18A H -0.1389 -0.2046 1.0303
C28A C 0.0663(3) 0.0596(2) 1.06329(14)
H19A H 0.1116 0.0997 1.1055
O5 O 0.4019(5) 0.0591(6) 0.7905(3)
H1 H 0.360(7) 0.105(7) 0.751(3)
C29 C 0.5448(12) 0.0873(18) 0.8193(9)
H20 H 0.5788 0.0062 0.8536
H21 H 0.5381 0.1727 0.8519
C30 C 0.6464(16) 0.1092(15) 0.7384(8)
H22 H 0.7456 0.1230 0.7512
H23 H 0.6131 0.1925 0.7067
H24 H 0.6457 0.0260 0.7054
C31? C 0.5483(14) 0.118(3) 0.7679(13)
H25? H 0.5364 0.2070 0.7345
H26? H 0.6059 0.0514 0.7312
C32? C 0.638(3) 0.148(3) 0.8359(15)
H27? H 0.7280 0.1926 0.8117
H28? H 0.6617 0.0590 0.8659
H29? H 0.5823 0.2108 0.8744
loop_
_geom_bond_atom_site_label_1
_geom_bond_atom_site_label_2
_geom_bond_site_symmetry_1
_geom_bond_site_symmetry_2
Zn1 O1 1_555 1_555
O1 C21 1_555 1_555
O2 C21 1_555 1_555
O3 Zn1 1_555 1_555
O4 C25 1_555 1_555
O5 H1 1_555 1_555
N1 Zn1 1_555 1_555
N2 H2 1_555 1_555
N3 C14 1_555 1_555
N4 H3 1_555 1_555
C1 N1 1_555 1_555
C2 C1 1_555 1_555
H4 C2 1_555 1_555
C3 C2 1_555 1_555
H5 C3 1_555 1_555
C4 C3 1_555 1_555
H6 C4 1_555 1_555
C5 C4 1_555 1_555
H7 C5 1_555 1_555
C6 N2 1_555 1_555
C7 N1 1_555 1_555
C8 C7 1_555 1_555
C9 C8 1_555 1_555
H8 C9 1_555 1_555
C10 C9 1_555 1_555
H9 C10 1_555 1_555
C11 C10 1_555 1_555
H10 C11 1_555 1_555
C12 C11 1_555 1_555
C13 C8 1_555 1_555
H11 C13 1_555 1_555
C14 N4 1_555 1_555
C15 N4 1_555 1_555
C16 C15 1_555 1_555
H12 C16 1_555 1_555
C17 C16 1_555 1_555
H13 C17 1_555 1_555
C18 C17 1_555 1_555
H14 C18 1_555 1_555
C19 C18 1_555 1_555
H15 C19 1_555 1_555
C20 N3 1_555 1_555
C21 C22 1_555 1_555
C22 C23 1_555 1_555
C23 H16 1_555 1_555
C24 C22 1_555 1_555
H17 C24 1_555 1_555
C25 O3 1_555 1_555
C26 C25 1_555 1_555
C27 C26 1_555 1_555
H18 C27 1_555 1_555
C28 C26 1_555 1_555
H19 C28 1_555 1_555
C29 O5 1_555 1_555
H20 C29 1_555 1_555
H21 C29 1_555 1_555
C30 C29 1_555 1_555
H22 C30 1_555 1_555
H23 C30 1_555 1_555
H24 C30 1_555 1_555
Zn1A O1A 1_555 1_555
Zn1A_2 N3 1_555 1_555
Zn1A_3 O3A 1_555 1_555
O1A C21A 1_555 1_555
O2A C21A 1_555 1_555
O3A C25A 1_555 1_555
O3A_2 Zn1A 1_555 1_555
O4A C25A 1_555 1_555
N1A Zn1A_2 1_555 1_555
N1A_2 Zn1A 1_555 1_555
N2A H2A 1_555 1_555
N3A Zn1 1_555 1_555
N3_2 Zn1A 1_555 1_555
N4A H3A 1_555 1_555
C1A N1A 1_555 1_555
C2A C1A 1_555 1_555
H4A C2A 1_555 1_555
C3A C2A 1_555 1_555
H5A C3A 1_555 1_555
C4A C3A 1_555 1_555
H6A C4A 1_555 1_555
C5A C4A 1_555 1_555
H7A C5A 1_555 1_555
C6A N2A 1_555 1_555
C7A N1A 1_555 1_555
C8A C7A 1_555 1_555
C9A C8A 1_555 1_555
H8A C9A 1_555 1_555
C10A C9A 1_555 1_555
H9A C10A 1_555 1_555
C11A C10A 1_555 1_555
H10A C11A 1_555 1_555
C12A C11A 1_555 1_555
C13A C8A 1_555 1_555
H11A C13A 1_555 1_555
C14A N3A 1_555 1_555
C15A N4A 1_555 1_555
C16A C15A 1_555 1_555
H12A C16A 1_555 1_555
C17A C16A 1_555 1_555
H13A C17A 1_555 1_555
C18A C17A 1_555 1_555
H14A C18A 1_555 1_555
C19A C18A 1_555 1_555
H15A C19A 1_555 1_555
C20A N3A 1_555 1_555
C21A C22A 1_555 1_555
C22A C23A 1_555 1_555
C23A C24 1_555 1_555
H16A C23A 1_555 1_555
C24A C23 1_555 1_555
H17A C24A 1_555 1_555
C25A C26A 1_555 1_555
C26A C27A 1_555 1_555
C27A C28 1_555 1_555
H18A C27A 1_555 1_555
C28A C27 1_555 1_555
H19A C28A 1_555 1_555
N2 C7 1_555 1_555
C1 C6 1_555 1_555
C5 C6 1_555 1_555
C12 C13 1_555 1_555
C12 C14 1_555 1_555
C15 C20 1_555 1_555
C19 C20 1_555 1_555
N2A C7A 1_555 1_555
N4A C14A 1_555 1_555
C1A C6A 1_555 1_555
C5A C6A 1_555 1_555
C12A C13A 1_555 1_555
C12A C14A 1_555 1_555
C15A C20A 1_555 1_555
C19A C20A 1_555 1_555
C22A C24A 1_555 1_555
C26A C28A 1_555 1_555

#END
