
#######################################################################
#
#                 Cambridge Crystallographic Data Centre
#                                CCDC 
#
#######################################################################
#
# If this CIF has been generated from an entry in the Cambridge 
# Structural Database, then it will include bibliographic, chemical, 
# crystal, experimental, refinement or atomic coordinate data resulting 
# from the CCDC's data processing and validation procedures.
#
#######################################################################

data_RIGPON
_symmetry_cell_setting           monoclinic
_symmetry_space_group_name_H-M   'P 21'
_symmetry_Int_Tables_number      4
_space_group_name_Hall           'P 2yb'
loop_
_symmetry_equiv_pos_site_id
_symmetry_equiv_pos_as_xyz
1 x,y,z
2 -x,1/2+y,-z
_cell_length_a                   10.0007(12)
_cell_length_b                   14.7062(18)
_cell_length_c                   13.5338(17)
_cell_angle_alpha                90
_cell_angle_beta                 98.285(2)
_cell_angle_gamma                90
_cell_volume                     1969.67
loop_
_atom_site_label
_atom_site_type_symbol
_atom_site_fract_x
_atom_site_fract_y
_atom_site_fract_z
Ag1 Ag -0.151855(18) 0.265568(13) 1.178117(14)
Ag2 Ag -0.45440(2) 0.512640(17) 0.93733(2)
P1 P -0.13755(7) 0.32740(5) 1.34766(5)
P2 P 0.03650(7) 0.20108(5) 1.10216(5)
N1 N -0.2515(3) 0.37361(19) 1.0630(2)
N2 N -0.3297(3) 0.1636(2) 1.1481(2)
C1 C -0.1683(3) 0.1585(2) 1.4299(3)
H1 H -0.1765 0.1357 1.3605
H2 H -0.0712 0.1601 1.4575
C2 C -0.2420(3) 0.0939(2) 1.4921(3)
H3 H -0.2041 0.0319 1.4892
H4 H -0.2277 0.1139 1.5627
C3 C -0.3929(3) 0.0917(2) 1.4538(3)
H5 H -0.4079 0.0668 1.3851
H6 H -0.4391 0.0515 1.4968
C4 C -0.4520(3) 0.1871(2) 1.4540(3)
H7 H -0.4441 0.2094 1.5236
H8 H -0.5492 0.1849 1.4265
C5 C -0.3802(3) 0.2533(2) 1.3925(2)
H9 H -0.4177 0.3151 1.3977
H10 H -0.3964 0.2349 1.3213
C6 C -0.2263(3) 0.2547(2) 1.4294(2)
H11 H -0.2104 0.2796 1.4989
C7 C -0.3316(3) 0.4613(2) 1.2994(2)
H12 H -0.3734 0.4171 1.2538
C8 C -0.3922(3) 0.5458(2) 1.3058(2)
H13 H -0.4765 0.5583 1.2660
C9 C -0.3306(3) 0.6116(2) 1.3697(2)
H14 H -0.3717 0.6694 1.3736
C10 C -0.2078(3) 0.5923(2) 1.4283(2)
H15 H -0.1646 0.6376 1.4717
C11 C -0.1483(3) 0.5080(2) 1.4240(2)
H16 H -0.0651 0.4956 1.4651
C12 C -0.2093(3) 0.44075(19) 1.3594(2)
C13 C 0.0679(3) 0.3287(2) 1.5178(2)
H17 H -0.0006 0.3168 1.5579
C14 C 0.2023(3) 0.3373(2) 1.5623(3)
H18 H 0.2248 0.3307 1.6325
C15 C 0.3022(3) 0.3551(2) 1.5052(3)
H19 H 0.3933 0.3608 1.5360
C16 C 0.2703(3) 0.3647(2) 1.4030(3)
H20 H 0.3393 0.3773 1.3635
C17 C 0.1368(3) 0.3560(2) 1.3580(2)
H21 H 0.1154 0.3626 1.2877
C18 C 0.0341(3) 0.33775(19) 1.4142(2)
C19 C 0.1764(3) 0.1125(2) 1.2704(2)
H22 H 0.1028 0.1288 1.3089
H23 H 0.2425 0.1630 1.2764
C20 C 0.2459(3) 0.0248(2) 1.3127(2)
H24 H 0.3219 0.0104 1.2759
H25 H 0.2831 0.0342 1.3838
C21 C 0.1478(4) -0.0542(2) 1.3039(3)
H26 H 0.0756 -0.0420 1.3451
H27 H 0.1958 -0.1102 1.3294
C22 C 0.0849(4) -0.0682(2) 1.1950(3)
H28 H 0.1562 -0.0869 1.1554
H29 H 0.0173 -0.1177 1.1913
C23 C 0.0167(3) 0.0185(2) 1.1501(2)
H30 H -0.0610 0.0338 1.1849
H31 H -0.0179 0.0085 1.0787
C24 C 0.1184(3) 0.09822(18) 1.1606(2)
H32 H 0.1947 0.0817 1.1237
C25 C 0.0990(4) 0.1231(3) 0.9238(2)
H33 H 0.1816 0.1047 0.9623
C26 C 0.0742(4) 0.1020(3) 0.8223(3)
H34 H 0.1388 0.0685 0.7921
C27 C -0.0444(4) 0.1299(3) 0.7663(3)
H35 H -0.0616 0.1156 0.6971
C28 C -0.1379(4) 0.1781(3) 0.8097(3)
H36 H -0.2186 0.1981 0.7699
C29 C -0.1158(3) 0.1980(2) 0.9115(2)
H37 H -0.1823 0.2299 0.9413
C30 C 0.0041(3) 0.1710(2) 0.9694(2)
C31 C 0.1320(3) 0.3762(2) 1.0905(2)
H38 H 0.0388 0.3915 1.0792
C32 C 0.2284(3) 0.4443(2) 1.0936(2)
H39 H 0.2010 0.5060 1.0844
C33 C 0.3647(3) 0.4227(2) 1.1101(2)
H40 H 0.4306 0.4695 1.1133
C34 C 0.4048(3) 0.3323(2) 1.1220(2)
H41 H 0.4982 0.3173 1.1327
C35 C 0.3083(3) 0.2643(3) 1.11829(19)
H42 H 0.3362 0.2026 1.1256
C36 C 0.1709(3) 0.28510(18) 1.1039(2)
C37 C -0.3189(3) 0.4236(2) 1.0136(2)
C38 C -0.4078(3) 0.1074(2) 1.1226(3)
Ag2A Ag -0.54560(2) 0.012640(17) 1.06267(2)
C38A C -0.5922(3) 0.6074(2) 0.8774(3)
C39 C -0.5746(6) 0.2741(4) 0.8594(5)
H43 H -0.6066 0.2109 0.8460
H44 H -0.5223 0.2760 0.9273
Cl1 Cl -0.46825(14) 0.30626(12) 0.77027(10)
Cl2 Cl -0.71293(14) 0.34665(12) 0.85379(9)
C40? C -0.617(4) 0.292(3) 0.852(4)
H45? H -0.6348 0.3350 0.9051
H46? H -0.7044 0.2710 0.8154
Cl3? Cl -0.5162(11) 0.3441(9) 0.7695(8)
Cl4? Cl -0.5150(10) 0.1996(8) 0.9019(6)
loop_
_geom_bond_atom_site_label_1
_geom_bond_atom_site_label_2
_geom_bond_site_symmetry_1
_geom_bond_site_symmetry_2
Ag1 P1 1_555 1_555
Ag2 C37 1_555 1_555
P1 C6 1_555 1_555
P2 Ag1 1_555 1_555
N1 Ag1 1_555 1_555
N2 Ag1 1_555 1_555
C1 H1 1_555 1_555
H2 C1 1_555 1_555
C2 C1 1_555 1_555
H3 C2 1_555 1_555
H4 C2 1_555 1_555
C3 C2 1_555 1_555
H5 C3 1_555 1_555
H6 C3 1_555 1_555
C4 C3 1_555 1_555
H7 C4 1_555 1_555
H8 C4 1_555 1_555
C5 C4 1_555 1_555
H9 C5 1_555 1_555
H10 C5 1_555 1_555
C6 C1 1_555 1_555
H11 C6 1_555 1_555
C7 H12 1_555 1_555
C8 C7 1_555 1_555
H13 C8 1_555 1_555
C9 C8 1_555 1_555
H14 C9 1_555 1_555
C10 C9 1_555 1_555
H15 C10 1_555 1_555
C11 C10 1_555 1_555
H16 C11 1_555 1_555
C12 P1 1_555 1_555
C13 H17 1_555 1_555
C14 C13 1_555 1_555
H18 C14 1_555 1_555
C15 C14 1_555 1_555
H19 C15 1_555 1_555
C16 C15 1_555 1_555
H20 C16 1_555 1_555
C17 C16 1_555 1_555
H21 C17 1_555 1_555
C18 P1 1_555 1_555
C19 H22 1_555 1_555
H23 C19 1_555 1_555
C20 C19 1_555 1_555
H24 C20 1_555 1_555
H25 C20 1_555 1_555
C21 C20 1_555 1_555
H26 C21 1_555 1_555
H27 C21 1_555 1_555
C22 C21 1_555 1_555
H28 C22 1_555 1_555
H29 C22 1_555 1_555
C23 C22 1_555 1_555
H30 C23 1_555 1_555
H31 C23 1_555 1_555
C24 P2 1_555 1_555
H32 C24 1_555 1_555
C25 H33 1_555 1_555
C26 C25 1_555 1_555
H34 C26 1_555 1_555
C27 C26 1_555 1_555
H35 C27 1_555 1_555
C28 C27 1_555 1_555
H36 C28 1_555 1_555
C29 C28 1_555 1_555
H37 C29 1_555 1_555
C30 P2 1_555 1_555
C31 H38 1_555 1_555
C32 C31 1_555 1_555
H39 C32 1_555 1_555
C33 C32 1_555 1_555
H40 C33 1_555 1_555
C34 C33 1_555 1_555
H41 C34 1_555 1_555
C35 C34 1_555 1_555
H42 C35 1_555 1_555
C36 P2 1_555 1_555
C37 N1 1_555 1_555
C38 N2 1_555 1_555
C39 H43 1_555 1_555
H44 C39 1_555 1_555
Cl1 C39 1_555 1_555
Cl2 C39 1_555 1_555
Ag2A C38 1_555 1_555
C38A Ag2 1_555 1_555
C5 C6 1_555 1_555
C7 C12 1_555 1_555
C11 C12 1_555 1_555
C13 C18 1_555 1_555
C17 C18 1_555 1_555
C19 C24 1_555 1_555
C23 C24 1_555 1_555
C25 C30 1_555 1_555
C29 C30 1_555 1_555
C31 C36 1_555 1_555
C35 C36 1_555 1_555

#END
